# Generated by pormake.
# Topology gar, (4,6)-cn, num edge types: 1
# Building blocks:
#     Node 0, Type 0, BuildingBlock: GALJAG_clean_sbu_0, # of connection points: 4
#     Node 1, Type 0, BuildingBlock: GALJAG_clean_sbu_0, # of connection points: 4
#     Node 2, Type 0, BuildingBlock: GALJAG_clean_sbu_0, # of connection points: 4
#     Node 3, Type 0, BuildingBlock: GALJAG_clean_sbu_0, # of connection points: 4
#     Node 4, Type 0, BuildingBlock: GALJAG_clean_sbu_0, # of connection points: 4
#     Node 5, Type 0, BuildingBlock: GALJAG_clean_sbu_0, # of connection points: 4
#     Node 6, Type 0, BuildingBlock: GALJAG_clean_sbu_0, # of connection points: 4
#     Node 7, Type 0, BuildingBlock: GALJAG_clean_sbu_0, # of connection points: 4
#     Node 8, Type 0, BuildingBlock: GALJAG_clean_sbu_0, # of connection points: 4
#     Node 9, Type 0, BuildingBlock: GALJAG_clean_sbu_0, # of connection points: 4
#     Node 10, Type 0, BuildingBlock: GALJAG_clean_sbu_0, # of connection points: 4
#     Node 11, Type 0, BuildingBlock: GALJAG_clean_sbu_0, # of connection points: 4
#     Node 12, Type 0, BuildingBlock: GALJAG_clean_sbu_0, # of connection points: 4
#     Node 13, Type 0, BuildingBlock: GALJAG_clean_sbu_0, # of connection points: 4
#     Node 14, Type 0, BuildingBlock: GALJAG_clean_sbu_0, # of connection points: 4
#     Node 15, Type 0, BuildingBlock: GALJAG_clean_sbu_0, # of connection points: 4
#     Node 16, Type 0, BuildingBlock: GALJAG_clean_sbu_0, # of connection points: 4
#     Node 17, Type 0, BuildingBlock: GALJAG_clean_sbu_0, # of connection points: 4
#     Node 18, Type 0, BuildingBlock: GALJAG_clean_sbu_0, # of connection points: 4
#     Node 19, Type 0, BuildingBlock: GALJAG_clean_sbu_0, # of connection points: 4
#     Node 20, Type 0, BuildingBlock: GALJAG_clean_sbu_0, # of connection points: 4
#     Node 21, Type 0, BuildingBlock: GALJAG_clean_sbu_0, # of connection points: 4
#     Node 22, Type 0, BuildingBlock: GALJAG_clean_sbu_0, # of connection points: 4
#     Node 23, Type 0, BuildingBlock: GALJAG_clean_sbu_0, # of connection points: 4
#     Node 24, Type 1, BuildingBlock: CUKXOW_clean_sbu_0, # of connection points: 6
#     Node 25, Type 1, BuildingBlock: CUKXOW_clean_sbu_0, # of connection points: 6
#     Node 26, Type 1, BuildingBlock: CUKXOW_clean_sbu_0, # of connection points: 6
#     Node 27, Type 1, BuildingBlock: CUKXOW_clean_sbu_0, # of connection points: 6
#     Node 28, Type 1, BuildingBlock: CUKXOW_clean_sbu_0, # of connection points: 6
#     Node 29, Type 1, BuildingBlock: CUKXOW_clean_sbu_0, # of connection points: 6
#     Node 30, Type 1, BuildingBlock: CUKXOW_clean_sbu_0, # of connection points: 6
#     Node 31, Type 1, BuildingBlock: CUKXOW_clean_sbu_0, # of connection points: 6
#     Node 32, Type 1, BuildingBlock: CUKXOW_clean_sbu_0, # of connection points: 6
#     Node 33, Type 1, BuildingBlock: CUKXOW_clean_sbu_0, # of connection points: 6
#     Node 34, Type 1, BuildingBlock: CUKXOW_clean_sbu_0, # of connection points: 6
#     Node 35, Type 1, BuildingBlock: CUKXOW_clean_sbu_0, # of connection points: 6
#     Node 36, Type 1, BuildingBlock: CUKXOW_clean_sbu_0, # of connection points: 6
#     Node 37, Type 1, BuildingBlock: CUKXOW_clean_sbu_0, # of connection points: 6
#     Node 38, Type 1, BuildingBlock: CUKXOW_clean_sbu_0, # of connection points: 6
#     Node 39, Type 1, BuildingBlock: CUKXOW_clean_sbu_0, # of connection points: 6
#     Edge 40, Type (0, 1), BuildingBlock: AJUNOK_clean_linker_0, # of connection points: 2
#     Edge 41, Type (0, 1), BuildingBlock: AJUNOK_clean_linker_0, # of connection points: 2
#     Edge 42, Type (0, 1), BuildingBlock: AJUNOK_clean_linker_0, # of connection points: 2
#     Edge 43, Type (0, 1), BuildingBlock: AJUNOK_clean_linker_0, # of connection points: 2
#     Edge 44, Type (0, 1), BuildingBlock: AJUNOK_clean_linker_0, # of connection points: 2
#     Edge 45, Type (0, 1), BuildingBlock: AJUNOK_clean_linker_0, # of connection points: 2
#     Edge 46, Type (0, 1), BuildingBlock: AJUNOK_clean_linker_0, # of connection points: 2
#     Edge 47, Type (0, 1), BuildingBlock: AJUNOK_clean_linker_0, # of connection points: 2
#     Edge 48, Type (0, 1), BuildingBlock: AJUNOK_clean_linker_0, # of connection points: 2
#     Edge 49, Type (0, 1), BuildingBlock: AJUNOK_clean_linker_0, # of connection points: 2
#     Edge 50, Type (0, 1), BuildingBlock: AJUNOK_clean_linker_0, # of connection points: 2
#     Edge 51, Type (0, 1), BuildingBlock: AJUNOK_clean_linker_0, # of connection points: 2
#     Edge 52, Type (0, 1), BuildingBlock: AJUNOK_clean_linker_0, # of connection points: 2
#     Edge 53, Type (0, 1), BuildingBlock: AJUNOK_clean_linker_0, # of connection points: 2
#     Edge 54, Type (0, 1), BuildingBlock: AJUNOK_clean_linker_0, # of connection points: 2
#     Edge 55, Type (0, 1), BuildingBlock: AJUNOK_clean_linker_0, # of connection points: 2
#     Edge 56, Type (0, 1), BuildingBlock: AJUNOK_clean_linker_0, # of connection points: 2
#     Edge 57, Type (0, 1), BuildingBlock: AJUNOK_clean_linker_0, # of connection points: 2
#     Edge 58, Type (0, 1), BuildingBlock: AJUNOK_clean_linker_0, # of connection points: 2
#     Edge 59, Type (0, 1), BuildingBlock: AJUNOK_clean_linker_0, # of connection points: 2
#     Edge 60, Type (0, 1), BuildingBlock: AJUNOK_clean_linker_0, # of connection points: 2
#     Edge 61, Type (0, 1), BuildingBlock: AJUNOK_clean_linker_0, # of connection points: 2
#     Edge 62, Type (0, 1), BuildingBlock: AJUNOK_clean_linker_0, # of connection points: 2
#     Edge 63, Type (0, 1), BuildingBlock: AJUNOK_clean_linker_0, # of connection points: 2
#     Edge 64, Type (0, 1), BuildingBlock: AJUNOK_clean_linker_0, # of connection points: 2
#     Edge 65, Type (0, 1), BuildingBlock: AJUNOK_clean_linker_0, # of connection points: 2
#     Edge 66, Type (0, 1), BuildingBlock: AJUNOK_clean_linker_0, # of connection points: 2
#     Edge 67, Type (0, 1), BuildingBlock: AJUNOK_clean_linker_0, # of connection points: 2
#     Edge 68, Type (0, 1), BuildingBlock: AJUNOK_clean_linker_0, # of connection points: 2
#     Edge 69, Type (0, 1), BuildingBlock: AJUNOK_clean_linker_0, # of connection points: 2
#     Edge 70, Type (0, 1), BuildingBlock: AJUNOK_clean_linker_0, # of connection points: 2
#     Edge 71, Type (0, 1), BuildingBlock: AJUNOK_clean_linker_0, # of connection points: 2
#     Edge 72, Type (0, 1), BuildingBlock: AJUNOK_clean_linker_0, # of connection points: 2
#     Edge 73, Type (0, 1), BuildingBlock: AJUNOK_clean_linker_0, # of connection points: 2
#     Edge 74, Type (0, 1), BuildingBlock: AJUNOK_clean_linker_0, # of connection points: 2
#     Edge 75, Type (0, 1), BuildingBlock: AJUNOK_clean_linker_0, # of connection points: 2
#     Edge 76, Type (0, 1), BuildingBlock: AJUNOK_clean_linker_0, # of connection points: 2
#     Edge 77, Type (0, 1), BuildingBlock: AJUNOK_clean_linker_0, # of connection points: 2
#     Edge 78, Type (0, 1), BuildingBlock: AJUNOK_clean_linker_0, # of connection points: 2
#     Edge 79, Type (0, 1), BuildingBlock: AJUNOK_clean_linker_0, # of connection points: 2
#     Edge 80, Type (0, 1), BuildingBlock: AJUNOK_clean_linker_0, # of connection points: 2
#     Edge 81, Type (0, 1), BuildingBlock: AJUNOK_clean_linker_0, # of connection points: 2
#     Edge 82, Type (0, 1), BuildingBlock: AJUNOK_clean_linker_0, # of connection points: 2
#     Edge 83, Type (0, 1), BuildingBlock: AJUNOK_clean_linker_0, # of connection points: 2
#     Edge 84, Type (0, 1), BuildingBlock: AJUNOK_clean_linker_0, # of connection points: 2
#     Edge 85, Type (0, 1), BuildingBlock: AJUNOK_clean_linker_0, # of connection points: 2
#     Edge 86, Type (0, 1), BuildingBlock: AJUNOK_clean_linker_0, # of connection points: 2
#     Edge 87, Type (0, 1), BuildingBlock: AJUNOK_clean_linker_0, # of connection points: 2
#     Edge 88, Type (0, 1), BuildingBlock: AJUNOK_clean_linker_0, # of connection points: 2
#     Edge 89, Type (0, 1), BuildingBlock: AJUNOK_clean_linker_0, # of connection points: 2
#     Edge 90, Type (0, 1), BuildingBlock: AJUNOK_clean_linker_0, # of connection points: 2
#     Edge 91, Type (0, 1), BuildingBlock: AJUNOK_clean_linker_0, # of connection points: 2
#     Edge 92, Type (0, 1), BuildingBlock: AJUNOK_clean_linker_0, # of connection points: 2
#     Edge 93, Type (0, 1), BuildingBlock: AJUNOK_clean_linker_0, # of connection points: 2
#     Edge 94, Type (0, 1), BuildingBlock: AJUNOK_clean_linker_0, # of connection points: 2
#     Edge 95, Type (0, 1), BuildingBlock: AJUNOK_clean_linker_0, # of connection points: 2
#     Edge 96, Type (0, 1), BuildingBlock: AJUNOK_clean_linker_0, # of connection points: 2
#     Edge 97, Type (0, 1), BuildingBlock: AJUNOK_clean_linker_0, # of connection points: 2
#     Edge 98, Type (0, 1), BuildingBlock: AJUNOK_clean_linker_0, # of connection points: 2
#     Edge 99, Type (0, 1), BuildingBlock: AJUNOK_clean_linker_0, # of connection points: 2
#     Edge 100, Type (0, 1), BuildingBlock: AJUNOK_clean_linker_0, # of connection points: 2
#     Edge 101, Type (0, 1), BuildingBlock: AJUNOK_clean_linker_0, # of connection points: 2
#     Edge 102, Type (0, 1), BuildingBlock: AJUNOK_clean_linker_0, # of connection points: 2
#     Edge 103, Type (0, 1), BuildingBlock: AJUNOK_clean_linker_0, # of connection points: 2
#     Edge 104, Type (0, 1), BuildingBlock: AJUNOK_clean_linker_0, # of connection points: 2
#     Edge 105, Type (0, 1), BuildingBlock: AJUNOK_clean_linker_0, # of connection points: 2
#     Edge 106, Type (0, 1), BuildingBlock: AJUNOK_clean_linker_0, # of connection points: 2
#     Edge 107, Type (0, 1), BuildingBlock: AJUNOK_clean_linker_0, # of connection points: 2
#     Edge 108, Type (0, 1), BuildingBlock: AJUNOK_clean_linker_0, # of connection points: 2
#     Edge 109, Type (0, 1), BuildingBlock: AJUNOK_clean_linker_0, # of connection points: 2
#     Edge 110, Type (0, 1), BuildingBlock: AJUNOK_clean_linker_0, # of connection points: 2
#     Edge 111, Type (0, 1), BuildingBlock: AJUNOK_clean_linker_0, # of connection points: 2
#     Edge 112, Type (0, 1), BuildingBlock: AJUNOK_clean_linker_0, # of connection points: 2
#     Edge 113, Type (0, 1), BuildingBlock: AJUNOK_clean_linker_0, # of connection points: 2
#     Edge 114, Type (0, 1), BuildingBlock: AJUNOK_clean_linker_0, # of connection points: 2
#     Edge 115, Type (0, 1), BuildingBlock: AJUNOK_clean_linker_0, # of connection points: 2
#     Edge 116, Type (0, 1), BuildingBlock: AJUNOK_clean_linker_0, # of connection points: 2
#     Edge 117, Type (0, 1), BuildingBlock: AJUNOK_clean_linker_0, # of connection points: 2
#     Edge 118, Type (0, 1), BuildingBlock: AJUNOK_clean_linker_0, # of connection points: 2
#     Edge 119, Type (0, 1), BuildingBlock: AJUNOK_clean_linker_0, # of connection points: 2
#     Edge 120, Type (0, 1), BuildingBlock: AJUNOK_clean_linker_0, # of connection points: 2
#     Edge 121, Type (0, 1), BuildingBlock: AJUNOK_clean_linker_0, # of connection points: 2
#     Edge 122, Type (0, 1), BuildingBlock: AJUNOK_clean_linker_0, # of connection points: 2
#     Edge 123, Type (0, 1), BuildingBlock: AJUNOK_clean_linker_0, # of connection points: 2
#     Edge 124, Type (0, 1), BuildingBlock: AJUNOK_clean_linker_0, # of connection points: 2
#     Edge 125, Type (0, 1), BuildingBlock: AJUNOK_clean_linker_0, # of connection points: 2
#     Edge 126, Type (0, 1), BuildingBlock: AJUNOK_clean_linker_0, # of connection points: 2
#     Edge 127, Type (0, 1), BuildingBlock: AJUNOK_clean_linker_0, # of connection points: 2
#     Edge 128, Type (0, 1), BuildingBlock: AJUNOK_clean_linker_0, # of connection points: 2
#     Edge 129, Type (0, 1), BuildingBlock: AJUNOK_clean_linker_0, # of connection points: 2
#     Edge 130, Type (0, 1), BuildingBlock: AJUNOK_clean_linker_0, # of connection points: 2
#     Edge 131, Type (0, 1), BuildingBlock: AJUNOK_clean_linker_0, # of connection points: 2
#     Edge 132, Type (0, 1), BuildingBlock: AJUNOK_clean_linker_0, # of connection points: 2
#     Edge 133, Type (0, 1), BuildingBlock: AJUNOK_clean_linker_0, # of connection points: 2
#     Edge 134, Type (0, 1), BuildingBlock: AJUNOK_clean_linker_0, # of connection points: 2
#     Edge 135, Type (0, 1), BuildingBlock: AJUNOK_clean_linker_0, # of connection points: 2
# Relax obj value: 0.139
# Max RMSD: 0.232
# Mean RMSD: 0.146
data_MOF--net-gar--node1-GALJAG_clean_sbu_0--node2-CUKXOW_clean_sbu_0--edge1-AJUNOK_clean_linker_0
_symmetry_space_group_name_H-M    P1
_symmetry_Int_Tables_number       1
_symmetry_cell_setting            triclinic
loop_
_symmetry_equiv_pos_as_xyz
'x, y, z'
_cell_length_a     41.126065
_cell_length_b     39.642112
_cell_length_c     39.62349
_cell_angle_alpha  93.938742
_cell_angle_beta   94.66632
_cell_angle_gamma 97.873114
loop_
_atom_site_label
_atom_site_type_symbol
_atom_site_fract_x
_atom_site_fract_y
_atom_site_fract_z
_atom_type_partial_charge
In0 In 0.04078 0.27832 0.46094 0.0
O1 O 0.05925 0.26717 0.40979 0.0
O2 O 0.09392 0.27152 0.45322 0.0
C3 C 0.98644 0.28755 0.42251 0.0
C4 C 0.03302 0.21816 0.48887 0.0
C5 C 0.05253 0.33706 0.50145 0.0
O6 O 0.9855 0.26974 0.44772 0.0
O7 O 0.01476 0.30191 0.41764 0.0
O8 O 0.02926 0.31363 0.50476 0.0
O9 O 0.07044 0.33042 0.4782 0.0
C10 C 0.0884 0.26573 0.42135 0.0
O11 O 0.04579 0.2454 0.50611 0.0
O12 O 0.02399 0.22172 0.45838 0.0
In13 In 1.00608 0.79722 0.61689 0.0
O14 O 0.98142 0.82992 0.58066 0.0
O15 O 0.03384 0.83856 0.58979 0.0
C16 C 0.99302 0.73927 0.57527 0.0
C17 C 0.0623 0.79968 0.65623 0.0
C18 C 0.96924 0.80736 0.66873 0.0
O19 O 0.0192 0.76001 0.57591 0.0
O20 O 0.9725 0.74848 0.59477 0.0
O21 O 0.98408 0.7818 0.66521 0.0
O22 O 0.97121 0.82674 0.64484 0.0
C23 C 1.00832 0.84719 0.57489 0.0
O24 O 0.04509 0.77198 0.64444 0.0
O25 O 0.05167 0.82632 0.64716 0.0
In26 In 0.54316 0.77548 0.94579 0.0
O27 O 0.56819 0.79469 0.9002 0.0
O28 O 0.5834 0.75095 0.92101 0.0
C29 C 0.48949 0.77251 0.90217 0.0
C30 C 0.53723 0.72267 0.98503 0.0
C31 C 0.55146 0.83164 0.99022 0.0
O32 O 0.5044 0.80019 0.91689 0.0
O33 O 0.50132 0.7461 0.90999 0.0
O34 O 0.57403 0.82407 0.97258 0.0
O35 O 0.52551 0.81036 0.98616 0.0
C36 C 0.5859 0.77131 0.89793 0.0
O37 O 0.56474 0.74044 0.98224 0.0
O38 O 0.51303 0.732 0.9684 0.0
In39 In 0.50932 0.29893 0.10909 0.0
O40 O 0.48542 0.24388 0.09599 0.0
O41 O 0.52246 0.26363 0.06564 0.0
C42 C 0.50983 0.35136 0.06944 0.0
C43 C 0.46442 0.31355 0.15135 0.0
C44 C 0.56292 0.29802 0.15221 0.0
O45 O 0.48363 0.33271 0.07458 0.0
O46 O 0.53579 0.34244 0.08295 0.0
O47 O 0.53946 0.27354 0.14806 0.0
O48 O 0.55938 0.32251 0.13419 0.0
C49 C 0.5023 0.23829 0.07162 0.0
O50 O 0.49491 0.32027 0.15972 0.0
O51 O 0.45668 0.29937 0.12177 0.0
In52 In 1.00324 0.76452 0.18244 0.0
O53 O 0.98774 0.72442 0.13718 0.0
O54 O 0.01785 0.71073 0.17846 0.0
C55 C 0.99901 0.81408 0.13874 0.0
C56 C 0.94926 0.766 0.21944 0.0
C57 C 0.06592 0.77911 0.21502 0.0
O58 O 1.00721 0.78549 0.1299 0.0
O59 O 0.99323 0.81759 0.16949 0.0
O60 O 0.04363 0.75788 0.22496 0.0
O61 O 0.05643 0.7934 0.18926 0.0
C62 C 1.00347 0.7021 0.14916 0.0
O63 O 0.97734 0.78266 0.22846 0.0
O64 O 0.94848 0.74718 0.19233 0.0
In65 In 0.53525 0.80024 0.3785 0.0
O66 O 0.56354 0.79964 0.33026 0.0
O67 O 0.59158 0.80265 0.37759 0.0
C68 C 0.47507 0.79076 0.34076 0.0
C69 C 0.53974 0.74635 0.41577 0.0
C70 C 0.53221 0.85685 0.42054 0.0
O71 O 0.49634 0.81681 0.33984 0.0
O72 O 0.48437 0.76933 0.36012 0.0
O73 O 0.51798 0.8275 0.42497 0.0
O74 O 0.54774 0.85803 0.39433 0.0
C75 C 0.59179 0.80101 0.34578 0.0
O76 O 0.54592 0.77683 0.42853 0.0
O77 O 0.53157 0.74315 0.38413 0.0
In78 In 0.50663 0.26443 0.68417 0.0
O79 O 0.52542 0.23911 0.63789 0.0
O80 O 0.49752 0.20629 0.66818 0.0
C81 C 0.49889 0.31708 0.64578 0.0
C82 C 0.4505 0.26191 0.71794 0.0
C83 C 0.56706 0.2751 0.72159 0.0
O84 O 0.49446 0.28641 0.63363 0.0
O85 O 0.50705 0.32117 0.67741 0.0
O86 O 0.54636 0.24855 0.72229 0.0
O87 O 0.55699 0.2966 0.70274 0.0
C88 C 0.51315 0.20899 0.64206 0.0
O89 O 0.47928 0.26703 0.73277 0.0
O90 O 0.44988 0.25693 0.68615 0.0
In91 In 0.04004 0.30512 0.87993 0.0
O92 O 0.04192 0.27803 0.92932 0.0
O93 O 0.03805 0.24774 0.88244 0.0
C94 C 0.0391 0.36607 0.91621 0.0
C95 C 0.09574 0.30535 0.84565 0.0
C96 C 0.97729 0.29402 0.8478 0.0
O97 O 0.04877 0.34072 0.92934 0.0
O98 O 0.03124 0.36111 0.88468 0.0
O99 O 1.00053 0.31363 0.83733 0.0
O100 O 0.98571 0.28001 0.87411 0.0
C101 C 0.0398 0.24847 0.91449 0.0
O102 O 0.06686 0.3001 0.8312 0.0
O103 O 0.09679 0.3113 0.87737 0.0
In104 In 0.42324 0.08244 0.27183 0.0
O105 O 0.46278 0.10329 0.2359 0.0
O106 O 0.43256 0.05669 0.21997 0.0
C107 C 0.45541 0.08353 0.33666 0.0
C108 C 0.38369 0.13254 0.26319 0.0
C109 C 0.38467 0.02139 0.27221 0.0
O110 O 0.46913 0.07769 0.30993 0.0
O111 O 0.42668 0.09041 0.33057 0.0
O112 O 0.37488 0.04931 0.28047 0.0
O113 O 0.41398 0.02424 0.26434 0.0
C114 C 0.45582 0.07858 0.21325 0.0
O115 O 0.3745 0.10118 0.2552 0.0
O116 O 0.41382 0.13946 0.27418 0.0
In117 In 0.28433 0.14432 0.48887 0.0
O118 O 0.26381 0.18497 0.52118 0.0
O119 O 0.27951 0.14269 0.54477 0.0
C120 C 0.3118 0.19059 0.44893 0.0
C121 C 0.33319 0.11009 0.50816 0.0
C122 C 0.22643 0.10524 0.46727 0.0
O123 O 0.30773 0.1974 0.47958 0.0
O124 O 0.30244 0.15981 0.43809 0.0
O125 O 0.25154 0.09328 0.4785 0.0
O126 O 0.23085 0.13714 0.46533 0.0
C127 C 0.26878 0.17084 0.54835 0.0
O128 O 0.31444 0.10084 0.4813 0.0
O129 O 0.3287 0.13782 0.52329 0.0
In130 In 0.17074 1.00675 0.80491 0.0
O131 O 0.13237 0.98673 0.76033 0.0
O132 O 0.17752 0.01555 0.74992 0.0
C133 C 0.1268 0.99759 0.85312 0.0
C134 C 0.20923 0.95617 0.8035 0.0
C135 C 0.19632 0.07455 0.81062 0.0
O136 O 0.11994 0.0085 0.8247 0.0
O137 O 0.1559 0.99103 0.85747 0.0
O138 O 0.21249 0.05214 0.82185 0.0
O139 O 0.16754 0.0629 0.79822 0.0
C140 C 0.14956 1.00005 0.73827 0.0
O141 O 0.21675 0.98321 0.82302 0.0
O142 O 0.18231 0.95448 0.78542 0.0
In143 In 0.23017 0.89782 0.03915 0.0
O144 O 0.22336 0.84709 0.06574 0.0
O145 O 0.24097 0.89219 0.09694 0.0
C146 C 0.23155 0.85836 0.97893 0.0
C147 C 0.17991 0.93816 0.04114 0.0
C148 C 0.28929 0.9382 0.03837 0.0
O149 O 0.20804 0.87467 0.98504 0.0
O150 O 0.25301 0.86013 1.00383 0.0
O151 O 0.26822 0.9322 0.01303 0.0
O152 O 0.28013 0.92482 0.06462 0.0
C153 C 0.23387 0.86008 0.09535 0.0
O154 O 0.20903 0.94886 0.03532 0.0
O155 O 0.17563 0.90679 0.04626 0.0
In156 In 0.26921 0.42189 0.07282 0.0
O157 O 0.25946 0.36925 0.09146 0.0
O158 O 0.24494 0.4095 0.12191 0.0
C159 C 0.26968 0.38335 0.01509 0.0
C160 C 0.22759 0.46468 0.05313 0.0
C161 C 0.32962 0.45898 0.08851 0.0
O162 O 0.29607 0.39682 0.03227 0.0
O163 O 0.24344 0.38913 0.02735 0.0
O164 O 0.30527 0.47098 0.0754 0.0
O165 O 0.32324 0.42833 0.09532 0.0
C166 C 0.24616 0.37787 0.11749 0.0
O167 O 0.2364 0.4626 0.0842 0.0
O168 O 0.23939 0.44501 0.03266 0.0
In169 In 0.81983 0.17283 0.02047 0.0
O170 O 0.8369 0.11986 0.02261 0.0
O171 O 0.8733 0.15958 0.0126 0.0
C172 C 0.75981 0.13418 0.02084 0.0
C173 C 0.82044 0.21226 0.08149 0.0
C174 C 0.81589 0.21085 0.96419 0.0
O175 O 0.78105 0.13866 0.04611 0.0
O176 O 0.76911 0.14857 0.99519 0.0
O177 O 0.82656 0.22379 0.99378 0.0
O178 O 0.8091 0.17874 0.96261 0.0
C179 C 0.86644 0.1281 0.01678 0.0
O180 O 0.84423 0.19684 0.07409 0.0
O181 O 0.79778 0.20942 0.05762 0.0
In182 In 0.12447 0.48819 0.29734 0.0
O183 O 0.17569 0.47273 0.30768 0.0
O184 O 0.13621 0.43216 0.29915 0.0
C185 C 0.1627 0.54827 0.2907 0.0
C186 C 0.08666 0.48612 0.23614 0.0
C187 C 0.09229 0.49074 0.35592 0.0
O188 O 0.1645 0.52126 0.2727 0.0
O189 O 0.14136 0.54506 0.31184 0.0
O190 O 0.07828 0.47661 0.32787 0.0
O191 O 0.12224 0.50211 0.35445 0.0
C192 C 0.16707 0.4409 0.30499 0.0
O193 O 0.0851 0.50725 0.26103 0.0
O194 O 0.10583 0.46463 0.24261 0.0
In195 In 0.78451 0.93755 0.56393 0.0
O196 O 0.75489 0.89811 0.59276 0.0
O197 O 0.78596 0.93906 0.62124 0.0
C198 C 0.78036 0.88399 0.51802 0.0
C199 C 0.74428 0.98083 0.54265 0.0
C200 C 0.84651 0.97029 0.56594 0.0
O201 O 0.80755 0.8979 0.53321 0.0
O202 O 0.75565 0.89704 0.52639 0.0
O203 O 0.82198 0.98153 0.55199 0.0
O204 O 0.83968 0.94255 0.5794 0.0
C205 C 0.76634 0.91173 0.62163 0.0
O206 O 0.75339 0.97969 0.57374 0.0
O207 O 0.75608 0.96069 0.52261 0.0
In208 In 0.86597 0.0499 0.23841 0.0
O209 O 0.91014 0.07298 0.21132 0.0
O210 O 0.87383 0.03698 0.18255 0.0
C211 C 0.91059 0.04943 0.29186 0.0
C212 C 0.83198 0.10428 0.24305 0.0
C213 C 0.83151 0.98703 0.2453 0.0
O214 O 0.9126 0.03363 0.26353 0.0
O215 O 0.88599 0.06512 0.29309 0.0
O216 O 0.83925 0.99675 0.21693 0.0
O217 O 0.83967 0.00956 0.26966 0.0
C218 C 0.90116 0.05607 0.18327 0.0
O219 O 0.81755 0.07457 0.23338 0.0
O220 O 0.86268 0.10608 0.24838 0.0
In221 In 0.31781 0.67722 0.51734 0.0
O222 O 0.3337 0.62365 0.51396 0.0
O223 O 0.37231 0.66465 0.5158 0.0
C224 C 0.25768 0.64018 0.52221 0.0
C225 C 0.31856 0.71799 0.57708 0.0
C226 C 0.31469 0.71286 0.45941 0.0
O227 O 0.28137 0.64205 0.54482 0.0
O228 O 0.2646 0.6561 0.49666 0.0
O229 O 0.32434 0.72718 0.48871 0.0
O230 O 0.30869 0.68076 0.4591 0.0
C231 C 0.36436 0.63252 0.51451 0.0
O232 O 0.34128 0.70042 0.57134 0.0
O233 O 0.29711 0.71643 0.55225 0.0
In234 In 0.37282 0.55809 0.74766 0.0
O235 O 0.32971 0.58641 0.72852 0.0
O236 O 0.36109 0.60855 0.77158 0.0
C237 C 0.34696 0.49031 0.74792 0.0
C238 C 0.41589 0.56548 0.69855 0.0
C239 C 0.40288 0.57023 0.81061 0.0
O240 O 0.33027 0.51181 0.73573 0.0
O241 O 0.37602 0.50275 0.75826 0.0
O242 O 0.41779 0.57608 0.78448 0.0
O243 O 0.37247 0.5589 0.805 0.0
C244 C 0.33612 0.61048 0.75178 0.0
O245 O 0.42351 0.55867 0.72836 0.0
O246 O 0.38592 0.56893 0.69283 0.0
In247 In 0.63533 0.98622 0.79915 0.0
O248 O 0.68668 0.96975 0.80006 0.0
O249 O 0.64857 0.93194 0.81078 0.0
C250 C 0.67494 0.04644 0.79658 0.0
C251 C 0.6001 0.98035 0.73572 0.0
C252 C 0.59848 0.99232 0.85439 0.0
O253 O 0.67336 0.03108 0.82343 0.0
O254 O 0.65631 0.0317 0.77154 0.0
O255 O 0.59683 0.96486 0.83561 0.0
O256 O 0.61796 0.01649 0.84493 0.0
C257 C 0.67894 0.93951 0.80736 0.0
O258 O 0.59128 0.9958 0.76163 0.0
O259 O 0.6248 0.96549 0.74242 0.0
In260 In 0.76656 0.63152 0.99883 0.0
O261 O 0.80155 0.59239 0.98983 0.0
O262 O 0.79421 0.60839 0.04067 0.0
C263 C 0.70486 0.60046 0.97901 0.0
C264 C 0.76521 0.67196 0.05496 0.0
C265 C 0.78846 0.67351 0.95285 0.0
O266 O 0.72708 0.58484 0.9915 0.0
O267 O 0.71427 0.63137 0.97516 0.0
O268 O 0.77769 0.68333 0.98003 0.0
O269 O 0.78866 0.64166 0.94849 0.0
C270 C 0.8087 0.59036 0.0212 0.0
O271 O 0.79051 0.6724 0.03888 0.0
O272 O 0.74058 0.65077 0.04267 0.0
In273 In 0.91672 0.58346 0.77263 0.0
O274 O 0.86778 0.60174 0.75563 0.0
O275 O 0.90699 0.64038 0.77357 0.0
C276 C 0.8726 0.52628 0.77534 0.0
C277 C 0.95333 0.57699 0.71767 0.0
C278 C 0.95414 0.58421 0.83422 0.0
O279 O 0.88222 0.54704 0.80088 0.0
O280 O 0.88492 0.53457 0.74846 0.0
O281 O 0.96095 0.56941 0.80702 0.0
O282 O 0.92991 0.60027 0.82996 0.0
C283 C 0.87696 0.63328 0.76235 0.0
O284 O 0.95151 0.60567 0.73307 0.0
O285 O 0.93772 0.55227 0.7306 0.0
In286 In 0.72915 0.39489 0.54206 0.0
O287 O 0.72723 0.34406 0.5694 0.0
O288 O 0.73472 0.39026 0.60038 0.0
C289 C 0.72931 0.35546 0.4814 0.0
C290 C 0.67938 0.43597 0.54305 0.0
C291 C 0.7888 0.43507 0.54341 0.0
O292 O 0.70542 0.37081 0.48851 0.0
O293 O 0.75174 0.35819 0.5055 0.0
O294 O 0.76871 0.42913 0.51725 0.0
O295 O 0.7784 0.42168 0.56912 0.0
C296 C 0.7328 0.35816 0.59934 0.0
O297 O 0.70869 0.4463 0.53754 0.0
O298 O 0.67461 0.40454 0.54801 0.0
In299 In 0.66797 0.50605 0.31519 0.0
O300 O 0.70866 0.47642 0.3357 0.0
O301 O 0.67963 0.45597 0.29039 0.0
C302 C 0.70317 0.57042 0.32382 0.0
C303 C 0.63797 0.50462 0.25197 0.0
C304 C 0.6235 0.49701 0.36221 0.0
O305 O 0.71312 0.54541 0.30854 0.0
O306 O 0.67634 0.56266 0.33666 0.0
O307 O 0.61824 0.51105 0.33507 0.0
O308 O 0.6517 0.48778 0.36618 0.0
C309 C 0.70314 0.45294 0.31183 0.0
O310 O 0.62564 0.48666 0.27412 0.0
O311 O 0.66478 0.52321 0.26204 0.0
Tb312 Tb 0.03074 0.06601 0.01651 0.0
C313 C 0.04278 1.00634 0.96359 0.0
Tb314 Tb 1.00652 0.99 0.02861 0.0
O315 O 0.08329 0.0595 0.02294 0.0
O316 O 0.04881 0.02658 0.04382 0.0
O317 O 0.03639 0.03816 0.96839 0.0
C318 C 0.99925 0.93002 0.05648 0.0
O319 O 0.0361 0.98311 0.9857 0.0
C320 C 0.95863 0.02556 1.00783 0.0
C321 C 0.99496 0.04802 0.08123 0.0
O322 O 1.00015 0.93328 0.02401 0.0
O323 O 1.00293 0.96003 0.07227 0.0
O324 O 0.95377 0.99614 0.02049 0.0
O325 O 0.98864 0.02956 1.00206 0.0
O326 O 1.00597 0.0183 0.07739 0.0
O327 O 1.00072 0.07182 0.05951 0.0
C328 C 0.03325 0.12529 0.98773 0.0
O329 O 0.04275 0.12244 0.01958 0.0
O330 O 0.02232 0.09522 0.97326 0.0
C331 C 0.07861 0.03079 0.03706 0.0
Tb332 Tb 0.27915 0.82582 0.28584 0.0
C333 C 0.33786 0.7803 0.28398 0.0
Tb334 Tb 0.26334 0.74441 0.26762 0.0
O335 O 0.28656 0.82305 0.34207 0.0
O336 O 0.27482 0.78015 0.30997 0.0
O337 O 0.32796 0.81074 0.282 0.0
C338 C 0.23865 0.68058 0.2773 0.0
O339 O 0.31704 0.751 0.28145 0.0
C340 C 0.26115 0.78001 0.21249 0.0
C341 C 0.20482 0.79062 0.26755 0.0
O342 O 0.26109 0.68898 0.25672 0.0
O343 O 0.2311 0.708 0.2927 0.0
O344 O 0.25676 0.74673 0.21157 0.0
O345 O 0.26803 0.78993 0.24349 0.0
O346 O 0.21426 0.75997 0.27025 0.0
O347 O 0.22591 0.81974 0.27061 0.0
C348 C 0.30457 0.8892 0.27501 0.0
O349 O 0.28255 0.88152 0.29628 0.0
O350 O 0.31121 0.86132 0.25975 0.0
C351 C 0.28249 0.78974 0.34095 0.0
Tb352 Tb 0.56423 0.04135 0.5277 0.0
C353 C 0.54893 0.00822 0.59832 0.0
Tb354 Tb 0.4954 0.02445 0.54404 0.0
O355 O 0.56083 0.09592 0.53235 0.0
O356 O 0.53485 0.06264 0.56251 0.0
O357 O 0.56992 0.01405 0.57465 0.0
C358 C 0.43404 0.03381 0.55427 0.0
O359 O 0.51774 0.01326 0.59304 0.0
C360 C 0.5193 0.97277 0.51516 0.0
C361 C 0.51018 0.05698 0.47327 0.0
O362 O 0.46065 0.0521 0.56868 0.0
O363 O 0.4422 0.00894 0.53525 0.0
O364 O 0.49781 0.96966 0.53758 0.0
O365 O 0.52445 1.00363 0.50866 0.0
O366 O 0.48957 0.05146 0.49721 0.0
O367 O 0.54136 0.05176 0.47833 0.0
C368 C 0.62651 0.03782 0.51608 0.0
O369 O 0.61673 0.06124 0.53563 0.0
O370 O 0.60114 0.01659 0.50305 0.0
C371 C 0.53938 0.09313 0.55472 0.0
Tb372 Tb 0.28108 0.292 0.82044 0.0
C373 C 0.29425 0.34894 0.7675 0.0
Tb374 Tb 0.26294 0.27294 0.74054 0.0
O375 O 0.33392 0.28648 0.82134 0.0
O376 O 0.30371 0.27876 0.77707 0.0
O377 O 0.29124 0.34172 0.79961 0.0
C378 C 0.26805 0.24388 0.6795 0.0
O379 O 0.28705 0.3259 0.74081 0.0
C380 C 0.21128 0.28695 0.77255 0.0
C381 C 0.25014 0.21593 0.79372 0.0
O382 O 0.25382 0.27083 0.68523 0.0
O383 O 0.27981 0.23412 0.70799 0.0
O384 O 0.21028 0.27997 0.73984 0.0
O385 O 0.2405 0.28566 0.78391 0.0
O386 O 0.25192 0.22338 0.76156 0.0
O387 O 0.25806 0.23882 0.82035 0.0
C388 C 0.27436 0.31606 0.88278 0.0
O389 O 0.29211 0.29239 0.87523 0.0
O390 O 0.26073 0.32628 0.85535 0.0
C391 C 0.3331 0.27858 0.7888 0.0
Tb392 Tb 0.0196 0.02629 0.47488 0.0
C393 C 0.97947 0.01847 0.53798 0.0
Tb394 Tb 0.05618 0.02368 0.54605 0.0
O395 O 0.99617 0.97351 0.47541 0.0
O396 O 0.04196 0.98992 0.50197 0.0
O397 O 0.98174 0.03297 0.50892 0.0
C398 C 0.09117 0.0095 0.60169 0.0
O399 O 1.00495 0.00771 0.55454 0.0
C400 C 0.03795 0.08285 0.53268 0.0
C401 C 0.09736 0.03677 0.48276 0.0
O402 O 0.06481 0.99055 0.58707 0.0
O403 O 0.09776 0.03611 0.58477 0.0
O404 O 0.04213 0.07348 0.56329 0.0
O405 O 0.04701 0.0609 0.51274 0.0
O406 O 0.0971 0.02602 0.51388 0.0
O407 O 0.07023 0.04084 0.46385 0.0
C408 C 0.99342 0.04019 0.41492 0.0
O409 O 0.0131 0.01762 0.41967 0.0
O410 O 0.98877 0.05517 0.444 0.0
C411 C 0.01888 0.96537 0.4966 0.0
Tb412 Tb 0.31105 0.78762 0.79377 0.0
C413 C 0.25747 0.80016 0.84407 0.0
Tb414 Tb 0.24101 0.78413 0.76366 0.0
O415 O 0.31305 0.84119 0.81225 0.0
O416 O 0.28325 0.82129 0.76858 0.0
O417 O 0.28691 0.7903 0.84125 0.0
C418 C 0.18149 0.79569 0.74115 0.0
O419 O 0.2366 0.80148 0.81687 0.0
C420 C 0.2617 0.72465 0.76757 0.0
C421 C 0.2945 0.77416 0.71298 0.0
O422 O 0.18766 0.76965 0.75743 0.0
O423 O 0.20878 0.81511 0.73767 0.0
O424 O 0.23967 0.73093 0.74446 0.0
O425 O 0.2687 0.75037 0.78892 0.0
O426 O 0.26516 0.78375 0.71655 0.0
O427 O 0.31539 0.77143 0.73987 0.0
C428 C 0.3708 0.7759 0.8159 0.0
O429 O 0.36434 0.80235 0.80048 0.0
O430 O 0.34359 0.75596 0.81873 0.0
C431 C 0.29043 0.84722 0.78962 0.0
Tb432 Tb 0.48996 0.01899 0.02752 0.0
C433 C 0.54126 0.96915 0.03943 0.0
Tb434 Tb 0.56187 0.04917 0.03868 0.0
O435 O 0.49824 0.99005 0.98046 0.0
O436 O 0.5272 0.03659 0.99547 0.0
O437 O 0.51046 0.97424 0.04281 0.0
C438 C 0.62554 0.06952 0.03133 0.0
O439 O 0.5648 0.99439 0.03477 0.0
C440 C 0.52821 0.05812 0.09218 0.0
C441 C 0.51084 0.09894 0.02665 0.0
O442 O 0.61411 0.05845 0.0588 0.0
O443 O 0.60116 0.06879 1.00833 0.0
O444 O 0.55417 0.07834 0.08571 0.0
O445 O 0.52451 0.0321 0.07094 0.0
O446 O 0.54148 0.09369 0.02297 0.0
O447 O 0.48736 0.07389 0.03195 0.0
C448 C 0.42532 0.99967 0.03136 0.0
O449 O 0.43853 0.01182 1.00524 0.0
O450 O 0.44856 0.99862 0.05528 0.0
C451 C 0.52382 0.01082 0.97405 0.0
Tb452 Tb 0.24401 0.26751 0.29815 0.0
C453 C 0.31001 0.28071 0.34676 0.0
Tb454 Tb 0.31021 0.30919 0.27565 0.0
O455 O 0.25666 0.21562 0.28493 0.0
O456 O 0.28795 0.25844 0.27815 0.0
O457 O 0.27747 0.27919 0.34421 0.0
C458 C 0.36102 0.32296 0.23937 0.0
O459 O 0.32834 0.28813 0.32154 0.0
C460 C 0.26812 0.3501 0.29778 0.0
C461 C 0.24521 0.29443 0.22628 0.0
O462 O 0.36253 0.32816 0.27235 0.0
O463 O 0.33136 0.31003 0.22755 0.0
O464 O 0.29704 0.36101 0.28832 0.0
O465 O 0.26628 0.31814 0.29565 0.0
O466 O 0.27761 0.29495 0.22948 0.0
O467 O 0.22643 0.28821 0.2515 0.0
C468 C 0.19352 0.25475 0.33526 0.0
O469 O 0.19212 0.24748 0.30251 0.0
O470 O 0.22288 0.26933 0.34638 0.0
C471 C 0.28568 0.2264 0.27559 0.0
Tb472 Tb 0.49559 0.54385 1.00075 0.0
C473 C 0.45839 0.52293 0.0636 0.0
Tb474 Tb 0.53637 0.53612 0.06681 0.0
O475 O 0.47782 0.48881 0.99484 0.0
O476 O 0.52396 0.50733 0.01967 0.0
O477 O 0.4565 0.53755 0.03444 0.0
C478 C 0.57045 0.51741 0.12083 0.0
O479 O 0.48671 0.51771 0.07958 0.0
C480 C 0.52817 0.59945 0.05642 0.0
C481 C 0.57203 0.55376 1.00363 0.0
O482 O 0.5405 0.50419 0.10983 0.0
O483 O 0.58072 0.54086 0.10153 0.0
O484 O 0.5524 0.59135 0.07556 0.0
O485 O 0.50819 0.57279 0.04793 0.0
O486 O 0.57108 0.53332 0.02871 0.0
O487 O 0.54548 0.56656 0.99239 0.0
C488 C 0.46912 0.56262 0.94267 0.0
O489 O 0.49261 0.54405 0.94563 0.0
O490 O 0.4603 0.57063 0.97253 0.0
C491 C 0.50328 0.48099 0.0125 0.0
Tb492 Tb 0.81112 0.28949 0.29762 0.0
C493 C 0.75411 0.29787 0.3458 0.0
Tb494 Tb 0.74011 0.28055 0.26573 0.0
O495 O 0.81107 0.34335 0.31345 0.0
O496 O 0.78031 0.32026 0.27217 0.0
O497 O 0.78422 0.28983 0.34337 0.0
C498 C 0.68153 0.29114 0.2386 0.0
O499 O 0.73318 0.29784 0.31839 0.0
C500 C 0.76409 0.22254 0.26964 0.0
C501 C 0.79655 0.27099 0.21724 0.0
O502 O 0.68645 0.26681 0.25794 0.0
O503 O 0.70947 0.30927 0.23476 0.0
O504 O 0.73906 0.22672 0.24905 0.0
O505 O 0.77116 0.24894 0.29043 0.0
O506 O 0.76631 0.27899 0.21957 0.0
O507 O 0.8177 0.27135 0.24475 0.0
C508 C 0.869 0.28607 0.33123 0.0
O509 O 0.86505 0.302 0.30387 0.0
O510 O 0.84073 0.27093 0.33834 0.0
C511 C 0.78647 0.34691 0.29224 0.0
Tb512 Tb 0.98813 0.52086 0.53116 0.0
C513 C 0.04268 0.47545 0.54503 0.0
Tb514 Tb 0.05918 0.55576 0.54251 0.0
O515 O 0.99651 0.49238 0.48395 0.0
O516 O 0.02537 0.53913 0.49907 0.0
O517 O 0.01151 0.47878 0.54855 0.0
C518 C 0.12261 0.58065 0.53796 0.0
O519 O 0.06479 0.50145 0.53875 0.0
C520 C 0.02469 0.56158 0.59574 0.0
C521 C 1.00392 0.60112 0.53009 0.0
O522 O 0.11167 0.56214 0.56158 0.0
O523 O 0.09784 0.58495 0.5171 0.0
O524 O 0.04952 0.58358 0.58979 0.0
O525 O 0.0227 0.53615 0.5742 0.0
O526 O 0.03515 0.59813 0.52642 0.0
O527 O 0.98191 0.57466 0.53494 0.0
C528 C 0.92437 0.49836 0.53673 0.0
O529 O 0.93637 0.50995 0.50977 0.0
O530 O 0.94832 0.49938 0.56032 0.0
C531 C 0.02249 0.5129 0.47811 0.0
Tb532 Tb 0.78076 0.7899 0.32591 0.0
C533 C 0.78557 0.84546 0.27209 0.0
Tb534 Tb 0.76314 0.76672 0.24992 0.0
O535 O 0.83237 0.80413 0.31764 0.0
O536 O 0.80371 0.76471 0.28651 0.0
O537 O 0.78157 0.83934 0.30424 0.0
C538 C 0.76421 0.74288 0.18628 0.0
O539 O 0.78277 0.8205 0.24738 0.0
C540 C 0.71083 0.78477 0.27816 0.0
C541 C 0.75549 0.71158 0.30393 0.0
O542 O 0.78647 0.76616 0.20237 0.0
O543 O 0.74175 0.73315 0.20604 0.0
O544 O 0.71073 0.77521 0.24619 0.0
O545 O 0.73978 0.78453 0.29076 0.0
O546 O 0.76031 0.71737 0.27193 0.0
O547 O 0.75961 0.73649 0.32878 0.0
C548 C 0.77754 0.80643 0.39118 0.0
O549 O 0.79962 0.78965 0.37914 0.0
O550 O 0.75809 0.81444 0.36657 0.0
C551 C 0.83163 0.78333 0.2907 0.0
Tb552 Tb 0.77906 0.32662 0.79307 0.0
C553 C 0.83946 0.28312 0.79237 0.0
Tb554 Tb 0.76602 0.2452 0.7738 0.0
O555 O 0.78676 0.32362 0.84896 0.0
O556 O 0.77605 0.28069 0.81666 0.0
O557 O 0.82907 0.31343 0.79033 0.0
C558 C 0.74735 0.17994 0.78345 0.0
O559 O 0.81926 0.25345 0.78838 0.0
C560 C 0.76214 0.28185 0.71913 0.0
C561 C 0.70525 0.28766 0.77645 0.0
O562 O 0.76484 0.19055 0.75924 0.0
O563 O 0.74051 0.20594 0.80183 0.0
O564 O 0.75915 0.24858 0.71766 0.0
O565 O 0.76871 0.29128 0.7503 0.0
O566 O 0.71621 0.25761 0.77752 0.0
O567 O 0.72517 0.31763 0.77978 0.0
C568 C 0.79924 0.392 0.78451 0.0
O569 O 0.77883 0.38133 0.80632 0.0
O570 O 0.8075 0.36589 0.76736 0.0
C571 C 0.78342 0.29036 0.84772 0.0
Tb572 Tb 0.74554 0.77623 0.78729 0.0
C573 C 0.79693 0.76321 0.84602 0.0
Tb574 Tb 0.81954 0.80598 0.78816 0.0
O575 O 0.75354 0.72372 0.77177 0.0
O576 O 0.78699 0.76476 0.76275 0.0
O577 O 0.76723 0.77186 0.83865 0.0
C578 C 0.87944 0.81286 0.76806 0.0
O579 O 0.82173 0.77084 0.82741 0.0
C580 C 0.78095 0.84908 0.81148 0.0
C581 C 0.76834 0.82433 0.73107 0.0
O582 O 0.87268 0.82464 0.79786 0.0
O583 O 0.85305 0.79764 0.75052 0.0
O584 O 0.80939 0.8583 0.80015 0.0
O585 O 0.77805 0.81715 0.81357 0.0
O586 O 0.79929 0.82169 0.74094 0.0
O587 O 0.74262 0.80867 0.74493 0.0
C588 C 0.68276 0.76434 0.80149 0.0
O589 O 0.69637 0.79163 0.78886 0.0
O590 O 0.70427 0.74354 0.80463 0.0
C591 C 0.78308 0.73265 0.7632 0.0
Tb592 Tb 0.5318 0.56728 0.5212 0.0
C593 C 0.53709 0.50482 0.46985 0.0
Tb594 Tb 0.50533 0.49462 0.53858 0.0
O595 O 0.58332 0.5575 0.52275 0.0
O596 O 0.55044 0.52848 0.54948 0.0
O597 O 0.53153 0.53695 0.4734 0.0
C598 C 0.49621 0.4356 0.56777 0.0
O599 O 0.53152 0.48339 0.49384 0.0
C600 C 0.45851 0.53181 0.51932 0.0
C601 C 0.50182 0.55672 0.59037 0.0
O602 O 0.49314 0.43826 0.53507 0.0
O603 O 0.50479 0.4657 0.58308 0.0
O604 O 0.45342 0.5042 0.535 0.0
O605 O 0.48745 0.53325 0.51044 0.0
O606 O 0.50861 0.52508 0.58682 0.0
O607 O 0.50608 0.57801 0.56618 0.0
C608 C 0.5362 0.62643 0.49251 0.0
O609 O 0.54818 0.62287 0.52337 0.0
O610 O 0.52179 0.59712 0.47873 0.0
C611 C 0.57908 0.53026 0.53923 0.0
Tb612 Tb 0.05646 0.53739 0.02937 0.0
C613 C 0.03582 0.50876 0.09784 0.0
Tb614 Tb 0.98523 0.52743 0.03927 0.0
O615 O 0.06573 0.57798 0.0705 0.0
O616 O 0.0213 0.57068 0.03983 0.0
O617 O 0.05811 0.5098 0.07538 0.0
C618 C 0.92434 0.53165 0.0558 0.0
O619 O 1.00585 0.51661 0.08991 0.0
C620 C 1.00479 0.47809 1.00226 0.0
C621 C 1.00585 0.55687 0.97109 0.0
O622 O 0.95024 0.55362 0.06566 0.0
O623 O 0.93312 0.50668 0.03753 0.0
O624 O 0.9759 0.48739 0.99775 0.0
O625 O 0.02026 0.49417 0.02862 0.0
O626 O 0.9837 0.55575 0.99377 0.0
O627 O 0.03579 0.54861 0.97869 0.0
C628 C 0.11778 0.53182 0.01491 0.0
O629 O 0.10866 0.5578 0.0313 0.0
O630 O 0.09183 0.50985 1.00504 0.0
C631 C 0.03681 0.58725 0.06591 0.0
C632 C 0.0457 0.21902 0.96859 0.0
C633 C 0.03839 0.21703 0.93303 0.0
C634 C 0.04425 0.18936 0.98642 0.0
C635 C 0.0351 0.15676 0.96932 0.0
H636 H 0.05275 0.24364 0.98277 0.0
H637 H 0.05015 0.19201 0.0137 0.0
S638 S 0.01306 0.13761 0.87641 0.0
N639 N 0.02149 0.17962 0.88158 0.0
N640 N 0.01848 0.12433 0.91473 0.0
C641 C 0.02761 0.15452 0.9338 0.0
C642 C 0.02933 0.18452 0.91574 0.0
C643 C 0.11167 0.76278 0.2542 0.0
C644 C 0.10086 0.78496 0.23074 0.0
C645 C 0.14502 0.76564 0.26694 0.0
C646 C 0.16906 0.79123 0.25736 0.0
H647 H 0.09442 0.74225 0.262 0.0
H648 H 0.15214 0.74717 0.28401 0.0
S649 S 0.15381 0.85647 0.19736 0.0
N650 N 0.11715 0.83396 0.19898 0.0
N651 N 0.17942 0.83957 0.2233 0.0
C652 C 0.15844 0.8143 0.23482 0.0
C653 C 0.12454 0.81109 0.22142 0.0
C654 C 0.51657 0.88229 0.47547 0.0
C655 C 0.53077 0.88698 0.44464 0.0
C656 C 0.51391 0.91009 0.4985 0.0
C657 C 0.52517 0.94381 0.49162 0.0
H658 H 0.50718 0.85687 0.48189 0.0
H659 H 0.50243 0.90509 0.52165 0.0
S660 S 0.5647 0.97014 0.41466 0.0
N661 N 0.5569 0.92807 0.40881 0.0
N662 N 0.55136 0.9803 0.45167 0.0
C663 C 0.53986 0.94889 0.46109 0.0
C664 C 0.54278 0.92051 0.43772 0.0
C665 C 0.38947 0.26549 0.71793 0.0
C666 C 0.42016 0.26375 0.73608 0.0
C667 C 0.36114 0.26972 0.7348 0.0
C668 C 0.36229 0.27205 0.7705 0.0
H669 H 0.38746 0.26444 0.69044 0.0
H670 H 0.33849 0.27201 0.7198 0.0
S671 S 0.43591 0.26697 0.82992 0.0
N672 N 0.44931 0.26347 0.79187 0.0
N673 N 0.39653 0.27094 0.82333 0.0
C674 C 0.3926 0.26951 0.78884 0.0
C675 C 0.42135 0.26544 0.77174 0.0
C676 C 0.04096 0.89591 0.55086 0.0
C677 C 0.01015 0.87641 0.55369 0.0
C678 C 0.04358 0.92464 0.53216 0.0
C679 C 0.01555 0.93466 0.51542 0.0
H680 H 0.06328 0.88923 0.56349 0.0
H681 H 0.06774 0.93908 0.53079 0.0
S682 S 0.92905 0.89301 0.51533 0.0
N683 N 0.9509 0.8696 0.53855 0.0
N684 N 0.95596 0.92348 0.50302 0.0
C685 C 0.9846 0.91541 0.51779 0.0
C686 C 0.98185 0.88629 0.53707 0.0
C687 C 0.454 0.80191 0.86386 0.0
C688 C 0.46055 0.77154 0.87763 0.0
C689 C 0.42568 0.80254 0.84212 0.0
C690 C 0.40274 0.77293 0.83385 0.0
H691 H 0.4706 0.82557 0.87035 0.0
H692 H 0.42107 0.82674 0.83298 0.0
S693 S 0.40989 0.6862 0.86045 0.0
N694 N 0.44311 0.71049 0.87936 0.0
N695 N 0.38945 0.7119 0.83864 0.0
C696 C 0.4096 0.74207 0.84617 0.0
C697 C 0.43868 0.7413 0.86806 0.0
C698 C 0.47871 0.1766 0.06393 0.0
C699 C 0.50094 0.20375 0.05437 0.0
C700 C 0.48035 0.14273 0.05251 0.0
C701 C 0.50445 0.1347 0.03127 0.0
H702 H 0.46085 0.18132 0.0817 0.0
H703 H 0.46399 0.12265 0.06228 0.0
S704 S 0.56514 0.19668 0.99465 0.0
N705 N 0.54524 0.22061 0.01914 0.0
N706 N 0.54845 0.15684 0.99782 0.0
C707 C 0.52525 0.16173 0.01951 0.0
C708 C 0.52345 0.19629 0.031 0.0
C709 C 0.14725 0.26324 0.41275 0.0
C710 C 0.11424 0.25899 0.39911 0.0
C711 C 0.17258 0.26009 0.39183 0.0
C712 C 0.16581 0.25232 0.35658 0.0
H713 H 0.15376 0.27017 0.43962 0.0
H714 H 0.19777 0.26484 0.40333 0.0
S715 S 0.08332 0.23512 0.30871 0.0
N716 N 0.07584 0.244 0.34843 0.0
N717 N 0.12378 0.23778 0.30919 0.0
C718 C 0.13288 0.24609 0.34279 0.0
C719 C 0.10698 0.24958 0.36406 0.0
C720 C 0.9461 0.08372 0.15022 0.0
C721 C 0.92315 0.05509 0.15543 0.0
C722 C 0.96897 0.08191 0.12566 0.0
C723 C 0.97049 0.05101 0.10657 0.0
H724 H 0.94643 0.10764 0.16529 0.0
H725 H 0.98611 0.10446 0.12232 0.0
S726 S 0.91545 0.96886 0.11041 0.0
N727 N 0.90277 0.99543 0.13869 0.0
N728 N 0.94615 0.99142 0.09403 0.0
C729 C 0.9474 0.02237 0.11152 0.0
C730 C 0.92365 0.02455 0.13556 0.0
C731 C 0.30482 0.76711 0.43201 0.0
C732 C 0.30793 0.73207 0.42856 0.0
C733 C 0.29625 0.78504 0.40368 0.0
C734 C 0.29039 0.76897 0.37037 0.0
H735 H 0.30851 0.7808 0.45695 0.0
H736 H 0.29411 0.81189 0.40803 0.0
S737 S 0.29826 0.67828 0.34685 0.0
N738 N 0.30598 0.68242 0.38858 0.0
N739 N 0.29077 0.71609 0.33581 0.0
C740 C 0.29421 0.73414 0.3665 0.0
C741 C 0.30271 0.71579 0.39537 0.0
C742 C 0.55602 0.99713 0.6942 0.0
C743 C 0.58583 0.98372 0.70005 0.0
C744 C 0.54386 1.0038 0.66129 0.0
C745 C 0.5612 0.99804 0.63256 0.0
H746 H 0.54213 1.00309 0.71536 0.0
H747 H 0.5211 0.01465 0.6586 0.0
S748 S 0.64015 0.96222 0.63353 0.0
N749 N 0.63189 0.96387 0.67366 0.0
N750 N 0.60954 0.97698 0.61241 0.0
C751 C 0.59078 0.98407 0.63796 0.0
C752 C 0.6029 0.97677 0.67141 0.0
C753 C 0.29651 0.34796 0.97453 0.0
C754 C 0.26939 0.3642 0.98209 0.0
C755 C 0.29738 0.33107 0.94252 0.0
C756 C 0.27155 0.33079 0.91704 0.0
H757 H 0.31723 0.34847 0.99338 0.0
H758 H 0.31887 0.31922 0.93735 0.0
S759 S 0.19461 0.36859 0.92437 0.0
N760 N 0.21553 0.37783 0.96199 0.0
N761 N 0.21775 0.34693 0.90146 0.0
C762 C 0.2441 0.34643 0.9244 0.0
C763 C 0.24285 0.36295 0.95712 0.0
C764 C 0.93078 0.0683 0.35201 0.0
C765 C 0.93418 0.04874 0.32185 0.0
C766 C 0.95105 0.06639 0.38169 0.0
C767 C 0.97538 0.04476 0.38232 0.0
H768 H 0.91184 0.08475 0.35298 0.0
H769 H 0.94693 0.08124 0.40454 0.0
S770 S 0.99606 0.99014 0.3096 0.0
N771 N 0.96511 0.00853 0.29392 0.0
N772 N 1.00319 1.00486 0.34991 0.0
C773 C 0.97997 0.02603 0.35209 0.0
C774 C 0.95935 0.02803 0.32177 0.0
C775 C 0.33403 0.72967 0.64064 0.0
C776 C 0.31496 0.73587 0.61106 0.0
C777 C 0.32814 0.7431 0.67324 0.0
C778 C 0.3029 0.7634 0.67786 0.0
H779 H 0.35296 0.71332 0.63877 0.0
H780 H 0.34282 0.73647 0.69509 0.0
S781 S 0.24794 0.79002 0.60843 0.0
N782 N 0.27118 0.76578 0.58861 0.0
N783 N 0.26028 0.79088 0.6492 0.0
C784 C 0.28457 0.77086 0.6483 0.0
C785 C 0.29055 0.7572 0.61521 0.0
C786 C 0.58124 0.02853 0.90337 0.0
C787 C 0.57963 0.99625 0.88522 0.0
C788 C 0.5637 0.03312 0.93224 0.0
C789 C 0.54366 1.00566 0.94434 0.0
H790 H 0.59604 0.05066 0.89509 0.0
H791 H 0.56544 0.05853 0.94478 0.0
S792 S 0.53283 0.91536 0.90817 0.0
N793 N 0.55744 0.93599 0.88311 0.0
N794 N 0.52478 0.94455 0.93687 0.0
C795 C 0.54237 0.97315 0.92691 0.0
C796 C 0.56022 0.96846 0.89759 0.0
C797 C 0.24611 0.32023 0.13836 0.0
C798 C 0.23648 0.35292 0.14218 0.0
C799 C 0.24432 0.2985 0.16464 0.0
C800 C 0.23233 0.30842 0.19539 0.0
H801 H 0.25762 0.31234 0.11606 0.0
H802 H 0.25529 0.2752 0.16211 0.0
S803 S 0.19664 0.38766 0.21495 0.0
N804 N 0.20924 0.39164 0.1767 0.0
N805 N 0.20524 0.35019 0.22595 0.0
C806 C 0.21863 0.33898 0.19782 0.0
C807 C 0.22099 0.36151 0.17124 0.0
C808 C 0.15751 0.99163 0.02496 0.0
C809 C 0.15333 0.96086 0.04101 0.0
C810 C 0.13327 0.0136 0.02407 0.0
C811 C 0.10364 1.00632 0.03953 0.0
H812 H 0.17961 0.99868 0.01244 0.0
H813 H 0.13783 0.03654 0.01081 0.0
S814 S 0.08187 0.93085 0.08805 0.0
N815 N 0.11771 0.92515 0.07429 0.0
N816 N 0.0729 0.96695 0.07363 0.0
C817 C 0.09946 0.97607 0.05642 0.0
C818 C 0.12403 0.9533 0.05689 0.0
C819 C 0.6609 0.55337 0.98785 0.0
C820 C 0.66972 0.58581 0.97633 0.0
C821 C 0.62854 0.54229 0.99451 0.0
C822 C 0.60377 0.56309 0.98957 0.0
H823 H 0.67948 0.53729 0.99399 0.0
H824 H 0.6233 0.5179 1.0052 0.0
S825 S 0.61284 0.6476 0.95386 0.0
N826 N 0.65026 0.63672 0.9558 0.0
N827 N 0.58915 0.61561 0.96813 0.0
C828 C 0.6115 0.59412 0.97488 0.0
C829 C 0.64461 0.60556 0.96827 0.0
C830 C 0.72297 0.40669 0.27602 0.0
C831 C 0.72357 0.42509 0.30788 0.0
C832 C 0.74335 0.38143 0.27098 0.0
C833 C 0.76476 0.37336 0.29768 0.0
H834 H 0.7072 0.41239 0.25453 0.0
H835 H 0.74295 0.36882 0.24582 0.0
S836 S 0.7741 0.41241 0.38661 0.0
N837 N 0.74644 0.43241 0.36682 0.0
N838 N 0.78448 0.38496 0.35757 0.0
C839 C 0.76522 0.3912 0.3298 0.0
C840 C 0.74461 0.41698 0.33488 0.0
C841 C 0.83393 0.46438 0.51231 0.0
C842 C 0.82267 0.45377 0.54307 0.0
C843 C 0.86665 0.47949 0.51063 0.0
C844 C 0.88942 0.4845 0.53961 0.0
H845 H 0.81756 0.46032 0.48912 0.0
H846 H 0.87432 0.4866 0.48627 0.0
S847 S 0.87199 0.46377 0.62688 0.0
N848 N 0.83668 0.4512 0.60363 0.0
N849 N 0.898 0.47952 0.60038 0.0
C850 C 0.87829 0.47502 0.57072 0.0
C851 C 0.84498 0.45969 0.57248 0.0
C852 C 0.32564 0.14592 0.26168 0.0
C853 C 0.35967 0.15785 0.26308 0.0
C854 C 0.30223 0.16847 0.26464 0.0
C855 C 0.31149 0.20416 0.26853 0.0
H856 H 0.31693 0.11874 0.25942 0.0
H857 H 0.27656 0.15766 0.26454 0.0
S858 S 0.39718 0.24896 0.27083 0.0
N859 N 0.40131 0.20804 0.26709 0.0
N860 N 0.35726 0.25036 0.27141 0.0
C861 C 0.34529 0.21658 0.26843 0.0
C862 C 0.36934 0.19349 0.26609 0.0
C863 C 0.36038 0.05775 0.50496 0.0
C864 C 0.35668 0.08885 0.52246 0.0
C865 C 0.38341 0.03777 0.51745 0.0
C866 C 0.40352 0.04837 0.54773 0.0
H867 H 0.34619 0.0493 0.4809 0.0
H868 H 0.38697 0.01512 0.50208 0.0
S869 S 0.40015 0.12505 0.60564 0.0
N870 N 0.37243 0.12732 0.57364 0.0
N871 N 0.41591 0.0897 0.59684 0.0
C872 C 0.39842 0.07806 0.5667 0.0
C873 C 0.37502 0.09844 0.55405 0.0
C874 C 0.74044 0.61419 0.29689 0.0
C875 C 0.71904 0.60636 0.32218 0.0
C876 C 0.75255 0.64815 0.29162 0.0
C877 C 0.74437 0.67581 0.31186 0.0
H878 H 0.74696 0.59395 0.28008 0.0
H879 H 0.7682 0.65276 0.27122 0.0
S880 S 0.69052 0.66928 0.38267 0.0
N881 N 0.69096 0.62922 0.36836 0.0
N882 N 0.71429 0.69291 0.35905 0.0
C883 C 0.72397 0.66833 0.33808 0.0
C884 C 0.71116 0.63371 0.34306 0.0
C885 C 0.8482 0.46792 0.75032 0.0
C886 C 0.85058 0.49365 0.77706 0.0
C887 C 0.83042 0.43551 0.75257 0.0
C888 C 0.81392 0.42769 0.78138 0.0
H889 H 0.86114 0.47238 0.72793 0.0
H890 H 0.83024 0.41616 0.73182 0.0
S891 S 0.80988 0.48685 0.85707 0.0
N892 N 0.83319 0.50972 0.83245 0.0
N893 N 0.79929 0.44883 0.83631 0.0
C894 C 0.81467 0.4536 0.80757 0.0
C895 C 0.83317 0.48656 0.80552 0.0
C896 C 0.98856 0.8731 0.12845 0.0
C897 C 0.99715 0.8419 0.11565 0.0
C898 C 0.98828 0.90075 0.10841 0.0
C899 C 0.99634 0.89847 0.07458 0.0
H900 H 0.98257 0.87656 0.15447 0.0
H901 H 0.98219 0.92443 0.11988 0.0
S902 S 0.0194 0.82228 0.02813 0.0
N903 N 0.01302 0.80997 0.06636 0.0
N904 N 0.01228 0.86233 0.02864 0.0
C905 C 1.00401 0.86723 0.06092 0.0
C906 C 1.00451 0.83888 0.08148 0.0
C907 C 0.93225 0.31231 0.80915 0.0
C908 C 0.94266 0.289 0.83158 0.0
C909 C 0.89911 0.30965 0.79571 0.0
C910 C 0.87508 0.28309 0.80346 0.0
H911 H 0.94961 0.33347 0.80273 0.0
H912 H 0.89217 0.32887 0.77947 0.0
S913 S 0.88959 0.21478 0.86017 0.0
N914 N 0.92613 0.23806 0.86043 0.0
N915 N 0.86436 0.23268 0.83474 0.0
C916 C 0.88539 0.259 0.82502 0.0
C917 C 0.91897 0.26207 0.83918 0.0
C918 C 0.50958 0.14571 0.62712 0.0
C919 C 0.51759 0.17949 0.61839 0.0
C920 C 0.51583 0.11777 0.60598 0.0
C921 C 0.5302 0.12256 0.57524 0.0
H922 H 0.49916 0.14082 0.65085 0.0
H923 H 0.51015 0.09232 0.61424 0.0
S924 S 0.55251 0.20549 0.53892 0.0
N925 N 0.53843 0.2158 0.5755 0.0
N926 N 0.54992 0.16346 0.53598 0.0
C927 C 0.53706 0.15605 0.56559 0.0
C928 C 0.53082 0.18445 0.58708 0.0
C929 C 0.65175 0.79338 0.34691 0.0
C930 C 0.62249 0.79914 0.32838 0.0
C931 C 0.68049 0.78947 0.33081 0.0
C932 C 0.68135 0.79165 0.29561 0.0
H933 H 0.65223 0.79088 0.37399 0.0
H934 H 0.70169 0.7834 0.34587 0.0
S935 S 0.61206 0.80781 0.23559 0.0
N936 N 0.59671 0.80763 0.27281 0.0
N937 N 0.65058 0.80084 0.24284 0.0
C938 C 0.6525 0.79802 0.27691 0.0
C939 C 0.62319 0.80172 0.2932 0.0
C940 C 0.03128 0.15586 0.47797 0.0
C941 C 0.03174 0.18403 0.50158 0.0
C942 C 0.03262 0.12328 0.48856 0.0
C943 C 0.0336 0.11729 0.52312 0.0
H944 H 0.03114 0.15912 0.45102 0.0
H945 H 0.03391 0.10282 0.46942 0.0
S946 S 0.03341 0.18215 0.5951 0.0
N947 N 0.03243 0.20401 0.56108 0.0
N948 N 0.0338 0.14198 0.58108 0.0
C949 C 0.03301 0.14498 0.54709 0.0
C950 C 0.03236 0.17857 0.53628 0.0
C951 C 0.5959 0.26882 0.19385 0.0
C952 C 0.59227 0.29793 0.17625 0.0
C953 C 0.62434 0.26736 0.21536 0.0
C954 C 0.65011 0.29487 0.21978 0.0
H955 H 0.57698 0.24668 0.19045 0.0
H956 H 0.62662 0.24408 0.22759 0.0
S957 S 0.65134 0.37836 0.18266 0.0
N958 N 0.61581 0.35603 0.16703 0.0
N959 N 0.66933 0.35302 0.20723 0.0
C960 C 0.64627 0.32464 0.20353 0.0
C961 C 0.61731 0.32623 0.18178 0.0
C962 C 0.57657 0.89265 1.00335 0.0
C963 C 0.553 0.86517 1.00966 0.0
C964 C 0.57415 0.92618 0.01554 0.0
C965 C 0.54804 0.93344 0.03449 0.0
H966 H 0.59581 0.88861 0.98702 0.0
H967 H 0.59159 0.94668 1.00798 0.0
S968 S 0.48378 0.86964 0.06358 0.0
N969 N 0.50557 0.84677 0.0402 0.0
N970 N 0.50105 0.90972 0.06318 0.0
C971 C 0.52607 0.90581 0.04351 0.0
C972 C 0.52854 0.87169 0.03108 0.0
C973 C 0.95056 0.79107 0.72442 0.0
C974 C 0.95107 0.81378 0.69857 0.0
C975 C 0.93018 0.79383 0.7508 0.0
C976 C 0.91018 0.81968 0.75239 0.0
H977 H 0.96452 0.76981 0.72327 0.0
H978 H 0.92794 0.77394 0.76827 0.0
S979 S 0.90491 0.88766 0.69348 0.0
N980 N 0.93191 0.86485 0.67818 0.0
N981 N 0.8936 0.86976 0.72791 0.0
C982 C 0.91237 0.84408 0.72841 0.0
C983 C 0.93286 0.84122 0.70139 0.0
C984 C 0.07724 0.01505 0.87824 0.0
C985 C 0.10337 0.99556 0.87988 0.0
C986 C 0.05668 0.01679 0.90467 0.0
C987 C 0.06082 0.99853 0.9336 0.0
H988 H 0.07344 0.03033 0.85701 0.0
H989 H 0.03791 0.03346 0.90283 0.0
S990 S 0.12329 0.94062 0.94865 0.0
N991 N 0.13088 0.95564 0.91177 0.0
N992 N 0.0916 0.95817 0.96107 0.0
C993 C 0.08562 0.9773 0.9347 0.0
C994 C 0.10708 0.97606 0.90799 0.0
C995 C 0.74518 0.3049 0.62724 0.0
C996 C 0.73918 0.33912 0.63044 0.0
C997 C 0.75293 0.28716 0.65596 0.0
C998 C 0.75512 0.3026 0.68944 0.0
H999 H 0.74428 0.29171 0.60225 0.0
H1000 H 0.75732 0.26094 0.65178 0.0
S1001 S 0.73885 0.39078 0.7123 0.0
N1002 N 0.73458 0.38723 0.67036 0.0
N1003 N 0.74825 0.35377 0.72375 0.0
C1004 C 0.74851 0.33655 0.69304 0.0
C1005 C 0.7408 0.35475 0.66379 0.0
C1006 C 0.50162 0.06939 0.37755 0.0
C1007 C 0.47029 0.07983 0.37204 0.0
C1008 C 0.51473 0.06313 0.4103 0.0
C1009 C 0.49708 0.06678 0.43916 0.0
H1010 H 0.51594 0.06532 0.35626 0.0
H1011 H 0.53857 0.0544 0.41276 0.0
S1012 S 0.41468 0.09551 0.43918 0.0
N1013 N 0.42263 0.09501 0.39899 0.0
N1014 N 0.44693 0.08322 0.45986 0.0
C1015 C 0.46606 0.07806 0.4341 0.0
C1016 C 0.45282 0.08458 0.40085 0.0
C1017 C 0.737 0.68843 0.10507 0.0
C1018 C 0.765 0.69291 0.08693 0.0
C1019 C 0.73685 0.70557 0.13691 0.0
C1020 C 0.7646 0.72792 0.1516 0.0
H1021 H 0.71526 0.67089 0.09506 0.0
H1022 H 0.71498 0.70074 0.15035 0.0
S1023 S 0.84338 0.7503 0.11372 0.0
N1024 N 0.82074 0.72262 0.08518 0.0
N1025 N 0.82023 0.75507 0.14538 0.0
C1026 C 0.79236 0.73372 0.13335 0.0
C1027 C 0.79262 0.7161 0.10086 0.0
C1028 C 0.10765 0.97885 0.68922 0.0
C1029 C 0.13705 0.99987 0.7021 0.0
C1030 C 0.09368 0.98089 0.656 0.0
C1031 C 0.10843 1.00432 0.63471 0.0
H1032 H 0.09493 0.96122 0.70512 0.0
H1033 H 0.07055 0.96493 0.64744 0.0
S1034 S 0.1868 0.0633 0.65524 0.0
N1035 N 0.18148 0.04335 0.69002 0.0
N1036 N 0.15501 0.04739 0.62798 0.0
C1037 C 0.13845 0.02449 0.64678 0.0
C1038 C 0.15283 0.02221 0.68039 0.0
C1039 C 0.75879 0.31919 0.44238 0.0
C1040 C 0.73271 0.33829 0.44693 0.0
C1041 C 0.76471 0.30539 0.41002 0.0
C1042 C 0.74488 0.30988 0.38033 0.0
H1043 H 0.77532 0.31534 0.46403 0.0
H1044 H 0.78554 0.29154 0.4083 0.0
S1045 S 0.6738 0.35878 0.37776 0.0
N1046 N 0.68699 0.36127 0.41847 0.0
N1047 N 0.69796 0.33555 0.358 0.0
C1048 C 0.71834 0.32854 0.38454 0.0
C1049 C 0.71233 0.34265 0.41761 0.0
C1050 C 0.46924 0.04276 0.16201 0.0
C1051 C 0.47378 0.07443 0.18182 0.0
C1052 C 0.48639 0.03761 0.13296 0.0
C1053 C 0.50882 0.06393 0.12219 0.0
H1054 H 0.45259 0.02144 0.16928 0.0
H1055 H 0.48243 0.01262 0.1192 0.0
S1056 S 0.52769 0.15261 0.16297 0.0
N1057 N 0.50133 0.13301 0.18704 0.0
N1058 N 0.53303 0.12363 0.13272 0.0
C1059 C 0.51294 0.09596 0.14122 0.0
C1060 C 0.49563 0.10113 0.17087 0.0
C1061 C 0.78714 0.73047 0.93139 0.0
C1062 C 0.7963 0.69758 0.92709 0.0
C1063 C 0.78916 0.75251 0.90549 0.0
C1064 C 0.8013 0.74282 0.87488 0.0
H1065 H 0.77666 0.73871 0.95424 0.0
H1066 H 0.78009 0.77682 0.90897 0.0
S1067 S 0.83135 0.66109 0.85182 0.0
N1068 N 0.81983 0.65726 0.89053 0.0
N1069 N 0.82455 0.6995 0.84202 0.0
C1070 C 0.81258 0.71105 0.87092 0.0
C1071 C 0.80986 0.68817 0.89705 0.0
C1072 C 0.92053 0.10928 1.00031 0.0
C1073 C 0.89037 0.10239 0.01496 0.0
C1074 C 0.94229 0.08453 0.99757 0.0
C1075 C 0.9352 0.05186 1.00959 0.0
H1076 H 0.92721 0.13383 0.99042 0.0
H1077 H 0.96467 0.09107 0.98569 0.0
S1078 S 0.8601 0.02118 0.05138 0.0
N1079 N 0.85522 0.06032 0.04247 0.0
N1080 N 0.89553 0.01455 0.0373 0.0
C1081 C 0.9052 0.04487 0.02448 0.0
C1082 C 0.88309 0.06986 0.0272 0.0
C1083 C 0.36808 0.5102 0.07728 0.0
C1084 C 0.36347 0.47763 0.08975 0.0
C1085 C 0.39932 0.52566 0.07075 0.0
C1086 C 0.42722 0.50942 0.07697 0.0
H1087 H 0.34716 0.52311 0.07063 0.0
H1088 H 0.40144 0.5499 0.05945 0.0
S1089 S 0.4292 0.42567 0.11301 0.0
N1090 N 0.38994 0.43089 0.11074 0.0
N1091 N 0.44887 0.46027 0.09883 0.0
C1092 C 0.42345 0.47804 0.09182 0.0
C1093 C 0.39149 0.46206 0.09816 0.0
C1094 C 0.29942 0.6506 0.72822 0.0
C1095 C 0.31613 0.63866 0.75633 0.0
C1096 C 0.28177 0.67836 0.73223 0.0
C1097 C 0.28007 0.69508 0.76449 0.0
H1098 H 0.30056 0.63891 0.7029 0.0
H1099 H 0.26981 0.68715 0.70977 0.0
S1100 S 0.31519 0.67031 0.84665 0.0
N1101 N 0.32729 0.6437 0.81788 0.0
N1102 N 0.29373 0.69545 0.82523 0.0
C1103 C 0.29569 0.68266 0.79287 0.0
C1104 C 0.3138 0.65455 0.78883 0.0
C1105 C 0.19787 0.62573 0.50169 0.0
C1106 C 0.22392 0.62293 0.5262 0.0
C1107 C 0.16533 0.6118 0.50576 0.0
C1108 C 0.15747 0.59431 0.53439 0.0
H1109 H 0.2025 0.63932 0.47937 0.0
H1110 H 0.14615 0.61495 0.4863 0.0
S1111 S 0.21656 0.57861 0.60542 0.0
N1112 N 0.23962 0.60046 0.57986 0.0
N1113 N 0.17845 0.57408 0.58726 0.0
C1114 C 0.18325 0.59066 0.5588 0.0
C1115 C 0.21646 0.60501 0.55476 0.0
C1116 C 0.7326 0.92211 0.7928 0.0
C1117 C 0.70385 0.91529 0.80961 0.0
C1118 C 0.7572 0.90085 0.79428 0.0
C1119 C 0.75424 0.87125 0.81212 0.0
H1120 H 0.73626 0.94422 0.77818 0.0
H1121 H 0.77881 0.90789 0.78118 0.0
S1122 S 0.68724 0.84544 0.86634 0.0
N1123 N 0.67592 0.87907 0.84859 0.0
N1124 N 0.72219 0.8388 0.85093 0.0
C1125 C 0.72625 0.86464 0.8302 0.0
C1126 C 0.70106 0.88661 0.82894 0.0
C1127 C 0.7109 0.02755 0.55285 0.0
C1128 C 0.71853 1.00079 0.53115 0.0
C1129 C 0.68233 0.04223 0.54582 0.0
C1130 C 0.66032 0.03004 0.51725 0.0
H1131 H 0.72615 0.03597 0.57632 0.0
H1132 H 0.67619 0.06122 0.56431 0.0
S1133 S 0.67139 0.96403 0.45003 0.0
N1134 N 0.70395 0.9657 0.47771 0.0
N1135 N 0.64973 0.99285 0.46507 0.0
C1136 C 0.66901 1.00537 0.49392 0.0
C1137 C 0.69834 0.99079 0.50075 0.0
C1138 C 0.30656 0.43638 0.73127 0.0
C1139 C 0.33364 0.4541 0.75237 0.0
C1140 C 0.2943 0.40202 0.73558 0.0
C1141 C 0.30807 0.38457 0.76178 0.0
H1142 H 0.29499 0.44901 0.71111 0.0
H1143 H 0.27347 0.38929 0.7188 0.0
S1144 S 0.37918 0.41927 0.82385 0.0
N1145 N 0.37398 0.45111 0.80015 0.0
N1146 N 0.35042 0.38744 0.80868 0.0
C1147 C 0.335 0.40206 0.78301 0.0
C1148 C 0.3479 0.43656 0.7782 0.0
C1149 C 0.18023 0.61001 0.3087 0.0
C1150 C 0.18377 0.58112 0.28745 0.0
C1151 C 0.19887 0.64175 0.30569 0.0
C1152 C 0.22185 0.64591 0.28134 0.0
H1153 H 0.16261 0.6083 0.32761 0.0
H1154 H 0.19482 0.66333 0.32232 0.0
S1155 S 0.24161 0.57817 0.22035 0.0
N1156 N 0.2129 0.55848 0.24181 0.0
N1157 N 0.24796 0.61839 0.23625 0.0
C1158 C 0.22631 0.61717 0.26043 0.0
C1159 C 0.20724 0.58472 0.26344 0.0
C1160 C 0.5282 0.68379 0.421 0.0
C1161 C 0.54046 0.71656 0.43627 0.0
C1162 C 0.52713 0.65509 0.43966 0.0
C1163 C 0.5385 0.65784 0.47434 0.0
H1164 H 0.51889 0.68019 0.39443 0.0
H1165 H 0.51719 0.63045 0.42663 0.0
S1166 S 0.57389 0.73762 0.52634 0.0
N1167 N 0.56482 0.75015 0.48822 0.0
N1168 N 0.56302 0.69575 0.52323 0.0
C1169 C 0.55129 0.6903 0.48998 0.0
C1170 C 0.55221 0.71977 0.47095 0.0
C1171 C 0.62396 0.30886 0.73513 0.0
C1172 C 0.60118 0.27974 0.73936 0.0
C1173 C 0.65712 0.31229 0.74887 0.0
C1174 C 0.66902 0.28667 0.76733 0.0
H1175 H 0.61643 0.32878 0.72017 0.0
H1176 H 0.67385 0.33447 0.74358 0.0
S1177 S 0.61882 0.207 0.78879 0.0
N1178 N 0.5926 0.22605 0.76575 0.0
N1179 N 0.65442 0.23238 0.79139 0.0
C1180 C 0.6461 0.25818 0.77306 0.0
C1181 C 0.6124 0.25475 0.75916 0.0
C1182 C 0.04638 0.40328 0.97116 0.0
C1183 C 0.03386 0.39743 0.93671 0.0
C1184 C 0.03835 0.43055 0.99207 0.0
C1185 C 0.01689 0.45237 0.97942 0.0
H1186 H 0.06188 0.38619 0.98228 0.0
H1187 H 0.04778 0.43361 0.01861 0.0
S1188 S 0.98003 0.45044 0.89058 0.0
N1189 N 1.00117 0.41792 0.89046 0.0
N1190 N 0.98544 0.46822 0.92991 0.0
C1191 C 1.00535 0.44773 0.94482 0.0
C1192 C 0.014 0.42051 0.92341 0.0
C1193 C 0.88879 0.74941 0.2283 0.0
C1194 C 0.91945 0.76994 0.23807 0.0
C1195 C 0.8604 0.75364 0.24518 0.0
C1196 C 0.86141 0.77882 0.27231 0.0
H1197 H 0.88666 0.72986 0.20743 0.0
H1198 H 0.83756 0.73707 0.2369 0.0
S1199 S 0.93515 0.84003 0.30716 0.0
N1200 N 0.94856 0.81676 0.27655 0.0
N1201 N 0.89576 0.825 0.30757 0.0
C1202 C 0.89183 0.79966 0.28203 0.0
C1203 C 0.92064 0.79516 0.26515 0.0
C1204 C 0.48005 0.39064 0.03602 0.0
C1205 C 0.50969 0.38315 0.05215 0.0
C1206 C 0.47842 0.42211 0.02245 0.0
C1207 C 0.50627 0.44726 0.02482 0.0
H1208 H 0.45775 0.37234 0.03446 0.0
H1209 H 0.45495 0.42708 0.01086 0.0
S1210 S 0.59002 0.44009 0.06356 0.0
N1211 N 0.56779 0.40321 0.06884 0.0
N1212 N 0.5646 0.46233 0.04339 0.0
C1213 C 0.53622 0.43988 0.04018 0.0
C1214 C 0.53797 0.40779 0.0538 0.0
C1215 C 0.92705 0.26929 0.4046 0.0
C1216 C 0.95701 0.2888 0.39901 0.0
C1217 C 0.89902 0.26819 0.382 0.0
C1218 C 0.89981 0.28661 0.35296 0.0
H1219 H 0.92518 0.25445 0.42651 0.0
H1220 H 0.87648 0.25285 0.38753 0.0
S1221 S 0.97198 0.34179 0.32656 0.0
N1222 N 0.98587 0.32709 0.36215 0.0
N1223 N 0.93275 0.32504 0.31963 0.0
C1224 C 0.92949 0.30626 0.34689 0.0
C1225 C 0.9582 0.30739 0.36997 0.0
C1226 C 0.01327 0.69741 0.53524 0.0
C1227 C 0.98969 0.70477 0.55743 0.0
C1228 C 0.01596 0.66371 0.52414 0.0
C1229 C 0.99511 0.63605 0.53472 0.0
H1230 H 0.0311 0.71769 0.52792 0.0
H1231 H 0.03574 0.65928 0.50867 0.0
S1232 S 0.92651 0.64189 0.5894 0.0
N1233 N 0.94288 0.68193 0.58681 0.0
N1234 N 0.94784 0.61852 0.56601 0.0
C1235 C 0.96958 0.64321 0.55459 0.0
C1236 C 0.96689 0.67762 0.56594 0.0
C1237 C 0.62772 0.74185 0.87026 0.0
C1238 C 0.60757 0.76775 0.87028 0.0
C1239 C 0.65019 0.73924 0.84588 0.0
C1240 C 0.65347 0.76254 0.82073 0.0
H1241 H 0.62697 0.72408 0.88986 0.0
H1242 H 0.66637 0.71995 0.84803 0.0
S1243 S 0.60316 0.83182 0.80647 0.0
N1244 N 0.58972 0.81481 0.84055 0.0
N1245 N 0.63229 0.80983 0.79482 0.0
C1246 C 0.63191 0.787 0.81889 0.0
C1247 C 0.60894 0.78971 0.84375 0.0
C1248 C 0.4327 0.58026 0.64089 0.0
C1249 C 0.44004 0.56734 0.67244 0.0
C1250 C 0.45439 0.57961 0.61518 0.0
C1251 C 0.4839 0.56551 0.61994 0.0
H1252 H 0.40967 0.59013 0.63569 0.0
H1253 H 0.44702 0.58828 0.59075 0.0
S1254 S 0.5158 0.53047 0.69833 0.0
N1255 N 0.48031 0.54214 0.7075 0.0
N1256 N 0.52019 0.54014 0.65894 0.0
C1257 C 0.4921 0.55379 0.6517 0.0
C1258 C 0.47042 0.55491 0.678 0.0
C1259 C 0.80097 0.21566 0.9011 0.0
C1260 C 0.80909 0.23153 0.93439 0.0
C1261 C 0.79277 0.23443 0.87318 0.0
C1262 C 0.79162 0.26986 0.87724 0.0
H1263 H 0.80104 0.18843 0.8965 0.0
H1264 H 0.78765 0.22106 0.84823 0.0
S1265 S 0.81101 0.32398 0.95881 0.0
N1266 N 0.81593 0.28528 0.96923 0.0
N1267 N 0.80001 0.32002 0.91757 0.0
C1268 C 0.79991 0.28599 0.91034 0.0
C1269 C 0.80868 0.26704 0.93859 0.0
C1270 C 0.08262 0.47399 0.1724 0.0
C1271 C 0.07054 0.48899 0.20127 0.0
C1272 C 0.07072 0.47976 0.13918 0.0
C1273 C 0.04562 0.50017 0.13321 0.0
H1274 H 0.10239 0.45868 0.17543 0.0
H1275 H 0.08165 0.46848 0.11796 0.0
S1276 S 1.00456 0.54433 0.19986 0.0
N1277 N 0.03137 0.52464 0.22141 0.0
N1278 N 1.00858 0.53476 0.15933 0.0
C1279 C 0.03251 0.51434 0.16182 0.0
C1280 C 0.04505 0.50897 0.19566 0.0
C1281 C 0.80701 0.8469 0.47864 0.0
C1282 C 0.77809 0.85772 0.48951 0.0
C1283 C 0.80635 0.82757 0.44762 0.0
C1284 C 0.77684 0.81896 0.4266 0.0
H1285 H 0.83059 0.855 0.49319 0.0
H1286 H 0.82937 0.82151 0.43902 0.0
S1287 S 0.69356 0.83525 0.44619 0.0
N1288 N 0.71838 0.85379 0.47907 0.0
N1289 N 0.7175 0.81808 0.42045 0.0
C1290 C 0.74741 0.82699 0.43842 0.0
C1291 C 0.74794 0.84624 0.47008 0.0
C1292 C 0.45326 0.56736 0.84837 0.0
C1293 C 0.42037 0.57345 0.84474 0.0
C1294 C 0.46926 0.56525 0.88047 0.0
C1295 C 0.45312 0.56989 0.91 0.0
H1296 H 0.46622 0.56246 0.82621 0.0
H1297 H 0.49414 0.55898 0.88209 0.0
S1298 S 0.36849 0.59124 0.91423 0.0
N1299 N 0.3731 0.58717 0.87319 0.0
N1300 N 0.40362 0.58415 0.93388 0.0
C1301 C 0.421 0.57831 0.90687 0.0
C1302 C 0.40445 0.57979 0.87408 0.0
C1303 C 0.79061 0.24786 0.12078 0.0
C1304 C 0.81736 0.22977 0.11596 0.0
C1305 C 0.78489 0.2619 0.15313 0.0
C1306 C 0.80559 0.25869 0.18264 0.0
H1307 H 0.77335 0.2507 0.09937 0.0
H1308 H 0.76352 0.2749 0.15498 0.0
S1309 S 0.87941 0.21383 0.18437 0.0
N1310 N 0.86512 0.2098 0.14389 0.0
N1311 N 0.85452 0.23597 0.20435 0.0
C1312 C 0.83292 0.24126 0.17812 0.0
C1313 C 0.83874 0.22692 0.14503 0.0
C1314 C 0.04027 0.48941 0.38654 0.0
C1315 C 0.07494 0.49563 0.38754 0.0
C1316 C 0.02369 0.49544 0.41579 0.0
C1317 C 0.04093 0.50837 0.4473 0.0
H1318 H 0.02572 0.48007 0.3629 0.0
H1319 H 0.99702 0.49015 0.41362 0.0
S1320 S 0.13191 0.52443 0.4649 0.0
N1321 N 0.12594 0.51282 0.42382 0.0
N1322 N 0.09481 0.52353 0.47821 0.0
C1323 C 0.07553 0.51373 0.44885 0.0
C1324 C 0.09247 0.50753 0.41919 0.0
C1325 C 0.73861 0.86415 0.65213 0.0
C1326 C 0.76225 0.8936 0.65256 0.0
C1327 C 0.73914 0.8424 0.67865 0.0
C1328 C 0.76394 0.84908 0.70568 0.0
H1329 H 0.72049 0.85711 0.63051 0.0
H1330 H 0.72139 0.81935 0.67698 0.0
S1331 S 0.82912 0.92477 0.72052 0.0
N1332 N 0.80851 0.9302 0.68432 0.0
N1333 N 0.811 0.8885 0.73269 0.0
C1334 C 0.78654 0.87938 0.70716 0.0
C1335 C 0.78527 0.90194 0.68098 0.0
C1336 C 0.65847 0.49102 0.5291 0.0
C1337 C 0.65317 0.45922 0.54318 0.0
C1338 C 0.63447 0.51334 0.52836 0.0
C1339 C 0.60398 0.50551 0.54217 0.0
H1340 H 0.68126 0.49865 0.51796 0.0
H1341 H 0.63997 0.53706 0.51658 0.0
S1342 S 0.57863 0.42654 0.58436 0.0
N1343 N 0.61527 0.42156 0.5723 0.0
N1344 N 0.57094 0.46387 0.57199 0.0
C1345 C 0.59868 0.47414 0.55706 0.0
C1346 C 0.62297 0.45101 0.55728 0.0
C1347 C 0.1892 0.05297 0.47797 0.0
C1348 C 0.19348 0.08453 0.46342 0.0
C1349 C 0.15772 0.03632 0.48222 0.0
C1350 C 0.12946 0.05023 0.47133 0.0
H1351 H 0.21028 0.04212 0.48832 0.0
H1352 H 0.15557 0.01324 0.49551 0.0
S1353 S 0.12721 0.12991 0.42755 0.0
N1354 N 0.16684 0.12735 0.43513 0.0
N1355 N 0.10754 0.09572 0.44242 0.0
C1356 C 0.1333 0.08027 0.45413 0.0
C1357 C 0.1654 0.09753 0.45033 0.0
C1358 C 0.23037 0.90965 0.7695 0.0
C1359 C 0.2306 0.92903 0.80069 0.0
C1360 C 0.25038 0.88384 0.76587 0.0
C1361 C 0.27083 0.87587 0.79346 0.0
H1362 H 0.21497 0.91485 0.74751 0.0
H1363 H 0.25 0.87021 0.74118 0.0
S1364 S 0.27952 0.91826 0.88102 0.0
N1365 N 0.25282 0.93832 0.85978 0.0
N1366 N 0.28979 0.88937 0.85334 0.0
C1367 C 0.27133 0.89513 0.82484 0.0
C1368 C 0.2513 0.92174 0.82838 0.0
C1369 C 0.34644 0.95953 0.06504 0.0
C1370 C 0.32299 0.95682 0.03669 0.0
C1371 C 0.37927 0.97414 0.06325 0.0
C1372 C 0.38997 0.98672 0.03308 0.0
H1373 H 0.33962 0.94955 0.08866 0.0
H1374 H 0.39653 0.97501 0.08557 0.0
S1375 S 0.33815 0.98743 0.95204 0.0
N1376 N 0.31266 0.96925 0.97777 0.0
N1377 N 0.37426 0.99676 0.97455 0.0
C1378 C 0.36664 0.98513 1.00482 0.0
C1379 C 0.33319 0.97018 1.00659 0.0
C1380 C 0.86417 0.69418 0.76856 0.0
C1381 C 0.85358 0.65916 0.7593 0.0
C1382 C 0.84176 0.71823 0.76848 0.0
C1383 C 0.80778 0.70842 0.75911 0.0
H1384 H 0.88983 0.70299 0.77699 0.0
H1385 H 0.851 0.74418 0.77783 0.0
S1386 S 0.76732 0.6203 0.73106 0.0
N1387 N 0.80656 0.61634 0.73913 0.0
N1388 N 0.765 0.66125 0.73917 0.0
C1389 C 0.79709 0.67367 0.74902 0.0
C1390 C 0.81977 0.64922 0.74897 0.0
C1391 C 0.84127 0.54223 0.01561 0.0
C1392 C 0.83459 0.57143 0.03431 0.0
C1393 C 0.86884 0.52681 0.0252 0.0
C1394 C 0.89096 0.5408 0.0532 0.0
H1395 H 0.82582 0.53204 0.99273 0.0
H1396 H 0.87419 0.50552 1.00897 0.0
S1397 S 0.88276 0.61514 0.11218 0.0
N1398 N 0.85045 0.61189 0.08391 0.0
N1399 N 0.903 0.5835 0.10116 0.0
C1400 C 0.88338 0.5686 0.07336 0.0
C1401 C 0.85497 0.58387 0.06404 0.0
C1402 C 0.19775 0.12858 0.78165 0.0
C1403 C 0.21044 0.11082 0.80816 0.0
C1404 C 0.21094 0.16236 0.77723 0.0
C1405 C 0.23683 0.18023 0.79963 0.0
H1406 H 0.17782 0.11603 0.76362 0.0
H1407 H 0.20049 0.17471 0.75619 0.0
S1408 S 0.27858 0.14578 0.87356 0.0
N1409 N 0.25058 0.11367 0.85713 0.0
N1410 N 0.2746 0.17775 0.84959 0.0
C1411 C 0.24945 0.16307 0.82664 0.0
C1412 C 0.23652 0.12822 0.83065 0.0
C1413 C 0.3364 0.98406 0.29116 0.0
C1414 C 0.36337 0.98804 0.27133 0.0
C1415 C 0.31677 0.95217 0.29166 0.0
C1416 C 0.32317 0.92338 0.27192 0.0
H1417 H 0.33092 1.00551 0.30707 0.0
H1418 H 0.29688 0.94995 0.30805 0.0
S1419 S 0.38886 0.92128 0.21302 0.0
N1420 N 0.39416 0.96108 0.22994 0.0
N1421 N 0.35707 0.90154 0.23023 0.0
C1422 C 0.34928 0.92743 0.25097 0.0
C1423 C 0.36947 0.95966 0.25087 0.0
C1424 C 0.4988 0.37931 0.6407 0.0
C1425 C 0.49575 0.34616 0.62471 0.0
C1426 C 0.49778 0.40768 0.62179 0.0
C1427 C 0.4938 0.4042 0.58604 0.0
H1428 H 0.50246 0.38355 0.66814 0.0
H1429 H 0.50083 0.4327 0.63546 0.0
S1430 S 0.48341 0.32298 0.53162 0.0
N1431 N 0.48741 0.31128 0.5708 0.0
N1432 N 0.48576 0.36503 0.53525 0.0
C1433 C 0.48989 0.37124 0.56958 0.0
C1434 C 0.49082 0.34212 0.58892 0.0
C1435 C 0.41773 0.75811 0.32733 0.0
C1436 C 0.44122 0.78646 0.32251 0.0
C1437 C 0.38479 0.75509 0.31307 0.0
C1438 C 0.37387 0.78036 0.29342 0.0
H1439 H 0.42453 0.73854 0.3432 0.0
H1440 H 0.36745 0.73363 0.3189 0.0
S1441 S 0.42622 0.85779 0.26996 0.0
N1442 N 0.45155 0.83889 0.29428 0.0
N1443 N 0.39014 0.8333 0.26755 0.0
C1444 C 0.39751 0.80797 0.28704 0.0
C1445 C 0.43098 0.811 0.30152 0.0
C1446 C 0.03412 0.65252 0.13978 0.0
C1447 C 1.00839 0.67042 0.129 0.0
C1448 C 0.04249 0.62528 0.11937 0.0
C1449 C 0.02529 0.6145 0.08747 0.0
H1450 H 0.0488 0.66035 0.16369 0.0
H1451 H 0.06303 0.6129 0.12852 0.0
S1452 S 0.95376 0.65045 0.04872 0.0
N1453 N 0.96417 0.67376 0.08516 0.0
N1454 N 0.97993 0.62241 0.04689 0.0
C1455 C 0.99852 0.63105 0.07696 0.0
C1456 C 0.99008 0.65905 0.09768 0.0
C1457 C 0.1557 0.29774 0.84449 0.0
C1458 C 0.12568 0.30293 0.82708 0.0
C1459 C 0.18353 0.29304 0.827 0.0
C1460 C 0.18264 0.29396 0.79149 0.0
H1461 H 0.15745 0.29625 0.87176 0.0
H1462 H 0.20546 0.28759 0.8413 0.0
S1463 S 0.11068 0.30845 0.73411 0.0
N1464 N 0.09729 0.30958 0.77227 0.0
N1465 N 0.14936 0.30154 0.73972 0.0
C1466 C 0.15299 0.29984 0.77394 0.0
C1467 C 0.12465 0.30419 0.79163 0.0
C1468 C 0.56198 0.68194 0.02121 0.0
C1469 C 0.53379 0.69232 1.0049 0.0
C1470 C 0.55971 0.65227 0.03861 0.0
C1471 C 0.5292 0.63182 0.04017 0.0
H1472 H 0.58613 0.69646 0.02005 0.0
H1473 H 0.5822 0.64482 0.05008 0.0
S1474 S 0.44763 0.64915 1.00454 0.0
N1475 N 0.47403 0.68067 0.9932 0.0
N1476 N 0.47 0.62508 0.02635 0.0
C1477 C 0.50071 0.64234 0.02498 0.0
C1478 C 0.50294 0.67258 1.00723 0.0
C1479 C 0.09754 0.77053 0.69492 0.0
C1480 C 0.09187 0.80048 0.67978 0.0
C1481 C 0.12591 0.76982 0.71651 0.0
C1482 C 0.14972 0.7989 0.72322 0.0
H1483 H 0.08013 0.74726 0.68978 0.0
H1484 H 0.1298 0.74592 0.72683 0.0
S1485 S 0.14537 0.88452 0.69238 0.0
N1486 N 0.11124 0.86069 0.67496 0.0
N1487 N 0.16514 0.85906 0.7152 0.0
C1488 C 0.1439 0.82939 0.70935 0.0
C1489 C 0.11477 0.83027 0.68766 0.0
C1490 C 0.07663 0.3987 0.50862 0.0
C1491 C 0.05541 0.37143 0.51948 0.0
C1492 C 0.07453 0.43262 0.51961 0.0
C1493 C 0.05108 0.4404 0.54177 0.0
H1494 H 0.09348 0.39404 0.48975 0.0
H1495 H 0.08962 0.45282 0.50855 0.0
S1496 S 0.99499 0.37813 0.58342 0.0
N1497 N 0.01407 0.3543 0.55796 0.0
N1498 N 1.01013 0.41809 0.57855 0.0
C1499 C 0.0321 0.4133 0.55544 0.0
C1500 C 0.03427 0.37877 0.54432 0.0
C1501 C 0.40638 0.31749 0.16127 0.0
C1502 C 0.43945 0.32047 0.17446 0.0
C1503 C 0.38146 0.32031 0.18265 0.0
C1504 C 0.38863 0.32611 0.21802 0.0
H1505 H 0.39951 0.31203 0.13426 0.0
H1506 H 0.3562 0.3167 0.17134 0.0
S1507 S 0.47149 0.33886 0.26513 0.0
N1508 N 0.47847 0.33199 0.22494 0.0
N1509 N 0.43115 0.33721 0.26529 0.0
C1510 C 0.42168 0.33101 0.23153 0.0
C1511 C 0.44724 0.32817 0.20966 0.0
C1512 C 0.57231 0.51249 0.38521 0.0
C1513 C 0.59903 0.49386 0.3879 0.0
C1514 C 0.55073 0.51349 0.41072 0.0
C1515 C 0.55457 0.49555 0.43991 0.0
H1516 H 0.56882 0.5278 0.36394 0.0
H1517 H 0.5317 0.5298 0.40823 0.0
S1518 S 0.61743 0.4385 0.45678 0.0
N1519 N 0.62603 0.45396 0.42035 0.0
N1520 N 0.58507 0.45547 0.4682 0.0
C1521 C 0.57963 0.47467 0.44176 0.0
C1522 C 0.60201 0.47401 0.41586 0.0
C1523 C 0.24893 0.85537 0.15835 0.0
C1524 C 0.23969 0.83937 0.12528 0.0
C1525 C 0.25592 0.8364 0.18645 0.0
C1526 C 0.25448 0.80059 0.18273 0.0
H1527 H 0.25075 0.88287 0.16265 0.0
H1528 H 0.26228 0.84993 0.21125 0.0
S1529 S 0.23136 0.74603 0.10188 0.0
N1530 N 0.22916 0.78516 0.09101 0.0
N1531 N 0.24264 0.74996 0.14306 0.0
C1532 C 0.24514 0.78434 0.14986 0.0
C1533 C 0.23771 0.80353 0.12143 0.0
C1534 C 0.9569 0.59182 0.8982 0.0
C1535 C 0.9704 0.57996 0.86878 0.0
C1536 C 0.96915 0.5851 0.93097 0.0
C1537 C 0.99584 0.56658 0.93611 0.0
H1538 H 0.93593 0.60559 0.89594 0.0
H1539 H 0.95715 0.59415 0.95248 0.0
S1540 S 0.041 0.53067 0.86786 0.0
N1541 N 0.01269 0.54926 0.84725 0.0
N1542 N 0.03594 0.5372 0.9086 0.0
C1543 C 0.01032 0.55551 0.90702 0.0
C1544 C 0.99756 0.562 0.87353 0.0
C1545 C 0.25261 0.21819 0.58526 0.0
C1546 C 0.2668 0.18794 0.58213 0.0
C1547 C 0.25322 0.23641 0.61693 0.0
C1548 C 0.26829 0.22506 0.64631 0.0
H1549 H 0.24124 0.22805 0.56309 0.0
H1550 H 0.24194 0.25955 0.61836 0.0
S1551 S 0.30948 0.14768 0.65168 0.0
N1552 N 0.29645 0.14752 0.61118 0.0
N1553 N 0.29788 0.18193 0.67044 0.0
C1554 C 0.28251 0.19485 0.64355 0.0
C1555 C 0.28164 0.17618 0.61149 0.0
C1556 C 0.58932 0.48911 0.20874 0.0
C1557 C 0.62207 0.50482 0.21721 0.0
C1558 C 0.57298 0.49187 0.17676 0.0
C1559 C 0.58893 0.51041 0.15235 0.0
H1560 H 0.57586 0.47555 0.22727 0.0
H1561 H 0.54739 0.48053 0.17161 0.0
S1562 S 0.67587 0.55241 0.16029 0.0
N1563 N 0.67075 0.53674 0.19732 0.0
N1564 N 0.64009 0.54185 0.13745 0.0
C1565 C 0.62216 0.52459 0.15984 0.0
C1566 C 0.63874 0.52184 0.19225 0.0
C1567 C 0.26113 0.82131 0.94069 0.0
C1568 C 0.23565 0.84137 0.94466 0.0
C1569 C 0.26746 0.80746 0.90845 0.0
C1570 C 0.24861 0.81291 0.87846 0.0
H1571 H 0.27681 0.81666 0.96269 0.0
H1572 H 0.28767 0.79269 0.90708 0.0
S1573 S 0.17976 0.86493 0.87445 0.0
N1574 N 0.19185 0.86653 0.91536 0.0
N1575 N 0.20352 0.84083 0.85522 0.0
C1576 C 0.22282 0.83276 0.88213 0.0
C1577 C 0.21642 0.84685 0.91498 0.0
C1578 C 0.98737 0.60086 0.67192 0.0
C1579 C 0.97131 0.5724 0.68645 0.0
C1580 C 1.00419 0.597 0.64253 0.0
C1581 C 1.00552 0.56456 0.6261 0.0
H1582 H 0.98702 0.62641 0.68334 0.0
H1583 H 0.0162 0.61975 0.6325 0.0
S1584 S 0.96857 0.4816 0.65396 0.0
N1585 N 0.95846 0.51031 0.68193 0.0
N1586 N 0.98993 0.50341 0.62707 0.0
C1587 C 0.98954 0.53591 0.64017 0.0
C1588 C 0.97255 0.53975 0.67019 0.0
C1589 C 0.33186 0.20888 0.3944 0.0
C1590 C 0.32156 0.21757 0.42641 0.0
C1591 C 0.33332 0.23232 0.36948 0.0
C1592 C 0.32374 0.26469 0.37573 0.0
H1593 H 0.3366 0.18314 0.38777 0.0
H1594 H 0.33833 0.22365 0.34415 0.0
S1595 S 0.30017 0.30176 0.45679 0.0
N1596 N 0.30662 0.26271 0.46456 0.0
N1597 N 0.30782 0.30592 0.41691 0.0
C1598 C 0.31663 0.27482 0.4085 0.0
C1599 C 0.3159 0.25137 0.43413 0.0
C1600 C 0.42221 0.61628 0.5105 0.0
C1601 C 0.38845 0.60686 0.51468 0.0
C1602 C 0.44471 0.59209 0.51106 0.0
C1603 C 0.43462 0.55744 0.5161 0.0
H1604 H 0.43142 0.64259 0.50692 0.0
H1605 H 0.4703 0.60091 0.50854 0.0
S1606 S 0.34923 0.51931 0.52881 0.0
N1607 N 0.34644 0.55988 0.52415 0.0
N1608 N 0.38828 0.5153 0.52551 0.0
C1609 C 0.401 0.54783 0.52036 0.0
C1610 C 0.37813 0.5722 0.51952 0.0
C1611 C 0.90715 0.9697 0.57497 0.0
C1612 C 0.88074 0.9863 0.56343 0.0
C1613 C 0.93949 0.98158 0.56843 0.0
C1614 C 0.94649 0.01032 0.54993 0.0
H1615 H 0.90273 0.9465 0.58785 0.0
H1616 H 0.9588 0.96696 0.5763 0.0
S1617 S 0.88686 0.06586 0.51862 0.0
N1618 N 0.86425 0.03523 0.53603 0.0
N1619 N 0.92506 0.05738 0.52359 0.0
C1620 C 0.92064 0.02842 0.54018 0.0
C1621 C 0.88774 0.01646 0.54699 0.0
C1622 C 0.78059 0.13268 0.24282 0.0
C1623 C 0.81485 0.13443 0.25014 0.0
C1624 C 0.76451 0.16115 0.25012 0.0
C1625 C 0.78184 0.19227 0.26567 0.0
H1626 H 0.76612 0.1093 0.23112 0.0
H1627 H 0.73819 0.15877 0.24337 0.0
S1628 S 0.87206 0.21026 0.28896 0.0
N1629 N 0.8657 0.17019 0.27308 0.0
N1630 N 0.83537 0.2228 0.28708 0.0
C1631 C 0.81597 0.19408 0.27326 0.0
C1632 C 0.83247 0.16543 0.26538 0.0
C1633 C 0.71673 0.102 0.05241 0.0
C1634 C 0.72613 0.1154 0.02204 0.0
C1635 C 0.68435 0.08638 0.05505 0.0
C1636 C 0.66017 0.08355 0.02742 0.0
H1637 H 0.73433 0.10419 0.0746 0.0
H1638 H 0.67808 0.0771 0.07911 0.0
S1639 S 0.67218 0.11282 0.94177 0.0
N1640 N 0.70863 0.12354 0.96335 0.0
N1641 N 0.64803 0.09412 0.96834 0.0
C1642 C 0.66941 0.09593 0.99665 0.0
C1643 C 0.70231 0.11187 0.99395 0.0
C1644 C 0.22573 0.42944 0.30646 0.0
C1645 C 0.192 0.41662 0.30636 0.0
C1646 C 0.2499 0.40763 0.30497 0.0
C1647 C 0.24173 0.37188 0.30372 0.0
H1648 H 0.23362 0.45668 0.30667 0.0
H1649 H 0.27527 0.41901 0.304 0.0
S1650 S 0.1572 0.32512 0.30471 0.0
N1651 N 0.15182 0.36567 0.30608 0.0
N1652 N 0.19728 0.32479 0.30406 0.0
C1653 C 0.20826 0.3587 0.30506 0.0
C1654 C 0.18345 0.38099 0.30609 0.0
C1655 C 0.18452 0.47686 1.00996 0.0
C1656 C 0.20349 0.48638 0.04119 0.0
C1657 C 0.15827 0.49397 0.99989 0.0
C1658 C 0.15068 0.52162 0.02031 0.0
H1659 H 0.18865 0.45472 0.99414 0.0
H1660 H 0.14265 0.48423 0.97698 0.0
S1661 S 0.19629 0.55987 0.10172 0.0
N1662 N 0.21533 0.52731 0.09063 0.0
N1663 N 0.16648 0.5603 0.07125 0.0
C1664 C 0.17131 0.53332 0.0501 0.0
C1665 C 0.19758 0.51537 0.06074 0.0
C1666 C 0.81029 0.94242 0.28332 0.0
C1667 C 0.81695 0.95132 0.2505 0.0
C1668 C 0.7995 0.90847 0.2898 0.0
C1669 C 0.79488 0.88168 0.26379 0.0
H1670 H 0.81408 0.96177 0.30448 0.0
H1671 H 0.79536 0.90322 0.31569 0.0
S1672 S 0.80749 0.89155 0.17283 0.0
N1673 N 0.81703 0.93065 0.19134 0.0
N1674 N 0.79682 0.86703 0.20329 0.0
C1675 C 0.80065 0.8904 0.23058 0.0
C1676 C 0.81162 0.92507 0.22401 0.0
C1677 C 0.70233 0.09049 0.76192 0.0
C1678 C 0.69649 0.07919 0.79416 0.0
C1679 C 0.72071 0.12242 0.75856 0.0
C1680 C 0.73325 0.14439 0.7873 0.0
H1681 H 0.69217 0.0748 0.73904 0.0
H1682 H 0.72373 0.13059 0.73332 0.0
S1683 S 0.72805 0.12602 0.87721 0.0
N1684 N 0.70742 0.09162 0.85537 0.0
N1685 N 0.74094 0.15212 0.84882 0.0
C1686 C 0.7287 0.13307 0.81959 0.0
C1687 C 0.7106 0.10029 0.82309 0.0
loop_
_geom_bond_atom_site_label_1
_geom_bond_atom_site_label_2
_geom_bond_distance
_geom_bond_site_symmetry_2
_ccdc_geom_bond_type
In0 O1 2.294 . S
In0 O2 2.326 . S
In0 O6 2.266 1_455 S
In0 O7 2.326 1_455 S
In0 O8 2.266 . S
In0 O9 2.326 . S
In0 O11 2.294 . S
In0 O12 2.326 . S
O1 In0 2.294 . S
O1 C10 1.240 . S
O2 In0 2.326 . S
O2 C10 1.252 . S
C3 O6 1.252 . S
C3 O7 1.260 . S
C4 O11 1.240 . S
C4 O12 1.252 . S
C5 O8 1.252 . S
C5 O9 1.260 . S
O6 In0 2.266 1_655 S
O6 C3 1.252 . S
O7 In0 2.326 1_655 S
O7 C3 1.260 . S
O8 In0 2.266 . S
O8 C5 1.252 . S
O9 In0 2.326 . S
O9 C5 1.260 . S
C10 O1 1.240 . S
C10 O2 1.252 . S
O11 In0 2.294 . S
O11 C4 1.240 . S
O12 In0 2.326 . S
O12 C4 1.252 . S
In13 O14 2.294 . S
In13 O15 2.326 . S
In13 O19 2.266 1_455 S
In13 O20 2.326 1_455 S
In13 O21 2.266 1_455 S
In13 O22 2.326 1_455 S
In13 O24 2.294 . S
In13 O25 2.326 . S
O14 In13 2.294 . S
O14 C23 1.240 . S
O15 In13 2.326 . S
O15 C23 1.252 . S
C16 O19 1.252 . S
C16 O20 1.260 . S
C17 O24 1.240 . S
C17 O25 1.252 . S
C18 O21 1.252 . S
C18 O22 1.260 . S
O19 In13 2.266 1_655 S
O19 C16 1.252 . S
O20 In13 2.326 1_655 S
O20 C16 1.260 . S
O21 In13 2.266 1_655 S
O21 C18 1.252 . S
O22 In13 2.326 1_655 S
O22 C18 1.260 . S
C23 O14 1.240 . S
C23 O15 1.252 . S
O24 In13 2.294 . S
O24 C17 1.240 . S
O25 In13 2.326 . S
O25 C17 1.252 . S
In26 O27 2.294 . S
In26 O28 2.326 . S
In26 O32 2.266 . S
In26 O33 2.326 . S
In26 O34 2.266 . S
In26 O35 2.326 . S
In26 O37 2.294 . S
In26 O38 2.326 . S
O27 In26 2.294 . S
O27 C36 1.240 . S
O28 In26 2.326 . S
O28 C36 1.252 . S
C29 O32 1.252 . S
C29 O33 1.260 . S
C30 O37 1.240 . S
C30 O38 1.252 . S
C31 O34 1.252 . S
C31 O35 1.260 . S
O32 In26 2.266 . S
O32 C29 1.252 . S
O33 In26 2.326 . S
O33 C29 1.260 . S
O34 In26 2.266 . S
O34 C31 1.252 . S
O35 In26 2.326 . S
O35 C31 1.260 . S
C36 O27 1.240 . S
C36 O28 1.252 . S
O37 In26 2.294 . S
O37 C30 1.240 . S
O38 In26 2.326 . S
O38 C30 1.252 . S
In39 O40 2.294 . S
In39 O41 2.326 . S
In39 O45 2.266 . S
In39 O46 2.326 . S
In39 O47 2.266 . S
In39 O48 2.326 . S
In39 O50 2.294 . S
In39 O51 2.326 . S
O40 In39 2.294 . S
O40 C49 1.240 . S
O41 In39 2.326 . S
O41 C49 1.252 . S
C42 O45 1.252 . S
C42 O46 1.260 . S
C43 O50 1.240 . S
C43 O51 1.252 . S
C44 O47 1.252 . S
C44 O48 1.260 . S
O45 In39 2.266 . S
O45 C42 1.252 . S
O46 In39 2.326 . S
O46 C42 1.260 . S
O47 In39 2.266 . S
O47 C44 1.252 . S
O48 In39 2.326 . S
O48 C44 1.260 . S
C49 O40 1.240 . S
C49 O41 1.252 . S
O50 In39 2.294 . S
O50 C43 1.240 . S
O51 In39 2.326 . S
O51 C43 1.252 . S
In52 O53 2.293 1_455 S
In52 O54 2.326 . S
In52 O58 2.266 . S
In52 O59 2.326 . S
In52 O60 2.266 . S
In52 O61 2.326 . S
In52 O63 2.294 1_455 S
In52 O64 2.326 1_455 S
O53 In52 2.293 1_655 S
O53 C62 1.240 . S
O54 In52 2.326 . S
O54 C62 1.252 1_455 S
C55 O58 1.252 . S
C55 O59 1.260 . S
C56 O63 1.240 . S
C56 O64 1.252 . S
C57 O60 1.252 . S
C57 O61 1.260 . S
O58 In52 2.266 . S
O58 C55 1.252 . S
O59 In52 2.326 . S
O59 C55 1.260 . S
O60 In52 2.266 . S
O60 C57 1.252 . S
O61 In52 2.326 . S
O61 C57 1.260 . S
C62 O53 1.240 . S
C62 O54 1.252 1_655 S
O63 In52 2.294 1_655 S
O63 C56 1.240 . S
O64 In52 2.326 1_655 S
O64 C56 1.252 . S
In65 O66 2.294 . S
In65 O67 2.326 . S
In65 O71 2.266 . S
In65 O72 2.326 . S
In65 O73 2.266 . S
In65 O74 2.326 . S
In65 O76 2.294 . S
In65 O77 2.326 . S
O66 In65 2.294 . S
O66 C75 1.240 . S
O67 In65 2.326 . S
O67 C75 1.252 . S
C68 O71 1.252 . S
C68 O72 1.260 . S
C69 O76 1.240 . S
C69 O77 1.252 . S
C70 O73 1.252 . S
C70 O74 1.260 . S
O71 In65 2.266 . S
O71 C68 1.252 . S
O72 In65 2.326 . S
O72 C68 1.260 . S
O73 In65 2.266 . S
O73 C70 1.252 . S
O74 In65 2.326 . S
O74 C70 1.260 . S
C75 O66 1.240 . S
C75 O67 1.252 . S
O76 In65 2.294 . S
O76 C69 1.240 . S
O77 In65 2.326 . S
O77 C69 1.252 . S
In78 O79 2.294 . S
In78 O80 2.326 . S
In78 O84 2.266 . S
In78 O85 2.326 . S
In78 O86 2.266 . S
In78 O87 2.326 . S
In78 O89 2.294 . S
In78 O90 2.326 . S
O79 In78 2.294 . S
O79 C88 1.240 . S
O80 In78 2.326 . S
O80 C88 1.252 . S
C81 O84 1.252 . S
C81 O85 1.260 . S
C82 O89 1.240 . S
C82 O90 1.252 . S
C83 O86 1.252 . S
C83 O87 1.260 . S
O84 In78 2.266 . S
O84 C81 1.252 . S
O85 In78 2.326 . S
O85 C81 1.260 . S
O86 In78 2.266 . S
O86 C83 1.252 . S
O87 In78 2.326 . S
O87 C83 1.260 . S
C88 O79 1.240 . S
C88 O80 1.252 . S
O89 In78 2.294 . S
O89 C82 1.240 . S
O90 In78 2.326 . S
O90 C82 1.252 . S
In91 O92 2.294 . S
In91 O93 2.326 . S
In91 O97 2.266 . S
In91 O98 2.326 . S
In91 O99 2.266 1_455 S
In91 O100 2.326 1_455 S
In91 O102 2.294 . S
In91 O103 2.326 . S
O92 In91 2.294 . S
O92 C101 1.240 . S
O93 In91 2.326 . S
O93 C101 1.252 . S
C94 O97 1.252 . S
C94 O98 1.260 . S
C95 O102 1.240 . S
C95 O103 1.252 . S
C96 O99 1.252 . S
C96 O100 1.260 . S
O97 In91 2.266 . S
O97 C94 1.252 . S
O98 In91 2.326 . S
O98 C94 1.260 . S
O99 In91 2.266 1_655 S
O99 C96 1.252 . S
O100 In91 2.326 1_655 S
O100 C96 1.260 . S
C101 O92 1.240 . S
C101 O93 1.252 . S
O102 In91 2.294 . S
O102 C95 1.240 . S
O103 In91 2.326 . S
O103 C95 1.252 . S
In104 O105 2.294 . S
In104 O106 2.326 . S
In104 O110 2.266 . S
In104 O111 2.326 . S
In104 O112 2.266 . S
In104 O113 2.326 1_545 S
In104 O115 2.294 . S
In104 O116 2.326 . S
O105 In104 2.294 . S
O105 C114 1.240 . S
O106 In104 2.326 . S
O106 C114 1.252 . S
C107 O110 1.252 . S
C107 O111 1.260 . S
C108 O115 1.240 . S
C108 O116 1.252 . S
C109 O112 1.252 1_565 S
C109 O113 1.260 . S
O110 In104 2.266 . S
O110 C107 1.252 . S
O111 In104 2.326 . S
O111 C107 1.260 . S
O112 In104 2.266 . S
O112 C109 1.252 1_545 S
O113 In104 2.326 1_565 S
O113 C109 1.260 . S
C114 O105 1.240 . S
C114 O106 1.252 . S
O115 In104 2.294 . S
O115 C108 1.240 . S
O116 In104 2.326 . S
O116 C108 1.252 . S
In117 O118 2.294 . S
In117 O119 2.326 . S
In117 O123 2.266 . S
In117 O124 2.326 . S
In117 O125 2.266 . S
In117 O126 2.326 . S
In117 O128 2.294 . S
In117 O129 2.326 . S
O118 In117 2.294 . S
O118 C127 1.240 . S
O119 In117 2.326 . S
O119 C127 1.252 . S
C120 O123 1.252 . S
C120 O124 1.260 . S
C121 O128 1.240 . S
C121 O129 1.252 . S
C122 O125 1.252 . S
C122 O126 1.260 . S
O123 In117 2.266 . S
O123 C120 1.252 . S
O124 In117 2.326 . S
O124 C120 1.260 . S
O125 In117 2.266 . S
O125 C122 1.252 . S
O126 In117 2.326 . S
O126 C122 1.260 . S
C127 O118 1.240 . S
C127 O119 1.252 . S
O128 In117 2.294 . S
O128 C121 1.240 . S
O129 In117 2.326 . S
O129 C121 1.252 . S
In130 O131 2.294 1_545 S
In130 O132 2.326 1_545 S
In130 O136 2.266 . S
In130 O137 2.325 . S
In130 O138 2.264 . S
In130 O139 2.322 . S
In130 O141 2.296 1_545 S
In130 O142 2.330 1_545 S
O131 In130 2.294 1_565 S
O131 C140 1.240 . S
O132 In130 2.326 1_565 S
O132 C140 1.252 . S
C133 O136 1.252 . S
C133 O137 1.260 . S
C134 O141 1.240 . S
C134 O142 1.252 . S
C135 O138 1.252 . S
C135 O139 1.260 . S
O136 In130 2.266 . S
O136 C133 1.252 . S
O137 In130 2.325 . S
O137 C133 1.260 . S
O138 In130 2.264 . S
O138 C135 1.252 . S
O139 In130 2.322 . S
O139 C135 1.260 . S
C140 O131 1.240 . S
C140 O132 1.252 . S
O141 In130 2.296 1_565 S
O141 C134 1.240 . S
O142 In130 2.330 1_565 S
O142 C134 1.252 . S
In143 O144 2.294 . S
In143 O145 2.326 . S
In143 O149 2.266 1_554 S
In143 O150 2.326 1_554 S
In143 O151 2.266 . S
In143 O152 2.326 . S
In143 O154 2.294 . S
In143 O155 2.326 . S
O144 In143 2.294 . S
O144 C153 1.240 . S
O145 In143 2.326 . S
O145 C153 1.252 . S
C146 O149 1.252 . S
C146 O150 1.260 . S
C147 O154 1.240 . S
C147 O155 1.252 . S
C148 O151 1.252 . S
C148 O152 1.260 . S
O149 In143 2.266 1_556 S
O149 C146 1.252 . S
O150 In143 2.326 1_556 S
O150 C146 1.260 . S
O151 In143 2.266 . S
O151 C148 1.252 . S
O152 In143 2.326 . S
O152 C148 1.260 . S
C153 O144 1.240 . S
C153 O145 1.252 . S
O154 In143 2.294 . S
O154 C147 1.240 . S
O155 In143 2.326 . S
O155 C147 1.252 . S
In156 O157 2.294 . S
In156 O158 2.326 . S
In156 O162 2.266 1_554 S
In156 O163 2.326 1_554 S
In156 O164 2.266 . S
In156 O165 2.326 . S
In156 O167 2.294 . S
In156 O168 2.326 . S
O157 In156 2.294 . S
O157 C166 1.240 . S
O158 In156 2.326 . S
O158 C166 1.252 . S
C159 O162 1.252 . S
C159 O163 1.260 . S
C160 O167 1.240 . S
C160 O168 1.252 . S
C161 O164 1.252 . S
C161 O165 1.260 . S
O162 In156 2.266 1_556 S
O162 C159 1.252 . S
O163 In156 2.326 1_556 S
O163 C159 1.260 . S
O164 In156 2.266 . S
O164 C161 1.252 . S
O165 In156 2.326 . S
O165 C161 1.260 . S
C166 O157 1.240 . S
C166 O158 1.252 . S
O167 In156 2.294 . S
O167 C160 1.240 . S
O168 In156 2.326 . S
O168 C160 1.252 . S
In169 O170 2.294 . S
In169 O171 2.326 . S
In169 O175 2.266 1_554 S
In169 O176 2.326 . S
In169 O177 2.266 1_554 S
In169 O178 2.326 1_554 S
In169 O180 2.294 . S
In169 O181 2.326 . S
O170 In169 2.294 . S
O170 C179 1.240 . S
O171 In169 2.326 . S
O171 C179 1.252 . S
C172 O175 1.252 . S
C172 O176 1.260 1_556 S
C173 O180 1.240 . S
C173 O181 1.252 . S
C174 O177 1.252 . S
C174 O178 1.260 . S
O175 In169 2.266 1_556 S
O175 C172 1.252 . S
O176 In169 2.326 . S
O176 C172 1.260 1_554 S
O177 In169 2.266 1_556 S
O177 C174 1.252 . S
O178 In169 2.326 1_556 S
O178 C174 1.260 . S
C179 O170 1.240 . S
C179 O171 1.252 . S
O180 In169 2.294 . S
O180 C173 1.240 . S
O181 In169 2.326 . S
O181 C173 1.252 . S
In182 O183 2.294 . S
In182 O184 2.326 . S
In182 O188 2.266 . S
In182 O189 2.326 . S
In182 O190 2.266 . S
In182 O191 2.326 . S
In182 O193 2.294 . S
In182 O194 2.326 . S
O183 In182 2.294 . S
O183 C192 1.240 . S
O184 In182 2.326 . S
O184 C192 1.252 . S
C185 O188 1.252 . S
C185 O189 1.260 . S
C186 O193 1.240 . S
C186 O194 1.252 . S
C187 O190 1.252 . S
C187 O191 1.260 . S
O188 In182 2.266 . S
O188 C185 1.252 . S
O189 In182 2.326 . S
O189 C185 1.260 . S
O190 In182 2.266 . S
O190 C187 1.252 . S
O191 In182 2.326 . S
O191 C187 1.260 . S
C192 O183 1.240 . S
C192 O184 1.252 . S
O193 In182 2.294 . S
O193 C186 1.240 . S
O194 In182 2.326 . S
O194 C186 1.252 . S
In195 O196 2.294 . S
In195 O197 2.326 . S
In195 O201 2.266 . S
In195 O202 2.326 . S
In195 O203 2.266 . S
In195 O204 2.326 . S
In195 O206 2.294 . S
In195 O207 2.326 . S
O196 In195 2.294 . S
O196 C205 1.240 . S
O197 In195 2.326 . S
O197 C205 1.252 . S
C198 O201 1.252 . S
C198 O202 1.260 . S
C199 O206 1.240 . S
C199 O207 1.252 . S
C200 O203 1.252 . S
C200 O204 1.260 . S
O201 In195 2.266 . S
O201 C198 1.252 . S
O202 In195 2.326 . S
O202 C198 1.260 . S
O203 In195 2.266 . S
O203 C200 1.252 . S
O204 In195 2.326 . S
O204 C200 1.260 . S
C205 O196 1.240 . S
C205 O197 1.252 . S
O206 In195 2.294 . S
O206 C199 1.240 . S
O207 In195 2.326 . S
O207 C199 1.252 . S
In208 O209 2.294 . S
In208 O210 2.326 . S
In208 O214 2.266 . S
In208 O215 2.326 . S
In208 O216 2.266 . S
In208 O217 2.348 . S
In208 O219 2.294 . S
In208 O220 2.326 . S
O209 In208 2.294 . S
O209 C218 1.240 . S
O210 In208 2.326 . S
O210 C218 1.252 . S
C211 O214 1.252 . S
C211 O215 1.260 . S
C212 O219 1.240 . S
C212 O220 1.252 . S
C213 O216 1.252 1_565 S
C213 O217 1.259 1_565 S
O214 In208 2.266 . S
O214 C211 1.252 . S
O215 In208 2.326 . S
O215 C211 1.260 . S
O216 In208 2.266 . S
O216 C213 1.252 1_545 S
O217 In208 2.348 . S
O217 C213 1.259 1_545 S
C218 O209 1.240 . S
C218 O210 1.252 . S
O219 In208 2.294 . S
O219 C212 1.240 . S
O220 In208 2.326 . S
O220 C212 1.252 . S
In221 O222 2.294 . S
In221 O223 2.326 . S
In221 O227 2.266 . S
In221 O228 2.326 . S
In221 O229 2.266 . S
In221 O230 2.326 . S
In221 O232 2.294 . S
In221 O233 2.326 . S
O222 In221 2.294 . S
O222 C231 1.240 . S
O223 In221 2.326 . S
O223 C231 1.252 . S
C224 O227 1.252 . S
C224 O228 1.260 . S
C225 O232 1.240 . S
C225 O233 1.252 . S
C226 O229 1.252 . S
C226 O230 1.260 . S
O227 In221 2.266 . S
O227 C224 1.252 . S
O228 In221 2.326 . S
O228 C224 1.260 . S
O229 In221 2.266 . S
O229 C226 1.252 . S
O230 In221 2.326 . S
O230 C226 1.260 . S
C231 O222 1.240 . S
C231 O223 1.252 . S
O232 In221 2.294 . S
O232 C225 1.240 . S
O233 In221 2.326 . S
O233 C225 1.252 . S
In234 O235 2.294 . S
In234 O236 2.326 . S
In234 O240 2.266 . S
In234 O241 2.326 . S
In234 O242 2.266 . S
In234 O243 2.326 . S
In234 O245 2.294 . S
In234 O246 2.326 . S
O235 In234 2.294 . S
O235 C244 1.240 . S
O236 In234 2.326 . S
O236 C244 1.252 . S
C237 O240 1.252 . S
C237 O241 1.260 . S
C238 O245 1.240 . S
C238 O246 1.252 . S
C239 O242 1.252 . S
C239 O243 1.260 . S
O240 In234 2.266 . S
O240 C237 1.252 . S
O241 In234 2.326 . S
O241 C237 1.260 . S
O242 In234 2.266 . S
O242 C239 1.252 . S
O243 In234 2.326 . S
O243 C239 1.260 . S
C244 O235 1.240 . S
C244 O236 1.252 . S
O245 In234 2.294 . S
O245 C238 1.240 . S
O246 In234 2.326 . S
O246 C238 1.252 . S
In247 O248 2.294 1_545 S
In247 O249 2.326 1_545 S
In247 O253 2.266 . S
In247 O254 2.326 . S
In247 O255 2.266 . S
In247 O256 2.326 . S
In247 O258 2.294 1_545 S
In247 O259 2.326 1_545 S
O248 In247 2.294 1_565 S
O248 C257 1.240 . S
O249 In247 2.326 1_565 S
O249 C257 1.252 . S
C250 O253 1.252 . S
C250 O254 1.260 . S
C251 O258 1.240 . S
C251 O259 1.252 . S
C252 O255 1.252 . S
C252 O256 1.260 . S
O253 In247 2.266 . S
O253 C250 1.252 . S
O254 In247 2.326 . S
O254 C250 1.260 . S
O255 In247 2.266 . S
O255 C252 1.252 . S
O256 In247 2.326 . S
O256 C252 1.260 . S
C257 O248 1.240 . S
C257 O249 1.252 . S
O258 In247 2.294 1_565 S
O258 C251 1.240 . S
O259 In247 2.326 1_565 S
O259 C251 1.252 . S
In260 O261 2.294 . S
In260 O262 2.326 . S
In260 O266 2.266 1_554 S
In260 O267 2.326 1_554 S
In260 O268 2.266 1_554 S
In260 O269 2.326 1_554 S
In260 O271 2.294 . S
In260 O272 2.326 . S
O261 In260 2.294 . S
O261 C270 1.240 . S
O262 In260 2.326 . S
O262 C270 1.252 . S
C263 O266 1.252 . S
C263 O267 1.260 . S
C264 O271 1.240 . S
C264 O272 1.252 . S
C265 O268 1.252 . S
C265 O269 1.260 . S
O266 In260 2.266 1_556 S
O266 C263 1.252 . S
O267 In260 2.326 1_556 S
O267 C263 1.260 . S
O268 In260 2.266 1_556 S
O268 C265 1.252 . S
O269 In260 2.326 1_556 S
O269 C265 1.260 . S
C270 O261 1.240 . S
C270 O262 1.252 . S
O271 In260 2.294 . S
O271 C264 1.240 . S
O272 In260 2.326 . S
O272 C264 1.252 . S
In273 O274 2.294 . S
In273 O275 2.326 . S
In273 O279 2.266 . S
In273 O280 2.326 . S
In273 O281 2.266 . S
In273 O282 2.326 . S
In273 O284 2.294 . S
In273 O285 2.326 . S
O274 In273 2.294 . S
O274 C283 1.240 . S
O275 In273 2.326 . S
O275 C283 1.252 . S
C276 O279 1.252 . S
C276 O280 1.260 . S
C277 O284 1.240 . S
C277 O285 1.252 . S
C278 O281 1.252 . S
C278 O282 1.260 . S
O279 In273 2.266 . S
O279 C276 1.252 . S
O280 In273 2.326 . S
O280 C276 1.260 . S
O281 In273 2.266 . S
O281 C278 1.252 . S
O282 In273 2.326 . S
O282 C278 1.260 . S
C283 O274 1.240 . S
C283 O275 1.252 . S
O284 In273 2.294 . S
O284 C277 1.240 . S
O285 In273 2.326 . S
O285 C277 1.252 . S
In286 O287 2.294 . S
In286 O288 2.326 . S
In286 O292 2.266 . S
In286 O293 2.326 . S
In286 O294 2.266 . S
In286 O295 2.326 . S
In286 O297 2.294 . S
In286 O298 2.326 . S
O287 In286 2.294 . S
O287 C296 1.240 . S
O288 In286 2.326 . S
O288 C296 1.252 . S
C289 O292 1.252 . S
C289 O293 1.260 . S
C290 O297 1.240 . S
C290 O298 1.252 . S
C291 O294 1.252 . S
C291 O295 1.260 . S
O292 In286 2.266 . S
O292 C289 1.252 . S
O293 In286 2.326 . S
O293 C289 1.260 . S
O294 In286 2.266 . S
O294 C291 1.252 . S
O295 In286 2.326 . S
O295 C291 1.260 . S
C296 O287 1.240 . S
C296 O288 1.252 . S
O297 In286 2.294 . S
O297 C290 1.240 . S
O298 In286 2.326 . S
O298 C290 1.252 . S
In299 O300 2.294 . S
In299 O301 2.326 . S
In299 O305 2.266 . S
In299 O306 2.326 . S
In299 O307 2.266 . S
In299 O308 2.326 . S
In299 O310 2.294 . S
In299 O311 2.326 . S
O300 In299 2.294 . S
O300 C309 1.240 . S
O301 In299 2.326 . S
O301 C309 1.252 . S
C302 O305 1.252 . S
C302 O306 1.260 . S
C303 O310 1.240 . S
C303 O311 1.252 . S
C304 O307 1.252 . S
C304 O308 1.260 . S
O305 In299 2.266 . S
O305 C302 1.252 . S
O306 In299 2.326 . S
O306 C302 1.260 . S
O307 In299 2.266 . S
O307 C304 1.252 . S
O308 In299 2.326 . S
O308 C304 1.260 . S
C309 O300 1.240 . S
C309 O301 1.252 . S
O310 In299 2.294 . S
O310 C303 1.240 . S
O311 In299 2.326 . S
O311 C303 1.252 . S
Tb312 O315 2.453 . S
Tb312 O316 2.596 . S
Tb312 O317 2.374 1_554 S
Tb312 O325 2.343 . S
Tb312 O327 2.353 . S
Tb312 O329 2.427 . S
Tb312 O330 2.513 1_554 S
C313 O317 1.251 . S
C313 O319 1.263 . S
Tb314 O316 2.350 . S
Tb314 O319 2.357 1_554 S
Tb314 O322 2.401 1_545 S
Tb314 O323 2.494 1_545 S
Tb314 O324 2.471 1_455 S
Tb314 O325 2.623 . S
Tb314 O326 2.387 . S
O315 Tb312 2.453 . S
O315 C331 1.245 . S
O316 Tb312 2.596 . S
O316 Tb314 2.350 . S
O316 C331 1.259 . S
O317 Tb312 2.374 1_556 S
O317 C313 1.251 . S
C318 O322 1.275 . S
C318 O323 1.246 . S
O319 C313 1.263 . S
O319 Tb314 2.357 1_556 S
C320 O324 1.245 . S
C320 O325 1.259 1_655 S
C321 O326 1.250 . S
C321 O327 1.263 . S
O322 Tb314 2.401 1_565 S
O322 C318 1.275 . S
O323 Tb314 2.494 1_565 S
O323 C318 1.246 . S
O324 Tb314 2.471 1_655 S
O324 C320 1.245 . S
O325 Tb312 2.343 . S
O325 Tb314 2.623 . S
O325 C320 1.259 1_455 S
O326 Tb314 2.387 . S
O326 C321 1.250 . S
O327 Tb312 2.353 . S
O327 C321 1.263 . S
C328 O329 1.275 . S
C328 O330 1.246 1_554 S
O329 Tb312 2.427 . S
O329 C328 1.275 . S
O330 Tb312 2.513 1_556 S
O330 C328 1.246 1_556 S
C331 O315 1.245 . S
C331 O316 1.259 . S
Tb332 O335 2.453 . S
Tb332 O336 2.596 . S
Tb332 O337 2.374 . S
Tb332 O345 2.343 . S
Tb332 O347 2.353 . S
Tb332 O349 2.427 . S
Tb332 O350 2.513 . S
C333 O337 1.251 . S
C333 O339 1.263 . S
Tb334 O336 2.343 . S
Tb334 O339 2.353 . S
Tb334 O342 2.427 . S
Tb334 O343 2.513 . S
Tb334 O344 2.453 . S
Tb334 O345 2.596 . S
Tb334 O346 2.374 . S
O335 Tb332 2.453 . S
O335 C351 1.245 . S
O336 Tb332 2.596 . S
O336 Tb334 2.343 . S
O336 C351 1.259 . S
O337 Tb332 2.374 . S
O337 C333 1.251 . S
C338 O342 1.275 . S
C338 O343 1.246 . S
O339 C333 1.263 . S
O339 Tb334 2.353 . S
C340 O344 1.245 . S
C340 O345 1.259 . S
C341 O346 1.250 . S
C341 O347 1.263 . S
O342 Tb334 2.427 . S
O342 C338 1.275 . S
O343 Tb334 2.513 . S
O343 C338 1.246 . S
O344 Tb334 2.453 . S
O344 C340 1.245 . S
O345 Tb332 2.343 . S
O345 Tb334 2.596 . S
O345 C340 1.259 . S
O346 Tb334 2.374 . S
O346 C341 1.250 . S
O347 Tb332 2.353 . S
O347 C341 1.263 . S
C348 O349 1.275 . S
C348 O350 1.246 . S
O349 Tb332 2.427 . S
O349 C348 1.275 . S
O350 Tb332 2.513 . S
O350 C348 1.246 . S
C351 O335 1.245 . S
C351 O336 1.259 . S
Tb352 O355 2.453 . S
Tb352 O356 2.596 . S
Tb352 O357 2.374 . S
Tb352 O365 2.343 1_545 S
Tb352 O367 2.353 . S
Tb352 O369 2.427 1_545 S
Tb352 O370 2.513 1_545 S
C353 O357 1.251 . S
C353 O359 1.263 1_545 S
Tb354 O356 2.343 . S
Tb354 O359 2.353 1_545 S
Tb354 O362 2.427 . S
Tb354 O363 2.513 . S
Tb354 O364 2.453 1_545 S
Tb354 O365 2.596 1_545 S
Tb354 O366 2.374 . S
O355 Tb352 2.453 . S
O355 C371 1.245 . S
O356 Tb352 2.596 . S
O356 Tb354 2.343 . S
O356 C371 1.259 . S
O357 Tb352 2.374 . S
O357 C353 1.251 . S
C358 O362 1.275 . S
C358 O363 1.246 . S
O359 C353 1.263 1_565 S
O359 Tb354 2.353 1_565 S
C360 O364 1.245 . S
C360 O365 1.259 . S
C361 O366 1.250 . S
C361 O367 1.263 . S
O362 Tb354 2.427 . S
O362 C358 1.275 . S
O363 Tb354 2.513 . S
O363 C358 1.246 . S
O364 Tb354 2.453 1_565 S
O364 C360 1.245 . S
O365 Tb352 2.343 1_565 S
O365 Tb354 2.596 1_565 S
O365 C360 1.259 . S
O366 Tb354 2.374 . S
O366 C361 1.250 . S
O367 Tb352 2.353 . S
O367 C361 1.263 . S
C368 O369 1.275 . S
C368 O370 1.246 . S
O369 Tb352 2.427 1_565 S
O369 C368 1.275 . S
O370 Tb352 2.513 1_565 S
O370 C368 1.246 . S
C371 O355 1.245 . S
C371 O356 1.259 . S
Tb372 O375 2.453 . S
Tb372 O376 2.596 . S
Tb372 O377 2.374 . S
Tb372 O385 2.343 . S
Tb372 O387 2.353 . S
Tb372 O389 2.427 . S
Tb372 O390 2.513 . S
C373 O377 1.251 . S
C373 O379 1.263 . S
Tb374 O376 2.343 . S
Tb374 O379 2.353 . S
Tb374 O382 2.427 . S
Tb374 O383 2.513 . S
Tb374 O384 2.453 . S
Tb374 O385 2.596 . S
Tb374 O386 2.374 . S
O375 Tb372 2.453 . S
O375 C391 1.245 . S
O376 Tb372 2.596 . S
O376 Tb374 2.343 . S
O376 C391 1.259 . S
O377 Tb372 2.374 . S
O377 C373 1.251 . S
C378 O382 1.275 . S
C378 O383 1.246 . S
O379 C373 1.263 . S
O379 Tb374 2.353 . S
C380 O384 1.245 . S
C380 O385 1.259 . S
C381 O386 1.250 . S
C381 O387 1.263 . S
O382 Tb374 2.427 . S
O382 C378 1.275 . S
O383 Tb374 2.513 . S
O383 C378 1.246 . S
O384 Tb374 2.453 . S
O384 C380 1.245 . S
O385 Tb372 2.343 . S
O385 Tb374 2.596 . S
O385 C380 1.259 . S
O386 Tb374 2.374 . S
O386 C381 1.250 . S
O387 Tb372 2.353 . S
O387 C381 1.263 . S
C388 O389 1.275 . S
C388 O390 1.246 . S
O389 Tb372 2.427 . S
O389 C388 1.275 . S
O390 Tb372 2.513 . S
O390 C388 1.246 . S
C391 O375 1.245 . S
C391 O376 1.259 . S
Tb392 O395 2.453 . S
Tb392 O396 2.596 . S
Tb392 O397 2.374 1_455 S
Tb392 O405 2.343 1_565 S
Tb392 O407 2.353 1_565 S
Tb392 O409 2.427 1_565 S
Tb392 O410 2.513 1_465 S
C393 O397 1.251 . S
C393 O399 1.263 1_565 S
Tb394 O396 2.343 1_545 S
Tb394 O399 2.353 1_455 S
Tb394 O402 2.427 . S
Tb394 O403 2.513 . S
Tb394 O404 2.453 . S
Tb394 O405 2.596 . S
Tb394 O406 2.374 . S
O395 Tb392 2.453 . S
O395 C411 1.245 . S
O396 Tb392 2.596 . S
O396 Tb394 2.343 1_565 S
O396 C411 1.259 . S
O397 Tb392 2.374 1_655 S
O397 C393 1.251 . S
C398 O402 1.275 . S
C398 O403 1.246 . S
O399 C393 1.263 1_545 S
O399 Tb394 2.353 1_655 S
C400 O404 1.245 . S
C400 O405 1.259 . S
C401 O406 1.250 . S
C401 O407 1.263 . S
O402 Tb394 2.427 . S
O402 C398 1.275 . S
O403 Tb394 2.513 . S
O403 C398 1.246 . S
O404 Tb394 2.453 . S
O404 C400 1.245 . S
O405 Tb392 2.343 1_545 S
O405 Tb394 2.596 . S
O405 C400 1.259 . S
O406 Tb394 2.374 . S
O406 C401 1.250 . S
O407 Tb392 2.353 1_545 S
O407 C401 1.263 . S
C408 O409 1.275 1_655 S
C408 O410 1.246 . S
O409 Tb392 2.427 1_545 S
O409 C408 1.275 1_455 S
O410 Tb392 2.513 1_645 S
O410 C408 1.246 . S
C411 O395 1.245 . S
C411 O396 1.259 . S
Tb412 O415 2.453 . S
Tb412 O416 2.596 . S
Tb412 O417 2.374 . S
Tb412 O425 2.343 . S
Tb412 O427 2.353 . S
Tb412 O429 2.427 . S
Tb412 O430 2.513 . S
C413 O417 1.251 . S
C413 O419 1.263 . S
Tb414 O416 2.343 . S
Tb414 O419 2.353 . S
Tb414 O422 2.427 . S
Tb414 O423 2.513 . S
Tb414 O424 2.453 . S
Tb414 O425 2.596 . S
Tb414 O426 2.374 . S
O415 Tb412 2.453 . S
O415 C431 1.245 . S
O416 Tb412 2.596 . S
O416 Tb414 2.343 . S
O416 C431 1.259 . S
O417 Tb412 2.374 . S
O417 C413 1.251 . S
C418 O422 1.275 . S
C418 O423 1.246 . S
O419 C413 1.263 . S
O419 Tb414 2.353 . S
C420 O424 1.245 . S
C420 O425 1.259 . S
C421 O426 1.250 . S
C421 O427 1.263 . S
O422 Tb414 2.427 . S
O422 C418 1.275 . S
O423 Tb414 2.513 . S
O423 C418 1.246 . S
O424 Tb414 2.453 . S
O424 C420 1.245 . S
O425 Tb412 2.343 . S
O425 Tb414 2.596 . S
O425 C420 1.259 . S
O426 Tb414 2.374 . S
O426 C421 1.250 . S
O427 Tb412 2.353 . S
O427 C421 1.263 . S
C428 O429 1.275 . S
C428 O430 1.246 . S
O429 Tb412 2.427 . S
O429 C428 1.275 . S
O430 Tb412 2.513 . S
O430 C428 1.246 . S
C431 O415 1.245 . S
C431 O416 1.259 . S
Tb432 O435 2.453 . S
Tb432 O436 2.596 . S
Tb432 O437 2.374 1_545 S
Tb432 O445 2.343 1_556 S
Tb432 O447 2.353 1_556 S
Tb432 O449 2.427 1_556 S
Tb432 O450 2.513 1_546 S
C433 O437 1.251 . S
C433 O439 1.263 1_556 S
Tb434 O436 2.343 1_554 S
Tb434 O439 2.353 1_545 S
Tb434 O442 2.427 . S
Tb434 O443 2.513 . S
Tb434 O444 2.453 . S
Tb434 O445 2.596 . S
Tb434 O446 2.374 . S
O435 Tb432 2.453 . S
O435 C451 1.245 . S
O436 Tb432 2.596 . S
O436 Tb434 2.343 1_556 S
O436 C451 1.259 . S
O437 Tb432 2.374 1_565 S
O437 C433 1.251 . S
C438 O442 1.275 . S
C438 O443 1.246 . S
O439 C433 1.263 1_554 S
O439 Tb434 2.353 1_565 S
C440 O444 1.245 . S
C440 O445 1.259 . S
C441 O446 1.250 . S
C441 O447 1.263 . S
O442 Tb434 2.427 . S
O442 C438 1.275 . S
O443 Tb434 2.513 . S
O443 C438 1.246 . S
O444 Tb434 2.453 . S
O444 C440 1.245 . S
O445 Tb432 2.343 1_554 S
O445 Tb434 2.596 . S
O445 C440 1.259 . S
O446 Tb434 2.374 . S
O446 C441 1.250 . S
O447 Tb432 2.353 1_554 S
O447 C441 1.263 . S
C448 O449 1.275 . S
C448 O450 1.246 1_545 S
O449 Tb432 2.427 1_554 S
O449 C448 1.275 . S
O450 Tb432 2.513 1_564 S
O450 C448 1.246 1_565 S
C451 O435 1.245 . S
C451 O436 1.259 . S
Tb452 O455 2.453 . S
Tb452 O456 2.596 . S
Tb452 O457 2.374 . S
Tb452 O465 2.343 . S
Tb452 O467 2.353 . S
Tb452 O469 2.427 . S
Tb452 O470 2.513 . S
C453 O457 1.251 . S
C453 O459 1.263 . S
Tb454 O456 2.343 . S
Tb454 O459 2.353 . S
Tb454 O462 2.427 . S
Tb454 O463 2.513 . S
Tb454 O464 2.453 . S
Tb454 O465 2.596 . S
Tb454 O466 2.374 . S
O455 Tb452 2.453 . S
O455 C471 1.245 . S
O456 Tb452 2.596 . S
O456 Tb454 2.343 . S
O456 C471 1.259 . S
O457 Tb452 2.374 . S
O457 C453 1.251 . S
C458 O462 1.275 . S
C458 O463 1.246 . S
O459 C453 1.263 . S
O459 Tb454 2.353 . S
C460 O464 1.245 . S
C460 O465 1.259 . S
C461 O466 1.250 . S
C461 O467 1.263 . S
O462 Tb454 2.427 . S
O462 C458 1.275 . S
O463 Tb454 2.513 . S
O463 C458 1.246 . S
O464 Tb454 2.453 . S
O464 C460 1.245 . S
O465 Tb452 2.343 . S
O465 Tb454 2.596 . S
O465 C460 1.259 . S
O466 Tb454 2.374 . S
O466 C461 1.250 . S
O467 Tb452 2.353 . S
O467 C461 1.263 . S
C468 O469 1.275 . S
C468 O470 1.246 . S
O469 Tb452 2.427 . S
O469 C468 1.275 . S
O470 Tb452 2.513 . S
O470 C468 1.246 . S
C471 O455 1.245 . S
C471 O456 1.259 . S
Tb472 O475 2.453 . S
Tb472 O476 2.596 1_556 S
Tb472 O477 2.374 . S
Tb472 O485 2.343 . S
Tb472 O487 2.353 . S
Tb472 O489 2.427 . S
Tb472 O490 2.513 . S
C473 O477 1.251 1_554 S
C473 O479 1.263 . S
Tb474 O476 2.343 . S
Tb474 O479 2.353 . S
Tb474 O482 2.427 . S
Tb474 O483 2.513 . S
Tb474 O484 2.453 . S
Tb474 O485 2.596 1_554 S
Tb474 O486 2.374 . S
O475 Tb472 2.453 . S
O475 C491 1.245 1_556 S
O476 Tb472 2.596 1_554 S
O476 Tb474 2.343 . S
O476 C491 1.259 . S
O477 Tb472 2.374 . S
O477 C473 1.251 1_556 S
C478 O482 1.275 . S
C478 O483 1.246 . S
O479 C473 1.263 . S
O479 Tb474 2.353 . S
C480 O484 1.245 1_556 S
C480 O485 1.259 . S
C481 O486 1.259 . S
C481 O487 1.258 1_554 S
O482 Tb474 2.427 . S
O482 C478 1.275 . S
O483 Tb474 2.513 . S
O483 C478 1.246 . S
O484 Tb474 2.453 . S
O484 C480 1.245 1_554 S
O485 Tb472 2.343 . S
O485 Tb474 2.596 1_556 S
O485 C480 1.259 . S
O486 Tb474 2.374 . S
O486 C481 1.259 . S
O487 Tb472 2.353 . S
O487 C481 1.258 1_556 S
C488 O489 1.275 . S
C488 O490 1.246 . S
O489 Tb472 2.427 . S
O489 C488 1.275 . S
O490 Tb472 2.513 . S
O490 C488 1.246 . S
C491 O475 1.245 1_554 S
C491 O476 1.259 . S
Tb492 O495 2.453 . S
Tb492 O496 2.596 . S
Tb492 O497 2.374 . S
Tb492 O505 2.343 . S
Tb492 O507 2.353 . S
Tb492 O509 2.427 . S
Tb492 O510 2.513 . S
C493 O497 1.251 . S
C493 O499 1.263 . S
Tb494 O496 2.343 . S
Tb494 O499 2.353 . S
Tb494 O502 2.427 . S
Tb494 O503 2.513 . S
Tb494 O504 2.453 . S
Tb494 O505 2.596 . S
Tb494 O506 2.374 . S
O495 Tb492 2.453 . S
O495 C511 1.245 . S
O496 Tb492 2.596 . S
O496 Tb494 2.343 . S
O496 C511 1.259 . S
O497 Tb492 2.374 . S
O497 C493 1.251 . S
C498 O502 1.275 . S
C498 O503 1.246 . S
O499 C493 1.263 . S
O499 Tb494 2.353 . S
C500 O504 1.245 . S
C500 O505 1.259 . S
C501 O506 1.250 . S
C501 O507 1.263 . S
O502 Tb494 2.427 . S
O502 C498 1.275 . S
O503 Tb494 2.513 . S
O503 C498 1.246 . S
O504 Tb494 2.453 . S
O504 C500 1.245 . S
O505 Tb492 2.343 . S
O505 Tb494 2.596 . S
O505 C500 1.259 . S
O506 Tb494 2.374 . S
O506 C501 1.250 . S
O507 Tb492 2.353 . S
O507 C501 1.263 . S
C508 O509 1.275 . S
C508 O510 1.246 . S
O509 Tb492 2.427 . S
O509 C508 1.275 . S
O510 Tb492 2.513 . S
O510 C508 1.246 . S
C511 O495 1.245 . S
C511 O496 1.259 . S
Tb512 O515 2.453 . S
Tb512 O516 2.596 1_655 S
Tb512 O517 2.374 . S
Tb512 O525 2.343 . S
Tb512 O527 2.353 . S
Tb512 O529 2.427 . S
Tb512 O530 2.513 . S
C513 O517 1.251 1_455 S
C513 O519 1.263 . S
Tb514 O516 2.343 . S
Tb514 O519 2.353 . S
Tb514 O522 2.427 . S
Tb514 O523 2.513 . S
Tb514 O524 2.453 . S
Tb514 O525 2.596 1_455 S
Tb514 O526 2.374 . S
O515 Tb512 2.453 . S
O515 C531 1.245 1_655 S
O516 Tb512 2.596 1_455 S
O516 Tb514 2.343 . S
O516 C531 1.259 . S
O517 Tb512 2.374 . S
O517 C513 1.251 1_655 S
C518 O522 1.275 . S
C518 O523 1.246 . S
O519 C513 1.263 . S
O519 Tb514 2.353 . S
C520 O524 1.245 1_655 S
C520 O525 1.259 . S
C521 O526 1.250 1_655 S
C521 O527 1.263 . S
O522 Tb514 2.427 . S
O522 C518 1.275 . S
O523 Tb514 2.513 . S
O523 C518 1.246 . S
O524 Tb514 2.453 . S
O524 C520 1.245 1_455 S
O525 Tb512 2.343 . S
O525 Tb514 2.596 1_655 S
O525 C520 1.259 . S
O526 Tb514 2.374 . S
O526 C521 1.250 1_455 S
O527 Tb512 2.353 . S
O527 C521 1.263 . S
C528 O529 1.275 . S
C528 O530 1.246 . S
O529 Tb512 2.427 . S
O529 C528 1.275 . S
O530 Tb512 2.513 . S
O530 C528 1.246 . S
C531 O515 1.245 1_455 S
C531 O516 1.259 . S
Tb532 O535 2.453 . S
Tb532 O536 2.596 . S
Tb532 O537 2.374 . S
Tb532 O545 2.343 . S
Tb532 O547 2.353 . S
Tb532 O549 2.427 . S
Tb532 O550 2.513 . S
C533 O537 1.251 . S
C533 O539 1.263 . S
Tb534 O536 2.343 . S
Tb534 O539 2.353 . S
Tb534 O542 2.427 . S
Tb534 O543 2.513 . S
Tb534 O544 2.453 . S
Tb534 O545 2.596 . S
Tb534 O546 2.374 . S
O535 Tb532 2.453 . S
O535 C551 1.245 . S
O536 Tb532 2.596 . S
O536 Tb534 2.343 . S
O536 C551 1.259 . S
O537 Tb532 2.374 . S
O537 C533 1.251 . S
C538 O542 1.275 . S
C538 O543 1.246 . S
O539 C533 1.263 . S
O539 Tb534 2.353 . S
C540 O544 1.245 . S
C540 O545 1.259 . S
C541 O546 1.250 . S
C541 O547 1.263 . S
O542 Tb534 2.427 . S
O542 C538 1.275 . S
O543 Tb534 2.513 . S
O543 C538 1.246 . S
O544 Tb534 2.453 . S
O544 C540 1.245 . S
O545 Tb532 2.343 . S
O545 Tb534 2.596 . S
O545 C540 1.259 . S
O546 Tb534 2.374 . S
O546 C541 1.250 . S
O547 Tb532 2.353 . S
O547 C541 1.263 . S
C548 O549 1.275 . S
C548 O550 1.246 . S
O549 Tb532 2.427 . S
O549 C548 1.275 . S
O550 Tb532 2.513 . S
O550 C548 1.246 . S
C551 O535 1.245 . S
C551 O536 1.259 . S
Tb552 O555 2.453 . S
Tb552 O556 2.596 . S
Tb552 O557 2.374 . S
Tb552 O565 2.343 . S
Tb552 O567 2.353 . S
Tb552 O569 2.427 . S
Tb552 O570 2.513 . S
C553 O557 1.251 . S
C553 O559 1.263 . S
Tb554 O556 2.343 . S
Tb554 O559 2.353 . S
Tb554 O562 2.427 . S
Tb554 O563 2.513 . S
Tb554 O564 2.453 . S
Tb554 O565 2.596 . S
Tb554 O566 2.374 . S
O555 Tb552 2.453 . S
O555 C571 1.245 . S
O556 Tb552 2.596 . S
O556 Tb554 2.343 . S
O556 C571 1.259 . S
O557 Tb552 2.374 . S
O557 C553 1.251 . S
C558 O562 1.275 . S
C558 O563 1.246 . S
O559 C553 1.263 . S
O559 Tb554 2.353 . S
C560 O564 1.245 . S
C560 O565 1.259 . S
C561 O566 1.250 . S
C561 O567 1.263 . S
O562 Tb554 2.427 . S
O562 C558 1.275 . S
O563 Tb554 2.513 . S
O563 C558 1.246 . S
O564 Tb554 2.453 . S
O564 C560 1.245 . S
O565 Tb552 2.343 . S
O565 Tb554 2.596 . S
O565 C560 1.259 . S
O566 Tb554 2.374 . S
O566 C561 1.250 . S
O567 Tb552 2.353 . S
O567 C561 1.263 . S
C568 O569 1.275 . S
C568 O570 1.246 . S
O569 Tb552 2.427 . S
O569 C568 1.275 . S
O570 Tb552 2.513 . S
O570 C568 1.246 . S
C571 O555 1.245 . S
C571 O556 1.259 . S
Tb572 O575 2.453 . S
Tb572 O576 2.596 . S
Tb572 O577 2.374 . S
Tb572 O585 2.343 . S
Tb572 O587 2.353 . S
Tb572 O589 2.427 . S
Tb572 O590 2.513 . S
C573 O577 1.251 . S
C573 O579 1.263 . S
Tb574 O576 2.343 . S
Tb574 O579 2.353 . S
Tb574 O582 2.427 . S
Tb574 O583 2.513 . S
Tb574 O584 2.453 . S
Tb574 O585 2.596 . S
Tb574 O586 2.374 . S
O575 Tb572 2.453 . S
O575 C591 1.245 . S
O576 Tb572 2.596 . S
O576 Tb574 2.343 . S
O576 C591 1.259 . S
O577 Tb572 2.374 . S
O577 C573 1.251 . S
C578 O582 1.275 . S
C578 O583 1.246 . S
O579 C573 1.263 . S
O579 Tb574 2.353 . S
C580 O584 1.245 . S
C580 O585 1.259 . S
C581 O586 1.250 . S
C581 O587 1.263 . S
O582 Tb574 2.427 . S
O582 C578 1.275 . S
O583 Tb574 2.513 . S
O583 C578 1.246 . S
O584 Tb574 2.453 . S
O584 C580 1.245 . S
O585 Tb572 2.343 . S
O585 Tb574 2.596 . S
O585 C580 1.259 . S
O586 Tb574 2.374 . S
O586 C581 1.250 . S
O587 Tb572 2.353 . S
O587 C581 1.263 . S
C588 O589 1.275 . S
C588 O590 1.246 . S
O589 Tb572 2.427 . S
O589 C588 1.275 . S
O590 Tb572 2.513 . S
O590 C588 1.246 . S
C591 O575 1.245 . S
C591 O576 1.259 . S
Tb592 O595 2.453 . S
Tb592 O596 2.596 . S
Tb592 O597 2.374 . S
Tb592 O605 2.343 . S
Tb592 O607 2.353 . S
Tb592 O609 2.427 . S
Tb592 O610 2.513 . S
C593 O597 1.251 . S
C593 O599 1.263 . S
Tb594 O596 2.343 . S
Tb594 O599 2.353 . S
Tb594 O602 2.427 . S
Tb594 O603 2.513 . S
Tb594 O604 2.453 . S
Tb594 O605 2.596 . S
Tb594 O606 2.374 . S
O595 Tb592 2.453 . S
O595 C611 1.245 . S
O596 Tb592 2.596 . S
O596 Tb594 2.343 . S
O596 C611 1.259 . S
O597 Tb592 2.374 . S
O597 C593 1.251 . S
C598 O602 1.275 . S
C598 O603 1.246 . S
O599 C593 1.263 . S
O599 Tb594 2.353 . S
C600 O604 1.245 . S
C600 O605 1.259 . S
C601 O606 1.250 . S
C601 O607 1.263 . S
O602 Tb594 2.427 . S
O602 C598 1.275 . S
O603 Tb594 2.513 . S
O603 C598 1.246 . S
O604 Tb594 2.453 . S
O604 C600 1.245 . S
O605 Tb592 2.343 . S
O605 Tb594 2.596 . S
O605 C600 1.259 . S
O606 Tb594 2.374 . S
O606 C601 1.250 . S
O607 Tb592 2.353 . S
O607 C601 1.263 . S
C608 O609 1.275 . S
C608 O610 1.246 . S
O609 Tb592 2.427 . S
O609 C608 1.275 . S
O610 Tb592 2.513 . S
O610 C608 1.246 . S
C611 O595 1.245 . S
C611 O596 1.259 . S
Tb612 O615 2.453 . S
Tb612 O616 2.596 1_455 S
Tb612 O617 2.374 . S
Tb612 O625 2.343 . S
Tb612 O627 2.353 1_554 S
Tb612 O629 2.427 1_554 S
Tb612 O630 2.513 . S
C613 O617 1.251 . S
C613 O619 1.263 1_455 S
Tb614 O616 2.343 . S
Tb614 O619 2.353 . S
Tb614 O622 2.427 . S
Tb614 O623 2.513 . S
Tb614 O624 2.453 . S
Tb614 O625 2.596 1_655 S
Tb614 O626 2.374 1_554 S
O615 Tb612 2.453 . S
O615 C631 1.245 . S
O616 Tb612 2.596 1_655 S
O616 Tb614 2.343 . S
O616 C631 1.259 1_655 S
O617 Tb612 2.374 . S
O617 C613 1.251 . S
C618 O622 1.275 . S
C618 O623 1.246 . S
O619 C613 1.263 1_655 S
O619 Tb614 2.353 . S
C620 O624 1.245 . S
C620 O625 1.259 1_655 S
C621 O626 1.250 . S
C621 O627 1.263 1_655 S
O622 Tb614 2.427 . S
O622 C618 1.275 . S
O623 Tb614 2.513 . S
O623 C618 1.246 . S
O624 Tb614 2.453 . S
O624 C620 1.245 . S
O625 Tb612 2.343 . S
O625 Tb614 2.596 1_455 S
O625 C620 1.259 1_455 S
O626 Tb614 2.374 1_556 S
O626 C621 1.250 . S
O627 Tb612 2.353 1_556 S
O627 C621 1.263 1_455 S
C628 O629 1.275 1_554 S
C628 O630 1.246 . S
O629 Tb612 2.427 1_556 S
O629 C628 1.275 1_556 S
O630 Tb612 2.513 . S
O630 C628 1.246 . S
C631 O615 1.245 . S
C631 O616 1.259 1_455 S
C632 C633 1.369 . S
C632 C634 1.419 . S
C632 H636 0.930 . S
C633 C632 1.369 . S
C633 C642 1.429 . S
C634 C632 1.419 . S
C634 C635 1.363 . S
C634 H637 0.929 1_556 S
C635 C634 1.363 . S
C635 C641 1.428 . S
H636 C632 0.930 . S
H637 C634 0.929 1_554 S
S638 N639 1.613 . S
S638 N640 1.610 . S
N639 S638 1.613 . S
N639 C642 1.350 . S
N640 S638 1.610 . S
N640 C641 1.351 . S
C641 C635 1.428 . S
C641 N640 1.351 . S
C641 C642 1.434 . S
C642 C633 1.429 . S
C642 N639 1.350 . S
C642 C641 1.434 . S
C643 C644 1.369 . S
C643 C645 1.419 . S
C643 H647 0.930 . S
C644 C643 1.369 . S
C644 C653 1.429 . S
C645 C643 1.419 . S
C645 C646 1.363 . S
C645 H648 0.929 . S
C646 C645 1.363 . S
C646 C652 1.428 . S
H647 C643 0.930 . S
H648 C645 0.929 . S
S649 N650 1.613 . S
S649 N651 1.610 . S
N650 S649 1.613 . S
N650 C653 1.350 . S
N651 S649 1.610 . S
N651 C652 1.351 . S
C652 C646 1.428 . S
C652 N651 1.351 . S
C652 C653 1.434 . S
C653 C644 1.429 . S
C653 N650 1.350 . S
C653 C652 1.434 . S
C654 C655 1.369 . S
C654 C656 1.419 . S
C654 H658 0.930 . S
C655 C654 1.369 . S
C655 C664 1.429 . S
C656 C654 1.419 . S
C656 C657 1.363 . S
C656 H659 0.929 . S
C657 C656 1.363 . S
C657 C663 1.428 . S
H658 C654 0.930 . S
H659 C656 0.929 . S
S660 N661 1.613 . S
S660 N662 1.610 . S
N661 S660 1.613 . S
N661 C664 1.350 . S
N662 S660 1.610 . S
N662 C663 1.351 . S
C663 C657 1.428 . S
C663 N662 1.351 . S
C663 C664 1.434 . S
C664 C655 1.429 . S
C664 N661 1.350 . S
C664 C663 1.434 . S
C665 C666 1.369 . S
C665 C667 1.419 . S
C665 H669 0.930 . S
C666 C665 1.369 . S
C666 C675 1.429 . S
C667 C665 1.419 . S
C667 C668 1.363 . S
C667 H670 0.929 . S
C668 C667 1.363 . S
C668 C674 1.428 . S
H669 C665 0.930 . S
H670 C667 0.929 . S
S671 N672 1.613 . S
S671 N673 1.610 . S
N672 S671 1.613 . S
N672 C675 1.350 . S
N673 S671 1.610 . S
N673 C674 1.351 . S
C674 C668 1.428 . S
C674 N673 1.351 . S
C674 C675 1.434 . S
C675 C666 1.429 . S
C675 N672 1.350 . S
C675 C674 1.434 . S
C676 C677 1.369 . S
C676 C678 1.419 . S
C676 H680 0.930 . S
C677 C676 1.369 . S
C677 C686 1.429 1_455 S
C678 C676 1.419 . S
C678 C679 1.363 . S
C678 H681 0.929 . S
C679 C678 1.363 . S
C679 C685 1.428 1_455 S
H680 C676 0.930 . S
H681 C678 0.929 . S
S682 N683 1.613 . S
S682 N684 1.610 . S
N683 S682 1.613 . S
N683 C686 1.350 . S
N684 S682 1.610 . S
N684 C685 1.351 . S
C685 C679 1.428 1_655 S
C685 N684 1.351 . S
C685 C686 1.434 . S
C686 C677 1.429 1_655 S
C686 N683 1.350 . S
C686 C685 1.434 . S
C687 C688 1.369 . S
C687 C689 1.419 . S
C687 H691 0.930 . S
C688 C687 1.369 . S
C688 C697 1.429 . S
C689 C687 1.419 . S
C689 C690 1.363 . S
C689 H692 0.929 . S
C690 C689 1.363 . S
C690 C696 1.428 . S
H691 C687 0.930 . S
H692 C689 0.929 . S
S693 N694 1.613 . S
S693 N695 1.610 . S
N694 S693 1.613 . S
N694 C697 1.350 . S
N695 S693 1.610 . S
N695 C696 1.351 . S
C696 C690 1.428 . S
C696 N695 1.351 . S
C696 C697 1.434 . S
C697 C688 1.429 . S
C697 N694 1.350 . S
C697 C696 1.434 . S
C698 C699 1.369 . S
C698 C700 1.419 . S
C698 H702 0.930 . S
C699 C698 1.369 . S
C699 C708 1.429 . S
C700 C698 1.419 . S
C700 C701 1.363 . S
C700 H703 0.929 . S
C701 C700 1.363 . S
C701 C707 1.428 . S
H702 C698 0.930 . S
H703 C700 0.929 . S
S704 N705 1.613 . S
S704 N706 1.610 . S
N705 S704 1.613 . S
N705 C708 1.350 . S
N706 S704 1.610 . S
N706 C707 1.351 . S
C707 C701 1.428 . S
C707 N706 1.351 . S
C707 C708 1.434 . S
C708 C699 1.429 . S
C708 N705 1.350 . S
C708 C707 1.434 . S
C709 C710 1.369 . S
C709 C711 1.419 . S
C709 H713 0.930 . S
C710 C709 1.369 . S
C710 C719 1.429 . S
C711 C709 1.419 . S
C711 C712 1.363 . S
C711 H714 0.929 . S
C712 C711 1.363 . S
C712 C718 1.428 . S
H713 C709 0.930 . S
H714 C711 0.929 . S
S715 N716 1.613 . S
S715 N717 1.610 . S
N716 S715 1.613 . S
N716 C719 1.350 . S
N717 S715 1.610 . S
N717 C718 1.351 . S
C718 C712 1.428 . S
C718 N717 1.351 . S
C718 C719 1.434 . S
C719 C710 1.429 . S
C719 N716 1.350 . S
C719 C718 1.434 . S
C720 C721 1.369 . S
C720 C722 1.419 . S
C720 H724 0.930 . S
C721 C720 1.369 . S
C721 C730 1.429 . S
C722 C720 1.419 . S
C722 C723 1.363 . S
C722 H725 0.929 . S
C723 C722 1.363 . S
C723 C729 1.428 . S
H724 C720 0.930 . S
H725 C722 0.929 . S
S726 N727 1.613 1_565 S
S726 N728 1.610 1_565 S
N727 S726 1.613 1_545 S
N727 C730 1.350 . S
N728 S726 1.610 1_545 S
N728 C729 1.351 . S
C729 C723 1.428 . S
C729 N728 1.351 . S
C729 C730 1.434 . S
C730 C721 1.429 . S
C730 N727 1.350 . S
C730 C729 1.434 . S
C731 C732 1.369 . S
C731 C733 1.419 . S
C731 H735 0.930 . S
C732 C731 1.369 . S
C732 C741 1.429 . S
C733 C731 1.419 . S
C733 C734 1.363 . S
C733 H736 0.929 . S
C734 C733 1.363 . S
C734 C740 1.428 . S
H735 C731 0.930 . S
H736 C733 0.929 . S
S737 N738 1.613 . S
S737 N739 1.610 . S
N738 S737 1.613 . S
N738 C741 1.350 . S
N739 S737 1.610 . S
N739 C740 1.351 . S
C740 C734 1.428 . S
C740 N739 1.351 . S
C740 C741 1.434 . S
C741 C732 1.429 . S
C741 N738 1.350 . S
C741 C740 1.434 . S
C742 C743 1.369 1_545 S
C742 C744 1.419 . S
C742 H746 0.930 . S
C743 C742 1.369 1_565 S
C743 C752 1.429 . S
C744 C742 1.419 . S
C744 C745 1.363 . S
C744 H747 0.929 . S
C745 C744 1.363 . S
C745 C751 1.428 1_545 S
H746 C742 0.930 . S
H747 C744 0.929 . S
S748 N749 1.613 . S
S748 N750 1.610 . S
N749 S748 1.613 . S
N749 C752 1.350 . S
N750 S748 1.610 . S
N750 C751 1.351 . S
C751 C745 1.428 1_565 S
C751 N750 1.351 . S
C751 C752 1.434 . S
C752 C743 1.429 . S
C752 N749 1.350 . S
C752 C751 1.434 . S
C753 C754 1.369 . S
C753 C755 1.419 . S
C753 H757 0.930 . S
C754 C753 1.369 . S
C754 C763 1.429 . S
C755 C753 1.419 . S
C755 C756 1.363 . S
C755 H758 0.929 . S
C756 C755 1.363 . S
C756 C762 1.428 . S
H757 C753 0.930 . S
H758 C755 0.929 . S
S759 N760 1.613 . S
S759 N761 1.610 . S
N760 S759 1.613 . S
N760 C763 1.350 . S
N761 S759 1.610 . S
N761 C762 1.351 . S
C762 C756 1.428 . S
C762 N761 1.351 . S
C762 C763 1.434 . S
C763 C754 1.429 . S
C763 N760 1.350 . S
C763 C762 1.434 . S
C764 C765 1.369 . S
C764 C766 1.419 . S
C764 H768 0.930 . S
C765 C764 1.369 . S
C765 C774 1.429 . S
C766 C764 1.419 . S
C766 C767 1.363 . S
C766 H769 0.928 . S
C767 C766 1.363 . S
C767 C773 1.428 . S
H768 C764 0.930 . S
H769 C766 0.928 . S
S770 N771 1.613 1_455 S
S770 N772 1.610 . S
N771 S770 1.613 1_655 S
N771 C774 1.350 . S
N772 S770 1.610 . S
N772 C773 1.351 1_455 S
C773 C767 1.428 . S
C773 N772 1.351 1_655 S
C773 C774 1.434 . S
C774 C765 1.429 . S
C774 N771 1.350 . S
C774 C773 1.434 . S
C775 C776 1.369 . S
C775 C777 1.419 . S
C775 H779 0.930 . S
C776 C775 1.369 . S
C776 C785 1.429 . S
C777 C775 1.419 . S
C777 C778 1.363 . S
C777 H780 0.929 . S
C778 C777 1.363 . S
C778 C784 1.428 . S
H779 C775 0.930 . S
H780 C777 0.929 . S
S781 N782 1.613 . S
S781 N783 1.610 . S
N782 S781 1.613 . S
N782 C785 1.350 . S
N783 S781 1.610 . S
N783 C784 1.351 . S
C784 C778 1.428 . S
C784 N783 1.351 . S
C784 C785 1.434 . S
C785 C776 1.429 . S
C785 N782 1.350 . S
C785 C784 1.434 . S
C786 C787 1.369 . S
C786 C788 1.419 . S
C786 H790 0.930 . S
C787 C786 1.369 . S
C787 C796 1.429 . S
C788 C786 1.419 . S
C788 C789 1.363 . S
C788 H791 0.929 . S
C789 C788 1.363 . S
C789 C795 1.428 . S
H790 C786 0.930 . S
H791 C788 0.929 . S
S792 N793 1.613 . S
S792 N794 1.610 . S
N793 S792 1.613 . S
N793 C796 1.350 . S
N794 S792 1.610 . S
N794 C795 1.351 . S
C795 C789 1.428 . S
C795 N794 1.351 . S
C795 C796 1.434 . S
C796 C787 1.429 . S
C796 N793 1.350 . S
C796 C795 1.434 . S
C797 C798 1.369 . S
C797 C799 1.419 . S
C797 H801 0.930 . S
C798 C797 1.369 . S
C798 C807 1.429 . S
C799 C797 1.419 . S
C799 C800 1.363 . S
C799 H802 0.929 . S
C800 C799 1.363 . S
C800 C806 1.428 . S
H801 C797 0.930 . S
H802 C799 0.929 . S
S803 N804 1.613 . S
S803 N805 1.610 . S
N804 S803 1.613 . S
N804 C807 1.350 . S
N805 S803 1.610 . S
N805 C806 1.351 . S
C806 C800 1.428 . S
C806 N805 1.351 . S
C806 C807 1.434 . S
C807 C798 1.429 . S
C807 N804 1.350 . S
C807 C806 1.434 . S
C808 C809 1.369 . S
C808 C810 1.419 . S
C808 H812 0.930 . S
C809 C808 1.369 . S
C809 C818 1.429 . S
C810 C808 1.419 . S
C810 C811 1.363 . S
C810 H813 0.929 1_565 S
C811 C810 1.363 . S
C811 C817 1.428 . S
H812 C808 0.930 . S
H813 C810 0.929 1_545 S
S814 N815 1.613 . S
S814 N816 1.610 . S
N815 S814 1.613 . S
N815 C818 1.350 . S
N816 S814 1.610 . S
N816 C817 1.351 . S
C817 C811 1.428 . S
C817 N816 1.351 . S
C817 C818 1.434 . S
C818 C809 1.429 . S
C818 N815 1.350 . S
C818 C817 1.434 . S
C819 C820 1.369 . S
C819 C821 1.419 . S
C819 H823 0.930 . S
C820 C819 1.369 . S
C820 C829 1.429 . S
C821 C819 1.419 . S
C821 C822 1.363 . S
C821 H824 0.929 . S
C822 C821 1.363 . S
C822 C828 1.428 . S
H823 C819 0.930 . S
H824 C821 0.929 . S
S825 N826 1.606 1_554 S
S825 N827 1.615 1_554 S
N826 S825 1.606 1_556 S
N826 C829 1.350 . S
N827 S825 1.615 1_556 S
N827 C828 1.356 . S
C828 C822 1.428 . S
C828 N827 1.356 . S
C828 C829 1.434 . S
C829 C820 1.429 . S
C829 N826 1.350 . S
C829 C828 1.434 . S
C830 C831 1.369 . S
C830 C832 1.419 . S
C830 H834 0.930 . S
C831 C830 1.369 . S
C831 C840 1.429 . S
C832 C830 1.419 . S
C832 C833 1.363 . S
C832 H835 0.929 . S
C833 C832 1.363 . S
C833 C839 1.428 . S
H834 C830 0.930 . S
H835 C832 0.929 . S
S836 N837 1.613 . S
S836 N838 1.610 . S
N837 S836 1.613 . S
N837 C840 1.350 . S
N838 S836 1.610 . S
N838 C839 1.351 . S
C839 C833 1.428 . S
C839 N838 1.351 . S
C839 C840 1.434 . S
C840 C831 1.429 . S
C840 N837 1.350 . S
C840 C839 1.434 . S
C841 C842 1.369 . S
C841 C843 1.419 . S
C841 H845 0.930 . S
C842 C841 1.369 . S
C842 C851 1.429 . S
C843 C841 1.419 . S
C843 C844 1.363 . S
C843 H846 0.929 . S
C844 C843 1.363 . S
C844 C850 1.428 . S
H845 C841 0.930 . S
H846 C843 0.929 . S
S847 N848 1.613 . S
S847 N849 1.610 . S
N848 S847 1.613 . S
N848 C851 1.350 . S
N849 S847 1.610 . S
N849 C850 1.351 . S
C850 C844 1.428 . S
C850 N849 1.351 . S
C850 C851 1.434 . S
C851 C842 1.429 . S
C851 N848 1.350 . S
C851 C850 1.434 . S
C852 C853 1.369 . S
C852 C854 1.419 . S
C852 H856 0.930 . S
C853 C852 1.369 . S
C853 C862 1.429 . S
C854 C852 1.419 . S
C854 C855 1.363 . S
C854 H857 0.929 . S
C855 C854 1.363 . S
C855 C861 1.428 . S
H856 C852 0.930 . S
H857 C854 0.929 . S
S858 N859 1.613 . S
S858 N860 1.610 . S
N859 S858 1.613 . S
N859 C862 1.350 . S
N860 S858 1.610 . S
N860 C861 1.351 . S
C861 C855 1.428 . S
C861 N860 1.351 . S
C861 C862 1.434 . S
C862 C853 1.429 . S
C862 N859 1.350 . S
C862 C861 1.434 . S
C863 C864 1.369 . S
C863 C865 1.419 . S
C863 H867 0.930 . S
C864 C863 1.369 . S
C864 C873 1.429 . S
C865 C863 1.419 . S
C865 C866 1.363 . S
C865 H868 0.929 . S
C866 C865 1.363 . S
C866 C872 1.428 . S
H867 C863 0.930 . S
H868 C865 0.929 . S
S869 N870 1.613 . S
S869 N871 1.610 . S
N870 S869 1.613 . S
N870 C873 1.350 . S
N871 S869 1.610 . S
N871 C872 1.351 . S
C872 C866 1.428 . S
C872 N871 1.351 . S
C872 C873 1.434 . S
C873 C864 1.429 . S
C873 N870 1.350 . S
C873 C872 1.434 . S
C874 C875 1.369 . S
C874 C876 1.419 . S
C874 H878 0.930 . S
C875 C874 1.369 . S
C875 C884 1.429 . S
C876 C874 1.419 . S
C876 C877 1.363 . S
C876 H879 0.929 . S
C877 C876 1.363 . S
C877 C883 1.428 . S
H878 C874 0.930 . S
H879 C876 0.929 . S
S880 N881 1.613 . S
S880 N882 1.610 . S
N881 S880 1.613 . S
N881 C884 1.350 . S
N882 S880 1.610 . S
N882 C883 1.351 . S
C883 C877 1.428 . S
C883 N882 1.351 . S
C883 C884 1.434 . S
C884 C875 1.429 . S
C884 N881 1.350 . S
C884 C883 1.434 . S
C885 C886 1.369 . S
C885 C887 1.419 . S
C885 H889 0.930 . S
C886 C885 1.369 . S
C886 C895 1.429 . S
C887 C885 1.419 . S
C887 C888 1.363 . S
C887 H890 0.929 . S
C888 C887 1.363 . S
C888 C894 1.428 . S
H889 C885 0.930 . S
H890 C887 0.929 . S
S891 N892 1.613 . S
S891 N893 1.610 . S
N892 S891 1.613 . S
N892 C895 1.350 . S
N893 S891 1.610 . S
N893 C894 1.351 . S
C894 C888 1.428 . S
C894 N893 1.351 . S
C894 C895 1.434 . S
C895 C886 1.429 . S
C895 N892 1.350 . S
C895 C894 1.434 . S
C896 C897 1.369 . S
C896 C898 1.419 . S
C896 H900 0.930 . S
C897 C896 1.369 . S
C897 C906 1.429 . S
C898 C896 1.419 . S
C898 C899 1.363 . S
C898 H901 0.929 . S
C899 C898 1.363 . S
C899 C905 1.428 . S
H900 C896 0.930 . S
H901 C898 0.929 . S
S902 N903 1.613 . S
S902 N904 1.610 . S
N903 S902 1.613 . S
N903 C906 1.350 1_655 S
N904 S902 1.610 . S
N904 C905 1.351 1_655 S
C905 C899 1.428 . S
C905 N904 1.351 1_455 S
C905 C906 1.434 . S
C906 C897 1.429 . S
C906 N903 1.350 1_455 S
C906 C905 1.434 . S
C907 C908 1.369 . S
C907 C909 1.419 . S
C907 H911 0.930 . S
C908 C907 1.369 . S
C908 C917 1.429 . S
C909 C907 1.419 . S
C909 C910 1.363 . S
C909 H912 0.929 . S
C910 C909 1.363 . S
C910 C916 1.428 . S
H911 C907 0.930 . S
H912 C909 0.929 . S
S913 N914 1.613 . S
S913 N915 1.610 . S
N914 S913 1.613 . S
N914 C917 1.350 . S
N915 S913 1.610 . S
N915 C916 1.351 . S
C916 C910 1.428 . S
C916 N915 1.351 . S
C916 C917 1.434 . S
C917 C908 1.429 . S
C917 N914 1.350 . S
C917 C916 1.434 . S
C918 C919 1.369 . S
C918 C920 1.419 . S
C918 H922 0.930 . S
C919 C918 1.369 . S
C919 C928 1.429 . S
C920 C918 1.419 . S
C920 C921 1.363 . S
C920 H923 0.929 . S
C921 C920 1.363 . S
C921 C927 1.428 . S
H922 C918 0.930 . S
H923 C920 0.929 . S
S924 N925 1.613 . S
S924 N926 1.610 . S
N925 S924 1.613 . S
N925 C928 1.350 . S
N926 S924 1.610 . S
N926 C927 1.351 . S
C927 C921 1.428 . S
C927 N926 1.351 . S
C927 C928 1.434 . S
C928 C919 1.429 . S
C928 N925 1.350 . S
C928 C927 1.434 . S
C929 C930 1.369 . S
C929 C931 1.419 . S
C929 H933 0.930 . S
C930 C929 1.369 . S
C930 C939 1.429 . S
C931 C929 1.419 . S
C931 C932 1.363 . S
C931 H934 0.929 . S
C932 C931 1.363 . S
C932 C938 1.428 . S
H933 C929 0.930 . S
H934 C931 0.929 . S
S935 N936 1.613 . S
S935 N937 1.610 . S
N936 S935 1.613 . S
N936 C939 1.350 . S
N937 S935 1.610 . S
N937 C938 1.351 . S
C938 C932 1.428 . S
C938 N937 1.351 . S
C938 C939 1.434 . S
C939 C930 1.429 . S
C939 N936 1.350 . S
C939 C938 1.434 . S
C940 C941 1.369 . S
C940 C942 1.419 . S
C940 H944 0.930 . S
C941 C940 1.369 . S
C941 C950 1.432 . S
C942 C940 1.419 . S
C942 C943 1.363 . S
C942 H945 0.929 . S
C943 C942 1.363 . S
C943 C949 1.428 1_455 S
H944 C940 0.930 . S
H945 C942 0.929 . S
S946 N947 1.613 . S
S946 N948 1.610 . S
N947 S946 1.613 . S
N947 C950 1.347 1_655 S
N948 S946 1.610 . S
N948 C949 1.351 . S
C949 C943 1.428 1_655 S
C949 N948 1.351 . S
C949 C950 1.434 1_655 S
C950 C941 1.432 . S
C950 N947 1.347 1_455 S
C950 C949 1.434 1_455 S
C951 C952 1.369 . S
C951 C953 1.419 . S
C951 H955 0.930 . S
C952 C951 1.369 . S
C952 C961 1.429 . S
C953 C951 1.419 . S
C953 C954 1.363 . S
C953 H956 0.929 . S
C954 C953 1.363 . S
C954 C960 1.428 . S
H955 C951 0.930 . S
H956 C953 0.929 . S
S957 N958 1.613 . S
S957 N959 1.610 . S
N958 S957 1.613 . S
N958 C961 1.350 . S
N959 S957 1.610 . S
N959 C960 1.351 . S
C960 C954 1.428 . S
C960 N959 1.351 . S
C960 C961 1.434 . S
C961 C952 1.429 . S
C961 N958 1.350 . S
C961 C960 1.434 . S
C962 C963 1.369 . S
C962 C964 1.419 . S
C962 H966 0.930 . S
C963 C962 1.369 . S
C963 C972 1.429 . S
C964 C962 1.419 . S
C964 C965 1.363 . S
C964 H967 0.929 1_556 S
C965 C964 1.363 . S
C965 C971 1.428 . S
H966 C962 0.930 . S
H967 C964 0.929 1_554 S
S968 N969 1.613 . S
S968 N970 1.610 . S
N969 S968 1.613 . S
N969 C972 1.350 . S
N970 S968 1.610 . S
N970 C971 1.351 . S
C971 C965 1.428 . S
C971 N970 1.351 . S
C971 C972 1.434 . S
C972 C963 1.429 . S
C972 N969 1.350 . S
C972 C971 1.434 . S
C973 C974 1.369 . S
C973 C975 1.419 . S
C973 H977 0.930 . S
C974 C973 1.369 . S
C974 C983 1.429 . S
C975 C973 1.419 . S
C975 C976 1.363 . S
C975 H978 0.929 . S
C976 C975 1.363 . S
C976 C982 1.428 . S
H977 C973 0.930 . S
H978 C975 0.929 . S
S979 N980 1.613 . S
S979 N981 1.610 . S
N980 S979 1.613 . S
N980 C983 1.350 . S
N981 S979 1.610 . S
N981 C982 1.351 . S
C982 C976 1.428 . S
C982 N981 1.351 . S
C982 C983 1.434 . S
C983 C974 1.429 . S
C983 N980 1.350 . S
C983 C982 1.434 . S
C984 C985 1.369 . S
C984 C986 1.419 . S
C984 H988 0.930 . S
C985 C984 1.369 . S
C985 C994 1.429 1_545 S
C986 C984 1.419 . S
C986 C987 1.363 . S
C986 H989 0.929 . S
C987 C986 1.363 . S
C987 C993 1.428 . S
H988 C984 0.930 . S
H989 C986 0.929 . S
S990 N991 1.613 . S
S990 N992 1.610 . S
N991 S990 1.613 . S
N991 C994 1.350 . S
N992 S990 1.610 . S
N992 C993 1.351 1_565 S
C993 C987 1.428 . S
C993 N992 1.351 1_545 S
C993 C994 1.434 1_545 S
C994 C985 1.429 1_565 S
C994 N991 1.350 . S
C994 C993 1.434 1_565 S
C995 C996 1.369 . S
C995 C997 1.419 . S
C995 H999 0.930 . S
C996 C995 1.369 . S
C996 C1005 1.429 . S
C997 C995 1.419 . S
C997 C998 1.363 . S
C997 H1000 0.929 . S
C998 C997 1.363 . S
C998 C1004 1.428 . S
H999 C995 0.930 . S
H1000 C997 0.929 . S
S1001 N1002 1.613 . S
S1001 N1003 1.610 . S
N1002 S1001 1.613 . S
N1002 C1005 1.350 . S
N1003 S1001 1.610 . S
N1003 C1004 1.351 . S
C1004 C998 1.428 . S
C1004 N1003 1.351 . S
C1004 C1005 1.434 . S
C1005 C996 1.429 . S
C1005 N1002 1.350 . S
C1005 C1004 1.434 . S
C1006 C1007 1.369 . S
C1006 C1008 1.419 . S
C1006 H1010 0.930 . S
C1007 C1006 1.369 . S
C1007 C1016 1.429 . S
C1008 C1006 1.419 . S
C1008 C1009 1.363 . S
C1008 H1011 0.929 . S
C1009 C1008 1.363 . S
C1009 C1015 1.428 . S
H1010 C1006 0.930 . S
H1011 C1008 0.929 . S
S1012 N1013 1.613 . S
S1012 N1014 1.610 . S
N1013 S1012 1.613 . S
N1013 C1016 1.350 . S
N1014 S1012 1.610 . S
N1014 C1015 1.351 . S
C1015 C1009 1.428 . S
C1015 N1014 1.351 . S
C1015 C1016 1.434 . S
C1016 C1007 1.429 . S
C1016 N1013 1.350 . S
C1016 C1015 1.434 . S
C1017 C1018 1.369 . S
C1017 C1019 1.419 . S
C1017 H1021 0.930 . S
C1018 C1017 1.369 . S
C1018 C1027 1.429 . S
C1019 C1017 1.419 . S
C1019 C1020 1.363 . S
C1019 H1022 0.929 . S
C1020 C1019 1.363 . S
C1020 C1026 1.428 . S
H1021 C1017 0.930 . S
H1022 C1019 0.929 . S
S1023 N1024 1.613 . S
S1023 N1025 1.610 . S
N1024 S1023 1.613 . S
N1024 C1027 1.350 . S
N1025 S1023 1.610 . S
N1025 C1026 1.351 . S
C1026 C1020 1.428 . S
C1026 N1025 1.351 . S
C1026 C1027 1.434 . S
C1027 C1018 1.429 . S
C1027 N1024 1.350 . S
C1027 C1026 1.434 . S
C1028 C1029 1.369 . S
C1028 C1030 1.419 . S
C1028 H1032 0.930 . S
C1029 C1028 1.369 . S
C1029 C1038 1.429 1_565 S
C1030 C1028 1.419 . S
C1030 C1031 1.363 1_565 S
C1030 H1033 0.929 . S
C1031 C1030 1.363 1_545 S
C1031 C1037 1.428 . S
H1032 C1028 0.930 . S
H1033 C1030 0.929 . S
S1034 N1035 1.613 . S
S1034 N1036 1.610 . S
N1035 S1034 1.613 . S
N1035 C1038 1.350 . S
N1036 S1034 1.610 . S
N1036 C1037 1.351 . S
C1037 C1031 1.428 . S
C1037 N1036 1.351 . S
C1037 C1038 1.434 . S
C1038 C1029 1.429 1_545 S
C1038 N1035 1.350 . S
C1038 C1037 1.434 . S
C1039 C1040 1.369 . S
C1039 C1041 1.419 . S
C1039 H1043 0.930 . S
C1040 C1039 1.369 . S
C1040 C1049 1.429 . S
C1041 C1039 1.419 . S
C1041 C1042 1.363 . S
C1041 H1044 0.929 . S
C1042 C1041 1.363 . S
C1042 C1048 1.428 . S
H1043 C1039 0.930 . S
H1044 C1041 0.929 . S
S1045 N1046 1.613 . S
S1045 N1047 1.610 . S
N1046 S1045 1.613 . S
N1046 C1049 1.350 . S
N1047 S1045 1.610 . S
N1047 C1048 1.351 . S
C1048 C1042 1.428 . S
C1048 N1047 1.351 . S
C1048 C1049 1.434 . S
C1049 C1040 1.429 . S
C1049 N1046 1.350 . S
C1049 C1048 1.434 . S
C1050 C1051 1.369 . S
C1050 C1052 1.419 . S
C1050 H1054 0.930 . S
C1051 C1050 1.369 . S
C1051 C1060 1.429 . S
C1052 C1050 1.419 . S
C1052 C1053 1.363 . S
C1052 H1055 0.943 . S
C1053 C1052 1.363 . S
C1053 C1059 1.428 . S
H1054 C1050 0.930 . S
H1055 C1052 0.943 . S
S1056 N1057 1.613 . S
S1056 N1058 1.610 . S
N1057 S1056 1.613 . S
N1057 C1060 1.350 . S
N1058 S1056 1.610 . S
N1058 C1059 1.351 . S
C1059 C1053 1.428 . S
C1059 N1058 1.351 . S
C1059 C1060 1.434 . S
C1060 C1051 1.429 . S
C1060 N1057 1.350 . S
C1060 C1059 1.434 . S
C1061 C1062 1.369 . S
C1061 C1063 1.419 . S
C1061 H1065 0.930 . S
C1062 C1061 1.369 . S
C1062 C1071 1.429 . S
C1063 C1061 1.419 . S
C1063 C1064 1.363 . S
C1063 H1066 0.929 . S
C1064 C1063 1.363 . S
C1064 C1070 1.428 . S
H1065 C1061 0.930 . S
H1066 C1063 0.929 . S
S1067 N1068 1.613 . S
S1067 N1069 1.610 . S
N1068 S1067 1.613 . S
N1068 C1071 1.350 . S
N1069 S1067 1.610 . S
N1069 C1070 1.351 . S
C1070 C1064 1.428 . S
C1070 N1069 1.351 . S
C1070 C1071 1.434 . S
C1071 C1062 1.429 . S
C1071 N1068 1.350 . S
C1071 C1070 1.434 . S
C1072 C1073 1.369 . S
C1072 C1074 1.419 . S
C1072 H1076 0.930 . S
C1073 C1072 1.369 . S
C1073 C1082 1.429 . S
C1074 C1072 1.419 . S
C1074 C1075 1.363 . S
C1074 H1077 0.929 . S
C1075 C1074 1.363 . S
C1075 C1081 1.428 . S
H1076 C1072 0.930 . S
H1077 C1074 0.929 . S
S1078 N1079 1.613 . S
S1078 N1080 1.610 . S
N1079 S1078 1.613 . S
N1079 C1082 1.350 . S
N1080 S1078 1.610 . S
N1080 C1081 1.351 . S
C1081 C1075 1.428 . S
C1081 N1080 1.351 . S
C1081 C1082 1.434 . S
C1082 C1073 1.429 . S
C1082 N1079 1.350 . S
C1082 C1081 1.434 . S
C1083 C1084 1.369 . S
C1083 C1085 1.419 . S
C1083 H1087 0.930 . S
C1084 C1083 1.369 . S
C1084 C1093 1.429 . S
C1085 C1083 1.419 . S
C1085 C1086 1.363 . S
C1085 H1088 0.929 . S
C1086 C1085 1.363 . S
C1086 C1092 1.428 . S
H1087 C1083 0.930 . S
H1088 C1085 0.929 . S
S1089 N1090 1.613 . S
S1089 N1091 1.610 . S
N1090 S1089 1.613 . S
N1090 C1093 1.350 . S
N1091 S1089 1.610 . S
N1091 C1092 1.351 . S
C1092 C1086 1.428 . S
C1092 N1091 1.351 . S
C1092 C1093 1.434 . S
C1093 C1084 1.429 . S
C1093 N1090 1.350 . S
C1093 C1092 1.434 . S
C1094 C1095 1.369 . S
C1094 C1096 1.419 . S
C1094 H1098 0.930 . S
C1095 C1094 1.369 . S
C1095 C1104 1.429 . S
C1096 C1094 1.419 . S
C1096 C1097 1.363 . S
C1096 H1099 0.929 . S
C1097 C1096 1.363 . S
C1097 C1103 1.428 . S
H1098 C1094 0.930 . S
H1099 C1096 0.929 . S
S1100 N1101 1.613 . S
S1100 N1102 1.610 . S
N1101 S1100 1.613 . S
N1101 C1104 1.350 . S
N1102 S1100 1.610 . S
N1102 C1103 1.351 . S
C1103 C1097 1.428 . S
C1103 N1102 1.351 . S
C1103 C1104 1.434 . S
C1104 C1095 1.429 . S
C1104 N1101 1.350 . S
C1104 C1103 1.434 . S
C1105 C1106 1.369 . S
C1105 C1107 1.419 . S
C1105 H1109 0.930 . S
C1106 C1105 1.369 . S
C1106 C1115 1.429 . S
C1107 C1105 1.419 . S
C1107 C1108 1.363 . S
C1107 H1110 0.929 . S
C1108 C1107 1.363 . S
C1108 C1114 1.428 . S
H1109 C1105 0.930 . S
H1110 C1107 0.929 . S
S1111 N1112 1.613 . S
S1111 N1113 1.610 . S
N1112 S1111 1.613 . S
N1112 C1115 1.350 . S
N1113 S1111 1.610 . S
N1113 C1114 1.351 . S
C1114 C1108 1.428 . S
C1114 N1113 1.351 . S
C1114 C1115 1.434 . S
C1115 C1106 1.429 . S
C1115 N1112 1.350 . S
C1115 C1114 1.434 . S
C1116 C1117 1.369 . S
C1116 C1118 1.419 . S
C1116 H1120 0.930 . S
C1117 C1116 1.369 . S
C1117 C1126 1.429 . S
C1118 C1116 1.419 . S
C1118 C1119 1.363 . S
C1118 H1121 0.929 . S
C1119 C1118 1.363 . S
C1119 C1125 1.428 . S
H1120 C1116 0.930 . S
H1121 C1118 0.929 . S
S1122 N1123 1.613 . S
S1122 N1124 1.610 . S
N1123 S1122 1.613 . S
N1123 C1126 1.350 . S
N1124 S1122 1.610 . S
N1124 C1125 1.351 . S
C1125 C1119 1.428 . S
C1125 N1124 1.351 . S
C1125 C1126 1.434 . S
C1126 C1117 1.429 . S
C1126 N1123 1.350 . S
C1126 C1125 1.434 . S
C1127 C1128 1.369 . S
C1127 C1129 1.419 . S
C1127 H1131 0.930 . S
C1128 C1127 1.369 . S
C1128 C1137 1.429 . S
C1129 C1127 1.419 . S
C1129 C1130 1.363 . S
C1129 H1132 0.929 . S
C1130 C1129 1.363 . S
C1130 C1136 1.428 . S
H1131 C1127 0.930 . S
H1132 C1129 0.929 . S
S1133 N1134 1.613 . S
S1133 N1135 1.610 . S
N1134 S1133 1.613 . S
N1134 C1137 1.350 . S
N1135 S1133 1.610 . S
N1135 C1136 1.351 . S
C1136 C1130 1.428 . S
C1136 N1135 1.351 . S
C1136 C1137 1.434 . S
C1137 C1128 1.429 . S
C1137 N1134 1.350 . S
C1137 C1136 1.434 . S
C1138 C1139 1.369 . S
C1138 C1140 1.419 . S
C1138 H1142 0.930 . S
C1139 C1138 1.369 . S
C1139 C1148 1.429 . S
C1140 C1138 1.419 . S
C1140 C1141 1.363 . S
C1140 H1143 0.929 . S
C1141 C1140 1.363 . S
C1141 C1147 1.428 . S
H1142 C1138 0.930 . S
H1143 C1140 0.929 . S
S1144 N1145 1.613 . S
S1144 N1146 1.610 . S
N1145 S1144 1.613 . S
N1145 C1148 1.350 . S
N1146 S1144 1.610 . S
N1146 C1147 1.351 . S
C1147 C1141 1.428 . S
C1147 N1146 1.351 . S
C1147 C1148 1.434 . S
C1148 C1139 1.429 . S
C1148 N1145 1.350 . S
C1148 C1147 1.434 . S
C1149 C1150 1.369 . S
C1149 C1151 1.419 . S
C1149 H1153 0.930 . S
C1150 C1149 1.369 . S
C1150 C1159 1.429 . S
C1151 C1149 1.419 . S
C1151 C1152 1.363 . S
C1151 H1154 0.929 . S
C1152 C1151 1.363 . S
C1152 C1158 1.428 . S
H1153 C1149 0.930 . S
H1154 C1151 0.929 . S
S1155 N1156 1.613 . S
S1155 N1157 1.610 . S
N1156 S1155 1.613 . S
N1156 C1159 1.350 . S
N1157 S1155 1.610 . S
N1157 C1158 1.351 . S
C1158 C1152 1.428 . S
C1158 N1157 1.351 . S
C1158 C1159 1.434 . S
C1159 C1150 1.429 . S
C1159 N1156 1.350 . S
C1159 C1158 1.434 . S
C1160 C1161 1.369 . S
C1160 C1162 1.419 . S
C1160 H1164 0.930 . S
C1161 C1160 1.369 . S
C1161 C1170 1.429 . S
C1162 C1160 1.419 . S
C1162 C1163 1.363 . S
C1162 H1165 0.929 . S
C1163 C1162 1.363 . S
C1163 C1169 1.428 . S
H1164 C1160 0.930 . S
H1165 C1162 0.929 . S
S1166 N1167 1.613 . S
S1166 N1168 1.610 . S
N1167 S1166 1.613 . S
N1167 C1170 1.350 . S
N1168 S1166 1.610 . S
N1168 C1169 1.351 . S
C1169 C1163 1.428 . S
C1169 N1168 1.351 . S
C1169 C1170 1.434 . S
C1170 C1161 1.429 . S
C1170 N1167 1.350 . S
C1170 C1169 1.434 . S
C1171 C1172 1.369 . S
C1171 C1173 1.419 . S
C1171 H1175 0.930 . S
C1172 C1171 1.369 . S
C1172 C1181 1.429 . S
C1173 C1171 1.419 . S
C1173 C1174 1.363 . S
C1173 H1176 0.929 . S
C1174 C1173 1.363 . S
C1174 C1180 1.428 . S
H1175 C1171 0.930 . S
H1176 C1173 0.929 . S
S1177 N1178 1.613 . S
S1177 N1179 1.610 . S
N1178 S1177 1.613 . S
N1178 C1181 1.350 . S
N1179 S1177 1.610 . S
N1179 C1180 1.351 . S
C1180 C1174 1.428 . S
C1180 N1179 1.351 . S
C1180 C1181 1.434 . S
C1181 C1172 1.429 . S
C1181 N1178 1.350 . S
C1181 C1180 1.434 . S
C1182 C1183 1.369 . S
C1182 C1184 1.419 . S
C1182 H1186 0.930 . S
C1183 C1182 1.369 . S
C1183 C1192 1.429 1_455 S
C1184 C1182 1.419 . S
C1184 C1185 1.390 . S
C1184 H1187 0.929 1_556 S
C1185 C1184 1.390 . S
C1185 C1191 1.415 1_455 S
H1186 C1182 0.930 . S
H1187 C1184 0.929 1_554 S
S1188 N1189 1.613 . S
S1188 N1190 1.610 . S
N1189 S1188 1.613 . S
N1189 C1192 1.350 . S
N1190 S1188 1.610 . S
N1190 C1191 1.351 . S
C1191 C1185 1.415 1_655 S
C1191 N1190 1.351 . S
C1191 C1192 1.434 . S
C1192 C1183 1.429 1_655 S
C1192 N1189 1.350 . S
C1192 C1191 1.434 . S
C1193 C1194 1.369 . S
C1193 C1195 1.419 . S
C1193 H1197 0.930 . S
C1194 C1193 1.369 . S
C1194 C1203 1.429 . S
C1195 C1193 1.419 . S
C1195 C1196 1.363 . S
C1195 H1198 0.929 . S
C1196 C1195 1.363 . S
C1196 C1202 1.428 . S
H1197 C1193 0.930 . S
H1198 C1195 0.929 . S
S1199 N1200 1.613 . S
S1199 N1201 1.610 . S
N1200 S1199 1.613 . S
N1200 C1203 1.350 . S
N1201 S1199 1.610 . S
N1201 C1202 1.351 . S
C1202 C1196 1.428 . S
C1202 N1201 1.351 . S
C1202 C1203 1.434 . S
C1203 C1194 1.429 . S
C1203 N1200 1.350 . S
C1203 C1202 1.434 . S
C1204 C1205 1.369 . S
C1204 C1206 1.419 . S
C1204 H1208 0.930 . S
C1205 C1204 1.369 . S
C1205 C1214 1.429 . S
C1206 C1204 1.419 . S
C1206 C1207 1.363 . S
C1206 H1209 0.929 . S
C1207 C1206 1.363 . S
C1207 C1213 1.428 . S
H1208 C1204 0.930 . S
H1209 C1206 0.929 . S
S1210 N1211 1.613 . S
S1210 N1212 1.610 . S
N1211 S1210 1.613 . S
N1211 C1214 1.350 . S
N1212 S1210 1.610 . S
N1212 C1213 1.351 . S
C1213 C1207 1.428 . S
C1213 N1212 1.351 . S
C1213 C1214 1.434 . S
C1214 C1205 1.429 . S
C1214 N1211 1.350 . S
C1214 C1213 1.434 . S
C1215 C1216 1.369 . S
C1215 C1217 1.419 . S
C1215 H1219 0.930 . S
C1216 C1215 1.369 . S
C1216 C1225 1.429 . S
C1217 C1215 1.419 . S
C1217 C1218 1.363 . S
C1217 H1220 0.929 . S
C1218 C1217 1.363 . S
C1218 C1224 1.428 . S
H1219 C1215 0.930 . S
H1220 C1217 0.929 . S
S1221 N1222 1.613 . S
S1221 N1223 1.610 . S
N1222 S1221 1.613 . S
N1222 C1225 1.350 . S
N1223 S1221 1.610 . S
N1223 C1224 1.351 . S
C1224 C1218 1.428 . S
C1224 N1223 1.351 . S
C1224 C1225 1.434 . S
C1225 C1216 1.429 . S
C1225 N1222 1.350 . S
C1225 C1224 1.434 . S
C1226 C1227 1.369 1_455 S
C1226 C1228 1.419 . S
C1226 H1230 0.930 . S
C1227 C1226 1.369 1_655 S
C1227 C1236 1.429 . S
C1228 C1226 1.419 . S
C1228 C1229 1.363 1_455 S
C1228 H1231 0.929 . S
C1229 C1228 1.363 1_655 S
C1229 C1235 1.428 . S
H1230 C1226 0.930 . S
H1231 C1228 0.929 . S
S1232 N1233 1.613 . S
S1232 N1234 1.610 . S
N1233 S1232 1.613 . S
N1233 C1236 1.350 . S
N1234 S1232 1.610 . S
N1234 C1235 1.351 . S
C1235 C1229 1.428 . S
C1235 N1234 1.351 . S
C1235 C1236 1.434 . S
C1236 C1227 1.429 . S
C1236 N1233 1.350 . S
C1236 C1235 1.434 . S
C1237 C1238 1.369 . S
C1237 C1239 1.419 . S
C1237 H1241 0.930 . S
C1238 C1237 1.369 . S
C1238 C1247 1.429 . S
C1239 C1237 1.419 . S
C1239 C1240 1.363 . S
C1239 H1242 0.929 . S
C1240 C1239 1.363 . S
C1240 C1246 1.428 . S
H1241 C1237 0.930 . S
H1242 C1239 0.929 . S
S1243 N1244 1.613 . S
S1243 N1245 1.610 . S
N1244 S1243 1.613 . S
N1244 C1247 1.350 . S
N1245 S1243 1.610 . S
N1245 C1246 1.351 . S
C1246 C1240 1.428 . S
C1246 N1245 1.351 . S
C1246 C1247 1.434 . S
C1247 C1238 1.429 . S
C1247 N1244 1.350 . S
C1247 C1246 1.434 . S
C1248 C1249 1.369 . S
C1248 C1250 1.419 . S
C1248 H1252 0.930 . S
C1249 C1248 1.369 . S
C1249 C1258 1.429 . S
C1250 C1248 1.419 . S
C1250 C1251 1.363 . S
C1250 H1253 0.929 . S
C1251 C1250 1.363 . S
C1251 C1257 1.428 . S
H1252 C1248 0.930 . S
H1253 C1250 0.929 . S
S1254 N1255 1.613 . S
S1254 N1256 1.610 . S
N1255 S1254 1.613 . S
N1255 C1258 1.350 . S
N1256 S1254 1.610 . S
N1256 C1257 1.351 . S
C1257 C1251 1.428 . S
C1257 N1256 1.351 . S
C1257 C1258 1.434 . S
C1258 C1249 1.429 . S
C1258 N1255 1.350 . S
C1258 C1257 1.434 . S
C1259 C1260 1.369 . S
C1259 C1261 1.419 . S
C1259 H1263 0.930 . S
C1260 C1259 1.369 . S
C1260 C1269 1.429 . S
C1261 C1259 1.419 . S
C1261 C1262 1.363 . S
C1261 H1264 0.929 . S
C1262 C1261 1.363 . S
C1262 C1268 1.428 . S
H1263 C1259 0.930 . S
H1264 C1261 0.929 . S
S1265 N1266 1.613 . S
S1265 N1267 1.610 . S
N1266 S1265 1.613 . S
N1266 C1269 1.350 . S
N1267 S1265 1.610 . S
N1267 C1268 1.351 . S
C1268 C1262 1.428 . S
C1268 N1267 1.351 . S
C1268 C1269 1.434 . S
C1269 C1260 1.429 . S
C1269 N1266 1.350 . S
C1269 C1268 1.434 . S
C1270 C1271 1.369 . S
C1270 C1272 1.419 . S
C1270 H1274 0.930 . S
C1271 C1270 1.369 . S
C1271 C1280 1.429 . S
C1272 C1270 1.419 . S
C1272 C1273 1.363 . S
C1272 H1275 0.929 . S
C1273 C1272 1.363 . S
C1273 C1279 1.428 . S
H1274 C1270 0.930 . S
H1275 C1272 0.929 . S
S1276 N1277 1.613 . S
S1276 N1278 1.610 . S
N1277 S1276 1.613 . S
N1277 C1280 1.350 . S
N1278 S1276 1.610 . S
N1278 C1279 1.351 . S
C1279 C1273 1.428 . S
C1279 N1278 1.351 . S
C1279 C1280 1.434 . S
C1280 C1271 1.429 . S
C1280 N1277 1.350 . S
C1280 C1279 1.434 . S
C1281 C1282 1.369 . S
C1281 C1283 1.419 . S
C1281 H1285 0.930 . S
C1282 C1281 1.369 . S
C1282 C1291 1.429 . S
C1283 C1281 1.419 . S
C1283 C1284 1.363 . S
C1283 H1286 0.929 . S
C1284 C1283 1.363 . S
C1284 C1290 1.428 . S
H1285 C1281 0.930 . S
H1286 C1283 0.929 . S
S1287 N1288 1.613 . S
S1287 N1289 1.610 . S
N1288 S1287 1.613 . S
N1288 C1291 1.350 . S
N1289 S1287 1.610 . S
N1289 C1290 1.351 . S
C1290 C1284 1.428 . S
C1290 N1289 1.351 . S
C1290 C1291 1.434 . S
C1291 C1282 1.429 . S
C1291 N1288 1.350 . S
C1291 C1290 1.434 . S
C1292 C1293 1.369 . S
C1292 C1294 1.419 . S
C1292 H1296 0.930 . S
C1293 C1292 1.369 . S
C1293 C1302 1.429 . S
C1294 C1292 1.419 . S
C1294 C1295 1.363 . S
C1294 H1297 0.929 . S
C1295 C1294 1.363 . S
C1295 C1301 1.428 . S
H1296 C1292 0.930 . S
H1297 C1294 0.929 . S
S1298 N1299 1.613 . S
S1298 N1300 1.610 . S
N1299 S1298 1.613 . S
N1299 C1302 1.350 . S
N1300 S1298 1.610 . S
N1300 C1301 1.351 . S
C1301 C1295 1.428 . S
C1301 N1300 1.351 . S
C1301 C1302 1.434 . S
C1302 C1293 1.429 . S
C1302 N1299 1.350 . S
C1302 C1301 1.434 . S
C1303 C1304 1.369 . S
C1303 C1305 1.419 . S
C1303 H1307 0.930 . S
C1304 C1303 1.369 . S
C1304 C1313 1.429 . S
C1305 C1303 1.419 . S
C1305 C1306 1.363 . S
C1305 H1308 0.929 . S
C1306 C1305 1.363 . S
C1306 C1312 1.428 . S
H1307 C1303 0.930 . S
H1308 C1305 0.929 . S
S1309 N1310 1.613 . S
S1309 N1311 1.610 . S
N1310 S1309 1.613 . S
N1310 C1313 1.350 . S
N1311 S1309 1.610 . S
N1311 C1312 1.351 . S
C1312 C1306 1.428 . S
C1312 N1311 1.351 . S
C1312 C1313 1.434 . S
C1313 C1304 1.429 . S
C1313 N1310 1.350 . S
C1313 C1312 1.434 . S
C1314 C1315 1.369 . S
C1314 C1316 1.419 . S
C1314 H1318 0.930 . S
C1315 C1314 1.369 . S
C1315 C1324 1.429 . S
C1316 C1314 1.419 . S
C1316 C1317 1.363 . S
C1316 H1319 0.929 . S
C1317 C1316 1.363 . S
C1317 C1323 1.428 . S
H1318 C1314 0.930 . S
H1319 C1316 0.929 . S
S1320 N1321 1.613 . S
S1320 N1322 1.610 . S
N1321 S1320 1.613 . S
N1321 C1324 1.350 . S
N1322 S1320 1.610 . S
N1322 C1323 1.351 . S
C1323 C1317 1.428 . S
C1323 N1322 1.351 . S
C1323 C1324 1.434 . S
C1324 C1315 1.429 . S
C1324 N1321 1.350 . S
C1324 C1323 1.434 . S
C1325 C1326 1.369 . S
C1325 C1327 1.419 . S
C1325 H1329 0.930 . S
C1326 C1325 1.369 . S
C1326 C1335 1.429 . S
C1327 C1325 1.419 . S
C1327 C1328 1.363 . S
C1327 H1330 0.929 . S
C1328 C1327 1.363 . S
C1328 C1334 1.428 . S
H1329 C1325 0.930 . S
H1330 C1327 0.929 . S
S1331 N1332 1.613 . S
S1331 N1333 1.610 . S
N1332 S1331 1.613 . S
N1332 C1335 1.350 . S
N1333 S1331 1.610 . S
N1333 C1334 1.351 . S
C1334 C1328 1.428 . S
C1334 N1333 1.351 . S
C1334 C1335 1.434 . S
C1335 C1326 1.429 . S
C1335 N1332 1.350 . S
C1335 C1334 1.434 . S
C1336 C1337 1.369 . S
C1336 C1338 1.419 . S
C1336 H1340 0.930 . S
C1337 C1336 1.369 . S
C1337 C1346 1.429 . S
C1338 C1336 1.419 . S
C1338 C1339 1.363 . S
C1338 H1341 0.929 . S
C1339 C1338 1.363 . S
C1339 C1345 1.428 . S
H1340 C1336 0.930 . S
H1341 C1338 0.929 . S
S1342 N1343 1.613 . S
S1342 N1344 1.610 . S
N1343 S1342 1.613 . S
N1343 C1346 1.350 . S
N1344 S1342 1.610 . S
N1344 C1345 1.351 . S
C1345 C1339 1.428 . S
C1345 N1344 1.351 . S
C1345 C1346 1.434 . S
C1346 C1337 1.429 . S
C1346 N1343 1.350 . S
C1346 C1345 1.434 . S
C1347 C1348 1.369 . S
C1347 C1349 1.419 . S
C1347 H1351 0.930 . S
C1348 C1347 1.369 . S
C1348 C1357 1.429 . S
C1349 C1347 1.419 . S
C1349 C1350 1.363 . S
C1349 H1352 0.929 . S
C1350 C1349 1.363 . S
C1350 C1356 1.428 . S
H1351 C1347 0.930 . S
H1352 C1349 0.929 . S
S1353 N1354 1.613 . S
S1353 N1355 1.610 . S
N1354 S1353 1.613 . S
N1354 C1357 1.350 . S
N1355 S1353 1.610 . S
N1355 C1356 1.351 . S
C1356 C1350 1.428 . S
C1356 N1355 1.351 . S
C1356 C1357 1.434 . S
C1357 C1348 1.429 . S
C1357 N1354 1.350 . S
C1357 C1356 1.434 . S
C1358 C1359 1.369 . S
C1358 C1360 1.419 . S
C1358 H1362 0.930 . S
C1359 C1358 1.369 . S
C1359 C1368 1.429 . S
C1360 C1358 1.419 . S
C1360 C1361 1.363 . S
C1360 H1363 0.929 . S
C1361 C1360 1.363 . S
C1361 C1367 1.428 . S
H1362 C1358 0.930 . S
H1363 C1360 0.929 . S
S1364 N1365 1.613 . S
S1364 N1366 1.610 . S
N1365 S1364 1.613 . S
N1365 C1368 1.350 . S
N1366 S1364 1.610 . S
N1366 C1367 1.351 . S
C1367 C1361 1.428 . S
C1367 N1366 1.351 . S
C1367 C1368 1.434 . S
C1368 C1359 1.429 . S
C1368 N1365 1.350 . S
C1368 C1367 1.434 . S
C1369 C1370 1.369 . S
C1369 C1371 1.419 . S
C1369 H1373 0.930 . S
C1370 C1369 1.369 . S
C1370 C1379 1.429 . S
C1371 C1369 1.419 . S
C1371 C1372 1.363 . S
C1371 H1374 0.929 . S
C1372 C1371 1.363 . S
C1372 C1378 1.428 . S
H1373 C1369 0.930 . S
H1374 C1371 0.929 . S
S1375 N1376 1.613 1_546 S
S1375 N1377 1.610 1_556 S
N1376 S1375 1.613 1_564 S
N1376 C1379 1.350 . S
N1377 S1375 1.610 1_554 S
N1377 C1378 1.359 1_545 S
C1378 C1372 1.428 . S
C1378 N1377 1.359 1_565 S
C1378 C1379 1.434 . S
C1379 C1370 1.429 . S
C1379 N1376 1.350 . S
C1379 C1378 1.434 . S
C1380 C1381 1.369 . S
C1380 C1382 1.419 . S
C1380 H1384 0.930 . S
C1381 C1380 1.369 . S
C1381 C1390 1.429 . S
C1382 C1380 1.419 . S
C1382 C1383 1.363 . S
C1382 H1385 0.929 . S
C1383 C1382 1.363 . S
C1383 C1389 1.428 . S
H1384 C1380 0.930 . S
H1385 C1382 0.929 . S
S1386 N1387 1.613 . S
S1386 N1388 1.610 . S
N1387 S1386 1.613 . S
N1387 C1390 1.350 . S
N1388 S1386 1.610 . S
N1388 C1389 1.351 . S
C1389 C1383 1.428 . S
C1389 N1388 1.351 . S
C1389 C1390 1.434 . S
C1390 C1381 1.429 . S
C1390 N1387 1.350 . S
C1390 C1389 1.434 . S
C1391 C1392 1.369 . S
C1391 C1393 1.419 . S
C1391 H1395 0.930 . S
C1392 C1391 1.369 . S
C1392 C1401 1.429 . S
C1393 C1391 1.419 . S
C1393 C1394 1.363 . S
C1393 H1396 0.929 . S
C1394 C1393 1.363 . S
C1394 C1400 1.428 . S
H1395 C1391 0.930 . S
H1396 C1393 0.929 . S
S1397 N1398 1.613 . S
S1397 N1399 1.610 1_556 S
N1398 S1397 1.613 . S
N1398 C1401 1.350 1_556 S
N1399 S1397 1.610 1_554 S
N1399 C1400 1.351 . S
C1400 C1394 1.428 . S
C1400 N1399 1.351 . S
C1400 C1401 1.434 . S
C1401 C1392 1.429 . S
C1401 N1398 1.350 1_554 S
C1401 C1400 1.434 . S
C1402 C1403 1.369 . S
C1402 C1404 1.419 . S
C1402 H1406 0.930 . S
C1403 C1402 1.369 . S
C1403 C1412 1.429 . S
C1404 C1402 1.419 . S
C1404 C1405 1.363 . S
C1404 H1407 0.929 . S
C1405 C1404 1.363 . S
C1405 C1411 1.428 . S
H1406 C1402 0.930 . S
H1407 C1404 0.929 . S
S1408 N1409 1.613 . S
S1408 N1410 1.610 . S
N1409 S1408 1.613 . S
N1409 C1412 1.350 . S
N1410 S1408 1.610 . S
N1410 C1411 1.351 . S
C1411 C1405 1.428 . S
C1411 N1410 1.351 . S
C1411 C1412 1.434 . S
C1412 C1403 1.429 . S
C1412 N1409 1.350 . S
C1412 C1411 1.434 . S
C1413 C1414 1.369 . S
C1413 C1415 1.419 . S
C1413 H1417 0.930 . S
C1414 C1413 1.369 . S
C1414 C1423 1.429 . S
C1415 C1413 1.419 . S
C1415 C1416 1.363 . S
C1415 H1418 0.929 . S
C1416 C1415 1.363 . S
C1416 C1422 1.428 . S
H1417 C1413 0.930 . S
H1418 C1415 0.929 . S
S1419 N1420 1.613 . S
S1419 N1421 1.610 . S
N1420 S1419 1.613 . S
N1420 C1423 1.350 . S
N1421 S1419 1.610 . S
N1421 C1422 1.351 . S
C1422 C1416 1.428 . S
C1422 N1421 1.351 . S
C1422 C1423 1.434 . S
C1423 C1414 1.429 . S
C1423 N1420 1.350 . S
C1423 C1422 1.434 . S
C1424 C1425 1.369 . S
C1424 C1426 1.419 . S
C1424 H1428 0.930 . S
C1425 C1424 1.369 . S
C1425 C1434 1.429 . S
C1426 C1424 1.419 . S
C1426 C1427 1.363 . S
C1426 H1429 0.929 . S
C1427 C1426 1.363 . S
C1427 C1433 1.428 . S
H1428 C1424 0.930 . S
H1429 C1426 0.929 . S
S1430 N1431 1.613 . S
S1430 N1432 1.610 . S
N1431 S1430 1.613 . S
N1431 C1434 1.350 . S
N1432 S1430 1.610 . S
N1432 C1433 1.351 . S
C1433 C1427 1.428 . S
C1433 N1432 1.351 . S
C1433 C1434 1.434 . S
C1434 C1425 1.429 . S
C1434 N1431 1.350 . S
C1434 C1433 1.434 . S
C1435 C1436 1.369 . S
C1435 C1437 1.419 . S
C1435 H1439 0.930 . S
C1436 C1435 1.369 . S
C1436 C1445 1.429 . S
C1437 C1435 1.419 . S
C1437 C1438 1.363 . S
C1437 H1440 0.929 . S
C1438 C1437 1.363 . S
C1438 C1444 1.428 . S
H1439 C1435 0.930 . S
H1440 C1437 0.929 . S
S1441 N1442 1.613 . S
S1441 N1443 1.610 . S
N1442 S1441 1.613 . S
N1442 C1445 1.350 . S
N1443 S1441 1.610 . S
N1443 C1444 1.351 . S
C1444 C1438 1.428 . S
C1444 N1443 1.351 . S
C1444 C1445 1.434 . S
C1445 C1436 1.429 . S
C1445 N1442 1.350 . S
C1445 C1444 1.434 . S
C1446 C1447 1.369 1_455 S
C1446 C1448 1.419 . S
C1446 H1450 0.930 . S
C1447 C1446 1.369 1_655 S
C1447 C1456 1.429 . S
C1448 C1446 1.419 . S
C1448 C1449 1.363 . S
C1448 H1451 0.929 . S
C1449 C1448 1.363 . S
C1449 C1455 1.428 1_455 S
H1450 C1446 0.930 . S
H1451 C1448 0.929 . S
S1452 N1453 1.613 . S
S1452 N1454 1.610 . S
N1453 S1452 1.613 . S
N1453 C1456 1.350 . S
N1454 S1452 1.610 . S
N1454 C1455 1.351 . S
C1455 C1449 1.428 1_655 S
C1455 N1454 1.351 . S
C1455 C1456 1.434 . S
C1456 C1447 1.429 . S
C1456 N1453 1.350 . S
C1456 C1455 1.434 . S
C1457 C1458 1.369 . S
C1457 C1459 1.419 . S
C1457 H1461 0.930 . S
C1458 C1457 1.369 . S
C1458 C1467 1.429 . S
C1459 C1457 1.419 . S
C1459 C1460 1.363 . S
C1459 H1462 0.929 . S
C1460 C1459 1.363 . S
C1460 C1466 1.428 . S
H1461 C1457 0.930 . S
H1462 C1459 0.929 . S
S1463 N1464 1.613 . S
S1463 N1465 1.610 . S
N1464 S1463 1.613 . S
N1464 C1467 1.350 . S
N1465 S1463 1.610 . S
N1465 C1466 1.351 . S
C1466 C1460 1.428 . S
C1466 N1465 1.351 . S
C1466 C1467 1.434 . S
C1467 C1458 1.429 . S
C1467 N1464 1.350 . S
C1467 C1466 1.434 . S
C1468 C1469 1.369 . S
C1468 C1470 1.419 . S
C1468 H1472 0.930 . S
C1469 C1468 1.369 . S
C1469 C1478 1.429 . S
C1470 C1468 1.419 . S
C1470 C1471 1.363 . S
C1470 H1473 0.929 1_556 S
C1471 C1470 1.363 . S
C1471 C1477 1.428 . S
H1472 C1468 0.930 . S
H1473 C1470 0.929 1_554 S
S1474 N1475 1.613 . S
S1474 N1476 1.610 . S
N1475 S1474 1.613 . S
N1475 C1478 1.350 . S
N1476 S1474 1.610 . S
N1476 C1477 1.351 . S
C1477 C1471 1.428 . S
C1477 N1476 1.351 . S
C1477 C1478 1.434 . S
C1478 C1469 1.429 . S
C1478 N1475 1.350 . S
C1478 C1477 1.434 . S
C1479 C1480 1.369 . S
C1479 C1481 1.419 . S
C1479 H1483 0.930 . S
C1480 C1479 1.369 . S
C1480 C1489 1.429 . S
C1481 C1479 1.419 . S
C1481 C1482 1.363 . S
C1481 H1484 0.929 . S
C1482 C1481 1.363 . S
C1482 C1488 1.428 . S
H1483 C1479 0.930 . S
H1484 C1481 0.929 . S
S1485 N1486 1.613 . S
S1485 N1487 1.610 . S
N1486 S1485 1.613 . S
N1486 C1489 1.350 . S
N1487 S1485 1.610 . S
N1487 C1488 1.351 . S
C1488 C1482 1.428 . S
C1488 N1487 1.351 . S
C1488 C1489 1.434 . S
C1489 C1480 1.429 . S
C1489 N1486 1.350 . S
C1489 C1488 1.434 . S
C1490 C1491 1.369 . S
C1490 C1492 1.419 . S
C1490 H1494 0.930 . S
C1491 C1490 1.369 . S
C1491 C1500 1.429 . S
C1492 C1490 1.419 . S
C1492 C1493 1.363 . S
C1492 H1495 0.929 . S
C1493 C1492 1.363 . S
C1493 C1499 1.428 . S
H1494 C1490 0.930 . S
H1495 C1492 0.929 . S
S1496 N1497 1.613 . S
S1496 N1498 1.610 . S
N1497 S1496 1.613 . S
N1497 C1500 1.350 . S
N1498 S1496 1.610 . S
N1498 C1499 1.351 . S
C1499 C1493 1.428 . S
C1499 N1498 1.351 . S
C1499 C1500 1.434 . S
C1500 C1491 1.429 . S
C1500 N1497 1.350 . S
C1500 C1499 1.434 . S
C1501 C1502 1.369 . S
C1501 C1503 1.419 . S
C1501 H1505 0.930 . S
C1502 C1501 1.369 . S
C1502 C1511 1.429 . S
C1503 C1501 1.419 . S
C1503 C1504 1.363 . S
C1503 H1506 0.929 . S
C1504 C1503 1.363 . S
C1504 C1510 1.428 . S
H1505 C1501 0.930 . S
H1506 C1503 0.929 . S
S1507 N1508 1.613 . S
S1507 N1509 1.610 . S
N1508 S1507 1.613 . S
N1508 C1511 1.350 . S
N1509 S1507 1.610 . S
N1509 C1510 1.351 . S
C1510 C1504 1.428 . S
C1510 N1509 1.351 . S
C1510 C1511 1.434 . S
C1511 C1502 1.429 . S
C1511 N1508 1.350 . S
C1511 C1510 1.434 . S
C1512 C1513 1.369 . S
C1512 C1514 1.419 . S
C1512 H1516 0.930 . S
C1513 C1512 1.369 . S
C1513 C1522 1.429 . S
C1514 C1512 1.419 . S
C1514 C1515 1.363 . S
C1514 H1517 0.929 . S
C1515 C1514 1.363 . S
C1515 C1521 1.428 . S
H1516 C1512 0.930 . S
H1517 C1514 0.929 . S
S1518 N1519 1.613 . S
S1518 N1520 1.610 . S
N1519 S1518 1.613 . S
N1519 C1522 1.350 . S
N1520 S1518 1.610 . S
N1520 C1521 1.351 . S
C1521 C1515 1.428 . S
C1521 N1520 1.351 . S
C1521 C1522 1.434 . S
C1522 C1513 1.429 . S
C1522 N1519 1.350 . S
C1522 C1521 1.434 . S
C1523 C1524 1.369 . S
C1523 C1525 1.419 . S
C1523 H1527 0.930 . S
C1524 C1523 1.369 . S
C1524 C1533 1.429 . S
C1525 C1523 1.419 . S
C1525 C1526 1.363 . S
C1525 H1528 0.929 . S
C1526 C1525 1.363 . S
C1526 C1532 1.428 . S
H1527 C1523 0.930 . S
H1528 C1525 0.929 . S
S1529 N1530 1.613 . S
S1529 N1531 1.610 . S
N1530 S1529 1.613 . S
N1530 C1533 1.350 . S
N1531 S1529 1.610 . S
N1531 C1532 1.351 . S
C1532 C1526 1.428 . S
C1532 N1531 1.351 . S
C1532 C1533 1.434 . S
C1533 C1524 1.429 . S
C1533 N1530 1.350 . S
C1533 C1532 1.434 . S
C1534 C1535 1.369 . S
C1534 C1536 1.419 . S
C1534 H1538 0.930 . S
C1535 C1534 1.369 . S
C1535 C1544 1.429 . S
C1536 C1534 1.419 . S
C1536 C1537 1.363 . S
C1536 H1539 0.929 . S
C1537 C1536 1.363 . S
C1537 C1543 1.428 . S
H1538 C1534 0.930 . S
H1539 C1536 0.929 . S
S1540 N1541 1.613 . S
S1540 N1542 1.610 . S
N1541 S1540 1.613 . S
N1541 C1544 1.350 . S
N1542 S1540 1.610 . S
N1542 C1543 1.351 . S
C1543 C1537 1.428 . S
C1543 N1542 1.351 . S
C1543 C1544 1.434 . S
C1544 C1535 1.429 . S
C1544 N1541 1.350 . S
C1544 C1543 1.434 . S
C1545 C1546 1.369 . S
C1545 C1547 1.419 . S
C1545 H1549 0.930 . S
C1546 C1545 1.369 . S
C1546 C1555 1.429 . S
C1547 C1545 1.419 . S
C1547 C1548 1.363 . S
C1547 H1550 0.929 . S
C1548 C1547 1.363 . S
C1548 C1554 1.428 . S
H1549 C1545 0.930 . S
H1550 C1547 0.929 . S
S1551 N1552 1.613 . S
S1551 N1553 1.610 . S
N1552 S1551 1.613 . S
N1552 C1555 1.350 . S
N1553 S1551 1.610 . S
N1553 C1554 1.351 . S
C1554 C1548 1.428 . S
C1554 N1553 1.351 . S
C1554 C1555 1.434 . S
C1555 C1546 1.429 . S
C1555 N1552 1.350 . S
C1555 C1554 1.434 . S
C1556 C1557 1.369 . S
C1556 C1558 1.419 . S
C1556 H1560 0.930 . S
C1557 C1556 1.369 . S
C1557 C1566 1.429 . S
C1558 C1556 1.419 . S
C1558 C1559 1.363 . S
C1558 H1561 0.929 . S
C1559 C1558 1.363 . S
C1559 C1565 1.428 . S
H1560 C1556 0.930 . S
H1561 C1558 0.929 . S
S1562 N1563 1.613 . S
S1562 N1564 1.610 . S
N1563 S1562 1.613 . S
N1563 C1566 1.350 . S
N1564 S1562 1.610 . S
N1564 C1565 1.351 . S
C1565 C1559 1.428 . S
C1565 N1564 1.351 . S
C1565 C1566 1.434 . S
C1566 C1557 1.429 . S
C1566 N1563 1.350 . S
C1566 C1565 1.434 . S
C1567 C1568 1.369 . S
C1567 C1569 1.419 . S
C1567 H1571 0.930 . S
C1568 C1567 1.369 . S
C1568 C1577 1.429 . S
C1569 C1567 1.419 . S
C1569 C1570 1.363 . S
C1569 H1572 0.929 . S
C1570 C1569 1.363 . S
C1570 C1576 1.428 . S
H1571 C1567 0.930 . S
H1572 C1569 0.929 . S
S1573 N1574 1.613 . S
S1573 N1575 1.610 . S
N1574 S1573 1.613 . S
N1574 C1577 1.350 . S
N1575 S1573 1.610 . S
N1575 C1576 1.351 . S
C1576 C1570 1.428 . S
C1576 N1575 1.351 . S
C1576 C1577 1.434 . S
C1577 C1568 1.429 . S
C1577 N1574 1.350 . S
C1577 C1576 1.434 . S
C1578 C1579 1.369 . S
C1578 C1580 1.419 . S
C1578 H1582 0.930 . S
C1579 C1578 1.369 . S
C1579 C1588 1.429 . S
C1580 C1578 1.419 . S
C1580 C1581 1.363 . S
C1580 H1583 0.929 . S
C1581 C1580 1.363 . S
C1581 C1587 1.428 . S
H1582 C1578 0.930 . S
H1583 C1580 0.929 . S
S1584 N1585 1.613 . S
S1584 N1586 1.610 . S
N1585 S1584 1.613 . S
N1585 C1588 1.350 . S
N1586 S1584 1.610 . S
N1586 C1587 1.351 . S
C1587 C1581 1.428 . S
C1587 N1586 1.351 . S
C1587 C1588 1.434 . S
C1588 C1579 1.429 . S
C1588 N1585 1.350 . S
C1588 C1587 1.434 . S
C1589 C1590 1.369 . S
C1589 C1591 1.419 . S
C1589 H1593 0.930 . S
C1590 C1589 1.369 . S
C1590 C1599 1.429 . S
C1591 C1589 1.419 . S
C1591 C1592 1.363 . S
C1591 H1594 0.929 . S
C1592 C1591 1.363 . S
C1592 C1598 1.428 . S
H1593 C1589 0.930 . S
H1594 C1591 0.929 . S
S1595 N1596 1.613 . S
S1595 N1597 1.610 . S
N1596 S1595 1.613 . S
N1596 C1599 1.350 . S
N1597 S1595 1.610 . S
N1597 C1598 1.351 . S
C1598 C1592 1.428 . S
C1598 N1597 1.351 . S
C1598 C1599 1.434 . S
C1599 C1590 1.429 . S
C1599 N1596 1.350 . S
C1599 C1598 1.434 . S
C1600 C1601 1.369 . S
C1600 C1602 1.419 . S
C1600 H1604 0.930 . S
C1601 C1600 1.369 . S
C1601 C1610 1.429 . S
C1602 C1600 1.419 . S
C1602 C1603 1.363 . S
C1602 H1605 0.929 . S
C1603 C1602 1.363 . S
C1603 C1609 1.428 . S
H1604 C1600 0.930 . S
H1605 C1602 0.929 . S
S1606 N1607 1.613 . S
S1606 N1608 1.610 . S
N1607 S1606 1.613 . S
N1607 C1610 1.350 . S
N1608 S1606 1.610 . S
N1608 C1609 1.351 . S
C1609 C1603 1.428 . S
C1609 N1608 1.351 . S
C1609 C1610 1.434 . S
C1610 C1601 1.429 . S
C1610 N1607 1.350 . S
C1610 C1609 1.434 . S
C1611 C1612 1.369 . S
C1611 C1613 1.419 . S
C1611 H1615 0.930 . S
C1612 C1611 1.369 . S
C1612 C1621 1.429 . S
C1613 C1611 1.419 . S
C1613 C1614 1.363 . S
C1613 H1616 0.929 . S
C1614 C1613 1.363 . S
C1614 C1620 1.428 . S
H1615 C1611 0.930 . S
H1616 C1613 0.929 . S
S1617 N1618 1.613 1_545 S
S1617 N1619 1.610 . S
N1618 S1617 1.613 1_565 S
N1618 C1621 1.350 . S
N1619 S1617 1.610 . S
N1619 C1620 1.351 1_545 S
C1620 C1614 1.428 . S
C1620 N1619 1.351 1_565 S
C1620 C1621 1.434 . S
C1621 C1612 1.429 . S
C1621 N1618 1.350 . S
C1621 C1620 1.434 . S
C1622 C1623 1.369 . S
C1622 C1624 1.419 . S
C1622 H1626 0.930 . S
C1623 C1622 1.369 . S
C1623 C1632 1.429 . S
C1624 C1622 1.419 . S
C1624 C1625 1.363 . S
C1624 H1627 0.929 . S
C1625 C1624 1.363 . S
C1625 C1631 1.428 . S
H1626 C1622 0.930 . S
H1627 C1624 0.929 . S
S1628 N1629 1.613 . S
S1628 N1630 1.610 . S
N1629 S1628 1.613 . S
N1629 C1632 1.350 . S
N1630 S1628 1.610 . S
N1630 C1631 1.351 . S
C1631 C1625 1.428 . S
C1631 N1630 1.351 . S
C1631 C1632 1.434 . S
C1632 C1623 1.429 . S
C1632 N1629 1.350 . S
C1632 C1631 1.434 . S
C1633 C1634 1.369 1_554 S
C1633 C1635 1.419 . S
C1633 H1637 0.930 . S
C1634 C1633 1.369 1_556 S
C1634 C1643 1.429 . S
C1635 C1633 1.419 . S
C1635 C1636 1.363 1_554 S
C1635 H1638 0.929 . S
C1636 C1635 1.363 1_556 S
C1636 C1642 1.428 . S
H1637 C1633 0.930 . S
H1638 C1635 0.929 . S
S1639 N1640 1.613 . S
S1639 N1641 1.610 . S
N1640 S1639 1.613 . S
N1640 C1643 1.350 . S
N1641 S1639 1.610 . S
N1641 C1642 1.351 . S
C1642 C1636 1.428 . S
C1642 N1641 1.351 . S
C1642 C1643 1.434 . S
C1643 C1634 1.429 . S
C1643 N1640 1.350 . S
C1643 C1642 1.434 . S
C1644 C1645 1.369 . S
C1644 C1646 1.419 . S
C1644 H1648 0.930 . S
C1645 C1644 1.369 . S
C1645 C1654 1.429 . S
C1646 C1644 1.419 . S
C1646 C1647 1.363 . S
C1646 H1649 0.929 . S
C1647 C1646 1.363 . S
C1647 C1653 1.428 . S
H1648 C1644 0.930 . S
H1649 C1646 0.929 . S
S1650 N1651 1.613 . S
S1650 N1652 1.610 . S
N1651 S1650 1.613 . S
N1651 C1654 1.350 . S
N1652 S1650 1.610 . S
N1652 C1653 1.351 . S
C1653 C1647 1.428 . S
C1653 N1652 1.351 . S
C1653 C1654 1.434 . S
C1654 C1645 1.429 . S
C1654 N1651 1.350 . S
C1654 C1653 1.434 . S
C1655 C1656 1.369 . S
C1655 C1657 1.419 1_554 S
C1655 H1659 0.930 . S
C1656 C1655 1.369 . S
C1656 C1665 1.429 . S
C1657 C1655 1.419 1_556 S
C1657 C1658 1.363 1_556 S
C1657 H1660 0.929 . S
C1658 C1657 1.363 1_554 S
C1658 C1664 1.428 . S
H1659 C1655 0.930 . S
H1660 C1657 0.929 . S
S1661 N1662 1.613 . S
S1661 N1663 1.610 . S
N1662 S1661 1.613 . S
N1662 C1665 1.350 . S
N1663 S1661 1.610 . S
N1663 C1664 1.351 . S
C1664 C1658 1.428 . S
C1664 N1663 1.351 . S
C1664 C1665 1.434 . S
C1665 C1656 1.429 . S
C1665 N1662 1.350 . S
C1665 C1664 1.434 . S
C1666 C1667 1.369 . S
C1666 C1668 1.419 . S
C1666 H1670 0.930 . S
C1667 C1666 1.369 . S
C1667 C1676 1.429 . S
C1668 C1666 1.419 . S
C1668 C1669 1.363 . S
C1668 H1671 0.929 . S
C1669 C1668 1.363 . S
C1669 C1675 1.428 . S
H1670 C1666 0.930 . S
H1671 C1668 0.929 . S
S1672 N1673 1.613 . S
S1672 N1674 1.610 . S
N1673 S1672 1.613 . S
N1673 C1676 1.350 . S
N1674 S1672 1.610 . S
N1674 C1675 1.351 . S
C1675 C1669 1.428 . S
C1675 N1674 1.351 . S
C1675 C1676 1.434 . S
C1676 C1667 1.429 . S
C1676 N1673 1.350 . S
C1676 C1675 1.434 . S
C1677 C1678 1.369 . S
C1677 C1679 1.419 . S
C1677 H1681 0.930 . S
C1678 C1677 1.369 . S
C1678 C1687 1.429 . S
C1679 C1677 1.419 . S
C1679 C1680 1.363 . S
C1679 H1682 0.929 . S
C1680 C1679 1.363 . S
C1680 C1686 1.428 . S
H1681 C1677 0.930 . S
H1682 C1679 0.929 . S
S1683 N1684 1.613 . S
S1683 N1685 1.610 . S
N1684 S1683 1.613 . S
N1684 C1687 1.350 . S
N1685 S1683 1.610 . S
N1685 C1686 1.351 . S
C1686 C1680 1.428 . S
C1686 N1685 1.351 . S
C1686 C1687 1.434 . S
C1687 C1678 1.429 . S
C1687 N1684 1.350 . S
C1687 C1686 1.434 . S
C633 C101 1.401 . S
C635 C328 1.344 1_556 S
C644 C57 1.453 . S
C646 C341 1.423 . S
C655 C70 1.380 . S
C657 C360 1.391 . S
C668 C391 1.843 . S
C666 C82 1.862 . S
C677 C23 1.679 . S
C679 C411 1.689 . S
C690 C428 1.010 . S
C688 C29 1.035 . S
C701 C441 1.515 . S
C699 C49 1.505 . S
C710 C10 1.275 . S
C712 C468 1.229 . S
C723 C321 1.375 1_655 S
C721 C218 1.376 . S
C732 C226 1.551 . S
C734 C351 1.557 . S
C745 C353 1.647 . S
C743 C251 1.734 . S
C756 C388 0.930 . S
C754 C159 0.943 . S
C765 C211 1.216 . S
C767 C408 1.212 . S
C778 C421 1.785 . S
C776 C225 1.768 . S
C789 C451 1.403 . S
C787 C252 1.402 . S
C800 C461 1.276 . S
C798 C166 1.316 . S
C811 C331 1.688 1_565 S
C809 C147 1.659 . S
C820 C263 1.704 . S
C822 C481 1.704 1_556 S
C833 C511 1.701 . S
C831 C309 1.652 . S
C844 C528 1.233 . S
C842 C291 1.263 . S
C853 C108 1.909 . S
C855 C471 1.957 . S
C864 C121 1.406 . S
C866 C358 1.359 . S
C875 C302 1.774 . S
C877 C541 1.781 . S
C888 C568 1.161 . S
C886 C276 1.205 . S
C899 C318 1.392 . S
C897 C55 1.445 . S
C910 C553 1.508 . S
C908 C96 1.535 . S
C919 C88 1.565 . S
C921 C371 1.549 . S
C930 C75 2.041 . S
C932 C540 1.975 . S
C943 C400 1.779 . S
C941 C4 1.822 . S
C952 C44 1.157 . S
C954 C498 1.137 . S
C965 C433 1.561 . S
C963 C31 1.565 . S
C976 C578 1.220 . S
C974 C18 1.278 . S
C987 C313 1.436 . S
C985 C133 1.450 . S
C998 C560 1.696 . S
C996 C296 1.722 . S
C1007 C107 1.852 . S
C1009 C361 1.787 . S
C1018 C264 1.159 . S
C1020 C538 1.151 . S
C1029 C140 1.385 . S
C1031 C398 1.381 . S
C1042 C493 1.847 . S
C1040 C289 1.844 . S
C1051 C114 1.588 . S
C1053 C440 1.546 . S
C1062 C265 1.402 . S
C1064 C573 1.360 . S
C1073 C179 1.803 . S
C1075 C320 1.761 . S
C1084 C161 1.811 . S
C1086 C473 1.795 . S
C1095 C244 1.817 . S
C1097 C420 1.806 . S
C1106 C224 1.443 . S
C1108 C518 1.414 . S
C1119 C580 1.977 . S
C1117 C257 2.002 . S
C1128 C199 1.472 . S
C1130 C368 1.404 . S
C1141 C373 1.881 . S
C1139 C237 1.897 . S
C1152 C338 1.276 . S
C1150 C185 1.311 . S
C1161 C69 1.392 . S
C1163 C608 1.352 . S
C1174 C561 1.425 . S
C1172 C83 1.449 . S
C1183 C94 1.381 . S
C1185 C620 1.375 1_456 S
C1194 C56 1.863 . S
C1196 C551 1.843 . S
C1205 C42 1.693 . S
C1207 C491 1.699 . S
C1218 C508 1.010 . S
C1216 C3 1.032 . S
C1229 C521 1.525 . S
C1227 C16 1.519 . S
C1240 C588 1.232 . S
C1238 C36 1.275 . S
C1251 C601 1.377 . S
C1249 C238 1.373 . S
C1260 C174 1.544 . S
C1262 C571 1.553 . S
C1273 C613 1.649 . S
C1271 C186 1.734 . S
C1284 C548 0.932 . S
C1282 C198 0.939 . S
C1295 C488 1.206 . S
C1293 C239 1.221 . S
C1304 C173 1.774 . S
C1306 C501 1.787 . S
C1317 C531 1.407 . S
C1315 C187 1.410 . S
C1326 C205 1.314 . S
C1328 C581 1.275 . S
C1339 C611 1.686 . S
C1337 C290 1.659 . S
C1348 C122 1.705 . S
C1350 C401 1.707 . S
C1361 C431 1.702 . S
C1359 C134 1.659 . S
C1372 C448 1.232 1_565 S
C1370 C148 1.258 . S
C1383 C591 1.953 . S
C1381 C283 1.899 . S
C1392 C270 1.405 . S
C1394 C618 1.358 . S
C1405 C381 1.780 . S
C1403 C135 1.769 . S
C1416 C348 1.162 . S
C1414 C109 1.210 . S
C1425 C81 1.447 . S
C1427 C598 1.396 . S
C1438 C333 1.502 . S
C1436 C68 1.535 . S
C1447 C62 1.568 . S
C1449 C631 1.552 . S
C1458 C95 2.041 . S
C1460 C380 1.974 . S
C1469 C30 1.823 . S
C1471 C480 1.783 . S
C1482 C418 1.130 . S
C1480 C17 1.152 . S
C1491 C5 1.564 . S
C1493 C513 1.560 . S
C1502 C43 1.266 . S
C1504 C458 1.224 . S
C1515 C593 1.436 . S
C1513 C304 1.450 . S
C1524 C153 1.721 . S
C1526 C340 1.689 . S
C1537 C621 1.792 . S
C1535 C278 1.850 . S
C1546 C127 1.157 . S
C1548 C378 1.146 . S
C1557 C303 1.381 . S
C1559 C478 1.379 . S
C1570 C413 1.846 . S
C1568 C146 1.842 . S
C1579 C277 1.580 . S
C1581 C520 1.545 . S
C1592 C453 1.360 . S
C1590 C120 1.399 . S
C1603 C600 1.762 . S
C1601 C231 1.804 . S
C1614 C393 1.791 . S
C1612 C200 1.809 . S
C1623 C212 1.821 . S
C1625 C500 1.807 . S
C1636 C438 1.412 1_556 S
C1634 C172 1.444 . S
C1645 C192 2.001 . S
C1647 C460 1.977 . S
C1656 C160 1.473 . S
C1658 C628 1.397 . S
C1669 C533 1.881 . S
C1667 C213 1.899 . S
C1680 C558 1.275 . S
C1678 C250 1.314 . S
