# Generated by pormake.
# Topology bcu-b, (8,8)-cn, num edge types: 1
# Building blocks:
#     Node 0, Type 0, BuildingBlock: VETTIZ_charged_sbu_0, # of connection points: 8
#     Node 1, Type 1, BuildingBlock: TAGTUT_clean_sbu_3, # of connection points: 8
#     Edge 2, Type (0, 1), BuildingBlock: MIFKUJ_clean_linker_0, # of connection points: 2
#     Edge 3, Type (0, 1), BuildingBlock: MIFKUJ_clean_linker_0, # of connection points: 2
#     Edge 4, Type (0, 1), BuildingBlock: MIFKUJ_clean_linker_0, # of connection points: 2
#     Edge 5, Type (0, 1), BuildingBlock: MIFKUJ_clean_linker_0, # of connection points: 2
#     Edge 6, Type (0, 1), BuildingBlock: MIFKUJ_clean_linker_0, # of connection points: 2
#     Edge 7, Type (0, 1), BuildingBlock: MIFKUJ_clean_linker_0, # of connection points: 2
#     Edge 8, Type (0, 1), BuildingBlock: MIFKUJ_clean_linker_0, # of connection points: 2
#     Edge 9, Type (0, 1), BuildingBlock: MIFKUJ_clean_linker_0, # of connection points: 2
# Relax obj value: 0.021
# Max RMSD: 0.104
# Mean RMSD: 0.073
data_MOF--net-bcu-b--node1-VETTIZ_charged_sbu_0--node2-TAGTUT_clean_sbu_3--edge1-MIFKUJ_clean_linker_0
_symmetry_space_group_name_H-M    P1
_symmetry_Int_Tables_number       1
_symmetry_cell_setting            triclinic
loop_
_symmetry_equiv_pos_as_xyz
'x, y, z'
_cell_length_a     24.657159
_cell_length_b     24.819486
_cell_length_c     25.785501
_cell_angle_alpha  90.92519
_cell_angle_beta   89.479323
_cell_angle_gamma 98.509301
loop_
_atom_site_label
_atom_site_type_symbol
_atom_site_fract_x
_atom_site_fract_y
_atom_site_fract_z
_atom_type_partial_charge
Fe0 Fe 0.03851 0.89297 0.99643 0.0
O1 O 0.03694 0.97133 0.00132 0.0
Fe2 Fe 0.00678 0.0115 0.93956 0.0
Fe3 Fe 1.00102 0.00656 0.05966 0.0
O4 O 0.03748 0.97169 0.99641 0.0
O5 O 0.96894 0.04561 0.99777 0.0
O6 O 0.96765 0.04473 0.00312 0.0
Fe7 Fe 0.96891 0.12441 0.00491 0.0
C8 C 0.93724 0.89482 0.06553 0.0
O9 O 0.09215 0.91139 0.05727 0.0
O10 O 0.04372 0.96296 0.11115 0.0
O11 O 0.03258 0.14455 0.95304 0.0
O12 O 0.07404 0.07097 0.94339 0.0
O13 O 0.05068 0.96923 0.88565 0.0
O14 O 0.09329 0.91234 0.93656 0.0
O15 O 0.06798 0.06651 0.06249 0.0
O16 O 0.02462 0.13868 0.06497 0.0
C17 C 0.08674 0.93676 0.8935 0.0
O18 O 0.91945 0.11041 0.94032 0.0
O19 O 0.96914 0.05897 0.88773 0.0
O20 O 0.97946 0.87392 0.05236 0.0
O21 O 0.93464 0.94526 0.05983 0.0
C22 C 0.08337 0.93454 0.10159 0.0
C23 C 0.06648 0.11605 0.07425 0.0
C24 C 0.91854 0.07944 0.10527 0.0
O25 O 0.95667 0.04915 0.11348 0.0
O26 O 0.91131 0.1036 0.06211 0.0
C27 C 0.07377 0.12196 0.93962 0.0
O28 O 0.94003 0.95229 0.93226 0.0
O29 O 0.97769 0.87606 0.94083 0.0
C30 C 0.93226 0.09098 0.89543 0.0
C31 C 0.9388 0.90113 0.92662 0.0
C32 C 0.5936 0.58462 0.56928 0.0
C33 C 0.6579 0.3898 0.54573 0.0
C34 C 0.58518 0.38673 0.39953 0.0
Mg35 Mg 0.48653 0.62727 0.52091 0.0
Mg36 Mg 0.37619 0.54032 0.49553 0.0
O37 O 0.45116 0.56037 0.48283 0.0
Mg38 Mg 0.50192 0.50809 0.50074 0.0
O39 O 0.55674 0.46049 0.51925 0.0
Mg40 Mg 0.62307 0.49632 0.48056 0.0
Mg41 Mg 0.53766 0.38574 0.50726 0.0
C42 C 0.40324 0.43587 0.43279 0.0
O43 O 0.44319 0.46136 0.56124 0.0
O44 O 0.42514 0.67355 0.47582 0.0
O45 O 0.45997 0.37512 0.54833 0.0
O46 O 0.42452 0.61848 0.58866 0.0
O47 O 0.35251 0.60959 0.45854 0.0
O48 O 0.35643 0.5501 0.57627 0.0
O49 O 0.56432 0.54889 0.44055 0.0
O50 O 0.54747 0.63406 0.45394 0.0
C51 C 0.5734 0.59991 0.4301 0.0
C52 C 0.37741 0.65861 0.45581 0.0
O53 O 0.45516 0.44777 0.44093 0.0
O54 O 0.67171 0.43771 0.52669 0.0
O55 O 0.36782 0.46255 0.4542 0.0
O56 O 0.6149 0.43091 0.41436 0.0
O57 O 0.609 0.36395 0.54277 0.0
O58 O 0.54481 0.36491 0.42695 0.0
O59 O 0.54237 0.5715 0.55965 0.0
O60 O 0.62991 0.56068 0.5462 0.0
C61 C 0.38041 0.58937 0.60408 0.0
C62 C 0.43232 0.40979 0.56935 0.0
H63 H 0.06286 0.20065 0.14161 0.0
H64 H 0.13783 0.25046 0.19142 0.0
H65 H 0.25045 0.15265 0.1212 0.0
H66 H 0.17421 0.10032 0.07304 0.0
H67 H 0.27754 0.1676 0.21598 0.0
H68 H 0.24971 0.2891 0.08636 0.0
H69 H 0.20036 0.34052 0.02621 0.0
H70 H 0.1399 0.42708 0.15465 0.0
H71 H 0.18802 0.37549 0.21572 0.0
H72 H 0.46183 0.38593 0.35914 0.0
H73 H 0.42381 0.32673 0.28677 0.0
H74 H 0.2604 0.33258 0.34521 0.0
H75 H 0.29738 0.39017 0.41742 0.0
H76 H 0.28629 0.3679 0.23546 0.0
H77 H 0.30709 0.21906 0.36045 0.0
H78 H 0.36886 0.17172 0.4122 0.0
H79 H 0.46316 0.14628 0.27546 0.0
H80 H 0.40196 0.19359 0.22302 0.0
C81 C 0.10363 0.18993 0.13646 0.0
C82 C 0.11279 0.14699 0.10305 0.0
C83 C 0.14667 0.21867 0.16477 0.0
C84 C 0.20037 0.2065 0.15908 0.0
C85 C 0.2096 0.16316 0.12603 0.0
C86 C 0.16607 0.13342 0.09846 0.0
C87 C 0.24578 0.23873 0.18896 0.0
C88 C 0.28013 0.21152 0.21924 0.0
C89 C 0.25115 0.29635 0.1922 0.0
C90 C 0.22247 0.32822 0.1557 0.0
C91 C 0.22569 0.31891 0.10185 0.0
C92 C 0.19791 0.34809 0.06757 0.0
C93 C 0.16702 0.38704 0.0866 0.0
C94 C 0.1639 0.39693 0.13997 0.0
C95 C 0.19152 0.36778 0.17445 0.0
C96 C 0.41791 0.37354 0.35719 0.0
C97 C 0.38264 0.3933 0.39385 0.0
C98 C 0.39632 0.34002 0.31569 0.0
C99 C 0.33933 0.32611 0.31047 0.0
C100 C 0.30448 0.34346 0.34837 0.0
C101 C 0.32581 0.37638 0.3897 0.0
C102 C 0.31434 0.29621 0.2645 0.0
C103 C 0.28432 0.32412 0.23087 0.0
C104 C 0.31487 0.23992 0.25668 0.0
C105 C 0.35015 0.20989 0.28797 0.0
C106 C 0.34101 0.20334 0.34151 0.0
C107 C 0.37589 0.17652 0.37093 0.0
C108 C 0.41991 0.15602 0.34714 0.0
C109 C 0.429 0.16208 0.29383 0.0
C110 C 0.39415 0.18874 0.26423 0.0
H111 H 0.44696 0.13544 0.37001 0.0
H112 H 0.14551 0.40958 0.06 0.0
H113 H 0.94185 0.16643 0.16863 0.0
H114 H 0.87716 0.20713 0.22341 0.0
H115 H 0.7527 0.06906 0.19213 0.0
H116 H 0.81756 0.02947 0.13526 0.0
H117 H 0.70978 0.15431 0.17834 0.0
H118 H 0.80932 0.09983 0.31754 0.0
H119 H 0.88835 0.08515 0.37055 0.0
H120 H 0.93679 0.25802 0.38586 0.0
H121 H 0.85851 0.27384 0.33231 0.0
H122 H 0.54184 0.28434 0.36401 0.0
H123 H 0.59148 0.22092 0.31599 0.0
H124 H 0.72808 0.34884 0.29476 0.0
H125 H 0.67906 0.41253 0.34228 0.0
H126 H 0.75484 0.25423 0.34414 0.0
H127 H 0.65308 0.30072 0.19238 0.0
H128 H 0.56566 0.30801 0.14911 0.0
H129 H 0.51234 0.13712 0.17065 0.0
H130 H 0.59935 0.12894 0.21438 0.0
C131 C 0.9013 0.14391 0.17514 0.0
C132 C 0.88487 0.09437 0.14896 0.0
C133 C 0.86416 0.16718 0.20642 0.0
C134 C 0.80986 0.14105 0.21264 0.0
C135 C 0.79424 0.09006 0.18819 0.0
C136 C 0.83141 0.06705 0.15631 0.0
C137 C 0.76877 0.16987 0.24028 0.0
C138 C 0.71939 0.17518 0.21513 0.0
C139 C 0.78055 0.19715 0.28851 0.0
C140 C 0.82816 0.18801 0.32045 0.0
C141 C 0.8371 0.13475 0.33175 0.0
C142 C 0.88175 0.12622 0.36198 0.0
C143 C 0.91767 0.17062 0.38142 0.0
C144 C 0.909 0.22366 0.37068 0.0
C145 C 0.86441 0.23244 0.34047 0.0
C146 C 0.58176 0.29952 0.3478 0.0
C147 C 0.6067 0.35352 0.35779 0.0
C148 C 0.61021 0.26303 0.32058 0.0
C149 C 0.66388 0.27998 0.30269 0.0
C150 C 0.68698 0.33479 0.30889 0.0
C151 C 0.65856 0.37131 0.33573 0.0
C152 C 0.69786 0.24026 0.28096 0.0
C153 C 0.7455 0.23275 0.30758 0.0
C154 C 0.68367 0.20975 0.23511 0.0
C155 C 0.63252 0.21429 0.20684 0.0
C156 C 0.62266 0.26473 0.18791 0.0
C157 C 0.57321 0.26902 0.16332 0.0
C158 C 0.53343 0.22307 0.15722 0.0
C159 C 0.5432 0.17266 0.17537 0.0
C160 C 0.59262 0.16815 0.19994 0.0
H161 H 0.49506 0.22652 0.13839 0.0
H162 H 0.95211 0.16393 0.40495 0.0
H163 H 0.92114 0.78409 0.06937 0.0
H164 H 0.85849 0.72627 0.12566 0.0
H165 H 0.79077 0.86706 0.18183 0.0
H166 H 0.85452 0.9258 0.12611 0.0
H167 H 0.82122 0.80694 0.26005 0.0
H168 H 0.71863 0.77069 0.10173 0.0
H169 H 0.70842 0.74377 0.00945 0.0
H170 H 0.74989 0.58616 0.04352 0.0
H171 H 0.76128 0.61245 0.13594 0.0
H172 H 0.5888 0.70273 0.39345 0.0
H173 H 0.65087 0.74124 0.32631 0.0
H174 H 0.70827 0.58671 0.30293 0.0
H175 H 0.64445 0.5465 0.37105 0.0
H176 H 0.69036 0.6437 0.20821 0.0
H177 H 0.78824 0.67745 0.3667 0.0
H178 H 0.80054 0.70445 0.45876 0.0
H179 H 0.77086 0.86607 0.42381 0.0
H180 H 0.75745 0.83981 0.33165 0.0
C181 C 0.89249 0.80285 0.0932 0.0
C182 C 0.89318 0.85971 0.09362 0.0
C183 C 0.85644 0.76956 0.12517 0.0
C184 C 0.8199 0.79227 0.15788 0.0
C185 C 0.81879 0.84874 0.15686 0.0
C186 C 0.85496 0.88221 0.1248 0.0
C187 C 0.78583 0.75773 0.19588 0.0
C188 C 0.79216 0.77165 0.24861 0.0
C189 C 0.74981 0.71018 0.18104 0.0
C190 C 0.74127 0.69373 0.12574 0.0
C191 C 0.72586 0.73038 0.08953 0.0
C192 C 0.71985 0.71524 0.03719 0.0
C193 C 0.72862 0.66333 0.02062 0.0
C194 C 0.74316 0.62637 0.05641 0.0
C195 C 0.74934 0.64135 0.1088 0.0
C196 C 0.61442 0.6764 0.37443 0.0
C197 C 0.61199 0.62145 0.38832 0.0
C198 C 0.64995 0.69871 0.33578 0.0
C199 C 0.68467 0.66712 0.31016 0.0
C200 C 0.68179 0.61178 0.32253 0.0
C201 C 0.64564 0.58901 0.36154 0.0
C202 C 0.72482 0.694 0.27209 0.0
C203 C 0.71987 0.67868 0.21951 0.0
C204 C 0.76257 0.7402 0.28691 0.0
C205 C 0.77155 0.75653 0.34224 0.0
C206 C 0.78401 0.71867 0.37867 0.0
C207 C 0.79121 0.73384 0.43089 0.0
C208 C 0.78642 0.78692 0.44714 0.0
C209 C 0.77457 0.82497 0.41117 0.0
C210 C 0.76724 0.80997 0.35891 0.0
H211 H 0.79195 0.79857 0.48759 0.0
H212 H 0.72403 0.65172 0.98008 0.0
H213 H 0.19007 0.92012 0.09351 0.0
H214 H 0.2472 0.89 0.16074 0.0
H215 H 0.11742 0.89613 0.27301 0.0
H216 H 0.0602 0.92787 0.2058 0.0
H217 H 0.22202 0.92287 0.31699 0.0
H218 H 0.12253 0.78037 0.20988 0.0
H219 H 0.09319 0.73624 0.1263 0.0
H220 H 0.2607 0.72473 0.08687 0.0
H221 H 0.29109 0.76951 0.16999 0.0
H222 H 0.2751 0.64069 0.41452 0.0
H223 H 0.23058 0.70118 0.36213 0.0
H224 H 0.37094 0.82639 0.37794 0.0
H225 H 0.41633 0.76562 0.43169 0.0
H226 H 0.26446 0.73871 0.27054 0.0
H227 H 0.32348 0.95067 0.36408 0.0
H228 H 0.34595 0.99248 0.45021 0.0
H229 H 0.24664 0.85767 0.52328 0.0
H230 H 0.22331 0.81528 0.43752 0.0
C231 C 0.17401 0.91607 0.13274 0.0
C232 C 0.12029 0.92527 0.14428 0.0
C233 C 0.20682 0.8991 0.17114 0.0
C234 C 0.18614 0.88984 0.22157 0.0
C235 C 0.13408 0.90298 0.23426 0.0
C236 C 0.10137 0.92085 0.19584 0.0
C237 C 0.21558 0.85943 0.2584 0.0
C238 C 0.23157 0.88272 0.30689 0.0
C239 C 0.22738 0.80673 0.2454 0.0
C240 C 0.2091 0.77869 0.19592 0.0
C241 C 0.15311 0.76864 0.18328 0.0
C242 C 0.1363 0.7435 0.13601 0.0
C243 C 0.17507 0.72774 0.10128 0.0
C244 C 0.23072 0.73693 0.11384 0.0
C245 C 0.24777 0.76217 0.16101 0.0
C246 C 0.29679 0.68113 0.40733 0.0
C247 C 0.34975 0.698 0.42701 0.0
C248 C 0.27106 0.71574 0.37725 0.0
C249 C 0.29742 0.76819 0.3659 0.0
C250 C 0.34966 0.78613 0.38658 0.0
C251 C 0.37564 0.7513 0.41706 0.0
C252 C 0.27093 0.80183 0.32955 0.0
C253 C 0.25553 0.7791 0.28074 0.0
C254 C 0.25884 0.85433 0.34285 0.0
C255 C 0.27228 0.87954 0.3945 0.0
C256 C 0.30645 0.93 0.39855 0.0
C257 C 0.31936 0.95375 0.44728 0.0
C258 C 0.298 0.92755 0.49219 0.0
C259 C 0.2635 0.87765 0.48847 0.0
C260 C 0.25054 0.8537 0.43984 0.0
H261 H 0.30801 0.94602 0.52987 0.0
H262 H 0.16199 0.7084 0.06465 0.0
H263 H 0.0483 0.88059 0.80725 0.0
H264 H 0.09979 0.82134 0.75544 0.0
H265 H 0.249 0.89194 0.83203 0.0
H266 H 0.19717 0.94942 0.88508 0.0
H267 H 0.1864 0.82221 0.69077 0.0
H268 H 0.31834 0.79261 0.86974 0.0
H269 H 0.31395 0.80368 0.96492 0.0
H270 H 0.138 0.7771 0.95976 0.0
H271 H 0.14133 0.765 0.8647 0.0
H272 H 0.42199 0.65956 0.68154 0.0
H273 H 0.37041 0.71886 0.73261 0.0
H274 H 0.21884 0.63158 0.67357 0.0
H275 H 0.26992 0.57176 0.62271 0.0
H276 H 0.28092 0.70767 0.80586 0.0
H277 H 0.14634 0.73335 0.63013 0.0
H278 H 0.14748 0.7208 0.535 0.0
H279 H 0.32347 0.75123 0.53433 0.0
H280 H 0.32337 0.76484 0.62931 0.0
C281 C 0.09248 0.88513 0.81115 0.0
C282 C 0.11901 0.91957 0.84978 0.0
C283 C 0.12181 0.85094 0.78192 0.0
C284 C 0.17796 0.85106 0.791 0.0
C285 C 0.20547 0.89021 0.82527 0.0
C286 C 0.17606 0.92361 0.85503 0.0
C287 C 0.20616 0.80644 0.76973 0.0
C288 C 0.20654 0.79686 0.71599 0.0
C289 C 0.23266 0.77328 0.80263 0.0
C290 C 0.23016 0.77849 0.86003 0.0
C291 C 0.27873 0.78878 0.88896 0.0
C292 C 0.27642 0.79528 0.94288 0.0
C293 C 0.22574 0.79134 0.96832 0.0
C294 C 0.17723 0.78035 0.93997 0.0
C295 C 0.17931 0.77366 0.88608 0.0
C296 C 0.37759 0.65163 0.68092 0.0
C297 C 0.35014 0.61131 0.64755 0.0
C298 C 0.34819 0.68571 0.71001 0.0
C299 C 0.29097 0.68039 0.7058 0.0
C300 C 0.2631 0.63677 0.6767 0.0
C301 C 0.29242 0.60224 0.64805 0.0
C302 C 0.26134 0.72378 0.72703 0.0
C303 C 0.26067 0.73304 0.78075 0.0
C304 C 0.23408 0.75619 0.69418 0.0
C305 C 0.23479 0.74935 0.63691 0.0
C306 C 0.18526 0.73751 0.60965 0.0
C307 C 0.18573 0.73018 0.55579 0.0
C308 C 0.23551 0.73478 0.52876 0.0
C309 C 0.28496 0.74722 0.55541 0.0
C310 C 0.28471 0.75474 0.60927 0.0
H311 H 0.23566 0.72911 0.48713 0.0
H312 H 0.22406 0.79682 0.00999 0.0
H313 H 0.10824 0.23096 0.95181 0.0
H314 H 0.17488 0.28851 0.8981 0.0
H315 H 0.20663 0.14646 0.81078 0.0
H316 H 0.142 0.08864 0.86585 0.0
H317 H 0.2972 0.21299 0.81988 0.0
H318 H 0.11174 0.23363 0.77155 0.0
H319 H 0.0189 0.25622 0.78688 0.0
H320 H 0.08723 0.41888 0.83368 0.0
H321 H 0.18063 0.39692 0.81909 0.0
H322 H 0.37931 0.30616 0.57591 0.0
H323 H 0.32112 0.26667 0.64646 0.0
H324 H 0.33057 0.42487 0.7204 0.0
H325 H 0.38899 0.46524 0.64912 0.0
H326 H 0.22626 0.36177 0.72744 0.0
H327 H 0.41257 0.34179 0.7624 0.0
H328 H 0.50362 0.31747 0.74083 0.0
H329 H 0.43176 0.15095 0.71481 0.0
H330 H 0.34014 0.17441 0.73545 0.0
C331 C 0.13018 0.21201 0.92166 0.0
C332 C 0.11959 0.15543 0.91261 0.0
C333 C 0.16797 0.24495 0.8908 0.0
C334 C 0.19467 0.22206 0.84941 0.0
C335 C 0.18636 0.16517 0.84227 0.0
C336 C 0.14942 0.1321 0.87379 0.0
C337 C 0.22887 0.25709 0.81166 0.0
C338 C 0.28151 0.24532 0.79957 0.0
C339 C 0.20915 0.30037 0.78596 0.0
C340 C 0.15308 0.31349 0.79477 0.0
C341 C 0.10693 0.27409 0.78545 0.0
C342 C 0.0542 0.28682 0.79397 0.0
C343 C 0.04714 0.33899 0.81138 0.0
C344 C 0.09278 0.37849 0.82027 0.0
C345 C 0.1456 0.36594 0.81186 0.0
C346 C 0.36856 0.33284 0.60679 0.0
C347 C 0.38947 0.3887 0.60737 0.0
C348 C 0.33541 0.31012 0.64717 0.0
C349 C 0.32287 0.3426 0.68928 0.0
C350 C 0.34039 0.39907 0.68843 0.0
C351 C 0.37355 0.42206 0.64765 0.0
C352 C 0.29361 0.31645 0.73485 0.0
C353 C 0.24215 0.32999 0.74843 0.0
C354 C 0.31417 0.27445 0.7616 0.0
C355 C 0.36942 0.25995 0.75024 0.0
C356 C 0.41614 0.30003 0.75184 0.0
C357 C 0.46786 0.2864 0.73979 0.0
C358 C 0.47346 0.23271 0.7264 0.0
C359 C 0.42737 0.19251 0.7252 0.0
C360 C 0.37554 0.20595 0.73715 0.0
H361 H 0.51353 0.22225 0.71701 0.0
H362 H 0.00638 0.34901 0.81782 0.0
H363 H 0.97909 0.1132 0.80025 0.0
H364 H 0.94506 0.16663 0.7318 0.0
H365 H 0.79589 0.17159 0.81941 0.0
H366 H 0.83042 0.11994 0.88848 0.0
H367 H 0.86003 0.15928 0.66807 0.0
H368 H 0.75762 0.29743 0.81307 0.0
H369 H 0.76895 0.33045 0.9036 0.0
H370 H 0.93806 0.30714 0.8992 0.0
H371 H 0.92777 0.27472 0.80846 0.0
H372 H 0.64983 0.28183 0.56508 0.0
H373 H 0.71163 0.23514 0.61415 0.0
H374 H 0.821 0.38623 0.63564 0.0
H375 H 0.75819 0.43419 0.58634 0.0
H376 H 0.79893 0.33249 0.72598 0.0
H377 H 0.86008 0.28824 0.55851 0.0
H378 H 0.84961 0.25878 0.46696 0.0
H379 H 0.7715 0.10074 0.5138 0.0
H380 H 0.78044 0.12954 0.60567 0.0
C381 C 0.93852 0.12465 0.80429 0.0
C382 C 0.9075 0.11278 0.84981 0.0
C383 C 0.91922 0.15536 0.76526 0.0
C384 C 0.86853 0.17426 0.77109 0.0
C385 C 0.83578 0.1587 0.81472 0.0
C386 C 0.85535 0.12887 0.854 0.0
C387 C 0.85084 0.21259 0.73327 0.0
C388 C 0.84696 0.19727 0.68064 0.0
C389 C 0.83536 0.26309 0.74946 0.0
C390 C 0.84195 0.28345 0.80392 0.0
C391 C 0.79733 0.29972 0.83127 0.0
C392 C 0.80351 0.31825 0.88268 0.0
C393 C 0.85417 0.32085 0.90718 0.0
C394 C 0.8988 0.30506 0.88026 0.0
C395 C 0.89282 0.28662 0.82884 0.0
C396 C 0.68716 0.30541 0.5798 0.0
C397 C 0.69888 0.36196 0.57206 0.0
C398 C 0.72278 0.27838 0.60752 0.0
C399 C 0.77125 0.307 0.62803 0.0
C400 C 0.78388 0.36335 0.61977 0.0
C401 C 0.74812 0.39064 0.59156 0.0
C402 C 0.80575 0.27791 0.66136 0.0
C403 C 0.81287 0.29494 0.71324 0.0
C404 C 0.82475 0.22942 0.64434 0.0
C405 C 0.82076 0.2112 0.58911 0.0
C406 C 0.84047 0.24725 0.54933 0.0
C407 C 0.8348 0.23066 0.49735 0.0
C408 C 0.80985 0.17794 0.48457 0.0
C409 C 0.79083 0.14158 0.52377 0.0
C410 C 0.79625 0.158 0.57584 0.0
H411 H 0.80513 0.16528 0.44432 0.0
H412 H 0.85884 0.33511 0.947 0.0
H413 H 0.86771 0.8128 0.95841 0.0
H414 H 0.79064 0.76308 0.90943 0.0
H415 H 0.8322 0.87012 0.77986 0.0
H416 H 0.90583 0.92212 0.83057 0.0
H417 H 0.73049 0.85033 0.78235 0.0
H418 H 0.8701 0.73094 0.79311 0.0
H419 H 0.93174 0.67899 0.83992 0.0
H420 H 0.79335 0.58895 0.91793 0.0
H421 H 0.73098 0.64061 0.8717 0.0
H422 H 0.68553 0.65915 0.56693 0.0
H423 H 0.72557 0.71721 0.63856 0.0
H424 H 0.58686 0.65829 0.73561 0.0
H425 H 0.5453 0.60131 0.66302 0.0
H426 H 0.719 0.64992 0.76199 0.0
H427 H 0.57948 0.76442 0.73409 0.0
H428 H 0.52426 0.81562 0.67917 0.0
H429 H 0.67082 0.91474 0.62513 0.0
H430 H 0.72699 0.86346 0.67912 0.0
C431 C 0.85987 0.82555 0.91953 0.0
C432 C 0.8926 0.87075 0.89782 0.0
C433 C 0.8161 0.79705 0.89139 0.0
C434 C 0.80603 0.81183 0.8402 0.0
C435 C 0.83867 0.8577 0.81914 0.0
C436 C 0.88102 0.88723 0.84791 0.0
C437 C 0.76315 0.77907 0.80746 0.0
C438 C 0.72816 0.8065 0.77812 0.0
C439 C 0.7587 0.72157 0.80234 0.0
C440 C 0.79602 0.6899 0.82937 0.0
C441 C 0.85291 0.70013 0.82034 0.0
C442 C 0.88794 0.67074 0.84674 0.0
C443 C 0.86649 0.63076 0.88195 0.0
C444 C 0.80992 0.61992 0.89065 0.0
C445 C 0.7747 0.64916 0.86432 0.0
C446 C 0.66294 0.65956 0.60315 0.0
C447 C 0.61238 0.62588 0.60956 0.0
C448 C 0.68585 0.69263 0.64396 0.0
C449 C 0.65916 0.69183 0.69221 0.0
C450 C 0.60782 0.65954 0.69845 0.0
C451 C 0.58408 0.62735 0.65702 0.0
C452 C 0.68799 0.72155 0.73653 0.0
C453 C 0.72058 0.69356 0.76757 0.0
C454 C 0.69104 0.77851 0.74243 0.0
C455 C 0.65744 0.80974 0.71027 0.0
C456 C 0.59997 0.79675 0.71009 0.0
C457 C 0.56849 0.82588 0.67923 0.0
C458 C 0.59403 0.86833 0.64858 0.0
C459 C 0.6511 0.88182 0.64885 0.0
C460 C 0.68276 0.85277 0.67963 0.0
H461 H 0.56959 0.89084 0.62471 0.0
H462 H 0.89368 0.60813 0.90242 0.0
loop_
_geom_bond_atom_site_label_1
_geom_bond_atom_site_label_2
_geom_bond_distance
_geom_bond_site_symmetry_2
_ccdc_geom_bond_type
Fe0 O1 1.896 . S
Fe0 O4 1.703 1_554 S
Fe0 O9 2.088 1_655 S
Fe0 O14 1.926 1_654 S
Fe0 O20 2.088 . S
Fe0 O29 1.926 1_554 S
O1 Fe0 1.896 . S
O1 Fe3 1.716 1_665 S
Fe2 O4 1.886 1_445 S
Fe2 O5 1.715 . S
Fe2 O12 1.935 . S
Fe2 O13 2.077 1_545 S
Fe2 O19 1.935 1_455 S
Fe2 O28 2.077 1_445 S
Fe3 O1 1.716 1_445 S
Fe3 O6 1.886 . S
Fe3 O10 1.935 1_545 S
Fe3 O15 2.077 . S
Fe3 O21 1.935 1_445 S
Fe3 O25 2.077 1_455 S
O4 Fe0 1.703 1_556 S
O4 Fe2 1.886 1_665 S
O5 Fe2 1.715 . S
O5 Fe7 1.893 . S
O6 Fe3 1.886 . S
O6 Fe7 1.708 1_554 S
Fe7 O5 1.893 . S
Fe7 O6 1.708 1_556 S
Fe7 O11 2.083 . S
Fe7 O16 1.930 1_556 S
Fe7 O18 2.083 1_455 S
Fe7 O26 1.930 1_456 S
C8 O20 1.381 . S
C8 O21 1.421 . S
O9 Fe0 2.088 1_455 S
O9 C22 1.381 . S
O10 Fe3 1.935 1_565 S
O10 C22 1.421 . S
O11 Fe7 2.083 . S
O11 C27 1.381 . S
O12 Fe2 1.935 . S
O12 C27 1.421 . S
O13 Fe2 2.077 1_565 S
O13 C17 1.381 . S
O14 Fe0 1.926 1_456 S
O14 C17 1.421 . S
O15 Fe3 2.077 . S
O15 C23 1.381 . S
O16 Fe7 1.930 1_554 S
O16 C23 1.421 . S
C17 O13 1.381 . S
C17 O14 1.421 . S
O18 Fe7 2.083 1_655 S
O18 C30 1.381 . S
O19 Fe2 1.935 1_655 S
O19 C30 1.421 . S
O20 Fe0 2.088 . S
O20 C8 1.381 . S
O21 Fe3 1.935 1_665 S
O21 C8 1.421 . S
C22 O9 1.381 . S
C22 O10 1.421 . S
C23 O15 1.381 . S
C23 O16 1.421 . S
C24 O25 1.381 . S
C24 O26 1.421 . S
O25 Fe3 2.077 1_655 S
O25 C24 1.381 . S
O26 Fe7 1.930 1_654 S
O26 C24 1.421 . S
C27 O11 1.381 . S
C27 O12 1.421 . S
O28 Fe2 2.077 1_665 S
O28 C31 1.381 . S
O29 Fe0 1.926 1_556 S
O29 C31 1.421 . S
C30 O18 1.381 . S
C30 O19 1.421 . S
C31 O28 1.381 . S
C31 O29 1.421 . S
C32 O59 1.312 . S
C32 O60 1.208 . S
C33 O54 1.331 . S
C33 O57 1.244 . S
C34 O56 1.264 . S
C34 O58 1.273 . S
Mg35 O37 1.936 . S
Mg35 O44 2.081 . S
Mg35 O46 2.023 . S
Mg35 O50 2.031 . S
Mg35 O59 2.291 . S
Mg36 O37 1.963 . S
Mg36 O47 1.942 . S
Mg36 O48 1.955 . S
Mg36 O55 1.986 . S
O37 Mg35 1.936 . S
O37 Mg36 1.963 . S
O37 Mg38 1.915 . S
Mg38 O37 1.915 . S
Mg38 O39 1.915 . S
Mg38 O43 2.013 . S
Mg38 O49 2.114 . S
Mg38 O53 2.013 . S
Mg38 O59 2.114 . S
O39 Mg38 1.915 . S
O39 Mg40 1.936 . S
O39 Mg41 1.963 . S
Mg40 O39 1.936 . S
Mg40 O49 2.291 . S
Mg40 O54 2.081 . S
Mg40 O56 2.023 . S
Mg40 O60 2.031 . S
Mg41 O39 1.963 . S
Mg41 O45 1.986 . S
Mg41 O57 1.942 . S
Mg41 O58 1.955 . S
C42 O53 1.191 . S
C42 O55 1.307 . S
O43 Mg38 2.013 . S
O43 C62 1.191 . S
O44 Mg35 2.081 . S
O44 C52 1.331 . S
O45 Mg41 1.986 . S
O45 C62 1.307 . S
O46 Mg35 2.023 . S
O46 C61 1.264 . S
O47 Mg36 1.942 . S
O47 C52 1.244 . S
O48 Mg36 1.955 . S
O48 C61 1.273 . S
O49 Mg38 2.114 . S
O49 Mg40 2.291 . S
O49 C51 1.312 . S
O50 Mg35 2.031 . S
O50 C51 1.208 . S
C51 O49 1.312 . S
C51 O50 1.208 . S
C52 O44 1.331 . S
C52 O47 1.244 . S
O53 Mg38 2.013 . S
O53 C42 1.191 . S
O54 C33 1.331 . S
O54 Mg40 2.081 . S
O55 Mg36 1.986 . S
O55 C42 1.307 . S
O56 C34 1.264 . S
O56 Mg40 2.023 . S
O57 C33 1.244 . S
O57 Mg41 1.942 . S
O58 C34 1.273 . S
O58 Mg41 1.955 . S
O59 C32 1.312 . S
O59 Mg35 2.291 . S
O59 Mg38 2.114 . S
O60 C32 1.208 . S
O60 Mg40 2.031 . S
C61 O46 1.264 . S
C61 O48 1.273 . S
C62 O43 1.191 . S
C62 O45 1.307 . S
H63 C81 0.951 . S
H64 C83 0.951 . S
H65 C85 0.950 . S
H66 C86 0.950 . S
H67 C88 0.950 . S
H68 C91 0.950 . S
H69 C92 0.950 . S
H70 C94 0.950 . S
H71 C95 0.950 . S
H72 C96 0.951 . S
H73 C98 0.951 . S
H74 C100 0.950 . S
H75 C101 0.950 . S
H76 C103 0.950 . S
H77 C106 0.950 . S
H78 C107 0.950 . S
H79 C109 0.950 . S
H80 C110 0.950 . S
C81 H63 0.951 . S
C81 C82 1.366 . S
C81 C83 1.388 . S
C82 C81 1.366 . S
C82 C86 1.385 . S
C83 H64 0.951 . S
C83 C81 1.388 . S
C83 C84 1.366 . S
C84 C83 1.366 . S
C84 C85 1.414 . S
C84 C87 1.499 . S
C85 H65 0.950 . S
C85 C84 1.414 . S
C85 C86 1.374 . S
C86 H66 0.950 . S
C86 C82 1.385 . S
C86 C85 1.374 . S
C87 C84 1.499 . S
C87 C88 1.373 . S
C87 C89 1.389 . S
C88 H67 0.950 . S
C88 C87 1.373 . S
C88 C104 1.377 . S
C89 C87 1.389 . S
C89 C90 1.524 . S
C89 C103 1.377 . S
C90 C89 1.524 . S
C90 C91 1.397 . S
C90 C95 1.363 . S
C91 H68 0.950 . S
C91 C90 1.397 . S
C91 C92 1.334 . S
C92 H69 0.950 . S
C92 C91 1.334 . S
C92 C93 1.287 . S
C93 C92 1.287 . S
C93 C94 1.524 . S
C93 H112 0.913 . S
C94 H70 0.950 . S
C94 C93 1.524 . S
C94 C95 1.415 . S
C95 H71 0.950 . S
C95 C90 1.363 . S
C95 C94 1.415 . S
C96 H72 0.951 . S
C96 C97 1.366 . S
C96 C98 1.388 . S
C97 C96 1.366 . S
C97 C101 1.385 . S
C98 H73 0.951 . S
C98 C96 1.388 . S
C98 C99 1.366 . S
C99 C98 1.366 . S
C99 C100 1.414 . S
C99 C102 1.499 . S
C100 H74 0.950 . S
C100 C99 1.414 . S
C100 C101 1.374 . S
C101 H75 0.950 . S
C101 C97 1.385 . S
C101 C100 1.374 . S
C102 C99 1.499 . S
C102 C103 1.373 . S
C102 C104 1.389 . S
C103 H76 0.950 . S
C103 C89 1.377 . S
C103 C102 1.373 . S
C104 C88 1.377 . S
C104 C102 1.389 . S
C104 C105 1.524 . S
C105 C104 1.524 . S
C105 C106 1.397 . S
C105 C110 1.363 . S
C106 H77 0.950 . S
C106 C105 1.397 . S
C106 C107 1.334 . S
C107 H78 0.950 . S
C107 C106 1.334 . S
C107 C108 1.287 . S
C108 C107 1.287 . S
C108 C109 1.524 . S
C108 H111 0.999 . S
C109 H79 0.950 . S
C109 C108 1.524 . S
C109 C110 1.415 . S
C110 H80 0.950 . S
C110 C105 1.363 . S
C110 C109 1.415 . S
H111 C108 0.999 . S
H112 C93 0.913 . S
H113 C131 0.951 . S
H114 C133 0.951 . S
H115 C135 0.950 . S
H116 C136 0.950 . S
H117 C138 0.950 . S
H118 C141 0.950 . S
H119 C142 0.950 . S
H120 C144 0.950 . S
H121 C145 0.950 . S
H122 C146 0.951 . S
H123 C148 0.951 . S
H124 C150 0.950 . S
H125 C151 0.950 . S
H126 C153 0.950 . S
H127 C156 0.950 . S
H128 C157 0.950 . S
H129 C159 0.950 . S
H130 C160 0.950 . S
C131 H113 0.951 . S
C131 C132 1.366 . S
C131 C133 1.388 . S
C132 C131 1.366 . S
C132 C136 1.385 . S
C133 H114 0.951 . S
C133 C131 1.388 . S
C133 C134 1.366 . S
C134 C133 1.366 . S
C134 C135 1.414 . S
C134 C137 1.499 . S
C135 H115 0.950 . S
C135 C134 1.414 . S
C135 C136 1.374 . S
C136 H116 0.950 . S
C136 C132 1.385 . S
C136 C135 1.374 . S
C137 C134 1.499 . S
C137 C138 1.373 . S
C137 C139 1.389 . S
C138 H117 0.950 . S
C138 C137 1.373 . S
C138 C154 1.377 . S
C139 C137 1.389 . S
C139 C140 1.524 . S
C139 C153 1.377 . S
C140 C139 1.524 . S
C140 C141 1.397 . S
C140 C145 1.363 . S
C141 H118 0.950 . S
C141 C140 1.397 . S
C141 C142 1.334 . S
C142 H119 0.950 . S
C142 C141 1.334 . S
C142 C143 1.287 . S
C143 C142 1.287 . S
C143 C144 1.524 . S
C143 H162 0.913 . S
C144 H120 0.950 . S
C144 C143 1.524 . S
C144 C145 1.415 . S
C145 H121 0.950 . S
C145 C140 1.363 . S
C145 C144 1.415 . S
C146 H122 0.951 . S
C146 C147 1.366 . S
C146 C148 1.388 . S
C147 C146 1.366 . S
C147 C151 1.385 . S
C148 H123 0.951 . S
C148 C146 1.388 . S
C148 C149 1.366 . S
C149 C148 1.366 . S
C149 C150 1.414 . S
C149 C152 1.499 . S
C150 H124 0.950 . S
C150 C149 1.414 . S
C150 C151 1.374 . S
C151 H125 0.950 . S
C151 C147 1.385 . S
C151 C150 1.374 . S
C152 C149 1.499 . S
C152 C153 1.373 . S
C152 C154 1.389 . S
C153 H126 0.950 . S
C153 C139 1.377 . S
C153 C152 1.373 . S
C154 C138 1.377 . S
C154 C152 1.389 . S
C154 C155 1.524 . S
C155 C154 1.524 . S
C155 C156 1.397 . S
C155 C160 1.363 . S
C156 H127 0.950 . S
C156 C155 1.397 . S
C156 C157 1.334 . S
C157 H128 0.950 . S
C157 C156 1.334 . S
C157 C158 1.287 . S
C158 C157 1.287 . S
C158 C159 1.524 . S
C158 H161 0.999 . S
C159 H129 0.950 . S
C159 C158 1.524 . S
C159 C160 1.415 . S
C160 H130 0.950 . S
C160 C155 1.363 . S
C160 C159 1.415 . S
H161 C158 0.999 . S
H162 C143 0.913 . S
H163 C181 0.951 . S
H164 C183 0.951 . S
H165 C185 0.950 . S
H166 C186 0.950 . S
H167 C188 0.950 . S
H168 C191 0.950 . S
H169 C192 0.950 . S
H170 C194 0.950 . S
H171 C195 0.950 . S
H172 C196 0.951 . S
H173 C198 0.951 . S
H174 C200 0.950 . S
H175 C201 0.950 . S
H176 C203 0.950 . S
H177 C206 0.950 . S
H178 C207 0.950 . S
H179 C209 0.950 . S
H180 C210 0.950 . S
C181 H163 0.951 . S
C181 C182 1.366 . S
C181 C183 1.388 . S
C182 C181 1.366 . S
C182 C186 1.385 . S
C183 H164 0.951 . S
C183 C181 1.388 . S
C183 C184 1.366 . S
C184 C183 1.366 . S
C184 C185 1.414 . S
C184 C187 1.499 . S
C185 H165 0.950 . S
C185 C184 1.414 . S
C185 C186 1.374 . S
C186 H166 0.950 . S
C186 C182 1.385 . S
C186 C185 1.374 . S
C187 C184 1.499 . S
C187 C188 1.373 . S
C187 C189 1.389 . S
C188 H167 0.950 . S
C188 C187 1.373 . S
C188 C204 1.377 . S
C189 C187 1.389 . S
C189 C190 1.524 . S
C189 C203 1.377 . S
C190 C189 1.524 . S
C190 C191 1.397 . S
C190 C195 1.363 . S
C191 H168 0.950 . S
C191 C190 1.397 . S
C191 C192 1.334 . S
C192 H169 0.950 . S
C192 C191 1.334 . S
C192 C193 1.287 . S
C193 C192 1.287 . S
C193 C194 1.524 . S
C193 H212 0.913 . S
C194 H170 0.950 . S
C194 C193 1.524 . S
C194 C195 1.415 . S
C195 H171 0.950 . S
C195 C190 1.363 . S
C195 C194 1.415 . S
C196 H172 0.951 . S
C196 C197 1.366 . S
C196 C198 1.388 . S
C197 C196 1.366 . S
C197 C201 1.385 . S
C198 H173 0.951 . S
C198 C196 1.388 . S
C198 C199 1.366 . S
C199 C198 1.366 . S
C199 C200 1.414 . S
C199 C202 1.499 . S
C200 H174 0.950 . S
C200 C199 1.414 . S
C200 C201 1.374 . S
C201 H175 0.950 . S
C201 C197 1.385 . S
C201 C200 1.374 . S
C202 C199 1.499 . S
C202 C203 1.373 . S
C202 C204 1.389 . S
C203 H176 0.950 . S
C203 C189 1.377 . S
C203 C202 1.373 . S
C204 C188 1.377 . S
C204 C202 1.389 . S
C204 C205 1.524 . S
C205 C204 1.524 . S
C205 C206 1.397 . S
C205 C210 1.363 . S
C206 H177 0.950 . S
C206 C205 1.397 . S
C206 C207 1.334 . S
C207 H178 0.950 . S
C207 C206 1.334 . S
C207 C208 1.287 . S
C208 C207 1.287 . S
C208 C209 1.524 . S
C208 H211 0.999 . S
C209 H179 0.950 . S
C209 C208 1.524 . S
C209 C210 1.415 . S
C210 H180 0.950 . S
C210 C205 1.363 . S
C210 C209 1.415 . S
H211 C208 0.999 . S
H212 C193 0.913 . S
H213 C231 0.951 . S
H214 C233 0.951 . S
H215 C235 0.950 . S
H216 C236 0.950 . S
H217 C238 0.950 . S
H218 C241 0.950 . S
H219 C242 0.950 . S
H220 C244 0.950 . S
H221 C245 0.950 . S
H222 C246 0.951 . S
H223 C248 0.951 . S
H224 C250 0.950 . S
H225 C251 0.950 . S
H226 C253 0.950 . S
H227 C256 0.950 . S
H228 C257 0.950 . S
H229 C259 0.950 . S
H230 C260 0.950 . S
C231 H213 0.951 . S
C231 C232 1.366 . S
C231 C233 1.388 . S
C232 C231 1.366 . S
C232 C236 1.385 . S
C233 H214 0.951 . S
C233 C231 1.388 . S
C233 C234 1.366 . S
C234 C233 1.366 . S
C234 C235 1.414 . S
C234 C237 1.499 . S
C235 H215 0.950 . S
C235 C234 1.414 . S
C235 C236 1.374 . S
C236 H216 0.950 . S
C236 C232 1.385 . S
C236 C235 1.374 . S
C237 C234 1.499 . S
C237 C238 1.373 . S
C237 C239 1.389 . S
C238 H217 0.950 . S
C238 C237 1.373 . S
C238 C254 1.377 . S
C239 C237 1.389 . S
C239 C240 1.524 . S
C239 C253 1.377 . S
C240 C239 1.524 . S
C240 C241 1.397 . S
C240 C245 1.363 . S
C241 H218 0.950 . S
C241 C240 1.397 . S
C241 C242 1.334 . S
C242 H219 0.950 . S
C242 C241 1.334 . S
C242 C243 1.287 . S
C243 C242 1.287 . S
C243 C244 1.524 . S
C243 H262 0.913 . S
C244 H220 0.950 . S
C244 C243 1.524 . S
C244 C245 1.415 . S
C245 H221 0.950 . S
C245 C240 1.363 . S
C245 C244 1.415 . S
C246 H222 0.951 . S
C246 C247 1.366 . S
C246 C248 1.388 . S
C247 C246 1.366 . S
C247 C251 1.385 . S
C248 H223 0.951 . S
C248 C246 1.388 . S
C248 C249 1.366 . S
C249 C248 1.366 . S
C249 C250 1.414 . S
C249 C252 1.499 . S
C250 H224 0.950 . S
C250 C249 1.414 . S
C250 C251 1.374 . S
C251 H225 0.950 . S
C251 C247 1.385 . S
C251 C250 1.374 . S
C252 C249 1.499 . S
C252 C253 1.373 . S
C252 C254 1.389 . S
C253 H226 0.950 . S
C253 C239 1.377 . S
C253 C252 1.373 . S
C254 C238 1.377 . S
C254 C252 1.389 . S
C254 C255 1.524 . S
C255 C254 1.524 . S
C255 C256 1.397 . S
C255 C260 1.363 . S
C256 H227 0.950 . S
C256 C255 1.397 . S
C256 C257 1.334 . S
C257 H228 0.950 . S
C257 C256 1.334 . S
C257 C258 1.287 . S
C258 C257 1.287 . S
C258 C259 1.524 . S
C258 H261 0.999 . S
C259 H229 0.950 . S
C259 C258 1.524 . S
C259 C260 1.415 . S
C260 H230 0.950 . S
C260 C255 1.363 . S
C260 C259 1.415 . S
H261 C258 0.999 . S
H262 C243 0.913 . S
H263 C281 0.951 . S
H264 C283 0.951 . S
H265 C285 0.950 . S
H266 C286 0.950 . S
H267 C288 0.950 . S
H268 C291 0.950 . S
H269 C292 0.950 . S
H270 C294 0.950 . S
H271 C295 0.950 . S
H272 C296 0.951 . S
H273 C298 0.951 . S
H274 C300 0.950 . S
H275 C301 0.950 . S
H276 C303 0.950 . S
H277 C306 0.950 . S
H278 C307 0.950 . S
H279 C309 0.950 . S
H280 C310 0.950 . S
C281 H263 0.951 . S
C281 C282 1.366 . S
C281 C283 1.388 . S
C282 C281 1.366 . S
C282 C286 1.385 . S
C283 H264 0.951 . S
C283 C281 1.388 . S
C283 C284 1.366 . S
C284 C283 1.366 . S
C284 C285 1.414 . S
C284 C287 1.499 . S
C285 H265 0.950 . S
C285 C284 1.414 . S
C285 C286 1.374 . S
C286 H266 0.950 . S
C286 C282 1.385 . S
C286 C285 1.374 . S
C287 C284 1.499 . S
C287 C288 1.373 . S
C287 C289 1.389 . S
C288 H267 0.950 . S
C288 C287 1.373 . S
C288 C304 1.377 . S
C289 C287 1.389 . S
C289 C290 1.524 . S
C289 C303 1.377 . S
C290 C289 1.524 . S
C290 C291 1.397 . S
C290 C295 1.363 . S
C291 H268 0.950 . S
C291 C290 1.397 . S
C291 C292 1.334 . S
C292 H269 0.950 . S
C292 C291 1.334 . S
C292 C293 1.287 . S
C293 C292 1.287 . S
C293 C294 1.524 . S
C293 H312 0.913 . S
C294 H270 0.950 . S
C294 C293 1.524 . S
C294 C295 1.415 . S
C295 H271 0.950 . S
C295 C290 1.363 . S
C295 C294 1.415 . S
C296 H272 0.951 . S
C296 C297 1.366 . S
C296 C298 1.388 . S
C297 C296 1.366 . S
C297 C301 1.385 . S
C298 H273 0.951 . S
C298 C296 1.388 . S
C298 C299 1.366 . S
C299 C298 1.366 . S
C299 C300 1.414 . S
C299 C302 1.499 . S
C300 H274 0.950 . S
C300 C299 1.414 . S
C300 C301 1.374 . S
C301 H275 0.950 . S
C301 C297 1.385 . S
C301 C300 1.374 . S
C302 C299 1.499 . S
C302 C303 1.373 . S
C302 C304 1.389 . S
C303 H276 0.950 . S
C303 C289 1.377 . S
C303 C302 1.373 . S
C304 C288 1.377 . S
C304 C302 1.389 . S
C304 C305 1.524 . S
C305 C304 1.524 . S
C305 C306 1.397 . S
C305 C310 1.363 . S
C306 H277 0.950 . S
C306 C305 1.397 . S
C306 C307 1.334 . S
C307 H278 0.950 . S
C307 C306 1.334 . S
C307 C308 1.287 . S
C308 C307 1.287 . S
C308 C309 1.524 . S
C308 H311 0.999 . S
C309 H279 0.950 . S
C309 C308 1.524 . S
C309 C310 1.415 . S
C310 H280 0.950 . S
C310 C305 1.363 . S
C310 C309 1.415 . S
H311 C308 0.999 . S
H312 C293 0.913 . S
H313 C331 0.951 . S
H314 C333 0.951 . S
H315 C335 0.950 . S
H316 C336 0.950 . S
H317 C338 0.950 . S
H318 C341 0.950 . S
H319 C342 0.950 . S
H320 C344 0.950 . S
H321 C345 0.950 . S
H322 C346 0.951 . S
H323 C348 0.951 . S
H324 C350 0.950 . S
H325 C351 0.950 . S
H326 C353 0.950 . S
H327 C356 0.950 . S
H328 C357 0.950 . S
H329 C359 0.950 . S
H330 C360 0.950 . S
C331 H313 0.951 . S
C331 C332 1.366 . S
C331 C333 1.388 . S
C332 C331 1.366 . S
C332 C336 1.385 . S
C333 H314 0.951 . S
C333 C331 1.388 . S
C333 C334 1.366 . S
C334 C333 1.366 . S
C334 C335 1.414 . S
C334 C337 1.499 . S
C335 H315 0.950 . S
C335 C334 1.414 . S
C335 C336 1.374 . S
C336 H316 0.950 . S
C336 C332 1.385 . S
C336 C335 1.374 . S
C337 C334 1.499 . S
C337 C338 1.373 . S
C337 C339 1.389 . S
C338 H317 0.950 . S
C338 C337 1.373 . S
C338 C354 1.377 . S
C339 C337 1.389 . S
C339 C340 1.524 . S
C339 C353 1.377 . S
C340 C339 1.524 . S
C340 C341 1.397 . S
C340 C345 1.363 . S
C341 H318 0.950 . S
C341 C340 1.397 . S
C341 C342 1.334 . S
C342 H319 0.950 . S
C342 C341 1.334 . S
C342 C343 1.287 . S
C343 C342 1.287 . S
C343 C344 1.524 . S
C343 H362 0.913 . S
C344 H320 0.950 . S
C344 C343 1.524 . S
C344 C345 1.415 . S
C345 H321 0.950 . S
C345 C340 1.363 . S
C345 C344 1.415 . S
C346 H322 0.951 . S
C346 C347 1.366 . S
C346 C348 1.388 . S
C347 C346 1.366 . S
C347 C351 1.385 . S
C348 H323 0.951 . S
C348 C346 1.388 . S
C348 C349 1.366 . S
C349 C348 1.366 . S
C349 C350 1.414 . S
C349 C352 1.499 . S
C350 H324 0.950 . S
C350 C349 1.414 . S
C350 C351 1.374 . S
C351 H325 0.950 . S
C351 C347 1.385 . S
C351 C350 1.374 . S
C352 C349 1.499 . S
C352 C353 1.373 . S
C352 C354 1.389 . S
C353 H326 0.950 . S
C353 C339 1.377 . S
C353 C352 1.373 . S
C354 C338 1.377 . S
C354 C352 1.389 . S
C354 C355 1.524 . S
C355 C354 1.524 . S
C355 C356 1.397 . S
C355 C360 1.363 . S
C356 H327 0.950 . S
C356 C355 1.397 . S
C356 C357 1.334 . S
C357 H328 0.950 . S
C357 C356 1.334 . S
C357 C358 1.287 . S
C358 C357 1.287 . S
C358 C359 1.524 . S
C358 H361 0.999 . S
C359 H329 0.950 . S
C359 C358 1.524 . S
C359 C360 1.415 . S
C360 H330 0.950 . S
C360 C355 1.363 . S
C360 C359 1.415 . S
H361 C358 0.999 . S
H362 C343 0.913 . S
H363 C381 0.951 . S
H364 C383 0.951 . S
H365 C385 0.950 . S
H366 C386 0.950 . S
H367 C388 0.950 . S
H368 C391 0.950 . S
H369 C392 0.950 . S
H370 C394 0.950 . S
H371 C395 0.950 . S
H372 C396 0.951 . S
H373 C398 0.951 . S
H374 C400 0.950 . S
H375 C401 0.950 . S
H376 C403 0.950 . S
H377 C406 0.950 . S
H378 C407 0.950 . S
H379 C409 0.950 . S
H380 C410 0.950 . S
C381 H363 0.951 . S
C381 C382 1.366 . S
C381 C383 1.388 . S
C382 C381 1.366 . S
C382 C386 1.385 . S
C383 H364 0.951 . S
C383 C381 1.388 . S
C383 C384 1.366 . S
C384 C383 1.366 . S
C384 C385 1.414 . S
C384 C387 1.499 . S
C385 H365 0.950 . S
C385 C384 1.414 . S
C385 C386 1.374 . S
C386 H366 0.950 . S
C386 C382 1.385 . S
C386 C385 1.374 . S
C387 C384 1.499 . S
C387 C388 1.373 . S
C387 C389 1.389 . S
C388 H367 0.950 . S
C388 C387 1.373 . S
C388 C404 1.377 . S
C389 C387 1.389 . S
C389 C390 1.524 . S
C389 C403 1.377 . S
C390 C389 1.524 . S
C390 C391 1.397 . S
C390 C395 1.363 . S
C391 H368 0.950 . S
C391 C390 1.397 . S
C391 C392 1.334 . S
C392 H369 0.950 . S
C392 C391 1.334 . S
C392 C393 1.287 . S
C393 C392 1.287 . S
C393 C394 1.524 . S
C393 H412 0.913 . S
C394 H370 0.950 . S
C394 C393 1.524 . S
C394 C395 1.415 . S
C395 H371 0.950 . S
C395 C390 1.363 . S
C395 C394 1.415 . S
C396 H372 0.951 . S
C396 C397 1.366 . S
C396 C398 1.388 . S
C397 C396 1.366 . S
C397 C401 1.385 . S
C398 H373 0.951 . S
C398 C396 1.388 . S
C398 C399 1.366 . S
C399 C398 1.366 . S
C399 C400 1.414 . S
C399 C402 1.499 . S
C400 H374 0.950 . S
C400 C399 1.414 . S
C400 C401 1.374 . S
C401 H375 0.950 . S
C401 C397 1.385 . S
C401 C400 1.374 . S
C402 C399 1.499 . S
C402 C403 1.373 . S
C402 C404 1.389 . S
C403 H376 0.950 . S
C403 C389 1.377 . S
C403 C402 1.373 . S
C404 C388 1.377 . S
C404 C402 1.389 . S
C404 C405 1.524 . S
C405 C404 1.524 . S
C405 C406 1.397 . S
C405 C410 1.363 . S
C406 H377 0.950 . S
C406 C405 1.397 . S
C406 C407 1.334 . S
C407 H378 0.950 . S
C407 C406 1.334 . S
C407 C408 1.287 . S
C408 C407 1.287 . S
C408 C409 1.524 . S
C408 H411 0.999 . S
C409 H379 0.950 . S
C409 C408 1.524 . S
C409 C410 1.415 . S
C410 H380 0.950 . S
C410 C405 1.363 . S
C410 C409 1.415 . S
H411 C408 0.999 . S
H412 C393 0.913 . S
H413 C431 0.951 . S
H414 C433 0.951 . S
H415 C435 0.950 . S
H416 C436 0.950 . S
H417 C438 0.950 . S
H418 C441 0.950 . S
H419 C442 0.950 . S
H420 C444 0.950 . S
H421 C445 0.950 . S
H422 C446 0.951 . S
H423 C448 0.951 . S
H424 C450 0.950 . S
H425 C451 0.950 . S
H426 C453 0.950 . S
H427 C456 0.950 . S
H428 C457 0.950 . S
H429 C459 0.950 . S
H430 C460 0.950 . S
C431 H413 0.951 . S
C431 C432 1.366 . S
C431 C433 1.388 . S
C432 C431 1.366 . S
C432 C436 1.385 . S
C433 H414 0.951 . S
C433 C431 1.388 . S
C433 C434 1.366 . S
C434 C433 1.366 . S
C434 C435 1.414 . S
C434 C437 1.499 . S
C435 H415 0.950 . S
C435 C434 1.414 . S
C435 C436 1.374 . S
C436 H416 0.950 . S
C436 C432 1.385 . S
C436 C435 1.374 . S
C437 C434 1.499 . S
C437 C438 1.373 . S
C437 C439 1.389 . S
C438 H417 0.950 . S
C438 C437 1.373 . S
C438 C454 1.377 . S
C439 C437 1.389 . S
C439 C440 1.524 . S
C439 C453 1.377 . S
C440 C439 1.524 . S
C440 C441 1.397 . S
C440 C445 1.363 . S
C441 H418 0.950 . S
C441 C440 1.397 . S
C441 C442 1.334 . S
C442 H419 0.950 . S
C442 C441 1.334 . S
C442 C443 1.287 . S
C443 C442 1.287 . S
C443 C444 1.524 . S
C443 H462 0.913 . S
C444 H420 0.950 . S
C444 C443 1.524 . S
C444 C445 1.415 . S
C445 H421 0.950 . S
C445 C440 1.363 . S
C445 C444 1.415 . S
C446 H422 0.951 . S
C446 C447 1.366 . S
C446 C448 1.388 . S
C447 C446 1.366 . S
C447 C451 1.385 . S
C448 H423 0.951 . S
C448 C446 1.388 . S
C448 C449 1.366 . S
C449 C448 1.366 . S
C449 C450 1.414 . S
C449 C452 1.499 . S
C450 H424 0.950 . S
C450 C449 1.414 . S
C450 C451 1.374 . S
C451 H425 0.950 . S
C451 C447 1.385 . S
C451 C450 1.374 . S
C452 C449 1.499 . S
C452 C453 1.373 . S
C452 C454 1.389 . S
C453 H426 0.950 . S
C453 C439 1.377 . S
C453 C452 1.373 . S
C454 C438 1.377 . S
C454 C452 1.389 . S
C454 C455 1.524 . S
C455 C454 1.524 . S
C455 C456 1.397 . S
C455 C460 1.363 . S
C456 H427 0.950 . S
C456 C455 1.397 . S
C456 C457 1.334 . S
C457 H428 0.950 . S
C457 C456 1.334 . S
C457 C458 1.287 . S
C458 C457 1.287 . S
C458 C459 1.524 . S
C458 H461 0.999 . S
C459 H429 0.950 . S
C459 C458 1.524 . S
C459 C460 1.415 . S
C460 H430 0.950 . S
C460 C455 1.363 . S
C460 C459 1.415 . S
H461 C458 0.999 . S
H462 C443 0.913 . S
C82 C23 1.266 . S
C97 C42 1.272 . S
C132 C24 1.631 . S
C147 C34 1.642 . S
C182 C8 1.312 . S
C197 C51 1.302 . S
C232 C22 1.560 . S
C247 C52 1.574 . S
C282 C17 1.624 . S
C297 C61 1.644 . S
C347 C62 1.273 . S
C332 C27 1.262 . S
C382 C30 1.553 . S
C397 C33 1.575 . S
C447 C32 1.301 . S
C432 C31 1.319 . S
