# Generated by pormake.
# Topology anh, (6,3)-cn, num edge types: 1
# Building blocks:
#     Node 0, Type 0, BuildingBlock: HISSIN_clean_sbu_0, # of connection points: 6
#     Node 1, Type 0, BuildingBlock: HISSIN_clean_sbu_0, # of connection points: 6
#     Node 2, Type 0, BuildingBlock: HISSIN_clean_sbu_0, # of connection points: 6
#     Node 3, Type 1, BuildingBlock: OLANEW_clean_sbu_2, # of connection points: 3
#     Node 4, Type 1, BuildingBlock: OLANEW_clean_sbu_2, # of connection points: 3
#     Node 5, Type 1, BuildingBlock: OLANEW_clean_sbu_2, # of connection points: 3
#     Node 6, Type 1, BuildingBlock: OLANEW_clean_sbu_2, # of connection points: 3
#     Node 7, Type 1, BuildingBlock: OLANEW_clean_sbu_2, # of connection points: 3
#     Node 8, Type 1, BuildingBlock: OLANEW_clean_sbu_2, # of connection points: 3
#     Edge 9, Type (0, 1), BuildingBlock: AJUNOK_clean_linker_0, # of connection points: 2
#     Edge 10, Type (0, 1), BuildingBlock: AJUNOK_clean_linker_0, # of connection points: 2
#     Edge 11, Type (0, 1), BuildingBlock: AJUNOK_clean_linker_0, # of connection points: 2
#     Edge 12, Type (0, 1), BuildingBlock: AJUNOK_clean_linker_0, # of connection points: 2
#     Edge 13, Type (0, 1), BuildingBlock: AJUNOK_clean_linker_0, # of connection points: 2
#     Edge 14, Type (0, 1), BuildingBlock: AJUNOK_clean_linker_0, # of connection points: 2
#     Edge 15, Type (0, 1), BuildingBlock: AJUNOK_clean_linker_0, # of connection points: 2
#     Edge 16, Type (0, 1), BuildingBlock: AJUNOK_clean_linker_0, # of connection points: 2
#     Edge 17, Type (0, 1), BuildingBlock: AJUNOK_clean_linker_0, # of connection points: 2
#     Edge 18, Type (0, 1), BuildingBlock: AJUNOK_clean_linker_0, # of connection points: 2
#     Edge 19, Type (0, 1), BuildingBlock: AJUNOK_clean_linker_0, # of connection points: 2
#     Edge 20, Type (0, 1), BuildingBlock: AJUNOK_clean_linker_0, # of connection points: 2
#     Edge 21, Type (0, 1), BuildingBlock: AJUNOK_clean_linker_0, # of connection points: 2
#     Edge 22, Type (0, 1), BuildingBlock: AJUNOK_clean_linker_0, # of connection points: 2
#     Edge 23, Type (0, 1), BuildingBlock: AJUNOK_clean_linker_0, # of connection points: 2
#     Edge 24, Type (0, 1), BuildingBlock: AJUNOK_clean_linker_0, # of connection points: 2
#     Edge 25, Type (0, 1), BuildingBlock: AJUNOK_clean_linker_0, # of connection points: 2
#     Edge 26, Type (0, 1), BuildingBlock: AJUNOK_clean_linker_0, # of connection points: 2
# Relax obj value: 0.324
# Max RMSD: 0.144
# Mean RMSD: 0.120
data_MOF--net-anh--node1-HISSIN_clean_sbu_0--node2-OLANEW_clean_sbu_2--edge1-AJUNOK_clean_linker_0
_symmetry_space_group_name_H-M    P1
_symmetry_Int_Tables_number       1
_symmetry_cell_setting            triclinic
loop_
_symmetry_equiv_pos_as_xyz
'x, y, z'
_cell_length_a     28.30146
_cell_length_b     28.150466
_cell_length_c     36.716423
_cell_angle_alpha  93.836997
_cell_angle_beta   88.983768
_cell_angle_gamma 119.86753
loop_
_atom_site_label
_atom_site_type_symbol
_atom_site_fract_x
_atom_site_fract_y
_atom_site_fract_z
_atom_type_partial_charge
Eu0 Eu 1.02352 0.47723 0.17393 0.0
Eu1 Eu 0.09097 0.6091 0.18953 0.0
C2 C 1.04021 0.53276 0.25468 0.0
C3 C 0.90392 0.33616 0.1641 0.0
C4 C 0.87462 0.3522 0.1882 0.0
C5 C 0.8187 0.26182 0.13808 0.0
C6 C 0.81797 0.32368 0.18703 0.0
C7 C 0.87575 0.29044 0.1393 0.0
C8 C 0.78957 0.27922 0.16139 0.0
C9 C 0.9632 0.37102 0.16217 0.0
O10 O 0.15262 0.58043 0.19568 0.0
O11 O 0.10999 0.49953 0.16066 0.0
C12 C 0.15453 0.54064 0.17583 0.0
O13 O 1.02718 0.51541 0.12079 0.0
O14 O 0.13612 0.67789 0.22908 0.0
O15 O 0.12495 0.69324 0.17364 0.0
O16 O 0.10869 0.59384 0.1317 0.0
C17 C 0.07088 0.55783 0.10905 0.0
O18 O 0.95889 0.50121 0.18485 0.0
O19 O 1.00747 0.59074 0.16981 0.0
O20 O 1.04151 0.57374 0.23907 0.0
O21 O 0.97953 0.40489 0.13629 0.0
O22 O 0.98876 0.39479 0.19302 0.0
O23 O 1.04508 0.49507 0.23462 0.0
C24 C 0.20914 0.75212 0.20313 0.0
C25 C 0.2451 0.73139 0.19906 0.0
C26 C 0.28595 0.84465 0.20715 0.0
C27 C 0.30129 0.7671 0.19982 0.0
C28 C 0.22973 0.80886 0.20678 0.0
C29 C 0.32205 0.82394 0.20422 0.0
C30 C 0.15046 0.71439 0.20491 0.0
C31 C 0.96059 0.54634 0.17541 0.0
H32 H 0.8955 0.38762 0.20741 0.0
H33 H 0.7974 0.2272 0.11837 0.0
H34 H 0.79619 0.33656 0.20604 0.0
H35 H 0.89783 0.27791 0.12028 0.0
H36 H 0.22971 0.68759 0.19593 0.0
H37 H 0.30134 0.88848 0.21068 0.0
H38 H 0.32849 0.75041 0.19719 0.0
H39 H 0.20243 0.82538 0.20991 0.0
Eu40 Eu 0.58001 1.02339 0.49958 0.0
Eu41 Eu 0.5091 0.08438 0.51613 0.0
C42 C 0.55503 0.04846 0.58251 0.0
C43 C 0.61674 0.91188 0.49203 0.0
C44 C 0.59839 0.8914 0.52641 0.0
C45 C 0.60526 0.82356 0.46987 0.0
C46 C 0.5845 0.83767 0.53263 0.0
C47 C 0.61975 0.87753 0.46377 0.0
C48 C 0.5877 0.80315 0.50441 0.0
C49 C 0.62936 0.96755 0.48454 0.0
O50 O 0.59061 0.14906 0.49484 0.0
O51 O 0.64431 0.1128 0.50814 0.0
C52 C 0.63918 0.15415 0.49853 0.0
O53 O 0.57574 0.05936 0.44747 0.0
O54 O 0.48923 0.13772 0.55099 0.0
O55 O 0.45126 0.10809 0.49762 0.0
O56 O 0.49216 0.04937 0.458 0.0
C57 C 0.53071 0.05565 0.43538 0.0
O58 O 0.49165 0.95667 0.49357 0.0
O59 O 0.44754 0.99584 0.5253 0.0
O60 O 0.54528 0.08578 0.57074 0.0
O61 O 0.59562 0.96979 0.46196 0.0
O62 O 0.6426 1.00325 0.51255 0.0
O63 O 0.56059 1.01375 0.55957 0.0
C64 C 0.48575 0.20155 0.51557 0.0
C65 C 0.52121 0.22042 0.48596 0.0
C66 C 0.51537 0.29587 0.5366 0.0
C67 C 0.55504 0.27651 0.48259 0.0
C68 C 0.48151 0.23958 0.54005 0.0
C69 C 0.55406 0.31452 0.50882 0.0
C70 C 0.46285 0.14435 0.52493 0.0
C71 C 0.44778 0.95263 0.50932 0.0
H72 H 0.59496 0.9169 0.54855 0.0
H73 H 0.60803 0.79783 0.44762 0.0
H74 H 0.57255 0.82365 0.5598 0.0
H75 H 0.63305 0.89241 0.43692 0.0
H76 H 0.52567 0.19191 0.46686 0.0
H77 H 0.51423 0.32465 0.55723 0.0
H78 H 0.58439 0.29015 0.46085 0.0
H79 H 0.45495 0.22583 0.56329 0.0
Eu80 Eu 0.50115 0.51059 0.84264 0.0
Eu81 Eu 0.62735 0.57599 0.87053 0.0
C82 C 0.53484 0.53698 0.9256 0.0
C83 C 0.36319 0.49242 0.82718 0.0
C84 C 0.3802 0.54284 0.84696 0.0
C85 C 0.28393 0.49453 0.80509 0.0
C86 C 0.34942 0.56884 0.84592 0.0
C87 C 0.31498 0.4684 0.80613 0.0
C88 C 0.30115 0.54522 0.82483 0.0
C89 C 0.39721 0.46661 0.82775 0.0
O90 O 0.6019 0.48464 0.86511 0.0
O91 O 0.52586 0.44761 0.82784 0.0
C92 C 0.56589 0.44444 0.84275 0.0
O93 O 0.54898 0.5395 0.79095 0.0
O94 O 0.67994 0.58853 0.91694 0.0
O95 O 0.71519 0.63154 0.86804 0.0
O96 O 0.63492 0.56175 0.8109 0.0
C97 C 0.6001 0.55348 0.78487 0.0
O98 O 0.52303 0.59976 0.85105 0.0
O99 O 0.6166 0.64442 0.85047 0.0
O100 O 0.57405 0.58258 0.9142 0.0
O101 O 0.43425 0.48111 0.80281 0.0
O102 O 0.41658 0.46678 0.85974 0.0
O103 O 0.50977 0.49522 0.90163 0.0
C104 C 0.76327 0.59696 0.89783 0.0
C105 C 0.74423 0.54021 0.89532 0.0
C106 C 0.85614 0.61439 0.89519 0.0
C107 C 0.78091 0.52069 0.8931 0.0
C108 C 0.81939 0.63393 0.89769 0.0
C109 C 0.8371 0.55762 0.89283 0.0
C110 C 0.72455 0.61736 0.89904 0.0
C111 C 0.57035 0.64436 0.84709 0.0
H112 H 0.41726 0.56208 0.86344 0.0
H113 H 0.24665 0.47532 0.78883 0.0
H114 H 0.36292 0.60702 0.86225 0.0
H115 H 0.30145 0.42962 0.79055 0.0
H116 H 0.701 0.51091 0.895 0.0
H117 H 0.89945 0.64358 0.89551 0.0
H118 H 0.76542 0.47679 0.89125 0.0
H119 H 0.83472 0.6778 0.8994 0.0
O120 O 0.4713 0.11358 0.27975 0.0
Cd121 Cd 0.45811 0.12896 0.21697 0.0
O122 O 0.54908 0.11855 0.26496 0.0
Cd123 Cd 0.61103 0.09502 0.27306 0.0
O124 O 0.56278 1.00743 0.25977 0.0
C125 C 0.5444 0.99636 0.22717 0.0
O126 O 0.56445 1.03608 0.20478 0.0
C127 C 0.51265 0.11001 0.28853 0.0
C128 C 0.5586 0.17485 0.18369 0.0
O129 O 0.52828 0.12261 0.18366 0.0
O130 O 0.5404 0.205 0.19844 0.0
O131 O 0.74883 0.6192 0.64118 0.0
Cd132 Cd 0.78754 0.63691 0.5803 0.0
O133 O 0.67005 0.57448 0.61244 0.0
Cd134 Cd 0.5824 0.5417 0.60592 0.0
O135 O 0.54708 0.5832 0.5789 0.0
C136 C 0.57285 0.60385 0.55022 0.0
O137 O 0.61062 0.59224 0.5393 0.0
C138 C 0.69714 0.59078 0.64231 0.0
C139 C 0.72252 0.53926 0.53978 0.0
O140 O 0.76617 0.54824 0.55605 0.0
O141 O 0.71166 0.57839 0.54053 0.0
O142 O 0.10912 0.67176 0.95552 0.0
Cd143 Cd 0.12128 0.69992 0.89291 0.0
O144 O 0.11813 0.60122 0.93615 0.0
Cd145 Cd 0.09873 0.51644 0.94192 0.0
O146 O 1.01318 0.48725 0.931 0.0
C147 C 1.00404 0.49721 0.89947 0.0
O148 O 1.04303 0.51255 0.87548 0.0
C149 C 0.10884 0.62777 0.96195 0.0
C150 C 0.17591 0.65311 0.85592 0.0
O151 O 0.12381 0.62697 0.8574 0.0
O152 O 0.2018 0.70208 0.87078 0.0
O153 O 0.10231 0.59864 0.42407 0.0
Cd154 Cd 0.1442 0.63907 0.48573 0.0
O155 O 1.02983 0.5203 0.43696 0.0
Cd156 Cd 0.9505 0.44074 0.43372 0.0
O157 O 0.87734 0.36318 0.45027 0.0
C158 C 0.82854 0.35443 0.44928 0.0
O159 O 0.8199 0.39221 0.43687 0.0
C160 C 0.05969 0.55369 0.41341 0.0
C161 C 0.24424 0.74084 0.49123 0.0
O162 O 0.2432 0.6948 0.48662 0.0
O163 O 0.19813 0.73924 0.49207 0.0
O164 O 0.57017 0.98149 0.74638 0.0
Cd165 Cd 0.56963 0.94562 0.80721 0.0
O166 O 0.57049 0.05791 0.76508 0.0
Cd167 Cd 0.57268 0.13931 0.76969 0.0
O168 O 0.56628 0.21536 0.78184 0.0
C169 C 0.58943 0.24947 0.80929 0.0
O170 O 0.61943 0.2403 0.83155 0.0
C171 C 0.56957 1.02499 0.73884 0.0
C172 C 0.57187 0.8462 0.81335 0.0
O173 O 0.52754 0.84591 0.8062 0.0
O174 O 0.61565 0.89306 0.81622 0.0
O175 O 0.60935 0.53695 0.08646 0.0
Cd176 Cd 0.66003 0.55532 0.14568 0.0
O177 O 0.5396 0.5449 0.10738 0.0
Cd178 Cd 0.46033 0.54492 0.10831 0.0
O179 O 0.37847 0.53681 0.11958 0.0
C180 C 0.37012 0.56429 0.14546 0.0
O181 O 0.41173 0.60001 0.16617 0.0
C182 C 0.56488 0.53693 0.08057 0.0
C183 C 0.75687 0.54855 0.151 0.0
O184 O 0.70982 0.50772 0.15714 0.0
O185 O 0.75832 0.5918 0.1405 0.0
C186 C 0.25597 0.58465 0.18736 0.0
C187 C 0.2085 0.54407 0.16853 0.0
C188 C 0.3075 0.59056 0.17976 0.0
C189 C 0.31436 0.55643 0.15277 0.0
H190 H 0.25352 0.61241 0.20819 0.0
H191 H 0.34238 0.62263 0.19515 0.0
S192 S 0.2035 0.44371 0.09519 0.0
N193 N 0.17215 0.46898 0.12135 0.0
N194 N 0.26856 0.48024 0.10717 0.0
C195 C 0.26727 0.51556 0.13375 0.0
C196 C 0.21465 0.50933 0.1416 0.0
C197 C 0.68244 0.24416 0.46868 0.0
C198 C 0.68861 0.20567 0.48771 0.0
C199 C 0.72766 0.29134 0.45621 0.0
C200 C 0.78152 0.30284 0.46234 0.0
H201 H 0.64218 0.23757 0.46278 0.0
H202 H 0.72006 0.31913 0.44161 0.0
S203 S 0.8208 0.21607 0.51136 0.0
N204 N 0.75358 0.18283 0.51232 0.0
N205 N 0.83822 0.27148 0.48923 0.0
C206 C 0.78845 0.26486 0.48146 0.0
C207 C 0.74225 0.21653 0.49407 0.0
C208 C 0.61468 0.74781 0.84858 0.0
C209 C 0.57091 0.69552 0.83771 0.0
C210 C 0.61518 0.79618 0.84002 0.0
C211 C 0.57207 0.79436 0.82005 0.0
H212 H 0.64845 0.75146 0.86436 0.0
H213 H 0.64924 0.83533 0.84976 0.0
S214 S 0.45235 0.66781 0.78 0.0
N215 N 0.48624 0.64511 0.80252 0.0
N216 N 0.48706 0.73538 0.78657 0.0
C217 C 0.52907 0.74228 0.80789 0.0
C218 C 0.52853 0.69315 0.81666 0.0
C219 C 0.90662 0.58519 0.14832 0.0
C220 C 0.90836 0.54659 0.17003 0.0
C221 C 0.85764 0.58524 0.14204 0.0
C222 C 0.80812 0.54671 0.15717 0.0
H223 H 0.94331 0.61541 0.1357 0.0
H224 H 0.85865 0.61569 0.12501 0.0
S225 S 0.79138 0.44069 0.21929 0.0
N226 N 0.85639 0.47096 0.2086 0.0
N227 N 0.76502 0.47131 0.19703 0.0
C228 C 0.80949 0.50853 0.17946 0.0
C229 C 0.8593 0.50841 0.18582 0.0
C230 C 0.34515 0.89463 0.50876 0.0
C231 C 0.3965 0.89807 0.50654 0.0
C232 C 0.29647 0.84392 0.50358 0.0
C233 C 0.29679 0.79423 0.49625 0.0
H234 H 0.34244 0.93153 0.51376 0.0
H235 H 0.25817 0.84385 0.50528 0.0
S236 S 0.42066 0.78019 0.48994 0.0
N237 N 0.44456 0.84671 0.49797 0.0
N238 N 0.35367 0.75201 0.48847 0.0
C239 C 0.34798 0.79701 0.49469 0.0
C240 C 0.39749 0.84867 0.49976 0.0
C241 C 0.60483 0.38319 0.85492 0.0
C242 C 0.57075 0.39419 0.83379 0.0
C243 C 0.61044 0.33663 0.84673 0.0
C244 C 0.5826 0.29886 0.81684 0.0
H245 H 0.62724 0.41056 0.87822 0.0
H246 H 0.63708 0.33037 0.86415 0.0
S247 S 0.48997 0.30964 0.75164 0.0
N248 N 0.50974 0.36368 0.78072 0.0
N249 N 0.52041 0.27683 0.76549 0.0
C250 C 0.54879 0.30964 0.79522 0.0
C251 C 0.54284 0.35695 0.80365 0.0
C252 C 0.61567 0.73194 0.50058 0.0
C253 C 0.57758 0.7478 0.51192 0.0
C254 C 0.61162 0.6834 0.51131 0.0
C255 C 0.56962 0.64901 0.53417 0.0
H256 H 0.65052 0.75853 0.48474 0.0
H257 H 0.64345 0.67443 0.50307 0.0
S258 S 0.45435 0.66748 0.56629 0.0
N259 N 0.49242 0.72187 0.54312 0.0
N260 N 0.48545 0.63092 0.56422 0.0
C261 C 0.52923 0.66255 0.54382 0.0
C262 C 0.53313 0.71193 0.53255 0.0
C263 C 0.87459 0.50251 0.91757 0.0
C264 C 0.87599 0.53704 0.89115 0.0
C265 C 0.91459 0.48717 0.91884 0.0
C266 C 0.95697 0.50529 0.89345 0.0
H267 H 0.84372 0.48922 0.93835 0.0
H268 H 0.91332 0.46253 0.94068 0.0
S269 S 0.97429 0.59115 0.81613 0.0
N270 N 0.9198 0.58514 0.83726 0.0
N271 N 0.99476 0.55596 0.83905 0.0
C272 C 0.95667 0.53715 0.86549 0.0
C273 C 0.91631 0.55326 0.86456 0.0
C274 C 0.40587 0.90461 0.18331 0.0
C275 C 0.38127 0.86207 0.20704 0.0
C276 C 0.46034 0.94563 0.1884 0.0
C277 C 0.49183 0.94615 0.2179 0.0
H278 H 0.38229 0.90711 0.16134 0.0
H279 H 0.4767 0.97883 0.17025 0.0
S280 S 0.44712 0.84047 0.28566 0.0
N281 N 0.39289 0.81989 0.25919 0.0
N282 N 0.49545 0.89757 0.26925 0.0
C283 C 0.46841 0.90196 0.24061 0.0
C284 C 0.41302 0.85978 0.23508 0.0
C285 C 0.5866 0.41518 0.51187 0.0
C286 C 0.59843 0.37227 0.51069 0.0
C287 C 0.62793 0.46985 0.51863 0.0
C288 C 0.68229 0.48329 0.52509 0.0
H289 H 0.54492 0.40624 0.50866 0.0
H290 H 0.61654 0.50135 0.52072 0.0
S291 S 0.73414 0.38532 0.52371 0.0
N292 N 0.66811 0.34643 0.51529 0.0
N293 N 0.74583 0.44901 0.52787 0.0
C294 C 0.69481 0.44071 0.52237 0.0
C295 C 0.65283 0.3852 0.51527 0.0
C296 C 0.2119 0.54187 0.83418 0.0
C297 C 0.26744 0.57208 0.82582 0.0
C298 C 0.18148 0.56815 0.84161 0.0
C299 C 0.20564 0.62555 0.84117 0.0
H300 H 0.19257 0.49808 0.83706 0.0
H301 H 0.13968 0.5436 0.84981 0.0
S302 S 0.34701 0.72179 0.81422 0.0
N303 N 0.34323 0.66124 0.81245 0.0
N304 N 0.28634 0.71078 0.82704 0.0
C305 C 0.26002 0.65565 0.83029 0.0
C306 C 0.29084 0.62886 0.82247 0.0
C307 C 0.69883 0.19466 0.16481 0.0
C308 C 0.7295 0.25109 0.15991 0.0
C309 C 0.64251 0.16936 0.17001 0.0
C310 C 0.61524 0.19975 0.17083 0.0
H311 H 0.71886 0.17061 0.16662 0.0
H312 H 0.62091 0.12643 0.17543 0.0
S313 S 0.67598 0.34628 0.15154 0.0
N314 N 0.72782 0.33479 0.15029 0.0
N315 N 0.62201 0.28747 0.16078 0.0
C316 C 0.64494 0.25528 0.16304 0.0
C317 C 0.70212 0.28089 0.15744 0.0
C318 C 0.1134 0.56398 0.04857 0.0
C319 C 0.07525 0.5697 0.07052 0.0
C320 C 0.12292 0.58155 1.01298 0.0
C321 C 0.09536 0.60637 0.9986 0.0
H322 H 0.13676 0.54687 0.05925 0.0
H323 H 0.15353 0.57752 0.99712 0.0
S324 S 0.99158 0.63063 0.04587 0.0
N325 N 1.00948 0.60102 0.07589 0.0
N326 N 1.02788 0.63509 1.00918 0.0
C327 C 0.05684 0.61194 0.02042 0.0
C328 C 1.0466 0.59324 0.05639 0.0
C329 C 0.57207 0.09938 0.37749 0.0
C330 C 0.52543 0.06487 0.3969 0.0
C331 C 0.56763 0.11346 0.34231 0.0
C332 C 0.51648 0.09285 0.32507 0.0
H333 H 0.6122 0.11742 0.39008 0.0
H334 H 0.60447 0.1422 0.32909 0.0
S335 S 0.38224 0.9971 0.36311 0.0
N336 N 0.42669 1.00815 0.39571 0.0
N337 N 0.41844 1.03373 0.32932 0.0
C338 C 0.46965 0.05709 0.34383 0.0
C339 C 0.47411 0.04317 0.37976 0.0
C340 C 0.6698 0.61139 0.74156 0.0
C341 C 0.62097 0.56298 0.74767 0.0
C342 C 0.69355 0.62028 0.70716 0.0
C343 C 0.66956 0.58078 0.67778 0.0
H344 H 0.68995 0.64255 0.76364 0.0
H345 H 0.73115 0.6583 0.70362 0.0
S346 S 0.54459 0.44437 0.68122 0.0
N347 N 0.55052 0.47402 0.72256 0.0
N348 N 0.59654 0.48926 0.65806 0.0
C349 C 0.62103 0.53167 0.68377 0.0
C350 C 0.59631 0.52315 0.71873 0.0
C351 C 0.58541 1.01763 0.63562 0.0
C352 C 0.55989 0.04536 0.62266 0.0
C353 C 0.5894 1.0128 0.67313 0.0
C354 C 0.56794 1.03526 0.69956 0.0
H355 H 0.60253 0.99935 0.61664 0.0
H356 H 0.60931 0.9908 0.68147 0.0
S357 S 0.49357 0.10858 0.68007 0.0
N358 N 0.51132 0.09443 0.63947 0.0
N359 N 0.51736 0.08366 0.70967 0.0
C360 C 0.54201 0.06285 0.68703 0.0
C361 C 0.53835 0.06827 0.64874 0.0
C362 C 0.53799 0.48972 0.97999 0.0
C363 C 0.53041 0.53041 0.9654 0.0
C364 C 0.54633 0.49038 1.01773 0.0
C365 C 0.54565 0.53069 0.04229 0.0
H366 H 0.54121 0.45943 0.96194 0.0
H367 H 0.55532 0.46029 0.02765 0.0
S368 S 0.52315 0.64366 0.01792 0.0
N369 N 0.52042 0.6106 0.97838 0.0
N370 N 0.53362 0.61039 0.04936 0.0
C371 C 0.53471 0.56948 0.0282 0.0
C372 C 0.52779 0.56974 0.98972 0.0
C373 C 1.0518 0.58316 0.31545 0.0
C374 C 1.03885 0.5336 0.29539 0.0
C375 C 0.05588 0.58802 0.35359 0.0
C376 C 1.04618 0.54336 0.37371 0.0
H377 H 0.06092 0.6195 0.30162 0.0
H378 H 0.068 0.62772 0.36748 0.0
S379 S 1.00697 0.40322 0.33513 0.0
N380 N 1.01359 0.43782 0.29894 0.0
N381 N 1.02049 0.447 0.37102 0.0
C382 C 1.03073 0.49275 0.35438 0.0
C383 C 1.02739 0.48792 0.31518 0.0
loop_
_geom_bond_atom_site_label_1
_geom_bond_atom_site_label_2
_geom_bond_distance
_geom_bond_site_symmetry_2
_ccdc_geom_bond_type
Eu0 C9 2.828 . S
Eu0 O11 2.392 1_655 S
Eu0 O13 2.418 . S
Eu0 O18 2.373 . S
Eu0 O21 2.488 . S
Eu0 O22 2.471 . S
Eu0 O23 2.349 . S
Eu1 O10 2.373 . S
Eu1 O14 2.488 . S
Eu1 O15 2.471 . S
Eu1 O16 2.349 . S
Eu1 O19 2.392 1_455 S
Eu1 O20 2.418 . S
Eu1 C30 2.828 . S
C2 O20 1.244 . S
C2 O23 1.265 1_455 S
C3 C4 1.379 . S
C3 C7 1.373 . S
C3 C9 1.505 . S
C4 C3 1.379 . S
C4 C6 1.369 . S
C4 H32 0.930 . S
C5 C7 1.383 . S
C5 C8 1.382 . S
C5 H33 0.930 . S
C6 C4 1.369 . S
C6 C8 1.392 . S
C6 H34 0.930 . S
C7 C3 1.373 . S
C7 C5 1.383 . S
C7 H35 0.931 . S
C8 C5 1.382 . S
C8 C6 1.392 . S
C9 Eu0 2.828 . S
C9 C3 1.505 . S
C9 O21 1.249 . S
C9 O22 1.244 . S
O10 Eu1 2.373 . S
O10 C12 1.258 . S
O11 Eu0 2.392 1_455 S
O11 C12 1.242 . S
C12 O10 1.258 . S
C12 O11 1.242 . S
O13 Eu0 2.418 . S
O13 C17 1.244 . S
O14 Eu1 2.488 . S
O14 C30 1.249 . S
O15 Eu1 2.471 . S
O15 C30 1.244 . S
O16 Eu1 2.349 . S
O16 C17 1.265 1_455 S
C17 O13 1.244 . S
C17 O16 1.265 1_655 S
O18 Eu0 2.373 . S
O18 C31 1.258 . S
O19 Eu1 2.392 1_655 S
O19 C31 1.242 . S
O20 Eu1 2.418 . S
O20 C2 1.244 . S
O21 Eu0 2.488 . S
O21 C9 1.249 . S
O22 Eu0 2.471 . S
O22 C9 1.244 . S
O23 Eu0 2.349 . S
O23 C2 1.265 1_655 S
C24 C25 1.379 . S
C24 C28 1.373 . S
C24 C30 1.505 . S
C25 C24 1.379 . S
C25 C27 1.369 . S
C25 H36 0.930 . S
C26 C28 1.383 . S
C26 C29 1.382 . S
C26 H37 0.930 . S
C27 C25 1.369 . S
C27 C29 1.392 . S
C27 H38 0.930 . S
C28 C24 1.373 . S
C28 C26 1.383 . S
C28 H39 0.931 . S
C29 C26 1.382 . S
C29 C27 1.392 . S
C30 Eu1 2.828 . S
C30 O14 1.249 . S
C30 O15 1.244 . S
C30 C24 1.505 . S
C31 O18 1.258 . S
C31 O19 1.242 . S
H32 C4 0.930 . S
H33 C5 0.930 . S
H34 C6 0.930 . S
H35 C7 0.931 . S
H36 C25 0.930 . S
H37 C26 0.930 . S
H38 C27 0.930 . S
H39 C28 0.931 . S
Eu40 C49 2.828 . S
Eu40 O51 2.392 1_565 S
Eu40 O53 2.418 . S
Eu40 O58 2.373 . S
Eu40 O61 2.488 . S
Eu40 O62 2.471 . S
Eu40 O63 2.349 . S
Eu41 O50 2.373 . S
Eu41 O54 2.488 . S
Eu41 O55 2.471 . S
Eu41 O56 2.349 . S
Eu41 O59 2.392 1_545 S
Eu41 O60 2.418 . S
Eu41 C70 2.828 . S
C42 O60 1.244 . S
C42 O63 1.265 1_545 S
C43 C44 1.379 . S
C43 C47 1.373 . S
C43 C49 1.505 . S
C44 C43 1.379 . S
C44 C46 1.369 . S
C44 H72 0.930 . S
C45 C47 1.383 . S
C45 C48 1.382 . S
C45 H73 0.930 . S
C46 C44 1.369 . S
C46 C48 1.392 . S
C46 H74 0.930 . S
C47 C43 1.373 . S
C47 C45 1.383 . S
C47 H75 0.931 . S
C48 C45 1.382 . S
C48 C46 1.392 . S
C49 Eu40 2.828 . S
C49 C43 1.505 . S
C49 O61 1.249 . S
C49 O62 1.244 . S
O50 Eu41 2.373 . S
O50 C52 1.258 . S
O51 Eu40 2.392 1_545 S
O51 C52 1.242 . S
C52 O50 1.258 . S
C52 O51 1.242 . S
O53 Eu40 2.418 . S
O53 C57 1.241 . S
O54 Eu41 2.488 . S
O54 C70 1.249 . S
O55 Eu41 2.471 . S
O55 C70 1.244 . S
O56 Eu41 2.349 . S
O56 C57 1.266 1_545 S
C57 O53 1.241 . S
C57 O56 1.266 1_565 S
O58 Eu40 2.373 . S
O58 C71 1.258 . S
O59 Eu41 2.392 1_565 S
O59 C71 1.242 . S
O60 Eu41 2.418 . S
O60 C42 1.244 . S
O61 Eu40 2.488 . S
O61 C49 1.249 . S
O62 Eu40 2.471 . S
O62 C49 1.244 . S
O63 Eu40 2.349 . S
O63 C42 1.265 1_565 S
C64 C65 1.379 . S
C64 C68 1.373 . S
C64 C70 1.505 . S
C65 C64 1.379 . S
C65 C67 1.369 . S
C65 H76 0.930 . S
C66 C68 1.383 . S
C66 C69 1.382 . S
C66 H77 0.930 . S
C67 C65 1.369 . S
C67 C69 1.392 . S
C67 H78 0.930 . S
C68 C64 1.373 . S
C68 C66 1.383 . S
C68 H79 0.931 . S
C69 C66 1.382 . S
C69 C67 1.392 . S
C70 Eu41 2.828 . S
C70 O54 1.249 . S
C70 O55 1.244 . S
C70 C64 1.505 . S
C71 O58 1.258 . S
C71 O59 1.242 . S
H72 C44 0.930 . S
H73 C45 0.930 . S
H74 C46 0.930 . S
H75 C47 0.931 . S
H76 C65 0.930 . S
H77 C66 0.930 . S
H78 C67 0.930 . S
H79 C68 0.931 . S
Eu80 C89 2.828 . S
Eu80 O91 2.392 . S
Eu80 O93 2.418 . S
Eu80 O98 2.373 . S
Eu80 O101 2.488 . S
Eu80 O102 2.471 . S
Eu80 O103 2.349 . S
Eu81 O90 2.373 . S
Eu81 O94 2.488 . S
Eu81 O95 2.471 . S
Eu81 O96 2.349 . S
Eu81 O99 2.392 . S
Eu81 O100 2.418 . S
Eu81 C110 2.828 . S
C82 O100 1.244 . S
C82 O103 1.265 . S
C83 C84 1.379 . S
C83 C87 1.373 . S
C83 C89 1.505 . S
C84 C83 1.379 . S
C84 C86 1.369 . S
C84 H112 0.930 . S
C85 C87 1.383 . S
C85 C88 1.382 . S
C85 H113 0.930 . S
C86 C84 1.369 . S
C86 C88 1.392 . S
C86 H114 0.930 . S
C87 C83 1.373 . S
C87 C85 1.383 . S
C87 H115 0.931 . S
C88 C85 1.382 . S
C88 C86 1.392 . S
C89 Eu80 2.828 . S
C89 C83 1.505 . S
C89 O101 1.249 . S
C89 O102 1.244 . S
O90 Eu81 2.373 . S
O90 C92 1.258 . S
O91 Eu80 2.392 . S
O91 C92 1.242 . S
C92 O90 1.258 . S
C92 O91 1.242 . S
O93 Eu80 2.418 . S
O93 C97 1.244 . S
O94 Eu81 2.488 . S
O94 C110 1.249 . S
O95 Eu81 2.471 . S
O95 C110 1.244 . S
O96 Eu81 2.349 . S
O96 C97 1.265 . S
C97 O93 1.244 . S
C97 O96 1.265 . S
O98 Eu80 2.373 . S
O98 C111 1.258 . S
O99 Eu81 2.392 . S
O99 C111 1.242 . S
O100 Eu81 2.418 . S
O100 C82 1.244 . S
O101 Eu80 2.488 . S
O101 C89 1.249 . S
O102 Eu80 2.471 . S
O102 C89 1.244 . S
O103 Eu80 2.349 . S
O103 C82 1.265 . S
C104 C105 1.379 . S
C104 C108 1.373 . S
C104 C110 1.505 . S
C105 C104 1.379 . S
C105 C107 1.369 . S
C105 H116 0.930 . S
C106 C108 1.383 . S
C106 C109 1.382 . S
C106 H117 0.930 . S
C107 C105 1.369 . S
C107 C109 1.392 . S
C107 H118 0.930 . S
C108 C104 1.373 . S
C108 C106 1.383 . S
C108 H119 0.931 . S
C109 C106 1.382 . S
C109 C107 1.392 . S
C110 Eu81 2.828 . S
C110 O94 1.249 . S
C110 O95 1.244 . S
C110 C104 1.505 . S
C111 O98 1.258 . S
C111 O99 1.242 . S
H112 C84 0.930 . S
H113 C85 0.930 . S
H114 C86 0.930 . S
H115 C87 0.931 . S
H116 C105 0.930 . S
H117 C106 0.930 . S
H118 C107 0.930 . S
H119 C108 0.931 . S
O120 Cd121 2.300 . S
O120 C127 1.275 . S
Cd121 O120 2.300 . S
Cd121 O129 2.381 . S
Cd121 O130 2.378 . S
O122 Cd123 2.385 . S
O122 C127 1.255 1_565 S
Cd123 O122 2.385 . S
Cd123 O124 2.317 . S
O124 Cd123 2.317 . S
O124 C125 1.232 . S
C125 O124 1.232 . S
C125 O126 1.218 . S
O126 C125 1.218 . S
C127 O120 1.275 . S
C127 O122 1.255 1_545 S
C128 O129 1.258 . S
C128 O130 1.256 . S
O129 Cd121 2.381 . S
O129 C128 1.258 . S
O130 Cd121 2.378 . S
O130 C128 1.256 . S
O131 Cd132 2.300 . S
O131 C138 1.275 . S
Cd132 O131 2.300 . S
Cd132 O140 2.381 . S
Cd132 O141 2.378 . S
O133 Cd134 2.385 . S
O133 C138 1.255 . S
Cd134 O133 2.385 . S
Cd134 O135 2.317 . S
O135 Cd134 2.317 . S
O135 C136 1.232 . S
C136 O135 1.232 . S
C136 O137 1.218 . S
O137 C136 1.218 . S
C138 O131 1.275 . S
C138 O133 1.255 . S
C139 O140 1.258 . S
C139 O141 1.256 . S
O140 Cd132 2.381 . S
O140 C139 1.258 . S
O141 Cd132 2.378 . S
O141 C139 1.256 . S
O142 Cd143 2.300 . S
O142 C149 1.275 . S
Cd143 O142 2.300 . S
Cd143 O151 2.381 . S
Cd143 O152 2.378 . S
O144 Cd145 2.385 . S
O144 C149 1.255 1_655 S
Cd145 O144 2.385 . S
Cd145 O146 2.317 . S
O146 Cd145 2.317 . S
O146 C147 1.232 . S
C147 O146 1.232 . S
C147 O148 1.218 . S
O148 C147 1.218 . S
C149 O142 1.275 . S
C149 O144 1.255 1_455 S
C150 O151 1.258 . S
C150 O152 1.256 . S
O151 Cd143 2.381 . S
O151 C150 1.258 . S
O152 Cd143 2.378 . S
O152 C150 1.256 . S
O153 Cd154 2.300 . S
O153 C160 1.276 . S
Cd154 O153 2.300 . S
Cd154 O162 2.381 . S
Cd154 O163 2.378 . S
O155 Cd156 2.385 . S
O155 C160 1.255 1_655 S
Cd156 O155 2.385 . S
Cd156 O157 2.317 . S
O157 Cd156 2.317 . S
O157 C158 1.232 . S
C158 O157 1.232 . S
C158 O159 1.218 . S
O159 C158 1.218 . S
C160 O153 1.276 . S
C160 O155 1.255 1_455 S
C161 O162 1.258 . S
C161 O163 1.256 . S
O162 Cd154 2.381 . S
O162 C161 1.258 . S
O163 Cd154 2.378 . S
O163 C161 1.256 . S
O164 Cd165 2.300 . S
O164 C171 1.275 1_565 S
Cd165 O164 2.300 . S
Cd165 O173 2.381 . S
Cd165 O174 2.378 . S
O166 Cd167 2.385 . S
O166 C171 1.255 . S
Cd167 O166 2.385 . S
Cd167 O168 2.317 . S
O168 Cd167 2.317 . S
O168 C169 1.232 . S
C169 O168 1.232 . S
C169 O170 1.218 . S
O170 C169 1.218 . S
C171 O164 1.275 1_545 S
C171 O166 1.255 . S
C172 O173 1.258 . S
C172 O174 1.256 . S
O173 Cd165 2.381 . S
O173 C172 1.258 . S
O174 Cd165 2.378 . S
O174 C172 1.256 . S
O175 Cd176 2.300 . S
O175 C182 1.275 . S
Cd176 O175 2.300 . S
Cd176 O184 2.381 . S
Cd176 O185 2.378 . S
O177 Cd178 2.385 . S
O177 C182 1.255 . S
Cd178 O177 2.385 . S
Cd178 O179 2.317 . S
O179 Cd178 2.317 . S
O179 C180 1.232 . S
C180 O179 1.232 . S
C180 O181 1.218 . S
O181 C180 1.218 . S
C182 O175 1.275 . S
C182 O177 1.255 . S
C183 O184 1.258 . S
C183 O185 1.256 . S
O184 Cd176 2.381 . S
O184 C183 1.258 . S
O185 Cd176 2.378 . S
O185 C183 1.256 . S
C186 C187 1.369 . S
C186 C188 1.419 . S
C186 H190 0.930 . S
C187 C186 1.369 . S
C187 C196 1.429 . S
C188 C186 1.419 . S
C188 C189 1.363 . S
C188 H191 0.929 . S
C189 C188 1.363 . S
C189 C195 1.428 . S
H190 C186 0.930 . S
H191 C188 0.929 . S
S192 N193 1.613 . S
S192 N194 1.610 . S
N193 S192 1.613 . S
N193 C196 1.350 . S
N194 S192 1.610 . S
N194 C195 1.351 . S
C195 C189 1.428 . S
C195 N194 1.351 . S
C195 C196 1.434 . S
C196 C187 1.429 . S
C196 N193 1.350 . S
C196 C195 1.434 . S
C197 C198 1.369 . S
C197 C199 1.419 . S
C197 H201 0.930 . S
C198 C197 1.369 . S
C198 C207 1.429 . S
C199 C197 1.419 . S
C199 C200 1.363 . S
C199 H202 0.929 . S
C200 C199 1.363 . S
C200 C206 1.428 . S
H201 C197 0.930 . S
H202 C199 0.929 . S
S203 N204 1.613 . S
S203 N205 1.610 . S
N204 S203 1.613 . S
N204 C207 1.350 . S
N205 S203 1.610 . S
N205 C206 1.351 . S
C206 C200 1.428 . S
C206 N205 1.351 . S
C206 C207 1.434 . S
C207 C198 1.429 . S
C207 N204 1.350 . S
C207 C206 1.434 . S
C208 C209 1.369 . S
C208 C210 1.419 . S
C208 H212 0.930 . S
C209 C208 1.369 . S
C209 C218 1.429 . S
C210 C208 1.419 . S
C210 C211 1.363 . S
C210 H213 0.929 . S
C211 C210 1.363 . S
C211 C217 1.428 . S
H212 C208 0.930 . S
H213 C210 0.929 . S
S214 N215 1.613 . S
S214 N216 1.610 . S
N215 S214 1.613 . S
N215 C218 1.350 . S
N216 S214 1.610 . S
N216 C217 1.351 . S
C217 C211 1.428 . S
C217 N216 1.351 . S
C217 C218 1.434 . S
C218 C209 1.429 . S
C218 N215 1.350 . S
C218 C217 1.434 . S
C219 C220 1.369 . S
C219 C221 1.419 . S
C219 H223 0.930 . S
C220 C219 1.369 . S
C220 C229 1.429 . S
C221 C219 1.419 . S
C221 C222 1.363 . S
C221 H224 0.929 . S
C222 C221 1.363 . S
C222 C228 1.428 . S
H223 C219 0.930 . S
H224 C221 0.929 . S
S225 N226 1.613 . S
S225 N227 1.610 . S
N226 S225 1.613 . S
N226 C229 1.350 . S
N227 S225 1.610 . S
N227 C228 1.351 . S
C228 C222 1.428 . S
C228 N227 1.351 . S
C228 C229 1.434 . S
C229 C220 1.429 . S
C229 N226 1.350 . S
C229 C228 1.434 . S
C230 C231 1.369 . S
C230 C232 1.419 . S
C230 H234 0.930 . S
C231 C230 1.369 . S
C231 C240 1.429 . S
C232 C230 1.419 . S
C232 C233 1.363 . S
C232 H235 0.929 . S
C233 C232 1.363 . S
C233 C239 1.428 . S
H234 C230 0.930 . S
H235 C232 0.929 . S
S236 N237 1.613 . S
S236 N238 1.610 . S
N237 S236 1.613 . S
N237 C240 1.350 . S
N238 S236 1.610 . S
N238 C239 1.351 . S
C239 C233 1.428 . S
C239 N238 1.351 . S
C239 C240 1.434 . S
C240 C231 1.429 . S
C240 N237 1.350 . S
C240 C239 1.434 . S
C241 C242 1.369 . S
C241 C243 1.419 . S
C241 H245 0.930 . S
C242 C241 1.369 . S
C242 C251 1.429 . S
C243 C241 1.419 . S
C243 C244 1.363 . S
C243 H246 0.929 . S
C244 C243 1.363 . S
C244 C250 1.428 . S
H245 C241 0.930 . S
H246 C243 0.929 . S
S247 N248 1.613 . S
S247 N249 1.610 . S
N248 S247 1.613 . S
N248 C251 1.350 . S
N249 S247 1.610 . S
N249 C250 1.351 . S
C250 C244 1.428 . S
C250 N249 1.351 . S
C250 C251 1.434 . S
C251 C242 1.429 . S
C251 N248 1.350 . S
C251 C250 1.434 . S
C252 C253 1.369 . S
C252 C254 1.419 . S
C252 H256 0.930 . S
C253 C252 1.369 . S
C253 C262 1.429 . S
C254 C252 1.419 . S
C254 C255 1.363 . S
C254 H257 0.929 . S
C255 C254 1.363 . S
C255 C261 1.428 . S
H256 C252 0.930 . S
H257 C254 0.929 . S
S258 N259 1.613 . S
S258 N260 1.610 . S
N259 S258 1.613 . S
N259 C262 1.350 . S
N260 S258 1.610 . S
N260 C261 1.351 . S
C261 C255 1.428 . S
C261 N260 1.351 . S
C261 C262 1.434 . S
C262 C253 1.429 . S
C262 N259 1.350 . S
C262 C261 1.434 . S
C263 C264 1.369 . S
C263 C265 1.419 . S
C263 H267 0.930 . S
C264 C263 1.369 . S
C264 C273 1.429 . S
C265 C263 1.419 . S
C265 C266 1.363 . S
C265 H268 0.929 . S
C266 C265 1.363 . S
C266 C272 1.428 . S
H267 C263 0.930 . S
H268 C265 0.929 . S
S269 N270 1.613 . S
S269 N271 1.610 . S
N270 S269 1.613 . S
N270 C273 1.350 . S
N271 S269 1.610 . S
N271 C272 1.351 . S
C272 C266 1.428 . S
C272 N271 1.351 . S
C272 C273 1.434 . S
C273 C264 1.429 . S
C273 N270 1.350 . S
C273 C272 1.434 . S
C274 C275 1.369 . S
C274 C276 1.419 . S
C274 H278 0.930 . S
C275 C274 1.369 . S
C275 C284 1.429 . S
C276 C274 1.419 . S
C276 C277 1.363 . S
C276 H279 0.929 . S
C277 C276 1.363 . S
C277 C283 1.428 . S
H278 C274 0.930 . S
H279 C276 0.929 . S
S280 N281 1.613 . S
S280 N282 1.610 . S
N281 S280 1.613 . S
N281 C284 1.350 . S
N282 S280 1.610 . S
N282 C283 1.351 . S
C283 C277 1.428 . S
C283 N282 1.351 . S
C283 C284 1.434 . S
C284 C275 1.429 . S
C284 N281 1.350 . S
C284 C283 1.434 . S
C285 C286 1.369 . S
C285 C287 1.419 . S
C285 H289 0.930 . S
C286 C285 1.369 . S
C286 C295 1.429 . S
C287 C285 1.419 . S
C287 C288 1.363 . S
C287 H290 0.929 . S
C288 C287 1.363 . S
C288 C294 1.428 . S
H289 C285 0.930 . S
H290 C287 0.929 . S
S291 N292 1.613 . S
S291 N293 1.610 . S
N292 S291 1.613 . S
N292 C295 1.350 . S
N293 S291 1.610 . S
N293 C294 1.351 . S
C294 C288 1.428 . S
C294 N293 1.351 . S
C294 C295 1.434 . S
C295 C286 1.429 . S
C295 N292 1.350 . S
C295 C294 1.434 . S
C296 C297 1.369 . S
C296 C298 1.419 . S
C296 H300 0.930 . S
C297 C296 1.369 . S
C297 C306 1.429 . S
C298 C296 1.419 . S
C298 C299 1.363 . S
C298 H301 0.929 . S
C299 C298 1.363 . S
C299 C305 1.428 . S
H300 C296 0.930 . S
H301 C298 0.929 . S
S302 N303 1.613 . S
S302 N304 1.610 . S
N303 S302 1.613 . S
N303 C306 1.350 . S
N304 S302 1.610 . S
N304 C305 1.351 . S
C305 C299 1.428 . S
C305 N304 1.351 . S
C305 C306 1.434 . S
C306 C297 1.429 . S
C306 N303 1.350 . S
C306 C305 1.434 . S
C307 C308 1.369 . S
C307 C309 1.419 . S
C307 H311 0.930 . S
C308 C307 1.369 . S
C308 C317 1.429 . S
C309 C307 1.419 . S
C309 C310 1.363 . S
C309 H312 0.929 . S
C310 C309 1.363 . S
C310 C316 1.428 . S
H311 C307 0.930 . S
H312 C309 0.929 . S
S313 N314 1.613 . S
S313 N315 1.610 . S
N314 S313 1.613 . S
N314 C317 1.350 . S
N315 S313 1.610 . S
N315 C316 1.351 . S
C316 C310 1.428 . S
C316 N315 1.351 . S
C316 C317 1.434 . S
C317 C308 1.429 . S
C317 N314 1.350 . S
C317 C316 1.434 . S
C318 C319 1.369 1_655 S
C318 C320 1.419 1_554 S
C318 H322 0.930 . S
C319 C318 1.369 1_455 S
C319 C328 1.429 . S
C320 C318 1.419 1_556 S
C320 C321 1.363 1_655 S
C320 H323 0.929 . S
C321 C320 1.363 1_455 S
C321 C327 1.428 1_556 S
H322 C318 0.930 . S
H323 C320 0.929 . S
S324 N325 1.613 . S
S324 N326 1.610 . S
N325 S324 1.613 . S
N325 C328 1.350 . S
N326 S324 1.610 . S
N326 C327 1.351 . S
C327 C321 1.428 1_554 S
C327 N326 1.351 . S
C327 C328 1.434 . S
C328 C319 1.429 . S
C328 N325 1.350 . S
C328 C327 1.434 . S
C329 C330 1.369 . S
C329 C331 1.419 . S
C329 H333 0.930 . S
C330 C329 1.369 . S
C330 C339 1.429 1_545 S
C331 C329 1.419 . S
C331 C332 1.363 . S
C331 H334 0.929 . S
C332 C331 1.363 . S
C332 C338 1.428 1_545 S
H333 C329 0.930 . S
H334 C331 0.929 . S
S335 N336 1.613 . S
S335 N337 1.610 . S
N336 S335 1.613 . S
N336 C339 1.350 . S
N337 S335 1.610 . S
N337 C338 1.351 . S
C338 C332 1.428 1_565 S
C338 N337 1.351 . S
C338 C339 1.434 . S
C339 C330 1.429 1_565 S
C339 N336 1.350 . S
C339 C338 1.434 . S
C340 C341 1.369 . S
C340 C342 1.419 . S
C340 H344 0.930 . S
C341 C340 1.369 . S
C341 C350 1.429 . S
C342 C340 1.419 . S
C342 C343 1.363 . S
C342 H345 0.929 . S
C343 C342 1.363 . S
C343 C349 1.428 . S
H344 C340 0.930 . S
H345 C342 0.929 . S
S346 N347 1.613 . S
S346 N348 1.610 . S
N347 S346 1.613 . S
N347 C350 1.350 . S
N348 S346 1.610 . S
N348 C349 1.351 . S
C349 C343 1.428 . S
C349 N348 1.351 . S
C349 C350 1.434 . S
C350 C341 1.429 . S
C350 N347 1.350 . S
C350 C349 1.434 . S
C351 C352 1.369 . S
C351 C353 1.419 . S
C351 H355 0.930 . S
C352 C351 1.369 . S
C352 C361 1.429 1_545 S
C353 C351 1.419 . S
C353 C354 1.363 . S
C353 H356 0.929 . S
C354 C353 1.363 . S
C354 C360 1.428 1_545 S
H355 C351 0.930 . S
H356 C353 0.929 . S
S357 N358 1.613 . S
S357 N359 1.610 . S
N358 S357 1.613 . S
N358 C361 1.350 . S
N359 S357 1.610 . S
N359 C360 1.351 . S
C360 C354 1.428 1_565 S
C360 N359 1.351 . S
C360 C361 1.434 . S
C361 C352 1.429 1_565 S
C361 N358 1.350 . S
C361 C360 1.434 . S
C362 C363 1.369 . S
C362 C364 1.419 . S
C362 H366 0.930 . S
C363 C362 1.369 . S
C363 C372 1.429 . S
C364 C362 1.419 . S
C364 C365 1.363 1_556 S
C364 H367 0.929 . S
C365 C364 1.363 1_554 S
C365 C371 1.428 1_554 S
H366 C362 0.930 . S
H367 C364 0.929 . S
S368 N369 1.613 . S
S368 N370 1.610 1_556 S
N369 S368 1.613 . S
N369 C372 1.350 . S
N370 S368 1.610 1_554 S
N370 C371 1.351 1_554 S
C371 C365 1.428 1_556 S
C371 N370 1.351 1_556 S
C371 C372 1.434 . S
C372 C363 1.429 . S
C372 N369 1.350 . S
C372 C371 1.434 . S
C373 C374 1.369 1_455 S
C373 C375 1.419 . S
C373 H377 0.930 . S
C374 C373 1.369 1_655 S
C374 C383 1.429 . S
C375 C373 1.419 . S
C375 C376 1.363 1_455 S
C375 H378 0.929 . S
C376 C375 1.363 1_655 S
C376 C382 1.428 . S
H377 C373 0.930 . S
H378 C375 0.929 . S
S379 N380 1.613 . S
S379 N381 1.610 . S
N380 S379 1.613 . S
N380 C383 1.350 . S
N381 S379 1.610 . S
N381 C382 1.351 . S
C382 C376 1.428 . S
C382 N381 1.351 . S
C382 C383 1.434 . S
C383 C374 1.429 . S
C383 N380 1.350 . S
C383 C382 1.434 . S
C187 C12 3.155 . S
C189 C180 2.806 . S
C198 C52 3.163 . S
C200 C158 2.817 . S
C209 C111 2.964 . S
C211 C172 2.879 . S
C220 C31 3.055 . S
C222 C183 2.960 . S
C233 C161 2.953 . S
C231 C71 3.054 . S
C244 C169 2.869 . S
C242 C92 3.228 . S
C253 C48 0.744 . S
C255 C136 0.743 . S
C264 C109 0.773 . S
C266 C147 0.772 . S
C275 C29 0.738 . S
C277 C125 0.751 . S
C288 C139 0.504 . S
C286 C69 0.559 . S
C299 C150 0.402 . S
C297 C88 0.381 . S
C308 C8 0.399 . S
C310 C128 0.378 . S
C321 C149 1.081 . S
C319 C17 1.125 1_455 S
C330 C57 1.132 1_545 S
C332 C127 1.084 . S
C341 C97 1.156 . S
C343 C138 1.084 . S
C354 C171 1.696 . S
C352 C42 1.698 . S
C365 C182 1.695 . S
C363 C82 1.760 . S
C374 C2 1.770 1_655 S
C376 C160 1.704 1_655 S
