# Generated by pormake.
# Topology gar, (4,6)-cn, num edge types: 1
# Building blocks:
#     Node 0, Type 0, BuildingBlock: TATPOV_clean_sbu_0, # of connection points: 4
#     Node 1, Type 0, BuildingBlock: TATPOV_clean_sbu_0, # of connection points: 4
#     Node 2, Type 0, BuildingBlock: TATPOV_clean_sbu_0, # of connection points: 4
#     Node 3, Type 0, BuildingBlock: TATPOV_clean_sbu_0, # of connection points: 4
#     Node 4, Type 0, BuildingBlock: TATPOV_clean_sbu_0, # of connection points: 4
#     Node 5, Type 0, BuildingBlock: TATPOV_clean_sbu_0, # of connection points: 4
#     Node 6, Type 0, BuildingBlock: TATPOV_clean_sbu_0, # of connection points: 4
#     Node 7, Type 0, BuildingBlock: TATPOV_clean_sbu_0, # of connection points: 4
#     Node 8, Type 0, BuildingBlock: TATPOV_clean_sbu_0, # of connection points: 4
#     Node 9, Type 0, BuildingBlock: TATPOV_clean_sbu_0, # of connection points: 4
#     Node 10, Type 0, BuildingBlock: TATPOV_clean_sbu_0, # of connection points: 4
#     Node 11, Type 0, BuildingBlock: TATPOV_clean_sbu_0, # of connection points: 4
#     Node 12, Type 0, BuildingBlock: TATPOV_clean_sbu_0, # of connection points: 4
#     Node 13, Type 0, BuildingBlock: TATPOV_clean_sbu_0, # of connection points: 4
#     Node 14, Type 0, BuildingBlock: TATPOV_clean_sbu_0, # of connection points: 4
#     Node 15, Type 0, BuildingBlock: TATPOV_clean_sbu_0, # of connection points: 4
#     Node 16, Type 0, BuildingBlock: TATPOV_clean_sbu_0, # of connection points: 4
#     Node 17, Type 0, BuildingBlock: TATPOV_clean_sbu_0, # of connection points: 4
#     Node 18, Type 0, BuildingBlock: TATPOV_clean_sbu_0, # of connection points: 4
#     Node 19, Type 0, BuildingBlock: TATPOV_clean_sbu_0, # of connection points: 4
#     Node 20, Type 0, BuildingBlock: TATPOV_clean_sbu_0, # of connection points: 4
#     Node 21, Type 0, BuildingBlock: TATPOV_clean_sbu_0, # of connection points: 4
#     Node 22, Type 0, BuildingBlock: TATPOV_clean_sbu_0, # of connection points: 4
#     Node 23, Type 0, BuildingBlock: TATPOV_clean_sbu_0, # of connection points: 4
#     Node 24, Type 1, BuildingBlock: INOVEN_clean_sbu_0, # of connection points: 6
#     Node 25, Type 1, BuildingBlock: INOVEN_clean_sbu_0, # of connection points: 6
#     Node 26, Type 1, BuildingBlock: INOVEN_clean_sbu_0, # of connection points: 6
#     Node 27, Type 1, BuildingBlock: INOVEN_clean_sbu_0, # of connection points: 6
#     Node 28, Type 1, BuildingBlock: INOVEN_clean_sbu_0, # of connection points: 6
#     Node 29, Type 1, BuildingBlock: INOVEN_clean_sbu_0, # of connection points: 6
#     Node 30, Type 1, BuildingBlock: INOVEN_clean_sbu_0, # of connection points: 6
#     Node 31, Type 1, BuildingBlock: INOVEN_clean_sbu_0, # of connection points: 6
#     Node 32, Type 1, BuildingBlock: INOVEN_clean_sbu_0, # of connection points: 6
#     Node 33, Type 1, BuildingBlock: INOVEN_clean_sbu_0, # of connection points: 6
#     Node 34, Type 1, BuildingBlock: INOVEN_clean_sbu_0, # of connection points: 6
#     Node 35, Type 1, BuildingBlock: INOVEN_clean_sbu_0, # of connection points: 6
#     Node 36, Type 1, BuildingBlock: INOVEN_clean_sbu_0, # of connection points: 6
#     Node 37, Type 1, BuildingBlock: INOVEN_clean_sbu_0, # of connection points: 6
#     Node 38, Type 1, BuildingBlock: INOVEN_clean_sbu_0, # of connection points: 6
#     Node 39, Type 1, BuildingBlock: INOVEN_clean_sbu_0, # of connection points: 6
#     Edge 40, Type (0, 1), BuildingBlock: MIFKUJ_clean_linker_0, # of connection points: 2
#     Edge 41, Type (0, 1), BuildingBlock: MIFKUJ_clean_linker_0, # of connection points: 2
#     Edge 42, Type (0, 1), BuildingBlock: MIFKUJ_clean_linker_0, # of connection points: 2
#     Edge 43, Type (0, 1), BuildingBlock: MIFKUJ_clean_linker_0, # of connection points: 2
#     Edge 44, Type (0, 1), BuildingBlock: MIFKUJ_clean_linker_0, # of connection points: 2
#     Edge 45, Type (0, 1), BuildingBlock: MIFKUJ_clean_linker_0, # of connection points: 2
#     Edge 46, Type (0, 1), BuildingBlock: MIFKUJ_clean_linker_0, # of connection points: 2
#     Edge 47, Type (0, 1), BuildingBlock: MIFKUJ_clean_linker_0, # of connection points: 2
#     Edge 48, Type (0, 1), BuildingBlock: MIFKUJ_clean_linker_0, # of connection points: 2
#     Edge 49, Type (0, 1), BuildingBlock: MIFKUJ_clean_linker_0, # of connection points: 2
#     Edge 50, Type (0, 1), BuildingBlock: MIFKUJ_clean_linker_0, # of connection points: 2
#     Edge 51, Type (0, 1), BuildingBlock: MIFKUJ_clean_linker_0, # of connection points: 2
#     Edge 52, Type (0, 1), BuildingBlock: MIFKUJ_clean_linker_0, # of connection points: 2
#     Edge 53, Type (0, 1), BuildingBlock: MIFKUJ_clean_linker_0, # of connection points: 2
#     Edge 54, Type (0, 1), BuildingBlock: MIFKUJ_clean_linker_0, # of connection points: 2
#     Edge 55, Type (0, 1), BuildingBlock: MIFKUJ_clean_linker_0, # of connection points: 2
#     Edge 56, Type (0, 1), BuildingBlock: MIFKUJ_clean_linker_0, # of connection points: 2
#     Edge 57, Type (0, 1), BuildingBlock: MIFKUJ_clean_linker_0, # of connection points: 2
#     Edge 58, Type (0, 1), BuildingBlock: MIFKUJ_clean_linker_0, # of connection points: 2
#     Edge 59, Type (0, 1), BuildingBlock: MIFKUJ_clean_linker_0, # of connection points: 2
#     Edge 60, Type (0, 1), BuildingBlock: MIFKUJ_clean_linker_0, # of connection points: 2
#     Edge 61, Type (0, 1), BuildingBlock: MIFKUJ_clean_linker_0, # of connection points: 2
#     Edge 62, Type (0, 1), BuildingBlock: MIFKUJ_clean_linker_0, # of connection points: 2
#     Edge 63, Type (0, 1), BuildingBlock: MIFKUJ_clean_linker_0, # of connection points: 2
#     Edge 64, Type (0, 1), BuildingBlock: MIFKUJ_clean_linker_0, # of connection points: 2
#     Edge 65, Type (0, 1), BuildingBlock: MIFKUJ_clean_linker_0, # of connection points: 2
#     Edge 66, Type (0, 1), BuildingBlock: MIFKUJ_clean_linker_0, # of connection points: 2
#     Edge 67, Type (0, 1), BuildingBlock: MIFKUJ_clean_linker_0, # of connection points: 2
#     Edge 68, Type (0, 1), BuildingBlock: MIFKUJ_clean_linker_0, # of connection points: 2
#     Edge 69, Type (0, 1), BuildingBlock: MIFKUJ_clean_linker_0, # of connection points: 2
#     Edge 70, Type (0, 1), BuildingBlock: MIFKUJ_clean_linker_0, # of connection points: 2
#     Edge 71, Type (0, 1), BuildingBlock: MIFKUJ_clean_linker_0, # of connection points: 2
#     Edge 72, Type (0, 1), BuildingBlock: MIFKUJ_clean_linker_0, # of connection points: 2
#     Edge 73, Type (0, 1), BuildingBlock: MIFKUJ_clean_linker_0, # of connection points: 2
#     Edge 74, Type (0, 1), BuildingBlock: MIFKUJ_clean_linker_0, # of connection points: 2
#     Edge 75, Type (0, 1), BuildingBlock: MIFKUJ_clean_linker_0, # of connection points: 2
#     Edge 76, Type (0, 1), BuildingBlock: MIFKUJ_clean_linker_0, # of connection points: 2
#     Edge 77, Type (0, 1), BuildingBlock: MIFKUJ_clean_linker_0, # of connection points: 2
#     Edge 78, Type (0, 1), BuildingBlock: MIFKUJ_clean_linker_0, # of connection points: 2
#     Edge 79, Type (0, 1), BuildingBlock: MIFKUJ_clean_linker_0, # of connection points: 2
#     Edge 80, Type (0, 1), BuildingBlock: MIFKUJ_clean_linker_0, # of connection points: 2
#     Edge 81, Type (0, 1), BuildingBlock: MIFKUJ_clean_linker_0, # of connection points: 2
#     Edge 82, Type (0, 1), BuildingBlock: MIFKUJ_clean_linker_0, # of connection points: 2
#     Edge 83, Type (0, 1), BuildingBlock: MIFKUJ_clean_linker_0, # of connection points: 2
#     Edge 84, Type (0, 1), BuildingBlock: MIFKUJ_clean_linker_0, # of connection points: 2
#     Edge 85, Type (0, 1), BuildingBlock: MIFKUJ_clean_linker_0, # of connection points: 2
#     Edge 86, Type (0, 1), BuildingBlock: MIFKUJ_clean_linker_0, # of connection points: 2
#     Edge 87, Type (0, 1), BuildingBlock: MIFKUJ_clean_linker_0, # of connection points: 2
#     Edge 88, Type (0, 1), BuildingBlock: MIFKUJ_clean_linker_0, # of connection points: 2
#     Edge 89, Type (0, 1), BuildingBlock: MIFKUJ_clean_linker_0, # of connection points: 2
#     Edge 90, Type (0, 1), BuildingBlock: MIFKUJ_clean_linker_0, # of connection points: 2
#     Edge 91, Type (0, 1), BuildingBlock: MIFKUJ_clean_linker_0, # of connection points: 2
#     Edge 92, Type (0, 1), BuildingBlock: MIFKUJ_clean_linker_0, # of connection points: 2
#     Edge 93, Type (0, 1), BuildingBlock: MIFKUJ_clean_linker_0, # of connection points: 2
#     Edge 94, Type (0, 1), BuildingBlock: MIFKUJ_clean_linker_0, # of connection points: 2
#     Edge 95, Type (0, 1), BuildingBlock: MIFKUJ_clean_linker_0, # of connection points: 2
#     Edge 96, Type (0, 1), BuildingBlock: MIFKUJ_clean_linker_0, # of connection points: 2
#     Edge 97, Type (0, 1), BuildingBlock: MIFKUJ_clean_linker_0, # of connection points: 2
#     Edge 98, Type (0, 1), BuildingBlock: MIFKUJ_clean_linker_0, # of connection points: 2
#     Edge 99, Type (0, 1), BuildingBlock: MIFKUJ_clean_linker_0, # of connection points: 2
#     Edge 100, Type (0, 1), BuildingBlock: MIFKUJ_clean_linker_0, # of connection points: 2
#     Edge 101, Type (0, 1), BuildingBlock: MIFKUJ_clean_linker_0, # of connection points: 2
#     Edge 102, Type (0, 1), BuildingBlock: MIFKUJ_clean_linker_0, # of connection points: 2
#     Edge 103, Type (0, 1), BuildingBlock: MIFKUJ_clean_linker_0, # of connection points: 2
#     Edge 104, Type (0, 1), BuildingBlock: MIFKUJ_clean_linker_0, # of connection points: 2
#     Edge 105, Type (0, 1), BuildingBlock: MIFKUJ_clean_linker_0, # of connection points: 2
#     Edge 106, Type (0, 1), BuildingBlock: MIFKUJ_clean_linker_0, # of connection points: 2
#     Edge 107, Type (0, 1), BuildingBlock: MIFKUJ_clean_linker_0, # of connection points: 2
#     Edge 108, Type (0, 1), BuildingBlock: MIFKUJ_clean_linker_0, # of connection points: 2
#     Edge 109, Type (0, 1), BuildingBlock: MIFKUJ_clean_linker_0, # of connection points: 2
#     Edge 110, Type (0, 1), BuildingBlock: MIFKUJ_clean_linker_0, # of connection points: 2
#     Edge 111, Type (0, 1), BuildingBlock: MIFKUJ_clean_linker_0, # of connection points: 2
#     Edge 112, Type (0, 1), BuildingBlock: MIFKUJ_clean_linker_0, # of connection points: 2
#     Edge 113, Type (0, 1), BuildingBlock: MIFKUJ_clean_linker_0, # of connection points: 2
#     Edge 114, Type (0, 1), BuildingBlock: MIFKUJ_clean_linker_0, # of connection points: 2
#     Edge 115, Type (0, 1), BuildingBlock: MIFKUJ_clean_linker_0, # of connection points: 2
#     Edge 116, Type (0, 1), BuildingBlock: MIFKUJ_clean_linker_0, # of connection points: 2
#     Edge 117, Type (0, 1), BuildingBlock: MIFKUJ_clean_linker_0, # of connection points: 2
#     Edge 118, Type (0, 1), BuildingBlock: MIFKUJ_clean_linker_0, # of connection points: 2
#     Edge 119, Type (0, 1), BuildingBlock: MIFKUJ_clean_linker_0, # of connection points: 2
#     Edge 120, Type (0, 1), BuildingBlock: MIFKUJ_clean_linker_0, # of connection points: 2
#     Edge 121, Type (0, 1), BuildingBlock: MIFKUJ_clean_linker_0, # of connection points: 2
#     Edge 122, Type (0, 1), BuildingBlock: MIFKUJ_clean_linker_0, # of connection points: 2
#     Edge 123, Type (0, 1), BuildingBlock: MIFKUJ_clean_linker_0, # of connection points: 2
#     Edge 124, Type (0, 1), BuildingBlock: MIFKUJ_clean_linker_0, # of connection points: 2
#     Edge 125, Type (0, 1), BuildingBlock: MIFKUJ_clean_linker_0, # of connection points: 2
#     Edge 126, Type (0, 1), BuildingBlock: MIFKUJ_clean_linker_0, # of connection points: 2
#     Edge 127, Type (0, 1), BuildingBlock: MIFKUJ_clean_linker_0, # of connection points: 2
#     Edge 128, Type (0, 1), BuildingBlock: MIFKUJ_clean_linker_0, # of connection points: 2
#     Edge 129, Type (0, 1), BuildingBlock: MIFKUJ_clean_linker_0, # of connection points: 2
#     Edge 130, Type (0, 1), BuildingBlock: MIFKUJ_clean_linker_0, # of connection points: 2
#     Edge 131, Type (0, 1), BuildingBlock: MIFKUJ_clean_linker_0, # of connection points: 2
#     Edge 132, Type (0, 1), BuildingBlock: MIFKUJ_clean_linker_0, # of connection points: 2
#     Edge 133, Type (0, 1), BuildingBlock: MIFKUJ_clean_linker_0, # of connection points: 2
#     Edge 134, Type (0, 1), BuildingBlock: MIFKUJ_clean_linker_0, # of connection points: 2
#     Edge 135, Type (0, 1), BuildingBlock: MIFKUJ_clean_linker_0, # of connection points: 2
# Relax obj value: 0.167
# Max RMSD: 0.291
# Mean RMSD: 0.169
data_MOF--net-gar--node1-TATPOV_clean_sbu_0--node2-INOVEN_clean_sbu_0--edge1-MIFKUJ_clean_linker_0
_symmetry_space_group_name_H-M    P1
_symmetry_Int_Tables_number       1
_symmetry_cell_setting            triclinic
loop_
_symmetry_equiv_pos_as_xyz
'x, y, z'
_cell_length_a     78.192185
_cell_length_b     73.521705
_cell_length_c     74.052689
_cell_angle_alpha  99.009367
_cell_angle_beta   95.573696
_cell_angle_gamma 104.73153
loop_
_atom_site_label
_atom_site_type_symbol
_atom_site_fract_x
_atom_site_fract_y
_atom_site_fract_z
_atom_type_partial_charge
Zn0 Zn 0.06496 0.31881 0.40499 0.0
Zn1 Zn 0.09158 0.31793 0.38648 0.0
O2 O 0.09736 0.34602 0.40035 0.0
O3 O 0.07745 0.34447 0.41957 0.0
O4 O 0.11198 0.31654 0.37297 0.0
O5 O 0.06631 0.2958 0.41508 0.0
O6 O 0.08935 0.29534 0.40023 0.0
C7 C 0.09082 0.35392 0.41355 0.0
C8 C 0.05599 0.31348 0.36544 0.0
O9 O 0.07188 0.31244 0.36512 0.0
O10 O 0.05008 0.31677 0.38058 0.0
C11 C 0.12042 0.32981 0.36549 0.0
O12 O 0.11694 0.34652 0.36795 0.0
C13 C 0.07853 0.2883 0.41074 0.0
Zn14 Zn 0.98625 0.72157 0.66319 0.0
Zn15 Zn 0.98942 0.74884 0.64246 0.0
O16 O 0.96757 0.75003 0.65484 0.0
O17 O 0.96218 0.72432 0.66751 0.0
O18 O 0.99302 0.77078 0.629 0.0
O19 O 0.00832 0.73735 0.68038 0.0
O20 O 0.01279 0.75595 0.65974 0.0
C21 C 0.95785 0.7388 0.66353 0.0
C22 C 0.9887 0.70888 0.625 0.0
O23 O 0.98711 0.72524 0.62287 0.0
O24 O 0.98955 0.70441 0.6408 0.0
C25 C 0.004 0.77244 0.61739 0.0
O26 O 0.01216 0.75903 0.61356 0.0
C27 C 0.01821 0.75094 0.67444 0.0
Zn28 Zn 0.56656 0.81109 0.89613 0.0
Zn29 Zn 0.59269 0.81728 0.8846 0.0
O30 O 0.59373 0.84421 0.89885 0.0
O31 O 0.56454 0.83729 0.89568 0.0
O32 O 0.61523 0.81968 0.87361 0.0
O33 O 0.57489 0.80462 0.91966 0.0
O34 O 0.59119 0.7952 0.89976 0.0
C35 C 0.57953 0.84967 0.89949 0.0
C36 C 0.55844 0.79773 0.86075 0.0
O37 O 0.5729 0.81088 0.86226 0.0
O38 O 0.55514 0.78994 0.87451 0.0
C39 C 0.61771 0.82858 0.8603 0.0
O40 O 0.60578 0.83702 0.85471 0.0
C41 C 0.58422 0.7936 0.91453 0.0
Zn42 Zn 0.48654 0.21904 0.1602 0.0
Zn43 Zn 0.49324 0.24813 0.13953 0.0
O44 O 0.47158 0.25196 0.15117 0.0
O45 O 0.46649 0.22914 0.16782 0.0
O46 O 0.5006 0.26945 0.12549 0.0
O47 O 0.5106 0.23102 0.17521 0.0
O48 O 0.51529 0.25342 0.15822 0.0
C49 C 0.46282 0.24335 0.16239 0.0
C50 C 0.48677 0.20633 0.12139 0.0
O51 O 0.48989 0.22397 0.1205 0.0
O52 O 0.4847 0.20066 0.13651 0.0
C53 C 0.4914 0.28069 0.12178 0.0
O54 O 0.47543 0.27831 0.12677 0.0
C55 C 0.5205 0.246 0.17137 0.0
Zn56 Zn 0.09603 0.80544 0.09273 0.0
Zn57 Zn 0.07169 0.80304 0.11534 0.0
O58 O 0.07051 0.82694 0.10289 0.0
O59 O 0.09147 0.82904 0.08496 0.0
O60 O 0.0494 0.79871 0.12853 0.0
O61 O 0.08363 0.77955 0.07696 0.0
O62 O 0.06518 0.77677 0.09757 0.0
C63 C 0.07909 0.83524 0.09119 0.0
C64 C 0.1107 0.80604 0.13094 0.0
O65 O 0.09479 0.80552 0.13429 0.0
O66 O 0.1143 0.8065 0.11464 0.0
C67 C 0.04744 0.80508 0.14498 0.0
O68 O 0.06137 0.8163 0.15637 0.0
C69 C 0.07058 0.7696 0.08312 0.0
Zn70 Zn 0.48206 0.75186 0.4237 0.0
Zn71 Zn 0.50704 0.75805 0.40294 0.0
O72 O 0.51366 0.78368 0.42162 0.0
O73 O 0.49339 0.77763 0.4401 0.0
O74 O 0.52878 0.76084 0.38865 0.0
O75 O 0.48618 0.72805 0.43088 0.0
O76 O 0.50891 0.7342 0.41538 0.0
C77 C 0.50672 0.78904 0.43571 0.0
C78 C 0.46704 0.7538 0.38748 0.0
O79 O 0.48339 0.7566 0.38459 0.0
O80 O 0.46306 0.75058 0.40306 0.0
C81 C 0.53594 0.77504 0.38141 0.0
O82 O 0.52843 0.78913 0.38151 0.0
C83 C 0.49989 0.72403 0.4256 0.0
Zn84 Zn 0.59593 0.30666 0.59632 0.0
Zn85 Zn 0.57144 0.30318 0.61801 0.0
O86 O 0.56927 0.3267 0.60519 0.0
O87 O 0.58872 0.32756 0.58558 0.0
O88 O 0.55118 0.29997 0.6341 0.0
O89 O 0.58625 0.27919 0.58376 0.0
O90 O 0.56424 0.27647 0.60048 0.0
C91 C 0.57667 0.33398 0.59229 0.0
C92 C 0.61173 0.30931 0.63328 0.0
O93 O 0.59535 0.30605 0.63597 0.0
O94 O 0.6157 0.31179 0.6175 0.0
C95 C 0.53538 0.29864 0.62664 0.0
O96 O 0.53285 0.30004 0.60917 0.0
C97 C 0.57211 0.26918 0.58811 0.0
Zn98 Zn 0.98247 0.25212 0.92267 0.0
Zn99 Zn 0.00743 0.25898 0.90121 0.0
O100 O 0.01349 0.28464 0.91982 0.0
O101 O 0.99234 0.27885 0.93742 0.0
O102 O 0.02856 0.26196 0.88598 0.0
O103 O 0.9892 0.23007 0.93142 0.0
O104 O 0.01013 0.23549 0.91352 0.0
C105 C 0.00577 0.29026 0.93317 0.0
C106 C 0.96705 0.25263 0.8861 0.0
O107 O 0.98347 0.25677 0.88341 0.0
O108 O 0.96315 0.24857 0.90146 0.0
C109 C 0.03972 0.27787 0.88547 0.0
O110 O 0.03703 0.29384 0.89378 0.0
C111 C 0.00241 0.226 0.92495 0.0
Zn112 Zn 0.44649 0.01628 0.27539 0.0
Zn113 Zn 0.43108 0.04125 0.27478 0.0
O114 O 0.43994 0.04592 0.3024 0.0
O115 O 0.44442 0.01753 0.30201 0.0
O116 O 0.41892 0.06097 0.27056 0.0
O117 O 0.46852 0.02956 0.26612 0.0
O118 O 0.44843 0.04294 0.25608 0.0
C119 C 0.4426 0.0329 0.31086 0.0
C120 C 0.41163 0.00116 0.25798 0.0
O121 O 0.41071 0.01714 0.26665 0.0
O122 O 0.42671 0.99796 0.25718 0.0
C123 C 0.40647 0.06342 0.27959 0.0
O124 O 0.4031 0.05444 0.2934 0.0
C125 C 0.4629 0.03834 0.25449 0.0
Zn126 Zn 0.26207 0.20446 0.49459 0.0
Zn127 Zn 0.28306 0.18232 0.49463 0.0
O128 O 0.28651 0.19401 0.47012 0.0
O129 O 0.26702 0.21096 0.47019 0.0
O130 O 0.30188 0.16718 0.49764 0.0
O131 O 0.2741 0.22224 0.51808 0.0
O132 O 0.28948 0.20129 0.52018 0.0
C133 C 0.27862 0.20471 0.46239 0.0
C134 C 0.24274 0.16574 0.49507 0.0
O135 O 0.2579 0.1625 0.49332 0.0
O136 O 0.24127 0.18262 0.49626 0.0
C137 C 0.31453 0.16706 0.48799 0.0
O138 O 0.31557 0.17638 0.4742 0.0
C139 C 0.28521 0.21622 0.52735 0.0
Zn140 Zn 0.13783 0.02724 0.7675 0.0
Zn141 Zn 0.15885 0.00541 0.76706 0.0
O142 O 0.14454 0.00495 0.79353 0.0
O143 O 0.12672 0.02333 0.7905 0.0
O144 O 0.1721 0.98029 0.76484 0.0
O145 O 0.1231 0.01793 0.74215 0.0
O146 O 0.14296 0.00168 0.73843 0.0
C147 C 0.13272 0.01296 0.80015 0.0
C148 C 0.17482 0.05059 0.76996 0.0
O149 O 0.17842 0.03421 0.76933 0.0
O150 O 0.15866 0.0509 0.76973 0.0
C151 C 0.18768 0.9787 0.7714 0.0
O152 O 0.19892 0.99425 0.78141 0.0
C153 C 0.12982 0.00747 0.73137 0.0
Zn154 Zn 0.30876 0.89295 0.0196 0.0
Zn155 Zn 0.28736 0.90825 0.00388 0.0
O156 O 0.28869 0.89653 0.97878 0.0
O157 O 0.30382 0.87925 0.99163 0.0
O158 O 0.26993 0.92368 0.00279 0.0
O159 O 0.29499 0.9071 0.03757 0.0
O160 O 0.27635 0.88623 0.01742 0.0
C161 C 0.29689 0.8837 0.97725 0.0
C162 C 0.32837 0.92722 0.01928 0.0
O163 O 0.31271 0.92784 0.01303 0.0
O164 O 0.33099 0.91182 0.02286 0.0
C165 C 0.27234 0.93826 0.01543 0.0
O166 O 0.28636 0.94283 0.02825 0.0
C167 C 0.28189 0.89263 0.03434 0.0
Zn168 Zn 0.31665 0.35985 0.0276 0.0
Zn169 Zn 0.29622 0.38164 0.02716 0.0
O170 O 0.28988 0.36332 0.00115 0.0
O171 O 0.30593 0.343 0.00337 0.0
O172 O 0.27652 0.39602 0.02648 0.0
O173 O 0.31179 0.35142 0.05108 0.0
O174 O 0.29289 0.36904 0.05136 0.0
C175 C 0.29485 0.34889 0.9939 0.0
C176 C 0.33672 0.39837 0.02766 0.0
O177 O 0.32144 0.40178 0.02813 0.0
O178 O 0.33788 0.38151 0.02758 0.0
C179 C 0.27034 0.4008 0.01186 0.0
O180 O 0.2775 0.39756 0.99676 0.0
C181 C 0.30028 0.35781 0.05887 0.0
Zn182 Zn 0.76366 0.15854 0.02129 0.0
Zn183 Zn 0.78947 0.14862 0.02112 0.0
O184 O 0.78938 0.15954 0.99733 0.0
O185 O 0.76021 0.15145 0.99363 0.0
O186 O 0.81089 0.13883 0.02179 0.0
O187 O 0.77601 0.18509 0.03383 0.0
O188 O 0.7922 0.16816 0.04525 0.0
C189 C 0.77456 0.15577 0.98685 0.0
C190 C 0.75462 0.12406 0.02668 0.0
O191 O 0.7676 0.12506 0.01749 0.0
O192 O 0.75412 0.13919 0.03704 0.0
C193 C 0.80934 0.12345 0.01048 0.0
O194 O 0.79399 0.11483 -2e-05 0.0
C195 C 0.78648 0.18302 0.04695 0.0
Zn196 Zn 0.12994 0.56811 0.23882 0.0
Zn197 Zn 0.15554 0.51916 0.23562 0.0
O198 O 0.14464 0.52206 0.25961 0.0
O199 O 0.13647 0.54417 0.24774 0.0
O200 O 0.16769 0.4989 0.23634 0.0
O201 O 0.13355 0.54055 0.22713 0.0
O202 O 0.13761 0.51425 0.2124 0.0
C203 C 0.13763 0.53589 0.2616 0.0
C204 C 0.16822 0.5586 0.23765 0.0
O205 O 0.17459 0.5443 0.23609 0.0
O206 O 0.15132 0.55523 0.2371 0.0
C207 C 0.18177 0.50446 0.24807 0.0
O208 O 0.1866 0.5221 0.25746 0.0
C209 C 0.13027 0.5278 0.21232 0.0
Zn210 Zn 0.81424 0.85912 0.52529 0.0
Zn211 Zn 0.79556 0.88347 0.52733 0.0
O212 O 0.78931 0.86712 0.50061 0.0
O213 O 0.80083 0.84285 0.50115 0.0
O214 O 0.77608 0.89804 0.52735 0.0
O215 O 0.81005 0.85119 0.54936 0.0
O216 O 0.79191 0.86968 0.55073 0.0
C217 C 0.79163 0.85147 0.49252 0.0
C218 C 0.83564 0.8984 0.52667 0.0
O219 O 0.82106 0.90288 0.52896 0.0
O220 O 0.83568 0.88097 0.52456 0.0
C221 C 0.7721 0.90628 0.51422 0.0
O222 O 0.78172 0.90695 0.50062 0.0
C223 C 0.79901 0.85793 0.55767 0.0
Zn224 Zn 0.94158 0.03539 0.25021 0.0
Zn225 Zn 0.92057 0.05772 0.25125 0.0
O226 O 0.93637 0.06183 0.27975 0.0
O227 O 0.95476 0.04366 0.27632 0.0
O228 O 0.90486 0.08073 0.2523 0.0
O229 O 0.95374 0.04127 0.22809 0.0
O230 O 0.93493 0.05864 0.22502 0.0
C231 C 0.94874 0.05502 0.2869 0.0
C232 C 0.90494 0.01201 0.24751 0.0
O233 O 0.90162 0.02859 0.24921 0.0
O234 O 0.92089 0.01138 0.2466 0.0
C235 C 0.91059 0.09937 0.25714 0.0
O236 O 0.92786 0.10659 0.2624 0.0
C237 C 0.94733 0.05149 0.21858 0.0
Zn238 Zn 0.25908 0.6644 0.52157 0.0
Zn239 Zn 0.28593 0.6495 0.5198 0.0
O240 O 0.28703 0.66352 0.49784 0.0
O241 O 0.26373 0.67513 0.49918 0.0
O242 O 0.30682 0.63869 0.51872 0.0
O243 O 0.26923 0.68085 0.54549 0.0
O244 O 0.29033 0.66582 0.54616 0.0
C245 C 0.27699 0.67292 0.49153 0.0
C246 C 0.24854 0.62373 0.51613 0.0
O247 O 0.2649 0.62552 0.51471 0.0
O248 O 0.2428 0.63827 0.51991 0.0
C249 C 0.30711 0.62769 0.50377 0.0
O250 O 0.29393 0.62418 0.49015 0.0
C251 C 0.28287 0.67796 0.55376 0.0
Zn252 Zn 0.44335 0.53729 0.75065 0.0
Zn253 Zn 0.42176 0.55882 0.751 0.0
O254 O 0.43759 0.5628 0.77961 0.0
O255 O 0.4582 0.54753 0.77572 0.0
O256 O 0.40859 0.58412 0.75156 0.0
O257 O 0.45447 0.54101 0.72746 0.0
O258 O 0.43609 0.55889 0.72468 0.0
C259 C 0.45107 0.55747 0.78655 0.0
C260 C 0.40639 0.51386 0.74988 0.0
O261 O 0.4024 0.52989 0.74919 0.0
O262 O 0.42264 0.51381 0.75023 0.0
C263 C 0.39636 0.58926 0.7604 0.0
O264 O 0.38912 0.57807 0.77142 0.0
C265 C 0.44814 0.55132 0.718 0.0
Zn266 Zn 0.62722 0.06776 0.73927 0.0
Zn267 Zn 0.65687 0.02205 0.73992 0.0
O268 O 0.64182 0.02163 0.76089 0.0
O269 O 0.63383 0.04374 0.74863 0.0
O270 O 0.67044 0.00288 0.74096 0.0
O271 O 0.63472 0.04234 0.72819 0.0
O272 O 0.64196 0.01742 0.71473 0.0
C273 C 0.6338 0.03469 0.76209 0.0
C274 C 0.66708 0.0622 0.74544 0.0
O275 O 0.6745 0.04873 0.74504 0.0
O276 O 0.65011 0.05747 0.74136 0.0
C277 C 0.68627 0.00855 0.74951 0.0
O278 O 0.69311 0.02673 0.7569 0.0
C279 C 0.6336 0.02997 0.71351 0.0
Zn280 Zn 0.76198 0.70448 0.9908 0.0
Zn281 Zn 0.78306 0.68263 0.99259 0.0
O282 O 0.78774 0.69483 0.96828 0.0
O283 O 0.77148 0.71529 0.96967 0.0
O284 O 0.8012 0.66662 0.99534 0.0
O285 O 0.77026 0.7189 0.01668 0.0
O286 O 0.78866 0.70091 0.01866 0.0
C287 C 0.78228 0.70784 0.96165 0.0
C288 C 0.74205 0.66541 0.98743 0.0
O289 O 0.7577 0.66306 0.99027 0.0
O290 O 0.7403 0.68182 0.9861 0.0
C291 C 0.81743 0.67256 0.99275 0.0
O292 O 0.82261 0.68906 0.98737 0.0
C293 C 0.78216 0.71409 0.02612 0.0
Zn294 Zn 0.94899 0.51159 0.77172 0.0
Zn295 Zn 0.93144 0.53623 0.77284 0.0
O296 O 0.94056 0.53913 0.80003 0.0
O297 O 0.94911 0.5127 0.79872 0.0
O298 O 0.91883 0.55637 0.77168 0.0
O299 O 0.96907 0.52647 0.7607 0.0
O300 O 0.94838 0.54054 0.75398 0.0
C301 C 0.94553 0.52686 0.80801 0.0
C302 C 0.91339 0.49548 0.75536 0.0
O303 O 0.91213 0.51155 0.76344 0.0
O304 O 0.92858 0.49247 0.75486 0.0
C305 C 0.90271 0.55342 0.77461 0.0
O306 O 0.89466 0.53729 0.77943 0.0
C307 C 0.9628 0.53647 0.75083 0.0
Zn308 Zn 0.80855 0.38073 0.51115 0.0
Zn309 Zn 0.78768 0.40215 0.50387 0.0
O310 O 0.78384 0.38365 0.47956 0.0
O311 O 0.80374 0.36786 0.48479 0.0
O312 O 0.76942 0.41642 0.5015 0.0
O313 O 0.79433 0.36907 0.52937 0.0
O314 O 0.78367 0.39377 0.52842 0.0
C315 C 0.79211 0.37152 0.47393 0.0
C316 C 0.8261 0.42122 0.51448 0.0
O317 O 0.81124 0.42164 0.50631 0.0
O318 O 0.82804 0.40607 0.51953 0.0
C319 C 0.7729 0.43356 0.51017 0.0
O320 O 0.78897 0.44209 0.5192 0.0
C321 C 0.78589 0.38028 0.53638 0.0
Zn322 Zn 0.639 0.52662 0.26927 0.0
Zn323 Zn 0.65982 0.50502 0.26644 0.0
O324 O 0.64622 0.50346 0.29327 0.0
O325 O 0.62743 0.52107 0.29166 0.0
O326 O 0.67451 0.4811 0.263 0.0
O327 O 0.62443 0.51902 0.24409 0.0
O328 O 0.643 0.50166 0.2382 0.0
C329 C 0.63408 0.51051 0.30048 0.0
C330 C 0.67527 0.55052 0.2706 0.0
O331 O 0.67893 0.53411 0.26874 0.0
O332 O 0.65928 0.55069 0.27195 0.0
C333 C 0.68121 0.47258 0.27502 0.0
O334 O 0.67997 0.47839 0.29242 0.0
C335 C 0.63012 0.50851 0.23228 0.0
Gd336 Gd 0.02421 0.02144 -0.0019 0.0
Gd337 Gd 0.05829 0.04349 0.02204 0.0
C338 C 0.03674 0.06769 0.00159 0.0
C339 C 0.99067 0.0075 0.98537 0.0
C340 C 0.9758 0.01612 0.98593 0.0
C341 C 0.96025 0.00813 0.97314 0.0
C342 C 0.97797 0.03369 0.99773 0.0
C343 C 0.94924 0.03548 0.98364 0.0
C344 C 0.96479 0.04331 0.99659 0.0
C345 C 0.947 0.01771 0.97205 0.0
C346 C 0.05037 0.02088 0.97519 0.0
C347 C 0.0456 0.99747 0.01882 0.0
C348 C 0.09174 0.05771 0.03482 0.0
C349 C 0.10722 0.04987 0.03455 0.0
C350 C 0.11711 0.04991 0.0514 0.0
C351 C 0.11077 0.04013 0.0181 0.0
C352 C 0.13322 0.02955 0.03556 0.0
C353 C 0.12378 0.03021 0.01859 0.0
C354 C 0.12992 0.03976 0.05194 0.0
C355 C 0.03244 0.04359 0.04534 0.0
O356 O 0.02363 0.05174 0.99686 0.0
O357 O 0.05212 0.06815 0.01088 0.0
O358 O 0.00261 0.01512 0.97561 0.0
O359 O 0.99776 0.0048 0.00113 0.0
O360 O 0.03366 0.01182 0.97097 0.0
O361 O 0.05287 0.02896 0.99231 0.0
O362 O 0.05928 0.01294 0.02196 0.0
O363 O 0.02979 0.9975 0.01094 0.0
O364 O 0.07988 0.04963 0.04444 0.0
O365 O 0.08459 0.06071 0.01919 0.0
O366 O 0.04929 0.05205 0.04941 0.0
O367 O 0.02958 0.03559 0.02812 0.0
H368 H 0.95857 0.99475 0.96372 0.0
H369 H 0.99002 0.04015 0.00755 0.0
H370 H 0.96673 0.05681 0.00591 0.0
H371 H 0.93517 0.01143 0.96189 0.0
H372 H 0.11438 0.05713 0.06427 0.0
H373 H 0.10319 0.03969 0.00492 0.0
H374 H 0.12629 0.02289 0.00567 0.0
H375 H 0.1368 0.03941 0.06524 0.0
Gd376 Gd 0.29092 0.78292 0.24831 0.0
Gd377 Gd 0.28317 0.79359 0.28901 0.0
C378 C 0.30006 0.82683 0.26908 0.0
C379 C 0.28873 0.77699 0.21282 0.0
C380 C 0.29841 0.78605 0.19911 0.0
C381 C 0.31719 0.7915 0.2009 0.0
C382 C 0.2885 0.79163 0.18528 0.0
C383 C 0.31584 0.81057 0.17713 0.0
C384 C 0.29712 0.80388 0.17447 0.0
C385 C 0.32587 0.80345 0.18964 0.0
C386 C 0.3211 0.78849 0.27311 0.0
C387 C 0.27547 0.74901 0.26994 0.0
C388 C 0.28084 0.79673 0.32362 0.0
C389 C 0.27102 0.78259 0.33347 0.0
C390 C 0.25723 0.78647 0.34287 0.0
C391 C 0.27364 0.76424 0.33144 0.0
C392 C 0.2486 0.75369 0.34779 0.0
C393 C 0.26253 0.74997 0.33846 0.0
C394 C 0.24608 0.77212 0.34999 0.0
C395 C 0.25645 0.79234 0.26188 0.0
O396 O 0.29448 0.8147 0.25317 0.0
O397 O 0.30027 0.82137 0.28517 0.0
O398 O 0.29675 0.76772 0.22307 0.0
O399 O 0.28031 0.7877 0.22215 0.0
O400 O 0.32058 0.78451 0.25535 0.0
O401 O 0.30597 0.79016 0.27598 0.0
O402 O 0.27684 0.76169 0.28514 0.0
O403 O 0.2786 0.75377 0.25382 0.0
O404 O 0.27071 0.80286 0.31226 0.0
O405 O 0.29458 0.79296 0.31661 0.0
O406 O 0.2603 0.80395 0.27771 0.0
O407 O 0.26632 0.78104 0.2615 0.0
H408 H 0.32512 0.78728 0.21146 0.0
H409 H 0.27402 0.78745 0.18359 0.0
H410 H 0.28911 0.80874 0.16447 0.0
H411 H 0.34033 0.80799 0.19144 0.0
H412 H 0.25488 0.8005 0.34435 0.0
H413 H 0.28408 0.76073 0.32414 0.0
H414 H 0.26523 0.73612 0.33696 0.0
H415 H 0.23554 0.77543 0.35723 0.0
Gd416 Gd 0.55746 0.03208 0.50999 0.0
Gd417 Gd 0.51592 0.02615 0.50956 0.0
C418 C 0.5294 0.98865 0.50193 0.0
C419 C 0.58976 0.02916 0.51692 0.0
C420 C 0.60043 0.01505 0.51324 0.0
C421 C 0.60799 0.01285 0.49681 0.0
C422 C 0.6044 0.00477 0.52686 0.0
C423 C 0.62382 0.99112 0.50807 0.0
C424 C 0.61585 0.99293 0.52429 0.0
C425 C 0.61947 0.00103 0.49425 0.0
C426 C 0.53845 0.03053 0.47752 0.0
C427 C 0.54374 0.06945 0.51648 0.0
C428 C 0.48344 0.02896 0.50427 0.0
C429 C 0.47331 0.04354 0.50753 0.0
C430 C 0.45888 0.04015 0.51765 0.0
C431 C 0.47709 0.06024 0.49989 0.0
C432 C 0.45149 0.06916 0.51146 0.0
C433 C 0.46631 0.07287 0.50183 0.0
C434 C 0.44815 0.0528 0.51965 0.0
C435 C 0.53521 0.02753 0.54181 0.0
O436 O 0.54589 1.00002 0.50713 0.0
O437 O 0.51527 0.9954 0.4998 0.0
O438 O 0.58437 0.03642 0.50304 0.0
O439 O 0.57787 0.02586 0.52821 0.0
O440 O 0.55494 0.04085 0.48216 0.0
O441 O 0.5336 0.02075 0.48945 0.0
O442 O 0.5274 0.05801 0.51057 0.0
O443 O 0.55767 0.06265 0.51988 0.0
O444 O 0.48998 0.02351 0.51882 0.0
O445 O 0.4942 0.0305 0.49172 0.0
O446 O 0.51892 0.01677 0.53703 0.0
O447 O 0.53982 0.03763 0.53007 0.0
H448 H 0.60536 0.02057 0.48602 0.0
H449 H 0.59903 0.00627 0.53979 0.0
H450 H 0.619 0.98578 0.53538 0.0
H451 H 0.6251 0.99985 0.48147 0.0
H452 H 0.4556 0.02738 0.52364 0.0
H453 H 0.48816 0.06339 0.49209 0.0
H454 H 0.46947 0.08546 0.49556 0.0
H455 H 0.43679 0.04931 0.52699 0.0
Gd456 Gd 0.26971 0.284 0.75724 0.0
Gd457 Gd 0.31067 0.28048 0.76346 0.0
C458 C 0.29231 0.29346 0.79891 0.0
C459 C 0.23561 0.27683 0.75852 0.0
C460 C 0.22322 0.2799 0.77205 0.0
C461 C 0.21019 0.28928 0.76787 0.0
C462 C 0.22343 0.2726 0.78854 0.0
C463 C 0.19728 0.28325 0.79586 0.0
C464 C 0.21059 0.27422 0.80027 0.0
C465 C 0.19744 0.291 0.77963 0.0
C466 C 0.29471 0.31878 0.75751 0.0
C467 C 0.28757 0.27017 0.72188 0.0
C468 C 0.34479 0.28873 0.76219 0.0
C469 C 0.35751 0.28485 0.74926 0.0
C470 C 0.36401 0.26859 0.74845 0.0
C471 C 0.36414 0.29827 0.73827 0.0
C472 C 0.38352 0.27945 0.72605 0.0
C473 C 0.37688 0.2956 0.72683 0.0
C474 C 0.37685 0.26592 0.73698 0.0
C475 C 0.28596 0.24539 0.76207 0.0
O476 O 0.27695 0.29019 0.78801 0.0
O477 O 0.30738 0.29181 0.79274 0.0
O478 O 0.24475 0.29184 0.75278 0.0
O479 O 0.24492 0.26473 0.76108 0.0
O480 O 0.27745 0.31558 0.75421 0.0
O481 O 0.29715 0.30291 0.7604 0.0
O482 O 0.30304 0.27339 0.7326 0.0
O483 O 0.27268 0.2723 0.72809 0.0
O484 O 0.33643 0.27486 0.77002 0.0
O485 O 0.33461 0.29936 0.75743 0.0
O486 O 0.30324 0.24836 0.76419 0.0
O487 O 0.28322 0.26153 0.76067 0.0
H488 H 0.20962 0.29493 0.75523 0.0
H489 H 0.23333 0.26536 0.79228 0.0
H490 H 0.21105 0.26831 0.81276 0.0
H491 H 0.18732 0.29787 0.77564 0.0
H492 H 0.35935 0.25802 0.75683 0.0
H493 H 0.35972 0.31114 0.73873 0.0
H494 H 0.3819 0.30657 0.71899 0.0
H495 H 0.38153 0.25324 0.73669 0.0
Gd496 Gd 0.04051 0.05036 0.51646 0.0
Gd497 Gd 0.04036 0.00887 0.4992 0.0
C498 C 0.02536 0.03357 0.47167 0.0
C499 C 0.04881 0.08706 0.52296 0.0
C500 C 0.04342 0.10021 0.51191 0.0
C501 C 0.0351 0.11379 0.51955 0.0
C502 C 0.04633 0.09899 0.49338 0.0
C503 C 0.03408 0.12578 0.4907 0.0
C504 C 0.04181 0.11165 0.48296 0.0
C505 C 0.03039 0.12645 0.509 0.0
C506 C 0.0075 0.02588 0.51573 0.0
C507 C 0.05357 0.02503 0.54468 0.0
C508 C 0.03744 0.97271 0.49255 0.0
C509 C 0.03799 0.95865 0.5046 0.0
C510 C 0.05174 0.94955 0.50448 0.0
C511 C 0.02569 0.95512 0.51711 0.0
C512 C 0.04099 0.9337 0.5293 0.0
C513 C 0.02712 0.94271 0.52925 0.0
C514 C 0.05328 0.93725 0.51675 0.0
C515 C 0.06938 0.0369 0.49618 0.0
O516 O 0.03255 0.04873 0.4852 0.0
O517 O 0.02503 0.01599 0.47443 0.0
O518 O 0.03633 0.07679 0.53069 0.0
O519 O 0.05897 0.07725 0.51547 0.0
O520 O 0.01163 0.04407 0.52239 0.0
O521 O 0.02117 0.02219 0.51029 0.0
O522 O 0.04788 0.01009 0.53063 0.0
O523 O 0.05306 0.04251 0.54237 0.0
O524 O 0.05255 0.98572 0.49328 0.0
O525 O 0.02357 0.97968 0.49206 0.0
O526 O 0.06195 0.02203 0.48328 0.0
O527 O 0.06126 0.03587 0.5101 0.0
H528 H 0.03247 0.11477 0.53372 0.0
H529 H 0.05252 0.08853 0.48693 0.0
H530 H 0.04523 0.11088 0.46909 0.0
H531 H 0.02427 0.13704 0.51531 0.0
H532 H 0.06148 0.95219 0.49506 0.0
H533 H 0.01499 0.962 0.51764 0.0
H534 H 0.01718 0.93999 0.53843 0.0
H535 H 0.06422 0.9307 0.51654 0.0
Gd536 Gd 0.3098 0.79995 0.7638 0.0
Gd537 Gd 0.27631 0.76978 0.76434 0.0
C538 C 0.31187 0.7543 0.76424 0.0
C539 C 0.34175 0.82215 0.77245 0.0
C540 C 0.35902 0.81822 0.77666 0.0
C541 C 0.37372 0.82718 0.76877 0.0
C542 C 0.36073 0.80482 0.78786 0.0
C543 C 0.39176 0.80975 0.78355 0.0
C544 C 0.37702 0.80072 0.79137 0.0
C545 C 0.39001 0.8229 0.77213 0.0
C546 C 0.29124 0.7838 0.73047 0.0
C547 C 0.27392 0.81491 0.76253 0.0
C548 C 0.24471 0.74651 0.75702 0.0
C549 C 0.22754 0.7487 0.74962 0.0
C550 C 0.2117 0.73726 0.75369 0.0
C551 C 0.22696 0.76281 0.73901 0.0
C552 C 0.19472 0.75429 0.73684 0.0
C553 C 0.21066 0.7656 0.73269 0.0
C554 C 0.19534 0.74 0.7473 0.0
C555 C 0.29504 0.78701 0.79757 0.0
O556 O 0.32052 0.77288 0.76561 0.0
O557 O 0.29415 0.7493 0.76295 0.0
O558 O 0.33399 0.81605 0.75531 0.0
O559 O 0.3307 0.81885 0.78453 0.0
O560 O 0.29984 0.80188 0.73488 0.0
O561 O 0.2938 0.77524 0.7435 0.0
O562 O 0.26539 0.79613 0.75971 0.0
O563 O 0.29171 0.82025 0.76593 0.0
O564 O 0.25147 0.7565 0.77354 0.0
O565 O 0.25641 0.74731 0.7455 0.0
O566 O 0.28716 0.76877 0.79351 0.0
O567 O 0.29194 0.79488 0.78425 0.0
H568 H 0.37257 0.8374 0.75997 0.0
H569 H 0.34947 0.79745 0.79386 0.0
H570 H 0.3781 0.7904 0.80009 0.0
H571 H 0.4013 0.83009 0.76608 0.0
H572 H 0.212 0.72633 0.76189 0.0
H573 H 0.23911 0.77178 0.73573 0.0
H574 H 0.21058 0.77686 0.72486 0.0
H575 H 0.18319 0.73093 0.75049 0.0
Gd576 Gd 0.54025 0.04322 0.01756 0.0
Gd577 Gd 0.52922 0.0291 0.9767 0.0
C578 C 0.49926 0.01983 -0.00019 0.0
C579 C 0.54099 0.05543 0.05208 0.0
C580 C 0.53136 0.04493 0.06491 0.0
C581 C 0.52835 0.02495 0.06251 0.0
C582 C 0.52285 0.0542 0.07768 0.0
C583 C 0.50786 0.02355 0.08508 0.0
C584 C 0.51114 0.04359 0.08766 0.0
C585 C 0.51682 0.01438 0.07265 0.0
C586 C 0.54501 0.00862 0.00492 0.0
C587 C 0.56999 0.05241 0.99306 0.0
C588 C 0.52898 0.0189 0.94221 0.0
C589 C 0.54012 0.03111 0.93145 0.0
C590 C 0.53885 0.04988 0.93139 0.0
C591 C 0.55461 0.02571 0.9248 0.0
C592 C 0.56681 0.05783 0.91904 0.0
C593 C 0.5679 0.03898 0.91883 0.0
C594 C 0.55203 0.06307 0.92516 0.0
C595 C 0.52526 0.0641 0.99012 0.0
O596 O 0.50994 0.0337 0.01265 0.0
O597 O 0.50526 0.01178 0.98558 0.0
O598 O 0.55363 0.04876 0.04564 0.0
O599 O 0.53067 0.0596 0.0393 0.0
O600 O 0.55554 0.02117 0.01822 0.0
O601 O 0.53182 0.0144 -5e-05 0.0
O602 O 0.55932 0.03826 0.98066 0.0
O603 O 0.56436 0.06013 0.00783 0.0
O604 O 0.51614 0.02521 0.94868 0.0
O605 O 0.53801 0.01255 0.95446 0.0
O606 O 0.51395 0.05161 0.97736 0.0
O607 O 0.5382 0.05778 0.99436 0.0
H608 H 0.53443 0.01741 0.05234 0.0
H609 H 0.52475 0.06953 0.07942 0.0
H610 H 0.50453 0.05109 0.09729 0.0
H611 H 0.51444 0.99897 0.07026 0.0
H612 H 0.52805 0.05469 0.93683 0.0
H613 H 0.55607 0.01147 0.92501 0.0
H614 H 0.57897 0.03437 0.91386 0.0
H615 H 0.55081 0.07746 0.92543 0.0
Gd616 Gd 0.29415 0.29436 0.26631 0.0
Gd617 Gd 0.27388 0.25595 0.24811 0.0
C618 C 0.25103 0.28233 0.26274 0.0
C619 C 0.30616 0.3306 0.279 0.0
C620 C 0.29706 0.34568 0.28075 0.0
C621 C 0.30282 0.36121 0.29557 0.0
C622 C 0.28155 0.34369 0.26854 0.0
C623 C 0.27741 0.37252 0.28609 0.0
C624 C 0.27178 0.357 0.27121 0.0
C625 C 0.29309 0.37467 0.29818 0.0
C626 C 0.29393 0.26822 0.28843 0.0
C627 C 0.31697 0.26901 0.25034 0.0
C628 C 0.26328 0.21936 0.23686 0.0
C629 C 0.27364 0.20534 0.23694 0.0
C630 C 0.26903 0.18857 0.22347 0.0
C631 C 0.28906 0.20941 0.24989 0.0
C632 C 0.29498 0.17981 0.23634 0.0
C633 C 0.29969 0.19687 0.24951 0.0
C634 C 0.27963 0.17582 0.22319 0.0
C635 C 0.27467 0.28191 0.2257 0.0
O636 O 0.26573 0.29623 0.26364 0.0
O637 O 0.25099 0.26428 0.25888 0.0
O638 O 0.30149 0.31803 0.28952 0.0
O639 O 0.30701 0.32279 0.2621 0.0
O640 O 0.3079 0.28159 0.28711 0.0
O641 O 0.28061 0.26915 0.27781 0.0
O642 O 0.30258 0.25472 0.24942 0.0
O643 O 0.31671 0.28687 0.25462 0.0
O644 O 0.26764 0.23138 0.22575 0.0
O645 O 0.26131 0.22775 0.25316 0.0
O646 O 0.26062 0.26827 0.22643 0.0
O647 O 0.28771 0.281 0.23669 0.0
H648 H 0.31467 0.36276 0.30522 0.0
H649 H 0.27686 0.33174 0.25703 0.0
H650 H 0.25995 0.35527 0.26147 0.0
H651 H 0.29767 0.38662 0.3097 0.0
H652 H 0.25727 0.18536 0.21323 0.0
H653 H 0.29295 0.22234 0.26035 0.0
H654 H 0.31162 0.20052 0.2596 0.0
H655 H 0.27563 0.1627 0.21297 0.0
Gd656 Gd 0.5401 0.5503 0.01554 0.0
Gd657 Gd 0.54036 0.51156 0.00129 0.0
C658 C 0.52667 0.53621 0.9717 0.0
C659 C 0.54653 0.58652 0.02689 0.0
C660 C 0.54538 0.60137 0.01585 0.0
C661 C 0.52873 0.60273 0.00795 0.0
C662 C 0.56105 0.61279 0.01129 0.0
C663 C 0.54354 0.62573 0.99032 0.0
C664 C 0.56015 0.6248 -0.00136 0.0
C665 C 0.52783 0.61483 0.99532 0.0
C666 C 0.50801 0.52477 0.01356 0.0
C667 C 0.55411 0.52592 0.04516 0.0
C668 C 0.53419 0.47526 0.98967 0.0
C669 C 0.53442 0.46042 0.00082 0.0
C670 C 0.53948 0.44398 0.99399 0.0
C671 C 0.53073 0.46339 0.01906 0.0
C672 C 0.53648 0.43333 0.02339 0.0
C673 C 0.5318 0.45005 0.03023 0.0
C674 C 0.54047 0.43047 0.00519 0.0
C675 C 0.57208 0.53781 0.00268 0.0
O676 O 0.5335 0.55138 0.98506 0.0
O677 O 0.52659 0.51892 0.97516 0.0
O678 O 0.53143 0.5744 0.02815 0.0
O679 O 0.55922 0.5782 0.02392 0.0
O680 O 0.51023 0.54152 0.00924 0.0
O681 O 0.5229 0.5223 0.01929 0.0
O682 O 0.54788 0.51078 0.03169 0.0
O683 O 0.55348 0.54305 0.04185 0.0
O684 O 0.5497 0.48737 0.98993 0.0
O685 O 0.52145 0.48369 0.99166 0.0
O686 O 0.57047 0.52136 0.00751 0.0
O687 O 0.55694 0.53946 0.99696 0.0
H688 H 0.51635 0.59405 0.01107 0.0
H689 H 0.57402 0.61196 0.0171 0.0
H690 H 0.57248 0.6334 0.99535 0.0
H691 H 0.51485 0.6153 0.98914 0.0
H692 H 0.54262 0.44158 0.98004 0.0
H693 H 0.52701 0.47608 0.02474 0.0
H694 H 0.52892 0.45283 0.04425 0.0
H695 H 0.54397 0.41763 -0.0005 0.0
Gd696 Gd 0.81114 0.30037 0.26274 0.0
Gd697 Gd 0.77709 0.2684 0.25821 0.0
C698 C 0.81371 0.2547 0.26161 0.0
C699 C 0.84187 0.32392 0.2755 0.0
C700 C 0.85971 0.32142 0.27989 0.0
C701 C 0.87366 0.33014 0.27089 0.0
C702 C 0.86275 0.30956 0.29232 0.0
C703 C 0.89332 0.3149 0.28638 0.0
C704 C 0.87947 0.30643 0.29561 0.0
C705 C 0.89037 0.3268 0.27403 0.0
C706 C 0.79658 0.28491 0.228 0.0
C707 C 0.77414 0.31377 0.25887 0.0
C708 C 0.74655 0.24408 0.24663 0.0
C709 C 0.72833 0.24572 0.24447 0.0
C710 C 0.723 0.25856 0.25738 0.0
C711 C 0.7169 0.2362 0.22815 0.0
C712 C 0.69548 0.25337 0.23694 0.0
C713 C 0.70056 0.24007 0.22435 0.0
C714 C 0.70654 0.26223 0.25369 0.0
C715 C 0.79117 0.28594 0.29288 0.0
O716 O 0.82206 0.27358 0.26594 0.0
O717 O 0.79609 0.24921 0.25665 0.0
O718 O 0.83533 0.32002 0.25793 0.0
O719 O 0.83015 0.31733 0.28603 0.0
O720 O 0.80515 0.30291 0.23316 0.0
O721 O 0.79777 0.27589 0.24092 0.0
O722 O 0.7659 0.29485 0.25446 0.0
O723 O 0.79178 0.31947 0.26413 0.0
O724 O 0.75458 0.247 0.26361 0.0
O725 O 0.75662 0.25258 0.23558 0.0
O726 O 0.78348 0.26766 0.2887 0.0
O727 O 0.78988 0.29345 0.27905 0.0
H728 H 0.87156 0.33929 0.26125 0.0
H729 H 0.85218 0.30246 0.29934 0.0
H730 H 0.88151 0.29709 0.3051 0.0
H731 H 0.90101 0.33357 0.26692 0.0
H732 H 0.73181 0.26629 0.26994 0.0
H733 H 0.72095 0.22641 0.21801 0.0
H734 H 0.69205 0.23302 0.21141 0.0
H735 H 0.7028 0.27262 0.26347 0.0
Gd736 Gd 0.03791 0.54327 0.51642 0.0
Gd737 Gd 0.0285 0.53414 0.47493 0.0
C738 C 0.99684 0.52445 0.497 0.0
C739 C 0.03638 0.55158 0.55092 0.0
C740 C 0.02451 0.53957 0.56126 0.0
C741 C 0.02445 0.52034 0.56074 0.0
C742 C 0.01133 0.54637 0.56935 0.0
C743 C 0.99859 0.51513 0.57691 0.0
C744 C 0.99843 0.53425 0.57697 0.0
C745 C 0.01168 0.50828 0.56855 0.0
C746 C 0.03989 0.50838 0.50082 0.0
C747 C 0.06984 0.55323 0.49455 0.0
C748 C 0.02918 0.5263 0.44024 0.0
C749 C 0.0412 0.53837 0.43021 0.0
C750 C 0.04534 0.55847 0.43521 0.0
C751 C 0.05107 0.53012 0.41823 0.0
C752 C 0.06963 0.56178 0.41712 0.0
C753 C 0.06523 0.54176 0.41175 0.0
C754 C 0.05936 0.57012 0.4285 0.0
C755 C 0.02684 0.56898 0.49125 0.0
O756 O 0.00794 0.53636 0.5109 0.0
O757 O 0.00254 0.51786 0.48179 0.0
O758 O 0.04908 0.54482 0.5447 0.0
O759 O 0.02818 0.55872 0.53871 0.0
O760 O 0.05014 0.51869 0.51554 0.0
O761 O 0.0281 0.51618 0.49593 0.0
O762 O 0.05873 0.54221 0.48009 0.0
O763 O 0.06418 0.55892 0.5101 0.0
O764 O 0.01696 0.53352 0.44701 0.0
O765 O 0.03735 0.51865 0.452 0.0
O766 O 0.01577 0.5586 0.47706 0.0
O767 O 0.03862 0.56095 0.49531 0.0
H768 H 0.0341 0.51445 0.55407 0.0
H769 H 0.01086 0.561 0.56953 0.0
H770 H 0.9887 0.54014 0.58347 0.0
H771 H 0.01208 0.4936 0.56806 0.0
H772 H 0.0382 0.56519 0.44486 0.0
H773 H 0.04828 0.51469 0.41453 0.0
H774 H 0.07289 0.53513 0.40264 0.0
H775 H 0.06252 0.58554 0.43262 0.0
Gd776 Gd 0.77022 0.78361 0.25895 0.0
Gd777 Gd 0.81111 0.77992 0.26236 0.0
C778 C 0.79436 0.79128 0.29932 0.0
C779 C 0.73624 0.77654 0.26129 0.0
C780 C 0.72379 0.78038 0.27461 0.0
C781 C 0.71729 0.79663 0.27563 0.0
C782 C 0.71713 0.76679 0.28547 0.0
C783 C 0.69731 0.78519 0.2975 0.0
C784 C 0.70416 0.76918 0.29675 0.0
C785 C 0.70427 0.79903 0.28695 0.0
C786 C 0.79502 0.81897 0.2609 0.0
C787 C 0.78648 0.77028 0.22186 0.0
C788 C 0.84495 0.78786 0.2599 0.0
C789 C 0.85768 0.78229 0.24789 0.0
C790 C 0.87315 0.77863 0.25596 0.0
C791 C 0.8556 0.78248 0.22881 0.0
C792 C 0.88503 0.77721 0.22655 0.0
C793 C 0.86911 0.77996 0.21828 0.0
C794 C 0.88661 0.77605 0.24543 0.0
C795 C 0.78684 0.74459 0.26118 0.0
O796 O 0.77835 0.78699 0.28943 0.0
O797 O 0.80928 0.79175 0.29198 0.0
O798 O 0.74483 0.79054 0.25378 0.0
O799 O 0.74608 0.76537 0.26529 0.0
O800 O 0.77783 0.81619 0.25994 0.0
O801 O 0.79758 0.80261 0.26119 0.0
O802 O 0.80229 0.77327 0.23182 0.0
O803 O 0.77202 0.77252 0.22904 0.0
O804 O 0.83737 0.77583 0.27003 0.0
O805 O 0.83414 0.79684 0.25301 0.0
O806 O 0.80412 0.74778 0.2626 0.0
O807 O 0.78378 0.76071 0.26038 0.0
H808 H 0.72198 0.80735 0.26741 0.0
H809 H 0.72159 0.75394 0.28489 0.0
H810 H 0.69902 0.75802 0.30434 0.0
H811 H 0.69956 0.81169 0.28729 0.0
H812 H 0.87511 0.77837 0.27059 0.0
H813 H 0.84382 0.78523 0.22212 0.0
H814 H 0.86739 0.78104 0.20383 0.0
H815 H 0.89846 0.77353 0.25223 0.0
Gd816 Gd 0.79321 0.28419 0.74619 0.0
Gd817 Gd 0.78159 0.28717 0.7874 0.0
C818 C 0.79848 0.32495 0.7718 0.0
C819 C 0.79576 0.28363 0.71198 0.0
C820 C 0.80815 0.29706 0.70346 0.0
C821 C 0.81636 0.29045 0.68879 0.0
C822 C 0.81199 0.31676 0.71022 0.0
C823 C 0.82945 0.32337 0.68547 0.0
C824 C 0.82231 0.32975 0.70123 0.0
C825 C 0.82717 0.30354 0.67999 0.0
C826 C 0.82157 0.28832 0.77307 0.0
C827 C 0.77792 0.24624 0.76212 0.0
C828 C 0.77863 0.289 0.82163 0.0
C829 C 0.76442 0.27945 0.83119 0.0
C830 C 0.76057 0.28948 0.84724 0.0
C831 C 0.75544 0.25997 0.82508 0.0
C832 C 0.74303 0.25954 0.85375 0.0
C833 C 0.7448 0.25002 0.83635 0.0
C834 C 0.74969 0.27959 0.85838 0.0
C835 C 0.75324 0.28362 0.76065 0.0
O836 O 0.79513 0.31513 0.75472 0.0
O837 O 0.7974 0.31704 0.78665 0.0
O838 O 0.80297 0.27319 0.72151 0.0
O839 O 0.7841 0.29067 0.72023 0.0
O840 O 0.82282 0.28756 0.75567 0.0
O841 O 0.80562 0.28773 0.77476 0.0
O842 O 0.78 0.25616 0.77911 0.0
O843 O 0.77949 0.25401 0.74723 0.0
O844 O 0.77487 0.30163 0.81237 0.0
O845 O 0.78718 0.27788 0.81292 0.0
O846 O 0.75224 0.28501 0.77813 0.0
O847 O 0.76906 0.28357 0.75885 0.0
H848 H 0.81402 0.27524 0.68383 0.0
H849 H 0.8063 0.32226 0.72196 0.0
H850 H 0.82342 0.34473 0.70604 0.0
H851 H 0.83297 0.29802 0.66837 0.0
H852 H 0.76696 0.30465 0.85182 0.0
H853 H 0.75775 0.2521 0.81233 0.0
H854 H 0.73977 0.2346 0.83237 0.0
H855 H 0.74818 0.28726 0.87161 0.0
Gd856 Gd 0.79167 0.7957 0.76143 0.0
Gd857 Gd 0.77405 0.75228 0.74676 0.0
C858 C 0.74929 0.77774 0.76065 0.0
C859 C 0.80109 0.83181 0.76187 0.0
C860 C 0.79269 0.84685 0.76868 0.0
C861 C 0.79703 0.85669 0.78713 0.0
C862 C 0.77905 0.85031 0.75706 0.0
C863 C 0.7733 0.87195 0.78245 0.0
C864 C 0.7694 0.86261 0.76391 0.0
C865 C 0.78741 0.86924 0.79396 0.0
C866 C 0.78794 0.77744 0.79078 0.0
C867 C 0.81748 0.76932 0.75518 0.0
C868 C 0.76545 0.71552 0.73744 0.0
C869 C 0.77597 0.70165 0.73683 0.0
C870 C 0.77094 0.6852 0.72297 0.0
C871 C 0.79205 0.70573 0.74882 0.0
C872 C 0.79813 0.67711 0.73292 0.0
C873 C 0.80305 0.69356 0.74686 0.0
C874 C 0.78191 0.67291 0.72108 0.0
C875 C 0.77463 0.77571 0.72183 0.0
O876 O 0.76219 0.79287 0.75928 0.0
O877 O 0.75135 0.76031 0.75873 0.0
O878 O 0.80821 0.82404 0.77436 0.0
O879 O 0.79192 0.81923 0.74741 0.0
O880 O 0.79426 0.79582 0.79234 0.0
O881 O 0.78348 0.77021 0.77386 0.0
O882 O 0.80341 0.75417 0.75244 0.0
O883 O 0.81612 0.78696 0.75704 0.0
O884 O 0.76872 0.72696 0.7256 0.0
O885 O 0.76425 0.72438 0.75387 0.0
O886 O 0.76088 0.76179 0.72273 0.0
O887 O 0.78724 0.7766 0.73426 0.0
H888 H 0.80758 0.85441 0.79637 0.0
H889 H 0.77552 0.84319 0.74271 0.0
H890 H 0.75897 0.865 0.75458 0.0
H891 H 0.79082 0.87658 0.80823 0.0
H892 H 0.75869 0.68205 0.71344 0.0
H893 H 0.79622 0.71844 0.75955 0.0
H894 H 0.81534 0.69692 0.75638 0.0
H895 H 0.77786 0.6603 0.71022 0.0
Gd896 Gd 0.52482 0.52158 0.49908 0.0
Gd897 Gd 0.56 0.5422 0.52114 0.0
C898 C 0.53832 0.56775 0.50299 0.0
C899 C 0.49085 0.50951 0.48796 0.0
C900 C 0.4762 0.51885 0.48854 0.0
C901 C 0.47036 0.52536 0.47283 0.0
C902 C 0.46861 0.5223 0.50474 0.0
C903 C 0.45014 0.53928 0.48963 0.0
C904 C 0.45568 0.53239 0.50526 0.0
C905 C 0.45761 0.53559 0.47341 0.0
C906 C 0.54915 0.51987 0.47404 0.0
C907 C 0.54576 0.49639 0.5186 0.0
C908 C 0.59399 0.55559 0.53185 0.0
C909 C 0.60907 0.54738 0.53015 0.0
C910 C 0.62457 0.55482 0.54308 0.0
C911 C 0.60715 0.53059 0.51727 0.0
C912 C 0.63589 0.52821 0.53087 0.0
C913 C 0.6205 0.52112 0.51757 0.0
C914 C 0.63792 0.54532 0.54344 0.0
C915 C 0.53564 0.54377 0.54608 0.0
O916 O 0.52469 0.55225 0.49926 0.0
O917 O 0.55413 0.56731 0.51051 0.0
O918 O 0.50261 0.51571 0.47742 0.0
O919 O 0.49819 0.50666 0.50356 0.0
O920 O 0.53221 0.51161 0.47113 0.0
O921 O 0.55304 0.52799 0.49122 0.0
O922 O 0.55984 0.5114 0.5214 0.0
O923 O 0.52997 0.49703 0.51123 0.0
O924 O 0.58277 0.54755 0.54209 0.0
O925 O 0.58604 0.55857 0.51664 0.0
O926 O 0.55263 0.55173 0.54924 0.0
O927 O 0.5319 0.53575 0.5289 0.0
H928 H 0.47592 0.52289 0.46012 0.0
H929 H 0.47275 0.51738 0.51706 0.0
H930 H 0.44994 0.53468 0.51788 0.0
H931 H 0.45384 0.54088 0.46119 0.0
H932 H 0.62606 0.56759 0.55332 0.0
H933 H 0.5951 0.5245 0.50737 0.0
H934 H 0.61868 0.50815 0.50751 0.0
H935 H 0.64953 0.55102 0.55396 0.0
Gd936 Gd 0.05895 0.53251 0.00963 0.0
Gd937 Gd 0.01718 0.52748 0.00871 0.0
C938 C 0.03059 0.48974 0.00236 0.0
C939 C 0.09142 0.52949 0.01483 0.0
C940 C 0.10178 0.51495 0.01299 0.0
C941 C 0.10383 0.50548 0.9956 0.0
C942 C 0.11109 0.51167 0.02884 0.0
C943 C 0.12492 0.49055 0.00998 0.0
C944 C 0.12244 0.49962 0.02737 0.0
C945 C 0.11522 0.49346 0.99413 0.0
C946 C 0.0399 0.53196 0.97738 0.0
C947 C 0.04618 0.57036 0.01789 0.0
C948 C 0.98505 0.5307 0.00102 0.0
C949 C 0.97422 0.54466 0.00436 0.0
C950 C 0.96828 0.54895 0.02148 0.0
C951 C 0.96861 0.55285 0.98972 0.0
C952 C 0.95117 0.56905 0.00906 0.0
C953 C 0.95732 0.56486 0.99203 0.0
C954 C 0.95693 0.56098 0.0238 0.0
C955 C 0.03517 0.52688 0.04085 0.0
O956 O 0.04695 0.50092 0.00864 0.0
O957 O 0.01684 0.49679 -0.00126 0.0
O958 O 0.08426 0.53338 -0.00034 0.0
O959 O 0.08124 0.52949 0.02788 0.0
O960 O 0.0562 0.54265 0.98244 0.0
O961 O 0.03508 0.52182 0.98901 0.0
O962 O 0.02949 0.55961 0.01255 0.0
O963 O 0.05999 0.56315 0.02009 0.0
O964 O 0.99 0.52317 0.01489 0.0
O965 O 0.99739 0.53438 0.99028 0.0
O966 O 0.01821 0.51841 0.03632 0.0
O967 O 0.04089 0.53726 0.02961 0.0
H968 H 0.09692 0.50764 0.98305 0.0
H969 H 0.10997 0.51887 0.04242 0.0
H970 H 0.12978 0.49801 0.03992 0.0
H971 H 0.11651 0.48654 0.9805 0.0
H972 H 0.9722 0.54283 0.03307 0.0
H973 H 0.97267 0.54963 0.97627 0.0
H974 H 0.95299 0.5704 0.98021 0.0
H975 H 0.95266 0.56395 0.03717 0.0
H976 H 0.992 0.18768 0.91121 0.0
H977 H 0.99976 0.16234 0.92552 0.0
H978 H 0.0348 0.20513 0.96932 0.0
H979 H 0.02725 0.23044 0.95474 0.0
H980 H 0.04946 0.17633 0.96043 0.0
H981 H 0.9929 0.1813 0.97628 0.0
H982 H 0.96169 0.1827 0.97064 0.0
H983 H 0.94695 0.12661 0.9366 0.0
H984 H 0.97802 0.1249 0.94203 0.0
H985 H 0.05452 0.10542 0.01614 0.0
H986 H 0.05033 0.134 0.00519 0.0
H987 H 0.00984 0.09807 0.96127 0.0
H988 H 0.01321 0.06977 0.97284 0.0
H989 H 0.99891 0.12616 0.97343 0.0
H990 H 0.05755 0.12277 0.95744 0.0
H991 H 0.08898 0.12262 0.96484 0.0
H992 H 0.10018 0.17709 0.00121 0.0
H993 H 0.06879 0.17747 0.99416 0.0
C994 C 0.00167 0.19162 0.92365 0.0
C995 C 0.00924 0.21095 0.93175 0.0
C996 C 0.00597 0.17716 0.93195 0.0
C997 C 0.01769 0.18174 0.94872 0.0
C998 C 0.02576 0.20116 0.95643 0.0
C999 C 0.02149 0.21561 0.94808 0.0
C1000 C 0.02085 0.1663 0.95852 0.0
C1001 C 0.03841 0.16544 0.96342 0.0
C1002 C 0.00654 0.1521 0.96261 0.0
C1003 C 0.9878 0.15304 0.95944 0.0
C1004 C 0.983 0.1693 0.96753 0.0
C1005 C 0.96531 0.17013 0.96442 0.0
C1006 C 0.95231 0.15475 0.95328 0.0
C1007 C 0.95697 0.13849 0.94529 0.0
C1008 C 0.97461 0.13757 0.94841 0.0
C1009 C 0.04468 0.10367 0.00419 0.0
C1010 C 0.0342 0.08528 0.99539 0.0
C1011 C 0.0424 0.12004 0.9978 0.0
C1012 C 0.03 0.11837 0.98207 0.0
C1013 C 0.0195 0.09995 0.97341 0.0
C1014 C 0.02145 0.08368 0.98005 0.0
C1015 C 0.02752 0.13553 0.97461 0.0
C1016 C 0.01002 0.13691 0.97036 0.0
C1017 C 0.04194 0.15027 0.97133 0.0
C1018 C 0.06081 0.15006 0.9754 0.0
C1019 C 0.06671 0.13466 0.96708 0.0
C1020 C 0.08451 0.13454 0.97121 0.0
C1021 C 0.09656 0.14981 0.98353 0.0
C1022 C 0.09084 0.16527 0.9917 0.0
C1023 C 0.07306 0.16545 0.98762 0.0
H1024 H 0.11033 0.14968 0.98671 0.0
H1025 H 0.93865 0.15546 0.95086 0.0
H1026 H 0.11105 0.80819 0.16888 0.0
H1027 H 0.13486 0.80471 0.19136 0.0
H1028 H 0.16642 0.7967 0.14774 0.0
H1029 H 0.14311 0.80033 0.12548 0.0
H1030 H 0.16609 0.77017 0.17018 0.0
H1031 H 0.17703 0.83853 0.17703 0.0
H1032 H 0.16866 0.86887 0.18274 0.0
H1033 H 0.15702 0.8593 0.23651 0.0
H1034 H 0.1651 0.82876 0.23102 0.0
H1035 H 0.24886 0.7767 0.22444 0.0
H1036 H 0.22477 0.77931 0.20231 0.0
H1037 H 0.20109 0.80321 0.24734 0.0
H1038 H 0.22665 0.80322 0.26901 0.0
H1039 H 0.19676 0.82155 0.22363 0.0
H1040 H 0.18518 0.75284 0.21721 0.0
H1041 H 0.19236 0.72184 0.21126 0.0
H1042 H 0.20388 0.73086 0.15731 0.0
H1043 H 0.19684 0.76195 0.16297 0.0
C1044 C 0.1231 0.8058 0.16411 0.0
C1045 C 0.12506 0.80469 0.14529 0.0
C1046 C 0.13673 0.8038 0.17698 0.0
C1047 C 0.15255 0.80043 0.17131 0.0
C1048 C 0.15442 0.7992 0.15255 0.0
C1049 C 0.141 0.80143 0.1398 0.0
C1050 C 0.1673 0.79829 0.18473 0.0
C1051 C 0.17286 0.78144 0.18185 0.0
C1052 C 0.17608 0.8128 0.20012 0.0
C1053 C 0.17149 0.83128 0.20355 0.0
C1054 C 0.17257 0.84284 0.19003 0.0
C1055 C 0.16789 0.86008 0.19323 0.0
C1056 C 0.16226 0.86598 0.20996 0.0
C1057 C 0.16136 0.85469 0.22355 0.0
C1058 C 0.166 0.83743 0.22041 0.0
C1059 C 0.23879 0.78294 0.22955 0.0
C1060 C 0.24023 0.79052 0.24844 0.0
C1061 C 0.22459 0.78399 0.21687 0.0
C1062 C 0.21066 0.79137 0.22288 0.0
C1063 C 0.21161 0.79779 0.242 0.0
C1064 C 0.22626 0.79765 0.2545 0.0
C1065 C 0.19547 0.7931 0.20951 0.0
C1066 C 0.18991 0.81004 0.21222 0.0
C1067 C 0.18655 0.77853 0.19406 0.0
C1068 C 0.19062 0.75977 0.19058 0.0
C1069 C 0.18931 0.74823 0.20411 0.0
C1070 C 0.19336 0.73065 0.20079 0.0
C1071 C 0.19865 0.72442 0.18395 0.0
C1072 C 0.19981 0.73572 0.17036 0.0
C1073 C 0.19576 0.7533 0.17359 0.0
H1074 H 0.20179 0.71082 0.18142 0.0
H1075 H 0.15863 0.87932 0.21241 0.0
H1076 H 0.53418 0.81858 0.43002 0.0
H1077 H 0.54031 0.85271 0.44356 0.0
H1078 H 0.49829 0.83919 0.47692 0.0
H1079 H 0.49228 0.80529 0.4639 0.0
H1080 H 0.49551 0.8663 0.45245 0.0
H1081 H 0.53745 0.85244 0.49729 0.0
H1082 H 0.56383 0.84239 0.50803 0.0
H1083 H 0.59768 0.88703 0.48634 0.0
H1084 H 0.57149 0.8969 0.47482 0.0
H1085 H 0.50061 0.95842 0.50274 0.0
H1086 H 0.49815 0.92424 0.49325 0.0
H1087 H 0.55102 0.93855 0.47753 0.0
H1088 H 0.55389 0.97236 0.488 0.0
H1089 H 0.54879 0.91057 0.49295 0.0
H1090 H 0.51008 0.92332 0.44548 0.0
H1091 H 0.48536 0.93436 0.43191 0.0
H1092 H 0.44773 0.89348 0.45427 0.0
H1093 H 0.47226 0.88237 0.46819 0.0
C1094 C 0.52652 0.82284 0.44054 0.0
C1095 C 0.51263 0.80919 0.44574 0.0
C1096 C 0.53004 0.84232 0.44824 0.0
C1097 C 0.51965 0.84839 0.46113 0.0
C1098 C 0.50639 0.83475 0.46694 0.0
C1099 C 0.50301 0.81535 0.45947 0.0
C1100 C 0.52133 0.86897 0.46735 0.0
C1101 C 0.50708 0.876 0.46147 0.0
C1102 C 0.53673 0.88165 0.4785 0.0
C1103 C 0.55241 0.87522 0.48491 0.0
C1104 C 0.55046 0.85988 0.49446 0.0
C1105 C 0.56541 0.85422 0.50072 0.0
C1106 C 0.58242 0.86395 0.49772 0.0
C1107 C 0.58451 0.87936 0.48847 0.0
C1108 C 0.56961 0.88497 0.48204 0.0
C1109 C 0.51167 0.95417 0.4973 0.0
C1110 C 0.52744 0.968 0.49618 0.0
C1111 C 0.51024 0.93467 0.49175 0.0
C1112 C 0.52431 0.92873 0.48439 0.0
C1113 C 0.54001 0.94264 0.48324 0.0
C1114 C 0.54161 0.96202 0.48921 0.0
C1115 C 0.52294 0.90809 0.47804 0.0
C1116 C 0.53722 0.90099 0.48386 0.0
C1117 C 0.50781 0.89544 0.4663 0.0
C1118 C 0.49304 0.90217 0.45805 0.0
C1119 C 0.49655 0.9168 0.44764 0.0
C1120 C 0.48257 0.92304 0.43985 0.0
C1121 C 0.46499 0.91466 0.44227 0.0
C1122 C 0.46135 0.89998 0.45244 0.0
C1123 C 0.47529 0.8937 0.46027 0.0
H1124 H 0.45418 0.91951 0.43622 0.0
H1125 H 0.59399 0.85964 0.50267 0.0
H1126 H 0.50186 0.30152 0.61625 0.0
H1127 H 0.4761 0.29575 0.63286 0.0
H1128 H 0.50741 0.28179 0.67714 0.0
H1129 H 0.53349 0.28772 0.66058 0.0
H1130 H 0.47175 0.25588 0.66607 0.0
H1131 H 0.50034 0.32356 0.6841 0.0
H1132 H 0.51361 0.35606 0.67859 0.0
H1133 H 0.4639 0.35518 0.6477 0.0
H1134 H 0.45041 0.32254 0.65281 0.0
H1135 H 0.41279 0.26603 0.73394 0.0
H1136 H 0.43762 0.26595 0.71619 0.0
H1137 H 0.41177 0.28835 0.67411 0.0
H1138 H 0.38682 0.28816 0.69155 0.0
H1139 H 0.44524 0.30933 0.68443 0.0
H1140 H 0.41599 0.24292 0.66587 0.0
H1141 H 0.40192 0.20974 0.66897 0.0
H1142 H 0.4511 0.20708 0.69828 0.0
H1143 H 0.46542 0.24038 0.6956 0.0
C1144 C 0.50335 0.29723 0.62953 0.0
C1145 C 0.51985 0.29522 0.63711 0.0
C1146 C 0.48855 0.29392 0.63902 0.0
C1147 C 0.48978 0.28839 0.6563 0.0
C1148 C 0.50612 0.28602 0.66381 0.0
C1149 C 0.52105 0.28955 0.65439 0.0
C1150 C 0.47411 0.28577 0.66664 0.0
C1151 C 0.46611 0.26762 0.67039 0.0
C1152 C 0.46637 0.30091 0.67173 0.0
C1153 C 0.47443 0.32055 0.66869 0.0
C1154 C 0.49229 0.33024 0.676 0.0
C1155 C 0.49984 0.3487 0.67298 0.0
C1156 C 0.48962 0.35767 0.66276 0.0
C1157 C 0.47181 0.34821 0.65559 0.0
C1158 C 0.4642 0.32974 0.65856 0.0
C1159 C 0.41217 0.27055 0.72072 0.0
C1160 C 0.3978 0.27733 0.71436 0.0
C1161 C 0.42644 0.27052 0.71057 0.0
C1162 C 0.42669 0.27722 0.69379 0.0
C1163 C 0.41204 0.28328 0.68708 0.0
C1164 C 0.39778 0.28325 0.69716 0.0
C1165 C 0.44272 0.27938 0.68393 0.0
C1166 C 0.45085 0.29752 0.68024 0.0
C1167 C 0.45038 0.26415 0.67873 0.0
C1168 C 0.44172 0.24427 0.68076 0.0
C1169 C 0.42375 0.23536 0.67319 0.0
C1170 C 0.41574 0.2165 0.67482 0.0
C1171 C 0.42559 0.20633 0.68388 0.0
C1172 C 0.44348 0.215 0.69131 0.0
C1173 C 0.45155 0.23386 0.68974 0.0
H1174 H 0.41938 0.19172 0.68508 0.0
H1175 H 0.49548 0.37196 0.66044 0.0
H1176 H 0.99575 0.80601 0.6283 0.0
H1177 H 0.00464 0.83551 0.61619 0.0
H1178 H 0.0311 0.80792 0.57615 0.0
H1179 H 0.02275 0.77851 0.58862 0.0
H1180 H 0.05152 0.84232 0.59097 0.0
H1181 H 0.98966 0.81617 0.56456 0.0
H1182 H 0.95723 0.8035 0.56434 0.0
H1183 H 0.95607 0.85603 0.59834 0.0
H1184 H 0.98854 0.86892 0.59895 0.0
H1185 H 0.04975 0.8998 0.5218 0.0
H1186 H 0.04763 0.87546 0.54101 0.0
H1187 H 0.03169 0.91168 0.58402 0.0
H1188 H 0.03449 0.93653 0.56521 0.0
H1189 H 0.00714 0.87528 0.57059 0.0
H1190 H 0.0689 0.90235 0.59415 0.0
H1191 H 0.10102 0.91504 0.59274 0.0
H1192 H 0.10205 0.86067 0.56231 0.0
H1193 H 0.06987 0.84772 0.56333 0.0
C1194 C 0.00337 0.80618 0.61684 0.0
C1195 C 0.00851 0.78992 0.60936 0.0
C1196 C 0.00841 0.82305 0.60991 0.0
C1197 C 0.01838 0.82387 0.59513 0.0
C1198 C 0.02345 0.80762 0.58759 0.0
C1199 C 0.0186 0.7908 0.59467 0.0
C1200 C 0.02366 0.8417 0.58764 0.0
C1201 C 0.04179 0.84941 0.58633 0.0
C1202 C 0.01103 0.85128 0.58209 0.0
C1203 C 0.99157 0.84341 0.582 0.0
C1204 C 0.98252 0.82494 0.57215 0.0
C1205 C 0.96413 0.81774 0.57192 0.0
C1206 C 0.95461 0.82892 0.58138 0.0
C1207 C 0.96346 0.84736 0.59106 0.0
C1208 C 0.98186 0.85462 0.59135 0.0
C1209 C 0.04635 0.9029 0.53556 0.0
C1210 C 0.04203 0.92002 0.54185 0.0
C1211 C 0.04512 0.88894 0.54651 0.0
C1212 C 0.03947 0.89181 0.56386 0.0
C1213 C 0.03602 0.90923 0.57061 0.0
C1214 C 0.03746 0.92331 0.55977 0.0
C1215 C 0.0349 0.87569 0.57374 0.0
C1216 C 0.01688 0.86828 0.57544 0.0
C1217 C 0.04759 0.86634 0.57946 0.0
C1218 C 0.06692 0.87411 0.57867 0.0
C1219 C 0.07593 0.89315 0.58699 0.0
C1220 C 0.09416 0.90038 0.58631 0.0
C1221 C 0.10356 0.88868 0.5774 0.0
C1222 C 0.09475 0.86972 0.56919 0.0
C1223 C 0.07651 0.86242 0.56984 0.0
H1224 H 0.11768 0.8943 0.5769 0.0
H1225 H 0.94036 0.82333 0.58116 0.0
H1226 H 0.55498 0.79618 0.82291 0.0
H1227 H 0.52778 0.79689 0.80309 0.0
H1228 H 0.50148 0.80311 0.85141 0.0
H1229 H 0.52773 0.80181 0.87068 0.0
H1230 H 0.48314 0.77257 0.8248 0.0
H1231 H 0.51449 0.83965 0.83256 0.0
H1232 H 0.5383 0.86774 0.82931 0.0
H1233 H 0.52697 0.85103 0.77024 0.0
H1234 H 0.50322 0.82266 0.77316 0.0
H1235 H 0.40945 0.81228 0.81751 0.0
H1236 H 0.43882 0.80729 0.825 0.0
H1237 H 0.44238 0.7933 0.76696 0.0
H1238 H 0.41308 0.79896 0.75934 0.0
H1239 H 0.47273 0.8224 0.79048 0.0
H1240 H 0.44726 0.74731 0.7915 0.0
H1241 H 0.42528 0.72169 0.80166 0.0
H1242 H 0.42586 0.76008 0.85193 0.0
H1243 H 0.44836 0.78557 0.84237 0.0
C1244 C 0.54325 0.79753 0.82906 0.0
C1245 C 0.54303 0.79809 0.84808 0.0
C1246 C 0.52791 0.79813 0.81787 0.0
C1247 C 0.51265 0.79974 0.82586 0.0
C1248 C 0.51302 0.80147 0.84498 0.0
C1249 C 0.52796 0.80051 0.85593 0.0
C1250 C 0.49547 0.79808 0.81482 0.0
C1251 C 0.48092 0.78332 0.81702 0.0
C1252 C 0.49265 0.81216 0.80482 0.0
C1253 C 0.50735 0.8288 0.80308 0.0
C1254 C 0.51728 0.84177 0.81889 0.0
C1255 C 0.5307 0.8578 0.8171 0.0
C1256 C 0.53422 0.86111 0.79958 0.0
C1257 C 0.52429 0.8484 0.7838 0.0
C1258 C 0.51086 0.83234 0.78552 0.0
C1259 C 0.41642 0.80789 0.80637 0.0
C1260 C 0.4091 0.8059 0.78788 0.0
C1261 C 0.43307 0.80484 0.81065 0.0
C1262 C 0.44243 0.79932 0.79651 0.0
C1263 C 0.43515 0.79727 0.778 0.0
C1264 C 0.41855 0.80058 0.7737 0.0
C1265 C 0.46049 0.79737 0.80123 0.0
C1266 C 0.47511 0.81128 0.79764 0.0
C1267 C 0.46347 0.78314 0.81089 0.0
C1268 C 0.44888 0.7685 0.81589 0.0
C1269 C 0.4425 0.7503 0.8046 0.0
C1270 C 0.43017 0.73573 0.81038 0.0
C1271 C 0.42403 0.73932 0.82734 0.0
C1272 C 0.43044 0.75738 0.8387 0.0
C1273 C 0.44301 0.77186 0.83313 0.0
H1274 H 0.41439 0.72807 0.83171 0.0
H1275 H 0.54458 0.87356 0.79822 0.0
H1276 H 0.51655 0.19534 0.11961 0.0
H1277 H 0.52272 0.17237 0.09521 0.0
H1278 H 0.47062 0.16478 0.0648 0.0
H1279 H 0.46444 0.18799 0.08944 0.0
H1280 H 0.47895 0.13066 0.06972 0.0
H1281 H 0.50696 0.18934 0.04926 0.0
H1282 H 0.52724 0.22201 0.05436 0.0
H1283 H 0.57166 0.20081 0.07041 0.0
H1284 H 0.55162 0.16804 0.06554 0.0
H1285 H 0.49337 0.07288 0.98964 0.0
H1286 H 0.48613 0.09769 0.0113 0.0
H1287 H 0.54032 0.11477 0.0395 0.0
H1288 H 0.54768 0.09039 0.01767 0.0
H1289 H 0.53044 0.14493 0.03507 0.0
H1290 H 0.50571 0.08817 0.05728 0.0
H1291 H 0.48732 0.05642 0.06035 0.0
H1292 H 0.43953 0.07319 0.04753 0.0
H1293 H 0.45751 0.10483 0.04387 0.0
C1294 C 0.50651 0.18882 0.10761 0.0
C1295 C 0.49008 0.19321 0.10616 0.0
C1296 C 0.51007 0.17586 0.0937 0.0
C1297 C 0.4972 0.16714 0.07817 0.0
C1298 C 0.48072 0.17157 0.07668 0.0
C1299 C 0.47721 0.18472 0.09062 0.0
C1300 C 0.5007 0.15255 0.06409 0.0
C1301 C 0.48989 0.13375 0.0617 0.0
C1302 C 0.51565 0.15664 0.05462 0.0
C1303 C 0.52777 0.17626 0.05708 0.0
C1304 C 0.52104 0.19166 0.05392 0.0
C1305 C 0.5325 0.21019 0.05676 0.0
C1306 C 0.55072 0.21348 0.06272 0.0
C1307 C 0.55755 0.19824 0.06577 0.0
C1308 C 0.54615 0.17968 0.06292 0.0
C1309 C 0.50375 0.08211 0.00034 0.0
C1310 C 0.52108 0.07984 0.00201 0.0
C1311 C 0.49957 0.09609 0.01281 0.0
C1312 C 0.51265 0.1079 0.02712 0.0
C1313 C 0.53004 0.10582 0.02856 0.0
C1314 C 0.53423 0.09192 0.01608 0.0
C1315 C 0.50841 0.12284 0.0403 0.0
C1316 C 0.51922 0.14173 0.04271 0.0
C1317 C 0.49374 0.11871 0.05022 0.0
C1318 C 0.48298 0.09888 0.05017 0.0
C1319 C 0.49128 0.08496 0.05469 0.0
C1320 C 0.48093 0.06701 0.05664 0.0
C1321 C 0.46231 0.06292 0.05432 0.0
C1322 C 0.45396 0.07645 0.0494 0.0
C1323 C 0.46421 0.09435 0.04733 0.0
H1324 H 0.45429 0.04942 0.05661 0.0
H1325 H 0.55956 0.22784 0.06495 0.0
H1326 H 0.14768 0.35486 0.35398 0.0
H1327 H 0.16757 0.34677 0.33225 0.0
H1328 H 0.13904 0.28693 0.32495 0.0
H1329 H 0.11985 0.29479 0.34712 0.0
H1330 H 0.17251 0.29052 0.33048 0.0
H1331 H 0.13505 0.31582 0.29145 0.0
H1332 H 0.12066 0.33989 0.28241 0.0
H1333 H 0.17214 0.37929 0.28436 0.0
H1334 H 0.18684 0.35555 0.29364 0.0
H1335 H 0.21788 0.25791 0.26125 0.0
H1336 H 0.19229 0.26584 0.27362 0.0
H1337 H 0.22173 0.32559 0.28696 0.0
H1338 H 0.24717 0.3179 0.27434 0.0
H1339 H 0.18644 0.32101 0.27648 0.0
H1340 H 0.22352 0.297 0.31796 0.0
H1341 H 0.23832 0.27319 0.3269 0.0
H1342 H 0.18736 0.2316 0.32052 0.0
H1343 H 0.17228 0.25507 0.31121 0.0
C1344 C 0.14572 0.34001 0.34769 0.0
C1345 C 0.1324 0.32544 0.35234 0.0
C1346 C 0.15695 0.33542 0.33518 0.0
C1347 C 0.15464 0.31625 0.32683 0.0
C1348 C 0.1411 0.3018 0.33126 0.0
C1349 C 0.13018 0.30632 0.34399 0.0
C1350 C 0.16694 0.31092 0.31435 0.0
C1351 C 0.17527 0.29696 0.31848 0.0
C1352 C 0.17088 0.31966 0.29896 0.0
C1353 C 0.16204 0.33396 0.29343 0.0
C1354 C 0.1433 0.32967 0.2901 0.0
C1355 C 0.13509 0.34325 0.2849 0.0
C1356 C 0.14548 0.36112 0.28286 0.0
C1357 C 0.16411 0.36545 0.28597 0.0
C1358 C 0.17238 0.35193 0.29118 0.0
C1359 C 0.21877 0.27278 0.26647 0.0
C1360 C 0.23465 0.28725 0.2672 0.0
C1361 C 0.20415 0.27727 0.2735 0.0
C1362 C 0.20534 0.29623 0.28153 0.0
C1363 C 0.22062 0.31087 0.28089 0.0
C1364 C 0.23519 0.30641 0.27376 0.0
C1365 C 0.19174 0.30059 0.2926 0.0
C1366 C 0.18335 0.31442 0.28833 0.0
C1367 C 0.18772 0.29178 0.30791 0.0
C1368 C 0.19679 0.27772 0.31369 0.0
C1369 C 0.21548 0.28274 0.31833 0.0
C1370 C 0.22392 0.26931 0.32347 0.0
C1371 C 0.21379 0.25088 0.32423 0.0
C1372 C 0.1952 0.24586 0.31989 0.0
C1373 C 0.1867 0.25922 0.31467 0.0
H1374 H 0.22035 0.24051 0.32823 0.0
H1375 H 0.13909 0.37161 0.27883 0.0
H1376 H 0.93248 0.06004 0.18495 0.0
H1377 H 0.94448 0.05953 0.15521 0.0
H1378 H 0.99105 0.04654 0.17984 0.0
H1379 H 0.97939 0.04729 0.20911 0.0
H1380 H 0.00304 0.06844 0.15832 0.0
H1381 H 0.95253 0.01257 0.14656 0.0
H1382 H 0.92076 0.99503 0.14426 0.0
H1383 H 0.90667 0.02738 0.10448 0.0
H1384 H 0.93837 0.04527 0.10672 0.0
H1385 H 0.0411 0.03787 0.08008 0.0
H1386 H 0.02563 0.03955 0.10698 0.0
H1387 H 0.98138 0.0495 0.07443 0.0
H1388 H 0.99679 0.04675 0.04682 0.0
H1389 H 0.96705 0.03163 0.09902 0.0
H1390 H 0.01771 0.0866 0.10973 0.0
H1391 H 0.04943 0.10447 0.11228 0.0
H1392 H 0.06321 0.07473 0.15458 0.0
H1393 H 0.0316 0.05652 0.15213 0.0
C1394 C 0.94539 0.05734 0.18418 0.0
C1395 C 0.95474 0.0538 0.20007 0.0
C1396 C 0.95228 0.05677 0.16683 0.0
C1397 C 0.9689 0.05265 0.16446 0.0
C1398 C 0.97832 0.04973 0.18053 0.0
C1399 C 0.97146 0.05016 0.19763 0.0
C1400 C 0.97673 0.05133 0.1458 0.0
C1401 C 0.99503 0.06014 0.1455 0.0
C1402 C 0.96676 0.0411 0.12834 0.0
C1403 C 0.94777 0.03039 0.12696 0.0
C1404 C 0.94263 0.01603 0.13742 0.0
C1405 C 0.92465 0.00601 0.13611 0.0
C1406 C 0.9117 0.01013 0.12427 0.0
C1407 C 0.91672 0.02423 0.11367 0.0
C1408 C 0.93469 0.03431 0.11495 0.0
C1409 C 0.02793 0.04014 0.07836 0.0
C1410 C 0.02043 0.04195 0.06075 0.0
C1411 C 0.01905 0.04147 0.09416 0.0
C1412 C 0.00225 0.04547 0.09369 0.0
C1413 C 0.99431 0.04663 0.07588 0.0
C1414 C 0.00316 0.04491 0.05979 0.0
C1415 C 0.99346 0.04847 0.11164 0.0
C1416 C 0.97504 0.03999 0.11183 0.0
C1417 C 0.0033 0.0591 0.12906 0.0
C1418 C 0.0223 0.07008 0.13063 0.0
C1419 C 0.02752 0.0838 0.1195 0.0
C1420 C 0.04548 0.094 0.12094 0.0
C1421 C 0.05833 0.09071 0.13356 0.0
C1422 C 0.05324 0.07725 0.1448 0.0
C1423 C 0.03531 0.06701 0.14341 0.0
H1424 H 0.07222 0.09861 0.13464 0.0
H1425 H 0.89778 0.00236 0.12328 0.0
H1426 H 0.27558 0.70728 0.48456 0.0
H1427 H 0.26728 0.71381 0.45412 0.0
H1428 H 0.27283 0.6591 0.42856 0.0
H1429 H 0.28146 0.65259 0.45923 0.0
H1430 H 0.28281 0.69369 0.4088 0.0
H1431 H 0.23473 0.6555 0.4346 0.0
H1432 H 0.21807 0.64764 0.46026 0.0
H1433 H 0.20692 0.70236 0.46712 0.0
H1434 H 0.22379 0.71069 0.44173 0.0
H1435 H 0.23604 0.71496 0.33524 0.0
H1436 H 0.23454 0.69169 0.35562 0.0
H1437 H 0.23703 0.73584 0.40238 0.0
H1438 H 0.23959 0.75931 0.38244 0.0
H1439 H 0.21974 0.6964 0.4063 0.0
H1440 H 0.27505 0.73818 0.39236 0.0
H1441 H 0.29491 0.75173 0.371 0.0
H1442 H 0.29409 0.69508 0.34472 0.0
H1443 H 0.27409 0.68121 0.36592 0.0
C1444 C 0.27584 0.69706 0.4724 0.0
C1445 C 0.27899 0.67944 0.47405 0.0
C1446 C 0.271 0.70072 0.45509 0.0
C1447 C 0.26904 0.68667 0.43932 0.0
C1448 C 0.27421 0.66998 0.44071 0.0
C1449 C 0.27924 0.66636 0.45814 0.0
C1450 C 0.25925 0.68861 0.42213 0.0
C1451 C 0.26883 0.69356 0.40784 0.0
C1452 C 0.24114 0.68888 0.42131 0.0
C1453 C 0.23056 0.68372 0.43627 0.0
C1454 C 0.2288 0.66589 0.44164 0.0
C1455 C 0.21932 0.66135 0.45614 0.0
C1456 C 0.21144 0.67449 0.46531 0.0
C1457 C 0.21301 0.69219 0.45998 0.0
C1458 C 0.2225 0.69681 0.44552 0.0
C1459 C 0.23554 0.71953 0.34977 0.0
C1460 C 0.23886 0.73908 0.35745 0.0
C1461 C 0.23453 0.70618 0.36133 0.0
C1462 C 0.23624 0.71231 0.38044 0.0
C1463 C 0.23586 0.73099 0.3876 0.0
C1464 C 0.23729 0.74442 0.37613 0.0
C1465 C 0.24333 0.70161 0.39305 0.0
C1466 C 0.23336 0.69535 0.40666 0.0
C1467 C 0.26119 0.70048 0.39345 0.0
C1468 C 0.2729 0.70867 0.38049 0.0
C1469 C 0.27899 0.72863 0.38191 0.0
C1470 C 0.29033 0.73636 0.36991 0.0
C1471 C 0.29572 0.72427 0.35647 0.0
C1472 C 0.28984 0.70442 0.35509 0.0
C1473 C 0.27852 0.69661 0.36709 0.0
H1474 H 0.30446 0.73028 0.34716 0.0
H1475 H 0.20412 0.67095 0.47654 0.0
H1476 H 0.62625 0.00381 0.68158 0.0
H1477 H 0.61193 0.0065 0.65171 0.0
H1478 H 0.60669 0.06199 0.6754 0.0
H1479 H 0.62072 0.05927 0.70541 0.0
H1480 H 0.57644 0.04039 0.6556 0.0
H1481 H 0.63726 0.05878 0.64676 0.0
H1482 H 0.66831 0.05694 0.64681 0.0
H1483 H 0.65023 0.00417 0.60739 0.0
H1484 H 0.61903 0.00554 0.60729 0.0
H1485 H 0.56466 0.05598 0.55736 0.0
H1486 H 0.58361 0.05838 0.58641 0.0
H1487 H 0.55102 0.00356 0.59302 0.0
H1488 H 0.53164 0.0013 0.56417 0.0
H1489 H 0.60211 0.02952 0.59738 0.0
H1490 H 0.54007 0.01048 0.62389 0.0
H1491 H 0.51022 0.01619 0.62291 0.0
H1492 H 0.53405 0.07652 0.62762 0.0
H1493 H 0.56399 0.07102 0.62825 0.0
C1494 C 0.62202 0.01657 0.68041 0.0
C1495 C 0.62446 0.03129 0.69577 0.0
C1496 C 0.61402 0.01815 0.66335 0.0
C1497 C 0.60856 0.03456 0.6614 0.0
C1498 C 0.61091 0.04926 0.67671 0.0
C1499 C 0.61882 0.04764 0.69382 0.0
C1500 C 0.59943 0.03579 0.64355 0.0
C1501 C 0.58217 0.03815 0.64294 0.0
C1502 C 0.60702 0.03315 0.62706 0.0
C1503 C 0.62577 0.03219 0.62714 0.0
C1504 C 0.63988 0.04669 0.63823 0.0
C1505 C 0.65752 0.04575 0.63824 0.0
C1506 C 0.66124 0.03042 0.62714 0.0
C1507 C 0.64733 0.01602 0.61599 0.0
C1508 C 0.62966 0.01689 0.61593 0.0
C1509 C 0.56159 0.04444 0.56503 0.0
C1510 C 0.54669 0.02854 0.55882 0.0
C1511 C 0.57241 0.04582 0.58149 0.0
C1512 C 0.56847 0.03124 0.59174 0.0
C1513 C 0.55395 0.01505 0.58528 0.0
C1514 C 0.54296 0.01378 0.56893 0.0
C1515 C 0.5791 0.03331 0.60964 0.0
C1516 C 0.5966 0.03176 0.61018 0.0
C1517 C 0.57198 0.03704 0.62611 0.0
C1518 C 0.55412 0.04034 0.62603 0.0
C1519 C 0.53888 0.02493 0.62468 0.0
C1520 C 0.52197 0.02812 0.62413 0.0
C1521 C 0.52023 0.04671 0.62518 0.0
C1522 C 0.53541 0.06213 0.62676 0.0
C1523 C 0.55232 0.05898 0.62714 0.0
H1524 H 0.50714 0.04916 0.6248 0.0
H1525 H 0.6749 0.02973 0.62717 0.0
H1526 H 0.30798 0.32239 0.97414 0.0
H1527 H 0.30492 0.31319 0.94072 0.0
H1528 H 0.26826 0.3474 0.93421 0.0
H1529 H 0.27166 0.35737 0.96799 0.0
H1530 H 0.26275 0.30225 0.91044 0.0
H1531 H 0.29688 0.36939 0.92409 0.0
H1532 H 0.32038 0.3971 0.94214 0.0
H1533 H 0.36013 0.36753 0.93103 0.0
H1534 H 0.33677 0.33947 0.9132 0.0
H1535 H 0.26511 0.30256 0.81544 0.0
H1536 H 0.26377 0.31124 0.84812 0.0
H1537 H 0.31703 0.30587 0.86116 0.0
H1538 H 0.3187 0.29745 0.82807 0.0
H1539 H 0.31294 0.33718 0.8819 0.0
H1540 H 0.27926 0.27103 0.86631 0.0
H1541 H 0.256 0.24297 0.84847 0.0
H1542 H 0.21528 0.26991 0.86312 0.0
H1543 H 0.23832 0.29826 0.88086 0.0
C1544 C 0.29901 0.3278 0.96573 0.0
C1545 C 0.29014 0.34077 0.97382 0.0
C1546 C 0.29733 0.32251 0.94659 0.0
C1547 C 0.28653 0.32977 0.93507 0.0
C1548 C 0.27673 0.34174 0.94296 0.0
C1549 C 0.27865 0.34737 0.96223 0.0
C1550 C 0.28663 0.32562 0.91488 0.0
C1551 C 0.27347 0.31009 0.90405 0.0
C1552 C 0.30099 0.33548 0.9068 0.0
C1553 C 0.31505 0.35223 0.91759 0.0
C1554 C 0.3106 0.36869 0.92574 0.0
C1555 C 0.3239 0.38448 0.93586 0.0
C1556 C 0.34173 0.38405 0.9378 0.0
C1557 C 0.3463 0.36782 0.92957 0.0
C1558 C 0.33304 0.35197 0.91946 0.0
C1559 C 0.27663 0.30316 0.82515 0.0
C1560 C 0.29204 0.29917 0.81903 0.0
C1561 C 0.27575 0.30806 0.84393 0.0
C1562 C 0.29014 0.30885 0.85716 0.0
C1563 C 0.3057 0.30523 0.85118 0.0
C1564 C 0.30665 0.30041 0.83227 0.0
C1565 C 0.28892 0.31381 0.87718 0.0
C1566 C 0.30203 0.3294 0.88811 0.0
C1567 C 0.27444 0.30398 0.88529 0.0
C1568 C 0.26055 0.28686 0.87477 0.0
C1569 C 0.26536 0.27104 0.86562 0.0
C1570 C 0.25221 0.25507 0.85555 0.0
C1571 C 0.23418 0.25468 0.85462 0.0
C1572 C 0.22926 0.27024 0.86383 0.0
C1573 C 0.24236 0.28625 0.87392 0.0
H1574 H 0.22402 0.24231 0.8468 0.0
H1575 H 0.35202 0.3963 0.94562 0.0
H1576 H 0.93425 0.03146 0.30985 0.0
H1577 H 0.94688 0.02878 0.34049 0.0
H1578 H 0.99017 0.07897 0.34171 0.0
H1579 H 0.97782 0.08092 0.31038 0.0
H1580 H 0.00483 0.0581 0.35718 0.0
H1581 H 0.95206 0.07455 0.37104 0.0
H1582 H 0.91998 0.07284 0.36807 0.0
H1583 H 0.90783 0.01536 0.37832 0.0
H1584 H 0.93985 0.01666 0.38117 0.0
H1585 H 0.03212 0.06648 0.45625 0.0
H1586 H 0.01955 0.07136 0.42621 0.0
H1587 H 0.98745 0.01277 0.41401 0.0
H1588 H 1.00043 0.00765 0.4438 0.0
H1589 H 0.96751 0.03928 0.40516 0.0
H1590 H 0.02246 0.02523 0.39223 0.0
H1591 H 0.05504 0.02981 0.39667 0.0
H1592 H 0.06351 0.08723 0.38679 0.0
H1593 H 0.03096 0.08309 0.38255 0.0
C1594 C 0.94613 0.04239 0.31686 0.0
C1595 C 0.95438 0.05697 0.30762 0.0
C1596 C 0.95352 0.04082 0.33466 0.0
C1597 C 0.96955 0.0539 0.34438 0.0
C1598 C 0.9778 0.06859 0.33513 0.0
C1599 C 0.97049 0.06997 0.31713 0.0
C1600 C 0.97788 0.05173 0.36356 0.0
C1601 C 0.99651 0.0543 0.36764 0.0
C1602 C 0.96757 0.04651 0.3778 0.0
C1603 C 0.94833 0.04564 0.37613 0.0
C1604 C 0.94253 0.0615 0.37255 0.0
C1605 C 0.92437 0.06062 0.37091 0.0
C1606 C 0.91187 0.04398 0.37296 0.0
C1607 C 0.91753 0.02823 0.37672 0.0
C1608 C 0.93568 0.02904 0.37837 0.0
C1609 C 0.02244 0.05452 0.44723 0.0
C1610 C 0.01751 0.03657 0.45285 0.0
C1611 C 0.0152 0.05736 0.42982 0.0
C1612 C 0.00236 0.0425 0.41733 0.0
C1613 C 0.99724 0.02464 0.42304 0.0
C1614 C 0.0048 0.02167 0.44025 0.0
C1615 C 0.99428 0.04556 0.39857 0.0
C1616 C 0.97573 0.04315 0.39463 0.0
C1617 C 0.00472 0.05138 0.38468 0.0
C1618 C 0.02427 0.05392 0.38728 0.0
C1619 C 0.03127 0.0389 0.39119 0.0
C1620 C 0.04973 0.0414 0.39363 0.0
C1621 C 0.06134 0.05882 0.39207 0.0
C1622 C 0.0545 0.07376 0.38803 0.0
C1623 C 0.03605 0.07134 0.38559 0.0
H1624 H 0.07563 0.06072 0.39395 0.0
H1625 H 0.89781 0.04332 0.37167 0.0
H1626 H 0.2944 0.71596 0.56526 0.0
H1627 H 0.29504 0.73304 0.59655 0.0
H1628 H 0.2827 0.67937 0.61579 0.0
H1629 H 0.28247 0.66221 0.58438 0.0
H1630 H 0.25854 0.70524 0.62281 0.0
H1631 H 0.31936 0.70354 0.63271 0.0
H1632 H 0.34938 0.70643 0.62384 0.0
H1633 H 0.35587 0.76597 0.62255 0.0
H1634 H 0.32574 0.76336 0.63118 0.0
H1635 H 0.27596 0.7458 0.71911 0.0
H1636 H 0.27205 0.7276 0.68789 0.0
H1637 H 0.29051 0.78005 0.6676 0.0
H1638 H 0.29414 0.79853 0.69897 0.0
H1639 H 0.31088 0.75356 0.66124 0.0
H1640 H 0.24976 0.75497 0.65332 0.0
H1641 H 0.21979 0.75126 0.66254 0.0
H1642 H 0.21363 0.69128 0.66087 0.0
H1643 H 0.24371 0.69468 0.65193 0.0
C1644 C 0.29261 0.70795 0.57637 0.0
C1645 C 0.28879 0.68795 0.57275 0.0
C1646 C 0.29273 0.71762 0.59409 0.0
C1647 C 0.28874 0.70733 0.60825 0.0
C1648 C 0.28573 0.6874 0.60488 0.0
C1649 C 0.28593 0.67772 0.58715 0.0
C1650 C 0.28705 0.71767 0.62629 0.0
C1651 C 0.26997 0.71557 0.63147 0.0
C1652 C 0.30195 0.73138 0.6371 0.0
C1653 C 0.32027 0.73323 0.63247 0.0
C1654 C 0.32716 0.71723 0.63045 0.0
C1655 C 0.34419 0.71881 0.62548 0.0
C1656 C 0.35451 0.73636 0.6226 0.0
C1657 C 0.34785 0.75239 0.62478 0.0
C1658 C 0.33081 0.75087 0.62975 0.0
C1659 C 0.27856 0.75353 0.70793 0.0
C1660 C 0.28543 0.77353 0.71139 0.0
C1661 C 0.27634 0.7431 0.69012 0.0
C1662 C 0.28106 0.75255 0.67559 0.0
C1663 C 0.28682 0.77261 0.67877 0.0
C1664 C 0.28885 0.7831 0.69661 0.0
C1665 C 0.28233 0.74131 0.65781 0.0
C1666 C 0.29939 0.74323 0.65267 0.0
C1667 C 0.26739 0.72734 0.6472 0.0
C1668 C 0.24908 0.72511 0.65209 0.0
C1669 C 0.24207 0.741 0.65503 0.0
C1670 C 0.22506 0.73896 0.6602 0.0
C1671 C 0.21483 0.72105 0.66234 0.0
C1672 C 0.22158 0.70514 0.65922 0.0
C1673 C 0.2386 0.70711 0.65408 0.0
H1674 H 0.20167 0.71951 0.66638 0.0
H1675 H 0.36769 0.73756 0.61871 0.0
H1676 H 0.62372 0.06743 0.77166 0.0
H1677 H 0.61769 0.08054 0.80207 0.0
H1678 H 0.6265 0.03145 0.82271 0.0
H1679 H 0.63236 0.01817 0.7924 0.0
H1680 H 0.59608 0.03844 0.83062 0.0
H1681 H 0.65695 0.07277 0.83529 0.0
H1682 H 0.68379 0.09352 0.82668 0.0
H1683 H 0.65993 0.14031 0.83195 0.0
H1684 H 0.63289 0.11978 0.84022 0.0
H1685 H 0.60305 0.06374 0.92335 0.0
H1686 H 0.62127 0.07255 0.89949 0.0
H1687 H 0.57918 0.0915 0.87298 0.0
H1688 H 0.56052 0.08173 0.89603 0.0
H1689 H 0.62798 0.10215 0.86881 0.0
H1690 H 0.56225 0.05603 0.85252 0.0
H1691 H 0.53853 0.03235 0.86287 0.0
H1692 H 0.57733 0.00518 0.88252 0.0
H1693 H 0.60128 0.02904 0.87271 0.0
C1694 C 0.62417 0.05934 0.78262 0.0
C1695 C 0.62831 0.04168 0.77964 0.0
C1696 C 0.621 0.06699 0.80001 0.0
C1697 C 0.62192 0.05705 0.81458 0.0
C1698 C 0.62586 0.03934 0.81158 0.0
C1699 C 0.62905 0.03172 0.79426 0.0
C1700 C 0.61736 0.06423 0.83261 0.0
C1701 C 0.60309 0.05239 0.83887 0.0
C1702 C 0.62664 0.08235 0.84346 0.0
C1703 C 0.64278 0.09465 0.83813 0.0
C1704 C 0.65734 0.08742 0.83436 0.0
C1705 C 0.67263 0.09917 0.82959 0.0
C1706 C 0.67358 0.11822 0.82868 0.0
C1707 C 0.65924 0.12556 0.83257 0.0
C1708 C 0.64391 0.11387 0.8373 0.0
C1709 C 0.59798 0.07048 0.91283 0.0
C1710 C 0.58007 0.07103 0.91085 0.0
C1711 C 0.60854 0.07589 0.89945 0.0
C1712 C 0.60126 0.08213 0.88432 0.0
C1713 C 0.58489 0.08658 0.88459 0.0
C1714 C 0.57418 0.08084 0.89776 0.0
C1715 C 0.60657 0.07647 0.86631 0.0
C1716 C 0.62093 0.08841 0.86022 0.0
C1717 C 0.59775 0.05819 0.85566 0.0
C1718 C 0.58348 0.04436 0.86211 0.0
C1719 C 0.56568 0.04508 0.8592 0.0
C1720 C 0.55222 0.03166 0.86497 0.0
C1721 C 0.55642 0.01726 0.87334 0.0
C1722 C 0.57409 0.01632 0.87603 0.0
C1723 C 0.58762 0.02987 0.8705 0.0
H1724 H 0.54598 0.00686 0.87777 0.0
H1725 H 0.68547 0.12725 0.82504 0.0
H1726 H 0.26962 0.35611 0.07537 0.0
H1727 H 0.26305 0.34385 0.10378 0.0
H1728 H 0.31559 0.33505 0.11131 0.0
H1729 H 0.32185 0.34648 0.08299 0.0
H1730 H 0.29372 0.30538 0.1171 0.0
H1731 H 0.30222 0.37303 0.13799 0.0
H1732 H 0.29632 0.40441 0.13787 0.0
H1733 H 0.24207 0.3809 0.14602 0.0
H1734 H 0.2476 0.34931 0.14596 0.0
H1735 H 0.30525 0.29759 0.21198 0.0
H1736 H 0.30758 0.311 0.18368 0.0
H1737 H 0.2505 0.30209 0.175 0.0
H1738 H 0.24804 0.28821 0.20304 0.0
H1739 H 0.2715 0.33916 0.16923 0.0
H1740 H 0.26452 0.27188 0.15048 0.0
H1741 H 0.27151 0.24119 0.15166 0.0
H1742 H 0.32453 0.26506 0.14021 0.0
H1743 H 0.31797 0.29605 0.13935 0.0
C1744 C 0.27977 0.3517 0.08322 0.0
C1745 C 0.29621 0.3522 0.07682 0.0
C1746 C 0.27604 0.34471 0.0995 0.0
C1747 C 0.28884 0.33847 0.10986 0.0
C1748 C 0.30537 0.33951 0.10361 0.0
C1749 C 0.30896 0.34615 0.08735 0.0
C1750 C 0.28522 0.33041 0.12695 0.0
C1751 C 0.28905 0.31296 0.12853 0.0
C1752 C 0.27864 0.33985 0.14183 0.0
C1753 C 0.27526 0.35877 0.14174 0.0
C1754 C 0.28899 0.37452 0.13959 0.0
C1755 C 0.28572 0.39235 0.13959 0.0
C1756 C 0.26881 0.39463 0.14187 0.0
C1757 C 0.25514 0.3791 0.14421 0.0
C1758 C 0.25834 0.36123 0.1442 0.0
C1759 C 0.29322 0.29867 0.20415 0.0
C1760 C 0.27645 0.29183 0.20971 0.0
C1761 C 0.29456 0.30627 0.18794 0.0
C1762 C 0.2792 0.30748 0.17716 0.0
C1763 C 0.26252 0.30131 0.18309 0.0
C1764 C 0.26114 0.29338 0.19909 0.0
C1765 C 0.28051 0.31458 0.15942 0.0
C1766 C 0.27615 0.33168 0.15772 0.0
C1767 C 0.28679 0.30496 0.14449 0.0
C1768 C 0.29081 0.28636 0.14506 0.0
C1769 C 0.27774 0.27066 0.14842 0.0
C1770 C 0.28161 0.2532 0.14901 0.0
C1771 C 0.29848 0.2512 0.14609 0.0
C1772 C 0.31148 0.26665 0.14252 0.0
C1773 C 0.30769 0.28417 0.14198 0.0
H1774 H 0.30146 0.23767 0.14653 0.0
H1775 H 0.26631 0.40845 0.14188 0.0
H1776 H 0.27197 0.96788 0.04247 0.0
H1777 H 0.24775 0.98292 0.04639 0.0
H1778 H 0.21758 0.94738 0.99558 0.0
H1779 H 0.24177 0.93228 0.99145 0.0
H1780 H 0.21583 0.98515 -0.00023 0.0
H1781 H 0.20758 0.93407 0.03383 0.0
H1782 H 0.21756 0.91562 0.0558 0.0
H1783 H 0.22857 0.96453 0.09964 0.0
H1784 H 0.2189 0.98338 0.07784 0.0
H1785 H 0.13076 0.99467 0.01447 0.0
H1786 H 0.15397 0.9779 0.01281 0.0
H1787 H 0.18808 0.02107 0.05682 0.0
H1788 H 0.16536 0.03854 0.05804 0.0
H1789 H 0.18711 0.9786 0.0563 0.0
H1790 H 0.19725 0.03002 0.02103 0.0
H1791 H 0.18658 0.04782 -0.00119 0.0
H1792 H 0.17126 0.99693 0.95686 0.0
H1793 H 0.18157 0.97874 0.97899 0.0
C1794 C 0.26027 0.9634 0.03202 0.0
C1795 C 0.25865 0.94874 0.01677 0.0
C1796 C 0.24646 0.97197 0.03431 0.0
C1797 C 0.23085 0.96599 0.02141 0.0
C1798 C 0.22954 0.95207 0.0057 0.0
C1799 C 0.24333 0.94345 0.00341 0.0
C1800 C 0.21555 0.97364 0.02481 0.0
C1801 C 0.20945 0.98355 0.01202 0.0
C1802 C 0.20736 0.97161 0.04089 0.0
C1803 C 0.21265 0.96018 0.05418 0.0
C1804 C 0.21221 0.94092 0.04814 0.0
C1805 C 0.21781 0.93039 0.06056 0.0
C1806 C 0.22373 0.93891 0.0791 0.0
C1807 C 0.22398 0.95796 0.08527 0.0
C1808 C 0.21843 0.96857 0.07289 0.0
C1809 C 0.1432 0.00066 0.0238 0.0
C1810 C 0.14637 0.0182 0.0361 0.0
C1811 C 0.15629 0.99089 0.02301 0.0
C1812 C 0.17263 0.99836 0.03467 0.0
C1813 C 0.17543 0.0151 0.04784 0.0
C1814 C 0.16244 0.02505 0.04846 0.0
C1815 C 0.18759 0.99018 0.03133 0.0
C1816 C 0.19355 0.98016 0.04409 0.0
C1817 C 0.19563 0.99199 0.01519 0.0
C1818 C 0.19002 0.003 0.00168 0.0
C1819 C 0.19151 0.02261 0.00709 0.0
C1820 C 0.18553 0.03277 0.99452 0.0
C1821 C 0.1782 0.0235 0.97644 0.0
C1822 C 0.17692 0.00408 0.97088 0.0
C1823 C 0.18283 0.99384 0.98342 0.0
H1824 H 0.17356 0.03138 0.96673 0.0
H1825 H 0.22809 0.93075 0.08869 0.0
H1826 H 0.73753 0.63508 0.00574 0.0
H1827 H 0.7091 0.61292 0.00887 0.0
H1828 H 0.68103 0.63846 0.9713 0.0
H1829 H 0.70918 0.66099 0.96879 0.0
H1830 H 0.6645 0.63552 -0.00053 0.0
H1831 H 0.68827 0.59151 0.96021 0.0
H1832 H 0.71095 0.57482 0.9522 0.0
H1833 H 0.7072 0.551 0.00152 0.0
H1834 H 0.68464 0.56773 0.00992 0.0
H1835 H 0.57861 0.56816 0.98457 0.0
H1836 H 0.60771 0.58936 0.9821 0.0
H1837 H 0.63378 0.56007 0.01755 0.0
H1838 H 0.60482 0.53834 0.01921 0.0
H1839 H 0.65184 0.56498 0.99162 0.0
H1840 H 0.62872 0.60809 0.0314 0.0
H1841 H 0.60779 0.62626 0.04175 0.0
H1842 H 0.61116 0.65243 0.99382 0.0
H1843 H 0.63204 0.63433 0.98313 0.0
C1844 C 0.72532 0.63566 0.99786 0.0
C1845 C 0.72561 0.64974 0.98697 0.0
C1846 C 0.70903 0.62299 -0.00033 0.0
C1847 C 0.69278 0.62387 0.99026 0.0
C1848 C 0.69326 0.63749 0.97882 0.0
C1849 C 0.70942 0.6503 0.97729 0.0
C1850 C 0.67515 0.61139 0.99283 0.0
C1851 C 0.66167 0.62005 0.99748 0.0
C1852 C 0.67152 0.59125 0.99096 0.0
C1853 C 0.68489 0.58099 0.98576 0.0
C1854 C 0.69235 0.58279 0.96938 0.0
C1855 C 0.70518 0.57331 0.96477 0.0
C1856 C 0.71054 0.56189 0.97636 0.0
C1857 C 0.70304 0.55987 0.99256 0.0
C1858 C 0.69023 0.56932 0.99724 0.0
C1859 C 0.59057 0.56633 0.99187 0.0
C1860 C 0.58946 0.55153 0.002 0.0
C1861 C 0.60724 0.57857 0.99059 0.0
C1862 C 0.62311 0.57657 -0.0002 0.0
C1863 C 0.62186 0.56196 0.01021 0.0
C1864 C 0.60527 0.54954 0.01121 0.0
C1865 C 0.64105 0.58908 -0.00194 0.0
C1866 C 0.65461 0.58044 0.9936 0.0
C1867 C 0.64482 0.60928 0.00029 0.0
C1868 C 0.63185 0.61975 0.00641 0.0
C1869 C 0.62489 0.6176 0.023 0.0
C1870 C 0.61311 0.62796 0.02896 0.0
C1871 C 0.60823 0.64056 0.01849 0.0
C1872 C 0.61502 0.64274 0.00196 0.0
C1873 C 0.62685 0.63245 0.99595 0.0
H1874 H 0.59913 0.64859 0.02315 0.0
H1875 H 0.72048 0.55459 0.97278 0.0
H1876 H 0.70014 0.45775 0.29965 0.0
H1877 H 0.71434 0.43191 0.29529 0.0
H1878 H 0.69855 0.42258 0.23659 0.0
H1879 H 0.68393 0.44889 0.24098 0.0
H1880 H 0.69582 0.3875 0.2457 0.0
H1881 H 0.74442 0.44421 0.2598 0.0
H1882 H 0.76248 0.47564 0.27746 0.0
H1883 H 0.76988 0.45064 0.32529 0.0
H1884 H 0.75166 0.41908 0.30797 0.0
H1885 H 0.74844 0.31857 0.23185 0.0
H1886 H 0.7338 0.34428 0.23176 0.0
H1887 H 0.7597 0.36956 0.28738 0.0
H1888 H 0.77581 0.34499 0.28642 0.0
H1889 H 0.75697 0.39739 0.27769 0.0
H1890 H 0.70583 0.34007 0.26318 0.0
H1891 H 0.68778 0.3091 0.24432 0.0
H1892 H 0.68492 0.33543 0.1967 0.0
H1893 H 0.70318 0.36639 0.21514 0.0
C1894 C 0.69959 0.45048 0.28563 0.0
C1895 C 0.69062 0.45622 0.27076 0.0
C1896 C 0.70802 0.43538 0.28312 0.0
C1897 C 0.70821 0.42473 0.26551 0.0
C1898 C 0.69904 0.43014 0.25048 0.0
C1899 C 0.69061 0.44553 0.253 0.0
C1900 C 0.71789 0.40834 0.26322 0.0
C1901 C 0.70927 0.38988 0.25265 0.0
C1902 C 0.73552 0.41043 0.27222 0.0
C1903 C 0.74655 0.42933 0.28264 0.0
C1904 C 0.7498 0.44544 0.27412 0.0
C1905 C 0.76008 0.46327 0.28406 0.0
C1906 C 0.76729 0.46515 0.3025 0.0
C1907 C 0.76427 0.44917 0.31102 0.0
C1908 C 0.75399 0.4313 0.30114 0.0
C1909 C 0.75101 0.32953 0.24415 0.0
C1910 C 0.76351 0.32911 0.25918 0.0
C1911 C 0.7422 0.34448 0.24429 0.0
C1912 C 0.74453 0.35951 0.25987 0.0
C1913 C 0.75705 0.35883 0.27491 0.0
C1914 C 0.76638 0.34436 0.27446 0.0
C1915 C 0.73476 0.376 0.26061 0.0
C1916 C 0.74342 0.39468 0.27089 0.0
C1917 C 0.71713 0.37404 0.25138 0.0
C1918 C 0.70601 0.35547 0.24048 0.0
C1919 C 0.70141 0.3392 0.24867 0.0
C1920 C 0.69119 0.32166 0.23805 0.0
C1921 C 0.6853 0.32034 0.21933 0.0
C1922 C 0.68955 0.3365 0.21119 0.0
C1923 C 0.69984 0.35402 0.2217 0.0
H1924 H 0.67737 0.30684 0.2111 0.0
H1925 H 0.77523 0.47897 0.31018 0.0
H1926 H 0.85093 0.43647 0.5449 0.0
H1927 H 0.87845 0.46227 0.5474 0.0
H1928 H 0.86363 0.46777 0.49114 0.0
H1929 H 0.83563 0.44321 0.48928 0.0
H1930 H 0.90292 0.45815 0.52954 0.0
H1931 H 0.88639 0.50654 0.47939 0.0
H1932 H 0.86238 0.5212 0.47113 0.0
H1933 H 0.84698 0.52062 0.52518 0.0
H1934 H 0.87103 0.5061 0.53384 0.0
H1935 H 0.97223 0.49136 0.47962 0.0
H1936 H 0.94188 0.47925 0.48672 0.0
H1937 H 0.94902 0.53084 0.5269 0.0
H1938 H 0.97931 0.54296 0.52005 0.0
H1939 H 0.91499 0.51743 0.50325 0.0
H1940 H 0.95499 0.4961 0.54321 0.0
H1941 H 0.97864 0.48058 0.55046 0.0
H1942 H 0.94646 0.42731 0.5177 0.0
H1943 H 0.92278 0.44254 0.50975 0.0
C1944 C 0.85344 0.44367 0.53334 0.0
C1945 C 0.84144 0.43796 0.51688 0.0
C1946 C 0.86905 0.45839 0.53476 0.0
C1947 C 0.87308 0.46709 0.51951 0.0
C1948 C 0.86064 0.46179 0.50331 0.0
C1949 C 0.84475 0.44757 0.50214 0.0
C1950 C 0.89137 0.47897 0.51932 0.0
C1951 C 0.90552 0.4713 0.5241 0.0
C1952 C 0.89482 0.49611 0.51216 0.0
C1953 C 0.88051 0.50519 0.50725 0.0
C1954 C 0.87798 0.50967 0.48957 0.0
C1955 C 0.86433 0.51791 0.4848 0.0
C1956 C 0.85316 0.52183 0.49762 0.0
C1957 C 0.85563 0.51754 0.51525 0.0
C1958 C 0.86925 0.50927 0.52009 0.0
C1959 C 0.96719 0.5002 0.48974 0.0
C1960 C 0.97805 0.51796 0.4994 0.0
C1961 C 0.94997 0.49328 0.49382 0.0
C1962 C 0.94347 0.50416 0.50742 0.0
C1963 C 0.95395 0.5223 0.5164 0.0
C1964 C 0.97121 0.52912 0.51252 0.0
C1965 C 0.92604 0.49615 0.51294 0.0
C1966 C 0.91224 0.50454 0.50913 0.0
C1967 C 0.92284 0.47967 0.521 0.0
C1968 C 0.93715 0.47053 0.52574 0.0
C1969 C 0.95301 0.48113 0.53737 0.0
C1970 C 0.96642 0.47238 0.54165 0.0
C1971 C 0.96406 0.45302 0.53458 0.0
C1972 C 0.94829 0.44233 0.52317 0.0
C1973 C 0.93487 0.45101 0.51875 0.0
H1974 H 0.97446 0.44629 0.53796 0.0
H1975 H 0.84258 0.52819 0.49389 0.0
H1976 H 0.3855 0.08129 0.29896 0.0
H1977 H 0.36473 0.09781 0.28682 0.0
H1978 H 0.37826 0.0839 0.23211 0.0
H1979 H 0.39972 0.06841 0.24439 0.0
H1980 H 0.37698 0.11803 0.23705 0.0
H1981 H 0.33705 0.06057 0.24554 0.0
H1982 H 0.32348 0.03459 0.26145 0.0
H1983 H 0.30971 0.07499 0.30193 0.0
H1984 H 0.32342 0.10126 0.28643 0.0
H1985 H 0.3056 0.15887 0.20755 0.0
H1986 H 0.3232 0.13571 0.20964 0.0
H1987 H 0.32624 0.14694 0.269 0.0
H1988 H 0.30833 0.1693 0.26702 0.0
H1989 H 0.31613 0.10894 0.2544 0.0
H1990 H 0.36163 0.16674 0.24658 0.0
H1991 H 0.37514 0.19129 0.229 0.0
H1992 H 0.37674 0.14724 0.18419 0.0
H1993 H 0.36318 0.12246 0.20147 0.0
C1994 C 0.38405 0.08187 0.28438 0.0
C1995 C 0.39425 0.07375 0.27264 0.0
C1996 C 0.37205 0.09109 0.27739 0.0
C1997 C 0.36967 0.09175 0.25845 0.0
C1998 C 0.37986 0.08357 0.24674 0.0
C1999 C 0.39215 0.07478 0.25379 0.0
C2000 C 0.35717 0.10177 0.25105 0.0
C2001 C 0.36354 0.11575 0.24055 0.0
C2002 C 0.33957 0.0987 0.25542 0.0
C2003 C 0.33137 0.08292 0.26486 0.0
C2004 C 0.33125 0.06394 0.25791 0.0
C2005 C 0.32351 0.04915 0.26685 0.0
C2006 C 0.31576 0.05314 0.2827 0.0
C2007 C 0.31572 0.07192 0.28965 0.0
C2008 C 0.32345 0.08676 0.28078 0.0
C2009 C 0.30995 0.15624 0.221 0.0
C2010 C 0.30566 0.16593 0.23713 0.0
C2011 C 0.3201 0.14319 0.22217 0.0
C2012 C 0.32603 0.13974 0.23948 0.0
C2013 C 0.32176 0.14942 0.25552 0.0
C2014 C 0.31165 0.16232 0.25437 0.0
C2015 C 0.33635 0.12576 0.24137 0.0
C2016 C 0.32947 0.11088 0.25065 0.0
C2017 C 0.35332 0.1278 0.23561 0.0
C2018 C 0.36115 0.14277 0.22519 0.0
C2019 C 0.3647 0.16231 0.2329 0.0
C2020 C 0.37242 0.17626 0.22302 0.0
C2021 C 0.37669 0.17082 0.20545 0.0
C2022 C 0.37336 0.15143 0.19777 0.0
C2023 C 0.36568 0.13744 0.2076 0.0
H2024 H 0.38259 0.18162 0.19779 0.0
H2025 H 0.30977 0.04167 0.28959 0.0
H2026 H 0.32254 0.15438 0.52011 0.0
H2027 H 0.34609 0.13884 0.52733 0.0
H2028 H 0.36136 0.14159 0.47324 0.0
H2029 H 0.33819 0.15731 0.46606 0.0
H2030 H 0.35714 0.10518 0.48299 0.0
H2031 H 0.38624 0.17205 0.50951 0.0
H2032 H 0.38955 0.20275 0.53037 0.0
H2033 H 0.39129 0.17529 0.57733 0.0
H2034 H 0.38773 0.14435 0.55672 0.0
H2035 H 0.43931 0.08487 0.48333 0.0
H2036 H 0.41669 0.1024 0.48284 0.0
H2037 H 0.41165 0.09855 0.53965 0.0
H2038 H 0.43467 0.08121 0.54039 0.0
H2039 H 0.40929 0.13409 0.53204 0.0
H2040 H 0.38112 0.06861 0.50839 0.0
H2041 H 0.37732 0.03673 0.48953 0.0
H2042 H 0.37196 0.05954 0.43998 0.0
H2043 H 0.37596 0.09166 0.45858 0.0
C2044 C 0.33089 0.15163 0.50974 0.0
C2045 C 0.32839 0.15707 0.49246 0.0
C2046 C 0.34442 0.14284 0.51394 0.0
C2047 C 0.35559 0.13908 0.50086 0.0
C2048 C 0.35296 0.14432 0.48357 0.0
C2049 C 0.33967 0.15334 0.47949 0.0
C2050 C 0.36978 0.12932 0.50479 0.0
C2051 C 0.3686 0.11163 0.49361 0.0
C2052 C 0.38441 0.13724 0.51918 0.0
C2053 C 0.38648 0.15583 0.53155 0.0
C2054 C 0.38714 0.17251 0.52427 0.0
C2055 C 0.3891 0.18997 0.53605 0.0
C2056 C 0.39057 0.19096 0.55516 0.0
C2057 C 0.39012 0.1745 0.56253 0.0
C2058 C 0.38813 0.157 0.5508 0.0
C2059 C 0.4337 0.08804 0.49588 0.0
C2060 C 0.43882 0.08146 0.51187 0.0
C2061 C 0.42062 0.09797 0.49553 0.0
C2062 C 0.41222 0.10162 0.51113 0.0
C2063 C 0.41784 0.09587 0.52741 0.0
C2064 C 0.43091 0.08581 0.52775 0.0
C2065 C 0.39687 0.11029 0.50981 0.0
C2066 C 0.39776 0.12763 0.5215 0.0
C2067 C 0.3817 0.10188 0.49618 0.0
C2068 C 0.37898 0.08256 0.48488 0.0
C2069 C 0.37923 0.06685 0.49347 0.0
C2070 C 0.37703 0.04874 0.48283 0.0
C2071 C 0.37444 0.04612 0.46356 0.0
C2072 C 0.37398 0.0616 0.4549 0.0
C2073 C 0.37618 0.07976 0.46549 0.0
H2074 H 0.37276 0.03208 0.45534 0.0
H2075 H 0.3921 0.20449 0.56426 0.0
H2076 H 0.7114 0.56017 0.26375 0.0
H2077 H 0.73036 0.59206 0.26155 0.0
H2078 H 0.68767 0.61695 0.27413 0.0
H2079 H 0.66905 0.58581 0.27634 0.0
H2080 H 0.7012 0.63259 0.24792 0.0
H2081 H 0.72726 0.6229 0.30588 0.0
H2082 H 0.74145 0.60588 0.3264 0.0
H2083 H 0.78519 0.61033 0.29496 0.0
H2084 H 0.77113 0.62719 0.2741 0.0
H2085 H 0.75015 0.73306 0.26539 0.0
H2086 H 0.73192 0.70087 0.26689 0.0
H2087 H 0.77702 0.67856 0.25849 0.0
H2088 H 0.79517 0.71057 0.25751 0.0
H2089 H 0.76239 0.66112 0.28187 0.0
H2090 H 0.73654 0.67124 0.22399 0.0
H2091 H 0.72219 0.688 0.20331 0.0
H2092 H 0.67795 0.68248 0.23411 0.0
H2093 H 0.69214 0.66587 0.25511 0.0
C2094 C 0.7061 0.57243 0.26625 0.0
C2095 C 0.68844 0.5699 0.27032 0.0
C2096 C 0.71702 0.59087 0.26497 0.0
C2097 C 0.71071 0.60747 0.26766 0.0
C2098 C 0.69317 0.60481 0.2718 0.0
C2099 C 0.68242 0.58664 0.27317 0.0
C2100 C 0.72191 0.62757 0.26626 0.0
C2101 C 0.71453 0.63878 0.25554 0.0
C2102 C 0.73954 0.63611 0.27577 0.0
C2103 C 0.74806 0.62612 0.28833 0.0
C2104 C 0.73985 0.62013 0.30327 0.0
C2105 C 0.74787 0.61053 0.31498 0.0
C2106 C 0.76418 0.60697 0.31196 0.0
C2107 C 0.77254 0.61307 0.29726 0.0
C2108 C 0.76456 0.62266 0.2855 0.0
C2109 C 0.75617 0.72136 0.26366 0.0
C2110 C 0.77432 0.72485 0.26118 0.0
C2111 C 0.74563 0.70266 0.26448 0.0
C2112 C 0.75272 0.6866 0.2626 0.0
C2113 C 0.77084 0.69023 0.26008 0.0
C2114 C 0.78132 0.70881 0.25941 0.0
C2115 C 0.74172 0.66621 0.26347 0.0
C2116 C 0.74911 0.65494 0.27415 0.0
C2117 C 0.72409 0.6576 0.25387 0.0
C2118 C 0.71549 0.66749 0.24123 0.0
C2119 C 0.7238 0.67371 0.22642 0.0
C2120 C 0.71569 0.68317 0.21463 0.0
C2121 C 0.69919 0.68635 0.21743 0.0
C2122 C 0.69074 0.68003 0.23198 0.0
C2123 C 0.69881 0.67058 0.24382 0.0
H2124 H 0.69293 0.69368 0.2083 0.0
H2125 H 0.77037 0.59953 0.32103 0.0
H2126 H 0.91212 0.45814 0.74455 0.0
H2127 H 0.88733 0.43112 0.74572 0.0
H2128 H 0.85327 0.4686 0.75484 0.0
H2129 H 0.87857 0.4962 0.75486 0.0
H2130 H 0.85459 0.4469 0.78153 0.0
H2131 H 0.84483 0.43399 0.71368 0.0
H2132 H 0.86004 0.43379 0.68598 0.0
H2133 H 0.88262 0.38983 0.70093 0.0
H2134 H 0.86752 0.38974 0.72866 0.0
H2135 H 0.78345 0.34869 0.75589 0.0
H2136 H 0.79866 0.38141 0.75297 0.0
H2137 H 0.84527 0.37908 0.78789 0.0
H2138 H 0.82979 0.34672 0.79151 0.0
H2139 H 0.83344 0.38476 0.73761 0.0
H2140 H 0.85902 0.41115 0.80681 0.0
H2141 H 0.85325 0.41457 0.8392 0.0
H2142 H 0.80661 0.43264 0.82413 0.0
H2143 H 0.81195 0.42886 0.79155 0.0
C2144 C 0.89926 0.46066 0.74628 0.0
C2145 C 0.89735 0.47929 0.75003 0.0
C2146 C 0.88504 0.44514 0.74682 0.0
C2147 C 0.86848 0.44791 0.75027 0.0
C2148 C 0.86602 0.46629 0.75221 0.0
C2149 C 0.88042 0.48196 0.75209 0.0
C2150 C 0.85461 0.43187 0.75403 0.0
C2151 C 0.84953 0.43347 0.77174 0.0
C2152 C 0.84866 0.41423 0.74147 0.0
C2153 C 0.85501 0.41183 0.72321 0.0
C2154 C 0.8528 0.42406 0.71087 0.0
C2155 C 0.86154 0.42413 0.69527 0.0
C2156 C 0.8725 0.41201 0.69185 0.0
C2157 C 0.87428 0.39936 0.7037 0.0
C2158 C 0.86548 0.39914 0.71926 0.0
C2159 C 0.79666 0.35558 0.76355 0.0
C2160 C 0.80554 0.34556 0.77402 0.0
C2161 C 0.80529 0.37413 0.76185 0.0
C2162 C 0.82292 0.38259 0.77039 0.0
C2163 C 0.83145 0.37295 0.7817 0.0
C2164 C 0.82266 0.35452 0.78372 0.0
C2165 C 0.83327 0.39996 0.765 0.0
C2166 C 0.83783 0.39845 0.74706 0.0
C2167 C 0.83922 0.41754 0.77749 0.0
C2168 C 0.83569 0.41943 0.79682 0.0
C2169 C 0.84743 0.41564 0.81042 0.0
C2170 C 0.84425 0.41765 0.82878 0.0
C2171 C 0.82952 0.42374 0.83371 0.0
C2172 C 0.81794 0.4278 0.82027 0.0
C2173 C 0.82098 0.42564 0.80185 0.0
H2174 H 0.82712 0.42538 0.84795 0.0
H2175 H 0.87939 0.41222 0.67987 0.0
H2176 H 0.09301 0.8528 0.06394 0.0
H2177 H 0.08584 0.87917 0.05164 0.0
H2178 H 0.0476 0.88167 0.08949 0.0
H2179 H 0.05449 0.8547 0.10177 0.0
H2180 H 0.0348 0.88577 0.05458 0.0
H2181 H 0.08965 0.91417 0.09751 0.0
H2182 H 0.12084 0.91691 0.10988 0.0
H2183 H 0.13724 0.9261 0.05759 0.0
H2184 H 0.10611 0.92315 0.04483 0.0
H2185 H 0.02386 0.97527 0.03813 0.0
H2186 H 0.02844 0.94783 0.05077 0.0
H2187 H 0.07641 0.95184 0.02537 0.0
H2188 H 0.07263 0.9805 0.01433 0.0
H2189 H 0.08371 0.94404 0.05502 0.0
H2190 H 0.03141 0.91456 0.01041 0.0
H2191 H 1.00078 0.90972 0.99493 0.0
H2192 H 0.98002 0.90001 0.04523 0.0
H2193 H 0.01055 0.90501 0.06107 0.0
C2194 C 0.08309 0.85891 0.06979 0.0
C2195 C 0.0745 0.85164 0.08408 0.0
C2196 C 0.07902 0.8741 0.0627 0.0
C2197 C 0.0664 0.88276 0.0698 0.0
C2198 C 0.05747 0.87535 0.08381 0.0
C2199 C 0.06149 0.85997 0.0909 0.0
C2200 C 0.06284 0.89964 0.06267 0.0
C2201 C 0.04543 0.89865 0.05489 0.0
C2202 C 0.07678 0.91621 0.06238 0.0
C2203 C 0.09554 0.91832 0.07019 0.0
C2204 C 0.0999 0.91669 0.08863 0.0
C2205 C 0.11757 0.91828 0.09571 0.0
C2206 C 0.13101 0.92164 0.08452 0.0
C2207 C 0.12682 0.92349 0.06624 0.0
C2208 C 0.10917 0.92188 0.05909 0.0
C2209 C 0.03532 0.97017 0.03518 0.0
C2210 C 0.04784 0.97993 0.02516 0.0
C2211 C 0.03787 0.95429 0.04227 0.0
C2212 C 0.05258 0.94715 0.03877 0.0
C2213 C 0.06494 0.95686 0.02843 0.0
C2214 C 0.06276 0.97322 0.02199 0.0
C2215 C 0.0556 0.93025 0.04652 0.0
C2216 C 0.07296 0.93123 0.05455 0.0
C2217 C 0.04168 0.91345 0.04649 0.0
C2218 C 0.02329 0.91035 0.03697 0.0
C2219 C 0.02033 0.91151 0.0182 0.0
C2220 C 0.00297 0.90872 0.00935 0.0
C2221 C 0.98847 0.90462 0.0191 0.0
C2222 C 0.99127 0.90322 0.0377 0.0
C2223 C 0.00859 0.90601 0.04661 0.0
H2224 H 0.97505 0.90247 0.01223 0.0
H2225 H 0.14467 0.92285 0.09002 0.0
H2226 H 0.93126 0.24138 0.8874 0.0
H2227 H 0.90724 0.24853 0.86905 0.0
H2228 H 0.94464 0.27592 0.83589 0.0
H2229 H 0.9692 0.26929 0.85487 0.0
H2230 H 0.92243 0.29731 0.84443 0.0
H2231 H 0.91345 0.23075 0.81943 0.0
H2232 H 0.90983 0.19671 0.82088 0.0
H2233 H 0.86293 0.19509 0.84703 0.0
H2234 H 0.86641 0.22919 0.84595 0.0
H2235 H 0.85697 0.29899 0.7712 0.0
H2236 H 0.8814 0.29413 0.79133 0.0
H2237 H 0.84415 0.2704 0.82644 0.0
H2238 H 0.8195 0.27536 0.80613 0.0
H2239 H 0.86605 0.24755 0.8174 0.0
H2240 H 0.87427 0.31351 0.84175 0.0
H2241 H 0.87772 0.34761 0.84083 0.0
H2242 H 0.92569 0.35054 0.81635 0.0
H2243 H 0.92239 0.31635 0.81686 0.0
C2244 C 0.9345 0.24871 0.87606 0.0
C2245 C 0.95232 0.25461 0.87263 0.0
C2246 C 0.9206 0.25276 0.86547 0.0
C2247 C 0.9239 0.26259 0.85082 0.0
C2248 C 0.94163 0.26827 0.84706 0.0
C2249 C 0.95568 0.26428 0.8578 0.0
C2250 C 0.90882 0.26723 0.83991 0.0
C2251 C 0.91025 0.28634 0.83825 0.0
C2252 C 0.89255 0.25314 0.83232 0.0
C2253 C 0.89027 0.23256 0.83273 0.0
C2254 C 0.90242 0.22316 0.82557 0.0
C2255 C 0.90039 0.20385 0.82632 0.0
C2256 C 0.88618 0.19376 0.83407 0.0
C2257 C 0.87394 0.20293 0.84104 0.0
C2258 C 0.87592 0.22224 0.84034 0.0
C2259 C 0.85399 0.29307 0.78341 0.0
C2260 C 0.83629 0.28772 0.78715 0.0
C2261 C 0.86803 0.29032 0.79496 0.0
C2262 C 0.86477 0.28197 0.81054 0.0
C2263 C 0.84709 0.27692 0.81455 0.0
C2264 C 0.833 0.27993 0.80305 0.0
C2265 C 0.8797 0.27758 0.82183 0.0
C2266 C 0.87825 0.25851 0.82357 0.0
C2267 C 0.89591 0.29171 0.8295 0.0
C2268 C 0.89798 0.3123 0.82918 0.0
C2269 C 0.88548 0.32137 0.83602 0.0
C2270 C 0.88742 0.34073 0.8356 0.0
C2271 C 0.90189 0.35122 0.82849 0.0
C2272 C 0.91448 0.34238 0.82183 0.0
C2273 C 0.91258 0.32302 0.8222 0.0
H2274 H 0.90338 0.36621 0.82818 0.0
H2275 H 0.88464 0.17882 0.83466 0.0
H2276 H 0.59322 0.2456 0.58743 0.0
H2277 H 0.58568 0.21171 0.57384 0.0
H2278 H 0.53129 0.21207 0.55731 0.0
H2279 H 0.5387 0.24612 0.57221 0.0
H2280 H 0.53092 0.17939 0.56682 0.0
H2281 H 0.56289 0.21382 0.52587 0.0
H2282 H 0.58706 0.23766 0.51648 0.0
H2283 H 0.62523 0.20906 0.53465 0.0
H2284 H 0.60133 0.18518 0.54437 0.0
H2285 H 0.51908 0.08862 0.50844 0.0
H2286 H 0.52156 0.12258 0.51822 0.0
H2287 H 0.57528 0.13154 0.54513 0.0
H2288 H 0.57305 0.09759 0.53513 0.0
H2289 H 0.57263 0.15975 0.52634 0.0
H2290 H 0.53876 0.12677 0.56963 0.0
H2291 H 0.51323 0.1024 0.57633 0.0
H2292 H 0.47668 0.1281 0.54971 0.0
H2293 H 0.50201 0.15256 0.54276 0.0
C2294 C 0.57962 0.23842 0.58097 0.0
C2295 C 0.56658 0.24845 0.58059 0.0
C2296 C 0.57533 0.21906 0.57309 0.0
C2297 C 0.55806 0.20941 0.5639 0.0
C2298 C 0.54476 0.21924 0.5641 0.0
C2299 C 0.54897 0.23864 0.57255 0.0
C2300 C 0.55431 0.18923 0.55399 0.0
C2301 C 0.53987 0.17518 0.55772 0.0
C2302 C 0.5659 0.18357 0.542 0.0
C2303 C 0.58031 0.19776 0.53593 0.0
C2304 C 0.57645 0.21266 0.52794 0.0
C2305 C 0.5901 0.22618 0.52255 0.0
C2306 C 0.60767 0.22489 0.52499 0.0
C2307 C 0.61161 0.21004 0.53276 0.0
C2308 C 0.59801 0.19648 0.53818 0.0
C2309 C 0.5315 0.09781 0.51634 0.0
C2310 C 0.54586 0.09034 0.52109 0.0
C2311 C 0.53284 0.11723 0.522 0.0
C2312 C 0.54848 0.12955 0.5327 0.0
C2313 C 0.56305 0.12227 0.53695 0.0
C2314 C 0.56176 0.10286 0.5312 0.0
C2315 C 0.54971 0.14997 0.53973 0.0
C2316 C 0.56362 0.16405 0.53533 0.0
C2317 C 0.53742 0.15562 0.55073 0.0
C2318 C 0.52226 0.14141 0.55559 0.0
C2319 C 0.52527 0.12721 0.56521 0.0
C2320 C 0.51084 0.11338 0.56904 0.0
C2321 C 0.49335 0.11368 0.56341 0.0
C2322 C 0.49024 0.12789 0.55406 0.0
C2323 C 0.50462 0.14176 0.55021 0.0
H2324 H 0.48219 0.10292 0.56632 0.0
H2325 H 0.61823 0.23538 0.52083 0.0
H2326 H 0.55002 0.79734 0.3572 0.0
H2327 H 0.5784 0.79984 0.34501 0.0
H2328 H 0.58977 0.75889 0.37677 0.0
H2329 H 0.56109 0.75589 0.38867 0.0
H2330 H 0.62001 0.79536 0.37744 0.0
H2331 H 0.57863 0.74114 0.33675 0.0
H2332 H 0.55029 0.72429 0.31645 0.0
H2333 H 0.561 0.76571 0.28113 0.0
H2334 H 0.58931 0.78298 0.3014 0.0
H2335 H 0.69168 0.7749 0.33124 0.0
H2336 H 0.66568 0.77451 0.3472 0.0
H2337 H 0.64301 0.79916 0.30486 0.0
H2338 H 0.66854 0.79883 0.28844 0.0
H2339 H 0.6186 0.7706 0.31088 0.0
H2340 H 0.66048 0.82443 0.35038 0.0
H2341 H 0.68838 0.84244 0.3709 0.0
H2342 H 0.67706 0.80364 0.40865 0.0
H2343 H 0.64919 0.78521 0.38822 0.0
C2344 C 0.55851 0.78881 0.36158 0.0
C2345 C 0.55315 0.77629 0.37382 0.0
C2346 C 0.57478 0.79031 0.35464 0.0
C2347 C 0.58629 0.77962 0.36002 0.0
C2348 C 0.58117 0.76735 0.37249 0.0
C2349 C 0.56469 0.76554 0.37915 0.0
C2350 C 0.60322 0.7807 0.35189 0.0
C2351 C 0.61978 0.78972 0.36295 0.0
C2352 C 0.60293 0.77379 0.33291 0.0
C2353 C 0.58596 0.76346 0.32069 0.0
C2354 C 0.57485 0.74676 0.32476 0.0
C2355 C 0.55881 0.73711 0.31323 0.0
C2356 C 0.55382 0.74396 0.29754 0.0
C2357 C 0.56487 0.76044 0.29331 0.0
C2358 C 0.58092 0.77016 0.3048 0.0
C2359 C 0.68117 0.78024 0.32527 0.0
C2360 C 0.6823 0.78679 0.30839 0.0
C2361 C 0.66634 0.78022 0.33459 0.0
C2362 C 0.65227 0.78689 0.32737 0.0
C2363 C 0.6536 0.79391 0.31079 0.0
C2364 C 0.66838 0.79388 0.30146 0.0
C2365 C 0.63565 0.78546 0.33633 0.0
C2366 C 0.61903 0.7763 0.32539 0.0
C2367 C 0.63597 0.79238 0.35542 0.0
C2368 C 0.65284 0.8033 0.36764 0.0
C2369 C 0.66402 0.81961 0.36296 0.0
C2370 C 0.67981 0.82993 0.3746 0.0
C2371 C 0.68452 0.82415 0.39104 0.0
C2372 C 0.67342 0.80807 0.39589 0.0
C2373 C 0.65762 0.79769 0.38429 0.0
H2374 H 0.69674 0.83217 0.40004 0.0
H2375 H 0.5414 0.73646 0.28862 0.0
H2376 H 0.07945 0.28233 0.44562 0.0
H2377 H 0.07254 0.25134 0.45528 0.0
H2378 H 0.06972 0.2229 0.39902 0.0
H2379 H 0.07702 0.25422 0.38935 0.0
H2380 H 0.03877 0.20976 0.41584 0.0
H2381 H 0.10142 0.2183 0.42815 0.0
H2382 H 0.13274 0.23644 0.43967 0.0
H2383 H 0.12005 0.24598 0.49489 0.0
H2384 H 0.08861 0.22804 0.48367 0.0
H2385 H 0.02411 0.12257 0.45342 0.0
H2386 H 0.03084 0.14852 0.4361 0.0
H2387 H 0.04603 0.18973 0.48721 0.0
H2388 H 0.04064 0.16394 0.5046 0.0
H2389 H 0.07268 0.19255 0.46762 0.0
H2390 H 0.00927 0.18642 0.45456 0.0
H2391 H 0.97779 0.16915 0.44273 0.0
H2392 H 0.99161 0.15525 0.38854 0.0
H2393 H 0.02323 0.17223 0.4001 0.0
C2394 C 0.07797 0.26949 0.43547 0.0
C2395 C 0.07893 0.27048 0.41687 0.0
C2396 C 0.07397 0.25184 0.44094 0.0
C2397 C 0.07064 0.23491 0.42782 0.0
C2398 C 0.07233 0.23588 0.40929 0.0
C2399 C 0.07668 0.25367 0.40385 0.0
C2400 C 0.06391 0.21645 0.43363 0.0
C2401 C 0.04626 0.20563 0.42686 0.0
C2402 C 0.07367 0.2114 0.44814 0.0
C2403 C 0.09265 0.22185 0.45506 0.0
C2404 C 0.1053 0.22432 0.44274 0.0
C2405 C 0.12308 0.23456 0.44922 0.0
C2406 C 0.12838 0.24237 0.468 0.0
C2407 C 0.11593 0.23989 0.48035 0.0
C2408 C 0.09814 0.22964 0.47395 0.0
C2409 C 0.02863 0.13719 0.46098 0.0
C2410 C 0.03236 0.14114 0.48041 0.0
C2411 C 0.03228 0.15201 0.45103 0.0
C2412 C 0.03921 0.17101 0.4604 0.0
C2413 C 0.0409 0.1751 0.47974 0.0
C2414 C 0.03759 0.1603 0.48969 0.0
C2415 C 0.04717 0.18629 0.45048 0.0
C2416 C 0.06517 0.19641 0.45641 0.0
C2417 C 0.03768 0.19059 0.43519 0.0
C2418 C 0.01866 0.18041 0.42826 0.0
C2419 C 0.00563 0.17953 0.44016 0.0
C2420 C 0.98775 0.16983 0.4335 0.0
C2421 C 0.98272 0.16105 0.41491 0.0
C2422 C 0.99554 0.16202 0.40294 0.0
C2423 C 0.01343 0.1717 0.40954 0.0
H2424 H 0.96887 0.15355 0.40978 0.0
H2425 H 0.14214 0.25033 0.47298 0.0
H2426 H 0.54789 0.27136 0.16094 0.0
H2427 H 0.57937 0.28011 0.1742 0.0
H2428 H 0.5659 0.24728 0.21676 0.0
H2429 H 0.53438 0.23821 0.20352 0.0
H2430 H 0.59426 0.28458 0.22784 0.0
H2431 H 0.57539 0.22433 0.18257 0.0
H2432 H 0.56207 0.2048 0.15181 0.0
H2433 H 0.60011 0.24222 0.12658 0.0
H2434 H 0.61349 0.26213 0.15719 0.0
H2435 H 0.6679 0.25232 0.25671 0.0
H2436 H 0.63948 0.25861 0.24709 0.0
H2437 H 0.65836 0.27326 0.19687 0.0
H2438 H 0.68648 0.26634 0.20625 0.0
H2439 H 0.62824 0.25005 0.18846 0.0
H2440 H 0.65018 0.30806 0.23291 0.0
H2441 H 0.66408 0.32862 0.26309 0.0
H2442 H 0.62187 0.29813 0.28903 0.0
H2443 H 0.60781 0.27732 0.25905 0.0
C2444 C 0.55157 0.26636 0.17337 0.0
C2445 C 0.53878 0.25389 0.18109 0.0
C2446 C 0.5695 0.2714 0.1809 0.0
C2447 C 0.57474 0.26421 0.19629 0.0
C2448 C 0.56192 0.25296 0.20487 0.0
C2449 C 0.544 0.2477 0.19723 0.0
C2450 C 0.59365 0.26622 0.202 0.0
C2451 C 0.60182 0.2771 0.21934 0.0
C2452 C 0.60338 0.2568 0.19052 0.0
C2453 C 0.59525 0.24488 0.17212 0.0
C2454 C 0.58077 0.22852 0.17044 0.0
C2455 C 0.57324 0.21735 0.15304 0.0
C2456 C 0.58019 0.22231 0.13724 0.0
C2457 C 0.59471 0.23843 0.13882 0.0
C2458 C 0.60226 0.24965 0.15619 0.0
C2459 C 0.66597 0.25717 0.24378 0.0
C2460 C 0.67909 0.25871 0.23207 0.0
C2461 C 0.64987 0.26095 0.23836 0.0
C2462 C 0.64694 0.26676 0.2214 0.0
C2463 C 0.66037 0.26886 0.21003 0.0
C2464 C 0.67634 0.26485 0.21532 0.0
C2465 C 0.6292 0.26845 0.21455 0.0
C2466 C 0.62106 0.25806 0.19694 0.0
C2467 C 0.61966 0.27859 0.2257 0.0
C2468 C 0.62805 0.29105 0.24377 0.0
C2469 C 0.64397 0.30566 0.24509 0.0
C2470 C 0.65185 0.31737 0.26214 0.0
C2471 C 0.64391 0.31463 0.27797 0.0
C2472 C 0.62802 0.30022 0.27676 0.0
C2473 C 0.62006 0.2885 0.25974 0.0
H2474 H 0.65004 0.3237 0.29116 0.0
H2475 H 0.57436 0.21364 0.12379 0.0
H2476 H 0.551 0.86407 0.90028 0.0
H2477 H 0.55027 0.89551 0.9149 0.0
H2478 H 0.60781 0.91288 0.92766 0.0
H2479 H 0.60863 0.8806 0.91349 0.0
H2480 H 0.59217 0.92006 0.95737 0.0
H2481 H 0.5849 0.93264 0.89579 0.0
H2482 H 0.57168 0.9244 0.86294 0.0
H2483 H 0.51974 0.92214 0.8783 0.0
H2484 H 0.53257 0.9301 0.91122 0.0
H2485 H 0.5786 0.00472 0.00589 0.0
H2486 H 0.58917 0.98281 0.98443 0.0
H2487 H 0.53499 0.95646 0.95741 0.0
H2488 H 0.52466 0.97973 0.97783 0.0
H2489 H 0.55524 0.95882 0.93265 0.0
H2490 H 0.55845 0.93694 0.99084 0.0
H2491 H 0.56794 0.94042 0.02425 0.0
H2492 H 0.62297 0.9553 0.01581 0.0
H2493 H 0.61378 0.9521 0.98236 0.0
C2494 C 0.5636 0.87457 0.90592 0.0
C2495 C 0.5799 0.86978 0.90592 0.0
C2496 C 0.56315 0.89271 0.91409 0.0
C2497 C 0.579 0.90668 0.92206 0.0
C2498 C 0.59544 0.90229 0.92141 0.0
C2499 C 0.5959 0.88392 0.91332 0.0
C2500 C 0.57784 0.92482 0.933 0.0
C2501 C 0.58456 0.92892 0.95187 0.0
C2502 C 0.56735 0.9359 0.92588 0.0
C2503 C 0.55974 0.93202 0.90602 0.0
C2504 C 0.57066 0.93041 0.89217 0.0
C2505 C 0.56323 0.92575 0.87353 0.0
C2506 C 0.54489 0.92275 0.86854 0.0
C2507 C 0.53395 0.92451 0.88218 0.0
C2508 C 0.54131 0.92916 0.90084 0.0
C2509 C 0.56898 0.9943 0.9953 0.0
C2510 C 0.55085 0.99389 0.99339 0.0
C2511 C 0.57501 0.98169 0.98312 0.0
C2512 C 0.56286 0.96776 0.96946 0.0
C2513 C 0.54464 0.96714 0.96778 0.0
C2514 C 0.53871 0.98024 0.97956 0.0
C2515 C 0.56899 0.95355 0.95713 0.0
C2516 C 0.56327 0.9503 0.93805 0.0
C2517 C 0.57991 0.9428 0.9641 0.0
C2518 C 0.58544 0.94449 0.98416 0.0
C2519 C 0.57257 0.94105 0.99614 0.0
C2520 C 0.57789 0.94296 0.01507 0.0
C2521 C 0.59605 0.94813 0.02216 0.0
C2522 C 0.60891 0.95133 0.01031 0.0
C2523 C 0.60366 0.94945 0.99136 0.0
H2524 H 0.60014 0.94962 0.03682 0.0
H2525 H 0.53915 0.91906 0.85411 0.0
H2526 H 0.95429 0.77437 0.67532 0.0
H2527 H 0.93155 0.78213 0.69343 0.0
H2528 H 0.90474 0.72193 0.6867 0.0
H2529 H 0.92755 0.71408 0.66901 0.0
H2530 H 0.88193 0.74712 0.68251 0.0
H2531 H 0.93177 0.73963 0.7231 0.0
H2532 H 0.96348 0.74759 0.73652 0.0
H2533 H 0.96335 0.8058 0.75559 0.0
H2534 H 0.93167 0.79822 0.74201 0.0
H2535 H 0.8259 0.73546 0.74619 0.0
H2536 H 0.85334 0.73192 0.73491 0.0
H2537 H 0.87651 0.79306 0.74929 0.0
H2538 H 0.84935 0.79679 0.76103 0.0
H2539 H 0.90214 0.77109 0.74977 0.0
H2540 H 0.85343 0.77986 0.70965 0.0
H2541 H 0.82137 0.77271 0.69775 0.0
H2542 H 0.81958 0.71402 0.67818 0.0
H2543 H 0.85162 0.72082 0.69007 0.0
C2544 C 0.94328 0.76287 0.67735 0.0
C2545 C 0.94259 0.74365 0.67094 0.0
C2546 C 0.93044 0.7673 0.68774 0.0
C2547 C 0.91673 0.75254 0.69145 0.0
C2548 C 0.91534 0.73343 0.68394 0.0
C2549 C 0.92831 0.72899 0.67389 0.0
C2550 C 0.90445 0.75666 0.7042 0.0
C2551 C 0.88632 0.75231 0.6972 0.0
C2552 C 0.91039 0.76385 0.72326 0.0
C2553 C 0.92944 0.76842 0.73131 0.0
C2554 C 0.93856 0.75417 0.72996 0.0
C2555 C 0.95651 0.75861 0.73764 0.0
C2556 C 0.96545 0.77721 0.74684 0.0
C2557 C 0.95643 0.79141 0.74841 0.0
C2558 C 0.93848 0.78705 0.74073 0.0
C2559 C 0.83705 0.74808 0.74763 0.0
C2560 C 0.83525 0.76646 0.75378 0.0
C2561 C 0.85273 0.74602 0.74125 0.0
C2562 C 0.86658 0.76232 0.74085 0.0
C2563 C 0.86581 0.78039 0.74938 0.0
C2564 C 0.85018 0.78246 0.75588 0.0
C2565 C 0.87962 0.76098 0.72812 0.0
C2566 C 0.89782 0.76604 0.73506 0.0
C2567 C 0.87384 0.75472 0.70893 0.0
C2568 C 0.85485 0.75081 0.70087 0.0
C2569 C 0.84618 0.76543 0.70282 0.0
C2570 C 0.82802 0.76144 0.69612 0.0
C2571 C 0.81841 0.74289 0.68738 0.0
C2572 C 0.82702 0.72836 0.68505 0.0
C2573 C 0.84519 0.73228 0.69171 0.0
H2574 H 0.80433 0.73979 0.68232 0.0
H2575 H 0.97934 0.78061 0.7528 0.0
H2576 H 0.11008 0.03196 0.81566 0.0
H2577 H 0.09861 0.03244 0.84489 0.0
H2578 H 0.12694 0.99231 0.85869 0.0
H2579 H 0.13881 0.99175 0.82874 0.0
H2580 H 0.09242 0.98396 0.87071 0.0
H2581 H 0.14116 0.04149 0.87936 0.0
H2582 H 0.15796 0.07158 0.87118 0.0
H2583 H 0.11226 0.09363 0.87431 0.0
H2584 H 0.09511 0.06356 0.88227 0.0
H2585 H 0.07127 0.99665 0.9641 0.0
H2586 H 0.08634 0.99449 0.93651 0.0
H2587 H 0.07136 0.04372 0.92297 0.0
H2588 H 0.05677 0.04607 0.95084 0.0
H2589 H 0.10057 0.04685 0.91119 0.0
H2590 H 0.05094 0.99203 0.89994 0.0
H2591 H 0.03075 0.96218 0.90515 0.0
H2592 H 0.07344 0.93525 0.9039 0.0
H2593 H 0.09398 0.96506 0.89892 0.0
C2594 C 0.11412 0.02308 0.82467 0.0
C2595 C 0.12576 0.01185 0.81912 0.0
C2596 C 0.10742 0.02349 0.84182 0.0
C2597 C 0.1118 0.0127 0.85484 0.0
C2598 C 0.12312 0.00101 0.84935 0.0
C2599 C 0.13005 0.0007 0.832 0.0
C2600 C 0.10468 0.01416 0.87386 0.0
C2601 C 0.09462 0.99774 0.87967 0.0
C2602 C 0.10645 0.03203 0.88577 0.0
C2603 C 0.11683 0.05023 0.8813 0.0
C2604 C 0.13468 0.05272 0.87822 0.0
C2605 C 0.14426 0.06977 0.87363 0.0
C2606 C 0.13617 0.08449 0.8722 0.0
C2607 C 0.1185 0.08221 0.87542 0.0
C2608 C 0.10886 0.06518 0.88 0.0
C2609 C 0.07163 0.00743 0.95561 0.0
C2610 C 0.0632 0.02204 0.96056 0.0
C2611 C 0.08004 0.00595 0.93931 0.0
C2612 C 0.0801 0.01869 0.92669 0.0
C2613 C 0.07194 0.03352 0.93193 0.0
C2614 C 0.0636 0.03502 0.94824 0.0
C2615 C 0.08835 0.01661 0.90828 0.0
C2616 C 0.09851 0.03298 0.90245 0.0
C2617 C 0.08625 0.99873 0.89613 0.0
C2618 C 0.07406 0.98085 0.89931 0.0
C2619 C 0.05607 0.9798 0.90095 0.0
C2620 C 0.04456 0.96288 0.90382 0.0
C2621 C 0.05083 0.94685 0.90492 0.0
C2622 C 0.06862 0.9477 0.9031 0.0
C2623 C 0.08021 0.9646 0.90024 0.0
H2624 H 0.04189 0.93376 0.90713 0.0
H2625 H 0.14361 0.09768 0.86862 0.0
H2626 H 0.77828 0.35122 0.55543 0.0
H2627 H 0.78951 0.35444 0.58809 0.0
H2628 H 0.8046 0.41592 0.59399 0.0
H2629 H 0.79256 0.41288 0.56165 0.0
H2630 H 0.83221 0.38628 0.59558 0.0
H2631 H 0.79001 0.41561 0.62361 0.0
H2632 H 0.75931 0.41794 0.62558 0.0
H2633 H 0.744 0.36088 0.63674 0.0
H2634 H 0.77458 0.35813 0.63459 0.0
H2635 H 0.84582 0.36227 0.69486 0.0
H2636 H 0.84287 0.38481 0.67463 0.0
H2637 H 0.82717 0.33869 0.62763 0.0
H2638 H 0.82725 0.31575 0.64761 0.0
H2639 H 0.80673 0.37673 0.65327 0.0
H2640 H 0.84401 0.35544 0.59396 0.0
H2641 H 0.87286 0.34843 0.59032 0.0
H2642 H 0.89719 0.38747 0.64109 0.0
H2643 H 0.86848 0.39465 0.64503 0.0
C2644 C 0.78296 0.36539 0.56399 0.0
C2645 C 0.78469 0.38177 0.5561 0.0
C2646 C 0.78949 0.36723 0.58253 0.0
C2647 C 0.79801 0.38541 0.59316 0.0
C2648 C 0.79795 0.40183 0.5859 0.0
C2649 C 0.79093 0.40002 0.56748 0.0
C2650 C 0.80972 0.38661 0.61022 0.0
C2651 C 0.82697 0.38486 0.60848 0.0
C2652 C 0.80275 0.38489 0.62687 0.0
C2653 C 0.78455 0.38667 0.62891 0.0
C2654 C 0.78007 0.40354 0.62642 0.0
C2655 C 0.7627 0.40494 0.62758 0.0
C2656 C 0.74971 0.38956 0.63128 0.0
C2657 C 0.75409 0.37279 0.63391 0.0
C2658 C 0.77145 0.37132 0.63277 0.0
C2659 C 0.84189 0.35684 0.6802 0.0
C2660 C 0.83587 0.337 0.67312 0.0
C2661 C 0.84069 0.36988 0.6687 0.0
C2662 C 0.83499 0.36338 0.64983 0.0
C2663 C 0.83173 0.34393 0.64227 0.0
C2664 C 0.83198 0.33077 0.65382 0.0
C2665 C 0.82898 0.37575 0.63839 0.0
C2666 C 0.81259 0.37958 0.64096 0.0
C2667 C 0.83671 0.37935 0.62248 0.0
C2668 C 0.85415 0.37569 0.61971 0.0
C2669 C 0.85557 0.36269 0.60423 0.0
C2670 C 0.87187 0.3586 0.60217 0.0
C2671 C 0.88686 0.36753 0.61544 0.0
C2672 C 0.88558 0.38056 0.63081 0.0
C2673 C 0.86929 0.3846 0.63299 0.0
H2674 H 0.89946 0.36433 0.61383 0.0
H2675 H 0.73625 0.39065 0.63211 0.0
H2676 H 0.43081 0.00629 0.33129 0.0
H2677 H 0.44212 0.00776 0.36359 0.0
H2678 H 0.47189 0.06667 0.36757 0.0
H2679 H 0.46026 0.06542 0.33527 0.0
H2680 H 0.48972 0.03194 0.36846 0.0
H2681 H 0.4479 0.06473 0.39487 0.0
H2682 H 0.41732 0.06666 0.39835 0.0
H2683 H 0.40591 0.01316 0.41735 0.0
H2684 H 0.43635 0.01079 0.41374 0.0
H2685 H 0.54438 0.05517 0.45359 0.0
H2686 H 0.52361 0.05587 0.42688 0.0
H2687 H 0.48497 0.00715 0.4384 0.0
H2688 H 0.50566 0.00633 0.46499 0.0
H2689 H 0.4694 0.03461 0.43002 0.0
H2690 H 0.5063 0.99905 0.40528 0.0
H2691 H 0.53408 0.9904 0.40001 0.0
H2692 H 0.5513 0.03951 0.37488 0.0
H2693 H 0.52373 0.0487 0.38034 0.0
C2694 C 0.43918 0.01978 0.33933 0.0
C2695 C 0.44496 0.0357 0.33096 0.0
C2696 C 0.44551 0.02061 0.35771 0.0
C2697 C 0.45778 0.03729 0.36771 0.0
C2698 C 0.46226 0.05377 0.35992 0.0
C2699 C 0.45565 0.05305 0.34158 0.0
C2700 C 0.46884 0.03608 0.3843 0.0
C2701 C 0.48552 0.03296 0.38205 0.0
C2702 C 0.46255 0.03593 0.40147 0.0
C2703 C 0.44436 0.03752 0.4039 0.0
C2704 C 0.43882 0.05331 0.39965 0.0
C2705 C 0.42153 0.0545 0.40168 0.0
C2706 C 0.40967 0.04003 0.40804 0.0
C2707 C 0.4151 0.02436 0.41243 0.0
C2708 C 0.43239 0.0231 0.41042 0.0
C2709 C 0.53148 0.04461 0.45033 0.0
C2710 C 0.52651 0.03075 0.46122 0.0
C2711 C 0.51966 0.04505 0.4352 0.0
C2712 C 0.50284 0.03155 0.43082 0.0
C2713 C 0.49786 0.01774 0.44174 0.0
C2714 C 0.50969 0.01725 0.4568 0.0
C2715 C 0.49076 0.03158 0.41441 0.0
C2716 C 0.47376 0.03394 0.41653 0.0
C2717 C 0.49638 0.03014 0.39683 0.0
C2718 C 0.51303 0.02472 0.39344 0.0
C2719 C 0.51609 0.00814 0.39881 0.0
C2720 C 0.53179 0.00311 0.39576 0.0
C2721 C 0.54448 0.01444 0.38717 0.0
C2722 C 0.54146 0.03078 0.38157 0.0
C2723 C 0.5258 0.03591 0.38464 0.0
H2724 H 0.55662 0.01051 0.3848 0.0
H2725 H 0.39628 0.04097 0.40959 0.0
H2726 H 0.771 0.7428 0.04504 0.0
H2727 H 0.77397 0.75308 0.07823 0.0
H2728 H 0.80648 0.71484 0.08651 0.0
H2729 H 0.80303 0.7039 0.05296 0.0
H2730 H 0.7827 0.71057 0.10844 0.0
H2731 H 0.82376 0.76517 0.09658 0.0
H2732 H 0.8359 0.79248 0.08169 0.0
H2733 H 0.79472 0.81796 0.09793 0.0
H2734 H 0.78216 0.79066 0.11271 0.0
H2735 H 0.80761 0.7512 0.20453 0.0
H2736 H 0.80792 0.74233 0.17147 0.0
H2737 H 0.76402 0.76629 0.16005 0.0
H2738 H 0.76344 0.77511 0.19345 0.0
H2739 H 0.79518 0.77807 0.14051 0.0
H2740 H 0.75483 0.72073 0.15254 0.0
H2741 H 0.74641 0.69412 0.16937 0.0
H2742 H 0.79133 0.67465 0.15439 0.0
H2743 H 0.80019 0.70132 0.1377 0.0
C2744 C 0.77904 0.73672 0.05382 0.0
C2745 C 0.78672 0.72242 0.04623 0.0
C2746 C 0.78082 0.74275 0.07292 0.0
C2747 C 0.79057 0.73491 0.08503 0.0
C2748 C 0.79886 0.72113 0.0775 0.0
C2749 C 0.79699 0.71497 0.05829 0.0
C2750 C 0.79085 0.74012 0.10542 0.0
C2751 C 0.78573 0.72536 0.11544 0.0
C2752 C 0.79458 0.75941 0.1147 0.0
C2753 C 0.80191 0.77575 0.1056 0.0
C2754 C 0.81717 0.7765 0.09682 0.0
C2755 C 0.82416 0.792 0.08844 0.0
C2756 C 0.81606 0.80692 0.08882 0.0
C2757 C 0.80097 0.80638 0.09762 0.0
C2758 C 0.79392 0.7909 0.10602 0.0
C2759 C 0.79791 0.75453 0.19504 0.0
C2760 C 0.78548 0.7639 0.20165 0.0
C2761 C 0.79811 0.74939 0.17612 0.0
C2762 C 0.786 0.75363 0.1633 0.0
C2763 C 0.77348 0.7629 0.16975 0.0
C2764 C 0.77308 0.76781 0.1888 0.0
C2765 C 0.78675 0.74854 0.14321 0.0
C2766 C 0.79214 0.76332 0.13336 0.0
C2767 C 0.78373 0.72933 0.1342 0.0
C2768 C 0.77825 0.71312 0.144 0.0
C2769 C 0.76299 0.71085 0.15294 0.0
C2770 C 0.75812 0.69574 0.16244 0.0
C2771 C 0.76835 0.68272 0.16298 0.0
C2772 C 0.78343 0.68475 0.15397 0.0
C2773 C 0.78837 0.69985 0.14448 0.0
H2774 H 0.76457 0.67104 0.17035 0.0
H2775 H 0.8215 0.81892 0.08234 0.0
H2776 H 0.09494 0.9957 0.71416 0.0
H2777 H 0.08293 0.99677 0.68256 0.0
H2778 H 0.13644 0.01573 0.67002 0.0
H2779 H 0.14851 0.01398 0.70159 0.0
H2780 H 0.11387 0.03888 0.65887 0.0
H2781 H 0.11054 0.97163 0.65013 0.0
H2782 H 0.10145 0.93862 0.65587 0.0
H2783 H 0.04623 0.93775 0.64548 0.0
H2784 H 0.05499 0.97085 0.63994 0.0
H2785 H 0.08693 0.04324 0.56464 0.0
H2786 H 0.10058 0.03831 0.59391 0.0
H2787 H 0.05175 0.99658 0.59786 0.0
H2788 H 0.03894 1.00012 0.56742 0.0
H2789 H 0.07276 0.9847 0.61396 0.0
H2790 H 0.0734 0.05087 0.62625 0.0
H2791 H 0.07994 0.0843 0.62153 0.0
H2792 H 0.13608 0.0886 0.62755 0.0
H2793 H 0.12986 0.05515 0.63218 0.0
C2794 C 0.10425 0.99949 0.70455 0.0
C2795 C 0.12286 0.00416 0.71068 0.0
C2796 C 0.09728 1.00026 0.68631 0.0
C2797 C 0.10855 0.00636 0.67335 0.0
C2798 C 0.12718 0.0109 0.67936 0.0
C2799 C 0.13417 0.00963 0.69753 0.0
C2800 C 0.10091 0.00873 0.65409 0.0
C2801 C 0.10507 0.0269 0.649 0.0
C2802 C 0.08869 0.99355 0.64104 0.0
C2803 C 0.08344 0.97382 0.64483 0.0
C2804 C 0.09647 0.96449 0.64929 0.0
C2805 C 0.09137 0.94573 0.65246 0.0
C2806 C 0.07327 0.93611 0.6511 0.0
C2807 C 0.06024 0.94523 0.64657 0.0
C2808 C 0.06527 0.96398 0.64341 0.0
C2809 C 0.07904 0.03301 0.57174 0.0
C2810 C 0.06163 0.02227 0.56343 0.0
C2811 C 0.08685 0.03033 0.58894 0.0
C2812 C 0.07733 0.01751 0.59934 0.0
C2813 C 0.05985 0.00669 0.59082 0.0
C2814 C 0.05232 0.0088 0.57321 0.0
C2815 C 0.0855 0.01504 0.61855 0.0
C2816 C 0.08146 0.99682 0.62372 0.0
C2817 C 0.09735 0.03034 0.63198 0.0
C2818 C 0.10115 0.05047 0.62938 0.0
C2819 C 0.08713 0.05894 0.6265 0.0
C2820 C 0.09078 0.07788 0.62385 0.0
C2821 C 0.10841 0.08855 0.62419 0.0
C2822 C 0.12244 0.08032 0.62727 0.0
C2823 C 0.11886 0.06138 0.62994 0.0
H2824 H 0.11121 0.10321 0.62211 0.0
H2825 H 0.06936 0.92158 0.6535 0.0
H2826 H 0.79437 0.33687 0.45745 0.0
H2827 H 0.79946 0.32809 0.42566 0.0
H2828 H 0.79461 0.38276 0.41483 0.0
H2829 H 0.78857 0.39115 0.44642 0.0
H2830 H 0.77984 0.3573 0.38657 0.0
H2831 H 0.8364 0.37442 0.42151 0.0
H2832 H 0.86025 0.3766 0.44675 0.0
H2833 H 0.85463 0.31638 0.43127 0.0
H2834 H 0.83057 0.31375 0.40609 0.0
H2835 H 0.80325 0.32439 0.3014 0.0
H2836 H 0.81046 0.3445 0.33184 0.0
H2837 H 0.79947 0.29419 0.35667 0.0
H2838 H 0.79286 0.27367 0.32588 0.0
H2839 H 0.82875 0.32663 0.37656 0.0
H2840 H 0.76592 0.31237 0.3456 0.0
H2841 H 0.74442 0.31352 0.31937 0.0
H2842 H 0.7665 0.37441 0.3268 0.0
H2843 H 0.78823 0.37357 0.35299 0.0
C2844 C 0.79394 0.34675 0.4481 0.0
C2845 C 0.791 0.36457 0.45419 0.0
C2846 C 0.79718 0.34193 0.43011 0.0
C2847 C 0.79809 0.35511 0.41818 0.0
C2848 C 0.79418 0.37252 0.42394 0.0
C2849 C 0.79053 0.37718 0.44185 0.0
C2850 C 0.80262 0.35024 0.39954 0.0
C2851 C 0.79082 0.35105 0.3844 0.0
C2852 C 0.8172 0.3425 0.39668 0.0
C2853 C 0.83158 0.34388 0.41193 0.0
C2854 C 0.84014 0.3616 0.42357 0.0
C2855 C 0.85373 0.36292 0.43785 0.0
C2856 C 0.85894 0.34663 0.44062 0.0
C2857 C 0.85058 0.32899 0.4291 0.0
C2858 C 0.83699 0.32758 0.41479 0.0
C2859 C 0.80293 0.31752 0.3133 0.0
C2860 C 0.79746 0.29746 0.31138 0.0
C2861 C 0.80705 0.32908 0.33066 0.0
C2862 C 0.80529 0.32074 0.3463 0.0
C2863 C 0.80091 0.30074 0.34458 0.0
C2864 C 0.797 0.28908 0.3271 0.0
C2865 C 0.80531 0.33264 0.36409 0.0
C2866 C 0.81811 0.33334 0.37891 0.0
C2867 C 0.79204 0.34238 0.36661 0.0
C2868 C 0.77873 0.34288 0.35114 0.0
C2869 C 0.7662 0.32598 0.34159 0.0
C2870 C 0.75399 0.32658 0.32675 0.0
C2871 C 0.75409 0.34402 0.32143 0.0
C2872 C 0.76642 0.36091 0.33095 0.0
C2873 C 0.77867 0.36039 0.34581 0.0
H2874 H 0.74461 0.34445 0.30995 0.0
H2875 H 0.86946 0.34768 0.45169 0.0
H2876 H 0.44762 0.04672 0.2233 0.0
H2877 H 0.45017 0.03329 0.19177 0.0
H2878 H 0.49269 0.01099 0.21214 0.0
H2879 H 0.49016 0.02412 0.24386 0.0
H2880 H 0.49913 0.03135 0.18362 0.0
H2881 H 0.45381 0.98099 0.19841 0.0
H2882 H 0.4255 0.96606 0.20889 0.0
H2883 H 0.396 0.98071 0.16401 0.0
H2884 H 0.42413 0.99616 0.15348 0.0
H2885 H 0.51178 0.99376 0.10142 0.0
H2886 H 0.49606 0.98271 0.12615 0.0
H2887 H 0.46007 0.01722 0.11743 0.0
H2888 H 0.47534 0.02793 0.09224 0.0
H2889 H 0.44924 0.98408 0.14048 0.0
H2890 H 0.49291 0.04815 0.14113 0.0
H2891 H 0.51954 0.06717 0.13046 0.0
H2892 H 0.54922 0.02864 0.14533 0.0
H2893 H 0.52277 0.00958 0.15633 0.0
C2894 C 0.4578 0.03932 0.22113 0.0
C2895 C 0.46857 0.03628 0.23612 0.0
C2896 C 0.45893 0.03132 0.20313 0.0
C2897 C 0.47105 0.02051 0.19988 0.0
C2898 C 0.4829 0.01886 0.2146 0.0
C2899 C 0.48166 0.02668 0.23263 0.0
C2900 C 0.47257 0.01255 0.18089 0.0
C2901 C 0.4884 0.02058 0.17439 0.0
C2902 C 0.45819 0.99903 0.16878 0.0
C2903 C 0.44118 0.98994 0.17524 0.0
C2904 C 0.44132 0.98127 0.19089 0.0
C2905 C 0.42528 0.97266 0.19682 0.0
C2906 C 0.40897 0.97246 0.18714 0.0
C2907 C 0.40865 0.98089 0.17151 0.0
C2908 C 0.42466 0.98958 0.16555 0.0
C2909 C 0.49994 0.99821 0.10406 0.0
C2910 C 0.4953 0.01244 0.09561 0.0
C2911 C 0.49079 0.99163 0.11803 0.0
C2912 C 0.47728 0.99958 0.12382 0.0
C2913 C 0.47058 0.01107 0.11319 0.0
C2914 C 0.47964 0.01757 0.09915 0.0
C2915 C 0.47587 0.00277 0.14359 0.0
C2916 C 0.46009 0.99423 0.15007 0.0
C2917 C 0.49004 0.01618 0.15587 0.0
C2918 C 0.50595 0.02744 0.14936 0.0
C2919 C 0.50515 0.04379 0.1421 0.0
C2920 C 0.52019 0.05457 0.13604 0.0
C2921 C 0.53603 0.04905 0.13711 0.0
C2922 C 0.53692 0.03285 0.14444 0.0
C2923 C 0.52195 0.0221 0.15066 0.0
H2924 H 0.54763 0.05736 0.13231 0.0
H2925 H 0.39657 0.96574 0.19173 0.0
H2926 H 0.78095 0.74111 0.9509 0.0
H2927 H 0.78346 0.74954 0.92063 0.0
H2928 H 0.79672 0.69707 0.90153 0.0
H2929 H 0.79424 0.68841 0.93227 0.0
H2930 H 0.81636 0.72978 0.88735 0.0
H2931 H 0.75559 0.69753 0.89063 0.0
H2932 H 0.7278 0.69099 0.90457 0.0
H2933 H 0.72413 0.74797 0.9027 0.0
H2934 H 0.75207 0.75497 0.88902 0.0
H2935 H 0.78938 0.74052 0.79215 0.0
H2936 H 0.79039 0.72582 0.81991 0.0
H2937 H 0.78487 0.77717 0.85298 0.0
H2938 H 0.78453 0.79203 0.82565 0.0
H2939 H 0.76081 0.74019 0.85767 0.0
H2940 H 0.82245 0.7737 0.85814 0.0
H2941 H 0.85081 0.78177 0.84538 0.0
H2942 H 0.85296 0.72345 0.84052 0.0
H2943 H 0.82444 0.71498 0.85304 0.0
C2944 C 0.78465 0.73138 0.94041 0.0
C2945 C 0.78718 0.71392 0.94405 0.0
C2946 C 0.78605 0.73626 0.92302 0.0
C2947 C 0.78991 0.7238 0.9086 0.0
C2948 C 0.79361 0.70688 0.91239 0.0
C2949 C 0.79224 0.70196 0.92999 0.0
C2950 C 0.78877 0.7282 0.88949 0.0
C2951 C 0.8041 0.7316 0.88066 0.0
C2952 C 0.77289 0.731 0.88081 0.0
C2953 C 0.756 0.72681 0.88891 0.0
C2954 C 0.74893 0.70871 0.89331 0.0
C2955 C 0.73314 0.70492 0.90115 0.0
C2956 C 0.72422 0.71906 0.90455 0.0
C2957 C 0.73106 0.73703 0.90007 0.0
C2958 C 0.74686 0.74091 0.89225 0.0
C2959 C 0.78823 0.74854 0.80533 0.0
C2960 C 0.78678 0.76739 0.80673 0.0
C2961 C 0.78894 0.74021 0.82119 0.0
C2962 C 0.78778 0.75042 0.83857 0.0
C2963 C 0.78582 0.76901 0.83978 0.0
C2964 C 0.78559 0.77747 0.82412 0.0
C2965 C 0.7884 0.74195 0.85562 0.0
C2966 C 0.77296 0.73791 0.86413 0.0
C2967 C 0.80416 0.73866 0.86397 0.0
C2968 C 0.82116 0.74363 0.85622 0.0
C2969 C 0.82884 0.76254 0.85411 0.0
C2970 C 0.84498 0.7672 0.84699 0.0
C2971 C 0.85364 0.75311 0.84207 0.0
C2972 C 0.8462 0.73433 0.8443 0.0
C2973 C 0.83005 0.72959 0.8514 0.0
H2974 H 0.86615 0.75676 0.83658 0.0
H2975 H 0.712 0.71609 0.91062 0.0
H2976 H 0.80893 0.08672 0.99761 0.0
H2977 H 0.83467 0.07432 0.99264 0.0
H2978 H 0.87022 0.1309 0.01242 0.0
H2979 H 0.84452 0.14339 0.01795 0.0
H2980 H 0.87318 0.10609 0.97454 0.0
H2981 H 0.8739 0.1087 0.04019 0.0
H2982 H 0.85991 0.103 0.06797 0.0
H2983 H 0.84343 0.0425 0.04656 0.0
H2984 H 0.85708 0.04788 0.01848 0.0
H2985 H 0.95336 0.07364 0.98403 0.0
H2986 H 0.93025 0.0907 0.98639 0.0
H2987 H 0.89046 0.03713 0.98351 0.0
H2988 H 0.91343 0.02008 0.98147 0.0
H2989 H 0.89131 0.06359 0.01397 0.0
H2990 H 0.89169 0.06007 0.94922 0.0
H2991 H 0.90257 0.06482 0.91974 0.0
H2992 H 0.9141 0.12571 0.93687 0.0
H2993 H 0.90427 0.12144 0.9669 0.0
C2994 C 0.82223 0.09648 0.00098 0.0
C2995 C 0.82482 0.11595 0.00821 0.0
C2996 C 0.83685 0.08941 -0.00188 0.0
C2997 C 0.85417 0.10178 0.00215 0.0
C2998 C 0.85685 0.12125 0.00925 0.0
C2999 C 0.84224 0.12828 0.0125 0.0
C3000 C 0.86941 0.09408 -0.00101 0.0
C3001 C 0.87756 0.09713 0.9833 0.0
C3002 C 0.87445 0.08202 0.01025 0.0
C3003 C 0.86634 0.07872 0.02716 0.0
C3004 C 0.86713 0.0942 0.04132 0.0
C3005 C 0.8593 0.09103 0.05714 0.0
C3006 C 0.85074 0.07241 0.05901 0.0
C3007 C 0.85004 0.05692 0.04508 0.0
C3008 C 0.85784 0.06002 0.02922 0.0
C3009 C 0.93964 0.06553 0.98375 0.0
C3010 C 0.93517 0.04558 0.98277 0.0
C3011 C 0.92648 0.07525 0.98492 0.0
C3012 C 0.90872 0.06513 0.98515 0.0
C3013 C 0.90413 0.04514 0.98335 0.0
C3014 C 0.91723 0.03543 0.9821 0.0
C3015 C 0.89523 0.07539 0.98929 0.0
C3016 C 0.88731 0.0728 0.00525 0.0
C3017 C 0.89041 0.08779 0.97814 0.0
C3018 C 0.89755 0.09042 0.96056 0.0
C3019 C 0.89702 0.07451 0.94697 0.0
C3020 C 0.90299 0.07712 0.93011 0.0
C3021 C 0.90922 0.09557 0.92652 0.0
C3022 C 0.90952 0.11145 0.93978 0.0
C3023 C 0.90385 0.10894 0.95677 0.0
H3024 H 0.91368 0.09757 0.9134 0.0
H3025 H 0.84469 0.06998 0.07127 0.0
H3026 H 0.36927 0.39278 0.02384 0.0
H3027 H 0.39677 0.41563 0.02115 0.0
H3028 H 0.37052 0.46075 0.02557 0.0
H3029 H 0.34221 0.43746 0.02797 0.0
H3030 H 0.39365 0.46189 0.99789 0.0
H3031 H 0.39754 0.45733 0.06252 0.0
H3032 H 0.39551 0.43973 0.08834 0.0
H3033 H 0.43576 0.41374 0.07019 0.0
H3034 H 0.43787 0.43099 0.04413 0.0
H3035 H 0.47627 0.53354 0.01047 0.0
H3036 H 0.44679 0.51361 0.01285 0.0
H3037 H 0.4695 0.46721 0.02076 0.0
H3038 H 0.49934 0.48768 0.01941 0.0
H3039 H 0.44708 0.46825 0.04296 0.0
H3040 H 0.44319 0.46947 0.97847 0.0
H3041 H 0.44548 0.48414 0.95073 0.0
H3042 H 0.40596 0.51275 0.96562 0.0
H3043 H 0.4036 0.49846 0.99361 0.0
C3044 C 0.36913 0.40754 0.02433 0.0
C3045 C 0.35339 0.41323 0.02637 0.0
C3046 C 0.38502 0.42065 0.02279 0.0
C3047 C 0.38589 0.44 0.02348 0.0
C3048 C 0.3702 0.44587 0.02512 0.0
C3049 C 0.35406 0.43259 0.02659 0.0
C3050 C 0.40341 0.45378 0.02274 0.0
C3051 C 0.40528 0.46363 0.00794 0.0
C3052 C 0.41878 0.45544 0.03541 0.0
C3053 C 0.4178 0.4454 0.05133 0.0
C3054 C 0.40591 0.44781 0.064 0.0
C3055 C 0.40475 0.43789 0.07868 0.0
C3056 C 0.41549 0.42561 0.08089 0.0
C3057 C 0.42746 0.42326 0.06847 0.0
C3058 C 0.42866 0.43313 0.05376 0.0
C3059 C 0.47501 0.51907 0.0127 0.0
C3060 C 0.49016 0.51216 0.01472 0.0
C3061 C 0.45805 0.50758 0.01389 0.0
C3062 C 0.45567 0.48865 0.0166 0.0
C3063 C 0.47085 0.48172 0.01861 0.0
C3064 C 0.48793 0.49339 0.01778 0.0
C3065 C 0.43751 0.47639 0.018 0.0
C3066 C 0.4355 0.46674 0.03293 0.0
C3067 C 0.42213 0.4746 0.00519 0.0
C3068 C 0.42336 0.48305 0.98825 0.0
C3069 C 0.43507 0.47899 0.9759 0.0
C3070 C 0.43637 0.48723 0.96012 0.0
C3071 C 0.42591 0.49942 0.95645 0.0
C3072 C 0.41407 0.50333 0.96851 0.0
C3073 C 0.41274 0.49515 0.98432 0.0
H3074 H 0.42696 0.50581 0.94424 0.0
H3075 H 0.41455 0.41793 0.09225 0.0
H3076 H 0.36665 0.59756 0.77313 0.0
H3077 H 0.35489 0.62514 0.7731 0.0
H3078 H 0.39768 0.6514 0.74528 0.0
H3079 H 0.40976 0.62326 0.74526 0.0
H3080 H 0.39038 0.68045 0.77105 0.0
H3081 H 0.353 0.63162 0.72265 0.0
H3082 H 0.33383 0.59933 0.70858 0.0
H3083 H 0.2975 0.60436 0.74778 0.0
H3084 H 0.31658 0.63661 0.76225 0.0
H3085 H 0.34681 0.75489 0.75687 0.0
H3086 H 0.36164 0.72917 0.75429 0.0
H3087 H 0.31537 0.69121 0.76861 0.0
H3088 H 0.30011 0.71654 0.76975 0.0
H3089 H 0.32608 0.66865 0.74828 0.0
H3090 H 0.36483 0.71549 0.79904 0.0
H3091 H 0.3819 0.74897 0.81196 0.0
H3092 H 0.41424 0.74843 0.76835 0.0
H3093 H 0.39747 0.71486 0.75526 0.0
C3094 C 0.37378 0.609 0.76683 0.0
C3095 C 0.3894 0.60733 0.75906 0.0
C3096 C 0.36681 0.62514 0.76679 0.0
C3097 C 0.3749 0.64108 0.75905 0.0
C3098 C 0.39073 0.63975 0.75144 0.0
C3099 C 0.39771 0.6233 0.7513 0.0
C3100 C 0.36641 0.65833 0.75874 0.0
C3101 C 0.37635 0.67766 0.76581 0.0
C3102 C 0.3479 0.65572 0.75239 0.0
C3103 C 0.33629 0.63646 0.74362 0.0
C3104 C 0.34097 0.6258 0.72833 0.0
C3105 C 0.33012 0.60751 0.72028 0.0
C3106 C 0.31447 0.59978 0.72731 0.0
C3107 C 0.30962 0.61036 0.74237 0.0
C3108 C 0.32044 0.62865 0.75048 0.0
C3109 C 0.3397 0.74113 0.75959 0.0
C3110 C 0.32197 0.73842 0.76368 0.0
C3111 C 0.34846 0.7261 0.75835 0.0
C3112 C 0.34035 0.70749 0.76179 0.0
C3113 C 0.32257 0.70489 0.76584 0.0
C3114 C 0.31368 0.71976 0.76663 0.0
C3115 C 0.34986 0.69083 0.76092 0.0
C3116 C 0.34009 0.67153 0.75363 0.0
C3117 C 0.36845 0.69349 0.7672 0.0
C3118 C 0.37985 0.71275 0.77614 0.0
C3119 C 0.37571 0.72247 0.79233 0.0
C3120 C 0.38525 0.74147 0.79961 0.0
C3121 C 0.39898 0.75087 0.79083 0.0
C3122 C 0.40348 0.74116 0.775 0.0
C3123 C 0.39408 0.72209 0.76775 0.0
H3124 H 0.40631 0.76556 0.79647 0.0
H3125 H 0.3061 0.58561 0.72106 0.0
H3126 H 0.22882 0.60262 0.53737 0.0
H3127 H 0.19891 0.58113 0.52626 0.0
H3128 H 0.20735 0.58453 0.47005 0.0
H3129 H 0.2376 0.60533 0.48114 0.0
H3130 H 0.18176 0.60432 0.48886 0.0
H3131 H 0.19425 0.54427 0.47246 0.0
H3132 H 0.2082 0.51852 0.47711 0.0
H3133 H 0.18026 0.50885 0.52338 0.0
H3134 H 0.16634 0.53475 0.51917 0.0
H3135 H 0.0859 0.55688 0.46378 0.0
H3136 H 0.11804 0.56343 0.46203 0.0
H3137 H 0.12868 0.56661 0.52086 0.0
H3138 H 0.09676 0.56074 0.52287 0.0
H3139 H 0.14433 0.54005 0.49319 0.0
H3140 H 0.14018 0.60421 0.51604 0.0
H3141 H 0.12772 0.63178 0.51552 0.0
H3142 H 0.14127 0.63516 0.46109 0.0
H3143 H 0.15358 0.60737 0.46121 0.0
C3144 C 0.22469 0.59766 0.52264 0.0
C3145 C 0.23533 0.60532 0.51003 0.0
C3146 C 0.20764 0.5855 0.5163 0.0
C3147 C 0.20105 0.58142 0.49738 0.0
C3148 C 0.21238 0.58742 0.48467 0.0
C3149 C 0.22963 0.59917 0.49099 0.0
C3150 C 0.18163 0.57556 0.49186 0.0
C3151 C 0.17351 0.59008 0.48915 0.0
C3152 C 0.17112 0.55723 0.493 0.0
C3153 C 0.17932 0.54153 0.49555 0.0
C3154 C 0.19118 0.53676 0.48371 0.0
C3155 C 0.19906 0.52211 0.48625 0.0
C3156 C 0.19514 0.51207 0.50055 0.0
C3157 C 0.18329 0.51664 0.5123 0.0
C3158 C 0.17537 0.53128 0.50983 0.0
C3159 C 0.09516 0.55919 0.47634 0.0
C3160 C 0.089 0.55845 0.49349 0.0
C3161 C 0.11339 0.56285 0.4753 0.0
C3162 C 0.12548 0.56531 0.49131 0.0
C3163 C 0.11937 0.56461 0.50841 0.0
C3164 C 0.10124 0.56145 0.50954 0.0
C3165 C 0.14463 0.56886 0.49041 0.0
C3166 C 0.15259 0.55403 0.49214 0.0
C3167 C 0.15511 0.58704 0.48879 0.0
C3168 C 0.14746 0.6035 0.48848 0.0
C3169 C 0.14024 0.61065 0.50385 0.0
C3170 C 0.13328 0.62636 0.50366 0.0
C3171 C 0.13361 0.63515 0.48824 0.0
C3172 C 0.14095 0.62827 0.47299 0.0
C3173 C 0.14792 0.61254 0.47311 0.0
H3174 H 0.12825 0.64734 0.48813 0.0
H3175 H 0.20126 0.50074 0.5025 0.0
H3176 H 0.72047 0.01608 0.76638 0.0
H3177 H 0.73548 0.99292 0.77547 0.0
H3178 H 0.68936 0.94662 0.74968 0.0
H3179 H 0.67415 0.96965 0.74058 0.0
H3180 H 0.70038 0.94492 0.78556 0.0
H3181 H 0.72518 0.95217 0.73011 0.0
H3182 H 0.74022 0.96955 0.70762 0.0
H3183 H 0.7874 0.99355 0.74764 0.0
H3184 H 0.77253 0.97652 0.77051 0.0
H3185 H 0.7373 0.86605 0.77775 0.0
H3186 H 0.72193 0.89104 0.77869 0.0
H3187 H 0.77132 0.93356 0.8028 0.0
H3188 H 0.78692 0.90858 0.80115 0.0
H3189 H 0.75918 0.9389 0.77001 0.0
H3190 H 0.73276 0.92683 0.82465 0.0
H3191 H 0.71559 0.90815 0.84507 0.0
H3192 H 0.66942 0.89015 0.8034 0.0
H3193 H 0.68634 0.9085 0.78264 0.0
C3194 C 0.7136 0.00096 0.76245 0.0
C3195 C 0.69609 0.99463 0.75295 0.0
C3196 C 0.7222 0.98779 0.76761 0.0
C3197 C 0.71342 0.96819 0.76327 0.0
C3198 C 0.69622 0.96177 0.7532 0.0
C3199 C 0.68762 0.97492 0.74796 0.0
C3200 C 0.72185 0.95446 0.77017 0.0
C3201 C 0.71317 0.94338 0.78208 0.0
C3202 C 0.73864 0.95295 0.7658 0.0
C3203 C 0.74766 0.96324 0.75211 0.0
C3204 C 0.7387 0.9613 0.73419 0.0
C3205 C 0.74721 0.97106 0.72136 0.0
C3206 C 0.76474 0.98269 0.72622 0.0
C3207 C 0.77381 0.98455 0.74391 0.0
C3208 C 0.76535 0.97484 0.75681 0.0
C3209 C 0.74472 0.88067 0.78383 0.0
C3210 C 0.76332 0.88557 0.78895 0.0
C3211 C 0.7359 0.89491 0.78455 0.0
C3212 C 0.74555 0.91415 0.79068 0.0
C3213 C 0.7637 0.91875 0.79797 0.0
C3214 C 0.77258 0.9045 0.79711 0.0
C3215 C 0.73779 0.92925 0.78564 0.0
C3216 C 0.74655 0.94058 0.77386 0.0
C3217 C 0.72085 0.93062 0.78979 0.0
C3218 C 0.71087 0.91902 0.80206 0.0
C3219 C 0.71901 0.91872 0.81976 0.0
C3220 C 0.70929 0.90823 0.83141 0.0
C3221 C 0.69141 0.89802 0.82554 0.0
C3222 C 0.68325 0.89812 0.80794 0.0
C3223 C 0.69289 0.90858 0.79624 0.0
H3224 H 0.68381 0.89012 0.83464 0.0
H3225 H 0.77131 0.99023 0.71626 0.0
H3226 H 0.76454 0.93136 0.49307 0.0
H3227 H 0.73822 0.9436 0.49105 0.0
H3228 H 0.71679 0.91066 0.53098 0.0
H3229 H 0.74336 0.89859 0.53339 0.0
H3230 H 0.69125 0.90926 0.4969 0.0
H3231 H 0.73283 0.954 0.54685 0.0
H3232 H 0.76222 0.97596 0.56078 0.0
H3233 H 0.75943 0.00984 0.51888 0.0
H3234 H 0.73012 0.9879 0.50456 0.0
H3235 H 0.62384 0.95681 0.51898 0.0
H3236 H 0.64743 0.94037 0.51819 0.0
H3237 H 0.67811 0.98332 0.49167 0.0
H3238 H 0.65491 1.00007 0.49289 0.0
H3239 H 0.69873 0.97848 0.51886 0.0
H3240 H 0.65849 0.93653 0.46875 0.0
H3241 H 0.6308 0.91426 0.45096 0.0
H3242 H 0.63158 0.87531 0.48838 0.0
H3243 H 0.65919 0.89746 0.50658 0.0
C3244 C 0.75428 0.92673 0.5015 0.0
C3245 C 0.7562 0.91408 0.51352 0.0
C3246 C 0.73919 0.93371 0.50027 0.0
C3247 C 0.72546 0.92803 0.51081 0.0
C3248 C 0.72716 0.91519 0.52264 0.0
C3249 C 0.74244 0.90843 0.52413 0.0
C3250 C 0.70977 0.93619 0.50995 0.0
C3251 C 0.69275 0.92432 0.50199 0.0
C3252 C 0.71185 0.95597 0.51589 0.0
C3253 C 0.72938 0.96923 0.52455 0.0
C3254 C 0.73856 0.96605 0.54053 0.0
C3255 C 0.75518 0.97851 0.54851 0.0
C3256 C 0.76271 0.99426 0.54069 0.0
C3257 C 0.7536 0.99762 0.52491 0.0
C3258 C 0.73697 0.98519 0.51687 0.0
C3259 C 0.63559 0.96276 0.51294 0.0
C3260 C 0.6374 0.97992 0.5061 0.0
C3261 C 0.64903 0.95319 0.51231 0.0
C3262 C 0.66467 0.9605 0.50483 0.0
C3263 C 0.66626 0.97732 0.49755 0.0
C3264 C 0.65284 0.98685 0.49813 0.0
C3265 C 0.67994 0.9516 0.50583 0.0
C3266 C 0.697 0.96336 0.51382 0.0
C3267 C 0.67788 0.93178 0.49955 0.0
C3268 C 0.66082 0.9188 0.48918 0.0
C3269 C 0.65264 0.92335 0.47336 0.0
C3270 C 0.63699 0.9107 0.46314 0.0
C3271 C 0.62945 0.89338 0.46852 0.0
C3272 C 0.63747 0.88872 0.48421 0.0
C3273 C 0.65311 0.90132 0.49449 0.0
H3274 H 0.6174 0.88356 0.46052 0.0
H3275 H 0.77558 0.00389 0.54689 0.0
H3276 H 0.41343 0.48723 0.76899 0.0
H3277 H 0.39537 0.45553 0.77062 0.0
H3278 H 0.35156 0.46398 0.73607 0.0
H3279 H 0.36975 0.49662 0.73498 0.0
H3280 H 0.33769 0.44367 0.75978 0.0
H3281 H 0.3824 0.43404 0.7214 0.0
H3282 H 0.4131 0.43797 0.71409 0.0
H3283 H 0.42638 0.41364 0.76082 0.0
H3284 H 0.39582 0.40976 0.76853 0.0
H3285 H 0.28758 0.34625 0.73976 0.0
H3286 H 0.30599 0.37799 0.73851 0.0
H3287 H 0.34995 0.36793 0.7715 0.0
H3288 H 0.33137 0.33538 0.77221 0.0
H3289 H 0.36413 0.38903 0.74902 0.0
H3290 H 0.32142 0.39862 0.78827 0.0
H3291 H 0.29164 0.39526 0.79794 0.0
H3292 H 0.27569 0.42031 0.75274 0.0
H3293 H 0.30531 0.4236 0.74265 0.0
C3294 C 0.39991 0.48257 0.7617 0.0
C3295 C 0.39336 0.49494 0.75174 0.0
C3296 C 0.3895 0.46401 0.76249 0.0
C3297 C 0.37198 0.4564 0.75295 0.0
C3298 C 0.36502 0.46896 0.74348 0.0
C3299 C 0.37548 0.48787 0.7429 0.0
C3300 C 0.36122 0.43564 0.7531 0.0
C3301 C 0.3435 0.43178 0.75706 0.0
C3302 C 0.36856 0.41963 0.75038 0.0
C3303 C 0.38686 0.42175 0.74561 0.0
C3304 C 0.39189 0.4296 0.73016 0.0
C3305 C 0.40927 0.43182 0.72594 0.0
C3306 C 0.42169 0.42609 0.737 0.0
C3307 C 0.41675 0.41808 0.75227 0.0
C3308 C 0.3994 0.41585 0.75655 0.0
C3309 C 0.30121 0.35058 0.74672 0.0
C3310 C 0.30774 0.3378 0.75606 0.0
C3311 C 0.31183 0.36913 0.74617 0.0
C3312 C 0.32954 0.37628 0.75537 0.0
C3313 C 0.3364 0.36332 0.76431 0.0
C3314 C 0.32572 0.34446 0.76468 0.0
C3315 C 0.34052 0.39703 0.75548 0.0
C3316 C 0.35829 0.4009 0.75164 0.0
C3317 C 0.33333 0.41311 0.75859 0.0
C3318 C 0.31552 0.41119 0.76461 0.0
C3319 C 0.31152 0.40329 0.78032 0.0
C3320 C 0.29468 0.40142 0.78589 0.0
C3321 C 0.28177 0.40752 0.77594 0.0
C3322 C 0.2857 0.41556 0.76042 0.0
C3323 C 0.30251 0.41745 0.75478 0.0
H3324 H 0.26874 0.40605 0.78027 0.0
H3325 H 0.43514 0.42783 0.73372 0.0
H3326 H 0.19889 0.57243 0.22409 0.0
H3327 H 0.21914 0.60477 0.23296 0.0
H3328 H 0.18449 0.61999 0.2713 0.0
H3329 H 0.1636 0.58818 0.26128 0.0
H3330 H 0.19502 0.64773 0.25609 0.0
H3331 H 0.22579 0.60917 0.28477 0.0
H3332 H 0.23857 0.582 0.2866 0.0
H3333 H 0.27438 0.60078 0.24862 0.0
H3334 H 0.26164 0.62792 0.24635 0.0
H3335 H 0.25942 0.73364 0.29725 0.0
H3336 H 0.24428 0.70003 0.29622 0.0
H3337 H 0.26099 0.68484 0.24343 0.0
H3338 H 0.27618 0.71844 0.24424 0.0
H3339 H 0.26048 0.65763 0.27041 0.0
H3340 H 0.22461 0.69351 0.23961 0.0
H3341 H 0.21248 0.72145 0.24035 0.0
H3342 H 0.18658 0.70754 0.28692 0.0
H3343 H 0.19889 0.67973 0.28666 0.0
C3344 C 0.19562 0.58284 0.23425 0.0
C3345 C 0.17983 0.57808 0.24201 0.0
C3346 C 0.20724 0.60117 0.2395 0.0
C3347 C 0.20358 0.61462 0.25319 0.0
C3348 C 0.18762 0.60983 0.26076 0.0
C3349 C 0.1757 0.59174 0.25503 0.0
C3350 C 0.21613 0.63388 0.25925 0.0
C3351 C 0.20927 0.64979 0.25958 0.0
C3352 C 0.23478 0.63666 0.26376 0.0
C3353 C 0.24267 0.62051 0.2653 0.0
C3354 C 0.23633 0.60746 0.27673 0.0
C3355 C 0.24357 0.59206 0.27785 0.0
C3356 C 0.25725 0.58965 0.26771 0.0
C3357 C 0.26377 0.60266 0.25646 0.0
C3358 C 0.25657 0.61807 0.25528 0.0
C3359 C 0.26027 0.72312 0.28563 0.0
C3360 C 0.26871 0.72865 0.27066 0.0
C3361 C 0.25168 0.70396 0.28513 0.0
C3362 C 0.25156 0.69019 0.26972 0.0
C3363 C 0.26111 0.69541 0.25544 0.0
C3364 C 0.26957 0.71459 0.25585 0.0
C3365 C 0.23923 0.67102 0.26702 0.0
C3366 C 0.24616 0.65529 0.26726 0.0
C3367 C 0.22062 0.66834 0.26345 0.0
C3368 C 0.21277 0.68467 0.2632 0.0
C3369 C 0.21639 0.69648 0.25005 0.0
C3370 C 0.20948 0.71227 0.25038 0.0
C3371 C 0.19875 0.71626 0.26366 0.0
C3372 C 0.19489 0.70443 0.27663 0.0
C3373 C 0.20183 0.68866 0.2764 0.0
H3374 H 0.19343 0.72851 0.2639 0.0
H3375 H 0.26283 0.57771 0.26857 0.0
H3376 H 0.47853 0.69122 0.43253 0.0
H3377 H 0.48722 0.66669 0.44695 0.0
H3378 H 0.5428 0.69697 0.45003 0.0
H3379 H 0.53403 0.72109 0.43447 0.0
H3380 H 0.54086 0.66164 0.44373 0.0
H3381 H 0.5179 0.69827 0.48887 0.0
H3382 H 0.49684 0.71438 0.50257 0.0
H3383 H 0.45725 0.66029 0.49533 0.0
H3384 H 0.47798 0.64387 0.48135 0.0
H3385 H 0.56348 0.60234 0.50551 0.0
H3386 H 0.55926 0.63106 0.49487 0.0
H3387 H 0.50318 0.60283 0.47803 0.0
H3388 H 0.50721 0.57426 0.48877 0.0
H3389 H 0.50877 0.64028 0.49457 0.0
H3390 H 0.53418 0.60469 0.44871 0.0
H3391 H 0.55784 0.59009 0.43988 0.0
H3392 H 0.59597 0.64552 0.45161 0.0
H3393 H 0.57263 0.66035 0.46164 0.0
C3394 C 0.49263 0.69254 0.43606 0.0
C3395 C 0.50558 0.70815 0.43238 0.0
C3396 C 0.49761 0.67859 0.44456 0.0
C3397 C 0.5157 0.68017 0.45028 0.0
C3398 C 0.52874 0.6954 0.44597 0.0
C3399 C 0.52373 0.70918 0.437 0.0
C3400 C 0.5208 0.66591 0.46071 0.0
C3401 C 0.53401 0.65727 0.45504 0.0
C3402 C 0.51203 0.66003 0.47561 0.0
C3403 C 0.49946 0.66986 0.48391 0.0
C3404 C 0.50465 0.68983 0.49006 0.0
C3405 C 0.49278 0.69901 0.4979 0.0
C3406 C 0.47571 0.68837 0.49978 0.0
C3407 C 0.47048 0.66851 0.49385 0.0
C3408 C 0.48229 0.65926 0.48598 0.0
C3409 C 0.55021 0.60229 0.49971 0.0
C3410 C 0.53573 0.58585 0.4979 0.0
C3411 C 0.54782 0.61875 0.49358 0.0
C3412 C 0.53092 0.6191 0.4854 0.0
C3413 C 0.51636 0.60297 0.48424 0.0
C3414 C 0.51872 0.58655 0.49034 0.0
C3415 C 0.52836 0.63576 0.4772 0.0
C3416 C 0.51568 0.64486 0.48335 0.0
C3417 C 0.53791 0.64235 0.46308 0.0
C3418 C 0.55169 0.6336 0.45613 0.0
C3419 C 0.54762 0.61377 0.44953 0.0
C3420 C 0.56101 0.60544 0.44432 0.0
C3421 C 0.57842 0.61687 0.44504 0.0
C3422 C 0.58248 0.63667 0.45106 0.0
C3423 C 0.56919 0.64504 0.45662 0.0
H3424 H 0.58877 0.61038 0.44097 0.0
H3425 H 0.46655 0.69551 0.50586 0.0
H3426 H 0.64594 0.30936 0.62865 0.0
H3427 H 0.66901 0.30424 0.65019 0.0
H3428 H 0.63401 0.3009 0.69176 0.0
H3429 H 0.6104 0.30572 0.66996 0.0
H3430 H 0.67033 0.32422 0.70469 0.0
H3431 H 0.63962 0.26112 0.67088 0.0
H3432 H 0.62689 0.23634 0.64297 0.0
H3433 H 0.67879 0.24432 0.62588 0.0
H3434 H 0.6918 0.26938 0.65355 0.0
H3435 H 0.72132 0.28903 0.76726 0.0
H3436 H 0.69752 0.29308 0.74583 0.0
H3437 H 0.72797 0.28566 0.70104 0.0
H3438 H 0.7517 0.28082 0.7226 0.0
H3439 H 0.6938 0.26784 0.68946 0.0
H3440 H 0.72488 0.33067 0.72141 0.0
H3441 H 0.73873 0.35665 0.74811 0.0
H3442 H 0.68783 0.35098 0.76718 0.0
H3443 H 0.67372 0.32474 0.74075 0.0
C3444 C 0.64304 0.3077 0.6424 0.0
C3445 C 0.62616 0.30801 0.6475 0.0
C3446 C 0.65631 0.30464 0.6547 0.0
C3447 C 0.65326 0.30195 0.67256 0.0
C3448 C 0.63668 0.30285 0.67801 0.0
C3449 C 0.62319 0.30565 0.66555 0.0
C3450 C 0.66749 0.29823 0.68535 0.0
C3451 C 0.67523 0.31172 0.70154 0.0
C3452 C 0.67446 0.28231 0.68089 0.0
C3453 C 0.66665 0.26728 0.66421 0.0
C3454 C 0.64829 0.25773 0.66108 0.0
C3455 C 0.64103 0.24361 0.64532 0.0
C3456 C 0.65201 0.2388 0.63264 0.0
C3457 C 0.67029 0.24808 0.6357 0.0
C3458 C 0.67762 0.26224 0.65143 0.0
C3459 C 0.72301 0.28819 0.75284 0.0
C3460 C 0.73869 0.28499 0.74674 0.0
C3461 C 0.70937 0.29066 0.74057 0.0
C3462 C 0.71101 0.29021 0.72179 0.0
C3463 C 0.72639 0.28634 0.71548 0.0
C3464 C 0.74009 0.28375 0.72783 0.0
C3465 C 0.69661 0.29378 0.70897 0.0
C3466 C 0.68888 0.28032 0.69271 0.0
C3467 C 0.68982 0.3099 0.71321 0.0
C3468 C 0.69827 0.32559 0.7292 0.0
C3469 C 0.71667 0.33484 0.73139 0.0
C3470 C 0.72456 0.34963 0.74646 0.0
C3471 C 0.71418 0.35543 0.75936 0.0
C3472 C 0.69587 0.34645 0.75719 0.0
C3473 C 0.68791 0.33162 0.74217 0.0
H3474 H 0.72031 0.3669 0.771 0.0
H3475 H 0.64637 0.22785 0.62045 0.0
H3476 H 0.03671 0.31828 0.93283 0.0
H3477 H 0.04338 0.35261 0.94613 0.0
H3478 H 0.99276 0.34252 0.96667 0.0
H3479 H 0.98619 0.30844 0.95408 0.0
H3480 H 0.00845 0.37449 0.9388 0.0
H3481 H 0.01367 0.35045 -0.00164 0.0
H3482 H 0.02768 0.33297 0.01854 0.0
H3483 H 0.07965 0.36812 0.01433 0.0
H3484 H 0.06591 0.38557 0.99383 0.0
H3485 H 0.99993 0.46093 0.98819 0.0
H3486 H 0.99752 0.42697 0.9777 0.0
H3487 H 0.05421 0.43775 0.99416 0.0
H3488 H 0.05664 0.47132 0.00519 0.0
H3489 H 0.03845 0.40565 0.00233 0.0
H3490 H 0.03629 0.4332 0.94877 0.0
H3491 H 0.02607 0.45175 0.92705 0.0
H3492 H 0.97384 0.41196 0.91674 0.0
H3493 H 0.98367 0.39333 0.93865 0.0
C3494 C 0.02716 0.32336 0.94044 0.0
C3495 C 0.01097 0.31061 0.94247 0.0
C3496 C 0.03097 0.34292 0.94797 0.0
C3497 C 0.01855 0.34993 0.95739 0.0
C3498 C 0.00254 0.33726 0.95957 0.0
C3499 C 0.99886 0.31778 0.95239 0.0
C3500 C 0.02164 0.37062 0.96421 0.0
C3501 C 0.01489 0.38136 0.95271 0.0
C3502 C 0.03061 0.37957 0.98208 0.0
C3503 C 0.03879 0.36907 0.99435 0.0
C3504 C 0.02808 0.35426 0.00154 0.0
C3505 C 0.03598 0.3444 0.01308 0.0
C3506 C 0.05455 0.34937 0.01764 0.0
C3507 C 0.06527 0.36424 0.01072 0.0
C3508 C 0.05744 0.3741 -0.00086 0.0
C3509 C 0.01183 0.45602 0.98976 0.0
C3510 C 0.02847 0.4689 0.99741 0.0
C3511 C 0.01047 0.43663 0.98364 0.0
C3512 C 0.02576 0.42987 0.98482 0.0
C3513 C 0.04223 0.4426 0.99305 0.0
C3514 C 0.04358 0.46187 -0.00068 0.0
C3515 C 0.02473 0.40965 0.97712 0.0
C3516 C 0.03199 0.39896 0.98838 0.0
C3517 C 0.01665 0.4009 0.9588 0.0
C3518 C 0.01067 0.41197 0.94551 0.0
C3519 C 0.02259 0.42848 0.94198 0.0
C3520 C 0.01687 0.439 0.92963 0.0
C3521 C 0.99931 0.43307 0.92056 0.0
C3522 C 0.98744 0.41656 0.9238 0.0
C3523 C 0.99308 0.406 0.93618 0.0
H3524 H 0.9949 0.44123 0.91099 0.0
H3525 H 0.06063 0.34174 0.0266 0.0
H3526 H 0.03886 0.81452 0.17958 0.0
H3527 H 0.00968 0.80577 0.18995 0.0
H3528 H 0.98599 0.77497 0.13509 0.0
H3529 H 0.01524 0.78379 0.12453 0.0
H3530 H 0.96441 0.79502 0.14954 0.0
H3531 H 0.9923 0.75018 0.16811 0.0
H3532 H 0.01603 0.73776 0.18168 0.0
H3533 H 0.01495 0.76959 0.23517 0.0
H3534 H 0.99139 0.78246 0.22186 0.0
H3535 H 0.88439 0.76025 0.19026 0.0
H3536 H 0.90983 0.76081 0.17316 0.0
H3537 H 0.94579 0.79416 0.22167 0.0
H3538 H 0.92064 0.79367 0.23871 0.0
H3539 H 0.95879 0.76653 0.20587 0.0
H3540 H 0.93114 0.81336 0.18318 0.0
H3541 H 0.90602 0.82224 0.16744 0.0
H3542 H 0.90477 0.78128 0.1188 0.0
H3543 H 0.92975 0.772 0.13434 0.0
C3544 C 0.02749 0.80587 0.16967 0.0
C3545 C 0.02952 0.79981 0.15122 0.0
C3546 C 0.01076 0.8008 0.17565 0.0
C3547 C 0.99557 0.78948 0.16339 0.0
C3548 C 0.99745 0.78366 0.14486 0.0
C3549 C 0.01424 0.78868 0.13886 0.0
C3550 C 0.97789 0.78382 0.17015 0.0
C3551 C 0.96312 0.78853 0.1617 0.0
C3552 C 0.97596 0.77503 0.18582 0.0
C3553 C 0.99018 0.76742 0.19395 0.0
C3554 C 0.99723 0.75467 0.18274 0.0
C3555 C 0.01063 0.74752 0.19039 0.0
C3556 C 0.01702 0.75292 0.20927 0.0
C3557 C 0.01 0.76544 0.22054 0.0
C3558 C 0.9966 0.77266 0.21296 0.0
C3559 C 0.89772 0.76776 0.19727 0.0
C3560 C 0.90039 0.77684 0.21596 0.0
C3561 C 0.91228 0.76807 0.18745 0.0
C3562 C 0.92982 0.77768 0.19603 0.0
C3563 C 0.93246 0.78656 0.21469 0.0
C3564 C 0.918 0.78619 0.22449 0.0
C3565 C 0.94563 0.77873 0.18592 0.0
C3566 C 0.96005 0.77293 0.19365 0.0
C3567 C 0.94701 0.78605 0.16933 0.0
C3568 C 0.93219 0.79187 0.15998 0.0
C3569 C 0.92544 0.80619 0.16917 0.0
C3570 C 0.91124 0.81129 0.16028 0.0
C3571 C 0.90377 0.80229 0.14215 0.0
C3572 C 0.91054 0.78822 0.13285 0.0
C3573 C 0.92473 0.78304 0.14168 0.0
H3574 H 0.89277 0.80626 0.1353 0.0
H3575 H 0.0274 0.74736 0.21517 0.0
H3576 H 0.52481 0.29095 0.11172 0.0
H3577 H 0.53689 0.31691 0.09555 0.0
H3578 H 0.48711 0.33221 0.09423 0.0
H3579 H 0.47488 0.30625 0.11023 0.0
H3580 H 0.49857 0.32929 0.06071 0.0
H3581 H 0.524 0.35858 0.12431 0.0
H3582 H 0.54191 0.36075 0.15427 0.0
H3583 H 0.58848 0.36202 0.12764 0.0
H3584 H 0.57078 0.35962 0.09746 0.0
H3585 H 0.51129 0.4208 0.04478 0.0
H3586 H 0.50919 0.39522 0.0624 0.0
H3587 H 0.55813 0.38619 0.04563 0.0
H3588 H 0.56056 0.41226 0.02799 0.0
H3589 H 0.55182 0.38406 0.086 0.0
H3590 H 0.52718 0.35684 0.02282 0.0
H3591 H 0.50963 0.35605 0.99305 0.0
H3592 H 0.46221 0.35086 0.01889 0.0
H3593 H 0.47957 0.35193 0.0489 0.0
C3594 C 0.51643 0.29986 0.108 0.0
C3595 C 0.49883 0.2965 0.11219 0.0
C3596 C 0.5234 0.31474 0.09886 0.0
C3597 C 0.51292 0.32652 0.09379 0.0
C3598 C 0.49541 0.32325 0.09802 0.0
C3599 C 0.48844 0.30842 0.10718 0.0
C3600 C 0.51981 0.34189 0.08348 0.0
C3601 C 0.5102 0.34125 0.06629 0.0
C3602 C 0.53538 0.35715 0.09044 0.0
C3603 C 0.54602 0.35868 0.1086 0.0
C3604 C 0.53802 0.35915 0.12482 0.0
C3605 C 0.54814 0.36046 0.14185 0.0
C3606 C 0.5663 0.36145 0.14285 0.0
C3607 C 0.5744 0.36121 0.12684 0.0
C3608 C 0.56433 0.35989 0.10977 0.0
C3609 C 0.52185 0.41371 0.04511 0.0
C3610 C 0.53606 0.4185 0.03493 0.0
C3611 C 0.52061 0.39909 0.05519 0.0
C3612 C 0.53349 0.38888 0.05525 0.0
C3613 C 0.54812 0.39403 0.04576 0.0
C3614 C 0.54935 0.40871 0.03554 0.0
C3615 C 0.53022 0.37158 0.06361 0.0
C3616 C 0.54045 0.37184 0.08033 0.0
C3617 C 0.51531 0.35581 0.05621 0.0
C3618 C 0.50468 0.35455 0.0381 0.0
C3619 C 0.51302 0.35562 0.02216 0.0
C3620 C 0.50312 0.35512 0.00525 0.0
C3621 C 0.48482 0.35343 0.00408 0.0
C3622 C 0.47639 0.35216 0.01981 0.0
C3623 C 0.48625 0.35268 0.03677 0.0
H3624 H 0.47717 0.35308 0.99098 0.0
H3625 H 0.57411 0.36246 0.15605 0.0
H3626 H 0.04144 0.34031 0.35567 0.0
H3627 H 0.01639 0.33527 0.33137 0.0
H3628 H 0.01896 0.27746 0.31304 0.0
H3629 H 0.04442 0.28265 0.3374 0.0
H3630 H 0.00531 0.31965 0.29149 0.0
H3631 H 0.9881 0.25655 0.3215 0.0
H3632 H 0.99438 0.24426 0.34995 0.0
H3633 H 0.99194 0.29678 0.38302 0.0
H3634 H 0.98577 0.30934 0.35475 0.0
H3635 H 0.91232 0.30216 0.26078 0.0
H3636 H 0.94165 0.29619 0.26652 0.0
H3637 H 0.94288 0.31404 0.32518 0.0
H3638 H 0.91342 0.31941 0.31948 0.0
H3639 H 0.95501 0.28455 0.31978 0.0
H3640 H 0.96493 0.34425 0.2993 0.0
H3641 H 0.9613 0.36658 0.27855 0.0
H3642 H 0.98076 0.33395 0.23593 0.0
H3643 H 0.98426 0.31126 0.2564 0.0
C3644 C 0.03704 0.3268 0.34598 0.0
C3645 C 0.04444 0.31175 0.34832 0.0
C3646 C 0.02292 0.32399 0.33205 0.0
C3647 C 0.01587 0.30597 0.32061 0.0
C3648 C 0.02437 0.29145 0.32178 0.0
C3649 C 0.03877 0.29438 0.33564 0.0
C3650 C 0.99755 0.30154 0.31113 0.0
C3651 C 0.99417 0.31132 0.29702 0.0
C3652 C 0.98328 0.29163 0.31927 0.0
C3653 C 0.98648 0.2838 0.33611 0.0
C3654 C 0.98885 0.26539 0.33486 0.0
C3655 C 0.99243 0.25842 0.35093 0.0
C3656 C 0.99356 0.26973 0.36828 0.0
C3657 C 0.99107 0.28803 0.36959 0.0
C3658 C 0.98753 0.29507 0.35357 0.0
C3659 C 0.91894 0.30475 0.27486 0.0
C3660 C 0.91084 0.31129 0.28972 0.0
C3661 C 0.93559 0.30132 0.27812 0.0
C3662 C 0.94442 0.30476 0.29624 0.0
C3663 C 0.93619 0.31112 0.31109 0.0
C3664 C 0.91947 0.31427 0.30785 0.0
C3665 C 0.96257 0.30258 0.29989 0.0
C3666 C 0.96589 0.29181 0.31319 0.0
C3667 C 0.97686 0.31245 0.29166 0.0
C3668 C 0.97457 0.3259 0.27925 0.0
C3669 C 0.96824 0.34172 0.28543 0.0
C3670 C 0.96625 0.35447 0.27374 0.0
C3671 C 0.97072 0.35164 0.2559 0.0
C3672 C 0.97724 0.33608 0.24973 0.0
C3673 C 0.97922 0.32327 0.26136 0.0
H3674 H 0.9692 0.36153 0.24687 0.0
H3675 H 0.99635 0.26431 0.3807 0.0
H3676 H 0.96836 0.69317 0.59138 0.0
H3677 H 0.97488 0.66999 0.56699 0.0
H3678 H 0.0246 0.67382 0.60031 0.0
H3679 H 0.01789 0.69636 0.62471 0.0
H3680 H 0.02792 0.67506 0.56346 0.0
H3681 H 0.99355 0.63853 0.60104 0.0
H3682 H 0.96839 0.62758 0.6179 0.0
H3683 H 0.93262 0.6081 0.56673 0.0
H3684 H 0.95756 0.61936 0.54955 0.0
H3685 H 0.04798 0.59039 0.52247 0.0
H3686 H 0.04119 0.6151 0.5445 0.0
H3687 H 0.99137 0.60802 0.50987 0.0
H3688 H 0.99788 0.58289 0.488 0.0
H3689 H 0.98791 0.60883 0.54689 0.0
H3690 H 0.0275 0.64555 0.51025 0.0
H3691 H 0.05577 0.65389 0.49732 0.0
H3692 H 0.08528 0.67021 0.55204 0.0
H3693 H 0.05721 0.6617 0.56529 0.0
C3694 C 0.98067 0.68906 0.59329 0.0
C3695 C 0.99259 0.69619 0.60976 0.0
C3696 C 0.98437 0.67591 0.57949 0.0
C3697 C 1.00017 0.67026 0.58202 0.0
C3698 C 0.01236 0.67806 0.5982 0.0
C3699 C 0.00849 0.69078 0.61208 0.0
C3700 C 0.00379 0.65561 0.56819 0.0
C3701 C 0.01919 0.66058 0.5598 0.0
C3702 C 0.9925 0.63671 0.56378 0.0
C3703 C 0.97737 0.63013 0.57402 0.0
C3704 C 0.98028 0.63219 0.59338 0.0
C3705 C 0.96606 0.62587 0.603 0.0
C3706 C 0.94889 0.61724 0.5934 0.0
C3707 C 0.94592 0.61487 0.57415 0.0
C3708 C 0.96009 0.62124 0.56446 0.0
C3709 C 0.03565 0.59423 0.51952 0.0
C3710 C 0.02346 0.58488 0.50358 0.0
C3711 C 0.0318 0.6083 0.53207 0.0
C3712 C 0.01587 0.61344 0.52864 0.0
C3713 C 0.00374 0.60421 0.51266 0.0
C3714 C 0.00752 0.59002 0.50016 0.0
C3715 C 0.01181 0.6284 0.5418 0.0
C3716 C 0.99642 0.62343 0.55024 0.0
C3717 C 0.02346 0.64713 0.54674 0.0
C3718 C 0.04025 0.65291 0.53875 0.0
C3719 C 0.04002 0.65088 0.51952 0.0
C3720 C 0.05601 0.65562 0.51213 0.0
C3721 C 0.07231 0.66255 0.52385 0.0
C3722 C 0.07265 0.66484 0.54298 0.0
C3723 C 0.0567 0.66009 0.55043 0.0
H3724 H 0.08468 0.66617 0.5181 0.0
H3725 H 0.93791 0.61231 0.60086 0.0
H3726 H 0.64588 0.81481 0.86977 0.0
H3727 H 0.66798 0.80825 0.85047 0.0
H3728 H 0.64499 0.83199 0.80755 0.0
H3729 H 0.62269 0.83858 0.82677 0.0
H3730 H 0.64853 0.79588 0.79501 0.0
H3731 H 0.68465 0.85552 0.83124 0.0
H3732 H 0.69899 0.87896 0.85975 0.0
H3733 H 0.72774 0.84039 0.87634 0.0
H3734 H 0.71325 0.81651 0.84826 0.0
H3735 H 0.73441 0.80603 0.75371 0.0
H3736 H 0.70979 0.81474 0.76775 0.0
H3737 H 0.7032 0.76656 0.79548 0.0
H3738 H 0.72734 0.75733 0.78101 0.0
H3739 H 0.7143 0.81663 0.81337 0.0
H3740 H 0.67157 0.75457 0.7821 0.0
H3741 H 0.65766 0.73055 0.75392 0.0
H3742 H 0.64237 0.77375 0.72846 0.0
H3743 H 0.65653 0.7981 0.75644 0.0
C3744 C 0.64567 0.8189 0.85634 0.0
C3745 C 0.63248 0.82709 0.84972 0.0
C3746 C 0.65834 0.8152 0.84536 0.0
C3747 C 0.65807 0.81965 0.82763 0.0
C3748 C 0.64534 0.82844 0.82122 0.0
C3749 C 0.63269 0.83226 0.83224 0.0
C3750 C 0.67034 0.81387 0.8154 0.0
C3751 C 0.66292 0.80064 0.79893 0.0
C3752 C 0.68908 0.81983 0.8207 0.0
C3753 C 0.69773 0.83416 0.83769 0.0
C3754 C 0.6939 0.85196 0.84106 0.0
C3755 C 0.70208 0.86534 0.85711 0.0
C3756 C 0.71427 0.86117 0.8698 0.0
C3757 C 0.71829 0.8436 0.86649 0.0
C3758 C 0.71008 0.83013 0.85052 0.0
C3759 C 0.72734 0.79698 0.76236 0.0
C3760 C 0.73268 0.781 0.76629 0.0
C3761 C 0.71331 0.80194 0.7703 0.0
C3762 C 0.70464 0.7911 0.78236 0.0
C3763 C 0.70951 0.77476 0.7858 0.0
C3764 C 0.72329 0.76955 0.77757 0.0
C3765 C 0.69241 0.79845 0.79341 0.0
C3766 C 0.69989 0.81204 0.80953 0.0
C3767 C 0.67379 0.79268 0.78797 0.0
C3768 C 0.66539 0.77817 0.77117 0.0
C3769 C 0.66549 0.75898 0.77038 0.0
C3770 C 0.6575 0.7453 0.75449 0.0
C3771 C 0.64921 0.75064 0.73937 0.0
C3772 C 0.64886 0.76966 0.74015 0.0
C3773 C 0.65687 0.7834 0.75601 0.0
H3774 H 0.64301 0.74002 0.72708 0.0
H3775 H 0.72061 0.87157 0.88219 0.0
H3776 H 0.48202 0.55261 0.71033 0.0
H3777 H 0.49424 0.55189 0.68124 0.0
H3778 H 0.44388 0.55316 0.65316 0.0
H3779 H 0.43147 0.55408 0.68277 0.0
H3780 H 0.45812 0.52665 0.63143 0.0
H3781 H 0.48222 0.59283 0.66128 0.0
H3782 H 0.49839 0.61948 0.68661 0.0
H3783 H 0.54543 0.59957 0.68547 0.0
H3784 H 0.52947 0.57266 0.66029 0.0
H3785 H 0.49766 0.53527 0.54605 0.0
H3786 H 0.48131 0.5376 0.57288 0.0
H3787 H 0.53117 0.55386 0.60957 0.0
H3788 H 0.54721 0.5525 0.58315 0.0
H3789 H 0.51504 0.57272 0.6262 0.0
H3790 H 0.49296 0.50597 0.60044 0.0
H3791 H 0.47864 0.47742 0.57636 0.0
H3792 H 0.43046 0.49525 0.57127 0.0
H3793 H 0.44458 0.52403 0.59521 0.0
C3794 C 0.47343 0.55308 0.69813 0.0
C3795 C 0.4556 0.55376 0.69956 0.0
C3796 C 0.48058 0.55262 0.68117 0.0
C3797 C 0.47034 0.55254 0.66432 0.0
C3798 C 0.45245 0.55322 0.66558 0.0
C3799 C 0.4453 0.554 0.68278 0.0
C3800 C 0.47847 0.55167 0.64587 0.0
C3801 C 0.47043 0.537 0.63032 0.0
C3802 C 0.495 0.56446 0.64386 0.0
C3803 C 0.50459 0.58064 0.659 0.0
C3804 C 0.49597 0.59406 0.66652 0.0
C3805 C 0.50511 0.60922 0.68084 0.0
C3806 C 0.52291 0.61119 0.68767 0.0
C3807 C 0.53163 0.59802 0.68018 0.0
C3808 C 0.52255 0.58282 0.66587 0.0
C3809 C 0.50516 0.53926 0.55981 0.0
C3810 C 0.52405 0.54364 0.56193 0.0
C3811 C 0.49569 0.5405 0.57548 0.0
C3812 C 0.50458 0.54579 0.5941 0.0
C3813 C 0.52341 0.54993 0.59593 0.0
C3814 C 0.53277 0.549 0.58045 0.0
C3815 C 0.49491 0.54747 0.61163 0.0
C3816 C 0.50271 0.56232 0.62713 0.0
C3817 C 0.47845 0.53451 0.61374 0.0
C3818 C 0.46989 0.51724 0.59945 0.0
C3819 C 0.47935 0.50385 0.5941 0.0
C3820 C 0.47127 0.48763 0.5805 0.0
C3821 C 0.45367 0.48456 0.57225 0.0
C3822 C 0.4441 0.49767 0.57765 0.0
C3823 C 0.45213 0.51393 0.59124 0.0
H3824 H 0.44744 0.47199 0.56171 0.0
H3825 H 0.52996 0.62294 0.69875 0.0
H3826 H 0.74809 0.13783 0.95872 0.0
H3827 H 0.74023 0.1513 0.93207 0.0
H3828 H 0.78999 0.19587 0.9461 0.0
H3829 H 0.79789 0.18247 0.97297 0.0
H3830 H 0.75875 0.20795 0.94912 0.0
H3831 H 0.78079 0.16595 0.90545 0.0
H3832 H 0.78209 0.1341 0.89026 0.0
H3833 H 0.7259 0.11875 0.87042 0.0
H3834 H 0.7242 0.15043 0.88573 0.0
H3835 H 0.76374 0.26656 0.88644 0.0
H3836 H 0.76479 0.24465 0.90708 0.0
H3837 H 0.71703 0.20452 0.87549 0.0
H3838 H 0.71653 0.22647 0.85365 0.0
H3839 H 0.7408 0.18666 0.88144 0.0
H3840 H 0.71812 0.22814 0.92204 0.0
H3841 H 0.71515 0.25916 0.93762 0.0
H3842 H 0.76937 0.27398 0.96439 0.0
H3843 H 0.77275 0.24318 0.94883 0.0
C3844 C 0.75769 0.15003 0.95564 0.0
C3845 C 0.77341 0.15943 0.96798 0.0
C3846 C 0.7532 0.15765 0.9404 0.0
C3847 C 0.76444 0.17467 0.93737 0.0
C3848 C 0.78117 0.18272 0.94838 0.0
C3849 C 0.78571 0.17503 0.96362 0.0
C3850 C 0.75724 0.18604 0.92553 0.0
C3851 C 0.75504 0.20346 0.93427 0.0
C3852 C 0.75119 0.17937 0.90648 0.0
C3853 C 0.75234 0.16052 0.89688 0.0
C3854 C 0.76868 0.15575 0.89795 0.0
C3855 C 0.7695 0.13773 0.8893 0.0
C3856 C 0.75408 0.12439 0.87942 0.0
C3857 C 0.73783 0.12909 0.87809 0.0
C3858 C 0.73694 0.14708 0.88673 0.0
C3859 C 0.75294 0.25349 0.88422 0.0
C3860 C 0.73985 0.2484 0.86859 0.0
C3861 C 0.75358 0.24087 0.89612 0.0
C3862 C 0.74074 0.2231 0.89316 0.0
C3863 C 0.72698 0.21826 0.87811 0.0
C3864 C 0.72659 0.23083 0.86578 0.0
C3865 C 0.74324 0.2092 0.90487 0.0
C3866 C 0.74429 0.19112 0.8963 0.0
C3867 C 0.74785 0.21502 0.92426 0.0
C3868 C 0.74566 0.23329 0.93426 0.0
C3869 C 0.72941 0.23801 0.93125 0.0
C3870 C 0.72766 0.25557 0.94007 0.0
C3871 C 0.74206 0.26852 0.95199 0.0
C3872 C 0.75821 0.26391 0.95519 0.0
C3873 C 0.76003 0.24637 0.94643 0.0
H3874 H 0.7407 0.28214 0.95874 0.0
H3875 H 0.75473 0.11044 0.87276 0.0
H3876 H 0.13192 0.51131 0.17733 0.0
H3877 H 0.11825 0.5176 0.14872 0.0
H3878 H 0.09528 0.55754 0.18013 0.0
H3879 H 0.10908 0.5515 0.20891 0.0
H3880 H 0.07117 0.5267 0.15417 0.0
H3881 H 0.12546 0.5759 0.15747 0.0
H3882 H 0.15799 0.59017 0.16061 0.0
H3883 H 0.16061 0.5513 0.1119 0.0
H3884 H 0.12813 0.53658 0.10861 0.0
H3885 H 0.03058 0.5468 0.07279 0.0
H3886 H 0.0487 0.55164 0.10305 0.0
H3887 H 0.08 0.51604 0.07896 0.0
H3888 H 0.06168 0.51102 0.04883 0.0
H3889 H 0.10071 0.54959 0.10239 0.0
H3890 H 0.04995 0.49675 0.10174 0.0
H3891 H 0.01796 0.47952 0.09778 0.0
H3892 H 0.00969 0.52157 0.14076 0.0
H3893 H 0.04163 0.53921 0.1448 0.0
C3894 C 0.12394 0.52141 0.17813 0.0
C3895 C 0.12131 0.53077 0.19524 0.0
C3896 C 0.11642 0.52521 0.16184 0.0
C3897 C 0.1061 0.53824 0.16251 0.0
C3898 C 0.10347 0.54765 0.17953 0.0
C3899 C 0.11119 0.54405 0.19585 0.0
C3900 C 0.0961 0.53992 0.14542 0.0
C3901 C 0.07755 0.53218 0.14299 0.0
C3902 C 0.10471 0.54638 0.13078 0.0
C3903 C 0.12434 0.555 0.1329 0.0
C3904 C 0.13298 0.57023 0.14755 0.0
C3905 C 0.15142 0.57845 0.14932 0.0
C3906 C 0.16137 0.57162 0.13649 0.0
C3907 C 0.15289 0.55657 0.12185 0.0
C3908 C 0.13446 0.54829 0.12001 0.0
C3909 C 0.04127 0.53996 0.07415 0.0
C3910 C 0.045 0.52863 0.05886 0.0
C3911 C 0.05162 0.54282 0.09124 0.0
C3912 C 0.06564 0.53424 0.09304 0.0
C3913 C 0.06934 0.52292 0.07766 0.0
C3914 C 0.05895 0.52004 0.0606 0.0
C3915 C 0.07586 0.53625 0.1112 0.0
C3916 C 0.09436 0.54454 0.11375 0.0
C3917 C 0.06733 0.52987 0.12589 0.0
C3918 C 0.0481 0.51944 0.12339 0.0
C3919 C 0.04126 0.50244 0.11021 0.0
C3920 C 0.02316 0.49257 0.10798 0.0
C3921 C 0.01178 0.49948 0.11896 0.0
C3922 C 0.01851 0.51626 0.13223 0.0
C3923 C 0.03661 0.5262 0.1345 0.0
H3924 H 0.99777 0.49181 0.11724 0.0
H3925 H 0.17563 0.57802 0.13788 0.0
H3926 H 0.77139 0.81699 0.47225 0.0
H3927 H 0.76917 0.80612 0.43883 0.0
H3928 H 0.80283 0.8614 0.43454 0.0
H3929 H 0.80337 0.87269 0.46743 0.0
H3930 H 0.78292 0.85033 0.40527 0.0
H3931 H 0.81742 0.8168 0.43876 0.0
H3932 H 0.82252 0.7961 0.46076 0.0
H3933 H 0.77919 0.74997 0.42983 0.0
H3934 H 0.77372 0.77047 0.40776 0.0
H3935 H 0.81973 0.81851 0.32465 0.0
H3936 H 0.81812 0.82816 0.35771 0.0
H3937 H 0.76893 0.78359 0.35251 0.0
H3938 H 0.77018 0.77429 0.31957 0.0
H3939 H 0.79591 0.78816 0.38554 0.0
H3940 H 0.76318 0.82293 0.35147 0.0
H3941 H 0.76033 0.84394 0.32911 0.0
H3942 H 0.8039 0.88865 0.36161 0.0
H3943 H 0.8072 0.86777 0.38401 0.0
C3944 C 0.77781 0.8269 0.46396 0.0
C3945 C 0.78742 0.84568 0.47227 0.0
C3946 C 0.77684 0.82062 0.44491 0.0
C3947 C 0.78642 0.83264 0.43408 0.0
C3948 C 0.79536 0.85171 0.4424 0.0
C3949 C 0.79565 0.85821 0.46124 0.0
C3950 C 0.78788 0.82538 0.41438 0.0
C3951 C 0.78601 0.83683 0.40115 0.0
C3952 C 0.79163 0.8076 0.4086 0.0
C3953 C 0.79506 0.79522 0.42173 0.0
C3954 C 0.80895 0.80226 0.4367 0.0
C3955 C 0.8119 0.79057 0.44918 0.0
C3956 C 0.80116 0.77175 0.44672 0.0
C3957 C 0.78749 0.76456 0.43174 0.0
C3958 C 0.78446 0.7762 0.41923 0.0
C3959 C 0.80876 0.81062 0.33068 0.0
C3960 C 0.79506 0.79571 0.31959 0.0
C3961 C 0.80781 0.81617 0.34948 0.0
C3962 C 0.79336 0.80661 0.35748 0.0
C3963 C 0.78018 0.79112 0.3466 0.0
C3964 C 0.7809 0.78589 0.3278 0.0
C3965 C 0.79134 0.81332 0.37692 0.0
C3966 C 0.79298 0.8017 0.38991 0.0
C3967 C 0.78774 0.83106 0.38258 0.0
C3968 C 0.78556 0.84373 0.3693 0.0
C3969 C 0.77225 0.83719 0.35376 0.0
C3970 C 0.77054 0.84908 0.34109 0.0
C3971 C 0.78196 0.8676 0.34391 0.0
C3972 C 0.79508 0.87429 0.35943 0.0
C3973 C 0.79687 0.86244 0.37213 0.0
H3974 H 0.78063 0.87678 0.33408 0.0
H3975 H 0.80346 0.76272 0.45641 0.0
H3976 H 0.48563 0.57182 0.80423 0.0
H3977 H 0.49803 0.57011 0.8353 0.0
H3978 H 0.44502 0.54485 0.84655 0.0
H3979 H 0.43254 0.54782 0.81565 0.0
H3980 H 0.46143 0.56224 0.87774 0.0
H3981 H 0.48061 0.51925 0.83359 0.0
H3982 H 0.49484 0.50968 0.8067 0.0
H3983 H 0.54498 0.54894 0.83263 0.0
H3984 H 0.531 0.5589 0.85958 0.0
H3985 H 0.50257 0.50972 0.94337 0.0
H3986 H 0.48974 0.51473 0.91338 0.0
H3987 H 0.5209 0.57364 0.92607 0.0
H3988 H 0.53323 0.56894 0.95625 0.0
H3989 H 0.51513 0.53823 0.88346 0.0
H3990 H 0.49274 0.58363 0.92612 0.0
H3991 H 0.47785 0.58988 0.9534 0.0
H3992 H 0.43278 0.54198 0.92972 0.0
H3993 H 0.44762 0.53526 0.90245 0.0
C3994 C 0.47648 0.56643 0.81347 0.0
C3995 C 0.4579 0.56044 0.80719 0.0
C3996 C 0.4837 0.56499 0.83137 0.0
C3997 C 0.47281 0.5566 0.84374 0.0
C3998 C 0.45411 0.55129 0.83773 0.0
C3999 C 0.44683 0.55318 0.8199 0.0
C4000 C 0.48086 0.55309 0.86246 0.0
C4001 C 0.47314 0.55692 0.87868 0.0
C4002 C 0.49626 0.54602 0.86462 0.0
C4003 C 0.50471 0.53994 0.84851 0.0
C4004 C 0.49465 0.5259 0.83351 0.0
C4005 C 0.50267 0.52041 0.81826 0.0
C4006 C 0.52079 0.52873 0.81793 0.0
C4007 C 0.53094 0.54252 0.83288 0.0
C4008 C 0.52298 0.54809 0.84815 0.0
C4009 C 0.50676 0.52379 0.93986 0.0
C4010 C 0.51909 0.53887 0.95265 0.0
C4011 C 0.49932 0.52667 0.92254 0.0
C4012 C 0.50404 0.54468 0.91709 0.0
C4013 C 0.51664 0.55963 0.92967 0.0
C4014 C 0.5238 0.55686 0.9471 0.0
C4015 C 0.49594 0.54788 0.89845 0.0
C4016 C 0.50353 0.54373 0.88232 0.0
C4017 C 0.48044 0.55452 0.89633 0.0
C4018 C 0.47138 0.55879 0.91243 0.0
C4019 C 0.47974 0.57432 0.92684 0.0
C4020 C 0.4713 0.57797 0.94227 0.0
C4021 C 0.4544 0.5663 0.94333 0.0
C4022 C 0.44589 0.55099 0.92891 0.0
C4023 C 0.45431 0.54725 0.91347 0.0
H4024 H 0.44788 0.56914 0.95528 0.0
H4025 H 0.52697 0.52446 0.80611 0.0
H4026 H 0.81281 0.19173 0.07669 0.0
H4027 H 0.81137 0.20727 0.10814 0.0
H4028 H 0.75872 0.21209 0.09004 0.0
H4029 H 0.76073 0.19815 0.05875 0.0
H4030 H 0.77436 0.24221 0.11052 0.0
H4031 H 0.76684 0.17782 0.11661 0.0
H4032 H 0.7726 0.14618 0.1147 0.0
H4033 H 0.82212 0.17154 0.15099 0.0
H4034 H 0.81681 0.2034 0.1529 0.0
H4035 H 0.76466 0.2703 0.20623 0.0
H4036 H 0.75916 0.25007 0.17528 0.0
H4037 H 0.81583 0.25676 0.17715 0.0
H4038 H 0.82127 0.27689 0.20795 0.0
H4039 H 0.7928 0.21774 0.16588 0.0
H4040 H 0.79834 0.28357 0.15416 0.0
H4041 H 0.78805 0.31284 0.1574 0.0
H4042 H 0.73517 0.27958 0.13248 0.0
H4043 H 0.74514 0.2501 0.12927 0.0
C4044 C 0.80116 0.19652 0.07949 0.0
C4045 C 0.78707 0.19412 0.06533 0.0
C4046 C 0.80017 0.20505 0.09744 0.0
C4047 C 0.78477 0.21053 0.10149 0.0
C4048 C 0.77077 0.20811 0.08726 0.0
C4049 C 0.77201 0.20024 0.06933 0.0
C4050 C 0.78346 0.21958 0.12035 0.0
C4051 C 0.77808 0.23655 0.12254 0.0
C4052 C 0.78805 0.21217 0.13611 0.0
C4053 C 0.7915 0.19307 0.13474 0.0
C4054 C 0.77905 0.1767 0.12403 0.0
C4055 C 0.78222 0.15871 0.12298 0.0
C4056 C 0.79774 0.15686 0.13267 0.0
C4057 C 0.81012 0.173 0.14346 0.0
C4058 C 0.80703 0.19103 0.14454 0.0
C4059 C 0.77584 0.26753 0.1998 0.0
C4060 C 0.79335 0.27516 0.20896 0.0
C4061 C 0.77272 0.25598 0.18235 0.0
C4062 C 0.78713 0.25197 0.17419 0.0
C4063 C 0.80462 0.25969 0.18341 0.0
C4064 C 0.80772 0.27131 0.20075 0.0
C4065 C 0.7843 0.24034 0.15568 0.0
C4066 C 0.78882 0.22295 0.15365 0.0
C4067 C 0.77824 0.24689 0.14004 0.0
C4068 C 0.77245 0.26467 0.14159 0.0
C4069 C 0.78451 0.28252 0.14944 0.0
C4070 C 0.77874 0.29913 0.15126 0.0
C4071 C 0.76096 0.29807 0.14518 0.0
C4072 C 0.74893 0.28039 0.13719 0.0
C4073 C 0.75464 0.26374 0.13534 0.0
H4074 H 0.75651 0.31094 0.14663 0.0
H4075 H 0.80015 0.14292 0.13187 0.0
H4076 H 0.14783 0.5276 0.29468 0.0
H4077 H 0.14264 0.54163 0.32498 0.0
H4078 H 0.11391 0.5764 0.29989 0.0
H4079 H 0.11953 0.56275 0.26937 0.0
H4080 H 0.13472 0.59622 0.33288 0.0
H4081 H 0.09069 0.53674 0.31037 0.0
H4082 H 0.07897 0.50242 0.29663 0.0
H4083 H 0.10785 0.48806 0.34218 0.0
H4084 H 0.11996 0.52234 0.35606 0.0
H4085 H 0.06805 0.58741 0.39487 0.0
H4086 H 0.08919 0.59589 0.3733 0.0
H4087 H 0.12558 0.57065 0.40136 0.0
H4088 H 0.10438 0.56197 0.42278 0.0
H4089 H 0.10304 0.54865 0.36753 0.0
H4090 H 0.14339 0.61067 0.39179 0.0
H4091 H 0.15168 0.64525 0.40461 0.0
H4092 H 0.1251 0.65537 0.35517 0.0
H4093 H 0.11642 0.62079 0.34214 0.0
C4094 C 0.14038 0.53821 0.29558 0.0
C4095 C 0.13382 0.54389 0.27969 0.0
C4096 C 0.13756 0.54632 0.31289 0.0
C4097 C 0.12778 0.55991 0.31458 0.0
C4098 C 0.12155 0.56598 0.29881 0.0
C4099 C 0.12459 0.55803 0.28143 0.0
C4100 C 0.12278 0.56631 0.33266 0.0
C4101 C 0.12769 0.58592 0.3405 0.0
C4102 C 0.11363 0.55277 0.34245 0.0
C4103 C 0.10639 0.53212 0.33414 0.0
C4104 C 0.09467 0.52627 0.31737 0.0
C4105 C 0.08793 0.50683 0.30957 0.0
C4106 C 0.09271 0.49307 0.3185 0.0
C4107 C 0.10419 0.49873 0.33526 0.0
C4108 C 0.11099 0.51817 0.34311 0.0
C4109 C 0.08102 0.58472 0.39705 0.0
C4110 C 0.08454 0.57361 0.40996 0.0
C4111 C 0.09316 0.58972 0.38485 0.0
C4112 C 0.10874 0.58356 0.38562 0.0
C4113 C 0.11359 0.57548 0.40061 0.0
C4114 C 0.10142 0.57035 0.41269 0.0
C4115 C 0.11543 0.57856 0.36817 0.0
C4116 C 0.11043 0.55905 0.3602 0.0
C4117 C 0.12396 0.59227 0.35822 0.0
C4118 C 0.12912 0.61308 0.36604 0.0
C4119 C 0.13915 0.62023 0.38371 0.0
C4120 C 0.14396 0.63985 0.391 0.0
C4121 C 0.13889 0.6525 0.38073 0.0
C4122 C 0.12902 0.64555 0.36312 0.0
C4123 C 0.12417 0.62594 0.35576 0.0
H4124 H 0.14263 0.66768 0.3864 0.0
H4125 H 0.08747 0.47802 0.31244 0.0
H4126 H 0.76706 0.85055 0.57206 0.0
H4127 H 0.76115 0.83727 0.60005 0.0
H4128 H 0.81697 0.83988 0.61203 0.0
H4129 H 0.82254 0.85196 0.58377 0.0
H4130 H 0.79998 0.80812 0.61726 0.0
H4131 H 0.79333 0.8716 0.63681 0.0
H4132 H 0.78045 0.89868 0.63475 0.0
H4133 H 0.72828 0.86275 0.63703 0.0
H4134 H 0.74083 0.8354 0.63889 0.0
H4135 H 0.80515 0.79685 0.71152 0.0
H4136 H 0.80785 0.81145 0.6839 0.0
H4137 H 0.7506 0.79272 0.66896 0.0
H4138 H 0.74789 0.7777 0.69628 0.0
H4139 H 0.76603 0.83117 0.66485 0.0
H4140 H 0.77317 0.76834 0.6464 0.0
H4141 H 0.78598 0.74115 0.64794 0.0
H4142 H 0.83784 0.7766 0.64391 0.0
H4143 H 0.82536 0.80408 0.64252 0.0
C4144 C 0.77805 0.84849 0.58084 0.0
C4145 C 0.79526 0.85229 0.57567 0.0
C4146 C 0.7747 0.84093 0.59692 0.0
C4147 C 0.78862 0.83757 0.60846 0.0
C4148 C 0.80589 0.84206 0.60347 0.0
C4149 C 0.80911 0.84911 0.58729 0.0
C4150 C 0.78543 0.82868 0.62526 0.0
C4151 C 0.79279 0.81348 0.62775 0.0
C4152 C 0.77552 0.83499 0.63885 0.0
C4153 C 0.76799 0.85142 0.6378 0.0
C4154 C 0.7791 0.86946 0.63675 0.0
C4155 C 0.77185 0.88485 0.63564 0.0
C4156 C 0.75355 0.88242 0.63571 0.0
C4157 C 0.74245 0.8646 0.63695 0.0
C4158 C 0.74962 0.84916 0.63805 0.0
C4159 C 0.79315 0.79593 0.7024 0.0
C4160 C 0.77632 0.78603 0.70604 0.0
C4161 C 0.79469 0.80424 0.68658 0.0
C4162 C 0.77943 0.80312 0.67423 0.0
C4163 C 0.76257 0.7938 0.67823 0.0
C4164 C 0.76105 0.7852 0.69385 0.0
C4165 C 0.78109 0.8112 0.65695 0.0
C4166 C 0.77333 0.82604 0.65434 0.0
C4167 C 0.79074 0.80469 0.64329 0.0
C4168 C 0.79836 0.78832 0.64454 0.0
C4169 C 0.78734 0.7704 0.64604 0.0
C4170 C 0.79452 0.75491 0.6468 0.0
C4171 C 0.81271 0.75715 0.64599 0.0
C4172 C 0.82375 0.77489 0.6445 0.0
C4173 C 0.81663 0.79042 0.64371 0.0
H4174 H 0.81823 0.74513 0.64652 0.0
H4175 H 0.74797 0.89436 0.63484 0.0
H4176 H 0.73728 0.41612 0.50552 0.0
H4177 H 0.7134 0.43105 0.51155 0.0
H4178 H 0.75186 0.48665 0.52542 0.0
H4179 H 0.77599 0.47165 0.52015 0.0
H4180 H 0.72882 0.48285 0.54965 0.0
H4181 H 0.72419 0.47101 0.48291 0.0
H4182 H 0.72165 0.45057 0.45244 0.0
H4183 H 0.67221 0.41393 0.46157 0.0
H4184 H 0.67456 0.43406 0.49218 0.0
H4185 H 0.67222 0.54289 0.53672 0.0
H4186 H 0.69474 0.52516 0.53653 0.0
H4187 H 0.65316 0.47188 0.52666 0.0
H4188 H 0.63053 0.48951 0.52717 0.0
H4189 H 0.67647 0.47244 0.50184 0.0
H4190 H 0.67951 0.48573 0.56725 0.0
H4191 H 0.68235 0.50498 0.59835 0.0
H4192 H 0.73458 0.53817 0.59244 0.0
H4193 H 0.73197 0.51928 0.56119 0.0
C4194 C 0.74063 0.43155 0.50967 0.0
C4195 C 0.75843 0.44279 0.51223 0.0
C4196 C 0.72698 0.44005 0.51312 0.0
C4197 C 0.73085 0.45997 0.5187 0.0
C4198 C 0.74862 0.47124 0.52115 0.0
C4199 C 0.76234 0.4627 0.51802 0.0
C4200 C 0.71634 0.46905 0.52197 0.0
C4201 C 0.71748 0.48082 0.53914 0.0
C4202 C 0.70128 0.46577 0.50845 0.0
C4203 C 0.69961 0.45397 0.48985 0.0
C4204 C 0.71281 0.45856 0.47843 0.0
C4205 C 0.7114 0.44703 0.46114 0.0
C4206 C 0.69679 0.43094 0.45509 0.0
C4207 C 0.68351 0.42639 0.46628 0.0
C4208 C 0.68486 0.43788 0.48357 0.0
C4209 C 0.66787 0.52742 0.53486 0.0
C4210 C 0.6496 0.51759 0.53177 0.0
C4211 C 0.68075 0.51732 0.53479 0.0
C4212 C 0.67557 0.49725 0.53167 0.0
C4213 C 0.65738 0.48739 0.52906 0.0
C4214 C 0.64449 0.49747 0.5292 0.0
C4215 C 0.68909 0.48658 0.52942 0.0
C4216 C 0.68776 0.47446 0.51242 0.0
C4217 C 0.70396 0.48956 0.54311 0.0
C4218 C 0.70546 0.50121 0.56178 0.0
C4219 C 0.69152 0.49727 0.57248 0.0
C4220 C 0.69312 0.50809 0.59017 0.0
C4221 C 0.70862 0.52282 0.59735 0.0
C4222 C 0.72257 0.52676 0.58686 0.0
C4223 C 0.72105 0.516 0.56916 0.0
H4224 H 0.70983 0.53116 0.61105 0.0
H4225 H 0.69574 0.42201 0.44172 0.0
H4226 H 0.23282 0.12736 0.47871 0.0
H4227 H 0.20429 0.10361 0.47934 0.0
H4228 H 0.18809 0.14608 0.51553 0.0
H4229 H 0.21608 0.1697 0.51467 0.0
H4230 H 0.18042 0.10979 0.52614 0.0
H4231 H 0.17282 0.1383 0.47221 0.0
H4232 H 0.18055 0.14696 0.44259 0.0
H4233 H 0.17196 0.08759 0.41905 0.0
H4234 H 0.16443 0.07861 0.44866 0.0
H4235 H 0.08776 0.06878 0.52197 0.0
H4236 H 0.11718 0.09009 0.52165 0.0
H4237 H 0.12276 0.05348 0.47221 0.0
H4238 H 0.09234 0.03372 0.47119 0.0
H4239 H 0.13735 0.08563 0.46836 0.0
H4240 H 0.14353 0.05626 0.52179 0.0
H4241 H 0.13603 0.04753 0.55149 0.0
H4242 H 0.14814 0.10702 0.57625 0.0
H4243 H 0.1555 0.1161 0.54666 0.0
C4244 C 0.22323 0.1315 0.48695 0.0
C4245 C 0.22665 0.15042 0.49653 0.0
C4246 C 0.20694 0.11797 0.48726 0.0
C4247 C 0.19401 0.12311 0.49744 0.0
C4248 C 0.19781 0.14176 0.5076 0.0
C4249 C 0.21382 0.15528 0.50701 0.0
C4250 C 0.17612 0.10955 0.49697 0.0
C4251 C 0.17096 0.10445 0.51352 0.0
C4252 C 0.16387 0.10242 0.4805 0.0
C4253 C 0.16828 0.10781 0.4627 0.0
C4254 C 0.17274 0.12711 0.46077 0.0
C4255 C 0.17705 0.13207 0.44397 0.0
C4256 C 0.1768 0.11784 0.42896 0.0
C4257 C 0.17219 0.0986 0.4307 0.0
C4258 C 0.16788 0.09357 0.44748 0.0
C4259 C 0.09503 0.06561 0.51073 0.0
C4260 C 0.08748 0.04979 0.49638 0.0
C4261 C 0.11217 0.07756 0.51081 0.0
C4262 C 0.12271 0.07327 0.4972 0.0
C4263 C 0.11512 0.05731 0.48292 0.0
C4264 C 0.09768 0.0459 0.48238 0.0
C4265 C 0.14144 0.0854 0.49758 0.0
C4266 C 0.14679 0.09048 0.481 0.0
C4267 C 0.15395 0.0923 0.51405 0.0
C4268 C 0.14994 0.08684 0.53197 0.0
C4269 C 0.14455 0.06747 0.53356 0.0
C4270 C 0.14031 0.06246 0.55037 0.0
C4271 C 0.14157 0.07671 0.56573 0.0
C4272 C 0.14716 0.096 0.56434 0.0
C4273 C 0.15138 0.10108 0.54756 0.0
H4274 H 0.13824 0.0728 0.57872 0.0
H4275 H 0.18015 0.12171 0.41597 0.0
H4276 H 0.17024 0.9398 0.75297 0.0
H4277 H 0.18237 0.91171 0.74958 0.0
H4278 H 0.23262 0.94675 0.78018 0.0
H4279 H 0.22083 0.97446 0.78324 0.0
H4280 H 0.24173 0.92463 0.75573 0.0
H4281 H 0.19639 0.90548 0.79659 0.0
H4282 H 0.16522 0.89858 0.80307 0.0
H4283 H 0.14792 0.85844 0.75175 0.0
H4284 H 0.17902 0.86494 0.74512 0.0
H4285 H 0.28644 0.85455 0.7742 0.0
H4286 H 0.27096 0.87949 0.77461 0.0
H4287 H 0.22191 0.83701 0.75016 0.0
H4288 H 0.2374 0.81174 0.75068 0.0
H4289 H 0.21025 0.86137 0.76821 0.0
H4290 H 0.25197 0.8753 0.72732 0.0
H4291 H 0.28076 0.88153 0.7152 0.0
H4292 H 0.30236 0.93094 0.75831 0.0
H4293 H 0.27374 0.92486 0.77083 0.0
C4294 C 0.18387 0.94164 0.75905 0.0
C4295 C 0.19422 0.9601 0.76849 0.0
C4296 C 0.19094 0.92522 0.75724 0.0
C4297 C 0.20877 0.92622 0.76482 0.0
C4298 C 0.21898 0.94473 0.77402 0.0
C4299 C 0.21198 0.96095 0.77584 0.0
C4300 C 0.21718 0.90879 0.76322 0.0
C4301 C 0.23478 0.91098 0.75886 0.0
C4302 C 0.20845 0.89006 0.76609 0.0
C4303 C 0.18996 0.8857 0.77038 0.0
C4304 C 0.18592 0.89513 0.78676 0.0
C4305 C 0.16829 0.89127 0.79046 0.0
C4306 C 0.15461 0.87806 0.77785 0.0
C4307 C 0.15854 0.86862 0.76154 0.0
C4308 C 0.17617 0.87229 0.75786 0.0
C4309 C 0.27235 0.85028 0.76878 0.0
C4310 C 0.2636 0.83056 0.76227 0.0
C4311 C 0.2633 0.86492 0.76882 0.0
C4312 C 0.24487 0.86106 0.76187 0.0
C4313 C 0.23599 0.84124 0.75558 0.0
C4314 C 0.24504 0.82647 0.75581 0.0
C4315 C 0.23519 0.87745 0.76143 0.0
C4316 C 0.21735 0.87505 0.7653 0.0
C4317 C 0.24347 0.89586 0.75742 0.0
C4318 C 0.26078 0.89949 0.75014 0.0
C4319 C 0.26291 0.8874 0.7343 0.0
C4320 C 0.27919 0.89092 0.72735 0.0
C4321 C 0.2934 0.90659 0.73601 0.0
C4322 C 0.29135 0.91878 0.75164 0.0
C4323 C 0.2751 0.91531 0.75867 0.0
H4324 H 0.30598 0.9093 0.73059 0.0
H4325 H 0.14096 0.87514 0.7807 0.0
H4326 H 0.32966 0.96296 0.01141 0.0
H4327 H 0.35689 0.98787 0.0096 0.0
H4328 H 0.38886 0.95176 0.02665 0.0
H4329 H 0.36253 0.92817 0.02983 0.0
H4330 H 0.40501 0.98387 0.04118 0.0
H4331 H 0.37528 0.95384 0.97997 0.0
H4332 H 0.35149 0.9443 0.95312 0.0
H4333 H 0.35592 0.00344 0.95152 0.0
H4334 H 0.37963 0.01331 0.97852 0.0
H4335 H 0.47533 0.98506 0.98832 0.0
H4336 H 0.4432 0.97713 0.9902 0.0
H4337 H 0.44801 0.03643 0.01212 0.0
H4338 H 0.48024 0.0443 0.01111 0.0
H4339 H 0.41264 0.00307 0.98051 0.0
H4340 H 0.45456 0.02089 0.04137 0.0
H4341 H 0.48074 0.01446 0.05696 0.0
H4342 H 0.45281 0.95474 0.04895 0.0
H4343 H 0.42676 0.96084 0.03192 0.0
C4344 C 0.3426 0.96074 0.01524 0.0
C4345 C 0.34399 0.94359 0.02059 0.0
C4346 C 0.35807 0.97485 0.01406 0.0
C4347 C 0.37489 0.97164 0.01786 0.0
C4348 C 0.37611 0.95481 0.0239 0.0
C4349 C 0.36091 0.94115 0.02555 0.0
C4350 C 0.39151 0.98471 0.01459 0.0
C4351 C 0.40653 0.98831 0.02798 0.0
C4352 C 0.39363 0.99015 0.99722 0.0
C4353 C 0.37892 0.98431 0.98149 0.0
C4354 C 0.37099 0.9648 0.97405 0.0
C4355 C 0.35758 0.95933 0.95877 0.0
C4356 C 0.35212 0.97326 0.95069 0.0
C4357 C 0.36009 0.99267 0.95786 0.0
C4358 C 0.3735 0.99822 0.97316 0.0
C4359 C 0.46943 0.99636 0.99338 0.0
C4360 C 0.48008 0.0151 9e-05 0.0
C4361 C 0.45117 0.99191 0.99414 0.0
C4362 C 0.44349 0.00629 0.0012 0.0
C4363 C 0.45386 0.0253 0.00648 0.0
C4364 C 0.47221 0.02965 0.00627 0.0
C4365 C 0.42573 0.00079 0.00664 0.0
C4366 C 0.41077 0.99916 0.99387 0.0
C4367 C 0.42366 0.99471 0.02363 0.0
C4368 C 0.43874 0.99144 0.0353 0.0
C4369 C 0.454 0.00644 0.04286 0.0
C4370 C 0.46889 0.00279 0.05192 0.0
C4371 C 0.46847 0.98418 0.0542 0.0
C4372 C 0.45313 0.96918 0.04725 0.0
C4373 C 0.43834 0.97273 0.03775 0.0
H4374 H 0.48003 0.98137 0.06128 0.0
H4375 H 0.34177 0.969 0.93883 0.0
H4376 H 0.86653 0.54727 0.76934 0.0
H4377 H 0.84997 0.56889 0.75928 0.0
H4378 H 0.89958 0.61165 0.76021 0.0
H4379 H 0.91626 0.59014 0.7702 0.0
H4380 H 0.87363 0.62601 0.77639 0.0
H4381 H 0.87947 0.58649 0.72061 0.0
H4382 H 0.87702 0.55599 0.69982 0.0
H4383 H 0.82011 0.53985 0.69876 0.0
H4384 H 0.82224 0.57011 0.71983 0.0
H4385 H 0.83422 0.68636 0.73326 0.0
H4386 H 0.85362 0.66529 0.7364 0.0
H4387 H 0.80726 0.61744 0.73288 0.0
H4388 H 0.78783 0.63837 0.72956 0.0
H4389 H 0.8335 0.60652 0.71638 0.0
H4390 H 0.82753 0.6437 0.77401 0.0
H4391 H 0.82918 0.67353 0.79549 0.0
H4392 H 0.88555 0.6932 0.79395 0.0
H4393 H 0.88416 0.66361 0.77217 0.0
C4394 C 0.8739 0.56135 0.7676 0.0
C4395 C 0.89267 0.56702 0.77045 0.0
C4396 C 0.86444 0.5736 0.76174 0.0
C4397 C 0.87363 0.59167 0.75878 0.0
C4398 C 0.89232 0.59767 0.76233 0.0
C4399 C 0.90179 0.58538 0.76801 0.0
C4400 C 0.86372 0.60431 0.75186 0.0
C4401 C 0.86508 0.62193 0.76314 0.0
C4402 C 0.85237 0.59868 0.73472 0.0
C4403 C 0.85104 0.5805 0.72196 0.0
C4404 C 0.86644 0.57636 0.71609 0.0
C4405 C 0.86511 0.55913 0.70423 0.0
C4406 C 0.84843 0.54597 0.69801 0.0
C4407 C 0.83303 0.55005 0.70361 0.0
C4408 C 0.83429 0.56724 0.7155 0.0
C4409 C 0.8282 0.67127 0.73286 0.0
C4410 C 0.80959 0.66399 0.7315 0.0
C4411 C 0.83926 0.65928 0.73459 0.0
C4412 C 0.83183 0.63995 0.73525 0.0
C4413 C 0.81321 0.63235 0.73244 0.0
C4414 C 0.80214 0.6443 0.73057 0.0
C4415 C 0.84331 0.62817 0.74097 0.0
C4416 C 0.84222 0.6107 0.72952 0.0
C4417 C 0.85482 0.63383 0.75805 0.0
C4418 C 0.8557 0.65155 0.77128 0.0
C4419 C 0.84025 0.65446 0.77813 0.0
C4420 C 0.84114 0.67131 0.79037 0.0
C4421 C 0.85745 0.68528 0.79604 0.0
C4422 C 0.87292 0.68239 0.78951 0.0
C4423 C 0.87209 0.66558 0.77721 0.0
H4424 H 0.85811 0.69831 0.80553 0.0
H4425 H 0.84742 0.53264 0.68882 0.0
H4426 H 0.85047 0.67775 0.9819 0.0
H4427 H 0.87246 0.66011 0.98734 0.0
H4428 H 0.8369 0.62476 0.0169 0.0
H4429 H 0.81457 0.64232 0.0113 0.0
H4430 H 0.8735 0.63738 0.03465 0.0
H4431 H 0.8402 0.60556 0.9758 0.0
H4432 H 0.82598 0.60271 0.94389 0.0
H4433 H 0.87705 0.62754 0.92837 0.0
H4434 H 0.89154 0.63081 0.96027 0.0
H4435 H 0.92241 0.56503 0.02857 0.0
H4436 H 0.90014 0.58323 0.02919 0.0
H4437 H 0.92842 0.61874 0.9945 0.0
H4438 H 0.95085 0.60095 0.99409 0.0
H4439 H 0.89377 0.60442 0.98052 0.0
H4440 H 0.92717 0.63612 0.03984 0.0
H4441 H 0.94106 0.63919 0.07191 0.0
H4442 H 0.8898 0.61425 0.08693 0.0
H4443 H 0.87561 0.61075 0.05487 0.0
C4444 C 0.84724 0.66622 0.98955 0.0
C4445 C 0.83063 0.66142 0.99604 0.0
C4446 C 0.85988 0.65613 0.99266 0.0
C4447 C 0.85638 0.64102 0.00249 0.0
C4448 C 0.83995 0.63636 0.0093 0.0
C4449 C 0.82714 0.64633 0.00597 0.0
C4450 C 0.86977 0.62988 0.00498 0.0
C4451 C 0.87775 0.62989 0.02284 0.0
C4452 C 0.87558 0.62037 0.98962 0.0
C4453 C 0.86692 0.61861 0.97047 0.0
C4454 C 0.84837 0.6106 0.96562 0.0
C4455 C 0.84027 0.60887 0.94753 0.0
C4456 C 0.8506 0.61499 0.93412 0.0
C4457 C 0.86906 0.62283 0.93878 0.0
C4458 C 0.87723 0.62462 0.95686 0.0
C4459 C 0.92414 0.57696 0.02137 0.0
C4460 C 0.93842 0.58126 0.01106 0.0
C4461 C 0.91132 0.58738 0.02174 0.0
C4462 C 0.91247 0.60239 0.01183 0.0
C4463 C 0.92707 0.60715 0.00213 0.0
C4464 C 0.93988 0.59683 0.00181 0.0
C4465 C 0.89786 0.61214 0.0102 0.0
C4466 C 0.88956 0.61182 0.99241 0.0
C4467 C 0.89178 0.62126 0.02567 0.0
C4468 C 0.90036 0.62292 0.04486 0.0
C4469 C 0.91888 0.63104 0.04991 0.0
C4470 C 0.9268 0.63293 0.06811 0.0
C4471 C 0.91633 0.62685 0.08144 0.0
C4472 C 0.8979 0.6189 0.07659 0.0
C4473 C 0.88991 0.61697 0.0584 0.0
H4474 H 0.92248 0.62836 0.09553 0.0
H4475 H 0.84431 0.61361 0.92011 0.0
H4476 H 0.20853 0.05976 0.75724 0.0
H4477 H 0.22708 0.09179 0.75507 0.0
H4478 H 0.19008 0.11766 0.78153 0.0
H4479 H 0.17166 0.08616 0.78336 0.0
H4480 H 0.19806 0.13599 0.75602 0.0
H4481 H 0.23575 0.11919 0.80248 0.0
H4482 H 0.25302 0.09897 0.81488 0.0
H4483 H 0.28533 0.10445 0.77129 0.0
H4484 H 0.26811 0.12454 0.75852 0.0
H4485 H 0.25166 0.23504 0.77296 0.0
H4486 H 0.23344 0.20279 0.77443 0.0
H4487 H 0.273 0.17848 0.75129 0.0
H4488 H 0.29131 0.21054 0.75057 0.0
H4489 H 0.26361 0.15897 0.77446 0.0
H4490 H 0.22629 0.17588 0.72792 0.0
H4491 H 0.20877 0.19558 0.71495 0.0
H4492 H 0.17553 0.18942 0.75772 0.0
H4493 H 0.19299 0.16985 0.77106 0.0
C4494 C 0.20451 0.07226 0.76292 0.0
C4495 C 0.18841 0.06992 0.7706 0.0
C4496 C 0.21519 0.09082 0.76163 0.0
C4497 C 0.21032 0.10779 0.76817 0.0
C4498 C 0.19444 0.10529 0.77614 0.0
C4499 C 0.18384 0.08695 0.77731 0.0
C4500 C 0.2212 0.12805 0.76665 0.0
C4501 C 0.21239 0.14094 0.76029 0.0
C4502 C 0.24007 0.13507 0.77169 0.0
C4503 C 0.25055 0.12321 0.77946 0.0
C4504 C 0.24648 0.116 0.7955 0.0
C4505 C 0.25626 0.10457 0.8026 0.0
C4506 C 0.27023 0.10038 0.79385 0.0
C4507 C 0.27449 0.10768 0.77803 0.0
C4508 C 0.26474 0.11911 0.77087 0.0
C4509 C 0.2563 0.22283 0.76779 0.0
C4510 C 0.273 0.22574 0.7613 0.0
C4511 C 0.24578 0.20411 0.76865 0.0
C4512 C 0.25136 0.18744 0.76274 0.0
C4513 C 0.26799 0.19055 0.7561 0.0
C4514 C 0.27854 0.20915 0.75553 0.0
C4515 C 0.24049 0.16699 0.76379 0.0
C4516 C 0.24929 0.15405 0.77011 0.0
C4517 C 0.22161 0.1599 0.75862 0.0
C4518 C 0.21106 0.17158 0.75059 0.0
C4519 C 0.21531 0.17883 0.73462 0.0
C4520 C 0.20538 0.18995 0.72719 0.0
C4521 C 0.19108 0.19379 0.73554 0.0
C4522 C 0.18663 0.18646 0.75129 0.0
C4523 C 0.19653 0.17534 0.75878 0.0
H4524 H 0.18341 0.20242 0.72977 0.0
H4525 H 0.27778 0.09152 0.79936 0.0
H4526 H 0.37682 0.00202 0.2582 0.0
H4527 H 0.35118 0.97414 0.25594 0.0
H4528 H 0.38498 0.93688 0.24355 0.0
H4529 H 0.40992 0.96426 0.24437 0.0
H4530 H 0.35601 0.91897 0.22859 0.0
H4531 H 0.37804 0.95458 0.28869 0.0
H4532 H 0.38669 0.9818 0.31493 0.0
H4533 H 0.33206 0.9835 0.31293 0.0
H4534 H 0.32313 0.95647 0.28641 0.0
H4535 H 0.32892 0.85228 0.29029 0.0
H4536 H 0.34191 0.88542 0.28687 0.0
H4537 H 0.29793 0.88033 0.24471 0.0
H4538 H 0.2854 0.84685 0.24735 0.0
H4539 H 0.32691 0.92018 0.28526 0.0
H4540 H 0.31566 0.87319 0.21986 0.0
H4541 H 0.31982 0.84159 0.20799 0.0
H4542 H 0.37392 0.85988 0.23548 0.0
H4543 H 0.3696 0.89104 0.24873 0.0
C4544 C 0.37853 0.98782 0.25434 0.0
C4545 C 0.39543 0.98524 0.25197 0.0
C4546 C 0.36394 0.97195 0.25321 0.0
C4547 C 0.36628 0.95346 0.25019 0.0
C4548 C 0.38276 0.95097 0.24599 0.0
C4549 C 0.39713 0.96671 0.24659 0.0
C4550 C 0.35251 0.93681 0.25329 0.0
C4551 C 0.34937 0.91949 0.24079 0.0
C4552 C 0.34461 0.93708 0.26978 0.0
C4553 C 0.34997 0.95377 0.2853 0.0
C4554 C 0.36791 0.96094 0.29366 0.0
C4555 C 0.37286 0.97629 0.30862 0.0
C4556 C 0.35994 0.98444 0.31553 0.0
C4557 C 0.34206 0.97724 0.30749 0.0
C4558 C 0.33705 0.96193 0.29246 0.0
C4559 C 0.32194 0.8584 0.28052 0.0
C4560 C 0.30646 0.84717 0.26879 0.0
C4561 C 0.32924 0.87727 0.27872 0.0
C4562 C 0.32084 0.88504 0.26547 0.0
C4563 C 0.30455 0.87434 0.25489 0.0
C4564 C 0.29753 0.85531 0.25629 0.0
C4565 C 0.33057 0.90291 0.2605 0.0
C4566 C 0.33294 0.92021 0.27267 0.0
C4567 C 0.33951 0.90241 0.24487 0.0
C4568 C 0.34224 0.88431 0.23539 0.0
C4569 C 0.32838 0.87042 0.22344 0.0
C4570 C 0.33078 0.85257 0.21649 0.0
C4571 C 0.34719 0.8488 0.2208 0.0
C4572 C 0.36123 0.86283 0.23213 0.0
C4573 C 0.35876 0.88049 0.2395 0.0
H4574 H 0.34907 0.83502 0.21551 0.0
H4575 H 0.36378 0.99628 0.32716 0.0
H4576 H 0.58146 0.34347 0.55871 0.0
H4577 H 0.57447 0.36973 0.54601 0.0
H4578 H 0.5533 0.38705 0.59553 0.0
H4579 H 0.55966 0.35999 0.60811 0.0
H4580 H 0.53325 0.3914 0.56641 0.0
H4581 H 0.59716 0.40999 0.58612 0.0
H4582 H 0.62762 0.40605 0.58706 0.0
H4583 H 0.62422 0.40301 0.52839 0.0
H4584 H 0.59366 0.40668 0.52707 0.0
H4585 H 0.53396 0.48412 0.54895 0.0
H4586 H 0.53798 0.45632 0.56145 0.0
H4587 H 0.56479 0.441 0.51544 0.0
H4588 H 0.56177 0.46967 0.50372 0.0
H4589 H 0.58174 0.43552 0.54325 0.0
H4590 H 0.51874 0.41626 0.5222 0.0
H4591 H 0.48793 0.41928 0.51961 0.0
H4592 H 0.48875 0.42213 0.57806 0.0
H4593 H 0.51964 0.41934 0.58103 0.0
C4594 C 0.57529 0.35281 0.56697 0.0
C4595 C 0.57136 0.3497 0.58459 0.0
C4596 C 0.57137 0.36797 0.55968 0.0
C4597 C 0.56382 0.38088 0.56995 0.0
C4598 C 0.55928 0.37747 0.58733 0.0
C4599 C 0.56295 0.362 0.59455 0.0
C4600 C 0.56093 0.39795 0.56256 0.0
C4601 C 0.54393 0.4012 0.56158 0.0
C4602 C 0.57464 0.41053 0.55564 0.0
C4603 C 0.59307 0.40847 0.55649 0.0
C4604 C 0.60287 0.40838 0.57341 0.0
C4605 C 0.62016 0.4062 0.57401 0.0
C4606 C 0.62784 0.40424 0.55779 0.0
C4607 C 0.61826 0.40451 0.54094 0.0
C4608 C 0.60096 0.40666 0.54026 0.0
C4609 C 0.54063 0.4747 0.5415 0.0
C4610 C 0.54746 0.4789 0.52533 0.0
C4611 C 0.5428 0.45867 0.54856 0.0
C4612 C 0.55135 0.44606 0.53927 0.0
C4613 C 0.5581 0.45032 0.52297 0.0
C4614 C 0.55632 0.46666 0.51618 0.0
C4615 C 0.55398 0.42898 0.54691 0.0
C4616 C 0.57099 0.42575 0.548 0.0
C4617 C 0.5402 0.41627 0.55364 0.0
C4618 C 0.52156 0.41777 0.55186 0.0
C4619 C 0.51238 0.41764 0.53451 0.0
C4620 C 0.4949 0.4193 0.53298 0.0
C4621 C 0.48641 0.42095 0.54867 0.0
C4622 C 0.49535 0.42087 0.56592 0.0
C4623 C 0.51284 0.41923 0.56754 0.0
H4624 H 0.47288 0.42225 0.54745 0.0
H4625 H 0.64122 0.40256 0.55829 0.0
H4626 H 0.46938 0.76997 0.35585 0.0
H4627 H 0.44493 0.77655 0.33665 0.0
H4628 H 0.40734 0.74991 0.37006 0.0
H4629 H 0.43125 0.7428 0.38858 0.0
H4630 H 0.39159 0.7404 0.33758 0.0
H4631 H 0.42462 0.8005 0.37414 0.0
H4632 H 0.45075 0.82792 0.38715 0.0
H4633 H 0.45689 0.83976 0.33282 0.0
H4634 H 0.43094 0.81223 0.31945 0.0
H4635 H 0.31985 0.77776 0.30716 0.0
H4636 H 0.34453 0.77294 0.32741 0.0
H4637 H 0.38074 0.79145 0.28937 0.0
H4638 H 0.35619 0.7964 0.26933 0.0
H4639 H 0.39675 0.80564 0.32483 0.0
H4640 H 0.3616 0.74329 0.28966 0.0
H4641 H 0.33359 0.71741 0.27967 0.0
H4642 H 0.32965 0.71177 0.33607 0.0
H4643 H 0.35753 0.73778 0.34641 0.0
C4644 C 0.45586 0.76521 0.35885 0.0
C4645 C 0.45244 0.75585 0.37385 0.0
C4646 C 0.44185 0.7692 0.348 0.0
C4647 C 0.42412 0.76407 0.35198 0.0
C4648 C 0.42073 0.75412 0.36654 0.0
C4649 C 0.43458 0.75008 0.37723 0.0
C4650 C 0.40902 0.76904 0.34134 0.0
C4651 C 0.39277 0.75476 0.33501 0.0
C4652 C 0.41022 0.78774 0.33783 0.0
C4653 C 0.42599 0.80414 0.34576 0.0
C4654 C 0.43166 0.80883 0.36494 0.0
C4655 C 0.44641 0.82441 0.37239 0.0
C4656 C 0.45552 0.83553 0.36081 0.0
C4657 C 0.44986 0.8311 0.34177 0.0
C4658 C 0.43513 0.81551 0.33424 0.0
C4659 C 0.33316 0.78131 0.30342 0.0
C4660 C 0.33611 0.78773 0.28676 0.0
C4661 C 0.34726 0.77829 0.31487 0.0
C4662 C 0.36461 0.78163 0.3099 0.0
C4663 C 0.36759 0.78873 0.2936 0.0
C4664 C 0.35351 0.79155 0.28212 0.0
C4665 C 0.37954 0.77698 0.32104 0.0
C4666 C 0.39569 0.79131 0.32744 0.0
C4667 C 0.3781 0.75847 0.32507 0.0
C4668 C 0.36156 0.74258 0.31881 0.0
C4669 C 0.35471 0.73658 0.29993 0.0
C4670 C 0.33887 0.72189 0.2942 0.0
C4671 C 0.32982 0.71299 0.30723 0.0
C4672 C 0.33665 0.7187 0.326 0.0
C4673 C 0.35248 0.7334 0.33179 0.0
H4674 H 0.31754 0.70164 0.30277 0.0
H4675 H 0.46692 0.84761 0.36661 0.0
H4676 H 0.07194 0.75186 0.0482 0.0
H4677 H 0.064 0.71734 0.03621 0.0
H4678 H 0.04527 0.70636 0.08737 0.0
H4679 H 0.05279 0.74086 0.09932 0.0
H4680 H 0.07259 0.68883 0.07664 0.0
H4681 H 0.01571 0.69405 0.05274 0.0
H4682 H 0.99396 0.70649 0.03561 0.0
H4683 H 0.01373 0.69056 0.98508 0.0
H4684 H 0.03581 0.67828 0.00196 0.0
H4685 H 0.04244 0.58753 0.05152 0.0
H4686 H 0.04439 0.62144 0.06192 0.0
H4687 H 0.057 0.63301 0.00865 0.0
H4688 H 0.05488 0.59889 -0.00177 0.0
H4689 H 0.03164 0.65008 0.0207 0.0
H4690 H 0.08941 0.64601 0.0452 0.0
H4691 H 0.11058 0.633 0.06253 0.0
H4692 H 0.0887 0.64673 0.11225 0.0
H4693 H 0.06722 0.6596 0.09515 0.0
C4694 C 0.06576 0.7421 0.05674 0.0
C4695 C 0.06309 0.74907 0.07475 0.0
C4696 C 0.06118 0.7224 0.04985 0.0
C4697 C 0.05411 0.70934 0.06094 0.0
C4698 C 0.0507 0.71625 0.07861 0.0
C4699 C 0.05495 0.73596 0.08538 0.0
C4700 C 0.05216 0.68865 0.05485 0.0
C4701 C 0.06342 0.68026 0.06458 0.0
C4702 C 0.04055 0.67769 0.03884 0.0
C4703 C 0.02759 0.68547 0.02868 0.0
C4704 C 0.0156 0.69344 0.03802 0.0
C4705 C 0.00316 0.7004 0.02834 0.0
C4706 C 0.00251 0.69938 0.00928 0.0
C4707 C 0.01428 0.69138 -0.00014 0.0
C4708 C 0.02676 0.68441 0.00947 0.0
C4709 C 0.04583 0.59743 0.04217 0.0
C4710 C 0.04879 0.5909 0.02424 0.0
C4711 C 0.04692 0.61673 0.04807 0.0
C4712 C 0.051 0.62979 0.03611 0.0
C4713 C 0.05388 0.62318 0.0181 0.0
C4714 C 0.05282 0.60382 0.01221 0.0
C4715 C 0.05213 0.65029 0.04246 0.0
C4716 C 0.04078 0.65866 0.03277 0.0
C4717 C 0.06366 0.66129 0.05853 0.0
C4718 C 0.07659 0.65359 0.06885 0.0
C4719 C 0.08901 0.64612 0.0598 0.0
C4720 C 0.10109 0.6388 0.06959 0.0
C4721 C 0.10096 0.63899 0.08847 0.0
C4722 C 0.08877 0.64656 0.09762 0.0
C4723 C 0.07666 0.65389 0.08789 0.0
H4724 H 0.11032 0.63332 0.09602 0.0
H4725 H 0.99284 0.70474 0.0018 0.0
H4726 H 0.06364 0.30934 0.87841 0.0
H4727 H 0.09132 0.31091 0.86519 0.0
H4728 H 0.08155 0.2498 0.85995 0.0
H4729 H 0.05367 0.24807 0.87315 0.0
H4730 H 0.11784 0.27097 0.87451 0.0
H4731 H 0.07322 0.26738 0.82264 0.0
H4732 H 0.04947 0.27804 0.80657 0.0
H4733 H 0.0857 0.33379 0.81085 0.0
H4734 H 0.10961 0.32352 0.82716 0.0
H4735 H 0.1787 0.25481 0.81226 0.0
H4736 H 0.15352 0.25499 0.82934 0.0
H4737 H 0.15776 0.31333 0.82331 0.0
H4738 H 0.1828 0.3131 0.80596 0.0
H4739 H 0.12477 0.29469 0.81577 0.0
H4740 H 0.1696 0.30038 0.86561 0.0
H4741 H 0.19446 0.2927 0.88311 0.0
H4742 H 0.16013 0.23759 0.88547 0.0
H4743 H 0.13511 0.2448 0.86767 0.0
C4744 C 0.06729 0.29618 0.8744 0.0
C4745 C 0.05627 0.27854 0.87674 0.0
C4746 C 0.08318 0.29712 0.86685 0.0
C4747 C 0.08856 0.28047 0.86148 0.0
C4748 C 0.07773 0.26285 0.86399 0.0
C4749 C 0.0617 0.26187 0.87141 0.0
C4750 C 0.10519 0.28146 0.85277 0.0
C4751 C 0.11929 0.27589 0.86153 0.0
C4752 C 0.10745 0.28864 0.83624 0.0
C4753 C 0.09314 0.29473 0.82625 0.0
C4754 C 0.07608 0.28195 0.82026 0.0
C4755 C 0.0626 0.28791 0.81109 0.0
C4756 C 0.06606 0.30659 0.80773 0.0
C4757 C 0.08303 0.31933 0.81347 0.0
C4758 C 0.09656 0.31344 0.82266 0.0
C4759 C 0.17448 0.2678 0.81481 0.0
C4760 C 0.18281 0.28392 0.80763 0.0
C4761 C 0.16003 0.2679 0.82464 0.0
C4762 C 0.15366 0.28422 0.82783 0.0
C4763 C 0.16224 0.30048 0.82102 0.0
C4764 C 0.17659 0.30033 0.81105 0.0
C4765 C 0.13753 0.284 0.83734 0.0
C4766 C 0.12347 0.28976 0.82876 0.0
C4767 C 0.13555 0.27744 0.85427 0.0
C4768 C 0.15051 0.27305 0.86511 0.0
C4769 C 0.16737 0.28655 0.86972 0.0
C4770 C 0.1815 0.2823 0.87971 0.0
C4771 C 0.17889 0.26465 0.88535 0.0
C4772 C 0.16213 0.25125 0.88106 0.0
C4773 C 0.14797 0.25541 0.87102 0.0
H4774 H 0.18984 0.26137 0.89308 0.0
H4775 H 0.0556 0.31119 0.80063 0.0
H4776 H 0.59672 0.76241 0.90362 0.0
H4777 H 0.58816 0.73151 0.91367 0.0
H4778 H 0.55813 0.75474 0.95284 0.0
H4779 H 0.56751 0.78557 0.94389 0.0
H4780 H 0.5725 0.73395 0.96793 0.0
H4781 H 0.53892 0.72559 0.90833 0.0
H4782 H 0.53367 0.72536 0.87491 0.0
H4783 H 0.56247 0.68319 0.86434 0.0
H4784 H 0.56813 0.68336 0.89774 0.0
H4785 H 0.52229 0.64989 0.98846 0.0
H4786 H 0.52561 0.67563 0.9707 0.0
H4787 H 0.56682 0.65685 0.9448 0.0
H4788 H 0.56322 0.63072 0.9621 0.0
H4789 H 0.54553 0.67414 0.92181 0.0
H4790 H 0.57905 0.68598 0.98455 0.0
H4791 H 0.57992 0.68588 0.01794 0.0
H4792 H 0.54508 0.72262 0.02175 0.0
H4793 H 0.5438 0.72267 0.98833 0.0
C4794 C 0.58874 0.76102 0.91475 0.0
C4795 C 0.58274 0.77642 0.92288 0.0
C4796 C 0.58358 0.74327 0.92024 0.0
C4797 C 0.57208 0.74064 0.93366 0.0
C4798 C 0.56693 0.75632 0.94241 0.0
C4799 C 0.57236 0.77403 0.93726 0.0
C4800 C 0.56531 0.72172 0.93886 0.0
C4801 C 0.56641 0.721 0.95775 0.0
C4802 C 0.55737 0.70468 0.92566 0.0
C4803 C 0.55415 0.70468 0.90557 0.0
C4804 C 0.54429 0.71641 0.8989 0.0
C4805 C 0.54121 0.71626 0.87995 0.0
C4806 C 0.54778 0.70432 0.86751 0.0
C4807 C 0.55743 0.69247 0.87399 0.0
C4808 C 0.56057 0.69258 0.89293 0.0
C4809 C 0.5316 0.65081 0.9785 0.0
C4810 C 0.54285 0.63865 0.97699 0.0
C4811 C 0.53346 0.6655 0.96836 0.0
C4812 C 0.54668 0.66827 0.95675 0.0
C4813 C 0.55661 0.65496 0.95378 0.0
C4814 C 0.55472 0.64024 0.96386 0.0
C4815 C 0.55259 0.68675 0.95069 0.0
C4816 C 0.5515 0.68728 0.93179 0.0
C4817 C 0.56 0.70383 0.96381 0.0
C4818 C 0.56125 0.70422 0.98397 0.0
C4819 C 0.57154 0.69398 0.99252 0.0
C4820 C 0.5721 0.69392 0.01144 0.0
C4821 C 0.56255 0.70422 0.02196 0.0
C4822 C 0.55246 0.71464 0.01359 0.0
C4823 C 0.55183 0.7147 0.99467 0.0
H4824 H 0.56298 0.70415 0.0366 0.0
H4825 H 0.54537 0.70421 0.85285 0.0
H4826 H 0.04589 0.76887 0.65836 0.0
H4827 H 0.07765 0.77506 0.66947 0.0
H4828 H 0.06481 0.75668 0.72023 0.0
H4829 H 0.03292 0.75001 0.70909 0.0
H4830 H 0.09661 0.79026 0.72295 0.0
H4831 H 0.06891 0.72471 0.69133 0.0
H4832 H 0.05159 0.69942 0.66538 0.0
H4833 H 0.089 0.72047 0.62965 0.0
H4834 H 0.10637 0.74614 0.65534 0.0
H4835 H 0.16712 0.75541 0.75638 0.0
H4836 H 0.13842 0.76035 0.7456 0.0
H4837 H 0.15512 0.76631 0.69245 0.0
H4838 H 0.1836 0.76062 0.70291 0.0
H4839 H 0.12256 0.74233 0.68916 0.0
H4840 H 0.15319 0.80473 0.72274 0.0
H4841 H 0.17115 0.82833 0.74957 0.0
H4842 H 0.12891 0.8132 0.78202 0.0
H4843 H 0.11089 0.78905 0.75556 0.0
C4844 C 0.04982 0.76666 0.67211 0.0
C4845 C 0.03698 0.75879 0.68283 0.0
C4846 C 0.06793 0.77016 0.67837 0.0
C4847 C 0.07338 0.76614 0.69552 0.0
C4848 C 0.06071 0.75985 0.70694 0.0
C4849 C 0.04256 0.75601 0.70055 0.0
C4850 C 0.092 0.76626 0.7006 0.0
C4851 C 0.10237 0.7798 0.71568 0.0
C4852 C 0.09938 0.75278 0.69072 0.0
C4853 C 0.08875 0.73758 0.67517 0.0
C4854 C 0.07329 0.72414 0.67787 0.0
C4855 C 0.0635 0.70969 0.66323 0.0
C4856 C 0.06913 0.7084 0.64585 0.0
C4857 C 0.0846 0.72154 0.6431 0.0
C4858 C 0.09441 0.73605 0.65769 0.0
C4859 C 0.16461 0.75764 0.74237 0.0
C4860 C 0.17751 0.75758 0.73045 0.0
C4861 C 0.14835 0.76072 0.73632 0.0
C4862 C 0.14484 0.76398 0.71835 0.0
C4863 C 0.1577 0.76396 0.70642 0.0
C4864 C 0.17395 0.76081 0.71244 0.0
C4865 C 0.1273 0.76627 0.71169 0.0
C4866 C 0.11704 0.7531 0.6963 0.0
C4867 C 0.12007 0.78009 0.72132 0.0
C4868 C 0.13073 0.79492 0.73717 0.0
C4869 C 0.14777 0.8063 0.73564 0.0
C4870 C 0.15798 0.81976 0.7508 0.0
C4871 C 0.1512 0.82221 0.76751 0.0
C4872 C 0.13416 0.81124 0.76908 0.0
C4873 C 0.12395 0.79764 0.754 0.0
H4874 H 0.15912 0.83268 0.77922 0.0
H4875 H 0.06155 0.69718 0.63454 0.0
H4876 H 0.10306 0.37468 0.44787 0.0
H4877 H 0.0962 0.4047 0.45908 0.0
H4878 H 0.07879 0.40863 0.40309 0.0
H4879 H 0.08642 0.37896 0.39181 0.0
H4880 H 0.09119 0.4449 0.42688 0.0
H4881 H 0.04847 0.38463 0.42319 0.0
H4882 H 0.03775 0.35118 0.42735 0.0
H4883 H 0.05123 0.36936 0.48617 0.0
H4884 H 0.06222 0.4029 0.48234 0.0
H4885 H 0.02373 0.4887 0.46634 0.0
H4886 H 0.03354 0.46402 0.44687 0.0
H4887 H 0.0736 0.46549 0.49181 0.0
H4888 H 0.06461 0.4907 0.51089 0.0
H4889 H 0.04568 0.42611 0.4679 0.0
H4890 H 0.09254 0.48663 0.4689 0.0
H4891 H 0.10106 0.51972 0.46334 0.0
H4892 H 0.07621 0.50005 0.40689 0.0
H4893 H 0.06723 0.46684 0.41227 0.0
C4894 C 0.09892 0.38264 0.43793 0.0
C4895 C 0.09535 0.37471 0.41905 0.0
C4896 C 0.09477 0.39963 0.44432 0.0
C4897 C 0.08651 0.40848 0.43191 0.0
C4898 C 0.0851 0.40193 0.41285 0.0
C4899 C 0.08962 0.3851 0.40643 0.0
C4900 C 0.07654 0.42199 0.43903 0.0
C4901 C 0.08109 0.44074 0.43564 0.0
C4902 C 0.063 0.41639 0.45005 0.0
C4903 C 0.05629 0.39625 0.45246 0.0
C4904 C 0.04925 0.38147 0.437 0.0
C4905 C 0.0431 0.3625 0.4393 0.0
C4906 C 0.04383 0.35815 0.45701 0.0
C4907 C 0.05067 0.37276 0.47246 0.0
C4908 C 0.05684 0.39175 0.47023 0.0
C4909 C 0.03468 0.48378 0.47196 0.0
C4910 C 0.04372 0.49183 0.4899 0.0
C4911 C 0.0402 0.46974 0.46089 0.0
C4912 C 0.05443 0.46333 0.46794 0.0
C4913 C 0.06272 0.47053 0.48618 0.0
C4914 C 0.05754 0.48484 0.49704 0.0
C4915 C 0.06097 0.44912 0.45647 0.0
C4916 C 0.05561 0.43015 0.45891 0.0
C4917 C 0.07343 0.45445 0.44435 0.0
C4918 C 0.07901 0.47433 0.44106 0.0
C4919 C 0.08871 0.4894 0.45537 0.0
C4920 C 0.09364 0.50818 0.45225 0.0
C4921 C 0.0891 0.51202 0.4348 0.0
C4922 C 0.07967 0.49707 0.42042 0.0
C4923 C 0.07464 0.47827 0.4235 0.0
H4924 H 0.09296 0.52657 0.43241 0.0
H4925 H 0.03907 0.34345 0.45876 0.0
H4926 H 0.46567 0.25735 0.19838 0.0
H4927 H 0.44219 0.26518 0.21496 0.0
H4928 H 0.40718 0.25371 0.16322 0.0
H4929 H 0.43113 0.24664 0.1465 0.0
H4930 H 0.40128 0.28202 0.18688 0.0
H4931 H 0.40704 0.21891 0.18829 0.0
H4932 H 0.42161 0.19389 0.19404 0.0
H4933 H 0.4334 0.21848 0.2519 0.0
H4934 H 0.4192 0.24387 0.24645 0.0
H4935 H 0.3197 0.24001 0.22428 0.0
H4936 H 0.3467 0.23804 0.21067 0.0
H4937 H 0.3778 0.28737 0.25072 0.0
H4938 H 0.35079 0.28992 0.26394 0.0
H4939 H 0.38541 0.24094 0.23337 0.0
H4940 H 0.38257 0.30818 0.22762 0.0
H4941 H 0.3641 0.32932 0.21986 0.0
H4942 H 0.34323 0.29212 0.16737 0.0
H4943 H 0.36116 0.27044 0.17509 0.0
C4944 C 0.45308 0.257 0.19059 0.0
C4945 C 0.4499 0.25127 0.17134 0.0
C4946 C 0.43972 0.26138 0.20002 0.0
C4947 C 0.42288 0.25947 0.19031 0.0
C4948 C 0.42011 0.2551 0.1709 0.0
C4949 C 0.43368 0.25107 0.16139 0.0
C4950 C 0.40781 0.26027 0.20052 0.0
C4951 C 0.39787 0.27307 0.19707 0.0
C4952 C 0.40327 0.24842 0.21369 0.0
C4953 C 0.41227 0.23345 0.21691 0.0
C4954 C 0.41296 0.21914 0.2022 0.0
C4955 C 0.42112 0.20487 0.20542 0.0
C4956 C 0.42847 0.20463 0.22331 0.0
C4957 C 0.42773 0.2187 0.23803 0.0
C4958 C 0.41964 0.23305 0.23489 0.0
C4959 C 0.33238 0.25017 0.23037 0.0
C4960 C 0.33332 0.26523 0.24494 0.0
C4961 C 0.34766 0.24911 0.22255 0.0
C4962 C 0.3639 0.2629 0.2295 0.0
C4963 C 0.36516 0.27697 0.24501 0.0
C4964 C 0.34984 0.2783 0.25257 0.0
C4965 C 0.37942 0.26297 0.22004 0.0
C4966 C 0.3892 0.25013 0.22346 0.0
C4967 C 0.38364 0.27453 0.20672 0.0
C4968 C 0.37293 0.28755 0.20207 0.0
C4969 C 0.37382 0.30436 0.21456 0.0
C4970 C 0.36346 0.31644 0.21015 0.0
C4971 C 0.35237 0.31197 0.19318 0.0
C4972 C 0.35168 0.29545 0.18057 0.0
C4973 C 0.3619 0.28325 0.18496 0.0
H4974 H 0.3444 0.32136 0.18976 0.0
H4975 H 0.43471 0.19352 0.22578 0.0
H4976 H 0.65185 0.50973 0.33582 0.0
H4977 H 0.64003 0.51127 0.36558 0.0
H4978 H 0.58792 0.50679 0.33723 0.0
H4979 H 0.59983 0.50606 0.30805 0.0
H4980 H 0.58897 0.52937 0.36465 0.0
H4981 H 0.60337 0.47018 0.36259 0.0
H4982 H 0.62185 0.44751 0.36022 0.0
H4983 H 0.6572 0.48115 0.40866 0.0
H4984 H 0.63903 0.50417 0.41118 0.0
H4985 H 0.53698 0.50951 0.43708 0.0
H4986 H 0.55253 0.50775 0.41027 0.0
H4987 H 0.60305 0.52776 0.44577 0.0
H4988 H 0.5872 0.52973 0.47321 0.0
H4989 H 0.60453 0.49858 0.41642 0.0
H4990 H 0.58982 0.55959 0.41408 0.0
H4991 H 0.5703 0.58112 0.41359 0.0
H4992 H 0.5322 0.5393 0.37195 0.0
H4993 H 0.55198 0.51789 0.37154 0.0
C4994 C 0.63777 0.50857 0.3358 0.0
C4995 C 0.62695 0.50743 0.31892 0.0
C4996 C 0.63084 0.50952 0.35313 0.0
C4997 C 0.61267 0.50912 0.35449 0.0
C4998 C 0.60192 0.5074 0.33745 0.0
C4999 C 0.60884 0.50673 0.32036 0.0
C5000 C 0.60478 0.51127 0.37315 0.0
C5001 C 0.5924 0.52225 0.37567 0.0
C5002 C 0.6089 0.50264 0.38848 0.0
C5003 C 0.61998 0.48903 0.38693 0.0
C5004 C 0.61518 0.47284 0.37264 0.0
C5005 C 0.62557 0.45991 0.37129 0.0
C5006 C 0.64073 0.46292 0.38424 0.0
C5007 C 0.64549 0.47886 0.3986 0.0
C5008 C 0.63514 0.49185 0.4 0.0
C5009 C 0.55145 0.51373 0.4395 0.0
C5010 C 0.56049 0.51988 0.4579 0.0
C5011 C 0.56049 0.51279 0.42378 0.0
C5012 C 0.57932 0.5178 0.42524 0.0
C5013 C 0.58859 0.52378 0.44365 0.0
C5014 C 0.57942 0.525 0.45959 0.0
C5015 C 0.58876 0.5165 0.40761 0.0
C5016 C 0.60129 0.50566 0.40529 0.0
C5017 C 0.58447 0.52479 0.39217 0.0
C5018 C 0.5722 0.5371 0.39299 0.0
C5019 C 0.57719 0.55494 0.40496 0.0
C5020 C 0.56611 0.56715 0.40479 0.0
C5021 C 0.54984 0.56147 0.39302 0.0
C5022 C 0.54474 0.54365 0.38115 0.0
C5023 C 0.55596 0.53155 0.38098 0.0
H5024 H 0.54127 0.57094 0.39298 0.0
H5025 H 0.64875 0.45288 0.38319 0.0
H5026 H 0.29521 0.86229 0.02974 0.0
H5027 H 0.31056 0.85252 0.05503 0.0
H5028 H 0.28613 0.88437 0.09396 0.0
H5029 H 0.27237 0.89592 0.06855 0.0
H5030 H 0.31911 0.89281 0.10608 0.0
H5031 H 0.27555 0.8313 0.0809 0.0
H5032 H 0.26002 0.80374 0.05616 0.0
H5033 H 0.31013 0.7924 0.04746 0.0
H5034 H 0.32595 0.82002 0.07202 0.0
H5035 H 0.30798 0.84423 0.17709 0.0
H5036 H 0.31401 0.8643 0.1543 0.0
H5037 H 0.34881 0.83187 0.13244 0.0
H5038 H 0.34238 0.81126 0.15541 0.0
H5039 H 0.32073 0.82641 0.10899 0.0
H5040 H 0.3619 0.88282 0.1423 0.0
H5041 H 0.37586 0.90914 0.16866 0.0
H5042 H 0.32906 0.92945 0.1647 0.0
H5043 H 0.31467 0.90314 0.1385 0.0
C5044 C 0.29243 0.86645 0.04361 0.0
C5045 C 0.28236 0.87957 0.04722 0.0
C5046 C 0.30139 0.861 0.05815 0.0
C5047 C 0.29953 0.86762 0.07652 0.0
C5048 C 0.28795 0.87921 0.07995 0.0
C5049 C 0.27963 0.88535 0.06542 0.0
C5050 C 0.3102 0.86326 0.09217 0.0
C5051 C 0.31933 0.87827 0.10687 0.0
C5052 C 0.31148 0.84451 0.09272 0.0
C5053 C 0.30192 0.82781 0.07812 0.0
C5054 C 0.28324 0.82297 0.07363 0.0
C5055 C 0.2744 0.80735 0.05966 0.0
C5056 C 0.28409 0.79636 0.05021 0.0
C5057 C 0.30264 0.80093 0.05477 0.0
C5058 C 0.31155 0.81656 0.06871 0.0
C5059 C 0.31752 0.84186 0.16793 0.0
C5060 C 0.32429 0.82588 0.16753 0.0
C5061 C 0.32121 0.85358 0.15501 0.0
C5062 C 0.33171 0.84949 0.14144 0.0
C5063 C 0.34058 0.8352 0.14275 0.0
C5064 C 0.33686 0.82338 0.15578 0.0
C5065 C 0.32859 0.8557 0.12362 0.0
C5066 C 0.32097 0.84109 0.10821 0.0
C5067 C 0.32846 0.87474 0.1227 0.0
C5068 C 0.33718 0.89091 0.13833 0.0
C5069 C 0.35453 0.89284 0.14706 0.0
C5070 C 0.36253 0.90778 0.162 0.0
C5071 C 0.35336 0.92096 0.16835 0.0
C5072 C 0.33617 0.91926 0.15974 0.0
C5073 C 0.3281 0.90435 0.14479 0.0
H5074 H 0.35957 0.93249 0.17993 0.0
H5075 H 0.27722 0.78428 0.03938 0.0
H5076 H 0.93976 0.4985 0.82771 0.0
H5077 H 0.94946 0.50164 0.8607 0.0
H5078 H 0.96636 0.56308 0.86624 0.0
H5079 H 0.95618 0.56009 0.83325 0.0
H5080 H 0.99224 0.53352 0.86861 0.0
H5081 H 0.94335 0.55721 0.89144 0.0
H5082 H 0.91128 0.55342 0.89283 0.0
H5083 H 0.90704 0.50083 0.91266 0.0
H5084 H 0.93905 0.50418 0.91114 0.0
H5085 H 0.04447 0.55868 0.95536 0.0
H5086 H 0.02346 0.55946 0.92884 0.0
H5087 H 0.98728 0.50733 0.93721 0.0
H5088 H 0.0081 0.50651 0.96362 0.0
H5089 H 0.96917 0.53225 0.92864 0.0
H5090 H 0.01184 0.50358 0.90565 0.0
H5091 H 0.04151 0.49911 0.90165 0.0
H5092 H 0.05476 0.55012 0.87856 0.0
H5093 H 0.02523 0.5551 0.88276 0.0
C5094 C 0.945 0.51269 0.83613 0.0
C5095 C 0.94766 0.52908 0.82808 0.0
C5096 C 0.95029 0.51445 0.85491 0.0
C5097 C 0.95847 0.53257 0.86568 0.0
C5098 C 0.95977 0.54904 0.85801 0.0
C5099 C 0.95412 0.54731 0.83925 0.0
C5100 C 0.96964 0.53381 0.88303 0.0
C5101 C 0.9874 0.53377 0.88188 0.0
C5102 C 0.96271 0.53267 0.89979 0.0
C5103 C 0.94356 0.53087 0.90102 0.0
C5104 C 0.93555 0.54476 0.89594 0.0
C5105 C 0.91739 0.54271 0.8968 0.0
C5106 C 0.90712 0.52688 0.90279 0.0
C5107 C 0.91501 0.51309 0.90801 0.0
C5108 C 0.93317 0.51507 0.90719 0.0
C5109 C 0.03203 0.54744 0.95147 0.0
C5110 C 0.02783 0.53253 0.96134 0.0
C5111 C 0.02005 0.54794 0.93649 0.0
C5112 C 0.0039 0.53344 0.93121 0.0
C5113 C 0.99961 0.5187 0.94125 0.0
C5114 C 0.01157 0.51819 0.95617 0.0
C5115 C 0.99209 0.53292 0.9144 0.0
C5116 C 0.97418 0.53257 0.9155 0.0
C5117 C 0.99857 0.53269 0.89726 0.0
C5118 C 0.01642 0.52988 0.89478 0.0
C5119 C 0.02115 0.51398 0.89993 0.0
C5120 C 0.03793 0.51132 0.89758 0.0
C5121 C 0.05004 0.52437 0.88993 0.0
C5122 C 0.04537 0.54007 0.88455 0.0
C5123 C 0.02862 0.54282 0.88691 0.0
H5124 H 0.06302 0.52228 0.8881 0.0
H5125 H 0.89306 0.52531 0.90342 0.0
H5126 H 0.2772 0.24711 0.54642 0.0
H5127 H 0.28069 0.25723 0.57968 0.0
H5128 H 0.30928 0.21527 0.58713 0.0
H5129 H 0.30521 0.20447 0.55357 0.0
H5130 H 0.28481 0.21217 0.60819 0.0
H5131 H 0.3297 0.26527 0.59858 0.0
H5132 H 0.34379 0.29262 0.5846 0.0
H5133 H 0.30471 0.32113 0.60127 0.0
H5134 H 0.29022 0.29383 0.61514 0.0
H5135 H 0.30866 0.25029 0.7055 0.0
H5136 H 0.31001 0.24173 0.67252 0.0
H5137 H 0.268 0.26799 0.65987 0.0
H5138 H 0.26628 0.2763 0.69301 0.0
H5139 H 0.3013 0.27923 0.64241 0.0
H5140 H 0.25624 0.22372 0.65104 0.0
H5141 H 0.24447 0.19656 0.66626 0.0
H5142 H 0.28747 0.17294 0.65251 0.0
H5143 H 0.29967 0.20015 0.63745 0.0
C5144 C 0.28457 0.24023 0.55505 0.0
C5145 C 0.29081 0.22484 0.54726 0.0
C5146 C 0.28664 0.24615 0.57417 0.0
C5147 C 0.29533 0.23712 0.58603 0.0
C5148 C 0.30247 0.22244 0.57828 0.0
C5149 C 0.30025 0.21636 0.55908 0.0
C5150 C 0.29538 0.24184 0.60637 0.0
C5151 C 0.28877 0.22684 0.61569 0.0
C5152 C 0.30021 0.26099 0.61623 0.0
C5153 C 0.30878 0.2774 0.60777 0.0
C5154 C 0.32401 0.27729 0.59912 0.0
C5155 C 0.33209 0.29281 0.59125 0.0
C5156 C 0.32512 0.30859 0.59201 0.0
C5157 C 0.31008 0.30889 0.60068 0.0
C5158 C 0.30194 0.29341 0.60857 0.0
C5159 C 0.2996 0.25414 0.69571 0.0
C5160 C 0.28735 0.26398 0.70184 0.0
C5161 C 0.3004 0.24922 0.67689 0.0
C5162 C 0.28915 0.25427 0.66381 0.0
C5163 C 0.27681 0.264 0.66981 0.0
C5164 C 0.27576 0.26862 0.68869 0.0
C5165 C 0.29057 0.24962 0.64391 0.0
C5166 C 0.29747 0.26461 0.63479 0.0
C5167 C 0.28634 0.23049 0.63432 0.0
C5168 C 0.27897 0.21408 0.64329 0.0
C5169 C 0.26329 0.21284 0.65142 0.0
C5170 C 0.25651 0.19741 0.65998 0.0
C5171 C 0.26524 0.18306 0.6604 0.0
C5172 C 0.28074 0.18408 0.6522 0.0
C5173 C 0.28758 0.1995 0.64364 0.0
H5174 H 0.25998 0.17112 0.66703 0.0
H5175 H 0.3314 0.32059 0.58591 0.0
H5176 H 0.59939 0.51649 0.21916 0.0
H5177 H 0.5876 0.5182 0.18821 0.0
H5178 H 0.63001 0.49795 0.16675 0.0
H5179 H 0.6425 0.49689 0.19849 0.0
H5180 H 0.62512 0.52321 0.14748 0.0
H5181 H 0.58179 0.47022 0.16012 0.0
H5182 H 0.55996 0.45168 0.17692 0.0
H5183 H 0.52877 0.49189 0.17497 0.0
H5184 H 0.55053 0.5108 0.15835 0.0
H5185 H 0.56609 0.49567 0.05459 0.0
H5186 H 0.57921 0.49172 0.0848 0.0
H5187 H 0.57294 0.54606 0.10984 0.0
H5188 H 0.5604 0.55045 0.0795 0.0
H5189 H 0.55994 0.50163 0.12565 0.0
H5190 H 0.60717 0.55603 0.11478 0.0
H5191 H 0.62828 0.57103 0.09521 0.0
H5192 H 0.65144 0.52375 0.09161 0.0
H5193 H 0.63016 0.50827 0.11085 0.0
C5194 C 0.6063 0.51209 0.208 0.0
C5195 C 0.62205 0.50632 0.21192 0.0
C5196 C 0.5993 0.51298 0.1899 0.0
C5197 C 0.6074 0.5079 0.17437 0.0
C5198 C 0.62313 0.50194 0.17809 0.0
C5199 C 0.63026 0.5011 0.19643 0.0
C5200 C 0.59961 0.50944 0.15476 0.0
C5201 C 0.61085 0.51827 0.14288 0.0
C5202 C 0.58089 0.5032 0.14792 0.0
C5203 C 0.5679 0.49204 0.15815 0.0
C5204 C 0.57036 0.47521 0.16341 0.0
C5205 C 0.55798 0.46461 0.17288 0.0
C5206 C 0.54301 0.47063 0.17706 0.0
C5207 C 0.54038 0.48726 0.17175 0.0
C5208 C 0.55273 0.49791 0.16229 0.0
C5209 C 0.56752 0.50691 0.06645 0.0
C5210 C 0.56206 0.52348 0.06417 0.0
C5211 C 0.57513 0.5046 0.0839 0.0
C5212 C 0.5774 0.51859 0.10002 0.0
C5213 C 0.57167 0.535 0.09787 0.0
C5214 C 0.56441 0.53752 0.08033 0.0
C5215 C 0.58539 0.51589 0.11894 0.0
C5216 C 0.57418 0.50665 0.1305 0.0
C5217 C 0.60406 0.52153 0.12538 0.0
C5218 C 0.61689 0.53086 0.11397 0.0
C5219 C 0.61659 0.54871 0.10959 0.0
C5220 C 0.62862 0.55733 0.09861 0.0
C5221 C 0.64114 0.54831 0.0921 0.0
C5222 C 0.64169 0.53069 0.09661 0.0
C5223 C 0.62964 0.52198 0.10754 0.0
H5224 H 0.65046 0.55501 0.08361 0.0
H5225 H 0.53343 0.4624 0.18436 0.0
H5226 H 0.32325 0.86693 0.96913 0.0
H5227 H 0.329 0.85405 0.93845 0.0
H5228 H 0.28415 0.8699 0.91337 0.0
H5229 H 0.27843 0.88304 0.94391 0.0
H5230 H 0.28282 0.83059 0.90522 0.0
H5231 H 0.32123 0.89233 0.90576 0.0
H5232 H 0.34613 0.92166 0.91579 0.0
H5233 H 0.38387 0.88835 0.91129 0.0
H5234 H 0.35919 0.85875 0.90156 0.0
H5235 H 0.29846 0.82463 0.80922 0.0
H5236 H 0.30467 0.84205 0.84102 0.0
H5237 H 0.31294 0.79202 0.8601 0.0
H5238 H 0.30582 0.77404 0.82814 0.0
H5239 H 0.33489 0.84803 0.87185 0.0
H5240 H 0.28994 0.78485 0.87969 0.0
H5241 H 0.26275 0.75873 0.86646 0.0
H5242 H 0.23566 0.79982 0.85272 0.0
H5243 H 0.2629 0.82611 0.86542 0.0
C5244 C 0.3146 0.86764 0.95706 0.0
C5245 C 0.3001 0.87553 0.95887 0.0
C5246 C 0.31811 0.8606 0.9396 0.0
C5247 C 0.30707 0.8612 0.92378 0.0
C5248 C 0.29288 0.8695 0.92551 0.0
C5249 C 0.28951 0.87678 0.94292 0.0
C5250 C 0.30847 0.85053 0.90573 0.0
C5251 C 0.29431 0.83437 0.89804 0.0
C5252 C 0.32346 0.85555 0.89642 0.0
C5253 C 0.3383 0.87324 0.90327 0.0
C5254 C 0.33481 0.89119 0.90726 0.0
C5255 C 0.3489 0.90789 0.9128 0.0
C5256 C 0.36657 0.90686 0.91427 0.0
C5257 C 0.37018 0.88912 0.91022 0.0
C5258 C 0.35614 0.87237 0.90472 0.0
C5259 C 0.30182 0.81737 0.82016 0.0
C5260 C 0.30137 0.79791 0.81639 0.0
C5261 C 0.30544 0.82738 0.83827 0.0
C5262 C 0.30895 0.81816 0.85279 0.0
C5263 C 0.30985 0.79916 0.84899 0.0
C5264 C 0.30585 0.78896 0.83083 0.0
C5265 C 0.3095 0.82792 0.87181 0.0
C5266 C 0.3238 0.84402 0.8795 0.0
C5267 C 0.29459 0.8231 0.88117 0.0
C5268 C 0.27851 0.80731 0.87306 0.0
C5269 C 0.27827 0.78824 0.87354 0.0
C5270 C 0.26285 0.77343 0.86619 0.0
C5271 C 0.24752 0.7776 0.85865 0.0
C5272 C 0.24758 0.7966 0.85843 0.0
C5273 C 0.26302 0.81143 0.86561 0.0
H5274 H 0.23556 0.76613 0.85306 0.0
H5275 H 0.37745 0.91981 0.91847 0.0
H5276 H 0.94433 0.5446 0.72142 0.0
H5277 H 0.94582 0.53281 0.68915 0.0
H5278 H 0.99323 0.51613 0.70531 0.0
H5279 H 0.99169 0.52742 0.73781 0.0
H5280 H 0.99323 0.53658 0.67487 0.0
H5281 H 0.95779 0.48335 0.69724 0.0
H5282 H 0.93283 0.46634 0.71157 0.0
H5283 H 0.8952 0.47244 0.66828 0.0
H5284 H 0.91991 0.48993 0.65391 0.0
H5285 H 0.00694 0.49049 0.59815 0.0
H5286 H 0.99331 0.48312 0.62502 0.0
H5287 H 0.95062 0.50695 0.60856 0.0
H5288 H 0.96358 0.51339 0.58075 0.0
H5289 H 0.94628 0.47985 0.6392 0.0
H5290 H 0.98007 0.54377 0.62704 0.0
H5291 H 0.00384 0.56404 0.61351 0.0
H5292 H 0.04216 0.53847 0.6371 0.0
H5293 H 0.01863 0.5184 0.65113 0.0
C5294 C 0.9554 0.53892 0.71817 0.0
C5295 C 0.96775 0.53663 0.73221 0.0
C5296 C 0.95598 0.53189 0.69975 0.0
C5297 C 0.96917 0.52296 0.69514 0.0
C5298 C 0.98268 0.52257 0.70885 0.0
C5299 C 0.98195 0.52931 0.72732 0.0
C5300 C 0.9693 0.51469 0.67587 0.0
C5301 C 0.9831 0.52401 0.66721 0.0
C5302 C 0.95568 0.49862 0.66585 0.0
C5303 C 0.94076 0.48823 0.67461 0.0
C5304 C 0.9442 0.48133 0.6909 0.0
C5305 C 0.93009 0.47154 0.69901 0.0
C5306 C 0.91244 0.46836 0.69088 0.0
C5307 C 0.90888 0.47495 0.6746 0.0
C5308 C 0.92294 0.48482 0.66647 0.0
C5309 C 0.99402 0.49303 0.59942 0.0
C5310 C 0.98682 0.50351 0.58786 0.0
C5311 C 0.98617 0.48864 0.61484 0.0
C5312 C 0.97138 0.49513 0.61898 0.0
C5313 C 0.96221 0.50208 0.60563 0.0
C5314 C 0.96986 0.50613 0.58996 0.0
C5315 C 0.97035 0.5017 0.63851 0.0
C5316 C 0.95641 0.49225 0.64708 0.0
C5317 C 0.9836 0.51792 0.64861 0.0
C5318 C 0.99765 0.5295 0.63988 0.0
C5319 C 0.99357 0.54247 0.62926 0.0
C5320 C 0.007 0.55397 0.6216 0.0
C5321 C 0.02447 0.55243 0.62431 0.0
C5322 C 0.0286 0.53957 0.63492 0.0
C5323 C 0.01527 0.52821 0.64281 0.0
H5324 H 0.03481 0.56125 0.61825 0.0
H5325 H 0.90154 0.46073 0.69715 0.0
H5326 H 0.25787 0.21876 0.43979 0.0
H5327 H 0.26276 0.2276 0.41007 0.0
H5328 H 0.3121 0.21155 0.41322 0.0
H5329 H 0.30718 0.20228 0.44337 0.0
H5330 H 0.31211 0.25001 0.40191 0.0
H5331 H 0.28118 0.18239 0.38566 0.0
H5332 H 0.25703 0.15395 0.38743 0.0
H5333 H 0.21789 0.1804 0.36723 0.0
H5334 H 0.2418 0.20912 0.36558 0.0
H5335 H 0.32123 0.26182 0.3098 0.0
H5336 H 0.32039 0.24941 0.33856 0.0
H5337 H 0.26352 0.24246 0.33369 0.0
H5338 H 0.26427 0.25407 0.30441 0.0
H5339 H 0.26935 0.21415 0.34612 0.0
H5340 H 0.29646 0.28124 0.36395 0.0
H5341 H 0.31789 0.31251 0.36469 0.0
H5342 H 0.36108 0.29109 0.38415 0.0
H5343 H 0.33993 0.25958 0.38329 0.0
C5344 C 0.26983 0.21706 0.4343 0.0
C5345 C 0.28214 0.20974 0.44407 0.0
C5346 C 0.27257 0.22214 0.41722 0.0
C5347 C 0.28774 0.22022 0.40936 0.0
C5348 C 0.30028 0.21316 0.41906 0.0
C5349 C 0.29741 0.20778 0.43621 0.0
C5350 C 0.28998 0.22535 0.39086 0.0
C5351 C 0.30309 0.24194 0.38957 0.0
C5352 C 0.27763 0.21535 0.37498 0.0
C5353 C 0.26327 0.19794 0.37559 0.0
C5354 C 0.26741 0.18218 0.38169 0.0
C5355 C 0.25377 0.166 0.38266 0.0
C5356 C 0.23593 0.16538 0.37747 0.0
C5357 C 0.23171 0.1809 0.37124 0.0
C5358 C 0.2453 0.19712 0.37026 0.0
C5359 C 0.30852 0.25743 0.31478 0.0
C5360 C 0.29283 0.25893 0.30485 0.0
C5361 C 0.30807 0.25051 0.33136 0.0
C5362 C 0.29197 0.24536 0.3387 0.0
C5363 C 0.27616 0.24635 0.32847 0.0
C5364 C 0.27657 0.25297 0.31168 0.0
C5365 C 0.29159 0.23893 0.35695 0.0
C5366 C 0.27868 0.22214 0.35827 0.0
C5367 C 0.30383 0.24911 0.37298 0.0
C5368 C 0.31663 0.26797 0.37332 0.0
C5369 C 0.31055 0.28313 0.36821 0.0
C5370 C 0.32264 0.30092 0.36869 0.0
C5371 C 0.34084 0.30376 0.3744 0.0
C5372 C 0.34698 0.28885 0.37968 0.0
C5373 C 0.33495 0.27102 0.37921 0.0
H5374 H 0.35018 0.31755 0.37478 0.0
H5375 H 0.22539 0.15285 0.37826 0.0
H5376 H 0.33586 0.63129 0.52951 0.0
H5377 H 0.36069 0.61715 0.52584 0.0
H5378 H 0.33713 0.59063 0.46972 0.0
H5379 H 0.3121 0.6045 0.47332 0.0
H5380 H 0.34879 0.56602 0.48807 0.0
H5381 H 0.37195 0.62987 0.47805 0.0
H5382 H 0.37864 0.66504 0.48567 0.0
H5383 H 0.41264 0.66597 0.53515 0.0
H5384 H 0.40592 0.63075 0.52798 0.0
H5385 H 0.4231 0.53698 0.46223 0.0
H5386 H 0.40016 0.55402 0.46322 0.0
H5387 H 0.42256 0.58234 0.51918 0.0
H5388 H 0.44626 0.56614 0.51797 0.0
H5389 H 0.41158 0.6065 0.49968 0.0
H5390 H 0.38708 0.54249 0.51029 0.0
H5391 H 0.38016 0.50728 0.50266 0.0
H5392 H 0.34843 0.50683 0.45181 0.0
H5393 H 0.35538 0.54208 0.45902 0.0
C5394 C 0.33595 0.62246 0.51638 0.0
C5395 C 0.32207 0.61908 0.50167 0.0
C5396 C 0.35018 0.61445 0.51429 0.0
C5397 C 0.35083 0.60307 0.49743 0.0
C5398 C 0.33687 0.59944 0.48282 0.0
C5399 C 0.32262 0.60741 0.4849 0.0
C5400 C 0.36603 0.59482 0.49512 0.0
C5401 C 0.3625 0.57488 0.49033 0.0
C5402 C 0.38391 0.60642 0.49841 0.0
C5403 C 0.38832 0.62764 0.50255 0.0
C5404 C 0.38077 0.63756 0.49061 0.0
C5405 C 0.38457 0.65751 0.49485 0.0
C5406 C 0.39602 0.66773 0.51091 0.0
C5407 C 0.40376 0.65803 0.52272 0.0
C5408 C 0.39997 0.63807 0.51857 0.0
C5409 C 0.4234 0.54709 0.47465 0.0
C5410 C 0.43644 0.55005 0.4901 0.0
C5411 C 0.41016 0.5567 0.47523 0.0
C5412 C 0.40948 0.56916 0.49139 0.0
C5413 C 0.4228 0.57268 0.50662 0.0
C5414 C 0.43618 0.56321 0.50598 0.0
C5415 C 0.39432 0.57769 0.49273 0.0
C5416 C 0.39786 0.59767 0.49734 0.0
C5417 C 0.37642 0.56614 0.48926 0.0
C5418 C 0.37187 0.54492 0.48513 0.0
C5419 C 0.37869 0.53488 0.49744 0.0
C5420 C 0.37477 0.51492 0.4932 0.0
C5421 C 0.3639 0.50483 0.47675 0.0
C5422 C 0.35687 0.51467 0.46454 0.0
C5423 C 0.36078 0.53464 0.46871 0.0
H5424 H 0.36089 0.48938 0.47347 0.0
H5425 H 0.39893 0.68317 0.51417 0.0
H5426 H 0.86812 0.89194 0.524 0.0
H5427 H 0.89608 0.91416 0.52127 0.0
H5428 H 0.87086 0.96009 0.52441 0.0
H5429 H 0.84221 0.93751 0.52688 0.0
H5430 H 0.89334 0.961 0.49732 0.0
H5431 H 0.89831 0.95681 0.5615 0.0
H5432 H 0.89668 0.94025 0.58804 0.0
H5433 H 0.93623 0.9131 0.57001 0.0
H5434 H 0.93792 0.92929 0.5432 0.0
H5435 H 0.97613 0.03487 0.51786 0.0
H5436 H 0.94657 0.01346 0.5181 0.0
H5437 H 0.96868 0.96513 0.51264 0.0
H5438 H 0.99838 0.98663 0.51212 0.0
H5439 H 0.94748 0.9662 0.54093 0.0
H5440 H 0.94288 0.96977 0.47717 0.0
H5441 H 0.94457 0.98524 0.44993 0.0
H5442 H 0.90465 0.01261 0.46633 0.0
H5443 H 0.90294 0.99755 0.49387 0.0
C5444 C 0.86834 0.90676 0.5242 0.0
C5445 C 0.85276 0.91287 0.52582 0.0
C5446 C 0.88449 0.91952 0.52267 0.0
C5447 C 0.88577 0.93892 0.52289 0.0
C5448 C 0.87027 0.9452 0.52429 0.0
C5449 C 0.85391 0.93231 0.52582 0.0
C5450 C 0.90343 0.95234 0.52173 0.0
C5451 C 0.9051 0.96244 0.50707 0.0
C5452 C 0.91899 0.95377 0.53405 0.0
C5453 C 0.91814 0.94416 0.55027 0.0
C5454 C 0.90658 0.94721 0.56313 0.0
C5455 C 0.90566 0.93791 0.57823 0.0
C5456 C 0.91632 0.9256 0.58069 0.0
C5457 C 0.92797 0.92263 0.56808 0.0
C5458 C 0.92894 0.93188 0.55294 0.0
C5459 C 0.97468 0.01965 0.51654 0.0
C5460 C 0.98958 0.0124 0.5149 0.0
C5461 C 0.95774 0.00741 0.51661 0.0
C5462 C 0.9553 0.98764 0.51529 0.0
C5463 C 0.97018 0.98032 0.5136 0.0
C5464 C 0.98714 0.99257 0.51322 0.0
C5465 C 0.9374 0.97487 0.51656 0.0
C5466 C 0.9357 0.96487 0.53124 0.0
C5467 C 0.92188 0.9735 0.50421 0.0
C5468 C 0.92294 0.98271 0.48773 0.0
C5469 C 0.9346 0.97925 0.4751 0.0
C5470 C 0.93554 0.98791 0.45957 0.0
C5471 C 0.92477 0.99995 0.45643 0.0
C5472 C 0.91301 0.00332 0.4688 0.0
C5473 C 0.91205 0.99472 0.48437 0.0
H5474 H 0.92549 0.00662 0.44439 0.0
H5475 H 0.91558 0.9184 0.59238 0.0
H5476 H 0.87275 0.09426 0.24782 0.0
H5477 H 0.85622 0.11884 0.24887 0.0
H5478 H 0.90551 0.16302 0.26762 0.0
H5479 H 0.92172 0.13884 0.26702 0.0
H5480 H 0.88434 0.17631 0.28457 0.0
H5481 H 0.87623 0.15007 0.2196 0.0
H5482 H 0.86684 0.12474 0.19168 0.0
H5483 H 0.8129 0.11148 0.2037 0.0
H5484 H 0.82202 0.13662 0.23181 0.0
H5485 H 0.85067 0.25767 0.27049 0.0
H5486 H 0.866 0.23223 0.26973 0.0
H5487 H 0.81557 0.1896 0.25208 0.0
H5488 H 0.80038 0.21489 0.25248 0.0
H5489 H 0.83665 0.1751 0.23494 0.0
H5490 H 0.84456 0.20165 0.29953 0.0
H5491 H 0.85383 0.22695 0.32748 0.0
H5492 H 0.90804 0.23958 0.3163 0.0
H5493 H 0.89906 0.21446 0.28817 0.0
C5494 C 0.88017 0.10917 0.25215 0.0
C5495 C 0.89899 0.11393 0.25725 0.0
C5496 C 0.87058 0.12358 0.25264 0.0
C5497 C 0.8792 0.14363 0.25811 0.0
C5498 C 0.89792 0.14815 0.26333 0.0
C5499 C 0.9074 0.13391 0.26288 0.0
C5500 C 0.8693 0.15986 0.25866 0.0
C5501 C 0.87409 0.17592 0.27344 0.0
C5502 C 0.85536 0.16014 0.24473 0.0
C5503 C 0.84985 0.14507 0.22789 0.0
C5504 C 0.86239 0.14167 0.21634 0.0
C5505 C 0.85711 0.12736 0.20048 0.0
C5506 C 0.83929 0.11647 0.19595 0.0
C5507 C 0.8267 0.11991 0.20725 0.0
C5508 C 0.83192 0.13419 0.22314 0.0
C5509 C 0.8427 0.24292 0.26649 0.0
C5510 C 0.82392 0.23894 0.26164 0.0
C5511 C 0.85162 0.22803 0.26617 0.0
C5512 C 0.84234 0.20816 0.2611 0.0
C5513 C 0.82361 0.20432 0.2561 0.0
C5514 C 0.81473 0.21913 0.25642 0.0
C5515 C 0.85179 0.19159 0.26077 0.0
C5516 C 0.8469 0.17549 0.24605 0.0
C5517 C 0.86565 0.19127 0.27476 0.0
C5518 C 0.8711 0.20632 0.29165 0.0
C5519 C 0.85844 0.20991 0.30298 0.0
C5520 C 0.86364 0.2242 0.31886 0.0
C5521 C 0.8815 0.23491 0.32363 0.0
C5522 C 0.89421 0.2313 0.31256 0.0
C5523 C 0.88907 0.21702 0.29667 0.0
H5524 H 0.8855 0.24597 0.33592 0.0
H5525 H 0.83523 0.1054 0.18367 0.0
H5526 H 0.73273 0.1342 0.00316 0.0
H5527 H 0.70208 0.11762 0.99054 0.0
H5528 H 0.70549 0.07085 0.01807 0.0
H5529 H 0.73721 0.08739 0.03025 0.0
H5530 H 0.68169 0.06327 0.97836 0.0
H5531 H 0.69311 0.09966 0.0421 0.0
H5532 H 0.70752 0.1286 0.0657 0.0
H5533 H 0.68399 0.16241 0.03387 0.0
H5534 H 0.66972 0.13371 0.0099 0.0
H5535 H 0.59218 0.03017 0.991 0.0
H5536 H 0.62427 0.04014 0.99079 0.0
H5537 H 0.62145 0.0977 0.98817 0.0
H5538 H 0.58938 0.08787 0.99035 0.0
H5539 H 0.64584 0.09974 0.01288 0.0
H5540 H 0.6317 0.06522 0.95088 0.0
H5541 H 0.61704 0.03778 0.92568 0.0
H5542 H 0.64478 0.00258 0.9507 0.0
H5543 H 0.65947 0.02966 0.97614 0.0
C5544 C 0.72735 0.11996 0.00576 0.0
C5545 C 0.73729 0.11187 0.01739 0.0
C5546 C 0.70979 0.11056 -0.0014 0.0
C5547 C 0.70169 0.09315 0.00345 0.0
C5548 C 0.71178 0.08428 0.01414 0.0
C5549 C 0.7297 0.0937 0.02116 0.0
C5550 C 0.68217 0.08654 0.00015 0.0
C5551 C 0.67369 0.07091 0.98601 0.0
C5552 C 0.67207 0.09736 0.00958 0.0
C5553 C 0.68051 0.11457 0.02412 0.0
C5554 C 0.69116 0.11329 0.04005 0.0
C5555 C 0.69927 0.12965 0.0535 0.0
C5556 C 0.69671 0.14734 0.05126 0.0
C5557 C 0.68599 0.1487 0.03557 0.0
C5558 C 0.67788 0.1324 0.02206 0.0
C5559 C 0.5985 0.04489 0.99033 0.0
C5560 C 0.58871 0.0584 0.991 0.0
C5561 C 0.61675 0.05053 0.98985 0.0
C5562 C 0.62525 0.06959 0.98909 0.0
C5563 C 0.61515 0.08291 0.98877 0.0
C5564 C 0.59696 0.07739 0.99004 0.0
C5565 C 0.6449 0.07605 0.99113 0.0
C5566 C 0.65357 0.0919 0.00502 0.0
C5567 C 0.65507 0.06564 0.98114 0.0
C5568 C 0.64665 0.04949 0.96549 0.0
C5569 C 0.63465 0.05162 0.95105 0.0
C5570 C 0.62632 0.03613 0.93672 0.0
C5571 C 0.62995 0.01847 0.93662 0.0
C5572 C 0.64199 0.01628 0.95079 0.0
C5573 C 0.65036 0.0317 0.96514 0.0
H5574 H 0.62344 0.00649 0.92555 0.0
H5575 H 0.703 0.15998 0.0617 0.0
H5576 H 0.16951 0.46572 0.24299 0.0
H5577 H 0.18596 0.44367 0.25239 0.0
H5578 H 0.23306 0.49098 0.27163 0.0
H5579 H 0.21662 0.51321 0.26274 0.0
H5580 H 0.23494 0.45394 0.24576 0.0
H5581 H 0.21695 0.47976 0.30333 0.0
H5582 H 0.19447 0.48776 0.32195 0.0
H5583 H 0.16431 0.4286 0.31083 0.0
H5584 H 0.18651 0.4203 0.29189 0.0
H5585 H 0.2909 0.41106 0.29121 0.0
H5586 H 0.27399 0.43443 0.28811 0.0
H5587 H 0.22457 0.38979 0.28157 0.0
H5588 H 0.24144 0.36634 0.28492 0.0
H5589 H 0.22309 0.4253 0.30134 0.0
H5590 H 0.23881 0.39837 0.24455 0.0
H5591 H 0.25846 0.38838 0.22323 0.0
H5592 H 0.28977 0.44678 0.2297 0.0
H5593 H 0.27044 0.45709 0.25131 0.0
C5594 C 0.18341 0.47136 0.2491 0.0
C5595 C 0.19187 0.49107 0.25223 0.0
C5596 C 0.19269 0.45882 0.2545 0.0
C5597 C 0.21054 0.4659 0.26276 0.0
C5598 C 0.21921 0.48545 0.26533 0.0
C5599 C 0.20985 0.49804 0.26028 0.0
C5600 C 0.22019 0.45282 0.2688 0.0
C5601 C 0.23263 0.44789 0.25806 0.0
C5602 C 0.21647 0.44455 0.28444 0.0
C5603 C 0.20328 0.44945 0.29605 0.0
C5604 C 0.20544 0.46849 0.30472 0.0
C5605 C 0.19277 0.47307 0.31536 0.0
C5606 C 0.17794 0.45871 0.31753 0.0
C5607 C 0.17579 0.43972 0.30912 0.0
C5608 C 0.18842 0.43506 0.29845 0.0
C5609 C 0.27645 0.40637 0.28972 0.0
C5610 C 0.26741 0.38696 0.28805 0.0
C5611 C 0.26684 0.41966 0.28786 0.0
C5612 C 0.24813 0.41365 0.28433 0.0
C5613 C 0.23904 0.39458 0.28423 0.0
C5614 C 0.24865 0.38125 0.28601 0.0
C5615 C 0.23824 0.42673 0.27853 0.0
C5616 C 0.22559 0.4315 0.28916 0.0
C5617 C 0.2415 0.4346 0.26253 0.0
C5618 C 0.25333 0.42846 0.24975 0.0
C5619 C 0.25001 0.40906 0.24161 0.0
C5620 C 0.26106 0.40334 0.22943 0.0
C5621 C 0.27539 0.41693 0.22516 0.0
C5622 C 0.27869 0.43627 0.23305 0.0
C5623 C 0.26769 0.44205 0.24527 0.0
H5624 H 0.28391 0.41248 0.2157 0.0
H5625 H 0.16814 0.46228 0.32577 0.0
H5626 H 0.25698 0.4162 0.98415 0.0
H5627 H 0.23129 0.4294 0.98276 0.0
H5628 H 0.22221 0.41738 0.03669 0.0
H5629 H 0.24808 0.40414 0.03824 0.0
H5630 H 0.19014 0.40719 0.01043 0.0
H5631 H 0.24175 0.462 0.03281 0.0
H5632 H 0.27159 0.48264 0.03106 0.0
H5633 H 0.25218 0.4929 0.97839 0.0
H5634 H 0.22227 0.47211 0.97973 0.0
H5635 H 0.13231 0.46596 0.03234 0.0
H5636 H 0.15548 0.44906 0.03116 0.0
H5637 H 0.17058 0.47123 0.98273 0.0
H5638 H 0.14789 0.48871 0.98422 0.0
H5639 H 0.19928 0.47528 0.00497 0.0
H5640 H 0.14882 0.42312 0.98094 0.0
H5641 H 0.1188 0.40108 0.9788 0.0
H5642 H 0.13484 0.38389 0.02912 0.0
H5643 H 0.16493 0.40605 0.03173 0.0
C5644 C 0.24959 0.41636 0.99578 0.0
C5645 C 0.25478 0.40919 0.01139 0.0
C5646 C 0.23484 0.42394 0.99494 0.0
C5647 C 0.22478 0.42452 0.00965 0.0
C5648 C 0.22971 0.4171 0.02514 0.0
C5649 C 0.24461 0.40965 0.02607 0.0
C5650 C 0.20951 0.43339 0.009 0.0
C5651 C 0.19215 0.42216 0.00954 0.0
C5652 C 0.21193 0.4527 0.00699 0.0
C5653 C 0.22983 0.46539 0.00631 0.0
C5654 C 0.24388 0.46857 0.02081 0.0
C5655 C 0.2608 0.48031 0.0199 0.0
C5656 C 0.26379 0.48905 0.00461 0.0
C5657 C 0.24985 0.48611 0.99022 0.0
C5658 C 0.23291 0.47438 0.99106 0.0
C5659 C 0.14056 0.4673 0.02143 0.0
C5660 C 0.13815 0.47887 0.00843 0.0
C5661 C 0.15373 0.45739 0.02064 0.0
C5662 C 0.16485 0.45867 0.00678 0.0
C5663 C 0.16226 0.46993 0.99359 0.0
C5664 C 0.1491 0.47983 0.99436 0.0
C5665 C 0.17977 0.44919 0.00665 0.0
C5666 C 0.19713 0.46031 0.00591 0.0
C5667 C 0.17723 0.42965 0.008 0.0
C5668 C 0.15909 0.41645 0.00666 0.0
C5669 C 0.14591 0.4148 0.99167 0.0
C5670 C 0.12888 0.40225 0.99034 0.0
C5671 C 0.12489 0.39114 0.00385 0.0
C5672 C 0.13794 0.39254 0.01869 0.0
C5673 C 0.15499 0.40509 0.02009 0.0
H5674 H 0.11171 0.38141 0.00278 0.0
H5675 H 0.2769 0.49812 0.00392 0.0
H5676 H 0.87369 0.00344 0.26449 0.0
H5677 H 0.85535 0.97152 0.26731 0.0
H5678 H 0.88769 0.94495 0.23388 0.0
H5679 H 0.90561 0.97637 0.2309 0.0
H5680 H 0.85636 0.9231 0.22446 0.0
H5681 H 0.89078 0.94967 0.28338 0.0
H5682 H 0.90288 0.97298 0.3124 0.0
H5683 H 0.85001 0.9655 0.32691 0.0
H5684 H 0.83755 0.94234 0.29781 0.0
H5685 H 0.82805 0.82864 0.24741 0.0
H5686 H 0.84643 0.86077 0.24551 0.0
H5687 H 0.80943 0.8861 0.27251 0.0
H5688 H 0.79115 0.8542 0.27431 0.0
H5689 H 0.84328 0.90837 0.28554 0.0
H5690 H 0.80997 0.88044 0.22474 0.0
H5691 H 0.80027 0.85596 0.19621 0.0
H5692 H 0.85469 0.865 0.18613 0.0
H5693 H 0.86474 0.88936 0.21476 0.0
C5694 C 0.87667 0.99081 0.25741 0.0
C5695 C 0.89127 0.99289 0.24731 0.0
C5696 C 0.86627 0.97236 0.25925 0.0
C5697 C 0.87001 0.95524 0.25106 0.0
C5698 C 0.88418 0.95745 0.24046 0.0
C5699 C 0.89455 0.97572 0.23875 0.0
C5700 C 0.85962 0.93513 0.25346 0.0
C5701 C 0.85375 0.92003 0.23794 0.0
C5702 C 0.85584 0.93041 0.27087 0.0
C5703 C 0.8632 0.94447 0.28829 0.0
C5704 C 0.88171 0.95314 0.29266 0.0
C5705 C 0.88864 0.9663 0.30915 0.0
C5706 C 0.87721 0.97077 0.32146 0.0
C5707 C 0.85884 0.96206 0.31733 0.0
C5708 C 0.85183 0.94892 0.30084 0.0
C5709 C 0.824 0.84101 0.25332 0.0
C5710 C 0.80805 0.83848 0.26126 0.0
C5711 C 0.83448 0.85958 0.25201 0.0
C5712 C 0.82951 0.87639 0.25873 0.0
C5713 C 0.81388 0.87378 0.26717 0.0
C5714 C 0.80333 0.85531 0.26819 0.0
C5715 C 0.84 0.8965 0.25655 0.0
C5716 C 0.84589 0.91155 0.27209 0.0
C5717 C 0.84415 0.90111 0.23922 0.0
C5718 C 0.83812 0.88657 0.22198 0.0
C5719 C 0.81988 0.8771 0.21651 0.0
C5720 C 0.81432 0.86327 0.20031 0.0
C5721 C 0.82686 0.85889 0.18939 0.0
C5722 C 0.84499 0.86838 0.19462 0.0
C5723 C 0.85063 0.88221 0.21082 0.0
H5724 H 0.82253 0.84817 0.17686 0.0
H5725 H 0.8826 0.98095 0.33423 0.0
H5726 H 0.69755 0.07595 0.76967 0.0
H5727 H 0.71712 0.10869 0.77617 0.0
H5728 H 0.67999 0.12569 0.73987 0.0
H5729 H 0.65992 0.09308 0.7339 0.0
H5730 H 0.72078 0.12409 0.7332 0.0
H5731 H 0.682 0.1499 0.76996 0.0
H5732 H 0.6651 0.1579 0.79502 0.0
H5733 H 0.71221 0.17017 0.8348 0.0
H5734 H 0.72928 0.16167 0.81003 0.0
H5735 H 0.75829 0.22166 0.73171 0.0
H5736 H 0.74306 0.18807 0.72986 0.0
H5737 H 0.76949 0.19007 0.78444 0.0
H5738 H 0.78421 0.22407 0.78669 0.0
H5739 H 0.73502 0.18122 0.78318 0.0
H5740 H 0.77456 0.1592 0.7451 0.0
H5741 H 0.79173 0.15828 0.71891 0.0
H5742 H 0.74311 0.14235 0.68072 0.0
H5743 H 0.72565 0.14341 0.70666 0.0
C5744 C 0.69338 0.08683 0.76348 0.0
C5745 C 0.67749 0.08216 0.7511 0.0
C5746 C 0.70441 0.10547 0.76737 0.0
C5747 C 0.69977 0.11945 0.75866 0.0
C5748 C 0.68348 0.11505 0.74698 0.0
C5749 C 0.67218 0.09649 0.74346 0.0
C5750 C 0.71361 0.13697 0.75852 0.0
C5751 C 0.7239 0.13672 0.74403 0.0
C5752 C 0.71779 0.15296 0.77301 0.0
C5753 C 0.70685 0.15478 0.78813 0.0
C5754 C 0.68862 0.15364 0.78409 0.0
C5755 C 0.67905 0.15849 0.79824 0.0
C5756 C 0.68762 0.1647 0.81646 0.0
C5757 C 0.70562 0.16545 0.82067 0.0
C5758 C 0.7152 0.16049 0.8066 0.0
C5759 C 0.76125 0.21479 0.7431 0.0
C5760 C 0.77203 0.2254 0.75952 0.0
C5761 C 0.75269 0.19554 0.74194 0.0
C5762 C 0.75519 0.18664 0.75702 0.0
C5763 C 0.7674 0.19679 0.7727 0.0
C5764 C 0.77567 0.21616 0.77402 0.0
C5765 C 0.74242 0.16844 0.75795 0.0
C5766 C 0.73227 0.16847 0.77255 0.0
C5767 C 0.73832 0.15233 0.74351 0.0
C5768 C 0.74879 0.15147 0.72786 0.0
C5769 C 0.76753 0.1556 0.73112 0.0
C5770 C 0.77732 0.15504 0.71631 0.0
C5771 C 0.76852 0.15028 0.69816 0.0
C5772 C 0.74991 0.14602 0.69479 0.0
C5773 C 0.74005 0.14656 0.70954 0.0
H5774 H 0.77612 0.14987 0.68672 0.0
H5775 H 0.68034 0.16895 0.82732 0.0
loop_
_geom_bond_atom_site_label_1
_geom_bond_atom_site_label_2
_geom_bond_distance
_geom_bond_site_symmetry_2
_ccdc_geom_bond_type
Zn0 O3 2.031 . S
Zn0 O5 2.049 . S
Zn0 O10 2.067 . S
Zn1 O2 1.962 . S
Zn1 O4 1.986 . S
Zn1 O6 1.996 . S
Zn1 O9 1.943 . S
O2 Zn1 1.962 . S
O2 C7 1.254 . S
O3 Zn0 2.031 . S
O3 C7 1.269 . S
O4 Zn1 1.986 . S
O4 C11 1.262 . S
O5 Zn0 2.049 . S
O5 C13 1.260 . S
O6 Zn1 1.996 . S
O6 C13 1.257 . S
C7 O2 1.254 . S
C7 O3 1.269 . S
C8 O9 1.249 . S
C8 O10 1.270 . S
O9 Zn1 1.943 . S
O9 C8 1.249 . S
O10 Zn0 2.067 . S
O10 C8 1.270 . S
C11 O4 1.262 . S
C11 O12 1.232 . S
O12 C11 1.232 . S
C13 O5 1.260 . S
C13 O6 1.257 . S
Zn14 O17 2.031 1_455 S
Zn14 O19 2.049 . S
Zn14 O24 2.067 . S
Zn15 O16 1.948 1_455 S
Zn15 O18 1.991 . S
Zn15 O20 2.007 . S
Zn15 O23 1.946 1_455 S
O16 Zn15 1.948 1_655 S
O16 C21 1.254 . S
O17 Zn14 2.031 1_655 S
O17 C21 1.269 . S
O18 Zn15 1.991 . S
O18 C25 1.262 . S
O19 Zn14 2.049 . S
O19 C27 1.260 . S
O20 Zn15 2.007 . S
O20 C27 1.257 . S
C21 O16 1.254 . S
C21 O17 1.269 . S
C22 O23 1.249 . S
C22 O24 1.270 1_655 S
O23 Zn15 1.946 1_655 S
O23 C22 1.249 . S
O24 Zn14 2.067 . S
O24 C22 1.270 1_455 S
C25 O18 1.262 . S
C25 O26 1.232 1_455 S
O26 C25 1.232 1_655 S
C27 O19 1.260 . S
C27 O20 1.257 . S
Zn28 O31 2.031 . S
Zn28 O33 2.049 . S
Zn28 O38 2.067 . S
Zn29 O30 1.962 . S
Zn29 O32 1.986 . S
Zn29 O34 1.996 . S
Zn29 O37 1.943 . S
O30 Zn29 1.962 . S
O30 C35 1.254 . S
O31 Zn28 2.031 . S
O31 C35 1.269 . S
O32 Zn29 1.986 . S
O32 C39 1.262 . S
O33 Zn28 2.049 . S
O33 C41 1.260 . S
O34 Zn29 1.996 . S
O34 C41 1.257 . S
C35 O30 1.254 . S
C35 O31 1.269 . S
C36 O37 1.249 . S
C36 O38 1.270 . S
O37 Zn29 1.943 . S
O37 C36 1.249 . S
O38 Zn28 2.067 . S
O38 C36 1.270 . S
C39 O32 1.262 . S
C39 O40 1.232 . S
O40 C39 1.232 . S
C41 O33 1.260 . S
C41 O34 1.257 . S
Zn42 O45 2.031 . S
Zn42 O47 2.049 . S
Zn42 O52 2.067 . S
Zn43 O44 1.962 . S
Zn43 O46 1.986 . S
Zn43 O48 1.996 . S
Zn43 O51 1.943 . S
O44 Zn43 1.962 . S
O44 C49 1.254 . S
O45 Zn42 2.031 . S
O45 C49 1.269 . S
O46 Zn43 1.986 . S
O46 C53 1.262 . S
O47 Zn42 2.049 . S
O47 C55 1.260 . S
O48 Zn43 1.996 . S
O48 C55 1.257 . S
C49 O44 1.254 . S
C49 O45 1.269 . S
C50 O51 1.249 . S
C50 O52 1.270 . S
O51 Zn43 1.943 . S
O51 C50 1.249 . S
O52 Zn42 2.067 . S
O52 C50 1.270 . S
C53 O46 1.262 . S
C53 O54 1.232 . S
O54 C53 1.232 . S
C55 O47 1.260 . S
C55 O48 1.257 . S
Zn56 O59 2.031 . S
Zn56 O61 2.049 . S
Zn56 O66 2.067 . S
Zn57 O58 1.962 . S
Zn57 O60 1.986 . S
Zn57 O62 1.996 . S
Zn57 O65 1.943 . S
O58 Zn57 1.962 . S
O58 C63 1.254 . S
O59 Zn56 2.031 . S
O59 C63 1.269 . S
O60 Zn57 1.986 . S
O60 C67 1.262 . S
O61 Zn56 2.049 . S
O61 C69 1.260 . S
O62 Zn57 1.996 . S
O62 C69 1.257 . S
C63 O58 1.254 . S
C63 O59 1.269 . S
C64 O65 1.249 . S
C64 O66 1.270 . S
O65 Zn57 1.943 . S
O65 C64 1.249 . S
O66 Zn56 2.067 . S
O66 C64 1.270 . S
C67 O60 1.262 . S
C67 O68 1.232 . S
O68 C67 1.232 . S
C69 O61 1.260 . S
C69 O62 1.257 . S
Zn70 O73 2.031 . S
Zn70 O75 2.049 . S
Zn70 O80 2.067 . S
Zn71 O72 1.962 . S
Zn71 O74 1.986 . S
Zn71 O76 1.996 . S
Zn71 O79 1.943 . S
O72 Zn71 1.962 . S
O72 C77 1.254 . S
O73 Zn70 2.031 . S
O73 C77 1.269 . S
O74 Zn71 1.986 . S
O74 C81 1.262 . S
O75 Zn70 2.049 . S
O75 C83 1.260 . S
O76 Zn71 1.996 . S
O76 C83 1.257 . S
C77 O72 1.254 . S
C77 O73 1.269 . S
C78 O79 1.249 . S
C78 O80 1.270 . S
O79 Zn71 1.943 . S
O79 C78 1.249 . S
O80 Zn70 2.067 . S
O80 C78 1.270 . S
C81 O74 1.262 . S
C81 O82 1.232 . S
O82 C81 1.232 . S
C83 O75 1.260 . S
C83 O76 1.257 . S
Zn84 O87 2.031 . S
Zn84 O89 2.049 . S
Zn84 O94 2.067 . S
Zn85 O86 1.962 . S
Zn85 O88 1.986 . S
Zn85 O90 1.996 . S
Zn85 O93 1.943 . S
O86 Zn85 1.962 . S
O86 C91 1.254 . S
O87 Zn84 2.031 . S
O87 C91 1.269 . S
O88 Zn85 1.986 . S
O88 C95 1.262 . S
O89 Zn84 2.049 . S
O89 C97 1.260 . S
O90 Zn85 1.996 . S
O90 C97 1.257 . S
C91 O86 1.254 . S
C91 O87 1.269 . S
C92 O93 1.249 . S
C92 O94 1.270 . S
O93 Zn85 1.943 . S
O93 C92 1.249 . S
O94 Zn84 2.067 . S
O94 C92 1.270 . S
C95 O88 1.262 . S
C95 O96 1.232 . S
O96 C95 1.232 . S
C97 O89 1.260 . S
C97 O90 1.257 . S
Zn98 O101 2.042 . S
Zn98 O103 2.049 . S
Zn98 O108 2.067 . S
Zn99 O100 1.962 . S
Zn99 O102 1.986 . S
Zn99 O104 1.996 . S
Zn99 O107 1.948 1_455 S
O100 Zn99 1.962 . S
O100 C105 1.254 . S
O101 Zn98 2.042 . S
O101 C105 1.218 1_655 S
O102 Zn99 1.986 . S
O102 C109 1.262 . S
O103 Zn98 2.049 . S
O103 C111 1.260 1_655 S
O104 Zn99 1.996 . S
O104 C111 1.257 . S
C105 O100 1.254 . S
C105 O101 1.218 1_455 S
C106 O107 1.242 . S
C106 O108 1.270 . S
O107 Zn99 1.948 1_655 S
O107 C106 1.242 . S
O108 Zn98 2.067 . S
O108 C106 1.270 . S
C109 O102 1.262 . S
C109 O110 1.232 . S
O110 C109 1.232 . S
C111 O103 1.260 1_455 S
C111 O104 1.257 . S
Zn112 O115 2.031 . S
Zn112 O117 2.049 . S
Zn112 O122 2.067 . S
Zn113 O114 1.962 . S
Zn113 O116 1.986 . S
Zn113 O118 1.996 . S
Zn113 O121 1.943 1_545 S
O114 Zn113 1.962 . S
O114 C119 1.254 . S
O115 Zn112 2.031 . S
O115 C119 1.269 1_565 S
O116 Zn113 1.986 . S
O116 C123 1.262 . S
O117 Zn112 2.049 . S
O117 C125 1.260 1_565 S
O118 Zn113 1.996 . S
O118 C125 1.257 . S
C119 O114 1.254 . S
C119 O115 1.269 1_545 S
C120 O121 1.249 . S
C120 O122 1.270 . S
O121 Zn113 1.943 1_565 S
O121 C120 1.249 . S
O122 Zn112 2.067 . S
O122 C120 1.270 . S
C123 O116 1.262 . S
C123 O124 1.232 . S
O124 C123 1.232 . S
C125 O117 1.260 1_545 S
C125 O118 1.257 . S
Zn126 O129 2.031 . S
Zn126 O131 2.049 . S
Zn126 O136 2.067 . S
Zn127 O128 1.962 . S
Zn127 O130 1.986 . S
Zn127 O132 1.996 . S
Zn127 O135 1.943 . S
O128 Zn127 1.962 . S
O128 C133 1.254 . S
O129 Zn126 2.031 . S
O129 C133 1.269 . S
O130 Zn127 1.986 . S
O130 C137 1.262 . S
O131 Zn126 2.049 . S
O131 C139 1.260 . S
O132 Zn127 1.996 . S
O132 C139 1.257 . S
C133 O128 1.254 . S
C133 O129 1.269 . S
C134 O135 1.249 . S
C134 O136 1.270 . S
O135 Zn127 1.943 . S
O135 C134 1.249 . S
O136 Zn126 2.067 . S
O136 C134 1.270 . S
C137 O130 1.262 . S
C137 O138 1.232 . S
O138 C137 1.232 . S
C139 O131 1.260 . S
C139 O132 1.257 . S
Zn140 O143 2.031 . S
Zn140 O145 2.049 . S
Zn140 O150 2.067 . S
Zn141 O142 1.962 . S
Zn141 O144 1.986 . S
Zn141 O146 1.996 . S
Zn141 O149 1.943 1_565 S
O142 Zn141 1.962 . S
O142 C147 1.254 1_565 S
O143 Zn140 2.031 . S
O143 C147 1.269 . S
O144 Zn141 1.986 . S
O144 C151 1.262 . S
O145 Zn140 2.049 . S
O145 C153 1.260 1_545 S
O146 Zn141 1.996 . S
O146 C153 1.257 . S
C147 O142 1.254 1_545 S
C147 O143 1.269 . S
C148 O149 1.249 . S
C148 O150 1.270 . S
O149 Zn141 1.943 1_545 S
O149 C148 1.249 . S
O150 Zn140 2.067 . S
O150 C148 1.270 . S
C151 O144 1.262 . S
C151 O152 1.232 . S
O152 C151 1.232 . S
C153 O145 1.260 1_565 S
C153 O146 1.257 . S
Zn154 O157 2.031 1_554 S
Zn154 O159 2.049 . S
Zn154 O164 2.067 . S
Zn155 O156 1.962 1_554 S
Zn155 O158 1.986 . S
Zn155 O160 1.996 . S
Zn155 O163 1.943 . S
O156 Zn155 1.962 1_556 S
O156 C161 1.254 . S
O157 Zn154 2.031 1_556 S
O157 C161 1.269 . S
O158 Zn155 1.986 . S
O158 C165 1.262 . S
O159 Zn154 2.049 . S
O159 C167 1.260 . S
O160 Zn155 1.996 . S
O160 C167 1.257 . S
C161 O156 1.254 . S
C161 O157 1.269 . S
C162 O163 1.249 . S
C162 O164 1.270 . S
O163 Zn155 1.943 . S
O163 C162 1.249 . S
O164 Zn154 2.067 . S
O164 C162 1.270 . S
C165 O158 1.262 . S
C165 O166 1.184 1_554 S
O166 C165 1.184 1_556 S
C167 O159 1.260 . S
C167 O160 1.257 . S
Zn168 O171 2.031 1_554 S
Zn168 O173 2.049 . S
Zn168 O178 2.067 . S
Zn169 O170 1.962 1_554 S
Zn169 O172 1.986 . S
Zn169 O174 1.996 . S
Zn169 O177 1.943 . S
O170 Zn169 1.962 1_556 S
O170 C175 1.254 . S
O171 Zn168 2.031 1_556 S
O171 C175 1.269 . S
O172 Zn169 1.986 . S
O172 C179 1.262 . S
O173 Zn168 2.049 . S
O173 C181 1.260 . S
O174 Zn169 1.996 . S
O174 C181 1.257 . S
C175 O170 1.254 . S
C175 O171 1.269 . S
C176 O177 1.249 . S
C176 O178 1.270 . S
O177 Zn169 1.943 . S
O177 C176 1.249 . S
O178 Zn168 2.067 . S
O178 C176 1.270 . S
C179 O172 1.262 . S
C179 O180 1.232 . S
O180 C179 1.232 . S
C181 O173 1.260 . S
C181 O174 1.257 . S
Zn182 O185 2.031 1_554 S
Zn182 O187 2.049 . S
Zn182 O192 2.067 . S
Zn183 O184 1.962 1_554 S
Zn183 O186 1.986 . S
Zn183 O188 1.996 . S
Zn183 O191 1.943 . S
O184 Zn183 1.962 1_556 S
O184 C189 1.254 . S
O185 Zn182 2.031 1_556 S
O185 C189 1.269 . S
O186 Zn183 1.986 . S
O186 C193 1.262 . S
O187 Zn182 2.049 . S
O187 C195 1.260 . S
O188 Zn183 1.996 . S
O188 C195 1.257 . S
C189 O184 1.254 . S
C189 O185 1.269 . S
C190 O191 1.249 . S
C190 O192 1.270 . S
O191 Zn183 1.943 . S
O191 C190 1.249 . S
O192 Zn182 2.067 . S
O192 C190 1.270 . S
C193 O186 1.262 . S
C193 O194 1.232 1_554 S
O194 C193 1.232 1_556 S
C195 O187 1.260 . S
C195 O188 1.257 . S
Zn196 O199 2.031 . S
Zn196 O201 2.049 . S
Zn196 O206 2.067 . S
Zn197 O198 1.962 . S
Zn197 O200 1.986 . S
Zn197 O202 1.996 . S
Zn197 O205 1.943 . S
O198 Zn197 1.962 . S
O198 C203 1.254 . S
O199 Zn196 2.031 . S
O199 C203 1.269 . S
O200 Zn197 1.986 . S
O200 C207 1.262 . S
O201 Zn196 2.049 . S
O201 C209 1.260 . S
O202 Zn197 1.996 . S
O202 C209 1.257 . S
C203 O198 1.254 . S
C203 O199 1.269 . S
C204 O205 1.249 . S
C204 O206 1.270 . S
O205 Zn197 1.943 . S
O205 C204 1.249 . S
O206 Zn196 2.067 . S
O206 C204 1.270 . S
C207 O200 1.262 . S
C207 O208 1.232 . S
O208 C207 1.232 . S
C209 O201 1.260 . S
C209 O202 1.257 . S
Zn210 O213 2.031 . S
Zn210 O215 2.049 . S
Zn210 O220 2.067 . S
Zn211 O212 1.962 . S
Zn211 O214 1.986 . S
Zn211 O216 1.996 . S
Zn211 O219 1.943 . S
O212 Zn211 1.962 . S
O212 C217 1.254 . S
O213 Zn210 2.031 . S
O213 C217 1.269 . S
O214 Zn211 1.986 . S
O214 C221 1.262 . S
O215 Zn210 2.049 . S
O215 C223 1.260 . S
O216 Zn211 1.996 . S
O216 C223 1.257 . S
C217 O212 1.254 . S
C217 O213 1.269 . S
C218 O219 1.249 . S
C218 O220 1.270 . S
O219 Zn211 1.943 . S
O219 C218 1.249 . S
O220 Zn210 2.067 . S
O220 C218 1.270 . S
C221 O214 1.262 . S
C221 O222 1.232 . S
O222 C221 1.232 . S
C223 O215 1.260 . S
C223 O216 1.257 . S
Zn224 O227 2.031 . S
Zn224 O229 2.049 . S
Zn224 O234 2.067 . S
Zn225 O226 1.962 . S
Zn225 O228 1.986 . S
Zn225 O230 1.996 . S
Zn225 O233 1.943 . S
O226 Zn225 1.962 . S
O226 C231 1.254 . S
O227 Zn224 2.031 . S
O227 C231 1.269 . S
O228 Zn225 1.986 . S
O228 C235 1.262 . S
O229 Zn224 2.049 . S
O229 C237 1.260 . S
O230 Zn225 1.996 . S
O230 C237 1.257 . S
C231 O226 1.254 . S
C231 O227 1.269 . S
C232 O233 1.249 . S
C232 O234 1.270 . S
O233 Zn225 1.943 . S
O233 C232 1.249 . S
O234 Zn224 2.067 . S
O234 C232 1.270 . S
C235 O228 1.262 . S
C235 O236 1.232 . S
O236 C235 1.232 . S
C237 O229 1.260 . S
C237 O230 1.257 . S
Zn238 O241 2.031 . S
Zn238 O243 2.049 . S
Zn238 O248 2.067 . S
Zn239 O240 1.962 . S
Zn239 O242 1.986 . S
Zn239 O244 1.996 . S
Zn239 O247 1.943 . S
O240 Zn239 1.962 . S
O240 C245 1.254 . S
O241 Zn238 2.031 . S
O241 C245 1.269 . S
O242 Zn239 1.986 . S
O242 C249 1.262 . S
O243 Zn238 2.049 . S
O243 C251 1.260 . S
O244 Zn239 1.996 . S
O244 C251 1.257 . S
C245 O240 1.254 . S
C245 O241 1.269 . S
C246 O247 1.249 . S
C246 O248 1.270 . S
O247 Zn239 1.943 . S
O247 C246 1.249 . S
O248 Zn238 2.067 . S
O248 C246 1.270 . S
C249 O242 1.262 . S
C249 O250 1.232 . S
O250 C249 1.232 . S
C251 O243 1.260 . S
C251 O244 1.257 . S
Zn252 O255 2.031 . S
Zn252 O257 2.049 . S
Zn252 O262 2.067 . S
Zn253 O254 1.962 . S
Zn253 O256 1.986 . S
Zn253 O258 1.996 . S
Zn253 O261 1.943 . S
O254 Zn253 1.962 . S
O254 C259 1.254 . S
O255 Zn252 2.031 . S
O255 C259 1.269 . S
O256 Zn253 1.986 . S
O256 C263 1.262 . S
O257 Zn252 2.049 . S
O257 C265 1.260 . S
O258 Zn253 1.996 . S
O258 C265 1.257 . S
C259 O254 1.254 . S
C259 O255 1.269 . S
C260 O261 1.249 . S
C260 O262 1.270 . S
O261 Zn253 1.943 . S
O261 C260 1.249 . S
O262 Zn252 2.067 . S
O262 C260 1.270 . S
C263 O256 1.262 . S
C263 O264 1.232 . S
O264 C263 1.232 . S
C265 O257 1.260 . S
C265 O258 1.257 . S
Zn266 O269 2.031 . S
Zn266 O271 2.049 . S
Zn266 O276 2.067 . S
Zn267 O268 1.962 . S
Zn267 O270 1.986 . S
Zn267 O272 1.996 . S
Zn267 O275 1.943 . S
O268 Zn267 1.962 . S
O268 C273 1.254 . S
O269 Zn266 2.031 . S
O269 C273 1.269 . S
O270 Zn267 1.986 . S
O270 C277 1.262 . S
O271 Zn266 2.049 . S
O271 C279 1.260 . S
O272 Zn267 1.996 . S
O272 C279 1.257 . S
C273 O268 1.254 . S
C273 O269 1.269 . S
C274 O275 1.249 . S
C274 O276 1.270 . S
O275 Zn267 1.943 . S
O275 C274 1.249 . S
O276 Zn266 2.067 . S
O276 C274 1.270 . S
C277 O270 1.262 . S
C277 O278 1.232 . S
O278 C277 1.232 . S
C279 O271 1.260 . S
C279 O272 1.257 . S
Zn280 O283 2.031 1_554 S
Zn280 O285 2.049 . S
Zn280 O290 2.067 . S
Zn281 O282 1.962 1_554 S
Zn281 O284 1.986 . S
Zn281 O286 1.996 . S
Zn281 O289 1.943 . S
O282 Zn281 1.962 1_556 S
O282 C287 1.254 . S
O283 Zn280 2.031 1_556 S
O283 C287 1.269 . S
O284 Zn281 1.986 . S
O284 C291 1.262 . S
O285 Zn280 2.049 . S
O285 C293 1.260 . S
O286 Zn281 1.996 . S
O286 C293 1.257 . S
C287 O282 1.254 . S
C287 O283 1.269 . S
C288 O289 1.249 . S
C288 O290 1.270 . S
O289 Zn281 1.943 . S
O289 C288 1.249 . S
O290 Zn280 2.067 . S
O290 C288 1.270 . S
C291 O284 1.262 . S
C291 O292 1.232 1_554 S
O292 C291 1.232 1_556 S
C293 O285 1.260 . S
C293 O286 1.257 . S
Zn294 O297 2.031 . S
Zn294 O299 2.049 . S
Zn294 O304 2.067 . S
Zn295 O296 1.962 . S
Zn295 O298 1.986 . S
Zn295 O300 1.996 . S
Zn295 O303 1.943 . S
O296 Zn295 1.962 . S
O296 C301 1.254 . S
O297 Zn294 2.031 . S
O297 C301 1.269 . S
O298 Zn295 1.986 . S
O298 C305 1.262 . S
O299 Zn294 2.049 . S
O299 C307 1.260 . S
O300 Zn295 1.996 . S
O300 C307 1.257 . S
C301 O296 1.254 . S
C301 O297 1.269 . S
C302 O303 1.249 . S
C302 O304 1.270 . S
O303 Zn295 1.943 . S
O303 C302 1.249 . S
O304 Zn294 2.067 . S
O304 C302 1.270 . S
C305 O298 1.262 . S
C305 O306 1.232 . S
O306 C305 1.232 . S
C307 O299 1.260 . S
C307 O300 1.257 . S
Zn308 O311 2.031 . S
Zn308 O313 2.049 . S
Zn308 O318 2.067 . S
Zn309 O310 1.962 . S
Zn309 O312 1.986 . S
Zn309 O314 1.996 . S
Zn309 O317 1.943 . S
O310 Zn309 1.962 . S
O310 C315 1.254 . S
O311 Zn308 2.031 . S
O311 C315 1.269 . S
O312 Zn309 1.986 . S
O312 C319 1.262 . S
O313 Zn308 2.049 . S
O313 C321 1.260 . S
O314 Zn309 1.996 . S
O314 C321 1.257 . S
C315 O310 1.254 . S
C315 O311 1.269 . S
C316 O317 1.249 . S
C316 O318 1.270 . S
O317 Zn309 1.943 . S
O317 C316 1.249 . S
O318 Zn308 2.067 . S
O318 C316 1.270 . S
C319 O312 1.262 . S
C319 O320 1.232 . S
O320 C319 1.232 . S
C321 O313 1.260 . S
C321 O314 1.257 . S
Zn322 O325 2.031 . S
Zn322 O327 2.049 . S
Zn322 O332 2.067 . S
Zn323 O324 1.962 . S
Zn323 O326 1.986 . S
Zn323 O328 1.996 . S
Zn323 O331 1.943 . S
O324 Zn323 1.962 . S
O324 C329 1.254 . S
O325 Zn322 2.031 . S
O325 C329 1.269 . S
O326 Zn323 1.986 . S
O326 C333 1.262 . S
O327 Zn322 2.049 . S
O327 C335 1.260 . S
O328 Zn323 1.996 . S
O328 C335 1.257 . S
C329 O324 1.254 . S
C329 O325 1.269 . S
C330 O331 1.249 . S
C330 O332 1.270 . S
O331 Zn323 1.943 . S
O331 C330 1.249 . S
O332 Zn322 2.067 . S
O332 C330 1.270 . S
C333 O326 1.262 . S
C333 O334 1.232 . S
O334 C333 1.232 . S
C335 O327 1.260 . S
C335 O328 1.257 . S
Gd336 C339 2.818 1_454 S
Gd336 O356 2.361 1_554 S
Gd336 O358 2.448 1_454 S
Gd336 O359 2.506 1_455 S
Gd336 O360 2.435 1_554 S
Gd336 O361 2.717 1_554 S
Gd336 O363 2.395 1_545 S
Gd336 O367 2.327 . S
Gd337 C348 2.818 . S
Gd337 O357 2.395 . S
Gd337 O361 2.327 1_554 S
Gd337 O362 2.377 . S
Gd337 O364 2.448 . S
Gd337 O365 2.506 . S
Gd337 O366 2.435 . S
Gd337 O367 2.717 . S
C338 O356 1.225 1_554 S
C338 O357 1.240 . S
C339 Gd336 2.818 1_656 S
C339 C340 1.510 . S
C339 O358 1.249 . S
C339 O359 1.252 1_556 S
C340 C339 1.510 . S
C340 C341 1.404 . S
C340 C342 1.352 1_556 S
C341 C340 1.404 . S
C341 C345 1.389 . S
C341 H368 0.930 . S
C342 C340 1.352 1_554 S
C342 C344 1.374 . S
C342 H369 0.931 . S
C343 C344 1.359 1_556 S
C343 C345 1.364 . S
C344 C342 1.374 . S
C344 C343 1.359 1_554 S
C344 H370 0.931 . S
C345 C341 1.389 . S
C345 C343 1.364 . S
C345 H371 0.931 . S
C346 O360 1.256 . S
C346 O361 1.257 . S
C347 O362 1.240 1_565 S
C347 O363 1.240 . S
C348 Gd337 2.818 . S
C348 C349 1.510 . S
C348 O364 1.249 . S
C348 O365 1.252 . S
C349 C348 1.510 . S
C349 C350 1.404 . S
C349 C351 1.352 . S
C350 C349 1.404 . S
C350 C354 1.389 . S
C350 H372 0.930 . S
C351 C349 1.352 . S
C351 C353 1.374 . S
C351 H373 0.931 . S
C352 C353 1.359 . S
C352 C354 1.364 . S
C353 C351 1.374 . S
C353 C352 1.359 . S
C353 H374 0.931 1_545 S
C354 C350 1.389 . S
C354 C352 1.364 . S
C354 H375 0.931 . S
C355 O366 1.256 . S
C355 O367 1.257 . S
O356 Gd336 2.361 1_556 S
O356 C338 1.225 1_556 S
O357 Gd337 2.395 . S
O357 C338 1.240 . S
O358 Gd336 2.448 1_656 S
O358 C339 1.249 . S
O359 Gd336 2.506 1_655 S
O359 C339 1.252 1_554 S
O360 Gd336 2.435 1_556 S
O360 C346 1.256 . S
O361 Gd336 2.717 1_556 S
O361 Gd337 2.327 1_556 S
O361 C346 1.257 . S
O362 Gd337 2.377 . S
O362 C347 1.240 1_545 S
O363 Gd336 2.395 1_565 S
O363 C347 1.240 . S
O364 Gd337 2.448 . S
O364 C348 1.249 . S
O365 Gd337 2.506 . S
O365 C348 1.252 . S
O366 Gd337 2.435 . S
O366 C355 1.256 . S
O367 Gd336 2.327 . S
O367 Gd337 2.717 . S
O367 C355 1.257 . S
H368 C341 0.930 . S
H369 C342 0.931 . S
H370 C344 0.931 . S
H371 C345 0.931 . S
H372 C350 0.930 . S
H373 C351 0.931 . S
H374 C353 0.931 1_565 S
H375 C354 0.931 . S
Gd376 C379 2.818 . S
Gd376 O396 2.377 . S
Gd376 O398 2.448 . S
Gd376 O399 2.506 . S
Gd376 O400 2.435 . S
Gd376 O401 2.717 . S
Gd376 O403 2.395 . S
Gd376 O407 2.327 . S
Gd377 C388 2.818 . S
Gd377 O397 2.395 . S
Gd377 O401 2.327 . S
Gd377 O402 2.377 . S
Gd377 O404 2.448 . S
Gd377 O405 2.506 . S
Gd377 O406 2.435 . S
Gd377 O407 2.717 . S
C378 O396 1.240 . S
C378 O397 1.240 . S
C379 Gd376 2.818 . S
C379 C380 1.510 . S
C379 O398 1.249 . S
C379 O399 1.252 . S
C380 C379 1.510 . S
C380 C381 1.404 . S
C380 C382 1.352 . S
C381 C380 1.404 . S
C381 C385 1.389 . S
C381 H408 0.930 . S
C382 C380 1.352 . S
C382 C384 1.374 . S
C382 H409 0.931 . S
C383 C384 1.359 . S
C383 C385 1.364 . S
C384 C382 1.374 . S
C384 C383 1.359 . S
C384 H410 0.931 . S
C385 C381 1.389 . S
C385 C383 1.364 . S
C385 H411 0.931 . S
C386 O400 1.256 . S
C386 O401 1.257 . S
C387 O402 1.240 . S
C387 O403 1.240 . S
C388 Gd377 2.818 . S
C388 C389 1.510 . S
C388 O404 1.249 . S
C388 O405 1.252 . S
C389 C388 1.510 . S
C389 C390 1.404 . S
C389 C391 1.352 . S
C390 C389 1.404 . S
C390 C394 1.389 . S
C390 H412 0.930 . S
C391 C389 1.352 . S
C391 C393 1.374 . S
C391 H413 0.931 . S
C392 C393 1.359 . S
C392 C394 1.364 . S
C393 C391 1.374 . S
C393 C392 1.359 . S
C393 H414 0.931 . S
C394 C390 1.389 . S
C394 C392 1.364 . S
C394 H415 0.931 . S
C395 O406 1.256 . S
C395 O407 1.257 . S
O396 Gd376 2.377 . S
O396 C378 1.240 . S
O397 Gd377 2.395 . S
O397 C378 1.240 . S
O398 Gd376 2.448 . S
O398 C379 1.249 . S
O399 Gd376 2.506 . S
O399 C379 1.252 . S
O400 Gd376 2.435 . S
O400 C386 1.256 . S
O401 Gd376 2.717 . S
O401 Gd377 2.327 . S
O401 C386 1.257 . S
O402 Gd377 2.377 . S
O402 C387 1.240 . S
O403 Gd376 2.395 . S
O403 C387 1.240 . S
O404 Gd377 2.448 . S
O404 C388 1.249 . S
O405 Gd377 2.506 . S
O405 C388 1.252 . S
O406 Gd377 2.435 . S
O406 C395 1.256 . S
O407 Gd376 2.327 . S
O407 Gd377 2.717 . S
O407 C395 1.257 . S
H408 C381 0.930 . S
H409 C382 0.931 . S
H410 C384 0.931 . S
H411 C385 0.931 . S
H412 C390 0.930 . S
H413 C391 0.931 . S
H414 C393 0.931 . S
H415 C394 0.931 . S
Gd416 C419 2.818 . S
Gd416 O436 2.399 . S
Gd416 O438 2.448 . S
Gd416 O439 2.506 . S
Gd416 O440 2.435 . S
Gd416 O441 2.717 . S
Gd416 O443 2.395 . S
Gd416 O447 2.327 . S
Gd417 C428 2.818 . S
Gd417 O437 2.395 1_545 S
Gd417 O441 2.327 . S
Gd417 O442 2.377 . S
Gd417 O444 2.448 . S
Gd417 O445 2.506 . S
Gd417 O446 2.435 . S
Gd417 O447 2.717 . S
C418 O436 1.227 1_565 S
C418 O437 1.240 . S
C419 Gd416 2.818 . S
C419 C420 1.469 1_545 S
C419 O438 1.249 . S
C419 O439 1.252 . S
C420 C419 1.469 1_565 S
C420 C421 1.405 . S
C420 C422 1.393 . S
C421 C420 1.405 . S
C421 C425 1.389 . S
C421 H448 0.930 1_565 S
C422 C420 1.393 . S
C422 C424 1.374 . S
C422 H449 0.931 . S
C423 C424 1.359 . S
C423 C425 1.364 . S
C424 C422 1.374 . S
C424 C423 1.359 . S
C424 H450 0.931 . S
C425 C421 1.389 . S
C425 C423 1.364 . S
C425 H451 0.931 . S
C426 O440 1.256 . S
C426 O441 1.257 . S
C427 O442 1.240 . S
C427 O443 1.240 . S
C428 Gd417 2.818 . S
C428 C429 1.510 . S
C428 O444 1.249 . S
C428 O445 1.252 . S
C429 C428 1.510 . S
C429 C430 1.404 . S
C429 C431 1.352 . S
C430 C429 1.404 . S
C430 C434 1.389 . S
C430 H452 0.930 . S
C431 C429 1.352 . S
C431 C433 1.374 . S
C431 H453 0.931 . S
C432 C433 1.359 . S
C432 C434 1.364 . S
C433 C431 1.374 . S
C433 C432 1.359 . S
C433 H454 0.931 . S
C434 C430 1.389 . S
C434 C432 1.364 . S
C434 H455 0.931 . S
C435 O446 1.256 . S
C435 O447 1.257 . S
O436 Gd416 2.399 . S
O436 C418 1.227 1_545 S
O437 Gd417 2.395 1_565 S
O437 C418 1.240 . S
O438 Gd416 2.448 . S
O438 C419 1.249 . S
O439 Gd416 2.506 . S
O439 C419 1.252 . S
O440 Gd416 2.435 . S
O440 C426 1.256 . S
O441 Gd416 2.717 . S
O441 Gd417 2.327 . S
O441 C426 1.257 . S
O442 Gd417 2.377 . S
O442 C427 1.240 . S
O443 Gd416 2.395 . S
O443 C427 1.240 . S
O444 Gd417 2.448 . S
O444 C428 1.249 . S
O445 Gd417 2.506 . S
O445 C428 1.252 . S
O446 Gd417 2.435 . S
O446 C435 1.256 . S
O447 Gd416 2.327 . S
O447 Gd417 2.717 . S
O447 C435 1.257 . S
H448 C421 0.930 1_545 S
H449 C422 0.931 . S
H450 C424 0.931 . S
H451 C425 0.931 . S
H452 C430 0.930 . S
H453 C431 0.931 . S
H454 C433 0.931 . S
H455 C434 0.931 . S
Gd456 C459 2.818 . S
Gd456 O476 2.377 . S
Gd456 O478 2.448 . S
Gd456 O479 2.506 . S
Gd456 O480 2.435 . S
Gd456 O481 2.717 . S
Gd456 O483 2.395 . S
Gd456 O487 2.327 . S
Gd457 C468 2.818 . S
Gd457 O477 2.395 . S
Gd457 O481 2.327 . S
Gd457 O482 2.377 . S
Gd457 O484 2.448 . S
Gd457 O485 2.506 . S
Gd457 O486 2.435 . S
Gd457 O487 2.717 . S
C458 O476 1.240 . S
C458 O477 1.240 . S
C459 Gd456 2.818 . S
C459 C460 1.510 . S
C459 O478 1.249 . S
C459 O479 1.252 . S
C460 C459 1.510 . S
C460 C461 1.404 . S
C460 C462 1.352 . S
C461 C460 1.404 . S
C461 C465 1.389 . S
C461 H488 0.930 . S
C462 C460 1.352 . S
C462 C464 1.374 . S
C462 H489 0.931 . S
C463 C464 1.359 . S
C463 C465 1.364 . S
C464 C462 1.374 . S
C464 C463 1.359 . S
C464 H490 0.931 . S
C465 C461 1.389 . S
C465 C463 1.364 . S
C465 H491 0.931 . S
C466 O480 1.256 . S
C466 O481 1.257 . S
C467 O482 1.240 . S
C467 O483 1.240 . S
C468 Gd457 2.818 . S
C468 C469 1.510 . S
C468 O484 1.249 . S
C468 O485 1.252 . S
C469 C468 1.510 . S
C469 C470 1.404 . S
C469 C471 1.352 . S
C470 C469 1.404 . S
C470 C474 1.389 . S
C470 H492 0.930 . S
C471 C469 1.352 . S
C471 C473 1.374 . S
C471 H493 0.931 . S
C472 C473 1.359 . S
C472 C474 1.364 . S
C473 C471 1.374 . S
C473 C472 1.359 . S
C473 H494 0.931 . S
C474 C470 1.389 . S
C474 C472 1.364 . S
C474 H495 0.931 . S
C475 O486 1.256 . S
C475 O487 1.257 . S
O476 Gd456 2.377 . S
O476 C458 1.240 . S
O477 Gd457 2.395 . S
O477 C458 1.240 . S
O478 Gd456 2.448 . S
O478 C459 1.249 . S
O479 Gd456 2.506 . S
O479 C459 1.252 . S
O480 Gd456 2.435 . S
O480 C466 1.256 . S
O481 Gd456 2.717 . S
O481 Gd457 2.327 . S
O481 C466 1.257 . S
O482 Gd457 2.377 . S
O482 C467 1.240 . S
O483 Gd456 2.395 . S
O483 C467 1.240 . S
O484 Gd457 2.448 . S
O484 C468 1.249 . S
O485 Gd457 2.506 . S
O485 C468 1.252 . S
O486 Gd457 2.435 . S
O486 C475 1.256 . S
O487 Gd456 2.327 . S
O487 Gd457 2.717 . S
O487 C475 1.257 . S
H488 C461 0.930 . S
H489 C462 0.931 . S
H490 C464 0.931 . S
H491 C465 0.931 . S
H492 C470 0.930 . S
H493 C471 0.931 . S
H494 C473 0.931 . S
H495 C474 0.931 . S
Gd496 C499 2.818 . S
Gd496 O516 2.377 . S
Gd496 O518 2.448 . S
Gd496 O519 2.506 . S
Gd496 O520 2.435 . S
Gd496 O521 2.717 . S
Gd496 O523 2.395 . S
Gd496 O527 2.327 . S
Gd497 C508 2.818 1_545 S
Gd497 O517 2.395 . S
Gd497 O521 2.327 . S
Gd497 O522 2.377 . S
Gd497 O524 2.448 1_545 S
Gd497 O525 2.506 1_545 S
Gd497 O526 2.435 . S
Gd497 O527 2.717 . S
C498 O516 1.240 . S
C498 O517 1.240 . S
C499 Gd496 2.818 . S
C499 C500 1.510 . S
C499 O518 1.249 . S
C499 O519 1.252 . S
C500 C499 1.510 . S
C500 C501 1.404 . S
C500 C502 1.352 . S
C501 C500 1.404 . S
C501 C505 1.389 . S
C501 H528 0.930 . S
C502 C500 1.352 . S
C502 C504 1.374 . S
C502 H529 0.931 . S
C503 C504 1.359 . S
C503 C505 1.364 . S
C504 C502 1.374 . S
C504 C503 1.359 . S
C504 H530 0.931 . S
C505 C501 1.389 . S
C505 C503 1.364 . S
C505 H531 0.931 . S
C506 O520 1.256 . S
C506 O521 1.257 . S
C507 O522 1.240 . S
C507 O523 1.240 . S
C508 Gd497 2.818 1_565 S
C508 C509 1.510 . S
C508 O524 1.249 . S
C508 O525 1.252 . S
C509 C508 1.510 . S
C509 C510 1.404 . S
C509 C511 1.352 . S
C510 C509 1.404 . S
C510 C514 1.389 . S
C510 H532 0.930 . S
C511 C509 1.352 . S
C511 C513 1.374 . S
C511 H533 0.931 . S
C512 C513 1.359 . S
C512 C514 1.364 . S
C513 C511 1.374 . S
C513 C512 1.359 . S
C513 H534 0.931 . S
C514 C510 1.389 . S
C514 C512 1.364 . S
C514 H535 0.931 . S
C515 O526 1.256 . S
C515 O527 1.257 . S
O516 Gd496 2.377 . S
O516 C498 1.240 . S
O517 Gd497 2.395 . S
O517 C498 1.240 . S
O518 Gd496 2.448 . S
O518 C499 1.249 . S
O519 Gd496 2.506 . S
O519 C499 1.252 . S
O520 Gd496 2.435 . S
O520 C506 1.256 . S
O521 Gd496 2.717 . S
O521 Gd497 2.327 . S
O521 C506 1.257 . S
O522 Gd497 2.377 . S
O522 C507 1.240 . S
O523 Gd496 2.395 . S
O523 C507 1.240 . S
O524 Gd497 2.448 1_565 S
O524 C508 1.249 . S
O525 Gd497 2.506 1_565 S
O525 C508 1.252 . S
O526 Gd497 2.435 . S
O526 C515 1.256 . S
O527 Gd496 2.327 . S
O527 Gd497 2.717 . S
O527 C515 1.257 . S
H528 C501 0.930 . S
H529 C502 0.931 . S
H530 C504 0.931 . S
H531 C505 0.931 . S
H532 C510 0.930 . S
H533 C511 0.931 . S
H534 C513 0.931 . S
H535 C514 0.931 . S
Gd536 C539 2.818 . S
Gd536 O556 2.377 . S
Gd536 O558 2.448 . S
Gd536 O559 2.506 . S
Gd536 O560 2.435 . S
Gd536 O561 2.717 . S
Gd536 O563 2.395 . S
Gd536 O567 2.327 . S
Gd537 C548 2.818 . S
Gd537 O557 2.395 . S
Gd537 O561 2.327 . S
Gd537 O562 2.377 . S
Gd537 O564 2.448 . S
Gd537 O565 2.506 . S
Gd537 O566 2.435 . S
Gd537 O567 2.717 . S
C538 O556 1.240 . S
C538 O557 1.240 . S
C539 Gd536 2.818 . S
C539 C540 1.510 . S
C539 O558 1.249 . S
C539 O559 1.252 . S
C540 C539 1.510 . S
C540 C541 1.404 . S
C540 C542 1.352 . S
C541 C540 1.404 . S
C541 C545 1.389 . S
C541 H568 0.930 . S
C542 C540 1.352 . S
C542 C544 1.374 . S
C542 H569 0.931 . S
C543 C544 1.359 . S
C543 C545 1.364 . S
C544 C542 1.374 . S
C544 C543 1.359 . S
C544 H570 0.931 . S
C545 C541 1.389 . S
C545 C543 1.364 . S
C545 H571 0.931 . S
C546 O560 1.256 . S
C546 O561 1.257 . S
C547 O562 1.240 . S
C547 O563 1.240 . S
C548 Gd537 2.818 . S
C548 C549 1.510 . S
C548 O564 1.249 . S
C548 O565 1.252 . S
C549 C548 1.510 . S
C549 C550 1.404 . S
C549 C551 1.352 . S
C550 C549 1.404 . S
C550 C554 1.389 . S
C550 H572 0.930 . S
C551 C549 1.352 . S
C551 C553 1.374 . S
C551 H573 0.931 . S
C552 C553 1.359 . S
C552 C554 1.364 . S
C553 C551 1.374 . S
C553 C552 1.359 . S
C553 H574 0.931 . S
C554 C550 1.389 . S
C554 C552 1.364 . S
C554 H575 0.931 . S
C555 O566 1.256 . S
C555 O567 1.257 . S
O556 Gd536 2.377 . S
O556 C538 1.240 . S
O557 Gd537 2.395 . S
O557 C538 1.240 . S
O558 Gd536 2.448 . S
O558 C539 1.249 . S
O559 Gd536 2.506 . S
O559 C539 1.252 . S
O560 Gd536 2.435 . S
O560 C546 1.256 . S
O561 Gd536 2.717 . S
O561 Gd537 2.327 . S
O561 C546 1.257 . S
O562 Gd537 2.377 . S
O562 C547 1.240 . S
O563 Gd536 2.395 . S
O563 C547 1.240 . S
O564 Gd537 2.448 . S
O564 C548 1.249 . S
O565 Gd537 2.506 . S
O565 C548 1.252 . S
O566 Gd537 2.435 . S
O566 C555 1.256 . S
O567 Gd536 2.327 . S
O567 Gd537 2.717 . S
O567 C555 1.257 . S
H568 C541 0.930 . S
H569 C542 0.931 . S
H570 C544 0.931 . S
H571 C545 0.931 . S
H572 C550 0.930 . S
H573 C551 0.931 . S
H574 C553 0.931 . S
H575 C554 0.931 . S
Gd576 C579 2.818 . S
Gd576 O596 2.377 . S
Gd576 O598 2.448 . S
Gd576 O599 2.506 . S
Gd576 O600 2.435 . S
Gd576 O601 2.717 1_554 S
Gd576 O603 2.395 . S
Gd576 O607 2.327 . S
Gd577 C588 2.818 . S
Gd577 O597 2.395 . S
Gd577 O601 2.327 . S
Gd577 O602 2.377 . S
Gd577 O604 2.448 . S
Gd577 O605 2.506 . S
Gd577 O606 2.435 . S
Gd577 O607 2.717 1_556 S
C578 O596 1.240 . S
C578 O597 1.240 1_554 S
C579 Gd576 2.818 . S
C579 C580 1.510 . S
C579 O598 1.249 . S
C579 O599 1.252 . S
C580 C579 1.510 . S
C580 C581 1.399 . S
C580 C582 1.352 . S
C581 C580 1.399 . S
C581 C585 1.390 1_545 S
C581 H608 0.933 1_545 S
C582 C580 1.352 . S
C582 C584 1.374 . S
C582 H609 0.931 . S
C583 C584 1.359 . S
C583 C585 1.364 1_545 S
C584 C582 1.374 . S
C584 C583 1.359 . S
C584 H610 0.931 . S
C585 C581 1.390 1_565 S
C585 C583 1.364 1_565 S
C585 H611 0.931 . S
C586 O600 1.256 1_556 S
C586 O601 1.257 . S
C587 O602 1.240 1_554 S
C587 O603 1.240 . S
C588 Gd577 2.818 . S
C588 C589 1.510 . S
C588 O604 1.249 . S
C588 O605 1.252 . S
C589 C588 1.510 . S
C589 C590 1.404 . S
C589 C591 1.352 . S
C590 C589 1.404 . S
C590 C594 1.389 . S
C590 H612 0.930 . S
C591 C589 1.352 . S
C591 C593 1.374 . S
C591 H613 0.931 . S
C592 C593 1.359 . S
C592 C594 1.364 . S
C593 C591 1.374 . S
C593 C592 1.359 . S
C593 H614 0.931 . S
C594 C590 1.389 . S
C594 C592 1.364 . S
C594 H615 0.931 . S
C595 O606 1.256 1_554 S
C595 O607 1.257 . S
O596 Gd576 2.377 . S
O596 C578 1.240 . S
O597 Gd577 2.395 . S
O597 C578 1.240 1_556 S
O598 Gd576 2.448 . S
O598 C579 1.249 . S
O599 Gd576 2.506 . S
O599 C579 1.252 . S
O600 Gd576 2.435 . S
O600 C586 1.256 1_554 S
O601 Gd576 2.717 1_556 S
O601 Gd577 2.327 . S
O601 C586 1.257 . S
O602 Gd577 2.377 . S
O602 C587 1.240 1_556 S
O603 Gd576 2.395 . S
O603 C587 1.240 . S
O604 Gd577 2.448 . S
O604 C588 1.249 . S
O605 Gd577 2.506 . S
O605 C588 1.252 . S
O606 Gd577 2.435 . S
O606 C595 1.256 1_556 S
O607 Gd576 2.327 . S
O607 Gd577 2.717 1_554 S
O607 C595 1.257 . S
H608 C581 0.933 1_565 S
H609 C582 0.931 . S
H610 C584 0.931 . S
H611 C585 0.931 . S
H612 C590 0.930 . S
H613 C591 0.931 . S
H614 C593 0.931 . S
H615 C594 0.931 . S
Gd616 C619 2.818 . S
Gd616 O636 2.377 . S
Gd616 O638 2.448 . S
Gd616 O639 2.506 . S
Gd616 O640 2.435 . S
Gd616 O641 2.717 . S
Gd616 O643 2.395 . S
Gd616 O647 2.327 . S
Gd617 C628 2.818 . S
Gd617 O637 2.395 . S
Gd617 O641 2.327 . S
Gd617 O642 2.377 . S
Gd617 O644 2.448 . S
Gd617 O645 2.506 . S
Gd617 O646 2.435 . S
Gd617 O647 2.717 . S
C618 O636 1.240 . S
C618 O637 1.240 . S
C619 Gd616 2.818 . S
C619 C620 1.510 . S
C619 O638 1.249 . S
C619 O639 1.252 . S
C620 C619 1.510 . S
C620 C621 1.404 . S
C620 C622 1.352 . S
C621 C620 1.404 . S
C621 C625 1.389 . S
C621 H648 0.930 . S
C622 C620 1.352 . S
C622 C624 1.374 . S
C622 H649 0.931 . S
C623 C624 1.359 . S
C623 C625 1.364 . S
C624 C622 1.374 . S
C624 C623 1.359 . S
C624 H650 0.931 . S
C625 C621 1.389 . S
C625 C623 1.364 . S
C625 H651 0.931 . S
C626 O640 1.256 . S
C626 O641 1.257 . S
C627 O642 1.240 . S
C627 O643 1.240 . S
C628 Gd617 2.818 . S
C628 C629 1.510 . S
C628 O644 1.249 . S
C628 O645 1.252 . S
C629 C628 1.510 . S
C629 C630 1.404 . S
C629 C631 1.352 . S
C630 C629 1.404 . S
C630 C634 1.389 . S
C630 H652 0.930 . S
C631 C629 1.352 . S
C631 C633 1.374 . S
C631 H653 0.931 . S
C632 C633 1.359 . S
C632 C634 1.364 . S
C633 C631 1.374 . S
C633 C632 1.359 . S
C633 H654 0.931 . S
C634 C630 1.389 . S
C634 C632 1.364 . S
C634 H655 0.931 . S
C635 O646 1.256 . S
C635 O647 1.257 . S
O636 Gd616 2.377 . S
O636 C618 1.240 . S
O637 Gd617 2.395 . S
O637 C618 1.240 . S
O638 Gd616 2.448 . S
O638 C619 1.249 . S
O639 Gd616 2.506 . S
O639 C619 1.252 . S
O640 Gd616 2.435 . S
O640 C626 1.256 . S
O641 Gd616 2.717 . S
O641 Gd617 2.327 . S
O641 C626 1.257 . S
O642 Gd617 2.377 . S
O642 C627 1.240 . S
O643 Gd616 2.395 . S
O643 C627 1.240 . S
O644 Gd617 2.448 . S
O644 C628 1.249 . S
O645 Gd617 2.506 . S
O645 C628 1.252 . S
O646 Gd617 2.435 . S
O646 C635 1.256 . S
O647 Gd616 2.327 . S
O647 Gd617 2.717 . S
O647 C635 1.257 . S
H648 C621 0.930 . S
H649 C622 0.931 . S
H650 C624 0.931 . S
H651 C625 0.931 . S
H652 C630 0.930 . S
H653 C631 0.931 . S
H654 C633 0.931 . S
H655 C634 0.931 . S
Gd656 C659 2.818 1_554 S
Gd656 O676 2.377 1_554 S
Gd656 O678 2.448 . S
Gd656 O679 2.506 1_554 S
Gd656 O680 2.435 . S
Gd656 O681 2.717 . S
Gd656 O683 2.395 . S
Gd656 O687 2.327 . S
Gd657 C668 2.818 1_556 S
Gd657 O677 2.395 . S
Gd657 O681 2.327 1_556 S
Gd657 O682 2.377 1_556 S
Gd657 O684 2.448 1_556 S
Gd657 O685 2.506 1_556 S
Gd657 O686 2.426 . S
Gd657 O687 2.717 1_556 S
C658 O676 1.240 . S
C658 O677 1.240 . S
C659 Gd656 2.818 1_556 S
C659 C660 1.510 . S
C659 O678 1.249 1_556 S
C659 O679 1.252 . S
C660 C659 1.510 . S
C660 C661 1.404 . S
C660 C662 1.352 . S
C661 C660 1.404 . S
C661 C665 1.389 . S
C661 H688 0.957 . S
C662 C660 1.352 . S
C662 C664 1.374 . S
C662 H689 0.931 . S
C663 C664 1.359 . S
C663 C665 1.364 . S
C664 C662 1.374 . S
C664 C663 1.359 . S
C664 H690 0.931 . S
C665 C661 1.389 . S
C665 C663 1.364 . S
C665 H691 0.931 . S
C666 O680 1.256 . S
C666 O681 1.257 . S
C667 O682 1.240 . S
C667 O683 1.240 . S
C668 Gd657 2.818 1_554 S
C668 C669 1.510 . S
C668 O684 1.249 . S
C668 O685 1.252 . S
C669 C668 1.510 . S
C669 C670 1.404 . S
C669 C671 1.352 . S
C670 C669 1.404 . S
C670 C674 1.389 . S
C670 H692 0.930 . S
C671 C669 1.352 . S
C671 C673 1.374 . S
C671 H693 0.931 . S
C672 C673 1.359 . S
C672 C674 1.364 . S
C673 C671 1.374 . S
C673 C672 1.359 . S
C673 H694 0.931 . S
C674 C670 1.389 . S
C674 C672 1.364 . S
C674 H695 0.931 . S
C675 O686 1.257 1_554 S
C675 O687 1.257 . S
O676 Gd656 2.377 1_556 S
O676 C658 1.240 . S
O677 Gd657 2.395 . S
O677 C658 1.240 . S
O678 Gd656 2.448 . S
O678 C659 1.249 1_554 S
O679 Gd656 2.506 1_556 S
O679 C659 1.252 . S
O680 Gd656 2.435 . S
O680 C666 1.256 . S
O681 Gd656 2.717 . S
O681 Gd657 2.327 1_554 S
O681 C666 1.257 . S
O682 Gd657 2.377 1_554 S
O682 C667 1.240 . S
O683 Gd656 2.395 . S
O683 C667 1.240 . S
O684 Gd657 2.448 1_554 S
O684 C668 1.249 . S
O685 Gd657 2.506 1_554 S
O685 C668 1.252 . S
O686 Gd657 2.426 . S
O686 C675 1.257 1_556 S
O687 Gd656 2.327 . S
O687 Gd657 2.717 1_554 S
O687 C675 1.257 . S
H688 C661 0.957 . S
H689 C662 0.931 . S
H690 C664 0.931 . S
H691 C665 0.931 . S
H692 C670 0.930 . S
H693 C671 0.931 . S
H694 C673 0.931 . S
H695 C674 0.931 . S
Gd696 C699 2.818 . S
Gd696 O716 2.377 . S
Gd696 O718 2.448 . S
Gd696 O719 2.506 . S
Gd696 O720 2.435 . S
Gd696 O721 2.717 . S
Gd696 O723 2.395 . S
Gd696 O727 2.327 . S
Gd697 C708 2.818 . S
Gd697 O717 2.395 . S
Gd697 O721 2.327 . S
Gd697 O722 2.377 . S
Gd697 O724 2.448 . S
Gd697 O725 2.506 . S
Gd697 O726 2.435 . S
Gd697 O727 2.717 . S
C698 O716 1.240 . S
C698 O717 1.240 . S
C699 Gd696 2.818 . S
C699 C700 1.510 . S
C699 O718 1.249 . S
C699 O719 1.252 . S
C700 C699 1.510 . S
C700 C701 1.404 . S
C700 C702 1.352 . S
C701 C700 1.404 . S
C701 C705 1.389 . S
C701 H728 0.930 . S
C702 C700 1.352 . S
C702 C704 1.374 . S
C702 H729 0.931 . S
C703 C704 1.359 . S
C703 C705 1.364 . S
C704 C702 1.374 . S
C704 C703 1.359 . S
C704 H730 0.931 . S
C705 C701 1.389 . S
C705 C703 1.364 . S
C705 H731 0.931 . S
C706 O720 1.256 . S
C706 O721 1.257 . S
C707 O722 1.240 . S
C707 O723 1.240 . S
C708 Gd697 2.818 . S
C708 C709 1.510 . S
C708 O724 1.249 . S
C708 O725 1.252 . S
C709 C708 1.510 . S
C709 C710 1.404 . S
C709 C711 1.352 . S
C710 C709 1.404 . S
C710 C714 1.389 . S
C710 H732 0.930 . S
C711 C709 1.352 . S
C711 C713 1.374 . S
C711 H733 0.931 . S
C712 C713 1.359 . S
C712 C714 1.364 . S
C713 C711 1.374 . S
C713 C712 1.359 . S
C713 H734 0.931 . S
C714 C710 1.389 . S
C714 C712 1.364 . S
C714 H735 0.931 . S
C715 O726 1.256 . S
C715 O727 1.257 . S
O716 Gd696 2.377 . S
O716 C698 1.240 . S
O717 Gd697 2.395 . S
O717 C698 1.240 . S
O718 Gd696 2.448 . S
O718 C699 1.249 . S
O719 Gd696 2.506 . S
O719 C699 1.252 . S
O720 Gd696 2.435 . S
O720 C706 1.256 . S
O721 Gd696 2.717 . S
O721 Gd697 2.327 . S
O721 C706 1.257 . S
O722 Gd697 2.377 . S
O722 C707 1.240 . S
O723 Gd696 2.395 . S
O723 C707 1.240 . S
O724 Gd697 2.448 . S
O724 C708 1.249 . S
O725 Gd697 2.506 . S
O725 C708 1.252 . S
O726 Gd697 2.435 . S
O726 C715 1.256 . S
O727 Gd696 2.327 . S
O727 Gd697 2.717 . S
O727 C715 1.257 . S
H728 C701 0.930 . S
H729 C702 0.931 . S
H730 C704 0.931 . S
H731 C705 0.931 . S
H732 C710 0.930 . S
H733 C711 0.931 . S
H734 C713 0.931 . S
H735 C714 0.931 . S
Gd736 C739 2.818 . S
Gd736 O756 2.377 . S
Gd736 O758 2.448 . S
Gd736 O759 2.506 . S
Gd736 O760 2.435 . S
Gd736 O761 2.717 . S
Gd736 O763 2.395 . S
Gd736 O767 2.327 . S
Gd737 C748 2.818 . S
Gd737 O757 2.444 . S
Gd737 O761 2.327 . S
Gd737 O762 2.377 . S
Gd737 O764 2.448 . S
Gd737 O765 2.506 . S
Gd737 O766 2.435 . S
Gd737 O767 2.717 . S
C738 O756 1.240 1_655 S
C738 O757 1.231 1_655 S
C739 Gd736 2.818 . S
C739 C740 1.510 . S
C739 O758 1.249 . S
C739 O759 1.252 . S
C740 C739 1.510 . S
C740 C741 1.404 . S
C740 C742 1.352 1_455 S
C741 C740 1.404 . S
C741 C745 1.389 1_455 S
C741 H768 0.930 . S
C742 C740 1.352 1_655 S
C742 C744 1.374 . S
C742 H769 0.931 . S
C743 C744 1.359 . S
C743 C745 1.364 . S
C744 C742 1.374 . S
C744 C743 1.359 . S
C744 H770 0.931 . S
C745 C741 1.389 1_655 S
C745 C743 1.364 . S
C745 H771 0.931 . S
C746 O760 1.256 . S
C746 O761 1.257 . S
C747 O762 1.240 . S
C747 O763 1.240 . S
C748 Gd737 2.818 . S
C748 C749 1.510 . S
C748 O764 1.249 . S
C748 O765 1.252 . S
C749 C748 1.510 . S
C749 C750 1.404 . S
C749 C751 1.352 . S
C750 C749 1.404 . S
C750 C754 1.389 . S
C750 H772 0.930 . S
C751 C749 1.352 . S
C751 C753 1.374 . S
C751 H773 0.931 . S
C752 C753 1.359 . S
C752 C754 1.364 . S
C753 C751 1.374 . S
C753 C752 1.359 . S
C753 H774 0.931 . S
C754 C750 1.389 . S
C754 C752 1.364 . S
C754 H775 0.931 . S
C755 O766 1.256 . S
C755 O767 1.257 . S
O756 Gd736 2.377 . S
O756 C738 1.240 1_455 S
O757 Gd737 2.444 . S
O757 C738 1.231 1_455 S
O758 Gd736 2.448 . S
O758 C739 1.249 . S
O759 Gd736 2.506 . S
O759 C739 1.252 . S
O760 Gd736 2.435 . S
O760 C746 1.256 . S
O761 Gd736 2.717 . S
O761 Gd737 2.327 . S
O761 C746 1.257 . S
O762 Gd737 2.377 . S
O762 C747 1.240 . S
O763 Gd736 2.395 . S
O763 C747 1.240 . S
O764 Gd737 2.448 . S
O764 C748 1.249 . S
O765 Gd737 2.506 . S
O765 C748 1.252 . S
O766 Gd737 2.435 . S
O766 C755 1.256 . S
O767 Gd736 2.327 . S
O767 Gd737 2.717 . S
O767 C755 1.257 . S
H768 C741 0.930 . S
H769 C742 0.931 . S
H770 C744 0.931 . S
H771 C745 0.931 . S
H772 C750 0.930 . S
H773 C751 0.931 . S
H774 C753 0.931 . S
H775 C754 0.931 . S
Gd776 C779 2.818 . S
Gd776 O796 2.377 . S
Gd776 O798 2.448 . S
Gd776 O799 2.506 . S
Gd776 O800 2.435 . S
Gd776 O801 2.717 . S
Gd776 O803 2.395 . S
Gd776 O807 2.327 . S
Gd777 C788 2.818 . S
Gd777 O797 2.395 . S
Gd777 O801 2.327 . S
Gd777 O802 2.377 . S
Gd777 O804 2.448 . S
Gd777 O805 2.506 . S
Gd777 O806 2.435 . S
Gd777 O807 2.717 . S
C778 O796 1.240 . S
C778 O797 1.240 . S
C779 Gd776 2.818 . S
C779 C780 1.510 . S
C779 O798 1.249 . S
C779 O799 1.252 . S
C780 C779 1.510 . S
C780 C781 1.404 . S
C780 C782 1.352 . S
C781 C780 1.404 . S
C781 C785 1.389 . S
C781 H808 0.930 . S
C782 C780 1.352 . S
C782 C784 1.374 . S
C782 H809 0.931 . S
C783 C784 1.359 . S
C783 C785 1.364 . S
C784 C782 1.374 . S
C784 C783 1.359 . S
C784 H810 0.931 . S
C785 C781 1.389 . S
C785 C783 1.364 . S
C785 H811 0.931 . S
C786 O800 1.256 . S
C786 O801 1.257 . S
C787 O802 1.240 . S
C787 O803 1.240 . S
C788 Gd777 2.818 . S
C788 C789 1.510 . S
C788 O804 1.249 . S
C788 O805 1.252 . S
C789 C788 1.510 . S
C789 C790 1.404 . S
C789 C791 1.352 . S
C790 C789 1.404 . S
C790 C794 1.389 . S
C790 H812 0.930 . S
C791 C789 1.352 . S
C791 C793 1.374 . S
C791 H813 0.931 . S
C792 C793 1.359 . S
C792 C794 1.364 . S
C793 C791 1.374 . S
C793 C792 1.359 . S
C793 H814 0.931 . S
C794 C790 1.389 . S
C794 C792 1.364 . S
C794 H815 0.931 . S
C795 O806 1.256 . S
C795 O807 1.257 . S
O796 Gd776 2.377 . S
O796 C778 1.240 . S
O797 Gd777 2.395 . S
O797 C778 1.240 . S
O798 Gd776 2.448 . S
O798 C779 1.249 . S
O799 Gd776 2.506 . S
O799 C779 1.252 . S
O800 Gd776 2.435 . S
O800 C786 1.256 . S
O801 Gd776 2.717 . S
O801 Gd777 2.327 . S
O801 C786 1.257 . S
O802 Gd777 2.377 . S
O802 C787 1.240 . S
O803 Gd776 2.395 . S
O803 C787 1.240 . S
O804 Gd777 2.448 . S
O804 C788 1.249 . S
O805 Gd777 2.506 . S
O805 C788 1.252 . S
O806 Gd777 2.435 . S
O806 C795 1.256 . S
O807 Gd776 2.327 . S
O807 Gd777 2.717 . S
O807 C795 1.257 . S
H808 C781 0.930 . S
H809 C782 0.931 . S
H810 C784 0.931 . S
H811 C785 0.931 . S
H812 C790 0.930 . S
H813 C791 0.931 . S
H814 C793 0.931 . S
H815 C794 0.931 . S
Gd816 C819 2.818 . S
Gd816 O836 2.377 . S
Gd816 O838 2.448 . S
Gd816 O839 2.506 . S
Gd816 O840 2.435 . S
Gd816 O841 2.717 . S
Gd816 O843 2.395 . S
Gd816 O847 2.327 . S
Gd817 C828 2.818 . S
Gd817 O837 2.395 . S
Gd817 O841 2.327 . S
Gd817 O842 2.377 . S
Gd817 O844 2.448 . S
Gd817 O845 2.506 . S
Gd817 O846 2.435 . S
Gd817 O847 2.717 . S
C818 O836 1.240 . S
C818 O837 1.240 . S
C819 Gd816 2.818 . S
C819 C820 1.510 . S
C819 O838 1.249 . S
C819 O839 1.252 . S
C820 C819 1.510 . S
C820 C821 1.404 . S
C820 C822 1.352 . S
C821 C820 1.404 . S
C821 C825 1.389 . S
C821 H848 0.930 . S
C822 C820 1.352 . S
C822 C824 1.374 . S
C822 H849 0.931 . S
C823 C824 1.359 . S
C823 C825 1.364 . S
C824 C822 1.374 . S
C824 C823 1.359 . S
C824 H850 0.931 . S
C825 C821 1.389 . S
C825 C823 1.364 . S
C825 H851 0.931 . S
C826 O840 1.256 . S
C826 O841 1.257 . S
C827 O842 1.240 . S
C827 O843 1.240 . S
C828 Gd817 2.818 . S
C828 C829 1.510 . S
C828 O844 1.249 . S
C828 O845 1.252 . S
C829 C828 1.510 . S
C829 C830 1.404 . S
C829 C831 1.352 . S
C830 C829 1.404 . S
C830 C834 1.389 . S
C830 H852 0.930 . S
C831 C829 1.352 . S
C831 C833 1.374 . S
C831 H853 0.931 . S
C832 C833 1.359 . S
C832 C834 1.364 . S
C833 C831 1.374 . S
C833 C832 1.359 . S
C833 H854 0.931 . S
C834 C830 1.389 . S
C834 C832 1.364 . S
C834 H855 0.931 . S
C835 O846 1.256 . S
C835 O847 1.257 . S
O836 Gd816 2.377 . S
O836 C818 1.240 . S
O837 Gd817 2.395 . S
O837 C818 1.240 . S
O838 Gd816 2.448 . S
O838 C819 1.249 . S
O839 Gd816 2.506 . S
O839 C819 1.252 . S
O840 Gd816 2.435 . S
O840 C826 1.256 . S
O841 Gd816 2.717 . S
O841 Gd817 2.327 . S
O841 C826 1.257 . S
O842 Gd817 2.377 . S
O842 C827 1.240 . S
O843 Gd816 2.395 . S
O843 C827 1.240 . S
O844 Gd817 2.448 . S
O844 C828 1.249 . S
O845 Gd817 2.506 . S
O845 C828 1.252 . S
O846 Gd817 2.435 . S
O846 C835 1.256 . S
O847 Gd816 2.327 . S
O847 Gd817 2.717 . S
O847 C835 1.257 . S
H848 C821 0.930 . S
H849 C822 0.931 . S
H850 C824 0.931 . S
H851 C825 0.931 . S
H852 C830 0.930 . S
H853 C831 0.931 . S
H854 C833 0.931 . S
H855 C834 0.931 . S
Gd856 C859 2.818 . S
Gd856 O876 2.377 . S
Gd856 O878 2.448 . S
Gd856 O879 2.506 . S
Gd856 O880 2.435 . S
Gd856 O881 2.717 . S
Gd856 O883 2.395 . S
Gd856 O887 2.327 . S
Gd857 C868 2.818 . S
Gd857 O877 2.395 . S
Gd857 O881 2.327 . S
Gd857 O882 2.377 . S
Gd857 O884 2.448 . S
Gd857 O885 2.506 . S
Gd857 O886 2.435 . S
Gd857 O887 2.717 . S
C858 O876 1.240 . S
C858 O877 1.240 . S
C859 Gd856 2.818 . S
C859 C860 1.510 . S
C859 O878 1.249 . S
C859 O879 1.252 . S
C860 C859 1.510 . S
C860 C861 1.404 . S
C860 C862 1.352 . S
C861 C860 1.404 . S
C861 C865 1.389 . S
C861 H888 0.930 . S
C862 C860 1.352 . S
C862 C864 1.374 . S
C862 H889 0.931 . S
C863 C864 1.359 . S
C863 C865 1.364 . S
C864 C862 1.374 . S
C864 C863 1.359 . S
C864 H890 0.931 . S
C865 C861 1.389 . S
C865 C863 1.364 . S
C865 H891 0.931 . S
C866 O880 1.256 . S
C866 O881 1.257 . S
C867 O882 1.240 . S
C867 O883 1.240 . S
C868 Gd857 2.818 . S
C868 C869 1.510 . S
C868 O884 1.249 . S
C868 O885 1.252 . S
C869 C868 1.510 . S
C869 C870 1.404 . S
C869 C871 1.352 . S
C870 C869 1.404 . S
C870 C874 1.389 . S
C870 H892 0.930 . S
C871 C869 1.352 . S
C871 C873 1.374 . S
C871 H893 0.931 . S
C872 C873 1.359 . S
C872 C874 1.364 . S
C873 C871 1.374 . S
C873 C872 1.359 . S
C873 H894 0.931 . S
C874 C870 1.389 . S
C874 C872 1.364 . S
C874 H895 0.931 . S
C875 O886 1.256 . S
C875 O887 1.257 . S
O876 Gd856 2.377 . S
O876 C858 1.240 . S
O877 Gd857 2.395 . S
O877 C858 1.240 . S
O878 Gd856 2.448 . S
O878 C859 1.249 . S
O879 Gd856 2.506 . S
O879 C859 1.252 . S
O880 Gd856 2.435 . S
O880 C866 1.256 . S
O881 Gd856 2.717 . S
O881 Gd857 2.327 . S
O881 C866 1.257 . S
O882 Gd857 2.377 . S
O882 C867 1.240 . S
O883 Gd856 2.395 . S
O883 C867 1.240 . S
O884 Gd857 2.448 . S
O884 C868 1.249 . S
O885 Gd857 2.506 . S
O885 C868 1.252 . S
O886 Gd857 2.435 . S
O886 C875 1.256 . S
O887 Gd856 2.327 . S
O887 Gd857 2.717 . S
O887 C875 1.257 . S
H888 C861 0.930 . S
H889 C862 0.931 . S
H890 C864 0.931 . S
H891 C865 0.931 . S
H892 C870 0.930 . S
H893 C871 0.931 . S
H894 C873 0.931 . S
H895 C874 0.931 . S
Gd896 C899 2.818 . S
Gd896 O916 2.377 . S
Gd896 O918 2.448 . S
Gd896 O919 2.506 . S
Gd896 O920 2.435 . S
Gd896 O921 2.717 . S
Gd896 O923 2.395 . S
Gd896 O927 2.327 . S
Gd897 C908 2.818 . S
Gd897 O917 2.395 . S
Gd897 O921 2.327 . S
Gd897 O922 2.377 . S
Gd897 O924 2.448 . S
Gd897 O925 2.506 . S
Gd897 O926 2.435 . S
Gd897 O927 2.717 . S
C898 O916 1.240 . S
C898 O917 1.240 . S
C899 Gd896 2.818 . S
C899 C900 1.510 . S
C899 O918 1.249 . S
C899 O919 1.252 . S
C900 C899 1.510 . S
C900 C901 1.404 . S
C900 C902 1.352 . S
C901 C900 1.404 . S
C901 C905 1.389 . S
C901 H928 0.930 . S
C902 C900 1.352 . S
C902 C904 1.374 . S
C902 H929 0.931 . S
C903 C904 1.359 . S
C903 C905 1.364 . S
C904 C902 1.374 . S
C904 C903 1.359 . S
C904 H930 0.931 . S
C905 C901 1.389 . S
C905 C903 1.364 . S
C905 H931 0.931 . S
C906 O920 1.256 . S
C906 O921 1.257 . S
C907 O922 1.240 . S
C907 O923 1.240 . S
C908 Gd897 2.818 . S
C908 C909 1.510 . S
C908 O924 1.249 . S
C908 O925 1.252 . S
C909 C908 1.510 . S
C909 C910 1.404 . S
C909 C911 1.352 . S
C910 C909 1.404 . S
C910 C914 1.389 . S
C910 H932 0.930 . S
C911 C909 1.352 . S
C911 C913 1.374 . S
C911 H933 0.931 . S
C912 C913 1.359 . S
C912 C914 1.364 . S
C913 C911 1.374 . S
C913 C912 1.359 . S
C913 H934 0.931 . S
C914 C910 1.389 . S
C914 C912 1.364 . S
C914 H935 0.931 . S
C915 O926 1.256 . S
C915 O927 1.257 . S
O916 Gd896 2.377 . S
O916 C898 1.240 . S
O917 Gd897 2.395 . S
O917 C898 1.240 . S
O918 Gd896 2.448 . S
O918 C899 1.249 . S
O919 Gd896 2.506 . S
O919 C899 1.252 . S
O920 Gd896 2.435 . S
O920 C906 1.256 . S
O921 Gd896 2.717 . S
O921 Gd897 2.327 . S
O921 C906 1.257 . S
O922 Gd897 2.377 . S
O922 C907 1.240 . S
O923 Gd896 2.395 . S
O923 C907 1.240 . S
O924 Gd897 2.448 . S
O924 C908 1.249 . S
O925 Gd897 2.506 . S
O925 C908 1.252 . S
O926 Gd897 2.435 . S
O926 C915 1.256 . S
O927 Gd896 2.327 . S
O927 Gd897 2.717 . S
O927 C915 1.257 . S
H928 C901 0.930 . S
H929 C902 0.931 . S
H930 C904 0.931 . S
H931 C905 0.931 . S
H932 C910 0.930 . S
H933 C911 0.931 . S
H934 C913 0.931 . S
H935 C914 0.931 . S
Gd936 C939 2.811 1_554 S
Gd936 O956 2.377 1_554 S
Gd936 O958 2.448 1_554 S
Gd936 O959 2.506 . S
Gd936 O960 2.435 1_554 S
Gd936 O961 2.717 1_554 S
Gd936 O963 2.395 . S
Gd936 O967 2.327 . S
Gd937 C948 2.818 1_455 S
Gd937 O957 2.395 . S
Gd937 O961 2.327 1_554 S
Gd937 O962 2.377 . S
Gd937 O964 2.448 1_455 S
Gd937 O965 2.506 1_455 S
Gd937 O966 2.435 . S
Gd937 O967 2.717 . S
C938 O956 1.240 1_554 S
C938 O957 1.240 . S
C939 Gd936 2.811 1_556 S
C939 C940 1.520 . S
C939 O958 1.301 . S
C939 O959 1.191 1_556 S
C940 C939 1.520 . S
C940 C941 1.404 . S
C940 C942 1.352 1_556 S
C941 C940 1.404 . S
C941 C945 1.389 . S
C941 H968 0.930 . S
C942 C940 1.352 1_554 S
C942 C944 1.374 . S
C942 H969 0.931 . S
C943 C944 1.359 1_556 S
C943 C945 1.364 . S
C944 C942 1.374 . S
C944 C943 1.359 1_554 S
C944 H970 0.931 . S
C945 C941 1.389 . S
C945 C943 1.364 . S
C945 H971 0.931 . S
C946 O960 1.256 . S
C946 O961 1.257 . S
C947 O962 1.240 . S
C947 O963 1.240 . S
C948 Gd937 2.818 1_655 S
C948 C949 1.510 . S
C948 O964 1.249 . S
C948 O965 1.252 . S
C949 C948 1.510 . S
C949 C950 1.404 . S
C949 C951 1.352 . S
C950 C949 1.404 . S
C950 C954 1.389 . S
C950 H972 0.930 . S
C951 C949 1.352 . S
C951 C953 1.374 . S
C951 H973 0.931 . S
C952 C953 1.359 . S
C952 C954 1.364 . S
C953 C951 1.374 . S
C953 C952 1.359 . S
C953 H974 0.931 . S
C954 C950 1.389 . S
C954 C952 1.364 . S
C954 H975 0.931 . S
C955 O966 1.256 . S
C955 O967 1.257 . S
O956 Gd936 2.377 1_556 S
O956 C938 1.240 1_556 S
O957 Gd937 2.395 . S
O957 C938 1.240 . S
O958 Gd936 2.448 1_556 S
O958 C939 1.301 . S
O959 Gd936 2.506 . S
O959 C939 1.191 1_554 S
O960 Gd936 2.435 1_556 S
O960 C946 1.256 . S
O961 Gd936 2.717 1_556 S
O961 Gd937 2.327 1_556 S
O961 C946 1.257 . S
O962 Gd937 2.377 . S
O962 C947 1.240 . S
O963 Gd936 2.395 . S
O963 C947 1.240 . S
O964 Gd937 2.448 1_655 S
O964 C948 1.249 . S
O965 Gd937 2.506 1_655 S
O965 C948 1.252 . S
O966 Gd937 2.435 . S
O966 C955 1.256 . S
O967 Gd936 2.327 . S
O967 Gd937 2.717 . S
O967 C955 1.257 . S
H968 C941 0.930 . S
H969 C942 0.931 . S
H970 C944 0.931 . S
H971 C945 0.931 . S
H972 C950 0.930 . S
H973 C951 0.931 . S
H974 C953 0.931 . S
H975 C954 0.931 . S
H976 C994 0.951 1_655 S
H977 C996 0.951 . S
H978 C998 0.950 . S
H979 C999 0.950 . S
H980 C1001 0.950 . S
H981 C1004 0.950 . S
H982 C1005 0.950 . S
H983 C1007 0.950 . S
H984 C1008 0.950 . S
H985 C1009 0.951 . S
H986 C1011 0.951 . S
H987 C1013 0.950 . S
H988 C1014 0.950 . S
H989 C1016 0.935 1_655 S
H990 C1019 0.950 . S
H991 C1020 0.950 . S
H992 C1022 0.962 . S
H993 C1023 0.950 1_554 S
C994 H976 0.951 1_455 S
C994 C995 1.366 . S
C994 C996 1.388 . S
C995 C994 1.366 . S
C995 C999 1.385 . S
C996 H977 0.951 . S
C996 C994 1.388 . S
C996 C997 1.366 . S
C997 C996 1.366 . S
C997 C998 1.414 . S
C997 C1000 1.499 . S
C998 H978 0.950 . S
C998 C997 1.414 . S
C998 C999 1.374 . S
C999 H979 0.950 . S
C999 C995 1.385 . S
C999 C998 1.374 . S
C1000 C997 1.499 . S
C1000 C1001 1.373 . S
C1000 C1002 1.389 . S
C1001 H980 0.950 . S
C1001 C1000 1.373 . S
C1001 C1017 1.377 . S
C1002 C1000 1.389 . S
C1002 C1003 1.524 1_455 S
C1002 C1016 1.377 . S
C1003 C1002 1.524 1_655 S
C1003 C1004 1.397 . S
C1003 C1008 1.363 . S
C1004 H981 0.950 . S
C1004 C1003 1.397 . S
C1004 C1005 1.334 . S
C1005 H982 0.950 . S
C1005 C1004 1.334 . S
C1005 C1006 1.287 . S
C1006 C1005 1.287 . S
C1006 C1007 1.524 . S
C1006 H1025 0.913 . S
C1007 H983 0.950 . S
C1007 C1006 1.524 . S
C1007 C1008 1.415 . S
C1008 H984 0.950 . S
C1008 C1003 1.363 . S
C1008 C1007 1.415 . S
C1009 H985 0.951 . S
C1009 C1010 1.366 . S
C1009 C1011 1.388 . S
C1010 C1009 1.366 . S
C1010 C1014 1.385 1_554 S
C1011 H986 0.951 . S
C1011 C1009 1.388 . S
C1011 C1012 1.366 1_554 S
C1012 C1011 1.366 1_556 S
C1012 C1013 1.414 . S
C1012 C1015 1.499 . S
C1013 H987 0.950 . S
C1013 C1012 1.414 . S
C1013 C1014 1.374 . S
C1014 H988 0.950 . S
C1014 C1010 1.385 1_556 S
C1014 C1013 1.374 . S
C1015 C1012 1.499 . S
C1015 C1016 1.373 . S
C1015 C1017 1.389 . S
C1016 H989 0.935 1_455 S
C1016 C1002 1.377 . S
C1016 C1015 1.373 . S
C1017 C1001 1.377 . S
C1017 C1015 1.389 . S
C1017 C1018 1.524 . S
C1018 C1017 1.524 . S
C1018 C1019 1.397 . S
C1018 C1023 1.363 . S
C1019 H990 0.950 . S
C1019 C1018 1.397 . S
C1019 C1020 1.334 . S
C1020 H991 0.950 . S
C1020 C1019 1.334 . S
C1020 C1021 1.287 . S
C1021 C1020 1.287 . S
C1021 C1022 1.512 1_556 S
C1021 H1024 0.999 . S
C1022 H992 0.962 . S
C1022 C1021 1.512 1_554 S
C1022 C1023 1.413 1_554 S
C1023 H993 0.950 1_556 S
C1023 C1018 1.363 . S
C1023 C1022 1.413 1_556 S
H1024 C1021 0.999 . S
H1025 C1006 0.913 . S
H1026 C1044 0.951 . S
H1027 C1046 0.951 . S
H1028 C1048 0.950 . S
H1029 C1049 0.950 . S
H1030 C1051 0.950 . S
H1031 C1054 0.950 . S
H1032 C1055 0.950 . S
H1033 C1057 0.950 . S
H1034 C1058 0.950 . S
H1035 C1059 0.951 . S
H1036 C1061 0.951 . S
H1037 C1063 0.950 . S
H1038 C1064 0.950 . S
H1039 C1066 0.950 . S
H1040 C1069 0.950 . S
H1041 C1070 0.950 . S
H1042 C1072 0.950 . S
H1043 C1073 0.950 . S
C1044 H1026 0.951 . S
C1044 C1045 1.366 . S
C1044 C1046 1.388 . S
C1045 C1044 1.366 . S
C1045 C1049 1.385 . S
C1046 H1027 0.951 . S
C1046 C1044 1.388 . S
C1046 C1047 1.366 . S
C1047 C1046 1.366 . S
C1047 C1048 1.414 . S
C1047 C1050 1.499 . S
C1048 H1028 0.950 . S
C1048 C1047 1.414 . S
C1048 C1049 1.374 . S
C1049 H1029 0.950 . S
C1049 C1045 1.385 . S
C1049 C1048 1.374 . S
C1050 C1047 1.499 . S
C1050 C1051 1.373 . S
C1050 C1052 1.389 . S
C1051 H1030 0.950 . S
C1051 C1050 1.373 . S
C1051 C1067 1.377 . S
C1052 C1050 1.389 . S
C1052 C1053 1.524 . S
C1052 C1066 1.377 . S
C1053 C1052 1.524 . S
C1053 C1054 1.397 . S
C1053 C1058 1.363 . S
C1054 H1031 0.950 . S
C1054 C1053 1.397 . S
C1054 C1055 1.334 . S
C1055 H1032 0.950 . S
C1055 C1054 1.334 . S
C1055 C1056 1.287 . S
C1056 C1055 1.287 . S
C1056 C1057 1.524 . S
C1056 H1075 0.913 . S
C1057 H1033 0.950 . S
C1057 C1056 1.524 . S
C1057 C1058 1.415 . S
C1058 H1034 0.950 . S
C1058 C1053 1.363 . S
C1058 C1057 1.415 . S
C1059 H1035 0.951 . S
C1059 C1060 1.366 . S
C1059 C1061 1.388 . S
C1060 C1059 1.366 . S
C1060 C1064 1.385 . S
C1061 H1036 0.951 . S
C1061 C1059 1.388 . S
C1061 C1062 1.366 . S
C1062 C1061 1.366 . S
C1062 C1063 1.414 . S
C1062 C1065 1.499 . S
C1063 H1037 0.950 . S
C1063 C1062 1.414 . S
C1063 C1064 1.374 . S
C1064 H1038 0.950 . S
C1064 C1060 1.385 . S
C1064 C1063 1.374 . S
C1065 C1062 1.499 . S
C1065 C1066 1.373 . S
C1065 C1067 1.389 . S
C1066 H1039 0.950 . S
C1066 C1052 1.377 . S
C1066 C1065 1.373 . S
C1067 C1051 1.377 . S
C1067 C1065 1.389 . S
C1067 C1068 1.524 . S
C1068 C1067 1.524 . S
C1068 C1069 1.397 . S
C1068 C1073 1.363 . S
C1069 H1040 0.950 . S
C1069 C1068 1.397 . S
C1069 C1070 1.334 . S
C1070 H1041 0.950 . S
C1070 C1069 1.334 . S
C1070 C1071 1.287 . S
C1071 C1070 1.287 . S
C1071 C1072 1.524 . S
C1071 H1074 0.999 . S
C1072 H1042 0.950 . S
C1072 C1071 1.524 . S
C1072 C1073 1.415 . S
C1073 H1043 0.950 . S
C1073 C1068 1.363 . S
C1073 C1072 1.415 . S
H1074 C1071 0.999 . S
H1075 C1056 0.913 . S
H1076 C1094 0.951 . S
H1077 C1096 0.951 . S
H1078 C1098 0.950 . S
H1079 C1099 0.950 . S
H1080 C1101 0.950 . S
H1081 C1104 0.950 . S
H1082 C1105 0.950 . S
H1083 C1107 0.950 . S
H1084 C1108 0.950 . S
H1085 C1109 0.951 . S
H1086 C1111 0.951 . S
H1087 C1113 0.950 . S
H1088 C1114 0.950 . S
H1089 C1116 0.950 . S
H1090 C1119 0.950 . S
H1091 C1120 0.950 . S
H1092 C1122 0.950 . S
H1093 C1123 0.950 . S
C1094 H1076 0.951 . S
C1094 C1095 1.366 . S
C1094 C1096 1.388 . S
C1095 C1094 1.366 . S
C1095 C1099 1.385 . S
C1096 H1077 0.951 . S
C1096 C1094 1.388 . S
C1096 C1097 1.366 . S
C1097 C1096 1.366 . S
C1097 C1098 1.414 . S
C1097 C1100 1.499 . S
C1098 H1078 0.950 . S
C1098 C1097 1.414 . S
C1098 C1099 1.374 . S
C1099 H1079 0.950 . S
C1099 C1095 1.385 . S
C1099 C1098 1.374 . S
C1100 C1097 1.499 . S
C1100 C1101 1.373 . S
C1100 C1102 1.389 . S
C1101 H1080 0.950 . S
C1101 C1100 1.373 . S
C1101 C1117 1.377 . S
C1102 C1100 1.389 . S
C1102 C1103 1.524 . S
C1102 C1116 1.377 . S
C1103 C1102 1.524 . S
C1103 C1104 1.397 . S
C1103 C1108 1.363 . S
C1104 H1081 0.950 . S
C1104 C1103 1.397 . S
C1104 C1105 1.334 . S
C1105 H1082 0.950 . S
C1105 C1104 1.334 . S
C1105 C1106 1.287 . S
C1106 C1105 1.287 . S
C1106 C1107 1.524 . S
C1106 H1125 0.913 . S
C1107 H1083 0.950 . S
C1107 C1106 1.524 . S
C1107 C1108 1.415 . S
C1108 H1084 0.950 . S
C1108 C1103 1.363 . S
C1108 C1107 1.415 . S
C1109 H1085 0.951 . S
C1109 C1110 1.366 . S
C1109 C1111 1.388 . S
C1110 C1109 1.366 . S
C1110 C1114 1.385 . S
C1111 H1086 0.951 . S
C1111 C1109 1.388 . S
C1111 C1112 1.366 . S
C1112 C1111 1.366 . S
C1112 C1113 1.414 . S
C1112 C1115 1.499 . S
C1113 H1087 0.950 . S
C1113 C1112 1.414 . S
C1113 C1114 1.374 . S
C1114 H1088 0.950 . S
C1114 C1110 1.385 . S
C1114 C1113 1.374 . S
C1115 C1112 1.499 . S
C1115 C1116 1.373 . S
C1115 C1117 1.389 . S
C1116 H1089 0.950 . S
C1116 C1102 1.377 . S
C1116 C1115 1.373 . S
C1117 C1101 1.377 . S
C1117 C1115 1.389 . S
C1117 C1118 1.524 . S
C1118 C1117 1.524 . S
C1118 C1119 1.397 . S
C1118 C1123 1.363 . S
C1119 H1090 0.950 . S
C1119 C1118 1.397 . S
C1119 C1120 1.334 . S
C1120 H1091 0.950 . S
C1120 C1119 1.334 . S
C1120 C1121 1.287 . S
C1121 C1120 1.287 . S
C1121 C1122 1.524 . S
C1121 H1124 0.999 . S
C1122 H1092 0.950 . S
C1122 C1121 1.524 . S
C1122 C1123 1.415 . S
C1123 H1093 0.950 . S
C1123 C1118 1.363 . S
C1123 C1122 1.415 . S
H1124 C1121 0.999 . S
H1125 C1106 0.913 . S
H1126 C1144 0.951 . S
H1127 C1146 0.951 . S
H1128 C1148 0.950 . S
H1129 C1149 0.950 . S
H1130 C1151 0.950 . S
H1131 C1154 0.950 . S
H1132 C1155 0.950 . S
H1133 C1157 0.950 . S
H1134 C1158 0.950 . S
H1135 C1159 0.951 . S
H1136 C1161 0.951 . S
H1137 C1163 0.950 . S
H1138 C1164 0.950 . S
H1139 C1166 0.950 . S
H1140 C1169 0.950 . S
H1141 C1170 0.950 . S
H1142 C1172 0.950 . S
H1143 C1173 0.950 . S
C1144 H1126 0.951 . S
C1144 C1145 1.366 . S
C1144 C1146 1.388 . S
C1145 C1144 1.366 . S
C1145 C1149 1.385 . S
C1146 H1127 0.951 . S
C1146 C1144 1.388 . S
C1146 C1147 1.366 . S
C1147 C1146 1.366 . S
C1147 C1148 1.414 . S
C1147 C1150 1.499 . S
C1148 H1128 0.950 . S
C1148 C1147 1.414 . S
C1148 C1149 1.374 . S
C1149 H1129 0.950 . S
C1149 C1145 1.385 . S
C1149 C1148 1.374 . S
C1150 C1147 1.499 . S
C1150 C1151 1.373 . S
C1150 C1152 1.389 . S
C1151 H1130 0.950 . S
C1151 C1150 1.373 . S
C1151 C1167 1.377 . S
C1152 C1150 1.389 . S
C1152 C1153 1.524 . S
C1152 C1166 1.377 . S
C1153 C1152 1.524 . S
C1153 C1154 1.397 . S
C1153 C1158 1.363 . S
C1154 H1131 0.950 . S
C1154 C1153 1.397 . S
C1154 C1155 1.334 . S
C1155 H1132 0.950 . S
C1155 C1154 1.334 . S
C1155 C1156 1.287 . S
C1156 C1155 1.287 . S
C1156 C1157 1.524 . S
C1156 H1175 0.913 . S
C1157 H1133 0.950 . S
C1157 C1156 1.524 . S
C1157 C1158 1.415 . S
C1158 H1134 0.950 . S
C1158 C1153 1.363 . S
C1158 C1157 1.415 . S
C1159 H1135 0.951 . S
C1159 C1160 1.366 . S
C1159 C1161 1.388 . S
C1160 C1159 1.366 . S
C1160 C1164 1.385 . S
C1161 H1136 0.951 . S
C1161 C1159 1.388 . S
C1161 C1162 1.366 . S
C1162 C1161 1.366 . S
C1162 C1163 1.414 . S
C1162 C1165 1.499 . S
C1163 H1137 0.950 . S
C1163 C1162 1.414 . S
C1163 C1164 1.374 . S
C1164 H1138 0.950 . S
C1164 C1160 1.385 . S
C1164 C1163 1.374 . S
C1165 C1162 1.499 . S
C1165 C1166 1.373 . S
C1165 C1167 1.389 . S
C1166 H1139 0.950 . S
C1166 C1152 1.377 . S
C1166 C1165 1.373 . S
C1167 C1151 1.377 . S
C1167 C1165 1.389 . S
C1167 C1168 1.524 . S
C1168 C1167 1.524 . S
C1168 C1169 1.397 . S
C1168 C1173 1.363 . S
C1169 H1140 0.950 . S
C1169 C1168 1.397 . S
C1169 C1170 1.334 . S
C1170 H1141 0.950 . S
C1170 C1169 1.334 . S
C1170 C1171 1.287 . S
C1171 C1170 1.287 . S
C1171 C1172 1.524 . S
C1171 H1174 0.999 . S
C1172 H1142 0.950 . S
C1172 C1171 1.524 . S
C1172 C1173 1.415 . S
C1173 H1143 0.950 . S
C1173 C1168 1.363 . S
C1173 C1172 1.415 . S
H1174 C1171 0.999 . S
H1175 C1156 0.913 . S
H1176 C1194 0.951 1_655 S
H1177 C1196 0.951 . S
H1178 C1198 0.950 . S
H1179 C1199 0.950 . S
H1180 C1201 0.950 . S
H1181 C1204 0.950 . S
H1182 C1205 0.950 . S
H1183 C1207 0.950 . S
H1184 C1208 0.950 . S
H1185 C1209 0.951 . S
H1186 C1211 0.951 . S
H1187 C1213 0.950 . S
H1188 C1214 0.950 . S
H1189 C1216 0.950 . S
H1190 C1219 0.950 . S
H1191 C1220 0.950 . S
H1192 C1222 0.950 . S
H1193 C1223 0.950 . S
C1194 H1176 0.951 1_455 S
C1194 C1195 1.366 . S
C1194 C1196 1.388 . S
C1195 C1194 1.366 . S
C1195 C1199 1.385 . S
C1196 H1177 0.951 . S
C1196 C1194 1.388 . S
C1196 C1197 1.366 . S
C1197 C1196 1.366 . S
C1197 C1198 1.414 . S
C1197 C1200 1.499 . S
C1198 H1178 0.950 . S
C1198 C1197 1.414 . S
C1198 C1199 1.374 . S
C1199 H1179 0.950 . S
C1199 C1195 1.385 . S
C1199 C1198 1.374 . S
C1200 C1197 1.499 . S
C1200 C1201 1.373 . S
C1200 C1202 1.389 . S
C1201 H1180 0.950 . S
C1201 C1200 1.373 . S
C1201 C1217 1.377 . S
C1202 C1200 1.389 . S
C1202 C1203 1.524 1_455 S
C1202 C1216 1.377 . S
C1203 C1202 1.524 1_655 S
C1203 C1204 1.397 . S
C1203 C1208 1.363 . S
C1204 H1181 0.950 . S
C1204 C1203 1.397 . S
C1204 C1205 1.334 . S
C1205 H1182 0.950 . S
C1205 C1204 1.334 . S
C1205 C1206 1.287 . S
C1206 C1205 1.287 . S
C1206 C1207 1.524 . S
C1206 H1225 0.913 . S
C1207 H1183 0.950 . S
C1207 C1206 1.524 . S
C1207 C1208 1.415 . S
C1208 H1184 0.950 . S
C1208 C1203 1.363 . S
C1208 C1207 1.415 . S
C1209 H1185 0.951 . S
C1209 C1210 1.366 . S
C1209 C1211 1.388 . S
C1210 C1209 1.366 . S
C1210 C1214 1.385 . S
C1211 H1186 0.951 . S
C1211 C1209 1.388 . S
C1211 C1212 1.366 . S
C1212 C1211 1.366 . S
C1212 C1213 1.414 . S
C1212 C1215 1.499 . S
C1213 H1187 0.950 . S
C1213 C1212 1.414 . S
C1213 C1214 1.374 . S
C1214 H1188 0.950 . S
C1214 C1210 1.385 . S
C1214 C1213 1.374 . S
C1215 C1212 1.499 . S
C1215 C1216 1.373 . S
C1215 C1217 1.389 . S
C1216 H1189 0.950 . S
C1216 C1202 1.377 . S
C1216 C1215 1.373 . S
C1217 C1201 1.377 . S
C1217 C1215 1.389 . S
C1217 C1218 1.524 . S
C1218 C1217 1.524 . S
C1218 C1219 1.397 . S
C1218 C1223 1.363 . S
C1219 H1190 0.950 . S
C1219 C1218 1.397 . S
C1219 C1220 1.334 . S
C1220 H1191 0.950 . S
C1220 C1219 1.334 . S
C1220 C1221 1.287 . S
C1221 C1220 1.287 . S
C1221 C1222 1.524 . S
C1221 H1224 0.999 . S
C1222 H1192 0.950 . S
C1222 C1221 1.524 . S
C1222 C1223 1.415 . S
C1223 H1193 0.950 . S
C1223 C1218 1.363 . S
C1223 C1222 1.415 . S
H1224 C1221 0.999 . S
H1225 C1206 0.913 . S
H1226 C1244 0.951 . S
H1227 C1246 0.951 . S
H1228 C1248 0.950 . S
H1229 C1249 0.950 . S
H1230 C1251 0.950 . S
H1231 C1254 0.950 . S
H1232 C1255 0.950 . S
H1233 C1257 0.950 . S
H1234 C1258 0.950 . S
H1235 C1259 0.951 . S
H1236 C1261 0.951 . S
H1237 C1263 0.950 . S
H1238 C1264 0.950 . S
H1239 C1266 0.950 . S
H1240 C1269 0.950 . S
H1241 C1270 0.950 . S
H1242 C1272 0.950 . S
H1243 C1273 0.950 . S
C1244 H1226 0.951 . S
C1244 C1245 1.366 . S
C1244 C1246 1.388 . S
C1245 C1244 1.366 . S
C1245 C1249 1.385 . S
C1246 H1227 0.951 . S
C1246 C1244 1.388 . S
C1246 C1247 1.366 . S
C1247 C1246 1.366 . S
C1247 C1248 1.414 . S
C1247 C1250 1.499 . S
C1248 H1228 0.950 . S
C1248 C1247 1.414 . S
C1248 C1249 1.374 . S
C1249 H1229 0.950 . S
C1249 C1245 1.385 . S
C1249 C1248 1.374 . S
C1250 C1247 1.499 . S
C1250 C1251 1.373 . S
C1250 C1252 1.389 . S
C1251 H1230 0.950 . S
C1251 C1250 1.373 . S
C1251 C1267 1.377 . S
C1252 C1250 1.389 . S
C1252 C1253 1.524 . S
C1252 C1266 1.377 . S
C1253 C1252 1.524 . S
C1253 C1254 1.397 . S
C1253 C1258 1.363 . S
C1254 H1231 0.950 . S
C1254 C1253 1.397 . S
C1254 C1255 1.334 . S
C1255 H1232 0.950 . S
C1255 C1254 1.334 . S
C1255 C1256 1.287 . S
C1256 C1255 1.287 . S
C1256 C1257 1.524 . S
C1256 H1275 0.913 . S
C1257 H1233 0.950 . S
C1257 C1256 1.524 . S
C1257 C1258 1.415 . S
C1258 H1234 0.950 . S
C1258 C1253 1.363 . S
C1258 C1257 1.415 . S
C1259 H1235 0.951 . S
C1259 C1260 1.366 . S
C1259 C1261 1.388 . S
C1260 C1259 1.366 . S
C1260 C1264 1.385 . S
C1261 H1236 0.951 . S
C1261 C1259 1.388 . S
C1261 C1262 1.366 . S
C1262 C1261 1.366 . S
C1262 C1263 1.414 . S
C1262 C1265 1.499 . S
C1263 H1237 0.950 . S
C1263 C1262 1.414 . S
C1263 C1264 1.374 . S
C1264 H1238 0.950 . S
C1264 C1260 1.385 . S
C1264 C1263 1.374 . S
C1265 C1262 1.499 . S
C1265 C1266 1.373 . S
C1265 C1267 1.389 . S
C1266 H1239 0.950 . S
C1266 C1252 1.377 . S
C1266 C1265 1.373 . S
C1267 C1251 1.377 . S
C1267 C1265 1.389 . S
C1267 C1268 1.524 . S
C1268 C1267 1.524 . S
C1268 C1269 1.397 . S
C1268 C1273 1.363 . S
C1269 H1240 0.950 . S
C1269 C1268 1.397 . S
C1269 C1270 1.334 . S
C1270 H1241 0.950 . S
C1270 C1269 1.334 . S
C1270 C1271 1.287 . S
C1271 C1270 1.287 . S
C1271 C1272 1.524 . S
C1271 H1274 0.999 . S
C1272 H1242 0.950 . S
C1272 C1271 1.524 . S
C1272 C1273 1.415 . S
C1273 H1243 0.950 . S
C1273 C1268 1.363 . S
C1273 C1272 1.415 . S
H1274 C1271 0.999 . S
H1275 C1256 0.913 . S
H1276 C1294 0.951 . S
H1277 C1296 0.951 . S
H1278 C1298 0.950 . S
H1279 C1299 0.950 . S
H1280 C1301 0.950 . S
H1281 C1304 0.950 . S
H1282 C1305 0.950 . S
H1283 C1307 0.950 . S
H1284 C1308 0.950 . S
H1285 C1309 0.951 . S
H1286 C1311 0.951 . S
H1287 C1313 0.950 . S
H1288 C1314 0.950 . S
H1289 C1316 0.950 . S
H1290 C1319 0.950 . S
H1291 C1320 0.950 . S
H1292 C1322 0.950 . S
H1293 C1323 0.950 . S
C1294 H1276 0.951 . S
C1294 C1295 1.366 . S
C1294 C1296 1.388 . S
C1295 C1294 1.366 . S
C1295 C1299 1.385 . S
C1296 H1277 0.951 . S
C1296 C1294 1.388 . S
C1296 C1297 1.366 . S
C1297 C1296 1.366 . S
C1297 C1298 1.414 . S
C1297 C1300 1.499 . S
C1298 H1278 0.950 . S
C1298 C1297 1.414 . S
C1298 C1299 1.374 . S
C1299 H1279 0.950 . S
C1299 C1295 1.385 . S
C1299 C1298 1.374 . S
C1300 C1297 1.499 . S
C1300 C1301 1.373 . S
C1300 C1302 1.389 . S
C1301 H1280 0.950 . S
C1301 C1300 1.373 . S
C1301 C1317 1.377 . S
C1302 C1300 1.389 . S
C1302 C1303 1.524 . S
C1302 C1316 1.377 . S
C1303 C1302 1.524 . S
C1303 C1304 1.397 . S
C1303 C1308 1.363 . S
C1304 H1281 0.950 . S
C1304 C1303 1.397 . S
C1304 C1305 1.334 . S
C1305 H1282 0.950 . S
C1305 C1304 1.334 . S
C1305 C1306 1.287 . S
C1306 C1305 1.287 . S
C1306 C1307 1.524 . S
C1306 H1325 0.913 . S
C1307 H1283 0.950 . S
C1307 C1306 1.524 . S
C1307 C1308 1.415 . S
C1308 H1284 0.950 . S
C1308 C1303 1.363 . S
C1308 C1307 1.415 . S
C1309 H1285 0.951 . S
C1309 C1310 1.366 . S
C1309 C1311 1.388 . S
C1310 C1309 1.366 . S
C1310 C1314 1.385 . S
C1311 H1286 0.951 . S
C1311 C1309 1.388 . S
C1311 C1312 1.366 . S
C1312 C1311 1.366 . S
C1312 C1313 1.414 . S
C1312 C1315 1.499 . S
C1313 H1287 0.950 . S
C1313 C1312 1.414 . S
C1313 C1314 1.374 . S
C1314 H1288 0.950 . S
C1314 C1310 1.385 . S
C1314 C1313 1.374 . S
C1315 C1312 1.499 . S
C1315 C1316 1.373 . S
C1315 C1317 1.389 . S
C1316 H1289 0.950 . S
C1316 C1302 1.377 . S
C1316 C1315 1.373 . S
C1317 C1301 1.377 . S
C1317 C1315 1.389 . S
C1317 C1318 1.524 . S
C1318 C1317 1.524 . S
C1318 C1319 1.397 . S
C1318 C1323 1.363 . S
C1319 H1290 0.950 . S
C1319 C1318 1.397 . S
C1319 C1320 1.334 . S
C1320 H1291 0.950 . S
C1320 C1319 1.334 . S
C1320 C1321 1.287 . S
C1321 C1320 1.287 . S
C1321 C1322 1.524 . S
C1321 H1324 0.999 . S
C1322 H1292 0.950 . S
C1322 C1321 1.524 . S
C1322 C1323 1.415 . S
C1323 H1293 0.950 . S
C1323 C1318 1.363 . S
C1323 C1322 1.415 . S
H1324 C1321 0.999 . S
H1325 C1306 0.913 . S
H1326 C1344 0.951 . S
H1327 C1346 0.951 . S
H1328 C1348 0.950 . S
H1329 C1349 0.950 . S
H1330 C1351 0.950 . S
H1331 C1354 0.950 . S
H1332 C1355 0.950 . S
H1333 C1357 0.950 . S
H1334 C1358 0.950 . S
H1335 C1359 0.951 . S
H1336 C1361 0.951 . S
H1337 C1363 0.950 . S
H1338 C1364 0.950 . S
H1339 C1366 0.950 . S
H1340 C1369 0.950 . S
H1341 C1370 0.950 . S
H1342 C1372 0.950 . S
H1343 C1373 0.950 . S
C1344 H1326 0.951 . S
C1344 C1345 1.366 . S
C1344 C1346 1.388 . S
C1345 C1344 1.366 . S
C1345 C1349 1.385 . S
C1346 H1327 0.951 . S
C1346 C1344 1.388 . S
C1346 C1347 1.366 . S
C1347 C1346 1.366 . S
C1347 C1348 1.414 . S
C1347 C1350 1.499 . S
C1348 H1328 0.950 . S
C1348 C1347 1.414 . S
C1348 C1349 1.374 . S
C1349 H1329 0.950 . S
C1349 C1345 1.385 . S
C1349 C1348 1.374 . S
C1350 C1347 1.499 . S
C1350 C1351 1.373 . S
C1350 C1352 1.389 . S
C1351 H1330 0.950 . S
C1351 C1350 1.373 . S
C1351 C1367 1.377 . S
C1352 C1350 1.389 . S
C1352 C1353 1.524 . S
C1352 C1366 1.377 . S
C1353 C1352 1.524 . S
C1353 C1354 1.397 . S
C1353 C1358 1.363 . S
C1354 H1331 0.950 . S
C1354 C1353 1.397 . S
C1354 C1355 1.334 . S
C1355 H1332 0.950 . S
C1355 C1354 1.334 . S
C1355 C1356 1.287 . S
C1356 C1355 1.287 . S
C1356 C1357 1.524 . S
C1356 H1375 0.913 . S
C1357 H1333 0.950 . S
C1357 C1356 1.524 . S
C1357 C1358 1.415 . S
C1358 H1334 0.950 . S
C1358 C1353 1.363 . S
C1358 C1357 1.415 . S
C1359 H1335 0.951 . S
C1359 C1360 1.366 . S
C1359 C1361 1.388 . S
C1360 C1359 1.366 . S
C1360 C1364 1.385 . S
C1361 H1336 0.951 . S
C1361 C1359 1.388 . S
C1361 C1362 1.366 . S
C1362 C1361 1.366 . S
C1362 C1363 1.414 . S
C1362 C1365 1.499 . S
C1363 H1337 0.950 . S
C1363 C1362 1.414 . S
C1363 C1364 1.374 . S
C1364 H1338 0.950 . S
C1364 C1360 1.385 . S
C1364 C1363 1.374 . S
C1365 C1362 1.499 . S
C1365 C1366 1.373 . S
C1365 C1367 1.389 . S
C1366 H1339 0.950 . S
C1366 C1352 1.377 . S
C1366 C1365 1.373 . S
C1367 C1351 1.377 . S
C1367 C1365 1.389 . S
C1367 C1368 1.524 . S
C1368 C1367 1.524 . S
C1368 C1369 1.397 . S
C1368 C1373 1.363 . S
C1369 H1340 0.950 . S
C1369 C1368 1.397 . S
C1369 C1370 1.334 . S
C1370 H1341 0.950 . S
C1370 C1369 1.334 . S
C1370 C1371 1.287 . S
C1371 C1370 1.287 . S
C1371 C1372 1.524 . S
C1371 H1374 0.999 . S
C1372 H1342 0.950 . S
C1372 C1371 1.524 . S
C1372 C1373 1.415 . S
C1373 H1343 0.950 . S
C1373 C1368 1.363 . S
C1373 C1372 1.415 . S
H1374 C1371 0.999 . S
H1375 C1356 0.913 . S
H1376 C1394 0.951 . S
H1377 C1396 0.951 . S
H1378 C1398 0.950 . S
H1379 C1399 0.950 . S
H1380 C1401 0.950 . S
H1381 C1404 0.950 . S
H1382 C1405 0.950 . S
H1383 C1407 0.950 . S
H1384 C1408 0.950 . S
H1385 C1409 0.951 . S
H1386 C1411 0.951 . S
H1387 C1413 0.950 1_655 S
H1388 C1414 0.950 . S
H1389 C1416 0.950 . S
H1390 C1419 0.950 . S
H1391 C1420 0.950 . S
H1392 C1422 0.950 . S
H1393 C1423 0.950 . S
C1394 H1376 0.951 . S
C1394 C1395 1.366 . S
C1394 C1396 1.388 . S
C1395 C1394 1.366 . S
C1395 C1399 1.385 . S
C1396 H1377 0.951 . S
C1396 C1394 1.388 . S
C1396 C1397 1.366 . S
C1397 C1396 1.366 . S
C1397 C1398 1.414 . S
C1397 C1400 1.499 . S
C1398 H1378 0.950 . S
C1398 C1397 1.414 . S
C1398 C1399 1.374 . S
C1399 H1379 0.950 . S
C1399 C1395 1.385 . S
C1399 C1398 1.374 . S
C1400 C1397 1.499 . S
C1400 C1401 1.373 1_655 S
C1400 C1402 1.389 . S
C1401 H1380 0.950 . S
C1401 C1400 1.373 1_455 S
C1401 C1417 1.377 . S
C1402 C1400 1.389 . S
C1402 C1403 1.524 . S
C1402 C1416 1.377 . S
C1403 C1402 1.524 . S
C1403 C1404 1.397 . S
C1403 C1408 1.363 . S
C1404 H1381 0.950 . S
C1404 C1403 1.397 . S
C1404 C1405 1.334 . S
C1405 H1382 0.950 . S
C1405 C1404 1.334 . S
C1405 C1406 1.287 . S
C1406 C1405 1.287 . S
C1406 C1407 1.524 . S
C1406 H1425 0.913 . S
C1407 H1383 0.950 . S
C1407 C1406 1.524 . S
C1407 C1408 1.415 . S
C1408 H1384 0.950 . S
C1408 C1403 1.363 . S
C1408 C1407 1.415 . S
C1409 H1385 0.951 . S
C1409 C1410 1.366 . S
C1409 C1411 1.388 . S
C1410 C1409 1.366 . S
C1410 C1414 1.385 . S
C1411 H1386 0.951 . S
C1411 C1409 1.388 . S
C1411 C1412 1.366 . S
C1412 C1411 1.366 . S
C1412 C1413 1.414 . S
C1412 C1415 1.499 . S
C1413 H1387 0.950 1_455 S
C1413 C1412 1.414 . S
C1413 C1414 1.374 . S
C1414 H1388 0.950 . S
C1414 C1410 1.385 . S
C1414 C1413 1.374 . S
C1415 C1412 1.499 . S
C1415 C1416 1.373 1_455 S
C1415 C1417 1.389 . S
C1416 H1389 0.950 . S
C1416 C1402 1.377 . S
C1416 C1415 1.373 1_655 S
C1417 C1401 1.377 . S
C1417 C1415 1.389 . S
C1417 C1418 1.524 . S
C1418 C1417 1.524 . S
C1418 C1419 1.397 . S
C1418 C1423 1.363 . S
C1419 H1390 0.950 . S
C1419 C1418 1.397 . S
C1419 C1420 1.334 . S
C1420 H1391 0.950 . S
C1420 C1419 1.334 . S
C1420 C1421 1.287 . S
C1421 C1420 1.287 . S
C1421 C1422 1.524 . S
C1421 H1424 0.999 . S
C1422 H1392 0.950 . S
C1422 C1421 1.524 . S
C1422 C1423 1.415 . S
C1423 H1393 0.950 . S
C1423 C1418 1.363 . S
C1423 C1422 1.415 . S
H1424 C1421 0.999 . S
H1425 C1406 0.913 . S
H1426 C1444 0.951 . S
H1427 C1446 0.951 . S
H1428 C1448 0.950 . S
H1429 C1449 0.950 . S
H1430 C1451 0.950 . S
H1431 C1454 0.950 . S
H1432 C1455 0.950 . S
H1433 C1457 0.950 . S
H1434 C1458 0.950 . S
H1435 C1459 0.951 . S
H1436 C1461 0.951 . S
H1437 C1463 0.950 . S
H1438 C1464 0.950 . S
H1439 C1466 0.950 . S
H1440 C1469 0.950 . S
H1441 C1470 0.950 . S
H1442 C1472 0.950 . S
H1443 C1473 0.950 . S
C1444 H1426 0.951 . S
C1444 C1445 1.366 . S
C1444 C1446 1.388 . S
C1445 C1444 1.366 . S
C1445 C1449 1.385 . S
C1446 H1427 0.951 . S
C1446 C1444 1.388 . S
C1446 C1447 1.366 . S
C1447 C1446 1.366 . S
C1447 C1448 1.414 . S
C1447 C1450 1.499 . S
C1448 H1428 0.950 . S
C1448 C1447 1.414 . S
C1448 C1449 1.374 . S
C1449 H1429 0.950 . S
C1449 C1445 1.385 . S
C1449 C1448 1.374 . S
C1450 C1447 1.499 . S
C1450 C1451 1.373 . S
C1450 C1452 1.389 . S
C1451 H1430 0.950 . S
C1451 C1450 1.373 . S
C1451 C1467 1.377 . S
C1452 C1450 1.389 . S
C1452 C1453 1.524 . S
C1452 C1466 1.377 . S
C1453 C1452 1.524 . S
C1453 C1454 1.397 . S
C1453 C1458 1.363 . S
C1454 H1431 0.950 . S
C1454 C1453 1.397 . S
C1454 C1455 1.334 . S
C1455 H1432 0.950 . S
C1455 C1454 1.334 . S
C1455 C1456 1.287 . S
C1456 C1455 1.287 . S
C1456 C1457 1.524 . S
C1456 H1475 0.913 . S
C1457 H1433 0.950 . S
C1457 C1456 1.524 . S
C1457 C1458 1.415 . S
C1458 H1434 0.950 . S
C1458 C1453 1.363 . S
C1458 C1457 1.415 . S
C1459 H1435 0.951 . S
C1459 C1460 1.366 . S
C1459 C1461 1.388 . S
C1460 C1459 1.366 . S
C1460 C1464 1.385 . S
C1461 H1436 0.951 . S
C1461 C1459 1.388 . S
C1461 C1462 1.366 . S
C1462 C1461 1.366 . S
C1462 C1463 1.414 . S
C1462 C1465 1.499 . S
C1463 H1437 0.950 . S
C1463 C1462 1.414 . S
C1463 C1464 1.374 . S
C1464 H1438 0.950 . S
C1464 C1460 1.385 . S
C1464 C1463 1.374 . S
C1465 C1462 1.499 . S
C1465 C1466 1.373 . S
C1465 C1467 1.389 . S
C1466 H1439 0.950 . S
C1466 C1452 1.377 . S
C1466 C1465 1.373 . S
C1467 C1451 1.377 . S
C1467 C1465 1.389 . S
C1467 C1468 1.524 . S
C1468 C1467 1.524 . S
C1468 C1469 1.397 . S
C1468 C1473 1.363 . S
C1469 H1440 0.950 . S
C1469 C1468 1.397 . S
C1469 C1470 1.334 . S
C1470 H1441 0.950 . S
C1470 C1469 1.334 . S
C1470 C1471 1.287 . S
C1471 C1470 1.287 . S
C1471 C1472 1.524 . S
C1471 H1474 0.999 . S
C1472 H1442 0.950 . S
C1472 C1471 1.524 . S
C1472 C1473 1.415 . S
C1473 H1443 0.950 . S
C1473 C1468 1.363 . S
C1473 C1472 1.415 . S
H1474 C1471 0.999 . S
H1475 C1456 0.913 . S
H1476 C1494 0.951 . S
H1477 C1496 0.951 . S
H1478 C1498 0.950 . S
H1479 C1499 0.950 . S
H1480 C1501 0.950 . S
H1481 C1504 0.950 . S
H1482 C1505 0.950 . S
H1483 C1507 0.950 . S
H1484 C1508 0.950 . S
H1485 C1509 0.951 . S
H1486 C1511 0.951 . S
H1487 C1513 0.950 . S
H1488 C1514 0.950 . S
H1489 C1516 0.950 . S
H1490 C1519 0.950 . S
H1491 C1520 0.950 . S
H1492 C1522 0.950 . S
H1493 C1523 0.950 . S
C1494 H1476 0.951 . S
C1494 C1495 1.366 . S
C1494 C1496 1.388 . S
C1495 C1494 1.366 . S
C1495 C1499 1.385 . S
C1496 H1477 0.951 . S
C1496 C1494 1.388 . S
C1496 C1497 1.366 . S
C1497 C1496 1.366 . S
C1497 C1498 1.414 . S
C1497 C1500 1.499 . S
C1498 H1478 0.950 . S
C1498 C1497 1.414 . S
C1498 C1499 1.374 . S
C1499 H1479 0.950 . S
C1499 C1495 1.385 . S
C1499 C1498 1.374 . S
C1500 C1497 1.499 . S
C1500 C1501 1.373 . S
C1500 C1502 1.389 . S
C1501 H1480 0.950 . S
C1501 C1500 1.373 . S
C1501 C1517 1.377 . S
C1502 C1500 1.389 . S
C1502 C1503 1.524 . S
C1502 C1516 1.377 . S
C1503 C1502 1.524 . S
C1503 C1504 1.397 . S
C1503 C1508 1.363 . S
C1504 H1481 0.950 . S
C1504 C1503 1.397 . S
C1504 C1505 1.334 . S
C1505 H1482 0.950 . S
C1505 C1504 1.334 . S
C1505 C1506 1.287 . S
C1506 C1505 1.287 . S
C1506 C1507 1.524 . S
C1506 H1525 0.913 . S
C1507 H1483 0.950 . S
C1507 C1506 1.524 . S
C1507 C1508 1.415 . S
C1508 H1484 0.950 . S
C1508 C1503 1.363 . S
C1508 C1507 1.415 . S
C1509 H1485 0.951 . S
C1509 C1510 1.366 . S
C1509 C1511 1.388 . S
C1510 C1509 1.366 . S
C1510 C1514 1.385 . S
C1511 H1486 0.951 . S
C1511 C1509 1.388 . S
C1511 C1512 1.366 . S
C1512 C1511 1.366 . S
C1512 C1513 1.414 . S
C1512 C1515 1.499 . S
C1513 H1487 0.950 . S
C1513 C1512 1.414 . S
C1513 C1514 1.374 . S
C1514 H1488 0.950 . S
C1514 C1510 1.385 . S
C1514 C1513 1.374 . S
C1515 C1512 1.499 . S
C1515 C1516 1.373 . S
C1515 C1517 1.389 . S
C1516 H1489 0.950 . S
C1516 C1502 1.377 . S
C1516 C1515 1.373 . S
C1517 C1501 1.377 . S
C1517 C1515 1.389 . S
C1517 C1518 1.524 . S
C1518 C1517 1.524 . S
C1518 C1519 1.397 . S
C1518 C1523 1.363 . S
C1519 H1490 0.950 . S
C1519 C1518 1.397 . S
C1519 C1520 1.334 . S
C1520 H1491 0.950 . S
C1520 C1519 1.334 . S
C1520 C1521 1.287 . S
C1521 C1520 1.287 . S
C1521 C1522 1.524 . S
C1521 H1524 0.999 . S
C1522 H1492 0.950 . S
C1522 C1521 1.524 . S
C1522 C1523 1.415 . S
C1523 H1493 0.950 . S
C1523 C1518 1.363 . S
C1523 C1522 1.415 . S
H1524 C1521 0.999 . S
H1525 C1506 0.913 . S
H1526 C1544 0.951 . S
H1527 C1546 0.951 . S
H1528 C1548 0.950 . S
H1529 C1549 0.950 . S
H1530 C1551 0.950 . S
H1531 C1554 0.950 . S
H1532 C1555 0.950 . S
H1533 C1557 0.950 . S
H1534 C1558 0.950 . S
H1535 C1559 0.951 . S
H1536 C1561 0.951 . S
H1537 C1563 0.950 . S
H1538 C1564 0.950 . S
H1539 C1566 0.950 . S
H1540 C1569 0.950 . S
H1541 C1570 0.950 . S
H1542 C1572 0.950 . S
H1543 C1573 0.950 . S
C1544 H1526 0.951 . S
C1544 C1545 1.366 . S
C1544 C1546 1.388 . S
C1545 C1544 1.366 . S
C1545 C1549 1.385 . S
C1546 H1527 0.951 . S
C1546 C1544 1.388 . S
C1546 C1547 1.366 . S
C1547 C1546 1.366 . S
C1547 C1548 1.414 . S
C1547 C1550 1.499 . S
C1548 H1528 0.950 . S
C1548 C1547 1.414 . S
C1548 C1549 1.374 . S
C1549 H1529 0.950 . S
C1549 C1545 1.385 . S
C1549 C1548 1.374 . S
C1550 C1547 1.499 . S
C1550 C1551 1.373 . S
C1550 C1552 1.389 . S
C1551 H1530 0.950 . S
C1551 C1550 1.373 . S
C1551 C1567 1.377 . S
C1552 C1550 1.389 . S
C1552 C1553 1.524 . S
C1552 C1566 1.377 . S
C1553 C1552 1.524 . S
C1553 C1554 1.397 . S
C1553 C1558 1.363 . S
C1554 H1531 0.950 . S
C1554 C1553 1.397 . S
C1554 C1555 1.334 . S
C1555 H1532 0.950 . S
C1555 C1554 1.334 . S
C1555 C1556 1.287 . S
C1556 C1555 1.287 . S
C1556 C1557 1.524 . S
C1556 H1575 0.913 . S
C1557 H1533 0.950 . S
C1557 C1556 1.524 . S
C1557 C1558 1.415 . S
C1558 H1534 0.950 . S
C1558 C1553 1.363 . S
C1558 C1557 1.415 . S
C1559 H1535 0.951 . S
C1559 C1560 1.366 . S
C1559 C1561 1.388 . S
C1560 C1559 1.366 . S
C1560 C1564 1.385 . S
C1561 H1536 0.951 . S
C1561 C1559 1.388 . S
C1561 C1562 1.366 . S
C1562 C1561 1.366 . S
C1562 C1563 1.414 . S
C1562 C1565 1.499 . S
C1563 H1537 0.950 . S
C1563 C1562 1.414 . S
C1563 C1564 1.374 . S
C1564 H1538 0.950 . S
C1564 C1560 1.385 . S
C1564 C1563 1.374 . S
C1565 C1562 1.499 . S
C1565 C1566 1.373 . S
C1565 C1567 1.389 . S
C1566 H1539 0.950 . S
C1566 C1552 1.377 . S
C1566 C1565 1.373 . S
C1567 C1551 1.377 . S
C1567 C1565 1.389 . S
C1567 C1568 1.524 . S
C1568 C1567 1.524 . S
C1568 C1569 1.397 . S
C1568 C1573 1.363 . S
C1569 H1540 0.950 . S
C1569 C1568 1.397 . S
C1569 C1570 1.334 . S
C1570 H1541 0.950 . S
C1570 C1569 1.334 . S
C1570 C1571 1.287 . S
C1571 C1570 1.287 . S
C1571 C1572 1.524 . S
C1571 H1574 0.999 . S
C1572 H1542 0.950 . S
C1572 C1571 1.524 . S
C1572 C1573 1.415 . S
C1573 H1543 0.950 . S
C1573 C1568 1.363 . S
C1573 C1572 1.415 . S
H1574 C1571 0.999 . S
H1575 C1556 0.913 . S
H1576 C1594 0.951 . S
H1577 C1596 0.951 . S
H1578 C1598 0.950 . S
H1579 C1599 0.950 . S
H1580 C1601 0.950 . S
H1581 C1604 0.950 . S
H1582 C1605 0.950 . S
H1583 C1607 0.950 . S
H1584 C1608 0.950 . S
H1585 C1609 0.951 . S
H1586 C1611 0.951 . S
H1587 C1613 0.950 1_655 S
H1588 C1614 0.950 . S
H1589 C1616 0.950 . S
H1590 C1619 0.950 . S
H1591 C1620 0.950 . S
H1592 C1622 0.950 . S
H1593 C1623 0.950 . S
C1594 H1576 0.951 . S
C1594 C1595 1.366 . S
C1594 C1596 1.388 . S
C1595 C1594 1.366 . S
C1595 C1599 1.385 . S
C1596 H1577 0.951 . S
C1596 C1594 1.388 . S
C1596 C1597 1.366 . S
C1597 C1596 1.366 . S
C1597 C1598 1.414 . S
C1597 C1600 1.499 . S
C1598 H1578 0.950 . S
C1598 C1597 1.414 . S
C1598 C1599 1.374 . S
C1599 H1579 0.950 . S
C1599 C1595 1.385 . S
C1599 C1598 1.374 . S
C1600 C1597 1.499 . S
C1600 C1601 1.373 1_655 S
C1600 C1602 1.389 . S
C1601 H1580 0.950 . S
C1601 C1600 1.373 1_455 S
C1601 C1617 1.377 . S
C1602 C1600 1.389 . S
C1602 C1603 1.524 . S
C1602 C1616 1.377 . S
C1603 C1602 1.524 . S
C1603 C1604 1.397 . S
C1603 C1608 1.363 . S
C1604 H1581 0.950 . S
C1604 C1603 1.397 . S
C1604 C1605 1.334 . S
C1605 H1582 0.950 . S
C1605 C1604 1.334 . S
C1605 C1606 1.287 . S
C1606 C1605 1.287 . S
C1606 C1607 1.524 . S
C1606 H1625 0.913 . S
C1607 H1583 0.950 . S
C1607 C1606 1.524 . S
C1607 C1608 1.415 . S
C1608 H1584 0.950 . S
C1608 C1603 1.363 . S
C1608 C1607 1.415 . S
C1609 H1585 0.951 . S
C1609 C1610 1.366 . S
C1609 C1611 1.388 . S
C1610 C1609 1.366 . S
C1610 C1614 1.385 . S
C1611 H1586 0.951 . S
C1611 C1609 1.388 . S
C1611 C1612 1.366 . S
C1612 C1611 1.366 . S
C1612 C1613 1.414 . S
C1612 C1615 1.499 . S
C1613 H1587 0.950 1_455 S
C1613 C1612 1.414 . S
C1613 C1614 1.374 . S
C1614 H1588 0.950 . S
C1614 C1610 1.385 . S
C1614 C1613 1.374 . S
C1615 C1612 1.499 . S
C1615 C1616 1.373 1_455 S
C1615 C1617 1.389 . S
C1616 H1589 0.950 . S
C1616 C1602 1.377 . S
C1616 C1615 1.373 1_655 S
C1617 C1601 1.377 . S
C1617 C1615 1.389 . S
C1617 C1618 1.524 . S
C1618 C1617 1.524 . S
C1618 C1619 1.397 . S
C1618 C1623 1.363 . S
C1619 H1590 0.950 . S
C1619 C1618 1.397 . S
C1619 C1620 1.334 . S
C1620 H1591 0.950 . S
C1620 C1619 1.334 . S
C1620 C1621 1.287 . S
C1621 C1620 1.287 . S
C1621 C1622 1.524 . S
C1621 H1624 0.999 . S
C1622 H1592 0.950 . S
C1622 C1621 1.524 . S
C1622 C1623 1.415 . S
C1623 H1593 0.950 . S
C1623 C1618 1.363 . S
C1623 C1622 1.415 . S
H1624 C1621 0.999 . S
H1625 C1606 0.913 . S
H1626 C1644 0.951 . S
H1627 C1646 0.951 . S
H1628 C1648 0.950 . S
H1629 C1649 0.950 . S
H1630 C1651 0.950 . S
H1631 C1654 0.950 . S
H1632 C1655 0.950 . S
H1633 C1657 0.950 . S
H1634 C1658 0.950 . S
H1635 C1659 0.951 . S
H1636 C1661 0.951 . S
H1637 C1663 0.950 . S
H1638 C1664 0.950 . S
H1639 C1666 0.950 . S
H1640 C1669 0.950 . S
H1641 C1670 0.950 . S
H1642 C1672 0.950 . S
H1643 C1673 0.950 . S
C1644 H1626 0.951 . S
C1644 C1645 1.366 . S
C1644 C1646 1.388 . S
C1645 C1644 1.366 . S
C1645 C1649 1.385 . S
C1646 H1627 0.951 . S
C1646 C1644 1.388 . S
C1646 C1647 1.366 . S
C1647 C1646 1.366 . S
C1647 C1648 1.414 . S
C1647 C1650 1.499 . S
C1648 H1628 0.950 . S
C1648 C1647 1.414 . S
C1648 C1649 1.374 . S
C1649 H1629 0.950 . S
C1649 C1645 1.385 . S
C1649 C1648 1.374 . S
C1650 C1647 1.499 . S
C1650 C1651 1.373 . S
C1650 C1652 1.389 . S
C1651 H1630 0.950 . S
C1651 C1650 1.373 . S
C1651 C1667 1.377 . S
C1652 C1650 1.389 . S
C1652 C1653 1.524 . S
C1652 C1666 1.377 . S
C1653 C1652 1.524 . S
C1653 C1654 1.397 . S
C1653 C1658 1.363 . S
C1654 H1631 0.950 . S
C1654 C1653 1.397 . S
C1654 C1655 1.334 . S
C1655 H1632 0.950 . S
C1655 C1654 1.334 . S
C1655 C1656 1.287 . S
C1656 C1655 1.287 . S
C1656 C1657 1.524 . S
C1656 H1675 0.913 . S
C1657 H1633 0.950 . S
C1657 C1656 1.524 . S
C1657 C1658 1.415 . S
C1658 H1634 0.950 . S
C1658 C1653 1.363 . S
C1658 C1657 1.415 . S
C1659 H1635 0.951 . S
C1659 C1660 1.366 . S
C1659 C1661 1.388 . S
C1660 C1659 1.366 . S
C1660 C1664 1.385 . S
C1661 H1636 0.951 . S
C1661 C1659 1.388 . S
C1661 C1662 1.366 . S
C1662 C1661 1.366 . S
C1662 C1663 1.414 . S
C1662 C1665 1.499 . S
C1663 H1637 0.950 . S
C1663 C1662 1.414 . S
C1663 C1664 1.374 . S
C1664 H1638 0.950 . S
C1664 C1660 1.385 . S
C1664 C1663 1.374 . S
C1665 C1662 1.499 . S
C1665 C1666 1.373 . S
C1665 C1667 1.389 . S
C1666 H1639 0.950 . S
C1666 C1652 1.377 . S
C1666 C1665 1.373 . S
C1667 C1651 1.377 . S
C1667 C1665 1.389 . S
C1667 C1668 1.524 . S
C1668 C1667 1.524 . S
C1668 C1669 1.397 . S
C1668 C1673 1.363 . S
C1669 H1640 0.950 . S
C1669 C1668 1.397 . S
C1669 C1670 1.334 . S
C1670 H1641 0.950 . S
C1670 C1669 1.334 . S
C1670 C1671 1.287 . S
C1671 C1670 1.287 . S
C1671 C1672 1.524 . S
C1671 H1674 0.999 . S
C1672 H1642 0.950 . S
C1672 C1671 1.524 . S
C1672 C1673 1.415 . S
C1673 H1643 0.950 . S
C1673 C1668 1.363 . S
C1673 C1672 1.415 . S
H1674 C1671 0.999 . S
H1675 C1656 0.913 . S
H1676 C1694 0.951 . S
H1677 C1696 0.951 . S
H1678 C1698 0.950 . S
H1679 C1699 0.950 . S
H1680 C1701 0.950 . S
H1681 C1704 0.950 . S
H1682 C1705 0.950 . S
H1683 C1707 0.950 . S
H1684 C1708 0.950 . S
H1685 C1709 0.951 . S
H1686 C1711 0.951 . S
H1687 C1713 0.950 . S
H1688 C1714 0.950 . S
H1689 C1716 0.950 . S
H1690 C1719 0.950 . S
H1691 C1720 0.950 . S
H1692 C1722 0.950 . S
H1693 C1723 0.950 . S
C1694 H1676 0.951 . S
C1694 C1695 1.366 . S
C1694 C1696 1.388 . S
C1695 C1694 1.366 . S
C1695 C1699 1.385 . S
C1696 H1677 0.951 . S
C1696 C1694 1.388 . S
C1696 C1697 1.366 . S
C1697 C1696 1.366 . S
C1697 C1698 1.414 . S
C1697 C1700 1.499 . S
C1698 H1678 0.950 . S
C1698 C1697 1.414 . S
C1698 C1699 1.374 . S
C1699 H1679 0.950 . S
C1699 C1695 1.385 . S
C1699 C1698 1.374 . S
C1700 C1697 1.499 . S
C1700 C1701 1.373 . S
C1700 C1702 1.389 . S
C1701 H1680 0.950 . S
C1701 C1700 1.373 . S
C1701 C1717 1.377 . S
C1702 C1700 1.389 . S
C1702 C1703 1.524 . S
C1702 C1716 1.377 . S
C1703 C1702 1.524 . S
C1703 C1704 1.397 . S
C1703 C1708 1.363 . S
C1704 H1681 0.950 . S
C1704 C1703 1.397 . S
C1704 C1705 1.334 . S
C1705 H1682 0.950 . S
C1705 C1704 1.334 . S
C1705 C1706 1.287 . S
C1706 C1705 1.287 . S
C1706 C1707 1.524 . S
C1706 H1725 0.913 . S
C1707 H1683 0.950 . S
C1707 C1706 1.524 . S
C1707 C1708 1.415 . S
C1708 H1684 0.950 . S
C1708 C1703 1.363 . S
C1708 C1707 1.415 . S
C1709 H1685 0.951 . S
C1709 C1710 1.366 . S
C1709 C1711 1.388 . S
C1710 C1709 1.366 . S
C1710 C1714 1.385 . S
C1711 H1686 0.951 . S
C1711 C1709 1.388 . S
C1711 C1712 1.366 . S
C1712 C1711 1.366 . S
C1712 C1713 1.414 . S
C1712 C1715 1.499 . S
C1713 H1687 0.950 . S
C1713 C1712 1.414 . S
C1713 C1714 1.374 . S
C1714 H1688 0.950 . S
C1714 C1710 1.385 . S
C1714 C1713 1.374 . S
C1715 C1712 1.499 . S
C1715 C1716 1.373 . S
C1715 C1717 1.389 . S
C1716 H1689 0.950 . S
C1716 C1702 1.377 . S
C1716 C1715 1.373 . S
C1717 C1701 1.377 . S
C1717 C1715 1.389 . S
C1717 C1718 1.524 . S
C1718 C1717 1.524 . S
C1718 C1719 1.397 . S
C1718 C1723 1.363 . S
C1719 H1690 0.950 . S
C1719 C1718 1.397 . S
C1719 C1720 1.334 . S
C1720 H1691 0.950 . S
C1720 C1719 1.334 . S
C1720 C1721 1.343 . S
C1721 C1720 1.343 . S
C1721 C1722 1.499 1_545 S
C1721 H1724 0.961 1_545 S
C1722 H1692 0.950 . S
C1722 C1721 1.499 1_565 S
C1722 C1723 1.415 1_565 S
C1723 H1693 0.950 . S
C1723 C1718 1.363 . S
C1723 C1722 1.415 1_545 S
H1724 C1721 0.961 1_565 S
H1725 C1706 0.913 . S
H1726 C1744 0.951 . S
H1727 C1746 0.951 . S
H1728 C1748 0.950 . S
H1729 C1749 0.950 . S
H1730 C1751 0.950 . S
H1731 C1754 0.950 . S
H1732 C1755 0.950 . S
H1733 C1757 0.950 . S
H1734 C1758 0.950 . S
H1735 C1759 0.951 . S
H1736 C1761 0.951 . S
H1737 C1763 0.950 . S
H1738 C1764 0.950 . S
H1739 C1766 0.950 . S
H1740 C1769 0.950 . S
H1741 C1770 0.950 . S
H1742 C1772 0.950 . S
H1743 C1773 0.950 . S
C1744 H1726 0.951 . S
C1744 C1745 1.366 . S
C1744 C1746 1.388 . S
C1745 C1744 1.366 . S
C1745 C1749 1.385 . S
C1746 H1727 0.951 . S
C1746 C1744 1.388 . S
C1746 C1747 1.366 . S
C1747 C1746 1.366 . S
C1747 C1748 1.414 . S
C1747 C1750 1.499 . S
C1748 H1728 0.950 . S
C1748 C1747 1.414 . S
C1748 C1749 1.374 . S
C1749 H1729 0.950 . S
C1749 C1745 1.385 . S
C1749 C1748 1.374 . S
C1750 C1747 1.499 . S
C1750 C1751 1.373 . S
C1750 C1752 1.389 . S
C1751 H1730 0.950 . S
C1751 C1750 1.373 . S
C1751 C1767 1.377 . S
C1752 C1750 1.389 . S
C1752 C1753 1.524 . S
C1752 C1766 1.377 . S
C1753 C1752 1.524 . S
C1753 C1754 1.397 . S
C1753 C1758 1.363 . S
C1754 H1731 0.950 . S
C1754 C1753 1.397 . S
C1754 C1755 1.334 . S
C1755 H1732 0.950 . S
C1755 C1754 1.334 . S
C1755 C1756 1.287 . S
C1756 C1755 1.287 . S
C1756 C1757 1.524 . S
C1756 H1775 0.913 . S
C1757 H1733 0.950 . S
C1757 C1756 1.524 . S
C1757 C1758 1.415 . S
C1758 H1734 0.950 . S
C1758 C1753 1.363 . S
C1758 C1757 1.415 . S
C1759 H1735 0.951 . S
C1759 C1760 1.366 . S
C1759 C1761 1.388 . S
C1760 C1759 1.366 . S
C1760 C1764 1.385 . S
C1761 H1736 0.951 . S
C1761 C1759 1.388 . S
C1761 C1762 1.366 . S
C1762 C1761 1.366 . S
C1762 C1763 1.414 . S
C1762 C1765 1.499 . S
C1763 H1737 0.950 . S
C1763 C1762 1.414 . S
C1763 C1764 1.374 . S
C1764 H1738 0.950 . S
C1764 C1760 1.385 . S
C1764 C1763 1.374 . S
C1765 C1762 1.499 . S
C1765 C1766 1.373 . S
C1765 C1767 1.389 . S
C1766 H1739 0.950 . S
C1766 C1752 1.377 . S
C1766 C1765 1.373 . S
C1767 C1751 1.377 . S
C1767 C1765 1.389 . S
C1767 C1768 1.524 . S
C1768 C1767 1.524 . S
C1768 C1769 1.397 . S
C1768 C1773 1.363 . S
C1769 H1740 0.950 . S
C1769 C1768 1.397 . S
C1769 C1770 1.334 . S
C1770 H1741 0.950 . S
C1770 C1769 1.334 . S
C1770 C1771 1.287 . S
C1771 C1770 1.287 . S
C1771 C1772 1.524 . S
C1771 H1774 0.999 . S
C1772 H1742 0.950 . S
C1772 C1771 1.524 . S
C1772 C1773 1.415 . S
C1773 H1743 0.950 . S
C1773 C1768 1.363 . S
C1773 C1772 1.415 . S
H1774 C1771 0.999 . S
H1775 C1756 0.913 . S
H1776 C1794 0.951 . S
H1777 C1796 0.951 . S
H1778 C1798 0.950 1_556 S
H1779 C1799 0.950 1_556 S
H1780 C1801 0.950 . S
H1781 C1804 0.950 . S
H1782 C1805 0.950 . S
H1783 C1807 0.950 . S
H1784 C1808 0.950 . S
H1785 C1809 0.951 . S
H1786 C1811 0.951 . S
H1787 C1813 0.953 1_545 S
H1788 C1814 0.950 . S
H1789 C1816 0.950 . S
H1790 C1819 0.950 . S
H1791 C1820 0.956 . S
H1792 C1822 0.954 . S
H1793 C1823 0.950 . S
C1794 H1776 0.951 . S
C1794 C1795 1.366 . S
C1794 C1796 1.388 . S
C1795 C1794 1.366 . S
C1795 C1799 1.385 . S
C1796 H1777 0.951 . S
C1796 C1794 1.388 . S
C1796 C1797 1.366 . S
C1797 C1796 1.366 . S
C1797 C1798 1.414 . S
C1797 C1800 1.499 . S
C1798 H1778 0.950 1_554 S
C1798 C1797 1.414 . S
C1798 C1799 1.374 . S
C1799 H1779 0.950 1_554 S
C1799 C1795 1.385 . S
C1799 C1798 1.374 . S
C1800 C1797 1.499 . S
C1800 C1801 1.373 . S
C1800 C1802 1.389 . S
C1801 H1780 0.950 . S
C1801 C1800 1.373 . S
C1801 C1817 1.377 . S
C1802 C1800 1.389 . S
C1802 C1803 1.524 . S
C1802 C1816 1.377 . S
C1803 C1802 1.524 . S
C1803 C1804 1.397 . S
C1803 C1808 1.363 . S
C1804 H1781 0.950 . S
C1804 C1803 1.397 . S
C1804 C1805 1.334 . S
C1805 H1782 0.950 . S
C1805 C1804 1.334 . S
C1805 C1806 1.287 . S
C1806 C1805 1.287 . S
C1806 C1807 1.524 . S
C1806 H1825 0.913 . S
C1807 H1783 0.950 . S
C1807 C1806 1.524 . S
C1807 C1808 1.415 . S
C1808 H1784 0.950 . S
C1808 C1803 1.363 . S
C1808 C1807 1.415 . S
C1809 H1785 0.951 . S
C1809 C1810 1.366 1_565 S
C1809 C1811 1.388 . S
C1810 C1809 1.366 1_545 S
C1810 C1814 1.385 . S
C1811 H1786 0.951 . S
C1811 C1809 1.388 . S
C1811 C1812 1.366 . S
C1812 C1811 1.366 . S
C1812 C1813 1.423 . S
C1812 C1815 1.499 . S
C1813 H1787 0.953 1_565 S
C1813 C1812 1.423 . S
C1813 C1814 1.363 1_565 S
C1814 H1788 0.950 . S
C1814 C1810 1.385 . S
C1814 C1813 1.363 1_545 S
C1815 C1812 1.499 . S
C1815 C1816 1.373 . S
C1815 C1817 1.389 . S
C1816 H1789 0.950 . S
C1816 C1802 1.377 . S
C1816 C1815 1.373 . S
C1817 C1801 1.377 . S
C1817 C1815 1.389 . S
C1817 C1818 1.524 . S
C1818 C1817 1.524 . S
C1818 C1819 1.397 1_565 S
C1818 C1823 1.363 1_554 S
C1819 H1790 0.950 . S
C1819 C1818 1.397 1_545 S
C1819 C1820 1.349 . S
C1820 H1791 0.956 . S
C1820 C1819 1.349 . S
C1820 C1821 1.266 1_554 S
C1821 C1820 1.266 1_556 S
C1821 C1822 1.493 1_545 S
C1821 H1824 0.999 . S
C1822 H1792 0.954 . S
C1822 C1821 1.493 1_565 S
C1822 C1823 1.441 . S
C1823 H1793 0.950 . S
C1823 C1818 1.363 1_556 S
C1823 C1822 1.441 . S
H1824 C1821 0.999 . S
H1825 C1806 0.913 . S
H1826 C1844 0.951 . S
H1827 C1846 0.951 . S
H1828 C1848 0.950 . S
H1829 C1849 0.950 . S
H1830 C1851 0.954 . S
H1831 C1854 0.950 . S
H1832 C1855 0.950 . S
H1833 C1857 0.950 . S
H1834 C1858 0.950 . S
H1835 C1859 0.951 . S
H1836 C1861 0.951 . S
H1837 C1863 0.950 . S
H1838 C1864 0.950 . S
H1839 C1866 0.943 . S
H1840 C1869 0.950 . S
H1841 C1870 0.950 . S
H1842 C1872 0.984 . S
H1843 C1873 0.950 . S
C1844 H1826 0.951 . S
C1844 C1845 1.366 1_554 S
C1844 C1846 1.388 . S
C1845 C1844 1.366 1_556 S
C1845 C1849 1.385 . S
C1846 H1827 0.951 . S
C1846 C1844 1.388 . S
C1846 C1847 1.366 1_554 S
C1847 C1846 1.366 1_556 S
C1847 C1848 1.414 . S
C1847 C1850 1.499 . S
C1848 H1828 0.950 . S
C1848 C1847 1.414 . S
C1848 C1849 1.374 . S
C1849 H1829 0.950 . S
C1849 C1845 1.385 . S
C1849 C1848 1.374 . S
C1850 C1847 1.499 . S
C1850 C1851 1.373 1_556 S
C1850 C1852 1.389 . S
C1851 H1830 0.954 . S
C1851 C1850 1.373 1_554 S
C1851 C1867 1.378 . S
C1852 C1850 1.389 . S
C1852 C1853 1.524 . S
C1852 C1866 1.394 . S
C1853 C1852 1.524 . S
C1853 C1854 1.397 . S
C1853 C1858 1.363 1_556 S
C1854 H1831 0.950 . S
C1854 C1853 1.397 . S
C1854 C1855 1.334 . S
C1855 H1832 0.950 . S
C1855 C1854 1.334 . S
C1855 C1856 1.287 . S
C1856 C1855 1.287 . S
C1856 C1857 1.524 1_556 S
C1856 H1875 0.913 . S
C1857 H1833 0.950 . S
C1857 C1856 1.524 1_554 S
C1857 C1858 1.415 . S
C1858 H1834 0.950 . S
C1858 C1853 1.363 1_554 S
C1858 C1857 1.415 . S
C1859 H1835 0.951 . S
C1859 C1860 1.366 1_556 S
C1859 C1861 1.388 . S
C1860 C1859 1.366 1_554 S
C1860 C1864 1.385 . S
C1861 H1836 0.951 . S
C1861 C1859 1.388 . S
C1861 C1862 1.366 1_556 S
C1862 C1861 1.366 1_554 S
C1862 C1863 1.414 . S
C1862 C1865 1.499 . S
C1863 H1837 0.950 . S
C1863 C1862 1.414 . S
C1863 C1864 1.374 . S
C1864 H1838 0.950 . S
C1864 C1860 1.385 . S
C1864 C1863 1.374 . S
C1865 C1862 1.499 . S
C1865 C1866 1.368 1_554 S
C1865 C1867 1.389 . S
C1866 H1839 0.943 . S
C1866 C1852 1.394 . S
C1866 C1865 1.368 1_556 S
C1867 C1851 1.378 . S
C1867 C1865 1.389 . S
C1867 C1868 1.524 . S
C1868 C1867 1.524 . S
C1868 C1869 1.397 . S
C1868 C1873 1.363 1_554 S
C1869 H1840 0.950 . S
C1869 C1868 1.397 . S
C1869 C1870 1.334 . S
C1870 H1841 0.950 . S
C1870 C1869 1.334 . S
C1870 C1871 1.287 . S
C1871 C1870 1.287 . S
C1871 C1872 1.476 1_554 S
C1871 H1874 0.999 . S
C1872 H1842 0.984 . S
C1872 C1871 1.476 1_556 S
C1872 C1873 1.426 . S
C1873 H1843 0.950 . S
C1873 C1868 1.363 1_556 S
C1873 C1872 1.426 . S
H1874 C1871 0.999 . S
H1875 C1856 0.913 . S
H1876 C1894 0.951 . S
H1877 C1896 0.951 . S
H1878 C1898 0.950 . S
H1879 C1899 0.950 . S
H1880 C1901 0.950 . S
H1881 C1904 0.950 . S
H1882 C1905 0.950 . S
H1883 C1907 0.950 . S
H1884 C1908 0.950 . S
H1885 C1909 0.951 . S
H1886 C1911 0.951 . S
H1887 C1913 0.950 . S
H1888 C1914 0.950 . S
H1889 C1916 0.950 . S
H1890 C1919 0.950 . S
H1891 C1920 0.950 . S
H1892 C1922 0.950 . S
H1893 C1923 0.950 . S
C1894 H1876 0.951 . S
C1894 C1895 1.366 . S
C1894 C1896 1.388 . S
C1895 C1894 1.366 . S
C1895 C1899 1.385 . S
C1896 H1877 0.951 . S
C1896 C1894 1.388 . S
C1896 C1897 1.366 . S
C1897 C1896 1.366 . S
C1897 C1898 1.414 . S
C1897 C1900 1.499 . S
C1898 H1878 0.950 . S
C1898 C1897 1.414 . S
C1898 C1899 1.374 . S
C1899 H1879 0.950 . S
C1899 C1895 1.385 . S
C1899 C1898 1.374 . S
C1900 C1897 1.499 . S
C1900 C1901 1.373 . S
C1900 C1902 1.389 . S
C1901 H1880 0.950 . S
C1901 C1900 1.373 . S
C1901 C1917 1.377 . S
C1902 C1900 1.389 . S
C1902 C1903 1.524 . S
C1902 C1916 1.377 . S
C1903 C1902 1.524 . S
C1903 C1904 1.397 . S
C1903 C1908 1.363 . S
C1904 H1881 0.950 . S
C1904 C1903 1.397 . S
C1904 C1905 1.334 . S
C1905 H1882 0.950 . S
C1905 C1904 1.334 . S
C1905 C1906 1.287 . S
C1906 C1905 1.287 . S
C1906 C1907 1.524 . S
C1906 H1925 0.913 . S
C1907 H1883 0.950 . S
C1907 C1906 1.524 . S
C1907 C1908 1.415 . S
C1908 H1884 0.950 . S
C1908 C1903 1.363 . S
C1908 C1907 1.415 . S
C1909 H1885 0.951 . S
C1909 C1910 1.366 . S
C1909 C1911 1.388 . S
C1910 C1909 1.366 . S
C1910 C1914 1.385 . S
C1911 H1886 0.951 . S
C1911 C1909 1.388 . S
C1911 C1912 1.366 . S
C1912 C1911 1.366 . S
C1912 C1913 1.414 . S
C1912 C1915 1.499 . S
C1913 H1887 0.950 . S
C1913 C1912 1.414 . S
C1913 C1914 1.374 . S
C1914 H1888 0.950 . S
C1914 C1910 1.385 . S
C1914 C1913 1.374 . S
C1915 C1912 1.499 . S
C1915 C1916 1.373 . S
C1915 C1917 1.389 . S
C1916 H1889 0.950 . S
C1916 C1902 1.377 . S
C1916 C1915 1.373 . S
C1917 C1901 1.377 . S
C1917 C1915 1.389 . S
C1917 C1918 1.524 . S
C1918 C1917 1.524 . S
C1918 C1919 1.397 . S
C1918 C1923 1.363 . S
C1919 H1890 0.950 . S
C1919 C1918 1.397 . S
C1919 C1920 1.334 . S
C1920 H1891 0.950 . S
C1920 C1919 1.334 . S
C1920 C1921 1.287 . S
C1921 C1920 1.287 . S
C1921 C1922 1.524 . S
C1921 H1924 0.999 . S
C1922 H1892 0.950 . S
C1922 C1921 1.524 . S
C1922 C1923 1.415 . S
C1923 H1893 0.950 . S
C1923 C1918 1.363 . S
C1923 C1922 1.415 . S
H1924 C1921 0.999 . S
H1925 C1906 0.913 . S
H1926 C1944 0.951 . S
H1927 C1946 0.951 . S
H1928 C1948 0.950 . S
H1929 C1949 0.950 . S
H1930 C1951 0.950 . S
H1931 C1954 0.950 . S
H1932 C1955 0.950 . S
H1933 C1957 0.950 . S
H1934 C1958 0.950 . S
H1935 C1959 0.951 . S
H1936 C1961 0.951 . S
H1937 C1963 0.950 . S
H1938 C1964 0.950 . S
H1939 C1966 0.950 . S
H1940 C1969 0.950 . S
H1941 C1970 0.950 . S
H1942 C1972 0.950 . S
H1943 C1973 0.950 . S
C1944 H1926 0.951 . S
C1944 C1945 1.366 . S
C1944 C1946 1.388 . S
C1945 C1944 1.366 . S
C1945 C1949 1.385 . S
C1946 H1927 0.951 . S
C1946 C1944 1.388 . S
C1946 C1947 1.366 . S
C1947 C1946 1.366 . S
C1947 C1948 1.414 . S
C1947 C1950 1.499 . S
C1948 H1928 0.950 . S
C1948 C1947 1.414 . S
C1948 C1949 1.374 . S
C1949 H1929 0.950 . S
C1949 C1945 1.385 . S
C1949 C1948 1.374 . S
C1950 C1947 1.499 . S
C1950 C1951 1.373 . S
C1950 C1952 1.389 . S
C1951 H1930 0.950 . S
C1951 C1950 1.373 . S
C1951 C1967 1.377 . S
C1952 C1950 1.389 . S
C1952 C1953 1.524 . S
C1952 C1966 1.377 . S
C1953 C1952 1.524 . S
C1953 C1954 1.397 . S
C1953 C1958 1.363 . S
C1954 H1931 0.950 . S
C1954 C1953 1.397 . S
C1954 C1955 1.334 . S
C1955 H1932 0.950 . S
C1955 C1954 1.334 . S
C1955 C1956 1.287 . S
C1956 C1955 1.287 . S
C1956 C1957 1.524 . S
C1956 H1975 0.913 . S
C1957 H1933 0.950 . S
C1957 C1956 1.524 . S
C1957 C1958 1.415 . S
C1958 H1934 0.950 . S
C1958 C1953 1.363 . S
C1958 C1957 1.415 . S
C1959 H1935 0.951 . S
C1959 C1960 1.366 . S
C1959 C1961 1.388 . S
C1960 C1959 1.366 . S
C1960 C1964 1.385 . S
C1961 H1936 0.951 . S
C1961 C1959 1.388 . S
C1961 C1962 1.366 . S
C1962 C1961 1.366 . S
C1962 C1963 1.414 . S
C1962 C1965 1.499 . S
C1963 H1937 0.950 . S
C1963 C1962 1.414 . S
C1963 C1964 1.374 . S
C1964 H1938 0.950 . S
C1964 C1960 1.385 . S
C1964 C1963 1.374 . S
C1965 C1962 1.499 . S
C1965 C1966 1.373 . S
C1965 C1967 1.389 . S
C1966 H1939 0.950 . S
C1966 C1952 1.377 . S
C1966 C1965 1.373 . S
C1967 C1951 1.377 . S
C1967 C1965 1.389 . S
C1967 C1968 1.524 . S
C1968 C1967 1.524 . S
C1968 C1969 1.397 . S
C1968 C1973 1.363 . S
C1969 H1940 0.950 . S
C1969 C1968 1.397 . S
C1969 C1970 1.334 . S
C1970 H1941 0.950 . S
C1970 C1969 1.334 . S
C1970 C1971 1.287 . S
C1971 C1970 1.287 . S
C1971 C1972 1.524 . S
C1971 H1974 0.999 . S
C1972 H1942 0.950 . S
C1972 C1971 1.524 . S
C1972 C1973 1.415 . S
C1973 H1943 0.950 . S
C1973 C1968 1.363 . S
C1973 C1972 1.415 . S
H1974 C1971 0.999 . S
H1975 C1956 0.913 . S
H1976 C1994 0.951 . S
H1977 C1996 0.951 . S
H1978 C1998 0.950 . S
H1979 C1999 0.950 . S
H1980 C2001 0.950 . S
H1981 C2004 0.950 . S
H1982 C2005 0.950 . S
H1983 C2007 0.950 . S
H1984 C2008 0.950 . S
H1985 C2009 0.951 . S
H1986 C2011 0.951 . S
H1987 C2013 0.950 . S
H1988 C2014 0.950 . S
H1989 C2016 0.950 . S
H1990 C2019 0.950 . S
H1991 C2020 0.950 . S
H1992 C2022 0.950 . S
H1993 C2023 0.950 . S
C1994 H1976 0.951 . S
C1994 C1995 1.366 . S
C1994 C1996 1.388 . S
C1995 C1994 1.366 . S
C1995 C1999 1.385 . S
C1996 H1977 0.951 . S
C1996 C1994 1.388 . S
C1996 C1997 1.366 . S
C1997 C1996 1.366 . S
C1997 C1998 1.414 . S
C1997 C2000 1.499 . S
C1998 H1978 0.950 . S
C1998 C1997 1.414 . S
C1998 C1999 1.374 . S
C1999 H1979 0.950 . S
C1999 C1995 1.385 . S
C1999 C1998 1.374 . S
C2000 C1997 1.499 . S
C2000 C2001 1.373 . S
C2000 C2002 1.389 . S
C2001 H1980 0.950 . S
C2001 C2000 1.373 . S
C2001 C2017 1.377 . S
C2002 C2000 1.389 . S
C2002 C2003 1.524 . S
C2002 C2016 1.377 . S
C2003 C2002 1.524 . S
C2003 C2004 1.397 . S
C2003 C2008 1.363 . S
C2004 H1981 0.950 . S
C2004 C2003 1.397 . S
C2004 C2005 1.334 . S
C2005 H1982 0.950 . S
C2005 C2004 1.334 . S
C2005 C2006 1.287 . S
C2006 C2005 1.287 . S
C2006 C2007 1.524 . S
C2006 H2025 0.913 . S
C2007 H1983 0.950 . S
C2007 C2006 1.524 . S
C2007 C2008 1.415 . S
C2008 H1984 0.950 . S
C2008 C2003 1.363 . S
C2008 C2007 1.415 . S
C2009 H1985 0.951 . S
C2009 C2010 1.366 . S
C2009 C2011 1.388 . S
C2010 C2009 1.366 . S
C2010 C2014 1.385 . S
C2011 H1986 0.951 . S
C2011 C2009 1.388 . S
C2011 C2012 1.366 . S
C2012 C2011 1.366 . S
C2012 C2013 1.414 . S
C2012 C2015 1.499 . S
C2013 H1987 0.950 . S
C2013 C2012 1.414 . S
C2013 C2014 1.374 . S
C2014 H1988 0.950 . S
C2014 C2010 1.385 . S
C2014 C2013 1.374 . S
C2015 C2012 1.499 . S
C2015 C2016 1.373 . S
C2015 C2017 1.389 . S
C2016 H1989 0.950 . S
C2016 C2002 1.377 . S
C2016 C2015 1.373 . S
C2017 C2001 1.377 . S
C2017 C2015 1.389 . S
C2017 C2018 1.524 . S
C2018 C2017 1.524 . S
C2018 C2019 1.397 . S
C2018 C2023 1.363 . S
C2019 H1990 0.950 . S
C2019 C2018 1.397 . S
C2019 C2020 1.334 . S
C2020 H1991 0.950 . S
C2020 C2019 1.334 . S
C2020 C2021 1.287 . S
C2021 C2020 1.287 . S
C2021 C2022 1.524 . S
C2021 H2024 0.999 . S
C2022 H1992 0.950 . S
C2022 C2021 1.524 . S
C2022 C2023 1.415 . S
C2023 H1993 0.950 . S
C2023 C2018 1.363 . S
C2023 C2022 1.415 . S
H2024 C2021 0.999 . S
H2025 C2006 0.913 . S
H2026 C2044 0.951 . S
H2027 C2046 0.951 . S
H2028 C2048 0.950 . S
H2029 C2049 0.950 . S
H2030 C2051 0.950 . S
H2031 C2054 0.950 . S
H2032 C2055 0.950 . S
H2033 C2057 0.950 . S
H2034 C2058 0.950 . S
H2035 C2059 0.951 . S
H2036 C2061 0.951 . S
H2037 C2063 0.950 . S
H2038 C2064 0.950 . S
H2039 C2066 0.950 . S
H2040 C2069 0.950 . S
H2041 C2070 0.950 . S
H2042 C2072 0.950 . S
H2043 C2073 0.950 . S
C2044 H2026 0.951 . S
C2044 C2045 1.366 . S
C2044 C2046 1.388 . S
C2045 C2044 1.366 . S
C2045 C2049 1.385 . S
C2046 H2027 0.951 . S
C2046 C2044 1.388 . S
C2046 C2047 1.366 . S
C2047 C2046 1.366 . S
C2047 C2048 1.414 . S
C2047 C2050 1.499 . S
C2048 H2028 0.950 . S
C2048 C2047 1.414 . S
C2048 C2049 1.374 . S
C2049 H2029 0.950 . S
C2049 C2045 1.385 . S
C2049 C2048 1.374 . S
C2050 C2047 1.499 . S
C2050 C2051 1.373 . S
C2050 C2052 1.389 . S
C2051 H2030 0.950 . S
C2051 C2050 1.373 . S
C2051 C2067 1.377 . S
C2052 C2050 1.389 . S
C2052 C2053 1.524 . S
C2052 C2066 1.377 . S
C2053 C2052 1.524 . S
C2053 C2054 1.397 . S
C2053 C2058 1.363 . S
C2054 H2031 0.950 . S
C2054 C2053 1.397 . S
C2054 C2055 1.334 . S
C2055 H2032 0.950 . S
C2055 C2054 1.334 . S
C2055 C2056 1.287 . S
C2056 C2055 1.287 . S
C2056 C2057 1.524 . S
C2056 H2075 0.913 . S
C2057 H2033 0.950 . S
C2057 C2056 1.524 . S
C2057 C2058 1.415 . S
C2058 H2034 0.950 . S
C2058 C2053 1.363 . S
C2058 C2057 1.415 . S
C2059 H2035 0.951 . S
C2059 C2060 1.366 . S
C2059 C2061 1.388 . S
C2060 C2059 1.366 . S
C2060 C2064 1.385 . S
C2061 H2036 0.951 . S
C2061 C2059 1.388 . S
C2061 C2062 1.366 . S
C2062 C2061 1.366 . S
C2062 C2063 1.414 . S
C2062 C2065 1.499 . S
C2063 H2037 0.950 . S
C2063 C2062 1.414 . S
C2063 C2064 1.374 . S
C2064 H2038 0.950 . S
C2064 C2060 1.385 . S
C2064 C2063 1.374 . S
C2065 C2062 1.499 . S
C2065 C2066 1.373 . S
C2065 C2067 1.389 . S
C2066 H2039 0.950 . S
C2066 C2052 1.377 . S
C2066 C2065 1.373 . S
C2067 C2051 1.377 . S
C2067 C2065 1.389 . S
C2067 C2068 1.524 . S
C2068 C2067 1.524 . S
C2068 C2069 1.397 . S
C2068 C2073 1.363 . S
C2069 H2040 0.950 . S
C2069 C2068 1.397 . S
C2069 C2070 1.334 . S
C2070 H2041 0.950 . S
C2070 C2069 1.334 . S
C2070 C2071 1.287 . S
C2071 C2070 1.287 . S
C2071 C2072 1.524 . S
C2071 H2074 0.999 . S
C2072 H2042 0.950 . S
C2072 C2071 1.524 . S
C2072 C2073 1.415 . S
C2073 H2043 0.950 . S
C2073 C2068 1.363 . S
C2073 C2072 1.415 . S
H2074 C2071 0.999 . S
H2075 C2056 0.913 . S
H2076 C2094 0.951 . S
H2077 C2096 0.951 . S
H2078 C2098 0.950 . S
H2079 C2099 0.950 . S
H2080 C2101 0.950 . S
H2081 C2104 0.950 . S
H2082 C2105 0.950 . S
H2083 C2107 0.950 . S
H2084 C2108 0.950 . S
H2085 C2109 0.951 . S
H2086 C2111 0.951 . S
H2087 C2113 0.950 . S
H2088 C2114 0.950 . S
H2089 C2116 0.950 . S
H2090 C2119 0.950 . S
H2091 C2120 0.950 . S
H2092 C2122 0.950 . S
H2093 C2123 0.950 . S
C2094 H2076 0.951 . S
C2094 C2095 1.366 . S
C2094 C2096 1.388 . S
C2095 C2094 1.366 . S
C2095 C2099 1.385 . S
C2096 H2077 0.951 . S
C2096 C2094 1.388 . S
C2096 C2097 1.366 . S
C2097 C2096 1.366 . S
C2097 C2098 1.414 . S
C2097 C2100 1.499 . S
C2098 H2078 0.950 . S
C2098 C2097 1.414 . S
C2098 C2099 1.374 . S
C2099 H2079 0.950 . S
C2099 C2095 1.385 . S
C2099 C2098 1.374 . S
C2100 C2097 1.499 . S
C2100 C2101 1.373 . S
C2100 C2102 1.389 . S
C2101 H2080 0.950 . S
C2101 C2100 1.373 . S
C2101 C2117 1.377 . S
C2102 C2100 1.389 . S
C2102 C2103 1.524 . S
C2102 C2116 1.377 . S
C2103 C2102 1.524 . S
C2103 C2104 1.397 . S
C2103 C2108 1.363 . S
C2104 H2081 0.950 . S
C2104 C2103 1.397 . S
C2104 C2105 1.334 . S
C2105 H2082 0.950 . S
C2105 C2104 1.334 . S
C2105 C2106 1.287 . S
C2106 C2105 1.287 . S
C2106 C2107 1.524 . S
C2106 H2125 0.913 . S
C2107 H2083 0.950 . S
C2107 C2106 1.524 . S
C2107 C2108 1.415 . S
C2108 H2084 0.950 . S
C2108 C2103 1.363 . S
C2108 C2107 1.415 . S
C2109 H2085 0.951 . S
C2109 C2110 1.366 . S
C2109 C2111 1.388 . S
C2110 C2109 1.366 . S
C2110 C2114 1.385 . S
C2111 H2086 0.951 . S
C2111 C2109 1.388 . S
C2111 C2112 1.366 . S
C2112 C2111 1.366 . S
C2112 C2113 1.414 . S
C2112 C2115 1.499 . S
C2113 H2087 0.950 . S
C2113 C2112 1.414 . S
C2113 C2114 1.374 . S
C2114 H2088 0.950 . S
C2114 C2110 1.385 . S
C2114 C2113 1.374 . S
C2115 C2112 1.499 . S
C2115 C2116 1.373 . S
C2115 C2117 1.389 . S
C2116 H2089 0.950 . S
C2116 C2102 1.377 . S
C2116 C2115 1.373 . S
C2117 C2101 1.377 . S
C2117 C2115 1.389 . S
C2117 C2118 1.524 . S
C2118 C2117 1.524 . S
C2118 C2119 1.397 . S
C2118 C2123 1.363 . S
C2119 H2090 0.950 . S
C2119 C2118 1.397 . S
C2119 C2120 1.334 . S
C2120 H2091 0.950 . S
C2120 C2119 1.334 . S
C2120 C2121 1.287 . S
C2121 C2120 1.287 . S
C2121 C2122 1.524 . S
C2121 H2124 0.999 . S
C2122 H2092 0.950 . S
C2122 C2121 1.524 . S
C2122 C2123 1.415 . S
C2123 H2093 0.950 . S
C2123 C2118 1.363 . S
C2123 C2122 1.415 . S
H2124 C2121 0.999 . S
H2125 C2106 0.913 . S
H2126 C2144 0.951 . S
H2127 C2146 0.951 . S
H2128 C2148 0.950 . S
H2129 C2149 0.950 . S
H2130 C2151 0.950 . S
H2131 C2154 0.950 . S
H2132 C2155 0.950 . S
H2133 C2157 0.950 . S
H2134 C2158 0.950 . S
H2135 C2159 0.951 . S
H2136 C2161 0.951 . S
H2137 C2163 0.950 . S
H2138 C2164 0.950 . S
H2139 C2166 0.950 . S
H2140 C2169 0.950 . S
H2141 C2170 0.950 . S
H2142 C2172 0.950 . S
H2143 C2173 0.950 . S
C2144 H2126 0.951 . S
C2144 C2145 1.366 . S
C2144 C2146 1.388 . S
C2145 C2144 1.366 . S
C2145 C2149 1.385 . S
C2146 H2127 0.951 . S
C2146 C2144 1.388 . S
C2146 C2147 1.366 . S
C2147 C2146 1.366 . S
C2147 C2148 1.414 . S
C2147 C2150 1.499 . S
C2148 H2128 0.950 . S
C2148 C2147 1.414 . S
C2148 C2149 1.374 . S
C2149 H2129 0.950 . S
C2149 C2145 1.385 . S
C2149 C2148 1.374 . S
C2150 C2147 1.499 . S
C2150 C2151 1.373 . S
C2150 C2152 1.389 . S
C2151 H2130 0.950 . S
C2151 C2150 1.373 . S
C2151 C2167 1.377 . S
C2152 C2150 1.389 . S
C2152 C2153 1.524 . S
C2152 C2166 1.377 . S
C2153 C2152 1.524 . S
C2153 C2154 1.397 . S
C2153 C2158 1.363 . S
C2154 H2131 0.950 . S
C2154 C2153 1.397 . S
C2154 C2155 1.334 . S
C2155 H2132 0.950 . S
C2155 C2154 1.334 . S
C2155 C2156 1.287 . S
C2156 C2155 1.287 . S
C2156 C2157 1.524 . S
C2156 H2175 0.913 . S
C2157 H2133 0.950 . S
C2157 C2156 1.524 . S
C2157 C2158 1.415 . S
C2158 H2134 0.950 . S
C2158 C2153 1.363 . S
C2158 C2157 1.415 . S
C2159 H2135 0.951 . S
C2159 C2160 1.366 . S
C2159 C2161 1.388 . S
C2160 C2159 1.366 . S
C2160 C2164 1.385 . S
C2161 H2136 0.951 . S
C2161 C2159 1.388 . S
C2161 C2162 1.366 . S
C2162 C2161 1.366 . S
C2162 C2163 1.414 . S
C2162 C2165 1.499 . S
C2163 H2137 0.950 . S
C2163 C2162 1.414 . S
C2163 C2164 1.374 . S
C2164 H2138 0.950 . S
C2164 C2160 1.385 . S
C2164 C2163 1.374 . S
C2165 C2162 1.499 . S
C2165 C2166 1.373 . S
C2165 C2167 1.389 . S
C2166 H2139 0.950 . S
C2166 C2152 1.377 . S
C2166 C2165 1.373 . S
C2167 C2151 1.377 . S
C2167 C2165 1.389 . S
C2167 C2168 1.524 . S
C2168 C2167 1.524 . S
C2168 C2169 1.397 . S
C2168 C2173 1.363 . S
C2169 H2140 0.950 . S
C2169 C2168 1.397 . S
C2169 C2170 1.334 . S
C2170 H2141 0.950 . S
C2170 C2169 1.334 . S
C2170 C2171 1.287 . S
C2171 C2170 1.287 . S
C2171 C2172 1.524 . S
C2171 H2174 0.999 . S
C2172 H2142 0.950 . S
C2172 C2171 1.524 . S
C2172 C2173 1.415 . S
C2173 H2143 0.950 . S
C2173 C2168 1.363 . S
C2173 C2172 1.415 . S
H2174 C2171 0.999 . S
H2175 C2156 0.913 . S
H2176 C2194 0.951 . S
H2177 C2196 0.951 . S
H2178 C2198 0.950 . S
H2179 C2199 0.950 . S
H2180 C2201 0.950 . S
H2181 C2204 0.950 . S
H2182 C2205 0.950 . S
H2183 C2207 0.950 . S
H2184 C2208 0.950 . S
H2185 C2209 0.951 . S
H2186 C2211 0.951 . S
H2187 C2213 0.950 . S
H2188 C2214 0.950 . S
H2189 C2216 0.950 . S
H2190 C2219 0.950 . S
H2191 C2220 0.948 1_655 S
H2192 C2222 0.950 . S
H2193 C2223 0.950 . S
C2194 H2176 0.951 . S
C2194 C2195 1.366 . S
C2194 C2196 1.388 . S
C2195 C2194 1.366 . S
C2195 C2199 1.385 . S
C2196 H2177 0.951 . S
C2196 C2194 1.388 . S
C2196 C2197 1.366 . S
C2197 C2196 1.366 . S
C2197 C2198 1.414 . S
C2197 C2200 1.499 . S
C2198 H2178 0.950 . S
C2198 C2197 1.414 . S
C2198 C2199 1.374 . S
C2199 H2179 0.950 . S
C2199 C2195 1.385 . S
C2199 C2198 1.374 . S
C2200 C2197 1.499 . S
C2200 C2201 1.373 . S
C2200 C2202 1.389 . S
C2201 H2180 0.950 . S
C2201 C2200 1.373 . S
C2201 C2217 1.377 . S
C2202 C2200 1.389 . S
C2202 C2203 1.524 . S
C2202 C2216 1.377 . S
C2203 C2202 1.524 . S
C2203 C2204 1.397 . S
C2203 C2208 1.363 . S
C2204 H2181 0.950 . S
C2204 C2203 1.397 . S
C2204 C2205 1.334 . S
C2205 H2182 0.950 . S
C2205 C2204 1.334 . S
C2205 C2206 1.287 . S
C2206 C2205 1.287 . S
C2206 C2207 1.524 . S
C2206 H2225 0.913 . S
C2207 H2183 0.950 . S
C2207 C2206 1.524 . S
C2207 C2208 1.415 . S
C2208 H2184 0.950 . S
C2208 C2203 1.363 . S
C2208 C2207 1.415 . S
C2209 H2185 0.951 . S
C2209 C2210 1.366 . S
C2209 C2211 1.388 . S
C2210 C2209 1.366 . S
C2210 C2214 1.385 . S
C2211 H2186 0.951 . S
C2211 C2209 1.388 . S
C2211 C2212 1.366 . S
C2212 C2211 1.366 . S
C2212 C2213 1.414 . S
C2212 C2215 1.499 . S
C2213 H2187 0.950 . S
C2213 C2212 1.414 . S
C2213 C2214 1.374 . S
C2214 H2188 0.950 . S
C2214 C2210 1.385 . S
C2214 C2213 1.374 . S
C2215 C2212 1.499 . S
C2215 C2216 1.373 . S
C2215 C2217 1.389 . S
C2216 H2189 0.950 . S
C2216 C2202 1.377 . S
C2216 C2215 1.373 . S
C2217 C2201 1.377 . S
C2217 C2215 1.389 . S
C2217 C2218 1.524 . S
C2218 C2217 1.524 . S
C2218 C2219 1.397 . S
C2218 C2223 1.363 . S
C2219 H2190 0.950 . S
C2219 C2218 1.397 . S
C2219 C2220 1.351 . S
C2220 H2191 0.948 1_455 S
C2220 C2219 1.351 . S
C2220 C2221 1.273 1_455 S
C2221 C2220 1.273 1_655 S
C2221 C2222 1.524 . S
C2221 H2224 0.999 . S
C2222 H2192 0.950 . S
C2222 C2221 1.524 . S
C2222 C2223 1.415 1_655 S
C2223 H2193 0.950 . S
C2223 C2218 1.363 . S
C2223 C2222 1.415 1_455 S
H2224 C2221 0.999 . S
H2225 C2206 0.913 . S
H2226 C2244 0.951 . S
H2227 C2246 0.951 . S
H2228 C2248 0.950 . S
H2229 C2249 0.950 . S
H2230 C2251 0.950 . S
H2231 C2254 0.950 . S
H2232 C2255 0.950 . S
H2233 C2257 0.950 . S
H2234 C2258 0.950 . S
H2235 C2259 0.951 . S
H2236 C2261 0.951 . S
H2237 C2263 0.950 . S
H2238 C2264 0.950 . S
H2239 C2266 0.950 . S
H2240 C2269 0.950 . S
H2241 C2270 0.950 . S
H2242 C2272 0.950 . S
H2243 C2273 0.950 . S
C2244 H2226 0.951 . S
C2244 C2245 1.366 . S
C2244 C2246 1.388 . S
C2245 C2244 1.366 . S
C2245 C2249 1.385 . S
C2246 H2227 0.951 . S
C2246 C2244 1.388 . S
C2246 C2247 1.366 . S
C2247 C2246 1.366 . S
C2247 C2248 1.414 . S
C2247 C2250 1.499 . S
C2248 H2228 0.950 . S
C2248 C2247 1.414 . S
C2248 C2249 1.374 . S
C2249 H2229 0.950 . S
C2249 C2245 1.385 . S
C2249 C2248 1.374 . S
C2250 C2247 1.499 . S
C2250 C2251 1.373 . S
C2250 C2252 1.389 . S
C2251 H2230 0.950 . S
C2251 C2250 1.373 . S
C2251 C2267 1.377 . S
C2252 C2250 1.389 . S
C2252 C2253 1.524 . S
C2252 C2266 1.377 . S
C2253 C2252 1.524 . S
C2253 C2254 1.397 . S
C2253 C2258 1.363 . S
C2254 H2231 0.950 . S
C2254 C2253 1.397 . S
C2254 C2255 1.334 . S
C2255 H2232 0.950 . S
C2255 C2254 1.334 . S
C2255 C2256 1.287 . S
C2256 C2255 1.287 . S
C2256 C2257 1.524 . S
C2256 H2275 0.913 . S
C2257 H2233 0.950 . S
C2257 C2256 1.524 . S
C2257 C2258 1.415 . S
C2258 H2234 0.950 . S
C2258 C2253 1.363 . S
C2258 C2257 1.415 . S
C2259 H2235 0.951 . S
C2259 C2260 1.366 . S
C2259 C2261 1.388 . S
C2260 C2259 1.366 . S
C2260 C2264 1.385 . S
C2261 H2236 0.951 . S
C2261 C2259 1.388 . S
C2261 C2262 1.366 . S
C2262 C2261 1.366 . S
C2262 C2263 1.414 . S
C2262 C2265 1.499 . S
C2263 H2237 0.950 . S
C2263 C2262 1.414 . S
C2263 C2264 1.374 . S
C2264 H2238 0.950 . S
C2264 C2260 1.385 . S
C2264 C2263 1.374 . S
C2265 C2262 1.499 . S
C2265 C2266 1.373 . S
C2265 C2267 1.389 . S
C2266 H2239 0.950 . S
C2266 C2252 1.377 . S
C2266 C2265 1.373 . S
C2267 C2251 1.377 . S
C2267 C2265 1.389 . S
C2267 C2268 1.524 . S
C2268 C2267 1.524 . S
C2268 C2269 1.397 . S
C2268 C2273 1.363 . S
C2269 H2240 0.950 . S
C2269 C2268 1.397 . S
C2269 C2270 1.334 . S
C2270 H2241 0.950 . S
C2270 C2269 1.334 . S
C2270 C2271 1.287 . S
C2271 C2270 1.287 . S
C2271 C2272 1.524 . S
C2271 H2274 0.999 . S
C2272 H2242 0.950 . S
C2272 C2271 1.524 . S
C2272 C2273 1.415 . S
C2273 H2243 0.950 . S
C2273 C2268 1.363 . S
C2273 C2272 1.415 . S
H2274 C2271 0.999 . S
H2275 C2256 0.913 . S
H2276 C2294 0.951 . S
H2277 C2296 0.951 . S
H2278 C2298 0.950 . S
H2279 C2299 0.950 . S
H2280 C2301 0.950 . S
H2281 C2304 0.950 . S
H2282 C2305 0.950 . S
H2283 C2307 0.950 . S
H2284 C2308 0.950 . S
H2285 C2309 0.951 . S
H2286 C2311 0.951 . S
H2287 C2313 0.950 . S
H2288 C2314 0.950 . S
H2289 C2316 0.950 . S
H2290 C2319 0.950 . S
H2291 C2320 0.950 . S
H2292 C2322 0.950 . S
H2293 C2323 0.950 . S
C2294 H2276 0.951 . S
C2294 C2295 1.366 . S
C2294 C2296 1.388 . S
C2295 C2294 1.366 . S
C2295 C2299 1.385 . S
C2296 H2277 0.951 . S
C2296 C2294 1.388 . S
C2296 C2297 1.366 . S
C2297 C2296 1.366 . S
C2297 C2298 1.414 . S
C2297 C2300 1.499 . S
C2298 H2278 0.950 . S
C2298 C2297 1.414 . S
C2298 C2299 1.374 . S
C2299 H2279 0.950 . S
C2299 C2295 1.385 . S
C2299 C2298 1.374 . S
C2300 C2297 1.499 . S
C2300 C2301 1.373 . S
C2300 C2302 1.389 . S
C2301 H2280 0.950 . S
C2301 C2300 1.373 . S
C2301 C2317 1.377 . S
C2302 C2300 1.389 . S
C2302 C2303 1.524 . S
C2302 C2316 1.377 . S
C2303 C2302 1.524 . S
C2303 C2304 1.397 . S
C2303 C2308 1.363 . S
C2304 H2281 0.950 . S
C2304 C2303 1.397 . S
C2304 C2305 1.334 . S
C2305 H2282 0.950 . S
C2305 C2304 1.334 . S
C2305 C2306 1.287 . S
C2306 C2305 1.287 . S
C2306 C2307 1.524 . S
C2306 H2325 0.913 . S
C2307 H2283 0.950 . S
C2307 C2306 1.524 . S
C2307 C2308 1.415 . S
C2308 H2284 0.950 . S
C2308 C2303 1.363 . S
C2308 C2307 1.415 . S
C2309 H2285 0.951 . S
C2309 C2310 1.366 . S
C2309 C2311 1.388 . S
C2310 C2309 1.366 . S
C2310 C2314 1.385 . S
C2311 H2286 0.951 . S
C2311 C2309 1.388 . S
C2311 C2312 1.366 . S
C2312 C2311 1.366 . S
C2312 C2313 1.414 . S
C2312 C2315 1.499 . S
C2313 H2287 0.950 . S
C2313 C2312 1.414 . S
C2313 C2314 1.374 . S
C2314 H2288 0.950 . S
C2314 C2310 1.385 . S
C2314 C2313 1.374 . S
C2315 C2312 1.499 . S
C2315 C2316 1.373 . S
C2315 C2317 1.389 . S
C2316 H2289 0.950 . S
C2316 C2302 1.377 . S
C2316 C2315 1.373 . S
C2317 C2301 1.377 . S
C2317 C2315 1.389 . S
C2317 C2318 1.524 . S
C2318 C2317 1.524 . S
C2318 C2319 1.397 . S
C2318 C2323 1.363 . S
C2319 H2290 0.950 . S
C2319 C2318 1.397 . S
C2319 C2320 1.334 . S
C2320 H2291 0.950 . S
C2320 C2319 1.334 . S
C2320 C2321 1.287 . S
C2321 C2320 1.287 . S
C2321 C2322 1.524 . S
C2321 H2324 0.999 . S
C2322 H2292 0.950 . S
C2322 C2321 1.524 . S
C2322 C2323 1.415 . S
C2323 H2293 0.950 . S
C2323 C2318 1.363 . S
C2323 C2322 1.415 . S
H2324 C2321 0.999 . S
H2325 C2306 0.913 . S
H2326 C2344 0.951 . S
H2327 C2346 0.951 . S
H2328 C2348 0.950 . S
H2329 C2349 0.950 . S
H2330 C2351 0.950 . S
H2331 C2354 0.950 . S
H2332 C2355 0.950 . S
H2333 C2357 0.950 . S
H2334 C2358 0.950 . S
H2335 C2359 0.951 . S
H2336 C2361 0.951 . S
H2337 C2363 0.950 . S
H2338 C2364 0.950 . S
H2339 C2366 0.950 . S
H2340 C2369 0.950 . S
H2341 C2370 0.950 . S
H2342 C2372 0.950 . S
H2343 C2373 0.950 . S
C2344 H2326 0.951 . S
C2344 C2345 1.366 . S
C2344 C2346 1.388 . S
C2345 C2344 1.366 . S
C2345 C2349 1.385 . S
C2346 H2327 0.951 . S
C2346 C2344 1.388 . S
C2346 C2347 1.366 . S
C2347 C2346 1.366 . S
C2347 C2348 1.414 . S
C2347 C2350 1.499 . S
C2348 H2328 0.950 . S
C2348 C2347 1.414 . S
C2348 C2349 1.374 . S
C2349 H2329 0.950 . S
C2349 C2345 1.385 . S
C2349 C2348 1.374 . S
C2350 C2347 1.499 . S
C2350 C2351 1.373 . S
C2350 C2352 1.389 . S
C2351 H2330 0.950 . S
C2351 C2350 1.373 . S
C2351 C2367 1.377 . S
C2352 C2350 1.389 . S
C2352 C2353 1.524 . S
C2352 C2366 1.377 . S
C2353 C2352 1.524 . S
C2353 C2354 1.397 . S
C2353 C2358 1.363 . S
C2354 H2331 0.950 . S
C2354 C2353 1.397 . S
C2354 C2355 1.334 . S
C2355 H2332 0.950 . S
C2355 C2354 1.334 . S
C2355 C2356 1.287 . S
C2356 C2355 1.287 . S
C2356 C2357 1.524 . S
C2356 H2375 0.913 . S
C2357 H2333 0.950 . S
C2357 C2356 1.524 . S
C2357 C2358 1.415 . S
C2358 H2334 0.950 . S
C2358 C2353 1.363 . S
C2358 C2357 1.415 . S
C2359 H2335 0.951 . S
C2359 C2360 1.366 . S
C2359 C2361 1.388 . S
C2360 C2359 1.366 . S
C2360 C2364 1.385 . S
C2361 H2336 0.951 . S
C2361 C2359 1.388 . S
C2361 C2362 1.366 . S
C2362 C2361 1.366 . S
C2362 C2363 1.414 . S
C2362 C2365 1.499 . S
C2363 H2337 0.950 . S
C2363 C2362 1.414 . S
C2363 C2364 1.374 . S
C2364 H2338 0.950 . S
C2364 C2360 1.385 . S
C2364 C2363 1.374 . S
C2365 C2362 1.499 . S
C2365 C2366 1.373 . S
C2365 C2367 1.389 . S
C2366 H2339 0.950 . S
C2366 C2352 1.377 . S
C2366 C2365 1.373 . S
C2367 C2351 1.377 . S
C2367 C2365 1.389 . S
C2367 C2368 1.524 . S
C2368 C2367 1.524 . S
C2368 C2369 1.397 . S
C2368 C2373 1.363 . S
C2369 H2340 0.950 . S
C2369 C2368 1.397 . S
C2369 C2370 1.334 . S
C2370 H2341 0.950 . S
C2370 C2369 1.334 . S
C2370 C2371 1.287 . S
C2371 C2370 1.287 . S
C2371 C2372 1.524 . S
C2371 H2374 0.999 . S
C2372 H2342 0.950 . S
C2372 C2371 1.524 . S
C2372 C2373 1.415 . S
C2373 H2343 0.950 . S
C2373 C2368 1.363 . S
C2373 C2372 1.415 . S
H2374 C2371 0.999 . S
H2375 C2356 0.913 . S
H2376 C2394 0.951 . S
H2377 C2396 0.951 . S
H2378 C2398 0.950 . S
H2379 C2399 0.950 . S
H2380 C2401 0.950 . S
H2381 C2404 0.950 . S
H2382 C2405 0.950 . S
H2383 C2407 0.950 . S
H2384 C2408 0.950 . S
H2385 C2409 0.951 . S
H2386 C2411 0.951 . S
H2387 C2413 0.950 . S
H2388 C2414 0.950 . S
H2389 C2416 0.950 . S
H2390 C2419 0.950 . S
H2391 C2420 0.950 . S
H2392 C2422 0.950 . S
H2393 C2423 0.950 . S
C2394 H2376 0.951 . S
C2394 C2395 1.366 . S
C2394 C2396 1.388 . S
C2395 C2394 1.366 . S
C2395 C2399 1.385 . S
C2396 H2377 0.951 . S
C2396 C2394 1.388 . S
C2396 C2397 1.366 . S
C2397 C2396 1.366 . S
C2397 C2398 1.414 . S
C2397 C2400 1.499 . S
C2398 H2378 0.950 . S
C2398 C2397 1.414 . S
C2398 C2399 1.374 . S
C2399 H2379 0.950 . S
C2399 C2395 1.385 . S
C2399 C2398 1.374 . S
C2400 C2397 1.499 . S
C2400 C2401 1.373 . S
C2400 C2402 1.389 . S
C2401 H2380 0.950 . S
C2401 C2400 1.373 . S
C2401 C2417 1.377 . S
C2402 C2400 1.389 . S
C2402 C2403 1.524 . S
C2402 C2416 1.377 . S
C2403 C2402 1.524 . S
C2403 C2404 1.397 . S
C2403 C2408 1.363 . S
C2404 H2381 0.950 . S
C2404 C2403 1.397 . S
C2404 C2405 1.334 . S
C2405 H2382 0.950 . S
C2405 C2404 1.334 . S
C2405 C2406 1.287 . S
C2406 C2405 1.287 . S
C2406 C2407 1.524 . S
C2406 H2425 0.913 . S
C2407 H2383 0.950 . S
C2407 C2406 1.524 . S
C2407 C2408 1.415 . S
C2408 H2384 0.950 . S
C2408 C2403 1.363 . S
C2408 C2407 1.415 . S
C2409 H2385 0.951 . S
C2409 C2410 1.366 . S
C2409 C2411 1.388 . S
C2410 C2409 1.366 . S
C2410 C2414 1.385 . S
C2411 H2386 0.951 . S
C2411 C2409 1.388 . S
C2411 C2412 1.366 . S
C2412 C2411 1.366 . S
C2412 C2413 1.414 . S
C2412 C2415 1.499 . S
C2413 H2387 0.950 . S
C2413 C2412 1.414 . S
C2413 C2414 1.374 . S
C2414 H2388 0.950 . S
C2414 C2410 1.385 . S
C2414 C2413 1.374 . S
C2415 C2412 1.499 . S
C2415 C2416 1.373 . S
C2415 C2417 1.389 . S
C2416 H2389 0.950 . S
C2416 C2402 1.377 . S
C2416 C2415 1.373 . S
C2417 C2401 1.377 . S
C2417 C2415 1.389 . S
C2417 C2418 1.524 . S
C2418 C2417 1.524 . S
C2418 C2419 1.397 . S
C2418 C2423 1.363 . S
C2419 H2390 0.950 . S
C2419 C2418 1.397 . S
C2419 C2420 1.334 1_455 S
C2420 H2391 0.950 . S
C2420 C2419 1.334 1_655 S
C2420 C2421 1.287 . S
C2421 C2420 1.287 . S
C2421 C2422 1.524 . S
C2421 H2424 0.999 . S
C2422 H2392 0.950 . S
C2422 C2421 1.524 . S
C2422 C2423 1.415 1_655 S
C2423 H2393 0.950 . S
C2423 C2418 1.363 . S
C2423 C2422 1.415 1_455 S
H2424 C2421 0.999 . S
H2425 C2406 0.913 . S
H2426 C2444 0.951 . S
H2427 C2446 0.951 . S
H2428 C2448 0.950 . S
H2429 C2449 0.950 . S
H2430 C2451 0.950 . S
H2431 C2454 0.950 . S
H2432 C2455 0.950 . S
H2433 C2457 0.950 . S
H2434 C2458 0.950 . S
H2435 C2459 0.951 . S
H2436 C2461 0.951 . S
H2437 C2463 0.950 . S
H2438 C2464 0.950 . S
H2439 C2466 0.950 . S
H2440 C2469 0.950 . S
H2441 C2470 0.950 . S
H2442 C2472 0.950 . S
H2443 C2473 0.950 . S
C2444 H2426 0.951 . S
C2444 C2445 1.366 . S
C2444 C2446 1.388 . S
C2445 C2444 1.366 . S
C2445 C2449 1.385 . S
C2446 H2427 0.951 . S
C2446 C2444 1.388 . S
C2446 C2447 1.366 . S
C2447 C2446 1.366 . S
C2447 C2448 1.414 . S
C2447 C2450 1.499 . S
C2448 H2428 0.950 . S
C2448 C2447 1.414 . S
C2448 C2449 1.374 . S
C2449 H2429 0.950 . S
C2449 C2445 1.385 . S
C2449 C2448 1.374 . S
C2450 C2447 1.499 . S
C2450 C2451 1.373 . S
C2450 C2452 1.389 . S
C2451 H2430 0.950 . S
C2451 C2450 1.373 . S
C2451 C2467 1.377 . S
C2452 C2450 1.389 . S
C2452 C2453 1.524 . S
C2452 C2466 1.377 . S
C2453 C2452 1.524 . S
C2453 C2454 1.397 . S
C2453 C2458 1.363 . S
C2454 H2431 0.950 . S
C2454 C2453 1.397 . S
C2454 C2455 1.334 . S
C2455 H2432 0.950 . S
C2455 C2454 1.334 . S
C2455 C2456 1.287 . S
C2456 C2455 1.287 . S
C2456 C2457 1.524 . S
C2456 H2475 0.913 . S
C2457 H2433 0.950 . S
C2457 C2456 1.524 . S
C2457 C2458 1.415 . S
C2458 H2434 0.950 . S
C2458 C2453 1.363 . S
C2458 C2457 1.415 . S
C2459 H2435 0.951 . S
C2459 C2460 1.366 . S
C2459 C2461 1.388 . S
C2460 C2459 1.366 . S
C2460 C2464 1.385 . S
C2461 H2436 0.951 . S
C2461 C2459 1.388 . S
C2461 C2462 1.366 . S
C2462 C2461 1.366 . S
C2462 C2463 1.414 . S
C2462 C2465 1.499 . S
C2463 H2437 0.950 . S
C2463 C2462 1.414 . S
C2463 C2464 1.374 . S
C2464 H2438 0.950 . S
C2464 C2460 1.385 . S
C2464 C2463 1.374 . S
C2465 C2462 1.499 . S
C2465 C2466 1.373 . S
C2465 C2467 1.389 . S
C2466 H2439 0.950 . S
C2466 C2452 1.377 . S
C2466 C2465 1.373 . S
C2467 C2451 1.377 . S
C2467 C2465 1.389 . S
C2467 C2468 1.524 . S
C2468 C2467 1.524 . S
C2468 C2469 1.397 . S
C2468 C2473 1.363 . S
C2469 H2440 0.950 . S
C2469 C2468 1.397 . S
C2469 C2470 1.334 . S
C2470 H2441 0.950 . S
C2470 C2469 1.334 . S
C2470 C2471 1.287 . S
C2471 C2470 1.287 . S
C2471 C2472 1.524 . S
C2471 H2474 0.999 . S
C2472 H2442 0.950 . S
C2472 C2471 1.524 . S
C2472 C2473 1.415 . S
C2473 H2443 0.950 . S
C2473 C2468 1.363 . S
C2473 C2472 1.415 . S
H2474 C2471 0.999 . S
H2475 C2456 0.913 . S
H2476 C2494 0.951 . S
H2477 C2496 0.951 . S
H2478 C2498 0.950 . S
H2479 C2499 0.950 . S
H2480 C2501 0.950 . S
H2481 C2504 0.950 . S
H2482 C2505 0.950 . S
H2483 C2507 0.950 . S
H2484 C2508 0.950 . S
H2485 C2509 0.951 1_545 S
H2486 C2511 0.951 . S
H2487 C2513 0.950 . S
H2488 C2514 0.950 . S
H2489 C2516 0.950 . S
H2490 C2519 0.950 . S
H2491 C2520 0.950 . S
H2492 C2522 0.950 . S
H2493 C2523 0.950 . S
C2494 H2476 0.951 . S
C2494 C2495 1.366 . S
C2494 C2496 1.388 . S
C2495 C2494 1.366 . S
C2495 C2499 1.385 . S
C2496 H2477 0.951 . S
C2496 C2494 1.388 . S
C2496 C2497 1.366 . S
C2497 C2496 1.366 . S
C2497 C2498 1.414 . S
C2497 C2500 1.499 . S
C2498 H2478 0.950 . S
C2498 C2497 1.414 . S
C2498 C2499 1.374 . S
C2499 H2479 0.950 . S
C2499 C2495 1.385 . S
C2499 C2498 1.374 . S
C2500 C2497 1.499 . S
C2500 C2501 1.373 . S
C2500 C2502 1.389 . S
C2501 H2480 0.950 . S
C2501 C2500 1.373 . S
C2501 C2517 1.377 . S
C2502 C2500 1.389 . S
C2502 C2503 1.524 . S
C2502 C2516 1.377 . S
C2503 C2502 1.524 . S
C2503 C2504 1.397 . S
C2503 C2508 1.363 . S
C2504 H2481 0.950 . S
C2504 C2503 1.397 . S
C2504 C2505 1.334 . S
C2505 H2482 0.950 . S
C2505 C2504 1.334 . S
C2505 C2506 1.287 . S
C2506 C2505 1.287 . S
C2506 C2507 1.524 . S
C2506 H2525 0.913 . S
C2507 H2483 0.950 . S
C2507 C2506 1.524 . S
C2507 C2508 1.415 . S
C2508 H2484 0.950 . S
C2508 C2503 1.363 . S
C2508 C2507 1.415 . S
C2509 H2485 0.951 1_565 S
C2509 C2510 1.366 . S
C2509 C2511 1.388 . S
C2510 C2509 1.366 . S
C2510 C2514 1.385 . S
C2511 H2486 0.951 . S
C2511 C2509 1.388 . S
C2511 C2512 1.366 . S
C2512 C2511 1.366 . S
C2512 C2513 1.414 . S
C2512 C2515 1.499 . S
C2513 H2487 0.950 . S
C2513 C2512 1.414 . S
C2513 C2514 1.374 . S
C2514 H2488 0.950 . S
C2514 C2510 1.385 . S
C2514 C2513 1.374 . S
C2515 C2512 1.499 . S
C2515 C2516 1.373 . S
C2515 C2517 1.389 . S
C2516 H2489 0.950 . S
C2516 C2502 1.377 . S
C2516 C2515 1.373 . S
C2517 C2501 1.377 . S
C2517 C2515 1.389 . S
C2517 C2518 1.524 . S
C2518 C2517 1.524 . S
C2518 C2519 1.397 . S
C2518 C2523 1.363 . S
C2519 H2490 0.950 . S
C2519 C2518 1.397 . S
C2519 C2520 1.334 1_556 S
C2520 H2491 0.950 . S
C2520 C2519 1.334 1_554 S
C2520 C2521 1.287 . S
C2521 C2520 1.287 . S
C2521 C2522 1.524 . S
C2521 H2524 0.999 . S
C2522 H2492 0.950 . S
C2522 C2521 1.524 . S
C2522 C2523 1.415 1_554 S
C2523 H2493 0.950 . S
C2523 C2518 1.363 . S
C2523 C2522 1.415 1_556 S
H2524 C2521 0.999 . S
H2525 C2506 0.913 . S
H2526 C2544 0.951 . S
H2527 C2546 0.951 . S
H2528 C2548 0.950 . S
H2529 C2549 0.950 . S
H2530 C2551 0.950 . S
H2531 C2554 0.950 . S
H2532 C2555 0.950 . S
H2533 C2557 0.950 . S
H2534 C2558 0.950 . S
H2535 C2559 0.951 . S
H2536 C2561 0.951 . S
H2537 C2563 0.950 . S
H2538 C2564 0.950 . S
H2539 C2566 0.950 . S
H2540 C2569 0.950 . S
H2541 C2570 0.950 . S
H2542 C2572 0.950 . S
H2543 C2573 0.950 . S
C2544 H2526 0.951 . S
C2544 C2545 1.366 . S
C2544 C2546 1.388 . S
C2545 C2544 1.366 . S
C2545 C2549 1.385 . S
C2546 H2527 0.951 . S
C2546 C2544 1.388 . S
C2546 C2547 1.366 . S
C2547 C2546 1.366 . S
C2547 C2548 1.414 . S
C2547 C2550 1.499 . S
C2548 H2528 0.950 . S
C2548 C2547 1.414 . S
C2548 C2549 1.374 . S
C2549 H2529 0.950 . S
C2549 C2545 1.385 . S
C2549 C2548 1.374 . S
C2550 C2547 1.499 . S
C2550 C2551 1.373 . S
C2550 C2552 1.389 . S
C2551 H2530 0.950 . S
C2551 C2550 1.373 . S
C2551 C2567 1.377 . S
C2552 C2550 1.389 . S
C2552 C2553 1.524 . S
C2552 C2566 1.377 . S
C2553 C2552 1.524 . S
C2553 C2554 1.397 . S
C2553 C2558 1.363 . S
C2554 H2531 0.950 . S
C2554 C2553 1.397 . S
C2554 C2555 1.334 . S
C2555 H2532 0.950 . S
C2555 C2554 1.334 . S
C2555 C2556 1.287 . S
C2556 C2555 1.287 . S
C2556 C2557 1.524 . S
C2556 H2575 0.913 . S
C2557 H2533 0.950 . S
C2557 C2556 1.524 . S
C2557 C2558 1.415 . S
C2558 H2534 0.950 . S
C2558 C2553 1.363 . S
C2558 C2557 1.415 . S
C2559 H2535 0.951 . S
C2559 C2560 1.366 . S
C2559 C2561 1.388 . S
C2560 C2559 1.366 . S
C2560 C2564 1.385 . S
C2561 H2536 0.951 . S
C2561 C2559 1.388 . S
C2561 C2562 1.366 . S
C2562 C2561 1.366 . S
C2562 C2563 1.414 . S
C2562 C2565 1.499 . S
C2563 H2537 0.950 . S
C2563 C2562 1.414 . S
C2563 C2564 1.374 . S
C2564 H2538 0.950 . S
C2564 C2560 1.385 . S
C2564 C2563 1.374 . S
C2565 C2562 1.499 . S
C2565 C2566 1.373 . S
C2565 C2567 1.389 . S
C2566 H2539 0.950 . S
C2566 C2552 1.377 . S
C2566 C2565 1.373 . S
C2567 C2551 1.377 . S
C2567 C2565 1.389 . S
C2567 C2568 1.524 . S
C2568 C2567 1.524 . S
C2568 C2569 1.397 . S
C2568 C2573 1.363 . S
C2569 H2540 0.950 . S
C2569 C2568 1.397 . S
C2569 C2570 1.334 . S
C2570 H2541 0.950 . S
C2570 C2569 1.334 . S
C2570 C2571 1.287 . S
C2571 C2570 1.287 . S
C2571 C2572 1.524 . S
C2571 H2574 0.999 . S
C2572 H2542 0.950 . S
C2572 C2571 1.524 . S
C2572 C2573 1.415 . S
C2573 H2543 0.950 . S
C2573 C2568 1.363 . S
C2573 C2572 1.415 . S
H2574 C2571 0.999 . S
H2575 C2556 0.913 . S
H2576 C2594 0.951 . S
H2577 C2596 0.951 . S
H2578 C2598 0.950 . S
H2579 C2599 0.950 . S
H2580 C2601 0.950 . S
H2581 C2604 0.950 . S
H2582 C2605 0.950 . S
H2583 C2607 0.950 . S
H2584 C2608 0.950 . S
H2585 C2609 0.932 1_565 S
H2586 C2611 0.951 1_565 S
H2587 C2613 0.950 . S
H2588 C2614 0.950 . S
H2589 C2616 0.950 . S
H2590 C2619 0.950 . S
H2591 C2620 0.950 . S
H2592 C2622 0.950 . S
H2593 C2623 0.950 . S
C2594 H2576 0.951 . S
C2594 C2595 1.366 . S
C2594 C2596 1.388 . S
C2595 C2594 1.366 . S
C2595 C2599 1.385 1_545 S
C2596 H2577 0.951 . S
C2596 C2594 1.388 . S
C2596 C2597 1.366 . S
C2597 C2596 1.366 . S
C2597 C2598 1.414 1_545 S
C2597 C2600 1.499 . S
C2598 H2578 0.950 . S
C2598 C2597 1.414 1_565 S
C2598 C2599 1.374 . S
C2599 H2579 0.950 . S
C2599 C2595 1.385 1_565 S
C2599 C2598 1.374 . S
C2600 C2597 1.499 . S
C2600 C2601 1.373 1_545 S
C2600 C2602 1.389 . S
C2601 H2580 0.950 . S
C2601 C2600 1.373 1_565 S
C2601 C2617 1.377 . S
C2602 C2600 1.389 . S
C2602 C2603 1.524 . S
C2602 C2616 1.377 . S
C2603 C2602 1.524 . S
C2603 C2604 1.397 . S
C2603 C2608 1.363 . S
C2604 H2581 0.950 . S
C2604 C2603 1.397 . S
C2604 C2605 1.334 . S
C2605 H2582 0.950 . S
C2605 C2604 1.334 . S
C2605 C2606 1.287 . S
C2606 C2605 1.287 . S
C2606 C2607 1.524 . S
C2606 H2625 0.913 . S
C2607 H2583 0.950 . S
C2607 C2606 1.524 . S
C2607 C2608 1.415 . S
C2608 H2584 0.950 . S
C2608 C2603 1.363 . S
C2608 C2607 1.415 . S
C2609 H2585 0.932 1_545 S
C2609 C2610 1.366 . S
C2609 C2611 1.388 . S
C2610 C2609 1.366 . S
C2610 C2614 1.385 . S
C2611 H2586 0.951 1_545 S
C2611 C2609 1.388 . S
C2611 C2612 1.366 . S
C2612 C2611 1.366 . S
C2612 C2613 1.414 . S
C2612 C2615 1.499 . S
C2613 H2587 0.950 . S
C2613 C2612 1.414 . S
C2613 C2614 1.374 . S
C2614 H2588 0.950 . S
C2614 C2610 1.385 . S
C2614 C2613 1.374 . S
C2615 C2612 1.499 . S
C2615 C2616 1.373 . S
C2615 C2617 1.389 1_545 S
C2616 H2589 0.950 . S
C2616 C2602 1.377 . S
C2616 C2615 1.373 . S
C2617 C2601 1.377 . S
C2617 C2615 1.389 1_565 S
C2617 C2618 1.524 . S
C2618 C2617 1.524 . S
C2618 C2619 1.397 . S
C2618 C2623 1.363 . S
C2619 H2590 0.950 . S
C2619 C2618 1.397 . S
C2619 C2620 1.334 . S
C2620 H2591 0.950 . S
C2620 C2619 1.334 . S
C2620 C2621 1.287 . S
C2621 C2620 1.287 . S
C2621 C2622 1.524 . S
C2621 H2624 0.999 . S
C2622 H2592 0.950 . S
C2622 C2621 1.524 . S
C2622 C2623 1.415 . S
C2623 H2593 0.950 . S
C2623 C2618 1.363 . S
C2623 C2622 1.415 . S
H2624 C2621 0.999 . S
H2625 C2606 0.913 . S
H2626 C2644 0.951 . S
H2627 C2646 0.951 . S
H2628 C2648 0.950 . S
H2629 C2649 0.950 . S
H2630 C2651 0.950 . S
H2631 C2654 0.950 . S
H2632 C2655 0.950 . S
H2633 C2657 0.950 . S
H2634 C2658 0.950 . S
H2635 C2659 0.951 . S
H2636 C2661 0.951 . S
H2637 C2663 0.950 . S
H2638 C2664 0.950 . S
H2639 C2666 0.950 . S
H2640 C2669 0.950 . S
H2641 C2670 0.950 . S
H2642 C2672 0.950 . S
H2643 C2673 0.950 . S
C2644 H2626 0.951 . S
C2644 C2645 1.366 . S
C2644 C2646 1.388 . S
C2645 C2644 1.366 . S
C2645 C2649 1.385 . S
C2646 H2627 0.951 . S
C2646 C2644 1.388 . S
C2646 C2647 1.366 . S
C2647 C2646 1.366 . S
C2647 C2648 1.414 . S
C2647 C2650 1.499 . S
C2648 H2628 0.950 . S
C2648 C2647 1.414 . S
C2648 C2649 1.374 . S
C2649 H2629 0.950 . S
C2649 C2645 1.385 . S
C2649 C2648 1.374 . S
C2650 C2647 1.499 . S
C2650 C2651 1.373 . S
C2650 C2652 1.389 . S
C2651 H2630 0.950 . S
C2651 C2650 1.373 . S
C2651 C2667 1.377 . S
C2652 C2650 1.389 . S
C2652 C2653 1.524 . S
C2652 C2666 1.377 . S
C2653 C2652 1.524 . S
C2653 C2654 1.397 . S
C2653 C2658 1.363 . S
C2654 H2631 0.950 . S
C2654 C2653 1.397 . S
C2654 C2655 1.334 . S
C2655 H2632 0.950 . S
C2655 C2654 1.334 . S
C2655 C2656 1.287 . S
C2656 C2655 1.287 . S
C2656 C2657 1.524 . S
C2656 H2675 0.913 . S
C2657 H2633 0.950 . S
C2657 C2656 1.524 . S
C2657 C2658 1.415 . S
C2658 H2634 0.950 . S
C2658 C2653 1.363 . S
C2658 C2657 1.415 . S
C2659 H2635 0.951 . S
C2659 C2660 1.366 . S
C2659 C2661 1.388 . S
C2660 C2659 1.366 . S
C2660 C2664 1.385 . S
C2661 H2636 0.951 . S
C2661 C2659 1.388 . S
C2661 C2662 1.366 . S
C2662 C2661 1.366 . S
C2662 C2663 1.414 . S
C2662 C2665 1.499 . S
C2663 H2637 0.950 . S
C2663 C2662 1.414 . S
C2663 C2664 1.374 . S
C2664 H2638 0.950 . S
C2664 C2660 1.385 . S
C2664 C2663 1.374 . S
C2665 C2662 1.499 . S
C2665 C2666 1.373 . S
C2665 C2667 1.389 . S
C2666 H2639 0.950 . S
C2666 C2652 1.377 . S
C2666 C2665 1.373 . S
C2667 C2651 1.377 . S
C2667 C2665 1.389 . S
C2667 C2668 1.524 . S
C2668 C2667 1.524 . S
C2668 C2669 1.397 . S
C2668 C2673 1.363 . S
C2669 H2640 0.950 . S
C2669 C2668 1.397 . S
C2669 C2670 1.334 . S
C2670 H2641 0.950 . S
C2670 C2669 1.334 . S
C2670 C2671 1.287 . S
C2671 C2670 1.287 . S
C2671 C2672 1.524 . S
C2671 H2674 0.999 . S
C2672 H2642 0.950 . S
C2672 C2671 1.524 . S
C2672 C2673 1.415 . S
C2673 H2643 0.950 . S
C2673 C2668 1.363 . S
C2673 C2672 1.415 . S
H2674 C2671 0.999 . S
H2675 C2656 0.913 . S
H2676 C2694 0.951 1_565 S
H2677 C2696 0.950 1_565 S
H2678 C2698 0.950 . S
H2679 C2699 0.950 . S
H2680 C2701 0.950 . S
H2681 C2704 0.950 . S
H2682 C2705 0.950 . S
H2683 C2707 0.950 . S
H2684 C2708 0.950 . S
H2685 C2709 0.951 . S
H2686 C2711 0.951 . S
H2687 C2713 0.950 . S
H2688 C2714 0.950 . S
H2689 C2716 0.950 . S
H2690 C2719 0.950 1_565 S
H2691 C2720 1.004 . S
H2692 C2722 0.950 . S
H2693 C2723 0.950 . S
C2694 H2676 0.951 1_545 S
C2694 C2695 1.366 . S
C2694 C2696 1.388 . S
C2695 C2694 1.366 . S
C2695 C2699 1.385 . S
C2696 H2677 0.950 1_545 S
C2696 C2694 1.388 . S
C2696 C2697 1.366 . S
C2697 C2696 1.366 . S
C2697 C2698 1.414 . S
C2697 C2700 1.499 . S
C2698 H2678 0.950 . S
C2698 C2697 1.414 . S
C2698 C2699 1.374 . S
C2699 H2679 0.950 . S
C2699 C2695 1.385 . S
C2699 C2698 1.374 . S
C2700 C2697 1.499 . S
C2700 C2701 1.373 . S
C2700 C2702 1.389 . S
C2701 H2680 0.950 . S
C2701 C2700 1.373 . S
C2701 C2717 1.377 . S
C2702 C2700 1.389 . S
C2702 C2703 1.524 . S
C2702 C2716 1.377 . S
C2703 C2702 1.524 . S
C2703 C2704 1.397 . S
C2703 C2708 1.363 . S
C2704 H2681 0.950 . S
C2704 C2703 1.397 . S
C2704 C2705 1.334 . S
C2705 H2682 0.950 . S
C2705 C2704 1.334 . S
C2705 C2706 1.287 . S
C2706 C2705 1.287 . S
C2706 C2707 1.524 . S
C2706 H2725 0.913 . S
C2707 H2683 0.950 . S
C2707 C2706 1.524 . S
C2707 C2708 1.415 . S
C2708 H2684 0.950 . S
C2708 C2703 1.363 . S
C2708 C2707 1.415 . S
C2709 H2685 0.951 . S
C2709 C2710 1.366 . S
C2709 C2711 1.388 . S
C2710 C2709 1.366 . S
C2710 C2714 1.385 . S
C2711 H2686 0.951 . S
C2711 C2709 1.388 . S
C2711 C2712 1.366 . S
C2712 C2711 1.366 . S
C2712 C2713 1.414 . S
C2712 C2715 1.499 . S
C2713 H2687 0.950 . S
C2713 C2712 1.414 . S
C2713 C2714 1.374 . S
C2714 H2688 0.950 . S
C2714 C2710 1.385 . S
C2714 C2713 1.374 . S
C2715 C2712 1.499 . S
C2715 C2716 1.373 . S
C2715 C2717 1.389 . S
C2716 H2689 0.950 . S
C2716 C2702 1.377 . S
C2716 C2715 1.373 . S
C2717 C2701 1.377 . S
C2717 C2715 1.389 . S
C2717 C2718 1.524 . S
C2718 C2717 1.524 . S
C2718 C2719 1.397 . S
C2718 C2723 1.363 . S
C2719 H2690 0.950 1_545 S
C2719 C2718 1.397 . S
C2719 C2720 1.306 1_545 S
C2720 H2691 1.004 . S
C2720 C2719 1.306 1_565 S
C2720 C2721 1.261 1_565 S
C2721 C2720 1.261 1_545 S
C2721 C2722 1.524 . S
C2721 H2724 0.999 . S
C2722 H2692 0.950 . S
C2722 C2721 1.524 . S
C2722 C2723 1.415 . S
C2723 H2693 0.950 . S
C2723 C2718 1.363 . S
C2723 C2722 1.415 . S
H2724 C2721 0.999 . S
H2725 C2706 0.913 . S
H2726 C2744 0.951 . S
H2727 C2746 0.951 . S
H2728 C2748 0.950 . S
H2729 C2749 0.950 . S
H2730 C2751 0.950 . S
H2731 C2754 0.950 . S
H2732 C2755 0.950 . S
H2733 C2757 0.950 . S
H2734 C2758 0.950 . S
H2735 C2759 0.951 . S
H2736 C2761 0.951 . S
H2737 C2763 0.950 . S
H2738 C2764 0.950 . S
H2739 C2766 0.950 . S
H2740 C2769 0.950 . S
H2741 C2770 0.950 . S
H2742 C2772 0.950 . S
H2743 C2773 0.950 . S
C2744 H2726 0.951 . S
C2744 C2745 1.366 . S
C2744 C2746 1.388 . S
C2745 C2744 1.366 . S
C2745 C2749 1.385 . S
C2746 H2727 0.951 . S
C2746 C2744 1.388 . S
C2746 C2747 1.366 . S
C2747 C2746 1.366 . S
C2747 C2748 1.414 . S
C2747 C2750 1.499 . S
C2748 H2728 0.950 . S
C2748 C2747 1.414 . S
C2748 C2749 1.374 . S
C2749 H2729 0.950 . S
C2749 C2745 1.385 . S
C2749 C2748 1.374 . S
C2750 C2747 1.499 . S
C2750 C2751 1.373 . S
C2750 C2752 1.389 . S
C2751 H2730 0.950 . S
C2751 C2750 1.373 . S
C2751 C2767 1.377 . S
C2752 C2750 1.389 . S
C2752 C2753 1.524 . S
C2752 C2766 1.377 . S
C2753 C2752 1.524 . S
C2753 C2754 1.397 . S
C2753 C2758 1.363 . S
C2754 H2731 0.950 . S
C2754 C2753 1.397 . S
C2754 C2755 1.334 . S
C2755 H2732 0.950 . S
C2755 C2754 1.334 . S
C2755 C2756 1.287 . S
C2756 C2755 1.287 . S
C2756 C2757 1.524 . S
C2756 H2775 0.913 . S
C2757 H2733 0.950 . S
C2757 C2756 1.524 . S
C2757 C2758 1.415 . S
C2758 H2734 0.950 . S
C2758 C2753 1.363 . S
C2758 C2757 1.415 . S
C2759 H2735 0.951 . S
C2759 C2760 1.366 . S
C2759 C2761 1.388 . S
C2760 C2759 1.366 . S
C2760 C2764 1.385 . S
C2761 H2736 0.951 . S
C2761 C2759 1.388 . S
C2761 C2762 1.366 . S
C2762 C2761 1.366 . S
C2762 C2763 1.414 . S
C2762 C2765 1.499 . S
C2763 H2737 0.950 . S
C2763 C2762 1.414 . S
C2763 C2764 1.374 . S
C2764 H2738 0.950 . S
C2764 C2760 1.385 . S
C2764 C2763 1.374 . S
C2765 C2762 1.499 . S
C2765 C2766 1.373 . S
C2765 C2767 1.389 . S
C2766 H2739 0.950 . S
C2766 C2752 1.377 . S
C2766 C2765 1.373 . S
C2767 C2751 1.377 . S
C2767 C2765 1.389 . S
C2767 C2768 1.524 . S
C2768 C2767 1.524 . S
C2768 C2769 1.397 . S
C2768 C2773 1.363 . S
C2769 H2740 0.950 . S
C2769 C2768 1.397 . S
C2769 C2770 1.334 . S
C2770 H2741 0.950 . S
C2770 C2769 1.334 . S
C2770 C2771 1.287 . S
C2771 C2770 1.287 . S
C2771 C2772 1.524 . S
C2771 H2774 0.999 . S
C2772 H2742 0.950 . S
C2772 C2771 1.524 . S
C2772 C2773 1.415 . S
C2773 H2743 0.950 . S
C2773 C2768 1.363 . S
C2773 C2772 1.415 . S
H2774 C2771 0.999 . S
H2775 C2756 0.913 . S
H2776 C2794 0.951 . S
H2777 C2796 0.951 . S
H2778 C2798 0.950 . S
H2779 C2799 0.950 . S
H2780 C2801 0.950 . S
H2781 C2804 0.950 . S
H2782 C2805 0.950 . S
H2783 C2807 0.950 . S
H2784 C2808 0.950 . S
H2785 C2809 0.951 . S
H2786 C2811 0.951 . S
H2787 C2813 0.950 . S
H2788 C2814 0.950 . S
H2789 C2816 0.950 . S
H2790 C2819 0.950 . S
H2791 C2820 0.950 . S
H2792 C2822 0.950 . S
H2793 C2823 0.950 . S
C2794 H2776 0.951 . S
C2794 C2795 1.366 . S
C2794 C2796 1.388 . S
C2795 C2794 1.366 . S
C2795 C2799 1.385 1_565 S
C2796 H2777 0.951 . S
C2796 C2794 1.388 . S
C2796 C2797 1.366 1_565 S
C2797 C2796 1.366 1_545 S
C2797 C2798 1.414 . S
C2797 C2800 1.499 . S
C2798 H2778 0.950 . S
C2798 C2797 1.414 . S
C2798 C2799 1.374 . S
C2799 H2779 0.950 . S
C2799 C2795 1.385 1_545 S
C2799 C2798 1.374 . S
C2800 C2797 1.499 . S
C2800 C2801 1.373 . S
C2800 C2802 1.389 1_545 S
C2801 H2780 0.950 . S
C2801 C2800 1.373 . S
C2801 C2817 1.377 . S
C2802 C2800 1.389 1_565 S
C2802 C2803 1.524 . S
C2802 C2816 1.377 . S
C2803 C2802 1.524 . S
C2803 C2804 1.397 . S
C2803 C2808 1.363 . S
C2804 H2781 0.950 . S
C2804 C2803 1.397 . S
C2804 C2805 1.334 . S
C2805 H2782 0.950 . S
C2805 C2804 1.334 . S
C2805 C2806 1.287 . S
C2806 C2805 1.287 . S
C2806 C2807 1.524 . S
C2806 H2825 0.913 . S
C2807 H2783 0.950 . S
C2807 C2806 1.524 . S
C2807 C2808 1.415 . S
C2808 H2784 0.950 . S
C2808 C2803 1.363 . S
C2808 C2807 1.415 . S
C2809 H2785 0.951 . S
C2809 C2810 1.366 . S
C2809 C2811 1.388 . S
C2810 C2809 1.366 . S
C2810 C2814 1.385 . S
C2811 H2786 0.951 . S
C2811 C2809 1.388 . S
C2811 C2812 1.366 . S
C2812 C2811 1.366 . S
C2812 C2813 1.414 . S
C2812 C2815 1.499 . S
C2813 H2787 0.950 . S
C2813 C2812 1.414 . S
C2813 C2814 1.374 . S
C2814 H2788 0.950 . S
C2814 C2810 1.385 . S
C2814 C2813 1.374 . S
C2815 C2812 1.499 . S
C2815 C2816 1.373 1_545 S
C2815 C2817 1.389 . S
C2816 H2789 0.950 . S
C2816 C2802 1.377 . S
C2816 C2815 1.373 1_565 S
C2817 C2801 1.377 . S
C2817 C2815 1.389 . S
C2817 C2818 1.524 . S
C2818 C2817 1.524 . S
C2818 C2819 1.397 . S
C2818 C2823 1.363 . S
C2819 H2790 0.950 . S
C2819 C2818 1.397 . S
C2819 C2820 1.334 . S
C2820 H2791 0.950 . S
C2820 C2819 1.334 . S
C2820 C2821 1.287 . S
C2821 C2820 1.287 . S
C2821 C2822 1.524 . S
C2821 H2824 0.999 . S
C2822 H2792 0.950 . S
C2822 C2821 1.524 . S
C2822 C2823 1.415 . S
C2823 H2793 0.950 . S
C2823 C2818 1.363 . S
C2823 C2822 1.415 . S
H2824 C2821 0.999 . S
H2825 C2806 0.913 . S
H2826 C2844 0.951 . S
H2827 C2846 0.951 . S
H2828 C2848 0.950 . S
H2829 C2849 0.950 . S
H2830 C2851 0.950 . S
H2831 C2854 0.950 . S
H2832 C2855 0.950 . S
H2833 C2857 0.950 . S
H2834 C2858 0.950 . S
H2835 C2859 0.951 . S
H2836 C2861 0.951 . S
H2837 C2863 0.950 . S
H2838 C2864 0.950 . S
H2839 C2866 0.950 . S
H2840 C2869 0.950 . S
H2841 C2870 0.950 . S
H2842 C2872 0.950 . S
H2843 C2873 0.950 . S
C2844 H2826 0.951 . S
C2844 C2845 1.366 . S
C2844 C2846 1.388 . S
C2845 C2844 1.366 . S
C2845 C2849 1.385 . S
C2846 H2827 0.951 . S
C2846 C2844 1.388 . S
C2846 C2847 1.366 . S
C2847 C2846 1.366 . S
C2847 C2848 1.414 . S
C2847 C2850 1.499 . S
C2848 H2828 0.950 . S
C2848 C2847 1.414 . S
C2848 C2849 1.374 . S
C2849 H2829 0.950 . S
C2849 C2845 1.385 . S
C2849 C2848 1.374 . S
C2850 C2847 1.499 . S
C2850 C2851 1.373 . S
C2850 C2852 1.389 . S
C2851 H2830 0.950 . S
C2851 C2850 1.373 . S
C2851 C2867 1.377 . S
C2852 C2850 1.389 . S
C2852 C2853 1.524 . S
C2852 C2866 1.377 . S
C2853 C2852 1.524 . S
C2853 C2854 1.397 . S
C2853 C2858 1.363 . S
C2854 H2831 0.950 . S
C2854 C2853 1.397 . S
C2854 C2855 1.334 . S
C2855 H2832 0.950 . S
C2855 C2854 1.334 . S
C2855 C2856 1.287 . S
C2856 C2855 1.287 . S
C2856 C2857 1.524 . S
C2856 H2875 0.913 . S
C2857 H2833 0.950 . S
C2857 C2856 1.524 . S
C2857 C2858 1.415 . S
C2858 H2834 0.950 . S
C2858 C2853 1.363 . S
C2858 C2857 1.415 . S
C2859 H2835 0.951 . S
C2859 C2860 1.366 . S
C2859 C2861 1.388 . S
C2860 C2859 1.366 . S
C2860 C2864 1.385 . S
C2861 H2836 0.951 . S
C2861 C2859 1.388 . S
C2861 C2862 1.366 . S
C2862 C2861 1.366 . S
C2862 C2863 1.414 . S
C2862 C2865 1.499 . S
C2863 H2837 0.950 . S
C2863 C2862 1.414 . S
C2863 C2864 1.374 . S
C2864 H2838 0.950 . S
C2864 C2860 1.385 . S
C2864 C2863 1.374 . S
C2865 C2862 1.499 . S
C2865 C2866 1.373 . S
C2865 C2867 1.389 . S
C2866 H2839 0.950 . S
C2866 C2852 1.377 . S
C2866 C2865 1.373 . S
C2867 C2851 1.377 . S
C2867 C2865 1.389 . S
C2867 C2868 1.524 . S
C2868 C2867 1.524 . S
C2868 C2869 1.397 . S
C2868 C2873 1.363 . S
C2869 H2840 0.950 . S
C2869 C2868 1.397 . S
C2869 C2870 1.334 . S
C2870 H2841 0.950 . S
C2870 C2869 1.334 . S
C2870 C2871 1.287 . S
C2871 C2870 1.287 . S
C2871 C2872 1.524 . S
C2871 H2874 0.999 . S
C2872 H2842 0.950 . S
C2872 C2871 1.524 . S
C2872 C2873 1.415 . S
C2873 H2843 0.950 . S
C2873 C2868 1.363 . S
C2873 C2872 1.415 . S
H2874 C2871 0.999 . S
H2875 C2856 0.913 . S
H2876 C2894 0.951 . S
H2877 C2896 0.951 . S
H2878 C2898 0.950 . S
H2879 C2899 0.950 . S
H2880 C2901 0.950 . S
H2881 C2904 0.950 . S
H2882 C2905 0.950 . S
H2883 C2907 0.950 . S
H2884 C2908 0.950 . S
H2885 C2909 0.952 . S
H2886 C2911 0.960 . S
H2887 C2913 0.950 . S
H2888 C2914 0.950 . S
H2889 C2916 0.950 . S
H2890 C2919 0.950 . S
H2891 C2920 0.950 . S
H2892 C2922 0.950 . S
H2893 C2923 0.950 . S
C2894 H2876 0.951 . S
C2894 C2895 1.366 . S
C2894 C2896 1.388 . S
C2895 C2894 1.366 . S
C2895 C2899 1.385 . S
C2896 H2877 0.951 . S
C2896 C2894 1.388 . S
C2896 C2897 1.366 . S
C2897 C2896 1.366 . S
C2897 C2898 1.414 . S
C2897 C2900 1.499 . S
C2898 H2878 0.950 . S
C2898 C2897 1.414 . S
C2898 C2899 1.374 . S
C2899 H2879 0.950 . S
C2899 C2895 1.385 . S
C2899 C2898 1.374 . S
C2900 C2897 1.499 . S
C2900 C2901 1.373 . S
C2900 C2902 1.389 1_545 S
C2901 H2880 0.950 . S
C2901 C2900 1.373 . S
C2901 C2917 1.377 . S
C2902 C2900 1.389 1_565 S
C2902 C2903 1.524 . S
C2902 C2916 1.377 . S
C2903 C2902 1.524 . S
C2903 C2904 1.397 . S
C2903 C2908 1.363 . S
C2904 H2881 0.950 . S
C2904 C2903 1.397 . S
C2904 C2905 1.334 . S
C2905 H2882 0.950 . S
C2905 C2904 1.334 . S
C2905 C2906 1.287 . S
C2906 C2905 1.287 . S
C2906 C2907 1.524 . S
C2906 H2925 0.913 . S
C2907 H2883 0.950 . S
C2907 C2906 1.524 . S
C2907 C2908 1.415 . S
C2908 H2884 0.950 . S
C2908 C2903 1.363 . S
C2908 C2907 1.415 . S
C2909 H2885 0.952 . S
C2909 C2910 1.364 1_565 S
C2909 C2911 1.388 1_565 S
C2910 C2909 1.364 1_545 S
C2910 C2914 1.385 . S
C2911 H2886 0.960 . S
C2911 C2909 1.388 1_545 S
C2911 C2912 1.366 . S
C2912 C2911 1.366 . S
C2912 C2913 1.414 . S
C2912 C2915 1.499 . S
C2913 H2887 0.950 . S
C2913 C2912 1.414 . S
C2913 C2914 1.374 . S
C2914 H2888 0.950 . S
C2914 C2910 1.385 . S
C2914 C2913 1.374 . S
C2915 C2912 1.499 . S
C2915 C2916 1.373 1_545 S
C2915 C2917 1.389 . S
C2916 H2889 0.950 . S
C2916 C2902 1.377 . S
C2916 C2915 1.373 1_565 S
C2917 C2901 1.377 . S
C2917 C2915 1.389 . S
C2917 C2918 1.524 . S
C2918 C2917 1.524 . S
C2918 C2919 1.397 . S
C2918 C2923 1.363 . S
C2919 H2890 0.950 . S
C2919 C2918 1.397 . S
C2919 C2920 1.334 . S
C2920 H2891 0.950 . S
C2920 C2919 1.334 . S
C2920 C2921 1.287 . S
C2921 C2920 1.287 . S
C2921 C2922 1.524 . S
C2921 H2924 0.999 . S
C2922 H2892 0.950 . S
C2922 C2921 1.524 . S
C2922 C2923 1.415 . S
C2923 H2893 0.950 . S
C2923 C2918 1.363 . S
C2923 C2922 1.415 . S
H2924 C2921 0.999 . S
H2925 C2906 0.913 . S
H2926 C2944 0.951 . S
H2927 C2946 0.951 . S
H2928 C2948 0.950 . S
H2929 C2949 0.950 . S
H2930 C2951 0.950 . S
H2931 C2954 0.950 . S
H2932 C2955 0.950 . S
H2933 C2957 0.950 . S
H2934 C2958 0.950 . S
H2935 C2959 0.951 . S
H2936 C2961 0.951 . S
H2937 C2963 0.950 . S
H2938 C2964 0.950 . S
H2939 C2966 0.950 . S
H2940 C2969 0.950 . S
H2941 C2970 0.950 . S
H2942 C2972 0.950 . S
H2943 C2973 0.950 . S
C2944 H2926 0.951 . S
C2944 C2945 1.366 . S
C2944 C2946 1.388 . S
C2945 C2944 1.366 . S
C2945 C2949 1.385 . S
C2946 H2927 0.951 . S
C2946 C2944 1.388 . S
C2946 C2947 1.366 . S
C2947 C2946 1.366 . S
C2947 C2948 1.414 . S
C2947 C2950 1.499 . S
C2948 H2928 0.950 . S
C2948 C2947 1.414 . S
C2948 C2949 1.374 . S
C2949 H2929 0.950 . S
C2949 C2945 1.385 . S
C2949 C2948 1.374 . S
C2950 C2947 1.499 . S
C2950 C2951 1.373 . S
C2950 C2952 1.389 . S
C2951 H2930 0.950 . S
C2951 C2950 1.373 . S
C2951 C2967 1.377 . S
C2952 C2950 1.389 . S
C2952 C2953 1.524 . S
C2952 C2966 1.377 . S
C2953 C2952 1.524 . S
C2953 C2954 1.397 . S
C2953 C2958 1.363 . S
C2954 H2931 0.950 . S
C2954 C2953 1.397 . S
C2954 C2955 1.334 . S
C2955 H2932 0.950 . S
C2955 C2954 1.334 . S
C2955 C2956 1.287 . S
C2956 C2955 1.287 . S
C2956 C2957 1.524 . S
C2956 H2975 0.913 . S
C2957 H2933 0.950 . S
C2957 C2956 1.524 . S
C2957 C2958 1.415 . S
C2958 H2934 0.950 . S
C2958 C2953 1.363 . S
C2958 C2957 1.415 . S
C2959 H2935 0.951 . S
C2959 C2960 1.366 . S
C2959 C2961 1.388 . S
C2960 C2959 1.366 . S
C2960 C2964 1.385 . S
C2961 H2936 0.951 . S
C2961 C2959 1.388 . S
C2961 C2962 1.366 . S
C2962 C2961 1.366 . S
C2962 C2963 1.414 . S
C2962 C2965 1.499 . S
C2963 H2937 0.950 . S
C2963 C2962 1.414 . S
C2963 C2964 1.374 . S
C2964 H2938 0.950 . S
C2964 C2960 1.385 . S
C2964 C2963 1.374 . S
C2965 C2962 1.499 . S
C2965 C2966 1.373 . S
C2965 C2967 1.389 . S
C2966 H2939 0.950 . S
C2966 C2952 1.377 . S
C2966 C2965 1.373 . S
C2967 C2951 1.377 . S
C2967 C2965 1.389 . S
C2967 C2968 1.524 . S
C2968 C2967 1.524 . S
C2968 C2969 1.397 . S
C2968 C2973 1.363 . S
C2969 H2940 0.950 . S
C2969 C2968 1.397 . S
C2969 C2970 1.334 . S
C2970 H2941 0.950 . S
C2970 C2969 1.334 . S
C2970 C2971 1.287 . S
C2971 C2970 1.287 . S
C2971 C2972 1.524 . S
C2971 H2974 0.999 . S
C2972 H2942 0.950 . S
C2972 C2971 1.524 . S
C2972 C2973 1.415 . S
C2973 H2943 0.950 . S
C2973 C2968 1.363 . S
C2973 C2972 1.415 . S
H2974 C2971 0.999 . S
H2975 C2956 0.913 . S
H2976 C2994 0.951 . S
H2977 C2996 0.951 . S
H2978 C2998 0.950 . S
H2979 C2999 0.950 . S
H2980 C3001 0.950 . S
H2981 C3004 0.950 . S
H2982 C3005 0.950 . S
H2983 C3007 0.950 . S
H2984 C3008 0.950 . S
H2985 C3009 0.951 . S
H2986 C3011 0.951 . S
H2987 C3013 0.950 . S
H2988 C3014 0.950 . S
H2989 C3016 0.950 . S
H2990 C3019 0.950 . S
H2991 C3020 0.950 . S
H2992 C3022 0.950 . S
H2993 C3023 0.950 . S
C2994 H2976 0.951 . S
C2994 C2995 1.366 . S
C2994 C2996 1.388 . S
C2995 C2994 1.366 . S
C2995 C2999 1.385 . S
C2996 H2977 0.951 . S
C2996 C2994 1.388 . S
C2996 C2997 1.366 . S
C2997 C2996 1.366 . S
C2997 C2998 1.414 . S
C2997 C3000 1.499 . S
C2998 H2978 0.950 . S
C2998 C2997 1.414 . S
C2998 C2999 1.374 . S
C2999 H2979 0.950 . S
C2999 C2995 1.385 . S
C2999 C2998 1.374 . S
C3000 C2997 1.499 . S
C3000 C3001 1.373 1_554 S
C3000 C3002 1.389 . S
C3001 H2980 0.950 . S
C3001 C3000 1.373 1_556 S
C3001 C3017 1.377 . S
C3002 C3000 1.389 . S
C3002 C3003 1.524 . S
C3002 C3016 1.377 . S
C3003 C3002 1.524 . S
C3003 C3004 1.397 . S
C3003 C3008 1.363 . S
C3004 H2981 0.950 . S
C3004 C3003 1.397 . S
C3004 C3005 1.334 . S
C3005 H2982 0.950 . S
C3005 C3004 1.334 . S
C3005 C3006 1.287 . S
C3006 C3005 1.287 . S
C3006 C3007 1.524 . S
C3006 H3025 0.913 . S
C3007 H2983 0.950 . S
C3007 C3006 1.524 . S
C3007 C3008 1.415 . S
C3008 H2984 0.950 . S
C3008 C3003 1.363 . S
C3008 C3007 1.415 . S
C3009 H2985 0.951 . S
C3009 C3010 1.366 . S
C3009 C3011 1.388 . S
C3010 C3009 1.366 . S
C3010 C3014 1.385 . S
C3011 H2986 0.951 . S
C3011 C3009 1.388 . S
C3011 C3012 1.366 . S
C3012 C3011 1.366 . S
C3012 C3013 1.414 . S
C3012 C3015 1.499 . S
C3013 H2987 0.950 . S
C3013 C3012 1.414 . S
C3013 C3014 1.374 . S
C3014 H2988 0.950 . S
C3014 C3010 1.385 . S
C3014 C3013 1.374 . S
C3015 C3012 1.499 . S
C3015 C3016 1.373 1_556 S
C3015 C3017 1.389 . S
C3016 H2989 0.950 . S
C3016 C3002 1.377 . S
C3016 C3015 1.373 1_554 S
C3017 C3001 1.377 . S
C3017 C3015 1.389 . S
C3017 C3018 1.524 . S
C3018 C3017 1.524 . S
C3018 C3019 1.397 . S
C3018 C3023 1.363 . S
C3019 H2990 0.950 . S
C3019 C3018 1.397 . S
C3019 C3020 1.334 . S
C3020 H2991 0.950 . S
C3020 C3019 1.334 . S
C3020 C3021 1.287 . S
C3021 C3020 1.287 . S
C3021 C3022 1.524 . S
C3021 H3024 0.999 . S
C3022 H2992 0.950 . S
C3022 C3021 1.524 . S
C3022 C3023 1.415 . S
C3023 H2993 0.950 . S
C3023 C3018 1.363 . S
C3023 C3022 1.415 . S
H3024 C3021 0.999 . S
H3025 C3006 0.913 . S
H3026 C3044 0.951 . S
H3027 C3046 0.951 . S
H3028 C3048 0.950 . S
H3029 C3049 0.950 . S
H3030 C3051 0.950 1_556 S
H3031 C3054 0.950 . S
H3032 C3055 0.950 . S
H3033 C3057 0.950 . S
H3034 C3058 0.950 . S
H3035 C3059 0.951 . S
H3036 C3061 0.951 . S
H3037 C3063 0.950 . S
H3038 C3064 0.950 . S
H3039 C3066 0.950 . S
H3040 C3069 0.950 . S
H3041 C3070 0.950 . S
H3042 C3072 0.950 . S
H3043 C3073 0.950 . S
C3044 H3026 0.951 . S
C3044 C3045 1.366 . S
C3044 C3046 1.388 . S
C3045 C3044 1.366 . S
C3045 C3049 1.385 . S
C3046 H3027 0.951 . S
C3046 C3044 1.388 . S
C3046 C3047 1.366 . S
C3047 C3046 1.366 . S
C3047 C3048 1.414 . S
C3047 C3050 1.499 . S
C3048 H3028 0.950 . S
C3048 C3047 1.414 . S
C3048 C3049 1.374 . S
C3049 H3029 0.950 . S
C3049 C3045 1.385 . S
C3049 C3048 1.374 . S
C3050 C3047 1.499 . S
C3050 C3051 1.373 . S
C3050 C3052 1.389 . S
C3051 H3030 0.950 1_554 S
C3051 C3050 1.373 . S
C3051 C3067 1.377 . S
C3052 C3050 1.389 . S
C3052 C3053 1.524 . S
C3052 C3066 1.377 . S
C3053 C3052 1.524 . S
C3053 C3054 1.397 . S
C3053 C3058 1.363 . S
C3054 H3031 0.950 . S
C3054 C3053 1.397 . S
C3054 C3055 1.334 . S
C3055 H3032 0.950 . S
C3055 C3054 1.334 . S
C3055 C3056 1.287 . S
C3056 C3055 1.287 . S
C3056 C3057 1.524 . S
C3056 H3075 0.913 . S
C3057 H3033 0.950 . S
C3057 C3056 1.524 . S
C3057 C3058 1.415 . S
C3058 H3034 0.950 . S
C3058 C3053 1.363 . S
C3058 C3057 1.415 . S
C3059 H3035 0.951 . S
C3059 C3060 1.366 . S
C3059 C3061 1.388 . S
C3060 C3059 1.366 . S
C3060 C3064 1.385 . S
C3061 H3036 0.951 . S
C3061 C3059 1.388 . S
C3061 C3062 1.366 . S
C3062 C3061 1.366 . S
C3062 C3063 1.414 . S
C3062 C3065 1.499 . S
C3063 H3037 0.950 . S
C3063 C3062 1.414 . S
C3063 C3064 1.374 . S
C3064 H3038 0.950 . S
C3064 C3060 1.385 . S
C3064 C3063 1.374 . S
C3065 C3062 1.499 . S
C3065 C3066 1.373 . S
C3065 C3067 1.389 . S
C3066 H3039 0.950 . S
C3066 C3052 1.377 . S
C3066 C3065 1.373 . S
C3067 C3051 1.377 . S
C3067 C3065 1.389 . S
C3067 C3068 1.524 1_554 S
C3068 C3067 1.524 1_556 S
C3068 C3069 1.397 . S
C3068 C3073 1.363 . S
C3069 H3040 0.950 . S
C3069 C3068 1.397 . S
C3069 C3070 1.334 . S
C3070 H3041 0.950 . S
C3070 C3069 1.334 . S
C3070 C3071 1.287 . S
C3071 C3070 1.287 . S
C3071 C3072 1.524 . S
C3071 H3074 0.999 . S
C3072 H3042 0.950 . S
C3072 C3071 1.524 . S
C3072 C3073 1.415 . S
C3073 H3043 0.950 . S
C3073 C3068 1.363 . S
C3073 C3072 1.415 . S
H3074 C3071 0.999 . S
H3075 C3056 0.913 . S
H3076 C3094 0.951 . S
H3077 C3096 0.951 . S
H3078 C3098 0.950 . S
H3079 C3099 0.950 . S
H3080 C3101 0.950 . S
H3081 C3104 0.950 . S
H3082 C3105 0.950 . S
H3083 C3107 0.950 . S
H3084 C3108 0.950 . S
H3085 C3109 0.951 . S
H3086 C3111 0.951 . S
H3087 C3113 0.950 . S
H3088 C3114 0.950 . S
H3089 C3116 0.950 . S
H3090 C3119 0.950 . S
H3091 C3120 0.950 . S
H3092 C3122 0.950 . S
H3093 C3123 0.950 . S
C3094 H3076 0.951 . S
C3094 C3095 1.366 . S
C3094 C3096 1.388 . S
C3095 C3094 1.366 . S
C3095 C3099 1.385 . S
C3096 H3077 0.951 . S
C3096 C3094 1.388 . S
C3096 C3097 1.366 . S
C3097 C3096 1.366 . S
C3097 C3098 1.414 . S
C3097 C3100 1.499 . S
C3098 H3078 0.950 . S
C3098 C3097 1.414 . S
C3098 C3099 1.374 . S
C3099 H3079 0.950 . S
C3099 C3095 1.385 . S
C3099 C3098 1.374 . S
C3100 C3097 1.499 . S
C3100 C3101 1.373 . S
C3100 C3102 1.389 . S
C3101 H3080 0.950 . S
C3101 C3100 1.373 . S
C3101 C3117 1.377 . S
C3102 C3100 1.389 . S
C3102 C3103 1.524 . S
C3102 C3116 1.377 . S
C3103 C3102 1.524 . S
C3103 C3104 1.397 . S
C3103 C3108 1.363 . S
C3104 H3081 0.950 . S
C3104 C3103 1.397 . S
C3104 C3105 1.334 . S
C3105 H3082 0.950 . S
C3105 C3104 1.334 . S
C3105 C3106 1.287 . S
C3106 C3105 1.287 . S
C3106 C3107 1.524 . S
C3106 H3125 0.913 . S
C3107 H3083 0.950 . S
C3107 C3106 1.524 . S
C3107 C3108 1.415 . S
C3108 H3084 0.950 . S
C3108 C3103 1.363 . S
C3108 C3107 1.415 . S
C3109 H3085 0.951 . S
C3109 C3110 1.366 . S
C3109 C3111 1.388 . S
C3110 C3109 1.366 . S
C3110 C3114 1.385 . S
C3111 H3086 0.951 . S
C3111 C3109 1.388 . S
C3111 C3112 1.366 . S
C3112 C3111 1.366 . S
C3112 C3113 1.414 . S
C3112 C3115 1.499 . S
C3113 H3087 0.950 . S
C3113 C3112 1.414 . S
C3113 C3114 1.374 . S
C3114 H3088 0.950 . S
C3114 C3110 1.385 . S
C3114 C3113 1.374 . S
C3115 C3112 1.499 . S
C3115 C3116 1.373 . S
C3115 C3117 1.389 . S
C3116 H3089 0.950 . S
C3116 C3102 1.377 . S
C3116 C3115 1.373 . S
C3117 C3101 1.377 . S
C3117 C3115 1.389 . S
C3117 C3118 1.524 . S
C3118 C3117 1.524 . S
C3118 C3119 1.397 . S
C3118 C3123 1.363 . S
C3119 H3090 0.950 . S
C3119 C3118 1.397 . S
C3119 C3120 1.334 . S
C3120 H3091 0.950 . S
C3120 C3119 1.334 . S
C3120 C3121 1.287 . S
C3121 C3120 1.287 . S
C3121 C3122 1.524 . S
C3121 H3124 0.999 . S
C3122 H3092 0.950 . S
C3122 C3121 1.524 . S
C3122 C3123 1.415 . S
C3123 H3093 0.950 . S
C3123 C3118 1.363 . S
C3123 C3122 1.415 . S
H3124 C3121 0.999 . S
H3125 C3106 0.913 . S
H3126 C3144 0.951 . S
H3127 C3146 0.951 . S
H3128 C3148 0.950 . S
H3129 C3149 0.950 . S
H3130 C3151 0.950 . S
H3131 C3154 0.950 . S
H3132 C3155 0.950 . S
H3133 C3157 0.950 . S
H3134 C3158 0.950 . S
H3135 C3159 0.951 . S
H3136 C3161 0.951 . S
H3137 C3163 0.950 . S
H3138 C3164 0.950 . S
H3139 C3166 0.950 . S
H3140 C3169 0.950 . S
H3141 C3170 0.950 . S
H3142 C3172 0.950 . S
H3143 C3173 0.950 . S
C3144 H3126 0.951 . S
C3144 C3145 1.366 . S
C3144 C3146 1.388 . S
C3145 C3144 1.366 . S
C3145 C3149 1.385 . S
C3146 H3127 0.951 . S
C3146 C3144 1.388 . S
C3146 C3147 1.366 . S
C3147 C3146 1.366 . S
C3147 C3148 1.414 . S
C3147 C3150 1.499 . S
C3148 H3128 0.950 . S
C3148 C3147 1.414 . S
C3148 C3149 1.374 . S
C3149 H3129 0.950 . S
C3149 C3145 1.385 . S
C3149 C3148 1.374 . S
C3150 C3147 1.499 . S
C3150 C3151 1.373 . S
C3150 C3152 1.389 . S
C3151 H3130 0.950 . S
C3151 C3150 1.373 . S
C3151 C3167 1.377 . S
C3152 C3150 1.389 . S
C3152 C3153 1.524 . S
C3152 C3166 1.377 . S
C3153 C3152 1.524 . S
C3153 C3154 1.397 . S
C3153 C3158 1.363 . S
C3154 H3131 0.950 . S
C3154 C3153 1.397 . S
C3154 C3155 1.334 . S
C3155 H3132 0.950 . S
C3155 C3154 1.334 . S
C3155 C3156 1.287 . S
C3156 C3155 1.287 . S
C3156 C3157 1.524 . S
C3156 H3175 0.913 . S
C3157 H3133 0.950 . S
C3157 C3156 1.524 . S
C3157 C3158 1.415 . S
C3158 H3134 0.950 . S
C3158 C3153 1.363 . S
C3158 C3157 1.415 . S
C3159 H3135 0.951 . S
C3159 C3160 1.366 . S
C3159 C3161 1.388 . S
C3160 C3159 1.366 . S
C3160 C3164 1.385 . S
C3161 H3136 0.951 . S
C3161 C3159 1.388 . S
C3161 C3162 1.366 . S
C3162 C3161 1.366 . S
C3162 C3163 1.414 . S
C3162 C3165 1.499 . S
C3163 H3137 0.950 . S
C3163 C3162 1.414 . S
C3163 C3164 1.374 . S
C3164 H3138 0.950 . S
C3164 C3160 1.385 . S
C3164 C3163 1.374 . S
C3165 C3162 1.499 . S
C3165 C3166 1.373 . S
C3165 C3167 1.389 . S
C3166 H3139 0.950 . S
C3166 C3152 1.377 . S
C3166 C3165 1.373 . S
C3167 C3151 1.377 . S
C3167 C3165 1.389 . S
C3167 C3168 1.524 . S
C3168 C3167 1.524 . S
C3168 C3169 1.397 . S
C3168 C3173 1.363 . S
C3169 H3140 0.950 . S
C3169 C3168 1.397 . S
C3169 C3170 1.334 . S
C3170 H3141 0.950 . S
C3170 C3169 1.334 . S
C3170 C3171 1.287 . S
C3171 C3170 1.287 . S
C3171 C3172 1.524 . S
C3171 H3174 0.999 . S
C3172 H3142 0.950 . S
C3172 C3171 1.524 . S
C3172 C3173 1.415 . S
C3173 H3143 0.950 . S
C3173 C3168 1.363 . S
C3173 C3172 1.415 . S
H3174 C3171 0.999 . S
H3175 C3156 0.913 . S
H3176 C3194 0.951 . S
H3177 C3196 0.951 1_545 S
H3178 C3198 0.950 . S
H3179 C3199 0.950 . S
H3180 C3201 0.950 . S
H3181 C3204 0.950 . S
H3182 C3205 0.950 . S
H3183 C3207 0.950 1_545 S
H3184 C3208 0.950 . S
H3185 C3209 0.951 . S
H3186 C3211 0.951 . S
H3187 C3213 0.950 . S
H3188 C3214 0.950 . S
H3189 C3216 0.950 . S
H3190 C3219 0.950 . S
H3191 C3220 0.950 . S
H3192 C3222 0.950 . S
H3193 C3223 0.950 . S
C3194 H3176 0.951 . S
C3194 C3195 1.366 . S
C3194 C3196 1.388 1_545 S
C3195 C3194 1.366 . S
C3195 C3199 1.385 1_545 S
C3196 H3177 0.951 1_565 S
C3196 C3194 1.388 1_565 S
C3196 C3197 1.366 . S
C3197 C3196 1.366 . S
C3197 C3198 1.414 . S
C3197 C3200 1.499 . S
C3198 H3178 0.950 . S
C3198 C3197 1.414 . S
C3198 C3199 1.374 . S
C3199 H3179 0.950 . S
C3199 C3195 1.385 1_565 S
C3199 C3198 1.374 . S
C3200 C3197 1.499 . S
C3200 C3201 1.373 . S
C3200 C3202 1.389 . S
C3201 H3180 0.950 . S
C3201 C3200 1.373 . S
C3201 C3217 1.377 . S
C3202 C3200 1.389 . S
C3202 C3203 1.524 . S
C3202 C3216 1.377 . S
C3203 C3202 1.524 . S
C3203 C3204 1.397 . S
C3203 C3208 1.363 . S
C3204 H3181 0.950 . S
C3204 C3203 1.397 . S
C3204 C3205 1.334 . S
C3205 H3182 0.950 . S
C3205 C3204 1.334 . S
C3205 C3206 1.287 . S
C3206 C3205 1.287 . S
C3206 C3207 1.524 . S
C3206 H3225 0.913 . S
C3207 H3183 0.950 1_565 S
C3207 C3206 1.524 . S
C3207 C3208 1.415 . S
C3208 H3184 0.950 . S
C3208 C3203 1.363 . S
C3208 C3207 1.415 . S
C3209 H3185 0.951 . S
C3209 C3210 1.366 . S
C3209 C3211 1.388 . S
C3210 C3209 1.366 . S
C3210 C3214 1.385 . S
C3211 H3186 0.951 . S
C3211 C3209 1.388 . S
C3211 C3212 1.366 . S
C3212 C3211 1.366 . S
C3212 C3213 1.414 . S
C3212 C3215 1.499 . S
C3213 H3187 0.950 . S
C3213 C3212 1.414 . S
C3213 C3214 1.374 . S
C3214 H3188 0.950 . S
C3214 C3210 1.385 . S
C3214 C3213 1.374 . S
C3215 C3212 1.499 . S
C3215 C3216 1.373 . S
C3215 C3217 1.389 . S
C3216 H3189 0.950 . S
C3216 C3202 1.377 . S
C3216 C3215 1.373 . S
C3217 C3201 1.377 . S
C3217 C3215 1.389 . S
C3217 C3218 1.524 . S
C3218 C3217 1.524 . S
C3218 C3219 1.397 . S
C3218 C3223 1.363 . S
C3219 H3190 0.950 . S
C3219 C3218 1.397 . S
C3219 C3220 1.334 . S
C3220 H3191 0.950 . S
C3220 C3219 1.334 . S
C3220 C3221 1.287 . S
C3221 C3220 1.287 . S
C3221 C3222 1.524 . S
C3221 H3224 0.999 . S
C3222 H3192 0.950 . S
C3222 C3221 1.524 . S
C3222 C3223 1.415 . S
C3223 H3193 0.950 . S
C3223 C3218 1.363 . S
C3223 C3222 1.415 . S
H3224 C3221 0.999 . S
H3225 C3206 0.913 . S
H3226 C3244 0.951 . S
H3227 C3246 0.951 . S
H3228 C3248 0.950 . S
H3229 C3249 0.950 . S
H3230 C3251 0.950 . S
H3231 C3254 0.950 . S
H3232 C3255 0.950 . S
H3233 C3257 0.950 1_545 S
H3234 C3258 0.950 . S
H3235 C3259 0.951 . S
H3236 C3261 0.951 . S
H3237 C3263 0.950 . S
H3238 C3264 0.950 . S
H3239 C3266 0.950 . S
H3240 C3269 0.950 . S
H3241 C3270 0.950 . S
H3242 C3272 0.950 . S
H3243 C3273 0.950 . S
C3244 H3226 0.951 . S
C3244 C3245 1.366 . S
C3244 C3246 1.388 . S
C3245 C3244 1.366 . S
C3245 C3249 1.385 . S
C3246 H3227 0.951 . S
C3246 C3244 1.388 . S
C3246 C3247 1.366 . S
C3247 C3246 1.366 . S
C3247 C3248 1.414 . S
C3247 C3250 1.499 . S
C3248 H3228 0.950 . S
C3248 C3247 1.414 . S
C3248 C3249 1.374 . S
C3249 H3229 0.950 . S
C3249 C3245 1.385 . S
C3249 C3248 1.374 . S
C3250 C3247 1.499 . S
C3250 C3251 1.373 . S
C3250 C3252 1.389 . S
C3251 H3230 0.950 . S
C3251 C3250 1.373 . S
C3251 C3267 1.377 . S
C3252 C3250 1.389 . S
C3252 C3253 1.524 . S
C3252 C3266 1.377 . S
C3253 C3252 1.524 . S
C3253 C3254 1.397 . S
C3253 C3258 1.363 . S
C3254 H3231 0.950 . S
C3254 C3253 1.397 . S
C3254 C3255 1.334 . S
C3255 H3232 0.950 . S
C3255 C3254 1.334 . S
C3255 C3256 1.287 . S
C3256 C3255 1.287 . S
C3256 C3257 1.524 . S
C3256 H3275 0.913 . S
C3257 H3233 0.950 1_565 S
C3257 C3256 1.524 . S
C3257 C3258 1.415 . S
C3258 H3234 0.950 . S
C3258 C3253 1.363 . S
C3258 C3257 1.415 . S
C3259 H3235 0.951 . S
C3259 C3260 1.366 . S
C3259 C3261 1.388 . S
C3260 C3259 1.366 . S
C3260 C3264 1.385 . S
C3261 H3236 0.951 . S
C3261 C3259 1.388 . S
C3261 C3262 1.366 . S
C3262 C3261 1.366 . S
C3262 C3263 1.414 . S
C3262 C3265 1.499 . S
C3263 H3237 0.950 . S
C3263 C3262 1.414 . S
C3263 C3264 1.374 . S
C3264 H3238 0.950 . S
C3264 C3260 1.385 . S
C3264 C3263 1.374 . S
C3265 C3262 1.499 . S
C3265 C3266 1.373 . S
C3265 C3267 1.389 . S
C3266 H3239 0.950 . S
C3266 C3252 1.377 . S
C3266 C3265 1.373 . S
C3267 C3251 1.377 . S
C3267 C3265 1.389 . S
C3267 C3268 1.524 . S
C3268 C3267 1.524 . S
C3268 C3269 1.397 . S
C3268 C3273 1.363 . S
C3269 H3240 0.950 . S
C3269 C3268 1.397 . S
C3269 C3270 1.334 . S
C3270 H3241 0.950 . S
C3270 C3269 1.334 . S
C3270 C3271 1.287 . S
C3271 C3270 1.287 . S
C3271 C3272 1.524 . S
C3271 H3274 0.999 . S
C3272 H3242 0.950 . S
C3272 C3271 1.524 . S
C3272 C3273 1.415 . S
C3273 H3243 0.950 . S
C3273 C3268 1.363 . S
C3273 C3272 1.415 . S
H3274 C3271 0.999 . S
H3275 C3256 0.913 . S
H3276 C3294 0.951 . S
H3277 C3296 0.951 . S
H3278 C3298 0.950 . S
H3279 C3299 0.950 . S
H3280 C3301 0.950 . S
H3281 C3304 0.950 . S
H3282 C3305 0.950 . S
H3283 C3307 0.950 . S
H3284 C3308 0.950 . S
H3285 C3309 0.951 . S
H3286 C3311 0.951 . S
H3287 C3313 0.950 . S
H3288 C3314 0.950 . S
H3289 C3316 0.950 . S
H3290 C3319 0.950 . S
H3291 C3320 0.950 . S
H3292 C3322 0.950 . S
H3293 C3323 0.950 . S
C3294 H3276 0.951 . S
C3294 C3295 1.366 . S
C3294 C3296 1.388 . S
C3295 C3294 1.366 . S
C3295 C3299 1.385 . S
C3296 H3277 0.951 . S
C3296 C3294 1.388 . S
C3296 C3297 1.366 . S
C3297 C3296 1.366 . S
C3297 C3298 1.414 . S
C3297 C3300 1.499 . S
C3298 H3278 0.950 . S
C3298 C3297 1.414 . S
C3298 C3299 1.374 . S
C3299 H3279 0.950 . S
C3299 C3295 1.385 . S
C3299 C3298 1.374 . S
C3300 C3297 1.499 . S
C3300 C3301 1.373 . S
C3300 C3302 1.389 . S
C3301 H3280 0.950 . S
C3301 C3300 1.373 . S
C3301 C3317 1.377 . S
C3302 C3300 1.389 . S
C3302 C3303 1.524 . S
C3302 C3316 1.377 . S
C3303 C3302 1.524 . S
C3303 C3304 1.397 . S
C3303 C3308 1.363 . S
C3304 H3281 0.950 . S
C3304 C3303 1.397 . S
C3304 C3305 1.334 . S
C3305 H3282 0.950 . S
C3305 C3304 1.334 . S
C3305 C3306 1.287 . S
C3306 C3305 1.287 . S
C3306 C3307 1.524 . S
C3306 H3325 0.913 . S
C3307 H3283 0.950 . S
C3307 C3306 1.524 . S
C3307 C3308 1.415 . S
C3308 H3284 0.950 . S
C3308 C3303 1.363 . S
C3308 C3307 1.415 . S
C3309 H3285 0.951 . S
C3309 C3310 1.366 . S
C3309 C3311 1.388 . S
C3310 C3309 1.366 . S
C3310 C3314 1.385 . S
C3311 H3286 0.951 . S
C3311 C3309 1.388 . S
C3311 C3312 1.366 . S
C3312 C3311 1.366 . S
C3312 C3313 1.414 . S
C3312 C3315 1.499 . S
C3313 H3287 0.950 . S
C3313 C3312 1.414 . S
C3313 C3314 1.374 . S
C3314 H3288 0.950 . S
C3314 C3310 1.385 . S
C3314 C3313 1.374 . S
C3315 C3312 1.499 . S
C3315 C3316 1.373 . S
C3315 C3317 1.389 . S
C3316 H3289 0.950 . S
C3316 C3302 1.377 . S
C3316 C3315 1.373 . S
C3317 C3301 1.377 . S
C3317 C3315 1.389 . S
C3317 C3318 1.524 . S
C3318 C3317 1.524 . S
C3318 C3319 1.397 . S
C3318 C3323 1.363 . S
C3319 H3290 0.950 . S
C3319 C3318 1.397 . S
C3319 C3320 1.334 . S
C3320 H3291 0.950 . S
C3320 C3319 1.334 . S
C3320 C3321 1.287 . S
C3321 C3320 1.287 . S
C3321 C3322 1.524 . S
C3321 H3324 0.999 . S
C3322 H3292 0.950 . S
C3322 C3321 1.524 . S
C3322 C3323 1.415 . S
C3323 H3293 0.950 . S
C3323 C3318 1.363 . S
C3323 C3322 1.415 . S
H3324 C3321 0.999 . S
H3325 C3306 0.913 . S
H3326 C3344 0.951 . S
H3327 C3346 0.951 . S
H3328 C3348 0.950 . S
H3329 C3349 0.950 . S
H3330 C3351 0.950 . S
H3331 C3354 0.950 . S
H3332 C3355 0.950 . S
H3333 C3357 0.950 . S
H3334 C3358 0.950 . S
H3335 C3359 0.951 . S
H3336 C3361 0.951 . S
H3337 C3363 0.950 . S
H3338 C3364 0.950 . S
H3339 C3366 0.950 . S
H3340 C3369 0.950 . S
H3341 C3370 0.950 . S
H3342 C3372 0.950 . S
H3343 C3373 0.950 . S
C3344 H3326 0.951 . S
C3344 C3345 1.366 . S
C3344 C3346 1.388 . S
C3345 C3344 1.366 . S
C3345 C3349 1.385 . S
C3346 H3327 0.951 . S
C3346 C3344 1.388 . S
C3346 C3347 1.366 . S
C3347 C3346 1.366 . S
C3347 C3348 1.414 . S
C3347 C3350 1.499 . S
C3348 H3328 0.950 . S
C3348 C3347 1.414 . S
C3348 C3349 1.374 . S
C3349 H3329 0.950 . S
C3349 C3345 1.385 . S
C3349 C3348 1.374 . S
C3350 C3347 1.499 . S
C3350 C3351 1.373 . S
C3350 C3352 1.389 . S
C3351 H3330 0.950 . S
C3351 C3350 1.373 . S
C3351 C3367 1.377 . S
C3352 C3350 1.389 . S
C3352 C3353 1.524 . S
C3352 C3366 1.377 . S
C3353 C3352 1.524 . S
C3353 C3354 1.397 . S
C3353 C3358 1.363 . S
C3354 H3331 0.950 . S
C3354 C3353 1.397 . S
C3354 C3355 1.334 . S
C3355 H3332 0.950 . S
C3355 C3354 1.334 . S
C3355 C3356 1.287 . S
C3356 C3355 1.287 . S
C3356 C3357 1.524 . S
C3356 H3375 0.913 . S
C3357 H3333 0.950 . S
C3357 C3356 1.524 . S
C3357 C3358 1.415 . S
C3358 H3334 0.950 . S
C3358 C3353 1.363 . S
C3358 C3357 1.415 . S
C3359 H3335 0.951 . S
C3359 C3360 1.366 . S
C3359 C3361 1.388 . S
C3360 C3359 1.366 . S
C3360 C3364 1.385 . S
C3361 H3336 0.951 . S
C3361 C3359 1.388 . S
C3361 C3362 1.366 . S
C3362 C3361 1.366 . S
C3362 C3363 1.414 . S
C3362 C3365 1.499 . S
C3363 H3337 0.950 . S
C3363 C3362 1.414 . S
C3363 C3364 1.374 . S
C3364 H3338 0.950 . S
C3364 C3360 1.385 . S
C3364 C3363 1.374 . S
C3365 C3362 1.499 . S
C3365 C3366 1.373 . S
C3365 C3367 1.389 . S
C3366 H3339 0.950 . S
C3366 C3352 1.377 . S
C3366 C3365 1.373 . S
C3367 C3351 1.377 . S
C3367 C3365 1.389 . S
C3367 C3368 1.524 . S
C3368 C3367 1.524 . S
C3368 C3369 1.397 . S
C3368 C3373 1.363 . S
C3369 H3340 0.950 . S
C3369 C3368 1.397 . S
C3369 C3370 1.334 . S
C3370 H3341 0.950 . S
C3370 C3369 1.334 . S
C3370 C3371 1.287 . S
C3371 C3370 1.287 . S
C3371 C3372 1.524 . S
C3371 H3374 0.999 . S
C3372 H3342 0.950 . S
C3372 C3371 1.524 . S
C3372 C3373 1.415 . S
C3373 H3343 0.950 . S
C3373 C3368 1.363 . S
C3373 C3372 1.415 . S
H3374 C3371 0.999 . S
H3375 C3356 0.913 . S
H3376 C3394 0.951 . S
H3377 C3396 0.951 . S
H3378 C3398 0.950 . S
H3379 C3399 0.950 . S
H3380 C3401 0.950 . S
H3381 C3404 0.950 . S
H3382 C3405 0.950 . S
H3383 C3407 0.950 . S
H3384 C3408 0.950 . S
H3385 C3409 0.951 . S
H3386 C3411 0.951 . S
H3387 C3413 0.950 . S
H3388 C3414 0.950 . S
H3389 C3416 0.950 . S
H3390 C3419 0.950 . S
H3391 C3420 0.950 . S
H3392 C3422 0.950 . S
H3393 C3423 0.950 . S
C3394 H3376 0.951 . S
C3394 C3395 1.366 . S
C3394 C3396 1.388 . S
C3395 C3394 1.366 . S
C3395 C3399 1.385 . S
C3396 H3377 0.951 . S
C3396 C3394 1.388 . S
C3396 C3397 1.366 . S
C3397 C3396 1.366 . S
C3397 C3398 1.414 . S
C3397 C3400 1.499 . S
C3398 H3378 0.950 . S
C3398 C3397 1.414 . S
C3398 C3399 1.374 . S
C3399 H3379 0.950 . S
C3399 C3395 1.385 . S
C3399 C3398 1.374 . S
C3400 C3397 1.499 . S
C3400 C3401 1.373 . S
C3400 C3402 1.389 . S
C3401 H3380 0.950 . S
C3401 C3400 1.373 . S
C3401 C3417 1.377 . S
C3402 C3400 1.389 . S
C3402 C3403 1.524 . S
C3402 C3416 1.377 . S
C3403 C3402 1.524 . S
C3403 C3404 1.397 . S
C3403 C3408 1.363 . S
C3404 H3381 0.950 . S
C3404 C3403 1.397 . S
C3404 C3405 1.334 . S
C3405 H3382 0.950 . S
C3405 C3404 1.334 . S
C3405 C3406 1.287 . S
C3406 C3405 1.287 . S
C3406 C3407 1.524 . S
C3406 H3425 0.913 . S
C3407 H3383 0.950 . S
C3407 C3406 1.524 . S
C3407 C3408 1.415 . S
C3408 H3384 0.950 . S
C3408 C3403 1.363 . S
C3408 C3407 1.415 . S
C3409 H3385 0.951 . S
C3409 C3410 1.366 . S
C3409 C3411 1.388 . S
C3410 C3409 1.366 . S
C3410 C3414 1.385 . S
C3411 H3386 0.951 . S
C3411 C3409 1.388 . S
C3411 C3412 1.366 . S
C3412 C3411 1.366 . S
C3412 C3413 1.414 . S
C3412 C3415 1.499 . S
C3413 H3387 0.950 . S
C3413 C3412 1.414 . S
C3413 C3414 1.374 . S
C3414 H3388 0.950 . S
C3414 C3410 1.385 . S
C3414 C3413 1.374 . S
C3415 C3412 1.499 . S
C3415 C3416 1.373 . S
C3415 C3417 1.389 . S
C3416 H3389 0.950 . S
C3416 C3402 1.377 . S
C3416 C3415 1.373 . S
C3417 C3401 1.377 . S
C3417 C3415 1.389 . S
C3417 C3418 1.524 . S
C3418 C3417 1.524 . S
C3418 C3419 1.397 . S
C3418 C3423 1.363 . S
C3419 H3390 0.950 . S
C3419 C3418 1.397 . S
C3419 C3420 1.334 . S
C3420 H3391 0.950 . S
C3420 C3419 1.334 . S
C3420 C3421 1.287 . S
C3421 C3420 1.287 . S
C3421 C3422 1.524 . S
C3421 H3424 0.999 . S
C3422 H3392 0.950 . S
C3422 C3421 1.524 . S
C3422 C3423 1.415 . S
C3423 H3393 0.950 . S
C3423 C3418 1.363 . S
C3423 C3422 1.415 . S
H3424 C3421 0.999 . S
H3425 C3406 0.913 . S
H3426 C3444 0.951 . S
H3427 C3446 0.951 . S
H3428 C3448 0.950 . S
H3429 C3449 0.950 . S
H3430 C3451 0.950 . S
H3431 C3454 0.950 . S
H3432 C3455 0.950 . S
H3433 C3457 0.950 . S
H3434 C3458 0.950 . S
H3435 C3459 0.951 . S
H3436 C3461 0.951 . S
H3437 C3463 0.950 . S
H3438 C3464 0.950 . S
H3439 C3466 0.950 . S
H3440 C3469 0.950 . S
H3441 C3470 0.950 . S
H3442 C3472 0.950 . S
H3443 C3473 0.950 . S
C3444 H3426 0.951 . S
C3444 C3445 1.366 . S
C3444 C3446 1.388 . S
C3445 C3444 1.366 . S
C3445 C3449 1.385 . S
C3446 H3427 0.951 . S
C3446 C3444 1.388 . S
C3446 C3447 1.366 . S
C3447 C3446 1.366 . S
C3447 C3448 1.414 . S
C3447 C3450 1.499 . S
C3448 H3428 0.950 . S
C3448 C3447 1.414 . S
C3448 C3449 1.374 . S
C3449 H3429 0.950 . S
C3449 C3445 1.385 . S
C3449 C3448 1.374 . S
C3450 C3447 1.499 . S
C3450 C3451 1.373 . S
C3450 C3452 1.389 . S
C3451 H3430 0.950 . S
C3451 C3450 1.373 . S
C3451 C3467 1.377 . S
C3452 C3450 1.389 . S
C3452 C3453 1.524 . S
C3452 C3466 1.377 . S
C3453 C3452 1.524 . S
C3453 C3454 1.397 . S
C3453 C3458 1.363 . S
C3454 H3431 0.950 . S
C3454 C3453 1.397 . S
C3454 C3455 1.334 . S
C3455 H3432 0.950 . S
C3455 C3454 1.334 . S
C3455 C3456 1.287 . S
C3456 C3455 1.287 . S
C3456 C3457 1.524 . S
C3456 H3475 0.913 . S
C3457 H3433 0.950 . S
C3457 C3456 1.524 . S
C3457 C3458 1.415 . S
C3458 H3434 0.950 . S
C3458 C3453 1.363 . S
C3458 C3457 1.415 . S
C3459 H3435 0.951 . S
C3459 C3460 1.366 . S
C3459 C3461 1.388 . S
C3460 C3459 1.366 . S
C3460 C3464 1.385 . S
C3461 H3436 0.951 . S
C3461 C3459 1.388 . S
C3461 C3462 1.366 . S
C3462 C3461 1.366 . S
C3462 C3463 1.414 . S
C3462 C3465 1.499 . S
C3463 H3437 0.950 . S
C3463 C3462 1.414 . S
C3463 C3464 1.374 . S
C3464 H3438 0.950 . S
C3464 C3460 1.385 . S
C3464 C3463 1.374 . S
C3465 C3462 1.499 . S
C3465 C3466 1.373 . S
C3465 C3467 1.389 . S
C3466 H3439 0.950 . S
C3466 C3452 1.377 . S
C3466 C3465 1.373 . S
C3467 C3451 1.377 . S
C3467 C3465 1.389 . S
C3467 C3468 1.524 . S
C3468 C3467 1.524 . S
C3468 C3469 1.397 . S
C3468 C3473 1.363 . S
C3469 H3440 0.950 . S
C3469 C3468 1.397 . S
C3469 C3470 1.334 . S
C3470 H3441 0.950 . S
C3470 C3469 1.334 . S
C3470 C3471 1.287 . S
C3471 C3470 1.287 . S
C3471 C3472 1.524 . S
C3471 H3474 0.999 . S
C3472 H3442 0.950 . S
C3472 C3471 1.524 . S
C3472 C3473 1.415 . S
C3473 H3443 0.950 . S
C3473 C3468 1.363 . S
C3473 C3472 1.415 . S
H3474 C3471 0.999 . S
H3475 C3456 0.913 . S
H3476 C3494 0.951 . S
H3477 C3496 0.951 . S
H3478 C3498 0.950 1_655 S
H3479 C3499 0.950 1_655 S
H3480 C3501 0.950 . S
H3481 C3504 0.950 1_556 S
H3482 C3505 0.950 . S
H3483 C3507 0.950 . S
H3484 C3508 0.950 . S
H3485 C3509 0.951 . S
H3486 C3511 0.951 . S
H3487 C3513 0.950 . S
H3488 C3514 0.950 . S
H3489 C3516 0.950 1_554 S
H3490 C3519 0.950 . S
H3491 C3520 0.950 . S
H3492 C3522 0.950 . S
H3493 C3523 0.950 . S
C3494 H3476 0.951 . S
C3494 C3495 1.366 . S
C3494 C3496 1.388 . S
C3495 C3494 1.366 . S
C3495 C3499 1.385 . S
C3496 H3477 0.951 . S
C3496 C3494 1.388 . S
C3496 C3497 1.366 . S
C3497 C3496 1.366 . S
C3497 C3498 1.414 . S
C3497 C3500 1.499 . S
C3498 H3478 0.950 1_455 S
C3498 C3497 1.414 . S
C3498 C3499 1.374 . S
C3499 H3479 0.950 1_455 S
C3499 C3495 1.385 . S
C3499 C3498 1.374 . S
C3500 C3497 1.499 . S
C3500 C3501 1.373 . S
C3500 C3502 1.389 . S
C3501 H3480 0.950 . S
C3501 C3500 1.373 . S
C3501 C3517 1.377 . S
C3502 C3500 1.389 . S
C3502 C3503 1.524 . S
C3502 C3516 1.377 . S
C3503 C3502 1.524 . S
C3503 C3504 1.397 1_556 S
C3503 C3508 1.363 1_556 S
C3504 H3481 0.950 1_554 S
C3504 C3503 1.397 1_554 S
C3504 C3505 1.334 . S
C3505 H3482 0.950 . S
C3505 C3504 1.334 . S
C3505 C3506 1.287 . S
C3506 C3505 1.287 . S
C3506 C3507 1.524 . S
C3506 H3525 0.913 . S
C3507 H3483 0.950 . S
C3507 C3506 1.524 . S
C3507 C3508 1.415 . S
C3508 H3484 0.950 . S
C3508 C3503 1.363 1_554 S
C3508 C3507 1.415 . S
C3509 H3485 0.951 . S
C3509 C3510 1.366 1_556 S
C3509 C3511 1.388 . S
C3510 C3509 1.366 1_554 S
C3510 C3514 1.385 . S
C3511 H3486 0.951 . S
C3511 C3509 1.388 . S
C3511 C3512 1.366 . S
C3512 C3511 1.366 . S
C3512 C3513 1.414 . S
C3512 C3515 1.499 . S
C3513 H3487 0.950 . S
C3513 C3512 1.414 . S
C3513 C3514 1.374 1_556 S
C3514 H3488 0.950 . S
C3514 C3510 1.385 . S
C3514 C3513 1.374 1_554 S
C3515 C3512 1.499 . S
C3515 C3516 1.373 . S
C3515 C3517 1.389 . S
C3516 H3489 0.950 1_556 S
C3516 C3502 1.377 . S
C3516 C3515 1.373 . S
C3517 C3501 1.377 . S
C3517 C3515 1.389 . S
C3517 C3518 1.524 . S
C3518 C3517 1.524 . S
C3518 C3519 1.397 . S
C3518 C3523 1.363 1_455 S
C3519 H3490 0.950 . S
C3519 C3518 1.397 . S
C3519 C3520 1.334 . S
C3520 H3491 0.950 . S
C3520 C3519 1.334 . S
C3520 C3521 1.324 . S
C3521 C3520 1.324 . S
C3521 C3522 1.500 1_455 S
C3521 H3524 0.981 1_455 S
C3522 H3492 0.950 . S
C3522 C3521 1.500 1_655 S
C3522 C3523 1.415 . S
C3523 H3493 0.950 . S
C3523 C3518 1.363 1_655 S
C3523 C3522 1.415 . S
H3524 C3521 0.981 1_655 S
H3525 C3506 0.913 . S
H3526 C3544 0.951 . S
H3527 C3546 0.951 . S
H3528 C3548 0.950 . S
H3529 C3549 0.950 . S
H3530 C3551 0.950 . S
H3531 C3554 0.950 . S
H3532 C3555 0.950 . S
H3533 C3557 0.950 . S
H3534 C3558 0.950 . S
H3535 C3559 0.951 . S
H3536 C3561 0.951 . S
H3537 C3563 0.950 . S
H3538 C3564 0.950 . S
H3539 C3566 0.950 . S
H3540 C3569 0.950 . S
H3541 C3570 0.950 . S
H3542 C3572 0.950 . S
H3543 C3573 0.950 . S
C3544 H3526 0.951 . S
C3544 C3545 1.366 . S
C3544 C3546 1.388 . S
C3545 C3544 1.366 . S
C3545 C3549 1.385 . S
C3546 H3527 0.951 . S
C3546 C3544 1.388 . S
C3546 C3547 1.366 1_455 S
C3547 C3546 1.366 1_655 S
C3547 C3548 1.414 . S
C3547 C3550 1.499 . S
C3548 H3528 0.950 . S
C3548 C3547 1.414 . S
C3548 C3549 1.374 1_655 S
C3549 H3529 0.950 . S
C3549 C3545 1.385 . S
C3549 C3548 1.374 1_455 S
C3550 C3547 1.499 . S
C3550 C3551 1.373 . S
C3550 C3552 1.389 . S
C3551 H3530 0.950 . S
C3551 C3550 1.373 . S
C3551 C3567 1.377 . S
C3552 C3550 1.389 . S
C3552 C3553 1.524 . S
C3552 C3566 1.377 . S
C3553 C3552 1.524 . S
C3553 C3554 1.397 . S
C3553 C3558 1.363 . S
C3554 H3531 0.950 . S
C3554 C3553 1.397 . S
C3554 C3555 1.334 1_655 S
C3555 H3532 0.950 . S
C3555 C3554 1.334 1_455 S
C3555 C3556 1.287 . S
C3556 C3555 1.287 . S
C3556 C3557 1.524 . S
C3556 H3575 0.913 . S
C3557 H3533 0.950 . S
C3557 C3556 1.524 . S
C3557 C3558 1.415 1_455 S
C3558 H3534 0.950 . S
C3558 C3553 1.363 . S
C3558 C3557 1.415 1_655 S
C3559 H3535 0.951 . S
C3559 C3560 1.366 . S
C3559 C3561 1.388 . S
C3560 C3559 1.366 . S
C3560 C3564 1.385 . S
C3561 H3536 0.951 . S
C3561 C3559 1.388 . S
C3561 C3562 1.366 . S
C3562 C3561 1.366 . S
C3562 C3563 1.414 . S
C3562 C3565 1.499 . S
C3563 H3537 0.950 . S
C3563 C3562 1.414 . S
C3563 C3564 1.374 . S
C3564 H3538 0.950 . S
C3564 C3560 1.385 . S
C3564 C3563 1.374 . S
C3565 C3562 1.499 . S
C3565 C3566 1.373 . S
C3565 C3567 1.389 . S
C3566 H3539 0.950 . S
C3566 C3552 1.377 . S
C3566 C3565 1.373 . S
C3567 C3551 1.377 . S
C3567 C3565 1.389 . S
C3567 C3568 1.524 . S
C3568 C3567 1.524 . S
C3568 C3569 1.397 . S
C3568 C3573 1.363 . S
C3569 H3540 0.950 . S
C3569 C3568 1.397 . S
C3569 C3570 1.334 . S
C3570 H3541 0.950 . S
C3570 C3569 1.334 . S
C3570 C3571 1.287 . S
C3571 C3570 1.287 . S
C3571 C3572 1.524 . S
C3571 H3574 0.999 . S
C3572 H3542 0.950 . S
C3572 C3571 1.524 . S
C3572 C3573 1.415 . S
C3573 H3543 0.950 . S
C3573 C3568 1.363 . S
C3573 C3572 1.415 . S
H3574 C3571 0.999 . S
H3575 C3556 0.913 . S
H3576 C3594 0.951 . S
H3577 C3596 0.951 . S
H3578 C3598 0.950 . S
H3579 C3599 0.950 . S
H3580 C3601 0.950 . S
H3581 C3604 0.950 . S
H3582 C3605 0.950 . S
H3583 C3607 0.950 . S
H3584 C3608 0.950 . S
H3585 C3609 0.951 . S
H3586 C3611 0.951 . S
H3587 C3613 0.950 . S
H3588 C3614 0.950 . S
H3589 C3616 0.950 . S
H3590 C3619 0.950 . S
H3591 C3620 0.950 . S
H3592 C3622 0.950 . S
H3593 C3623 0.950 . S
C3594 H3576 0.951 . S
C3594 C3595 1.366 . S
C3594 C3596 1.388 . S
C3595 C3594 1.366 . S
C3595 C3599 1.385 . S
C3596 H3577 0.951 . S
C3596 C3594 1.388 . S
C3596 C3597 1.366 . S
C3597 C3596 1.366 . S
C3597 C3598 1.414 . S
C3597 C3600 1.499 . S
C3598 H3578 0.950 . S
C3598 C3597 1.414 . S
C3598 C3599 1.374 . S
C3599 H3579 0.950 . S
C3599 C3595 1.385 . S
C3599 C3598 1.374 . S
C3600 C3597 1.499 . S
C3600 C3601 1.373 . S
C3600 C3602 1.389 . S
C3601 H3580 0.950 . S
C3601 C3600 1.373 . S
C3601 C3617 1.377 . S
C3602 C3600 1.389 . S
C3602 C3603 1.524 . S
C3602 C3616 1.377 . S
C3603 C3602 1.524 . S
C3603 C3604 1.397 . S
C3603 C3608 1.363 . S
C3604 H3581 0.950 . S
C3604 C3603 1.397 . S
C3604 C3605 1.334 . S
C3605 H3582 0.950 . S
C3605 C3604 1.334 . S
C3605 C3606 1.287 . S
C3606 C3605 1.287 . S
C3606 C3607 1.524 . S
C3606 H3625 0.913 . S
C3607 H3583 0.950 . S
C3607 C3606 1.524 . S
C3607 C3608 1.415 . S
C3608 H3584 0.950 . S
C3608 C3603 1.363 . S
C3608 C3607 1.415 . S
C3609 H3585 0.951 . S
C3609 C3610 1.366 . S
C3609 C3611 1.388 . S
C3610 C3609 1.366 . S
C3610 C3614 1.385 . S
C3611 H3586 0.951 . S
C3611 C3609 1.388 . S
C3611 C3612 1.366 . S
C3612 C3611 1.366 . S
C3612 C3613 1.414 . S
C3612 C3615 1.499 . S
C3613 H3587 0.950 . S
C3613 C3612 1.414 . S
C3613 C3614 1.374 . S
C3614 H3588 0.950 . S
C3614 C3610 1.385 . S
C3614 C3613 1.374 . S
C3615 C3612 1.499 . S
C3615 C3616 1.373 . S
C3615 C3617 1.389 . S
C3616 H3589 0.950 . S
C3616 C3602 1.377 . S
C3616 C3615 1.373 . S
C3617 C3601 1.377 . S
C3617 C3615 1.389 . S
C3617 C3618 1.524 . S
C3618 C3617 1.524 . S
C3618 C3619 1.397 . S
C3618 C3623 1.363 . S
C3619 H3590 0.950 . S
C3619 C3618 1.397 . S
C3619 C3620 1.334 . S
C3620 H3591 0.950 . S
C3620 C3619 1.334 . S
C3620 C3621 1.287 . S
C3621 C3620 1.287 . S
C3621 C3622 1.524 . S
C3621 H3624 0.999 . S
C3622 H3592 0.950 . S
C3622 C3621 1.524 . S
C3622 C3623 1.415 . S
C3623 H3593 0.950 . S
C3623 C3618 1.363 . S
C3623 C3622 1.415 . S
H3624 C3621 0.999 . S
H3625 C3606 0.913 . S
H3626 C3644 0.951 . S
H3627 C3646 0.951 . S
H3628 C3648 0.950 . S
H3629 C3649 0.950 . S
H3630 C3651 0.950 1_455 S
H3631 C3654 0.950 . S
H3632 C3655 0.950 . S
H3633 C3657 0.950 . S
H3634 C3658 0.950 . S
H3635 C3659 0.951 . S
H3636 C3661 0.951 . S
H3637 C3663 0.950 . S
H3638 C3664 0.950 . S
H3639 C3666 0.950 . S
H3640 C3669 0.950 . S
H3641 C3670 0.950 . S
H3642 C3672 0.950 . S
H3643 C3673 0.950 . S
C3644 H3626 0.951 . S
C3644 C3645 1.366 . S
C3644 C3646 1.388 . S
C3645 C3644 1.366 . S
C3645 C3649 1.385 . S
C3646 H3627 0.951 . S
C3646 C3644 1.388 . S
C3646 C3647 1.366 . S
C3647 C3646 1.366 . S
C3647 C3648 1.414 . S
C3647 C3650 1.499 1_455 S
C3648 H3628 0.950 . S
C3648 C3647 1.414 . S
C3648 C3649 1.374 . S
C3649 H3629 0.950 . S
C3649 C3645 1.385 . S
C3649 C3648 1.374 . S
C3650 C3647 1.499 1_655 S
C3650 C3651 1.373 . S
C3650 C3652 1.389 . S
C3651 H3630 0.950 1_655 S
C3651 C3650 1.373 . S
C3651 C3667 1.377 . S
C3652 C3650 1.389 . S
C3652 C3653 1.524 . S
C3652 C3666 1.377 . S
C3653 C3652 1.524 . S
C3653 C3654 1.397 . S
C3653 C3658 1.363 . S
C3654 H3631 0.950 . S
C3654 C3653 1.397 . S
C3654 C3655 1.334 . S
C3655 H3632 0.950 . S
C3655 C3654 1.334 . S
C3655 C3656 1.287 . S
C3656 C3655 1.287 . S
C3656 C3657 1.524 . S
C3656 H3675 0.913 . S
C3657 H3633 0.950 . S
C3657 C3656 1.524 . S
C3657 C3658 1.415 . S
C3658 H3634 0.950 . S
C3658 C3653 1.363 . S
C3658 C3657 1.415 . S
C3659 H3635 0.951 . S
C3659 C3660 1.366 . S
C3659 C3661 1.388 . S
C3660 C3659 1.366 . S
C3660 C3664 1.385 . S
C3661 H3636 0.951 . S
C3661 C3659 1.388 . S
C3661 C3662 1.366 . S
C3662 C3661 1.366 . S
C3662 C3663 1.414 . S
C3662 C3665 1.499 . S
C3663 H3637 0.950 . S
C3663 C3662 1.414 . S
C3663 C3664 1.374 . S
C3664 H3638 0.950 . S
C3664 C3660 1.385 . S
C3664 C3663 1.374 . S
C3665 C3662 1.499 . S
C3665 C3666 1.373 . S
C3665 C3667 1.389 . S
C3666 H3639 0.950 . S
C3666 C3652 1.377 . S
C3666 C3665 1.373 . S
C3667 C3651 1.377 . S
C3667 C3665 1.389 . S
C3667 C3668 1.524 . S
C3668 C3667 1.524 . S
C3668 C3669 1.397 . S
C3668 C3673 1.363 . S
C3669 H3640 0.950 . S
C3669 C3668 1.397 . S
C3669 C3670 1.334 . S
C3670 H3641 0.950 . S
C3670 C3669 1.334 . S
C3670 C3671 1.287 . S
C3671 C3670 1.287 . S
C3671 C3672 1.524 . S
C3671 H3674 0.999 . S
C3672 H3642 0.950 . S
C3672 C3671 1.524 . S
C3672 C3673 1.415 . S
C3673 H3643 0.950 . S
C3673 C3668 1.363 . S
C3673 C3672 1.415 . S
H3674 C3671 0.999 . S
H3675 C3656 0.913 . S
H3676 C3694 0.951 . S
H3677 C3696 0.951 . S
H3678 C3698 0.950 . S
H3679 C3699 0.950 . S
H3680 C3701 0.950 . S
H3681 C3704 0.950 . S
H3682 C3705 0.950 . S
H3683 C3707 0.950 . S
H3684 C3708 0.950 . S
H3685 C3709 0.951 . S
H3686 C3711 0.951 . S
H3687 C3713 0.950 1_655 S
H3688 C3714 0.971 . S
H3689 C3716 0.950 . S
H3690 C3719 0.950 . S
H3691 C3720 0.950 . S
H3692 C3722 0.950 . S
H3693 C3723 0.950 . S
C3694 H3676 0.951 . S
C3694 C3695 1.366 . S
C3694 C3696 1.388 . S
C3695 C3694 1.366 . S
C3695 C3699 1.385 1_655 S
C3696 H3677 0.951 . S
C3696 C3694 1.388 . S
C3696 C3697 1.361 1_655 S
C3697 C3696 1.361 1_455 S
C3697 C3698 1.416 . S
C3697 C3700 1.501 . S
C3698 H3678 0.950 . S
C3698 C3697 1.416 . S
C3698 C3699 1.374 . S
C3699 H3679 0.950 . S
C3699 C3695 1.385 1_455 S
C3699 C3698 1.374 . S
C3700 C3697 1.501 . S
C3700 C3701 1.373 . S
C3700 C3702 1.389 1_455 S
C3701 H3680 0.950 . S
C3701 C3700 1.373 . S
C3701 C3717 1.377 . S
C3702 C3700 1.389 1_655 S
C3702 C3703 1.524 . S
C3702 C3716 1.377 . S
C3703 C3702 1.524 . S
C3703 C3704 1.397 . S
C3703 C3708 1.363 . S
C3704 H3681 0.950 . S
C3704 C3703 1.397 . S
C3704 C3705 1.334 . S
C3705 H3682 0.950 . S
C3705 C3704 1.334 . S
C3705 C3706 1.287 . S
C3706 C3705 1.287 . S
C3706 C3707 1.524 . S
C3706 H3725 0.913 . S
C3707 H3683 0.950 . S
C3707 C3706 1.524 . S
C3707 C3708 1.415 . S
C3708 H3684 0.950 . S
C3708 C3703 1.363 . S
C3708 C3707 1.415 . S
C3709 H3685 0.951 . S
C3709 C3710 1.366 . S
C3709 C3711 1.388 . S
C3710 C3709 1.366 . S
C3710 C3714 1.385 . S
C3711 H3686 0.951 . S
C3711 C3709 1.388 . S
C3711 C3712 1.366 . S
C3712 C3711 1.366 . S
C3712 C3713 1.414 . S
C3712 C3715 1.499 . S
C3713 H3687 0.950 1_455 S
C3713 C3712 1.414 . S
C3713 C3714 1.374 . S
C3714 H3688 0.971 . S
C3714 C3710 1.385 . S
C3714 C3713 1.374 . S
C3715 C3712 1.499 . S
C3715 C3716 1.373 1_455 S
C3715 C3717 1.389 . S
C3716 H3689 0.950 . S
C3716 C3702 1.377 . S
C3716 C3715 1.373 1_655 S
C3717 C3701 1.377 . S
C3717 C3715 1.389 . S
C3717 C3718 1.524 . S
C3718 C3717 1.524 . S
C3718 C3719 1.397 . S
C3718 C3723 1.363 . S
C3719 H3690 0.950 . S
C3719 C3718 1.397 . S
C3719 C3720 1.334 . S
C3720 H3691 0.950 . S
C3720 C3719 1.334 . S
C3720 C3721 1.287 . S
C3721 C3720 1.287 . S
C3721 C3722 1.524 . S
C3721 H3724 0.999 . S
C3722 H3692 0.950 . S
C3722 C3721 1.524 . S
C3722 C3723 1.415 . S
C3723 H3693 0.950 . S
C3723 C3718 1.363 . S
C3723 C3722 1.415 . S
H3724 C3721 0.999 . S
H3725 C3706 0.913 . S
H3726 C3744 0.951 . S
H3727 C3746 0.951 . S
H3728 C3748 0.950 . S
H3729 C3749 0.950 . S
H3730 C3751 0.950 . S
H3731 C3754 0.950 . S
H3732 C3755 0.950 . S
H3733 C3757 0.950 . S
H3734 C3758 0.950 . S
H3735 C3759 0.951 . S
H3736 C3761 0.951 . S
H3737 C3763 0.950 . S
H3738 C3764 0.950 . S
H3739 C3766 0.950 . S
H3740 C3769 0.950 . S
H3741 C3770 0.950 . S
H3742 C3772 0.950 . S
H3743 C3773 0.950 . S
C3744 H3726 0.951 . S
C3744 C3745 1.366 . S
C3744 C3746 1.388 . S
C3745 C3744 1.366 . S
C3745 C3749 1.385 . S
C3746 H3727 0.951 . S
C3746 C3744 1.388 . S
C3746 C3747 1.366 . S
C3747 C3746 1.366 . S
C3747 C3748 1.414 . S
C3747 C3750 1.499 . S
C3748 H3728 0.950 . S
C3748 C3747 1.414 . S
C3748 C3749 1.374 . S
C3749 H3729 0.950 . S
C3749 C3745 1.385 . S
C3749 C3748 1.374 . S
C3750 C3747 1.499 . S
C3750 C3751 1.373 . S
C3750 C3752 1.389 . S
C3751 H3730 0.950 . S
C3751 C3750 1.373 . S
C3751 C3767 1.377 . S
C3752 C3750 1.389 . S
C3752 C3753 1.524 . S
C3752 C3766 1.377 . S
C3753 C3752 1.524 . S
C3753 C3754 1.397 . S
C3753 C3758 1.363 . S
C3754 H3731 0.950 . S
C3754 C3753 1.397 . S
C3754 C3755 1.334 . S
C3755 H3732 0.950 . S
C3755 C3754 1.334 . S
C3755 C3756 1.287 . S
C3756 C3755 1.287 . S
C3756 C3757 1.524 . S
C3756 H3775 0.913 . S
C3757 H3733 0.950 . S
C3757 C3756 1.524 . S
C3757 C3758 1.415 . S
C3758 H3734 0.950 . S
C3758 C3753 1.363 . S
C3758 C3757 1.415 . S
C3759 H3735 0.951 . S
C3759 C3760 1.366 . S
C3759 C3761 1.388 . S
C3760 C3759 1.366 . S
C3760 C3764 1.385 . S
C3761 H3736 0.951 . S
C3761 C3759 1.388 . S
C3761 C3762 1.366 . S
C3762 C3761 1.366 . S
C3762 C3763 1.414 . S
C3762 C3765 1.499 . S
C3763 H3737 0.950 . S
C3763 C3762 1.414 . S
C3763 C3764 1.374 . S
C3764 H3738 0.950 . S
C3764 C3760 1.385 . S
C3764 C3763 1.374 . S
C3765 C3762 1.499 . S
C3765 C3766 1.373 . S
C3765 C3767 1.389 . S
C3766 H3739 0.950 . S
C3766 C3752 1.377 . S
C3766 C3765 1.373 . S
C3767 C3751 1.377 . S
C3767 C3765 1.389 . S
C3767 C3768 1.524 . S
C3768 C3767 1.524 . S
C3768 C3769 1.397 . S
C3768 C3773 1.363 . S
C3769 H3740 0.950 . S
C3769 C3768 1.397 . S
C3769 C3770 1.334 . S
C3770 H3741 0.950 . S
C3770 C3769 1.334 . S
C3770 C3771 1.287 . S
C3771 C3770 1.287 . S
C3771 C3772 1.524 . S
C3771 H3774 0.999 . S
C3772 H3742 0.950 . S
C3772 C3771 1.524 . S
C3772 C3773 1.415 . S
C3773 H3743 0.950 . S
C3773 C3768 1.363 . S
C3773 C3772 1.415 . S
H3774 C3771 0.999 . S
H3775 C3756 0.913 . S
H3776 C3794 0.951 . S
H3777 C3796 0.951 . S
H3778 C3798 0.950 . S
H3779 C3799 0.950 . S
H3780 C3801 0.950 . S
H3781 C3804 0.950 . S
H3782 C3805 0.950 . S
H3783 C3807 0.950 . S
H3784 C3808 0.950 . S
H3785 C3809 0.951 . S
H3786 C3811 0.951 . S
H3787 C3813 0.950 . S
H3788 C3814 0.950 . S
H3789 C3816 0.950 . S
H3790 C3819 0.950 . S
H3791 C3820 0.950 . S
H3792 C3822 0.950 . S
H3793 C3823 0.950 . S
C3794 H3776 0.951 . S
C3794 C3795 1.366 . S
C3794 C3796 1.388 . S
C3795 C3794 1.366 . S
C3795 C3799 1.385 . S
C3796 H3777 0.951 . S
C3796 C3794 1.388 . S
C3796 C3797 1.366 . S
C3797 C3796 1.366 . S
C3797 C3798 1.414 . S
C3797 C3800 1.499 . S
C3798 H3778 0.950 . S
C3798 C3797 1.414 . S
C3798 C3799 1.374 . S
C3799 H3779 0.950 . S
C3799 C3795 1.385 . S
C3799 C3798 1.374 . S
C3800 C3797 1.499 . S
C3800 C3801 1.373 . S
C3800 C3802 1.389 . S
C3801 H3780 0.950 . S
C3801 C3800 1.373 . S
C3801 C3817 1.377 . S
C3802 C3800 1.389 . S
C3802 C3803 1.524 . S
C3802 C3816 1.377 . S
C3803 C3802 1.524 . S
C3803 C3804 1.397 . S
C3803 C3808 1.363 . S
C3804 H3781 0.950 . S
C3804 C3803 1.397 . S
C3804 C3805 1.334 . S
C3805 H3782 0.950 . S
C3805 C3804 1.334 . S
C3805 C3806 1.287 . S
C3806 C3805 1.287 . S
C3806 C3807 1.524 . S
C3806 H3825 0.913 . S
C3807 H3783 0.950 . S
C3807 C3806 1.524 . S
C3807 C3808 1.415 . S
C3808 H3784 0.950 . S
C3808 C3803 1.363 . S
C3808 C3807 1.415 . S
C3809 H3785 0.951 . S
C3809 C3810 1.366 . S
C3809 C3811 1.388 . S
C3810 C3809 1.366 . S
C3810 C3814 1.385 . S
C3811 H3786 0.951 . S
C3811 C3809 1.388 . S
C3811 C3812 1.366 . S
C3812 C3811 1.366 . S
C3812 C3813 1.414 . S
C3812 C3815 1.499 . S
C3813 H3787 0.950 . S
C3813 C3812 1.414 . S
C3813 C3814 1.374 . S
C3814 H3788 0.950 . S
C3814 C3810 1.385 . S
C3814 C3813 1.374 . S
C3815 C3812 1.499 . S
C3815 C3816 1.373 . S
C3815 C3817 1.389 . S
C3816 H3789 0.950 . S
C3816 C3802 1.377 . S
C3816 C3815 1.373 . S
C3817 C3801 1.377 . S
C3817 C3815 1.389 . S
C3817 C3818 1.524 . S
C3818 C3817 1.524 . S
C3818 C3819 1.397 . S
C3818 C3823 1.363 . S
C3819 H3790 0.950 . S
C3819 C3818 1.397 . S
C3819 C3820 1.334 . S
C3820 H3791 0.950 . S
C3820 C3819 1.334 . S
C3820 C3821 1.287 . S
C3821 C3820 1.287 . S
C3821 C3822 1.524 . S
C3821 H3824 0.999 . S
C3822 H3792 0.950 . S
C3822 C3821 1.524 . S
C3822 C3823 1.415 . S
C3823 H3793 0.950 . S
C3823 C3818 1.363 . S
C3823 C3822 1.415 . S
H3824 C3821 0.999 . S
H3825 C3806 0.913 . S
H3826 C3844 0.951 . S
H3827 C3846 0.951 . S
H3828 C3848 0.950 . S
H3829 C3849 0.950 . S
H3830 C3851 0.950 . S
H3831 C3854 0.950 . S
H3832 C3855 0.950 . S
H3833 C3857 0.950 . S
H3834 C3858 0.950 . S
H3835 C3859 0.951 . S
H3836 C3861 0.951 . S
H3837 C3863 0.950 . S
H3838 C3864 0.950 . S
H3839 C3866 0.950 . S
H3840 C3869 0.950 . S
H3841 C3870 0.950 . S
H3842 C3872 0.950 . S
H3843 C3873 0.950 . S
C3844 H3826 0.951 . S
C3844 C3845 1.366 . S
C3844 C3846 1.388 . S
C3845 C3844 1.366 . S
C3845 C3849 1.385 . S
C3846 H3827 0.951 . S
C3846 C3844 1.388 . S
C3846 C3847 1.366 . S
C3847 C3846 1.366 . S
C3847 C3848 1.414 . S
C3847 C3850 1.499 . S
C3848 H3828 0.950 . S
C3848 C3847 1.414 . S
C3848 C3849 1.374 . S
C3849 H3829 0.950 . S
C3849 C3845 1.385 . S
C3849 C3848 1.374 . S
C3850 C3847 1.499 . S
C3850 C3851 1.373 . S
C3850 C3852 1.389 . S
C3851 H3830 0.950 . S
C3851 C3850 1.373 . S
C3851 C3867 1.377 . S
C3852 C3850 1.389 . S
C3852 C3853 1.524 . S
C3852 C3866 1.377 . S
C3853 C3852 1.524 . S
C3853 C3854 1.397 . S
C3853 C3858 1.363 . S
C3854 H3831 0.950 . S
C3854 C3853 1.397 . S
C3854 C3855 1.334 . S
C3855 H3832 0.950 . S
C3855 C3854 1.334 . S
C3855 C3856 1.287 . S
C3856 C3855 1.287 . S
C3856 C3857 1.524 . S
C3856 H3875 0.913 . S
C3857 H3833 0.950 . S
C3857 C3856 1.524 . S
C3857 C3858 1.415 . S
C3858 H3834 0.950 . S
C3858 C3853 1.363 . S
C3858 C3857 1.415 . S
C3859 H3835 0.951 . S
C3859 C3860 1.366 . S
C3859 C3861 1.388 . S
C3860 C3859 1.366 . S
C3860 C3864 1.385 . S
C3861 H3836 0.951 . S
C3861 C3859 1.388 . S
C3861 C3862 1.366 . S
C3862 C3861 1.366 . S
C3862 C3863 1.414 . S
C3862 C3865 1.499 . S
C3863 H3837 0.950 . S
C3863 C3862 1.414 . S
C3863 C3864 1.374 . S
C3864 H3838 0.950 . S
C3864 C3860 1.385 . S
C3864 C3863 1.374 . S
C3865 C3862 1.499 . S
C3865 C3866 1.373 . S
C3865 C3867 1.389 . S
C3866 H3839 0.950 . S
C3866 C3852 1.377 . S
C3866 C3865 1.373 . S
C3867 C3851 1.377 . S
C3867 C3865 1.389 . S
C3867 C3868 1.524 . S
C3868 C3867 1.524 . S
C3868 C3869 1.397 . S
C3868 C3873 1.363 . S
C3869 H3840 0.950 . S
C3869 C3868 1.397 . S
C3869 C3870 1.334 . S
C3870 H3841 0.950 . S
C3870 C3869 1.334 . S
C3870 C3871 1.287 . S
C3871 C3870 1.287 . S
C3871 C3872 1.524 . S
C3871 H3874 0.999 . S
C3872 H3842 0.950 . S
C3872 C3871 1.524 . S
C3872 C3873 1.415 . S
C3873 H3843 0.950 . S
C3873 C3868 1.363 . S
C3873 C3872 1.415 . S
H3874 C3871 0.999 . S
H3875 C3856 0.913 . S
H3876 C3894 0.951 . S
H3877 C3896 0.951 . S
H3878 C3898 0.950 . S
H3879 C3899 0.950 . S
H3880 C3901 0.950 . S
H3881 C3904 0.950 . S
H3882 C3905 0.950 . S
H3883 C3907 0.950 . S
H3884 C3908 0.950 . S
H3885 C3909 0.951 . S
H3886 C3911 0.951 . S
H3887 C3913 0.950 . S
H3888 C3914 0.950 . S
H3889 C3916 0.950 . S
H3890 C3919 0.950 . S
H3891 C3920 0.950 . S
H3892 C3922 0.950 . S
H3893 C3923 0.950 . S
C3894 H3876 0.951 . S
C3894 C3895 1.366 . S
C3894 C3896 1.388 . S
C3895 C3894 1.366 . S
C3895 C3899 1.385 . S
C3896 H3877 0.951 . S
C3896 C3894 1.388 . S
C3896 C3897 1.366 . S
C3897 C3896 1.366 . S
C3897 C3898 1.414 . S
C3897 C3900 1.499 . S
C3898 H3878 0.950 . S
C3898 C3897 1.414 . S
C3898 C3899 1.374 . S
C3899 H3879 0.950 . S
C3899 C3895 1.385 . S
C3899 C3898 1.374 . S
C3900 C3897 1.499 . S
C3900 C3901 1.373 . S
C3900 C3902 1.389 . S
C3901 H3880 0.950 . S
C3901 C3900 1.373 . S
C3901 C3917 1.377 . S
C3902 C3900 1.389 . S
C3902 C3903 1.524 . S
C3902 C3916 1.377 . S
C3903 C3902 1.524 . S
C3903 C3904 1.397 . S
C3903 C3908 1.363 . S
C3904 H3881 0.950 . S
C3904 C3903 1.397 . S
C3904 C3905 1.334 . S
C3905 H3882 0.950 . S
C3905 C3904 1.334 . S
C3905 C3906 1.287 . S
C3906 C3905 1.287 . S
C3906 C3907 1.524 . S
C3906 H3925 0.913 . S
C3907 H3883 0.950 . S
C3907 C3906 1.524 . S
C3907 C3908 1.415 . S
C3908 H3884 0.950 . S
C3908 C3903 1.363 . S
C3908 C3907 1.415 . S
C3909 H3885 0.951 . S
C3909 C3910 1.366 . S
C3909 C3911 1.388 . S
C3910 C3909 1.366 . S
C3910 C3914 1.385 . S
C3911 H3886 0.951 . S
C3911 C3909 1.388 . S
C3911 C3912 1.366 . S
C3912 C3911 1.366 . S
C3912 C3913 1.414 . S
C3912 C3915 1.499 . S
C3913 H3887 0.950 . S
C3913 C3912 1.414 . S
C3913 C3914 1.374 . S
C3914 H3888 0.950 . S
C3914 C3910 1.385 . S
C3914 C3913 1.374 . S
C3915 C3912 1.499 . S
C3915 C3916 1.373 . S
C3915 C3917 1.389 . S
C3916 H3889 0.950 . S
C3916 C3902 1.377 . S
C3916 C3915 1.373 . S
C3917 C3901 1.377 . S
C3917 C3915 1.389 . S
C3917 C3918 1.524 . S
C3918 C3917 1.524 . S
C3918 C3919 1.397 . S
C3918 C3923 1.363 . S
C3919 H3890 0.950 . S
C3919 C3918 1.397 . S
C3919 C3920 1.334 . S
C3920 H3891 0.950 . S
C3920 C3919 1.334 . S
C3920 C3921 1.287 . S
C3921 C3920 1.287 . S
C3921 C3922 1.524 . S
C3921 H3924 0.999 . S
C3922 H3892 0.950 . S
C3922 C3921 1.524 . S
C3922 C3923 1.415 . S
C3923 H3893 0.950 . S
C3923 C3918 1.363 . S
C3923 C3922 1.415 . S
H3924 C3921 0.999 . S
H3925 C3906 0.913 . S
H3926 C3944 0.951 . S
H3927 C3946 0.951 . S
H3928 C3948 0.950 . S
H3929 C3949 0.950 . S
H3930 C3951 0.950 . S
H3931 C3954 0.950 . S
H3932 C3955 0.950 . S
H3933 C3957 0.950 . S
H3934 C3958 0.950 . S
H3935 C3959 0.951 . S
H3936 C3961 0.951 . S
H3937 C3963 0.950 . S
H3938 C3964 0.950 . S
H3939 C3966 0.950 . S
H3940 C3969 0.950 . S
H3941 C3970 0.950 . S
H3942 C3972 0.950 . S
H3943 C3973 0.950 . S
C3944 H3926 0.951 . S
C3944 C3945 1.366 . S
C3944 C3946 1.388 . S
C3945 C3944 1.366 . S
C3945 C3949 1.385 . S
C3946 H3927 0.951 . S
C3946 C3944 1.388 . S
C3946 C3947 1.366 . S
C3947 C3946 1.366 . S
C3947 C3948 1.414 . S
C3947 C3950 1.499 . S
C3948 H3928 0.950 . S
C3948 C3947 1.414 . S
C3948 C3949 1.374 . S
C3949 H3929 0.950 . S
C3949 C3945 1.385 . S
C3949 C3948 1.374 . S
C3950 C3947 1.499 . S
C3950 C3951 1.373 . S
C3950 C3952 1.389 . S
C3951 H3930 0.950 . S
C3951 C3950 1.373 . S
C3951 C3967 1.377 . S
C3952 C3950 1.389 . S
C3952 C3953 1.524 . S
C3952 C3966 1.377 . S
C3953 C3952 1.524 . S
C3953 C3954 1.397 . S
C3953 C3958 1.363 . S
C3954 H3931 0.950 . S
C3954 C3953 1.397 . S
C3954 C3955 1.334 . S
C3955 H3932 0.950 . S
C3955 C3954 1.334 . S
C3955 C3956 1.287 . S
C3956 C3955 1.287 . S
C3956 C3957 1.524 . S
C3956 H3975 0.913 . S
C3957 H3933 0.950 . S
C3957 C3956 1.524 . S
C3957 C3958 1.415 . S
C3958 H3934 0.950 . S
C3958 C3953 1.363 . S
C3958 C3957 1.415 . S
C3959 H3935 0.951 . S
C3959 C3960 1.366 . S
C3959 C3961 1.388 . S
C3960 C3959 1.366 . S
C3960 C3964 1.385 . S
C3961 H3936 0.951 . S
C3961 C3959 1.388 . S
C3961 C3962 1.366 . S
C3962 C3961 1.366 . S
C3962 C3963 1.414 . S
C3962 C3965 1.499 . S
C3963 H3937 0.950 . S
C3963 C3962 1.414 . S
C3963 C3964 1.374 . S
C3964 H3938 0.950 . S
C3964 C3960 1.385 . S
C3964 C3963 1.374 . S
C3965 C3962 1.499 . S
C3965 C3966 1.373 . S
C3965 C3967 1.389 . S
C3966 H3939 0.950 . S
C3966 C3952 1.377 . S
C3966 C3965 1.373 . S
C3967 C3951 1.377 . S
C3967 C3965 1.389 . S
C3967 C3968 1.524 . S
C3968 C3967 1.524 . S
C3968 C3969 1.397 . S
C3968 C3973 1.363 . S
C3969 H3940 0.950 . S
C3969 C3968 1.397 . S
C3969 C3970 1.334 . S
C3970 H3941 0.950 . S
C3970 C3969 1.334 . S
C3970 C3971 1.287 . S
C3971 C3970 1.287 . S
C3971 C3972 1.524 . S
C3971 H3974 0.999 . S
C3972 H3942 0.950 . S
C3972 C3971 1.524 . S
C3972 C3973 1.415 . S
C3973 H3943 0.950 . S
C3973 C3968 1.363 . S
C3973 C3972 1.415 . S
H3974 C3971 0.999 . S
H3975 C3956 0.913 . S
H3976 C3994 0.951 . S
H3977 C3996 0.951 . S
H3978 C3998 0.950 . S
H3979 C3999 0.950 . S
H3980 C4001 0.950 . S
H3981 C4004 0.950 . S
H3982 C4005 0.950 . S
H3983 C4007 0.950 . S
H3984 C4008 0.950 . S
H3985 C4009 0.951 . S
H3986 C4011 0.951 . S
H3987 C4013 0.950 . S
H3988 C4014 0.950 . S
H3989 C4016 0.950 . S
H3990 C4019 0.950 . S
H3991 C4020 0.950 . S
H3992 C4022 0.950 . S
H3993 C4023 0.950 . S
C3994 H3976 0.951 . S
C3994 C3995 1.366 . S
C3994 C3996 1.388 . S
C3995 C3994 1.366 . S
C3995 C3999 1.385 . S
C3996 H3977 0.951 . S
C3996 C3994 1.388 . S
C3996 C3997 1.366 . S
C3997 C3996 1.366 . S
C3997 C3998 1.414 . S
C3997 C4000 1.499 . S
C3998 H3978 0.950 . S
C3998 C3997 1.414 . S
C3998 C3999 1.374 . S
C3999 H3979 0.950 . S
C3999 C3995 1.385 . S
C3999 C3998 1.374 . S
C4000 C3997 1.499 . S
C4000 C4001 1.373 . S
C4000 C4002 1.389 . S
C4001 H3980 0.950 . S
C4001 C4000 1.373 . S
C4001 C4017 1.377 . S
C4002 C4000 1.389 . S
C4002 C4003 1.524 . S
C4002 C4016 1.377 . S
C4003 C4002 1.524 . S
C4003 C4004 1.397 . S
C4003 C4008 1.363 . S
C4004 H3981 0.950 . S
C4004 C4003 1.397 . S
C4004 C4005 1.334 . S
C4005 H3982 0.950 . S
C4005 C4004 1.334 . S
C4005 C4006 1.287 . S
C4006 C4005 1.287 . S
C4006 C4007 1.524 . S
C4006 H4025 0.913 . S
C4007 H3983 0.950 . S
C4007 C4006 1.524 . S
C4007 C4008 1.415 . S
C4008 H3984 0.950 . S
C4008 C4003 1.363 . S
C4008 C4007 1.415 . S
C4009 H3985 0.951 . S
C4009 C4010 1.366 . S
C4009 C4011 1.388 . S
C4010 C4009 1.366 . S
C4010 C4014 1.385 . S
C4011 H3986 0.951 . S
C4011 C4009 1.388 . S
C4011 C4012 1.366 . S
C4012 C4011 1.366 . S
C4012 C4013 1.414 . S
C4012 C4015 1.499 . S
C4013 H3987 0.950 . S
C4013 C4012 1.414 . S
C4013 C4014 1.374 . S
C4014 H3988 0.950 . S
C4014 C4010 1.385 . S
C4014 C4013 1.374 . S
C4015 C4012 1.499 . S
C4015 C4016 1.373 . S
C4015 C4017 1.389 . S
C4016 H3989 0.950 . S
C4016 C4002 1.377 . S
C4016 C4015 1.373 . S
C4017 C4001 1.377 . S
C4017 C4015 1.389 . S
C4017 C4018 1.524 . S
C4018 C4017 1.524 . S
C4018 C4019 1.397 . S
C4018 C4023 1.363 . S
C4019 H3990 0.950 . S
C4019 C4018 1.397 . S
C4019 C4020 1.334 . S
C4020 H3991 0.950 . S
C4020 C4019 1.334 . S
C4020 C4021 1.287 . S
C4021 C4020 1.287 . S
C4021 C4022 1.524 . S
C4021 H4024 0.999 . S
C4022 H3992 0.950 . S
C4022 C4021 1.524 . S
C4022 C4023 1.415 . S
C4023 H3993 0.950 . S
C4023 C4018 1.363 . S
C4023 C4022 1.415 . S
H4024 C4021 0.999 . S
H4025 C4006 0.913 . S
H4026 C4044 0.951 . S
H4027 C4046 0.951 . S
H4028 C4048 0.950 . S
H4029 C4049 0.950 . S
H4030 C4051 0.950 . S
H4031 C4054 0.950 . S
H4032 C4055 0.950 . S
H4033 C4057 0.950 . S
H4034 C4058 0.950 . S
H4035 C4059 0.951 . S
H4036 C4061 0.951 . S
H4037 C4063 0.950 . S
H4038 C4064 0.950 . S
H4039 C4066 0.950 . S
H4040 C4069 0.950 . S
H4041 C4070 0.950 . S
H4042 C4072 0.950 . S
H4043 C4073 0.950 . S
C4044 H4026 0.951 . S
C4044 C4045 1.366 . S
C4044 C4046 1.388 . S
C4045 C4044 1.366 . S
C4045 C4049 1.385 . S
C4046 H4027 0.951 . S
C4046 C4044 1.388 . S
C4046 C4047 1.366 . S
C4047 C4046 1.366 . S
C4047 C4048 1.414 . S
C4047 C4050 1.499 . S
C4048 H4028 0.950 . S
C4048 C4047 1.414 . S
C4048 C4049 1.374 . S
C4049 H4029 0.950 . S
C4049 C4045 1.385 . S
C4049 C4048 1.374 . S
C4050 C4047 1.499 . S
C4050 C4051 1.373 . S
C4050 C4052 1.389 . S
C4051 H4030 0.950 . S
C4051 C4050 1.373 . S
C4051 C4067 1.377 . S
C4052 C4050 1.389 . S
C4052 C4053 1.524 . S
C4052 C4066 1.377 . S
C4053 C4052 1.524 . S
C4053 C4054 1.397 . S
C4053 C4058 1.363 . S
C4054 H4031 0.950 . S
C4054 C4053 1.397 . S
C4054 C4055 1.334 . S
C4055 H4032 0.950 . S
C4055 C4054 1.334 . S
C4055 C4056 1.287 . S
C4056 C4055 1.287 . S
C4056 C4057 1.524 . S
C4056 H4075 0.913 . S
C4057 H4033 0.950 . S
C4057 C4056 1.524 . S
C4057 C4058 1.415 . S
C4058 H4034 0.950 . S
C4058 C4053 1.363 . S
C4058 C4057 1.415 . S
C4059 H4035 0.951 . S
C4059 C4060 1.366 . S
C4059 C4061 1.388 . S
C4060 C4059 1.366 . S
C4060 C4064 1.385 . S
C4061 H4036 0.951 . S
C4061 C4059 1.388 . S
C4061 C4062 1.366 . S
C4062 C4061 1.366 . S
C4062 C4063 1.414 . S
C4062 C4065 1.499 . S
C4063 H4037 0.950 . S
C4063 C4062 1.414 . S
C4063 C4064 1.374 . S
C4064 H4038 0.950 . S
C4064 C4060 1.385 . S
C4064 C4063 1.374 . S
C4065 C4062 1.499 . S
C4065 C4066 1.373 . S
C4065 C4067 1.389 . S
C4066 H4039 0.950 . S
C4066 C4052 1.377 . S
C4066 C4065 1.373 . S
C4067 C4051 1.377 . S
C4067 C4065 1.389 . S
C4067 C4068 1.524 . S
C4068 C4067 1.524 . S
C4068 C4069 1.397 . S
C4068 C4073 1.363 . S
C4069 H4040 0.950 . S
C4069 C4068 1.397 . S
C4069 C4070 1.334 . S
C4070 H4041 0.950 . S
C4070 C4069 1.334 . S
C4070 C4071 1.287 . S
C4071 C4070 1.287 . S
C4071 C4072 1.524 . S
C4071 H4074 0.999 . S
C4072 H4042 0.950 . S
C4072 C4071 1.524 . S
C4072 C4073 1.415 . S
C4073 H4043 0.950 . S
C4073 C4068 1.363 . S
C4073 C4072 1.415 . S
H4074 C4071 0.999 . S
H4075 C4056 0.913 . S
H4076 C4094 0.951 . S
H4077 C4096 0.951 . S
H4078 C4098 0.950 . S
H4079 C4099 0.950 . S
H4080 C4101 0.950 . S
H4081 C4104 0.950 . S
H4082 C4105 0.950 . S
H4083 C4107 0.950 . S
H4084 C4108 0.950 . S
H4085 C4109 0.951 . S
H4086 C4111 0.951 . S
H4087 C4113 0.950 . S
H4088 C4114 0.950 . S
H4089 C4116 0.950 . S
H4090 C4119 0.950 . S
H4091 C4120 0.950 . S
H4092 C4122 0.950 . S
H4093 C4123 0.950 . S
C4094 H4076 0.951 . S
C4094 C4095 1.366 . S
C4094 C4096 1.388 . S
C4095 C4094 1.366 . S
C4095 C4099 1.385 . S
C4096 H4077 0.951 . S
C4096 C4094 1.388 . S
C4096 C4097 1.366 . S
C4097 C4096 1.366 . S
C4097 C4098 1.414 . S
C4097 C4100 1.499 . S
C4098 H4078 0.950 . S
C4098 C4097 1.414 . S
C4098 C4099 1.374 . S
C4099 H4079 0.950 . S
C4099 C4095 1.385 . S
C4099 C4098 1.374 . S
C4100 C4097 1.499 . S
C4100 C4101 1.373 . S
C4100 C4102 1.389 . S
C4101 H4080 0.950 . S
C4101 C4100 1.373 . S
C4101 C4117 1.377 . S
C4102 C4100 1.389 . S
C4102 C4103 1.524 . S
C4102 C4116 1.377 . S
C4103 C4102 1.524 . S
C4103 C4104 1.397 . S
C4103 C4108 1.363 . S
C4104 H4081 0.950 . S
C4104 C4103 1.397 . S
C4104 C4105 1.334 . S
C4105 H4082 0.950 . S
C4105 C4104 1.334 . S
C4105 C4106 1.287 . S
C4106 C4105 1.287 . S
C4106 C4107 1.524 . S
C4106 H4125 0.913 . S
C4107 H4083 0.950 . S
C4107 C4106 1.524 . S
C4107 C4108 1.415 . S
C4108 H4084 0.950 . S
C4108 C4103 1.363 . S
C4108 C4107 1.415 . S
C4109 H4085 0.951 . S
C4109 C4110 1.366 . S
C4109 C4111 1.388 . S
C4110 C4109 1.366 . S
C4110 C4114 1.385 . S
C4111 H4086 0.951 . S
C4111 C4109 1.388 . S
C4111 C4112 1.366 . S
C4112 C4111 1.366 . S
C4112 C4113 1.414 . S
C4112 C4115 1.499 . S
C4113 H4087 0.950 . S
C4113 C4112 1.414 . S
C4113 C4114 1.374 . S
C4114 H4088 0.950 . S
C4114 C4110 1.385 . S
C4114 C4113 1.374 . S
C4115 C4112 1.499 . S
C4115 C4116 1.373 . S
C4115 C4117 1.389 . S
C4116 H4089 0.950 . S
C4116 C4102 1.377 . S
C4116 C4115 1.373 . S
C4117 C4101 1.377 . S
C4117 C4115 1.389 . S
C4117 C4118 1.524 . S
C4118 C4117 1.524 . S
C4118 C4119 1.397 . S
C4118 C4123 1.363 . S
C4119 H4090 0.950 . S
C4119 C4118 1.397 . S
C4119 C4120 1.334 . S
C4120 H4091 0.950 . S
C4120 C4119 1.334 . S
C4120 C4121 1.287 . S
C4121 C4120 1.287 . S
C4121 C4122 1.524 . S
C4121 H4124 0.999 . S
C4122 H4092 0.950 . S
C4122 C4121 1.524 . S
C4122 C4123 1.415 . S
C4123 H4093 0.950 . S
C4123 C4118 1.363 . S
C4123 C4122 1.415 . S
H4124 C4121 0.999 . S
H4125 C4106 0.913 . S
H4126 C4144 0.951 . S
H4127 C4146 0.951 . S
H4128 C4148 0.950 . S
H4129 C4149 0.950 . S
H4130 C4151 0.950 . S
H4131 C4154 0.950 . S
H4132 C4155 0.950 . S
H4133 C4157 0.950 . S
H4134 C4158 0.950 . S
H4135 C4159 0.951 . S
H4136 C4161 0.951 . S
H4137 C4163 0.950 . S
H4138 C4164 0.950 . S
H4139 C4166 0.950 . S
H4140 C4169 0.950 . S
H4141 C4170 0.950 . S
H4142 C4172 0.950 . S
H4143 C4173 0.950 . S
C4144 H4126 0.951 . S
C4144 C4145 1.366 . S
C4144 C4146 1.388 . S
C4145 C4144 1.366 . S
C4145 C4149 1.385 . S
C4146 H4127 0.951 . S
C4146 C4144 1.388 . S
C4146 C4147 1.366 . S
C4147 C4146 1.366 . S
C4147 C4148 1.414 . S
C4147 C4150 1.499 . S
C4148 H4128 0.950 . S
C4148 C4147 1.414 . S
C4148 C4149 1.374 . S
C4149 H4129 0.950 . S
C4149 C4145 1.385 . S
C4149 C4148 1.374 . S
C4150 C4147 1.499 . S
C4150 C4151 1.373 . S
C4150 C4152 1.389 . S
C4151 H4130 0.950 . S
C4151 C4150 1.373 . S
C4151 C4167 1.377 . S
C4152 C4150 1.389 . S
C4152 C4153 1.524 . S
C4152 C4166 1.377 . S
C4153 C4152 1.524 . S
C4153 C4154 1.397 . S
C4153 C4158 1.363 . S
C4154 H4131 0.950 . S
C4154 C4153 1.397 . S
C4154 C4155 1.334 . S
C4155 H4132 0.950 . S
C4155 C4154 1.334 . S
C4155 C4156 1.287 . S
C4156 C4155 1.287 . S
C4156 C4157 1.524 . S
C4156 H4175 0.913 . S
C4157 H4133 0.950 . S
C4157 C4156 1.524 . S
C4157 C4158 1.415 . S
C4158 H4134 0.950 . S
C4158 C4153 1.363 . S
C4158 C4157 1.415 . S
C4159 H4135 0.951 . S
C4159 C4160 1.366 . S
C4159 C4161 1.388 . S
C4160 C4159 1.366 . S
C4160 C4164 1.385 . S
C4161 H4136 0.951 . S
C4161 C4159 1.388 . S
C4161 C4162 1.366 . S
C4162 C4161 1.366 . S
C4162 C4163 1.414 . S
C4162 C4165 1.499 . S
C4163 H4137 0.950 . S
C4163 C4162 1.414 . S
C4163 C4164 1.374 . S
C4164 H4138 0.950 . S
C4164 C4160 1.385 . S
C4164 C4163 1.374 . S
C4165 C4162 1.499 . S
C4165 C4166 1.373 . S
C4165 C4167 1.389 . S
C4166 H4139 0.950 . S
C4166 C4152 1.377 . S
C4166 C4165 1.373 . S
C4167 C4151 1.377 . S
C4167 C4165 1.389 . S
C4167 C4168 1.524 . S
C4168 C4167 1.524 . S
C4168 C4169 1.397 . S
C4168 C4173 1.363 . S
C4169 H4140 0.950 . S
C4169 C4168 1.397 . S
C4169 C4170 1.334 . S
C4170 H4141 0.950 . S
C4170 C4169 1.334 . S
C4170 C4171 1.287 . S
C4171 C4170 1.287 . S
C4171 C4172 1.524 . S
C4171 H4174 0.999 . S
C4172 H4142 0.950 . S
C4172 C4171 1.524 . S
C4172 C4173 1.415 . S
C4173 H4143 0.950 . S
C4173 C4168 1.363 . S
C4173 C4172 1.415 . S
H4174 C4171 0.999 . S
H4175 C4156 0.913 . S
H4176 C4194 0.951 . S
H4177 C4196 0.951 . S
H4178 C4198 0.950 . S
H4179 C4199 0.950 . S
H4180 C4201 0.950 . S
H4181 C4204 0.950 . S
H4182 C4205 0.950 . S
H4183 C4207 0.950 . S
H4184 C4208 0.950 . S
H4185 C4209 0.951 . S
H4186 C4211 0.951 . S
H4187 C4213 0.950 . S
H4188 C4214 0.950 . S
H4189 C4216 0.950 . S
H4190 C4219 0.950 . S
H4191 C4220 0.950 . S
H4192 C4222 0.950 . S
H4193 C4223 0.950 . S
C4194 H4176 0.951 . S
C4194 C4195 1.366 . S
C4194 C4196 1.388 . S
C4195 C4194 1.366 . S
C4195 C4199 1.385 . S
C4196 H4177 0.951 . S
C4196 C4194 1.388 . S
C4196 C4197 1.366 . S
C4197 C4196 1.366 . S
C4197 C4198 1.414 . S
C4197 C4200 1.499 . S
C4198 H4178 0.950 . S
C4198 C4197 1.414 . S
C4198 C4199 1.374 . S
C4199 H4179 0.950 . S
C4199 C4195 1.385 . S
C4199 C4198 1.374 . S
C4200 C4197 1.499 . S
C4200 C4201 1.373 . S
C4200 C4202 1.389 . S
C4201 H4180 0.950 . S
C4201 C4200 1.373 . S
C4201 C4217 1.377 . S
C4202 C4200 1.389 . S
C4202 C4203 1.524 . S
C4202 C4216 1.377 . S
C4203 C4202 1.524 . S
C4203 C4204 1.397 . S
C4203 C4208 1.363 . S
C4204 H4181 0.950 . S
C4204 C4203 1.397 . S
C4204 C4205 1.334 . S
C4205 H4182 0.950 . S
C4205 C4204 1.334 . S
C4205 C4206 1.287 . S
C4206 C4205 1.287 . S
C4206 C4207 1.524 . S
C4206 H4225 0.913 . S
C4207 H4183 0.950 . S
C4207 C4206 1.524 . S
C4207 C4208 1.415 . S
C4208 H4184 0.950 . S
C4208 C4203 1.363 . S
C4208 C4207 1.415 . S
C4209 H4185 0.951 . S
C4209 C4210 1.366 . S
C4209 C4211 1.388 . S
C4210 C4209 1.366 . S
C4210 C4214 1.385 . S
C4211 H4186 0.951 . S
C4211 C4209 1.388 . S
C4211 C4212 1.366 . S
C4212 C4211 1.366 . S
C4212 C4213 1.414 . S
C4212 C4215 1.499 . S
C4213 H4187 0.950 . S
C4213 C4212 1.414 . S
C4213 C4214 1.374 . S
C4214 H4188 0.950 . S
C4214 C4210 1.385 . S
C4214 C4213 1.374 . S
C4215 C4212 1.499 . S
C4215 C4216 1.373 . S
C4215 C4217 1.389 . S
C4216 H4189 0.950 . S
C4216 C4202 1.377 . S
C4216 C4215 1.373 . S
C4217 C4201 1.377 . S
C4217 C4215 1.389 . S
C4217 C4218 1.524 . S
C4218 C4217 1.524 . S
C4218 C4219 1.397 . S
C4218 C4223 1.363 . S
C4219 H4190 0.950 . S
C4219 C4218 1.397 . S
C4219 C4220 1.334 . S
C4220 H4191 0.950 . S
C4220 C4219 1.334 . S
C4220 C4221 1.287 . S
C4221 C4220 1.287 . S
C4221 C4222 1.524 . S
C4221 H4224 0.999 . S
C4222 H4192 0.950 . S
C4222 C4221 1.524 . S
C4222 C4223 1.415 . S
C4223 H4193 0.950 . S
C4223 C4218 1.363 . S
C4223 C4222 1.415 . S
H4224 C4221 0.999 . S
H4225 C4206 0.913 . S
H4226 C4244 0.951 . S
H4227 C4246 0.951 . S
H4228 C4248 0.950 . S
H4229 C4249 0.950 . S
H4230 C4251 0.950 . S
H4231 C4254 0.950 . S
H4232 C4255 0.950 . S
H4233 C4257 0.950 . S
H4234 C4258 0.950 . S
H4235 C4259 0.951 . S
H4236 C4261 0.951 . S
H4237 C4263 0.950 . S
H4238 C4264 0.950 . S
H4239 C4266 0.950 . S
H4240 C4269 0.950 . S
H4241 C4270 0.950 . S
H4242 C4272 0.950 . S
H4243 C4273 0.950 . S
C4244 H4226 0.951 . S
C4244 C4245 1.366 . S
C4244 C4246 1.388 . S
C4245 C4244 1.366 . S
C4245 C4249 1.385 . S
C4246 H4227 0.951 . S
C4246 C4244 1.388 . S
C4246 C4247 1.366 . S
C4247 C4246 1.366 . S
C4247 C4248 1.414 . S
C4247 C4250 1.499 . S
C4248 H4228 0.950 . S
C4248 C4247 1.414 . S
C4248 C4249 1.374 . S
C4249 H4229 0.950 . S
C4249 C4245 1.385 . S
C4249 C4248 1.374 . S
C4250 C4247 1.499 . S
C4250 C4251 1.373 . S
C4250 C4252 1.389 . S
C4251 H4230 0.950 . S
C4251 C4250 1.373 . S
C4251 C4267 1.377 . S
C4252 C4250 1.389 . S
C4252 C4253 1.524 . S
C4252 C4266 1.377 . S
C4253 C4252 1.524 . S
C4253 C4254 1.397 . S
C4253 C4258 1.363 . S
C4254 H4231 0.950 . S
C4254 C4253 1.397 . S
C4254 C4255 1.334 . S
C4255 H4232 0.950 . S
C4255 C4254 1.334 . S
C4255 C4256 1.287 . S
C4256 C4255 1.287 . S
C4256 C4257 1.524 . S
C4256 H4275 0.913 . S
C4257 H4233 0.950 . S
C4257 C4256 1.524 . S
C4257 C4258 1.415 . S
C4258 H4234 0.950 . S
C4258 C4253 1.363 . S
C4258 C4257 1.415 . S
C4259 H4235 0.951 . S
C4259 C4260 1.366 . S
C4259 C4261 1.388 . S
C4260 C4259 1.366 . S
C4260 C4264 1.385 . S
C4261 H4236 0.951 . S
C4261 C4259 1.388 . S
C4261 C4262 1.366 . S
C4262 C4261 1.366 . S
C4262 C4263 1.414 . S
C4262 C4265 1.499 . S
C4263 H4237 0.950 . S
C4263 C4262 1.414 . S
C4263 C4264 1.374 . S
C4264 H4238 0.950 . S
C4264 C4260 1.385 . S
C4264 C4263 1.374 . S
C4265 C4262 1.499 . S
C4265 C4266 1.373 . S
C4265 C4267 1.389 . S
C4266 H4239 0.950 . S
C4266 C4252 1.377 . S
C4266 C4265 1.373 . S
C4267 C4251 1.377 . S
C4267 C4265 1.389 . S
C4267 C4268 1.524 . S
C4268 C4267 1.524 . S
C4268 C4269 1.397 . S
C4268 C4273 1.363 . S
C4269 H4240 0.950 . S
C4269 C4268 1.397 . S
C4269 C4270 1.334 . S
C4270 H4241 0.950 . S
C4270 C4269 1.334 . S
C4270 C4271 1.287 . S
C4271 C4270 1.287 . S
C4271 C4272 1.524 . S
C4271 H4274 0.999 . S
C4272 H4242 0.950 . S
C4272 C4271 1.524 . S
C4272 C4273 1.415 . S
C4273 H4243 0.950 . S
C4273 C4268 1.363 . S
C4273 C4272 1.415 . S
H4274 C4271 0.999 . S
H4275 C4256 0.913 . S
H4276 C4294 0.951 . S
H4277 C4296 0.951 . S
H4278 C4298 0.950 . S
H4279 C4299 0.950 . S
H4280 C4301 0.950 . S
H4281 C4304 0.950 . S
H4282 C4305 0.950 . S
H4283 C4307 0.950 . S
H4284 C4308 0.950 . S
H4285 C4309 0.951 . S
H4286 C4311 0.951 . S
H4287 C4313 0.950 . S
H4288 C4314 0.950 . S
H4289 C4316 0.950 . S
H4290 C4319 0.950 . S
H4291 C4320 0.950 . S
H4292 C4322 0.950 . S
H4293 C4323 0.950 . S
C4294 H4276 0.951 . S
C4294 C4295 1.366 . S
C4294 C4296 1.388 . S
C4295 C4294 1.366 . S
C4295 C4299 1.385 . S
C4296 H4277 0.951 . S
C4296 C4294 1.388 . S
C4296 C4297 1.366 . S
C4297 C4296 1.366 . S
C4297 C4298 1.414 . S
C4297 C4300 1.499 . S
C4298 H4278 0.950 . S
C4298 C4297 1.414 . S
C4298 C4299 1.374 . S
C4299 H4279 0.950 . S
C4299 C4295 1.385 . S
C4299 C4298 1.374 . S
C4300 C4297 1.499 . S
C4300 C4301 1.373 . S
C4300 C4302 1.389 . S
C4301 H4280 0.950 . S
C4301 C4300 1.373 . S
C4301 C4317 1.377 . S
C4302 C4300 1.389 . S
C4302 C4303 1.524 . S
C4302 C4316 1.377 . S
C4303 C4302 1.524 . S
C4303 C4304 1.397 . S
C4303 C4308 1.363 . S
C4304 H4281 0.950 . S
C4304 C4303 1.397 . S
C4304 C4305 1.334 . S
C4305 H4282 0.950 . S
C4305 C4304 1.334 . S
C4305 C4306 1.287 . S
C4306 C4305 1.287 . S
C4306 C4307 1.524 . S
C4306 H4325 0.913 . S
C4307 H4283 0.950 . S
C4307 C4306 1.524 . S
C4307 C4308 1.415 . S
C4308 H4284 0.950 . S
C4308 C4303 1.363 . S
C4308 C4307 1.415 . S
C4309 H4285 0.951 . S
C4309 C4310 1.366 . S
C4309 C4311 1.388 . S
C4310 C4309 1.366 . S
C4310 C4314 1.385 . S
C4311 H4286 0.951 . S
C4311 C4309 1.388 . S
C4311 C4312 1.366 . S
C4312 C4311 1.366 . S
C4312 C4313 1.414 . S
C4312 C4315 1.499 . S
C4313 H4287 0.950 . S
C4313 C4312 1.414 . S
C4313 C4314 1.374 . S
C4314 H4288 0.950 . S
C4314 C4310 1.385 . S
C4314 C4313 1.374 . S
C4315 C4312 1.499 . S
C4315 C4316 1.373 . S
C4315 C4317 1.389 . S
C4316 H4289 0.950 . S
C4316 C4302 1.377 . S
C4316 C4315 1.373 . S
C4317 C4301 1.377 . S
C4317 C4315 1.389 . S
C4317 C4318 1.524 . S
C4318 C4317 1.524 . S
C4318 C4319 1.397 . S
C4318 C4323 1.363 . S
C4319 H4290 0.950 . S
C4319 C4318 1.397 . S
C4319 C4320 1.334 . S
C4320 H4291 0.950 . S
C4320 C4319 1.334 . S
C4320 C4321 1.287 . S
C4321 C4320 1.287 . S
C4321 C4322 1.524 . S
C4321 H4324 0.999 . S
C4322 H4292 0.950 . S
C4322 C4321 1.524 . S
C4322 C4323 1.415 . S
C4323 H4293 0.950 . S
C4323 C4318 1.363 . S
C4323 C4322 1.415 . S
H4324 C4321 0.999 . S
H4325 C4306 0.913 . S
H4326 C4344 0.951 . S
H4327 C4346 0.951 . S
H4328 C4348 0.950 . S
H4329 C4349 0.950 . S
H4330 C4351 0.950 . S
H4331 C4354 0.950 . S
H4332 C4355 0.950 . S
H4333 C4357 0.950 1_545 S
H4334 C4358 0.950 1_545 S
H4335 C4359 0.951 1_565 S
H4336 C4361 0.951 . S
H4337 C4363 0.950 . S
H4338 C4364 0.950 . S
H4339 C4366 0.990 . S
H4340 C4369 0.970 . S
H4341 C4370 0.950 . S
H4342 C4372 0.950 . S
H4343 C4373 0.950 . S
C4344 H4326 0.951 . S
C4344 C4345 1.366 . S
C4344 C4346 1.388 . S
C4345 C4344 1.366 . S
C4345 C4349 1.385 . S
C4346 H4327 0.951 . S
C4346 C4344 1.388 . S
C4346 C4347 1.366 . S
C4347 C4346 1.366 . S
C4347 C4348 1.414 . S
C4347 C4350 1.499 . S
C4348 H4328 0.950 . S
C4348 C4347 1.414 . S
C4348 C4349 1.374 . S
C4349 H4329 0.950 . S
C4349 C4345 1.385 . S
C4349 C4348 1.374 . S
C4350 C4347 1.499 . S
C4350 C4351 1.373 . S
C4350 C4352 1.389 1_554 S
C4351 H4330 0.950 . S
C4351 C4350 1.373 . S
C4351 C4367 1.377 . S
C4352 C4350 1.389 1_556 S
C4352 C4353 1.524 . S
C4352 C4366 1.377 . S
C4353 C4352 1.524 . S
C4353 C4354 1.397 . S
C4353 C4358 1.363 . S
C4354 H4331 0.950 . S
C4354 C4353 1.397 . S
C4354 C4355 1.334 . S
C4355 H4332 0.950 . S
C4355 C4354 1.334 . S
C4355 C4356 1.287 . S
C4356 C4355 1.287 . S
C4356 C4357 1.524 . S
C4356 H4375 0.913 . S
C4357 H4333 0.950 1_565 S
C4357 C4356 1.524 . S
C4357 C4358 1.415 . S
C4358 H4334 0.950 1_565 S
C4358 C4353 1.363 . S
C4358 C4357 1.415 . S
C4359 H4335 0.951 1_545 S
C4359 C4360 1.366 . S
C4359 C4361 1.388 1_545 S
C4360 C4359 1.366 . S
C4360 C4364 1.385 . S
C4361 H4336 0.951 . S
C4361 C4359 1.388 1_565 S
C4361 C4362 1.366 1_565 S
C4362 C4361 1.366 1_545 S
C4362 C4363 1.414 . S
C4362 C4365 1.499 1_545 S
C4363 H4337 0.950 . S
C4363 C4362 1.414 . S
C4363 C4364 1.374 . S
C4364 H4338 0.950 . S
C4364 C4360 1.385 . S
C4364 C4363 1.374 . S
C4365 C4362 1.499 1_565 S
C4365 C4366 1.373 1_554 S
C4365 C4367 1.389 . S
C4366 H4339 0.990 . S
C4366 C4352 1.377 . S
C4366 C4365 1.373 1_556 S
C4367 C4351 1.377 . S
C4367 C4365 1.389 . S
C4367 C4368 1.524 . S
C4368 C4367 1.524 . S
C4368 C4369 1.381 1_565 S
C4368 C4373 1.363 . S
C4369 H4340 0.970 . S
C4369 C4368 1.381 1_545 S
C4369 C4370 1.330 . S
C4370 H4341 0.950 . S
C4370 C4369 1.330 . S
C4370 C4371 1.287 1_545 S
C4371 C4370 1.287 1_565 S
C4371 C4372 1.524 . S
C4371 H4374 0.999 . S
C4372 H4342 0.950 . S
C4372 C4371 1.524 . S
C4372 C4373 1.415 . S
C4373 H4343 0.950 . S
C4373 C4368 1.363 . S
C4373 C4372 1.415 . S
H4374 C4371 0.999 . S
H4375 C4356 0.913 . S
H4376 C4394 0.951 . S
H4377 C4396 0.951 . S
H4378 C4398 0.950 . S
H4379 C4399 0.950 . S
H4380 C4401 0.950 . S
H4381 C4404 0.950 . S
H4382 C4405 0.950 . S
H4383 C4407 0.950 . S
H4384 C4408 0.950 . S
H4385 C4409 0.951 . S
H4386 C4411 0.951 . S
H4387 C4413 0.950 . S
H4388 C4414 0.950 . S
H4389 C4416 0.950 . S
H4390 C4419 0.950 . S
H4391 C4420 0.950 . S
H4392 C4422 0.950 . S
H4393 C4423 0.950 . S
C4394 H4376 0.951 . S
C4394 C4395 1.366 . S
C4394 C4396 1.388 . S
C4395 C4394 1.366 . S
C4395 C4399 1.385 . S
C4396 H4377 0.951 . S
C4396 C4394 1.388 . S
C4396 C4397 1.366 . S
C4397 C4396 1.366 . S
C4397 C4398 1.414 . S
C4397 C4400 1.499 . S
C4398 H4378 0.950 . S
C4398 C4397 1.414 . S
C4398 C4399 1.374 . S
C4399 H4379 0.950 . S
C4399 C4395 1.385 . S
C4399 C4398 1.374 . S
C4400 C4397 1.499 . S
C4400 C4401 1.373 . S
C4400 C4402 1.389 . S
C4401 H4380 0.950 . S
C4401 C4400 1.373 . S
C4401 C4417 1.377 . S
C4402 C4400 1.389 . S
C4402 C4403 1.524 . S
C4402 C4416 1.377 . S
C4403 C4402 1.524 . S
C4403 C4404 1.397 . S
C4403 C4408 1.363 . S
C4404 H4381 0.950 . S
C4404 C4403 1.397 . S
C4404 C4405 1.334 . S
C4405 H4382 0.950 . S
C4405 C4404 1.334 . S
C4405 C4406 1.287 . S
C4406 C4405 1.287 . S
C4406 C4407 1.524 . S
C4406 H4425 0.913 . S
C4407 H4383 0.950 . S
C4407 C4406 1.524 . S
C4407 C4408 1.415 . S
C4408 H4384 0.950 . S
C4408 C4403 1.363 . S
C4408 C4407 1.415 . S
C4409 H4385 0.951 . S
C4409 C4410 1.366 . S
C4409 C4411 1.388 . S
C4410 C4409 1.366 . S
C4410 C4414 1.385 . S
C4411 H4386 0.951 . S
C4411 C4409 1.388 . S
C4411 C4412 1.366 . S
C4412 C4411 1.366 . S
C4412 C4413 1.414 . S
C4412 C4415 1.499 . S
C4413 H4387 0.950 . S
C4413 C4412 1.414 . S
C4413 C4414 1.374 . S
C4414 H4388 0.950 . S
C4414 C4410 1.385 . S
C4414 C4413 1.374 . S
C4415 C4412 1.499 . S
C4415 C4416 1.373 . S
C4415 C4417 1.389 . S
C4416 H4389 0.950 . S
C4416 C4402 1.377 . S
C4416 C4415 1.373 . S
C4417 C4401 1.377 . S
C4417 C4415 1.389 . S
C4417 C4418 1.524 . S
C4418 C4417 1.524 . S
C4418 C4419 1.397 . S
C4418 C4423 1.363 . S
C4419 H4390 0.950 . S
C4419 C4418 1.397 . S
C4419 C4420 1.334 . S
C4420 H4391 0.950 . S
C4420 C4419 1.334 . S
C4420 C4421 1.287 . S
C4421 C4420 1.287 . S
C4421 C4422 1.524 . S
C4421 H4424 0.999 . S
C4422 H4392 0.950 . S
C4422 C4421 1.524 . S
C4422 C4423 1.415 . S
C4423 H4393 0.950 . S
C4423 C4418 1.363 . S
C4423 C4422 1.415 . S
H4424 C4421 0.999 . S
H4425 C4406 0.913 . S
H4426 C4444 0.951 . S
H4427 C4446 0.937 1_556 S
H4428 C4448 0.950 . S
H4429 C4449 0.950 . S
H4430 C4451 0.950 . S
H4431 C4454 0.950 . S
H4432 C4455 0.950 . S
H4433 C4457 0.950 . S
H4434 C4458 0.950 . S
H4435 C4459 0.951 . S
H4436 C4461 0.951 . S
H4437 C4463 0.950 . S
H4438 C4464 0.950 . S
H4439 C4466 0.950 1_556 S
H4440 C4469 0.950 . S
H4441 C4470 0.950 . S
H4442 C4472 0.950 . S
H4443 C4473 0.950 . S
C4444 H4426 0.951 . S
C4444 C4445 1.366 1_556 S
C4444 C4446 1.384 1_556 S
C4445 C4444 1.366 1_554 S
C4445 C4449 1.385 . S
C4446 H4427 0.937 1_554 S
C4446 C4444 1.384 1_554 S
C4446 C4447 1.383 . S
C4447 C4446 1.383 . S
C4447 C4448 1.414 . S
C4447 C4450 1.499 . S
C4448 H4428 0.950 . S
C4448 C4447 1.414 . S
C4448 C4449 1.374 . S
C4449 H4429 0.950 . S
C4449 C4445 1.385 . S
C4449 C4448 1.374 . S
C4450 C4447 1.499 . S
C4450 C4451 1.373 . S
C4450 C4452 1.389 . S
C4451 H4430 0.950 . S
C4451 C4450 1.373 . S
C4451 C4467 1.377 . S
C4452 C4450 1.389 . S
C4452 C4453 1.524 1_554 S
C4452 C4466 1.377 . S
C4453 C4452 1.524 1_556 S
C4453 C4454 1.397 . S
C4453 C4458 1.363 . S
C4454 H4431 0.950 . S
C4454 C4453 1.397 . S
C4454 C4455 1.334 . S
C4455 H4432 0.950 . S
C4455 C4454 1.334 . S
C4455 C4456 1.287 . S
C4456 C4455 1.287 . S
C4456 C4457 1.524 . S
C4456 H4475 0.913 . S
C4457 H4433 0.950 . S
C4457 C4456 1.524 . S
C4457 C4458 1.415 . S
C4458 H4434 0.950 . S
C4458 C4453 1.363 . S
C4458 C4457 1.415 . S
C4459 H4435 0.951 . S
C4459 C4460 1.366 . S
C4459 C4461 1.388 . S
C4460 C4459 1.366 . S
C4460 C4464 1.385 . S
C4461 H4436 0.951 . S
C4461 C4459 1.388 . S
C4461 C4462 1.366 . S
C4462 C4461 1.366 . S
C4462 C4463 1.414 . S
C4462 C4465 1.499 . S
C4463 H4437 0.950 . S
C4463 C4462 1.414 . S
C4463 C4464 1.374 . S
C4464 H4438 0.950 . S
C4464 C4460 1.385 . S
C4464 C4463 1.374 . S
C4465 C4462 1.499 . S
C4465 C4466 1.373 . S
C4465 C4467 1.389 . S
C4466 H4439 0.950 1_554 S
C4466 C4452 1.377 . S
C4466 C4465 1.373 . S
C4467 C4451 1.377 . S
C4467 C4465 1.389 . S
C4467 C4468 1.524 . S
C4468 C4467 1.524 . S
C4468 C4469 1.397 . S
C4468 C4473 1.363 . S
C4469 H4440 0.950 . S
C4469 C4468 1.397 . S
C4469 C4470 1.334 . S
C4470 H4441 0.950 . S
C4470 C4469 1.334 . S
C4470 C4471 1.287 . S
C4471 C4470 1.287 . S
C4471 C4472 1.524 . S
C4471 H4474 0.999 . S
C4472 H4442 0.950 . S
C4472 C4471 1.524 . S
C4472 C4473 1.415 . S
C4473 H4443 0.950 . S
C4473 C4468 1.363 . S
C4473 C4472 1.415 . S
H4474 C4471 0.999 . S
H4475 C4456 0.913 . S
H4476 C4494 0.951 . S
H4477 C4496 0.951 . S
H4478 C4498 0.950 . S
H4479 C4499 0.950 . S
H4480 C4501 0.950 . S
H4481 C4504 0.950 . S
H4482 C4505 0.950 . S
H4483 C4507 0.950 . S
H4484 C4508 0.950 . S
H4485 C4509 0.951 . S
H4486 C4511 0.951 . S
H4487 C4513 0.950 . S
H4488 C4514 0.950 . S
H4489 C4516 0.950 . S
H4490 C4519 0.950 . S
H4491 C4520 0.950 . S
H4492 C4522 0.950 . S
H4493 C4523 0.950 . S
C4494 H4476 0.951 . S
C4494 C4495 1.366 . S
C4494 C4496 1.388 . S
C4495 C4494 1.366 . S
C4495 C4499 1.385 . S
C4496 H4477 0.951 . S
C4496 C4494 1.388 . S
C4496 C4497 1.366 . S
C4497 C4496 1.366 . S
C4497 C4498 1.414 . S
C4497 C4500 1.499 . S
C4498 H4478 0.950 . S
C4498 C4497 1.414 . S
C4498 C4499 1.374 . S
C4499 H4479 0.950 . S
C4499 C4495 1.385 . S
C4499 C4498 1.374 . S
C4500 C4497 1.499 . S
C4500 C4501 1.373 . S
C4500 C4502 1.389 . S
C4501 H4480 0.950 . S
C4501 C4500 1.373 . S
C4501 C4517 1.377 . S
C4502 C4500 1.389 . S
C4502 C4503 1.524 . S
C4502 C4516 1.377 . S
C4503 C4502 1.524 . S
C4503 C4504 1.397 . S
C4503 C4508 1.363 . S
C4504 H4481 0.950 . S
C4504 C4503 1.397 . S
C4504 C4505 1.334 . S
C4505 H4482 0.950 . S
C4505 C4504 1.334 . S
C4505 C4506 1.287 . S
C4506 C4505 1.287 . S
C4506 C4507 1.524 . S
C4506 H4525 0.913 . S
C4507 H4483 0.950 . S
C4507 C4506 1.524 . S
C4507 C4508 1.415 . S
C4508 H4484 0.950 . S
C4508 C4503 1.363 . S
C4508 C4507 1.415 . S
C4509 H4485 0.951 . S
C4509 C4510 1.366 . S
C4509 C4511 1.388 . S
C4510 C4509 1.366 . S
C4510 C4514 1.385 . S
C4511 H4486 0.951 . S
C4511 C4509 1.388 . S
C4511 C4512 1.366 . S
C4512 C4511 1.366 . S
C4512 C4513 1.414 . S
C4512 C4515 1.499 . S
C4513 H4487 0.950 . S
C4513 C4512 1.414 . S
C4513 C4514 1.374 . S
C4514 H4488 0.950 . S
C4514 C4510 1.385 . S
C4514 C4513 1.374 . S
C4515 C4512 1.499 . S
C4515 C4516 1.373 . S
C4515 C4517 1.389 . S
C4516 H4489 0.950 . S
C4516 C4502 1.377 . S
C4516 C4515 1.373 . S
C4517 C4501 1.377 . S
C4517 C4515 1.389 . S
C4517 C4518 1.524 . S
C4518 C4517 1.524 . S
C4518 C4519 1.397 . S
C4518 C4523 1.363 . S
C4519 H4490 0.950 . S
C4519 C4518 1.397 . S
C4519 C4520 1.334 . S
C4520 H4491 0.950 . S
C4520 C4519 1.334 . S
C4520 C4521 1.287 . S
C4521 C4520 1.287 . S
C4521 C4522 1.524 . S
C4521 H4524 0.999 . S
C4522 H4492 0.950 . S
C4522 C4521 1.524 . S
C4522 C4523 1.415 . S
C4523 H4493 0.950 . S
C4523 C4518 1.363 . S
C4523 C4522 1.415 . S
H4524 C4521 0.999 . S
H4525 C4506 0.913 . S
H4526 C4544 0.951 . S
H4527 C4546 0.951 . S
H4528 C4548 0.950 . S
H4529 C4549 0.950 . S
H4530 C4551 0.950 . S
H4531 C4554 0.950 . S
H4532 C4555 0.950 . S
H4533 C4557 0.950 . S
H4534 C4558 0.950 . S
H4535 C4559 0.951 . S
H4536 C4561 0.951 . S
H4537 C4563 0.950 . S
H4538 C4564 0.950 . S
H4539 C4566 0.950 . S
H4540 C4569 0.950 . S
H4541 C4570 0.950 . S
H4542 C4572 0.950 . S
H4543 C4573 0.950 . S
C4544 H4526 0.951 . S
C4544 C4545 1.366 . S
C4544 C4546 1.388 . S
C4545 C4544 1.366 . S
C4545 C4549 1.385 . S
C4546 H4527 0.951 . S
C4546 C4544 1.388 . S
C4546 C4547 1.366 . S
C4547 C4546 1.366 . S
C4547 C4548 1.414 . S
C4547 C4550 1.499 . S
C4548 H4528 0.950 . S
C4548 C4547 1.414 . S
C4548 C4549 1.374 . S
C4549 H4529 0.950 . S
C4549 C4545 1.385 . S
C4549 C4548 1.374 . S
C4550 C4547 1.499 . S
C4550 C4551 1.373 . S
C4550 C4552 1.389 . S
C4551 H4530 0.950 . S
C4551 C4550 1.373 . S
C4551 C4567 1.377 . S
C4552 C4550 1.389 . S
C4552 C4553 1.524 . S
C4552 C4566 1.377 . S
C4553 C4552 1.524 . S
C4553 C4554 1.397 . S
C4553 C4558 1.363 . S
C4554 H4531 0.950 . S
C4554 C4553 1.397 . S
C4554 C4555 1.334 . S
C4555 H4532 0.950 . S
C4555 C4554 1.334 . S
C4555 C4556 1.287 . S
C4556 C4555 1.287 . S
C4556 C4557 1.524 . S
C4556 H4575 0.913 . S
C4557 H4533 0.950 . S
C4557 C4556 1.524 . S
C4557 C4558 1.415 . S
C4558 H4534 0.950 . S
C4558 C4553 1.363 . S
C4558 C4557 1.415 . S
C4559 H4535 0.951 . S
C4559 C4560 1.366 . S
C4559 C4561 1.388 . S
C4560 C4559 1.366 . S
C4560 C4564 1.385 . S
C4561 H4536 0.951 . S
C4561 C4559 1.388 . S
C4561 C4562 1.366 . S
C4562 C4561 1.366 . S
C4562 C4563 1.414 . S
C4562 C4565 1.499 . S
C4563 H4537 0.950 . S
C4563 C4562 1.414 . S
C4563 C4564 1.374 . S
C4564 H4538 0.950 . S
C4564 C4560 1.385 . S
C4564 C4563 1.374 . S
C4565 C4562 1.499 . S
C4565 C4566 1.373 . S
C4565 C4567 1.389 . S
C4566 H4539 0.950 . S
C4566 C4552 1.377 . S
C4566 C4565 1.373 . S
C4567 C4551 1.377 . S
C4567 C4565 1.389 . S
C4567 C4568 1.524 . S
C4568 C4567 1.524 . S
C4568 C4569 1.397 . S
C4568 C4573 1.363 . S
C4569 H4540 0.950 . S
C4569 C4568 1.397 . S
C4569 C4570 1.334 . S
C4570 H4541 0.950 . S
C4570 C4569 1.334 . S
C4570 C4571 1.287 . S
C4571 C4570 1.287 . S
C4571 C4572 1.524 . S
C4571 H4574 0.999 . S
C4572 H4542 0.950 . S
C4572 C4571 1.524 . S
C4572 C4573 1.415 . S
C4573 H4543 0.950 . S
C4573 C4568 1.363 . S
C4573 C4572 1.415 . S
H4574 C4571 0.999 . S
H4575 C4556 0.913 . S
H4576 C4594 0.951 . S
H4577 C4596 0.951 . S
H4578 C4598 0.950 . S
H4579 C4599 0.950 . S
H4580 C4601 0.950 . S
H4581 C4604 0.950 . S
H4582 C4605 0.950 . S
H4583 C4607 0.950 . S
H4584 C4608 0.950 . S
H4585 C4609 0.951 . S
H4586 C4611 0.951 . S
H4587 C4613 0.950 . S
H4588 C4614 0.950 . S
H4589 C4616 0.950 . S
H4590 C4619 0.950 . S
H4591 C4620 0.950 . S
H4592 C4622 0.950 . S
H4593 C4623 0.950 . S
C4594 H4576 0.951 . S
C4594 C4595 1.366 . S
C4594 C4596 1.388 . S
C4595 C4594 1.366 . S
C4595 C4599 1.385 . S
C4596 H4577 0.951 . S
C4596 C4594 1.388 . S
C4596 C4597 1.366 . S
C4597 C4596 1.366 . S
C4597 C4598 1.414 . S
C4597 C4600 1.499 . S
C4598 H4578 0.950 . S
C4598 C4597 1.414 . S
C4598 C4599 1.374 . S
C4599 H4579 0.950 . S
C4599 C4595 1.385 . S
C4599 C4598 1.374 . S
C4600 C4597 1.499 . S
C4600 C4601 1.373 . S
C4600 C4602 1.389 . S
C4601 H4580 0.950 . S
C4601 C4600 1.373 . S
C4601 C4617 1.377 . S
C4602 C4600 1.389 . S
C4602 C4603 1.524 . S
C4602 C4616 1.377 . S
C4603 C4602 1.524 . S
C4603 C4604 1.397 . S
C4603 C4608 1.363 . S
C4604 H4581 0.950 . S
C4604 C4603 1.397 . S
C4604 C4605 1.334 . S
C4605 H4582 0.950 . S
C4605 C4604 1.334 . S
C4605 C4606 1.287 . S
C4606 C4605 1.287 . S
C4606 C4607 1.524 . S
C4606 H4625 0.913 . S
C4607 H4583 0.950 . S
C4607 C4606 1.524 . S
C4607 C4608 1.415 . S
C4608 H4584 0.950 . S
C4608 C4603 1.363 . S
C4608 C4607 1.415 . S
C4609 H4585 0.951 . S
C4609 C4610 1.366 . S
C4609 C4611 1.388 . S
C4610 C4609 1.366 . S
C4610 C4614 1.385 . S
C4611 H4586 0.951 . S
C4611 C4609 1.388 . S
C4611 C4612 1.366 . S
C4612 C4611 1.366 . S
C4612 C4613 1.414 . S
C4612 C4615 1.499 . S
C4613 H4587 0.950 . S
C4613 C4612 1.414 . S
C4613 C4614 1.374 . S
C4614 H4588 0.950 . S
C4614 C4610 1.385 . S
C4614 C4613 1.374 . S
C4615 C4612 1.499 . S
C4615 C4616 1.373 . S
C4615 C4617 1.389 . S
C4616 H4589 0.950 . S
C4616 C4602 1.377 . S
C4616 C4615 1.373 . S
C4617 C4601 1.377 . S
C4617 C4615 1.389 . S
C4617 C4618 1.524 . S
C4618 C4617 1.524 . S
C4618 C4619 1.397 . S
C4618 C4623 1.363 . S
C4619 H4590 0.950 . S
C4619 C4618 1.397 . S
C4619 C4620 1.334 . S
C4620 H4591 0.950 . S
C4620 C4619 1.334 . S
C4620 C4621 1.287 . S
C4621 C4620 1.287 . S
C4621 C4622 1.524 . S
C4621 H4624 0.999 . S
C4622 H4592 0.950 . S
C4622 C4621 1.524 . S
C4622 C4623 1.415 . S
C4623 H4593 0.950 . S
C4623 C4618 1.363 . S
C4623 C4622 1.415 . S
H4624 C4621 0.999 . S
H4625 C4606 0.913 . S
H4626 C4644 0.951 . S
H4627 C4646 0.951 . S
H4628 C4648 0.950 . S
H4629 C4649 0.950 . S
H4630 C4651 0.950 . S
H4631 C4654 0.950 . S
H4632 C4655 0.950 . S
H4633 C4657 0.950 . S
H4634 C4658 0.950 . S
H4635 C4659 0.951 . S
H4636 C4661 0.951 . S
H4637 C4663 0.950 . S
H4638 C4664 0.950 . S
H4639 C4666 0.950 . S
H4640 C4669 0.950 . S
H4641 C4670 0.950 . S
H4642 C4672 0.950 . S
H4643 C4673 0.950 . S
C4644 H4626 0.951 . S
C4644 C4645 1.366 . S
C4644 C4646 1.388 . S
C4645 C4644 1.366 . S
C4645 C4649 1.385 . S
C4646 H4627 0.951 . S
C4646 C4644 1.388 . S
C4646 C4647 1.366 . S
C4647 C4646 1.366 . S
C4647 C4648 1.414 . S
C4647 C4650 1.499 . S
C4648 H4628 0.950 . S
C4648 C4647 1.414 . S
C4648 C4649 1.374 . S
C4649 H4629 0.950 . S
C4649 C4645 1.385 . S
C4649 C4648 1.374 . S
C4650 C4647 1.499 . S
C4650 C4651 1.373 . S
C4650 C4652 1.389 . S
C4651 H4630 0.950 . S
C4651 C4650 1.373 . S
C4651 C4667 1.377 . S
C4652 C4650 1.389 . S
C4652 C4653 1.524 . S
C4652 C4666 1.377 . S
C4653 C4652 1.524 . S
C4653 C4654 1.397 . S
C4653 C4658 1.363 . S
C4654 H4631 0.950 . S
C4654 C4653 1.397 . S
C4654 C4655 1.334 . S
C4655 H4632 0.950 . S
C4655 C4654 1.334 . S
C4655 C4656 1.287 . S
C4656 C4655 1.287 . S
C4656 C4657 1.524 . S
C4656 H4675 0.913 . S
C4657 H4633 0.950 . S
C4657 C4656 1.524 . S
C4657 C4658 1.415 . S
C4658 H4634 0.950 . S
C4658 C4653 1.363 . S
C4658 C4657 1.415 . S
C4659 H4635 0.951 . S
C4659 C4660 1.366 . S
C4659 C4661 1.388 . S
C4660 C4659 1.366 . S
C4660 C4664 1.385 . S
C4661 H4636 0.951 . S
C4661 C4659 1.388 . S
C4661 C4662 1.366 . S
C4662 C4661 1.366 . S
C4662 C4663 1.414 . S
C4662 C4665 1.499 . S
C4663 H4637 0.950 . S
C4663 C4662 1.414 . S
C4663 C4664 1.374 . S
C4664 H4638 0.950 . S
C4664 C4660 1.385 . S
C4664 C4663 1.374 . S
C4665 C4662 1.499 . S
C4665 C4666 1.373 . S
C4665 C4667 1.389 . S
C4666 H4639 0.950 . S
C4666 C4652 1.377 . S
C4666 C4665 1.373 . S
C4667 C4651 1.377 . S
C4667 C4665 1.389 . S
C4667 C4668 1.524 . S
C4668 C4667 1.524 . S
C4668 C4669 1.397 . S
C4668 C4673 1.363 . S
C4669 H4640 0.950 . S
C4669 C4668 1.397 . S
C4669 C4670 1.334 . S
C4670 H4641 0.950 . S
C4670 C4669 1.334 . S
C4670 C4671 1.287 . S
C4671 C4670 1.287 . S
C4671 C4672 1.524 . S
C4671 H4674 0.999 . S
C4672 H4642 0.950 . S
C4672 C4671 1.524 . S
C4672 C4673 1.415 . S
C4673 H4643 0.950 . S
C4673 C4668 1.363 . S
C4673 C4672 1.415 . S
H4674 C4671 0.999 . S
H4675 C4656 0.913 . S
H4676 C4694 0.951 . S
H4677 C4696 0.951 . S
H4678 C4698 0.950 . S
H4679 C4699 0.950 . S
H4680 C4701 0.950 . S
H4681 C4704 0.950 . S
H4682 C4705 0.920 1_655 S
H4683 C4707 0.950 1_556 S
H4684 C4708 0.950 . S
H4685 C4709 0.951 . S
H4686 C4711 0.951 . S
H4687 C4713 0.950 . S
H4688 C4714 0.950 1_556 S
H4689 C4716 0.950 . S
H4690 C4719 0.950 . S
H4691 C4720 0.950 . S
H4692 C4722 0.950 . S
H4693 C4723 0.950 . S
C4694 H4676 0.951 . S
C4694 C4695 1.366 . S
C4694 C4696 1.388 . S
C4695 C4694 1.366 . S
C4695 C4699 1.385 . S
C4696 H4677 0.951 . S
C4696 C4694 1.388 . S
C4696 C4697 1.366 . S
C4697 C4696 1.366 . S
C4697 C4698 1.414 . S
C4697 C4700 1.499 . S
C4698 H4678 0.950 . S
C4698 C4697 1.414 . S
C4698 C4699 1.374 . S
C4699 H4679 0.950 . S
C4699 C4695 1.385 . S
C4699 C4698 1.374 . S
C4700 C4697 1.499 . S
C4700 C4701 1.373 . S
C4700 C4702 1.389 . S
C4701 H4680 0.950 . S
C4701 C4700 1.373 . S
C4701 C4717 1.377 . S
C4702 C4700 1.389 . S
C4702 C4703 1.524 . S
C4702 C4716 1.377 . S
C4703 C4702 1.524 . S
C4703 C4704 1.397 . S
C4703 C4708 1.363 . S
C4704 H4681 0.950 . S
C4704 C4703 1.397 . S
C4704 C4705 1.365 . S
C4705 H4682 0.920 1_455 S
C4705 C4704 1.365 . S
C4705 C4706 1.288 1_455 S
C4706 C4705 1.288 1_655 S
C4706 C4707 1.524 1_655 S
C4706 H4725 0.913 . S
C4707 H4683 0.950 1_554 S
C4707 C4706 1.524 1_455 S
C4707 C4708 1.415 . S
C4708 H4684 0.950 . S
C4708 C4703 1.363 . S
C4708 C4707 1.415 . S
C4709 H4685 0.951 . S
C4709 C4710 1.366 . S
C4709 C4711 1.388 . S
C4710 C4709 1.366 . S
C4710 C4714 1.385 . S
C4711 H4686 0.951 . S
C4711 C4709 1.388 . S
C4711 C4712 1.366 . S
C4712 C4711 1.366 . S
C4712 C4713 1.414 . S
C4712 C4715 1.499 . S
C4713 H4687 0.950 . S
C4713 C4712 1.414 . S
C4713 C4714 1.374 . S
C4714 H4688 0.950 1_554 S
C4714 C4710 1.385 . S
C4714 C4713 1.374 . S
C4715 C4712 1.499 . S
C4715 C4716 1.373 . S
C4715 C4717 1.389 . S
C4716 H4689 0.950 . S
C4716 C4702 1.377 . S
C4716 C4715 1.373 . S
C4717 C4701 1.377 . S
C4717 C4715 1.389 . S
C4717 C4718 1.524 . S
C4718 C4717 1.524 . S
C4718 C4719 1.397 . S
C4718 C4723 1.363 . S
C4719 H4690 0.950 . S
C4719 C4718 1.397 . S
C4719 C4720 1.334 . S
C4720 H4691 0.950 . S
C4720 C4719 1.334 . S
C4720 C4721 1.287 . S
C4721 C4720 1.287 . S
C4721 C4722 1.524 . S
C4721 H4724 0.999 . S
C4722 H4692 0.950 . S
C4722 C4721 1.524 . S
C4722 C4723 1.415 . S
C4723 H4693 0.950 . S
C4723 C4718 1.363 . S
C4723 C4722 1.415 . S
H4724 C4721 0.999 . S
H4725 C4706 0.913 . S
H4726 C4744 0.951 . S
H4727 C4746 0.951 . S
H4728 C4748 0.950 . S
H4729 C4749 0.950 . S
H4730 C4751 0.950 . S
H4731 C4754 0.950 . S
H4732 C4755 0.950 . S
H4733 C4757 0.950 . S
H4734 C4758 0.950 . S
H4735 C4759 0.951 . S
H4736 C4761 0.951 . S
H4737 C4763 0.950 . S
H4738 C4764 0.950 . S
H4739 C4766 0.950 . S
H4740 C4769 0.950 . S
H4741 C4770 0.950 . S
H4742 C4772 0.950 . S
H4743 C4773 0.950 . S
C4744 H4726 0.951 . S
C4744 C4745 1.366 . S
C4744 C4746 1.388 . S
C4745 C4744 1.366 . S
C4745 C4749 1.385 . S
C4746 H4727 0.951 . S
C4746 C4744 1.388 . S
C4746 C4747 1.366 . S
C4747 C4746 1.366 . S
C4747 C4748 1.414 . S
C4747 C4750 1.499 . S
C4748 H4728 0.950 . S
C4748 C4747 1.414 . S
C4748 C4749 1.374 . S
C4749 H4729 0.950 . S
C4749 C4745 1.385 . S
C4749 C4748 1.374 . S
C4750 C4747 1.499 . S
C4750 C4751 1.373 . S
C4750 C4752 1.389 . S
C4751 H4730 0.950 . S
C4751 C4750 1.373 . S
C4751 C4767 1.377 . S
C4752 C4750 1.389 . S
C4752 C4753 1.524 . S
C4752 C4766 1.377 . S
C4753 C4752 1.524 . S
C4753 C4754 1.397 . S
C4753 C4758 1.363 . S
C4754 H4731 0.950 . S
C4754 C4753 1.397 . S
C4754 C4755 1.334 . S
C4755 H4732 0.950 . S
C4755 C4754 1.334 . S
C4755 C4756 1.287 . S
C4756 C4755 1.287 . S
C4756 C4757 1.524 . S
C4756 H4775 0.913 . S
C4757 H4733 0.950 . S
C4757 C4756 1.524 . S
C4757 C4758 1.415 . S
C4758 H4734 0.950 . S
C4758 C4753 1.363 . S
C4758 C4757 1.415 . S
C4759 H4735 0.951 . S
C4759 C4760 1.366 . S
C4759 C4761 1.388 . S
C4760 C4759 1.366 . S
C4760 C4764 1.385 . S
C4761 H4736 0.951 . S
C4761 C4759 1.388 . S
C4761 C4762 1.366 . S
C4762 C4761 1.366 . S
C4762 C4763 1.414 . S
C4762 C4765 1.499 . S
C4763 H4737 0.950 . S
C4763 C4762 1.414 . S
C4763 C4764 1.374 . S
C4764 H4738 0.950 . S
C4764 C4760 1.385 . S
C4764 C4763 1.374 . S
C4765 C4762 1.499 . S
C4765 C4766 1.373 . S
C4765 C4767 1.389 . S
C4766 H4739 0.950 . S
C4766 C4752 1.377 . S
C4766 C4765 1.373 . S
C4767 C4751 1.377 . S
C4767 C4765 1.389 . S
C4767 C4768 1.524 . S
C4768 C4767 1.524 . S
C4768 C4769 1.397 . S
C4768 C4773 1.363 . S
C4769 H4740 0.950 . S
C4769 C4768 1.397 . S
C4769 C4770 1.334 . S
C4770 H4741 0.950 . S
C4770 C4769 1.334 . S
C4770 C4771 1.287 . S
C4771 C4770 1.287 . S
C4771 C4772 1.524 . S
C4771 H4774 0.999 . S
C4772 H4742 0.950 . S
C4772 C4771 1.524 . S
C4772 C4773 1.415 . S
C4773 H4743 0.950 . S
C4773 C4768 1.363 . S
C4773 C4772 1.415 . S
H4774 C4771 0.999 . S
H4775 C4756 0.913 . S
H4776 C4794 0.951 . S
H4777 C4796 0.951 . S
H4778 C4798 0.950 . S
H4779 C4799 0.950 . S
H4780 C4801 0.950 . S
H4781 C4804 0.950 . S
H4782 C4805 0.950 . S
H4783 C4807 0.950 . S
H4784 C4808 0.950 . S
H4785 C4809 0.951 . S
H4786 C4811 0.951 . S
H4787 C4813 0.950 . S
H4788 C4814 0.950 . S
H4789 C4816 0.950 . S
H4790 C4819 0.950 . S
H4791 C4820 0.950 . S
H4792 C4822 0.950 . S
H4793 C4823 0.950 . S
C4794 H4776 0.951 . S
C4794 C4795 1.366 . S
C4794 C4796 1.388 . S
C4795 C4794 1.366 . S
C4795 C4799 1.385 . S
C4796 H4777 0.951 . S
C4796 C4794 1.388 . S
C4796 C4797 1.366 . S
C4797 C4796 1.366 . S
C4797 C4798 1.414 . S
C4797 C4800 1.499 . S
C4798 H4778 0.950 . S
C4798 C4797 1.414 . S
C4798 C4799 1.374 . S
C4799 H4779 0.950 . S
C4799 C4795 1.385 . S
C4799 C4798 1.374 . S
C4800 C4797 1.499 . S
C4800 C4801 1.373 . S
C4800 C4802 1.389 . S
C4801 H4780 0.950 . S
C4801 C4800 1.373 . S
C4801 C4817 1.377 . S
C4802 C4800 1.389 . S
C4802 C4803 1.524 . S
C4802 C4816 1.377 . S
C4803 C4802 1.524 . S
C4803 C4804 1.397 . S
C4803 C4808 1.363 . S
C4804 H4781 0.950 . S
C4804 C4803 1.397 . S
C4804 C4805 1.334 . S
C4805 H4782 0.950 . S
C4805 C4804 1.334 . S
C4805 C4806 1.287 . S
C4806 C4805 1.287 . S
C4806 C4807 1.524 . S
C4806 H4825 0.913 . S
C4807 H4783 0.950 . S
C4807 C4806 1.524 . S
C4807 C4808 1.415 . S
C4808 H4784 0.950 . S
C4808 C4803 1.363 . S
C4808 C4807 1.415 . S
C4809 H4785 0.951 . S
C4809 C4810 1.366 . S
C4809 C4811 1.388 . S
C4810 C4809 1.366 . S
C4810 C4814 1.385 . S
C4811 H4786 0.951 . S
C4811 C4809 1.388 . S
C4811 C4812 1.366 . S
C4812 C4811 1.366 . S
C4812 C4813 1.414 . S
C4812 C4815 1.499 . S
C4813 H4787 0.950 . S
C4813 C4812 1.414 . S
C4813 C4814 1.374 . S
C4814 H4788 0.950 . S
C4814 C4810 1.385 . S
C4814 C4813 1.374 . S
C4815 C4812 1.499 . S
C4815 C4816 1.373 . S
C4815 C4817 1.389 . S
C4816 H4789 0.950 . S
C4816 C4802 1.377 . S
C4816 C4815 1.373 . S
C4817 C4801 1.377 . S
C4817 C4815 1.389 . S
C4817 C4818 1.524 . S
C4818 C4817 1.524 . S
C4818 C4819 1.397 . S
C4818 C4823 1.363 . S
C4819 H4790 0.950 . S
C4819 C4818 1.397 . S
C4819 C4820 1.334 1_556 S
C4820 H4791 0.950 . S
C4820 C4819 1.334 1_554 S
C4820 C4821 1.287 . S
C4821 C4820 1.287 . S
C4821 C4822 1.524 . S
C4821 H4824 0.999 . S
C4822 H4792 0.950 . S
C4822 C4821 1.524 . S
C4822 C4823 1.415 1_554 S
C4823 H4793 0.950 . S
C4823 C4818 1.363 . S
C4823 C4822 1.415 1_556 S
H4824 C4821 0.999 . S
H4825 C4806 0.913 . S
H4826 C4844 0.951 . S
H4827 C4846 0.951 . S
H4828 C4848 0.950 . S
H4829 C4849 0.950 . S
H4830 C4851 0.950 . S
H4831 C4854 0.950 . S
H4832 C4855 0.950 . S
H4833 C4857 0.950 . S
H4834 C4858 0.950 . S
H4835 C4859 0.951 . S
H4836 C4861 0.951 . S
H4837 C4863 0.950 . S
H4838 C4864 0.950 . S
H4839 C4866 0.950 . S
H4840 C4869 0.950 . S
H4841 C4870 0.950 . S
H4842 C4872 0.950 . S
H4843 C4873 0.950 . S
C4844 H4826 0.951 . S
C4844 C4845 1.366 . S
C4844 C4846 1.388 . S
C4845 C4844 1.366 . S
C4845 C4849 1.385 . S
C4846 H4827 0.951 . S
C4846 C4844 1.388 . S
C4846 C4847 1.366 . S
C4847 C4846 1.366 . S
C4847 C4848 1.414 . S
C4847 C4850 1.499 . S
C4848 H4828 0.950 . S
C4848 C4847 1.414 . S
C4848 C4849 1.374 . S
C4849 H4829 0.950 . S
C4849 C4845 1.385 . S
C4849 C4848 1.374 . S
C4850 C4847 1.499 . S
C4850 C4851 1.373 . S
C4850 C4852 1.389 . S
C4851 H4830 0.950 . S
C4851 C4850 1.373 . S
C4851 C4867 1.377 . S
C4852 C4850 1.389 . S
C4852 C4853 1.524 . S
C4852 C4866 1.377 . S
C4853 C4852 1.524 . S
C4853 C4854 1.397 . S
C4853 C4858 1.363 . S
C4854 H4831 0.950 . S
C4854 C4853 1.397 . S
C4854 C4855 1.334 . S
C4855 H4832 0.950 . S
C4855 C4854 1.334 . S
C4855 C4856 1.287 . S
C4856 C4855 1.287 . S
C4856 C4857 1.524 . S
C4856 H4875 0.913 . S
C4857 H4833 0.950 . S
C4857 C4856 1.524 . S
C4857 C4858 1.415 . S
C4858 H4834 0.950 . S
C4858 C4853 1.363 . S
C4858 C4857 1.415 . S
C4859 H4835 0.951 . S
C4859 C4860 1.366 . S
C4859 C4861 1.388 . S
C4860 C4859 1.366 . S
C4860 C4864 1.385 . S
C4861 H4836 0.951 . S
C4861 C4859 1.388 . S
C4861 C4862 1.366 . S
C4862 C4861 1.366 . S
C4862 C4863 1.414 . S
C4862 C4865 1.499 . S
C4863 H4837 0.950 . S
C4863 C4862 1.414 . S
C4863 C4864 1.374 . S
C4864 H4838 0.950 . S
C4864 C4860 1.385 . S
C4864 C4863 1.374 . S
C4865 C4862 1.499 . S
C4865 C4866 1.373 . S
C4865 C4867 1.389 . S
C4866 H4839 0.950 . S
C4866 C4852 1.377 . S
C4866 C4865 1.373 . S
C4867 C4851 1.377 . S
C4867 C4865 1.389 . S
C4867 C4868 1.524 . S
C4868 C4867 1.524 . S
C4868 C4869 1.397 . S
C4868 C4873 1.363 . S
C4869 H4840 0.950 . S
C4869 C4868 1.397 . S
C4869 C4870 1.334 . S
C4870 H4841 0.950 . S
C4870 C4869 1.334 . S
C4870 C4871 1.287 . S
C4871 C4870 1.287 . S
C4871 C4872 1.524 . S
C4871 H4874 0.999 . S
C4872 H4842 0.950 . S
C4872 C4871 1.524 . S
C4872 C4873 1.415 . S
C4873 H4843 0.950 . S
C4873 C4868 1.363 . S
C4873 C4872 1.415 . S
H4874 C4871 0.999 . S
H4875 C4856 0.913 . S
H4876 C4894 0.951 . S
H4877 C4896 0.951 . S
H4878 C4898 0.950 . S
H4879 C4899 0.950 . S
H4880 C4901 0.950 . S
H4881 C4904 0.950 . S
H4882 C4905 0.950 . S
H4883 C4907 0.950 . S
H4884 C4908 0.950 . S
H4885 C4909 0.951 . S
H4886 C4911 0.951 . S
H4887 C4913 0.950 . S
H4888 C4914 0.950 . S
H4889 C4916 0.950 . S
H4890 C4919 0.950 . S
H4891 C4920 0.950 . S
H4892 C4922 0.950 . S
H4893 C4923 0.950 . S
C4894 H4876 0.951 . S
C4894 C4895 1.366 . S
C4894 C4896 1.388 . S
C4895 C4894 1.366 . S
C4895 C4899 1.385 . S
C4896 H4877 0.951 . S
C4896 C4894 1.388 . S
C4896 C4897 1.366 . S
C4897 C4896 1.366 . S
C4897 C4898 1.414 . S
C4897 C4900 1.499 . S
C4898 H4878 0.950 . S
C4898 C4897 1.414 . S
C4898 C4899 1.374 . S
C4899 H4879 0.950 . S
C4899 C4895 1.385 . S
C4899 C4898 1.374 . S
C4900 C4897 1.499 . S
C4900 C4901 1.373 . S
C4900 C4902 1.389 . S
C4901 H4880 0.950 . S
C4901 C4900 1.373 . S
C4901 C4917 1.377 . S
C4902 C4900 1.389 . S
C4902 C4903 1.524 . S
C4902 C4916 1.377 . S
C4903 C4902 1.524 . S
C4903 C4904 1.397 . S
C4903 C4908 1.363 . S
C4904 H4881 0.950 . S
C4904 C4903 1.397 . S
C4904 C4905 1.334 . S
C4905 H4882 0.950 . S
C4905 C4904 1.334 . S
C4905 C4906 1.287 . S
C4906 C4905 1.287 . S
C4906 C4907 1.524 . S
C4906 H4925 0.913 . S
C4907 H4883 0.950 . S
C4907 C4906 1.524 . S
C4907 C4908 1.415 . S
C4908 H4884 0.950 . S
C4908 C4903 1.363 . S
C4908 C4907 1.415 . S
C4909 H4885 0.951 . S
C4909 C4910 1.366 . S
C4909 C4911 1.388 . S
C4910 C4909 1.366 . S
C4910 C4914 1.385 . S
C4911 H4886 0.951 . S
C4911 C4909 1.388 . S
C4911 C4912 1.366 . S
C4912 C4911 1.366 . S
C4912 C4913 1.414 . S
C4912 C4915 1.499 . S
C4913 H4887 0.950 . S
C4913 C4912 1.414 . S
C4913 C4914 1.374 . S
C4914 H4888 0.950 . S
C4914 C4910 1.385 . S
C4914 C4913 1.374 . S
C4915 C4912 1.499 . S
C4915 C4916 1.373 . S
C4915 C4917 1.389 . S
C4916 H4889 0.950 . S
C4916 C4902 1.377 . S
C4916 C4915 1.373 . S
C4917 C4901 1.377 . S
C4917 C4915 1.389 . S
C4917 C4918 1.524 . S
C4918 C4917 1.524 . S
C4918 C4919 1.397 . S
C4918 C4923 1.363 . S
C4919 H4890 0.950 . S
C4919 C4918 1.397 . S
C4919 C4920 1.334 . S
C4920 H4891 0.950 . S
C4920 C4919 1.334 . S
C4920 C4921 1.287 . S
C4921 C4920 1.287 . S
C4921 C4922 1.524 . S
C4921 H4924 0.999 . S
C4922 H4892 0.950 . S
C4922 C4921 1.524 . S
C4922 C4923 1.415 . S
C4923 H4893 0.950 . S
C4923 C4918 1.363 . S
C4923 C4922 1.415 . S
H4924 C4921 0.999 . S
H4925 C4906 0.913 . S
H4926 C4944 0.951 . S
H4927 C4946 0.951 . S
H4928 C4948 0.950 . S
H4929 C4949 0.950 . S
H4930 C4951 0.950 . S
H4931 C4954 0.950 . S
H4932 C4955 0.950 . S
H4933 C4957 0.950 . S
H4934 C4958 0.950 . S
H4935 C4959 0.951 . S
H4936 C4961 0.951 . S
H4937 C4963 0.950 . S
H4938 C4964 0.950 . S
H4939 C4966 0.950 . S
H4940 C4969 0.950 . S
H4941 C4970 0.950 . S
H4942 C4972 0.950 . S
H4943 C4973 0.950 . S
C4944 H4926 0.951 . S
C4944 C4945 1.366 . S
C4944 C4946 1.388 . S
C4945 C4944 1.366 . S
C4945 C4949 1.385 . S
C4946 H4927 0.951 . S
C4946 C4944 1.388 . S
C4946 C4947 1.366 . S
C4947 C4946 1.366 . S
C4947 C4948 1.414 . S
C4947 C4950 1.499 . S
C4948 H4928 0.950 . S
C4948 C4947 1.414 . S
C4948 C4949 1.374 . S
C4949 H4929 0.950 . S
C4949 C4945 1.385 . S
C4949 C4948 1.374 . S
C4950 C4947 1.499 . S
C4950 C4951 1.373 . S
C4950 C4952 1.389 . S
C4951 H4930 0.950 . S
C4951 C4950 1.373 . S
C4951 C4967 1.377 . S
C4952 C4950 1.389 . S
C4952 C4953 1.524 . S
C4952 C4966 1.377 . S
C4953 C4952 1.524 . S
C4953 C4954 1.397 . S
C4953 C4958 1.363 . S
C4954 H4931 0.950 . S
C4954 C4953 1.397 . S
C4954 C4955 1.334 . S
C4955 H4932 0.950 . S
C4955 C4954 1.334 . S
C4955 C4956 1.287 . S
C4956 C4955 1.287 . S
C4956 C4957 1.524 . S
C4956 H4975 0.913 . S
C4957 H4933 0.950 . S
C4957 C4956 1.524 . S
C4957 C4958 1.415 . S
C4958 H4934 0.950 . S
C4958 C4953 1.363 . S
C4958 C4957 1.415 . S
C4959 H4935 0.951 . S
C4959 C4960 1.366 . S
C4959 C4961 1.388 . S
C4960 C4959 1.366 . S
C4960 C4964 1.385 . S
C4961 H4936 0.951 . S
C4961 C4959 1.388 . S
C4961 C4962 1.366 . S
C4962 C4961 1.366 . S
C4962 C4963 1.414 . S
C4962 C4965 1.499 . S
C4963 H4937 0.950 . S
C4963 C4962 1.414 . S
C4963 C4964 1.374 . S
C4964 H4938 0.950 . S
C4964 C4960 1.385 . S
C4964 C4963 1.374 . S
C4965 C4962 1.499 . S
C4965 C4966 1.373 . S
C4965 C4967 1.389 . S
C4966 H4939 0.950 . S
C4966 C4952 1.377 . S
C4966 C4965 1.373 . S
C4967 C4951 1.377 . S
C4967 C4965 1.389 . S
C4967 C4968 1.524 . S
C4968 C4967 1.524 . S
C4968 C4969 1.397 . S
C4968 C4973 1.363 . S
C4969 H4940 0.950 . S
C4969 C4968 1.397 . S
C4969 C4970 1.334 . S
C4970 H4941 0.950 . S
C4970 C4969 1.334 . S
C4970 C4971 1.287 . S
C4971 C4970 1.287 . S
C4971 C4972 1.524 . S
C4971 H4974 0.999 . S
C4972 H4942 0.950 . S
C4972 C4971 1.524 . S
C4972 C4973 1.415 . S
C4973 H4943 0.950 . S
C4973 C4968 1.363 . S
C4973 C4972 1.415 . S
H4974 C4971 0.999 . S
H4975 C4956 0.913 . S
H4976 C4994 0.951 . S
H4977 C4996 0.951 . S
H4978 C4998 0.950 . S
H4979 C4999 0.950 . S
H4980 C5001 0.950 . S
H4981 C5004 0.950 . S
H4982 C5005 0.950 . S
H4983 C5007 0.950 . S
H4984 C5008 0.950 . S
H4985 C5009 0.951 . S
H4986 C5011 0.951 . S
H4987 C5013 0.950 . S
H4988 C5014 0.950 . S
H4989 C5016 0.950 . S
H4990 C5019 0.950 . S
H4991 C5020 0.950 . S
H4992 C5022 0.950 . S
H4993 C5023 0.950 . S
C4994 H4976 0.951 . S
C4994 C4995 1.366 . S
C4994 C4996 1.388 . S
C4995 C4994 1.366 . S
C4995 C4999 1.385 . S
C4996 H4977 0.951 . S
C4996 C4994 1.388 . S
C4996 C4997 1.366 . S
C4997 C4996 1.366 . S
C4997 C4998 1.414 . S
C4997 C5000 1.499 . S
C4998 H4978 0.950 . S
C4998 C4997 1.414 . S
C4998 C4999 1.374 . S
C4999 H4979 0.950 . S
C4999 C4995 1.385 . S
C4999 C4998 1.374 . S
C5000 C4997 1.499 . S
C5000 C5001 1.373 . S
C5000 C5002 1.389 . S
C5001 H4980 0.950 . S
C5001 C5000 1.373 . S
C5001 C5017 1.377 . S
C5002 C5000 1.389 . S
C5002 C5003 1.524 . S
C5002 C5016 1.377 . S
C5003 C5002 1.524 . S
C5003 C5004 1.397 . S
C5003 C5008 1.363 . S
C5004 H4981 0.950 . S
C5004 C5003 1.397 . S
C5004 C5005 1.334 . S
C5005 H4982 0.950 . S
C5005 C5004 1.334 . S
C5005 C5006 1.287 . S
C5006 C5005 1.287 . S
C5006 C5007 1.524 . S
C5006 H5025 0.913 . S
C5007 H4983 0.950 . S
C5007 C5006 1.524 . S
C5007 C5008 1.415 . S
C5008 H4984 0.950 . S
C5008 C5003 1.363 . S
C5008 C5007 1.415 . S
C5009 H4985 0.951 . S
C5009 C5010 1.366 . S
C5009 C5011 1.388 . S
C5010 C5009 1.366 . S
C5010 C5014 1.385 . S
C5011 H4986 0.951 . S
C5011 C5009 1.388 . S
C5011 C5012 1.366 . S
C5012 C5011 1.366 . S
C5012 C5013 1.414 . S
C5012 C5015 1.499 . S
C5013 H4987 0.950 . S
C5013 C5012 1.414 . S
C5013 C5014 1.374 . S
C5014 H4988 0.950 . S
C5014 C5010 1.385 . S
C5014 C5013 1.374 . S
C5015 C5012 1.499 . S
C5015 C5016 1.373 . S
C5015 C5017 1.389 . S
C5016 H4989 0.950 . S
C5016 C5002 1.377 . S
C5016 C5015 1.373 . S
C5017 C5001 1.377 . S
C5017 C5015 1.389 . S
C5017 C5018 1.524 . S
C5018 C5017 1.524 . S
C5018 C5019 1.397 . S
C5018 C5023 1.363 . S
C5019 H4990 0.950 . S
C5019 C5018 1.397 . S
C5019 C5020 1.334 . S
C5020 H4991 0.950 . S
C5020 C5019 1.334 . S
C5020 C5021 1.287 . S
C5021 C5020 1.287 . S
C5021 C5022 1.524 . S
C5021 H5024 0.999 . S
C5022 H4992 0.950 . S
C5022 C5021 1.524 . S
C5022 C5023 1.415 . S
C5023 H4993 0.950 . S
C5023 C5018 1.363 . S
C5023 C5022 1.415 . S
H5024 C5021 0.999 . S
H5025 C5006 0.913 . S
H5026 C5044 0.951 . S
H5027 C5046 0.951 . S
H5028 C5048 0.950 . S
H5029 C5049 0.950 . S
H5030 C5051 0.950 . S
H5031 C5054 0.950 . S
H5032 C5055 0.950 . S
H5033 C5057 0.950 . S
H5034 C5058 0.950 . S
H5035 C5059 0.951 . S
H5036 C5061 0.951 . S
H5037 C5063 0.950 . S
H5038 C5064 0.950 . S
H5039 C5066 0.950 . S
H5040 C5069 0.950 . S
H5041 C5070 0.950 . S
H5042 C5072 0.950 . S
H5043 C5073 0.950 . S
C5044 H5026 0.951 . S
C5044 C5045 1.366 . S
C5044 C5046 1.388 . S
C5045 C5044 1.366 . S
C5045 C5049 1.385 . S
C5046 H5027 0.951 . S
C5046 C5044 1.388 . S
C5046 C5047 1.366 . S
C5047 C5046 1.366 . S
C5047 C5048 1.414 . S
C5047 C5050 1.499 . S
C5048 H5028 0.950 . S
C5048 C5047 1.414 . S
C5048 C5049 1.374 . S
C5049 H5029 0.950 . S
C5049 C5045 1.385 . S
C5049 C5048 1.374 . S
C5050 C5047 1.499 . S
C5050 C5051 1.373 . S
C5050 C5052 1.389 . S
C5051 H5030 0.950 . S
C5051 C5050 1.373 . S
C5051 C5067 1.377 . S
C5052 C5050 1.389 . S
C5052 C5053 1.524 . S
C5052 C5066 1.377 . S
C5053 C5052 1.524 . S
C5053 C5054 1.397 . S
C5053 C5058 1.363 . S
C5054 H5031 0.950 . S
C5054 C5053 1.397 . S
C5054 C5055 1.334 . S
C5055 H5032 0.950 . S
C5055 C5054 1.334 . S
C5055 C5056 1.287 . S
C5056 C5055 1.287 . S
C5056 C5057 1.524 . S
C5056 H5075 0.913 . S
C5057 H5033 0.950 . S
C5057 C5056 1.524 . S
C5057 C5058 1.415 . S
C5058 H5034 0.950 . S
C5058 C5053 1.363 . S
C5058 C5057 1.415 . S
C5059 H5035 0.951 . S
C5059 C5060 1.366 . S
C5059 C5061 1.388 . S
C5060 C5059 1.366 . S
C5060 C5064 1.385 . S
C5061 H5036 0.951 . S
C5061 C5059 1.388 . S
C5061 C5062 1.366 . S
C5062 C5061 1.366 . S
C5062 C5063 1.414 . S
C5062 C5065 1.499 . S
C5063 H5037 0.950 . S
C5063 C5062 1.414 . S
C5063 C5064 1.374 . S
C5064 H5038 0.950 . S
C5064 C5060 1.385 . S
C5064 C5063 1.374 . S
C5065 C5062 1.499 . S
C5065 C5066 1.373 . S
C5065 C5067 1.389 . S
C5066 H5039 0.950 . S
C5066 C5052 1.377 . S
C5066 C5065 1.373 . S
C5067 C5051 1.377 . S
C5067 C5065 1.389 . S
C5067 C5068 1.524 . S
C5068 C5067 1.524 . S
C5068 C5069 1.397 . S
C5068 C5073 1.363 . S
C5069 H5040 0.950 . S
C5069 C5068 1.397 . S
C5069 C5070 1.334 . S
C5070 H5041 0.950 . S
C5070 C5069 1.334 . S
C5070 C5071 1.287 . S
C5071 C5070 1.287 . S
C5071 C5072 1.524 . S
C5071 H5074 0.999 . S
C5072 H5042 0.950 . S
C5072 C5071 1.524 . S
C5072 C5073 1.415 . S
C5073 H5043 0.950 . S
C5073 C5068 1.363 . S
C5073 C5072 1.415 . S
H5074 C5071 0.999 . S
H5075 C5056 0.913 . S
H5076 C5094 0.951 . S
H5077 C5096 0.951 . S
H5078 C5098 0.950 . S
H5079 C5099 0.950 . S
H5080 C5101 0.950 . S
H5081 C5104 0.950 . S
H5082 C5105 0.950 . S
H5083 C5107 0.950 . S
H5084 C5108 0.950 . S
H5085 C5109 0.951 . S
H5086 C5111 0.951 . S
H5087 C5113 0.950 . S
H5088 C5114 0.950 1_655 S
H5089 C5116 0.950 . S
H5090 C5119 0.950 . S
H5091 C5120 0.950 . S
H5092 C5122 0.950 . S
H5093 C5123 0.950 . S
C5094 H5076 0.951 . S
C5094 C5095 1.366 . S
C5094 C5096 1.388 . S
C5095 C5094 1.366 . S
C5095 C5099 1.385 . S
C5096 H5077 0.951 . S
C5096 C5094 1.388 . S
C5096 C5097 1.366 . S
C5097 C5096 1.366 . S
C5097 C5098 1.414 . S
C5097 C5100 1.499 . S
C5098 H5078 0.950 . S
C5098 C5097 1.414 . S
C5098 C5099 1.374 . S
C5099 H5079 0.950 . S
C5099 C5095 1.385 . S
C5099 C5098 1.374 . S
C5100 C5097 1.499 . S
C5100 C5101 1.373 . S
C5100 C5102 1.389 . S
C5101 H5080 0.950 . S
C5101 C5100 1.373 . S
C5101 C5117 1.387 . S
C5102 C5100 1.389 . S
C5102 C5103 1.524 . S
C5102 C5116 1.377 . S
C5103 C5102 1.524 . S
C5103 C5104 1.397 . S
C5103 C5108 1.363 . S
C5104 H5081 0.950 . S
C5104 C5103 1.397 . S
C5104 C5105 1.334 . S
C5105 H5082 0.950 . S
C5105 C5104 1.334 . S
C5105 C5106 1.287 . S
C5106 C5105 1.287 . S
C5106 C5107 1.524 . S
C5106 H5125 0.913 . S
C5107 H5083 0.950 . S
C5107 C5106 1.524 . S
C5107 C5108 1.415 . S
C5108 H5084 0.950 . S
C5108 C5103 1.363 . S
C5108 C5107 1.415 . S
C5109 H5085 0.951 . S
C5109 C5110 1.366 . S
C5109 C5111 1.388 . S
C5110 C5109 1.366 . S
C5110 C5114 1.385 . S
C5111 H5086 0.951 . S
C5111 C5109 1.388 . S
C5111 C5112 1.400 . S
C5112 C5111 1.400 . S
C5112 C5113 1.401 1_455 S
C5112 C5115 1.478 1_455 S
C5113 H5087 0.950 . S
C5113 C5112 1.401 1_655 S
C5113 C5114 1.374 1_655 S
C5114 H5088 0.950 1_455 S
C5114 C5110 1.385 . S
C5114 C5113 1.374 1_455 S
C5115 C5112 1.478 1_655 S
C5115 C5116 1.373 . S
C5115 C5117 1.404 . S
C5116 H5089 0.950 . S
C5116 C5102 1.377 . S
C5116 C5115 1.373 . S
C5117 C5101 1.387 . S
C5117 C5115 1.404 . S
C5117 C5118 1.499 1_655 S
C5118 C5117 1.499 1_455 S
C5118 C5119 1.397 . S
C5118 C5123 1.363 . S
C5119 H5090 0.950 . S
C5119 C5118 1.397 . S
C5119 C5120 1.334 . S
C5120 H5091 0.950 . S
C5120 C5119 1.334 . S
C5120 C5121 1.287 . S
C5121 C5120 1.287 . S
C5121 C5122 1.524 . S
C5121 H5124 0.999 . S
C5122 H5092 0.950 . S
C5122 C5121 1.524 . S
C5122 C5123 1.415 . S
C5123 H5093 0.950 . S
C5123 C5118 1.363 . S
C5123 C5122 1.415 . S
H5124 C5121 0.999 . S
H5125 C5106 0.913 . S
H5126 C5144 0.951 . S
H5127 C5146 0.951 . S
H5128 C5148 0.950 . S
H5129 C5149 0.950 . S
H5130 C5151 0.950 . S
H5131 C5154 0.950 . S
H5132 C5155 0.950 . S
H5133 C5157 0.950 . S
H5134 C5158 0.950 . S
H5135 C5159 0.951 . S
H5136 C5161 0.951 . S
H5137 C5163 0.950 . S
H5138 C5164 0.950 . S
H5139 C5166 0.950 . S
H5140 C5169 0.950 . S
H5141 C5170 0.950 . S
H5142 C5172 0.950 . S
H5143 C5173 0.950 . S
C5144 H5126 0.951 . S
C5144 C5145 1.366 . S
C5144 C5146 1.388 . S
C5145 C5144 1.366 . S
C5145 C5149 1.385 . S
C5146 H5127 0.951 . S
C5146 C5144 1.388 . S
C5146 C5147 1.366 . S
C5147 C5146 1.366 . S
C5147 C5148 1.414 . S
C5147 C5150 1.499 . S
C5148 H5128 0.950 . S
C5148 C5147 1.414 . S
C5148 C5149 1.374 . S
C5149 H5129 0.950 . S
C5149 C5145 1.385 . S
C5149 C5148 1.374 . S
C5150 C5147 1.499 . S
C5150 C5151 1.373 . S
C5150 C5152 1.389 . S
C5151 H5130 0.950 . S
C5151 C5150 1.373 . S
C5151 C5167 1.377 . S
C5152 C5150 1.389 . S
C5152 C5153 1.524 . S
C5152 C5166 1.377 . S
C5153 C5152 1.524 . S
C5153 C5154 1.397 . S
C5153 C5158 1.363 . S
C5154 H5131 0.950 . S
C5154 C5153 1.397 . S
C5154 C5155 1.334 . S
C5155 H5132 0.950 . S
C5155 C5154 1.334 . S
C5155 C5156 1.287 . S
C5156 C5155 1.287 . S
C5156 C5157 1.524 . S
C5156 H5175 0.913 . S
C5157 H5133 0.950 . S
C5157 C5156 1.524 . S
C5157 C5158 1.415 . S
C5158 H5134 0.950 . S
C5158 C5153 1.363 . S
C5158 C5157 1.415 . S
C5159 H5135 0.951 . S
C5159 C5160 1.366 . S
C5159 C5161 1.388 . S
C5160 C5159 1.366 . S
C5160 C5164 1.385 . S
C5161 H5136 0.951 . S
C5161 C5159 1.388 . S
C5161 C5162 1.366 . S
C5162 C5161 1.366 . S
C5162 C5163 1.414 . S
C5162 C5165 1.499 . S
C5163 H5137 0.950 . S
C5163 C5162 1.414 . S
C5163 C5164 1.374 . S
C5164 H5138 0.950 . S
C5164 C5160 1.385 . S
C5164 C5163 1.374 . S
C5165 C5162 1.499 . S
C5165 C5166 1.373 . S
C5165 C5167 1.389 . S
C5166 H5139 0.950 . S
C5166 C5152 1.377 . S
C5166 C5165 1.373 . S
C5167 C5151 1.377 . S
C5167 C5165 1.389 . S
C5167 C5168 1.524 . S
C5168 C5167 1.524 . S
C5168 C5169 1.397 . S
C5168 C5173 1.363 . S
C5169 H5140 0.950 . S
C5169 C5168 1.397 . S
C5169 C5170 1.334 . S
C5170 H5141 0.950 . S
C5170 C5169 1.334 . S
C5170 C5171 1.287 . S
C5171 C5170 1.287 . S
C5171 C5172 1.524 . S
C5171 H5174 0.999 . S
C5172 H5142 0.950 . S
C5172 C5171 1.524 . S
C5172 C5173 1.415 . S
C5173 H5143 0.950 . S
C5173 C5168 1.363 . S
C5173 C5172 1.415 . S
H5174 C5171 0.999 . S
H5175 C5156 0.913 . S
H5176 C5194 0.951 . S
H5177 C5196 0.951 . S
H5178 C5198 0.950 . S
H5179 C5199 0.950 . S
H5180 C5201 0.950 . S
H5181 C5204 0.950 . S
H5182 C5205 0.950 . S
H5183 C5207 0.950 . S
H5184 C5208 0.950 . S
H5185 C5209 0.951 . S
H5186 C5211 0.951 . S
H5187 C5213 0.950 . S
H5188 C5214 0.950 . S
H5189 C5216 0.950 . S
H5190 C5219 0.950 . S
H5191 C5220 0.950 . S
H5192 C5222 0.950 . S
H5193 C5223 0.950 . S
C5194 H5176 0.951 . S
C5194 C5195 1.366 . S
C5194 C5196 1.388 . S
C5195 C5194 1.366 . S
C5195 C5199 1.385 . S
C5196 H5177 0.951 . S
C5196 C5194 1.388 . S
C5196 C5197 1.366 . S
C5197 C5196 1.366 . S
C5197 C5198 1.414 . S
C5197 C5200 1.499 . S
C5198 H5178 0.950 . S
C5198 C5197 1.414 . S
C5198 C5199 1.374 . S
C5199 H5179 0.950 . S
C5199 C5195 1.385 . S
C5199 C5198 1.374 . S
C5200 C5197 1.499 . S
C5200 C5201 1.373 . S
C5200 C5202 1.389 . S
C5201 H5180 0.950 . S
C5201 C5200 1.373 . S
C5201 C5217 1.377 . S
C5202 C5200 1.389 . S
C5202 C5203 1.524 . S
C5202 C5216 1.377 . S
C5203 C5202 1.524 . S
C5203 C5204 1.397 . S
C5203 C5208 1.363 . S
C5204 H5181 0.950 . S
C5204 C5203 1.397 . S
C5204 C5205 1.334 . S
C5205 H5182 0.950 . S
C5205 C5204 1.334 . S
C5205 C5206 1.287 . S
C5206 C5205 1.287 . S
C5206 C5207 1.524 . S
C5206 H5225 0.913 . S
C5207 H5183 0.950 . S
C5207 C5206 1.524 . S
C5207 C5208 1.415 . S
C5208 H5184 0.950 . S
C5208 C5203 1.363 . S
C5208 C5207 1.415 . S
C5209 H5185 0.951 . S
C5209 C5210 1.366 . S
C5209 C5211 1.388 . S
C5210 C5209 1.366 . S
C5210 C5214 1.385 . S
C5211 H5186 0.951 . S
C5211 C5209 1.388 . S
C5211 C5212 1.366 . S
C5212 C5211 1.366 . S
C5212 C5213 1.414 . S
C5212 C5215 1.499 . S
C5213 H5187 0.950 . S
C5213 C5212 1.414 . S
C5213 C5214 1.374 . S
C5214 H5188 0.950 . S
C5214 C5210 1.385 . S
C5214 C5213 1.374 . S
C5215 C5212 1.499 . S
C5215 C5216 1.373 . S
C5215 C5217 1.389 . S
C5216 H5189 0.950 . S
C5216 C5202 1.377 . S
C5216 C5215 1.373 . S
C5217 C5201 1.377 . S
C5217 C5215 1.389 . S
C5217 C5218 1.524 . S
C5218 C5217 1.524 . S
C5218 C5219 1.397 . S
C5218 C5223 1.363 . S
C5219 H5190 0.950 . S
C5219 C5218 1.397 . S
C5219 C5220 1.334 . S
C5220 H5191 0.950 . S
C5220 C5219 1.334 . S
C5220 C5221 1.287 . S
C5221 C5220 1.287 . S
C5221 C5222 1.524 . S
C5221 H5224 0.999 . S
C5222 H5192 0.950 . S
C5222 C5221 1.524 . S
C5222 C5223 1.415 . S
C5223 H5193 0.950 . S
C5223 C5218 1.363 . S
C5223 C5222 1.415 . S
H5224 C5221 0.999 . S
H5225 C5206 0.913 . S
H5226 C5244 0.951 . S
H5227 C5246 0.951 . S
H5228 C5248 0.950 . S
H5229 C5249 0.950 . S
H5230 C5251 0.950 . S
H5231 C5254 0.950 . S
H5232 C5255 0.950 . S
H5233 C5257 0.950 . S
H5234 C5258 0.950 . S
H5235 C5259 0.951 . S
H5236 C5261 0.951 . S
H5237 C5263 0.950 . S
H5238 C5264 0.950 . S
H5239 C5266 0.950 . S
H5240 C5269 0.950 . S
H5241 C5270 0.950 . S
H5242 C5272 0.950 . S
H5243 C5273 0.950 . S
C5244 H5226 0.951 . S
C5244 C5245 1.366 . S
C5244 C5246 1.388 . S
C5245 C5244 1.366 . S
C5245 C5249 1.385 . S
C5246 H5227 0.951 . S
C5246 C5244 1.388 . S
C5246 C5247 1.366 . S
C5247 C5246 1.366 . S
C5247 C5248 1.414 . S
C5247 C5250 1.499 . S
C5248 H5228 0.950 . S
C5248 C5247 1.414 . S
C5248 C5249 1.374 . S
C5249 H5229 0.950 . S
C5249 C5245 1.385 . S
C5249 C5248 1.374 . S
C5250 C5247 1.499 . S
C5250 C5251 1.373 . S
C5250 C5252 1.389 . S
C5251 H5230 0.950 . S
C5251 C5250 1.373 . S
C5251 C5267 1.377 . S
C5252 C5250 1.389 . S
C5252 C5253 1.524 . S
C5252 C5266 1.377 . S
C5253 C5252 1.524 . S
C5253 C5254 1.397 . S
C5253 C5258 1.363 . S
C5254 H5231 0.950 . S
C5254 C5253 1.397 . S
C5254 C5255 1.334 . S
C5255 H5232 0.950 . S
C5255 C5254 1.334 . S
C5255 C5256 1.287 . S
C5256 C5255 1.287 . S
C5256 C5257 1.524 . S
C5256 H5275 0.913 . S
C5257 H5233 0.950 . S
C5257 C5256 1.524 . S
C5257 C5258 1.415 . S
C5258 H5234 0.950 . S
C5258 C5253 1.363 . S
C5258 C5257 1.415 . S
C5259 H5235 0.951 . S
C5259 C5260 1.366 . S
C5259 C5261 1.388 . S
C5260 C5259 1.366 . S
C5260 C5264 1.385 . S
C5261 H5236 0.951 . S
C5261 C5259 1.388 . S
C5261 C5262 1.366 . S
C5262 C5261 1.366 . S
C5262 C5263 1.414 . S
C5262 C5265 1.499 . S
C5263 H5237 0.950 . S
C5263 C5262 1.414 . S
C5263 C5264 1.374 . S
C5264 H5238 0.950 . S
C5264 C5260 1.385 . S
C5264 C5263 1.374 . S
C5265 C5262 1.499 . S
C5265 C5266 1.373 . S
C5265 C5267 1.389 . S
C5266 H5239 0.950 . S
C5266 C5252 1.377 . S
C5266 C5265 1.373 . S
C5267 C5251 1.377 . S
C5267 C5265 1.389 . S
C5267 C5268 1.524 . S
C5268 C5267 1.524 . S
C5268 C5269 1.397 . S
C5268 C5273 1.363 . S
C5269 H5240 0.950 . S
C5269 C5268 1.397 . S
C5269 C5270 1.334 . S
C5270 H5241 0.950 . S
C5270 C5269 1.334 . S
C5270 C5271 1.287 . S
C5271 C5270 1.287 . S
C5271 C5272 1.524 . S
C5271 H5274 0.999 . S
C5272 H5242 0.950 . S
C5272 C5271 1.524 . S
C5272 C5273 1.415 . S
C5273 H5243 0.950 . S
C5273 C5268 1.363 . S
C5273 C5272 1.415 . S
H5274 C5271 0.999 . S
H5275 C5256 0.913 . S
H5276 C5294 0.951 . S
H5277 C5296 0.951 . S
H5278 C5298 0.950 . S
H5279 C5299 0.950 . S
H5280 C5301 0.950 . S
H5281 C5304 0.950 . S
H5282 C5305 0.950 . S
H5283 C5307 0.950 . S
H5284 C5308 0.950 . S
H5285 C5309 0.951 1_455 S
H5286 C5311 0.951 . S
H5287 C5313 0.950 . S
H5288 C5314 0.950 . S
H5289 C5316 0.950 . S
H5290 C5319 0.950 . S
H5291 C5320 0.950 . S
H5292 C5322 0.950 . S
H5293 C5323 0.950 . S
C5294 H5276 0.951 . S
C5294 C5295 1.366 . S
C5294 C5296 1.388 . S
C5295 C5294 1.366 . S
C5295 C5299 1.385 . S
C5296 H5277 0.951 . S
C5296 C5294 1.388 . S
C5296 C5297 1.366 . S
C5297 C5296 1.366 . S
C5297 C5298 1.414 . S
C5297 C5300 1.499 . S
C5298 H5278 0.950 . S
C5298 C5297 1.414 . S
C5298 C5299 1.374 . S
C5299 H5279 0.950 . S
C5299 C5295 1.385 . S
C5299 C5298 1.374 . S
C5300 C5297 1.499 . S
C5300 C5301 1.373 . S
C5300 C5302 1.389 . S
C5301 H5280 0.950 . S
C5301 C5300 1.373 . S
C5301 C5317 1.377 . S
C5302 C5300 1.389 . S
C5302 C5303 1.524 . S
C5302 C5316 1.377 . S
C5303 C5302 1.524 . S
C5303 C5304 1.397 . S
C5303 C5308 1.363 . S
C5304 H5281 0.950 . S
C5304 C5303 1.397 . S
C5304 C5305 1.334 . S
C5305 H5282 0.950 . S
C5305 C5304 1.334 . S
C5305 C5306 1.287 . S
C5306 C5305 1.287 . S
C5306 C5307 1.524 . S
C5306 H5325 0.913 . S
C5307 H5283 0.950 . S
C5307 C5306 1.524 . S
C5307 C5308 1.415 . S
C5308 H5284 0.950 . S
C5308 C5303 1.363 . S
C5308 C5307 1.415 . S
C5309 H5285 0.951 1_655 S
C5309 C5310 1.366 . S
C5309 C5311 1.388 . S
C5310 C5309 1.366 . S
C5310 C5314 1.385 . S
C5311 H5286 0.951 . S
C5311 C5309 1.388 . S
C5311 C5312 1.366 . S
C5312 C5311 1.366 . S
C5312 C5313 1.414 . S
C5312 C5315 1.499 . S
C5313 H5287 0.950 . S
C5313 C5312 1.414 . S
C5313 C5314 1.374 . S
C5314 H5288 0.950 . S
C5314 C5310 1.385 . S
C5314 C5313 1.374 . S
C5315 C5312 1.499 . S
C5315 C5316 1.373 . S
C5315 C5317 1.389 . S
C5316 H5289 0.950 . S
C5316 C5302 1.377 . S
C5316 C5315 1.373 . S
C5317 C5301 1.377 . S
C5317 C5315 1.389 . S
C5317 C5318 1.524 . S
C5318 C5317 1.524 . S
C5318 C5319 1.397 . S
C5318 C5323 1.363 1_655 S
C5319 H5290 0.950 . S
C5319 C5318 1.397 . S
C5319 C5320 1.334 1_655 S
C5320 H5291 0.950 . S
C5320 C5319 1.334 1_455 S
C5320 C5321 1.287 . S
C5321 C5320 1.287 . S
C5321 C5322 1.524 . S
C5321 H5324 0.999 . S
C5322 H5292 0.950 . S
C5322 C5321 1.524 . S
C5322 C5323 1.415 . S
C5323 H5293 0.950 . S
C5323 C5318 1.363 1_455 S
C5323 C5322 1.415 . S
H5324 C5321 0.999 . S
H5325 C5306 0.913 . S
H5326 C5344 0.951 . S
H5327 C5346 0.951 . S
H5328 C5348 0.950 . S
H5329 C5349 0.950 . S
H5330 C5351 0.950 . S
H5331 C5354 0.950 . S
H5332 C5355 0.950 . S
H5333 C5357 0.950 . S
H5334 C5358 0.950 . S
H5335 C5359 0.951 . S
H5336 C5361 0.951 . S
H5337 C5363 0.950 . S
H5338 C5364 0.950 . S
H5339 C5366 0.950 . S
H5340 C5369 0.950 . S
H5341 C5370 0.950 . S
H5342 C5372 0.950 . S
H5343 C5373 0.950 . S
C5344 H5326 0.951 . S
C5344 C5345 1.366 . S
C5344 C5346 1.388 . S
C5345 C5344 1.366 . S
C5345 C5349 1.385 . S
C5346 H5327 0.951 . S
C5346 C5344 1.388 . S
C5346 C5347 1.366 . S
C5347 C5346 1.366 . S
C5347 C5348 1.414 . S
C5347 C5350 1.499 . S
C5348 H5328 0.950 . S
C5348 C5347 1.414 . S
C5348 C5349 1.374 . S
C5349 H5329 0.950 . S
C5349 C5345 1.385 . S
C5349 C5348 1.374 . S
C5350 C5347 1.499 . S
C5350 C5351 1.373 . S
C5350 C5352 1.389 . S
C5351 H5330 0.950 . S
C5351 C5350 1.373 . S
C5351 C5367 1.377 . S
C5352 C5350 1.389 . S
C5352 C5353 1.524 . S
C5352 C5366 1.377 . S
C5353 C5352 1.524 . S
C5353 C5354 1.397 . S
C5353 C5358 1.363 . S
C5354 H5331 0.950 . S
C5354 C5353 1.397 . S
C5354 C5355 1.334 . S
C5355 H5332 0.950 . S
C5355 C5354 1.334 . S
C5355 C5356 1.287 . S
C5356 C5355 1.287 . S
C5356 C5357 1.524 . S
C5356 H5375 0.913 . S
C5357 H5333 0.950 . S
C5357 C5356 1.524 . S
C5357 C5358 1.415 . S
C5358 H5334 0.950 . S
C5358 C5353 1.363 . S
C5358 C5357 1.415 . S
C5359 H5335 0.951 . S
C5359 C5360 1.366 . S
C5359 C5361 1.388 . S
C5360 C5359 1.366 . S
C5360 C5364 1.385 . S
C5361 H5336 0.951 . S
C5361 C5359 1.388 . S
C5361 C5362 1.366 . S
C5362 C5361 1.366 . S
C5362 C5363 1.414 . S
C5362 C5365 1.499 . S
C5363 H5337 0.950 . S
C5363 C5362 1.414 . S
C5363 C5364 1.374 . S
C5364 H5338 0.950 . S
C5364 C5360 1.385 . S
C5364 C5363 1.374 . S
C5365 C5362 1.499 . S
C5365 C5366 1.373 . S
C5365 C5367 1.389 . S
C5366 H5339 0.950 . S
C5366 C5352 1.377 . S
C5366 C5365 1.373 . S
C5367 C5351 1.377 . S
C5367 C5365 1.389 . S
C5367 C5368 1.524 . S
C5368 C5367 1.524 . S
C5368 C5369 1.397 . S
C5368 C5373 1.363 . S
C5369 H5340 0.950 . S
C5369 C5368 1.397 . S
C5369 C5370 1.334 . S
C5370 H5341 0.950 . S
C5370 C5369 1.334 . S
C5370 C5371 1.287 . S
C5371 C5370 1.287 . S
C5371 C5372 1.524 . S
C5371 H5374 0.999 . S
C5372 H5342 0.950 . S
C5372 C5371 1.524 . S
C5372 C5373 1.415 . S
C5373 H5343 0.950 . S
C5373 C5368 1.363 . S
C5373 C5372 1.415 . S
H5374 C5371 0.999 . S
H5375 C5356 0.913 . S
H5376 C5394 0.951 . S
H5377 C5396 0.951 . S
H5378 C5398 0.950 . S
H5379 C5399 0.950 . S
H5380 C5401 0.950 . S
H5381 C5404 0.950 . S
H5382 C5405 0.950 . S
H5383 C5407 0.950 . S
H5384 C5408 0.950 . S
H5385 C5409 0.951 . S
H5386 C5411 0.951 . S
H5387 C5413 0.950 . S
H5388 C5414 0.950 . S
H5389 C5416 0.950 . S
H5390 C5419 0.950 . S
H5391 C5420 0.950 . S
H5392 C5422 0.950 . S
H5393 C5423 0.950 . S
C5394 H5376 0.951 . S
C5394 C5395 1.366 . S
C5394 C5396 1.388 . S
C5395 C5394 1.366 . S
C5395 C5399 1.385 . S
C5396 H5377 0.951 . S
C5396 C5394 1.388 . S
C5396 C5397 1.366 . S
C5397 C5396 1.366 . S
C5397 C5398 1.414 . S
C5397 C5400 1.499 . S
C5398 H5378 0.950 . S
C5398 C5397 1.414 . S
C5398 C5399 1.374 . S
C5399 H5379 0.950 . S
C5399 C5395 1.385 . S
C5399 C5398 1.374 . S
C5400 C5397 1.499 . S
C5400 C5401 1.373 . S
C5400 C5402 1.389 . S
C5401 H5380 0.950 . S
C5401 C5400 1.373 . S
C5401 C5417 1.377 . S
C5402 C5400 1.389 . S
C5402 C5403 1.524 . S
C5402 C5416 1.377 . S
C5403 C5402 1.524 . S
C5403 C5404 1.397 . S
C5403 C5408 1.363 . S
C5404 H5381 0.950 . S
C5404 C5403 1.397 . S
C5404 C5405 1.334 . S
C5405 H5382 0.950 . S
C5405 C5404 1.334 . S
C5405 C5406 1.287 . S
C5406 C5405 1.287 . S
C5406 C5407 1.524 . S
C5406 H5425 0.913 . S
C5407 H5383 0.950 . S
C5407 C5406 1.524 . S
C5407 C5408 1.415 . S
C5408 H5384 0.950 . S
C5408 C5403 1.363 . S
C5408 C5407 1.415 . S
C5409 H5385 0.951 . S
C5409 C5410 1.366 . S
C5409 C5411 1.388 . S
C5410 C5409 1.366 . S
C5410 C5414 1.385 . S
C5411 H5386 0.951 . S
C5411 C5409 1.388 . S
C5411 C5412 1.366 . S
C5412 C5411 1.366 . S
C5412 C5413 1.414 . S
C5412 C5415 1.499 . S
C5413 H5387 0.950 . S
C5413 C5412 1.414 . S
C5413 C5414 1.374 . S
C5414 H5388 0.950 . S
C5414 C5410 1.385 . S
C5414 C5413 1.374 . S
C5415 C5412 1.499 . S
C5415 C5416 1.373 . S
C5415 C5417 1.389 . S
C5416 H5389 0.950 . S
C5416 C5402 1.377 . S
C5416 C5415 1.373 . S
C5417 C5401 1.377 . S
C5417 C5415 1.389 . S
C5417 C5418 1.524 . S
C5418 C5417 1.524 . S
C5418 C5419 1.397 . S
C5418 C5423 1.363 . S
C5419 H5390 0.950 . S
C5419 C5418 1.397 . S
C5419 C5420 1.334 . S
C5420 H5391 0.950 . S
C5420 C5419 1.334 . S
C5420 C5421 1.287 . S
C5421 C5420 1.287 . S
C5421 C5422 1.524 . S
C5421 H5424 0.999 . S
C5422 H5392 0.950 . S
C5422 C5421 1.524 . S
C5422 C5423 1.415 . S
C5423 H5393 0.950 . S
C5423 C5418 1.363 . S
C5423 C5422 1.415 . S
H5424 C5421 0.999 . S
H5425 C5406 0.913 . S
H5426 C5444 0.951 . S
H5427 C5446 0.951 . S
H5428 C5448 0.950 . S
H5429 C5449 0.950 . S
H5430 C5451 0.950 . S
H5431 C5454 0.950 . S
H5432 C5455 0.950 . S
H5433 C5457 0.950 . S
H5434 C5458 0.950 . S
H5435 C5459 0.951 . S
H5436 C5461 0.951 1_545 S
H5437 C5463 0.950 . S
H5438 C5464 0.950 . S
H5439 C5466 0.950 . S
H5440 C5469 0.950 . S
H5441 C5470 0.950 . S
H5442 C5472 0.950 1_545 S
H5443 C5473 0.950 . S
C5444 H5426 0.951 . S
C5444 C5445 1.366 . S
C5444 C5446 1.388 . S
C5445 C5444 1.366 . S
C5445 C5449 1.385 . S
C5446 H5427 0.951 . S
C5446 C5444 1.388 . S
C5446 C5447 1.366 . S
C5447 C5446 1.366 . S
C5447 C5448 1.414 . S
C5447 C5450 1.499 . S
C5448 H5428 0.950 . S
C5448 C5447 1.414 . S
C5448 C5449 1.374 . S
C5449 H5429 0.950 . S
C5449 C5445 1.385 . S
C5449 C5448 1.374 . S
C5450 C5447 1.499 . S
C5450 C5451 1.373 . S
C5450 C5452 1.389 . S
C5451 H5430 0.950 . S
C5451 C5450 1.373 . S
C5451 C5467 1.377 . S
C5452 C5450 1.389 . S
C5452 C5453 1.524 . S
C5452 C5466 1.377 . S
C5453 C5452 1.524 . S
C5453 C5454 1.397 . S
C5453 C5458 1.363 . S
C5454 H5431 0.950 . S
C5454 C5453 1.397 . S
C5454 C5455 1.334 . S
C5455 H5432 0.950 . S
C5455 C5454 1.334 . S
C5455 C5456 1.287 . S
C5456 C5455 1.287 . S
C5456 C5457 1.524 . S
C5456 H5475 0.913 . S
C5457 H5433 0.950 . S
C5457 C5456 1.524 . S
C5457 C5458 1.415 . S
C5458 H5434 0.950 . S
C5458 C5453 1.363 . S
C5458 C5457 1.415 . S
C5459 H5435 0.951 . S
C5459 C5460 1.366 . S
C5459 C5461 1.388 1_545 S
C5460 C5459 1.366 . S
C5460 C5464 1.385 1_545 S
C5461 H5436 0.951 1_565 S
C5461 C5459 1.388 1_565 S
C5461 C5462 1.366 . S
C5462 C5461 1.366 . S
C5462 C5463 1.414 . S
C5462 C5465 1.499 . S
C5463 H5437 0.950 . S
C5463 C5462 1.414 . S
C5463 C5464 1.374 . S
C5464 H5438 0.950 . S
C5464 C5460 1.385 1_565 S
C5464 C5463 1.374 . S
C5465 C5462 1.499 . S
C5465 C5466 1.373 . S
C5465 C5467 1.389 . S
C5466 H5439 0.950 . S
C5466 C5452 1.377 . S
C5466 C5465 1.373 . S
C5467 C5451 1.377 . S
C5467 C5465 1.389 . S
C5467 C5468 1.524 . S
C5468 C5467 1.524 . S
C5468 C5469 1.397 . S
C5468 C5473 1.363 . S
C5469 H5440 0.950 . S
C5469 C5468 1.397 . S
C5469 C5470 1.334 . S
C5470 H5441 0.950 . S
C5470 C5469 1.334 . S
C5470 C5471 1.287 . S
C5471 C5470 1.287 . S
C5471 C5472 1.524 . S
C5471 H5474 0.999 . S
C5472 H5442 0.950 1_565 S
C5472 C5471 1.524 . S
C5472 C5473 1.415 . S
C5473 H5443 0.950 . S
C5473 C5468 1.363 . S
C5473 C5472 1.415 . S
H5474 C5471 0.999 . S
H5475 C5456 0.913 . S
H5476 C5494 0.951 . S
H5477 C5496 0.951 . S
H5478 C5498 0.950 . S
H5479 C5499 0.950 . S
H5480 C5501 0.950 . S
H5481 C5504 0.950 . S
H5482 C5505 0.950 . S
H5483 C5507 0.950 . S
H5484 C5508 0.950 . S
H5485 C5509 0.951 . S
H5486 C5511 0.951 . S
H5487 C5513 0.950 . S
H5488 C5514 0.950 . S
H5489 C5516 0.950 . S
H5490 C5519 0.950 . S
H5491 C5520 0.950 . S
H5492 C5522 0.950 . S
H5493 C5523 0.950 . S
C5494 H5476 0.951 . S
C5494 C5495 1.366 . S
C5494 C5496 1.388 . S
C5495 C5494 1.366 . S
C5495 C5499 1.385 . S
C5496 H5477 0.951 . S
C5496 C5494 1.388 . S
C5496 C5497 1.366 . S
C5497 C5496 1.366 . S
C5497 C5498 1.414 . S
C5497 C5500 1.499 . S
C5498 H5478 0.950 . S
C5498 C5497 1.414 . S
C5498 C5499 1.374 . S
C5499 H5479 0.950 . S
C5499 C5495 1.385 . S
C5499 C5498 1.374 . S
C5500 C5497 1.499 . S
C5500 C5501 1.373 . S
C5500 C5502 1.389 . S
C5501 H5480 0.950 . S
C5501 C5500 1.373 . S
C5501 C5517 1.377 . S
C5502 C5500 1.389 . S
C5502 C5503 1.524 . S
C5502 C5516 1.377 . S
C5503 C5502 1.524 . S
C5503 C5504 1.397 . S
C5503 C5508 1.363 . S
C5504 H5481 0.950 . S
C5504 C5503 1.397 . S
C5504 C5505 1.334 . S
C5505 H5482 0.950 . S
C5505 C5504 1.334 . S
C5505 C5506 1.287 . S
C5506 C5505 1.287 . S
C5506 C5507 1.524 . S
C5506 H5525 0.913 . S
C5507 H5483 0.950 . S
C5507 C5506 1.524 . S
C5507 C5508 1.415 . S
C5508 H5484 0.950 . S
C5508 C5503 1.363 . S
C5508 C5507 1.415 . S
C5509 H5485 0.951 . S
C5509 C5510 1.366 . S
C5509 C5511 1.388 . S
C5510 C5509 1.366 . S
C5510 C5514 1.385 . S
C5511 H5486 0.951 . S
C5511 C5509 1.388 . S
C5511 C5512 1.366 . S
C5512 C5511 1.366 . S
C5512 C5513 1.414 . S
C5512 C5515 1.499 . S
C5513 H5487 0.950 . S
C5513 C5512 1.414 . S
C5513 C5514 1.374 . S
C5514 H5488 0.950 . S
C5514 C5510 1.385 . S
C5514 C5513 1.374 . S
C5515 C5512 1.499 . S
C5515 C5516 1.373 . S
C5515 C5517 1.389 . S
C5516 H5489 0.950 . S
C5516 C5502 1.377 . S
C5516 C5515 1.373 . S
C5517 C5501 1.377 . S
C5517 C5515 1.389 . S
C5517 C5518 1.524 . S
C5518 C5517 1.524 . S
C5518 C5519 1.397 . S
C5518 C5523 1.363 . S
C5519 H5490 0.950 . S
C5519 C5518 1.397 . S
C5519 C5520 1.334 . S
C5520 H5491 0.950 . S
C5520 C5519 1.334 . S
C5520 C5521 1.287 . S
C5521 C5520 1.287 . S
C5521 C5522 1.524 . S
C5521 H5524 0.999 . S
C5522 H5492 0.950 . S
C5522 C5521 1.524 . S
C5522 C5523 1.415 . S
C5523 H5493 0.950 . S
C5523 C5518 1.363 . S
C5523 C5522 1.415 . S
H5524 C5521 0.999 . S
H5525 C5506 0.913 . S
H5526 C5544 0.951 . S
H5527 C5546 0.951 . S
H5528 C5548 0.950 . S
H5529 C5549 0.950 . S
H5530 C5551 0.950 . S
H5531 C5554 0.950 . S
H5532 C5555 0.950 . S
H5533 C5557 0.950 . S
H5534 C5558 0.950 . S
H5535 C5559 0.951 . S
H5536 C5561 0.951 . S
H5537 C5563 0.950 . S
H5538 C5564 0.950 . S
H5539 C5566 0.950 . S
H5540 C5569 0.950 . S
H5541 C5570 0.950 . S
H5542 C5572 0.950 . S
H5543 C5573 0.950 . S
C5544 H5526 0.951 . S
C5544 C5545 1.366 . S
C5544 C5546 1.388 . S
C5545 C5544 1.366 . S
C5545 C5549 1.385 . S
C5546 H5527 0.951 . S
C5546 C5544 1.388 . S
C5546 C5547 1.366 . S
C5547 C5546 1.366 . S
C5547 C5548 1.414 . S
C5547 C5550 1.499 . S
C5548 H5528 0.950 . S
C5548 C5547 1.414 . S
C5548 C5549 1.374 . S
C5549 H5529 0.950 . S
C5549 C5545 1.385 . S
C5549 C5548 1.374 . S
C5550 C5547 1.499 . S
C5550 C5551 1.373 1_554 S
C5550 C5552 1.389 . S
C5551 H5530 0.950 . S
C5551 C5550 1.373 1_556 S
C5551 C5567 1.377 . S
C5552 C5550 1.389 . S
C5552 C5553 1.524 . S
C5552 C5566 1.377 . S
C5553 C5552 1.524 . S
C5553 C5554 1.397 . S
C5553 C5558 1.363 . S
C5554 H5531 0.950 . S
C5554 C5553 1.397 . S
C5554 C5555 1.334 . S
C5555 H5532 0.950 . S
C5555 C5554 1.334 . S
C5555 C5556 1.287 . S
C5556 C5555 1.287 . S
C5556 C5557 1.524 . S
C5556 H5575 0.913 . S
C5557 H5533 0.950 . S
C5557 C5556 1.524 . S
C5557 C5558 1.415 . S
C5558 H5534 0.950 . S
C5558 C5553 1.363 . S
C5558 C5557 1.415 . S
C5559 H5535 0.951 . S
C5559 C5560 1.366 . S
C5559 C5561 1.388 . S
C5560 C5559 1.366 . S
C5560 C5564 1.385 . S
C5561 H5536 0.951 . S
C5561 C5559 1.388 . S
C5561 C5562 1.366 . S
C5562 C5561 1.366 . S
C5562 C5563 1.414 . S
C5562 C5565 1.499 . S
C5563 H5537 0.950 . S
C5563 C5562 1.414 . S
C5563 C5564 1.374 . S
C5564 H5538 0.950 . S
C5564 C5560 1.385 . S
C5564 C5563 1.374 . S
C5565 C5562 1.499 . S
C5565 C5566 1.373 . S
C5565 C5567 1.389 1_554 S
C5566 H5539 0.950 . S
C5566 C5552 1.377 . S
C5566 C5565 1.373 . S
C5567 C5551 1.377 . S
C5567 C5565 1.389 1_556 S
C5567 C5568 1.524 . S
C5568 C5567 1.524 . S
C5568 C5569 1.397 . S
C5568 C5573 1.363 . S
C5569 H5540 0.950 . S
C5569 C5568 1.397 . S
C5569 C5570 1.334 . S
C5570 H5541 0.950 . S
C5570 C5569 1.334 . S
C5570 C5571 1.287 . S
C5571 C5570 1.287 . S
C5571 C5572 1.524 . S
C5571 H5574 0.999 . S
C5572 H5542 0.950 . S
C5572 C5571 1.524 . S
C5572 C5573 1.415 . S
C5573 H5543 0.950 . S
C5573 C5568 1.363 . S
C5573 C5572 1.415 . S
H5574 C5571 0.999 . S
H5575 C5556 0.913 . S
H5576 C5594 0.951 . S
H5577 C5596 0.951 . S
H5578 C5598 0.950 . S
H5579 C5599 0.950 . S
H5580 C5601 0.950 . S
H5581 C5604 0.950 . S
H5582 C5605 0.950 . S
H5583 C5607 0.950 . S
H5584 C5608 0.950 . S
H5585 C5609 0.951 . S
H5586 C5611 0.951 . S
H5587 C5613 0.950 . S
H5588 C5614 0.950 . S
H5589 C5616 0.950 . S
H5590 C5619 0.950 . S
H5591 C5620 0.950 . S
H5592 C5622 0.950 . S
H5593 C5623 0.950 . S
C5594 H5576 0.951 . S
C5594 C5595 1.366 . S
C5594 C5596 1.388 . S
C5595 C5594 1.366 . S
C5595 C5599 1.385 . S
C5596 H5577 0.951 . S
C5596 C5594 1.388 . S
C5596 C5597 1.366 . S
C5597 C5596 1.366 . S
C5597 C5598 1.414 . S
C5597 C5600 1.499 . S
C5598 H5578 0.950 . S
C5598 C5597 1.414 . S
C5598 C5599 1.374 . S
C5599 H5579 0.950 . S
C5599 C5595 1.385 . S
C5599 C5598 1.374 . S
C5600 C5597 1.499 . S
C5600 C5601 1.373 . S
C5600 C5602 1.389 . S
C5601 H5580 0.950 . S
C5601 C5600 1.373 . S
C5601 C5617 1.377 . S
C5602 C5600 1.389 . S
C5602 C5603 1.524 . S
C5602 C5616 1.377 . S
C5603 C5602 1.524 . S
C5603 C5604 1.397 . S
C5603 C5608 1.363 . S
C5604 H5581 0.950 . S
C5604 C5603 1.397 . S
C5604 C5605 1.334 . S
C5605 H5582 0.950 . S
C5605 C5604 1.334 . S
C5605 C5606 1.287 . S
C5606 C5605 1.287 . S
C5606 C5607 1.524 . S
C5606 H5625 0.913 . S
C5607 H5583 0.950 . S
C5607 C5606 1.524 . S
C5607 C5608 1.415 . S
C5608 H5584 0.950 . S
C5608 C5603 1.363 . S
C5608 C5607 1.415 . S
C5609 H5585 0.951 . S
C5609 C5610 1.366 . S
C5609 C5611 1.388 . S
C5610 C5609 1.366 . S
C5610 C5614 1.385 . S
C5611 H5586 0.951 . S
C5611 C5609 1.388 . S
C5611 C5612 1.366 . S
C5612 C5611 1.366 . S
C5612 C5613 1.414 . S
C5612 C5615 1.499 . S
C5613 H5587 0.950 . S
C5613 C5612 1.414 . S
C5613 C5614 1.374 . S
C5614 H5588 0.950 . S
C5614 C5610 1.385 . S
C5614 C5613 1.374 . S
C5615 C5612 1.499 . S
C5615 C5616 1.373 . S
C5615 C5617 1.389 . S
C5616 H5589 0.950 . S
C5616 C5602 1.377 . S
C5616 C5615 1.373 . S
C5617 C5601 1.377 . S
C5617 C5615 1.389 . S
C5617 C5618 1.524 . S
C5618 C5617 1.524 . S
C5618 C5619 1.397 . S
C5618 C5623 1.363 . S
C5619 H5590 0.950 . S
C5619 C5618 1.397 . S
C5619 C5620 1.334 . S
C5620 H5591 0.950 . S
C5620 C5619 1.334 . S
C5620 C5621 1.287 . S
C5621 C5620 1.287 . S
C5621 C5622 1.524 . S
C5621 H5624 0.999 . S
C5622 H5592 0.950 . S
C5622 C5621 1.524 . S
C5622 C5623 1.415 . S
C5623 H5593 0.950 . S
C5623 C5618 1.363 . S
C5623 C5622 1.415 . S
H5624 C5621 0.999 . S
H5625 C5606 0.913 . S
H5626 C5644 0.951 1_556 S
H5627 C5646 0.951 . S
H5628 C5648 0.950 . S
H5629 C5649 0.950 . S
H5630 C5651 0.950 . S
H5631 C5654 0.950 . S
H5632 C5655 0.950 . S
H5633 C5657 0.950 . S
H5634 C5658 0.950 . S
H5635 C5659 0.951 . S
H5636 C5661 0.951 . S
H5637 C5663 0.950 . S
H5638 C5664 0.950 . S
H5639 C5666 0.950 . S
H5640 C5669 0.950 . S
H5641 C5670 0.950 . S
H5642 C5672 0.950 . S
H5643 C5673 0.950 . S
C5644 H5626 0.951 1_554 S
C5644 C5645 1.366 . S
C5644 C5646 1.388 1_554 S
C5645 C5644 1.366 . S
C5645 C5649 1.385 . S
C5646 H5627 0.951 . S
C5646 C5644 1.388 1_556 S
C5646 C5647 1.366 1_556 S
C5647 C5646 1.366 1_554 S
C5647 C5648 1.414 . S
C5647 C5650 1.499 . S
C5648 H5628 0.950 . S
C5648 C5647 1.414 . S
C5648 C5649 1.374 . S
C5649 H5629 0.950 . S
C5649 C5645 1.385 . S
C5649 C5648 1.374 . S
C5650 C5647 1.499 . S
C5650 C5651 1.373 . S
C5650 C5652 1.389 . S
C5651 H5630 0.950 . S
C5651 C5650 1.373 . S
C5651 C5667 1.377 . S
C5652 C5650 1.389 . S
C5652 C5653 1.524 . S
C5652 C5666 1.377 1_554 S
C5653 C5652 1.524 . S
C5653 C5654 1.397 . S
C5653 C5658 1.363 1_554 S
C5654 H5631 0.950 . S
C5654 C5653 1.397 . S
C5654 C5655 1.334 . S
C5655 H5632 0.950 . S
C5655 C5654 1.334 . S
C5655 C5656 1.287 . S
C5656 C5655 1.287 . S
C5656 C5657 1.524 1_554 S
C5656 H5675 0.913 . S
C5657 H5633 0.950 . S
C5657 C5656 1.524 1_556 S
C5657 C5658 1.415 . S
C5658 H5634 0.950 . S
C5658 C5653 1.363 1_556 S
C5658 C5657 1.415 . S
C5659 H5635 0.951 . S
C5659 C5660 1.366 1_554 S
C5659 C5661 1.388 . S
C5660 C5659 1.366 1_556 S
C5660 C5664 1.385 . S
C5661 H5636 0.951 . S
C5661 C5659 1.388 . S
C5661 C5662 1.366 1_554 S
C5662 C5661 1.366 1_556 S
C5662 C5663 1.414 . S
C5662 C5665 1.499 . S
C5663 H5637 0.950 . S
C5663 C5662 1.414 . S
C5663 C5664 1.374 . S
C5664 H5638 0.950 . S
C5664 C5660 1.385 . S
C5664 C5663 1.374 . S
C5665 C5662 1.499 . S
C5665 C5666 1.373 . S
C5665 C5667 1.389 1_556 S
C5666 H5639 0.950 . S
C5666 C5652 1.377 1_556 S
C5666 C5665 1.373 . S
C5667 C5651 1.377 . S
C5667 C5665 1.389 1_554 S
C5667 C5668 1.524 . S
C5668 C5667 1.524 . S
C5668 C5669 1.397 1_554 S
C5668 C5673 1.363 . S
C5669 H5640 0.950 . S
C5669 C5668 1.397 1_556 S
C5669 C5670 1.334 . S
C5670 H5641 0.950 . S
C5670 C5669 1.334 . S
C5670 C5671 1.335 . S
C5671 C5670 1.335 . S
C5671 C5672 1.479 1_556 S
C5671 H5674 0.991 . S
C5672 H5642 0.950 . S
C5672 C5671 1.479 1_554 S
C5672 C5673 1.415 . S
C5673 H5643 0.950 . S
C5673 C5668 1.363 . S
C5673 C5672 1.415 . S
H5674 C5671 0.991 . S
H5675 C5656 0.913 . S
H5676 C5694 0.951 1_545 S
H5677 C5696 0.951 . S
H5678 C5698 0.950 . S
H5679 C5699 0.950 . S
H5680 C5701 0.950 . S
H5681 C5704 0.950 . S
H5682 C5705 0.950 . S
H5683 C5707 0.950 . S
H5684 C5708 0.950 . S
H5685 C5709 0.951 . S
H5686 C5711 0.951 . S
H5687 C5713 0.950 . S
H5688 C5714 0.950 . S
H5689 C5716 0.950 . S
H5690 C5719 0.950 . S
H5691 C5720 0.950 . S
H5692 C5722 0.950 . S
H5693 C5723 0.950 . S
C5694 H5676 0.951 1_565 S
C5694 C5695 1.365 1_565 S
C5694 C5696 1.388 . S
C5695 C5694 1.365 1_545 S
C5695 C5699 1.371 1_545 S
C5696 H5677 0.951 . S
C5696 C5694 1.388 . S
C5696 C5697 1.366 . S
C5697 C5696 1.366 . S
C5697 C5698 1.414 . S
C5697 C5700 1.499 . S
C5698 H5678 0.950 . S
C5698 C5697 1.414 . S
C5698 C5699 1.374 . S
C5699 H5679 0.950 . S
C5699 C5695 1.371 1_565 S
C5699 C5698 1.374 . S
C5700 C5697 1.499 . S
C5700 C5701 1.373 . S
C5700 C5702 1.389 . S
C5701 H5680 0.950 . S
C5701 C5700 1.373 . S
C5701 C5717 1.377 . S
C5702 C5700 1.389 . S
C5702 C5703 1.524 . S
C5702 C5716 1.377 . S
C5703 C5702 1.524 . S
C5703 C5704 1.397 . S
C5703 C5708 1.363 . S
C5704 H5681 0.950 . S
C5704 C5703 1.397 . S
C5704 C5705 1.334 . S
C5705 H5682 0.950 . S
C5705 C5704 1.334 . S
C5705 C5706 1.287 . S
C5706 C5705 1.287 . S
C5706 C5707 1.524 . S
C5706 H5725 0.913 . S
C5707 H5683 0.950 . S
C5707 C5706 1.524 . S
C5707 C5708 1.415 . S
C5708 H5684 0.950 . S
C5708 C5703 1.363 . S
C5708 C5707 1.415 . S
C5709 H5685 0.951 . S
C5709 C5710 1.366 . S
C5709 C5711 1.388 . S
C5710 C5709 1.366 . S
C5710 C5714 1.385 . S
C5711 H5686 0.951 . S
C5711 C5709 1.388 . S
C5711 C5712 1.366 . S
C5712 C5711 1.366 . S
C5712 C5713 1.414 . S
C5712 C5715 1.499 . S
C5713 H5687 0.950 . S
C5713 C5712 1.414 . S
C5713 C5714 1.374 . S
C5714 H5688 0.950 . S
C5714 C5710 1.385 . S
C5714 C5713 1.374 . S
C5715 C5712 1.499 . S
C5715 C5716 1.373 . S
C5715 C5717 1.389 . S
C5716 H5689 0.950 . S
C5716 C5702 1.377 . S
C5716 C5715 1.373 . S
C5717 C5701 1.377 . S
C5717 C5715 1.389 . S
C5717 C5718 1.524 . S
C5718 C5717 1.524 . S
C5718 C5719 1.397 . S
C5718 C5723 1.363 . S
C5719 H5690 0.950 . S
C5719 C5718 1.397 . S
C5719 C5720 1.334 . S
C5720 H5691 0.950 . S
C5720 C5719 1.334 . S
C5720 C5721 1.287 . S
C5721 C5720 1.287 . S
C5721 C5722 1.524 . S
C5721 H5724 0.999 . S
C5722 H5692 0.950 . S
C5722 C5721 1.524 . S
C5722 C5723 1.415 . S
C5723 H5693 0.950 . S
C5723 C5718 1.363 . S
C5723 C5722 1.415 . S
H5724 C5721 0.999 . S
H5725 C5706 0.913 . S
H5726 C5744 0.951 . S
H5727 C5746 0.951 . S
H5728 C5748 0.950 . S
H5729 C5749 0.950 . S
H5730 C5751 0.950 . S
H5731 C5754 0.950 . S
H5732 C5755 0.950 . S
H5733 C5757 0.950 . S
H5734 C5758 0.950 . S
H5735 C5759 0.951 . S
H5736 C5761 0.951 . S
H5737 C5763 0.950 . S
H5738 C5764 0.950 . S
H5739 C5766 0.950 . S
H5740 C5769 0.950 . S
H5741 C5770 0.950 . S
H5742 C5772 0.950 . S
H5743 C5773 0.950 . S
C5744 H5726 0.951 . S
C5744 C5745 1.366 . S
C5744 C5746 1.388 . S
C5745 C5744 1.366 . S
C5745 C5749 1.385 . S
C5746 H5727 0.951 . S
C5746 C5744 1.388 . S
C5746 C5747 1.366 . S
C5747 C5746 1.366 . S
C5747 C5748 1.414 . S
C5747 C5750 1.499 . S
C5748 H5728 0.950 . S
C5748 C5747 1.414 . S
C5748 C5749 1.374 . S
C5749 H5729 0.950 . S
C5749 C5745 1.385 . S
C5749 C5748 1.374 . S
C5750 C5747 1.499 . S
C5750 C5751 1.373 . S
C5750 C5752 1.389 . S
C5751 H5730 0.950 . S
C5751 C5750 1.373 . S
C5751 C5767 1.377 . S
C5752 C5750 1.389 . S
C5752 C5753 1.524 . S
C5752 C5766 1.377 . S
C5753 C5752 1.524 . S
C5753 C5754 1.397 . S
C5753 C5758 1.363 . S
C5754 H5731 0.950 . S
C5754 C5753 1.397 . S
C5754 C5755 1.334 . S
C5755 H5732 0.950 . S
C5755 C5754 1.334 . S
C5755 C5756 1.287 . S
C5756 C5755 1.287 . S
C5756 C5757 1.524 . S
C5756 H5775 0.913 . S
C5757 H5733 0.950 . S
C5757 C5756 1.524 . S
C5757 C5758 1.415 . S
C5758 H5734 0.950 . S
C5758 C5753 1.363 . S
C5758 C5757 1.415 . S
C5759 H5735 0.951 . S
C5759 C5760 1.366 . S
C5759 C5761 1.388 . S
C5760 C5759 1.366 . S
C5760 C5764 1.385 . S
C5761 H5736 0.951 . S
C5761 C5759 1.388 . S
C5761 C5762 1.366 . S
C5762 C5761 1.366 . S
C5762 C5763 1.414 . S
C5762 C5765 1.499 . S
C5763 H5737 0.950 . S
C5763 C5762 1.414 . S
C5763 C5764 1.374 . S
C5764 H5738 0.950 . S
C5764 C5760 1.385 . S
C5764 C5763 1.374 . S
C5765 C5762 1.499 . S
C5765 C5766 1.373 . S
C5765 C5767 1.389 . S
C5766 H5739 0.950 . S
C5766 C5752 1.377 . S
C5766 C5765 1.373 . S
C5767 C5751 1.377 . S
C5767 C5765 1.389 . S
C5767 C5768 1.524 . S
C5768 C5767 1.524 . S
C5768 C5769 1.397 . S
C5768 C5773 1.363 . S
C5769 H5740 0.950 . S
C5769 C5768 1.397 . S
C5769 C5770 1.334 . S
C5770 H5741 0.950 . S
C5770 C5769 1.334 . S
C5770 C5771 1.287 . S
C5771 C5770 1.287 . S
C5771 C5772 1.524 . S
C5771 H5774 0.999 . S
C5772 H5742 0.950 . S
C5772 C5771 1.524 . S
C5772 C5773 1.415 . S
C5773 H5743 0.950 . S
C5773 C5768 1.363 . S
C5773 C5772 1.415 . S
H5774 C5771 0.999 . S
H5775 C5756 0.913 . S
C995 C111 2.048 . S
C1010 C338 2.062 . S
C1045 C64 2.043 . S
C1060 C395 2.113 . S
C1095 C77 0.925 . S
C1110 C418 0.920 . S
C1160 C472 1.204 . S
C1145 C95 1.214 . S
C1195 C25 1.004 . S
C1210 C512 0.983 . S
C1260 C543 0.325 . S
C1245 C36 0.414 . S
C1310 C595 1.104 . S
C1295 C50 1.044 . S
C1345 C11 1.593 . S
C1360 C618 1.544 . S
C1410 C355 2.335 . S
C1395 C237 2.228 . S
C1445 C245 0.246 . S
C1460 C392 0.374 . S
C1510 C435 1.206 . S
C1495 C279 1.141 . S
C1560 C458 1.117 . S
C1545 C175 1.122 . S
C1595 C231 1.594 . S
C1610 C498 1.599 . S
C1660 C546 1.350 . S
C1645 C251 1.296 . S
C1710 C592 0.337 . S
C1695 C273 0.174 . S
C1760 C635 1.873 . S
C1745 C181 1.827 . S
C1810 C352 1.304 . S
C1795 C165 1.332 . S
C1845 C288 1.938 1_556 S
C1860 C675 1.997 . S
C1910 C707 2.523 . S
C1895 C333 2.561 . S
C1960 C738 0.405 . S
C1945 C316 0.458 . S
C1995 C123 1.149 . S
C2010 C632 1.112 . S
C2045 C137 1.385 . S
C2060 C432 1.356 . S
C2095 C330 2.240 . S
C2110 C795 2.300 . S
C2160 C818 0.424 . S
C2145 C302 0.408 . S
C2210 C347 2.200 . S
C2195 C63 2.221 . S
C2260 C826 2.161 . S
C2245 C106 2.157 . S
C2295 C97 1.029 . S
C2310 C427 1.056 . S
C2345 C81 1.294 . S
C2360 C783 1.294 . S
C2410 C503 1.117 . S
C2395 C13 1.056 . S
C2445 C55 0.491 . S
C2460 C712 0.319 . S
C2510 C586 1.147 1_565 S
C2495 C35 1.127 . S
C2560 C867 1.752 . S
C2545 C21 1.794 . S
C2610 C346 2.468 . S
C2595 C147 2.485 . S
C2660 C823 0.339 . S
C2645 C321 0.505 . S
C2695 C119 1.301 . S
C2710 C426 1.289 . S
C2745 C293 1.237 . S
C2760 C787 1.293 . S
C2795 C153 1.672 . S
C2810 C507 1.823 . S
C2860 C715 1.397 . S
C2845 C315 1.425 . S
C2895 C125 0.456 . S
C2910 C583 0.287 . S
C2945 C287 2.033 . S
C2960 C866 1.999 . S
C2995 C193 1.374 . S
C3010 C343 1.369 . S
C3045 C176 2.019 . S
C3060 C666 2.038 . S
C3095 C263 2.516 . S
C3110 C538 2.475 . S
C3145 C246 0.684 . S
C3160 C747 0.666 . S
C3210 C863 1.174 . S
C3195 C277 1.181 . S
C3245 C221 1.397 . S
C3260 C423 1.393 . S
C3310 C466 2.370 . S
C3295 C260 2.346 . S
C3360 C387 0.574 . S
C3345 C204 0.590 . S
C3395 C83 2.048 . S
C3410 C898 2.062 . S
C3460 C835 2.113 . S
C3445 C92 2.044 . S
C3495 C105 0.925 . S
C3510 C938 0.920 . S
C3545 C67 1.214 . S
C3560 C792 1.205 . S
C3595 C53 1.004 . S
C3610 C672 0.982 . S
C3660 C703 0.324 . S
C3645 C8 0.417 . S
C3710 C755 1.104 . S
C3695 C22 1.043 . S
C3760 C858 1.544 . S
C3745 C39 1.593 . S
C3810 C915 2.335 . S
C3795 C265 2.227 . S
C3845 C189 0.243 . S
C3860 C832 0.371 . S
C3910 C955 1.206 . S
C3895 C209 1.142 . S
C3960 C778 1.118 . S
C3945 C217 1.122 . S
C4010 C658 1.600 . S
C3995 C259 1.594 . S
C4045 C195 1.296 . S
C4060 C706 1.350 . S
C4110 C752 0.334 . S
C4095 C203 0.173 . S
C4145 C223 1.827 . S
C4160 C875 1.873 . S
C4210 C912 1.303 . S
C4195 C319 1.332 . S
C4245 C134 1.938 . S
C4260 C515 1.997 . S
C4310 C547 2.524 . S
C4295 C151 2.568 . S
C4360 C578 0.404 . S
C4345 C162 0.459 . S
C4410 C872 1.113 . S
C4395 C305 1.149 . S
C4445 C291 1.385 . S
C4460 C952 1.355 . S
C4510 C475 2.299 . S
C4495 C148 2.233 . S
C4560 C378 0.423 . S
C4545 C120 0.406 . S
C4595 C91 2.221 . S
C4610 C907 2.200 . S
C4660 C386 2.160 . S
C4645 C78 2.156 . S
C4695 C69 1.027 . S
C4710 C947 1.056 . S
C4745 C109 1.295 . S
C4760 C463 1.294 . S
C4795 C41 1.057 . S
C4810 C663 1.118 . S
C4860 C552 0.320 . S
C4845 C27 0.489 . S
C4895 C7 1.128 . S
C4910 C746 1.147 . S
C4945 C49 1.787 . S
C4960 C627 1.752 . S
C5010 C906 2.468 . S
C4995 C329 2.485 . S
C5045 C167 0.508 . S
C5060 C383 0.340 . S
C5110 C946 1.289 . S
C5095 C301 1.301 . S
C5145 C139 1.237 . S
C5160 C467 1.294 . S
C5195 C335 1.673 . S
C5210 C667 1.826 . S
C5260 C555 1.397 . S
C5245 C161 1.424 . S
C5295 C307 0.457 . S
C5310 C743 0.288 . S
C5360 C626 2.000 . S
C5345 C133 2.033 . S
C5410 C903 1.370 . S
C5395 C249 1.375 . S
C5460 C506 2.038 1_655 S
C5445 C218 2.019 . S
C5495 C235 2.516 . S
C5510 C698 2.475 . S
C5560 C587 0.665 . S
C5545 C190 0.687 . S
C5595 C207 1.182 . S
C5610 C623 1.175 . S
C5645 C179 1.397 . S
C5660 C943 1.393 . S
C5710 C786 2.371 . S
C5695 C232 2.360 . S
C5760 C827 0.572 . S
C5745 C274 0.591 . S
