# Generated by pormake.
# Topology scu, (8,4)-cn, num edge types: 1
# Building blocks:
#     Node 0, Type 0, BuildingBlock: GIZVER_clean_sbu_0, # of connection points: 8
#     Node 1, Type 1, BuildingBlock: MUDLON_clean_sbu_0, # of connection points: 4
#     Node 2, Type 1, BuildingBlock: MUDLON_clean_sbu_0, # of connection points: 4
#     Edge 3, Type (0, 1), BuildingBlock: TEMPAE_clean_linker_10, # of connection points: 2
#     Edge 4, Type (0, 1), BuildingBlock: TEMPAE_clean_linker_10, # of connection points: 2
#     Edge 5, Type (0, 1), BuildingBlock: TEMPAE_clean_linker_10, # of connection points: 2
#     Edge 6, Type (0, 1), BuildingBlock: TEMPAE_clean_linker_10, # of connection points: 2
#     Edge 7, Type (0, 1), BuildingBlock: TEMPAE_clean_linker_10, # of connection points: 2
#     Edge 8, Type (0, 1), BuildingBlock: TEMPAE_clean_linker_10, # of connection points: 2
#     Edge 9, Type (0, 1), BuildingBlock: TEMPAE_clean_linker_10, # of connection points: 2
#     Edge 10, Type (0, 1), BuildingBlock: TEMPAE_clean_linker_10, # of connection points: 2
# Relax obj value: 0.010
# Max RMSD: 0.074
# Mean RMSD: 0.042
data_MOF--net-scu--node1-GIZVER_clean_sbu_0--node2-MUDLON_clean_sbu_0--edge1-TEMPAE_clean_linker_10
_symmetry_space_group_name_H-M    P1
_symmetry_Int_Tables_number       1
_symmetry_cell_setting            triclinic
loop_
_symmetry_equiv_pos_as_xyz
'x, y, z'
_cell_length_a     23.577082
_cell_length_b     24.032111
_cell_length_c     23.034446
_cell_angle_alpha  99.513625
_cell_angle_beta   80.928008
_cell_angle_gamma 115.90964
loop_
_atom_site_label
_atom_site_type_symbol
_atom_site_fract_x
_atom_site_fract_y
_atom_site_fract_z
_atom_type_partial_charge
Co0 Co 0.03565 0.96558 0.17533 0.0
Co1 Co 0.1248 0.05499 0.11825 0.0
Co2 Co 1.00051 1.01597 0.05929 0.0
O3 O 0.05124 0.98443 0.09478 0.0
H4 H 0.06243 0.95491 0.0674 0.0
O5 O 0.95382 0.05324 1.0251 0.0
Co6 Co 0.99049 0.09036 0.95249 0.0
Co7 Co 0.88665 1.00038 0.98517 0.0
H8 H 0.94056 0.08005 0.0544 0.0
O9 O 0.19712 0.04757 0.12647 0.0
O10 O 0.11542 0.03932 0.19583 0.0
O11 O 0.12925 0.13837 0.12536 0.0
O12 O 0.02797 0.0965 0.11167 0.0
O13 O 0.07478 0.048 0.99875 0.0
O14 O 0.02372 0.13005 0.88886 0.0
O15 O 0.96941 0.1562 0.96994 0.0
O16 O 0.01878 0.02812 0.92411 0.0
O17 O 0.96806 0.93311 1.00706 0.0
O18 O 0.88018 0.91771 0.96819 0.0
O19 O 0.91059 0.03916 0.91623 0.0
O20 O 0.82273 0.02344 0.97891 0.0
C21 C 0.05743 0.91272 0.22258 0.0
C22 C 0.93289 0.9939 0.17548 0.0
C23 C 0.07666 0.14184 0.13095 0.0
C24 C 0.173 0.04385 0.18119 0.0
C25 C 1.00163 0.16844 0.91834 0.0
C26 C 0.06644 0.02957 0.94433 0.0
C27 C 0.92093 0.89923 0.97661 0.0
C28 C 0.85737 0.04448 0.93078 0.0
O29 O 0.02425 0.94309 0.24752 0.0
O30 O 0.07743 0.91597 0.16642 0.0
O31 O 0.92741 0.98158 0.11999 0.0
O32 O 0.98657 1.01302 0.19542 0.0
Mg33 Mg 0.03525 0.53117 0.56035 0.0
C34 C 0.99906 0.40373 0.4911 0.0
O35 O 0.01878 0.39348 0.53672 0.0
C36 C 0.9982 0.62276 0.63642 0.0
O37 O 0.05238 0.65689 0.60829 0.0
C38 C 0.07077 0.5068 0.6725 0.0
O39 O 0.05489 0.55217 0.69629 0.0
O40 O 0.07593 0.49529 0.61635 0.0
O41 O 0.99287 0.45399 0.49307 0.0
O42 O 0.09028 0.60669 0.50408 0.0
C43 C 0.05398 0.60624 0.46815 0.0
O44 O 0.99531 0.56342 0.47057 0.0
O45 O 0.97395 0.56407 0.62274 0.0
Mg46 Mg 0.50946 0.02619 0.56053 0.0
C47 C 0.43247 0.0224 0.477 0.0
O48 O 0.41756 0.96544 0.48803 0.0
C49 C 0.58912 0.0482 0.64965 0.0
O50 O 0.53973 0.99457 0.65486 0.0
C51 C 0.38677 0.94617 0.64551 0.0
O52 O 0.38409 0.89232 0.6193 0.0
O53 O 0.42966 0.99648 0.62788 0.0
O54 O 0.47612 0.0673 0.50418 0.0
O55 O 0.53723 0.96371 0.49474 0.0
C56 C 0.58216 0.94901 0.49842 0.0
O57 O 0.60366 0.95764 0.54987 0.0
O58 O 0.59126 0.08091 0.61049 0.0
C59 C 0.11557 0.23861 0.20292 0.0
C60 C 0.06642 0.19186 0.17213 0.0
C61 C 0.10273 0.27744 0.25079 0.0
C62 C 0.03925 0.26857 0.26872 0.0
C63 C 0.99004 0.22399 0.23567 0.0
C64 C 0.00431 0.18689 0.18741 0.0
C65 C 0.15664 0.32541 0.28435 0.0
C66 C 0.92159 0.21188 0.25406 0.0
C67 C 1.0016 0.30757 0.43254 0.0
C68 C 0.99973 0.36527 0.43389 0.0
C69 C 0.01285 0.27499 0.37891 0.0
C70 C 0.02348 0.30121 0.32529 0.0
C71 C 0.01942 0.35838 0.32607 0.0
C72 C 0.0071 0.38955 0.38036 0.0
C73 C 0.01612 0.2138 0.38014 0.0
C74 C 0.03073 0.38788 0.26986 0.0
H75 H 0.16363 0.24302 0.19148 0.0
H76 H 0.96572 0.15111 0.16403 0.0
H77 H 0.15334 0.37077 0.29225 0.0
H78 H 0.15365 0.31035 0.32817 0.0
H79 H 0.20358 0.33219 0.26047 0.0
H80 H 0.88962 0.17958 0.22073 0.0
H81 H 0.90618 0.19106 0.29657 0.0
H82 H 0.91598 0.25606 0.26134 0.0
H83 H 0.99602 0.28855 0.47369 0.0
H84 H 0.00634 0.43442 0.381 0.0
H85 H 0.06638 0.22095 0.37304 0.0
H86 H 0.99106 0.17892 0.34417 0.0
H87 H 0.99536 0.19443 0.42307 0.0
H88 H 0.08005 0.39933 0.24999 0.0
H89 H 0.02318 0.43113 0.27766 0.0
H90 H 0.99877 0.35475 0.23702 0.0
C91 C 0.81879 0.93289 0.20783 0.0
C92 C 0.87626 0.98461 0.21763 0.0
C93 C 0.766 0.92042 0.25011 0.0
C94 C 0.7704 0.9618 0.30244 0.0
C95 C 0.82784 1.01536 0.31141 0.0
C96 C 0.88042 0.02558 0.26931 0.0
C97 C 0.70621 0.86209 0.23961 0.0
C98 C 0.83384 0.0617 0.36567 0.0
C99 C 0.62318 0.96685 0.39315 0.0
C100 C 0.62169 0.94071 0.44389 0.0
C101 C 0.67005 0.97213 0.34576 0.0
C102 C 0.71545 0.94914 0.34842 0.0
C103 C 0.71121 0.91848 0.39754 0.0
C104 C 0.66492 0.91542 0.44509 0.0
C105 C 0.67361 1.00626 0.29486 0.0
C106 C 0.75757 0.8917 0.40125 0.0
H107 H 0.81585 0.9009 0.16806 0.0
H108 H 0.92478 0.0659 0.27659 0.0
H109 H 0.69544 0.8319 0.27518 0.0
H110 H 0.66548 0.87399 0.24133 0.0
H111 H 0.71018 0.83517 0.19627 0.0
H112 H 0.88088 0.10209 0.36493 0.0
H113 H 0.79675 0.07909 0.36921 0.0
H114 H 0.82646 0.03881 0.406 0.0
H115 H 0.59036 0.98708 0.39204 0.0
H116 H 0.6639 0.89506 0.48409 0.0
H117 H 0.67719 0.97859 0.25201 0.0
H118 H 0.71693 0.05076 0.29552 0.0
H119 H 0.63183 1.01676 0.297 0.0
H120 H 0.76215 0.86292 0.35939 0.0
H121 H 0.7431 0.86266 0.43843 0.0
H122 H 0.80507 0.93005 0.40769 0.0
C123 C 0.11534 0.84955 0.23655 0.0
C124 C 0.07299 0.87642 0.25898 0.0
C125 C 0.12663 0.81219 0.27038 0.0
C126 C 0.09395 0.8005 0.32735 0.0
C127 C 0.05447 0.83086 0.35147 0.0
C128 C 0.04471 0.86848 0.31721 0.0
C129 C 0.17173 0.78341 0.24438 0.0
C130 C 0.01989 0.82107 0.41256 0.0
C131 C 0.03661 0.64194 0.38006 0.0
C132 C 0.07304 0.65443 0.4272 0.0
C133 C 0.04555 0.68846 0.34556 0.0
C134 C 0.0924 0.74961 0.35812 0.0
C135 C 0.13173 0.762 0.40385 0.0
C136 C 0.12193 0.71397 0.43754 0.0
C137 C 1.00188 0.67281 0.29795 0.0
C138 C 0.18358 0.82573 0.41829 0.0
H139 H 0.13889 0.85681 0.19228 0.0
H140 H 0.013 0.89007 0.33564 0.0
H141 H 0.20199 0.78636 0.27817 0.0
H142 H 0.14437 0.73343 0.2297 0.0
H143 H 0.20263 0.80646 0.20577 0.0
H144 H 0.99432 0.85121 0.42649 0.0
H145 H 0.98504 0.77174 0.41345 0.0
H146 H 0.05383 0.83092 0.44532 0.0
H147 H 0.99922 0.5958 0.37122 0.0
H148 H 0.15056 0.72386 0.47365 0.0
H149 H 0.02981 0.68654 0.2551 0.0
H150 H 0.9724 0.69932 0.30959 0.0
H151 H 0.96985 0.62242 0.29196 0.0
H152 H 0.17264 0.86345 0.40856 0.0
H153 H 0.2279 0.82875 0.39123 0.0
H154 H 0.1926 0.83379 0.46554 0.0
C155 C 0.27734 0.06315 0.21232 0.0
C156 C 0.21246 0.04736 0.2269 0.0
C157 C 0.31556 0.06546 0.25428 0.0
C158 C 0.28806 0.05054 0.31202 0.0
C159 C 0.22284 0.03559 0.32742 0.0
C160 C 0.18599 0.03506 0.28486 0.0
C161 C 0.38495 0.08175 0.23617 0.0
C162 C 0.1915 1.01802 0.38816 0.0
C163 C 0.36403 0.98113 0.39423 0.0
C164 C 0.39809 0.03183 0.43385 0.0
C165 C 0.32869 0.98703 0.35411 0.0
C166 C 0.32622 0.04475 0.35427 0.0
C167 C 0.36075 0.09638 0.39382 0.0
C168 C 0.39681 0.08943 0.433 0.0
C169 C 0.29385 0.93135 0.31156 0.0
C170 C 0.35916 0.15864 0.39493 0.0
H171 H 0.29847 0.07351 0.16785 0.0
H172 H 0.13615 0.02365 0.29675 0.0
H173 H 0.41451 0.11922 0.26806 0.0
H174 H 0.39452 0.04057 0.23674 0.0
H175 H 0.40008 0.09723 0.19119 0.0
H176 H 0.14146 1.01181 0.39437 0.0
H177 H 0.19233 0.9738 0.39507 0.0
H178 H 0.21798 0.05418 0.42268 0.0
H179 H 0.36514 0.93652 0.39429 0.0
H180 H 0.42283 0.1286 0.4637 0.0
H181 H 0.30819 0.94312 0.26535 0.0
H182 H 0.24217 0.91803 0.31998 0.0
H183 H 0.30301 0.89058 0.31527 0.0
H184 H 0.37607 0.17557 0.35068 0.0
H185 H 0.38887 0.19425 0.42806 0.0
H186 H 0.3097 0.15368 0.40537 0.0
C187 C 0.97128 0.82625 0.93563 0.0
C188 C 0.91921 0.8411 0.9412 0.0
C189 C 0.97679 0.78056 0.89138 0.0
C190 C 0.92934 0.7494 0.85178 0.0
C191 C 0.87401 0.76002 0.86082 0.0
C192 C 0.86942 0.8054 0.90565 0.0
C193 C 0.03537 0.76864 0.8844 0.0
C194 C 0.82231 0.72785 0.81967 0.0
C195 C 0.99033 0.7164 0.69384 0.0
C196 C 0.97294 0.65226 0.68899 0.0
C197 C 0.97525 0.74797 0.74627 0.0
C198 C 0.94246 0.71471 0.79551 0.0
C199 C 0.92328 0.64957 0.79054 0.0
C200 C 0.93845 0.61892 0.73703 0.0
C201 C 0.99607 0.81741 0.74944 0.0
C202 C 0.88922 0.61276 0.84233 0.0
H203 H 0.00965 0.85291 0.96328 0.0
H204 H 0.82839 0.81564 0.91011 0.0
H205 H 0.02163 0.71886 0.88816 0.0
H206 H 0.06055 0.77835 0.83982 0.0
H207 H 0.0686 0.79762 0.91802 0.0
H208 H 0.77856 0.73392 0.83775 0.0
H209 H 0.83924 0.74758 0.77663 0.0
H210 H 0.81036 0.67738 0.81094 0.0
H211 H 0.01703 0.74231 0.65679 0.0
H212 H 0.92585 0.56947 0.73373 0.0
H213 H 0.0298 0.84187 0.78356 0.0
H214 H 0.95468 0.82876 0.76269 0.0
H215 H 0.01938 0.83589 0.7066 0.0
H216 H 0.92246 0.62526 0.8764 0.0
H217 H 0.87058 0.56178 0.82922 0.0
H218 H 0.84935 0.62425 0.86311 0.0
C219 C 0.15702 0.99799 0.92663 0.0
C220 C 0.1096 1.00669 0.90464 0.0
C221 C 0.19953 0.97905 0.88818 0.0
C222 C 0.19501 0.96951 0.82637 0.0
C223 C 0.14543 0.97547 0.80435 0.0
C224 C 0.10325 0.9936 0.84368 0.0
C225 C 0.25087 0.97176 0.91346 0.0
C226 C 0.13909 0.96638 0.73881 0.0
C227 C 0.34438 1.00917 0.72109 0.0
C228 C 0.33925 0.95031 0.69472 0.0
C229 C 0.29879 1.01563 0.76514 0.0
C230 C 0.24659 0.96191 0.78409 0.0
C231 C 0.24198 0.90218 0.75928 0.0
C232 C 0.28829 0.89703 0.71464 0.0
C233 C 0.30546 0.08028 0.78989 0.0
C234 C 0.1872 0.84382 0.77854 0.0
H235 H 0.16155 1.00685 0.97375 0.0
H236 H 0.06638 0.99948 0.82618 0.0
H237 H 0.25351 0.92738 0.89415 0.0
H238 H 0.29741 1.01011 0.90179 0.0
H239 H 0.24297 0.97264 0.96238 0.0
H240 H 0.09405 0.96579 0.72936 0.0
H241 H 0.17911 1.00479 0.71724 0.0
H242 H 0.14136 0.92221 0.71829 0.0
H243 H 0.38365 0.0508 0.70649 0.0
H244 H 0.28399 0.85139 0.69475 0.0
H245 H 0.30437 0.0859 0.83877 0.0
H246 H 0.265 0.0874 0.77914 0.0
H247 H 0.35011 0.11724 0.77199 0.0
H248 H 0.17891 0.84687 0.8275 0.0
H249 H 0.19522 0.8015 0.76183 0.0
H250 H 0.1435 0.83863 0.7615 0.0
C251 C 0.07251 0.25613 0.86082 0.0
C252 C 0.01325 0.22458 0.8914 0.0
C253 C 0.08391 0.30538 0.8288 0.0
C254 C 0.0342 0.32243 0.82571 0.0
C255 C 0.97425 0.29115 0.85721 0.0
C256 C 0.96477 0.24311 0.8906 0.0
C257 C 0.14871 0.33781 0.7967 0.0
C258 C 0.9196 0.30697 0.85404 0.0
C259 C 0.07599 0.47841 0.77092 0.0
C260 C 0.0674 0.46103 0.7106 0.0
C261 C 0.06564 0.43397 0.80896 0.0
C262 C 0.04441 0.37034 0.78652 0.0
C263 C 0.03548 0.35254 0.7257 0.0
C264 C 0.04805 0.39814 0.68839 0.0
C265 C 0.0773 0.45506 0.87315 0.0
C266 C 0.01129 0.28504 0.70021 0.0
H267 H 0.11002 0.2417 0.86145 0.0
H268 H 0.91868 0.21808 0.91359 0.0
H269 H 0.14553 0.32802 0.74825 0.0
H270 H 0.16672 0.38895 0.80795 0.0
H271 H 0.18359 0.32255 0.80765 0.0
H272 H 0.87489 0.27523 0.87732 0.0
H273 H 0.93093 0.3554 0.87414 0.0
H274 H 0.91182 0.30445 0.80723 0.0
H275 H 0.09055 0.52685 0.78846 0.0
H276 H 0.04017 0.38402 0.64218 0.0
H277 H 0.11248 0.44058 0.88467 0.0
H278 H 0.03285 0.43251 0.90174 0.0
H279 H 0.09499 0.50634 0.88346 0.0
H280 H 0.00467 0.27862 0.65248 0.0
H281 H 0.96529 0.25734 0.72446 0.0
H282 H 0.04494 0.26583 0.70574 0.0
C283 C 0.86496 0.08303 0.83378 0.0
C284 C 0.83354 0.06945 0.89022 0.0
C285 C 0.83723 0.09708 0.79187 0.0
C286 C 0.77653 0.09685 0.80674 0.0
C287 C 0.74822 0.0902 0.86565 0.0
C288 C 0.777 0.07643 0.90664 0.0
C289 C 0.8702 0.10571 0.73018 0.0
C290 C 0.68415 0.09096 0.8839 0.0
C291 C 0.68362 0.12524 0.70235 0.0
C292 C 0.64315 0.06375 0.68369 0.0
C293 C 0.72999 0.13764 0.7406 0.0
C294 C 0.73599 0.08732 0.75938 0.0
C295 C 0.69782 0.02552 0.73722 0.0
C296 C 0.65181 1.01464 0.70012 0.0
C297 C 0.77083 0.20407 0.76256 0.0
C298 C 0.70332 0.97032 0.75492 0.0
H299 H 0.90957 0.07939 0.82108 0.0
H300 H 0.75327 0.06787 0.95071 0.0
H301 H 0.8538 0.05994 0.70286 0.0
H302 H 0.85928 0.13749 0.70876 0.0
H303 H 0.92239 0.12439 0.73052 0.0
H304 H 0.6742 0.09667 0.93276 0.0
H305 H 0.68078 0.12905 0.86538 0.0
H306 H 0.64683 0.04635 0.8663 0.0
H307 H 0.67727 0.16326 0.68919 0.0
H308 H 0.62156 0.96704 0.68466 0.0
H309 H 0.82161 0.21334 0.75338 0.0
H310 H 0.76109 0.21192 0.81121 0.0
H311 H 0.7625 0.23799 0.74168 0.0
H312 H 0.75312 0.97611 0.74652 0.0
H313 H 0.67303 0.92567 0.73053 0.0
H314 H 0.68906 0.96716 0.80296 0.0
loop_
_geom_bond_atom_site_label_1
_geom_bond_atom_site_label_2
_geom_bond_distance
_geom_bond_site_symmetry_2
_ccdc_geom_bond_type
Co0 O3 2.042 . S
Co0 O10 2.264 1_565 S
Co0 O29 2.286 1_455 S
Co0 O30 2.069 . S
Co0 O32 2.015 1_455 S
Co1 O3 2.122 1_545 S
Co1 O9 2.073 . S
Co1 O10 2.327 . S
Co1 O11 1.976 . S
Co2 O3 2.087 1_545 S
Co2 O5 2.087 1_454 S
Co2 O12 2.111 . S
Co2 O13 2.143 1_554 S
Co2 O17 2.111 1_444 S
Co2 O31 2.143 1_445 S
O3 Co0 2.042 . S
O3 Co1 2.122 1_565 S
O3 Co2 2.087 1_565 S
O3 H4 0.980 . S
H4 O3 0.980 . S
O5 Co2 2.087 1_656 S
O5 Co6 2.042 1_655 S
O5 Co7 2.122 1_545 S
O5 H8 0.980 1_556 S
Co6 O5 2.042 1_455 S
Co6 O14 2.286 . S
Co6 O15 2.069 1_455 S
Co6 O16 2.015 . S
Co6 O19 2.264 1_455 S
Co7 O5 2.122 1_565 S
Co7 O18 1.976 . S
Co7 O19 2.327 1_565 S
Co7 O20 2.073 . S
H8 O5 0.980 1_554 S
O9 Co1 2.073 . S
O9 C24 1.245 . S
O10 Co0 2.264 1_545 S
O10 Co1 2.327 . S
O10 C24 1.257 . S
O11 Co1 1.976 . S
O11 C23 1.251 . S
O12 Co2 2.111 . S
O12 C23 1.274 . S
O13 Co2 2.143 1_556 S
O13 C26 1.246 . S
O14 Co6 2.286 . S
O14 C25 1.259 . S
O15 Co6 2.069 1_655 S
O15 C25 1.289 1_655 S
O16 Co6 2.015 . S
O16 C26 1.257 . S
O17 Co2 2.111 1_666 S
O17 C27 1.274 . S
O18 Co7 1.976 . S
O18 C27 1.251 . S
O19 Co6 2.264 1_655 S
O19 Co7 2.327 1_545 S
O19 C28 1.257 . S
O20 Co7 2.073 . S
O20 C28 1.245 1_565 S
C21 O29 1.259 1_455 S
C21 O30 1.289 . S
C22 O31 1.246 . S
C22 O32 1.257 . S
C23 O11 1.251 . S
C23 O12 1.274 . S
C24 O9 1.245 . S
C24 O10 1.257 . S
C25 O14 1.259 . S
C25 O15 1.289 1_455 S
C26 O13 1.246 . S
C26 O16 1.257 . S
C27 O17 1.274 . S
C27 O18 1.251 . S
C28 O19 1.257 . S
C28 O20 1.245 1_545 S
O29 Co0 2.286 1_655 S
O29 C21 1.259 1_655 S
O30 Co0 2.069 . S
O30 C21 1.289 . S
O31 Co2 2.143 1_665 S
O31 C22 1.246 . S
O32 Co0 2.015 1_655 S
O32 C22 1.257 . S
Mg33 O40 2.141 . S
Mg33 O41 2.048 . S
Mg33 O42 2.048 . S
Mg33 O45 2.141 . S
C34 O35 1.313 . S
C34 O41 1.195 1_455 S
O35 C34 1.313 . S
C36 O37 1.245 . S
C36 O45 1.289 1_455 S
O37 C36 1.245 . S
C38 O39 1.245 . S
C38 O40 1.289 1_455 S
O39 C38 1.245 . S
O40 Mg33 2.141 . S
O40 C38 1.289 1_655 S
O41 Mg33 2.048 . S
O41 C34 1.195 1_655 S
O42 Mg33 2.048 . S
O42 C43 1.195 1_655 S
C43 O42 1.195 1_455 S
C43 O44 1.313 . S
O44 C43 1.313 . S
O45 Mg33 2.141 . S
O45 C36 1.289 1_655 S
Mg46 O53 2.141 . S
Mg46 O54 2.048 . S
Mg46 O55 2.048 . S
Mg46 O58 2.141 . S
C47 O48 1.314 1_545 S
C47 O54 1.195 . S
O48 C47 1.314 1_565 S
C49 O50 1.245 . S
C49 O58 1.289 1_565 S
O50 C49 1.245 . S
C51 O52 1.245 . S
C51 O53 1.289 1_565 S
O52 C51 1.245 . S
O53 Mg46 2.141 . S
O53 C51 1.289 1_545 S
O54 Mg46 2.048 . S
O54 C47 1.195 . S
O55 Mg46 2.048 . S
O55 C56 1.195 . S
C56 O55 1.195 . S
C56 O57 1.313 1_545 S
O57 C56 1.313 1_565 S
O58 Mg46 2.141 . S
O58 C49 1.289 1_545 S
C59 C60 1.391 . S
C59 C61 1.394 . S
C59 H75 0.931 . S
C60 C59 1.391 . S
C60 C64 1.376 1_455 S
C61 C59 1.394 . S
C61 C62 1.369 . S
C61 C65 1.531 . S
C62 C61 1.369 . S
C62 C63 1.410 1_455 S
C62 C70 1.503 . S
C63 C62 1.410 1_655 S
C63 C64 1.392 . S
C63 C66 1.511 . S
C64 C60 1.376 1_655 S
C64 C63 1.392 . S
C64 H76 0.929 . S
C65 C61 1.531 . S
C65 H77 0.960 . S
C65 H78 0.962 . S
C65 H79 0.960 . S
C66 C63 1.511 . S
C66 H80 0.961 . S
C66 H81 0.961 . S
C66 H82 0.961 . S
C67 C68 1.370 . S
C67 C69 1.363 . S
C67 H83 0.931 . S
C68 C67 1.370 . S
C68 C72 1.408 1_455 S
C69 C67 1.363 . S
C69 C70 1.370 . S
C69 C73 1.524 . S
C70 C62 1.503 . S
C70 C69 1.370 . S
C70 C71 1.403 1_455 S
C71 C70 1.403 1_655 S
C71 C72 1.404 . S
C71 C74 1.539 . S
C72 C68 1.408 1_655 S
C72 C71 1.404 . S
C72 H84 0.930 . S
C73 C69 1.524 . S
C73 H85 0.956 . S
C73 H86 0.961 . S
C73 H87 0.961 . S
C74 C71 1.539 . S
C74 H88 0.958 . S
C74 H89 0.961 . S
C74 H90 0.960 . S
H75 C59 0.931 . S
H76 C64 0.929 . S
H77 C65 0.960 . S
H78 C65 0.962 . S
H79 C65 0.960 . S
H80 C66 0.961 . S
H81 C66 0.961 . S
H82 C66 0.961 . S
H83 C67 0.931 . S
H84 C72 0.930 . S
H85 C73 0.956 . S
H86 C73 0.961 . S
H87 C73 0.961 . S
H88 C74 0.958 . S
H89 C74 0.961 . S
H90 C74 0.960 . S
C91 C92 1.391 . S
C91 C93 1.394 . S
C91 H107 0.931 . S
C92 C91 1.391 . S
C92 C96 1.376 1_565 S
C93 C91 1.394 . S
C93 C94 1.369 . S
C93 C97 1.531 . S
C94 C93 1.369 . S
C94 C95 1.410 1_565 S
C94 C102 1.503 . S
C95 C94 1.410 1_545 S
C95 C96 1.392 . S
C95 C98 1.511 . S
C96 C92 1.376 1_545 S
C96 C95 1.392 . S
C96 H108 0.929 . S
C97 C93 1.531 . S
C97 H109 0.960 . S
C97 H110 0.962 . S
C97 H111 0.960 . S
C98 C95 1.511 . S
C98 H112 0.961 . S
C98 H113 0.961 . S
C98 H114 0.961 . S
C99 C100 1.370 . S
C99 C101 1.363 . S
C99 H115 0.931 . S
C100 C99 1.370 . S
C100 C104 1.408 1_545 S
C101 C99 1.363 . S
C101 C102 1.370 1_545 S
C101 C105 1.524 . S
C102 C94 1.503 . S
C102 C101 1.370 1_565 S
C102 C103 1.403 . S
C103 C102 1.403 . S
C103 C104 1.404 . S
C103 C106 1.539 . S
C104 C100 1.408 1_565 S
C104 C103 1.404 . S
C104 H116 0.930 . S
C105 C101 1.524 . S
C105 H117 0.956 . S
C105 H118 0.961 . S
C105 H119 0.961 . S
C106 C103 1.539 . S
C106 H120 0.958 . S
C106 H121 0.961 . S
C106 H122 0.960 . S
H107 C91 0.931 . S
H108 C96 0.929 . S
H109 C97 0.960 . S
H110 C97 0.962 . S
H111 C97 0.960 . S
H112 C98 0.961 . S
H113 C98 0.961 . S
H114 C98 0.961 . S
H115 C99 0.931 . S
H116 C104 0.930 . S
H117 C105 0.956 . S
H118 C105 0.961 . S
H119 C105 0.961 . S
H120 C106 0.958 . S
H121 C106 0.961 . S
H122 C106 0.960 . S
C123 C124 1.391 . S
C123 C125 1.394 . S
C123 H139 0.931 . S
C124 C123 1.391 . S
C124 C128 1.376 1_455 S
C125 C123 1.394 . S
C125 C126 1.369 . S
C125 C129 1.531 . S
C126 C125 1.369 . S
C126 C127 1.410 1_455 S
C126 C134 1.503 . S
C127 C126 1.410 1_655 S
C127 C128 1.392 . S
C127 C130 1.511 . S
C128 C124 1.376 1_655 S
C128 C127 1.392 . S
C128 H140 0.929 . S
C129 C125 1.531 . S
C129 H141 0.960 . S
C129 H142 0.962 . S
C129 H143 0.960 . S
C130 C127 1.511 . S
C130 H144 0.961 . S
C130 H145 0.961 . S
C130 H146 0.961 . S
C131 C132 1.370 1_655 S
C131 C133 1.363 . S
C131 H147 0.931 . S
C132 C131 1.370 1_455 S
C132 C136 1.408 . S
C133 C131 1.363 . S
C133 C134 1.370 1_655 S
C133 C137 1.524 . S
C134 C126 1.503 . S
C134 C133 1.370 1_455 S
C134 C135 1.403 . S
C135 C134 1.403 . S
C135 C136 1.404 . S
C135 C138 1.539 . S
C136 C132 1.408 . S
C136 C135 1.404 . S
C136 H148 0.930 . S
C137 C133 1.524 . S
C137 H149 0.956 1_655 S
C137 H150 0.961 . S
C137 H151 0.961 . S
C138 C135 1.539 . S
C138 H152 0.958 . S
C138 H153 0.961 . S
C138 H154 0.960 . S
H139 C123 0.931 . S
H140 C128 0.929 . S
H141 C129 0.960 . S
H142 C129 0.962 . S
H143 C129 0.960 . S
H144 C130 0.961 . S
H145 C130 0.961 . S
H146 C130 0.961 . S
H147 C131 0.931 . S
H148 C136 0.930 . S
H149 C137 0.956 1_455 S
H150 C137 0.961 . S
H151 C137 0.961 . S
H152 C138 0.958 . S
H153 C138 0.961 . S
H154 C138 0.960 . S
C155 C156 1.391 1_545 S
C155 C157 1.394 . S
C155 H171 0.931 . S
C156 C155 1.391 1_565 S
C156 C160 1.376 . S
C157 C155 1.394 . S
C157 C158 1.369 1_545 S
C157 C161 1.531 . S
C158 C157 1.369 1_565 S
C158 C159 1.410 . S
C158 C166 1.512 1_565 S
C159 C158 1.410 . S
C159 C160 1.392 . S
C159 C162 1.511 . S
C160 C156 1.376 . S
C160 C159 1.392 . S
C160 H172 0.929 . S
C161 C157 1.531 . S
C161 H173 0.960 . S
C161 H174 0.962 . S
C161 H175 0.960 . S
C162 C159 1.511 . S
C162 H176 0.961 . S
C162 H177 0.961 . S
C162 H178 0.961 . S
C163 C164 1.370 1_565 S
C163 C165 1.363 . S
C163 H179 0.931 . S
C164 C163 1.370 1_545 S
C164 C168 1.408 . S
C165 C163 1.363 . S
C165 C166 1.360 1_565 S
C165 C169 1.524 . S
C166 C158 1.512 1_545 S
C166 C165 1.360 1_545 S
C166 C167 1.406 . S
C167 C166 1.406 . S
C167 C168 1.404 . S
C167 C170 1.539 . S
C168 C164 1.408 . S
C168 C167 1.404 . S
C168 H180 0.930 . S
C169 C165 1.524 . S
C169 H181 0.949 1_565 S
C169 H182 0.961 . S
C169 H183 0.961 . S
C170 C167 1.539 . S
C170 H184 0.958 . S
C170 H185 0.961 . S
C170 H186 0.960 . S
H171 C155 0.931 . S
H172 C160 0.929 . S
H173 C161 0.960 . S
H174 C161 0.962 . S
H175 C161 0.960 . S
H176 C162 0.961 . S
H177 C162 0.961 . S
H178 C162 0.961 . S
H179 C163 0.931 . S
H180 C168 0.930 . S
H181 C169 0.949 1_545 S
H182 C169 0.961 . S
H183 C169 0.961 . S
H184 C170 0.958 . S
H185 C170 0.961 . S
H186 C170 0.960 . S
C187 C188 1.391 . S
C187 C189 1.394 . S
C187 H203 0.931 . S
C188 C187 1.391 . S
C188 C192 1.376 1_455 S
C189 C187 1.394 . S
C189 C190 1.369 1_455 S
C189 C193 1.531 . S
C190 C189 1.369 1_655 S
C190 C191 1.410 . S
C190 C198 1.503 1_655 S
C191 C190 1.410 . S
C191 C192 1.392 . S
C191 C194 1.511 . S
C192 C188 1.376 1_655 S
C192 C191 1.392 . S
C192 H204 0.929 . S
C193 C189 1.531 . S
C193 H205 0.960 . S
C193 H206 0.962 . S
C193 H207 0.960 . S
C194 C191 1.511 . S
C194 H208 0.961 . S
C194 H209 0.961 . S
C194 H210 0.961 . S
C195 C196 1.370 . S
C195 C197 1.363 . S
C195 H211 0.931 . S
C196 C195 1.370 . S
C196 C200 1.408 1_455 S
C197 C195 1.363 . S
C197 C198 1.370 . S
C197 C201 1.524 . S
C198 C190 1.503 1_455 S
C198 C197 1.370 . S
C198 C199 1.403 1_455 S
C199 C198 1.403 1_655 S
C199 C200 1.404 . S
C199 C202 1.539 . S
C200 C196 1.408 1_655 S
C200 C199 1.404 . S
C200 H212 0.930 . S
C201 C197 1.524 . S
C201 H213 0.956 . S
C201 H214 0.961 . S
C201 H215 0.961 . S
C202 C199 1.539 . S
C202 H216 0.958 . S
C202 H217 0.961 . S
C202 H218 0.960 . S
H203 C187 0.931 . S
H204 C192 0.929 . S
H205 C193 0.960 . S
H206 C193 0.962 . S
H207 C193 0.960 . S
H208 C194 0.961 . S
H209 C194 0.961 . S
H210 C194 0.961 . S
H211 C195 0.931 . S
H212 C200 0.930 . S
H213 C201 0.956 . S
H214 C201 0.961 . S
H215 C201 0.961 . S
H216 C202 0.958 . S
H217 C202 0.961 . S
H218 C202 0.960 . S
C219 C220 1.391 . S
C219 C221 1.394 . S
C219 H235 0.931 . S
C220 C219 1.391 . S
C220 C224 1.376 1_545 S
C221 C219 1.394 . S
C221 C222 1.369 1_545 S
C221 C225 1.531 . S
C222 C221 1.369 1_565 S
C222 C223 1.408 . S
C222 C230 1.504 1_565 S
C223 C222 1.408 . S
C223 C224 1.392 . S
C223 C226 1.511 . S
C224 C220 1.376 1_565 S
C224 C223 1.392 . S
C224 H236 0.929 . S
C225 C221 1.531 . S
C225 H237 0.960 . S
C225 H238 0.962 . S
C225 H239 0.960 . S
C226 C223 1.511 . S
C226 H240 0.961 . S
C226 H241 0.961 . S
C226 H242 0.961 . S
C227 C228 1.370 . S
C227 C229 1.363 . S
C227 H243 0.931 . S
C228 C227 1.370 . S
C228 C232 1.408 1_545 S
C229 C227 1.363 . S
C229 C230 1.370 . S
C229 C233 1.524 . S
C230 C222 1.504 1_545 S
C230 C229 1.370 . S
C230 C231 1.403 1_545 S
C231 C230 1.403 1_565 S
C231 C232 1.404 . S
C231 C234 1.539 . S
C232 C228 1.408 1_565 S
C232 C231 1.404 . S
C232 H244 0.930 . S
C233 C229 1.524 . S
C233 H245 0.956 . S
C233 H246 0.961 . S
C233 H247 0.961 . S
C234 C231 1.539 . S
C234 H248 0.958 . S
C234 H249 0.961 . S
C234 H250 0.960 . S
H235 C219 0.931 . S
H236 C224 0.929 . S
H237 C225 0.960 . S
H238 C225 0.962 . S
H239 C225 0.960 . S
H240 C226 0.961 . S
H241 C226 0.961 . S
H242 C226 0.961 . S
H243 C227 0.931 . S
H244 C232 0.930 . S
H245 C233 0.956 . S
H246 C233 0.961 . S
H247 C233 0.961 . S
H248 C234 0.958 . S
H249 C234 0.961 . S
H250 C234 0.960 . S
C251 C252 1.391 1_455 S
C251 C253 1.400 . S
C251 H267 0.931 . S
C252 C251 1.391 1_655 S
C252 C256 1.376 . S
C253 C251 1.400 . S
C253 C254 1.361 1_455 S
C253 C257 1.532 . S
C254 C253 1.361 1_655 S
C254 C255 1.410 . S
C254 C262 1.503 . S
C255 C254 1.410 . S
C255 C256 1.392 . S
C255 C258 1.511 . S
C256 C252 1.376 . S
C256 C255 1.392 . S
C256 H268 0.929 . S
C257 C253 1.532 . S
C257 H269 0.960 1_455 S
C257 H270 0.962 . S
C257 H271 0.960 1_455 S
C258 C255 1.511 . S
C258 H272 0.961 . S
C258 H273 0.961 . S
C258 H274 0.961 . S
C259 C260 1.370 . S
C259 C261 1.363 . S
C259 H275 0.931 . S
C260 C259 1.370 . S
C260 C264 1.408 1_455 S
C261 C259 1.363 . S
C261 C262 1.370 1_455 S
C261 C265 1.524 . S
C262 C254 1.503 . S
C262 C261 1.370 1_655 S
C262 C263 1.403 . S
C263 C262 1.403 . S
C263 C264 1.404 . S
C263 C266 1.539 . S
C264 C260 1.408 1_655 S
C264 C263 1.404 . S
C264 H276 0.930 . S
C265 C261 1.524 . S
C265 H277 0.956 . S
C265 H278 0.961 . S
C265 H279 0.961 . S
C266 C263 1.539 . S
C266 H280 0.958 . S
C266 H281 0.961 . S
C266 H282 0.960 . S
H267 C251 0.931 . S
H268 C256 0.929 . S
H269 C257 0.960 1_655 S
H270 C257 0.962 . S
H271 C257 0.960 1_655 S
H272 C258 0.961 . S
H273 C258 0.961 . S
H274 C258 0.961 . S
H275 C259 0.931 . S
H276 C264 0.930 . S
H277 C265 0.956 . S
H278 C265 0.961 . S
H279 C265 0.961 . S
H280 C266 0.958 . S
H281 C266 0.961 . S
H282 C266 0.960 . S
C283 C284 1.391 1_565 S
C283 C285 1.394 . S
C283 H299 0.931 . S
C284 C283 1.391 1_545 S
C284 C288 1.376 . S
C285 C283 1.394 . S
C285 C286 1.369 1_565 S
C285 C289 1.531 . S
C286 C285 1.369 1_545 S
C286 C287 1.410 . S
C286 C294 1.503 . S
C287 C286 1.410 . S
C287 C288 1.392 . S
C287 C290 1.511 . S
C288 C284 1.376 . S
C288 C287 1.392 . S
C288 H300 0.929 . S
C289 C285 1.531 . S
C289 H301 0.960 . S
C289 H302 0.962 . S
C289 H303 0.960 . S
C290 C287 1.511 . S
C290 H304 0.961 . S
C290 H305 0.961 . S
C290 H306 0.961 . S
C291 C292 1.370 . S
C291 C293 1.363 . S
C291 H307 0.931 . S
C292 C291 1.370 . S
C292 C296 1.408 1_545 S
C293 C291 1.363 . S
C293 C294 1.370 . S
C293 C297 1.524 . S
C294 C286 1.503 . S
C294 C293 1.370 . S
C294 C295 1.403 1_545 S
C295 C294 1.403 1_565 S
C295 C296 1.404 . S
C295 C298 1.539 . S
C296 C292 1.408 1_565 S
C296 C295 1.404 . S
C296 H308 0.930 . S
C297 C293 1.524 . S
C297 H309 0.956 . S
C297 H310 0.961 . S
C297 H311 0.961 . S
C298 C295 1.539 . S
C298 H312 0.958 . S
C298 H313 0.961 . S
C298 H314 0.960 . S
H299 C283 0.931 . S
H300 C288 0.929 . S
H301 C289 0.960 . S
H302 C289 0.962 . S
H303 C289 0.960 . S
H304 C290 0.961 . S
H305 C290 0.961 . S
H306 C290 0.961 . S
H307 C291 0.931 . S
H308 C296 0.930 . S
H309 C297 0.956 . S
H310 C297 0.961 . S
H311 C297 0.961 . S
H312 C298 0.958 . S
H313 C298 0.961 . S
H314 C298 0.960 . S
C60 C23 1.341 . S
C68 C34 1.384 . S
C92 C22 1.388 . S
C100 C56 1.464 . S
C124 C21 1.710 . S
C132 C43 1.726 . S
C156 C24 1.465 1_565 S
C164 C47 1.530 . S
C188 C27 1.221 1_455 S
C196 C36 1.323 . S
C220 C26 1.380 . S
C228 C51 1.399 1_545 S
C260 C38 1.670 . S
C252 C25 1.663 1_655 S
C284 C28 1.389 . S
C292 C49 1.470 1_545 S
