# Generated by pormake.
# Topology soc, (4,6)-cn, num edge types: 1
# Building blocks:
#     Node 0, Type 0, BuildingBlock: ESEHIV_clean_sbu_0, # of connection points: 4
#     Node 1, Type 0, BuildingBlock: ESEHIV_clean_sbu_0, # of connection points: 4
#     Node 2, Type 0, BuildingBlock: ESEHIV_clean_sbu_0, # of connection points: 4
#     Node 3, Type 0, BuildingBlock: ESEHIV_clean_sbu_0, # of connection points: 4
#     Node 4, Type 0, BuildingBlock: ESEHIV_clean_sbu_0, # of connection points: 4
#     Node 5, Type 0, BuildingBlock: ESEHIV_clean_sbu_0, # of connection points: 4
#     Node 6, Type 0, BuildingBlock: ESEHIV_clean_sbu_0, # of connection points: 4
#     Node 7, Type 0, BuildingBlock: ESEHIV_clean_sbu_0, # of connection points: 4
#     Node 8, Type 0, BuildingBlock: ESEHIV_clean_sbu_0, # of connection points: 4
#     Node 9, Type 0, BuildingBlock: ESEHIV_clean_sbu_0, # of connection points: 4
#     Node 10, Type 0, BuildingBlock: ESEHIV_clean_sbu_0, # of connection points: 4
#     Node 11, Type 0, BuildingBlock: ESEHIV_clean_sbu_0, # of connection points: 4
#     Node 12, Type 1, BuildingBlock: CUKXOW_clean_sbu_0, # of connection points: 6
#     Node 13, Type 1, BuildingBlock: CUKXOW_clean_sbu_0, # of connection points: 6
#     Node 14, Type 1, BuildingBlock: CUKXOW_clean_sbu_0, # of connection points: 6
#     Node 15, Type 1, BuildingBlock: CUKXOW_clean_sbu_0, # of connection points: 6
#     Node 16, Type 1, BuildingBlock: CUKXOW_clean_sbu_0, # of connection points: 6
#     Node 17, Type 1, BuildingBlock: CUKXOW_clean_sbu_0, # of connection points: 6
#     Node 18, Type 1, BuildingBlock: CUKXOW_clean_sbu_0, # of connection points: 6
#     Node 19, Type 1, BuildingBlock: CUKXOW_clean_sbu_0, # of connection points: 6
#     Edge 20, Type (0, 1), BuildingBlock: TEMPAE_clean_linker_10, # of connection points: 2
#     Edge 21, Type (0, 1), BuildingBlock: TEMPAE_clean_linker_10, # of connection points: 2
#     Edge 22, Type (0, 1), BuildingBlock: TEMPAE_clean_linker_10, # of connection points: 2
#     Edge 23, Type (0, 1), BuildingBlock: TEMPAE_clean_linker_10, # of connection points: 2
#     Edge 24, Type (0, 1), BuildingBlock: TEMPAE_clean_linker_10, # of connection points: 2
#     Edge 25, Type (0, 1), BuildingBlock: TEMPAE_clean_linker_10, # of connection points: 2
#     Edge 26, Type (0, 1), BuildingBlock: TEMPAE_clean_linker_10, # of connection points: 2
#     Edge 27, Type (0, 1), BuildingBlock: TEMPAE_clean_linker_10, # of connection points: 2
#     Edge 28, Type (0, 1), BuildingBlock: TEMPAE_clean_linker_10, # of connection points: 2
#     Edge 29, Type (0, 1), BuildingBlock: TEMPAE_clean_linker_10, # of connection points: 2
#     Edge 30, Type (0, 1), BuildingBlock: TEMPAE_clean_linker_10, # of connection points: 2
#     Edge 31, Type (0, 1), BuildingBlock: TEMPAE_clean_linker_10, # of connection points: 2
#     Edge 32, Type (0, 1), BuildingBlock: TEMPAE_clean_linker_10, # of connection points: 2
#     Edge 33, Type (0, 1), BuildingBlock: TEMPAE_clean_linker_10, # of connection points: 2
#     Edge 34, Type (0, 1), BuildingBlock: TEMPAE_clean_linker_10, # of connection points: 2
#     Edge 35, Type (0, 1), BuildingBlock: TEMPAE_clean_linker_10, # of connection points: 2
#     Edge 36, Type (0, 1), BuildingBlock: TEMPAE_clean_linker_10, # of connection points: 2
#     Edge 37, Type (0, 1), BuildingBlock: TEMPAE_clean_linker_10, # of connection points: 2
#     Edge 38, Type (0, 1), BuildingBlock: TEMPAE_clean_linker_10, # of connection points: 2
#     Edge 39, Type (0, 1), BuildingBlock: TEMPAE_clean_linker_10, # of connection points: 2
#     Edge 40, Type (0, 1), BuildingBlock: TEMPAE_clean_linker_10, # of connection points: 2
#     Edge 41, Type (0, 1), BuildingBlock: TEMPAE_clean_linker_10, # of connection points: 2
#     Edge 42, Type (0, 1), BuildingBlock: TEMPAE_clean_linker_10, # of connection points: 2
#     Edge 43, Type (0, 1), BuildingBlock: TEMPAE_clean_linker_10, # of connection points: 2
#     Edge 44, Type (0, 1), BuildingBlock: TEMPAE_clean_linker_10, # of connection points: 2
#     Edge 45, Type (0, 1), BuildingBlock: TEMPAE_clean_linker_10, # of connection points: 2
#     Edge 46, Type (0, 1), BuildingBlock: TEMPAE_clean_linker_10, # of connection points: 2
#     Edge 47, Type (0, 1), BuildingBlock: TEMPAE_clean_linker_10, # of connection points: 2
#     Edge 48, Type (0, 1), BuildingBlock: TEMPAE_clean_linker_10, # of connection points: 2
#     Edge 49, Type (0, 1), BuildingBlock: TEMPAE_clean_linker_10, # of connection points: 2
#     Edge 50, Type (0, 1), BuildingBlock: TEMPAE_clean_linker_10, # of connection points: 2
#     Edge 51, Type (0, 1), BuildingBlock: TEMPAE_clean_linker_10, # of connection points: 2
#     Edge 52, Type (0, 1), BuildingBlock: TEMPAE_clean_linker_10, # of connection points: 2
#     Edge 53, Type (0, 1), BuildingBlock: TEMPAE_clean_linker_10, # of connection points: 2
#     Edge 54, Type (0, 1), BuildingBlock: TEMPAE_clean_linker_10, # of connection points: 2
#     Edge 55, Type (0, 1), BuildingBlock: TEMPAE_clean_linker_10, # of connection points: 2
#     Edge 56, Type (0, 1), BuildingBlock: TEMPAE_clean_linker_10, # of connection points: 2
#     Edge 57, Type (0, 1), BuildingBlock: TEMPAE_clean_linker_10, # of connection points: 2
#     Edge 58, Type (0, 1), BuildingBlock: TEMPAE_clean_linker_10, # of connection points: 2
#     Edge 59, Type (0, 1), BuildingBlock: TEMPAE_clean_linker_10, # of connection points: 2
#     Edge 60, Type (0, 1), BuildingBlock: TEMPAE_clean_linker_10, # of connection points: 2
#     Edge 61, Type (0, 1), BuildingBlock: TEMPAE_clean_linker_10, # of connection points: 2
#     Edge 62, Type (0, 1), BuildingBlock: TEMPAE_clean_linker_10, # of connection points: 2
#     Edge 63, Type (0, 1), BuildingBlock: TEMPAE_clean_linker_10, # of connection points: 2
#     Edge 64, Type (0, 1), BuildingBlock: TEMPAE_clean_linker_10, # of connection points: 2
#     Edge 65, Type (0, 1), BuildingBlock: TEMPAE_clean_linker_10, # of connection points: 2
#     Edge 66, Type (0, 1), BuildingBlock: TEMPAE_clean_linker_10, # of connection points: 2
#     Edge 67, Type (0, 1), BuildingBlock: TEMPAE_clean_linker_10, # of connection points: 2
# Relax obj value: 0.089
# Max RMSD: 0.171
# Mean RMSD: 0.144
data_MOF--net-soc--node1-ESEHIV_clean_sbu_0--node2-CUKXOW_clean_sbu_0--edge1-TEMPAE_clean_linker_10
_symmetry_space_group_name_H-M    P1
_symmetry_Int_Tables_number       1
_symmetry_cell_setting            triclinic
loop_
_symmetry_equiv_pos_as_xyz
'x, y, z'
_cell_length_a     44.31037
_cell_length_b     44.246747
_cell_length_c     45.305764
_cell_angle_alpha  95.696809
_cell_angle_beta   93.713026
_cell_angle_gamma 88.107374
loop_
_atom_site_label
_atom_site_type_symbol
_atom_site_fract_x
_atom_site_fract_y
_atom_site_fract_z
_atom_type_partial_charge
Cu0 Cu 0.06633 0.03368 0.25191 0.0
N1 N 0.08729 0.05946 0.23 0.0
N2 N 0.11816 0.0975 0.22367 0.0
C3 C 0.10888 0.07834 0.24261 0.0
C4 C 0.10168 0.09006 0.19793 0.0
C5 C 0.08261 0.0668 0.20194 0.0
O6 O 0.09761 1.01121 0.27378 0.0
C7 C 1.0165 0.06995 0.25788 0.0
O8 O 1.01506 0.0604 0.22945 0.0
H9 H 0.11711 0.07828 0.2656 0.0
H10 H 0.06572 0.0569 0.18589 0.0
N11 N 0.04152 1.00371 0.23065 0.0
N12 N 1.00769 0.96628 0.2241 0.0
C13 C 1.02261 0.98654 0.24377 0.0
C14 C 1.03855 0.99408 0.20153 0.0
C15 C 1.01779 0.9711 0.19744 0.0
C16 C 0.11166 0.99179 0.25654 0.0
O17 O 0.10417 0.98989 0.22791 0.0
H18 H 1.01982 0.98918 0.26743 0.0
H19 H 0.05088 1.00279 0.18451 0.0
O20 O 1.03872 0.06089 0.27443 0.0
H21 H 0.10235 0.10137 0.17788 0.0
H22 H 1.01124 0.95854 0.17642 0.0
Cu23 Cu 0.04713 0.02727 0.72692 0.0
N24 N 1.01634 1.00558 0.70462 0.0
N25 N 0.97669 0.97486 0.69723 0.0
C26 C 0.99966 0.98528 0.71621 0.0
C27 C 0.97912 0.98935 0.6726 0.0
C28 C 1.00352 1.00836 0.67727 0.0
O29 O 1.02451 0.05833 0.75137 0.0
C30 C 0.08312 0.97619 0.72542 0.0
O31 O 0.07327 0.97763 0.69761 0.0
H32 H 1.00373 0.97923 0.73871 0.0
H33 H 1.01084 0.02367 0.66213 0.0
N34 N 0.07323 0.04815 0.70549 0.0
N35 N 0.11039 0.0796 0.69902 0.0
C36 C 0.09217 0.06945 0.71847 0.0
C37 C 0.07963 0.0445 0.67672 0.0
C38 C 0.10254 0.06391 0.67265 0.0
C39 C 1.01346 0.08005 0.73697 0.0
O40 O 1.01954 0.08048 0.70905 0.0
H41 H 0.09306 0.0767 0.74203 0.0
H42 H 0.06886 0.02852 0.66002 0.0
O43 O 0.07383 0.99672 0.74497 0.0
H44 H 0.96429 0.98659 0.65264 0.0
H45 H 0.11254 0.0663 0.65187 0.0
Cu46 Cu 0.28777 0.02553 4e-05 0.0
N47 N 0.25867 1.00238 0.97769 0.0
N48 N 0.24251 0.96276 0.9473 0.0
C49 C 0.26474 0.97379 0.96656 0.0
C50 C 0.2214 0.98539 0.94615 0.0
C51 C 0.23137 1.00988 0.96524 0.0
O52 O 0.313 0.99709 0.02169 0.0
C53 C 0.29091 0.06997 0.96283 0.0
O54 O 0.2634 0.07396 0.97198 0.0
H55 H 0.28625 0.96216 0.97072 0.0
H56 H 0.22032 0.03201 0.96847 0.0
N57 N 0.27161 0.05287 0.02897 0.0
N58 N 0.27294 0.08776 0.06802 0.0
C59 C 0.28881 0.07228 0.04678 0.0
C60 C 0.24364 0.05611 0.03891 0.0
C61 C 0.24436 0.07781 0.06307 0.0
C62 C 0.29755 0.98285 0.03841 0.0
O63 O 0.2683 0.98876 0.03852 0.0
H64 H 0.31269 0.0746 0.04418 0.0
H65 H 0.22442 0.043 0.02988 0.0
O66 O 0.30769 0.04887 0.9729 0.0
H67 H 0.20104 0.98475 0.93158 0.0
H68 H 0.22556 0.08488 0.07647 0.0
Cu69 Cu 0.05348 0.33699 0.98315 0.0
N70 N 0.0822 0.36274 0.97228 0.0
N71 N 0.12017 0.37222 0.9446 0.0
C72 C 0.0929 0.35957 0.94507 0.0
C73 C 0.12624 0.38486 0.9727 0.0
C74 C 0.10281 0.37884 -0.01024 0.0
O75 O 0.07326 0.31105 0.01137 0.0
C76 C 1.0111 0.30268 0.94379 0.0
O77 O 0.99923 0.29522 0.96779 0.0
H78 H 0.08197 0.34571 0.92673 0.0
H79 H 0.10249 0.3829 0.01368 0.0
N80 N 1.02251 0.35792 0.00267 0.0
N81 N 0.98273 0.3632 0.03064 0.0
C82 C 1.00665 0.34551 0.02239 0.0
C83 C 1.00844 0.38466 -0.00171 0.0
C84 C 0.98387 0.38811 0.0158 0.0
C85 C 0.10102 0.30269 0.01088 0.0
O86 O 0.11576 0.30646 0.98733 0.0
H87 H 1.01229 0.32347 0.02998 0.0
H88 H 1.0149 0.39993 0.98271 0.0
O89 O 1.03551 0.31729 0.94626 0.0
H90 H 0.14737 0.39498 0.98113 0.0
H91 H 0.96751 0.40685 0.01663 0.0
Cu92 Cu 0.85107 0.0628 0.00519 0.0
N93 N 0.87968 0.08662 -0.00877 0.0
N94 N 0.89656 0.12938 0.97693 0.0
C95 C 0.87453 0.11644 -0.01011 0.0
C96 C 0.91651 0.10661 0.96947 0.0
C97 C 0.90615 0.08011 0.97868 0.0
O98 O 0.8284 0.0905 0.03247 0.0
C99 C 0.84226 0.02154 0.95622 0.0
O100 O 0.87099 1.01673 0.96386 0.0
H101 H 0.85371 0.12802 -0.00367 0.0
H102 H 0.91642 0.05764 0.9752 0.0
N103 N 0.86844 0.0334 0.02775 0.0
N104 N 0.86923 0.99851 0.05994 0.0
C105 C 0.85185 1.01661 0.04325 0.0
C106 C 0.8975 0.02569 0.03453 0.0
C107 C 0.89806 1.0039 0.05442 0.0
C108 C 0.84537 0.1035 0.05351 0.0
O109 O 0.87433 0.09598 0.05489 0.0
H110 H 0.82739 1.01806 0.04246 0.0
H111 H 0.91682 0.03576 0.02632 0.0
O112 O 0.82765 0.04213 0.97157 0.0
H113 H 0.93626 0.10868 0.95702 0.0
H114 H 0.91805 0.99369 0.06478 0.0
Cu115 Cu 0.05686 0.78249 0.01897 0.0
N116 N 1.02949 0.80347 -0.0053 0.0
N117 N 0.99396 0.80929 0.95821 0.0
C118 C 1.00774 0.78995 0.97636 0.0
C119 C 1.00749 0.83611 0.96557 0.0
C120 C 1.02945 0.83244 0.98801 0.0
O121 O 1.03269 0.76129 0.0451 0.0
C122 C 0.09704 0.77498 0.97592 0.0
O123 O 0.09315 0.80458 0.98072 0.0
H124 H 1.00335 0.76593 0.97525 0.0
H125 H 0.04526 0.84932 -0.00251 0.0
N126 N 0.08286 0.80824 0.04332 0.0
N127 N 0.12301 0.82148 0.07381 0.0
C128 C 0.10926 0.79888 0.05625 0.0
C129 C 0.07971 0.83788 0.05298 0.0
C130 C 0.10443 0.8461 0.0718 0.0
C131 C 1.01845 0.7792 0.06363 0.0
O132 O 1.02111 0.80859 0.06298 0.0
H133 H 0.11756 0.77555 0.05369 0.0
H134 H 0.0604 0.85231 0.04764 0.0
O135 O 0.08287 0.75825 -0.00846 0.0
H136 H 1.00242 0.85675 0.95502 0.0
H137 H 0.10811 0.86835 0.08347 0.0
Cu138 Cu 0.55082 0.52823 0.74331 0.0
N139 N 0.57476 0.55031 0.72059 0.0
N140 N 0.60985 0.58374 0.71262 0.0
C141 C 0.59122 0.57428 0.7322 0.0
C142 C 0.60467 0.56489 0.68756 0.0
C143 C 0.58325 0.54421 0.6926 0.0
O144 O 0.58029 0.50486 0.76663 0.0
C145 C 0.50514 0.57046 0.74675 0.0
O146 O 0.50731 0.56359 0.71807 0.0
H147 H 0.58995 0.58406 0.75495 0.0
H148 H 0.57553 0.52528 0.67737 0.0
N149 N 0.52453 0.49993 0.72187 0.0
N150 N 0.49043 0.46289 0.71482 0.0
C151 C 0.50914 0.47935 0.73461 0.0
C152 C 0.5153 0.49649 0.69289 0.0
C153 C 0.49439 0.47371 0.68848 0.0
C154 C 0.59158 0.48153 0.75192 0.0
O155 O 0.58187 0.47491 0.7241 0.0
H156 H 0.51177 0.47667 0.75812 0.0
H157 H 0.5226 0.51007 0.67625 0.0
O158 O 0.524 0.55783 0.76456 0.0
H159 H 0.61645 0.56507 0.66739 0.0
H160 H 0.48245 0.46638 0.66754 0.0
Cu161 Cu 0.5663 0.53286 0.23049 0.0
N162 N 0.53822 0.50565 0.21025 0.0
N163 N 0.50183 0.47086 0.20512 0.0
C164 C 0.52161 0.48694 0.22409 0.0
C165 C 0.50644 0.47995 0.17814 0.0
C166 C 0.5288 0.50131 0.18137 0.0
O167 O 0.54146 0.56508 0.25073 0.0
C168 C 0.60544 0.48539 0.23702 0.0
O169 O 0.59672 0.48225 0.20864 0.0
H170 H 0.52405 0.48545 0.24781 0.0
H171 H 0.53693 0.51339 0.164 0.0
N172 N 0.59116 0.55289 0.20704 0.0
N173 N 0.62695 0.58509 0.19815 0.0
C174 C 0.60861 0.57625 0.21825 0.0
C175 C 0.59866 0.54655 0.17875 0.0
C176 C 0.62057 0.56646 0.17316 0.0
C177 C 0.52347 0.57781 0.23219 0.0
O178 O 0.52473 0.56881 0.20377 0.0
H179 H 0.60801 0.58625 0.24099 0.0
H180 H 0.5897 0.52814 0.16359 0.0
O181 O 0.59448 0.50773 0.25344 0.0
H182 H 0.49395 0.47253 0.15754 0.0
H183 H 0.63167 0.56642 0.15258 0.0
Cu184 Cu 0.76959 0.50369 0.49155 0.0
N185 N 0.75423 0.53345 0.46789 0.0
N186 N 0.75546 0.56749 0.43465 0.0
C187 C 0.7718 0.54901 0.45195 0.0
C188 C 0.72632 0.56349 0.44016 0.0
C189 C 0.72563 0.54235 0.46059 0.0
O190 O 0.78436 0.52268 0.52971 0.0
C191 C 0.81987 0.46239 0.4755 0.0
O192 O 0.82491 0.45704 0.50342 0.0
H193 H 0.79621 0.54648 0.45293 0.0
H194 H 0.70566 0.53356 0.46882 0.0
N195 N 0.74098 0.47575 0.49873 0.0
N196 N 0.72646 0.43373 0.51701 0.0
C197 C 0.74857 0.44715 0.50439 0.0
C198 C 0.71271 0.48067 0.50764 0.0
C199 C 0.70364 0.45473 0.51887 0.0
C200 C 0.81102 0.53138 0.53729 0.0
O201 O 0.8321 0.52732 0.51807 0.0
H202 H 0.77118 0.43762 0.50255 0.0
H203 H 0.70069 0.50237 0.50867 0.0
O204 O 0.79974 0.48194 0.46842 0.0
H205 H 0.70683 0.57424 0.42947 0.0
H206 H 0.68289 0.45248 0.52972 0.0
Cu207 Cu 0.56096 0.82822 0.49417 0.0
N208 N 0.588 0.85059 0.4752 0.0
N209 N 0.62419 0.85777 0.44427 0.0
C210 C 0.60476 0.83802 0.45308 0.0
C211 C 0.61938 0.88393 0.46158 0.0
C212 C 0.59702 0.87947 0.48057 0.0
O213 O 0.58665 0.80102 0.51627 0.0
C214 C 0.51625 0.78852 0.46115 0.0
O215 O 0.51454 0.77276 0.48404 0.0
H216 H 0.60337 0.81441 0.44433 0.0
H217 H 0.58841 0.89603 0.4973 0.0
N218 N 0.53578 0.85113 0.52057 0.0
N219 N 0.49871 0.85908 0.55226 0.0
C220 C 0.50939 0.84132 0.52902 0.0
C221 C 0.54179 0.87631 0.53896 0.0
C222 C 0.51887 0.88139 0.55834 0.0
C223 C 0.58058 0.79254 0.54119 0.0
O224 O 0.55289 0.79616 0.54984 0.0
H225 H 0.49921 0.8204 0.51956 0.0
H226 H 0.56236 0.88888 0.53973 0.0
O227 O 0.53522 0.80955 0.46209 0.0
H228 H 0.63115 0.90483 0.46065 0.0
H229 H 0.51829 0.8988 0.57687 0.0
Cu230 Cu 0.22944 0.55658 0.50202 0.0
N231 N 0.20624 0.58798 0.4874 0.0
N232 N 0.19914 0.63221 0.46794 0.0
C233 C 0.21915 0.61312 0.48061 0.0
C234 C 0.17228 0.61836 0.46662 0.0
C235 C 0.17673 0.59096 0.47888 0.0
O236 O 0.26382 0.57751 0.52263 0.0
C237 C 0.259 0.50649 0.46956 0.0
O238 O 0.27586 0.50406 0.49418 0.0
H239 H 0.24332 0.61634 0.48319 0.0
H240 H 0.15999 0.57403 0.48042 0.0
N241 N 0.20894 0.53741 0.52922 0.0
N242 N 0.20484 0.50585 0.5641 0.0
C243 C 0.2177 0.51058 0.5389 0.0
C244 C 0.18897 0.54975 0.54843 0.0
C245 C 0.18628 0.53016 0.57001 0.0
C246 C 0.27635 0.5715 0.54751 0.0
O247 O 0.27172 0.54519 0.55724 0.0
H248 H 0.23537 0.49613 0.52933 0.0
H249 H 0.17924 0.57248 0.54831 0.0
O250 O 0.23924 0.5279 0.4685 0.0
H251 H 0.15122 0.62687 0.45667 0.0
H252 H 0.174 0.53478 0.58994 0.0
Cu253 Cu 0.56572 0.21904 0.53645 0.0
N254 N 0.59533 0.19886 0.5143 0.0
N255 N 0.63483 0.19448 0.48594 0.0
C256 C 0.61834 0.21313 0.50441 0.0
C257 C 0.62179 0.16715 0.48456 0.0
C258 C 0.59732 0.16995 0.50208 0.0
O259 O 0.58721 0.24282 0.5697 0.0
C260 C 0.52696 0.22501 0.48766 0.0
O261 O 0.53192 0.19549 0.48661 0.0
H262 H 0.62214 0.2371 0.51001 0.0
H263 H 0.58128 0.15259 0.50446 0.0
N264 N 0.54113 0.19191 0.55199 0.0
N265 N 0.50229 0.17708 0.57529 0.0
C266 C 0.5134 0.19926 0.56119 0.0
C267 C 0.54766 0.16386 0.56023 0.0
C268 C 0.52376 0.15479 0.57502 0.0
C269 C 0.60329 0.22662 0.58685 0.0
O270 O 0.60385 0.197 0.58063 0.0
H271 H 0.50249 0.22134 0.55946 0.0
H272 H 0.56891 0.15159 0.55726 0.0
O273 O 0.53993 0.24175 0.50905 0.0
H274 H 0.62828 0.14707 0.47052 0.0
H275 H 0.52273 0.13414 0.58583 0.0
Tb276 Tb 0.32932 0.28678 0.28417 0.0
C277 C 0.32746 0.25362 0.22053 0.0
Tb278 Tb 0.28017 0.307 0.24043 0.0
O279 O 0.30874 0.24266 0.28401 0.0
O280 O 0.28146 0.28091 0.27713 0.0
O281 O 0.34387 0.25762 0.24607 0.0
C282 C 0.23343 0.30472 0.19946 0.0
O283 O 0.30258 0.26984 0.21429 0.0
C284 C 0.32881 0.34028 0.24453 0.0
C285 C 0.28505 0.34198 0.30245 0.0
O286 O 0.24914 0.32854 0.20832 0.0
O287 O 0.24365 0.28251 0.21414 0.0
O288 O 0.30167 0.34997 0.23706 0.0
O289 O 0.32822 0.31191 0.24623 0.0
O290 O 0.26499 0.33174 0.28109 0.0
O291 O 0.31295 0.33039 0.30468 0.0
C292 C 0.37313 0.2826 0.32751 0.0
O293 O 0.34445 0.27933 0.32991 0.0
O294 O 0.37734 0.28808 0.30041 0.0
C295 C 0.28157 0.25222 0.27675 0.0
Tb296 Tb 0.79754 0.26742 0.28748 0.0
C297 C 0.85929 0.23694 0.27069 0.0
Tb298 Tb 0.83185 0.29499 0.24069 0.0
O299 O 0.79032 0.22583 0.25837 0.0
O300 O 0.79392 0.26704 0.24027 0.0
O301 O 0.83998 0.24185 0.29198 0.0
C302 C 0.85977 0.3069 0.19289 0.0
O303 O 0.85757 0.25247 0.24687 0.0
C304 C 0.8395 0.32231 0.29428 0.0
C305 C 0.7721 0.32829 0.26182 0.0
O306 O 0.8724 0.30595 0.2194 0.0
O307 O 0.83133 0.30091 0.19314 0.0
O308 O 0.84312 0.33554 0.27051 0.0
O309 O 0.83584 0.29439 0.28737 0.0
O310 O 0.79101 0.32417 0.24003 0.0
O311 O 0.77298 0.31063 0.28391 0.0
C312 C 0.76772 0.25327 0.33307 0.0
O313 O 0.75675 0.25302 0.30583 0.0
O314 O 0.7956 0.26177 0.33485 0.0
C315 C 0.79211 0.23865 0.23407 0.0
Tb316 Tb 0.80499 0.80725 0.22924 0.0
C317 C 0.77873 0.80453 0.29079 0.0
Tb318 Tb 0.82967 0.75661 0.26516 0.0
O319 O 0.76012 0.78769 0.22373 0.0
O320 O 0.79884 0.75969 0.22781 0.0
O321 O 0.78228 0.82227 0.26939 0.0
C322 C 0.82995 0.70834 0.29628 0.0
O323 O 0.79318 0.77776 0.29177 0.0
C324 C 0.8652 0.80308 0.26669 0.0
C325 C 0.8571 0.76115 0.20409 0.0
O326 O 0.8416 0.73439 0.30564 0.0
O327 O 0.81936 0.70921 0.26901 0.0
O328 O 0.87493 0.77555 0.27052 0.0
O329 O 0.83654 0.80383 0.26583 0.0
O330 O 0.85393 0.74284 0.22523 0.0
O331 O 0.84201 0.78753 0.2032 0.0
C332 C 0.8021 0.85489 0.19756 0.0
O333 O 0.79204 0.82816 0.18838 0.0
O334 O 0.81292 0.85494 0.22483 0.0
C335 C 0.77023 0.76015 0.22665 0.0
Tb336 Tb 0.34133 0.81221 0.23725 0.0
C337 C 0.36648 0.74801 0.25292 0.0
Tb338 Tb 0.31068 0.78092 0.2848 0.0
O339 O 0.38418 0.81457 0.26377 0.0
O340 O 0.34345 0.81441 0.28424 0.0
O341 O 0.36387 0.76725 0.23194 0.0
C342 C 0.29446 0.75496 0.33166 0.0
O343 O 0.35007 0.75115 0.27661 0.0
C344 C 0.27948 0.78018 0.2336 0.0
C345 C 0.28746 0.84592 0.27251 0.0
O346 O 0.30021 0.78352 0.33156 0.0
O347 O 0.29844 0.74097 0.3056 0.0
O348 O 0.26775 0.77686 0.25848 0.0
O349 O 0.30794 0.77918 0.23758 0.0
O350 O 0.29064 0.82616 0.29271 0.0
O351 O 0.30265 0.84291 0.24795 0.0
C352 C 0.35431 0.84158 0.19104 0.0
O353 O 0.35535 0.85282 0.21863 0.0
O354 O 0.34632 0.81341 0.18941 0.0
C355 C 0.37179 0.81279 0.2887 0.0
Tb356 Tb 0.27128 0.75103 0.77081 0.0
C357 C 0.34075 0.72994 0.76853 0.0
Tb358 Tb 0.31433 0.78708 0.73648 0.0
O359 O 0.25106 0.72856 0.72956 0.0
O360 O 0.29516 0.7433 0.73139 0.0
O361 O 0.31493 0.72812 0.7818 0.0
C362 C 0.3471 0.80832 0.69551 0.0
O363 O 0.34384 0.74879 0.74782 0.0
C364 C 0.30954 0.80572 0.7933 0.0
C365 C 0.2455 0.81045 0.74151 0.0
O366 O 0.35393 0.81 0.7239 0.0
O367 O 0.32122 0.79509 0.69007 0.0
O368 O 0.33255 0.81151 0.77856 0.0
O369 O 0.29031 0.79378 0.77487 0.0
O370 O 0.27059 0.81113 0.72665 0.0
O371 O 0.24287 0.79102 0.76184 0.0
C372 C 0.24115 0.73234 0.81494 0.0
O373 O 0.23193 0.73031 0.78701 0.0
O374 O 0.26789 0.74389 0.81777 0.0
C375 C 0.27399 0.7326 0.71398 0.0
Tb376 Tb 0.29089 0.29953 0.72722 0.0
C377 C 0.26814 0.30413 0.79196 0.0
Tb378 Tb 0.31765 0.25327 0.77134 0.0
O379 O 0.25027 0.27435 0.7101 0.0
O380 O 0.28043 0.25724 0.74064 0.0
O381 O 0.26952 0.31763 0.76719 0.0
C382 C 0.32636 0.21036 0.80885 0.0
O383 O 0.283 0.27828 0.79695 0.0
C384 C 0.35333 0.2978 0.76224 0.0
C385 C 0.33831 0.24821 0.70693 0.0
O386 O 0.33226 0.23894 0.8151 0.0
O387 O 0.31571 0.20597 0.78142 0.0
O388 O 0.36313 0.27174 0.77054 0.0
O389 O 0.32487 0.2987 0.76242 0.0
O390 O 0.33169 0.23229 0.72887 0.0
O391 O 0.32883 0.27679 0.70497 0.0
C392 C 0.28045 0.34598 0.69444 0.0
O393 O 0.28559 0.31799 0.6842 0.0
O394 O 0.2818 0.34799 0.72326 0.0
C395 C 0.2561 0.25148 0.72555 0.0
Tb396 Tb 0.81583 0.29775 0.72992 0.0
C397 C 0.84773 0.24082 0.75539 0.0
Tb398 Tb 0.80397 0.28639 0.79379 0.0
O399 O 0.86387 0.30439 0.74146 0.0
O400 O 0.83179 0.31486 0.77311 0.0
O401 O 0.83832 0.25286 0.73043 0.0
C402 C 0.81008 0.27442 0.85038 0.0
O403 O 0.8387 0.2518 0.78185 0.0
C404 C 0.7604 0.27179 0.75341 0.0
C405 C 0.77369 0.34397 0.7706 0.0
O406 O 0.79405 0.25918 0.82934 0.0
O407 O 0.82234 0.29682 0.83958 0.0
O408 O 0.7558 0.28037 0.78106 0.0
O409 O 0.78848 0.26902 0.75043 0.0
O410 O 0.78351 0.33146 0.79497 0.0
O411 O 0.78167 0.33308 0.74362 0.0
C412 C 0.807 0.31011 0.67343 0.0
O413 O 0.82283 0.326 0.69416 0.0
O414 O 0.79694 0.28662 0.68433 0.0
C415 C 0.85983 0.31228 0.76939 0.0
Tb416 Tb 0.808 0.75521 0.72791 0.0
C417 C 0.83431 0.77734 0.79172 0.0
Tb418 Tb 0.77742 0.81316 0.76164 0.0
O419 O 0.845 0.77862 0.70988 0.0
O420 O 0.81285 0.80229 0.73363 0.0
O421 O 0.83365 0.75427 0.77045 0.0
C422 C 0.76926 0.86569 0.79509 0.0
O423 O 0.81641 0.80204 0.79097 0.0
C424 C 0.7469 0.76267 0.75931 0.0
C425 C 0.75152 0.79055 0.69859 0.0
O426 O 0.76464 0.83882 0.80282 0.0
O427 O 0.77766 0.86306 0.76791 0.0
O428 O 0.73483 0.78987 0.76325 0.0
O429 O 0.77539 0.76495 0.76032 0.0
O430 O 0.75611 0.81544 0.71719 0.0
O431 O 0.76623 0.76437 0.70195 0.0
C432 C 0.81605 0.70218 0.69574 0.0
O433 O 0.80754 0.72765 0.68565 0.0
O434 O 0.82027 0.70627 0.72459 0.0
C435 C 0.83632 0.80567 0.72028 0.0
C436 C 0.15419 0.13365 0.20714 0.0
C437 C 0.13989 0.12167 0.2301 0.0
C438 C 0.17572 0.15664 0.21319 0.0
C439 C 0.1836 0.16796 0.24299 0.0
C440 C 0.16887 0.15643 0.2662 0.0
C441 C 0.14727 0.13366 0.25952 0.0
C442 C 0.19087 0.16783 0.18761 0.0
C443 C 0.17644 0.1677 0.2983 0.0
C444 C 0.26201 0.20001 0.26349 0.0
C445 C 0.25607 0.23149 0.26733 0.0
C446 C 0.23884 0.17934 0.25505 0.0
C447 C 0.20866 0.19019 0.25021 0.0
C448 C 0.20256 0.22204 0.25344 0.0
C449 C 0.22627 0.2423 0.26216 0.0
C450 C 0.24669 0.14576 0.25164 0.0
C451 C 0.17094 0.23469 0.24769 0.0
H452 H 0.14912 0.1246 0.18434 0.0
H453 H 0.13616 0.12532 0.27755 0.0
H454 H 0.194 0.19274 0.19103 0.0
H455 H 0.21357 0.15669 0.18609 0.0
H456 H 0.17779 0.16234 0.16609 0.0
H457 H 0.16215 0.15746 0.31374 0.0
H458 H 0.20052 0.16219 0.30434 0.0
H459 H 0.17343 0.19278 0.30156 0.0
H460 H 0.28497 0.19137 0.26723 0.0
H461 H 0.22146 0.26655 0.26511 0.0
H462 H 0.24008 0.136 0.22872 0.0
H463 H 0.23384 0.13387 0.26705 0.0
H464 H 0.27122 0.14096 0.25622 0.0
H465 H 0.1556 0.22624 0.26327 0.0
H466 H 0.16226 0.22668 0.22482 0.0
H467 H 0.16997 0.25993 0.25028 0.0
C468 C 1.0004 0.11794 0.28767 0.0
C469 C 0.99299 0.09196 0.26869 0.0
C470 C 0.97912 0.14211 0.29207 0.0
C471 C 0.94987 0.13986 0.27741 0.0
C472 C 0.94179 0.11265 0.26003 0.0
C473 C 0.96351 0.08918 0.25573 0.0
C474 C 0.98859 0.17078 0.31071 0.0
C475 C 0.91077 0.10899 0.24437 0.0
C476 C 0.88431 0.19437 0.29679 0.0
C477 C 0.88353 0.21321 0.27353 0.0
C478 C 0.90648 0.17111 0.29908 0.0
C479 C 0.9285 0.16662 0.27768 0.0
C480 C 0.92837 0.18612 0.25467 0.0
C481 C 0.90586 0.20906 0.25282 0.0
C482 C 0.90568 0.15066 0.32376 0.0
C483 C 0.95147 0.18215 0.2314 0.0
H484 H 1.02331 0.12024 0.2974 0.0
H485 H 0.95775 0.06899 0.24112 0.0
H486 H 0.99104 0.18907 0.29603 0.0
H487 H 0.97106 0.17861 0.32635 0.0
H488 H 1.01046 0.16759 0.3236 0.0
H489 H 0.90713 0.08537 0.23427 0.0
H490 H 0.89292 0.1153 0.26009 0.0
H491 H 0.90797 0.12446 0.22649 0.0
H492 H 0.86722 0.19736 0.31298 0.0
H493 H 0.90564 0.22356 0.23487 0.0
H494 H 0.9283 0.14905 0.3356 0.0
H495 H 0.89978 0.12738 0.31422 0.0
H496 H 0.88888 0.15879 0.34013 0.0
H497 H 0.97467 0.18152 0.24217 0.0
H498 H 0.94981 0.20066 0.21645 0.0
H499 H 0.94816 0.16018 0.21767 0.0
C500 C 0.98485 0.93485 0.25916 0.0
C501 C 0.98616 0.94389 0.23035 0.0
C502 C 0.96446 0.91286 0.26543 0.0
C503 C 0.94477 0.89916 0.2424 0.0
C504 C 0.94577 0.90823 0.21334 0.0
C505 C 0.96625 0.93043 0.20771 0.0
C506 C 0.96432 0.90394 0.29673 0.0
C507 C 0.9254 0.89417 0.18804 0.0
C508 C 0.91449 0.82094 0.25176 0.0
C509 C 0.88503 0.82797 0.26044 0.0
C510 C 0.93396 0.84377 0.24568 0.0
C511 C 0.92393 0.87461 0.24846 0.0
C512 C 0.89415 0.88185 0.25724 0.0
C513 C 0.8751 0.85848 0.26317 0.0
C514 C 0.96545 0.83484 0.2366 0.0
C515 C 0.8826 0.91437 0.26089 0.0
H516 H 1.00018 0.94452 0.27689 0.0
H517 H 0.96649 0.93729 0.18547 0.0
H518 H 0.94121 0.90697 0.3048 0.0
H519 H 0.97085 0.87955 0.29704 0.0
H520 H 0.98012 0.91749 0.31243 0.0
H521 H 0.92831 0.90426 0.16696 0.0
H522 H 0.93037 0.86937 0.18451 0.0
H523 H 0.90139 0.89713 0.19358 0.0
H524 H 0.92235 0.79741 0.24953 0.0
H525 H 0.85263 0.86416 0.27046 0.0
H526 H 0.98235 0.84449 0.25381 0.0
H527 H 0.96973 0.84435 0.21556 0.0
H528 H 0.96917 0.8098 0.23359 0.0
H529 H 0.85808 0.9161 0.26479 0.0
H530 H 0.88662 0.92585 0.24089 0.0
H531 H 0.89521 0.92683 0.28002 0.0
C532 C 0.15948 0.98146 0.2873 0.0
C533 C 0.13589 0.97105 0.26717 0.0
C534 C 0.18542 0.96289 0.29244 0.0
C535 C 0.18738 0.93323 0.27741 0.0
C536 C 0.16266 0.92217 0.25852 0.0
C537 C 0.13742 0.94128 0.25345 0.0
C538 C 0.21138 0.97557 0.31256 0.0
C539 C 0.16339 0.89052 0.24259 0.0
C540 C 0.26111 0.89314 0.25624 0.0
C541 C 0.26433 0.87092 0.27635 0.0
C542 C 0.23723 0.91484 0.2576 0.0
C543 C 0.21579 0.91422 0.27942 0.0
C544 C 0.21969 0.89276 0.30063 0.0
C545 C 0.24394 0.87147 0.29892 0.0
C546 C 0.234 0.93735 0.23455 0.0
C547 C 0.19727 0.89111 0.32409 0.0
H548 H 0.15845 1.00462 0.29762 0.0
H549 H 0.11908 0.93318 0.23796 0.0
H550 H 0.21925 0.9592 0.32862 0.0
H551 H 0.2307 0.97927 0.29905 0.0
H552 H 0.20513 0.99751 0.32508 0.0
H553 H 0.14219 0.88526 0.22885 0.0
H554 H 0.18261 0.88794 0.22796 0.0
H555 H 0.16704 0.87349 0.25895 0.0
H556 H 0.27677 0.89309 0.23881 0.0
H557 H 0.24615 0.85447 0.31463 0.0
H558 H 0.2298 0.96063 0.24527 0.0
H559 H 0.21426 0.93154 0.21892 0.0
H560 H 0.2544 0.93741 0.22154 0.0
H561 H 0.19232 0.91405 0.3352 0.0
H562 H 0.20556 0.876 0.34123 0.0
H563 H 0.17566 0.88224 0.31346 0.0
C564 C 0.10628 0.92506 0.7122 0.0
C565 C 0.10546 0.9515 0.73209 0.0
C566 C 0.12911 0.90259 0.71483 0.0
C567 C 0.15216 0.90648 0.73788 0.0
C568 C 0.15112 0.93271 0.75866 0.0
C569 C 0.12767 0.9549 0.75561 0.0
C570 C 0.12883 0.87486 0.69247 0.0
C571 C 0.17523 0.93769 0.7836 0.0
C572 C 0.19558 0.83407 0.75578 0.0
C573 C 0.22154 0.83489 0.73957 0.0
C574 C 0.17344 0.85758 0.75618 0.0
C575 C 0.17705 0.8828 0.73994 0.0
C576 C 0.20325 0.88398 0.72368 0.0
C577 C 0.22513 0.86004 0.72364 0.0
C578 C 0.14587 0.85513 0.77365 0.0
C579 C 0.20805 0.91047 0.7061 0.0
H580 H 0.08912 0.92207 0.69405 0.0
H581 H 0.12739 0.97535 0.7709 0.0
H582 H 0.14963 0.87378 0.67998 0.0
H583 H 0.12872 0.85393 0.70407 0.0
H584 H 0.10888 0.87488 0.67631 0.0
H585 H 0.17081 0.95868 0.79844 0.0
H586 H 0.17674 0.91803 0.79709 0.0
H587 H 0.1976 0.93934 0.77426 0.0
H588 H 0.19244 0.81495 0.76837 0.0
H589 H 0.24517 0.8612 0.71134 0.0
H590 H 0.1253 0.85363 0.7583 0.0
H591 H 0.14306 0.87577 0.78936 0.0
H592 H 0.14721 0.83492 0.78645 0.0
H593 H 0.18997 0.91137 0.68805 0.0
H594 H 0.23033 0.90894 0.69605 0.0
H595 H 0.20652 0.9321 0.72064 0.0
C596 C 0.13082 0.12525 0.72883 0.0
C597 C 0.13343 0.10223 0.70537 0.0
C598 C 0.15241 0.14804 0.73466 0.0
C599 C 0.1774 0.14791 0.71665 0.0
C600 C 0.1807 0.12421 0.69354 0.0
C601 C 0.15867 0.10178 0.68812 0.0
C602 C 0.14778 0.17298 0.75933 0.0
C603 C 0.20704 0.12308 0.67389 0.0
C604 C 0.21005 0.22407 0.70573 0.0
C605 C 0.23653 0.22474 0.7245 0.0
C606 C 0.19075 0.19935 0.70319 0.0
C607 C 0.19801 0.17433 0.71976 0.0
C608 C 0.22467 0.17485 0.73896 0.0
C609 C 0.24361 0.20014 0.74115 0.0
C610 C 0.16254 0.20003 0.68261 0.0
C611 C 0.23325 0.14865 0.75701 0.0
H612 H 0.11132 0.12606 0.74214 0.0
H613 H 0.16123 0.08385 0.67031 0.0
H614 H 0.16871 0.1759 0.77402 0.0
H615 H 0.14274 0.19482 0.7497 0.0
H616 H 0.12887 0.16834 0.77305 0.0
H617 H 0.2079 0.10179 0.65872 0.0
H618 H 0.20524 0.14264 0.66027 0.0
H619 H 0.22866 0.12501 0.68765 0.0
H620 H 0.20433 0.24303 0.6928 0.0
H621 H 0.26388 0.2006 0.75573 0.0
H622 H 0.14223 0.19771 0.69522 0.0
H623 H 0.16315 0.18056 0.66521 0.0
H624 H 0.15997 0.22136 0.67155 0.0
H625 H 0.2146 0.14438 0.77113 0.0
H626 H 0.25418 0.15286 0.7715 0.0
H627 H 0.23679 0.12768 0.74194 0.0
C628 C 0.99623 0.13381 0.74659 0.0
C629 C 0.99129 0.10304 0.74895 0.0
C630 C 0.97278 0.15584 0.74998 0.0
C631 C 0.94328 0.1468 0.75487 0.0
C632 C 0.93844 0.11584 0.75844 0.0
C633 C 0.96258 0.09434 0.75564 0.0
C634 C 0.97931 0.18864 0.74699 0.0
C635 C 0.90738 0.10516 0.76351 0.0
C636 C 0.8866 0.20872 0.78155 0.0
C637 C 0.87102 0.2156 0.75486 0.0
C638 C 0.90961 0.18608 0.78196 0.0
C639 C 0.91746 0.16963 0.75503 0.0
C640 C 0.90154 0.17605 0.72804 0.0
C641 C 0.87868 0.19906 0.72824 0.0
C642 C 0.92611 0.18047 0.8112 0.0
C643 C 0.90893 0.15884 0.69884 0.0
H644 H 1.0183 0.14047 0.74087 0.0
H645 H 0.95849 0.07044 0.75659 0.0
H646 H 0.96685 0.19606 0.72682 0.0
H647 H 0.97132 0.20336 0.76635 0.0
H648 H 1.00381 0.19228 0.74538 0.0
H649 H 0.90768 0.08084 0.76773 0.0
H650 H 0.89783 0.11897 0.78267 0.0
H651 H 0.89195 0.10827 0.74369 0.0
H652 H 0.88134 0.22153 0.80233 0.0
H653 H 0.86688 0.20413 0.70753 0.0
H654 H 0.94945 0.18894 0.81173 0.0
H655 H 0.92794 0.15581 0.81384 0.0
H656 H 0.91465 0.19209 0.8304 0.0
H657 H 0.93245 0.16341 0.69387 0.0
H658 H 0.89341 0.16523 0.68008 0.0
H659 H 0.90762 0.13404 0.7003 0.0
C660 C 0.9604 0.93223 0.7236 0.0
C661 C 0.95413 0.95336 0.70267 0.0
C662 C 0.93917 0.91061 0.72855 0.0
C663 C 0.91084 0.90983 0.71213 0.0
C664 C 0.90397 0.93163 0.69162 0.0
C665 C 0.92564 0.95305 0.68711 0.0
C666 C 0.9476 0.88775 0.75053 0.0
C667 C 0.87406 0.9317 0.67368 0.0
C668 C 0.87563 0.83223 0.69713 0.0
C669 C 0.85344 0.8335 0.71796 0.0
C670 C 0.8939 0.85704 0.69476 0.0
C671 C 0.89014 0.88405 0.71383 0.0
C672 C 0.8675 0.8857 0.73481 0.0
C673 C 0.84935 0.86034 0.7366 0.0
C674 C 0.91769 0.85406 0.67213 0.0
C675 C 0.86279 0.91402 0.75561 0.0
H676 H 0.98233 0.93192 0.73558 0.0
H677 H 0.92023 0.96953 0.67131 0.0
H678 H 0.92944 0.88676 0.76613 0.0
H679 H 0.9501 0.8648 0.7385 0.0
H680 H 0.96915 0.89318 0.76362 0.0
H681 H 0.871 0.95174 0.66072 0.0
H682 H 0.87262 0.91081 0.65799 0.0
H683 H 0.8551 0.93154 0.6885 0.0
H684 H 0.87893 0.81152 0.68264 0.0
H685 H 0.83264 0.86125 0.75305 0.0
H686 H 0.9405 0.85665 0.68356 0.0
H687 H 0.91436 0.87235 0.65708 0.0
H688 H 0.9172 0.83178 0.65845 0.0
H689 H 0.88416 0.91976 0.7688 0.0
H690 H 0.84485 0.91145 0.77114 0.0
H691 H 0.85645 0.93347 0.7426 0.0
C692 C 0.26559 0.13169 0.10524 0.0
C693 C 0.28471 0.10951 0.09142 0.0
C694 C 0.2771 0.15364 0.12719 0.0
C695 C 0.30853 0.15356 0.13527 0.0
C696 C 0.3279 0.13107 0.12175 0.0
C697 C 0.31573 0.10917 0.10021 0.0
C698 C 0.2557 0.17734 0.14125 0.0
C699 C 0.36156 0.13053 0.12962 0.0
C700 C 0.33343 0.23069 0.16934 0.0
C701 C 0.33323 0.22708 0.19963 0.0
C702 C 0.32799 0.20606 0.14797 0.0
C703 C 0.32104 0.17764 0.15733 0.0
C704 C 0.32286 0.17346 0.18799 0.0
C705 C 0.32947 0.19828 0.20886 0.0
C706 C 0.32714 0.21116 0.11547 0.0
C707 C 0.31476 0.14379 0.19888 0.0
H708 H 0.24172 0.13233 0.09848 0.0
H709 H 0.33066 0.09175 0.09027 0.0
H710 H 0.25884 0.17862 0.16583 0.0
H711 H 0.26073 0.20001 0.13459 0.0
H712 H 0.23163 0.17257 0.13453 0.0
H713 H 0.3735 0.11127 0.11726 0.0
H714 H 0.37133 0.15207 0.12457 0.0
H715 H 0.366 0.12885 0.15378 0.0
H716 H 0.33589 0.2532 0.16239 0.0
H717 H 0.32858 0.19584 0.23237 0.0
H718 H 0.3033 0.21189 0.10636 0.0
H719 H 0.33901 0.19222 0.10264 0.0
H720 H 0.33767 0.23286 0.11192 0.0
H721 H 0.28998 0.14079 0.19519 0.0
H722 H 0.32102 0.14306 0.22295 0.0
H723 H 0.32608 0.12433 0.18628 0.0
C724 C 0.94567 0.37877 0.06811 0.0
C725 C 0.96038 0.35585 0.05034 0.0
C726 C 0.92623 0.37149 0.08952 0.0
C727 C 0.92156 0.34059 0.0932 0.0
C728 C 0.93508 0.31743 0.07423 0.0
C729 C 0.95418 0.32536 0.05297 0.0
C730 C 0.91189 0.3968 0.10915 0.0
C731 C 0.93062 0.28422 0.07736 0.0
C732 C 0.90628 0.32042 0.17006 0.0
C733 C 0.87524 0.31504 0.16711 0.0
C734 C 0.9215 0.32894 0.14618 0.0
C735 C 0.90519 0.33234 0.11873 0.0
C736 C 0.87377 0.32694 0.11561 0.0
C737 C 0.85913 0.3182 0.1399 0.0
C738 C 0.95512 0.33411 0.15028 0.0
C739 C 0.85567 0.33042 0.0867 0.0
H740 H 0.95032 0.40233 0.06614 0.0
H741 H 0.96473 0.30754 0.03869 0.0
H742 H 0.88734 0.39311 0.11009 0.0
H743 H 0.9222 0.39693 0.13214 0.0
H744 H 0.91493 0.41944 0.10128 0.0
H745 H 0.94061 0.26911 0.05925 0.0
H746 H 0.94137 0.27833 0.09893 0.0
H747 H 0.90619 0.27951 0.07737 0.0
H748 H 0.91875 0.31794 0.19112 0.0
H749 H 0.83507 0.31405 0.13767 0.0
H750 H 0.95996 0.35755 0.14562 0.0
H751 H 0.96727 0.31828 0.13427 0.0
H752 H 0.96438 0.3307 0.17312 0.0
H753 H 0.85784 0.35375 0.08024 0.0
H754 H 0.83131 0.32597 0.08812 0.0
H755 H 0.86471 0.3145 0.0687 0.0
C756 C 0.87523 0.95263 0.08677 0.0
C757 C 0.85869 0.97896 0.08041 0.0
C758 C 0.86462 0.93308 0.1061 0.0
C759 C 0.83669 0.94003 0.11914 0.0
C760 C 0.81993 0.9666 0.11286 0.0
C761 C 0.83124 0.98584 0.09375 0.0
C762 C 0.88293 0.90459 0.11168 0.0
C763 C 0.79002 0.97465 0.12627 0.0
C764 C 0.79839 0.87454 0.14791 0.0
C765 C 0.80711 0.87877 0.17826 0.0
C766 C 0.80718 0.89485 0.12842 0.0
C767 C 0.82514 0.91976 0.13969 0.0
C768 C 0.83297 0.92476 0.17052 0.0
C769 C 0.8238 0.90415 0.18949 0.0
C770 C 0.79822 0.88903 0.09568 0.0
C771 C 0.85237 0.95093 0.18326 0.0
H772 H 0.89619 0.94699 0.07619 0.0
H773 H 0.81861 1.00646 0.08943 0.0
H774 H 0.88149 0.89871 0.13475 0.0
H775 H 0.87387 0.88535 0.09647 0.0
H776 H 0.90711 0.90688 0.10738 0.0
H777 H 0.77945 0.99581 0.11852 0.0
H778 H 0.77409 0.95584 0.12045 0.0
H779 H 0.79328 0.97768 0.15086 0.0
H780 H 0.78557 0.8548 0.13924 0.0
H781 H 0.8307 0.90728 0.21295 0.0
H782 H 0.81869 0.88315 0.08322 0.0
H783 H 0.78768 0.90983 0.0872 0.0
H784 H 0.78213 0.87018 0.09089 0.0
H785 H 0.87581 0.94668 0.17626 0.0
H786 H 0.85301 0.95399 0.20791 0.0
H787 H 0.84393 0.97245 0.17466 0.0
C788 C 0.17207 0.79606 0.08612 0.0
C789 C 0.14999 0.81867 0.0931 0.0
C790 C 0.19662 0.79065 0.10629 0.0
C791 C 0.19915 0.80826 0.13411 0.0
C792 C 0.17796 0.8323 0.14056 0.0
C793 C 0.15364 0.8372 0.11999 0.0
C794 C 0.2189 0.76502 0.09845 0.0
C795 C 0.17987 0.85169 0.16995 0.0
C796 C 0.23269 0.77186 0.20148 0.0
C797 C 0.26117 0.78488 0.20601 0.0
C798 C 0.21277 0.77858 0.17759 0.0
C799 C 0.22141 0.79921 0.1579 0.0
C800 C 0.25042 0.81209 0.16205 0.0
C801 C 0.26999 0.8047 0.18614 0.0
C802 C 0.18206 0.76434 0.17405 0.0
C803 C 0.26035 0.83441 0.14172 0.0
H804 H 0.16981 0.7821 0.06511 0.0
H805 H 0.13669 0.85461 0.1257 0.0
H806 H 0.24244 0.77277 0.10304 0.0
H807 H 0.21588 0.7463 0.1125 0.0
H808 H 0.2159 0.75585 0.07475 0.0
H809 H 0.16399 0.87165 0.17009 0.0
H810 H 0.17434 0.83786 0.18791 0.0
H811 H 0.20318 0.85987 0.17526 0.0
H812 H 0.22573 0.75672 0.21705 0.0
H813 H 0.29138 0.81571 0.19033 0.0
H814 H 0.17834 0.75262 0.15136 0.0
H815 H 0.16411 0.78228 0.1769 0.0
H816 H 0.17943 0.74767 0.19043 0.0
H817 H 0.26022 0.82353 0.11857 0.0
H818 H 0.28337 0.84283 0.14837 0.0
H819 H 0.24426 0.85416 0.14175 0.0
C820 C 0.23797 0.93576 0.8972 0.0
C821 C 0.24528 0.93543 0.92769 0.0
C822 C 0.24708 0.91159 0.87702 0.0
C823 C 0.26358 0.88653 0.8878 0.0
C824 C 0.26882 0.88504 0.91873 0.0
C825 C 0.25972 0.90964 0.93832 0.0
C826 C 0.24078 0.91379 0.84412 0.0
C827 C 0.28551 0.85828 0.93105 0.0
C828 C 0.27219 0.81848 0.83139 0.0
C829 C 0.30061 0.82318 0.8209 0.0
C830 C 0.26048 0.83793 0.85434 0.0
C831 C 0.27732 0.8632 0.86659 0.0
C832 C 0.30666 0.86733 0.85709 0.0
C833 C 0.3181 0.84704 0.83442 0.0
C834 C 0.22941 0.83229 0.86423 0.0
C835 C 0.32528 0.8941 0.86972 0.0
H836 H 0.22702 0.9558 0.889 0.0
H837 H 0.26504 0.90938 0.96199 0.0
H838 H 0.26244 0.91543 0.83344 0.0
H839 H 0.22959 0.89304 0.83353 0.0
H840 H 0.22617 0.93388 0.8395 0.0
H841 H 0.28463 0.85903 0.95557 0.0
H842 H 0.27587 0.83663 0.92073 0.0
H843 H 0.30957 0.85817 0.92562 0.0
H844 H 0.25833 0.80041 0.82071 0.0
H845 H 0.33999 0.85082 0.82624 0.0
H846 H 0.21294 0.84924 0.85567 0.0
H847 H 0.22929 0.83491 0.88883 0.0
H848 H 0.22153 0.80922 0.85592 0.0
H849 H 0.31361 0.9155 0.86391 0.0
H850 H 0.34825 0.89313 0.86114 0.0
H851 H 0.32757 0.89507 0.89432 0.0
C852 C 0.16682 0.3845 0.92126 0.0
C853 C 0.1412 0.36665 0.92138 0.0
C854 C 0.18878 0.37744 0.90039 0.0
C855 C 0.18486 0.35212 0.87895 0.0
C856 C 0.15863 0.33468 0.87825 0.0
C857 C 0.13733 0.342 0.89949 0.0
C858 C 0.21654 0.39652 0.90177 0.0
C859 C 0.15348 0.30757 0.8556 0.0
C860 C 0.22718 0.34122 0.80837 0.0
C861 C 0.2485 0.31831 0.81503 0.0
C862 C 0.20711 0.35345 0.82943 0.0
C863 C 0.20857 0.34271 0.85789 0.0
C864 C 0.23087 0.32054 0.86517 0.0
C865 C 0.25045 0.3085 0.84361 0.0
C866 C 0.18344 0.37682 0.82073 0.0
C867 C 0.23329 0.30869 0.89539 0.0
H868 H 0.16995 0.40378 0.93773 0.0
H869 H 0.11816 0.32751 0.89931 0.0
H870 H 0.23696 0.38244 0.90718 0.0
H871 H 0.21937 0.40479 0.87982 0.0
H872 H 0.21546 0.41639 0.91874 0.0
H873 H 0.13101 0.29753 0.85687 0.0
H874 H 0.1552 0.31423 0.83281 0.0
H875 H 0.17121 0.28979 0.85918 0.0
H876 H 0.22549 0.349 0.78636 0.0
H877 H 0.26707 0.29108 0.8491 0.0
H878 H 0.18325 0.39661 0.83779 0.0
H879 H 0.16072 0.36676 0.81944 0.0
H880 H 0.1872 0.38498 0.79888 0.0
H881 H 0.23423 0.32784 0.91316 0.0
H882 H 0.25361 0.29366 0.89847 0.0
H883 H 0.21292 0.29561 0.89826 0.0
C884 C 0.89857 0.16237 0.93687 0.0
C885 C 0.89339 0.15891 0.96641 0.0
C886 C 0.88599 0.18724 0.92316 0.0
C887 C 0.86814 0.20931 0.93968 0.0
C888 C 0.86568 0.20756 0.97041 0.0
C889 C 0.87865 0.18242 0.98348 0.0
C890 C 0.88913 0.18732 0.89016 0.0
C891 C 0.84705 0.23057 0.9888 0.0
C892 C 0.84371 0.27577 0.89681 0.0
C893 C 0.81955 0.26284 0.87893 0.0
C894 C 0.85838 0.25993 0.91927 0.0
C895 C 0.84839 0.23072 0.92358 0.0
C896 C 0.82152 0.21966 0.90823 0.0
C897 C 0.8075 0.23581 0.8859 0.0
C898 C 0.88498 0.27409 0.93746 0.0
C899 C 0.80896 0.1895 0.91361 0.0
H900 H 0.9098 0.14417 0.92359 0.0
H901 H 0.87513 0.17979 0.00653 0.0
H902 H 0.87461 0.16956 0.8781 0.0
H903 H 0.88255 0.20935 0.8816 0.0
H904 H 0.91283 0.18137 0.88479 0.0
H905 H 0.84573 0.22468 0.01195 0.0
H906 H 0.85715 0.25323 -0.01037 0.0
H907 H 0.82373 0.23235 0.97847 0.0
H908 H 0.85243 0.29722 0.89198 0.0
H909 H 0.7883 0.22618 0.87258 0.0
H910 H 0.90235 0.25691 0.94386 0.0
H911 H 0.87678 0.28627 0.95811 0.0
H912 H 0.89585 0.29104 0.92548 0.0
H913 H 0.82282 0.17081 0.90267 0.0
H914 H 0.78518 0.18711 0.90449 0.0
H915 H 0.8099 0.18674 0.93775 0.0
C916 C 0.97009 0.81759 0.90877 0.0
C917 C 0.97144 0.80199 0.93433 0.0
C918 C 0.94828 0.8108 0.88539 0.0
C919 C 0.92714 0.78794 0.88765 0.0
C920 C 0.92863 0.7718 0.91319 0.0
C921 C 0.9508 0.77898 0.93618 0.0
C922 C 0.94752 0.82848 0.85848 0.0
C923 C 0.90631 0.74751 0.91655 0.0
C924 C 0.85287 0.79733 0.8428 0.0
C925 C 0.85682 0.77703 0.81739 0.0
C926 C 0.87517 0.80033 0.86617 0.0
C927 C 0.90224 0.7826 0.86421 0.0
C928 C 0.90596 0.76118 0.83919 0.0
C929 C 0.88312 0.75856 0.81606 0.0
C930 C 0.87015 0.82332 0.89249 0.0
C931 C 0.93457 0.74193 0.83634 0.0
H932 H 0.9863 0.83498 0.90691 0.0
H933 H 0.95157 0.76701 0.95596 0.0
H934 H 0.94847 0.81267 0.83794 0.0
H935 H 0.92595 0.84184 0.85675 0.0
H936 H 0.96656 0.84433 0.85942 0.0
H937 H 0.91166 0.73577 0.9369 0.0
H938 H 0.88319 0.75782 0.91763 0.0
H939 H 0.906 0.73036 0.89694 0.0
H940 H 0.83248 0.81149 0.84425 0.0
H941 H 0.88638 0.74291 0.79649 0.0
H942 H 0.88685 0.84157 0.89333 0.0
H943 H 0.87365 0.8124 0.9135 0.0
H944 H 0.84707 0.83392 0.89147 0.0
H945 H 0.95392 0.75671 0.83426 0.0
H946 H 0.93306 0.72479 0.81668 0.0
H947 H 0.93957 0.73 0.85658 0.0
C948 C 0.104 0.2988 0.06597 0.0
C949 C 0.11801 0.29539 0.03884 0.0
C950 C 0.12097 0.29746 0.09317 0.0
C951 C 0.15271 0.29243 0.09333 0.0
C952 C 0.16667 0.28701 0.06596 0.0
C953 C 0.14919 0.28861 0.0391 0.0
C954 C 0.10514 0.3032 0.1218 0.0
C955 C 0.20038 0.28119 0.06507 0.0
C956 C 0.20271 0.32728 0.15855 0.0
C957 C 0.21072 0.30203 0.17398 0.0
C958 C 0.1833 0.32452 0.13269 0.0
C959 C 0.1717 0.29574 0.1219 0.0
C960 C 0.17916 0.27027 0.13787 0.0
C961 C 0.19855 0.27374 0.16377 0.0
C962 C 0.17581 0.35231 0.11649 0.0
C963 C 0.16741 0.23921 0.12715 0.0
H964 H 0.07993 0.30399 0.06611 0.0
H965 H 0.16026 0.28575 0.01832 0.0
H966 H 0.11201 0.28562 0.13692 0.0
H967 H 0.11186 0.32549 0.13333 0.0
H968 H 0.08012 0.30341 0.11795 0.0
H969 H 0.2073 0.27434 0.04217 0.0
H970 H 0.21241 0.30211 0.07385 0.0
H971 H 0.20788 0.26312 0.07942 0.0
H972 H 0.21211 0.34916 0.16637 0.0
H973 H 0.20477 0.25412 0.17563 0.0
H974 H 0.15093 0.35579 0.11363 0.0
H975 H 0.18457 0.34896 0.09397 0.0
H976 H 0.18566 0.37321 0.12841 0.0
H977 H 0.14241 0.24029 0.1235 0.0
H978 H 0.17368 0.22219 0.1431 0.0
H979 H 0.17672 0.23124 0.1055 0.0
C980 C 0.12598 0.78238 0.93204 0.0
C981 C 0.11736 0.76277 0.95238 0.0
C982 C 0.1463 0.77295 0.91033 0.0
C983 C 0.15873 0.74301 0.90872 0.0
C984 C 0.14987 0.72278 0.92883 0.0
C985 C 0.12913 0.73285 0.9504 0.0
C986 C 0.15485 0.79537 0.88938 0.0
C987 C 0.16277 0.69076 0.92792 0.0
C988 C 0.19156 0.72044 0.834 0.0
C989 C 0.22169 0.72908 0.8398 0.0
C990 C 0.17123 0.72258 0.85678 0.0
C991 C 0.18126 0.73369 0.88609 0.0
C992 C 0.21221 0.74049 0.89236 0.0
C993 C 0.23202 0.73814 0.86914 0.0
C994 C 0.13849 0.71523 0.84897 0.0
C995 C 0.22398 0.75246 0.92317 0.0
H996 H 0.11688 0.80548 0.9331 0.0
H997 H 0.1227 0.71759 0.96605 0.0
H998 H 0.17934 0.79996 0.89294 0.0
H999 H 0.15071 0.78574 0.86597 0.0
H1000 H 0.14203 0.81732 0.8926 0.0
H1001 H 0.15282 0.67746 0.94425 0.0
H1002 H 0.1587 0.67886 0.90535 0.0
H1003 H 0.18763 0.69128 0.93273 0.0
H1004 H 0.18344 0.71343 0.81135 0.0
H1005 H 0.25527 0.74492 0.87377 0.0
H1006 H 0.12471 0.73666 0.84934 0.0
H1007 H 0.12977 0.70144 0.86555 0.0
H1008 H 0.13519 0.70273 0.82655 0.0
H1009 H 0.21607 0.77641 0.92787 0.0
H1010 H 0.2491 0.75171 0.92554 0.0
H1011 H 0.21515 0.73923 0.94015 0.0
C1012 C 0.32905 0.08504 0.92818 0.0
C1013 C 0.30086 0.08948 0.94062 0.0
C1014 C 0.33744 0.10325 0.90636 0.0
C1015 C 0.31714 0.1263 0.89684 0.0
C1016 C 0.28887 0.131 0.90961 0.0
C1017 C 0.28116 0.11264 0.93126 0.0
C1018 C 0.36783 0.09769 0.8933 0.0
C1019 C 0.2665 0.1553 0.9002 0.0
C1020 C 0.33916 0.1949 0.85982 0.0
C1021 C 0.3282 0.18729 0.8304 0.0
C1022 C 0.33771 0.17433 0.88138 0.0
C1023 C 0.32477 0.14559 0.87332 0.0
C1024 C 0.31519 0.13724 0.84325 0.0
C1025 C 0.31709 0.15819 0.82213 0.0
C1026 C 0.34831 0.18411 0.91312 0.0
C1027 C 0.30112 0.10693 0.8337 0.0
H1028 H 0.3444 0.06721 0.93526 0.0
H1029 H 0.25935 0.11642 0.94073 0.0
H1030 H 0.36465 0.0911 0.86905 0.0
H1031 H 0.38084 0.11889 0.89625 0.0
H1032 H 0.38139 0.07953 0.90366 0.0
H1033 H 0.24553 0.15613 0.91246 0.0
H1034 H 0.27695 0.1779 0.904 0.0
H1035 H 0.26018 0.15111 0.87607 0.0
H1036 H 0.34794 0.21734 0.86624 0.0
H1037 H 0.30872 0.1522 0.79935 0.0
H1038 H 0.36246 0.16588 0.92266 0.0
H1039 H 0.32842 0.18836 0.92678 0.0
H1040 H 0.36153 0.20519 0.915 0.0
H1041 H 0.31522 0.08826 0.8425 0.0
H1042 H 0.29818 0.10247 0.80913 0.0
H1043 H 0.27859 0.10646 0.84298 0.0
C1044 C 0.97054 0.27849 0.90901 0.0
C1045 C 0.99311 0.30007 0.91493 0.0
C1046 C 0.95085 0.27849 0.88337 0.0
C1047 C 0.95308 0.30123 0.86377 0.0
C1048 C 0.9767 0.32223 0.86897 0.0
C1049 C 0.99659 0.32122 0.89432 0.0
C1050 C 0.92743 0.25437 0.87744 0.0
C1051 C 0.98032 0.34643 0.84831 0.0
C1052 C 0.90993 0.29208 0.78804 0.0
C1053 C 0.88388 0.31017 0.79331 0.0
C1054 C 0.93272 0.28894 0.81066 0.0
C1055 C 0.92943 0.30444 0.8392 0.0
C1056 C 0.90324 0.32309 0.84443 0.0
C1057 C 0.88075 0.32564 0.82141 0.0
C1058 C 0.96006 0.26876 0.80397 0.0
C1059 C 0.89915 0.34087 0.87416 0.0
H1060 H 0.96801 0.26184 0.92464 0.0
H1061 H 1.01399 0.33803 0.89871 0.0
H1062 H 0.90462 0.26483 0.87351 0.0
H1063 H 0.93244 0.23967 0.85702 0.0
H1064 H 0.92716 0.23987 0.89603 0.0
H1065 H 1.0013 0.35937 0.85403 0.0
H1066 H 0.98078 0.33605 0.82501 0.0
H1067 H 0.96066 0.3626 0.8494 0.0
H1068 H 0.91227 0.27987 0.76631 0.0
H1069 H 0.86082 0.33999 0.82531 0.0
H1070 H 0.95871 0.24753 0.81486 0.0
H1071 H 0.9812 0.28002 0.81289 0.0
H1072 H 0.96157 0.26252 0.77974 0.0
H1073 H 0.90494 0.32659 0.89255 0.0
H1074 H 0.87564 0.35001 0.87617 0.0
H1075 H 0.91471 0.36022 0.87699 0.0
C1076 C 0.79801 1.00801 0.91979 0.0
C1077 C 0.82769 1.00214 0.93094 0.0
C1078 C 0.78452 0.98898 0.89608 0.0
C1079 C 0.801 0.96337 0.88353 0.0
C1080 C 0.83101 0.95757 0.8946 0.0
C1081 C 0.84396 0.97703 0.91796 0.0
C1082 C 0.75258 0.99604 0.88466 0.0
C1083 C 0.84936 0.93036 0.88219 0.0
C1084 C 0.76512 0.89184 0.84595 0.0
C1085 C 0.77154 0.89333 0.81625 0.0
C1086 C 0.77262 0.91557 0.86784 0.0
C1087 C 0.78686 0.9415 0.85982 0.0
C1088 C 0.79138 0.94405 0.82947 0.0
C1089 C 0.78368 0.91987 0.80801 0.0
C1090 C 0.76749 0.91174 0.89987 0.0
C1091 C 0.80633 0.97133 0.81991 0.0
H1092 H 0.78532 0.02741 0.92958 0.0
H1093 H 0.86688 0.97218 0.92636 0.0
H1094 H 0.75179 0.99758 0.86032 0.0
H1095 H 0.73765 0.97736 0.8885 0.0
H1096 H 0.74339 1.01766 0.89564 0.0
H1097 H 0.87263 0.92943 0.89285 0.0
H1098 H 0.83795 0.90911 0.88551 0.0
H1099 H 0.85101 0.9309 0.85792 0.0
H1100 H 0.75565 0.87138 0.85242 0.0
H1101 H 0.78863 0.92113 0.78505 0.0
H1102 H 0.75704 0.93268 0.91084 0.0
H1103 H 0.78956 0.90768 0.91205 0.0
H1104 H 0.75276 0.89233 0.90199 0.0
H1105 H 0.79667 0.99266 0.83093 0.0
H1106 H 0.80381 0.97217 0.79544 0.0
H1107 H 0.83083 0.97036 0.82668 0.0
C1108 C 0.99285 0.78783 0.11114 0.0
C1109 C 0.99842 0.76855 0.08542 0.0
C1110 C 0.97101 0.78122 0.13046 0.0
C1111 C 0.95386 0.75468 0.12397 0.0
C1112 C 0.96035 0.73426 0.09882 0.0
C1113 C 0.98272 0.74136 0.07987 0.0
C1114 C 0.96525 0.80359 0.15706 0.0
C1115 C 0.94258 0.70579 0.09105 0.0
C1116 C 0.90681 0.73773 0.18792 0.0
C1117 C 0.87983 0.75391 0.18145 0.0
C1118 C 0.93062 0.736 0.16849 0.0
C1119 C 0.92723 0.75057 0.14188 0.0
C1120 C 0.89921 0.76512 0.13441 0.0
C1121 C 0.87604 0.76673 0.15428 0.0
C1122 C 0.9601 0.72042 0.17747 0.0
C1123 C 0.89433 0.78088 0.10634 0.0
H1124 H 1.00512 0.80874 0.11583 0.0
H1125 H 0.9868 0.72641 0.06001 0.0
H1126 H 0.94261 0.81469 0.1539 0.0
H1127 H 0.96527 0.79162 0.17743 0.0
H1128 H 0.98241 0.82155 0.16063 0.0
H1129 H 0.95279 0.6904 0.07329 0.0
H1130 H 0.94105 0.69331 0.11094 0.0
H1131 H 0.91915 0.71202 0.08325 0.0
H1132 H 0.91005 0.72797 0.20896 0.0
H1133 H 0.85518 0.7791 0.14895 0.0
H1134 H 0.97709 0.73783 0.18509 0.0
H1135 H 0.96908 0.70618 0.15828 0.0
H1136 H 0.95759 0.70594 0.1958 0.0
H1137 H 0.90812 0.80156 0.10834 0.0
H1138 H 0.87025 0.78778 0.10192 0.0
H1139 H 0.90178 0.76587 0.08693 0.0
C1140 C 0.34177 0.95126 0.05767 0.0
C1141 C 0.31116 0.9604 0.05797 0.0
C1142 C 0.35402 0.93013 0.07685 0.0
C1143 C 0.33524 0.91824 0.09686 0.0
C1144 C 0.30431 0.9272 0.09691 0.0
C1145 C 0.29271 0.94797 0.07748 0.0
C1146 C 0.387 0.92071 0.07594 0.0
C1147 C 0.28339 0.91519 0.11786 0.0
C1148 C 0.34875 0.84717 0.13656 0.0
C1149 C 0.35595 0.85981 0.16564 0.0
C1150 C 0.3446 0.86571 0.11308 0.0
C1151 C 0.34758 0.89758 0.11899 0.0
C1152 C 0.35723 0.91002 0.14794 0.0
C1153 C 0.36133 0.89096 0.1709 0.0
C1154 C 0.33457 0.85145 0.08253 0.0
C1155 C 0.36048 0.94384 0.15534 0.0
H1156 H 0.35611 0.9606 0.04254 0.0
H1157 H 0.26901 0.95475 0.07793 0.0
H1158 H 0.3991 0.92807 0.09752 0.0
H1159 H 0.38938 0.89559 0.07251 0.0
H1160 H 0.39814 0.93062 0.05799 0.0
H1161 H 0.25992 0.92457 0.11516 0.0
H1162 H 0.28269 0.89008 0.11394 0.0
H1163 H 0.29198 0.92093 0.14123 0.0
H1164 H 0.34466 0.82305 0.13241 0.0
H1165 H 0.3671 0.90078 0.19337 0.0
H1166 H 0.34574 0.86205 0.06507 0.0
H1167 H 0.30979 0.85515 0.07871 0.0
H1168 H 0.33954 0.82659 0.08007 0.0
H1169 H 0.3731 0.95361 0.13835 0.0
H1170 H 0.3723 0.94941 0.1775 0.0
H1171 H 0.33769 0.95503 0.15538 0.0
C1172 C 0.8549 0.14399 0.09494 0.0
C1173 C 0.83396 0.12715 0.07592 0.0
C1174 C 0.84551 0.16488 0.11801 0.0
C1175 C 0.8143 0.16919 0.12237 0.0
C1176 C 0.79287 0.15345 0.10239 0.0
C1177 C 0.80296 0.13256 0.07931 0.0
C1178 C 0.8692 0.18112 0.13873 0.0
C1179 C 0.75938 0.15763 0.10623 0.0
C1180 C 0.79892 0.18974 0.20319 0.0
C1181 C 0.79512 0.22141 0.2047 0.0
C1182 C 0.80373 0.17244 0.17623 0.0
C1183 C 0.80478 0.18714 0.14997 0.0
C1184 C 0.79986 0.21907 0.15111 0.0
C1185 C 0.79495 0.23586 0.17855 0.0
C1186 C 0.8091 0.13852 0.17618 0.0
C1187 C 0.80088 0.23558 0.12363 0.0
H1188 H 0.87892 0.1404 0.09226 0.0
H1189 H 0.78665 0.11983 0.06458 0.0
H1190 H 0.86402 0.2059 0.14136 0.0
H1191 H 0.8691 0.17284 0.16106 0.0
H1192 H 0.89232 0.1774 0.1307 0.0
H1193 H 0.74563 0.14691 0.08685 0.0
H1194 H 0.7536 0.14727 0.12639 0.0
H1195 H 0.75304 0.18214 0.1095 0.0
H1196 H 0.79892 0.1784 0.22333 0.0
H1197 H 0.79122 0.26022 0.17956 0.0
H1198 H 0.83276 0.13251 0.1708 0.0
H1199 H 0.79401 0.12622 0.15885 0.0
H1200 H 0.80521 0.13033 0.19799 0.0
H1201 H 0.82438 0.23491 0.11645 0.0
H1202 H 0.79325 0.25974 0.12752 0.0
H1203 H 0.78652 0.22422 0.1051 0.0
C1204 C 0.64212 0.62216 0.69442 0.0
C1205 C 0.63186 0.60765 0.71801 0.0
C1206 C 0.66286 0.64593 0.69953 0.0
C1207 C 0.67372 0.65562 0.72896 0.0
C1208 C 0.66402 0.64062 0.75276 0.0
C1209 C 0.64337 0.61692 0.74702 0.0
C1210 C 0.67254 0.66125 0.67347 0.0
C1211 C 0.67491 0.65013 0.78449 0.0
C1212 C 0.74275 0.70611 0.74519 0.0
C1213 C 0.729 0.7349 0.75089 0.0
C1214 C 0.7252 0.68013 0.7372 0.0
C1215 C 0.69312 0.68299 0.73527 0.0
C1216 C 0.67927 0.71216 0.74062 0.0
C1217 C 0.69732 0.73762 0.74826 0.0
C1218 C 0.74098 0.6496 0.73121 0.0
C1219 C 0.64527 0.7165 0.73874 0.0
H1220 H 0.63339 0.61545 0.67194 0.0
H1221 H 0.6363 0.60562 0.76543 0.0
H1222 H 0.66385 0.68512 0.67496 0.0
H1223 H 0.69758 0.6619 0.67395 0.0
H1224 H 0.66409 0.64956 0.65182 0.0
H1225 H 0.66654 0.63523 0.80037 0.0
H1226 H 0.7 0.64969 0.78666 0.0
H1227 H 0.66709 0.67382 0.79089 0.0
H1228 H 0.76717 0.70385 0.74718 0.0
H1229 H 0.68645 0.75981 0.75241 0.0
H1230 H 0.73262 0.63838 0.70935 0.0
H1231 H 0.73574 0.63466 0.74836 0.0
H1232 H 0.76593 0.65149 0.73131 0.0
H1233 H 0.63578 0.70751 0.71646 0.0
H1234 H 0.63804 0.74075 0.74284 0.0
H1235 H 0.63532 0.70355 0.75531 0.0
C1236 C 0.48198 0.60904 0.78453 0.0
C1237 C 0.48039 0.59182 0.75678 0.0
C1238 C 0.45951 0.63146 0.7919 0.0
C1239 C 0.43487 0.63647 0.77115 0.0
C1240 C 0.43254 0.61802 0.74379 0.0
C1241 C 0.45526 0.59613 0.73697 0.0
C1242 C 0.4628 0.65062 0.82131 0.0
C1243 C 0.40663 0.6222 0.72102 0.0
C1244 C 0.36169 0.68109 0.78717 0.0
C1245 C 0.36616 0.7079 0.77404 0.0
C1246 C 0.38466 0.65832 0.78838 0.0
C1247 C 0.41279 0.66251 0.77628 0.0
C1248 C 0.41804 0.69041 0.76488 0.0
C1249 C 0.39473 0.71264 0.76385 0.0
C1250 C 0.37809 0.62901 0.80081 0.0
C1251 C 0.44765 0.69606 0.7519 0.0
H1252 H 0.50129 0.60582 0.79995 0.0
H1253 H 0.45353 0.58263 0.71564 0.0
H1254 H 0.46843 0.67411 0.8175 0.0
H1255 H 0.44117 0.65198 0.83247 0.0
H1256 H 0.48088 0.64154 0.83643 0.0
H1257 H 0.40699 0.60459 0.70177 0.0
H1258 H 0.38467 0.62137 0.73131 0.0
H1259 H 0.40778 0.64484 0.71264 0.0
H1260 H 0.33978 0.67719 0.79523 0.0
H1261 H 0.39867 0.73343 0.75406 0.0
H1262 H 0.39749 0.62172 0.81541 0.0
H1263 H 0.37466 0.61085 0.78229 0.0
H1264 H 0.35747 0.63109 0.81364 0.0
H1265 H 0.46699 0.69007 0.7672 0.0
H1266 H 0.44955 0.72011 0.74732 0.0
H1267 H 0.44958 0.6814 0.73073 0.0
C1268 C 0.46105 0.43721 0.74965 0.0
C1269 C 0.47003 0.4394 0.72074 0.0
C1270 C 0.44159 0.4144 0.7558 0.0
C1271 C 0.43041 0.39317 0.73251 0.0
C1272 C 0.43903 0.39536 0.70323 0.0
C1273 C 0.45874 0.41827 0.69774 0.0
C1274 C 0.43313 0.41291 0.78737 0.0
C1275 C 0.42758 0.37332 0.67769 0.0
C1276 C 0.40414 0.31723 0.7536 0.0
C1277 C 0.3727 0.32199 0.75381 0.0
C1278 C 0.42308 0.34002 0.74643 0.0
C1279 C 0.41031 0.3683 0.73899 0.0
C1280 C 0.37846 0.37298 0.73862 0.0
C1281 C 0.36011 0.34988 0.74627 0.0
C1282 C 0.45684 0.33397 0.74723 0.0
C1283 C 0.36375 0.40252 0.73046 0.0
H1284 H 0.46899 0.4535 0.76763 0.0
H1285 H 0.46559 0.41929 0.67537 0.0
H1286 H 0.4082 0.41499 0.78848 0.0
H1287 H 0.44036 0.39055 0.79494 0.0
H1288 H 0.44363 0.43109 0.803 0.0
H1289 H 0.43553 0.3786 0.65607 0.0
H1290 H 0.43528 0.34985 0.6816 0.0
H1291 H 0.40248 0.37369 0.67618 0.0
H1292 H 0.41404 0.29569 0.75932 0.0
H1293 H 0.33592 0.3538 0.74665 0.0
H1294 H 0.46833 0.35062 0.7638 0.0
H1295 H 0.4655 0.33693 0.7253 0.0
H1296 H 0.46319 0.31069 0.75303 0.0
H1297 H 0.37107 0.42132 0.74716 0.0
H1298 H 0.33865 0.40185 0.72929 0.0
H1299 H 0.37104 0.40788 0.70864 0.0
C1300 C 0.64271 0.4767 0.7785 0.0
C1301 C 0.61713 0.46304 0.76379 0.0
C1302 C 0.66971 0.45959 0.78328 0.0
C1303 C 0.67081 0.42809 0.77356 0.0
C1304 C 0.64429 0.41396 0.76053 0.0
C1305 C 0.61796 0.43166 0.75551 0.0
C1306 C 0.69754 0.47557 0.79693 0.0
C1307 C 0.64412 0.38037 0.7504 0.0
C1308 C 0.74231 0.38559 0.74894 0.0
C1309 C 0.75022 0.36877 0.77308 0.0
C1310 C 0.71758 0.40634 0.74956 0.0
C1311 C 0.69993 0.41008 0.77476 0.0
C1312 C 0.70852 0.39407 0.79966 0.0
C1313 C 0.73365 0.37379 0.79861 0.0
C1314 C 0.7095 0.42321 0.72264 0.0
C1315 C 0.69012 0.39696 0.82675 0.0
H1316 H 0.64227 0.50106 0.78443 0.0
H1317 H 0.59817 0.42109 0.74405 0.0
H1318 H 0.70859 0.46288 0.81479 0.0
H1319 H 0.71412 0.47643 0.77971 0.0
H1320 H 0.69224 0.49917 0.8063 0.0
H1321 H 0.621 0.37237 0.74343 0.0
H1322 H 0.65859 0.37545 0.73132 0.0
H1323 H 0.65365 0.36704 0.76847 0.0
H1324 H 0.75501 0.38201 0.72917 0.0
H1325 H 0.73937 0.3608 0.81734 0.0
H1326 H 0.70591 0.4478 0.7294 0.0
H1327 H 0.688 0.41463 0.71145 0.0
H1328 H 0.72728 0.42042 0.70631 0.0
H1329 H 0.68561 0.42121 0.8343 0.0
H1330 H 0.70157 0.38574 0.84546 0.0
H1331 H 0.66789 0.38635 0.82098 0.0
C1332 C 0.6526 0.47196 0.2677 0.0
C1333 C 0.62811 0.4631 0.24797 0.0
C1334 C 0.67704 0.45149 0.27303 0.0
C1335 C 0.67663 0.42151 0.25854 0.0
C1336 C 0.65106 0.41216 0.23995 0.0
C1337 C 0.62733 0.43307 0.23477 0.0
C1338 C 0.70391 0.46236 0.29294 0.0
C1339 C 0.64925 0.38035 0.22447 0.0
C1340 C 0.74799 0.37454 0.24065 0.0
C1341 C 0.74895 0.35355 0.26199 0.0
C1342 C 0.72547 0.39775 0.24023 0.0
C1343 C 0.70318 0.39998 0.26151 0.0
C1344 C 0.70458 0.37945 0.28363 0.0
C1345 C 0.72742 0.35662 0.28366 0.0
C1346 C 0.72496 0.41931 0.21638 0.0
C1347 C 0.68122 0.38079 0.30659 0.0
H1348 H 0.65346 0.49527 0.27762 0.0
H1349 H 0.60836 0.42611 0.21955 0.0
H1350 H 0.70992 0.44611 0.30965 0.0
H1351 H 0.72378 0.46349 0.27943 0.0
H1352 H 0.69962 0.4852 0.3047 0.0
H1353 H 0.62697 0.37611 0.21232 0.0
H1354 H 0.66714 0.37658 0.20836 0.0
H1355 H 0.65324 0.36336 0.24084 0.0
H1356 H 0.76461 0.37265 0.224 0.0
H1357 H 0.72792 0.34074 0.30043 0.0
H1358 H 0.7234 0.44317 0.22643 0.0
H1359 H 0.70465 0.41534 0.20099 0.0
H1360 H 0.74536 0.41645 0.20326 0.0
H1361 H 0.67877 0.40423 0.31753 0.0
H1362 H 0.68704 0.36512 0.32392 0.0
H1363 H 0.65889 0.37457 0.29555 0.0
C1364 C 0.65869 0.62302 0.17883 0.0
C1365 C 0.64927 0.60868 0.20283 0.0
C1366 C 0.67974 0.64647 0.18314 0.0
C1367 C 0.69179 0.65603 0.2122 0.0
C1368 C 0.6829 0.64127 0.23647 0.0
C1369 C 0.66183 0.61786 0.23152 0.0
C1370 C 0.68863 0.66147 0.15659 0.0
C1371 C 0.6953 0.65054 0.26779 0.0
C1372 C 0.76299 0.70358 0.21972 0.0
C1373 C 0.75075 0.7332 0.2242 0.0
C1374 C 0.74422 0.67818 0.21641 0.0
C1375 C 0.7124 0.68251 0.21727 0.0
C1376 C 0.70006 0.71241 0.22217 0.0
C1377 C 0.71934 0.7373 0.22556 0.0
C1378 C 0.75839 0.64675 0.2115 0.0
C1379 C 0.66637 0.71818 0.22347 0.0
H1380 H 0.64911 0.6164 0.15664 0.0
H1381 H 0.65533 0.60667 0.25022 0.0
H1382 H 0.68124 0.68575 0.15878 0.0
H1383 H 0.71361 0.66071 0.15565 0.0
H1384 H 0.67849 0.65044 0.13532 0.0
H1385 H 0.68731 0.63588 0.28408 0.0
H1386 H 0.72039 0.6495 0.26894 0.0
H1387 H 0.68828 0.67441 0.2745 0.0
H1388 H 0.78718 0.70026 0.21818 0.0
H1389 H 0.70973 0.76013 0.2291 0.0
H1390 H 0.75048 0.63589 0.18935 0.0
H1391 H 0.75125 0.63232 0.22833 0.0
H1392 H 0.78351 0.64712 0.21277 0.0
H1393 H 0.65469 0.7097 0.20199 0.0
H1394 H 0.6604 0.74269 0.22824 0.0
H1395 H 0.65754 0.70558 0.24092 0.0
C1396 C 0.50679 0.62599 0.26205 0.0
C1397 C 0.50029 0.60133 0.24097 0.0
C1398 C 0.48595 0.65072 0.26606 0.0
C1399 C 0.4579 0.65035 0.24897 0.0
C1400 C 0.45084 0.62471 0.22877 0.0
C1401 C 0.47217 0.60078 0.22485 0.0
C1402 C 0.49437 0.67771 0.28769 0.0
C1403 C 0.42103 0.62288 0.21058 0.0
C1404 C 0.39049 0.70092 0.27176 0.0
C1405 C 0.39008 0.72319 0.25162 0.0
C1406 C 0.41296 0.67775 0.27183 0.0
C1407 C 0.4359 0.67676 0.25142 0.0
C1408 C 0.43608 0.69954 0.23148 0.0
C1409 C 0.41312 0.72236 0.23171 0.0
C1410 C 0.4116 0.65382 0.29324 0.0
C1411 C 0.46032 0.69951 0.20956 0.0
H1412 H 0.52867 0.62665 0.27424 0.0
H1413 H 0.46704 0.58168 0.20858 0.0
H1414 H 0.49558 0.69818 0.27554 0.0
H1415 H 0.47673 0.68251 0.30394 0.0
H1416 H 0.51649 0.67413 0.30002 0.0
H1417 H 0.41836 0.60064 0.1971 0.0
H1418 H 0.40195 0.62649 0.22535 0.0
H1419 H 0.41928 0.6411 0.19536 0.0
H1420 H 0.37298 0.70132 0.28743 0.0
H1421 H 0.41337 0.73967 0.21641 0.0
H1422 H 0.43353 0.65193 0.30628 0.0
H1423 H 0.40751 0.63137 0.28065 0.0
H1424 H 0.39341 0.65882 0.30891 0.0
H1425 H 0.48305 0.69835 0.22127 0.0
H1426 H 0.45872 0.72002 0.19719 0.0
H1427 H 0.45837 0.67909 0.1933 0.0
C1428 C 0.46564 0.42945 0.19005 0.0
C1429 C 0.47949 0.44977 0.21231 0.0
C1430 C 0.44283 0.41004 0.19639 0.0
C1431 C 0.4336 0.41054 0.22581 0.0
C1432 C 0.44811 0.43019 0.24858 0.0
C1433 C 0.47065 0.44958 0.24158 0.0
C1434 C 0.42793 0.38961 0.17134 0.0
C1435 C 0.43917 0.43141 0.28028 0.0
C1436 C 0.35259 0.38835 0.23489 0.0
C1437 C 0.35616 0.35811 0.24164 0.0
C1438 C 0.37755 0.40557 0.23001 0.0
C1439 C 0.40711 0.39247 0.2322 0.0
C1440 C 0.411 0.36215 0.23982 0.0
C1441 C 0.38546 0.34527 0.24433 0.0
C1442 C 0.37216 0.4377 0.2219 0.0
C1443 C 0.4421 0.34743 0.24281 0.0
H1444 H 0.47244 0.42874 0.16748 0.0
H1445 H 0.48072 0.46515 0.2591 0.0
H1446 H 0.42892 0.36573 0.17693 0.0
H1447 H 0.40368 0.39636 0.16819 0.0
H1448 H 0.4387 0.39062 0.15001 0.0
H1449 H 0.45447 0.44567 0.29588 0.0
H1450 H 0.41577 0.4409 0.2818 0.0
H1451 H 0.43934 0.4082 0.28757 0.0
H1452 H 0.33005 0.39853 0.2329 0.0
H1453 H 0.38839 0.32194 0.24959 0.0
H1454 H 0.38057 0.43979 0.19967 0.0
H1455 H 0.38493 0.45377 0.23805 0.0
H1456 H 0.34784 0.4447 0.22149 0.0
H1457 H 0.4525 0.34552 0.22105 0.0
H1458 H 0.4415 0.3244 0.2505 0.0
H1459 H 0.45696 0.36175 0.25873 0.0
C1460 C 0.79323 0.55484 0.58573 0.0
C1461 C 0.81678 0.54929 0.56643 0.0
C1462 C 0.79623 0.57589 0.61088 0.0
C1463 C 0.82354 0.59163 0.61707 0.0
C1464 C 0.84839 0.584 0.59933 0.0
C1465 C 0.84467 0.56298 0.57407 0.0
C1466 C 0.76912 0.58336 0.62911 0.0
C1467 C 0.87807 0.59987 0.60556 0.0
C1468 C 0.81241 0.67399 0.64591 0.0
C1469 C 0.81942 0.67359 0.67645 0.0
C1470 C 0.81436 0.64756 0.62648 0.0
C1471 C 0.82377 0.61986 0.63779 0.0
C1472 C 0.83151 0.6193 0.66861 0.0
C1473 C 0.82907 0.6463 0.68773 0.0
C1474 C 0.80561 0.64925 0.59384 0.0
C1475 C 0.84186 0.59021 0.68135 0.0
H1476 H 0.77173 0.54398 0.58035 0.0
H1477 H 0.86316 0.55848 0.55958 0.0
H1478 H 0.77584 0.58522 0.6532 0.0
H1479 H 0.75909 0.60568 0.6239 0.0
H1480 H 0.75141 0.56604 0.62439 0.0
H1481 H 0.89664 0.58739 0.59379 0.0
H1482 H 0.87575 0.62297 0.598 0.0
H1483 H 0.88445 0.60246 0.62975 0.0
H1484 H 0.80494 0.69508 0.63709 0.0
H1485 H 0.83452 0.64602 0.71137 0.0
H1486 H 0.78614 0.63447 0.58693 0.0
H1487 H 0.82467 0.64085 0.58026 0.0
H1488 H 0.79928 0.67272 0.58864 0.0
H1489 H 0.82288 0.57426 0.67948 0.0
H1490 H 0.84995 0.59415 0.70511 0.0
H1491 H 0.86033 0.57896 0.66855 0.0
C1492 C 0.46878 0.82233 0.57513 0.0
C1493 C 0.47437 0.85244 0.57025 0.0
C1494 C 0.44669 0.81558 0.59427 0.0
C1495 C 0.42926 0.83944 0.60863 0.0
C1496 C 0.43415 0.86983 0.60306 0.0
C1497 C 0.45684 0.87597 0.58423 0.0
C1498 C 0.44279 0.78292 0.59996 0.0
C1499 C 0.41577 0.89592 0.61742 0.0
C1500 C 0.35742 0.81747 0.64312 0.0
C1501 C 0.36724 0.81755 0.67318 0.0
C1502 C 0.37708 0.82523 0.62193 0.0
C1503 C 0.40742 0.83269 0.63092 0.0
C1504 C 0.4173 0.83286 0.66131 0.0
C1505 C 0.39707 0.82557 0.68203 0.0
C1506 C 0.36546 0.82522 0.58988 0.0
C1507 C 0.44951 0.84012 0.67192 0.0
H1508 H 0.48253 0.80405 0.56482 0.0
H1509 H 0.46092 0.89923 0.58038 0.0
H1510 H 0.44869 0.78016 0.62374 0.0
H1511 H 0.41883 0.77656 0.59527 0.0
H1512 H 0.45721 0.7669 0.5862 0.0
H1513 H 0.42061 0.9179 0.60902 0.0
H1514 H 0.39125 0.89161 0.6133 0.0
H1515 H 0.42077 0.89794 0.64184 0.0
H1516 H 0.33439 0.8113 0.63617 0.0
H1517 H 0.40486 0.82552 0.70521 0.0
H1518 H 0.37804 0.80775 0.57587 0.0
H1519 H 0.36939 0.84753 0.58177 0.0
H1520 H 0.34093 0.82051 0.5867 0.0
H1521 H 0.46534 0.82366 0.66042 0.0
H1522 H 0.45363 0.83934 0.69628 0.0
H1523 H 0.45497 0.86307 0.6663 0.0
C1524 C 0.19479 0.47008 0.6005 0.0
C1525 C 0.21521 0.48399 0.58418 0.0
C1526 C 0.20493 0.4482 0.61961 0.0
C1527 C 0.23625 0.44066 0.62277 0.0
C1528 C 0.25699 0.45538 0.60698 0.0
C1529 C 0.24619 0.4767 0.58777 0.0
C1530 C 0.18215 0.43266 0.63588 0.0
C1531 C 0.29059 0.44837 0.6101 0.0
C1532 C 0.2673 0.40046 0.68902 0.0
C1533 C 0.27044 0.37052 0.67613 0.0
C1534 C 0.25605 0.42363 0.67195 0.0
C1535 C 0.24739 0.41643 0.64148 0.0
C1536 C 0.25055 0.38616 0.62844 0.0
C1537 C 0.26228 0.36359 0.64591 0.0
C1538 C 0.25355 0.45577 0.68643 0.0
C1539 C 0.24142 0.37758 0.59606 0.0
H1540 H 0.17089 0.47585 0.59772 0.0
H1541 H 0.26211 0.48797 0.5757 0.0
H1542 H 0.18268 0.40792 0.62878 0.0
H1543 H 0.18807 0.43545 0.66014 0.0
H1544 H 0.15875 0.44174 0.63169 0.0
H1545 H 0.30381 0.46306 0.59748 0.0
H1546 H 0.29878 0.45142 0.63385 0.0
H1547 H 0.29525 0.42431 0.60193 0.0
H1548 H 0.27362 0.40575 0.71244 0.0
H1549 H 0.26451 0.34036 0.636 0.0
H1550 H 0.22977 0.4643 0.68429 0.0
H1551 H 0.26739 0.47089 0.67495 0.0
H1552 H 0.2612 0.45754 0.71036 0.0
H1553 H 0.21741 0.38437 0.59127 0.0
H1554 H 0.24427 0.35281 0.58964 0.0
H1555 H 0.25525 0.38992 0.58186 0.0
C1556 C 0.62788 0.22194 0.63696 0.0
C1557 C 0.622 0.2396 0.61309 0.0
C1558 C 0.64892 0.23074 0.6604 0.0
C1559 C 0.66498 0.25778 0.65991 0.0
C1560 C 0.65824 0.27652 0.63653 0.0
C1561 C 0.63654 0.26732 0.61343 0.0
C1562 C 0.65488 0.2103 0.68508 0.0
C1563 C 0.6747 0.30565 0.6354 0.0
C1564 C 0.70803 0.28368 0.73306 0.0
C1565 C 0.73655 0.26979 0.72892 0.0
C1566 C 0.68483 0.28131 0.7103 0.0
C1567 C 0.69034 0.26467 0.68272 0.0
C1568 C 0.71948 0.25144 0.6782 0.0
C1569 C 0.74211 0.25392 0.70145 0.0
C1570 C 0.65418 0.29576 0.7161 0.0
C1571 C 0.72643 0.23355 0.64919 0.0
H1572 H 0.61646 0.20063 0.63697 0.0
H1573 H 0.63212 0.28099 0.59497 0.0
H1574 H 0.67817 0.20038 0.68424 0.0
H1575 H 0.65327 0.22358 0.70704 0.0
H1576 H 0.63875 0.19142 0.68345 0.0
H1577 H 0.66854 0.31651 0.61469 0.0
H1578 H 0.66922 0.32192 0.65466 0.0
H1579 H 0.69952 0.30126 0.6371 0.0
H1580 H 0.70375 0.29623 0.75424 0.0
H1581 H 0.76398 0.24276 0.69836 0.0
H1582 H 0.6368 0.27806 0.71395 0.0
H1583 H 0.64774 0.31181 0.69932 0.0
H1584 H 0.65369 0.30826 0.73858 0.0
H1585 H 0.71448 0.21173 0.64702 0.0
H1586 H 0.75105 0.2285 0.64769 0.0
H1587 H 0.71823 0.24618 0.63015 0.0
C1588 C 0.84856 0.41504 0.45686 0.0
C1589 C 0.83214 0.44171 0.45117 0.0
C1590 C 0.85522 0.39293 0.43349 0.0
C1591 C 0.84457 0.39746 0.40405 0.0
C1592 C 0.82941 0.42503 0.39811 0.0
C1593 C 0.82386 0.44695 0.42164 0.0
C1594 C 0.87238 0.36422 0.44046 0.0
C1595 C 0.8174 0.43077 0.36708 0.0
C1596 C 0.86816 0.35636 0.33196 0.0
C1597 C 0.84386 0.33709 0.32458 0.0
C1598 C 0.87051 0.37393 0.35947 0.0
C1599 C 0.84725 0.37305 0.37933 0.0
C1600 C 0.82349 0.3523 0.37252 0.0
C1601 C 0.82229 0.33428 0.34522 0.0
C1602 C 0.89676 0.3949 0.36638 0.0
C1603 C 0.79786 0.35108 0.39273 0.0
H1604 H 0.85519 0.41087 0.47957 0.0
H1605 H 0.81151 0.46766 0.4169 0.0
H1606 H 0.85649 0.34522 0.43912 0.0
H1607 H 0.88961 0.358 0.42403 0.0
H1608 H 0.88378 0.36657 0.46311 0.0
H1609 H 0.80621 0.45354 0.3663 0.0
H1610 H 0.83604 0.42897 0.35178 0.0
H1611 H 0.80074 0.4133 0.35856 0.0
H1612 H 0.88496 0.35824 0.3159 0.0
H1613 H 0.80327 0.31973 0.33916 0.0
H1614 H 0.90532 0.39469 0.38993 0.0
H1615 H 0.88916 0.41851 0.36299 0.0
H1616 H 0.91565 0.38851 0.35183 0.0
H1617 H 0.8067 0.34997 0.41606 0.0
H1618 H 0.78334 0.33123 0.38609 0.0
H1619 H 0.78359 0.37212 0.39199 0.0
C1620 C 0.64071 0.82982 0.39763 0.0
C1621 C 0.64622 0.85159 0.42196 0.0
C1622 C 0.66215 0.82301 0.37614 0.0
C1623 C 0.69009 0.83807 0.37906 0.0
C1624 C 0.69575 0.86019 0.40349 0.0
C1625 C 0.67374 0.86679 0.42449 0.0
C1626 C 0.65492 0.79957 0.35031 0.0
C1627 C 0.7253 0.87655 0.40772 0.0
C1628 C 0.75614 0.79836 0.33934 0.0
C1629 C 0.75692 0.81412 0.31397 0.0
C1630 C 0.7349 0.80621 0.36083 0.0
C1631 C 0.71354 0.83025 0.35686 0.0
C1632 C 0.7143 0.84638 0.3314 0.0
C1633 C 0.73603 0.83826 0.31041 0.0
C1634 C 0.73519 0.78856 0.38772 0.0
C1635 C 0.69178 0.8719 0.32605 0.0
H1636 H 0.6194 0.81825 0.39523 0.0
H1637 H 0.67841 0.88337 0.44333 0.0
H1638 H 0.65667 0.80964 0.32903 0.0
H1639 H 0.67161 0.78034 0.35067 0.0
H1640 H 0.63188 0.79052 0.35073 0.0
H1641 H 0.72612 0.8934 0.42762 0.0
H1642 H 0.74435 0.85986 0.4101 0.0
H1643 H 0.72891 0.88848 0.38788 0.0
H1644 H 0.77215 0.77973 0.34247 0.0
H1645 H 0.73621 0.85051 0.29086 0.0
H1646 H 0.71341 0.77697 0.38802 0.0
H1647 H 0.73759 0.80428 0.40834 0.0
H1648 H 0.75387 0.77119 0.38808 0.0
H1649 H 0.66847 0.86319 0.32436 0.0
H1650 H 0.69556 0.88249 0.30542 0.0
H1651 H 0.69318 0.88971 0.3451 0.0
C1652 C 0.23336 0.67412 0.46452 0.0
C1653 C 0.20721 0.65841 0.45397 0.0
C1654 C 0.24647 0.69412 0.44731 0.0
C1655 C 0.23253 0.6992 0.41921 0.0
C1656 C 0.20426 0.68619 0.40999 0.0
C1657 C 0.19199 0.66569 0.42742 0.0
C1658 C 0.27667 0.70739 0.45798 0.0
C1659 C 0.18821 0.69191 0.38058 0.0
C1660 C 0.26397 0.75938 0.37622 0.0
C1661 C 0.28092 0.74135 0.35577 0.0
C1662 C 0.24788 0.74607 0.39707 0.0
C1663 C 0.24959 0.71416 0.39782 0.0
C1664 C 0.26769 0.69606 0.37787 0.0
C1665 C 0.28279 0.70988 0.35677 0.0
C1666 C 0.22825 0.76596 0.41748 0.0
C1667 C 0.27081 0.66202 0.37852 0.0
H1668 H 0.24469 0.66928 0.48552 0.0
H1669 H 0.17168 0.65383 0.4192 0.0
H1670 H 0.29465 0.69564 0.44484 0.0
H1671 H 0.27699 0.73185 0.45462 0.0
H1672 H 0.28233 0.70475 0.48186 0.0
H1673 H 0.16435 0.68466 0.37908 0.0
H1674 H 0.18855 0.71636 0.37706 0.0
H1675 H 0.20009 0.67903 0.36229 0.0
H1676 H 0.26227 0.78375 0.37511 0.0
H1677 H 0.29596 0.69603 0.34091 0.0
H1678 H 0.23387 0.76179 0.44096 0.0
H1679 H 0.20418 0.7602 0.41233 0.0
H1680 H 0.23075 0.79052 0.41523 0.0
H1681 H 0.27856 0.65644 0.40118 0.0
H1682 H 0.28705 0.65152 0.36258 0.0
H1683 H 0.24849 0.65155 0.37297 0.0
C1684 C 0.49397 0.21737 0.44089 0.0
C1685 C 0.50629 0.23741 0.46425 0.0
C1686 C 0.47359 0.22757 0.41881 0.0
C1687 C 0.4651 0.25874 0.41982 0.0
C1688 C 0.47784 0.27933 0.44295 0.0
C1689 C 0.4983 0.26842 0.46494 0.0
C1690 C 0.46062 0.20472 0.39467 0.0
C1691 C 0.46944 0.31274 0.44475 0.0
C1692 C 0.42757 0.28186 0.34693 0.0
C1693 C 0.39685 0.27937 0.35172 0.0
C1694 C 0.45011 0.27681 0.36945 0.0
C1695 C 0.4417 0.26901 0.39736 0.0
C1696 C 0.41061 0.26767 0.40258 0.0
C1697 C 0.38863 0.27286 0.37973 0.0
C1698 C 0.48295 0.2786 0.36297 0.0
C1699 C 0.40054 0.25935 0.43187 0.0
H1700 H 0.50001 0.19337 0.4399 0.0
H1701 H 0.50772 0.2841 0.48281 0.0
H1702 H 0.43573 0.20402 0.39591 0.0
H1703 H 0.46497 0.21159 0.37248 0.0
H1704 H 0.47032 0.18145 0.39645 0.0
H1705 H 0.48263 0.32608 0.46297 0.0
H1706 H 0.47327 0.32191 0.42341 0.0
H1707 H 0.44501 0.31608 0.44851 0.0
H1708 H 0.43403 0.28708 0.32536 0.0
H1709 H 0.3649 0.2711 0.38364 0.0
H1710 H 0.49363 0.25551 0.36185 0.0
H1711 H 0.49534 0.29275 0.3811 0.0
H1712 H 0.48573 0.28822 0.3416 0.0
H1713 H 0.40729 0.23539 0.4347 0.0
H1714 H 0.37564 0.26196 0.43336 0.0
H1715 H 0.41176 0.27372 0.45059 0.0
C1716 C 0.6 0.78248 0.5925 0.0
C1717 C 0.60581 0.7863 0.56304 0.0
C1718 C 0.62362 0.78211 0.61468 0.0
C1719 C 0.65373 0.78567 0.60718 0.0
C1720 C 0.65991 0.78804 0.57726 0.0
C1721 C 0.63589 0.78822 0.55553 0.0
C1722 C 0.61624 0.77905 0.64631 0.0
C1723 C 0.69179 0.7915 0.56836 0.0
C1724 C 0.71121 0.81668 0.6678 0.0
C1725 C 0.72685 0.79006 0.67485 0.0
C1726 C 0.68729 0.8156 0.64576 0.0
C1727 C 0.6788 0.78724 0.63066 0.0
C1728 C 0.69442 0.76033 0.6378 0.0
C1729 C 0.71823 0.76207 0.65968 0.0
C1730 C 0.67107 0.84477 0.63864 0.0
C1731 C 0.68591 0.72962 0.62243 0.0
H1732 H 0.57686 0.78093 0.59853 0.0
H1733 H 0.64067 0.79112 0.53283 0.0
H1734 H 0.62983 0.76011 0.65525 0.0
H1735 H 0.62226 0.80012 0.66054 0.0
H1736 H 0.59189 0.77486 0.64819 0.0
H1737 H 0.69289 0.79191 0.54398 0.0
H1738 H 0.70112 0.81293 0.5796 0.0
H1739 H 0.70659 0.77257 0.57562 0.0
H1740 H 0.71763 0.83832 0.67944 0.0
H1741 H 0.72986 0.74121 0.66509 0.0
H1742 H 0.64666 0.84355 0.64238 0.0
H1743 H 0.67285 0.84799 0.61484 0.0
H1744 H 0.68039 0.86494 0.65237 0.0
H1745 H 0.66204 0.72507 0.62607 0.0
H1746 H 0.70047 0.71086 0.63054 0.0
H1747 H 0.68776 0.7294 0.59811 0.0
C1748 C 0.67921 0.18154 0.45637 0.0
C1749 C 0.65819 0.20318 0.46801 0.0
C1750 C 0.70018 0.18925 0.43662 0.0
C1751 C 0.70008 0.2193 0.42841 0.0
C1752 C 0.67995 0.24157 0.44118 0.0
C1753 C 0.6592 0.23322 0.4607 0.0
C1754 C 0.72147 0.16494 0.42348 0.0
C1755 C 0.67913 0.27387 0.43294 0.0
C1756 C 0.76386 0.24708 0.38685 0.0
C1757 C 0.7511 0.24421 0.35765 0.0
C1758 C 0.74777 0.23851 0.41025 0.0
C1759 C 0.71844 0.22677 0.40405 0.0
C1760 C 0.70573 0.22352 0.37447 0.0
C1761 C 0.72222 0.23238 0.35164 0.0
C1762 C 0.76185 0.24249 0.44159 0.0
C1763 C 0.6745 0.21112 0.36698 0.0
H1764 H 0.67891 0.15844 0.46229 0.0
H1765 H 0.64289 0.2501 0.46914 0.0
H1766 H 0.71511 0.15972 0.39947 0.0
H1767 H 0.74499 0.17308 0.42539 0.0
H1768 H 0.72093 0.14363 0.43447 0.0
H1769 H 0.66446 0.28913 0.4472 0.0
H1770 H 0.70224 0.28305 0.4348 0.0
H1771 H 0.67038 0.27432 0.40947 0.0
H1772 H 0.78624 0.25627 0.39142 0.0
H1773 H 0.71242 0.23006 0.32899 0.0
H1774 H 0.76197 0.22068 0.45175 0.0
H1775 H 0.74815 0.25916 0.45538 0.0
H1776 H 0.7854 0.25056 0.44246 0.0
H1777 H 0.67309 0.18842 0.37516 0.0
H1778 H 0.66842 0.20901 0.34269 0.0
H1779 H 0.65742 0.22627 0.37823 0.0
C1780 C 0.79462 0.57902 0.40118 0.0
C1781 C 0.76688 0.58639 0.41384 0.0
C1782 C 0.80634 0.59741 0.38136 0.0
C1783 C 0.78993 0.62384 0.37388 0.0
C1784 C 0.76176 0.63126 0.38626 0.0
C1785 C 0.75059 0.61246 0.40607 0.0
C1786 C 0.83635 0.58862 0.3685 0.0
C1787 C 0.74359 0.65929 0.37884 0.0
C1788 C 0.83117 0.68839 0.34595 0.0
C1789 C 0.82313 0.68464 0.31543 0.0
C1790 C 0.82103 0.66838 0.36515 0.0
C1791 C 0.80244 0.64403 0.35349 0.0
C1792 C 0.7951 0.63957 0.32249 0.0
C1793 C 0.80553 0.65997 0.30382 0.0
C1794 C 0.82933 0.67393 0.39806 0.0
C1795 C 0.77536 0.61392 0.30914 0.0
H1796 H 0.80713 0.55865 0.4065 0.0
H1797 H 0.72932 0.61849 0.4159 0.0
H1798 H 0.83357 0.58581 0.34388 0.0
H1799 H 0.85271 0.60696 0.37475 0.0
H1800 H 0.84616 0.56716 0.37631 0.0
H1801 H 0.7219 0.66164 0.38998 0.0
H1802 H 0.75695 0.67986 0.38568 0.0
H1803 H 0.73854 0.65853 0.35447 0.0
H1804 H 0.84459 0.70759 0.355 0.0
H1805 H 0.79907 0.65715 0.28023 0.0
H1806 H 0.8401 0.65318 0.40641 0.0
H1807 H 0.80856 0.67919 0.41023 0.0
H1808 H 0.84502 0.69305 0.40341 0.0
H1809 H 0.78458 0.59194 0.31613 0.0
H1810 H 0.77342 0.6124 0.28447 0.0
H1811 H 0.75233 0.61729 0.31738 0.0
C1812 C 0.47264 0.76218 0.43174 0.0
C1813 C 0.4933 0.78583 0.4358 0.0
C1814 C 0.44995 0.76122 0.40839 0.0
C1815 C 0.44764 0.78479 0.38929 0.0
C1816 C 0.46847 0.80861 0.39337 0.0
C1817 C 0.49112 0.80863 0.41626 0.0
C1818 C 0.42852 0.73513 0.40415 0.0
C1819 C 0.46679 0.83436 0.37366 0.0
C1820 C 0.41437 0.78325 0.3109 0.0
C1821 C 0.38814 0.80136 0.31479 0.0
C1822 C 0.43212 0.77428 0.33534 0.0
C1823 C 0.42417 0.78497 0.36436 0.0
C1824 C 0.39652 0.80152 0.36839 0.0
C1825 C 0.3785 0.80916 0.34339 0.0
C1826 C 0.46068 0.75553 0.32994 0.0
C1827 C 0.38735 0.81359 0.39892 0.0
H1828 H 0.47419 0.7445 0.44674 0.0
H1829 H 0.50679 0.82714 0.4192 0.0
H1830 H 0.40499 0.74374 0.40697 0.0
H1831 H 0.42919 0.72379 0.38122 0.0
H1832 H 0.43407 0.71799 0.42014 0.0
H1833 H 0.48387 0.85187 0.38077 0.0
H1834 H 0.47053 0.82536 0.3504 0.0
H1835 H 0.44399 0.8455 0.37378 0.0
H1836 H 0.42145 0.7766 0.28866 0.0
H1837 H 0.35796 0.82285 0.34624 0.0
H1838 H 0.46431 0.73842 0.34621 0.0
H1839 H 0.48038 0.77062 0.33267 0.0
H1840 H 0.46005 0.74362 0.30713 0.0
H1841 H 0.39136 0.79619 0.41483 0.0
H1842 H 0.36316 0.82107 0.39867 0.0
H1843 H 0.40135 0.83337 0.40722 0.0
C1844 C 0.2739 0.45436 0.44784 0.0
C1845 C 0.2613 0.48325 0.44384 0.0
C1846 C 0.27517 0.43171 0.4239 0.0
C1847 C 0.26418 0.43829 0.3951 0.0
C1848 C 0.25151 0.46747 0.3909 0.0
C1849 C 0.24994 0.4895 0.41538 0.0
C1850 C 0.28848 0.40075 0.4294 0.0
C1851 C 0.24024 0.47562 0.36046 0.0
C1852 C 0.30006 0.38948 0.3326 0.0
C1853 C 0.27768 0.36823 0.32371 0.0
C1854 C 0.29537 0.41314 0.35487 0.0
C1855 C 0.26784 0.41521 0.36921 0.0
C1856 C 0.24475 0.39428 0.35976 0.0
C1857 C 0.24982 0.37116 0.33676 0.0
C1858 C 0.3203 0.43537 0.36366 0.0
C1859 C 0.21529 0.39549 0.37482 0.0
H1860 H 0.28237 0.44926 0.46983 0.0
H1861 H 0.24019 0.51181 0.41213 0.0
H1862 H 0.27234 0.38285 0.42077 0.0
H1863 H 0.3094 0.39635 0.4173 0.0
H1864 H 0.29411 0.39864 0.45338 0.0
H1865 H 0.23021 0.499 0.36106 0.0
H1866 H 0.25923 0.47388 0.34551 0.0
H1867 H 0.22298 0.45937 0.35058 0.0
H1868 H 0.32152 0.38741 0.32223 0.0
H1869 H 0.23261 0.3546 0.32998 0.0
H1870 H 0.32949 0.43248 0.3866 0.0
H1871 H 0.31126 0.45905 0.36355 0.0
H1872 H 0.33918 0.43221 0.34857 0.0
H1873 H 0.21971 0.39068 0.39831 0.0
H1874 H 0.19899 0.37878 0.36376 0.0
H1875 H 0.20469 0.41856 0.37503 0.0
C1876 C 0.44867 0.19085 0.57968 0.0
C1877 C 0.47608 0.18016 0.59237 0.0
C1878 C 0.42406 0.19851 0.59715 0.0
C1879 C 0.42748 0.19634 0.62816 0.0
C1880 C 0.45484 0.1844 0.64086 0.0
C1881 C 0.47875 0.17605 0.62265 0.0
C1882 C 0.39497 0.21033 0.58268 0.0
C1883 C 0.45965 0.18248 0.67393 0.0
C1884 C 0.38191 0.25325 0.67638 0.0
C1885 C 0.36 0.23489 0.68578 0.0
C1886 C 0.40413 0.24086 0.6578 0.0
C1887 C 0.40378 0.20953 0.64767 0.0
C1888 C 0.3812 0.19102 0.65653 0.0
C1889 C 0.3598 0.20387 0.67599 0.0
C1890 C 0.42834 0.26121 0.64954 0.0
C1891 C 0.37966 0.15775 0.64548 0.0
H1892 H 0.44686 0.19393 0.55618 0.0
H1893 H 0.50022 0.16819 0.63236 0.0
H1894 H 0.37528 0.19909 0.59034 0.0
H1895 H 0.39224 0.23506 0.5892 0.0
H1896 H 0.39457 0.20664 0.55804 0.0
H1897 H 0.48127 0.17049 0.67992 0.0
H1898 H 0.45993 0.20575 0.6856 0.0
H1899 H 0.44079 0.17055 0.68226 0.0
H1900 H 0.38229 0.27717 0.68439 0.0
H1901 H 0.34273 0.18977 0.68329 0.0
H1902 H 0.42741 0.26187 0.62509 0.0
H1903 H 0.45104 0.25199 0.65636 0.0
H1904 H 0.4259 0.28484 0.66014 0.0
H1905 H 0.37834 0.15498 0.62082 0.0
H1906 H 0.35984 0.14686 0.65338 0.0
H1907 H 0.40053 0.14553 0.65311 0.0
C1908 C 0.75231 0.38453 0.52398 0.0
C1909 C 0.73109 0.40726 0.53315 0.0
C1910 C 0.7633 0.363 0.54305 0.0
C1911 C 0.7526 0.36411 0.57189 0.0
C1912 C 0.7288 0.38483 0.58003 0.0
C1913 C 0.71836 0.40622 0.56057 0.0
C1914 C 0.78834 0.34107 0.53324 0.0
C1915 C 0.71632 0.38635 0.6104 0.0
C1916 C 0.77393 0.30568 0.62637 0.0
C1917 C 0.79648 0.32095 0.64467 0.0
C1918 C 0.76028 0.3187 0.60155 0.0
C1919 C 0.76939 0.3476 0.59516 0.0
C1920 C 0.79331 0.36222 0.6127 0.0
C1921 C 0.80658 0.34867 0.63721 0.0
C1922 C 0.73551 0.30209 0.58275 0.0
C1923 C 0.80389 0.39297 0.60654 0.0
H1924 H 0.76172 0.38477 0.50252 0.0
H1925 H 0.70195 0.42355 0.56791 0.0
H1926 H 0.81036 0.34985 0.54292 0.0
H1927 H 0.78561 0.31846 0.54117 0.0
H1928 H 0.78922 0.33831 0.50866 0.0
H1929 H 0.6952 0.40053 0.61175 0.0
H1930 H 0.71161 0.36325 0.61618 0.0
H1931 H 0.73337 0.39628 0.62734 0.0
H1932 H 0.76616 0.28418 0.6321 0.0
H1933 H 0.82406 0.36046 0.65129 0.0
H1934 H 0.74199 0.29791 0.55943 0.0
H1935 H 0.7144 0.31628 0.58252 0.0
H1936 H 0.73076 0.27996 0.59087 0.0
H1937 H 0.80971 0.39249 0.58305 0.0
H1938 H 0.82396 0.40035 0.62112 0.0
H1939 H 0.78538 0.41021 0.61008 0.0
C1940 C 0.29533 0.59229 0.59844 0.0
C1941 C 0.28787 0.59695 0.56864 0.0
C1942 C 0.29829 0.61694 0.62038 0.0
C1943 C 0.29381 0.64696 0.61229 0.0
C1944 C 0.28948 0.65186 0.58189 0.0
C1945 C 0.28656 0.62679 0.5604 0.0
C1946 C 0.30344 0.61069 0.65251 0.0
C1947 C 0.28529 0.68349 0.57225 0.0
C1948 C 0.25447 0.69917 0.67007 0.0
C1949 C 0.27874 0.71459 0.68532 0.0
C1950 C 0.25902 0.67808 0.64547 0.0
C1951 C 0.28863 0.67232 0.63577 0.0
C1952 C 0.313 0.68919 0.65 0.0
C1953 C 0.30777 0.71016 0.67471 0.0
C1954 C 0.23229 0.66082 0.63081 0.0
C1955 C 0.34482 0.68403 0.64022 0.0
H1956 H 0.29679 0.56937 0.60503 0.0
H1957 H 0.28122 0.63072 0.53738 0.0
H1958 H 0.32111 0.62556 0.66398 0.0
H1959 H 0.28224 0.61581 0.66403 0.0
H1960 H 0.31033 0.58663 0.65481 0.0
H1961 H 0.28754 0.68375 0.54799 0.0
H1962 H 0.2624 0.69254 0.57749 0.0
H1963 H 0.30199 0.69902 0.58444 0.0
H1964 H 0.23197 0.70272 0.67809 0.0
H1965 H 0.32662 0.72213 0.68641 0.0
H1966 H 0.23537 0.63635 0.63405 0.0
H1967 H 0.23074 0.66274 0.60653 0.0
H1968 H 0.21056 0.66919 0.63997 0.0
H1969 H 0.35439 0.66259 0.64817 0.0
H1970 H 0.35979 0.70282 0.64935 0.0
H1971 H 0.34505 0.68168 0.61562 0.0
loop_
_geom_bond_atom_site_label_1
_geom_bond_atom_site_label_2
_geom_bond_distance
_geom_bond_site_symmetry_2
_ccdc_geom_bond_type
Cu0 N1 1.999 . S
Cu0 O6 1.977 . S
Cu0 N11 1.985 1_445 S
Cu0 O20 1.959 1_455 S
N1 Cu0 1.999 . S
N1 C3 1.263 . S
N1 C5 1.389 . S
N2 C3 1.358 . S
N2 C4 1.400 . S
C3 N1 1.263 . S
C3 N2 1.358 . S
C3 H9 0.930 . S
C4 N2 1.400 . S
C4 C5 1.351 . S
C4 H21 0.930 . S
C5 N1 1.389 . S
C5 C4 1.351 . S
C5 H10 0.930 . S
O6 Cu0 1.977 . S
O6 C16 1.280 1_545 S
C7 O8 1.261 . S
C7 O20 1.251 . S
O8 C7 1.261 . S
H9 C3 0.930 . S
H10 C5 0.930 . S
N11 Cu0 1.985 1_665 S
N11 C13 1.335 . S
N11 C14 1.390 . S
N12 C13 1.345 . S
N12 C15 1.336 . S
C13 N11 1.335 . S
C13 N12 1.345 . S
C13 H18 0.930 1_565 S
C14 N11 1.390 . S
C14 C15 1.346 . S
C14 H19 0.930 1_655 S
C15 N12 1.336 . S
C15 C14 1.346 . S
C15 H22 0.929 . S
C16 O6 1.280 1_565 S
C16 O17 1.216 . S
O17 C16 1.216 . S
H18 C13 0.930 1_545 S
H19 C14 0.930 1_455 S
O20 Cu0 1.959 1_655 S
O20 C7 1.251 . S
H21 C4 0.930 . S
H22 C15 0.929 . S
Cu23 N24 1.999 1_445 S
Cu23 O29 1.974 1_455 S
Cu23 N34 1.985 . S
Cu23 O43 1.959 1_545 S
N24 Cu23 1.999 1_665 S
N24 C26 1.263 . S
N24 C28 1.389 . S
N25 C26 1.358 . S
N25 C27 1.400 . S
C26 N24 1.263 . S
C26 N25 1.358 . S
C26 H32 0.930 . S
C27 N25 1.400 . S
C27 C28 1.351 . S
C27 H44 0.930 . S
C28 N24 1.389 . S
C28 C27 1.351 . S
C28 H33 0.930 1_655 S
O29 Cu23 1.974 1_655 S
O29 C39 1.282 . S
C30 O31 1.261 . S
C30 O43 1.251 . S
O31 C30 1.261 . S
H32 C26 0.930 . S
H33 C28 0.930 1_455 S
N34 Cu23 1.985 . S
N34 C36 1.335 . S
N34 C37 1.390 . S
N35 C36 1.345 . S
N35 C38 1.336 . S
C36 N34 1.335 . S
C36 N35 1.345 . S
C36 H41 0.930 . S
C37 N34 1.390 . S
C37 C38 1.346 . S
C37 H42 0.930 . S
C38 N35 1.336 . S
C38 C37 1.346 . S
C38 H45 0.929 . S
C39 O29 1.282 . S
C39 O40 1.216 . S
O40 C39 1.216 . S
H41 C36 0.930 . S
H42 C37 0.930 . S
O43 Cu23 1.959 1_565 S
O43 C30 1.251 . S
H44 C27 0.930 . S
H45 C38 0.929 . S
Cu46 N47 1.994 1_544 S
Cu46 O52 1.967 1_545 S
Cu46 N57 1.990 . S
Cu46 O66 1.966 1_554 S
N47 Cu46 1.994 1_566 S
N47 C49 1.263 . S
N47 C51 1.389 . S
N48 C49 1.358 . S
N48 C50 1.400 . S
C49 N47 1.263 . S
C49 N48 1.358 . S
C49 H55 0.930 . S
C50 N48 1.400 . S
C50 C51 1.351 . S
C50 H67 0.930 . S
C51 N47 1.389 . S
C51 C50 1.351 . S
C51 H56 0.930 . S
O52 Cu46 1.967 1_565 S
O52 C62 1.282 . S
C53 O54 1.261 . S
C53 O66 1.251 . S
O54 C53 1.261 . S
H55 C49 0.930 . S
H56 C51 0.930 . S
N57 Cu46 1.990 . S
N57 C59 1.335 . S
N57 C60 1.390 . S
N58 C59 1.345 . S
N58 C61 1.336 . S
C59 N57 1.335 . S
C59 N58 1.345 . S
C59 H64 0.930 . S
C60 N57 1.390 . S
C60 C61 1.346 . S
C60 H65 0.930 . S
C61 N58 1.336 . S
C61 C60 1.346 . S
C61 H68 0.929 . S
C62 O52 1.282 . S
C62 O63 1.216 . S
O63 C62 1.216 . S
H64 C59 0.930 . S
H65 C60 0.930 . S
O66 Cu46 1.966 1_556 S
O66 C53 1.251 . S
H67 C50 0.930 . S
H68 C61 0.929 . S
Cu69 N70 1.999 1_554 S
Cu69 O75 1.974 . S
Cu69 N80 1.985 1_455 S
Cu69 O89 1.959 1_454 S
N70 Cu69 1.999 1_556 S
N70 C72 1.263 . S
N70 C74 1.389 . S
N71 C72 1.358 . S
N71 C73 1.400 . S
C72 N70 1.263 . S
C72 N71 1.358 . S
C72 H78 0.930 . S
C73 N71 1.400 . S
C73 C74 1.351 . S
C73 H90 0.930 . S
C74 N70 1.389 . S
C74 C73 1.351 . S
C74 H79 0.930 . S
O75 Cu69 1.974 . S
O75 C85 1.282 . S
C76 O77 1.261 . S
C76 O89 1.251 . S
O77 C76 1.261 . S
H78 C72 0.930 . S
H79 C74 0.930 . S
N80 Cu69 1.985 1_655 S
N80 C82 1.335 . S
N80 C83 1.390 . S
N81 C82 1.345 . S
N81 C84 1.336 . S
C82 N80 1.335 . S
C82 N81 1.345 . S
C82 H87 0.930 . S
C83 N80 1.390 . S
C83 C84 1.346 . S
C83 H88 0.930 1_655 S
C84 N81 1.336 . S
C84 C83 1.346 . S
C84 H91 0.929 . S
C85 O75 1.282 . S
C85 O86 1.216 . S
O86 C85 1.216 . S
H87 C82 0.930 . S
H88 C83 0.930 1_455 S
O89 Cu69 1.959 1_656 S
O89 C76 1.251 . S
H90 C73 0.930 . S
H91 C84 0.929 . S
Cu92 N93 1.999 1_554 S
Cu92 O98 1.974 . S
Cu92 N103 1.985 . S
Cu92 O112 1.959 1_554 S
N93 Cu92 1.999 1_556 S
N93 C95 1.263 . S
N93 C97 1.389 . S
N94 C95 1.358 . S
N94 C96 1.400 . S
C95 N93 1.263 . S
C95 N94 1.358 . S
C95 H101 0.930 1_556 S
C96 N94 1.400 . S
C96 C97 1.351 . S
C96 H113 0.930 . S
C97 N93 1.389 . S
C97 C96 1.351 . S
C97 H102 0.930 . S
O98 Cu92 1.974 . S
O98 C108 1.282 . S
C99 O100 1.261 . S
C99 O112 1.251 . S
O100 C99 1.261 . S
H101 C95 0.930 1_554 S
H102 C97 0.930 . S
N103 Cu92 1.985 . S
N103 C105 1.335 1_545 S
N103 C106 1.390 . S
N104 C105 1.345 . S
N104 C107 1.336 1_565 S
C105 N103 1.335 1_565 S
C105 N104 1.345 . S
C105 H110 0.930 . S
C106 N103 1.390 . S
C106 C107 1.346 . S
C106 H111 0.930 . S
C107 N104 1.336 1_545 S
C107 C106 1.346 . S
C107 H114 0.929 . S
C108 O98 1.282 . S
C108 O109 1.216 . S
O109 C108 1.216 . S
H110 C105 0.930 . S
H111 C106 0.930 . S
O112 Cu92 1.959 1_556 S
O112 C99 1.251 . S
H113 C96 0.930 . S
H114 C107 0.929 . S
Cu115 N116 1.999 1_454 S
Cu115 O121 1.974 1_455 S
Cu115 N126 1.985 . S
Cu115 O135 1.959 1_554 S
N116 Cu115 1.999 1_656 S
N116 C118 1.263 . S
N116 C120 1.389 . S
N117 C118 1.358 . S
N117 C119 1.400 . S
C118 N116 1.263 . S
C118 N117 1.358 . S
C118 H124 0.930 . S
C119 N117 1.400 . S
C119 C120 1.351 . S
C119 H136 0.930 . S
C120 N116 1.389 . S
C120 C119 1.351 . S
C120 H125 0.930 1_655 S
O121 Cu115 1.974 1_655 S
O121 C131 1.282 . S
C122 O123 1.261 . S
C122 O135 1.251 . S
O123 C122 1.261 . S
H124 C118 0.930 . S
H125 C120 0.930 1_455 S
N126 Cu115 1.985 . S
N126 C128 1.335 . S
N126 C129 1.390 . S
N127 C128 1.345 . S
N127 C130 1.336 . S
C128 N126 1.335 . S
C128 N127 1.345 . S
C128 H133 0.930 . S
C129 N126 1.390 . S
C129 C130 1.346 . S
C129 H134 0.930 . S
C130 N127 1.336 . S
C130 C129 1.346 . S
C130 H137 0.929 . S
C131 O121 1.282 . S
C131 O132 1.216 . S
O132 C131 1.216 . S
H133 C128 0.930 . S
H134 C129 0.930 . S
O135 Cu115 1.959 1_556 S
O135 C122 1.251 . S
H136 C119 0.930 . S
H137 C130 0.929 . S
Cu138 N139 1.999 . S
Cu138 O144 1.974 . S
Cu138 N149 1.985 . S
Cu138 O158 1.959 . S
N139 Cu138 1.999 . S
N139 C141 1.263 . S
N139 C143 1.389 . S
N140 C141 1.358 . S
N140 C142 1.400 . S
C141 N139 1.263 . S
C141 N140 1.358 . S
C141 H147 0.930 . S
C142 N140 1.400 . S
C142 C143 1.351 . S
C142 H159 0.930 . S
C143 N139 1.389 . S
C143 C142 1.351 . S
C143 H148 0.930 . S
O144 Cu138 1.974 . S
O144 C154 1.282 . S
C145 O146 1.261 . S
C145 O158 1.251 . S
O146 C145 1.261 . S
H147 C141 0.930 . S
H148 C143 0.930 . S
N149 Cu138 1.985 . S
N149 C151 1.335 . S
N149 C152 1.390 . S
N150 C151 1.345 . S
N150 C153 1.336 . S
C151 N149 1.335 . S
C151 N150 1.345 . S
C151 H156 0.930 . S
C152 N149 1.390 . S
C152 C153 1.346 . S
C152 H157 0.930 . S
C153 N150 1.336 . S
C153 C152 1.346 . S
C153 H160 0.929 . S
C154 O144 1.282 . S
C154 O155 1.216 . S
O155 C154 1.216 . S
H156 C151 0.930 . S
H157 C152 0.930 . S
O158 Cu138 1.959 . S
O158 C145 1.251 . S
H159 C142 0.930 . S
H160 C153 0.929 . S
Cu161 N162 1.999 . S
Cu161 O167 1.974 . S
Cu161 N172 1.985 . S
Cu161 O181 1.959 . S
N162 Cu161 1.999 . S
N162 C164 1.263 . S
N162 C166 1.389 . S
N163 C164 1.358 . S
N163 C165 1.400 . S
C164 N162 1.263 . S
C164 N163 1.358 . S
C164 H170 0.930 . S
C165 N163 1.400 . S
C165 C166 1.351 . S
C165 H182 0.930 . S
C166 N162 1.389 . S
C166 C165 1.351 . S
C166 H171 0.930 . S
O167 Cu161 1.974 . S
O167 C177 1.282 . S
C168 O169 1.261 . S
C168 O181 1.251 . S
O169 C168 1.261 . S
H170 C164 0.930 . S
H171 C166 0.930 . S
N172 Cu161 1.985 . S
N172 C174 1.335 . S
N172 C175 1.390 . S
N173 C174 1.345 . S
N173 C176 1.336 . S
C174 N172 1.335 . S
C174 N173 1.345 . S
C174 H179 0.930 . S
C175 N172 1.390 . S
C175 C176 1.346 . S
C175 H180 0.930 . S
C176 N173 1.336 . S
C176 C175 1.346 . S
C176 H183 0.929 . S
C177 O167 1.282 . S
C177 O178 1.216 . S
O178 C177 1.216 . S
H179 C174 0.930 . S
H180 C175 0.930 . S
O181 Cu161 1.959 . S
O181 C168 1.251 . S
H182 C165 0.930 . S
H183 C176 0.929 . S
Cu184 N185 1.999 . S
Cu184 O190 1.974 . S
Cu184 N195 1.985 . S
Cu184 O204 1.959 . S
N185 Cu184 1.999 . S
N185 C187 1.263 . S
N185 C189 1.389 . S
N186 C187 1.358 . S
N186 C188 1.400 . S
C187 N185 1.263 . S
C187 N186 1.358 . S
C187 H193 0.930 . S
C188 N186 1.400 . S
C188 C189 1.351 . S
C188 H205 0.930 . S
C189 N185 1.389 . S
C189 C188 1.351 . S
C189 H194 0.930 . S
O190 Cu184 1.974 . S
O190 C200 1.282 . S
C191 O192 1.261 . S
C191 O204 1.251 . S
O192 C191 1.261 . S
H193 C187 0.930 . S
H194 C189 0.930 . S
N195 Cu184 1.985 . S
N195 C197 1.335 . S
N195 C198 1.390 . S
N196 C197 1.345 . S
N196 C199 1.336 . S
C197 N195 1.335 . S
C197 N196 1.345 . S
C197 H202 0.930 . S
C198 N195 1.390 . S
C198 C199 1.346 . S
C198 H203 0.930 . S
C199 N196 1.336 . S
C199 C198 1.346 . S
C199 H206 0.929 . S
C200 O190 1.282 . S
C200 O201 1.216 . S
O201 C200 1.216 . S
H202 C197 0.930 . S
H203 C198 0.930 . S
O204 Cu184 1.959 . S
O204 C191 1.251 . S
H205 C188 0.930 . S
H206 C199 0.929 . S
Cu207 N208 1.999 . S
Cu207 O213 1.974 . S
Cu207 N218 1.985 . S
Cu207 O227 1.959 . S
N208 Cu207 1.999 . S
N208 C210 1.263 . S
N208 C212 1.389 . S
N209 C210 1.358 . S
N209 C211 1.400 . S
C210 N208 1.263 . S
C210 N209 1.358 . S
C210 H216 0.930 . S
C211 N209 1.400 . S
C211 C212 1.351 . S
C211 H228 0.930 . S
C212 N208 1.389 . S
C212 C211 1.351 . S
C212 H217 0.930 . S
O213 Cu207 1.974 . S
O213 C223 1.282 . S
C214 O215 1.261 . S
C214 O227 1.251 . S
O215 C214 1.261 . S
H216 C210 0.930 . S
H217 C212 0.930 . S
N218 Cu207 1.985 . S
N218 C220 1.335 . S
N218 C221 1.390 . S
N219 C220 1.345 . S
N219 C222 1.336 . S
C220 N218 1.335 . S
C220 N219 1.345 . S
C220 H225 0.930 . S
C221 N218 1.390 . S
C221 C222 1.346 . S
C221 H226 0.930 . S
C222 N219 1.336 . S
C222 C221 1.346 . S
C222 H229 0.929 . S
C223 O213 1.282 . S
C223 O224 1.216 . S
O224 C223 1.216 . S
H225 C220 0.930 . S
H226 C221 0.930 . S
O227 Cu207 1.959 . S
O227 C214 1.251 . S
H228 C211 0.930 . S
H229 C222 0.929 . S
Cu230 N231 1.999 . S
Cu230 O236 1.974 . S
Cu230 N241 1.985 . S
Cu230 O250 1.959 . S
N231 Cu230 1.999 . S
N231 C233 1.263 . S
N231 C235 1.389 . S
N232 C233 1.358 . S
N232 C234 1.400 . S
C233 N231 1.263 . S
C233 N232 1.358 . S
C233 H239 0.930 . S
C234 N232 1.400 . S
C234 C235 1.351 . S
C234 H251 0.930 . S
C235 N231 1.389 . S
C235 C234 1.351 . S
C235 H240 0.930 . S
O236 Cu230 1.974 . S
O236 C246 1.282 . S
C237 O238 1.261 . S
C237 O250 1.251 . S
O238 C237 1.261 . S
H239 C233 0.930 . S
H240 C235 0.930 . S
N241 Cu230 1.985 . S
N241 C243 1.335 . S
N241 C244 1.390 . S
N242 C243 1.345 . S
N242 C245 1.336 . S
C243 N241 1.335 . S
C243 N242 1.345 . S
C243 H248 0.930 . S
C244 N241 1.390 . S
C244 C245 1.346 . S
C244 H249 0.930 . S
C245 N242 1.336 . S
C245 C244 1.346 . S
C245 H252 0.929 . S
C246 O236 1.282 . S
C246 O247 1.216 . S
O247 C246 1.216 . S
H248 C243 0.930 . S
H249 C244 0.930 . S
O250 Cu230 1.959 . S
O250 C237 1.251 . S
H251 C234 0.930 . S
H252 C245 0.929 . S
Cu253 N254 1.999 . S
Cu253 O259 1.974 . S
Cu253 N264 1.985 . S
Cu253 O273 1.959 . S
N254 Cu253 1.999 . S
N254 C256 1.263 . S
N254 C258 1.389 . S
N255 C256 1.358 . S
N255 C257 1.400 . S
C256 N254 1.263 . S
C256 N255 1.358 . S
C256 H262 0.930 . S
C257 N255 1.400 . S
C257 C258 1.351 . S
C257 H274 0.930 . S
C258 N254 1.389 . S
C258 C257 1.351 . S
C258 H263 0.930 . S
O259 Cu253 1.974 . S
O259 C269 1.282 . S
C260 O261 1.261 . S
C260 O273 1.251 . S
O261 C260 1.261 . S
H262 C256 0.930 . S
H263 C258 0.930 . S
N264 Cu253 1.985 . S
N264 C266 1.335 . S
N264 C267 1.390 . S
N265 C266 1.345 . S
N265 C268 1.336 . S
C266 N264 1.335 . S
C266 N265 1.345 . S
C266 H271 0.930 . S
C267 N264 1.390 . S
C267 C268 1.346 . S
C267 H272 0.930 . S
C268 N265 1.336 . S
C268 C267 1.346 . S
C268 H275 0.929 . S
C269 O259 1.282 . S
C269 O270 1.216 . S
O270 C269 1.216 . S
H271 C266 0.930 . S
H272 C267 0.930 . S
O273 Cu253 1.959 . S
O273 C260 1.251 . S
H274 C257 0.930 . S
H275 C268 0.929 . S
Tb276 O279 2.453 . S
Tb276 O280 2.596 . S
Tb276 O281 2.374 . S
Tb276 O289 2.343 . S
Tb276 O291 2.353 . S
Tb276 O293 2.427 . S
Tb276 O294 2.513 . S
C277 O281 1.251 . S
C277 O283 1.263 . S
Tb278 O280 2.343 . S
Tb278 O283 2.353 . S
Tb278 O286 2.427 . S
Tb278 O287 2.513 . S
Tb278 O288 2.453 . S
Tb278 O289 2.596 . S
Tb278 O290 2.374 . S
O279 Tb276 2.453 . S
O279 C295 1.245 . S
O280 Tb276 2.596 . S
O280 Tb278 2.343 . S
O280 C295 1.259 . S
O281 Tb276 2.374 . S
O281 C277 1.251 . S
C282 O286 1.275 . S
C282 O287 1.246 . S
O283 C277 1.263 . S
O283 Tb278 2.353 . S
C284 O288 1.245 . S
C284 O289 1.259 . S
C285 O290 1.250 . S
C285 O291 1.263 . S
O286 Tb278 2.427 . S
O286 C282 1.275 . S
O287 Tb278 2.513 . S
O287 C282 1.246 . S
O288 Tb278 2.453 . S
O288 C284 1.245 . S
O289 Tb276 2.343 . S
O289 Tb278 2.596 . S
O289 C284 1.259 . S
O290 Tb278 2.374 . S
O290 C285 1.250 . S
O291 Tb276 2.353 . S
O291 C285 1.263 . S
C292 O293 1.275 . S
C292 O294 1.246 . S
O293 Tb276 2.427 . S
O293 C292 1.275 . S
O294 Tb276 2.513 . S
O294 C292 1.246 . S
C295 O279 1.245 . S
C295 O280 1.259 . S
Tb296 O299 2.453 . S
Tb296 O300 2.596 . S
Tb296 O301 2.374 . S
Tb296 O309 2.343 . S
Tb296 O311 2.353 . S
Tb296 O313 2.427 . S
Tb296 O314 2.513 . S
C297 O301 1.251 . S
C297 O303 1.263 . S
Tb298 O300 2.343 . S
Tb298 O303 2.353 . S
Tb298 O306 2.427 . S
Tb298 O307 2.513 . S
Tb298 O308 2.453 . S
Tb298 O309 2.596 . S
Tb298 O310 2.374 . S
O299 Tb296 2.453 . S
O299 C315 1.245 . S
O300 Tb296 2.596 . S
O300 Tb298 2.343 . S
O300 C315 1.259 . S
O301 Tb296 2.374 . S
O301 C297 1.251 . S
C302 O306 1.275 . S
C302 O307 1.246 . S
O303 C297 1.263 . S
O303 Tb298 2.353 . S
C304 O308 1.245 . S
C304 O309 1.259 . S
C305 O310 1.250 . S
C305 O311 1.263 . S
O306 Tb298 2.427 . S
O306 C302 1.275 . S
O307 Tb298 2.513 . S
O307 C302 1.246 . S
O308 Tb298 2.453 . S
O308 C304 1.245 . S
O309 Tb296 2.343 . S
O309 Tb298 2.596 . S
O309 C304 1.259 . S
O310 Tb298 2.374 . S
O310 C305 1.250 . S
O311 Tb296 2.353 . S
O311 C305 1.263 . S
C312 O313 1.275 . S
C312 O314 1.246 . S
O313 Tb296 2.427 . S
O313 C312 1.275 . S
O314 Tb296 2.513 . S
O314 C312 1.246 . S
C315 O299 1.245 . S
C315 O300 1.259 . S
Tb316 O319 2.453 . S
Tb316 O320 2.596 . S
Tb316 O321 2.374 . S
Tb316 O329 2.343 . S
Tb316 O331 2.353 . S
Tb316 O333 2.427 . S
Tb316 O334 2.513 . S
C317 O321 1.251 . S
C317 O323 1.263 . S
Tb318 O320 2.343 . S
Tb318 O323 2.353 . S
Tb318 O326 2.427 . S
Tb318 O327 2.513 . S
Tb318 O328 2.453 . S
Tb318 O329 2.596 . S
Tb318 O330 2.374 . S
O319 Tb316 2.453 . S
O319 C335 1.245 . S
O320 Tb316 2.596 . S
O320 Tb318 2.343 . S
O320 C335 1.259 . S
O321 Tb316 2.374 . S
O321 C317 1.251 . S
C322 O326 1.275 . S
C322 O327 1.246 . S
O323 C317 1.263 . S
O323 Tb318 2.353 . S
C324 O328 1.245 . S
C324 O329 1.259 . S
C325 O330 1.250 . S
C325 O331 1.263 . S
O326 Tb318 2.427 . S
O326 C322 1.275 . S
O327 Tb318 2.513 . S
O327 C322 1.246 . S
O328 Tb318 2.453 . S
O328 C324 1.245 . S
O329 Tb316 2.343 . S
O329 Tb318 2.596 . S
O329 C324 1.259 . S
O330 Tb318 2.374 . S
O330 C325 1.250 . S
O331 Tb316 2.353 . S
O331 C325 1.263 . S
C332 O333 1.275 . S
C332 O334 1.246 . S
O333 Tb316 2.427 . S
O333 C332 1.275 . S
O334 Tb316 2.513 . S
O334 C332 1.246 . S
C335 O319 1.245 . S
C335 O320 1.259 . S
Tb336 O339 2.453 . S
Tb336 O340 2.596 . S
Tb336 O341 2.374 . S
Tb336 O349 2.343 . S
Tb336 O351 2.353 . S
Tb336 O353 2.427 . S
Tb336 O354 2.513 . S
C337 O341 1.251 . S
C337 O343 1.263 . S
Tb338 O340 2.343 . S
Tb338 O343 2.353 . S
Tb338 O346 2.427 . S
Tb338 O347 2.513 . S
Tb338 O348 2.453 . S
Tb338 O349 2.596 . S
Tb338 O350 2.374 . S
O339 Tb336 2.453 . S
O339 C355 1.245 . S
O340 Tb336 2.596 . S
O340 Tb338 2.343 . S
O340 C355 1.259 . S
O341 Tb336 2.374 . S
O341 C337 1.251 . S
C342 O346 1.275 . S
C342 O347 1.246 . S
O343 C337 1.263 . S
O343 Tb338 2.353 . S
C344 O348 1.245 . S
C344 O349 1.259 . S
C345 O350 1.250 . S
C345 O351 1.263 . S
O346 Tb338 2.427 . S
O346 C342 1.275 . S
O347 Tb338 2.513 . S
O347 C342 1.246 . S
O348 Tb338 2.453 . S
O348 C344 1.245 . S
O349 Tb336 2.343 . S
O349 Tb338 2.596 . S
O349 C344 1.259 . S
O350 Tb338 2.374 . S
O350 C345 1.250 . S
O351 Tb336 2.353 . S
O351 C345 1.263 . S
C352 O353 1.275 . S
C352 O354 1.246 . S
O353 Tb336 2.427 . S
O353 C352 1.275 . S
O354 Tb336 2.513 . S
O354 C352 1.246 . S
C355 O339 1.245 . S
C355 O340 1.259 . S
Tb356 O359 2.453 . S
Tb356 O360 2.596 . S
Tb356 O361 2.374 . S
Tb356 O369 2.343 . S
Tb356 O371 2.353 . S
Tb356 O373 2.427 . S
Tb356 O374 2.513 . S
C357 O361 1.251 . S
C357 O363 1.263 . S
Tb358 O360 2.343 . S
Tb358 O363 2.353 . S
Tb358 O366 2.427 . S
Tb358 O367 2.513 . S
Tb358 O368 2.453 . S
Tb358 O369 2.596 . S
Tb358 O370 2.374 . S
O359 Tb356 2.453 . S
O359 C375 1.245 . S
O360 Tb356 2.596 . S
O360 Tb358 2.343 . S
O360 C375 1.259 . S
O361 Tb356 2.374 . S
O361 C357 1.251 . S
C362 O366 1.275 . S
C362 O367 1.246 . S
O363 C357 1.263 . S
O363 Tb358 2.353 . S
C364 O368 1.245 . S
C364 O369 1.259 . S
C365 O370 1.250 . S
C365 O371 1.263 . S
O366 Tb358 2.427 . S
O366 C362 1.275 . S
O367 Tb358 2.513 . S
O367 C362 1.246 . S
O368 Tb358 2.453 . S
O368 C364 1.245 . S
O369 Tb356 2.343 . S
O369 Tb358 2.596 . S
O369 C364 1.259 . S
O370 Tb358 2.374 . S
O370 C365 1.250 . S
O371 Tb356 2.353 . S
O371 C365 1.263 . S
C372 O373 1.275 . S
C372 O374 1.246 . S
O373 Tb356 2.427 . S
O373 C372 1.275 . S
O374 Tb356 2.513 . S
O374 C372 1.246 . S
C375 O359 1.245 . S
C375 O360 1.259 . S
Tb376 O379 2.453 . S
Tb376 O380 2.596 . S
Tb376 O381 2.374 . S
Tb376 O389 2.343 . S
Tb376 O391 2.353 . S
Tb376 O393 2.427 . S
Tb376 O394 2.513 . S
C377 O381 1.251 . S
C377 O383 1.263 . S
Tb378 O380 2.343 . S
Tb378 O383 2.353 . S
Tb378 O386 2.427 . S
Tb378 O387 2.513 . S
Tb378 O388 2.453 . S
Tb378 O389 2.596 . S
Tb378 O390 2.374 . S
O379 Tb376 2.453 . S
O379 C395 1.245 . S
O380 Tb376 2.596 . S
O380 Tb378 2.343 . S
O380 C395 1.259 . S
O381 Tb376 2.374 . S
O381 C377 1.251 . S
C382 O386 1.275 . S
C382 O387 1.246 . S
O383 C377 1.263 . S
O383 Tb378 2.353 . S
C384 O388 1.245 . S
C384 O389 1.259 . S
C385 O390 1.250 . S
C385 O391 1.263 . S
O386 Tb378 2.427 . S
O386 C382 1.275 . S
O387 Tb378 2.513 . S
O387 C382 1.246 . S
O388 Tb378 2.453 . S
O388 C384 1.245 . S
O389 Tb376 2.343 . S
O389 Tb378 2.596 . S
O389 C384 1.259 . S
O390 Tb378 2.374 . S
O390 C385 1.250 . S
O391 Tb376 2.353 . S
O391 C385 1.263 . S
C392 O393 1.275 . S
C392 O394 1.246 . S
O393 Tb376 2.427 . S
O393 C392 1.275 . S
O394 Tb376 2.513 . S
O394 C392 1.246 . S
C395 O379 1.245 . S
C395 O380 1.259 . S
Tb396 O399 2.453 . S
Tb396 O400 2.596 . S
Tb396 O401 2.374 . S
Tb396 O409 2.343 . S
Tb396 O411 2.353 . S
Tb396 O413 2.427 . S
Tb396 O414 2.513 . S
C397 O401 1.251 . S
C397 O403 1.263 . S
Tb398 O400 2.343 . S
Tb398 O403 2.353 . S
Tb398 O406 2.427 . S
Tb398 O407 2.513 . S
Tb398 O408 2.453 . S
Tb398 O409 2.596 . S
Tb398 O410 2.374 . S
O399 Tb396 2.453 . S
O399 C415 1.245 . S
O400 Tb396 2.596 . S
O400 Tb398 2.343 . S
O400 C415 1.259 . S
O401 Tb396 2.374 . S
O401 C397 1.251 . S
C402 O406 1.275 . S
C402 O407 1.246 . S
O403 C397 1.263 . S
O403 Tb398 2.353 . S
C404 O408 1.245 . S
C404 O409 1.259 . S
C405 O410 1.250 . S
C405 O411 1.263 . S
O406 Tb398 2.427 . S
O406 C402 1.275 . S
O407 Tb398 2.513 . S
O407 C402 1.246 . S
O408 Tb398 2.453 . S
O408 C404 1.245 . S
O409 Tb396 2.343 . S
O409 Tb398 2.596 . S
O409 C404 1.259 . S
O410 Tb398 2.374 . S
O410 C405 1.250 . S
O411 Tb396 2.353 . S
O411 C405 1.263 . S
C412 O413 1.275 . S
C412 O414 1.246 . S
O413 Tb396 2.427 . S
O413 C412 1.275 . S
O414 Tb396 2.513 . S
O414 C412 1.246 . S
C415 O399 1.245 . S
C415 O400 1.259 . S
Tb416 O419 2.453 . S
Tb416 O420 2.596 . S
Tb416 O421 2.374 . S
Tb416 O429 2.343 . S
Tb416 O431 2.353 . S
Tb416 O433 2.427 . S
Tb416 O434 2.513 . S
C417 O421 1.251 . S
C417 O423 1.263 . S
Tb418 O420 2.343 . S
Tb418 O423 2.353 . S
Tb418 O426 2.427 . S
Tb418 O427 2.513 . S
Tb418 O428 2.453 . S
Tb418 O429 2.596 . S
Tb418 O430 2.374 . S
O419 Tb416 2.453 . S
O419 C435 1.245 . S
O420 Tb416 2.596 . S
O420 Tb418 2.343 . S
O420 C435 1.259 . S
O421 Tb416 2.374 . S
O421 C417 1.251 . S
C422 O426 1.275 . S
C422 O427 1.246 . S
O423 C417 1.263 . S
O423 Tb418 2.353 . S
C424 O428 1.245 . S
C424 O429 1.259 . S
C425 O430 1.250 . S
C425 O431 1.263 . S
O426 Tb418 2.427 . S
O426 C422 1.275 . S
O427 Tb418 2.513 . S
O427 C422 1.246 . S
O428 Tb418 2.453 . S
O428 C424 1.245 . S
O429 Tb416 2.343 . S
O429 Tb418 2.596 . S
O429 C424 1.259 . S
O430 Tb418 2.374 . S
O430 C425 1.250 . S
O431 Tb416 2.353 . S
O431 C425 1.263 . S
C432 O433 1.275 . S
C432 O434 1.246 . S
O433 Tb416 2.427 . S
O433 C432 1.275 . S
O434 Tb416 2.513 . S
O434 C432 1.246 . S
C435 O419 1.245 . S
C435 O420 1.259 . S
C436 C437 1.391 . S
C436 C438 1.394 . S
C436 H452 0.931 . S
C437 C436 1.391 . S
C437 C441 1.376 . S
C438 C436 1.394 . S
C438 C439 1.369 . S
C438 C442 1.531 . S
C439 C438 1.369 . S
C439 C440 1.410 . S
C439 C447 1.503 . S
C440 C439 1.410 . S
C440 C441 1.392 . S
C440 C443 1.511 . S
C441 C437 1.376 . S
C441 C440 1.392 . S
C441 H453 0.929 . S
C442 C438 1.531 . S
C442 H454 0.960 . S
C442 H455 0.962 . S
C442 H456 0.960 . S
C443 C440 1.511 . S
C443 H457 0.961 . S
C443 H458 0.961 . S
C443 H459 0.961 . S
C444 C445 1.370 . S
C444 C446 1.363 . S
C444 H460 0.931 . S
C445 C444 1.370 . S
C445 C449 1.408 . S
C446 C444 1.363 . S
C446 C447 1.370 . S
C446 C450 1.524 . S
C447 C439 1.503 . S
C447 C446 1.370 . S
C447 C448 1.403 . S
C448 C447 1.403 . S
C448 C449 1.404 . S
C448 C451 1.539 . S
C449 C445 1.408 . S
C449 C448 1.404 . S
C449 H461 0.930 . S
C450 C446 1.524 . S
C450 H462 0.956 . S
C450 H463 0.961 . S
C450 H464 0.961 . S
C451 C448 1.539 . S
C451 H465 0.958 . S
C451 H466 0.961 . S
C451 H467 0.960 . S
H452 C436 0.931 . S
H453 C441 0.929 . S
H454 C442 0.960 . S
H455 C442 0.962 . S
H456 C442 0.960 . S
H457 C443 0.961 . S
H458 C443 0.961 . S
H459 C443 0.961 . S
H460 C444 0.931 . S
H461 C449 0.930 . S
H462 C450 0.956 . S
H463 C450 0.961 . S
H464 C450 0.961 . S
H465 C451 0.958 . S
H466 C451 0.961 . S
H467 C451 0.960 . S
C468 C469 1.391 . S
C468 C470 1.394 . S
C468 H484 0.931 . S
C469 C468 1.391 . S
C469 C473 1.376 . S
C470 C468 1.394 . S
C470 C471 1.369 . S
C470 C474 1.531 . S
C471 C470 1.369 . S
C471 C472 1.410 . S
C471 C479 1.503 . S
C472 C471 1.410 . S
C472 C473 1.392 . S
C472 C475 1.511 . S
C473 C469 1.376 . S
C473 C472 1.392 . S
C473 H485 0.929 . S
C474 C470 1.531 . S
C474 H486 0.960 . S
C474 H487 0.962 . S
C474 H488 0.960 . S
C475 C472 1.511 . S
C475 H489 0.961 . S
C475 H490 0.961 . S
C475 H491 0.961 . S
C476 C477 1.370 . S
C476 C478 1.363 . S
C476 H492 0.931 . S
C477 C476 1.370 . S
C477 C481 1.408 . S
C478 C476 1.363 . S
C478 C479 1.370 . S
C478 C482 1.524 . S
C479 C471 1.503 . S
C479 C478 1.370 . S
C479 C480 1.403 . S
C480 C479 1.403 . S
C480 C481 1.404 . S
C480 C483 1.539 . S
C481 C477 1.408 . S
C481 C480 1.404 . S
C481 H493 0.930 . S
C482 C478 1.524 . S
C482 H494 0.956 . S
C482 H495 0.961 . S
C482 H496 0.961 . S
C483 C480 1.539 . S
C483 H497 0.958 . S
C483 H498 0.961 . S
C483 H499 0.960 . S
H484 C468 0.931 . S
H485 C473 0.929 . S
H486 C474 0.960 . S
H487 C474 0.962 . S
H488 C474 0.960 . S
H489 C475 0.961 . S
H490 C475 0.961 . S
H491 C475 0.961 . S
H492 C476 0.931 . S
H493 C481 0.930 . S
H494 C482 0.956 . S
H495 C482 0.961 . S
H496 C482 0.961 . S
H497 C483 0.958 . S
H498 C483 0.961 . S
H499 C483 0.960 . S
C500 C501 1.391 . S
C500 C502 1.394 . S
C500 H516 0.931 . S
C501 C500 1.391 . S
C501 C505 1.376 . S
C502 C500 1.394 . S
C502 C503 1.369 . S
C502 C506 1.531 . S
C503 C502 1.369 . S
C503 C504 1.410 . S
C503 C511 1.503 . S
C504 C503 1.410 . S
C504 C505 1.392 . S
C504 C507 1.511 . S
C505 C501 1.376 . S
C505 C504 1.392 . S
C505 H517 0.929 . S
C506 C502 1.531 . S
C506 H518 0.960 . S
C506 H519 0.962 . S
C506 H520 0.960 . S
C507 C504 1.511 . S
C507 H521 0.961 . S
C507 H522 0.961 . S
C507 H523 0.961 . S
C508 C509 1.370 . S
C508 C510 1.363 . S
C508 H524 0.931 . S
C509 C508 1.370 . S
C509 C513 1.408 . S
C510 C508 1.363 . S
C510 C511 1.370 . S
C510 C514 1.524 . S
C511 C503 1.503 . S
C511 C510 1.370 . S
C511 C512 1.403 . S
C512 C511 1.403 . S
C512 C513 1.404 . S
C512 C515 1.539 . S
C513 C509 1.408 . S
C513 C512 1.404 . S
C513 H525 0.930 . S
C514 C510 1.524 . S
C514 H526 0.956 . S
C514 H527 0.961 . S
C514 H528 0.961 . S
C515 C512 1.539 . S
C515 H529 0.958 . S
C515 H530 0.961 . S
C515 H531 0.960 . S
H516 C500 0.931 . S
H517 C505 0.929 . S
H518 C506 0.960 . S
H519 C506 0.962 . S
H520 C506 0.960 . S
H521 C507 0.961 . S
H522 C507 0.961 . S
H523 C507 0.961 . S
H524 C508 0.931 . S
H525 C513 0.930 . S
H526 C514 0.956 . S
H527 C514 0.961 . S
H528 C514 0.961 . S
H529 C515 0.958 . S
H530 C515 0.961 . S
H531 C515 0.960 . S
C532 C533 1.391 . S
C532 C534 1.394 . S
C532 H548 0.931 . S
C533 C532 1.391 . S
C533 C537 1.376 . S
C534 C532 1.394 . S
C534 C535 1.369 . S
C534 C538 1.531 . S
C535 C534 1.369 . S
C535 C536 1.410 . S
C535 C543 1.503 . S
C536 C535 1.410 . S
C536 C537 1.392 . S
C536 C539 1.511 . S
C537 C533 1.376 . S
C537 C536 1.392 . S
C537 H549 0.929 . S
C538 C534 1.531 . S
C538 H550 0.960 . S
C538 H551 0.962 . S
C538 H552 0.960 . S
C539 C536 1.511 . S
C539 H553 0.961 . S
C539 H554 0.961 . S
C539 H555 0.961 . S
C540 C541 1.370 . S
C540 C542 1.363 . S
C540 H556 0.931 . S
C541 C540 1.370 . S
C541 C545 1.408 . S
C542 C540 1.363 . S
C542 C543 1.370 . S
C542 C546 1.524 . S
C543 C535 1.503 . S
C543 C542 1.370 . S
C543 C544 1.403 . S
C544 C543 1.403 . S
C544 C545 1.404 . S
C544 C547 1.539 . S
C545 C541 1.408 . S
C545 C544 1.404 . S
C545 H557 0.930 . S
C546 C542 1.524 . S
C546 H558 0.956 . S
C546 H559 0.961 . S
C546 H560 0.961 . S
C547 C544 1.539 . S
C547 H561 0.958 . S
C547 H562 0.961 . S
C547 H563 0.960 . S
H548 C532 0.931 . S
H549 C537 0.929 . S
H550 C538 0.960 . S
H551 C538 0.962 . S
H552 C538 0.960 . S
H553 C539 0.961 . S
H554 C539 0.961 . S
H555 C539 0.961 . S
H556 C540 0.931 . S
H557 C545 0.930 . S
H558 C546 0.956 . S
H559 C546 0.961 . S
H560 C546 0.961 . S
H561 C547 0.958 . S
H562 C547 0.961 . S
H563 C547 0.960 . S
C564 C565 1.391 . S
C564 C566 1.394 . S
C564 H580 0.931 . S
C565 C564 1.391 . S
C565 C569 1.376 . S
C566 C564 1.394 . S
C566 C567 1.369 . S
C566 C570 1.531 . S
C567 C566 1.369 . S
C567 C568 1.410 . S
C567 C575 1.503 . S
C568 C567 1.410 . S
C568 C569 1.392 . S
C568 C571 1.511 . S
C569 C565 1.376 . S
C569 C568 1.392 . S
C569 H581 0.929 . S
C570 C566 1.531 . S
C570 H582 0.960 . S
C570 H583 0.962 . S
C570 H584 0.960 . S
C571 C568 1.511 . S
C571 H585 0.961 . S
C571 H586 0.961 . S
C571 H587 0.961 . S
C572 C573 1.370 . S
C572 C574 1.363 . S
C572 H588 0.931 . S
C573 C572 1.370 . S
C573 C577 1.408 . S
C574 C572 1.363 . S
C574 C575 1.370 . S
C574 C578 1.524 . S
C575 C567 1.503 . S
C575 C574 1.370 . S
C575 C576 1.403 . S
C576 C575 1.403 . S
C576 C577 1.404 . S
C576 C579 1.539 . S
C577 C573 1.408 . S
C577 C576 1.404 . S
C577 H589 0.930 . S
C578 C574 1.524 . S
C578 H590 0.956 . S
C578 H591 0.961 . S
C578 H592 0.961 . S
C579 C576 1.539 . S
C579 H593 0.958 . S
C579 H594 0.961 . S
C579 H595 0.960 . S
H580 C564 0.931 . S
H581 C569 0.929 . S
H582 C570 0.960 . S
H583 C570 0.962 . S
H584 C570 0.960 . S
H585 C571 0.961 . S
H586 C571 0.961 . S
H587 C571 0.961 . S
H588 C572 0.931 . S
H589 C577 0.930 . S
H590 C578 0.956 . S
H591 C578 0.961 . S
H592 C578 0.961 . S
H593 C579 0.958 . S
H594 C579 0.961 . S
H595 C579 0.960 . S
C596 C597 1.391 . S
C596 C598 1.394 . S
C596 H612 0.931 . S
C597 C596 1.391 . S
C597 C601 1.376 . S
C598 C596 1.394 . S
C598 C599 1.369 . S
C598 C602 1.531 . S
C599 C598 1.369 . S
C599 C600 1.410 . S
C599 C607 1.503 . S
C600 C599 1.410 . S
C600 C601 1.392 . S
C600 C603 1.511 . S
C601 C597 1.376 . S
C601 C600 1.392 . S
C601 H613 0.929 . S
C602 C598 1.531 . S
C602 H614 0.960 . S
C602 H615 0.962 . S
C602 H616 0.960 . S
C603 C600 1.511 . S
C603 H617 0.961 . S
C603 H618 0.961 . S
C603 H619 0.961 . S
C604 C605 1.370 . S
C604 C606 1.363 . S
C604 H620 0.931 . S
C605 C604 1.370 . S
C605 C609 1.408 . S
C606 C604 1.363 . S
C606 C607 1.370 . S
C606 C610 1.524 . S
C607 C599 1.503 . S
C607 C606 1.370 . S
C607 C608 1.403 . S
C608 C607 1.403 . S
C608 C609 1.404 . S
C608 C611 1.539 . S
C609 C605 1.408 . S
C609 C608 1.404 . S
C609 H621 0.930 . S
C610 C606 1.524 . S
C610 H622 0.956 . S
C610 H623 0.961 . S
C610 H624 0.961 . S
C611 C608 1.539 . S
C611 H625 0.958 . S
C611 H626 0.961 . S
C611 H627 0.960 . S
H612 C596 0.931 . S
H613 C601 0.929 . S
H614 C602 0.960 . S
H615 C602 0.962 . S
H616 C602 0.960 . S
H617 C603 0.961 . S
H618 C603 0.961 . S
H619 C603 0.961 . S
H620 C604 0.931 . S
H621 C609 0.930 . S
H622 C610 0.956 . S
H623 C610 0.961 . S
H624 C610 0.961 . S
H625 C611 0.958 . S
H626 C611 0.961 . S
H627 C611 0.960 . S
C628 C629 1.391 . S
C628 C630 1.394 . S
C628 H644 0.931 . S
C629 C628 1.391 . S
C629 C633 1.376 . S
C630 C628 1.394 . S
C630 C631 1.369 . S
C630 C634 1.531 . S
C631 C630 1.369 . S
C631 C632 1.410 . S
C631 C639 1.503 . S
C632 C631 1.410 . S
C632 C633 1.392 . S
C632 C635 1.511 . S
C633 C629 1.376 . S
C633 C632 1.392 . S
C633 H645 0.929 . S
C634 C630 1.531 . S
C634 H646 0.960 . S
C634 H647 0.962 . S
C634 H648 0.960 . S
C635 C632 1.511 . S
C635 H649 0.961 . S
C635 H650 0.961 . S
C635 H651 0.961 . S
C636 C637 1.370 . S
C636 C638 1.363 . S
C636 H652 0.931 . S
C637 C636 1.370 . S
C637 C641 1.408 . S
C638 C636 1.363 . S
C638 C639 1.370 . S
C638 C642 1.524 . S
C639 C631 1.503 . S
C639 C638 1.370 . S
C639 C640 1.403 . S
C640 C639 1.403 . S
C640 C641 1.404 . S
C640 C643 1.539 . S
C641 C637 1.408 . S
C641 C640 1.404 . S
C641 H653 0.930 . S
C642 C638 1.524 . S
C642 H654 0.956 . S
C642 H655 0.961 . S
C642 H656 0.961 . S
C643 C640 1.539 . S
C643 H657 0.958 . S
C643 H658 0.961 . S
C643 H659 0.960 . S
H644 C628 0.931 . S
H645 C633 0.929 . S
H646 C634 0.960 . S
H647 C634 0.962 . S
H648 C634 0.960 . S
H649 C635 0.961 . S
H650 C635 0.961 . S
H651 C635 0.961 . S
H652 C636 0.931 . S
H653 C641 0.930 . S
H654 C642 0.956 . S
H655 C642 0.961 . S
H656 C642 0.961 . S
H657 C643 0.958 . S
H658 C643 0.961 . S
H659 C643 0.960 . S
C660 C661 1.391 . S
C660 C662 1.394 . S
C660 H676 0.931 . S
C661 C660 1.391 . S
C661 C665 1.376 . S
C662 C660 1.394 . S
C662 C663 1.369 . S
C662 C666 1.531 . S
C663 C662 1.369 . S
C663 C664 1.410 . S
C663 C671 1.503 . S
C664 C663 1.410 . S
C664 C665 1.392 . S
C664 C667 1.511 . S
C665 C661 1.376 . S
C665 C664 1.392 . S
C665 H677 0.929 . S
C666 C662 1.531 . S
C666 H678 0.960 . S
C666 H679 0.962 . S
C666 H680 0.960 . S
C667 C664 1.511 . S
C667 H681 0.961 . S
C667 H682 0.961 . S
C667 H683 0.961 . S
C668 C669 1.370 . S
C668 C670 1.363 . S
C668 H684 0.931 . S
C669 C668 1.370 . S
C669 C673 1.408 . S
C670 C668 1.363 . S
C670 C671 1.370 . S
C670 C674 1.524 . S
C671 C663 1.503 . S
C671 C670 1.370 . S
C671 C672 1.403 . S
C672 C671 1.403 . S
C672 C673 1.404 . S
C672 C675 1.539 . S
C673 C669 1.408 . S
C673 C672 1.404 . S
C673 H685 0.930 . S
C674 C670 1.524 . S
C674 H686 0.956 . S
C674 H687 0.961 . S
C674 H688 0.961 . S
C675 C672 1.539 . S
C675 H689 0.958 . S
C675 H690 0.961 . S
C675 H691 0.960 . S
H676 C660 0.931 . S
H677 C665 0.929 . S
H678 C666 0.960 . S
H679 C666 0.962 . S
H680 C666 0.960 . S
H681 C667 0.961 . S
H682 C667 0.961 . S
H683 C667 0.961 . S
H684 C668 0.931 . S
H685 C673 0.930 . S
H686 C674 0.956 . S
H687 C674 0.961 . S
H688 C674 0.961 . S
H689 C675 0.958 . S
H690 C675 0.961 . S
H691 C675 0.960 . S
C692 C693 1.391 . S
C692 C694 1.394 . S
C692 H708 0.931 . S
C693 C692 1.391 . S
C693 C697 1.376 . S
C694 C692 1.394 . S
C694 C695 1.369 . S
C694 C698 1.531 . S
C695 C694 1.369 . S
C695 C696 1.410 . S
C695 C703 1.503 . S
C696 C695 1.410 . S
C696 C697 1.392 . S
C696 C699 1.511 . S
C697 C693 1.376 . S
C697 C696 1.392 . S
C697 H709 0.929 . S
C698 C694 1.531 . S
C698 H710 0.960 . S
C698 H711 0.962 . S
C698 H712 0.960 . S
C699 C696 1.511 . S
C699 H713 0.961 . S
C699 H714 0.961 . S
C699 H715 0.961 . S
C700 C701 1.370 . S
C700 C702 1.363 . S
C700 H716 0.931 . S
C701 C700 1.370 . S
C701 C705 1.408 . S
C702 C700 1.363 . S
C702 C703 1.370 . S
C702 C706 1.524 . S
C703 C695 1.503 . S
C703 C702 1.370 . S
C703 C704 1.403 . S
C704 C703 1.403 . S
C704 C705 1.404 . S
C704 C707 1.539 . S
C705 C701 1.408 . S
C705 C704 1.404 . S
C705 H717 0.930 . S
C706 C702 1.524 . S
C706 H718 0.956 . S
C706 H719 0.961 . S
C706 H720 0.961 . S
C707 C704 1.539 . S
C707 H721 0.958 . S
C707 H722 0.961 . S
C707 H723 0.960 . S
H708 C692 0.931 . S
H709 C697 0.929 . S
H710 C698 0.960 . S
H711 C698 0.962 . S
H712 C698 0.960 . S
H713 C699 0.961 . S
H714 C699 0.961 . S
H715 C699 0.961 . S
H716 C700 0.931 . S
H717 C705 0.930 . S
H718 C706 0.956 . S
H719 C706 0.961 . S
H720 C706 0.961 . S
H721 C707 0.958 . S
H722 C707 0.961 . S
H723 C707 0.960 . S
C724 C725 1.391 . S
C724 C726 1.394 . S
C724 H740 0.931 . S
C725 C724 1.391 . S
C725 C729 1.376 . S
C726 C724 1.394 . S
C726 C727 1.369 . S
C726 C730 1.531 . S
C727 C726 1.369 . S
C727 C728 1.410 . S
C727 C735 1.503 . S
C728 C727 1.410 . S
C728 C729 1.392 . S
C728 C731 1.511 . S
C729 C725 1.376 . S
C729 C728 1.392 . S
C729 H741 0.929 . S
C730 C726 1.531 . S
C730 H742 0.960 . S
C730 H743 0.962 . S
C730 H744 0.960 . S
C731 C728 1.511 . S
C731 H745 0.961 . S
C731 H746 0.961 . S
C731 H747 0.961 . S
C732 C733 1.370 . S
C732 C734 1.363 . S
C732 H748 0.931 . S
C733 C732 1.370 . S
C733 C737 1.408 . S
C734 C732 1.363 . S
C734 C735 1.370 . S
C734 C738 1.524 . S
C735 C727 1.503 . S
C735 C734 1.370 . S
C735 C736 1.403 . S
C736 C735 1.403 . S
C736 C737 1.404 . S
C736 C739 1.539 . S
C737 C733 1.408 . S
C737 C736 1.404 . S
C737 H749 0.930 . S
C738 C734 1.524 . S
C738 H750 0.956 . S
C738 H751 0.961 . S
C738 H752 0.961 . S
C739 C736 1.539 . S
C739 H753 0.958 . S
C739 H754 0.961 . S
C739 H755 0.960 . S
H740 C724 0.931 . S
H741 C729 0.929 . S
H742 C730 0.960 . S
H743 C730 0.962 . S
H744 C730 0.960 . S
H745 C731 0.961 . S
H746 C731 0.961 . S
H747 C731 0.961 . S
H748 C732 0.931 . S
H749 C737 0.930 . S
H750 C738 0.956 . S
H751 C738 0.961 . S
H752 C738 0.961 . S
H753 C739 0.958 . S
H754 C739 0.961 . S
H755 C739 0.960 . S
C756 C757 1.391 . S
C756 C758 1.394 . S
C756 H772 0.931 . S
C757 C756 1.391 . S
C757 C761 1.376 . S
C758 C756 1.394 . S
C758 C759 1.369 . S
C758 C762 1.531 . S
C759 C758 1.369 . S
C759 C760 1.410 . S
C759 C767 1.503 . S
C760 C759 1.410 . S
C760 C761 1.392 . S
C760 C763 1.511 . S
C761 C757 1.376 . S
C761 C760 1.392 . S
C761 H773 0.929 . S
C762 C758 1.531 . S
C762 H774 0.960 . S
C762 H775 0.962 . S
C762 H776 0.960 . S
C763 C760 1.511 . S
C763 H777 0.961 . S
C763 H778 0.961 . S
C763 H779 0.961 . S
C764 C765 1.370 . S
C764 C766 1.363 . S
C764 H780 0.931 . S
C765 C764 1.370 . S
C765 C769 1.408 . S
C766 C764 1.363 . S
C766 C767 1.370 . S
C766 C770 1.524 . S
C767 C759 1.503 . S
C767 C766 1.370 . S
C767 C768 1.403 . S
C768 C767 1.403 . S
C768 C769 1.404 . S
C768 C771 1.539 . S
C769 C765 1.408 . S
C769 C768 1.404 . S
C769 H781 0.930 . S
C770 C766 1.524 . S
C770 H782 0.956 . S
C770 H783 0.961 . S
C770 H784 0.961 . S
C771 C768 1.539 . S
C771 H785 0.958 . S
C771 H786 0.961 . S
C771 H787 0.960 . S
H772 C756 0.931 . S
H773 C761 0.929 . S
H774 C762 0.960 . S
H775 C762 0.962 . S
H776 C762 0.960 . S
H777 C763 0.961 . S
H778 C763 0.961 . S
H779 C763 0.961 . S
H780 C764 0.931 . S
H781 C769 0.930 . S
H782 C770 0.956 . S
H783 C770 0.961 . S
H784 C770 0.961 . S
H785 C771 0.958 . S
H786 C771 0.961 . S
H787 C771 0.960 . S
C788 C789 1.391 . S
C788 C790 1.394 . S
C788 H804 0.931 . S
C789 C788 1.391 . S
C789 C793 1.376 . S
C790 C788 1.394 . S
C790 C791 1.369 . S
C790 C794 1.531 . S
C791 C790 1.369 . S
C791 C792 1.410 . S
C791 C799 1.503 . S
C792 C791 1.410 . S
C792 C793 1.392 . S
C792 C795 1.511 . S
C793 C789 1.376 . S
C793 C792 1.392 . S
C793 H805 0.929 . S
C794 C790 1.531 . S
C794 H806 0.960 . S
C794 H807 0.962 . S
C794 H808 0.960 . S
C795 C792 1.511 . S
C795 H809 0.961 . S
C795 H810 0.961 . S
C795 H811 0.961 . S
C796 C797 1.370 . S
C796 C798 1.363 . S
C796 H812 0.931 . S
C797 C796 1.370 . S
C797 C801 1.408 . S
C798 C796 1.363 . S
C798 C799 1.370 . S
C798 C802 1.524 . S
C799 C791 1.503 . S
C799 C798 1.370 . S
C799 C800 1.403 . S
C800 C799 1.403 . S
C800 C801 1.404 . S
C800 C803 1.539 . S
C801 C797 1.408 . S
C801 C800 1.404 . S
C801 H813 0.930 . S
C802 C798 1.524 . S
C802 H814 0.956 . S
C802 H815 0.961 . S
C802 H816 0.961 . S
C803 C800 1.539 . S
C803 H817 0.958 . S
C803 H818 0.961 . S
C803 H819 0.960 . S
H804 C788 0.931 . S
H805 C793 0.929 . S
H806 C794 0.960 . S
H807 C794 0.962 . S
H808 C794 0.960 . S
H809 C795 0.961 . S
H810 C795 0.961 . S
H811 C795 0.961 . S
H812 C796 0.931 . S
H813 C801 0.930 . S
H814 C802 0.956 . S
H815 C802 0.961 . S
H816 C802 0.961 . S
H817 C803 0.958 . S
H818 C803 0.961 . S
H819 C803 0.960 . S
C820 C821 1.391 . S
C820 C822 1.394 . S
C820 H836 0.931 . S
C821 C820 1.391 . S
C821 C825 1.376 . S
C822 C820 1.394 . S
C822 C823 1.369 . S
C822 C826 1.531 . S
C823 C822 1.369 . S
C823 C824 1.410 . S
C823 C831 1.503 . S
C824 C823 1.410 . S
C824 C825 1.392 . S
C824 C827 1.511 . S
C825 C821 1.376 . S
C825 C824 1.392 . S
C825 H837 0.929 . S
C826 C822 1.531 . S
C826 H838 0.960 . S
C826 H839 0.962 . S
C826 H840 0.960 . S
C827 C824 1.511 . S
C827 H841 0.961 . S
C827 H842 0.961 . S
C827 H843 0.961 . S
C828 C829 1.370 . S
C828 C830 1.363 . S
C828 H844 0.931 . S
C829 C828 1.370 . S
C829 C833 1.408 . S
C830 C828 1.363 . S
C830 C831 1.370 . S
C830 C834 1.524 . S
C831 C823 1.503 . S
C831 C830 1.370 . S
C831 C832 1.403 . S
C832 C831 1.403 . S
C832 C833 1.404 . S
C832 C835 1.539 . S
C833 C829 1.408 . S
C833 C832 1.404 . S
C833 H845 0.930 . S
C834 C830 1.524 . S
C834 H846 0.956 . S
C834 H847 0.961 . S
C834 H848 0.961 . S
C835 C832 1.539 . S
C835 H849 0.958 . S
C835 H850 0.961 . S
C835 H851 0.960 . S
H836 C820 0.931 . S
H837 C825 0.929 . S
H838 C826 0.960 . S
H839 C826 0.962 . S
H840 C826 0.960 . S
H841 C827 0.961 . S
H842 C827 0.961 . S
H843 C827 0.961 . S
H844 C828 0.931 . S
H845 C833 0.930 . S
H846 C834 0.956 . S
H847 C834 0.961 . S
H848 C834 0.961 . S
H849 C835 0.958 . S
H850 C835 0.961 . S
H851 C835 0.960 . S
C852 C853 1.391 . S
C852 C854 1.394 . S
C852 H868 0.931 . S
C853 C852 1.391 . S
C853 C857 1.376 . S
C854 C852 1.394 . S
C854 C855 1.369 . S
C854 C858 1.531 . S
C855 C854 1.369 . S
C855 C856 1.410 . S
C855 C863 1.503 . S
C856 C855 1.410 . S
C856 C857 1.392 . S
C856 C859 1.511 . S
C857 C853 1.376 . S
C857 C856 1.392 . S
C857 H869 0.929 . S
C858 C854 1.531 . S
C858 H870 0.960 . S
C858 H871 0.962 . S
C858 H872 0.960 . S
C859 C856 1.511 . S
C859 H873 0.961 . S
C859 H874 0.961 . S
C859 H875 0.961 . S
C860 C861 1.370 . S
C860 C862 1.363 . S
C860 H876 0.931 . S
C861 C860 1.370 . S
C861 C865 1.408 . S
C862 C860 1.363 . S
C862 C863 1.370 . S
C862 C866 1.524 . S
C863 C855 1.503 . S
C863 C862 1.370 . S
C863 C864 1.403 . S
C864 C863 1.403 . S
C864 C865 1.404 . S
C864 C867 1.539 . S
C865 C861 1.408 . S
C865 C864 1.404 . S
C865 H877 0.930 . S
C866 C862 1.524 . S
C866 H878 0.956 . S
C866 H879 0.961 . S
C866 H880 0.961 . S
C867 C864 1.539 . S
C867 H881 0.958 . S
C867 H882 0.961 . S
C867 H883 0.960 . S
H868 C852 0.931 . S
H869 C857 0.929 . S
H870 C858 0.960 . S
H871 C858 0.962 . S
H872 C858 0.960 . S
H873 C859 0.961 . S
H874 C859 0.961 . S
H875 C859 0.961 . S
H876 C860 0.931 . S
H877 C865 0.930 . S
H878 C866 0.956 . S
H879 C866 0.961 . S
H880 C866 0.961 . S
H881 C867 0.958 . S
H882 C867 0.961 . S
H883 C867 0.960 . S
C884 C885 1.391 . S
C884 C886 1.394 . S
C884 H900 0.931 . S
C885 C884 1.391 . S
C885 C889 1.376 . S
C886 C884 1.394 . S
C886 C887 1.369 . S
C886 C890 1.531 . S
C887 C886 1.369 . S
C887 C888 1.410 . S
C887 C895 1.503 . S
C888 C887 1.410 . S
C888 C889 1.392 . S
C888 C891 1.511 . S
C889 C885 1.376 . S
C889 C888 1.392 . S
C889 H901 0.929 . S
C890 C886 1.531 . S
C890 H902 0.960 . S
C890 H903 0.962 . S
C890 H904 0.960 . S
C891 C888 1.511 . S
C891 H905 0.961 . S
C891 H906 0.961 . S
C891 H907 0.961 . S
C892 C893 1.370 . S
C892 C894 1.363 . S
C892 H908 0.931 . S
C893 C892 1.370 . S
C893 C897 1.408 . S
C894 C892 1.363 . S
C894 C895 1.370 . S
C894 C898 1.524 . S
C895 C887 1.503 . S
C895 C894 1.370 . S
C895 C896 1.403 . S
C896 C895 1.403 . S
C896 C897 1.404 . S
C896 C899 1.539 . S
C897 C893 1.408 . S
C897 C896 1.404 . S
C897 H909 0.930 . S
C898 C894 1.524 . S
C898 H910 0.956 . S
C898 H911 0.961 . S
C898 H912 0.961 . S
C899 C896 1.539 . S
C899 H913 0.958 . S
C899 H914 0.961 . S
C899 H915 0.960 . S
H900 C884 0.931 . S
H901 C889 0.929 . S
H902 C890 0.960 . S
H903 C890 0.962 . S
H904 C890 0.960 . S
H905 C891 0.961 . S
H906 C891 0.961 . S
H907 C891 0.961 . S
H908 C892 0.931 . S
H909 C897 0.930 . S
H910 C898 0.956 . S
H911 C898 0.961 . S
H912 C898 0.961 . S
H913 C899 0.958 . S
H914 C899 0.961 . S
H915 C899 0.960 . S
C916 C917 1.391 . S
C916 C918 1.394 . S
C916 H932 0.931 . S
C917 C916 1.391 . S
C917 C921 1.376 . S
C918 C916 1.394 . S
C918 C919 1.369 . S
C918 C922 1.531 . S
C919 C918 1.369 . S
C919 C920 1.410 . S
C919 C927 1.503 . S
C920 C919 1.410 . S
C920 C921 1.392 . S
C920 C923 1.511 . S
C921 C917 1.376 . S
C921 C920 1.392 . S
C921 H933 0.929 . S
C922 C918 1.531 . S
C922 H934 0.960 . S
C922 H935 0.962 . S
C922 H936 0.960 . S
C923 C920 1.511 . S
C923 H937 0.961 . S
C923 H938 0.961 . S
C923 H939 0.961 . S
C924 C925 1.370 . S
C924 C926 1.363 . S
C924 H940 0.931 . S
C925 C924 1.370 . S
C925 C929 1.408 . S
C926 C924 1.363 . S
C926 C927 1.370 . S
C926 C930 1.524 . S
C927 C919 1.503 . S
C927 C926 1.370 . S
C927 C928 1.403 . S
C928 C927 1.403 . S
C928 C929 1.404 . S
C928 C931 1.539 . S
C929 C925 1.408 . S
C929 C928 1.404 . S
C929 H941 0.930 . S
C930 C926 1.524 . S
C930 H942 0.956 . S
C930 H943 0.961 . S
C930 H944 0.961 . S
C931 C928 1.539 . S
C931 H945 0.958 . S
C931 H946 0.961 . S
C931 H947 0.960 . S
H932 C916 0.931 . S
H933 C921 0.929 . S
H934 C922 0.960 . S
H935 C922 0.962 . S
H936 C922 0.960 . S
H937 C923 0.961 . S
H938 C923 0.961 . S
H939 C923 0.961 . S
H940 C924 0.931 . S
H941 C929 0.930 . S
H942 C930 0.956 . S
H943 C930 0.961 . S
H944 C930 0.961 . S
H945 C931 0.958 . S
H946 C931 0.961 . S
H947 C931 0.960 . S
C948 C949 1.391 . S
C948 C950 1.394 . S
C948 H964 0.931 . S
C949 C948 1.391 . S
C949 C953 1.376 . S
C950 C948 1.394 . S
C950 C951 1.369 . S
C950 C954 1.531 . S
C951 C950 1.369 . S
C951 C952 1.410 . S
C951 C959 1.503 . S
C952 C951 1.410 . S
C952 C953 1.392 . S
C952 C955 1.511 . S
C953 C949 1.376 . S
C953 C952 1.392 . S
C953 H965 0.929 . S
C954 C950 1.531 . S
C954 H966 0.960 . S
C954 H967 0.962 . S
C954 H968 0.960 . S
C955 C952 1.511 . S
C955 H969 0.961 . S
C955 H970 0.961 . S
C955 H971 0.961 . S
C956 C957 1.370 . S
C956 C958 1.363 . S
C956 H972 0.931 . S
C957 C956 1.370 . S
C957 C961 1.408 . S
C958 C956 1.363 . S
C958 C959 1.370 . S
C958 C962 1.524 . S
C959 C951 1.503 . S
C959 C958 1.370 . S
C959 C960 1.403 . S
C960 C959 1.403 . S
C960 C961 1.404 . S
C960 C963 1.539 . S
C961 C957 1.408 . S
C961 C960 1.404 . S
C961 H973 0.930 . S
C962 C958 1.524 . S
C962 H974 0.956 . S
C962 H975 0.961 . S
C962 H976 0.961 . S
C963 C960 1.539 . S
C963 H977 0.958 . S
C963 H978 0.961 . S
C963 H979 0.960 . S
H964 C948 0.931 . S
H965 C953 0.929 . S
H966 C954 0.960 . S
H967 C954 0.962 . S
H968 C954 0.960 . S
H969 C955 0.961 . S
H970 C955 0.961 . S
H971 C955 0.961 . S
H972 C956 0.931 . S
H973 C961 0.930 . S
H974 C962 0.956 . S
H975 C962 0.961 . S
H976 C962 0.961 . S
H977 C963 0.958 . S
H978 C963 0.961 . S
H979 C963 0.960 . S
C980 C981 1.391 . S
C980 C982 1.394 . S
C980 H996 0.931 . S
C981 C980 1.391 . S
C981 C985 1.376 . S
C982 C980 1.394 . S
C982 C983 1.369 . S
C982 C986 1.531 . S
C983 C982 1.369 . S
C983 C984 1.410 . S
C983 C991 1.503 . S
C984 C983 1.410 . S
C984 C985 1.392 . S
C984 C987 1.511 . S
C985 C981 1.376 . S
C985 C984 1.392 . S
C985 H997 0.929 . S
C986 C982 1.531 . S
C986 H998 0.960 . S
C986 H999 0.962 . S
C986 H1000 0.960 . S
C987 C984 1.511 . S
C987 H1001 0.961 . S
C987 H1002 0.961 . S
C987 H1003 0.961 . S
C988 C989 1.370 . S
C988 C990 1.363 . S
C988 H1004 0.931 . S
C989 C988 1.370 . S
C989 C993 1.408 . S
C990 C988 1.363 . S
C990 C991 1.370 . S
C990 C994 1.524 . S
C991 C983 1.503 . S
C991 C990 1.370 . S
C991 C992 1.403 . S
C992 C991 1.403 . S
C992 C993 1.404 . S
C992 C995 1.539 . S
C993 C989 1.408 . S
C993 C992 1.404 . S
C993 H1005 0.930 . S
C994 C990 1.524 . S
C994 H1006 0.956 . S
C994 H1007 0.961 . S
C994 H1008 0.961 . S
C995 C992 1.539 . S
C995 H1009 0.958 . S
C995 H1010 0.961 . S
C995 H1011 0.960 . S
H996 C980 0.931 . S
H997 C985 0.929 . S
H998 C986 0.960 . S
H999 C986 0.962 . S
H1000 C986 0.960 . S
H1001 C987 0.961 . S
H1002 C987 0.961 . S
H1003 C987 0.961 . S
H1004 C988 0.931 . S
H1005 C993 0.930 . S
H1006 C994 0.956 . S
H1007 C994 0.961 . S
H1008 C994 0.961 . S
H1009 C995 0.958 . S
H1010 C995 0.961 . S
H1011 C995 0.960 . S
C1012 C1013 1.391 . S
C1012 C1014 1.394 . S
C1012 H1028 0.931 . S
C1013 C1012 1.391 . S
C1013 C1017 1.376 . S
C1014 C1012 1.394 . S
C1014 C1015 1.369 . S
C1014 C1018 1.531 . S
C1015 C1014 1.369 . S
C1015 C1016 1.410 . S
C1015 C1023 1.503 . S
C1016 C1015 1.410 . S
C1016 C1017 1.392 . S
C1016 C1019 1.511 . S
C1017 C1013 1.376 . S
C1017 C1016 1.392 . S
C1017 H1029 0.929 . S
C1018 C1014 1.531 . S
C1018 H1030 0.960 . S
C1018 H1031 0.962 . S
C1018 H1032 0.960 . S
C1019 C1016 1.511 . S
C1019 H1033 0.961 . S
C1019 H1034 0.961 . S
C1019 H1035 0.961 . S
C1020 C1021 1.370 . S
C1020 C1022 1.363 . S
C1020 H1036 0.931 . S
C1021 C1020 1.370 . S
C1021 C1025 1.408 . S
C1022 C1020 1.363 . S
C1022 C1023 1.370 . S
C1022 C1026 1.524 . S
C1023 C1015 1.503 . S
C1023 C1022 1.370 . S
C1023 C1024 1.403 . S
C1024 C1023 1.403 . S
C1024 C1025 1.404 . S
C1024 C1027 1.539 . S
C1025 C1021 1.408 . S
C1025 C1024 1.404 . S
C1025 H1037 0.930 . S
C1026 C1022 1.524 . S
C1026 H1038 0.956 . S
C1026 H1039 0.961 . S
C1026 H1040 0.961 . S
C1027 C1024 1.539 . S
C1027 H1041 0.958 . S
C1027 H1042 0.961 . S
C1027 H1043 0.960 . S
H1028 C1012 0.931 . S
H1029 C1017 0.929 . S
H1030 C1018 0.960 . S
H1031 C1018 0.962 . S
H1032 C1018 0.960 . S
H1033 C1019 0.961 . S
H1034 C1019 0.961 . S
H1035 C1019 0.961 . S
H1036 C1020 0.931 . S
H1037 C1025 0.930 . S
H1038 C1026 0.956 . S
H1039 C1026 0.961 . S
H1040 C1026 0.961 . S
H1041 C1027 0.958 . S
H1042 C1027 0.961 . S
H1043 C1027 0.960 . S
C1044 C1045 1.391 . S
C1044 C1046 1.394 . S
C1044 H1060 0.931 . S
C1045 C1044 1.391 . S
C1045 C1049 1.376 . S
C1046 C1044 1.394 . S
C1046 C1047 1.369 . S
C1046 C1050 1.531 . S
C1047 C1046 1.369 . S
C1047 C1048 1.410 . S
C1047 C1055 1.503 . S
C1048 C1047 1.410 . S
C1048 C1049 1.392 . S
C1048 C1051 1.511 . S
C1049 C1045 1.376 . S
C1049 C1048 1.392 . S
C1049 H1061 0.929 . S
C1050 C1046 1.531 . S
C1050 H1062 0.960 . S
C1050 H1063 0.962 . S
C1050 H1064 0.960 . S
C1051 C1048 1.511 . S
C1051 H1065 0.961 . S
C1051 H1066 0.961 . S
C1051 H1067 0.961 . S
C1052 C1053 1.370 . S
C1052 C1054 1.363 . S
C1052 H1068 0.931 . S
C1053 C1052 1.370 . S
C1053 C1057 1.408 . S
C1054 C1052 1.363 . S
C1054 C1055 1.370 . S
C1054 C1058 1.524 . S
C1055 C1047 1.503 . S
C1055 C1054 1.370 . S
C1055 C1056 1.403 . S
C1056 C1055 1.403 . S
C1056 C1057 1.404 . S
C1056 C1059 1.539 . S
C1057 C1053 1.408 . S
C1057 C1056 1.404 . S
C1057 H1069 0.930 . S
C1058 C1054 1.524 . S
C1058 H1070 0.956 . S
C1058 H1071 0.961 . S
C1058 H1072 0.961 . S
C1059 C1056 1.539 . S
C1059 H1073 0.958 . S
C1059 H1074 0.961 . S
C1059 H1075 0.960 . S
H1060 C1044 0.931 . S
H1061 C1049 0.929 . S
H1062 C1050 0.960 . S
H1063 C1050 0.962 . S
H1064 C1050 0.960 . S
H1065 C1051 0.961 . S
H1066 C1051 0.961 . S
H1067 C1051 0.961 . S
H1068 C1052 0.931 . S
H1069 C1057 0.930 . S
H1070 C1058 0.956 . S
H1071 C1058 0.961 . S
H1072 C1058 0.961 . S
H1073 C1059 0.958 . S
H1074 C1059 0.961 . S
H1075 C1059 0.960 . S
C1076 C1077 1.391 . S
C1076 C1078 1.394 . S
C1076 H1092 0.931 . S
C1077 C1076 1.391 . S
C1077 C1081 1.376 . S
C1078 C1076 1.394 . S
C1078 C1079 1.369 . S
C1078 C1082 1.531 . S
C1079 C1078 1.369 . S
C1079 C1080 1.410 . S
C1079 C1087 1.503 . S
C1080 C1079 1.410 . S
C1080 C1081 1.392 . S
C1080 C1083 1.511 . S
C1081 C1077 1.376 . S
C1081 C1080 1.392 . S
C1081 H1093 0.929 . S
C1082 C1078 1.531 . S
C1082 H1094 0.960 . S
C1082 H1095 0.962 . S
C1082 H1096 0.960 . S
C1083 C1080 1.511 . S
C1083 H1097 0.961 . S
C1083 H1098 0.961 . S
C1083 H1099 0.961 . S
C1084 C1085 1.370 . S
C1084 C1086 1.363 . S
C1084 H1100 0.931 . S
C1085 C1084 1.370 . S
C1085 C1089 1.408 . S
C1086 C1084 1.363 . S
C1086 C1087 1.370 . S
C1086 C1090 1.524 . S
C1087 C1079 1.503 . S
C1087 C1086 1.370 . S
C1087 C1088 1.403 . S
C1088 C1087 1.403 . S
C1088 C1089 1.404 . S
C1088 C1091 1.539 . S
C1089 C1085 1.408 . S
C1089 C1088 1.404 . S
C1089 H1101 0.930 . S
C1090 C1086 1.524 . S
C1090 H1102 0.956 . S
C1090 H1103 0.961 . S
C1090 H1104 0.961 . S
C1091 C1088 1.539 . S
C1091 H1105 0.958 . S
C1091 H1106 0.961 . S
C1091 H1107 0.960 . S
H1092 C1076 0.931 . S
H1093 C1081 0.929 . S
H1094 C1082 0.960 . S
H1095 C1082 0.962 . S
H1096 C1082 0.960 . S
H1097 C1083 0.961 . S
H1098 C1083 0.961 . S
H1099 C1083 0.961 . S
H1100 C1084 0.931 . S
H1101 C1089 0.930 . S
H1102 C1090 0.956 . S
H1103 C1090 0.961 . S
H1104 C1090 0.961 . S
H1105 C1091 0.958 . S
H1106 C1091 0.961 . S
H1107 C1091 0.960 . S
C1108 C1109 1.391 . S
C1108 C1110 1.394 . S
C1108 H1124 0.931 . S
C1109 C1108 1.391 . S
C1109 C1113 1.376 . S
C1110 C1108 1.394 . S
C1110 C1111 1.369 . S
C1110 C1114 1.531 . S
C1111 C1110 1.369 . S
C1111 C1112 1.410 . S
C1111 C1119 1.503 . S
C1112 C1111 1.410 . S
C1112 C1113 1.392 . S
C1112 C1115 1.511 . S
C1113 C1109 1.376 . S
C1113 C1112 1.392 . S
C1113 H1125 0.929 . S
C1114 C1110 1.531 . S
C1114 H1126 0.960 . S
C1114 H1127 0.962 . S
C1114 H1128 0.960 . S
C1115 C1112 1.511 . S
C1115 H1129 0.961 . S
C1115 H1130 0.961 . S
C1115 H1131 0.961 . S
C1116 C1117 1.370 . S
C1116 C1118 1.363 . S
C1116 H1132 0.931 . S
C1117 C1116 1.370 . S
C1117 C1121 1.408 . S
C1118 C1116 1.363 . S
C1118 C1119 1.370 . S
C1118 C1122 1.524 . S
C1119 C1111 1.503 . S
C1119 C1118 1.370 . S
C1119 C1120 1.403 . S
C1120 C1119 1.403 . S
C1120 C1121 1.404 . S
C1120 C1123 1.539 . S
C1121 C1117 1.408 . S
C1121 C1120 1.404 . S
C1121 H1133 0.930 . S
C1122 C1118 1.524 . S
C1122 H1134 0.956 . S
C1122 H1135 0.961 . S
C1122 H1136 0.961 . S
C1123 C1120 1.539 . S
C1123 H1137 0.958 . S
C1123 H1138 0.961 . S
C1123 H1139 0.960 . S
H1124 C1108 0.931 . S
H1125 C1113 0.929 . S
H1126 C1114 0.960 . S
H1127 C1114 0.962 . S
H1128 C1114 0.960 . S
H1129 C1115 0.961 . S
H1130 C1115 0.961 . S
H1131 C1115 0.961 . S
H1132 C1116 0.931 . S
H1133 C1121 0.930 . S
H1134 C1122 0.956 . S
H1135 C1122 0.961 . S
H1136 C1122 0.961 . S
H1137 C1123 0.958 . S
H1138 C1123 0.961 . S
H1139 C1123 0.960 . S
C1140 C1141 1.391 . S
C1140 C1142 1.394 . S
C1140 H1156 0.931 . S
C1141 C1140 1.391 . S
C1141 C1145 1.376 . S
C1142 C1140 1.394 . S
C1142 C1143 1.369 . S
C1142 C1146 1.531 . S
C1143 C1142 1.369 . S
C1143 C1144 1.410 . S
C1143 C1151 1.503 . S
C1144 C1143 1.410 . S
C1144 C1145 1.392 . S
C1144 C1147 1.511 . S
C1145 C1141 1.376 . S
C1145 C1144 1.392 . S
C1145 H1157 0.929 . S
C1146 C1142 1.531 . S
C1146 H1158 0.960 . S
C1146 H1159 0.962 . S
C1146 H1160 0.960 . S
C1147 C1144 1.511 . S
C1147 H1161 0.961 . S
C1147 H1162 0.961 . S
C1147 H1163 0.961 . S
C1148 C1149 1.370 . S
C1148 C1150 1.363 . S
C1148 H1164 0.931 . S
C1149 C1148 1.370 . S
C1149 C1153 1.408 . S
C1150 C1148 1.363 . S
C1150 C1151 1.370 . S
C1150 C1154 1.524 . S
C1151 C1143 1.503 . S
C1151 C1150 1.370 . S
C1151 C1152 1.403 . S
C1152 C1151 1.403 . S
C1152 C1153 1.404 . S
C1152 C1155 1.539 . S
C1153 C1149 1.408 . S
C1153 C1152 1.404 . S
C1153 H1165 0.930 . S
C1154 C1150 1.524 . S
C1154 H1166 0.956 . S
C1154 H1167 0.961 . S
C1154 H1168 0.961 . S
C1155 C1152 1.539 . S
C1155 H1169 0.958 . S
C1155 H1170 0.961 . S
C1155 H1171 0.960 . S
H1156 C1140 0.931 . S
H1157 C1145 0.929 . S
H1158 C1146 0.960 . S
H1159 C1146 0.962 . S
H1160 C1146 0.960 . S
H1161 C1147 0.961 . S
H1162 C1147 0.961 . S
H1163 C1147 0.961 . S
H1164 C1148 0.931 . S
H1165 C1153 0.930 . S
H1166 C1154 0.956 . S
H1167 C1154 0.961 . S
H1168 C1154 0.961 . S
H1169 C1155 0.958 . S
H1170 C1155 0.961 . S
H1171 C1155 0.960 . S
C1172 C1173 1.391 . S
C1172 C1174 1.394 . S
C1172 H1188 0.931 . S
C1173 C1172 1.391 . S
C1173 C1177 1.376 . S
C1174 C1172 1.394 . S
C1174 C1175 1.369 . S
C1174 C1178 1.531 . S
C1175 C1174 1.369 . S
C1175 C1176 1.410 . S
C1175 C1183 1.503 . S
C1176 C1175 1.410 . S
C1176 C1177 1.392 . S
C1176 C1179 1.511 . S
C1177 C1173 1.376 . S
C1177 C1176 1.392 . S
C1177 H1189 0.929 . S
C1178 C1174 1.531 . S
C1178 H1190 0.960 . S
C1178 H1191 0.962 . S
C1178 H1192 0.960 . S
C1179 C1176 1.511 . S
C1179 H1193 0.961 . S
C1179 H1194 0.961 . S
C1179 H1195 0.961 . S
C1180 C1181 1.370 . S
C1180 C1182 1.363 . S
C1180 H1196 0.931 . S
C1181 C1180 1.370 . S
C1181 C1185 1.408 . S
C1182 C1180 1.363 . S
C1182 C1183 1.370 . S
C1182 C1186 1.524 . S
C1183 C1175 1.503 . S
C1183 C1182 1.370 . S
C1183 C1184 1.403 . S
C1184 C1183 1.403 . S
C1184 C1185 1.404 . S
C1184 C1187 1.539 . S
C1185 C1181 1.408 . S
C1185 C1184 1.404 . S
C1185 H1197 0.930 . S
C1186 C1182 1.524 . S
C1186 H1198 0.956 . S
C1186 H1199 0.961 . S
C1186 H1200 0.961 . S
C1187 C1184 1.539 . S
C1187 H1201 0.958 . S
C1187 H1202 0.961 . S
C1187 H1203 0.960 . S
H1188 C1172 0.931 . S
H1189 C1177 0.929 . S
H1190 C1178 0.960 . S
H1191 C1178 0.962 . S
H1192 C1178 0.960 . S
H1193 C1179 0.961 . S
H1194 C1179 0.961 . S
H1195 C1179 0.961 . S
H1196 C1180 0.931 . S
H1197 C1185 0.930 . S
H1198 C1186 0.956 . S
H1199 C1186 0.961 . S
H1200 C1186 0.961 . S
H1201 C1187 0.958 . S
H1202 C1187 0.961 . S
H1203 C1187 0.960 . S
C1204 C1205 1.391 . S
C1204 C1206 1.394 . S
C1204 H1220 0.931 . S
C1205 C1204 1.391 . S
C1205 C1209 1.376 . S
C1206 C1204 1.394 . S
C1206 C1207 1.369 . S
C1206 C1210 1.531 . S
C1207 C1206 1.369 . S
C1207 C1208 1.410 . S
C1207 C1215 1.503 . S
C1208 C1207 1.410 . S
C1208 C1209 1.392 . S
C1208 C1211 1.511 . S
C1209 C1205 1.376 . S
C1209 C1208 1.392 . S
C1209 H1221 0.929 . S
C1210 C1206 1.531 . S
C1210 H1222 0.960 . S
C1210 H1223 0.962 . S
C1210 H1224 0.960 . S
C1211 C1208 1.511 . S
C1211 H1225 0.961 . S
C1211 H1226 0.961 . S
C1211 H1227 0.961 . S
C1212 C1213 1.370 . S
C1212 C1214 1.363 . S
C1212 H1228 0.931 . S
C1213 C1212 1.370 . S
C1213 C1217 1.408 . S
C1214 C1212 1.363 . S
C1214 C1215 1.370 . S
C1214 C1218 1.524 . S
C1215 C1207 1.503 . S
C1215 C1214 1.370 . S
C1215 C1216 1.403 . S
C1216 C1215 1.403 . S
C1216 C1217 1.404 . S
C1216 C1219 1.539 . S
C1217 C1213 1.408 . S
C1217 C1216 1.404 . S
C1217 H1229 0.930 . S
C1218 C1214 1.524 . S
C1218 H1230 0.956 . S
C1218 H1231 0.961 . S
C1218 H1232 0.961 . S
C1219 C1216 1.539 . S
C1219 H1233 0.958 . S
C1219 H1234 0.961 . S
C1219 H1235 0.960 . S
H1220 C1204 0.931 . S
H1221 C1209 0.929 . S
H1222 C1210 0.960 . S
H1223 C1210 0.962 . S
H1224 C1210 0.960 . S
H1225 C1211 0.961 . S
H1226 C1211 0.961 . S
H1227 C1211 0.961 . S
H1228 C1212 0.931 . S
H1229 C1217 0.930 . S
H1230 C1218 0.956 . S
H1231 C1218 0.961 . S
H1232 C1218 0.961 . S
H1233 C1219 0.958 . S
H1234 C1219 0.961 . S
H1235 C1219 0.960 . S
C1236 C1237 1.391 . S
C1236 C1238 1.394 . S
C1236 H1252 0.931 . S
C1237 C1236 1.391 . S
C1237 C1241 1.376 . S
C1238 C1236 1.394 . S
C1238 C1239 1.369 . S
C1238 C1242 1.531 . S
C1239 C1238 1.369 . S
C1239 C1240 1.410 . S
C1239 C1247 1.503 . S
C1240 C1239 1.410 . S
C1240 C1241 1.392 . S
C1240 C1243 1.511 . S
C1241 C1237 1.376 . S
C1241 C1240 1.392 . S
C1241 H1253 0.929 . S
C1242 C1238 1.531 . S
C1242 H1254 0.960 . S
C1242 H1255 0.962 . S
C1242 H1256 0.960 . S
C1243 C1240 1.511 . S
C1243 H1257 0.961 . S
C1243 H1258 0.961 . S
C1243 H1259 0.961 . S
C1244 C1245 1.370 . S
C1244 C1246 1.363 . S
C1244 H1260 0.931 . S
C1245 C1244 1.370 . S
C1245 C1249 1.408 . S
C1246 C1244 1.363 . S
C1246 C1247 1.370 . S
C1246 C1250 1.524 . S
C1247 C1239 1.503 . S
C1247 C1246 1.370 . S
C1247 C1248 1.403 . S
C1248 C1247 1.403 . S
C1248 C1249 1.404 . S
C1248 C1251 1.539 . S
C1249 C1245 1.408 . S
C1249 C1248 1.404 . S
C1249 H1261 0.930 . S
C1250 C1246 1.524 . S
C1250 H1262 0.956 . S
C1250 H1263 0.961 . S
C1250 H1264 0.961 . S
C1251 C1248 1.539 . S
C1251 H1265 0.958 . S
C1251 H1266 0.961 . S
C1251 H1267 0.960 . S
H1252 C1236 0.931 . S
H1253 C1241 0.929 . S
H1254 C1242 0.960 . S
H1255 C1242 0.962 . S
H1256 C1242 0.960 . S
H1257 C1243 0.961 . S
H1258 C1243 0.961 . S
H1259 C1243 0.961 . S
H1260 C1244 0.931 . S
H1261 C1249 0.930 . S
H1262 C1250 0.956 . S
H1263 C1250 0.961 . S
H1264 C1250 0.961 . S
H1265 C1251 0.958 . S
H1266 C1251 0.961 . S
H1267 C1251 0.960 . S
C1268 C1269 1.391 . S
C1268 C1270 1.394 . S
C1268 H1284 0.931 . S
C1269 C1268 1.391 . S
C1269 C1273 1.376 . S
C1270 C1268 1.394 . S
C1270 C1271 1.369 . S
C1270 C1274 1.531 . S
C1271 C1270 1.369 . S
C1271 C1272 1.410 . S
C1271 C1279 1.503 . S
C1272 C1271 1.410 . S
C1272 C1273 1.392 . S
C1272 C1275 1.511 . S
C1273 C1269 1.376 . S
C1273 C1272 1.392 . S
C1273 H1285 0.929 . S
C1274 C1270 1.531 . S
C1274 H1286 0.960 . S
C1274 H1287 0.962 . S
C1274 H1288 0.960 . S
C1275 C1272 1.511 . S
C1275 H1289 0.961 . S
C1275 H1290 0.961 . S
C1275 H1291 0.961 . S
C1276 C1277 1.370 . S
C1276 C1278 1.363 . S
C1276 H1292 0.931 . S
C1277 C1276 1.370 . S
C1277 C1281 1.408 . S
C1278 C1276 1.363 . S
C1278 C1279 1.370 . S
C1278 C1282 1.524 . S
C1279 C1271 1.503 . S
C1279 C1278 1.370 . S
C1279 C1280 1.403 . S
C1280 C1279 1.403 . S
C1280 C1281 1.404 . S
C1280 C1283 1.539 . S
C1281 C1277 1.408 . S
C1281 C1280 1.404 . S
C1281 H1293 0.930 . S
C1282 C1278 1.524 . S
C1282 H1294 0.956 . S
C1282 H1295 0.961 . S
C1282 H1296 0.961 . S
C1283 C1280 1.539 . S
C1283 H1297 0.958 . S
C1283 H1298 0.961 . S
C1283 H1299 0.960 . S
H1284 C1268 0.931 . S
H1285 C1273 0.929 . S
H1286 C1274 0.960 . S
H1287 C1274 0.962 . S
H1288 C1274 0.960 . S
H1289 C1275 0.961 . S
H1290 C1275 0.961 . S
H1291 C1275 0.961 . S
H1292 C1276 0.931 . S
H1293 C1281 0.930 . S
H1294 C1282 0.956 . S
H1295 C1282 0.961 . S
H1296 C1282 0.961 . S
H1297 C1283 0.958 . S
H1298 C1283 0.961 . S
H1299 C1283 0.960 . S
C1300 C1301 1.391 . S
C1300 C1302 1.394 . S
C1300 H1316 0.931 . S
C1301 C1300 1.391 . S
C1301 C1305 1.376 . S
C1302 C1300 1.394 . S
C1302 C1303 1.369 . S
C1302 C1306 1.531 . S
C1303 C1302 1.369 . S
C1303 C1304 1.410 . S
C1303 C1311 1.503 . S
C1304 C1303 1.410 . S
C1304 C1305 1.392 . S
C1304 C1307 1.511 . S
C1305 C1301 1.376 . S
C1305 C1304 1.392 . S
C1305 H1317 0.929 . S
C1306 C1302 1.531 . S
C1306 H1318 0.960 . S
C1306 H1319 0.962 . S
C1306 H1320 0.960 . S
C1307 C1304 1.511 . S
C1307 H1321 0.961 . S
C1307 H1322 0.961 . S
C1307 H1323 0.961 . S
C1308 C1309 1.370 . S
C1308 C1310 1.363 . S
C1308 H1324 0.931 . S
C1309 C1308 1.370 . S
C1309 C1313 1.408 . S
C1310 C1308 1.363 . S
C1310 C1311 1.370 . S
C1310 C1314 1.524 . S
C1311 C1303 1.503 . S
C1311 C1310 1.370 . S
C1311 C1312 1.403 . S
C1312 C1311 1.403 . S
C1312 C1313 1.404 . S
C1312 C1315 1.539 . S
C1313 C1309 1.408 . S
C1313 C1312 1.404 . S
C1313 H1325 0.930 . S
C1314 C1310 1.524 . S
C1314 H1326 0.956 . S
C1314 H1327 0.961 . S
C1314 H1328 0.961 . S
C1315 C1312 1.539 . S
C1315 H1329 0.958 . S
C1315 H1330 0.961 . S
C1315 H1331 0.960 . S
H1316 C1300 0.931 . S
H1317 C1305 0.929 . S
H1318 C1306 0.960 . S
H1319 C1306 0.962 . S
H1320 C1306 0.960 . S
H1321 C1307 0.961 . S
H1322 C1307 0.961 . S
H1323 C1307 0.961 . S
H1324 C1308 0.931 . S
H1325 C1313 0.930 . S
H1326 C1314 0.956 . S
H1327 C1314 0.961 . S
H1328 C1314 0.961 . S
H1329 C1315 0.958 . S
H1330 C1315 0.961 . S
H1331 C1315 0.960 . S
C1332 C1333 1.391 . S
C1332 C1334 1.394 . S
C1332 H1348 0.931 . S
C1333 C1332 1.391 . S
C1333 C1337 1.376 . S
C1334 C1332 1.394 . S
C1334 C1335 1.369 . S
C1334 C1338 1.531 . S
C1335 C1334 1.369 . S
C1335 C1336 1.410 . S
C1335 C1343 1.503 . S
C1336 C1335 1.410 . S
C1336 C1337 1.392 . S
C1336 C1339 1.511 . S
C1337 C1333 1.376 . S
C1337 C1336 1.392 . S
C1337 H1349 0.929 . S
C1338 C1334 1.531 . S
C1338 H1350 0.960 . S
C1338 H1351 0.962 . S
C1338 H1352 0.960 . S
C1339 C1336 1.511 . S
C1339 H1353 0.961 . S
C1339 H1354 0.961 . S
C1339 H1355 0.961 . S
C1340 C1341 1.370 . S
C1340 C1342 1.363 . S
C1340 H1356 0.931 . S
C1341 C1340 1.370 . S
C1341 C1345 1.408 . S
C1342 C1340 1.363 . S
C1342 C1343 1.370 . S
C1342 C1346 1.524 . S
C1343 C1335 1.503 . S
C1343 C1342 1.370 . S
C1343 C1344 1.403 . S
C1344 C1343 1.403 . S
C1344 C1345 1.404 . S
C1344 C1347 1.539 . S
C1345 C1341 1.408 . S
C1345 C1344 1.404 . S
C1345 H1357 0.930 . S
C1346 C1342 1.524 . S
C1346 H1358 0.956 . S
C1346 H1359 0.961 . S
C1346 H1360 0.961 . S
C1347 C1344 1.539 . S
C1347 H1361 0.958 . S
C1347 H1362 0.961 . S
C1347 H1363 0.960 . S
H1348 C1332 0.931 . S
H1349 C1337 0.929 . S
H1350 C1338 0.960 . S
H1351 C1338 0.962 . S
H1352 C1338 0.960 . S
H1353 C1339 0.961 . S
H1354 C1339 0.961 . S
H1355 C1339 0.961 . S
H1356 C1340 0.931 . S
H1357 C1345 0.930 . S
H1358 C1346 0.956 . S
H1359 C1346 0.961 . S
H1360 C1346 0.961 . S
H1361 C1347 0.958 . S
H1362 C1347 0.961 . S
H1363 C1347 0.960 . S
C1364 C1365 1.391 . S
C1364 C1366 1.394 . S
C1364 H1380 0.931 . S
C1365 C1364 1.391 . S
C1365 C1369 1.376 . S
C1366 C1364 1.394 . S
C1366 C1367 1.369 . S
C1366 C1370 1.531 . S
C1367 C1366 1.369 . S
C1367 C1368 1.410 . S
C1367 C1375 1.503 . S
C1368 C1367 1.410 . S
C1368 C1369 1.392 . S
C1368 C1371 1.511 . S
C1369 C1365 1.376 . S
C1369 C1368 1.392 . S
C1369 H1381 0.929 . S
C1370 C1366 1.531 . S
C1370 H1382 0.960 . S
C1370 H1383 0.962 . S
C1370 H1384 0.960 . S
C1371 C1368 1.511 . S
C1371 H1385 0.961 . S
C1371 H1386 0.961 . S
C1371 H1387 0.961 . S
C1372 C1373 1.370 . S
C1372 C1374 1.363 . S
C1372 H1388 0.931 . S
C1373 C1372 1.370 . S
C1373 C1377 1.408 . S
C1374 C1372 1.363 . S
C1374 C1375 1.370 . S
C1374 C1378 1.524 . S
C1375 C1367 1.503 . S
C1375 C1374 1.370 . S
C1375 C1376 1.403 . S
C1376 C1375 1.403 . S
C1376 C1377 1.404 . S
C1376 C1379 1.539 . S
C1377 C1373 1.408 . S
C1377 C1376 1.404 . S
C1377 H1389 0.930 . S
C1378 C1374 1.524 . S
C1378 H1390 0.956 . S
C1378 H1391 0.961 . S
C1378 H1392 0.961 . S
C1379 C1376 1.539 . S
C1379 H1393 0.958 . S
C1379 H1394 0.961 . S
C1379 H1395 0.960 . S
H1380 C1364 0.931 . S
H1381 C1369 0.929 . S
H1382 C1370 0.960 . S
H1383 C1370 0.962 . S
H1384 C1370 0.960 . S
H1385 C1371 0.961 . S
H1386 C1371 0.961 . S
H1387 C1371 0.961 . S
H1388 C1372 0.931 . S
H1389 C1377 0.930 . S
H1390 C1378 0.956 . S
H1391 C1378 0.961 . S
H1392 C1378 0.961 . S
H1393 C1379 0.958 . S
H1394 C1379 0.961 . S
H1395 C1379 0.960 . S
C1396 C1397 1.391 . S
C1396 C1398 1.394 . S
C1396 H1412 0.931 . S
C1397 C1396 1.391 . S
C1397 C1401 1.376 . S
C1398 C1396 1.394 . S
C1398 C1399 1.369 . S
C1398 C1402 1.531 . S
C1399 C1398 1.369 . S
C1399 C1400 1.410 . S
C1399 C1407 1.503 . S
C1400 C1399 1.410 . S
C1400 C1401 1.392 . S
C1400 C1403 1.511 . S
C1401 C1397 1.376 . S
C1401 C1400 1.392 . S
C1401 H1413 0.929 . S
C1402 C1398 1.531 . S
C1402 H1414 0.960 . S
C1402 H1415 0.962 . S
C1402 H1416 0.960 . S
C1403 C1400 1.511 . S
C1403 H1417 0.961 . S
C1403 H1418 0.961 . S
C1403 H1419 0.961 . S
C1404 C1405 1.370 . S
C1404 C1406 1.363 . S
C1404 H1420 0.931 . S
C1405 C1404 1.370 . S
C1405 C1409 1.408 . S
C1406 C1404 1.363 . S
C1406 C1407 1.370 . S
C1406 C1410 1.524 . S
C1407 C1399 1.503 . S
C1407 C1406 1.370 . S
C1407 C1408 1.403 . S
C1408 C1407 1.403 . S
C1408 C1409 1.404 . S
C1408 C1411 1.539 . S
C1409 C1405 1.408 . S
C1409 C1408 1.404 . S
C1409 H1421 0.930 . S
C1410 C1406 1.524 . S
C1410 H1422 0.956 . S
C1410 H1423 0.961 . S
C1410 H1424 0.961 . S
C1411 C1408 1.539 . S
C1411 H1425 0.958 . S
C1411 H1426 0.961 . S
C1411 H1427 0.960 . S
H1412 C1396 0.931 . S
H1413 C1401 0.929 . S
H1414 C1402 0.960 . S
H1415 C1402 0.962 . S
H1416 C1402 0.960 . S
H1417 C1403 0.961 . S
H1418 C1403 0.961 . S
H1419 C1403 0.961 . S
H1420 C1404 0.931 . S
H1421 C1409 0.930 . S
H1422 C1410 0.956 . S
H1423 C1410 0.961 . S
H1424 C1410 0.961 . S
H1425 C1411 0.958 . S
H1426 C1411 0.961 . S
H1427 C1411 0.960 . S
C1428 C1429 1.391 . S
C1428 C1430 1.394 . S
C1428 H1444 0.931 . S
C1429 C1428 1.391 . S
C1429 C1433 1.376 . S
C1430 C1428 1.394 . S
C1430 C1431 1.369 . S
C1430 C1434 1.531 . S
C1431 C1430 1.369 . S
C1431 C1432 1.410 . S
C1431 C1439 1.503 . S
C1432 C1431 1.410 . S
C1432 C1433 1.392 . S
C1432 C1435 1.511 . S
C1433 C1429 1.376 . S
C1433 C1432 1.392 . S
C1433 H1445 0.929 . S
C1434 C1430 1.531 . S
C1434 H1446 0.960 . S
C1434 H1447 0.962 . S
C1434 H1448 0.960 . S
C1435 C1432 1.511 . S
C1435 H1449 0.961 . S
C1435 H1450 0.961 . S
C1435 H1451 0.961 . S
C1436 C1437 1.370 . S
C1436 C1438 1.363 . S
C1436 H1452 0.931 . S
C1437 C1436 1.370 . S
C1437 C1441 1.408 . S
C1438 C1436 1.363 . S
C1438 C1439 1.370 . S
C1438 C1442 1.524 . S
C1439 C1431 1.503 . S
C1439 C1438 1.370 . S
C1439 C1440 1.403 . S
C1440 C1439 1.403 . S
C1440 C1441 1.404 . S
C1440 C1443 1.539 . S
C1441 C1437 1.408 . S
C1441 C1440 1.404 . S
C1441 H1453 0.930 . S
C1442 C1438 1.524 . S
C1442 H1454 0.956 . S
C1442 H1455 0.961 . S
C1442 H1456 0.961 . S
C1443 C1440 1.539 . S
C1443 H1457 0.958 . S
C1443 H1458 0.961 . S
C1443 H1459 0.960 . S
H1444 C1428 0.931 . S
H1445 C1433 0.929 . S
H1446 C1434 0.960 . S
H1447 C1434 0.962 . S
H1448 C1434 0.960 . S
H1449 C1435 0.961 . S
H1450 C1435 0.961 . S
H1451 C1435 0.961 . S
H1452 C1436 0.931 . S
H1453 C1441 0.930 . S
H1454 C1442 0.956 . S
H1455 C1442 0.961 . S
H1456 C1442 0.961 . S
H1457 C1443 0.958 . S
H1458 C1443 0.961 . S
H1459 C1443 0.960 . S
C1460 C1461 1.391 . S
C1460 C1462 1.394 . S
C1460 H1476 0.931 . S
C1461 C1460 1.391 . S
C1461 C1465 1.376 . S
C1462 C1460 1.394 . S
C1462 C1463 1.369 . S
C1462 C1466 1.531 . S
C1463 C1462 1.369 . S
C1463 C1464 1.410 . S
C1463 C1471 1.503 . S
C1464 C1463 1.410 . S
C1464 C1465 1.392 . S
C1464 C1467 1.511 . S
C1465 C1461 1.376 . S
C1465 C1464 1.392 . S
C1465 H1477 0.929 . S
C1466 C1462 1.531 . S
C1466 H1478 0.960 . S
C1466 H1479 0.962 . S
C1466 H1480 0.960 . S
C1467 C1464 1.511 . S
C1467 H1481 0.961 . S
C1467 H1482 0.961 . S
C1467 H1483 0.961 . S
C1468 C1469 1.370 . S
C1468 C1470 1.363 . S
C1468 H1484 0.931 . S
C1469 C1468 1.370 . S
C1469 C1473 1.408 . S
C1470 C1468 1.363 . S
C1470 C1471 1.370 . S
C1470 C1474 1.524 . S
C1471 C1463 1.503 . S
C1471 C1470 1.370 . S
C1471 C1472 1.403 . S
C1472 C1471 1.403 . S
C1472 C1473 1.404 . S
C1472 C1475 1.539 . S
C1473 C1469 1.408 . S
C1473 C1472 1.404 . S
C1473 H1485 0.930 . S
C1474 C1470 1.524 . S
C1474 H1486 0.956 . S
C1474 H1487 0.961 . S
C1474 H1488 0.961 . S
C1475 C1472 1.539 . S
C1475 H1489 0.958 . S
C1475 H1490 0.961 . S
C1475 H1491 0.960 . S
H1476 C1460 0.931 . S
H1477 C1465 0.929 . S
H1478 C1466 0.960 . S
H1479 C1466 0.962 . S
H1480 C1466 0.960 . S
H1481 C1467 0.961 . S
H1482 C1467 0.961 . S
H1483 C1467 0.961 . S
H1484 C1468 0.931 . S
H1485 C1473 0.930 . S
H1486 C1474 0.956 . S
H1487 C1474 0.961 . S
H1488 C1474 0.961 . S
H1489 C1475 0.958 . S
H1490 C1475 0.961 . S
H1491 C1475 0.960 . S
C1492 C1493 1.391 . S
C1492 C1494 1.394 . S
C1492 H1508 0.931 . S
C1493 C1492 1.391 . S
C1493 C1497 1.376 . S
C1494 C1492 1.394 . S
C1494 C1495 1.369 . S
C1494 C1498 1.531 . S
C1495 C1494 1.369 . S
C1495 C1496 1.410 . S
C1495 C1503 1.503 . S
C1496 C1495 1.410 . S
C1496 C1497 1.392 . S
C1496 C1499 1.511 . S
C1497 C1493 1.376 . S
C1497 C1496 1.392 . S
C1497 H1509 0.929 . S
C1498 C1494 1.531 . S
C1498 H1510 0.960 . S
C1498 H1511 0.962 . S
C1498 H1512 0.960 . S
C1499 C1496 1.511 . S
C1499 H1513 0.961 . S
C1499 H1514 0.961 . S
C1499 H1515 0.961 . S
C1500 C1501 1.370 . S
C1500 C1502 1.363 . S
C1500 H1516 0.931 . S
C1501 C1500 1.370 . S
C1501 C1505 1.408 . S
C1502 C1500 1.363 . S
C1502 C1503 1.370 . S
C1502 C1506 1.524 . S
C1503 C1495 1.503 . S
C1503 C1502 1.370 . S
C1503 C1504 1.403 . S
C1504 C1503 1.403 . S
C1504 C1505 1.404 . S
C1504 C1507 1.539 . S
C1505 C1501 1.408 . S
C1505 C1504 1.404 . S
C1505 H1517 0.930 . S
C1506 C1502 1.524 . S
C1506 H1518 0.956 . S
C1506 H1519 0.961 . S
C1506 H1520 0.961 . S
C1507 C1504 1.539 . S
C1507 H1521 0.958 . S
C1507 H1522 0.961 . S
C1507 H1523 0.960 . S
H1508 C1492 0.931 . S
H1509 C1497 0.929 . S
H1510 C1498 0.960 . S
H1511 C1498 0.962 . S
H1512 C1498 0.960 . S
H1513 C1499 0.961 . S
H1514 C1499 0.961 . S
H1515 C1499 0.961 . S
H1516 C1500 0.931 . S
H1517 C1505 0.930 . S
H1518 C1506 0.956 . S
H1519 C1506 0.961 . S
H1520 C1506 0.961 . S
H1521 C1507 0.958 . S
H1522 C1507 0.961 . S
H1523 C1507 0.960 . S
C1524 C1525 1.391 . S
C1524 C1526 1.394 . S
C1524 H1540 0.931 . S
C1525 C1524 1.391 . S
C1525 C1529 1.376 . S
C1526 C1524 1.394 . S
C1526 C1527 1.369 . S
C1526 C1530 1.531 . S
C1527 C1526 1.369 . S
C1527 C1528 1.410 . S
C1527 C1535 1.503 . S
C1528 C1527 1.410 . S
C1528 C1529 1.392 . S
C1528 C1531 1.511 . S
C1529 C1525 1.376 . S
C1529 C1528 1.392 . S
C1529 H1541 0.929 . S
C1530 C1526 1.531 . S
C1530 H1542 0.960 . S
C1530 H1543 0.962 . S
C1530 H1544 0.960 . S
C1531 C1528 1.511 . S
C1531 H1545 0.961 . S
C1531 H1546 0.961 . S
C1531 H1547 0.961 . S
C1532 C1533 1.370 . S
C1532 C1534 1.363 . S
C1532 H1548 0.931 . S
C1533 C1532 1.370 . S
C1533 C1537 1.408 . S
C1534 C1532 1.363 . S
C1534 C1535 1.370 . S
C1534 C1538 1.524 . S
C1535 C1527 1.503 . S
C1535 C1534 1.370 . S
C1535 C1536 1.403 . S
C1536 C1535 1.403 . S
C1536 C1537 1.404 . S
C1536 C1539 1.539 . S
C1537 C1533 1.408 . S
C1537 C1536 1.404 . S
C1537 H1549 0.930 . S
C1538 C1534 1.524 . S
C1538 H1550 0.956 . S
C1538 H1551 0.961 . S
C1538 H1552 0.961 . S
C1539 C1536 1.539 . S
C1539 H1553 0.958 . S
C1539 H1554 0.961 . S
C1539 H1555 0.960 . S
H1540 C1524 0.931 . S
H1541 C1529 0.929 . S
H1542 C1530 0.960 . S
H1543 C1530 0.962 . S
H1544 C1530 0.960 . S
H1545 C1531 0.961 . S
H1546 C1531 0.961 . S
H1547 C1531 0.961 . S
H1548 C1532 0.931 . S
H1549 C1537 0.930 . S
H1550 C1538 0.956 . S
H1551 C1538 0.961 . S
H1552 C1538 0.961 . S
H1553 C1539 0.958 . S
H1554 C1539 0.961 . S
H1555 C1539 0.960 . S
C1556 C1557 1.391 . S
C1556 C1558 1.394 . S
C1556 H1572 0.931 . S
C1557 C1556 1.391 . S
C1557 C1561 1.376 . S
C1558 C1556 1.394 . S
C1558 C1559 1.369 . S
C1558 C1562 1.531 . S
C1559 C1558 1.369 . S
C1559 C1560 1.410 . S
C1559 C1567 1.503 . S
C1560 C1559 1.410 . S
C1560 C1561 1.392 . S
C1560 C1563 1.511 . S
C1561 C1557 1.376 . S
C1561 C1560 1.392 . S
C1561 H1573 0.929 . S
C1562 C1558 1.531 . S
C1562 H1574 0.960 . S
C1562 H1575 0.962 . S
C1562 H1576 0.960 . S
C1563 C1560 1.511 . S
C1563 H1577 0.961 . S
C1563 H1578 0.961 . S
C1563 H1579 0.961 . S
C1564 C1565 1.370 . S
C1564 C1566 1.363 . S
C1564 H1580 0.931 . S
C1565 C1564 1.370 . S
C1565 C1569 1.408 . S
C1566 C1564 1.363 . S
C1566 C1567 1.370 . S
C1566 C1570 1.524 . S
C1567 C1559 1.503 . S
C1567 C1566 1.370 . S
C1567 C1568 1.403 . S
C1568 C1567 1.403 . S
C1568 C1569 1.404 . S
C1568 C1571 1.539 . S
C1569 C1565 1.408 . S
C1569 C1568 1.404 . S
C1569 H1581 0.930 . S
C1570 C1566 1.524 . S
C1570 H1582 0.956 . S
C1570 H1583 0.961 . S
C1570 H1584 0.961 . S
C1571 C1568 1.539 . S
C1571 H1585 0.958 . S
C1571 H1586 0.961 . S
C1571 H1587 0.960 . S
H1572 C1556 0.931 . S
H1573 C1561 0.929 . S
H1574 C1562 0.960 . S
H1575 C1562 0.962 . S
H1576 C1562 0.960 . S
H1577 C1563 0.961 . S
H1578 C1563 0.961 . S
H1579 C1563 0.961 . S
H1580 C1564 0.931 . S
H1581 C1569 0.930 . S
H1582 C1570 0.956 . S
H1583 C1570 0.961 . S
H1584 C1570 0.961 . S
H1585 C1571 0.958 . S
H1586 C1571 0.961 . S
H1587 C1571 0.960 . S
C1588 C1589 1.391 . S
C1588 C1590 1.394 . S
C1588 H1604 0.931 . S
C1589 C1588 1.391 . S
C1589 C1593 1.376 . S
C1590 C1588 1.394 . S
C1590 C1591 1.369 . S
C1590 C1594 1.531 . S
C1591 C1590 1.369 . S
C1591 C1592 1.410 . S
C1591 C1599 1.503 . S
C1592 C1591 1.410 . S
C1592 C1593 1.392 . S
C1592 C1595 1.511 . S
C1593 C1589 1.376 . S
C1593 C1592 1.392 . S
C1593 H1605 0.929 . S
C1594 C1590 1.531 . S
C1594 H1606 0.960 . S
C1594 H1607 0.962 . S
C1594 H1608 0.960 . S
C1595 C1592 1.511 . S
C1595 H1609 0.961 . S
C1595 H1610 0.961 . S
C1595 H1611 0.961 . S
C1596 C1597 1.370 . S
C1596 C1598 1.363 . S
C1596 H1612 0.931 . S
C1597 C1596 1.370 . S
C1597 C1601 1.408 . S
C1598 C1596 1.363 . S
C1598 C1599 1.370 . S
C1598 C1602 1.524 . S
C1599 C1591 1.503 . S
C1599 C1598 1.370 . S
C1599 C1600 1.403 . S
C1600 C1599 1.403 . S
C1600 C1601 1.404 . S
C1600 C1603 1.539 . S
C1601 C1597 1.408 . S
C1601 C1600 1.404 . S
C1601 H1613 0.930 . S
C1602 C1598 1.524 . S
C1602 H1614 0.956 . S
C1602 H1615 0.961 . S
C1602 H1616 0.961 . S
C1603 C1600 1.539 . S
C1603 H1617 0.958 . S
C1603 H1618 0.961 . S
C1603 H1619 0.960 . S
H1604 C1588 0.931 . S
H1605 C1593 0.929 . S
H1606 C1594 0.960 . S
H1607 C1594 0.962 . S
H1608 C1594 0.960 . S
H1609 C1595 0.961 . S
H1610 C1595 0.961 . S
H1611 C1595 0.961 . S
H1612 C1596 0.931 . S
H1613 C1601 0.930 . S
H1614 C1602 0.956 . S
H1615 C1602 0.961 . S
H1616 C1602 0.961 . S
H1617 C1603 0.958 . S
H1618 C1603 0.961 . S
H1619 C1603 0.960 . S
C1620 C1621 1.391 . S
C1620 C1622 1.394 . S
C1620 H1636 0.931 . S
C1621 C1620 1.391 . S
C1621 C1625 1.376 . S
C1622 C1620 1.394 . S
C1622 C1623 1.369 . S
C1622 C1626 1.531 . S
C1623 C1622 1.369 . S
C1623 C1624 1.410 . S
C1623 C1631 1.503 . S
C1624 C1623 1.410 . S
C1624 C1625 1.392 . S
C1624 C1627 1.511 . S
C1625 C1621 1.376 . S
C1625 C1624 1.392 . S
C1625 H1637 0.929 . S
C1626 C1622 1.531 . S
C1626 H1638 0.960 . S
C1626 H1639 0.962 . S
C1626 H1640 0.960 . S
C1627 C1624 1.511 . S
C1627 H1641 0.961 . S
C1627 H1642 0.961 . S
C1627 H1643 0.961 . S
C1628 C1629 1.370 . S
C1628 C1630 1.363 . S
C1628 H1644 0.931 . S
C1629 C1628 1.370 . S
C1629 C1633 1.408 . S
C1630 C1628 1.363 . S
C1630 C1631 1.370 . S
C1630 C1634 1.524 . S
C1631 C1623 1.503 . S
C1631 C1630 1.370 . S
C1631 C1632 1.403 . S
C1632 C1631 1.403 . S
C1632 C1633 1.404 . S
C1632 C1635 1.539 . S
C1633 C1629 1.408 . S
C1633 C1632 1.404 . S
C1633 H1645 0.930 . S
C1634 C1630 1.524 . S
C1634 H1646 0.956 . S
C1634 H1647 0.961 . S
C1634 H1648 0.961 . S
C1635 C1632 1.539 . S
C1635 H1649 0.958 . S
C1635 H1650 0.961 . S
C1635 H1651 0.960 . S
H1636 C1620 0.931 . S
H1637 C1625 0.929 . S
H1638 C1626 0.960 . S
H1639 C1626 0.962 . S
H1640 C1626 0.960 . S
H1641 C1627 0.961 . S
H1642 C1627 0.961 . S
H1643 C1627 0.961 . S
H1644 C1628 0.931 . S
H1645 C1633 0.930 . S
H1646 C1634 0.956 . S
H1647 C1634 0.961 . S
H1648 C1634 0.961 . S
H1649 C1635 0.958 . S
H1650 C1635 0.961 . S
H1651 C1635 0.960 . S
C1652 C1653 1.391 . S
C1652 C1654 1.394 . S
C1652 H1668 0.931 . S
C1653 C1652 1.391 . S
C1653 C1657 1.376 . S
C1654 C1652 1.394 . S
C1654 C1655 1.369 . S
C1654 C1658 1.531 . S
C1655 C1654 1.369 . S
C1655 C1656 1.410 . S
C1655 C1663 1.503 . S
C1656 C1655 1.410 . S
C1656 C1657 1.392 . S
C1656 C1659 1.511 . S
C1657 C1653 1.376 . S
C1657 C1656 1.392 . S
C1657 H1669 0.929 . S
C1658 C1654 1.531 . S
C1658 H1670 0.960 . S
C1658 H1671 0.962 . S
C1658 H1672 0.960 . S
C1659 C1656 1.511 . S
C1659 H1673 0.961 . S
C1659 H1674 0.961 . S
C1659 H1675 0.961 . S
C1660 C1661 1.370 . S
C1660 C1662 1.363 . S
C1660 H1676 0.931 . S
C1661 C1660 1.370 . S
C1661 C1665 1.408 . S
C1662 C1660 1.363 . S
C1662 C1663 1.370 . S
C1662 C1666 1.524 . S
C1663 C1655 1.503 . S
C1663 C1662 1.370 . S
C1663 C1664 1.403 . S
C1664 C1663 1.403 . S
C1664 C1665 1.404 . S
C1664 C1667 1.539 . S
C1665 C1661 1.408 . S
C1665 C1664 1.404 . S
C1665 H1677 0.930 . S
C1666 C1662 1.524 . S
C1666 H1678 0.956 . S
C1666 H1679 0.961 . S
C1666 H1680 0.961 . S
C1667 C1664 1.539 . S
C1667 H1681 0.958 . S
C1667 H1682 0.961 . S
C1667 H1683 0.960 . S
H1668 C1652 0.931 . S
H1669 C1657 0.929 . S
H1670 C1658 0.960 . S
H1671 C1658 0.962 . S
H1672 C1658 0.960 . S
H1673 C1659 0.961 . S
H1674 C1659 0.961 . S
H1675 C1659 0.961 . S
H1676 C1660 0.931 . S
H1677 C1665 0.930 . S
H1678 C1666 0.956 . S
H1679 C1666 0.961 . S
H1680 C1666 0.961 . S
H1681 C1667 0.958 . S
H1682 C1667 0.961 . S
H1683 C1667 0.960 . S
C1684 C1685 1.391 . S
C1684 C1686 1.394 . S
C1684 H1700 0.931 . S
C1685 C1684 1.391 . S
C1685 C1689 1.376 . S
C1686 C1684 1.394 . S
C1686 C1687 1.369 . S
C1686 C1690 1.531 . S
C1687 C1686 1.369 . S
C1687 C1688 1.410 . S
C1687 C1695 1.503 . S
C1688 C1687 1.410 . S
C1688 C1689 1.392 . S
C1688 C1691 1.511 . S
C1689 C1685 1.376 . S
C1689 C1688 1.392 . S
C1689 H1701 0.929 . S
C1690 C1686 1.531 . S
C1690 H1702 0.960 . S
C1690 H1703 0.962 . S
C1690 H1704 0.960 . S
C1691 C1688 1.511 . S
C1691 H1705 0.961 . S
C1691 H1706 0.961 . S
C1691 H1707 0.961 . S
C1692 C1693 1.370 . S
C1692 C1694 1.363 . S
C1692 H1708 0.931 . S
C1693 C1692 1.370 . S
C1693 C1697 1.408 . S
C1694 C1692 1.363 . S
C1694 C1695 1.370 . S
C1694 C1698 1.524 . S
C1695 C1687 1.503 . S
C1695 C1694 1.370 . S
C1695 C1696 1.403 . S
C1696 C1695 1.403 . S
C1696 C1697 1.404 . S
C1696 C1699 1.539 . S
C1697 C1693 1.408 . S
C1697 C1696 1.404 . S
C1697 H1709 0.930 . S
C1698 C1694 1.524 . S
C1698 H1710 0.956 . S
C1698 H1711 0.961 . S
C1698 H1712 0.961 . S
C1699 C1696 1.539 . S
C1699 H1713 0.958 . S
C1699 H1714 0.961 . S
C1699 H1715 0.960 . S
H1700 C1684 0.931 . S
H1701 C1689 0.929 . S
H1702 C1690 0.960 . S
H1703 C1690 0.962 . S
H1704 C1690 0.960 . S
H1705 C1691 0.961 . S
H1706 C1691 0.961 . S
H1707 C1691 0.961 . S
H1708 C1692 0.931 . S
H1709 C1697 0.930 . S
H1710 C1698 0.956 . S
H1711 C1698 0.961 . S
H1712 C1698 0.961 . S
H1713 C1699 0.958 . S
H1714 C1699 0.961 . S
H1715 C1699 0.960 . S
C1716 C1717 1.391 . S
C1716 C1718 1.394 . S
C1716 H1732 0.931 . S
C1717 C1716 1.391 . S
C1717 C1721 1.376 . S
C1718 C1716 1.394 . S
C1718 C1719 1.369 . S
C1718 C1722 1.531 . S
C1719 C1718 1.369 . S
C1719 C1720 1.410 . S
C1719 C1727 1.503 . S
C1720 C1719 1.410 . S
C1720 C1721 1.392 . S
C1720 C1723 1.511 . S
C1721 C1717 1.376 . S
C1721 C1720 1.392 . S
C1721 H1733 0.929 . S
C1722 C1718 1.531 . S
C1722 H1734 0.960 . S
C1722 H1735 0.962 . S
C1722 H1736 0.960 . S
C1723 C1720 1.511 . S
C1723 H1737 0.961 . S
C1723 H1738 0.961 . S
C1723 H1739 0.961 . S
C1724 C1725 1.370 . S
C1724 C1726 1.363 . S
C1724 H1740 0.931 . S
C1725 C1724 1.370 . S
C1725 C1729 1.408 . S
C1726 C1724 1.363 . S
C1726 C1727 1.370 . S
C1726 C1730 1.524 . S
C1727 C1719 1.503 . S
C1727 C1726 1.370 . S
C1727 C1728 1.403 . S
C1728 C1727 1.403 . S
C1728 C1729 1.404 . S
C1728 C1731 1.539 . S
C1729 C1725 1.408 . S
C1729 C1728 1.404 . S
C1729 H1741 0.930 . S
C1730 C1726 1.524 . S
C1730 H1742 0.956 . S
C1730 H1743 0.961 . S
C1730 H1744 0.961 . S
C1731 C1728 1.539 . S
C1731 H1745 0.958 . S
C1731 H1746 0.961 . S
C1731 H1747 0.960 . S
H1732 C1716 0.931 . S
H1733 C1721 0.929 . S
H1734 C1722 0.960 . S
H1735 C1722 0.962 . S
H1736 C1722 0.960 . S
H1737 C1723 0.961 . S
H1738 C1723 0.961 . S
H1739 C1723 0.961 . S
H1740 C1724 0.931 . S
H1741 C1729 0.930 . S
H1742 C1730 0.956 . S
H1743 C1730 0.961 . S
H1744 C1730 0.961 . S
H1745 C1731 0.958 . S
H1746 C1731 0.961 . S
H1747 C1731 0.960 . S
C1748 C1749 1.391 . S
C1748 C1750 1.394 . S
C1748 H1764 0.931 . S
C1749 C1748 1.391 . S
C1749 C1753 1.376 . S
C1750 C1748 1.394 . S
C1750 C1751 1.369 . S
C1750 C1754 1.531 . S
C1751 C1750 1.369 . S
C1751 C1752 1.410 . S
C1751 C1759 1.503 . S
C1752 C1751 1.410 . S
C1752 C1753 1.392 . S
C1752 C1755 1.511 . S
C1753 C1749 1.376 . S
C1753 C1752 1.392 . S
C1753 H1765 0.929 . S
C1754 C1750 1.531 . S
C1754 H1766 0.960 . S
C1754 H1767 0.962 . S
C1754 H1768 0.960 . S
C1755 C1752 1.511 . S
C1755 H1769 0.961 . S
C1755 H1770 0.961 . S
C1755 H1771 0.961 . S
C1756 C1757 1.370 . S
C1756 C1758 1.363 . S
C1756 H1772 0.931 . S
C1757 C1756 1.370 . S
C1757 C1761 1.408 . S
C1758 C1756 1.363 . S
C1758 C1759 1.370 . S
C1758 C1762 1.524 . S
C1759 C1751 1.503 . S
C1759 C1758 1.370 . S
C1759 C1760 1.403 . S
C1760 C1759 1.403 . S
C1760 C1761 1.404 . S
C1760 C1763 1.539 . S
C1761 C1757 1.408 . S
C1761 C1760 1.404 . S
C1761 H1773 0.930 . S
C1762 C1758 1.524 . S
C1762 H1774 0.956 . S
C1762 H1775 0.961 . S
C1762 H1776 0.961 . S
C1763 C1760 1.539 . S
C1763 H1777 0.958 . S
C1763 H1778 0.961 . S
C1763 H1779 0.960 . S
H1764 C1748 0.931 . S
H1765 C1753 0.929 . S
H1766 C1754 0.960 . S
H1767 C1754 0.962 . S
H1768 C1754 0.960 . S
H1769 C1755 0.961 . S
H1770 C1755 0.961 . S
H1771 C1755 0.961 . S
H1772 C1756 0.931 . S
H1773 C1761 0.930 . S
H1774 C1762 0.956 . S
H1775 C1762 0.961 . S
H1776 C1762 0.961 . S
H1777 C1763 0.958 . S
H1778 C1763 0.961 . S
H1779 C1763 0.960 . S
C1780 C1781 1.391 . S
C1780 C1782 1.394 . S
C1780 H1796 0.931 . S
C1781 C1780 1.391 . S
C1781 C1785 1.376 . S
C1782 C1780 1.394 . S
C1782 C1783 1.369 . S
C1782 C1786 1.531 . S
C1783 C1782 1.369 . S
C1783 C1784 1.410 . S
C1783 C1791 1.503 . S
C1784 C1783 1.410 . S
C1784 C1785 1.392 . S
C1784 C1787 1.511 . S
C1785 C1781 1.376 . S
C1785 C1784 1.392 . S
C1785 H1797 0.929 . S
C1786 C1782 1.531 . S
C1786 H1798 0.960 . S
C1786 H1799 0.962 . S
C1786 H1800 0.960 . S
C1787 C1784 1.511 . S
C1787 H1801 0.961 . S
C1787 H1802 0.961 . S
C1787 H1803 0.961 . S
C1788 C1789 1.370 . S
C1788 C1790 1.363 . S
C1788 H1804 0.931 . S
C1789 C1788 1.370 . S
C1789 C1793 1.408 . S
C1790 C1788 1.363 . S
C1790 C1791 1.370 . S
C1790 C1794 1.524 . S
C1791 C1783 1.503 . S
C1791 C1790 1.370 . S
C1791 C1792 1.403 . S
C1792 C1791 1.403 . S
C1792 C1793 1.404 . S
C1792 C1795 1.539 . S
C1793 C1789 1.408 . S
C1793 C1792 1.404 . S
C1793 H1805 0.930 . S
C1794 C1790 1.524 . S
C1794 H1806 0.956 . S
C1794 H1807 0.961 . S
C1794 H1808 0.961 . S
C1795 C1792 1.539 . S
C1795 H1809 0.958 . S
C1795 H1810 0.961 . S
C1795 H1811 0.960 . S
H1796 C1780 0.931 . S
H1797 C1785 0.929 . S
H1798 C1786 0.960 . S
H1799 C1786 0.962 . S
H1800 C1786 0.960 . S
H1801 C1787 0.961 . S
H1802 C1787 0.961 . S
H1803 C1787 0.961 . S
H1804 C1788 0.931 . S
H1805 C1793 0.930 . S
H1806 C1794 0.956 . S
H1807 C1794 0.961 . S
H1808 C1794 0.961 . S
H1809 C1795 0.958 . S
H1810 C1795 0.961 . S
H1811 C1795 0.960 . S
C1812 C1813 1.391 . S
C1812 C1814 1.394 . S
C1812 H1828 0.931 . S
C1813 C1812 1.391 . S
C1813 C1817 1.376 . S
C1814 C1812 1.394 . S
C1814 C1815 1.369 . S
C1814 C1818 1.531 . S
C1815 C1814 1.369 . S
C1815 C1816 1.410 . S
C1815 C1823 1.503 . S
C1816 C1815 1.410 . S
C1816 C1817 1.392 . S
C1816 C1819 1.511 . S
C1817 C1813 1.376 . S
C1817 C1816 1.392 . S
C1817 H1829 0.929 . S
C1818 C1814 1.531 . S
C1818 H1830 0.960 . S
C1818 H1831 0.962 . S
C1818 H1832 0.960 . S
C1819 C1816 1.511 . S
C1819 H1833 0.961 . S
C1819 H1834 0.961 . S
C1819 H1835 0.961 . S
C1820 C1821 1.370 . S
C1820 C1822 1.363 . S
C1820 H1836 0.931 . S
C1821 C1820 1.370 . S
C1821 C1825 1.408 . S
C1822 C1820 1.363 . S
C1822 C1823 1.370 . S
C1822 C1826 1.524 . S
C1823 C1815 1.503 . S
C1823 C1822 1.370 . S
C1823 C1824 1.403 . S
C1824 C1823 1.403 . S
C1824 C1825 1.404 . S
C1824 C1827 1.539 . S
C1825 C1821 1.408 . S
C1825 C1824 1.404 . S
C1825 H1837 0.930 . S
C1826 C1822 1.524 . S
C1826 H1838 0.956 . S
C1826 H1839 0.961 . S
C1826 H1840 0.961 . S
C1827 C1824 1.539 . S
C1827 H1841 0.958 . S
C1827 H1842 0.961 . S
C1827 H1843 0.960 . S
H1828 C1812 0.931 . S
H1829 C1817 0.929 . S
H1830 C1818 0.960 . S
H1831 C1818 0.962 . S
H1832 C1818 0.960 . S
H1833 C1819 0.961 . S
H1834 C1819 0.961 . S
H1835 C1819 0.961 . S
H1836 C1820 0.931 . S
H1837 C1825 0.930 . S
H1838 C1826 0.956 . S
H1839 C1826 0.961 . S
H1840 C1826 0.961 . S
H1841 C1827 0.958 . S
H1842 C1827 0.961 . S
H1843 C1827 0.960 . S
C1844 C1845 1.391 . S
C1844 C1846 1.394 . S
C1844 H1860 0.931 . S
C1845 C1844 1.391 . S
C1845 C1849 1.376 . S
C1846 C1844 1.394 . S
C1846 C1847 1.369 . S
C1846 C1850 1.531 . S
C1847 C1846 1.369 . S
C1847 C1848 1.410 . S
C1847 C1855 1.503 . S
C1848 C1847 1.410 . S
C1848 C1849 1.392 . S
C1848 C1851 1.511 . S
C1849 C1845 1.376 . S
C1849 C1848 1.392 . S
C1849 H1861 0.929 . S
C1850 C1846 1.531 . S
C1850 H1862 0.960 . S
C1850 H1863 0.962 . S
C1850 H1864 0.960 . S
C1851 C1848 1.511 . S
C1851 H1865 0.961 . S
C1851 H1866 0.961 . S
C1851 H1867 0.961 . S
C1852 C1853 1.370 . S
C1852 C1854 1.363 . S
C1852 H1868 0.931 . S
C1853 C1852 1.370 . S
C1853 C1857 1.408 . S
C1854 C1852 1.363 . S
C1854 C1855 1.370 . S
C1854 C1858 1.524 . S
C1855 C1847 1.503 . S
C1855 C1854 1.370 . S
C1855 C1856 1.403 . S
C1856 C1855 1.403 . S
C1856 C1857 1.404 . S
C1856 C1859 1.539 . S
C1857 C1853 1.408 . S
C1857 C1856 1.404 . S
C1857 H1869 0.930 . S
C1858 C1854 1.524 . S
C1858 H1870 0.956 . S
C1858 H1871 0.961 . S
C1858 H1872 0.961 . S
C1859 C1856 1.539 . S
C1859 H1873 0.958 . S
C1859 H1874 0.961 . S
C1859 H1875 0.960 . S
H1860 C1844 0.931 . S
H1861 C1849 0.929 . S
H1862 C1850 0.960 . S
H1863 C1850 0.962 . S
H1864 C1850 0.960 . S
H1865 C1851 0.961 . S
H1866 C1851 0.961 . S
H1867 C1851 0.961 . S
H1868 C1852 0.931 . S
H1869 C1857 0.930 . S
H1870 C1858 0.956 . S
H1871 C1858 0.961 . S
H1872 C1858 0.961 . S
H1873 C1859 0.958 . S
H1874 C1859 0.961 . S
H1875 C1859 0.960 . S
C1876 C1877 1.391 . S
C1876 C1878 1.394 . S
C1876 H1892 0.931 . S
C1877 C1876 1.391 . S
C1877 C1881 1.376 . S
C1878 C1876 1.394 . S
C1878 C1879 1.369 . S
C1878 C1882 1.531 . S
C1879 C1878 1.369 . S
C1879 C1880 1.410 . S
C1879 C1887 1.503 . S
C1880 C1879 1.410 . S
C1880 C1881 1.392 . S
C1880 C1883 1.511 . S
C1881 C1877 1.376 . S
C1881 C1880 1.392 . S
C1881 H1893 0.929 . S
C1882 C1878 1.531 . S
C1882 H1894 0.960 . S
C1882 H1895 0.962 . S
C1882 H1896 0.960 . S
C1883 C1880 1.511 . S
C1883 H1897 0.961 . S
C1883 H1898 0.961 . S
C1883 H1899 0.961 . S
C1884 C1885 1.370 . S
C1884 C1886 1.363 . S
C1884 H1900 0.931 . S
C1885 C1884 1.370 . S
C1885 C1889 1.408 . S
C1886 C1884 1.363 . S
C1886 C1887 1.370 . S
C1886 C1890 1.524 . S
C1887 C1879 1.503 . S
C1887 C1886 1.370 . S
C1887 C1888 1.403 . S
C1888 C1887 1.403 . S
C1888 C1889 1.404 . S
C1888 C1891 1.539 . S
C1889 C1885 1.408 . S
C1889 C1888 1.404 . S
C1889 H1901 0.930 . S
C1890 C1886 1.524 . S
C1890 H1902 0.956 . S
C1890 H1903 0.961 . S
C1890 H1904 0.961 . S
C1891 C1888 1.539 . S
C1891 H1905 0.958 . S
C1891 H1906 0.961 . S
C1891 H1907 0.960 . S
H1892 C1876 0.931 . S
H1893 C1881 0.929 . S
H1894 C1882 0.960 . S
H1895 C1882 0.962 . S
H1896 C1882 0.960 . S
H1897 C1883 0.961 . S
H1898 C1883 0.961 . S
H1899 C1883 0.961 . S
H1900 C1884 0.931 . S
H1901 C1889 0.930 . S
H1902 C1890 0.956 . S
H1903 C1890 0.961 . S
H1904 C1890 0.961 . S
H1905 C1891 0.958 . S
H1906 C1891 0.961 . S
H1907 C1891 0.960 . S
C1908 C1909 1.391 . S
C1908 C1910 1.394 . S
C1908 H1924 0.931 . S
C1909 C1908 1.391 . S
C1909 C1913 1.376 . S
C1910 C1908 1.394 . S
C1910 C1911 1.369 . S
C1910 C1914 1.531 . S
C1911 C1910 1.369 . S
C1911 C1912 1.410 . S
C1911 C1919 1.503 . S
C1912 C1911 1.410 . S
C1912 C1913 1.392 . S
C1912 C1915 1.511 . S
C1913 C1909 1.376 . S
C1913 C1912 1.392 . S
C1913 H1925 0.929 . S
C1914 C1910 1.531 . S
C1914 H1926 0.960 . S
C1914 H1927 0.962 . S
C1914 H1928 0.960 . S
C1915 C1912 1.511 . S
C1915 H1929 0.961 . S
C1915 H1930 0.961 . S
C1915 H1931 0.961 . S
C1916 C1917 1.370 . S
C1916 C1918 1.363 . S
C1916 H1932 0.931 . S
C1917 C1916 1.370 . S
C1917 C1921 1.408 . S
C1918 C1916 1.363 . S
C1918 C1919 1.370 . S
C1918 C1922 1.524 . S
C1919 C1911 1.503 . S
C1919 C1918 1.370 . S
C1919 C1920 1.403 . S
C1920 C1919 1.403 . S
C1920 C1921 1.404 . S
C1920 C1923 1.539 . S
C1921 C1917 1.408 . S
C1921 C1920 1.404 . S
C1921 H1933 0.930 . S
C1922 C1918 1.524 . S
C1922 H1934 0.956 . S
C1922 H1935 0.961 . S
C1922 H1936 0.961 . S
C1923 C1920 1.539 . S
C1923 H1937 0.958 . S
C1923 H1938 0.961 . S
C1923 H1939 0.960 . S
H1924 C1908 0.931 . S
H1925 C1913 0.929 . S
H1926 C1914 0.960 . S
H1927 C1914 0.962 . S
H1928 C1914 0.960 . S
H1929 C1915 0.961 . S
H1930 C1915 0.961 . S
H1931 C1915 0.961 . S
H1932 C1916 0.931 . S
H1933 C1921 0.930 . S
H1934 C1922 0.956 . S
H1935 C1922 0.961 . S
H1936 C1922 0.961 . S
H1937 C1923 0.958 . S
H1938 C1923 0.961 . S
H1939 C1923 0.960 . S
C1940 C1941 1.391 . S
C1940 C1942 1.394 . S
C1940 H1956 0.931 . S
C1941 C1940 1.391 . S
C1941 C1945 1.376 . S
C1942 C1940 1.394 . S
C1942 C1943 1.369 . S
C1942 C1946 1.531 . S
C1943 C1942 1.369 . S
C1943 C1944 1.410 . S
C1943 C1951 1.503 . S
C1944 C1943 1.410 . S
C1944 C1945 1.392 . S
C1944 C1947 1.511 . S
C1945 C1941 1.376 . S
C1945 C1944 1.392 . S
C1945 H1957 0.929 . S
C1946 C1942 1.531 . S
C1946 H1958 0.960 . S
C1946 H1959 0.962 . S
C1946 H1960 0.960 . S
C1947 C1944 1.511 . S
C1947 H1961 0.961 . S
C1947 H1962 0.961 . S
C1947 H1963 0.961 . S
C1948 C1949 1.370 . S
C1948 C1950 1.363 . S
C1948 H1964 0.931 . S
C1949 C1948 1.370 . S
C1949 C1953 1.408 . S
C1950 C1948 1.363 . S
C1950 C1951 1.370 . S
C1950 C1954 1.524 . S
C1951 C1943 1.503 . S
C1951 C1950 1.370 . S
C1951 C1952 1.403 . S
C1952 C1951 1.403 . S
C1952 C1953 1.404 . S
C1952 C1955 1.539 . S
C1953 C1949 1.408 . S
C1953 C1952 1.404 . S
C1953 H1965 0.930 . S
C1954 C1950 1.524 . S
C1954 H1966 0.956 . S
C1954 H1967 0.961 . S
C1954 H1968 0.961 . S
C1955 C1952 1.539 . S
C1955 H1969 0.958 . S
C1955 H1970 0.961 . S
C1955 H1971 0.960 . S
H1956 C1940 0.931 . S
H1957 C1945 0.929 . S
H1958 C1946 0.960 . S
H1959 C1946 0.962 . S
H1960 C1946 0.960 . S
H1961 C1947 0.961 . S
H1962 C1947 0.961 . S
H1963 C1947 0.961 . S
H1964 C1948 0.931 . S
H1965 C1953 0.930 . S
H1966 C1954 0.956 . S
H1967 C1954 0.961 . S
H1968 C1954 0.961 . S
H1969 C1955 0.958 . S
H1970 C1955 0.961 . S
H1971 C1955 0.960 . S
C445 C295 1.948 . S
C437 N2 2.062 . S
C477 C297 1.927 . S
C469 C7 1.912 . S
C509 C324 1.780 . S
C501 N12 1.730 . S
C533 C16 2.216 . S
C541 C345 2.246 . S
C573 C365 2.107 . S
C565 C30 2.098 . S
C605 C395 1.634 . S
C597 N35 1.664 . S
C629 C39 2.126 . S
C637 C397 2.113 . S
C669 C435 1.863 . S
C661 N25 1.832 . S
C701 C277 1.346 . S
C693 N58 1.253 . S
C725 N81 1.184 . S
C733 C302 1.173 . S
C765 C332 1.084 . S
C757 N104 1.018 . S
C789 N127 1.601 . S
C797 C344 1.580 . S
C829 C364 0.873 . S
C821 N48 0.899 . S
C861 C377 1.614 . S
C853 N71 1.620 . S
C885 N94 0.531 . S
C893 C402 0.559 . S
C925 C417 1.707 . S
C917 N117 1.654 . S
C949 C85 1.629 . S
C957 C282 1.635 . S
C981 C122 1.676 . S
C989 C372 1.617 . S
C1013 C53 1.488 . S
C1021 C382 1.478 . S
C1053 C415 1.553 . S
C1045 C76 1.650 . S
C1085 C422 1.545 . S
C1077 C99 1.552 1_565 S
C1117 C325 1.928 . S
C1109 C131 1.893 . S
C1149 C352 1.017 . S
C1141 C62 1.024 . S
C1173 C108 0.929 . S
C1181 C315 0.880 . S
C1213 C424 2.018 . S
C1205 N140 2.120 . S
C1237 C145 2.049 . S
C1245 C357 2.071 . S
C1277 C384 1.697 . S
C1269 N150 1.660 . S
C1301 C154 2.072 . S
C1309 C405 2.086 . S
C1341 C305 1.942 . S
C1333 C168 1.917 . S
C1365 N173 1.594 . S
C1373 C335 1.586 . S
C1405 C337 2.260 . S
C1397 C177 2.260 . S
C1437 C284 1.895 . S
C1429 N163 1.915 . S
C1469 C432 1.443 . S
C1461 C200 1.455 . S
C1501 C362 1.592 . S
C1493 N219 1.555 . S
C1525 N242 1.244 . S
C1533 C392 1.231 . S
C1565 C404 1.537 . S
C1557 C269 1.649 . S
C1597 C304 0.842 . S
C1589 C191 0.832 . S
C1621 N209 1.782 . S
C1629 C317 1.830 . S
C1653 N232 1.033 . S
C1661 C342 1.004 . S
C1685 C260 1.788 . S
C1693 C292 1.690 . S
C1717 C223 1.764 . S
C1725 C425 1.792 . S
C1749 N255 1.102 . S
C1757 C312 1.142 . S
C1781 N186 1.169 . S
C1789 C322 1.199 . S
C1821 C355 1.596 . S
C1813 C214 1.704 . S
C1853 C285 1.609 . S
C1845 C237 1.605 . S
C1885 C385 1.544 . S
C1877 N265 1.498 . S
C1917 C412 0.655 . S
C1909 N196 0.647 . S
C1949 C375 0.915 . S
C1941 C246 0.902 . S
