# Generated by pormake.
# Topology gar, (4,6)-cn, num edge types: 1
# Building blocks:
#     Node 0, Type 0, BuildingBlock: UXUYUI_clean_sbu_0, # of connection points: 4
#     Node 1, Type 0, BuildingBlock: UXUYUI_clean_sbu_0, # of connection points: 4
#     Node 2, Type 0, BuildingBlock: UXUYUI_clean_sbu_0, # of connection points: 4
#     Node 3, Type 0, BuildingBlock: UXUYUI_clean_sbu_0, # of connection points: 4
#     Node 4, Type 0, BuildingBlock: UXUYUI_clean_sbu_0, # of connection points: 4
#     Node 5, Type 0, BuildingBlock: UXUYUI_clean_sbu_0, # of connection points: 4
#     Node 6, Type 0, BuildingBlock: UXUYUI_clean_sbu_0, # of connection points: 4
#     Node 7, Type 0, BuildingBlock: UXUYUI_clean_sbu_0, # of connection points: 4
#     Node 8, Type 0, BuildingBlock: UXUYUI_clean_sbu_0, # of connection points: 4
#     Node 9, Type 0, BuildingBlock: UXUYUI_clean_sbu_0, # of connection points: 4
#     Node 10, Type 0, BuildingBlock: UXUYUI_clean_sbu_0, # of connection points: 4
#     Node 11, Type 0, BuildingBlock: UXUYUI_clean_sbu_0, # of connection points: 4
#     Node 12, Type 0, BuildingBlock: UXUYUI_clean_sbu_0, # of connection points: 4
#     Node 13, Type 0, BuildingBlock: UXUYUI_clean_sbu_0, # of connection points: 4
#     Node 14, Type 0, BuildingBlock: UXUYUI_clean_sbu_0, # of connection points: 4
#     Node 15, Type 0, BuildingBlock: UXUYUI_clean_sbu_0, # of connection points: 4
#     Node 16, Type 0, BuildingBlock: UXUYUI_clean_sbu_0, # of connection points: 4
#     Node 17, Type 0, BuildingBlock: UXUYUI_clean_sbu_0, # of connection points: 4
#     Node 18, Type 0, BuildingBlock: UXUYUI_clean_sbu_0, # of connection points: 4
#     Node 19, Type 0, BuildingBlock: UXUYUI_clean_sbu_0, # of connection points: 4
#     Node 20, Type 0, BuildingBlock: UXUYUI_clean_sbu_0, # of connection points: 4
#     Node 21, Type 0, BuildingBlock: UXUYUI_clean_sbu_0, # of connection points: 4
#     Node 22, Type 0, BuildingBlock: UXUYUI_clean_sbu_0, # of connection points: 4
#     Node 23, Type 0, BuildingBlock: UXUYUI_clean_sbu_0, # of connection points: 4
#     Node 24, Type 1, BuildingBlock: BETDIP_clean_sbu_0, # of connection points: 6
#     Node 25, Type 1, BuildingBlock: BETDIP_clean_sbu_0, # of connection points: 6
#     Node 26, Type 1, BuildingBlock: BETDIP_clean_sbu_0, # of connection points: 6
#     Node 27, Type 1, BuildingBlock: BETDIP_clean_sbu_0, # of connection points: 6
#     Node 28, Type 1, BuildingBlock: BETDIP_clean_sbu_0, # of connection points: 6
#     Node 29, Type 1, BuildingBlock: BETDIP_clean_sbu_0, # of connection points: 6
#     Node 30, Type 1, BuildingBlock: BETDIP_clean_sbu_0, # of connection points: 6
#     Node 31, Type 1, BuildingBlock: BETDIP_clean_sbu_0, # of connection points: 6
#     Node 32, Type 1, BuildingBlock: BETDIP_clean_sbu_0, # of connection points: 6
#     Node 33, Type 1, BuildingBlock: BETDIP_clean_sbu_0, # of connection points: 6
#     Node 34, Type 1, BuildingBlock: BETDIP_clean_sbu_0, # of connection points: 6
#     Node 35, Type 1, BuildingBlock: BETDIP_clean_sbu_0, # of connection points: 6
#     Node 36, Type 1, BuildingBlock: BETDIP_clean_sbu_0, # of connection points: 6
#     Node 37, Type 1, BuildingBlock: BETDIP_clean_sbu_0, # of connection points: 6
#     Node 38, Type 1, BuildingBlock: BETDIP_clean_sbu_0, # of connection points: 6
#     Node 39, Type 1, BuildingBlock: BETDIP_clean_sbu_0, # of connection points: 6
#     Edge 40, Type (0, 1), BuildingBlock: TEMPAE_clean_linker_10, # of connection points: 2
#     Edge 41, Type (0, 1), BuildingBlock: TEMPAE_clean_linker_10, # of connection points: 2
#     Edge 42, Type (0, 1), BuildingBlock: TEMPAE_clean_linker_10, # of connection points: 2
#     Edge 43, Type (0, 1), BuildingBlock: TEMPAE_clean_linker_10, # of connection points: 2
#     Edge 44, Type (0, 1), BuildingBlock: TEMPAE_clean_linker_10, # of connection points: 2
#     Edge 45, Type (0, 1), BuildingBlock: TEMPAE_clean_linker_10, # of connection points: 2
#     Edge 46, Type (0, 1), BuildingBlock: TEMPAE_clean_linker_10, # of connection points: 2
#     Edge 47, Type (0, 1), BuildingBlock: TEMPAE_clean_linker_10, # of connection points: 2
#     Edge 48, Type (0, 1), BuildingBlock: TEMPAE_clean_linker_10, # of connection points: 2
#     Edge 49, Type (0, 1), BuildingBlock: TEMPAE_clean_linker_10, # of connection points: 2
#     Edge 50, Type (0, 1), BuildingBlock: TEMPAE_clean_linker_10, # of connection points: 2
#     Edge 51, Type (0, 1), BuildingBlock: TEMPAE_clean_linker_10, # of connection points: 2
#     Edge 52, Type (0, 1), BuildingBlock: TEMPAE_clean_linker_10, # of connection points: 2
#     Edge 53, Type (0, 1), BuildingBlock: TEMPAE_clean_linker_10, # of connection points: 2
#     Edge 54, Type (0, 1), BuildingBlock: TEMPAE_clean_linker_10, # of connection points: 2
#     Edge 55, Type (0, 1), BuildingBlock: TEMPAE_clean_linker_10, # of connection points: 2
#     Edge 56, Type (0, 1), BuildingBlock: TEMPAE_clean_linker_10, # of connection points: 2
#     Edge 57, Type (0, 1), BuildingBlock: TEMPAE_clean_linker_10, # of connection points: 2
#     Edge 58, Type (0, 1), BuildingBlock: TEMPAE_clean_linker_10, # of connection points: 2
#     Edge 59, Type (0, 1), BuildingBlock: TEMPAE_clean_linker_10, # of connection points: 2
#     Edge 60, Type (0, 1), BuildingBlock: TEMPAE_clean_linker_10, # of connection points: 2
#     Edge 61, Type (0, 1), BuildingBlock: TEMPAE_clean_linker_10, # of connection points: 2
#     Edge 62, Type (0, 1), BuildingBlock: TEMPAE_clean_linker_10, # of connection points: 2
#     Edge 63, Type (0, 1), BuildingBlock: TEMPAE_clean_linker_10, # of connection points: 2
#     Edge 64, Type (0, 1), BuildingBlock: TEMPAE_clean_linker_10, # of connection points: 2
#     Edge 65, Type (0, 1), BuildingBlock: TEMPAE_clean_linker_10, # of connection points: 2
#     Edge 66, Type (0, 1), BuildingBlock: TEMPAE_clean_linker_10, # of connection points: 2
#     Edge 67, Type (0, 1), BuildingBlock: TEMPAE_clean_linker_10, # of connection points: 2
#     Edge 68, Type (0, 1), BuildingBlock: TEMPAE_clean_linker_10, # of connection points: 2
#     Edge 69, Type (0, 1), BuildingBlock: TEMPAE_clean_linker_10, # of connection points: 2
#     Edge 70, Type (0, 1), BuildingBlock: TEMPAE_clean_linker_10, # of connection points: 2
#     Edge 71, Type (0, 1), BuildingBlock: TEMPAE_clean_linker_10, # of connection points: 2
#     Edge 72, Type (0, 1), BuildingBlock: TEMPAE_clean_linker_10, # of connection points: 2
#     Edge 73, Type (0, 1), BuildingBlock: TEMPAE_clean_linker_10, # of connection points: 2
#     Edge 74, Type (0, 1), BuildingBlock: TEMPAE_clean_linker_10, # of connection points: 2
#     Edge 75, Type (0, 1), BuildingBlock: TEMPAE_clean_linker_10, # of connection points: 2
#     Edge 76, Type (0, 1), BuildingBlock: TEMPAE_clean_linker_10, # of connection points: 2
#     Edge 77, Type (0, 1), BuildingBlock: TEMPAE_clean_linker_10, # of connection points: 2
#     Edge 78, Type (0, 1), BuildingBlock: TEMPAE_clean_linker_10, # of connection points: 2
#     Edge 79, Type (0, 1), BuildingBlock: TEMPAE_clean_linker_10, # of connection points: 2
#     Edge 80, Type (0, 1), BuildingBlock: TEMPAE_clean_linker_10, # of connection points: 2
#     Edge 81, Type (0, 1), BuildingBlock: TEMPAE_clean_linker_10, # of connection points: 2
#     Edge 82, Type (0, 1), BuildingBlock: TEMPAE_clean_linker_10, # of connection points: 2
#     Edge 83, Type (0, 1), BuildingBlock: TEMPAE_clean_linker_10, # of connection points: 2
#     Edge 84, Type (0, 1), BuildingBlock: TEMPAE_clean_linker_10, # of connection points: 2
#     Edge 85, Type (0, 1), BuildingBlock: TEMPAE_clean_linker_10, # of connection points: 2
#     Edge 86, Type (0, 1), BuildingBlock: TEMPAE_clean_linker_10, # of connection points: 2
#     Edge 87, Type (0, 1), BuildingBlock: TEMPAE_clean_linker_10, # of connection points: 2
#     Edge 88, Type (0, 1), BuildingBlock: TEMPAE_clean_linker_10, # of connection points: 2
#     Edge 89, Type (0, 1), BuildingBlock: TEMPAE_clean_linker_10, # of connection points: 2
#     Edge 90, Type (0, 1), BuildingBlock: TEMPAE_clean_linker_10, # of connection points: 2
#     Edge 91, Type (0, 1), BuildingBlock: TEMPAE_clean_linker_10, # of connection points: 2
#     Edge 92, Type (0, 1), BuildingBlock: TEMPAE_clean_linker_10, # of connection points: 2
#     Edge 93, Type (0, 1), BuildingBlock: TEMPAE_clean_linker_10, # of connection points: 2
#     Edge 94, Type (0, 1), BuildingBlock: TEMPAE_clean_linker_10, # of connection points: 2
#     Edge 95, Type (0, 1), BuildingBlock: TEMPAE_clean_linker_10, # of connection points: 2
#     Edge 96, Type (0, 1), BuildingBlock: TEMPAE_clean_linker_10, # of connection points: 2
#     Edge 97, Type (0, 1), BuildingBlock: TEMPAE_clean_linker_10, # of connection points: 2
#     Edge 98, Type (0, 1), BuildingBlock: TEMPAE_clean_linker_10, # of connection points: 2
#     Edge 99, Type (0, 1), BuildingBlock: TEMPAE_clean_linker_10, # of connection points: 2
#     Edge 100, Type (0, 1), BuildingBlock: TEMPAE_clean_linker_10, # of connection points: 2
#     Edge 101, Type (0, 1), BuildingBlock: TEMPAE_clean_linker_10, # of connection points: 2
#     Edge 102, Type (0, 1), BuildingBlock: TEMPAE_clean_linker_10, # of connection points: 2
#     Edge 103, Type (0, 1), BuildingBlock: TEMPAE_clean_linker_10, # of connection points: 2
#     Edge 104, Type (0, 1), BuildingBlock: TEMPAE_clean_linker_10, # of connection points: 2
#     Edge 105, Type (0, 1), BuildingBlock: TEMPAE_clean_linker_10, # of connection points: 2
#     Edge 106, Type (0, 1), BuildingBlock: TEMPAE_clean_linker_10, # of connection points: 2
#     Edge 107, Type (0, 1), BuildingBlock: TEMPAE_clean_linker_10, # of connection points: 2
#     Edge 108, Type (0, 1), BuildingBlock: TEMPAE_clean_linker_10, # of connection points: 2
#     Edge 109, Type (0, 1), BuildingBlock: TEMPAE_clean_linker_10, # of connection points: 2
#     Edge 110, Type (0, 1), BuildingBlock: TEMPAE_clean_linker_10, # of connection points: 2
#     Edge 111, Type (0, 1), BuildingBlock: TEMPAE_clean_linker_10, # of connection points: 2
#     Edge 112, Type (0, 1), BuildingBlock: TEMPAE_clean_linker_10, # of connection points: 2
#     Edge 113, Type (0, 1), BuildingBlock: TEMPAE_clean_linker_10, # of connection points: 2
#     Edge 114, Type (0, 1), BuildingBlock: TEMPAE_clean_linker_10, # of connection points: 2
#     Edge 115, Type (0, 1), BuildingBlock: TEMPAE_clean_linker_10, # of connection points: 2
#     Edge 116, Type (0, 1), BuildingBlock: TEMPAE_clean_linker_10, # of connection points: 2
#     Edge 117, Type (0, 1), BuildingBlock: TEMPAE_clean_linker_10, # of connection points: 2
#     Edge 118, Type (0, 1), BuildingBlock: TEMPAE_clean_linker_10, # of connection points: 2
#     Edge 119, Type (0, 1), BuildingBlock: TEMPAE_clean_linker_10, # of connection points: 2
#     Edge 120, Type (0, 1), BuildingBlock: TEMPAE_clean_linker_10, # of connection points: 2
#     Edge 121, Type (0, 1), BuildingBlock: TEMPAE_clean_linker_10, # of connection points: 2
#     Edge 122, Type (0, 1), BuildingBlock: TEMPAE_clean_linker_10, # of connection points: 2
#     Edge 123, Type (0, 1), BuildingBlock: TEMPAE_clean_linker_10, # of connection points: 2
#     Edge 124, Type (0, 1), BuildingBlock: TEMPAE_clean_linker_10, # of connection points: 2
#     Edge 125, Type (0, 1), BuildingBlock: TEMPAE_clean_linker_10, # of connection points: 2
#     Edge 126, Type (0, 1), BuildingBlock: TEMPAE_clean_linker_10, # of connection points: 2
#     Edge 127, Type (0, 1), BuildingBlock: TEMPAE_clean_linker_10, # of connection points: 2
#     Edge 128, Type (0, 1), BuildingBlock: TEMPAE_clean_linker_10, # of connection points: 2
#     Edge 129, Type (0, 1), BuildingBlock: TEMPAE_clean_linker_10, # of connection points: 2
#     Edge 130, Type (0, 1), BuildingBlock: TEMPAE_clean_linker_10, # of connection points: 2
#     Edge 131, Type (0, 1), BuildingBlock: TEMPAE_clean_linker_10, # of connection points: 2
#     Edge 132, Type (0, 1), BuildingBlock: TEMPAE_clean_linker_10, # of connection points: 2
#     Edge 133, Type (0, 1), BuildingBlock: TEMPAE_clean_linker_10, # of connection points: 2
#     Edge 134, Type (0, 1), BuildingBlock: TEMPAE_clean_linker_10, # of connection points: 2
#     Edge 135, Type (0, 1), BuildingBlock: TEMPAE_clean_linker_10, # of connection points: 2
# Relax obj value: 0.184
# Max RMSD: 0.268
# Mean RMSD: 0.185
data_MOF--net-gar--node1-UXUYUI_clean_sbu_0--node2-BETDIP_clean_sbu_0--edge1-TEMPAE_clean_linker_10
_symmetry_space_group_name_H-M    P1
_symmetry_Int_Tables_number       1
_symmetry_cell_setting            triclinic
loop_
_symmetry_equiv_pos_as_xyz
'x, y, z'
_cell_length_a     76.766419
_cell_length_b     70.805168
_cell_length_c     68.493622
_cell_angle_alpha  97.177907
_cell_angle_beta   98.2217
_cell_angle_gamma 100.44627
loop_
_atom_site_label
_atom_site_type_symbol
_atom_site_fract_x
_atom_site_fract_y
_atom_site_fract_z
_atom_type_partial_charge
Li0 Li 0.01318 0.30823 0.37432 0.0
Li1 Li 0.03969 0.32309 0.39667 0.0
Li2 Li 0.04138 0.30578 0.36276 0.0
Li3 Li 0.03139 0.28818 0.38999 0.0
C4 C 0.02254 0.33917 0.35682 0.0
N5 N 1.00332 0.35798 0.33096 0.0
C6 C 0.01223 0.35196 0.3641 0.0
C7 C 0.02316 0.33606 0.33639 0.0
C8 C 1.00257 0.36128 0.35079 0.0
C9 C 0.01334 0.34569 0.32356 0.0
C10 C 0.0165 0.31671 0.42039 0.0
C11 C 0.02123 0.32287 0.45642 0.0
N12 N 0.0138 0.33885 0.45567 0.0
C13 C 0.00886 0.33318 0.42001 0.0
C14 C 0.02274 0.31151 0.43877 0.0
C15 C 1.00766 0.3442 0.43799 0.0
C16 C 0.97737 0.30606 0.37939 0.0
N17 N 0.98839 0.30867 0.36567 0.0
C18 C 0.96336 0.30883 0.34057 0.0
C19 C 0.98174 0.30996 0.34649 0.0
C20 C 0.9517 0.30623 0.35451 0.0
C21 C 0.95898 0.30502 0.3742 0.0
H22 H 0.98276 0.30429 0.39433 0.0
H23 H 0.99058 0.31126 0.3356 0.0
C24 C 0.05796 0.34232 0.43499 0.0
N25 N 0.05054 0.34494 0.41652 0.0
C26 C 0.06161 0.35758 0.45092 0.0
C27 C 0.05191 0.37847 0.42803 0.0
C28 C 0.04816 0.36273 0.41262 0.0
C29 C 0.05799 0.37572 0.44758 0.0
H30 H 0.05978 0.32806 0.43769 0.0
H31 H 0.04236 0.36444 0.39779 0.0
C32 C 1.00524 0.27401 0.35038 0.0
N33 N 0.97318 0.25329 0.32792 0.0
C34 C 0.99244 0.2634 0.35956 0.0
C35 C 1.00184 0.27398 0.32979 0.0
C36 C 0.97627 0.25306 0.34794 0.0
C37 C 0.98552 0.26342 0.31869 0.0
C38 C 0.06729 0.29444 0.39725 0.0
C39 C 0.07868 0.28719 0.38535 0.0
C40 C 0.06799 0.29065 0.41687 0.0
C41 C 0.09047 0.27609 0.39322 0.0
C42 C 0.07993 0.27944 0.42417 0.0
N43 N 0.09083 0.27245 0.4123 0.0
C44 C 0.06708 0.31899 0.33905 0.0
C45 C 0.05394 0.28532 0.33252 0.0
C46 C 0.07945 0.31617 0.32642 0.0
N47 N 0.05494 0.30357 0.3421 0.0
C48 C 0.06615 0.28181 0.31997 0.0
C49 C 0.07941 0.29727 0.31728 0.0
H50 H 0.06772 0.33327 0.34722 0.0
H51 H 0.04436 0.27332 0.33559 0.0
C52 C 0.02183 0.25989 0.41422 0.0
N53 N 0.03104 0.26406 0.39928 0.0
C54 C 0.0222 0.24263 0.42192 0.0
C55 C 0.04058 0.23371 0.3978 0.0
C56 C 0.03989 0.2512 0.39062 0.0
C57 C 0.03187 0.22937 0.41387 0.0
H58 H 0.01428 0.27001 0.42025 0.0
H59 H 0.04665 0.25469 0.37832 0.0
O60 O 0.03215 0.32993 0.36961 0.0
O61 O 0.01809 0.30596 0.40288 0.0
O62 O 0.02091 0.28465 0.36157 0.0
O63 O 0.05548 0.30512 0.38969 0.0
H64 H 0.0116 0.35462 0.37984 0.0
H65 H 0.03096 0.32615 0.33043 0.0
H66 H 0.99447 0.37113 0.35621 0.0
H67 H 0.01363 0.34334 0.30771 0.0
H68 H 0.02613 0.31908 0.47072 0.0
H69 H 1.00405 0.33751 0.40598 0.0
H70 H 0.02911 0.29913 0.43948 0.0
H71 H 1.00188 0.35704 0.43788 0.0
H72 H 0.95828 0.30935 0.3251 0.0
H73 H 0.95054 0.3031 0.38548 0.0
H74 H 0.06638 0.355 0.46583 0.0
H75 H 0.04887 0.39227 0.42494 0.0
H76 H 0.99487 0.26338 0.37552 0.0
H77 H 0.01161 0.28223 0.32252 0.0
H78 H 0.96617 0.2449 0.35485 0.0
H79 H 0.98264 0.26334 0.30275 0.0
H80 H 0.07844 0.2901 0.3702 0.0
H81 H 0.05906 0.29581 0.42617 0.0
H82 H 0.09932 0.27035 0.38416 0.0
H83 H 0.08045 0.2762 0.43924 0.0
H84 H 0.08966 0.32837 0.32486 0.0
H85 H 0.06577 0.26705 0.31316 0.0
H86 H 0.01534 0.23996 0.43437 0.0
H87 H 0.04789 0.22373 0.39089 0.0
Li88 Li 0.049 0.76843 0.66834 0.0
Li89 Li 0.0653 0.74931 0.68874 0.0
Li90 Li 0.04371 0.73396 0.65901 0.0
Li91 Li 0.03393 0.74772 0.68913 0.0
C92 C 0.07723 0.765 0.65167 0.0
N93 N 0.0987 0.79149 0.63428 0.0
C94 C 0.09474 0.77358 0.6612 0.0
C95 C 0.07072 0.76983 0.63319 0.0
C96 C 0.10537 0.78693 0.65218 0.0
C97 C 0.08175 0.78329 0.62469 0.0
C98 C 0.0485 0.78109 0.71283 0.0
C99 C 0.04459 0.78644 0.74726 0.0
N100 N 0.0359 0.80102 0.74335 0.0
C101 C 0.03967 0.79624 0.70918 0.0
C102 C 0.05112 0.77624 0.73205 0.0
C103 C 0.03336 0.80611 0.72481 0.0
C104 C 0.03755 0.79487 0.64472 0.0
N105 N 0.05067 0.79259 0.65922 0.0
C106 C 0.06757 0.82427 0.65872 0.0
C107 C 0.06532 0.80694 0.66663 0.0
C108 C 0.05451 0.82679 0.64322 0.0
C109 C 0.03923 0.81192 0.6364 0.0
H110 H 0.02599 0.78327 0.6393 0.0
H111 H 0.07544 0.80467 0.67831 0.0
C112 C 0.09768 0.73624 0.69726 0.0
N113 N 0.08828 0.74982 0.70319 0.0
C114 C 0.11591 0.73866 0.70496 0.0
C115 C 0.11439 0.76903 0.72459 0.0
C116 C 0.09611 0.76581 0.71685 0.0
C117 C 0.12447 0.7555 0.71831 0.0
H118 H 0.09133 0.72417 0.68568 0.0
H119 H 0.08843 0.77667 0.72078 0.0
C120 C 0.01184 0.73945 0.64716 0.0
N121 N 0.98502 0.71549 0.61891 0.0
C122 C 0.99868 0.72602 0.65307 0.0
C123 C 0.01136 0.7407 0.62688 0.0
C124 C 0.98522 0.71405 0.63856 0.0
C125 C 0.9977 0.72844 0.61283 0.0
C126 C 0.05452 0.71376 0.69629 0.0
C127 C 0.05965 0.69776 0.68628 0.0
C128 C 0.05855 0.71787 0.71712 0.0
C129 C 0.06886 0.68619 0.6973 0.0
C130 C 0.06781 0.70598 0.7276 0.0
N131 N 0.07273 0.69052 0.71756 0.0
C132 C 0.04564 0.71655 0.62036 0.0
C133 C 0.02846 0.69604 0.63849 0.0
C134 C 0.0428 0.70162 0.60424 0.0
N135 N 0.03861 0.71348 0.63706 0.0
C136 C 0.02551 0.68058 0.62283 0.0
C137 C 0.03293 0.6832 0.60547 0.0
H138 H 0.05367 0.7305 0.61962 0.0
H139 H 0.02305 0.69404 0.652 0.0
C140 C 1.00471 0.75981 0.70105 0.0
N141 N 0.01543 0.74693 0.70474 0.0
C142 C 0.9915 0.76216 0.71252 0.0
C143 C 0.99982 0.73709 0.73075 0.0
C144 C 0.01316 0.73542 0.71904 0.0
C145 C 0.98907 0.75088 0.72772 0.0
H146 H 1.00675 0.76858 0.68942 0.0
H147 H 0.0218 0.72518 0.72153 0.0
O148 O 0.0665 0.75209 0.66043 0.0
O149 O 0.05433 0.77088 0.69761 0.0
O150 O 0.02543 0.75091 0.6611 0.0
O151 O 0.04556 0.7253 0.68576 0.0
H152 H 0.10011 0.77008 0.67544 0.0
H153 H 0.05708 0.76373 0.62575 0.0
H154 H 0.11892 0.7937 0.65944 0.0
H155 H 0.07677 0.78733 0.61053 0.0
H156 H 0.04641 0.78275 0.76217 0.0
H157 H 0.03745 0.80014 0.69439 0.0
H158 H 0.05802 0.76464 0.73514 0.0
H159 H 0.02637 0.81775 0.72217 0.0
H160 H 0.07943 0.83548 0.66453 0.0
H161 H 0.02895 0.81319 0.62432 0.0
H162 H 0.12347 0.72816 0.6996 0.0
H163 H 0.12075 0.78226 0.73474 0.0
H164 H 0.99896 0.72466 0.66865 0.0
H165 H 0.02163 0.75074 0.622 0.0
H166 H 0.97498 0.70355 0.64291 0.0
H167 H 0.99724 0.72916 0.59709 0.0
H168 H 0.05673 0.69441 0.67016 0.0
H169 H 0.05473 0.73022 0.72509 0.0
H170 H 0.07298 0.67381 0.68975 0.0
H171 H 0.0711 0.70906 0.74372 0.0
H172 H 0.04853 0.70444 0.59108 0.0
H173 H 0.01805 0.66657 0.62464 0.0
H174 H 0.98324 0.77271 0.70955 0.0
H175 H 0.99821 0.7281 0.74231 0.0
Li176 Li 0.51817 0.80622 0.87267 0.0
Li177 Li 0.54387 0.82307 0.89642 0.0
Li178 Li 0.54819 0.80556 0.8646 0.0
Li179 Li 0.53788 0.7885 0.89109 0.0
C180 C 0.53215 0.83437 0.85043 0.0
N181 N 0.52373 0.84556 0.81355 0.0
C182 C 0.53413 0.85408 0.84869 0.0
C183 C 0.52597 0.82038 0.83337 0.0
C184 C 0.52977 0.85944 0.82992 0.0
C185 C 0.52176 0.82631 0.81488 0.0
C186 C 0.51684 0.81663 0.91593 0.0
C187 C 0.51583 0.82719 0.95057 0.0
N188 N 0.50674 0.84102 0.94512 0.0
C189 C 0.50747 0.83096 0.91069 0.0
C190 C 0.52106 0.81473 0.93605 0.0
C191 C 0.50248 0.84313 0.92566 0.0
C192 C 0.48227 0.79074 0.86983 0.0
N193 N 0.49337 0.80482 0.86318 0.0
C194 C 0.4682 0.81518 0.84624 0.0
C195 C 0.48674 0.81722 0.85187 0.0
C196 C 0.45641 0.8003 0.85237 0.0
C197 C 0.46372 0.78799 0.86433 0.0
H198 H 0.48784 0.78177 0.87966 0.0
H199 H 0.49568 0.82893 0.84752 0.0
C200 C 0.55891 0.84334 0.93511 0.0
N201 N 0.55187 0.84538 0.9163 0.0
C202 C 0.56103 0.85854 0.95085 0.0
C203 C 0.55 0.87817 0.92728 0.0
C204 C 0.54778 0.86246 0.91205 0.0
C205 C 0.55616 0.87602 0.94701 0.0
H206 H 0.56175 0.82952 0.93813 0.0
H207 H 0.54182 0.86351 0.89706 0.0
C208 C 0.51594 0.76768 0.85223 0.0
N209 N 0.49157 0.7352 0.83166 0.0
C210 C 0.50545 0.75546 0.86251 0.0
C211 C 0.51422 0.76316 0.83148 0.0
C212 C 0.49315 0.73918 0.85185 0.0
C213 C 0.50178 0.74673 0.82135 0.0
C214 C 0.57351 0.79679 0.90077 0.0
C215 C 0.58602 0.79016 0.8901 0.0
C216 C 0.57336 0.79327 0.92039 0.0
C217 C 0.59796 0.77983 0.89913 0.0
C218 C 0.58549 0.78283 0.92887 0.0
N219 N 0.59743 0.77638 0.91815 0.0
C220 C 0.57171 0.81791 0.83744 0.0
C221 C 0.56296 0.7841 0.83811 0.0
C222 C 0.58337 0.81433 0.8241 0.0
N223 N 0.5621 0.80282 0.84435 0.0
C224 C 0.57445 0.7799 0.825 0.0
C225 C 0.58514 0.79514 0.81825 0.0
H226 H 0.57081 0.83267 0.84282 0.0
H227 H 0.55531 0.77247 0.8441 0.0
C228 C 0.52996 0.7618 0.91739 0.0
N229 N 0.53859 0.76534 0.90186 0.0
C230 C 0.53069 0.74492 0.92568 0.0
C231 C 0.54889 0.73548 0.90152 0.0
C232 C 0.54767 0.75249 0.8936 0.0
C233 C 0.54038 0.73162 0.91783 0.0
H234 H 0.52251 0.77208 0.9233 0.0
H235 H 0.55413 0.7556 0.88099 0.0
O236 O 0.53666 0.82895 0.86868 0.0
O237 O 0.52245 0.80508 0.90153 0.0
O238 O 0.52826 0.7836 0.86242 0.0
O239 O 0.56158 0.80675 0.89207 0.0
H240 H 0.53904 0.86515 0.86167 0.0
H241 H 0.52435 0.80514 0.83442 0.0
H242 H 0.53123 0.87464 0.82838 0.0
H243 H 0.51692 0.8156 0.80159 0.0
H244 H 0.51913 0.82598 0.9662 0.0
H245 H 0.50443 0.83296 0.89527 0.0
H246 H 0.52865 0.80405 0.94047 0.0
H247 H 0.49534 0.85435 0.92181 0.0
H248 H 0.46317 0.82537 0.83748 0.0
H249 H 0.45524 0.77626 0.86937 0.0
H250 H 0.56577 0.85643 0.96594 0.0
H251 H 0.5459 0.89141 0.92387 0.0
H252 H 0.50665 0.75855 0.87855 0.0
H253 H 0.52247 0.77213 0.82324 0.0
H254 H 0.48487 0.7297 0.85963 0.0
H255 H 0.50029 0.74312 0.8053 0.0
H256 H 0.58657 0.79302 0.87504 0.0
H257 H 0.5636 0.79796 0.92878 0.0
H258 H 0.60766 0.77456 0.891 0.0
H259 H 0.58532 0.77976 0.94393 0.0
H260 H 0.59157 0.82642 0.81927 0.0
H261 H 0.57547 0.76493 0.82073 0.0
H262 H 0.52404 0.74249 0.93833 0.0
H263 H 0.5563 0.72543 0.89495 0.0
Li264 Li 0.54172 0.26687 0.17192 0.0
Li265 Li 0.55769 0.24566 0.18789 0.0
Li266 Li 0.53465 0.23287 0.15995 0.0
Li267 Li 0.52697 0.24463 0.19309 0.0
C268 C 0.56723 0.26495 0.15197 0.0
N269 N 0.58658 0.29425 0.1358 0.0
C270 C 0.58416 0.27508 0.16198 0.0
C271 C 0.56013 0.2699 0.13376 0.0
C272 C 0.59375 0.28976 0.15353 0.0
C273 C 0.57011 0.28473 0.12584 0.0
C274 C 0.55889 0.274 0.21892 0.0
C275 C 0.56498 0.27726 0.25488 0.0
N276 N 0.58134 0.28858 0.25503 0.0
C277 C 0.57578 0.28567 0.21946 0.0
C278 C 0.55346 0.26973 0.2368 0.0
C279 C 0.58693 0.29289 0.23785 0.0
C280 C 0.52938 0.29399 0.14976 0.0
N281 N 0.54257 0.29189 0.1643 0.0
C282 C 0.55882 0.32397 0.16407 0.0
C283 C 0.55685 0.30662 0.17194 0.0
C284 C 0.54589 0.32615 0.14827 0.0
C285 C 0.5308 0.31105 0.14142 0.0
H286 H 0.51812 0.28213 0.14407 0.0
H287 H 0.56711 0.30464 0.18352 0.0
C288 C 0.59066 0.23597 0.18526 0.0
N289 N 0.58071 0.24145 0.19903 0.0
C290 C 0.60845 0.23462 0.19118 0.0
C291 C 0.60492 0.24267 0.22554 0.0
C292 C 0.58713 0.24374 0.21892 0.0
C293 C 0.61598 0.23876 0.21151 0.0
H294 H 0.58497 0.23333 0.16956 0.0
H295 H 0.57868 0.2469 0.22968 0.0
C296 C 0.50285 0.23944 0.15236 0.0
N297 N 0.47428 0.21713 0.12503 0.0
C298 C 0.48937 0.22684 0.15878 0.0
C299 C 0.50177 0.24071 0.13202 0.0
C300 C 0.47503 0.21569 0.14473 0.0
C301 C 0.48724 0.2293 0.11844 0.0
C302 C 0.54685 0.21055 0.19531 0.0
C303 C 0.55541 0.19783 0.18476 0.0
C304 C 0.54805 0.21146 0.21596 0.0
C305 C 0.56517 0.18627 0.19513 0.0
C306 C 0.55793 0.19964 0.22578 0.0
N307 N 0.56623 0.18742 0.21525 0.0
C308 C 0.53421 0.21605 0.12024 0.0
C309 C 0.51963 0.19496 0.13986 0.0
C310 C 0.53199 0.2008 0.10455 0.0
N311 N 0.52829 0.21284 0.13753 0.0
C312 C 0.51733 0.1792 0.12464 0.0
C313 C 0.52395 0.18194 0.10686 0.0
H314 H 0.54125 0.23028 0.11885 0.0
H315 H 0.51527 0.1928 0.1539 0.0
C316 C 0.50582 0.2606 0.21625 0.0
N317 N 0.51026 0.24325 0.21074 0.0
C318 C 0.49367 0.26208 0.22932 0.0
C319 C 0.49055 0.22764 0.23056 0.0
C320 C 0.50297 0.22685 0.21751 0.0
C321 C 0.48588 0.24549 0.23667 0.0
H322 H 0.51179 0.2733 0.21044 0.0
H323 H 0.50669 0.21322 0.21269 0.0
O324 O 0.55745 0.25073 0.16019 0.0
O325 O 0.54763 0.26703 0.20108 0.0
O326 O 0.51723 0.25009 0.16584 0.0
O327 O 0.53761 0.22232 0.1855 0.0
H328 H 0.58979 0.27194 0.17629 0.0
H329 H 0.54679 0.26287 0.1261 0.0
H330 H 0.60683 0.2977 0.16117 0.0
H331 H 0.56467 0.2888 0.11188 0.0
H332 H 0.56094 0.27404 0.2688 0.0
H333 H 0.58046 0.28876 0.20585 0.0
H334 H 0.54056 0.26059 0.23677 0.0
H335 H 0.60007 0.30182 0.23844 0.0
H336 H 0.57052 0.33536 0.16996 0.0
H337 H 0.52059 0.31204 0.12913 0.0
H338 H 0.61636 0.23095 0.17992 0.0
H339 H 0.61015 0.24577 0.2414 0.0
H340 H 0.49001 0.22556 0.17441 0.0
H341 H 0.51224 0.25009 0.1267 0.0
H342 H 0.46453 0.20585 0.1495 0.0
H343 H 0.48632 0.23003 0.10266 0.0
H344 H 0.55468 0.19707 0.16877 0.0
H345 H 0.54165 0.22139 0.22436 0.0
H346 H 0.57196 0.17644 0.18719 0.0
H347 H 0.55908 0.20027 0.24179 0.0
H348 H 0.53706 0.20366 0.09102 0.0
H349 H 0.51128 0.16488 0.12723 0.0
H350 H 0.49012 0.27601 0.23328 0.0
H351 H 0.48473 0.21453 0.23585 0.0
Li352 Li 0.0611 0.80723 0.12843 0.0
Li353 Li 0.07938 0.7927 0.15283 0.0
Li354 Li 0.05695 0.77178 0.12617 0.0
Li355 Li 0.0452 0.7891 0.15358 0.0
C356 C 0.0871 0.79991 0.11023 0.0
N357 N 0.10304 0.82006 0.08322 0.0
C358 C 0.10022 0.81681 0.11698 0.0
C359 C 0.08215 0.79318 0.08976 0.0
C360 C 0.1081 0.82682 0.10309 0.0
C361 C 0.09037 0.80358 0.07634 0.0
C362 C 0.07456 0.82412 0.17575 0.0
C363 C 0.07901 0.83265 0.21156 0.0
N364 N 0.0945 0.84528 0.21101 0.0
C365 C 0.09046 0.83725 0.17551 0.0
C366 C 0.06873 0.82181 0.19388 0.0
C367 C 0.10038 0.84778 0.19351 0.0
C368 C 0.06309 0.84791 0.12727 0.0
N369 N 0.06039 0.83048 0.11517 0.0
C370 C 0.05512 0.84627 0.08631 0.0
C371 C 0.05646 0.82945 0.09496 0.0
C372 C 0.0576 0.86446 0.09849 0.0
C373 C 0.06177 0.86503 0.11928 0.0
H374 H 0.06601 0.84857 0.14327 0.0
H375 H 0.05407 0.81554 0.08547 0.0
C376 C 0.1165 0.79077 0.15806 0.0
N377 N 0.10314 0.79378 0.16846 0.0
C378 C 0.13346 0.78954 0.16796 0.0
C379 C 0.12292 0.79476 0.19931 0.0
C380 C 0.10606 0.79567 0.18876 0.0
C381 C 0.13698 0.79146 0.18895 0.0
H382 H 0.11384 0.78874 0.14193 0.0
H383 H 0.09523 0.79756 0.19682 0.0
C384 C 0.02501 0.77629 0.10946 0.0
N385 N 0.99926 0.75268 0.07982 0.0
C386 C 0.00911 0.7663 0.11421 0.0
C387 C 0.02777 0.77438 0.08965 0.0
C388 C 0.99626 0.75441 0.099 0.0
C389 C 0.01461 0.76233 0.07488 0.0
C390 C 0.06179 0.7509 0.15616 0.0
C391 C 0.04703 0.73775 0.15959 0.0
C392 C 0.07737 0.74439 0.15268 0.0
C393 C 0.04807 0.71823 0.15934 0.0
C394 C 0.07787 0.72474 0.15252 0.0
N395 N 0.06333 0.71218 0.15582 0.0
C396 C 0.06631 0.74099 0.10057 0.0
C397 C 0.03817 0.73233 0.11081 0.0
C398 C 0.06529 0.72167 0.09194 0.0
N399 N 0.05293 0.74597 0.10997 0.0
C400 C 0.03672 0.71284 0.10263 0.0
C401 C 0.05052 0.70717 0.09328 0.0
H402 H 0.07821 0.75182 0.10059 0.0
H403 H 0.02792 0.73633 0.11882 0.0
C404 C 0.01315 0.79949 0.1631 0.0
N405 N 0.02553 0.78879 0.16866 0.0
C406 C 0.99784 0.79906 0.17213 0.0
C407 C 0.00832 0.77687 0.19284 0.0
C408 C 0.02348 0.77776 0.18341 0.0
C409 C 0.99506 0.78746 0.18711 0.0
H410 H 0.01504 0.80817 0.15135 0.0
H411 H 0.03349 0.76942 0.1877 0.0
O412 O 0.07897 0.79017 0.1236 0.0
O413 O 0.06476 0.81351 0.15832 0.0
O414 O 0.03782 0.78784 0.12415 0.0
O415 O 0.06086 0.76995 0.1557 0.0
H416 H 0.10421 0.82219 0.13279 0.0
H417 H 0.07198 0.78015 0.08427 0.0
H418 H 0.11822 0.83998 0.1081 0.0
H419 H 0.08662 0.79859 0.06044 0.0
H420 H 0.07471 0.83098 0.22572 0.0
H421 H 0.09513 0.83923 0.16159 0.0
H422 H 0.05646 0.8117 0.19432 0.0
H423 H 0.11276 0.85794 0.19357 0.0
H424 H 0.05167 0.84492 0.07024 0.0
H425 H 0.06404 0.87861 0.12937 0.0
H426 H 0.14353 0.78654 0.15912 0.0
H427 H 0.12485 0.79659 0.21545 0.0
H428 H 1.00679 0.76754 0.12948 0.0
H429 H 0.04003 0.78196 0.08576 0.0
H430 H 0.98393 0.74652 0.10246 0.0
H431 H 0.01662 0.76062 0.05949 0.0
H432 H 0.03478 0.74249 0.16202 0.0
H433 H 0.08884 0.75433 0.14979 0.0
H434 H 0.0367 0.70786 0.16181 0.0
H435 H 0.08978 0.71947 0.14969 0.0
H436 H 0.07635 0.71797 0.0851 0.0
H437 H 0.02505 0.70222 0.10397 0.0
H438 H 0.98828 0.80778 0.16738 0.0
H439 H 1.00681 0.76758 0.20415 0.0
Li440 Li 0.51299 0.77439 0.43619 0.0
Li441 Li 0.49114 0.75435 0.40915 0.0
Li442 Li 0.50958 0.73873 0.43621 0.0
Li443 Li 0.52491 0.75641 0.41063 0.0
C444 C 0.48223 0.76327 0.45202 0.0
N445 N 0.46444 0.78005 0.47964 0.0
C446 C 0.47264 0.77752 0.4472 0.0
C447 C 0.48267 0.75741 0.47079 0.0
C448 C 0.46378 0.78588 0.46141 0.0
C449 C 0.4736 0.7661 0.48457 0.0
C450 C 0.50873 0.78087 0.38826 0.0
C451 C 0.50607 0.77029 0.35289 0.0
N452 N 0.505 0.78858 0.34946 0.0
C453 C 0.50766 0.79959 0.38438 0.0
C454 C 0.50795 0.76611 0.37239 0.0
C455 C 0.50575 0.80319 0.36467 0.0
C456 C 0.52391 0.81509 0.44253 0.0
N457 N 0.51716 0.80042 0.45213 0.0
C458 C 0.51408 0.8238 0.47941 0.0
C459 C 0.51281 0.80446 0.47059 0.0
C460 C 0.52015 0.83926 0.46932 0.0
C461 C 0.52554 0.83455 0.45084 0.0
H462 H 0.52781 0.81168 0.42817 0.0
H463 H 0.50793 0.79275 0.47834 0.0
C464 C 0.45463 0.73663 0.38843 0.0
N465 N 0.46746 0.75326 0.39336 0.0
C466 C 0.43736 0.73692 0.37839 0.0
C467 C 0.44684 0.7713 0.37846 0.0
C468 C 0.46374 0.77042 0.38873 0.0
C469 C 0.43328 0.75445 0.3732 0.0
H470 H 0.45768 0.72317 0.39253 0.0
H471 H 0.47376 0.78364 0.39344 0.0
C472 C 0.54276 0.77083 0.45606 0.0
N473 N 0.56291 0.79659 0.48842 0.0
C474 C 0.55602 0.78607 0.45317 0.0
C475 C 0.53976 0.76862 0.47536 0.0
C476 C 0.56606 0.79896 0.46974 0.0
C477 C 0.5501 0.78181 0.49154 0.0
C478 C 0.50451 0.71613 0.39333 0.0
C479 C 0.51498 0.70298 0.39928 0.0
C480 C 0.49347 0.71195 0.3746 0.0
C481 C 0.51447 0.68598 0.38625 0.0
C482 C 0.49333 0.6948 0.36199 0.0
N483 N 0.50375 0.68228 0.36802 0.0
C484 C 0.49479 0.70404 0.45242 0.0
C485 C 0.52648 0.71195 0.45623 0.0
C486 C 0.49562 0.68707 0.46097 0.0
N487 N 0.5101 0.71606 0.45008 0.0
C488 C 0.52792 0.69509 0.46466 0.0
C489 C 0.51236 0.68218 0.46703 0.0
H490 H 0.48187 0.70742 0.44731 0.0
H491 H 0.53851 0.72159 0.45418 0.0
C492 C 0.55267 0.77345 0.39015 0.0
N493 N 0.54523 0.75666 0.39621 0.0
C494 C 0.56805 0.77455 0.38113 0.0
C495 C 0.5682 0.7412 0.38497 0.0
C496 C 0.55277 0.74072 0.39384 0.0
C497 C 0.57617 0.75832 0.37851 0.0
H498 H 0.54691 0.7862 0.3927 0.0
H499 H 0.54708 0.72769 0.39924 0.0
O500 O 0.49095 0.75487 0.43835 0.0
O501 O 0.51049 0.77713 0.40751 0.0
O502 O 0.53236 0.7585 0.44001 0.0
O503 O 0.5046 0.73272 0.406 0.0
H504 H 0.4722 0.78221 0.43273 0.0
H505 H 0.49001 0.74634 0.47468 0.0
H506 H 0.45639 0.79702 0.45795 0.0
H507 H 0.47387 0.76178 0.4992 0.0
H508 H 0.50549 0.75899 0.34049 0.0
H509 H 0.50813 0.81119 0.39645 0.0
H510 H 0.509 0.75165 0.37507 0.0
H511 H 0.50485 0.81759 0.36146 0.0
H512 H 0.50979 0.82653 0.4937 0.0
H513 H 0.53091 0.8458 0.4427 0.0
H514 H 0.42734 0.72354 0.37462 0.0
H515 H 0.44426 0.7852 0.37514 0.0
H516 H 0.55837 0.78803 0.43826 0.0
H517 H 0.52942 0.75696 0.47777 0.0
H518 H 0.57631 0.8109 0.46775 0.0
H519 H 0.54788 0.78035 0.50658 0.0
H520 H 0.52353 0.70593 0.41375 0.0
H521 H 0.48508 0.72184 0.36986 0.0
H522 H 0.52258 0.67573 0.39062 0.0
H523 H 0.4849 0.69141 0.34743 0.0
H524 H 0.48323 0.67759 0.46229 0.0
H525 H 0.54114 0.69221 0.4693 0.0
H526 H 0.57383 0.7882 0.37679 0.0
H527 H 0.57383 0.72826 0.38322 0.0
Li528 Li 0.56048 0.30667 0.62975 0.0
Li529 Li 0.5791 0.29035 0.65504 0.0
Li530 Li 0.55655 0.2704 0.62742 0.0
Li531 Li 0.54539 0.2885 0.65385 0.0
C532 C 0.58283 0.2902 0.60683 0.0
N533 N 0.59123 0.29199 0.56913 0.0
C534 C 0.60074 0.29544 0.60439 0.0
C535 C 0.56919 0.28586 0.59013 0.0
C536 C 0.60471 0.29626 0.58519 0.0
C537 C 0.57371 0.28684 0.57119 0.0
C538 C 0.55993 0.32236 0.67501 0.0
C539 C 0.55425 0.32595 0.70887 0.0
N540 N 0.5463 0.34116 0.70539 0.0
C541 C 0.55173 0.33803 0.67177 0.0
C542 C 0.56123 0.31626 0.69371 0.0
C543 C 0.54492 0.34735 0.68732 0.0
C544 C 0.54439 0.33627 0.61456 0.0
N545 N 0.5599 0.32938 0.61605 0.0
C546 C 0.57356 0.35546 0.60028 0.0
C547 C 0.57436 0.33861 0.60903 0.0
C548 C 0.55782 0.36316 0.59895 0.0
C549 C 0.54309 0.35316 0.60617 0.0
H550 H 0.53305 0.32879 0.62023 0.0
H551 H 0.58665 0.33309 0.61047 0.0
C552 C 0.61413 0.28224 0.66027 0.0
N553 N 0.6028 0.29086 0.67025 0.0
C554 C 0.63108 0.28084 0.67007 0.0
C555 C 0.62471 0.29746 0.70035 0.0
C556 C 0.60784 0.29855 0.68993 0.0
C557 C 0.63662 0.28835 0.69049 0.0
H558 H 0.60988 0.27615 0.64466 0.0
H559 H 0.59872 0.30531 0.69769 0.0
C560 C 0.5219 0.27896 0.61302 0.0
N561 N 0.48887 0.26366 0.58928 0.0
C562 C 0.50905 0.26591 0.61983 0.0
C563 C 0.51786 0.28445 0.59426 0.0
C564 C 0.49246 0.25827 0.60757 0.0
C565 C 0.50111 0.27649 0.58244 0.0
C566 C 0.55779 0.24862 0.6566 0.0
C567 C 0.54122 0.23744 0.65821 0.0
C568 C 0.57228 0.23958 0.65431 0.0
C569 C 0.53937 0.21734 0.65731 0.0
C570 C 0.56988 0.21944 0.65342 0.0
N571 N 0.55361 0.20883 0.65492 0.0
C572 C 0.5665 0.23933 0.60255 0.0
C573 C 0.53687 0.23188 0.60931 0.0
C574 C 0.56503 0.22012 0.59333 0.0
N575 N 0.55256 0.24488 0.61048 0.0
C576 C 0.53497 0.21247 0.60057 0.0
C577 C 0.54924 0.20627 0.59265 0.0
H578 H 0.5791 0.24955 0.60416 0.0
H579 H 0.52613 0.23619 0.61617 0.0
C580 C 0.51269 0.29866 0.66219 0.0
N581 N 0.5255 0.28879 0.66866 0.0
C582 C 0.49739 0.29844 0.67121 0.0
C583 C 0.50884 0.27832 0.69383 0.0
C584 C 0.52393 0.2789 0.68434 0.0
C585 C 0.49513 0.28802 0.68719 0.0
H586 H 0.51419 0.30642 0.6497 0.0
H587 H 0.53432 0.27129 0.68939 0.0
O588 O 0.5787 0.28952 0.62553 0.0
O589 O 0.56612 0.31261 0.65979 0.0
O590 O 0.5381 0.28693 0.62494 0.0
O591 O 0.55974 0.26824 0.65688 0.0
H592 H 0.61144 0.29891 0.61719 0.0
H593 H 0.5553 0.28165 0.59177 0.0
H594 H 0.61851 0.30032 0.58307 0.0
H595 H 0.56329 0.2835 0.55812 0.0
H596 H 0.55503 0.32128 0.72336 0.0
H597 H 0.55057 0.34291 0.65738 0.0
H598 H 0.56719 0.30388 0.69633 0.0
H599 H 0.5385 0.35948 0.68501 0.0
H600 H 0.58532 0.36267 0.59508 0.0
H601 H 0.53059 0.35831 0.60529 0.0
H602 H 0.63976 0.27396 0.66166 0.0
H603 H 0.62818 0.3033 0.7161 0.0
H604 H 0.51191 0.26158 0.63436 0.0
H605 H 0.52753 0.29482 0.58891 0.0
H606 H 0.48244 0.24805 0.6126 0.0
H607 H 0.49782 0.28056 0.56786 0.0
H608 H 0.52981 0.24416 0.65979 0.0
H609 H 0.58516 0.248 0.65292 0.0
H610 H 0.52659 0.20849 0.65838 0.0
H611 H 0.58092 0.21223 0.65146 0.0
H612 H 0.57646 0.21593 0.58764 0.0
H613 H 0.52254 0.20231 0.60039 0.0
H614 H 0.48721 0.30597 0.66533 0.0
H615 H 0.50796 0.27039 0.7063 0.0
Li616 Li 0.01611 0.27657 0.93718 0.0
Li617 Li 0.99317 0.25443 0.90728 0.0
Li618 Li 0.01252 0.24034 0.93234 0.0
Li619 Li 0.02639 0.25729 0.90928 0.0
C620 C 0.98497 0.2471 0.94995 0.0
N621 N 0.96736 0.22702 0.97588 0.0
C622 C 0.97221 0.23002 0.94262 0.0
C623 C 0.98876 0.25403 0.97043 0.0
C624 C 0.96347 0.22005 0.95599 0.0
C625 C 0.9797 0.24366 0.9833 0.0
C626 C 0.01797 0.28704 0.89273 0.0
C627 C 0.0157 0.29027 0.85787 0.0
N628 N 0.03098 0.30426 0.86226 0.0
C629 C 0.03362 0.30147 0.89691 0.0
C630 C 0.00892 0.28137 0.87307 0.0
C631 C 0.03999 0.30998 0.88129 0.0
C632 C 0.03528 0.31486 0.95486 0.0
N633 N 0.01958 0.30188 0.95355 0.0
C634 C 1.00704 0.32635 0.97098 0.0
C635 C 1.00562 0.30723 0.96154 0.0
C636 C 0.02285 0.34028 0.97187 0.0
C637 C 0.03717 0.33421 0.96386 0.0
H638 H 0.04619 0.31035 0.94835 0.0
H639 H 0.99312 0.29683 0.95999 0.0
C640 C 0.957 0.23737 0.8852 0.0
N641 N 0.96952 0.25401 0.89208 0.0
C642 C 0.9398 0.23812 0.87538 0.0
C643 C 0.94867 0.27304 0.87979 0.0
C644 C 0.9656 0.27163 0.88955 0.0
C645 C 0.93532 0.25618 0.87262 0.0
H646 H 0.96027 0.2235 0.88755 0.0
H647 H 0.97567 0.2847 0.89527 0.0
C648 C 0.04442 0.25499 0.95409 0.0
N649 N 0.06284 0.24231 0.9859 0.0
C650 C 0.05345 0.23974 0.95072 0.0
C651 C 0.04486 0.2639 0.97358 0.0
C652 C 0.06264 0.2335 0.96702 0.0
C653 C 0.05424 0.25726 0.98948 0.0
C654 C 0.01078 0.22413 0.88576 0.0
C655 C 0.02545 0.21492 0.8868 0.0
C656 C 1.00031 0.22393 0.86726 0.0
C657 C 0.02949 0.20576 0.86922 0.0
C658 C 1.00478 0.21459 0.85002 0.0
N659 N 0.01916 0.20579 0.85135 0.0
C660 C 0.01156 0.19985 0.93437 0.0
C661 C 0.01472 0.21824 0.96637 0.0
C662 C 0.01285 0.18296 0.94278 0.0
N663 N 0.01274 0.2172 0.94612 0.0
C664 C 0.01586 0.20161 0.97541 0.0
C665 C 0.01516 0.18362 0.96361 0.0
H666 H 0.00975 0.19907 0.91835 0.0
H667 H 0.01578 0.23204 0.97564 0.0
C668 C 0.06331 0.26363 0.90514 0.0
N669 N 0.04647 0.25922 0.89411 0.0
C670 C 0.07854 0.26515 0.89588 0.0
C671 C 0.05907 0.25788 0.86388 0.0
C672 C 0.04418 0.25658 0.87378 0.0
C673 C 0.07664 0.26212 0.87491 0.0
H674 H 0.06499 0.26605 0.92124 0.0
H675 H 0.0308 0.25329 0.86513 0.0
O676 O 0.9939 0.25684 0.93715 0.0
O677 O 0.01173 0.27821 0.90774 0.0
O678 O 0.03517 0.26115 0.93836 0.0
O679 O 1.00656 0.23314 0.90279 0.0
H680 H 0.96923 0.22444 0.9268 0.0
H681 H 0.99873 0.26714 0.97633 0.0
H682 H 0.95362 0.20676 0.95056 0.0
H683 H 0.98253 0.24879 0.9992 0.0
H684 H 0.00887 0.28598 0.84258 0.0
H685 H 0.04087 0.30589 0.912 0.0
H686 H 0.99691 0.27005 0.86954 0.0
H687 H 0.05214 0.3211 0.88428 0.0
H688 H 0.99561 0.33041 0.97678 0.0
H689 H 0.04965 0.34438 0.96434 0.0
H690 H 0.93001 0.2247 0.87039 0.0
H691 H 0.94614 0.28729 0.87779 0.0
H692 H 0.0532 0.2327 0.93568 0.0
H693 H 0.03791 0.27571 0.9764 0.0
H694 H 0.06959 0.22163 0.96467 0.0
H695 H 0.05464 0.26395 1.00467 0.0
H696 H 0.03375 0.21504 0.90101 0.0
H697 H 0.98891 0.231 0.86621 0.0
H698 H 0.04087 0.19868 0.86977 0.0
H699 H 0.99683 0.21437 0.83558 0.0
H700 H 0.01194 0.16944 0.93298 0.0
H701 H 0.01776 0.20295 0.99153 0.0
H702 H 0.0917 0.26888 0.90514 0.0
H703 H 0.05677 0.25525 0.84772 0.0
Li704 Li 0.42301 0.04197 0.29377 0.0
Li705 Li 0.39633 0.02056 0.27024 0.0
Li706 Li 0.42021 0.0399 0.25343 0.0
Li707 Li 0.39726 0.05899 0.27252 0.0
C708 C 0.43913 0.01493 0.27326 0.0
N709 N 0.47289 1.00596 0.27639 0.0
C710 C 0.44149 0.9965 0.27696 0.0
C711 C 0.45394 0.02877 0.27114 0.0
C712 C 0.45867 0.99226 0.27852 0.0
C713 C 0.47089 0.02396 0.27275 0.0
C714 C 0.38402 0.03298 0.30467 0.0
C715 C 0.35476 0.02969 0.3143 0.0
N716 N 0.35883 0.01613 0.32566 0.0
C717 C 0.38796 0.01908 0.31649 0.0
C718 C 0.36733 0.03839 0.30356 0.0
C719 C 0.37502 0.0107 0.32697 0.0
C720 C 0.44424 0.058 0.3362 0.0
N721 N 0.43848 0.04195 0.32178 0.0
C722 C 0.45139 0.02288 0.34521 0.0
C723 C 0.44197 0.02457 0.32631 0.0
C724 C 0.45742 0.03907 0.36062 0.0
C725 C 0.45357 0.05689 0.35546 0.0
H726 H 0.44134 0.0718 0.333 0.0
H727 H 0.43718 0.01167 0.3153 0.0
C728 C 0.38844 0.97732 0.26287 0.0
N729 N 0.38071 0.99265 0.26845 0.0
C730 C 0.37993 0.9578 0.26305 0.0
C731 C 0.35497 0.96939 0.27396 0.0
C732 C 0.36399 0.98876 0.27362 0.0
C733 C 0.36291 0.95326 0.2689 0.0
H734 H 0.40146 0.98015 0.25835 0.0
H735 H 0.35759 1.00067 0.27787 0.0
C736 C 0.437 0.07999 0.27348 0.0
N737 N 0.46049 0.11253 0.26786 0.0
C738 C 0.43107 0.09247 0.26091 0.0
C739 C 0.45481 0.08411 0.28332 0.0
C740 C 0.44317 0.10884 0.25824 0.0
C741 C 0.4665 0.10062 0.28024 0.0
C742 C 0.37757 0.02548 0.23717 0.0
C743 C 0.37888 0.00975 0.22334 0.0
C744 C 0.36071 0.02815 0.24096 0.0
C745 C 0.36319 0.99694 0.2134 0.0
C746 C 0.34534 0.01502 0.23071 0.0
N747 N 0.34689 0.99982 0.21726 0.0
C748 C 0.43426 0.02078 0.21802 0.0
C749 C 0.44225 0.05475 0.22152 0.0
C750 C 0.44288 0.01877 0.20095 0.0
N751 N 0.4339 0.0386 0.22824 0.0
C752 C 0.45101 0.05336 0.20447 0.0
C753 C 0.45159 0.03514 0.19351 0.0
H754 H 0.42774 1.00783 0.22302 0.0
H755 H 0.44221 0.06898 0.22932 0.0
C756 C 0.38588 0.09688 0.29031 0.0
N757 N 0.38408 0.08386 0.27316 0.0
C758 C 0.37756 0.11348 0.29098 0.0
C759 C 0.36533 0.10382 0.25642 0.0
C760 C 0.37385 0.08739 0.25637 0.0
C761 C 0.36689 0.11762 0.27389 0.0
H762 H 0.39393 0.09458 0.30377 0.0
H763 H 0.37217 0.07741 0.2426 0.0
O764 O 0.42243 0.01941 0.27169 0.0
O765 O 0.39641 0.04121 0.29415 0.0
O766 O 0.42534 0.06393 0.27628 0.0
O767 O 0.39278 0.03764 0.24772 0.0
H768 H 0.43024 0.98565 0.27886 0.0
H769 H 0.45235 0.04305 0.26817 0.0
H770 H 0.46071 0.97809 0.28145 0.0
H771 H 0.48245 0.03454 0.2711 0.0
H772 H 0.34176 0.03368 0.31356 0.0
H773 H 0.40082 0.01471 0.3174 0.0
H774 H 0.36411 0.04913 0.29444 0.0
H775 H 0.37783 0.99985 0.3361 0.0
H776 H 0.45393 1.00872 0.3475 0.0
H777 H 0.45735 0.07001 0.36632 0.0
H778 H 0.38675 0.94634 0.25844 0.0
H779 H 0.34199 0.96723 0.27869 0.0
H780 H 0.41728 0.08947 0.25324 0.0
H781 H 0.45954 0.07465 0.29323 0.0
H782 H 0.4388 0.1186 0.2485 0.0
H783 H 0.48035 0.10398 0.2877 0.0
H784 H 0.39188 1.00738 0.22047 0.0
H785 H 0.35954 0.04013 0.25185 0.0
H786 H 0.36397 0.98466 0.20268 0.0
H787 H 0.33219 0.01687 0.23351 0.0
H788 H 0.44235 1.00424 0.19346 0.0
H789 H 0.45751 0.0667 0.20016 0.0
H790 H 0.37985 0.12319 0.305 0.0
H791 H 0.35731 0.10542 0.24264 0.0
Li792 Li 0.26792 0.16878 0.53028 0.0
Li793 Li 0.27976 0.14434 0.51196 0.0
Li794 Li 0.26585 0.16738 0.49337 0.0
Li795 Li 0.24658 0.14103 0.50982 0.0
C796 C 0.29881 0.19063 0.51922 0.0
N797 N 0.3214 0.22677 0.5292 0.0
C798 C 0.31637 0.19247 0.52924 0.0
C799 C 0.29279 0.20715 0.51416 0.0
C800 C 0.32756 0.21088 0.53421 0.0
C801 C 0.30441 0.22529 0.51934 0.0
C802 C 0.27557 0.13835 0.55026 0.0
C803 C 0.28034 0.12231 0.57907 0.0
N804 N 0.29709 0.13364 0.58456 0.0
C805 C 0.29282 0.14985 0.55623 0.0
C806 C 0.26926 0.12449 0.5618 0.0
C807 C 0.30349 0.14725 0.57359 0.0
C808 C 0.25947 0.17614 0.56854 0.0
N809 N 0.27009 0.18461 0.55642 0.0
C810 C 0.28293 0.21126 0.58285 0.0
C811 C 0.28162 0.20197 0.5632 0.0
C812 C 0.27233 0.20262 0.59577 0.0
C813 C 0.26032 0.18489 0.5882 0.0
H814 H 0.25043 0.16233 0.56299 0.0
H815 H 0.29011 0.20856 0.55365 0.0
C816 C 0.31458 0.13924 0.50546 0.0
N817 N 0.29976 0.13072 0.51231 0.0
C818 C 0.32987 0.13094 0.50636 0.0
C819 C 0.31444 0.10504 0.52117 0.0
C820 C 0.2994 0.11381 0.51991 0.0
C821 C 0.3301 0.11367 0.51451 0.0
H822 H 0.31457 0.15262 0.49939 0.0
H823 H 0.28751 0.10725 0.52531 0.0
C824 C 0.23773 0.18181 0.51978 0.0
N825 N 0.2205 0.20696 0.54017 0.0
C826 C 0.22601 0.17497 0.53235 0.0
C827 C 0.24048 0.20136 0.51733 0.0
C828 C 0.21748 0.18793 0.5426 0.0
C829 C 0.23169 0.21387 0.52783 0.0
C830 C 0.26722 0.1237 0.47735 0.0
C831 C 0.27955 0.12834 0.46466 0.0
C832 C 0.26241 0.10452 0.48067 0.0
C833 C 0.28696 0.11364 0.45553 0.0
C834 C 0.27012 0.09024 0.47125 0.0
N835 N 0.28214 0.09506 0.459 0.0
C836 C 0.28294 0.18832 0.46561 0.0
C837 C 0.25121 0.18206 0.4582 0.0
C838 C 0.28419 0.19786 0.44896 0.0
N839 N 0.26663 0.1808 0.47009 0.0
C840 C 0.25184 0.19116 0.44113 0.0
C841 C 0.26852 0.19935 0.43619 0.0
H842 H 0.29507 0.18695 0.47501 0.0
H843 H 0.23837 0.17577 0.46183 0.0
C844 C 0.22087 0.11116 0.52067 0.0
N845 N 0.22283 0.12506 0.50866 0.0
C846 C 0.20372 0.10136 0.52248 0.0
C847 C 0.19077 0.11978 0.49898 0.0
C848 C 0.20819 0.12935 0.49774 0.0
C849 C 0.18829 0.10577 0.51176 0.0
H850 H 0.23264 0.108 0.52927 0.0
H851 H 0.21001 0.14069 0.48856 0.0
O852 O 0.28774 0.17268 0.51405 0.0
O853 O 0.26485 0.14069 0.53331 0.0
O854 O 0.24641 0.16938 0.50988 0.0
O855 O 0.26036 0.13798 0.48702 0.0
H856 H 0.32133 0.17982 0.5331 0.0
H857 H 0.27931 0.20598 0.50633 0.0
H858 H 0.34117 0.21252 0.54201 0.0
H859 H 0.29991 0.23819 0.51553 0.0
H860 H 0.27562 0.11163 0.58813 0.0
H861 H 0.29791 0.1607 0.5476 0.0
H862 H 0.25593 0.11551 0.55752 0.0
H863 H 0.31686 0.15606 0.57835 0.0
H864 H 0.29253 0.22481 0.58801 0.0
H865 H 0.25163 0.17777 0.59738 0.0
H866 H 0.34139 0.13802 0.50068 0.0
H867 H 0.31392 0.09187 0.52777 0.0
H868 H 0.22369 0.15986 0.53439 0.0
H869 H 0.24921 0.20682 0.50737 0.0
H870 H 0.20851 0.18287 0.55252 0.0
H871 H 0.23375 0.22906 0.52614 0.0
H872 H 0.28349 0.14318 0.4621 0.0
H873 H 0.25298 0.10077 0.4906 0.0
H874 H 0.29659 0.11702 0.44576 0.0
H875 H 0.26661 0.07534 0.47375 0.0
H876 H 0.29741 0.20413 0.44631 0.0
H877 H 0.23932 0.19144 0.43177 0.0
H878 H 0.20255 0.0905 0.53228 0.0
H879 H 0.17934 0.12383 0.49055 0.0
Li880 Li 0.15237 0.06574 0.80945 0.0
Li881 Li 0.12785 0.04338 0.82328 0.0
Li882 Li 0.14972 0.03031 0.80584 0.0
Li883 Li 0.12722 0.043 0.78685 0.0
C884 C 0.168 0.04221 0.84159 0.0
N885 N 0.1944 0.02626 0.86134 0.0
C886 C 0.1641 0.03085 0.8563 0.0
C887 C 0.18537 0.04557 0.83703 0.0
C888 C 0.17762 0.02289 0.86609 0.0
C889 C 0.19852 0.03735 0.84715 0.0
C890 C 0.10986 0.06909 0.7984 0.0
C891 C 0.07758 0.06046 0.78933 0.0
N892 N 0.07801 0.0752 0.77833 0.0
C893 C 0.10999 0.08417 0.78704 0.0
C894 C 0.09355 0.05713 0.79959 0.0
C895 C 0.09373 0.08703 0.77699 0.0
C896 C 0.16536 0.10194 0.79821 0.0
N897 N 0.16815 0.09062 0.81254 0.0
C898 C 0.19489 0.11342 0.82856 0.0
C899 C 0.18242 0.09613 0.82773 0.0
C900 C 0.19236 0.1253 0.81389 0.0
C901 C 0.17724 0.11956 0.79875 0.0
H902 H 0.15415 0.09702 0.78606 0.0
H903 H 0.18437 0.0869 0.83894 0.0
C904 C 0.11306 0.02254 0.85132 0.0
N905 N 0.11501 0.04021 0.84513 0.0
C906 C 0.10541 0.01949 0.86829 0.0
C907 C 0.1011 0.05263 0.87178 0.0
C908 C 0.10909 0.05513 0.85484 0.0
C909 C 0.09945 0.0347 0.87889 0.0
H910 H 0.1179 0.01093 0.84331 0.0
H911 H 0.11087 0.06907 0.84968 0.0
C912 C 0.16535 0.04622 0.77361 0.0
N913 N 0.19057 0.04362 0.74888 0.0
C914 C 0.16057 0.03436 0.75498 0.0
C915 C 0.18291 0.05699 0.77952 0.0
C916 C 0.17353 0.03318 0.74274 0.0
C917 C 0.19548 0.05541 0.76685 0.0
C918 C 0.11597 1.00358 0.78994 0.0
C919 C 0.1243 0.99702 0.77432 0.0
C920 C 0.09998 0.9924 0.79318 0.0
C921 C 0.11643 0.97937 0.76206 0.0
C922 C 0.09251 0.97483 0.78059 0.0
N923 N 0.10082 0.96874 0.76541 0.0
C924 C 0.15544 0.99431 0.81526 0.0
C925 C 0.17775 1.00913 0.79829 0.0
C926 C 0.16362 0.97831 0.81641 0.0
N927 N 0.16251 1.00927 0.80623 0.0
C928 C 0.18639 0.99343 0.79912 0.0
C929 C 0.17932 0.9777 0.80825 0.0
H930 H 0.14343 0.99488 0.82169 0.0
H931 H 0.18335 0.02119 0.79144 0.0
C932 C 0.12095 0.05261 0.74865 0.0
N933 N 0.11329 0.04074 0.76056 0.0
C934 C 0.11344 0.05095 0.72855 0.0
C935 C 0.0897 0.02539 0.73336 0.0
C936 C 0.09772 0.02754 0.75345 0.0
C937 C 0.09779 0.03692 0.72049 0.0
H938 H 0.13323 0.06312 0.7547 0.0
H939 H 0.09173 0.01836 0.7632 0.0
O940 O 0.1548 0.0496 0.83137 0.0
O941 O 0.12563 0.06552 0.80773 0.0
O942 O 0.1528 0.0478 0.78571 0.0
O943 O 0.12334 0.02086 0.80208 0.0
H944 H 0.15077 0.02813 0.86006 0.0
H945 H 0.18859 0.05413 0.82554 0.0
H946 H 0.17476 0.014 0.87745 0.0
H947 H 0.21197 0.03969 0.84364 0.0
H948 H 0.06487 0.05126 0.79003 0.0
H949 H 0.12249 0.0935 0.78588 0.0
H950 H 0.09326 0.04523 0.80812 0.0
H951 H 0.09362 0.09861 0.76809 0.0
H952 H 0.20644 0.11742 0.84043 0.0
H953 H 0.17501 0.12827 0.78705 0.0
H954 H 0.10419 1.00538 0.87309 0.0
H955 H 0.09676 0.06476 0.87956 0.0
H956 H 0.14697 0.02625 0.74992 0.0
H957 H 0.18684 0.0664 0.79377 0.0
H958 H 0.17001 0.02401 0.72831 0.0
H959 H 0.20913 0.06357 0.77129 0.0
H960 H 0.13675 1.00541 0.77176 0.0
H961 H 0.09338 0.99731 0.80525 0.0
H962 H 0.12274 0.97412 0.74989 0.0
H963 H 0.08011 0.96604 0.78287 0.0
H964 H 0.15785 0.96667 0.82385 0.0
H965 H 0.19837 0.99351 0.79247 0.0
H966 H 0.11994 0.06047 0.71937 0.0
H967 H 0.07764 0.01438 0.72783 0.0
Li968 Li 0.22917 0.87208 0.99566 0.0
Li969 Li 0.25123 0.85189 1.00031 0.0
Li970 Li 0.25545 0.87802 0.98022 0.0
Li971 Li 0.23253 0.84846 0.96849 0.0
C972 C 0.26877 0.89427 0.01704 0.0
N973 N 0.29894 0.92317 0.03132 0.0
C974 C 0.28542 0.88942 0.02281 0.0
C975 C 0.26747 0.91383 0.0186 0.0
C976 C 0.3005 0.90425 0.02999 0.0
C977 C 0.28288 0.92822 0.02583 0.0
C978 C 0.22155 0.83115 0.00719 0.0
C979 C 0.22433 0.80112 0.01939 0.0
N980 N 0.21703 0.80692 0.03552 0.0
C981 C 0.21401 0.83677 0.02385 0.0
C982 C 0.22666 0.81313 1.00487 0.0
C983 C 0.21185 0.82432 0.03801 0.0
C984 C 0.19518 0.87965 1.00136 0.0
N985 N 0.21304 0.88381 0.00887 0.0
C986 C 0.20877 0.90644 0.03572 0.0
C987 C 0.21989 0.89641 0.02603 0.0
C988 C 0.19048 0.90337 0.02761 0.0
C989 C 0.18358 0.88951 0.01044 0.0
H990 H 0.19005 0.86905 0.98806 0.0
H991 H 0.23405 0.89893 0.03202 0.0
C992 C 0.27441 0.82804 0.01682 0.0
N993 N 0.26327 0.84052 0.02021 0.0
C994 C 0.28288 0.82059 0.03273 0.0
C995 C 0.26851 0.83947 0.05512 0.0
C996 C 0.26041 0.84652 0.03888 0.0
C997 C 0.27977 0.8262 0.05213 0.0
H998 H 0.27676 0.82391 1.00185 0.0
H999 H 0.25179 0.85682 0.04108 0.0
C1000 C 0.21708 0.88585 0.96339 0.0
N1001 N 0.18949 0.90566 0.9565 0.0
C1002 C 0.20096 0.87661 0.95091 0.0
C1003 C 0.21921 0.90519 0.97228 0.0
C1004 C 0.18717 0.88689 0.94761 0.0
C1005 C 0.20507 0.91493 0.96866 0.0
C1006 C 0.26266 0.84002 0.9583 0.0
C1007 C 0.26683 0.84859 0.94178 0.0
C1008 C 0.26152 0.82003 0.95778 0.0
C1009 C 0.2698 0.83699 0.925 0.0
C1010 C 0.26467 0.80895 0.94077 0.0
N1011 N 0.26868 0.81758 0.92486 0.0
C1012 C 0.29013 0.89147 0.97521 0.0
C1013 C 0.2721 0.91507 0.9713 0.0
C1014 C 0.30548 0.90492 0.97424 0.0
N1015 N 0.27395 0.8968 0.97406 0.0
C1016 C 0.28722 0.92914 0.97047 0.0
C1017 C 0.30419 0.92413 0.97224 0.0
H1018 H 0.29125 0.87697 0.97787 0.0
H1019 H 0.2591 0.91897 0.97068 0.0
C1020 C 0.21641 0.8115 0.94609 0.0
N1021 N 0.22163 0.83072 0.9452 0.0
C1022 C 0.21417 0.79782 0.92893 0.0
C1023 C 0.22076 0.82419 0.9101 0.0
C1024 C 0.22288 0.83732 0.92759 0.0
C1025 C 0.21742 0.80414 0.9109 0.0
H1026 H 0.21553 0.80671 0.96034 0.0
H1027 H 0.2273 0.8527 0.92746 0.0
O1028 O 0.25395 0.87999 0.00928 0.0
O1029 O 0.22411 0.84331 0.99336 0.0
O1030 O 0.23067 0.87597 0.96694 0.0
O1031 O 0.2595 0.85109 0.97479 0.0
H1032 H 0.28678 0.87441 0.02143 0.0
H1033 H 0.25477 0.91788 0.01394 0.0
H1034 H 0.31348 0.9007 0.03438 0.0
H1035 H 0.28209 0.94341 0.02697 0.0
H1036 H 0.2284 0.78724 0.01789 0.0
H1037 H 0.20998 0.85064 0.02593 0.0
H1038 H 0.23279 0.80867 0.99225 0.0
H1039 H 0.20611 0.82852 0.05102 0.0
H1040 H 0.21455 0.91705 0.04892 0.0
H1041 H 0.16946 0.88662 1.00394 0.0
H1042 H 0.2915 0.81039 0.0299 0.0
H1043 H 0.26608 0.84447 0.0699 0.0
H1044 H 0.19906 0.86163 0.94398 0.0
H1045 H 0.23147 0.91246 0.98223 0.0
H1046 H 0.1746 0.87991 0.93805 0.0
H1047 H 0.20647 0.92984 0.9756 0.0
H1048 H 0.26752 0.86399 0.94179 0.0
H1049 H 0.258 0.81308 0.97026 0.0
H1050 H 0.27292 0.8434 0.91207 0.0
H1051 H 0.26384 0.79347 0.94018 0.0
H1052 H 0.31836 0.90056 0.97609 0.0
H1053 H 0.28574 0.94384 0.96896 0.0
H1054 H 0.21141 0.78248 0.9301 0.0
H1055 H 0.22364 0.82974 0.89662 0.0
Li1056 Li 0.29246 0.40254 0.05248 0.0
Li1057 Li 0.30744 0.37817 0.07038 0.0
Li1058 Li 0.32598 0.40489 0.05376 0.0
Li1059 Li 0.30421 0.37784 0.0338 0.0
C1060 C 0.313 0.42117 0.09281 0.0
N1061 N 0.31467 0.44836 0.12606 0.0
C1062 C 0.30335 0.41636 0.10792 0.0
C1063 C 0.32371 0.43974 0.09475 0.0
C1064 C 0.3043 0.43033 0.12457 0.0
C1065 C 0.32432 0.4533 0.11163 0.0
C1066 C 0.27443 0.35753 0.03903 0.0
C1067 C 0.26734 0.32272 0.02949 0.0
N1068 N 0.25448 0.32458 0.01438 0.0
C1069 C 0.26112 0.35913 0.02348 0.0
C1070 C 0.27758 0.33922 0.04213 0.0
C1071 C 0.25119 0.34228 0.01115 0.0
C1072 C 0.26382 0.41814 0.03384 0.0
N1073 N 0.27245 0.41617 0.05205 0.0
C1074 C 0.25147 0.43125 0.06806 0.0
C1075 C 0.26653 0.42253 0.06901 0.0
C1076 C 0.24221 0.43342 0.04944 0.0
C1077 C 0.24871 0.42676 0.03219 0.0
H1078 H 0.26851 0.4127 0.02049 0.0
H1079 H 0.2733 0.42061 0.08333 0.0
C1080 C 0.32105 0.35721 0.10147 0.0
N1081 N 0.3067 0.36404 0.09316 0.0
C1082 C 0.31999 0.34722 0.11791 0.0
C1083 C 0.28959 0.35181 0.11729 0.0
C1084 C 0.29112 0.36134 0.10067 0.0
C1085 C 0.3041 0.3444 0.12626 0.0
H1086 H 0.33336 0.35949 0.09535 0.0
H1087 H 0.27985 0.36688 0.09388 0.0
C1088 C 0.30881 0.42389 0.02573 0.0
N1089 N 0.31267 0.46087 0.01572 0.0
C1090 C 0.31059 0.4268 1.00624 0.0
C1091 C 0.30888 0.43978 0.04008 0.0
C1092 C 0.31258 0.44562 1.00149 0.0
C1093 C 0.31086 0.45836 0.03474 0.0
C1094 C 0.33577 0.36509 0.04345 0.0
C1095 C 0.34422 0.37135 0.02797 0.0
C1096 C 0.33719 0.34702 0.04901 0.0
C1097 C 0.35393 0.35937 0.01822 0.0
C1098 C 0.34704 0.33547 0.03891 0.0
N1099 N 0.35513 0.34183 0.02385 0.0
C1100 C 0.36195 0.42643 0.07188 0.0
C1101 C 0.35399 0.42624 0.0372 0.0
C1102 C 0.37926 0.43714 0.0718 0.0
N1103 N 0.34966 0.42123 0.05472 0.0
C1104 C 0.371 0.43705 0.03647 0.0
C1105 C 0.384 0.44265 0.05389 0.0
H1106 H 0.3584 0.42208 0.08562 0.0
H1107 H 0.34439 0.42144 0.02357 0.0
C1108 C 0.29305 0.37012 0.9922 0.0
N1109 N 0.29994 0.36175 0.00756 0.0
C1110 C 0.29122 0.3612 0.97241 0.0
C1111 C 0.30299 0.33464 0.98438 0.0
C1112 C 0.30433 0.34399 1.00401 0.0
C1113 C 0.29669 0.34342 0.96812 0.0
H1114 H 0.28914 0.38396 0.99531 0.0
H1115 H 0.3093 0.33721 0.01634 0.0
O1116 O 0.31245 0.40759 0.07652 0.0
O1117 O 0.28473 0.37385 0.05081 0.0
O1118 O 0.30689 0.40553 0.03059 0.0
O1119 O 0.32616 0.37657 0.05313 0.0
H1120 H 0.29504 0.40207 0.10671 0.0
H1121 H 0.33151 0.44365 0.08336 0.0
H1122 H 0.29679 0.42683 0.1363 0.0
H1123 H 0.3325 0.46773 0.11328 0.0
H1124 H 0.26967 0.30845 0.03163 0.0
H1125 H 0.25865 0.37324 0.02084 0.0
H1126 H 0.28796 0.3378 0.05402 0.0
H1127 H 0.2409 0.34327 0.99898 0.0
H1128 H 0.24716 0.43629 0.08181 0.0
H1129 H 0.24195 0.42775 0.01747 0.0
H1130 H 0.33152 0.34161 0.12382 0.0
H1131 H 0.27715 0.35059 0.12317 0.0
H1132 H 0.31062 0.41468 0.99493 0.0
H1133 H 0.3072 0.43777 0.05509 0.0
H1134 H 0.31406 0.44808 0.98649 0.0
H1135 H 0.31091 0.47077 0.04572 0.0
H1136 H 0.34307 0.38518 0.02333 0.0
H1137 H 0.3306 0.34189 0.06086 0.0
H1138 H 0.36046 0.36398 1.00613 0.0
H1139 H 0.34821 0.32143 0.043 0.0
H1140 H 0.38879 0.44117 0.08563 0.0
H1141 H 0.37408 0.44056 0.02224 0.0
H1142 H 0.28567 0.36831 0.96059 0.0
H1143 H 0.30739 0.32098 0.98203 0.0
Li1144 Li 0.83015 0.18764 0.07929 0.0
Li1145 Li 0.84201 0.16946 0.05409 0.0
Li1146 Li 0.81679 0.18379 0.04441 0.0
Li1147 Li 0.81447 0.15564 0.06238 0.0
C1148 C 0.85821 0.20853 0.06386 0.0
N1149 N 0.89237 0.23047 0.07786 0.0
C1150 C 0.86932 0.20338 0.0795 0.0
C1151 C 0.86452 0.22483 0.05534 0.0
C1152 C 0.88653 0.21466 0.08637 0.0
C1153 C 0.88182 0.23574 0.06263 0.0
C1154 C 0.83722 0.14751 0.09131 0.0
C1155 C 0.83328 0.11311 0.0926 0.0
N1156 N 0.83499 0.11685 0.11282 0.0
C1157 C 0.83933 0.15102 0.11214 0.0
C1158 C 0.83455 0.12842 0.0815 0.0
C1159 C 0.83802 0.13533 0.12273 0.0
C1160 C 0.82518 0.19799 0.11801 0.0
N1161 N 0.83297 0.20522 0.10319 0.0
C1162 C 0.83775 0.23764 0.12055 0.0
C1163 C 0.83933 0.22461 0.10416 0.0
C1164 C 0.82973 0.23047 0.13599 0.0
C1165 C 0.8237 0.21041 0.13484 0.0
H1166 H 0.81915 0.18272 0.1162 0.0
H1167 H 0.84461 0.23013 0.09173 0.0
C1168 C 0.86899 0.17077 0.0299 0.0
N1169 N 0.86303 0.16353 0.04577 0.0
C1170 C 0.88206 0.16313 0.02111 0.0
C1171 C 0.88357 0.1421 0.04631 0.0
C1172 C 0.87047 0.15004 0.0545 0.0
C1173 C 0.88908 0.14817 0.029 0.0
H1174 H 0.86282 0.1816 0.02338 0.0
H1175 H 0.86553 0.14468 0.06715 0.0
C1176 C 0.79542 0.19331 0.07311 0.0
N1177 N 0.77725 0.22173 0.08543 0.0
C1178 C 0.78023 0.18852 0.08195 0.0
C1179 C 0.80138 0.21257 0.07053 0.0
C1180 C 0.77122 0.20309 0.08807 0.0
C1181 C 0.79201 0.22672 0.07687 0.0
C1182 C 0.82595 0.14956 0.01896 0.0
C1183 C 0.82698 0.15955 1.00267 0.0
C1184 C 0.83193 0.13202 0.0187 0.0
C1185 C 0.83426 0.15201 0.98655 0.0
C1186 C 0.8392 0.125 1.00235 0.0
N1187 N 0.84021 0.13507 0.98675 0.0
C1188 C 0.81391 0.20906 0.01654 0.0
C1189 C 0.78605 0.19121 0.02163 0.0
C1190 C 0.80508 0.21839 1.00264 0.0
N1191 N 0.80431 0.19572 0.02554 0.0
C1192 C 0.77663 0.20037 0.00797 0.0
C1193 C 0.78623 0.214 0.9982 0.0
H1194 H 0.82842 0.21231 0.02006 0.0
H1195 H 0.77884 0.18055 0.02916 0.0
C1196 C 0.78921 0.13396 0.08083 0.0
N1197 N 0.79764 0.1334 0.06472 0.0
C1198 C 0.77433 0.11954 0.08131 0.0
C1199 C 0.77788 0.10366 0.04915 0.0
C1200 C 0.79261 0.11847 0.04924 0.0
C1201 C 0.76813 0.10448 0.06499 0.0
H1202 H 0.79345 0.1462 0.09279 0.0
H1203 H 0.79946 0.11856 0.03652 0.0
O1204 O 0.8413 0.19771 0.05672 0.0
O1205 O 0.83843 0.16272 0.08067 0.0
O1206 O 0.80463 0.17928 0.06749 0.0
O1207 O 0.81924 0.15698 0.03509 0.0
H1208 H 0.86476 0.19087 0.08636 0.0
H1209 H 0.85612 0.22904 0.04323 0.0
H1210 H 0.89525 0.21085 0.09847 0.0
H1211 H 0.88685 0.2484 0.05618 0.0
H1212 H 0.83096 0.09826 0.08514 0.0
H1213 H 0.84227 0.16569 0.1201 0.0
H1214 H 0.83326 0.12543 0.06546 0.0
H1215 H 0.83952 0.13786 0.13885 0.0
H1216 H 0.84218 0.25312 0.12091 0.0
H1217 H 0.81698 0.20454 0.14629 0.0
H1218 H 0.88608 0.16829 0.00787 0.0
H1219 H 0.88845 0.13044 0.05275 0.0
H1220 H 0.77549 0.1737 0.08413 0.0
H1221 H 0.81323 0.2166 0.06392 0.0
H1222 H 0.75944 0.19959 0.09495 0.0
H1223 H 0.79652 0.24168 0.07504 0.0
H1224 H 0.82237 0.17307 1.00251 0.0
H1225 H 0.83124 0.12403 0.0311 0.0
H1226 H 0.83525 0.15968 0.97393 0.0
H1227 H 0.84409 0.11159 1.00209 0.0
H1228 H 0.81289 0.22896 0.99548 0.0
H1229 H 0.76208 0.1966 1.00479 0.0
H1230 H 0.76708 0.12095 0.09369 0.0
H1231 H 0.77366 0.09221 0.03639 0.0
Li1232 Li 0.17449 0.52382 0.29566 0.0
Li1233 Li 0.15062 0.5045 0.31199 0.0
Li1234 Li 0.17303 0.48517 0.29329 0.0
Li1235 Li 0.14719 0.50239 0.27161 0.0
C1236 C 0.19248 0.5159 0.33135 0.0
N1237 N 0.22244 0.53492 0.35867 0.0
C1238 C 0.19077 0.52938 0.34733 0.0
C1239 C 0.20937 0.51193 0.32934 0.0
C1240 C 0.2061 0.53889 0.36096 0.0
C1241 C 0.22437 0.52174 0.3433 0.0
C1242 C 0.14204 0.53998 0.30141 0.0
C1243 C 0.11888 0.55885 0.3017 0.0
N1244 N 0.12903 0.57113 0.31782 0.0
C1245 C 0.15222 0.55273 0.31801 0.0
C1246 C 0.12522 0.543 0.29319 0.0
C1247 C 0.14542 0.56842 0.32608 0.0
C1248 C 0.18161 0.56307 0.2844 0.0
N1249 N 0.18962 0.55169 0.29612 0.0
C1250 C 0.21519 0.57881 0.30674 0.0
C1251 C 0.2063 0.5594 0.30715 0.0
C1252 C 0.20712 0.59101 0.2949 0.0
C1253 C 0.18999 0.58245 0.28358 0.0
H1254 H 0.16848 0.5571 0.27551 0.0
H1255 H 0.21283 0.55062 0.31648 0.0
C1256 C 0.14297 0.49884 0.35409 0.0
N1257 N 0.13673 0.50555 0.33703 0.0
C1258 C 0.13444 0.50013 0.37131 0.0
C1259 C 0.11293 0.5153 0.35388 0.0
C1260 C 0.12175 0.51358 0.33692 0.0
C1261 C 0.11908 0.50862 0.3718 0.0
H1262 H 0.15483 0.49255 0.35458 0.0
H1263 H 0.11647 0.51884 0.32362 0.0
C1264 C 0.18728 0.51303 0.26298 0.0
N1265 N 0.21408 0.53437 0.24709 0.0
C1266 C 0.18292 0.52469 0.24874 0.0
C1267 C 0.20523 0.51218 0.26912 0.0
C1268 C 0.19667 0.53538 0.24089 0.0
C1269 C 0.2186 0.52308 0.2609 0.0
C1270 C 0.13006 0.46978 0.29506 0.0
C1271 C 0.13222 0.4564 0.30812 0.0
C1272 C 0.11297 0.47327 0.28876 0.0
C1273 C 0.11714 0.44659 0.3146 0.0
C1274 C 0.09822 0.46317 0.29558 0.0
N1275 N 0.1006 0.45015 0.30825 0.0
C1276 C 0.1856 0.44855 0.3069 0.0
C1277 C 0.19586 0.45589 0.27762 0.0
C1278 C 0.19401 0.43203 0.30656 0.0
N1279 N 0.18641 0.46044 0.29253 0.0
C1280 C 0.20451 0.43953 0.27679 0.0
C1281 C 0.20387 0.42683 0.29134 0.0
H1282 H 0.17828 0.45171 0.31887 0.0
H1283 H 0.19681 0.46497 0.26608 0.0
C1284 C 0.12801 0.52027 0.23971 0.0
N1285 N 0.1318 0.50288 0.2438 0.0
C1286 C 0.11861 0.5222 0.22086 0.0
C1287 C 0.11704 0.48841 0.2099 0.0
C1288 C 0.12638 0.48706 0.22906 0.0
C1289 C 0.11288 0.50622 0.20516 0.0
H1290 H 0.13252 0.53298 0.25105 0.0
H1291 H 0.12954 0.47328 0.23194 0.0
O1292 O 0.17769 0.50652 0.31779 0.0
O1293 O 0.14842 0.52446 0.29342 0.0
O1294 O 0.17409 0.5031 0.27143 0.0
O1295 O 0.1447 0.4801 0.28917 0.0
H1296 H 0.17774 0.5324 0.34922 0.0
H1297 H 0.21086 0.50141 0.31711 0.0
H1298 H 0.20501 0.54941 0.37338 0.0
H1299 H 0.23755 0.51888 0.34191 0.0
H1300 H 0.10587 0.56136 0.29552 0.0
H1301 H 0.16526 0.55058 0.32453 0.0
H1302 H 0.11707 0.5331 0.28051 0.0
H1303 H 0.15317 0.57844 0.3389 0.0
H1304 H 0.22822 0.58426 0.31602 0.0
H1305 H 0.18301 0.59056 0.2738 0.0
H1306 H 0.14021 0.49481 0.38437 0.0
H1307 H 0.10113 0.5217 0.35272 0.0
H1308 H 0.16908 0.52563 0.24398 0.0
H1309 H 0.20881 0.50331 0.28024 0.0
H1310 H 0.19352 0.54455 0.22992 0.0
H1311 H 0.23257 0.52262 0.26556 0.0
H1312 H 0.14542 0.45374 0.3133 0.0
H1313 H 0.11115 0.48378 0.27883 0.0
H1314 H 0.1186 0.43621 0.32473 0.0
H1315 H 0.0849 0.46572 0.29086 0.0
H1316 H 0.19243 0.42324 0.31826 0.0
H1317 H 0.21188 0.43715 0.2647 0.0
H1318 H 0.11581 0.53632 0.21882 0.0
H1319 H 0.1135 0.47548 0.19877 0.0
Li1320 Li 0.79226 0.90202 0.55287 0.0
Li1321 Li 0.80737 0.88034 0.57227 0.0
Li1322 Li 0.82756 0.90483 0.55725 0.0
Li1323 Li 0.80638 0.87665 0.53624 0.0
C1324 C 0.81194 0.91213 0.5978 0.0
N1325 N 0.81296 0.91476 0.63854 0.0
C1326 C 0.79601 0.91066 0.60567 0.0
C1327 C 0.82839 0.91501 0.61062 0.0
C1328 C 0.79681 0.91201 0.62631 0.0
C1329 C 0.82862 0.91629 0.63118 0.0
C1330 C 0.77662 0.85478 0.54975 0.0
C1331 C 0.77622 0.82041 0.54656 0.0
N1332 N 0.75845 0.81701 0.5479 0.0
C1333 C 0.75834 0.85097 0.55101 0.0
C1334 C 0.78564 0.83942 0.54745 0.0
C1335 C 0.74939 0.83177 0.55008 0.0
C1336 C 0.75834 0.90774 0.53468 0.0
N1337 N 0.77221 0.9153 0.54997 0.0
C1338 C 0.75666 0.94007 0.56108 0.0
C1339 C 0.77165 0.93122 0.56305 0.0
C1340 C 0.74207 0.93265 0.54536 0.0
C1341 C 0.74323 0.91626 0.53199 0.0
H1342 H 0.75902 0.895 0.52451 0.0
H1343 H 0.78275 0.93694 0.57519 0.0
C1344 C 0.82116 0.86427 0.60695 0.0
N1345 N 0.80596 0.86721 0.59587 0.0
C1346 C 0.82031 0.85548 0.62419 0.0
C1347 C 0.78819 0.8529 0.61848 0.0
C1348 C 0.78966 0.86173 0.60139 0.0
C1349 C 0.80364 0.84963 0.63029 0.0
H1350 H 0.83404 0.86897 0.60254 0.0
H1351 H 0.77774 0.86441 0.59264 0.0
C1352 C 0.80949 0.90472 0.51321 0.0
N1353 N 0.80937 0.90301 0.47267 0.0
C1354 C 0.82418 0.90026 0.505 0.0
C1355 C 0.79484 0.90855 0.50084 0.0
C1356 C 0.82383 0.89938 0.48446 0.0
C1357 C 0.79501 0.90757 0.48037 0.0
C1358 C 0.83955 0.86584 0.55426 0.0
C1359 C 0.85384 0.87257 0.54469 0.0
C1360 C 0.83821 0.84779 0.56083 0.0
C1361 C 0.86642 0.861 0.54159 0.0
C1362 C 0.85106 0.83665 0.55744 0.0
N1363 N 0.86477 0.84342 0.54795 0.0
C1364 C 0.86541 0.92032 0.57206 0.0
C1365 C 0.85277 0.93401 0.54502 0.0
C1366 C 0.88257 0.93114 0.57163 0.0
N1367 N 0.85092 0.92182 0.55878 0.0
C1368 C 0.86967 0.9449 0.54389 0.0
C1369 C 0.88502 0.94355 0.55722 0.0
H1370 H 0.86374 0.91036 0.58273 0.0
H1371 H 0.84115 0.93495 0.53451 0.0
C1372 C 0.78785 0.85945 0.49752 0.0
N1373 N 0.80292 0.85944 0.51068 0.0
C1374 C 0.78544 0.85013 0.47775 0.0
C1375 C 0.81347 0.83967 0.48563 0.0
C1376 C 0.81547 0.84943 0.50517 0.0
C1377 C 0.79849 0.84031 0.47146 0.0
H1378 H 0.77799 0.86741 0.50217 0.0
H1379 H 0.82733 0.84943 0.51565 0.0
O1380 O 0.81138 0.91011 0.5776 0.0
O1381 O 0.78558 0.87351 0.5508 0.0
O1382 O 0.80932 0.90499 0.5332 0.0
O1383 O 0.82721 0.87704 0.55766 0.0
H1384 H 0.78315 0.90817 0.5959 0.0
H1385 H 0.84082 0.91604 0.60474 0.0
H1386 H 0.78458 0.91076 0.63261 0.0
H1387 H 0.84125 0.91842 0.64129 0.0
H1388 H 0.78304 0.80837 0.54479 0.0
H1389 H 0.75118 0.86275 0.55277 0.0
H1390 H 0.79972 0.84213 0.54625 0.0
H1391 H 0.73525 0.82859 0.55109 0.0
H1392 H 0.75644 0.95241 0.57203 0.0
H1393 H 0.73263 0.91009 0.51942 0.0
H1394 H 0.83266 0.8536 0.63284 0.0
H1395 H 0.77499 0.8485 0.62227 0.0
H1396 H 0.8356 0.8972 0.51435 0.0
H1397 H 0.7834 0.91213 0.50695 0.0
H1398 H 0.83503 0.89575 0.47789 0.0
H1399 H 0.78372 0.91039 0.47059 0.0
H1400 H 0.85516 0.88651 0.53957 0.0
H1401 H 0.82739 0.84245 0.56852 0.0
H1402 H 0.87749 0.86599 0.53411 0.0
H1403 H 0.85015 0.82263 0.56238 0.0
H1404 H 0.89378 0.92971 0.58249 0.0
H1405 H 0.87068 0.95387 0.53226 0.0
H1406 H 0.77356 0.85081 0.46743 0.0
H1407 H 0.82392 0.83236 0.48145 0.0
Li1408 Li 0.94395 1.00735 0.28059 0.0
Li1409 Li 0.92018 0.98291 0.26101 0.0
Li1410 Li 0.94341 1.00442 0.24462 0.0
Li1411 Li 0.91995 0.0182 0.26137 0.0
C1412 C 0.96113 0.98002 0.27331 0.0
N1413 N 0.99055 0.97306 0.29745 0.0
C1414 C 0.95871 0.96745 0.28732 0.0
C1415 C 0.97846 0.98896 0.27144 0.0
C1416 C 0.97378 0.96416 0.29943 0.0
C1417 C 0.99318 0.98526 0.28381 0.0
C1418 C 0.90122 1.00002 0.28779 0.0
C1419 C 0.86912 0.9937 0.27685 0.0
N1420 N 0.86662 0.99425 0.29616 0.0
C1421 C 0.89833 1.0007 0.30755 0.0
C1422 C 0.88649 0.99664 0.27236 0.0
C1423 C 0.88074 0.99768 0.31146 0.0
C1424 C 0.97592 0.02287 0.31194 0.0
N1425 N 0.95886 0.01213 0.30686 0.0
C1426 C 0.95868 1.00693 0.34071 0.0
C1427 C 0.95045 1.0038 0.32074 0.0
C1428 C 0.9759 0.01874 0.34666 0.0
C1429 C 0.98469 0.02645 0.33186 0.0
H1430 H 0.98272 0.02881 0.30066 0.0
H1431 H 0.93724 0.99464 0.31626 0.0
C1432 C 0.89896 0.94513 0.24278 0.0
N1433 N 0.9055 0.95763 0.26013 0.0
C1434 C 0.88708 0.92756 0.24275 0.0
C1435 C 0.88947 0.93578 0.27846 0.0
C1436 C 0.90142 0.95299 0.27784 0.0
C1437 C 0.8819 0.92294 0.26073 0.0
H1438 H 0.90264 0.94899 0.22891 0.0
H1439 H 0.90723 0.96283 0.29152 0.0
C1440 C 0.95811 0.04398 0.27458 0.0
N1441 N 0.98263 0.07544 0.29677 0.0
C1442 C 0.95349 0.05482 0.29085 0.0
C1443 C 0.97516 0.04917 0.26954 0.0
C1444 C 0.9661 0.07065 0.30191 0.0
C1445 C 0.98737 0.06513 0.28095 0.0
C1446 C 0.90467 0.99619 0.22041 0.0
C1447 C 0.90979 1.00736 0.20596 0.0
C1448 C 0.88779 0.98371 0.21664 0.0
C1449 C 0.89793 1.00607 0.18815 0.0
C1450 C 0.8763 0.9828 0.19863 0.0
N1451 N 0.88156 0.99392 0.18488 0.0
C1452 C 0.96022 0.99126 0.21166 0.0
C1453 C 0.95877 0.02462 0.21642 0.0
C1454 C 0.96777 0.99338 0.19437 0.0
N1455 N 0.95573 1.00677 0.22216 0.0
C1456 C 0.96599 0.02731 0.19913 0.0
C1457 C 0.97044 0.01154 0.18772 0.0
H1458 H 0.95762 0.97719 0.21648 0.0
H1459 H 0.95499 0.0367 0.22495 0.0
C1460 C 0.90222 0.04607 0.27838 0.0
N1461 N 0.90562 0.03774 0.2607 0.0
C1462 C 0.89248 0.06093 0.27897 0.0
C1463 C 0.8898 0.05837 0.24313 0.0
C1464 C 0.89971 0.04366 0.24326 0.0
C1465 C 0.88615 0.06727 0.26118 0.0
H1466 H 0.90723 0.04132 0.29212 0.0
H1467 H 0.90292 0.03726 0.22946 0.0
O1468 O 0.94656 0.98392 0.26177 0.0
O1469 O 0.91839 1.00287 0.28372 0.0
O1470 O 0.94597 0.02846 0.26355 0.0
O1471 O 0.91631 0.99698 0.23781 0.0
H1472 H 0.94534 0.96052 0.28898 0.0
H1473 H 0.9805 0.99882 0.26071 0.0
H1474 H 0.97214 0.95457 0.31045 0.0
H1475 H 1.00669 0.99216 0.28263 0.0
H1476 H 0.85762 0.99106 0.265 0.0
H1477 H 0.90952 1.00358 0.31978 0.0
H1478 H 0.88845 0.99655 0.25711 0.0
H1479 H 0.87833 0.99811 0.32668 0.0
H1480 H 0.95159 1.00009 0.35139 0.0
H1481 H 0.99804 0.03551 0.33568 0.0
H1482 H 0.88158 0.918 0.22876 0.0
H1483 H 0.88611 0.93257 0.29269 0.0
H1484 H 0.94041 0.0509 0.29502 0.0
H1485 H 0.97898 0.04085 0.25707 0.0
H1486 H 0.96275 0.07911 0.3146 0.0
H1487 H 1.00063 0.06928 0.27727 0.0
H1488 H 0.92264 0.01724 0.2086 0.0
H1489 H 0.88354 0.97475 0.22744 0.0
H1490 H 0.90172 0.01476 0.17694 0.0
H1491 H 0.86321 0.97324 0.19559 0.0
H1492 H 0.97098 0.98084 0.18596 0.0
H1493 H 0.96801 0.04159 0.19468 0.0
H1494 H 0.88987 0.06733 0.2932 0.0
H1495 H 0.88541 0.06305 0.22911 0.0
Li1496 Li 0.34419 0.68385 0.59896 0.0
Li1497 Li 0.35175 0.66253 0.57438 0.0
Li1498 Li 0.3305 0.68288 0.5657 0.0
Li1499 Li 0.32212 0.6545 0.5831 0.0
C1500 C 0.37046 0.70464 0.58664 0.0
N1501 N 0.3987 0.73221 0.60904 0.0
C1502 C 0.38589 0.69903 0.59547 0.0
C1503 C 0.36941 0.72428 0.58911 0.0
C1504 C 0.40002 0.71319 0.60675 0.0
C1505 C 0.38382 0.73799 0.60052 0.0
C1506 C 0.34278 0.65098 0.61833 0.0
C1507 C 0.34814 0.63256 0.64516 0.0
N1508 N 0.33672 0.64116 0.65497 0.0
C1509 C 0.33107 0.65962 0.62869 0.0
C1510 C 0.3514 0.63736 0.62665 0.0
C1511 C 0.32821 0.65447 0.64719 0.0
C1512 C 0.34573 0.71745 0.62497 0.0
N1513 N 0.35291 0.7013 0.62325 0.0
C1514 C 0.36993 0.7108 0.65621 0.0
C1515 C 0.36511 0.69791 0.6382 0.0
C1516 C 0.36237 0.72741 0.65844 0.0
C1517 C 0.35039 0.73082 0.64241 0.0
H1518 H 0.33615 0.71978 0.61287 0.0
H1519 H 0.37074 0.68499 0.63634 0.0
C1520 C 0.37804 0.65893 0.55062 0.0
N1521 N 0.36882 0.65045 0.56383 0.0
C1522 C 0.38767 0.64833 0.53919 0.0
C1523 C 0.37868 0.62089 0.55594 0.0
C1524 C 0.36926 0.63201 0.56703 0.0
C1525 C 0.3877 0.62891 0.54148 0.0
H1526 H 0.37707 0.67354 0.5482 0.0
H1527 H 0.36137 0.62561 0.57732 0.0
C1528 C 0.30367 0.68984 0.58465 0.0
N1529 N 0.27433 0.70643 0.57454 0.0
C1530 C 0.28624 0.67922 0.58358 0.0
C1531 C 0.30615 0.70908 0.58101 0.0
C1532 C 0.27159 0.68782 0.57834 0.0
C1533 C 0.29116 0.71715 0.57577 0.0
C1534 C 0.3309 0.64389 0.54024 0.0
C1535 C 0.33682 0.65245 0.52442 0.0
C1536 C 0.3284 0.62374 0.53945 0.0
C1537 C 0.34038 0.64068 0.50812 0.0
C1538 C 0.33211 0.61248 0.52289 0.0
N1539 N 0.33799 0.62111 0.50772 0.0
C1540 C 0.33062 0.71099 0.53972 0.0
C1541 C 0.3042 0.68644 0.53497 0.0
C1542 C 0.32346 0.71911 0.52366 0.0
N1543 N 0.32091 0.69498 0.54497 0.0
C1544 C 0.29649 0.6941 0.51888 0.0
C1545 C 0.30624 0.71054 0.51296 0.0
H1546 H 0.34399 0.71724 0.54781 0.0
H1547 H 0.29695 0.67354 0.53942 0.0
C1548 C 0.29941 0.62274 0.59681 0.0
N1549 N 0.30226 0.63395 0.58238 0.0
C1550 C 0.28347 0.60888 0.59454 0.0
C1551 C 0.27425 0.6178 0.56228 0.0
C1552 C 0.29024 0.63144 0.5652 0.0
C1553 C 0.27055 0.6065 0.57719 0.0
H1554 H 0.30926 0.62464 0.61019 0.0
H1555 H 0.29284 0.64057 0.55399 0.0
O1556 O 0.35632 0.69092 0.576 0.0
O1557 O 0.34622 0.65595 0.60036 0.0
O1558 O 0.31817 0.68158 0.58971 0.0
O1559 O 0.32796 0.65522 0.55663 0.0
H1560 H 0.38684 0.68386 0.59383 0.0
H1561 H 0.35747 0.72884 0.58258 0.0
H1562 H 0.41201 0.70905 0.61376 0.0
H1563 H 0.38315 0.75323 0.60269 0.0
H1564 H 0.35473 0.62204 0.65175 0.0
H1565 H 0.32424 0.67018 0.62264 0.0
H1566 H 0.36055 0.63059 0.61888 0.0
H1567 H 0.31921 0.66106 0.65535 0.0
H1568 H 0.37912 0.70768 0.66835 0.0
H1569 H 0.34396 0.74324 0.64369 0.0
H1570 H 0.3946 0.65506 0.52833 0.0
H1571 H 0.37815 0.60587 0.55795 0.0
H1572 H 0.28402 0.66457 0.58697 0.0
H1573 H 0.3195 0.71756 0.58167 0.0
H1574 H 0.25804 0.67972 0.57738 0.0
H1575 H 0.2929 0.7319 0.57262 0.0
H1576 H 0.33891 0.66804 0.52486 0.0
H1577 H 0.32389 0.61693 0.55164 0.0
H1578 H 0.34512 0.64711 0.49584 0.0
H1579 H 0.33039 0.59689 0.52214 0.0
H1580 H 0.33134 0.73187 0.51957 0.0
H1581 H 0.2833 0.68692 0.51081 0.0
H1582 H 0.28115 0.60032 0.60632 0.0
H1583 H 0.26456 0.61673 0.54885 0.0
Li1584 Li 0.41625 0.48529 0.76288 0.0
Li1585 Li 0.44143 0.50922 0.78209 0.0
Li1586 Li 0.41828 0.52065 0.76232 0.0
Li1587 Li 0.4397 0.50504 0.74562 0.0
C1588 C 0.39947 0.50364 0.79072 0.0
N1589 N 0.36602 0.49858 0.80208 0.0
C1590 C 0.39801 0.50496 0.81093 0.0
C1591 C 0.38393 0.49981 0.77631 0.0
C1592 C 0.38098 0.50234 0.81637 0.0
C1593 C 0.36714 0.49728 0.78233 0.0
C1594 C 0.45669 0.48012 0.77451 0.0
C1595 C 0.48865 0.48464 0.78534 0.0
N1596 N 0.48567 0.47139 0.79789 0.0
C1597 C 0.45391 0.46649 0.78742 0.0
C1598 C 0.47417 0.48923 0.77336 0.0
C1599 C 0.46875 0.4623 0.79916 0.0
C1600 C 0.39141 0.44901 0.7466 0.0
N1601 N 0.40082 0.4608 0.76342 0.0
C1602 C 0.38782 0.43897 0.78389 0.0
C1603 C 0.39939 0.45598 0.78181 0.0
C1604 C 0.3777 0.42651 0.76685 0.0
C1605 C 0.37974 0.43171 0.74798 0.0
H1606 H 0.3929 0.45305 0.73212 0.0
H1607 H 0.40711 0.46553 0.79496 0.0
C1608 C 0.47257 0.52611 0.81349 0.0
N1609 N 0.45644 0.5135 0.80806 0.0
C1610 C 0.48166 0.5292 0.83328 0.0
C1611 C 0.45759 0.50596 0.84125 0.0
C1612 C 0.44905 0.50331 0.82143 0.0
C1613 C 0.47399 0.51927 0.84756 0.0
H1614 H 0.47822 0.53405 0.80259 0.0
H1615 H 0.43634 0.49317 0.81667 0.0
C1616 C 0.40167 0.50157 0.72265 0.0
N1617 N 0.37964 0.50623 0.6887 0.0
C1618 C 0.40846 0.51352 0.70956 0.0
C1619 C 0.38372 0.49174 0.71826 0.0
C1620 C 0.39711 0.51576 0.69254 0.0
C1621 C 0.37278 0.49436 0.70109 0.0
C1622 C 0.44985 0.54795 0.77576 0.0
C1623 C 0.4433 0.55212 0.7935 0.0
C1624 C 0.46142 0.56253 0.76922 0.0
C1625 C 0.4485 0.57082 0.80445 0.0
C1626 C 0.46632 0.58106 0.7806 0.0
N1627 N 0.45981 0.58479 0.79783 0.0
C1628 C 0.39739 0.5477 0.77677 0.0
C1629 C 0.40505 0.55103 0.74498 0.0
C1630 C 0.38823 0.56302 0.77607 0.0
N1631 N 0.40522 0.54165 0.76114 0.0
C1632 C 0.39592 0.56632 0.74356 0.0
C1633 C 0.38723 0.57248 0.7592 0.0
H1634 H 0.39852 0.54098 0.79006 0.0
H1635 H 0.41225 0.54692 0.73328 0.0
C1636 C 0.44391 0.49269 0.70548 0.0
N1637 N 0.45176 0.50496 0.72265 0.0
C1638 C 0.45109 0.4941 0.6879 0.0
C1639 C 0.47487 0.52004 0.70616 0.0
C1640 C 0.46709 0.51832 0.72334 0.0
C1641 C 0.46668 0.50808 0.688 0.0
H1642 H 0.43169 0.48223 0.70527 0.0
H1643 H 0.47303 0.528 0.73711 0.0
O1644 O 0.41606 0.50589 0.78516 0.0
O1645 O 0.44235 0.48491 0.7634 0.0
O1646 O 0.41271 0.49885 0.7392 0.0
O1647 O 0.44486 0.52979 0.76464 0.0
H1648 H 0.40991 0.50799 0.82231 0.0
H1649 H 0.38485 0.49894 0.76068 0.0
H1650 H 0.37964 0.5033 0.83196 0.0
H1651 H 0.35501 0.49432 0.77131 0.0
H1652 H 0.50226 0.49165 0.78471 0.0
H1653 H 0.44044 0.45939 0.78852 0.0
H1654 H 0.47649 0.4999 0.7635 0.0
H1655 H 0.46683 0.45186 0.80932 0.0
H1656 H 0.38658 0.43586 0.79876 0.0
H1657 H 0.37249 0.42247 0.73438 0.0
H1658 H 0.49426 0.53962 0.83747 0.0
H1659 H 0.45136 0.49763 0.85156 0.0
H1660 H 0.42232 0.52121 0.71265 0.0
H1661 H 0.37826 0.48208 0.72792 0.0
H1662 H 0.40218 0.52509 0.68239 0.0
H1663 H 0.35885 0.4869 0.69757 0.0
H1664 H 0.4343 0.54107 0.7988 0.0
H1665 H 0.46654 0.55957 0.75547 0.0
H1666 H 0.44354 0.57424 0.8182 0.0
H1667 H 0.47527 0.59249 0.77572 0.0
H1668 H 0.3823 0.56764 0.78881 0.0
H1669 H 0.39564 0.57316 0.73027 0.0
H1670 H 0.44443 0.48445 0.67432 0.0
H1671 H 0.48682 0.5311 0.70692 0.0
Li1672 Li 0.65135 1.00451 0.81466 0.0
Li1673 Li 0.67531 0.02387 0.79775 0.0
Li1674 Li 0.64853 1.00212 0.77431 0.0
Li1675 Li 0.67436 0.98535 0.79555 0.0
C1676 C 0.6327 0.02984 0.79377 0.0
N1677 N 0.59932 0.03972 0.78852 0.0
C1678 C 0.63113 0.04859 0.79044 0.0
C1679 C 0.61728 0.0161 0.79433 0.0
C1680 C 0.61414 0.0533 0.78783 0.0
C1681 C 0.60053 0.02139 0.79169 0.0
C1682 C 0.69386 0.01904 0.83111 0.0
C1683 C 0.72607 0.02973 0.83815 0.0
N1684 N 0.72424 0.04485 0.85153 0.0
C1685 C 0.69227 0.03467 0.84488 0.0
C1686 C 0.71085 0.01652 0.82765 0.0
C1687 C 0.70781 0.04756 0.85508 0.0
C1688 C 0.63681 0.99192 0.85228 0.0
N1689 N 0.63761 1.00583 0.84 0.0
C1690 C 0.62089 0.02311 0.86172 0.0
C1691 C 0.62981 0.02135 0.84485 0.0
C1692 C 0.61982 1.00905 0.87484 0.0
C1693 C 0.62818 0.99325 0.86946 0.0
H1694 H 0.64309 0.97967 0.84903 0.0
H1695 H 0.63048 0.03274 0.83569 0.0
C1696 C 0.70715 0.05559 0.79313 0.0
N1697 N 0.69091 0.05178 0.79943 0.0
C1698 C 0.71614 0.07494 0.79269 0.0
C1699 C 0.69217 0.08668 0.80586 0.0
C1700 C 0.68367 0.06716 0.80608 0.0
C1701 C 0.70867 0.09114 0.79884 0.0
H1702 H 0.71317 0.04363 0.78803 0.0
H1703 H 0.67104 0.06438 0.81148 0.0
C1704 C 0.63469 0.9648 0.79617 0.0
N1705 N 0.61138 0.93367 0.80489 0.0
C1706 C 0.64069 0.95387 0.8104 0.0
C1707 C 0.61688 0.95987 0.78627 0.0
C1708 C 0.62868 0.93819 0.81463 0.0
C1709 C 0.60529 0.94408 0.79092 0.0
C1710 C 0.68728 0.01083 0.76287 0.0
C1711 C 0.68321 0.02449 0.7508 0.0
C1712 C 0.70383 1.00513 0.76365 0.0
C1713 C 0.69589 0.03234 0.73972 0.0
C1714 C 0.71613 0.0133 0.75231 0.0
N1715 N 0.71194 0.02662 0.74069 0.0
C1716 C 0.6301 0.01945 0.74149 0.0
C1717 C 0.62648 0.98568 0.73243 0.0
C1718 C 0.62051 0.021 0.72262 0.0
N1719 N 0.63297 1.00198 0.74641 0.0
C1720 C 0.61698 0.98663 0.71322 0.0
C1721 C 0.6137 1.00451 0.70779 0.0
H1722 H 0.63559 0.03254 0.75209 0.0
H1723 H 0.62881 0.97178 0.73599 0.0
C1724 C 0.69598 0.95526 0.81145 0.0
N1725 N 0.68776 0.96064 0.79446 0.0
C1726 C 0.70463 0.9389 0.81093 0.0
C1727 C 0.6967 0.93315 0.77546 0.0
C1728 C 0.68818 0.9496 0.77662 0.0
C1729 C 0.70531 0.92712 0.79274 0.0
H1730 H 0.69593 0.96367 0.82576 0.0
H1731 H 0.68178 0.9534 0.76295 0.0
O1732 O 0.64917 0.0248 0.79608 0.0
O1733 O 0.67882 1.0068 0.82033 0.0
O1734 O 0.64622 0.98027 0.79196 0.0
O1735 O 0.67515 1.00311 0.77395 0.0
H1736 H 0.64287 0.05933 0.78963 0.0
H1737 H 0.61826 1.00156 0.79693 0.0
H1738 H 0.61272 0.06774 0.7852 0.0
H1739 H 0.5885 0.01092 0.79217 0.0
H1740 H 0.73932 0.02801 0.83561 0.0
H1741 H 0.67916 0.03691 0.8475 0.0
H1742 H 0.71224 1.0046 0.81682 0.0
H1743 H 0.70681 0.05978 0.86575 0.0
H1744 H 0.61478 0.0356 0.86416 0.0
H1745 H 0.62846 0.98188 0.87859 0.0
H1746 H 0.72869 0.07704 0.78703 0.0
H1747 H 0.68576 0.0982 0.81133 0.0
H1748 H 0.65447 0.95753 0.81815 0.0
H1749 H 0.61208 0.96815 0.77512 0.0
H1750 H 0.63312 0.92963 0.82567 0.0
H1751 H 0.59146 0.9401 0.78342 0.0
H1752 H 0.67048 0.0291 0.75015 0.0
H1753 H 0.70715 0.99458 0.77297 0.0
H1754 H 0.69297 0.04299 0.73037 0.0
H1755 H 0.72902 1.00907 0.75278 0.0
H1756 H 0.61888 0.03526 0.71956 0.0
H1757 H 0.61209 0.9733 0.70274 0.0
H1758 H 0.71099 0.93578 0.82496 0.0
H1759 H 0.69619 0.92505 0.76085 0.0
Li1760 Li 0.76849 0.67176 0.03266 0.0
Li1761 Li 0.77937 0.64592 0.01437 0.0
Li1762 Li 0.7655 0.66941 0.99552 0.0
Li1763 Li 0.74558 0.64452 0.01254 0.0
C1764 C 0.80306 0.68739 0.02294 0.0
N1765 N 0.83479 0.71404 0.03711 0.0
C1766 C 0.81667 0.6826 0.03609 0.0
C1767 C 0.80572 0.7056 0.0167 0.0
C1768 C 0.83257 0.69631 0.04318 0.0
C1769 C 0.82182 0.71891 0.02412 0.0
C1770 C 0.76765 0.644 0.05562 0.0
C1771 C 0.75781 0.64693 0.08756 0.0
N1772 N 0.7747 0.64674 0.0967 0.0
C1773 C 0.7849 0.64375 0.06531 0.0
C1774 C 0.75396 0.64548 0.0668 0.0
C1775 C 0.78819 0.64515 0.08609 0.0
C1776 C 0.7579 0.69539 0.06443 0.0
N1777 N 0.77216 0.68868 0.05847 0.0
C1778 C 0.78979 0.70074 0.091 0.0
C1779 C 0.78798 0.6914 0.07134 0.0
C1780 C 0.77524 0.70759 0.09757 0.0
C1781 C 0.75923 0.70513 0.08387 0.0
H1782 H 0.7452 0.69248 0.05439 0.0
H1783 H 0.79897 0.68544 0.06676 0.0
C1784 C 0.81338 0.63848 0.00686 0.0
N1785 N 0.79868 0.63129 0.01469 0.0
C1786 C 0.82837 0.62966 0.00829 0.0
C1787 C 0.8126 0.60552 0.02493 0.0
C1788 C 0.79798 0.61496 0.02342 0.0
C1789 C 0.82823 0.61304 0.01762 0.0
H1790 H 0.81364 0.65137 0.99985 0.0
H1791 H 0.78619 0.60947 0.02956 0.0
C1792 C 0.74163 0.69045 0.01328 0.0
N1793 N 0.73077 0.72555 0.01317 0.0
C1794 C 0.72335 0.69089 0.00952 0.0
C1795 C 0.75439 0.70782 0.01707 0.0
C1796 C 0.71813 0.70879 0.0095 0.0
C1797 C 0.74863 0.72543 0.01693 0.0
C1798 C 0.76499 0.62471 0.9801 0.0
C1799 C 0.775 0.62741 0.96481 0.0
C1800 C 0.76149 0.60649 0.98622 0.0
C1801 C 0.78137 0.61178 0.95585 0.0
C1802 C 0.7681 0.59122 0.97689 0.0
N1803 N 0.77782 0.59417 0.96203 0.0
C1804 C 0.78164 0.68391 0.9637 0.0
C1805 C 0.75325 0.69193 0.96511 0.0
C1806 C 0.78333 0.69324 0.94694 0.0
N1807 N 0.76673 0.68328 0.97243 0.0
C1808 C 0.75452 0.70173 0.94858 0.0
C1809 C 0.7697 0.70249 0.93903 0.0
H1810 H 0.79224 0.67698 0.96968 0.0
H1811 H 0.74142 0.69128 0.97207 0.0
C1812 C 0.71165 0.63784 0.02481 0.0
N1813 N 0.72144 0.62969 0.01227 0.0
C1814 C 0.69444 0.6281 0.02648 0.0
C1815 C 0.69729 0.60184 1.00188 0.0
C1816 C 0.71452 0.61208 1.00073 0.0
C1817 C 0.68699 0.60973 0.01505 0.0
H1818 H 0.71727 0.65195 0.03367 0.0
H1819 H 0.72238 0.60585 0.99072 0.0
O1820 O 0.78754 0.67403 0.0155 0.0
O1821 O 0.76429 0.64319 0.03534 0.0
O1822 O 0.74697 0.67305 0.01329 0.0
O1823 O 0.75919 0.63998 0.98956 0.0
H1824 H 0.8149 0.66851 0.04093 0.0
H1825 H 0.79553 0.70938 1.00613 0.0
H1826 H 0.84315 0.69285 0.05349 0.0
H1827 H 0.82404 0.73308 0.01948 0.0
H1828 H 0.74738 0.64826 0.09642 0.0
H1829 H 0.79571 0.64281 0.05693 0.0
H1830 H 0.74057 0.64578 0.05957 0.0
H1831 H 0.80151 0.64511 0.0938 0.0
H1832 H 0.80237 0.70228 0.10108 0.0
H1833 H 0.74758 0.70991 0.08839 0.0
H1834 H 0.83997 0.63583 1.00216 0.0
H1835 H 0.81187 0.5928 0.03231 0.0
H1836 H 0.71331 0.67753 0.00657 0.0
H1837 H 0.76855 0.7077 0.02024 0.0
H1838 H 0.70402 0.70937 0.00657 0.0
H1839 H 0.75837 0.739 0.01985 0.0
H1840 H 0.7779 0.64143 0.95997 0.0
H1841 H 0.75408 0.60427 0.99832 0.0
H1842 H 0.78917 0.61366 0.94402 0.0
H1843 H 0.7656 0.57708 0.98156 0.0
H1844 H 0.79517 0.69291 0.94013 0.0
H1845 H 0.74372 0.70881 0.94353 0.0
H1846 H 0.687 0.635 0.03658 0.0
H1847 H 0.69225 0.5877 0.99284 0.0
Li1848 Li 0.8955 0.52008 0.7679 0.0
Li1849 Li 0.92231 0.54138 0.79144 0.0
Li1850 Li 0.89672 0.55848 0.76959 0.0
Li1851 Li 0.91929 0.53858 0.75011 0.0
C1852 C 0.88113 0.53309 0.79958 0.0
N1853 N 0.85163 0.51656 0.81491 0.0
C1854 C 0.88311 0.5211 0.81412 0.0
C1855 C 0.86419 0.5368 0.79292 0.0
C1856 C 0.86802 0.51283 0.82166 0.0
C1857 C 0.84943 0.52829 0.80084 0.0
C1858 C 0.92289 0.50008 0.76755 0.0
C1859 C 0.91495 0.46781 0.74847 0.0
N1860 N 0.92381 0.46097 0.76386 0.0
C1861 C 0.93189 0.49272 0.78319 0.0
C1862 C 0.91435 0.48754 0.75005 0.0
C1863 C 0.93222 0.47291 0.78102 0.0
C1864 C 0.86538 0.48302 0.7535 0.0
N1865 N 0.87982 0.49222 0.76776 0.0
C1866 C 0.87687 0.4629 0.78335 0.0
C1867 C 0.88534 0.48229 0.78265 0.0
C1868 C 0.8621 0.45288 0.76875 0.0
C1869 C 0.85637 0.46361 0.75379 0.0
H1870 H 0.86081 0.4905 0.74158 0.0
H1871 H 0.89669 0.48929 0.79405 0.0
C1872 C 0.93088 0.5459 0.83624 0.0
N1873 N 0.93812 0.54254 0.81932 0.0
C1874 C 0.94023 0.54488 0.85543 0.0
C1875 C 0.96484 0.53741 0.84019 0.0
C1876 C 0.95501 0.53852 0.82125 0.0
C1877 C 0.95758 0.5404 0.85797 0.0
H1878 H 0.91753 0.54906 0.83495 0.0
H1879 H 0.96089 0.53577 0.80799 0.0
C1880 C 0.87774 0.52718 0.73109 0.0
N1881 N 0.84872 0.50785 0.70261 0.0
C1882 C 0.88025 0.51421 0.71511 0.0
C1883 C 0.86053 0.53046 0.73254 0.0
C1884 C 0.86539 0.50453 0.70088 0.0
C1885 C 0.84602 0.52051 0.71799 0.0
C1886 C 0.93868 0.57666 0.77008 0.0
C1887 C 0.93537 0.59321 0.76224 0.0
C1888 C 0.95631 0.57397 0.7746 0.0
C1889 C 0.94985 0.60687 0.75904 0.0
C1890 C 0.97042 0.58797 0.77116 0.0
N1891 N 0.96692 0.60399 0.76352 0.0
C1892 C 0.88499 0.59572 0.78795 0.0
C1893 C 0.87426 0.5878 0.75359 0.0
C1894 C 0.87677 0.61238 0.789 0.0
N1895 N 0.88379 0.58346 0.7704 0.0
C1896 C 0.86584 0.60433 0.75402 0.0
C1897 C 0.86681 0.61735 0.77191 0.0
H1898 H 0.89246 0.59274 0.80145 0.0
H1899 H 0.87303 0.57841 0.73953 0.0
C1900 C 0.93503 0.51988 0.71552 0.0
N1901 N 0.93328 0.5375 0.72503 0.0
C1902 C 0.9438 0.51817 0.69856 0.0
C1903 C 0.94942 0.5527 0.70072 0.0
C1904 C 0.94045 0.55378 0.71765 0.0
C1905 C 0.95138 0.53466 0.6905 0.0
H1906 H 0.92949 0.5068 0.72091 0.0
H1907 H 0.93927 0.56788 0.72481 0.0
O1908 O 0.89562 0.54101 0.79167 0.0
O1909 O 0.92209 0.51936 0.76956 0.0
O1910 O 0.89209 0.53678 0.74515 0.0
O1911 O 0.9247 0.56298 0.77302 0.0
H1912 H 0.89612 0.51801 0.81938 0.0
H1913 H 0.86248 0.54615 0.78174 0.0
H1914 H 0.86932 0.50341 0.83283 0.0
H1915 H 0.83623 0.53099 0.7958 0.0
H1916 H 0.90828 0.45793 0.73507 0.0
H1917 H 0.93841 0.50216 0.79692 0.0
H1918 H 0.90694 0.49289 0.73802 0.0
H1919 H 0.9391 0.46701 0.79302 0.0
H1920 H 0.88192 0.45588 0.79551 0.0
H1921 H 0.84522 0.45694 0.74197 0.0
H1922 H 0.93353 0.54715 0.86813 0.0
H1923 H 0.97816 0.53426 0.84076 0.0
H1924 H 0.89352 0.51167 0.7137 0.0
H1925 H 0.85841 0.54057 0.74475 0.0
H1926 H 0.86711 0.49441 0.68845 0.0
H1927 H 0.8326 0.52285 0.71894 0.0
H1928 H 0.92176 0.59542 0.75861 0.0
H1929 H 0.95904 0.56117 0.7806 0.0
H1930 H 0.94751 0.61975 0.75296 0.0
H1931 H 0.98414 0.58609 0.77455 0.0
H1932 H 0.87858 0.62147 0.80334 0.0
H1933 H 0.85837 0.60659 0.74018 0.0
H1934 H 0.94428 0.50372 0.69167 0.0
H1935 H 0.95496 0.56616 0.69592 0.0
Li1936 Li 0.76634 0.37259 0.5325 0.0
Li1937 Li 0.7402 0.38433 0.52159 0.0
Li1938 Li 0.75847 0.37459 0.49807 0.0
Li1939 Li 0.76891 0.40418 0.52217 0.0
C1940 C 0.73434 0.34522 0.52356 0.0
N1941 N 0.7138 0.31975 0.54284 0.0
C1942 C 0.73465 0.34952 0.54411 0.0
C1943 C 0.7236 0.32794 0.51284 0.0
C1944 C 0.72417 0.33647 0.55357 0.0
C1945 C 0.71331 0.31525 0.52284 0.0
C1946 C 0.75427 0.4114 0.55573 0.0
C1947 C 0.74158 0.4402 0.55634 0.0
N1948 N 0.74451 0.44269 0.57664 0.0
C1949 C 0.75719 0.41426 0.57658 0.0
C1950 C 0.74644 0.4245 0.54549 0.0
C1951 C 0.75215 0.43016 0.58689 0.0
C1952 C 0.78963 0.36902 0.56629 0.0
N1953 N 0.77822 0.3587 0.54991 0.0
C1954 C 0.78588 0.32903 0.55767 0.0
C1955 C 0.77622 0.33911 0.54533 0.0
C1956 C 0.79758 0.33925 0.57488 0.0
C1957 C 0.79947 0.35951 0.57915 0.0
H1958 H 0.79109 0.38465 0.56929 0.0
H1959 H 0.76718 0.33132 0.53204 0.0
C1960 C 0.70504 0.3882 0.50926 0.0
N1961 N 0.71652 0.38576 0.52532 0.0
C1962 C 0.68893 0.39382 0.51182 0.0
C1963 C 0.6962 0.39288 0.54718 0.0
C1964 C 0.71212 0.38715 0.54391 0.0
C1965 C 0.68479 0.39714 0.53113 0.0
H1966 H 0.70892 0.38691 0.49466 0.0
H1967 H 0.72153 0.38519 0.55645 0.0
C1968 C 0.79505 0.37313 0.51247 0.0
N1969 N 0.82119 0.35163 0.5075 0.0
C1970 C 0.8132 0.3822 0.51668 0.0
C1971 C 0.79019 0.35313 0.50572 0.0
C1972 C 0.82622 0.37108 0.51407 0.0
C1973 C 0.8036 0.34251 0.50331 0.0
C1974 C 0.75189 0.40817 0.4844 0.0
C1975 C 0.76943 0.41193 0.48037 0.0
C1976 C 0.73831 0.41443 0.47259 0.0
C1977 C 0.77308 0.42188 0.46457 0.0
C1978 C 0.74249 0.42432 0.45691 0.0
N1979 N 0.75965 0.4278 0.45326 0.0
C1980 C 0.74584 0.34681 0.46373 0.0
C1981 C 0.77452 0.36636 0.46426 0.0
C1982 C 0.74751 0.33483 0.4466 0.0
N1983 N 0.7594 0.36196 0.47235 0.0
C1984 C 0.7768 0.35474 0.44723 0.0
C1985 C 0.76335 0.33849 0.43842 0.0
H1986 H 0.73403 0.34361 0.47061 0.0
H1987 H 0.78528 0.37823 0.47161 0.0
C1988 C 0.79961 0.42942 0.54014 0.0
N1989 N 0.78399 0.42912 0.52792 0.0
C1990 C 0.81358 0.44556 0.5432 0.0
C1991 C 0.79462 0.46144 0.52218 0.0
C1992 C 0.78089 0.44496 0.51967 0.0
C1993 C 0.81143 0.46154 0.53351 0.0
H1994 H 0.80154 0.41661 0.5466 0.0
H1995 H 0.76817 0.44444 0.5103 0.0
O1996 O 0.74447 0.35771 0.51384 0.0
O1997 O 0.75898 0.39572 0.54554 0.0
O1998 O 0.78216 0.38384 0.51507 0.0
O1999 O 0.74785 0.39842 0.49975 0.0
H2000 H 0.74293 0.36272 0.55274 0.0
H2001 H 0.72323 0.32434 0.49693 0.0
H2002 H 0.72429 0.33963 0.56947 0.0
H2003 H 0.70493 0.30183 0.51472 0.0
H2004 H 0.73545 0.4504 0.54861 0.0
H2005 H 0.76322 0.40424 0.58471 0.0
H2006 H 0.744 0.42254 0.52937 0.0
H2007 H 0.75431 0.43253 0.60304 0.0
H2008 H 0.78385 0.31336 0.55409 0.0
H2009 H 0.8084 0.36784 0.59231 0.0
H2010 H 0.68033 0.39667 0.499 0.0
H2011 H 0.69361 0.39543 0.56232 0.0
H2012 H 0.8172 0.39768 0.52187 0.0
H2013 H 0.7762 0.34585 0.50244 0.0
H2014 H 0.84033 0.37791 0.51727 0.0
H2015 H 0.80002 0.32702 0.49812 0.0
H2016 H 0.78018 0.40747 0.48946 0.0
H2017 H 0.72466 0.41168 0.47552 0.0
H2018 H 0.78661 0.42492 0.46134 0.0
H2019 H 0.7321 0.42923 0.44766 0.0
H2020 H 0.73669 0.32264 0.44006 0.0
H2021 H 0.78931 0.35796 0.44159 0.0
H2022 H 0.82636 0.44485 0.55181 0.0
H2023 H 0.79243 0.47355 0.51457 0.0
Li2024 Li 0.62683 0.54541 0.32358 0.0
Li2025 Li 0.65142 0.56586 0.30944 0.0
Li2026 Li 0.62734 0.54333 0.2879 0.0
Li2027 Li 0.64945 0.53042 0.30696 0.0
C2028 C 0.61322 0.57525 0.29705 0.0
N2029 N 0.58867 0.5931 0.27674 0.0
C2030 C 0.61822 0.58641 0.28255 0.0
C2031 C 0.59576 0.57323 0.30129 0.0
C2032 C 0.6056 0.59527 0.27241 0.0
C2033 C 0.58354 0.58237 0.29086 0.0
C2034 C 0.65953 0.56137 0.35008 0.0
C2035 C 0.67991 0.57042 0.3815 0.0
N2036 N 0.67028 0.58379 0.38738 0.0
C2037 C 0.64989 0.57528 0.3564 0.0
C2038 C 0.67468 0.55892 0.3627 0.0
C2039 C 0.65551 0.58644 0.37533 0.0
C2040 C 0.61622 0.52682 0.35471 0.0
N2041 N 0.61425 0.54267 0.34593 0.0
C2042 C 0.59772 0.55332 0.37091 0.0
C2043 C 0.60516 0.55585 0.35363 0.0
C2044 C 0.59979 0.53719 0.38048 0.0
C2045 C 0.6091 0.52379 0.37201 0.0
H2046 H 0.62364 0.51665 0.3484 0.0
H2047 H 0.60411 0.56862 0.34674 0.0
C2048 C 0.67028 0.59569 0.29278 0.0
N2049 N 0.66781 0.59059 0.31086 0.0
C2050 C 0.68251 0.61249 0.29147 0.0
C2051 C 0.68908 0.61921 0.32746 0.0
C2052 C 0.67697 0.60202 0.32808 0.0
C2053 C 0.69211 0.62448 0.30897 0.0
H2054 H 0.66293 0.58649 0.27925 0.0
H2055 H 0.67521 0.59781 0.34234 0.0
C2056 C 0.60752 0.51115 0.29216 0.0
N2057 N 0.57613 0.49113 0.2678 0.0
C2058 C 0.60811 0.49684 0.27639 0.0
C2059 C 0.59099 0.51521 0.29564 0.0
C2060 C 0.59208 0.48691 0.26421 0.0
C2061 C 0.57526 0.50493 0.28314 0.0
C2062 C 0.67081 0.54919 0.28384 0.0
C2063 C 0.67538 0.54957 0.26483 0.0
C2064 C 0.68442 0.55148 0.30041 0.0
C2065 C 0.69345 0.55219 0.2627 0.0
C2066 C 0.70232 0.55405 0.29765 0.0
N2067 N 0.70644 0.55435 0.27902 0.0
C2068 C 0.59673 0.54199 0.25574 0.0
C2069 C 0.62239 0.53138 0.2468 0.0
C2070 C 0.58874 0.53936 0.23559 0.0
N2071 N 0.61354 0.53857 0.26094 0.0
C2072 C 0.61486 0.52831 0.22657 0.0
C2073 C 0.59796 0.53274 0.22059 0.0
H2074 H 0.58951 0.54693 0.26711 0.0
H2075 H 0.63541 0.528 0.25123 0.0
C2076 C 0.67142 0.50682 0.3247 0.0
N2077 N 0.66244 0.51001 0.30723 0.0
C2078 C 0.68083 0.49168 0.32488 0.0
C2079 C 0.67137 0.4833 0.28913 0.0
C2080 C 0.66229 0.49871 0.28962 0.0
C2081 C 0.68079 0.47963 0.30694 0.0
H2082 H 0.67115 0.51594 0.33849 0.0
H2083 H 0.65509 0.50169 0.27595 0.0
O2084 O 0.62543 0.56664 0.30729 0.0
O2085 O 0.65396 0.54985 0.33186 0.0
O2086 O 0.62308 0.52151 0.30384 0.0
O2087 O 0.65312 0.54682 0.28607 0.0
H2088 H 0.63165 0.58809 0.27906 0.0
H2089 H 0.59159 0.56449 0.3123 0.0
H2090 H 0.60927 0.60387 0.26108 0.0
H2091 H 0.56996 0.58087 0.29392 0.0
H2092 H 0.69161 0.56868 0.39142 0.0
H2093 H 0.63837 0.57767 0.34669 0.0
H2094 H 0.68234 0.54828 0.35804 0.0
H2095 H 0.64818 0.59726 0.3804 0.0
H2096 H 0.59085 0.56417 0.37702 0.0
H2097 H 0.61086 0.51102 0.37867 0.0
H2098 H 0.68441 0.61612 0.27691 0.0
H2099 H 0.69638 0.62802 0.34129 0.0
H2100 H 0.62083 0.49362 0.27346 0.0
H2101 H 0.59034 0.52633 0.30774 0.0
H2102 H 0.59233 0.47588 0.25186 0.0
H2103 H 0.56236 0.50798 0.28558 0.0
H2104 H 0.66508 0.54801 0.25185 0.0
H2105 H 0.68128 0.55134 0.31526 0.0
H2106 H 0.69716 0.55253 0.24808 0.0
H2107 H 0.71296 0.55584 0.31034 0.0
H2108 H 0.57568 0.54295 0.23185 0.0
H2109 H 0.62228 0.52253 0.21574 0.0
H2110 H 0.6878 0.48921 0.33895 0.0
H2111 H 0.67116 0.47446 0.27497 0.0
Tb2112 Tb 0.01593 0.01395 0.02202 0.0
Tb2113 Tb 0.05183 0.03421 0.04358 0.0
C2114 C 0.98256 1.00525 0.0106 0.0
C2115 C 0.96944 0.016 1.00197 0.0
C2116 C 0.95484 0.0181 0.01155 0.0
C2117 C 0.94395 0.03096 1.00607 0.0
C2118 C 0.94725 0.04182 0.99061 0.0
C2119 C 0.96124 0.03871 0.98015 0.0
C2120 C 0.97235 0.02605 0.9859 0.0
C2121 C 0.04166 0.01319 1.00039 0.0
C2122 C 0.02895 0.06045 0.02281 0.0
C2123 C 0.0851 0.04233 0.0554 0.0
C2124 C 0.09757 0.02894 0.0572 0.0
C2125 C 0.09438 0.01174 0.04344 0.0
C2126 C 0.10477 0.99784 0.04617 0.0
C2127 C 0.11868 1.0009 0.06262 0.0
C2128 C 0.12223 0.01831 0.07616 0.0
C2129 C 0.1116 0.03221 0.07355 0.0
C2130 C 0.02601 0.03458 0.06515 0.0
C2131 C 0.03926 0.98782 0.04188 0.0
O2132 O 0.99013 0.01225 0.02909 0.0
O2133 O 0.99412 1.00039 0.99957 0.0
O2134 O 0.04003 0.02721 0.01283 0.0
O2135 O 0.02795 0.99907 0.99915 0.0
O2136 O 0.0158 0.04472 0.01843 0.0
O2137 O 0.04503 0.05976 0.03227 0.0
O2138 O 0.07765 0.04304 0.03714 0.0
O2139 O 0.07343 0.04107 0.06756 0.0
O2140 O 0.02785 0.02068 0.05272 0.0
O2141 O 0.03951 0.04893 0.06629 0.0
O2142 O 0.05268 1.00306 0.04385 0.0
O2143 O 0.02259 0.98916 0.03513 0.0
H2144 H 0.95245 0.0106 0.02407 0.0
H2145 H 0.93363 0.03318 0.01484 0.0
H2146 H 0.96403 0.04655 0.96798 0.0
H2147 H 0.98361 0.02475 0.97828 0.0
H2148 H 0.08366 1.00885 0.03066 0.0
H2149 H 0.10202 0.98472 0.03528 0.0
H2150 H 0.13298 0.02098 0.08889 0.0
H2151 H 0.11412 0.04532 0.08441 0.0
Tb2152 Tb 0.28883 0.76438 0.26345 0.0
Tb2153 Tb 0.28052 0.77982 0.30025 0.0
C2154 C 0.29356 0.75591 0.22808 0.0
C2155 C 0.30094 0.76569 0.21253 0.0
C2156 C 0.29693 0.78349 0.20845 0.0
C2157 C 0.30253 0.79137 0.19217 0.0
C2158 C 0.31238 0.78167 0.17982 0.0
C2159 C 0.31736 0.7645 0.18482 0.0
C2160 C 0.3116 0.75654 0.20099 0.0
C2161 C 0.31174 0.75974 0.29449 0.0
C2162 C 0.302 0.81081 0.27881 0.0
C2163 C 0.27567 0.78811 0.3356 0.0
C2164 C 0.27261 0.77787 0.35243 0.0
C2165 C 0.27837 0.76036 0.3541 0.0
C2166 C 0.27679 0.75173 0.37116 0.0
C2167 C 0.26936 0.76046 0.38672 0.0
C2168 C 0.26279 0.77748 0.38446 0.0
C2169 C 0.26445 0.78614 0.36744 0.0
C2170 C 0.2576 0.78427 0.2691 0.0
C2171 C 0.26767 0.73356 0.28502 0.0
O2172 O 0.2786 0.75999 0.23285 0.0
O2173 O 0.30513 0.75505 0.24367 0.0
O2174 O 0.30545 0.77484 0.29242 0.0
O2175 O 0.30514 0.74685 0.27888 0.0
O2176 O 0.29862 0.79631 0.2635 0.0
O2177 O 0.29733 0.8072 0.29605 0.0
O2178 O 0.29151 0.78909 0.33041 0.0
O2179 O 0.26271 0.78391 0.32022 0.0
O2180 O 0.26389 0.76922 0.27135 0.0
O2181 O 0.26417 0.79726 0.28465 0.0
O2182 O 0.27242 0.74775 0.30066 0.0
O2183 O 0.27096 0.73757 0.26737 0.0
H2184 H 0.28889 0.79093 0.21734 0.0
H2185 H 0.29827 0.80449 0.18865 0.0
H2186 H 0.32517 0.75686 0.1758 0.0
H2187 H 0.31501 0.74291 0.20413 0.0
H2188 H 0.28463 0.75373 0.34256 0.0
H2189 H 0.28216 0.73874 0.37254 0.0
H2190 H 0.25678 0.78437 0.39608 0.0
H2191 H 0.25979 0.79957 0.36622 0.0
Tb2192 Tb 0.55487 0.02511 0.53124 0.0
Tb2193 Tb 0.51597 0.01952 0.53943 0.0
C2194 C 0.58806 0.0248 0.53785 0.0
C2195 C 0.6017 0.01299 0.53356 0.0
C2196 C 0.60087 0.99445 0.53927 0.0
C2197 C 0.61542 0.98505 0.53877 0.0
C2198 C 0.63116 0.99382 0.53241 0.0
C2199 C 0.63162 0.01189 0.52573 0.0
C2200 C 0.61712 0.02141 0.52643 0.0
C2201 C 0.53194 0.02598 0.49714 0.0
C2202 C 0.52969 0.98271 0.52173 0.0
C2203 C 0.4834 0.02021 0.54112 0.0
C2204 C 0.46926 0.03186 0.53828 0.0
C2205 C 0.46987 0.04626 0.52587 0.0
C2206 C 0.45566 0.05629 0.52307 0.0
C2207 C 0.44061 0.05215 0.53267 0.0
C2208 C 0.44025 0.03774 0.54512 0.0
C2209 C 0.45437 0.02779 0.54788 0.0
C2210 C 0.54054 0.01351 0.56926 0.0
C2211 C 0.5399 0.06242 0.54388 0.0
O2212 O 0.57645 0.01784 0.54871 0.0
O2213 O 0.58078 0.03337 0.52379 0.0
O2214 O 0.52865 0.02364 0.51444 0.0
O2215 O 0.54928 0.02763 0.49885 0.0
O2216 O 0.54614 0.99351 0.52517 0.0
O2217 O 0.51541 0.99017 0.52449 0.0
O2218 O 0.489 0.01288 0.5252 0.0
O2219 O 0.49651 0.02651 0.5563 0.0
O2220 O 0.54252 0.02634 0.55779 0.0
O2221 O 0.52398 1.00416 0.56431 0.0
O2222 O 0.52361 0.05118 0.5408 0.0
O2223 O 0.55455 0.05518 0.54278 0.0
H2224 H 0.58925 0.98746 0.54487 0.0
H2225 H 0.61449 0.97102 0.54374 0.0
H2226 H 0.64354 0.01912 0.52083 0.0
H2227 H 0.61827 0.03576 0.52218 0.0
H2228 H 0.48123 0.04968 0.51829 0.0
H2229 H 0.45654 0.06739 0.51351 0.0
H2230 H 0.42883 0.0338 0.55248 0.0
H2231 H 0.45353 0.01664 0.55741 0.0
Tb2232 Tb 0.26615 0.27306 0.77992 0.0
Tb2233 Tb 0.3061 0.26954 0.78608 0.0
C2234 C 0.23228 0.2649 0.77573 0.0
C2235 C 0.21741 0.26632 0.78739 0.0
C2236 C 0.209 0.24969 0.79433 0.0
C2237 C 0.19414 0.25002 0.80401 0.0
C2238 C 0.1871 0.26697 0.80697 0.0
C2239 C 0.19567 0.28375 0.8003 0.0
C2240 C 0.21059 0.28341 0.79055 0.0
C2241 C 0.29005 0.30541 0.78125 0.0
C2242 C 0.28964 0.28569 0.82275 0.0
C2243 C 0.33924 0.27162 0.78609 0.0
C2244 C 0.3539 0.27356 0.7741 0.0
C2245 C 0.35265 0.2812 0.75609 0.0
C2246 C 0.36736 0.28345 0.74582 0.0
C2247 C 0.38359 0.27814 0.7534 0.0
C2248 C 0.38449 0.27018 0.77126 0.0
C2249 C 0.36988 0.26796 0.78144 0.0
C2250 C 0.28294 0.24154 0.79616 0.0
C2251 C 0.28278 0.259 0.74192 0.0
O2252 O 0.24281 0.25315 0.7811 0.0
O2253 O 0.24122 0.28071 0.77072 0.0
O2254 O 0.29077 0.28855 0.77366 0.0
O2255 O 0.27472 0.30494 0.78739 0.0
O2256 O 0.27343 0.27789 0.81239 0.0
O2257 O 0.30436 0.28662 0.8145 0.0
O2258 O 0.33204 0.28681 0.7902 0.0
O2259 O 0.32737 0.25521 0.78239 0.0
O2260 O 0.2807 0.2504 0.78158 0.0
O2261 O 0.29928 0.24762 0.80557 0.0
O2262 O 0.2986 0.26096 0.75362 0.0
O2263 O 0.26835 0.26303 0.74892 0.0
H2264 H 0.21376 0.23622 0.79202 0.0
H2265 H 0.18817 0.23689 0.80917 0.0
H2266 H 0.19056 0.29703 0.80213 0.0
H2267 H 0.21656 0.29643 0.78523 0.0
H2268 H 0.34041 0.28555 0.7501 0.0
H2269 H 0.36615 0.28969 0.73216 0.0
H2270 H 0.39652 0.26551 0.7774 0.0
H2271 H 0.37113 0.26194 0.79525 0.0
Tb2272 Tb 0.03367 0.04934 0.53876 0.0
Tb2273 Tb 0.03549 1.00593 0.52878 0.0
C2274 C 0.0354 0.08518 0.54047 0.0
C2275 C 0.03809 0.09929 0.52674 0.0
C2276 C 0.04597 0.09537 0.50981 0.0
C2277 C 0.04742 0.1086 0.49631 0.0
C2278 C 0.04096 0.1259 0.49957 0.0
C2279 C 0.03315 0.12971 0.51665 0.0
C2280 C 0.03177 0.11652 0.53011 0.0
C2281 C 1.00643 0.02354 0.54543 0.0
C2282 C 0.02436 0.02789 0.49355 0.0
C2283 C 0.02735 0.96977 0.52564 0.0
C2284 C 0.03579 0.95559 0.53516 0.0
C2285 C 0.02658 0.9363 0.53272 0.0
C2286 C 0.03354 0.92321 0.54365 0.0
C2287 C 0.04982 0.92928 0.55721 0.0
C2288 C 0.05932 0.94853 0.55906 0.0
C2289 C 0.05232 0.96161 0.54812 0.0
C2290 C 0.06709 0.02862 0.52749 0.0
C2291 C 0.04939 0.02885 0.57322 0.0
O2292 O 0.04923 0.07754 0.54631 0.0
O2293 O 0.0203 0.07231 0.53572 0.0
O2294 O 0.01477 0.02216 0.53091 0.0
O2295 O 0.01285 0.04029 0.55646 0.0
O2296 O 0.03003 0.04456 0.50595 0.0
O2297 O 0.02321 0.01086 0.49984 0.0
O2298 O 0.02109 0.9816 0.53789 0.0
O2299 O 0.03629 0.97873 0.51336 0.0
O2300 O 0.0528 0.03326 0.53144 0.0
O2301 O 0.0639 0.00977 0.52436 0.0
O2302 O 0.04337 0.01185 0.56141 0.0
O2303 O 0.04887 0.04565 0.56677 0.0
H2304 H 0.05084 0.08202 0.50693 0.0
H2305 H 0.05359 0.10532 0.48336 0.0
H2306 H 0.02772 0.1427 0.51939 0.0
H2307 H 0.02546 0.11963 0.54301 0.0
H2308 H 0.01371 0.93155 0.5229 0.0
H2309 H 0.02574 0.90858 0.54215 0.0
H2310 H 0.07193 0.95357 0.56927 0.0
H2311 H 0.05952 0.97657 0.55021 0.0
Tb2312 Tb 0.29105 0.76041 0.7693 0.0
Tb2313 Tb 0.29385 0.80295 0.78867 0.0
C2314 C 0.29219 0.73005 0.74665 0.0
C2315 C 0.301 0.71335 0.74821 0.0
C2316 C 0.30567 0.70391 0.73108 0.0
C2317 C 0.31495 0.68872 0.73234 0.0
C2318 C 0.31962 0.68252 0.75079 0.0
C2319 C 0.31476 0.69199 0.76794 0.0
C2320 C 0.30564 0.70733 0.76668 0.0
C2321 C 0.28231 0.76494 0.80511 0.0
C2322 C 0.32402 0.78148 0.80262 0.0
C2323 C 0.2896 0.83568 0.80352 0.0
C2324 C 0.27533 0.8471 0.80422 0.0
C2325 C 0.26023 0.84167 0.81328 0.0
C2326 C 0.24727 0.85332 0.81379 0.0
C2327 C 0.24916 0.87041 0.80508 0.0
C2328 C 0.26427 0.8757 0.79609 0.0
C2329 C 0.27721 0.86424 0.79574 0.0
C2330 C 0.31283 0.79723 0.76019 0.0
C2331 C 0.25846 0.78075 0.75834 0.0
O2332 O 0.30313 0.74675 0.74754 0.0
O2333 O 0.27935 0.73142 0.7572 0.0
O2334 O 0.27967 0.77513 0.7917 0.0
O2335 O 0.28815 0.74996 0.79776 0.0
O2336 O 0.31831 0.7685 0.78617 0.0
O2337 O 0.31466 0.79446 0.80856 0.0
O2338 O 0.28915 0.8209 0.81343 0.0
O2339 O 0.29415 0.83199 0.78593 0.0
O2340 O 0.29724 0.78838 0.76083 0.0
O2341 O 0.31836 0.81027 0.7759 0.0
O2342 O 0.26663 0.79609 0.77173 0.0
O2343 O 0.26601 0.76574 0.75383 0.0
H2344 H 0.30244 0.70857 0.71675 0.0
H2345 H 0.31877 0.68211 0.7189 0.0
H2346 H 0.3179 0.68748 0.78234 0.0
H2347 H 0.30231 0.71456 0.78013 0.0
H2348 H 0.25844 0.82853 0.81998 0.0
H2349 H 0.23573 0.84891 0.82081 0.0
H2350 H 0.26629 0.88896 0.7896 0.0
H2351 H 0.28881 0.86886 0.78887 0.0
Tb2352 Tb 0.51783 0.0163 0.01981 0.0
Tb2353 Tb 0.55264 0.02887 0.04813 0.0
C2354 C 0.48813 0.9971 1.00124 0.0
C2355 C 0.46891 0.99493 1.0025 0.0
C2356 C 0.45878 0.97624 1.00183 0.0
C2357 C 0.44032 0.9734 1.00161 0.0
C2358 C 0.43157 0.98922 1.00196 0.0
C2359 C 0.44177 1.00803 1.00301 0.0
C2360 C 0.46034 0.0109 1.00337 0.0
C2361 C 0.52858 0.05416 0.02995 0.0
C2362 C 0.51697 0.02316 0.06812 0.0
C2363 C 0.58193 0.04856 0.06728 0.0
C2364 C 0.60106 0.05119 0.06609 0.0
C2365 C 0.60715 0.04118 0.05028 0.0
C2366 C 0.62553 0.04413 0.04946 0.0
C2367 C 0.63798 0.05713 0.06446 0.0
C2368 C 0.63172 0.06684 0.0804 0.0
C2369 C 0.6134 0.06391 0.08117 0.0
C2370 C 0.54205 0.99088 0.0378 0.0
C2371 C 0.55361 0.02166 0.99986 0.0
O2372 O 0.49804 0.9908 0.01524 0.0
O2373 O 0.49616 0.01353 0.99667 0.0
O2374 O 0.53007 0.04136 0.04081 0.0
O2375 O 0.51909 0.04588 0.01281 0.0
O2376 O 0.50809 0.01595 0.04957 0.0
O2377 O 0.53455 0.03051 0.07075 0.0
O2378 O 0.57188 0.05479 0.05334 0.0
O2379 O 0.57445 0.03158 0.07109 0.0
O2380 O 0.54037 1.0038 0.02713 0.0
O2381 O 0.55173 0.99923 0.05483 0.0
O2382 O 0.56244 0.02905 0.0184 0.0
O2383 O 0.536 0.01425 0.99724 0.0
H2384 H 0.46512 0.96374 1.00104 0.0
H2385 H 0.43277 0.95869 1.00047 0.0
H2386 H 0.43536 0.02047 1.00339 0.0
H2387 H 0.46788 0.02552 1.00399 0.0
H2388 H 0.59772 0.0312 0.03857 0.0
H2389 H 0.62997 0.03657 0.03694 0.0
H2390 H 0.64101 0.07671 0.09233 0.0
H2391 H 0.60887 0.07161 0.09354 0.0
Tb2392 Tb 0.26932 0.25976 0.2725 0.0
Tb2393 Tb 0.30255 0.28563 0.29093 0.0
C2394 C 0.23705 0.2424 0.26583 0.0
C2395 C 0.22038 0.24961 0.26775 0.0
C2396 C 0.21736 0.25761 0.28651 0.0
C2397 C 0.20203 0.26521 0.28818 0.0
C2398 C 0.18938 0.26516 0.27117 0.0
C2399 C 0.19235 0.2571 0.25239 0.0
C2400 C 0.20771 0.24936 0.25072 0.0
C2401 C 0.28766 0.27535 0.24658 0.0
C2402 C 0.26874 0.3059 0.28655 0.0
C2403 C 0.33452 0.30419 0.29748 0.0
C2404 C 0.35201 0.29846 0.29849 0.0
C2405 C 0.36619 0.31056 0.29259 0.0
C2406 C 0.3819 0.30398 0.29004 0.0
C2407 C 0.3836 0.28506 0.29312 0.0
C2408 C 0.36978 0.27343 0.30028 0.0
C2409 C 0.35409 0.28009 0.30294 0.0
C2410 C 0.28432 0.27033 0.31713 0.0
C2411 C 0.3029 0.23918 0.27715 0.0
O2412 O 0.24801 0.24304 0.2825 0.0
O2413 O 0.2456 0.24826 0.25179 0.0
O2414 O 0.28545 0.28374 0.26315 0.0
O2415 O 0.2792 0.25736 0.24398 0.0
O2416 O 0.25958 0.28751 0.2816 0.0
O2417 O 0.28662 0.30898 0.28971 0.0
O2418 O 0.3245 0.29986 0.27979 0.0
O2419 O 0.32539 0.30007 0.31165 0.0
O2420 O 0.28629 0.26182 0.30049 0.0
O2421 O 0.29327 0.28811 0.3197 0.0
O2422 O 0.31216 0.25751 0.28282 0.0
O2423 O 0.28504 0.23623 0.27312 0.0
H2424 H 0.22683 0.2581 0.29998 0.0
H2425 H 0.19999 0.27087 0.30294 0.0
H2426 H 0.18291 0.25693 0.23898 0.0
H2427 H 0.20977 0.24336 0.23608 0.0
H2428 H 0.36482 0.32481 0.28915 0.0
H2429 H 0.3925 0.31349 0.28501 0.0
H2430 H 0.37066 0.25883 0.30285 0.0
H2431 H 0.3433 0.27056 0.30764 0.0
Tb2432 Tb 0.53376 0.54824 0.03916 0.0
Tb2433 Tb 0.53556 0.50452 0.02922 0.0
C2434 C 0.53708 0.58415 0.04044 0.0
C2435 C 0.54025 0.5976 0.02603 0.0
C2436 C 0.52932 0.59444 0.00716 0.0
C2437 C 0.53212 0.60772 0.99396 0.0
C2438 C 0.54594 0.62436 0.99934 0.0
C2439 C 0.55722 0.62714 0.01798 0.0
C2440 C 0.55435 0.61388 0.03123 0.0
C2441 C 0.50618 0.52268 0.04537 0.0
C2442 C 0.52453 0.52661 0.99383 0.0
C2443 C 0.52716 0.46834 0.02591 0.0
C2444 C 0.53475 0.45392 0.03594 0.0
C2445 C 0.52504 0.43481 0.03313 0.0
C2446 C 0.53084 0.42158 0.04474 0.0
C2447 C 0.54645 0.42733 0.05936 0.0
C2448 C 0.55653 0.44637 0.06155 0.0
C2449 C 0.55069 0.4596 0.04993 0.0
C2450 C 0.56716 0.52765 0.02868 0.0
C2451 C 0.54864 0.52725 0.07383 0.0
O2452 O 0.5505 0.5759 0.04627 0.0
O2453 O 0.52147 0.57204 0.03687 0.0
O2454 O 0.51492 0.52101 0.03117 0.0
O2455 O 0.51225 0.53969 0.05604 0.0
O2456 O 0.52961 0.5433 1.00632 0.0
O2457 O 0.52391 0.50954 1.0 0.0
O2458 O 0.52044 0.48023 0.03759 0.0
O2459 O 0.53696 0.47729 0.0143 0.0
O2460 O 0.55261 0.53184 0.03213 0.0
O2461 O 0.56433 0.50879 0.02569 0.0
O2462 O 0.54306 0.5103 0.06185 0.0
O2463 O 0.54805 0.54413 0.06756 0.0
H2464 H 0.51839 0.58192 1.0027 0.0
H2465 H 0.52306 0.60529 0.97982 0.0
H2466 H 0.56813 0.63969 0.02241 0.0
H2467 H 0.56305 0.61645 0.04563 0.0
H2468 H 0.51259 0.43033 0.02253 0.0
H2469 H 0.52261 0.40713 0.04292 0.0
H2470 H 0.56866 0.45117 0.07258 0.0
H2471 H 0.55825 0.47443 0.05233 0.0
Tb2472 Tb 0.78501 0.25271 0.27672 0.0
Tb2473 Tb 0.78204 0.29488 0.29143 0.0
C2474 C 0.78611 0.22055 0.2573 0.0
C2475 C 0.7974 0.20587 0.25862 0.0
C2476 C 0.80135 0.19642 0.24104 0.0
C2477 C 0.81163 0.18204 0.24184 0.0
C2478 C 0.81808 0.1768 0.26025 0.0
C2479 C 0.8143 0.1865 0.27787 0.0
C2480 C 0.80413 0.20098 0.27708 0.0
C2481 C 0.7785 0.26007 0.31308 0.0
C2482 C 0.81892 0.28007 0.30201 0.0
C2483 C 0.78078 0.3266 0.31169 0.0
C2484 C 0.76921 0.34098 0.31064 0.0
C2485 C 0.76957 0.35436 0.32766 0.0
C2486 C 0.75896 0.36842 0.32685 0.0
C2487 C 0.74796 0.36947 0.30892 0.0
C2488 C 0.74754 0.35593 0.29189 0.0
C2489 C 0.758 0.3417 0.29278 0.0
C2490 C 0.78765 0.28777 0.25478 0.0
C2491 C 0.7483 0.26762 0.26538 0.0
O2492 O 0.79376 0.23728 0.25305 0.0
O2493 O 0.77623 0.2225 0.27125 0.0
O2494 O 0.77248 0.26681 0.29807 0.0
O2495 O 0.78838 0.2478 0.30807 0.0
O2496 O 0.81296 0.26433 0.28849 0.0
O2497 O 0.80847 0.29229 0.30705 0.0
O2498 O 0.77338 0.30962 0.31559 0.0
O2499 O 0.79046 0.32514 0.2975 0.0
O2500 O 0.79393 0.28063 0.26943 0.0
O2501 O 0.77945 0.30137 0.26073 0.0
O2502 O 0.75414 0.28353 0.27874 0.0
O2503 O 0.75872 0.25518 0.26094 0.0
H2504 H 0.79633 0.20004 0.22667 0.0
H2505 H 0.8142 0.17473 0.228 0.0
H2506 H 0.8193 0.18296 0.29229 0.0
H2507 H 0.80143 0.20825 0.29088 0.0
H2508 H 0.77822 0.35409 0.34152 0.0
H2509 H 0.75969 0.37878 0.34014 0.0
H2510 H 0.73906 0.35631 0.27793 0.0
H2511 H 0.75747 0.33139 0.27951 0.0
Tb2512 Tb 0.0185 0.516 0.5176 0.0
Tb2513 Tb 0.05333 0.52929 0.54563 0.0
C2514 C 0.9882 0.49756 0.49998 0.0
C2515 C 0.96996 0.4978 0.50377 0.0
C2516 C 0.95544 0.48429 0.49224 0.0
C2517 C 0.93805 0.48417 0.49609 0.0
C2518 C 0.93498 0.49754 0.5116 0.0
C2519 C 0.9496 0.51126 0.52295 0.0
C2520 C 0.96698 0.51139 0.51904 0.0
C2521 C 0.02909 0.55393 0.52729 0.0
C2522 C 0.01794 0.52328 0.56596 0.0
C2523 C 0.08261 0.54975 0.56395 0.0
C2524 C 0.10167 0.55283 0.56227 0.0
C2525 C 0.11299 0.5703 0.57177 0.0
C2526 C 0.13132 0.57344 0.57107 0.0
C2527 C 0.13864 0.55912 0.56086 0.0
C2528 C 0.12722 0.54163 0.55116 0.0
C2529 C 0.1088 0.53854 0.55177 0.0
C2530 C 0.04316 0.49121 0.53627 0.0
C2531 C 0.05389 0.5211 0.49727 0.0
O2532 O 0.99839 0.49084 0.51337 0.0
O2533 O 0.99654 0.51355 0.49487 0.0
O2534 O 0.03055 0.54127 0.53828 0.0
O2535 O 0.01981 0.54551 0.51012 0.0
O2536 O 0.00916 0.51552 0.54753 0.0
O2537 O 0.03542 0.53113 0.56843 0.0
O2538 O 0.0721 0.55559 0.55013 0.0
O2539 O 0.07555 0.53281 0.56823 0.0
O2540 O 0.04121 0.50374 0.52515 0.0
O2541 O 0.05284 0.50005 0.55314 0.0
O2542 O 0.06271 0.52929 0.51562 0.0
O2543 O 0.03644 0.51307 0.49497 0.0
H2544 H 0.95755 0.47378 0.48034 0.0
H2545 H 0.927 0.47361 0.48693 0.0
H2546 H 0.94767 0.52159 0.53511 0.0
H2547 H 0.97809 0.522 0.52803 0.0
H2548 H 0.10766 0.58144 0.57995 0.0
H2549 H 0.13984 0.58695 0.57889 0.0
H2550 H 0.13253 0.53044 0.54306 0.0
H2551 H 0.10016 0.52499 0.54423 0.0
Tb2552 Tb 0.76684 0.77598 0.28127 0.0
Tb2553 Tb 0.80636 0.77187 0.2876 0.0
C2554 C 0.73374 0.77376 0.28253 0.0
C2555 C 0.72016 0.77204 0.29615 0.0
C2556 C 0.71222 0.75383 0.3005 0.0
C2557 C 0.69765 0.752 0.3109 0.0
C2558 C 0.69053 0.7683 0.31719 0.0
C2559 C 0.69883 0.78657 0.31332 0.0
C2560 C 0.71336 0.78839 0.30289 0.0
C2561 C 0.79038 0.8054 0.27437 0.0
C2562 C 0.79061 0.78536 0.3253 0.0
C2563 C 0.83952 0.77426 0.28664 0.0
C2564 C 0.85312 0.77468 0.27313 0.0
C2565 C 0.85639 0.78941 0.26129 0.0
C2566 C 0.87077 0.79063 0.25056 0.0
C2567 C 0.88228 0.7772 0.25144 0.0
C2568 C 0.87868 0.76229 0.26302 0.0
C2569 C 0.86435 0.76108 0.27369 0.0
C2570 C 0.78281 0.7424 0.29447 0.0
C2571 C 0.78252 0.7623 0.24355 0.0
O2572 O 0.74099 0.75874 0.27813 0.0
O2573 O 0.74538 0.7902 0.28469 0.0
O2574 O 0.79249 0.79522 0.28797 0.0
O2575 O 0.77403 0.80009 0.26468 0.0
O2576 O 0.77443 0.77961 0.31403 0.0
O2577 O 0.80555 0.78573 0.3176 0.0
O2578 O 0.8319 0.78929 0.28921 0.0
O2579 O 0.82821 0.75784 0.28592 0.0
O2580 O 0.78073 0.75263 0.28091 0.0
O2581 O 0.79917 0.74769 0.30412 0.0
O2582 O 0.79873 0.76768 0.25481 0.0
O2583 O 0.7676 0.76228 0.2512 0.0
H2584 H 0.71693 0.74085 0.29541 0.0
H2585 H 0.69181 0.73773 0.31381 0.0
H2586 H 0.69365 0.79943 0.31765 0.0
H2587 H 0.71889 0.80257 0.29951 0.0
H2588 H 0.84808 0.80023 0.2606 0.0
H2589 H 0.87292 0.80218 0.24166 0.0
H2590 H 0.88733 0.75186 0.26442 0.0
H2591 H 0.86236 0.74977 0.28291 0.0
Tb2592 Tb 0.78904 0.26485 0.76422 0.0
Tb2593 Tb 0.78124 0.27887 0.80199 0.0
C2594 C 0.78913 0.24796 0.72968 0.0
C2595 C 0.79846 0.25212 0.7131 0.0
C2596 C 0.80933 0.27041 0.71366 0.0
C2597 C 0.81653 0.27495 0.69685 0.0
C2598 C 0.81293 0.26123 0.6793 0.0
C2599 C 0.80304 0.24248 0.67936 0.0
C2600 C 0.79581 0.23798 0.69617 0.0
C2601 C 0.81727 0.27093 0.79298 0.0
C2602 C 0.80122 0.30995 0.77696 0.0
C2603 C 0.78065 0.29508 0.83666 0.0
C2604 C 0.77169 0.28962 0.85317 0.0
C2605 C 0.76553 0.27002 0.85442 0.0
C2606 C 0.75835 0.26488 0.87103 0.0
C2607 C 0.75707 0.27929 0.8866 0.0
C2608 C 0.76222 0.29897 0.88463 0.0
C2609 C 0.76954 0.30409 0.86803 0.0
C2610 C 0.75304 0.2727 0.77309 0.0
C2611 C 0.76914 0.23385 0.78925 0.0
O2612 O 0.77789 0.25913 0.73382 0.0
O2613 O 0.7992 0.24524 0.74568 0.0
O2614 O 0.80128 0.26333 0.79421 0.0
O2615 O 0.8177 0.275 0.77513 0.0
O2616 O 0.79751 0.29582 0.76139 0.0
O2617 O 0.79746 0.30579 0.7945 0.0
O2618 O 0.79288 0.28534 0.83224 0.0
O2619 O 0.77006 0.29725 0.8208 0.0
O2620 O 0.76902 0.2804 0.77199 0.0
O2621 O 0.75259 0.26855 0.7909 0.0
O2622 O 0.77338 0.24786 0.80492 0.0
O2623 O 0.77235 0.23817 0.77159 0.0
H2624 H 0.81159 0.28142 0.72676 0.0
H2625 H 0.82387 0.28961 0.69718 0.0
H2626 H 0.80017 0.23162 0.66607 0.0
H2627 H 0.78758 0.22371 0.69568 0.0
H2628 H 0.76691 0.25866 0.84293 0.0
H2629 H 0.75482 0.24959 0.87216 0.0
H2630 H 0.76123 0.31039 0.89626 0.0
H2631 H 0.774 0.31931 0.86707 0.0
Tb2632 Tb 0.76856 0.75874 0.775 0.0
Tb2633 Tb 0.80442 0.78623 0.792 0.0
C2634 C 0.73793 0.73913 0.77439 0.0
C2635 C 0.72013 0.74307 0.76784 0.0
C2636 C 0.70487 0.73169 0.77256 0.0
C2637 C 0.68844 0.73769 0.76993 0.0
C2638 C 0.68718 0.75527 0.7628 0.0
C2639 C 0.70228 0.76599 0.75693 0.0
C2640 C 0.71863 0.75988 0.75935 0.0
C2641 C 0.78071 0.77642 0.74597 0.0
C2642 C 0.76969 0.80575 0.78664 0.0
C2643 C 0.83647 0.80409 0.79693 0.0
C2644 C 0.85337 0.79809 0.79382 0.0
C2645 C 0.86431 0.8082 0.78223 0.0
C2646 C 0.87943 0.80163 0.77729 0.0
C2647 C 0.88394 0.78488 0.78397 0.0
C2648 C 0.87334 0.77513 0.79617 0.0
C2649 C 0.8581 0.7816 0.80096 0.0
C2650 C 0.78621 0.77142 0.81849 0.0
C2651 C 0.80374 0.73949 0.77824 0.0
O2652 O 0.7472 0.75118 0.79011 0.0
O2653 O 0.74751 0.73605 0.76032 0.0
O2654 O 0.7877 0.7782 0.76408 0.0
O2655 O 0.76616 0.76321 0.74345 0.0
O2656 O 0.76006 0.78746 0.78247 0.0
O2657 O 0.78764 0.8088 0.7898 0.0
O2658 O 0.82488 0.80299 0.78063 0.0
O2659 O 0.82884 0.79761 0.81137 0.0
O2660 O 0.78783 0.76294 0.8017 0.0
O2661 O 0.79541 0.78913 0.82106 0.0
O2662 O 0.8133 0.75773 0.78411 0.0
O2663 O 0.78578 0.73643 0.77441 0.0
H2664 H 0.70587 0.71877 0.77927 0.0
H2665 H 0.67705 0.72929 0.77481 0.0
H2666 H 0.70164 0.77956 0.75137 0.0
H2667 H 0.73033 0.76883 0.75563 0.0
H2668 H 0.86089 0.82092 0.77656 0.0
H2669 H 0.88752 0.80957 0.76808 0.0
H2670 H 0.87651 0.76216 0.80146 0.0
H2671 H 0.8498 0.77341 0.8098 0.0
Tb2672 Tb 0.51543 0.51063 0.52161 0.0
Tb2673 Tb 0.54947 0.53239 0.54506 0.0
C2674 C 0.48268 0.49905 0.50739 0.0
C2675 C 0.46943 0.5079 0.49617 0.0
C2676 C 0.45212 0.50562 0.50086 0.0
C2677 C 0.44056 0.51735 0.49402 0.0
C2678 C 0.44613 0.53154 0.48227 0.0
C2679 C 0.46292 0.53249 0.47607 0.0
C2680 C 0.47457 0.52088 0.48312 0.0
C2681 C 0.54253 0.51224 0.50163 0.0
C2682 C 0.52606 0.55751 0.52338 0.0
C2683 C 0.58224 0.54131 0.55897 0.0
C2684 C 0.59477 0.52776 0.5592 0.0
C2685 C 0.59708 0.51745 0.54114 0.0
C2686 C 0.60523 0.50144 0.54115 0.0
C2687 C 0.61132 0.49537 0.55918 0.0
C2688 C 0.6101 0.50635 0.57731 0.0
C2689 C 0.60182 0.52241 0.57731 0.0
C2690 C 0.52233 0.53037 0.56502 0.0
C2691 C 0.53963 0.48594 0.54207 0.0
O2692 O 0.48866 0.50776 0.52577 0.0
O2693 O 0.49556 0.49455 0.49827 0.0
O2694 O 0.53956 0.52571 0.51379 0.0
O2695 O 0.52957 0.49726 0.49988 0.0
O2696 O 0.51377 0.54109 0.51791 0.0
O2697 O 0.54192 0.55768 0.53393 0.0
O2698 O 0.57554 0.5446 0.54133 0.0
O2699 O 0.56992 0.53807 0.57018 0.0
O2700 O 0.5255 0.51698 0.55288 0.0
O2701 O 0.53505 0.54559 0.56662 0.0
O2702 O 0.55245 0.50167 0.54386 0.0
O2703 O 0.52276 0.48663 0.5356 0.0
H2704 H 0.44799 0.49575 0.511 0.0
H2705 H 0.42788 0.51634 0.49939 0.0
H2706 H 0.46749 0.54302 0.46678 0.0
H2707 H 0.48794 0.52288 0.47934 0.0
H2708 H 0.5918 0.52107 0.52686 0.0
H2709 H 0.60645 0.49355 0.52697 0.0
H2710 H 0.61482 0.50201 0.59142 0.0
H2711 H 0.60009 0.53001 0.59142 0.0
Tb2712 Tb 0.05493 0.52629 0.02691 0.0
Tb2713 Tb 0.0158 0.52094 0.03459 0.0
C2714 C 0.08742 0.52465 0.02582 0.0
C2715 C 0.10099 0.5123 0.02968 0.0
C2716 C 0.11085 0.51338 0.04892 0.0
C2717 C 0.12521 0.50368 0.05193 0.0
C2718 C 0.13022 0.49274 0.03579 0.0
C2719 C 0.12005 0.4913 0.01665 0.0
C2720 C 0.1057 0.50097 0.01364 0.0
C2721 C 0.03069 0.53209 0.99673 0.0
C2722 C 0.03083 0.48351 0.02257 0.0
C2723 C 0.98258 0.52119 0.02759 0.0
C2724 C 0.96885 0.53311 0.03123 0.0
C2725 C 0.96908 0.55082 0.02379 0.0
C2726 C 0.95444 0.56013 0.02392 0.0
C2727 C 0.93917 0.55209 0.03157 0.0
C2728 C 0.93929 0.53487 0.03987 0.0
C2729 C 0.9539 0.52544 0.03957 0.0
C2730 C 0.03854 0.52009 0.06889 0.0
C2731 C 0.04117 0.56324 0.04391 0.0
O2732 O 0.08191 0.5333 0.04118 0.0
O2733 O 0.07437 0.51839 0.01055 0.0
O2734 O 0.0285 0.51942 0.00832 0.0
O2735 O 0.04725 0.54142 1.00173 0.0
O2736 O 0.04714 0.49473 0.02604 0.0
O2737 O 0.01614 0.4908 0.02323 0.0
O2738 O 0.99421 0.5276 0.01651 0.0
O2739 O 0.98986 0.51319 0.04215 0.0
O2740 O 0.04188 0.52233 0.05161 0.0
O2741 O 0.0212 0.51858 0.06708 0.0
O2742 O 0.02464 0.55258 0.0399 0.0
O2743 O 0.0555 0.55559 0.04199 0.0
H2744 H 0.1078 0.52215 0.06161 0.0
H2745 H 0.13251 0.50495 0.06694 0.0
H2746 H 0.12359 0.48328 1.00377 0.0
H2747 H 0.09865 0.50008 0.99857 0.0
H2748 H 0.98031 0.55721 0.01718 0.0
H2749 H 0.95494 0.5735 0.01768 0.0
H2750 H 0.92774 0.5282 0.04579 0.0
H2751 H 0.95317 0.51171 0.04515 0.0
C2752 C 0.02782 0.15318 0.96572 0.0
C2753 C 0.01708 0.16572 0.97284 0.0
C2754 C 0.02977 0.13631 0.97412 0.0
C2755 C 0.02061 0.13152 0.98997 0.0
C2756 C 0.00966 0.14405 0.99717 0.0
C2757 C 1.00817 0.16101 0.98869 0.0
C2758 C 0.04174 0.12362 0.96603 0.0
C2759 C 0.99958 0.13962 0.01397 0.0
C2760 C 0.01236 0.07849 0.99921 0.0
C2761 C 0.02613 0.07883 0.01523 0.0
C2762 C 0.01053 0.09541 0.99081 0.0
C2763 C 0.0224 0.11337 0.99889 0.0
C2764 C 0.03613 0.11386 0.01529 0.0
C2765 C 0.03792 0.09664 0.02311 0.0
C2766 C 0.99602 0.09402 0.97306 0.0
C2767 C 0.04913 0.13257 0.02442 0.0
H2768 H 0.03496 0.15674 0.95369 0.0
H2769 H 0.99975 0.17045 0.99428 0.0
H2770 H 0.0526 0.12253 0.97814 0.0
H2771 H 0.03389 0.10867 0.96045 0.0
H2772 H 0.04795 0.12929 0.95369 0.0
H2773 H 0.9897 0.14909 0.01594 0.0
H2774 H 0.99239 0.12421 0.01125 0.0
H2775 H 0.00927 0.14182 0.02811 0.0
H2776 H 1.00328 0.06484 0.99279 0.0
H2777 H 0.04863 0.09714 0.03545 0.0
H2778 H 1.00199 0.09922 0.9604 0.0
H2779 H 0.98673 0.10362 0.97697 0.0
H2780 H 0.98826 0.07894 0.96802 0.0
H2781 H 0.05665 0.13827 0.013 0.0
H2782 H 0.05894 0.13065 0.03724 0.0
H2783 H 0.04167 0.14372 0.02962 0.0
C2784 C 0.15638 0.78128 0.2174 0.0
C2785 C 0.15501 0.78968 0.19982 0.0
C2786 C 0.17316 0.77969 0.22781 0.0
C2787 C 0.18915 0.78639 0.22045 0.0
C2788 C 0.18789 0.79454 0.20255 0.0
C2789 C 0.17095 0.79621 0.19259 0.0
C2790 C 0.1738 0.77106 0.24691 0.0
C2791 C 0.20449 0.8018 0.19404 0.0
C2792 C 0.23295 0.80135 0.25801 0.0
C2793 C 0.2407 0.78488 0.25557 0.0
C2794 C 0.21636 0.80203 0.24663 0.0
C2795 C 0.20721 0.78594 0.23212 0.0
C2796 C 0.21519 0.76943 0.22917 0.0
C2797 C 0.23178 0.76905 0.24098 0.0
C2798 C 0.20844 0.8199 0.25047 0.0
C2799 C 0.20608 0.75206 0.2137 0.0
H2800 H 0.14429 0.77576 0.22305 0.0
H2801 H 0.1703 0.803 0.17926 0.0
H2802 H 0.18059 0.7585 0.24577 0.0
H2803 H 0.18178 0.782 0.25952 0.0
H2804 H 0.16019 0.76612 0.25047 0.0
H2805 H 0.20121 0.80646 0.17929 0.0
H2806 H 0.21318 0.81431 0.20447 0.0
H2807 H 0.21244 0.79025 0.19235 0.0
H2808 H 0.23973 0.81369 0.2692 0.0
H2809 H 0.23767 0.75629 0.23895 0.0
H2810 H 0.19526 0.81588 0.25535 0.0
H2811 H 0.20598 0.82616 0.23652 0.0
H2812 H 0.21732 0.83129 0.2621 0.0
H2813 H 0.19298 0.74551 0.21751 0.0
H2814 H 0.21436 0.74075 0.21255 0.0
H2815 H 0.20325 0.75666 0.19886 0.0
C2816 C 0.52508 0.86688 0.49827 0.0
C2817 C 0.52058 0.86007 0.47764 0.0
C2818 C 0.52582 0.88649 0.50605 0.0
C2819 C 0.52211 0.89981 0.49294 0.0
C2820 C 0.51734 0.89301 0.47217 0.0
C2821 C 0.51653 0.87332 0.46483 0.0
C2822 C 0.53087 0.89303 0.5283 0.0
C2823 C 0.51333 0.90662 0.45759 0.0
C2824 C 0.51094 0.94854 0.51271 0.0
C2825 C 0.52752 0.96143 0.51451 0.0
C2826 C 0.50901 0.92846 0.50601 0.0
C2827 C 0.52397 0.921 0.50079 0.0
C2828 C 0.54071 0.93395 0.50259 0.0
C2829 C 0.54229 0.95386 0.50946 0.0
C2830 C 0.49095 0.9152 0.50449 0.0
C2831 C 0.557 0.92678 0.49706 0.0
H2832 H 0.52841 0.85697 0.50839 0.0
H2833 H 0.51261 0.8683 0.44893 0.0
H2834 H 0.54376 0.9038 0.53168 0.0
H2835 H 0.52052 0.90034 0.53388 0.0
H2836 H 0.53235 0.88075 0.53661 0.0
H2837 H 0.50949 0.89903 0.44193 0.0
H2838 H 0.50226 0.91368 0.46148 0.0
H2839 H 0.52532 0.91832 0.45853 0.0
H2840 H 0.49943 0.9541 0.51663 0.0
H2841 H 0.5552 0.96356 0.51071 0.0
H2842 H 0.49226 0.90346 0.51359 0.0
H2843 H 0.48598 0.90813 0.48879 0.0
H2844 H 0.48077 0.92309 0.5096 0.0
H2845 H 0.55999 0.91535 0.50596 0.0
H2846 H 0.56913 0.93863 0.49956 0.0
H2847 H 0.55424 0.92013 0.48109 0.0
C2848 C 0.47038 0.30322 0.69922 0.0
C2849 C 0.47851 0.28701 0.69658 0.0
C2850 C 0.45468 0.30239 0.70781 0.0
C2851 C 0.4468 0.28495 0.71406 0.0
C2852 C 0.45488 0.26853 0.71141 0.0
C2853 C 0.47054 0.26974 0.70272 0.0
C2854 C 0.4466 0.32027 0.71036 0.0
C2855 C 0.447 0.24964 0.71784 0.0
C2856 C 0.41706 0.28714 0.75419 0.0
C2857 C 0.39963 0.28084 0.74303 0.0
C2858 C 0.4324 0.28874 0.74496 0.0
C2859 C 0.43045 0.28402 0.72394 0.0
C2860 C 0.41291 0.27807 0.7125 0.0
C2861 C 0.39775 0.27657 0.72215 0.0
C2862 C 0.45076 0.29525 0.75779 0.0
C2863 C 0.41016 0.27293 0.69007 0.0
H2864 H 0.47646 0.31674 0.69483 0.0
H2865 H 0.47641 0.257 0.70049 0.0
H2866 H 0.43236 0.31686 0.70284 0.0
H2867 H 0.44672 0.32506 0.72645 0.0
H2868 H 0.45397 0.33252 0.70418 0.0
H2869 H 0.4547 0.23811 0.71453 0.0
H2870 H 0.4468 0.25197 0.73412 0.0
H2871 H 0.43288 0.2444 0.71017 0.0
H2872 H 0.41874 0.29087 0.77027 0.0
H2873 H 0.38443 0.27154 0.71335 0.0
H2874 H 0.45826 0.30828 0.75296 0.0
H2875 H 0.45862 0.28364 0.75595 0.0
H2876 H 0.45002 0.29877 0.77388 0.0
H2877 H 0.41694 0.28527 0.68356 0.0
H2878 H 0.39571 0.26924 0.68324 0.0
H2879 H 0.41636 0.26033 0.68596 0.0
C2880 C 0.04231 0.85303 0.62821 0.0
C2881 C 0.05699 0.84441 0.63353 0.0
C2882 C 0.04379 0.8682 0.61691 0.0
C2883 C 0.06043 0.87506 0.61098 0.0
C2884 C 0.07557 0.86717 0.61722 0.0
C2885 C 0.07365 0.85182 0.62837 0.0
C2886 C 0.02732 0.8763 0.61057 0.0
C2887 C 0.09356 0.87433 0.61139 0.0
C2888 C 0.05413 0.89621 0.5632 0.0
C2889 C 0.05587 0.91596 0.57055 0.0
C2890 C 0.05674 0.88283 0.57619 0.0
C2891 C 0.06135 0.88943 0.59699 0.0
C2892 C 0.06453 0.90953 0.60437 0.0
C2893 C 0.06165 0.92258 0.59104 0.0
C2894 C 0.05328 0.86148 0.56776 0.0
C2895 C 0.06974 0.91712 0.62644 0.0
H2896 H 0.02951 0.84759 0.63252 0.0
H2897 H 0.08501 0.84511 0.63234 0.0
H2898 H 0.03024 0.89231 0.61499 0.0
H2899 H 0.0235 0.87324 0.59406 0.0
H2900 H 0.01564 0.86996 0.61722 0.0
H2901 H 0.10447 0.86854 0.61962 0.0
H2902 H 0.09284 0.86972 0.59516 0.0
H2903 H 0.09712 0.89045 0.61426 0.0
H2904 H 0.05003 0.89111 0.54732 0.0
H2905 H 0.06293 0.93782 0.59685 0.0
H2906 H 0.04088 0.85384 0.57224 0.0
H2907 H 0.0645 0.85483 0.57385 0.0
H2908 H 0.05159 0.85896 0.55119 0.0
H2909 H 0.05791 0.91344 0.63387 0.0
H2910 H 0.07454 0.93315 0.62941 0.0
H2911 H 0.08042 0.91018 0.63335 0.0
C2912 C 0.42507 0.79192 0.85971 0.0
C2913 C 0.43664 0.79758 0.8464 0.0
C2914 C 0.40637 0.78858 0.854 0.0
C2915 C 0.39907 0.7914 0.8347 0.0
C2916 C 0.41061 0.79744 0.82131 0.0
C2917 C 0.42925 0.80027 0.82725 0.0
C2918 C 0.39442 0.78191 0.86857 0.0
C2919 C 0.40328 0.80072 0.80062 0.0
C2920 C 0.35141 0.76765 0.81018 0.0
C2921 C 0.3425 0.78312 0.81312 0.0
C2922 C 0.36971 0.76989 0.81789 0.0
C2923 C 0.37933 0.78813 0.82842 0.0
C2924 C 0.37026 0.80361 0.83197 0.0
C2925 C 0.35188 0.80085 0.82443 0.0
C2926 C 0.37887 0.75294 0.81416 0.0
C2927 C 0.38017 0.82338 0.84281 0.0
H2928 H 0.43063 0.79016 0.87468 0.0
H2929 H 0.43803 0.80431 0.81675 0.0
H2930 H 0.38593 0.79264 0.87183 0.0
H2931 H 0.38522 0.76791 0.86187 0.0
H2932 H 0.40224 0.77996 0.88286 0.0
H2933 H 0.41407 0.80661 0.7925 0.0
H2934 H 0.3955 0.78679 0.79181 0.0
H2935 H 0.39395 0.81096 0.80147 0.0
H2936 H 0.34417 0.7539 0.8015 0.0
H2937 H 0.3451 0.81292 0.82656 0.0
H2938 H 0.3867 0.75069 0.82829 0.0
H2939 H 0.38847 0.75609 0.80376 0.0
H2940 H 0.36913 0.73924 0.80758 0.0
H2941 H 0.38774 0.82206 0.85746 0.0
H2942 H 0.37096 0.83353 0.84533 0.0
H2943 H 0.3901 0.82981 0.83396 0.0
C2944 C 0.50953 0.14902 0.0874 0.0
C2945 C 0.52399 0.165 0.09168 0.0
C2946 C 0.51046 0.13199 0.07507 0.0
C2947 C 0.52615 0.13101 0.06667 0.0
C2948 C 0.54034 0.14746 0.06995 0.0
C2949 C 0.53915 0.16421 0.08254 0.0
C2950 C 0.49506 0.11469 0.07194 0.0
C2951 C 0.55722 0.14701 0.06112 0.0
C2952 C 0.53698 0.08092 0.05866 0.0
C2953 C 0.5301 0.07469 0.03834 0.0
C2954 C 0.53619 0.09944 0.0679 0.0
C2955 C 0.52852 0.11212 0.05646 0.0
C2956 C 0.52243 0.10631 0.03569 0.0
C2957 C 0.52323 0.08755 0.02684 0.0
C2958 C 0.54284 0.10506 0.0901 0.0
C2959 C 0.51447 0.11962 0.023 0.0
H2960 H 0.49764 0.14965 0.0941 0.0
H2961 H 0.55052 0.17635 0.08593 0.0
H2962 H 0.49085 0.10892 0.0558 0.0
H2963 H 0.4995 0.1029 0.07937 0.0
H2964 H 0.48324 0.11833 0.07808 0.0
H2965 H 0.56583 0.16172 0.06275 0.0
H2966 H 0.56513 0.13758 0.06876 0.0
H2967 H 0.55384 0.14074 0.04505 0.0
H2968 H 0.54239 0.07103 0.06757 0.0
H2969 H 0.51796 0.08275 0.0111 0.0
H2970 H 0.53146 0.10738 0.09781 0.0
H2971 H 0.55286 0.11894 0.09319 0.0
H2972 H 0.54908 0.09378 0.09664 0.0
H2973 H 0.50152 0.12178 0.0274 0.0
H2974 H 0.512 0.11368 0.00683 0.0
H2975 H 0.52353 0.13412 0.02548 0.0
C2976 C 0.10408 0.27953 0.3136 0.0
C2977 C 0.09445 0.29329 0.30725 0.0
C2978 C 0.11916 0.27623 0.30545 0.0
C2979 C 0.12457 0.28675 0.29032 0.0
C2980 C 0.11465 0.30037 0.28349 0.0
C2981 C 0.09978 0.30367 0.29224 0.0
C2982 C 0.12956 0.26184 0.31343 0.0
C2983 C 0.11987 0.31154 0.26712 0.0
C2984 C 0.17367 0.28926 0.28747 0.0
C2985 C 0.17286 0.27278 0.2734 0.0
C2986 C 0.15799 0.29483 0.29218 0.0
C2987 C 0.14105 0.28378 0.28239 0.0
C2988 C 0.14014 0.26812 0.26701 0.0
C2989 C 0.15607 0.26271 0.26277 0.0
C2990 C 0.15958 0.31162 0.30871 0.0
C2991 C 0.12232 0.25621 0.25599 0.0
H2992 H 0.10012 0.27175 0.32545 0.0
H2993 H 0.09227 0.3143 0.28736 0.0
H2994 H 0.13014 0.25031 0.30114 0.0
H2995 H 0.1436 0.2693 0.3198 0.0
H2996 H 0.1235 0.25485 0.3252 0.0
H2997 H 0.11013 0.32072 0.2627 0.0
H2998 H 0.13335 0.32103 0.27215 0.0
H2999 H 0.12074 0.30133 0.25379 0.0
H3000 H 0.18661 0.2974 0.29542 0.0
H3001 H 0.15527 0.24994 0.2519 0.0
H3002 H 0.15547 0.30593 0.3221 0.0
H3003 H 0.1505 0.32142 0.30424 0.0
H3004 H 0.17354 0.32025 0.31291 0.0
H3005 H 0.11606 0.24679 0.26594 0.0
H3006 H 0.12386 0.24678 0.24237 0.0
H3007 H 0.11296 0.26578 0.25165 0.0
C3008 C 0.99286 1.00723 0.16493 0.0
C3009 C 0.97748 0.01409 0.16882 0.0
C3010 C 1.00005 0.0104 0.14755 0.0
C3011 C 0.99149 0.02038 0.13352 0.0
C3012 C 0.97568 0.02687 0.13714 0.0
C3013 C 0.96897 0.0238 0.1548 0.0
C3014 C 0.01706 1.00347 0.14442 0.0
C3015 C 0.96591 0.0372 0.12243 0.0
C3016 C 0.01976 0.04561 0.09918 0.0
C3017 C 0.01584 0.03176 0.0818 0.0
C3018 C 0.01182 0.04215 0.11601 0.0
C3019 C 0.9994 0.02455 0.11539 0.0
C3020 C 0.99489 0.01083 0.0976 0.0
C3021 C 1.00327 0.01452 0.0811 0.0
C3022 C 0.01717 0.0571 0.1347 0.0
C3023 C 0.98147 0.99205 0.09614 0.0
H3024 H 0.99955 0.99983 0.17577 0.0
H3025 H 0.95693 0.02891 0.1576 0.0
H3026 H 0.01476 0.99354 0.13002 0.0
H3027 H 0.02777 0.01605 0.14362 0.0
H3028 H 0.02197 0.99574 0.15659 0.0
H3029 H 0.95331 0.04048 0.12696 0.0
H3030 H 0.97473 0.05104 0.12103 0.0
H3031 H 0.96255 0.02816 0.10743 0.0
H3032 H 0.02951 0.05893 0.09987 0.0
H3033 H 1.00022 1.00373 0.06774 0.0
H3034 H 0.02344 0.0506 0.14714 0.0
H3035 H 1.0051 0.06175 0.13923 0.0
H3036 H 0.0268 0.07016 0.13268 0.0
H3037 H 0.98676 0.983 0.10675 0.0
H3038 H 0.97851 0.98353 0.08087 0.0
H3039 H 0.96872 0.99509 0.10037 0.0
C3040 C 0.28083 0.72012 0.49189 0.0
C3041 C 0.29882 0.71811 0.49509 0.0
C3042 C 0.27361 0.7268 0.47469 0.0
C3043 C 0.28467 0.73147 0.46043 0.0
C3044 C 0.30283 0.72946 0.4636 0.0
C3045 C 0.30968 0.72281 0.48092 0.0
C3046 C 0.25423 0.72892 0.47178 0.0
C3047 C 0.31502 0.73425 0.44866 0.0
C3048 C 0.26686 0.73284 0.40638 0.0
C3049 C 0.27022 0.75291 0.40597 0.0
C3050 C 0.27046 0.72558 0.42432 0.0
C3051 C 0.27753 0.73874 0.44219 0.0
C3052 C 0.27978 0.75899 0.44208 0.0
C3053 C 0.27615 0.76584 0.42394 0.0
C3054 C 0.26779 0.70387 0.42392 0.0
C3055 C 0.28722 0.77346 0.46088 0.0
H3056 H 0.27246 0.71662 0.50294 0.0
H3057 H 0.3235 0.72095 0.4832 0.0
H3058 H 0.25347 0.74425 0.47065 0.0
H3059 H 0.24678 0.71995 0.45759 0.0
H3060 H 0.24739 0.72447 0.48421 0.0
H3061 H 0.32878 0.73178 0.45337 0.0
H3062 H 0.3093 0.72521 0.43392 0.0
H3063 H 0.31602 0.74969 0.44661 0.0
H3064 H 0.26198 0.72281 0.39255 0.0
H3065 H 0.27896 0.78137 0.42372 0.0
H3066 H 0.26052 0.69943 0.43602 0.0
H3067 H 0.28108 0.69969 0.42655 0.0
H3068 H 0.26019 0.69566 0.4094 0.0
H3069 H 0.28025 0.76938 0.47331 0.0
H3070 H 0.28591 0.78847 0.45876 0.0
H3071 H 0.30168 0.77341 0.46544 0.0
C3072 C 0.60506 0.99426 0.66944 0.0
C3073 C 0.60351 1.00609 0.68708 0.0
C3074 C 0.59587 0.99582 0.65021 0.0
C3075 C 0.58436 0.00938 0.64795 0.0
C3076 C 0.5827 0.02132 0.66567 0.0
C3077 C 0.59222 0.01965 0.68467 0.0
C3078 C 0.59855 0.98284 0.63215 0.0
C3079 C 0.57053 0.03579 0.66463 0.0
C3080 C 0.56952 0.02467 0.59593 0.0
C3081 C 0.55241 0.01263 0.58903 0.0
C3082 C 0.58007 0.02363 0.61466 0.0
C3083 C 0.5735 0.01047 0.6274 0.0
C3084 C 0.55622 0.99839 0.62044 0.0
C3085 C 0.54614 0.99951 0.60162 0.0
C3086 C 0.59836 0.03673 0.62084 0.0
C3087 C 0.54816 0.98426 0.63307 0.0
H3088 H 0.61376 0.98386 0.67057 0.0
H3089 H 0.59046 0.02883 0.69782 0.0
H3090 H 0.58557 0.9732 0.62496 0.0
H3091 H 0.60323 0.99178 0.62098 0.0
H3092 H 0.60846 0.97367 0.63598 0.0
H3093 H 0.57076 0.04428 0.67948 0.0
H3094 H 0.57459 0.04603 0.65433 0.0
H3095 H 0.55651 0.02808 0.65854 0.0
H3096 H 0.57472 0.03499 0.58671 0.0
H3097 H 0.53303 0.99007 0.59683 0.0
H3098 H 0.6087 0.02792 0.62407 0.0
H3099 H 0.59864 0.0467 0.63478 0.0
H3100 H 0.60204 0.04555 0.60917 0.0
H3101 H 0.55702 0.97381 0.63598 0.0
H3102 H 0.53458 0.97595 0.62586 0.0
H3103 H 0.54713 0.9922 0.64775 0.0
C3104 C 0.29227 0.31417 0.94113 0.0
C3105 C 0.29616 0.33446 0.94691 0.0
C3106 C 0.29177 0.30574 0.92123 0.0
C3107 C 0.29495 0.3178 0.90656 0.0
C3108 C 0.29892 0.33825 0.91225 0.0
C3109 C 0.29965 0.34628 0.93228 0.0
C3110 C 0.28767 0.28387 0.91588 0.0
C3111 C 0.30223 0.3517 0.89712 0.0
C3112 C 0.30771 0.29776 0.85724 0.0
C3113 C 0.29114 0.29371 0.84426 0.0
C3114 C 0.3091 0.30525 0.87759 0.0
C3115 C 0.29363 0.30913 0.88514 0.0
C3116 C 0.2769 0.30514 0.87208 0.0
C3117 C 0.27583 0.29737 0.85191 0.0
C3118 C 0.32715 0.30901 0.89104 0.0
C3119 C 0.26011 0.30932 0.87934 0.0
H3120 H 0.28934 0.30479 0.95208 0.0
H3121 H 0.30311 0.36193 0.93648 0.0
H3122 H 0.27491 0.27907 0.90508 0.0
H3123 H 0.29842 0.27905 0.9085 0.0
H3124 H 0.28643 0.27649 0.92915 0.0
H3125 H 0.30506 0.36727 0.90389 0.0
H3126 H 0.31378 0.34881 0.88999 0.0
H3127 H 0.29032 0.34896 0.88511 0.0
H3128 H 0.31959 0.29489 0.85155 0.0
H3129 H 0.26297 0.29442 0.84204 0.0
H3130 H 0.32616 0.30093 0.90384 0.0
H3131 H 0.33133 0.32469 0.89726 0.0
H3132 H 0.33776 0.30463 0.88307 0.0
H3133 H 0.25737 0.30116 0.89174 0.0
H3134 H 0.24813 0.30535 0.86732 0.0
H3135 H 0.26209 0.32502 0.88528 0.0
C3136 C 1.0027 0.02287 0.37403 0.0
C3137 C 0.98441 0.02285 0.36818 0.0
C3138 C 0.01042 0.02541 0.39435 0.0
C3139 C 0.99958 0.02792 0.40921 0.0
C3140 C 0.98128 0.02861 0.40341 0.0
C3141 C 0.97396 0.02614 0.38303 0.0
C3142 C 0.03 0.02466 0.39991 0.0
C3143 C 0.96923 0.03127 0.41871 0.0
C3144 C 0.01136 0.01062 0.45889 0.0
C3145 C 0.01867 0.02813 0.47187 0.0
C3146 C 1.00543 0.0104 0.43849 0.0
C3147 C 1.00686 0.02812 0.4307 0.0
C3148 C 0.01451 0.04586 0.44361 0.0
C3149 C 0.02027 0.04566 0.46404 0.0
C3150 C 0.9973 0.99116 0.42532 0.0
C3151 C 0.01637 0.06506 0.43589 0.0
H3152 H 0.01088 0.02025 0.36272 0.0
H3153 H 0.95992 0.0266 0.37872 0.0
H3154 H 0.03699 0.03734 0.41128 0.0
H3155 H 0.03117 0.01138 0.40662 0.0
H3156 H 0.037 0.02451 0.38678 0.0
H3157 H 0.95563 0.03273 0.41184 0.0
H3158 H 0.96779 0.0186 0.42681 0.0
H3159 H 0.9753 0.04437 0.42992 0.0
H3160 H 0.01004 0.99697 0.46468 0.0
H3161 H 0.02595 0.05928 0.47388 0.0
H3162 H 1.00462 0.98921 0.41262 0.0
H3163 H 0.98312 0.99094 0.41896 0.0
H3164 H 0.99761 0.97863 0.43355 0.0
H3165 H 0.02385 0.06472 0.42319 0.0
H3166 H 0.02345 0.07745 0.4476 0.0
H3167 H 1.00287 0.06766 0.43022 0.0
C3168 C 0.36062 0.73173 0.69463 0.0
C3169 C 0.36476 0.74001 0.67789 0.0
C3170 C 0.35657 0.74309 0.71099 0.0
C3171 C 0.35666 0.76302 0.71038 0.0
C3172 C 0.36335 0.77189 0.69483 0.0
C3173 C 0.36731 0.76022 0.67868 0.0
C3174 C 0.35022 0.7334 0.72784 0.0
C3175 C 0.36422 0.79323 0.69404 0.0
C3176 C 0.31685 0.77984 0.72812 0.0
C3177 C 0.3245 0.79018 0.74702 0.0
C3178 C 0.32734 0.77121 0.71601 0.0
C3179 C 0.34598 0.77317 0.72298 0.0
C3180 C 0.35392 0.78426 0.74182 0.0
C3181 C 0.34302 0.79268 0.75368 0.0
C3182 C 0.3183 0.75945 0.696 0.0
C3183 C 0.37365 0.78663 0.74989 0.0
H3184 H 0.35879 0.71612 0.69411 0.0
H3185 H 0.37089 0.76665 0.66586 0.0
H3186 H 0.35764 0.74162 0.7424 0.0
H3187 H 0.33577 0.73352 0.72762 0.0
H3188 H 0.35203 0.71811 0.72679 0.0
H3189 H 0.37275 0.79854 0.68326 0.0
H3190 H 0.35046 0.79567 0.68934 0.0
H3191 H 0.36957 0.80199 0.709 0.0
H3192 H 0.30252 0.77805 0.72304 0.0
H3193 H 0.34888 0.80062 0.76844 0.0
H3194 H 0.31948 0.74404 0.69583 0.0
H3195 H 0.32503 0.76493 0.68392 0.0
H3196 H 0.30382 0.75995 0.69258 0.0
H3197 H 0.37576 0.77392 0.75722 0.0
H3198 H 0.37856 0.79993 0.76119 0.0
H3199 H 0.3819 0.78736 0.73786 0.0
C3200 C 0.60497 0.995 0.90366 0.0
C3201 C 0.61032 0.01094 0.89365 0.0
C3202 C 0.59632 0.99661 0.92089 0.0
C3203 C 0.59228 0.01459 0.92892 0.0
C3204 C 0.59751 0.03071 0.91897 0.0
C3205 C 0.60639 0.02878 0.90198 0.0
C3206 C 0.59144 0.97882 0.93056 0.0
C3207 C 0.59364 0.05026 0.92629 0.0
C3208 C 0.55433 0.01447 0.96198 0.0
C3209 C 0.56369 0.0202 0.98181 0.0
C3210 C 0.56327 0.01275 0.94504 0.0
C3211 C 0.58242 0.01648 0.94731 0.0
C3212 C 0.59197 0.02212 0.96732 0.0
C3213 C 0.58267 0.02402 0.984 0.0
C3214 C 0.55206 1.00697 0.92448 0.0
C3215 C 0.61222 0.02605 0.9712 0.0
H3216 H 0.60731 0.98089 0.89799 0.0
H3217 H 0.61039 0.04164 0.89539 0.0
H3218 H 0.59744 0.98191 0.94664 0.0
H3219 H 0.57664 0.97494 0.92962 0.0
H3220 H 0.59607 0.96608 0.92343 0.0
H3221 H 0.59804 0.06139 0.91697 0.0
H3222 H 0.57901 0.04895 0.92626 0.0
H3223 H 0.60056 0.0554 0.94192 0.0
H3224 H 0.53977 0.01139 0.95957 0.0
H3225 H 0.5904 0.02832 0.99893 0.0
H3226 H 0.55484 0.9932 0.91717 0.0
H3227 H 0.55574 0.01825 0.91507 0.0
H3228 H 0.53743 1.00497 0.92485 0.0
H3229 H 0.61698 0.01303 0.96502 0.0
H3230 H 0.61787 0.02988 0.98738 0.0
H3231 H 0.6176 0.03813 0.96348 0.0
C3232 C 0.28597 0.3234 0.14683 0.0
C3233 C 0.30262 0.33398 0.14413 0.0
C3234 C 0.28421 0.31413 0.16372 0.0
C3235 C 0.29954 0.31484 0.17825 0.0
C3236 C 0.31645 0.32508 0.1755 0.0
C3237 C 0.31775 0.33467 0.15872 0.0
C3238 C 0.26584 0.30365 0.16607 0.0
C3239 C 0.33323 0.32597 0.19036 0.0
C3240 C 0.29215 0.30569 0.23073 0.0
C3241 C 0.29218 0.28576 0.22975 0.0
C3242 C 0.29466 0.31533 0.21422 0.0
C3243 C 0.29776 0.30499 0.19634 0.0
C3244 C 0.29848 0.28502 0.19558 0.0
C3245 C 0.29546 0.27562 0.21215 0.0
C3246 C 0.29338 0.33647 0.21569 0.0
C3247 C 0.3022 0.27348 0.17711 0.0
H3248 H 0.27416 0.32217 0.13564 0.0
H3249 H 0.33069 0.34295 0.15726 0.0
H3250 H 0.26581 0.28802 0.16631 0.0
H3251 H 0.26249 0.30962 0.18052 0.0
H3252 H 0.25514 0.30495 0.15384 0.0
H3253 H 0.34551 0.33365 0.18564 0.0
H3254 H 0.33202 0.33358 0.20513 0.0
H3255 H 0.33489 0.31105 0.19237 0.0
H3256 H 0.28952 0.31363 0.24422 0.0
H3257 H 0.29557 0.26025 0.2113 0.0
H3258 H 0.28208 0.33811 0.20438 0.0
H3259 H 0.30584 0.3452 0.2124 0.0
H3260 H 0.2912 0.34255 0.23069 0.0
H3261 H 0.29108 0.27244 0.16451 0.0
H3262 H 0.30364 0.25854 0.17936 0.0
H3263 H 0.31469 0.28099 0.1727 0.0
C3264 C 0.17928 0.91939 0.05666 0.0
C3265 C 0.17906 0.91582 0.03601 0.0
C3266 C 0.16954 0.93249 0.06474 0.0
C3267 C 0.15968 0.94239 0.05183 0.0
C3268 C 0.1592 0.93855 0.03095 0.0
C3269 C 0.16884 0.92523 0.02329 0.0
C3270 C 0.16992 0.93592 0.087 0.0
C3271 C 0.14888 0.94889 0.01669 0.0
C3272 C 0.12147 0.9664 0.0623 0.0
C3273 C 0.12977 0.98607 0.06473 0.0
C3274 C 0.13145 0.95183 0.06012 0.0
C3275 C 0.15007 0.95714 0.05986 0.0
C3276 C 0.15876 0.97699 0.06393 0.0
C3277 C 0.14847 0.99129 0.06648 0.0
C3278 C 0.12172 0.93083 0.05626 0.0
C3279 C 0.17859 0.9832 0.06368 0.0
H3280 H 0.18714 0.91198 0.06645 0.0
H3281 H 0.1689 0.92267 0.00736 0.0
H3282 H 0.17625 0.95126 0.09318 0.0
H3283 H 0.15601 0.93339 0.09027 0.0
H3284 H 0.17749 0.92631 0.09485 0.0
H3285 H 0.14996 0.94424 1.00088 0.0
H3286 H 0.13446 0.94603 0.01813 0.0
H3287 H 0.15399 0.96483 0.02047 0.0
H3288 H 0.107 0.9624 0.06099 0.0
H3289 H 0.15486 1.00651 0.06828 0.0
H3290 H 0.13013 0.92138 0.06305 0.0
H3291 H 0.11852 0.92574 0.03992 0.0
H3292 H 0.1089 0.92901 0.06221 0.0
H3293 H 0.18642 0.97433 0.07226 0.0
H3294 H 0.18372 0.9988 0.06995 0.0
H3295 H 0.18102 0.98087 0.04805 0.0
C3296 C 0.65664 0.58825 1.00034 0.0
C3297 C 0.66879 0.59883 0.01712 0.0
C3298 C 0.63966 0.57769 1.00219 0.0
C3299 C 0.63459 0.5775 0.0213 0.0
C3300 C 0.64669 0.58834 0.03825 0.0
C3301 C 0.66354 0.59884 0.03597 0.0
C3302 C 0.62722 0.56648 0.98367 0.0
C3303 C 0.64199 0.58848 0.05893 0.0
C3304 C 0.58494 0.56037 0.02505 0.0
C3305 C 0.58431 0.54094 0.02764 0.0
C3306 C 0.60116 0.57251 0.02306 0.0
C3307 C 0.61717 0.56504 0.02368 0.0
C3308 C 0.61654 0.54543 0.02644 0.0
C3309 C 0.60017 0.53366 0.02827 0.0
C3310 C 0.6011 0.59323 0.01999 0.0
C3311 C 0.63318 0.53679 0.02732 0.0
H3312 H 0.66036 0.58831 0.98567 0.0
H3313 H 0.67282 0.60671 0.0491 0.0
H3314 H 0.6249 0.5507 0.98455 0.0
H3315 H 0.61396 0.57078 0.98261 0.0
H3316 H 0.6327 0.56887 0.96982 0.0
H3317 H 0.65242 0.59837 0.07048 0.0
H3318 H 0.62896 0.59306 0.05938 0.0
H3319 H 0.64042 0.57358 0.0628 0.0
H3320 H 0.57267 0.56595 0.02403 0.0
H3321 H 0.59978 0.51862 0.03018 0.0
H3322 H 0.60541 0.59568 1.00557 0.0
H3323 H 0.61087 0.60337 0.03195 0.0
H3324 H 0.58762 0.59689 0.02 0.0
H3325 H 0.63848 0.53738 0.01312 0.0
H3326 H 0.63055 0.52143 0.02994 0.0
H3327 H 0.64385 0.5454 0.03946 0.0
C3328 C 0.70801 0.466 0.31727 0.0
C3329 C 0.69042 0.46324 0.30682 0.0
C3330 C 0.71727 0.45062 0.31729 0.0
C3331 C 0.70865 0.43198 0.30681 0.0
C3332 C 0.69087 0.42909 0.29629 0.0
C3333 C 0.68201 0.44479 0.29632 0.0
C3334 C 0.7363 0.45434 0.32848 0.0
C3335 C 0.68115 0.40938 0.28516 0.0
C3336 C 0.73782 0.39619 0.29248 0.0
C3337 C 0.73732 0.38496 0.30794 0.0
C3338 C 0.72849 0.4115 0.29188 0.0
C3339 C 0.71824 0.41549 0.30696 0.0
C3340 C 0.71741 0.40394 0.32239 0.0
C3341 C 0.72706 0.38889 0.32276 0.0
C3342 C 0.72989 0.42363 0.27532 0.0
C3343 C 0.70642 0.40755 0.33857 0.0
H3344 H 0.71462 0.48029 0.32522 0.0
H3345 H 0.66834 0.44255 0.28841 0.0
H3346 H 0.73714 0.44496 0.34025 0.0
H3347 H 0.74545 0.45054 0.31813 0.0
H3348 H 0.74118 0.46975 0.33559 0.0
H3349 H 0.66732 0.40954 0.27779 0.0
H3350 H 0.68875 0.40433 0.27361 0.0
H3351 H 0.68032 0.39859 0.29561 0.0
H3352 H 0.74589 0.39332 0.28112 0.0
H3353 H 0.72652 0.3801 0.33462 0.0
H3354 H 0.73587 0.43901 0.28176 0.0
H3355 H 0.71631 0.42331 0.26701 0.0
H3356 H 0.73824 0.41849 0.26461 0.0
H3357 H 0.71162 0.42235 0.34715 0.0
H3358 H 0.70669 0.39684 0.3491 0.0
H3359 H 0.69225 0.40686 0.33181 0.0
C3360 C 0.84111 0.48264 0.54929 0.0
C3361 C 0.82759 0.47618 0.53248 0.0
C3362 C 0.85865 0.4909 0.54722 0.0
C3363 C 0.86261 0.49273 0.52791 0.0
C3364 C 0.8485 0.48866 0.5113 0.0
C3365 C 0.8311 0.4804 0.51379 0.0
C3366 C 0.87326 0.49544 0.56538 0.0
C3367 C 0.85211 0.49066 0.49049 0.0
C3368 C 0.90994 0.5137 0.52027 0.0
C3369 C 0.91662 0.49669 0.51628 0.0
C3370 C 0.89243 0.5128 0.5244 0.0
C3371 C 0.88144 0.49447 0.52446 0.0
C3372 C 0.88826 0.47731 0.52074 0.0
C3373 C 0.90576 0.47865 0.51674 0.0
C3374 C 0.88559 0.53136 0.52832 0.0
C3375 C 0.87701 0.45744 0.52081 0.0
H3376 H 0.83833 0.47976 0.56384 0.0
H3377 H 0.82072 0.47547 0.50072 0.0
H3378 H 0.88056 0.48327 0.56569 0.0
H3379 H 0.88316 0.50881 0.56488 0.0
H3380 H 0.86767 0.49729 0.57943 0.0
H3381 H 0.83962 0.49075 0.48009 0.0
H3382 H 0.86203 0.50418 0.49053 0.0
H3383 H 0.85784 0.47821 0.4847 0.0
H3384 H 0.9183 0.52768 0.51982 0.0
H3385 H 0.911 0.46551 0.51407 0.0
H3386 H 0.8798 0.53194 0.54228 0.0
H3387 H 0.87466 0.53179 0.51599 0.0
H3388 H 0.89634 0.54449 0.52957 0.0
H3389 H 0.87258 0.45674 0.53546 0.0
H3390 H 0.88444 0.44559 0.51785 0.0
H3391 H 0.86477 0.45473 0.50925 0.0
C3392 C 0.35266 0.14389 0.25685 0.0
C3393 C 0.35768 0.1358 0.27428 0.0
C3394 C 0.3442 0.16046 0.257 0.0
C3395 C 0.34021 0.17002 0.27498 0.0
C3396 C 0.34527 0.16207 0.29262 0.0
C3397 C 0.35372 0.14547 0.29208 0.0
C3398 C 0.33958 0.1679 0.23762 0.0
C3399 C 0.34168 0.17115 0.31236 0.0
C3400 C 0.33156 0.22381 0.27898 0.0
C3401 C 0.3126 0.22157 0.2762 0.0
C3402 C 0.34053 0.2076 0.27845 0.0
C3403 C 0.3307 0.18794 0.2753 0.0
C3404 C 0.31157 0.18561 0.27246 0.0
C3405 C 0.30295 0.20206 0.27288 0.0
C3406 C 0.36078 0.21168 0.28157 0.0
C3407 C 0.29999 0.16549 0.26902 0.0
H3408 H 0.35557 0.13745 0.24282 0.0
H3409 H 0.35697 0.13993 0.30587 0.0
H3410 H 0.32493 0.16752 0.23441 0.0
H3411 H 0.34656 0.18328 0.23891 0.0
H3412 H 0.3434 0.15925 0.22482 0.0
H3413 H 0.3463 0.16367 0.32486 0.0
H3414 H 0.34859 0.18666 0.3157 0.0
H3415 H 0.32707 0.17072 0.31153 0.0
H3416 H 0.33957 0.23841 0.28155 0.0
H3417 H 0.28841 0.19952 0.27073 0.0
H3418 H 0.36563 0.20184 0.27061 0.0
H3419 H 0.36603 0.20898 0.2967 0.0
H3420 H 0.3665 0.22695 0.28025 0.0
H3421 H 0.30274 0.15682 0.25557 0.0
H3422 H 0.28542 0.16573 0.26699 0.0
H3423 H 0.30337 0.15794 0.28187 0.0
C3424 C 0.36389 0.11694 0.52138 0.0
C3425 C 0.34664 0.10498 0.51638 0.0
C3426 C 0.37953 0.10904 0.5235 0.0
C3427 C 0.37803 0.0886 0.52071 0.0
C3428 C 0.3607 0.07642 0.51554 0.0
C3429 C 0.34529 0.08472 0.51341 0.0
C3430 C 0.39767 0.1226 0.52903 0.0
C3431 C 0.35842 0.05457 0.51242 0.0
C3432 C 0.4187 0.06672 0.51081 0.0
C3433 C 0.42516 0.06245 0.52968 0.0
C3434 C 0.40357 0.0754 0.5077 0.0
C3435 C 0.39453 0.07994 0.52381 0.0
C3436 C 0.40116 0.07598 0.54295 0.0
C3437 C 0.41634 0.0674 0.54564 0.0
C3438 C 0.39706 0.07943 0.48708 0.0
C3439 C 0.39208 0.08061 0.5606 0.0
H3440 H 0.36522 0.13258 0.52405 0.0
H3441 H 0.33214 0.07526 0.50925 0.0
H3442 H 0.40452 0.12037 0.5437 0.0
H3443 H 0.40631 0.11935 0.51789 0.0
H3444 H 0.39663 0.13812 0.5299 0.0
H3445 H 0.34409 0.04709 0.50812 0.0
H3446 H 0.36588 0.04984 0.50059 0.0
H3447 H 0.36417 0.0498 0.52633 0.0
H3448 H 0.42521 0.06284 0.49828 0.0
H3449 H 0.42133 0.06457 0.56038 0.0
H3450 H 0.39645 0.09502 0.48764 0.0
H3451 H 0.38324 0.07091 0.48147 0.0
H3452 H 0.40586 0.07569 0.47627 0.0
H3453 H 0.39175 0.09631 0.56305 0.0
H3454 H 0.39897 0.07685 0.57455 0.0
H3455 H 0.37794 0.07247 0.55753 0.0
C3456 C 0.70482 0.66027 0.3181 0.0
C3457 C 0.70552 0.64209 0.3078 0.0
C3458 C 0.71714 0.67711 0.31652 0.0
C3459 C 0.73073 0.67561 0.30474 0.0
C3460 C 0.73166 0.65719 0.29462 0.0
C3461 C 0.71894 0.64071 0.29611 0.0
C3462 C 0.71544 0.69653 0.32714 0.0
C3463 C 0.74609 0.6549 0.28218 0.0
C3464 C 0.75323 0.7193 0.28387 0.0
C3465 C 0.76935 0.72567 0.29745 0.0
C3466 C 0.74029 0.70346 0.28646 0.0
C3467 C 0.74382 0.69329 0.30265 0.0
C3468 C 0.76018 0.69957 0.31633 0.0
C3469 C 0.7727 0.71578 0.31364 0.0
C3470 C 0.72292 0.69748 0.27171 0.0
C3471 C 0.76459 0.68894 0.33359 0.0
H3472 H 0.69436 0.66137 0.32702 0.0
H3473 H 0.71958 0.62663 0.28829 0.0
H3474 H 0.72808 0.70338 0.33755 0.0
H3475 H 0.71325 0.70647 0.31613 0.0
H3476 H 0.70415 0.69523 0.33571 0.0
H3477 H 0.74536 0.63948 0.27587 0.0
H3478 H 0.74482 0.6634 0.26968 0.0
H3479 H 0.75957 0.66072 0.29138 0.0
H3480 H 0.75082 0.72652 0.27101 0.0
H3481 H 0.7852 0.72061 0.32411 0.0
H3482 H 0.71129 0.69677 0.27972 0.0
H3483 H 0.72205 0.68275 0.26343 0.0
H3484 H 0.72174 0.7077 0.26076 0.0
H3485 H 0.754 0.68856 0.34307 0.0
H3486 H 0.77777 0.69581 0.34304 0.0
H3487 H 0.76489 0.67366 0.32786 0.0
C3488 C 0.83434 0.4246 0.76279 0.0
C3489 C 0.853 0.43164 0.76921 0.0
C3490 C 0.82579 0.40509 0.76358 0.0
C3491 C 0.83589 0.39159 0.77077 0.0
C3492 C 0.85473 0.39851 0.77702 0.0
C3493 C 0.8629 0.41813 0.77625 0.0
C3494 C 0.80574 0.39896 0.7569 0.0
C3495 C 0.8664 0.38508 0.78457 0.0
C3496 C 0.8124 0.34622 0.79112 0.0
C3497 C 0.80999 0.33081 0.77512 0.0
C3498 C 0.82051 0.36572 0.78985 0.0
C3499 C 0.8268 0.37055 0.77215 0.0
C3500 C 0.82446 0.35506 0.75593 0.0
C3501 C 0.81613 0.33567 0.75755 0.0
C3502 C 0.82235 0.38128 0.80762 0.0
C3503 C 0.83089 0.35894 0.73675 0.0
H3504 H 0.82621 0.43452 0.75748 0.0
H3505 H 0.87729 0.4228 0.78099 0.0
H3506 H 0.80265 0.38631 0.74475 0.0
H3507 H 0.79929 0.39427 0.76947 0.0
H3508 H 0.79967 0.41084 0.75148 0.0
H3509 H 0.88083 0.39226 0.78845 0.0
H3510 H 0.86198 0.37984 0.79802 0.0
H3511 H 0.86494 0.37212 0.77308 0.0
H3512 H 0.80782 0.34307 0.80484 0.0
H3513 H 0.81456 0.32423 0.74497 0.0
H3514 H 0.81551 0.393 0.80321 0.0
H3515 H 0.83675 0.38796 0.81297 0.0
H3516 H 0.81656 0.37552 0.82017 0.0
H3517 H 0.8241 0.36986 0.73028 0.0
H3518 H 0.82829 0.34558 0.7255 0.0
H3519 H 0.84554 0.36514 0.73981 0.0
C3520 C 0.06174 0.88626 0.072 0.0
C3521 C 0.05544 0.8826 0.08974 0.0
C3522 C 0.05976 0.90325 0.06375 0.0
C3523 C 0.05108 0.91698 0.07326 0.0
C3524 C 0.04471 0.91339 0.09116 0.0
C3525 C 0.04697 0.89637 0.09914 0.0
C3526 C 0.06684 0.9064 0.04471 0.0
C3527 C 0.03534 0.92748 0.10187 0.0
C3528 C 0.05873 0.96935 0.06189 0.0
C3529 C 0.04282 0.96941 0.04887 0.0
C3530 C 0.06159 0.95248 0.06987 0.0
C3531 C 0.04846 0.93498 0.06443 0.0
C3532 C 0.03259 0.93485 0.0509 0.0
C3533 C 0.0299 0.95202 0.04348 0.0
C3534 C 0.07847 0.95356 0.08463 0.0
C3535 C 0.01826 0.91659 0.0445 0.0
H3536 H 0.06847 0.87594 0.06464 0.0
H3537 H 0.04177 0.89369 0.11265 0.0
H3538 H 0.05542 0.90555 0.03249 0.0
H3539 H 0.07542 0.92112 0.04647 0.0
H3540 H 0.07477 0.89545 0.04017 0.0
H3541 H 0.03156 0.92289 0.11588 0.0
H3542 H 0.04417 0.94214 0.10556 0.0
H3543 H 0.02299 0.92881 0.09198 0.0
H3544 H 0.06877 0.98267 0.06636 0.0
H3545 H 0.01758 0.95181 0.03344 0.0
H3546 H 0.08567 0.94211 0.07954 0.0
H3547 H 0.0749 0.95078 0.09929 0.0
H3548 H 0.08771 0.96796 0.08679 0.0
H3549 H 0.02415 0.9046 0.03791 0.0
H3550 H 1.00698 0.91863 0.03338 0.0
H3551 H 0.0128 0.91198 0.05768 0.0
C3552 C 0.90891 0.2731 0.86874 0.0
C3553 C 0.91696 0.25758 0.86241 0.0
C3554 C 0.89215 0.27519 0.85875 0.0
C3555 C 0.88295 0.26139 0.842 0.0
C3556 C 0.89071 0.24539 0.83586 0.0
C3557 C 0.90756 0.2437 0.84606 0.0
C3558 C 0.88447 0.29249 0.86587 0.0
C3559 C 0.88144 0.23028 0.81813 0.0
C3560 C 0.83295 0.25921 0.82285 0.0
C3561 C 0.83379 0.26935 0.80656 0.0
C3562 C 0.84878 0.2566 0.83464 0.0
C3563 C 0.86587 0.26439 0.8301 0.0
C3564 C 0.86671 0.275 0.81392 0.0
C3565 C 0.85073 0.27732 0.80241 0.0
C3566 C 0.84722 0.2452 0.85172 0.0
C3567 C 0.88452 0.28373 0.80854 0.0
H3568 H 0.91573 0.28372 0.88157 0.0
H3569 H 0.91358 0.23174 0.84081 0.0
H3570 H 0.88357 0.30184 0.85407 0.0
H3571 H 0.87064 0.28759 0.86876 0.0
H3572 H 0.89278 0.30141 0.8797 0.0
H3573 H 0.88854 0.21802 0.81606 0.0
H3574 H 0.86744 0.22441 0.81992 0.0
H3575 H 0.88071 0.23708 0.80436 0.0
H3576 H 0.81993 0.25298 0.82616 0.0
H3577 H 0.85153 0.28525 0.7899 0.0
H3578 H 0.85501 0.25406 0.86581 0.0
H3579 H 0.85306 0.23207 0.84901 0.0
H3580 H 0.83305 0.24058 0.85373 0.0
H3581 H 0.89301 0.29369 0.82159 0.0
H3582 H 0.88291 0.29194 0.79582 0.0
H3583 H 0.89184 0.27206 0.80452 0.0
C3584 C 0.55286 0.17971 0.56623 0.0
C3585 C 0.54796 0.18531 0.58474 0.0
C3586 C 0.55162 0.15995 0.55868 0.0
C3587 C 0.54572 0.14538 0.57009 0.0
C3588 C 0.54099 0.15101 0.58892 0.0
C3589 C 0.542 0.17083 0.59589 0.0
C3590 C 0.55647 0.15465 0.5384 0.0
C3591 C 0.53499 0.1361 0.60181 0.0
C3592 C 0.52685 0.09264 0.54556 0.0
C3593 C 0.5417 0.08384 0.54958 0.0
C3594 C 0.52811 0.11268 0.55165 0.0
C3595 C 0.5445 0.12426 0.56244 0.0
C3596 C 0.55957 0.11548 0.56643 0.0
C3597 C 0.55804 0.09548 0.55979 0.0
C3598 C 0.51179 0.12142 0.54669 0.0
C3599 C 0.57721 0.12711 0.57819 0.0
H3600 H 0.55739 0.19081 0.55748 0.0
H3601 H 0.53843 0.17505 0.61033 0.0
H3602 H 0.56772 0.14678 0.53977 0.0
H3603 H 0.54486 0.14471 0.52848 0.0
H3604 H 0.56046 0.16761 0.53121 0.0
H3605 H 0.53217 0.14285 0.61625 0.0
H3606 H 0.52266 0.1258 0.59381 0.0
H3607 H 0.54553 0.12751 0.60492 0.0
H3608 H 0.51418 0.08385 0.53759 0.0
H3609 H 0.56956 0.08884 0.56313 0.0
H3610 H 0.5152 0.13393 0.5387 0.0
H3611 H 0.50741 0.12702 0.56065 0.0
H3612 H 0.50035 0.11073 0.53729 0.0
H3613 H 0.58214 0.13961 0.57078 0.0
H3614 H 0.58773 0.11824 0.57984 0.0
H3615 H 0.57524 0.13312 0.59329 0.0
C3616 C 0.60693 0.75054 0.37731 0.0
C3617 C 0.59303 0.7594 0.36956 0.0
C3618 C 0.62293 0.75164 0.36924 0.0
C3619 C 0.62521 0.76182 0.35293 0.0
C3620 C 0.61123 0.77074 0.34499 0.0
C3621 C 0.5954 0.76945 0.35338 0.0
C3622 C 0.63746 0.74201 0.37829 0.0
C3623 C 0.61298 0.78164 0.32755 0.0
C3624 C 0.67262 0.78026 0.34273 0.0
C3625 C 0.67409 0.76623 0.32694 0.0
C3626 C 0.65694 0.77891 0.35141 0.0
C3627 C 0.64221 0.76317 0.34418 0.0
C3628 C 0.64367 0.74885 0.3284 0.0
C3629 C 0.65952 0.75053 0.32003 0.0
C3630 C 0.65609 0.79444 0.36828 0.0
C3631 C 0.62834 0.73186 0.32013 0.0
H3632 H 0.60546 0.74298 0.38997 0.0
H3633 H 0.58473 0.77616 0.34707 0.0
H3634 H 0.64046 0.73117 0.36675 0.0
H3635 H 0.65004 0.753 0.38384 0.0
H3636 H 0.63363 0.73457 0.39086 0.0
H3637 H 0.60091 0.78772 0.32304 0.0
H3638 H 0.62489 0.79373 0.33143 0.0
H3639 H 0.61509 0.77181 0.31455 0.0
H3640 H 0.68381 0.79232 0.34841 0.0
H3641 H 0.66032 0.73973 0.30768 0.0
H3642 H 0.65331 0.78776 0.38162 0.0
H3643 H 0.64489 0.80183 0.36392 0.0
H3644 H 0.66877 0.80555 0.37248 0.0
H3645 H 0.6247 0.72365 0.33223 0.0
H3646 H 0.63167 0.72174 0.30813 0.0
H3647 H 0.61629 0.73722 0.31401 0.0
C3648 C 0.04991 0.20562 0.42581 0.0
C3649 C 0.03339 0.21158 0.42281 0.0
C3650 C 0.05203 0.19012 0.43624 0.0
C3651 C 0.03734 0.18056 0.44403 0.0
C3652 C 0.02041 0.18588 0.44023 0.0
C3653 C 0.01862 0.20124 0.42955 0.0
C3654 C 0.07021 0.18466 0.43978 0.0
C3655 C 1.00443 0.17604 0.44834 0.0
C3656 C 0.03734 0.13314 0.46446 0.0
C3657 C 0.0418 0.1398 0.48507 0.0
C3658 C 0.03651 0.14627 0.45076 0.0
C3659 C 0.04003 0.16645 0.45791 0.0
C3660 C 0.04515 0.17326 0.47864 0.0
C3661 C 0.04609 0.15985 0.49194 0.0
C3662 C 0.03125 0.13852 0.42873 0.0
C3663 C 0.04899 0.19469 0.48686 0.0
H3664 H 0.06143 0.21361 0.42079 0.0
H3665 H 1.00571 0.20548 0.42689 0.0
H3666 H 0.07637 0.18924 0.45573 0.0
H3667 H 0.06884 0.16867 0.43644 0.0
H3668 H 0.0795 0.19166 0.43053 0.0
H3669 H 0.99191 0.1809 0.44281 0.0
H3670 H 1.0022 0.16003 0.44417 0.0
H3671 H 1.0071 0.1793 0.4649 0.0
H3672 H 0.03388 0.11765 0.45906 0.0
H3673 H 0.04991 0.16508 0.50782 0.0
H3674 H 0.04089 0.14612 0.42026 0.0
H3675 H 0.01781 0.14134 0.42316 0.0
H3676 H 0.03074 0.12264 0.42549 0.0
H3677 H 0.05958 0.20268 0.47979 0.0
H3678 H 0.05342 0.19759 0.50331 0.0
H3679 H 0.03672 0.20066 0.48326 0.0
C3680 C 0.64221 0.23368 0.23515 0.0
C3681 C 0.63555 0.24061 0.21788 0.0
C3682 C 0.66074 0.23702 0.2422 0.0
C3683 C 0.67281 0.24752 0.23169 0.0
C3684 C 0.66621 0.25399 0.2139 0.0
C3685 C 0.64764 0.2505 0.20724 0.0
C3686 C 0.66737 0.22986 0.2612 0.0
C3687 C 0.67869 0.26525 0.20232 0.0
C3688 C 0.71763 0.27525 0.26101 0.0
C3689 C 0.72918 0.26288 0.25595 0.0
C3690 C 0.69925 0.27041 0.25316 0.0
C3691 C 0.69227 0.25279 0.23992 0.0
C3692 C 0.70385 0.24037 0.23449 0.0
C3693 C 0.72221 0.24557 0.24257 0.0
C3694 C 0.68727 0.28406 0.2592 0.0
C3695 C 0.69683 0.22151 0.22032 0.0
H3696 H 0.63291 0.22585 0.24328 0.0
H3697 H 0.64257 0.25618 0.19406 0.0
H3698 H 0.67763 0.22104 0.25867 0.0
H3699 H 0.67392 0.24244 0.27289 0.0
H3700 H 0.65633 0.22094 0.26693 0.0
H3701 H 0.67149 0.26801 0.18803 0.0
H3702 H 0.68546 0.27944 0.21145 0.0
H3703 H 0.68934 0.25724 0.19901 0.0
H3704 H 0.72289 0.28866 0.27132 0.0
H3705 H 0.73103 0.23592 0.23856 0.0
H3706 H 0.67671 0.27648 0.26661 0.0
H3707 H 0.68035 0.28864 0.24576 0.0
H3708 H 0.69486 0.29727 0.26953 0.0
H3709 H 0.6866 0.21196 0.22655 0.0
H3710 H 0.70766 0.21358 0.21746 0.0
H3711 H 0.69011 0.2244 0.20587 0.0
C3712 C 0.54555 0.88667 0.97844 0.0
C3713 C 0.55571 0.89125 0.9636 0.0
C3714 C 0.54306 0.9013 0.99295 0.0
C3715 C 0.5512 0.92086 0.99272 0.0
C3716 C 0.5622 0.9254 0.97831 0.0
C3717 C 0.56414 0.91052 0.96374 0.0
C3718 C 0.53091 0.89597 0.00775 0.0
C3719 C 0.57131 0.94608 0.97776 0.0
C3720 C 0.5308 0.96316 0.01044 0.0
C3721 C 0.54204 0.97093 0.0287 0.0
C3722 C 0.53287 0.94604 0.99923 0.0
C3723 C 0.54691 0.93683 1.0062 0.0
C3724 C 0.55774 0.94404 0.02514 0.0
C3725 C 0.55502 0.96096 0.03632 0.0
C3726 C 0.52074 0.93856 0.97934 0.0
C3727 C 0.573 0.93474 0.0329 0.0
H3728 H 0.53884 0.87174 0.9781 0.0
H3729 H 0.57202 0.91397 0.95225 0.0
H3730 H 0.53754 0.90262 0.02316 0.0
H3731 H 0.5185 0.90179 1.00448 0.0
H3732 H 0.52703 0.87999 0.00717 0.0
H3733 H 0.58083 0.94688 0.96695 0.0
H3734 H 0.56106 0.95468 0.97344 0.0
H3735 H 0.57877 0.95302 0.99279 0.0
H3736 H 0.52089 0.97095 1.00444 0.0
H3737 H 0.56387 0.96708 0.05035 0.0
H3738 H 0.51562 0.92267 0.97781 0.0
H3739 H 0.52847 0.94113 0.96709 0.0
H3740 H 0.50909 0.94586 0.97736 0.0
H3741 H 0.56846 0.91877 0.03144 0.0
H3742 H 0.57874 0.94063 0.04879 0.0
H3743 H 0.58383 0.93745 0.02384 0.0
C3744 C 0.96179 0.73821 0.74191 0.0
C3745 C 0.97529 0.75381 0.74016 0.0
C3746 C 0.94712 0.74145 0.75106 0.0
C3747 C 0.94614 0.76069 0.75872 0.0
C3748 C 0.9604 0.77629 0.75817 0.0
C3749 C 0.97477 0.77265 0.7488 0.0
C3750 C 0.93215 0.72447 0.75136 0.0
C3751 C 0.95998 0.79699 0.76637 0.0
C3752 C 0.90122 0.77572 0.75738 0.0
C3753 C 0.89929 0.7773 0.77752 0.0
C3754 C 0.91608 0.76955 0.751 0.0
C3755 C 0.9294 0.76496 0.76513 0.0
C3756 C 0.92725 0.76591 0.78539 0.0
C3757 C 0.91213 0.77201 0.79135 0.0
C3758 C 0.91778 0.76854 0.7292 0.0
C3759 C 0.94122 0.7612 0.80086 0.0
H3760 H 0.96222 0.72364 0.73516 0.0
H3761 H 0.98538 0.78467 0.74764 0.0
H3762 H 0.92816 0.72503 0.76632 0.0
H3763 H 0.92018 0.72525 0.74054 0.0
H3764 H 0.93603 0.7103 0.74732 0.0
H3765 H 0.97296 0.80708 0.76675 0.0
H3766 H 0.94926 0.80199 0.75694 0.0
H3767 H 0.95677 0.79789 0.78171 0.0
H3768 H 0.8911 0.77943 0.74661 0.0
H3769 H 0.91064 0.77325 0.80694 0.0
H3770 H 0.91999 0.75401 0.72325 0.0
H3771 H 0.92961 0.77944 0.72755 0.0
H3772 H 0.90567 0.77134 0.71996 0.0
H3773 H 0.94443 0.74691 0.79583 0.0
H3774 H 0.93676 0.76089 0.81557 0.0
H3775 H 0.95383 0.77228 0.80282 0.0
C3776 C 0.07597 0.03803 0.90054 0.0
C3777 C 0.09187 0.03188 0.89745 0.0
C3778 C 0.06847 0.03497 0.91775 0.0
C3779 C 0.07721 0.0258 0.93243 0.0
C3780 C 0.09345 0.01989 0.92955 0.0
C3781 C 0.1005 0.02287 0.91206 0.0
C3782 C 0.05102 0.04128 0.92008 0.0
C3783 C 0.10337 0.01038 0.94495 0.0
C3784 C 0.06441 0.03302 0.98428 0.0
C3785 C 0.05212 0.01566 0.98393 0.0
C3786 C 0.07305 0.03631 0.96787 0.0
C3787 C 0.06913 0.02201 0.95055 0.0
C3788 C 0.05703 1.00427 0.95033 0.0
C3789 C 0.04879 1.00126 0.96706 0.0
C3790 C 0.08606 0.0553 0.96888 0.0
C3791 C 0.05235 0.9887 0.93216 0.0
H3792 H 0.06916 0.04486 0.88924 0.0
H3793 H 0.11292 0.01831 0.90991 0.0
H3794 H 0.04064 0.02852 0.9212 0.0
H3795 H 0.05285 0.05168 0.9341 0.0
H3796 H 0.04595 0.04829 0.90739 0.0
H3797 H 0.11614 1.00722 0.94081 0.0
H3798 H 0.10645 0.01993 0.95965 0.0
H3799 H 0.09477 0.99655 0.9468 0.0
H3800 H 0.06699 0.04424 0.99723 0.0
H3801 H 0.03928 0.98782 0.96666 0.0
H3802 H 0.08062 0.06375 0.95772 0.0
H3803 H 0.09905 0.05252 0.96512 0.0
H3804 H 0.08862 0.0643 0.98388 0.0
H3805 H 0.04593 0.99447 0.91924 0.0
H3806 H 0.04305 0.97554 0.93453 0.0
H3807 H 0.06472 0.98439 0.92813 0.0
C3808 C 0.81467 0.3134 0.58257 0.0
C3809 C 0.80635 0.32851 0.58919 0.0
C3810 C 0.82042 0.30117 0.59565 0.0
C3811 C 0.81732 0.30394 0.61558 0.0
C3812 C 0.81004 0.32 0.62262 0.0
C3813 C 0.80475 0.33217 0.60933 0.0
C3814 C 0.82867 0.28461 0.58778 0.0
C3815 C 0.80644 0.32345 0.64377 0.0
C3816 C 0.80252 0.26377 0.64394 0.0
C3817 C 0.81655 0.26773 0.66032 0.0
C3818 C 0.80344 0.27416 0.62794 0.0
C3819 C 0.81884 0.28871 0.62833 0.0
C3820 C 0.83395 0.291 0.64352 0.0
C3821 C 0.83258 0.28056 0.65954 0.0
C3822 C 0.78703 0.27117 0.61194 0.0
C3823 C 0.85088 0.30577 0.64392 0.0
H3824 H 0.81614 0.31077 0.56701 0.0
H3825 H 0.79823 0.34378 0.61443 0.0
H3826 H 0.83915 0.28176 0.59932 0.0
H3827 H 0.8181 0.2712 0.5834 0.0
H3828 H 0.83471 0.28762 0.5744 0.0
H3829 H 0.80185 0.33731 0.64718 0.0
H3830 H 0.79591 0.31136 0.6461 0.0
H3831 H 0.81873 0.32376 0.6546 0.0
H3832 H 0.79008 0.25391 0.64447 0.0
H3833 H 0.84359 0.28334 0.67202 0.0
H3834 H 0.79087 0.27029 0.59691 0.0
H3835 H 0.78036 0.28377 0.61402 0.0
H3836 H 0.77714 0.25775 0.61243 0.0
H3837 H 0.85394 0.30642 0.62863 0.0
H3838 H 0.86258 0.30243 0.65343 0.0
H3839 H 0.84902 0.32038 0.65011 0.0
C3840 C 0.4657 0.01933 0.38897 0.0
C3841 C 0.46736 0.03728 0.38155 0.0
C3842 C 0.47513 0.0173 0.40791 0.0
C3843 C 0.48662 0.03357 0.42065 0.0
C3844 C 0.4881 0.0518 0.41358 0.0
C3845 C 0.47874 0.05339 0.39443 0.0
C3846 C 0.47296 0.99744 0.41417 0.0
C3847 C 0.49987 0.06979 0.42624 0.0
C3848 C 0.50187 0.03053 0.47729 0.0
C3849 C 0.5195 0.02722 0.47792 0.0
C3850 C 0.49114 0.03274 0.45909 0.0
C3851 C 0.49782 0.03131 0.44061 0.0
C3852 C 0.51551 0.02766 0.44127 0.0
C3853 C 0.52598 0.02589 0.45962 0.0
C3854 C 0.47265 0.03691 0.45972 0.0
C3855 C 0.52351 0.02559 0.42243 0.0
H3856 H 0.45686 1.0066 0.38005 0.0
H3857 H 0.48072 0.06743 0.38948 0.0
H3858 H 0.48619 0.99308 0.41642 0.0
H3859 H 0.46802 0.99784 0.42864 0.0
H3860 H 0.46345 0.98617 0.40296 0.0
H3861 H 0.49866 0.08315 0.41966 0.0
H3862 H 0.49629 0.07154 0.44141 0.0
H3863 H 0.51412 0.0683 0.42798 0.0
H3864 H 0.49655 0.03182 0.49111 0.0
H3865 H 0.53948 0.02335 0.45958 0.0
H3866 H 0.46242 0.02533 0.4497 0.0
H3867 H 0.47172 0.05081 0.45415 0.0
H3868 H 0.46932 0.03787 0.47502 0.0
H3869 H 0.51468 0.01386 0.41116 0.0
H3870 H 0.53715 0.0222 0.4251 0.0
H3871 H 0.52442 0.03925 0.41594 0.0
C3872 C 0.77075 0.73382 0.1237 0.0
C3873 C 0.77646 0.71635 0.11884 0.0
C3874 C 0.77177 0.7421 0.14375 0.0
C3875 C 0.7783 0.73247 0.15937 0.0
C3876 C 0.78393 0.71473 0.15449 0.0
C3877 C 0.78309 0.707 0.13435 0.0
C3878 C 0.76593 0.76119 0.14823 0.0
C3879 C 0.79065 0.70377 0.17058 0.0
C3880 C 0.79597 0.76008 0.21215 0.0
C3881 C 0.78117 0.75541 0.22181 0.0
C3882 C 0.79509 0.75311 0.19178 0.0
C3883 C 0.77913 0.74083 0.18079 0.0
C3884 C 0.76412 0.73615 0.19044 0.0
C3885 C 0.76525 0.74363 0.21073 0.0
C3886 C 0.81131 0.75879 0.18205 0.0
C3887 C 0.74695 0.72285 0.17945 0.0
H3888 H 0.76572 0.74117 0.11179 0.0
H3889 H 0.78729 0.69335 0.13069 0.0
H3890 H 0.75462 0.7593 0.1567 0.0
H3891 H 0.77714 0.77205 0.15776 0.0
H3892 H 0.76162 0.76709 0.13445 0.0
H3893 H 0.7943 0.69004 0.16434 0.0
H3894 H 0.80264 0.71297 0.18057 0.0
H3895 H 0.78017 0.70023 0.1799 0.0
H3896 H 0.8083 0.76928 0.22051 0.0
H3897 H 0.75378 0.7398 0.21806 0.0
H3898 H 0.80752 0.76551 0.16869 0.0
H3899 H 0.81639 0.74566 0.1769 0.0
H3900 H 0.82239 0.76918 0.19235 0.0
H3901 H 0.74158 0.72887 0.16619 0.0
H3902 H 0.73644 0.72072 0.18901 0.0
H3903 H 0.74972 0.70845 0.17397 0.0
C3904 C 0.10192 0.03485 0.68458 0.0
C3905 C 0.09033 0.03418 0.69871 0.0
C3906 C 0.09529 0.033 0.66407 0.0
C3907 C 0.07656 0.03039 0.65739 0.0
C3908 C 0.06473 0.02927 0.67151 0.0
C3909 C 0.07174 0.03115 0.69197 0.0
C3910 C 0.10838 0.03417 0.64956 0.0
C3911 C 0.04468 0.02654 0.66503 0.0
C3912 C 0.06154 0.04676 0.60791 0.0
C3913 C 0.05655 0.02912 0.59468 0.0
C3914 C 0.06794 0.04732 0.62829 0.0
C3915 C 0.06948 0.02982 0.63577 0.0
C3916 C 0.06456 0.01195 0.62252 0.0
C3917 C 0.05813 0.0118 0.60217 0.0
C3918 C 0.07305 0.0667 0.64186 0.0
C3919 C 0.06608 0.99297 0.62984 0.0
H3920 H 0.11627 0.03678 0.68957 0.0
H3921 H 0.06268 0.03073 0.70275 0.0
H3922 H 0.10475 0.02108 0.63792 0.0
H3923 H 0.10768 0.04697 0.64186 0.0
H3924 H 0.12246 0.03542 0.65705 0.0
H3925 H 0.03723 0.025 0.67769 0.0
H3926 H 0.04157 0.03918 0.65815 0.0
H3927 H 0.03971 0.01344 0.65352 0.0
H3928 H 0.06036 0.06024 0.60239 0.0
H3929 H 0.05434 0.99807 0.59215 0.0
H3930 H 0.08741 0.06936 0.64883 0.0
H3931 H 0.06503 0.06657 0.65411 0.0
H3932 H 0.07088 0.07896 0.63378 0.0
H3933 H 0.08017 0.99345 0.63672 0.0
H3934 H 0.06181 0.98032 0.61764 0.0
H3935 H 0.05767 0.99067 0.64156 0.0
C3936 C 0.77437 0.33245 0.40601 0.0
C3937 C 0.76617 0.32508 0.42127 0.0
C3938 C 0.77715 0.31996 0.38974 0.0
C3939 C 0.77146 0.29964 0.38861 0.0
C3940 C 0.76348 0.29206 0.40411 0.0
C3941 C 0.76097 0.30489 0.42031 0.0
C3942 C 0.78571 0.32855 0.37344 0.0
C3943 C 0.75717 0.27046 0.4033 0.0
C3944 C 0.76009 0.27371 0.33555 0.0
C3945 C 0.77585 0.26702 0.33327 0.0
C3946 C 0.7581 0.28339 0.35389 0.0
C3947 C 0.77235 0.2866 0.37026 0.0
C3948 C 0.78795 0.27894 0.36831 0.0
C3949 C 0.78948 0.26905 0.34972 0.0
C3950 C 0.74121 0.29122 0.35535 0.0
C3951 C 0.80344 0.28224 0.38543 0.0
H3952 H 0.77828 0.34803 0.40658 0.0
H3953 H 0.75497 0.29909 0.43226 0.0
H3954 H 0.79754 0.32217 0.37096 0.0
H3955 H 0.776 0.32491 0.35922 0.0
H3956 H 0.79009 0.34461 0.377 0.0
H3957 H 0.75239 0.26684 0.41721 0.0
H3958 H 0.746 0.26484 0.39054 0.0
H3959 H 0.76819 0.26274 0.40078 0.0
H3960 H 0.74954 0.27199 0.32272 0.0
H3961 H 0.80171 0.26395 0.34779 0.0
H3962 H 0.74444 0.30733 0.357 0.0
H3963 H 0.73563 0.28731 0.36872 0.0
H3964 H 0.73069 0.28565 0.34194 0.0
H3965 H 0.81025 0.29778 0.38821 0.0
H3966 H 0.8135 0.27328 0.38231 0.0
H3967 H 0.79855 0.27886 0.39932 0.0
C3968 C 0.46321 0.04798 0.16257 0.0
C3969 C 0.46101 0.03323 0.17478 0.0
C3970 C 0.47182 0.04638 0.14534 0.0
C3971 C 0.47878 0.02957 0.13943 0.0
C3972 C 0.47662 0.01463 0.15159 0.0
C3973 C 0.46796 0.01659 0.16874 0.0
C3974 C 0.47346 0.06288 0.13335 0.0
C3975 C 0.48364 0.99639 0.14654 0.0
C3976 C 0.48823 0.01783 0.08457 0.0
C3977 C 0.507 0.02446 0.08626 0.0
C3978 C 0.47905 0.01936 0.10138 0.0
C3979 C 0.4885 0.02778 0.12095 0.0
C3980 C 0.50742 0.03448 0.1227 0.0
C3981 C 0.51625 0.03278 0.10569 0.0
C3982 C 0.45901 0.01192 0.09811 0.0
C3983 C 0.51851 0.04359 0.14276 0.0
H3984 H 0.45793 0.0609 0.16625 0.0
H3985 H 0.46694 1.00498 0.17766 0.0
H3986 H 0.48783 0.06864 0.13298 0.0
H3987 H 0.46671 0.05753 0.11768 0.0
H3988 H 0.46745 0.07498 0.13953 0.0
H3989 H 0.48076 0.98584 0.15695 0.0
H3990 H 0.47752 0.98925 0.13111 0.0
H3991 H 0.49839 1.00013 0.14704 0.0
H3992 H 0.48058 0.0114 0.06997 0.0
H3993 H 0.53064 0.03813 0.10771 0.0
H3994 H 0.45224 0.02389 0.10279 0.0
H3995 H 0.45579 1.0005 0.1075 0.0
H3996 H 0.4534 1.00578 0.08226 0.0
H3997 H 0.51356 0.05655 0.14874 0.0
H3998 H 0.533 0.04808 0.14199 0.0
H3999 H 0.51706 0.03317 0.15353 0.0
C4000 C 0.78821 0.72157 0.91727 0.0
C4001 C 0.7713 0.71271 0.92103 0.0
C4002 C 0.78996 0.73083 0.90035 0.0
C4003 C 0.77444 0.7318 0.88685 0.0
C4004 C 0.75733 0.7232 0.89063 0.0
C4005 C 0.75598 0.71364 0.90743 0.0
C4006 C 0.80851 0.73954 0.8969 0.0
C4007 C 0.74037 0.72408 0.87688 0.0
C4008 C 0.77994 0.77153 0.85359 0.0
C4009 C 0.78157 0.76108 0.83536 0.0
C4010 C 0.77706 0.76214 0.87021 0.0
C4011 C 0.77618 0.7418 0.86881 0.0
C4012 C 0.77755 0.73115 0.8503 0.0
C4013 C 0.78002 0.74086 0.8338 0.0
C4014 C 0.77526 0.77407 0.88941 0.0
C4015 C 0.77702 0.70957 0.84809 0.0
H4016 H 0.80022 0.72149 0.92766 0.0
H4017 H 0.74282 0.70666 0.90969 0.0
H4018 H 0.8106 0.73322 0.88196 0.0
H4019 H 0.80987 0.75543 0.89709 0.0
H4020 H 0.81929 0.73703 0.90835 0.0
H4021 H 0.72805 0.71737 0.88222 0.0
H4022 H 0.73984 0.73943 0.87552 0.0
H4023 H 0.74035 0.71647 0.86171 0.0
H4024 H 0.78108 0.78714 0.85493 0.0
H4025 H 0.78137 0.73265 0.81983 0.0
H4026 H 0.78668 0.77386 0.90125 0.0
H4027 H 0.76275 0.76768 0.89456 0.0
H4028 H 0.77503 0.78943 0.88773 0.0
H4029 H 0.78836 0.70669 0.8585 0.0
H4030 H 0.77791 0.7033 0.83266 0.0
H4031 H 0.76442 0.70191 0.85213 0.0
C4032 C 0.91454 0.1308 0.0291 0.0
C4033 C 0.90045 0.13722 0.01827 0.0
C4034 C 0.92256 0.11657 0.02007 0.0
C4035 C 0.91654 0.10889 0.99962 0.0
C4036 C 0.90375 0.11687 0.98809 0.0
C4037 C 0.89565 0.13084 0.99762 0.0
C4038 C 0.93657 0.10881 0.03278 0.0
C4039 C 0.89787 0.10987 0.966 0.0
C4040 C 0.94663 0.07568 0.98346 0.0
C4041 C 0.93749 0.05782 0.98732 0.0
C4042 C 0.93897 0.09222 0.98498 0.0
C4043 C 0.92214 0.09102 0.99131 0.0
C4044 C 0.91208 0.0727 0.99324 0.0
C4045 C 0.91975 0.05625 0.99077 0.0
C4046 C 0.94971 0.11121 0.98151 0.0
C4047 C 0.89401 0.07075 0.99993 0.0
H4048 H 0.9186 0.13613 0.04495 0.0
H4049 H 0.88479 0.13581 0.98913 0.0
H4050 H 0.93159 0.09316 0.03323 0.0
H4051 H 0.94903 0.11007 0.02618 0.0
H4052 H 0.94001 0.11667 0.04835 0.0
H4053 H 0.89075 0.12008 0.95858 0.0
H4054 H 0.90962 0.10806 0.95872 0.0
H4055 H 0.88863 0.09549 0.96358 0.0
H4056 H 0.96028 0.07721 0.98066 0.0
H4057 H 0.91224 0.04236 0.9929 0.0
H4058 H 0.96011 0.11741 0.99485 0.0
H4059 H 0.94124 0.12202 0.97862 0.0
H4060 H 0.95669 0.10874 0.96859 0.0
H4061 H 0.89584 0.07781 0.01571 0.0
H4062 H 0.88721 0.05532 0.99887 0.0
H4063 H 0.88507 0.07821 0.99085 0.0
C4064 C 0.41788 0.4492 0.06322 0.0
C4065 C 0.40237 0.45392 0.05313 0.0
C4066 C 0.43521 0.45937 0.06206 0.0
C4067 C 0.43718 0.47484 0.05071 0.0
C4068 C 0.42156 0.47973 0.0406 0.0
C4069 C 0.40444 0.46921 0.04186 0.0
C4070 C 0.45144 0.45352 0.07293 0.0
C4071 C 0.42293 0.49624 0.02855 0.0
C4072 C 0.47994 0.51434 0.0628 0.0
C4073 C 0.48914 0.50959 0.04717 0.0
C4074 C 0.46324 0.50302 0.06428 0.0
C4075 C 0.45548 0.48634 0.04987 0.0
C4076 C 0.46493 0.48119 0.03431 0.0
C4077 C 0.48157 0.49294 0.03306 0.0
C4078 C 0.45368 0.5092 0.08105 0.0
C4079 C 0.45731 0.46346 0.01874 0.0
H4080 H 0.41649 0.43728 0.07176 0.0
H4081 H 0.39258 0.47316 0.03419 0.0
H4082 H 0.46031 0.44973 0.06223 0.0
H4083 H 0.45938 0.4659 0.0841 0.0
H4084 H 0.44771 0.4409 0.08071 0.0
H4085 H 0.40955 0.49813 0.02141 0.0
H4086 H 0.4299 0.51002 0.03833 0.0
H4087 H 0.43107 0.49362 0.01673 0.0
H4088 H 0.48568 0.52718 0.07377 0.0
H4089 H 0.48851 0.48923 0.02086 0.0
H4090 H 0.4507 0.49717 0.08978 0.0
H4091 H 0.44064 0.51255 0.07479 0.0
H4092 H 0.46171 0.52221 0.09136 0.0
H4093 H 0.45395 0.45045 0.02605 0.0
H4094 H 0.46679 0.46069 0.0084 0.0
H4095 H 0.44465 0.46537 0.00986 0.0
C4096 C 0.38403 0.60496 0.74939 0.0
C4097 C 0.37737 0.58876 0.75806 0.0
C4098 C 0.37479 0.62029 0.74808 0.0
C4099 C 0.35857 0.61956 0.75581 0.0
C4100 C 0.35183 0.60336 0.7647 0.0
C4101 C 0.36124 0.58814 0.76562 0.0
C4102 C 0.38238 0.63727 0.7384 0.0
C4103 C 0.33463 0.60207 0.77319 0.0
C4104 C 0.34302 0.66701 0.76858 0.0
C4105 C 0.32959 0.66634 0.75212 0.0
C4106 C 0.35248 0.65186 0.77002 0.0
C4107 C 0.34861 0.63572 0.75452 0.0
C4108 C 0.33518 0.635 0.7378 0.0
C4109 C 0.32578 0.65022 0.73687 0.0
C4110 C 0.36664 0.65315 0.78814 0.0
C4111 C 0.33074 0.61811 0.72089 0.0
H4112 H 0.39661 0.6058 0.7438 0.0
H4113 H 0.35581 0.57559 0.77207 0.0
H4114 H 0.37241 0.63892 0.72562 0.0
H4115 H 0.38511 0.65092 0.74922 0.0
H4116 H 0.39502 0.63554 0.73292 0.0
H4117 H 0.33138 0.58868 0.77997 0.0
H4118 H 0.33572 0.61488 0.78476 0.0
H4119 H 0.32328 0.60227 0.76126 0.0
H4120 H 0.34633 0.67951 0.78029 0.0
H4121 H 0.31526 0.64936 0.72423 0.0
H4122 H 0.37989 0.65296 0.78351 0.0
H4123 H 0.36336 0.64033 0.79574 0.0
H4124 H 0.36787 0.66653 0.79903 0.0
H4125 H 0.34297 0.61652 0.71448 0.0
H4126 H 0.32018 0.61991 0.70876 0.0
H4127 H 0.32604 0.60441 0.72657 0.0
C4128 C 0.24302 0.59452 0.59114 0.0
C4129 C 0.25258 0.59379 0.57519 0.0
C4130 C 0.22476 0.58575 0.58838 0.0
C4131 C 0.21591 0.57609 0.56922 0.0
C4132 C 0.22583 0.57398 0.55348 0.0
C4133 C 0.24408 0.58286 0.55666 0.0
C4134 C 0.21465 0.5882 0.60559 0.0
C4135 C 0.21691 0.56361 0.53289 0.0
C4136 C 0.16806 0.54829 0.56562 0.0
C4137 C 0.15824 0.56247 0.56088 0.0
C4138 C 0.1869 0.55222 0.56777 0.0
C4139 C 0.19599 0.57071 0.56507 0.0
C4140 C 0.18605 0.58475 0.55943 0.0
C4141 C 0.1673 0.58044 0.5574 0.0
C4142 C 0.19707 0.53691 0.57372 0.0
C4143 C 0.19525 0.60459 0.5562 0.0
H4144 H 0.24946 0.60303 0.60545 0.0
H4145 H 0.25153 0.58198 0.54439 0.0
H4146 H 0.20566 0.59856 0.60283 0.0
H4147 H 0.20608 0.57416 0.60688 0.0
H4148 H 0.22384 0.59383 0.62002 0.0
H4149 H 0.22688 0.56062 0.52327 0.0
H4150 H 0.20797 0.54967 0.5338 0.0
H4151 H 0.20843 0.57275 0.52562 0.0
H4152 H 0.16108 0.53442 0.56843 0.0
H4153 H 0.15969 0.59129 0.55342 0.0
H4154 H 0.20458 0.54163 0.58917 0.0
H4155 H 0.20708 0.53501 0.56383 0.0
H4156 H 0.18799 0.52264 0.57311 0.0
H4157 H 0.20368 0.61256 0.57038 0.0
H4158 H 0.18551 0.61347 0.55093 0.0
H4159 H 0.20429 0.60312 0.54507 0.0
C4160 C 0.71765 0.89891 0.80824 0.0
C4161 C 0.71471 0.90905 0.7918 0.0
C4162 C 0.72623 0.88242 0.80758 0.0
C4163 C 0.73246 0.87501 0.79004 0.0
C4164 C 0.72952 0.88505 0.77339 0.0
C4165 C 0.72093 0.90153 0.77444 0.0
C4166 C 0.72858 0.87275 0.8259 0.0
C4167 C 0.73552 0.8783 0.75416 0.0
C4168 C 0.76967 0.84288 0.79344 0.0
C4169 C 0.76006 0.82342 0.78763 0.0
C4170 C 0.76106 0.85935 0.79433 0.0
C4171 C 0.742 0.8571 0.78916 0.0
C4172 C 0.73223 0.8375 0.78311 0.0
C4173 C 0.74116 0.82126 0.78258 0.0
C4174 C 0.77256 0.8794 0.80094 0.0
C4175 C 0.71208 0.83353 0.77726 0.0
H4176 H 0.71298 0.90365 0.82184 0.0
H4177 H 0.71935 0.90871 0.76144 0.0
H4178 H 0.72128 0.85738 0.82237 0.0
H4179 H 0.74301 0.87266 0.83062 0.0
H4180 H 0.72354 0.88014 0.83859 0.0
H4181 H 0.73218 0.88708 0.74232 0.0
H4182 H 0.75026 0.87916 0.75682 0.0
H4183 H 0.72906 0.86285 0.74866 0.0
H4184 H 0.78416 0.84537 0.79744 0.0
H4185 H 0.73316 0.80669 0.778 0.0
H4186 H 0.76827 0.88663 0.81424 0.0
H4187 H 0.77074 0.88841 0.78895 0.0
H4188 H 0.78706 0.8791 0.80467 0.0
H4189 H 0.70598 0.83631 0.7908 0.0
H4190 H 0.70657 0.81829 0.76997 0.0
H4191 H 0.70797 0.84342 0.76693 0.0
C4192 C 0.72724 0.9619 0.54821 0.0
C4193 C 0.72574 0.94173 0.54301 0.0
C4194 C 0.71202 0.97051 0.54634 0.0
C4195 C 0.69475 0.95882 0.53877 0.0
C4196 C 0.69312 0.93853 0.53327 0.0
C4197 C 0.70851 0.93025 0.53561 0.0
C4198 C 0.71442 0.99217 0.55259 0.0
C4199 C 0.67503 0.9255 0.52499 0.0
C4200 C 0.65309 0.97716 0.55109 0.0
C4201 C 0.64731 0.98462 0.53377 0.0
C4202 C 0.6685 0.9689 0.55294 0.0
C4203 C 0.67836 0.96774 0.53699 0.0
C4204 C 0.67251 0.9751 0.51939 0.0
C4205 C 0.65719 0.98358 0.51806 0.0
C4206 C 0.67434 0.96156 0.57211 0.0
C4207 C 0.6824 0.97391 0.50189 0.0
H4208 H 0.74038 0.97109 0.55361 0.0
H4209 H 0.70694 0.91465 0.53187 0.0
H4210 H 0.70949 0.99899 0.53973 0.0
H4211 H 0.70629 0.99512 0.56436 0.0
H4212 H 0.72868 0.99924 0.5584 0.0
H4213 H 0.67608 0.91015 0.52058 0.0
H4214 H 0.66607 0.92595 0.53632 0.0
H4215 H 0.66854 0.93076 0.51176 0.0
H4216 H 0.64573 0.97815 0.56343 0.0
H4217 H 0.65278 0.98917 0.50458 0.0
H4218 H 0.68822 0.96924 0.57885 0.0
H4219 H 0.67451 0.94585 0.56897 0.0
H4220 H 0.66535 0.96369 0.5832 0.0
H4221 H 0.69651 0.98192 0.50653 0.0
H4222 H 0.67603 0.98003 0.48917 0.0
H4223 H 0.68279 0.95853 0.49669 0.0
C4224 C 0.36933 0.39745 0.78399 0.0
C4225 C 0.36501 0.40841 0.76889 0.0
C4226 C 0.35729 0.38079 0.78654 0.0
C4227 C 0.34057 0.37468 0.77354 0.0
C4228 C 0.33619 0.38548 0.75812 0.0
C4229 C 0.34839 0.40223 0.75605 0.0
C4230 C 0.36248 0.36974 0.80321 0.0
C4231 C 0.3186 0.37933 0.74377 0.0
C4232 C 0.31663 0.32178 0.7682 0.0
C4233 C 0.30316 0.32311 0.77987 0.0
C4234 C 0.32884 0.33842 0.76599 0.0
C4235 C 0.32774 0.35685 0.77591 0.0
C4236 C 0.31432 0.35822 0.78796 0.0
C4237 C 0.3021 0.34134 0.78969 0.0
C4238 C 0.34284 0.33626 0.75291 0.0
C4239 C 0.31284 0.37755 0.79899 0.0
H4240 H 0.38222 0.40179 0.79379 0.0
H4241 H 0.34473 0.41066 0.74452 0.0
H4242 H 0.3522 0.36879 0.81311 0.0
H4243 H 0.36295 0.35465 0.79695 0.0
H4244 H 0.37577 0.37666 0.81238 0.0
H4245 H 0.31731 0.38911 0.73239 0.0
H4246 H 0.31736 0.36431 0.736 0.0
H4247 H 0.30721 0.37923 0.7521 0.0
H4248 H 0.31745 0.30772 0.7605 0.0
H4249 H 0.29174 0.34239 0.79876 0.0
H4250 H 0.35645 0.3405 0.76212 0.0
H4251 H 0.3422 0.34609 0.74154 0.0
H4252 H 0.34111 0.32113 0.74514 0.0
H4253 H 0.32574 0.38437 0.80896 0.0
H4254 H 0.30194 0.37611 0.80811 0.0
H4255 H 0.31017 0.38756 0.7882 0.0
C4256 C 0.20615 0.62664 0.29064 0.0
C4257 C 0.21627 0.61222 0.29429 0.0
C4258 C 0.21432 0.6462 0.28966 0.0
C4259 C 0.23336 0.65221 0.29239 0.0
C4260 C 0.24369 0.63786 0.29627 0.0
C4261 C 0.23517 0.61837 0.29716 0.0
C4262 C 0.20243 0.66054 0.28558 0.0
C4263 C 0.26393 0.64307 0.29927 0.0
C4264 C 0.25397 0.69784 0.27051 0.0
C4265 C 0.2589 0.7128 0.28716 0.0
C4266 C 0.24586 0.67842 0.27202 0.0
C4267 C 0.24232 0.67319 0.2907 0.0
C4268 C 0.24728 0.68822 0.3076 0.0
C4269 C 0.25539 0.70758 0.30566 0.0
C4270 C 0.24103 0.66338 0.25343 0.0
C4271 C 0.24397 0.68385 0.3279 0.0
H4272 H 0.19164 0.62275 0.28874 0.0
H4273 H 0.24348 0.6078 0.29976 0.0
H4274 H 0.20584 0.67307 0.29788 0.0
H4275 H 0.20481 0.66632 0.27166 0.0
H4276 H 0.18793 0.65394 0.28402 0.0
H4277 H 0.27023 0.63067 0.30273 0.0
H4278 H 0.26827 0.64786 0.2856 0.0
H4279 H 0.26903 0.65541 0.31165 0.0
H4280 H 0.25647 0.70129 0.25605 0.0
H4281 H 0.25901 0.71867 0.31877 0.0
H4282 H 0.22637 0.65726 0.25063 0.0
H4283 H 0.24801 0.65118 0.25554 0.0
H4284 H 0.24467 0.66946 0.24004 0.0
H4285 H 0.2294 0.67842 0.32745 0.0
H4286 H 0.24865 0.69683 0.33966 0.0
H4287 H 0.25099 0.6722 0.33211 0.0
C4288 C 0.52606 0.65245 0.46991 0.0
C4289 C 0.51367 0.66368 0.4754 0.0
C4290 C 0.52761 0.63517 0.4777 0.0
C4291 C 0.51658 0.62877 0.49151 0.0
C4292 C 0.50398 0.63998 0.49706 0.0
C4293 C 0.50267 0.65718 0.48896 0.0
C4294 C 0.54114 0.62376 0.47117 0.0
C4295 C 0.49223 0.63423 0.51209 0.0
C4296 C 0.50998 0.57516 0.49884 0.0
C4297 C 0.52267 0.57581 0.516 0.0
C4298 C 0.50787 0.59218 0.49075 0.0
C4299 C 0.51839 0.61051 0.50022 0.0
C4300 C 0.53086 0.61129 0.51785 0.0
C4301 C 0.53298 0.59401 0.52537 0.0
C4302 C 0.49471 0.59051 0.47172 0.0
C4303 C 0.54217 0.63042 0.52868 0.0
H4304 H 0.53448 0.65707 0.45926 0.0
H4305 H 0.49323 0.66577 0.4936 0.0
H4306 H 0.55104 0.62279 0.48431 0.0
H4307 H 0.53429 0.60869 0.46449 0.0
H4308 H 0.54851 0.63043 0.4601 0.0
H4309 H 0.48029 0.64112 0.51097 0.0
H4310 H 0.4876 0.61824 0.5102 0.0
H4311 H 0.50013 0.63903 0.52734 0.0
H4312 H 0.50207 0.56123 0.4913 0.0
H4313 H 0.54279 0.59477 0.53864 0.0
H4314 H 0.5021 0.59468 0.45963 0.0
H4315 H 0.48548 0.60069 0.4737 0.0
H4316 H 0.48666 0.57554 0.46685 0.0
H4317 H 0.55072 0.63729 0.51869 0.0
H4318 H 0.55098 0.6287 0.54242 0.0
H4319 H 0.53336 0.64053 0.53285 0.0
C4320 C 0.66121 0.26935 0.69721 0.0
C4321 C 0.65448 0.28634 0.70144 0.0
C4322 C 0.67772 0.26703 0.70764 0.0
C4323 C 0.6879 0.282 0.72284 0.0
C4324 C 0.68134 0.29929 0.72702 0.0
C4325 C 0.6648 0.30125 0.71632 0.0
C4326 C 0.68409 0.24832 0.70267 0.0
C4327 C 0.69166 0.31564 0.74308 0.0
C4328 C 0.7196 0.26828 0.76457 0.0
C4329 C 0.73658 0.27431 0.75943 0.0
C4330 C 0.70378 0.27062 0.75279 0.0
C4331 C 0.70478 0.27909 0.7352 0.0
C4332 C 0.72187 0.28486 0.72967 0.0
C4333 C 0.73756 0.28245 0.74186 0.0
C4334 C 0.68596 0.26426 0.75938 0.0
C4335 C 0.72359 0.29378 0.71097 0.0
H4336 H 0.65335 0.25756 0.68602 0.0
H4337 H 0.65999 0.31458 0.71958 0.0
H4338 H 0.69798 0.25147 0.6994 0.0
H4339 H 0.68443 0.24046 0.71571 0.0
H4340 H 0.67527 0.23859 0.68963 0.0
H4341 H 0.68517 0.32846 0.74402 0.0
H4342 H 0.69274 0.31052 0.75779 0.0
H4343 H 0.70554 0.32028 0.7402 0.0
H4344 H 0.71867 0.26194 0.77809 0.0
H4345 H 0.75061 0.28713 0.73775 0.0
H4346 H 0.6768 0.25345 0.74747 0.0
H4347 H 0.67944 0.27691 0.76196 0.0
H4348 H 0.68742 0.25774 0.7733 0.0
H4349 H 0.71525 0.28383 0.69782 0.0
H4350 H 0.73772 0.29696 0.70839 0.0
H4351 H 0.7185 0.3075 0.71204 0.0
C4352 C 0.01866 0.36631 0.99855 0.0
C4353 C 0.02409 0.36115 0.98023 0.0
C4354 C 0.01963 0.38594 1.00641 0.0
C4355 C 0.02582 0.40085 0.99552 0.0
C4356 C 0.03117 0.39568 0.97693 0.0
C4357 C 0.03041 0.37598 0.96964 0.0
C4358 C 0.01415 0.39074 0.02645 0.0
C4359 C 0.03753 0.41097 0.96459 0.0
C4360 C 0.01299 0.45049 1.00604 0.0
C4361 C 0.02911 0.46211 0.01683 0.0
C4362 C 0.01168 0.43057 0.99916 0.0
C4363 C 0.02674 0.42184 1.00349 0.0
C4364 C 0.04288 0.43338 0.01491 0.0
C4365 C 0.04393 0.45334 0.02124 0.0
C4366 C 0.99431 0.41898 0.98675 0.0
C4367 C 0.05917 0.4247 0.02025 0.0
H4368 H 0.01387 0.35496 0.0069 0.0
H4369 H 0.03441 0.37214 0.95536 0.0
H4370 H 0.02548 0.40064 0.03683 0.0
H4371 H 1.00281 0.39847 0.02484 0.0
H4372 H 0.01 0.37755 0.03326 0.0
H4373 H 0.04086 0.40458 0.95028 0.0
H4374 H 0.02698 0.41949 0.96125 0.0
H4375 H 0.04963 0.42128 0.97313 0.0
H4376 H 1.0015 0.4571 1.00239 0.0
H4377 H 0.05643 0.46211 0.02964 0.0
H4378 H 0.98922 0.40622 0.99371 0.0
H4379 H 0.99673 0.41337 0.97172 0.0
H4380 H 0.98374 0.42776 0.98496 0.0
H4381 H 0.05553 0.4119 0.02778 0.0
H4382 H 0.07033 0.4353 0.03021 0.0
H4383 H 0.06406 0.41954 1.00648 0.0
C4384 C 0.97895 0.78497 0.21679 0.0
C4385 C 0.97835 0.78623 0.19639 0.0
C4386 C 0.96332 0.7837 0.22559 0.0
C4387 C 0.94656 0.78373 0.21381 0.0
C4388 C 0.94585 0.78506 0.19324 0.0
C4389 C 0.96165 0.78623 0.18482 0.0
C4390 C 0.96476 0.7823 0.24755 0.0
C4391 C 0.92833 0.78513 0.18007 0.0
C4392 C 0.90354 0.7623 0.23219 0.0
C4393 C 0.89831 0.77896 0.24097 0.0
C4394 C 0.91908 0.76365 0.22327 0.0
C4395 C 0.92976 0.78213 0.22293 0.0
C4396 C 0.92442 0.79903 0.23144 0.0
C4397 C 0.90885 0.79725 0.24035 0.0
C4398 C 0.92415 0.74523 0.21435 0.0
C4399 C 0.93532 0.81903 0.23138 0.0
H4400 H 0.99171 0.78522 0.22602 0.0
H4401 H 0.96084 0.78684 0.16899 0.0
H4402 H 0.96006 0.7946 0.2554 0.0
H4403 H 0.95595 0.7687 0.24964 0.0
H4404 H 0.97874 0.78246 0.25469 0.0
H4405 H 0.93005 0.78664 0.16447 0.0
H4406 H 0.91859 0.77143 0.17987 0.0
H4407 H 0.92236 0.79727 0.18616 0.0
H4408 H 0.89542 0.74809 0.23222 0.0
H4409 H 0.90518 0.81025 0.24727 0.0
H4410 H 0.93766 0.74425 0.22194 0.0
H4411 H 0.92492 0.74547 0.19833 0.0
H4412 H 0.9144 0.73198 0.21567 0.0
H4413 H 0.94906 0.82048 0.23986 0.0
H4414 H 0.92915 0.83076 0.23807 0.0
H4415 H 0.93673 0.82116 0.21586 0.0
C4416 C 0.53399 0.35182 0.13175 0.0
C4417 C 0.54858 0.34343 0.13806 0.0
C4418 C 0.53586 0.36671 0.12008 0.0
C4419 C 0.55279 0.37348 0.11477 0.0
C4420 C 0.56779 0.36575 0.1219 0.0
C4421 C 0.56549 0.35071 0.13339 0.0
C4422 C 0.51953 0.37463 0.11276 0.0
C4423 C 0.58608 0.37279 0.1167 0.0
C4424 C 0.54912 0.39409 0.06642 0.0
C4425 C 0.55111 0.41396 0.07336 0.0
C4426 C 0.55058 0.38081 0.0798 0.0
C4427 C 0.55429 0.38763 0.10058 0.0
C4428 C 0.55757 0.40781 0.10765 0.0
C4429 C 0.55585 0.42076 0.09393 0.0
C4430 C 0.54706 0.35937 0.0717 0.0
C4431 C 0.56181 0.41563 0.1297 0.0
H4432 H 0.52098 0.34646 0.13562 0.0
H4433 H 0.57679 0.34414 0.13804 0.0
H4434 H 0.52234 0.39067 0.11685 0.0
H4435 H 0.51626 0.37127 0.09622 0.0
H4436 H 0.50755 0.36842 0.119 0.0
H4437 H 0.59674 0.36694 0.12531 0.0
H4438 H 0.5858 0.36817 0.10055 0.0
H4439 H 0.5897 0.3889 0.11958 0.0
H4440 H 0.5458 0.38884 0.05052 0.0
H4441 H 0.55728 0.43609 0.09942 0.0
H4442 H 0.53438 0.35197 0.07581 0.0
H4443 H 0.558 0.35267 0.07839 0.0
H4444 H 0.54586 0.35661 0.05519 0.0
H4445 H 0.54959 0.41191 0.13648 0.0
H4446 H 0.5665 0.43167 0.13262 0.0
H4447 H 0.57229 0.40886 0.13732 0.0
C4448 C 0.92498 0.31516 0.33499 0.0
C4449 C 0.93198 0.30388 0.34839 0.0
C4450 C 0.9064 0.31235 0.32838 0.0
C4451 C 0.89458 0.29803 0.33547 0.0
C4452 C 0.90151 0.287 0.34944 0.0
C4453 C 0.92013 0.28997 0.35563 0.0
C4454 C 0.89947 0.32431 0.31338 0.0
C4455 C 0.8893 0.27161 0.35735 0.0
C4456 C 0.84471 0.2988 0.32792 0.0
C4457 C 0.83815 0.28454 0.31105 0.0
C4458 C 0.86308 0.30333 0.33616 0.0
C4459 C 0.8751 0.29351 0.32714 0.0
C4460 C 0.86853 0.27912 0.31012 0.0
C4461 C 0.85014 0.27475 0.30235 0.0
C4462 C 0.86963 0.31858 0.35449 0.0
C4463 C 0.88095 0.26842 0.29999 0.0
H4464 H 0.93403 0.32613 0.32957 0.0
H4465 H 0.92542 0.28097 0.36574 0.0
H4466 H 0.89299 0.31466 0.29919 0.0
H4467 H 0.88908 0.33157 0.31893 0.0
H4468 H 0.91033 0.33556 0.31017 0.0
H4469 H 0.89668 0.26547 0.36939 0.0
H4470 H 0.87844 0.27773 0.36325 0.0
H4471 H 0.8828 0.25958 0.34504 0.0
H4472 H 0.8355 0.30635 0.33476 0.0
H4473 H 0.84522 0.2638 0.28922 0.0
H4474 H 0.87973 0.33058 0.35122 0.0
H4475 H 0.87637 0.3122 0.36673 0.0
H4476 H 0.85853 0.32477 0.35979 0.0
H4477 H 0.89143 0.27894 0.29516 0.0
H4478 H 0.8737 0.25778 0.28674 0.0
H4479 H 0.88795 0.26054 0.31065 0.0
C4480 C 0.04629 0.66436 0.58008 0.0
C4481 C 0.03149 0.66647 0.58947 0.0
C4482 C 0.04599 0.64752 0.56678 0.0
C4483 C 0.03067 0.63228 0.5631 0.0
C4484 C 0.01531 0.63476 0.57158 0.0
C4485 C 0.01586 0.6519 0.58455 0.0
C4486 C 0.06254 0.64552 0.5578 0.0
C4487 C 0.99874 0.61876 0.5681 0.0
C4488 C 0.02534 0.58781 0.5237 0.0
C4489 C 0.03125 0.57461 0.53544 0.0
C4490 C 0.0256 0.60697 0.53232 0.0
C4491 C 0.0317 0.6128 0.55309 0.0
C4492 C 0.03824 0.59965 0.56479 0.0
C4493 C 0.03807 0.58079 0.55577 0.0
C4494 C 0.01887 0.62078 0.51937 0.0
C4495 C 0.04481 0.60523 0.58702 0.0
H4496 H 0.05852 0.6754 0.58386 0.0
H4497 H 1.00421 0.65361 0.59134 0.0
H4498 H 0.06967 0.63551 0.56549 0.0
H4499 H 0.05881 0.63919 0.54175 0.0
H4500 H 0.07198 0.65971 0.55929 0.0
H4501 H 0.98729 0.62374 0.57393 0.0
H4502 H 0.99455 0.6131 0.55194 0.0
H4503 H 1.00183 0.60649 0.57566 0.0
H4504 H 0.02012 0.58303 0.50795 0.0
H4505 H 0.04274 0.57064 0.56487 0.0
H4506 H 0.02875 0.63474 0.52183 0.0
H4507 H 1.00617 0.62407 0.52353 0.0
H4508 H 0.01633 0.61466 0.50325 0.0
H4509 H 0.05584 0.61825 0.59006 0.0
H4510 H 0.04976 0.59335 0.59384 0.0
H4511 H 0.03373 0.60902 0.59452 0.0
C4512 C 0.60105 0.7977 0.78884 0.0
C4513 C 0.59937 0.79094 0.80699 0.0
C4514 C 0.61445 0.79317 0.77811 0.0
C4515 C 0.6265 0.78199 0.78602 0.0
C4516 C 0.62495 0.77543 0.80451 0.0
C4517 C 0.61134 0.77991 0.81469 0.0
C4518 C 0.61565 0.80018 0.75834 0.0
C4519 C 0.63773 0.76376 0.81367 0.0
C4520 C 0.65382 0.75226 0.75817 0.0
C4521 C 0.6711 0.76371 0.76446 0.0
C4522 C 0.63873 0.75892 0.76342 0.0
C4523 C 0.64112 0.77726 0.77549 0.0
C4524 C 0.65838 0.78947 0.78049 0.0
C4525 C 0.67318 0.78253 0.77488 0.0
C4526 C 0.62047 0.74562 0.7575 0.0
C4527 C 0.66154 0.80903 0.79351 0.0
H4528 H 0.59171 0.8062 0.78292 0.0
H4529 H 0.61017 0.77495 0.82889 0.0
H4530 H 0.62907 0.80942 0.75888 0.0
H4531 H 0.61411 0.78758 0.7464 0.0
H4532 H 0.6052 0.80866 0.75424 0.0
H4533 H 0.63476 0.76001 0.82829 0.0
H4534 H 0.63694 0.75007 0.80345 0.0
H4535 H 0.65176 0.77209 0.8159 0.0
H4536 H 0.65221 0.73776 0.74996 0.0
H4537 H 0.68656 0.79129 0.78002 0.0
H4538 H 0.61007 0.75388 0.75268 0.0
H4539 H 0.61673 0.73906 0.77059 0.0
H4540 H 0.62033 0.73369 0.74526 0.0
H4541 H 0.65111 0.81724 0.78871 0.0
H4542 H 0.67497 0.81796 0.79328 0.0
H4543 H 0.66071 0.80687 0.80915 0.0
C4544 C 0.46252 0.51111 0.65145 0.0
C4545 C 0.47401 0.51058 0.66919 0.0
C4546 C 0.46928 0.5141 0.63377 0.0
C4547 C 0.48799 0.51638 0.63366 0.0
C4548 C 0.49963 0.51557 0.65146 0.0
C4549 C 0.49253 0.51284 0.669 0.0
C4550 C 0.45641 0.51515 0.61527 0.0
C4551 C 0.51962 0.51763 0.65199 0.0
C4552 C 0.50516 0.50771 0.58426 0.0
C4553 C 0.51183 0.52675 0.58129 0.0
C4554 C 0.49716 0.50411 0.60106 0.0
C4555 C 0.49548 0.51992 0.61508 0.0
C4556 C 0.50155 0.53918 0.61167 0.0
C4557 C 0.50976 0.54235 0.59493 0.0
C4558 C 0.49107 0.48336 0.60416 0.0
C4559 C 0.49977 0.55647 0.62599 0.0
H4560 H 0.44823 0.50963 0.65151 0.0
H4561 H 0.50149 0.51228 0.68257 0.0
H4562 H 0.46002 0.52954 0.61045 0.0
H4563 H 0.45746 0.50399 0.60285 0.0
H4564 H 0.44223 0.51293 0.61772 0.0
H4565 H 0.52678 0.51607 0.6668 0.0
H4566 H 0.52226 0.50649 0.64051 0.0
H4567 H 0.52533 0.53207 0.64838 0.0
H4568 H 0.50679 0.49557 0.57384 0.0
H4569 H 0.51485 0.55709 0.59268 0.0
H4570 H 0.47673 0.48068 0.60591 0.0
H4571 H 0.49893 0.48076 0.61812 0.0
H4572 H 0.49276 0.4727 0.59158 0.0
H4573 H 0.48562 0.55521 0.62834 0.0
H4574 H 0.50406 0.57045 0.62057 0.0
H4575 H 0.5081 0.55684 0.64073 0.0
C4576 C 0.78258 0.22353 0.9645 0.0
C4577 C 0.77681 0.22326 0.98294 0.0
C4578 C 0.77493 0.23345 0.95024 0.0
C4579 C 0.76119 0.24344 0.9546 0.0
C4580 C 0.75474 0.24254 0.97288 0.0
C4581 C 0.76266 0.23239 0.98691 0.0
C4582 C 0.78206 0.23378 0.93079 0.0
C4583 C 0.74014 0.25297 0.97806 0.0
C4584 C 0.76444 0.28328 0.92369 0.0
C4585 C 0.75327 0.27358 0.90591 0.0
C4586 C 0.7653 0.27466 0.941 0.0
C4587 C 0.7549 0.25586 0.94035 0.0
C4588 C 0.7417 0.24737 0.92343 0.0
C4589 C 0.741 0.2564 0.90634 0.0
C4590 C 0.77917 0.28447 0.95901 0.0
C4591 C 0.72994 0.22763 0.92244 0.0
H4592 H 0.7933 0.21614 0.96135 0.0
H4593 H 0.75824 0.23217 1.00123 0.0
H4594 H 0.77088 0.22874 0.91796 0.0
H4595 H 0.78847 0.24888 0.92966 0.0
H4596 H 0.79213 0.22445 0.92942 0.0
H4597 H 0.73357 0.24686 0.98998 0.0
H4598 H 0.74612 0.26853 0.98357 0.0
H4599 H 0.72974 0.25221 0.9648 0.0
H4600 H 0.77389 0.29665 0.92362 0.0
H4601 H 0.7319 0.24917 0.89281 0.0
H4602 H 0.79117 0.27775 0.95923 0.0
H4603 H 0.77387 0.28254 0.97302 0.0
H4604 H 0.78348 0.30027 0.95871 0.0
H4605 H 0.73771 0.21624 0.91887 0.0
H4606 H 0.71785 0.22519 0.91067 0.0
H4607 H 0.72561 0.22586 0.93699 0.0
C4608 C 0.10461 0.52622 0.17707 0.0
C4609 C 0.1029 0.5082 0.18435 0.0
C4610 C 0.0952 0.52838 0.15817 0.0
C4611 C 0.08363 0.51219 0.14539 0.0
C4612 C 0.08207 0.49391 0.15235 0.0
C4613 C 0.09146 0.49218 0.17143 0.0
C4614 C 0.09755 0.54825 0.15195 0.0
C4615 C 0.07026 0.476 0.13959 0.0
C4616 C 0.04441 0.52014 0.10642 0.0
C4617 C 0.05091 0.51877 0.08813 0.0
C4618 C 0.05484 0.51831 0.12477 0.0
C4619 C 0.07249 0.51455 0.12544 0.0
C4620 C 0.07917 0.51303 0.10697 0.0
C4621 C 0.06851 0.51535 0.08877 0.0
C4622 C 0.04683 0.52043 0.1436 0.0
C4623 C 0.09767 0.50888 0.10634 0.0
H4624 H 0.1135 0.53888 0.18607 0.0
H4625 H 0.08947 0.4781 0.17629 0.0
H4626 H 0.10277 0.54784 0.13765 0.0
H4627 H 0.08435 0.55264 0.14938 0.0
H4628 H 0.10692 0.5595 0.16331 0.0
H4629 H 0.07123 0.46261 0.14622 0.0
H4630 H 0.05605 0.47765 0.1376 0.0
H4631 H 0.07405 0.47418 0.12452 0.0
H4632 H 0.03093 0.52275 0.10644 0.0
H4633 H 0.07386 0.51407 0.07497 0.0
H4634 H 0.05569 0.53214 0.15487 0.0
H4635 H 0.04588 0.50677 0.1501 0.0
H4636 H 0.03322 0.52388 0.14092 0.0
H4637 H 0.1079 0.52204 0.11333 0.0
H4638 H 0.09981 0.50473 0.09081 0.0
H4639 H 0.09991 0.49701 0.11495 0.0
C4640 C 0.79202 0.8418 0.43468 0.0
C4641 C 0.79688 0.83147 0.45011 0.0
C4642 C 0.79101 0.83401 0.41451 0.0
C4643 C 0.79475 0.81528 0.40951 0.0
C4644 C 0.79948 0.80469 0.42502 0.0
C4645 C 0.80061 0.81294 0.44509 0.0
C4646 C 0.78615 0.84594 0.39853 0.0
C4647 C 0.80334 0.7846 0.4204 0.0
C4648 C 0.77661 0.78905 0.35627 0.0
C4649 C 0.79188 0.79224 0.34706 0.0
C4650 C 0.77742 0.79614 0.3766 0.0
C4651 C 0.79386 0.80691 0.38808 0.0
C4652 C 0.80935 0.81004 0.37892 0.0
C4653 C 0.80821 0.80259 0.35861 0.0
C4654 C 0.76062 0.79224 0.38576 0.0
C4655 C 0.82711 0.82159 0.39049 0.0
H4656 H 0.78938 0.85623 0.43841 0.0
H4657 H 0.80423 0.80479 0.4569 0.0
H4658 H 0.79716 0.84847 0.3897 0.0
H4659 H 0.77392 0.83792 0.38806 0.0
H4660 H 0.78365 0.86025 0.40485 0.0
H4661 H 0.80646 0.77808 0.4341 0.0
H4662 H 0.79159 0.77488 0.41049 0.0
H4663 H 0.81489 0.78521 0.41228 0.0
H4664 H 0.76393 0.78101 0.34757 0.0
H4665 H 0.82008 0.80525 0.35169 0.0
H4666 H 0.75686 0.80618 0.391 0.0
H4667 H 0.76313 0.78491 0.39899 0.0
H4668 H 0.74907 0.78301 0.37506 0.0
H4669 H 0.82567 0.83654 0.39604 0.0
H4670 H 0.83796 0.82255 0.38131 0.0
H4671 H 0.83125 0.81487 0.40373 0.0
C4672 C 0.47222 0.52414 0.88413 0.0
C4673 C 0.48271 0.5228 0.869 0.0
C4674 C 0.47986 0.52617 0.90437 0.0
C4675 C 0.49851 0.52691 0.90976 0.0
C4676 C 0.50931 0.52623 0.89463 0.0
C4677 C 0.50129 0.52422 0.87445 0.0
C4678 C 0.46784 0.52697 0.91996 0.0
C4679 C 0.52923 0.52698 0.89973 0.0
C4680 C 0.51915 0.54452 0.96463 0.0
C4681 C 0.51876 0.5269 0.97215 0.0
C4682 C 0.51303 0.54481 0.94429 0.0
C4683 C 0.50635 0.52706 0.93109 0.0
C4684 C 0.50631 0.50925 0.9385 0.0
C4685 C 0.51249 0.50939 0.95886 0.0
C4686 C 0.51334 0.56412 0.93703 0.0
C4687 C 0.49936 0.48998 0.925 0.0
H4688 H 0.45792 0.52347 0.88012 0.0
H4689 H 0.5095 0.52311 0.86289 0.0
H4690 H 0.46763 0.51406 0.92767 0.0
H4691 H 0.47317 0.54003 0.93145 0.0
H4692 H 0.45381 0.52731 0.91343 0.0
H4693 H 0.53598 0.52778 0.88647 0.0
H4694 H 0.53565 0.53975 0.91124 0.0
H4695 H 0.53151 0.51381 0.90612 0.0
H4696 H 0.52408 0.55814 0.97465 0.0
H4697 H 0.51217 0.49566 0.96438 0.0
H4698 H 0.49937 0.56585 0.93217 0.0
H4699 H 0.52025 0.56469 0.92389 0.0
H4700 H 0.5202 0.57657 0.94877 0.0
H4701 H 0.48489 0.48854 0.91902 0.0
H4702 H 0.501 0.47744 0.93285 0.0
H4703 H 0.50654 0.48925 0.91205 0.0
C4704 C 0.83261 0.24264 0.17209 0.0
C4705 C 0.82583 0.24373 0.15231 0.0
C4706 C 0.82671 0.25284 0.18787 0.0
C4707 C 0.81341 0.26394 0.18361 0.0
C4708 C 0.80712 0.26574 0.16361 0.0
C4709 C 0.81355 0.25567 0.14812 0.0
C4710 C 0.83393 0.25081 0.20905 0.0
C4711 C 0.79273 0.27715 0.15851 0.0
C4712 C 0.78413 0.26542 0.2233 0.0
C4713 C 0.79184 0.28347 0.23481 0.0
C4714 C 0.79036 0.25934 0.20584 0.0
C4715 C 0.80474 0.27167 0.19998 0.0
C4716 C 0.81186 0.29045 0.21101 0.0
C4717 C 0.80525 0.29617 0.22841 0.0
C4718 C 0.78231 0.23925 0.1944 0.0
C4719 C 0.82722 0.30392 0.20524 0.0
H4720 H 0.8421 0.23331 0.17516 0.0
H4721 H 0.80819 0.25621 0.13271 0.0
H4722 H 0.83802 0.26529 0.21855 0.0
H4723 H 0.82324 0.24207 0.21541 0.0
H4724 H 0.84565 0.24358 0.20988 0.0
H4725 H 0.79096 0.27913 0.14257 0.0
H4726 H 0.77975 0.26933 0.16156 0.0
H4727 H 0.79596 0.29164 0.16797 0.0
H4728 H 0.77366 0.25574 0.22835 0.0
H4729 H 0.81122 0.3101 0.23758 0.0
H4730 H 0.79223 0.22974 0.19631 0.0
H4731 H 0.77901 0.23983 0.17821 0.0
H4732 H 0.76993 0.23248 0.19961 0.0
H4733 H 0.83968 0.29814 0.20823 0.0
H4734 H 0.82959 0.31883 0.21374 0.0
H4735 H 0.82462 0.30473 0.18904 0.0
C4736 C 0.10972 0.49712 0.40429 0.0
C4737 C 0.10973 0.51054 0.39055 0.0
C4738 C 0.10106 0.49869 0.4215 0.0
C4739 C 0.092 0.51422 0.42591 0.0
C4740 C 0.09204 0.52787 0.41224 0.0
C4741 C 0.10066 0.52587 0.39505 0.0
C4742 C 0.10151 0.48345 0.43499 0.0
C4743 C 0.08293 0.54484 0.41579 0.0
C4744 C 0.05498 0.50919 0.46022 0.0
C4745 C 0.06383 0.51951 0.47913 0.0
C4746 C 0.06382 0.50733 0.44322 0.0
C4747 C 0.08231 0.516 0.44443 0.0
C4748 C 0.09136 0.52643 0.46348 0.0
C4749 C 0.0822 0.52798 0.48031 0.0
C4750 C 0.05322 0.49589 0.42378 0.0
C4751 C 0.1109 0.53609 0.46615 0.0
H4752 H 0.11625 0.48498 0.40144 0.0
H4753 H 0.10048 0.53671 0.38523 0.0
H4754 H 0.10785 0.4904 0.45041 0.0
H4755 H 0.0876 0.47608 0.43563 0.0
H4756 H 0.10905 0.4723 0.42989 0.0
H4757 H 0.0842 0.55445 0.40422 0.0
H4758 H 0.06845 0.53948 0.41593 0.0
H4759 H 0.08884 0.55357 0.43064 0.0
H4760 H 0.04093 0.50237 0.45862 0.0
H4761 H 0.08954 0.53598 0.49451 0.0
H4762 H 0.05968 0.48374 0.41882 0.0
H4763 H 0.05317 0.50533 0.41201 0.0
H4764 H 0.03909 0.48982 0.425 0.0
H4765 H 0.11902 0.52509 0.46243 0.0
H4766 H 0.11622 0.54367 0.48163 0.0
H4767 H 0.1127 0.5468 0.4557 0.0
C4768 C 0.78982 0.84403 0.66109 0.0
C4769 C 0.80227 0.84015 0.64869 0.0
C4770 C 0.78774 0.83457 0.67781 0.0
C4771 C 0.79839 0.82082 0.68251 0.0
C4772 C 0.81135 0.81723 0.67044 0.0
C4773 C 0.81312 0.82687 0.65375 0.0
C4774 C 0.77376 0.83895 0.69017 0.0
C4775 C 0.82301 0.80274 0.6748 0.0
C4776 C 0.79959 0.80478 0.73426 0.0
C4777 C 0.78663 0.78744 0.73005 0.0
C4778 C 0.80388 0.81563 0.71896 0.0
C4779 C 0.79489 0.80909 0.69897 0.0
C4780 C 0.78198 0.79143 0.6947 0.0
C4781 C 0.77804 0.78092 0.7102 0.0
C4782 C 0.81774 0.83432 0.72427 0.0
C4783 C 0.77199 0.78379 0.67375 0.0
H4784 H 0.7816 0.85452 0.65771 0.0
H4785 H 0.82268 0.82352 0.64431 0.0
H4786 H 0.76318 0.82571 0.68898 0.0
H4787 H 0.77994 0.84316 0.70615 0.0
H4788 H 0.7673 0.85081 0.68534 0.0
H4789 H 0.83344 0.80272 0.66509 0.0
H4790 H 0.82975 0.80599 0.69063 0.0
H4791 H 0.81453 0.78792 0.67247 0.0
H4792 H 0.806 0.81017 0.74955 0.0
H4793 H 0.76794 0.76758 0.70676 0.0
H4794 H 0.81124 0.84676 0.72163 0.0
H4795 H 0.82812 0.83423 0.71455 0.0
H4796 H 0.82444 0.83674 0.74012 0.0
H4797 H 0.76403 0.79436 0.66852 0.0
H4798 H 0.76273 0.76956 0.67276 0.0
H4799 H 0.78165 0.78209 0.66338 0.0
C4800 C 0.65943 0.40312 0.54905 0.0
C4801 C 0.67043 0.40786 0.53495 0.0
C4802 C 0.64753 0.41496 0.55451 0.0
C4803 C 0.64686 0.43198 0.54581 0.0
C4804 C 0.65747 0.43641 0.53107 0.0
C4805 C 0.6691 0.42431 0.52583 0.0
C4806 C 0.63623 0.4097 0.57009 0.0
C4807 C 0.65713 0.45444 0.52139 0.0
C4808 C 0.61018 0.46088 0.54508 0.0
C4809 C 0.61883 0.47755 0.55869 0.0
C4810 C 0.61856 0.44504 0.54184 0.0
C4811 C 0.63592 0.44593 0.5526 0.0
C4812 C 0.64399 0.462 0.56763 0.0
C4813 C 0.63532 0.47768 0.5705 0.0
C4814 C 0.60948 0.42806 0.52585 0.0
C4815 C 0.66247 0.46341 0.57947 0.0
H4816 H 0.66039 0.39036 0.55607 0.0
H4817 H 0.67781 0.4283 0.51524 0.0
H4818 H 0.64125 0.4202 0.58407 0.0
H4819 H 0.62205 0.41062 0.56508 0.0
H4820 H 0.6366 0.39483 0.57352 0.0
H4821 H 0.66562 0.45529 0.50955 0.0
H4822 H 0.64317 0.45475 0.51468 0.0
H4823 H 0.66205 0.46759 0.53285 0.0
H4824 H 0.59715 0.46056 0.53636 0.0
H4825 H 0.64197 0.49053 0.58109 0.0
H4826 H 0.60923 0.4142 0.53188 0.0
H4827 H 0.61721 0.42757 0.51335 0.0
H4828 H 0.5955 0.429 0.51979 0.0
H4829 H 0.66357 0.44956 0.58506 0.0
H4830 H 0.66574 0.47538 0.59237 0.0
H4831 H 0.67267 0.46612 0.56964 0.0
C4832 C 0.16602 0.09319 0.53327 0.0
C4833 C 0.16982 0.0961 0.51426 0.0
C4834 C 0.1489 0.08369 0.53587 0.0
C4835 C 0.13512 0.07669 0.51905 0.0
C4836 C 0.13874 0.07993 0.49987 0.0
C4837 C 0.15595 0.08963 0.49772 0.0
C4838 C 0.14568 0.08078 0.55662 0.0
C4839 C 0.12457 0.07259 0.48149 0.0
C4840 C 0.09908 0.03297 0.52263 0.0
C4841 C 0.08434 0.04142 0.52584 0.0
C4842 C 0.11553 0.04426 0.52039 0.0
C4843 C 0.11747 0.06466 0.52137 0.0
C4844 C 0.10261 0.07333 0.52463 0.0
C4845 C 0.08623 0.0616 0.52681 0.0
C4846 C 0.13086 0.03428 0.51689 0.0
C4847 C 0.104 0.09498 0.52576 0.0
H4848 H 0.17648 0.09842 0.54621 0.0
H4849 H 0.1587 0.09167 0.48295 0.0
H4850 H 0.13362 0.08635 0.55984 0.0
H4851 H 0.14304 0.06503 0.55763 0.0
H4852 H 0.15733 0.08822 0.56827 0.0
H4853 H 0.12905 0.07734 0.46784 0.0
H4854 H 0.12121 0.05646 0.47919 0.0
H4855 H 0.11205 0.07778 0.48347 0.0
H4856 H 0.09774 0.01737 0.52179 0.0
H4857 H 0.07488 0.06819 0.52905 0.0
H4858 H 0.14258 0.04013 0.52897 0.0
H4859 H 0.13521 0.03726 0.50261 0.0
H4860 H 0.12716 0.01829 0.51634 0.0
H4861 H 0.1149 0.10276 0.53809 0.0
H4862 H 0.09126 0.09948 0.52826 0.0
H4863 H 0.10758 0.09964 0.51173 0.0
C4864 C 0.17806 0.94172 0.80536 0.0
C4865 C 0.18826 0.96078 0.80914 0.0
C4866 C 0.18641 0.92562 0.80538 0.0
C4867 C 0.2054 0.92864 0.80926 0.0
C4868 C 0.21574 0.94784 0.81353 0.0
C4869 C 0.20705 0.96365 0.81344 0.0
C4870 C 0.17493 0.90538 0.80075 0.0
C4871 C 0.23603 0.95169 0.8178 0.0
C4872 C 0.23024 0.8892 0.82364 0.0
C4873 C 0.23587 0.88325 0.80569 0.0
C4874 C 0.21967 0.90345 0.82489 0.0
C4875 C 0.21461 0.91184 0.80776 0.0
C4876 C 0.21949 0.90512 0.78937 0.0
C4877 C 0.23006 0.89092 0.78857 0.0
C4878 C 0.21468 0.91019 0.84475 0.0
C4879 C 0.21424 0.91353 0.77071 0.0
H4880 H 0.16354 0.93936 0.80184 0.0
H4881 H 0.21501 0.97832 0.81673 0.0
H4882 H 0.17737 0.89784 0.7865 0.0
H4883 H 0.17863 0.89675 0.81257 0.0
H4884 H 0.16036 0.9055 0.79942 0.0
H4885 H 0.24207 0.96746 0.82166 0.0
H4886 H 0.24066 0.94428 0.83032 0.0
H4887 H 0.24117 0.94566 0.80452 0.0
H4888 H 0.23478 0.88338 0.83693 0.0
H4889 H 0.23417 0.88614 0.77459 0.0
H4890 H 0.20008 0.91015 0.84303 0.0
H4891 H 0.22192 0.92537 0.85039 0.0
H4892 H 0.2181 0.90094 0.8561 0.0
H4893 H 0.19955 0.91298 0.76795 0.0
H4894 H 0.21793 0.9057 0.75731 0.0
H4895 H 0.22104 0.92904 0.77269 0.0
C4896 C 0.33461 0.93446 0.96378 0.0
C4897 C 0.32084 0.93891 0.97378 0.0
C4898 C 0.35181 0.94628 0.96822 0.0
C4899 C 0.35526 0.96304 0.98294 0.0
C4900 C 0.34102 0.96851 0.99185 0.0
C4901 C 0.32392 0.95629 0.98721 0.0
C4902 C 0.3666 0.93998 0.95826 0.0
C4903 C 0.3441 0.98645 0.00734 0.0
C4904 C 0.40288 0.97231 0.01053 0.0
C4905 C 0.41173 0.98563 0.9999 0.0
C4906 C 0.38421 0.96588 1.00609 0.0
C4907 C 0.37416 0.97304 0.9907 0.0
C4908 C 0.38283 0.98772 0.98109 0.0
C4909 C 0.40159 0.99383 0.98578 0.0
C4910 C 0.37545 0.95033 0.01684 0.0
C4911 C 0.37251 0.99594 0.96488 0.0
H4912 H 0.33214 0.92117 0.95315 0.0
H4913 H 0.3133 0.95973 0.99505 0.0
H4914 H 0.37406 0.95224 0.95223 0.0
H4915 H 0.37633 0.93545 0.96945 0.0
H4916 H 0.36136 0.92762 0.9459 0.0
H4917 H 0.33127 0.99076 0.00977 0.0
H4918 H 0.35091 0.98354 0.02173 0.0
H4919 H 0.35295 0.99883 1.00291 0.0
H4920 H 0.41069 0.96627 0.02175 0.0
H4921 H 0.40839 1.00414 0.97751 0.0
H4922 H 0.37071 0.93649 1.0063 0.0
H4923 H 0.36355 0.95441 0.02238 0.0
H4924 H 0.38484 0.94772 0.02969 0.0
H4925 H 0.36909 0.98519 0.95098 0.0
H4926 H 0.38045 0.00961 0.96166 0.0
H4927 H 0.35971 0.99885 0.9691 0.0
C4928 C 0.85346 0.64459 0.75574 0.0
C4929 C 0.85771 0.6356 0.77274 0.0
C4930 C 0.84511 0.66125 0.7563 0.0
C4931 C 0.84049 0.66997 0.77431 0.0
C4932 C 0.84475 0.66109 0.79152 0.0
C4933 C 0.85309 0.64443 0.79056 0.0
C4934 C 0.84125 0.66963 0.73735 0.0
C4935 C 0.84039 0.66922 0.81124 0.0
C4936 C 0.83227 0.72391 0.78033 0.0
C4937 C 0.81331 0.7218 0.77684 0.0
C4938 C 0.8411 0.7076 0.77943 0.0
C4939 C 0.83112 0.68799 0.77508 0.0
C4940 C 0.812 0.6858 0.77152 0.0
C4941 C 0.80353 0.70234 0.7724 0.0
C4942 C 0.86134 0.71147 0.78339 0.0
C4943 C 0.80029 0.66572 0.76679 0.0
H4944 H 0.85688 0.6388 0.74174 0.0
H4945 H 0.85571 0.63815 0.80402 0.0
H4946 H 0.82665 0.66937 0.73364 0.0
H4947 H 0.84833 0.68506 0.73953 0.0
H4948 H 0.8455 0.66155 0.72449 0.0
H4949 H 0.84456 0.66116 0.82342 0.0
H4950 H 0.8472 0.68472 0.81548 0.0
H4951 H 0.82572 0.66864 0.80984 0.0
H4952 H 0.84038 0.73848 0.78384 0.0
H4953 H 0.78899 0.6999 0.76968 0.0
H4954 H 0.8664 0.70313 0.77137 0.0
H4955 H 0.86603 0.70651 0.7976 0.0
H4956 H 0.86737 0.72713 0.78448 0.0
H4957 H 0.80349 0.65763 0.75327 0.0
H4958 H 0.78574 0.66608 0.76423 0.0
H4959 H 0.80306 0.6575 0.77926 0.0
C4960 C 0.84271 0.58365 0.01616 0.0
C4961 C 0.84443 0.60392 0.02005 0.0
C4962 C 0.85791 0.57499 0.01818 0.0
C4963 C 0.87533 0.58679 0.02455 0.0
C4964 C 0.87711 0.60724 0.02876 0.0
C4965 C 0.86171 0.61553 0.02634 0.0
C4966 C 0.85534 0.55318 0.01323 0.0
C4967 C 0.89531 0.62041 0.03587 0.0
C4968 C 0.91356 0.56329 0.04606 0.0
C4969 C 0.92289 0.56112 0.02998 0.0
C4970 C 0.89818 0.57168 0.04457 0.0
C4971 C 0.8917 0.57783 0.02644 0.0
C4972 C 0.90099 0.57551 0.01012 0.0
C4973 C 0.91645 0.56734 0.01211 0.0
C4974 C 0.88892 0.57411 0.06246 0.0
C4975 C 0.8945 0.58155 0.99042 0.0
H4976 H 0.82946 0.57456 0.01113 0.0
H4977 H 0.8632 0.63116 0.02966 0.0
H4978 H 0.86276 0.54939 1.00102 0.0
H4979 H 0.86097 0.54718 0.02639 0.0
H4980 H 0.84096 0.54601 0.00853 0.0
H4981 H 0.89441 0.63595 0.03907 0.0
H4982 H 0.90203 0.61616 0.04961 0.0
H4983 H 0.904 0.61884 0.02438 0.0
H4984 H 0.91846 0.55868 0.05996 0.0
H4985 H 0.92336 0.56547 0.99949 0.0
H4986 H 0.87476 0.56608 0.05864 0.0
H4987 H 0.88865 0.58968 0.06678 0.0
H4988 H 0.89567 0.56879 0.07552 0.0
H4989 H 0.88047 0.57376 0.98454 0.0
H4990 H 0.90301 0.5785 0.97906 0.0
H4991 H 0.89446 0.59733 0.99258 0.0
C4992 C 0.2235 0.14155 0.81152 0.0
C4993 C 0.20591 0.14304 0.81366 0.0
C4994 C 0.23619 0.15794 0.80964 0.0
C4995 C 0.2313 0.17636 0.81051 0.0
C4996 C 0.21369 0.17802 0.81344 0.0
C4997 C 0.2011 0.16126 0.81462 0.0
C4998 C 0.25462 0.15539 0.80596 0.0
C4999 C 0.20796 0.19738 0.81482 0.0
C5000 C 0.26987 0.22052 0.81943 0.0
C5001 C 0.26967 0.2252 0.80015 0.0
C5002 C 0.25711 0.20501 0.82317 0.0
C5003 C 0.24429 0.19358 0.80712 0.0
C5004 C 0.24417 0.19827 0.7876 0.0
C5005 C 0.2567 0.21418 0.78442 0.0
C5006 C 0.25726 0.20092 0.84429 0.0
C5007 C 0.23102 0.18629 0.76999 0.0
H5008 H 0.22712 0.1274 0.81058 0.0
H5009 H 0.18748 0.16237 0.8163 0.0
H5010 H 0.25681 0.15959 0.79128 0.0
H5011 H 0.26514 0.16508 0.8175 0.0
H5012 H 0.2564 0.14017 0.80603 0.0
H5013 H 0.19533 0.1969 0.82107 0.0
H5014 H 0.21861 0.20898 0.82422 0.0
H5015 H 0.20562 0.20145 0.79969 0.0
H5016 H 0.2798 0.22919 0.83162 0.0
H5017 H 0.2566 0.21776 0.76947 0.0
H5018 H 0.26006 0.18623 0.84538 0.0
H5019 H 0.24383 0.20105 0.84848 0.0
H5020 H 0.2675 0.21173 0.85522 0.0
H5021 H 0.23237 0.17086 0.76878 0.0
H5022 H 0.23309 0.19149 0.75569 0.0
H5023 H 0.21706 0.18676 0.77218 0.0
C5024 C 0.36392 0.91793 0.27434 0.0
C5025 C 0.35378 0.93212 0.26984 0.0
C5026 C 0.35575 0.89837 0.27536 0.0
C5027 C 0.33671 0.89215 0.2718 0.0
C5028 C 0.32637 0.90631 0.26719 0.0
C5029 C 0.33488 0.92581 0.26631 0.0
C5030 C 0.36765 0.88431 0.28049 0.0
C5031 C 0.30612 0.90084 0.26313 0.0
C5032 C 0.31538 0.83659 0.25853 0.0
C5033 C 0.31096 0.83154 0.27677 0.0
C5034 C 0.32357 0.85595 0.25667 0.0
C5035 C 0.32771 0.87115 0.27341 0.0
C5036 C 0.3233 0.86609 0.29184 0.0
C5037 C 0.31508 0.84667 0.29326 0.0
C5038 C 0.32779 0.86015 0.23663 0.0
C5039 C 0.3273 0.88129 0.31026 0.0
H5040 H 0.37843 0.92215 0.27749 0.0
H5041 H 0.32657 0.93609 0.26254 0.0
H5042 H 0.36486 0.87894 0.2945 0.0
H5043 H 0.36465 0.87149 0.26855 0.0
H5044 H 0.38216 0.891 0.28245 0.0
H5045 H 0.29984 0.91318 0.25945 0.0
H5046 H 0.3016 0.88863 0.25054 0.0
H5047 H 0.30118 0.89574 0.2764 0.0
H5048 H 0.31239 0.82537 0.24554 0.0
H5049 H 0.31189 0.84336 0.30752 0.0
H5050 H 0.34243 0.86578 0.23783 0.0
H5051 H 0.32081 0.87162 0.23176 0.0
H5052 H 0.32369 0.84705 0.22496 0.0
H5053 H 0.3419 0.88767 0.31371 0.0
H5054 H 0.32317 0.87528 0.32351 0.0
H5055 H 0.3202 0.89329 0.30755 0.0
C5056 C 0.56361 0.38504 0.57295 0.0
C5057 C 0.55676 0.38159 0.59043 0.0
C5058 C 0.56205 0.40201 0.56449 0.0
C5059 C 0.55358 0.41608 0.57377 0.0
C5060 C 0.5471 0.41291 0.59171 0.0
C5061 C 0.54865 0.39574 0.5997 0.0
C5062 C 0.56899 0.40456 0.54527 0.0
C5063 C 0.53838 0.42763 0.60246 0.0
C5064 C 0.56043 0.46794 0.56096 0.0
C5065 C 0.54397 0.46773 0.54881 0.0
C5066 C 0.56388 0.45125 0.56894 0.0
C5067 C 0.55075 0.4337 0.56438 0.0
C5068 C 0.53443 0.43324 0.55148 0.0
C5069 C 0.53119 0.45021 0.54406 0.0
C5070 C 0.58141 0.45254 0.58269 0.0
C5071 C 0.52018 0.41485 0.54579 0.0
H5072 H 0.56979 0.37421 0.56553 0.0
H5073 H 0.54359 0.39347 0.61339 0.0
H5074 H 0.55747 0.40309 0.533 0.0
H5075 H 0.57732 0.41931 0.54646 0.0
H5076 H 0.57711 0.39365 0.54118 0.0
H5077 H 0.53494 0.4236 0.61681 0.0
H5078 H 0.5475 0.44213 0.60553 0.0
H5079 H 0.52589 0.42902 0.59286 0.0
H5080 H 0.57043 0.48134 0.56479 0.0
H5081 H 0.51849 0.44976 0.53459 0.0
H5082 H 0.58911 0.44228 0.57611 0.0
H5083 H 0.57877 0.44825 0.5972 0.0
H5084 H 0.58988 0.4674 0.58554 0.0
H5085 H 0.52609 0.40268 0.53963 0.0
H5086 H 0.50879 0.41645 0.53456 0.0
H5087 H 0.51486 0.41079 0.55924 0.0
C5088 C 0.39935 0.7466 0.36897 0.0
C5089 C 0.41503 0.75538 0.36259 0.0
C5090 C 0.38215 0.74787 0.35936 0.0
C5091 C 0.38046 0.75782 0.34265 0.0
C5092 C 0.39627 0.76666 0.33615 0.0
C5093 C 0.41328 0.76549 0.34626 0.0
C5094 C 0.36575 0.7385 0.36706 0.0
C5095 C 0.39521 0.77706 0.3182 0.0
C5096 C 0.33726 0.74337 0.30416 0.0
C5097 C 0.32869 0.75906 0.30788 0.0
C5098 C 0.35392 0.74275 0.31544 0.0
C5099 C 0.36224 0.75802 0.33123 0.0
C5100 C 0.35339 0.77365 0.33551 0.0
C5101 C 0.33681 0.77407 0.32369 0.0
C5102 C 0.36284 0.72593 0.31006 0.0
C5103 C 0.36156 0.79004 0.35242 0.0
H5104 H 0.40055 0.73899 0.38172 0.0
H5105 H 0.42529 0.77221 0.34112 0.0
H5106 H 0.35731 0.74932 0.37021 0.0
H5107 H 0.35745 0.72667 0.35551 0.0
H5108 H 0.36931 0.73232 0.38087 0.0
H5109 H 0.40871 0.78349 0.31523 0.0
H5110 H 0.38786 0.76675 0.30477 0.0
H5111 H 0.38759 0.78882 0.32043 0.0
H5112 H 0.33113 0.73167 0.29201 0.0
H5113 H 0.33027 0.7862 0.32672 0.0
H5114 H 0.36546 0.71848 0.32317 0.0
H5115 H 0.37602 0.7314 0.30578 0.0
H5116 H 0.35455 0.71509 0.29751 0.0
H5117 H 0.36468 0.78415 0.36649 0.0
H5118 H 0.35251 0.80042 0.3547 0.0
H5119 H 0.37441 0.7981 0.3493 0.0
C5120 C 0.05416 0.68037 0.06706 0.0
C5121 C 0.04987 0.68619 0.08585 0.0
C5122 C 0.05335 0.66061 0.05988 0.0
C5123 C 0.04841 0.64623 0.07188 0.0
C5124 C 0.04439 0.65208 0.09101 0.0
C5125 C 0.04504 0.67189 0.09768 0.0
C5126 C 0.05748 0.65507 0.03929 0.0
C5127 C 0.03933 0.63739 0.10447 0.0
C5128 C 0.02857 0.59365 0.04761 0.0
C5129 C 0.04338 0.58459 0.05065 0.0
C5130 C 0.03012 0.61365 0.0541 0.0
C5131 C 0.04685 0.62503 0.06421 0.0
C5132 C 0.06188 0.61602 0.0673 0.0
C5133 C 0.06001 0.59599 0.06035 0.0
C5134 C 0.01378 0.62259 0.05017 0.0
C5135 C 0.07989 0.62748 0.07824 0.0
H5136 H 0.05781 0.69128 0.05777 0.0
H5137 H 0.04199 0.67625 0.11234 0.0
H5138 H 0.06856 0.64695 0.04017 0.0
H5139 H 0.04553 0.6453 0.02977 0.0
H5140 H 0.06136 0.66795 0.03193 0.0
H5141 H 0.03733 0.64432 0.11923 0.0
H5142 H 0.02674 0.62705 0.09727 0.0
H5143 H 0.04996 0.62879 0.10688 0.0
H5144 H 0.01567 0.58511 0.04001 0.0
H5145 H 0.07153 0.58919 0.06288 0.0
H5146 H 0.01676 0.63491 0.04182 0.0
H5147 H 0.01025 0.6285 0.06453 0.0
H5148 H 1.00192 0.61194 0.0415 0.0
H5149 H 0.08454 0.63986 0.07054 0.0
H5150 H 0.0903 0.61844 0.07933 0.0
H5151 H 0.07861 0.63366 0.09355 0.0
C5152 C 0.09331 0.2712 0.84695 0.0
C5153 C 0.09285 0.26329 0.86475 0.0
C5154 C 0.10845 0.27231 0.83731 0.0
C5155 C 0.12366 0.26544 0.84564 0.0
C5156 C 0.12334 0.25753 0.86362 0.0
C5157 C 0.108 0.25649 0.87287 0.0
C5158 C 0.10814 0.28083 0.81817 0.0
C5159 C 0.13919 0.24999 0.87306 0.0
C5160 C 0.15631 0.25075 0.8121 0.0
C5161 C 0.17069 0.2669 0.81661 0.0
C5162 C 0.14095 0.25018 0.82125 0.0
C5163 C 0.13978 0.26614 0.83537 0.0
C5164 C 0.15415 0.28257 0.83987 0.0
C5165 C 0.16936 0.28277 0.83044 0.0
C5166 C 0.12597 0.23241 0.81584 0.0
C5167 C 0.15356 0.29987 0.85488 0.0
H5168 H 0.08189 0.27679 0.84061 0.0
H5169 H 0.10781 0.25003 0.88639 0.0
H5170 H 0.11942 0.2935 0.81994 0.0
H5171 H 0.11004 0.26992 0.80596 0.0
H5172 H 0.09534 0.28557 0.8136 0.0
H5173 H 0.13707 0.24476 0.88734 0.0
H5174 H 0.14168 0.23784 0.86266 0.0
H5175 H 0.15148 0.26161 0.87598 0.0
H5176 H 0.15697 0.23852 0.80121 0.0
H5177 H 0.18039 0.29525 0.83423 0.0
H5178 H 0.1132 0.23663 0.81007 0.0
H5179 H 0.1239 0.2257 0.82934 0.0
H5180 H 0.12878 0.22133 0.80438 0.0
H5181 H 0.14138 0.30573 0.85038 0.0
H5182 H 0.16559 0.31169 0.85645 0.0
H5183 H 0.15267 0.29532 0.86969 0.0
C5184 C 0.55871 0.70902 0.93156 0.0
C5185 C 0.54192 0.71407 0.92704 0.0
C5186 C 0.56061 0.69346 0.94195 0.0
C5187 C 0.54534 0.68276 0.94786 0.0
C5188 C 0.52824 0.68729 0.94258 0.0
C5189 C 0.52674 0.70294 0.93225 0.0
C5190 C 0.57905 0.68905 0.94738 0.0
C5191 C 0.51162 0.6761 0.9485 0.0
C5192 C 0.5455 0.63408 0.96536 0.0
C5193 C 0.54767 0.63938 0.98612 0.0
C5194 C 0.54531 0.64813 0.95264 0.0
C5195 C 0.54736 0.66789 0.96096 0.0
C5196 C 0.55023 0.6734 0.98193 0.0
C5197 C 0.55031 0.65906 0.99426 0.0
C5198 C 0.54228 0.64178 0.93034 0.0
C5199 C 0.55248 0.69435 0.99134 0.0
H5200 H 0.57048 0.71772 0.92767 0.0
H5201 H 0.51371 0.70666 0.92847 0.0
H5202 H 0.58347 0.69263 0.96379 0.0
H5203 H 0.57868 0.67332 0.94312 0.0
H5204 H 0.5892 0.69747 0.94004 0.0
H5205 H 0.49918 0.68057 0.942 0.0
H5206 H 0.51025 0.66028 0.94362 0.0
H5207 H 0.51284 0.67847 0.96501 0.0
H5208 H 0.54369 0.6189 0.95903 0.0
H5209 H 0.55173 0.66322 0.01027 0.0
H5210 H 0.55286 0.65031 0.92367 0.0
H5211 H 0.52919 0.64463 0.9235 0.0
H5212 H 0.54222 0.62607 0.92634 0.0
H5213 H 0.56328 0.70368 0.98568 0.0
H5214 H 0.5558 0.69634 0.00789 0.0
H5215 H 0.53986 0.69955 0.98717 0.0
C5216 C 0.15421 0.77551 0.71706 0.0
C5217 C 0.14415 0.75993 0.72391 0.0
C5218 C 0.17302 0.77957 0.72144 0.0
C5219 C 0.18184 0.768 0.73333 0.0
C5220 C 0.17165 0.75234 0.74046 0.0
C5221 C 0.15285 0.74831 0.7354 0.0
C5222 C 0.18345 0.79611 0.71325 0.0
C5223 C 0.1806 0.73997 0.75355 0.0
C5224 C 0.23089 0.76616 0.73309 0.0
C5225 C 0.23926 0.77914 0.75043 0.0
C5226 C 0.21221 0.7629 0.72692 0.0
C5227 C 0.20172 0.77249 0.73867 0.0
C5228 C 0.21016 0.78592 0.75594 0.0
C5229 C 0.22886 0.78926 0.76148 0.0
C5230 C 0.20367 0.74884 0.70812 0.0
C5231 C 0.19939 0.79615 0.76908 0.0
H5232 H 0.14732 0.78427 0.70794 0.0
H5233 H 0.14491 0.73625 0.74059 0.0
H5234 H 0.19151 0.80718 0.72569 0.0
H5235 H 0.193 0.79067 0.70432 0.0
H5236 H 0.17454 0.80326 0.70368 0.0
H5237 H 0.17071 0.72859 0.75814 0.0
H5238 H 0.18979 0.73279 0.74552 0.0
H5239 H 0.18886 0.74927 0.76717 0.0
H5240 H 0.2389 0.75835 0.72451 0.0
H5241 H 0.23522 0.79914 0.77505 0.0
H5242 H 0.19496 0.75577 0.6981 0.0
H5243 H 0.19499 0.73599 0.71194 0.0
H5244 H 0.21383 0.74377 0.69986 0.0
H5245 H 0.1908 0.80412 0.76018 0.0
H5246 H 0.20808 0.8066 0.78168 0.0
H5247 H 0.19032 0.78526 0.77528 0.0
C5248 C 0.06673 0.41021 0.46444 0.0
C5249 C 0.05829 0.39097 0.46449 0.0
C5250 C 0.06478 0.42523 0.47884 0.0
C5251 C 0.0538 0.42086 0.49331 0.0
C5252 C 0.04588 0.40133 0.49392 0.0
C5253 C 0.04834 0.38656 0.47955 0.0
C5254 C 0.0737 0.44588 0.47791 0.0
C5255 C 0.03381 0.39615 0.50885 0.0
C5256 C 0.05675 0.46175 0.53584 0.0
C5257 C 0.04351 0.47119 0.52776 0.0
C5258 C 0.05983 0.44474 0.52518 0.0
C5259 C 0.04915 0.43694 0.50629 0.0
C5260 C 0.03486 0.44563 0.49887 0.0
C5261 C 0.03237 0.46281 0.50961 0.0
C5262 C 0.07531 0.43599 0.53343 0.0
C5263 C 0.02291 0.43752 0.47899 0.0
H5264 H 0.07447 0.41354 0.4528 0.0
H5265 H 0.04161 0.37168 0.47941 0.0
H5266 H 0.06333 0.45419 0.47313 0.0
H5267 H 0.08094 0.4532 0.4929 0.0
H5268 H 0.08336 0.44656 0.46726 0.0
H5269 H 0.03041 0.38021 0.50886 0.0
H5270 H 0.04026 0.40341 0.52413 0.0
H5271 H 0.02114 0.40137 0.50517 0.0
H5272 H 0.06549 0.46833 0.54981 0.0
H5273 H 0.02221 0.47017 0.50332 0.0
H5274 H 0.08621 0.43878 0.52449 0.0
H5275 H 0.07108 0.42001 0.53229 0.0
H5276 H 0.08083 0.44225 0.54928 0.0
H5277 H 0.03072 0.43982 0.46676 0.0
H5278 H 0.01113 0.44456 0.47658 0.0
H5279 H 0.01799 0.42163 0.47793 0.0
C5280 C 0.45558 0.23401 0.24541 0.0
C5281 C 0.47222 0.24701 0.24972 0.0
C5282 C 0.44128 0.2377 0.25498 0.0
C5283 C 0.44375 0.25481 0.26907 0.0
C5284 C 0.46098 0.26701 0.27473 0.0
C5285 C 0.47502 0.26294 0.265 0.0
C5286 C 0.42315 0.2242 0.24873 0.0
C5287 C 0.46422 0.28534 0.28976 0.0
C5288 C 0.40498 0.28094 0.26948 0.0
C5289 C 0.39899 0.27702 0.28724 0.0
C5290 C 0.41937 0.27356 0.26338 0.0
C5291 C 0.42792 0.26174 0.2752 0.0
C5292 C 0.42175 0.25733 0.29293 0.0
C5293 C 0.40734 0.26508 0.29879 0.0
C5294 C 0.42551 0.27859 0.24431 0.0
C5295 C 0.43048 0.24465 0.30578 0.0
H5296 H 0.45336 0.22167 0.23361 0.0
H5297 H 0.48801 0.2728 0.26863 0.0
H5298 H 0.41662 0.22168 0.26188 0.0
H5299 H 0.41426 0.23096 0.23871 0.0
H5300 H 0.42419 0.20996 0.24061 0.0
H5301 H 0.47877 0.29163 0.29465 0.0
H5302 H 0.45777 0.29633 0.28296 0.0
H5303 H 0.4581 0.28246 0.30308 0.0
H5304 H 0.39827 0.28967 0.26016 0.0
H5305 H 0.40278 0.262 0.31253 0.0
H5306 H 0.42482 0.2651 0.23381 0.0
H5307 H 0.43973 0.28648 0.24761 0.0
H5308 H 0.41726 0.28778 0.23674 0.0
H5309 H 0.4308 0.23066 0.29668 0.0
H5310 H 0.42335 0.24158 0.31841 0.0
H5311 H 0.44461 0.2519 0.31192 0.0
C5312 C 0.57532 0.53764 0.40136 0.0
C5313 C 0.5925 0.53438 0.39926 0.0
C5314 C 0.56809 0.5344 0.4187 0.0
C5315 C 0.57829 0.52783 0.43446 0.0
C5316 C 0.59578 0.52486 0.43259 0.0
C5317 C 0.60263 0.52811 0.41504 0.0
C5318 C 0.54936 0.53765 0.42 0.0
C5319 C 0.60719 0.51807 0.44908 0.0
C5320 C 0.56368 0.53419 0.48549 0.0
C5321 C 0.55333 0.51572 0.48561 0.0
C5322 C 0.57226 0.53823 0.46919 0.0
C5323 C 0.57041 0.52347 0.45257 0.0
C5324 C 0.56047 0.50463 0.45296 0.0
C5325 C 0.55212 0.50098 0.46948 0.0
C5326 C 0.58285 0.55846 0.4695 0.0
C5327 C 0.55816 0.48845 0.43562 0.0
H5328 H 0.56732 0.54231 0.38921 0.0
H5329 H 0.61603 0.52585 0.41373 0.0
H5330 H 0.54053 0.5238 0.4214 0.0
H5331 H 0.54961 0.54816 0.43353 0.0
H5332 H 0.54334 0.54324 0.40672 0.0
H5333 H 0.62074 0.51711 0.44564 0.0
H5334 H 0.60878 0.52816 0.46327 0.0
H5335 H 0.60044 0.50355 0.45156 0.0
H5336 H 0.56467 0.54565 0.49792 0.0
H5337 H 0.54417 0.48666 0.46948 0.0
H5338 H 0.57622 0.56527 0.45755 0.0
H5339 H 0.59655 0.55782 0.46644 0.0
H5340 H 0.58401 0.56791 0.48404 0.0
H5341 H 0.55082 0.4924 0.42206 0.0
H5342 H 0.55063 0.47443 0.43855 0.0
H5343 H 0.57148 0.48636 0.43232 0.0
C5344 C 0.27734 0.81222 0.08336 0.0
C5345 C 0.2879 0.81821 0.06935 0.0
C5346 C 0.28486 0.80607 0.10065 0.0
C5347 C 0.30342 0.8057 0.10392 0.0
C5348 C 0.31409 0.81107 0.0895 0.0
C5349 C 0.30618 0.81733 0.07232 0.0
C5350 C 0.27295 0.8003 0.11559 0.0
C5351 C 0.33387 0.81067 0.09246 0.0
C5352 C 0.31871 0.8079 0.15891 0.0
C5353 C 0.31519 0.78807 0.1605 0.0
C5354 C 0.31676 0.81404 0.14019 0.0
C5355 C 0.31133 0.79997 0.12275 0.0
C5356 C 0.3099 0.78002 0.12419 0.0
C5357 C 0.31173 0.77428 0.14308 0.0
C5358 C 0.3186 0.83548 0.13925 0.0
C5359 C 0.30448 0.76459 0.1059 0.0
H5360 H 0.26312 0.81252 0.08087 0.0
H5361 H 0.31438 0.82205 0.06151 0.0
H5362 H 0.27322 0.78514 0.11798 0.0
H5363 H 0.27802 0.80982 0.13019 0.0
H5364 H 0.25877 0.80134 0.11067 0.0
H5365 H 0.33975 0.81301 0.07883 0.0
H5366 H 0.34118 0.82224 0.10486 0.0
H5367 H 0.33616 0.79658 0.09669 0.0
H5368 H 0.32188 0.81863 0.17233 0.0
H5369 H 0.30896 0.7589 0.14409 0.0
H5370 H 0.30501 0.8389 0.13619 0.0
H5371 H 0.32575 0.83956 0.12696 0.0
H5372 H 0.32591 0.84454 0.15349 0.0
H5373 H 0.28978 0.76238 0.10073 0.0
H5374 H 0.30765 0.75047 0.10909 0.0
H5375 H 0.31131 0.7691 0.09352 0.0
C5376 C 0.96488 0.54913 0.8966 0.0
C5377 C 0.96779 0.53875 0.8787 0.0
C5378 C 0.97416 0.54769 0.9158 0.0
C5379 C 0.98706 0.53561 0.91785 0.0
C5380 C 0.99005 0.52504 0.89995 0.0
C5381 C 0.98052 0.52667 0.88093 0.0
C5382 C 0.97024 0.55938 0.93404 0.0
C5383 C 1.00351 0.51195 0.90085 0.0
C5384 C 0.02454 0.54685 0.96494 0.0
C5385 C 0.01883 0.53292 0.97697 0.0
C5386 C 0.01448 0.54786 0.94609 0.0
C5387 C 0.99788 0.53467 0.93845 0.0
C5388 C 0.9919 0.52064 0.9506 0.0
C5389 C 1.00234 0.51989 0.96947 0.0
C5390 C 0.02178 0.56311 0.93419 0.0
C5391 C 0.9744 0.50624 0.9436 0.0
H5392 H 0.95548 0.55881 0.8957 0.0
H5393 H 0.983 0.51814 0.86774 0.0
H5394 H 0.9663 0.54967 0.94487 0.0
H5395 H 0.98255 0.57001 0.94157 0.0
H5396 H 0.95935 0.5674 0.93033 0.0
H5397 H 1.00426 0.5044 0.88586 0.0
H5398 H 0.01705 0.52059 0.90767 0.0
H5399 H 0.99991 0.50087 0.91049 0.0
H5400 H 0.03717 0.55707 0.97025 0.0
H5401 H 0.99761 0.50895 0.97828 0.0
H5402 H 0.01195 0.57254 0.93116 0.0
H5403 H 0.02383 0.55603 0.91953 0.0
H5404 H 0.03475 0.57241 0.94202 0.0
H5405 H 0.96325 0.51406 0.94059 0.0
H5406 H 0.97124 0.49653 0.95471 0.0
H5407 H 0.975 0.49719 0.92937 0.0
C5408 C 0.2733 0.19999 0.63224 0.0
C5409 C 0.274 0.21166 0.6171 0.0
C5410 C 0.27468 0.20814 0.65235 0.0
C5411 C 0.27692 0.22853 0.65763 0.0
C5412 C 0.27775 0.24043 0.64248 0.0
C5413 C 0.27627 0.23188 0.62244 0.0
C5414 C 0.27379 0.19488 0.66798 0.0
C5415 C 0.28014 0.26222 0.64745 0.0
C5416 C 0.26449 0.24707 0.70756 0.0
C5417 C 0.28129 0.25203 0.72015 0.0
C5418 C 0.26291 0.23972 0.68716 0.0
C5419 C 0.27848 0.2373 0.67904 0.0
C5420 C 0.29551 0.24263 0.69158 0.0
C5421 C 0.2967 0.24986 0.71192 0.0
C5422 C 0.24449 0.23417 0.67437 0.0
C5423 C 0.31249 0.24043 0.68357 0.0
H5424 H 0.27189 0.18441 0.62841 0.0
H5425 H 0.27665 0.24105 0.61091 0.0
H5426 H 0.28639 0.19877 0.67909 0.0
H5427 H 0.26259 0.19676 0.67614 0.0
H5428 H 0.27181 0.17932 0.66143 0.0
H5429 H 0.28067 0.26948 0.63401 0.0
H5430 H 0.26888 0.26593 0.65465 0.0
H5431 H 0.29272 0.26821 0.65828 0.0
H5432 H 0.25248 0.24864 0.71368 0.0
H5433 H 0.30979 0.25372 0.72141 0.0
H5434 H 0.24141 0.21837 0.66858 0.0
H5435 H 0.24417 0.24193 0.66126 0.0
H5436 H 0.23377 0.23756 0.68272 0.0
H5437 H 0.31196 0.22487 0.67814 0.0
H5438 H 0.32475 0.24601 0.69503 0.0
H5439 H 0.31363 0.24833 0.67065 0.0
C5440 C 0.60171 0.53548 0.18503 0.0
C5441 C 0.59034 0.53089 0.19888 0.0
C5442 C 0.59488 0.53403 0.16462 0.0
C5443 C 0.57614 0.52816 0.15775 0.0
C5444 C 0.56456 0.52347 0.17157 0.0
C5445 C 0.57179 0.52478 0.1919 0.0
C5446 C 0.60774 0.53908 0.15042 0.0
C5447 C 0.54449 0.51728 0.1649 0.0
C5448 C 0.55793 0.5443 0.10922 0.0
C5449 C 0.55559 0.52733 0.09529 0.0
C5450 C 0.56431 0.54464 0.12957 0.0
C5451 C 0.56868 0.52766 0.13625 0.0
C5452 C 0.56635 0.51047 0.1223 0.0
C5453 C 0.55975 0.51048 0.10203 0.0
C5454 C 0.5664 0.56323 0.14394 0.0
C5455 C 0.57104 0.49211 0.12872 0.0
H5456 H 0.61601 0.54058 0.19017 0.0
H5457 H 0.56286 0.52092 0.20231 0.0
H5458 H 0.60589 0.52685 0.13799 0.0
H5459 H 0.60485 0.5519 0.14373 0.0
H5460 H 0.62201 0.54241 0.15792 0.0
H5461 H 0.53732 0.51388 0.17741 0.0
H5462 H 0.53919 0.529 0.15818 0.0
H5463 H 0.54137 0.50425 0.1532 0.0
H5464 H 0.55464 0.55737 0.10426 0.0
H5465 H 0.55804 0.49729 0.09143 0.0
H5466 H 0.58069 0.56836 0.15104 0.0
H5467 H 0.55852 0.56054 0.15606 0.0
H5468 H 0.56188 0.57499 0.1365 0.0
H5469 H 0.58551 0.49482 0.13527 0.0
H5470 H 0.56818 0.47987 0.11612 0.0
H5471 H 0.56333 0.48768 0.14049 0.0
C5472 C 0.2166 0.79312 0.87455 0.0
C5473 C 0.22133 0.79068 0.89447 0.0
C5474 C 0.22488 0.78489 0.85958 0.0
C5475 C 0.23822 0.77411 0.8648 0.0
C5476 C 0.24159 0.76986 0.88444 0.0
C5477 C 0.23298 0.7781 0.89904 0.0
C5478 C 0.22066 0.7894 0.83865 0.0
C5479 C 0.25573 0.75848 0.89062 0.0
C5480 C 0.25849 0.75065 0.82299 0.0
C5481 C 0.27294 0.7656 0.82222 0.0
C5482 C 0.24721 0.7529 0.83717 0.0
C5483 C 0.25071 0.77042 0.85082 0.0
C5484 C 0.2659 0.7851 0.85065 0.0
C5485 C 0.27678 0.78252 0.83621 0.0
C5486 C 0.23106 0.73704 0.83682 0.0
C5487 C 0.27027 0.80389 0.86518 0.0
H5488 H 0.20736 0.80256 0.8709 0.0
H5489 H 0.23673 0.77611 0.9144 0.0
H5490 H 0.23178 0.80064 0.83595 0.0
H5491 H 0.21947 0.77629 0.82745 0.0
H5492 H 0.208 0.79495 0.83625 0.0
H5493 H 0.25433 0.75335 0.90511 0.0
H5494 H 0.25506 0.74574 0.87913 0.0
H5495 H 0.26924 0.76792 0.89224 0.0
H5496 H 0.25547 0.73768 0.81185 0.0
H5497 H 0.28811 0.79389 0.83558 0.0
H5498 H 0.21864 0.74209 0.83136 0.0
H5499 H 0.23017 0.73369 0.85208 0.0
H5500 H 0.23145 0.72348 0.82694 0.0
H5501 H 0.25944 0.81218 0.86244 0.0
H5502 H 0.2832 0.81323 0.86383 0.0
H5503 H 0.27103 0.80082 0.88074 0.0
C5504 C 0.96877 0.51677 0.66636 0.0
C5505 C 0.96105 0.53297 0.67192 0.0
C5506 C 0.97755 0.51492 0.6493 0.0
C5507 C 0.97916 0.52958 0.63678 0.0
C5508 C 0.97149 0.54599 0.64223 0.0
C5509 C 0.96269 0.54745 0.65934 0.0
C5510 C 0.98528 0.49707 0.64471 0.0
C5511 C 0.97257 0.56222 0.62987 0.0
C5512 C 0.01689 0.53349 0.60337 0.0
C5513 C 1.00787 0.5246 0.58401 0.0
C5514 C 1.00789 0.5352 0.62025 0.0
C5515 C 0.98904 0.52792 0.61842 0.0
C5516 C 0.97983 0.51896 0.5989 0.0
C5517 C 0.98918 0.51744 0.58224 0.0
C5518 C 0.01871 0.54496 0.64024 0.0
C5519 C 0.95989 0.51088 0.59555 0.0
H5520 H 0.96826 0.50539 0.67556 0.0
H5521 H 0.95684 0.56003 0.66261 0.0
H5522 H 0.97941 0.48958 0.62933 0.0
H5523 H 1.00001 0.50136 0.64532 0.0
H5524 H 0.98271 0.48664 0.65531 0.0
H5525 H 0.96615 0.57408 0.63579 0.0
H5526 H 0.98684 0.56843 0.62946 0.0
H5527 H 0.96591 0.55645 0.61426 0.0
H5528 H 0.03121 0.53926 0.60542 0.0
H5529 H 0.9817 0.5106 0.56767 0.0
H5530 H 0.01764 0.53474 0.65124 0.0
H5531 H 0.01322 0.55764 0.6459 0.0
H5532 H 0.03314 0.55 0.6395 0.0
H5533 H 0.957 0.49937 0.60493 0.0
H5534 H 0.95443 0.50464 0.57968 0.0
H5535 H 0.9527 0.52249 0.60017 0.0
C5536 C 0.25627 0.21909 0.41079 0.0
C5537 C 0.26966 0.20925 0.41797 0.0
C5538 C 0.25734 0.22857 0.39391 0.0
C5539 C 0.27239 0.22874 0.38405 0.0
C5540 C 0.28593 0.21886 0.39113 0.0
C5541 C 0.28429 0.20909 0.4077 0.0
C5542 C 0.24241 0.23856 0.38672 0.0
C5543 C 0.30234 0.21883 0.38133 0.0
C5544 C 0.27138 0.24033 0.33072 0.0
C5545 C 0.27992 0.26001 0.33407 0.0
C5546 C 0.2683 0.23015 0.34677 0.0
C5547 C 0.2743 0.23969 0.36674 0.0
C5548 C 0.28276 0.25964 0.37016 0.0
C5549 C 0.28526 0.26956 0.35385 0.0
C5550 C 0.25886 0.20907 0.34234 0.0
C5551 C 0.28971 0.27037 0.39109 0.0
H5552 H 0.24499 0.21973 0.41853 0.0
H5553 H 0.29456 0.20122 0.41251 0.0
H5554 H 0.24763 0.25445 0.38842 0.0
H5555 H 0.23726 0.23334 0.3706 0.0
H5556 H 0.23103 0.23601 0.39508 0.0
H5557 H 0.31183 0.21074 0.38876 0.0
H5558 H 0.29828 0.21214 0.36542 0.0
H5559 H 0.30953 0.23399 0.38171 0.0
H5560 H 0.26725 0.23281 0.31552 0.0
H5561 H 0.29195 0.28474 0.35663 0.0
H5562 H 0.24739 0.2067 0.35055 0.0
H5563 H 0.26824 0.19982 0.34755 0.0
H5564 H 0.25378 0.20417 0.32614 0.0
H5565 H 0.27865 0.2696 0.39994 0.0
H5566 H 0.29574 0.28591 0.39128 0.0
H5567 H 0.30003 0.26337 0.39864 0.0
C5568 C 0.39404 0.61715 0.50767 0.0
C5569 C 0.39632 0.61666 0.5283 0.0
C5570 C 0.40124 0.60467 0.49494 0.0
C5571 C 0.41071 0.59132 0.50309 0.0
C5572 C 0.4133 0.59103 0.52394 0.0
C5573 C 0.40615 0.60377 0.53628 0.0
C5574 C 0.39864 0.60564 0.47286 0.0
C5575 C 0.42353 0.57714 0.53328 0.0
C5576 C 0.41723 0.54345 0.47844 0.0
C5577 C 0.436 0.54735 0.48005 0.0
C5578 C 0.40817 0.55831 0.48369 0.0
C5579 C 0.41814 0.57748 0.4902 0.0
C5580 C 0.43654 0.58195 0.48863 0.0
C5581 C 0.44535 0.56678 0.4838 0.0
C5582 C 0.38844 0.55298 0.48485 0.0
C5583 C 0.44755 0.60232 0.49467 0.0
H5584 H 0.38627 0.62698 0.50142 0.0
H5585 H 0.40818 0.6036 0.55225 0.0
H5586 H 0.41183 0.60785 0.46772 0.0
H5587 H 0.39052 0.59168 0.46443 0.0
H5588 H 0.39178 0.61756 0.46906 0.0
H5589 H 0.42392 0.57849 0.54968 0.0
H5590 H 0.41724 0.56193 0.52649 0.0
H5591 H 0.43755 0.57994 0.53038 0.0
H5592 H 0.40983 0.52854 0.47486 0.0
H5593 H 0.45984 0.57011 0.48504 0.0
H5594 H 0.38124 0.56432 0.48012 0.0
H5595 H 0.38693 0.55181 0.50056 0.0
H5596 H 0.38194 0.53882 0.47545 0.0
H5597 H 0.43933 0.6135 0.4926 0.0
H5598 H 0.4586 0.60475 0.48588 0.0
H5599 H 0.45366 0.60435 0.51068 0.0
C5600 C 0.90549 0.97312 0.54967 0.0
C5601 C 0.90338 0.95472 0.55582 0.0
C5602 C 0.92248 0.98353 0.54774 0.0
C5603 C 0.938 0.97567 0.55244 0.0
C5604 C 0.93608 0.95725 0.55887 0.0
C5605 C 0.91886 0.94697 0.56031 0.0
C5606 C 0.92381 1.00302 0.54068 0.0
C5607 C 0.95224 0.94839 0.56429 0.0
C5608 C 0.98007 0.99606 0.5316 0.0
C5609 C 0.98966 0.01021 0.54754 0.0
C5610 C 0.96338 0.98454 0.53304 0.0
C5611 C 0.95624 0.98696 0.55099 0.0
C5612 C 0.96624 1.00077 0.56735 0.0
C5613 C 0.9827 0.01231 0.56537 0.0
C5614 C 0.95314 0.9702 0.51513 0.0
C5615 C 0.95942 1.00362 0.5869 0.0
H5616 H 0.89386 0.97959 0.5465 0.0
H5617 H 0.91757 0.93269 0.56474 0.0
H5618 H 0.93219 0.01456 0.55248 0.0
H5619 H 0.93049 1.00303 0.52734 0.0
H5620 H 0.91044 1.0068 0.53682 0.0
H5621 H 0.94857 0.9341 0.56934 0.0
H5622 H 0.95912 0.94639 0.55124 0.0
H5623 H 0.96203 0.95835 0.57637 0.0
H5624 H 0.98534 0.99438 0.51776 0.0
H5625 H 0.9901 0.02314 0.57779 0.0
H5626 H 0.94018 0.97434 0.50998 0.0
H5627 H 0.94994 0.95546 0.51924 0.0
H5628 H 0.96076 0.96955 0.50253 0.0
H5629 H 0.94678 1.00917 0.58465 0.0
H5630 H 0.9693 0.01401 0.59858 0.0
H5631 H 0.95628 0.98951 0.5924 0.0
C5632 C 0.86053 0.08192 0.24744 0.0
C5633 C 0.87611 0.08334 0.26147 0.0
C5634 C 0.85101 0.09708 0.24743 0.0
C5635 C 0.85731 0.11415 0.2617 0.0
C5636 C 0.87302 0.11567 0.2759 0.0
C5637 C 0.8822 0.10021 0.27566 0.0
C5638 C 0.83421 0.09484 0.23218 0.0
C5639 C 0.88025 0.13369 0.29122 0.0
C5640 C 0.84213 0.16018 0.24957 0.0
C5641 C 0.82844 0.16103 0.261 0.0
C5642 C 0.85176 0.14512 0.24981 0.0
C5643 C 0.8475 0.13046 0.26166 0.0
C5644 C 0.83374 0.13128 0.2733 0.0
C5645 C 0.82442 0.14659 0.27288 0.0
C5646 C 0.86645 0.14485 0.23736 0.0
C5647 C 0.82872 0.11584 0.28599 0.0
H5648 H 0.85567 0.06882 0.23658 0.0
H5649 H 0.89435 0.10148 0.28638 0.0
H5650 H 0.82262 0.09637 0.23983 0.0
H5651 H 0.83585 0.1065 0.22278 0.0
H5652 H 0.83097 0.08054 0.22229 0.0
H5653 H 0.8926 0.13255 0.30127 0.0
H5654 H 0.88336 0.14654 0.28362 0.0
H5655 H 0.86993 0.13636 0.30045 0.0
H5656 H 0.84541 0.17143 0.24054 0.0
H5657 H 0.81371 0.14705 0.28155 0.0
H5658 H 0.86323 0.13135 0.22627 0.0
H5659 H 0.87935 0.14484 0.24702 0.0
H5660 H 0.86834 0.15754 0.22927 0.0
H5661 H 0.82422 0.10142 0.27643 0.0
H5662 H 0.81782 0.11869 0.29431 0.0
H5663 H 0.84062 0.115 0.29688 0.0
C5664 C 0.73812 0.08791 0.04533 0.0
C5665 C 0.75031 0.0915 0.06336 0.0
C5666 C 0.72009 0.07905 0.04439 0.0
C5667 C 0.71411 0.0738 0.06193 0.0
C5668 C 0.72663 0.07593 0.07976 0.0
C5669 C 0.74462 0.08476 0.08026 0.0
C5670 C 0.70718 0.07692 0.02504 0.0
C5671 C 0.72077 0.07035 0.09874 0.0
C5672 C 0.66719 0.0803 0.06759 0.0
C5673 C 0.65741 0.06111 0.06337 0.0
C5674 C 0.68564 0.08451 0.06721 0.0
C5675 C 0.69456 0.06915 0.06241 0.0
C5676 C 0.68476 0.04974 0.05792 0.0
C5677 C 0.66624 0.04593 0.05843 0.0
C5678 C 0.69559 0.10545 0.07194 0.0
C5679 C 0.69387 0.03305 0.0527 0.0
H5680 H 0.74231 0.09321 0.03222 0.0
H5681 H 0.75406 0.08718 0.09414 0.0
H5682 H 0.69793 0.06252 0.02199 0.0
H5683 H 0.69885 0.08816 0.02623 0.0
H5684 H 0.71431 0.07868 0.01216 0.0
H5685 H 0.73239 0.07012 0.11034 0.0
H5686 H 0.71317 0.08101 0.10478 0.0
H5687 H 0.71168 0.05584 0.09574 0.0
H5688 H 0.66035 0.0921 0.07105 0.0
H5689 H 0.65872 0.03106 0.0553 0.0
H5690 H 0.7018 0.10961 0.05903 0.0
H5691 H 0.7066 0.10727 0.08484 0.0
H5692 H 0.68665 0.11564 0.07553 0.0
H5693 H 0.70047 0.03523 0.03953 0.0
H5694 H 0.68429 0.01882 0.04935 0.0
H5695 H 0.70455 0.03255 0.06526 0.0
C5696 C 0.21748 0.39978 0.30772 0.0
C5697 C 0.21319 0.4087 0.29066 0.0
C5698 C 0.22598 0.38323 0.30729 0.0
C5699 C 0.23084 0.37459 0.2894 0.0
C5700 C 0.22656 0.38339 0.27212 0.0
C5701 C 0.21799 0.39989 0.27293 0.0
C5702 C 0.22983 0.37492 0.32629 0.0
C5703 C 0.231 0.37522 0.25247 0.0
C5704 C 0.2684 0.34295 0.29191 0.0
C5705 C 0.25889 0.32338 0.28763 0.0
C5706 C 0.25964 0.35929 0.29255 0.0
C5707 C 0.24049 0.35677 0.28879 0.0
C5708 C 0.23079 0.33703 0.28441 0.0
C5709 C 0.2399 0.32093 0.28396 0.0
C5710 C 0.27109 0.3795 0.29724 0.0
C5711 C 0.21053 0.33273 0.28033 0.0
H5712 H 0.21444 0.40587 0.32182 0.0
H5713 H 0.21484 0.40569 0.25927 0.0
H5714 H 0.22298 0.35941 0.32404 0.0
H5715 H 0.24447 0.37548 0.3302 0.0
H5716 H 0.22531 0.38285 0.33904 0.0
H5717 H 0.227 0.38334 0.24027 0.0
H5718 H 0.24566 0.37565 0.25397 0.0
H5719 H 0.22407 0.35976 0.24818 0.0
H5720 H 0.28295 0.34563 0.29476 0.0
H5721 H 0.23198 0.30625 0.28062 0.0
H5722 H 0.26769 0.38755 0.31067 0.0
H5723 H 0.26823 0.38759 0.28468 0.0
H5724 H 0.28569 0.3794 0.29993 0.0
H5725 H 0.20547 0.33578 0.29454 0.0
H5726 H 0.20491 0.31731 0.27369 0.0
H5727 H 0.20542 0.3422 0.27007 0.0
C5728 C 0.22253 0.45443 0.03373 0.0
C5729 C 0.22576 0.44223 0.04796 0.0
C5730 C 0.20701 0.46253 0.03195 0.0
C5731 C 0.19427 0.45845 0.04472 0.0
C5732 C 0.19746 0.44623 0.05917 0.0
C5733 C 0.21308 0.43829 0.0606 0.0
C5734 C 0.20425 0.4755 0.01636 0.0
C5735 C 0.18428 0.44144 0.07309 0.0
C5736 C 0.16217 0.49331 0.05176 0.0
C5737 C 0.1464 0.48355 0.03869 0.0
C5738 C 0.17771 0.48526 0.05401 0.0
C5739 C 0.17764 0.46695 0.04292 0.0
C5740 C 0.16173 0.4569 0.02987 0.0
C5741 C 0.14637 0.46527 0.02793 0.0
C5742 C 0.19432 0.49652 0.06809 0.0
C5743 C 0.16097 0.43733 0.01779 0.0
H5744 H 0.23228 0.45786 0.02405 0.0
H5745 H 0.2152 0.42869 0.07146 0.0
H5746 H 0.19142 0.46938 1.00597 0.0
H5747 H 0.20323 0.49008 0.02361 0.0
H5748 H 0.21535 0.47725 0.00754 0.0
H5749 H 0.18876 0.4319 0.08366 0.0
H5750 H 0.18242 0.45501 0.0818 0.0
H5751 H 0.17097 0.43405 0.06431 0.0
H5752 H 0.16254 0.50754 0.05994 0.0
H5753 H 0.13425 0.45741 0.018 0.0
H5754 H 0.20549 0.5 0.05965 0.0
H5755 H 0.19869 0.48756 0.0793 0.0
H5756 H 0.19209 0.51031 0.07606 0.0
H5757 H 0.17116 0.43863 0.0078 0.0
H5758 H 0.14754 0.43122 0.00854 0.0
H5759 H 0.16428 0.4269 0.02786 0.0
C5760 C 0.85395 0.90658 0.27148 0.0
C5761 C 0.86828 0.9052 0.26113 0.0
C5762 C 0.84116 0.89003 0.27262 0.0
C5763 C 0.84283 0.87155 0.2634 0.0
C5764 C 0.85719 0.87005 0.25277 0.0
C5765 C 0.86967 0.88694 0.25161 0.0
C5766 C 0.82595 0.89233 0.28389 0.0
C5767 C 0.85959 0.85057 0.24302 0.0
C5768 C 0.81986 0.82863 0.28501 0.0
C5769 C 0.804 0.82185 0.2711 0.0
C5770 C 0.83289 0.84432 0.2823 0.0
C5771 C 0.82979 0.85381 0.26548 0.0
C5772 C 0.81378 0.84699 0.25135 0.0
C5773 C 0.80109 0.83103 0.25429 0.0
C5774 C 0.84982 0.85098 0.29765 0.0
C5775 C 0.80988 0.85681 0.23334 0.0
H5776 H 0.85269 0.9207 0.27864 0.0
H5777 H 0.88079 0.8858 0.24371 0.0
H5778 H 0.81284 0.88601 0.27409 0.0
H5779 H 0.82678 0.88429 0.29678 0.0
H5780 H 0.82616 0.90779 0.28953 0.0
H5781 H 0.87122 0.8519 0.23495 0.0
H5782 H 0.86166 0.84107 0.2545 0.0
H5783 H 0.84728 0.8432 0.23232 0.0
H5784 H 0.82197 0.82188 0.29827 0.0
H5785 H 0.78882 0.82584 0.24352 0.0
H5786 H 0.85023 0.86586 0.30528 0.0
H5787 H 0.86182 0.85162 0.29026 0.0
H5788 H 0.85075 0.84122 0.30909 0.0
H5789 H 0.80895 0.87208 0.23826 0.0
H5790 H 0.79714 0.84932 0.22338 0.0
H5791 H 0.82103 0.85723 0.22463 0.0
C5792 C 0.73663 0.11831 0.80004 0.0
C5793 C 0.71776 0.11228 0.79783 0.0
C5794 C 0.74511 0.1378 0.79908 0.0
C5795 C 0.73476 0.15224 0.79573 0.0
C5796 C 0.71574 0.14631 0.7935 0.0
C5797 C 0.70761 0.12675 0.79456 0.0
C5798 C 0.76533 0.14296 0.8017 0.0
C5799 C 0.70383 0.1607 0.78976 0.0
C5800 C 0.75698 0.20752 0.80956 0.0
C5801 C 0.76036 0.21301 0.79111 0.0
C5802 C 0.74885 0.18811 0.81129 0.0
C5803 C 0.7437 0.17329 0.79421 0.0
C5804 C 0.74706 0.17878 0.77558 0.0
C5805 C 0.75524 0.19825 0.77428 0.0
C5806 C 0.74576 0.18345 0.83156 0.0
C5807 C 0.74195 0.16399 0.7568 0.0
H5808 H 0.74497 0.10782 0.80285 0.0
H5809 H 0.6931 0.12276 0.79243 0.0
H5810 H 0.76946 0.14835 0.78818 0.0
H5811 H 0.77063 0.15488 0.81446 0.0
H5812 H 0.77164 0.13038 0.80438 0.0
H5813 H 0.68936 0.15418 0.78867 0.0
H5814 H 0.70754 0.1733 0.80199 0.0
H5815 H 0.70584 0.16636 0.77569 0.0
H5816 H 0.76072 0.21845 0.8228 0.0
H5817 H 0.75761 0.20191 0.75986 0.0
H5818 H 0.75289 0.17177 0.83547 0.0
H5819 H 0.73123 0.17791 0.83125 0.0
H5820 H 0.75049 0.1963 0.84345 0.0
H5821 H 0.74897 0.15176 0.75848 0.0
H5822 H 0.74533 0.1703 0.74343 0.0
H5823 H 0.7273 0.15785 0.75423 0.0
loop_
_geom_bond_atom_site_label_1
_geom_bond_atom_site_label_2
_geom_bond_distance
_geom_bond_site_symmetry_2
_ccdc_geom_bond_type
Li0 N17 1.990 . S
Li0 O60 1.956 1_655 S
Li0 O61 1.970 . S
Li0 O62 1.961 . S
Li1 N25 1.990 . S
Li1 O60 1.970 . S
Li1 O61 1.956 1_455 S
Li1 O63 1.961 . S
Li2 N47 1.990 . S
Li2 O60 1.961 . S
Li2 O62 1.956 1_455 S
Li2 O63 1.970 . S
Li3 N53 1.990 . S
Li3 O61 1.961 1_455 S
Li3 O62 1.970 1_455 S
Li3 O63 1.956 . S
C4 C6 1.330 1_455 S
C4 C7 1.356 . S
C4 O60 1.325 . S
N5 C8 1.304 1_455 S
N5 C9 1.279 . S
C6 C4 1.330 1_655 S
C6 C8 1.353 . S
C6 H64 0.947 . S
C7 C4 1.356 . S
C7 C9 1.358 . S
C7 H65 0.930 . S
C8 N5 1.304 1_655 S
C8 C6 1.353 . S
C8 H66 0.944 . S
C9 N5 1.279 . S
C9 C7 1.358 . S
C9 H67 0.930 . S
C10 C13 1.348 . S
C10 C14 1.356 . S
C10 O61 1.325 . S
C11 N12 1.279 . S
C11 C14 1.358 . S
C11 H68 0.930 . S
N12 C11 1.279 . S
N12 C15 1.314 . S
C13 C10 1.348 . S
C13 C15 1.353 . S
C13 H69 0.929 . S
C14 C10 1.356 . S
C14 C11 1.358 . S
C14 H70 0.930 . S
C15 N12 1.314 . S
C15 C13 1.353 . S
C15 H71 0.930 . S
C16 N17 1.314 . S
C16 C21 1.353 . S
C16 H22 0.930 . S
N17 Li0 1.990 . S
N17 C16 1.314 . S
N17 C19 1.279 . S
C18 C19 1.358 . S
C18 C20 1.356 . S
C18 H72 0.930 . S
C19 N17 1.279 . S
C19 C18 1.358 . S
C19 H23 0.930 . S
C20 C18 1.356 . S
C20 C21 1.348 . S
C21 C16 1.353 . S
C21 C20 1.348 . S
C21 H73 0.929 . S
H22 C16 0.930 . S
H23 C19 0.930 . S
C24 N25 1.314 . S
C24 C26 1.353 . S
C24 H30 0.930 . S
N25 Li1 1.990 . S
N25 C24 1.314 . S
N25 C28 1.279 1_455 S
C26 C24 1.353 . S
C26 C29 1.348 . S
C26 H74 0.929 . S
C27 C28 1.358 . S
C27 C29 1.356 1_655 S
C27 H75 0.930 . S
C28 N25 1.279 1_655 S
C28 C27 1.358 . S
C28 H31 0.930 . S
C29 C26 1.348 . S
C29 C27 1.356 1_455 S
H30 C24 0.930 . S
H31 C28 0.930 . S
C32 C34 1.368 . S
C32 C35 1.356 . S
C32 O62 1.325 . S
N33 C36 1.314 . S
N33 C37 1.279 . S
C34 C32 1.368 . S
C34 C36 1.348 . S
C34 H76 0.918 1_655 S
C35 C32 1.356 . S
C35 C37 1.358 . S
C35 H77 0.930 . S
C36 N33 1.314 . S
C36 C34 1.348 . S
C36 H78 0.930 . S
C37 N33 1.279 . S
C37 C35 1.358 . S
C37 H79 0.930 . S
C38 C39 1.348 . S
C38 C40 1.356 . S
C38 O63 1.325 . S
C39 C38 1.348 . S
C39 C41 1.353 . S
C39 H80 0.929 . S
C40 C38 1.356 . S
C40 C42 1.358 . S
C40 H81 0.930 . S
C41 C39 1.353 . S
C41 N43 1.314 . S
C41 H82 0.930 . S
C42 C40 1.358 . S
C42 N43 1.279 . S
C42 H83 0.930 . S
N43 C41 1.314 . S
N43 C42 1.279 . S
C44 C46 1.353 . S
C44 N47 1.314 . S
C44 H50 0.930 . S
C45 N47 1.279 . S
C45 C48 1.358 . S
C45 H51 0.930 . S
C46 C44 1.353 . S
C46 C49 1.348 . S
C46 H84 0.929 . S
N47 Li2 1.990 . S
N47 C44 1.314 . S
N47 C45 1.279 . S
C48 C45 1.358 . S
C48 C49 1.356 . S
C48 H85 0.930 . S
C49 C46 1.348 . S
C49 C48 1.356 . S
H50 C44 0.930 . S
H51 C45 0.930 . S
C52 N53 1.314 1_655 S
C52 C54 1.353 . S
C52 H58 0.930 . S
N53 Li3 1.990 . S
N53 C52 1.314 1_455 S
N53 C56 1.279 . S
C54 C52 1.353 . S
C54 C57 1.362 . S
C54 H86 0.929 . S
C55 C56 1.358 . S
C55 C57 1.343 1_455 S
C55 H87 0.930 . S
C56 N53 1.279 . S
C56 C55 1.358 . S
C56 H59 0.930 . S
C57 C54 1.362 . S
C57 C55 1.343 1_655 S
H58 C52 0.930 . S
H59 C56 0.930 . S
O60 Li0 1.956 1_455 S
O60 Li1 1.970 . S
O60 Li2 1.961 . S
O60 C4 1.325 . S
O61 Li0 1.970 . S
O61 Li1 1.956 1_655 S
O61 Li3 1.961 1_655 S
O61 C10 1.325 . S
O62 Li0 1.961 . S
O62 Li2 1.956 1_655 S
O62 Li3 1.970 1_655 S
O62 C32 1.325 . S
O63 Li1 1.961 . S
O63 Li2 1.970 . S
O63 Li3 1.956 . S
O63 C38 1.325 . S
H64 C6 0.947 . S
H65 C7 0.930 . S
H66 C8 0.944 . S
H67 C9 0.930 . S
H68 C11 0.930 . S
H69 C13 0.929 . S
H70 C14 0.930 . S
H71 C15 0.930 . S
H72 C18 0.930 . S
H73 C21 0.929 . S
H74 C26 0.929 . S
H75 C27 0.930 . S
H76 C34 0.918 1_455 S
H77 C35 0.930 . S
H78 C36 0.930 . S
H79 C37 0.930 . S
H80 C39 0.929 . S
H81 C40 0.930 . S
H82 C41 0.930 . S
H83 C42 0.930 . S
H84 C46 0.929 . S
H85 C48 0.930 . S
H86 C54 0.929 . S
H87 C55 0.930 . S
Li88 N105 1.990 . S
Li88 O148 1.956 . S
Li88 O149 1.970 . S
Li88 O150 1.961 . S
Li89 N113 1.990 . S
Li89 O148 1.970 . S
Li89 O149 1.956 . S
Li89 O151 1.961 . S
Li90 N135 1.990 . S
Li90 O148 1.961 . S
Li90 O150 1.956 . S
Li90 O151 1.970 . S
Li91 N141 1.990 . S
Li91 O149 1.961 . S
Li91 O150 1.970 . S
Li91 O151 1.956 . S
C92 C94 1.348 . S
C92 C95 1.356 . S
C92 O148 1.325 . S
N93 C96 1.314 . S
N93 C97 1.279 . S
C94 C92 1.348 . S
C94 C96 1.353 . S
C94 H152 0.929 . S
C95 C92 1.356 . S
C95 C97 1.358 . S
C95 H153 0.930 . S
C96 N93 1.314 . S
C96 C94 1.353 . S
C96 H154 0.930 . S
C97 N93 1.279 . S
C97 C95 1.358 . S
C97 H155 0.930 . S
C98 C101 1.348 . S
C98 C102 1.356 . S
C98 O149 1.325 . S
C99 N100 1.279 . S
C99 C102 1.358 . S
C99 H156 0.930 . S
N100 C99 1.279 . S
N100 C103 1.314 . S
C101 C98 1.348 . S
C101 C103 1.353 . S
C101 H157 0.929 . S
C102 C98 1.356 . S
C102 C99 1.358 . S
C102 H158 0.930 . S
C103 N100 1.314 . S
C103 C101 1.353 . S
C103 H159 0.930 . S
C104 N105 1.314 . S
C104 C109 1.353 . S
C104 H110 0.930 . S
N105 Li88 1.990 . S
N105 C104 1.314 . S
N105 C107 1.279 . S
C106 C107 1.358 . S
C106 C108 1.356 . S
C106 H160 0.930 . S
C107 N105 1.279 . S
C107 C106 1.358 . S
C107 H111 0.930 . S
C108 C106 1.356 . S
C108 C109 1.348 . S
C109 C104 1.353 . S
C109 C108 1.348 . S
C109 H161 0.929 . S
H110 C104 0.930 . S
H111 C107 0.930 . S
C112 N113 1.314 . S
C112 C114 1.353 . S
C112 H118 0.930 . S
N113 Li89 1.990 . S
N113 C112 1.314 . S
N113 C116 1.279 . S
C114 C112 1.353 . S
C114 C117 1.348 . S
C114 H162 0.929 . S
C115 C116 1.358 . S
C115 C117 1.356 . S
C115 H163 0.930 . S
C116 N113 1.279 . S
C116 C115 1.358 . S
C116 H119 0.930 . S
C117 C114 1.348 . S
C117 C115 1.356 . S
H118 C112 0.930 . S
H119 C116 0.930 . S
C120 C122 1.348 . S
C120 C123 1.356 . S
C120 O150 1.325 . S
N121 C124 1.314 . S
N121 C125 1.279 1_655 S
C122 C120 1.348 . S
C122 C124 1.353 1_455 S
C122 H164 0.929 . S
C123 C120 1.356 . S
C123 C125 1.358 . S
C123 H165 0.930 . S
C124 N121 1.314 . S
C124 C122 1.353 1_655 S
C124 H166 0.930 . S
C125 N121 1.279 1_455 S
C125 C123 1.358 . S
C125 H167 0.930 . S
C126 C127 1.348 . S
C126 C128 1.356 . S
C126 O151 1.325 . S
C127 C126 1.348 . S
C127 C129 1.353 . S
C127 H168 0.929 . S
C128 C126 1.356 . S
C128 C130 1.358 . S
C128 H169 0.930 . S
C129 C127 1.353 . S
C129 N131 1.314 . S
C129 H170 0.930 . S
C130 C128 1.358 . S
C130 N131 1.279 . S
C130 H171 0.930 . S
N131 C129 1.314 . S
N131 C130 1.279 . S
C132 C134 1.353 . S
C132 N135 1.314 . S
C132 H138 0.930 . S
C133 N135 1.279 . S
C133 C136 1.358 . S
C133 H139 0.930 . S
C134 C132 1.353 . S
C134 C137 1.348 . S
C134 H172 0.929 . S
N135 Li90 1.990 . S
N135 C132 1.314 . S
N135 C133 1.279 . S
C136 C133 1.358 . S
C136 C137 1.356 . S
C136 H173 0.930 . S
C137 C134 1.348 . S
C137 C136 1.356 . S
H138 C132 0.930 . S
H139 C133 0.930 . S
C140 N141 1.314 . S
C140 C142 1.328 1_455 S
C140 H146 0.930 . S
N141 Li91 1.990 . S
N141 C140 1.314 . S
N141 C144 1.279 . S
C142 C140 1.328 1_655 S
C142 C145 1.357 . S
C142 H174 0.945 . S
C143 C144 1.417 . S
C143 C145 1.312 1_455 S
C143 H175 0.919 1_455 S
C144 N141 1.279 . S
C144 C143 1.417 . S
C144 H147 0.930 . S
C145 C142 1.357 . S
C145 C143 1.312 1_655 S
H146 C140 0.930 . S
H147 C144 0.930 . S
O148 Li88 1.956 . S
O148 Li89 1.970 . S
O148 Li90 1.961 . S
O148 C92 1.325 . S
O149 Li88 1.970 . S
O149 Li89 1.956 . S
O149 Li91 1.961 . S
O149 C98 1.325 . S
O150 Li88 1.961 . S
O150 Li90 1.956 . S
O150 Li91 1.970 . S
O150 C120 1.325 . S
O151 Li89 1.961 . S
O151 Li90 1.970 . S
O151 Li91 1.956 . S
O151 C126 1.325 . S
H152 C94 0.929 . S
H153 C95 0.930 . S
H154 C96 0.930 . S
H155 C97 0.930 . S
H156 C99 0.930 . S
H157 C101 0.929 . S
H158 C102 0.930 . S
H159 C103 0.930 . S
H160 C106 0.930 . S
H161 C109 0.929 . S
H162 C114 0.929 . S
H163 C115 0.930 . S
H164 C122 0.929 . S
H165 C123 0.930 . S
H166 C124 0.930 . S
H167 C125 0.930 . S
H168 C127 0.929 . S
H169 C128 0.930 . S
H170 C129 0.930 . S
H171 C130 0.930 . S
H172 C134 0.929 . S
H173 C136 0.930 . S
H174 C142 0.945 . S
H175 C143 0.919 1_655 S
Li176 N193 1.990 . S
Li176 O236 1.956 . S
Li176 O237 1.970 . S
Li176 O238 1.961 . S
Li177 N201 1.990 . S
Li177 O236 1.970 . S
Li177 O237 1.956 . S
Li177 O239 1.961 . S
Li178 N223 1.990 . S
Li178 O236 1.961 . S
Li178 O238 1.956 . S
Li178 O239 1.970 . S
Li179 N229 1.990 . S
Li179 O237 1.961 . S
Li179 O238 1.970 . S
Li179 O239 1.956 . S
C180 C182 1.348 . S
C180 C183 1.356 . S
C180 O236 1.325 . S
N181 C184 1.314 . S
N181 C185 1.279 . S
C182 C180 1.348 . S
C182 C184 1.353 . S
C182 H240 0.929 . S
C183 C180 1.356 . S
C183 C185 1.358 . S
C183 H241 0.930 . S
C184 N181 1.314 . S
C184 C182 1.353 . S
C184 H242 0.930 . S
C185 N181 1.279 . S
C185 C183 1.358 . S
C185 H243 0.930 . S
C186 C189 1.348 . S
C186 C190 1.356 . S
C186 O237 1.325 . S
C187 N188 1.279 . S
C187 C190 1.358 . S
C187 H244 0.930 . S
N188 C187 1.279 . S
N188 C191 1.314 . S
C189 C186 1.348 . S
C189 C191 1.353 . S
C189 H245 0.929 . S
C190 C186 1.356 . S
C190 C187 1.358 . S
C190 H246 0.930 . S
C191 N188 1.314 . S
C191 C189 1.353 . S
C191 H247 0.930 . S
C192 N193 1.314 . S
C192 C197 1.353 . S
C192 H198 0.930 . S
N193 Li176 1.990 . S
N193 C192 1.314 . S
N193 C195 1.279 . S
C194 C195 1.358 . S
C194 C196 1.356 . S
C194 H248 0.930 . S
C195 N193 1.279 . S
C195 C194 1.358 . S
C195 H199 0.930 . S
C196 C194 1.356 . S
C196 C197 1.348 . S
C197 C192 1.353 . S
C197 C196 1.348 . S
C197 H249 0.929 . S
H198 C192 0.930 . S
H199 C195 0.930 . S
C200 N201 1.314 . S
C200 C202 1.353 . S
C200 H206 0.930 . S
N201 Li177 1.990 . S
N201 C200 1.314 . S
N201 C204 1.279 . S
C202 C200 1.353 . S
C202 C205 1.348 . S
C202 H250 0.929 . S
C203 C204 1.358 . S
C203 C205 1.356 . S
C203 H251 0.930 . S
C204 N201 1.279 . S
C204 C203 1.358 . S
C204 H207 0.930 . S
C205 C202 1.348 . S
C205 C203 1.356 . S
H206 C200 0.930 . S
H207 C204 0.930 . S
C208 C210 1.348 . S
C208 C211 1.356 . S
C208 O238 1.325 . S
N209 C212 1.314 . S
N209 C213 1.279 . S
C210 C208 1.348 . S
C210 C212 1.353 . S
C210 H252 0.929 . S
C211 C208 1.356 . S
C211 C213 1.358 . S
C211 H253 0.930 . S
C212 N209 1.314 . S
C212 C210 1.353 . S
C212 H254 0.930 . S
C213 N209 1.279 . S
C213 C211 1.358 . S
C213 H255 0.930 . S
C214 C215 1.348 . S
C214 C216 1.356 . S
C214 O239 1.325 . S
C215 C214 1.348 . S
C215 C217 1.353 . S
C215 H256 0.929 . S
C216 C214 1.356 . S
C216 C218 1.358 . S
C216 H257 0.930 . S
C217 C215 1.353 . S
C217 N219 1.314 . S
C217 H258 0.930 . S
C218 C216 1.358 . S
C218 N219 1.279 . S
C218 H259 0.930 . S
N219 C217 1.314 . S
N219 C218 1.279 . S
C220 C222 1.353 . S
C220 N223 1.314 . S
C220 H226 0.930 . S
C221 N223 1.279 . S
C221 C224 1.358 . S
C221 H227 0.930 . S
C222 C220 1.353 . S
C222 C225 1.348 . S
C222 H260 0.929 . S
N223 Li178 1.990 . S
N223 C220 1.314 . S
N223 C221 1.279 . S
C224 C221 1.358 . S
C224 C225 1.356 . S
C224 H261 0.930 . S
C225 C222 1.348 . S
C225 C224 1.356 . S
H226 C220 0.930 . S
H227 C221 0.930 . S
C228 N229 1.314 . S
C228 C230 1.353 . S
C228 H234 0.930 . S
N229 Li179 1.990 . S
N229 C228 1.314 . S
N229 C232 1.279 . S
C230 C228 1.353 . S
C230 C233 1.348 . S
C230 H262 0.929 . S
C231 C232 1.358 . S
C231 C233 1.356 . S
C231 H263 0.930 . S
C232 N229 1.279 . S
C232 C231 1.358 . S
C232 H235 0.930 . S
C233 C230 1.348 . S
C233 C231 1.356 . S
H234 C228 0.930 . S
H235 C232 0.930 . S
O236 Li176 1.956 . S
O236 Li177 1.970 . S
O236 Li178 1.961 . S
O236 C180 1.325 . S
O237 Li176 1.970 . S
O237 Li177 1.956 . S
O237 Li179 1.961 . S
O237 C186 1.325 . S
O238 Li176 1.961 . S
O238 Li178 1.956 . S
O238 Li179 1.970 . S
O238 C208 1.325 . S
O239 Li177 1.961 . S
O239 Li178 1.970 . S
O239 Li179 1.956 . S
O239 C214 1.325 . S
H240 C182 0.929 . S
H241 C183 0.930 . S
H242 C184 0.930 . S
H243 C185 0.930 . S
H244 C187 0.930 . S
H245 C189 0.929 . S
H246 C190 0.930 . S
H247 C191 0.930 . S
H248 C194 0.930 . S
H249 C197 0.929 . S
H250 C202 0.929 . S
H251 C203 0.930 . S
H252 C210 0.929 . S
H253 C211 0.930 . S
H254 C212 0.930 . S
H255 C213 0.930 . S
H256 C215 0.929 . S
H257 C216 0.930 . S
H258 C217 0.930 . S
H259 C218 0.930 . S
H260 C222 0.929 . S
H261 C224 0.930 . S
H262 C230 0.929 . S
H263 C231 0.930 . S
Li264 N281 1.990 . S
Li264 O324 1.956 . S
Li264 O325 1.970 . S
Li264 O326 1.961 . S
Li265 N289 1.990 . S
Li265 O324 1.970 . S
Li265 O325 1.956 . S
Li265 O327 1.961 . S
Li266 N311 1.990 . S
Li266 O324 1.961 . S
Li266 O326 1.956 . S
Li266 O327 1.970 . S
Li267 N317 1.990 . S
Li267 O325 1.961 . S
Li267 O326 1.970 . S
Li267 O327 1.956 . S
C268 C270 1.348 . S
C268 C271 1.356 . S
C268 O324 1.325 . S
N269 C272 1.314 . S
N269 C273 1.279 . S
C270 C268 1.348 . S
C270 C272 1.353 . S
C270 H328 0.929 . S
C271 C268 1.356 . S
C271 C273 1.358 . S
C271 H329 0.930 . S
C272 N269 1.314 . S
C272 C270 1.353 . S
C272 H330 0.930 . S
C273 N269 1.279 . S
C273 C271 1.358 . S
C273 H331 0.930 . S
C274 C277 1.348 . S
C274 C278 1.356 . S
C274 O325 1.325 . S
C275 N276 1.279 . S
C275 C278 1.358 . S
C275 H332 0.930 . S
N276 C275 1.279 . S
N276 C279 1.314 . S
C277 C274 1.348 . S
C277 C279 1.353 . S
C277 H333 0.929 . S
C278 C274 1.356 . S
C278 C275 1.358 . S
C278 H334 0.930 . S
C279 N276 1.314 . S
C279 C277 1.353 . S
C279 H335 0.930 . S
C280 N281 1.314 . S
C280 C285 1.353 . S
C280 H286 0.930 . S
N281 Li264 1.990 . S
N281 C280 1.314 . S
N281 C283 1.279 . S
C282 C283 1.358 . S
C282 C284 1.356 . S
C282 H336 0.930 . S
C283 N281 1.279 . S
C283 C282 1.358 . S
C283 H287 0.930 . S
C284 C282 1.356 . S
C284 C285 1.348 . S
C285 C280 1.353 . S
C285 C284 1.348 . S
C285 H337 0.929 . S
H286 C280 0.930 . S
H287 C283 0.930 . S
C288 N289 1.314 . S
C288 C290 1.353 . S
C288 H294 0.930 . S
N289 Li265 1.990 . S
N289 C288 1.314 . S
N289 C292 1.279 . S
C290 C288 1.353 . S
C290 C293 1.348 . S
C290 H338 0.929 . S
C291 C292 1.358 . S
C291 C293 1.356 . S
C291 H339 0.930 . S
C292 N289 1.279 . S
C292 C291 1.358 . S
C292 H295 0.930 . S
C293 C290 1.348 . S
C293 C291 1.356 . S
H294 C288 0.930 . S
H295 C292 0.930 . S
C296 C298 1.348 . S
C296 C299 1.356 . S
C296 O326 1.325 . S
N297 C300 1.314 . S
N297 C301 1.279 . S
C298 C296 1.348 . S
C298 C300 1.353 . S
C298 H340 0.929 . S
C299 C296 1.356 . S
C299 C301 1.358 . S
C299 H341 0.930 . S
C300 N297 1.314 . S
C300 C298 1.353 . S
C300 H342 0.930 . S
C301 N297 1.279 . S
C301 C299 1.358 . S
C301 H343 0.930 . S
C302 C303 1.348 . S
C302 C304 1.356 . S
C302 O327 1.325 . S
C303 C302 1.348 . S
C303 C305 1.353 . S
C303 H344 0.929 . S
C304 C302 1.356 . S
C304 C306 1.358 . S
C304 H345 0.930 . S
C305 C303 1.353 . S
C305 N307 1.314 . S
C305 H346 0.930 . S
C306 C304 1.358 . S
C306 N307 1.279 . S
C306 H347 0.930 . S
N307 C305 1.314 . S
N307 C306 1.279 . S
C308 C310 1.353 . S
C308 N311 1.314 . S
C308 H314 0.930 . S
C309 N311 1.279 . S
C309 C312 1.358 . S
C309 H315 0.930 . S
C310 C308 1.353 . S
C310 C313 1.348 . S
C310 H348 0.929 . S
N311 Li266 1.990 . S
N311 C308 1.314 . S
N311 C309 1.279 . S
C312 C309 1.358 . S
C312 C313 1.356 . S
C312 H349 0.930 . S
C313 C310 1.348 . S
C313 C312 1.356 . S
H314 C308 0.930 . S
H315 C309 0.930 . S
C316 N317 1.314 . S
C316 C318 1.353 . S
C316 H322 0.930 . S
N317 Li267 1.990 . S
N317 C316 1.314 . S
N317 C320 1.279 . S
C318 C316 1.353 . S
C318 C321 1.348 . S
C318 H350 0.929 . S
C319 C320 1.358 . S
C319 C321 1.356 . S
C319 H351 0.930 . S
C320 N317 1.279 . S
C320 C319 1.358 . S
C320 H323 0.930 . S
C321 C318 1.348 . S
C321 C319 1.356 . S
H322 C316 0.930 . S
H323 C320 0.930 . S
O324 Li264 1.956 . S
O324 Li265 1.970 . S
O324 Li266 1.961 . S
O324 C268 1.325 . S
O325 Li264 1.970 . S
O325 Li265 1.956 . S
O325 Li267 1.961 . S
O325 C274 1.325 . S
O326 Li264 1.961 . S
O326 Li266 1.956 . S
O326 Li267 1.970 . S
O326 C296 1.325 . S
O327 Li265 1.961 . S
O327 Li266 1.970 . S
O327 Li267 1.956 . S
O327 C302 1.325 . S
H328 C270 0.929 . S
H329 C271 0.930 . S
H330 C272 0.930 . S
H331 C273 0.930 . S
H332 C275 0.930 . S
H333 C277 0.929 . S
H334 C278 0.930 . S
H335 C279 0.930 . S
H336 C282 0.930 . S
H337 C285 0.929 . S
H338 C290 0.929 . S
H339 C291 0.930 . S
H340 C298 0.929 . S
H341 C299 0.930 . S
H342 C300 0.930 . S
H343 C301 0.930 . S
H344 C303 0.929 . S
H345 C304 0.930 . S
H346 C305 0.930 . S
H347 C306 0.930 . S
H348 C310 0.929 . S
H349 C312 0.930 . S
H350 C318 0.929 . S
H351 C319 0.930 . S
Li352 N369 1.990 . S
Li352 O412 1.956 . S
Li352 O413 1.970 . S
Li352 O414 1.961 . S
Li353 N377 1.990 . S
Li353 O412 1.970 . S
Li353 O413 1.956 . S
Li353 O415 1.961 . S
Li354 N399 1.990 . S
Li354 O412 1.961 . S
Li354 O414 1.956 . S
Li354 O415 1.970 . S
Li355 N405 1.990 . S
Li355 O413 1.961 . S
Li355 O414 1.970 . S
Li355 O415 1.956 . S
C356 C358 1.348 . S
C356 C359 1.356 . S
C356 O412 1.325 . S
N357 C360 1.314 . S
N357 C361 1.279 . S
C358 C356 1.348 . S
C358 C360 1.353 . S
C358 H416 0.929 . S
C359 C356 1.356 . S
C359 C361 1.358 . S
C359 H417 0.930 . S
C360 N357 1.314 . S
C360 C358 1.353 . S
C360 H418 0.930 . S
C361 N357 1.279 . S
C361 C359 1.358 . S
C361 H419 0.930 . S
C362 C365 1.348 . S
C362 C366 1.356 . S
C362 O413 1.325 . S
C363 N364 1.279 . S
C363 C366 1.358 . S
C363 H420 0.930 . S
N364 C363 1.279 . S
N364 C367 1.314 . S
C365 C362 1.348 . S
C365 C367 1.353 . S
C365 H421 0.929 . S
C366 C362 1.356 . S
C366 C363 1.358 . S
C366 H422 0.930 . S
C367 N364 1.314 . S
C367 C365 1.353 . S
C367 H423 0.930 . S
C368 N369 1.314 . S
C368 C373 1.353 . S
C368 H374 0.930 . S
N369 Li352 1.990 . S
N369 C368 1.314 . S
N369 C371 1.279 . S
C370 C371 1.358 . S
C370 C372 1.356 . S
C370 H424 0.930 . S
C371 N369 1.279 . S
C371 C370 1.358 . S
C371 H375 0.930 . S
C372 C370 1.356 . S
C372 C373 1.348 . S
C373 C368 1.353 . S
C373 C372 1.348 . S
C373 H425 0.929 . S
H374 C368 0.930 . S
H375 C371 0.930 . S
C376 N377 1.314 . S
C376 C378 1.353 . S
C376 H382 0.930 . S
N377 Li353 1.990 . S
N377 C376 1.314 . S
N377 C380 1.279 . S
C378 C376 1.353 . S
C378 C381 1.348 . S
C378 H426 0.929 . S
C379 C380 1.358 . S
C379 C381 1.356 . S
C379 H427 0.930 . S
C380 N377 1.279 . S
C380 C379 1.358 . S
C380 H383 0.930 . S
C381 C378 1.348 . S
C381 C379 1.356 . S
H382 C376 0.930 . S
H383 C380 0.930 . S
C384 C386 1.348 1_455 S
C384 C387 1.356 . S
C384 O414 1.325 . S
N385 C388 1.314 . S
N385 C389 1.279 . S
C386 C384 1.348 1_655 S
C386 C388 1.353 . S
C386 H428 0.929 . S
C387 C384 1.356 . S
C387 C389 1.358 1_455 S
C387 H429 0.930 . S
C388 N385 1.314 . S
C388 C386 1.353 . S
C388 H430 0.930 . S
C389 N385 1.279 . S
C389 C387 1.358 1_655 S
C389 H431 0.930 . S
C390 C391 1.348 . S
C390 C392 1.356 . S
C390 O415 1.325 . S
C391 C390 1.348 . S
C391 C393 1.353 . S
C391 H432 0.929 . S
C392 C390 1.356 . S
C392 C394 1.358 . S
C392 H433 0.930 . S
C393 C391 1.353 . S
C393 N395 1.314 . S
C393 H434 0.930 . S
C394 C392 1.358 . S
C394 N395 1.279 . S
C394 H435 0.930 . S
N395 C393 1.314 . S
N395 C394 1.279 . S
C396 C398 1.353 . S
C396 N399 1.314 . S
C396 H402 0.930 . S
C397 N399 1.279 . S
C397 C400 1.358 . S
C397 H403 0.930 . S
C398 C396 1.353 . S
C398 C401 1.348 . S
C398 H436 0.929 . S
N399 Li354 1.990 . S
N399 C396 1.314 . S
N399 C397 1.279 . S
C400 C397 1.358 . S
C400 C401 1.356 . S
C400 H437 0.930 . S
C401 C398 1.348 . S
C401 C400 1.356 . S
H402 C396 0.930 . S
H403 C397 0.930 . S
C404 N405 1.314 . S
C404 C406 1.353 1_455 S
C404 H410 0.930 . S
N405 Li355 1.990 . S
N405 C404 1.314 . S
N405 C408 1.279 . S
C406 C404 1.353 1_655 S
C406 C409 1.348 . S
C406 H438 0.929 . S
C407 C408 1.358 1_655 S
C407 C409 1.356 . S
C407 H439 0.930 . S
C408 N405 1.279 . S
C408 C407 1.358 1_455 S
C408 H411 0.930 . S
C409 C406 1.348 . S
C409 C407 1.356 . S
H410 C404 0.930 . S
H411 C408 0.930 . S
O412 Li352 1.956 . S
O412 Li353 1.970 . S
O412 Li354 1.961 . S
O412 C356 1.325 . S
O413 Li352 1.970 . S
O413 Li353 1.956 . S
O413 Li355 1.961 . S
O413 C362 1.325 . S
O414 Li352 1.961 . S
O414 Li354 1.956 . S
O414 Li355 1.970 . S
O414 C384 1.325 . S
O415 Li353 1.961 . S
O415 Li354 1.970 . S
O415 Li355 1.956 . S
O415 C390 1.325 . S
H416 C358 0.929 . S
H417 C359 0.930 . S
H418 C360 0.930 . S
H419 C361 0.930 . S
H420 C363 0.930 . S
H421 C365 0.929 . S
H422 C366 0.930 . S
H423 C367 0.930 . S
H424 C370 0.930 . S
H425 C373 0.929 . S
H426 C378 0.929 . S
H427 C379 0.930 . S
H428 C386 0.929 . S
H429 C387 0.930 . S
H430 C388 0.930 . S
H431 C389 0.930 . S
H432 C391 0.929 . S
H433 C392 0.930 . S
H434 C393 0.930 . S
H435 C394 0.930 . S
H436 C398 0.929 . S
H437 C400 0.930 . S
H438 C406 0.929 . S
H439 C407 0.930 . S
Li440 N457 1.990 . S
Li440 O500 1.956 . S
Li440 O501 1.970 . S
Li440 O502 1.961 . S
Li441 N465 1.990 . S
Li441 O500 1.970 . S
Li441 O501 1.956 . S
Li441 O503 1.961 . S
Li442 N487 1.990 . S
Li442 O500 1.961 . S
Li442 O502 1.956 . S
Li442 O503 1.970 . S
Li443 N493 1.990 . S
Li443 O501 1.961 . S
Li443 O502 1.970 . S
Li443 O503 1.956 . S
C444 C446 1.348 . S
C444 C447 1.356 . S
C444 O500 1.325 . S
N445 C448 1.314 . S
N445 C449 1.279 . S
C446 C444 1.348 . S
C446 C448 1.353 . S
C446 H504 0.929 . S
C447 C444 1.356 . S
C447 C449 1.358 . S
C447 H505 0.930 . S
C448 N445 1.314 . S
C448 C446 1.353 . S
C448 H506 0.930 . S
C449 N445 1.279 . S
C449 C447 1.358 . S
C449 H507 0.930 . S
C450 C453 1.348 . S
C450 C454 1.356 . S
C450 O501 1.325 . S
C451 N452 1.279 . S
C451 C454 1.358 . S
C451 H508 0.930 . S
N452 C451 1.279 . S
N452 C455 1.314 . S
C453 C450 1.348 . S
C453 C455 1.353 . S
C453 H509 0.929 . S
C454 C450 1.356 . S
C454 C451 1.358 . S
C454 H510 0.930 . S
C455 N452 1.314 . S
C455 C453 1.353 . S
C455 H511 0.930 . S
C456 N457 1.314 . S
C456 C461 1.353 . S
C456 H462 0.930 . S
N457 Li440 1.990 . S
N457 C456 1.314 . S
N457 C459 1.279 . S
C458 C459 1.358 . S
C458 C460 1.356 . S
C458 H512 0.930 . S
C459 N457 1.279 . S
C459 C458 1.358 . S
C459 H463 0.930 . S
C460 C458 1.356 . S
C460 C461 1.348 . S
C461 C456 1.353 . S
C461 C460 1.348 . S
C461 H513 0.929 . S
H462 C456 0.930 . S
H463 C459 0.930 . S
C464 N465 1.314 . S
C464 C466 1.353 . S
C464 H470 0.930 . S
N465 Li441 1.990 . S
N465 C464 1.314 . S
N465 C468 1.279 . S
C466 C464 1.353 . S
C466 C469 1.348 . S
C466 H514 0.929 . S
C467 C468 1.358 . S
C467 C469 1.356 . S
C467 H515 0.930 . S
C468 N465 1.279 . S
C468 C467 1.358 . S
C468 H471 0.930 . S
C469 C466 1.348 . S
C469 C467 1.356 . S
H470 C464 0.930 . S
H471 C468 0.930 . S
C472 C474 1.348 . S
C472 C475 1.356 . S
C472 O502 1.325 . S
N473 C476 1.314 . S
N473 C477 1.279 . S
C474 C472 1.348 . S
C474 C476 1.353 . S
C474 H516 0.929 . S
C475 C472 1.356 . S
C475 C477 1.358 . S
C475 H517 0.930 . S
C476 N473 1.314 . S
C476 C474 1.353 . S
C476 H518 0.930 . S
C477 N473 1.279 . S
C477 C475 1.358 . S
C477 H519 0.930 . S
C478 C479 1.348 . S
C478 C480 1.356 . S
C478 O503 1.325 . S
C479 C478 1.348 . S
C479 C481 1.353 . S
C479 H520 0.929 . S
C480 C478 1.356 . S
C480 C482 1.358 . S
C480 H521 0.930 . S
C481 C479 1.353 . S
C481 N483 1.314 . S
C481 H522 0.930 . S
C482 C480 1.358 . S
C482 N483 1.279 . S
C482 H523 0.930 . S
N483 C481 1.314 . S
N483 C482 1.279 . S
C484 C486 1.353 . S
C484 N487 1.314 . S
C484 H490 0.930 . S
C485 N487 1.279 . S
C485 C488 1.358 . S
C485 H491 0.930 . S
C486 C484 1.353 . S
C486 C489 1.348 . S
C486 H524 0.929 . S
N487 Li442 1.990 . S
N487 C484 1.314 . S
N487 C485 1.279 . S
C488 C485 1.358 . S
C488 C489 1.356 . S
C488 H525 0.930 . S
C489 C486 1.348 . S
C489 C488 1.356 . S
H490 C484 0.930 . S
H491 C485 0.930 . S
C492 N493 1.314 . S
C492 C494 1.353 . S
C492 H498 0.930 . S
N493 Li443 1.990 . S
N493 C492 1.314 . S
N493 C496 1.279 . S
C494 C492 1.353 . S
C494 C497 1.348 . S
C494 H526 0.929 . S
C495 C496 1.358 . S
C495 C497 1.356 . S
C495 H527 0.930 . S
C496 N493 1.279 . S
C496 C495 1.358 . S
C496 H499 0.930 . S
C497 C494 1.348 . S
C497 C495 1.356 . S
H498 C492 0.930 . S
H499 C496 0.930 . S
O500 Li440 1.956 . S
O500 Li441 1.970 . S
O500 Li442 1.961 . S
O500 C444 1.325 . S
O501 Li440 1.970 . S
O501 Li441 1.956 . S
O501 Li443 1.961 . S
O501 C450 1.325 . S
O502 Li440 1.961 . S
O502 Li442 1.956 . S
O502 Li443 1.970 . S
O502 C472 1.325 . S
O503 Li441 1.961 . S
O503 Li442 1.970 . S
O503 Li443 1.956 . S
O503 C478 1.325 . S
H504 C446 0.929 . S
H505 C447 0.930 . S
H506 C448 0.930 . S
H507 C449 0.930 . S
H508 C451 0.930 . S
H509 C453 0.929 . S
H510 C454 0.930 . S
H511 C455 0.930 . S
H512 C458 0.930 . S
H513 C461 0.929 . S
H514 C466 0.929 . S
H515 C467 0.930 . S
H516 C474 0.929 . S
H517 C475 0.930 . S
H518 C476 0.930 . S
H519 C477 0.930 . S
H520 C479 0.929 . S
H521 C480 0.930 . S
H522 C481 0.930 . S
H523 C482 0.930 . S
H524 C486 0.929 . S
H525 C488 0.930 . S
H526 C494 0.929 . S
H527 C495 0.930 . S
Li528 N545 1.990 . S
Li528 O588 1.956 . S
Li528 O589 1.970 . S
Li528 O590 1.961 . S
Li529 N553 1.990 . S
Li529 O588 1.970 . S
Li529 O589 1.956 . S
Li529 O591 1.961 . S
Li530 N575 1.990 . S
Li530 O588 1.961 . S
Li530 O590 1.956 . S
Li530 O591 1.970 . S
Li531 N581 1.990 . S
Li531 O589 1.961 . S
Li531 O590 1.970 . S
Li531 O591 1.956 . S
C532 C534 1.348 . S
C532 C535 1.356 . S
C532 O588 1.325 . S
N533 C536 1.314 . S
N533 C537 1.279 . S
C534 C532 1.348 . S
C534 C536 1.353 . S
C534 H592 0.929 . S
C535 C532 1.356 . S
C535 C537 1.358 . S
C535 H593 0.930 . S
C536 N533 1.314 . S
C536 C534 1.353 . S
C536 H594 0.930 . S
C537 N533 1.279 . S
C537 C535 1.358 . S
C537 H595 0.930 . S
C538 C541 1.348 . S
C538 C542 1.356 . S
C538 O589 1.325 . S
C539 N540 1.279 . S
C539 C542 1.358 . S
C539 H596 0.930 . S
N540 C539 1.279 . S
N540 C543 1.314 . S
C541 C538 1.348 . S
C541 C543 1.353 . S
C541 H597 0.929 . S
C542 C538 1.356 . S
C542 C539 1.358 . S
C542 H598 0.930 . S
C543 N540 1.314 . S
C543 C541 1.353 . S
C543 H599 0.930 . S
C544 N545 1.314 . S
C544 C549 1.353 . S
C544 H550 0.930 . S
N545 Li528 1.990 . S
N545 C544 1.314 . S
N545 C547 1.279 . S
C546 C547 1.358 . S
C546 C548 1.356 . S
C546 H600 0.930 . S
C547 N545 1.279 . S
C547 C546 1.358 . S
C547 H551 0.930 . S
C548 C546 1.356 . S
C548 C549 1.348 . S
C549 C544 1.353 . S
C549 C548 1.348 . S
C549 H601 0.929 . S
H550 C544 0.930 . S
H551 C547 0.930 . S
C552 N553 1.314 . S
C552 C554 1.353 . S
C552 H558 0.930 . S
N553 Li529 1.990 . S
N553 C552 1.314 . S
N553 C556 1.279 . S
C554 C552 1.353 . S
C554 C557 1.348 . S
C554 H602 0.929 . S
C555 C556 1.358 . S
C555 C557 1.356 . S
C555 H603 0.930 . S
C556 N553 1.279 . S
C556 C555 1.358 . S
C556 H559 0.930 . S
C557 C554 1.348 . S
C557 C555 1.356 . S
H558 C552 0.930 . S
H559 C556 0.930 . S
C560 C562 1.348 . S
C560 C563 1.356 . S
C560 O590 1.325 . S
N561 C564 1.314 . S
N561 C565 1.279 . S
C562 C560 1.348 . S
C562 C564 1.353 . S
C562 H604 0.929 . S
C563 C560 1.356 . S
C563 C565 1.358 . S
C563 H605 0.930 . S
C564 N561 1.314 . S
C564 C562 1.353 . S
C564 H606 0.930 . S
C565 N561 1.279 . S
C565 C563 1.358 . S
C565 H607 0.930 . S
C566 C567 1.348 . S
C566 C568 1.356 . S
C566 O591 1.325 . S
C567 C566 1.348 . S
C567 C569 1.353 . S
C567 H608 0.929 . S
C568 C566 1.356 . S
C568 C570 1.358 . S
C568 H609 0.930 . S
C569 C567 1.353 . S
C569 N571 1.314 . S
C569 H610 0.930 . S
C570 C568 1.358 . S
C570 N571 1.279 . S
C570 H611 0.930 . S
N571 C569 1.314 . S
N571 C570 1.279 . S
C572 C574 1.353 . S
C572 N575 1.314 . S
C572 H578 0.930 . S
C573 N575 1.279 . S
C573 C576 1.358 . S
C573 H579 0.930 . S
C574 C572 1.353 . S
C574 C577 1.348 . S
C574 H612 0.929 . S
N575 Li530 1.990 . S
N575 C572 1.314 . S
N575 C573 1.279 . S
C576 C573 1.358 . S
C576 C577 1.356 . S
C576 H613 0.930 . S
C577 C574 1.348 . S
C577 C576 1.356 . S
H578 C572 0.930 . S
H579 C573 0.930 . S
C580 N581 1.314 . S
C580 C582 1.353 . S
C580 H586 0.930 . S
N581 Li531 1.990 . S
N581 C580 1.314 . S
N581 C584 1.279 . S
C582 C580 1.353 . S
C582 C585 1.348 . S
C582 H614 0.929 . S
C583 C584 1.358 . S
C583 C585 1.356 . S
C583 H615 0.930 . S
C584 N581 1.279 . S
C584 C583 1.358 . S
C584 H587 0.930 . S
C585 C582 1.348 . S
C585 C583 1.356 . S
H586 C580 0.930 . S
H587 C584 0.930 . S
O588 Li528 1.956 . S
O588 Li529 1.970 . S
O588 Li530 1.961 . S
O588 C532 1.325 . S
O589 Li528 1.970 . S
O589 Li529 1.956 . S
O589 Li531 1.961 . S
O589 C538 1.325 . S
O590 Li528 1.961 . S
O590 Li530 1.956 . S
O590 Li531 1.970 . S
O590 C560 1.325 . S
O591 Li529 1.961 . S
O591 Li530 1.970 . S
O591 Li531 1.956 . S
O591 C566 1.325 . S
H592 C534 0.929 . S
H593 C535 0.930 . S
H594 C536 0.930 . S
H595 C537 0.930 . S
H596 C539 0.930 . S
H597 C541 0.929 . S
H598 C542 0.930 . S
H599 C543 0.930 . S
H600 C546 0.930 . S
H601 C549 0.929 . S
H602 C554 0.929 . S
H603 C555 0.930 . S
H604 C562 0.929 . S
H605 C563 0.930 . S
H606 C564 0.930 . S
H607 C565 0.930 . S
H608 C567 0.929 . S
H609 C568 0.930 . S
H610 C569 0.930 . S
H611 C570 0.930 . S
H612 C574 0.929 . S
H613 C576 0.930 . S
H614 C582 0.929 . S
H615 C583 0.930 . S
Li616 N633 1.990 . S
Li616 O676 1.956 1_455 S
Li616 O677 1.970 . S
Li616 O678 1.961 . S
Li617 N641 1.990 . S
Li617 O676 1.970 . S
Li617 O677 1.956 1_655 S
Li617 O679 1.961 1_655 S
Li618 N663 1.990 . S
Li618 O676 1.961 1_455 S
Li618 O678 1.956 . S
Li618 O679 1.970 . S
Li619 N669 1.990 . S
Li619 O677 1.961 . S
Li619 O678 1.970 . S
Li619 O679 1.956 . S
C620 C622 1.348 . S
C620 C623 1.356 . S
C620 O676 1.325 . S
N621 C624 1.314 . S
N621 C625 1.279 . S
C622 C620 1.348 . S
C622 C624 1.353 . S
C622 H680 0.929 . S
C623 C620 1.356 . S
C623 C625 1.358 . S
C623 H681 0.930 . S
C624 N621 1.314 . S
C624 C622 1.353 . S
C624 H682 0.930 . S
C625 N621 1.279 . S
C625 C623 1.358 . S
C625 H683 0.930 . S
C626 C629 1.348 . S
C626 C630 1.356 . S
C626 O677 1.325 . S
C627 N628 1.279 . S
C627 C630 1.358 . S
C627 H684 0.930 . S
N628 C627 1.279 . S
N628 C631 1.314 . S
C629 C626 1.348 . S
C629 C631 1.353 . S
C629 H685 0.929 . S
C630 C626 1.356 . S
C630 C627 1.358 . S
C630 H686 0.930 . S
C631 N628 1.314 . S
C631 C629 1.353 . S
C631 H687 0.930 . S
C632 N633 1.314 . S
C632 C637 1.353 . S
C632 H638 0.930 . S
N633 Li616 1.990 . S
N633 C632 1.314 . S
N633 C635 1.279 . S
C634 C635 1.358 . S
C634 C636 1.356 . S
C634 H688 0.971 . S
C635 N633 1.279 . S
C635 C634 1.358 . S
C635 H639 0.930 1_455 S
C636 C634 1.356 . S
C636 C637 1.348 . S
C637 C632 1.353 . S
C637 C636 1.348 . S
C637 H689 0.929 . S
H638 C632 0.930 . S
H639 C635 0.930 1_655 S
C640 N641 1.314 . S
C640 C642 1.353 . S
C640 H646 0.930 . S
N641 Li617 1.990 . S
N641 C640 1.314 . S
N641 C644 1.279 . S
C642 C640 1.353 . S
C642 C645 1.348 . S
C642 H690 0.929 . S
C643 C644 1.358 . S
C643 C645 1.356 . S
C643 H691 0.930 . S
C644 N641 1.279 . S
C644 C643 1.358 . S
C644 H647 0.930 . S
C645 C642 1.348 . S
C645 C643 1.356 . S
H646 C640 0.930 . S
H647 C644 0.930 . S
C648 C650 1.348 . S
C648 C651 1.356 . S
C648 O678 1.325 . S
N649 C652 1.314 . S
N649 C653 1.279 . S
C650 C648 1.348 . S
C650 C652 1.353 . S
C650 H692 0.929 . S
C651 C648 1.356 . S
C651 C653 1.358 . S
C651 H693 0.930 . S
C652 N649 1.314 . S
C652 C650 1.353 . S
C652 H694 0.930 . S
C653 N649 1.279 . S
C653 C651 1.358 . S
C653 H695 0.930 1_556 S
C654 C655 1.348 . S
C654 C656 1.356 . S
C654 O679 1.325 . S
C655 C654 1.348 . S
C655 C657 1.353 . S
C655 H696 0.929 . S
C656 C654 1.356 . S
C656 C658 1.361 1_455 S
C656 H697 0.929 1_455 S
C657 C655 1.353 . S
C657 N659 1.314 . S
C657 H698 0.930 . S
C658 C656 1.361 1_655 S
C658 N659 1.273 1_655 S
C658 H699 0.934 . S
N659 C657 1.314 . S
N659 C658 1.273 1_455 S
C660 C662 1.353 . S
C660 N663 1.314 1_655 S
C660 H666 0.930 . S
C661 N663 1.279 . S
C661 C664 1.358 . S
C661 H667 0.930 . S
C662 C660 1.353 . S
C662 C665 1.348 1_655 S
C662 H700 0.929 . S
N663 Li618 1.990 . S
N663 C660 1.314 1_455 S
N663 C661 1.279 . S
C664 C661 1.358 . S
C664 C665 1.356 . S
C664 H701 0.930 . S
C665 C662 1.348 1_455 S
C665 C664 1.356 . S
H666 C660 0.930 . S
H667 C661 0.930 . S
C668 N669 1.314 . S
C668 C670 1.353 . S
C668 H674 0.930 . S
N669 Li619 1.990 . S
N669 C668 1.314 . S
N669 C672 1.279 . S
C670 C668 1.353 . S
C670 C673 1.348 . S
C670 H702 0.929 . S
C671 C672 1.358 . S
C671 C673 1.356 . S
C671 H703 0.930 . S
C672 N669 1.279 . S
C672 C671 1.358 . S
C672 H675 0.930 . S
C673 C670 1.348 . S
C673 C671 1.356 . S
H674 C668 0.930 . S
H675 C672 0.930 . S
O676 Li616 1.956 1_655 S
O676 Li617 1.970 . S
O676 Li618 1.961 1_655 S
O676 C620 1.325 . S
O677 Li616 1.970 . S
O677 Li617 1.956 1_455 S
O677 Li619 1.961 . S
O677 C626 1.325 . S
O678 Li616 1.961 . S
O678 Li618 1.956 . S
O678 Li619 1.970 . S
O678 C648 1.325 . S
O679 Li617 1.961 1_455 S
O679 Li618 1.970 . S
O679 Li619 1.956 . S
O679 C654 1.325 . S
H680 C622 0.929 . S
H681 C623 0.930 . S
H682 C624 0.930 . S
H683 C625 0.930 . S
H684 C627 0.930 . S
H685 C629 0.929 . S
H686 C630 0.930 . S
H687 C631 0.930 . S
H688 C634 0.971 . S
H689 C637 0.929 . S
H690 C642 0.929 . S
H691 C643 0.930 . S
H692 C650 0.929 . S
H693 C651 0.930 . S
H694 C652 0.930 . S
H695 C653 0.930 1_554 S
H696 C655 0.929 . S
H697 C656 0.929 1_655 S
H698 C657 0.930 . S
H699 C658 0.934 . S
H700 C662 0.929 . S
H701 C664 0.930 . S
H702 C670 0.929 . S
H703 C671 0.930 . S
Li704 N721 1.990 . S
Li704 O764 1.956 1_545 S
Li704 O765 1.970 . S
Li704 O766 1.961 . S
Li705 N729 1.990 . S
Li705 O764 1.970 . S
Li705 O765 1.956 1_565 S
Li705 O767 1.961 1_565 S
Li706 N751 1.990 . S
Li706 O764 1.961 1_545 S
Li706 O766 1.956 . S
Li706 O767 1.970 . S
Li707 N757 1.990 . S
Li707 O765 1.961 . S
Li707 O766 1.970 . S
Li707 O767 1.956 . S
C708 C710 1.348 . S
C708 C711 1.356 . S
C708 O764 1.325 . S
N709 C712 1.314 . S
N709 C713 1.279 . S
C710 C708 1.348 . S
C710 C712 1.353 . S
C710 H768 0.929 . S
C711 C708 1.356 . S
C711 C713 1.358 . S
C711 H769 0.931 . S
C712 N709 1.314 . S
C712 C710 1.353 . S
C712 H770 0.930 . S
C713 N709 1.279 . S
C713 C711 1.358 . S
C713 H771 0.930 . S
C714 C717 1.348 . S
C714 C718 1.356 . S
C714 O765 1.325 . S
C715 N716 1.279 . S
C715 C718 1.358 . S
C715 H772 0.930 . S
N716 C715 1.279 . S
N716 C719 1.314 . S
C717 C714 1.348 . S
C717 C719 1.353 . S
C717 H773 0.929 . S
C718 C714 1.356 . S
C718 C715 1.358 . S
C718 H774 0.930 . S
C719 N716 1.314 . S
C719 C717 1.353 . S
C719 H775 0.930 . S
C720 N721 1.314 . S
C720 C725 1.353 . S
C720 H726 0.930 . S
N721 Li704 1.990 . S
N721 C720 1.314 . S
N721 C723 1.279 . S
C722 C723 1.358 . S
C722 C724 1.356 . S
C722 H776 0.930 . S
C723 N721 1.279 . S
C723 C722 1.358 . S
C723 H727 0.930 1_545 S
C724 C722 1.356 . S
C724 C725 1.348 . S
C725 C720 1.353 . S
C725 C724 1.348 . S
C725 H777 0.929 . S
H726 C720 0.930 . S
H727 C723 0.930 1_565 S
C728 N729 1.314 . S
C728 C730 1.353 . S
C728 H734 0.930 . S
N729 Li705 1.990 . S
N729 C728 1.314 . S
N729 C732 1.279 . S
C730 C728 1.353 . S
C730 C733 1.348 . S
C730 H778 0.929 . S
C731 C732 1.358 . S
C731 C733 1.356 . S
C731 H779 0.930 . S
C732 N729 1.279 . S
C732 C731 1.358 . S
C732 H735 0.930 . S
C733 C730 1.348 . S
C733 C731 1.356 . S
H734 C728 0.930 . S
H735 C732 0.930 . S
C736 C738 1.348 . S
C736 C739 1.356 . S
C736 O766 1.325 . S
N737 C740 1.314 . S
N737 C741 1.279 . S
C738 C736 1.348 . S
C738 C740 1.353 . S
C738 H780 0.929 . S
C739 C736 1.356 . S
C739 C741 1.358 . S
C739 H781 0.930 . S
C740 N737 1.314 . S
C740 C738 1.353 . S
C740 H782 0.930 . S
C741 N737 1.279 . S
C741 C739 1.358 . S
C741 H783 0.930 . S
C742 C743 1.348 . S
C742 C744 1.356 . S
C742 O767 1.325 . S
C743 C742 1.348 . S
C743 C745 1.353 . S
C743 H784 0.929 . S
C744 C742 1.356 . S
C744 C746 1.358 . S
C744 H785 0.930 . S
C745 C743 1.353 . S
C745 N747 1.314 . S
C745 H786 0.930 . S
C746 C744 1.358 . S
C746 N747 1.279 . S
C746 H787 0.930 1_545 S
N747 C745 1.314 . S
N747 C746 1.279 . S
C748 C750 1.353 . S
C748 N751 1.314 . S
C748 H754 0.930 1_545 S
C749 N751 1.279 . S
C749 C752 1.358 . S
C749 H755 0.930 . S
C750 C748 1.353 . S
C750 C753 1.348 . S
C750 H788 0.929 1_545 S
N751 Li706 1.990 . S
N751 C748 1.314 . S
N751 C749 1.279 . S
C752 C749 1.358 . S
C752 C753 1.356 . S
C752 H789 0.930 . S
C753 C750 1.348 . S
C753 C752 1.356 . S
H754 C748 0.930 1_565 S
H755 C749 0.930 . S
C756 N757 1.314 . S
C756 C758 1.353 . S
C756 H762 0.930 . S
N757 Li707 1.990 . S
N757 C756 1.314 . S
N757 C760 1.279 . S
C758 C756 1.353 . S
C758 C761 1.348 . S
C758 H790 0.929 . S
C759 C760 1.358 . S
C759 C761 1.356 . S
C759 H791 0.930 . S
C760 N757 1.279 . S
C760 C759 1.358 . S
C760 H763 0.930 . S
C761 C758 1.348 . S
C761 C759 1.356 . S
H762 C756 0.930 . S
H763 C760 0.930 . S
O764 Li704 1.956 1_565 S
O764 Li705 1.970 . S
O764 Li706 1.961 1_565 S
O764 C708 1.325 . S
O765 Li704 1.970 . S
O765 Li705 1.956 1_545 S
O765 Li707 1.961 . S
O765 C714 1.325 . S
O766 Li704 1.961 . S
O766 Li706 1.956 . S
O766 Li707 1.970 . S
O766 C736 1.325 . S
O767 Li705 1.961 1_545 S
O767 Li706 1.970 . S
O767 Li707 1.956 . S
O767 C742 1.325 . S
H768 C710 0.929 . S
H769 C711 0.931 . S
H770 C712 0.930 . S
H771 C713 0.930 . S
H772 C715 0.930 . S
H773 C717 0.929 . S
H774 C718 0.930 . S
H775 C719 0.930 . S
H776 C722 0.930 . S
H777 C725 0.929 . S
H778 C730 0.929 . S
H779 C731 0.930 . S
H780 C738 0.929 . S
H781 C739 0.930 . S
H782 C740 0.930 . S
H783 C741 0.930 . S
H784 C743 0.929 . S
H785 C744 0.930 . S
H786 C745 0.930 . S
H787 C746 0.930 1_565 S
H788 C750 0.929 1_565 S
H789 C752 0.930 . S
H790 C758 0.929 . S
H791 C759 0.930 . S
Li792 N809 1.990 . S
Li792 O852 1.956 . S
Li792 O853 1.970 . S
Li792 O854 1.961 . S
Li793 N817 1.990 . S
Li793 O852 1.970 . S
Li793 O853 1.956 . S
Li793 O855 1.961 . S
Li794 N839 1.990 . S
Li794 O852 1.961 . S
Li794 O854 1.956 . S
Li794 O855 1.970 . S
Li795 N845 1.990 . S
Li795 O853 1.961 . S
Li795 O854 1.970 . S
Li795 O855 1.956 . S
C796 C798 1.348 . S
C796 C799 1.356 . S
C796 O852 1.325 . S
N797 C800 1.314 . S
N797 C801 1.279 . S
C798 C796 1.348 . S
C798 C800 1.353 . S
C798 H856 0.929 . S
C799 C796 1.356 . S
C799 C801 1.358 . S
C799 H857 0.930 . S
C800 N797 1.314 . S
C800 C798 1.353 . S
C800 H858 0.930 . S
C801 N797 1.279 . S
C801 C799 1.358 . S
C801 H859 0.930 . S
C802 C805 1.348 . S
C802 C806 1.356 . S
C802 O853 1.325 . S
C803 N804 1.279 . S
C803 C806 1.358 . S
C803 H860 0.930 . S
N804 C803 1.279 . S
N804 C807 1.314 . S
C805 C802 1.348 . S
C805 C807 1.353 . S
C805 H861 0.929 . S
C806 C802 1.356 . S
C806 C803 1.358 . S
C806 H862 0.930 . S
C807 N804 1.314 . S
C807 C805 1.353 . S
C807 H863 0.930 . S
C808 N809 1.314 . S
C808 C813 1.353 . S
C808 H814 0.930 . S
N809 Li792 1.990 . S
N809 C808 1.314 . S
N809 C811 1.279 . S
C810 C811 1.358 . S
C810 C812 1.356 . S
C810 H864 0.930 . S
C811 N809 1.279 . S
C811 C810 1.358 . S
C811 H815 0.930 . S
C812 C810 1.356 . S
C812 C813 1.348 . S
C813 C808 1.353 . S
C813 C812 1.348 . S
C813 H865 0.929 . S
H814 C808 0.930 . S
H815 C811 0.930 . S
C816 N817 1.314 . S
C816 C818 1.353 . S
C816 H822 0.930 . S
N817 Li793 1.990 . S
N817 C816 1.314 . S
N817 C820 1.279 . S
C818 C816 1.353 . S
C818 C821 1.348 . S
C818 H866 0.929 . S
C819 C820 1.358 . S
C819 C821 1.356 . S
C819 H867 0.930 . S
C820 N817 1.279 . S
C820 C819 1.358 . S
C820 H823 0.930 . S
C821 C818 1.348 . S
C821 C819 1.356 . S
H822 C816 0.930 . S
H823 C820 0.930 . S
C824 C826 1.348 . S
C824 C827 1.356 . S
C824 O854 1.325 . S
N825 C828 1.314 . S
N825 C829 1.279 . S
C826 C824 1.348 . S
C826 C828 1.353 . S
C826 H868 0.929 . S
C827 C824 1.356 . S
C827 C829 1.358 . S
C827 H869 0.930 . S
C828 N825 1.314 . S
C828 C826 1.353 . S
C828 H870 0.930 . S
C829 N825 1.279 . S
C829 C827 1.358 . S
C829 H871 0.930 . S
C830 C831 1.348 . S
C830 C832 1.356 . S
C830 O855 1.325 . S
C831 C830 1.348 . S
C831 C833 1.353 . S
C831 H872 0.929 . S
C832 C830 1.356 . S
C832 C834 1.358 . S
C832 H873 0.930 . S
C833 C831 1.353 . S
C833 N835 1.314 . S
C833 H874 0.930 . S
C834 C832 1.358 . S
C834 N835 1.279 . S
C834 H875 0.930 . S
N835 C833 1.314 . S
N835 C834 1.279 . S
C836 C838 1.353 . S
C836 N839 1.314 . S
C836 H842 0.930 . S
C837 N839 1.279 . S
C837 C840 1.358 . S
C837 H843 0.930 . S
C838 C836 1.353 . S
C838 C841 1.348 . S
C838 H876 0.929 . S
N839 Li794 1.990 . S
N839 C836 1.314 . S
N839 C837 1.279 . S
C840 C837 1.358 . S
C840 C841 1.356 . S
C840 H877 0.930 . S
C841 C838 1.348 . S
C841 C840 1.356 . S
H842 C836 0.930 . S
H843 C837 0.930 . S
C844 N845 1.314 . S
C844 C846 1.353 . S
C844 H850 0.930 . S
N845 Li795 1.990 . S
N845 C844 1.314 . S
N845 C848 1.279 . S
C846 C844 1.353 . S
C846 C849 1.348 . S
C846 H878 0.929 . S
C847 C848 1.358 . S
C847 C849 1.356 . S
C847 H879 0.930 . S
C848 N845 1.279 . S
C848 C847 1.358 . S
C848 H851 0.930 . S
C849 C846 1.348 . S
C849 C847 1.356 . S
H850 C844 0.930 . S
H851 C848 0.930 . S
O852 Li792 1.956 . S
O852 Li793 1.970 . S
O852 Li794 1.961 . S
O852 C796 1.325 . S
O853 Li792 1.970 . S
O853 Li793 1.956 . S
O853 Li795 1.961 . S
O853 C802 1.325 . S
O854 Li792 1.961 . S
O854 Li794 1.956 . S
O854 Li795 1.970 . S
O854 C824 1.325 . S
O855 Li793 1.961 . S
O855 Li794 1.970 . S
O855 Li795 1.956 . S
O855 C830 1.325 . S
H856 C798 0.929 . S
H857 C799 0.930 . S
H858 C800 0.930 . S
H859 C801 0.930 . S
H860 C803 0.930 . S
H861 C805 0.929 . S
H862 C806 0.930 . S
H863 C807 0.930 . S
H864 C810 0.930 . S
H865 C813 0.929 . S
H866 C818 0.929 . S
H867 C819 0.930 . S
H868 C826 0.929 . S
H869 C827 0.930 . S
H870 C828 0.930 . S
H871 C829 0.930 . S
H872 C831 0.929 . S
H873 C832 0.930 . S
H874 C833 0.930 . S
H875 C834 0.930 . S
H876 C838 0.929 . S
H877 C840 0.930 . S
H878 C846 0.929 . S
H879 C847 0.930 . S
Li880 N897 1.990 . S
Li880 O940 1.956 . S
Li880 O941 1.970 . S
Li880 O942 1.961 . S
Li881 N905 1.990 . S
Li881 O940 1.970 . S
Li881 O941 1.956 . S
Li881 O943 1.961 . S
Li882 N927 1.990 1_545 S
Li882 O940 1.961 . S
Li882 O942 1.956 . S
Li882 O943 1.970 . S
Li883 N933 1.990 . S
Li883 O941 1.961 . S
Li883 O942 1.970 . S
Li883 O943 1.956 . S
C884 C886 1.348 . S
C884 C887 1.356 . S
C884 O940 1.325 . S
N885 C888 1.314 . S
N885 C889 1.279 . S
C886 C884 1.348 . S
C886 C888 1.353 . S
C886 H944 0.929 . S
C887 C884 1.356 . S
C887 C889 1.358 . S
C887 H945 0.930 . S
C888 N885 1.314 . S
C888 C886 1.353 . S
C888 H946 0.930 . S
C889 N885 1.279 . S
C889 C887 1.358 . S
C889 H947 0.930 . S
C890 C893 1.348 . S
C890 C894 1.356 . S
C890 O941 1.325 . S
C891 N892 1.279 . S
C891 C894 1.358 . S
C891 H948 0.930 . S
N892 C891 1.279 . S
N892 C895 1.314 . S
C893 C890 1.348 . S
C893 C895 1.353 . S
C893 H949 0.929 . S
C894 C890 1.356 . S
C894 C891 1.358 . S
C894 H950 0.930 . S
C895 N892 1.314 . S
C895 C893 1.353 . S
C895 H951 0.930 . S
C896 N897 1.314 . S
C896 C901 1.353 . S
C896 H902 0.930 . S
N897 Li880 1.990 . S
N897 C896 1.314 . S
N897 C899 1.279 . S
C898 C899 1.358 . S
C898 C900 1.356 . S
C898 H952 0.930 . S
C899 N897 1.279 . S
C899 C898 1.358 . S
C899 H903 0.930 . S
C900 C898 1.356 . S
C900 C901 1.348 . S
C901 C896 1.353 . S
C901 C900 1.348 . S
C901 H953 0.929 . S
H902 C896 0.930 . S
H903 C899 0.930 . S
C904 N905 1.314 . S
C904 C906 1.353 . S
C904 H910 0.876 1_545 S
N905 Li881 1.990 . S
N905 C904 1.314 . S
N905 C908 1.279 . S
C906 C904 1.353 . S
C906 C909 1.348 . S
C906 H954 0.929 1_545 S
C907 C908 1.358 . S
C907 C909 1.356 . S
C907 H955 0.930 . S
C908 N905 1.279 . S
C908 C907 1.358 . S
C908 H911 0.930 . S
C909 C906 1.348 . S
C909 C907 1.356 . S
H910 C904 0.876 1_565 S
H911 C908 0.930 . S
C912 C914 1.348 . S
C912 C915 1.356 . S
C912 O942 1.325 . S
N913 C916 1.314 . S
N913 C917 1.279 . S
C914 C912 1.348 . S
C914 C916 1.353 . S
C914 H956 0.929 . S
C915 C912 1.356 . S
C915 C917 1.358 . S
C915 H957 0.930 . S
C916 N913 1.314 . S
C916 C914 1.353 . S
C916 H958 0.930 . S
C917 N913 1.279 . S
C917 C915 1.358 . S
C917 H959 0.930 . S
C918 C919 1.348 . S
C918 C920 1.356 . S
C918 O943 1.325 1_565 S
C919 C918 1.348 . S
C919 C921 1.353 . S
C919 H960 0.929 . S
C920 C918 1.356 . S
C920 C922 1.358 . S
C920 H961 0.930 . S
C921 C919 1.353 . S
C921 N923 1.314 . S
C921 H962 0.930 . S
C922 C920 1.358 . S
C922 N923 1.279 . S
C922 H963 0.930 . S
N923 C921 1.314 . S
N923 C922 1.279 . S
C924 C926 1.353 . S
C924 N927 1.314 . S
C924 H930 0.930 . S
C925 N927 1.279 . S
C925 C928 1.358 . S
C925 H931 0.930 . S
C926 C924 1.353 . S
C926 C929 1.348 . S
C926 H964 0.929 . S
N927 Li882 1.990 1_565 S
N927 C924 1.314 . S
N927 C925 1.279 . S
C928 C925 1.358 . S
C928 C929 1.356 . S
C928 H965 0.930 . S
C929 C926 1.348 . S
C929 C928 1.356 . S
H930 C924 0.930 . S
H931 C925 0.930 . S
C932 N933 1.314 . S
C932 C934 1.353 . S
C932 H938 0.930 . S
N933 Li883 1.990 . S
N933 C932 1.314 . S
N933 C936 1.284 . S
C934 C932 1.353 . S
C934 C937 1.348 . S
C934 H966 0.929 . S
C935 C936 1.359 1_565 S
C935 C937 1.356 1_565 S
C935 H967 0.930 . S
C936 N933 1.284 . S
C936 C935 1.359 1_545 S
C936 H939 0.924 1_545 S
C937 C934 1.348 . S
C937 C935 1.356 1_545 S
H938 C932 0.930 . S
H939 C936 0.924 1_565 S
O940 Li880 1.956 . S
O940 Li881 1.970 . S
O940 Li882 1.961 . S
O940 C884 1.325 . S
O941 Li880 1.970 . S
O941 Li881 1.956 . S
O941 Li883 1.961 . S
O941 C890 1.325 . S
O942 Li880 1.961 . S
O942 Li882 1.956 . S
O942 Li883 1.970 . S
O942 C912 1.325 . S
O943 Li881 1.961 . S
O943 Li882 1.970 . S
O943 Li883 1.956 . S
O943 C918 1.325 1_545 S
H944 C886 0.929 . S
H945 C887 0.930 . S
H946 C888 0.930 . S
H947 C889 0.930 . S
H948 C891 0.930 . S
H949 C893 0.929 . S
H950 C894 0.930 . S
H951 C895 0.930 . S
H952 C898 0.930 . S
H953 C901 0.929 . S
H954 C906 0.929 1_565 S
H955 C907 0.930 . S
H956 C914 0.929 . S
H957 C915 0.930 . S
H958 C916 0.930 . S
H959 C917 0.930 . S
H960 C919 0.929 . S
H961 C920 0.930 . S
H962 C921 0.930 . S
H963 C922 0.930 . S
H964 C926 0.929 . S
H965 C928 0.930 . S
H966 C934 0.929 . S
H967 C935 0.930 . S
Li968 N985 1.990 . S
Li968 O1028 1.973 . S
Li968 O1029 1.971 1_554 S
Li968 O1030 1.940 1_554 S
Li969 N993 1.990 . S
Li969 O1028 1.970 . S
Li969 O1029 1.956 1_554 S
Li969 O1031 1.961 . S
Li970 N1015 1.990 . S
Li970 O1028 1.961 . S
Li970 O1030 1.956 1_554 S
Li970 O1031 1.970 . S
Li971 N1021 1.990 . S
Li971 O1029 1.961 . S
Li971 O1030 1.970 . S
Li971 O1031 1.956 1_556 S
C972 C974 1.348 . S
C972 C975 1.356 . S
C972 O1028 1.325 . S
N973 C976 1.314 . S
N973 C977 1.279 . S
C974 C972 1.348 . S
C974 C976 1.353 . S
C974 H1032 0.929 . S
C975 C972 1.356 . S
C975 C977 1.358 . S
C975 H1033 0.930 . S
C976 N973 1.314 . S
C976 C974 1.353 . S
C976 H1034 0.930 . S
C977 N973 1.279 . S
C977 C975 1.358 . S
C977 H1035 0.930 . S
C978 C981 1.365 . S
C978 C982 1.356 . S
C978 O1029 1.325 . S
C979 N980 1.279 . S
C979 C982 1.358 . S
C979 H1036 0.930 . S
N980 C979 1.279 . S
N980 C983 1.314 . S
C981 C978 1.365 . S
C981 C983 1.349 . S
C981 H1037 0.919 1_556 S
C982 C978 1.356 . S
C982 C979 1.358 . S
C982 H1038 0.930 . S
C983 N980 1.314 . S
C983 C981 1.349 . S
C983 H1039 0.938 . S
C984 N985 1.285 1_556 S
C984 C989 1.353 . S
C984 H990 0.930 . S
N985 Li968 1.990 . S
N985 C984 1.285 1_554 S
N985 C987 1.310 . S
C986 C987 1.358 . S
C986 C988 1.313 1_554 S
C986 H1040 0.930 . S
C987 N985 1.310 . S
C987 C986 1.358 . S
C987 H991 0.930 . S
C988 C986 1.313 1_556 S
C988 C989 1.395 . S
C989 C984 1.353 . S
C989 C988 1.395 . S
C989 H1041 0.929 . S
H990 C984 0.930 . S
H991 C987 0.930 . S
C992 N993 1.314 . S
C992 C994 1.353 . S
C992 H998 0.930 . S
N993 Li969 1.990 . S
N993 C992 1.314 . S
N993 C996 1.279 . S
C994 C992 1.353 . S
C994 C997 1.348 . S
C994 H1042 0.929 . S
C995 C996 1.358 . S
C995 C997 1.356 . S
C995 H1043 0.930 . S
C996 N993 1.279 . S
C996 C995 1.358 . S
C996 H999 0.930 . S
C997 C994 1.348 . S
C997 C995 1.356 . S
H998 C992 0.930 . S
H999 C996 0.930 . S
C1000 C1002 1.348 . S
C1000 C1003 1.356 . S
C1000 O1030 1.325 . S
N1001 C1004 1.314 . S
N1001 C1005 1.279 . S
C1002 C1000 1.348 . S
C1002 C1004 1.353 . S
C1002 H1044 0.929 . S
C1003 C1000 1.356 . S
C1003 C1005 1.358 . S
C1003 H1045 0.930 . S
C1004 N1001 1.314 . S
C1004 C1002 1.353 . S
C1004 H1046 0.930 . S
C1005 N1001 1.279 . S
C1005 C1003 1.358 . S
C1005 H1047 0.930 . S
C1006 C1007 1.333 1_554 S
C1006 C1008 1.366 . S
C1006 O1031 1.327 . S
C1007 C1006 1.333 1_556 S
C1007 C1009 1.353 . S
C1007 H1048 0.929 . S
C1008 C1006 1.366 . S
C1008 C1010 1.358 . S
C1008 H1049 0.930 . S
C1009 C1007 1.353 . S
C1009 N1011 1.324 . S
C1009 H1050 0.930 . S
C1010 C1008 1.358 . S
C1010 N1011 1.268 1_554 S
C1010 H1051 0.930 . S
N1011 C1009 1.324 . S
N1011 C1010 1.268 1_556 S
C1012 C1014 1.353 . S
C1012 N1015 1.314 . S
C1012 H1018 0.930 . S
C1013 N1015 1.279 1_556 S
C1013 C1016 1.358 . S
C1013 H1019 0.930 . S
C1014 C1012 1.353 . S
C1014 C1017 1.348 . S
C1014 H1052 0.929 . S
N1015 Li970 1.990 . S
N1015 C1012 1.314 . S
N1015 C1013 1.279 1_554 S
C1016 C1013 1.358 . S
C1016 C1017 1.356 1_556 S
C1016 H1053 0.930 . S
C1017 C1014 1.348 . S
C1017 C1016 1.356 1_554 S
H1018 C1012 0.930 . S
H1019 C1013 0.930 . S
C1020 N1021 1.314 . S
C1020 C1022 1.353 . S
C1020 H1026 0.930 . S
N1021 Li971 1.990 . S
N1021 C1020 1.314 . S
N1021 C1024 1.279 . S
C1022 C1020 1.353 . S
C1022 C1025 1.348 . S
C1022 H1054 0.929 . S
C1023 C1024 1.358 . S
C1023 C1025 1.356 . S
C1023 H1055 0.930 . S
C1024 N1021 1.279 . S
C1024 C1023 1.358 . S
C1024 H1027 0.930 . S
C1025 C1022 1.348 . S
C1025 C1023 1.356 . S
H1026 C1020 0.930 . S
H1027 C1024 0.930 . S
O1028 Li968 1.973 . S
O1028 Li969 1.970 . S
O1028 Li970 1.961 . S
O1028 C972 1.325 . S
O1029 Li968 1.971 1_556 S
O1029 Li969 1.956 1_556 S
O1029 Li971 1.961 . S
O1029 C978 1.325 . S
O1030 Li968 1.940 1_556 S
O1030 Li970 1.956 1_556 S
O1030 Li971 1.970 . S
O1030 C1000 1.325 . S
O1031 Li969 1.961 . S
O1031 Li970 1.970 . S
O1031 Li971 1.956 1_554 S
O1031 C1006 1.327 . S
H1032 C974 0.929 . S
H1033 C975 0.930 . S
H1034 C976 0.930 . S
H1035 C977 0.930 . S
H1036 C979 0.930 . S
H1037 C981 0.919 1_554 S
H1038 C982 0.930 . S
H1039 C983 0.938 . S
H1040 C986 0.930 . S
H1041 C989 0.929 . S
H1042 C994 0.929 . S
H1043 C995 0.930 . S
H1044 C1002 0.929 . S
H1045 C1003 0.930 . S
H1046 C1004 0.930 . S
H1047 C1005 0.930 . S
H1048 C1007 0.929 . S
H1049 C1008 0.930 . S
H1050 C1009 0.930 . S
H1051 C1010 0.930 . S
H1052 C1014 0.929 . S
H1053 C1016 0.930 . S
H1054 C1022 0.929 . S
H1055 C1023 0.930 . S
Li1056 N1073 1.990 . S
Li1056 O1116 1.956 . S
Li1056 O1117 1.970 . S
Li1056 O1118 1.961 . S
Li1057 N1081 1.990 . S
Li1057 O1116 1.970 . S
Li1057 O1117 1.956 . S
Li1057 O1119 1.961 . S
Li1058 N1103 1.990 . S
Li1058 O1116 1.961 . S
Li1058 O1118 1.956 . S
Li1058 O1119 1.970 . S
Li1059 N1109 1.990 1_554 S
Li1059 O1117 1.961 . S
Li1059 O1118 1.970 . S
Li1059 O1119 1.956 . S
C1060 C1062 1.348 . S
C1060 C1063 1.356 . S
C1060 O1116 1.325 . S
N1061 C1064 1.314 . S
N1061 C1065 1.279 . S
C1062 C1060 1.348 . S
C1062 C1064 1.353 . S
C1062 H1120 0.929 . S
C1063 C1060 1.356 . S
C1063 C1065 1.358 . S
C1063 H1121 0.930 . S
C1064 N1061 1.314 . S
C1064 C1062 1.353 . S
C1064 H1122 0.930 . S
C1065 N1061 1.279 . S
C1065 C1063 1.358 . S
C1065 H1123 0.930 . S
C1066 C1069 1.348 . S
C1066 C1070 1.356 . S
C1066 O1117 1.325 . S
C1067 N1068 1.279 . S
C1067 C1070 1.358 . S
C1067 H1124 0.930 . S
N1068 C1067 1.279 . S
N1068 C1071 1.314 . S
C1069 C1066 1.348 . S
C1069 C1071 1.353 . S
C1069 H1125 0.929 . S
C1070 C1066 1.356 . S
C1070 C1067 1.358 . S
C1070 H1126 0.930 . S
C1071 N1068 1.314 . S
C1071 C1069 1.353 . S
C1071 H1127 0.930 . S
C1072 N1073 1.314 . S
C1072 C1077 1.353 . S
C1072 H1078 0.925 1_554 S
N1073 Li1056 1.990 . S
N1073 C1072 1.314 . S
N1073 C1075 1.279 . S
C1074 C1075 1.358 . S
C1074 C1076 1.356 . S
C1074 H1128 0.930 . S
C1075 N1073 1.279 . S
C1075 C1074 1.358 . S
C1075 H1079 0.930 . S
C1076 C1074 1.356 . S
C1076 C1077 1.348 . S
C1077 C1072 1.353 . S
C1077 C1076 1.348 . S
C1077 H1129 0.929 1_554 S
H1078 C1072 0.925 1_556 S
H1079 C1075 0.930 . S
C1080 N1081 1.314 . S
C1080 C1082 1.353 . S
C1080 H1086 0.930 . S
N1081 Li1057 1.990 . S
N1081 C1080 1.314 . S
N1081 C1084 1.279 . S
C1082 C1080 1.353 . S
C1082 C1085 1.348 . S
C1082 H1130 0.929 . S
C1083 C1084 1.358 . S
C1083 C1085 1.356 . S
C1083 H1131 0.930 . S
C1084 N1081 1.279 . S
C1084 C1083 1.358 . S
C1084 H1087 0.930 . S
C1085 C1082 1.348 . S
C1085 C1083 1.356 . S
H1086 C1080 0.930 . S
H1087 C1084 0.930 . S
C1088 C1090 1.348 . S
C1088 C1091 1.356 . S
C1088 O1118 1.325 1_556 S
N1089 C1092 1.314 . S
N1089 C1093 1.279 . S
C1090 C1088 1.348 . S
C1090 C1092 1.353 . S
C1090 H1132 0.929 . S
C1091 C1088 1.356 . S
C1091 C1093 1.358 . S
C1091 H1133 0.930 1_556 S
C1092 N1089 1.314 . S
C1092 C1090 1.353 . S
C1092 H1134 0.930 . S
C1093 N1089 1.279 . S
C1093 C1091 1.358 . S
C1093 H1135 0.930 . S
C1094 C1095 1.348 . S
C1094 C1096 1.356 . S
C1094 O1119 1.325 . S
C1095 C1094 1.348 . S
C1095 C1097 1.353 . S
C1095 H1136 0.929 . S
C1096 C1094 1.356 . S
C1096 C1098 1.358 . S
C1096 H1137 0.930 . S
C1097 C1095 1.353 . S
C1097 N1099 1.314 . S
C1097 H1138 0.930 . S
C1098 C1096 1.358 . S
C1098 N1099 1.279 . S
C1098 H1139 0.930 . S
N1099 C1097 1.314 . S
N1099 C1098 1.279 . S
C1100 C1102 1.353 . S
C1100 N1103 1.314 . S
C1100 H1106 0.930 . S
C1101 N1103 1.279 . S
C1101 C1104 1.358 . S
C1101 H1107 0.930 . S
C1102 C1100 1.353 . S
C1102 C1105 1.348 . S
C1102 H1140 0.929 . S
N1103 Li1058 1.990 . S
N1103 C1100 1.314 . S
N1103 C1101 1.279 . S
C1104 C1101 1.358 . S
C1104 C1105 1.356 . S
C1104 H1141 0.930 . S
C1105 C1102 1.348 . S
C1105 C1104 1.356 . S
H1106 C1100 0.930 . S
H1107 C1101 0.930 . S
C1108 N1109 1.314 . S
C1108 C1110 1.353 . S
C1108 H1114 0.930 . S
N1109 Li1059 1.990 1_556 S
N1109 C1108 1.314 . S
N1109 C1112 1.279 . S
C1110 C1108 1.353 . S
C1110 C1113 1.348 . S
C1110 H1142 0.929 . S
C1111 C1112 1.358 . S
C1111 C1113 1.356 . S
C1111 H1143 0.930 . S
C1112 N1109 1.279 . S
C1112 C1111 1.358 . S
C1112 H1115 0.930 . S
C1113 C1110 1.348 . S
C1113 C1111 1.356 . S
H1114 C1108 0.930 . S
H1115 C1112 0.930 . S
O1116 Li1056 1.956 . S
O1116 Li1057 1.970 . S
O1116 Li1058 1.961 . S
O1116 C1060 1.325 . S
O1117 Li1056 1.970 . S
O1117 Li1057 1.956 . S
O1117 Li1059 1.961 . S
O1117 C1066 1.325 . S
O1118 Li1056 1.961 . S
O1118 Li1058 1.956 . S
O1118 Li1059 1.970 . S
O1118 C1088 1.325 1_554 S
O1119 Li1057 1.961 . S
O1119 Li1058 1.970 . S
O1119 Li1059 1.956 . S
O1119 C1094 1.325 . S
H1120 C1062 0.929 . S
H1121 C1063 0.930 . S
H1122 C1064 0.930 . S
H1123 C1065 0.930 . S
H1124 C1067 0.930 . S
H1125 C1069 0.929 . S
H1126 C1070 0.930 . S
H1127 C1071 0.930 . S
H1128 C1074 0.930 . S
H1129 C1077 0.929 1_556 S
H1130 C1082 0.929 . S
H1131 C1083 0.930 . S
H1132 C1090 0.929 . S
H1133 C1091 0.930 1_554 S
H1134 C1092 0.930 . S
H1135 C1093 0.930 . S
H1136 C1095 0.929 . S
H1137 C1096 0.930 . S
H1138 C1097 0.930 . S
H1139 C1098 0.930 . S
H1140 C1102 0.929 . S
H1141 C1104 0.930 . S
H1142 C1110 0.929 . S
H1143 C1111 0.930 . S
Li1144 N1161 1.990 . S
Li1144 O1204 1.956 . S
Li1144 O1205 1.970 . S
Li1144 O1206 1.961 . S
Li1145 N1169 1.990 . S
Li1145 O1204 1.970 . S
Li1145 O1205 1.956 . S
Li1145 O1207 1.961 . S
Li1146 N1191 1.990 . S
Li1146 O1204 1.961 . S
Li1146 O1206 1.956 . S
Li1146 O1207 1.970 . S
Li1147 N1197 1.990 . S
Li1147 O1205 1.961 . S
Li1147 O1206 1.970 . S
Li1147 O1207 1.956 . S
C1148 C1150 1.348 . S
C1148 C1151 1.356 . S
C1148 O1204 1.325 . S
N1149 C1152 1.314 . S
N1149 C1153 1.279 . S
C1150 C1148 1.348 . S
C1150 C1152 1.353 . S
C1150 H1208 0.929 . S
C1151 C1148 1.356 . S
C1151 C1153 1.358 . S
C1151 H1209 0.930 . S
C1152 N1149 1.314 . S
C1152 C1150 1.353 . S
C1152 H1210 0.930 . S
C1153 N1149 1.279 . S
C1153 C1151 1.358 . S
C1153 H1211 0.930 . S
C1154 C1157 1.348 . S
C1154 C1158 1.356 . S
C1154 O1205 1.325 . S
C1155 N1156 1.279 . S
C1155 C1158 1.358 . S
C1155 H1212 0.930 . S
N1156 C1155 1.279 . S
N1156 C1159 1.314 . S
C1157 C1154 1.348 . S
C1157 C1159 1.353 . S
C1157 H1213 0.929 . S
C1158 C1154 1.356 . S
C1158 C1155 1.358 . S
C1158 H1214 0.930 . S
C1159 N1156 1.314 . S
C1159 C1157 1.353 . S
C1159 H1215 0.930 . S
C1160 N1161 1.314 . S
C1160 C1165 1.353 . S
C1160 H1166 0.930 . S
N1161 Li1144 1.990 . S
N1161 C1160 1.314 . S
N1161 C1163 1.279 . S
C1162 C1163 1.358 . S
C1162 C1164 1.356 . S
C1162 H1216 0.930 . S
C1163 N1161 1.279 . S
C1163 C1162 1.358 . S
C1163 H1167 0.930 . S
C1164 C1162 1.356 . S
C1164 C1165 1.348 . S
C1165 C1160 1.353 . S
C1165 C1164 1.348 . S
C1165 H1217 0.929 . S
H1166 C1160 0.930 . S
H1167 C1163 0.930 . S
C1168 N1169 1.314 . S
C1168 C1170 1.353 . S
C1168 H1174 0.930 . S
N1169 Li1145 1.990 . S
N1169 C1168 1.314 . S
N1169 C1172 1.279 . S
C1170 C1168 1.353 . S
C1170 C1173 1.348 . S
C1170 H1218 0.929 . S
C1171 C1172 1.358 . S
C1171 C1173 1.356 . S
C1171 H1219 0.930 . S
C1172 N1169 1.279 . S
C1172 C1171 1.358 . S
C1172 H1175 0.930 . S
C1173 C1170 1.348 . S
C1173 C1171 1.356 . S
H1174 C1168 0.930 . S
H1175 C1172 0.930 . S
C1176 C1178 1.348 . S
C1176 C1179 1.356 . S
C1176 O1206 1.325 . S
N1177 C1180 1.314 . S
N1177 C1181 1.279 . S
C1178 C1176 1.348 . S
C1178 C1180 1.353 . S
C1178 H1220 0.929 . S
C1179 C1176 1.356 . S
C1179 C1181 1.358 . S
C1179 H1221 0.930 . S
C1180 N1177 1.314 . S
C1180 C1178 1.353 . S
C1180 H1222 0.930 . S
C1181 N1177 1.279 . S
C1181 C1179 1.358 . S
C1181 H1223 0.930 . S
C1182 C1183 1.348 1_554 S
C1182 C1184 1.356 . S
C1182 O1207 1.325 . S
C1183 C1182 1.348 1_556 S
C1183 C1185 1.353 . S
C1183 H1224 0.929 . S
C1184 C1182 1.356 . S
C1184 C1186 1.358 1_554 S
C1184 H1225 0.930 . S
C1185 C1183 1.353 . S
C1185 N1187 1.314 . S
C1185 H1226 0.930 . S
C1186 C1184 1.358 1_556 S
C1186 N1187 1.279 . S
C1186 H1227 0.930 . S
N1187 C1185 1.314 . S
N1187 C1186 1.279 . S
C1188 C1190 1.353 1_554 S
C1188 N1191 1.314 . S
C1188 H1194 0.930 . S
C1189 N1191 1.279 . S
C1189 C1192 1.358 1_554 S
C1189 H1195 0.930 . S
C1190 C1188 1.353 1_556 S
C1190 C1193 1.348 . S
C1190 H1228 0.929 . S
N1191 Li1146 1.990 . S
N1191 C1188 1.314 . S
N1191 C1189 1.279 . S
C1192 C1189 1.358 1_556 S
C1192 C1193 1.356 . S
C1192 H1229 0.930 . S
C1193 C1190 1.348 . S
C1193 C1192 1.356 . S
H1194 C1188 0.930 . S
H1195 C1189 0.930 . S
C1196 N1197 1.314 . S
C1196 C1198 1.353 . S
C1196 H1202 0.930 . S
N1197 Li1147 1.990 . S
N1197 C1196 1.314 . S
N1197 C1200 1.279 . S
C1198 C1196 1.353 . S
C1198 C1201 1.348 . S
C1198 H1230 0.929 . S
C1199 C1200 1.358 . S
C1199 C1201 1.356 . S
C1199 H1231 0.930 . S
C1200 N1197 1.279 . S
C1200 C1199 1.358 . S
C1200 H1203 0.930 . S
C1201 C1198 1.348 . S
C1201 C1199 1.356 . S
H1202 C1196 0.930 . S
H1203 C1200 0.930 . S
O1204 Li1144 1.956 . S
O1204 Li1145 1.970 . S
O1204 Li1146 1.961 . S
O1204 C1148 1.325 . S
O1205 Li1144 1.970 . S
O1205 Li1145 1.956 . S
O1205 Li1147 1.961 . S
O1205 C1154 1.325 . S
O1206 Li1144 1.961 . S
O1206 Li1146 1.956 . S
O1206 Li1147 1.970 . S
O1206 C1176 1.325 . S
O1207 Li1145 1.961 . S
O1207 Li1146 1.970 . S
O1207 Li1147 1.956 . S
O1207 C1182 1.325 . S
H1208 C1150 0.929 . S
H1209 C1151 0.930 . S
H1210 C1152 0.930 . S
H1211 C1153 0.930 . S
H1212 C1155 0.930 . S
H1213 C1157 0.929 . S
H1214 C1158 0.930 . S
H1215 C1159 0.930 . S
H1216 C1162 0.930 . S
H1217 C1165 0.929 . S
H1218 C1170 0.929 . S
H1219 C1171 0.930 . S
H1220 C1178 0.929 . S
H1221 C1179 0.930 . S
H1222 C1180 0.930 . S
H1223 C1181 0.930 . S
H1224 C1183 0.929 . S
H1225 C1184 0.930 . S
H1226 C1185 0.930 . S
H1227 C1186 0.930 . S
H1228 C1190 0.929 . S
H1229 C1192 0.930 . S
H1230 C1198 0.929 . S
H1231 C1199 0.930 . S
Li1232 N1249 1.990 . S
Li1232 O1292 1.956 . S
Li1232 O1293 1.970 . S
Li1232 O1294 1.961 . S
Li1233 N1257 1.990 . S
Li1233 O1292 1.970 . S
Li1233 O1293 1.956 . S
Li1233 O1295 1.961 . S
Li1234 N1279 1.990 . S
Li1234 O1292 1.961 . S
Li1234 O1294 1.956 . S
Li1234 O1295 1.970 . S
Li1235 N1285 1.990 . S
Li1235 O1293 1.961 . S
Li1235 O1294 1.970 . S
Li1235 O1295 1.956 . S
C1236 C1238 1.348 . S
C1236 C1239 1.356 . S
C1236 O1292 1.325 . S
N1237 C1240 1.314 . S
N1237 C1241 1.279 . S
C1238 C1236 1.348 . S
C1238 C1240 1.353 . S
C1238 H1296 0.929 . S
C1239 C1236 1.356 . S
C1239 C1241 1.358 . S
C1239 H1297 0.930 . S
C1240 N1237 1.314 . S
C1240 C1238 1.353 . S
C1240 H1298 0.930 . S
C1241 N1237 1.279 . S
C1241 C1239 1.358 . S
C1241 H1299 0.930 . S
C1242 C1245 1.348 . S
C1242 C1246 1.356 . S
C1242 O1293 1.325 . S
C1243 N1244 1.279 . S
C1243 C1246 1.358 . S
C1243 H1300 0.930 . S
N1244 C1243 1.279 . S
N1244 C1247 1.314 . S
C1245 C1242 1.348 . S
C1245 C1247 1.353 . S
C1245 H1301 0.929 . S
C1246 C1242 1.356 . S
C1246 C1243 1.358 . S
C1246 H1302 0.930 . S
C1247 N1244 1.314 . S
C1247 C1245 1.353 . S
C1247 H1303 0.930 . S
C1248 N1249 1.314 . S
C1248 C1253 1.353 . S
C1248 H1254 0.930 . S
N1249 Li1232 1.990 . S
N1249 C1248 1.314 . S
N1249 C1251 1.279 . S
C1250 C1251 1.358 . S
C1250 C1252 1.356 . S
C1250 H1304 0.930 . S
C1251 N1249 1.279 . S
C1251 C1250 1.358 . S
C1251 H1255 0.930 . S
C1252 C1250 1.356 . S
C1252 C1253 1.348 . S
C1253 C1248 1.353 . S
C1253 C1252 1.348 . S
C1253 H1305 0.929 . S
H1254 C1248 0.930 . S
H1255 C1251 0.930 . S
C1256 N1257 1.314 . S
C1256 C1258 1.353 . S
C1256 H1262 0.930 . S
N1257 Li1233 1.990 . S
N1257 C1256 1.314 . S
N1257 C1260 1.279 . S
C1258 C1256 1.353 . S
C1258 C1261 1.348 . S
C1258 H1306 0.929 . S
C1259 C1260 1.358 . S
C1259 C1261 1.356 . S
C1259 H1307 0.930 . S
C1260 N1257 1.279 . S
C1260 C1259 1.358 . S
C1260 H1263 0.930 . S
C1261 C1258 1.348 . S
C1261 C1259 1.356 . S
H1262 C1256 0.930 . S
H1263 C1260 0.930 . S
C1264 C1266 1.348 . S
C1264 C1267 1.356 . S
C1264 O1294 1.325 . S
N1265 C1268 1.314 . S
N1265 C1269 1.279 . S
C1266 C1264 1.348 . S
C1266 C1268 1.353 . S
C1266 H1308 0.929 . S
C1267 C1264 1.356 . S
C1267 C1269 1.358 . S
C1267 H1309 0.930 . S
C1268 N1265 1.314 . S
C1268 C1266 1.353 . S
C1268 H1310 0.930 . S
C1269 N1265 1.279 . S
C1269 C1267 1.358 . S
C1269 H1311 0.930 . S
C1270 C1271 1.348 . S
C1270 C1272 1.356 . S
C1270 O1295 1.325 . S
C1271 C1270 1.348 . S
C1271 C1273 1.353 . S
C1271 H1312 0.929 . S
C1272 C1270 1.356 . S
C1272 C1274 1.358 . S
C1272 H1313 0.930 . S
C1273 C1271 1.353 . S
C1273 N1275 1.314 . S
C1273 H1314 0.930 . S
C1274 C1272 1.358 . S
C1274 N1275 1.279 . S
C1274 H1315 0.930 . S
N1275 C1273 1.314 . S
N1275 C1274 1.279 . S
C1276 C1278 1.353 . S
C1276 N1279 1.314 . S
C1276 H1282 0.930 . S
C1277 N1279 1.279 . S
C1277 C1280 1.358 . S
C1277 H1283 0.930 . S
C1278 C1276 1.353 . S
C1278 C1281 1.348 . S
C1278 H1316 0.929 . S
N1279 Li1234 1.990 . S
N1279 C1276 1.314 . S
N1279 C1277 1.279 . S
C1280 C1277 1.358 . S
C1280 C1281 1.356 . S
C1280 H1317 0.930 . S
C1281 C1278 1.348 . S
C1281 C1280 1.356 . S
H1282 C1276 0.930 . S
H1283 C1277 0.930 . S
C1284 N1285 1.314 . S
C1284 C1286 1.353 . S
C1284 H1290 0.930 . S
N1285 Li1235 1.990 . S
N1285 C1284 1.314 . S
N1285 C1288 1.279 . S
C1286 C1284 1.353 . S
C1286 C1289 1.348 . S
C1286 H1318 0.929 . S
C1287 C1288 1.358 . S
C1287 C1289 1.356 . S
C1287 H1319 0.930 . S
C1288 N1285 1.279 . S
C1288 C1287 1.358 . S
C1288 H1291 0.930 . S
C1289 C1286 1.348 . S
C1289 C1287 1.356 . S
H1290 C1284 0.930 . S
H1291 C1288 0.930 . S
O1292 Li1232 1.956 . S
O1292 Li1233 1.970 . S
O1292 Li1234 1.961 . S
O1292 C1236 1.325 . S
O1293 Li1232 1.970 . S
O1293 Li1233 1.956 . S
O1293 Li1235 1.961 . S
O1293 C1242 1.325 . S
O1294 Li1232 1.961 . S
O1294 Li1234 1.956 . S
O1294 Li1235 1.970 . S
O1294 C1264 1.325 . S
O1295 Li1233 1.961 . S
O1295 Li1234 1.970 . S
O1295 Li1235 1.956 . S
O1295 C1270 1.325 . S
H1296 C1238 0.929 . S
H1297 C1239 0.930 . S
H1298 C1240 0.930 . S
H1299 C1241 0.930 . S
H1300 C1243 0.930 . S
H1301 C1245 0.929 . S
H1302 C1246 0.930 . S
H1303 C1247 0.930 . S
H1304 C1250 0.930 . S
H1305 C1253 0.929 . S
H1306 C1258 0.929 . S
H1307 C1259 0.930 . S
H1308 C1266 0.929 . S
H1309 C1267 0.930 . S
H1310 C1268 0.930 . S
H1311 C1269 0.930 . S
H1312 C1271 0.929 . S
H1313 C1272 0.930 . S
H1314 C1273 0.930 . S
H1315 C1274 0.930 . S
H1316 C1278 0.929 . S
H1317 C1280 0.930 . S
H1318 C1286 0.929 . S
H1319 C1287 0.930 . S
Li1320 N1337 1.990 . S
Li1320 O1380 1.956 . S
Li1320 O1381 1.970 . S
Li1320 O1382 1.961 . S
Li1321 N1345 1.990 . S
Li1321 O1380 1.970 . S
Li1321 O1381 1.956 . S
Li1321 O1383 1.961 . S
Li1322 N1367 1.990 . S
Li1322 O1380 1.961 . S
Li1322 O1382 1.956 . S
Li1322 O1383 1.970 . S
Li1323 N1373 1.990 . S
Li1323 O1381 1.961 . S
Li1323 O1382 1.970 . S
Li1323 O1383 1.956 . S
C1324 C1326 1.348 . S
C1324 C1327 1.356 . S
C1324 O1380 1.325 . S
N1325 C1328 1.314 . S
N1325 C1329 1.279 . S
C1326 C1324 1.348 . S
C1326 C1328 1.353 . S
C1326 H1384 0.929 . S
C1327 C1324 1.356 . S
C1327 C1329 1.358 . S
C1327 H1385 0.930 . S
C1328 N1325 1.314 . S
C1328 C1326 1.353 . S
C1328 H1386 0.930 . S
C1329 N1325 1.279 . S
C1329 C1327 1.358 . S
C1329 H1387 0.930 . S
C1330 C1333 1.348 . S
C1330 C1334 1.356 . S
C1330 O1381 1.325 . S
C1331 N1332 1.279 . S
C1331 C1334 1.358 . S
C1331 H1388 0.930 . S
N1332 C1331 1.279 . S
N1332 C1335 1.314 . S
C1333 C1330 1.348 . S
C1333 C1335 1.353 . S
C1333 H1389 0.929 . S
C1334 C1330 1.356 . S
C1334 C1331 1.358 . S
C1334 H1390 0.930 . S
C1335 N1332 1.314 . S
C1335 C1333 1.353 . S
C1335 H1391 0.930 . S
C1336 N1337 1.314 . S
C1336 C1341 1.353 . S
C1336 H1342 0.930 . S
N1337 Li1320 1.990 . S
N1337 C1336 1.314 . S
N1337 C1339 1.279 . S
C1338 C1339 1.358 . S
C1338 C1340 1.356 . S
C1338 H1392 0.930 . S
C1339 N1337 1.279 . S
C1339 C1338 1.358 . S
C1339 H1343 0.930 . S
C1340 C1338 1.356 . S
C1340 C1341 1.348 . S
C1341 C1336 1.353 . S
C1341 C1340 1.348 . S
C1341 H1393 0.929 . S
H1342 C1336 0.930 . S
H1343 C1339 0.930 . S
C1344 N1345 1.314 . S
C1344 C1346 1.353 . S
C1344 H1350 0.930 . S
N1345 Li1321 1.990 . S
N1345 C1344 1.314 . S
N1345 C1348 1.279 . S
C1346 C1344 1.353 . S
C1346 C1349 1.348 . S
C1346 H1394 0.929 . S
C1347 C1348 1.358 . S
C1347 C1349 1.356 . S
C1347 H1395 0.930 . S
C1348 N1345 1.279 . S
C1348 C1347 1.358 . S
C1348 H1351 0.930 . S
C1349 C1346 1.348 . S
C1349 C1347 1.356 . S
H1350 C1344 0.930 . S
H1351 C1348 0.930 . S
C1352 C1354 1.348 . S
C1352 C1355 1.356 . S
C1352 O1382 1.325 . S
N1353 C1356 1.314 . S
N1353 C1357 1.279 . S
C1354 C1352 1.348 . S
C1354 C1356 1.353 . S
C1354 H1396 0.929 . S
C1355 C1352 1.356 . S
C1355 C1357 1.358 . S
C1355 H1397 0.930 . S
C1356 N1353 1.314 . S
C1356 C1354 1.353 . S
C1356 H1398 0.930 . S
C1357 N1353 1.279 . S
C1357 C1355 1.358 . S
C1357 H1399 0.930 . S
C1358 C1359 1.348 . S
C1358 C1360 1.356 . S
C1358 O1383 1.325 . S
C1359 C1358 1.348 . S
C1359 C1361 1.353 . S
C1359 H1400 0.929 . S
C1360 C1358 1.356 . S
C1360 C1362 1.358 . S
C1360 H1401 0.930 . S
C1361 C1359 1.353 . S
C1361 N1363 1.314 . S
C1361 H1402 0.930 . S
C1362 C1360 1.358 . S
C1362 N1363 1.279 . S
C1362 H1403 0.930 . S
N1363 C1361 1.314 . S
N1363 C1362 1.279 . S
C1364 C1366 1.353 . S
C1364 N1367 1.314 . S
C1364 H1370 0.930 . S
C1365 N1367 1.279 . S
C1365 C1368 1.358 . S
C1365 H1371 0.930 . S
C1366 C1364 1.353 . S
C1366 C1369 1.348 . S
C1366 H1404 0.929 . S
N1367 Li1322 1.990 . S
N1367 C1364 1.314 . S
N1367 C1365 1.279 . S
C1368 C1365 1.358 . S
C1368 C1369 1.356 . S
C1368 H1405 0.930 . S
C1369 C1366 1.348 . S
C1369 C1368 1.356 . S
H1370 C1364 0.930 . S
H1371 C1365 0.930 . S
C1372 N1373 1.314 . S
C1372 C1374 1.353 . S
C1372 H1378 0.930 . S
N1373 Li1323 1.990 . S
N1373 C1372 1.314 . S
N1373 C1376 1.279 . S
C1374 C1372 1.353 . S
C1374 C1377 1.348 . S
C1374 H1406 0.929 . S
C1375 C1376 1.358 . S
C1375 C1377 1.356 . S
C1375 H1407 0.930 . S
C1376 N1373 1.279 . S
C1376 C1375 1.358 . S
C1376 H1379 0.930 . S
C1377 C1374 1.348 . S
C1377 C1375 1.356 . S
H1378 C1372 0.930 . S
H1379 C1376 0.930 . S
O1380 Li1320 1.956 . S
O1380 Li1321 1.970 . S
O1380 Li1322 1.961 . S
O1380 C1324 1.325 . S
O1381 Li1320 1.970 . S
O1381 Li1321 1.956 . S
O1381 Li1323 1.961 . S
O1381 C1330 1.325 . S
O1382 Li1320 1.961 . S
O1382 Li1322 1.956 . S
O1382 Li1323 1.970 . S
O1382 C1352 1.325 . S
O1383 Li1321 1.961 . S
O1383 Li1322 1.970 . S
O1383 Li1323 1.956 . S
O1383 C1358 1.325 . S
H1384 C1326 0.929 . S
H1385 C1327 0.930 . S
H1386 C1328 0.930 . S
H1387 C1329 0.930 . S
H1388 C1331 0.930 . S
H1389 C1333 0.929 . S
H1390 C1334 0.930 . S
H1391 C1335 0.930 . S
H1392 C1338 0.930 . S
H1393 C1341 0.929 . S
H1394 C1346 0.929 . S
H1395 C1347 0.930 . S
H1396 C1354 0.929 . S
H1397 C1355 0.930 . S
H1398 C1356 0.930 . S
H1399 C1357 0.930 . S
H1400 C1359 0.929 . S
H1401 C1360 0.930 . S
H1402 C1361 0.930 . S
H1403 C1362 0.930 . S
H1404 C1366 0.929 . S
H1405 C1368 0.930 . S
H1406 C1374 0.929 . S
H1407 C1375 0.930 . S
Li1408 N1425 1.990 . S
Li1408 O1468 1.956 1_545 S
Li1408 O1469 1.970 . S
Li1408 O1470 1.961 . S
Li1409 N1433 1.990 . S
Li1409 O1468 1.970 . S
Li1409 O1469 1.956 1_565 S
Li1409 O1471 1.961 1_565 S
Li1410 N1455 1.990 . S
Li1410 O1468 1.961 1_545 S
Li1410 O1470 1.956 . S
Li1410 O1471 1.970 . S
Li1411 N1461 1.990 . S
Li1411 O1469 1.961 . S
Li1411 O1470 1.970 . S
Li1411 O1471 1.956 . S
C1412 C1414 1.348 . S
C1412 C1415 1.356 . S
C1412 O1468 1.325 . S
N1413 C1416 1.314 . S
N1413 C1417 1.279 . S
C1414 C1412 1.348 . S
C1414 C1416 1.353 . S
C1414 H1472 0.929 . S
C1415 C1412 1.356 . S
C1415 C1417 1.358 . S
C1415 H1473 0.930 . S
C1416 N1413 1.314 . S
C1416 C1414 1.353 . S
C1416 H1474 0.930 . S
C1417 N1413 1.279 . S
C1417 C1415 1.358 . S
C1417 H1475 0.930 . S
C1418 C1421 1.348 . S
C1418 C1422 1.356 . S
C1418 O1469 1.325 . S
C1419 N1420 1.279 . S
C1419 C1422 1.358 . S
C1419 H1476 0.930 . S
N1420 C1419 1.279 . S
N1420 C1423 1.332 . S
C1421 C1418 1.348 . S
C1421 C1423 1.354 . S
C1421 H1477 0.913 1_545 S
C1422 C1418 1.356 . S
C1422 C1419 1.358 . S
C1422 H1478 0.930 . S
C1423 N1420 1.332 . S
C1423 C1421 1.354 . S
C1423 H1479 0.899 1_545 S
C1424 N1425 1.314 . S
C1424 C1429 1.353 . S
C1424 H1430 0.930 . S
N1425 Li1408 1.990 . S
N1425 C1424 1.314 . S
N1425 C1427 1.279 1_545 S
C1426 C1427 1.366 1_545 S
C1426 C1428 1.396 . S
C1426 H1480 0.884 1_545 S
C1427 N1425 1.279 1_565 S
C1427 C1426 1.366 1_565 S
C1427 H1431 0.930 . S
C1428 C1426 1.396 . S
C1428 C1429 1.348 . S
C1429 C1424 1.353 . S
C1429 C1428 1.348 . S
C1429 H1481 0.929 . S
H1430 C1424 0.930 . S
H1431 C1427 0.930 . S
C1432 N1433 1.314 . S
C1432 C1434 1.353 . S
C1432 H1438 0.930 . S
N1433 Li1409 1.990 . S
N1433 C1432 1.314 . S
N1433 C1436 1.279 . S
C1434 C1432 1.353 . S
C1434 C1437 1.348 . S
C1434 H1482 0.929 . S
C1435 C1436 1.358 . S
C1435 C1437 1.356 . S
C1435 H1483 0.930 . S
C1436 N1433 1.279 . S
C1436 C1435 1.358 . S
C1436 H1439 0.930 . S
C1437 C1434 1.348 . S
C1437 C1435 1.356 . S
H1438 C1432 0.930 . S
H1439 C1436 0.930 . S
C1440 C1442 1.348 . S
C1440 C1443 1.356 . S
C1440 O1470 1.325 . S
N1441 C1444 1.314 . S
N1441 C1445 1.279 . S
C1442 C1440 1.348 . S
C1442 C1444 1.353 . S
C1442 H1484 0.929 . S
C1443 C1440 1.356 . S
C1443 C1445 1.358 . S
C1443 H1485 0.930 . S
C1444 N1441 1.314 . S
C1444 C1442 1.353 . S
C1444 H1486 0.930 . S
C1445 N1441 1.279 . S
C1445 C1443 1.358 . S
C1445 H1487 0.936 . S
C1446 C1447 1.330 1_565 S
C1446 C1448 1.363 . S
C1446 O1471 1.334 1_565 S
C1447 C1446 1.330 1_545 S
C1447 C1449 1.353 . S
C1447 H1488 0.929 . S
C1448 C1446 1.363 . S
C1448 C1450 1.358 . S
C1448 H1489 0.930 . S
C1449 C1447 1.353 . S
C1449 N1451 1.314 1_545 S
C1449 H1490 0.930 . S
C1450 C1448 1.358 . S
C1450 N1451 1.279 . S
C1450 H1491 0.930 . S
N1451 C1449 1.314 1_565 S
N1451 C1450 1.279 . S
C1452 C1454 1.353 . S
C1452 N1455 1.314 1_565 S
C1452 H1458 0.930 . S
C1453 N1455 1.279 . S
C1453 C1456 1.358 . S
C1453 H1459 0.930 . S
C1454 C1452 1.353 . S
C1454 C1457 1.348 1_565 S
C1454 H1492 0.929 . S
N1455 Li1410 1.990 . S
N1455 C1452 1.314 1_545 S
N1455 C1453 1.279 . S
C1456 C1453 1.358 . S
C1456 C1457 1.356 . S
C1456 H1493 0.930 . S
C1457 C1454 1.348 1_545 S
C1457 C1456 1.356 . S
H1458 C1452 0.930 . S
H1459 C1453 0.930 . S
C1460 N1461 1.314 . S
C1460 C1462 1.353 . S
C1460 H1466 0.930 . S
N1461 Li1411 1.990 . S
N1461 C1460 1.314 . S
N1461 C1464 1.279 . S
C1462 C1460 1.353 . S
C1462 C1465 1.348 . S
C1462 H1494 0.929 . S
C1463 C1464 1.358 . S
C1463 C1465 1.356 . S
C1463 H1495 0.930 . S
C1464 N1461 1.279 . S
C1464 C1463 1.358 . S
C1464 H1467 0.930 . S
C1465 C1462 1.348 . S
C1465 C1463 1.356 . S
H1466 C1460 0.930 . S
H1467 C1464 0.930 . S
O1468 Li1408 1.956 1_565 S
O1468 Li1409 1.970 . S
O1468 Li1410 1.961 1_565 S
O1468 C1412 1.325 . S
O1469 Li1408 1.970 . S
O1469 Li1409 1.956 1_545 S
O1469 Li1411 1.961 . S
O1469 C1418 1.325 . S
O1470 Li1408 1.961 . S
O1470 Li1410 1.956 . S
O1470 Li1411 1.970 . S
O1470 C1440 1.325 . S
O1471 Li1409 1.961 1_545 S
O1471 Li1410 1.970 . S
O1471 Li1411 1.956 . S
O1471 C1446 1.334 1_545 S
H1472 C1414 0.929 . S
H1473 C1415 0.930 . S
H1474 C1416 0.930 . S
H1475 C1417 0.930 . S
H1476 C1419 0.930 . S
H1477 C1421 0.913 1_565 S
H1478 C1422 0.930 . S
H1479 C1423 0.899 1_565 S
H1480 C1426 0.884 1_565 S
H1481 C1429 0.929 . S
H1482 C1434 0.929 . S
H1483 C1435 0.930 . S
H1484 C1442 0.929 . S
H1485 C1443 0.930 . S
H1486 C1444 0.930 . S
H1487 C1445 0.936 . S
H1488 C1447 0.929 . S
H1489 C1448 0.930 . S
H1490 C1449 0.930 . S
H1491 C1450 0.930 . S
H1492 C1454 0.929 . S
H1493 C1456 0.930 . S
H1494 C1462 0.929 . S
H1495 C1463 0.930 . S
Li1496 N1513 1.990 . S
Li1496 O1556 1.956 . S
Li1496 O1557 1.970 . S
Li1496 O1558 1.961 . S
Li1497 N1521 1.990 . S
Li1497 O1556 1.970 . S
Li1497 O1557 1.956 . S
Li1497 O1559 1.961 . S
Li1498 N1543 1.990 . S
Li1498 O1556 1.961 . S
Li1498 O1558 1.956 . S
Li1498 O1559 1.970 . S
Li1499 N1549 1.990 . S
Li1499 O1557 1.961 . S
Li1499 O1558 1.970 . S
Li1499 O1559 1.956 . S
C1500 C1502 1.348 . S
C1500 C1503 1.356 . S
C1500 O1556 1.325 . S
N1501 C1504 1.314 . S
N1501 C1505 1.279 . S
C1502 C1500 1.348 . S
C1502 C1504 1.353 . S
C1502 H1560 0.929 . S
C1503 C1500 1.356 . S
C1503 C1505 1.358 . S
C1503 H1561 0.930 . S
C1504 N1501 1.314 . S
C1504 C1502 1.353 . S
C1504 H1562 0.930 . S
C1505 N1501 1.279 . S
C1505 C1503 1.358 . S
C1505 H1563 0.930 . S
C1506 C1509 1.348 . S
C1506 C1510 1.356 . S
C1506 O1557 1.325 . S
C1507 N1508 1.279 . S
C1507 C1510 1.358 . S
C1507 H1564 0.930 . S
N1508 C1507 1.279 . S
N1508 C1511 1.314 . S
C1509 C1506 1.348 . S
C1509 C1511 1.353 . S
C1509 H1565 0.929 . S
C1510 C1506 1.356 . S
C1510 C1507 1.358 . S
C1510 H1566 0.930 . S
C1511 N1508 1.314 . S
C1511 C1509 1.353 . S
C1511 H1567 0.930 . S
C1512 N1513 1.314 . S
C1512 C1517 1.353 . S
C1512 H1518 0.930 . S
N1513 Li1496 1.990 . S
N1513 C1512 1.314 . S
N1513 C1515 1.279 . S
C1514 C1515 1.358 . S
C1514 C1516 1.356 . S
C1514 H1568 0.930 . S
C1515 N1513 1.279 . S
C1515 C1514 1.358 . S
C1515 H1519 0.930 . S
C1516 C1514 1.356 . S
C1516 C1517 1.348 . S
C1517 C1512 1.353 . S
C1517 C1516 1.348 . S
C1517 H1569 0.929 . S
H1518 C1512 0.930 . S
H1519 C1515 0.930 . S
C1520 N1521 1.314 . S
C1520 C1522 1.353 . S
C1520 H1526 0.930 . S
N1521 Li1497 1.990 . S
N1521 C1520 1.314 . S
N1521 C1524 1.279 . S
C1522 C1520 1.353 . S
C1522 C1525 1.348 . S
C1522 H1570 0.929 . S
C1523 C1524 1.358 . S
C1523 C1525 1.356 . S
C1523 H1571 0.930 . S
C1524 N1521 1.279 . S
C1524 C1523 1.358 . S
C1524 H1527 0.930 . S
C1525 C1522 1.348 . S
C1525 C1523 1.356 . S
H1526 C1520 0.930 . S
H1527 C1524 0.930 . S
C1528 C1530 1.348 . S
C1528 C1531 1.356 . S
C1528 O1558 1.325 . S
N1529 C1532 1.314 . S
N1529 C1533 1.279 . S
C1530 C1528 1.348 . S
C1530 C1532 1.353 . S
C1530 H1572 0.929 . S
C1531 C1528 1.356 . S
C1531 C1533 1.358 . S
C1531 H1573 0.930 . S
C1532 N1529 1.314 . S
C1532 C1530 1.353 . S
C1532 H1574 0.930 . S
C1533 N1529 1.279 . S
C1533 C1531 1.358 . S
C1533 H1575 0.930 . S
C1534 C1535 1.348 . S
C1534 C1536 1.356 . S
C1534 O1559 1.325 . S
C1535 C1534 1.348 . S
C1535 C1537 1.353 . S
C1535 H1576 0.929 . S
C1536 C1534 1.356 . S
C1536 C1538 1.358 . S
C1536 H1577 0.930 . S
C1537 C1535 1.353 . S
C1537 N1539 1.314 . S
C1537 H1578 0.930 . S
C1538 C1536 1.358 . S
C1538 N1539 1.279 . S
C1538 H1579 0.930 . S
N1539 C1537 1.314 . S
N1539 C1538 1.279 . S
C1540 C1542 1.353 . S
C1540 N1543 1.314 . S
C1540 H1546 0.930 . S
C1541 N1543 1.279 . S
C1541 C1544 1.358 . S
C1541 H1547 0.930 . S
C1542 C1540 1.353 . S
C1542 C1545 1.348 . S
C1542 H1580 0.929 . S
N1543 Li1498 1.990 . S
N1543 C1540 1.314 . S
N1543 C1541 1.279 . S
C1544 C1541 1.358 . S
C1544 C1545 1.356 . S
C1544 H1581 0.930 . S
C1545 C1542 1.348 . S
C1545 C1544 1.356 . S
H1546 C1540 0.930 . S
H1547 C1541 0.930 . S
C1548 N1549 1.314 . S
C1548 C1550 1.353 . S
C1548 H1554 0.930 . S
N1549 Li1499 1.990 . S
N1549 C1548 1.314 . S
N1549 C1552 1.279 . S
C1550 C1548 1.353 . S
C1550 C1553 1.348 . S
C1550 H1582 0.929 . S
C1551 C1552 1.358 . S
C1551 C1553 1.356 . S
C1551 H1583 0.930 . S
C1552 N1549 1.279 . S
C1552 C1551 1.358 . S
C1552 H1555 0.930 . S
C1553 C1550 1.348 . S
C1553 C1551 1.356 . S
H1554 C1548 0.930 . S
H1555 C1552 0.930 . S
O1556 Li1496 1.956 . S
O1556 Li1497 1.970 . S
O1556 Li1498 1.961 . S
O1556 C1500 1.325 . S
O1557 Li1496 1.970 . S
O1557 Li1497 1.956 . S
O1557 Li1499 1.961 . S
O1557 C1506 1.325 . S
O1558 Li1496 1.961 . S
O1558 Li1498 1.956 . S
O1558 Li1499 1.970 . S
O1558 C1528 1.325 . S
O1559 Li1497 1.961 . S
O1559 Li1498 1.970 . S
O1559 Li1499 1.956 . S
O1559 C1534 1.325 . S
H1560 C1502 0.929 . S
H1561 C1503 0.930 . S
H1562 C1504 0.930 . S
H1563 C1505 0.930 . S
H1564 C1507 0.930 . S
H1565 C1509 0.929 . S
H1566 C1510 0.930 . S
H1567 C1511 0.930 . S
H1568 C1514 0.930 . S
H1569 C1517 0.929 . S
H1570 C1522 0.929 . S
H1571 C1523 0.930 . S
H1572 C1530 0.929 . S
H1573 C1531 0.930 . S
H1574 C1532 0.930 . S
H1575 C1533 0.930 . S
H1576 C1535 0.929 . S
H1577 C1536 0.930 . S
H1578 C1537 0.930 . S
H1579 C1538 0.930 . S
H1580 C1542 0.929 . S
H1581 C1544 0.930 . S
H1582 C1550 0.929 . S
H1583 C1551 0.930 . S
Li1584 N1601 1.990 . S
Li1584 O1644 1.956 . S
Li1584 O1645 1.970 . S
Li1584 O1646 1.961 . S
Li1585 N1609 1.990 . S
Li1585 O1644 1.970 . S
Li1585 O1645 1.956 . S
Li1585 O1647 1.961 . S
Li1586 N1631 1.990 . S
Li1586 O1644 1.961 . S
Li1586 O1646 1.956 . S
Li1586 O1647 1.970 . S
Li1587 N1637 1.990 . S
Li1587 O1645 1.961 . S
Li1587 O1646 1.970 . S
Li1587 O1647 1.956 . S
C1588 C1590 1.348 . S
C1588 C1591 1.356 . S
C1588 O1644 1.325 . S
N1589 C1592 1.314 . S
N1589 C1593 1.279 . S
C1590 C1588 1.348 . S
C1590 C1592 1.353 . S
C1590 H1648 0.929 . S
C1591 C1588 1.356 . S
C1591 C1593 1.358 . S
C1591 H1649 0.930 . S
C1592 N1589 1.314 . S
C1592 C1590 1.353 . S
C1592 H1650 0.930 . S
C1593 N1589 1.279 . S
C1593 C1591 1.358 . S
C1593 H1651 0.930 . S
C1594 C1597 1.348 . S
C1594 C1598 1.356 . S
C1594 O1645 1.325 . S
C1595 N1596 1.279 . S
C1595 C1598 1.358 . S
C1595 H1652 0.930 . S
N1596 C1595 1.279 . S
N1596 C1599 1.314 . S
C1597 C1594 1.348 . S
C1597 C1599 1.353 . S
C1597 H1653 0.929 . S
C1598 C1594 1.356 . S
C1598 C1595 1.358 . S
C1598 H1654 0.930 . S
C1599 N1596 1.314 . S
C1599 C1597 1.353 . S
C1599 H1655 0.930 . S
C1600 N1601 1.314 . S
C1600 C1605 1.353 . S
C1600 H1606 0.930 . S
N1601 Li1584 1.990 . S
N1601 C1600 1.314 . S
N1601 C1603 1.279 . S
C1602 C1603 1.358 . S
C1602 C1604 1.356 . S
C1602 H1656 0.930 . S
C1603 N1601 1.279 . S
C1603 C1602 1.358 . S
C1603 H1607 0.930 . S
C1604 C1602 1.356 . S
C1604 C1605 1.348 . S
C1605 C1600 1.353 . S
C1605 C1604 1.348 . S
C1605 H1657 0.929 . S
H1606 C1600 0.930 . S
H1607 C1603 0.930 . S
C1608 N1609 1.314 . S
C1608 C1610 1.353 . S
C1608 H1614 0.930 . S
N1609 Li1585 1.990 . S
N1609 C1608 1.314 . S
N1609 C1612 1.279 . S
C1610 C1608 1.353 . S
C1610 C1613 1.348 . S
C1610 H1658 0.929 . S
C1611 C1612 1.358 . S
C1611 C1613 1.356 . S
C1611 H1659 0.930 . S
C1612 N1609 1.279 . S
C1612 C1611 1.358 . S
C1612 H1615 0.930 . S
C1613 C1610 1.348 . S
C1613 C1611 1.356 . S
H1614 C1608 0.930 . S
H1615 C1612 0.930 . S
C1616 C1618 1.348 . S
C1616 C1619 1.356 . S
C1616 O1646 1.325 . S
N1617 C1620 1.314 . S
N1617 C1621 1.279 . S
C1618 C1616 1.348 . S
C1618 C1620 1.353 . S
C1618 H1660 0.929 . S
C1619 C1616 1.356 . S
C1619 C1621 1.358 . S
C1619 H1661 0.930 . S
C1620 N1617 1.314 . S
C1620 C1618 1.353 . S
C1620 H1662 0.930 . S
C1621 N1617 1.279 . S
C1621 C1619 1.358 . S
C1621 H1663 0.930 . S
C1622 C1623 1.348 . S
C1622 C1624 1.356 . S
C1622 O1647 1.325 . S
C1623 C1622 1.348 . S
C1623 C1625 1.353 . S
C1623 H1664 0.929 . S
C1624 C1622 1.356 . S
C1624 C1626 1.358 . S
C1624 H1665 0.930 . S
C1625 C1623 1.353 . S
C1625 N1627 1.314 . S
C1625 H1666 0.930 . S
C1626 C1624 1.358 . S
C1626 N1627 1.279 . S
C1626 H1667 0.930 . S
N1627 C1625 1.314 . S
N1627 C1626 1.279 . S
C1628 C1630 1.353 . S
C1628 N1631 1.314 . S
C1628 H1634 0.930 . S
C1629 N1631 1.279 . S
C1629 C1632 1.358 . S
C1629 H1635 0.930 . S
C1630 C1628 1.353 . S
C1630 C1633 1.348 . S
C1630 H1668 0.929 . S
N1631 Li1586 1.990 . S
N1631 C1628 1.314 . S
N1631 C1629 1.279 . S
C1632 C1629 1.358 . S
C1632 C1633 1.356 . S
C1632 H1669 0.930 . S
C1633 C1630 1.348 . S
C1633 C1632 1.356 . S
H1634 C1628 0.930 . S
H1635 C1629 0.930 . S
C1636 N1637 1.314 . S
C1636 C1638 1.353 . S
C1636 H1642 0.930 . S
N1637 Li1587 1.990 . S
N1637 C1636 1.314 . S
N1637 C1640 1.279 . S
C1638 C1636 1.353 . S
C1638 C1641 1.348 . S
C1638 H1670 0.929 . S
C1639 C1640 1.358 . S
C1639 C1641 1.356 . S
C1639 H1671 0.930 . S
C1640 N1637 1.279 . S
C1640 C1639 1.358 . S
C1640 H1643 0.930 . S
C1641 C1638 1.348 . S
C1641 C1639 1.356 . S
H1642 C1636 0.930 . S
H1643 C1640 0.930 . S
O1644 Li1584 1.956 . S
O1644 Li1585 1.970 . S
O1644 Li1586 1.961 . S
O1644 C1588 1.325 . S
O1645 Li1584 1.970 . S
O1645 Li1585 1.956 . S
O1645 Li1587 1.961 . S
O1645 C1594 1.325 . S
O1646 Li1584 1.961 . S
O1646 Li1586 1.956 . S
O1646 Li1587 1.970 . S
O1646 C1616 1.325 . S
O1647 Li1585 1.961 . S
O1647 Li1586 1.970 . S
O1647 Li1587 1.956 . S
O1647 C1622 1.325 . S
H1648 C1590 0.929 . S
H1649 C1591 0.930 . S
H1650 C1592 0.930 . S
H1651 C1593 0.930 . S
H1652 C1595 0.930 . S
H1653 C1597 0.929 . S
H1654 C1598 0.930 . S
H1655 C1599 0.930 . S
H1656 C1602 0.930 . S
H1657 C1605 0.929 . S
H1658 C1610 0.929 . S
H1659 C1611 0.930 . S
H1660 C1618 0.929 . S
H1661 C1619 0.930 . S
H1662 C1620 0.930 . S
H1663 C1621 0.930 . S
H1664 C1623 0.929 . S
H1665 C1624 0.930 . S
H1666 C1625 0.930 . S
H1667 C1626 0.930 . S
H1668 C1630 0.929 . S
H1669 C1632 0.930 . S
H1670 C1638 0.929 . S
H1671 C1639 0.930 . S
Li1672 N1689 1.990 . S
Li1672 O1732 1.956 . S
Li1672 O1733 1.970 . S
Li1672 O1734 1.961 1_545 S
Li1673 N1697 1.990 . S
Li1673 O1732 1.970 . S
Li1673 O1733 1.956 . S
Li1673 O1735 1.961 . S
Li1674 N1719 1.990 . S
Li1674 O1732 1.961 . S
Li1674 O1734 1.956 1_545 S
Li1674 O1735 1.970 . S
Li1675 N1725 1.990 . S
Li1675 O1733 1.961 1_565 S
Li1675 O1734 1.970 . S
Li1675 O1735 1.956 1_565 S
C1676 C1678 1.348 . S
C1676 C1679 1.356 . S
C1676 O1732 1.325 . S
N1677 C1680 1.314 . S
N1677 C1681 1.279 . S
C1678 C1676 1.348 . S
C1678 C1680 1.353 . S
C1678 H1736 0.929 . S
C1679 C1676 1.356 . S
C1679 C1681 1.358 . S
C1679 H1737 0.930 . S
C1680 N1677 1.314 . S
C1680 C1678 1.353 . S
C1680 H1738 0.930 . S
C1681 N1677 1.279 . S
C1681 C1679 1.358 . S
C1681 H1739 0.930 . S
C1682 C1685 1.348 . S
C1682 C1686 1.356 . S
C1682 O1733 1.325 . S
C1683 N1684 1.279 . S
C1683 C1686 1.358 . S
C1683 H1740 0.930 . S
N1684 C1683 1.279 . S
N1684 C1687 1.314 . S
C1685 C1682 1.348 . S
C1685 C1687 1.353 . S
C1685 H1741 0.929 . S
C1686 C1682 1.356 . S
C1686 C1683 1.358 . S
C1686 H1742 0.930 . S
C1687 N1684 1.314 . S
C1687 C1685 1.353 . S
C1687 H1743 0.930 . S
C1688 N1689 1.314 1_565 S
C1688 C1693 1.353 . S
C1688 H1694 0.930 . S
N1689 Li1672 1.990 . S
N1689 C1688 1.314 1_545 S
N1689 C1691 1.279 . S
C1690 C1691 1.358 . S
C1690 C1692 1.356 . S
C1690 H1744 0.930 . S
C1691 N1689 1.279 . S
C1691 C1690 1.358 . S
C1691 H1695 0.930 . S
C1692 C1690 1.356 . S
C1692 C1693 1.348 1_545 S
C1693 C1688 1.353 . S
C1693 C1692 1.348 1_565 S
C1693 H1745 0.929 . S
H1694 C1688 0.930 . S
H1695 C1691 0.930 . S
C1696 N1697 1.314 . S
C1696 C1698 1.353 . S
C1696 H1702 0.930 . S
N1697 Li1673 1.990 . S
N1697 C1696 1.314 . S
N1697 C1700 1.279 . S
C1698 C1696 1.353 . S
C1698 C1701 1.348 . S
C1698 H1746 0.929 . S
C1699 C1700 1.358 . S
C1699 C1701 1.356 . S
C1699 H1747 0.930 . S
C1700 N1697 1.279 . S
C1700 C1699 1.358 . S
C1700 H1703 0.930 . S
C1701 C1698 1.348 . S
C1701 C1699 1.356 . S
H1702 C1696 0.930 . S
H1703 C1700 0.930 . S
C1704 C1706 1.348 . S
C1704 C1707 1.356 . S
C1704 O1734 1.325 . S
N1705 C1708 1.314 . S
N1705 C1709 1.279 . S
C1706 C1704 1.348 . S
C1706 C1708 1.353 . S
C1706 H1748 0.929 . S
C1707 C1704 1.356 . S
C1707 C1709 1.358 . S
C1707 H1749 0.930 . S
C1708 N1705 1.314 . S
C1708 C1706 1.353 . S
C1708 H1750 0.930 . S
C1709 N1705 1.279 . S
C1709 C1707 1.358 . S
C1709 H1751 0.930 . S
C1710 C1711 1.348 . S
C1710 C1712 1.356 . S
C1710 O1735 1.325 . S
C1711 C1710 1.348 . S
C1711 C1713 1.353 . S
C1711 H1752 0.924 1_545 S
C1712 C1710 1.356 . S
C1712 C1714 1.358 . S
C1712 H1753 0.930 . S
C1713 C1711 1.353 . S
C1713 N1715 1.314 . S
C1713 H1754 0.936 . S
C1714 C1712 1.358 . S
C1714 N1715 1.279 . S
C1714 H1755 0.930 . S
N1715 C1713 1.314 . S
N1715 C1714 1.279 . S
C1716 C1718 1.353 . S
C1716 N1719 1.314 . S
C1716 H1722 0.930 . S
C1717 N1719 1.279 1_565 S
C1717 C1720 1.358 . S
C1717 H1723 0.930 . S
C1718 C1716 1.353 . S
C1718 C1721 1.335 1_545 S
C1718 H1756 0.929 . S
N1719 Li1674 1.990 . S
N1719 C1716 1.314 . S
N1719 C1717 1.279 1_545 S
C1720 C1717 1.358 . S
C1720 C1721 1.371 . S
C1720 H1757 0.930 . S
C1721 C1718 1.335 1_565 S
C1721 C1720 1.371 . S
H1722 C1716 0.930 . S
H1723 C1717 0.930 . S
C1724 N1725 1.314 . S
C1724 C1726 1.353 . S
C1724 H1730 0.930 . S
N1725 Li1675 1.990 . S
N1725 C1724 1.314 . S
N1725 C1728 1.279 . S
C1726 C1724 1.353 . S
C1726 C1729 1.348 . S
C1726 H1758 0.929 . S
C1727 C1728 1.358 . S
C1727 C1729 1.356 . S
C1727 H1759 0.930 . S
C1728 N1725 1.279 . S
C1728 C1727 1.358 . S
C1728 H1731 0.930 . S
C1729 C1726 1.348 . S
C1729 C1727 1.356 . S
H1730 C1724 0.930 . S
H1731 C1728 0.930 . S
O1732 Li1672 1.956 . S
O1732 Li1673 1.970 . S
O1732 Li1674 1.961 . S
O1732 C1676 1.325 . S
O1733 Li1672 1.970 . S
O1733 Li1673 1.956 . S
O1733 Li1675 1.961 1_545 S
O1733 C1682 1.325 . S
O1734 Li1672 1.961 1_565 S
O1734 Li1674 1.956 1_565 S
O1734 Li1675 1.970 . S
O1734 C1704 1.325 . S
O1735 Li1673 1.961 . S
O1735 Li1674 1.970 . S
O1735 Li1675 1.956 1_545 S
O1735 C1710 1.325 . S
H1736 C1678 0.929 . S
H1737 C1679 0.930 . S
H1738 C1680 0.930 . S
H1739 C1681 0.930 . S
H1740 C1683 0.930 . S
H1741 C1685 0.929 . S
H1742 C1686 0.930 . S
H1743 C1687 0.930 . S
H1744 C1690 0.930 . S
H1745 C1693 0.929 . S
H1746 C1698 0.929 . S
H1747 C1699 0.930 . S
H1748 C1706 0.929 . S
H1749 C1707 0.930 . S
H1750 C1708 0.930 . S
H1751 C1709 0.930 . S
H1752 C1711 0.924 1_565 S
H1753 C1712 0.930 . S
H1754 C1713 0.936 . S
H1755 C1714 0.930 . S
H1756 C1718 0.929 . S
H1757 C1720 0.930 . S
H1758 C1726 0.929 . S
H1759 C1727 0.930 . S
Li1760 N1777 1.990 . S
Li1760 O1820 1.956 . S
Li1760 O1821 1.970 . S
Li1760 O1822 1.961 . S
Li1761 N1785 1.990 . S
Li1761 O1820 1.970 . S
Li1761 O1821 1.956 . S
Li1761 O1823 1.961 . S
Li1762 N1807 1.990 1_554 S
Li1762 O1820 1.961 . S
Li1762 O1822 1.956 . S
Li1762 O1823 1.970 . S
Li1763 N1813 1.990 . S
Li1763 O1821 1.961 . S
Li1763 O1822 1.970 . S
Li1763 O1823 1.956 . S
C1764 C1766 1.348 . S
C1764 C1767 1.356 . S
C1764 O1820 1.325 . S
N1765 C1768 1.314 . S
N1765 C1769 1.279 . S
C1766 C1764 1.348 . S
C1766 C1768 1.353 . S
C1766 H1824 0.929 . S
C1767 C1764 1.356 . S
C1767 C1769 1.358 . S
C1767 H1825 0.930 . S
C1768 N1765 1.314 . S
C1768 C1766 1.353 . S
C1768 H1826 0.930 . S
C1769 N1765 1.279 . S
C1769 C1767 1.358 . S
C1769 H1827 0.930 . S
C1770 C1773 1.348 . S
C1770 C1774 1.356 . S
C1770 O1821 1.325 . S
C1771 N1772 1.279 . S
C1771 C1774 1.358 . S
C1771 H1828 0.930 . S
N1772 C1771 1.279 . S
N1772 C1775 1.314 . S
C1773 C1770 1.348 . S
C1773 C1775 1.353 . S
C1773 H1829 0.929 . S
C1774 C1770 1.356 . S
C1774 C1771 1.358 . S
C1774 H1830 0.930 . S
C1775 N1772 1.314 . S
C1775 C1773 1.353 . S
C1775 H1831 0.930 . S
C1776 N1777 1.314 . S
C1776 C1781 1.353 . S
C1776 H1782 0.930 . S
N1777 Li1760 1.990 . S
N1777 C1776 1.314 . S
N1777 C1779 1.279 . S
C1778 C1779 1.358 . S
C1778 C1780 1.356 . S
C1778 H1832 0.930 . S
C1779 N1777 1.279 . S
C1779 C1778 1.358 . S
C1779 H1783 0.930 . S
C1780 C1778 1.356 . S
C1780 C1781 1.348 . S
C1781 C1776 1.353 . S
C1781 C1780 1.348 . S
C1781 H1833 0.929 . S
H1782 C1776 0.930 . S
H1783 C1779 0.930 . S
C1784 N1785 1.314 . S
C1784 C1786 1.353 . S
C1784 H1790 0.937 . S
N1785 Li1761 1.990 . S
N1785 C1784 1.314 . S
N1785 C1788 1.279 . S
C1786 C1784 1.353 . S
C1786 C1789 1.348 . S
C1786 H1834 0.929 1_554 S
C1787 C1788 1.358 . S
C1787 C1789 1.356 . S
C1787 H1835 0.930 . S
C1788 N1785 1.279 . S
C1788 C1787 1.358 . S
C1788 H1791 0.930 . S
C1789 C1786 1.348 . S
C1789 C1787 1.356 . S
H1790 C1784 0.937 . S
H1791 C1788 0.930 . S
C1792 C1794 1.348 . S
C1792 C1795 1.356 . S
C1792 O1822 1.325 . S
N1793 C1796 1.314 . S
N1793 C1797 1.279 . S
C1794 C1792 1.348 . S
C1794 C1796 1.353 . S
C1794 H1836 0.929 . S
C1795 C1792 1.356 . S
C1795 C1797 1.358 . S
C1795 H1837 0.930 . S
C1796 N1793 1.314 . S
C1796 C1794 1.353 . S
C1796 H1838 0.930 . S
C1797 N1793 1.279 . S
C1797 C1795 1.358 . S
C1797 H1839 0.930 . S
C1798 C1799 1.348 . S
C1798 C1800 1.356 . S
C1798 O1823 1.325 1_556 S
C1799 C1798 1.348 . S
C1799 C1801 1.353 . S
C1799 H1840 0.929 . S
C1800 C1798 1.356 . S
C1800 C1802 1.358 . S
C1800 H1841 0.930 . S
C1801 C1799 1.353 . S
C1801 N1803 1.314 . S
C1801 H1842 0.930 . S
C1802 C1800 1.358 . S
C1802 N1803 1.279 . S
C1802 H1843 0.930 . S
N1803 C1801 1.314 . S
N1803 C1802 1.279 . S
C1804 C1806 1.353 . S
C1804 N1807 1.314 . S
C1804 H1810 0.930 . S
C1805 N1807 1.279 . S
C1805 C1808 1.358 . S
C1805 H1811 0.930 . S
C1806 C1804 1.353 . S
C1806 C1809 1.348 . S
C1806 H1844 0.929 . S
N1807 Li1762 1.990 1_556 S
N1807 C1804 1.314 . S
N1807 C1805 1.279 . S
C1808 C1805 1.358 . S
C1808 C1809 1.356 . S
C1808 H1845 0.930 . S
C1809 C1806 1.348 . S
C1809 C1808 1.356 . S
H1810 C1804 0.930 . S
H1811 C1805 0.930 . S
C1812 N1813 1.314 . S
C1812 C1814 1.353 . S
C1812 H1818 0.930 . S
N1813 Li1763 1.990 . S
N1813 C1812 1.314 . S
N1813 C1816 1.279 . S
C1814 C1812 1.353 . S
C1814 C1817 1.348 . S
C1814 H1846 0.929 . S
C1815 C1816 1.358 1_556 S
C1815 C1817 1.356 1_556 S
C1815 H1847 0.930 . S
C1816 N1813 1.279 . S
C1816 C1815 1.358 1_554 S
C1816 H1819 0.930 1_554 S
C1817 C1814 1.348 . S
C1817 C1815 1.356 1_554 S
H1818 C1812 0.930 . S
H1819 C1816 0.930 1_556 S
O1820 Li1760 1.956 . S
O1820 Li1761 1.970 . S
O1820 Li1762 1.961 . S
O1820 C1764 1.325 . S
O1821 Li1760 1.970 . S
O1821 Li1761 1.956 . S
O1821 Li1763 1.961 . S
O1821 C1770 1.325 . S
O1822 Li1760 1.961 . S
O1822 Li1762 1.956 . S
O1822 Li1763 1.970 . S
O1822 C1792 1.325 . S
O1823 Li1761 1.961 . S
O1823 Li1762 1.970 . S
O1823 Li1763 1.956 . S
O1823 C1798 1.325 1_554 S
H1824 C1766 0.929 . S
H1825 C1767 0.930 . S
H1826 C1768 0.930 . S
H1827 C1769 0.930 . S
H1828 C1771 0.930 . S
H1829 C1773 0.929 . S
H1830 C1774 0.930 . S
H1831 C1775 0.930 . S
H1832 C1778 0.930 . S
H1833 C1781 0.929 . S
H1834 C1786 0.929 1_556 S
H1835 C1787 0.930 . S
H1836 C1794 0.929 . S
H1837 C1795 0.930 . S
H1838 C1796 0.930 . S
H1839 C1797 0.930 . S
H1840 C1799 0.929 . S
H1841 C1800 0.930 . S
H1842 C1801 0.930 . S
H1843 C1802 0.930 . S
H1844 C1806 0.929 . S
H1845 C1808 0.930 . S
H1846 C1814 0.929 . S
H1847 C1815 0.930 . S
Li1848 N1865 1.990 . S
Li1848 O1908 1.956 . S
Li1848 O1909 1.970 . S
Li1848 O1910 1.961 . S
Li1849 N1873 1.990 . S
Li1849 O1908 1.970 . S
Li1849 O1909 1.956 . S
Li1849 O1911 1.961 . S
Li1850 N1895 1.990 . S
Li1850 O1908 1.961 . S
Li1850 O1910 1.956 . S
Li1850 O1911 1.970 . S
Li1851 N1901 1.990 . S
Li1851 O1909 1.961 . S
Li1851 O1910 1.970 . S
Li1851 O1911 1.956 . S
C1852 C1854 1.348 . S
C1852 C1855 1.356 . S
C1852 O1908 1.325 . S
N1853 C1856 1.314 . S
N1853 C1857 1.279 . S
C1854 C1852 1.348 . S
C1854 C1856 1.353 . S
C1854 H1912 0.929 . S
C1855 C1852 1.356 . S
C1855 C1857 1.358 . S
C1855 H1913 0.930 . S
C1856 N1853 1.314 . S
C1856 C1854 1.353 . S
C1856 H1914 0.930 . S
C1857 N1853 1.279 . S
C1857 C1855 1.358 . S
C1857 H1915 0.930 . S
C1858 C1861 1.348 . S
C1858 C1862 1.356 . S
C1858 O1909 1.325 . S
C1859 N1860 1.279 . S
C1859 C1862 1.358 . S
C1859 H1916 0.930 . S
N1860 C1859 1.279 . S
N1860 C1863 1.314 . S
C1861 C1858 1.348 . S
C1861 C1863 1.353 . S
C1861 H1917 0.929 . S
C1862 C1858 1.356 . S
C1862 C1859 1.358 . S
C1862 H1918 0.930 . S
C1863 N1860 1.314 . S
C1863 C1861 1.353 . S
C1863 H1919 0.930 . S
C1864 N1865 1.314 . S
C1864 C1869 1.353 . S
C1864 H1870 0.930 . S
N1865 Li1848 1.990 . S
N1865 C1864 1.314 . S
N1865 C1867 1.279 . S
C1866 C1867 1.358 . S
C1866 C1868 1.356 . S
C1866 H1920 0.930 . S
C1867 N1865 1.279 . S
C1867 C1866 1.358 . S
C1867 H1871 0.930 . S
C1868 C1866 1.356 . S
C1868 C1869 1.348 . S
C1869 C1864 1.353 . S
C1869 C1868 1.348 . S
C1869 H1921 0.929 . S
H1870 C1864 0.930 . S
H1871 C1867 0.930 . S
C1872 N1873 1.314 . S
C1872 C1874 1.353 . S
C1872 H1878 0.930 . S
N1873 Li1849 1.990 . S
N1873 C1872 1.314 . S
N1873 C1876 1.279 . S
C1874 C1872 1.353 . S
C1874 C1877 1.348 . S
C1874 H1922 0.929 . S
C1875 C1876 1.358 . S
C1875 C1877 1.356 . S
C1875 H1923 0.930 . S
C1876 N1873 1.279 . S
C1876 C1875 1.358 . S
C1876 H1879 0.930 . S
C1877 C1874 1.348 . S
C1877 C1875 1.356 . S
H1878 C1872 0.930 . S
H1879 C1876 0.930 . S
C1880 C1882 1.348 . S
C1880 C1883 1.356 . S
C1880 O1910 1.325 . S
N1881 C1884 1.314 . S
N1881 C1885 1.279 . S
C1882 C1880 1.348 . S
C1882 C1884 1.353 . S
C1882 H1924 0.929 . S
C1883 C1880 1.356 . S
C1883 C1885 1.358 . S
C1883 H1925 0.930 . S
C1884 N1881 1.314 . S
C1884 C1882 1.353 . S
C1884 H1926 0.930 . S
C1885 N1881 1.279 . S
C1885 C1883 1.358 . S
C1885 H1927 0.930 . S
C1886 C1887 1.348 . S
C1886 C1888 1.356 . S
C1886 O1911 1.325 . S
C1887 C1886 1.348 . S
C1887 C1889 1.353 . S
C1887 H1928 0.929 . S
C1888 C1886 1.356 . S
C1888 C1890 1.358 . S
C1888 H1929 0.930 . S
C1889 C1887 1.353 . S
C1889 N1891 1.314 . S
C1889 H1930 0.930 . S
C1890 C1888 1.358 . S
C1890 N1891 1.279 . S
C1890 H1931 0.930 . S
N1891 C1889 1.314 . S
N1891 C1890 1.279 . S
C1892 C1894 1.353 . S
C1892 N1895 1.314 . S
C1892 H1898 0.930 . S
C1893 N1895 1.279 . S
C1893 C1896 1.358 . S
C1893 H1899 0.930 . S
C1894 C1892 1.353 . S
C1894 C1897 1.348 . S
C1894 H1932 0.929 . S
N1895 Li1850 1.990 . S
N1895 C1892 1.314 . S
N1895 C1893 1.279 . S
C1896 C1893 1.358 . S
C1896 C1897 1.356 . S
C1896 H1933 0.930 . S
C1897 C1894 1.348 . S
C1897 C1896 1.356 . S
H1898 C1892 0.930 . S
H1899 C1893 0.930 . S
C1900 N1901 1.314 . S
C1900 C1902 1.353 . S
C1900 H1906 0.930 . S
N1901 Li1851 1.990 . S
N1901 C1900 1.314 . S
N1901 C1904 1.279 . S
C1902 C1900 1.353 . S
C1902 C1905 1.348 . S
C1902 H1934 0.929 . S
C1903 C1904 1.358 . S
C1903 C1905 1.356 . S
C1903 H1935 0.930 . S
C1904 N1901 1.279 . S
C1904 C1903 1.358 . S
C1904 H1907 0.930 . S
C1905 C1902 1.348 . S
C1905 C1903 1.356 . S
H1906 C1900 0.930 . S
H1907 C1904 0.930 . S
O1908 Li1848 1.956 . S
O1908 Li1849 1.970 . S
O1908 Li1850 1.961 . S
O1908 C1852 1.325 . S
O1909 Li1848 1.970 . S
O1909 Li1849 1.956 . S
O1909 Li1851 1.961 . S
O1909 C1858 1.325 . S
O1910 Li1848 1.961 . S
O1910 Li1850 1.956 . S
O1910 Li1851 1.970 . S
O1910 C1880 1.325 . S
O1911 Li1849 1.961 . S
O1911 Li1850 1.970 . S
O1911 Li1851 1.956 . S
O1911 C1886 1.325 . S
H1912 C1854 0.929 . S
H1913 C1855 0.930 . S
H1914 C1856 0.930 . S
H1915 C1857 0.930 . S
H1916 C1859 0.930 . S
H1917 C1861 0.929 . S
H1918 C1862 0.930 . S
H1919 C1863 0.930 . S
H1920 C1866 0.930 . S
H1921 C1869 0.929 . S
H1922 C1874 0.929 . S
H1923 C1875 0.930 . S
H1924 C1882 0.929 . S
H1925 C1883 0.930 . S
H1926 C1884 0.930 . S
H1927 C1885 0.930 . S
H1928 C1887 0.929 . S
H1929 C1888 0.930 . S
H1930 C1889 0.930 . S
H1931 C1890 0.930 . S
H1932 C1894 0.929 . S
H1933 C1896 0.930 . S
H1934 C1902 0.929 . S
H1935 C1903 0.930 . S
Li1936 N1953 1.990 . S
Li1936 O1996 1.956 . S
Li1936 O1997 1.970 . S
Li1936 O1998 1.961 . S
Li1937 N1961 1.990 . S
Li1937 O1996 1.970 . S
Li1937 O1997 1.956 . S
Li1937 O1999 1.961 . S
Li1938 N1983 1.990 . S
Li1938 O1996 1.961 . S
Li1938 O1998 1.956 . S
Li1938 O1999 1.970 . S
Li1939 N1989 1.990 . S
Li1939 O1997 1.961 . S
Li1939 O1998 1.970 . S
Li1939 O1999 1.956 . S
C1940 C1942 1.348 . S
C1940 C1943 1.356 . S
C1940 O1996 1.325 . S
N1941 C1944 1.314 . S
N1941 C1945 1.279 . S
C1942 C1940 1.348 . S
C1942 C1944 1.353 . S
C1942 H2000 0.929 . S
C1943 C1940 1.356 . S
C1943 C1945 1.358 . S
C1943 H2001 0.930 . S
C1944 N1941 1.314 . S
C1944 C1942 1.353 . S
C1944 H2002 0.930 . S
C1945 N1941 1.279 . S
C1945 C1943 1.358 . S
C1945 H2003 0.930 . S
C1946 C1949 1.348 . S
C1946 C1950 1.356 . S
C1946 O1997 1.325 . S
C1947 N1948 1.279 . S
C1947 C1950 1.358 . S
C1947 H2004 0.930 . S
N1948 C1947 1.279 . S
N1948 C1951 1.314 . S
C1949 C1946 1.348 . S
C1949 C1951 1.353 . S
C1949 H2005 0.929 . S
C1950 C1946 1.356 . S
C1950 C1947 1.358 . S
C1950 H2006 0.930 . S
C1951 N1948 1.314 . S
C1951 C1949 1.353 . S
C1951 H2007 0.930 . S
C1952 N1953 1.314 . S
C1952 C1957 1.353 . S
C1952 H1958 0.930 . S
N1953 Li1936 1.990 . S
N1953 C1952 1.314 . S
N1953 C1955 1.279 . S
C1954 C1955 1.358 . S
C1954 C1956 1.356 . S
C1954 H2008 0.930 . S
C1955 N1953 1.279 . S
C1955 C1954 1.358 . S
C1955 H1959 0.930 . S
C1956 C1954 1.356 . S
C1956 C1957 1.348 . S
C1957 C1952 1.353 . S
C1957 C1956 1.348 . S
C1957 H2009 0.929 . S
H1958 C1952 0.930 . S
H1959 C1955 0.930 . S
C1960 N1961 1.314 . S
C1960 C1962 1.353 . S
C1960 H1966 0.930 . S
N1961 Li1937 1.990 . S
N1961 C1960 1.314 . S
N1961 C1964 1.279 . S
C1962 C1960 1.353 . S
C1962 C1965 1.348 . S
C1962 H2010 0.929 . S
C1963 C1964 1.358 . S
C1963 C1965 1.356 . S
C1963 H2011 0.930 . S
C1964 N1961 1.279 . S
C1964 C1963 1.358 . S
C1964 H1967 0.930 . S
C1965 C1962 1.348 . S
C1965 C1963 1.356 . S
H1966 C1960 0.930 . S
H1967 C1964 0.930 . S
C1968 C1970 1.348 . S
C1968 C1971 1.356 . S
C1968 O1998 1.325 . S
N1969 C1972 1.314 . S
N1969 C1973 1.279 . S
C1970 C1968 1.348 . S
C1970 C1972 1.353 . S
C1970 H2012 0.929 . S
C1971 C1968 1.356 . S
C1971 C1973 1.358 . S
C1971 H2013 0.930 . S
C1972 N1969 1.314 . S
C1972 C1970 1.353 . S
C1972 H2014 0.930 . S
C1973 N1969 1.279 . S
C1973 C1971 1.358 . S
C1973 H2015 0.930 . S
C1974 C1975 1.348 . S
C1974 C1976 1.356 . S
C1974 O1999 1.325 . S
C1975 C1974 1.348 . S
C1975 C1977 1.353 . S
C1975 H2016 0.929 . S
C1976 C1974 1.356 . S
C1976 C1978 1.358 . S
C1976 H2017 0.930 . S
C1977 C1975 1.353 . S
C1977 N1979 1.314 . S
C1977 H2018 0.930 . S
C1978 C1976 1.358 . S
C1978 N1979 1.279 . S
C1978 H2019 0.930 . S
N1979 C1977 1.314 . S
N1979 C1978 1.279 . S
C1980 C1982 1.353 . S
C1980 N1983 1.314 . S
C1980 H1986 0.930 . S
C1981 N1983 1.279 . S
C1981 C1984 1.358 . S
C1981 H1987 0.930 . S
C1982 C1980 1.353 . S
C1982 C1985 1.348 . S
C1982 H2020 0.929 . S
N1983 Li1938 1.990 . S
N1983 C1980 1.314 . S
N1983 C1981 1.279 . S
C1984 C1981 1.358 . S
C1984 C1985 1.356 . S
C1984 H2021 0.930 . S
C1985 C1982 1.348 . S
C1985 C1984 1.356 . S
H1986 C1980 0.930 . S
H1987 C1981 0.930 . S
C1988 N1989 1.314 . S
C1988 C1990 1.353 . S
C1988 H1994 0.930 . S
N1989 Li1939 1.990 . S
N1989 C1988 1.314 . S
N1989 C1992 1.279 . S
C1990 C1988 1.353 . S
C1990 C1993 1.348 . S
C1990 H2022 0.929 . S
C1991 C1992 1.358 . S
C1991 C1993 1.356 . S
C1991 H2023 0.930 . S
C1992 N1989 1.279 . S
C1992 C1991 1.358 . S
C1992 H1995 0.930 . S
C1993 C1990 1.348 . S
C1993 C1991 1.356 . S
H1994 C1988 0.930 . S
H1995 C1992 0.930 . S
O1996 Li1936 1.956 . S
O1996 Li1937 1.970 . S
O1996 Li1938 1.961 . S
O1996 C1940 1.325 . S
O1997 Li1936 1.970 . S
O1997 Li1937 1.956 . S
O1997 Li1939 1.961 . S
O1997 C1946 1.325 . S
O1998 Li1936 1.961 . S
O1998 Li1938 1.956 . S
O1998 Li1939 1.970 . S
O1998 C1968 1.325 . S
O1999 Li1937 1.961 . S
O1999 Li1938 1.970 . S
O1999 Li1939 1.956 . S
O1999 C1974 1.325 . S
H2000 C1942 0.929 . S
H2001 C1943 0.930 . S
H2002 C1944 0.930 . S
H2003 C1945 0.930 . S
H2004 C1947 0.930 . S
H2005 C1949 0.929 . S
H2006 C1950 0.930 . S
H2007 C1951 0.930 . S
H2008 C1954 0.930 . S
H2009 C1957 0.929 . S
H2010 C1962 0.929 . S
H2011 C1963 0.930 . S
H2012 C1970 0.929 . S
H2013 C1971 0.930 . S
H2014 C1972 0.930 . S
H2015 C1973 0.930 . S
H2016 C1975 0.929 . S
H2017 C1976 0.930 . S
H2018 C1977 0.930 . S
H2019 C1978 0.930 . S
H2020 C1982 0.929 . S
H2021 C1984 0.930 . S
H2022 C1990 0.929 . S
H2023 C1991 0.930 . S
Li2024 N2041 1.990 . S
Li2024 O2084 1.956 . S
Li2024 O2085 1.970 . S
Li2024 O2086 1.961 . S
Li2025 N2049 1.990 . S
Li2025 O2084 1.970 . S
Li2025 O2085 1.956 . S
Li2025 O2087 1.961 . S
Li2026 N2071 1.990 . S
Li2026 O2084 1.961 . S
Li2026 O2086 1.956 . S
Li2026 O2087 1.970 . S
Li2027 N2077 1.990 . S
Li2027 O2085 1.961 . S
Li2027 O2086 1.970 . S
Li2027 O2087 1.956 . S
C2028 C2030 1.348 . S
C2028 C2031 1.356 . S
C2028 O2084 1.325 . S
N2029 C2032 1.314 . S
N2029 C2033 1.279 . S
C2030 C2028 1.348 . S
C2030 C2032 1.353 . S
C2030 H2088 0.929 . S
C2031 C2028 1.356 . S
C2031 C2033 1.358 . S
C2031 H2089 0.930 . S
C2032 N2029 1.314 . S
C2032 C2030 1.353 . S
C2032 H2090 0.930 . S
C2033 N2029 1.279 . S
C2033 C2031 1.358 . S
C2033 H2091 0.930 . S
C2034 C2037 1.348 . S
C2034 C2038 1.356 . S
C2034 O2085 1.325 . S
C2035 N2036 1.279 . S
C2035 C2038 1.358 . S
C2035 H2092 0.930 . S
N2036 C2035 1.279 . S
N2036 C2039 1.314 . S
C2037 C2034 1.348 . S
C2037 C2039 1.353 . S
C2037 H2093 0.929 . S
C2038 C2034 1.356 . S
C2038 C2035 1.358 . S
C2038 H2094 0.930 . S
C2039 N2036 1.314 . S
C2039 C2037 1.353 . S
C2039 H2095 0.930 . S
C2040 N2041 1.314 . S
C2040 C2045 1.353 . S
C2040 H2046 0.930 . S
N2041 Li2024 1.990 . S
N2041 C2040 1.314 . S
N2041 C2043 1.279 . S
C2042 C2043 1.358 . S
C2042 C2044 1.356 . S
C2042 H2096 0.930 . S
C2043 N2041 1.279 . S
C2043 C2042 1.358 . S
C2043 H2047 0.930 . S
C2044 C2042 1.356 . S
C2044 C2045 1.348 . S
C2045 C2040 1.353 . S
C2045 C2044 1.348 . S
C2045 H2097 0.929 . S
H2046 C2040 0.930 . S
H2047 C2043 0.930 . S
C2048 N2049 1.314 . S
C2048 C2050 1.353 . S
C2048 H2054 0.930 . S
N2049 Li2025 1.990 . S
N2049 C2048 1.314 . S
N2049 C2052 1.279 . S
C2050 C2048 1.353 . S
C2050 C2053 1.348 . S
C2050 H2098 0.929 . S
C2051 C2052 1.358 . S
C2051 C2053 1.356 . S
C2051 H2099 0.930 . S
C2052 N2049 1.279 . S
C2052 C2051 1.358 . S
C2052 H2055 0.930 . S
C2053 C2050 1.348 . S
C2053 C2051 1.356 . S
H2054 C2048 0.930 . S
H2055 C2052 0.930 . S
C2056 C2058 1.348 . S
C2056 C2059 1.356 . S
C2056 O2086 1.325 . S
N2057 C2060 1.314 . S
N2057 C2061 1.279 . S
C2058 C2056 1.348 . S
C2058 C2060 1.353 . S
C2058 H2100 0.929 . S
C2059 C2056 1.356 . S
C2059 C2061 1.358 . S
C2059 H2101 0.930 . S
C2060 N2057 1.314 . S
C2060 C2058 1.353 . S
C2060 H2102 0.930 . S
C2061 N2057 1.279 . S
C2061 C2059 1.358 . S
C2061 H2103 0.930 . S
C2062 C2063 1.348 . S
C2062 C2064 1.356 . S
C2062 O2087 1.325 . S
C2063 C2062 1.348 . S
C2063 C2065 1.353 . S
C2063 H2104 0.929 . S
C2064 C2062 1.356 . S
C2064 C2066 1.358 . S
C2064 H2105 0.930 . S
C2065 C2063 1.353 . S
C2065 N2067 1.314 . S
C2065 H2106 0.930 . S
C2066 C2064 1.358 . S
C2066 N2067 1.279 . S
C2066 H2107 0.930 . S
N2067 C2065 1.314 . S
N2067 C2066 1.279 . S
C2068 C2070 1.353 . S
C2068 N2071 1.314 . S
C2068 H2074 0.930 . S
C2069 N2071 1.279 . S
C2069 C2072 1.358 . S
C2069 H2075 0.930 . S
C2070 C2068 1.353 . S
C2070 C2073 1.348 . S
C2070 H2108 0.929 . S
N2071 Li2026 1.990 . S
N2071 C2068 1.314 . S
N2071 C2069 1.279 . S
C2072 C2069 1.358 . S
C2072 C2073 1.356 . S
C2072 H2109 0.930 . S
C2073 C2070 1.348 . S
C2073 C2072 1.356 . S
H2074 C2068 0.930 . S
H2075 C2069 0.930 . S
C2076 N2077 1.314 . S
C2076 C2078 1.353 . S
C2076 H2082 0.930 . S
N2077 Li2027 1.990 . S
N2077 C2076 1.314 . S
N2077 C2080 1.279 . S
C2078 C2076 1.353 . S
C2078 C2081 1.348 . S
C2078 H2110 0.929 . S
C2079 C2080 1.358 . S
C2079 C2081 1.356 . S
C2079 H2111 0.930 . S
C2080 N2077 1.279 . S
C2080 C2079 1.358 . S
C2080 H2083 0.930 . S
C2081 C2078 1.348 . S
C2081 C2079 1.356 . S
H2082 C2076 0.930 . S
H2083 C2080 0.930 . S
O2084 Li2024 1.956 . S
O2084 Li2025 1.970 . S
O2084 Li2026 1.961 . S
O2084 C2028 1.325 . S
O2085 Li2024 1.970 . S
O2085 Li2025 1.956 . S
O2085 Li2027 1.961 . S
O2085 C2034 1.325 . S
O2086 Li2024 1.961 . S
O2086 Li2026 1.956 . S
O2086 Li2027 1.970 . S
O2086 C2056 1.325 . S
O2087 Li2025 1.961 . S
O2087 Li2026 1.970 . S
O2087 Li2027 1.956 . S
O2087 C2062 1.325 . S
H2088 C2030 0.929 . S
H2089 C2031 0.930 . S
H2090 C2032 0.930 . S
H2091 C2033 0.930 . S
H2092 C2035 0.930 . S
H2093 C2037 0.929 . S
H2094 C2038 0.930 . S
H2095 C2039 0.930 . S
H2096 C2042 0.930 . S
H2097 C2045 0.929 . S
H2098 C2050 0.929 . S
H2099 C2051 0.930 . S
H2100 C2058 0.929 . S
H2101 C2059 0.930 . S
H2102 C2060 0.930 . S
H2103 C2061 0.930 . S
H2104 C2063 0.929 . S
H2105 C2064 0.930 . S
H2106 C2065 0.930 . S
H2107 C2066 0.930 . S
H2108 C2070 0.929 . S
H2109 C2072 0.930 . S
H2110 C2078 0.929 . S
H2111 C2079 0.930 . S
Tb2112 C2114 2.809 1_455 S
Tb2112 O2132 2.484 1_455 S
Tb2112 O2133 2.440 1_454 S
Tb2112 O2134 2.658 . S
Tb2112 O2135 2.409 1_554 S
Tb2112 O2136 2.378 . S
Tb2112 O2140 2.325 . S
Tb2112 O2143 2.341 1_545 S
Tb2113 C2123 2.809 1_545 S
Tb2113 O2134 2.325 . S
Tb2113 O2137 2.341 . S
Tb2113 O2138 2.484 1_545 S
Tb2113 O2139 2.440 . S
Tb2113 O2140 2.658 . S
Tb2113 O2141 2.409 . S
Tb2113 O2142 2.378 1_545 S
C2114 Tb2112 2.809 1_655 S
C2114 C2115 1.514 . S
C2114 O2132 1.248 . S
C2114 O2133 1.266 1_554 S
C2115 C2114 1.514 . S
C2115 C2116 1.359 . S
C2115 C2120 1.348 1_554 S
C2116 C2115 1.359 . S
C2116 C2117 1.380 . S
C2116 H2144 0.929 . S
C2117 C2116 1.380 . S
C2117 C2118 1.347 . S
C2117 H2145 0.931 . S
C2118 C2117 1.347 . S
C2118 C2119 1.369 1_554 S
C2119 C2118 1.369 1_556 S
C2119 C2120 1.408 . S
C2119 H2146 0.930 . S
C2120 C2115 1.348 1_556 S
C2120 C2119 1.408 . S
C2120 H2147 0.930 . S
C2121 O2134 1.281 1_556 S
C2121 O2135 1.254 . S
C2122 O2136 1.236 . S
C2122 O2137 1.266 . S
C2123 Tb2113 2.809 1_565 S
C2123 C2124 1.514 . S
C2123 O2138 1.248 . S
C2123 O2139 1.266 1_565 S
C2124 C2123 1.514 . S
C2124 C2125 1.359 . S
C2124 C2129 1.348 . S
C2125 C2124 1.359 . S
C2125 C2126 1.380 . S
C2125 H2148 0.929 . S
C2126 C2125 1.380 . S
C2126 C2127 1.347 . S
C2126 H2149 0.931 . S
C2127 C2126 1.347 . S
C2127 C2128 1.369 . S
C2128 C2127 1.369 . S
C2128 C2129 1.408 . S
C2128 H2150 0.930 . S
C2129 C2124 1.348 . S
C2129 C2128 1.408 . S
C2129 H2151 0.930 . S
C2130 O2140 1.281 . S
C2130 O2141 1.254 . S
C2131 O2142 1.236 . S
C2131 O2143 1.266 . S
O2132 Tb2112 2.484 1_655 S
O2132 C2114 1.248 . S
O2133 Tb2112 2.440 1_656 S
O2133 C2114 1.266 1_556 S
O2134 Tb2112 2.658 . S
O2134 Tb2113 2.325 . S
O2134 C2121 1.281 1_554 S
O2135 Tb2112 2.409 1_556 S
O2135 C2121 1.254 . S
O2136 Tb2112 2.378 . S
O2136 C2122 1.236 . S
O2137 Tb2113 2.341 . S
O2137 C2122 1.266 . S
O2138 Tb2113 2.484 1_565 S
O2138 C2123 1.248 . S
O2139 Tb2113 2.440 . S
O2139 C2123 1.266 1_545 S
O2140 Tb2112 2.325 . S
O2140 Tb2113 2.658 . S
O2140 C2130 1.281 . S
O2141 Tb2113 2.409 . S
O2141 C2130 1.254 . S
O2142 Tb2113 2.378 1_565 S
O2142 C2131 1.236 . S
O2143 Tb2112 2.341 1_565 S
O2143 C2131 1.266 . S
H2144 C2116 0.929 . S
H2145 C2117 0.931 . S
H2146 C2119 0.930 . S
H2147 C2120 0.930 . S
H2148 C2125 0.929 . S
H2149 C2126 0.931 . S
H2150 C2128 0.930 . S
H2151 C2129 0.930 . S
Tb2152 C2154 2.809 . S
Tb2152 O2172 2.484 . S
Tb2152 O2173 2.440 . S
Tb2152 O2174 2.658 . S
Tb2152 O2175 2.409 . S
Tb2152 O2176 2.378 . S
Tb2152 O2180 2.325 . S
Tb2152 O2183 2.341 . S
Tb2153 C2163 2.809 . S
Tb2153 O2174 2.325 . S
Tb2153 O2177 2.341 . S
Tb2153 O2178 2.484 . S
Tb2153 O2179 2.440 . S
Tb2153 O2180 2.658 . S
Tb2153 O2181 2.409 . S
Tb2153 O2182 2.378 . S
C2154 Tb2152 2.809 . S
C2154 C2155 1.514 . S
C2154 O2172 1.248 . S
C2154 O2173 1.266 . S
C2155 C2154 1.514 . S
C2155 C2156 1.359 . S
C2155 C2160 1.348 . S
C2156 C2155 1.359 . S
C2156 C2157 1.380 . S
C2156 H2184 0.929 . S
C2157 C2156 1.380 . S
C2157 C2158 1.347 . S
C2157 H2185 0.931 . S
C2158 C2157 1.347 . S
C2158 C2159 1.369 . S
C2159 C2158 1.369 . S
C2159 C2160 1.408 . S
C2159 H2186 0.930 . S
C2160 C2155 1.348 . S
C2160 C2159 1.408 . S
C2160 H2187 0.930 . S
C2161 O2174 1.281 . S
C2161 O2175 1.254 . S
C2162 O2176 1.236 . S
C2162 O2177 1.266 . S
C2163 Tb2153 2.809 . S
C2163 C2164 1.514 . S
C2163 O2178 1.248 . S
C2163 O2179 1.266 . S
C2164 C2163 1.514 . S
C2164 C2165 1.359 . S
C2164 C2169 1.348 . S
C2165 C2164 1.359 . S
C2165 C2166 1.380 . S
C2165 H2188 0.929 . S
C2166 C2165 1.380 . S
C2166 C2167 1.347 . S
C2166 H2189 0.931 . S
C2167 C2166 1.347 . S
C2167 C2168 1.369 . S
C2168 C2167 1.369 . S
C2168 C2169 1.408 . S
C2168 H2190 0.930 . S
C2169 C2164 1.348 . S
C2169 C2168 1.408 . S
C2169 H2191 0.930 . S
C2170 O2180 1.281 . S
C2170 O2181 1.254 . S
C2171 O2182 1.236 . S
C2171 O2183 1.266 . S
O2172 Tb2152 2.484 . S
O2172 C2154 1.248 . S
O2173 Tb2152 2.440 . S
O2173 C2154 1.266 . S
O2174 Tb2152 2.658 . S
O2174 Tb2153 2.325 . S
O2174 C2161 1.281 . S
O2175 Tb2152 2.409 . S
O2175 C2161 1.254 . S
O2176 Tb2152 2.378 . S
O2176 C2162 1.236 . S
O2177 Tb2153 2.341 . S
O2177 C2162 1.266 . S
O2178 Tb2153 2.484 . S
O2178 C2163 1.248 . S
O2179 Tb2153 2.440 . S
O2179 C2163 1.266 . S
O2180 Tb2152 2.325 . S
O2180 Tb2153 2.658 . S
O2180 C2170 1.281 . S
O2181 Tb2153 2.409 . S
O2181 C2170 1.254 . S
O2182 Tb2153 2.378 . S
O2182 C2171 1.236 . S
O2183 Tb2152 2.341 . S
O2183 C2171 1.266 . S
H2184 C2156 0.929 . S
H2185 C2157 0.931 . S
H2186 C2159 0.930 . S
H2187 C2160 0.930 . S
H2188 C2165 0.929 . S
H2189 C2166 0.931 . S
H2190 C2168 0.930 . S
H2191 C2169 0.930 . S
Tb2192 C2194 2.809 1_545 S
Tb2192 O2212 2.484 1_545 S
Tb2192 O2213 2.440 . S
Tb2192 O2214 2.658 . S
Tb2192 O2215 2.409 . S
Tb2192 O2216 2.378 1_545 S
Tb2192 O2220 2.325 . S
Tb2192 O2223 2.341 . S
Tb2193 C2203 2.809 . S
Tb2193 O2214 2.325 . S
Tb2193 O2217 2.341 1_545 S
Tb2193 O2218 2.484 . S
Tb2193 O2219 2.440 . S
Tb2193 O2220 2.658 . S
Tb2193 O2221 2.409 . S
Tb2193 O2222 2.378 . S
C2194 Tb2192 2.809 1_565 S
C2194 C2195 1.514 . S
C2194 O2212 1.248 . S
C2194 O2213 1.266 1_565 S
C2195 C2194 1.514 . S
C2195 C2196 1.359 . S
C2195 C2200 1.348 . S
C2196 C2195 1.359 . S
C2196 C2197 1.380 . S
C2196 H2224 0.929 . S
C2197 C2196 1.380 . S
C2197 C2198 1.347 . S
C2197 H2225 0.931 . S
C2198 C2197 1.347 . S
C2198 C2199 1.369 . S
C2199 C2198 1.369 . S
C2199 C2200 1.408 . S
C2199 H2226 0.930 . S
C2200 C2195 1.348 . S
C2200 C2199 1.408 . S
C2200 H2227 0.930 . S
C2201 O2214 1.281 . S
C2201 O2215 1.254 . S
C2202 O2216 1.236 . S
C2202 O2217 1.266 . S
C2203 Tb2193 2.809 . S
C2203 C2204 1.514 . S
C2203 O2218 1.248 . S
C2203 O2219 1.266 . S
C2204 C2203 1.514 . S
C2204 C2205 1.359 . S
C2204 C2209 1.348 . S
C2205 C2204 1.359 . S
C2205 C2206 1.380 . S
C2205 H2228 0.929 . S
C2206 C2205 1.380 . S
C2206 C2207 1.347 . S
C2206 H2229 0.931 . S
C2207 C2206 1.347 . S
C2207 C2208 1.369 . S
C2208 C2207 1.369 . S
C2208 C2209 1.408 . S
C2208 H2230 0.930 . S
C2209 C2204 1.348 . S
C2209 C2208 1.408 . S
C2209 H2231 0.930 . S
C2210 O2220 1.281 . S
C2210 O2221 1.254 . S
C2211 O2222 1.236 . S
C2211 O2223 1.266 . S
O2212 Tb2192 2.484 1_565 S
O2212 C2194 1.248 . S
O2213 Tb2192 2.440 . S
O2213 C2194 1.266 1_545 S
O2214 Tb2192 2.658 . S
O2214 Tb2193 2.325 . S
O2214 C2201 1.281 . S
O2215 Tb2192 2.409 . S
O2215 C2201 1.254 . S
O2216 Tb2192 2.378 1_565 S
O2216 C2202 1.236 . S
O2217 Tb2193 2.341 1_565 S
O2217 C2202 1.266 . S
O2218 Tb2193 2.484 . S
O2218 C2203 1.248 . S
O2219 Tb2193 2.440 . S
O2219 C2203 1.266 . S
O2220 Tb2192 2.325 . S
O2220 Tb2193 2.658 . S
O2220 C2210 1.281 . S
O2221 Tb2193 2.409 . S
O2221 C2210 1.254 . S
O2222 Tb2193 2.378 . S
O2222 C2211 1.236 . S
O2223 Tb2192 2.341 . S
O2223 C2211 1.266 . S
H2224 C2196 0.929 . S
H2225 C2197 0.931 . S
H2226 C2199 0.930 . S
H2227 C2200 0.930 . S
H2228 C2205 0.929 . S
H2229 C2206 0.931 . S
H2230 C2208 0.930 . S
H2231 C2209 0.930 . S
Tb2232 C2234 2.809 . S
Tb2232 O2252 2.484 . S
Tb2232 O2253 2.440 . S
Tb2232 O2254 2.658 . S
Tb2232 O2255 2.409 . S
Tb2232 O2256 2.378 . S
Tb2232 O2260 2.325 . S
Tb2232 O2263 2.341 . S
Tb2233 C2243 2.809 . S
Tb2233 O2254 2.325 . S
Tb2233 O2257 2.341 . S
Tb2233 O2258 2.484 . S
Tb2233 O2259 2.440 . S
Tb2233 O2260 2.658 . S
Tb2233 O2261 2.409 . S
Tb2233 O2262 2.378 . S
C2234 Tb2232 2.809 . S
C2234 C2235 1.514 . S
C2234 O2252 1.248 . S
C2234 O2253 1.266 . S
C2235 C2234 1.514 . S
C2235 C2236 1.359 . S
C2235 C2240 1.348 . S
C2236 C2235 1.359 . S
C2236 C2237 1.380 . S
C2236 H2264 0.929 . S
C2237 C2236 1.380 . S
C2237 C2238 1.347 . S
C2237 H2265 0.931 . S
C2238 C2237 1.347 . S
C2238 C2239 1.369 . S
C2239 C2238 1.369 . S
C2239 C2240 1.408 . S
C2239 H2266 0.930 . S
C2240 C2235 1.348 . S
C2240 C2239 1.408 . S
C2240 H2267 0.930 . S
C2241 O2254 1.281 . S
C2241 O2255 1.254 . S
C2242 O2256 1.236 . S
C2242 O2257 1.266 . S
C2243 Tb2233 2.809 . S
C2243 C2244 1.514 . S
C2243 O2258 1.248 . S
C2243 O2259 1.266 . S
C2244 C2243 1.514 . S
C2244 C2245 1.359 . S
C2244 C2249 1.348 . S
C2245 C2244 1.359 . S
C2245 C2246 1.380 . S
C2245 H2268 0.929 . S
C2246 C2245 1.380 . S
C2246 C2247 1.347 . S
C2246 H2269 0.931 . S
C2247 C2246 1.347 . S
C2247 C2248 1.369 . S
C2248 C2247 1.369 . S
C2248 C2249 1.408 . S
C2248 H2270 0.930 . S
C2249 C2244 1.348 . S
C2249 C2248 1.408 . S
C2249 H2271 0.930 . S
C2250 O2260 1.281 . S
C2250 O2261 1.254 . S
C2251 O2262 1.236 . S
C2251 O2263 1.266 . S
O2252 Tb2232 2.484 . S
O2252 C2234 1.248 . S
O2253 Tb2232 2.440 . S
O2253 C2234 1.266 . S
O2254 Tb2232 2.658 . S
O2254 Tb2233 2.325 . S
O2254 C2241 1.281 . S
O2255 Tb2232 2.409 . S
O2255 C2241 1.254 . S
O2256 Tb2232 2.378 . S
O2256 C2242 1.236 . S
O2257 Tb2233 2.341 . S
O2257 C2242 1.266 . S
O2258 Tb2233 2.484 . S
O2258 C2243 1.248 . S
O2259 Tb2233 2.440 . S
O2259 C2243 1.266 . S
O2260 Tb2232 2.325 . S
O2260 Tb2233 2.658 . S
O2260 C2250 1.281 . S
O2261 Tb2233 2.409 . S
O2261 C2250 1.254 . S
O2262 Tb2233 2.378 . S
O2262 C2251 1.236 . S
O2263 Tb2232 2.341 . S
O2263 C2251 1.266 . S
H2264 C2236 0.929 . S
H2265 C2237 0.931 . S
H2266 C2239 0.930 . S
H2267 C2240 0.930 . S
H2268 C2245 0.929 . S
H2269 C2246 0.931 . S
H2270 C2248 0.930 . S
H2271 C2249 0.930 . S
Tb2272 C2274 2.809 . S
Tb2272 O2292 2.484 . S
Tb2272 O2293 2.440 . S
Tb2272 O2294 2.658 . S
Tb2272 O2295 2.409 1_455 S
Tb2272 O2296 2.378 . S
Tb2272 O2300 2.325 . S
Tb2272 O2303 2.341 . S
Tb2273 C2283 2.809 . S
Tb2273 O2294 2.325 1_565 S
Tb2273 O2297 2.363 . S
Tb2273 O2298 2.484 . S
Tb2273 O2299 2.440 . S
Tb2273 O2300 2.658 1_565 S
Tb2273 O2301 2.409 1_565 S
Tb2273 O2302 2.378 1_565 S
C2274 Tb2272 2.809 . S
C2274 C2275 1.514 . S
C2274 O2292 1.248 . S
C2274 O2293 1.266 . S
C2275 C2274 1.514 . S
C2275 C2276 1.359 . S
C2275 C2280 1.348 1_455 S
C2276 C2275 1.359 . S
C2276 C2277 1.380 . S
C2276 H2304 0.929 . S
C2277 C2276 1.380 . S
C2277 C2278 1.347 . S
C2277 H2305 0.931 . S
C2278 C2277 1.347 . S
C2278 C2279 1.369 1_455 S
C2279 C2278 1.369 1_655 S
C2279 C2280 1.408 . S
C2279 H2306 0.930 . S
C2280 C2275 1.348 1_655 S
C2280 C2279 1.408 . S
C2280 H2307 0.930 . S
C2281 O2294 1.281 1_655 S
C2281 O2295 1.254 . S
C2282 O2296 1.236 . S
C2282 O2297 1.227 1_545 S
C2283 Tb2273 2.809 . S
C2283 C2284 1.514 . S
C2283 O2298 1.248 . S
C2283 O2299 1.266 . S
C2284 C2283 1.514 . S
C2284 C2285 1.359 . S
C2284 C2289 1.348 . S
C2285 C2284 1.359 . S
C2285 C2286 1.380 . S
C2285 H2308 0.929 . S
C2286 C2285 1.380 . S
C2286 C2287 1.347 . S
C2286 H2309 0.931 . S
C2287 C2286 1.347 . S
C2287 C2288 1.369 . S
C2288 C2287 1.369 . S
C2288 C2289 1.408 . S
C2288 H2310 0.930 . S
C2289 C2284 1.348 . S
C2289 C2288 1.408 . S
C2289 H2311 0.930 . S
C2290 O2300 1.281 . S
C2290 O2301 1.254 . S
C2291 O2302 1.236 . S
C2291 O2303 1.266 . S
O2292 Tb2272 2.484 . S
O2292 C2274 1.248 . S
O2293 Tb2272 2.440 . S
O2293 C2274 1.266 . S
O2294 Tb2272 2.658 . S
O2294 Tb2273 2.325 1_545 S
O2294 C2281 1.281 1_455 S
O2295 Tb2272 2.409 1_655 S
O2295 C2281 1.254 . S
O2296 Tb2272 2.378 . S
O2296 C2282 1.236 . S
O2297 Tb2273 2.363 . S
O2297 C2282 1.227 1_565 S
O2298 Tb2273 2.484 . S
O2298 C2283 1.248 . S
O2299 Tb2273 2.440 . S
O2299 C2283 1.266 . S
O2300 Tb2272 2.325 . S
O2300 Tb2273 2.658 1_545 S
O2300 C2290 1.281 . S
O2301 Tb2273 2.409 1_545 S
O2301 C2290 1.254 . S
O2302 Tb2273 2.378 1_545 S
O2302 C2291 1.236 . S
O2303 Tb2272 2.341 . S
O2303 C2291 1.266 . S
H2304 C2276 0.929 . S
H2305 C2277 0.931 . S
H2306 C2279 0.930 . S
H2307 C2280 0.930 . S
H2308 C2285 0.929 . S
H2309 C2286 0.931 . S
H2310 C2288 0.930 . S
H2311 C2289 0.930 . S
Tb2312 C2314 2.809 . S
Tb2312 O2332 2.484 . S
Tb2312 O2333 2.440 . S
Tb2312 O2334 2.658 . S
Tb2312 O2335 2.409 . S
Tb2312 O2336 2.378 . S
Tb2312 O2340 2.325 . S
Tb2312 O2343 2.341 . S
Tb2313 C2323 2.809 . S
Tb2313 O2334 2.325 . S
Tb2313 O2337 2.341 . S
Tb2313 O2338 2.484 . S
Tb2313 O2339 2.440 . S
Tb2313 O2340 2.658 . S
Tb2313 O2341 2.409 . S
Tb2313 O2342 2.378 . S
C2314 Tb2312 2.809 . S
C2314 C2315 1.514 . S
C2314 O2332 1.248 . S
C2314 O2333 1.266 . S
C2315 C2314 1.514 . S
C2315 C2316 1.359 . S
C2315 C2320 1.348 . S
C2316 C2315 1.359 . S
C2316 C2317 1.380 . S
C2316 H2344 0.929 . S
C2317 C2316 1.380 . S
C2317 C2318 1.347 . S
C2317 H2345 0.931 . S
C2318 C2317 1.347 . S
C2318 C2319 1.369 . S
C2319 C2318 1.369 . S
C2319 C2320 1.408 . S
C2319 H2346 0.930 . S
C2320 C2315 1.348 . S
C2320 C2319 1.408 . S
C2320 H2347 0.930 . S
C2321 O2334 1.281 . S
C2321 O2335 1.254 . S
C2322 O2336 1.236 . S
C2322 O2337 1.266 . S
C2323 Tb2313 2.809 . S
C2323 C2324 1.514 . S
C2323 O2338 1.248 . S
C2323 O2339 1.266 . S
C2324 C2323 1.514 . S
C2324 C2325 1.359 . S
C2324 C2329 1.348 . S
C2325 C2324 1.359 . S
C2325 C2326 1.380 . S
C2325 H2348 0.929 . S
C2326 C2325 1.380 . S
C2326 C2327 1.347 . S
C2326 H2349 0.931 . S
C2327 C2326 1.347 . S
C2327 C2328 1.369 . S
C2328 C2327 1.369 . S
C2328 C2329 1.408 . S
C2328 H2350 0.930 . S
C2329 C2324 1.348 . S
C2329 C2328 1.408 . S
C2329 H2351 0.930 . S
C2330 O2340 1.281 . S
C2330 O2341 1.254 . S
C2331 O2342 1.236 . S
C2331 O2343 1.266 . S
O2332 Tb2312 2.484 . S
O2332 C2314 1.248 . S
O2333 Tb2312 2.440 . S
O2333 C2314 1.266 . S
O2334 Tb2312 2.658 . S
O2334 Tb2313 2.325 . S
O2334 C2321 1.281 . S
O2335 Tb2312 2.409 . S
O2335 C2321 1.254 . S
O2336 Tb2312 2.378 . S
O2336 C2322 1.236 . S
O2337 Tb2313 2.341 . S
O2337 C2322 1.266 . S
O2338 Tb2313 2.484 . S
O2338 C2323 1.248 . S
O2339 Tb2313 2.440 . S
O2339 C2323 1.266 . S
O2340 Tb2312 2.325 . S
O2340 Tb2313 2.658 . S
O2340 C2330 1.281 . S
O2341 Tb2313 2.409 . S
O2341 C2330 1.254 . S
O2342 Tb2313 2.378 . S
O2342 C2331 1.236 . S
O2343 Tb2312 2.341 . S
O2343 C2331 1.266 . S
H2344 C2316 0.929 . S
H2345 C2317 0.931 . S
H2346 C2319 0.930 . S
H2347 C2320 0.930 . S
H2348 C2325 0.929 . S
H2349 C2326 0.931 . S
H2350 C2328 0.930 . S
H2351 C2329 0.930 . S
Tb2352 C2354 2.809 1_545 S
Tb2352 O2372 2.484 1_545 S
Tb2352 O2373 2.440 . S
Tb2352 O2374 2.658 . S
Tb2352 O2375 2.409 . S
Tb2352 O2376 2.378 . S
Tb2352 O2380 2.325 1_545 S
Tb2352 O2383 2.341 1_554 S
Tb2353 C2363 2.809 . S
Tb2353 O2374 2.325 . S
Tb2353 O2377 2.341 . S
Tb2353 O2378 2.484 . S
Tb2353 O2379 2.440 . S
Tb2353 O2380 2.658 1_545 S
Tb2353 O2381 2.409 1_545 S
Tb2353 O2382 2.378 . S
C2354 Tb2352 2.809 1_565 S
C2354 C2355 1.514 . S
C2354 O2372 1.248 . S
C2354 O2373 1.266 1_565 S
C2355 C2354 1.514 . S
C2355 C2356 1.359 . S
C2355 C2360 1.348 1_565 S
C2356 C2355 1.359 . S
C2356 C2357 1.380 . S
C2356 H2384 0.929 . S
C2357 C2356 1.380 . S
C2357 C2358 1.347 . S
C2357 H2385 0.931 . S
C2358 C2357 1.347 . S
C2358 C2359 1.369 . S
C2359 C2358 1.369 . S
C2359 C2360 1.408 1_565 S
C2359 H2386 0.930 1_565 S
C2360 C2355 1.348 1_545 S
C2360 C2359 1.408 1_545 S
C2360 H2387 0.930 . S
C2361 O2374 1.281 . S
C2361 O2375 1.254 . S
C2362 O2376 1.236 . S
C2362 O2377 1.266 . S
C2363 Tb2353 2.809 . S
C2363 C2364 1.514 . S
C2363 O2378 1.248 . S
C2363 O2379 1.266 . S
C2364 C2363 1.514 . S
C2364 C2365 1.359 . S
C2364 C2369 1.348 . S
C2365 C2364 1.359 . S
C2365 C2366 1.380 . S
C2365 H2388 0.929 . S
C2366 C2365 1.380 . S
C2366 C2367 1.347 . S
C2366 H2389 0.931 . S
C2367 C2366 1.347 . S
C2367 C2368 1.369 . S
C2368 C2367 1.369 . S
C2368 C2369 1.408 . S
C2368 H2390 0.930 . S
C2369 C2364 1.348 . S
C2369 C2368 1.408 . S
C2369 H2391 0.930 . S
C2370 O2380 1.281 . S
C2370 O2381 1.254 . S
C2371 O2382 1.236 1_556 S
C2371 O2383 1.266 . S
O2372 Tb2352 2.484 1_565 S
O2372 C2354 1.248 . S
O2373 Tb2352 2.440 . S
O2373 C2354 1.266 1_545 S
O2374 Tb2352 2.658 . S
O2374 Tb2353 2.325 . S
O2374 C2361 1.281 . S
O2375 Tb2352 2.409 . S
O2375 C2361 1.254 . S
O2376 Tb2352 2.378 . S
O2376 C2362 1.236 . S
O2377 Tb2353 2.341 . S
O2377 C2362 1.266 . S
O2378 Tb2353 2.484 . S
O2378 C2363 1.248 . S
O2379 Tb2353 2.440 . S
O2379 C2363 1.266 . S
O2380 Tb2352 2.325 1_565 S
O2380 Tb2353 2.658 1_565 S
O2380 C2370 1.281 . S
O2381 Tb2353 2.409 1_565 S
O2381 C2370 1.254 . S
O2382 Tb2353 2.378 . S
O2382 C2371 1.236 1_554 S
O2383 Tb2352 2.341 1_556 S
O2383 C2371 1.266 . S
H2384 C2356 0.929 . S
H2385 C2357 0.931 . S
H2386 C2359 0.930 1_545 S
H2387 C2360 0.930 . S
H2388 C2365 0.929 . S
H2389 C2366 0.931 . S
H2390 C2368 0.930 . S
H2391 C2369 0.930 . S
Tb2392 C2394 2.809 . S
Tb2392 O2412 2.484 . S
Tb2392 O2413 2.440 . S
Tb2392 O2414 2.658 . S
Tb2392 O2415 2.409 . S
Tb2392 O2416 2.378 . S
Tb2392 O2420 2.325 . S
Tb2392 O2423 2.341 . S
Tb2393 C2403 2.809 . S
Tb2393 O2414 2.325 . S
Tb2393 O2417 2.341 . S
Tb2393 O2418 2.484 . S
Tb2393 O2419 2.440 . S
Tb2393 O2420 2.658 . S
Tb2393 O2421 2.409 . S
Tb2393 O2422 2.378 . S
C2394 Tb2392 2.809 . S
C2394 C2395 1.514 . S
C2394 O2412 1.248 . S
C2394 O2413 1.266 . S
C2395 C2394 1.514 . S
C2395 C2396 1.359 . S
C2395 C2400 1.348 . S
C2396 C2395 1.359 . S
C2396 C2397 1.380 . S
C2396 H2424 0.929 . S
C2397 C2396 1.380 . S
C2397 C2398 1.347 . S
C2397 H2425 0.931 . S
C2398 C2397 1.347 . S
C2398 C2399 1.369 . S
C2399 C2398 1.369 . S
C2399 C2400 1.408 . S
C2399 H2426 0.930 . S
C2400 C2395 1.348 . S
C2400 C2399 1.408 . S
C2400 H2427 0.930 . S
C2401 O2414 1.281 . S
C2401 O2415 1.254 . S
C2402 O2416 1.236 . S
C2402 O2417 1.266 . S
C2403 Tb2393 2.809 . S
C2403 C2404 1.514 . S
C2403 O2418 1.248 . S
C2403 O2419 1.266 . S
C2404 C2403 1.514 . S
C2404 C2405 1.359 . S
C2404 C2409 1.348 . S
C2405 C2404 1.359 . S
C2405 C2406 1.380 . S
C2405 H2428 0.929 . S
C2406 C2405 1.380 . S
C2406 C2407 1.347 . S
C2406 H2429 0.931 . S
C2407 C2406 1.347 . S
C2407 C2408 1.369 . S
C2408 C2407 1.369 . S
C2408 C2409 1.408 . S
C2408 H2430 0.930 . S
C2409 C2404 1.348 . S
C2409 C2408 1.408 . S
C2409 H2431 0.930 . S
C2410 O2420 1.281 . S
C2410 O2421 1.254 . S
C2411 O2422 1.236 . S
C2411 O2423 1.266 . S
O2412 Tb2392 2.484 . S
O2412 C2394 1.248 . S
O2413 Tb2392 2.440 . S
O2413 C2394 1.266 . S
O2414 Tb2392 2.658 . S
O2414 Tb2393 2.325 . S
O2414 C2401 1.281 . S
O2415 Tb2392 2.409 . S
O2415 C2401 1.254 . S
O2416 Tb2392 2.378 . S
O2416 C2402 1.236 . S
O2417 Tb2393 2.341 . S
O2417 C2402 1.266 . S
O2418 Tb2393 2.484 . S
O2418 C2403 1.248 . S
O2419 Tb2393 2.440 . S
O2419 C2403 1.266 . S
O2420 Tb2392 2.325 . S
O2420 Tb2393 2.658 . S
O2420 C2410 1.281 . S
O2421 Tb2393 2.409 . S
O2421 C2410 1.254 . S
O2422 Tb2393 2.378 . S
O2422 C2411 1.236 . S
O2423 Tb2392 2.341 . S
O2423 C2411 1.266 . S
H2424 C2396 0.929 . S
H2425 C2397 0.931 . S
H2426 C2399 0.930 . S
H2427 C2400 0.930 . S
H2428 C2405 0.929 . S
H2429 C2406 0.931 . S
H2430 C2408 0.930 . S
H2431 C2409 0.930 . S
Tb2432 C2434 2.809 . S
Tb2432 O2452 2.484 . S
Tb2432 O2453 2.440 . S
Tb2432 O2454 2.658 . S
Tb2432 O2455 2.409 . S
Tb2432 O2456 2.378 1_554 S
Tb2432 O2460 2.325 . S
Tb2432 O2463 2.341 . S
Tb2433 C2443 2.809 . S
Tb2433 O2454 2.325 . S
Tb2433 O2457 2.341 1_554 S
Tb2433 O2458 2.484 . S
Tb2433 O2459 2.440 . S
Tb2433 O2460 2.658 . S
Tb2433 O2461 2.409 . S
Tb2433 O2462 2.378 . S
C2434 Tb2432 2.809 . S
C2434 C2435 1.514 1_554 S
C2434 O2452 1.248 . S
C2434 O2453 1.266 . S
C2435 C2434 1.514 1_556 S
C2435 C2436 1.359 . S
C2435 C2440 1.348 . S
C2436 C2435 1.359 . S
C2436 C2437 1.380 . S
C2436 H2464 0.929 . S
C2437 C2436 1.380 . S
C2437 C2438 1.347 . S
C2437 H2465 0.931 . S
C2438 C2437 1.347 . S
C2438 C2439 1.369 . S
C2439 C2438 1.369 . S
C2439 C2440 1.408 . S
C2439 H2466 0.930 . S
C2440 C2435 1.348 . S
C2440 C2439 1.408 . S
C2440 H2467 0.936 . S
C2441 O2454 1.281 . S
C2441 O2455 1.254 . S
C2442 O2456 1.236 . S
C2442 O2457 1.266 . S
C2443 Tb2433 2.809 . S
C2443 C2444 1.514 . S
C2443 O2458 1.248 . S
C2443 O2459 1.266 . S
C2444 C2443 1.514 . S
C2444 C2445 1.359 . S
C2444 C2449 1.348 . S
C2445 C2444 1.359 . S
C2445 C2446 1.380 . S
C2445 H2468 0.929 . S
C2446 C2445 1.380 . S
C2446 C2447 1.347 . S
C2446 H2469 0.931 . S
C2447 C2446 1.347 . S
C2447 C2448 1.369 . S
C2448 C2447 1.369 . S
C2448 C2449 1.408 . S
C2448 H2470 0.930 . S
C2449 C2444 1.348 . S
C2449 C2448 1.408 . S
C2449 H2471 0.930 . S
C2450 O2460 1.281 . S
C2450 O2461 1.254 . S
C2451 O2462 1.236 . S
C2451 O2463 1.266 . S
O2452 Tb2432 2.484 . S
O2452 C2434 1.248 . S
O2453 Tb2432 2.440 . S
O2453 C2434 1.266 . S
O2454 Tb2432 2.658 . S
O2454 Tb2433 2.325 . S
O2454 C2441 1.281 . S
O2455 Tb2432 2.409 . S
O2455 C2441 1.254 . S
O2456 Tb2432 2.378 1_556 S
O2456 C2442 1.236 . S
O2457 Tb2433 2.341 1_556 S
O2457 C2442 1.266 . S
O2458 Tb2433 2.484 . S
O2458 C2443 1.248 . S
O2459 Tb2433 2.440 . S
O2459 C2443 1.266 . S
O2460 Tb2432 2.325 . S
O2460 Tb2433 2.658 . S
O2460 C2450 1.281 . S
O2461 Tb2433 2.409 . S
O2461 C2450 1.254 . S
O2462 Tb2433 2.378 . S
O2462 C2451 1.236 . S
O2463 Tb2432 2.341 . S
O2463 C2451 1.266 . S
H2464 C2436 0.929 . S
H2465 C2437 0.931 . S
H2466 C2439 0.930 . S
H2467 C2440 0.936 . S
H2468 C2445 0.929 . S
H2469 C2446 0.931 . S
H2470 C2448 0.930 . S
H2471 C2449 0.930 . S
Tb2472 C2474 2.809 . S
Tb2472 O2492 2.484 . S
Tb2472 O2493 2.440 . S
Tb2472 O2494 2.658 . S
Tb2472 O2495 2.409 . S
Tb2472 O2496 2.378 . S
Tb2472 O2500 2.325 . S
Tb2472 O2503 2.341 . S
Tb2473 C2483 2.809 . S
Tb2473 O2494 2.325 . S
Tb2473 O2497 2.341 . S
Tb2473 O2498 2.484 . S
Tb2473 O2499 2.440 . S
Tb2473 O2500 2.658 . S
Tb2473 O2501 2.409 . S
Tb2473 O2502 2.378 . S
C2474 Tb2472 2.809 . S
C2474 C2475 1.514 . S
C2474 O2492 1.248 . S
C2474 O2493 1.266 . S
C2475 C2474 1.514 . S
C2475 C2476 1.359 . S
C2475 C2480 1.348 . S
C2476 C2475 1.359 . S
C2476 C2477 1.380 . S
C2476 H2504 0.929 . S
C2477 C2476 1.380 . S
C2477 C2478 1.347 . S
C2477 H2505 0.931 . S
C2478 C2477 1.347 . S
C2478 C2479 1.369 . S
C2479 C2478 1.369 . S
C2479 C2480 1.408 . S
C2479 H2506 0.930 . S
C2480 C2475 1.348 . S
C2480 C2479 1.408 . S
C2480 H2507 0.930 . S
C2481 O2494 1.281 . S
C2481 O2495 1.254 . S
C2482 O2496 1.236 . S
C2482 O2497 1.266 . S
C2483 Tb2473 2.809 . S
C2483 C2484 1.514 . S
C2483 O2498 1.248 . S
C2483 O2499 1.266 . S
C2484 C2483 1.514 . S
C2484 C2485 1.359 . S
C2484 C2489 1.348 . S
C2485 C2484 1.359 . S
C2485 C2486 1.380 . S
C2485 H2508 0.929 . S
C2486 C2485 1.380 . S
C2486 C2487 1.347 . S
C2486 H2509 0.931 . S
C2487 C2486 1.347 . S
C2487 C2488 1.369 . S
C2488 C2487 1.369 . S
C2488 C2489 1.408 . S
C2488 H2510 0.930 . S
C2489 C2484 1.348 . S
C2489 C2488 1.408 . S
C2489 H2511 0.930 . S
C2490 O2500 1.281 . S
C2490 O2501 1.254 . S
C2491 O2502 1.236 . S
C2491 O2503 1.266 . S
O2492 Tb2472 2.484 . S
O2492 C2474 1.248 . S
O2493 Tb2472 2.440 . S
O2493 C2474 1.266 . S
O2494 Tb2472 2.658 . S
O2494 Tb2473 2.325 . S
O2494 C2481 1.281 . S
O2495 Tb2472 2.409 . S
O2495 C2481 1.254 . S
O2496 Tb2472 2.378 . S
O2496 C2482 1.236 . S
O2497 Tb2473 2.341 . S
O2497 C2482 1.266 . S
O2498 Tb2473 2.484 . S
O2498 C2483 1.248 . S
O2499 Tb2473 2.440 . S
O2499 C2483 1.266 . S
O2500 Tb2472 2.325 . S
O2500 Tb2473 2.658 . S
O2500 C2490 1.281 . S
O2501 Tb2473 2.409 . S
O2501 C2490 1.254 . S
O2502 Tb2473 2.378 . S
O2502 C2491 1.236 . S
O2503 Tb2472 2.341 . S
O2503 C2491 1.266 . S
H2504 C2476 0.929 . S
H2505 C2477 0.931 . S
H2506 C2479 0.930 . S
H2507 C2480 0.930 . S
H2508 C2485 0.929 . S
H2509 C2486 0.931 . S
H2510 C2488 0.930 . S
H2511 C2489 0.930 . S
Tb2512 C2514 2.809 1_455 S
Tb2512 O2532 2.484 1_455 S
Tb2512 O2533 2.440 1_455 S
Tb2512 O2534 2.658 . S
Tb2512 O2535 2.409 . S
Tb2512 O2536 2.378 . S
Tb2512 O2540 2.325 . S
Tb2512 O2543 2.341 . S
Tb2513 C2523 2.809 . S
Tb2513 O2534 2.325 . S
Tb2513 O2537 2.341 . S
Tb2513 O2538 2.484 . S
Tb2513 O2539 2.440 . S
Tb2513 O2540 2.658 . S
Tb2513 O2541 2.409 . S
Tb2513 O2542 2.378 . S
C2514 Tb2512 2.809 1_655 S
C2514 C2515 1.514 . S
C2514 O2532 1.248 . S
C2514 O2533 1.266 . S
C2515 C2514 1.514 . S
C2515 C2516 1.359 . S
C2515 C2520 1.348 . S
C2516 C2515 1.359 . S
C2516 C2517 1.380 . S
C2516 H2544 0.929 . S
C2517 C2516 1.380 . S
C2517 C2518 1.347 . S
C2517 H2545 0.931 . S
C2518 C2517 1.347 . S
C2518 C2519 1.369 . S
C2519 C2518 1.369 . S
C2519 C2520 1.408 . S
C2519 H2546 0.930 . S
C2520 C2515 1.348 . S
C2520 C2519 1.408 . S
C2520 H2547 0.930 . S
C2521 O2534 1.281 . S
C2521 O2535 1.254 . S
C2522 O2536 1.236 . S
C2522 O2537 1.266 . S
C2523 Tb2513 2.809 . S
C2523 C2524 1.514 . S
C2523 O2538 1.248 . S
C2523 O2539 1.266 . S
C2524 C2523 1.514 . S
C2524 C2525 1.359 . S
C2524 C2529 1.348 . S
C2525 C2524 1.359 . S
C2525 C2526 1.380 . S
C2525 H2548 0.929 . S
C2526 C2525 1.380 . S
C2526 C2527 1.347 . S
C2526 H2549 0.931 . S
C2527 C2526 1.347 . S
C2527 C2528 1.369 . S
C2528 C2527 1.369 . S
C2528 C2529 1.408 . S
C2528 H2550 0.930 . S
C2529 C2524 1.348 . S
C2529 C2528 1.408 . S
C2529 H2551 0.930 . S
C2530 O2540 1.281 . S
C2530 O2541 1.254 . S
C2531 O2542 1.236 . S
C2531 O2543 1.266 . S
O2532 Tb2512 2.484 1_655 S
O2532 C2514 1.248 . S
O2533 Tb2512 2.440 1_655 S
O2533 C2514 1.266 . S
O2534 Tb2512 2.658 . S
O2534 Tb2513 2.325 . S
O2534 C2521 1.281 . S
O2535 Tb2512 2.409 . S
O2535 C2521 1.254 . S
O2536 Tb2512 2.378 . S
O2536 C2522 1.236 . S
O2537 Tb2513 2.341 . S
O2537 C2522 1.266 . S
O2538 Tb2513 2.484 . S
O2538 C2523 1.248 . S
O2539 Tb2513 2.440 . S
O2539 C2523 1.266 . S
O2540 Tb2512 2.325 . S
O2540 Tb2513 2.658 . S
O2540 C2530 1.281 . S
O2541 Tb2513 2.409 . S
O2541 C2530 1.254 . S
O2542 Tb2513 2.378 . S
O2542 C2531 1.236 . S
O2543 Tb2512 2.341 . S
O2543 C2531 1.266 . S
H2544 C2516 0.929 . S
H2545 C2517 0.931 . S
H2546 C2519 0.930 . S
H2547 C2520 0.930 . S
H2548 C2525 0.929 . S
H2549 C2526 0.931 . S
H2550 C2528 0.930 . S
H2551 C2529 0.930 . S
Tb2552 C2554 2.809 . S
Tb2552 O2572 2.484 . S
Tb2552 O2573 2.440 . S
Tb2552 O2574 2.658 . S
Tb2552 O2575 2.409 . S
Tb2552 O2576 2.378 . S
Tb2552 O2580 2.325 . S
Tb2552 O2583 2.341 . S
Tb2553 C2563 2.809 . S
Tb2553 O2574 2.325 . S
Tb2553 O2577 2.341 . S
Tb2553 O2578 2.484 . S
Tb2553 O2579 2.440 . S
Tb2553 O2580 2.658 . S
Tb2553 O2581 2.409 . S
Tb2553 O2582 2.378 . S
C2554 Tb2552 2.809 . S
C2554 C2555 1.514 . S
C2554 O2572 1.248 . S
C2554 O2573 1.266 . S
C2555 C2554 1.514 . S
C2555 C2556 1.359 . S
C2555 C2560 1.348 . S
C2556 C2555 1.359 . S
C2556 C2557 1.380 . S
C2556 H2584 0.929 . S
C2557 C2556 1.380 . S
C2557 C2558 1.347 . S
C2557 H2585 0.931 . S
C2558 C2557 1.347 . S
C2558 C2559 1.369 . S
C2559 C2558 1.369 . S
C2559 C2560 1.408 . S
C2559 H2586 0.930 . S
C2560 C2555 1.348 . S
C2560 C2559 1.408 . S
C2560 H2587 0.930 . S
C2561 O2574 1.281 . S
C2561 O2575 1.254 . S
C2562 O2576 1.236 . S
C2562 O2577 1.266 . S
C2563 Tb2553 2.809 . S
C2563 C2564 1.514 . S
C2563 O2578 1.248 . S
C2563 O2579 1.266 . S
C2564 C2563 1.514 . S
C2564 C2565 1.359 . S
C2564 C2569 1.348 . S
C2565 C2564 1.359 . S
C2565 C2566 1.380 . S
C2565 H2588 0.929 . S
C2566 C2565 1.380 . S
C2566 C2567 1.347 . S
C2566 H2589 0.931 . S
C2567 C2566 1.347 . S
C2567 C2568 1.369 . S
C2568 C2567 1.369 . S
C2568 C2569 1.408 . S
C2568 H2590 0.930 . S
C2569 C2564 1.348 . S
C2569 C2568 1.408 . S
C2569 H2591 0.930 . S
C2570 O2580 1.281 . S
C2570 O2581 1.254 . S
C2571 O2582 1.236 . S
C2571 O2583 1.266 . S
O2572 Tb2552 2.484 . S
O2572 C2554 1.248 . S
O2573 Tb2552 2.440 . S
O2573 C2554 1.266 . S
O2574 Tb2552 2.658 . S
O2574 Tb2553 2.325 . S
O2574 C2561 1.281 . S
O2575 Tb2552 2.409 . S
O2575 C2561 1.254 . S
O2576 Tb2552 2.378 . S
O2576 C2562 1.236 . S
O2577 Tb2553 2.341 . S
O2577 C2562 1.266 . S
O2578 Tb2553 2.484 . S
O2578 C2563 1.248 . S
O2579 Tb2553 2.440 . S
O2579 C2563 1.266 . S
O2580 Tb2552 2.325 . S
O2580 Tb2553 2.658 . S
O2580 C2570 1.281 . S
O2581 Tb2553 2.409 . S
O2581 C2570 1.254 . S
O2582 Tb2553 2.378 . S
O2582 C2571 1.236 . S
O2583 Tb2552 2.341 . S
O2583 C2571 1.266 . S
H2584 C2556 0.929 . S
H2585 C2557 0.931 . S
H2586 C2559 0.930 . S
H2587 C2560 0.930 . S
H2588 C2565 0.929 . S
H2589 C2566 0.931 . S
H2590 C2568 0.930 . S
H2591 C2569 0.930 . S
Tb2592 C2594 2.809 . S
Tb2592 O2612 2.484 . S
Tb2592 O2613 2.440 . S
Tb2592 O2614 2.658 . S
Tb2592 O2615 2.409 . S
Tb2592 O2616 2.378 . S
Tb2592 O2620 2.325 . S
Tb2592 O2623 2.341 . S
Tb2593 C2603 2.809 . S
Tb2593 O2614 2.325 . S
Tb2593 O2617 2.341 . S
Tb2593 O2618 2.484 . S
Tb2593 O2619 2.440 . S
Tb2593 O2620 2.658 . S
Tb2593 O2621 2.409 . S
Tb2593 O2622 2.378 . S
C2594 Tb2592 2.809 . S
C2594 C2595 1.514 . S
C2594 O2612 1.248 . S
C2594 O2613 1.266 . S
C2595 C2594 1.514 . S
C2595 C2596 1.359 . S
C2595 C2600 1.348 . S
C2596 C2595 1.359 . S
C2596 C2597 1.380 . S
C2596 H2624 0.929 . S
C2597 C2596 1.380 . S
C2597 C2598 1.347 . S
C2597 H2625 0.931 . S
C2598 C2597 1.347 . S
C2598 C2599 1.369 . S
C2599 C2598 1.369 . S
C2599 C2600 1.408 . S
C2599 H2626 0.930 . S
C2600 C2595 1.348 . S
C2600 C2599 1.408 . S
C2600 H2627 0.930 . S
C2601 O2614 1.281 . S
C2601 O2615 1.254 . S
C2602 O2616 1.236 . S
C2602 O2617 1.266 . S
C2603 Tb2593 2.809 . S
C2603 C2604 1.514 . S
C2603 O2618 1.248 . S
C2603 O2619 1.266 . S
C2604 C2603 1.514 . S
C2604 C2605 1.359 . S
C2604 C2609 1.348 . S
C2605 C2604 1.359 . S
C2605 C2606 1.380 . S
C2605 H2628 0.929 . S
C2606 C2605 1.380 . S
C2606 C2607 1.347 . S
C2606 H2629 0.931 . S
C2607 C2606 1.347 . S
C2607 C2608 1.369 . S
C2608 C2607 1.369 . S
C2608 C2609 1.408 . S
C2608 H2630 0.930 . S
C2609 C2604 1.348 . S
C2609 C2608 1.408 . S
C2609 H2631 0.930 . S
C2610 O2620 1.281 . S
C2610 O2621 1.254 . S
C2611 O2622 1.236 . S
C2611 O2623 1.266 . S
O2612 Tb2592 2.484 . S
O2612 C2594 1.248 . S
O2613 Tb2592 2.440 . S
O2613 C2594 1.266 . S
O2614 Tb2592 2.658 . S
O2614 Tb2593 2.325 . S
O2614 C2601 1.281 . S
O2615 Tb2592 2.409 . S
O2615 C2601 1.254 . S
O2616 Tb2592 2.378 . S
O2616 C2602 1.236 . S
O2617 Tb2593 2.341 . S
O2617 C2602 1.266 . S
O2618 Tb2593 2.484 . S
O2618 C2603 1.248 . S
O2619 Tb2593 2.440 . S
O2619 C2603 1.266 . S
O2620 Tb2592 2.325 . S
O2620 Tb2593 2.658 . S
O2620 C2610 1.281 . S
O2621 Tb2593 2.409 . S
O2621 C2610 1.254 . S
O2622 Tb2593 2.378 . S
O2622 C2611 1.236 . S
O2623 Tb2592 2.341 . S
O2623 C2611 1.266 . S
H2624 C2596 0.929 . S
H2625 C2597 0.931 . S
H2626 C2599 0.930 . S
H2627 C2600 0.930 . S
H2628 C2605 0.929 . S
H2629 C2606 0.931 . S
H2630 C2608 0.930 . S
H2631 C2609 0.930 . S
Tb2632 C2634 2.809 . S
Tb2632 O2652 2.484 . S
Tb2632 O2653 2.440 . S
Tb2632 O2654 2.658 . S
Tb2632 O2655 2.409 . S
Tb2632 O2656 2.378 . S
Tb2632 O2660 2.325 . S
Tb2632 O2663 2.341 . S
Tb2633 C2643 2.809 . S
Tb2633 O2654 2.325 . S
Tb2633 O2657 2.341 . S
Tb2633 O2658 2.484 . S
Tb2633 O2659 2.440 . S
Tb2633 O2660 2.658 . S
Tb2633 O2661 2.409 . S
Tb2633 O2662 2.378 . S
C2634 Tb2632 2.809 . S
C2634 C2635 1.514 . S
C2634 O2652 1.248 . S
C2634 O2653 1.266 . S
C2635 C2634 1.514 . S
C2635 C2636 1.359 . S
C2635 C2640 1.348 . S
C2636 C2635 1.359 . S
C2636 C2637 1.380 . S
C2636 H2664 0.929 . S
C2637 C2636 1.380 . S
C2637 C2638 1.347 . S
C2637 H2665 0.931 . S
C2638 C2637 1.347 . S
C2638 C2639 1.369 . S
C2639 C2638 1.369 . S
C2639 C2640 1.408 . S
C2639 H2666 0.930 . S
C2640 C2635 1.348 . S
C2640 C2639 1.408 . S
C2640 H2667 0.930 . S
C2641 O2654 1.281 . S
C2641 O2655 1.254 . S
C2642 O2656 1.236 . S
C2642 O2657 1.266 . S
C2643 Tb2633 2.809 . S
C2643 C2644 1.514 . S
C2643 O2658 1.248 . S
C2643 O2659 1.266 . S
C2644 C2643 1.514 . S
C2644 C2645 1.359 . S
C2644 C2649 1.348 . S
C2645 C2644 1.359 . S
C2645 C2646 1.380 . S
C2645 H2668 0.929 . S
C2646 C2645 1.380 . S
C2646 C2647 1.347 . S
C2646 H2669 0.931 . S
C2647 C2646 1.347 . S
C2647 C2648 1.369 . S
C2648 C2647 1.369 . S
C2648 C2649 1.408 . S
C2648 H2670 0.930 . S
C2649 C2644 1.348 . S
C2649 C2648 1.408 . S
C2649 H2671 0.930 . S
C2650 O2660 1.281 . S
C2650 O2661 1.254 . S
C2651 O2662 1.236 . S
C2651 O2663 1.266 . S
O2652 Tb2632 2.484 . S
O2652 C2634 1.248 . S
O2653 Tb2632 2.440 . S
O2653 C2634 1.266 . S
O2654 Tb2632 2.658 . S
O2654 Tb2633 2.325 . S
O2654 C2641 1.281 . S
O2655 Tb2632 2.409 . S
O2655 C2641 1.254 . S
O2656 Tb2632 2.378 . S
O2656 C2642 1.236 . S
O2657 Tb2633 2.341 . S
O2657 C2642 1.266 . S
O2658 Tb2633 2.484 . S
O2658 C2643 1.248 . S
O2659 Tb2633 2.440 . S
O2659 C2643 1.266 . S
O2660 Tb2632 2.325 . S
O2660 Tb2633 2.658 . S
O2660 C2650 1.281 . S
O2661 Tb2633 2.409 . S
O2661 C2650 1.254 . S
O2662 Tb2633 2.378 . S
O2662 C2651 1.236 . S
O2663 Tb2632 2.341 . S
O2663 C2651 1.266 . S
H2664 C2636 0.929 . S
H2665 C2637 0.931 . S
H2666 C2639 0.930 . S
H2667 C2640 0.930 . S
H2668 C2645 0.929 . S
H2669 C2646 0.931 . S
H2670 C2648 0.930 . S
H2671 C2649 0.930 . S
Tb2672 C2674 2.809 . S
Tb2672 O2692 2.484 . S
Tb2672 O2693 2.440 . S
Tb2672 O2694 2.658 . S
Tb2672 O2695 2.409 . S
Tb2672 O2696 2.378 . S
Tb2672 O2700 2.325 . S
Tb2672 O2703 2.341 . S
Tb2673 C2683 2.809 . S
Tb2673 O2694 2.325 . S
Tb2673 O2697 2.341 . S
Tb2673 O2698 2.484 . S
Tb2673 O2699 2.440 . S
Tb2673 O2700 2.658 . S
Tb2673 O2701 2.409 . S
Tb2673 O2702 2.378 . S
C2674 Tb2672 2.809 . S
C2674 C2675 1.514 . S
C2674 O2692 1.248 . S
C2674 O2693 1.266 . S
C2675 C2674 1.514 . S
C2675 C2676 1.359 . S
C2675 C2680 1.348 . S
C2676 C2675 1.359 . S
C2676 C2677 1.380 . S
C2676 H2704 0.929 . S
C2677 C2676 1.380 . S
C2677 C2678 1.347 . S
C2677 H2705 0.931 . S
C2678 C2677 1.347 . S
C2678 C2679 1.369 . S
C2679 C2678 1.369 . S
C2679 C2680 1.408 . S
C2679 H2706 0.930 . S
C2680 C2675 1.348 . S
C2680 C2679 1.408 . S
C2680 H2707 0.930 . S
C2681 O2694 1.281 . S
C2681 O2695 1.254 . S
C2682 O2696 1.236 . S
C2682 O2697 1.266 . S
C2683 Tb2673 2.809 . S
C2683 C2684 1.514 . S
C2683 O2698 1.248 . S
C2683 O2699 1.266 . S
C2684 C2683 1.514 . S
C2684 C2685 1.359 . S
C2684 C2689 1.348 . S
C2685 C2684 1.359 . S
C2685 C2686 1.380 . S
C2685 H2708 0.929 . S
C2686 C2685 1.380 . S
C2686 C2687 1.347 . S
C2686 H2709 0.931 . S
C2687 C2686 1.347 . S
C2687 C2688 1.369 . S
C2688 C2687 1.369 . S
C2688 C2689 1.408 . S
C2688 H2710 0.930 . S
C2689 C2684 1.348 . S
C2689 C2688 1.408 . S
C2689 H2711 0.930 . S
C2690 O2700 1.281 . S
C2690 O2701 1.254 . S
C2691 O2702 1.236 . S
C2691 O2703 1.266 . S
O2692 Tb2672 2.484 . S
O2692 C2674 1.248 . S
O2693 Tb2672 2.440 . S
O2693 C2674 1.266 . S
O2694 Tb2672 2.658 . S
O2694 Tb2673 2.325 . S
O2694 C2681 1.281 . S
O2695 Tb2672 2.409 . S
O2695 C2681 1.254 . S
O2696 Tb2672 2.378 . S
O2696 C2682 1.236 . S
O2697 Tb2673 2.341 . S
O2697 C2682 1.266 . S
O2698 Tb2673 2.484 . S
O2698 C2683 1.248 . S
O2699 Tb2673 2.440 . S
O2699 C2683 1.266 . S
O2700 Tb2672 2.325 . S
O2700 Tb2673 2.658 . S
O2700 C2690 1.281 . S
O2701 Tb2673 2.409 . S
O2701 C2690 1.254 . S
O2702 Tb2673 2.378 . S
O2702 C2691 1.236 . S
O2703 Tb2672 2.341 . S
O2703 C2691 1.266 . S
H2704 C2676 0.929 . S
H2705 C2677 0.931 . S
H2706 C2679 0.930 . S
H2707 C2680 0.930 . S
H2708 C2685 0.929 . S
H2709 C2686 0.931 . S
H2710 C2688 0.930 . S
H2711 C2689 0.930 . S
Tb2712 C2714 2.809 . S
Tb2712 O2732 2.484 . S
Tb2712 O2733 2.440 . S
Tb2712 O2734 2.658 . S
Tb2712 O2735 2.409 1_554 S
Tb2712 O2736 2.378 . S
Tb2712 O2740 2.325 . S
Tb2712 O2743 2.341 . S
Tb2713 C2723 2.809 1_455 S
Tb2713 O2734 2.325 . S
Tb2713 O2737 2.341 . S
Tb2713 O2738 2.484 1_455 S
Tb2713 O2739 2.440 1_455 S
Tb2713 O2740 2.658 . S
Tb2713 O2741 2.409 . S
Tb2713 O2742 2.378 . S
C2714 Tb2712 2.809 . S
C2714 C2715 1.514 . S
C2714 O2732 1.248 . S
C2714 O2733 1.265 . S
C2715 C2714 1.514 . S
C2715 C2716 1.359 . S
C2715 C2720 1.348 1_554 S
C2716 C2715 1.359 . S
C2716 C2717 1.380 . S
C2716 H2744 0.929 . S
C2717 C2716 1.380 . S
C2717 C2718 1.347 . S
C2717 H2745 0.931 . S
C2718 C2717 1.347 . S
C2718 C2719 1.369 1_554 S
C2719 C2718 1.369 1_556 S
C2719 C2720 1.408 . S
C2719 H2746 0.930 . S
C2720 C2715 1.348 1_556 S
C2720 C2719 1.408 . S
C2720 H2747 0.930 . S
C2721 O2734 1.281 1_556 S
C2721 O2735 1.254 . S
C2722 O2736 1.236 . S
C2722 O2737 1.266 . S
C2723 Tb2713 2.809 1_655 S
C2723 C2724 1.514 . S
C2723 O2738 1.248 . S
C2723 O2739 1.266 . S
C2724 C2723 1.514 . S
C2724 C2725 1.359 . S
C2724 C2729 1.348 . S
C2725 C2724 1.359 . S
C2725 C2726 1.380 . S
C2725 H2748 0.929 . S
C2726 C2725 1.380 . S
C2726 C2727 1.347 . S
C2726 H2749 0.931 . S
C2727 C2726 1.347 . S
C2727 C2728 1.369 . S
C2728 C2727 1.369 . S
C2728 C2729 1.408 . S
C2728 H2750 0.930 . S
C2729 C2724 1.348 . S
C2729 C2728 1.408 . S
C2729 H2751 0.930 . S
C2730 O2740 1.281 . S
C2730 O2741 1.254 . S
C2731 O2742 1.236 . S
C2731 O2743 1.266 . S
O2732 Tb2712 2.484 . S
O2732 C2714 1.248 . S
O2733 Tb2712 2.440 . S
O2733 C2714 1.265 . S
O2734 Tb2712 2.658 . S
O2734 Tb2713 2.325 . S
O2734 C2721 1.281 1_554 S
O2735 Tb2712 2.409 1_556 S
O2735 C2721 1.254 . S
O2736 Tb2712 2.378 . S
O2736 C2722 1.236 . S
O2737 Tb2713 2.341 . S
O2737 C2722 1.266 . S
O2738 Tb2713 2.484 1_655 S
O2738 C2723 1.248 . S
O2739 Tb2713 2.440 1_655 S
O2739 C2723 1.266 . S
O2740 Tb2712 2.325 . S
O2740 Tb2713 2.658 . S
O2740 C2730 1.281 . S
O2741 Tb2713 2.409 . S
O2741 C2730 1.254 . S
O2742 Tb2713 2.378 . S
O2742 C2731 1.236 . S
O2743 Tb2712 2.341 . S
O2743 C2731 1.266 . S
H2744 C2716 0.929 . S
H2745 C2717 0.931 . S
H2746 C2719 0.930 . S
H2747 C2720 0.930 . S
H2748 C2725 0.929 . S
H2749 C2726 0.931 . S
H2750 C2728 0.930 . S
H2751 C2729 0.930 . S
C2752 C2753 1.391 . S
C2752 C2754 1.394 . S
C2752 H2768 0.931 1_455 S
C2753 C2752 1.391 . S
C2753 C2757 1.376 1_556 S
C2754 C2752 1.394 . S
C2754 C2755 1.369 . S
C2754 C2758 1.531 1_455 S
C2755 C2754 1.369 . S
C2755 C2756 1.410 1_556 S
C2755 C2763 1.503 1_556 S
C2756 C2755 1.410 1_554 S
C2756 C2757 1.392 . S
C2756 C2759 1.511 . S
C2757 C2753 1.376 1_554 S
C2757 C2756 1.392 . S
C2757 H2769 0.929 . S
C2758 C2754 1.531 1_655 S
C2758 H2770 0.960 1_655 S
C2758 H2771 0.962 . S
C2758 H2772 0.960 . S
C2759 C2756 1.511 . S
C2759 H2773 0.961 . S
C2759 H2774 0.961 . S
C2759 H2775 0.961 . S
C2760 C2761 1.370 . S
C2760 C2762 1.363 . S
C2760 H2776 0.931 . S
C2761 C2760 1.370 . S
C2761 C2765 1.408 . S
C2762 C2760 1.363 . S
C2762 C2763 1.370 . S
C2762 C2766 1.524 . S
C2763 C2755 1.503 1_554 S
C2763 C2762 1.370 . S
C2763 C2764 1.403 1_554 S
C2764 C2763 1.403 1_556 S
C2764 C2765 1.404 1_556 S
C2764 C2767 1.539 . S
C2765 C2761 1.408 . S
C2765 C2764 1.404 1_554 S
C2765 H2777 0.930 1_554 S
C2766 C2762 1.524 . S
C2766 H2778 0.956 1_455 S
C2766 H2779 0.961 . S
C2766 H2780 0.961 1_455 S
C2767 C2764 1.539 . S
C2767 H2781 0.958 . S
C2767 H2782 0.961 . S
C2767 H2783 0.960 . S
H2768 C2752 0.931 1_655 S
H2769 C2757 0.929 . S
H2770 C2758 0.960 1_455 S
H2771 C2758 0.962 . S
H2772 C2758 0.960 . S
H2773 C2759 0.961 . S
H2774 C2759 0.961 . S
H2775 C2759 0.961 . S
H2776 C2760 0.931 . S
H2777 C2765 0.930 1_556 S
H2778 C2766 0.956 1_655 S
H2779 C2766 0.961 . S
H2780 C2766 0.961 1_655 S
H2781 C2767 0.958 . S
H2782 C2767 0.961 . S
H2783 C2767 0.960 . S
C2784 C2785 1.391 . S
C2784 C2786 1.394 . S
C2784 H2800 0.931 . S
C2785 C2784 1.391 . S
C2785 C2789 1.376 . S
C2786 C2784 1.394 . S
C2786 C2787 1.369 . S
C2786 C2790 1.531 . S
C2787 C2786 1.369 . S
C2787 C2788 1.410 . S
C2787 C2795 1.503 . S
C2788 C2787 1.410 . S
C2788 C2789 1.392 . S
C2788 C2791 1.511 . S
C2789 C2785 1.376 . S
C2789 C2788 1.392 . S
C2789 H2801 0.929 . S
C2790 C2786 1.531 . S
C2790 H2802 0.960 . S
C2790 H2803 0.962 . S
C2790 H2804 0.960 . S
C2791 C2788 1.511 . S
C2791 H2805 0.961 . S
C2791 H2806 0.961 . S
C2791 H2807 0.961 . S
C2792 C2793 1.370 . S
C2792 C2794 1.363 . S
C2792 H2808 0.931 . S
C2793 C2792 1.370 . S
C2793 C2797 1.408 . S
C2794 C2792 1.363 . S
C2794 C2795 1.370 . S
C2794 C2798 1.524 . S
C2795 C2787 1.503 . S
C2795 C2794 1.370 . S
C2795 C2796 1.403 . S
C2796 C2795 1.403 . S
C2796 C2797 1.404 . S
C2796 C2799 1.539 . S
C2797 C2793 1.408 . S
C2797 C2796 1.404 . S
C2797 H2809 0.930 . S
C2798 C2794 1.524 . S
C2798 H2810 0.956 . S
C2798 H2811 0.961 . S
C2798 H2812 0.961 . S
C2799 C2796 1.539 . S
C2799 H2813 0.958 . S
C2799 H2814 0.961 . S
C2799 H2815 0.960 . S
H2800 C2784 0.931 . S
H2801 C2789 0.929 . S
H2802 C2790 0.960 . S
H2803 C2790 0.962 . S
H2804 C2790 0.960 . S
H2805 C2791 0.961 . S
H2806 C2791 0.961 . S
H2807 C2791 0.961 . S
H2808 C2792 0.931 . S
H2809 C2797 0.930 . S
H2810 C2798 0.956 . S
H2811 C2798 0.961 . S
H2812 C2798 0.961 . S
H2813 C2799 0.958 . S
H2814 C2799 0.961 . S
H2815 C2799 0.960 . S
C2816 C2817 1.391 . S
C2816 C2818 1.394 . S
C2816 H2832 0.931 . S
C2817 C2816 1.391 . S
C2817 C2821 1.376 . S
C2818 C2816 1.394 . S
C2818 C2819 1.369 . S
C2818 C2822 1.531 . S
C2819 C2818 1.369 . S
C2819 C2820 1.410 . S
C2819 C2827 1.503 . S
C2820 C2819 1.410 . S
C2820 C2821 1.392 . S
C2820 C2823 1.511 . S
C2821 C2817 1.376 . S
C2821 C2820 1.392 . S
C2821 H2833 0.929 . S
C2822 C2818 1.531 . S
C2822 H2834 0.960 . S
C2822 H2835 0.962 . S
C2822 H2836 0.960 . S
C2823 C2820 1.511 . S
C2823 H2837 0.961 . S
C2823 H2838 0.961 . S
C2823 H2839 0.961 . S
C2824 C2825 1.370 . S
C2824 C2826 1.363 . S
C2824 H2840 0.931 . S
C2825 C2824 1.370 . S
C2825 C2829 1.408 . S
C2826 C2824 1.363 . S
C2826 C2827 1.370 . S
C2826 C2830 1.524 . S
C2827 C2819 1.503 . S
C2827 C2826 1.370 . S
C2827 C2828 1.403 . S
C2828 C2827 1.403 . S
C2828 C2829 1.404 . S
C2828 C2831 1.539 . S
C2829 C2825 1.408 . S
C2829 C2828 1.404 . S
C2829 H2841 0.930 . S
C2830 C2826 1.524 . S
C2830 H2842 0.956 . S
C2830 H2843 0.961 . S
C2830 H2844 0.961 . S
C2831 C2828 1.539 . S
C2831 H2845 0.958 . S
C2831 H2846 0.961 . S
C2831 H2847 0.960 . S
H2832 C2816 0.931 . S
H2833 C2821 0.929 . S
H2834 C2822 0.960 . S
H2835 C2822 0.962 . S
H2836 C2822 0.960 . S
H2837 C2823 0.961 . S
H2838 C2823 0.961 . S
H2839 C2823 0.961 . S
H2840 C2824 0.931 . S
H2841 C2829 0.930 . S
H2842 C2830 0.956 . S
H2843 C2830 0.961 . S
H2844 C2830 0.961 . S
H2845 C2831 0.958 . S
H2846 C2831 0.961 . S
H2847 C2831 0.960 . S
C2848 C2849 1.391 . S
C2848 C2850 1.394 . S
C2848 H2864 0.931 . S
C2849 C2848 1.391 . S
C2849 C2853 1.376 . S
C2850 C2848 1.394 . S
C2850 C2851 1.369 . S
C2850 C2854 1.531 . S
C2851 C2850 1.369 . S
C2851 C2852 1.410 . S
C2851 C2859 1.503 . S
C2852 C2851 1.410 . S
C2852 C2853 1.392 . S
C2852 C2855 1.511 . S
C2853 C2849 1.376 . S
C2853 C2852 1.392 . S
C2853 H2865 0.929 . S
C2854 C2850 1.531 . S
C2854 H2866 0.960 . S
C2854 H2867 0.962 . S
C2854 H2868 0.960 . S
C2855 C2852 1.511 . S
C2855 H2869 0.961 . S
C2855 H2870 0.961 . S
C2855 H2871 0.961 . S
C2856 C2857 1.370 . S
C2856 C2858 1.363 . S
C2856 H2872 0.931 . S
C2857 C2856 1.370 . S
C2857 C2861 1.408 . S
C2858 C2856 1.363 . S
C2858 C2859 1.370 . S
C2858 C2862 1.524 . S
C2859 C2851 1.503 . S
C2859 C2858 1.370 . S
C2859 C2860 1.403 . S
C2860 C2859 1.403 . S
C2860 C2861 1.404 . S
C2860 C2863 1.539 . S
C2861 C2857 1.408 . S
C2861 C2860 1.404 . S
C2861 H2873 0.930 . S
C2862 C2858 1.524 . S
C2862 H2874 0.956 . S
C2862 H2875 0.961 . S
C2862 H2876 0.961 . S
C2863 C2860 1.539 . S
C2863 H2877 0.958 . S
C2863 H2878 0.961 . S
C2863 H2879 0.960 . S
H2864 C2848 0.931 . S
H2865 C2853 0.929 . S
H2866 C2854 0.960 . S
H2867 C2854 0.962 . S
H2868 C2854 0.960 . S
H2869 C2855 0.961 . S
H2870 C2855 0.961 . S
H2871 C2855 0.961 . S
H2872 C2856 0.931 . S
H2873 C2861 0.930 . S
H2874 C2862 0.956 . S
H2875 C2862 0.961 . S
H2876 C2862 0.961 . S
H2877 C2863 0.958 . S
H2878 C2863 0.961 . S
H2879 C2863 0.960 . S
C2880 C2881 1.391 . S
C2880 C2882 1.394 . S
C2880 H2896 0.931 . S
C2881 C2880 1.391 . S
C2881 C2885 1.376 . S
C2882 C2880 1.394 . S
C2882 C2883 1.369 . S
C2882 C2886 1.531 . S
C2883 C2882 1.369 . S
C2883 C2884 1.410 . S
C2883 C2891 1.503 . S
C2884 C2883 1.410 . S
C2884 C2885 1.392 . S
C2884 C2887 1.511 . S
C2885 C2881 1.376 . S
C2885 C2884 1.392 . S
C2885 H2897 0.929 . S
C2886 C2882 1.531 . S
C2886 H2898 0.960 . S
C2886 H2899 0.962 . S
C2886 H2900 0.960 . S
C2887 C2884 1.511 . S
C2887 H2901 0.961 . S
C2887 H2902 0.961 . S
C2887 H2903 0.961 . S
C2888 C2889 1.370 . S
C2888 C2890 1.363 . S
C2888 H2904 0.931 . S
C2889 C2888 1.370 . S
C2889 C2893 1.408 . S
C2890 C2888 1.363 . S
C2890 C2891 1.370 . S
C2890 C2894 1.524 . S
C2891 C2883 1.503 . S
C2891 C2890 1.370 . S
C2891 C2892 1.403 . S
C2892 C2891 1.403 . S
C2892 C2893 1.404 . S
C2892 C2895 1.539 . S
C2893 C2889 1.408 . S
C2893 C2892 1.404 . S
C2893 H2905 0.930 . S
C2894 C2890 1.524 . S
C2894 H2906 0.956 . S
C2894 H2907 0.961 . S
C2894 H2908 0.961 . S
C2895 C2892 1.539 . S
C2895 H2909 0.958 . S
C2895 H2910 0.961 . S
C2895 H2911 0.960 . S
H2896 C2880 0.931 . S
H2897 C2885 0.929 . S
H2898 C2886 0.960 . S
H2899 C2886 0.962 . S
H2900 C2886 0.960 . S
H2901 C2887 0.961 . S
H2902 C2887 0.961 . S
H2903 C2887 0.961 . S
H2904 C2888 0.931 . S
H2905 C2893 0.930 . S
H2906 C2894 0.956 . S
H2907 C2894 0.961 . S
H2908 C2894 0.961 . S
H2909 C2895 0.958 . S
H2910 C2895 0.961 . S
H2911 C2895 0.960 . S
C2912 C2913 1.391 . S
C2912 C2914 1.394 . S
C2912 H2928 0.931 . S
C2913 C2912 1.391 . S
C2913 C2917 1.376 . S
C2914 C2912 1.394 . S
C2914 C2915 1.369 . S
C2914 C2918 1.531 . S
C2915 C2914 1.369 . S
C2915 C2916 1.410 . S
C2915 C2923 1.503 . S
C2916 C2915 1.410 . S
C2916 C2917 1.392 . S
C2916 C2919 1.511 . S
C2917 C2913 1.376 . S
C2917 C2916 1.392 . S
C2917 H2929 0.929 . S
C2918 C2914 1.531 . S
C2918 H2930 0.960 . S
C2918 H2931 0.962 . S
C2918 H2932 0.960 . S
C2919 C2916 1.511 . S
C2919 H2933 0.961 . S
C2919 H2934 0.961 . S
C2919 H2935 0.961 . S
C2920 C2921 1.370 . S
C2920 C2922 1.363 . S
C2920 H2936 0.931 . S
C2921 C2920 1.370 . S
C2921 C2925 1.408 . S
C2922 C2920 1.363 . S
C2922 C2923 1.370 . S
C2922 C2926 1.524 . S
C2923 C2915 1.503 . S
C2923 C2922 1.370 . S
C2923 C2924 1.403 . S
C2924 C2923 1.403 . S
C2924 C2925 1.404 . S
C2924 C2927 1.539 . S
C2925 C2921 1.408 . S
C2925 C2924 1.404 . S
C2925 H2937 0.930 . S
C2926 C2922 1.524 . S
C2926 H2938 0.956 . S
C2926 H2939 0.961 . S
C2926 H2940 0.961 . S
C2927 C2924 1.539 . S
C2927 H2941 0.958 . S
C2927 H2942 0.961 . S
C2927 H2943 0.960 . S
H2928 C2912 0.931 . S
H2929 C2917 0.929 . S
H2930 C2918 0.960 . S
H2931 C2918 0.962 . S
H2932 C2918 0.960 . S
H2933 C2919 0.961 . S
H2934 C2919 0.961 . S
H2935 C2919 0.961 . S
H2936 C2920 0.931 . S
H2937 C2925 0.930 . S
H2938 C2926 0.956 . S
H2939 C2926 0.961 . S
H2940 C2926 0.961 . S
H2941 C2927 0.958 . S
H2942 C2927 0.961 . S
H2943 C2927 0.960 . S
C2944 C2945 1.391 . S
C2944 C2946 1.394 . S
C2944 H2960 0.931 . S
C2945 C2944 1.391 . S
C2945 C2949 1.376 . S
C2946 C2944 1.394 . S
C2946 C2947 1.369 . S
C2946 C2950 1.531 . S
C2947 C2946 1.369 . S
C2947 C2948 1.410 . S
C2947 C2955 1.503 . S
C2948 C2947 1.410 . S
C2948 C2949 1.392 . S
C2948 C2951 1.511 . S
C2949 C2945 1.376 . S
C2949 C2948 1.392 . S
C2949 H2961 0.929 . S
C2950 C2946 1.531 . S
C2950 H2962 0.960 . S
C2950 H2963 0.962 . S
C2950 H2964 0.960 . S
C2951 C2948 1.511 . S
C2951 H2965 0.961 . S
C2951 H2966 0.961 . S
C2951 H2967 0.961 . S
C2952 C2953 1.370 . S
C2952 C2954 1.363 . S
C2952 H2968 0.931 . S
C2953 C2952 1.370 . S
C2953 C2957 1.408 . S
C2954 C2952 1.363 . S
C2954 C2955 1.370 . S
C2954 C2958 1.524 . S
C2955 C2947 1.503 . S
C2955 C2954 1.370 . S
C2955 C2956 1.403 . S
C2956 C2955 1.403 . S
C2956 C2957 1.404 . S
C2956 C2959 1.539 . S
C2957 C2953 1.408 . S
C2957 C2956 1.404 . S
C2957 H2969 0.930 . S
C2958 C2954 1.524 . S
C2958 H2970 0.956 . S
C2958 H2971 0.961 . S
C2958 H2972 0.961 . S
C2959 C2956 1.539 . S
C2959 H2973 0.958 . S
C2959 H2974 0.961 . S
C2959 H2975 0.960 . S
H2960 C2944 0.931 . S
H2961 C2949 0.929 . S
H2962 C2950 0.960 . S
H2963 C2950 0.962 . S
H2964 C2950 0.960 . S
H2965 C2951 0.961 . S
H2966 C2951 0.961 . S
H2967 C2951 0.961 . S
H2968 C2952 0.931 . S
H2969 C2957 0.930 . S
H2970 C2958 0.956 . S
H2971 C2958 0.961 . S
H2972 C2958 0.961 . S
H2973 C2959 0.958 . S
H2974 C2959 0.961 . S
H2975 C2959 0.960 . S
C2976 C2977 1.391 . S
C2976 C2978 1.394 . S
C2976 H2992 0.931 . S
C2977 C2976 1.391 . S
C2977 C2981 1.376 . S
C2978 C2976 1.394 . S
C2978 C2979 1.369 . S
C2978 C2982 1.531 . S
C2979 C2978 1.369 . S
C2979 C2980 1.410 . S
C2979 C2987 1.503 . S
C2980 C2979 1.410 . S
C2980 C2981 1.392 . S
C2980 C2983 1.511 . S
C2981 C2977 1.376 . S
C2981 C2980 1.392 . S
C2981 H2993 0.929 . S
C2982 C2978 1.531 . S
C2982 H2994 0.960 . S
C2982 H2995 0.962 . S
C2982 H2996 0.960 . S
C2983 C2980 1.511 . S
C2983 H2997 0.961 . S
C2983 H2998 0.961 . S
C2983 H2999 0.961 . S
C2984 C2985 1.370 . S
C2984 C2986 1.363 . S
C2984 H3000 0.931 . S
C2985 C2984 1.370 . S
C2985 C2989 1.408 . S
C2986 C2984 1.363 . S
C2986 C2987 1.370 . S
C2986 C2990 1.524 . S
C2987 C2979 1.503 . S
C2987 C2986 1.370 . S
C2987 C2988 1.403 . S
C2988 C2987 1.403 . S
C2988 C2989 1.404 . S
C2988 C2991 1.539 . S
C2989 C2985 1.408 . S
C2989 C2988 1.404 . S
C2989 H3001 0.930 . S
C2990 C2986 1.524 . S
C2990 H3002 0.956 . S
C2990 H3003 0.961 . S
C2990 H3004 0.961 . S
C2991 C2988 1.539 . S
C2991 H3005 0.958 . S
C2991 H3006 0.961 . S
C2991 H3007 0.960 . S
H2992 C2976 0.931 . S
H2993 C2981 0.929 . S
H2994 C2982 0.960 . S
H2995 C2982 0.962 . S
H2996 C2982 0.960 . S
H2997 C2983 0.961 . S
H2998 C2983 0.961 . S
H2999 C2983 0.961 . S
H3000 C2984 0.931 . S
H3001 C2989 0.930 . S
H3002 C2990 0.956 . S
H3003 C2990 0.961 . S
H3004 C2990 0.961 . S
H3005 C2991 0.958 . S
H3006 C2991 0.961 . S
H3007 C2991 0.960 . S
C3008 C3009 1.391 1_565 S
C3008 C3010 1.394 1_655 S
C3008 H3024 0.931 1_655 S
C3009 C3008 1.391 1_545 S
C3009 C3013 1.376 . S
C3010 C3008 1.394 1_455 S
C3010 C3011 1.369 1_465 S
C3010 C3014 1.531 . S
C3011 C3010 1.369 1_645 S
C3011 C3012 1.410 . S
C3011 C3019 1.503 1_655 S
C3012 C3011 1.410 . S
C3012 C3013 1.392 . S
C3012 C3015 1.511 . S
C3013 C3009 1.376 . S
C3013 C3012 1.392 . S
C3013 H3025 0.929 . S
C3014 C3010 1.531 . S
C3014 H3026 0.960 . S
C3014 H3027 0.962 . S
C3014 H3028 0.960 . S
C3015 C3012 1.511 . S
C3015 H3029 0.961 . S
C3015 H3030 0.961 . S
C3015 H3031 0.961 . S
C3016 C3017 1.370 . S
C3016 C3018 1.363 . S
C3016 H3032 0.931 . S
C3017 C3016 1.370 . S
C3017 C3021 1.408 . S
C3018 C3016 1.363 . S
C3018 C3019 1.370 . S
C3018 C3022 1.524 . S
C3019 C3011 1.503 1_455 S
C3019 C3018 1.370 . S
C3019 C3020 1.403 1_445 S
C3020 C3019 1.403 1_665 S
C3020 C3021 1.404 1_665 S
C3020 C3023 1.539 . S
C3021 C3017 1.408 . S
C3021 C3020 1.404 1_445 S
C3021 H3033 0.930 1_445 S
C3022 C3018 1.524 . S
C3022 H3034 0.956 . S
C3022 H3035 0.961 . S
C3022 H3036 0.961 . S
C3023 C3020 1.539 . S
C3023 H3037 0.958 . S
C3023 H3038 0.961 . S
C3023 H3039 0.960 . S
H3024 C3008 0.931 1_455 S
H3025 C3013 0.929 . S
H3026 C3014 0.960 . S
H3027 C3014 0.962 . S
H3028 C3014 0.960 . S
H3029 C3015 0.961 . S
H3030 C3015 0.961 . S
H3031 C3015 0.961 . S
H3032 C3016 0.931 . S
H3033 C3021 0.930 1_665 S
H3034 C3022 0.956 . S
H3035 C3022 0.961 . S
H3036 C3022 0.961 . S
H3037 C3023 0.958 . S
H3038 C3023 0.961 . S
H3039 C3023 0.960 . S
C3040 C3041 1.391 . S
C3040 C3042 1.394 . S
C3040 H3056 0.931 . S
C3041 C3040 1.391 . S
C3041 C3045 1.376 . S
C3042 C3040 1.394 . S
C3042 C3043 1.369 . S
C3042 C3046 1.531 . S
C3043 C3042 1.369 . S
C3043 C3044 1.410 . S
C3043 C3051 1.503 . S
C3044 C3043 1.410 . S
C3044 C3045 1.392 . S
C3044 C3047 1.511 . S
C3045 C3041 1.376 . S
C3045 C3044 1.392 . S
C3045 H3057 0.929 . S
C3046 C3042 1.531 . S
C3046 H3058 0.960 . S
C3046 H3059 0.962 . S
C3046 H3060 0.960 . S
C3047 C3044 1.511 . S
C3047 H3061 0.961 . S
C3047 H3062 0.961 . S
C3047 H3063 0.961 . S
C3048 C3049 1.370 . S
C3048 C3050 1.363 . S
C3048 H3064 0.931 . S
C3049 C3048 1.370 . S
C3049 C3053 1.408 . S
C3050 C3048 1.363 . S
C3050 C3051 1.370 . S
C3050 C3054 1.524 . S
C3051 C3043 1.503 . S
C3051 C3050 1.370 . S
C3051 C3052 1.403 . S
C3052 C3051 1.403 . S
C3052 C3053 1.404 . S
C3052 C3055 1.539 . S
C3053 C3049 1.408 . S
C3053 C3052 1.404 . S
C3053 H3065 0.930 . S
C3054 C3050 1.524 . S
C3054 H3066 0.956 . S
C3054 H3067 0.961 . S
C3054 H3068 0.961 . S
C3055 C3052 1.539 . S
C3055 H3069 0.958 . S
C3055 H3070 0.961 . S
C3055 H3071 0.960 . S
H3056 C3040 0.931 . S
H3057 C3045 0.929 . S
H3058 C3046 0.960 . S
H3059 C3046 0.962 . S
H3060 C3046 0.960 . S
H3061 C3047 0.961 . S
H3062 C3047 0.961 . S
H3063 C3047 0.961 . S
H3064 C3048 0.931 . S
H3065 C3053 0.930 . S
H3066 C3054 0.956 . S
H3067 C3054 0.961 . S
H3068 C3054 0.961 . S
H3069 C3055 0.958 . S
H3070 C3055 0.961 . S
H3071 C3055 0.960 . S
C3072 C3073 1.407 . S
C3072 C3074 1.394 . S
C3072 H3088 0.931 . S
C3073 C3072 1.407 . S
C3073 C3077 1.351 1_565 S
C3074 C3072 1.394 . S
C3074 C3075 1.368 1_565 S
C3074 C3078 1.531 . S
C3075 C3074 1.368 1_545 S
C3075 C3076 1.410 . S
C3075 C3083 1.504 . S
C3076 C3075 1.410 . S
C3076 C3077 1.392 . S
C3076 C3079 1.511 . S
C3077 C3073 1.351 1_545 S
C3077 C3076 1.392 . S
C3077 H3089 0.929 . S
C3078 C3074 1.531 . S
C3078 H3090 0.960 . S
C3078 H3091 0.985 . S
C3078 H3092 0.960 . S
C3079 C3076 1.511 . S
C3079 H3093 0.961 . S
C3079 H3094 0.961 . S
C3079 H3095 0.959 1_545 S
C3080 C3081 1.370 . S
C3080 C3082 1.363 . S
C3080 H3096 0.931 . S
C3081 C3080 1.370 . S
C3081 C3085 1.408 1_545 S
C3082 C3080 1.363 . S
C3082 C3083 1.370 . S
C3082 C3086 1.524 . S
C3083 C3075 1.504 . S
C3083 C3082 1.370 . S
C3083 C3084 1.403 1_545 S
C3084 C3083 1.403 1_565 S
C3084 C3085 1.404 . S
C3084 C3087 1.539 . S
C3085 C3081 1.408 1_565 S
C3085 C3084 1.404 . S
C3085 H3097 0.930 . S
C3086 C3082 1.524 . S
C3086 H3098 0.956 . S
C3086 H3099 0.961 . S
C3086 H3100 0.961 . S
C3087 C3084 1.539 . S
C3087 H3101 0.958 . S
C3087 H3102 0.961 . S
C3087 H3103 0.960 . S
H3088 C3072 0.931 . S
H3089 C3077 0.929 . S
H3090 C3078 0.960 . S
H3091 C3078 0.985 . S
H3092 C3078 0.960 . S
H3093 C3079 0.961 . S
H3094 C3079 0.961 . S
H3095 C3079 0.959 1_565 S
H3096 C3080 0.931 . S
H3097 C3085 0.930 . S
H3098 C3086 0.956 . S
H3099 C3086 0.961 . S
H3100 C3086 0.961 . S
H3101 C3087 0.958 . S
H3102 C3087 0.961 . S
H3103 C3087 0.960 . S
C3104 C3105 1.391 . S
C3104 C3106 1.394 . S
C3104 H3120 0.931 . S
C3105 C3104 1.391 . S
C3105 C3109 1.376 . S
C3106 C3104 1.394 . S
C3106 C3107 1.369 . S
C3106 C3110 1.531 . S
C3107 C3106 1.369 . S
C3107 C3108 1.410 . S
C3107 C3115 1.503 . S
C3108 C3107 1.410 . S
C3108 C3109 1.392 . S
C3108 C3111 1.511 . S
C3109 C3105 1.376 . S
C3109 C3108 1.392 . S
C3109 H3121 0.929 . S
C3110 C3106 1.531 . S
C3110 H3122 0.960 . S
C3110 H3123 0.962 . S
C3110 H3124 0.960 . S
C3111 C3108 1.511 . S
C3111 H3125 0.961 . S
C3111 H3126 0.961 . S
C3111 H3127 0.961 . S
C3112 C3113 1.370 . S
C3112 C3114 1.363 . S
C3112 H3128 0.931 . S
C3113 C3112 1.370 . S
C3113 C3117 1.408 . S
C3114 C3112 1.363 . S
C3114 C3115 1.370 . S
C3114 C3118 1.524 . S
C3115 C3107 1.503 . S
C3115 C3114 1.370 . S
C3115 C3116 1.403 . S
C3116 C3115 1.403 . S
C3116 C3117 1.404 . S
C3116 C3119 1.539 . S
C3117 C3113 1.408 . S
C3117 C3116 1.404 . S
C3117 H3129 0.930 . S
C3118 C3114 1.524 . S
C3118 H3130 0.956 . S
C3118 H3131 0.961 . S
C3118 H3132 0.961 . S
C3119 C3116 1.539 . S
C3119 H3133 0.958 . S
C3119 H3134 0.961 . S
C3119 H3135 0.960 . S
H3120 C3104 0.931 . S
H3121 C3109 0.929 . S
H3122 C3110 0.960 . S
H3123 C3110 0.962 . S
H3124 C3110 0.960 . S
H3125 C3111 0.961 . S
H3126 C3111 0.961 . S
H3127 C3111 0.961 . S
H3128 C3112 0.931 . S
H3129 C3117 0.930 . S
H3130 C3118 0.956 . S
H3131 C3118 0.961 . S
H3132 C3118 0.961 . S
H3133 C3119 0.958 . S
H3134 C3119 0.961 . S
H3135 C3119 0.960 . S
C3136 C3137 1.391 . S
C3136 C3138 1.394 . S
C3136 H3152 0.931 . S
C3137 C3136 1.391 . S
C3137 C3141 1.376 . S
C3138 C3136 1.394 . S
C3138 C3139 1.369 . S
C3138 C3142 1.531 . S
C3139 C3138 1.369 . S
C3139 C3140 1.405 1_545 S
C3139 C3147 1.503 1_655 S
C3140 C3139 1.405 1_565 S
C3140 C3141 1.391 1_565 S
C3140 C3143 1.518 . S
C3141 C3137 1.376 . S
C3141 C3140 1.391 1_545 S
C3141 H3153 0.929 1_545 S
C3142 C3138 1.531 . S
C3142 H3154 0.960 . S
C3142 H3155 0.962 1_655 S
C3142 H3156 0.960 . S
C3143 C3140 1.518 . S
C3143 H3157 0.955 1_655 S
C3143 H3158 0.961 1_655 S
C3143 H3159 0.961 . S
C3144 C3145 1.370 . S
C3144 C3146 1.363 . S
C3144 H3160 0.931 . S
C3145 C3144 1.370 . S
C3145 C3149 1.408 1_455 S
C3146 C3144 1.363 . S
C3146 C3147 1.370 . S
C3146 C3150 1.524 . S
C3147 C3139 1.503 1_455 S
C3147 C3146 1.370 . S
C3147 C3148 1.403 1_455 S
C3148 C3147 1.403 1_655 S
C3148 C3149 1.404 . S
C3148 C3151 1.539 . S
C3149 C3145 1.408 1_655 S
C3149 C3148 1.404 . S
C3149 H3161 0.930 . S
C3150 C3146 1.524 . S
C3150 H3162 0.956 . S
C3150 H3163 0.961 . S
C3150 H3164 0.961 . S
C3151 C3148 1.539 . S
C3151 H3165 0.958 . S
C3151 H3166 0.961 1_545 S
C3151 H3167 0.960 . S
H3152 C3136 0.931 . S
H3153 C3141 0.929 1_565 S
H3154 C3142 0.960 . S
H3155 C3142 0.962 1_455 S
H3156 C3142 0.960 . S
H3157 C3143 0.955 1_455 S
H3158 C3143 0.961 1_455 S
H3159 C3143 0.961 . S
H3160 C3144 0.931 . S
H3161 C3149 0.930 . S
H3162 C3150 0.956 . S
H3163 C3150 0.961 . S
H3164 C3150 0.961 . S
H3165 C3151 0.958 . S
H3166 C3151 0.961 1_565 S
H3167 C3151 0.960 . S
C3168 C3169 1.391 . S
C3168 C3170 1.394 . S
C3168 H3184 0.931 . S
C3169 C3168 1.391 . S
C3169 C3173 1.376 . S
C3170 C3168 1.394 . S
C3170 C3171 1.369 . S
C3170 C3174 1.531 . S
C3171 C3170 1.369 . S
C3171 C3172 1.410 . S
C3171 C3179 1.503 . S
C3172 C3171 1.410 . S
C3172 C3173 1.392 . S
C3172 C3175 1.511 . S
C3173 C3169 1.376 . S
C3173 C3172 1.392 . S
C3173 H3185 0.929 . S
C3174 C3170 1.531 . S
C3174 H3186 0.960 . S
C3174 H3187 0.962 . S
C3174 H3188 0.960 . S
C3175 C3172 1.511 . S
C3175 H3189 0.961 . S
C3175 H3190 0.961 . S
C3175 H3191 0.961 . S
C3176 C3177 1.370 . S
C3176 C3178 1.363 . S
C3176 H3192 0.931 . S
C3177 C3176 1.370 . S
C3177 C3181 1.408 . S
C3178 C3176 1.363 . S
C3178 C3179 1.370 . S
C3178 C3182 1.524 . S
C3179 C3171 1.503 . S
C3179 C3178 1.370 . S
C3179 C3180 1.403 . S
C3180 C3179 1.403 . S
C3180 C3181 1.404 . S
C3180 C3183 1.539 . S
C3181 C3177 1.408 . S
C3181 C3180 1.404 . S
C3181 H3193 0.930 . S
C3182 C3178 1.524 . S
C3182 H3194 0.956 . S
C3182 H3195 0.961 . S
C3182 H3196 0.961 . S
C3183 C3180 1.539 . S
C3183 H3197 0.958 . S
C3183 H3198 0.961 . S
C3183 H3199 0.960 . S
H3184 C3168 0.931 . S
H3185 C3173 0.929 . S
H3186 C3174 0.960 . S
H3187 C3174 0.962 . S
H3188 C3174 0.960 . S
H3189 C3175 0.961 . S
H3190 C3175 0.961 . S
H3191 C3175 0.961 . S
H3192 C3176 0.931 . S
H3193 C3181 0.930 . S
H3194 C3182 0.956 . S
H3195 C3182 0.961 . S
H3196 C3182 0.961 . S
H3197 C3183 0.958 . S
H3198 C3183 0.961 . S
H3199 C3183 0.960 . S
C3200 C3201 1.403 . S
C3200 C3202 1.396 . S
C3200 H3216 0.917 1_545 S
C3201 C3200 1.403 . S
C3201 C3205 1.376 . S
C3202 C3200 1.396 . S
C3202 C3203 1.369 . S
C3202 C3206 1.531 1_545 S
C3203 C3202 1.369 . S
C3203 C3204 1.410 . S
C3203 C3211 1.503 . S
C3204 C3203 1.410 . S
C3204 C3205 1.392 . S
C3204 C3207 1.511 . S
C3205 C3201 1.376 . S
C3205 C3204 1.392 . S
C3205 H3217 0.929 . S
C3206 C3202 1.531 1_565 S
C3206 H3218 0.960 . S
C3206 H3219 0.962 . S
C3206 H3220 0.960 . S
C3207 C3204 1.511 . S
C3207 H3221 0.961 . S
C3207 H3222 0.961 . S
C3207 H3223 0.961 . S
C3208 C3209 1.370 . S
C3208 C3210 1.363 . S
C3208 H3224 0.931 . S
C3209 C3208 1.370 . S
C3209 C3213 1.408 . S
C3210 C3208 1.363 . S
C3210 C3211 1.370 . S
C3210 C3214 1.524 . S
C3211 C3203 1.503 . S
C3211 C3210 1.370 . S
C3211 C3212 1.403 . S
C3212 C3211 1.403 . S
C3212 C3213 1.404 . S
C3212 C3215 1.539 1_545 S
C3213 C3209 1.408 . S
C3213 C3212 1.404 . S
C3213 H3225 0.930 . S
C3214 C3210 1.524 . S
C3214 H3226 0.956 . S
C3214 H3227 0.961 . S
C3214 H3228 0.961 . S
C3215 C3212 1.539 1_565 S
C3215 H3229 0.958 . S
C3215 H3230 0.961 . S
C3215 H3231 0.960 . S
H3216 C3200 0.917 1_565 S
H3217 C3205 0.929 . S
H3218 C3206 0.960 . S
H3219 C3206 0.962 . S
H3220 C3206 0.960 . S
H3221 C3207 0.961 . S
H3222 C3207 0.961 . S
H3223 C3207 0.961 . S
H3224 C3208 0.931 . S
H3225 C3213 0.930 . S
H3226 C3214 0.956 . S
H3227 C3214 0.961 . S
H3228 C3214 0.961 . S
H3229 C3215 0.958 . S
H3230 C3215 0.961 . S
H3231 C3215 0.960 . S
C3232 C3233 1.391 . S
C3232 C3234 1.394 . S
C3232 H3248 0.931 . S
C3233 C3232 1.391 . S
C3233 C3237 1.376 . S
C3234 C3232 1.394 . S
C3234 C3235 1.369 . S
C3234 C3238 1.531 . S
C3235 C3234 1.369 . S
C3235 C3236 1.410 . S
C3235 C3243 1.503 . S
C3236 C3235 1.410 . S
C3236 C3237 1.392 . S
C3236 C3239 1.511 . S
C3237 C3233 1.376 . S
C3237 C3236 1.392 . S
C3237 H3249 0.929 . S
C3238 C3234 1.531 . S
C3238 H3250 0.960 . S
C3238 H3251 0.962 . S
C3238 H3252 0.960 . S
C3239 C3236 1.511 . S
C3239 H3253 0.961 . S
C3239 H3254 0.961 . S
C3239 H3255 0.961 . S
C3240 C3241 1.370 . S
C3240 C3242 1.363 . S
C3240 H3256 0.931 . S
C3241 C3240 1.370 . S
C3241 C3245 1.408 . S
C3242 C3240 1.363 . S
C3242 C3243 1.370 . S
C3242 C3246 1.524 . S
C3243 C3235 1.503 . S
C3243 C3242 1.370 . S
C3243 C3244 1.403 . S
C3244 C3243 1.403 . S
C3244 C3245 1.404 . S
C3244 C3247 1.539 . S
C3245 C3241 1.408 . S
C3245 C3244 1.404 . S
C3245 H3257 0.930 . S
C3246 C3242 1.524 . S
C3246 H3258 0.956 . S
C3246 H3259 0.961 . S
C3246 H3260 0.961 . S
C3247 C3244 1.539 . S
C3247 H3261 0.958 . S
C3247 H3262 0.961 . S
C3247 H3263 0.960 . S
H3248 C3232 0.931 . S
H3249 C3237 0.929 . S
H3250 C3238 0.960 . S
H3251 C3238 0.962 . S
H3252 C3238 0.960 . S
H3253 C3239 0.961 . S
H3254 C3239 0.961 . S
H3255 C3239 0.961 . S
H3256 C3240 0.931 . S
H3257 C3245 0.930 . S
H3258 C3246 0.956 . S
H3259 C3246 0.961 . S
H3260 C3246 0.961 . S
H3261 C3247 0.958 . S
H3262 C3247 0.961 . S
H3263 C3247 0.960 . S
C3264 C3265 1.391 . S
C3264 C3266 1.394 . S
C3264 H3280 0.931 . S
C3265 C3264 1.391 . S
C3265 C3269 1.376 1_554 S
C3266 C3264 1.394 . S
C3266 C3267 1.369 . S
C3266 C3270 1.531 . S
C3267 C3266 1.369 . S
C3267 C3268 1.410 . S
C3267 C3275 1.503 . S
C3268 C3267 1.410 . S
C3268 C3269 1.392 1_554 S
C3268 C3271 1.511 1_554 S
C3269 C3265 1.376 1_556 S
C3269 C3268 1.392 1_556 S
C3269 H3281 0.929 . S
C3270 C3266 1.531 . S
C3270 H3282 0.960 . S
C3270 H3283 0.962 . S
C3270 H3284 0.960 . S
C3271 C3268 1.511 1_556 S
C3271 H3285 0.961 . S
C3271 H3286 0.961 . S
C3271 H3287 0.961 . S
C3272 C3273 1.370 . S
C3272 C3274 1.363 . S
C3272 H3288 0.931 . S
C3273 C3272 1.370 . S
C3273 C3277 1.408 . S
C3274 C3272 1.363 . S
C3274 C3275 1.370 . S
C3274 C3278 1.524 . S
C3275 C3267 1.503 . S
C3275 C3274 1.370 . S
C3275 C3276 1.403 . S
C3276 C3275 1.403 . S
C3276 C3277 1.404 . S
C3276 C3279 1.539 . S
C3277 C3273 1.408 . S
C3277 C3276 1.404 . S
C3277 H3289 0.930 . S
C3278 C3274 1.524 . S
C3278 H3290 0.956 . S
C3278 H3291 0.961 . S
C3278 H3292 0.961 . S
C3279 C3276 1.539 . S
C3279 H3293 0.958 . S
C3279 H3294 0.961 . S
C3279 H3295 0.960 . S
H3280 C3264 0.931 . S
H3281 C3269 0.929 . S
H3282 C3270 0.960 . S
H3283 C3270 0.962 . S
H3284 C3270 0.960 . S
H3285 C3271 0.961 . S
H3286 C3271 0.961 . S
H3287 C3271 0.961 . S
H3288 C3272 0.931 . S
H3289 C3277 0.930 . S
H3290 C3278 0.956 . S
H3291 C3278 0.961 . S
H3292 C3278 0.961 . S
H3293 C3279 0.958 . S
H3294 C3279 0.961 . S
H3295 C3279 0.960 . S
C3296 C3297 1.391 1_556 S
C3296 C3298 1.394 . S
C3296 H3312 0.931 . S
C3297 C3296 1.391 1_554 S
C3297 C3301 1.376 . S
C3298 C3296 1.394 . S
C3298 C3299 1.369 1_556 S
C3298 C3302 1.531 . S
C3299 C3298 1.369 1_554 S
C3299 C3300 1.410 . S
C3299 C3307 1.503 . S
C3300 C3299 1.410 . S
C3300 C3301 1.392 . S
C3300 C3303 1.511 . S
C3301 C3297 1.376 . S
C3301 C3300 1.392 . S
C3301 H3313 0.929 . S
C3302 C3298 1.531 . S
C3302 H3314 0.960 . S
C3302 H3315 0.962 . S
C3302 H3316 0.960 . S
C3303 C3300 1.511 . S
C3303 H3317 0.961 . S
C3303 H3318 0.961 . S
C3303 H3319 0.961 . S
C3304 C3305 1.370 . S
C3304 C3306 1.363 . S
C3304 H3320 0.931 . S
C3305 C3304 1.370 . S
C3305 C3309 1.408 . S
C3306 C3304 1.363 . S
C3306 C3307 1.370 . S
C3306 C3310 1.524 . S
C3307 C3299 1.503 . S
C3307 C3306 1.370 . S
C3307 C3308 1.403 . S
C3308 C3307 1.403 . S
C3308 C3309 1.404 . S
C3308 C3311 1.539 . S
C3309 C3305 1.408 . S
C3309 C3308 1.404 . S
C3309 H3321 0.930 . S
C3310 C3306 1.524 . S
C3310 H3322 0.956 . S
C3310 H3323 0.961 . S
C3310 H3324 0.961 . S
C3311 C3308 1.539 . S
C3311 H3325 0.958 . S
C3311 H3326 0.961 . S
C3311 H3327 0.960 . S
H3312 C3296 0.931 . S
H3313 C3301 0.929 . S
H3314 C3302 0.960 . S
H3315 C3302 0.962 . S
H3316 C3302 0.960 . S
H3317 C3303 0.961 . S
H3318 C3303 0.961 . S
H3319 C3303 0.961 . S
H3320 C3304 0.931 . S
H3321 C3309 0.930 . S
H3322 C3310 0.956 . S
H3323 C3310 0.961 . S
H3324 C3310 0.961 . S
H3325 C3311 0.958 . S
H3326 C3311 0.961 . S
H3327 C3311 0.960 . S
C3328 C3329 1.391 . S
C3328 C3330 1.394 . S
C3328 H3344 0.931 . S
C3329 C3328 1.391 . S
C3329 C3333 1.376 . S
C3330 C3328 1.394 . S
C3330 C3331 1.369 . S
C3330 C3334 1.531 . S
C3331 C3330 1.369 . S
C3331 C3332 1.410 . S
C3331 C3339 1.503 . S
C3332 C3331 1.410 . S
C3332 C3333 1.392 . S
C3332 C3335 1.511 . S
C3333 C3329 1.376 . S
C3333 C3332 1.392 . S
C3333 H3345 0.929 . S
C3334 C3330 1.531 . S
C3334 H3346 0.960 . S
C3334 H3347 0.962 . S
C3334 H3348 0.960 . S
C3335 C3332 1.511 . S
C3335 H3349 0.961 . S
C3335 H3350 0.961 . S
C3335 H3351 0.961 . S
C3336 C3337 1.370 . S
C3336 C3338 1.363 . S
C3336 H3352 0.931 . S
C3337 C3336 1.370 . S
C3337 C3341 1.408 . S
C3338 C3336 1.363 . S
C3338 C3339 1.370 . S
C3338 C3342 1.524 . S
C3339 C3331 1.503 . S
C3339 C3338 1.370 . S
C3339 C3340 1.403 . S
C3340 C3339 1.403 . S
C3340 C3341 1.404 . S
C3340 C3343 1.539 . S
C3341 C3337 1.408 . S
C3341 C3340 1.404 . S
C3341 H3353 0.930 . S
C3342 C3338 1.524 . S
C3342 H3354 0.956 . S
C3342 H3355 0.961 . S
C3342 H3356 0.961 . S
C3343 C3340 1.539 . S
C3343 H3357 0.958 . S
C3343 H3358 0.961 . S
C3343 H3359 0.960 . S
H3344 C3328 0.931 . S
H3345 C3333 0.929 . S
H3346 C3334 0.960 . S
H3347 C3334 0.962 . S
H3348 C3334 0.960 . S
H3349 C3335 0.961 . S
H3350 C3335 0.961 . S
H3351 C3335 0.961 . S
H3352 C3336 0.931 . S
H3353 C3341 0.930 . S
H3354 C3342 0.956 . S
H3355 C3342 0.961 . S
H3356 C3342 0.961 . S
H3357 C3343 0.958 . S
H3358 C3343 0.961 . S
H3359 C3343 0.960 . S
C3360 C3361 1.391 . S
C3360 C3362 1.394 . S
C3360 H3376 0.931 . S
C3361 C3360 1.391 . S
C3361 C3365 1.376 . S
C3362 C3360 1.394 . S
C3362 C3363 1.369 . S
C3362 C3366 1.531 . S
C3363 C3362 1.369 . S
C3363 C3364 1.410 . S
C3363 C3371 1.503 . S
C3364 C3363 1.410 . S
C3364 C3365 1.392 . S
C3364 C3367 1.511 . S
C3365 C3361 1.376 . S
C3365 C3364 1.392 . S
C3365 H3377 0.929 . S
C3366 C3362 1.531 . S
C3366 H3378 0.960 . S
C3366 H3379 0.962 . S
C3366 H3380 0.960 . S
C3367 C3364 1.511 . S
C3367 H3381 0.961 . S
C3367 H3382 0.961 . S
C3367 H3383 0.961 . S
C3368 C3369 1.370 . S
C3368 C3370 1.363 . S
C3368 H3384 0.931 . S
C3369 C3368 1.370 . S
C3369 C3373 1.408 . S
C3370 C3368 1.363 . S
C3370 C3371 1.370 . S
C3370 C3374 1.524 . S
C3371 C3363 1.503 . S
C3371 C3370 1.370 . S
C3371 C3372 1.403 . S
C3372 C3371 1.403 . S
C3372 C3373 1.404 . S
C3372 C3375 1.539 . S
C3373 C3369 1.408 . S
C3373 C3372 1.404 . S
C3373 H3385 0.930 . S
C3374 C3370 1.524 . S
C3374 H3386 0.956 . S
C3374 H3387 0.961 . S
C3374 H3388 0.961 . S
C3375 C3372 1.539 . S
C3375 H3389 0.958 . S
C3375 H3390 0.961 . S
C3375 H3391 0.960 . S
H3376 C3360 0.931 . S
H3377 C3365 0.929 . S
H3378 C3366 0.960 . S
H3379 C3366 0.962 . S
H3380 C3366 0.960 . S
H3381 C3367 0.961 . S
H3382 C3367 0.961 . S
H3383 C3367 0.961 . S
H3384 C3368 0.931 . S
H3385 C3373 0.930 . S
H3386 C3374 0.956 . S
H3387 C3374 0.961 . S
H3388 C3374 0.961 . S
H3389 C3375 0.958 . S
H3390 C3375 0.961 . S
H3391 C3375 0.960 . S
C3392 C3393 1.391 . S
C3392 C3394 1.394 . S
C3392 H3408 0.931 . S
C3393 C3392 1.391 . S
C3393 C3397 1.376 . S
C3394 C3392 1.394 . S
C3394 C3395 1.369 . S
C3394 C3398 1.531 . S
C3395 C3394 1.369 . S
C3395 C3396 1.410 . S
C3395 C3403 1.503 . S
C3396 C3395 1.410 . S
C3396 C3397 1.392 . S
C3396 C3399 1.511 . S
C3397 C3393 1.376 . S
C3397 C3396 1.392 . S
C3397 H3409 0.929 . S
C3398 C3394 1.531 . S
C3398 H3410 0.960 . S
C3398 H3411 0.962 . S
C3398 H3412 0.960 . S
C3399 C3396 1.511 . S
C3399 H3413 0.961 . S
C3399 H3414 0.961 . S
C3399 H3415 0.961 . S
C3400 C3401 1.370 . S
C3400 C3402 1.363 . S
C3400 H3416 0.931 . S
C3401 C3400 1.370 . S
C3401 C3405 1.408 . S
C3402 C3400 1.363 . S
C3402 C3403 1.370 . S
C3402 C3406 1.524 . S
C3403 C3395 1.503 . S
C3403 C3402 1.370 . S
C3403 C3404 1.403 . S
C3404 C3403 1.403 . S
C3404 C3405 1.404 . S
C3404 C3407 1.539 . S
C3405 C3401 1.408 . S
C3405 C3404 1.404 . S
C3405 H3417 0.930 . S
C3406 C3402 1.524 . S
C3406 H3418 0.956 . S
C3406 H3419 0.961 . S
C3406 H3420 0.961 . S
C3407 C3404 1.539 . S
C3407 H3421 0.958 . S
C3407 H3422 0.961 . S
C3407 H3423 0.960 . S
H3408 C3392 0.931 . S
H3409 C3397 0.929 . S
H3410 C3398 0.960 . S
H3411 C3398 0.962 . S
H3412 C3398 0.960 . S
H3413 C3399 0.961 . S
H3414 C3399 0.961 . S
H3415 C3399 0.961 . S
H3416 C3400 0.931 . S
H3417 C3405 0.930 . S
H3418 C3406 0.956 . S
H3419 C3406 0.961 . S
H3420 C3406 0.961 . S
H3421 C3407 0.958 . S
H3422 C3407 0.961 . S
H3423 C3407 0.960 . S
C3424 C3425 1.391 . S
C3424 C3426 1.394 . S
C3424 H3440 0.931 . S
C3425 C3424 1.391 . S
C3425 C3429 1.376 . S
C3426 C3424 1.394 . S
C3426 C3427 1.369 . S
C3426 C3430 1.531 . S
C3427 C3426 1.369 . S
C3427 C3428 1.410 . S
C3427 C3435 1.503 . S
C3428 C3427 1.410 . S
C3428 C3429 1.392 . S
C3428 C3431 1.511 . S
C3429 C3425 1.376 . S
C3429 C3428 1.392 . S
C3429 H3441 0.929 . S
C3430 C3426 1.531 . S
C3430 H3442 0.960 . S
C3430 H3443 0.962 . S
C3430 H3444 0.960 . S
C3431 C3428 1.511 . S
C3431 H3445 0.961 . S
C3431 H3446 0.961 . S
C3431 H3447 0.961 . S
C3432 C3433 1.370 . S
C3432 C3434 1.363 . S
C3432 H3448 0.931 . S
C3433 C3432 1.370 . S
C3433 C3437 1.408 . S
C3434 C3432 1.363 . S
C3434 C3435 1.370 . S
C3434 C3438 1.524 . S
C3435 C3427 1.503 . S
C3435 C3434 1.370 . S
C3435 C3436 1.403 . S
C3436 C3435 1.403 . S
C3436 C3437 1.404 . S
C3436 C3439 1.539 . S
C3437 C3433 1.408 . S
C3437 C3436 1.404 . S
C3437 H3449 0.930 . S
C3438 C3434 1.524 . S
C3438 H3450 0.956 . S
C3438 H3451 0.961 . S
C3438 H3452 0.961 . S
C3439 C3436 1.539 . S
C3439 H3453 0.958 . S
C3439 H3454 0.961 . S
C3439 H3455 0.960 . S
H3440 C3424 0.931 . S
H3441 C3429 0.929 . S
H3442 C3430 0.960 . S
H3443 C3430 0.962 . S
H3444 C3430 0.960 . S
H3445 C3431 0.961 . S
H3446 C3431 0.961 . S
H3447 C3431 0.961 . S
H3448 C3432 0.931 . S
H3449 C3437 0.930 . S
H3450 C3438 0.956 . S
H3451 C3438 0.961 . S
H3452 C3438 0.961 . S
H3453 C3439 0.958 . S
H3454 C3439 0.961 . S
H3455 C3439 0.960 . S
C3456 C3457 1.391 . S
C3456 C3458 1.394 . S
C3456 H3472 0.931 . S
C3457 C3456 1.391 . S
C3457 C3461 1.376 . S
C3458 C3456 1.394 . S
C3458 C3459 1.369 . S
C3458 C3462 1.531 . S
C3459 C3458 1.369 . S
C3459 C3460 1.410 . S
C3459 C3467 1.503 . S
C3460 C3459 1.410 . S
C3460 C3461 1.392 . S
C3460 C3463 1.511 . S
C3461 C3457 1.376 . S
C3461 C3460 1.392 . S
C3461 H3473 0.929 . S
C3462 C3458 1.531 . S
C3462 H3474 0.960 . S
C3462 H3475 0.962 . S
C3462 H3476 0.960 . S
C3463 C3460 1.511 . S
C3463 H3477 0.961 . S
C3463 H3478 0.961 . S
C3463 H3479 0.961 . S
C3464 C3465 1.370 . S
C3464 C3466 1.363 . S
C3464 H3480 0.931 . S
C3465 C3464 1.370 . S
C3465 C3469 1.408 . S
C3466 C3464 1.363 . S
C3466 C3467 1.370 . S
C3466 C3470 1.524 . S
C3467 C3459 1.503 . S
C3467 C3466 1.370 . S
C3467 C3468 1.403 . S
C3468 C3467 1.403 . S
C3468 C3469 1.404 . S
C3468 C3471 1.539 . S
C3469 C3465 1.408 . S
C3469 C3468 1.404 . S
C3469 H3481 0.930 . S
C3470 C3466 1.524 . S
C3470 H3482 0.956 . S
C3470 H3483 0.961 . S
C3470 H3484 0.961 . S
C3471 C3468 1.539 . S
C3471 H3485 0.958 . S
C3471 H3486 0.961 . S
C3471 H3487 0.960 . S
H3472 C3456 0.931 . S
H3473 C3461 0.929 . S
H3474 C3462 0.960 . S
H3475 C3462 0.962 . S
H3476 C3462 0.960 . S
H3477 C3463 0.961 . S
H3478 C3463 0.961 . S
H3479 C3463 0.961 . S
H3480 C3464 0.931 . S
H3481 C3469 0.930 . S
H3482 C3470 0.956 . S
H3483 C3470 0.961 . S
H3484 C3470 0.961 . S
H3485 C3471 0.958 . S
H3486 C3471 0.961 . S
H3487 C3471 0.960 . S
C3488 C3489 1.391 . S
C3488 C3490 1.394 . S
C3488 H3504 0.931 . S
C3489 C3488 1.391 . S
C3489 C3493 1.376 . S
C3490 C3488 1.394 . S
C3490 C3491 1.369 . S
C3490 C3494 1.531 . S
C3491 C3490 1.369 . S
C3491 C3492 1.410 . S
C3491 C3499 1.503 . S
C3492 C3491 1.410 . S
C3492 C3493 1.392 . S
C3492 C3495 1.511 . S
C3493 C3489 1.376 . S
C3493 C3492 1.392 . S
C3493 H3505 0.929 . S
C3494 C3490 1.531 . S
C3494 H3506 0.960 . S
C3494 H3507 0.962 . S
C3494 H3508 0.960 . S
C3495 C3492 1.511 . S
C3495 H3509 0.961 . S
C3495 H3510 0.961 . S
C3495 H3511 0.961 . S
C3496 C3497 1.370 . S
C3496 C3498 1.363 . S
C3496 H3512 0.931 . S
C3497 C3496 1.370 . S
C3497 C3501 1.408 . S
C3498 C3496 1.363 . S
C3498 C3499 1.370 . S
C3498 C3502 1.524 . S
C3499 C3491 1.503 . S
C3499 C3498 1.370 . S
C3499 C3500 1.403 . S
C3500 C3499 1.403 . S
C3500 C3501 1.404 . S
C3500 C3503 1.539 . S
C3501 C3497 1.408 . S
C3501 C3500 1.404 . S
C3501 H3513 0.930 . S
C3502 C3498 1.524 . S
C3502 H3514 0.956 . S
C3502 H3515 0.961 . S
C3502 H3516 0.961 . S
C3503 C3500 1.539 . S
C3503 H3517 0.958 . S
C3503 H3518 0.961 . S
C3503 H3519 0.960 . S
H3504 C3488 0.931 . S
H3505 C3493 0.929 . S
H3506 C3494 0.960 . S
H3507 C3494 0.962 . S
H3508 C3494 0.960 . S
H3509 C3495 0.961 . S
H3510 C3495 0.961 . S
H3511 C3495 0.961 . S
H3512 C3496 0.931 . S
H3513 C3501 0.930 . S
H3514 C3502 0.956 . S
H3515 C3502 0.961 . S
H3516 C3502 0.961 . S
H3517 C3503 0.958 . S
H3518 C3503 0.961 . S
H3519 C3503 0.960 . S
C3520 C3521 1.391 . S
C3520 C3522 1.394 . S
C3520 H3536 0.931 . S
C3521 C3520 1.391 . S
C3521 C3525 1.376 . S
C3522 C3520 1.394 . S
C3522 C3523 1.369 . S
C3522 C3526 1.531 . S
C3523 C3522 1.369 . S
C3523 C3524 1.410 . S
C3523 C3531 1.503 . S
C3524 C3523 1.410 . S
C3524 C3525 1.392 . S
C3524 C3527 1.511 . S
C3525 C3521 1.376 . S
C3525 C3524 1.392 . S
C3525 H3537 0.929 . S
C3526 C3522 1.531 . S
C3526 H3538 0.960 . S
C3526 H3539 0.962 . S
C3526 H3540 0.960 . S
C3527 C3524 1.511 . S
C3527 H3541 0.950 1_455 S
C3527 H3542 0.961 . S
C3527 H3543 0.961 1_455 S
C3528 C3529 1.370 . S
C3528 C3530 1.363 . S
C3528 H3544 0.931 . S
C3529 C3528 1.370 . S
C3529 C3533 1.408 . S
C3530 C3528 1.363 . S
C3530 C3531 1.370 . S
C3530 C3534 1.524 . S
C3531 C3523 1.503 . S
C3531 C3530 1.370 . S
C3531 C3532 1.403 . S
C3532 C3531 1.403 . S
C3532 C3533 1.404 . S
C3532 C3535 1.539 . S
C3533 C3529 1.408 . S
C3533 C3532 1.404 . S
C3533 H3545 0.930 . S
C3534 C3530 1.524 . S
C3534 H3546 0.956 . S
C3534 H3547 0.961 . S
C3534 H3548 0.961 . S
C3535 C3532 1.539 . S
C3535 H3549 0.958 1_554 S
C3535 H3550 0.961 1_554 S
C3535 H3551 0.960 . S
H3536 C3520 0.931 . S
H3537 C3525 0.929 . S
H3538 C3526 0.960 . S
H3539 C3526 0.962 . S
H3540 C3526 0.960 . S
H3541 C3527 0.950 1_655 S
H3542 C3527 0.961 . S
H3543 C3527 0.961 1_655 S
H3544 C3528 0.931 . S
H3545 C3533 0.930 . S
H3546 C3534 0.956 . S
H3547 C3534 0.961 . S
H3548 C3534 0.961 . S
H3549 C3535 0.958 1_556 S
H3550 C3535 0.961 1_556 S
H3551 C3535 0.960 . S
C3552 C3553 1.391 . S
C3552 C3554 1.394 . S
C3552 H3568 0.931 . S
C3553 C3552 1.391 . S
C3553 C3557 1.376 . S
C3554 C3552 1.394 . S
C3554 C3555 1.369 . S
C3554 C3558 1.531 . S
C3555 C3554 1.369 . S
C3555 C3556 1.410 . S
C3555 C3563 1.503 . S
C3556 C3555 1.410 . S
C3556 C3557 1.392 . S
C3556 C3559 1.511 . S
C3557 C3553 1.376 . S
C3557 C3556 1.392 . S
C3557 H3569 0.929 . S
C3558 C3554 1.531 . S
C3558 H3570 0.960 . S
C3558 H3571 0.962 . S
C3558 H3572 0.960 . S
C3559 C3556 1.511 . S
C3559 H3573 0.961 . S
C3559 H3574 0.961 . S
C3559 H3575 0.961 . S
C3560 C3561 1.370 . S
C3560 C3562 1.363 . S
C3560 H3576 0.931 . S
C3561 C3560 1.370 . S
C3561 C3565 1.408 . S
C3562 C3560 1.363 . S
C3562 C3563 1.370 . S
C3562 C3566 1.524 . S
C3563 C3555 1.503 . S
C3563 C3562 1.370 . S
C3563 C3564 1.403 . S
C3564 C3563 1.403 . S
C3564 C3565 1.404 . S
C3564 C3567 1.539 . S
C3565 C3561 1.408 . S
C3565 C3564 1.404 . S
C3565 H3577 0.930 . S
C3566 C3562 1.524 . S
C3566 H3578 0.956 . S
C3566 H3579 0.961 . S
C3566 H3580 0.961 . S
C3567 C3564 1.539 . S
C3567 H3581 0.958 . S
C3567 H3582 0.961 . S
C3567 H3583 0.960 . S
H3568 C3552 0.931 . S
H3569 C3557 0.929 . S
H3570 C3558 0.960 . S
H3571 C3558 0.962 . S
H3572 C3558 0.960 . S
H3573 C3559 0.961 . S
H3574 C3559 0.961 . S
H3575 C3559 0.961 . S
H3576 C3560 0.931 . S
H3577 C3565 0.930 . S
H3578 C3566 0.956 . S
H3579 C3566 0.961 . S
H3580 C3566 0.961 . S
H3581 C3567 0.958 . S
H3582 C3567 0.961 . S
H3583 C3567 0.960 . S
C3584 C3585 1.391 . S
C3584 C3586 1.394 . S
C3584 H3600 0.931 . S
C3585 C3584 1.391 . S
C3585 C3589 1.376 . S
C3586 C3584 1.394 . S
C3586 C3587 1.369 . S
C3586 C3590 1.531 . S
C3587 C3586 1.369 . S
C3587 C3588 1.410 . S
C3587 C3595 1.503 . S
C3588 C3587 1.410 . S
C3588 C3589 1.392 . S
C3588 C3591 1.511 . S
C3589 C3585 1.376 . S
C3589 C3588 1.392 . S
C3589 H3601 0.929 . S
C3590 C3586 1.531 . S
C3590 H3602 0.960 . S
C3590 H3603 0.962 . S
C3590 H3604 0.960 . S
C3591 C3588 1.511 . S
C3591 H3605 0.961 . S
C3591 H3606 0.961 . S
C3591 H3607 0.961 . S
C3592 C3593 1.370 . S
C3592 C3594 1.363 . S
C3592 H3608 0.931 . S
C3593 C3592 1.370 . S
C3593 C3597 1.408 . S
C3594 C3592 1.363 . S
C3594 C3595 1.370 . S
C3594 C3598 1.524 . S
C3595 C3587 1.503 . S
C3595 C3594 1.370 . S
C3595 C3596 1.403 . S
C3596 C3595 1.403 . S
C3596 C3597 1.404 . S
C3596 C3599 1.539 . S
C3597 C3593 1.408 . S
C3597 C3596 1.404 . S
C3597 H3609 0.930 . S
C3598 C3594 1.524 . S
C3598 H3610 0.956 . S
C3598 H3611 0.961 . S
C3598 H3612 0.961 . S
C3599 C3596 1.539 . S
C3599 H3613 0.958 . S
C3599 H3614 0.961 . S
C3599 H3615 0.960 . S
H3600 C3584 0.931 . S
H3601 C3589 0.929 . S
H3602 C3590 0.960 . S
H3603 C3590 0.962 . S
H3604 C3590 0.960 . S
H3605 C3591 0.961 . S
H3606 C3591 0.961 . S
H3607 C3591 0.961 . S
H3608 C3592 0.931 . S
H3609 C3597 0.930 . S
H3610 C3598 0.956 . S
H3611 C3598 0.961 . S
H3612 C3598 0.961 . S
H3613 C3599 0.958 . S
H3614 C3599 0.961 . S
H3615 C3599 0.960 . S
C3616 C3617 1.391 . S
C3616 C3618 1.394 . S
C3616 H3632 0.931 . S
C3617 C3616 1.391 . S
C3617 C3621 1.376 . S
C3618 C3616 1.394 . S
C3618 C3619 1.369 . S
C3618 C3622 1.531 . S
C3619 C3618 1.369 . S
C3619 C3620 1.410 . S
C3619 C3627 1.503 . S
C3620 C3619 1.410 . S
C3620 C3621 1.392 . S
C3620 C3623 1.511 . S
C3621 C3617 1.376 . S
C3621 C3620 1.392 . S
C3621 H3633 0.929 . S
C3622 C3618 1.531 . S
C3622 H3634 0.960 . S
C3622 H3635 0.962 . S
C3622 H3636 0.960 . S
C3623 C3620 1.511 . S
C3623 H3637 0.961 . S
C3623 H3638 0.961 . S
C3623 H3639 0.961 . S
C3624 C3625 1.370 . S
C3624 C3626 1.363 . S
C3624 H3640 0.931 . S
C3625 C3624 1.370 . S
C3625 C3629 1.408 . S
C3626 C3624 1.363 . S
C3626 C3627 1.370 . S
C3626 C3630 1.524 . S
C3627 C3619 1.503 . S
C3627 C3626 1.370 . S
C3627 C3628 1.403 . S
C3628 C3627 1.403 . S
C3628 C3629 1.404 . S
C3628 C3631 1.539 . S
C3629 C3625 1.408 . S
C3629 C3628 1.404 . S
C3629 H3641 0.930 . S
C3630 C3626 1.524 . S
C3630 H3642 0.956 . S
C3630 H3643 0.961 . S
C3630 H3644 0.961 . S
C3631 C3628 1.539 . S
C3631 H3645 0.958 . S
C3631 H3646 0.961 . S
C3631 H3647 0.960 . S
H3632 C3616 0.931 . S
H3633 C3621 0.929 . S
H3634 C3622 0.960 . S
H3635 C3622 0.962 . S
H3636 C3622 0.960 . S
H3637 C3623 0.961 . S
H3638 C3623 0.961 . S
H3639 C3623 0.961 . S
H3640 C3624 0.931 . S
H3641 C3629 0.930 . S
H3642 C3630 0.956 . S
H3643 C3630 0.961 . S
H3644 C3630 0.961 . S
H3645 C3631 0.958 . S
H3646 C3631 0.961 . S
H3647 C3631 0.960 . S
C3648 C3649 1.391 1_455 S
C3648 C3650 1.394 . S
C3648 H3664 0.931 . S
C3649 C3648 1.391 1_655 S
C3649 C3653 1.376 . S
C3650 C3648 1.394 . S
C3650 C3651 1.369 1_455 S
C3650 C3654 1.531 . S
C3651 C3650 1.369 1_655 S
C3651 C3652 1.410 . S
C3651 C3659 1.503 . S
C3652 C3651 1.410 . S
C3652 C3653 1.392 . S
C3652 C3655 1.511 . S
C3653 C3649 1.376 . S
C3653 C3652 1.392 . S
C3653 H3665 0.929 . S
C3654 C3650 1.531 . S
C3654 H3666 0.960 . S
C3654 H3667 0.962 . S
C3654 H3668 0.960 . S
C3655 C3652 1.511 . S
C3655 H3669 0.961 . S
C3655 H3670 0.961 . S
C3655 H3671 0.961 . S
C3656 C3657 1.352 1_455 S
C3656 C3658 1.363 . S
C3656 H3672 0.931 . S
C3657 C3656 1.352 1_655 S
C3657 C3661 1.433 . S
C3658 C3656 1.363 . S
C3658 C3659 1.370 1_455 S
C3658 C3662 1.524 . S
C3659 C3651 1.503 . S
C3659 C3658 1.370 1_655 S
C3659 C3660 1.403 . S
C3660 C3659 1.403 . S
C3660 C3661 1.404 . S
C3660 C3663 1.539 . S
C3661 C3657 1.433 . S
C3661 C3660 1.404 . S
C3661 H3673 0.930 . S
C3662 C3658 1.524 . S
C3662 H3674 0.956 . S
C3662 H3675 0.961 . S
C3662 H3676 0.961 . S
C3663 C3660 1.539 . S
C3663 H3677 0.958 . S
C3663 H3678 0.961 . S
C3663 H3679 0.960 . S
H3664 C3648 0.931 . S
H3665 C3653 0.929 . S
H3666 C3654 0.960 . S
H3667 C3654 0.962 . S
H3668 C3654 0.960 . S
H3669 C3655 0.961 . S
H3670 C3655 0.961 . S
H3671 C3655 0.961 . S
H3672 C3656 0.931 . S
H3673 C3661 0.930 . S
H3674 C3662 0.956 . S
H3675 C3662 0.961 . S
H3676 C3662 0.961 . S
H3677 C3663 0.958 . S
H3678 C3663 0.961 . S
H3679 C3663 0.960 . S
C3680 C3681 1.391 . S
C3680 C3682 1.394 . S
C3680 H3696 0.931 . S
C3681 C3680 1.391 . S
C3681 C3685 1.376 . S
C3682 C3680 1.394 . S
C3682 C3683 1.369 . S
C3682 C3686 1.531 . S
C3683 C3682 1.369 . S
C3683 C3684 1.410 . S
C3683 C3691 1.503 . S
C3684 C3683 1.410 . S
C3684 C3685 1.392 . S
C3684 C3687 1.511 . S
C3685 C3681 1.376 . S
C3685 C3684 1.392 . S
C3685 H3697 0.929 . S
C3686 C3682 1.531 . S
C3686 H3698 0.960 . S
C3686 H3699 0.962 . S
C3686 H3700 0.960 . S
C3687 C3684 1.511 . S
C3687 H3701 0.961 . S
C3687 H3702 0.961 . S
C3687 H3703 0.961 . S
C3688 C3689 1.370 . S
C3688 C3690 1.363 . S
C3688 H3704 0.931 . S
C3689 C3688 1.370 . S
C3689 C3693 1.408 . S
C3690 C3688 1.363 . S
C3690 C3691 1.370 . S
C3690 C3694 1.524 . S
C3691 C3683 1.503 . S
C3691 C3690 1.370 . S
C3691 C3692 1.403 . S
C3692 C3691 1.403 . S
C3692 C3693 1.404 . S
C3692 C3695 1.539 . S
C3693 C3689 1.408 . S
C3693 C3692 1.404 . S
C3693 H3705 0.930 . S
C3694 C3690 1.524 . S
C3694 H3706 0.956 . S
C3694 H3707 0.961 . S
C3694 H3708 0.961 . S
C3695 C3692 1.539 . S
C3695 H3709 0.958 . S
C3695 H3710 0.961 . S
C3695 H3711 0.960 . S
H3696 C3680 0.931 . S
H3697 C3685 0.929 . S
H3698 C3686 0.960 . S
H3699 C3686 0.962 . S
H3700 C3686 0.960 . S
H3701 C3687 0.961 . S
H3702 C3687 0.961 . S
H3703 C3687 0.961 . S
H3704 C3688 0.931 . S
H3705 C3693 0.930 . S
H3706 C3694 0.956 . S
H3707 C3694 0.961 . S
H3708 C3694 0.961 . S
H3709 C3695 0.958 . S
H3710 C3695 0.961 . S
H3711 C3695 0.960 . S
C3712 C3713 1.391 . S
C3712 C3714 1.394 . S
C3712 H3728 0.931 . S
C3713 C3712 1.391 . S
C3713 C3717 1.376 . S
C3714 C3712 1.394 . S
C3714 C3715 1.369 . S
C3714 C3718 1.538 . S
C3715 C3714 1.369 . S
C3715 C3716 1.410 . S
C3715 C3723 1.503 . S
C3716 C3715 1.410 . S
C3716 C3717 1.392 . S
C3716 C3719 1.511 . S
C3717 C3713 1.376 . S
C3717 C3716 1.392 . S
C3717 H3729 0.929 . S
C3718 C3714 1.538 . S
C3718 H3730 0.959 1_556 S
C3718 H3731 0.957 1_556 S
C3718 H3732 0.959 1_556 S
C3719 C3716 1.511 . S
C3719 H3733 0.961 . S
C3719 H3734 0.961 . S
C3719 H3735 0.961 . S
C3720 C3721 1.370 . S
C3720 C3722 1.363 1_554 S
C3720 H3736 0.931 . S
C3721 C3720 1.370 . S
C3721 C3725 1.419 . S
C3722 C3720 1.363 1_556 S
C3722 C3723 1.370 . S
C3722 C3726 1.524 . S
C3723 C3715 1.503 . S
C3723 C3722 1.370 . S
C3723 C3724 1.403 . S
C3724 C3723 1.403 . S
C3724 C3725 1.392 1_556 S
C3724 C3727 1.539 . S
C3725 C3721 1.419 . S
C3725 C3724 1.392 1_554 S
C3725 H3737 0.931 . S
C3726 C3722 1.524 . S
C3726 H3738 0.956 . S
C3726 H3739 0.961 . S
C3726 H3740 0.961 . S
C3727 C3724 1.539 . S
C3727 H3741 0.958 . S
C3727 H3742 0.961 . S
C3727 H3743 0.960 . S
H3728 C3712 0.931 . S
H3729 C3717 0.929 . S
H3730 C3718 0.959 1_554 S
H3731 C3718 0.957 1_554 S
H3732 C3718 0.959 1_554 S
H3733 C3719 0.961 . S
H3734 C3719 0.961 . S
H3735 C3719 0.961 . S
H3736 C3720 0.931 . S
H3737 C3725 0.931 . S
H3738 C3726 0.956 . S
H3739 C3726 0.961 . S
H3740 C3726 0.961 . S
H3741 C3727 0.958 . S
H3742 C3727 0.961 . S
H3743 C3727 0.960 . S
C3744 C3745 1.391 . S
C3744 C3746 1.394 . S
C3744 H3760 0.931 . S
C3745 C3744 1.391 . S
C3745 C3749 1.376 . S
C3746 C3744 1.394 . S
C3746 C3747 1.369 . S
C3746 C3750 1.531 . S
C3747 C3746 1.369 . S
C3747 C3748 1.410 . S
C3747 C3755 1.503 . S
C3748 C3747 1.410 . S
C3748 C3749 1.392 . S
C3748 C3751 1.511 . S
C3749 C3745 1.376 . S
C3749 C3748 1.392 . S
C3749 H3761 0.929 . S
C3750 C3746 1.531 . S
C3750 H3762 0.960 . S
C3750 H3763 0.962 . S
C3750 H3764 0.960 . S
C3751 C3748 1.511 . S
C3751 H3765 0.961 . S
C3751 H3766 0.961 . S
C3751 H3767 0.961 . S
C3752 C3753 1.370 . S
C3752 C3754 1.363 . S
C3752 H3768 0.931 . S
C3753 C3752 1.370 . S
C3753 C3757 1.408 . S
C3754 C3752 1.363 . S
C3754 C3755 1.370 . S
C3754 C3758 1.524 . S
C3755 C3747 1.503 . S
C3755 C3754 1.370 . S
C3755 C3756 1.403 . S
C3756 C3755 1.403 . S
C3756 C3757 1.404 . S
C3756 C3759 1.539 . S
C3757 C3753 1.408 . S
C3757 C3756 1.404 . S
C3757 H3769 0.930 . S
C3758 C3754 1.524 . S
C3758 H3770 0.956 . S
C3758 H3771 0.961 . S
C3758 H3772 0.961 . S
C3759 C3756 1.539 . S
C3759 H3773 0.958 . S
C3759 H3774 0.961 . S
C3759 H3775 0.960 . S
H3760 C3744 0.931 . S
H3761 C3749 0.929 . S
H3762 C3750 0.960 . S
H3763 C3750 0.962 . S
H3764 C3750 0.960 . S
H3765 C3751 0.961 . S
H3766 C3751 0.961 . S
H3767 C3751 0.961 . S
H3768 C3752 0.931 . S
H3769 C3757 0.930 . S
H3770 C3758 0.956 . S
H3771 C3758 0.961 . S
H3772 C3758 0.961 . S
H3773 C3759 0.958 . S
H3774 C3759 0.961 . S
H3775 C3759 0.960 . S
C3776 C3777 1.391 . S
C3776 C3778 1.394 . S
C3776 H3792 0.931 . S
C3777 C3776 1.391 . S
C3777 C3781 1.376 . S
C3778 C3776 1.394 . S
C3778 C3779 1.369 . S
C3778 C3782 1.531 . S
C3779 C3778 1.369 . S
C3779 C3780 1.410 . S
C3779 C3787 1.503 . S
C3780 C3779 1.410 . S
C3780 C3781 1.392 . S
C3780 C3783 1.511 . S
C3781 C3777 1.376 . S
C3781 C3780 1.392 . S
C3781 H3793 0.929 . S
C3782 C3778 1.531 . S
C3782 H3794 0.960 1_545 S
C3782 H3795 0.962 . S
C3782 H3796 0.960 1_545 S
C3783 C3780 1.511 . S
C3783 H3797 0.961 . S
C3783 H3798 0.961 . S
C3783 H3799 0.961 . S
C3784 C3785 1.370 . S
C3784 C3786 1.363 . S
C3784 H3800 0.931 . S
C3785 C3784 1.370 . S
C3785 C3789 1.408 1_545 S
C3786 C3784 1.363 . S
C3786 C3787 1.370 . S
C3786 C3790 1.524 . S
C3787 C3779 1.503 . S
C3787 C3786 1.370 . S
C3787 C3788 1.403 1_545 S
C3788 C3787 1.403 1_565 S
C3788 C3789 1.404 . S
C3788 C3791 1.539 . S
C3789 C3785 1.408 1_565 S
C3789 C3788 1.404 . S
C3789 H3801 0.930 . S
C3790 C3786 1.524 . S
C3790 H3802 0.956 . S
C3790 H3803 0.961 . S
C3790 H3804 0.961 . S
C3791 C3788 1.539 . S
C3791 H3805 0.958 . S
C3791 H3806 0.961 . S
C3791 H3807 0.960 . S
H3792 C3776 0.931 . S
H3793 C3781 0.929 . S
H3794 C3782 0.960 1_565 S
H3795 C3782 0.962 . S
H3796 C3782 0.960 1_565 S
H3797 C3783 0.961 . S
H3798 C3783 0.961 . S
H3799 C3783 0.961 . S
H3800 C3784 0.931 . S
H3801 C3789 0.930 . S
H3802 C3790 0.956 . S
H3803 C3790 0.961 . S
H3804 C3790 0.961 . S
H3805 C3791 0.958 . S
H3806 C3791 0.961 . S
H3807 C3791 0.960 . S
C3808 C3809 1.391 . S
C3808 C3810 1.394 . S
C3808 H3824 0.931 . S
C3809 C3808 1.391 . S
C3809 C3813 1.376 . S
C3810 C3808 1.394 . S
C3810 C3811 1.369 . S
C3810 C3814 1.531 . S
C3811 C3810 1.369 . S
C3811 C3812 1.410 . S
C3811 C3819 1.503 . S
C3812 C3811 1.410 . S
C3812 C3813 1.392 . S
C3812 C3815 1.511 . S
C3813 C3809 1.376 . S
C3813 C3812 1.392 . S
C3813 H3825 0.929 . S
C3814 C3810 1.531 . S
C3814 H3826 0.960 . S
C3814 H3827 0.962 . S
C3814 H3828 0.960 . S
C3815 C3812 1.511 . S
C3815 H3829 0.961 . S
C3815 H3830 0.961 . S
C3815 H3831 0.961 . S
C3816 C3817 1.370 . S
C3816 C3818 1.363 . S
C3816 H3832 0.931 . S
C3817 C3816 1.370 . S
C3817 C3821 1.408 . S
C3818 C3816 1.363 . S
C3818 C3819 1.370 . S
C3818 C3822 1.524 . S
C3819 C3811 1.503 . S
C3819 C3818 1.370 . S
C3819 C3820 1.403 . S
C3820 C3819 1.403 . S
C3820 C3821 1.404 . S
C3820 C3823 1.539 . S
C3821 C3817 1.408 . S
C3821 C3820 1.404 . S
C3821 H3833 0.930 . S
C3822 C3818 1.524 . S
C3822 H3834 0.956 . S
C3822 H3835 0.961 . S
C3822 H3836 0.961 . S
C3823 C3820 1.539 . S
C3823 H3837 0.958 . S
C3823 H3838 0.961 . S
C3823 H3839 0.960 . S
H3824 C3808 0.931 . S
H3825 C3813 0.929 . S
H3826 C3814 0.960 . S
H3827 C3814 0.962 . S
H3828 C3814 0.960 . S
H3829 C3815 0.961 . S
H3830 C3815 0.961 . S
H3831 C3815 0.961 . S
H3832 C3816 0.931 . S
H3833 C3821 0.930 . S
H3834 C3822 0.956 . S
H3835 C3822 0.961 . S
H3836 C3822 0.961 . S
H3837 C3823 0.958 . S
H3838 C3823 0.961 . S
H3839 C3823 0.960 . S
C3840 C3841 1.391 . S
C3840 C3842 1.394 . S
C3840 H3856 0.931 . S
C3841 C3840 1.391 . S
C3841 C3845 1.376 . S
C3842 C3840 1.394 . S
C3842 C3843 1.369 . S
C3842 C3846 1.531 1_545 S
C3843 C3842 1.369 . S
C3843 C3844 1.410 . S
C3843 C3851 1.503 . S
C3844 C3843 1.410 . S
C3844 C3845 1.392 . S
C3844 C3847 1.511 . S
C3845 C3841 1.376 . S
C3845 C3844 1.392 . S
C3845 H3857 0.929 . S
C3846 C3842 1.531 1_565 S
C3846 H3858 0.960 . S
C3846 H3859 0.962 1_565 S
C3846 H3860 0.960 . S
C3847 C3844 1.511 . S
C3847 H3861 0.961 . S
C3847 H3862 0.961 . S
C3847 H3863 0.961 . S
C3848 C3849 1.370 . S
C3848 C3850 1.363 . S
C3848 H3864 0.931 . S
C3849 C3848 1.370 . S
C3849 C3853 1.408 . S
C3850 C3848 1.363 . S
C3850 C3851 1.370 . S
C3850 C3854 1.524 . S
C3851 C3843 1.503 . S
C3851 C3850 1.370 . S
C3851 C3852 1.403 . S
C3852 C3851 1.403 . S
C3852 C3853 1.404 . S
C3852 C3855 1.539 1_545 S
C3853 C3849 1.408 . S
C3853 C3852 1.404 . S
C3853 H3865 0.930 1_545 S
C3854 C3850 1.524 . S
C3854 H3866 0.956 . S
C3854 H3867 0.961 . S
C3854 H3868 0.961 . S
C3855 C3852 1.539 1_565 S
C3855 H3869 0.958 . S
C3855 H3870 0.961 . S
C3855 H3871 0.959 1_565 S
H3856 C3840 0.931 . S
H3857 C3845 0.929 . S
H3858 C3846 0.960 . S
H3859 C3846 0.962 1_545 S
H3860 C3846 0.960 . S
H3861 C3847 0.961 . S
H3862 C3847 0.961 . S
H3863 C3847 0.961 . S
H3864 C3848 0.931 . S
H3865 C3853 0.930 1_565 S
H3866 C3854 0.956 . S
H3867 C3854 0.961 . S
H3868 C3854 0.961 . S
H3869 C3855 0.958 . S
H3870 C3855 0.961 . S
H3871 C3855 0.959 1_545 S
C3872 C3873 1.391 . S
C3872 C3874 1.394 . S
C3872 H3888 0.931 . S
C3873 C3872 1.391 . S
C3873 C3877 1.376 . S
C3874 C3872 1.394 . S
C3874 C3875 1.369 . S
C3874 C3878 1.531 . S
C3875 C3874 1.369 . S
C3875 C3876 1.410 . S
C3875 C3883 1.503 . S
C3876 C3875 1.410 . S
C3876 C3877 1.392 . S
C3876 C3879 1.511 . S
C3877 C3873 1.376 . S
C3877 C3876 1.392 . S
C3877 H3889 0.929 . S
C3878 C3874 1.531 . S
C3878 H3890 0.960 . S
C3878 H3891 0.962 . S
C3878 H3892 0.960 . S
C3879 C3876 1.511 . S
C3879 H3893 0.961 . S
C3879 H3894 0.961 . S
C3879 H3895 0.961 . S
C3880 C3881 1.370 . S
C3880 C3882 1.363 . S
C3880 H3896 0.931 . S
C3881 C3880 1.370 . S
C3881 C3885 1.408 . S
C3882 C3880 1.363 . S
C3882 C3883 1.370 . S
C3882 C3886 1.524 . S
C3883 C3875 1.503 . S
C3883 C3882 1.370 . S
C3883 C3884 1.403 . S
C3884 C3883 1.403 . S
C3884 C3885 1.404 . S
C3884 C3887 1.539 . S
C3885 C3881 1.408 . S
C3885 C3884 1.404 . S
C3885 H3897 0.930 . S
C3886 C3882 1.524 . S
C3886 H3898 0.956 . S
C3886 H3899 0.961 . S
C3886 H3900 0.961 . S
C3887 C3884 1.539 . S
C3887 H3901 0.958 . S
C3887 H3902 0.961 . S
C3887 H3903 0.960 . S
H3888 C3872 0.931 . S
H3889 C3877 0.929 . S
H3890 C3878 0.960 . S
H3891 C3878 0.962 . S
H3892 C3878 0.960 . S
H3893 C3879 0.961 . S
H3894 C3879 0.961 . S
H3895 C3879 0.961 . S
H3896 C3880 0.931 . S
H3897 C3885 0.930 . S
H3898 C3886 0.956 . S
H3899 C3886 0.961 . S
H3900 C3886 0.961 . S
H3901 C3887 0.958 . S
H3902 C3887 0.961 . S
H3903 C3887 0.960 . S
C3904 C3905 1.391 . S
C3904 C3906 1.394 . S
C3904 H3920 0.931 . S
C3905 C3904 1.391 . S
C3905 C3909 1.376 . S
C3906 C3904 1.394 . S
C3906 C3907 1.369 . S
C3906 C3910 1.531 . S
C3907 C3906 1.369 . S
C3907 C3908 1.410 . S
C3907 C3915 1.503 . S
C3908 C3907 1.410 . S
C3908 C3909 1.392 . S
C3908 C3911 1.511 . S
C3909 C3905 1.376 . S
C3909 C3908 1.392 . S
C3909 H3921 0.929 . S
C3910 C3906 1.531 . S
C3910 H3922 0.951 1_545 S
C3910 H3923 0.962 . S
C3910 H3924 0.939 1_545 S
C3911 C3908 1.511 . S
C3911 H3925 0.961 . S
C3911 H3926 0.961 . S
C3911 H3927 0.961 1_545 S
C3912 C3913 1.370 . S
C3912 C3914 1.363 . S
C3912 H3928 0.931 . S
C3913 C3912 1.370 . S
C3913 C3917 1.408 1_545 S
C3914 C3912 1.363 . S
C3914 C3915 1.370 . S
C3914 C3918 1.524 . S
C3915 C3907 1.503 . S
C3915 C3914 1.370 . S
C3915 C3916 1.403 1_545 S
C3916 C3915 1.403 1_565 S
C3916 C3917 1.404 . S
C3916 C3919 1.539 . S
C3917 C3913 1.408 1_565 S
C3917 C3916 1.404 . S
C3917 H3929 0.930 . S
C3918 C3914 1.524 . S
C3918 H3930 0.956 . S
C3918 H3931 0.961 . S
C3918 H3932 0.961 . S
C3919 C3916 1.539 . S
C3919 H3933 0.958 . S
C3919 H3934 0.961 . S
C3919 H3935 0.960 . S
H3920 C3904 0.931 . S
H3921 C3909 0.929 . S
H3922 C3910 0.951 1_565 S
H3923 C3910 0.962 . S
H3924 C3910 0.939 1_565 S
H3925 C3911 0.961 . S
H3926 C3911 0.961 . S
H3927 C3911 0.961 1_565 S
H3928 C3912 0.931 . S
H3929 C3917 0.930 . S
H3930 C3918 0.956 . S
H3931 C3918 0.961 . S
H3932 C3918 0.961 . S
H3933 C3919 0.958 . S
H3934 C3919 0.961 . S
H3935 C3919 0.960 . S
C3936 C3937 1.391 . S
C3936 C3938 1.394 . S
C3936 H3952 0.931 . S
C3937 C3936 1.391 . S
C3937 C3941 1.376 . S
C3938 C3936 1.394 . S
C3938 C3939 1.369 . S
C3938 C3942 1.531 . S
C3939 C3938 1.369 . S
C3939 C3940 1.410 . S
C3939 C3947 1.503 . S
C3940 C3939 1.410 . S
C3940 C3941 1.392 . S
C3940 C3943 1.511 . S
C3941 C3937 1.376 . S
C3941 C3940 1.392 . S
C3941 H3953 0.929 . S
C3942 C3938 1.531 . S
C3942 H3954 0.960 . S
C3942 H3955 0.962 . S
C3942 H3956 0.960 . S
C3943 C3940 1.511 . S
C3943 H3957 0.961 . S
C3943 H3958 0.961 . S
C3943 H3959 0.961 . S
C3944 C3945 1.370 . S
C3944 C3946 1.363 . S
C3944 H3960 0.931 . S
C3945 C3944 1.370 . S
C3945 C3949 1.408 . S
C3946 C3944 1.363 . S
C3946 C3947 1.370 . S
C3946 C3950 1.524 . S
C3947 C3939 1.503 . S
C3947 C3946 1.370 . S
C3947 C3948 1.403 . S
C3948 C3947 1.403 . S
C3948 C3949 1.404 . S
C3948 C3951 1.539 . S
C3949 C3945 1.408 . S
C3949 C3948 1.404 . S
C3949 H3961 0.930 . S
C3950 C3946 1.524 . S
C3950 H3962 0.956 . S
C3950 H3963 0.961 . S
C3950 H3964 0.961 . S
C3951 C3948 1.539 . S
C3951 H3965 0.958 . S
C3951 H3966 0.961 . S
C3951 H3967 0.960 . S
H3952 C3936 0.931 . S
H3953 C3941 0.929 . S
H3954 C3942 0.960 . S
H3955 C3942 0.962 . S
H3956 C3942 0.960 . S
H3957 C3943 0.961 . S
H3958 C3943 0.961 . S
H3959 C3943 0.961 . S
H3960 C3944 0.931 . S
H3961 C3949 0.930 . S
H3962 C3950 0.956 . S
H3963 C3950 0.961 . S
H3964 C3950 0.961 . S
H3965 C3951 0.958 . S
H3966 C3951 0.961 . S
H3967 C3951 0.960 . S
C3968 C3969 1.391 . S
C3968 C3970 1.394 . S
C3968 H3984 0.931 . S
C3969 C3968 1.391 . S
C3969 C3973 1.376 . S
C3970 C3968 1.394 . S
C3970 C3971 1.369 . S
C3970 C3974 1.531 . S
C3971 C3970 1.369 . S
C3971 C3972 1.410 . S
C3971 C3979 1.503 . S
C3972 C3971 1.410 . S
C3972 C3973 1.392 . S
C3972 C3975 1.511 . S
C3973 C3969 1.376 . S
C3973 C3972 1.392 . S
C3973 H3985 0.929 . S
C3974 C3970 1.531 . S
C3974 H3986 0.960 . S
C3974 H3987 0.962 . S
C3974 H3988 0.960 . S
C3975 C3972 1.511 . S
C3975 H3989 0.961 1_545 S
C3975 H3990 0.939 1_545 S
C3975 H3991 0.961 . S
C3976 C3977 1.370 1_565 S
C3976 C3978 1.363 . S
C3976 H3992 0.931 . S
C3977 C3976 1.370 1_545 S
C3977 C3981 1.408 . S
C3978 C3976 1.363 . S
C3978 C3979 1.370 1_565 S
C3978 C3982 1.524 . S
C3979 C3971 1.503 . S
C3979 C3978 1.370 1_545 S
C3979 C3980 1.403 . S
C3980 C3979 1.403 . S
C3980 C3981 1.404 . S
C3980 C3983 1.539 . S
C3981 C3977 1.408 . S
C3981 C3980 1.404 . S
C3981 H3993 0.930 . S
C3982 C3978 1.524 . S
C3982 H3994 0.956 . S
C3982 H3995 0.961 . S
C3982 H3996 0.961 . S
C3983 C3980 1.539 . S
C3983 H3997 0.958 . S
C3983 H3998 0.961 . S
C3983 H3999 0.960 . S
H3984 C3968 0.931 . S
H3985 C3973 0.929 . S
H3986 C3974 0.960 . S
H3987 C3974 0.962 . S
H3988 C3974 0.960 . S
H3989 C3975 0.961 1_565 S
H3990 C3975 0.939 1_565 S
H3991 C3975 0.961 . S
H3992 C3976 0.931 . S
H3993 C3981 0.930 . S
H3994 C3982 0.956 . S
H3995 C3982 0.961 . S
H3996 C3982 0.961 . S
H3997 C3983 0.958 . S
H3998 C3983 0.961 . S
H3999 C3983 0.960 . S
C4000 C4001 1.391 . S
C4000 C4002 1.394 . S
C4000 H4016 0.931 . S
C4001 C4000 1.391 . S
C4001 C4005 1.376 . S
C4002 C4000 1.394 . S
C4002 C4003 1.369 . S
C4002 C4006 1.531 . S
C4003 C4002 1.369 . S
C4003 C4004 1.410 . S
C4003 C4011 1.503 . S
C4004 C4003 1.410 . S
C4004 C4005 1.392 . S
C4004 C4007 1.511 . S
C4005 C4001 1.376 . S
C4005 C4004 1.392 . S
C4005 H4017 0.929 . S
C4006 C4002 1.531 . S
C4006 H4018 0.960 . S
C4006 H4019 0.962 . S
C4006 H4020 0.960 . S
C4007 C4004 1.511 . S
C4007 H4021 0.961 . S
C4007 H4022 0.961 . S
C4007 H4023 0.961 . S
C4008 C4009 1.370 . S
C4008 C4010 1.363 . S
C4008 H4024 0.931 . S
C4009 C4008 1.370 . S
C4009 C4013 1.408 . S
C4010 C4008 1.363 . S
C4010 C4011 1.370 . S
C4010 C4014 1.524 . S
C4011 C4003 1.503 . S
C4011 C4010 1.370 . S
C4011 C4012 1.403 . S
C4012 C4011 1.403 . S
C4012 C4013 1.404 . S
C4012 C4015 1.539 . S
C4013 C4009 1.408 . S
C4013 C4012 1.404 . S
C4013 H4025 0.930 . S
C4014 C4010 1.524 . S
C4014 H4026 0.956 . S
C4014 H4027 0.961 . S
C4014 H4028 0.961 . S
C4015 C4012 1.539 . S
C4015 H4029 0.958 . S
C4015 H4030 0.961 . S
C4015 H4031 0.960 . S
H4016 C4000 0.931 . S
H4017 C4005 0.929 . S
H4018 C4006 0.960 . S
H4019 C4006 0.962 . S
H4020 C4006 0.960 . S
H4021 C4007 0.961 . S
H4022 C4007 0.961 . S
H4023 C4007 0.961 . S
H4024 C4008 0.931 . S
H4025 C4013 0.930 . S
H4026 C4014 0.956 . S
H4027 C4014 0.961 . S
H4028 C4014 0.961 . S
H4029 C4015 0.958 . S
H4030 C4015 0.961 . S
H4031 C4015 0.960 . S
C4032 C4033 1.391 . S
C4032 C4034 1.394 . S
C4032 H4048 0.931 . S
C4033 C4032 1.391 . S
C4033 C4037 1.376 . S
C4034 C4032 1.394 . S
C4034 C4035 1.369 . S
C4034 C4038 1.531 . S
C4035 C4034 1.369 . S
C4035 C4036 1.410 . S
C4035 C4043 1.503 . S
C4036 C4035 1.410 . S
C4036 C4037 1.392 . S
C4036 C4039 1.511 . S
C4037 C4033 1.376 . S
C4037 C4036 1.392 . S
C4037 H4049 0.929 . S
C4038 C4034 1.531 . S
C4038 H4050 0.960 . S
C4038 H4051 0.962 . S
C4038 H4052 0.960 . S
C4039 C4036 1.511 . S
C4039 H4053 0.961 . S
C4039 H4054 0.961 . S
C4039 H4055 0.961 . S
C4040 C4041 1.370 1_556 S
C4040 C4042 1.363 1_556 S
C4040 H4056 0.931 . S
C4041 C4040 1.370 1_554 S
C4041 C4045 1.408 . S
C4042 C4040 1.363 1_554 S
C4042 C4043 1.370 . S
C4042 C4046 1.524 1_554 S
C4043 C4035 1.503 . S
C4043 C4042 1.370 . S
C4043 C4044 1.403 . S
C4044 C4043 1.403 . S
C4044 C4045 1.404 . S
C4044 C4047 1.539 . S
C4045 C4041 1.408 . S
C4045 C4044 1.404 . S
C4045 H4057 0.930 . S
C4046 C4042 1.524 1_556 S
C4046 H4058 0.961 . S
C4046 H4059 0.961 . S
C4046 H4060 0.961 . S
C4047 C4044 1.539 . S
C4047 H4061 0.958 . S
C4047 H4062 0.961 . S
C4047 H4063 0.960 . S
H4048 C4032 0.931 . S
H4049 C4037 0.929 . S
H4050 C4038 0.960 . S
H4051 C4038 0.962 . S
H4052 C4038 0.960 . S
H4053 C4039 0.961 . S
H4054 C4039 0.961 . S
H4055 C4039 0.961 . S
H4056 C4040 0.931 . S
H4057 C4045 0.930 . S
H4058 C4046 0.961 . S
H4059 C4046 0.961 . S
H4060 C4046 0.961 . S
H4061 C4047 0.958 . S
H4062 C4047 0.961 . S
H4063 C4047 0.960 . S
C4064 C4065 1.391 . S
C4064 C4066 1.394 . S
C4064 H4080 0.931 . S
C4065 C4064 1.391 . S
C4065 C4069 1.376 . S
C4066 C4064 1.394 . S
C4066 C4067 1.369 . S
C4066 C4070 1.531 . S
C4067 C4066 1.369 . S
C4067 C4068 1.410 . S
C4067 C4075 1.503 . S
C4068 C4067 1.410 . S
C4068 C4069 1.392 . S
C4068 C4071 1.511 . S
C4069 C4065 1.376 . S
C4069 C4068 1.392 . S
C4069 H4081 0.929 . S
C4070 C4066 1.531 . S
C4070 H4082 0.960 . S
C4070 H4083 0.962 . S
C4070 H4084 0.960 . S
C4071 C4068 1.511 . S
C4071 H4085 0.961 . S
C4071 H4086 0.961 . S
C4071 H4087 0.961 . S
C4072 C4073 1.370 . S
C4072 C4074 1.363 . S
C4072 H4088 0.931 . S
C4073 C4072 1.370 . S
C4073 C4077 1.408 . S
C4074 C4072 1.363 . S
C4074 C4075 1.370 . S
C4074 C4078 1.524 . S
C4075 C4067 1.503 . S
C4075 C4074 1.370 . S
C4075 C4076 1.403 . S
C4076 C4075 1.403 . S
C4076 C4077 1.404 . S
C4076 C4079 1.539 1_554 S
C4077 C4073 1.408 . S
C4077 C4076 1.404 . S
C4077 H4089 0.930 . S
C4078 C4074 1.524 . S
C4078 H4090 0.956 . S
C4078 H4091 0.961 . S
C4078 H4092 0.961 . S
C4079 C4076 1.539 1_556 S
C4079 H4093 0.958 . S
C4079 H4094 0.961 . S
C4079 H4095 0.960 . S
H4080 C4064 0.931 . S
H4081 C4069 0.929 . S
H4082 C4070 0.960 . S
H4083 C4070 0.962 . S
H4084 C4070 0.960 . S
H4085 C4071 0.961 . S
H4086 C4071 0.961 . S
H4087 C4071 0.961 . S
H4088 C4072 0.931 . S
H4089 C4077 0.930 . S
H4090 C4078 0.956 . S
H4091 C4078 0.961 . S
H4092 C4078 0.961 . S
H4093 C4079 0.958 . S
H4094 C4079 0.961 . S
H4095 C4079 0.960 . S
C4096 C4097 1.391 . S
C4096 C4098 1.394 . S
C4096 H4112 0.931 . S
C4097 C4096 1.391 . S
C4097 C4101 1.376 . S
C4098 C4096 1.394 . S
C4098 C4099 1.369 . S
C4098 C4102 1.531 . S
C4099 C4098 1.369 . S
C4099 C4100 1.410 . S
C4099 C4107 1.503 . S
C4100 C4099 1.410 . S
C4100 C4101 1.392 . S
C4100 C4103 1.511 . S
C4101 C4097 1.376 . S
C4101 C4100 1.392 . S
C4101 H4113 0.929 . S
C4102 C4098 1.531 . S
C4102 H4114 0.960 . S
C4102 H4115 0.962 . S
C4102 H4116 0.960 . S
C4103 C4100 1.511 . S
C4103 H4117 0.961 . S
C4103 H4118 0.961 . S
C4103 H4119 0.961 . S
C4104 C4105 1.370 . S
C4104 C4106 1.363 . S
C4104 H4120 0.931 . S
C4105 C4104 1.370 . S
C4105 C4109 1.408 . S
C4106 C4104 1.363 . S
C4106 C4107 1.370 . S
C4106 C4110 1.524 . S
C4107 C4099 1.503 . S
C4107 C4106 1.370 . S
C4107 C4108 1.403 . S
C4108 C4107 1.403 . S
C4108 C4109 1.404 . S
C4108 C4111 1.539 . S
C4109 C4105 1.408 . S
C4109 C4108 1.404 . S
C4109 H4121 0.930 . S
C4110 C4106 1.524 . S
C4110 H4122 0.956 . S
C4110 H4123 0.961 . S
C4110 H4124 0.961 . S
C4111 C4108 1.539 . S
C4111 H4125 0.958 . S
C4111 H4126 0.961 . S
C4111 H4127 0.960 . S
H4112 C4096 0.931 . S
H4113 C4101 0.929 . S
H4114 C4102 0.960 . S
H4115 C4102 0.962 . S
H4116 C4102 0.960 . S
H4117 C4103 0.961 . S
H4118 C4103 0.961 . S
H4119 C4103 0.961 . S
H4120 C4104 0.931 . S
H4121 C4109 0.930 . S
H4122 C4110 0.956 . S
H4123 C4110 0.961 . S
H4124 C4110 0.961 . S
H4125 C4111 0.958 . S
H4126 C4111 0.961 . S
H4127 C4111 0.960 . S
C4128 C4129 1.391 . S
C4128 C4130 1.394 . S
C4128 H4144 0.931 . S
C4129 C4128 1.391 . S
C4129 C4133 1.376 . S
C4130 C4128 1.394 . S
C4130 C4131 1.369 . S
C4130 C4134 1.531 . S
C4131 C4130 1.369 . S
C4131 C4132 1.410 . S
C4131 C4139 1.503 . S
C4132 C4131 1.410 . S
C4132 C4133 1.392 . S
C4132 C4135 1.511 . S
C4133 C4129 1.376 . S
C4133 C4132 1.392 . S
C4133 H4145 0.929 . S
C4134 C4130 1.531 . S
C4134 H4146 0.960 . S
C4134 H4147 0.962 . S
C4134 H4148 0.960 . S
C4135 C4132 1.511 . S
C4135 H4149 0.961 . S
C4135 H4150 0.961 . S
C4135 H4151 0.961 . S
C4136 C4137 1.370 . S
C4136 C4138 1.363 . S
C4136 H4152 0.931 . S
C4137 C4136 1.370 . S
C4137 C4141 1.408 . S
C4138 C4136 1.363 . S
C4138 C4139 1.370 . S
C4138 C4142 1.524 . S
C4139 C4131 1.503 . S
C4139 C4138 1.370 . S
C4139 C4140 1.403 . S
C4140 C4139 1.403 . S
C4140 C4141 1.404 . S
C4140 C4143 1.539 . S
C4141 C4137 1.408 . S
C4141 C4140 1.404 . S
C4141 H4153 0.930 . S
C4142 C4138 1.524 . S
C4142 H4154 0.956 . S
C4142 H4155 0.961 . S
C4142 H4156 0.961 . S
C4143 C4140 1.539 . S
C4143 H4157 0.958 . S
C4143 H4158 0.961 . S
C4143 H4159 0.960 . S
H4144 C4128 0.931 . S
H4145 C4133 0.929 . S
H4146 C4134 0.960 . S
H4147 C4134 0.962 . S
H4148 C4134 0.960 . S
H4149 C4135 0.961 . S
H4150 C4135 0.961 . S
H4151 C4135 0.961 . S
H4152 C4136 0.931 . S
H4153 C4141 0.930 . S
H4154 C4142 0.956 . S
H4155 C4142 0.961 . S
H4156 C4142 0.961 . S
H4157 C4143 0.958 . S
H4158 C4143 0.961 . S
H4159 C4143 0.960 . S
C4160 C4161 1.391 . S
C4160 C4162 1.394 . S
C4160 H4176 0.931 . S
C4161 C4160 1.391 . S
C4161 C4165 1.376 . S
C4162 C4160 1.394 . S
C4162 C4163 1.369 . S
C4162 C4166 1.531 . S
C4163 C4162 1.369 . S
C4163 C4164 1.410 . S
C4163 C4171 1.503 . S
C4164 C4163 1.410 . S
C4164 C4165 1.392 . S
C4164 C4167 1.511 . S
C4165 C4161 1.376 . S
C4165 C4164 1.392 . S
C4165 H4177 0.929 . S
C4166 C4162 1.531 . S
C4166 H4178 0.960 . S
C4166 H4179 0.962 . S
C4166 H4180 0.960 . S
C4167 C4164 1.511 . S
C4167 H4181 0.961 . S
C4167 H4182 0.961 . S
C4167 H4183 0.961 . S
C4168 C4169 1.370 . S
C4168 C4170 1.363 . S
C4168 H4184 0.931 . S
C4169 C4168 1.370 . S
C4169 C4173 1.408 . S
C4170 C4168 1.363 . S
C4170 C4171 1.370 . S
C4170 C4174 1.524 . S
C4171 C4163 1.503 . S
C4171 C4170 1.370 . S
C4171 C4172 1.403 . S
C4172 C4171 1.403 . S
C4172 C4173 1.404 . S
C4172 C4175 1.539 . S
C4173 C4169 1.408 . S
C4173 C4172 1.404 . S
C4173 H4185 0.930 . S
C4174 C4170 1.524 . S
C4174 H4186 0.956 . S
C4174 H4187 0.961 . S
C4174 H4188 0.961 . S
C4175 C4172 1.539 . S
C4175 H4189 0.958 . S
C4175 H4190 0.961 . S
C4175 H4191 0.960 . S
H4176 C4160 0.931 . S
H4177 C4165 0.929 . S
H4178 C4166 0.960 . S
H4179 C4166 0.962 . S
H4180 C4166 0.960 . S
H4181 C4167 0.961 . S
H4182 C4167 0.961 . S
H4183 C4167 0.961 . S
H4184 C4168 0.931 . S
H4185 C4173 0.930 . S
H4186 C4174 0.956 . S
H4187 C4174 0.961 . S
H4188 C4174 0.961 . S
H4189 C4175 0.958 . S
H4190 C4175 0.961 . S
H4191 C4175 0.960 . S
C4192 C4193 1.391 . S
C4192 C4194 1.394 . S
C4192 H4208 0.931 . S
C4193 C4192 1.391 . S
C4193 C4197 1.376 . S
C4194 C4192 1.394 . S
C4194 C4195 1.369 . S
C4194 C4198 1.531 . S
C4195 C4194 1.369 . S
C4195 C4196 1.410 . S
C4195 C4203 1.503 . S
C4196 C4195 1.410 . S
C4196 C4197 1.392 . S
C4196 C4199 1.511 . S
C4197 C4193 1.376 . S
C4197 C4196 1.392 . S
C4197 H4209 0.929 . S
C4198 C4194 1.531 . S
C4198 H4210 0.960 . S
C4198 H4211 0.962 . S
C4198 H4212 0.960 . S
C4199 C4196 1.511 . S
C4199 H4213 0.961 . S
C4199 H4214 0.961 . S
C4199 H4215 0.961 . S
C4200 C4201 1.370 . S
C4200 C4202 1.363 . S
C4200 H4216 0.931 . S
C4201 C4200 1.370 . S
C4201 C4205 1.408 . S
C4202 C4200 1.363 . S
C4202 C4203 1.370 . S
C4202 C4206 1.524 . S
C4203 C4195 1.503 . S
C4203 C4202 1.370 . S
C4203 C4204 1.403 . S
C4204 C4203 1.403 . S
C4204 C4205 1.404 . S
C4204 C4207 1.539 . S
C4205 C4201 1.408 . S
C4205 C4204 1.404 . S
C4205 H4217 0.930 . S
C4206 C4202 1.524 . S
C4206 H4218 0.956 . S
C4206 H4219 0.961 . S
C4206 H4220 0.961 . S
C4207 C4204 1.539 . S
C4207 H4221 0.958 . S
C4207 H4222 0.961 . S
C4207 H4223 0.960 . S
H4208 C4192 0.931 . S
H4209 C4197 0.929 . S
H4210 C4198 0.960 . S
H4211 C4198 0.962 . S
H4212 C4198 0.960 . S
H4213 C4199 0.961 . S
H4214 C4199 0.961 . S
H4215 C4199 0.961 . S
H4216 C4200 0.931 . S
H4217 C4205 0.930 . S
H4218 C4206 0.956 . S
H4219 C4206 0.961 . S
H4220 C4206 0.961 . S
H4221 C4207 0.958 . S
H4222 C4207 0.961 . S
H4223 C4207 0.960 . S
C4224 C4225 1.391 . S
C4224 C4226 1.394 . S
C4224 H4240 0.931 . S
C4225 C4224 1.391 . S
C4225 C4229 1.376 . S
C4226 C4224 1.394 . S
C4226 C4227 1.369 . S
C4226 C4230 1.531 . S
C4227 C4226 1.369 . S
C4227 C4228 1.410 . S
C4227 C4235 1.503 . S
C4228 C4227 1.410 . S
C4228 C4229 1.392 . S
C4228 C4231 1.511 . S
C4229 C4225 1.376 . S
C4229 C4228 1.392 . S
C4229 H4241 0.929 . S
C4230 C4226 1.531 . S
C4230 H4242 0.960 . S
C4230 H4243 0.962 . S
C4230 H4244 0.960 . S
C4231 C4228 1.511 . S
C4231 H4245 0.961 . S
C4231 H4246 0.961 . S
C4231 H4247 0.961 . S
C4232 C4233 1.370 . S
C4232 C4234 1.363 . S
C4232 H4248 0.931 . S
C4233 C4232 1.370 . S
C4233 C4237 1.408 . S
C4234 C4232 1.363 . S
C4234 C4235 1.370 . S
C4234 C4238 1.524 . S
C4235 C4227 1.503 . S
C4235 C4234 1.370 . S
C4235 C4236 1.403 . S
C4236 C4235 1.403 . S
C4236 C4237 1.404 . S
C4236 C4239 1.539 . S
C4237 C4233 1.408 . S
C4237 C4236 1.404 . S
C4237 H4249 0.930 . S
C4238 C4234 1.524 . S
C4238 H4250 0.956 . S
C4238 H4251 0.961 . S
C4238 H4252 0.961 . S
C4239 C4236 1.539 . S
C4239 H4253 0.958 . S
C4239 H4254 0.961 . S
C4239 H4255 0.960 . S
H4240 C4224 0.931 . S
H4241 C4229 0.929 . S
H4242 C4230 0.960 . S
H4243 C4230 0.962 . S
H4244 C4230 0.960 . S
H4245 C4231 0.961 . S
H4246 C4231 0.961 . S
H4247 C4231 0.961 . S
H4248 C4232 0.931 . S
H4249 C4237 0.930 . S
H4250 C4238 0.956 . S
H4251 C4238 0.961 . S
H4252 C4238 0.961 . S
H4253 C4239 0.958 . S
H4254 C4239 0.961 . S
H4255 C4239 0.960 . S
C4256 C4257 1.391 . S
C4256 C4258 1.394 . S
C4256 H4272 0.931 . S
C4257 C4256 1.391 . S
C4257 C4261 1.376 . S
C4258 C4256 1.394 . S
C4258 C4259 1.369 . S
C4258 C4262 1.531 . S
C4259 C4258 1.369 . S
C4259 C4260 1.410 . S
C4259 C4267 1.503 . S
C4260 C4259 1.410 . S
C4260 C4261 1.392 . S
C4260 C4263 1.511 . S
C4261 C4257 1.376 . S
C4261 C4260 1.392 . S
C4261 H4273 0.929 . S
C4262 C4258 1.531 . S
C4262 H4274 0.960 . S
C4262 H4275 0.962 . S
C4262 H4276 0.960 . S
C4263 C4260 1.511 . S
C4263 H4277 0.961 . S
C4263 H4278 0.961 . S
C4263 H4279 0.961 . S
C4264 C4265 1.370 . S
C4264 C4266 1.363 . S
C4264 H4280 0.931 . S
C4265 C4264 1.370 . S
C4265 C4269 1.408 . S
C4266 C4264 1.363 . S
C4266 C4267 1.370 . S
C4266 C4270 1.524 . S
C4267 C4259 1.503 . S
C4267 C4266 1.370 . S
C4267 C4268 1.403 . S
C4268 C4267 1.403 . S
C4268 C4269 1.404 . S
C4268 C4271 1.539 . S
C4269 C4265 1.408 . S
C4269 C4268 1.404 . S
C4269 H4281 0.930 . S
C4270 C4266 1.524 . S
C4270 H4282 0.956 . S
C4270 H4283 0.961 . S
C4270 H4284 0.961 . S
C4271 C4268 1.539 . S
C4271 H4285 0.958 . S
C4271 H4286 0.961 . S
C4271 H4287 0.960 . S
H4272 C4256 0.931 . S
H4273 C4261 0.929 . S
H4274 C4262 0.960 . S
H4275 C4262 0.962 . S
H4276 C4262 0.960 . S
H4277 C4263 0.961 . S
H4278 C4263 0.961 . S
H4279 C4263 0.961 . S
H4280 C4264 0.931 . S
H4281 C4269 0.930 . S
H4282 C4270 0.956 . S
H4283 C4270 0.961 . S
H4284 C4270 0.961 . S
H4285 C4271 0.958 . S
H4286 C4271 0.961 . S
H4287 C4271 0.960 . S
C4288 C4289 1.391 . S
C4288 C4290 1.394 . S
C4288 H4304 0.931 . S
C4289 C4288 1.391 . S
C4289 C4293 1.376 . S
C4290 C4288 1.394 . S
C4290 C4291 1.369 . S
C4290 C4294 1.531 . S
C4291 C4290 1.369 . S
C4291 C4292 1.410 . S
C4291 C4299 1.503 . S
C4292 C4291 1.410 . S
C4292 C4293 1.392 . S
C4292 C4295 1.511 . S
C4293 C4289 1.376 . S
C4293 C4292 1.392 . S
C4293 H4305 0.929 . S
C4294 C4290 1.531 . S
C4294 H4306 0.960 . S
C4294 H4307 0.962 . S
C4294 H4308 0.960 . S
C4295 C4292 1.511 . S
C4295 H4309 0.961 . S
C4295 H4310 0.961 . S
C4295 H4311 0.961 . S
C4296 C4297 1.370 . S
C4296 C4298 1.363 . S
C4296 H4312 0.931 . S
C4297 C4296 1.370 . S
C4297 C4301 1.408 . S
C4298 C4296 1.363 . S
C4298 C4299 1.370 . S
C4298 C4302 1.524 . S
C4299 C4291 1.503 . S
C4299 C4298 1.370 . S
C4299 C4300 1.403 . S
C4300 C4299 1.403 . S
C4300 C4301 1.404 . S
C4300 C4303 1.539 . S
C4301 C4297 1.408 . S
C4301 C4300 1.404 . S
C4301 H4313 0.930 . S
C4302 C4298 1.524 . S
C4302 H4314 0.956 . S
C4302 H4315 0.961 . S
C4302 H4316 0.961 . S
C4303 C4300 1.539 . S
C4303 H4317 0.958 . S
C4303 H4318 0.961 . S
C4303 H4319 0.960 . S
H4304 C4288 0.931 . S
H4305 C4293 0.929 . S
H4306 C4294 0.960 . S
H4307 C4294 0.962 . S
H4308 C4294 0.960 . S
H4309 C4295 0.961 . S
H4310 C4295 0.961 . S
H4311 C4295 0.961 . S
H4312 C4296 0.931 . S
H4313 C4301 0.930 . S
H4314 C4302 0.956 . S
H4315 C4302 0.961 . S
H4316 C4302 0.961 . S
H4317 C4303 0.958 . S
H4318 C4303 0.961 . S
H4319 C4303 0.960 . S
C4320 C4321 1.391 . S
C4320 C4322 1.394 . S
C4320 H4336 0.931 . S
C4321 C4320 1.391 . S
C4321 C4325 1.376 . S
C4322 C4320 1.394 . S
C4322 C4323 1.369 . S
C4322 C4326 1.531 . S
C4323 C4322 1.369 . S
C4323 C4324 1.410 . S
C4323 C4331 1.503 . S
C4324 C4323 1.410 . S
C4324 C4325 1.392 . S
C4324 C4327 1.511 . S
C4325 C4321 1.376 . S
C4325 C4324 1.392 . S
C4325 H4337 0.929 . S
C4326 C4322 1.531 . S
C4326 H4338 0.960 . S
C4326 H4339 0.962 . S
C4326 H4340 0.960 . S
C4327 C4324 1.511 . S
C4327 H4341 0.961 . S
C4327 H4342 0.961 . S
C4327 H4343 0.961 . S
C4328 C4329 1.370 . S
C4328 C4330 1.363 . S
C4328 H4344 0.931 . S
C4329 C4328 1.370 . S
C4329 C4333 1.408 . S
C4330 C4328 1.363 . S
C4330 C4331 1.370 . S
C4330 C4334 1.524 . S
C4331 C4323 1.503 . S
C4331 C4330 1.370 . S
C4331 C4332 1.403 . S
C4332 C4331 1.403 . S
C4332 C4333 1.404 . S
C4332 C4335 1.539 . S
C4333 C4329 1.408 . S
C4333 C4332 1.404 . S
C4333 H4345 0.930 . S
C4334 C4330 1.524 . S
C4334 H4346 0.956 . S
C4334 H4347 0.961 . S
C4334 H4348 0.961 . S
C4335 C4332 1.539 . S
C4335 H4349 0.958 . S
C4335 H4350 0.961 . S
C4335 H4351 0.960 . S
H4336 C4320 0.931 . S
H4337 C4325 0.929 . S
H4338 C4326 0.960 . S
H4339 C4326 0.962 . S
H4340 C4326 0.960 . S
H4341 C4327 0.961 . S
H4342 C4327 0.961 . S
H4343 C4327 0.961 . S
H4344 C4328 0.931 . S
H4345 C4333 0.930 . S
H4346 C4334 0.956 . S
H4347 C4334 0.961 . S
H4348 C4334 0.961 . S
H4349 C4335 0.958 . S
H4350 C4335 0.961 . S
H4351 C4335 0.960 . S
C4352 C4353 1.391 1_554 S
C4352 C4354 1.394 . S
C4352 H4368 0.931 . S
C4353 C4352 1.391 1_556 S
C4353 C4357 1.376 . S
C4354 C4352 1.394 . S
C4354 C4355 1.369 . S
C4354 C4358 1.531 1_455 S
C4355 C4354 1.369 . S
C4355 C4356 1.410 . S
C4355 C4363 1.503 . S
C4356 C4355 1.410 . S
C4356 C4357 1.392 1_554 S
C4356 C4359 1.511 . S
C4357 C4353 1.376 . S
C4357 C4356 1.392 1_556 S
C4357 H4369 0.929 . S
C4358 C4354 1.531 1_655 S
C4358 H4370 0.960 . S
C4358 H4371 1.005 . S
C4358 H4372 0.960 . S
C4359 C4356 1.511 . S
C4359 H4373 0.961 1_554 S
C4359 H4374 0.947 1_554 S
C4359 H4375 0.961 . S
C4360 C4361 1.370 1_556 S
C4360 C4362 1.363 . S
C4360 H4376 0.931 . S
C4361 C4360 1.370 1_554 S
C4361 C4365 1.408 . S
C4362 C4360 1.363 . S
C4362 C4363 1.370 1_556 S
C4362 C4366 1.524 . S
C4363 C4355 1.503 . S
C4363 C4362 1.370 1_554 S
C4363 C4364 1.403 . S
C4364 C4363 1.403 . S
C4364 C4365 1.404 . S
C4364 C4367 1.539 . S
C4365 C4361 1.408 . S
C4365 C4364 1.404 . S
C4365 H4377 0.930 . S
C4366 C4362 1.524 . S
C4366 H4378 0.956 . S
C4366 H4379 0.961 . S
C4366 H4380 0.961 . S
C4367 C4364 1.539 . S
C4367 H4381 0.958 . S
C4367 H4382 0.961 . S
C4367 H4383 0.960 . S
H4368 C4352 0.931 . S
H4369 C4357 0.929 . S
H4370 C4358 0.960 . S
H4371 C4358 1.005 . S
H4372 C4358 0.960 . S
H4373 C4359 0.961 1_556 S
H4374 C4359 0.947 1_556 S
H4375 C4359 0.961 . S
H4376 C4360 0.931 . S
H4377 C4365 0.930 . S
H4378 C4366 0.956 . S
H4379 C4366 0.961 . S
H4380 C4366 0.961 . S
H4381 C4367 0.958 . S
H4382 C4367 0.961 . S
H4383 C4367 0.960 . S
C4384 C4385 1.391 . S
C4384 C4386 1.394 . S
C4384 H4400 0.931 . S
C4385 C4384 1.391 . S
C4385 C4389 1.376 . S
C4386 C4384 1.394 . S
C4386 C4387 1.369 . S
C4386 C4390 1.531 . S
C4387 C4386 1.369 . S
C4387 C4388 1.410 . S
C4387 C4395 1.503 . S
C4388 C4387 1.410 . S
C4388 C4389 1.392 . S
C4388 C4391 1.511 . S
C4389 C4385 1.376 . S
C4389 C4388 1.392 . S
C4389 H4401 0.929 . S
C4390 C4386 1.531 . S
C4390 H4402 0.960 . S
C4390 H4403 0.962 . S
C4390 H4404 0.960 . S
C4391 C4388 1.511 . S
C4391 H4405 0.961 . S
C4391 H4406 0.961 . S
C4391 H4407 0.961 . S
C4392 C4393 1.370 . S
C4392 C4394 1.363 . S
C4392 H4408 0.931 . S
C4393 C4392 1.370 . S
C4393 C4397 1.408 . S
C4394 C4392 1.363 . S
C4394 C4395 1.370 . S
C4394 C4398 1.524 . S
C4395 C4387 1.503 . S
C4395 C4394 1.370 . S
C4395 C4396 1.403 . S
C4396 C4395 1.403 . S
C4396 C4397 1.404 . S
C4396 C4399 1.539 . S
C4397 C4393 1.408 . S
C4397 C4396 1.404 . S
C4397 H4409 0.930 . S
C4398 C4394 1.524 . S
C4398 H4410 0.956 . S
C4398 H4411 0.961 . S
C4398 H4412 0.961 . S
C4399 C4396 1.539 . S
C4399 H4413 0.958 . S
C4399 H4414 0.961 . S
C4399 H4415 0.960 . S
H4400 C4384 0.931 . S
H4401 C4389 0.929 . S
H4402 C4390 0.960 . S
H4403 C4390 0.962 . S
H4404 C4390 0.960 . S
H4405 C4391 0.961 . S
H4406 C4391 0.961 . S
H4407 C4391 0.961 . S
H4408 C4392 0.931 . S
H4409 C4397 0.930 . S
H4410 C4398 0.956 . S
H4411 C4398 0.961 . S
H4412 C4398 0.961 . S
H4413 C4399 0.958 . S
H4414 C4399 0.961 . S
H4415 C4399 0.960 . S
C4416 C4417 1.391 . S
C4416 C4418 1.394 . S
C4416 H4432 0.931 . S
C4417 C4416 1.391 . S
C4417 C4421 1.376 . S
C4418 C4416 1.394 . S
C4418 C4419 1.369 . S
C4418 C4422 1.531 . S
C4419 C4418 1.369 . S
C4419 C4420 1.410 . S
C4419 C4427 1.503 . S
C4420 C4419 1.410 . S
C4420 C4421 1.392 . S
C4420 C4423 1.511 . S
C4421 C4417 1.376 . S
C4421 C4420 1.392 . S
C4421 H4433 0.929 . S
C4422 C4418 1.531 . S
C4422 H4434 0.960 . S
C4422 H4435 0.962 . S
C4422 H4436 0.960 . S
C4423 C4420 1.511 . S
C4423 H4437 0.961 . S
C4423 H4438 0.961 . S
C4423 H4439 0.961 . S
C4424 C4425 1.370 . S
C4424 C4426 1.363 . S
C4424 H4440 0.931 . S
C4425 C4424 1.370 . S
C4425 C4429 1.408 . S
C4426 C4424 1.363 . S
C4426 C4427 1.370 . S
C4426 C4430 1.524 . S
C4427 C4419 1.503 . S
C4427 C4426 1.370 . S
C4427 C4428 1.403 . S
C4428 C4427 1.403 . S
C4428 C4429 1.404 . S
C4428 C4431 1.539 . S
C4429 C4425 1.408 . S
C4429 C4428 1.404 . S
C4429 H4441 0.930 . S
C4430 C4426 1.524 . S
C4430 H4442 0.956 . S
C4430 H4443 0.961 . S
C4430 H4444 0.961 . S
C4431 C4428 1.539 . S
C4431 H4445 0.958 . S
C4431 H4446 0.961 . S
C4431 H4447 0.960 . S
H4432 C4416 0.931 . S
H4433 C4421 0.929 . S
H4434 C4422 0.960 . S
H4435 C4422 0.962 . S
H4436 C4422 0.960 . S
H4437 C4423 0.961 . S
H4438 C4423 0.961 . S
H4439 C4423 0.961 . S
H4440 C4424 0.931 . S
H4441 C4429 0.930 . S
H4442 C4430 0.956 . S
H4443 C4430 0.961 . S
H4444 C4430 0.961 . S
H4445 C4431 0.958 . S
H4446 C4431 0.961 . S
H4447 C4431 0.960 . S
C4448 C4449 1.391 . S
C4448 C4450 1.394 . S
C4448 H4464 0.931 . S
C4449 C4448 1.391 . S
C4449 C4453 1.376 . S
C4450 C4448 1.394 . S
C4450 C4451 1.369 . S
C4450 C4454 1.531 . S
C4451 C4450 1.369 . S
C4451 C4452 1.410 . S
C4451 C4459 1.503 . S
C4452 C4451 1.410 . S
C4452 C4453 1.392 . S
C4452 C4455 1.511 . S
C4453 C4449 1.376 . S
C4453 C4452 1.392 . S
C4453 H4465 0.929 . S
C4454 C4450 1.531 . S
C4454 H4466 0.960 . S
C4454 H4467 0.962 . S
C4454 H4468 0.960 . S
C4455 C4452 1.511 . S
C4455 H4469 0.961 . S
C4455 H4470 0.961 . S
C4455 H4471 0.961 . S
C4456 C4457 1.370 . S
C4456 C4458 1.363 . S
C4456 H4472 0.931 . S
C4457 C4456 1.370 . S
C4457 C4461 1.408 . S
C4458 C4456 1.363 . S
C4458 C4459 1.370 . S
C4458 C4462 1.524 . S
C4459 C4451 1.503 . S
C4459 C4458 1.370 . S
C4459 C4460 1.403 . S
C4460 C4459 1.403 . S
C4460 C4461 1.404 . S
C4460 C4463 1.539 . S
C4461 C4457 1.408 . S
C4461 C4460 1.404 . S
C4461 H4473 0.930 . S
C4462 C4458 1.524 . S
C4462 H4474 0.956 . S
C4462 H4475 0.961 . S
C4462 H4476 0.961 . S
C4463 C4460 1.539 . S
C4463 H4477 0.958 . S
C4463 H4478 0.961 . S
C4463 H4479 0.960 . S
H4464 C4448 0.931 . S
H4465 C4453 0.929 . S
H4466 C4454 0.960 . S
H4467 C4454 0.962 . S
H4468 C4454 0.960 . S
H4469 C4455 0.961 . S
H4470 C4455 0.961 . S
H4471 C4455 0.961 . S
H4472 C4456 0.931 . S
H4473 C4461 0.930 . S
H4474 C4462 0.956 . S
H4475 C4462 0.961 . S
H4476 C4462 0.961 . S
H4477 C4463 0.958 . S
H4478 C4463 0.961 . S
H4479 C4463 0.960 . S
C4480 C4481 1.391 . S
C4480 C4482 1.394 . S
C4480 H4496 0.931 . S
C4481 C4480 1.391 . S
C4481 C4485 1.376 . S
C4482 C4480 1.394 . S
C4482 C4483 1.369 . S
C4482 C4486 1.531 . S
C4483 C4482 1.369 . S
C4483 C4484 1.410 . S
C4483 C4491 1.503 . S
C4484 C4483 1.410 . S
C4484 C4485 1.392 . S
C4484 C4487 1.511 . S
C4485 C4481 1.376 . S
C4485 C4484 1.392 . S
C4485 H4497 0.929 . S
C4486 C4482 1.531 . S
C4486 H4498 0.960 . S
C4486 H4499 0.962 . S
C4486 H4500 0.960 . S
C4487 C4484 1.511 . S
C4487 H4501 0.961 1_455 S
C4487 H4502 0.961 . S
C4487 H4503 0.961 1_455 S
C4488 C4489 1.370 . S
C4488 C4490 1.363 . S
C4488 H4504 0.931 . S
C4489 C4488 1.370 . S
C4489 C4493 1.408 . S
C4490 C4488 1.363 . S
C4490 C4491 1.370 . S
C4490 C4494 1.524 . S
C4491 C4483 1.503 . S
C4491 C4490 1.370 . S
C4491 C4492 1.403 . S
C4492 C4491 1.403 . S
C4492 C4493 1.404 . S
C4492 C4495 1.539 . S
C4493 C4489 1.408 . S
C4493 C4492 1.404 . S
C4493 H4505 0.930 . S
C4494 C4490 1.524 . S
C4494 H4506 0.956 . S
C4494 H4507 0.961 . S
C4494 H4508 0.961 . S
C4495 C4492 1.539 . S
C4495 H4509 0.958 . S
C4495 H4510 0.961 . S
C4495 H4511 0.960 . S
H4496 C4480 0.931 . S
H4497 C4485 0.929 . S
H4498 C4486 0.960 . S
H4499 C4486 0.962 . S
H4500 C4486 0.960 . S
H4501 C4487 0.961 1_655 S
H4502 C4487 0.961 . S
H4503 C4487 0.961 1_655 S
H4504 C4488 0.931 . S
H4505 C4493 0.930 . S
H4506 C4494 0.956 . S
H4507 C4494 0.961 . S
H4508 C4494 0.961 . S
H4509 C4495 0.958 . S
H4510 C4495 0.961 . S
H4511 C4495 0.960 . S
C4512 C4513 1.391 . S
C4512 C4514 1.394 . S
C4512 H4528 0.931 . S
C4513 C4512 1.391 . S
C4513 C4517 1.376 . S
C4514 C4512 1.394 . S
C4514 C4515 1.369 . S
C4514 C4518 1.531 . S
C4515 C4514 1.369 . S
C4515 C4516 1.410 . S
C4515 C4523 1.503 . S
C4516 C4515 1.410 . S
C4516 C4517 1.392 . S
C4516 C4519 1.511 . S
C4517 C4513 1.376 . S
C4517 C4516 1.392 . S
C4517 H4529 0.929 . S
C4518 C4514 1.531 . S
C4518 H4530 0.960 . S
C4518 H4531 0.962 . S
C4518 H4532 0.960 . S
C4519 C4516 1.511 . S
C4519 H4533 0.961 . S
C4519 H4534 0.961 . S
C4519 H4535 0.961 . S
C4520 C4521 1.370 . S
C4520 C4522 1.363 . S
C4520 H4536 0.931 . S
C4521 C4520 1.370 . S
C4521 C4525 1.408 . S
C4522 C4520 1.363 . S
C4522 C4523 1.370 . S
C4522 C4526 1.524 . S
C4523 C4515 1.503 . S
C4523 C4522 1.370 . S
C4523 C4524 1.403 . S
C4524 C4523 1.403 . S
C4524 C4525 1.404 . S
C4524 C4527 1.539 . S
C4525 C4521 1.408 . S
C4525 C4524 1.404 . S
C4525 H4537 0.930 . S
C4526 C4522 1.524 . S
C4526 H4538 0.956 . S
C4526 H4539 0.961 . S
C4526 H4540 0.961 . S
C4527 C4524 1.539 . S
C4527 H4541 0.958 . S
C4527 H4542 0.961 . S
C4527 H4543 0.960 . S
H4528 C4512 0.931 . S
H4529 C4517 0.929 . S
H4530 C4518 0.960 . S
H4531 C4518 0.962 . S
H4532 C4518 0.960 . S
H4533 C4519 0.961 . S
H4534 C4519 0.961 . S
H4535 C4519 0.961 . S
H4536 C4520 0.931 . S
H4537 C4525 0.930 . S
H4538 C4526 0.956 . S
H4539 C4526 0.961 . S
H4540 C4526 0.961 . S
H4541 C4527 0.958 . S
H4542 C4527 0.961 . S
H4543 C4527 0.960 . S
C4544 C4545 1.391 . S
C4544 C4546 1.394 . S
C4544 H4560 0.931 . S
C4545 C4544 1.391 . S
C4545 C4549 1.376 . S
C4546 C4544 1.394 . S
C4546 C4547 1.369 . S
C4546 C4550 1.531 . S
C4547 C4546 1.369 . S
C4547 C4548 1.410 . S
C4547 C4555 1.503 . S
C4548 C4547 1.410 . S
C4548 C4549 1.392 . S
C4548 C4551 1.511 . S
C4549 C4545 1.376 . S
C4549 C4548 1.392 . S
C4549 H4561 0.929 . S
C4550 C4546 1.531 . S
C4550 H4562 0.960 . S
C4550 H4563 0.962 . S
C4550 H4564 0.960 . S
C4551 C4548 1.511 . S
C4551 H4565 0.961 . S
C4551 H4566 0.961 . S
C4551 H4567 0.961 . S
C4552 C4553 1.370 . S
C4552 C4554 1.363 . S
C4552 H4568 0.931 . S
C4553 C4552 1.370 . S
C4553 C4557 1.408 . S
C4554 C4552 1.363 . S
C4554 C4555 1.370 . S
C4554 C4558 1.524 . S
C4555 C4547 1.503 . S
C4555 C4554 1.370 . S
C4555 C4556 1.403 . S
C4556 C4555 1.403 . S
C4556 C4557 1.404 . S
C4556 C4559 1.539 . S
C4557 C4553 1.408 . S
C4557 C4556 1.404 . S
C4557 H4569 0.930 . S
C4558 C4554 1.524 . S
C4558 H4570 0.956 . S
C4558 H4571 0.961 . S
C4558 H4572 0.961 . S
C4559 C4556 1.539 . S
C4559 H4573 0.958 . S
C4559 H4574 0.961 . S
C4559 H4575 0.960 . S
H4560 C4544 0.931 . S
H4561 C4549 0.929 . S
H4562 C4550 0.960 . S
H4563 C4550 0.962 . S
H4564 C4550 0.960 . S
H4565 C4551 0.961 . S
H4566 C4551 0.961 . S
H4567 C4551 0.961 . S
H4568 C4552 0.931 . S
H4569 C4557 0.930 . S
H4570 C4558 0.956 . S
H4571 C4558 0.961 . S
H4572 C4558 0.961 . S
H4573 C4559 0.958 . S
H4574 C4559 0.961 . S
H4575 C4559 0.960 . S
C4576 C4577 1.391 . S
C4576 C4578 1.394 . S
C4576 H4592 0.931 . S
C4577 C4576 1.391 . S
C4577 C4581 1.376 . S
C4578 C4576 1.394 . S
C4578 C4579 1.369 . S
C4578 C4582 1.531 . S
C4579 C4578 1.369 . S
C4579 C4580 1.410 . S
C4579 C4587 1.503 . S
C4580 C4579 1.410 . S
C4580 C4581 1.392 . S
C4580 C4583 1.511 . S
C4581 C4577 1.376 . S
C4581 C4580 1.392 . S
C4581 H4593 0.929 . S
C4582 C4578 1.531 . S
C4582 H4594 0.960 . S
C4582 H4595 0.962 . S
C4582 H4596 0.960 . S
C4583 C4580 1.511 . S
C4583 H4597 0.961 . S
C4583 H4598 0.961 . S
C4583 H4599 0.961 . S
C4584 C4585 1.370 . S
C4584 C4586 1.363 . S
C4584 H4600 0.931 . S
C4585 C4584 1.370 . S
C4585 C4589 1.408 . S
C4586 C4584 1.363 . S
C4586 C4587 1.370 . S
C4586 C4590 1.524 . S
C4587 C4579 1.503 . S
C4587 C4586 1.370 . S
C4587 C4588 1.403 . S
C4588 C4587 1.403 . S
C4588 C4589 1.404 . S
C4588 C4591 1.539 . S
C4589 C4585 1.408 . S
C4589 C4588 1.404 . S
C4589 H4601 0.930 . S
C4590 C4586 1.524 . S
C4590 H4602 0.956 . S
C4590 H4603 0.961 . S
C4590 H4604 0.961 . S
C4591 C4588 1.539 . S
C4591 H4605 0.958 . S
C4591 H4606 0.961 . S
C4591 H4607 0.960 . S
H4592 C4576 0.931 . S
H4593 C4581 0.929 . S
H4594 C4582 0.960 . S
H4595 C4582 0.962 . S
H4596 C4582 0.960 . S
H4597 C4583 0.961 . S
H4598 C4583 0.961 . S
H4599 C4583 0.961 . S
H4600 C4584 0.931 . S
H4601 C4589 0.930 . S
H4602 C4590 0.956 . S
H4603 C4590 0.961 . S
H4604 C4590 0.961 . S
H4605 C4591 0.958 . S
H4606 C4591 0.961 . S
H4607 C4591 0.960 . S
C4608 C4609 1.391 . S
C4608 C4610 1.394 . S
C4608 H4624 0.931 . S
C4609 C4608 1.391 . S
C4609 C4613 1.376 . S
C4610 C4608 1.394 . S
C4610 C4611 1.369 . S
C4610 C4614 1.531 . S
C4611 C4610 1.369 . S
C4611 C4612 1.410 . S
C4611 C4619 1.503 . S
C4612 C4611 1.410 . S
C4612 C4613 1.392 . S
C4612 C4615 1.511 . S
C4613 C4609 1.376 . S
C4613 C4612 1.392 . S
C4613 H4625 0.929 . S
C4614 C4610 1.531 . S
C4614 H4626 0.960 . S
C4614 H4627 0.962 . S
C4614 H4628 0.960 . S
C4615 C4612 1.511 . S
C4615 H4629 0.961 . S
C4615 H4630 0.961 . S
C4615 H4631 0.961 . S
C4616 C4617 1.370 . S
C4616 C4618 1.363 . S
C4616 H4632 0.931 . S
C4617 C4616 1.370 . S
C4617 C4621 1.408 . S
C4618 C4616 1.363 . S
C4618 C4619 1.370 . S
C4618 C4622 1.524 . S
C4619 C4611 1.503 . S
C4619 C4618 1.370 . S
C4619 C4620 1.403 . S
C4620 C4619 1.403 . S
C4620 C4621 1.404 . S
C4620 C4623 1.539 . S
C4621 C4617 1.408 . S
C4621 C4620 1.404 . S
C4621 H4633 0.930 . S
C4622 C4618 1.524 . S
C4622 H4634 0.956 . S
C4622 H4635 0.961 . S
C4622 H4636 0.961 . S
C4623 C4620 1.539 . S
C4623 H4637 0.958 . S
C4623 H4638 0.961 . S
C4623 H4639 0.960 . S
H4624 C4608 0.931 . S
H4625 C4613 0.929 . S
H4626 C4614 0.960 . S
H4627 C4614 0.962 . S
H4628 C4614 0.960 . S
H4629 C4615 0.961 . S
H4630 C4615 0.961 . S
H4631 C4615 0.961 . S
H4632 C4616 0.931 . S
H4633 C4621 0.930 . S
H4634 C4622 0.956 . S
H4635 C4622 0.961 . S
H4636 C4622 0.961 . S
H4637 C4623 0.958 . S
H4638 C4623 0.961 . S
H4639 C4623 0.960 . S
C4640 C4641 1.391 . S
C4640 C4642 1.394 . S
C4640 H4656 0.931 . S
C4641 C4640 1.391 . S
C4641 C4645 1.376 . S
C4642 C4640 1.394 . S
C4642 C4643 1.369 . S
C4642 C4646 1.531 . S
C4643 C4642 1.369 . S
C4643 C4644 1.410 . S
C4643 C4651 1.503 . S
C4644 C4643 1.410 . S
C4644 C4645 1.392 . S
C4644 C4647 1.511 . S
C4645 C4641 1.376 . S
C4645 C4644 1.392 . S
C4645 H4657 0.929 . S
C4646 C4642 1.531 . S
C4646 H4658 0.960 . S
C4646 H4659 0.962 . S
C4646 H4660 0.960 . S
C4647 C4644 1.511 . S
C4647 H4661 0.961 . S
C4647 H4662 0.961 . S
C4647 H4663 0.961 . S
C4648 C4649 1.370 . S
C4648 C4650 1.363 . S
C4648 H4664 0.931 . S
C4649 C4648 1.370 . S
C4649 C4653 1.408 . S
C4650 C4648 1.363 . S
C4650 C4651 1.370 . S
C4650 C4654 1.524 . S
C4651 C4643 1.503 . S
C4651 C4650 1.370 . S
C4651 C4652 1.403 . S
C4652 C4651 1.403 . S
C4652 C4653 1.404 . S
C4652 C4655 1.539 . S
C4653 C4649 1.408 . S
C4653 C4652 1.404 . S
C4653 H4665 0.930 . S
C4654 C4650 1.524 . S
C4654 H4666 0.956 . S
C4654 H4667 0.961 . S
C4654 H4668 0.961 . S
C4655 C4652 1.539 . S
C4655 H4669 0.958 . S
C4655 H4670 0.961 . S
C4655 H4671 0.960 . S
H4656 C4640 0.931 . S
H4657 C4645 0.929 . S
H4658 C4646 0.960 . S
H4659 C4646 0.962 . S
H4660 C4646 0.960 . S
H4661 C4647 0.961 . S
H4662 C4647 0.961 . S
H4663 C4647 0.961 . S
H4664 C4648 0.931 . S
H4665 C4653 0.930 . S
H4666 C4654 0.956 . S
H4667 C4654 0.961 . S
H4668 C4654 0.961 . S
H4669 C4655 0.958 . S
H4670 C4655 0.961 . S
H4671 C4655 0.960 . S
C4672 C4673 1.391 . S
C4672 C4674 1.394 . S
C4672 H4688 0.931 . S
C4673 C4672 1.391 . S
C4673 C4677 1.376 . S
C4674 C4672 1.394 . S
C4674 C4675 1.369 . S
C4674 C4678 1.531 . S
C4675 C4674 1.369 . S
C4675 C4676 1.410 . S
C4675 C4683 1.503 . S
C4676 C4675 1.410 . S
C4676 C4677 1.392 . S
C4676 C4679 1.511 . S
C4677 C4673 1.376 . S
C4677 C4676 1.392 . S
C4677 H4689 0.929 . S
C4678 C4674 1.531 . S
C4678 H4690 0.960 . S
C4678 H4691 0.962 . S
C4678 H4692 0.960 . S
C4679 C4676 1.511 . S
C4679 H4693 0.961 . S
C4679 H4694 0.961 . S
C4679 H4695 0.961 . S
C4680 C4681 1.370 . S
C4680 C4682 1.363 . S
C4680 H4696 0.931 . S
C4681 C4680 1.370 . S
C4681 C4685 1.408 . S
C4682 C4680 1.363 . S
C4682 C4683 1.370 . S
C4682 C4686 1.524 . S
C4683 C4675 1.503 . S
C4683 C4682 1.370 . S
C4683 C4684 1.403 . S
C4684 C4683 1.403 . S
C4684 C4685 1.404 . S
C4684 C4687 1.539 . S
C4685 C4681 1.408 . S
C4685 C4684 1.404 . S
C4685 H4697 0.930 . S
C4686 C4682 1.524 . S
C4686 H4698 0.956 . S
C4686 H4699 0.961 . S
C4686 H4700 0.961 . S
C4687 C4684 1.539 . S
C4687 H4701 0.958 . S
C4687 H4702 0.961 . S
C4687 H4703 0.960 . S
H4688 C4672 0.931 . S
H4689 C4677 0.929 . S
H4690 C4678 0.960 . S
H4691 C4678 0.962 . S
H4692 C4678 0.960 . S
H4693 C4679 0.961 . S
H4694 C4679 0.961 . S
H4695 C4679 0.961 . S
H4696 C4680 0.931 . S
H4697 C4685 0.930 . S
H4698 C4686 0.956 . S
H4699 C4686 0.961 . S
H4700 C4686 0.961 . S
H4701 C4687 0.958 . S
H4702 C4687 0.961 . S
H4703 C4687 0.960 . S
C4704 C4705 1.391 . S
C4704 C4706 1.394 . S
C4704 H4720 0.931 . S
C4705 C4704 1.391 . S
C4705 C4709 1.376 . S
C4706 C4704 1.394 . S
C4706 C4707 1.369 . S
C4706 C4710 1.531 . S
C4707 C4706 1.369 . S
C4707 C4708 1.410 . S
C4707 C4715 1.503 . S
C4708 C4707 1.410 . S
C4708 C4709 1.392 . S
C4708 C4711 1.511 . S
C4709 C4705 1.376 . S
C4709 C4708 1.392 . S
C4709 H4721 0.929 . S
C4710 C4706 1.531 . S
C4710 H4722 0.960 . S
C4710 H4723 0.962 . S
C4710 H4724 0.960 . S
C4711 C4708 1.511 . S
C4711 H4725 0.961 . S
C4711 H4726 0.961 . S
C4711 H4727 0.961 . S
C4712 C4713 1.370 . S
C4712 C4714 1.363 . S
C4712 H4728 0.931 . S
C4713 C4712 1.370 . S
C4713 C4717 1.408 . S
C4714 C4712 1.363 . S
C4714 C4715 1.370 . S
C4714 C4718 1.524 . S
C4715 C4707 1.503 . S
C4715 C4714 1.370 . S
C4715 C4716 1.403 . S
C4716 C4715 1.403 . S
C4716 C4717 1.404 . S
C4716 C4719 1.539 . S
C4717 C4713 1.408 . S
C4717 C4716 1.404 . S
C4717 H4729 0.930 . S
C4718 C4714 1.524 . S
C4718 H4730 0.956 . S
C4718 H4731 0.961 . S
C4718 H4732 0.961 . S
C4719 C4716 1.539 . S
C4719 H4733 0.958 . S
C4719 H4734 0.961 . S
C4719 H4735 0.960 . S
H4720 C4704 0.931 . S
H4721 C4709 0.929 . S
H4722 C4710 0.960 . S
H4723 C4710 0.962 . S
H4724 C4710 0.960 . S
H4725 C4711 0.961 . S
H4726 C4711 0.961 . S
H4727 C4711 0.961 . S
H4728 C4712 0.931 . S
H4729 C4717 0.930 . S
H4730 C4718 0.956 . S
H4731 C4718 0.961 . S
H4732 C4718 0.961 . S
H4733 C4719 0.958 . S
H4734 C4719 0.961 . S
H4735 C4719 0.960 . S
C4736 C4737 1.391 . S
C4736 C4738 1.394 . S
C4736 H4752 0.931 . S
C4737 C4736 1.391 . S
C4737 C4741 1.376 . S
C4738 C4736 1.394 . S
C4738 C4739 1.369 . S
C4738 C4742 1.531 . S
C4739 C4738 1.369 . S
C4739 C4740 1.410 . S
C4739 C4747 1.503 . S
C4740 C4739 1.410 . S
C4740 C4741 1.392 . S
C4740 C4743 1.511 . S
C4741 C4737 1.376 . S
C4741 C4740 1.392 . S
C4741 H4753 0.929 . S
C4742 C4738 1.531 . S
C4742 H4754 0.960 . S
C4742 H4755 0.962 . S
C4742 H4756 0.960 . S
C4743 C4740 1.511 . S
C4743 H4757 0.961 . S
C4743 H4758 0.961 . S
C4743 H4759 0.961 . S
C4744 C4745 1.370 . S
C4744 C4746 1.363 . S
C4744 H4760 0.931 . S
C4745 C4744 1.370 . S
C4745 C4749 1.408 . S
C4746 C4744 1.363 . S
C4746 C4747 1.370 . S
C4746 C4750 1.524 . S
C4747 C4739 1.503 . S
C4747 C4746 1.370 . S
C4747 C4748 1.403 . S
C4748 C4747 1.403 . S
C4748 C4749 1.404 . S
C4748 C4751 1.539 . S
C4749 C4745 1.408 . S
C4749 C4748 1.404 . S
C4749 H4761 0.930 . S
C4750 C4746 1.524 . S
C4750 H4762 0.956 . S
C4750 H4763 0.961 . S
C4750 H4764 0.961 . S
C4751 C4748 1.539 . S
C4751 H4765 0.958 . S
C4751 H4766 0.961 . S
C4751 H4767 0.960 . S
H4752 C4736 0.931 . S
H4753 C4741 0.929 . S
H4754 C4742 0.960 . S
H4755 C4742 0.962 . S
H4756 C4742 0.960 . S
H4757 C4743 0.961 . S
H4758 C4743 0.961 . S
H4759 C4743 0.961 . S
H4760 C4744 0.931 . S
H4761 C4749 0.930 . S
H4762 C4750 0.956 . S
H4763 C4750 0.961 . S
H4764 C4750 0.961 . S
H4765 C4751 0.958 . S
H4766 C4751 0.961 . S
H4767 C4751 0.960 . S
C4768 C4769 1.391 . S
C4768 C4770 1.394 . S
C4768 H4784 0.931 . S
C4769 C4768 1.391 . S
C4769 C4773 1.376 . S
C4770 C4768 1.394 . S
C4770 C4771 1.369 . S
C4770 C4774 1.531 . S
C4771 C4770 1.369 . S
C4771 C4772 1.410 . S
C4771 C4779 1.503 . S
C4772 C4771 1.410 . S
C4772 C4773 1.392 . S
C4772 C4775 1.511 . S
C4773 C4769 1.376 . S
C4773 C4772 1.392 . S
C4773 H4785 0.929 . S
C4774 C4770 1.531 . S
C4774 H4786 0.960 . S
C4774 H4787 0.962 . S
C4774 H4788 0.960 . S
C4775 C4772 1.511 . S
C4775 H4789 0.961 . S
C4775 H4790 0.961 . S
C4775 H4791 0.961 . S
C4776 C4777 1.370 . S
C4776 C4778 1.363 . S
C4776 H4792 0.931 . S
C4777 C4776 1.370 . S
C4777 C4781 1.408 . S
C4778 C4776 1.363 . S
C4778 C4779 1.370 . S
C4778 C4782 1.524 . S
C4779 C4771 1.503 . S
C4779 C4778 1.370 . S
C4779 C4780 1.403 . S
C4780 C4779 1.403 . S
C4780 C4781 1.404 . S
C4780 C4783 1.539 . S
C4781 C4777 1.408 . S
C4781 C4780 1.404 . S
C4781 H4793 0.930 . S
C4782 C4778 1.524 . S
C4782 H4794 0.956 . S
C4782 H4795 0.961 . S
C4782 H4796 0.961 . S
C4783 C4780 1.539 . S
C4783 H4797 0.958 . S
C4783 H4798 0.961 . S
C4783 H4799 0.960 . S
H4784 C4768 0.931 . S
H4785 C4773 0.929 . S
H4786 C4774 0.960 . S
H4787 C4774 0.962 . S
H4788 C4774 0.960 . S
H4789 C4775 0.961 . S
H4790 C4775 0.961 . S
H4791 C4775 0.961 . S
H4792 C4776 0.931 . S
H4793 C4781 0.930 . S
H4794 C4782 0.956 . S
H4795 C4782 0.961 . S
H4796 C4782 0.961 . S
H4797 C4783 0.958 . S
H4798 C4783 0.961 . S
H4799 C4783 0.960 . S
C4800 C4801 1.391 . S
C4800 C4802 1.394 . S
C4800 H4816 0.931 . S
C4801 C4800 1.391 . S
C4801 C4805 1.376 . S
C4802 C4800 1.394 . S
C4802 C4803 1.369 . S
C4802 C4806 1.531 . S
C4803 C4802 1.369 . S
C4803 C4804 1.410 . S
C4803 C4811 1.503 . S
C4804 C4803 1.410 . S
C4804 C4805 1.392 . S
C4804 C4807 1.511 . S
C4805 C4801 1.376 . S
C4805 C4804 1.392 . S
C4805 H4817 0.929 . S
C4806 C4802 1.531 . S
C4806 H4818 0.960 . S
C4806 H4819 0.962 . S
C4806 H4820 0.960 . S
C4807 C4804 1.511 . S
C4807 H4821 0.961 . S
C4807 H4822 0.961 . S
C4807 H4823 0.961 . S
C4808 C4809 1.370 . S
C4808 C4810 1.363 . S
C4808 H4824 0.931 . S
C4809 C4808 1.370 . S
C4809 C4813 1.408 . S
C4810 C4808 1.363 . S
C4810 C4811 1.370 . S
C4810 C4814 1.524 . S
C4811 C4803 1.503 . S
C4811 C4810 1.370 . S
C4811 C4812 1.403 . S
C4812 C4811 1.403 . S
C4812 C4813 1.404 . S
C4812 C4815 1.539 . S
C4813 C4809 1.408 . S
C4813 C4812 1.404 . S
C4813 H4825 0.930 . S
C4814 C4810 1.524 . S
C4814 H4826 0.956 . S
C4814 H4827 0.961 . S
C4814 H4828 0.961 . S
C4815 C4812 1.539 . S
C4815 H4829 0.958 . S
C4815 H4830 0.961 . S
C4815 H4831 0.960 . S
H4816 C4800 0.931 . S
H4817 C4805 0.929 . S
H4818 C4806 0.960 . S
H4819 C4806 0.962 . S
H4820 C4806 0.960 . S
H4821 C4807 0.961 . S
H4822 C4807 0.961 . S
H4823 C4807 0.961 . S
H4824 C4808 0.931 . S
H4825 C4813 0.930 . S
H4826 C4814 0.956 . S
H4827 C4814 0.961 . S
H4828 C4814 0.961 . S
H4829 C4815 0.958 . S
H4830 C4815 0.961 . S
H4831 C4815 0.960 . S
C4832 C4833 1.391 . S
C4832 C4834 1.394 . S
C4832 H4848 0.931 . S
C4833 C4832 1.391 . S
C4833 C4837 1.376 . S
C4834 C4832 1.394 . S
C4834 C4835 1.369 . S
C4834 C4838 1.531 . S
C4835 C4834 1.369 . S
C4835 C4836 1.410 . S
C4835 C4843 1.503 . S
C4836 C4835 1.410 . S
C4836 C4837 1.392 . S
C4836 C4839 1.511 . S
C4837 C4833 1.376 . S
C4837 C4836 1.392 . S
C4837 H4849 0.929 . S
C4838 C4834 1.531 . S
C4838 H4850 0.960 . S
C4838 H4851 0.962 . S
C4838 H4852 0.960 . S
C4839 C4836 1.511 . S
C4839 H4853 0.961 . S
C4839 H4854 0.961 . S
C4839 H4855 0.961 . S
C4840 C4841 1.370 . S
C4840 C4842 1.363 . S
C4840 H4856 0.931 . S
C4841 C4840 1.370 . S
C4841 C4845 1.408 . S
C4842 C4840 1.363 . S
C4842 C4843 1.370 . S
C4842 C4846 1.524 . S
C4843 C4835 1.503 . S
C4843 C4842 1.370 . S
C4843 C4844 1.403 . S
C4844 C4843 1.403 . S
C4844 C4845 1.404 . S
C4844 C4847 1.539 . S
C4845 C4841 1.408 . S
C4845 C4844 1.404 . S
C4845 H4857 0.930 . S
C4846 C4842 1.524 . S
C4846 H4858 0.956 . S
C4846 H4859 0.961 . S
C4846 H4860 0.961 . S
C4847 C4844 1.539 . S
C4847 H4861 0.958 . S
C4847 H4862 0.961 . S
C4847 H4863 0.960 . S
H4848 C4832 0.931 . S
H4849 C4837 0.929 . S
H4850 C4838 0.960 . S
H4851 C4838 0.962 . S
H4852 C4838 0.960 . S
H4853 C4839 0.961 . S
H4854 C4839 0.961 . S
H4855 C4839 0.961 . S
H4856 C4840 0.931 . S
H4857 C4845 0.930 . S
H4858 C4846 0.956 . S
H4859 C4846 0.961 . S
H4860 C4846 0.961 . S
H4861 C4847 0.958 . S
H4862 C4847 0.961 . S
H4863 C4847 0.960 . S
C4864 C4865 1.391 . S
C4864 C4866 1.394 . S
C4864 H4880 0.931 . S
C4865 C4864 1.391 . S
C4865 C4869 1.376 . S
C4866 C4864 1.394 . S
C4866 C4867 1.369 . S
C4866 C4870 1.531 . S
C4867 C4866 1.369 . S
C4867 C4868 1.410 . S
C4867 C4875 1.503 . S
C4868 C4867 1.410 . S
C4868 C4869 1.392 . S
C4868 C4871 1.511 . S
C4869 C4865 1.376 . S
C4869 C4868 1.392 . S
C4869 H4881 0.929 . S
C4870 C4866 1.531 . S
C4870 H4882 0.960 . S
C4870 H4883 0.962 . S
C4870 H4884 0.960 . S
C4871 C4868 1.511 . S
C4871 H4885 0.961 . S
C4871 H4886 0.961 . S
C4871 H4887 0.961 . S
C4872 C4873 1.370 . S
C4872 C4874 1.363 . S
C4872 H4888 0.931 . S
C4873 C4872 1.370 . S
C4873 C4877 1.408 . S
C4874 C4872 1.363 . S
C4874 C4875 1.370 . S
C4874 C4878 1.524 . S
C4875 C4867 1.503 . S
C4875 C4874 1.370 . S
C4875 C4876 1.403 . S
C4876 C4875 1.403 . S
C4876 C4877 1.404 . S
C4876 C4879 1.539 . S
C4877 C4873 1.408 . S
C4877 C4876 1.404 . S
C4877 H4889 0.930 . S
C4878 C4874 1.524 . S
C4878 H4890 0.956 . S
C4878 H4891 0.961 . S
C4878 H4892 0.961 . S
C4879 C4876 1.539 . S
C4879 H4893 0.958 . S
C4879 H4894 0.961 . S
C4879 H4895 0.960 . S
H4880 C4864 0.931 . S
H4881 C4869 0.929 . S
H4882 C4870 0.960 . S
H4883 C4870 0.962 . S
H4884 C4870 0.960 . S
H4885 C4871 0.961 . S
H4886 C4871 0.961 . S
H4887 C4871 0.961 . S
H4888 C4872 0.931 . S
H4889 C4877 0.930 . S
H4890 C4878 0.956 . S
H4891 C4878 0.961 . S
H4892 C4878 0.961 . S
H4893 C4879 0.958 . S
H4894 C4879 0.961 . S
H4895 C4879 0.960 . S
C4896 C4897 1.391 . S
C4896 C4898 1.394 . S
C4896 H4912 0.931 . S
C4897 C4896 1.391 . S
C4897 C4901 1.376 . S
C4898 C4896 1.394 . S
C4898 C4899 1.369 . S
C4898 C4902 1.531 . S
C4899 C4898 1.369 . S
C4899 C4900 1.410 . S
C4899 C4907 1.503 . S
C4900 C4899 1.410 . S
C4900 C4901 1.392 . S
C4900 C4903 1.511 . S
C4901 C4897 1.376 . S
C4901 C4900 1.392 . S
C4901 H4913 0.929 . S
C4902 C4898 1.531 . S
C4902 H4914 0.960 . S
C4902 H4915 0.962 . S
C4902 H4916 0.960 . S
C4903 C4900 1.511 . S
C4903 H4917 0.961 . S
C4903 H4918 0.961 . S
C4903 H4919 0.961 1_554 S
C4904 C4905 1.370 . S
C4904 C4906 1.363 . S
C4904 H4920 0.931 . S
C4905 C4904 1.370 . S
C4905 C4909 1.408 1_554 S
C4906 C4904 1.363 . S
C4906 C4907 1.370 . S
C4906 C4910 1.524 . S
C4907 C4899 1.503 . S
C4907 C4906 1.370 . S
C4907 C4908 1.403 1_554 S
C4908 C4907 1.403 1_556 S
C4908 C4909 1.404 . S
C4908 C4911 1.539 . S
C4909 C4905 1.408 1_556 S
C4909 C4908 1.404 . S
C4909 H4921 0.930 . S
C4910 C4906 1.524 . S
C4910 H4922 0.956 . S
C4910 H4923 0.961 . S
C4910 H4924 0.961 . S
C4911 C4908 1.539 . S
C4911 H4925 0.958 . S
C4911 H4926 0.961 . S
C4911 H4927 0.960 . S
H4912 C4896 0.931 . S
H4913 C4901 0.929 . S
H4914 C4902 0.960 . S
H4915 C4902 0.962 . S
H4916 C4902 0.960 . S
H4917 C4903 0.961 . S
H4918 C4903 0.961 . S
H4919 C4903 0.961 1_556 S
H4920 C4904 0.931 . S
H4921 C4909 0.930 . S
H4922 C4910 0.956 . S
H4923 C4910 0.961 . S
H4924 C4910 0.961 . S
H4925 C4911 0.958 . S
H4926 C4911 0.961 . S
H4927 C4911 0.960 . S
C4928 C4929 1.391 . S
C4928 C4930 1.394 . S
C4928 H4944 0.931 . S
C4929 C4928 1.391 . S
C4929 C4933 1.376 . S
C4930 C4928 1.394 . S
C4930 C4931 1.369 . S
C4930 C4934 1.531 . S
C4931 C4930 1.369 . S
C4931 C4932 1.410 . S
C4931 C4939 1.503 . S
C4932 C4931 1.410 . S
C4932 C4933 1.392 . S
C4932 C4935 1.511 . S
C4933 C4929 1.376 . S
C4933 C4932 1.392 . S
C4933 H4945 0.929 . S
C4934 C4930 1.531 . S
C4934 H4946 0.960 . S
C4934 H4947 0.962 . S
C4934 H4948 0.960 . S
C4935 C4932 1.511 . S
C4935 H4949 0.961 . S
C4935 H4950 0.961 . S
C4935 H4951 0.961 . S
C4936 C4937 1.370 . S
C4936 C4938 1.363 . S
C4936 H4952 0.931 . S
C4937 C4936 1.370 . S
C4937 C4941 1.408 . S
C4938 C4936 1.363 . S
C4938 C4939 1.370 . S
C4938 C4942 1.524 . S
C4939 C4931 1.503 . S
C4939 C4938 1.370 . S
C4939 C4940 1.403 . S
C4940 C4939 1.403 . S
C4940 C4941 1.404 . S
C4940 C4943 1.539 . S
C4941 C4937 1.408 . S
C4941 C4940 1.404 . S
C4941 H4953 0.930 . S
C4942 C4938 1.524 . S
C4942 H4954 0.956 . S
C4942 H4955 0.961 . S
C4942 H4956 0.961 . S
C4943 C4940 1.539 . S
C4943 H4957 0.958 . S
C4943 H4958 0.961 . S
C4943 H4959 0.960 . S
H4944 C4928 0.931 . S
H4945 C4933 0.929 . S
H4946 C4934 0.960 . S
H4947 C4934 0.962 . S
H4948 C4934 0.960 . S
H4949 C4935 0.961 . S
H4950 C4935 0.961 . S
H4951 C4935 0.961 . S
H4952 C4936 0.931 . S
H4953 C4941 0.930 . S
H4954 C4942 0.956 . S
H4955 C4942 0.961 . S
H4956 C4942 0.961 . S
H4957 C4943 0.958 . S
H4958 C4943 0.961 . S
H4959 C4943 0.960 . S
C4960 C4961 1.391 . S
C4960 C4962 1.394 . S
C4960 H4976 0.931 . S
C4961 C4960 1.391 . S
C4961 C4965 1.376 . S
C4962 C4960 1.394 . S
C4962 C4963 1.369 . S
C4962 C4966 1.531 . S
C4963 C4962 1.369 . S
C4963 C4964 1.410 . S
C4963 C4971 1.503 . S
C4964 C4963 1.410 . S
C4964 C4965 1.392 . S
C4964 C4967 1.511 . S
C4965 C4961 1.376 . S
C4965 C4964 1.392 . S
C4965 H4977 0.929 . S
C4966 C4962 1.531 . S
C4966 H4978 0.960 . S
C4966 H4979 0.962 . S
C4966 H4980 0.960 . S
C4967 C4964 1.511 . S
C4967 H4981 0.961 . S
C4967 H4982 0.961 . S
C4967 H4983 0.961 . S
C4968 C4969 1.370 . S
C4968 C4970 1.363 . S
C4968 H4984 0.931 . S
C4969 C4968 1.370 . S
C4969 C4973 1.408 . S
C4970 C4968 1.363 . S
C4970 C4971 1.370 . S
C4970 C4974 1.524 . S
C4971 C4963 1.503 . S
C4971 C4970 1.370 . S
C4971 C4972 1.403 . S
C4972 C4971 1.403 . S
C4972 C4973 1.404 . S
C4972 C4975 1.539 . S
C4973 C4969 1.408 . S
C4973 C4972 1.404 . S
C4973 H4985 0.930 . S
C4974 C4970 1.524 . S
C4974 H4986 0.956 . S
C4974 H4987 0.961 . S
C4974 H4988 0.961 . S
C4975 C4972 1.539 . S
C4975 H4989 0.958 . S
C4975 H4990 0.961 1_554 S
C4975 H4991 0.954 1_554 S
H4976 C4960 0.931 . S
H4977 C4965 0.929 . S
H4978 C4966 0.960 . S
H4979 C4966 0.962 . S
H4980 C4966 0.960 . S
H4981 C4967 0.961 . S
H4982 C4967 0.961 . S
H4983 C4967 0.961 . S
H4984 C4968 0.931 . S
H4985 C4973 0.930 . S
H4986 C4974 0.956 . S
H4987 C4974 0.961 . S
H4988 C4974 0.961 . S
H4989 C4975 0.958 . S
H4990 C4975 0.961 1_556 S
H4991 C4975 0.954 1_556 S
C4992 C4993 1.391 . S
C4992 C4994 1.394 . S
C4992 H5008 0.931 . S
C4993 C4992 1.391 . S
C4993 C4997 1.376 . S
C4994 C4992 1.394 . S
C4994 C4995 1.369 . S
C4994 C4998 1.531 . S
C4995 C4994 1.369 . S
C4995 C4996 1.410 . S
C4995 C5003 1.503 . S
C4996 C4995 1.410 . S
C4996 C4997 1.392 . S
C4996 C4999 1.511 . S
C4997 C4993 1.376 . S
C4997 C4996 1.392 . S
C4997 H5009 0.929 . S
C4998 C4994 1.531 . S
C4998 H5010 0.960 . S
C4998 H5011 0.962 . S
C4998 H5012 0.960 . S
C4999 C4996 1.511 . S
C4999 H5013 0.961 . S
C4999 H5014 0.961 . S
C4999 H5015 0.961 . S
C5000 C5001 1.370 . S
C5000 C5002 1.363 . S
C5000 H5016 0.931 . S
C5001 C5000 1.370 . S
C5001 C5005 1.408 . S
C5002 C5000 1.363 . S
C5002 C5003 1.370 . S
C5002 C5006 1.524 . S
C5003 C4995 1.503 . S
C5003 C5002 1.370 . S
C5003 C5004 1.403 . S
C5004 C5003 1.403 . S
C5004 C5005 1.404 . S
C5004 C5007 1.539 . S
C5005 C5001 1.408 . S
C5005 C5004 1.404 . S
C5005 H5017 0.930 . S
C5006 C5002 1.524 . S
C5006 H5018 0.956 . S
C5006 H5019 0.961 . S
C5006 H5020 0.961 . S
C5007 C5004 1.539 . S
C5007 H5021 0.958 . S
C5007 H5022 0.961 . S
C5007 H5023 0.960 . S
H5008 C4992 0.931 . S
H5009 C4997 0.929 . S
H5010 C4998 0.960 . S
H5011 C4998 0.962 . S
H5012 C4998 0.960 . S
H5013 C4999 0.961 . S
H5014 C4999 0.961 . S
H5015 C4999 0.961 . S
H5016 C5000 0.931 . S
H5017 C5005 0.930 . S
H5018 C5006 0.956 . S
H5019 C5006 0.961 . S
H5020 C5006 0.961 . S
H5021 C5007 0.958 . S
H5022 C5007 0.961 . S
H5023 C5007 0.960 . S
C5024 C5025 1.391 . S
C5024 C5026 1.394 . S
C5024 H5040 0.931 . S
C5025 C5024 1.391 . S
C5025 C5029 1.376 . S
C5026 C5024 1.394 . S
C5026 C5027 1.369 . S
C5026 C5030 1.531 . S
C5027 C5026 1.369 . S
C5027 C5028 1.410 . S
C5027 C5035 1.503 . S
C5028 C5027 1.410 . S
C5028 C5029 1.392 . S
C5028 C5031 1.511 . S
C5029 C5025 1.376 . S
C5029 C5028 1.392 . S
C5029 H5041 0.929 . S
C5030 C5026 1.531 . S
C5030 H5042 0.960 . S
C5030 H5043 0.962 . S
C5030 H5044 0.960 . S
C5031 C5028 1.511 . S
C5031 H5045 0.961 . S
C5031 H5046 0.961 . S
C5031 H5047 0.961 . S
C5032 C5033 1.370 . S
C5032 C5034 1.363 . S
C5032 H5048 0.931 . S
C5033 C5032 1.370 . S
C5033 C5037 1.408 . S
C5034 C5032 1.363 . S
C5034 C5035 1.370 . S
C5034 C5038 1.524 . S
C5035 C5027 1.503 . S
C5035 C5034 1.370 . S
C5035 C5036 1.403 . S
C5036 C5035 1.403 . S
C5036 C5037 1.404 . S
C5036 C5039 1.539 . S
C5037 C5033 1.408 . S
C5037 C5036 1.404 . S
C5037 H5049 0.930 . S
C5038 C5034 1.524 . S
C5038 H5050 0.956 . S
C5038 H5051 0.961 . S
C5038 H5052 0.961 . S
C5039 C5036 1.539 . S
C5039 H5053 0.958 . S
C5039 H5054 0.961 . S
C5039 H5055 0.960 . S
H5040 C5024 0.931 . S
H5041 C5029 0.929 . S
H5042 C5030 0.960 . S
H5043 C5030 0.962 . S
H5044 C5030 0.960 . S
H5045 C5031 0.961 . S
H5046 C5031 0.961 . S
H5047 C5031 0.961 . S
H5048 C5032 0.931 . S
H5049 C5037 0.930 . S
H5050 C5038 0.956 . S
H5051 C5038 0.961 . S
H5052 C5038 0.961 . S
H5053 C5039 0.958 . S
H5054 C5039 0.961 . S
H5055 C5039 0.960 . S
C5056 C5057 1.391 . S
C5056 C5058 1.394 . S
C5056 H5072 0.931 . S
C5057 C5056 1.391 . S
C5057 C5061 1.376 . S
C5058 C5056 1.394 . S
C5058 C5059 1.369 . S
C5058 C5062 1.531 . S
C5059 C5058 1.369 . S
C5059 C5060 1.410 . S
C5059 C5067 1.503 . S
C5060 C5059 1.410 . S
C5060 C5061 1.392 . S
C5060 C5063 1.511 . S
C5061 C5057 1.376 . S
C5061 C5060 1.392 . S
C5061 H5073 0.929 . S
C5062 C5058 1.531 . S
C5062 H5074 0.960 . S
C5062 H5075 0.962 . S
C5062 H5076 0.960 . S
C5063 C5060 1.511 . S
C5063 H5077 0.961 . S
C5063 H5078 0.961 . S
C5063 H5079 0.961 . S
C5064 C5065 1.370 . S
C5064 C5066 1.363 . S
C5064 H5080 0.931 . S
C5065 C5064 1.370 . S
C5065 C5069 1.408 . S
C5066 C5064 1.363 . S
C5066 C5067 1.370 . S
C5066 C5070 1.524 . S
C5067 C5059 1.503 . S
C5067 C5066 1.370 . S
C5067 C5068 1.403 . S
C5068 C5067 1.403 . S
C5068 C5069 1.404 . S
C5068 C5071 1.539 . S
C5069 C5065 1.408 . S
C5069 C5068 1.404 . S
C5069 H5081 0.930 . S
C5070 C5066 1.524 . S
C5070 H5082 0.956 . S
C5070 H5083 0.961 . S
C5070 H5084 0.961 . S
C5071 C5068 1.539 . S
C5071 H5085 0.958 . S
C5071 H5086 0.961 . S
C5071 H5087 0.960 . S
H5072 C5056 0.931 . S
H5073 C5061 0.929 . S
H5074 C5062 0.960 . S
H5075 C5062 0.962 . S
H5076 C5062 0.960 . S
H5077 C5063 0.961 . S
H5078 C5063 0.961 . S
H5079 C5063 0.961 . S
H5080 C5064 0.931 . S
H5081 C5069 0.930 . S
H5082 C5070 0.956 . S
H5083 C5070 0.961 . S
H5084 C5070 0.961 . S
H5085 C5071 0.958 . S
H5086 C5071 0.961 . S
H5087 C5071 0.960 . S
C5088 C5089 1.391 . S
C5088 C5090 1.394 . S
C5088 H5104 0.931 . S
C5089 C5088 1.391 . S
C5089 C5093 1.376 . S
C5090 C5088 1.394 . S
C5090 C5091 1.369 . S
C5090 C5094 1.531 . S
C5091 C5090 1.369 . S
C5091 C5092 1.410 . S
C5091 C5099 1.503 . S
C5092 C5091 1.410 . S
C5092 C5093 1.392 . S
C5092 C5095 1.511 . S
C5093 C5089 1.376 . S
C5093 C5092 1.392 . S
C5093 H5105 0.929 . S
C5094 C5090 1.531 . S
C5094 H5106 0.960 . S
C5094 H5107 0.962 . S
C5094 H5108 0.960 . S
C5095 C5092 1.511 . S
C5095 H5109 0.961 . S
C5095 H5110 0.961 . S
C5095 H5111 0.961 . S
C5096 C5097 1.370 . S
C5096 C5098 1.363 . S
C5096 H5112 0.931 . S
C5097 C5096 1.370 . S
C5097 C5101 1.408 . S
C5098 C5096 1.363 . S
C5098 C5099 1.370 . S
C5098 C5102 1.524 . S
C5099 C5091 1.503 . S
C5099 C5098 1.370 . S
C5099 C5100 1.403 . S
C5100 C5099 1.403 . S
C5100 C5101 1.404 . S
C5100 C5103 1.539 . S
C5101 C5097 1.408 . S
C5101 C5100 1.404 . S
C5101 H5113 0.930 . S
C5102 C5098 1.524 . S
C5102 H5114 0.956 . S
C5102 H5115 0.961 . S
C5102 H5116 0.961 . S
C5103 C5100 1.539 . S
C5103 H5117 0.958 . S
C5103 H5118 0.961 . S
C5103 H5119 0.960 . S
H5104 C5088 0.931 . S
H5105 C5093 0.929 . S
H5106 C5094 0.960 . S
H5107 C5094 0.962 . S
H5108 C5094 0.960 . S
H5109 C5095 0.961 . S
H5110 C5095 0.961 . S
H5111 C5095 0.961 . S
H5112 C5096 0.931 . S
H5113 C5101 0.930 . S
H5114 C5102 0.956 . S
H5115 C5102 0.961 . S
H5116 C5102 0.961 . S
H5117 C5103 0.958 . S
H5118 C5103 0.961 . S
H5119 C5103 0.960 . S
C5120 C5121 1.391 . S
C5120 C5122 1.394 . S
C5120 H5136 0.931 . S
C5121 C5120 1.391 . S
C5121 C5125 1.376 . S
C5122 C5120 1.394 . S
C5122 C5123 1.369 . S
C5122 C5126 1.531 . S
C5123 C5122 1.369 . S
C5123 C5124 1.410 . S
C5123 C5131 1.503 . S
C5124 C5123 1.410 . S
C5124 C5125 1.392 . S
C5124 C5127 1.511 1_455 S
C5125 C5121 1.376 . S
C5125 C5124 1.392 . S
C5125 H5137 0.929 . S
C5126 C5122 1.531 . S
C5126 H5138 0.960 . S
C5126 H5139 0.962 . S
C5126 H5140 0.960 . S
C5127 C5124 1.511 1_655 S
C5127 H5141 0.961 . S
C5127 H5142 0.961 . S
C5127 H5143 0.961 . S
C5128 C5129 1.370 . S
C5128 C5130 1.363 . S
C5128 H5144 0.931 . S
C5129 C5128 1.370 . S
C5129 C5133 1.408 . S
C5130 C5128 1.363 . S
C5130 C5131 1.370 . S
C5130 C5134 1.524 . S
C5131 C5123 1.503 . S
C5131 C5130 1.370 . S
C5131 C5132 1.403 . S
C5132 C5131 1.403 . S
C5132 C5133 1.404 . S
C5132 C5135 1.539 . S
C5133 C5129 1.408 . S
C5133 C5132 1.404 . S
C5133 H5145 0.930 . S
C5134 C5130 1.524 . S
C5134 H5146 0.956 . S
C5134 H5147 0.961 . S
C5134 H5148 0.961 . S
C5135 C5132 1.539 . S
C5135 H5149 0.958 . S
C5135 H5150 0.961 . S
C5135 H5151 0.960 . S
H5136 C5120 0.931 . S
H5137 C5125 0.929 . S
H5138 C5126 0.960 . S
H5139 C5126 0.962 . S
H5140 C5126 0.960 . S
H5141 C5127 0.961 . S
H5142 C5127 0.961 . S
H5143 C5127 0.961 . S
H5144 C5128 0.931 . S
H5145 C5133 0.930 . S
H5146 C5134 0.956 . S
H5147 C5134 0.961 . S
H5148 C5134 0.961 . S
H5149 C5135 0.958 . S
H5150 C5135 0.961 . S
H5151 C5135 0.960 . S
C5152 C5153 1.391 . S
C5152 C5154 1.394 . S
C5152 H5168 0.931 . S
C5153 C5152 1.391 . S
C5153 C5157 1.376 . S
C5154 C5152 1.394 . S
C5154 C5155 1.369 . S
C5154 C5158 1.531 . S
C5155 C5154 1.369 . S
C5155 C5156 1.410 . S
C5155 C5163 1.503 . S
C5156 C5155 1.410 . S
C5156 C5157 1.392 . S
C5156 C5159 1.511 . S
C5157 C5153 1.376 . S
C5157 C5156 1.392 . S
C5157 H5169 0.929 . S
C5158 C5154 1.531 . S
C5158 H5170 0.960 . S
C5158 H5171 0.962 . S
C5158 H5172 0.960 . S
C5159 C5156 1.511 . S
C5159 H5173 0.961 . S
C5159 H5174 0.961 . S
C5159 H5175 0.961 . S
C5160 C5161 1.370 . S
C5160 C5162 1.363 . S
C5160 H5176 0.931 . S
C5161 C5160 1.370 . S
C5161 C5165 1.408 . S
C5162 C5160 1.363 . S
C5162 C5163 1.370 . S
C5162 C5166 1.524 . S
C5163 C5155 1.503 . S
C5163 C5162 1.370 . S
C5163 C5164 1.403 . S
C5164 C5163 1.403 . S
C5164 C5165 1.404 . S
C5164 C5167 1.539 . S
C5165 C5161 1.408 . S
C5165 C5164 1.404 . S
C5165 H5177 0.930 . S
C5166 C5162 1.524 . S
C5166 H5178 0.956 . S
C5166 H5179 0.961 . S
C5166 H5180 0.961 . S
C5167 C5164 1.539 . S
C5167 H5181 0.958 . S
C5167 H5182 0.961 . S
C5167 H5183 0.960 . S
H5168 C5152 0.931 . S
H5169 C5157 0.929 . S
H5170 C5158 0.960 . S
H5171 C5158 0.962 . S
H5172 C5158 0.960 . S
H5173 C5159 0.961 . S
H5174 C5159 0.961 . S
H5175 C5159 0.961 . S
H5176 C5160 0.931 . S
H5177 C5165 0.930 . S
H5178 C5166 0.956 . S
H5179 C5166 0.961 . S
H5180 C5166 0.961 . S
H5181 C5167 0.958 . S
H5182 C5167 0.961 . S
H5183 C5167 0.960 . S
C5184 C5185 1.391 . S
C5184 C5186 1.394 . S
C5184 H5200 0.931 . S
C5185 C5184 1.391 . S
C5185 C5189 1.376 . S
C5186 C5184 1.394 . S
C5186 C5187 1.369 . S
C5186 C5190 1.531 . S
C5187 C5186 1.369 . S
C5187 C5188 1.410 . S
C5187 C5195 1.503 . S
C5188 C5187 1.410 . S
C5188 C5189 1.392 . S
C5188 C5191 1.511 . S
C5189 C5185 1.376 . S
C5189 C5188 1.392 . S
C5189 H5201 0.929 . S
C5190 C5186 1.531 . S
C5190 H5202 0.960 . S
C5190 H5203 0.962 . S
C5190 H5204 0.960 . S
C5191 C5188 1.511 . S
C5191 H5205 0.961 . S
C5191 H5206 0.961 . S
C5191 H5207 0.961 . S
C5192 C5193 1.370 . S
C5192 C5194 1.363 . S
C5192 H5208 0.931 . S
C5193 C5192 1.370 . S
C5193 C5197 1.408 . S
C5194 C5192 1.363 . S
C5194 C5195 1.370 . S
C5194 C5198 1.524 . S
C5195 C5187 1.503 . S
C5195 C5194 1.370 . S
C5195 C5196 1.403 . S
C5196 C5195 1.403 . S
C5196 C5197 1.404 . S
C5196 C5199 1.539 . S
C5197 C5193 1.408 . S
C5197 C5196 1.404 . S
C5197 H5209 0.930 . S
C5198 C5194 1.524 . S
C5198 H5210 0.956 . S
C5198 H5211 0.961 . S
C5198 H5212 0.961 . S
C5199 C5196 1.539 . S
C5199 H5213 0.958 . S
C5199 H5214 0.961 . S
C5199 H5215 0.960 . S
H5200 C5184 0.931 . S
H5201 C5189 0.929 . S
H5202 C5190 0.960 . S
H5203 C5190 0.962 . S
H5204 C5190 0.960 . S
H5205 C5191 0.961 . S
H5206 C5191 0.961 . S
H5207 C5191 0.961 . S
H5208 C5192 0.931 . S
H5209 C5197 0.930 . S
H5210 C5198 0.956 . S
H5211 C5198 0.961 . S
H5212 C5198 0.961 . S
H5213 C5199 0.958 . S
H5214 C5199 0.961 . S
H5215 C5199 0.960 . S
C5216 C5217 1.391 . S
C5216 C5218 1.394 . S
C5216 H5232 0.931 . S
C5217 C5216 1.391 . S
C5217 C5221 1.376 . S
C5218 C5216 1.394 . S
C5218 C5219 1.369 . S
C5218 C5222 1.531 . S
C5219 C5218 1.369 . S
C5219 C5220 1.410 . S
C5219 C5227 1.503 . S
C5220 C5219 1.410 . S
C5220 C5221 1.392 . S
C5220 C5223 1.511 . S
C5221 C5217 1.376 . S
C5221 C5220 1.392 . S
C5221 H5233 0.929 . S
C5222 C5218 1.531 . S
C5222 H5234 0.960 . S
C5222 H5235 0.962 . S
C5222 H5236 0.960 . S
C5223 C5220 1.511 . S
C5223 H5237 0.961 . S
C5223 H5238 0.961 . S
C5223 H5239 0.961 . S
C5224 C5225 1.370 . S
C5224 C5226 1.363 . S
C5224 H5240 0.931 . S
C5225 C5224 1.370 . S
C5225 C5229 1.408 . S
C5226 C5224 1.363 . S
C5226 C5227 1.370 . S
C5226 C5230 1.524 . S
C5227 C5219 1.503 . S
C5227 C5226 1.370 . S
C5227 C5228 1.403 . S
C5228 C5227 1.403 . S
C5228 C5229 1.404 . S
C5228 C5231 1.539 . S
C5229 C5225 1.408 . S
C5229 C5228 1.404 . S
C5229 H5241 0.930 . S
C5230 C5226 1.524 . S
C5230 H5242 0.956 . S
C5230 H5243 0.961 . S
C5230 H5244 0.961 . S
C5231 C5228 1.539 . S
C5231 H5245 0.958 . S
C5231 H5246 0.961 . S
C5231 H5247 0.960 . S
H5232 C5216 0.931 . S
H5233 C5221 0.929 . S
H5234 C5222 0.960 . S
H5235 C5222 0.962 . S
H5236 C5222 0.960 . S
H5237 C5223 0.961 . S
H5238 C5223 0.961 . S
H5239 C5223 0.961 . S
H5240 C5224 0.931 . S
H5241 C5229 0.930 . S
H5242 C5230 0.956 . S
H5243 C5230 0.961 . S
H5244 C5230 0.961 . S
H5245 C5231 0.958 . S
H5246 C5231 0.961 . S
H5247 C5231 0.960 . S
C5248 C5249 1.391 . S
C5248 C5250 1.394 . S
C5248 H5264 0.931 . S
C5249 C5248 1.391 . S
C5249 C5253 1.376 . S
C5250 C5248 1.394 . S
C5250 C5251 1.369 . S
C5250 C5254 1.531 . S
C5251 C5250 1.369 . S
C5251 C5252 1.410 . S
C5251 C5259 1.503 . S
C5252 C5251 1.410 . S
C5252 C5253 1.392 . S
C5252 C5255 1.511 . S
C5253 C5249 1.376 . S
C5253 C5252 1.392 . S
C5253 H5265 0.929 . S
C5254 C5250 1.531 . S
C5254 H5266 0.960 . S
C5254 H5267 0.962 . S
C5254 H5268 0.976 . S
C5255 C5252 1.511 . S
C5255 H5269 0.961 . S
C5255 H5270 0.961 . S
C5255 H5271 0.961 . S
C5256 C5257 1.370 . S
C5256 C5258 1.363 . S
C5256 H5272 0.931 . S
C5257 C5256 1.370 . S
C5257 C5261 1.408 . S
C5258 C5256 1.363 . S
C5258 C5259 1.370 . S
C5258 C5262 1.524 . S
C5259 C5251 1.503 . S
C5259 C5258 1.370 . S
C5259 C5260 1.403 . S
C5260 C5259 1.403 . S
C5260 C5261 1.404 . S
C5260 C5263 1.539 1_455 S
C5261 C5257 1.408 . S
C5261 C5260 1.404 . S
C5261 H5273 0.928 1_455 S
C5262 C5258 1.524 . S
C5262 H5274 0.956 . S
C5262 H5275 0.961 . S
C5262 H5276 0.961 . S
C5263 C5260 1.539 1_655 S
C5263 H5277 0.958 . S
C5263 H5278 0.961 . S
C5263 H5279 0.960 . S
H5264 C5248 0.931 . S
H5265 C5253 0.929 . S
H5266 C5254 0.960 . S
H5267 C5254 0.962 . S
H5268 C5254 0.976 . S
H5269 C5255 0.961 . S
H5270 C5255 0.961 . S
H5271 C5255 0.961 . S
H5272 C5256 0.931 . S
H5273 C5261 0.928 1_655 S
H5274 C5262 0.956 . S
H5275 C5262 0.961 . S
H5276 C5262 0.961 . S
H5277 C5263 0.958 . S
H5278 C5263 0.961 . S
H5279 C5263 0.960 . S
C5280 C5281 1.391 . S
C5280 C5282 1.394 . S
C5280 H5296 0.931 . S
C5281 C5280 1.391 . S
C5281 C5285 1.376 . S
C5282 C5280 1.394 . S
C5282 C5283 1.369 . S
C5282 C5286 1.531 . S
C5283 C5282 1.369 . S
C5283 C5284 1.410 . S
C5283 C5291 1.503 . S
C5284 C5283 1.410 . S
C5284 C5285 1.392 . S
C5284 C5287 1.511 . S
C5285 C5281 1.376 . S
C5285 C5284 1.392 . S
C5285 H5297 0.929 . S
C5286 C5282 1.531 . S
C5286 H5298 0.960 . S
C5286 H5299 0.962 . S
C5286 H5300 0.960 . S
C5287 C5284 1.511 . S
C5287 H5301 0.961 . S
C5287 H5302 0.961 . S
C5287 H5303 0.961 . S
C5288 C5289 1.370 . S
C5288 C5290 1.363 . S
C5288 H5304 0.931 . S
C5289 C5288 1.370 . S
C5289 C5293 1.408 . S
C5290 C5288 1.363 . S
C5290 C5291 1.370 . S
C5290 C5294 1.524 . S
C5291 C5283 1.503 . S
C5291 C5290 1.370 . S
C5291 C5292 1.403 . S
C5292 C5291 1.403 . S
C5292 C5293 1.404 . S
C5292 C5295 1.539 . S
C5293 C5289 1.408 . S
C5293 C5292 1.404 . S
C5293 H5305 0.930 . S
C5294 C5290 1.524 . S
C5294 H5306 0.956 . S
C5294 H5307 0.961 . S
C5294 H5308 0.961 . S
C5295 C5292 1.539 . S
C5295 H5309 0.958 . S
C5295 H5310 0.961 . S
C5295 H5311 0.960 . S
H5296 C5280 0.931 . S
H5297 C5285 0.929 . S
H5298 C5286 0.960 . S
H5299 C5286 0.962 . S
H5300 C5286 0.960 . S
H5301 C5287 0.961 . S
H5302 C5287 0.961 . S
H5303 C5287 0.961 . S
H5304 C5288 0.931 . S
H5305 C5293 0.930 . S
H5306 C5294 0.956 . S
H5307 C5294 0.961 . S
H5308 C5294 0.961 . S
H5309 C5295 0.958 . S
H5310 C5295 0.961 . S
H5311 C5295 0.960 . S
C5312 C5313 1.391 . S
C5312 C5314 1.394 . S
C5312 H5328 0.931 . S
C5313 C5312 1.391 . S
C5313 C5317 1.376 . S
C5314 C5312 1.394 . S
C5314 C5315 1.369 . S
C5314 C5318 1.531 . S
C5315 C5314 1.369 . S
C5315 C5316 1.410 . S
C5315 C5323 1.503 . S
C5316 C5315 1.410 . S
C5316 C5317 1.392 . S
C5316 C5319 1.511 . S
C5317 C5313 1.376 . S
C5317 C5316 1.392 . S
C5317 H5329 0.929 . S
C5318 C5314 1.531 . S
C5318 H5330 0.960 . S
C5318 H5331 0.962 . S
C5318 H5332 0.960 . S
C5319 C5316 1.511 . S
C5319 H5333 0.961 . S
C5319 H5334 0.961 . S
C5319 H5335 0.961 . S
C5320 C5321 1.370 . S
C5320 C5322 1.363 . S
C5320 H5336 0.931 . S
C5321 C5320 1.370 . S
C5321 C5325 1.408 . S
C5322 C5320 1.363 . S
C5322 C5323 1.370 . S
C5322 C5326 1.524 . S
C5323 C5315 1.503 . S
C5323 C5322 1.370 . S
C5323 C5324 1.403 . S
C5324 C5323 1.403 . S
C5324 C5325 1.404 . S
C5324 C5327 1.539 . S
C5325 C5321 1.408 . S
C5325 C5324 1.404 . S
C5325 H5337 0.930 . S
C5326 C5322 1.524 . S
C5326 H5338 0.956 . S
C5326 H5339 0.961 . S
C5326 H5340 0.961 . S
C5327 C5324 1.539 . S
C5327 H5341 0.958 . S
C5327 H5342 0.961 . S
C5327 H5343 0.960 . S
H5328 C5312 0.931 . S
H5329 C5317 0.929 . S
H5330 C5318 0.960 . S
H5331 C5318 0.962 . S
H5332 C5318 0.960 . S
H5333 C5319 0.961 . S
H5334 C5319 0.961 . S
H5335 C5319 0.961 . S
H5336 C5320 0.931 . S
H5337 C5325 0.930 . S
H5338 C5326 0.956 . S
H5339 C5326 0.961 . S
H5340 C5326 0.961 . S
H5341 C5327 0.958 . S
H5342 C5327 0.961 . S
H5343 C5327 0.960 . S
C5344 C5345 1.391 . S
C5344 C5346 1.394 . S
C5344 H5360 0.931 . S
C5345 C5344 1.391 . S
C5345 C5349 1.376 . S
C5346 C5344 1.394 . S
C5346 C5347 1.369 . S
C5346 C5350 1.531 . S
C5347 C5346 1.369 . S
C5347 C5348 1.410 . S
C5347 C5355 1.503 . S
C5348 C5347 1.410 . S
C5348 C5349 1.392 . S
C5348 C5351 1.511 . S
C5349 C5345 1.376 . S
C5349 C5348 1.392 . S
C5349 H5361 0.929 . S
C5350 C5346 1.531 . S
C5350 H5362 0.960 . S
C5350 H5363 0.962 . S
C5350 H5364 0.960 . S
C5351 C5348 1.511 . S
C5351 H5365 0.961 . S
C5351 H5366 0.961 . S
C5351 H5367 0.961 . S
C5352 C5353 1.370 . S
C5352 C5354 1.363 . S
C5352 H5368 0.931 . S
C5353 C5352 1.370 . S
C5353 C5357 1.408 . S
C5354 C5352 1.363 . S
C5354 C5355 1.370 . S
C5354 C5358 1.524 . S
C5355 C5347 1.503 . S
C5355 C5354 1.370 . S
C5355 C5356 1.403 . S
C5356 C5355 1.403 . S
C5356 C5357 1.404 . S
C5356 C5359 1.539 . S
C5357 C5353 1.408 . S
C5357 C5356 1.404 . S
C5357 H5369 0.930 . S
C5358 C5354 1.524 . S
C5358 H5370 0.956 . S
C5358 H5371 0.961 . S
C5358 H5372 0.961 . S
C5359 C5356 1.539 . S
C5359 H5373 0.958 . S
C5359 H5374 0.961 . S
C5359 H5375 0.960 . S
H5360 C5344 0.931 . S
H5361 C5349 0.929 . S
H5362 C5350 0.960 . S
H5363 C5350 0.962 . S
H5364 C5350 0.960 . S
H5365 C5351 0.961 . S
H5366 C5351 0.961 . S
H5367 C5351 0.961 . S
H5368 C5352 0.931 . S
H5369 C5357 0.930 . S
H5370 C5358 0.956 . S
H5371 C5358 0.961 . S
H5372 C5358 0.961 . S
H5373 C5359 0.958 . S
H5374 C5359 0.961 . S
H5375 C5359 0.960 . S
C5376 C5377 1.391 . S
C5376 C5378 1.394 . S
C5376 H5392 0.931 . S
C5377 C5376 1.391 . S
C5377 C5381 1.376 . S
C5378 C5376 1.394 . S
C5378 C5379 1.369 . S
C5378 C5382 1.531 . S
C5379 C5378 1.369 . S
C5379 C5380 1.410 . S
C5379 C5387 1.503 . S
C5380 C5379 1.410 . S
C5380 C5381 1.392 . S
C5380 C5383 1.511 1_655 S
C5381 C5377 1.376 . S
C5381 C5380 1.392 . S
C5381 H5393 0.929 . S
C5382 C5378 1.531 . S
C5382 H5394 0.960 . S
C5382 H5395 0.962 . S
C5382 H5396 0.960 . S
C5383 C5380 1.511 1_455 S
C5383 H5397 0.961 . S
C5383 H5398 0.961 . S
C5383 H5399 0.961 . S
C5384 C5385 1.370 . S
C5384 C5386 1.363 1_455 S
C5384 H5400 0.931 . S
C5385 C5384 1.370 . S
C5385 C5389 1.408 1_455 S
C5386 C5384 1.363 1_655 S
C5386 C5387 1.370 . S
C5386 C5390 1.524 1_655 S
C5387 C5379 1.503 . S
C5387 C5386 1.370 . S
C5387 C5388 1.403 . S
C5388 C5387 1.403 . S
C5388 C5389 1.404 . S
C5388 C5391 1.539 . S
C5389 C5385 1.408 1_655 S
C5389 C5388 1.404 . S
C5389 H5401 0.930 . S
C5390 C5386 1.524 1_455 S
C5390 H5402 0.956 1_455 S
C5390 H5403 0.961 . S
C5390 H5404 0.961 . S
C5391 C5388 1.539 . S
C5391 H5405 0.958 . S
C5391 H5406 0.961 . S
C5391 H5407 0.960 . S
H5392 C5376 0.931 . S
H5393 C5381 0.929 . S
H5394 C5382 0.960 . S
H5395 C5382 0.962 . S
H5396 C5382 0.960 . S
H5397 C5383 0.961 . S
H5398 C5383 0.961 . S
H5399 C5383 0.961 . S
H5400 C5384 0.931 . S
H5401 C5389 0.930 . S
H5402 C5390 0.956 1_655 S
H5403 C5390 0.961 . S
H5404 C5390 0.961 . S
H5405 C5391 0.958 . S
H5406 C5391 0.961 . S
H5407 C5391 0.960 . S
C5408 C5409 1.391 . S
C5408 C5410 1.394 . S
C5408 H5424 0.931 . S
C5409 C5408 1.391 . S
C5409 C5413 1.376 . S
C5410 C5408 1.394 . S
C5410 C5411 1.369 . S
C5410 C5414 1.531 . S
C5411 C5410 1.369 . S
C5411 C5412 1.410 . S
C5411 C5419 1.503 . S
C5412 C5411 1.410 . S
C5412 C5413 1.392 . S
C5412 C5415 1.511 . S
C5413 C5409 1.376 . S
C5413 C5412 1.392 . S
C5413 H5425 0.929 . S
C5414 C5410 1.531 . S
C5414 H5426 0.960 . S
C5414 H5427 0.962 . S
C5414 H5428 0.960 . S
C5415 C5412 1.511 . S
C5415 H5429 0.961 . S
C5415 H5430 0.961 . S
C5415 H5431 0.961 . S
C5416 C5417 1.370 . S
C5416 C5418 1.363 . S
C5416 H5432 0.931 . S
C5417 C5416 1.370 . S
C5417 C5421 1.408 . S
C5418 C5416 1.363 . S
C5418 C5419 1.370 . S
C5418 C5422 1.524 . S
C5419 C5411 1.503 . S
C5419 C5418 1.370 . S
C5419 C5420 1.403 . S
C5420 C5419 1.403 . S
C5420 C5421 1.404 . S
C5420 C5423 1.539 . S
C5421 C5417 1.408 . S
C5421 C5420 1.404 . S
C5421 H5433 0.930 . S
C5422 C5418 1.524 . S
C5422 H5434 0.956 . S
C5422 H5435 0.961 . S
C5422 H5436 0.961 . S
C5423 C5420 1.539 . S
C5423 H5437 0.958 . S
C5423 H5438 0.961 . S
C5423 H5439 0.960 . S
H5424 C5408 0.931 . S
H5425 C5413 0.929 . S
H5426 C5414 0.960 . S
H5427 C5414 0.962 . S
H5428 C5414 0.960 . S
H5429 C5415 0.961 . S
H5430 C5415 0.961 . S
H5431 C5415 0.961 . S
H5432 C5416 0.931 . S
H5433 C5421 0.930 . S
H5434 C5422 0.956 . S
H5435 C5422 0.961 . S
H5436 C5422 0.961 . S
H5437 C5423 0.958 . S
H5438 C5423 0.961 . S
H5439 C5423 0.960 . S
C5440 C5441 1.391 . S
C5440 C5442 1.394 . S
C5440 H5456 0.931 . S
C5441 C5440 1.391 . S
C5441 C5445 1.376 . S
C5442 C5440 1.394 . S
C5442 C5443 1.369 . S
C5442 C5446 1.531 . S
C5443 C5442 1.369 . S
C5443 C5444 1.410 . S
C5443 C5451 1.503 . S
C5444 C5443 1.410 . S
C5444 C5445 1.392 . S
C5444 C5447 1.511 . S
C5445 C5441 1.376 . S
C5445 C5444 1.392 . S
C5445 H5457 0.929 . S
C5446 C5442 1.531 . S
C5446 H5458 0.960 . S
C5446 H5459 0.962 . S
C5446 H5460 0.960 . S
C5447 C5444 1.511 . S
C5447 H5461 0.961 . S
C5447 H5462 0.961 . S
C5447 H5463 0.961 . S
C5448 C5449 1.370 . S
C5448 C5450 1.363 . S
C5448 H5464 0.931 . S
C5449 C5448 1.370 . S
C5449 C5453 1.408 . S
C5450 C5448 1.363 . S
C5450 C5451 1.370 . S
C5450 C5454 1.524 . S
C5451 C5443 1.503 . S
C5451 C5450 1.370 . S
C5451 C5452 1.403 . S
C5452 C5451 1.403 . S
C5452 C5453 1.404 . S
C5452 C5455 1.539 . S
C5453 C5449 1.408 . S
C5453 C5452 1.404 . S
C5453 H5465 0.930 . S
C5454 C5450 1.524 . S
C5454 H5466 0.956 . S
C5454 H5467 0.961 . S
C5454 H5468 0.961 . S
C5455 C5452 1.539 . S
C5455 H5469 0.958 . S
C5455 H5470 0.961 . S
C5455 H5471 0.960 . S
H5456 C5440 0.931 . S
H5457 C5445 0.929 . S
H5458 C5446 0.960 . S
H5459 C5446 0.962 . S
H5460 C5446 0.960 . S
H5461 C5447 0.961 . S
H5462 C5447 0.961 . S
H5463 C5447 0.961 . S
H5464 C5448 0.931 . S
H5465 C5453 0.930 . S
H5466 C5454 0.956 . S
H5467 C5454 0.961 . S
H5468 C5454 0.961 . S
H5469 C5455 0.958 . S
H5470 C5455 0.961 . S
H5471 C5455 0.960 . S
C5472 C5473 1.391 . S
C5472 C5474 1.394 . S
C5472 H5488 0.931 . S
C5473 C5472 1.391 . S
C5473 C5477 1.376 . S
C5474 C5472 1.394 . S
C5474 C5475 1.369 . S
C5474 C5478 1.531 . S
C5475 C5474 1.369 . S
C5475 C5476 1.410 . S
C5475 C5483 1.503 . S
C5476 C5475 1.410 . S
C5476 C5477 1.392 . S
C5476 C5479 1.511 . S
C5477 C5473 1.376 . S
C5477 C5476 1.392 . S
C5477 H5489 0.929 . S
C5478 C5474 1.531 . S
C5478 H5490 0.960 . S
C5478 H5491 0.962 . S
C5478 H5492 0.960 . S
C5479 C5476 1.511 . S
C5479 H5493 0.961 . S
C5479 H5494 0.961 . S
C5479 H5495 0.961 . S
C5480 C5481 1.370 . S
C5480 C5482 1.363 . S
C5480 H5496 0.931 . S
C5481 C5480 1.370 . S
C5481 C5485 1.408 . S
C5482 C5480 1.363 . S
C5482 C5483 1.370 . S
C5482 C5486 1.524 . S
C5483 C5475 1.503 . S
C5483 C5482 1.370 . S
C5483 C5484 1.403 . S
C5484 C5483 1.403 . S
C5484 C5485 1.404 . S
C5484 C5487 1.539 . S
C5485 C5481 1.408 . S
C5485 C5484 1.404 . S
C5485 H5497 0.930 . S
C5486 C5482 1.524 . S
C5486 H5498 0.956 . S
C5486 H5499 0.961 . S
C5486 H5500 0.961 . S
C5487 C5484 1.539 . S
C5487 H5501 0.958 . S
C5487 H5502 0.961 . S
C5487 H5503 0.960 . S
H5488 C5472 0.931 . S
H5489 C5477 0.929 . S
H5490 C5478 0.960 . S
H5491 C5478 0.962 . S
H5492 C5478 0.960 . S
H5493 C5479 0.961 . S
H5494 C5479 0.961 . S
H5495 C5479 0.961 . S
H5496 C5480 0.931 . S
H5497 C5485 0.930 . S
H5498 C5486 0.956 . S
H5499 C5486 0.961 . S
H5500 C5486 0.961 . S
H5501 C5487 0.958 . S
H5502 C5487 0.961 . S
H5503 C5487 0.960 . S
C5504 C5505 1.391 . S
C5504 C5506 1.394 . S
C5504 H5520 0.931 . S
C5505 C5504 1.391 . S
C5505 C5509 1.376 . S
C5506 C5504 1.394 . S
C5506 C5507 1.369 . S
C5506 C5510 1.531 . S
C5507 C5506 1.369 . S
C5507 C5508 1.410 . S
C5507 C5515 1.503 . S
C5508 C5507 1.410 . S
C5508 C5509 1.392 . S
C5508 C5511 1.511 1_655 S
C5509 C5505 1.376 . S
C5509 C5508 1.392 . S
C5509 H5521 0.929 . S
C5510 C5506 1.531 . S
C5510 H5522 0.960 . S
C5510 H5523 0.962 . S
C5510 H5524 0.960 . S
C5511 C5508 1.511 1_455 S
C5511 H5525 0.961 . S
C5511 H5526 0.961 . S
C5511 H5527 0.961 . S
C5512 C5513 1.369 . S
C5512 C5514 1.363 . S
C5512 H5528 0.931 . S
C5513 C5512 1.369 . S
C5513 C5517 1.407 . S
C5514 C5512 1.363 . S
C5514 C5515 1.370 . S
C5514 C5518 1.524 . S
C5515 C5507 1.503 . S
C5515 C5514 1.370 . S
C5515 C5516 1.403 . S
C5516 C5515 1.403 . S
C5516 C5517 1.404 . S
C5516 C5519 1.539 . S
C5517 C5513 1.407 . S
C5517 C5516 1.404 . S
C5517 H5529 0.930 1_655 S
C5518 C5514 1.524 . S
C5518 H5530 0.956 . S
C5518 H5531 0.961 . S
C5518 H5532 0.961 . S
C5519 C5516 1.539 . S
C5519 H5533 0.958 . S
C5519 H5534 0.961 . S
C5519 H5535 0.960 . S
H5520 C5504 0.931 . S
H5521 C5509 0.929 . S
H5522 C5510 0.960 . S
H5523 C5510 0.962 . S
H5524 C5510 0.960 . S
H5525 C5511 0.961 . S
H5526 C5511 0.961 . S
H5527 C5511 0.961 . S
H5528 C5512 0.931 . S
H5529 C5517 0.930 1_455 S
H5530 C5518 0.956 . S
H5531 C5518 0.961 . S
H5532 C5518 0.961 . S
H5533 C5519 0.958 . S
H5534 C5519 0.961 . S
H5535 C5519 0.960 . S
C5536 C5537 1.391 . S
C5536 C5538 1.394 . S
C5536 H5552 0.931 . S
C5537 C5536 1.391 . S
C5537 C5541 1.376 . S
C5538 C5536 1.394 . S
C5538 C5539 1.369 . S
C5538 C5542 1.531 . S
C5539 C5538 1.369 . S
C5539 C5540 1.410 . S
C5539 C5547 1.503 . S
C5540 C5539 1.410 . S
C5540 C5541 1.392 . S
C5540 C5543 1.511 . S
C5541 C5537 1.376 . S
C5541 C5540 1.392 . S
C5541 H5553 0.929 . S
C5542 C5538 1.531 . S
C5542 H5554 0.960 . S
C5542 H5555 0.962 . S
C5542 H5556 0.960 . S
C5543 C5540 1.511 . S
C5543 H5557 0.961 . S
C5543 H5558 0.961 . S
C5543 H5559 0.961 . S
C5544 C5545 1.370 . S
C5544 C5546 1.363 . S
C5544 H5560 0.931 . S
C5545 C5544 1.370 . S
C5545 C5549 1.408 . S
C5546 C5544 1.363 . S
C5546 C5547 1.370 . S
C5546 C5550 1.524 . S
C5547 C5539 1.503 . S
C5547 C5546 1.370 . S
C5547 C5548 1.403 . S
C5548 C5547 1.403 . S
C5548 C5549 1.404 . S
C5548 C5551 1.539 . S
C5549 C5545 1.408 . S
C5549 C5548 1.404 . S
C5549 H5561 0.930 . S
C5550 C5546 1.524 . S
C5550 H5562 0.956 . S
C5550 H5563 0.961 . S
C5550 H5564 0.961 . S
C5551 C5548 1.539 . S
C5551 H5565 0.958 . S
C5551 H5566 0.961 . S
C5551 H5567 0.960 . S
H5552 C5536 0.931 . S
H5553 C5541 0.929 . S
H5554 C5542 0.960 . S
H5555 C5542 0.962 . S
H5556 C5542 0.960 . S
H5557 C5543 0.961 . S
H5558 C5543 0.961 . S
H5559 C5543 0.961 . S
H5560 C5544 0.931 . S
H5561 C5549 0.930 . S
H5562 C5550 0.956 . S
H5563 C5550 0.961 . S
H5564 C5550 0.961 . S
H5565 C5551 0.958 . S
H5566 C5551 0.961 . S
H5567 C5551 0.960 . S
C5568 C5569 1.391 . S
C5568 C5570 1.394 . S
C5568 H5584 0.931 . S
C5569 C5568 1.391 . S
C5569 C5573 1.376 . S
C5570 C5568 1.394 . S
C5570 C5571 1.369 . S
C5570 C5574 1.531 . S
C5571 C5570 1.369 . S
C5571 C5572 1.410 . S
C5571 C5579 1.503 . S
C5572 C5571 1.410 . S
C5572 C5573 1.392 . S
C5572 C5575 1.511 . S
C5573 C5569 1.376 . S
C5573 C5572 1.392 . S
C5573 H5585 0.929 . S
C5574 C5570 1.531 . S
C5574 H5586 0.960 . S
C5574 H5587 0.962 . S
C5574 H5588 0.960 . S
C5575 C5572 1.511 . S
C5575 H5589 0.961 . S
C5575 H5590 0.961 . S
C5575 H5591 0.961 . S
C5576 C5577 1.370 . S
C5576 C5578 1.363 . S
C5576 H5592 0.931 . S
C5577 C5576 1.370 . S
C5577 C5581 1.408 . S
C5578 C5576 1.363 . S
C5578 C5579 1.370 . S
C5578 C5582 1.524 . S
C5579 C5571 1.503 . S
C5579 C5578 1.370 . S
C5579 C5580 1.403 . S
C5580 C5579 1.403 . S
C5580 C5581 1.404 . S
C5580 C5583 1.539 . S
C5581 C5577 1.408 . S
C5581 C5580 1.404 . S
C5581 H5593 0.930 . S
C5582 C5578 1.524 . S
C5582 H5594 0.956 . S
C5582 H5595 0.961 . S
C5582 H5596 0.961 . S
C5583 C5580 1.539 . S
C5583 H5597 0.958 . S
C5583 H5598 0.961 . S
C5583 H5599 0.960 . S
H5584 C5568 0.931 . S
H5585 C5573 0.929 . S
H5586 C5574 0.960 . S
H5587 C5574 0.962 . S
H5588 C5574 0.960 . S
H5589 C5575 0.961 . S
H5590 C5575 0.961 . S
H5591 C5575 0.961 . S
H5592 C5576 0.931 . S
H5593 C5581 0.930 . S
H5594 C5582 0.956 . S
H5595 C5582 0.961 . S
H5596 C5582 0.961 . S
H5597 C5583 0.958 . S
H5598 C5583 0.961 . S
H5599 C5583 0.960 . S
C5600 C5601 1.391 . S
C5600 C5602 1.394 . S
C5600 H5616 0.931 . S
C5601 C5600 1.391 . S
C5601 C5605 1.376 . S
C5602 C5600 1.394 . S
C5602 C5603 1.369 . S
C5602 C5606 1.531 . S
C5603 C5602 1.369 . S
C5603 C5604 1.410 . S
C5603 C5611 1.503 . S
C5604 C5603 1.410 . S
C5604 C5605 1.392 . S
C5604 C5607 1.511 . S
C5605 C5601 1.376 . S
C5605 C5604 1.392 . S
C5605 H5617 0.929 . S
C5606 C5602 1.531 . S
C5606 H5618 0.960 . S
C5606 H5619 0.962 . S
C5606 H5620 0.960 . S
C5607 C5604 1.511 . S
C5607 H5621 0.961 . S
C5607 H5622 0.961 . S
C5607 H5623 0.961 . S
C5608 C5609 1.370 . S
C5608 C5610 1.363 . S
C5608 H5624 0.931 . S
C5609 C5608 1.370 . S
C5609 C5613 1.408 . S
C5610 C5608 1.363 . S
C5610 C5611 1.370 . S
C5610 C5614 1.524 . S
C5611 C5603 1.503 . S
C5611 C5610 1.370 . S
C5611 C5612 1.403 . S
C5612 C5611 1.403 . S
C5612 C5613 1.404 . S
C5612 C5615 1.539 . S
C5613 C5609 1.408 . S
C5613 C5612 1.404 . S
C5613 H5625 0.930 . S
C5614 C5610 1.524 . S
C5614 H5626 0.956 . S
C5614 H5627 0.961 . S
C5614 H5628 0.961 . S
C5615 C5612 1.539 . S
C5615 H5629 0.958 . S
C5615 H5630 0.961 . S
C5615 H5631 0.960 . S
H5616 C5600 0.931 . S
H5617 C5605 0.929 . S
H5618 C5606 0.960 . S
H5619 C5606 0.962 . S
H5620 C5606 0.960 . S
H5621 C5607 0.961 . S
H5622 C5607 0.961 . S
H5623 C5607 0.961 . S
H5624 C5608 0.931 . S
H5625 C5613 0.930 . S
H5626 C5614 0.956 . S
H5627 C5614 0.961 . S
H5628 C5614 0.961 . S
H5629 C5615 0.958 . S
H5630 C5615 0.961 . S
H5631 C5615 0.960 . S
C5632 C5633 1.391 . S
C5632 C5634 1.394 . S
C5632 H5648 0.931 . S
C5633 C5632 1.391 . S
C5633 C5637 1.376 . S
C5634 C5632 1.394 . S
C5634 C5635 1.369 . S
C5634 C5638 1.531 . S
C5635 C5634 1.369 . S
C5635 C5636 1.410 . S
C5635 C5643 1.503 . S
C5636 C5635 1.410 . S
C5636 C5637 1.392 . S
C5636 C5639 1.511 . S
C5637 C5633 1.376 . S
C5637 C5636 1.392 . S
C5637 H5649 0.929 . S
C5638 C5634 1.531 . S
C5638 H5650 0.960 . S
C5638 H5651 0.962 . S
C5638 H5652 0.960 . S
C5639 C5636 1.511 . S
C5639 H5653 0.961 . S
C5639 H5654 0.961 . S
C5639 H5655 0.961 . S
C5640 C5641 1.370 . S
C5640 C5642 1.363 . S
C5640 H5656 0.931 . S
C5641 C5640 1.370 . S
C5641 C5645 1.408 . S
C5642 C5640 1.363 . S
C5642 C5643 1.370 . S
C5642 C5646 1.524 . S
C5643 C5635 1.503 . S
C5643 C5642 1.370 . S
C5643 C5644 1.403 . S
C5644 C5643 1.403 . S
C5644 C5645 1.404 . S
C5644 C5647 1.539 . S
C5645 C5641 1.408 . S
C5645 C5644 1.404 . S
C5645 H5657 0.930 . S
C5646 C5642 1.524 . S
C5646 H5658 0.956 . S
C5646 H5659 0.961 . S
C5646 H5660 0.961 . S
C5647 C5644 1.539 . S
C5647 H5661 0.958 . S
C5647 H5662 0.961 . S
C5647 H5663 0.960 . S
H5648 C5632 0.931 . S
H5649 C5637 0.929 . S
H5650 C5638 0.960 . S
H5651 C5638 0.962 . S
H5652 C5638 0.960 . S
H5653 C5639 0.961 . S
H5654 C5639 0.961 . S
H5655 C5639 0.961 . S
H5656 C5640 0.931 . S
H5657 C5645 0.930 . S
H5658 C5646 0.956 . S
H5659 C5646 0.961 . S
H5660 C5646 0.961 . S
H5661 C5647 0.958 . S
H5662 C5647 0.961 . S
H5663 C5647 0.960 . S
C5664 C5665 1.391 . S
C5664 C5666 1.394 . S
C5664 H5680 0.931 . S
C5665 C5664 1.391 . S
C5665 C5669 1.376 . S
C5666 C5664 1.394 . S
C5666 C5667 1.369 . S
C5666 C5670 1.531 . S
C5667 C5666 1.369 . S
C5667 C5668 1.410 . S
C5667 C5675 1.503 . S
C5668 C5667 1.410 . S
C5668 C5669 1.392 . S
C5668 C5671 1.511 . S
C5669 C5665 1.376 . S
C5669 C5668 1.392 . S
C5669 H5681 0.929 . S
C5670 C5666 1.531 . S
C5670 H5682 0.960 . S
C5670 H5683 0.962 . S
C5670 H5684 0.960 . S
C5671 C5668 1.511 . S
C5671 H5685 0.961 . S
C5671 H5686 0.961 . S
C5671 H5687 0.961 . S
C5672 C5673 1.370 . S
C5672 C5674 1.363 . S
C5672 H5688 0.931 . S
C5673 C5672 1.370 . S
C5673 C5677 1.408 . S
C5674 C5672 1.363 . S
C5674 C5675 1.370 . S
C5674 C5678 1.524 . S
C5675 C5667 1.503 . S
C5675 C5674 1.370 . S
C5675 C5676 1.403 . S
C5676 C5675 1.403 . S
C5676 C5677 1.404 . S
C5676 C5679 1.539 1_554 S
C5677 C5673 1.408 . S
C5677 C5676 1.404 . S
C5677 H5689 0.930 . S
C5678 C5674 1.524 . S
C5678 H5690 0.956 . S
C5678 H5691 0.961 . S
C5678 H5692 0.961 . S
C5679 C5676 1.539 1_556 S
C5679 H5693 0.958 . S
C5679 H5694 0.961 . S
C5679 H5695 0.959 1_556 S
H5680 C5664 0.931 . S
H5681 C5669 0.929 . S
H5682 C5670 0.960 . S
H5683 C5670 0.962 . S
H5684 C5670 0.960 . S
H5685 C5671 0.961 . S
H5686 C5671 0.961 . S
H5687 C5671 0.961 . S
H5688 C5672 0.931 . S
H5689 C5677 0.930 . S
H5690 C5678 0.956 . S
H5691 C5678 0.961 . S
H5692 C5678 0.961 . S
H5693 C5679 0.958 . S
H5694 C5679 0.961 . S
H5695 C5679 0.959 1_554 S
C5696 C5697 1.391 . S
C5696 C5698 1.394 . S
C5696 H5712 0.931 . S
C5697 C5696 1.391 . S
C5697 C5701 1.376 . S
C5698 C5696 1.394 . S
C5698 C5699 1.369 . S
C5698 C5702 1.531 . S
C5699 C5698 1.369 . S
C5699 C5700 1.410 . S
C5699 C5707 1.503 . S
C5700 C5699 1.410 . S
C5700 C5701 1.392 . S
C5700 C5703 1.511 . S
C5701 C5697 1.376 . S
C5701 C5700 1.392 . S
C5701 H5713 0.929 . S
C5702 C5698 1.531 . S
C5702 H5714 0.960 . S
C5702 H5715 0.962 . S
C5702 H5716 0.960 . S
C5703 C5700 1.511 . S
C5703 H5717 0.961 . S
C5703 H5718 0.961 . S
C5703 H5719 0.961 . S
C5704 C5705 1.370 . S
C5704 C5706 1.363 . S
C5704 H5720 0.931 . S
C5705 C5704 1.370 . S
C5705 C5709 1.408 . S
C5706 C5704 1.363 . S
C5706 C5707 1.370 . S
C5706 C5710 1.524 . S
C5707 C5699 1.503 . S
C5707 C5706 1.370 . S
C5707 C5708 1.403 . S
C5708 C5707 1.403 . S
C5708 C5709 1.404 . S
C5708 C5711 1.539 . S
C5709 C5705 1.408 . S
C5709 C5708 1.404 . S
C5709 H5721 0.930 . S
C5710 C5706 1.524 . S
C5710 H5722 0.956 . S
C5710 H5723 0.961 . S
C5710 H5724 0.961 . S
C5711 C5708 1.539 . S
C5711 H5725 0.958 . S
C5711 H5726 0.961 . S
C5711 H5727 0.960 . S
H5712 C5696 0.931 . S
H5713 C5701 0.929 . S
H5714 C5702 0.960 . S
H5715 C5702 0.962 . S
H5716 C5702 0.960 . S
H5717 C5703 0.961 . S
H5718 C5703 0.961 . S
H5719 C5703 0.961 . S
H5720 C5704 0.931 . S
H5721 C5709 0.930 . S
H5722 C5710 0.956 . S
H5723 C5710 0.961 . S
H5724 C5710 0.961 . S
H5725 C5711 0.958 . S
H5726 C5711 0.961 . S
H5727 C5711 0.960 . S
C5728 C5729 1.391 . S
C5728 C5730 1.400 . S
C5728 H5744 0.931 1_554 S
C5729 C5728 1.391 . S
C5729 C5733 1.376 . S
C5730 C5728 1.400 . S
C5730 C5731 1.402 . S
C5730 C5734 1.492 1_554 S
C5731 C5730 1.402 . S
C5731 C5732 1.410 . S
C5731 C5739 1.503 . S
C5732 C5731 1.410 . S
C5732 C5733 1.392 . S
C5732 C5735 1.511 . S
C5733 C5729 1.376 . S
C5733 C5732 1.392 . S
C5733 H5745 0.929 . S
C5734 C5730 1.492 1_556 S
C5734 H5746 0.960 . S
C5734 H5747 0.962 . S
C5734 H5748 0.960 . S
C5735 C5732 1.511 . S
C5735 H5749 0.961 . S
C5735 H5750 0.961 . S
C5735 H5751 0.961 . S
C5736 C5737 1.370 . S
C5736 C5738 1.363 . S
C5736 H5752 0.931 . S
C5737 C5736 1.370 . S
C5737 C5741 1.408 1_554 S
C5738 C5736 1.363 . S
C5738 C5739 1.370 . S
C5738 C5742 1.524 . S
C5739 C5731 1.503 . S
C5739 C5738 1.370 . S
C5739 C5740 1.394 1_554 S
C5740 C5739 1.394 1_556 S
C5740 C5741 1.407 . S
C5740 C5743 1.544 . S
C5741 C5737 1.408 1_556 S
C5741 C5740 1.407 . S
C5741 H5753 0.930 . S
C5742 C5738 1.524 . S
C5742 H5754 0.956 . S
C5742 H5755 0.961 . S
C5742 H5756 0.961 . S
C5743 C5740 1.544 . S
C5743 H5757 0.958 . S
C5743 H5758 0.961 . S
C5743 H5759 0.960 1_556 S
H5744 C5728 0.931 1_556 S
H5745 C5733 0.929 . S
H5746 C5734 0.960 . S
H5747 C5734 0.962 . S
H5748 C5734 0.960 . S
H5749 C5735 0.961 . S
H5750 C5735 0.961 . S
H5751 C5735 0.961 . S
H5752 C5736 0.931 . S
H5753 C5741 0.930 . S
H5754 C5742 0.956 . S
H5755 C5742 0.961 . S
H5756 C5742 0.961 . S
H5757 C5743 0.958 . S
H5758 C5743 0.961 . S
H5759 C5743 0.960 1_554 S
C5760 C5761 1.391 . S
C5760 C5762 1.394 . S
C5760 H5776 0.931 . S
C5761 C5760 1.391 . S
C5761 C5765 1.376 . S
C5762 C5760 1.394 . S
C5762 C5763 1.369 . S
C5762 C5766 1.531 . S
C5763 C5762 1.369 . S
C5763 C5764 1.410 . S
C5763 C5771 1.503 . S
C5764 C5763 1.410 . S
C5764 C5765 1.392 . S
C5764 C5767 1.511 . S
C5765 C5761 1.376 . S
C5765 C5764 1.392 . S
C5765 H5777 0.929 . S
C5766 C5762 1.531 . S
C5766 H5778 0.960 . S
C5766 H5779 0.962 . S
C5766 H5780 0.960 . S
C5767 C5764 1.511 . S
C5767 H5781 0.961 . S
C5767 H5782 0.961 . S
C5767 H5783 0.961 . S
C5768 C5769 1.370 . S
C5768 C5770 1.363 . S
C5768 H5784 0.931 . S
C5769 C5768 1.370 . S
C5769 C5773 1.408 . S
C5770 C5768 1.363 . S
C5770 C5771 1.370 . S
C5770 C5774 1.524 . S
C5771 C5763 1.503 . S
C5771 C5770 1.370 . S
C5771 C5772 1.403 . S
C5772 C5771 1.403 . S
C5772 C5773 1.404 . S
C5772 C5775 1.539 . S
C5773 C5769 1.408 . S
C5773 C5772 1.404 . S
C5773 H5785 0.930 . S
C5774 C5770 1.524 . S
C5774 H5786 0.956 . S
C5774 H5787 0.961 . S
C5774 H5788 0.961 . S
C5775 C5772 1.539 . S
C5775 H5789 0.958 . S
C5775 H5790 0.961 . S
C5775 H5791 0.960 . S
H5776 C5760 0.931 . S
H5777 C5765 0.929 . S
H5778 C5766 0.960 . S
H5779 C5766 0.962 . S
H5780 C5766 0.960 . S
H5781 C5767 0.961 . S
H5782 C5767 0.961 . S
H5783 C5767 0.961 . S
H5784 C5768 0.931 . S
H5785 C5773 0.930 . S
H5786 C5774 0.956 . S
H5787 C5774 0.961 . S
H5788 C5774 0.961 . S
H5789 C5775 0.958 . S
H5790 C5775 0.961 . S
H5791 C5775 0.960 . S
C5792 C5793 1.391 . S
C5792 C5794 1.394 . S
C5792 H5808 0.931 . S
C5793 C5792 1.391 . S
C5793 C5797 1.376 . S
C5794 C5792 1.394 . S
C5794 C5795 1.369 . S
C5794 C5798 1.531 . S
C5795 C5794 1.369 . S
C5795 C5796 1.410 . S
C5795 C5803 1.503 . S
C5796 C5795 1.410 . S
C5796 C5797 1.392 . S
C5796 C5799 1.511 . S
C5797 C5793 1.376 . S
C5797 C5796 1.392 . S
C5797 H5809 0.929 . S
C5798 C5794 1.531 . S
C5798 H5810 0.960 . S
C5798 H5811 0.962 . S
C5798 H5812 0.960 . S
C5799 C5796 1.511 . S
C5799 H5813 0.961 . S
C5799 H5814 0.961 . S
C5799 H5815 0.961 . S
C5800 C5801 1.370 . S
C5800 C5802 1.363 . S
C5800 H5816 0.931 . S
C5801 C5800 1.370 . S
C5801 C5805 1.408 . S
C5802 C5800 1.363 . S
C5802 C5803 1.370 . S
C5802 C5806 1.524 . S
C5803 C5795 1.503 . S
C5803 C5802 1.370 . S
C5803 C5804 1.403 . S
C5804 C5803 1.403 . S
C5804 C5805 1.404 . S
C5804 C5807 1.539 . S
C5805 C5801 1.408 . S
C5805 C5804 1.404 . S
C5805 H5817 0.930 . S
C5806 C5802 1.524 . S
C5806 H5818 0.956 . S
C5806 H5819 0.961 . S
C5806 H5820 0.961 . S
C5807 C5804 1.539 . S
C5807 H5821 0.958 . S
C5807 H5822 0.961 . S
C5807 H5823 0.960 . S
H5808 C5792 0.931 . S
H5809 C5797 0.929 . S
H5810 C5798 0.960 . S
H5811 C5798 0.962 . S
H5812 C5798 0.960 . S
H5813 C5799 0.961 . S
H5814 C5799 0.961 . S
H5815 C5799 0.961 . S
H5816 C5800 0.931 . S
H5817 C5805 0.930 . S
H5818 C5806 0.956 . S
H5819 C5806 0.961 . S
H5820 C5806 0.961 . S
H5821 C5807 0.958 . S
H5822 C5807 0.961 . S
H5823 C5807 0.960 . S
C2753 C665 2.219 . S
C2761 C2122 2.220 . S
C2785 C381 1.983 . S
C2793 C2170 1.982 . S
C2817 C460 1.252 . S
C2825 C2202 1.260 . S
C2857 C2247 1.540 . S
C2849 C585 1.550 . S
C2881 C108 0.867 . S
C2889 C2287 0.890 . S
C2921 C2322 0.847 . S
C2913 C196 0.814 . S
C2953 C2361 1.079 . S
C2945 C313 1.079 . S
C2977 C49 1.160 . S
C2985 C2398 1.185 . S
C3017 C2130 1.947 . S
C3009 C1457 1.956 . S
C3041 C1545 0.646 . S
C3049 C2167 0.512 . S
C3081 C2210 2.447 . S
C3073 C1721 2.497 . S
C3113 C2242 1.118 . S
C3105 C1113 1.124 . S
C3137 C1428 1.164 . S
C3145 C2282 1.217 . S
C3177 C2330 0.688 . S
C3169 C1516 0.702 . S
C3209 C2371 1.759 . S
C3201 C1692 1.855 . S
C3241 C2401 1.952 . S
C3233 C1085 1.970 . S
C3273 C2127 1.158 . S
C3265 C988 1.153 1_554 S
C3297 C1817 2.147 . S
C3305 C2450 2.103 . S
C3337 C2487 1.119 . S
C3329 C2081 1.149 . S
C3369 C2518 0.289 . S
C3361 C1993 0.286 . S
C3393 C761 2.786 . S
C3401 C2411 2.747 . S
C3425 C821 1.342 . S
C3433 C2207 1.353 . S
C3457 C2053 1.737 . S
C3465 C2570 1.716 . S
C3497 C2602 1.807 . S
C3489 C1868 1.761 . S
C3529 C2131 2.227 . S
C3521 C372 2.241 . S
C3561 C2601 1.972 . S
C3553 C645 1.979 . S
C3585 C577 1.188 . S
C3593 C2211 1.247 . S
C3617 C497 1.571 . S
C3625 C2558 1.521 . S
C3657 C2278 0.869 1_655 S
C3649 C57 0.896 . S
C3681 C293 0.786 . S
C3689 C2491 0.838 . S
C3721 C2370 1.059 . S
C3713 C205 1.082 . S
C3753 C2647 1.181 . S
C3745 C145 1.177 . S
C3785 C2121 1.942 . S
C3777 C909 1.949 . S
C3817 C2598 0.575 . S
C3809 C1956 0.443 . S
C3841 C724 2.472 . S
C3849 C2201 2.447 . S
C3873 C1780 1.052 . S
C3881 C2571 1.104 . S
C3905 C937 1.203 . S
C3913 C2291 1.220 . S
C3945 C2481 0.709 . S
C3937 C1985 0.606 . S
C3969 C753 1.850 . S
C3977 C2362 1.751 . S
C4001 C1809 1.946 . S
C4009 C2650 1.954 . S
C4033 C1173 1.212 . S
C4041 C2118 1.139 . S
C4065 C1105 2.126 . S
C4073 C2441 2.110 . S
C4097 C1633 1.144 . S
C4105 C2318 1.116 . S
C4129 C1553 0.288 . S
C4137 C2527 0.307 . S
C4169 C2642 2.742 . S
C4161 C1729 2.778 . S
C4193 C1340 1.345 . S
C4201 C2198 1.350 . S
C4233 C2241 1.721 . S
C4225 C1604 1.714 . S
C4265 C2171 1.804 . S
C4257 C1252 1.782 . S
C4289 C489 2.239 . S
C4297 C2682 2.230 . S
C4329 C2610 1.984 . S
C4321 C557 1.984 . S
C4353 C636 1.254 . S
C4361 C2722 1.261 . S
C4385 C409 1.573 . S
C4393 C2567 1.524 . S
C4417 C284 0.868 . S
C4425 C2447 0.890 . S
C4457 C2482 0.854 . S
C4449 C20 0.884 . S
C4489 C2521 1.065 . S
C4481 C137 1.080 . S
C4521 C2638 1.176 . S
C4513 C225 1.162 . S
C4553 C2690 1.944 . S
C4545 C1641 1.950 . S
C4577 C1193 0.419 . S
C4585 C2607 0.604 . S
C4617 C2730 2.451 . S
C4609 C1289 2.484 . S
C4649 C2562 1.111 . S
C4641 C1377 1.062 . S
C4681 C2442 1.223 . S
C4673 C1613 1.207 . S
C4705 C1164 0.759 . S
C4713 C2490 0.657 . S
C4745 C2531 1.769 . S
C4737 C1261 1.850 . S
C4769 C1349 1.959 . S
C4777 C2641 1.944 . S
C4809 C2687 1.169 . S
C4801 C1965 1.147 . S
C4833 C849 2.148 . S
C4841 C2290 2.107 . S
C4873 C2327 1.138 . S
C4865 C929 1.118 . S
C4905 C2358 0.345 . S
C4897 C1017 0.198 . S
C4937 C2651 2.737 . S
C4929 C1897 2.782 . S
C4961 C1789 1.370 . S
C4969 C2727 1.333 . S
C5001 C2250 1.729 . S
C4993 C900 1.720 . S
C5033 C2162 1.813 . S
C5025 C733 1.757 . S
C5057 C548 2.228 . S
C5065 C2691 2.221 . S
C5097 C2161 1.980 . S
C5089 C469 1.976 . S
C5121 C401 1.184 . S
C5129 C2731 1.249 . S
C5153 C673 1.547 . S
C5161 C2238 1.542 . S
C5185 C233 0.888 . S
C5193 C2438 0.885 . S
C5225 C2331 0.845 . S
C5217 C117 0.879 . S
C5249 C29 1.074 . S
C5257 C2530 1.078 . S
C5281 C321 1.177 . S
C5289 C2407 1.181 . S
C5321 C2681 1.934 . S
C5313 C2044 1.960 . S
C5345 C997 0.555 . S
C5353 C2158 0.577 . S
C5385 C2721 2.453 . S
C5377 C1877 2.464 . S
C5409 C812 1.072 . S
C5417 C2251 1.107 . S
C5441 C2073 1.208 . S
C5449 C2451 1.220 . S
C5481 C2321 0.718 . S
C5473 C1025 0.615 . S
C5505 C1905 1.851 . S
C5513 C2522 1.752 1_655 S
C5545 C2410 1.942 . S
C5537 C841 1.966 . S
C5577 C2678 1.164 . S
C5569 C1525 1.162 . S
C5609 C2281 2.105 1_565 S
C5601 C1369 2.144 . S
C5633 C1465 1.119 . S
C5641 C2478 1.134 . S
C5673 C2367 0.362 . S
C5665 C1201 0.243 . S
C5697 C1281 2.777 . S
C5705 C2402 2.742 . S
C5729 C1076 1.344 . S
C5737 C2718 1.345 . S
C5769 C2561 1.718 . S
C5761 C1437 1.740 . S
C5801 C2611 1.803 . S
C5793 C1701 1.753 . S
