# Generated by pormake.
# Topology ftw, (4,12)-cn, num edge types: 1
# Building blocks:
#     Node 0, Type 0, BuildingBlock: ESEHIV_clean_sbu_0, # of connection points: 4
#     Node 1, Type 0, BuildingBlock: ESEHIV_clean_sbu_0, # of connection points: 4
#     Node 2, Type 0, BuildingBlock: ESEHIV_clean_sbu_0, # of connection points: 4
#     Node 3, Type 1, BuildingBlock: QEWDON_clean_sbu_0, # of connection points: 12
#     Edge 4, Type (0, 1), BuildingBlock: FUNLAD_clean_linker_1, # of connection points: 2
#     Edge 5, Type (0, 1), BuildingBlock: FUNLAD_clean_linker_1, # of connection points: 2
#     Edge 6, Type (0, 1), BuildingBlock: FUNLAD_clean_linker_1, # of connection points: 2
#     Edge 7, Type (0, 1), BuildingBlock: FUNLAD_clean_linker_1, # of connection points: 2
#     Edge 8, Type (0, 1), BuildingBlock: FUNLAD_clean_linker_1, # of connection points: 2
#     Edge 9, Type (0, 1), BuildingBlock: FUNLAD_clean_linker_1, # of connection points: 2
#     Edge 10, Type (0, 1), BuildingBlock: FUNLAD_clean_linker_1, # of connection points: 2
#     Edge 11, Type (0, 1), BuildingBlock: FUNLAD_clean_linker_1, # of connection points: 2
#     Edge 12, Type (0, 1), BuildingBlock: FUNLAD_clean_linker_1, # of connection points: 2
#     Edge 13, Type (0, 1), BuildingBlock: FUNLAD_clean_linker_1, # of connection points: 2
#     Edge 14, Type (0, 1), BuildingBlock: FUNLAD_clean_linker_1, # of connection points: 2
#     Edge 15, Type (0, 1), BuildingBlock: FUNLAD_clean_linker_1, # of connection points: 2
# Relax obj value: 0.057
# Max RMSD: 0.167
# Mean RMSD: 0.145
data_MOF--net-ftw--node1-ESEHIV_clean_sbu_0--node2-QEWDON_clean_sbu_0--edge1-FUNLAD_clean_linker_1
_symmetry_space_group_name_H-M    P1
_symmetry_Int_Tables_number       1
_symmetry_cell_setting            triclinic
loop_
_symmetry_equiv_pos_as_xyz
'x, y, z'
_cell_length_a     26.745284
_cell_length_b     25.680914
_cell_length_c     25.149448
_cell_angle_alpha  87.079736
_cell_angle_beta   87.070883
_cell_angle_gamma 93.711211
loop_
_atom_site_label
_atom_site_type_symbol
_atom_site_fract_x
_atom_site_fract_y
_atom_site_fract_z
_atom_type_partial_charge
Cu0 Cu 0.02205 0.50288 0.49399 0.0
N1 N 0.99123 0.45873 0.44642 0.0
N2 N 0.98058 0.4017 0.38299 0.0
C3 C 0.01371 0.42587 0.41401 0.0
C4 C 0.93595 0.42053 0.39591 0.0
C5 C 0.94259 0.4557 0.43494 0.0
O6 O 0.0686 0.46585 0.53695 0.0
C7 C 0.01633 0.59468 0.43513 0.0
O8 O 0.96909 0.58295 0.45029 0.0
H9 H 0.0535 0.42038 0.41303 0.0
H10 H 0.91409 0.4781 0.45312 0.0
N11 N 0.97631 0.52357 0.54622 0.0
N12 N 0.95316 0.56074 0.62134 0.0
C13 C 0.98654 0.56227 0.57902 0.0
C14 C 0.93518 0.4964 0.56864 0.0
C15 C 0.92082 0.51934 0.615 0.0
C16 C 0.05563 0.41861 0.55231 0.0
O17 O 0.01815 0.39437 0.52986 0.0
H18 H 0.02053 0.5877 0.57444 0.0
H19 H 0.91934 0.46005 0.55479 0.0
O20 O 0.04947 0.56498 0.4514 0.0
H21 H 0.90101 0.4097 0.37813 0.0
H22 H 0.891 0.5047 0.64368 0.0
Cu23 Cu 0.5148 0.02976 0.49891 0.0
N24 N 0.54917 0.07333 0.54461 0.0
N25 N 0.60183 0.09478 0.60774 0.0
C26 C 0.59157 0.06224 0.56846 0.0
C27 C 0.5649 0.12812 0.60781 0.0
C28 C 0.53239 0.11473 0.56903 0.0
O29 O 0.56418 0.99798 0.45357 0.0
C30 C 0.47542 0.96872 0.59141 0.0
O31 O 0.52035 0.97636 0.60949 0.0
H32 H 0.61191 0.02837 0.55975 0.0
H33 H 0.49725 0.1317 0.56167 0.0
N34 N 0.47424 0.06638 0.45371 0.0
N35 N 0.41469 0.08061 0.39627 0.0
C36 C 0.43648 0.04465 0.42688 0.0
C37 C 0.47649 0.11774 0.43965 0.0
C38 C 0.43977 0.12658 0.40425 0.0
C39 C 0.5943 0.02992 0.42523 0.0
O40 O 0.59067 0.08033 0.42957 0.0
H41 H 0.42569 0.00324 0.42967 0.0
H42 H 0.50321 0.1466 0.45375 0.0
O43 O 0.46826 0.98219 0.54315 0.0
H44 H 0.56003 0.15796 0.63618 0.0
H45 H 0.43216 0.16394 0.38554 0.0
Cu46 Cu 0.45495 0.48495 0.13144 0.0
N47 N 0.44557 0.52255 0.19222 0.0
N48 N 0.40791 0.57968 0.24203 0.0
C49 C 0.4016 0.5402 0.20911 0.0
C50 C 0.45781 0.58662 0.24667 0.0
C51 C 0.48097 0.55089 0.21642 0.0
O52 O 0.39063 0.46825 0.10263 0.0
C53 C 0.54589 0.53186 0.08664 0.0
O54 O 0.56403 0.50649 0.12724 0.0
H55 H 0.36642 0.52946 0.19183 0.0
H56 H 0.5209 0.54989 0.20801 0.0
N57 N 0.48268 0.42193 0.14785 0.0
N58 N 0.52841 0.35313 0.13928 0.0
C59 C 0.51643 0.39905 0.11701 0.0
C60 C 0.47249 0.38905 0.19101 0.0
C61 C 0.50092 0.34636 0.18593 0.0
C62 C 0.36105 0.50079 0.08432 0.0
O63 O 0.37413 0.55104 0.08201 0.0
H64 H 0.53231 0.41592 0.07904 0.0
H65 H 0.44653 0.39589 0.22392 0.0
O66 O 0.49898 0.52745 0.0802 0.0
H67 H 0.47641 0.61883 0.26571 0.0
H68 H 0.5023 0.31391 0.21488 0.0
Zn69 Zn 0.14848 0.09216 0.94885 0.0
Zn70 Zn 0.09096 0.09744 0.06303 0.0
O71 O 0.09963 0.05064 1.00208 0.0
H72 H 0.07526 0.02342 0.99334 0.0
C73 C 0.00277 0.18886 0.90303 0.0
O74 O 0.02146 0.14462 0.91744 0.0
Zn75 Zn 0.90754 0.87473 0.07989 0.0
Zn76 Zn 0.88838 0.89806 0.95558 0.0
O77 O 0.93541 0.91874 1.01494 0.0
H78 H 0.96723 0.93903 1.01095 0.0
Zn79 Zn 0.92946 0.15696 0.99285 0.0
O80 O 0.94633 0.08058 1.00352 0.0
Zn81 Zn 0.90923 0.06776 0.07449 0.0
H82 H 0.97623 0.06478 0.99092 0.0
Zn83 Zn 0.1059 0.83461 1.01137 0.0
O84 O 0.1171 0.91374 1.00662 0.0
H85 H 0.10703 0.93663 0.97801 0.0
Zn86 Zn 0.10107 0.9162 0.08528 0.0
C87 C 0.05125 0.81447 0.91464 0.0
O88 O 0.04267 0.86396 0.91808 0.0
O89 O 0.16101 0.16969 0.96507 0.0
O90 O 0.11516 0.17273 0.04138 0.0
O91 O 0.84611 0.82849 0.97279 0.0
O92 O 0.86203 0.81414 0.05817 0.0
O93 O 0.85662 0.16984 1.02014 0.0
O94 O 0.84169 0.09681 0.07159 0.0
C95 C 0.13547 0.02296 0.13155 0.0
O96 O 0.14155 0.79999 0.07314 0.0
O97 O 0.14392 0.86692 0.12616 0.0
O98 O 0.85555 0.95129 0.90361 0.0
C99 C 0.14309 0.19509 1.00302 0.0
O100 O 0.1968 0.05725 0.89513 0.0
C101 C 0.86759 0.96616 0.12535 0.0
O102 O 0.96413 0.2031 0.92861 0.0
C103 C 0.84044 0.80081 1.01643 0.0
O104 O 0.0772 0.79253 0.94926 0.0
C105 C 0.99468 0.11403 0.12362 0.0
O106 O 0.13136 0.07176 0.12359 0.0
O107 O 0.11165 0.99226 0.10208 0.0
C108 C 0.82711 0.13877 0.05029 0.0
O109 O 0.86462 0.91657 0.12726 0.0
O110 O 0.89942 0.99057 0.09221 0.0
C111 C 0.00611 0.85737 0.12889 0.0
O112 O 0.94725 0.10619 0.12922 0.0
O113 O 0.01765 0.09291 0.08576 0.0
C114 C 0.15471 0.82069 0.11575 0.0
O115 O 0.02695 0.8928 0.09638 0.0
O116 O 0.95945 0.84496 0.12683 0.0
C117 C 0.86965 0.95466 0.85436 0.0
O118 O 0.90757 0.92848 0.83804 0.0
C119 C 0.22416 0.02097 0.90974 0.0
O120 O 0.22162 0.0038 0.95993 0.0
H121 H 0.95754 0.35261 0.31937 0.0
C122 C 0.9887 0.3639 0.34348 0.0
H123 H 0.06294 0.34837 0.36173 0.0
H124 H 0.02094 0.11904 0.27794 0.0
H125 H 0.03235 0.09968 0.3721 0.0
H126 H 0.04575 0.17083 0.43326 0.0
H127 H 0.04778 0.26175 0.40082 0.0
C128 C 0.03185 0.34016 0.33671 0.0
C129 C 0.03532 0.29779 0.29842 0.0
C130 C 0.03547 0.24503 0.31787 0.0
C131 C 0.02743 0.20396 0.28272 0.0
C132 C 0.02637 0.15157 0.30326 0.0
C133 C 0.033 0.13998 0.35706 0.0
C134 C 0.04062 0.18007 0.39149 0.0
C135 C 0.04169 0.23207 0.37239 0.0
H136 H 0.06168 0.15897 0.1509 0.0
C137 C 0.02158 0.15007 0.15829 0.0
H138 H 0.95617 0.16535 0.20394 0.0
H139 H 0.04724 0.39396 0.24633 0.0
H140 H 0.04076 0.41317 0.15127 0.0
H141 H 0.02314 0.34226 0.09083 0.0
H142 H 0.01286 0.25176 0.12474 0.0
C143 C 0.99619 0.17455 0.19613 0.0
C144 C 0.01938 0.21574 0.22834 0.0
C145 C 0.02457 0.26838 0.20785 0.0
C146 C 0.03328 0.30942 0.24289 0.0
C147 C 0.03921 0.36159 0.22147 0.0
C148 C 0.03578 0.37306 0.16707 0.0
C149 C 0.02588 0.33312 0.13304 0.0
C150 C 0.02 0.28133 0.15302 0.0
H151 H 0.63368 0.96933 0.38306 0.0
C152 C 0.63195 0.01115 0.38679 0.0
H153 H 0.66059 0.08671 0.35843 0.0
H154 H 0.84249 0.93966 0.27647 0.0
H155 H 0.85544 0.92224 0.37028 0.0
H156 H 0.79814 0.95392 0.43962 0.0
H157 H 0.72735 0.0028 0.41562 0.0
C158 C 0.66321 0.04484 0.35594 0.0
C159 C 0.69939 0.02724 0.3145 0.0
C160 C 0.74105 -0.00067 0.32927 0.0
C161 C 0.77455 0.98173 0.28924 0.0
C162 C 0.81569 0.95368 0.30516 0.0
C163 C 0.82372 0.94362 0.35889 0.0
C164 C 0.79144 0.96141 0.39792 0.0
C165 C 0.75068 0.98913 0.38355 0.0
H166 H 0.83947 0.03636 0.16237 0.0
C167 C 0.83405 0.99417 0.16119 0.0
H168 H 0.7938 0.92533 0.19347 0.0
H169 H 0.62587 0.08364 0.2725 0.0
H170 H 0.61384 0.10237 0.17879 0.0
H171 H 0.67058 0.07007 0.10951 0.0
H172 H 0.74102 0.02029 0.13344 0.0
C173 C 0.79822 0.9677 0.19348 0.0
C174 C 0.7669 0.99266 0.23448 0.0
C175 C 0.72633 0.02227 0.21973 0.0
C176 C 0.69286 0.03999 0.2598 0.0
C177 C 0.65242 0.06912 0.24389 0.0
C178 C 0.64492 0.08001 0.19019 0.0
C179 C 0.67699 0.06194 0.15118 0.0
C180 C 0.71732 0.03345 0.16549 0.0
H181 H 0.99639 0.66346 0.38839 0.0
C182 C 0.02764 0.63973 0.39665 0.0
H183 H 0.1019 0.62482 0.37253 0.0
H184 H 0.05437 0.71261 0.13945 0.0
H185 H 0.07885 0.62501 0.12372 0.0
H186 H 0.10238 0.56664 0.19799 0.0
H187 H 0.10121 0.59528 0.28845 0.0
C188 C 0.07097 0.64966 0.36731 0.0
C189 C 0.07277 0.68943 0.32143 0.0
C190 C 0.07572 0.67284 0.26856 0.0
C191 C 0.06176 0.70638 0.22576 0.0
C192 C 0.06363 0.6883 0.1735 0.0
C193 C 0.07783 0.63825 0.16391 0.0
C194 C 0.09111 0.6054 0.20573 0.0
C195 C 0.09019 0.62229 0.2575 0.0
H196 H 0.06897 0.85029 0.18249 0.0
C197 C 0.03491 0.83083 0.16976 0.0
H198 H 0.98432 0.7644 0.18018 0.0
H199 H 0.07822 0.73801 0.41478 0.0
H200 H 0.05481 0.82609 0.43109 0.0
H201 H 0.02499 0.88246 0.35856 0.0
H202 H 0.01931 0.85191 0.26949 0.0
C203 C 0.01793 0.78457 0.19373 0.0
C204 C 0.04489 0.75638 0.23581 0.0
C205 C 0.04729 0.77507 0.28787 0.0
C206 C 0.06241 0.74184 0.33036 0.0
C207 C 0.06541 0.76137 0.38175 0.0
C208 C 0.05236 0.81177 0.3915 0.0
C209 C 0.03572 0.84355 0.35061 0.0
C210 C 0.03288 0.82555 0.29942 0.0
H211 H 0.36218 0.10807 0.33932 0.0
C212 C 0.37364 0.07376 0.36148 0.0
H213 H 0.35985 0.99198 0.37585 0.0
H214 H 0.15344 0.08035 0.27009 0.0
H215 H 0.1422 0.12474 0.35229 0.0
H216 H 0.20469 0.12076 0.4209 0.0
H217 H 0.27928 0.07308 0.40736 0.0
C218 C 0.34868 0.02722 0.35543 0.0
C219 C 0.30666 0.0224 0.31836 0.0
C220 C 0.26247 0.04909 0.32753 0.0
C221 C 0.22595 0.05056 0.28833 0.0
C222 C 0.18265 0.07839 0.29823 0.0
C223 C 0.17549 0.1037 0.34543 0.0
C224 C 0.21074 0.10154 0.38401 0.0
C225 C 0.25364 0.07443 0.37551 0.0
H226 H 0.16632 0.96266 0.18536 0.0
C227 C 0.16861 0.00391 0.1729 0.0
H228 H 0.20227 0.07907 0.18251 0.0
H229 H 0.38226 0.95984 0.29262 0.0
H230 H 0.39106 0.91104 0.213 0.0
H231 H 0.32836 0.91431 0.14456 0.0
H232 H 0.25654 0.96624 0.15521 0.0
C233 C 0.20112 0.03784 0.19501 0.0
C234 C 0.23301 0.02464 0.24026 0.0
C235 C 0.27488 0.99389 0.2333 0.0
C236 C 0.3115 0.99246 0.27265 0.0
C237 C 0.35337 0.96229 0.26421 0.0
C238 C 0.35897 0.93419 0.21859 0.0
C239 C 0.32363 0.93599 0.18008 0.0
C240 C 0.28231 0.96581 0.18686 0.0
H241 H 0.93827 0.57221 0.70597 0.0
C242 C 0.95702 0.58918 0.66914 0.0
H243 H 0.00364 0.6519 0.63333 0.0
H244 H 0.94013 0.73461 0.87468 0.0
H245 H 0.85389 0.72793 0.84899 0.0
H246 H 0.83233 0.69197 0.76335 0.0
H247 H 0.89673 0.66161 0.70335 0.0
C248 C 0.9848 0.63472 0.66992 0.0
C249 C 0.99696 0.65919 0.72075 0.0
C250 C 0.95904 0.67889 0.75428 0.0
C251 C 0.9718 0.70206 0.80253 0.0
C252 C 0.93286 0.71868 0.83664 0.0
C253 C 0.88312 0.71474 0.82254 0.0
C254 C 0.87097 0.69433 0.7744 0.0
C255 C 0.90831 0.67669 0.74047 0.0
H256 H 0.01479 0.80798 0.83828 0.0
C257 C 0.03242 0.7859 0.86936 0.0
H258 H 0.05587 0.7123 0.89497 0.0
H259 H 0.07874 0.62341 0.66721 0.0
H260 H 0.16513 0.63298 0.69154 0.0
H261 H 0.18768 0.67753 0.77241 0.0
H262 H 0.12387 0.71227 0.82973 0.0
C263 C 0.0372 0.73449 0.86481 0.0
C264 C 0.02274 0.70782 0.81593 0.0
C265 C 0.06058 0.68823 0.78238 0.0
C266 C 0.04768 0.66362 0.73506 0.0
C267 C 0.08632 0.64348 0.70302 0.0
C268 C 0.13616 0.64851 0.7166 0.0
C269 C 0.14884 0.67349 0.76217 0.0
C270 C 0.11172 0.69318 0.7948 0.0
H271 H 0.39417 0.95789 0.61288 0.0
C272 C 0.4311 0.95923 0.62915 0.0
H273 H 0.47168 0.96758 0.69828 0.0
H274 H 0.31568 0.10534 0.80838 0.0
H275 H 0.38082 0.17103 0.77629 0.0
H276 H 0.45115 0.14853 0.71634 0.0
H277 H 0.4569 0.06022 0.68835 0.0
C278 C 0.43489 0.96304 0.68197 0.0
C279 C 0.39107 0.97586 0.71679 0.0
C280 C 0.38807 0.02787 0.73261 0.0
C281 C 0.34711 0.04103 0.76654 0.0
C282 C 0.34552 0.09321 0.7821 0.0
C283 C 0.38277 0.13137 0.76408 0.0
C284 C 0.42239 0.11869 0.7304 0.0
C285 C 0.42524 0.06769 0.71474 0.0
H286 H 0.2867 0.9728 0.88751 0.0
C287 C 0.26135 0.00054 0.87194 0.0
H288 H 0.2423 0.04595 0.8046 0.0
H289 H 0.3861 0.87267 0.69489 0.0
H290 H 0.31939 0.80725 0.72444 0.0
H291 H 0.24674 0.83061 0.78062 0.0
H292 H 0.24049 0.91929 0.8081 0.0
C293 C 0.26638 0.01694 0.82017 0.0
C294 C 0.30904 0.00221 0.78464 0.0
C295 C 0.31161 0.95034 0.76811 0.0
C296 C 0.35292 0.93709 0.73452 0.0
C297 C 0.35515 0.88488 0.7196 0.0
C298 C 0.31718 0.847 0.73635 0.0
C299 C 0.27632 0.86013 0.76809 0.0
C300 C 0.27331 0.91114 0.78381 0.0
H301 H 0.08392 0.42457 0.63309 0.0
C302 C 0.07027 0.39729 0.60463 0.0
H303 H 0.04229 0.32088 0.59188 0.0
H304 H 0.10446 0.29053 0.8448 0.0
H305 H 0.19067 0.31485 0.81385 0.0
H306 H 0.21154 0.34541 0.72026 0.0
H307 H 0.14623 0.35249 0.65713 0.0
C308 C 0.0566 0.34736 0.62079 0.0
C309 C 0.04553 0.3306 0.6781 0.0
C310 C 0.08427 0.32553 0.71408 0.0
C311 C 0.0724 0.30604 0.76767 0.0
C312 C 0.11156 0.3033 0.80329 0.0
C313 C 0.16116 0.31746 0.78612 0.0
C314 C 0.17289 0.3348 0.73344 0.0
C315 C 0.13506 0.33883 0.69764 0.0
H316 H 0.04982 0.19953 0.82812 0.0
C317 C 0.02361 0.21841 0.85406 0.0
H318 H 0.98213 0.28451 0.86453 0.0
H319 H 0.96122 0.34072 0.62143 0.0
H320 H 0.87567 0.31397 0.6516 0.0
H321 H 0.85586 0.27504 0.74247 0.0
H322 H 0.92144 0.26335 0.8039 0.0
C323 C 0.00904 0.26587 0.83921 0.0
C324 C 0.02204 0.28994 0.78458 0.0
C325 C 0.98323 0.29597 0.74885 0.0
C326 C 0.99488 0.31687 0.6959 0.0
C327 C 0.95499 0.32362 0.6616 0.0
C328 C 0.90551 0.30871 0.67848 0.0
C329 C 0.89435 0.28694 0.72966 0.0
C330 C 0.9325 0.28058 0.76459 0.0
H331 H 0.63715 0.11707 0.68044 0.0
C332 C 0.63823 0.09052 0.64812 0.0
H333 H 0.67175 0.02462 0.61879 0.0
H334 H 0.84012 0.08952 0.79177 0.0
H335 H 0.86138 0.16685 0.73337 0.0
H336 H 0.81023 0.18762 0.65718 0.0
H337 H 0.7372 0.13137 0.63906 0.0
C338 C 0.6709 0.05274 0.64947 0.0
C339 C 0.70124 0.04242 0.69671 0.0
C340 C 0.74427 0.07523 0.70624 0.0
C341 C 0.77461 0.06254 0.74949 0.0
C342 C 0.81659 0.09664 0.75878 0.0
C343 C 0.82905 0.14128 0.72572 0.0
C344 C 0.80019 0.15301 0.68286 0.0
C345 C 0.7583 0.12047 0.67298 0.0
H346 H 0.85446 0.98259 0.77275 0.0
C347 C 0.84056 0.98194 0.81418 0.0
H348 H 0.78005 0.99775 0.8667 0.0
H349 H 0.61964 0.97311 0.69198 0.0
H350 H 0.59843 0.89597 0.75035 0.0
H351 H 0.65196 0.87283 0.8238 0.0
H352 H 0.72687 0.92679 0.83953 0.0
C353 C 0.79564 0.00059 0.82582 0.0
C354 C 0.76243 0.01656 0.78259 0.0
C355 C 0.71863 0.98459 0.77389 0.0
C356 C 0.6881 0.99752 0.73101 0.0
C357 C 0.64456 0.96483 0.72345 0.0
C358 C 0.63184 0.92046 0.75676 0.0
C359 C 0.66193 0.90748 0.79815 0.0
C360 C 0.70485 0.93892 0.80677 0.0
H361 H 0.28401 0.51033 0.05798 0.0
C362 C 0.31039 0.48207 0.06987 0.0
H363 H 0.32242 0.40293 0.08726 0.0
H364 H 0.12745 0.2824 0.14283 0.0
H365 H 0.15152 0.30002 0.23194 0.0
H366 H 0.21742 0.36887 0.24649 0.0
H367 H 0.26013 0.41993 0.17129 0.0
C368 C 0.29635 0.43078 0.07348 0.0
C369 C 0.2446 0.40877 0.06617 0.0
C370 C 0.21816 0.38136 0.11032 0.0
C371 C 0.17912 0.34296 0.10196 0.0
C372 C 0.1563 0.31311 0.14667 0.0
C373 C 0.16993 0.32273 0.19819 0.0
C374 C 0.20708 0.36141 0.20639 0.0
C375 C 0.23137 0.39022 0.16304 0.0
H376 H 0.19442 0.2637 0.98183 0.0
C377 C 0.16024 0.25048 1.00527 0.0
H378 H 0.10458 0.26974 0.06173 0.0
H379 H 0.28029 0.46306 0.97369 0.0
H380 H 0.24622 0.45637 0.88646 0.0
H381 H 0.17274 0.39598 0.87364 0.0
H382 H 0.13408 0.34031 0.94796 0.0
C383 C 0.13858 0.2831 0.03825 0.0
C384 C 0.1657 0.3337 0.04928 0.0
C385 C 0.18541 0.3685 1.00658 0.0
C386 C 0.22616 0.40509 1.01461 0.0
C387 C 0.24841 0.43567 0.97021 0.0
C388 C 0.22918 0.43218 0.91991 0.0
C389 C 0.1879 0.39803 0.91262 0.0
C390 C 0.16623 0.36627 0.95532 0.0
H391 H 0.38642 0.65948 0.23715 0.0
C392 C 0.3731 0.61936 0.24852 0.0
H393 H 0.31159 0.56651 0.26844 0.0
H394 H 0.2596 0.81801 0.20454 0.0
H395 H 0.30474 0.84273 0.28124 0.0
H396 H 0.3396 0.77606 0.34017 0.0
H397 H 0.3304 0.68396 0.32141 0.0
C398 C 0.32367 0.60674 0.25661 0.0
C399 C 0.28665 0.6428 0.23601 0.0
C400 C 0.28839 0.69567 0.24999 0.0
C401 C 0.26498 0.73355 0.21832 0.0
C402 C 0.27308 0.78693 0.22933 0.0
C403 C 0.29966 0.80184 0.27294 0.0
C404 C 0.31948 0.76434 0.30599 0.0
C405 C 0.31422 0.71181 0.29467 0.0
H406 H 0.17173 0.79329 0.19709 0.0
C407 C 0.18072 0.78947 0.1549 0.0
H408 H 0.22241 0.7531 0.09622 0.0
H409 H 0.26761 0.54242 0.20392 0.0
H410 H 0.21428 0.51606 0.13446 0.0
H411 H 0.16954 0.58082 0.08295 0.0
H412 H 0.17757 0.67237 0.10141 0.0
C413 C 0.21407 0.75597 0.13872 0.0
C414 C 0.23591 0.71743 0.17559 0.0
C415 C 0.22957 0.66354 0.1655 0.0
C416 C 0.25504 0.62615 0.19558 0.0
C417 C 0.24926 0.57288 0.18303 0.0
C418 C 0.21862 0.55697 0.14296 0.0
C419 C 0.19349 0.5934 0.11394 0.0
C420 C 0.1987 0.646 0.12489 0.0
H421 H 0.59427 0.34081 0.08864 0.0
C422 C 0.567 0.32227 0.11847 0.0
H423 H 0.54399 0.25267 0.16394 0.0
H424 H 0.71817 0.21042 0.9687 0.0
H425 H 0.65425 0.23035 0.907 0.0
H426 H 0.57093 0.25472 0.93999 0.0
H427 H 0.55126 0.2598 0.03492 0.0
C428 C 0.57084 0.27204 0.13439 0.0
C429 C 0.61482 0.24411 0.11515 0.0
C430 C 0.62517 0.23974 0.05972 0.0
C431 C 0.67272 0.22454 0.04083 0.0
C432 C 0.68257 0.22175 0.98521 0.0
C433 C 0.64617 0.23291 0.94937 0.0
C434 C 0.5993 0.24672 0.96793 0.0
C435 C 0.58865 0.24999 0.02242 0.0
H436 H 0.75035 0.12112 0.08402 0.0
C437 C 0.77544 0.15152 0.06376 0.0
H438 H 0.78428 0.23099 0.03688 0.0
H439 H 0.60269 0.23777 0.22425 0.0
H440 H 0.6637 0.21086 0.28627 0.0
H441 H 0.74693 0.18598 0.25383 0.0
H442 H 0.76955 0.18774 0.15942 0.0
C443 C 0.75998 0.19984 0.05721 0.0
C444 C 0.70914 0.21207 0.07749 0.0
C445 C 0.69711 0.21183 0.13322 0.0
C446 C 0.64949 0.22717 0.15202 0.0
C447 C 0.63835 0.22675 0.20773 0.0
C448 C 0.67306 0.21143 0.24384 0.0
C449 C 0.71988 0.19734 0.22558 0.0
C450 C 0.73218 0.19804 0.17106 0.0
H451 H 0.5617 0.59501 0.02369 0.0
C452 C 0.57867 0.56961 0.05253 0.0
H453 H 0.64557 0.55036 0.08783 0.0
H454 H 0.80274 0.66836 0.92435 0.0
H455 H 0.80804 0.58008 0.89479 0.0
H456 H 0.74546 0.50948 0.92798 0.0
H457 H 0.67722 0.52667 0.99098 0.0
C458 C 0.62799 0.57635 0.06007 0.0
C459 C 0.66031 0.62029 0.0334 0.0
C460 C 0.69937 0.60971 0.99604 0.0
C461 C 0.7353 0.65038 0.97664 0.0
C462 C 0.77453 0.63872 0.94018 0.0
C463 C 0.77793 0.58831 0.9229 0.0
C464 C 0.74268 0.54856 0.94161 0.0
C465 C 0.70381 0.55888 0.97782 0.0
H466 H 0.7999 0.73326 0.05992 0.0
C467 C 0.8046 0.75465 0.02133 0.0
H468 H 0.7775 0.76198 0.94364 0.0
H469 H 0.59008 0.65478 0.10511 0.0
H470 H 0.58228 0.74387 0.12945 0.0
H471 H 0.6415 0.81512 0.09084 0.0
H472 H 0.70953 0.79717 0.02824 0.0
C473 C 0.77404 0.74155 0.98268 0.0
C474 C 0.73202 0.70132 0.99478 0.0
C475 C 0.69079 0.71284 0.02884 0.0
C476 C 0.65547 0.6721 0.04924 0.0
C477 C 0.61695 0.68424 0.08654 0.0
C478 C 0.61217 0.73533 0.10121 0.0
C479 C 0.64558 0.77541 0.07962 0.0
C480 C 0.68458 0.76452 0.04395 0.0
loop_
_geom_bond_atom_site_label_1
_geom_bond_atom_site_label_2
_geom_bond_distance
_geom_bond_site_symmetry_2
_ccdc_geom_bond_type
Cu0 N1 1.999 . S
Cu0 O6 1.974 . S
Cu0 N11 1.985 . S
Cu0 O20 1.959 . S
N1 Cu0 1.999 . S
N1 C3 1.263 . S
N1 C5 1.389 . S
N2 C3 1.358 . S
N2 C4 1.400 . S
C3 N1 1.263 . S
C3 N2 1.358 . S
C3 H9 0.930 1_455 S
C4 N2 1.400 . S
C4 C5 1.351 . S
C4 H21 0.930 . S
C5 N1 1.389 . S
C5 C4 1.351 . S
C5 H10 0.930 . S
O6 Cu0 1.974 . S
O6 C16 1.282 1_455 S
C7 O8 1.261 . S
C7 O20 1.251 1_655 S
O8 C7 1.261 . S
H9 C3 0.930 1_655 S
H10 C5 0.930 . S
N11 Cu0 1.985 . S
N11 C13 1.335 . S
N11 C14 1.390 1_455 S
N12 C13 1.345 . S
N12 C15 1.336 1_455 S
C13 N11 1.335 . S
C13 N12 1.345 . S
C13 H18 0.930 . S
C14 N11 1.390 1_655 S
C14 C15 1.346 . S
C14 H19 0.930 . S
C15 N12 1.336 1_655 S
C15 C14 1.346 . S
C15 H22 0.929 . S
C16 O6 1.282 1_655 S
C16 O17 1.216 . S
O17 C16 1.216 . S
H18 C13 0.930 . S
H19 C14 0.930 . S
O20 Cu0 1.959 . S
O20 C7 1.251 1_455 S
H21 C4 0.930 . S
H22 C15 0.929 . S
Cu23 N24 1.999 . S
Cu23 O29 1.974 . S
Cu23 N34 1.985 . S
Cu23 O43 1.959 . S
N24 Cu23 1.999 . S
N24 C26 1.263 . S
N24 C28 1.389 . S
N25 C26 1.358 . S
N25 C27 1.400 . S
C26 N24 1.263 . S
C26 N25 1.358 . S
C26 H32 0.930 1_565 S
C27 N25 1.400 . S
C27 C28 1.351 . S
C27 H44 0.930 . S
C28 N24 1.389 . S
C28 C27 1.351 . S
C28 H33 0.930 . S
O29 Cu23 1.974 . S
O29 C39 1.282 1_565 S
C30 O31 1.261 . S
C30 O43 1.251 1_545 S
O31 C30 1.261 . S
H32 C26 0.930 1_545 S
H33 C28 0.930 . S
N34 Cu23 1.985 . S
N34 C36 1.335 . S
N34 C37 1.390 1_565 S
N35 C36 1.345 . S
N35 C38 1.336 1_565 S
C36 N34 1.335 . S
C36 N35 1.345 . S
C36 H41 0.930 . S
C37 N34 1.390 1_545 S
C37 C38 1.346 . S
C37 H42 0.930 . S
C38 N35 1.336 1_545 S
C38 C37 1.346 . S
C38 H45 0.929 . S
C39 O29 1.282 1_545 S
C39 O40 1.216 . S
O40 C39 1.216 . S
H41 C36 0.930 . S
H42 C37 0.930 . S
O43 Cu23 1.959 . S
O43 C30 1.251 1_565 S
H44 C27 0.930 . S
H45 C38 0.929 . S
Cu46 N47 1.999 . S
Cu46 O52 1.974 1_556 S
Cu46 N57 1.985 1_556 S
Cu46 O66 1.959 . S
N47 Cu46 1.999 . S
N47 C49 1.263 1_556 S
N47 C51 1.389 . S
N48 C49 1.358 1_556 S
N48 C50 1.400 . S
C49 N47 1.263 1_554 S
C49 N48 1.358 1_554 S
C49 H55 0.930 . S
C50 N48 1.400 . S
C50 C51 1.351 . S
C50 H67 0.930 . S
C51 N47 1.389 . S
C51 C50 1.351 . S
C51 H56 0.930 . S
O52 Cu46 1.974 1_554 S
O52 C62 1.292 . S
C53 O54 1.261 . S
C53 O66 1.251 1_554 S
O54 C53 1.261 . S
H55 C49 0.930 . S
H56 C51 0.930 . S
N57 Cu46 1.985 1_554 S
N57 C59 1.335 1_554 S
N57 C60 1.390 . S
N58 C59 1.345 1_554 S
N58 C61 1.336 . S
C59 N57 1.335 1_556 S
C59 N58 1.345 1_556 S
C59 H64 0.930 . S
C60 N57 1.390 . S
C60 C61 1.346 . S
C60 H65 0.930 . S
C61 N58 1.336 . S
C61 C60 1.346 . S
C61 H68 0.929 . S
C62 O52 1.292 . S
C62 O63 1.216 . S
O63 C62 1.216 . S
H64 C59 0.930 . S
H65 C60 0.930 . S
O66 Cu46 1.959 . S
O66 C53 1.251 1_556 S
H67 C50 0.930 . S
H68 C61 0.929 . S
Zn69 O71 1.933 1_556 S
Zn69 O89 1.985 . S
Zn69 O100 1.955 . S
Zn70 O71 1.911 . S
Zn70 O90 1.970 . S
Zn70 O106 1.945 . S
Zn70 O113 1.981 . S
O71 Zn69 1.933 1_554 S
O71 Zn70 1.911 . S
O71 H72 0.841 . S
H72 O71 0.841 . S
C73 O74 1.246 . S
C73 O102 1.276 1_455 S
O74 C73 1.246 . S
Zn75 O77 1.911 . S
Zn75 O92 1.970 . S
Zn75 O109 1.945 . S
Zn75 O116 1.981 . S
Zn76 O77 1.933 1_556 S
Zn76 O91 1.985 . S
Zn76 O98 1.955 . S
O77 Zn75 1.911 . S
O77 Zn76 1.933 1_554 S
O77 H78 0.841 . S
H78 O77 0.841 . S
Zn79 O80 1.933 1_556 S
Zn79 O93 1.985 . S
Zn79 O102 1.955 . S
O80 Zn79 1.933 1_554 S
O80 Zn81 1.911 . S
O80 H82 0.841 . S
Zn81 O80 1.911 . S
Zn81 O94 1.970 . S
Zn81 O110 1.981 . S
Zn81 O112 1.945 . S
H82 O80 0.841 . S
Zn83 O84 1.933 1_556 S
Zn83 O96 1.985 . S
Zn83 O104 1.955 . S
O84 Zn83 1.933 1_554 S
O84 H85 0.841 . S
O84 Zn86 1.911 . S
H85 O84 0.841 . S
Zn86 O84 1.911 . S
Zn86 O97 1.970 . S
Zn86 O107 1.981 . S
Zn86 O115 1.945 . S
C87 O88 1.246 . S
C87 O104 1.276 1_655 S
O88 C87 1.246 . S
O89 Zn69 1.985 . S
O89 C99 1.245 1_556 S
O90 Zn70 1.970 . S
O90 C99 1.263 . S
O91 Zn76 1.985 . S
O91 C103 1.245 1_556 S
O92 Zn75 1.970 . S
O92 C103 1.263 . S
O93 Zn79 1.985 . S
O93 C108 1.245 1_556 S
O94 Zn81 1.970 . S
O94 C108 1.263 . S
C95 O106 1.282 . S
C95 O107 1.234 1_545 S
O96 Zn83 1.985 . S
O96 C114 1.245 1_556 S
O97 Zn86 1.970 . S
O97 C114 1.263 . S
O98 Zn76 1.955 . S
O98 C117 1.276 1_565 S
C99 O89 1.245 1_554 S
C99 O90 1.263 . S
O100 Zn69 1.955 . S
O100 C119 1.276 . S
C101 O109 1.262 . S
C101 O110 1.245 1_565 S
O102 C73 1.276 1_655 S
O102 Zn79 1.955 . S
C103 O91 1.245 1_554 S
C103 O92 1.263 . S
O104 Zn83 1.955 . S
O104 C87 1.276 1_455 S
C105 O112 1.262 1_455 S
C105 O113 1.245 . S
O106 Zn70 1.945 . S
O106 C95 1.282 . S
O107 Zn86 1.981 . S
O107 C95 1.234 1_565 S
C108 O93 1.245 1_554 S
C108 O94 1.263 . S
O109 Zn75 1.945 . S
O109 C101 1.262 . S
O110 Zn81 1.981 . S
O110 C101 1.245 1_545 S
C111 O115 1.262 1_655 S
C111 O116 1.245 . S
O112 Zn81 1.945 . S
O112 C105 1.262 1_655 S
O113 Zn70 1.981 . S
O113 C105 1.245 . S
C114 O96 1.245 1_554 S
C114 O97 1.263 . S
O115 Zn86 1.945 . S
O115 C111 1.262 1_455 S
O116 Zn75 1.981 . S
O116 C111 1.245 . S
C117 O98 1.276 1_545 S
C117 O118 1.246 . S
O118 C117 1.246 . S
C119 O100 1.276 . S
C119 O120 1.246 1_545 S
O120 C119 1.246 1_565 S
H121 C122 0.951 . S
C122 H121 0.951 . S
C122 C128 1.264 . S
H123 C128 0.950 1_655 S
H124 C132 0.949 . S
H125 C133 0.950 . S
H126 C134 0.951 . S
H127 C135 0.951 . S
C128 C122 1.264 . S
C128 H123 0.950 1_455 S
C128 C129 1.478 . S
C129 C128 1.478 . S
C129 C130 1.397 1_455 S
C129 C146 1.394 . S
C130 C129 1.397 1_655 S
C130 C131 1.438 . S
C130 C135 1.429 . S
C131 C130 1.438 . S
C131 C132 1.428 . S
C131 C144 1.394 1_655 S
C132 H124 0.949 . S
C132 C131 1.428 . S
C132 C133 1.345 . S
C133 H125 0.950 . S
C133 C132 1.345 . S
C133 C134 1.424 . S
C134 H126 0.951 . S
C134 C133 1.424 . S
C134 C135 1.347 . S
C135 H127 0.951 . S
C135 C130 1.429 . S
C135 C134 1.347 . S
H136 C137 0.951 1_655 S
C137 H136 0.951 1_455 S
C137 C143 1.265 . S
H138 C143 0.950 . S
H139 C147 0.949 . S
H140 C148 0.950 . S
H141 C149 0.951 . S
H142 C150 0.951 . S
C143 C137 1.265 . S
C143 H138 0.950 . S
C143 C144 1.478 . S
C144 C131 1.394 1_455 S
C144 C143 1.478 . S
C144 C145 1.397 . S
C145 C144 1.397 . S
C145 C146 1.438 . S
C145 C150 1.429 . S
C146 C129 1.394 . S
C146 C145 1.438 . S
C146 C147 1.428 . S
C147 H139 0.949 . S
C147 C146 1.428 . S
C147 C148 1.345 . S
C148 H140 0.950 . S
C148 C147 1.345 . S
C148 C149 1.424 . S
C149 H141 0.951 . S
C149 C148 1.424 . S
C149 C150 1.347 . S
C150 H142 0.951 . S
C150 C145 1.429 . S
C150 C149 1.347 . S
H151 C152 0.951 1_565 S
C152 H151 0.951 1_545 S
C152 C158 1.265 . S
H153 C158 0.950 . S
H154 C162 0.949 . S
H155 C163 0.950 . S
H156 C164 0.951 . S
H157 C165 0.951 . S
C158 C152 1.265 . S
C158 H153 0.950 . S
C158 C159 1.478 . S
C159 C158 1.478 . S
C159 C160 1.397 1_545 S
C159 C176 1.394 . S
C160 C159 1.397 1_565 S
C160 C161 1.438 . S
C160 C165 1.429 . S
C161 C160 1.438 . S
C161 C162 1.428 . S
C161 C174 1.394 1_565 S
C162 H154 0.949 . S
C162 C161 1.428 . S
C162 C163 1.345 . S
C163 H155 0.950 . S
C163 C162 1.345 . S
C163 C164 1.424 . S
C164 H156 0.951 . S
C164 C163 1.424 . S
C164 C165 1.347 . S
C165 H157 0.951 . S
C165 C160 1.429 . S
C165 C164 1.347 . S
H166 C167 0.951 . S
C167 H166 0.951 . S
C167 C173 1.265 1_545 S
H168 C173 0.950 . S
H169 C177 0.949 . S
H170 C178 0.950 . S
H171 C179 0.951 . S
H172 C180 0.951 . S
C173 C167 1.265 1_565 S
C173 H168 0.950 . S
C173 C174 1.478 1_565 S
C174 C161 1.394 1_545 S
C174 C173 1.478 1_545 S
C174 C175 1.397 . S
C175 C174 1.397 . S
C175 C176 1.438 . S
C175 C180 1.429 . S
C176 C159 1.394 . S
C176 C175 1.438 . S
C176 C177 1.428 . S
C177 H169 0.949 . S
C177 C176 1.428 . S
C177 C178 1.345 . S
C178 H170 0.950 . S
C178 C177 1.345 . S
C178 C179 1.424 . S
C179 H171 0.951 . S
C179 C178 1.424 . S
C179 C180 1.347 . S
C180 H172 0.951 . S
C180 C175 1.429 . S
C180 C179 1.347 . S
H181 C182 0.951 . S
C182 H181 0.951 . S
C182 C188 1.265 1_655 S
H183 C188 0.950 . S
H184 C192 0.949 . S
H185 C193 0.950 . S
H186 C194 0.951 . S
H187 C195 0.951 . S
C188 C182 1.265 1_455 S
C188 H183 0.950 . S
C188 C189 1.478 1_455 S
C189 C188 1.478 1_655 S
C189 C190 1.397 1_655 S
C189 C206 1.394 . S
C190 C189 1.397 1_455 S
C190 C191 1.438 1_455 S
C190 C195 1.429 . S
C191 C190 1.438 1_655 S
C191 C192 1.428 . S
C191 C204 1.394 . S
C192 H184 0.949 . S
C192 C191 1.428 . S
C192 C193 1.345 1_655 S
C193 H185 0.950 . S
C193 C192 1.345 1_455 S
C193 C194 1.424 . S
C194 H186 0.951 . S
C194 C193 1.424 . S
C194 C195 1.347 . S
C195 H187 0.951 . S
C195 C190 1.429 . S
C195 C194 1.347 . S
H196 C197 0.951 1_455 S
C197 H196 0.951 1_655 S
C197 C203 1.265 . S
H198 C203 0.950 . S
H199 C207 0.949 . S
H200 C208 0.950 . S
H201 C209 0.951 . S
H202 C210 0.951 . S
C203 C197 1.265 . S
C203 H198 0.950 . S
C203 C204 1.478 . S
C204 C191 1.394 . S
C204 C203 1.478 . S
C204 C205 1.397 . S
C205 C204 1.397 . S
C205 C206 1.438 . S
C205 C210 1.429 . S
C206 C189 1.394 . S
C206 C205 1.438 . S
C206 C207 1.428 . S
C207 H199 0.949 . S
C207 C206 1.428 . S
C207 C208 1.345 . S
C208 H200 0.950 . S
C208 C207 1.345 . S
C208 C209 1.424 . S
C209 H201 0.951 . S
C209 C208 1.424 . S
C209 C210 1.347 . S
C210 H202 0.951 . S
C210 C205 1.429 . S
C210 C209 1.347 . S
H211 C212 0.951 . S
C212 H211 0.951 . S
C212 C218 1.265 . S
H213 C218 0.950 . S
H214 C222 0.949 . S
H215 C223 0.950 . S
H216 C224 0.951 . S
H217 C225 0.951 . S
C218 C212 1.265 . S
C218 H213 0.950 . S
C218 C219 1.478 . S
C219 C218 1.478 . S
C219 C220 1.397 1_565 S
C219 C236 1.394 . S
C220 C219 1.397 1_545 S
C220 C221 1.438 . S
C220 C225 1.429 . S
C221 C220 1.438 . S
C221 C222 1.428 . S
C221 C234 1.394 1_545 S
C222 H214 0.949 . S
C222 C221 1.428 . S
C222 C223 1.345 . S
C223 H215 0.950 . S
C223 C222 1.345 . S
C223 C224 1.424 . S
C224 H216 0.951 . S
C224 C223 1.424 . S
C224 C225 1.347 . S
C225 H217 0.951 . S
C225 C220 1.429 . S
C225 C224 1.347 . S
H226 C227 0.951 . S
C227 H226 0.951 . S
C227 C233 1.265 . S
H228 C233 0.950 . S
H229 C237 0.949 . S
H230 C238 0.950 . S
H231 C239 0.951 . S
H232 C240 0.951 . S
C233 C227 1.265 . S
C233 H228 0.950 . S
C233 C234 1.478 . S
C234 C221 1.394 1_565 S
C234 C233 1.478 . S
C234 C235 1.397 . S
C235 C234 1.397 . S
C235 C236 1.438 . S
C235 C240 1.429 . S
C236 C219 1.394 . S
C236 C235 1.438 . S
C236 C237 1.428 . S
C237 H229 0.949 . S
C237 C236 1.428 . S
C237 C238 1.345 . S
C238 H230 0.950 . S
C238 C237 1.345 . S
C238 C239 1.424 . S
C239 H231 0.951 . S
C239 C238 1.424 . S
C239 C240 1.347 . S
C240 H232 0.951 . S
C240 C235 1.429 . S
C240 C239 1.347 . S
H241 C242 0.951 . S
C242 H241 0.951 . S
C242 C248 1.266 . S
H243 C248 0.948 1_655 S
H244 C252 0.949 . S
H245 C253 0.950 . S
H246 C254 0.951 . S
H247 C255 0.951 . S
C248 C242 1.266 . S
C248 H243 0.948 1_455 S
C248 C249 1.478 . S
C249 C248 1.478 . S
C249 C250 1.380 1_455 S
C249 C266 1.411 . S
C250 C249 1.380 1_655 S
C250 C251 1.438 . S
C250 C255 1.429 . S
C251 C250 1.438 . S
C251 C252 1.428 . S
C251 C264 1.393 1_655 S
C252 H244 0.949 . S
C252 C251 1.428 . S
C252 C253 1.345 . S
C253 H245 0.950 . S
C253 C252 1.345 . S
C253 C254 1.424 . S
C254 H246 0.951 . S
C254 C253 1.424 . S
C254 C255 1.347 . S
C255 H247 0.951 . S
C255 C250 1.429 . S
C255 C254 1.347 . S
H256 C257 0.951 . S
C257 H256 0.951 . S
C257 C263 1.259 1_655 S
H258 C263 0.957 . S
H259 C267 0.949 . S
H260 C268 0.950 . S
H261 C269 0.951 . S
H262 C270 0.951 . S
C263 C257 1.259 1_455 S
C263 H258 0.957 . S
C263 C264 1.478 . S
C264 C251 1.393 1_455 S
C264 C263 1.478 . S
C264 C265 1.398 . S
C265 C264 1.398 . S
C265 C266 1.438 . S
C265 C270 1.429 . S
C266 C249 1.411 . S
C266 C265 1.438 . S
C266 C267 1.428 . S
C267 H259 0.949 . S
C267 C266 1.428 . S
C267 C268 1.345 . S
C268 H260 0.950 . S
C268 C267 1.345 . S
C268 C269 1.424 . S
C269 H261 0.951 . S
C269 C268 1.424 . S
C269 C270 1.347 . S
C270 H262 0.951 . S
C270 C265 1.429 . S
C270 C269 1.347 . S
H271 C272 0.951 . S
C272 H271 0.951 . S
C272 C278 1.265 . S
H273 C278 0.950 . S
H274 C282 0.949 . S
H275 C283 0.950 . S
H276 C284 0.951 . S
H277 C285 0.951 . S
C278 C272 1.265 . S
C278 H273 0.950 . S
C278 C279 1.478 . S
C279 C278 1.478 . S
C279 C280 1.397 . S
C279 C296 1.394 1_545 S
C280 C279 1.397 . S
C280 C281 1.438 . S
C280 C285 1.429 . S
C281 C280 1.438 . S
C281 C282 1.428 . S
C281 C294 1.395 1_545 S
C282 H274 0.949 . S
C282 C281 1.428 . S
C282 C283 1.345 . S
C283 H275 0.950 . S
C283 C282 1.345 . S
C283 C284 1.424 . S
C284 H276 0.951 . S
C284 C283 1.424 . S
C284 C285 1.347 . S
C285 H277 0.951 . S
C285 C280 1.429 . S
C285 C284 1.347 . S
H286 C287 0.951 . S
C287 H286 0.951 . S
C287 C293 1.265 . S
H288 C293 0.950 . S
H289 C297 0.949 . S
H290 C298 0.950 . S
H291 C299 0.951 . S
H292 C300 0.951 . S
C293 C287 1.265 . S
C293 H288 0.950 . S
C293 C294 1.478 . S
C294 C281 1.395 1_565 S
C294 C293 1.478 . S
C294 C295 1.396 . S
C295 C294 1.396 . S
C295 C296 1.438 . S
C295 C300 1.429 . S
C296 C279 1.394 1_565 S
C296 C295 1.438 . S
C296 C297 1.428 . S
C297 H289 0.949 . S
C297 C296 1.428 . S
C297 C298 1.345 . S
C298 H290 0.950 . S
C298 C297 1.345 . S
C298 C299 1.424 . S
C299 H291 0.951 . S
C299 C298 1.424 . S
C299 C300 1.347 . S
C300 H292 0.951 . S
C300 C295 1.429 . S
C300 C299 1.347 . S
H301 C302 0.951 . S
C302 H301 0.951 . S
C302 C308 1.265 1_655 S
H303 C308 0.950 . S
H304 C312 0.949 . S
H305 C313 0.950 . S
H306 C314 0.951 . S
H307 C315 0.951 . S
C308 C302 1.265 1_455 S
C308 H303 0.950 . S
C308 C309 1.478 . S
C309 C308 1.478 . S
C309 C310 1.397 . S
C309 C326 1.394 1_455 S
C310 C309 1.397 . S
C310 C311 1.438 . S
C310 C315 1.429 . S
C311 C310 1.438 . S
C311 C312 1.428 . S
C311 C324 1.394 . S
C312 H304 0.949 . S
C312 C311 1.428 . S
C312 C313 1.345 . S
C313 H305 0.950 . S
C313 C312 1.345 . S
C313 C314 1.424 . S
C314 H306 0.951 . S
C314 C313 1.424 . S
C314 C315 1.347 . S
C315 H307 0.951 . S
C315 C310 1.429 . S
C315 C314 1.347 . S
H316 C317 0.951 . S
C317 H316 0.951 . S
C317 C323 1.265 1_455 S
H318 C323 0.950 . S
H319 C327 0.949 . S
H320 C328 0.950 . S
H321 C329 0.951 . S
H322 C330 0.951 . S
C323 C317 1.265 1_655 S
C323 H318 0.950 . S
C323 C324 1.478 1_655 S
C324 C311 1.394 . S
C324 C323 1.478 1_455 S
C324 C325 1.397 1_455 S
C325 C324 1.397 1_655 S
C325 C326 1.438 . S
C325 C330 1.429 . S
C326 C309 1.394 1_655 S
C326 C325 1.438 . S
C326 C327 1.428 . S
C327 H319 0.949 . S
C327 C326 1.428 . S
C327 C328 1.345 . S
C328 H320 0.950 . S
C328 C327 1.345 . S
C328 C329 1.424 . S
C329 H321 0.951 . S
C329 C328 1.424 . S
C329 C330 1.347 . S
C330 H322 0.951 . S
C330 C325 1.429 . S
C330 C329 1.347 . S
H331 C332 0.951 . S
C332 H331 0.951 . S
C332 C338 1.265 . S
H333 C338 0.950 . S
H334 C342 0.949 . S
H335 C343 0.950 . S
H336 C344 0.951 . S
H337 C345 0.951 . S
C338 C332 1.265 . S
C338 H333 0.950 . S
C338 C339 1.478 . S
C339 C338 1.478 . S
C339 C340 1.397 1_565 S
C339 C356 1.394 . S
C340 C339 1.397 1_545 S
C340 C341 1.438 . S
C340 C345 1.429 . S
C341 C340 1.438 . S
C341 C342 1.428 . S
C341 C354 1.394 . S
C342 H334 0.949 . S
C342 C341 1.428 . S
C342 C343 1.345 . S
C343 H335 0.950 . S
C343 C342 1.345 . S
C343 C344 1.424 . S
C344 H336 0.951 . S
C344 C343 1.424 . S
C344 C345 1.347 . S
C345 H337 0.951 . S
C345 C340 1.429 . S
C345 C344 1.347 . S
H346 C347 0.951 . S
C347 H346 0.951 . S
C347 C353 1.265 . S
H348 C353 0.950 . S
H349 C357 0.949 . S
H350 C358 0.950 . S
H351 C359 0.951 . S
H352 C360 0.951 . S
C353 C347 1.265 . S
C353 H348 0.950 . S
C353 C354 1.478 . S
C354 C341 1.394 . S
C354 C353 1.478 . S
C354 C355 1.397 1_545 S
C355 C354 1.397 1_565 S
C355 C356 1.438 . S
C355 C360 1.429 . S
C356 C339 1.394 . S
C356 C355 1.438 . S
C356 C357 1.428 . S
C357 H349 0.949 . S
C357 C356 1.428 . S
C357 C358 1.345 . S
C358 H350 0.950 . S
C358 C357 1.345 . S
C358 C359 1.424 . S
C359 H351 0.951 . S
C359 C358 1.424 . S
C359 C360 1.347 . S
C360 H352 0.951 . S
C360 C355 1.429 . S
C360 C359 1.347 . S
H361 C362 0.951 . S
C362 H361 0.951 . S
C362 C368 1.265 . S
H363 C368 0.950 . S
H364 C372 0.949 . S
H365 C373 0.950 . S
H366 C374 0.951 . S
H367 C375 0.951 . S
C368 C362 1.265 . S
C368 H363 0.950 . S
C368 C369 1.478 . S
C369 C368 1.478 . S
C369 C370 1.397 . S
C369 C386 1.394 1_554 S
C370 C369 1.397 . S
C370 C371 1.438 . S
C370 C375 1.429 . S
C371 C370 1.438 . S
C371 C372 1.428 . S
C371 C384 1.394 . S
C372 H364 0.949 . S
C372 C371 1.428 . S
C372 C373 1.345 . S
C373 H365 0.950 . S
C373 C372 1.345 . S
C373 C374 1.424 . S
C374 H366 0.951 . S
C374 C373 1.424 . S
C374 C375 1.347 . S
C375 H367 0.951 . S
C375 C370 1.429 . S
C375 C374 1.347 . S
H376 C377 0.951 . S
C377 H376 0.951 . S
C377 C383 1.265 . S
H378 C383 0.950 . S
H379 C387 0.949 . S
H380 C388 0.950 . S
H381 C389 0.951 . S
H382 C390 0.951 . S
C383 C377 1.265 . S
C383 H378 0.950 . S
C383 C384 1.478 . S
C384 C371 1.394 . S
C384 C383 1.478 . S
C384 C385 1.397 1_554 S
C385 C384 1.397 1_556 S
C385 C386 1.438 . S
C385 C390 1.429 . S
C386 C369 1.394 1_556 S
C386 C385 1.438 . S
C386 C387 1.428 . S
C387 H379 0.949 . S
C387 C386 1.428 . S
C387 C388 1.345 . S
C388 H380 0.950 . S
C388 C387 1.345 . S
C388 C389 1.424 . S
C389 H381 0.951 . S
C389 C388 1.424 . S
C389 C390 1.347 . S
C390 H382 0.951 . S
C390 C385 1.429 . S
C390 C389 1.347 . S
H391 C392 0.951 1_556 S
C392 H391 0.951 1_554 S
C392 C398 1.265 . S
H393 C398 0.950 . S
H394 C402 0.949 . S
H395 C403 0.950 . S
H396 C404 0.951 . S
H397 C405 0.951 . S
C398 C392 1.265 . S
C398 H393 0.950 . S
C398 C399 1.478 . S
C399 C398 1.478 . S
C399 C400 1.397 . S
C399 C416 1.394 1_554 S
C400 C399 1.397 . S
C400 C401 1.438 . S
C400 C405 1.429 . S
C401 C400 1.438 . S
C401 C402 1.428 . S
C401 C414 1.394 . S
C402 H394 0.949 . S
C402 C401 1.428 . S
C402 C403 1.345 . S
C403 H395 0.950 . S
C403 C402 1.345 . S
C403 C404 1.424 . S
C404 H396 0.951 . S
C404 C403 1.424 . S
C404 C405 1.347 . S
C405 H397 0.951 . S
C405 C400 1.429 . S
C405 C404 1.347 . S
H406 C407 0.951 . S
C407 H406 0.951 . S
C407 C413 1.265 . S
H408 C413 0.950 1_556 S
H409 C417 0.949 . S
H410 C418 0.950 . S
H411 C419 0.951 . S
H412 C420 0.951 . S
C413 C407 1.265 . S
C413 H408 0.950 1_554 S
C413 C414 1.478 . S
C414 C401 1.394 . S
C414 C413 1.478 . S
C414 C415 1.397 1_554 S
C415 C414 1.397 1_556 S
C415 C416 1.438 . S
C415 C420 1.429 . S
C416 C399 1.394 1_556 S
C416 C415 1.438 . S
C416 C417 1.428 . S
C417 H409 0.949 . S
C417 C416 1.428 . S
C417 C418 1.345 . S
C418 H410 0.950 . S
C418 C417 1.345 . S
C418 C419 1.424 . S
C419 H411 0.951 . S
C419 C418 1.424 . S
C419 C420 1.347 . S
C420 H412 0.951 . S
C420 C415 1.429 . S
C420 C419 1.347 . S
H421 C422 0.951 . S
C422 H421 0.951 . S
C422 C428 1.265 . S
H423 C428 0.950 . S
H424 C432 0.949 . S
H425 C433 0.950 . S
H426 C434 0.951 . S
H427 C435 0.951 . S
C428 C422 1.265 . S
C428 H423 0.950 . S
C428 C429 1.478 . S
C429 C428 1.478 . S
C429 C430 1.397 1_554 S
C429 C446 1.394 . S
C430 C429 1.397 1_556 S
C430 C431 1.438 . S
C430 C435 1.429 . S
C431 C430 1.438 . S
C431 C432 1.428 . S
C431 C444 1.394 1_556 S
C432 H424 0.949 . S
C432 C431 1.428 . S
C432 C433 1.345 . S
C433 H425 0.950 . S
C433 C432 1.345 . S
C433 C434 1.424 . S
C434 H426 0.951 . S
C434 C433 1.424 . S
C434 C435 1.347 . S
C435 H427 0.951 . S
C435 C430 1.429 . S
C435 C434 1.347 . S
H436 C437 0.951 . S
C437 H436 0.951 . S
C437 C443 1.265 . S
H438 C443 0.950 . S
H439 C447 0.949 . S
H440 C448 0.950 . S
H441 C449 0.951 . S
H442 C450 0.951 . S
C443 C437 1.265 . S
C443 H438 0.950 . S
C443 C444 1.478 . S
C444 C431 1.394 1_554 S
C444 C443 1.478 . S
C444 C445 1.397 . S
C445 C444 1.397 . S
C445 C446 1.438 . S
C445 C450 1.429 . S
C446 C429 1.394 . S
C446 C445 1.438 . S
C446 C447 1.428 . S
C447 H439 0.949 . S
C447 C446 1.428 . S
C447 C448 1.345 . S
C448 H440 0.950 . S
C448 C447 1.345 . S
C448 C449 1.424 . S
C449 H441 0.951 . S
C449 C448 1.424 . S
C449 C450 1.347 . S
C450 H442 0.951 . S
C450 C445 1.429 . S
C450 C449 1.347 . S
H451 C452 0.951 . S
C452 H451 0.951 . S
C452 C458 1.265 . S
H453 C458 0.950 . S
H454 C462 0.949 . S
H455 C463 0.950 . S
H456 C464 0.951 . S
H457 C465 0.951 . S
C458 C452 1.265 . S
C458 H453 0.950 . S
C458 C459 1.478 . S
C459 C458 1.478 . S
C459 C460 1.397 1_554 S
C459 C476 1.394 . S
C460 C459 1.397 1_556 S
C460 C461 1.438 . S
C460 C465 1.429 . S
C461 C460 1.438 . S
C461 C462 1.428 . S
C461 C474 1.394 1_556 S
C462 H454 0.949 . S
C462 C461 1.428 . S
C462 C463 1.345 . S
C463 H455 0.950 . S
C463 C462 1.345 . S
C463 C464 1.424 . S
C464 H456 0.951 . S
C464 C463 1.424 . S
C464 C465 1.347 . S
C465 H457 0.951 . S
C465 C460 1.429 . S
C465 C464 1.347 . S
H466 C467 0.951 . S
C467 H466 0.951 . S
C467 C473 1.265 . S
H468 C473 0.950 . S
H469 C477 0.949 . S
H470 C478 0.950 . S
H471 C479 0.951 . S
H472 C480 0.951 . S
C473 C467 1.265 . S
C473 H468 0.950 . S
C473 C474 1.478 . S
C474 C461 1.394 1_554 S
C474 C473 1.478 . S
C474 C475 1.397 . S
C475 C474 1.397 . S
C475 C476 1.438 . S
C475 C480 1.429 . S
C476 C459 1.394 . S
C476 C475 1.438 . S
C476 C477 1.428 . S
C477 H469 0.949 . S
C477 C476 1.428 . S
C477 C478 1.345 . S
C478 H470 0.950 . S
C478 C477 1.345 . S
C478 C479 1.424 . S
C479 H471 0.951 . S
C479 C478 1.424 . S
C479 C480 1.347 . S
C480 H472 0.951 . S
C480 C475 1.429 . S
C480 C479 1.347 . S
C137 C105 1.349 . S
C122 N2 1.289 . S
C167 C101 1.756 1_545 S
C152 C39 1.770 . S
C197 C111 1.509 . S
C182 C7 1.633 . S
C227 C95 1.536 1_565 S
C212 N35 1.471 . S
C242 N12 1.387 . S
C257 C87 1.457 . S
C287 C119 1.805 1_565 S
C272 C30 1.958 . S
C302 C16 1.725 . S
C317 C73 1.682 . S
C332 N25 1.653 . S
C347 C117 1.647 . S
C362 C62 1.319 . S
C377 C99 1.229 . S
C392 N48 0.992 1_554 S
C407 C114 1.027 . S
C437 C108 1.116 . S
C422 N58 1.111 . S
C467 C103 1.349 . S
C452 C53 1.323 . S
