# Generated by pormake.
# Topology myd, (4,6)-cn, num edge types: 1
# Building blocks:
#     Node 0, Type 0, BuildingBlock: NAWXER_clean_sbu_0, # of connection points: 4
#     Node 1, Type 0, BuildingBlock: NAWXER_clean_sbu_0, # of connection points: 4
#     Node 2, Type 0, BuildingBlock: NAWXER_clean_sbu_0, # of connection points: 4
#     Node 3, Type 0, BuildingBlock: NAWXER_clean_sbu_0, # of connection points: 4
#     Node 4, Type 0, BuildingBlock: NAWXER_clean_sbu_0, # of connection points: 4
#     Node 5, Type 0, BuildingBlock: NAWXER_clean_sbu_0, # of connection points: 4
#     Node 6, Type 0, BuildingBlock: NAWXER_clean_sbu_0, # of connection points: 4
#     Node 7, Type 0, BuildingBlock: NAWXER_clean_sbu_0, # of connection points: 4
#     Node 8, Type 0, BuildingBlock: NAWXER_clean_sbu_0, # of connection points: 4
#     Node 9, Type 0, BuildingBlock: NAWXER_clean_sbu_0, # of connection points: 4
#     Node 10, Type 0, BuildingBlock: NAWXER_clean_sbu_0, # of connection points: 4
#     Node 11, Type 0, BuildingBlock: NAWXER_clean_sbu_0, # of connection points: 4
#     Node 12, Type 1, BuildingBlock: CUWYAW_clean_sbu_0, # of connection points: 6
#     Node 13, Type 1, BuildingBlock: CUWYAW_clean_sbu_0, # of connection points: 6
#     Node 14, Type 1, BuildingBlock: CUWYAW_clean_sbu_0, # of connection points: 6
#     Node 15, Type 1, BuildingBlock: CUWYAW_clean_sbu_0, # of connection points: 6
#     Node 16, Type 1, BuildingBlock: CUWYAW_clean_sbu_0, # of connection points: 6
#     Node 17, Type 1, BuildingBlock: CUWYAW_clean_sbu_0, # of connection points: 6
#     Node 18, Type 1, BuildingBlock: CUWYAW_clean_sbu_0, # of connection points: 6
#     Node 19, Type 1, BuildingBlock: CUWYAW_clean_sbu_0, # of connection points: 6
#     Edge 20, Type (0, 1), BuildingBlock: TEMPAE_clean_linker_10, # of connection points: 2
#     Edge 21, Type (0, 1), BuildingBlock: TEMPAE_clean_linker_10, # of connection points: 2
#     Edge 22, Type (0, 1), BuildingBlock: TEMPAE_clean_linker_10, # of connection points: 2
#     Edge 23, Type (0, 1), BuildingBlock: TEMPAE_clean_linker_10, # of connection points: 2
#     Edge 24, Type (0, 1), BuildingBlock: TEMPAE_clean_linker_10, # of connection points: 2
#     Edge 25, Type (0, 1), BuildingBlock: TEMPAE_clean_linker_10, # of connection points: 2
#     Edge 26, Type (0, 1), BuildingBlock: TEMPAE_clean_linker_10, # of connection points: 2
#     Edge 27, Type (0, 1), BuildingBlock: TEMPAE_clean_linker_10, # of connection points: 2
#     Edge 28, Type (0, 1), BuildingBlock: TEMPAE_clean_linker_10, # of connection points: 2
#     Edge 29, Type (0, 1), BuildingBlock: TEMPAE_clean_linker_10, # of connection points: 2
#     Edge 30, Type (0, 1), BuildingBlock: TEMPAE_clean_linker_10, # of connection points: 2
#     Edge 31, Type (0, 1), BuildingBlock: TEMPAE_clean_linker_10, # of connection points: 2
#     Edge 32, Type (0, 1), BuildingBlock: TEMPAE_clean_linker_10, # of connection points: 2
#     Edge 33, Type (0, 1), BuildingBlock: TEMPAE_clean_linker_10, # of connection points: 2
#     Edge 34, Type (0, 1), BuildingBlock: TEMPAE_clean_linker_10, # of connection points: 2
#     Edge 35, Type (0, 1), BuildingBlock: TEMPAE_clean_linker_10, # of connection points: 2
#     Edge 36, Type (0, 1), BuildingBlock: TEMPAE_clean_linker_10, # of connection points: 2
#     Edge 37, Type (0, 1), BuildingBlock: TEMPAE_clean_linker_10, # of connection points: 2
#     Edge 38, Type (0, 1), BuildingBlock: TEMPAE_clean_linker_10, # of connection points: 2
#     Edge 39, Type (0, 1), BuildingBlock: TEMPAE_clean_linker_10, # of connection points: 2
#     Edge 40, Type (0, 1), BuildingBlock: TEMPAE_clean_linker_10, # of connection points: 2
#     Edge 41, Type (0, 1), BuildingBlock: TEMPAE_clean_linker_10, # of connection points: 2
#     Edge 42, Type (0, 1), BuildingBlock: TEMPAE_clean_linker_10, # of connection points: 2
#     Edge 43, Type (0, 1), BuildingBlock: TEMPAE_clean_linker_10, # of connection points: 2
#     Edge 44, Type (0, 1), BuildingBlock: TEMPAE_clean_linker_10, # of connection points: 2
#     Edge 45, Type (0, 1), BuildingBlock: TEMPAE_clean_linker_10, # of connection points: 2
#     Edge 46, Type (0, 1), BuildingBlock: TEMPAE_clean_linker_10, # of connection points: 2
#     Edge 47, Type (0, 1), BuildingBlock: TEMPAE_clean_linker_10, # of connection points: 2
#     Edge 48, Type (0, 1), BuildingBlock: TEMPAE_clean_linker_10, # of connection points: 2
#     Edge 49, Type (0, 1), BuildingBlock: TEMPAE_clean_linker_10, # of connection points: 2
#     Edge 50, Type (0, 1), BuildingBlock: TEMPAE_clean_linker_10, # of connection points: 2
#     Edge 51, Type (0, 1), BuildingBlock: TEMPAE_clean_linker_10, # of connection points: 2
#     Edge 52, Type (0, 1), BuildingBlock: TEMPAE_clean_linker_10, # of connection points: 2
#     Edge 53, Type (0, 1), BuildingBlock: TEMPAE_clean_linker_10, # of connection points: 2
#     Edge 54, Type (0, 1), BuildingBlock: TEMPAE_clean_linker_10, # of connection points: 2
#     Edge 55, Type (0, 1), BuildingBlock: TEMPAE_clean_linker_10, # of connection points: 2
#     Edge 56, Type (0, 1), BuildingBlock: TEMPAE_clean_linker_10, # of connection points: 2
#     Edge 57, Type (0, 1), BuildingBlock: TEMPAE_clean_linker_10, # of connection points: 2
#     Edge 58, Type (0, 1), BuildingBlock: TEMPAE_clean_linker_10, # of connection points: 2
#     Edge 59, Type (0, 1), BuildingBlock: TEMPAE_clean_linker_10, # of connection points: 2
#     Edge 60, Type (0, 1), BuildingBlock: TEMPAE_clean_linker_10, # of connection points: 2
#     Edge 61, Type (0, 1), BuildingBlock: TEMPAE_clean_linker_10, # of connection points: 2
#     Edge 62, Type (0, 1), BuildingBlock: TEMPAE_clean_linker_10, # of connection points: 2
#     Edge 63, Type (0, 1), BuildingBlock: TEMPAE_clean_linker_10, # of connection points: 2
#     Edge 64, Type (0, 1), BuildingBlock: TEMPAE_clean_linker_10, # of connection points: 2
#     Edge 65, Type (0, 1), BuildingBlock: TEMPAE_clean_linker_10, # of connection points: 2
#     Edge 66, Type (0, 1), BuildingBlock: TEMPAE_clean_linker_10, # of connection points: 2
#     Edge 67, Type (0, 1), BuildingBlock: TEMPAE_clean_linker_10, # of connection points: 2
# Relax obj value: 0.384
# Max RMSD: 0.404
# Mean RMSD: 0.181
data_MOF--net-myd--node1-NAWXER_clean_sbu_0--node2-CUWYAW_clean_sbu_0--edge1-TEMPAE_clean_linker_10
_symmetry_space_group_name_H-M    P1
_symmetry_Int_Tables_number       1
_symmetry_cell_setting            triclinic
loop_
_symmetry_equiv_pos_as_xyz
'x, y, z'
_cell_length_a     50.206275
_cell_length_b     49.295109
_cell_length_c     49.655005
_cell_angle_alpha  87.823251
_cell_angle_beta   87.414028
_cell_angle_gamma 84.589405
loop_
_atom_site_label
_atom_site_type_symbol
_atom_site_fract_x
_atom_site_fract_y
_atom_site_fract_z
_atom_type_partial_charge
C0 C 0.06135 0.28018 0.31327 0.0
C1 C 0.04362 0.35055 0.38674 0.0
O2 O 0.08015 0.29165 0.32365 0.0
Zn3 Zn 0.05606 0.31376 0.3495 0.0
O4 O 0.03718 0.28585 0.32196 0.0
Zn5 Zn 0.01366 0.30933 0.35141 0.0
O6 O 0.99266 0.33366 0.32339 0.0
O7 O 0.03552 0.33866 0.31837 0.0
O8 O 0.02276 0.3393 0.38041 0.0
O9 O 0.0659 0.34229 0.37499 0.0
O10 O 0.04696 0.2778 0.37376 0.0
O11 O 1.00375 0.27501 0.3737 0.0
C12 C 0.01172 0.34456 0.31027 0.0
C13 C 0.02686 0.26434 0.38051 0.0
C14 C 0.99342 0.77666 0.30566 0.0
C15 C 0.99303 0.70435 0.24028 0.0
O16 O 0.01608 0.7643 0.29881 0.0
Zn17 Zn 0.03413 0.73421 0.27326 0.0
O18 O 0.97194 0.7684 0.29742 0.0
Zn19 Zn 0.99032 0.74018 0.27424 0.0
O20 O 0.00684 0.7112 0.30324 0.0
O21 O 0.051 0.70814 0.29955 0.0
O22 O 0.97237 0.71848 0.24962 0.0
O23 O 0.01626 0.70858 0.2478 0.0
O24 O 0.05342 0.75917 0.2487 0.0
O25 O 0.00956 0.76753 0.24803 0.0
C26 C 0.02959 0.70071 0.31121 0.0
C27 C 0.03289 0.77405 0.2407 0.0
C28 C 0.38216 0.02563 0.26071 0.0
C29 C 0.31349 1.00133 0.33297 0.0
O30 O 0.37873 1.00201 0.2709 0.0
Zn31 Zn 0.3507 0.01051 0.30079 0.0
O32 O 0.36987 0.04631 0.27258 0.0
Zn33 Zn 0.34202 0.053 0.30793 0.0
O34 O 0.36084 0.0645 0.34121 0.0
O35 O 0.37145 0.02085 0.33662 0.0
O36 O 0.31729 0.02648 0.32975 0.0
O37 O 0.32847 0.98347 0.31989 0.0
O38 O 0.31703 0.03062 0.27811 0.0
O39 O 0.3105 0.07338 0.28974 0.0
C40 C 0.37267 0.04218 0.35046 0.0
C41 C 0.30322 0.05391 0.27624 0.0
C42 C 0.72973 0.50483 0.34102 0.0
C43 C 0.66076 0.49598 0.41529 0.0
O44 O 0.72457 0.48107 0.34992 0.0
Zn45 Zn 0.69333 0.4944 0.37461 0.0
O46 O 0.71587 0.52569 0.35004 0.0
Zn47 Zn 0.68485 0.54049 0.37583 0.0
O48 O 0.70718 0.55909 0.40058 0.0
O49 O 0.71512 0.51435 0.3998 0.0
O50 O 0.6623 0.51984 0.40474 0.0
O51 O 0.67345 0.47548 0.40398 0.0
O52 O 0.6675 0.51121 0.34554 0.0
O53 O 0.66175 0.5562 0.34738 0.0
C54 C 0.72014 0.53696 0.40883 0.0
C55 C 0.65906 0.53438 0.33511 0.0
C56 C 0.32657 0.38157 0.99362 0.0
C57 C 0.39904 0.30323 0.99706 0.0
O58 O 0.33816 0.37095 0.97255 0.0
Zn59 Zn 0.36734 0.34603 0.99016 0.0
O60 O 0.33676 0.37557 0.01643 0.0
Zn61 Zn 0.36701 0.34891 0.03445 0.0
O62 O 0.39231 0.37417 0.04699 0.0
O63 O 0.3962 0.37142 1.00281 0.0
O64 O 0.3926 0.31513 0.01925 0.0
O65 O 0.38927 0.31359 0.97523 0.0
O66 O 0.34008 0.32395 0.01221 0.0
O67 O 0.34018 0.32811 0.05617 0.0
C68 C 0.40387 0.38081 0.02461 0.0
C69 C 0.33013 0.31864 0.03561 0.0
C70 C 0.29529 0.81966 0.52868 0.0
C71 C 0.37584 0.75085 0.54486 0.0
O72 O 0.30555 0.80717 0.50792 0.0
Zn73 Zn 0.3375 0.77603 0.49733 0.0
O74 O 0.30501 0.81313 0.55164 0.0
Zn75 Zn 0.33292 0.78339 0.53997 0.0
O76 O 0.35809 0.80834 0.51726 0.0
O77 O 0.36097 0.79817 0.47416 0.0
O78 O 0.3608 0.76309 0.56289 0.0
O79 O 0.36894 0.75356 0.52026 0.0
O80 O 0.3157 0.74863 0.48353 0.0
O81 O 0.3085 0.75314 0.52731 0.0
C82 C 0.36754 0.81242 0.49331 0.0
C83 C 0.30322 0.74215 0.5054 0.0
C84 C 0.82415 0.87839 0.50926 0.0
C85 C 0.89336 0.79905 0.51439 0.0
O86 O 0.83528 0.87127 0.48659 0.0
Zn87 Zn 0.86683 0.84281 0.4711 0.0
O88 O 0.83436 0.86857 0.53106 0.0
Zn89 Zn 0.86314 0.84318 0.51486 0.0
O90 O 0.89216 0.86906 0.49996 0.0
O91 O 0.89574 0.86555 0.456 0.0
O92 O 0.88416 0.81304 0.53439 0.0
O93 O 0.88825 0.80804 0.49044 0.0
O94 O 0.84134 0.82257 0.45104 0.0
O95 O 0.83657 0.82007 0.49542 0.0
C96 C 0.90333 0.87568 0.47732 0.0
C97 C 0.82905 0.81389 0.47238 0.0
C98 C 0.51081 0.84685 0.80313 0.0
C99 C 0.52781 0.76718 0.87521 0.0
O100 O 0.49202 0.83588 0.81668 0.0
Zn101 Zn 0.51337 0.81211 0.84537 0.0
O102 O 0.53468 0.84146 0.81129 0.0
Zn103 Zn 0.55569 0.81697 0.8428 0.0
O104 O 0.57987 0.79565 0.81714 0.0
O105 O 0.53697 0.7889 0.81632 0.0
O106 O 0.54768 0.78077 0.86784 0.0
O107 O 0.50455 0.7776 0.86853 0.0
O108 O 0.52323 0.84243 0.87344 0.0
O109 O 0.56637 0.84534 0.86723 0.0
C110 C 0.56107 0.78381 0.80727 0.0
C111 C 0.54429 0.85366 0.87921 0.0
C112 C 0.51287 0.2146 0.80551 0.0
C113 C 0.51431 0.28391 0.73212 0.0
O114 O 0.48951 0.22254 0.79712 0.0
Zn115 Zn 0.47226 0.24852 0.76535 0.0
O116 O 0.53348 0.22275 0.79303 0.0
Zn117 Zn 0.51505 0.24599 0.76605 0.0
O118 O 0.49363 0.27656 0.7904 0.0
O119 O 0.44997 0.27542 0.78678 0.0
O120 O 0.53457 0.26994 0.7417 0.0
O121 O 0.4908 0.2772 0.73878 0.0
O122 O 0.45697 0.22394 0.74095 0.0
O123 O 0.50093 0.21743 0.74038 0.0
C124 C 0.46956 0.28601 0.79644 0.0
C125 C 0.47858 0.21097 0.73231 0.0
C126 C 0.80084 0.55793 0.7842 0.0
C127 C 0.87026 0.542 0.85893 0.0
O128 O 0.8099 0.57689 0.79709 0.0
Zn129 Zn 0.84003 0.55449 0.81618 0.0
O130 O 0.81264 0.53372 0.78679 0.0
Zn131 Zn 0.8459 0.51207 0.80904 0.0
O132 O 0.82315 0.48571 0.82709 0.0
O133 O 0.81404 0.5287 0.83875 0.0
O134 O 0.86609 0.52079 0.84599 0.0
O135 O 0.86161 0.56511 0.84842 0.0
O136 O 0.86702 0.5467 0.78094 0.0
O137 O 0.87391 0.50229 0.77942 0.0
C138 C 0.80941 0.50361 0.84123 0.0
C139 C 0.87837 0.5256 0.76918 0.0
C140 C 0.23297 0.99715 0.83601 0.0
C141 C 0.16087 1.0048 0.90799 0.0
O142 O 0.22252 0.97603 0.84581 0.0
Zn143 Zn 0.19438 0.9962 0.86888 0.0
O144 O 0.22361 0.02086 0.84297 0.0
Zn145 Zn 0.19423 0.04201 0.86713 0.0
O146 O 0.21953 0.05756 0.89116 0.0
O147 O 0.21925 0.01277 0.89389 0.0
O148 O 0.16771 0.0273 0.8974 0.0
O149 O 0.16999 0.98235 0.89754 0.0
O150 O 0.17214 0.01502 0.83843 0.0
O151 O 0.17334 0.05968 0.83724 0.0
C152 C 0.22785 0.03441 0.90179 0.0
C153 C 0.16685 0.03818 0.82659 0.0
C154 C 0.80502 0.24347 1.00057 0.0
C155 C 0.8661 0.31561 0.99813 0.0
O156 O 0.80864 0.25265 0.02375 0.0
Zn157 Zn 0.82972 0.28268 0.04057 0.0
O158 O 0.8174 0.25294 0.9799 0.0
Zn159 Zn 0.83695 0.27961 0.99766 0.0
O160 O 0.86776 0.25605 0.02099 0.0
O161 O 0.85655 0.26099 0.06388 0.0
O162 O 0.86109 0.30264 0.97746 0.0
O163 O 0.85548 0.30979 0.0213 0.0
O164 O 0.79919 0.30975 0.05268 0.0
O165 O 0.80475 0.31096 1.00853 0.0
C166 C 0.87325 0.25105 0.04583 0.0
C167 C 0.79218 0.32027 0.02985 0.0
C168 C 0.04862 0.05814 0.16913 0.0
Eu169 Eu 0.07644 0.09129 0.1394 0.0
C170 C 0.04707 0.02859 0.17381 0.0
C171 C 0.05355 0.00994 0.15325 0.0
C172 C 0.05158 0.982 0.15832 0.0
C173 C 0.04327 0.97223 0.18406 0.0
C174 C 0.03655 0.99111 0.2044 0.0
C175 C 0.03844 0.01895 0.19931 0.0
C176 C 0.09669 0.07369 0.08997 0.0
C177 C 0.13916 0.08536 0.15664 0.0
C178 C 0.13901 0.15383 0.07896 0.0
Eu179 Eu 0.11119 0.1269 0.1142 0.0
C180 C 0.14014 0.1801 0.06437 0.0
C181 C 0.1394 0.20445 0.07827 0.0
C182 C 0.14987 0.22716 0.06579 0.0
C183 C 0.16131 0.22551 0.03949 0.0
C184 C 0.15781 0.20273 0.02431 0.0
C185 C 0.14743 0.18 0.03681 0.0
C186 C 0.09442 0.14536 0.16368 0.0
C187 C 0.04714 0.14093 0.10469 0.0
O188 O 0.06976 0.06833 0.17738 0.0
O189 O 0.04153 0.06838 0.14568 0.0
O190 O 0.07252 0.07173 0.09898 0.0
O191 O 0.10969 0.08315 0.10792 0.0
O192 O 0.11406 0.0825 0.16496 0.0
O193 O 0.1435 0.09813 0.13328 0.0
O194 O 0.12099 0.13818 0.07226 0.0
O195 O 0.14277 0.15317 0.10485 0.0
O196 O 0.11817 0.14645 0.15272 0.0
O197 O 0.07937 0.13534 0.14746 0.0
O198 O 0.07174 0.14491 0.09583 0.0
O199 O 0.04359 0.12302 0.1247 0.0
H200 H 0.06023 0.01695 0.13335 0.0
H201 H 0.05707 0.96801 0.14227 0.0
H202 H 0.02964 0.98438 0.22431 0.0
H203 H 0.03313 0.03302 0.21535 0.0
H204 H 0.13334 0.20512 0.09948 0.0
H205 H 0.15216 0.24455 0.0779 0.0
H206 H 0.16609 0.20125 1.00383 0.0
H207 H 0.14773 0.16146 0.02569 0.0
C208 C 0.89923 0.5171 0.11515 0.0
Eu209 Eu 0.94774 0.4979 0.10224 0.0
C210 C 0.88735 0.52892 0.14013 0.0
C211 C 0.89791 0.52063 0.16516 0.0
C212 C 0.88406 0.52839 0.18905 0.0
C213 C 0.85955 0.54465 0.18817 0.0
C214 C 0.85097 0.55576 0.16314 0.0
C215 C 0.86471 0.54776 0.13923 0.0
C216 C 0.9779 0.46242 0.13505 0.0
C217 C 0.98477 0.54376 0.12107 0.0
C218 C 0.05719 0.48059 0.07882 0.0
Eu219 Eu 1.00528 0.49367 0.08267 0.0
C220 C 0.08212 0.4693 0.06399 0.0
C221 C 0.09168 0.48111 0.03956 0.0
C222 C 0.11713 0.47215 0.02823 0.0
C223 C 0.13376 0.45162 0.04135 0.0
C224 C 0.12386 0.43945 0.06535 0.0
C225 C 0.09838 0.44806 0.07641 0.0
C226 C 0.97349 0.51322 0.03869 0.0
C227 C 0.96807 0.45059 0.06383 0.0
O228 O 0.91628 0.53155 0.10178 0.0
O229 O 0.90735 0.49104 0.11668 0.0
O230 O 0.95408 0.45937 0.12725 0.0
O231 O 0.98559 0.48501 0.12473 0.0
O232 O 0.96192 0.53284 0.12343 0.0
O233 O 1.00483 0.53302 0.10561 0.0
O234 O 0.04 0.46387 0.08838 0.0
O235 O 0.04573 0.50463 0.0717 0.0
O236 O 0.99937 0.50815 0.03775 0.0
O237 O 0.96655 0.50748 0.06293 0.0
O238 O 0.99199 0.45297 0.07276 0.0
O239 O 0.94773 0.46897 0.06861 0.0
H240 H 0.91596 0.50679 0.16623 0.0
H241 H 0.89132 0.51965 0.20799 0.0
H242 H 0.83252 0.56897 0.16196 0.0
H243 H 0.85684 0.55511 0.12006 0.0
H244 H 0.07986 0.49772 0.02958 0.0
H245 H 0.12426 0.48201 1.00978 0.0
H246 H 0.1361 0.42351 0.07586 0.0
H247 H 0.09175 0.4387 0.09533 0.0
C248 C 0.10777 0.04343 0.54628 0.0
Eu249 Eu 0.10424 0.02122 0.49967 0.0
C250 C 0.11596 0.03678 0.57425 0.0
C251 C 0.09663 0.03972 0.59548 0.0
C252 C 0.10397 0.03619 0.62226 0.0
C253 C 0.13091 0.02968 0.62858 0.0
C254 C 0.15027 0.02608 0.60728 0.0
C255 C 0.14287 0.0296 0.58038 0.0
C256 C 0.06286 0.98953 0.49207 0.0
C257 C 0.13899 0.96488 0.48966 0.0
C258 C 0.09452 0.98212 0.40278 0.0
Eu259 Eu 0.10265 1.00599 0.44698 0.0
C260 C 0.07146 0.98073 0.38614 0.0
C261 C 0.07556 0.97165 0.35981 0.0
C262 C 0.05455 0.9616 0.34701 0.0
C263 C 0.02977 0.95996 0.36095 0.0
C264 C 0.02459 0.97334 0.3853 0.0
C265 C 0.04545 0.98384 0.39786 0.0
C266 C 0.14836 0.03047 0.45144 0.0
C267 C 0.07807 0.06681 0.45566 0.0
O268 O 0.12644 0.04334 0.52707 0.0
O269 O 0.08617 0.03356 0.53873 0.0
O270 O 0.07955 0.98556 0.5113 0.0
O271 O 0.069 0.00965 0.47723 0.0
O272 O 0.13317 0.98385 0.50752 0.0
O273 O 0.12869 0.96842 0.46534 0.0
O274 O 0.0926 0.97036 0.42677 0.0
O275 O 0.1044 1.00561 0.403 0.0
O276 O 0.13073 0.03719 0.43365 0.0
O277 O 0.1384 0.01442 0.46884 0.0
O278 O 0.07608 0.04558 0.44078 0.0
O279 O 0.0908 0.0628 0.47849 0.0
H280 H 0.07581 0.04551 0.59138 0.0
H281 H 0.08856 0.03958 0.63807 0.0
H282 H 0.17115 0.02078 0.6114 0.0
H283 H 0.1583 0.0272 0.56447 0.0
H284 H 0.09548 0.96966 0.35034 0.0
H285 H 0.05887 0.95134 0.32818 0.0
H286 H 1.00557 0.97222 0.39628 0.0
H287 H 0.04196 0.99153 0.41794 0.0
C288 C 0.07486 0.58311 0.55671 0.0
Eu289 Eu 0.03119 0.56414 0.5402 0.0
C290 C 0.09707 0.59985 0.54647 0.0
C291 C 0.12292 0.5873 0.54047 0.0
C292 C 0.14444 0.60286 0.53322 0.0
C293 C 0.14098 0.63164 0.53176 0.0
C294 C 0.11493 0.64416 0.5373 0.0
C295 C 0.09341 0.62858 0.54459 0.0
C296 C 0.0322 0.5147 0.51435 0.0
C297 C 0.01876 0.57992 0.47907 0.0
C298 C 0.93943 0.52972 0.50609 0.0
Eu299 Eu 0.97976 0.55174 0.52289 0.0
C300 C 0.91648 0.51974 0.52147 0.0
C301 C 0.89954 0.53709 0.53796 0.0
C302 C 0.87467 0.52916 0.54706 0.0
C303 C 0.86627 0.50489 0.53798 0.0
C304 C 0.88577 0.48494 0.52825 0.0
C305 C 0.91066 0.49272 0.51896 0.0
C306 C 0.9776 0.60408 0.54041 0.0
C307 C 0.98547 0.54566 0.58663 0.0
O308 O 0.05078 0.59541 0.56005 0.0
O309 O 0.07428 0.55863 0.54764 0.0
O310 O 0.05001 0.53198 0.51071 0.0
O311 O 0.01519 0.52386 0.53226 0.0
O312 O 0.0309 0.5872 0.50026 0.0
O313 O 0.99997 0.56282 0.48211 0.0
O314 O 0.9624 0.51581 0.51013 0.0
O315 O 0.94088 0.55612 0.50484 0.0
O316 O 0.95981 0.58716 0.54654 0.0
O317 O 0.9964 0.59211 0.52618 0.0
O318 O 0.97234 0.53838 0.5662 0.0
O319 O 0.00828 0.5573 0.5819 0.0
H320 H 0.1267 0.56531 0.54199 0.0
H321 H 0.16404 0.59218 0.52959 0.0
H322 H 0.11104 0.66613 0.53604 0.0
H323 H 0.07394 0.63917 0.54915 0.0
H324 H 0.9043 0.55756 0.54169 0.0
H325 H 0.86018 0.54441 0.5558 0.0
H326 H 0.87998 0.46548 0.52231 0.0
H327 H 0.92419 0.47849 0.50765 0.0
C328 C 0.3968 1.00597 0.61077 0.0
Eu329 Eu 0.4475 0.9995 0.59788 0.0
C330 C 0.38303 0.0199 0.63378 0.0
C331 C 0.39764 0.02587 0.65593 0.0
C332 C 0.38431 0.03499 0.67959 0.0
C333 C 0.35623 0.03848 0.68123 0.0
C334 C 0.34189 0.0358 0.65798 0.0
C335 C 0.35526 0.02637 0.63434 0.0
C336 C 0.48476 0.97828 0.63476 0.0
C337 C 0.47991 0.04969 0.61024 0.0
C338 C 0.55583 0.98918 0.56702 0.0
Eu339 Eu 0.50365 0.99824 0.57399 0.0
C340 C 0.57893 0.97545 0.5512 0.0
C341 C 0.59524 0.99078 0.53389 0.0
C342 C 0.62 0.97914 0.52332 0.0
C343 C 0.62919 0.95193 0.53004 0.0
C344 C 0.61199 0.93619 0.54587 0.0
C345 C 0.58732 0.94778 0.55637 0.0
C346 C 0.46915 0.01787 0.53313 0.0
C347 C 0.46956 0.94991 0.55909 0.0
O348 O 0.40842 0.02192 0.59321 0.0
O349 O 0.41194 0.9836 0.61677 0.0
O350 O 0.46442 0.99576 0.63978 0.0
O351 O 0.48526 0.97404 0.60946 0.0
O352 O 0.45607 0.04187 0.60699 0.0
O353 O 0.50171 0.03492 0.60147 0.0
O354 O 0.54104 0.97402 0.58251 0.0
O355 O 0.54193 0.01041 0.55642 0.0
O356 O 0.49508 0.01537 0.5308 0.0
O357 O 0.46317 0.01094 0.55741 0.0
O358 O 0.49346 0.95899 0.55739 0.0
O359 O 0.44879 0.96236 0.57244 0.0
H360 H 0.4192 0.02182 0.65555 0.0
H361 H 0.39574 0.03699 0.6973 0.0
H362 H 0.3202 0.03833 0.65889 0.0
H363 H 0.3438 0.02259 0.61712 0.0
H364 H 0.58953 0.0122 0.52962 0.0
H365 H 0.63262 0.99195 0.51125 0.0
H366 H 0.61802 0.91503 0.55101 0.0
H367 H 0.57542 0.93527 0.56962 0.0
C368 C 0.5497 0.56565 0.67002 0.0
Eu369 Eu 0.57906 0.5966 0.63941 0.0
C370 C 0.54583 0.53647 0.67407 0.0
C371 C 0.54966 0.5184 0.65273 0.0
C372 C 0.54555 0.49083 0.65708 0.0
C373 C 0.5377 0.4808 0.68287 0.0
C374 C 0.53387 0.49906 0.70412 0.0
C375 C 0.53787 0.5266 0.69972 0.0
C376 C 0.59955 0.5759 0.59143 0.0
C377 C 0.64089 0.59172 0.65863 0.0
C378 C 0.64553 0.65449 0.5757 0.0
Eu379 Eu 0.61573 0.62974 0.6114 0.0
C380 C 0.64804 0.67819 0.55684 0.0
C381 C 0.65381 0.70351 0.56621 0.0
C382 C 0.66379 0.72311 0.5483 0.0
C383 C 0.66836 0.71762 0.52081 0.0
C384 C 0.65985 0.69359 0.51112 0.0
C385 C 0.64985 0.67404 0.52898 0.0
C386 C 0.5981 0.65093 0.65937 0.0
C387 C 0.55152 0.64463 0.60247 0.0
O388 O 0.57243 0.57338 0.6772 0.0
O389 O 0.5421 0.57726 0.64725 0.0
O390 O 0.57471 0.57682 0.59923 0.0
O391 O 0.6127 0.5855 0.60914 0.0
O392 O 0.61543 0.59106 0.66677 0.0
O393 O 0.64655 0.60153 0.63409 0.0
O394 O 0.63029 0.6357 0.56957 0.0
O395 O 0.64524 0.65848 0.60156 0.0
O396 O 0.62199 0.65204 0.6488 0.0
O397 O 0.58354 0.64046 0.64331 0.0
O398 O 0.57587 0.64443 0.59081 0.0
O399 O 0.54851 0.63092 0.62563 0.0
H400 H 0.55589 0.52557 0.63274 0.0
H401 H 0.54896 0.47728 0.64035 0.0
H402 H 0.52749 0.49211 0.72413 0.0
H403 H 0.53468 0.54025 0.7164 0.0
H404 H 0.65261 0.70742 0.58757 0.0
H405 H 0.67022 0.74141 0.5564 0.0
H406 H 0.66287 0.68899 0.48998 0.0
H407 H 0.64553 0.65477 0.52117 0.0
C408 C 0.6121 0.55451 0.05342 0.0
Eu409 Eu 0.60443 0.53007 1.009 0.0
C410 C 0.62073 0.54698 0.08111 0.0
C411 C 0.60151 0.54395 0.1022 0.0
C412 C 0.6093 0.53861 0.12866 0.0
C413 C 0.6365 0.53636 0.13477 0.0
C414 C 0.65582 0.53891 0.11366 0.0
C415 C 0.64802 0.54417 0.0871 0.0
C416 C 0.5624 0.49807 1.00933 0.0
C417 C 0.63731 0.47159 1.00082 0.0
C418 C 0.58397 0.47972 0.92047 0.0
Eu419 Eu 0.59743 0.50936 0.95886 0.0
C420 C 0.56109 0.47567 0.90422 0.0
C421 C 0.56574 0.47203 0.87653 0.0
C422 C 0.54697 0.46044 0.86186 0.0
C423 C 0.52346 0.45232 0.87486 0.0
C424 C 0.5172 0.45937 0.90165 0.0
C425 C 0.536 0.47102 0.91635 0.0
C426 C 0.6445 0.53294 0.95712 0.0
C427 C 0.57759 0.57263 0.96216 0.0
O428 O 0.63006 0.55154 0.03363 0.0
O429 O 0.58888 0.54737 0.04697 0.0
O430 O 0.58113 0.49566 0.02656 0.0
O431 O 0.56698 0.51675 0.99194 0.0
O432 O 0.63472 0.49318 0.01604 0.0
O433 O 0.62338 0.47242 0.97851 0.0
O434 O 0.58212 0.47252 0.94605 0.0
O435 O 0.59566 0.50207 0.91589 0.0
O436 O 0.62676 0.53646 0.93891 0.0
O437 O 0.63522 0.51894 0.97652 0.0
O438 O 0.57349 0.55024 0.94975 0.0
O439 O 0.5914 0.57004 0.98447 0.0
H440 H 0.58033 0.54628 0.09838 0.0
H441 H 0.59388 0.53721 0.1445 0.0
H442 H 0.67694 0.53709 0.11771 0.0
H443 H 0.66336 0.54647 0.07136 0.0
H444 H 0.58486 0.4758 0.86679 0.0
H445 H 0.55208 0.45513 0.84117 0.0
H446 H 0.49919 0.45313 0.91201 0.0
H447 H 0.53182 0.47409 0.93767 0.0
C448 C 0.57999 0.08296 0.04098 0.0
Eu449 Eu 0.53308 0.06612 0.03158 0.0
C450 C 0.60177 0.09978 0.03073 0.0
C451 C 0.62796 0.08718 0.02741 0.0
C452 C 0.64957 0.10251 0.02045 0.0
C453 C 0.64573 0.13105 0.01649 0.0
C454 C 0.6193 0.1436 0.01921 0.0
C455 C 0.59763 0.1282 0.02631 0.0
C456 C 0.53079 0.01641 1.00734 0.0
C457 C 0.51532 0.08946 0.9713 0.0
C458 C 0.44789 0.02089 0.99916 0.0
Eu459 Eu 0.48016 0.05524 0.0115 0.0
C460 C 0.42351 0.01222 0.01244 0.0
C461 C 0.40349 0.03147 0.02231 0.0
C462 C 0.37835 0.02344 0.02972 0.0
C463 C 0.37308 0.99621 0.02676 0.0
C464 C 0.39471 0.97633 0.02262 0.0
C465 C 0.41982 0.98443 0.01476 0.0
C466 C 0.47225 0.10732 0.02703 0.0
C467 C 0.48764 0.04958 0.07717 0.0
O468 O 0.55712 0.09503 0.04978 0.0
O469 O 0.57693 0.0608 0.02842 0.0
O470 O 0.54184 0.01878 0.03025 0.0
O471 O 0.52105 0.0397 0.99997 0.0
O472 O 0.5304 0.09203 0.99222 0.0
O473 O 0.49607 0.07289 0.97251 0.0
O474 O 0.46966 0.01366 0.01226 0.0
O475 O 0.44657 0.04596 0.98876 0.0
O476 O 0.45362 0.09373 0.01816 0.0
O477 O 0.49439 0.09229 0.02868 0.0
O478 O 0.4739 0.04418 0.05628 0.0
O479 O 0.51138 0.05941 0.07322 0.0
H480 H 0.63189 0.06538 0.03095 0.0
H481 H 0.66945 0.09193 0.01909 0.0
H482 H 0.61527 0.16542 0.01596 0.0
H483 H 0.57774 0.13863 0.02873 0.0
H484 H 0.40649 0.05296 0.02209 0.0
H485 H 0.3623 0.03927 0.03357 0.0
H486 H 0.39128 0.95507 0.02118 0.0
H487 H 0.43566 0.96922 1.00847 0.0
C488 C 0.0114 0.21849 0.40037 0.0
C489 C 0.03193 0.23557 0.39354 0.0
C490 C 0.01699 0.19118 0.41094 0.0
C491 C 0.04386 0.1799 0.41479 0.0
C492 C 0.06454 0.19704 0.40786 0.0
C493 C 0.05843 0.22419 0.39765 0.0
C494 C 0.994 0.17426 0.41793 0.0
C495 C 0.09351 0.18645 0.41073 0.0
C496 C 0.06323 0.11749 0.46313 0.0
C497 C 0.06768 0.09546 0.44568 0.0
C498 C 0.05451 0.14443 0.45365 0.0
C499 C 0.05067 0.15039 0.42568 0.0
C500 C 0.05507 0.12813 0.40802 0.0
C501 C 0.06299 0.10126 0.41816 0.0
C502 C 0.0496 0.16673 0.47373 0.0
C503 C 0.05183 0.13267 0.3781 0.0
H504 H 0.99085 0.22638 0.39727 0.0
H505 H 0.0748 0.23647 0.39239 0.0
H506 H 0.99601 0.1557 0.40579 0.0
H507 H 0.99449 0.1674 0.43947 0.0
H508 H 0.97427 0.18567 0.41428 0.0
H509 H 0.10745 0.20191 0.40434 0.0
H510 H 0.09709 0.18005 0.43202 0.0
H511 H 0.09832 0.16819 0.39838 0.0
H512 H 0.06648 0.11367 0.48442 0.0
H513 H 0.06628 0.08479 0.4042 0.0
H514 H 0.0293 0.17739 0.47151 0.0
H515 H 0.06422 0.18206 0.46969 0.0
H516 H 0.05139 0.15879 0.49487 0.0
H517 H 0.03044 0.13838 0.37413 0.0
H518 H 0.05873 0.1142 0.36664 0.0
H519 H 0.06324 0.14973 0.37031 0.0
C520 C 0.05854 0.39498 0.40399 0.0
C521 C 0.04132 0.37392 0.40648 0.0
C522 C 0.05572 0.41771 0.42119 0.0
C523 C 0.03584 0.41955 0.44264 0.0
C524 C 0.01866 0.39807 0.44552 0.0
C525 C 0.0212 0.37615 0.42728 0.0
C526 C 0.07398 0.44012 0.41608 0.0
C527 C 0.99734 0.39817 0.46791 0.0
C528 C 0.04847 0.46581 0.50206 0.0
C529 C 0.03112 0.48954 0.49753 0.0
C530 C 0.04958 0.44297 0.48507 0.0
C531 C 0.03348 0.44353 0.46209 0.0
C532 C 0.0158 0.4675 0.45752 0.0
C533 C 0.01485 0.48991 0.47507 0.0
C534 C 0.06827 0.4181 0.49172 0.0
C535 C 0.99838 0.46992 0.43344 0.0
H536 H 0.07392 0.39411 0.38794 0.0
H537 H 0.00755 0.36038 0.42966 0.0
H538 H 0.06201 0.4602 0.41462 0.0
H539 H 0.0873 0.4407 0.43322 0.0
H540 H 0.08659 0.43729 0.39726 0.0
H541 H 0.98887 0.37817 0.47057 0.0
H542 H 1.00552 0.40331 0.48729 0.0
H543 H 0.98081 0.41395 0.46323 0.0
H544 H 0.06146 0.46513 0.51897 0.0
H545 H 1.0018 0.50816 0.47068 0.0
H546 H 0.08394 0.41501 0.47539 0.0
H547 H 0.05705 0.3997 0.49304 0.0
H548 H 0.07818 0.41982 0.51106 0.0
H549 H 0.0112 0.46955 0.41463 0.0
H550 H 0.9847 0.489 0.43323 0.0
H551 H 0.9862 0.4523 0.43326 0.0
C552 C 0.05776 0.80964 0.21447 0.0
C553 C 0.03465 0.80184 0.22833 0.0
C554 C 0.05923 0.83684 0.2049 0.0
C555 C 0.03748 0.85678 0.21013 0.0
C556 C 0.01416 0.84893 0.22417 0.0
C557 C 0.01289 0.82163 0.2326 0.0
C558 C 0.08428 0.84444 0.1897 0.0
C559 C 0.99043 0.86922 0.23064 0.0
C560 C 0.05163 0.93091 0.21453 0.0
C561 C 0.04224 0.94247 0.1901 0.0
C562 C 0.05037 0.90312 0.22106 0.0
C563 C 0.03975 0.88617 0.20265 0.0
C564 C 0.03014 0.89766 0.17794 0.0
C565 C 0.0316 0.92566 0.1719 0.0
C566 C 0.05921 0.89216 0.2483 0.0
C567 C 0.01788 0.88049 0.15816 0.0
H568 H 0.07466 0.79459 0.21119 0.0
H569 H 0.99496 0.81607 0.24362 0.0
H570 H 0.07905 0.85513 0.17031 0.0
H571 H 0.09439 0.85873 0.20163 0.0
H572 H 0.09857 0.82635 0.18546 0.0
H573 H 0.97748 0.86165 0.2475 0.0
H574 H 0.99678 0.88918 0.2361 0.0
H575 H 0.97813 0.87272 0.21261 0.0
H576 H 0.06001 0.94366 0.22866 0.0
H577 H 0.02388 0.9345 0.15317 0.0
H578 H 0.07411 0.8742 0.24605 0.0
H579 H 0.04158 0.88533 0.25998 0.0
H580 H 0.068 0.90765 0.25997 0.0
H581 H 0.03229 0.86295 0.15254 0.0
H582 H 0.01193 0.8923 0.13954 0.0
H583 H 0.99988 0.87206 0.16771 0.0
C584 C 0.97783 0.68561 0.19796 0.0
C585 C 0.991 0.68168 0.22222 0.0
C586 C 0.97837 0.66433 0.17972 0.0
C587 C 0.9916 0.63837 0.18645 0.0
C588 C 1.00462 0.63441 0.2112 0.0
C589 C 1.00452 0.65623 0.22853 0.0
C590 C 0.96488 0.66962 0.15326 0.0
C591 C 0.01833 0.60702 0.21962 0.0
C592 C 0.96699 0.57589 0.1568 0.0
C593 C 0.98727 0.56823 0.13731 0.0
C594 C 0.96814 0.5987 0.17257 0.0
C595 C 0.99001 0.61471 0.16881 0.0
C596 C 0.01059 0.60733 0.14917 0.0
C597 C 0.00904 0.58409 0.1337 0.0
C598 C 0.94604 0.6054 0.19364 0.0
C599 C 0.0341 0.62411 0.1444 0.0
H600 H 0.96784 0.7055 0.19293 0.0
H601 H 0.01482 0.65334 0.24732 0.0
H602 H 0.97913 0.66367 0.1363 0.0
H603 H 0.94781 0.65697 0.15253 0.0
H604 H 0.95732 0.69138 0.15015 0.0
H605 H 0.02748 0.60737 0.23955 0.0
H606 H 1.00368 0.59146 0.22071 0.0
H607 H 0.03424 0.60044 0.20439 0.0
H608 H 0.95007 0.56385 0.16005 0.0
H609 H 0.02473 0.5785 0.11868 0.0
H610 H 0.93643 0.62629 0.18975 0.0
H611 H 0.95455 0.60499 0.21392 0.0
H612 H 0.93036 0.59091 0.19403 0.0
H613 H 0.0269 0.64496 0.1371 0.0
H614 H 0.04905 0.61503 0.12935 0.0
H615 H 0.04417 0.62621 0.16354 0.0
C616 C 0.38996 0.04828 0.21412 0.0
C617 C 0.39882 0.02929 0.23451 0.0
C618 C 0.40457 0.05128 0.18903 0.0
C619 C 0.42956 0.03572 0.18394 0.0
C620 C 0.43879 0.01684 0.2047 0.0
C621 C 0.42326 0.0135 0.2292 0.0
C622 C 0.39283 0.07082 0.16765 0.0
C623 C 0.46534 1.00009 0.20107 0.0
C624 C 0.45577 0.02568 0.10961 0.0
C625 C 0.47477 0.04494 0.10532 0.0
C626 C 0.44158 0.02218 0.13479 0.0
C627 C 0.44558 0.0387 0.15687 0.0
C628 C 0.46475 0.05824 0.15271 0.0
C629 C 0.47916 0.0609 0.12738 0.0
C630 C 0.42183 1.00089 0.13755 0.0
C631 C 0.46962 0.0769 0.17497 0.0
H632 H 0.37101 0.06038 0.21748 0.0
H633 H 0.43056 0.99876 0.24452 0.0
H634 H 0.40733 0.08563 0.16109 0.0
H635 H 0.38881 0.05938 0.14967 0.0
H636 H 0.37383 0.08222 0.17477 0.0
H637 H 0.47023 0.98676 0.21905 0.0
H638 H 0.46511 0.98717 0.18329 0.0
H639 H 0.48151 0.01377 0.19712 0.0
H640 H 0.45183 0.01315 0.09302 0.0
H641 H 0.49325 0.07623 0.1246 0.0
H642 H 0.40136 0.01089 0.14145 0.0
H643 H 0.42655 0.98684 0.15502 0.0
H644 H 0.42182 0.98869 0.11919 0.0
H645 H 0.45093 0.08989 0.18001 0.0
H646 H 0.48568 0.09032 0.16929 0.0
H647 H 0.47518 0.06473 0.19347 0.0
C648 C 0.63879 0.55378 0.29196 0.0
C649 C 0.65644 0.53497 0.30554 0.0
C650 C 0.63766 0.55354 0.26364 0.0
C651 C 0.65509 0.53463 0.24877 0.0
C652 C 0.67367 0.51639 0.26241 0.0
C653 C 0.67396 0.5167 0.2905 0.0
C654 C 0.61754 0.5732 0.24959 0.0
C655 C 0.69359 0.49676 0.24752 0.0
C656 C 0.63123 0.51553 0.18128 0.0
C657 C 0.64421 0.53315 0.16336 0.0
C658 C 0.63535 0.51518 0.20903 0.0
C659 C 0.65284 0.5329 0.21913 0.0
C660 C 0.66755 0.54923 0.20097 0.0
C661 C 0.66295 0.54928 0.17326 0.0
C662 C 0.62055 0.49625 0.22765 0.0
C663 C 0.68744 0.56731 0.21087 0.0
H664 H 0.62564 0.56821 0.30344 0.0
H665 H 0.68849 0.50274 0.30071 0.0
H666 H 0.62792 0.58574 0.23413 0.0
H667 H 0.60348 0.56166 0.23895 0.0
H668 H 0.60581 0.58699 0.26384 0.0
H669 H 0.7032 0.48081 0.26128 0.0
H670 H 0.68396 0.4866 0.23147 0.0
H671 H 0.70959 0.50818 0.23768 0.0
H672 H 0.61738 0.5024 0.17362 0.0
H673 H 0.67317 0.56285 0.15953 0.0
H674 H 0.60745 0.50829 0.24232 0.0
H675 H 0.63503 0.48268 0.23937 0.0
H676 H 0.60804 0.48337 0.21654 0.0
H677 H 0.6767 0.58382 0.22284 0.0
H678 H 0.69908 0.5767 0.19402 0.0
H679 H 0.70163 0.55549 0.22435 0.0
C680 C 0.4104 0.02407 0.38181 0.0
C681 C 0.38583 0.03986 0.37797 0.0
C682 C 0.42237 0.0208 0.40749 0.0
C683 C 0.4093 0.03249 0.431 0.0
C684 C 0.38395 0.04764 0.42739 0.0
C685 C 0.37299 0.05158 0.40123 0.0
C686 C 0.44938 1.00482 0.4094 0.0
C687 C 0.36816 0.05992 0.4512 0.0
C688 C 0.43278 1.00467 0.50221 0.0
C689 C 0.45091 0.0232 0.50915 0.0
C690 C 0.41911 1.00739 0.47738 0.0
C691 C 0.42266 0.02973 0.45874 0.0
C692 C 0.44002 0.0491 0.46641 0.0
C693 C 0.45419 0.0453 0.49078 0.0
C694 C 0.40132 0.98579 0.47079 0.0
C695 C 0.44407 0.07386 0.44848 0.0
H696 H 0.42064 0.01451 0.36446 0.0
H697 H 0.35376 0.06327 0.39916 0.0
H698 H 0.46399 0.01802 0.41687 0.0
H699 H 0.44809 0.98747 0.42416 0.0
H700 H 0.45713 0.9968 0.38968 0.0
H701 H 0.3467 0.06483 0.44681 0.0
H702 H 0.36951 0.04591 0.46923 0.0
H703 H 0.37653 0.07903 0.45627 0.0
H704 H 0.43015 0.98722 0.51568 0.0
H705 H 0.46811 0.05979 0.49546 0.0
H706 H 0.40964 0.97507 0.45259 0.0
H707 H 0.38108 0.99533 0.46608 0.0
H708 H 0.3994 0.97047 0.48759 0.0
H709 H 0.45343 0.06743 0.42879 0.0
H710 H 0.45692 0.08789 0.4576 0.0
H711 H 0.42443 0.08521 0.44439 0.0
C712 C 0.62879 0.49353 0.45566 0.0
C713 C 0.65466 0.49587 0.44472 0.0
C714 C 0.6212 0.5032 0.4816 0.0
C715 C 0.63919 0.51747 0.49588 0.0
C716 C 0.66574 0.51868 0.4852 0.0
C717 C 0.67326 0.50693 0.46039 0.0
C718 C 0.59346 0.49923 0.49306 0.0
C719 C 0.68616 0.53408 0.49819 0.0
C720 C 0.60494 0.57232 0.54145 0.0
C721 C 0.61102 0.56167 0.56722 0.0
C722 C 0.6147 0.55858 0.51813 0.0
C723 C 0.62964 0.53275 0.52065 0.0
C724 C 0.63599 0.52207 0.54677 0.0
C725 C 0.62697 0.53689 0.56972 0.0
C726 C 0.6096 0.5721 0.49081 0.0
C727 C 0.65248 0.4951 0.55048 0.0
H728 H 0.61419 0.48535 0.44356 0.0
H729 H 0.69328 0.50896 0.45196 0.0
H730 H 0.59356 0.49543 0.51524 0.0
H731 H 0.57991 0.51788 0.48896 0.0
H732 H 0.58512 0.4819 0.48373 0.0
H733 H 0.69268 0.5502 0.4838 0.0
H734 H 0.67881 0.54384 0.51717 0.0
H735 H 0.70423 0.52 0.5023 0.0
H736 H 0.59286 0.59167 0.53954 0.0
H737 H 0.63176 0.52873 0.58968 0.0
H738 H 0.59553 0.5608 0.48001 0.0
H739 H 0.62856 0.57176 0.47835 0.0
H740 H 0.6009 0.59359 0.49237 0.0
H741 H 0.64474 0.47941 0.53823 0.0
H742 H 0.65255 0.48783 0.57193 0.0
H743 H 0.67347 0.49726 0.54337 0.0
C744 C 0.27989 0.37861 0.01114 0.0
C745 C 0.29774 0.39278 0.99465 0.0
C746 C 0.25322 0.3889 0.01649 0.0
C747 C 0.24372 0.41483 1.00579 0.0
C748 C 0.26161 0.42959 0.98912 0.0
C749 C 0.28833 0.41828 0.98344 0.0
C750 C 0.23572 0.37233 0.03481 0.0
C751 C 0.25295 0.458 0.97867 0.0
C752 C 0.16734 0.43222 1.00589 0.0
C753 C 0.16189 0.44382 0.03115 0.0
C754 C 0.19382 0.42319 0.99715 0.0
C755 C 0.21565 0.42675 0.01355 0.0
C756 C 0.21012 0.43927 0.03877 0.0
C757 C 0.18344 0.44715 0.04736 0.0
C758 C 0.19828 0.40847 0.97103 0.0
C759 C 0.2321 0.4436 0.05747 0.0
H760 H 0.28713 0.35951 0.02077 0.0
H761 H 0.30212 0.42988 0.97143 0.0
H762 H 0.23425 0.38081 0.05523 0.0
H763 H 0.21516 0.37313 0.02732 0.0
H764 H 0.24416 0.35073 0.03672 0.0
H765 H 0.26885 0.46683 0.9658 0.0
H766 H 0.23474 0.45791 0.96686 0.0
H767 H 0.24767 0.4714 0.99596 0.0
H768 H 0.15075 0.42924 0.99342 0.0
H769 H 0.1794 0.45601 0.06696 0.0
H770 H 0.20652 0.38711 0.97529 0.0
H771 H 0.21321 0.41821 0.9577 0.0
H772 H 0.17951 0.40817 0.96006 0.0
H773 H 0.2348 0.4258 0.07175 0.0
H774 H 0.22669 0.46192 0.06964 0.0
H775 H 0.25149 0.44596 0.04642 0.0
C776 C 0.27827 0.70466 0.52704 0.0
C777 C 0.28101 0.72396 0.50585 0.0
C778 C 0.25589 0.68929 0.52966 0.0
C779 C 0.23497 0.69394 0.51126 0.0
C780 C 0.2377 0.71345 0.48972 0.0
C781 C 0.26081 0.72788 0.48705 0.0
C782 C 0.25451 0.66826 0.55244 0.0
C783 C 0.21569 0.71999 0.47015 0.0
C784 C 0.18579 0.63901 0.50755 0.0
C785 C 0.1645 0.64836 0.52532 0.0
C786 C 0.20845 0.65375 0.50244 0.0
C787 C 0.21012 0.67882 0.5151 0.0
C788 C 0.18845 0.68881 0.53244 0.0
C789 C 0.16616 0.67351 0.53743 0.0
C790 C 0.23091 0.64221 0.48379 0.0
C791 C 0.18899 0.71555 0.54616 0.0
H792 H 0.29371 0.70163 0.54173 0.0
H793 H 0.26247 0.74322 0.47098 0.0
H794 H 0.23696 0.67383 0.56617 0.0
H795 H 0.25177 0.6481 0.54428 0.0
H796 H 0.27283 0.66626 0.56437 0.0
H797 H 0.22155 0.73417 0.45346 0.0
H798 H 0.21005 0.70108 0.46141 0.0
H799 H 0.19761 0.72954 0.48102 0.0
H800 H 0.18482 0.62005 0.49748 0.0
H801 H 0.1503 0.68108 0.55146 0.0
H802 H 0.2497 0.63872 0.49487 0.0
H803 H 0.23451 0.65702 0.46693 0.0
H804 H 0.2266 0.62268 0.47523 0.0
H805 H 0.20553 0.71401 0.56038 0.0
H806 H 0.16991 0.72153 0.55754 0.0
H807 H 0.1929 0.73199 0.53101 0.0
C808 C 0.92527 0.91414 0.49669 0.0
C809 C 0.92545 0.89429 0.47704 0.0
C810 C 0.94679 0.93043 0.49864 0.0
C811 C 0.96981 0.92647 0.48105 0.0
C812 C 0.96997 0.90658 0.461 0.0
C813 C 0.94778 0.89104 0.45902 0.0
C814 C 0.94493 0.95177 0.51981 0.0
C815 C 0.99399 0.901 0.44211 0.0
C816 C 0.01846 0.98266 0.47175 0.0
C817 C 0.0389 0.97365 0.48931 0.0
C818 C 0.99608 0.96763 0.46887 0.0
C819 C 0.99372 0.94279 0.4839 0.0
C820 C 0.01419 0.93375 0.5019 0.0
C821 C 0.0363 0.94923 0.50444 0.0
C822 C 0.97469 0.97853 0.44988 0.0
C823 C 0.01281 0.90757 0.51847 0.0
H824 H 0.90813 0.91696 0.51072 0.0
H825 H 0.94841 0.87555 0.44402 0.0
H826 H 0.96068 0.94666 0.53462 0.0
H827 H 0.94845 0.97193 0.51032 0.0
H828 H 0.92512 0.95353 0.53084 0.0
H829 H 0.98985 0.88721 0.42597 0.0
H830 H 1.00024 0.92027 0.43267 0.0
H831 H 0.01103 0.89137 0.45365 0.0
H832 H 0.0198 1.00173 0.46042 0.0
H833 H 0.05177 0.94202 0.51821 0.0
H834 H 0.95535 0.98266 0.46136 0.0
H835 H 0.97176 0.96309 0.43488 0.0
H836 H 0.97969 0.99761 0.43897 0.0
H837 H 0.99453 0.90894 0.53194 0.0
H838 H 0.03051 0.90287 0.53105 0.0
H839 H 0.0114 0.89036 0.50499 0.0
C840 C 0.4263 0.74859 0.54762 0.0
C841 C 0.40247 0.73574 0.5514 0.0
C842 C 0.45166 0.73481 0.55338 0.0
C843 C 0.45368 0.70708 0.5628 0.0
C844 C 0.42969 0.69376 0.56547 0.0
C845 C 0.40455 0.70819 0.56 0.0
C846 C 0.47629 0.75008 0.5495 0.0
C847 C 0.43059 0.66408 0.57422 0.0
C848 C 0.52239 0.66335 0.56372 0.0
C849 C 0.52783 0.66207 0.59133 0.0
C850 C 0.49866 0.67787 0.55397 0.0
C851 C 0.48018 0.69257 0.57199 0.0
C852 C 0.48651 0.6924 0.5996 0.0
C853 C 0.50966 0.67684 0.60892 0.0
C854 C 0.49328 0.6771 0.52438 0.0
C855 C 0.46861 0.70869 0.61953 0.0
H856 H 0.42506 0.76968 0.54033 0.0
H857 H 0.38645 0.69782 0.56234 0.0
H858 H 0.48805 0.74807 0.56798 0.0
H859 H 0.48929 0.74116 0.53283 0.0
H860 H 0.47126 0.77208 0.54452 0.0
H861 H 0.41076 0.65595 0.57336 0.0
H862 H 0.44529 0.65181 0.56116 0.0
H863 H 0.43738 0.66138 0.59519 0.0
H864 H 0.5362 0.65213 0.54984 0.0
H865 H 0.51372 0.67643 0.6302 0.0
H866 H 0.49651 0.69713 0.51449 0.0
H867 H 0.47219 0.67321 0.52153 0.0
H868 H 0.50673 0.6612 0.51401 0.0
H869 H 0.46547 0.73027 0.61221 0.0
H870 H 0.47707 0.7081 0.63986 0.0
H871 H 0.4487 0.70061 0.62136 0.0
C872 C 0.51274 0.72178 0.89712 0.0
C873 C 0.53315 0.73873 0.88927 0.0
C874 C 0.51843 0.69495 0.90902 0.0
C875 C 0.54531 0.6839 0.91337 0.0
C876 C 0.56589 0.70085 0.90528 0.0
C877 C 0.55968 0.72754 0.89369 0.0
C878 C 0.49547 0.67831 0.917 0.0
C879 C 0.59488 0.69055 0.90846 0.0
C880 C 0.56408 0.62433 0.96577 0.0
C881 C 0.56808 0.60092 0.95003 0.0
C882 C 0.55585 0.65078 0.95444 0.0
C883 C 0.55215 0.65494 0.92619 0.0
C884 C 0.55632 0.63132 0.91022 0.0
C885 C 0.56363 0.60498 0.92222 0.0
C886 C 0.55116 0.67447 0.97291 0.0
C887 C 0.55335 0.63378 0.88012 0.0
H888 H 0.49215 0.72941 0.89385 0.0
H889 H 0.57601 0.73964 0.88769 0.0
H890 H 0.49768 0.65894 0.90611 0.0
H891 H 0.49579 0.67289 0.93889 0.0
H892 H 0.47575 0.68933 0.91257 0.0
H893 H 0.60877 0.70567 0.90094 0.0
H894 H 0.59857 0.68553 0.93002 0.0
H895 H 0.59964 0.6715 0.89729 0.0
H896 H 0.56716 0.62198 0.98722 0.0
H897 H 0.56662 0.5875 0.90947 0.0
H898 H 0.53087 0.68498 0.97021 0.0
H899 H 0.56581 0.68952 0.96764 0.0
H900 H 0.55305 0.66802 0.99447 0.0
H901 H 0.53194 0.63868 0.87575 0.0
H902 H 0.56074 0.61466 0.86996 0.0
H903 H 0.56446 0.65063 0.87126 0.0
C904 C 0.5606 0.8972 0.8964 0.0
C905 C 0.54253 0.87694 0.89872 0.0
C906 C 0.55847 0.91978 0.91366 0.0
C907 C 0.53834 0.92218 0.93479 0.0
C908 C 0.52021 0.90159 0.93738 0.0
C909 C 0.52223 0.87972 0.91924 0.0
C910 C 0.57774 0.94134 0.90899 0.0
C911 C 0.49845 0.90268 0.95938 0.0
C912 C 0.54853 0.96741 0.99552 0.0
C913 C 0.53233 0.99163 0.9897 0.0
C914 C 0.55065 0.94494 0.97802 0.0
C915 C 0.53613 0.94615 0.95392 0.0
C916 C 0.51955 0.97051 0.94816 0.0
C917 C 0.518 0.99269 0.96582 0.0
C918 C 0.56865 0.91976 0.9853 0.0
C919 C 0.50363 0.97342 0.92298 0.0
H920 H 0.57614 0.89579 0.88052 0.0
H921 H 0.508 0.86449 0.92141 0.0
H922 H 0.56655 0.96177 0.90686 0.0
H923 H 0.59044 0.94168 0.92666 0.0
H924 H 0.59094 0.9378 0.89066 0.0
H925 H 0.48722 0.88429 0.96019 0.0
H926 H 0.50721 0.90464 0.97926 0.0
H927 H 0.48413 0.92092 0.956 0.0
H928 H 0.55991 0.96613 0.01362 0.0
H929 H 0.50544 0.01113 0.96078 0.0
H930 H 0.58442 0.91593 0.96916 0.0
H931 H 0.5569 0.90175 0.98683 0.0
H932 H 0.57844 0.92156 1.00469 0.0
H933 H 0.51746 0.97224 0.90491 0.0
H934 H 0.49078 0.99301 0.92182 0.0
H935 H 0.49072 0.95643 0.92221 0.0
C936 C 0.49469 0.33035 0.71784 0.0
C937 C 0.51695 0.31081 0.71815 0.0
C938 C 0.49751 0.35788 0.71118 0.0
C939 C 0.52294 0.36582 0.70228 0.0
C940 C 0.54489 0.34557 0.69961 0.0
C941 C 0.54186 0.3185 0.70843 0.0
C942 C 0.47322 0.37818 0.71502 0.0
C943 C 0.57192 0.35257 0.68843 0.0
C944 C 0.52079 0.4371 0.66916 0.0
C945 C 0.53387 0.45136 0.68774 0.0
C946 C 0.51742 0.40924 0.67339 0.0
C947 C 0.52694 0.39526 0.69709 0.0
C948 C 0.5399 0.40976 0.71611 0.0
C949 C 0.54337 0.43744 0.71104 0.0
C950 C 0.50325 0.39526 0.65242 0.0
C951 C 0.55044 0.39671 0.74203 0.0
H952 H 0.47514 0.32462 0.72476 0.0
H953 H 0.5591 0.30351 0.70814 0.0
H954 H 0.47854 0.39906 0.71849 0.0
H955 H 0.46111 0.37879 0.69684 0.0
H956 H 0.46022 0.37179 0.73238 0.0
H957 H 0.58396 0.33435 0.6804 0.0
H958 H 0.56988 0.36854 0.67209 0.0
H959 H 0.58311 0.36043 0.70477 0.0
H960 H 0.51292 0.44779 0.65132 0.0
H961 H 0.55382 0.44815 0.72539 0.0
H962 H 0.48135 0.39821 0.65692 0.0
H963 H 0.50942 0.37306 0.65199 0.0
H964 H 0.50704 0.40442 0.63198 0.0
H965 H 0.544 0.40997 0.75918 0.0
H966 H 0.57266 0.39514 0.74071 0.0
H967 H 0.54392 0.37616 0.74674 0.0
C968 C 0.45846 0.18699 0.6951 0.0
C969 C 0.47862 0.18803 0.7136 0.0
C970 C 0.45936 0.16561 0.67681 0.0
C971 C 0.48042 0.14423 0.67762 0.0
C972 C 0.50059 0.14515 0.69656 0.0
C973 C 0.49964 0.16714 0.71393 0.0
C974 C 0.4378 0.16594 0.65658 0.0
C975 C 0.52298 0.1226 0.69887 0.0
C976 C 0.4665 0.07512 0.65188 0.0
C977 C 0.48148 0.07368 0.62732 0.0
C978 C 0.46627 0.09769 0.66842 0.0
C979 C 0.48063 0.12011 0.6599 0.0
C980 C 0.49568 0.11893 0.63494 0.0
C981 C 0.49629 0.09553 0.61915 0.0
C982 C 0.45081 0.09738 0.69523 0.0
C983 C 0.51053 0.1427 0.62461 0.0
H984 H 0.44229 0.20318 0.69454 0.0
H985 H 0.51523 0.16768 0.72827 0.0
H986 H 0.44698 0.16348 0.63596 0.0
H987 H 0.4256 0.14855 0.66096 0.0
H988 H 0.42427 0.18512 0.65684 0.0
H989 H 0.5367 0.12599 0.7151 0.0
H990 H 0.51455 0.10279 0.70308 0.0
H991 H 0.53483 0.12096 0.67951 0.0
H992 H 0.45512 0.05823 0.65837 0.0
H993 H 0.50761 0.0947 0.60004 0.0
H994 H 0.43478 0.11446 0.69566 0.0
H995 H 0.46432 0.10033 0.71175 0.0
H996 H 0.44151 0.07799 0.69938 0.0
H997 H 0.49604 0.16083 0.62132 0.0
H998 H 0.52203 0.13837 0.60537 0.0
H999 H 0.52454 0.14809 0.63977 0.0
C1000 C 0.91971 0.51303 0.73837 0.0
C1001 C 0.89507 0.5286 0.74304 0.0
C1002 C 0.93546 0.51609 0.71401 0.0
C1003 C 0.92621 0.53441 0.69282 0.0
C1004 C 0.90096 0.54969 0.69727 0.0
C1005 C 0.88614 0.54701 0.72222 0.0
C1006 C 0.96226 0.4997 0.71101 0.0
C1007 C 0.88914 0.56849 0.67533 0.0
C1008 C 0.97609 0.5588 0.63627 0.0
C1009 C 0.97253 0.54175 0.61481 0.0
C1010 C 0.96126 0.55677 0.66142 0.0
C1011 C 0.94245 0.53693 0.66592 0.0
C1012 C 0.93911 0.5195 0.64441 0.0
C1013 C 0.95383 0.52222 0.61947 0.0
C1014 C 0.96533 0.57636 0.68312 0.0
C1015 C 0.91955 0.49803 0.64753 0.0
H1016 H 0.92702 0.49877 0.7541 0.0
H1017 H 0.86702 0.55891 0.72518 0.0
H1018 H 0.9624 0.48618 0.69364 0.0
H1019 H 0.97821 0.51359 0.70673 0.0
H1020 H 0.96721 0.48699 0.72938 0.0
H1021 H 0.87016 0.5801 0.68218 0.0
H1022 H 0.90359 0.58312 0.66814 0.0
H1023 H 0.88504 0.55639 0.65783 0.0
H1024 H 0.98984 0.5744 0.63313 0.0
H1025 H 0.95046 0.50892 0.60332 0.0
H1026 H 0.97129 0.56489 0.70189 0.0
H1027 H 0.94623 0.5888 0.68788 0.0
H1028 H 0.98084 0.59031 0.67705 0.0
H1029 H 0.92518 0.48362 0.66447 0.0
H1030 H 0.91883 0.48627 0.62897 0.0
H1031 H 0.89917 0.50771 0.65253 0.0
C1032 C 0.14786 0.05936 0.78336 0.0
C1033 C 0.16106 0.03745 0.7976 0.0
C1034 C 0.14376 0.05763 0.75556 0.0
C1035 C 0.15398 0.03392 0.74168 0.0
C1036 C 0.16812 0.01222 0.75585 0.0
C1037 C 0.17105 0.01407 0.78354 0.0
C1038 C 0.12821 0.08098 0.74102 0.0
C1039 C 0.18021 0.98692 0.7419 0.0
C1040 C 0.122 0.01674 0.67731 0.0
C1041 C 0.13858 0.02822 0.65731 0.0
C1042 C 0.12684 0.01837 0.70478 0.0
C1043 C 0.14918 0.0313 0.71254 0.0
C1044 C 0.16707 0.04126 0.69245 0.0
C1045 C 0.16137 0.03992 0.66509 0.0
C1046 C 0.10789 1.00634 0.72544 0.0
C1047 C 0.19196 0.05378 0.69983 0.0
H1048 H 0.14042 0.07753 0.79398 0.0
H1049 H 0.18193 0.99715 0.7941 0.0
H1050 H 0.14112 0.08961 0.72478 0.0
H1051 H 0.11093 0.07348 0.73132 0.0
H1052 H 0.12067 0.0975 0.75478 0.0
H1053 H 0.16409 0.9743 0.7369 0.0
H1054 H 0.19093 0.99241 0.72272 0.0
H1055 H 0.19442 0.97421 0.75473 0.0
H1056 H 0.10489 1.00679 0.67147 0.0
H1057 H 0.17436 0.04883 0.64986 0.0
H1058 H 0.10245 0.02065 0.74195 0.0
H1059 H 0.11782 0.98736 0.73456 0.0
H1060 H 0.08923 1.00123 0.71639 0.0
H1061 H 0.18624 0.07422 0.70805 0.0
H1062 H 0.20601 0.05611 0.68214 0.0
H1063 H 0.20263 0.04118 0.7157 0.0
C1064 C 0.89983 0.5581 0.89581 0.0
C1065 C 0.8835 0.53889 0.88654 0.0
C1066 C 0.91286 0.55441 0.92101 0.0
C1067 C 0.90925 0.53131 0.93862 0.0
C1068 C 0.89182 0.51248 0.92982 0.0
C1069 C 0.87975 0.5162 0.90418 0.0
C1070 C 0.93106 0.57524 0.92863 0.0
C1071 C 0.88574 0.48818 0.94762 0.0
C1072 C 0.96578 0.50764 0.98858 0.0
C1073 C 0.95596 0.5174 0.01384 0.0
C1074 C 0.95065 0.51121 0.9648 0.0
C1075 C 0.92488 0.52607 0.96506 0.0
C1076 C 0.9147 0.53595 0.99061 0.0
C1077 C 0.92996 0.53121 0.01444 0.0
C1078 C 0.96241 0.49881 0.93911 0.0
C1079 C 0.88767 0.55202 0.99278 0.0
H1080 H 0.90309 0.57583 0.88295 0.0
H1081 H 0.86689 0.50129 0.89805 0.0
H1082 H 0.92439 0.58352 0.94855 0.0
H1083 H 0.95171 0.56537 0.93059 0.0
H1084 H 0.93155 0.59241 0.91353 0.0
H1085 H 0.87247 0.47491 0.93799 0.0
H1086 H 0.90459 0.4759 0.95266 0.0
H1087 H 0.87586 0.49519 0.96688 0.0
H1088 H 0.98547 0.49657 0.98742 0.0
H1089 H 0.92174 0.53901 0.03348 0.0
H1090 H 0.9649 0.5151 0.92342 0.0
H1091 H 0.94854 0.48495 0.93141 0.0
H1092 H 0.98213 0.48707 0.94202 0.0
H1093 H 0.88807 0.57121 0.9804 0.0
H1094 H 0.88171 0.55722 0.01392 0.0
H1095 H 0.87218 0.54032 0.98469 0.0
C1096 C 0.12349 0.01237 0.94318 0.0
C1097 C 0.15063 1.00585 0.93645 0.0
C1098 C 0.11507 0.02077 0.96938 0.0
C1099 C 0.13435 0.02384 0.98892 0.0
C1100 C 0.16173 0.01658 0.98224 0.0
C1101 C 0.16933 1.00737 0.95633 0.0
C1102 C 0.08564 0.02776 0.9757 0.0
C1103 C 0.18327 0.02022 1.00176 0.0
C1104 C 0.11533 0.07696 0.04238 0.0
C1105 C 0.10841 0.0608 0.06498 0.0
C1106 C 0.12418 0.06521 0.01773 0.0
C1107 C 0.1261 0.03647 0.01548 0.0
C1108 C 0.11981 0.02001 0.03853 0.0
C1109 C 0.11077 0.03238 0.06289 0.0
C1110 C 0.13101 0.08363 0.99392 0.0
C1111 C 0.12216 0.98934 0.0373 0.0
H1112 H 0.10899 0.01201 0.9277 0.0
H1113 H 0.19027 1.00318 0.95098 0.0
H1114 H 0.07962 0.01801 0.99526 0.0
H1115 H 0.08156 0.05013 0.97759 0.0
H1116 H 0.07305 0.02116 0.95977 0.0
H1117 H 0.20361 0.01308 0.99362 0.0
H1118 H 0.18303 0.04208 1.00642 0.0
H1119 H 0.17936 1.0089 0.02104 0.0
H1120 H 0.11299 0.0989 0.04367 0.0
H1121 H 0.10534 0.01982 0.08031 0.0
H1122 H 0.11712 0.08151 0.97753 0.0
H1123 H 0.15157 0.07758 0.98578 0.0
H1124 H 0.12972 0.10542 0.99926 0.0
H1125 H 0.10841 0.98312 0.02228 0.0
H1126 H 0.11736 0.97936 0.05713 0.0
H1127 H 0.14278 0.98171 0.03053 0.0
C1128 C 0.77681 0.87699 0.49721 0.0
C1129 C 0.79607 0.89109 0.50907 0.0
C1130 C 0.74975 0.88743 0.49683 0.0
C1131 C 0.74161 0.91296 0.50815 0.0
C1132 C 0.76136 0.92818 0.51841 0.0
C1133 C 0.78829 0.91686 0.51928 0.0
C1134 C 0.72982 0.87082 0.48482 0.0
C1135 C 0.75388 0.95641 0.52863 0.0
C1136 C 0.67027 0.9467 0.49807 0.0
C1137 C 0.65747 0.94081 0.52311 0.0
C1138 C 0.69747 0.93762 0.49251 0.0
C1139 C 0.71232 0.92214 0.51245 0.0
C1140 C 0.69917 0.91545 0.53734 0.0
C1141 C 0.67221 0.92498 0.5424 0.0
C1142 C 0.70983 0.94443 0.46512 0.0
C1143 C 0.71372 0.89828 0.55889 0.0
H1144 H 0.78286 0.85728 0.48877 0.0
H1145 H 0.80323 0.92821 0.52766 0.0
H1146 H 0.7138 0.86663 0.50013 0.0
H1147 H 0.72016 0.88249 0.46779 0.0
H1148 H 0.73939 0.85117 0.47723 0.0
H1149 H 0.77176 0.96698 0.5328 0.0
H1150 H 0.74191 0.96886 0.51356 0.0
H1151 H 0.74122 0.95514 0.54745 0.0
H1152 H 0.65903 0.95842 0.48274 0.0
H1153 H 0.66283 0.92052 0.56194 0.0
H1154 H 0.70647 0.92819 0.45111 0.0
H1155 H 0.73171 0.94588 0.46572 0.0
H1156 H 0.70026 0.96394 0.45661 0.0
H1157 H 0.72259 0.87876 0.55045 0.0
H1158 H 0.70034 0.89363 0.57656 0.0
H1159 H 0.73038 0.9091 0.56594 0.0
C1160 C 0.76688 0.22602 0.97733 0.0
C1161 C 0.78467 0.22373 0.99845 0.0
C1162 C 0.74451 0.21062 0.97797 0.0
C1163 C 0.7402 0.19202 0.99993 0.0
C1164 C 0.75907 0.1886 0.02046 0.0
C1165 C 0.78078 0.20472 0.01965 0.0
C1166 C 0.72475 0.21538 0.9559 0.0
C1167 C 0.75589 0.16851 0.04383 0.0
C1168 C 0.6699 0.17342 0.02141 0.0
C1169 C 0.66931 0.1475 1.01063 0.0
C1170 C 0.69242 0.18838 0.01735 0.0
C1171 C 0.71532 0.1772 1.0024 0.0
C1172 C 0.71481 0.15131 0.99109 0.0
C1173 C 0.69186 0.13695 0.99513 0.0
C1174 C 0.69195 0.21599 0.02964 0.0
C1175 C 0.73877 0.13851 0.97518 0.0
H1176 H 0.76956 0.24098 0.9611 0.0
H1177 H 0.79452 0.20283 0.03599 0.0
H1178 H 0.72028 0.19572 0.9478 0.0
H1179 H 0.70563 0.22544 0.96432 0.0
H1180 H 0.73218 0.22847 0.93902 0.0
H1181 H 0.77307 0.16718 0.05731 0.0
H1182 H 0.73731 0.17461 0.05591 0.0
H1183 H 0.75394 0.14794 0.03624 0.0
H1184 H 0.65299 0.18182 0.03375 0.0
H1185 H 0.6917 0.11729 0.98615 0.0
H1186 H 0.69708 0.2315 0.01395 0.0
H1187 H 0.70726 0.21535 0.04514 0.0
H1188 H 0.67211 0.22265 0.03923 0.0
H1189 H 0.74389 0.1521 0.95778 0.0
H1190 H 0.73524 0.11832 0.96753 0.0
H1191 H 0.75642 0.13588 0.98802 0.0
C1192 C 0.44645 0.39534 1.00223 0.0
C1193 C 0.42662 0.3986 0.02307 0.0
C1194 C 0.46804 0.4118 0.99981 0.0
C1195 C 0.46974 0.43286 0.01819 0.0
C1196 C 0.44944 0.4366 0.03902 0.0
C1197 C 0.42847 0.4192 0.04148 0.0
C1198 C 0.48938 0.40621 0.9778 0.0
C1199 C 0.44967 0.45928 0.05852 0.0
C1200 C 0.5384 0.45855 0.02862 0.0
C1201 C 0.53847 0.48173 0.0112 0.0
C1202 C 0.51636 0.44263 0.03101 0.0
C1203 C 0.4932 0.45019 0.01611 0.0
C1204 C 0.493 0.4738 0.99869 0.0
C1205 C 0.51566 0.48901 0.9962 0.0
C1206 C 0.51806 0.41735 0.04924 0.0
C1207 C 0.46888 0.48299 0.98249 0.0
H1208 H 0.44538 0.37942 0.98795 0.0
H1209 H 0.41314 0.42216 0.05745 0.0
H1210 H 0.49148 0.42482 0.96493 0.0
H1211 H 0.50898 0.40053 0.98695 0.0
H1212 H 0.48494 0.3895 0.96478 0.0
H1213 H 0.4318 0.46054 0.07261 0.0
H1214 H 0.46788 0.45616 0.0705 0.0
H1215 H 0.45034 0.47909 0.04722 0.0
H1216 H 0.55587 0.45255 0.04025 0.0
H1217 H 0.51538 0.50682 0.98268 0.0
H1218 H 0.51532 0.39923 0.03742 0.0
H1219 H 0.50176 0.41897 0.06509 0.0
H1220 H 0.53754 0.4139 0.05917 0.0
H1221 H 0.46763 0.46889 0.96581 0.0
H1222 H 0.46989 0.50391 0.97362 0.0
H1223 H 0.45019 0.4825 0.99526 0.0
C1224 C 0.90307 0.22182 0.07829 0.0
C1225 C 0.89958 0.2351 0.05295 0.0
C1226 C 0.92765 0.20689 0.08496 0.0
C1227 C 0.95005 0.20547 0.06628 0.0
C1228 C 0.94682 0.21929 0.04079 0.0
C1229 C 0.92177 0.23344 0.03437 0.0
C1230 C 0.92965 0.19242 0.11219 0.0
C1231 C 0.96968 0.21896 0.01995 0.0
C1232 C 0.01964 0.18614 0.09611 0.0
C1233 C 0.02339 0.15778 0.09312 0.0
C1234 C 0.99643 0.20193 0.08694 0.0
C1235 C 0.97646 0.1894 0.07368 0.0
C1236 C 0.98114 0.16099 0.06911 0.0
C1237 C 1.00407 0.14555 0.07931 0.0
C1238 C 0.99304 0.23207 0.09191 0.0
C1239 C 0.96171 0.14677 0.05362 0.0
H1240 H 0.88634 0.22273 0.0929 0.0
H1241 H 0.91973 0.24367 0.01476 0.0
H1242 H 0.93474 0.17024 0.10958 0.0
H1243 H 0.94602 0.19996 0.1233 0.0
H1244 H 0.91073 0.19537 0.12463 0.0
H1245 H 0.96623 0.23535 1.00416 0.0
H1246 H 0.98891 0.22136 0.02937 0.0
H1247 H 0.97179 0.19906 1.01 0.0
H1248 H 0.03452 0.19591 0.10646 0.0
H1249 H 0.00699 0.12378 0.07631 0.0
H1250 H 0.97492 0.23688 0.10513 0.0
H1251 H 0.99001 0.24378 0.07259 0.0
H1252 H 0.0106 0.23906 0.10158 0.0
H1253 H 0.94223 0.14702 0.06511 0.0
H1254 H 0.96915 0.12528 0.04967 0.0
H1255 H 0.95801 0.15774 0.03402 0.0
C1256 C 0.04651 0.25989 0.27181 0.0
C1257 C 0.06589 0.26012 0.29138 0.0
C1258 C 0.04833 0.23999 0.25205 0.0
C1259 C 0.06982 0.21921 0.25198 0.0
C1260 C 0.089 0.21876 0.27225 0.0
C1261 C 0.08703 0.2394 0.29148 0.0
C1262 C 0.02753 0.24163 0.23086 0.0
C1263 C 0.11171 0.19648 0.27348 0.0
C1264 C 0.06807 0.15751 0.20693 0.0
C1265 C 0.085 0.16469 0.18511 0.0
C1266 C 0.06271 0.17495 0.22895 0.0
C1267 C 0.07416 0.2003 0.22879 0.0
C1268 C 0.09024 0.20792 0.20611 0.0
C1269 C 0.09563 0.19001 0.18485 0.0
C1270 C 0.04537 0.16597 0.25261 0.0
C1271 C 0.10223 0.23494 0.20444 0.0
H1272 H 0.02986 0.27559 0.27182 0.0
H1273 H 0.10156 0.23889 0.30703 0.0
H1274 H 0.03724 0.24441 0.21055 0.0
H1275 H 0.01785 0.22232 0.23097 0.0
H1276 H 0.01175 0.25871 0.23403 0.0
H1277 H 0.1234 0.19732 0.29184 0.0
H1278 H 0.10382 0.1762 0.27315 0.0
H1279 H 0.1254 0.1983 0.25546 0.0
H1280 H 0.05996 0.13788 0.20728 0.0
H1281 H 0.10856 0.19579 0.16793 0.0
H1282 H 0.02703 0.18027 0.25469 0.0
H1283 H 0.05619 0.16644 0.27156 0.0
H1284 H 0.03931 0.14509 0.25041 0.0
H1285 H 0.08621 0.25188 0.20689 0.0
H1286 H 0.11342 0.23828 0.18497 0.0
H1287 H 0.11612 0.23592 0.22106 0.0
C1288 C 0.98612 0.38288 0.28226 0.0
C1289 C 0.00772 0.36268 0.28486 0.0
C1290 C 0.98366 0.40061 0.25887 0.0
C1291 C 1.0026 0.39783 0.23658 0.0
C1292 C 0.02429 0.37722 0.23913 0.0
C1293 C 0.02681 0.36055 0.2631 0.0
C1294 C 0.96064 0.42253 0.25802 0.0
C1295 C 0.04489 0.37249 0.21633 0.0
C1296 C 0.9774 0.42049 0.16581 0.0
C1297 C 0.98775 0.44582 0.15997 0.0
C1298 C 0.98239 0.40497 0.19 0.0
C1299 C 0.99832 0.41449 0.20992 0.0
C1300 C 0.00968 0.43971 0.20397 0.0
C1301 C 1.00428 0.45501 0.17931 0.0
C1302 C 0.97018 0.37823 0.19436 0.0
C1303 C 0.02703 0.45093 0.22405 0.0
H1304 H 0.97141 0.38531 0.29884 0.0
H1305 H 0.04369 0.34522 0.26459 0.0
H1306 H 0.96831 0.44266 0.25345 0.0
H1307 H 0.94732 0.41869 0.24162 0.0
H1308 H 0.94862 0.42353 0.27735 0.0
H1309 H 0.05908 0.35421 0.22022 0.0
H1310 H 0.03495 0.36991 0.1972 0.0
H1311 H 0.0565 0.39051 0.2134 0.0
H1312 H 0.96471 0.41276 0.15134 0.0
H1313 H 0.01236 0.47449 0.17562 0.0
H1314 H 0.95638 0.37912 0.21246 0.0
H1315 H 0.98611 0.36151 0.1981 0.0
H1316 H 0.95885 0.3731 0.17683 0.0
H1317 H 0.01487 0.45604 0.2427 0.0
H1318 H 0.03601 0.4695 0.21603 0.0
H1319 H 0.04337 0.43533 0.2298 0.0
C1320 C 0.97308 0.81698 0.33215 0.0
C1321 C 0.99426 0.8039 0.31684 0.0
C1322 C 0.97505 0.84334 0.34152 0.0
C1323 C 0.99819 0.85692 0.3345 0.0
C1324 C 0.01946 0.84375 0.31896 0.0
C1325 C 0.01727 0.81749 0.31057 0.0
C1326 C 0.95282 0.85652 0.35941 0.0
C1327 C 0.04515 0.85666 0.31177 0.0
C1328 C 1.00132 0.93329 0.33381 0.0
C1329 C 0.01585 0.93576 0.35676 0.0
C1330 C 0.99344 0.9078 0.3274 0.0
C1331 C 1.00099 0.88453 0.34404 0.0
C1332 C 0.0153 0.88729 0.36749 0.0
C1333 C 0.02213 0.91299 0.37377 0.0
C1334 C 0.97947 0.90522 0.30149 0.0
C1335 C 0.02611 0.86289 0.38436 0.0
H1336 H 0.95536 0.80653 0.33711 0.0
H1337 H 0.03375 0.80779 0.29848 0.0
H1338 H 0.96092 0.86147 0.3789 0.0
H1339 H 0.94452 0.87602 0.34981 0.0
H1340 H 0.93637 0.84318 0.36353 0.0
H1341 H 0.05525 0.84804 0.2932 0.0
H1342 H 0.0418 0.8791 0.30883 0.0
H1343 H 0.05917 0.85226 0.32834 0.0
H1344 H 0.9973 0.95089 0.32035 0.0
H1345 H 0.03436 0.91495 0.39095 0.0
H1346 H 0.9617 0.89362 0.30524 0.0
H1347 H 0.99331 0.89364 0.28709 0.0
H1348 H 0.97305 0.92539 0.29197 0.0
H1349 H 0.03126 0.8687 0.40474 0.0
H1350 H 0.0448 0.85358 0.37441 0.0
H1351 H 0.01166 0.84717 0.38646 0.0
C1352 C 1.00596 0.67562 0.3483 0.0
C1353 C 0.03009 0.68059 0.33432 0.0
C1354 C 1.00545 0.65748 0.3707 0.0
C1355 C 0.02965 0.64353 0.37934 0.0
C1356 C 0.05407 0.64796 0.36509 0.0
C1357 C 0.05403 0.66654 0.34279 0.0
C1358 C 0.97903 0.65387 0.38559 0.0
C1359 C 0.0802 0.63304 0.37342 0.0
C1360 C 0.03012 0.62185 0.45343 0.0
C1361 C 0.02312 0.59498 0.45311 0.0
C1362 C 0.03266 0.63766 0.42958 0.0
C1363 C 0.02931 0.62598 0.4045 0.0
C1364 C 0.02347 0.59839 0.4039 0.0
C1365 C 0.01982 0.58337 0.4283 0.0
C1366 C 0.03787 0.66723 0.43135 0.0
C1367 C 0.02038 0.58492 0.37758 0.0
H1368 H 0.98729 0.68633 0.34204 0.0
H1369 H 0.07273 0.67008 0.33204 0.0
H1370 H 0.97491 0.63215 0.38585 0.0
H1371 H 0.97997 0.65969 0.40688 0.0
H1372 H 0.96201 0.66634 0.37634 0.0
H1373 H 0.0976 0.63962 0.36106 0.0
H1374 H 0.08346 0.63639 0.39494 0.0
H1375 H 0.07941 0.6108 0.37132 0.0
H1376 H 0.03268 0.631 0.47255 0.0
H1377 H 0.0146 0.56254 0.42797 0.0
H1378 H 0.02106 0.68052 0.42272 0.0
H1379 H 0.05632 0.67129 0.41934 0.0
H1380 H 0.04009 0.67314 0.45245 0.0
H1381 H 1.00044 0.59174 0.36971 0.0
H1382 H 0.02198 0.56234 0.3801 0.0
H1383 H 0.03576 0.59077 0.36223 0.0
C1384 C 0.2703 0.0346 0.24598 0.0
C1385 C 0.27833 0.057 0.25948 0.0
C1386 C 0.24708 0.03667 0.2304 0.0
C1387 C 0.231 0.06187 0.22774 0.0
C1388 C 0.23859 0.08436 0.24185 0.0
C1389 C 0.26191 0.08171 0.25737 0.0
C1390 C 0.24002 0.01181 0.21643 0.0
C1391 C 0.22202 0.11148 0.24038 0.0
C1392 C 0.1891 0.07938 0.16485 0.0
C1393 C 0.1626 0.07655 0.17435 0.0
C1394 C 0.21124 0.07385 0.18163 0.0
C1395 C 0.20735 0.06535 0.20908 0.0
C1396 C 0.18073 0.06143 0.21859 0.0
C1397 C 0.15888 0.06696 0.20125 0.0
C1398 C 0.23897 0.0777 0.17 0.0
C1399 C 0.1752 0.05147 0.24721 0.0
H1400 H 0.28228 0.01517 0.24749 0.0
H1401 H 0.26731 0.09915 0.26784 0.0
H1402 H 0.21859 1.00871 0.22039 0.0
H1403 H 0.2432 0.01483 0.19431 0.0
H1404 H 0.25235 0.99302 0.223 0.0
H1405 H 0.2297 0.12679 0.25315 0.0
H1406 H 0.2219 0.1195 0.21919 0.0
H1407 H 0.20096 0.10888 0.24694 0.0
H1408 H 0.19264 0.08645 0.14419 0.0
H1409 H 0.13874 0.06434 0.20902 0.0
H1410 H 0.25234 0.05869 0.17297 0.0
H1411 H 0.24753 0.09396 0.18077 0.0
H1412 H 0.23902 0.08332 0.14812 0.0
H1413 H 0.18372 0.02997 0.24976 0.0
H1414 H 0.15342 0.05251 0.2526 0.0
H1415 H 0.18501 0.0636 0.26161 0.0
C1416 C 0.7513 0.53776 0.31025 0.0
C1417 C 0.75062 0.51054 0.31995 0.0
C1418 C 0.77024 0.54532 0.29074 0.0
C1419 C 0.78899 0.52514 0.27996 0.0
C1420 C 0.78889 0.49764 0.28962 0.0
C1421 C 0.76962 0.49057 0.30963 0.0
C1422 C 0.76935 0.57485 0.28099 0.0
C1423 C 0.80886 0.47572 0.2784 0.0
C1424 C 0.81442 0.53809 0.20831 0.0
C1425 C 0.84058 0.54462 0.21192 0.0
C1426 C 0.79745 0.53199 0.23032 0.0
C1427 C 0.80677 0.53257 0.25672 0.0
C1428 C 0.83248 0.54097 0.26071 0.0
C1429 C 0.84925 0.5467 0.23818 0.0
C1430 C 0.76987 0.52388 0.22522 0.0
C1431 C 0.84239 0.54338 0.2887 0.0
H1432 H 0.73669 0.55362 0.31768 0.0
H1433 H 0.76936 0.46962 0.31701 0.0
H1434 H 0.78976 0.58175 0.27887 0.0
H1435 H 0.76055 0.57711 0.26085 0.0
H1436 H 0.757 0.58861 0.29484 0.0
H1437 H 0.80679 0.4555 0.28852 0.0
H1438 H 0.80614 0.47408 0.25647 0.0
H1439 H 0.82952 0.48126 0.28074 0.0
H1440 H 0.80766 0.53611 0.18811 0.0
H1441 H 0.86935 0.55209 0.24104 0.0
H1442 H 0.75434 0.53728 0.23612 0.0
H1443 H 0.76807 0.5027 0.233 0.0
H1444 H 0.76551 0.52506 0.20344 0.0
H1445 H 0.82797 0.55705 0.30068 0.0
H1446 H 0.86233 0.55146 0.28836 0.0
H1447 H 0.84378 0.52309 0.29926 0.0
C1448 C 0.26465 1.00614 0.342 0.0
C1449 C 0.28989 0.9952 0.35025 0.0
C1450 C 0.24265 0.00977 0.36045 0.0
C1451 C 0.24587 1.00243 0.38807 0.0
C1452 C 0.27104 0.99012 0.39634 0.0
C1453 C 0.2928 0.98671 0.37731 0.0
C1454 C 0.21632 0.02298 0.35056 0.0
C1455 C 0.27526 0.98118 0.42536 0.0
C1456 C 0.1949 0.04084 0.43595 0.0
C1457 C 0.17547 0.02236 0.43968 0.0
C1458 C 0.21868 0.03405 0.42038 0.0
C1459 C 0.22289 1.00833 0.40802 0.0
C1460 C 0.2036 0.98937 0.41257 0.0
C1461 C 0.18009 0.99675 0.428 0.0
C1462 C 0.23878 0.05484 0.41613 0.0
C1463 C 0.20697 0.96189 0.39977 0.0
H1464 H 0.26257 0.01352 0.32127 0.0
H1465 H 0.31246 0.97902 0.38393 0.0
H1466 H 0.19995 0.00999 0.35625 0.0
H1467 H 0.21132 0.04282 0.36029 0.0
H1468 H 0.21683 0.02659 0.32833 0.0
H1469 H 0.29686 0.97775 0.42969 0.0
H1470 H 0.26545 0.99643 0.43938 0.0
H1471 H 0.26609 0.96177 0.42962 0.0
H1472 H 0.19109 0.06086 0.44439 0.0
H1473 H 0.16451 0.98296 0.42965 0.0
H1474 H 0.23972 0.06166 0.39458 0.0
H1475 H 0.25904 0.04555 0.42114 0.0
H1476 H 0.23364 0.07298 0.42862 0.0
H1477 H 0.20546 0.96464 0.3776 0.0
H1478 H 0.19157 0.94843 0.4074 0.0
H1479 H 0.2271 0.95152 0.40358 0.0
C1480 C 0.75618 0.5097 0.43221 0.0
C1481 C 0.74055 0.53486 0.42938 0.0
C1482 C 0.77323 0.5042 0.45333 0.0
C1483 C 0.77599 0.52487 0.47149 0.0
C1484 C 0.76085 0.55055 0.46871 0.0
C1485 C 0.74294 0.55525 0.44767 0.0
C1486 C 0.78903 0.47651 0.45547 0.0
C1487 C 0.76425 0.57316 0.48751 0.0
C1488 C 0.81683 0.5036 0.53251 0.0
C1489 C 0.84222 0.50892 0.52222 0.0
C1490 C 0.79453 0.50922 0.51636 0.0
C1491 C 0.79816 0.52089 0.49002 0.0
C1492 C 0.82391 0.52625 0.47987 0.0
C1493 C 0.84556 0.52003 0.49605 0.0
C1494 C 0.76734 0.50219 0.52704 0.0
C1495 C 0.82888 0.53782 0.4516 0.0
H1496 H 0.75494 0.49378 0.41796 0.0
H1497 H 0.7308 0.57453 0.4457 0.0
H1498 H 0.81038 0.47845 0.44966 0.0
H1499 H 0.78819 0.46818 0.47652 0.0
H1500 H 0.78154 0.46153 0.44215 0.0
H1501 H 0.74978 0.59125 0.4839 0.0
H1502 H 0.76168 0.5658 0.50877 0.0
H1503 H 0.78488 0.57948 0.48475 0.0
H1504 H 0.81453 0.49501 0.5528 0.0
H1505 H 0.8654 0.52409 0.48828 0.0
H1506 H 0.75965 0.48723 0.51388 0.0
H1507 H 0.75292 0.52068 0.52663 0.0
H1508 H 0.76787 0.49343 0.54798 0.0
H1509 H 0.82552 0.52245 0.43667 0.0
H1510 H 0.84965 0.5436 0.44816 0.0
H1511 H 0.81475 0.55605 0.44758 0.0
C1512 C 0.29117 0.29714 0.05993 0.0
C1513 C 0.30424 0.30605 0.03619 0.0
C1514 C 0.26609 0.28645 0.059 0.0
C1515 C 0.25362 0.28554 0.03394 0.0
C1516 C 0.26627 0.29542 1.01019 0.0
C1517 C 0.29146 0.30491 0.01152 0.0
C1518 C 0.25313 0.27552 0.08464 0.0
C1519 C 0.25323 0.29609 0.98325 0.0
C1520 C 0.20871 0.22934 0.02587 0.0
C1521 C 0.18328 0.24251 0.03189 0.0
C1522 C 0.23161 0.24332 0.02604 0.0
C1523 C 0.22901 0.27132 0.03194 0.0
C1524 C 0.20317 0.28525 0.03578 0.0
C1525 C 0.18053 0.27056 0.03599 0.0
C1526 C 0.2587 0.22776 0.02112 0.0
C1527 C 0.19937 0.31545 0.04001 0.0
H1528 H 0.30061 0.29816 0.07901 0.0
H1529 H 0.30078 0.3123 0.9929 0.0
H1530 H 0.23268 0.28586 0.0878 0.0
H1531 H 0.25104 0.25344 0.08289 0.0
H1532 H 0.26486 0.27835 0.1026 0.0
H1533 H 0.26658 0.30285 0.96635 0.0
H1534 H 0.24726 0.27569 0.97877 0.0
H1535 H 0.23475 0.31032 0.98393 0.0
H1536 H 0.21095 0.20754 0.02299 0.0
H1537 H 0.1608 0.28071 0.04041 0.0
H1538 H 0.27107 0.22893 0.03892 0.0
H1539 H 0.26941 0.23702 1.00358 0.0
H1540 H 0.25716 0.20595 0.01712 0.0
H1541 H 0.21155 0.32078 0.05678 0.0
H1542 H 0.1781 0.32281 0.04454 0.0
H1543 H 0.20626 0.32629 0.0214 0.0
C1544 C 0.2715 0.86716 0.53516 0.0
C1545 C 0.27187 0.84082 0.52518 0.0
C1546 C 0.25058 0.88777 0.52929 0.0
C1547 C 0.22845 0.8817 0.51426 0.0
C1548 C 0.22869 0.85488 0.50462 0.0
C1549 C 0.25046 0.83519 0.50964 0.0
C1550 C 0.2528 0.91618 0.53869 0.0
C1551 C 0.20599 0.84694 0.48861 0.0
C1552 C 0.16279 0.9295 0.52128 0.0
C1553 C 0.16074 0.94227 0.49552 0.0
C1554 C 0.18422 0.90959 0.52742 0.0
C1555 C 0.20538 0.90317 0.50797 0.0
C1556 C 0.20371 0.91672 0.48217 0.0
C1557 C 0.18123 0.93521 0.47613 0.0
C1558 C 0.18403 0.89523 0.55479 0.0
C1559 C 0.22566 0.91257 0.46055 0.0
H1560 H 0.28818 0.87206 0.54663 0.0
H1561 H 0.25062 0.81506 0.50152 0.0
H1562 H 0.24364 0.93196 0.52451 0.0
H1563 H 0.24234 0.9186 0.55871 0.0
H1564 H 0.27405 0.91995 0.54094 0.0
H1565 H 0.20719 0.8246 0.48574 0.0
H1566 H 0.18644 0.85346 0.49884 0.0
H1567 H 0.20655 0.85739 0.46844 0.0
H1568 H 0.14732 0.93479 0.53662 0.0
H1569 H 0.18035 0.94501 0.45633 0.0
H1570 H 0.19994 0.90222 0.56688 0.0
H1571 H 0.18829 0.87287 0.55269 0.0
H1572 H 0.16455 0.8993 0.56609 0.0
H1573 H 0.2309 0.93269 0.45219 0.0
H1574 H 0.21819 0.90163 0.4437 0.0
H1575 H 0.24416 0.90105 0.46778 0.0
C1576 C 0.89751 0.74878 0.50726 0.0
C1577 C 0.90772 0.77134 0.51816 0.0
C1578 C 0.91055 0.72226 0.51022 0.0
C1579 C 0.93499 0.71804 0.52376 0.0
C1580 C 0.94599 0.74104 0.53371 0.0
C1581 C 0.932 0.76728 0.53127 0.0
C1582 C 0.89804 0.69865 0.49899 0.0
C1583 C 0.97266 0.73792 0.5468 0.0
C1584 C 0.95121 0.6469 0.5564 0.0
C1585 C 0.96933 0.63406 0.53751 0.0
C1586 C 0.94078 0.67435 0.55254 0.0
C1587 C 0.94799 0.68945 0.52883 0.0
C1588 C 0.9665 0.6766 0.50972 0.0
C1589 C 0.9772 0.64932 0.5145 0.0
C1590 C 0.92134 0.68701 0.57359 0.0
C1591 C 0.97496 0.69137 0.484 0.0
H1592 H 0.8789 0.75186 0.49679 0.0
H1593 H 0.94034 0.78474 0.53911 0.0
H1594 H 0.91236 0.6878 0.48448 0.0
H1595 H 0.89346 0.68383 0.51555 0.0
H1596 H 0.87928 0.70528 0.48859 0.0
H1597 H 0.97915 0.75781 0.5524 0.0
H1598 H 0.97151 0.72452 0.5652 0.0
H1599 H 0.98814 0.72797 0.53282 0.0
H1600 H 0.9449 0.63529 0.57415 0.0
H1601 H 0.99088 0.63957 0.49957 0.0
H1602 H 0.90158 0.69246 0.56469 0.0
H1603 H 0.9285 0.70613 0.58042 0.0
H1604 H 0.9186 0.67313 0.59144 0.0
H1605 H 0.98376 0.67698 0.4686 0.0
H1606 H 0.99032 0.70513 0.48853 0.0
H1607 H 0.95787 0.70408 0.47523 0.0
C1608 C 0.37789 0.8591 0.50042 0.0
C1609 C 0.38621 0.83368 0.48974 0.0
C1610 C 0.39645 0.87675 0.50751 0.0
C1611 C 0.42418 0.86888 0.50361 0.0
C1612 C 0.43274 0.84418 0.49074 0.0
C1613 C 0.41355 0.82668 0.48406 0.0
C1614 C 0.38634 0.9027 0.52148 0.0
C1615 C 0.46209 0.8351 0.48623 0.0
C1616 C 0.46268 0.92901 0.51586 0.0
C1617 C 0.46492 0.92619 0.5438 0.0
C1618 C 0.45178 0.90894 0.50162 0.0
C1619 C 0.4435 0.88548 0.51577 0.0
C1620 C 0.44873 0.88132 0.54355 0.0
C1621 C 0.45889 0.90209 0.55739 0.0
C1622 C 0.44669 0.91415 0.47209 0.0
C1623 C 0.44108 0.85626 0.55935 0.0
H1624 H 0.35677 0.86419 0.50535 0.0
H1625 H 0.42006 0.80665 0.47657 0.0
H1626 H 0.39193 0.90102 0.5429 0.0
H1627 H 0.3957 0.92039 0.51196 0.0
H1628 H 0.36424 0.9069 0.52097 0.0
H1629 H 0.46537 0.81923 0.47082 0.0
H1630 H 0.47359 0.85255 0.4798 0.0
H1631 H 0.47025 0.82636 0.50541 0.0
H1632 H 0.4675 0.94782 0.50553 0.0
H1633 H 0.4609 0.90006 0.57906 0.0
H1634 H 0.42493 0.91933 0.46956 0.0
H1635 H 0.45281 0.89555 0.4606 0.0
H1636 H 0.45753 0.93126 0.4633 0.0
H1637 H 0.41926 0.85858 0.56448 0.0
H1638 H 0.45187 0.85322 0.57844 0.0
H1639 H 0.44541 0.83773 0.54733 0.0
C1640 C 0.5446 0.76158 0.76803 0.0
C1641 C 0.56551 0.76403 0.78545 0.0
C1642 C 0.54665 0.74177 0.74836 0.0
C1643 C 0.57014 0.72369 0.74612 0.0
C1644 C 0.59106 0.72553 0.76408 0.0
C1645 C 0.58864 0.74592 0.78341 0.0
C1646 C 0.5239 0.74063 0.72962 0.0
C1647 C 0.61613 0.70609 0.76262 0.0
C1648 C 0.57327 0.6608 0.70317 0.0
C1649 C 0.5876 0.66982 0.68026 0.0
C1650 C 0.56669 0.67826 0.72477 0.0
C1651 C 0.57434 0.70529 0.72291 0.0
C1652 C 0.58727 0.71477 0.69893 0.0
C1653 C 0.59406 0.6968 0.67808 0.0
C1654 C 0.55266 0.66746 0.7499 0.0
C1655 C 0.5947 0.74373 0.69559 0.0
H1656 H 0.52653 0.77542 0.76965 0.0
H1657 H 0.60449 0.74728 0.79727 0.0
H1658 H 0.53098 0.74469 0.70849 0.0
H1659 H 0.51682 0.71997 0.73059 0.0
H1660 H 0.50666 0.75569 0.73459 0.0
H1661 H 0.62954 0.70866 0.77934 0.0
H1662 H 0.61082 0.68472 0.7633 0.0
H1663 H 0.62729 0.70948 0.74316 0.0
H1664 H 0.56833 0.63983 0.70468 0.0
H1665 H 0.60484 0.70375 0.66009 0.0
H1666 H 0.53495 0.68149 0.75575 0.0
H1667 H 0.56641 0.66624 0.76687 0.0
H1668 H 0.54605 0.64688 0.74722 0.0
H1669 H 0.57683 0.75829 0.6995 0.0
H1670 H 0.6032 0.74828 0.67505 0.0
H1671 H 0.60967 0.74734 0.71051 0.0
C1672 C 0.52622 0.86361 0.75606 0.0
C1673 C 0.50645 0.86457 0.77727 0.0
C1674 C 0.5237 0.88034 0.73204 0.0
C1675 C 0.50117 0.89984 0.72877 0.0
C1676 C 0.48111 0.90095 0.75016 0.0
C1677 C 0.48373 0.88324 0.77364 0.0
C1678 C 0.54561 0.8773 0.71027 0.0
C1679 C 0.45691 0.92139 0.74846 0.0
C1680 C 0.50553 0.96356 0.67982 0.0
C1681 C 0.49246 0.95675 0.65678 0.0
C1682 C 0.50925 0.94518 0.70259 0.0
C1683 C 0.49881 0.91922 0.70347 0.0
C1684 C 0.48582 0.91216 0.68007 0.0
C1685 C 0.48301 0.93067 0.65726 0.0
C1686 C 0.52411 0.95382 0.72607 0.0
C1687 C 0.47428 0.88508 0.67931 0.0
H1688 H 0.5439 0.84938 0.75811 0.0
H1689 H 0.46828 0.88468 0.78961 0.0
H1690 H 0.53702 0.87665 0.69013 0.0
H1691 H 0.55748 0.89518 0.71001 0.0
H1692 H 0.55936 0.85856 0.71353 0.0
H1693 H 0.44288 0.91987 0.76628 0.0
H1694 H 0.46335 0.94234 0.74688 0.0
H1695 H 0.44606 0.91832 0.72999 0.0
H1696 H 0.51265 0.98362 0.68021 0.0
H1697 H 0.47233 0.9251 0.64011 0.0
H1698 H 0.54138 0.93869 0.73011 0.0
H1699 H 0.51076 0.95442 0.74451 0.0
H1700 H 0.53162 0.97417 0.72237 0.0
H1701 H 0.49033 0.86827 0.68209 0.0
H1702 H 0.46459 0.88244 0.66002 0.0
H1703 H 0.45922 0.8832 0.69617 0.0
C1704 C 0.461 0.31609 0.83611 0.0
C1705 C 0.46628 0.313 0.80842 0.0
C1706 C 0.46582 0.34046 0.84826 0.0
C1707 C 0.47662 0.36163 0.83233 0.0
C1708 C 0.48089 0.35881 0.80424 0.0
C1709 C 0.47532 0.33468 0.79267 0.0
C1710 C 0.46181 0.34263 0.87842 0.0
C1711 C 0.49341 0.38034 0.78672 0.0
C1712 C 0.48357 0.43248 0.85748 0.0
C1713 C 0.51058 0.42991 0.86374 0.0
C1714 C 0.47185 0.41012 0.84779 0.0
C1715 C 0.48744 0.38475 0.84516 0.0
C1716 C 0.51459 0.38215 0.85227 0.0
C1717 C 0.52581 0.40484 0.86118 0.0
C1718 C 0.44304 0.41368 0.83993 0.0
C1719 C 0.53253 0.35595 0.84926 0.0
H1720 H 0.45483 0.29897 0.84843 0.0
H1721 H 0.48004 0.33189 0.77147 0.0
H1722 H 0.48162 0.34157 0.88768 0.0
H1723 H 0.45095 0.36258 0.88344 0.0
H1724 H 0.45052 0.32602 0.88756 0.0
H1725 H 0.49751 0.37389 0.76571 0.0
H1726 H 0.47993 0.39951 0.7865 0.0
H1727 H 0.51263 0.38493 0.79488 0.0
H1728 H 0.47186 0.45195 0.85979 0.0
H1729 H 0.54667 0.40293 0.86644 0.0
H1730 H 0.43155 0.39835 0.85106 0.0
H1731 H 0.4419 0.41012 0.8181 0.0
H1732 H 0.43337 0.43439 0.84409 0.0
H1733 H 0.54906 0.35461 0.86354 0.0
H1734 H 0.54167 0.35551 0.82849 0.0
H1735 H 0.52141 0.33765 0.85264 0.0
C1736 C 0.53837 0.1786 0.83376 0.0
C1737 C 0.51539 0.19657 0.83002 0.0
C1738 C 0.54033 0.16078 0.85655 0.0
C1739 C 0.5191 0.16147 0.8764 0.0
C1740 C 0.49616 0.18014 0.87303 0.0
C1741 C 0.49446 0.1972 0.84976 0.0
C1742 C 0.56481 0.14073 0.85908 0.0
C1743 C 0.47339 0.18209 0.89403 0.0
C1744 C 0.50785 0.09979 0.92236 0.0
C1745 C 0.51878 0.10667 0.94642 0.0
C1746 C 0.5087 0.11698 0.8992 0.0
C1747 C 0.52028 0.14201 0.90019 0.0
C1748 C 0.53187 0.14884 0.92425 0.0
C1749 C 0.53128 0.13093 0.94698 0.0
C1750 C 0.49649 0.10869 0.87386 0.0
C1751 C 0.54395 0.17555 0.92631 0.0
H1752 H 0.55454 0.17797 0.8185 0.0
H1753 H 0.47679 0.21132 0.84714 0.0
H1754 H 0.57436 0.14324 0.87843 0.0
H1755 H 0.55884 0.11961 0.85927 0.0
H1756 H 0.57984 0.1432 0.84227 0.0
H1757 H 0.45688 0.19755 0.88829 0.0
H1758 H 0.46515 0.16206 0.89722 0.0
H1759 H 0.48088 0.18758 0.91359 0.0
H1760 H 0.49834 0.08099 0.92166 0.0
H1761 H 0.53973 0.13645 0.96548 0.0
H1762 H 0.51091 0.11014 0.85638 0.0
H1763 H 0.47855 0.12279 0.86947 0.0
H1764 H 0.49044 0.08757 0.87565 0.0
H1765 H 0.55878 0.17833 0.90943 0.0
H1766 H 0.55394 0.17692 0.94566 0.0
H1767 H 0.52799 0.19265 0.92471 0.0
C1768 C 0.7555 0.54558 0.76976 0.0
C1769 C 0.7764 0.56285 0.76697 0.0
C1770 C 0.73276 0.5491 0.7534 0.0
C1771 C 0.73093 0.56973 0.73252 0.0
C1772 C 0.75226 0.58687 0.72934 0.0
C1773 C 0.77426 0.5836 0.74673 0.0
C1774 C 0.71081 0.53038 0.75839 0.0
C1775 C 0.75203 0.60859 0.70712 0.0
C1776 C 0.68561 0.56631 0.67136 0.0
C1777 C 0.6631 0.58438 0.6781 0.0
C1778 C 0.707 0.56041 0.68921 0.0
C1779 C 0.70686 0.57372 0.71421 0.0
C1780 C 0.68394 0.59178 0.72112 0.0
C1781 C 0.66239 0.59647 0.70337 0.0
C1782 C 0.72986 0.53983 0.68125 0.0
C1783 C 0.68235 0.60664 0.74721 0.0
H1784 H 0.75677 0.52936 0.78512 0.0
H1785 H 0.79028 0.59682 0.74388 0.0
H1786 H 0.69087 0.5422 0.75896 0.0
H1787 H 0.71121 0.51609 0.74163 0.0
H1788 H 0.71307 0.51826 0.77762 0.0
H1789 H 0.77003 0.6201 0.7068 0.0
H1790 H 0.7511 0.59914 0.68729 0.0
H1791 H 0.73389 0.62313 0.70963 0.0
H1792 H 0.68638 0.55651 0.65213 0.0
H1793 H 0.64525 0.6105 0.70891 0.0
H1794 H 0.73173 0.52305 0.69679 0.0
H1795 H 0.74896 0.54951 0.68022 0.0
H1796 H 0.72707 0.53092 0.66146 0.0
H1797 H 0.68396 0.59175 0.76451 0.0
H1798 H 0.66339 0.62 0.74983 0.0
H1799 H 0.69941 0.61934 0.74782 0.0
C1800 C 0.25023 0.99319 0.78881 0.0
C1801 C 0.25531 0.99654 0.8159 0.0
C1802 C 0.26723 1.0029 0.76808 0.0
C1803 C 0.28981 0.01617 0.77472 0.0
C1804 C 0.29518 0.01927 0.80207 0.0
C1805 C 0.27791 1.00931 0.8223 0.0
C1806 C 0.26046 1.0 0.73907 0.0
C1807 C 0.31832 0.03438 0.8099 0.0
C1808 C 0.34736 0.01218 0.72308 0.0
C1809 C 0.34218 0.03636 0.7078 0.0
C1810 C 0.33082 1.00585 0.74532 0.0
C1811 C 0.30904 0.02461 0.75307 0.0
C1812 C 0.30497 0.05019 0.73899 0.0
C1813 C 0.32129 0.05551 0.71595 0.0
C1814 C 0.33562 0.97821 0.75938 0.0
C1815 C 0.28277 0.07141 0.74726 0.0
H1816 H 0.232 0.98471 0.78384 0.0
H1817 H 0.28103 0.01317 0.84325 0.0
H1818 H 0.25607 0.02049 0.72938 0.0
H1819 H 0.27781 0.98964 0.72771 0.0
H1820 H 0.24282 0.98829 0.73723 0.0
H1821 H 0.31969 0.03516 0.83212 0.0
H1822 H 0.33747 0.02455 0.80137 0.0
H1823 H 0.31599 0.05557 0.80134 0.0
H1824 H 0.36332 0.99724 0.71644 0.0
H1825 H 0.31733 0.07421 0.704 0.0
H1826 H 0.31819 0.96639 0.75691 0.0
H1827 H 0.33762 0.9805 0.7813 0.0
H1828 H 0.35392 0.96629 0.75126 0.0
H1829 H 0.26411 0.06737 0.73761 0.0
H1830 H 0.28763 0.09222 0.74059 0.0
H1831 H 0.27883 0.07097 0.76943 0.0
C1832 C 0.76109 0.50064 0.85151 0.0
C1833 C 0.78735 0.49705 0.86024 0.0
C1834 C 0.73914 0.50393 0.87009 0.0
C1835 C 0.7436 0.50384 0.8981 0.0
C1836 C 0.77005 0.49856 0.90706 0.0
C1837 C 0.79165 0.49545 0.88797 0.0
C1838 C 0.71129 0.50928 0.85962 0.0
C1839 C 0.77568 0.49801 0.93668 0.0
C1840 C 0.68803 0.54617 0.93657 0.0
C1841 C 0.67237 0.52601 0.94711 0.0
C1842 C 0.71242 0.53909 0.92229 0.0
C1843 C 0.7207 0.51124 0.91757 0.0
C1844 C 0.70545 0.49081 0.92932 0.0
C1845 C 0.6816 0.49846 0.94407 0.0
C1846 C 0.72858 0.56152 0.91103 0.0
C1847 C 0.71305 0.46092 0.92466 0.0
H1848 H 0.75783 0.50272 0.83006 0.0
H1849 H 0.81202 0.49351 0.89468 0.0
H1850 H 0.6977 0.4954 0.87005 0.0
H1851 H 0.70318 0.53047 0.86394 0.0
H1852 H 0.71098 0.50658 0.83753 0.0
H1853 H 0.7971 0.49195 0.94045 0.0
H1854 H 0.77016 0.51852 0.94484 0.0
H1855 H 0.76328 0.48362 0.94805 0.0
H1856 H 0.68079 0.56743 0.93876 0.0
H1857 H 0.66924 0.48277 0.95166 0.0
H1858 H 0.72664 0.56352 0.88886 0.0
H1859 H 0.75012 0.55656 0.9149 0.0
H1860 H 0.72177 0.58148 0.91989 0.0
H1861 H 0.70801 0.45632 0.90389 0.0
H1862 H 0.70216 0.44764 0.93907 0.0
H1863 H 0.73487 0.45566 0.92646 0.0
C1864 C 0.24503 1.00589 0.93998 0.0
C1865 C 0.24591 0.03035 0.92446 0.0
C1866 C 0.26255 0.99885 0.96039 0.0
C1867 C 0.28283 0.01581 0.96446 0.0
C1868 C 0.28428 0.04055 0.94903 0.0
C1869 C 0.26528 0.04791 0.92937 0.0
C1870 C 0.26012 0.97245 0.97653 0.0
C1871 C 0.3067 0.05832 0.95233 0.0
C1872 C 0.32356 1.00623 0.02671 0.0
C1873 C 0.34692 0.99192 0.01617 0.0
C1874 C 0.30189 0.01339 1.01029 0.0
C1875 C 0.30395 1.00601 0.98299 0.0
C1876 C 0.32608 0.98876 0.9733 0.0
C1877 C 0.34708 0.98141 0.99027 0.0
C1878 C 0.27768 0.03048 0.02149 0.0
C1879 C 0.32866 0.97983 0.9444 0.0
H1880 H 0.23108 0.99136 0.93567 0.0
H1881 H 0.26649 0.06638 0.91701 0.0
H1882 H 0.2766 0.95708 0.97032 0.0
H1883 H 0.2618 0.97557 0.99837 0.0
H1884 H 0.24081 0.96388 0.97356 0.0
H1885 H 0.30438 0.07743 0.93972 0.0
H1886 H 0.30761 0.0636 0.97377 0.0
H1887 H 0.32613 0.04692 0.94655 0.0
H1888 H 0.32329 0.014 0.04687 0.0
H1889 H 0.36497 0.97018 0.98192 0.0
H1890 H 0.25904 0.02157 0.01666 0.0
H1891 H 0.27687 0.05123 0.01192 0.0
H1892 H 0.2781 0.03227 0.04369 0.0
H1893 H 0.31215 0.96737 0.94023 0.0
H1894 H 0.34797 0.96761 0.93981 0.0
H1895 H 0.32708 0.99792 0.93036 0.0
C1896 C 0.78837 0.79847 0.4502 0.0
C1897 C 0.80442 0.79908 0.47258 0.0
C1898 C 0.7634 0.78715 0.45271 0.0
C1899 C 0.75427 0.77664 0.47817 0.0
C1900 C 0.77043 0.77736 0.50065 0.0
C1901 C 0.7952 0.78807 0.49748 0.0
C1902 C 0.7466 0.78677 0.42835 0.0
C1903 C 0.76158 0.76681 0.52834 0.0
C1904 C 0.6845 0.76227 0.50377 0.0
C1905 C 0.68684 0.7337 0.50393 0.0
C1906 C 0.70521 0.77702 0.49247 0.0
C1907 C 0.72902 0.76282 0.48173 0.0
C1908 C 0.73046 0.7341 0.48013 0.0
C1909 C 0.70932 0.71997 0.49105 0.0
C1910 C 0.70245 0.80763 0.49386 0.0
C1911 C 0.75555 0.71791 0.46963 0.0
H1912 H 0.79497 0.80729 0.43102 0.0
H1913 H 0.80723 0.78827 0.51504 0.0
H1914 H 0.74123 0.76581 0.42532 0.0
H1915 H 0.7276 0.79985 0.43169 0.0
H1916 H 0.75705 0.79419 0.40969 0.0
H1917 H 0.77629 0.76946 0.54387 0.0
H1918 H 0.74212 0.77769 0.5348 0.0
H1919 H 0.75865 0.74482 0.52772 0.0
H1920 H 0.66702 0.77297 0.5135 0.0
H1921 H 0.71145 0.69786 0.49144 0.0
H1922 H 0.70679 0.81687 0.47361 0.0
H1923 H 0.71721 0.81406 0.50773 0.0
H1924 H 0.68209 0.81575 0.50107 0.0
H1925 H 0.76328 0.72735 0.45058 0.0
H1926 H 0.75213 0.69643 0.46603 0.0
H1927 H 0.7713 0.71783 0.48464 0.0
C1928 C 0.77091 0.36349 1.00678 0.0
C1929 C 0.76971 0.34299 0.02727 0.0
C1930 C 0.74976 0.38446 1.00326 0.0
C1931 C 0.72588 0.38474 0.01985 0.0
C1932 C 0.72453 0.36395 0.04047 0.0
C1933 C 0.74645 0.34383 0.04422 0.0
C1934 C 0.75308 0.40646 0.98172 0.0
C1935 C 0.69951 0.36247 0.05823 0.0
C1936 C 0.67825 0.45121 0.02586 0.0
C1937 C 0.65898 0.44852 1.00653 0.0
C1938 C 0.69983 0.43093 0.0303 0.0
C1939 C 0.70246 0.40659 0.01554 0.0
C1940 C 0.6828 0.40351 0.99635 0.0
C1941 C 0.66172 0.42442 0.99188 0.0
C1942 C 0.72034 0.436 0.05038 0.0
C1943 C 0.68417 0.37814 0.9801 0.0
H1944 H 0.78871 0.36337 0.99358 0.0
H1945 H 0.74497 0.3281 0.05993 0.0
H1946 H 0.73804 0.40548 0.96619 0.0
H1947 H 0.7495 0.42686 0.99064 0.0
H1948 H 0.77336 0.40459 0.97167 0.0
H1949 H 0.70131 0.34514 0.0732 0.0
H1950 H 0.69499 0.38166 0.06918 0.0
H1951 H 0.68225 0.3602 0.04556 0.0
H1952 H 0.6769 0.46965 0.03724 0.0
H1953 H 0.64735 0.42184 0.97676 0.0
H1954 H 0.74031 0.43641 0.03991 0.0
H1955 H 0.72195 0.41918 0.06586 0.0
H1956 H 0.7154 0.45556 0.06069 0.0
H1957 H 0.70096 0.37842 0.96482 0.0
H1958 H 0.66541 0.37658 0.96946 0.0
H1959 H 0.68809 0.35963 0.99328 0.0
C1960 C 0.41085 0.25472 0.98228 0.0
C1961 C 0.41588 0.27642 0.99828 0.0
C1962 C 0.42336 0.22807 0.98705 0.0
C1963 C 0.44173 0.22291 1.00803 0.0
C1964 C 0.44812 0.24517 0.023 0.0
C1965 C 0.43493 0.27139 0.01822 0.0
C1966 C 0.41605 0.20515 0.97036 0.0
C1967 C 0.46828 0.24112 0.04475 0.0
C1968 C 0.4454 0.15055 0.03969 0.0
C1969 C 0.46857 0.13773 0.02714 0.0
C1970 C 0.4374 0.17845 0.03473 0.0
C1971 C 0.45229 0.19402 0.01585 0.0
C1972 C 0.47637 0.1814 1.0039 0.0
C1973 C 0.4843 0.15355 1.00987 0.0
C1974 C 0.41221 0.19096 0.04886 0.0
C1975 C 0.493 0.1966 0.98344 0.0
H1976 H 0.39604 0.25821 0.96701 0.0
H1977 H 0.43914 0.288 0.03061 0.0
H1978 H 0.43443 0.19434 0.96116 0.0
H1979 H 0.40607 0.1901 0.98352 0.0
H1980 H 0.40243 0.21248 0.95407 0.0
H1981 H 0.47238 0.26069 0.05341 0.0
H1982 H 0.46081 0.22763 0.06123 0.0
H1983 H 0.4874 0.23092 0.03648 0.0
H1984 H 0.43293 0.13841 0.05276 0.0
H1985 H 0.50186 0.14373 0.99956 0.0
H1986 H 0.3967 0.19651 0.03388 0.0
H1987 H 0.4162 0.20997 0.05862 0.0
H1988 H 0.40407 0.17688 0.06449 0.0
H1989 H 0.48436 0.19577 0.96335 0.0
H1990 H 0.514 0.18726 0.98201 0.0
H1991 H 0.49304 0.21837 0.98833 0.0
C1992 C 0.90982 0.33355 0.98384 0.0
C1993 C 0.8846 0.33698 0.99718 0.0
C1994 C 0.92976 0.35064 0.98927 0.0
C1995 C 0.92411 0.37101 1.00861 0.0
C1996 C 0.89817 0.37522 0.021 0.0
C1997 C 0.87872 0.3584 0.01479 0.0
C1998 C 0.95712 0.34601 0.97547 0.0
C1999 C 0.8912 0.39656 0.04196 0.0
C2000 C 0.96846 0.40151 0.05509 0.0
C2001 C 0.96431 0.42865 0.04605 0.0
C2002 C 0.95856 0.38098 0.0407 0.0
C2003 C 0.94473 0.3882 0.01678 0.0
C2004 C 0.94431 0.41509 1.00576 0.0
C2005 C 0.95357 0.43523 0.02095 0.0
C2006 C 0.95962 0.3525 0.05309 0.0
C2007 C 0.93078 0.42348 0.97986 0.0
H2008 H 0.91445 0.31666 0.97053 0.0
H2009 H 0.85913 0.361 0.02502 0.0
H2010 H 0.96469 0.36568 0.96869 0.0
H2011 H 0.97143 0.33595 0.98993 0.0
H2012 H 0.95694 0.33284 0.95782 0.0
H2013 H 0.87012 0.39677 0.04985 0.0
H2014 H 0.90449 0.39269 0.05923 0.0
H2015 H 0.89426 0.41713 0.03322 0.0
H2016 H 0.97714 0.39668 0.07451 0.0
H2017 H 0.95093 0.45636 0.01393 0.0
H2018 H 0.96249 0.337 0.03737 0.0
H2019 H 0.94037 0.34977 0.06428 0.0
H2020 H 0.976 0.34876 0.06749 0.0
H2021 H 0.93338 0.40688 0.96524 0.0
H2022 H 0.93885 0.44197 0.97043 0.0
H2023 H 0.909 0.42827 0.98426 0.0
loop_
_geom_bond_atom_site_label_1
_geom_bond_atom_site_label_2
_geom_bond_distance
_geom_bond_site_symmetry_2
_ccdc_geom_bond_type
C0 O2 1.247 . S
C0 O4 1.258 . S
C1 O8 1.247 1_455 S
C1 O9 1.258 . S
O2 C0 1.247 . S
O2 Zn3 2.028 . S
Zn3 O2 2.028 . S
Zn3 O7 2.035 . S
Zn3 O9 2.035 . S
Zn3 O10 2.028 . S
O4 C0 1.258 . S
O4 Zn5 2.035 1_455 S
Zn5 O4 2.035 1_655 S
Zn5 O6 2.028 . S
Zn5 O8 2.028 . S
Zn5 O11 2.035 1_655 S
O6 Zn5 2.028 . S
O6 C12 1.247 1_655 S
O7 Zn3 2.035 . S
O7 C12 1.258 . S
O8 C1 1.247 1_655 S
O8 Zn5 2.028 . S
O9 C1 1.258 . S
O9 Zn3 2.035 . S
O10 Zn3 2.028 . S
O10 C13 1.247 . S
O11 Zn5 2.035 1_455 S
O11 C13 1.258 . S
C12 O6 1.247 1_455 S
C12 O7 1.258 . S
C13 O10 1.247 . S
C13 O11 1.258 . S
C14 O16 1.247 . S
C14 O18 1.258 1_455 S
C15 O22 1.247 . S
C15 O23 1.258 1_655 S
O16 C14 1.247 . S
O16 Zn17 2.028 . S
Zn17 O16 2.028 . S
Zn17 O21 2.035 . S
Zn17 O23 2.035 . S
Zn17 O24 2.028 . S
O18 C14 1.258 1_655 S
O18 Zn19 2.035 . S
Zn19 O18 2.035 . S
Zn19 O20 2.028 . S
Zn19 O22 2.028 . S
Zn19 O25 2.035 . S
O20 Zn19 2.028 . S
O20 C26 1.247 . S
O21 Zn17 2.035 . S
O21 C26 1.258 1_455 S
O22 C15 1.247 . S
O22 Zn19 2.028 . S
O23 C15 1.258 1_455 S
O23 Zn17 2.035 . S
O24 Zn17 2.028 . S
O24 C27 1.247 . S
O25 Zn19 2.035 . S
O25 C27 1.258 1_655 S
C26 O20 1.247 . S
C26 O21 1.258 1_655 S
C27 O24 1.247 . S
C27 O25 1.258 1_455 S
C28 O30 1.247 1_545 S
C28 O32 1.258 . S
C29 O36 1.247 1_565 S
C29 O37 1.258 . S
O30 C28 1.247 1_565 S
O30 Zn31 2.028 . S
Zn31 O30 2.028 . S
Zn31 O35 2.035 . S
Zn31 O37 2.035 . S
Zn31 O38 2.028 . S
O32 C28 1.258 . S
O32 Zn33 2.035 . S
Zn33 O32 2.035 . S
Zn33 O34 2.028 . S
Zn33 O36 2.028 . S
Zn33 O39 2.035 . S
O34 Zn33 2.028 . S
O34 C40 1.247 1_545 S
O35 Zn31 2.035 . S
O35 C40 1.258 . S
O36 C29 1.247 1_545 S
O36 Zn33 2.028 . S
O37 C29 1.258 . S
O37 Zn31 2.035 . S
O38 Zn31 2.028 . S
O38 C41 1.247 1_565 S
O39 Zn33 2.035 . S
O39 C41 1.258 . S
C40 O34 1.247 1_565 S
C40 O35 1.258 . S
C41 O38 1.247 1_545 S
C41 O39 1.258 . S
C42 O44 1.247 . S
C42 O46 1.258 . S
C43 O50 1.247 . S
C43 O51 1.258 . S
O44 C42 1.247 . S
O44 Zn45 2.028 . S
Zn45 O44 2.028 . S
Zn45 O49 2.035 . S
Zn45 O51 2.035 . S
Zn45 O52 2.028 . S
O46 C42 1.258 . S
O46 Zn47 2.035 . S
Zn47 O46 2.035 . S
Zn47 O48 2.028 . S
Zn47 O50 2.028 . S
Zn47 O53 2.035 . S
O48 Zn47 2.028 . S
O48 C54 1.247 . S
O49 Zn45 2.035 . S
O49 C54 1.258 . S
O50 C43 1.247 . S
O50 Zn47 2.028 . S
O51 C43 1.258 . S
O51 Zn45 2.035 . S
O52 Zn45 2.028 . S
O52 C55 1.247 . S
O53 Zn47 2.035 . S
O53 C55 1.258 . S
C54 O48 1.247 . S
C54 O49 1.258 . S
C55 O52 1.247 . S
C55 O53 1.258 . S
C56 O58 1.247 1_554 S
C56 O60 1.258 . S
C57 O64 1.247 1_556 S
C57 O65 1.258 . S
O58 C56 1.247 1_556 S
O58 Zn59 2.028 . S
Zn59 O58 2.028 . S
Zn59 O63 2.035 . S
Zn59 O65 2.035 . S
Zn59 O66 2.028 . S
O60 C56 1.258 . S
O60 Zn61 2.035 . S
Zn61 O60 2.035 . S
Zn61 O62 2.028 . S
Zn61 O64 2.028 . S
Zn61 O67 2.035 . S
O62 Zn61 2.028 . S
O62 C68 1.247 1_554 S
O63 Zn59 2.035 . S
O63 C68 1.258 . S
O64 C57 1.247 1_554 S
O64 Zn61 2.028 . S
O65 C57 1.258 . S
O65 Zn59 2.035 . S
O66 Zn59 2.028 . S
O66 C69 1.247 1_556 S
O67 Zn61 2.035 . S
O67 C69 1.258 . S
C68 O62 1.247 1_556 S
C68 O63 1.258 . S
C69 O66 1.247 1_554 S
C69 O67 1.258 . S
C70 O72 1.247 . S
C70 O74 1.258 . S
C71 O78 1.247 . S
C71 O79 1.258 . S
O72 C70 1.247 . S
O72 Zn73 2.028 . S
Zn73 O72 2.028 . S
Zn73 O77 2.035 . S
Zn73 O79 2.035 . S
Zn73 O80 2.028 . S
O74 C70 1.258 . S
O74 Zn75 2.035 . S
Zn75 O74 2.035 . S
Zn75 O76 2.028 . S
Zn75 O78 2.028 . S
Zn75 O81 2.035 . S
O76 Zn75 2.028 . S
O76 C82 1.247 . S
O77 Zn73 2.035 . S
O77 C82 1.258 . S
O78 C71 1.247 . S
O78 Zn75 2.028 . S
O79 C71 1.258 . S
O79 Zn73 2.035 . S
O80 Zn73 2.028 . S
O80 C83 1.247 . S
O81 Zn75 2.035 . S
O81 C83 1.258 . S
C82 O76 1.247 . S
C82 O77 1.258 . S
C83 O80 1.247 . S
C83 O81 1.258 . S
C84 O86 1.247 . S
C84 O88 1.258 . S
C85 O92 1.247 . S
C85 O93 1.258 . S
O86 C84 1.247 . S
O86 Zn87 2.028 . S
Zn87 O86 2.028 . S
Zn87 O91 2.035 . S
Zn87 O93 2.035 . S
Zn87 O94 2.028 . S
O88 C84 1.258 . S
O88 Zn89 2.035 . S
Zn89 O88 2.035 . S
Zn89 O90 2.028 . S
Zn89 O92 2.028 . S
Zn89 O95 2.035 . S
O90 Zn89 2.028 . S
O90 C96 1.247 . S
O91 Zn87 2.035 . S
O91 C96 1.258 . S
O92 C85 1.247 . S
O92 Zn89 2.028 . S
O93 C85 1.258 . S
O93 Zn87 2.035 . S
O94 Zn87 2.028 . S
O94 C97 1.247 . S
O95 Zn89 2.035 . S
O95 C97 1.258 . S
C96 O90 1.247 . S
C96 O91 1.258 . S
C97 O94 1.247 . S
C97 O95 1.258 . S
C98 O100 1.247 . S
C98 O102 1.258 . S
C99 O106 1.247 . S
C99 O107 1.258 . S
O100 C98 1.247 . S
O100 Zn101 2.028 . S
Zn101 O100 2.028 . S
Zn101 O105 2.035 . S
Zn101 O107 2.035 . S
Zn101 O108 2.028 . S
O102 C98 1.258 . S
O102 Zn103 2.035 . S
Zn103 O102 2.035 . S
Zn103 O104 2.028 . S
Zn103 O106 2.028 . S
Zn103 O109 2.035 . S
O104 Zn103 2.028 . S
O104 C110 1.247 . S
O105 Zn101 2.035 . S
O105 C110 1.258 . S
O106 C99 1.247 . S
O106 Zn103 2.028 . S
O107 C99 1.258 . S
O107 Zn101 2.035 . S
O108 Zn101 2.028 . S
O108 C111 1.247 . S
O109 Zn103 2.035 . S
O109 C111 1.258 . S
C110 O104 1.247 . S
C110 O105 1.258 . S
C111 O108 1.247 . S
C111 O109 1.258 . S
C112 O114 1.247 . S
C112 O116 1.258 . S
C113 O120 1.247 . S
C113 O121 1.258 . S
O114 C112 1.247 . S
O114 Zn115 2.028 . S
Zn115 O114 2.028 . S
Zn115 O119 2.035 . S
Zn115 O121 2.035 . S
Zn115 O122 2.028 . S
O116 C112 1.258 . S
O116 Zn117 2.035 . S
Zn117 O116 2.035 . S
Zn117 O118 2.028 . S
Zn117 O120 2.028 . S
Zn117 O123 2.035 . S
O118 Zn117 2.028 . S
O118 C124 1.247 . S
O119 Zn115 2.035 . S
O119 C124 1.258 . S
O120 C113 1.247 . S
O120 Zn117 2.028 . S
O121 C113 1.258 . S
O121 Zn115 2.035 . S
O122 Zn115 2.028 . S
O122 C125 1.247 . S
O123 Zn117 2.035 . S
O123 C125 1.258 . S
C124 O118 1.247 . S
C124 O119 1.258 . S
C125 O122 1.247 . S
C125 O123 1.258 . S
C126 O128 1.247 . S
C126 O130 1.258 . S
C127 O134 1.247 . S
C127 O135 1.258 . S
O128 C126 1.247 . S
O128 Zn129 2.028 . S
Zn129 O128 2.028 . S
Zn129 O133 2.035 . S
Zn129 O135 2.035 . S
Zn129 O136 2.028 . S
O130 C126 1.258 . S
O130 Zn131 2.035 . S
Zn131 O130 2.035 . S
Zn131 O132 2.028 . S
Zn131 O134 2.028 . S
Zn131 O137 2.035 . S
O132 Zn131 2.028 . S
O132 C138 1.247 . S
O133 Zn129 2.035 . S
O133 C138 1.258 . S
O134 C127 1.247 . S
O134 Zn131 2.028 . S
O135 C127 1.258 . S
O135 Zn129 2.035 . S
O136 Zn129 2.028 . S
O136 C139 1.247 . S
O137 Zn131 2.035 . S
O137 C139 1.258 . S
C138 O132 1.247 . S
C138 O133 1.258 . S
C139 O136 1.247 . S
C139 O137 1.258 . S
C140 O142 1.247 . S
C140 O144 1.258 1_565 S
C141 O148 1.247 . S
C141 O149 1.258 1_545 S
O142 C140 1.247 . S
O142 Zn143 2.028 . S
Zn143 O142 2.028 . S
Zn143 O147 2.035 . S
Zn143 O149 2.035 . S
Zn143 O150 2.028 . S
O144 C140 1.258 1_545 S
O144 Zn145 2.035 . S
Zn145 O144 2.035 . S
Zn145 O146 2.028 . S
Zn145 O148 2.028 . S
Zn145 O151 2.035 . S
O146 Zn145 2.028 . S
O146 C152 1.247 . S
O147 Zn143 2.035 . S
O147 C152 1.258 1_565 S
O148 C141 1.247 . S
O148 Zn145 2.028 . S
O149 C141 1.258 1_565 S
O149 Zn143 2.035 . S
O150 Zn143 2.028 . S
O150 C153 1.247 . S
O151 Zn145 2.035 . S
O151 C153 1.258 1_545 S
C152 O146 1.247 . S
C152 O147 1.258 1_545 S
C153 O150 1.247 . S
C153 O151 1.258 1_565 S
C154 O156 1.247 1_556 S
C154 O158 1.258 . S
C155 O162 1.247 1_554 S
C155 O163 1.258 . S
O156 C154 1.247 1_554 S
O156 Zn157 2.028 . S
Zn157 O156 2.028 . S
Zn157 O161 2.035 . S
Zn157 O163 2.035 . S
Zn157 O164 2.028 . S
O158 C154 1.258 . S
O158 Zn159 2.035 . S
Zn159 O158 2.035 . S
Zn159 O160 2.028 . S
Zn159 O162 2.028 . S
Zn159 O165 2.035 . S
O160 Zn159 2.028 . S
O160 C166 1.247 1_556 S
O161 Zn157 2.035 . S
O161 C166 1.258 . S
O162 C155 1.247 1_556 S
O162 Zn159 2.028 . S
O163 C155 1.258 . S
O163 Zn157 2.035 . S
O164 Zn157 2.028 . S
O164 C167 1.247 1_554 S
O165 Zn159 2.035 . S
O165 C167 1.258 . S
C166 O160 1.247 1_554 S
C166 O161 1.258 . S
C167 O164 1.247 1_556 S
C167 O165 1.258 . S
C168 Eu169 2.835 . S
C168 C170 1.500 1_545 S
C168 O188 1.257 . S
C168 O189 1.260 . S
Eu169 C168 2.835 . S
Eu169 O188 2.473 . S
Eu169 O189 2.480 . S
Eu169 O190 2.430 . S
Eu169 O191 2.670 . S
Eu169 O192 2.394 . S
Eu169 O197 2.355 . S
Eu169 O199 2.374 . S
C170 C168 1.500 1_565 S
C170 C171 1.377 . S
C170 C175 1.379 . S
C171 C170 1.377 . S
C171 C172 1.395 . S
C171 H200 0.931 . S
C172 C171 1.395 . S
C172 C173 1.383 . S
C172 H201 0.931 . S
C173 C172 1.383 . S
C173 C174 1.394 . S
C174 C173 1.394 . S
C174 C175 1.387 . S
C174 H202 0.931 . S
C175 C170 1.379 . S
C175 C174 1.387 . S
C175 H203 0.920 1_565 S
C176 O190 1.259 . S
C176 O191 1.270 . S
C177 O192 1.251 . S
C177 O193 1.251 . S
C178 Eu179 2.835 . S
C178 C180 1.500 . S
C178 O194 1.257 . S
C178 O195 1.260 . S
Eu179 C178 2.835 . S
Eu179 O191 2.355 . S
Eu179 O193 2.374 . S
Eu179 O194 2.473 . S
Eu179 O195 2.480 . S
Eu179 O196 2.430 . S
Eu179 O197 2.670 . S
Eu179 O198 2.394 . S
C180 C178 1.500 . S
C180 C181 1.377 . S
C180 C185 1.377 . S
C181 C180 1.377 . S
C181 C182 1.395 . S
C181 H204 0.931 . S
C182 C181 1.395 . S
C182 C183 1.383 . S
C182 H205 0.931 . S
C183 C182 1.383 . S
C183 C184 1.394 . S
C184 C183 1.394 . S
C184 C185 1.378 . S
C184 H206 0.931 1_554 S
C185 C180 1.377 . S
C185 C184 1.378 . S
C185 H207 0.931 . S
C186 O196 1.259 . S
C186 O197 1.270 . S
C187 O198 1.251 . S
C187 O199 1.251 . S
O188 C168 1.257 . S
O188 Eu169 2.473 . S
O189 C168 1.260 . S
O189 Eu169 2.480 . S
O190 Eu169 2.430 . S
O190 C176 1.259 . S
O191 Eu169 2.670 . S
O191 C176 1.270 . S
O191 Eu179 2.355 . S
O192 Eu169 2.394 . S
O192 C177 1.251 . S
O193 C177 1.251 . S
O193 Eu179 2.374 . S
O194 C178 1.257 . S
O194 Eu179 2.473 . S
O195 C178 1.260 . S
O195 Eu179 2.480 . S
O196 Eu179 2.430 . S
O196 C186 1.259 . S
O197 Eu169 2.355 . S
O197 Eu179 2.670 . S
O197 C186 1.270 . S
O198 Eu179 2.394 . S
O198 C187 1.251 . S
O199 Eu169 2.374 . S
O199 C187 1.251 . S
H200 C171 0.931 . S
H201 C172 0.931 . S
H202 C174 0.931 . S
H203 C175 0.920 1_545 S
H204 C181 0.931 . S
H205 C182 0.931 . S
H206 C184 0.931 1_556 S
H207 C185 0.931 . S
C208 Eu209 2.835 . S
C208 C210 1.500 . S
C208 O228 1.257 . S
C208 O229 1.260 . S
Eu209 C208 2.835 . S
Eu209 O228 2.473 . S
Eu209 O229 2.480 . S
Eu209 O230 2.430 . S
Eu209 O231 2.670 . S
Eu209 O232 2.394 . S
Eu209 O237 2.355 . S
Eu209 O239 2.374 . S
C210 C208 1.500 . S
C210 C211 1.377 . S
C210 C215 1.377 . S
C211 C210 1.377 . S
C211 C212 1.395 . S
C211 H240 0.931 . S
C212 C211 1.395 . S
C212 C213 1.383 . S
C212 H241 0.931 . S
C213 C212 1.383 . S
C213 C214 1.394 . S
C214 C213 1.394 . S
C214 C215 1.378 . S
C214 H242 0.931 . S
C215 C210 1.377 . S
C215 C214 1.378 . S
C215 H243 0.931 . S
C216 O230 1.259 . S
C216 O231 1.270 . S
C217 O232 1.251 . S
C217 O233 1.251 1_655 S
C218 Eu219 2.835 . S
C218 C220 1.500 . S
C218 O234 1.257 . S
C218 O235 1.260 . S
Eu219 C218 2.835 . S
Eu219 O231 2.355 1_455 S
Eu219 O233 2.374 . S
Eu219 O234 2.473 . S
Eu219 O235 2.480 . S
Eu219 O236 2.430 1_455 S
Eu219 O237 2.670 1_455 S
Eu219 O238 2.394 1_455 S
C220 C218 1.500 . S
C220 C221 1.377 . S
C220 C225 1.377 . S
C221 C220 1.377 . S
C221 C222 1.395 1_554 S
C221 H244 0.936 . S
C222 C221 1.395 1_556 S
C222 C223 1.383 1_556 S
C222 H245 0.931 . S
C223 C222 1.383 1_554 S
C223 C224 1.394 . S
C224 C223 1.394 . S
C224 C225 1.378 . S
C224 H246 0.931 . S
C225 C220 1.377 . S
C225 C224 1.378 . S
C225 H247 0.931 . S
C226 O236 1.259 . S
C226 O237 1.270 . S
C227 O238 1.251 . S
C227 O239 1.251 . S
O228 C208 1.257 . S
O228 Eu209 2.473 . S
O229 C208 1.260 . S
O229 Eu209 2.480 . S
O230 Eu209 2.430 . S
O230 C216 1.259 . S
O231 Eu209 2.670 . S
O231 C216 1.270 . S
O231 Eu219 2.355 1_655 S
O232 Eu209 2.394 . S
O232 C217 1.251 . S
O233 C217 1.251 1_455 S
O233 Eu219 2.374 . S
O234 C218 1.257 . S
O234 Eu219 2.473 . S
O235 C218 1.260 . S
O235 Eu219 2.480 . S
O236 Eu219 2.430 1_655 S
O236 C226 1.259 . S
O237 Eu209 2.355 . S
O237 Eu219 2.670 1_655 S
O237 C226 1.270 . S
O238 Eu219 2.394 1_655 S
O238 C227 1.251 . S
O239 Eu209 2.374 . S
O239 C227 1.251 . S
H240 C211 0.931 . S
H241 C212 0.931 . S
H242 C214 0.931 . S
H243 C215 0.931 . S
H244 C221 0.936 . S
H245 C222 0.931 . S
H246 C224 0.931 . S
H247 C225 0.931 . S
C248 Eu249 2.835 . S
C248 C250 1.500 . S
C248 O268 1.257 . S
C248 O269 1.260 . S
Eu249 C248 2.835 . S
Eu249 O268 2.473 . S
Eu249 O269 2.480 . S
Eu249 O270 2.430 1_545 S
Eu249 O271 2.670 1_545 S
Eu249 O272 2.394 1_545 S
Eu249 O277 2.353 1_545 S
Eu249 O279 2.374 . S
C250 C248 1.500 . S
C250 C251 1.377 . S
C250 C255 1.377 . S
C251 C250 1.377 . S
C251 C252 1.395 . S
C251 H280 0.931 . S
C252 C251 1.395 . S
C252 C253 1.383 . S
C252 H281 0.931 . S
C253 C252 1.383 . S
C253 C254 1.394 . S
C254 C253 1.394 . S
C254 C255 1.378 . S
C254 H282 0.931 . S
C255 C250 1.377 . S
C255 C254 1.378 . S
C255 H283 0.931 . S
C256 O270 1.259 . S
C256 O271 1.270 . S
C257 O272 1.251 . S
C257 O273 1.251 . S
C258 Eu259 2.835 . S
C258 C260 1.500 . S
C258 O274 1.257 . S
C258 O275 1.260 . S
Eu259 C258 2.835 . S
Eu259 O271 2.355 . S
Eu259 O273 2.374 . S
Eu259 O274 2.473 . S
Eu259 O275 2.480 . S
Eu259 O276 2.430 . S
Eu259 O277 2.678 . S
Eu259 O278 2.394 1_565 S
C260 C258 1.500 . S
C260 C261 1.377 . S
C260 C265 1.377 . S
C261 C260 1.377 . S
C261 C262 1.395 . S
C261 H284 0.931 . S
C262 C261 1.395 . S
C262 C263 1.383 . S
C262 H285 0.931 . S
C263 C262 1.383 . S
C263 C264 1.394 . S
C264 C263 1.394 . S
C264 C265 1.378 . S
C264 H286 0.931 1_455 S
C265 C260 1.377 . S
C265 C264 1.378 . S
C265 H287 0.931 . S
C266 O276 1.259 1_545 S
C266 O277 1.267 1_545 S
C267 O278 1.251 . S
C267 O279 1.251 . S
O268 C248 1.257 . S
O268 Eu249 2.473 . S
O269 C248 1.260 . S
O269 Eu249 2.480 . S
O270 Eu249 2.430 1_565 S
O270 C256 1.259 . S
O271 Eu249 2.670 1_565 S
O271 C256 1.270 . S
O271 Eu259 2.355 . S
O272 Eu249 2.394 1_565 S
O272 C257 1.251 . S
O273 C257 1.251 . S
O273 Eu259 2.374 . S
O274 C258 1.257 . S
O274 Eu259 2.473 . S
O275 C258 1.260 . S
O275 Eu259 2.480 . S
O276 Eu259 2.430 . S
O276 C266 1.259 1_565 S
O277 Eu249 2.353 1_565 S
O277 Eu259 2.678 . S
O277 C266 1.267 1_565 S
O278 Eu259 2.394 1_545 S
O278 C267 1.251 . S
O279 Eu249 2.374 . S
O279 C267 1.251 . S
H280 C251 0.931 . S
H281 C252 0.931 . S
H282 C254 0.931 . S
H283 C255 0.931 . S
H284 C261 0.931 . S
H285 C262 0.931 . S
H286 C264 0.931 1_655 S
H287 C265 0.931 . S
C288 Eu289 2.835 . S
C288 C290 1.500 . S
C288 O308 1.257 . S
C288 O309 1.260 . S
Eu289 C288 2.835 . S
Eu289 O308 2.473 . S
Eu289 O309 2.480 . S
Eu289 O310 2.430 . S
Eu289 O311 2.670 . S
Eu289 O312 2.394 . S
Eu289 O317 2.355 1_455 S
Eu289 O319 2.374 1_455 S
C290 C288 1.500 . S
C290 C291 1.377 . S
C290 C295 1.377 . S
C291 C290 1.377 . S
C291 C292 1.395 . S
C291 H320 0.931 . S
C292 C291 1.395 . S
C292 C293 1.383 . S
C292 H321 0.931 . S
C293 C292 1.383 . S
C293 C294 1.394 . S
C294 C293 1.394 . S
C294 C295 1.378 . S
C294 H322 0.931 . S
C295 C290 1.377 . S
C295 C294 1.378 . S
C295 H323 0.931 . S
C296 O310 1.259 . S
C296 O311 1.270 . S
C297 O312 1.251 . S
C297 O313 1.251 . S
C298 Eu299 2.835 . S
C298 C300 1.500 . S
C298 O314 1.257 . S
C298 O315 1.260 . S
Eu299 C298 2.835 . S
Eu299 O311 2.355 1_655 S
Eu299 O313 2.374 1_655 S
Eu299 O314 2.473 . S
Eu299 O315 2.480 . S
Eu299 O316 2.430 . S
Eu299 O317 2.670 . S
Eu299 O318 2.394 . S
C300 C298 1.500 . S
C300 C301 1.377 . S
C300 C305 1.377 . S
C301 C300 1.377 . S
C301 C302 1.395 . S
C301 H324 0.931 . S
C302 C301 1.395 . S
C302 C303 1.383 . S
C302 H325 0.931 . S
C303 C302 1.383 . S
C303 C304 1.394 . S
C304 C303 1.394 . S
C304 C305 1.378 . S
C304 H326 0.931 . S
C305 C300 1.377 . S
C305 C304 1.378 . S
C305 H327 0.931 . S
C306 O316 1.259 . S
C306 O317 1.270 . S
C307 O318 1.251 . S
C307 O319 1.251 . S
O308 C288 1.257 . S
O308 Eu289 2.473 . S
O309 C288 1.260 . S
O309 Eu289 2.480 . S
O310 Eu289 2.430 . S
O310 C296 1.259 . S
O311 Eu289 2.670 . S
O311 C296 1.270 . S
O311 Eu299 2.355 1_455 S
O312 Eu289 2.394 . S
O312 C297 1.251 . S
O313 C297 1.251 . S
O313 Eu299 2.374 1_455 S
O314 C298 1.257 . S
O314 Eu299 2.473 . S
O315 C298 1.260 . S
O315 Eu299 2.480 . S
O316 Eu299 2.430 . S
O316 C306 1.259 . S
O317 Eu289 2.355 1_655 S
O317 Eu299 2.670 . S
O317 C306 1.270 . S
O318 Eu299 2.394 . S
O318 C307 1.251 . S
O319 Eu289 2.374 1_655 S
O319 C307 1.251 . S
H320 C291 0.931 . S
H321 C292 0.931 . S
H322 C294 0.931 . S
H323 C295 0.931 . S
H324 C301 0.931 . S
H325 C302 0.931 . S
H326 C304 0.931 . S
H327 C305 0.931 . S
C328 Eu329 2.835 1_545 S
C328 C330 1.500 . S
C328 O348 1.257 . S
C328 O349 1.260 . S
Eu329 C328 2.835 1_565 S
Eu329 O348 2.473 1_565 S
Eu329 O349 2.480 1_565 S
Eu329 O350 2.430 . S
Eu329 O351 2.670 . S
Eu329 O352 2.394 1_565 S
Eu329 O357 2.355 1_565 S
Eu329 O359 2.374 . S
C330 C328 1.500 . S
C330 C331 1.377 . S
C330 C335 1.377 . S
C331 C330 1.377 . S
C331 C332 1.395 . S
C331 H360 0.931 . S
C332 C331 1.395 . S
C332 C333 1.383 . S
C332 H361 0.931 . S
C333 C332 1.383 . S
C333 C334 1.394 . S
C334 C333 1.394 . S
C334 C335 1.378 . S
C334 H362 0.931 . S
C335 C330 1.377 . S
C335 C334 1.378 . S
C335 H363 0.931 . S
C336 O350 1.259 . S
C336 O351 1.270 . S
C337 O352 1.251 . S
C337 O353 1.251 . S
C338 Eu339 2.835 1_565 S
C338 C340 1.500 . S
C338 O354 1.257 . S
C338 O355 1.260 . S
Eu339 C338 2.835 1_545 S
Eu339 O351 2.355 1_545 S
Eu339 O353 2.374 . S
Eu339 O354 2.473 1_545 S
Eu339 O355 2.480 1_545 S
Eu339 O356 2.430 . S
Eu339 O357 2.670 . S
Eu339 O358 2.394 1_545 S
C340 C338 1.500 . S
C340 C341 1.377 . S
C340 C345 1.377 . S
C341 C340 1.377 . S
C341 C342 1.395 . S
C341 H364 0.931 . S
C342 C341 1.395 . S
C342 C343 1.383 . S
C342 H365 0.931 . S
C343 C342 1.383 . S
C343 C344 1.394 . S
C344 C343 1.394 . S
C344 C345 1.378 . S
C344 H366 0.931 . S
C345 C340 1.377 . S
C345 C344 1.378 . S
C345 H367 0.931 . S
C346 O356 1.259 . S
C346 O357 1.270 . S
C347 O358 1.251 . S
C347 O359 1.251 . S
O348 C328 1.257 . S
O348 Eu329 2.473 1_545 S
O349 C328 1.260 . S
O349 Eu329 2.480 1_545 S
O350 Eu329 2.430 . S
O350 C336 1.259 . S
O351 Eu329 2.670 . S
O351 C336 1.270 . S
O351 Eu339 2.355 1_565 S
O352 Eu329 2.394 1_545 S
O352 C337 1.251 . S
O353 C337 1.251 . S
O353 Eu339 2.374 . S
O354 C338 1.257 . S
O354 Eu339 2.473 1_565 S
O355 C338 1.260 . S
O355 Eu339 2.480 1_565 S
O356 Eu339 2.430 . S
O356 C346 1.259 . S
O357 Eu329 2.355 1_545 S
O357 Eu339 2.670 . S
O357 C346 1.270 . S
O358 Eu339 2.394 1_565 S
O358 C347 1.251 . S
O359 Eu329 2.374 . S
O359 C347 1.251 . S
H360 C331 0.931 . S
H361 C332 0.931 . S
H362 C334 0.931 . S
H363 C335 0.931 . S
H364 C341 0.931 . S
H365 C342 0.931 . S
H366 C344 0.931 . S
H367 C345 0.931 . S
C368 Eu369 2.835 . S
C368 C370 1.500 . S
C368 O388 1.257 . S
C368 O389 1.260 . S
Eu369 C368 2.835 . S
Eu369 O388 2.473 . S
Eu369 O389 2.480 . S
Eu369 O390 2.430 . S
Eu369 O391 2.670 . S
Eu369 O392 2.394 . S
Eu369 O397 2.355 . S
Eu369 O399 2.374 . S
C370 C368 1.500 . S
C370 C371 1.377 . S
C370 C375 1.377 . S
C371 C370 1.377 . S
C371 C372 1.395 . S
C371 H400 0.931 . S
C372 C371 1.395 . S
C372 C373 1.383 . S
C372 H401 0.931 . S
C373 C372 1.383 . S
C373 C374 1.394 . S
C374 C373 1.394 . S
C374 C375 1.378 . S
C374 H402 0.931 . S
C375 C370 1.377 . S
C375 C374 1.378 . S
C375 H403 0.931 . S
C376 O390 1.259 . S
C376 O391 1.270 . S
C377 O392 1.251 . S
C377 O393 1.251 . S
C378 Eu379 2.835 . S
C378 C380 1.500 . S
C378 O394 1.257 . S
C378 O395 1.260 . S
Eu379 C378 2.835 . S
Eu379 O391 2.355 . S
Eu379 O393 2.374 . S
Eu379 O394 2.473 . S
Eu379 O395 2.480 . S
Eu379 O396 2.430 . S
Eu379 O397 2.670 . S
Eu379 O398 2.394 . S
C380 C378 1.500 . S
C380 C381 1.377 . S
C380 C385 1.377 . S
C381 C380 1.377 . S
C381 C382 1.395 . S
C381 H404 0.931 . S
C382 C381 1.395 . S
C382 C383 1.383 . S
C382 H405 0.931 . S
C383 C382 1.383 . S
C383 C384 1.394 . S
C384 C383 1.394 . S
C384 C385 1.378 . S
C384 H406 0.931 . S
C385 C380 1.377 . S
C385 C384 1.378 . S
C385 H407 0.931 . S
C386 O396 1.259 . S
C386 O397 1.270 . S
C387 O398 1.251 . S
C387 O399 1.251 . S
O388 C368 1.257 . S
O388 Eu369 2.473 . S
O389 C368 1.260 . S
O389 Eu369 2.480 . S
O390 Eu369 2.430 . S
O390 C376 1.259 . S
O391 Eu369 2.670 . S
O391 C376 1.270 . S
O391 Eu379 2.355 . S
O392 Eu369 2.394 . S
O392 C377 1.251 . S
O393 C377 1.251 . S
O393 Eu379 2.374 . S
O394 C378 1.257 . S
O394 Eu379 2.473 . S
O395 C378 1.260 . S
O395 Eu379 2.480 . S
O396 Eu379 2.430 . S
O396 C386 1.259 . S
O397 Eu369 2.355 . S
O397 Eu379 2.670 . S
O397 C386 1.270 . S
O398 Eu379 2.394 . S
O398 C387 1.251 . S
O399 Eu369 2.374 . S
O399 C387 1.251 . S
H400 C371 0.931 . S
H401 C372 0.931 . S
H402 C374 0.931 . S
H403 C375 0.931 . S
H404 C381 0.931 . S
H405 C382 0.931 . S
H406 C384 0.931 . S
H407 C385 0.931 . S
C408 Eu409 2.835 . S
C408 C410 1.500 . S
C408 O428 1.257 . S
C408 O429 1.260 . S
Eu409 C408 2.835 . S
Eu409 O428 2.473 . S
Eu409 O429 2.480 . S
Eu409 O430 2.430 . S
Eu409 O431 2.670 1_554 S
Eu409 O432 2.394 . S
Eu409 O437 2.355 1_554 S
Eu409 O439 2.374 1_554 S
C410 C408 1.500 . S
C410 C411 1.377 . S
C410 C415 1.377 . S
C411 C410 1.377 . S
C411 C412 1.395 . S
C411 H440 0.931 . S
C412 C411 1.395 . S
C412 C413 1.383 . S
C412 H441 0.931 . S
C413 C412 1.383 . S
C413 C414 1.394 . S
C414 C413 1.394 . S
C414 C415 1.378 . S
C414 H442 0.931 . S
C415 C410 1.377 . S
C415 C414 1.378 . S
C415 H443 0.931 . S
C416 O430 1.259 . S
C416 O431 1.270 1_554 S
C417 O432 1.251 . S
C417 O433 1.251 1_554 S
C418 Eu419 2.835 . S
C418 C420 1.500 . S
C418 O434 1.257 . S
C418 O435 1.260 . S
Eu419 C418 2.835 . S
Eu419 O431 2.355 . S
Eu419 O433 2.374 . S
Eu419 O434 2.473 . S
Eu419 O435 2.480 . S
Eu419 O436 2.430 . S
Eu419 O437 2.670 . S
Eu419 O438 2.394 . S
C420 C418 1.500 . S
C420 C421 1.377 . S
C420 C425 1.377 . S
C421 C420 1.377 . S
C421 C422 1.395 . S
C421 H444 0.931 . S
C422 C421 1.395 . S
C422 C423 1.383 . S
C422 H445 0.931 . S
C423 C422 1.383 . S
C423 C424 1.394 . S
C424 C423 1.394 . S
C424 C425 1.378 . S
C424 H446 0.931 . S
C425 C420 1.377 . S
C425 C424 1.378 . S
C425 H447 0.931 . S
C426 O436 1.259 . S
C426 O437 1.270 . S
C427 O438 1.251 . S
C427 O439 1.251 . S
O428 C408 1.257 . S
O428 Eu409 2.473 . S
O429 C408 1.260 . S
O429 Eu409 2.480 . S
O430 Eu409 2.430 . S
O430 C416 1.259 . S
O431 Eu409 2.670 1_556 S
O431 C416 1.270 1_556 S
O431 Eu419 2.355 . S
O432 Eu409 2.394 . S
O432 C417 1.251 . S
O433 C417 1.251 1_556 S
O433 Eu419 2.374 . S
O434 C418 1.257 . S
O434 Eu419 2.473 . S
O435 C418 1.260 . S
O435 Eu419 2.480 . S
O436 Eu419 2.430 . S
O436 C426 1.259 . S
O437 Eu409 2.355 1_556 S
O437 Eu419 2.670 . S
O437 C426 1.270 . S
O438 Eu419 2.394 . S
O438 C427 1.251 . S
O439 Eu409 2.374 1_556 S
O439 C427 1.251 . S
H440 C411 0.931 . S
H441 C412 0.931 . S
H442 C414 0.931 . S
H443 C415 0.931 . S
H444 C421 0.931 . S
H445 C422 0.931 . S
H446 C424 0.931 . S
H447 C425 0.931 . S
C448 Eu449 2.835 . S
C448 C450 1.500 . S
C448 O468 1.257 . S
C448 O469 1.260 . S
Eu449 C448 2.835 . S
Eu449 O468 2.473 . S
Eu449 O469 2.480 . S
Eu449 O470 2.430 1_554 S
Eu449 O471 2.670 1_554 S
Eu449 O472 2.394 1_554 S
Eu449 O477 2.355 . S
Eu449 O479 2.374 . S
C450 C448 1.500 . S
C450 C451 1.378 . S
C450 C455 1.377 . S
C451 C450 1.378 . S
C451 C452 1.397 1_554 S
C451 H480 0.929 1_554 S
C452 C451 1.397 1_556 S
C452 C453 1.383 . S
C452 H481 0.932 . S
C453 C452 1.383 . S
C453 C454 1.393 1_556 S
C454 C453 1.393 1_554 S
C454 C455 1.378 . S
C454 H482 0.931 . S
C455 C450 1.377 . S
C455 C454 1.378 . S
C455 H483 0.931 . S
C456 O470 1.259 . S
C456 O471 1.270 . S
C457 O472 1.251 . S
C457 O473 1.251 . S
C458 Eu459 2.835 . S
C458 C460 1.500 . S
C458 O474 1.257 . S
C458 O475 1.260 . S
Eu459 C458 2.835 . S
Eu459 O471 2.355 . S
Eu459 O473 2.374 . S
Eu459 O474 2.473 . S
Eu459 O475 2.480 . S
Eu459 O476 2.430 1_556 S
Eu459 O477 2.670 1_556 S
Eu459 O478 2.394 1_556 S
C460 C458 1.500 . S
C460 C461 1.379 . S
C460 C465 1.377 1_545 S
C461 C460 1.379 . S
C461 C462 1.397 1_556 S
C461 H484 0.929 1_556 S
C462 C461 1.397 1_554 S
C462 C463 1.383 1_545 S
C462 H485 0.932 . S
C463 C462 1.383 1_565 S
C463 C464 1.393 1_554 S
C464 C463 1.393 1_556 S
C464 C465 1.378 . S
C464 H486 0.931 . S
C465 C460 1.377 1_565 S
C465 C464 1.378 . S
C465 H487 0.931 . S
C466 O476 1.259 . S
C466 O477 1.270 . S
C467 O478 1.251 . S
C467 O479 1.251 . S
O468 C448 1.257 . S
O468 Eu449 2.473 . S
O469 C448 1.260 . S
O469 Eu449 2.480 . S
O470 Eu449 2.430 1_556 S
O470 C456 1.259 . S
O471 Eu449 2.670 1_556 S
O471 C456 1.270 . S
O471 Eu459 2.355 . S
O472 Eu449 2.394 1_556 S
O472 C457 1.251 . S
O473 C457 1.251 . S
O473 Eu459 2.374 . S
O474 C458 1.257 . S
O474 Eu459 2.473 . S
O475 C458 1.260 . S
O475 Eu459 2.480 . S
O476 Eu459 2.430 1_554 S
O476 C466 1.259 . S
O477 Eu449 2.355 . S
O477 Eu459 2.670 1_554 S
O477 C466 1.270 . S
O478 Eu459 2.394 1_554 S
O478 C467 1.251 . S
O479 Eu449 2.374 . S
O479 C467 1.251 . S
H480 C451 0.929 1_556 S
H481 C452 0.932 . S
H482 C454 0.931 . S
H483 C455 0.931 . S
H484 C461 0.929 1_554 S
H485 C462 0.932 . S
H486 C464 0.931 . S
H487 C465 0.931 . S
C488 C489 1.391 . S
C488 C490 1.394 . S
C488 H504 0.922 1_455 S
C489 C488 1.391 . S
C489 C493 1.376 . S
C490 C488 1.394 . S
C490 C491 1.369 . S
C490 C494 1.531 1_455 S
C491 C490 1.369 . S
C491 C492 1.410 . S
C491 C499 1.503 . S
C492 C491 1.410 . S
C492 C493 1.392 . S
C492 C495 1.511 . S
C493 C489 1.376 . S
C493 C492 1.392 . S
C493 H505 0.929 . S
C494 C490 1.531 1_655 S
C494 H506 0.960 . S
C494 H507 0.962 . S
C494 H508 0.960 . S
C495 C492 1.511 . S
C495 H509 0.961 . S
C495 H510 0.961 . S
C495 H511 0.961 . S
C496 C497 1.370 . S
C496 C498 1.363 . S
C496 H512 0.931 . S
C497 C496 1.370 . S
C497 C501 1.408 . S
C498 C496 1.363 . S
C498 C499 1.370 . S
C498 C502 1.524 . S
C499 C491 1.503 . S
C499 C498 1.370 . S
C499 C500 1.403 . S
C500 C499 1.403 . S
C500 C501 1.404 . S
C500 C503 1.539 . S
C501 C497 1.408 . S
C501 C500 1.404 . S
C501 H513 0.930 . S
C502 C498 1.524 . S
C502 H514 0.956 . S
C502 H515 0.961 . S
C502 H516 0.961 . S
C503 C500 1.539 . S
C503 H517 0.958 . S
C503 H518 0.961 . S
C503 H519 0.960 . S
H504 C488 0.922 1_655 S
H505 C493 0.929 . S
H506 C494 0.960 . S
H507 C494 0.962 . S
H508 C494 0.960 . S
H509 C495 0.961 . S
H510 C495 0.961 . S
H511 C495 0.961 . S
H512 C496 0.931 . S
H513 C501 0.930 . S
H514 C502 0.956 . S
H515 C502 0.961 . S
H516 C502 0.961 . S
H517 C503 0.958 . S
H518 C503 0.961 . S
H519 C503 0.960 . S
C520 C521 1.391 . S
C520 C522 1.394 . S
C520 H536 0.931 . S
C521 C520 1.391 . S
C521 C525 1.376 1_455 S
C522 C520 1.394 . S
C522 C523 1.369 . S
C522 C526 1.531 . S
C523 C522 1.369 . S
C523 C524 1.410 1_455 S
C523 C531 1.503 . S
C524 C523 1.410 1_655 S
C524 C525 1.392 . S
C524 C527 1.511 . S
C525 C521 1.376 1_655 S
C525 C524 1.392 . S
C525 H537 0.929 . S
C526 C522 1.531 . S
C526 H538 0.960 . S
C526 H539 0.962 . S
C526 H540 0.960 . S
C527 C524 1.511 . S
C527 H541 0.961 . S
C527 H542 0.961 . S
C527 H543 0.961 . S
C528 C529 1.370 . S
C528 C530 1.363 . S
C528 H544 0.931 . S
C529 C528 1.370 . S
C529 C533 1.408 . S
C530 C528 1.363 . S
C530 C531 1.370 . S
C530 C534 1.524 . S
C531 C523 1.503 . S
C531 C530 1.370 . S
C531 C532 1.403 . S
C532 C531 1.403 . S
C532 C533 1.404 . S
C532 C535 1.539 1_455 S
C533 C529 1.408 . S
C533 C532 1.404 . S
C533 H545 0.930 1_455 S
C534 C530 1.524 . S
C534 H546 0.956 . S
C534 H547 0.961 . S
C534 H548 0.961 . S
C535 C532 1.539 1_655 S
C535 H549 0.958 . S
C535 H550 0.961 . S
C535 H551 0.960 . S
H536 C520 0.931 . S
H537 C525 0.929 . S
H538 C526 0.960 . S
H539 C526 0.962 . S
H540 C526 0.960 . S
H541 C527 0.961 . S
H542 C527 0.961 . S
H543 C527 0.961 . S
H544 C528 0.931 . S
H545 C533 0.930 1_655 S
H546 C534 0.956 . S
H547 C534 0.961 . S
H548 C534 0.961 . S
H549 C535 0.958 . S
H550 C535 0.961 . S
H551 C535 0.960 . S
C552 C553 1.391 . S
C552 C554 1.394 . S
C552 H568 0.931 . S
C553 C552 1.391 . S
C553 C557 1.376 1_455 S
C554 C552 1.394 . S
C554 C555 1.369 . S
C554 C558 1.531 . S
C555 C554 1.369 . S
C555 C556 1.410 1_455 S
C555 C563 1.503 . S
C556 C555 1.410 1_655 S
C556 C557 1.392 . S
C556 C559 1.511 . S
C557 C553 1.376 1_655 S
C557 C556 1.392 . S
C557 H569 0.929 . S
C558 C554 1.531 . S
C558 H570 0.960 . S
C558 H571 0.962 . S
C558 H572 0.960 . S
C559 C556 1.511 . S
C559 H573 0.961 . S
C559 H574 0.961 . S
C559 H575 0.961 . S
C560 C561 1.370 . S
C560 C562 1.363 . S
C560 H576 0.931 . S
C561 C560 1.370 . S
C561 C565 1.408 . S
C562 C560 1.363 . S
C562 C563 1.370 . S
C562 C566 1.524 . S
C563 C555 1.503 . S
C563 C562 1.370 . S
C563 C564 1.403 . S
C564 C563 1.403 . S
C564 C565 1.404 . S
C564 C567 1.539 1_455 S
C565 C561 1.408 . S
C565 C564 1.404 . S
C565 H577 0.930 . S
C566 C562 1.524 . S
C566 H578 0.956 . S
C566 H579 0.961 . S
C566 H580 0.961 . S
C567 C564 1.539 1_655 S
C567 H581 0.958 1_655 S
C567 H582 0.961 . S
C567 H583 0.960 . S
H568 C552 0.931 . S
H569 C557 0.929 . S
H570 C558 0.960 . S
H571 C558 0.962 . S
H572 C558 0.960 . S
H573 C559 0.961 . S
H574 C559 0.961 . S
H575 C559 0.961 . S
H576 C560 0.931 . S
H577 C565 0.930 . S
H578 C566 0.956 . S
H579 C566 0.961 . S
H580 C566 0.961 . S
H581 C567 0.958 1_455 S
H582 C567 0.961 . S
H583 C567 0.960 . S
C584 C585 1.391 . S
C584 C586 1.394 . S
C584 H600 0.931 . S
C585 C584 1.391 . S
C585 C589 1.376 1_655 S
C586 C584 1.394 . S
C586 C587 1.369 . S
C586 C590 1.531 . S
C587 C586 1.369 . S
C587 C588 1.410 1_655 S
C587 C595 1.503 . S
C588 C587 1.410 1_455 S
C588 C589 1.392 . S
C588 C591 1.511 . S
C589 C585 1.376 1_455 S
C589 C588 1.392 . S
C589 H601 0.929 . S
C590 C586 1.531 . S
C590 H602 0.960 . S
C590 H603 0.962 . S
C590 H604 0.960 . S
C591 C588 1.511 . S
C591 H605 0.961 . S
C591 H606 0.961 . S
C591 H607 0.961 . S
C592 C593 1.370 . S
C592 C594 1.363 . S
C592 H608 0.931 . S
C593 C592 1.370 . S
C593 C597 1.408 1_655 S
C594 C592 1.363 . S
C594 C595 1.370 . S
C594 C598 1.524 . S
C595 C587 1.503 . S
C595 C594 1.370 . S
C595 C596 1.403 1_655 S
C596 C595 1.403 1_455 S
C596 C597 1.404 . S
C596 C599 1.539 . S
C597 C593 1.408 1_455 S
C597 C596 1.404 . S
C597 H609 0.930 . S
C598 C594 1.524 . S
C598 H610 0.956 . S
C598 H611 0.961 . S
C598 H612 0.961 . S
C599 C596 1.539 . S
C599 H613 0.958 . S
C599 H614 0.961 . S
C599 H615 0.960 . S
H600 C584 0.931 . S
H601 C589 0.929 . S
H602 C590 0.960 . S
H603 C590 0.962 . S
H604 C590 0.960 . S
H605 C591 0.961 . S
H606 C591 0.961 . S
H607 C591 0.961 . S
H608 C592 0.931 . S
H609 C597 0.930 . S
H610 C598 0.956 . S
H611 C598 0.961 . S
H612 C598 0.961 . S
H613 C599 0.958 . S
H614 C599 0.961 . S
H615 C599 0.960 . S
C616 C617 1.391 . S
C616 C618 1.394 . S
C616 H632 0.931 . S
C617 C616 1.391 . S
C617 C621 1.376 . S
C618 C616 1.394 . S
C618 C619 1.369 . S
C618 C622 1.531 . S
C619 C618 1.369 . S
C619 C620 1.410 . S
C619 C627 1.503 . S
C620 C619 1.410 . S
C620 C621 1.392 . S
C620 C623 1.511 . S
C621 C617 1.376 . S
C621 C620 1.392 . S
C621 H633 0.926 1_545 S
C622 C618 1.531 . S
C622 H634 0.960 . S
C622 H635 0.962 . S
C622 H636 0.960 . S
C623 C620 1.511 . S
C623 H637 0.961 1_545 S
C623 H638 0.961 1_545 S
C623 H639 0.961 . S
C624 C625 1.370 . S
C624 C626 1.363 . S
C624 H640 0.931 1_545 S
C625 C624 1.370 . S
C625 C629 1.408 . S
C626 C624 1.363 . S
C626 C627 1.370 . S
C626 C630 1.524 1_545 S
C627 C619 1.503 . S
C627 C626 1.370 . S
C627 C628 1.403 . S
C628 C627 1.403 . S
C628 C629 1.404 . S
C628 C631 1.539 . S
C629 C625 1.408 . S
C629 C628 1.404 . S
C629 H641 0.930 . S
C630 C626 1.524 1_565 S
C630 H642 0.956 . S
C630 H643 0.961 . S
C630 H644 0.961 . S
C631 C628 1.539 . S
C631 H645 0.958 . S
C631 H646 0.961 . S
C631 H647 0.960 . S
H632 C616 0.931 . S
H633 C621 0.926 1_565 S
H634 C622 0.960 . S
H635 C622 0.962 . S
H636 C622 0.960 . S
H637 C623 0.961 1_565 S
H638 C623 0.961 1_565 S
H639 C623 0.961 . S
H640 C624 0.931 1_565 S
H641 C629 0.930 . S
H642 C630 0.956 . S
H643 C630 0.961 . S
H644 C630 0.961 . S
H645 C631 0.958 . S
H646 C631 0.961 . S
H647 C631 0.960 . S
C648 C649 1.391 . S
C648 C650 1.394 . S
C648 H664 0.931 . S
C649 C648 1.391 . S
C649 C653 1.376 . S
C650 C648 1.394 . S
C650 C651 1.369 . S
C650 C654 1.531 . S
C651 C650 1.369 . S
C651 C652 1.410 . S
C651 C659 1.503 . S
C652 C651 1.410 . S
C652 C653 1.392 . S
C652 C655 1.511 . S
C653 C649 1.376 . S
C653 C652 1.392 . S
C653 H665 0.929 . S
C654 C650 1.531 . S
C654 H666 0.960 . S
C654 H667 0.962 . S
C654 H668 0.960 . S
C655 C652 1.511 . S
C655 H669 0.961 . S
C655 H670 0.961 . S
C655 H671 0.961 . S
C656 C657 1.370 . S
C656 C658 1.363 . S
C656 H672 0.931 . S
C657 C656 1.370 . S
C657 C661 1.408 . S
C658 C656 1.363 . S
C658 C659 1.370 . S
C658 C662 1.524 . S
C659 C651 1.503 . S
C659 C658 1.370 . S
C659 C660 1.403 . S
C660 C659 1.403 . S
C660 C661 1.404 . S
C660 C663 1.539 . S
C661 C657 1.408 . S
C661 C660 1.404 . S
C661 H673 0.930 . S
C662 C658 1.524 . S
C662 H674 0.956 . S
C662 H675 0.961 . S
C662 H676 0.961 . S
C663 C660 1.539 . S
C663 H677 0.958 . S
C663 H678 0.961 . S
C663 H679 0.960 . S
H664 C648 0.931 . S
H665 C653 0.929 . S
H666 C654 0.960 . S
H667 C654 0.962 . S
H668 C654 0.960 . S
H669 C655 0.961 . S
H670 C655 0.961 . S
H671 C655 0.961 . S
H672 C656 0.931 . S
H673 C661 0.930 . S
H674 C662 0.956 . S
H675 C662 0.961 . S
H676 C662 0.961 . S
H677 C663 0.958 . S
H678 C663 0.961 . S
H679 C663 0.960 . S
C680 C681 1.391 1_565 S
C680 C682 1.393 1_565 S
C680 H696 0.931 . S
C681 C680 1.391 1_545 S
C681 C685 1.376 . S
C682 C680 1.393 1_545 S
C682 C683 1.369 . S
C682 C686 1.531 . S
C683 C682 1.369 . S
C683 C684 1.410 . S
C683 C691 1.503 . S
C684 C683 1.410 . S
C684 C685 1.392 . S
C684 C687 1.511 . S
C685 C681 1.376 . S
C685 C684 1.392 . S
C685 H697 0.929 . S
C686 C682 1.531 . S
C686 H698 0.960 . S
C686 H699 0.962 1_545 S
C686 H700 0.960 . S
C687 C684 1.511 . S
C687 H701 0.961 . S
C687 H702 0.961 . S
C687 H703 0.961 . S
C688 C689 1.399 . S
C688 C690 1.358 1_545 S
C688 H704 0.907 1_545 S
C689 C688 1.399 . S
C689 C693 1.408 . S
C690 C688 1.358 1_565 S
C690 C691 1.370 1_565 S
C690 C694 1.524 . S
C691 C683 1.503 . S
C691 C690 1.370 1_545 S
C691 C692 1.403 . S
C692 C691 1.403 . S
C692 C693 1.404 . S
C692 C695 1.539 . S
C693 C689 1.408 . S
C693 C692 1.404 . S
C693 H705 0.930 . S
C694 C690 1.524 . S
C694 H706 0.956 . S
C694 H707 0.961 . S
C694 H708 0.961 . S
C695 C692 1.539 . S
C695 H709 0.958 . S
C695 H710 0.961 . S
C695 H711 0.960 . S
H696 C680 0.931 . S
H697 C685 0.929 . S
H698 C686 0.960 . S
H699 C686 0.962 1_565 S
H700 C686 0.960 . S
H701 C687 0.961 . S
H702 C687 0.961 . S
H703 C687 0.961 . S
H704 C688 0.907 1_565 S
H705 C693 0.930 . S
H706 C694 0.956 . S
H707 C694 0.961 . S
H708 C694 0.961 . S
H709 C695 0.958 . S
H710 C695 0.961 . S
H711 C695 0.960 . S
C712 C713 1.391 . S
C712 C714 1.394 . S
C712 H728 0.931 . S
C713 C712 1.391 . S
C713 C717 1.376 . S
C714 C712 1.394 . S
C714 C715 1.369 . S
C714 C718 1.531 . S
C715 C714 1.369 . S
C715 C716 1.410 . S
C715 C723 1.503 . S
C716 C715 1.410 . S
C716 C717 1.392 . S
C716 C719 1.511 . S
C717 C713 1.376 . S
C717 C716 1.392 . S
C717 H729 0.929 . S
C718 C714 1.531 . S
C718 H730 0.960 . S
C718 H731 0.962 . S
C718 H732 0.960 . S
C719 C716 1.511 . S
C719 H733 0.961 . S
C719 H734 0.961 . S
C719 H735 0.961 . S
C720 C721 1.370 . S
C720 C722 1.363 . S
C720 H736 0.931 . S
C721 C720 1.370 . S
C721 C725 1.408 . S
C722 C720 1.363 . S
C722 C723 1.370 . S
C722 C726 1.524 . S
C723 C715 1.503 . S
C723 C722 1.370 . S
C723 C724 1.403 . S
C724 C723 1.403 . S
C724 C725 1.404 . S
C724 C727 1.539 . S
C725 C721 1.408 . S
C725 C724 1.404 . S
C725 H737 0.930 . S
C726 C722 1.524 . S
C726 H738 0.956 . S
C726 H739 0.961 . S
C726 H740 0.961 . S
C727 C724 1.539 . S
C727 H741 0.958 . S
C727 H742 0.961 . S
C727 H743 0.960 . S
H728 C712 0.931 . S
H729 C717 0.929 . S
H730 C718 0.960 . S
H731 C718 0.962 . S
H732 C718 0.960 . S
H733 C719 0.961 . S
H734 C719 0.961 . S
H735 C719 0.961 . S
H736 C720 0.931 . S
H737 C725 0.930 . S
H738 C726 0.956 . S
H739 C726 0.961 . S
H740 C726 0.961 . S
H741 C727 0.958 . S
H742 C727 0.961 . S
H743 C727 0.960 . S
C744 C745 1.391 . S
C744 C746 1.394 . S
C744 H760 0.931 . S
C745 C744 1.391 . S
C745 C749 1.376 . S
C746 C744 1.394 . S
C746 C747 1.369 . S
C746 C750 1.531 . S
C747 C746 1.369 . S
C747 C748 1.410 . S
C747 C755 1.503 . S
C748 C747 1.410 . S
C748 C749 1.392 . S
C748 C751 1.511 1_554 S
C749 C745 1.376 . S
C749 C748 1.392 . S
C749 H761 0.929 1_554 S
C750 C746 1.531 . S
C750 H762 0.960 . S
C750 H763 0.962 . S
C750 H764 0.960 . S
C751 C748 1.511 1_556 S
C751 H765 0.961 . S
C751 H766 0.961 . S
C751 H767 0.961 1_556 S
C752 C753 1.370 1_556 S
C752 C754 1.363 . S
C752 H768 0.931 . S
C753 C752 1.370 1_554 S
C753 C757 1.408 . S
C754 C752 1.363 . S
C754 C755 1.370 1_556 S
C754 C758 1.524 . S
C755 C747 1.503 . S
C755 C754 1.370 1_554 S
C755 C756 1.403 . S
C756 C755 1.403 . S
C756 C757 1.404 . S
C756 C759 1.539 . S
C757 C753 1.408 . S
C757 C756 1.404 . S
C757 H769 0.930 . S
C758 C754 1.524 . S
C758 H770 0.956 . S
C758 H771 0.961 . S
C758 H772 0.961 . S
C759 C756 1.539 . S
C759 H773 0.958 . S
C759 H774 0.961 . S
C759 H775 0.960 . S
H760 C744 0.931 . S
H761 C749 0.929 1_556 S
H762 C750 0.960 . S
H763 C750 0.962 . S
H764 C750 0.960 . S
H765 C751 0.961 . S
H766 C751 0.961 . S
H767 C751 0.961 1_554 S
H768 C752 0.931 . S
H769 C757 0.930 . S
H770 C758 0.956 . S
H771 C758 0.961 . S
H772 C758 0.961 . S
H773 C759 0.958 . S
H774 C759 0.961 . S
H775 C759 0.960 . S
C776 C777 1.391 . S
C776 C778 1.394 . S
C776 H792 0.931 . S
C777 C776 1.391 . S
C777 C781 1.376 . S
C778 C776 1.394 . S
C778 C779 1.369 . S
C778 C782 1.531 . S
C779 C778 1.369 . S
C779 C780 1.410 . S
C779 C787 1.503 . S
C780 C779 1.410 . S
C780 C781 1.392 . S
C780 C783 1.511 . S
C781 C777 1.376 . S
C781 C780 1.392 . S
C781 H793 0.929 . S
C782 C778 1.531 . S
C782 H794 0.960 . S
C782 H795 0.962 . S
C782 H796 0.960 . S
C783 C780 1.511 . S
C783 H797 0.961 . S
C783 H798 0.961 . S
C783 H799 0.961 . S
C784 C785 1.370 . S
C784 C786 1.363 . S
C784 H800 0.931 . S
C785 C784 1.370 . S
C785 C789 1.408 . S
C786 C784 1.363 . S
C786 C787 1.370 . S
C786 C790 1.524 . S
C787 C779 1.503 . S
C787 C786 1.370 . S
C787 C788 1.403 . S
C788 C787 1.403 . S
C788 C789 1.404 . S
C788 C791 1.539 . S
C789 C785 1.408 . S
C789 C788 1.404 . S
C789 H801 0.930 . S
C790 C786 1.524 . S
C790 H802 0.956 . S
C790 H803 0.961 . S
C790 H804 0.961 . S
C791 C788 1.539 . S
C791 H805 0.958 . S
C791 H806 0.961 . S
C791 H807 0.960 . S
H792 C776 0.931 . S
H793 C781 0.929 . S
H794 C782 0.960 . S
H795 C782 0.962 . S
H796 C782 0.960 . S
H797 C783 0.961 . S
H798 C783 0.961 . S
H799 C783 0.961 . S
H800 C784 0.931 . S
H801 C789 0.930 . S
H802 C790 0.956 . S
H803 C790 0.961 . S
H804 C790 0.961 . S
H805 C791 0.958 . S
H806 C791 0.961 . S
H807 C791 0.960 . S
C808 C809 1.391 . S
C808 C810 1.394 . S
C808 H824 0.931 . S
C809 C808 1.391 . S
C809 C813 1.376 . S
C810 C808 1.394 . S
C810 C811 1.369 . S
C810 C814 1.531 . S
C811 C810 1.369 . S
C811 C812 1.410 . S
C811 C819 1.503 . S
C812 C811 1.410 . S
C812 C813 1.392 . S
C812 C815 1.511 . S
C813 C809 1.376 . S
C813 C812 1.392 . S
C813 H825 0.929 . S
C814 C810 1.531 . S
C814 H826 0.960 . S
C814 H827 0.962 . S
C814 H828 0.960 . S
C815 C812 1.511 . S
C815 H829 0.961 . S
C815 H830 0.979 . S
C815 H831 0.961 . S
C816 C817 1.370 . S
C816 C818 1.363 1_455 S
C816 H832 0.931 . S
C817 C816 1.370 . S
C817 C821 1.408 . S
C818 C816 1.363 1_655 S
C818 C819 1.370 . S
C818 C822 1.524 . S
C819 C811 1.503 . S
C819 C818 1.370 . S
C819 C820 1.403 . S
C820 C819 1.403 . S
C820 C821 1.404 1_655 S
C820 C823 1.539 . S
C821 C817 1.408 . S
C821 C820 1.404 1_455 S
C821 H833 0.930 . S
C822 C818 1.524 . S
C822 H834 0.956 . S
C822 H835 0.961 . S
C822 H836 0.961 . S
C823 C820 1.539 . S
C823 H837 0.958 . S
C823 H838 0.961 1_655 S
C823 H839 0.960 . S
H824 C808 0.931 . S
H825 C813 0.929 . S
H826 C814 0.960 . S
H827 C814 0.962 . S
H828 C814 0.960 . S
H829 C815 0.961 . S
H830 C815 0.979 . S
H831 C815 0.961 . S
H832 C816 0.931 . S
H833 C821 0.930 . S
H834 C822 0.956 . S
H835 C822 0.961 . S
H836 C822 0.961 . S
H837 C823 0.958 . S
H838 C823 0.961 1_455 S
H839 C823 0.960 . S
C840 C841 1.391 . S
C840 C842 1.394 . S
C840 H856 0.931 . S
C841 C840 1.391 . S
C841 C845 1.376 . S
C842 C840 1.394 . S
C842 C843 1.369 . S
C842 C846 1.531 . S
C843 C842 1.369 . S
C843 C844 1.410 . S
C843 C851 1.503 . S
C844 C843 1.410 . S
C844 C845 1.392 . S
C844 C847 1.511 . S
C845 C841 1.376 . S
C845 C844 1.392 . S
C845 H857 0.929 . S
C846 C842 1.531 . S
C846 H858 0.960 . S
C846 H859 0.962 . S
C846 H860 0.960 . S
C847 C844 1.511 . S
C847 H861 0.961 . S
C847 H862 0.961 . S
C847 H863 0.961 . S
C848 C849 1.370 . S
C848 C850 1.363 . S
C848 H864 0.931 . S
C849 C848 1.370 . S
C849 C853 1.408 . S
C850 C848 1.363 . S
C850 C851 1.370 . S
C850 C854 1.524 . S
C851 C843 1.503 . S
C851 C850 1.370 . S
C851 C852 1.403 . S
C852 C851 1.403 . S
C852 C853 1.404 . S
C852 C855 1.539 . S
C853 C849 1.408 . S
C853 C852 1.404 . S
C853 H865 0.930 . S
C854 C850 1.524 . S
C854 H866 0.956 . S
C854 H867 0.961 . S
C854 H868 0.961 . S
C855 C852 1.539 . S
C855 H869 0.958 . S
C855 H870 0.961 . S
C855 H871 0.960 . S
H856 C840 0.931 . S
H857 C845 0.929 . S
H858 C846 0.960 . S
H859 C846 0.962 . S
H860 C846 0.960 . S
H861 C847 0.961 . S
H862 C847 0.961 . S
H863 C847 0.961 . S
H864 C848 0.931 . S
H865 C853 0.930 . S
H866 C854 0.956 . S
H867 C854 0.961 . S
H868 C854 0.961 . S
H869 C855 0.958 . S
H870 C855 0.961 . S
H871 C855 0.960 . S
C872 C873 1.391 . S
C872 C874 1.394 . S
C872 H888 0.931 . S
C873 C872 1.391 . S
C873 C877 1.376 . S
C874 C872 1.394 . S
C874 C875 1.369 . S
C874 C878 1.531 . S
C875 C874 1.369 . S
C875 C876 1.410 . S
C875 C883 1.503 . S
C876 C875 1.410 . S
C876 C877 1.392 . S
C876 C879 1.511 . S
C877 C873 1.376 . S
C877 C876 1.392 . S
C877 H889 0.929 . S
C878 C874 1.531 . S
C878 H890 0.960 . S
C878 H891 0.962 . S
C878 H892 0.960 . S
C879 C876 1.511 . S
C879 H893 0.961 . S
C879 H894 0.961 . S
C879 H895 0.961 . S
C880 C881 1.370 . S
C880 C882 1.363 . S
C880 H896 0.931 . S
C881 C880 1.370 . S
C881 C885 1.408 . S
C882 C880 1.363 . S
C882 C883 1.370 . S
C882 C886 1.524 . S
C883 C875 1.503 . S
C883 C882 1.370 . S
C883 C884 1.403 . S
C884 C883 1.403 . S
C884 C885 1.404 . S
C884 C887 1.539 . S
C885 C881 1.408 . S
C885 C884 1.404 . S
C885 H897 0.930 . S
C886 C882 1.524 . S
C886 H898 0.956 . S
C886 H899 0.961 . S
C886 H900 0.961 . S
C887 C884 1.539 . S
C887 H901 0.958 . S
C887 H902 0.961 . S
C887 H903 0.960 . S
H888 C872 0.931 . S
H889 C877 0.929 . S
H890 C878 0.960 . S
H891 C878 0.962 . S
H892 C878 0.960 . S
H893 C879 0.961 . S
H894 C879 0.961 . S
H895 C879 0.961 . S
H896 C880 0.931 . S
H897 C885 0.930 . S
H898 C886 0.956 . S
H899 C886 0.961 . S
H900 C886 0.961 . S
H901 C887 0.958 . S
H902 C887 0.961 . S
H903 C887 0.960 . S
C904 C905 1.391 . S
C904 C906 1.394 . S
C904 H920 0.931 . S
C905 C904 1.391 . S
C905 C909 1.376 . S
C906 C904 1.394 . S
C906 C907 1.369 . S
C906 C910 1.531 . S
C907 C906 1.369 . S
C907 C908 1.410 . S
C907 C915 1.503 . S
C908 C907 1.410 . S
C908 C909 1.392 . S
C908 C911 1.511 . S
C909 C905 1.376 . S
C909 C908 1.392 . S
C909 H921 0.929 . S
C910 C906 1.531 . S
C910 H922 0.960 . S
C910 H923 0.962 . S
C910 H924 0.960 . S
C911 C908 1.511 . S
C911 H925 0.961 . S
C911 H926 0.961 . S
C911 H927 0.961 . S
C912 C913 1.370 . S
C912 C914 1.363 . S
C912 H928 0.931 . S
C913 C912 1.370 . S
C913 C917 1.408 . S
C914 C912 1.363 . S
C914 C915 1.370 . S
C914 C918 1.524 . S
C915 C907 1.503 . S
C915 C914 1.370 . S
C915 C916 1.403 . S
C916 C915 1.403 . S
C916 C917 1.404 . S
C916 C919 1.539 . S
C917 C913 1.408 . S
C917 C916 1.404 . S
C917 H929 0.930 . S
C918 C914 1.524 . S
C918 H930 0.956 . S
C918 H931 0.961 . S
C918 H932 0.961 . S
C919 C916 1.539 . S
C919 H933 0.958 . S
C919 H934 0.961 . S
C919 H935 0.960 . S
H920 C904 0.931 . S
H921 C909 0.929 . S
H922 C910 0.960 . S
H923 C910 0.962 . S
H924 C910 0.960 . S
H925 C911 0.961 . S
H926 C911 0.961 . S
H927 C911 0.961 . S
H928 C912 0.931 . S
H929 C917 0.930 . S
H930 C918 0.956 . S
H931 C918 0.961 . S
H932 C918 0.961 . S
H933 C919 0.958 . S
H934 C919 0.961 . S
H935 C919 0.960 . S
C936 C937 1.391 . S
C936 C938 1.394 . S
C936 H952 0.931 . S
C937 C936 1.391 . S
C937 C941 1.376 . S
C938 C936 1.394 . S
C938 C939 1.369 . S
C938 C942 1.531 . S
C939 C938 1.369 . S
C939 C940 1.410 . S
C939 C947 1.503 . S
C940 C939 1.410 . S
C940 C941 1.392 . S
C940 C943 1.511 . S
C941 C937 1.376 . S
C941 C940 1.392 . S
C941 H953 0.929 . S
C942 C938 1.531 . S
C942 H954 0.960 . S
C942 H955 0.962 . S
C942 H956 0.960 . S
C943 C940 1.511 . S
C943 H957 0.961 . S
C943 H958 0.961 . S
C943 H959 0.961 . S
C944 C945 1.370 . S
C944 C946 1.363 . S
C944 H960 0.931 . S
C945 C944 1.370 . S
C945 C949 1.408 . S
C946 C944 1.363 . S
C946 C947 1.370 . S
C946 C950 1.524 . S
C947 C939 1.503 . S
C947 C946 1.370 . S
C947 C948 1.403 . S
C948 C947 1.403 . S
C948 C949 1.404 . S
C948 C951 1.539 . S
C949 C945 1.408 . S
C949 C948 1.404 . S
C949 H961 0.930 . S
C950 C946 1.524 . S
C950 H962 0.956 . S
C950 H963 0.961 . S
C950 H964 0.961 . S
C951 C948 1.539 . S
C951 H965 0.958 . S
C951 H966 0.961 . S
C951 H967 0.960 . S
H952 C936 0.931 . S
H953 C941 0.929 . S
H954 C942 0.960 . S
H955 C942 0.962 . S
H956 C942 0.960 . S
H957 C943 0.961 . S
H958 C943 0.961 . S
H959 C943 0.961 . S
H960 C944 0.931 . S
H961 C949 0.930 . S
H962 C950 0.956 . S
H963 C950 0.961 . S
H964 C950 0.961 . S
H965 C951 0.958 . S
H966 C951 0.961 . S
H967 C951 0.960 . S
C968 C969 1.391 . S
C968 C970 1.394 . S
C968 H984 0.931 . S
C969 C968 1.391 . S
C969 C973 1.376 . S
C970 C968 1.394 . S
C970 C971 1.369 . S
C970 C974 1.531 . S
C971 C970 1.369 . S
C971 C972 1.410 . S
C971 C979 1.503 . S
C972 C971 1.410 . S
C972 C973 1.392 . S
C972 C975 1.511 . S
C973 C969 1.376 . S
C973 C972 1.392 . S
C973 H985 0.929 . S
C974 C970 1.531 . S
C974 H986 0.960 . S
C974 H987 0.962 . S
C974 H988 0.960 . S
C975 C972 1.511 . S
C975 H989 0.961 . S
C975 H990 0.961 . S
C975 H991 0.961 . S
C976 C977 1.370 . S
C976 C978 1.363 . S
C976 H992 0.931 . S
C977 C976 1.370 . S
C977 C981 1.408 . S
C978 C976 1.363 . S
C978 C979 1.370 . S
C978 C982 1.524 . S
C979 C971 1.503 . S
C979 C978 1.370 . S
C979 C980 1.403 . S
C980 C979 1.403 . S
C980 C981 1.404 . S
C980 C983 1.539 . S
C981 C977 1.408 . S
C981 C980 1.404 . S
C981 H993 0.930 . S
C982 C978 1.524 . S
C982 H994 0.956 . S
C982 H995 0.961 . S
C982 H996 0.961 . S
C983 C980 1.539 . S
C983 H997 0.958 . S
C983 H998 0.961 . S
C983 H999 0.960 . S
H984 C968 0.931 . S
H985 C973 0.929 . S
H986 C974 0.960 . S
H987 C974 0.962 . S
H988 C974 0.960 . S
H989 C975 0.961 . S
H990 C975 0.961 . S
H991 C975 0.961 . S
H992 C976 0.931 . S
H993 C981 0.930 . S
H994 C982 0.956 . S
H995 C982 0.961 . S
H996 C982 0.961 . S
H997 C983 0.958 . S
H998 C983 0.961 . S
H999 C983 0.960 . S
C1000 C1001 1.391 . S
C1000 C1002 1.394 . S
C1000 H1016 0.931 . S
C1001 C1000 1.391 . S
C1001 C1005 1.376 . S
C1002 C1000 1.394 . S
C1002 C1003 1.369 . S
C1002 C1006 1.531 . S
C1003 C1002 1.369 . S
C1003 C1004 1.410 . S
C1003 C1011 1.503 . S
C1004 C1003 1.410 . S
C1004 C1005 1.392 . S
C1004 C1007 1.511 . S
C1005 C1001 1.376 . S
C1005 C1004 1.392 . S
C1005 H1017 0.929 . S
C1006 C1002 1.531 . S
C1006 H1018 0.960 . S
C1006 H1019 0.962 . S
C1006 H1020 0.960 . S
C1007 C1004 1.511 . S
C1007 H1021 0.961 . S
C1007 H1022 0.961 . S
C1007 H1023 0.961 . S
C1008 C1009 1.370 . S
C1008 C1010 1.363 . S
C1008 H1024 0.931 . S
C1009 C1008 1.370 . S
C1009 C1013 1.408 . S
C1010 C1008 1.363 . S
C1010 C1011 1.370 . S
C1010 C1014 1.524 . S
C1011 C1003 1.503 . S
C1011 C1010 1.370 . S
C1011 C1012 1.403 . S
C1012 C1011 1.403 . S
C1012 C1013 1.404 . S
C1012 C1015 1.539 . S
C1013 C1009 1.408 . S
C1013 C1012 1.404 . S
C1013 H1025 0.930 . S
C1014 C1010 1.524 . S
C1014 H1026 0.956 . S
C1014 H1027 0.961 . S
C1014 H1028 0.961 . S
C1015 C1012 1.539 . S
C1015 H1029 0.958 . S
C1015 H1030 0.961 . S
C1015 H1031 0.960 . S
H1016 C1000 0.931 . S
H1017 C1005 0.929 . S
H1018 C1006 0.960 . S
H1019 C1006 0.962 . S
H1020 C1006 0.960 . S
H1021 C1007 0.961 . S
H1022 C1007 0.961 . S
H1023 C1007 0.961 . S
H1024 C1008 0.931 . S
H1025 C1013 0.930 . S
H1026 C1014 0.956 . S
H1027 C1014 0.961 . S
H1028 C1014 0.961 . S
H1029 C1015 0.958 . S
H1030 C1015 0.961 . S
H1031 C1015 0.960 . S
C1032 C1033 1.391 1_545 S
C1032 C1034 1.394 . S
C1032 H1048 0.931 . S
C1033 C1032 1.391 1_565 S
C1033 C1037 1.376 . S
C1034 C1032 1.394 . S
C1034 C1035 1.369 . S
C1034 C1038 1.531 . S
C1035 C1034 1.369 . S
C1035 C1036 1.410 1_545 S
C1035 C1043 1.503 . S
C1036 C1035 1.410 1_565 S
C1036 C1037 1.392 . S
C1036 C1039 1.511 . S
C1037 C1033 1.376 . S
C1037 C1036 1.392 . S
C1037 H1049 0.929 . S
C1038 C1034 1.531 . S
C1038 H1050 0.960 . S
C1038 H1051 0.962 . S
C1038 H1052 0.960 . S
C1039 C1036 1.511 . S
C1039 H1053 0.961 . S
C1039 H1054 0.961 . S
C1039 H1055 0.961 . S
C1040 C1041 1.370 . S
C1040 C1042 1.363 . S
C1040 H1056 0.931 . S
C1041 C1040 1.370 . S
C1041 C1045 1.408 . S
C1042 C1040 1.363 . S
C1042 C1043 1.370 . S
C1042 C1046 1.524 1_545 S
C1043 C1035 1.503 . S
C1043 C1042 1.370 . S
C1043 C1044 1.403 . S
C1044 C1043 1.403 . S
C1044 C1045 1.404 . S
C1044 C1047 1.539 . S
C1045 C1041 1.408 . S
C1045 C1044 1.404 . S
C1045 H1057 0.930 . S
C1046 C1042 1.524 1_565 S
C1046 H1058 0.956 1_565 S
C1046 H1059 0.961 . S
C1046 H1060 0.961 . S
C1047 C1044 1.539 . S
C1047 H1061 0.958 . S
C1047 H1062 0.961 . S
C1047 H1063 0.960 . S
H1048 C1032 0.931 . S
H1049 C1037 0.929 . S
H1050 C1038 0.960 . S
H1051 C1038 0.962 . S
H1052 C1038 0.960 . S
H1053 C1039 0.961 . S
H1054 C1039 0.961 . S
H1055 C1039 0.961 . S
H1056 C1040 0.931 . S
H1057 C1045 0.930 . S
H1058 C1046 0.956 1_545 S
H1059 C1046 0.961 . S
H1060 C1046 0.961 . S
H1061 C1047 0.958 . S
H1062 C1047 0.961 . S
H1063 C1047 0.960 . S
C1064 C1065 1.391 . S
C1064 C1066 1.394 . S
C1064 H1080 0.931 . S
C1065 C1064 1.391 . S
C1065 C1069 1.376 . S
C1066 C1064 1.394 . S
C1066 C1067 1.369 . S
C1066 C1070 1.531 . S
C1067 C1066 1.369 . S
C1067 C1068 1.410 . S
C1067 C1075 1.503 . S
C1068 C1067 1.410 . S
C1068 C1069 1.392 . S
C1068 C1071 1.511 . S
C1069 C1065 1.376 . S
C1069 C1068 1.392 . S
C1069 H1081 0.929 . S
C1070 C1066 1.531 . S
C1070 H1082 0.960 . S
C1070 H1083 0.962 . S
C1070 H1084 0.960 . S
C1071 C1068 1.511 . S
C1071 H1085 0.961 . S
C1071 H1086 0.961 . S
C1071 H1087 0.961 . S
C1072 C1073 1.370 1_556 S
C1072 C1074 1.363 . S
C1072 H1088 0.931 . S
C1073 C1072 1.370 1_554 S
C1073 C1077 1.408 . S
C1074 C1072 1.363 . S
C1074 C1075 1.370 . S
C1074 C1078 1.524 . S
C1075 C1067 1.503 . S
C1075 C1074 1.370 . S
C1075 C1076 1.403 . S
C1076 C1075 1.403 . S
C1076 C1077 1.404 1_556 S
C1076 C1079 1.539 . S
C1077 C1073 1.408 . S
C1077 C1076 1.404 1_554 S
C1077 H1089 0.930 . S
C1078 C1074 1.524 . S
C1078 H1090 0.956 . S
C1078 H1091 0.961 . S
C1078 H1092 0.961 . S
C1079 C1076 1.539 . S
C1079 H1093 0.958 . S
C1079 H1094 0.961 1_556 S
C1079 H1095 0.960 . S
H1080 C1064 0.931 . S
H1081 C1069 0.929 . S
H1082 C1070 0.960 . S
H1083 C1070 0.962 . S
H1084 C1070 0.960 . S
H1085 C1071 0.961 . S
H1086 C1071 0.961 . S
H1087 C1071 0.961 . S
H1088 C1072 0.931 . S
H1089 C1077 0.930 . S
H1090 C1078 0.956 . S
H1091 C1078 0.961 . S
H1092 C1078 0.961 . S
H1093 C1079 0.958 . S
H1094 C1079 0.961 1_554 S
H1095 C1079 0.960 . S
C1096 C1097 1.391 . S
C1096 C1098 1.394 . S
C1096 H1112 0.931 . S
C1097 C1096 1.391 . S
C1097 C1101 1.376 . S
C1098 C1096 1.394 . S
C1098 C1099 1.369 . S
C1098 C1102 1.531 . S
C1099 C1098 1.369 . S
C1099 C1100 1.410 . S
C1099 C1107 1.503 . S
C1100 C1099 1.410 . S
C1100 C1101 1.392 . S
C1100 C1103 1.511 . S
C1101 C1097 1.376 . S
C1101 C1100 1.392 . S
C1101 H1113 0.929 . S
C1102 C1098 1.531 . S
C1102 H1114 0.960 . S
C1102 H1115 0.962 . S
C1102 H1116 0.960 . S
C1103 C1100 1.511 . S
C1103 H1117 0.961 . S
C1103 H1118 0.961 . S
C1103 H1119 0.961 . S
C1104 C1105 1.370 . S
C1104 C1106 1.359 1_554 S
C1104 H1120 0.931 . S
C1105 C1104 1.370 . S
C1105 C1109 1.408 . S
C1106 C1104 1.359 1_556 S
C1106 C1107 1.371 . S
C1106 C1110 1.527 . S
C1107 C1099 1.503 . S
C1107 C1106 1.371 . S
C1107 C1108 1.403 1_556 S
C1108 C1107 1.403 1_554 S
C1108 C1109 1.404 . S
C1108 C1111 1.539 1_545 S
C1109 C1105 1.408 . S
C1109 C1108 1.404 . S
C1109 H1121 0.930 . S
C1110 C1106 1.527 . S
C1110 H1122 0.956 . S
C1110 H1123 0.961 . S
C1110 H1124 0.961 . S
C1111 C1108 1.539 1_565 S
C1111 H1125 0.958 . S
C1111 H1126 0.961 . S
C1111 H1127 0.960 . S
H1112 C1096 0.931 . S
H1113 C1101 0.929 . S
H1114 C1102 0.960 . S
H1115 C1102 0.962 . S
H1116 C1102 0.960 . S
H1117 C1103 0.961 . S
H1118 C1103 0.961 . S
H1119 C1103 0.961 . S
H1120 C1104 0.931 . S
H1121 C1109 0.930 . S
H1122 C1110 0.956 . S
H1123 C1110 0.961 . S
H1124 C1110 0.961 . S
H1125 C1111 0.958 . S
H1126 C1111 0.961 . S
H1127 C1111 0.960 . S
C1128 C1129 1.391 . S
C1128 C1130 1.394 . S
C1128 H1144 0.931 . S
C1129 C1128 1.391 . S
C1129 C1133 1.376 . S
C1130 C1128 1.394 . S
C1130 C1131 1.369 . S
C1130 C1134 1.531 . S
C1131 C1130 1.369 . S
C1131 C1132 1.410 . S
C1131 C1139 1.503 . S
C1132 C1131 1.410 . S
C1132 C1133 1.392 . S
C1132 C1135 1.511 . S
C1133 C1129 1.376 . S
C1133 C1132 1.392 . S
C1133 H1145 0.929 . S
C1134 C1130 1.531 . S
C1134 H1146 0.960 . S
C1134 H1147 0.962 . S
C1134 H1148 0.960 . S
C1135 C1132 1.511 . S
C1135 H1149 0.961 . S
C1135 H1150 0.961 . S
C1135 H1151 0.961 . S
C1136 C1137 1.370 . S
C1136 C1138 1.363 . S
C1136 H1152 0.931 . S
C1137 C1136 1.370 . S
C1137 C1141 1.408 . S
C1138 C1136 1.363 . S
C1138 C1139 1.370 . S
C1138 C1142 1.524 . S
C1139 C1131 1.503 . S
C1139 C1138 1.370 . S
C1139 C1140 1.403 . S
C1140 C1139 1.403 . S
C1140 C1141 1.404 . S
C1140 C1143 1.539 . S
C1141 C1137 1.408 . S
C1141 C1140 1.404 . S
C1141 H1153 0.930 . S
C1142 C1138 1.524 . S
C1142 H1154 0.956 . S
C1142 H1155 0.961 . S
C1142 H1156 0.961 . S
C1143 C1140 1.539 . S
C1143 H1157 0.958 . S
C1143 H1158 0.961 . S
C1143 H1159 0.960 . S
H1144 C1128 0.931 . S
H1145 C1133 0.929 . S
H1146 C1134 0.960 . S
H1147 C1134 0.962 . S
H1148 C1134 0.960 . S
H1149 C1135 0.961 . S
H1150 C1135 0.961 . S
H1151 C1135 0.961 . S
H1152 C1136 0.931 . S
H1153 C1141 0.930 . S
H1154 C1142 0.956 . S
H1155 C1142 0.961 . S
H1156 C1142 0.961 . S
H1157 C1143 0.958 . S
H1158 C1143 0.961 . S
H1159 C1143 0.960 . S
C1160 C1161 1.391 . S
C1160 C1162 1.394 . S
C1160 H1176 0.931 . S
C1161 C1160 1.391 . S
C1161 C1165 1.376 1_556 S
C1162 C1160 1.394 . S
C1162 C1163 1.369 . S
C1162 C1166 1.531 . S
C1163 C1162 1.369 . S
C1163 C1164 1.410 1_556 S
C1163 C1171 1.503 . S
C1164 C1163 1.410 1_554 S
C1164 C1165 1.392 . S
C1164 C1167 1.511 . S
C1165 C1161 1.376 1_554 S
C1165 C1164 1.392 . S
C1165 H1177 0.929 . S
C1166 C1162 1.531 . S
C1166 H1178 0.960 . S
C1166 H1179 0.962 . S
C1166 H1180 0.960 . S
C1167 C1164 1.511 . S
C1167 H1181 0.961 . S
C1167 H1182 0.961 . S
C1167 H1183 0.961 . S
C1168 C1169 1.370 1_554 S
C1168 C1170 1.363 . S
C1168 H1184 0.931 . S
C1169 C1168 1.370 1_556 S
C1169 C1173 1.408 . S
C1170 C1168 1.363 . S
C1170 C1171 1.370 1_554 S
C1170 C1174 1.524 . S
C1171 C1163 1.503 . S
C1171 C1170 1.370 1_556 S
C1171 C1172 1.403 . S
C1172 C1171 1.403 . S
C1172 C1173 1.404 . S
C1172 C1175 1.539 . S
C1173 C1169 1.408 . S
C1173 C1172 1.404 . S
C1173 H1185 0.930 . S
C1174 C1170 1.524 . S
C1174 H1186 0.956 . S
C1174 H1187 0.961 . S
C1174 H1188 0.961 . S
C1175 C1172 1.539 . S
C1175 H1189 0.958 . S
C1175 H1190 0.961 . S
C1175 H1191 0.960 . S
H1176 C1160 0.931 . S
H1177 C1165 0.929 . S
H1178 C1166 0.960 . S
H1179 C1166 0.962 . S
H1180 C1166 0.960 . S
H1181 C1167 0.961 . S
H1182 C1167 0.961 . S
H1183 C1167 0.961 . S
H1184 C1168 0.931 . S
H1185 C1173 0.930 . S
H1186 C1174 0.956 . S
H1187 C1174 0.961 . S
H1188 C1174 0.961 . S
H1189 C1175 0.958 . S
H1190 C1175 0.961 . S
H1191 C1175 0.960 . S
C1192 C1193 1.391 . S
C1192 C1194 1.394 . S
C1192 H1208 0.931 . S
C1193 C1192 1.391 . S
C1193 C1197 1.376 1_556 S
C1194 C1192 1.394 . S
C1194 C1195 1.369 . S
C1194 C1198 1.531 . S
C1195 C1194 1.369 . S
C1195 C1196 1.410 1_556 S
C1195 C1203 1.503 1_556 S
C1196 C1195 1.410 1_554 S
C1196 C1197 1.392 . S
C1196 C1199 1.511 . S
C1197 C1193 1.376 1_554 S
C1197 C1196 1.392 . S
C1197 H1209 0.929 . S
C1198 C1194 1.531 . S
C1198 H1210 0.960 . S
C1198 H1211 0.962 . S
C1198 H1212 0.960 . S
C1199 C1196 1.511 . S
C1199 H1213 0.961 . S
C1199 H1214 0.961 . S
C1199 H1215 0.961 . S
C1200 C1201 1.370 . S
C1200 C1202 1.363 . S
C1200 H1216 0.931 . S
C1201 C1200 1.370 . S
C1201 C1205 1.408 1_554 S
C1202 C1200 1.363 . S
C1202 C1203 1.370 . S
C1202 C1206 1.524 . S
C1203 C1195 1.503 1_554 S
C1203 C1202 1.370 . S
C1203 C1204 1.403 1_554 S
C1204 C1203 1.403 1_556 S
C1204 C1205 1.404 . S
C1204 C1207 1.539 . S
C1205 C1201 1.408 1_556 S
C1205 C1204 1.404 . S
C1205 H1217 0.930 . S
C1206 C1202 1.524 . S
C1206 H1218 0.956 . S
C1206 H1219 0.961 . S
C1206 H1220 0.961 . S
C1207 C1204 1.539 . S
C1207 H1221 0.958 . S
C1207 H1222 0.961 . S
C1207 H1223 0.960 . S
H1208 C1192 0.931 . S
H1209 C1197 0.929 . S
H1210 C1198 0.960 . S
H1211 C1198 0.962 . S
H1212 C1198 0.960 . S
H1213 C1199 0.961 . S
H1214 C1199 0.961 . S
H1215 C1199 0.961 . S
H1216 C1200 0.931 . S
H1217 C1205 0.930 . S
H1218 C1206 0.956 . S
H1219 C1206 0.961 . S
H1220 C1206 0.961 . S
H1221 C1207 0.958 . S
H1222 C1207 0.961 . S
H1223 C1207 0.960 . S
C1224 C1225 1.391 . S
C1224 C1226 1.394 . S
C1224 H1240 0.931 . S
C1225 C1224 1.391 . S
C1225 C1229 1.376 . S
C1226 C1224 1.394 . S
C1226 C1227 1.369 . S
C1226 C1230 1.531 . S
C1227 C1226 1.369 . S
C1227 C1228 1.410 . S
C1227 C1235 1.503 . S
C1228 C1227 1.410 . S
C1228 C1229 1.392 . S
C1228 C1231 1.511 1_554 S
C1229 C1225 1.376 . S
C1229 C1228 1.392 . S
C1229 H1241 0.929 1_554 S
C1230 C1226 1.531 . S
C1230 H1242 0.960 . S
C1230 H1243 0.962 . S
C1230 H1244 0.960 . S
C1231 C1228 1.511 1_556 S
C1231 H1245 0.961 1_655 S
C1231 H1246 0.961 1_656 S
C1231 H1247 0.961 . S
C1232 C1233 1.370 . S
C1232 C1234 1.363 . S
C1232 H1248 0.931 . S
C1233 C1232 1.370 . S
C1233 C1237 1.408 . S
C1234 C1232 1.363 . S
C1234 C1235 1.370 1_455 S
C1234 C1238 1.524 . S
C1235 C1227 1.503 . S
C1235 C1234 1.370 1_655 S
C1235 C1236 1.403 . S
C1236 C1235 1.403 . S
C1236 C1237 1.404 1_655 S
C1236 C1239 1.539 . S
C1237 C1233 1.408 . S
C1237 C1236 1.404 1_455 S
C1237 H1249 0.930 . S
C1238 C1234 1.524 . S
C1238 H1250 0.956 1_455 S
C1238 H1251 0.961 . S
C1238 H1252 0.961 . S
C1239 C1236 1.539 . S
C1239 H1253 0.958 . S
C1239 H1254 0.961 . S
C1239 H1255 0.960 . S
H1240 C1224 0.931 . S
H1241 C1229 0.929 1_556 S
H1242 C1230 0.960 . S
H1243 C1230 0.962 . S
H1244 C1230 0.960 . S
H1245 C1231 0.961 1_455 S
H1246 C1231 0.961 1_454 S
H1247 C1231 0.961 . S
H1248 C1232 0.931 . S
H1249 C1237 0.930 . S
H1250 C1238 0.956 1_655 S
H1251 C1238 0.961 . S
H1252 C1238 0.961 . S
H1253 C1239 0.958 . S
H1254 C1239 0.961 . S
H1255 C1239 0.960 . S
C1256 C1257 1.391 . S
C1256 C1258 1.394 . S
C1256 H1272 0.931 . S
C1257 C1256 1.391 . S
C1257 C1261 1.376 . S
C1258 C1256 1.394 . S
C1258 C1259 1.369 . S
C1258 C1262 1.531 . S
C1259 C1258 1.369 . S
C1259 C1260 1.410 . S
C1259 C1267 1.503 . S
C1260 C1259 1.410 . S
C1260 C1261 1.392 . S
C1260 C1263 1.511 . S
C1261 C1257 1.376 . S
C1261 C1260 1.392 . S
C1261 H1273 0.929 . S
C1262 C1258 1.531 . S
C1262 H1274 0.960 . S
C1262 H1275 0.978 . S
C1262 H1276 0.960 . S
C1263 C1260 1.511 . S
C1263 H1277 0.961 . S
C1263 H1278 0.961 . S
C1263 H1279 0.961 . S
C1264 C1265 1.370 . S
C1264 C1266 1.363 . S
C1264 H1280 0.931 . S
C1265 C1264 1.370 . S
C1265 C1269 1.408 . S
C1266 C1264 1.363 . S
C1266 C1267 1.370 . S
C1266 C1270 1.524 . S
C1267 C1259 1.503 . S
C1267 C1266 1.370 . S
C1267 C1268 1.403 . S
C1268 C1267 1.403 . S
C1268 C1269 1.404 . S
C1268 C1271 1.539 . S
C1269 C1265 1.408 . S
C1269 C1268 1.404 . S
C1269 H1281 0.930 . S
C1270 C1266 1.524 . S
C1270 H1282 0.956 . S
C1270 H1283 0.961 . S
C1270 H1284 0.961 . S
C1271 C1268 1.539 . S
C1271 H1285 0.958 . S
C1271 H1286 0.961 . S
C1271 H1287 0.960 . S
H1272 C1256 0.931 . S
H1273 C1261 0.929 . S
H1274 C1262 0.960 . S
H1275 C1262 0.978 . S
H1276 C1262 0.960 . S
H1277 C1263 0.961 . S
H1278 C1263 0.961 . S
H1279 C1263 0.961 . S
H1280 C1264 0.931 . S
H1281 C1269 0.930 . S
H1282 C1270 0.956 . S
H1283 C1270 0.961 . S
H1284 C1270 0.961 . S
H1285 C1271 0.958 . S
H1286 C1271 0.961 . S
H1287 C1271 0.960 . S
C1288 C1289 1.391 1_655 S
C1288 C1290 1.394 . S
C1288 H1304 0.931 . S
C1289 C1288 1.391 1_455 S
C1289 C1293 1.376 . S
C1290 C1288 1.394 . S
C1290 C1291 1.369 1_655 S
C1290 C1294 1.531 . S
C1291 C1290 1.369 1_455 S
C1291 C1292 1.410 . S
C1291 C1299 1.503 . S
C1292 C1291 1.410 . S
C1292 C1293 1.392 . S
C1292 C1295 1.511 . S
C1293 C1289 1.376 . S
C1293 C1292 1.392 . S
C1293 H1305 0.929 . S
C1294 C1290 1.531 . S
C1294 H1306 0.960 . S
C1294 H1307 0.962 . S
C1294 H1308 0.960 . S
C1295 C1292 1.511 . S
C1295 H1309 0.961 . S
C1295 H1310 0.961 . S
C1295 H1311 0.961 . S
C1296 C1297 1.370 1_655 S
C1296 C1298 1.363 . S
C1296 H1312 0.931 . S
C1297 C1296 1.370 1_455 S
C1297 C1301 1.408 . S
C1298 C1296 1.363 . S
C1298 C1299 1.370 1_655 S
C1298 C1302 1.524 . S
C1299 C1291 1.503 . S
C1299 C1298 1.370 1_455 S
C1299 C1300 1.403 . S
C1300 C1299 1.403 . S
C1300 C1301 1.404 . S
C1300 C1303 1.539 . S
C1301 C1297 1.408 . S
C1301 C1300 1.404 . S
C1301 H1313 0.930 . S
C1302 C1298 1.524 . S
C1302 H1314 0.956 . S
C1302 H1315 0.961 . S
C1302 H1316 0.961 . S
C1303 C1300 1.539 . S
C1303 H1317 0.958 . S
C1303 H1318 0.961 . S
C1303 H1319 0.960 . S
H1304 C1288 0.931 . S
H1305 C1293 0.929 . S
H1306 C1294 0.960 . S
H1307 C1294 0.962 . S
H1308 C1294 0.960 . S
H1309 C1295 0.961 . S
H1310 C1295 0.961 . S
H1311 C1295 0.961 . S
H1312 C1296 0.931 . S
H1313 C1301 0.930 . S
H1314 C1302 0.956 . S
H1315 C1302 0.961 . S
H1316 C1302 0.961 . S
H1317 C1303 0.958 . S
H1318 C1303 0.961 . S
H1319 C1303 0.960 . S
C1320 C1321 1.391 1_655 S
C1320 C1322 1.394 . S
C1320 H1336 0.931 . S
C1321 C1320 1.391 1_455 S
C1321 C1325 1.376 . S
C1322 C1320 1.394 . S
C1322 C1323 1.369 1_655 S
C1322 C1326 1.531 . S
C1323 C1322 1.369 1_455 S
C1323 C1324 1.410 . S
C1323 C1331 1.503 . S
C1324 C1323 1.410 . S
C1324 C1325 1.392 . S
C1324 C1327 1.511 . S
C1325 C1321 1.376 . S
C1325 C1324 1.392 . S
C1325 H1337 0.929 . S
C1326 C1322 1.531 . S
C1326 H1338 0.960 . S
C1326 H1339 0.962 . S
C1326 H1340 0.960 . S
C1327 C1324 1.511 . S
C1327 H1341 0.961 . S
C1327 H1342 0.961 . S
C1327 H1343 0.961 . S
C1328 C1329 1.370 1_655 S
C1328 C1330 1.363 . S
C1328 H1344 0.931 . S
C1329 C1328 1.370 1_455 S
C1329 C1333 1.408 . S
C1330 C1328 1.363 . S
C1330 C1331 1.367 1_655 S
C1330 C1334 1.527 . S
C1331 C1323 1.503 . S
C1331 C1330 1.367 1_455 S
C1331 C1332 1.403 . S
C1332 C1331 1.403 . S
C1332 C1333 1.404 . S
C1332 C1335 1.539 . S
C1333 C1329 1.408 . S
C1333 C1332 1.404 . S
C1333 H1345 0.930 . S
C1334 C1330 1.527 . S
C1334 H1346 0.956 . S
C1334 H1347 0.961 . S
C1334 H1348 0.961 . S
C1335 C1332 1.539 . S
C1335 H1349 0.958 . S
C1335 H1350 0.961 . S
C1335 H1351 0.960 . S
H1336 C1320 0.931 . S
H1337 C1325 0.929 . S
H1338 C1326 0.960 . S
H1339 C1326 0.962 . S
H1340 C1326 0.960 . S
H1341 C1327 0.961 . S
H1342 C1327 0.961 . S
H1343 C1327 0.961 . S
H1344 C1328 0.931 . S
H1345 C1333 0.930 . S
H1346 C1334 0.956 . S
H1347 C1334 0.961 . S
H1348 C1334 0.961 . S
H1349 C1335 0.958 . S
H1350 C1335 0.961 . S
H1351 C1335 0.960 . S
C1352 C1353 1.391 . S
C1352 C1354 1.394 . S
C1352 H1368 0.931 . S
C1353 C1352 1.391 . S
C1353 C1357 1.376 1_655 S
C1354 C1352 1.394 . S
C1354 C1355 1.369 1_655 S
C1354 C1358 1.531 . S
C1355 C1354 1.369 1_455 S
C1355 C1356 1.410 . S
C1355 C1363 1.503 . S
C1356 C1355 1.410 . S
C1356 C1357 1.392 . S
C1356 C1359 1.511 . S
C1357 C1353 1.376 1_455 S
C1357 C1356 1.392 . S
C1357 H1369 0.929 . S
C1358 C1354 1.531 . S
C1358 H1370 0.960 . S
C1358 H1371 0.962 . S
C1358 H1372 0.960 . S
C1359 C1356 1.511 . S
C1359 H1373 0.961 . S
C1359 H1374 0.961 . S
C1359 H1375 0.961 . S
C1360 C1361 1.370 . S
C1360 C1362 1.363 . S
C1360 H1376 0.931 . S
C1361 C1360 1.370 . S
C1361 C1365 1.408 . S
C1362 C1360 1.363 . S
C1362 C1363 1.370 . S
C1362 C1366 1.524 . S
C1363 C1355 1.503 . S
C1363 C1362 1.370 . S
C1363 C1364 1.403 . S
C1364 C1363 1.403 . S
C1364 C1365 1.404 . S
C1364 C1367 1.539 . S
C1365 C1361 1.408 . S
C1365 C1364 1.404 . S
C1365 H1377 0.930 . S
C1366 C1362 1.524 . S
C1366 H1378 0.956 1_455 S
C1366 H1379 0.961 . S
C1366 H1380 0.961 . S
C1367 C1364 1.539 . S
C1367 H1381 0.958 . S
C1367 H1382 0.961 . S
C1367 H1383 0.960 . S
H1368 C1352 0.931 . S
H1369 C1357 0.929 . S
H1370 C1358 0.960 . S
H1371 C1358 0.962 . S
H1372 C1358 0.960 . S
H1373 C1359 0.961 . S
H1374 C1359 0.961 . S
H1375 C1359 0.961 . S
H1376 C1360 0.931 . S
H1377 C1365 0.930 . S
H1378 C1366 0.956 1_655 S
H1379 C1366 0.961 . S
H1380 C1366 0.961 . S
H1381 C1367 0.958 . S
H1382 C1367 0.961 . S
H1383 C1367 0.960 . S
C1384 C1385 1.391 1_565 S
C1384 C1386 1.394 1_565 S
C1384 H1400 0.931 . S
C1385 C1384 1.391 1_545 S
C1385 C1389 1.376 . S
C1386 C1384 1.394 1_545 S
C1386 C1387 1.369 . S
C1386 C1390 1.531 1_545 S
C1387 C1386 1.369 . S
C1387 C1388 1.410 . S
C1387 C1395 1.503 . S
C1388 C1387 1.410 . S
C1388 C1389 1.392 . S
C1388 C1391 1.511 . S
C1389 C1385 1.376 . S
C1389 C1388 1.392 . S
C1389 H1401 0.929 . S
C1390 C1386 1.531 1_565 S
C1390 H1402 0.960 . S
C1390 H1403 0.962 . S
C1390 H1404 0.960 . S
C1391 C1388 1.511 . S
C1391 H1405 0.961 . S
C1391 H1406 0.961 . S
C1391 H1407 0.961 . S
C1392 C1393 1.370 . S
C1392 C1394 1.363 . S
C1392 H1408 0.931 . S
C1393 C1392 1.370 . S
C1393 C1397 1.408 . S
C1394 C1392 1.363 . S
C1394 C1395 1.370 . S
C1394 C1398 1.524 . S
C1395 C1387 1.503 . S
C1395 C1394 1.370 . S
C1395 C1396 1.403 . S
C1396 C1395 1.403 . S
C1396 C1397 1.404 . S
C1396 C1399 1.539 . S
C1397 C1393 1.408 . S
C1397 C1396 1.404 . S
C1397 H1409 0.930 . S
C1398 C1394 1.524 . S
C1398 H1410 0.956 . S
C1398 H1411 0.961 . S
C1398 H1412 0.961 . S
C1399 C1396 1.539 . S
C1399 H1413 0.958 . S
C1399 H1414 0.961 . S
C1399 H1415 0.960 . S
H1400 C1384 0.931 . S
H1401 C1389 0.929 . S
H1402 C1390 0.960 . S
H1403 C1390 0.962 . S
H1404 C1390 0.960 . S
H1405 C1391 0.961 . S
H1406 C1391 0.961 . S
H1407 C1391 0.961 . S
H1408 C1392 0.931 . S
H1409 C1397 0.930 . S
H1410 C1398 0.956 . S
H1411 C1398 0.961 . S
H1412 C1398 0.961 . S
H1413 C1399 0.958 . S
H1414 C1399 0.961 . S
H1415 C1399 0.960 . S
C1416 C1417 1.391 . S
C1416 C1418 1.394 . S
C1416 H1432 0.931 . S
C1417 C1416 1.391 . S
C1417 C1421 1.376 . S
C1418 C1416 1.394 . S
C1418 C1419 1.369 . S
C1418 C1422 1.531 . S
C1419 C1418 1.369 . S
C1419 C1420 1.410 . S
C1419 C1427 1.503 . S
C1420 C1419 1.410 . S
C1420 C1421 1.392 . S
C1420 C1423 1.511 . S
C1421 C1417 1.376 . S
C1421 C1420 1.392 . S
C1421 H1433 0.929 . S
C1422 C1418 1.531 . S
C1422 H1434 0.960 . S
C1422 H1435 0.962 . S
C1422 H1436 0.960 . S
C1423 C1420 1.511 . S
C1423 H1437 0.961 . S
C1423 H1438 0.961 . S
C1423 H1439 0.961 . S
C1424 C1425 1.370 . S
C1424 C1426 1.363 . S
C1424 H1440 0.931 . S
C1425 C1424 1.370 . S
C1425 C1429 1.408 . S
C1426 C1424 1.363 . S
C1426 C1427 1.370 . S
C1426 C1430 1.524 . S
C1427 C1419 1.503 . S
C1427 C1426 1.370 . S
C1427 C1428 1.403 . S
C1428 C1427 1.403 . S
C1428 C1429 1.404 . S
C1428 C1431 1.539 . S
C1429 C1425 1.408 . S
C1429 C1428 1.404 . S
C1429 H1441 0.930 . S
C1430 C1426 1.524 . S
C1430 H1442 0.956 . S
C1430 H1443 0.961 . S
C1430 H1444 0.961 . S
C1431 C1428 1.539 . S
C1431 H1445 0.958 . S
C1431 H1446 0.961 . S
C1431 H1447 0.960 . S
H1432 C1416 0.931 . S
H1433 C1421 0.929 . S
H1434 C1422 0.960 . S
H1435 C1422 0.962 . S
H1436 C1422 0.960 . S
H1437 C1423 0.961 . S
H1438 C1423 0.961 . S
H1439 C1423 0.961 . S
H1440 C1424 0.931 . S
H1441 C1429 0.930 . S
H1442 C1430 0.956 . S
H1443 C1430 0.961 . S
H1444 C1430 0.961 . S
H1445 C1431 0.958 . S
H1446 C1431 0.961 . S
H1447 C1431 0.960 . S
C1448 C1449 1.391 1_545 S
C1448 C1450 1.394 . S
C1448 H1464 0.931 . S
C1449 C1448 1.391 1_565 S
C1449 C1453 1.376 . S
C1450 C1448 1.394 . S
C1450 C1451 1.369 1_545 S
C1450 C1454 1.531 . S
C1451 C1450 1.369 1_565 S
C1451 C1452 1.410 . S
C1451 C1459 1.503 1_565 S
C1452 C1451 1.410 . S
C1452 C1453 1.392 . S
C1452 C1455 1.511 . S
C1453 C1449 1.376 . S
C1453 C1452 1.392 . S
C1453 H1465 0.929 . S
C1454 C1450 1.531 . S
C1454 H1466 0.960 . S
C1454 H1467 0.962 . S
C1454 H1468 0.960 . S
C1455 C1452 1.511 . S
C1455 H1469 0.961 . S
C1455 H1470 0.961 . S
C1455 H1471 0.961 . S
C1456 C1457 1.370 . S
C1456 C1458 1.363 . S
C1456 H1472 0.931 . S
C1457 C1456 1.370 . S
C1457 C1461 1.408 1_545 S
C1458 C1456 1.363 . S
C1458 C1459 1.370 . S
C1458 C1462 1.524 . S
C1459 C1451 1.503 1_545 S
C1459 C1458 1.370 . S
C1459 C1460 1.403 1_545 S
C1460 C1459 1.403 1_565 S
C1460 C1461 1.404 . S
C1460 C1463 1.539 . S
C1461 C1457 1.408 1_565 S
C1461 C1460 1.404 . S
C1461 H1473 0.930 . S
C1462 C1458 1.524 . S
C1462 H1474 0.956 . S
C1462 H1475 0.961 . S
C1462 H1476 0.961 . S
C1463 C1460 1.539 . S
C1463 H1477 0.958 . S
C1463 H1478 0.961 . S
C1463 H1479 0.960 . S
H1464 C1448 0.931 . S
H1465 C1453 0.929 . S
H1466 C1454 0.960 . S
H1467 C1454 0.962 . S
H1468 C1454 0.960 . S
H1469 C1455 0.961 . S
H1470 C1455 0.961 . S
H1471 C1455 0.961 . S
H1472 C1456 0.931 . S
H1473 C1461 0.930 . S
H1474 C1462 0.956 . S
H1475 C1462 0.961 . S
H1476 C1462 0.961 . S
H1477 C1463 0.958 . S
H1478 C1463 0.961 . S
H1479 C1463 0.960 . S
C1480 C1481 1.391 . S
C1480 C1482 1.394 . S
C1480 H1496 0.931 . S
C1481 C1480 1.391 . S
C1481 C1485 1.376 . S
C1482 C1480 1.394 . S
C1482 C1483 1.369 . S
C1482 C1486 1.531 . S
C1483 C1482 1.369 . S
C1483 C1484 1.410 . S
C1483 C1491 1.503 . S
C1484 C1483 1.410 . S
C1484 C1485 1.392 . S
C1484 C1487 1.511 . S
C1485 C1481 1.376 . S
C1485 C1484 1.392 . S
C1485 H1497 0.929 . S
C1486 C1482 1.531 . S
C1486 H1498 0.960 . S
C1486 H1499 0.962 . S
C1486 H1500 0.960 . S
C1487 C1484 1.511 . S
C1487 H1501 0.961 . S
C1487 H1502 0.961 . S
C1487 H1503 0.961 . S
C1488 C1489 1.370 . S
C1488 C1490 1.363 . S
C1488 H1504 0.931 . S
C1489 C1488 1.370 . S
C1489 C1493 1.408 . S
C1490 C1488 1.363 . S
C1490 C1491 1.370 . S
C1490 C1494 1.524 . S
C1491 C1483 1.503 . S
C1491 C1490 1.370 . S
C1491 C1492 1.403 . S
C1492 C1491 1.403 . S
C1492 C1493 1.404 . S
C1492 C1495 1.539 . S
C1493 C1489 1.408 . S
C1493 C1492 1.404 . S
C1493 H1505 0.930 . S
C1494 C1490 1.524 . S
C1494 H1506 0.956 . S
C1494 H1507 0.961 . S
C1494 H1508 0.961 . S
C1495 C1492 1.539 . S
C1495 H1509 0.958 . S
C1495 H1510 0.961 . S
C1495 H1511 0.960 . S
H1496 C1480 0.931 . S
H1497 C1485 0.929 . S
H1498 C1486 0.960 . S
H1499 C1486 0.962 . S
H1500 C1486 0.960 . S
H1501 C1487 0.961 . S
H1502 C1487 0.961 . S
H1503 C1487 0.961 . S
H1504 C1488 0.931 . S
H1505 C1493 0.930 . S
H1506 C1494 0.956 . S
H1507 C1494 0.961 . S
H1508 C1494 0.961 . S
H1509 C1495 0.958 . S
H1510 C1495 0.961 . S
H1511 C1495 0.960 . S
C1512 C1513 1.391 . S
C1512 C1514 1.394 . S
C1512 H1528 0.931 . S
C1513 C1512 1.391 . S
C1513 C1517 1.376 1_554 S
C1514 C1512 1.394 . S
C1514 C1515 1.369 . S
C1514 C1518 1.531 . S
C1515 C1514 1.369 . S
C1515 C1516 1.410 1_554 S
C1515 C1523 1.503 . S
C1516 C1515 1.410 1_556 S
C1516 C1517 1.392 . S
C1516 C1519 1.511 . S
C1517 C1513 1.376 1_556 S
C1517 C1516 1.392 . S
C1517 H1529 0.929 . S
C1518 C1514 1.531 . S
C1518 H1530 0.960 . S
C1518 H1531 0.962 . S
C1518 H1532 0.960 . S
C1519 C1516 1.511 . S
C1519 H1533 0.961 . S
C1519 H1534 0.961 . S
C1519 H1535 0.961 . S
C1520 C1521 1.370 . S
C1520 C1522 1.363 . S
C1520 H1536 0.931 . S
C1521 C1520 1.370 . S
C1521 C1525 1.408 . S
C1522 C1520 1.363 . S
C1522 C1523 1.370 . S
C1522 C1526 1.524 . S
C1523 C1515 1.503 . S
C1523 C1522 1.370 . S
C1523 C1524 1.403 . S
C1524 C1523 1.403 . S
C1524 C1525 1.404 . S
C1524 C1527 1.539 . S
C1525 C1521 1.408 . S
C1525 C1524 1.404 . S
C1525 H1537 0.930 . S
C1526 C1522 1.524 . S
C1526 H1538 0.956 . S
C1526 H1539 0.961 1_554 S
C1526 H1540 0.961 1_554 S
C1527 C1524 1.539 . S
C1527 H1541 0.958 . S
C1527 H1542 0.961 . S
C1527 H1543 0.960 . S
H1528 C1512 0.931 . S
H1529 C1517 0.929 . S
H1530 C1518 0.960 . S
H1531 C1518 0.962 . S
H1532 C1518 0.960 . S
H1533 C1519 0.961 . S
H1534 C1519 0.961 . S
H1535 C1519 0.961 . S
H1536 C1520 0.931 . S
H1537 C1525 0.930 . S
H1538 C1526 0.956 . S
H1539 C1526 0.961 1_556 S
H1540 C1526 0.961 1_556 S
H1541 C1527 0.958 . S
H1542 C1527 0.961 . S
H1543 C1527 0.960 . S
C1544 C1545 1.391 . S
C1544 C1546 1.394 . S
C1544 H1560 0.931 . S
C1545 C1544 1.391 . S
C1545 C1549 1.376 . S
C1546 C1544 1.394 . S
C1546 C1547 1.369 . S
C1546 C1550 1.531 . S
C1547 C1546 1.369 . S
C1547 C1548 1.410 . S
C1547 C1555 1.503 . S
C1548 C1547 1.410 . S
C1548 C1549 1.392 . S
C1548 C1551 1.511 . S
C1549 C1545 1.376 . S
C1549 C1548 1.392 . S
C1549 H1561 0.929 . S
C1550 C1546 1.531 . S
C1550 H1562 0.960 . S
C1550 H1563 0.962 . S
C1550 H1564 0.960 . S
C1551 C1548 1.511 . S
C1551 H1565 0.961 . S
C1551 H1566 0.961 . S
C1551 H1567 0.961 . S
C1552 C1553 1.370 . S
C1552 C1554 1.363 . S
C1552 H1568 0.931 . S
C1553 C1552 1.370 . S
C1553 C1557 1.408 . S
C1554 C1552 1.363 . S
C1554 C1555 1.370 . S
C1554 C1558 1.524 . S
C1555 C1547 1.503 . S
C1555 C1554 1.370 . S
C1555 C1556 1.403 . S
C1556 C1555 1.403 . S
C1556 C1557 1.404 . S
C1556 C1559 1.539 . S
C1557 C1553 1.408 . S
C1557 C1556 1.404 . S
C1557 H1569 0.930 . S
C1558 C1554 1.524 . S
C1558 H1570 0.956 . S
C1558 H1571 0.961 . S
C1558 H1572 0.961 . S
C1559 C1556 1.539 . S
C1559 H1573 0.958 . S
C1559 H1574 0.961 . S
C1559 H1575 0.960 . S
H1560 C1544 0.931 . S
H1561 C1549 0.929 . S
H1562 C1550 0.960 . S
H1563 C1550 0.962 . S
H1564 C1550 0.960 . S
H1565 C1551 0.961 . S
H1566 C1551 0.961 . S
H1567 C1551 0.961 . S
H1568 C1552 0.931 . S
H1569 C1557 0.930 . S
H1570 C1558 0.956 . S
H1571 C1558 0.961 . S
H1572 C1558 0.961 . S
H1573 C1559 0.958 . S
H1574 C1559 0.961 . S
H1575 C1559 0.960 . S
C1576 C1577 1.391 . S
C1576 C1578 1.394 . S
C1576 H1592 0.931 . S
C1577 C1576 1.391 . S
C1577 C1581 1.376 . S
C1578 C1576 1.394 . S
C1578 C1579 1.369 . S
C1578 C1582 1.531 . S
C1579 C1578 1.369 . S
C1579 C1580 1.410 . S
C1579 C1587 1.503 . S
C1580 C1579 1.410 . S
C1580 C1581 1.392 . S
C1580 C1583 1.511 . S
C1581 C1577 1.376 . S
C1581 C1580 1.392 . S
C1581 H1593 0.929 . S
C1582 C1578 1.531 . S
C1582 H1594 0.960 . S
C1582 H1595 0.962 . S
C1582 H1596 0.960 . S
C1583 C1580 1.511 . S
C1583 H1597 0.961 . S
C1583 H1598 0.961 . S
C1583 H1599 0.961 . S
C1584 C1585 1.370 . S
C1584 C1586 1.363 . S
C1584 H1600 0.931 . S
C1585 C1584 1.370 . S
C1585 C1589 1.408 . S
C1586 C1584 1.363 . S
C1586 C1587 1.370 . S
C1586 C1590 1.524 . S
C1587 C1579 1.503 . S
C1587 C1586 1.370 . S
C1587 C1588 1.403 . S
C1588 C1587 1.403 . S
C1588 C1589 1.404 . S
C1588 C1591 1.539 . S
C1589 C1585 1.408 . S
C1589 C1588 1.404 . S
C1589 H1601 0.930 . S
C1590 C1586 1.524 . S
C1590 H1602 0.956 . S
C1590 H1603 0.961 . S
C1590 H1604 0.961 . S
C1591 C1588 1.539 . S
C1591 H1605 0.958 . S
C1591 H1606 0.961 . S
C1591 H1607 0.960 . S
H1592 C1576 0.931 . S
H1593 C1581 0.929 . S
H1594 C1582 0.960 . S
H1595 C1582 0.962 . S
H1596 C1582 0.960 . S
H1597 C1583 0.961 . S
H1598 C1583 0.961 . S
H1599 C1583 0.961 . S
H1600 C1584 0.931 . S
H1601 C1589 0.930 . S
H1602 C1590 0.956 . S
H1603 C1590 0.961 . S
H1604 C1590 0.961 . S
H1605 C1591 0.958 . S
H1606 C1591 0.961 . S
H1607 C1591 0.960 . S
C1608 C1609 1.391 . S
C1608 C1610 1.394 . S
C1608 H1624 0.931 . S
C1609 C1608 1.391 . S
C1609 C1613 1.376 . S
C1610 C1608 1.394 . S
C1610 C1611 1.369 . S
C1610 C1614 1.531 . S
C1611 C1610 1.369 . S
C1611 C1612 1.410 . S
C1611 C1619 1.503 . S
C1612 C1611 1.410 . S
C1612 C1613 1.392 . S
C1612 C1615 1.511 . S
C1613 C1609 1.376 . S
C1613 C1612 1.392 . S
C1613 H1625 0.929 . S
C1614 C1610 1.531 . S
C1614 H1626 0.960 . S
C1614 H1627 0.962 . S
C1614 H1628 0.960 . S
C1615 C1612 1.511 . S
C1615 H1629 0.961 . S
C1615 H1630 0.961 . S
C1615 H1631 0.961 . S
C1616 C1617 1.370 . S
C1616 C1618 1.363 . S
C1616 H1632 0.931 . S
C1617 C1616 1.370 . S
C1617 C1621 1.408 . S
C1618 C1616 1.363 . S
C1618 C1619 1.370 . S
C1618 C1622 1.524 . S
C1619 C1611 1.503 . S
C1619 C1618 1.370 . S
C1619 C1620 1.403 . S
C1620 C1619 1.403 . S
C1620 C1621 1.404 . S
C1620 C1623 1.539 . S
C1621 C1617 1.408 . S
C1621 C1620 1.404 . S
C1621 H1633 0.930 . S
C1622 C1618 1.524 . S
C1622 H1634 0.956 . S
C1622 H1635 0.961 . S
C1622 H1636 0.961 . S
C1623 C1620 1.539 . S
C1623 H1637 0.958 . S
C1623 H1638 0.961 . S
C1623 H1639 0.960 . S
H1624 C1608 0.931 . S
H1625 C1613 0.929 . S
H1626 C1614 0.960 . S
H1627 C1614 0.962 . S
H1628 C1614 0.960 . S
H1629 C1615 0.961 . S
H1630 C1615 0.961 . S
H1631 C1615 0.961 . S
H1632 C1616 0.931 . S
H1633 C1621 0.930 . S
H1634 C1622 0.956 . S
H1635 C1622 0.961 . S
H1636 C1622 0.961 . S
H1637 C1623 0.958 . S
H1638 C1623 0.961 . S
H1639 C1623 0.960 . S
C1640 C1641 1.391 . S
C1640 C1642 1.394 . S
C1640 H1656 0.931 . S
C1641 C1640 1.391 . S
C1641 C1645 1.376 . S
C1642 C1640 1.394 . S
C1642 C1643 1.369 . S
C1642 C1646 1.531 . S
C1643 C1642 1.369 . S
C1643 C1644 1.410 . S
C1643 C1651 1.503 . S
C1644 C1643 1.410 . S
C1644 C1645 1.392 . S
C1644 C1647 1.511 . S
C1645 C1641 1.376 . S
C1645 C1644 1.392 . S
C1645 H1657 0.929 . S
C1646 C1642 1.531 . S
C1646 H1658 0.960 . S
C1646 H1659 0.962 . S
C1646 H1660 0.960 . S
C1647 C1644 1.511 . S
C1647 H1661 0.961 . S
C1647 H1662 0.961 . S
C1647 H1663 0.961 . S
C1648 C1649 1.370 . S
C1648 C1650 1.363 . S
C1648 H1664 0.931 . S
C1649 C1648 1.370 . S
C1649 C1653 1.408 . S
C1650 C1648 1.363 . S
C1650 C1651 1.370 . S
C1650 C1654 1.524 . S
C1651 C1643 1.503 . S
C1651 C1650 1.370 . S
C1651 C1652 1.403 . S
C1652 C1651 1.403 . S
C1652 C1653 1.404 . S
C1652 C1655 1.539 . S
C1653 C1649 1.408 . S
C1653 C1652 1.404 . S
C1653 H1665 0.930 . S
C1654 C1650 1.524 . S
C1654 H1666 0.956 . S
C1654 H1667 0.961 . S
C1654 H1668 0.961 . S
C1655 C1652 1.539 . S
C1655 H1669 0.958 . S
C1655 H1670 0.961 . S
C1655 H1671 0.960 . S
H1656 C1640 0.931 . S
H1657 C1645 0.929 . S
H1658 C1646 0.960 . S
H1659 C1646 0.962 . S
H1660 C1646 0.960 . S
H1661 C1647 0.961 . S
H1662 C1647 0.961 . S
H1663 C1647 0.961 . S
H1664 C1648 0.931 . S
H1665 C1653 0.930 . S
H1666 C1654 0.956 . S
H1667 C1654 0.961 . S
H1668 C1654 0.961 . S
H1669 C1655 0.958 . S
H1670 C1655 0.961 . S
H1671 C1655 0.960 . S
C1672 C1673 1.391 . S
C1672 C1674 1.394 . S
C1672 H1688 0.931 . S
C1673 C1672 1.391 . S
C1673 C1677 1.376 . S
C1674 C1672 1.394 . S
C1674 C1675 1.369 . S
C1674 C1678 1.531 . S
C1675 C1674 1.369 . S
C1675 C1676 1.410 . S
C1675 C1683 1.503 . S
C1676 C1675 1.410 . S
C1676 C1677 1.392 . S
C1676 C1679 1.511 . S
C1677 C1673 1.376 . S
C1677 C1676 1.392 . S
C1677 H1689 0.929 . S
C1678 C1674 1.531 . S
C1678 H1690 0.960 . S
C1678 H1691 0.962 . S
C1678 H1692 0.960 . S
C1679 C1676 1.511 . S
C1679 H1693 0.961 . S
C1679 H1694 0.961 . S
C1679 H1695 0.961 . S
C1680 C1681 1.370 . S
C1680 C1682 1.363 . S
C1680 H1696 0.931 . S
C1681 C1680 1.370 . S
C1681 C1685 1.408 . S
C1682 C1680 1.363 . S
C1682 C1683 1.370 . S
C1682 C1686 1.524 . S
C1683 C1675 1.503 . S
C1683 C1682 1.370 . S
C1683 C1684 1.403 . S
C1684 C1683 1.403 . S
C1684 C1685 1.404 . S
C1684 C1687 1.539 . S
C1685 C1681 1.408 . S
C1685 C1684 1.404 . S
C1685 H1697 0.930 . S
C1686 C1682 1.524 . S
C1686 H1698 0.956 . S
C1686 H1699 0.961 . S
C1686 H1700 0.961 . S
C1687 C1684 1.539 . S
C1687 H1701 0.958 . S
C1687 H1702 0.961 . S
C1687 H1703 0.960 . S
H1688 C1672 0.931 . S
H1689 C1677 0.929 . S
H1690 C1678 0.960 . S
H1691 C1678 0.962 . S
H1692 C1678 0.960 . S
H1693 C1679 0.961 . S
H1694 C1679 0.961 . S
H1695 C1679 0.961 . S
H1696 C1680 0.931 . S
H1697 C1685 0.930 . S
H1698 C1686 0.956 . S
H1699 C1686 0.961 . S
H1700 C1686 0.961 . S
H1701 C1687 0.958 . S
H1702 C1687 0.961 . S
H1703 C1687 0.960 . S
C1704 C1705 1.391 . S
C1704 C1706 1.394 . S
C1704 H1720 0.931 . S
C1705 C1704 1.391 . S
C1705 C1709 1.376 . S
C1706 C1704 1.394 . S
C1706 C1707 1.369 . S
C1706 C1710 1.531 . S
C1707 C1706 1.369 . S
C1707 C1708 1.410 . S
C1707 C1715 1.503 . S
C1708 C1707 1.410 . S
C1708 C1709 1.392 . S
C1708 C1711 1.511 . S
C1709 C1705 1.376 . S
C1709 C1708 1.392 . S
C1709 H1721 0.929 . S
C1710 C1706 1.531 . S
C1710 H1722 0.960 . S
C1710 H1723 0.962 . S
C1710 H1724 0.960 . S
C1711 C1708 1.511 . S
C1711 H1725 0.961 . S
C1711 H1726 0.961 . S
C1711 H1727 0.961 . S
C1712 C1713 1.370 . S
C1712 C1714 1.363 . S
C1712 H1728 0.931 . S
C1713 C1712 1.370 . S
C1713 C1717 1.408 . S
C1714 C1712 1.363 . S
C1714 C1715 1.370 . S
C1714 C1718 1.524 . S
C1715 C1707 1.503 . S
C1715 C1714 1.370 . S
C1715 C1716 1.403 . S
C1716 C1715 1.403 . S
C1716 C1717 1.404 . S
C1716 C1719 1.539 . S
C1717 C1713 1.408 . S
C1717 C1716 1.404 . S
C1717 H1729 0.930 . S
C1718 C1714 1.524 . S
C1718 H1730 0.956 . S
C1718 H1731 0.961 . S
C1718 H1732 0.961 . S
C1719 C1716 1.539 . S
C1719 H1733 0.958 . S
C1719 H1734 0.961 . S
C1719 H1735 0.960 . S
H1720 C1704 0.931 . S
H1721 C1709 0.929 . S
H1722 C1710 0.960 . S
H1723 C1710 0.962 . S
H1724 C1710 0.960 . S
H1725 C1711 0.961 . S
H1726 C1711 0.961 . S
H1727 C1711 0.961 . S
H1728 C1712 0.931 . S
H1729 C1717 0.930 . S
H1730 C1718 0.956 . S
H1731 C1718 0.961 . S
H1732 C1718 0.961 . S
H1733 C1719 0.958 . S
H1734 C1719 0.961 . S
H1735 C1719 0.960 . S
C1736 C1737 1.391 . S
C1736 C1738 1.394 . S
C1736 H1752 0.931 . S
C1737 C1736 1.391 . S
C1737 C1741 1.376 . S
C1738 C1736 1.394 . S
C1738 C1739 1.369 . S
C1738 C1742 1.531 . S
C1739 C1738 1.369 . S
C1739 C1740 1.410 . S
C1739 C1747 1.503 . S
C1740 C1739 1.410 . S
C1740 C1741 1.392 . S
C1740 C1743 1.511 . S
C1741 C1737 1.376 . S
C1741 C1740 1.392 . S
C1741 H1753 0.929 . S
C1742 C1738 1.531 . S
C1742 H1754 0.960 . S
C1742 H1755 0.962 . S
C1742 H1756 0.960 . S
C1743 C1740 1.511 . S
C1743 H1757 0.961 . S
C1743 H1758 0.961 . S
C1743 H1759 0.961 . S
C1744 C1745 1.370 . S
C1744 C1746 1.363 . S
C1744 H1760 0.931 . S
C1745 C1744 1.370 . S
C1745 C1749 1.408 . S
C1746 C1744 1.363 . S
C1746 C1747 1.370 . S
C1746 C1750 1.524 . S
C1747 C1739 1.503 . S
C1747 C1746 1.370 . S
C1747 C1748 1.403 . S
C1748 C1747 1.403 . S
C1748 C1749 1.404 . S
C1748 C1751 1.539 . S
C1749 C1745 1.408 . S
C1749 C1748 1.404 . S
C1749 H1761 0.930 . S
C1750 C1746 1.524 . S
C1750 H1762 0.956 . S
C1750 H1763 0.961 . S
C1750 H1764 0.961 . S
C1751 C1748 1.539 . S
C1751 H1765 0.958 . S
C1751 H1766 0.961 . S
C1751 H1767 0.960 . S
H1752 C1736 0.931 . S
H1753 C1741 0.929 . S
H1754 C1742 0.960 . S
H1755 C1742 0.962 . S
H1756 C1742 0.960 . S
H1757 C1743 0.961 . S
H1758 C1743 0.961 . S
H1759 C1743 0.961 . S
H1760 C1744 0.931 . S
H1761 C1749 0.930 . S
H1762 C1750 0.956 . S
H1763 C1750 0.961 . S
H1764 C1750 0.961 . S
H1765 C1751 0.958 . S
H1766 C1751 0.961 . S
H1767 C1751 0.960 . S
C1768 C1769 1.391 . S
C1768 C1770 1.394 . S
C1768 H1784 0.931 . S
C1769 C1768 1.391 . S
C1769 C1773 1.376 . S
C1770 C1768 1.394 . S
C1770 C1771 1.369 . S
C1770 C1774 1.531 . S
C1771 C1770 1.369 . S
C1771 C1772 1.410 . S
C1771 C1779 1.503 . S
C1772 C1771 1.410 . S
C1772 C1773 1.392 . S
C1772 C1775 1.511 . S
C1773 C1769 1.376 . S
C1773 C1772 1.392 . S
C1773 H1785 0.929 . S
C1774 C1770 1.531 . S
C1774 H1786 0.960 . S
C1774 H1787 0.962 . S
C1774 H1788 0.960 . S
C1775 C1772 1.511 . S
C1775 H1789 0.961 . S
C1775 H1790 0.961 . S
C1775 H1791 0.961 . S
C1776 C1777 1.370 . S
C1776 C1778 1.363 . S
C1776 H1792 0.931 . S
C1777 C1776 1.370 . S
C1777 C1781 1.408 . S
C1778 C1776 1.363 . S
C1778 C1779 1.370 . S
C1778 C1782 1.524 . S
C1779 C1771 1.503 . S
C1779 C1778 1.370 . S
C1779 C1780 1.403 . S
C1780 C1779 1.403 . S
C1780 C1781 1.404 . S
C1780 C1783 1.539 . S
C1781 C1777 1.408 . S
C1781 C1780 1.404 . S
C1781 H1793 0.930 . S
C1782 C1778 1.524 . S
C1782 H1794 0.956 . S
C1782 H1795 0.961 . S
C1782 H1796 0.961 . S
C1783 C1780 1.539 . S
C1783 H1797 0.958 . S
C1783 H1798 0.961 . S
C1783 H1799 0.960 . S
H1784 C1768 0.931 . S
H1785 C1773 0.929 . S
H1786 C1774 0.960 . S
H1787 C1774 0.962 . S
H1788 C1774 0.960 . S
H1789 C1775 0.961 . S
H1790 C1775 0.961 . S
H1791 C1775 0.961 . S
H1792 C1776 0.931 . S
H1793 C1781 0.930 . S
H1794 C1782 0.956 . S
H1795 C1782 0.961 . S
H1796 C1782 0.961 . S
H1797 C1783 0.958 . S
H1798 C1783 0.961 . S
H1799 C1783 0.960 . S
C1800 C1801 1.391 . S
C1800 C1802 1.394 . S
C1800 H1816 0.931 1_545 S
C1801 C1800 1.391 . S
C1801 C1805 1.376 . S
C1802 C1800 1.394 . S
C1802 C1803 1.369 . S
C1802 C1806 1.531 . S
C1803 C1802 1.369 . S
C1803 C1804 1.410 . S
C1803 C1811 1.503 . S
C1804 C1803 1.410 . S
C1804 C1805 1.392 . S
C1804 C1807 1.511 . S
C1805 C1801 1.376 . S
C1805 C1804 1.392 . S
C1805 H1817 0.929 . S
C1806 C1802 1.531 . S
C1806 H1818 0.960 . S
C1806 H1819 0.962 . S
C1806 H1820 0.960 . S
C1807 C1804 1.511 . S
C1807 H1821 0.961 . S
C1807 H1822 0.961 . S
C1807 H1823 0.961 . S
C1808 C1809 1.370 . S
C1808 C1810 1.363 . S
C1808 H1824 0.931 . S
C1809 C1808 1.370 . S
C1809 C1813 1.408 . S
C1810 C1808 1.363 . S
C1810 C1811 1.370 . S
C1810 C1814 1.530 . S
C1811 C1803 1.503 . S
C1811 C1810 1.370 . S
C1811 C1812 1.403 . S
C1812 C1811 1.403 . S
C1812 C1813 1.404 . S
C1812 C1815 1.539 . S
C1813 C1809 1.408 . S
C1813 C1812 1.404 . S
C1813 H1825 0.930 . S
C1814 C1810 1.530 . S
C1814 H1826 0.952 1_545 S
C1814 H1827 0.960 1_545 S
C1814 H1828 0.959 1_545 S
C1815 C1812 1.539 . S
C1815 H1829 0.958 . S
C1815 H1830 0.961 . S
C1815 H1831 0.960 . S
H1816 C1800 0.931 1_565 S
H1817 C1805 0.929 . S
H1818 C1806 0.960 . S
H1819 C1806 0.962 . S
H1820 C1806 0.960 . S
H1821 C1807 0.961 . S
H1822 C1807 0.961 . S
H1823 C1807 0.961 . S
H1824 C1808 0.931 . S
H1825 C1813 0.930 . S
H1826 C1814 0.952 1_565 S
H1827 C1814 0.960 1_565 S
H1828 C1814 0.959 1_565 S
H1829 C1815 0.958 . S
H1830 C1815 0.961 . S
H1831 C1815 0.960 . S
C1832 C1833 1.391 . S
C1832 C1834 1.394 . S
C1832 H1848 0.931 . S
C1833 C1832 1.391 . S
C1833 C1837 1.376 . S
C1834 C1832 1.394 . S
C1834 C1835 1.369 . S
C1834 C1838 1.531 . S
C1835 C1834 1.369 . S
C1835 C1836 1.410 . S
C1835 C1843 1.503 . S
C1836 C1835 1.410 . S
C1836 C1837 1.392 . S
C1836 C1839 1.511 . S
C1837 C1833 1.376 . S
C1837 C1836 1.392 . S
C1837 H1849 0.929 . S
C1838 C1834 1.531 . S
C1838 H1850 0.960 . S
C1838 H1851 0.962 . S
C1838 H1852 0.960 . S
C1839 C1836 1.511 . S
C1839 H1853 0.961 . S
C1839 H1854 0.961 . S
C1839 H1855 0.961 . S
C1840 C1841 1.370 . S
C1840 C1842 1.363 . S
C1840 H1856 0.931 . S
C1841 C1840 1.370 . S
C1841 C1845 1.408 . S
C1842 C1840 1.363 . S
C1842 C1843 1.370 . S
C1842 C1846 1.524 . S
C1843 C1835 1.503 . S
C1843 C1842 1.370 . S
C1843 C1844 1.403 . S
C1844 C1843 1.403 . S
C1844 C1845 1.404 . S
C1844 C1847 1.539 . S
C1845 C1841 1.408 . S
C1845 C1844 1.404 . S
C1845 H1857 0.930 . S
C1846 C1842 1.524 . S
C1846 H1858 0.956 . S
C1846 H1859 0.961 . S
C1846 H1860 0.961 . S
C1847 C1844 1.539 . S
C1847 H1861 0.958 . S
C1847 H1862 0.961 . S
C1847 H1863 0.960 . S
H1848 C1832 0.931 . S
H1849 C1837 0.929 . S
H1850 C1838 0.960 . S
H1851 C1838 0.962 . S
H1852 C1838 0.960 . S
H1853 C1839 0.961 . S
H1854 C1839 0.961 . S
H1855 C1839 0.961 . S
H1856 C1840 0.931 . S
H1857 C1845 0.930 . S
H1858 C1846 0.956 . S
H1859 C1846 0.961 . S
H1860 C1846 0.961 . S
H1861 C1847 0.958 . S
H1862 C1847 0.961 . S
H1863 C1847 0.960 . S
C1864 C1865 1.391 1_565 S
C1864 C1866 1.394 . S
C1864 H1880 0.931 . S
C1865 C1864 1.391 1_545 S
C1865 C1869 1.376 . S
C1866 C1864 1.394 . S
C1866 C1867 1.369 . S
C1866 C1870 1.531 . S
C1867 C1866 1.369 . S
C1867 C1868 1.410 1_565 S
C1867 C1875 1.503 . S
C1868 C1867 1.410 1_545 S
C1868 C1869 1.392 . S
C1868 C1871 1.511 . S
C1869 C1865 1.376 . S
C1869 C1868 1.392 . S
C1869 H1881 0.929 . S
C1870 C1866 1.531 . S
C1870 H1882 0.960 . S
C1870 H1883 0.962 . S
C1870 H1884 0.960 . S
C1871 C1868 1.511 . S
C1871 H1885 0.961 . S
C1871 H1886 0.961 . S
C1871 H1887 0.961 . S
C1872 C1873 1.370 1_554 S
C1872 C1874 1.363 1_564 S
C1872 H1888 0.931 1_565 S
C1873 C1872 1.370 1_556 S
C1873 C1877 1.408 . S
C1874 C1872 1.363 1_546 S
C1874 C1875 1.370 1_545 S
C1874 C1878 1.524 . S
C1875 C1867 1.503 . S
C1875 C1874 1.370 1_565 S
C1875 C1876 1.403 . S
C1876 C1875 1.403 . S
C1876 C1877 1.404 . S
C1876 C1879 1.539 . S
C1877 C1873 1.408 . S
C1877 C1876 1.404 . S
C1877 H1889 0.930 . S
C1878 C1874 1.524 . S
C1878 H1890 0.956 . S
C1878 H1891 0.961 . S
C1878 H1892 0.961 1_556 S
C1879 C1876 1.539 . S
C1879 H1893 0.958 . S
C1879 H1894 0.961 . S
C1879 H1895 0.960 . S
H1880 C1864 0.931 . S
H1881 C1869 0.929 . S
H1882 C1870 0.960 . S
H1883 C1870 0.962 . S
H1884 C1870 0.960 . S
H1885 C1871 0.961 . S
H1886 C1871 0.961 . S
H1887 C1871 0.961 . S
H1888 C1872 0.931 1_545 S
H1889 C1877 0.930 . S
H1890 C1878 0.956 . S
H1891 C1878 0.961 . S
H1892 C1878 0.961 1_554 S
H1893 C1879 0.958 . S
H1894 C1879 0.961 . S
H1895 C1879 0.960 . S
C1896 C1897 1.391 . S
C1896 C1898 1.394 . S
C1896 H1912 0.931 . S
C1897 C1896 1.391 . S
C1897 C1901 1.376 . S
C1898 C1896 1.394 . S
C1898 C1899 1.369 . S
C1898 C1902 1.531 . S
C1899 C1898 1.369 . S
C1899 C1900 1.410 . S
C1899 C1907 1.503 . S
C1900 C1899 1.410 . S
C1900 C1901 1.392 . S
C1900 C1903 1.511 . S
C1901 C1897 1.376 . S
C1901 C1900 1.392 . S
C1901 H1913 0.929 . S
C1902 C1898 1.531 . S
C1902 H1914 0.960 . S
C1902 H1915 0.962 . S
C1902 H1916 0.960 . S
C1903 C1900 1.511 . S
C1903 H1917 0.961 . S
C1903 H1918 0.961 . S
C1903 H1919 0.961 . S
C1904 C1905 1.370 . S
C1904 C1906 1.363 . S
C1904 H1920 0.931 . S
C1905 C1904 1.370 . S
C1905 C1909 1.408 . S
C1906 C1904 1.363 . S
C1906 C1907 1.370 . S
C1906 C1910 1.524 . S
C1907 C1899 1.503 . S
C1907 C1906 1.370 . S
C1907 C1908 1.403 . S
C1908 C1907 1.403 . S
C1908 C1909 1.404 . S
C1908 C1911 1.539 . S
C1909 C1905 1.408 . S
C1909 C1908 1.404 . S
C1909 H1921 0.930 . S
C1910 C1906 1.524 . S
C1910 H1922 0.956 . S
C1910 H1923 0.961 . S
C1910 H1924 0.961 . S
C1911 C1908 1.539 . S
C1911 H1925 0.958 . S
C1911 H1926 0.961 . S
C1911 H1927 0.960 . S
H1912 C1896 0.931 . S
H1913 C1901 0.929 . S
H1914 C1902 0.960 . S
H1915 C1902 0.962 . S
H1916 C1902 0.960 . S
H1917 C1903 0.961 . S
H1918 C1903 0.961 . S
H1919 C1903 0.961 . S
H1920 C1904 0.931 . S
H1921 C1909 0.930 . S
H1922 C1910 0.956 . S
H1923 C1910 0.961 . S
H1924 C1910 0.961 . S
H1925 C1911 0.958 . S
H1926 C1911 0.961 . S
H1927 C1911 0.960 . S
C1928 C1929 1.391 . S
C1928 C1930 1.394 . S
C1928 H1944 0.931 . S
C1929 C1928 1.391 . S
C1929 C1933 1.376 1_556 S
C1930 C1928 1.394 . S
C1930 C1931 1.386 . S
C1930 C1934 1.531 . S
C1931 C1930 1.386 . S
C1931 C1932 1.396 1_556 S
C1931 C1939 1.498 1_556 S
C1932 C1931 1.396 1_554 S
C1932 C1933 1.392 . S
C1932 C1935 1.511 . S
C1933 C1929 1.376 1_554 S
C1933 C1932 1.392 . S
C1933 H1945 0.929 . S
C1934 C1930 1.531 . S
C1934 H1946 0.960 . S
C1934 H1947 0.962 . S
C1934 H1948 0.960 . S
C1935 C1932 1.511 . S
C1935 H1949 0.961 . S
C1935 H1950 0.961 . S
C1935 H1951 0.961 . S
C1936 C1937 1.370 . S
C1936 C1938 1.363 . S
C1936 H1952 0.931 . S
C1937 C1936 1.370 . S
C1937 C1941 1.408 1_554 S
C1938 C1936 1.363 . S
C1938 C1939 1.370 . S
C1938 C1942 1.524 . S
C1939 C1931 1.498 1_554 S
C1939 C1938 1.370 . S
C1939 C1940 1.403 1_554 S
C1940 C1939 1.403 1_556 S
C1940 C1941 1.404 . S
C1940 C1943 1.539 . S
C1941 C1937 1.408 1_556 S
C1941 C1940 1.404 . S
C1941 H1953 0.930 . S
C1942 C1938 1.524 . S
C1942 H1954 0.956 . S
C1942 H1955 0.961 . S
C1942 H1956 0.961 . S
C1943 C1940 1.539 . S
C1943 H1957 0.958 . S
C1943 H1958 0.961 . S
C1943 H1959 0.960 . S
H1944 C1928 0.931 . S
H1945 C1933 0.929 . S
H1946 C1934 0.960 . S
H1947 C1934 0.962 . S
H1948 C1934 0.960 . S
H1949 C1935 0.961 . S
H1950 C1935 0.961 . S
H1951 C1935 0.961 . S
H1952 C1936 0.931 . S
H1953 C1941 0.930 . S
H1954 C1942 0.956 . S
H1955 C1942 0.961 . S
H1956 C1942 0.961 . S
H1957 C1943 0.958 . S
H1958 C1943 0.961 . S
H1959 C1943 0.960 . S
C1960 C1961 1.391 . S
C1960 C1962 1.394 . S
C1960 H1976 0.931 . S
C1961 C1960 1.391 . S
C1961 C1965 1.376 1_556 S
C1962 C1960 1.394 . S
C1962 C1963 1.369 . S
C1962 C1966 1.531 . S
C1963 C1962 1.369 . S
C1963 C1964 1.410 1_556 S
C1963 C1971 1.503 1_556 S
C1964 C1963 1.410 1_554 S
C1964 C1965 1.392 . S
C1964 C1967 1.511 . S
C1965 C1961 1.376 1_554 S
C1965 C1964 1.392 . S
C1965 H1977 0.929 . S
C1966 C1962 1.531 . S
C1966 H1978 0.960 . S
C1966 H1979 0.962 . S
C1966 H1980 0.960 . S
C1967 C1964 1.511 . S
C1967 H1981 0.961 . S
C1967 H1982 0.961 . S
C1967 H1983 0.961 . S
C1968 C1969 1.370 . S
C1968 C1970 1.363 . S
C1968 H1984 0.931 . S
C1969 C1968 1.370 . S
C1969 C1973 1.408 1_554 S
C1970 C1968 1.363 . S
C1970 C1971 1.370 . S
C1970 C1974 1.524 . S
C1971 C1963 1.503 1_554 S
C1971 C1970 1.370 . S
C1971 C1972 1.403 1_554 S
C1972 C1971 1.403 1_556 S
C1972 C1973 1.404 . S
C1972 C1975 1.539 . S
C1973 C1969 1.408 1_556 S
C1973 C1972 1.404 . S
C1973 H1985 0.930 . S
C1974 C1970 1.524 . S
C1974 H1986 0.956 . S
C1974 H1987 0.961 . S
C1974 H1988 0.961 . S
C1975 C1972 1.539 . S
C1975 H1989 0.958 . S
C1975 H1990 0.961 . S
C1975 H1991 0.960 . S
H1976 C1960 0.931 . S
H1977 C1965 0.929 . S
H1978 C1966 0.960 . S
H1979 C1966 0.962 . S
H1980 C1966 0.960 . S
H1981 C1967 0.961 . S
H1982 C1967 0.961 . S
H1983 C1967 0.961 . S
H1984 C1968 0.931 . S
H1985 C1973 0.930 . S
H1986 C1974 0.956 . S
H1987 C1974 0.961 . S
H1988 C1974 0.961 . S
H1989 C1975 0.958 . S
H1990 C1975 0.961 . S
H1991 C1975 0.960 . S
C1992 C1993 1.391 1_556 S
C1992 C1994 1.394 1_556 S
C1992 H2008 0.931 . S
C1993 C1992 1.391 1_554 S
C1993 C1997 1.376 . S
C1994 C1992 1.394 1_554 S
C1994 C1995 1.369 . S
C1994 C1998 1.531 1_554 S
C1995 C1994 1.369 . S
C1995 C1996 1.410 . S
C1995 C2003 1.503 . S
C1996 C1995 1.410 . S
C1996 C1997 1.392 . S
C1996 C1999 1.511 . S
C1997 C1993 1.376 . S
C1997 C1996 1.392 . S
C1997 H2009 0.929 . S
C1998 C1994 1.531 1_556 S
C1998 H2010 0.960 . S
C1998 H2011 0.962 1_556 S
C1998 H2012 0.960 . S
C1999 C1996 1.511 . S
C1999 H2013 0.961 . S
C1999 H2014 0.961 . S
C1999 H2015 0.961 . S
C2000 C2001 1.370 . S
C2000 C2002 1.363 . S
C2000 H2016 0.931 . S
C2001 C2000 1.370 . S
C2001 C2005 1.408 . S
C2002 C2000 1.363 . S
C2002 C2003 1.370 . S
C2002 C2006 1.524 . S
C2003 C1995 1.503 . S
C2003 C2002 1.370 . S
C2003 C2004 1.403 . S
C2004 C2003 1.403 . S
C2004 C2005 1.404 . S
C2004 C2007 1.539 . S
C2005 C2001 1.408 . S
C2005 C2004 1.404 . S
C2005 H2017 0.930 . S
C2006 C2002 1.524 . S
C2006 H2018 0.956 . S
C2006 H2019 0.961 . S
C2006 H2020 0.961 . S
C2007 C2004 1.539 . S
C2007 H2021 0.958 1_554 S
C2007 H2022 0.961 . S
C2007 H2023 0.960 . S
H2008 C1992 0.931 . S
H2009 C1997 0.929 . S
H2010 C1998 0.960 . S
H2011 C1998 0.962 1_554 S
H2012 C1998 0.960 . S
H2013 C1999 0.961 . S
H2014 C1999 0.961 . S
H2015 C1999 0.961 . S
H2016 C2000 0.931 . S
H2017 C2005 0.930 . S
H2018 C2006 0.956 . S
H2019 C2006 0.961 . S
H2020 C2006 0.961 . S
H2021 C2007 0.958 1_556 S
H2022 C2007 0.961 . S
H2023 C2007 0.960 . S
C489 C13 2.329 . S
C497 C267 2.183 . S
C529 C296 2.989 . S
C521 C1 2.976 . S
C561 C173 1.199 . S
C553 C27 1.228 . S
C585 C15 1.538 . S
C593 C217 1.531 . S
C617 C28 3.173 . S
C625 C467 3.078 . S
C649 C55 1.637 . S
C657 C413 1.705 . S
C689 C346 2.643 . S
C681 C40 2.707 1_545 S
C713 C43 0.801 . S
C721 C376 0.812 . S
C753 C223 1.702 . S
C745 C56 1.762 . S
C785 C293 2.189 . S
C777 C83 2.165 . S
C809 C96 1.893 . S
C817 C256 1.943 . S
C841 C71 1.785 . S
C849 C387 1.737 . S
C881 C427 2.367 . S
C873 C99 2.526 . S
C913 C456 2.695 1_565 S
C905 C111 2.679 . S
C937 C113 1.174 . S
C945 C373 1.228 . S
C977 C337 1.777 . S
C969 C125 1.761 . S
C1001 C139 2.885 . S
C1009 C307 2.819 . S
C1033 C153 1.510 . S
C1041 C253 1.593 . S
C1073 C226 2.741 . S
C1065 C127 2.803 . S
C1097 C141 1.062 . S
C1105 C176 1.030 . S
C1137 C343 1.616 . S
C1129 C84 1.629 . S
C1169 C453 2.061 . S
C1161 C154 2.055 . S
C1193 C68 1.610 . S
C1201 C416 1.601 . S
C1225 C166 1.788 . S
C1233 C187 1.737 . S
C1265 C186 1.304 . S
C1257 C0 1.395 . S
C1289 C12 2.092 . S
C1297 C216 1.921 1_455 S
C1329 C263 1.212 . S
C1321 C14 1.486 . S
C1361 C297 1.831 . S
C1353 C26 1.884 . S
C1385 C41 1.951 . S
C1393 C177 1.927 . S
C1417 C42 1.696 . S
C1425 C213 1.573 . S
C1457 C266 1.043 . S
C1449 C29 1.242 . S
C1481 C54 0.968 . S
C1489 C303 0.866 . S
C1513 C69 1.478 . S
C1521 C183 1.357 . S
C1553 C257 2.423 . S
C1545 C70 2.522 . S
C1577 C85 2.088 . S
C1585 C306 1.867 . S
C1609 C82 0.952 . S
C1617 C347 0.949 . S
C1649 C386 1.202 . S
C1641 C110 1.279 . S
C1673 C98 2.137 . S
C1681 C336 1.931 . S
C1705 C124 1.429 . S
C1713 C423 1.237 . S
C1737 C112 1.962 . S
C1745 C457 1.925 . S
C1769 C126 2.146 . S
C1777 C377 2.108 . S
C1809 C333 1.576 . S
C1801 C140 1.655 1_545 S
C1833 C138 1.121 . S
C1841 C426 0.956 . S
C1873 C463 0.825 1_556 S
C1865 C152 0.846 . S
C1905 C383 1.244 . S
C1897 C97 1.390 . S
C1937 C417 2.532 . S
C1929 C167 2.608 . S
C1969 C466 1.718 . S
C1961 C57 1.877 . S
C1993 C155 0.799 . S
C2001 C227 0.771 . S
