# Generated by pormake.
# Topology wbl, (4,4)-cn, num edge types: 1
# Building blocks:
#     Node 0, Type 0, BuildingBlock: MUDLON_clean_sbu_0, # of connection points: 4
#     Node 1, Type 0, BuildingBlock: MUDLON_clean_sbu_0, # of connection points: 4
#     Node 2, Type 0, BuildingBlock: MUDLON_clean_sbu_0, # of connection points: 4
#     Node 3, Type 0, BuildingBlock: MUDLON_clean_sbu_0, # of connection points: 4
#     Node 4, Type 0, BuildingBlock: MUDLON_clean_sbu_0, # of connection points: 4
#     Node 5, Type 0, BuildingBlock: MUDLON_clean_sbu_0, # of connection points: 4
#     Node 6, Type 0, BuildingBlock: MUDLON_clean_sbu_0, # of connection points: 4
#     Node 7, Type 0, BuildingBlock: MUDLON_clean_sbu_0, # of connection points: 4
#     Node 8, Type 1, BuildingBlock: CEKHIL_clean_sbu_0, # of connection points: 4
#     Node 9, Type 1, BuildingBlock: CEKHIL_clean_sbu_0, # of connection points: 4
#     Node 10, Type 1, BuildingBlock: CEKHIL_clean_sbu_0, # of connection points: 4
#     Node 11, Type 1, BuildingBlock: CEKHIL_clean_sbu_0, # of connection points: 4
#     Node 12, Type 1, BuildingBlock: CEKHIL_clean_sbu_0, # of connection points: 4
#     Node 13, Type 1, BuildingBlock: CEKHIL_clean_sbu_0, # of connection points: 4
#     Node 14, Type 1, BuildingBlock: CEKHIL_clean_sbu_0, # of connection points: 4
#     Node 15, Type 1, BuildingBlock: CEKHIL_clean_sbu_0, # of connection points: 4
#     Edge 16, Type (0, 1), BuildingBlock: XUDNAN_clean_linker_2, # of connection points: 2
#     Edge 17, Type (0, 1), BuildingBlock: XUDNAN_clean_linker_2, # of connection points: 2
#     Edge 18, Type (0, 1), BuildingBlock: XUDNAN_clean_linker_2, # of connection points: 2
#     Edge 19, Type (0, 1), BuildingBlock: XUDNAN_clean_linker_2, # of connection points: 2
#     Edge 20, Type (0, 1), BuildingBlock: XUDNAN_clean_linker_2, # of connection points: 2
#     Edge 21, Type (0, 1), BuildingBlock: XUDNAN_clean_linker_2, # of connection points: 2
#     Edge 22, Type (0, 1), BuildingBlock: XUDNAN_clean_linker_2, # of connection points: 2
#     Edge 23, Type (0, 1), BuildingBlock: XUDNAN_clean_linker_2, # of connection points: 2
#     Edge 24, Type (0, 1), BuildingBlock: XUDNAN_clean_linker_2, # of connection points: 2
#     Edge 25, Type (0, 1), BuildingBlock: XUDNAN_clean_linker_2, # of connection points: 2
#     Edge 26, Type (0, 1), BuildingBlock: XUDNAN_clean_linker_2, # of connection points: 2
#     Edge 27, Type (0, 1), BuildingBlock: XUDNAN_clean_linker_2, # of connection points: 2
#     Edge 28, Type (0, 1), BuildingBlock: XUDNAN_clean_linker_2, # of connection points: 2
#     Edge 29, Type (0, 1), BuildingBlock: XUDNAN_clean_linker_2, # of connection points: 2
#     Edge 30, Type (0, 1), BuildingBlock: XUDNAN_clean_linker_2, # of connection points: 2
#     Edge 31, Type (0, 1), BuildingBlock: XUDNAN_clean_linker_2, # of connection points: 2
#     Edge 32, Type (0, 1), BuildingBlock: XUDNAN_clean_linker_2, # of connection points: 2
#     Edge 33, Type (0, 1), BuildingBlock: XUDNAN_clean_linker_2, # of connection points: 2
#     Edge 34, Type (0, 1), BuildingBlock: XUDNAN_clean_linker_2, # of connection points: 2
#     Edge 35, Type (0, 1), BuildingBlock: XUDNAN_clean_linker_2, # of connection points: 2
#     Edge 36, Type (0, 1), BuildingBlock: XUDNAN_clean_linker_2, # of connection points: 2
#     Edge 37, Type (0, 1), BuildingBlock: XUDNAN_clean_linker_2, # of connection points: 2
#     Edge 38, Type (0, 1), BuildingBlock: XUDNAN_clean_linker_2, # of connection points: 2
#     Edge 39, Type (0, 1), BuildingBlock: XUDNAN_clean_linker_2, # of connection points: 2
#     Edge 40, Type (0, 1), BuildingBlock: XUDNAN_clean_linker_2, # of connection points: 2
#     Edge 41, Type (0, 1), BuildingBlock: XUDNAN_clean_linker_2, # of connection points: 2
#     Edge 42, Type (0, 1), BuildingBlock: XUDNAN_clean_linker_2, # of connection points: 2
#     Edge 43, Type (0, 1), BuildingBlock: XUDNAN_clean_linker_2, # of connection points: 2
#     Edge 44, Type (0, 1), BuildingBlock: XUDNAN_clean_linker_2, # of connection points: 2
#     Edge 45, Type (0, 1), BuildingBlock: XUDNAN_clean_linker_2, # of connection points: 2
#     Edge 46, Type (0, 1), BuildingBlock: XUDNAN_clean_linker_2, # of connection points: 2
#     Edge 47, Type (0, 1), BuildingBlock: XUDNAN_clean_linker_2, # of connection points: 2
# Relax obj value: 0.231
# Max RMSD: 0.219
# Mean RMSD: 0.172
data_MOF--net-wbl--node1-MUDLON_clean_sbu_0--node2-CEKHIL_clean_sbu_0--edge1-XUDNAN_clean_linker_2
_symmetry_space_group_name_H-M    P1
_symmetry_Int_Tables_number       1
_symmetry_cell_setting            triclinic
loop_
_symmetry_equiv_pos_as_xyz
'x, y, z'
_cell_length_a     34.461383
_cell_length_b     34.694304
_cell_length_c     75.48202
_cell_angle_alpha  90.251917
_cell_angle_beta   90.117534
_cell_angle_gamma 90.116247
loop_
_atom_site_label
_atom_site_type_symbol
_atom_site_fract_x
_atom_site_fract_y
_atom_site_fract_z
_atom_type_partial_charge
Mg0 Mg 0.01016 0.04005 0.34676 0.0
C1 C 0.03184 0.97413 0.36917 0.0
O2 O 0.06537 0.9839 0.36226 0.0
C3 C 0.96489 0.08114 0.31912 0.0
O4 O 1.00064 0.09058 0.31491 0.0
C5 C 0.06439 1.00033 0.32208 0.0
O6 O 0.03595 0.97514 0.32304 0.0
O7 O 0.06125 0.03205 0.33043 0.0
O8 O 1.00123 0.99017 0.36337 0.0
O9 O 0.01894 0.08293 0.36725 0.0
C10 C 1.00103 0.11488 0.36741 0.0
O11 O 0.9812 0.1253 0.35336 0.0
O12 O 0.95955 0.05739 0.33166 0.0
Mg13 Mg 0.13453 0.52499 0.5989 0.0
C14 C 0.21978 0.50499 0.60797 0.0
O15 O 0.25283 0.48719 0.60521 0.0
C16 C 0.10154 0.45557 0.5793 0.0
O17 O 0.13694 0.44286 0.582 0.0
C18 C 0.15442 0.60005 0.58014 0.0
O19 O 0.18105 0.57795 0.57295 0.0
O20 O 0.13086 0.58547 0.59126 0.0
O21 O 0.19361 0.50357 0.59601 0.0
O22 O 0.11845 0.51504 0.6262 0.0
C23 C 0.12704 0.48178 0.63203 0.0
O24 O 0.14488 0.45736 0.62151 0.0
O25 O 0.0931 0.48975 0.58406 0.0
Mg26 Mg 0.63908 0.61291 0.8332 0.0
C27 C 0.60383 0.67811 0.85393 0.0
O28 O 0.57328 0.66604 0.84507 0.0
C29 C 0.72079 0.6245 0.81643 0.0
O30 O 0.71708 0.66083 0.82109 0.0
C31 C 0.58038 0.63857 0.80633 0.0
O32 O 0.60653 0.666 0.80493 0.0
O33 O 0.58698 0.61067 0.8168 0.0
O34 O 0.6369 0.66394 0.85021 0.0
O35 O 0.64157 0.56843 0.85309 0.0
C36 C 0.66943 0.57548 0.86372 0.0
O37 O 0.69087 0.60628 0.86105 0.0
O38 O 0.6928 0.6013 0.81896 0.0
Mg39 Mg 0.55169 0.12076 0.0974 0.0
C40 C 0.59159 0.15992 0.12735 0.0
O41 O 0.56909 0.18752 0.12137 0.0
C42 C 0.57937 0.03994 0.09237 0.0
O43 O 0.59489 0.04897 0.10775 0.0
C44 C 0.59622 0.18114 0.0781 0.0
O45 O 0.62441 0.16182 0.0857 0.0
O46 O 0.56142 0.16958 0.08008 0.0
O47 O 0.59196 0.12771 0.11925 0.0
O48 O 0.4967 0.1228 0.11129 0.0
C49 C 0.48035 0.0915 0.11587 0.0
O50 O 0.49358 0.05883 0.10945 0.0
O51 O 0.55935 0.06514 0.08432 0.0
Mg52 Mg 0.14082 0.57929 0.94592 0.0
C53 C 0.16177 0.6214 0.91265 0.0
O54 O 0.19582 0.62061 0.92049 0.0
C55 C 0.08358 0.55817 0.97534 0.0
O56 O 0.11504 0.54299 0.98225 0.0
C57 C 0.2228 0.59419 0.96167 0.0
O58 O 0.23061 0.55991 0.95515 0.0
O59 O 0.18855 0.60752 0.96018 0.0
O60 O 0.13215 0.6095 0.92107 0.0
O61 O 0.1521 0.52282 0.93435 0.0
C62 C 0.12508 0.49778 0.9348 0.0
O63 O 0.09753 0.5018 0.94662 0.0
O64 O 0.08636 0.57667 0.96086 0.0
Mg65 Mg 0.63699 0.6577 0.17906 0.0
C66 C 0.66866 0.71652 0.1563 0.0
O67 O 0.64674 0.7398 0.16571 0.0
C68 C 0.63506 0.58932 0.20285 0.0
O69 O 0.59857 0.59139 0.19786 0.0
C70 C 0.56269 0.69686 0.19135 0.0
O71 O 0.54675 0.66502 0.18525 0.0
O72 O 0.59933 0.70059 0.19089 0.0
O73 O 0.68141 0.68644 0.16385 0.0
O74 O 0.61032 0.62808 0.15695 0.0
C75 C 0.63342 0.60322 0.15051 0.0
O76 O 0.66502 0.59489 0.15948 0.0
O77 O 0.6587 0.61491 0.19749 0.0
Mg78 Mg 0.52277 0.10429 0.43514 0.0
C79 C 0.5188 0.16303 0.40591 0.0
O80 O 0.49328 0.13793 0.39998 0.0
C81 C 0.4552 0.07021 0.45544 0.0
O82 O 0.48098 0.04305 0.45824 0.0
C83 C 0.59104 0.12602 0.45827 0.0
O84 O 0.58162 0.16005 0.45205 0.0
O85 O 0.57058 0.09685 0.45386 0.0
O86 O 0.53336 0.15817 0.42122 0.0
O87 O 0.52442 0.06158 0.41389 0.0
C88 C 0.49278 0.05081 0.40664 0.0
O89 O 0.45979 0.06261 0.41343 0.0
O90 O 0.46542 0.10042 0.44712 0.0
Mg91 Mg 0.04761 0.04011 0.6946 0.0
C92 C 0.08652 0.01941 0.66292 0.0
O93 O 0.05716 0.9956 0.66482 0.0
C94 C 0.02065 0.10959 0.7162 0.0
O95 O 0.98994 0.10621 0.70598 0.0
C96 C 0.08896 0.9719 0.70897 0.0
O97 O 0.11777 0.99565 0.70568 0.0
O98 O 0.05437 0.98322 0.70619 0.0
O99 O 0.09338 0.04407 0.67504 0.0
O100 O 0.99818 0.04459 0.67681 0.0
C101 C 0.99936 0.07402 0.66681 0.0
O102 O 0.02506 0.10108 0.67027 0.0
O103 O 0.04869 0.08607 0.71434 0.0
Co104 Co 0.52525 0.73181 0.01378 0.0
O105 O 0.49163 0.68996 0.00651 0.0
O106 O 0.47411 0.75116 0.00798 0.0
C107 C 0.55109 0.70458 0.03813 0.0
O108 O 0.55092 0.78233 0.02183 0.0
Co109 Co 0.61475 0.72132 0.01371 0.0
O110 O 0.6121 0.76706 0.0295 0.0
C111 C 0.57396 0.73062 0.97982 0.0
C112 C 0.46458 0.71559 0.00454 0.0
C113 C 0.58319 0.78993 0.02985 0.0
O114 O 0.54263 0.73889 0.98833 0.0
O115 O 0.60522 0.71999 0.98754 0.0
O116 O 0.51674 0.71996 0.03869 0.0
O117 O 0.5659 0.70128 0.02247 0.0
Co118 Co 0.38099 0.98213 0.25514 0.0
O119 O 0.33959 0.01065 0.26646 0.0
O120 O 0.34382 0.94701 0.26498 0.0
C121 C 0.38238 0.01707 0.2301 0.0
O122 O 0.41582 0.94139 0.24417 0.0
Co123 Co 0.46032 0.01562 0.24437 0.0
O124 O 0.46886 0.96638 0.23151 0.0
C125 C 0.4454 0.99688 0.28199 0.0
C126 C 0.32436 0.97717 0.26992 0.0
C127 C 0.44655 0.93798 0.23469 0.0
O128 O 0.41201 0.98253 0.27793 0.0
O129 O 0.46782 0.01295 0.2707 0.0
O130 O 0.35694 0.98973 0.23202 0.0
O131 O 0.40454 0.02406 0.24358 0.0
Co132 Co 0.15687 0.91244 0.51125 0.0
O133 O 0.12705 0.87463 0.52365 0.0
O134 O 0.19114 0.87411 0.52186 0.0
C135 C 0.11948 0.91217 0.48671 0.0
O136 O 0.19655 0.94759 0.49908 0.0
Co137 Co 0.11607 0.98977 0.50201 0.0
O138 O 0.16396 0.9984 0.48806 0.0
C139 C 0.13921 0.97397 0.53875 0.0
C140 C 0.15947 0.85832 0.52787 0.0
C141 C 0.19506 0.9789 0.4899 0.0
O142 O 0.15916 0.94484 0.53346 0.0
O143 O 0.11682 0.99329 0.52857 0.0
O144 O 0.14677 0.8867 0.48856 0.0
O145 O 0.11374 0.93434 0.5002 0.0
Co146 Co 0.22794 0.67164 0.75797 0.0
O147 O 0.17744 0.69251 0.75307 0.0
O148 O 0.23285 0.72144 0.74659 0.0
C149 C 0.21411 0.65453 0.78605 0.0
O150 O 0.28559 0.66023 0.76178 0.0
Co151 Co 0.23957 0.58623 0.76621 0.0
O152 O 0.29208 0.60198 0.77417 0.0
C153 C 0.22563 0.60923 0.72928 0.0
C154 C 0.19509 0.72223 0.74652 0.0
C155 C 0.3063 0.63416 0.76937 0.0
O156 O 0.2275 0.64477 0.73417 0.0
O157 O 0.22775 0.58119 0.7402 0.0
O158 O 0.22495 0.68943 0.78237 0.0
O159 O 0.20947 0.63156 0.77264 0.0
Co160 Co 0.92184 0.18855 0.51847 0.0
O161 O 0.9668 0.21793 0.52521 0.0
O162 O 0.90692 0.23155 0.53361 0.0
C163 C 0.93657 0.18506 0.48944 0.0
O164 O 0.86824 0.16512 0.51328 0.0
Co165 Co 0.93328 0.10599 0.50372 0.0
O166 O 0.87679 0.10821 0.49928 0.0
C167 C 0.93975 0.11914 0.5421 0.0
C168 C 0.94364 0.24056 0.53384 0.0
C169 C 0.855 0.13482 0.5053 0.0
O170 O 0.92918 0.15433 0.5398 0.0
O171 O 0.94547 0.09558 0.52928 0.0
O172 O 0.91941 0.21519 0.49595 0.0
O173 O 0.94765 0.15968 0.50089 0.0
Co174 Co 0.00811 0.43992 0.78049 0.0
O175 O 0.99324 0.49278 0.78397 0.0
O176 O 0.95491 0.44292 0.78905 0.0
C177 C 0.03473 0.44796 0.75356 0.0
O178 O 0.01366 0.38148 0.77742 0.0
Co179 Co 0.09666 0.42114 0.77745 0.0
O180 O 0.07717 0.36819 0.7732 0.0
C181 C 0.06327 0.43852 0.81229 0.0
C182 C 0.95934 0.48021 0.78863 0.0
C183 C 0.04176 0.35783 0.77437 0.0
O184 O 0.02884 0.43706 0.80559 0.0
O185 O 0.09418 0.43707 0.80295 0.0
O186 O 0.9974 0.44449 0.75513 0.0
O187 O 0.05389 0.45079 0.7682 0.0
Co188 Co 0.73276 0.46405 0.00892 0.0
O189 O 0.68386 0.4387 0.01189 0.0
O190 O 0.73839 0.42036 0.02483 0.0
C191 C 0.72852 0.46903 0.97938 0.0
O192 O 0.78902 0.4836 0.00793 0.0
Co193 Co 0.73229 0.5477 0.99426 0.0
O194 O 0.78893 0.53862 0.99213 0.0
C195 C 0.70213 0.53171 0.02976 0.0
C196 C 0.70138 0.41475 0.02227 0.0
C197 C 0.80684 0.51121 -0.00018 0.0
O198 O 0.71981 0.49909 0.02943 0.0
O199 O 0.70012 0.55395 0.0163 0.0
O200 O 0.7405 0.43707 0.9864 0.0
O201 O 0.71626 0.49491 0.99032 0.0
Co202 Co 0.67309 0.28437 0.27697 0.0
O203 O 0.64232 0.32664 0.26802 0.0
O204 O 0.7063 0.32241 0.26631 0.0
C205 C 0.64329 0.28015 0.30353 0.0
O206 O 0.71571 0.24761 0.28476 0.0
Co207 Co 0.64002 0.20459 0.2876 0.0
O208 O 0.69245 0.19378 0.2972 0.0
C209 C 0.65404 0.22248 0.24971 0.0
C210 C 0.67501 0.342 0.26311 0.0
C211 C 0.7207 0.21536 0.29279 0.0
O212 O 0.6678 0.25596 0.25368 0.0
O213 O 0.64036 0.19895 0.26114 0.0
O214 O 0.67031 0.30572 0.30097 0.0
O215 O 0.63355 0.25988 0.28984 0.0
H216 H 0.12645 0.0476 0.3147 0.0
H217 H 0.08543 0.92965 0.30937 0.0
H218 H 0.14799 0.91103 0.29611 0.0
H219 H 0.17934 0.04968 0.27323 0.0
H220 H 0.21819 0.07897 0.28201 0.0
H221 H 0.17007 0.08311 0.29108 0.0
H222 H 0.19729 0.0688 0.32239 0.0
H223 H 0.24545 0.0643 0.3134 0.0
H224 H 0.22476 0.02535 0.326 0.0
H225 H 0.21538 0.90446 0.2846 0.0
H226 H 0.28184 0.91133 0.27306 0.0
H227 H 0.27896 0.03395 0.28479 0.0
C228 C 0.13057 0.0179 0.31067 0.0
C229 C 0.10106 0.99005 0.31311 0.0
C230 C 0.10753 0.95152 0.30759 0.0
C231 C 0.14304 0.9406 0.30012 0.0
C232 C 0.17166 0.96861 0.29811 0.0
C233 C 0.16575 0.00655 0.30302 0.0
C234 C 0.2012 0.03102 0.29912 0.0
C235 C 0.19162 0.06255 0.28555 0.0
C236 C 0.21817 0.04838 0.31625 0.0
C237 C 0.22798 1.00083 0.29132 0.0
C238 C 0.2104 0.96499 0.29101 0.0
C239 C 0.2294 0.93239 0.28467 0.0
C240 C 0.26722 0.9366 0.27821 0.0
C241 C 0.28555 0.97318 0.27799 0.0
C242 C 0.26567 0.00564 0.28475 0.0
H243 H 0.1996 0.64033 0.55643 0.0
H244 H 0.10438 0.6538 0.59356 0.0
H245 H 0.09978 0.72256 0.5858 0.0
H246 H 0.24392 0.73519 0.56426 0.0
H247 H 0.25667 0.74182 0.54133 0.0
H248 H 0.25431 0.69396 0.55046 0.0
H249 H 0.20537 0.67374 0.52603 0.0
H250 H 0.20768 0.72143 0.51679 0.0
H251 H 0.16151 0.70125 0.52309 0.0
H252 H 0.10203 0.78789 0.57282 0.0
H253 H 0.11053 0.84666 0.55505 0.0
H254 H 0.20556 0.79302 0.52662 0.0
C255 C 0.17799 0.65781 0.56304 0.0
C256 C 0.15233 0.64157 0.57563 0.0
C257 C 0.12434 0.66545 0.58389 0.0
C258 C 0.12159 0.70462 0.57961 0.0
C259 C 0.14716 0.71962 0.56713 0.0
C260 C 0.17488 0.69709 0.55896 0.0
C261 C 0.19766 0.72027 0.54544 0.0
C262 C 0.2407 0.72297 0.55069 0.0
C263 C 0.19274 0.70315 0.52673 0.0
C264 C 0.17784 0.75916 0.54707 0.0
C265 C 0.14894 0.75799 0.55976 0.0
C266 C 0.12487 0.78934 0.56302 0.0
C267 C 0.12989 0.82255 0.55284 0.0
C268 C 0.15893 0.82443 0.53963 0.0
C269 C 0.18374 0.79258 0.53692 0.0
H270 H 0.51716 0.59026 0.80861 0.0
H271 H 0.55643 0.69687 0.78458 0.0
H272 H 0.49113 0.70685 0.77195 0.0
H273 H 0.45312 0.5604 0.7725 0.0
H274 H 0.41717 0.54077 0.78727 0.0
H275 H 0.46756 0.54123 0.79367 0.0
H276 H 0.44993 0.57843 0.82239 0.0
H277 H 0.39955 0.5783 0.81604 0.0
H278 H 0.42379 0.62325 0.82084 0.0
H279 H 0.42026 0.70691 0.7632 0.0
H280 H 0.35029 0.69563 0.75809 0.0
H281 H 0.35779 0.58877 0.78767 0.0
C282 C 0.51222 0.61546 0.8005 0.0
C283 C 0.54205 0.64272 0.79756 0.0
C284 C 0.53416 0.67548 0.78699 0.0
C285 C 0.4971 0.68146 0.77977 0.0
C286 C 0.4682 0.65435 0.78316 0.0
C287 C 0.47542 0.62187 0.79318 0.0
C288 C 0.43914 0.59758 0.79518 0.0
C289 C 0.44458 0.55763 0.78664 0.0
C290 C 0.42742 0.59421 0.81477 0.0
C291 C 0.41031 0.62164 0.78488 0.0
C292 C 0.42759 0.65427 0.77804 0.0
C293 C 0.40648 0.68129 0.76839 0.0
C294 C 0.36668 0.67467 0.76559 0.0
C295 C 0.34837 0.64125 0.77239 0.0
C296 C 0.37076 0.61451 0.78216 0.0
H297 H 0.54099 0.00567 0.06415 0.0
H298 H 0.63002 0.98542 0.10386 0.0
H299 H 0.63957 0.91986 0.09214 0.0
H300 H 0.49984 0.90943 0.06553 0.0
H301 H 0.49022 0.90712 0.04206 0.0
H302 H 0.49017 0.95298 0.05336 0.0
H303 H 0.54165 0.97882 0.03144 0.0
H304 H 0.54185 0.93306 0.02007 0.0
H305 H 0.58653 0.95293 0.0286 0.0
H306 H 0.64083 0.85771 0.07627 0.0
H307 H 0.63289 0.80059 0.05732 0.0
H308 H 0.54175 0.85849 0.02785 0.0
C309 C 0.56258 0.98745 0.07032 0.0
C310 C 0.5849 1.00079 0.0849 0.0
C311 C 0.61259 0.97594 0.0927 0.0
C312 C 0.61826 0.93861 0.08613 0.0
C313 C 0.59586 0.92634 0.07182 0.0
C314 C 0.56844 0.94978 0.06401 0.0
C315 C 0.54806 0.9289 0.04887 0.0
C316 C 0.50449 0.92434 0.05269 0.0
C317 C 0.55495 0.94967 0.0312 0.0
C318 C 0.56868 0.89026 0.04933 0.0
C319 C 0.59615 0.88968 0.0627 0.0
C320 C 0.61948 0.85777 0.06573 0.0
C321 C 0.61485 0.82551 0.05479 0.0
C322 C 0.58697 0.82512 0.04094 0.0
C323 C 0.5633 0.85791 0.0383 0.0
H324 H 0.29787 0.57305 0.96965 0.0
H325 H 0.21904 0.67047 0.97112 0.0
H326 H 0.27192 0.7119 0.98246 0.0
H327 H 0.3505 0.59821 0.01002 0.0
H328 H 0.3965 0.58199 0.0015 0.0
H329 H 0.35216 0.5598 0.99389 0.0
H330 H 0.37081 0.57528 0.96145 0.0
H331 H 0.41509 0.59766 0.96896 0.0
H332 H 0.3816 0.62434 0.95537 0.0
H333 H 0.33433 0.74358 0.9925 0.0
H334 H 0.40069 0.76217 0.00175 0.0
H335 H 0.43849 0.64395 0.99434 0.0
C336 C 0.29162 0.60304 0.97246 0.0
C337 C 0.25418 0.61844 0.96946 0.0
C338 C 0.24735 0.65787 0.97334 0.0
C339 C 0.27726 0.68171 0.97976 0.0
C340 C 0.31388 0.66571 0.98239 0.0
C341 C 0.32109 0.6272 0.979 0.0
C342 C 0.36304 0.6172 0.98295 0.0
C343 C 0.36569 0.58755 0.99799 0.0
C344 C 0.38385 0.60278 0.96618 0.0
C345 C 0.37843 0.6562 0.98882 0.0
C346 C 0.34962 0.68381 0.98841 0.0
C347 C 0.35706 0.72213 0.99297 0.0
C348 C 0.39488 0.73245 0.99817 0.0
C349 C 0.42482 0.70457 0.99881 0.0
C350 C 0.41627 0.66596 0.99406 0.0
H351 H 0.58495 0.77146 0.198 0.0
H352 H 0.48525 0.69482 0.19941 0.0
H353 H 0.44445 0.74859 0.21008 0.0
H354 H 0.5623 0.82598 0.23703 0.0
H355 H 0.57878 0.87115 0.22801 0.0
H356 H 0.60004 0.82662 0.22052 0.0
H357 H 0.58272 0.84392 0.18809 0.0
H358 H 0.5613 0.88847 0.19549 0.0
H359 H 0.53315 0.85497 0.18241 0.0
H360 H 0.41505 0.81015 0.22129 0.0
H361 H 0.39853 0.8755 0.23175 0.0
H362 H 0.51703 0.91263 0.22209 0.0
C363 C 0.55456 0.7659 0.20062 0.0
C364 C 0.53829 0.72886 0.19797 0.0
C365 C 0.49833 0.72293 0.20136 0.0
C366 C 0.47494 0.75328 0.20742 0.0
C367 C 0.4919 0.78944 0.20985 0.0
C368 C 0.53075 0.79592 0.20649 0.0
C369 C 0.54174 0.83757 0.21005 0.0
C370 C 0.57253 0.84048 0.22478 0.0
C371 C 0.55553 0.85739 0.19299 0.0
C372 C 0.50307 0.85342 0.21612 0.0
C373 C 0.47474 0.82516 0.21593 0.0
C374 C 0.43694 0.83257 0.22142 0.0
C375 C 0.42789 0.86979 0.22737 0.0
C376 C 0.45645 0.89927 0.22771 0.0
C377 C 0.49445 0.89088 0.22185 0.0
H378 H 0.42376 0.01244 0.47591 0.0
H379 H 0.39268 0.11179 0.44411 0.0
H380 H 0.3234 0.09726 0.44869 0.0
H381 H 0.34758 0.94993 0.46106 0.0
H382 H 0.33898 0.92863 0.48243 0.0
H383 H 0.38649 0.94674 0.47698 0.0
H384 H 0.38563 0.99078 0.50478 0.0
H385 H 0.33832 0.97247 0.51043 0.0
H386 H 0.34576 0.02362 0.50802 0.0
H387 H 0.2581 0.07104 0.45552 0.0
H388 H 0.19974 0.03872 0.46666 0.0
H389 H 0.27176 0.95672 0.49504 0.0
C390 C 0.40238 0.0313 0.47002 0.0
C391 C 0.41373 0.06329 0.45963 0.0
C392 C 0.3848 0.08728 0.45219 0.0
C393 C 0.34533 0.07912 0.45463 0.0
C394 C 0.33517 0.04707 0.46467 0.0
C395 C 0.36273 0.02379 0.47246 0.0
C396 C 0.3437 0.99157 0.48292 0.0
C397 C 0.35486 0.95187 0.47539 0.0
C398 C 0.35396 0.99482 0.50271 0.0
C399 C 0.30113 1.00027 0.47966 0.0
C400 C 0.29707 0.03228 0.46898 0.0
C401 C 0.26087 0.04612 0.464 0.0
C402 C 0.22782 0.0274 0.47043 0.0
C403 C 0.23091 0.99516 0.48187 0.0
C404 C 0.26825 0.98114 0.4863 0.0
H405 H 0.15998 0.93957 0.71579 0.0
H406 H 0.03661 0.91378 0.71514 0.0
H407 H 0.05078 0.84668 0.72385 0.0
H408 H 0.19216 0.84886 0.698 0.0
H409 H 0.23486 0.84669 0.71179 0.0
H410 H 0.21513 0.89272 0.70553 0.0
H411 H 0.21003 0.9124 0.7386 0.0
H412 H 0.22994 0.86653 0.74495 0.0
H413 H 0.18383 0.88184 0.75371 0.0
H414 H 0.07825 0.78269 0.73268 0.0
H415 H 0.1168 0.72645 0.74188 0.0
H416 H 0.22256 0.79363 0.73662 0.0
C417 C 0.13587 0.91989 0.71751 0.0
C418 C 0.09712 0.93199 0.7148 0.0
C419 C 0.06649 0.90524 0.71719 0.0
C420 C 0.07427 0.86704 0.72208 0.0
C421 C 0.1128 0.85606 0.72453 0.0
C422 C 0.1431 0.8817 0.72238 0.0
C423 C 0.18187 0.86264 0.72598 0.0
C424 C 0.20751 0.86274 0.70933 0.0
C425 C 0.20263 0.88201 0.74175 0.0
C426 C 0.16864 0.82223 0.73054 0.0
C427 C 0.12868 0.81909 0.72958 0.0
C428 C 0.10954 0.7848 0.73346 0.0
C429 C 0.13174 0.75301 0.73867 0.0
C430 C 0.17271 0.75562 0.73995 0.0
C431 C 0.19134 0.79066 0.73566 0.0
H432 H 0.74631 0.5496 0.81693 0.0
H433 H 0.78127 0.6654 0.80228 0.0
H434 H 0.84574 0.64069 0.79348 0.0
H435 H 0.83789 0.52295 0.83583 0.0
H436 H 0.83537 0.47359 0.82836 0.0
H437 H 0.79141 0.49994 0.83275 0.0
H438 H 0.76693 0.4853 0.80095 0.0
H439 H 0.8107 0.45872 0.79649 0.0
H440 H 0.79682 0.49799 0.78228 0.0
H441 H 0.90671 0.60388 0.78713 0.0
H442 H 0.95991 0.55756 0.78289 0.0
H443 H 0.88595 0.46515 0.80189 0.0
C444 C 0.76733 0.56972 0.81164 0.0
C445 C 0.75865 0.60947 0.81015 0.0
C446 C 0.78725 0.63489 0.80351 0.0
C447 C 0.82393 0.6211 0.79849 0.0
C448 C 0.83168 0.58187 0.80035 0.0
C449 C 0.80422 0.55652 0.80677 0.0
C450 C 0.82043 0.51595 0.80803 0.0
C451 C 0.82132 0.50231 0.82739 0.0
C452 C 0.79735 0.48784 0.79623 0.0
C453 C 0.86114 0.52228 0.80101 0.0
C454 C 0.86702 0.56061 0.79679 0.0
C455 C 0.90241 0.57382 0.79036 0.0
C456 C 0.93253 0.5472 0.78806 0.0
C457 C 0.9272 0.50764 0.79207 0.0
C458 C 0.89093 0.49513 0.79867 0.0
H459 H 0.66727 0.21552 0.07325 0.0
H460 H 0.54463 0.22877 0.06138 0.0
H461 H 0.55866 0.29031 0.04641 0.0
H462 H 0.68683 0.31545 0.0823 0.0
H463 H 0.73421 0.31495 0.07223 0.0
H464 H 0.71483 0.27162 0.08189 0.0
H465 H 0.72442 0.23533 0.05214 0.0
H466 H 0.74401 0.27849 0.04242 0.0
H467 H 0.70322 0.25451 0.0322 0.0
H468 H 0.58545 0.35001 0.03301 0.0
H469 H 0.62339 0.40399 0.02108 0.0
H470 H 0.72926 0.35292 0.04158 0.0
C471 C 0.64335 0.23124 0.06743 0.0
C472 C 0.6048 0.21724 0.06847 0.0
C473 C 0.57437 0.23882 0.06074 0.0
C474 C 0.58204 0.27385 0.05224 0.0
C475 C 0.62028 0.28692 0.05159 0.0
C476 C 0.65048 0.2663 0.05891 0.0
C477 C 0.68895 0.2869 0.05633 0.0
C478 C 0.70727 0.29788 0.07425 0.0
C479 C 0.71679 0.26234 0.0451 0.0
C480 C 0.67562 0.32232 0.04635 0.0
C481 C 0.63586 0.32165 0.04382 0.0
C482 C 0.61659 0.35086 0.03488 0.0
C483 C 0.6385 0.38142 0.02815 0.0
C484 C 0.67936 0.38269 0.03037 0.0
C485 C 0.69809 0.35282 0.03973 0.0
H486 H 0.88714 0.07284 0.32663 0.0
H487 H 0.96804 0.13974 0.29511 0.0
H488 H 0.91447 0.18157 0.28535 0.0
H489 H 0.80591 0.07822 0.29538 0.0
H490 H 0.77018 0.0819 0.31271 0.0
H491 H 0.81471 0.05615 0.31659 0.0
H492 H 0.82839 0.09942 0.34398 0.0
H493 H 0.7842 0.12567 0.34004 0.0
H494 H 0.8298 0.15105 0.34141 0.0
H495 H 0.85341 0.21877 0.28062 0.0
H496 H 0.78727 0.24511 0.27861 0.0
H497 H 0.74522 0.1533 0.31257 0.0
C498 C 0.89352 0.09592 0.31747 0.0
C499 C 0.93187 0.103 0.31166 0.0
C500 C 0.93895 0.13366 0.29974 0.0
C501 C 0.90873 0.1577 0.29416 0.0
C502 C 0.8715 0.15057 0.3005 0.0
C503 C 0.86362 0.12012 0.31168 0.0
C504 C 0.821 0.119 0.3166 0.0
C505 C 0.80182 0.0816 0.30992 0.0
C506 C 0.81555 0.1241 0.3367 0.0
C507 C 0.80629 0.15378 0.30656 0.0
C508 C 0.83598 0.17168 0.29747 0.0
C509 C 0.82982 0.20484 0.28756 0.0
C510 C 0.79211 0.21971 0.2866 0.0
C511 C 0.76089 0.20128 0.2954 0.0
C512 C 0.76834 0.16803 0.30564 0.0
H513 H 0.1113 0.38297 0.56565 0.0
H514 H 0.02278 0.46786 0.57774 0.0
H515 H 0.97198 0.42155 0.56836 0.0
H516 H 0.06487 0.34404 0.52659 0.0
H517 H 0.08039 0.29544 0.53104 0.0
H518 H 0.10926 0.33557 0.53864 0.0
H519 H 0.10593 0.30929 0.57071 0.0
H520 H 0.07669 0.26931 0.56323 0.0
H521 H 0.05928 0.30039 0.58067 0.0
H522 H 0.93047 0.3642 0.55838 0.0
H523 H 0.90295 0.30326 0.54641 0.0
H524 H 0.01936 0.2576 0.54061 0.0
C525 C 0.08127 0.39199 0.56626 0.0
C526 C 0.07108 0.42908 0.57246 0.0
C527 C 0.03136 0.43965 0.57298 0.0
C528 C 0.00226 0.41347 0.56776 0.0
C529 C 0.01333 0.3769 0.56196 0.0
C530 C 0.05196 0.36637 0.56102 0.0
C531 C 0.05643 0.32565 0.5541 0.0
C532 C 0.07907 0.32517 0.53655 0.0
C533 C 0.07572 0.29964 0.56801 0.0
C534 C 0.01432 0.3148 0.5513 0.0
C535 C 0.98976 0.34453 0.55602 0.0
C536 C 0.9495 0.34081 0.5546 0.0
C537 C 0.93409 0.30606 0.54788 0.0
C538 C 0.95898 0.27575 0.54255 0.0
C539 C 0.99952 0.28026 0.54452 0.0
H540 H 0.64554 0.18131 0.46636 0.0
H541 H 0.61795 0.06043 0.47424 0.0
H542 H 0.67993 0.0519 0.49019 0.0
H543 H 0.74386 0.16831 0.45717 0.0
H544 H 0.76035 0.21134 0.46837 0.0
H545 H 0.71198 0.20918 0.45941 0.0
H546 H 0.68374 0.22611 0.49025 0.0
H547 H 0.73213 0.22833 0.49933 0.0
H548 H 0.6964 0.19698 0.50911 0.0
H549 H 0.74714 0.05461 0.50225 0.0
H550 H 0.81548 0.06823 0.50978 0.0
H551 H 0.79998 0.18776 0.49487 0.0
C552 C 0.65214 0.15319 0.47174 0.0
C553 C 0.62672 0.12153 0.4691 0.0
C554 C 0.63681 0.08512 0.47612 0.0
C555 C 0.67193 0.08003 0.48525 0.0
C556 C 0.69656 0.11167 0.48736 0.0
C557 C 0.6871 0.1476 0.48088 0.0
C558 C 0.71996 0.17617 0.48386 0.0
C559 C 0.73491 0.19217 0.46615 0.0
C560 C 0.70729 0.20883 0.49639 0.0
C561 C 0.74982 0.15041 0.49261 0.0
C562 C 0.73549 0.11339 0.4946 0.0
C563 C 0.75844 0.0836 0.50105 0.0
C564 C 0.79722 0.0916 0.50525 0.0
C565 C 0.81275 0.12912 0.50311 0.0
C566 C 0.7885 0.1591 0.49705 0.0
H567 H 0.97917 0.177 0.71681 0.0
H568 H 0.06851 0.11399 0.74502 0.0
H569 H 0.07544 0.16816 0.76608 0.0
H570 H 0.02541 0.26596 0.71888 0.0
H571 H 0.98197 0.29422 0.72159 0.0
H572 H 0.97969 0.24838 0.71042 0.0
H573 H 0.92692 0.22554 0.73244 0.0
H574 H 0.92922 0.27136 0.74376 0.0
H575 H 0.93654 0.22735 0.75591 0.0
H576 H 0.07824 0.23072 0.78181 0.0
H577 H 0.07977 0.29948 0.79018 0.0
H578 H 0.9889 0.3234 0.75205 0.0
C579 C 0.99954 0.17428 0.72768 0.0
C580 C 0.0231 0.14116 0.72939 0.0
C581 C 0.05013 0.13905 0.74349 0.0
C582 C 0.05406 0.16956 0.75559 0.0
C583 C 0.03077 0.20201 0.75341 0.0
C584 C 0.00412 0.2047 0.73978 0.0
C585 C 0.98574 0.24442 0.7393 0.0
C586 C 0.9937 0.26441 0.7215 0.0
C587 C 0.942 0.24201 0.74308 0.0
C588 C 0.00721 0.26404 0.75442 0.0
C589 C 0.03251 0.2387 0.76255 0.0
C590 C 0.05805 0.25064 0.7758 0.0
C591 C 0.0587 0.28969 0.78047 0.0
C592 C 0.03397 0.31638 0.77197 0.0
C593 C 0.00713 0.30326 0.75913 0.0
H594 H 0.01206 0.58136 0.96322 0.0
H595 H 0.06715 0.51281 0.0041 0.0
H596 H 0.00265 0.49262 0.01492 0.0
H597 H 0.93077 0.61388 0.98968 0.0
H598 H 0.89706 0.61126 0.97142 0.0
H599 H 0.94763 0.62084 0.96732 0.0
H600 H 0.95016 0.5625 0.94578 0.0
H601 H 0.89969 0.55255 0.94992 0.0
H602 H 0.9355 0.51558 0.95349 0.0
H603 H 0.93099 0.47746 0.0204 0.0
H604 H 0.85917 0.47265 0.02115 0.0
H605 H 0.8523 0.55206 0.97697 0.0
C606 C 0.01066 0.56244 0.97457 0.0
C607 C 0.04482 0.54878 0.98281 0.0
C608 C 0.04149 0.52383 0.99758 0.0
C609 C 0.00492 0.51206 0.0038 0.0
C610 C 0.97185 0.52557 0.99518 0.0
C611 C 0.97446 0.55049 0.98098 0.0
C612 C 0.93467 0.56074 0.97393 0.0
C613 C 0.92709 0.60426 0.9757 0.0
C614 C 0.92973 0.54701 0.95464 0.0
C615 C 0.90924 0.53778 0.98637 0.0
C616 C 0.93107 0.51741 0.99848 0.0
C617 C 0.91363 0.49352 0.01104 0.0
C618 C 0.87283 0.49083 0.01133 0.0
C619 C 0.84997 0.51217 0.99924 0.0
C620 C 0.86875 0.53567 0.98657 0.0
H621 H 0.5912 0.53116 0.21703 0.0
H622 H 0.71005 0.57126 0.21183 0.0
H623 H 0.7331 0.51284 0.22717 0.0
H624 H 0.60245 0.48849 0.26077 0.0
H625 H 0.57055 0.44866 0.25576 0.0
H626 H 0.56348 0.49442 0.24505 0.0
H627 H 0.56774 0.46085 0.21438 0.0
H628 H 0.57508 0.41505 0.22498 0.0
H629 H 0.60984 0.43233 0.20905 0.0
H630 H 0.74335 0.44831 0.2416 0.0
H631 H 0.73993 0.38401 0.2554 0.0
H632 H 0.61426 0.3866 0.2516 0.0
C633 C 0.62207 0.5279 0.21925 0.0
C634 C 0.64883 0.55584 0.21321 0.0
C635 C 0.68898 0.55035 0.21637 0.0
C636 C 0.70236 0.51721 0.22505 0.0
C637 C 0.67521 0.48998 0.23058 0.0
C638 C 0.63589 0.49512 0.22794 0.0
C639 C 0.61279 0.46125 0.23493 0.0
C640 C 0.58573 0.47397 0.25003 0.0
C641 C 0.59003 0.44119 0.21994 0.0
C642 C 0.64529 0.43599 0.24172 0.0
C643 C 0.68108 0.45307 0.23908 0.0
C644 C 0.71547 0.4348 0.24385 0.0
C645 C 0.71323 0.39822 0.25163 0.0
C646 C 0.67683 0.38032 0.25462 0.0
C647 C 0.64249 0.3996 0.24958 0.0
H648 H 0.08915 0.92957 0.38324 0.0
H649 H 0.975 0.97611 0.39444 0.0
H650 H 0.98226 0.95778 0.42579 0.0
H651 H 0.08461 0.84822 0.41684 0.0
H652 H 0.1354 0.85403 0.42198 0.0
H653 H 0.11793 0.86373 0.39991 0.0
H654 H 0.14809 0.93209 0.40171 0.0
H655 H 0.16493 0.92303 0.42384 0.0
H656 H 0.13423 0.96394 0.41953 0.0
H657 H 0.00758 0.94802 0.45638 0.0
H658 H 0.0457 0.93888 0.48381 0.0
H659 H 0.14201 0.89514 0.45288 0.0
C660 C 0.06505 0.93446 0.39215 0.0
C661 C 0.03149 0.95413 0.38641 0.0
C662 C 1.00078 0.96063 0.39849 0.0
C663 C 0.00471 0.95046 0.41636 0.0
C664 C 0.0391 0.933 0.4218 0.0
C665 C 0.06834 0.92407 0.40997 0.0
C666 C 0.10372 0.90833 0.41943 0.0
C667 C 0.11082 0.86606 0.41423 0.0
C668 C 0.13984 0.93336 0.41592 0.0
C669 C 0.09059 0.91175 0.43849 0.0
C670 C 0.05316 0.9259 0.43956 0.0
C671 C 0.0364 0.93576 0.45573 0.0
C672 C 0.05834 0.9308 0.4712 0.0
C673 C 0.09644 0.9158 0.47038 0.0
C674 C 0.11254 0.90572 0.45385 0.0
H675 H 0.23945 0.48089 0.64121 0.0
H676 H 0.18841 0.57628 0.61277 0.0
H677 H 0.18251 0.61304 0.64078 0.0
H678 H 0.18087 0.49233 0.68227 0.0
H679 H 0.22117 0.47805 0.6959 0.0
H680 H 0.21691 0.45942 0.67367 0.0
H681 H 0.28672 0.48561 0.6676 0.0
H682 H 0.28927 0.50573 0.6896 0.0
H683 H 0.29642 0.53631 0.67063 0.0
H684 H 0.18674 0.641 0.67171 0.0
H685 H 0.19641 0.65637 0.70344 0.0
H686 H 0.24369 0.54201 0.71184 0.0
C687 C 0.2266 0.50935 0.64097 0.0
C688 C 0.21362 0.52564 0.6249 0.0
C689 C 0.19731 0.56298 0.62501 0.0
C690 C 0.19424 0.58413 0.64084 0.0
C691 C 0.20752 0.56738 0.65648 0.0
C692 C 0.22294 0.53063 0.65671 0.0
C693 C 0.23585 0.51962 0.67522 0.0
C694 C 0.2123 0.48525 0.68215 0.0
C695 C 0.27967 0.51135 0.67578 0.0
C696 C 0.2259 0.55609 0.68529 0.0
C697 C 0.20965 0.58335 0.67426 0.0
C698 C 0.19905 0.6197 0.6805 0.0
C699 C 0.20479 0.62821 0.69853 0.0
C700 C 0.22059 0.60034 0.71016 0.0
C701 C 0.2312 0.56383 0.70335 0.0
H702 H 0.6502 0.67822 0.88339 0.0
H703 H 0.54259 0.72435 0.86258 0.0
H704 H 0.5259 0.74916 0.89235 0.0
H705 H 0.60939 0.64298 0.92173 0.0
H706 H 0.65099 0.65231 0.9356 0.0
H707 H 0.65717 0.64455 0.91215 0.0
H708 H 0.6931 0.71032 0.90991 0.0
H709 H 0.68659 0.71803 0.93334 0.0
H710 H 0.66948 0.75344 0.91777 0.0
H711 H 0.51672 0.76056 0.92517 0.0
H712 H 0.51723 0.75995 0.95792 0.0
H713 H 0.63047 0.70529 0.95707 0.0
C714 C 0.62391 0.69496 0.88492 0.0
C715 C 0.59797 0.69991 0.87061 0.0
C716 C 0.56308 0.72061 0.87334 0.0
C717 C 0.55334 0.73479 0.89021 0.0
C718 C 0.57879 0.72798 0.90422 0.0
C719 C 0.61354 0.70884 0.90171 0.0
C720 C 0.63364 0.70125 0.91919 0.0
C721 C 0.63807 0.65769 0.92235 0.0
C722 C 0.67304 0.72202 0.9201 0.0
C723 C 0.60475 0.7188 0.93194 0.0
C724 C 0.57331 0.73417 0.92309 0.0
C725 C 0.54155 0.74924 0.93221 0.0
C726 C 0.54202 0.7486 0.95084 0.0
C727 C 0.574 0.73288 0.96016 0.0
C728 C 0.6058 0.71812 0.95045 0.0
H729 H 0.43978 0.03002 0.1291 0.0
H730 H 0.46321 0.1515 0.13819 0.0
H731 H 0.43214 0.14716 0.16747 0.0
H732 H 0.3444 0.02737 0.15434 0.0
H733 H 0.35474 0.97978 0.16256 0.0
H734 H 0.37208 0.99408 0.14104 0.0
H735 H 0.4421 0.97639 0.1505 0.0
H736 H 0.4252 0.96265 0.17207 0.0
H737 H 0.46277 0.99855 0.17001 0.0
H738 H 0.41257 0.12672 0.19772 0.0
H739 H 0.39756 0.09307 0.22571 0.0
H740 H 0.38208 0.98597 0.19681 0.0
C741 C 0.43711 0.05603 0.13697 0.0
C742 C 0.45397 0.09108 0.13133 0.0
C743 C 0.45032 0.12437 0.14214 0.0
C744 C 0.43275 0.12219 0.15883 0.0
C745 C 0.41819 0.08675 0.16437 0.0
C746 C 0.41924 0.05444 0.1536 0.0
C747 C 0.40441 0.01916 0.16328 0.0
C748 C 0.36666 0.00422 0.1548 0.0
C749 C 0.43548 0.98734 0.16401 0.0
C750 C 0.39693 0.03623 0.18145 0.0
C751 C 0.40491 0.07533 0.18177 0.0
C752 C 0.40495 0.09644 0.19752 0.0
C753 C 0.39667 0.07712 0.21334 0.0
C754 C 0.38793 0.0373 0.21323 0.0
C755 C 0.38744 0.01675 0.19708 0.0
H756 H 0.21415 0.65974 0.8918 0.0
H757 H 0.1051 0.59706 0.88972 0.0
H758 H 0.10693 0.59869 0.85703 0.0
H759 H 0.19261 0.7215 0.85311 0.0
H760 H 0.24247 0.72168 0.84594 0.0
H761 H 0.2312 0.71746 0.86915 0.0
H762 H 0.27158 0.65462 0.87053 0.0
H763 H 0.28231 0.65819 0.84726 0.0
H764 H 0.25978 0.61521 0.85581 0.0
H765 H 0.12601 0.59788 0.82481 0.0
H766 H 0.15269 0.60904 0.79483 0.0
H767 H 0.24579 0.67747 0.81761 0.0
C768 C 0.19036 0.64687 0.88446 0.0
C769 C 0.15958 0.62811 0.89332 0.0
C770 C 0.12887 0.6118 0.88326 0.0
C771 C 0.12983 0.61224 0.86467 0.0
C772 C 0.16146 0.6294 0.85637 0.0
C773 C 0.19052 0.64756 0.86591 0.0
C774 C 0.22073 0.66486 0.8537 0.0
C775 C 0.2218 0.709 0.85559 0.0
C776 C 0.26097 0.64715 0.85703 0.0
C777 C 0.20464 0.65266 0.83584 0.0
C778 C 0.17079 0.63164 0.83769 0.0
C779 C 0.152 0.61504 0.82316 0.0
C780 C 0.16754 0.62118 0.80623 0.0
C781 C 0.20101 0.64431 0.804 0.0
C782 C 0.21989 0.66001 0.819 0.0
H783 H 0.61051 0.75125 0.13764 0.0
H784 H 0.70926 0.675 0.13137 0.0
H785 H 0.69127 0.66464 0.09989 0.0
H786 H 0.54621 0.69415 0.11302 0.0
H787 H 0.52002 0.73417 0.10369 0.0
H788 H 0.5435 0.73928 0.12489 0.0
H789 H 0.58166 0.79832 0.11332 0.0
H790 H 0.55883 0.79358 0.09192 0.0
H791 H 0.61099 0.7936 0.0937 0.0
H792 H 0.6612 0.66267 0.06889 0.0
H793 H 0.61948 0.66523 0.0421 0.0
H794 H 0.53789 0.73778 0.07038 0.0
C795 C 0.62914 0.73321 0.12959 0.0
C796 C 0.66185 0.71457 0.13691 0.0
C797 C 0.6845 0.69015 0.12596 0.0
C798 C 0.67446 0.68405 0.10809 0.0
C799 C 0.64148 0.70231 0.10145 0.0
C800 C 0.6191 0.72621 0.11194 0.0
C801 C 0.58327 0.73986 0.10224 0.0
C802 C 0.54607 0.72602 0.11152 0.0
C803 C 0.58371 0.78395 0.10017 0.0
C804 C 0.58874 0.71979 0.08462 0.0
C805 C 0.62277 0.69879 0.08425 0.0
C806 C 0.63435 0.67879 0.0691 0.0
C807 C 0.61044 0.68026 0.054 0.0
C808 C 0.57509 0.70097 0.0543 0.0
C809 C 0.56426 0.72089 0.06986 0.0
H810 H 0.43017 0.03283 0.3857 0.0
H811 H 0.55601 0.0278 0.38731 0.0
H812 H 0.55666 0.00602 0.35615 0.0
H813 H 0.41521 0.94915 0.35504 0.0
H814 H 0.37552 0.97269 0.3439 0.0
H815 H 0.3846 0.98222 0.36704 0.0
H816 H 0.38876 0.05532 0.36045 0.0
H817 H 0.38004 0.04605 0.33732 0.0
H818 H 0.42276 0.07233 0.34411 0.0
H819 H 0.54443 0.99437 0.32403 0.0
H820 H 0.52003 0.99053 0.29333 0.0
H821 H 0.40189 0.00143 0.31241 0.0
C822 C 0.45785 0.02609 0.37968 0.0
C823 C 0.49307 0.03186 0.38901 0.0
C824 C 0.52866 0.02337 0.38051 0.0
C825 C 0.52931 0.01096 0.3628 0.0
C826 C 0.49414 0.00679 0.35383 0.0
C827 C 0.45901 0.01365 0.36202 0.0
C828 C 0.42556 0.01009 0.34902 0.0
C829 C 0.39863 0.97653 0.35405 0.0
C830 C 0.40298 0.04821 0.34765 0.0
C831 C 0.44747 0.0014 0.33209 0.0
C832 C 0.48699 0.99939 0.33521 0.0
C833 C 0.51353 0.99507 0.32147 0.0
C834 C 0.4994 0.99312 0.30408 0.0
C835 C 0.45908 0.9953 0.30054 0.0
C836 C 0.43278 0.99879 0.31478 0.0
H837 H 0.05092 0.0306 0.63178 0.0
H838 H 0.16371 0.0105 0.65528 0.0
H839 H 0.19188 0.00181 0.62522 0.0
H840 H 0.05597 0.96137 0.59912 0.0
H841 H 0.03086 0.989 0.58249 0.0
H842 H 0.02172 0.99797 0.60556 0.0
H843 H 0.03981 0.06996 0.60138 0.0
H844 H 0.04834 0.06089 0.57821 0.0
H845 H 0.08583 0.08256 0.59169 0.0
H846 H 0.2041 0.98446 0.59299 0.0
H847 H 0.20166 0.96781 0.56105 0.0
H848 H 0.0814 0.00404 0.55896 0.0
C849 C 0.08178 0.02548 0.63051 0.0
C850 C 0.10543 0.02143 0.64561 0.0
C851 C 0.1455 0.01422 0.6437 0.0
C852 C 0.16155 0.00911 0.62674 0.0
C853 C 0.13707 0.01212 0.61202 0.0
C854 C 0.09817 0.02099 0.61378 0.0
C855 C 0.07742 0.02063 0.59612 0.0
C856 C 0.04459 0.99044 0.59581 0.0
C857 C 0.06198 0.06093 0.59156 0.0
C858 C 0.11042 0.00903 0.58411 0.0
C859 C 0.14458 0.00401 0.59349 0.0
C860 C 0.17784 0.9893 0.58545 0.0
C861 C 0.17612 0.97968 0.56737 0.0
C862 C 0.14153 0.98526 0.55757 0.0
C863 C 0.10851 1.00048 0.56605 0.0
H864 H 0.71106 0.59481 0.89302 0.0
H865 H 0.64628 0.50055 0.86914 0.0
H866 H 0.66143 0.45971 0.89512 0.0
H867 H 0.78657 0.53567 0.91429 0.0
H868 H 0.7884 0.56638 0.9336 0.0
H869 H 0.77627 0.58638 0.9123 0.0
H870 H 0.71354 0.61384 0.92549 0.0
H871 H 0.7238 0.59328 0.94675 0.0
H872 H 0.67871 0.58197 0.93572 0.0
H873 H 0.68269 0.43001 0.92421 0.0
H874 H 0.70012 0.41712 0.95553 0.0
H875 H 0.74648 0.53278 0.96053 0.0
C876 C 0.70051 0.56538 0.8931 0.0
C877 C 0.67783 0.55059 0.87902 0.0
C878 C 0.66379 0.51229 0.8798 0.0
C879 C 0.67253 0.48887 0.89441 0.0
C880 C 0.69514 0.50436 0.90806 0.0
C881 C 0.7086 0.5419 0.90757 0.0
C882 C 0.72954 0.55287 0.92449 0.0
C883 C 0.77276 0.56078 0.92095 0.0
C884 C 0.71016 0.58751 0.93365 0.0
C885 C 0.72421 0.51626 0.93493 0.0
C886 C 0.70557 0.48809 0.92504 0.0
C887 C 0.69736 0.45183 0.93203 0.0
C888 C 0.70748 0.4447 0.94974 0.0
C889 C 0.72448 0.47409 0.96023 0.0
C890 C 0.73349 0.50996 0.95267 0.0
H891 H 0.59633 0.22518 0.14789 0.0
H892 H 0.63212 0.10531 0.14572 0.0
H893 H 0.65868 0.11101 0.17597 0.0
H894 H 0.68013 0.26053 0.17515 0.0
H895 H 0.64996 0.29378 0.18727 0.0
H896 H 0.6385 0.2819 0.16457 0.0
H897 H 0.56941 0.26109 0.17407 0.0
H898 H 0.58068 0.27259 0.19676 0.0
H899 H 0.56378 0.22496 0.19098 0.0
H900 H 0.67184 0.12632 0.20754 0.0
H901 H 0.67503 0.15173 0.2381 0.0
H902 H 0.63392 0.26273 0.21983 0.0
C903 C 0.6106 0.20038 0.1536 0.0
C904 C 0.61217 0.16478 0.14442 0.0
C905 C 0.63072 0.13291 0.15245 0.0
C906 C 0.64593 0.13587 0.16963 0.0
C907 C 0.64288 0.17104 0.1785 0.0
C908 C 0.6262 0.20293 0.1707 0.0
C909 C 0.62423 0.23657 0.18358 0.0
C910 C 0.64974 0.27018 0.17726 0.0
C911 C 0.58202 0.24953 0.18652 0.0
C912 C 0.64098 0.21808 0.20005 0.0
C913 C 0.65172 0.18032 0.19675 0.0
C914 C 0.66443 0.15608 0.2102 0.0
C915 C 0.66592 0.17067 0.2275 0.0
C916 C 0.65513 0.20921 0.23117 0.0
C917 C 0.64318 0.23343 0.21723 0.0
H918 H 0.01741 0.0887 0.40078 0.0
H919 H 0.97011 0.18663 0.37241 0.0
H920 H 0.95109 0.2164 0.40087 0.0
H921 H 0.94317 0.08175 0.43169 0.0
H922 H 0.9736 0.06838 0.45011 0.0
H923 H 0.98824 0.0568 0.42785 0.0
H924 H 0.05324 0.09298 0.43255 0.0
H925 H 0.03915 0.10421 0.45496 0.0
H926 H 0.05279 0.14238 0.44008 0.0
H927 H 0.93199 0.2326 0.43186 0.0
H928 H 0.91676 0.23609 0.4637 0.0
H929 H 0.97529 0.12691 0.472 0.0
C930 C 0.00406 0.11692 0.40055 0.0
C931 C 0.99552 0.13555 0.38437 0.0
C932 C 0.97714 0.172 0.38465 0.0
C933 C 0.96618 0.18908 0.40074 0.0
C934 C 0.97381 0.16931 0.41639 0.0
C935 C 0.99263 0.1342 0.41646 0.0
C936 C 0.9951 0.11781 0.43501 0.0
C937 C 0.97375 0.07889 0.43622 0.0
C938 C 0.0376 0.11415 0.441 0.0
C939 C 0.97415 0.14895 0.44533 0.0
C940 C 0.96232 0.17845 0.43432 0.0
C941 C 0.94145 0.2099 0.44065 0.0
C942 C 0.93282 0.21151 0.45875 0.0
C943 C 0.94494 0.18182 0.47032 0.0
C944 C 0.96576 0.15008 0.46347 0.0
H945 H 0.07204 0.51293 0.654 0.0
H946 H 0.16088 0.42465 0.6512 0.0
H947 H 0.14685 0.40617 0.68209 0.0
H948 H 0.08659 0.54196 0.69876 0.0
H949 H 0.0357 0.54737 0.70366 0.0
H950 H 0.05287 0.55403 0.68137 0.0
H951 H 0.00444 0.50225 0.66999 0.0
H952 H 0.98687 0.49556 0.69223 0.0
H953 H 0.00474 0.45492 0.67975 0.0
H954 H 0.12795 0.40223 0.71419 0.0
H955 H 0.09726 0.40508 0.74379 0.0
H956 H 0.01544 0.48992 0.72456 0.0
C957 C 0.08863 0.48985 0.65994 0.0
C958 C 0.11793 0.47059 0.65036 0.0
C959 C 0.13837 0.43986 0.65837 0.0
C960 C 0.13067 0.42919 0.67589 0.0
C961 C 0.10207 0.4492 0.6851 0.0
C962 C 0.08071 0.47823 0.67728 0.0
C963 C 0.05016 0.49371 0.6898 0.0
C964 C 0.05675 0.53682 0.69362 0.0
C965 C 0.00912 0.48615 0.68251 0.0
C966 C 0.05831 0.46947 0.706 0.0
C967 C 0.08884 0.44446 0.70311 0.0
C968 C 0.10349 0.42109 0.71652 0.0
C969 C 0.08606 0.42298 0.73326 0.0
C970 C 0.0538 0.44723 0.73621 0.0
C971 C 0.0397 0.47065 0.72243 0.0
H972 H 0.50656 0.16852 0.37029 0.0
H973 H 0.57132 0.22063 0.41358 0.0
H974 H 0.60691 0.26115 0.39213 0.0
H975 H 0.58408 0.15927 0.34187 0.0
H976 H 0.55728 0.16932 0.32189 0.0
H977 H 0.53281 0.14909 0.34071 0.0
H978 H 0.48389 0.20575 0.34072 0.0
H979 H 0.50797 0.22602 0.32174 0.0
H980 H 0.50168 0.25464 0.34151 0.0
H981 H 0.63992 0.29137 0.36539 0.0
H982 H 0.66696 0.30812 0.33599 0.0
H983 H 0.58151 0.23396 0.31077 0.0
C984 C 0.52742 0.1892 0.37536 0.0
C985 C 0.5359 0.19162 0.39364 0.0
C986 C 0.56411 0.21848 0.39964 0.0
C987 C 0.58448 0.24161 0.38755 0.0
C988 C 0.57626 0.23754 0.36953 0.0
C989 C 0.54819 0.21211 0.3635 0.0
C990 C 0.547 0.21053 0.34348 0.0
C991 C 0.55583 0.16964 0.3366 0.0
C992 C 0.50781 0.22512 0.33645 0.0
C993 C 0.57944 0.23829 0.33914 0.0
C994 C 0.59569 0.25406 0.35428 0.0
C995 C 0.62711 0.27947 0.35345 0.0
C996 C 0.64232 0.28878 0.33672 0.0
C997 C 0.62635 0.27231 0.32113 0.0
C998 C 0.59434 0.24705 0.32245 0.0
H999 H 0.98612 0.13565 0.64531 0.0
H1000 H 0.97035 0.01179 0.64858 0.0
H1001 H 0.95057 0.01012 0.61711 0.0
H1002 H 0.90329 0.15226 0.61421 0.0
H1003 H 0.92899 0.19019 0.60293 0.0
H1004 H 0.93763 0.18185 0.62615 0.0
H1005 H 0.01108 0.17468 0.61978 0.0
H1006 H 0.00255 0.18238 0.59655 0.0
H1007 H 0.02715 0.1395 0.60379 0.0
H1008 H 0.94292 0.0208 0.58426 0.0
H1009 H 0.93666 0.04435 0.55355 0.0
H1010 H 0.95403 0.16173 0.57213 0.0
C1011 C 0.97752 0.10831 0.63953 0.0
C1012 C 0.97969 0.07386 0.64939 0.0
C1013 C 0.96842 0.03861 0.64135 0.0
C1014 C 0.95745 0.03734 0.62344 0.0
C1015 C 0.95727 0.07164 0.61388 0.0
C1016 C 0.966 0.10662 0.62177 0.0
C1017 C 0.96429 0.13924 0.60851 0.0
C1018 C 0.9316 0.16755 0.61323 0.0
C1019 C 0.0036 0.16013 0.60708 0.0
C1020 C 0.95488 0.11693 0.59177 0.0
C1021 C 0.95104 0.07798 0.59513 0.0
C1022 C 0.9449 0.05133 0.58154 0.0
C1023 C 0.94171 0.06497 0.56412 0.0
C1024 C 0.94442 0.10493 0.56045 0.0
C1025 C 0.95116 0.1311 0.57453 0.0
H1026 H 0.16466 0.49698 0.90317 0.0
H1027 H 0.06586 0.44626 0.93008 0.0
H1028 H 0.0416 0.421 0.9016 0.0
H1029 H 0.1158 0.5299 0.86756 0.0
H1030 H 0.1523 0.52012 0.85109 0.0
H1031 H 0.16633 0.52798 0.87378 0.0
H1032 H 0.2009 0.46161 0.87447 0.0
H1033 H 0.18764 0.45388 0.85162 0.0
H1034 H 0.17446 0.41882 0.86811 0.0
H1035 H 0.02127 0.41299 0.86992 0.0
H1036 H 0.01195 0.41336 0.83742 0.0
H1037 H 0.12502 0.46683 0.83116 0.0
C1038 C 0.13882 0.47917 0.90322 0.0
C1039 C 0.11714 0.47374 0.9189 0.0
C1040 C 0.08304 0.45084 0.91828 0.0
C1041 C 0.06892 0.43641 0.90213 0.0
C1042 C 0.08963 0.44442 0.88676 0.0
C1043 C 0.12446 0.46429 0.88721 0.0
C1044 C 0.13949 0.47155 0.86866 0.0
C1045 C 0.14377 0.51496 0.86507 0.0
C1046 C 0.1779 0.45017 0.86553 0.0
C1047 C 0.10688 0.45418 0.85776 0.0
C1048 C 0.0784 0.43864 0.86843 0.0
C1049 C 0.04383 0.42416 0.8614 0.0
C1050 C 0.03859 0.42491 0.84296 0.0
C1051 C 0.06786 0.43984 0.83177 0.0
C1052 C 0.10238 0.45462 0.83935 0.0
H1053 H 0.67752 0.54921 0.13396 0.0
H1054 H 0.58407 0.63036 0.1247 0.0
H1055 H 0.58796 0.61692 0.09254 0.0
H1056 H 0.7336 0.5773 0.09873 0.0
H1057 H 0.75153 0.52994 0.09327 0.0
H1058 H 0.73724 0.54091 0.11562 0.0
H1059 H 0.68892 0.48357 0.11539 0.0
H1060 H 0.70351 0.47187 0.0931 0.0
H1061 H 0.65304 0.48006 0.09804 0.0
H1062 H 0.60706 0.59918 0.06115 0.0
H1063 H 0.63984 0.57992 0.03339 0.0
H1064 H 0.72085 0.51058 0.06359 0.0
C1065 C 0.65706 0.56338 0.12525 0.0
C1066 C 0.63018 0.59049 0.13186 0.0
C1067 C 0.60441 0.60893 0.11997 0.0
C1068 C 0.60656 0.6016 0.10167 0.0
C1069 C 0.63444 0.57564 0.09557 0.0
C1070 C 0.65896 0.55656 0.10705 0.0
C1071 C 0.68857 0.53256 0.0972 0.0
C1072 C 0.73018 0.546 0.10146 0.0
C1073 C 0.68317 0.48946 0.10117 0.0
C1074 C 0.67757 0.54177 0.07831 0.0
C1075 C 0.6461 0.56639 0.0776 0.0
C1076 C 0.63186 0.58018 0.06156 0.0
C1077 C 0.6507 0.56911 0.04589 0.0
C1078 C 0.68294 0.54383 0.04636 0.0
C1079 C 0.69614 0.52974 0.0628 0.0
loop_
_geom_bond_atom_site_label_1
_geom_bond_atom_site_label_2
_geom_bond_distance
_geom_bond_site_symmetry_2
_ccdc_geom_bond_type
Mg0 O7 2.141 . S
Mg0 O8 2.048 1_545 S
Mg0 O9 2.048 1_455 S
Mg0 O12 2.141 1_455 S
C1 O2 1.313 . S
C1 O8 1.195 . S
O2 C1 1.313 . S
C3 O4 1.245 . S
C3 O12 1.289 . S
O4 C3 1.245 . S
C5 O6 1.245 . S
C5 O7 1.289 1_565 S
O6 C5 1.245 . S
O7 Mg0 2.141 . S
O7 C5 1.289 1_545 S
O8 Mg0 2.048 1_565 S
O8 C1 1.195 . S
O9 Mg0 2.048 1_655 S
O9 C10 1.195 . S
C10 O9 1.195 . S
C10 O11 1.308 1_545 S
O11 C10 1.308 1_565 S
O12 Mg0 2.141 1_655 S
O12 C3 1.289 . S
Mg13 O20 2.141 . S
Mg13 O21 2.048 . S
Mg13 O22 2.048 . S
Mg13 O25 2.141 . S
C14 O15 1.313 . S
C14 O21 1.195 . S
O15 C14 1.313 . S
C16 O17 1.245 . S
C16 O25 1.289 . S
O17 C16 1.245 . S
C18 O19 1.245 . S
C18 O20 1.289 . S
O19 C18 1.245 . S
O20 Mg13 2.141 . S
O20 C18 1.289 . S
O21 Mg13 2.048 . S
O21 C14 1.195 . S
O22 Mg13 2.048 . S
O22 C23 1.195 . S
C23 O22 1.195 . S
C23 O24 1.313 . S
O24 C23 1.313 . S
O25 Mg13 2.141 . S
O25 C16 1.289 . S
Mg26 O33 2.141 . S
Mg26 O34 2.048 . S
Mg26 O35 2.048 . S
Mg26 O38 2.141 . S
C27 O28 1.313 . S
C27 O34 1.195 . S
O28 C27 1.313 . S
C29 O30 1.245 . S
C29 O38 1.289 . S
O30 C29 1.245 . S
C31 O32 1.245 . S
C31 O33 1.289 . S
O32 C31 1.245 . S
O33 Mg26 2.141 . S
O33 C31 1.289 . S
O34 Mg26 2.048 . S
O34 C27 1.195 . S
O35 Mg26 2.048 . S
O35 C36 1.195 . S
C36 O35 1.195 . S
C36 O37 1.313 . S
O37 C36 1.313 . S
O38 Mg26 2.141 . S
O38 C29 1.289 . S
Mg39 O46 2.141 . S
Mg39 O47 2.048 . S
Mg39 O48 2.048 . S
Mg39 O51 2.141 . S
C40 O41 1.313 . S
C40 O47 1.195 . S
O41 C40 1.313 . S
C42 O43 1.245 . S
C42 O51 1.289 . S
O43 C42 1.245 . S
C44 O45 1.245 . S
C44 O46 1.289 . S
O45 C44 1.245 . S
O46 Mg39 2.141 . S
O46 C44 1.289 . S
O47 Mg39 2.048 . S
O47 C40 1.195 . S
O48 Mg39 2.048 . S
O48 C49 1.195 . S
C49 O48 1.195 . S
C49 O50 1.313 . S
O50 C49 1.313 . S
O51 Mg39 2.141 . S
O51 C42 1.289 . S
Mg52 O59 2.141 . S
Mg52 O60 2.048 . S
Mg52 O61 2.048 . S
Mg52 O64 2.141 . S
C53 O54 1.313 . S
C53 O60 1.195 . S
O54 C53 1.313 . S
C55 O56 1.245 . S
C55 O64 1.289 . S
O56 C55 1.245 . S
C57 O58 1.245 . S
C57 O59 1.289 . S
O58 C57 1.245 . S
O59 Mg52 2.141 . S
O59 C57 1.289 . S
O60 Mg52 2.048 . S
O60 C53 1.195 . S
O61 Mg52 2.048 . S
O61 C62 1.195 . S
C62 O61 1.195 . S
C62 O63 1.313 . S
O63 C62 1.313 . S
O64 Mg52 2.141 . S
O64 C55 1.289 . S
Mg65 O72 2.141 . S
Mg65 O73 2.048 . S
Mg65 O74 2.048 . S
Mg65 O77 2.141 . S
C66 O67 1.313 . S
C66 O73 1.195 . S
O67 C66 1.313 . S
C68 O69 1.245 . S
C68 O77 1.289 . S
O69 C68 1.245 . S
C70 O71 1.245 . S
C70 O72 1.289 . S
O71 C70 1.245 . S
O72 Mg65 2.141 . S
O72 C70 1.289 . S
O73 Mg65 2.048 . S
O73 C66 1.195 . S
O74 Mg65 2.048 . S
O74 C75 1.195 . S
C75 O74 1.195 . S
C75 O76 1.313 . S
O76 C75 1.313 . S
O77 Mg65 2.141 . S
O77 C68 1.289 . S
Mg78 O85 2.141 . S
Mg78 O86 2.048 . S
Mg78 O87 2.048 . S
Mg78 O90 2.141 . S
C79 O80 1.313 . S
C79 O86 1.195 . S
O80 C79 1.313 . S
C81 O82 1.245 . S
C81 O90 1.289 . S
O82 C81 1.245 . S
C83 O84 1.245 . S
C83 O85 1.289 . S
O84 C83 1.245 . S
O85 Mg78 2.141 . S
O85 C83 1.289 . S
O86 Mg78 2.048 . S
O86 C79 1.195 . S
O87 Mg78 2.048 . S
O87 C88 1.195 . S
C88 O87 1.195 . S
C88 O89 1.313 . S
O89 C88 1.313 . S
O90 Mg78 2.141 . S
O90 C81 1.289 . S
Mg91 O98 2.141 . S
Mg91 O99 2.048 . S
Mg91 O100 2.048 1_465 S
Mg91 O103 2.141 1_465 S
C92 O93 1.313 . S
C92 O99 1.195 . S
O93 C92 1.313 . S
C94 O95 1.245 1_655 S
C94 O103 1.289 . S
O95 C94 1.245 1_455 S
C96 O97 1.245 . S
C96 O98 1.289 . S
O97 C96 1.245 . S
O98 Mg91 2.141 . S
O98 C96 1.289 . S
O99 Mg91 2.048 . S
O99 C92 1.195 . S
O100 Mg91 2.048 1_645 S
O100 C101 1.195 . S
C101 O100 1.195 . S
C101 O102 1.313 1_655 S
O102 C101 1.313 1_455 S
O103 Mg91 2.141 1_645 S
O103 C94 1.289 . S
Co104 O105 2.216 . S
Co104 O106 2.091 . S
Co104 O108 2.004 . S
Co104 O114 2.021 1_554 S
Co104 O116 2.137 . S
Co104 O117 2.244 . S
O105 Co104 2.216 . S
O105 C112 1.246 . S
O106 Co104 2.091 . S
O106 C112 1.260 . S
C107 O116 1.247 . S
C107 O117 1.272 . S
O108 Co104 2.004 . S
O108 C113 1.259 . S
Co109 O110 2.061 . S
Co109 O115 2.052 1_554 S
Co109 O117 2.135 . S
O110 Co109 2.061 . S
O110 C113 1.235 . S
C111 O114 1.238 . S
C111 O115 1.241 . S
C112 O105 1.246 . S
C112 O106 1.260 . S
C113 O108 1.259 . S
C113 O110 1.235 . S
O114 Co104 2.021 1_556 S
O114 C111 1.238 . S
O115 Co109 2.052 1_556 S
O115 C111 1.241 . S
O116 Co104 2.137 . S
O116 C107 1.247 . S
O117 Co104 2.244 . S
O117 C107 1.272 . S
O117 Co109 2.135 . S
Co118 O119 2.216 . S
Co118 O120 2.091 . S
Co118 O122 2.004 . S
Co118 O128 2.021 . S
Co118 O130 2.137 . S
Co118 O131 2.244 . S
O119 Co118 2.216 . S
O119 C126 1.247 . S
O120 Co118 2.091 . S
O120 C126 1.261 . S
C121 O130 1.247 . S
C121 O131 1.272 . S
O122 Co118 2.004 . S
O122 C127 1.259 . S
Co123 O124 2.061 . S
Co123 O129 2.052 . S
Co123 O131 2.135 . S
O124 Co123 2.061 . S
O124 C127 1.235 . S
C125 O128 1.238 . S
C125 O129 1.241 . S
C126 O119 1.247 . S
C126 O120 1.261 . S
C127 O122 1.259 . S
C127 O124 1.235 . S
O128 Co118 2.021 . S
O128 C125 1.238 . S
O129 Co123 2.052 . S
O129 C125 1.241 . S
O130 Co118 2.137 . S
O130 C121 1.247 . S
O131 Co118 2.244 . S
O131 C121 1.272 . S
O131 Co123 2.135 . S
Co132 O133 2.216 . S
Co132 O134 2.091 . S
Co132 O136 2.004 . S
Co132 O142 2.021 . S
Co132 O144 2.137 . S
Co132 O145 2.244 . S
O133 Co132 2.216 . S
O133 C140 1.247 . S
O134 Co132 2.091 . S
O134 C140 1.261 . S
C135 O144 1.247 . S
C135 O145 1.272 . S
O136 Co132 2.004 . S
O136 C141 1.259 . S
Co137 O138 2.061 . S
Co137 O143 2.052 . S
Co137 O145 2.135 . S
O138 Co137 2.061 . S
O138 C141 1.235 . S
C139 O142 1.238 . S
C139 O143 1.241 . S
C140 O133 1.247 . S
C140 O134 1.261 . S
C141 O136 1.259 . S
C141 O138 1.235 . S
O142 Co132 2.021 . S
O142 C139 1.238 . S
O143 Co137 2.052 . S
O143 C139 1.241 . S
O144 Co132 2.137 . S
O144 C135 1.247 . S
O145 Co132 2.244 . S
O145 C135 1.272 . S
O145 Co137 2.135 . S
Co146 O147 2.216 . S
Co146 O148 2.091 . S
Co146 O150 2.004 . S
Co146 O156 2.021 . S
Co146 O158 2.137 . S
Co146 O159 2.244 . S
O147 Co146 2.216 . S
O147 C154 1.247 . S
O148 Co146 2.091 . S
O148 C154 1.261 . S
C149 O158 1.247 . S
C149 O159 1.272 . S
O150 Co146 2.004 . S
O150 C155 1.259 . S
Co151 O152 2.061 . S
Co151 O157 2.052 . S
Co151 O159 2.135 . S
O152 Co151 2.061 . S
O152 C155 1.235 . S
C153 O156 1.238 . S
C153 O157 1.241 . S
C154 O147 1.247 . S
C154 O148 1.261 . S
C155 O150 1.259 . S
C155 O152 1.235 . S
O156 Co146 2.021 . S
O156 C153 1.238 . S
O157 Co151 2.052 . S
O157 C153 1.241 . S
O158 Co146 2.137 . S
O158 C149 1.247 . S
O159 Co146 2.244 . S
O159 C149 1.272 . S
O159 Co151 2.135 . S
Co160 O161 2.216 . S
Co160 O162 2.091 . S
Co160 O164 2.004 . S
Co160 O170 2.021 . S
Co160 O172 2.137 . S
Co160 O173 2.244 . S
O161 Co160 2.216 . S
O161 C168 1.247 . S
O162 Co160 2.091 . S
O162 C168 1.261 . S
C163 O172 1.247 . S
C163 O173 1.272 . S
O164 Co160 2.004 . S
O164 C169 1.259 . S
Co165 O166 2.061 . S
Co165 O171 2.052 . S
Co165 O173 2.135 . S
O166 Co165 2.061 . S
O166 C169 1.235 . S
C167 O170 1.238 . S
C167 O171 1.241 . S
C168 O161 1.247 . S
C168 O162 1.261 . S
C169 O164 1.259 . S
C169 O166 1.235 . S
O170 Co160 2.021 . S
O170 C167 1.238 . S
O171 Co165 2.052 . S
O171 C167 1.241 . S
O172 Co160 2.137 . S
O172 C163 1.247 . S
O173 Co160 2.244 . S
O173 C163 1.272 . S
O173 Co165 2.135 . S
Co174 O175 2.216 . S
Co174 O176 2.091 . S
Co174 O178 2.004 . S
Co174 O184 2.021 . S
Co174 O186 2.137 . S
Co174 O187 2.244 . S
O175 Co174 2.216 . S
O175 C182 1.247 . S
O176 Co174 2.091 . S
O176 C182 1.261 . S
C177 O186 1.247 . S
C177 O187 1.272 . S
O178 Co174 2.004 . S
O178 C183 1.259 . S
Co179 O180 2.061 1_455 S
Co179 O185 2.052 . S
Co179 O187 2.135 1_455 S
O180 Co179 2.061 1_655 S
O180 C183 1.235 . S
C181 O184 1.238 . S
C181 O185 1.241 1_655 S
C182 O175 1.247 . S
C182 O176 1.261 . S
C183 O178 1.259 . S
C183 O180 1.235 . S
O184 Co174 2.021 . S
O184 C181 1.238 . S
O185 Co179 2.052 . S
O185 C181 1.241 1_455 S
O186 Co174 2.137 . S
O186 C177 1.247 . S
O187 Co174 2.244 . S
O187 C177 1.272 . S
O187 Co179 2.135 1_655 S
Co188 O189 2.216 . S
Co188 O190 2.091 . S
Co188 O192 2.004 . S
Co188 O198 2.021 . S
Co188 O200 2.137 1_554 S
Co188 O201 2.244 . S
O189 Co188 2.216 . S
O189 C196 1.247 . S
O190 Co188 2.091 . S
O190 C196 1.261 . S
C191 O200 1.247 . S
C191 O201 1.272 1_556 S
O192 Co188 2.004 . S
O192 C197 1.259 . S
Co193 O194 2.061 . S
Co193 O199 2.052 . S
Co193 O201 2.135 . S
O194 Co193 2.061 . S
O194 C197 1.235 . S
C195 O198 1.238 . S
C195 O199 1.241 . S
C196 O189 1.247 . S
C196 O190 1.261 . S
C197 O192 1.259 . S
C197 O194 1.235 . S
O198 Co188 2.021 . S
O198 C195 1.238 . S
O199 Co193 2.052 . S
O199 C195 1.241 . S
O200 Co188 2.137 1_556 S
O200 C191 1.247 . S
O201 Co188 2.244 . S
O201 C191 1.272 1_554 S
O201 Co193 2.135 . S
Co202 O203 2.216 . S
Co202 O204 2.091 . S
Co202 O206 2.004 . S
Co202 O212 2.021 . S
Co202 O214 2.137 . S
Co202 O215 2.244 . S
O203 Co202 2.216 . S
O203 C210 1.247 . S
O204 Co202 2.091 . S
O204 C210 1.261 . S
C205 O214 1.247 . S
C205 O215 1.272 . S
O206 Co202 2.004 . S
O206 C211 1.259 . S
Co207 O208 2.061 . S
Co207 O213 2.052 . S
Co207 O215 2.135 . S
O208 Co207 2.061 . S
O208 C211 1.235 . S
C209 O212 1.238 . S
C209 O213 1.241 . S
C210 O203 1.247 . S
C210 O204 1.261 . S
C211 O206 1.259 . S
C211 O208 1.235 . S
O212 Co202 2.021 . S
O212 C209 1.238 . S
O213 Co207 2.052 . S
O213 C209 1.241 . S
O214 Co202 2.137 . S
O214 C205 1.247 . S
O215 Co202 2.244 . S
O215 C205 1.272 . S
O215 Co207 2.135 . S
H216 C228 0.930 1_545 S
H217 C230 0.930 . S
H218 C231 0.930 . S
H219 C235 0.948 1_565 S
H220 C235 0.959 . S
H221 C235 0.961 . S
H222 C236 0.960 . S
H223 C236 0.961 . S
H224 C236 0.959 . S
H225 C239 0.929 . S
H226 C240 0.931 . S
H227 C242 0.939 . S
C228 H216 0.930 1_565 S
C228 C229 1.399 . S
C228 C233 1.399 . S
C229 C228 1.399 . S
C229 C230 1.376 . S
C230 H217 0.930 . S
C230 C229 1.376 . S
C230 C231 1.388 . S
C231 H218 0.930 . S
C231 C230 1.388 . S
C231 C232 1.390 . S
C232 C231 1.390 . S
C232 C233 1.394 . S
C232 C238 1.465 . S
C233 C228 1.399 . S
C233 C232 1.394 . S
C233 C234 1.516 1_565 S
C234 C233 1.516 1_545 S
C234 C235 1.502 . S
C234 C236 1.561 . S
C234 C237 1.526 1_545 S
C235 H219 0.948 1_545 S
C235 H220 0.959 . S
C235 H221 0.961 . S
C235 C234 1.502 . S
C236 H222 0.960 . S
C236 H223 0.961 . S
C236 H224 0.959 . S
C236 C234 1.561 . S
C237 C234 1.526 1_565 S
C237 C238 1.396 . S
C237 C242 1.390 . S
C238 C232 1.465 . S
C238 C237 1.396 . S
C238 C239 1.399 . S
C239 H225 0.929 . S
C239 C238 1.399 . S
C239 C240 1.385 . S
C240 H226 0.931 . S
C240 C239 1.385 . S
C240 C241 1.389 . S
C241 C240 1.389 . S
C241 C242 1.387 . S
C242 H227 0.939 . S
C242 C237 1.390 . S
C242 C241 1.387 . S
H243 C255 0.930 . S
H244 C257 0.930 . S
H245 C258 0.930 . S
H246 C262 0.959 . S
H247 C262 0.959 . S
H248 C262 0.961 . S
H249 C263 0.960 . S
H250 C263 0.961 . S
H251 C263 0.959 . S
H252 C266 0.929 . S
H253 C267 0.931 . S
H254 C269 0.930 . S
C255 H243 0.930 . S
C255 C256 1.399 . S
C255 C260 1.399 . S
C256 C255 1.399 . S
C256 C257 1.376 . S
C257 H244 0.930 . S
C257 C256 1.376 . S
C257 C258 1.388 . S
C258 H245 0.930 . S
C258 C257 1.388 . S
C258 C259 1.390 . S
C259 C258 1.390 . S
C259 C260 1.394 . S
C259 C265 1.465 . S
C260 C255 1.399 . S
C260 C259 1.394 . S
C260 C261 1.516 . S
C261 C260 1.516 . S
C261 C262 1.502 . S
C261 C263 1.561 . S
C261 C264 1.526 . S
C262 H246 0.959 . S
C262 H247 0.959 . S
C262 H248 0.961 . S
C262 C261 1.502 . S
C263 H249 0.960 . S
C263 H250 0.961 . S
C263 H251 0.959 . S
C263 C261 1.561 . S
C264 C261 1.526 . S
C264 C265 1.396 . S
C264 C269 1.390 . S
C265 C259 1.465 . S
C265 C264 1.396 . S
C265 C266 1.399 . S
C266 H252 0.929 . S
C266 C265 1.399 . S
C266 C267 1.385 . S
C267 H253 0.931 . S
C267 C266 1.385 . S
C267 C268 1.389 . S
C268 C267 1.389 . S
C268 C269 1.387 . S
C269 H254 0.930 . S
C269 C264 1.390 . S
C269 C268 1.387 . S
H270 C282 0.930 . S
H271 C284 0.930 . S
H272 C285 0.930 . S
H273 C289 0.959 . S
H274 C289 0.959 . S
H275 C289 0.961 . S
H276 C290 0.960 . S
H277 C290 0.961 . S
H278 C290 0.959 . S
H279 C293 0.929 . S
H280 C294 0.931 . S
H281 C296 0.930 . S
C282 H270 0.930 . S
C282 C283 1.399 . S
C282 C287 1.399 . S
C283 C282 1.399 . S
C283 C284 1.376 . S
C284 H271 0.930 . S
C284 C283 1.376 . S
C284 C285 1.388 . S
C285 H272 0.930 . S
C285 C284 1.388 . S
C285 C286 1.390 . S
C286 C285 1.390 . S
C286 C287 1.394 . S
C286 C292 1.465 . S
C287 C282 1.399 . S
C287 C286 1.394 . S
C287 C288 1.516 . S
C288 C287 1.516 . S
C288 C289 1.502 . S
C288 C290 1.561 . S
C288 C291 1.526 . S
C289 H273 0.959 . S
C289 H274 0.959 . S
C289 H275 0.961 . S
C289 C288 1.502 . S
C290 H276 0.960 . S
C290 H277 0.961 . S
C290 H278 0.959 . S
C290 C288 1.561 . S
C291 C288 1.526 . S
C291 C292 1.396 . S
C291 C296 1.390 . S
C292 C286 1.465 . S
C292 C291 1.396 . S
C292 C293 1.399 . S
C293 H279 0.929 . S
C293 C292 1.399 . S
C293 C294 1.385 . S
C294 H280 0.931 . S
C294 C293 1.385 . S
C294 C295 1.389 . S
C295 C294 1.389 . S
C295 C296 1.387 . S
C296 H281 0.930 . S
C296 C291 1.390 . S
C296 C295 1.387 . S
H297 C309 0.930 . S
H298 C311 0.930 . S
H299 C312 0.930 . S
H300 C316 0.959 1_565 S
H301 C316 0.959 1_565 S
H302 C316 0.961 . S
H303 C317 0.960 . S
H304 C317 0.961 . S
H305 C317 0.959 . S
H306 C320 0.929 . S
H307 C321 0.931 . S
H308 C323 0.930 . S
C309 H297 0.930 . S
C309 C310 1.399 . S
C309 C314 1.399 . S
C310 C309 1.399 . S
C310 C311 1.376 . S
C311 H298 0.930 . S
C311 C310 1.376 . S
C311 C312 1.388 . S
C312 H299 0.930 . S
C312 C311 1.388 . S
C312 C313 1.390 . S
C313 C312 1.390 . S
C313 C314 1.394 . S
C313 C319 1.465 1_545 S
C314 C309 1.399 . S
C314 C313 1.394 . S
C314 C315 1.516 . S
C315 C314 1.516 . S
C315 C316 1.502 . S
C315 C317 1.561 . S
C315 C318 1.526 1_545 S
C316 H300 0.959 1_545 S
C316 H301 0.959 1_545 S
C316 H302 0.961 . S
C316 C315 1.502 . S
C317 H303 0.960 . S
C317 H304 0.961 . S
C317 H305 0.959 . S
C317 C315 1.561 . S
C318 C315 1.526 1_565 S
C318 C319 1.396 . S
C318 C323 1.390 . S
C319 C313 1.465 1_565 S
C319 C318 1.396 . S
C319 C320 1.399 . S
C320 H306 0.929 . S
C320 C319 1.399 . S
C320 C321 1.385 . S
C321 H307 0.931 . S
C321 C320 1.385 . S
C321 C322 1.389 . S
C322 C321 1.389 . S
C322 C323 1.387 . S
C323 H308 0.930 . S
C323 C318 1.390 . S
C323 C322 1.387 . S
H324 C336 0.930 . S
H325 C338 0.930 . S
H326 C339 0.930 . S
H327 C343 0.959 . S
H328 C343 0.959 . S
H329 C343 0.961 . S
H330 C344 0.960 . S
H331 C344 0.961 1_554 S
H332 C344 0.959 . S
H333 C347 0.929 . S
H334 C348 0.931 . S
H335 C350 0.886 1_554 S
C336 H324 0.930 . S
C336 C337 1.399 . S
C336 C341 1.399 . S
C337 C336 1.399 . S
C337 C338 1.376 . S
C338 H325 0.930 . S
C338 C337 1.376 . S
C338 C339 1.388 . S
C339 H326 0.930 . S
C339 C338 1.388 . S
C339 C340 1.390 . S
C340 C339 1.390 . S
C340 C341 1.394 . S
C340 C346 1.465 . S
C341 C336 1.399 . S
C341 C340 1.394 . S
C341 C342 1.516 . S
C342 C341 1.516 . S
C342 C343 1.502 1_556 S
C342 C344 1.561 . S
C342 C345 1.526 . S
C343 H327 0.959 . S
C343 H328 0.959 . S
C343 H329 0.961 . S
C343 C342 1.502 1_554 S
C344 H330 0.960 . S
C344 H331 0.961 1_556 S
C344 H332 0.959 . S
C344 C342 1.561 . S
C345 C342 1.526 . S
C345 C346 1.396 . S
C345 C350 1.415 . S
C346 C340 1.465 . S
C346 C345 1.396 . S
C346 C347 1.399 . S
C347 H333 0.929 . S
C347 C346 1.399 . S
C347 C348 1.385 . S
C348 H334 0.931 . S
C348 C347 1.385 . S
C348 C349 1.389 . S
C349 C348 1.389 . S
C349 C350 1.406 . S
C350 H335 0.886 1_556 S
C350 C345 1.415 . S
C350 C349 1.406 . S
H351 C363 0.930 . S
H352 C365 0.930 . S
H353 C366 0.930 . S
H354 C370 0.959 . S
H355 C370 0.959 . S
H356 C370 0.961 . S
H357 C371 0.960 . S
H358 C371 0.961 . S
H359 C371 0.959 . S
H360 C374 0.929 . S
H361 C375 0.931 . S
H362 C377 0.930 . S
C363 H351 0.930 . S
C363 C364 1.399 . S
C363 C368 1.399 . S
C364 C363 1.399 . S
C364 C365 1.376 . S
C365 H352 0.930 . S
C365 C364 1.376 . S
C365 C366 1.388 . S
C366 H353 0.930 . S
C366 C365 1.388 . S
C366 C367 1.390 . S
C367 C366 1.390 . S
C367 C368 1.394 . S
C367 C373 1.465 . S
C368 C363 1.399 . S
C368 C367 1.394 . S
C368 C369 1.516 . S
C369 C368 1.516 . S
C369 C370 1.502 . S
C369 C371 1.561 . S
C369 C372 1.526 . S
C370 H354 0.959 . S
C370 H355 0.959 . S
C370 H356 0.961 . S
C370 C369 1.502 . S
C371 H357 0.960 . S
C371 H358 0.961 . S
C371 H359 0.959 . S
C371 C369 1.561 . S
C372 C369 1.526 . S
C372 C373 1.396 . S
C372 C377 1.390 . S
C373 C367 1.465 . S
C373 C372 1.396 . S
C373 C374 1.399 . S
C374 H360 0.929 . S
C374 C373 1.399 . S
C374 C375 1.385 . S
C375 H361 0.931 . S
C375 C374 1.385 . S
C375 C376 1.389 . S
C376 C375 1.389 . S
C376 C377 1.387 . S
C377 H362 0.930 . S
C377 C372 1.390 . S
C377 C376 1.387 . S
H378 C390 0.930 . S
H379 C392 0.930 . S
H380 C393 0.930 . S
H381 C397 0.959 . S
H382 C397 0.959 . S
H383 C397 0.961 . S
H384 C398 0.960 . S
H385 C398 0.961 . S
H386 C398 0.959 . S
H387 C401 0.929 . S
H388 C402 0.931 . S
H389 C404 0.930 . S
C390 H378 0.930 . S
C390 C391 1.399 . S
C390 C395 1.399 . S
C391 C390 1.399 . S
C391 C392 1.376 . S
C392 H379 0.930 . S
C392 C391 1.376 . S
C392 C393 1.388 . S
C393 H380 0.930 . S
C393 C392 1.388 . S
C393 C394 1.390 . S
C394 C393 1.390 . S
C394 C395 1.394 . S
C394 C400 1.465 1_545 S
C395 C390 1.399 . S
C395 C394 1.394 . S
C395 C396 1.514 1_545 S
C396 C395 1.514 1_565 S
C396 C397 1.504 . S
C396 C398 1.559 1_565 S
C396 C399 1.528 . S
C397 H381 0.959 . S
C397 H382 0.959 . S
C397 H383 0.961 . S
C397 C396 1.504 . S
C398 H384 0.960 . S
C398 H385 0.961 . S
C398 H386 0.959 . S
C398 C396 1.559 1_545 S
C399 C396 1.528 . S
C399 C400 1.396 . S
C399 C404 1.390 . S
C400 C394 1.465 1_565 S
C400 C399 1.396 . S
C400 C401 1.399 . S
C401 H387 0.929 . S
C401 C400 1.399 . S
C401 C402 1.385 . S
C402 H388 0.931 . S
C402 C401 1.385 . S
C402 C403 1.389 . S
C403 C402 1.389 . S
C403 C404 1.387 . S
C404 H389 0.930 . S
C404 C399 1.390 . S
C404 C403 1.387 . S
H405 C417 0.930 . S
H406 C419 0.930 . S
H407 C420 0.930 . S
H408 C424 0.959 . S
H409 C424 0.959 . S
H410 C424 0.961 . S
H411 C425 0.960 . S
H412 C425 0.961 . S
H413 C425 0.959 . S
H414 C428 0.929 . S
H415 C429 0.931 . S
H416 C431 0.930 . S
C417 H405 0.930 . S
C417 C418 1.399 . S
C417 C422 1.399 . S
C418 C417 1.399 . S
C418 C419 1.376 . S
C419 H406 0.930 . S
C419 C418 1.376 . S
C419 C420 1.388 . S
C420 H407 0.930 . S
C420 C419 1.388 . S
C420 C421 1.390 . S
C421 C420 1.390 . S
C421 C422 1.394 . S
C421 C427 1.465 . S
C422 C417 1.399 . S
C422 C421 1.394 . S
C422 C423 1.516 . S
C423 C422 1.516 . S
C423 C424 1.502 . S
C423 C425 1.561 . S
C423 C426 1.526 . S
C424 H408 0.959 . S
C424 H409 0.959 . S
C424 H410 0.961 . S
C424 C423 1.502 . S
C425 H411 0.960 . S
C425 H412 0.961 . S
C425 H413 0.959 . S
C425 C423 1.561 . S
C426 C423 1.526 . S
C426 C427 1.396 . S
C426 C431 1.390 . S
C427 C421 1.465 . S
C427 C426 1.396 . S
C427 C428 1.399 . S
C428 H414 0.929 . S
C428 C427 1.399 . S
C428 C429 1.385 . S
C429 H415 0.931 . S
C429 C428 1.385 . S
C429 C430 1.389 . S
C430 C429 1.389 . S
C430 C431 1.387 . S
C431 H416 0.930 . S
C431 C426 1.390 . S
C431 C430 1.387 . S
H432 C444 0.930 . S
H433 C446 0.930 . S
H434 C447 0.930 . S
H435 C451 0.959 . S
H436 C451 0.959 . S
H437 C451 0.961 . S
H438 C452 0.960 . S
H439 C452 0.961 . S
H440 C452 0.959 . S
H441 C455 0.929 . S
H442 C456 0.931 . S
H443 C458 0.930 . S
C444 H432 0.930 . S
C444 C445 1.399 . S
C444 C449 1.399 . S
C445 C444 1.399 . S
C445 C446 1.376 . S
C446 H433 0.930 . S
C446 C445 1.376 . S
C446 C447 1.388 . S
C447 H434 0.930 . S
C447 C446 1.388 . S
C447 C448 1.390 . S
C448 C447 1.390 . S
C448 C449 1.394 . S
C448 C454 1.465 . S
C449 C444 1.399 . S
C449 C448 1.394 . S
C449 C450 1.516 . S
C450 C449 1.516 . S
C450 C451 1.502 . S
C450 C452 1.561 . S
C450 C453 1.526 . S
C451 H435 0.959 . S
C451 H436 0.959 . S
C451 H437 0.961 . S
C451 C450 1.502 . S
C452 H438 0.960 . S
C452 H439 0.961 . S
C452 H440 0.959 . S
C452 C450 1.561 . S
C453 C450 1.526 . S
C453 C454 1.396 . S
C453 C458 1.390 . S
C454 C448 1.465 . S
C454 C453 1.396 . S
C454 C455 1.399 . S
C455 H441 0.929 . S
C455 C454 1.399 . S
C455 C456 1.385 . S
C456 H442 0.931 . S
C456 C455 1.385 . S
C456 C457 1.389 . S
C457 C456 1.389 . S
C457 C458 1.387 . S
C458 H443 0.930 . S
C458 C453 1.390 . S
C458 C457 1.387 . S
H459 C471 0.930 . S
H460 C473 0.930 . S
H461 C474 0.930 . S
H462 C478 0.959 . S
H463 C478 0.959 . S
H464 C478 0.961 . S
H465 C479 0.960 . S
H466 C479 0.961 . S
H467 C479 0.959 . S
H468 C482 0.929 . S
H469 C483 0.931 . S
H470 C485 0.930 . S
C471 H459 0.930 . S
C471 C472 1.399 . S
C471 C476 1.399 . S
C472 C471 1.399 . S
C472 C473 1.376 . S
C473 H460 0.930 . S
C473 C472 1.376 . S
C473 C474 1.388 . S
C474 H461 0.930 . S
C474 C473 1.388 . S
C474 C475 1.390 . S
C475 C474 1.390 . S
C475 C476 1.394 . S
C475 C481 1.465 . S
C476 C471 1.399 . S
C476 C475 1.394 . S
C476 C477 1.516 . S
C477 C476 1.516 . S
C477 C478 1.502 . S
C477 C479 1.561 . S
C477 C480 1.526 . S
C478 H462 0.959 . S
C478 H463 0.959 . S
C478 H464 0.961 . S
C478 C477 1.502 . S
C479 H465 0.960 . S
C479 H466 0.961 . S
C479 H467 0.959 . S
C479 C477 1.561 . S
C480 C477 1.526 . S
C480 C481 1.396 . S
C480 C485 1.390 . S
C481 C475 1.465 . S
C481 C480 1.396 . S
C481 C482 1.399 . S
C482 H468 0.929 . S
C482 C481 1.399 . S
C482 C483 1.385 . S
C483 H469 0.931 . S
C483 C482 1.385 . S
C483 C484 1.389 . S
C484 C483 1.389 . S
C484 C485 1.387 . S
C485 H470 0.930 . S
C485 C480 1.390 . S
C485 C484 1.387 . S
H486 C498 0.930 . S
H487 C500 0.930 . S
H488 C501 0.930 . S
H489 C505 0.959 . S
H490 C505 0.959 . S
H491 C505 0.961 . S
H492 C506 0.960 . S
H493 C506 0.961 . S
H494 C506 0.959 . S
H495 C509 0.929 . S
H496 C510 0.931 . S
H497 C512 0.930 . S
C498 H486 0.930 . S
C498 C499 1.399 . S
C498 C503 1.399 . S
C499 C498 1.399 . S
C499 C500 1.376 . S
C500 H487 0.930 . S
C500 C499 1.376 . S
C500 C501 1.388 . S
C501 H488 0.930 . S
C501 C500 1.388 . S
C501 C502 1.390 . S
C502 C501 1.390 . S
C502 C503 1.394 . S
C502 C508 1.465 . S
C503 C498 1.399 . S
C503 C502 1.394 . S
C503 C504 1.516 . S
C504 C503 1.516 . S
C504 C505 1.502 . S
C504 C506 1.561 . S
C504 C507 1.526 . S
C505 H489 0.959 . S
C505 H490 0.959 . S
C505 H491 0.961 . S
C505 C504 1.502 . S
C506 H492 0.960 . S
C506 H493 0.961 . S
C506 H494 0.959 . S
C506 C504 1.561 . S
C507 C504 1.526 . S
C507 C508 1.396 . S
C507 C512 1.390 . S
C508 C502 1.465 . S
C508 C507 1.396 . S
C508 C509 1.399 . S
C509 H495 0.929 . S
C509 C508 1.399 . S
C509 C510 1.385 . S
C510 H496 0.931 . S
C510 C509 1.385 . S
C510 C511 1.389 . S
C511 C510 1.389 . S
C511 C512 1.387 . S
C512 H497 0.930 . S
C512 C507 1.390 . S
C512 C511 1.387 . S
H513 C525 0.930 . S
H514 C527 0.930 . S
H515 C528 0.930 1_655 S
H516 C532 0.959 . S
H517 C532 0.959 . S
H518 C532 0.961 . S
H519 C533 0.960 . S
H520 C533 0.961 . S
H521 C533 0.959 . S
H522 C536 0.929 . S
H523 C537 0.931 . S
H524 C539 0.930 . S
C525 H513 0.930 . S
C525 C526 1.399 . S
C525 C530 1.399 . S
C526 C525 1.399 . S
C526 C527 1.376 . S
C527 H514 0.930 . S
C527 C526 1.376 . S
C527 C528 1.388 . S
C528 H515 0.930 1_455 S
C528 C527 1.388 . S
C528 C529 1.390 . S
C529 C528 1.390 . S
C529 C530 1.394 . S
C529 C535 1.465 1_455 S
C530 C525 1.399 . S
C530 C529 1.394 . S
C530 C531 1.516 . S
C531 C530 1.516 . S
C531 C532 1.502 . S
C531 C533 1.561 . S
C531 C534 1.526 1_455 S
C532 H516 0.959 . S
C532 H517 0.959 . S
C532 H518 0.961 . S
C532 C531 1.502 . S
C533 H519 0.960 . S
C533 H520 0.961 . S
C533 H521 0.959 . S
C533 C531 1.561 . S
C534 C531 1.526 1_655 S
C534 C535 1.396 . S
C534 C539 1.390 . S
C535 C529 1.465 1_655 S
C535 C534 1.396 . S
C535 C536 1.399 . S
C536 H522 0.929 . S
C536 C535 1.399 . S
C536 C537 1.385 . S
C537 H523 0.931 . S
C537 C536 1.385 . S
C537 C538 1.389 . S
C538 C537 1.389 . S
C538 C539 1.387 . S
C539 H524 0.930 . S
C539 C534 1.390 . S
C539 C538 1.387 . S
H540 C552 0.930 . S
H541 C554 0.930 . S
H542 C555 0.930 . S
H543 C559 0.959 . S
H544 C559 0.959 . S
H545 C559 0.961 . S
H546 C560 0.960 . S
H547 C560 0.961 . S
H548 C560 0.959 . S
H549 C563 0.929 . S
H550 C564 0.931 . S
H551 C566 0.930 . S
C552 H540 0.930 . S
C552 C553 1.399 . S
C552 C557 1.399 . S
C553 C552 1.399 . S
C553 C554 1.376 . S
C554 H541 0.930 . S
C554 C553 1.376 . S
C554 C555 1.388 . S
C555 H542 0.930 . S
C555 C554 1.388 . S
C555 C556 1.390 . S
C556 C555 1.390 . S
C556 C557 1.394 . S
C556 C562 1.465 . S
C557 C552 1.399 . S
C557 C556 1.394 . S
C557 C558 1.516 . S
C558 C557 1.516 . S
C558 C559 1.502 . S
C558 C560 1.561 . S
C558 C561 1.526 . S
C559 H543 0.959 . S
C559 H544 0.959 . S
C559 H545 0.961 . S
C559 C558 1.502 . S
C560 H546 0.960 . S
C560 H547 0.961 . S
C560 H548 0.959 . S
C560 C558 1.561 . S
C561 C558 1.526 . S
C561 C562 1.396 . S
C561 C566 1.390 . S
C562 C556 1.465 . S
C562 C561 1.396 . S
C562 C563 1.399 . S
C563 H549 0.929 . S
C563 C562 1.399 . S
C563 C564 1.385 . S
C564 H550 0.931 . S
C564 C563 1.385 . S
C564 C565 1.389 . S
C565 C564 1.389 . S
C565 C566 1.387 . S
C566 H551 0.930 . S
C566 C561 1.390 . S
C566 C565 1.387 . S
H567 C579 0.930 . S
H568 C581 0.930 . S
H569 C582 0.930 . S
H570 C586 0.959 1_455 S
H571 C586 0.959 . S
H572 C586 0.961 . S
H573 C587 0.960 . S
H574 C587 0.961 . S
H575 C587 0.959 . S
H576 C590 0.929 . S
H577 C591 0.931 . S
H578 C593 0.930 . S
C579 H567 0.930 . S
C579 C580 1.399 . S
C579 C584 1.399 . S
C580 C579 1.399 . S
C580 C581 1.376 . S
C581 H568 0.930 . S
C581 C580 1.376 . S
C581 C582 1.388 . S
C582 H569 0.930 . S
C582 C581 1.388 . S
C582 C583 1.390 . S
C583 C582 1.390 . S
C583 C584 1.394 . S
C583 C589 1.465 . S
C584 C579 1.399 . S
C584 C583 1.394 . S
C584 C585 1.516 . S
C585 C584 1.516 . S
C585 C586 1.502 . S
C585 C587 1.561 . S
C585 C588 1.526 . S
C586 H570 0.959 1_655 S
C586 H571 0.959 . S
C586 H572 0.961 . S
C586 C585 1.502 . S
C587 H573 0.960 . S
C587 H574 0.961 . S
C587 H575 0.959 . S
C587 C585 1.561 . S
C588 C585 1.526 . S
C588 C589 1.396 . S
C588 C593 1.390 . S
C589 C583 1.465 . S
C589 C588 1.396 . S
C589 C590 1.399 . S
C590 H576 0.929 . S
C590 C589 1.399 . S
C590 C591 1.385 . S
C591 H577 0.931 . S
C591 C590 1.385 . S
C591 C592 1.389 . S
C592 C591 1.389 . S
C592 C593 1.387 . S
C593 H578 0.930 . S
C593 C588 1.390 . S
C593 C592 1.387 . S
H594 C606 0.930 . S
H595 C608 0.930 . S
H596 C609 0.947 . S
H597 C613 0.959 . S
H598 C613 0.959 . S
H599 C613 0.961 . S
H600 C614 0.960 . S
H601 C614 0.961 1_655 S
H602 C614 0.959 . S
H603 C617 0.929 . S
H604 C618 0.931 . S
H605 C620 0.930 . S
C606 H594 0.930 . S
C606 C607 1.399 . S
C606 C611 1.399 . S
C607 C606 1.399 . S
C607 C608 1.376 . S
C608 H595 0.930 . S
C608 C607 1.376 . S
C608 C609 1.388 . S
C609 H596 0.947 . S
C609 C608 1.388 . S
C609 C610 1.390 . S
C610 C609 1.390 . S
C610 C611 1.394 . S
C610 C616 1.465 1_455 S
C611 C606 1.399 . S
C611 C610 1.394 . S
C611 C612 1.516 1_455 S
C612 C611 1.516 1_655 S
C612 C613 1.502 . S
C612 C614 1.561 1_655 S
C612 C615 1.526 . S
C613 H597 0.959 . S
C613 H598 0.959 . S
C613 H599 0.961 . S
C613 C612 1.502 . S
C614 H600 0.960 . S
C614 H601 0.961 1_455 S
C614 H602 0.959 . S
C614 C612 1.561 1_455 S
C615 C612 1.526 . S
C615 C616 1.396 . S
C615 C620 1.390 . S
C616 C610 1.465 1_655 S
C616 C615 1.396 . S
C616 C617 1.399 1_556 S
C617 H603 0.929 . S
C617 C616 1.399 1_554 S
C617 C618 1.385 . S
C618 H604 0.931 . S
C618 C617 1.385 . S
C618 C619 1.389 . S
C619 C618 1.389 . S
C619 C620 1.387 1_554 S
C620 H605 0.930 . S
C620 C615 1.390 . S
C620 C619 1.387 1_556 S
H621 C633 0.930 . S
H622 C635 0.930 . S
H623 C636 0.930 . S
H624 C640 0.959 . S
H625 C640 0.959 . S
H626 C640 0.961 . S
H627 C641 0.960 . S
H628 C641 0.961 . S
H629 C641 0.959 . S
H630 C644 0.929 . S
H631 C645 0.931 . S
H632 C647 0.930 . S
C633 H621 0.930 . S
C633 C634 1.399 . S
C633 C638 1.399 . S
C634 C633 1.399 . S
C634 C635 1.376 . S
C635 H622 0.930 . S
C635 C634 1.376 . S
C635 C636 1.388 . S
C636 H623 0.930 . S
C636 C635 1.388 . S
C636 C637 1.390 . S
C637 C636 1.390 . S
C637 C638 1.394 . S
C637 C643 1.465 . S
C638 C633 1.399 . S
C638 C637 1.394 . S
C638 C639 1.516 . S
C639 C638 1.516 . S
C639 C640 1.502 . S
C639 C641 1.561 . S
C639 C642 1.526 . S
C640 H624 0.959 . S
C640 H625 0.959 . S
C640 H626 0.961 . S
C640 C639 1.502 . S
C641 H627 0.960 . S
C641 H628 0.961 . S
C641 H629 0.959 . S
C641 C639 1.561 . S
C642 C639 1.526 . S
C642 C643 1.396 . S
C642 C647 1.390 . S
C643 C637 1.465 . S
C643 C642 1.396 . S
C643 C644 1.399 . S
C644 H630 0.929 . S
C644 C643 1.399 . S
C644 C645 1.385 . S
C645 H631 0.931 . S
C645 C644 1.385 . S
C645 C646 1.389 . S
C646 C645 1.389 . S
C646 C647 1.387 . S
C647 H632 0.930 . S
C647 C642 1.390 . S
C647 C646 1.387 . S
H648 C660 0.930 . S
H649 C662 0.930 1_545 S
H650 C663 0.930 . S
H651 C667 0.959 . S
H652 C667 0.959 . S
H653 C667 0.961 . S
H654 C668 0.960 . S
H655 C668 0.961 . S
H656 C668 0.959 . S
H657 C671 0.929 . S
H658 C672 0.931 . S
H659 C674 0.930 . S
C660 H648 0.930 . S
C660 C661 1.399 . S
C660 C665 1.399 . S
C661 C660 1.399 . S
C661 C662 1.376 . S
C662 H649 0.930 1_565 S
C662 C661 1.376 . S
C662 C663 1.388 . S
C663 H650 0.930 . S
C663 C662 1.388 . S
C663 C664 1.390 . S
C664 C663 1.390 . S
C664 C665 1.394 . S
C664 C670 1.465 . S
C665 C660 1.399 . S
C665 C664 1.394 . S
C665 C666 1.516 . S
C666 C665 1.516 . S
C666 C667 1.502 . S
C666 C668 1.561 . S
C666 C669 1.526 . S
C667 H651 0.959 . S
C667 H652 0.959 . S
C667 H653 0.961 . S
C667 C666 1.502 . S
C668 H654 0.960 . S
C668 H655 0.961 . S
C668 H656 0.959 . S
C668 C666 1.561 . S
C669 C666 1.526 . S
C669 C670 1.396 . S
C669 C674 1.390 . S
C670 C664 1.465 . S
C670 C669 1.396 . S
C670 C671 1.399 . S
C671 H657 0.929 . S
C671 C670 1.399 . S
C671 C672 1.385 . S
C672 H658 0.931 . S
C672 C671 1.385 . S
C672 C673 1.389 . S
C673 C672 1.389 . S
C673 C674 1.387 . S
C674 H659 0.930 . S
C674 C669 1.390 . S
C674 C673 1.387 . S
H675 C687 0.930 . S
H676 C689 0.930 . S
H677 C690 0.930 . S
H678 C694 0.959 . S
H679 C694 0.959 . S
H680 C694 0.961 . S
H681 C695 0.960 . S
H682 C695 0.961 . S
H683 C695 0.959 . S
H684 C698 0.929 . S
H685 C699 0.931 . S
H686 C701 0.930 . S
C687 H675 0.930 . S
C687 C688 1.399 . S
C687 C692 1.399 . S
C688 C687 1.399 . S
C688 C689 1.376 . S
C689 H676 0.930 . S
C689 C688 1.376 . S
C689 C690 1.388 . S
C690 H677 0.930 . S
C690 C689 1.388 . S
C690 C691 1.390 . S
C691 C690 1.390 . S
C691 C692 1.394 . S
C691 C697 1.465 . S
C692 C687 1.399 . S
C692 C691 1.394 . S
C692 C693 1.516 . S
C693 C692 1.516 . S
C693 C694 1.502 . S
C693 C695 1.561 . S
C693 C696 1.526 . S
C694 H678 0.959 . S
C694 H679 0.959 . S
C694 H680 0.961 . S
C694 C693 1.502 . S
C695 H681 0.960 . S
C695 H682 0.961 . S
C695 H683 0.959 . S
C695 C693 1.561 . S
C696 C693 1.526 . S
C696 C697 1.396 . S
C696 C701 1.390 . S
C697 C691 1.465 . S
C697 C696 1.396 . S
C697 C698 1.399 . S
C698 H684 0.929 . S
C698 C697 1.399 . S
C698 C699 1.385 . S
C699 H685 0.931 . S
C699 C698 1.385 . S
C699 C700 1.389 . S
C700 C699 1.389 . S
C700 C701 1.387 . S
C701 H686 0.930 . S
C701 C696 1.390 . S
C701 C700 1.387 . S
H702 C714 0.930 . S
H703 C716 0.930 . S
H704 C717 0.930 . S
H705 C721 0.959 . S
H706 C721 0.959 . S
H707 C721 0.961 . S
H708 C722 0.960 . S
H709 C722 0.961 . S
H710 C722 0.959 . S
H711 C725 0.929 . S
H712 C726 0.931 . S
H713 C728 0.930 . S
C714 H702 0.930 . S
C714 C715 1.399 . S
C714 C719 1.399 . S
C715 C714 1.399 . S
C715 C716 1.376 . S
C716 H703 0.930 . S
C716 C715 1.376 . S
C716 C717 1.388 . S
C717 H704 0.930 . S
C717 C716 1.388 . S
C717 C718 1.390 . S
C718 C717 1.390 . S
C718 C719 1.394 . S
C718 C724 1.465 . S
C719 C714 1.399 . S
C719 C718 1.394 . S
C719 C720 1.516 . S
C720 C719 1.516 . S
C720 C721 1.502 . S
C720 C722 1.561 . S
C720 C723 1.526 . S
C721 H705 0.959 . S
C721 H706 0.959 . S
C721 H707 0.961 . S
C721 C720 1.502 . S
C722 H708 0.960 . S
C722 H709 0.961 . S
C722 H710 0.959 . S
C722 C720 1.561 . S
C723 C720 1.526 . S
C723 C724 1.396 . S
C723 C728 1.390 . S
C724 C718 1.465 . S
C724 C723 1.396 . S
C724 C725 1.399 . S
C725 H711 0.929 . S
C725 C724 1.399 . S
C725 C726 1.385 . S
C726 H712 0.931 . S
C726 C725 1.385 . S
C726 C727 1.389 . S
C727 C726 1.389 . S
C727 C728 1.387 . S
C728 H713 0.930 . S
C728 C723 1.390 . S
C728 C727 1.387 . S
H729 C741 0.930 . S
H730 C743 0.930 . S
H731 C744 0.930 . S
H732 C748 0.959 . S
H733 C748 0.959 1_565 S
H734 C748 0.961 . S
H735 C749 0.960 . S
H736 C749 0.961 . S
H737 C749 0.959 . S
H738 C752 0.929 . S
H739 C753 0.931 . S
H740 C755 0.930 . S
C741 H729 0.930 . S
C741 C742 1.399 . S
C741 C746 1.399 . S
C742 C741 1.399 . S
C742 C743 1.376 . S
C743 H730 0.930 . S
C743 C742 1.376 . S
C743 C744 1.388 . S
C744 H731 0.930 . S
C744 C743 1.388 . S
C744 C745 1.390 . S
C745 C744 1.390 . S
C745 C746 1.394 . S
C745 C751 1.465 . S
C746 C741 1.399 . S
C746 C745 1.394 . S
C746 C747 1.516 . S
C747 C746 1.516 . S
C747 C748 1.502 . S
C747 C749 1.561 1_545 S
C747 C750 1.526 . S
C748 H732 0.959 . S
C748 H733 0.959 1_545 S
C748 H734 0.961 . S
C748 C747 1.502 . S
C749 H735 0.960 . S
C749 H736 0.961 . S
C749 H737 0.959 . S
C749 C747 1.561 1_565 S
C750 C747 1.526 . S
C750 C751 1.396 . S
C750 C755 1.390 1_545 S
C751 C745 1.465 . S
C751 C750 1.396 . S
C751 C752 1.399 . S
C752 H738 0.929 . S
C752 C751 1.399 . S
C752 C753 1.385 . S
C753 H739 0.931 . S
C753 C752 1.385 . S
C753 C754 1.389 1_545 S
C754 C753 1.389 1_565 S
C754 C755 1.387 . S
C755 H740 0.930 . S
C755 C750 1.390 1_565 S
C755 C754 1.387 . S
H756 C768 0.930 . S
H757 C770 0.930 . S
H758 C771 0.930 . S
H759 C775 0.959 . S
H760 C775 0.959 . S
H761 C775 0.961 . S
H762 C776 0.960 . S
H763 C776 0.961 . S
H764 C776 0.959 . S
H765 C779 0.929 . S
H766 C780 0.931 . S
H767 C782 0.930 . S
C768 H756 0.930 . S
C768 C769 1.399 . S
C768 C773 1.399 . S
C769 C768 1.399 . S
C769 C770 1.376 . S
C770 H757 0.930 . S
C770 C769 1.376 . S
C770 C771 1.388 . S
C771 H758 0.930 . S
C771 C770 1.388 . S
C771 C772 1.390 . S
C772 C771 1.390 . S
C772 C773 1.394 . S
C772 C778 1.465 . S
C773 C768 1.399 . S
C773 C772 1.394 . S
C773 C774 1.516 . S
C774 C773 1.516 . S
C774 C775 1.502 . S
C774 C776 1.561 . S
C774 C777 1.526 . S
C775 H759 0.959 . S
C775 H760 0.959 . S
C775 H761 0.961 . S
C775 C774 1.502 . S
C776 H762 0.960 . S
C776 H763 0.961 . S
C776 H764 0.959 . S
C776 C774 1.561 . S
C777 C774 1.526 . S
C777 C778 1.396 . S
C777 C782 1.390 . S
C778 C772 1.465 . S
C778 C777 1.396 . S
C778 C779 1.399 . S
C779 H765 0.929 . S
C779 C778 1.399 . S
C779 C780 1.385 . S
C780 H766 0.931 . S
C780 C779 1.385 . S
C780 C781 1.389 . S
C781 C780 1.389 . S
C781 C782 1.387 . S
C782 H767 0.930 . S
C782 C777 1.390 . S
C782 C781 1.387 . S
H783 C795 0.930 . S
H784 C797 0.930 . S
H785 C798 0.930 . S
H786 C802 0.959 . S
H787 C802 0.959 . S
H788 C802 0.961 . S
H789 C803 0.960 . S
H790 C803 0.961 . S
H791 C803 0.959 . S
H792 C806 0.929 . S
H793 C807 0.931 . S
H794 C809 0.930 . S
C795 H783 0.930 . S
C795 C796 1.399 . S
C795 C800 1.399 . S
C796 C795 1.399 . S
C796 C797 1.376 . S
C797 H784 0.930 . S
C797 C796 1.376 . S
C797 C798 1.388 . S
C798 H785 0.930 . S
C798 C797 1.388 . S
C798 C799 1.390 . S
C799 C798 1.390 . S
C799 C800 1.394 . S
C799 C805 1.465 . S
C800 C795 1.399 . S
C800 C799 1.394 . S
C800 C801 1.516 . S
C801 C800 1.516 . S
C801 C802 1.502 . S
C801 C803 1.561 . S
C801 C804 1.526 . S
C802 H786 0.959 . S
C802 H787 0.959 . S
C802 H788 0.961 . S
C802 C801 1.502 . S
C803 H789 0.960 . S
C803 H790 0.961 . S
C803 H791 0.959 . S
C803 C801 1.561 . S
C804 C801 1.526 . S
C804 C805 1.396 . S
C804 C809 1.390 . S
C805 C799 1.465 . S
C805 C804 1.396 . S
C805 C806 1.399 . S
C806 H792 0.929 . S
C806 C805 1.399 . S
C806 C807 1.385 . S
C807 H793 0.931 . S
C807 C806 1.385 . S
C807 C808 1.389 . S
C808 C807 1.389 . S
C808 C809 1.387 . S
C809 H794 0.930 . S
C809 C804 1.390 . S
C809 C808 1.387 . S
H810 C822 0.930 . S
H811 C824 0.930 . S
H812 C825 0.930 . S
H813 C829 0.959 1_565 S
H814 C829 0.959 . S
H815 C829 0.961 . S
H816 C830 0.960 . S
H817 C830 0.961 . S
H818 C830 0.959 . S
H819 C833 0.929 . S
H820 C834 0.931 . S
H821 C836 0.930 . S
C822 H810 0.930 . S
C822 C823 1.399 . S
C822 C827 1.399 . S
C823 C822 1.399 . S
C823 C824 1.376 . S
C824 H811 0.930 . S
C824 C823 1.376 . S
C824 C825 1.388 . S
C825 H812 0.930 . S
C825 C824 1.388 . S
C825 C826 1.390 . S
C826 C825 1.390 . S
C826 C827 1.394 . S
C826 C832 1.465 . S
C827 C822 1.399 . S
C827 C826 1.394 . S
C827 C828 1.516 . S
C828 C827 1.516 . S
C828 C829 1.502 . S
C828 C830 1.561 . S
C828 C831 1.526 . S
C829 H813 0.959 1_545 S
C829 H814 0.959 . S
C829 H815 0.961 . S
C829 C828 1.502 . S
C830 H816 0.960 . S
C830 H817 0.961 . S
C830 H818 0.959 . S
C830 C828 1.561 . S
C831 C828 1.526 . S
C831 C832 1.396 . S
C831 C836 1.390 1_545 S
C832 C826 1.465 . S
C832 C831 1.396 . S
C832 C833 1.399 . S
C833 H819 0.929 . S
C833 C832 1.399 . S
C833 C834 1.385 1_545 S
C834 H820 0.931 . S
C834 C833 1.385 1_565 S
C834 C835 1.389 . S
C835 C834 1.389 . S
C835 C836 1.387 . S
C836 H821 0.930 . S
C836 C831 1.390 1_565 S
C836 C835 1.387 . S
H837 C849 0.930 . S
H838 C851 0.930 . S
H839 C852 0.930 . S
H840 C856 0.959 . S
H841 C856 0.959 . S
H842 C856 0.961 . S
H843 C857 0.960 . S
H844 C857 0.961 . S
H845 C857 0.959 . S
H846 C860 0.929 . S
H847 C861 0.931 . S
H848 C863 0.930 . S
C849 H837 0.930 . S
C849 C850 1.399 . S
C849 C854 1.399 . S
C850 C849 1.399 . S
C850 C851 1.376 . S
C851 H838 0.930 . S
C851 C850 1.376 . S
C851 C852 1.388 . S
C852 H839 0.930 . S
C852 C851 1.388 . S
C852 C853 1.390 . S
C853 C852 1.390 . S
C853 C854 1.394 . S
C853 C859 1.465 . S
C854 C849 1.399 . S
C854 C853 1.394 . S
C854 C855 1.516 . S
C855 C854 1.516 . S
C855 C856 1.502 . S
C855 C857 1.561 . S
C855 C858 1.526 . S
C856 H840 0.959 . S
C856 H841 0.959 . S
C856 H842 0.961 . S
C856 C855 1.502 . S
C857 H843 0.960 . S
C857 H844 0.961 . S
C857 H845 0.959 . S
C857 C855 1.561 . S
C858 C855 1.526 . S
C858 C859 1.396 . S
C858 C863 1.390 . S
C859 C853 1.465 . S
C859 C858 1.396 . S
C859 C860 1.399 . S
C860 H846 0.929 . S
C860 C859 1.399 . S
C860 C861 1.385 . S
C861 H847 0.931 . S
C861 C860 1.385 . S
C861 C862 1.389 . S
C862 C861 1.389 . S
C862 C863 1.387 . S
C863 H848 0.930 . S
C863 C858 1.390 . S
C863 C862 1.387 . S
H864 C876 0.930 . S
H865 C878 0.930 . S
H866 C879 0.930 . S
H867 C883 0.959 . S
H868 C883 0.959 . S
H869 C883 0.961 . S
H870 C884 0.960 . S
H871 C884 0.961 . S
H872 C884 0.959 . S
H873 C887 0.929 . S
H874 C888 0.931 . S
H875 C890 0.930 . S
C876 H864 0.930 . S
C876 C877 1.399 . S
C876 C881 1.399 . S
C877 C876 1.399 . S
C877 C878 1.376 . S
C878 H865 0.930 . S
C878 C877 1.376 . S
C878 C879 1.388 . S
C879 H866 0.930 . S
C879 C878 1.388 . S
C879 C880 1.390 . S
C880 C879 1.390 . S
C880 C881 1.394 . S
C880 C886 1.465 . S
C881 C876 1.399 . S
C881 C880 1.394 . S
C881 C882 1.516 . S
C882 C881 1.516 . S
C882 C883 1.502 . S
C882 C884 1.561 . S
C882 C885 1.526 . S
C883 H867 0.959 . S
C883 H868 0.959 . S
C883 H869 0.961 . S
C883 C882 1.502 . S
C884 H870 0.960 . S
C884 H871 0.961 . S
C884 H872 0.959 . S
C884 C882 1.561 . S
C885 C882 1.526 . S
C885 C886 1.396 . S
C885 C890 1.390 . S
C886 C880 1.465 . S
C886 C885 1.396 . S
C886 C887 1.399 . S
C887 H873 0.929 . S
C887 C886 1.399 . S
C887 C888 1.385 . S
C888 H874 0.931 . S
C888 C887 1.385 . S
C888 C889 1.389 . S
C889 C888 1.389 . S
C889 C890 1.387 . S
C890 H875 0.930 . S
C890 C885 1.390 . S
C890 C889 1.387 . S
H891 C903 0.930 . S
H892 C905 0.930 . S
H893 C906 0.930 . S
H894 C910 0.959 . S
H895 C910 0.959 . S
H896 C910 0.961 . S
H897 C911 0.960 . S
H898 C911 0.961 . S
H899 C911 0.959 . S
H900 C914 0.929 . S
H901 C915 0.931 . S
H902 C917 0.930 . S
C903 H891 0.930 . S
C903 C904 1.399 . S
C903 C908 1.399 . S
C904 C903 1.399 . S
C904 C905 1.376 . S
C905 H892 0.930 . S
C905 C904 1.376 . S
C905 C906 1.388 . S
C906 H893 0.930 . S
C906 C905 1.388 . S
C906 C907 1.390 . S
C907 C906 1.390 . S
C907 C908 1.394 . S
C907 C913 1.465 . S
C908 C903 1.399 . S
C908 C907 1.394 . S
C908 C909 1.516 . S
C909 C908 1.516 . S
C909 C910 1.502 . S
C909 C911 1.561 . S
C909 C912 1.526 . S
C910 H894 0.959 . S
C910 H895 0.959 . S
C910 H896 0.961 . S
C910 C909 1.502 . S
C911 H897 0.960 . S
C911 H898 0.961 . S
C911 H899 0.959 . S
C911 C909 1.561 . S
C912 C909 1.526 . S
C912 C913 1.396 . S
C912 C917 1.390 . S
C913 C907 1.465 . S
C913 C912 1.396 . S
C913 C914 1.399 . S
C914 H900 0.929 . S
C914 C913 1.399 . S
C914 C915 1.385 . S
C915 H901 0.931 . S
C915 C914 1.385 . S
C915 C916 1.389 . S
C916 C915 1.389 . S
C916 C917 1.387 . S
C917 H902 0.930 . S
C917 C912 1.390 . S
C917 C916 1.387 . S
H918 C930 0.930 . S
H919 C932 0.930 . S
H920 C933 0.930 . S
H921 C937 0.959 . S
H922 C937 0.959 1_455 S
H923 C937 0.961 1_455 S
H924 C938 0.960 1_455 S
H925 C938 0.961 1_455 S
H926 C938 0.959 . S
H927 C941 0.929 . S
H928 C942 0.931 . S
H929 C944 0.930 . S
C930 H918 0.930 . S
C930 C931 1.399 . S
C930 C935 1.399 . S
C931 C930 1.399 . S
C931 C932 1.376 . S
C932 H919 0.930 . S
C932 C931 1.376 . S
C932 C933 1.388 . S
C933 H920 0.930 . S
C933 C932 1.388 . S
C933 C934 1.390 . S
C934 C933 1.390 . S
C934 C935 1.394 . S
C934 C940 1.465 . S
C935 C930 1.399 . S
C935 C934 1.394 . S
C935 C936 1.516 . S
C936 C935 1.516 . S
C936 C937 1.502 . S
C936 C938 1.561 . S
C936 C939 1.526 . S
C937 H921 0.959 . S
C937 H922 0.959 1_655 S
C937 H923 0.961 1_655 S
C937 C936 1.502 . S
C938 H924 0.960 1_655 S
C938 H925 0.961 1_655 S
C938 H926 0.959 . S
C938 C936 1.561 . S
C939 C936 1.526 . S
C939 C940 1.396 . S
C939 C944 1.390 . S
C940 C934 1.465 . S
C940 C939 1.396 . S
C940 C941 1.399 . S
C941 H927 0.929 . S
C941 C940 1.399 . S
C941 C942 1.385 . S
C942 H928 0.931 . S
C942 C941 1.385 . S
C942 C943 1.389 . S
C943 C942 1.389 . S
C943 C944 1.387 . S
C944 H929 0.930 . S
C944 C939 1.390 . S
C944 C943 1.387 . S
H945 C957 0.930 . S
H946 C959 0.930 . S
H947 C960 0.930 . S
H948 C964 0.953 1_455 S
H949 C964 0.970 . S
H950 C964 0.960 1_455 S
H951 C965 0.960 . S
H952 C965 0.961 . S
H953 C965 0.959 . S
H954 C968 0.929 . S
H955 C969 0.931 . S
H956 C971 0.930 . S
C957 H945 0.930 . S
C957 C958 1.399 . S
C957 C962 1.399 . S
C958 C957 1.399 . S
C958 C959 1.376 . S
C959 H946 0.930 . S
C959 C958 1.376 . S
C959 C960 1.388 . S
C960 H947 0.930 . S
C960 C959 1.388 . S
C960 C961 1.390 . S
C961 C960 1.390 . S
C961 C962 1.394 . S
C961 C967 1.465 . S
C962 C957 1.399 . S
C962 C961 1.394 . S
C962 C963 1.516 . S
C963 C962 1.516 . S
C963 C964 1.499 1_455 S
C963 C965 1.561 1_455 S
C963 C966 1.526 . S
C964 H948 0.953 1_655 S
C964 H949 0.970 . S
C964 H950 0.960 1_655 S
C964 C963 1.499 1_655 S
C965 H951 0.960 . S
C965 H952 0.961 . S
C965 H953 0.959 . S
C965 C963 1.561 1_655 S
C966 C963 1.526 . S
C966 C967 1.396 . S
C966 C971 1.390 1_455 S
C967 C961 1.465 . S
C967 C966 1.396 . S
C967 C968 1.399 . S
C968 H954 0.929 . S
C968 C967 1.399 . S
C968 C969 1.385 . S
C969 H955 0.931 . S
C969 C968 1.385 . S
C969 C970 1.389 1_455 S
C970 C969 1.389 1_655 S
C970 C971 1.387 . S
C971 H956 0.930 . S
C971 C966 1.390 1_655 S
C971 C970 1.387 . S
H972 C984 0.930 . S
H973 C986 0.930 . S
H974 C987 0.930 . S
H975 C991 0.959 . S
H976 C991 0.959 . S
H977 C991 0.961 . S
H978 C992 0.960 . S
H979 C992 0.961 . S
H980 C992 0.959 . S
H981 C995 0.929 . S
H982 C996 0.931 . S
H983 C998 0.930 . S
C984 H972 0.930 . S
C984 C985 1.399 . S
C984 C989 1.399 . S
C985 C984 1.399 . S
C985 C986 1.376 . S
C986 H973 0.930 . S
C986 C985 1.376 . S
C986 C987 1.388 . S
C987 H974 0.930 . S
C987 C986 1.388 . S
C987 C988 1.390 . S
C988 C987 1.390 . S
C988 C989 1.394 . S
C988 C994 1.465 . S
C989 C984 1.399 . S
C989 C988 1.394 . S
C989 C990 1.516 . S
C990 C989 1.516 . S
C990 C991 1.502 . S
C990 C992 1.561 . S
C990 C993 1.526 . S
C991 H975 0.959 . S
C991 H976 0.959 . S
C991 H977 0.961 . S
C991 C990 1.502 . S
C992 H978 0.960 . S
C992 H979 0.961 . S
C992 H980 0.959 . S
C992 C990 1.561 . S
C993 C990 1.526 . S
C993 C994 1.396 . S
C993 C998 1.390 . S
C994 C988 1.465 . S
C994 C993 1.396 . S
C994 C995 1.399 . S
C995 H981 0.929 . S
C995 C994 1.399 . S
C995 C996 1.385 . S
C996 H982 0.931 . S
C996 C995 1.385 . S
C996 C997 1.389 . S
C997 C996 1.389 . S
C997 C998 1.387 . S
C998 H983 0.930 . S
C998 C993 1.390 . S
C998 C997 1.387 . S
H999 C1011 0.930 . S
H1000 C1013 0.930 . S
H1001 C1014 0.930 . S
H1002 C1018 0.959 . S
H1003 C1018 0.959 . S
H1004 C1018 0.961 . S
H1005 C1019 0.960 1_455 S
H1006 C1019 0.961 . S
H1007 C1019 0.959 . S
H1008 C1022 0.929 . S
H1009 C1023 0.931 . S
H1010 C1025 0.930 . S
C1011 H999 0.930 . S
C1011 C1012 1.399 . S
C1011 C1016 1.399 . S
C1012 C1011 1.399 . S
C1012 C1013 1.376 . S
C1013 H1000 0.930 . S
C1013 C1012 1.376 . S
C1013 C1014 1.388 . S
C1014 H1001 0.930 . S
C1014 C1013 1.388 . S
C1014 C1015 1.390 . S
C1015 C1014 1.390 . S
C1015 C1016 1.394 . S
C1015 C1021 1.465 . S
C1016 C1011 1.399 . S
C1016 C1015 1.394 . S
C1016 C1017 1.516 . S
C1017 C1016 1.516 . S
C1017 C1018 1.502 . S
C1017 C1019 1.561 . S
C1017 C1020 1.526 . S
C1018 H1002 0.959 . S
C1018 H1003 0.959 . S
C1018 H1004 0.961 . S
C1018 C1017 1.502 . S
C1019 H1005 0.960 1_655 S
C1019 H1006 0.961 . S
C1019 H1007 0.959 . S
C1019 C1017 1.561 . S
C1020 C1017 1.526 . S
C1020 C1021 1.396 . S
C1020 C1025 1.390 . S
C1021 C1015 1.465 . S
C1021 C1020 1.396 . S
C1021 C1022 1.399 . S
C1022 H1008 0.929 . S
C1022 C1021 1.399 . S
C1022 C1023 1.385 . S
C1023 H1009 0.931 . S
C1023 C1022 1.385 . S
C1023 C1024 1.389 . S
C1024 C1023 1.389 . S
C1024 C1025 1.387 . S
C1025 H1010 0.930 . S
C1025 C1020 1.390 . S
C1025 C1024 1.387 . S
H1026 C1038 0.930 . S
H1027 C1040 0.930 . S
H1028 C1041 0.930 . S
H1029 C1045 0.959 . S
H1030 C1045 0.959 . S
H1031 C1045 0.961 . S
H1032 C1046 0.960 . S
H1033 C1046 0.961 . S
H1034 C1046 0.959 . S
H1035 C1049 0.929 . S
H1036 C1050 0.931 . S
H1037 C1052 0.930 . S
C1038 H1026 0.930 . S
C1038 C1039 1.399 . S
C1038 C1043 1.399 . S
C1039 C1038 1.399 . S
C1039 C1040 1.376 . S
C1040 H1027 0.930 . S
C1040 C1039 1.376 . S
C1040 C1041 1.388 . S
C1041 H1028 0.930 . S
C1041 C1040 1.388 . S
C1041 C1042 1.390 . S
C1042 C1041 1.390 . S
C1042 C1043 1.394 . S
C1042 C1048 1.465 . S
C1043 C1038 1.399 . S
C1043 C1042 1.394 . S
C1043 C1044 1.516 . S
C1044 C1043 1.516 . S
C1044 C1045 1.502 . S
C1044 C1046 1.561 . S
C1044 C1047 1.526 . S
C1045 H1029 0.959 . S
C1045 H1030 0.959 . S
C1045 H1031 0.961 . S
C1045 C1044 1.502 . S
C1046 H1032 0.960 . S
C1046 H1033 0.961 . S
C1046 H1034 0.959 . S
C1046 C1044 1.561 . S
C1047 C1044 1.526 . S
C1047 C1048 1.396 . S
C1047 C1052 1.390 . S
C1048 C1042 1.465 . S
C1048 C1047 1.396 . S
C1048 C1049 1.399 1_455 S
C1049 H1035 0.929 . S
C1049 C1048 1.399 1_655 S
C1049 C1050 1.385 . S
C1050 H1036 0.931 . S
C1050 C1049 1.385 . S
C1050 C1051 1.389 . S
C1051 C1050 1.389 . S
C1051 C1052 1.387 1_655 S
C1052 H1037 0.930 . S
C1052 C1047 1.390 . S
C1052 C1051 1.387 1_455 S
H1053 C1065 0.930 . S
H1054 C1067 0.930 . S
H1055 C1068 0.930 . S
H1056 C1072 0.959 . S
H1057 C1072 0.959 . S
H1058 C1072 0.961 . S
H1059 C1073 0.960 . S
H1060 C1073 0.961 . S
H1061 C1073 0.959 . S
H1062 C1076 0.929 . S
H1063 C1077 0.931 . S
H1064 C1079 0.930 . S
C1065 H1053 0.930 . S
C1065 C1066 1.399 . S
C1065 C1070 1.399 . S
C1066 C1065 1.399 . S
C1066 C1067 1.376 . S
C1067 H1054 0.930 . S
C1067 C1066 1.376 . S
C1067 C1068 1.388 . S
C1068 H1055 0.930 . S
C1068 C1067 1.388 . S
C1068 C1069 1.390 . S
C1069 C1068 1.390 . S
C1069 C1070 1.394 . S
C1069 C1075 1.465 . S
C1070 C1065 1.399 . S
C1070 C1069 1.394 . S
C1070 C1071 1.516 . S
C1071 C1070 1.516 . S
C1071 C1072 1.502 . S
C1071 C1073 1.561 . S
C1071 C1074 1.526 . S
C1072 H1056 0.959 . S
C1072 H1057 0.959 . S
C1072 H1058 0.961 . S
C1072 C1071 1.502 . S
C1073 H1059 0.960 . S
C1073 H1060 0.961 . S
C1073 H1061 0.959 . S
C1073 C1071 1.561 . S
C1074 C1071 1.526 . S
C1074 C1075 1.396 . S
C1074 C1079 1.390 . S
C1075 C1069 1.465 . S
C1075 C1074 1.396 . S
C1075 C1076 1.399 . S
C1076 H1062 0.929 . S
C1076 C1075 1.399 . S
C1076 C1077 1.385 . S
C1077 H1063 0.931 . S
C1077 C1076 1.385 . S
C1077 C1078 1.389 . S
C1078 C1077 1.389 . S
C1078 C1079 1.387 . S
C1079 H1064 0.930 . S
C1079 C1074 1.390 . S
C1079 C1078 1.387 . S
C241 C126 1.251 . S
C229 C5 1.249 . S
C268 C140 1.264 . S
C256 C18 1.264 . S
C295 C155 1.256 . S
C283 C31 1.265 . S
C310 C42 1.154 . S
C322 C113 1.181 . S
C337 C57 1.390 . S
C349 C112 1.447 1_556 S
C364 C70 1.403 . S
C376 C127 1.462 . S
C403 C141 1.399 . S
C391 C81 1.459 . S
C430 C154 1.444 . S
C418 C96 1.453 . S
C445 C29 1.458 . S
C457 C182 1.448 . S
C484 C196 1.448 . S
C472 C44 1.460 . S
C499 C3 1.476 . S
C511 C211 1.427 . S
C538 C168 1.456 . S
C526 C16 1.436 . S
C553 C83 1.272 . S
C565 C169 1.228 . S
C580 C94 1.260 . S
C592 C183 1.270 . S
C619 C197 1.257 . S
C607 C55 1.240 . S
C634 C68 1.292 . S
C646 C210 1.312 . S
C673 C135 1.348 . S
C661 C1 1.386 . S
C700 C153 1.379 . S
C688 C14 1.392 . S
C715 C27 1.350 . S
C727 C111 1.346 . S
C742 C49 1.335 . S
C754 C121 1.349 . S
C769 C53 1.663 . S
C781 C149 1.686 . S
C808 C107 1.719 . S
C796 C66 1.609 . S
C835 C125 1.658 . S
C823 C88 1.678 . S
C862 C139 1.704 . S
C850 C92 1.610 . S
C889 C191 1.718 . S
C877 C36 1.676 . S
C916 C209 1.644 . S
C904 C40 1.600 . S
C931 C10 1.713 . S
C943 C163 1.689 . S
C970 C177 1.684 . S
C958 C23 1.718 . S
C997 C205 1.343 . S
C985 C79 1.384 . S
C1012 C101 1.356 . S
C1024 C167 1.319 . S
C1051 C181 1.338 . S
C1039 C62 1.349 . S
C1078 C195 1.322 . S
C1066 C75 1.360 . S
