# Generated by pormake.
# Topology ocu, (6,8)-cn, num edge types: 1
# Building blocks:
#     Node 0, Type 0, BuildingBlock: KUMBUR_clean_sbu_1, # of connection points: 6
#     Node 1, Type 0, BuildingBlock: KUMBUR_clean_sbu_1, # of connection points: 6
#     Node 2, Type 0, BuildingBlock: KUMBUR_clean_sbu_1, # of connection points: 6
#     Node 3, Type 0, BuildingBlock: KUMBUR_clean_sbu_1, # of connection points: 6
#     Node 4, Type 0, BuildingBlock: KUMBUR_clean_sbu_1, # of connection points: 6
#     Node 5, Type 0, BuildingBlock: KUMBUR_clean_sbu_1, # of connection points: 6
#     Node 6, Type 0, BuildingBlock: KUMBUR_clean_sbu_1, # of connection points: 6
#     Node 7, Type 0, BuildingBlock: KUMBUR_clean_sbu_1, # of connection points: 6
#     Node 8, Type 1, BuildingBlock: VETTIZ_charged_sbu_0, # of connection points: 8
#     Node 9, Type 1, BuildingBlock: VETTIZ_charged_sbu_0, # of connection points: 8
#     Node 10, Type 1, BuildingBlock: VETTIZ_charged_sbu_0, # of connection points: 8
#     Node 11, Type 1, BuildingBlock: VETTIZ_charged_sbu_0, # of connection points: 8
#     Node 12, Type 1, BuildingBlock: VETTIZ_charged_sbu_0, # of connection points: 8
#     Node 13, Type 1, BuildingBlock: VETTIZ_charged_sbu_0, # of connection points: 8
#     Edge 14, Type (0, 1), BuildingBlock: XIVTED_clean_linker_0, # of connection points: 2
#     Edge 15, Type (0, 1), BuildingBlock: XIVTED_clean_linker_0, # of connection points: 2
#     Edge 16, Type (0, 1), BuildingBlock: XIVTED_clean_linker_0, # of connection points: 2
#     Edge 17, Type (0, 1), BuildingBlock: XIVTED_clean_linker_0, # of connection points: 2
#     Edge 18, Type (0, 1), BuildingBlock: XIVTED_clean_linker_0, # of connection points: 2
#     Edge 19, Type (0, 1), BuildingBlock: XIVTED_clean_linker_0, # of connection points: 2
#     Edge 20, Type (0, 1), BuildingBlock: XIVTED_clean_linker_0, # of connection points: 2
#     Edge 21, Type (0, 1), BuildingBlock: XIVTED_clean_linker_0, # of connection points: 2
#     Edge 22, Type (0, 1), BuildingBlock: XIVTED_clean_linker_0, # of connection points: 2
#     Edge 23, Type (0, 1), BuildingBlock: XIVTED_clean_linker_0, # of connection points: 2
#     Edge 24, Type (0, 1), BuildingBlock: XIVTED_clean_linker_0, # of connection points: 2
#     Edge 25, Type (0, 1), BuildingBlock: XIVTED_clean_linker_0, # of connection points: 2
#     Edge 26, Type (0, 1), BuildingBlock: XIVTED_clean_linker_0, # of connection points: 2
#     Edge 27, Type (0, 1), BuildingBlock: XIVTED_clean_linker_0, # of connection points: 2
#     Edge 28, Type (0, 1), BuildingBlock: XIVTED_clean_linker_0, # of connection points: 2
#     Edge 29, Type (0, 1), BuildingBlock: XIVTED_clean_linker_0, # of connection points: 2
#     Edge 30, Type (0, 1), BuildingBlock: XIVTED_clean_linker_0, # of connection points: 2
#     Edge 31, Type (0, 1), BuildingBlock: XIVTED_clean_linker_0, # of connection points: 2
#     Edge 32, Type (0, 1), BuildingBlock: XIVTED_clean_linker_0, # of connection points: 2
#     Edge 33, Type (0, 1), BuildingBlock: XIVTED_clean_linker_0, # of connection points: 2
#     Edge 34, Type (0, 1), BuildingBlock: XIVTED_clean_linker_0, # of connection points: 2
#     Edge 35, Type (0, 1), BuildingBlock: XIVTED_clean_linker_0, # of connection points: 2
#     Edge 36, Type (0, 1), BuildingBlock: XIVTED_clean_linker_0, # of connection points: 2
#     Edge 37, Type (0, 1), BuildingBlock: XIVTED_clean_linker_0, # of connection points: 2
#     Edge 38, Type (0, 1), BuildingBlock: XIVTED_clean_linker_0, # of connection points: 2
#     Edge 39, Type (0, 1), BuildingBlock: XIVTED_clean_linker_0, # of connection points: 2
#     Edge 40, Type (0, 1), BuildingBlock: XIVTED_clean_linker_0, # of connection points: 2
#     Edge 41, Type (0, 1), BuildingBlock: XIVTED_clean_linker_0, # of connection points: 2
#     Edge 42, Type (0, 1), BuildingBlock: XIVTED_clean_linker_0, # of connection points: 2
#     Edge 43, Type (0, 1), BuildingBlock: XIVTED_clean_linker_0, # of connection points: 2
#     Edge 44, Type (0, 1), BuildingBlock: XIVTED_clean_linker_0, # of connection points: 2
#     Edge 45, Type (0, 1), BuildingBlock: XIVTED_clean_linker_0, # of connection points: 2
#     Edge 46, Type (0, 1), BuildingBlock: XIVTED_clean_linker_0, # of connection points: 2
#     Edge 47, Type (0, 1), BuildingBlock: XIVTED_clean_linker_0, # of connection points: 2
#     Edge 48, Type (0, 1), BuildingBlock: XIVTED_clean_linker_0, # of connection points: 2
#     Edge 49, Type (0, 1), BuildingBlock: XIVTED_clean_linker_0, # of connection points: 2
#     Edge 50, Type (0, 1), BuildingBlock: XIVTED_clean_linker_0, # of connection points: 2
#     Edge 51, Type (0, 1), BuildingBlock: XIVTED_clean_linker_0, # of connection points: 2
#     Edge 52, Type (0, 1), BuildingBlock: XIVTED_clean_linker_0, # of connection points: 2
#     Edge 53, Type (0, 1), BuildingBlock: XIVTED_clean_linker_0, # of connection points: 2
#     Edge 54, Type (0, 1), BuildingBlock: XIVTED_clean_linker_0, # of connection points: 2
#     Edge 55, Type (0, 1), BuildingBlock: XIVTED_clean_linker_0, # of connection points: 2
#     Edge 56, Type (0, 1), BuildingBlock: XIVTED_clean_linker_0, # of connection points: 2
#     Edge 57, Type (0, 1), BuildingBlock: XIVTED_clean_linker_0, # of connection points: 2
#     Edge 58, Type (0, 1), BuildingBlock: XIVTED_clean_linker_0, # of connection points: 2
#     Edge 59, Type (0, 1), BuildingBlock: XIVTED_clean_linker_0, # of connection points: 2
#     Edge 60, Type (0, 1), BuildingBlock: XIVTED_clean_linker_0, # of connection points: 2
#     Edge 61, Type (0, 1), BuildingBlock: XIVTED_clean_linker_0, # of connection points: 2
# Relax obj value: 0.071
# Max RMSD: 0.135
# Mean RMSD: 0.101
data_MOF--net-ocu--node1-KUMBUR_clean_sbu_1--node2-VETTIZ_charged_sbu_0--edge1-XIVTED_clean_linker_0
_symmetry_space_group_name_H-M    P1
_symmetry_Int_Tables_number       1
_symmetry_cell_setting            triclinic
loop_
_symmetry_equiv_pos_as_xyz
'x, y, z'
_cell_length_a     39.087188
_cell_length_b     39.607679
_cell_length_c     41.849487
_cell_angle_alpha  100.66284
_cell_angle_beta   80.013269
_cell_angle_gamma 104.28875
loop_
_atom_site_label
_atom_site_type_symbol
_atom_site_fract_x
_atom_site_fract_y
_atom_site_fract_z
_atom_type_partial_charge
Tb0 Tb 0.24553 0.26534 0.22993 0.0
C1 C 0.32893 0.3512 0.34247 0.0
N2 N 0.3415 0.33654 0.31211 0.0
C3 C 0.38625 0.38973 0.30639 0.0
C4 C 0.34362 0.38624 0.3555 0.0
C5 C 0.37137 0.35456 0.29504 0.0
C6 C 0.37186 0.4059 0.3365 0.0
C7 C 0.29245 0.34258 0.39466 0.0
C8 C 0.30362 0.32988 0.36174 0.0
C9 C 0.3055 0.37801 0.40722 0.0
C10 C 0.33095 0.39986 0.38761 0.0
Tb11 Tb 0.31371 0.27923 0.29557 0.0
N12 N 0.2917 0.2958 0.34872 0.0
C13 C 0.26964 0.3189 0.4142 0.0
C14 C 0.27144 0.2721 0.36818 0.0
C15 C 0.25957 0.28335 0.40103 0.0
H16 H 0.38445 0.34172 0.273 0.0
H17 H 0.24295 0.26458 0.4162 0.0
H18 H 0.19665 0.1872 0.24713 0.0
H19 H 0.32223 0.30773 0.11807 0.0
H20 H 0.26475 0.24457 0.35834 0.0
H21 H 0.26058 0.32754 0.43969 0.0
H22 H 0.29699 0.31592 0.17613 0.0
H23 H 0.40935 0.40404 0.29228 0.0
H24 H 0.29695 0.38845 0.43235 0.0
H25 H 0.3417 0.42682 0.39795 0.0
H26 H 0.18101 0.12718 0.21753 0.0
H27 H 0.38389 0.43292 0.34557 0.0
H28 H 0.30888 0.24894 0.08445 0.0
N29 N 0.23063 0.20799 0.20634 0.0
C30 C 0.24221 0.20171 0.17365 0.0
C31 C 0.1986 0.14782 0.205 0.0
C32 C 0.23322 0.16777 0.15557 0.0
C33 C 0.20813 0.18193 0.22192 0.0
C34 C 0.21136 0.14063 0.17175 0.0
N35 N 0.27255 0.26171 0.17688 0.0
C36 C 0.29262 0.28978 0.16254 0.0
C37 C 0.27678 0.22375 0.12477 0.0
C38 C 0.26389 0.2294 0.15849 0.0
C39 C 0.29841 0.25221 0.11028 0.0
C40 C 0.30623 0.28537 0.12924 0.0
H41 H 0.20379 0.11419 0.1587 0.0
H42 H 0.23954 0.13614 0.10772 0.0
H43 H 0.27761 0.1851 0.08075 0.0
O44 O 0.22189 0.28707 0.19912 0.0
O45 O 0.28461 0.23063 0.22087 0.0
O46 O 0.33438 0.26274 0.24438 0.0
O47 O 0.18943 0.25635 0.23629 0.0
O48 O 0.28388 0.31618 0.23517 0.0
O49 O 0.33285 0.30454 0.25161 0.0
O50 O 0.32264 0.23424 0.31 0.0
O51 O 0.26296 0.29691 0.31273 0.0
O52 O 0.24941 0.3129 0.26712 0.0
O53 O 0.36336 0.28198 0.30945 0.0
O54 O 0.27466 0.22991 0.285 0.0
O55 O 0.22416 0.24345 0.2757 0.0
C56 C 0.31909 0.23722 0.22298 0.0
C57 C 0.15756 0.27898 0.20268 0.0
C58 C 0.12695 0.31161 0.17686 0.0
C59 C 0.09481 0.2873 0.18436 0.0
C60 C 0.12507 0.2554 0.21009 0.0
C61 C 0.09397 0.25947 0.20077 0.0
C62 C 0.15853 0.30695 0.18571 0.0
C63 C 0.31811 0.32353 0.23776 0.0
C64 C 0.1901 0.27398 0.21273 0.0
C65 C 0.24618 0.16205 0.12202 0.0
C66 C 0.26786 0.18995 0.10666 0.0
C67 C 0.24639 0.31477 0.29916 0.0
C68 C 0.36371 0.24599 0.34791 0.0
C69 C 0.39185 0.2146 0.37647 0.0
C70 C 0.38892 0.23972 0.40468 0.0
C71 C 0.36077 0.27104 0.3762 0.0
C72 C 0.37869 0.21753 0.34835 0.0
C73 C 0.37302 0.26762 0.4046 0.0
C74 C 0.24013 0.22675 0.29095 0.0
C75 C 0.35436 0.25029 0.3168 0.0
H76 H 0.07021 0.28966 0.17731 0.0
H77 H 0.12374 0.23359 0.22286 0.0
H78 H 0.06905 0.24098 0.20635 0.0
H79 H 0.18349 0.32549 0.1802 0.0
H80 H 0.39903 0.23774 0.42663 0.0
H81 H 0.34994 0.2936 0.37616 0.0
H82 H 0.38154 0.19848 0.32634 0.0
H83 H 0.37089 0.28703 0.42633 0.0
Tb84 Tb 0.75113 0.29793 0.27707 0.0
C85 C 0.85889 0.2085 0.19682 0.0
N86 N 0.82582 0.19661 0.21261 0.0
C87 C 0.81323 0.15073 0.16727 0.0
C88 C 0.87025 0.1922 0.16524 0.0
C89 C 0.80314 0.16775 0.1986 0.0
C90 C 0.84685 0.1631 0.15043 0.0
C91 C 0.9157 0.25071 0.19678 0.0
C92 C 0.88133 0.23738 0.21238 0.0
C93 C 0.92712 0.23465 0.16521 0.0
C94 C 0.90445 0.20549 0.14949 0.0
Tb95 Tb 0.81226 0.22761 0.26284 0.0
N96 N 0.86886 0.25311 0.24242 0.0
C97 C 0.93745 0.27985 0.21334 0.0
C98 C 0.89056 0.28041 0.25932 0.0
C99 C 0.92494 0.29451 0.24488 0.0
H100 H 0.77753 0.15733 0.21179 0.0
H101 H 0.94185 0.31655 0.25818 0.0
H102 H 0.78217 0.37124 0.32622 0.0
H103 H 0.62717 0.2003 0.28539 0.0
H104 H 0.8818 0.29128 0.28396 0.0
H105 H 0.96406 0.29092 0.20219 0.0
H106 H 0.68527 0.22903 0.25827 0.0
H107 H 0.79515 0.12796 0.15621 0.0
H108 H 0.95341 0.24459 0.15275 0.0
H109 H 0.91365 0.19339 0.12515 0.0
H110 H 0.7636 0.4009 0.38147 0.0
H111 H 0.85457 0.14985 0.12615 0.0
H112 H 0.60426 0.22577 0.34122 0.0
N113 N 0.73639 0.329 0.32691 0.0
C114 C 0.70426 0.31534 0.34337 0.0
C115 C 0.74678 0.37671 0.37113 0.0
C116 C 0.69235 0.33163 0.37478 0.0
C117 C 0.75747 0.35958 0.34003 0.0
C118 C 0.71416 0.3626 0.38867 0.0
N119 N 0.69648 0.26902 0.29887 0.0
C120 C 0.67617 0.23989 0.28279 0.0
C121 C 0.65013 0.26934 0.34511 0.0
C122 C 0.68341 0.28459 0.32874 0.0
C123 C 0.62998 0.23836 0.32945 0.0
C124 C 0.64291 0.22381 0.29801 0.0
H125 H 0.70597 0.37593 0.41278 0.0
H126 H 0.64962 0.32855 0.41549 0.0
H127 H 0.61269 0.27404 0.38954 0.0
O128 O 0.72056 0.30191 0.24166 0.0
O129 O 0.74513 0.26292 0.31444 0.0
O130 O 0.75717 0.21176 0.28439 0.0
O131 O 0.74076 0.34727 0.27543 0.0
O132 O 0.75169 0.2595 0.23173 0.0
O133 O 0.75991 0.20897 0.24597 0.0
O134 O 0.83147 0.21831 0.30378 0.0
O135 O 0.82238 0.26425 0.22669 0.0
O136 O 0.80537 0.31554 0.253 0.0
O137 O 0.82522 0.17887 0.26125 0.0
O138 O 0.81732 0.26955 0.30577 0.0
O139 O 0.80323 0.31939 0.29438 0.0
C140 C 0.74311 0.22882 0.31122 0.0
C141 C 0.7351 0.35672 0.22262 0.0
C142 C 0.72039 0.38324 0.17969 0.0
C143 C 0.75713 0.39541 0.17009 0.0
C144 C 0.77142 0.36905 0.21229 0.0
C145 C 0.78232 0.38829 0.18622 0.0
C146 C 0.70952 0.36395 0.20633 0.0
C147 C 0.74748 0.22509 0.2272 0.0
C148 C 0.724 0.33579 0.24991 0.0
C149 C 0.65922 0.31647 0.39128 0.0
C150 C 0.63817 0.28542 0.37649 0.0
C151 C 0.82397 0.29819 0.22922 0.0
C152 C 0.81436 0.15889 0.31234 0.0
C153 C 0.81616 0.12408 0.35428 0.0
C154 C 0.78025 0.10737 0.35224 0.0
C155 C 0.77892 0.14109 0.31001 0.0
C156 C 0.83297 0.15025 0.33442 0.0
C157 C 0.76186 0.11579 0.33015 0.0
C158 C 0.81935 0.30389 0.31086 0.0
C159 C 0.83225 0.18582 0.29127 0.0
H160 H 0.7665 0.41089 0.15022 0.0
H161 H 0.79134 0.36396 0.22457 0.0
H162 H 0.81045 0.39781 0.17853 0.0
H163 H 0.68141 0.35412 0.21402 0.0
H164 H 0.76671 0.08691 0.36689 0.0
H165 H 0.76461 0.14651 0.29232 0.0
H166 H 0.86053 0.16369 0.33593 0.0
H167 H 0.73448 0.10221 0.32823 0.0
Tb168 Tb 0.78554 0.75241 0.292 0.0
C169 C 0.86971 0.83201 0.17797 0.0
N170 N 0.86082 0.84296 0.21045 0.0
C171 C 0.91973 0.87874 0.21339 0.0
C172 C 0.90458 0.84309 0.1622 0.0
C173 C 0.88487 0.86688 0.22803 0.0
C174 C 0.92973 0.86662 0.1804 0.0
C175 C 0.85267 0.79546 0.12745 0.0
C176 C 0.84397 0.80849 0.16082 0.0
C177 C 0.88746 0.80627 0.11169 0.0
C178 C 0.91331 0.83009 0.12898 0.0
Tb179 Tb 0.80266 0.82388 0.23053 0.0
N180 N 0.81057 0.7983 0.17693 0.0
C181 C 0.82607 0.77214 0.11084 0.0
C182 C 0.78413 0.77714 0.16025 0.0
C183 C 0.79158 0.76323 0.12724 0.0
H184 H 0.87726 0.87762 0.25312 0.0
H185 H 0.77053 0.74617 0.1143 0.0
H186 H 0.72148 0.68474 0.26651 0.0
H187 H 0.79946 0.82201 0.41397 0.0
H188 H 0.75699 0.77187 0.17163 0.0
H189 H 0.83169 0.7615 0.0852 0.0
H190 H 0.82025 0.80065 0.35617 0.0
H191 H 0.93878 0.8975 0.2275 0.0
H192 H 0.89463 0.79647 0.08608 0.0
H193 H 0.94 0.8382 0.11646 0.0
H194 H 0.65795 0.66107 0.28389 0.0
H195 H 0.9568 0.87581 0.16917 0.0
H196 H 0.73554 0.80519 0.43588 0.0
N197 N 0.727 0.72637 0.30669 0.0
C198 C 0.71211 0.73857 0.33708 0.0
C199 C 0.67263 0.6834 0.29883 0.0
C200 C 0.67636 0.72462 0.34905 0.0
C201 C 0.70845 0.6976 0.28849 0.0
C202 C 0.65627 0.69743 0.329 0.0
N203 N 0.76848 0.77414 0.34522 0.0
C204 C 0.79232 0.79394 0.36542 0.0
C205 C 0.72066 0.77397 0.3901 0.0
C206 C 0.73378 0.76287 0.35733 0.0
C207 C 0.74452 0.79616 0.41046 0.0
C208 C 0.78062 0.80574 0.39819 0.0
H209 H 0.62871 0.68595 0.33726 0.0
H210 H 0.63495 0.72681 0.39071 0.0
H211 H 0.67383 0.77004 0.42672 0.0
O212 O 0.82858 0.74106 0.30921 0.0
O213 O 0.76773 0.80263 0.31016 0.0
O214 O 0.75267 0.81726 0.26471 0.0
O215 O 0.7811 0.70137 0.30177 0.0
O216 O 0.83593 0.79056 0.28569 0.0
O217 O 0.82308 0.84164 0.27784 0.0
O218 O 0.78508 0.84965 0.19884 0.0
O219 O 0.83983 0.78766 0.22304 0.0
O220 O 0.80497 0.73666 0.24016 0.0
O221 O 0.80892 0.87877 0.24116 0.0
O222 O 0.75167 0.78498 0.2306 0.0
O223 O 0.76183 0.73546 0.24633 0.0
C224 C 0.74917 0.81856 0.2967 0.0
C225 C 0.81184 0.6972 0.34386 0.0
C226 C 0.83917 0.66821 0.37617 0.0
C227 C 0.81016 0.66965 0.40125 0.0
C228 C 0.78336 0.69845 0.36925 0.0
C229 C 0.7827 0.68493 0.39784 0.0
C230 C 0.83982 0.68239 0.34751 0.0
C231 C 0.84028 0.82486 0.29174 0.0
C232 C 0.81164 0.70903 0.31262 0.0
C233 C 0.66244 0.73701 0.38115 0.0
C234 C 0.68459 0.76159 0.40168 0.0
C235 C 0.83304 0.75318 0.22223 0.0
C236 C 0.76249 0.89885 0.22604 0.0
C237 C 0.71782 0.9229 0.20882 0.0
C238 C 0.70633 0.9341 0.24198 0.0
C239 C 0.75049 0.91036 0.25897 0.0
C240 C 0.74612 0.90532 0.20105 0.0
C241 C 0.72261 0.92788 0.26678 0.0
C242 C 0.74367 0.75088 0.23199 0.0
C243 C 0.79181 0.87998 0.21746 0.0
H244 H 0.80815 0.65827 0.42329 0.0
H245 H 0.76121 0.70904 0.36672 0.0
H246 H 0.76045 0.68565 0.41718 0.0
H247 H 0.86185 0.68173 0.32789 0.0
H248 H 0.68511 0.94827 0.24881 0.0
H249 H 0.7625 0.90576 0.27876 0.0
H250 H 0.75516 0.89626 0.17563 0.0
H251 H 0.71362 0.93677 0.29219 0.0
Tb252 Tb 0.25769 0.78801 0.26645 0.0
C253 C 0.3312 0.69046 0.32105 0.0
N254 N 0.34545 0.72221 0.31084 0.0
C255 C 0.37634 0.74179 0.35798 0.0
C256 C 0.33834 0.68339 0.3507 0.0
C257 C 0.36827 0.74765 0.32848 0.0
C258 C 0.36114 0.7096 0.36927 0.0
C259 C 0.29272 0.63231 0.31201 0.0
C260 C 0.3084 0.66544 0.30207 0.0
C261 C 0.29951 0.62517 0.34168 0.0
C262 C 0.32224 0.65065 0.361 0.0
Tb263 Tb 0.32755 0.73023 0.26429 0.0
N264 N 0.30149 0.67376 0.27403 0.0
C265 C 0.27091 0.60726 0.29171 0.0
C266 C 0.28235 0.64841 0.25304 0.0
C267 C 0.26624 0.61516 0.26184 0.0
H268 H 0.38061 0.77235 0.31964 0.0
H269 H 0.25055 0.59548 0.24534 0.0
H270 H 0.23072 0.75461 0.1938 0.0
H271 H 0.32517 0.92013 0.315 0.0
H272 H 0.27986 0.65289 0.22908 0.0
H273 H 0.25836 0.58148 0.29843 0.0
H274 H 0.29012 0.86043 0.31913 0.0
H275 H 0.39424 0.76211 0.37201 0.0
H276 H 0.28747 0.59995 0.34983 0.0
H277 H 0.32723 0.64476 0.38381 0.0
H278 H 0.23637 0.77447 0.14011 0.0
H279 H 0.36727 0.70522 0.39224 0.0
H280 H 0.34017 0.94163 0.26144 0.0
N281 N 0.26297 0.80216 0.21504 0.0
C282 C 0.28049 0.83582 0.21151 0.0
C283 C 0.24919 0.79182 0.15988 0.0
C284 C 0.28431 0.84822 0.18133 0.0
C285 C 0.24625 0.78053 0.19016 0.0
C286 C 0.26854 0.82569 0.15535 0.0
N287 N 0.29015 0.84505 0.26732 0.0
C288 C 0.29867 0.86797 0.29505 0.0
C289 C 0.31369 0.89248 0.23508 0.0
C290 C 0.29522 0.85754 0.23817 0.0
C291 C 0.32587 0.91465 0.26281 0.0
C292 C 0.31765 0.90255 0.29304 0.0
H293 H 0.27084 0.8343 0.13181 0.0
H294 H 0.30718 0.89246 0.15493 0.0
H295 H 0.33277 0.93125 0.20197 0.0
O296 O 0.22499 0.82091 0.29412 0.0
O297 O 0.29811 0.77876 0.22363 0.0
O298 O 0.34573 0.78168 0.24811 0.0
O299 O 0.20545 0.78057 0.25582 0.0
O300 O 0.28616 0.79969 0.31014 0.0
O301 O 0.3395 0.78575 0.28634 0.0
O302 O 0.3515 0.70913 0.21858 0.0
O303 O 0.28734 0.72859 0.30765 0.0
O304 O 0.23797 0.74603 0.29758 0.0
O305 O 0.38007 0.72399 0.26047 0.0
O306 O 0.28919 0.71319 0.22744 0.0
O307 O 0.23868 0.73196 0.25303 0.0
C308 C 0.33244 0.7887 0.2243 0.0
C309 C 0.19464 0.83666 0.25701 0.0
C310 C 0.19935 0.89878 0.25499 0.0
C311 C 0.19161 0.89031 0.22259 0.0
C312 C 0.18597 0.82841 0.22477 0.0
C313 C 0.18499 0.85519 0.20758 0.0
C314 C 0.20083 0.87178 0.27188 0.0
C315 C 0.32011 0.80097 0.31097 0.0
C316 C 0.20118 0.80981 0.27407 0.0
C317 C 0.3037 0.88256 0.17801 0.0
C318 C 0.3184 0.90459 0.20477 0.0
C319 C 0.25338 0.72893 0.3132 0.0
C320 C 0.40976 0.74343 0.21083 0.0
C321 C 0.43417 0.76515 0.15884 0.0
C322 C 0.45443 0.79541 0.17558 0.0
C323 C 0.42989 0.77416 0.22737 0.0
C324 C 0.41225 0.73922 0.17672 0.0
C325 C 0.4522 0.79984 0.20973 0.0
C326 C 0.25446 0.71133 0.23042 0.0
C327 C 0.38272 0.71782 0.22868 0.0
H328 H 0.18973 0.91067 0.20933 0.0
H329 H 0.18065 0.80143 0.21258 0.0
H330 H 0.17876 0.84865 0.18266 0.0
H331 H 0.20598 0.87795 0.29719 0.0
H332 H 0.47205 0.81539 0.16225 0.0
H333 H 0.42794 0.77874 0.25388 0.0
H334 H 0.39724 0.71518 0.16406 0.0
H335 H 0.46756 0.8234 0.22261 0.0
Tb336 Tb 0.24966 0.81328 0.7757 0.0
C337 C 0.35572 0.72399 0.68972 0.0
N338 N 0.32453 0.71165 0.70826 0.0
C339 C 0.31049 0.66228 0.66622 0.0
C340 C 0.36534 0.70613 0.65834 0.0
C341 C 0.30217 0.68089 0.69727 0.0
C342 C 0.34212 0.67504 0.64658 0.0
C343 C 0.41068 0.76849 0.68404 0.0
C344 C 0.37809 0.75472 0.70235 0.0
C345 C 0.42035 0.75093 0.65263 0.0
C346 C 0.39773 0.71984 0.63981 0.0
Tb347 Tb 0.31346 0.74507 0.75778 0.0
N348 N 0.36721 0.77168 0.73233 0.0
C349 C 0.43248 0.7995 0.69786 0.0
C350 C 0.38909 0.80093 0.7466 0.0
C351 C 0.42178 0.81558 0.72941 0.0
H352 H 0.27831 0.67024 0.71275 0.0
H353 H 0.43875 0.83919 0.74056 0.0
H354 H 0.27222 0.8704 0.84104 0.0
H355 H 0.12498 0.72216 0.7521 0.0
H356 H 0.38145 0.81317 0.77106 0.0
H357 H 0.45776 0.81099 0.68457 0.0
H358 H 0.18369 0.7592 0.73678 0.0
H359 H 0.29263 0.63799 0.65757 0.0
H360 H 0.44527 0.76114 0.63808 0.0
H361 H 0.40557 0.70655 0.61558 0.0
H362 H 0.24707 0.88359 0.89902 0.0
H363 H 0.34852 0.66054 0.62255 0.0
H364 H 0.0976 0.72678 0.81021 0.0
N365 N 0.22776 0.8296 0.82895 0.0
C366 C 0.19455 0.81171 0.83947 0.0
C367 C 0.23208 0.86317 0.88257 0.0
C368 C 0.17902 0.81834 0.87233 0.0
C369 C 0.24646 0.85542 0.84978 0.0
C370 C 0.19829 0.84441 0.89397 0.0
N371 N 0.19297 0.78001 0.78591 0.0
C372 C 0.17376 0.7593 0.76233 0.0
C373 C 0.14227 0.76646 0.82721 0.0
C374 C 0.17672 0.78579 0.8173 0.0
C375 C 0.12413 0.74217 0.80365 0.0
C376 C 0.13963 0.73923 0.77089 0.0
H377 H 0.18732 0.85029 0.91945 0.0
H378 H 0.13283 0.80294 0.90778 0.0
H379 H 0.10048 0.75771 0.8682 0.0
O380 O 0.22674 0.82958 0.74074 0.0
O381 O 0.24909 0.77991 0.81264 0.0
O382 O 0.25965 0.7279 0.78291 0.0
O383 O 0.23942 0.86415 0.78495 0.0
O384 O 0.24835 0.77426 0.7302 0.0
O385 O 0.26018 0.72439 0.7429 0.0
O386 O 0.34248 0.74159 0.79453 0.0
O387 O 0.31968 0.78168 0.72195 0.0
O388 O 0.30338 0.83157 0.7517 0.0
O389 O 0.3263 0.69668 0.75878 0.0
O390 O 0.319 0.7861 0.80123 0.0
O391 O 0.30195 0.83561 0.79277 0.0
C392 C 0.24409 0.7455 0.80872 0.0
C393 C 0.24715 0.89001 0.73683 0.0
C394 C 0.24665 0.92406 0.69373 0.0
C395 C 0.28136 0.94298 0.69841 0.0
C396 C 0.28154 0.90976 0.74142 0.0
C397 C 0.29854 0.93591 0.72218 0.0
C398 C 0.22976 0.89733 0.713 0.0
C399 C 0.24571 0.73983 0.72505 0.0
C400 C 0.22948 0.8615 0.75638 0.0
C401 C 0.14513 0.79844 0.88256 0.0
C402 C 0.12679 0.77256 0.86005 0.0
C403 C 0.31942 0.81535 0.72543 0.0
C404 C 0.33028 0.68597 0.81152 0.0
C405 C 0.34546 0.65816 0.85319 0.0
C406 C 0.30882 0.6448 0.86222 0.0
C407 C 0.29402 0.67244 0.82115 0.0
C408 C 0.35602 0.67872 0.82752 0.0
C409 C 0.28341 0.65198 0.84636 0.0
C410 C 0.32061 0.82032 0.80698 0.0
C411 C 0.34132 0.70816 0.78527 0.0
H412 H 0.2949 0.96394 0.68433 0.0
H413 H 0.29533 0.90494 0.75986 0.0
H414 H 0.32509 0.95095 0.72586 0.0
H415 H 0.20319 0.88214 0.70942 0.0
H416 H 0.29972 0.62836 0.88138 0.0
H417 H 0.27395 0.67755 0.80905 0.0
H418 H 0.38404 0.68951 0.82033 0.0
H419 H 0.25536 0.64153 0.85358 0.0
Tb420 Tb 0.26033 0.22264 0.80462 0.0
C421 C 0.35095 0.31574 0.698 0.0
N422 N 0.33328 0.32716 0.72735 0.0
C423 C 0.38109 0.37799 0.73487 0.0
C424 C 0.3848 0.33477 0.68612 0.0
C425 C 0.34735 0.35838 0.74538 0.0
C426 C 0.40007 0.36597 0.70524 0.0
C427 C 0.35086 0.27351 0.64799 0.0
C428 C 0.33431 0.28553 0.67922 0.0
C429 C 0.38497 0.2919 0.63629 0.0
C430 C 0.40193 0.32243 0.65534 0.0
Tb431 Tb 0.27893 0.29245 0.74231 0.0
N432 N 0.30146 0.26825 0.69156 0.0
C433 C 0.33235 0.24372 0.62932 0.0
C434 C 0.28255 0.24042 0.67276 0.0
C435 C 0.29787 0.22736 0.64163 0.0
H436 H 0.33206 0.36872 0.76735 0.0
H437 H 0.28297 0.20488 0.62704 0.0
H438 H 0.19927 0.1521 0.7779 0.0
H439 H 0.26488 0.31169 0.91886 0.0
H440 H 0.25571 0.22835 0.68162 0.0
H441 H 0.34411 0.23362 0.60516 0.0
H442 H 0.288 0.28826 0.86275 0.0
H443 H 0.39219 0.4026 0.74939 0.0
H444 H 0.39825 0.28299 0.6124 0.0
H445 H 0.42802 0.33662 0.64583 0.0
H446 H 0.13915 0.12129 0.79883 0.0
H447 H 0.42606 0.38138 0.69701 0.0
H448 H 0.20519 0.28333 0.94429 0.0
N449 N 0.20451 0.19136 0.82025 0.0
C450 C 0.18988 0.20241 0.85118 0.0
C451 C 0.153 0.14427 0.81368 0.0
C452 C 0.15588 0.18496 0.86442 0.0
C453 C 0.18692 0.16226 0.80164 0.0
C454 C 0.13733 0.15574 0.84513 0.0
N455 N 0.24124 0.24855 0.85557 0.0
C456 C 0.26168 0.27633 0.87313 0.0
C457 C 0.19495 0.24366 0.90182 0.0
C458 C 0.20914 0.23146 0.86967 0.0
C459 C 0.21515 0.27312 0.9195 0.0
C460 C 0.24877 0.28935 0.90515 0.0
H461 H 0.11111 0.14161 0.85442 0.0
H462 H 0.11544 0.18403 0.90703 0.0
H463 H 0.14964 0.23536 0.93974 0.0
O464 O 0.30022 0.21734 0.82996 0.0
O465 O 0.22474 0.26046 0.81354 0.0
O466 O 0.25681 0.31083 0.79261 0.0
O467 O 0.25675 0.1736 0.81871 0.0
O468 O 0.3113 0.26142 0.79987 0.0
O469 O 0.30059 0.31216 0.78833 0.0
O470 O 0.23779 0.29501 0.71695 0.0
O471 O 0.31438 0.25428 0.73333 0.0
O472 O 0.28401 0.20358 0.75501 0.0
O473 O 0.27602 0.34181 0.73289 0.0
O474 O 0.22896 0.25323 0.74913 0.0
O475 O 0.24001 0.20206 0.75797 0.0
C476 C 0.22971 0.29429 0.81159 0.0
C477 C 0.31216 0.16094 0.81913 0.0
C478 C 0.35584 0.13247 0.83123 0.0
C479 C 0.36111 0.11777 0.79797 0.0
C480 C 0.31704 0.14545 0.78625 0.0
C481 C 0.34173 0.12429 0.77562 0.0
C482 C 0.33158 0.15449 0.84154 0.0
C483 C 0.3179 0.2959 0.80254 0.0
C484 C 0.28694 0.18386 0.8304 0.0
C485 C 0.14156 0.1971 0.89644 0.0
C486 C 0.16106 0.22632 0.9151 0.0
C487 C 0.30985 0.22037 0.73504 0.0
C488 C 0.25027 0.34211 0.68631 0.0
C489 C 0.22538 0.37402 0.65493 0.0
C490 C 0.25376 0.37129 0.62949 0.0
C491 C 0.27829 0.3396 0.66074 0.0
C492 C 0.22381 0.3591 0.68326 0.0
C493 C 0.27993 0.35404 0.63241 0.0
C494 C 0.22437 0.21899 0.74282 0.0
C495 C 0.24876 0.32887 0.71709 0.0
H496 H 0.37937 0.10041 0.78943 0.0
H497 H 0.30138 0.14942 0.76906 0.0
H498 H 0.34542 0.11246 0.75016 0.0
H499 H 0.32766 0.1665 0.867 0.0
H500 H 0.25611 0.383 0.60757 0.0
H501 H 0.29909 0.32701 0.66274 0.0
H502 H 0.20203 0.36068 0.70303 0.0
H503 H 0.30177 0.35224 0.61283 0.0
Tb504 Tb 0.72931 0.32029 0.77703 0.0
C505 C 0.80141 0.21991 0.81069 0.0
N506 N 0.8178 0.25132 0.80043 0.0
C507 C 0.85305 0.26559 0.84474 0.0
C508 C 0.80875 0.21102 0.8395 0.0
C509 C 0.84524 0.27286 0.81569 0.0
C510 C 0.83416 0.2349 0.85713 0.0
C511 C 0.76289 0.16196 0.79956 0.0
C512 C 0.77897 0.19555 0.79097 0.0
C513 C 0.76871 0.15362 0.82908 0.0
C514 C 0.79156 0.17812 0.84904 0.0
Tb515 Tb 0.79979 0.26103 0.75418 0.0
N516 N 0.77308 0.20492 0.76309 0.0
C517 C 0.74187 0.13768 0.77796 0.0
C518 C 0.7545 0.18075 0.74093 0.0
C519 C 0.73812 0.14696 0.74829 0.0
H520 H 0.8618 0.2953 0.80525 0.0
H521 H 0.72262 0.1281 0.7311 0.0
H522 H 0.70112 0.31103 0.70546 0.0
H523 H 0.76287 0.43722 0.86543 0.0
H524 H 0.75185 0.18777 0.71789 0.0
H525 H 0.72904 0.11154 0.78365 0.0
H526 H 0.74068 0.37366 0.84763 0.0
H527 H 0.87413 0.28333 0.8572 0.0
H528 H 0.75626 0.12806 0.83637 0.0
H529 H 0.79656 0.17099 0.8713 0.0
H530 H 0.70371 0.34846 0.66333 0.0
H531 H 0.84057 0.22911 0.87942 0.0
H532 H 0.77629 0.479 0.82525 0.0
N533 N 0.72807 0.35312 0.73789 0.0
C534 C 0.74096 0.38827 0.74459 0.0
C535 C 0.71454 0.35997 0.686 0.0
C536 C 0.74298 0.4107 0.72156 0.0
C537 C 0.713 0.3389 0.70985 0.0
C538 C 0.73022 0.39596 0.69162 0.0
N539 N 0.74435 0.37901 0.79737 0.0
C540 C 0.74748 0.3915 0.82968 0.0
C541 C 0.7615 0.43831 0.78462 0.0
C542 C 0.74985 0.40172 0.7755 0.0
C543 C 0.76725 0.45105 0.81719 0.0
C544 C 0.75965 0.42756 0.83995 0.0
H545 H 0.73127 0.41226 0.67319 0.0
H546 H 0.75856 0.46484 0.7123 0.0
H547 H 0.77496 0.48909 0.76764 0.0
O548 O 0.68474 0.3365 0.80619 0.0
O549 O 0.7671 0.32444 0.73146 0.0
O550 O 0.81842 0.31539 0.74397 0.0
O551 O 0.67844 0.28965 0.77062 0.0
O552 O 0.76786 0.32794 0.81275 0.0
O553 O 0.81879 0.31325 0.78227 0.0
O554 O 0.82189 0.24889 0.70503 0.0
O555 O 0.74554 0.24304 0.77952 0.0
O556 O 0.73647 0.29174 0.81433 0.0
O557 O 0.84491 0.2395 0.74478 0.0
O558 O 0.76575 0.25529 0.71607 0.0
O559 O 0.71433 0.26931 0.74589 0.0
C560 C 0.80194 0.33124 0.7285 0.0
C561 C 0.64258 0.2849 0.82072 0.0
C562 C 0.62858 0.27336 0.87732 0.0
C563 C 0.60812 0.23992 0.86695 0.0
C564 C 0.62218 0.25118 0.81066 0.0
C565 C 0.60521 0.22883 0.83367 0.0
C566 C 0.64565 0.29566 0.85405 0.0
C567 C 0.80285 0.33124 0.80775 0.0
C568 C 0.66322 0.30707 0.79608 0.0
C569 C 0.75636 0.44709 0.72975 0.0
C570 C 0.76569 0.46088 0.76126 0.0
C571 C 0.73312 0.25765 0.8085 0.0
C572 C 0.88472 0.25886 0.70057 0.0
C573 C 0.94793 0.25932 0.69149 0.0
C574 C 0.95532 0.29213 0.68049 0.0
C575 C 0.89215 0.29193 0.69011 0.0
C576 C 0.91249 0.24292 0.70107 0.0
C577 C 0.92743 0.30843 0.68003 0.0
C578 C 0.73132 0.25358 0.71972 0.0
C579 C 0.849 0.24098 0.71364 0.0
H580 H 0.59439 0.22254 0.88455 0.0
H581 H 0.61982 0.2419 0.78493 0.0
H582 H 0.5897 0.20288 0.82568 0.0
H583 H 0.66087 0.32181 0.86205 0.0
H584 H 0.98242 0.30486 0.67208 0.0
H585 H 0.87093 0.3049 0.68978 0.0
H586 H 0.90615 0.21699 0.70851 0.0
H587 H 0.93312 0.3338 0.67172 0.0
Tb588 Tb 0.75301 0.76625 0.73849 0.0
C589 C 0.82747 0.84913 0.85721 0.0
N590 N 0.83862 0.84057 0.82464 0.0
C591 C 0.87294 0.89959 0.82274 0.0
C592 C 0.83829 0.88363 0.87361 0.0
C593 C 0.86177 0.86499 0.8075 0.0
C594 C 0.86111 0.90899 0.85589 0.0
C595 C 0.79241 0.83128 0.90772 0.0
C596 C 0.80451 0.82321 0.87407 0.0
C597 C 0.80342 0.8656 0.92413 0.0
C598 C 0.8262 0.89168 0.90713 0.0
Tb599 Tb 0.82196 0.78217 0.80523 0.0
N600 N 0.79361 0.79035 0.8573 0.0
C601 C 0.76942 0.80464 0.92383 0.0
C602 C 0.77153 0.76417 0.87296 0.0
C603 C 0.75895 0.77097 0.90637 0.0
H604 H 0.87278 0.858 0.78241 0.0
H605 H 0.7415 0.75014 0.91873 0.0
H606 H 0.6768 0.7137 0.7646 0.0
H607 H 0.82251 0.76964 0.61585 0.0
H608 H 0.7646 0.73773 0.86027 0.0
H609 H 0.7596 0.80978 0.9497 0.0
H610 H 0.80561 0.7935 0.67377 0.0
H611 H 0.8912 0.91885 0.80903 0.0
H612 H 0.79436 0.87228 0.94999 0.0
H613 H 0.83435 0.91804 0.92017 0.0
H614 H 0.64207 0.65405 0.74721 0.0
H615 H 0.87007 0.93579 0.86764 0.0
H616 H 0.79493 0.70821 0.59411 0.0
N617 N 0.71752 0.71204 0.72378 0.0
C618 C 0.72688 0.69494 0.69354 0.0
C619 C 0.66622 0.66495 0.73208 0.0
C620 C 0.70678 0.66162 0.68162 0.0
C621 C 0.68648 0.69841 0.74229 0.0
C622 C 0.67674 0.64618 0.7018 0.0
N623 N 0.77166 0.74544 0.68534 0.0
C624 C 0.79465 0.76644 0.66479 0.0
C625 C 0.76266 0.69785 0.64033 0.0
C626 C 0.7546 0.71251 0.67334 0.0
C627 C 0.78809 0.71842 0.61968 0.0
C628 C 0.80376 0.75308 0.63187 0.0
H629 H 0.66059 0.62059 0.6936 0.0
H630 H 0.70123 0.62002 0.6399 0.0
H631 H 0.75005 0.65195 0.60358 0.0
O632 O 0.75014 0.81281 0.72238 0.0
O633 O 0.80047 0.74311 0.72104 0.0
O634 O 0.82483 0.73688 0.76626 0.0
O635 O 0.70416 0.77034 0.72733 0.0
O636 O 0.79468 0.81317 0.7495 0.0
O637 O 0.84519 0.80024 0.75826 0.0
O638 O 0.84061 0.75791 0.83752 0.0
O639 O 0.78124 0.815 0.81322 0.0
O640 O 0.73203 0.78141 0.78967 0.0
O641 O 0.8768 0.79402 0.80818 0.0
O642 O 0.78473 0.73085 0.80014 0.0
O643 O 0.73534 0.73993 0.78201 0.0
C644 C 0.82117 0.72961 0.73476 0.0
C645 C 0.70663 0.80514 0.68723 0.0
C646 C 0.67578 0.83483 0.65947 0.0
C647 C 0.67896 0.80985 0.6312 0.0
C648 C 0.70944 0.78011 0.65892 0.0
C649 C 0.69611 0.78279 0.63088 0.0
C650 C 0.69023 0.83279 0.68723 0.0
C651 C 0.82867 0.81422 0.74115 0.0
C652 C 0.71689 0.80096 0.71805 0.0
C653 C 0.7162 0.64571 0.64944 0.0
C654 C 0.744 0.66389 0.62876 0.0
C655 C 0.74684 0.80768 0.81063 0.0
C656 C 0.89805 0.74684 0.81955 0.0
C657 C 0.92363 0.70211 0.83454 0.0
C658 C 0.94643 0.70255 0.80448 0.0
C659 C 0.92062 0.74594 0.78954 0.0
C660 C 0.89944 0.72465 0.84188 0.0
C661 C 0.94459 0.72395 0.78216 0.0
C662 C 0.75103 0.72142 0.79554 0.0
C663 C 0.8738 0.77146 0.82808 0.0
H664 H 0.66793 0.81118 0.60955 0.0
H665 H 0.72083 0.75796 0.65866 0.0
H666 H 0.69825 0.76336 0.60917 0.0
H667 H 0.68717 0.8517 0.70928 0.0
H668 H 0.96628 0.68676 0.79819 0.0
H669 H 0.91998 0.76237 0.77174 0.0
H670 H 0.88154 0.72493 0.86475 0.0
H671 H 0.96215 0.72375 0.75912 0.0
Fe672 Fe 1.02852 0.0958 0.51866 0.0
O673 O 1.03102 0.04631 0.50452 0.0
Fe674 Fe 0.07682 0.03104 0.50965 0.0
Fe675 Fe 0.9951 1.00688 0.52307 0.0
O676 O 0.03441 0.0475 0.50408 0.0
O677 O 0.04114 0.9911 0.52755 0.0
O678 O 0.03769 0.9898 0.52778 0.0
Fe679 Fe 0.04429 0.94169 0.51113 0.0
C680 C 0.98933 0.06414 0.5786 0.0
O681 O 0.98716 0.07983 0.49167 0.0
O682 O 0.955 0.02989 0.51341 0.0
O683 O 0.08362 0.95374 0.47218 0.0
O684 O 0.07519 1.00432 0.4638 0.0
O685 O 0.10922 0.07462 0.48762 0.0
O686 O 0.06882 0.10564 0.48073 0.0
O687 O 0.99261 0.98008 0.47683 0.0
O688 O 1.0058 0.92933 0.47994 0.0
C689 C 0.09996 0.09799 0.47443 0.0
O690 O 0.0848 0.95669 0.53918 0.0
O691 O 0.11684 1.00817 0.52002 0.0
O692 O 0.99067 0.08485 0.55833 0.0
O693 O 0.99675 0.03416 0.56967 0.0
C694 C 0.9591 0.05464 0.49533 0.0
C695 C 0.99209 0.94793 0.46615 0.0
C696 C 0.97231 0.93837 0.5559 0.0
O697 O 0.963 0.96295 0.54449 0.0
O698 O 1.00318 0.93017 0.54818 0.0
C699 C 0.08781 0.97735 0.45411 0.0
O700 O 0.07876 0.05868 0.55552 0.0
O701 O 0.06812 0.10943 0.54872 0.0
C702 C 0.11249 0.98259 0.53722 0.0
C703 C 0.0813 0.09154 0.56378 0.0
Fe704 Fe 0.53404 0.9822 1.01389 0.0
O705 O 0.56214 0.02428 0.99355 0.0
Fe706 Fe 0.45457 1.00869 0.04769 0.0
Fe707 Fe 0.61448 0.03731 0.98717 0.0
O708 O 0.50677 1.01701 0.04075 0.0
O709 O 0.50701 1.02094 0.04161 0.0
O710 O 0.56232 0.0281 0.9943 0.0
Fe711 Fe 0.53512 0.0629 0.02105 0.0
C712 C 0.60041 0.99543 0.04509 0.0
O713 O 0.56807 0.95155 0.98223 0.0
O714 O 0.60824 0.99203 0.95315 0.0
O715 O 0.50227 0.0522 0.98565 0.0
O716 O 0.44992 0.0421 0.01716 0.0
O717 O 0.44798 0.96806 1.00887 0.0
O718 O 0.50094 0.96984 0.97795 0.0
O719 O 0.6078 0.07152 0.95861 0.0
O720 O 0.56894 0.10192 0.99346 0.0
C721 C 0.46701 0.96146 0.9815 0.0
O722 O 0.50081 0.09356 0.05314 0.0
O723 O 0.46157 0.05299 0.08286 0.0
O724 O 0.56684 0.99246 0.04951 0.0
O725 O 0.62003 1.00606 0.01961 0.0
C726 C 0.5933 0.95998 0.9581 0.0
C727 C 0.5923 0.09789 0.96722 0.0
C728 C 0.60227 0.08619 0.05181 0.0
O729 O 0.62047 0.08014 0.0239 0.0
O730 O 0.56861 0.07512 0.05669 0.0
C731 C 0.46908 0.05109 0.99096 0.0
O732 O 0.45984 0.97211 0.07474 0.0
O733 O 0.50003 0.94296 0.04031 0.0
C734 C 0.4758 0.08513 0.07757 0.0
C735 C 0.4755 0.94588 0.06563 0.0
Fe736 Fe 0.03665 0.56352 0.02294 0.0
O737 O 1.00304 0.52267 0.04143 0.0
Fe738 Fe 0.11036 0.52724 0.98952 0.0
Fe739 Fe 0.9508 0.51629 0.04636 0.0
O740 O 0.05918 0.5253 0.99569 0.0
O741 O 0.05806 0.52103 0.99389 0.0
O742 O 1.00195 0.51847 0.0397 0.0
Fe743 Fe 1.02441 0.48024 1.01248 0.0
C744 C 0.97958 0.59069 0.07852 0.0
O745 O 1.00569 0.5587 0.98663 0.0
O746 O 0.95177 0.55235 1.01579 0.0
O747 O 0.05482 0.44584 0.98023 0.0
O748 O 0.09966 0.48484 0.95365 0.0
O749 O 0.11085 0.566 0.96285 0.0
O750 O 0.07525 0.60046 0.99703 0.0
O751 O 0.94059 0.47594 1.0082 0.0
O752 O 0.99173 0.47261 0.97596 0.0
C753 C 0.09836 0.59434 0.97121 0.0
O754 O 0.05528 0.48535 0.04875 0.0
O755 O 0.10908 0.49067 0.01986 0.0
O756 O 1.00623 0.59798 0.05514 0.0
O757 O 0.96159 0.55907 0.08196 0.0
C758 C 0.97356 0.5618 0.99097 0.0
C759 C 0.95767 0.46652 0.98057 0.0
C760 C 0.96361 0.4497 0.06493 0.0
O761 O 0.95094 0.47795 0.07324 0.0
O762 O 0.98618 0.44337 0.03873 0.0
C763 C 0.08142 0.45325 0.95682 0.0
O764 O 0.1204 0.56713 0.028 0.0
O765 O 0.06897 0.57077 0.05962 0.0
C766 C 0.087 0.48119 0.04449 0.0
C767 C 0.10297 0.57609 0.05557 0.0
Fe768 Fe 0.53754 0.51417 0.97833 0.0
O769 O 0.56506 0.54598 1.01272 0.0
Fe770 Fe 0.45153 0.49481 0.01832 0.0
Fe771 Fe 0.61626 0.54881 1.01371 0.0
O772 O 0.50236 0.49889 0.01622 0.0
O773 O 0.50269 0.49768 0.0194 0.0
O774 O 0.56541 0.54473 1.01595 0.0
Fe775 Fe 0.53032 0.52922 0.0538 0.0
C776 C 0.59358 0.47505 0.98159 0.0
O777 O 0.57878 0.53443 0.9429 0.0
O778 O 0.62068 0.57263 0.97319 0.0
O779 O 0.50694 0.56855 0.05035 0.0
O780 O 0.44998 0.54122 0.04975 0.0
O781 O 0.45683 0.52219 0.97985 0.0
O782 O 0.51286 0.55325 0.97347 0.0
O783 O 0.61161 0.59107 0.04989 0.0
O784 O 0.56343 0.56542 0.08475 0.0
C785 C 0.48006 0.54833 0.97035 0.0
O786 O 0.48935 0.50919 0.08927 0.0
O787 O 0.4468 0.47162 0.05936 0.0
O788 O 0.56104 0.47499 0.98225 0.0
O789 O 0.61781 0.50312 0.98143 0.0
C790 C 0.60679 0.56006 0.94625 0.0
C791 C 0.59164 0.5899 0.07814 0.0
C792 C 0.58766 0.49469 0.06161 0.0
O793 O 0.61115 0.52043 0.05159 0.0
O794 O 0.55488 0.48999 0.05846 0.0
C795 C 0.47462 0.56907 0.05065 0.0
O796 O 0.45629 0.45209 0.98277 0.0
O797 O 0.50429 0.47745 0.94751 0.0
C798 C 0.46106 0.48398 0.08611 0.0
C799 C 0.47608 0.45298 0.9544 0.0
Fe800 Fe 0.03713 0.44463 0.5172 0.0
O801 O 0.04771 0.49627 0.51979 0.0
Fe802 Fe 0.04042 0.51598 0.47831 0.0
Fe803 Fe 1.02547 0.52824 0.55626 0.0
O804 O 0.04919 0.49582 0.51584 0.0
O805 O 1.01801 0.54782 0.51485 0.0
O806 O 1.01668 0.54835 0.51877 0.0
Fe807 Fe 1.02801 0.59944 0.51769 0.0
C808 C 0.9697 0.46163 0.56166 0.0
O809 O 0.0647 0.45838 0.55693 0.0
O810 O 0.04005 0.50268 0.58996 0.0
O811 O 0.07257 0.60185 0.48357 0.0
O812 O 0.08952 0.55086 0.47703 0.0
O813 O 0.06725 0.4789 0.44539 0.0
O814 O 0.07971 0.4466 0.48074 0.0
O815 O 0.0743 0.56281 0.55879 0.0
O816 O 0.05997 0.61267 0.55507 0.0
C817 C 0.08434 0.45699 0.45235 0.0
O818 O 1.00016 0.58533 0.47805 0.0
O819 O 1.02544 0.54158 0.44469 0.0
O820 O 0.99216 0.44243 0.55122 0.0
O821 O 0.97617 0.49381 0.55758 0.0
C822 C 0.0592 0.47895 0.58441 0.0
C823 C 0.0794 0.59621 0.56494 0.0
C824 C 0.98131 0.58644 0.58248 0.0
O825 O 0.99902 0.56506 0.58926 0.0
O826 O 0.98549 0.59708 0.55427 0.0
C827 C 0.0954 0.58309 0.4732 0.0
O828 O 0.99159 0.4815 0.47582 0.0
O829 O 1.00566 0.4316 0.47964 0.0
C830 C 1.00573 0.56489 0.45048 0.0
C831 C 0.98638 0.44813 0.46972 0.0
Fe832 Fe 0.53931 0.94411 0.51454 0.0
O833 O 0.54574 0.9954 0.5184 0.0
Fe834 Fe 0.5393 1.01535 0.47702 0.0
Fe835 Fe 0.51942 0.02439 0.55451 0.0
O836 O 0.54767 0.99522 0.5146 0.0
O837 O 0.5129 0.04427 0.51313 0.0
O838 O 0.51088 0.0444 0.51692 0.0
Fe839 Fe 0.51892 0.0954 0.51658 0.0
C840 C 0.46851 0.95462 0.55626 0.0
O841 O 0.56508 0.95943 0.55558 0.0
O842 O 0.53392 0.9991 0.58833 0.0
O843 O 0.56458 0.10102 0.48395 0.0
O844 O 0.58653 0.05304 0.47867 0.0
O845 O 0.56938 0.98099 0.44424 0.0
O846 O 0.58322 0.94932 0.4793 0.0
O847 O 0.56612 0.06161 0.55979 0.0
O848 O 0.54987 0.11023 0.55457 0.0
C849 C 0.58755 0.96003 0.45112 0.0
O850 O 0.49289 0.07954 0.47579 0.0
O851 O 0.52497 0.04064 0.44314 0.0
O852 O 0.49359 0.93842 0.54699 0.0
O853 O 0.47213 0.98679 0.55305 0.0
C854 C 0.55575 0.97794 0.58339 0.0
C855 C 0.56998 0.09493 0.56494 0.0
C856 C 0.47236 0.0807 0.58079 0.0
O857 O 0.4897 0.05878 0.58716 0.0
O858 O 0.47542 0.0906 0.55238 0.0
C859 C 0.58997 0.08513 0.47527 0.0
O860 O 0.49247 0.97861 0.47202 0.0
O861 O 0.5084 0.92961 0.4762 0.0
C862 C 0.5027 0.06135 0.44798 0.0
C863 C 0.48816 0.94532 0.46644 0.0
H864 H 0.17584 0.23262 0.32647 0.0
H865 H 0.15915 0.07977 0.43384 0.0
H866 H 0.25735 0.17333 0.31412 0.0
H867 H 0.09833 0.16059 0.45783 0.0
H868 H 0.19438 0.11005 0.38821 0.0
H869 H 0.14428 0.20145 0.37184 0.0
C870 C 0.18687 0.2127 0.33304 0.0
C871 C 0.21925 0.20558 0.31647 0.0
C872 C 0.17344 0.12114 0.40374 0.0
C873 C 0.18336 0.16982 0.36881 0.0
C874 C 0.15354 0.10403 0.42991 0.0
C875 C 0.12549 0.11743 0.44966 0.0
C876 C 0.16498 0.1516 0.39729 0.0
C877 C 0.11926 0.14884 0.44313 0.0
C878 C 0.16902 0.19509 0.3592 0.0
C879 C 0.23245 0.17966 0.32633 0.0
N880 N 0.13852 0.16453 0.41754 0.0
N881 N 0.21448 0.16269 0.35187 0.0
H882 H 0.88333 0.1118 0.33961 0.0
H883 H 0.89028 0.06238 0.51479 0.0
H884 H 0.79473 0.1094 0.41731 0.0
H885 H 0.96808 0.04824 0.42984 0.0
H886 H 0.85312 0.07758 0.48002 0.0
H887 H 0.9148 0.08917 0.37347 0.0
C888 C 0.87062 0.10682 0.36395 0.0
C889 C 0.83636 0.11254 0.37564 0.0
C890 C 0.87798 0.07039 0.46891 0.0
C891 C 0.872 0.08593 0.41448 0.0
C892 C 0.89883 0.06129 0.48865 0.0
C893 C 0.93189 0.05378 0.47492 0.0
C894 C 0.89073 0.07225 0.43552 0.0
C895 C 0.94251 0.05367 0.44116 0.0
C896 C 0.88842 0.09348 0.38316 0.0
C897 C 0.82099 0.10506 0.40722 0.0
N898 N 0.9222 0.06313 0.42269 0.0
N899 N 0.83895 0.09222 0.4256 0.0
H900 H 0.88984 0.80049 0.3138 0.0
H901 H 0.95494 0.97805 0.43383 0.0
H902 H 0.84926 0.89401 0.321 0.0
H903 H 0.98511 0.88016 0.43371 0.0
H904 H 0.92042 0.94967 0.38913 0.0
H905 H 0.92904 0.83132 0.35414 0.0
C906 C 0.88931 0.82764 0.32374 0.0
C907 C 0.86603 0.84466 0.31417 0.0
C908 C 0.93472 0.93445 0.39878 0.0
C909 C 0.91111 0.8802 0.36047 0.0
C910 C 0.95455 0.95063 0.42429 0.0
C911 C 0.97293 0.93141 0.4377 0.0
C912 C 0.93328 0.89879 0.38645 0.0
C913 C 0.97133 0.89599 0.42426 0.0
C914 C 0.91173 0.84523 0.34683 0.0
C915 C 0.86678 0.87992 0.32771 0.0
N916 N 0.95174 0.88081 0.39944 0.0
N917 N 0.88888 0.89654 0.35035 0.0
H918 H 0.15151 0.93896 0.25763 0.0
H919 H 0.14362 0.94495 0.43616 0.0
H920 H 0.24602 0.93773 0.297 0.0
H921 H 0.08752 1.01031 0.40286 0.0
H922 H 0.18449 0.94651 0.38485 0.0
H923 H 0.1327 0.97513 0.30795 0.0
C924 C 0.16934 0.94793 0.27612 0.0
C925 C 0.19944 0.93403 0.274 0.0
C926 C 0.16362 0.96107 0.38909 0.0
C927 C 0.17741 0.97383 0.3318 0.0
C928 C 0.1399 0.95947 0.41796 0.0
C929 C 0.1118 0.97674 0.42317 0.0
C930 C 0.15855 0.97937 0.36515 0.0
C931 C 0.1086 0.99612 0.39936 0.0
C932 C 0.15837 0.96831 0.30509 0.0
C933 C 0.22177 0.94686 0.29851 0.0
N934 N 0.13133 0.99635 0.37099 0.0
N935 N 0.20944 0.96471 0.3273 0.0
H936 H 0.17753 0.93069 0.70193 0.0
H937 H 0.18273 0.97733 0.52284 0.0
H938 H 0.2728 0.93959 0.63143 0.0
H939 H 0.09831 0.98824 0.60254 0.0
H940 H 0.21749 0.96441 0.56124 0.0
H941 H 0.14784 0.94989 0.66413 0.0
C942 C 0.19212 0.93638 0.67835 0.0
C943 C 0.22773 0.93355 0.6699 0.0
C944 C 0.19163 0.97031 0.57038 0.0
C945 C 0.19403 0.95621 0.6265 0.0
C946 C 0.17211 0.97809 0.54858 0.0
C947 C 0.13792 0.9841 0.55978 0.0
C948 C 0.17644 0.9682 0.60325 0.0
C949 C 0.12474 0.9839 0.59312 0.0
C950 C 0.17529 0.94775 0.65688 0.0
C951 C 0.24543 0.94179 0.63911 0.0
N952 N 0.14382 0.97574 0.61357 0.0
N953 N 0.22839 0.95267 0.61848 0.0
H954 H 0.17663 0.24313 0.71758 0.0
H955 H 0.11763 0.06324 0.59838 0.0
H956 H 0.21583 0.14972 0.71523 0.0
H957 H 0.08875 0.16041 0.59308 0.0
H958 H 0.14963 0.09302 0.64434 0.0
H959 H 0.13995 0.21154 0.67531 0.0
C960 C 0.17733 0.21587 0.70834 0.0
C961 C 0.19938 0.19903 0.71986 0.0
C962 C 0.13628 0.10782 0.63315 0.0
C963 C 0.15745 0.16275 0.67147 0.0
C964 C 0.11798 0.09086 0.60687 0.0
C965 C 0.10059 0.10943 0.59173 0.0
C966 C 0.1372 0.14361 0.64442 0.0
C967 C 0.10197 0.14513 0.60384 0.0
C968 C 0.15638 0.19787 0.68418 0.0
C969 C 0.19901 0.16362 0.70719 0.0
N970 N 0.12001 0.16108 0.6295 0.0
N971 N 0.17846 0.14666 0.68351 0.0
H972 H 0.99765 0.24695 0.63923 0.0
H973 H 0.03618 0.07637 0.62261 0.0
H974 H 0.95838 0.22291 0.73716 0.0
H975 H 0.9321 0.08725 0.61198 0.0
H976 H 0.04265 0.13058 0.66313 0.0
H977 H 1.0179 0.19184 0.62555 0.0
C978 C 0.99519 0.23119 0.65844 0.0
C979 C 0.97527 0.23874 0.68899 0.0
C980 C 1.0178 0.1199 0.65306 0.0
C981 C 0.99717 0.17571 0.6732 0.0
C982 C 1.01406 0.0892 0.6301 0.0
C983 C 0.98429 0.07877 0.61321 0.0
C984 C 0.99061 0.13844 0.65976 0.0
C985 C 0.95568 0.09507 0.62425 0.0
C986 C 1.00658 0.19966 0.65058 0.0
C987 C 0.97273 0.21722 0.71294 0.0
N988 N 0.95989 0.12484 0.64638 0.0
N989 N 0.98167 0.18548 0.70401 0.0
H990 H 0.81132 0.86676 0.71684 0.0
H991 H 0.97667 0.87714 0.57401 0.0
H992 H 0.89226 0.80687 0.70487 0.0
H993 H 0.91131 0.95408 0.59507 0.0
H994 H 0.94159 0.8481 0.61884 0.0
H995 H 0.8438 0.89652 0.67045 0.0
C996 C 0.83601 0.85999 0.70455 0.0
C997 C 0.84912 0.83424 0.71471 0.0
C998 C 0.9347 0.87125 0.61373 0.0
C999 C 0.88622 0.86806 0.66154 0.0
C1000 C 0.95473 0.88795 0.58792 0.0
C1001 C 0.94728 0.91851 0.58069 0.0
C1002 C 0.90658 0.8848 0.6328 0.0
C1003 C 0.91808 0.93065 0.59961 0.0
C1004 C 0.8545 0.877 0.67809 0.0
C1005 C 0.88129 0.82666 0.69802 0.0
N1006 N 0.89886 0.91384 0.62494 0.0
N1007 N 0.89857 0.84332 0.6722 0.0
H1008 H 0.35689 0.19659 0.24165 0.0
H1009 H 0.45958 0.1439 0.06188 0.0
H1010 H 0.33626 0.22893 0.15561 0.0
H1011 H 0.45045 0.08747 0.14276 0.0
H1012 H 0.42141 0.18145 0.09669 0.0
H1013 H 0.39754 0.16221 0.20679 0.0
C1014 C 0.36054 0.19605 0.21531 0.0
C1015 C 0.34212 0.21473 0.20143 0.0
C1016 C 0.42816 0.1611 0.10689 0.0
C1017 C 0.3897 0.17616 0.16117 0.0
C1018 C 0.4504 0.13998 0.08715 0.0
C1019 C 0.45875 0.11267 0.09945 0.0
C1020 C 0.41454 0.15528 0.13937 0.0
C1021 C 0.44507 0.10829 0.13221 0.0
C1022 C 0.38385 0.17649 0.19538 0.0
C1023 C 0.34863 0.21376 0.16718 0.0
N1024 N 0.42389 0.12925 0.15088 0.0
N1025 N 0.37188 0.19496 0.14826 0.0
H1026 H 0.85081 0.27306 0.16655 0.0
H1027 H 0.95691 0.46545 0.13062 0.0
H1028 H 0.85442 0.36849 0.23626 0.0
H1029 H 0.9419 0.37681 0.05327 0.0
H1030 H 0.92707 0.42699 0.17073 0.0
H1031 H 0.89053 0.30744 0.12603 0.0
C1032 C 0.86007 0.30119 0.17339 0.0
C1033 C 0.84892 0.31804 0.20473 0.0
C1034 C 0.93045 0.41565 0.14508 0.0
C1035 C 0.89432 0.35733 0.15861 0.0
C1036 C 0.94765 0.43762 0.12213 0.0
C1037 C 0.95156 0.42432 0.08856 0.0
C1038 C 0.91664 0.37988 0.13458 0.0
C1039 C 0.93943 0.38802 0.07896 0.0
C1040 C 0.88264 0.32075 0.15022 0.0
C1041 C 0.8618 0.35446 0.21227 0.0
N1042 N 0.92202 0.367 0.10191 0.0
N1043 N 0.88363 0.37281 0.18939 0.0
H1044 H 0.74952 0.94485 0.14994 0.0
H1045 H 0.568 0.96832 0.10148 0.0
H1046 H 0.64677 0.91802 0.20805 0.0
H1047 H 0.67102 0.99668 0.04403 0.0
H1048 H 0.59618 0.94831 0.14003 0.0
H1049 H 0.72083 0.96116 0.10938 0.0
C1050 C 0.72089 0.94205 0.15404 0.0
C1051 C 0.70059 0.93037 0.18266 0.0
C1052 C 0.61261 0.95892 0.11899 0.0
C1053 C 0.66762 0.94951 0.13653 0.0
C1054 C 0.59655 0.97047 0.09698 0.0
C1055 C 0.61714 0.98429 0.06941 0.0
C1056 C 0.64956 0.96117 0.11346 0.0
C1057 C 0.65402 0.98626 0.06491 0.0
C1058 C 0.70455 0.95163 0.13098 0.0
C1059 C 0.6636 0.92758 0.18671 0.0
N1060 N 0.66901 0.97483 0.08667 0.0
N1061 N 0.64836 0.93722 0.16402 0.0
H1062 H 0.18172 0.69422 0.23577 0.0
H1063 H 0.17476 0.586 0.05471 0.0
H1064 H 0.27504 0.67494 0.16973 0.0
H1065 H 0.08082 0.60735 0.11867 0.0
H1066 H 0.21092 0.61627 0.09743 0.0
H1067 H 0.14434 0.66052 0.19465 0.0
C1068 C 0.19447 0.68266 0.21269 0.0
C1069 C 0.23185 0.68758 0.20633 0.0
C1070 C 0.18244 0.61438 0.10229 0.0
C1071 C 0.18861 0.64871 0.15875 0.0
C1072 C 0.16152 0.59703 0.07778 0.0
C1073 C 0.12436 0.59408 0.08279 0.0
C1074 C 0.16645 0.62917 0.13247 0.0
C1075 C 0.10923 0.6089 0.11352 0.0
C1076 C 0.17293 0.66341 0.18914 0.0
C1077 C 0.24648 0.67178 0.1759 0.0
N1078 N 0.13033 0.62586 0.13712 0.0
N1079 N 0.22487 0.65322 0.15325 0.0
H1080 H 0.36424 0.79882 0.84024 0.0
H1081 H 0.40793 0.97398 0.96422 0.0
H1082 H 0.33311 0.89232 0.82749 0.0
H1083 H 0.48329 0.90717 0.93465 0.0
H1084 H 0.37445 0.94127 0.9194 0.0
H1085 H 0.40262 0.83466 0.87989 0.0
C1086 C 0.3652 0.82681 0.84578 0.0
C1087 C 0.34458 0.84229 0.83077 0.0
C1088 C 0.39843 0.93394 0.9226 0.0
C1089 C 0.38845 0.8834 0.87671 0.0
C1090 C 0.41742 0.95243 0.9482 0.0
C1091 C 0.44831 0.94312 0.95313 0.0
C1092 C 0.40981 0.90527 0.90235 0.0
C1093 C 0.45966 0.91519 0.93156 0.0
C1094 C 0.38733 0.84724 0.86837 0.0
C1095 C 0.34758 0.87889 0.83895 0.0
N1096 N 0.44007 0.89684 0.90739 0.0
N1097 N 0.36865 0.89809 0.8617 0.0
H1098 H 0.16822 0.27122 0.85332 0.0
H1099 H 0.11931 0.45974 0.89666 0.0
H1100 H 0.23367 0.36542 0.81841 0.0
H1101 H 0.07787 0.38302 0.96273 0.0
H1102 H 0.1538 0.42027 0.86242 0.0
H1103 H 0.12947 0.30691 0.88914 0.0
C1104 C 0.17489 0.29937 0.85343 0.0
C1105 C 0.20504 0.31523 0.83317 0.0
C1106 C 0.13698 0.41173 0.88419 0.0
C1107 C 0.15939 0.35607 0.87307 0.0
C1108 C 0.1169 0.43425 0.90384 0.0
C1109 C 0.09553 0.42503 0.93303 0.0
C1110 C 0.13574 0.37902 0.89308 0.0
C1111 C 0.09367 0.3913 0.94046 0.0
C1112 C 0.15243 0.31968 0.87375 0.0
C1113 C 0.21109 0.35178 0.8336 0.0
N1114 N 0.11367 0.36953 0.92068 0.0
N1115 N 0.1885 0.37074 0.85297 0.0
H1116 H 0.72357 0.27389 0.87535 0.0
H1117 H 0.59443 0.08672 0.90146 0.0
H1118 H 0.69127 0.19138 0.79668 0.0
H1119 H 0.61943 0.16944 0.98209 0.0
H1120 H 0.62701 0.12661 0.86302 0.0
H1121 H 0.68481 0.23763 0.91506 0.0
C1122 C 0.70817 0.24818 0.86649 0.0
C1123 C 0.71051 0.23567 0.83272 0.0
C1124 C 0.62502 0.13643 0.88904 0.0
C1125 C 0.6662 0.19397 0.87786 0.0
C1126 C 0.60608 0.11371 0.91102 0.0
C1127 C 0.60388 0.1249 0.945 0.0
C1128 C 0.64262 0.17069 0.90096 0.0
C1129 C 0.61996 0.15997 0.95607 0.0
C1130 C 0.68619 0.22745 0.88912 0.0
C1131 C 0.69049 0.20198 0.82249 0.0
N1132 N 0.63904 0.18155 0.9341 0.0
N1133 N 0.66921 0.1824 0.8449 0.0
H1134 H 0.94006 0.63673 0.82018 0.0
H1135 H 0.92152 0.59961 1.0032 0.0
H1136 H 0.91222 0.71298 0.90271 0.0
H1137 H 1.00036 0.56563 0.92652 0.0
H1138 H 0.90611 0.63264 0.96557 0.0
H1139 H 0.95043 0.6017 0.85807 0.0
C1140 C 0.93623 0.64637 0.84619 0.0
C1141 C 0.92605 0.67862 0.85795 0.0
C1142 C 0.92661 0.61776 0.95704 0.0
C1143 C 0.93656 0.63736 0.90165 0.0
C1144 C 0.93525 0.59871 0.97834 0.0
C1145 C 0.9622 0.57975 0.96791 0.0
C1146 C 0.94446 0.61714 0.92489 0.0
C1147 C 0.97944 0.5799 0.93557 0.0
C1148 C 0.94194 0.62607 0.8678 0.0
C1149 C 0.91998 0.68846 0.89222 0.0
N1150 N 0.97012 0.59812 0.91515 0.0
N1151 N 0.92536 0.66792 0.91286 0.0
H1152 H 0.17386 0.33803 0.12521 0.0
H1153 H 0.04885 0.46177 0.102 0.0
H1154 H 0.07924 0.35392 0.19087 0.0
H1155 H 0.14735 0.45499 0.03853 0.0
H1156 H 0.06224 0.42473 0.13631 0.0
H1157 H 0.16784 0.38352 0.09501 0.0
C1158 C 0.1521 0.35135 0.13351 0.0
C1159 C 0.12664 0.34171 0.16028 0.0
C1160 C 0.08119 0.43154 0.11508 0.0
C1161 C 0.11947 0.39345 0.1258 0.0
C1162 C 0.07354 0.45281 0.0954 0.0
C1163 C 0.09697 0.46159 0.0672 0.0
C1164 C 0.11243 0.41854 0.10656 0.0
C1165 C 0.12853 0.44901 0.06005 0.0
C1166 C 0.14858 0.37717 0.11618 0.0
C1167 C 0.099 0.35985 0.16993 0.0
N1168 N 0.1352 0.42788 0.07944 0.0
N1169 N 0.09603 0.38453 0.15261 0.0
H1170 H 0.22515 0.76877 0.87396 0.0
H1171 H 0.10356 0.58026 0.9055 0.0
H1172 H 0.20696 0.67731 0.79979 0.0
H1173 H 0.1245 0.66646 0.98423 0.0
H1174 H 0.13571 0.61882 0.86606 0.0
H1175 H 0.18403 0.73502 0.91417 0.0
C1176 C 0.21231 0.74168 0.8661 0.0
C1177 C 0.21944 0.72581 0.83347 0.0
C1178 C 0.13308 0.62965 0.89186 0.0
C1179 C 0.17276 0.68703 0.87931 0.0
C1180 C 0.11452 0.60765 0.91441 0.0
C1181 C 0.11148 0.62021 0.94814 0.0
C1182 C 0.14926 0.66465 0.90297 0.0
C1183 C 0.12609 0.65588 0.95838 0.0
C1184 C 0.18897 0.72243 0.88908 0.0
C1185 C 0.20248 0.69055 0.82471 0.0
N1186 N 0.14482 0.67687 0.93584 0.0
N1187 N 0.18007 0.67241 0.84745 0.0
H1188 H 0.42572 0.12856 0.82527 0.0
H1189 H 0.39953 0.05434 0.99487 0.0
H1190 H 0.32754 0.11544 0.89204 0.0
H1191 H 0.50096 0.07549 0.93326 0.0
H1192 H 0.37288 0.07628 0.95686 0.0
H1193 H 0.45417 0.10943 0.86431 0.0
C1194 C 0.41021 0.12169 0.84817 0.0
C1195 C 0.37422 0.12338 0.85539 0.0
C1196 C 0.40097 0.07617 0.95163 0.0
C1197 C 0.40646 0.1016 0.90004 0.0
C1198 C 0.41623 0.06352 0.97329 0.0
C1199 C 0.45257 0.06308 0.96727 0.0
C1200 C 0.42212 0.08837 0.9236 0.0
C1201 C 0.47282 0.07531 0.93887 0.0
C1202 C 0.42646 0.11092 0.87046 0.0
C1203 C 0.35544 0.11476 0.88559 0.0
N1204 N 0.45728 0.08746 0.91804 0.0
N1205 N 0.37175 0.10405 0.90673 0.0
H1206 H 0.87421 0.36103 0.79768 0.0
H1207 H 0.88534 0.4441 0.9862 0.0
H1208 H 0.78389 0.35306 0.87362 0.0
H1209 H 0.97911 0.44411 0.91436 0.0
H1210 H 0.84841 0.41334 0.94432 0.0
H1211 H 0.91276 0.39387 0.8386 0.0
C1212 C 0.86239 0.36636 0.82297 0.0
C1213 C 0.82561 0.35404 0.83217 0.0
C1214 C 0.87701 0.41996 0.93753 0.0
C1215 C 0.86989 0.39199 0.87929 0.0
C1216 C 0.8984 0.4377 0.96156 0.0
C1217 C 0.93578 0.44698 0.95406 0.0
C1218 C 0.89266 0.41118 0.90526 0.0
C1219 C 0.95056 0.43757 0.92146 0.0
C1220 C 0.88452 0.38511 0.84632 0.0
C1221 C 0.81191 0.36214 0.86524 0.0
N1222 N 0.92898 0.42026 0.89828 0.0
N1223 N 0.83402 0.38043 0.88752 0.0
H1224 H 0.70781 0.84721 0.79182 0.0
H1225 H 0.60905 0.90085 0.97294 0.0
H1226 H 0.72995 0.81593 0.87768 0.0
H1227 H 0.61646 0.9576 0.89262 0.0
H1228 H 0.64587 0.86276 0.9371 0.0
H1229 H 0.66724 0.88159 0.82702 0.0
C1230 C 0.70447 0.84792 0.81817 0.0
C1231 C 0.72331 0.82962 0.83199 0.0
C1232 C 0.63899 0.88327 0.92724 0.0
C1233 C 0.67609 0.86812 0.8725 0.0
C1234 C 0.61756 0.90469 0.94757 0.0
C1235 C 0.60925 0.93224 0.93571 0.0
C1236 C 0.65178 0.88907 0.89464 0.0
C1237 C 0.62195 0.93656 0.90279 0.0
C1238 C 0.68127 0.86748 0.83826 0.0
C1239 C 0.71731 0.83082 0.8662 0.0
N1240 N 0.64241 0.91531 0.88352 0.0
N1241 N 0.69425 0.8496 0.88527 0.0
H1242 H 0.89484 0.77496 0.18 0.0
H1243 H 0.93945 0.58434 0.13788 0.0
H1244 H 0.8279 0.68193 0.21569 0.0
H1245 H 0.98471 0.66132 0.0726 0.0
H1246 H 0.90543 0.62454 0.17152 0.0
H1247 H 0.93297 0.73837 0.14461 0.0
C1248 C 0.88774 0.74694 0.1802 0.0
C1249 C 0.85738 0.73176 0.20062 0.0
C1250 C 0.92296 0.63297 0.15005 0.0
C1251 C 0.90223 0.68966 0.16106 0.0
C1252 C 0.94276 0.61 0.13071 0.0
C1253 C 0.96515 0.61908 0.10193 0.0
C1254 C 0.92543 0.66604 0.14127 0.0
C1255 C 0.96811 0.65308 0.09456 0.0
C1256 C 0.90983 0.72604 0.16009 0.0
C1257 C 0.85066 0.69515 0.2004 0.0
N1258 N 0.94836 0.6753 0.11403 0.0
N1259 N 0.87287 0.67562 0.18123 0.0
H1260 H 0.32707 0.78141 0.15893 0.0
H1261 H 0.48934 0.9458 0.12683 0.0
H1262 H 0.39076 0.84211 0.23301 0.0
H1263 H 0.42959 0.88293 0.05091 0.0
H1264 H 0.45654 0.90508 0.16492 0.0
H1265 H 0.3658 0.81612 0.11823 0.0
C1266 C 0.34928 0.80206 0.16655 0.0
C1267 C 0.35584 0.80892 0.19928 0.0
C1268 C 0.45095 0.89971 0.1398 0.0
C1269 C 0.40036 0.84866 0.15296 0.0
C1270 C 0.46998 0.92274 0.118 0.0
C1271 C 0.46265 0.91714 0.08561 0.0
C1272 C 0.42377 0.87126 0.12932 0.0
C1273 C 0.43657 0.88756 0.07553 0.0
C1274 C 0.37146 0.82176 0.14333 0.0
C1275 C 0.38496 0.83583 0.20793 0.0
N1276 N 0.41781 0.86588 0.09739 0.0
N1277 N 0.40602 0.85481 0.18499 0.0
H1278 H 0.70738 0.15757 0.22597 0.0
H1279 H 0.65947 0.14089 0.04651 0.0
H1280 H 0.73747 0.24491 0.17112 0.0
H1281 H 0.58924 0.0809 0.11763 0.0
H1282 H 0.6941 0.17482 0.0898 0.0
H1283 H 0.66971 0.12414 0.18424 0.0
C1284 C 0.70626 0.16957 0.20503 0.0
C1285 C 0.72567 0.20397 0.20184 0.0
C1286 C 0.67099 0.1544 0.096 0.0
C1287 C 0.6829 0.166 0.15427 0.0
C1288 C 0.65127 0.13499 0.07134 0.0
C1289 C 0.62139 0.10819 0.07859 0.0
C1290 C 0.66133 0.14647 0.12809 0.0
C1291 C 0.61191 0.10162 0.11116 0.0
C1292 C 0.68456 0.15064 0.18147 0.0
C1293 C 0.72293 0.21848 0.17451 0.0
N1294 N 0.6321 0.1204 0.13474 0.0
N1295 N 0.70219 0.19932 0.15163 0.0
H1296 H 0.77128 0.66648 0.81191 0.0
H1297 H 0.57875 0.5835 0.90112 0.0
H1298 H 0.67974 0.71121 0.81827 0.0
H1299 H 0.67758 0.5738 0.9271 0.0
H1300 H 0.61297 0.619 0.85879 0.0
H1301 H 0.73439 0.62109 0.84335 0.0
C1302 C 0.7433 0.66637 0.8194 0.0
C1303 C 0.7284 0.69225 0.81196 0.0
C1304 C 0.62699 0.60855 0.87348 0.0
C1305 C 0.68616 0.64047 0.8476 0.0
C1306 C 0.60756 0.58819 0.89731 0.0
C1307 C 0.62559 0.57602 0.91741 0.0
C1308 C 0.66443 0.61597 0.86966 0.0
C1309 C 0.66287 0.58299 0.91205 0.0
C1310 C 0.7223 0.64051 0.83726 0.0
C1311 C 0.69204 0.69106 0.82244 0.0
N1312 N 0.68111 0.6026 0.88871 0.0
N1313 N 0.67211 0.66559 0.83982 0.0
H1314 H 0.40978 0.63964 0.82796 0.0
H1315 H 0.42002 0.5718 0.99187 0.0
H1316 H 0.34158 0.65872 0.91905 0.0
H1317 H 0.50897 0.57934 0.91466 0.0
H1318 H 0.39242 0.60518 0.96476 0.0
H1319 H 0.44826 0.6195 0.85777 0.0
C1320 C 0.40316 0.64011 0.85424 0.0
C1321 C 0.37193 0.65024 0.8709 0.0
C1322 C 0.41822 0.60016 0.95378 0.0
C1323 C 0.41558 0.62703 0.90496 0.0
C1324 C 0.43408 0.58117 0.9694 0.0
C1325 C 0.46696 0.57313 0.95568 0.0
C1326 C 0.43474 0.61053 0.92349 0.0
C1327 C 0.48375 0.58543 0.9262 0.0
C1328 C 0.42509 0.62854 0.87119 0.0
C1329 C 0.36475 0.65027 0.90495 0.0
N1330 N 0.46714 0.60308 0.9107 0.0
N1331 N 0.38608 0.6385 0.92066 0.0
H1332 H 0.36465 0.27301 0.83092 0.0
H1333 H 0.47298 0.46451 0.89313 0.0
H1334 H 0.33387 0.36748 0.82037 0.0
H1335 H 0.44587 0.38331 0.95497 0.0
H1336 H 0.43822 0.42419 0.85241 0.0
H1337 H 0.40954 0.30942 0.86479 0.0
C1338 C 0.36769 0.30134 0.83512 0.0
C1339 C 0.34605 0.31728 0.82194 0.0
C1340 C 0.44064 0.4151 0.87462 0.0
C1341 C 0.39768 0.35865 0.8597 0.0
C1342 C 0.46064 0.43784 0.89761 0.0
C1343 C 0.46213 0.42702 0.92728 0.0
C1344 C 0.42287 0.38125 0.88117 0.0
C1345 C 0.44517 0.39248 0.93232 0.0
C1346 C 0.39328 0.32195 0.85434 0.0
C1347 C 0.35088 0.35409 0.82866 0.0
N1348 N 0.42608 0.37068 0.90943 0.0
N1349 N 0.37639 0.37357 0.84686 0.0
H1350 H 0.68561 0.30997 0.90878 0.0
H1351 H 0.54888 0.4164 1.00171 0.0
H1352 H 0.57186 0.27074 0.92554 0.0
H1353 H 0.65912 0.45839 0.96684 0.0
H1354 H 0.56226 0.35895 0.99835 0.0
H1355 H 0.68103 0.35581 0.95572 0.0
C1356 C 0.65985 0.30995 0.92329 0.0
C1357 C 0.6288 0.28773 0.9124 0.0
C1358 C 0.58369 0.38086 0.99203 0.0
C1359 C 0.62332 0.34057 0.96515 0.0
C1360 C 0.57599 0.41352 0.99339 0.0
C1361 C 0.60265 0.44161 0.98283 0.0
C1362 C 0.61807 0.37611 0.97932 0.0
C1363 C 0.63756 0.43697 0.97394 0.0
C1364 C 0.65722 0.3363 0.95002 0.0
C1365 C 0.59631 0.2882 0.9325 0.0
N1366 N 0.64413 0.40448 0.9716 0.0
N1367 N 0.59416 0.31522 0.95735 0.0
H1368 H 0.72389 0.37943 0.11345 0.0
H1369 H 0.55671 0.46434 0.11719 0.0
H1370 H 0.65731 0.40485 0.20402 0.0
H1371 H 0.64814 0.47091 0.04252 0.0
H1372 H 0.58426 0.43104 0.1462 0.0
H1373 H 0.68676 0.40043 0.08394 0.0
C1374 C 0.70132 0.38931 0.12718 0.0
C1375 C 0.69429 0.39109 0.16144 0.0
C1376 C 0.59792 0.4394 0.12321 0.0
C1377 C 0.65115 0.41507 0.12747 0.0
C1378 C 0.58211 0.45806 0.10656 0.0
C1379 C 0.60018 0.47026 0.07739 0.0
C1380 C 0.63157 0.43239 0.1101 0.0
C1381 C 0.63329 0.462 0.06491 0.0
C1382 C 0.68003 0.40125 0.11025 0.0
C1383 C 0.66388 0.40318 0.17765 0.0
N1384 N 0.64781 0.44366 0.08125 0.0
N1385 N 0.64361 0.41512 0.16057 0.0
H1386 H 0.69074 0.77037 0.2094 0.0
H1387 H 0.59508 0.57758 0.13893 0.0
H1388 H 0.73402 0.68019 0.21027 0.0
H1389 H 0.61977 0.66006 0.07865 0.0
H1390 H 0.62774 0.61849 0.1808 0.0
H1391 H 0.64708 0.73243 0.17488 0.0
C1392 C 0.69065 0.74257 0.20292 0.0
C1393 C 0.71564 0.72827 0.21323 0.0
C1394 C 0.62517 0.62767 0.15868 0.0
C1395 C 0.66546 0.68517 0.17508 0.0
C1396 C 0.60646 0.6046 0.13502 0.0
C1397 C 0.60494 0.61572 0.10551 0.0
C1398 C 0.64147 0.6621 0.15295 0.0
C1399 C 0.62058 0.65071 0.10118 0.0
C1400 C 0.6658 0.72113 0.18338 0.0
C1401 C 0.71456 0.69215 0.20389 0.0
N1402 N 0.63835 0.67285 0.12476 0.0
N1403 N 0.68966 0.67174 0.1855 0.0
H1404 H 0.49718 0.77185 0.11828 0.0
H1405 H 0.40912 0.58603 0.06122 0.0
H1406 H 0.38379 0.73836 0.11697 0.0
H1407 H 0.52154 0.62945 0.03728 0.0
H1408 H 0.39789 0.64478 0.06553 0.0
H1409 H 0.50629 0.72888 0.07017 0.0
C1410 C 0.47418 0.75664 0.10689 0.0
C1411 C 0.4396 0.75685 0.12274 0.0
C1412 C 0.42498 0.64136 0.05866 0.0
C1413 C 0.44964 0.70633 0.06907 0.0
C1414 C 0.43137 0.60789 0.0567 0.0
C1415 C 0.4664 0.60327 0.05054 0.0
C1416 C 0.45392 0.67032 0.05508 0.0
C1417 C 0.49418 0.63214 0.04363 0.0
C1418 C 0.47932 0.7316 0.0795 0.0
C1419 C 0.4109 0.73736 0.10633 0.0
N1420 N 0.48742 0.66455 0.04677 0.0
N1421 N 0.41637 0.71142 0.08121 0.0
H1422 H 0.38866 0.33023 0.2138 0.0
H1423 H 0.39145 0.47675 0.10913 0.0
H1424 H 0.30073 0.38082 0.2229 0.0
H1425 H 0.48832 0.45456 0.12728 0.0
H1426 H 0.35792 0.44224 0.1516 0.0
H1427 H 0.42615 0.37558 0.18284 0.0
C1428 C 0.37744 0.3513 0.20984 0.0
C1429 C 0.34162 0.352 0.22109 0.0
C1430 C 0.38657 0.44536 0.1468 0.0
C1431 C 0.38405 0.40329 0.18508 0.0
C1432 C 0.40562 0.46499 0.12262 0.0
C1433 C 0.44246 0.46833 0.11505 0.0
C1434 C 0.40447 0.42827 0.16288 0.0
C1435 C 0.45987 0.45267 0.13285 0.0
C1436 C 0.39884 0.37708 0.1921 0.0
C1437 C 0.3282 0.37932 0.21455 0.0
N1438 N 0.44055 0.43268 0.15573 0.0
N1439 N 0.34936 0.40372 0.19665 0.0
H1440 H 0.82651 0.70955 0.66785 0.0
H1441 H 0.97753 0.5992 0.65093 0.0
H1442 H 0.86747 0.6954 0.75238 0.0
H1443 H 0.92501 0.60932 0.57172 0.0
H1444 H 0.93764 0.63242 0.68954 0.0
H1445 H 0.86261 0.6718 0.63317 0.0
C1446 C 0.84273 0.69833 0.67931 0.0
C1447 C 0.84319 0.70573 0.71333 0.0
C1448 C 0.93481 0.62703 0.66369 0.0
C1449 C 0.88625 0.66232 0.67317 0.0
C1450 C 0.9574 0.60783 0.6417 0.0
C1451 C 0.95494 0.60154 0.60788 0.0
C1452 C 0.90964 0.6399 0.65171 0.0
C1453 C 0.92842 0.61373 0.59741 0.0
C1454 C 0.86377 0.67672 0.65933 0.0
C1455 C 0.86595 0.69061 0.72632 0.0
N1456 N 0.90722 0.63231 0.61903 0.0
N1457 N 0.8866 0.66981 0.70628 0.0
H1458 H 0.34787 0.88613 0.73232 0.0
H1459 H 0.4359 0.8856 0.54568 0.0
H1460 H 0.33843 0.79238 0.66027 0.0
H1461 H 0.4324 0.98095 0.614 0.0
H1462 H 0.39714 0.85145 0.58626 0.0
H1463 H 0.37746 0.9214 0.68915 0.0
C1464 C 0.35156 0.87302 0.70729 0.0
C1465 C 0.33975 0.83639 0.69974 0.0
C1466 C 0.40416 0.87988 0.59225 0.0
C1467 C 0.37449 0.87654 0.65019 0.0
C1468 C 0.42599 0.89943 0.56895 0.0
C1469 C 0.43713 0.93616 0.57643 0.0
C1470 C 0.39369 0.89709 0.62354 0.0
C1471 C 0.42398 0.95273 0.60708 0.0
C1472 C 0.36865 0.89317 0.68267 0.0
C1473 C 0.3468 0.8206 0.66715 0.0
N1474 N 0.40336 0.933 0.62974 0.0
N1475 N 0.36367 0.84077 0.64357 0.0
H1476 H 0.19294 0.41827 0.70266 0.0
H1477 H 0.1248 0.51435 0.59684 0.0
H1478 H 0.19469 0.3722 0.60051 0.0
H1479 H 0.03774 0.43062 0.62584 0.0
H1480 H 0.16432 0.49193 0.62311 0.0
H1481 H 0.14846 0.45006 0.69603 0.0
C1482 C 0.18385 0.41458 0.67898 0.0
C1483 C 0.19776 0.39266 0.65198 0.0
C1484 C 0.13615 0.47965 0.62511 0.0
C1485 C 0.14771 0.42898 0.6446 0.0
C1486 C 0.11356 0.49267 0.61062 0.0
C1487 C 0.07786 0.47492 0.6103 0.0
C1488 C 0.12284 0.44854 0.63878 0.0
C1489 C 0.06496 0.44543 0.62651 0.0
C1490 C 0.15875 0.43283 0.67534 0.0
C1491 C 0.18528 0.38925 0.6218 0.0
N1492 N 0.08774 0.43253 0.63953 0.0
N1493 N 0.16102 0.40736 0.61889 0.0
H1494 H 0.74512 0.24559 0.6526 0.0
H1495 H 0.5887 0.07833 0.61913 0.0
H1496 H 0.66865 0.20659 0.73215 0.0
H1497 H 0.61162 0.16079 0.55908 0.0
H1498 H 0.62935 0.11646 0.65647 0.0
H1499 H 0.70727 0.20605 0.61327 0.0
C1500 C 0.72054 0.2285 0.6617 0.0
C1501 C 0.7098 0.22937 0.69555 0.0
C1502 C 0.62563 0.12599 0.63494 0.0
C1503 C 0.6672 0.18379 0.65104 0.0
C1504 C 0.60268 0.10425 0.61356 0.0
C1505 C 0.59675 0.1165 0.58602 0.0
C1506 C 0.64363 0.15977 0.62821 0.0
C1507 C 0.61533 0.15045 0.58013 0.0
C1508 C 0.69898 0.20617 0.63936 0.0
C1509 C 0.67766 0.20686 0.7062 0.0
N1510 N 0.63818 0.17083 0.60091 0.0
N1511 N 0.65766 0.18471 0.68404 0.0
H1512 H 0.84629 0.28146 0.35735 0.0
H1513 H 0.94954 0.47352 0.43241 0.0
H1514 H 0.84507 0.37619 0.32098 0.0
H1515 H 0.96122 0.37648 0.45751 0.0
H1516 H 0.90762 0.43936 0.39476 0.0
H1517 H 0.88498 0.31667 0.39684 0.0
C1518 C 0.85393 0.30972 0.35772 0.0
C1519 C 0.84194 0.32579 0.33582 0.0
C1520 C 0.91923 0.42557 0.40863 0.0
C1521 C 0.88661 0.36659 0.38145 0.0
C1522 C 0.94304 0.44509 0.43033 0.0
C1523 C 0.95898 0.42797 0.44838 0.0
C1524 C 0.91106 0.38856 0.40495 0.0
C1525 C 0.94974 0.39095 0.44421 0.0
C1526 C 0.87613 0.32987 0.38039 0.0
C1527 C 0.85298 0.36262 0.33768 0.0
N1528 N 0.9265 0.3726 0.42303 0.0
N1529 N 0.87465 0.38174 0.36006 0.0
H1530 H 0.69515 0.84285 0.27988 0.0
H1531 H 0.64577 0.9405 0.46224 0.0
H1532 H 0.74826 0.84486 0.36245 0.0
H1533 H 0.59022 0.94346 0.38267 0.0
H1534 H 0.68408 0.90697 0.42459 0.0
H1535 H 0.6572 0.87989 0.31528 0.0
C1536 C 0.69879 0.85085 0.30547 0.0
C1537 C 0.72499 0.84026 0.31813 0.0
C1538 C 0.66384 0.9151 0.41503 0.0
C1539 C 0.68139 0.883 0.35895 0.0
C1540 C 0.64183 0.93452 0.43663 0.0
C1541 C 0.61441 0.94508 0.42587 0.0
C1542 C 0.6589 0.90564 0.38186 0.0
C1543 C 0.61107 0.93631 0.39218 0.0
C1544 C 0.67703 0.87207 0.32568 0.0
C1545 C 0.72824 0.85165 0.35153 0.0
N1546 N 0.63284 0.91691 0.37145 0.0
N1547 N 0.70688 0.87223 0.37058 0.0
H1548 H 0.27163 0.72101 0.3709 0.0
H1549 H 0.10835 0.56225 0.40774 0.0
H1550 H 0.18621 0.68768 0.31136 0.0
H1551 H 0.1486 0.64049 0.48648 0.0
H1552 H 0.14822 0.59769 0.36793 0.0
H1553 H 0.23693 0.682 0.41001 0.0
C1554 C 0.24545 0.70564 0.36623 0.0
C1555 C 0.23142 0.70793 0.3382 0.0
C1556 C 0.14888 0.60658 0.39394 0.0
C1557 C 0.1924 0.66254 0.38207 0.0
C1558 C 0.1267 0.58614 0.41659 0.0
C1559 C 0.12602 0.59812 0.45034 0.0
C1560 C 0.17087 0.63884 0.40524 0.0
C1561 C 0.14911 0.63003 0.46063 0.0
C1562 C 0.22581 0.68341 0.38844 0.0
C1563 C 0.1976 0.68716 0.33304 0.0
N1564 N 0.17075 0.64928 0.43816 0.0
N1565 N 0.17931 0.66503 0.35463 0.0
H1566 H 0.36467 0.14384 0.36579 0.0
H1567 H 0.54148 0.1028 0.40447 0.0
H1568 H 0.46056 0.2215 0.38479 0.0
H1569 H 0.43628 0.0412 0.43083 0.0
H1570 H 0.51604 0.13611 0.37443 0.0
H1571 H 0.39494 0.09717 0.36893 0.0
C1572 C 0.39223 0.15086 0.3702 0.0
C1573 C 0.41015 0.18625 0.3758 0.0
C1574 C 0.49873 0.11435 0.38567 0.0
C1575 C 0.44483 0.13366 0.37842 0.0
C1576 C 0.51326 0.09509 0.40234 0.0
C1577 C 0.49076 0.06934 0.41976 0.0
C1578 C 0.4616 0.10755 0.38664 0.0
C1579 C 0.45429 0.06082 0.41732 0.0
C1580 C 0.40943 0.12441 0.37181 0.0
C1581 C 0.44583 0.19438 0.38106 0.0
N1582 N 0.44063 0.08035 0.40148 0.0
N1583 N 0.46203 0.16822 0.38245 0.0
H1584 H 0.70029 0.90609 0.66797 0.0
H1585 H 0.51909 0.93537 0.62684 0.0
H1586 H 0.60601 0.8245 0.65335 0.0
H1587 H 0.62214 1.00094 0.60044 0.0
H1588 H 0.5465 0.90501 0.65808 0.0
H1589 H 0.66753 0.95017 0.66305 0.0
C1590 C 0.67252 0.8977 0.66429 0.0
C1591 C 0.65575 0.8619 0.6604 0.0
C1592 C 0.56289 0.92694 0.64649 0.0
C1593 C 0.61832 0.91156 0.65551 0.0
C1594 C 0.54721 0.9445 0.6291 0.0
C1595 C 0.56856 0.97064 0.61148 0.0
C1596 C 0.60004 0.93575 0.64597 0.0
C1597 C 0.60499 0.98101 0.61411 0.0
C1598 C 0.65391 0.92268 0.66158 0.0
C1599 C 0.61981 0.85196 0.65587 0.0
N1600 N 0.6198 0.96312 0.63067 0.0
N1601 N 0.60227 0.8767 0.65331 0.0
H1602 H 0.72859 0.25171 0.37702 0.0
H1603 H 0.6273 0.059 0.41824 0.0
H1604 H 0.70748 0.15995 0.30365 0.0
H1605 H 0.62205 0.15435 0.48612 0.0
H1606 H 0.66706 0.09448 0.37853 0.0
H1607 H 0.69667 0.21575 0.41947 0.0
C1608 C 0.71732 0.22399 0.36989 0.0
C1609 C 0.72158 0.2085 0.33693 0.0
C1610 C 0.65767 0.10754 0.40237 0.0
C1611 C 0.68551 0.1672 0.38518 0.0
C1612 C 0.63554 0.08724 0.4252 0.0
C1613 C 0.62158 0.1038 0.4555 0.0
C1614 C 0.66593 0.14454 0.41007 0.0
C1615 C 0.63237 0.1406 0.463 0.0
C1616 C 0.69931 0.20345 0.39408 0.0
C1617 C 0.70596 0.17263 0.32893 0.0
N1618 N 0.65364 0.15975 0.44038 0.0
N1619 N 0.68887 0.15314 0.35286 0.0
H1620 H 0.87703 0.62794 0.32861 0.0
H1621 H 0.93766 0.53342 0.44397 0.0
H1622 H 0.86718 0.66919 0.43213 0.0
H1623 H 1.02768 0.60751 0.40345 0.0
H1624 H 0.89836 0.55623 0.41778 0.0
H1625 H 0.92133 0.59684 0.3369 0.0
C1626 C 0.8843 0.63085 0.35294 0.0
C1627 C 0.86788 0.65104 0.37982 0.0
C1628 C 0.92692 0.56626 0.41341 0.0
C1629 C 0.91752 0.61494 0.38914 0.0
C1630 C 0.94932 0.55303 0.42793 0.0
C1631 C 0.9859 0.56806 0.42501 0.0
C1632 C 0.94133 0.59469 0.39609 0.0
C1633 C 0.99965 0.59476 0.40543 0.0
C1634 C 0.90933 0.6129 0.35753 0.0
C1635 C 0.87822 0.6533 0.41082 0.0
N1636 N 0.97717 0.60783 0.3921 0.0
N1637 N 0.90206 0.63514 0.41468 0.0
H1638 H 0.37257 0.85872 0.30161 0.0
H1639 H 0.45116 0.87641 0.46661 0.0
H1640 H 0.31399 0.79777 0.37673 0.0
H1641 H 0.46162 0.96715 0.41941 0.0
H1642 H 0.4064 0.84287 0.43097 0.0
H1643 H 0.41102 0.89519 0.34135 0.0
C1644 C 0.3674 0.85356 0.32674 0.0
C1645 C 0.3395 0.82593 0.33624 0.0
C1646 C 0.41839 0.8702 0.42867 0.0
C1647 C 0.38453 0.86629 0.38138 0.0
C1648 C 0.44405 0.88927 0.44881 0.0
C1649 C 0.46021 0.92465 0.44601 0.0
C1650 C 0.40955 0.88633 0.40495 0.0
C1651 C 0.4498 0.94001 0.42258 0.0
C1652 C 0.38943 0.8742 0.34932 0.0
C1653 C 0.33461 0.81951 0.36879 0.0
N1654 N 0.42557 0.92067 0.40271 0.0
N1655 N 0.35726 0.83923 0.39014 0.0
H1656 H 0.2253 0.31878 0.36552 0.0
H1657 H 0.09646 0.45333 0.38348 0.0
H1658 H 0.21206 0.36099 0.28183 0.0
H1659 H 0.13203 0.42216 0.46347 0.0
H1660 H 0.13618 0.41988 0.34466 0.0
H1661 H 0.18839 0.35566 0.40065 0.0
C1662 C 0.21517 0.3362 0.35449 0.0
C1663 C 0.22294 0.3372 0.32063 0.0
C1664 C 0.13519 0.42064 0.37079 0.0
C1665 C 0.1787 0.37936 0.36106 0.0
C1666 C 0.11263 0.43989 0.39297 0.0
C1667 C 0.11031 0.4406 0.42706 0.0
C1668 C 0.15541 0.40188 0.38279 0.0
C1669 C 0.13209 0.42239 0.43764 0.0
C1670 C 0.1936 0.35721 0.37463 0.0
C1671 C 0.20729 0.3595 0.30784 0.0
N1672 N 0.15319 0.40388 0.41583 0.0
N1673 N 0.18595 0.37962 0.32798 0.0
H1674 H 0.37656 0.24501 0.70272 0.0
H1675 H 0.41995 0.05492 0.63035 0.0
H1676 H 0.29859 0.14848 0.71471 0.0
H1677 H 0.47423 0.15038 0.5914 0.0
H1678 H 0.38001 0.08855 0.66857 0.0
H1679 H 0.41662 0.2107 0.66733 0.0
C1680 C 0.36782 0.21661 0.69811 0.0
C1681 C 0.33425 0.19974 0.71254 0.0
C1682 C 0.40087 0.10205 0.65173 0.0
C1683 C 0.38076 0.15989 0.67246 0.0
C1684 C 0.42385 0.08293 0.63019 0.0
C1685 C 0.45046 0.09981 0.60757 0.0
C1686 C 0.40502 0.13835 0.65099 0.0
C1687 C 0.45399 0.13618 0.60825 0.0
C1688 C 0.39088 0.19695 0.678 0.0
C1689 C 0.32466 0.16269 0.70533 0.0
N1690 N 0.43175 0.15408 0.62945 0.0
N1691 N 0.34781 0.14405 0.68616 0.0
H1692 H 0.86529 0.37829 0.73473 0.0
H1693 H 0.922 0.39902 0.55062 0.0
H1694 H 0.78758 0.33563 0.66786 0.0
H1695 H 0.94794 0.48948 0.62423 0.0
H1696 H 0.87745 0.36968 0.59183 0.0
H1697 H 0.90211 0.4139 0.69363 0.0
C1698 C 0.85593 0.37662 0.71146 0.0
C1699 C 0.82334 0.35417 0.70465 0.0
C1700 C 0.89239 0.39623 0.59873 0.0
C1701 C 0.86551 0.39406 0.6575 0.0
C1702 C 0.91759 0.41301 0.57527 0.0
C1703 C 0.93799 0.44699 0.58393 0.0
C1704 C 0.88865 0.41301 0.63135 0.0
C1705 C 0.93208 0.46362 0.61643 0.0
C1706 C 0.87681 0.39699 0.68816 0.0
C1707 C 0.81242 0.35286 0.67412 0.0
N1708 N 0.90843 0.4462 0.63916 0.0
N1709 N 0.83374 0.37209 0.65141 0.0
H1710 H 0.22579 0.76142 0.67384 0.0
H1711 H 0.1132 0.57107 0.60487 0.0
H1712 H 0.21549 0.66844 0.71769 0.0
H1713 H 0.10745 0.66771 0.57489 0.0
H1714 H 0.15548 0.60493 0.64226 0.0
H1715 H 0.18723 0.72641 0.63386 0.0
C1716 C 0.21573 0.73354 0.67491 0.0
C1717 C 0.22425 0.71792 0.69918 0.0
C1718 C 0.14514 0.61873 0.62738 0.0
C1719 C 0.17985 0.67741 0.65309 0.0
C1720 C 0.12118 0.59934 0.60577 0.0
C1721 C 0.10682 0.61638 0.58636 0.0
C1722 C 0.15514 0.65562 0.62964 0.0
C1723 C 0.11772 0.65329 0.58924 0.0
C1724 C 0.19359 0.71355 0.65205 0.0
C1725 C 0.21025 0.68161 0.69919 0.0
N1726 N 0.14115 0.67157 0.61035 0.0
N1727 N 0.18879 0.66265 0.67659 0.0
loop_
_geom_bond_atom_site_label_1
_geom_bond_atom_site_label_2
_geom_bond_distance
_geom_bond_site_symmetry_2
_ccdc_geom_bond_type
Tb0 N29 2.617 . S
Tb0 N35 2.572 . S
Tb0 O44 2.465 . S
Tb0 O45 2.387 . S
Tb0 O47 2.428 . S
Tb0 O48 2.308 . S
Tb0 O52 2.349 . S
Tb0 O55 2.393 . S
Tb0 C64 2.802 . S
C1 N2 1.379 . S
C1 C4 1.416 . S
C1 C8 1.424 . S
N2 C1 1.379 . S
N2 C5 1.334 . S
N2 Tb11 2.617 . S
C3 C5 1.390 . S
C3 C6 1.339 . S
C3 H23 0.930 . S
C4 C1 1.416 . S
C4 C6 1.416 . S
C4 C10 1.448 . S
C5 N2 1.334 . S
C5 C3 1.390 . S
C5 H16 0.930 . S
C6 C3 1.339 . S
C6 C4 1.416 . S
C6 H27 0.930 . S
C7 C8 1.413 . S
C7 C9 1.427 . S
C7 C13 1.416 . S
C8 C1 1.424 . S
C8 C7 1.413 . S
C8 N12 1.361 . S
C9 C7 1.427 . S
C9 C10 1.328 . S
C9 H24 0.929 . S
C10 C4 1.448 . S
C10 C9 1.328 . S
C10 H25 0.930 . S
Tb11 N2 2.617 . S
Tb11 N12 2.572 . S
Tb11 O46 2.349 . S
Tb11 O49 2.393 . S
Tb11 O50 2.465 . S
Tb11 O51 2.387 . S
Tb11 O53 2.428 . S
Tb11 O54 2.308 . S
Tb11 C75 2.802 . S
N12 C8 1.361 . S
N12 Tb11 2.572 . S
N12 C14 1.340 . S
C13 C7 1.416 . S
C13 C15 1.332 . S
C13 H21 0.931 . S
C14 N12 1.340 . S
C14 C15 1.407 . S
C14 H20 0.930 . S
C15 C13 1.332 . S
C15 C14 1.407 . S
C15 H17 0.929 . S
H16 C5 0.930 . S
H17 C15 0.929 . S
H18 C33 0.930 . S
H19 C40 0.929 . S
H20 C14 0.930 . S
H21 C13 0.931 . S
H22 C36 0.930 . S
H23 C3 0.930 . S
H24 C9 0.929 . S
H25 C10 0.930 . S
H26 C31 0.930 . S
H27 C6 0.930 . S
H28 C39 0.931 . S
N29 Tb0 2.617 . S
N29 C30 1.379 . S
N29 C33 1.334 . S
C30 N29 1.379 . S
C30 C32 1.416 . S
C30 C38 1.424 . S
C31 H26 0.930 . S
C31 C33 1.390 . S
C31 C34 1.339 . S
C32 C30 1.416 . S
C32 C34 1.416 . S
C32 C65 1.448 . S
C33 H18 0.930 . S
C33 N29 1.334 . S
C33 C31 1.390 . S
C34 C31 1.339 . S
C34 C32 1.416 . S
C34 H41 0.930 . S
N35 Tb0 2.572 . S
N35 C36 1.340 . S
N35 C38 1.361 . S
C36 H22 0.930 . S
C36 N35 1.340 . S
C36 C40 1.407 . S
C37 C38 1.413 . S
C37 C39 1.416 . S
C37 C66 1.427 . S
C38 C30 1.424 . S
C38 N35 1.361 . S
C38 C37 1.413 . S
C39 H28 0.931 . S
C39 C37 1.416 . S
C39 C40 1.332 . S
C40 H19 0.929 . S
C40 C36 1.407 . S
C40 C39 1.332 . S
H41 C34 0.930 . S
H42 C65 0.930 . S
H43 C66 0.929 . S
O44 Tb0 2.465 . S
O44 C64 1.264 . S
O45 Tb0 2.387 . S
O45 C56 1.264 . S
O46 Tb11 2.349 . S
O46 C56 1.243 . S
O47 Tb0 2.428 . S
O47 C64 1.256 . S
O48 Tb0 2.308 . S
O48 C63 1.266 . S
O49 Tb11 2.393 . S
O49 C63 1.248 . S
O50 Tb11 2.465 . S
O50 C75 1.264 . S
O51 Tb11 2.387 . S
O51 C67 1.264 . S
O52 Tb0 2.349 . S
O52 C67 1.243 . S
O53 Tb11 2.428 . S
O53 C75 1.256 . S
O54 Tb11 2.308 . S
O54 C74 1.266 . S
O55 Tb0 2.393 . S
O55 C74 1.248 . S
C56 O45 1.264 . S
C56 O46 1.243 . S
C57 C60 1.399 . S
C57 C62 1.383 . S
C57 C64 1.496 . S
C58 C59 1.399 . S
C58 C62 1.389 . S
C59 C58 1.399 . S
C59 C61 1.380 . S
C59 H76 0.929 . S
C60 C57 1.399 . S
C60 C61 1.392 . S
C60 H77 0.929 . S
C61 C59 1.380 . S
C61 C60 1.392 . S
C61 H78 0.929 . S
C62 C57 1.383 . S
C62 C58 1.389 . S
C62 H79 0.931 . S
C63 O48 1.266 . S
C63 O49 1.248 . S
C64 Tb0 2.802 . S
C64 O44 1.264 . S
C64 O47 1.256 . S
C64 C57 1.496 . S
C65 C32 1.448 . S
C65 H42 0.930 . S
C65 C66 1.328 . S
C66 C37 1.427 . S
C66 H43 0.929 . S
C66 C65 1.328 . S
C67 O51 1.264 . S
C67 O52 1.243 . S
C68 C71 1.399 . S
C68 C72 1.383 . S
C68 C75 1.496 . S
C69 C70 1.399 . S
C69 C72 1.389 . S
C70 C69 1.399 . S
C70 C73 1.380 . S
C70 H80 0.929 . S
C71 C68 1.399 . S
C71 C73 1.392 . S
C71 H81 0.929 . S
C72 C68 1.383 . S
C72 C69 1.389 . S
C72 H82 0.931 . S
C73 C70 1.380 . S
C73 C71 1.392 . S
C73 H83 0.929 . S
C74 O54 1.266 . S
C74 O55 1.248 . S
C75 Tb11 2.802 . S
C75 O50 1.264 . S
C75 O53 1.256 . S
C75 C68 1.496 . S
H76 C59 0.929 . S
H77 C60 0.929 . S
H78 C61 0.929 . S
H79 C62 0.931 . S
H80 C70 0.929 . S
H81 C71 0.929 . S
H82 C72 0.931 . S
H83 C73 0.929 . S
Tb84 N113 2.617 . S
Tb84 N119 2.572 . S
Tb84 O128 2.465 . S
Tb84 O129 2.387 . S
Tb84 O131 2.428 . S
Tb84 O132 2.308 . S
Tb84 O136 2.349 . S
Tb84 O139 2.393 . S
Tb84 C148 2.802 . S
C85 N86 1.379 . S
C85 C88 1.416 . S
C85 C92 1.424 . S
N86 C85 1.379 . S
N86 C89 1.334 . S
N86 Tb95 2.617 . S
C87 C89 1.390 . S
C87 C90 1.339 . S
C87 H107 0.930 . S
C88 C85 1.416 . S
C88 C90 1.416 . S
C88 C94 1.448 . S
C89 N86 1.334 . S
C89 C87 1.390 . S
C89 H100 0.930 . S
C90 C87 1.339 . S
C90 C88 1.416 . S
C90 H111 0.930 . S
C91 C92 1.413 . S
C91 C93 1.427 . S
C91 C97 1.416 . S
C92 C85 1.424 . S
C92 C91 1.413 . S
C92 N96 1.361 . S
C93 C91 1.427 . S
C93 C94 1.328 . S
C93 H108 0.929 . S
C94 C88 1.448 . S
C94 C93 1.328 . S
C94 H109 0.930 . S
Tb95 N86 2.617 . S
Tb95 N96 2.572 . S
Tb95 O130 2.349 . S
Tb95 O133 2.393 . S
Tb95 O134 2.465 . S
Tb95 O135 2.387 . S
Tb95 O137 2.428 . S
Tb95 O138 2.308 . S
Tb95 C159 2.802 . S
N96 C92 1.361 . S
N96 Tb95 2.572 . S
N96 C98 1.340 . S
C97 C91 1.416 . S
C97 C99 1.332 . S
C97 H105 0.931 . S
C98 N96 1.340 . S
C98 C99 1.407 . S
C98 H104 0.930 . S
C99 C97 1.332 . S
C99 C98 1.407 . S
C99 H101 0.929 . S
H100 C89 0.930 . S
H101 C99 0.929 . S
H102 C117 0.930 . S
H103 C124 0.929 . S
H104 C98 0.930 . S
H105 C97 0.931 . S
H106 C120 0.930 . S
H107 C87 0.930 . S
H108 C93 0.929 . S
H109 C94 0.930 . S
H110 C115 0.930 . S
H111 C90 0.930 . S
H112 C123 0.931 . S
N113 Tb84 2.617 . S
N113 C114 1.379 . S
N113 C117 1.334 . S
C114 N113 1.379 . S
C114 C116 1.416 . S
C114 C122 1.424 . S
C115 H110 0.930 . S
C115 C117 1.390 . S
C115 C118 1.339 . S
C116 C114 1.416 . S
C116 C118 1.416 . S
C116 C149 1.448 . S
C117 H102 0.930 . S
C117 N113 1.334 . S
C117 C115 1.390 . S
C118 C115 1.339 . S
C118 C116 1.416 . S
C118 H125 0.930 . S
N119 Tb84 2.572 . S
N119 C120 1.340 . S
N119 C122 1.361 . S
C120 H106 0.930 . S
C120 N119 1.340 . S
C120 C124 1.407 . S
C121 C122 1.413 . S
C121 C123 1.416 . S
C121 C150 1.427 . S
C122 C114 1.424 . S
C122 N119 1.361 . S
C122 C121 1.413 . S
C123 H112 0.931 . S
C123 C121 1.416 . S
C123 C124 1.332 . S
C124 H103 0.929 . S
C124 C120 1.407 . S
C124 C123 1.332 . S
H125 C118 0.930 . S
H126 C149 0.930 . S
H127 C150 0.929 . S
O128 Tb84 2.465 . S
O128 C148 1.264 . S
O129 Tb84 2.387 . S
O129 C140 1.264 . S
O130 Tb95 2.349 . S
O130 C140 1.243 . S
O131 Tb84 2.428 . S
O131 C148 1.256 . S
O132 Tb84 2.308 . S
O132 C147 1.266 . S
O133 Tb95 2.393 . S
O133 C147 1.248 . S
O134 Tb95 2.465 . S
O134 C159 1.264 . S
O135 Tb95 2.387 . S
O135 C151 1.264 . S
O136 Tb84 2.349 . S
O136 C151 1.243 . S
O137 Tb95 2.428 . S
O137 C159 1.256 . S
O138 Tb95 2.308 . S
O138 C158 1.266 . S
O139 Tb84 2.393 . S
O139 C158 1.248 . S
C140 O129 1.264 . S
C140 O130 1.243 . S
C141 C144 1.399 . S
C141 C146 1.383 . S
C141 C148 1.496 . S
C142 C143 1.399 . S
C142 C146 1.389 . S
C143 C142 1.399 . S
C143 C145 1.380 . S
C143 H160 0.929 . S
C144 C141 1.399 . S
C144 C145 1.392 . S
C144 H161 0.929 . S
C145 C143 1.380 . S
C145 C144 1.392 . S
C145 H162 0.929 . S
C146 C141 1.383 . S
C146 C142 1.389 . S
C146 H163 0.931 . S
C147 O132 1.266 . S
C147 O133 1.248 . S
C148 Tb84 2.802 . S
C148 O128 1.264 . S
C148 O131 1.256 . S
C148 C141 1.496 . S
C149 C116 1.448 . S
C149 H126 0.930 . S
C149 C150 1.328 . S
C150 C121 1.427 . S
C150 H127 0.929 . S
C150 C149 1.328 . S
C151 O135 1.264 . S
C151 O136 1.243 . S
C152 C155 1.399 . S
C152 C156 1.383 . S
C152 C159 1.496 . S
C153 C154 1.399 . S
C153 C156 1.389 . S
C154 C153 1.399 . S
C154 C157 1.380 . S
C154 H164 0.929 . S
C155 C152 1.399 . S
C155 C157 1.392 . S
C155 H165 0.929 . S
C156 C152 1.383 . S
C156 C153 1.389 . S
C156 H166 0.931 . S
C157 C154 1.380 . S
C157 C155 1.392 . S
C157 H167 0.929 . S
C158 O138 1.266 . S
C158 O139 1.248 . S
C159 Tb95 2.802 . S
C159 O134 1.264 . S
C159 O137 1.256 . S
C159 C152 1.496 . S
H160 C143 0.929 . S
H161 C144 0.929 . S
H162 C145 0.929 . S
H163 C146 0.931 . S
H164 C154 0.929 . S
H165 C155 0.929 . S
H166 C156 0.931 . S
H167 C157 0.929 . S
Tb168 N197 2.617 . S
Tb168 N203 2.572 . S
Tb168 O212 2.465 . S
Tb168 O213 2.387 . S
Tb168 O215 2.428 . S
Tb168 O216 2.308 . S
Tb168 O220 2.349 . S
Tb168 O223 2.393 . S
Tb168 C232 2.802 . S
C169 N170 1.379 . S
C169 C172 1.416 . S
C169 C176 1.424 . S
N170 C169 1.379 . S
N170 C173 1.334 . S
N170 Tb179 2.617 . S
C171 C173 1.390 . S
C171 C174 1.339 . S
C171 H191 0.930 . S
C172 C169 1.416 . S
C172 C174 1.416 . S
C172 C178 1.448 . S
C173 N170 1.334 . S
C173 C171 1.390 . S
C173 H184 0.930 . S
C174 C171 1.339 . S
C174 C172 1.416 . S
C174 H195 0.930 . S
C175 C176 1.413 . S
C175 C177 1.427 . S
C175 C181 1.416 . S
C176 C169 1.424 . S
C176 C175 1.413 . S
C176 N180 1.361 . S
C177 C175 1.427 . S
C177 C178 1.328 . S
C177 H192 0.929 . S
C178 C172 1.448 . S
C178 C177 1.328 . S
C178 H193 0.930 . S
Tb179 N170 2.617 . S
Tb179 N180 2.572 . S
Tb179 O214 2.349 . S
Tb179 O217 2.393 . S
Tb179 O218 2.465 . S
Tb179 O219 2.387 . S
Tb179 O221 2.428 . S
Tb179 O222 2.308 . S
Tb179 C243 2.802 . S
N180 C176 1.361 . S
N180 Tb179 2.572 . S
N180 C182 1.340 . S
C181 C175 1.416 . S
C181 C183 1.332 . S
C181 H189 0.931 . S
C182 N180 1.340 . S
C182 C183 1.407 . S
C182 H188 0.930 . S
C183 C181 1.332 . S
C183 C182 1.407 . S
C183 H185 0.929 . S
H184 C173 0.930 . S
H185 C183 0.929 . S
H186 C201 0.930 . S
H187 C208 0.929 . S
H188 C182 0.930 . S
H189 C181 0.931 . S
H190 C204 0.930 . S
H191 C171 0.930 . S
H192 C177 0.929 . S
H193 C178 0.930 . S
H194 C199 0.930 . S
H195 C174 0.930 . S
H196 C207 0.931 . S
N197 Tb168 2.617 . S
N197 C198 1.379 . S
N197 C201 1.334 . S
C198 N197 1.379 . S
C198 C200 1.416 . S
C198 C206 1.424 . S
C199 H194 0.930 . S
C199 C201 1.390 . S
C199 C202 1.339 . S
C200 C198 1.416 . S
C200 C202 1.416 . S
C200 C233 1.448 . S
C201 H186 0.930 . S
C201 N197 1.334 . S
C201 C199 1.390 . S
C202 C199 1.339 . S
C202 C200 1.416 . S
C202 H209 0.930 . S
N203 Tb168 2.572 . S
N203 C204 1.340 . S
N203 C206 1.361 . S
C204 H190 0.930 . S
C204 N203 1.340 . S
C204 C208 1.407 . S
C205 C206 1.413 . S
C205 C207 1.416 . S
C205 C234 1.427 . S
C206 C198 1.424 . S
C206 N203 1.361 . S
C206 C205 1.413 . S
C207 H196 0.931 . S
C207 C205 1.416 . S
C207 C208 1.332 . S
C208 H187 0.929 . S
C208 C204 1.407 . S
C208 C207 1.332 . S
H209 C202 0.930 . S
H210 C233 0.930 . S
H211 C234 0.929 . S
O212 Tb168 2.465 . S
O212 C232 1.264 . S
O213 Tb168 2.387 . S
O213 C224 1.264 . S
O214 Tb179 2.349 . S
O214 C224 1.243 . S
O215 Tb168 2.428 . S
O215 C232 1.256 . S
O216 Tb168 2.308 . S
O216 C231 1.266 . S
O217 Tb179 2.393 . S
O217 C231 1.248 . S
O218 Tb179 2.465 . S
O218 C243 1.264 . S
O219 Tb179 2.387 . S
O219 C235 1.264 . S
O220 Tb168 2.349 . S
O220 C235 1.243 . S
O221 Tb179 2.428 . S
O221 C243 1.256 . S
O222 Tb179 2.308 . S
O222 C242 1.266 . S
O223 Tb168 2.393 . S
O223 C242 1.248 . S
C224 O213 1.264 . S
C224 O214 1.243 . S
C225 C228 1.399 . S
C225 C230 1.383 . S
C225 C232 1.496 . S
C226 C227 1.399 . S
C226 C230 1.389 . S
C227 C226 1.399 . S
C227 C229 1.380 . S
C227 H244 0.929 . S
C228 C225 1.399 . S
C228 C229 1.392 . S
C228 H245 0.929 . S
C229 C227 1.380 . S
C229 C228 1.392 . S
C229 H246 0.929 . S
C230 C225 1.383 . S
C230 C226 1.389 . S
C230 H247 0.931 . S
C231 O216 1.266 . S
C231 O217 1.248 . S
C232 Tb168 2.802 . S
C232 O212 1.264 . S
C232 O215 1.256 . S
C232 C225 1.496 . S
C233 C200 1.448 . S
C233 H210 0.930 . S
C233 C234 1.328 . S
C234 C205 1.427 . S
C234 H211 0.929 . S
C234 C233 1.328 . S
C235 O219 1.264 . S
C235 O220 1.243 . S
C236 C239 1.399 . S
C236 C240 1.383 . S
C236 C243 1.496 . S
C237 C238 1.399 . S
C237 C240 1.389 . S
C238 C237 1.399 . S
C238 C241 1.380 . S
C238 H248 0.929 . S
C239 C236 1.399 . S
C239 C241 1.392 . S
C239 H249 0.929 . S
C240 C236 1.383 . S
C240 C237 1.389 . S
C240 H250 0.931 . S
C241 C238 1.380 . S
C241 C239 1.392 . S
C241 H251 0.929 . S
C242 O222 1.266 . S
C242 O223 1.248 . S
C243 Tb179 2.802 . S
C243 O218 1.264 . S
C243 O221 1.256 . S
C243 C236 1.496 . S
H244 C227 0.929 . S
H245 C228 0.929 . S
H246 C229 0.929 . S
H247 C230 0.931 . S
H248 C238 0.929 . S
H249 C239 0.929 . S
H250 C240 0.931 . S
H251 C241 0.929 . S
Tb252 N281 2.617 . S
Tb252 N287 2.572 . S
Tb252 O296 2.465 . S
Tb252 O297 2.387 . S
Tb252 O299 2.428 . S
Tb252 O300 2.308 . S
Tb252 O304 2.349 . S
Tb252 O307 2.393 . S
Tb252 C316 2.802 . S
C253 N254 1.379 . S
C253 C256 1.416 . S
C253 C260 1.424 . S
N254 C253 1.379 . S
N254 C257 1.334 . S
N254 Tb263 2.617 . S
C255 C257 1.390 . S
C255 C258 1.339 . S
C255 H275 0.930 . S
C256 C253 1.416 . S
C256 C258 1.416 . S
C256 C262 1.448 . S
C257 N254 1.334 . S
C257 C255 1.390 . S
C257 H268 0.930 . S
C258 C255 1.339 . S
C258 C256 1.416 . S
C258 H279 0.930 . S
C259 C260 1.413 . S
C259 C261 1.427 . S
C259 C265 1.416 . S
C260 C253 1.424 . S
C260 C259 1.413 . S
C260 N264 1.361 . S
C261 C259 1.427 . S
C261 C262 1.328 . S
C261 H276 0.929 . S
C262 C256 1.448 . S
C262 C261 1.328 . S
C262 H277 0.930 . S
Tb263 N254 2.617 . S
Tb263 N264 2.572 . S
Tb263 O298 2.349 . S
Tb263 O301 2.393 . S
Tb263 O302 2.465 . S
Tb263 O303 2.387 . S
Tb263 O305 2.428 . S
Tb263 O306 2.308 . S
Tb263 C327 2.802 . S
N264 C260 1.361 . S
N264 Tb263 2.572 . S
N264 C266 1.340 . S
C265 C259 1.416 . S
C265 C267 1.332 . S
C265 H273 0.931 . S
C266 N264 1.340 . S
C266 C267 1.407 . S
C266 H272 0.930 . S
C267 C265 1.332 . S
C267 C266 1.407 . S
C267 H269 0.929 . S
H268 C257 0.930 . S
H269 C267 0.929 . S
H270 C285 0.930 . S
H271 C292 0.929 . S
H272 C266 0.930 . S
H273 C265 0.931 . S
H274 C288 0.930 . S
H275 C255 0.930 . S
H276 C261 0.929 . S
H277 C262 0.930 . S
H278 C283 0.930 . S
H279 C258 0.930 . S
H280 C291 0.931 . S
N281 Tb252 2.617 . S
N281 C282 1.379 . S
N281 C285 1.334 . S
C282 N281 1.379 . S
C282 C284 1.416 . S
C282 C290 1.424 . S
C283 H278 0.930 . S
C283 C285 1.390 . S
C283 C286 1.339 . S
C284 C282 1.416 . S
C284 C286 1.416 . S
C284 C317 1.448 . S
C285 H270 0.930 . S
C285 N281 1.334 . S
C285 C283 1.390 . S
C286 C283 1.339 . S
C286 C284 1.416 . S
C286 H293 0.930 . S
N287 Tb252 2.572 . S
N287 C288 1.340 . S
N287 C290 1.361 . S
C288 H274 0.930 . S
C288 N287 1.340 . S
C288 C292 1.407 . S
C289 C290 1.413 . S
C289 C291 1.416 . S
C289 C318 1.427 . S
C290 C282 1.424 . S
C290 N287 1.361 . S
C290 C289 1.413 . S
C291 H280 0.931 . S
C291 C289 1.416 . S
C291 C292 1.332 . S
C292 H271 0.929 . S
C292 C288 1.407 . S
C292 C291 1.332 . S
H293 C286 0.930 . S
H294 C317 0.930 . S
H295 C318 0.929 . S
O296 Tb252 2.465 . S
O296 C316 1.264 . S
O297 Tb252 2.387 . S
O297 C308 1.264 . S
O298 Tb263 2.349 . S
O298 C308 1.243 . S
O299 Tb252 2.428 . S
O299 C316 1.256 . S
O300 Tb252 2.308 . S
O300 C315 1.266 . S
O301 Tb263 2.393 . S
O301 C315 1.248 . S
O302 Tb263 2.465 . S
O302 C327 1.264 . S
O303 Tb263 2.387 . S
O303 C319 1.264 . S
O304 Tb252 2.349 . S
O304 C319 1.243 . S
O305 Tb263 2.428 . S
O305 C327 1.256 . S
O306 Tb263 2.308 . S
O306 C326 1.266 . S
O307 Tb252 2.393 . S
O307 C326 1.248 . S
C308 O297 1.264 . S
C308 O298 1.243 . S
C309 C312 1.399 . S
C309 C314 1.383 . S
C309 C316 1.496 . S
C310 C311 1.399 . S
C310 C314 1.389 . S
C311 C310 1.399 . S
C311 C313 1.380 . S
C311 H328 0.929 . S
C312 C309 1.399 . S
C312 C313 1.392 . S
C312 H329 0.929 . S
C313 C311 1.380 . S
C313 C312 1.392 . S
C313 H330 0.929 . S
C314 C309 1.383 . S
C314 C310 1.389 . S
C314 H331 0.931 . S
C315 O300 1.266 . S
C315 O301 1.248 . S
C316 Tb252 2.802 . S
C316 O296 1.264 . S
C316 O299 1.256 . S
C316 C309 1.496 . S
C317 C284 1.448 . S
C317 H294 0.930 . S
C317 C318 1.328 . S
C318 C289 1.427 . S
C318 H295 0.929 . S
C318 C317 1.328 . S
C319 O303 1.264 . S
C319 O304 1.243 . S
C320 C323 1.399 . S
C320 C324 1.383 . S
C320 C327 1.496 . S
C321 C322 1.399 . S
C321 C324 1.389 . S
C322 C321 1.399 . S
C322 C325 1.380 . S
C322 H332 0.929 . S
C323 C320 1.399 . S
C323 C325 1.392 . S
C323 H333 0.929 . S
C324 C320 1.383 . S
C324 C321 1.389 . S
C324 H334 0.931 . S
C325 C322 1.380 . S
C325 C323 1.392 . S
C325 H335 0.929 . S
C326 O306 1.266 . S
C326 O307 1.248 . S
C327 Tb263 2.802 . S
C327 O302 1.264 . S
C327 O305 1.256 . S
C327 C320 1.496 . S
H328 C311 0.929 . S
H329 C312 0.929 . S
H330 C313 0.929 . S
H331 C314 0.931 . S
H332 C322 0.929 . S
H333 C323 0.929 . S
H334 C324 0.931 . S
H335 C325 0.929 . S
Tb336 N365 2.617 . S
Tb336 N371 2.572 . S
Tb336 O380 2.465 . S
Tb336 O381 2.387 . S
Tb336 O383 2.428 . S
Tb336 O384 2.308 . S
Tb336 O388 2.349 . S
Tb336 O391 2.393 . S
Tb336 C400 2.802 . S
C337 N338 1.379 . S
C337 C340 1.416 . S
C337 C344 1.424 . S
N338 C337 1.379 . S
N338 C341 1.334 . S
N338 Tb347 2.617 . S
C339 C341 1.390 . S
C339 C342 1.339 . S
C339 H359 0.930 . S
C340 C337 1.416 . S
C340 C342 1.416 . S
C340 C346 1.448 . S
C341 N338 1.334 . S
C341 C339 1.390 . S
C341 H352 0.930 . S
C342 C339 1.339 . S
C342 C340 1.416 . S
C342 H363 0.930 . S
C343 C344 1.413 . S
C343 C345 1.427 . S
C343 C349 1.416 . S
C344 C337 1.424 . S
C344 C343 1.413 . S
C344 N348 1.361 . S
C345 C343 1.427 . S
C345 C346 1.328 . S
C345 H360 0.929 . S
C346 C340 1.448 . S
C346 C345 1.328 . S
C346 H361 0.930 . S
Tb347 N338 2.617 . S
Tb347 N348 2.572 . S
Tb347 O382 2.349 . S
Tb347 O385 2.393 . S
Tb347 O386 2.465 . S
Tb347 O387 2.387 . S
Tb347 O389 2.428 . S
Tb347 O390 2.308 . S
Tb347 C411 2.802 . S
N348 C344 1.361 . S
N348 Tb347 2.572 . S
N348 C350 1.340 . S
C349 C343 1.416 . S
C349 C351 1.332 . S
C349 H357 0.931 . S
C350 N348 1.340 . S
C350 C351 1.407 . S
C350 H356 0.930 . S
C351 C349 1.332 . S
C351 C350 1.407 . S
C351 H353 0.929 . S
H352 C341 0.930 . S
H353 C351 0.929 . S
H354 C369 0.930 . S
H355 C376 0.929 . S
H356 C350 0.930 . S
H357 C349 0.931 . S
H358 C372 0.930 . S
H359 C339 0.930 . S
H360 C345 0.929 . S
H361 C346 0.930 . S
H362 C367 0.930 . S
H363 C342 0.930 . S
H364 C375 0.931 . S
N365 Tb336 2.617 . S
N365 C366 1.379 . S
N365 C369 1.334 . S
C366 N365 1.379 . S
C366 C368 1.416 . S
C366 C374 1.424 . S
C367 H362 0.930 . S
C367 C369 1.390 . S
C367 C370 1.339 . S
C368 C366 1.416 . S
C368 C370 1.416 . S
C368 C401 1.448 . S
C369 H354 0.930 . S
C369 N365 1.334 . S
C369 C367 1.390 . S
C370 C367 1.339 . S
C370 C368 1.416 . S
C370 H377 0.930 . S
N371 Tb336 2.572 . S
N371 C372 1.340 . S
N371 C374 1.361 . S
C372 H358 0.930 . S
C372 N371 1.340 . S
C372 C376 1.407 . S
C373 C374 1.413 . S
C373 C375 1.416 . S
C373 C402 1.427 . S
C374 C366 1.424 . S
C374 N371 1.361 . S
C374 C373 1.413 . S
C375 H364 0.931 . S
C375 C373 1.416 . S
C375 C376 1.332 . S
C376 H355 0.929 . S
C376 C372 1.407 . S
C376 C375 1.332 . S
H377 C370 0.930 . S
H378 C401 0.930 . S
H379 C402 0.929 . S
O380 Tb336 2.465 . S
O380 C400 1.264 . S
O381 Tb336 2.387 . S
O381 C392 1.264 . S
O382 Tb347 2.349 . S
O382 C392 1.243 . S
O383 Tb336 2.428 . S
O383 C400 1.256 . S
O384 Tb336 2.308 . S
O384 C399 1.266 . S
O385 Tb347 2.393 . S
O385 C399 1.248 . S
O386 Tb347 2.465 . S
O386 C411 1.264 . S
O387 Tb347 2.387 . S
O387 C403 1.264 . S
O388 Tb336 2.349 . S
O388 C403 1.243 . S
O389 Tb347 2.428 . S
O389 C411 1.256 . S
O390 Tb347 2.308 . S
O390 C410 1.266 . S
O391 Tb336 2.393 . S
O391 C410 1.248 . S
C392 O381 1.264 . S
C392 O382 1.243 . S
C393 C396 1.399 . S
C393 C398 1.383 . S
C393 C400 1.496 . S
C394 C395 1.399 . S
C394 C398 1.389 . S
C395 C394 1.399 . S
C395 C397 1.380 . S
C395 H412 0.929 . S
C396 C393 1.399 . S
C396 C397 1.392 . S
C396 H413 0.929 . S
C397 C395 1.380 . S
C397 C396 1.392 . S
C397 H414 0.929 . S
C398 C393 1.383 . S
C398 C394 1.389 . S
C398 H415 0.931 . S
C399 O384 1.266 . S
C399 O385 1.248 . S
C400 Tb336 2.802 . S
C400 O380 1.264 . S
C400 O383 1.256 . S
C400 C393 1.496 . S
C401 C368 1.448 . S
C401 H378 0.930 . S
C401 C402 1.328 . S
C402 C373 1.427 . S
C402 H379 0.929 . S
C402 C401 1.328 . S
C403 O387 1.264 . S
C403 O388 1.243 . S
C404 C407 1.399 . S
C404 C408 1.383 . S
C404 C411 1.496 . S
C405 C406 1.399 . S
C405 C408 1.389 . S
C406 C405 1.399 . S
C406 C409 1.380 . S
C406 H416 0.929 . S
C407 C404 1.399 . S
C407 C409 1.392 . S
C407 H417 0.929 . S
C408 C404 1.383 . S
C408 C405 1.389 . S
C408 H418 0.931 . S
C409 C406 1.380 . S
C409 C407 1.392 . S
C409 H419 0.929 . S
C410 O390 1.266 . S
C410 O391 1.248 . S
C411 Tb347 2.802 . S
C411 O386 1.264 . S
C411 O389 1.256 . S
C411 C404 1.496 . S
H412 C395 0.929 . S
H413 C396 0.929 . S
H414 C397 0.929 . S
H415 C398 0.931 . S
H416 C406 0.929 . S
H417 C407 0.929 . S
H418 C408 0.931 . S
H419 C409 0.929 . S
Tb420 N449 2.617 . S
Tb420 N455 2.572 . S
Tb420 O464 2.465 . S
Tb420 O465 2.387 . S
Tb420 O467 2.428 . S
Tb420 O468 2.308 . S
Tb420 O472 2.349 . S
Tb420 O475 2.393 . S
Tb420 C484 2.802 . S
C421 N422 1.379 . S
C421 C424 1.416 . S
C421 C428 1.424 . S
N422 C421 1.379 . S
N422 C425 1.334 . S
N422 Tb431 2.617 . S
C423 C425 1.390 . S
C423 C426 1.339 . S
C423 H443 0.930 . S
C424 C421 1.416 . S
C424 C426 1.416 . S
C424 C430 1.448 . S
C425 N422 1.334 . S
C425 C423 1.390 . S
C425 H436 0.930 . S
C426 C423 1.339 . S
C426 C424 1.416 . S
C426 H447 0.930 . S
C427 C428 1.413 . S
C427 C429 1.427 . S
C427 C433 1.416 . S
C428 C421 1.424 . S
C428 C427 1.413 . S
C428 N432 1.361 . S
C429 C427 1.427 . S
C429 C430 1.328 . S
C429 H444 0.929 . S
C430 C424 1.448 . S
C430 C429 1.328 . S
C430 H445 0.930 . S
Tb431 N422 2.617 . S
Tb431 N432 2.572 . S
Tb431 O466 2.349 . S
Tb431 O469 2.393 . S
Tb431 O470 2.465 . S
Tb431 O471 2.387 . S
Tb431 O473 2.428 . S
Tb431 O474 2.308 . S
Tb431 C495 2.802 . S
N432 C428 1.361 . S
N432 Tb431 2.572 . S
N432 C434 1.340 . S
C433 C427 1.416 . S
C433 C435 1.332 . S
C433 H441 0.931 . S
C434 N432 1.340 . S
C434 C435 1.407 . S
C434 H440 0.930 . S
C435 C433 1.332 . S
C435 C434 1.407 . S
C435 H437 0.929 . S
H436 C425 0.930 . S
H437 C435 0.929 . S
H438 C453 0.930 . S
H439 C460 0.929 . S
H440 C434 0.930 . S
H441 C433 0.931 . S
H442 C456 0.930 . S
H443 C423 0.930 . S
H444 C429 0.929 . S
H445 C430 0.930 . S
H446 C451 0.930 . S
H447 C426 0.930 . S
H448 C459 0.931 . S
N449 Tb420 2.617 . S
N449 C450 1.379 . S
N449 C453 1.334 . S
C450 N449 1.379 . S
C450 C452 1.416 . S
C450 C458 1.424 . S
C451 H446 0.930 . S
C451 C453 1.390 . S
C451 C454 1.339 . S
C452 C450 1.416 . S
C452 C454 1.416 . S
C452 C485 1.448 . S
C453 H438 0.930 . S
C453 N449 1.334 . S
C453 C451 1.390 . S
C454 C451 1.339 . S
C454 C452 1.416 . S
C454 H461 0.930 . S
N455 Tb420 2.572 . S
N455 C456 1.340 . S
N455 C458 1.361 . S
C456 H442 0.930 . S
C456 N455 1.340 . S
C456 C460 1.407 . S
C457 C458 1.413 . S
C457 C459 1.416 . S
C457 C486 1.427 . S
C458 C450 1.424 . S
C458 N455 1.361 . S
C458 C457 1.413 . S
C459 H448 0.931 . S
C459 C457 1.416 . S
C459 C460 1.332 . S
C460 H439 0.929 . S
C460 C456 1.407 . S
C460 C459 1.332 . S
H461 C454 0.930 . S
H462 C485 0.930 . S
H463 C486 0.929 . S
O464 Tb420 2.465 . S
O464 C484 1.264 . S
O465 Tb420 2.387 . S
O465 C476 1.264 . S
O466 Tb431 2.349 . S
O466 C476 1.243 . S
O467 Tb420 2.428 . S
O467 C484 1.256 . S
O468 Tb420 2.308 . S
O468 C483 1.266 . S
O469 Tb431 2.393 . S
O469 C483 1.248 . S
O470 Tb431 2.465 . S
O470 C495 1.264 . S
O471 Tb431 2.387 . S
O471 C487 1.264 . S
O472 Tb420 2.349 . S
O472 C487 1.243 . S
O473 Tb431 2.428 . S
O473 C495 1.256 . S
O474 Tb431 2.308 . S
O474 C494 1.266 . S
O475 Tb420 2.393 . S
O475 C494 1.248 . S
C476 O465 1.264 . S
C476 O466 1.243 . S
C477 C480 1.399 . S
C477 C482 1.383 . S
C477 C484 1.496 . S
C478 C479 1.399 . S
C478 C482 1.389 . S
C479 C478 1.399 . S
C479 C481 1.380 . S
C479 H496 0.929 . S
C480 C477 1.399 . S
C480 C481 1.392 . S
C480 H497 0.929 . S
C481 C479 1.380 . S
C481 C480 1.392 . S
C481 H498 0.929 . S
C482 C477 1.383 . S
C482 C478 1.389 . S
C482 H499 0.931 . S
C483 O468 1.266 . S
C483 O469 1.248 . S
C484 Tb420 2.802 . S
C484 O464 1.264 . S
C484 O467 1.256 . S
C484 C477 1.496 . S
C485 C452 1.448 . S
C485 H462 0.930 . S
C485 C486 1.328 . S
C486 C457 1.427 . S
C486 H463 0.929 . S
C486 C485 1.328 . S
C487 O471 1.264 . S
C487 O472 1.243 . S
C488 C491 1.399 . S
C488 C492 1.383 . S
C488 C495 1.496 . S
C489 C490 1.399 . S
C489 C492 1.389 . S
C490 C489 1.399 . S
C490 C493 1.380 . S
C490 H500 0.929 . S
C491 C488 1.399 . S
C491 C493 1.392 . S
C491 H501 0.929 . S
C492 C488 1.383 . S
C492 C489 1.389 . S
C492 H502 0.931 . S
C493 C490 1.380 . S
C493 C491 1.392 . S
C493 H503 0.929 . S
C494 O474 1.266 . S
C494 O475 1.248 . S
C495 Tb431 2.802 . S
C495 O470 1.264 . S
C495 O473 1.256 . S
C495 C488 1.496 . S
H496 C479 0.929 . S
H497 C480 0.929 . S
H498 C481 0.929 . S
H499 C482 0.931 . S
H500 C490 0.929 . S
H501 C491 0.929 . S
H502 C492 0.931 . S
H503 C493 0.929 . S
Tb504 N533 2.617 . S
Tb504 N539 2.572 . S
Tb504 O548 2.465 . S
Tb504 O549 2.387 . S
Tb504 O551 2.428 . S
Tb504 O552 2.308 . S
Tb504 O556 2.349 . S
Tb504 O559 2.393 . S
Tb504 C568 2.802 . S
C505 N506 1.379 . S
C505 C508 1.416 . S
C505 C512 1.424 . S
N506 C505 1.379 . S
N506 C509 1.334 . S
N506 Tb515 2.617 . S
C507 C509 1.390 . S
C507 C510 1.339 . S
C507 H527 0.930 . S
C508 C505 1.416 . S
C508 C510 1.416 . S
C508 C514 1.448 . S
C509 N506 1.334 . S
C509 C507 1.390 . S
C509 H520 0.930 . S
C510 C507 1.339 . S
C510 C508 1.416 . S
C510 H531 0.930 . S
C511 C512 1.413 . S
C511 C513 1.427 . S
C511 C517 1.416 . S
C512 C505 1.424 . S
C512 C511 1.413 . S
C512 N516 1.361 . S
C513 C511 1.427 . S
C513 C514 1.328 . S
C513 H528 0.929 . S
C514 C508 1.448 . S
C514 C513 1.328 . S
C514 H529 0.930 . S
Tb515 N506 2.617 . S
Tb515 N516 2.572 . S
Tb515 O550 2.349 . S
Tb515 O553 2.393 . S
Tb515 O554 2.465 . S
Tb515 O555 2.387 . S
Tb515 O557 2.428 . S
Tb515 O558 2.308 . S
Tb515 C579 2.802 . S
N516 C512 1.361 . S
N516 Tb515 2.572 . S
N516 C518 1.340 . S
C517 C511 1.416 . S
C517 C519 1.332 . S
C517 H525 0.931 . S
C518 N516 1.340 . S
C518 C519 1.407 . S
C518 H524 0.930 . S
C519 C517 1.332 . S
C519 C518 1.407 . S
C519 H521 0.929 . S
H520 C509 0.930 . S
H521 C519 0.929 . S
H522 C537 0.930 . S
H523 C544 0.929 . S
H524 C518 0.930 . S
H525 C517 0.931 . S
H526 C540 0.930 . S
H527 C507 0.930 . S
H528 C513 0.929 . S
H529 C514 0.930 . S
H530 C535 0.930 . S
H531 C510 0.930 . S
H532 C543 0.931 . S
N533 Tb504 2.617 . S
N533 C534 1.379 . S
N533 C537 1.334 . S
C534 N533 1.379 . S
C534 C536 1.416 . S
C534 C542 1.424 . S
C535 H530 0.930 . S
C535 C537 1.390 . S
C535 C538 1.339 . S
C536 C534 1.416 . S
C536 C538 1.416 . S
C536 C569 1.448 . S
C537 H522 0.930 . S
C537 N533 1.334 . S
C537 C535 1.390 . S
C538 C535 1.339 . S
C538 C536 1.416 . S
C538 H545 0.930 . S
N539 Tb504 2.572 . S
N539 C540 1.340 . S
N539 C542 1.361 . S
C540 H526 0.930 . S
C540 N539 1.340 . S
C540 C544 1.407 . S
C541 C542 1.413 . S
C541 C543 1.416 . S
C541 C570 1.427 . S
C542 C534 1.424 . S
C542 N539 1.361 . S
C542 C541 1.413 . S
C543 H532 0.931 . S
C543 C541 1.416 . S
C543 C544 1.332 . S
C544 H523 0.929 . S
C544 C540 1.407 . S
C544 C543 1.332 . S
H545 C538 0.930 . S
H546 C569 0.930 . S
H547 C570 0.929 . S
O548 Tb504 2.465 . S
O548 C568 1.264 . S
O549 Tb504 2.387 . S
O549 C560 1.264 . S
O550 Tb515 2.349 . S
O550 C560 1.243 . S
O551 Tb504 2.428 . S
O551 C568 1.256 . S
O552 Tb504 2.308 . S
O552 C567 1.266 . S
O553 Tb515 2.393 . S
O553 C567 1.248 . S
O554 Tb515 2.465 . S
O554 C579 1.264 . S
O555 Tb515 2.387 . S
O555 C571 1.264 . S
O556 Tb504 2.349 . S
O556 C571 1.243 . S
O557 Tb515 2.428 . S
O557 C579 1.256 . S
O558 Tb515 2.308 . S
O558 C578 1.266 . S
O559 Tb504 2.393 . S
O559 C578 1.248 . S
C560 O549 1.264 . S
C560 O550 1.243 . S
C561 C564 1.399 . S
C561 C566 1.383 . S
C561 C568 1.496 . S
C562 C563 1.399 . S
C562 C566 1.389 . S
C563 C562 1.399 . S
C563 C565 1.380 . S
C563 H580 0.929 . S
C564 C561 1.399 . S
C564 C565 1.392 . S
C564 H581 0.929 . S
C565 C563 1.380 . S
C565 C564 1.392 . S
C565 H582 0.929 . S
C566 C561 1.383 . S
C566 C562 1.389 . S
C566 H583 0.931 . S
C567 O552 1.266 . S
C567 O553 1.248 . S
C568 Tb504 2.802 . S
C568 O548 1.264 . S
C568 O551 1.256 . S
C568 C561 1.496 . S
C569 C536 1.448 . S
C569 H546 0.930 . S
C569 C570 1.328 . S
C570 C541 1.427 . S
C570 H547 0.929 . S
C570 C569 1.328 . S
C571 O555 1.264 . S
C571 O556 1.243 . S
C572 C575 1.399 . S
C572 C576 1.383 . S
C572 C579 1.496 . S
C573 C574 1.399 . S
C573 C576 1.389 . S
C574 C573 1.399 . S
C574 C577 1.380 . S
C574 H584 0.929 . S
C575 C572 1.399 . S
C575 C577 1.392 . S
C575 H585 0.929 . S
C576 C572 1.383 . S
C576 C573 1.389 . S
C576 H586 0.931 . S
C577 C574 1.380 . S
C577 C575 1.392 . S
C577 H587 0.929 . S
C578 O558 1.266 . S
C578 O559 1.248 . S
C579 Tb515 2.802 . S
C579 O554 1.264 . S
C579 O557 1.256 . S
C579 C572 1.496 . S
H580 C563 0.929 . S
H581 C564 0.929 . S
H582 C565 0.929 . S
H583 C566 0.931 . S
H584 C574 0.929 . S
H585 C575 0.929 . S
H586 C576 0.931 . S
H587 C577 0.929 . S
Tb588 N617 2.617 . S
Tb588 N623 2.572 . S
Tb588 O632 2.465 . S
Tb588 O633 2.387 . S
Tb588 O635 2.428 . S
Tb588 O636 2.308 . S
Tb588 O640 2.349 . S
Tb588 O643 2.393 . S
Tb588 C652 2.802 . S
C589 N590 1.379 . S
C589 C592 1.416 . S
C589 C596 1.424 . S
N590 C589 1.379 . S
N590 C593 1.334 . S
N590 Tb599 2.617 . S
C591 C593 1.390 . S
C591 C594 1.339 . S
C591 H611 0.930 . S
C592 C589 1.416 . S
C592 C594 1.416 . S
C592 C598 1.448 . S
C593 N590 1.334 . S
C593 C591 1.390 . S
C593 H604 0.930 . S
C594 C591 1.339 . S
C594 C592 1.416 . S
C594 H615 0.930 . S
C595 C596 1.413 . S
C595 C597 1.427 . S
C595 C601 1.416 . S
C596 C589 1.424 . S
C596 C595 1.413 . S
C596 N600 1.361 . S
C597 C595 1.427 . S
C597 C598 1.328 . S
C597 H612 0.929 . S
C598 C592 1.448 . S
C598 C597 1.328 . S
C598 H613 0.930 . S
Tb599 N590 2.617 . S
Tb599 N600 2.572 . S
Tb599 O634 2.349 . S
Tb599 O637 2.393 . S
Tb599 O638 2.465 . S
Tb599 O639 2.387 . S
Tb599 O641 2.428 . S
Tb599 O642 2.308 . S
Tb599 C663 2.802 . S
N600 C596 1.361 . S
N600 Tb599 2.572 . S
N600 C602 1.340 . S
C601 C595 1.416 . S
C601 C603 1.332 . S
C601 H609 0.931 . S
C602 N600 1.340 . S
C602 C603 1.407 . S
C602 H608 0.930 . S
C603 C601 1.332 . S
C603 C602 1.407 . S
C603 H605 0.929 . S
H604 C593 0.930 . S
H605 C603 0.929 . S
H606 C621 0.930 . S
H607 C628 0.929 . S
H608 C602 0.930 . S
H609 C601 0.931 . S
H610 C624 0.930 . S
H611 C591 0.930 . S
H612 C597 0.929 . S
H613 C598 0.930 . S
H614 C619 0.930 . S
H615 C594 0.930 . S
H616 C627 0.931 . S
N617 Tb588 2.617 . S
N617 C618 1.379 . S
N617 C621 1.334 . S
C618 N617 1.379 . S
C618 C620 1.416 . S
C618 C626 1.424 . S
C619 H614 0.930 . S
C619 C621 1.390 . S
C619 C622 1.339 . S
C620 C618 1.416 . S
C620 C622 1.416 . S
C620 C653 1.448 . S
C621 H606 0.930 . S
C621 N617 1.334 . S
C621 C619 1.390 . S
C622 C619 1.339 . S
C622 C620 1.416 . S
C622 H629 0.930 . S
N623 Tb588 2.572 . S
N623 C624 1.340 . S
N623 C626 1.361 . S
C624 H610 0.930 . S
C624 N623 1.340 . S
C624 C628 1.407 . S
C625 C626 1.413 . S
C625 C627 1.416 . S
C625 C654 1.427 . S
C626 C618 1.424 . S
C626 N623 1.361 . S
C626 C625 1.413 . S
C627 H616 0.931 . S
C627 C625 1.416 . S
C627 C628 1.332 . S
C628 H607 0.929 . S
C628 C624 1.407 . S
C628 C627 1.332 . S
H629 C622 0.930 . S
H630 C653 0.930 . S
H631 C654 0.929 . S
O632 Tb588 2.465 . S
O632 C652 1.264 . S
O633 Tb588 2.387 . S
O633 C644 1.264 . S
O634 Tb599 2.349 . S
O634 C644 1.243 . S
O635 Tb588 2.428 . S
O635 C652 1.256 . S
O636 Tb588 2.308 . S
O636 C651 1.266 . S
O637 Tb599 2.393 . S
O637 C651 1.248 . S
O638 Tb599 2.465 . S
O638 C663 1.264 . S
O639 Tb599 2.387 . S
O639 C655 1.264 . S
O640 Tb588 2.349 . S
O640 C655 1.243 . S
O641 Tb599 2.428 . S
O641 C663 1.256 . S
O642 Tb599 2.308 . S
O642 C662 1.266 . S
O643 Tb588 2.393 . S
O643 C662 1.248 . S
C644 O633 1.264 . S
C644 O634 1.243 . S
C645 C648 1.399 . S
C645 C650 1.383 . S
C645 C652 1.496 . S
C646 C647 1.399 . S
C646 C650 1.389 . S
C647 C646 1.399 . S
C647 C649 1.380 . S
C647 H664 0.929 . S
C648 C645 1.399 . S
C648 C649 1.392 . S
C648 H665 0.929 . S
C649 C647 1.380 . S
C649 C648 1.392 . S
C649 H666 0.929 . S
C650 C645 1.383 . S
C650 C646 1.389 . S
C650 H667 0.931 . S
C651 O636 1.266 . S
C651 O637 1.248 . S
C652 Tb588 2.802 . S
C652 O632 1.264 . S
C652 O635 1.256 . S
C652 C645 1.496 . S
C653 C620 1.448 . S
C653 H630 0.930 . S
C653 C654 1.328 . S
C654 C625 1.427 . S
C654 H631 0.929 . S
C654 C653 1.328 . S
C655 O639 1.264 . S
C655 O640 1.243 . S
C656 C659 1.399 . S
C656 C660 1.383 . S
C656 C663 1.496 . S
C657 C658 1.399 . S
C657 C660 1.389 . S
C658 C657 1.399 . S
C658 C661 1.380 . S
C658 H668 0.929 . S
C659 C656 1.399 . S
C659 C661 1.392 . S
C659 H669 0.929 . S
C660 C656 1.383 . S
C660 C657 1.389 . S
C660 H670 0.931 . S
C661 C658 1.380 . S
C661 C659 1.392 . S
C661 H671 0.929 . S
C662 O642 1.266 . S
C662 O643 1.248 . S
C663 Tb599 2.802 . S
C663 O638 1.264 . S
C663 O641 1.256 . S
C663 C656 1.496 . S
H664 C647 0.929 . S
H665 C648 0.929 . S
H666 C649 0.929 . S
H667 C650 0.931 . S
H668 C658 0.929 . S
H669 C659 0.929 . S
H670 C660 0.931 . S
H671 C661 0.929 . S
Fe672 O673 1.886 1_455 S
Fe672 O676 1.715 . S
Fe672 O681 2.077 1_455 S
Fe672 O686 1.935 . S
Fe672 O692 2.077 1_455 S
Fe672 O701 1.935 . S
O673 Fe672 1.886 1_655 S
O673 Fe675 1.715 1_545 S
Fe674 O676 1.886 . S
Fe674 O677 1.715 1_545 S
Fe674 O684 1.935 1_545 S
Fe674 O685 2.077 . S
Fe674 O691 1.935 1_545 S
Fe674 O700 2.077 . S
Fe675 O673 1.715 1_565 S
Fe675 O678 1.886 . S
Fe675 O682 1.935 1_565 S
Fe675 O687 2.077 . S
Fe675 O693 1.935 1_565 S
Fe675 O697 2.077 . S
O676 Fe672 1.715 . S
O676 Fe674 1.886 . S
O677 Fe674 1.715 1_565 S
O677 Fe679 1.886 1_455 S
O678 Fe675 1.886 . S
O678 Fe679 1.715 . S
Fe679 O677 1.886 1_655 S
Fe679 O678 1.715 . S
Fe679 O683 2.077 1_655 S
Fe679 O688 1.935 . S
Fe679 O690 2.077 1_655 S
Fe679 O698 1.935 . S
C680 O692 1.381 . S
C680 O693 1.421 . S
O681 Fe672 2.077 1_655 S
O681 C694 1.381 . S
O682 Fe675 1.935 1_545 S
O682 C694 1.421 . S
O683 Fe679 2.077 1_455 S
O683 C699 1.381 . S
O684 Fe674 1.935 1_565 S
O684 C699 1.421 . S
O685 Fe674 2.077 . S
O685 C689 1.381 . S
O686 Fe672 1.935 . S
O686 C689 1.421 . S
O687 Fe675 2.077 . S
O687 C695 1.381 . S
O688 Fe679 1.935 . S
O688 C695 1.421 . S
C689 O685 1.381 . S
C689 O686 1.421 . S
O690 Fe679 2.077 1_455 S
O690 C702 1.381 . S
O691 Fe674 1.935 1_565 S
O691 C702 1.421 . S
O692 Fe672 2.077 1_655 S
O692 C680 1.381 . S
O693 Fe675 1.935 1_545 S
O693 C680 1.421 . S
C694 O681 1.381 . S
C694 O682 1.421 . S
C695 O687 1.381 . S
C695 O688 1.421 . S
C696 O697 1.381 . S
C696 O698 1.421 . S
O697 Fe675 2.077 . S
O697 C696 1.381 . S
O698 Fe679 1.935 . S
O698 C696 1.421 . S
C699 O683 1.381 . S
C699 O684 1.421 . S
O700 Fe674 2.077 . S
O700 C703 1.381 . S
O701 Fe672 1.935 . S
O701 C703 1.421 . S
C702 O690 1.381 . S
C702 O691 1.421 . S
C703 O700 1.381 . S
C703 O701 1.421 . S
Fe704 O705 1.886 . S
Fe704 O708 1.715 . S
Fe704 O713 2.077 . S
Fe704 O718 1.935 . S
Fe704 O724 2.077 1_556 S
Fe704 O733 1.935 1_556 S
O705 Fe704 1.886 . S
O705 Fe707 1.715 1_565 S
Fe706 O708 1.886 1_554 S
Fe706 O709 1.715 1_565 S
Fe706 O716 1.935 1_564 S
Fe706 O717 2.077 1_554 S
Fe706 O723 1.935 1_565 S
Fe706 O732 2.077 . S
Fe707 O705 1.715 1_545 S
Fe707 O710 1.887 1_556 S
Fe707 O714 1.935 1_545 S
Fe707 O719 2.077 . S
Fe707 O725 1.935 1_546 S
Fe707 O729 2.077 1_556 S
O708 Fe704 1.715 . S
O708 Fe706 1.886 1_556 S
O709 Fe706 1.715 1_545 S
O709 Fe711 1.886 . S
O710 Fe707 1.887 1_554 S
O710 Fe711 1.714 . S
Fe711 O709 1.886 . S
Fe711 O710 1.714 . S
Fe711 O715 2.077 1_554 S
Fe711 O720 1.935 1_554 S
Fe711 O722 2.077 . S
Fe711 O730 1.935 . S
C712 O724 1.381 . S
C712 O725 1.421 . S
O713 Fe704 2.077 . S
O713 C726 1.381 . S
O714 Fe707 1.935 1_565 S
O714 C726 1.421 . S
O715 Fe711 2.077 1_556 S
O715 C731 1.381 . S
O716 Fe706 1.935 1_546 S
O716 C731 1.421 . S
O717 Fe706 2.077 1_556 S
O717 C721 1.381 . S
O718 Fe704 1.935 . S
O718 C721 1.421 . S
O719 Fe707 2.077 . S
O719 C727 1.381 . S
O720 Fe711 1.935 1_556 S
O720 C727 1.421 . S
C721 O717 1.381 . S
C721 O718 1.421 . S
O722 Fe711 2.077 . S
O722 C734 1.381 . S
O723 Fe706 1.935 1_545 S
O723 C734 1.421 . S
O724 Fe704 2.077 1_554 S
O724 C712 1.381 . S
O725 Fe707 1.935 1_564 S
O725 C712 1.421 . S
C726 O713 1.381 . S
C726 O714 1.421 . S
C727 O719 1.381 . S
C727 O720 1.421 . S
C728 O729 1.381 . S
C728 O730 1.421 . S
O729 Fe707 2.077 1_554 S
O729 C728 1.381 . S
O730 Fe711 1.935 . S
O730 C728 1.421 . S
C731 O715 1.381 . S
C731 O716 1.421 . S
O732 Fe706 2.077 . S
O732 C735 1.381 . S
O733 Fe704 1.935 1_554 S
O733 C735 1.421 . S
C734 O722 1.381 . S
C734 O723 1.421 . S
C735 O732 1.381 . S
C735 O733 1.421 . S
Fe736 O737 1.886 1_455 S
Fe736 O740 1.714 . S
Fe736 O745 2.077 1_454 S
Fe736 O750 1.935 1_554 S
Fe736 O756 2.077 1_455 S
Fe736 O765 1.935 . S
O737 Fe736 1.886 1_655 S
O737 Fe739 1.715 . S
Fe738 O740 1.887 1_556 S
Fe738 O741 1.715 . S
Fe738 O748 1.935 . S
Fe738 O749 2.077 . S
Fe738 O755 1.935 1_556 S
Fe738 O764 2.077 1_556 S
Fe739 O737 1.715 . S
Fe739 O742 1.886 1_554 S
Fe739 O746 1.935 1_554 S
Fe739 O751 2.077 1_554 S
Fe739 O757 1.935 . S
Fe739 O761 2.077 . S
O740 Fe736 1.714 . S
O740 Fe738 1.887 1_554 S
O741 Fe738 1.715 . S
O741 Fe743 1.886 1_455 S
O742 Fe739 1.886 1_556 S
O742 Fe743 1.715 . S
Fe743 O741 1.886 1_655 S
Fe743 O742 1.715 . S
Fe743 O747 2.077 1_655 S
Fe743 O752 1.935 . S
Fe743 O754 2.077 1_656 S
Fe743 O762 1.935 1_556 S
C744 O756 1.381 . S
C744 O757 1.421 . S
O745 Fe736 2.077 1_656 S
O745 C758 1.381 . S
O746 Fe739 1.935 1_556 S
O746 C758 1.421 . S
O747 Fe743 2.077 1_455 S
O747 C763 1.381 . S
O748 Fe738 1.935 . S
O748 C763 1.421 . S
O749 Fe738 2.077 . S
O749 C753 1.381 . S
O750 Fe736 1.935 1_556 S
O750 C753 1.421 . S
O751 Fe739 2.077 1_556 S
O751 C759 1.381 . S
O752 Fe743 1.935 . S
O752 C759 1.421 . S
C753 O749 1.381 . S
C753 O750 1.421 . S
O754 Fe743 2.077 1_454 S
O754 C766 1.381 . S
O755 Fe738 1.935 1_554 S
O755 C766 1.421 . S
O756 Fe736 2.077 1_655 S
O756 C744 1.381 . S
O757 Fe739 1.935 . S
O757 C744 1.421 . S
C758 O745 1.381 . S
C758 O746 1.421 . S
C759 O751 1.381 . S
C759 O752 1.421 . S
C760 O761 1.381 . S
C760 O762 1.421 . S
O761 Fe739 2.077 . S
O761 C760 1.381 . S
O762 Fe743 1.935 1_554 S
O762 C760 1.421 . S
C763 O747 1.381 . S
C763 O748 1.421 . S
O764 Fe738 2.077 1_554 S
O764 C767 1.381 . S
O765 Fe736 1.935 . S
O765 C767 1.421 . S
C766 O754 1.381 . S
C766 O755 1.421 . S
C767 O764 1.381 . S
C767 O765 1.421 . S
Fe768 O769 1.886 . S
Fe768 O772 1.715 . S
Fe768 O777 2.077 . S
Fe768 O782 1.935 . S
Fe768 O788 2.077 . S
Fe768 O797 1.935 . S
O769 Fe768 1.886 . S
O769 Fe771 1.715 . S
Fe770 O772 1.886 1_554 S
Fe770 O773 1.715 . S
Fe770 O780 1.935 . S
Fe770 O781 2.077 1_554 S
Fe770 O787 1.935 . S
Fe770 O796 2.077 1_554 S
Fe771 O769 1.715 . S
Fe771 O774 1.886 1_556 S
Fe771 O778 1.935 . S
Fe771 O783 2.077 1_556 S
Fe771 O789 1.935 . S
Fe771 O793 2.077 1_556 S
O772 Fe768 1.715 . S
O772 Fe770 1.886 1_556 S
O773 Fe770 1.715 . S
O773 Fe775 1.886 . S
O774 Fe771 1.886 1_554 S
O774 Fe775 1.715 . S
Fe775 O773 1.886 . S
Fe775 O774 1.715 . S
Fe775 O779 2.077 . S
Fe775 O784 1.935 . S
Fe775 O786 2.077 . S
Fe775 O794 1.935 . S
C776 O788 1.381 . S
C776 O789 1.421 . S
O777 Fe768 2.077 . S
O777 C790 1.381 . S
O778 Fe771 1.935 . S
O778 C790 1.421 . S
O779 Fe775 2.077 . S
O779 C795 1.381 . S
O780 Fe770 1.935 . S
O780 C795 1.421 . S
O781 Fe770 2.077 1_556 S
O781 C785 1.381 . S
O782 Fe768 1.935 . S
O782 C785 1.421 . S
O783 Fe771 2.077 1_554 S
O783 C791 1.381 . S
O784 Fe775 1.935 . S
O784 C791 1.421 . S
C785 O781 1.381 . S
C785 O782 1.421 . S
O786 Fe775 2.077 . S
O786 C798 1.381 . S
O787 Fe770 1.935 . S
O787 C798 1.421 . S
O788 Fe768 2.077 . S
O788 C776 1.381 . S
O789 Fe771 1.935 . S
O789 C776 1.421 . S
C790 O777 1.381 . S
C790 O778 1.421 . S
C791 O783 1.381 . S
C791 O784 1.421 . S
C792 O793 1.381 . S
C792 O794 1.421 . S
O793 Fe771 2.077 1_554 S
O793 C792 1.381 . S
O794 Fe775 1.935 . S
O794 C792 1.421 . S
C795 O779 1.381 . S
C795 O780 1.421 . S
O796 Fe770 2.077 1_556 S
O796 C799 1.381 . S
O797 Fe768 1.935 . S
O797 C799 1.421 . S
C798 O786 1.381 . S
C798 O787 1.421 . S
C799 O796 1.381 . S
C799 O797 1.421 . S
Fe800 O801 1.886 . S
Fe800 O804 1.715 . S
Fe800 O809 2.077 1_655 S
Fe800 O814 1.935 1_655 S
Fe800 O820 2.077 . S
Fe800 O829 1.935 . S
O801 Fe800 1.886 . S
O801 Fe803 1.715 . S
Fe802 O804 1.886 1_455 S
Fe802 O805 1.715 . S
Fe802 O812 1.935 . S
Fe802 O813 2.077 . S
Fe802 O819 1.935 1_455 S
Fe802 O828 2.077 1_455 S
Fe803 O801 1.715 . S
Fe803 O806 1.886 1_655 S
Fe803 O810 1.935 1_655 S
Fe803 O815 2.077 1_655 S
Fe803 O821 1.935 . S
Fe803 O825 2.077 . S
O804 Fe800 1.715 . S
O804 Fe802 1.886 1_655 S
O805 Fe802 1.715 . S
O805 Fe807 1.886 . S
O806 Fe803 1.886 1_455 S
O806 Fe807 1.715 . S
Fe807 O805 1.886 . S
Fe807 O806 1.715 . S
Fe807 O811 2.077 . S
Fe807 O816 1.935 . S
Fe807 O818 2.077 1_455 S
Fe807 O826 1.935 1_455 S
C808 O820 1.381 . S
C808 O821 1.421 . S
O809 Fe800 2.077 1_455 S
O809 C822 1.381 . S
O810 Fe803 1.935 1_455 S
O810 C822 1.421 . S
O811 Fe807 2.077 . S
O811 C827 1.381 . S
O812 Fe802 1.935 . S
O812 C827 1.421 . S
O813 Fe802 2.077 . S
O813 C817 1.381 . S
O814 Fe800 1.935 1_455 S
O814 C817 1.421 . S
O815 Fe803 2.077 1_455 S
O815 C823 1.381 . S
O816 Fe807 1.935 . S
O816 C823 1.421 . S
C817 O813 1.381 . S
C817 O814 1.421 . S
O818 Fe807 2.077 1_655 S
O818 C830 1.381 . S
O819 Fe802 1.935 1_655 S
O819 C830 1.421 . S
O820 Fe800 2.077 . S
O820 C808 1.381 . S
O821 Fe803 1.935 . S
O821 C808 1.421 . S
C822 O809 1.381 . S
C822 O810 1.421 . S
C823 O815 1.381 . S
C823 O816 1.421 . S
C824 O825 1.381 . S
C824 O826 1.421 . S
O825 Fe803 2.077 . S
O825 C824 1.381 . S
O826 Fe807 1.935 1_655 S
O826 C824 1.421 . S
C827 O811 1.381 . S
C827 O812 1.421 . S
O828 Fe802 2.077 1_655 S
O828 C831 1.381 . S
O829 Fe800 1.935 . S
O829 C831 1.421 . S
C830 O818 1.381 . S
C830 O819 1.421 . S
C831 O828 1.381 . S
C831 O829 1.421 . S
Fe832 O833 1.886 . S
Fe832 O836 1.715 . S
Fe832 O841 2.077 . S
Fe832 O846 1.935 . S
Fe832 O852 2.077 . S
Fe832 O861 1.935 . S
O833 Fe832 1.886 . S
O833 Fe835 1.715 1_565 S
Fe834 O836 1.886 . S
Fe834 O837 1.715 1_565 S
Fe834 O844 1.935 1_565 S
Fe834 O845 2.077 . S
Fe834 O851 1.935 1_565 S
Fe834 O860 2.077 . S
Fe835 O833 1.715 1_545 S
Fe835 O838 1.886 . S
Fe835 O842 1.935 1_545 S
Fe835 O847 2.077 . S
Fe835 O853 1.935 1_545 S
Fe835 O857 2.077 . S
O836 Fe832 1.715 . S
O836 Fe834 1.886 . S
O837 Fe834 1.715 1_545 S
O837 Fe839 1.886 . S
O838 Fe835 1.886 . S
O838 Fe839 1.715 . S
Fe839 O837 1.886 . S
Fe839 O838 1.715 . S
Fe839 O843 2.077 . S
Fe839 O848 1.935 . S
Fe839 O850 2.077 . S
Fe839 O858 1.935 . S
C840 O852 1.381 . S
C840 O853 1.421 . S
O841 Fe832 2.077 . S
O841 C854 1.381 . S
O842 Fe835 1.935 1_565 S
O842 C854 1.421 . S
O843 Fe839 2.077 . S
O843 C859 1.381 . S
O844 Fe834 1.935 1_545 S
O844 C859 1.421 . S
O845 Fe834 2.077 . S
O845 C849 1.381 . S
O846 Fe832 1.935 . S
O846 C849 1.421 . S
O847 Fe835 2.077 . S
O847 C855 1.381 . S
O848 Fe839 1.935 . S
O848 C855 1.421 . S
C849 O845 1.381 . S
C849 O846 1.421 . S
O850 Fe839 2.077 . S
O850 C862 1.381 . S
O851 Fe834 1.935 1_545 S
O851 C862 1.421 . S
O852 Fe832 2.077 . S
O852 C840 1.381 . S
O853 Fe835 1.935 1_565 S
O853 C840 1.421 . S
C854 O841 1.381 . S
C854 O842 1.421 . S
C855 O847 1.381 . S
C855 O848 1.421 . S
C856 O857 1.381 . S
C856 O858 1.421 . S
O857 Fe835 2.077 . S
O857 C856 1.381 . S
O858 Fe839 1.935 . S
O858 C856 1.421 . S
C859 O843 1.381 . S
C859 O844 1.421 . S
O860 Fe834 2.077 . S
O860 C863 1.381 . S
O861 Fe832 1.935 . S
O861 C863 1.421 . S
C862 O850 1.381 . S
C862 O851 1.421 . S
C863 O860 1.381 . S
C863 O861 1.421 . S
H864 C870 0.930 . S
H865 C874 0.930 . S
H866 C879 0.929 . S
H867 C877 0.929 . S
H868 C872 0.929 . S
H869 C878 0.929 . S
C870 H864 0.930 . S
C870 C871 1.367 . S
C870 C878 1.378 . S
C871 C870 1.367 . S
C871 C879 1.433 . S
C872 H868 0.929 . S
C872 C874 1.378 . S
C872 C876 1.350 . S
C873 C876 1.463 . S
C873 C878 1.350 . S
C873 N881 1.427 . S
C874 H865 0.930 . S
C874 C872 1.378 . S
C874 C875 1.367 . S
C875 C874 1.367 . S
C875 C877 1.433 . S
C876 C872 1.350 . S
C876 C873 1.463 . S
C876 N880 1.427 . S
C877 H867 0.929 . S
C877 C875 1.433 . S
C877 N880 1.384 . S
C878 H869 0.929 . S
C878 C870 1.378 . S
C878 C873 1.350 . S
C879 H866 0.929 . S
C879 C871 1.433 . S
C879 N881 1.384 . S
N880 C876 1.427 . S
N880 C877 1.384 . S
N881 C873 1.427 . S
N881 C879 1.384 . S
H882 C888 0.930 . S
H883 C892 0.930 . S
H884 C897 0.929 . S
H885 C895 0.929 . S
H886 C890 0.929 . S
H887 C896 0.929 . S
C888 H882 0.930 . S
C888 C889 1.367 . S
C888 C896 1.378 . S
C889 C888 1.367 . S
C889 C897 1.433 . S
C890 H886 0.929 . S
C890 C892 1.378 . S
C890 C894 1.350 . S
C891 C894 1.463 . S
C891 C896 1.350 . S
C891 N899 1.427 . S
C892 H883 0.930 . S
C892 C890 1.378 . S
C892 C893 1.367 . S
C893 C892 1.367 . S
C893 C895 1.433 . S
C894 C890 1.350 . S
C894 C891 1.463 . S
C894 N898 1.427 . S
C895 H885 0.929 . S
C895 C893 1.433 . S
C895 N898 1.384 . S
C896 H887 0.929 . S
C896 C888 1.378 . S
C896 C891 1.350 . S
C897 H884 0.929 . S
C897 C889 1.433 . S
C897 N899 1.384 . S
N898 C894 1.427 . S
N898 C895 1.384 . S
N899 C891 1.427 . S
N899 C897 1.384 . S
H900 C906 0.930 . S
H901 C910 0.930 . S
H902 C915 0.929 . S
H903 C913 0.929 . S
H904 C908 0.929 . S
H905 C914 0.929 . S
C906 H900 0.930 . S
C906 C907 1.367 . S
C906 C914 1.378 . S
C907 C906 1.367 . S
C907 C915 1.433 . S
C908 H904 0.929 . S
C908 C910 1.378 . S
C908 C912 1.350 . S
C909 C912 1.463 . S
C909 C914 1.350 . S
C909 N917 1.427 . S
C910 H901 0.930 . S
C910 C908 1.378 . S
C910 C911 1.367 . S
C911 C910 1.367 . S
C911 C913 1.433 . S
C912 C908 1.350 . S
C912 C909 1.463 . S
C912 N916 1.427 . S
C913 H903 0.929 . S
C913 C911 1.433 . S
C913 N916 1.384 . S
C914 H905 0.929 . S
C914 C906 1.378 . S
C914 C909 1.350 . S
C915 H902 0.929 . S
C915 C907 1.433 . S
C915 N917 1.384 . S
N916 C912 1.427 . S
N916 C913 1.384 . S
N917 C909 1.427 . S
N917 C915 1.384 . S
H918 C924 0.930 . S
H919 C928 0.930 . S
H920 C933 0.929 . S
H921 C931 0.929 . S
H922 C926 0.929 . S
H923 C932 0.929 . S
C924 H918 0.930 . S
C924 C925 1.367 . S
C924 C932 1.378 . S
C925 C924 1.367 . S
C925 C933 1.433 . S
C926 H922 0.929 . S
C926 C928 1.378 . S
C926 C930 1.350 . S
C927 C930 1.463 . S
C927 C932 1.350 . S
C927 N935 1.427 . S
C928 H919 0.930 . S
C928 C926 1.378 . S
C928 C929 1.367 . S
C929 C928 1.367 . S
C929 C931 1.433 . S
C930 C926 1.350 . S
C930 C927 1.463 . S
C930 N934 1.427 . S
C931 H921 0.929 . S
C931 C929 1.433 . S
C931 N934 1.384 . S
C932 H923 0.929 . S
C932 C924 1.378 . S
C932 C927 1.350 . S
C933 H920 0.929 . S
C933 C925 1.433 . S
C933 N935 1.384 . S
N934 C930 1.427 . S
N934 C931 1.384 . S
N935 C927 1.427 . S
N935 C933 1.384 . S
H936 C942 0.930 . S
H937 C946 0.930 . S
H938 C951 0.929 . S
H939 C949 0.929 . S
H940 C944 0.929 . S
H941 C950 0.929 . S
C942 H936 0.930 . S
C942 C943 1.367 . S
C942 C950 1.378 . S
C943 C942 1.367 . S
C943 C951 1.433 . S
C944 H940 0.929 . S
C944 C946 1.378 . S
C944 C948 1.350 . S
C945 C948 1.463 . S
C945 C950 1.350 . S
C945 N953 1.427 . S
C946 H937 0.930 . S
C946 C944 1.378 . S
C946 C947 1.367 . S
C947 C946 1.367 . S
C947 C949 1.433 . S
C948 C944 1.350 . S
C948 C945 1.463 . S
C948 N952 1.427 . S
C949 H939 0.929 . S
C949 C947 1.433 . S
C949 N952 1.384 . S
C950 H941 0.929 . S
C950 C942 1.378 . S
C950 C945 1.350 . S
C951 H938 0.929 . S
C951 C943 1.433 . S
C951 N953 1.384 . S
N952 C948 1.427 . S
N952 C949 1.384 . S
N953 C945 1.427 . S
N953 C951 1.384 . S
H954 C960 0.930 . S
H955 C964 0.930 . S
H956 C969 0.929 . S
H957 C967 0.929 . S
H958 C962 0.929 . S
H959 C968 0.929 . S
C960 H954 0.930 . S
C960 C961 1.367 . S
C960 C968 1.378 . S
C961 C960 1.367 . S
C961 C969 1.433 . S
C962 H958 0.929 . S
C962 C964 1.378 . S
C962 C966 1.350 . S
C963 C966 1.463 . S
C963 C968 1.350 . S
C963 N971 1.427 . S
C964 H955 0.930 . S
C964 C962 1.378 . S
C964 C965 1.367 . S
C965 C964 1.367 . S
C965 C967 1.433 . S
C966 C962 1.350 . S
C966 C963 1.463 . S
C966 N970 1.427 . S
C967 H957 0.929 . S
C967 C965 1.433 . S
C967 N970 1.384 . S
C968 H959 0.929 . S
C968 C960 1.378 . S
C968 C963 1.350 . S
C969 H956 0.929 . S
C969 C961 1.433 . S
C969 N971 1.384 . S
N970 C966 1.427 . S
N970 C967 1.384 . S
N971 C963 1.427 . S
N971 C969 1.384 . S
H972 C978 0.930 . S
H973 C982 0.930 . S
H974 C987 0.929 . S
H975 C985 0.929 . S
H976 C980 0.929 . S
H977 C986 0.929 . S
C978 H972 0.930 . S
C978 C979 1.367 . S
C978 C986 1.378 . S
C979 C978 1.367 . S
C979 C987 1.433 . S
C980 H976 0.929 . S
C980 C982 1.378 . S
C980 C984 1.350 . S
C981 C984 1.463 . S
C981 C986 1.350 . S
C981 N989 1.427 . S
C982 H973 0.930 . S
C982 C980 1.378 . S
C982 C983 1.367 . S
C983 C982 1.367 . S
C983 C985 1.433 . S
C984 C980 1.350 . S
C984 C981 1.463 . S
C984 N988 1.427 . S
C985 H975 0.929 . S
C985 C983 1.433 . S
C985 N988 1.384 . S
C986 H977 0.929 . S
C986 C978 1.378 . S
C986 C981 1.350 . S
C987 H974 0.929 . S
C987 C979 1.433 . S
C987 N989 1.384 . S
N988 C984 1.427 . S
N988 C985 1.384 . S
N989 C981 1.427 . S
N989 C987 1.384 . S
H990 C996 0.930 . S
H991 C1000 0.930 . S
H992 C1005 0.929 . S
H993 C1003 0.929 . S
H994 C998 0.929 . S
H995 C1004 0.929 . S
C996 H990 0.930 . S
C996 C997 1.367 . S
C996 C1004 1.378 . S
C997 C996 1.367 . S
C997 C1005 1.433 . S
C998 H994 0.929 . S
C998 C1000 1.378 . S
C998 C1002 1.350 . S
C999 C1002 1.463 . S
C999 C1004 1.350 . S
C999 N1007 1.427 . S
C1000 H991 0.930 . S
C1000 C998 1.378 . S
C1000 C1001 1.367 . S
C1001 C1000 1.367 . S
C1001 C1003 1.433 . S
C1002 C998 1.350 . S
C1002 C999 1.463 . S
C1002 N1006 1.427 . S
C1003 H993 0.929 . S
C1003 C1001 1.433 . S
C1003 N1006 1.384 . S
C1004 H995 0.929 . S
C1004 C996 1.378 . S
C1004 C999 1.350 . S
C1005 H992 0.929 . S
C1005 C997 1.433 . S
C1005 N1007 1.384 . S
N1006 C1002 1.427 . S
N1006 C1003 1.384 . S
N1007 C999 1.427 . S
N1007 C1005 1.384 . S
H1008 C1014 0.930 . S
H1009 C1018 0.930 . S
H1010 C1023 0.929 . S
H1011 C1021 0.929 . S
H1012 C1016 0.929 . S
H1013 C1022 0.929 . S
C1014 H1008 0.930 . S
C1014 C1015 1.367 . S
C1014 C1022 1.378 . S
C1015 C1014 1.367 . S
C1015 C1023 1.433 . S
C1016 H1012 0.929 . S
C1016 C1018 1.378 . S
C1016 C1020 1.350 . S
C1017 C1020 1.463 . S
C1017 C1022 1.350 . S
C1017 N1025 1.427 . S
C1018 H1009 0.930 . S
C1018 C1016 1.378 . S
C1018 C1019 1.367 . S
C1019 C1018 1.367 . S
C1019 C1021 1.433 . S
C1020 C1016 1.350 . S
C1020 C1017 1.463 . S
C1020 N1024 1.427 . S
C1021 H1011 0.929 . S
C1021 C1019 1.433 . S
C1021 N1024 1.384 . S
C1022 H1013 0.929 . S
C1022 C1014 1.378 . S
C1022 C1017 1.350 . S
C1023 H1010 0.929 . S
C1023 C1015 1.433 . S
C1023 N1025 1.384 . S
N1024 C1020 1.427 . S
N1024 C1021 1.384 . S
N1025 C1017 1.427 . S
N1025 C1023 1.384 . S
H1026 C1032 0.930 . S
H1027 C1036 0.930 . S
H1028 C1041 0.929 . S
H1029 C1039 0.929 . S
H1030 C1034 0.929 . S
H1031 C1040 0.929 . S
C1032 H1026 0.930 . S
C1032 C1033 1.367 . S
C1032 C1040 1.378 . S
C1033 C1032 1.367 . S
C1033 C1041 1.433 . S
C1034 H1030 0.929 . S
C1034 C1036 1.378 . S
C1034 C1038 1.350 . S
C1035 C1038 1.463 . S
C1035 C1040 1.350 . S
C1035 N1043 1.427 . S
C1036 H1027 0.930 . S
C1036 C1034 1.378 . S
C1036 C1037 1.367 . S
C1037 C1036 1.367 . S
C1037 C1039 1.433 . S
C1038 C1034 1.350 . S
C1038 C1035 1.463 . S
C1038 N1042 1.427 . S
C1039 H1029 0.929 . S
C1039 C1037 1.433 . S
C1039 N1042 1.384 . S
C1040 H1031 0.929 . S
C1040 C1032 1.378 . S
C1040 C1035 1.350 . S
C1041 H1028 0.929 . S
C1041 C1033 1.433 . S
C1041 N1043 1.384 . S
N1042 C1038 1.427 . S
N1042 C1039 1.384 . S
N1043 C1035 1.427 . S
N1043 C1041 1.384 . S
H1044 C1050 0.930 . S
H1045 C1054 0.930 . S
H1046 C1059 0.929 . S
H1047 C1057 0.929 . S
H1048 C1052 0.929 . S
H1049 C1058 0.929 . S
C1050 H1044 0.930 . S
C1050 C1051 1.367 . S
C1050 C1058 1.378 . S
C1051 C1050 1.367 . S
C1051 C1059 1.433 . S
C1052 H1048 0.929 . S
C1052 C1054 1.378 . S
C1052 C1056 1.350 . S
C1053 C1056 1.463 . S
C1053 C1058 1.350 . S
C1053 N1061 1.427 . S
C1054 H1045 0.930 . S
C1054 C1052 1.378 . S
C1054 C1055 1.367 . S
C1055 C1054 1.367 . S
C1055 C1057 1.433 . S
C1056 C1052 1.350 . S
C1056 C1053 1.463 . S
C1056 N1060 1.427 . S
C1057 H1047 0.929 . S
C1057 C1055 1.433 . S
C1057 N1060 1.384 . S
C1058 H1049 0.929 . S
C1058 C1050 1.378 . S
C1058 C1053 1.350 . S
C1059 H1046 0.929 . S
C1059 C1051 1.433 . S
C1059 N1061 1.384 . S
N1060 C1056 1.427 . S
N1060 C1057 1.384 . S
N1061 C1053 1.427 . S
N1061 C1059 1.384 . S
H1062 C1068 0.930 . S
H1063 C1072 0.930 . S
H1064 C1077 0.929 . S
H1065 C1075 0.929 . S
H1066 C1070 0.929 . S
H1067 C1076 0.929 . S
C1068 H1062 0.930 . S
C1068 C1069 1.367 . S
C1068 C1076 1.378 . S
C1069 C1068 1.367 . S
C1069 C1077 1.433 . S
C1070 H1066 0.929 . S
C1070 C1072 1.378 . S
C1070 C1074 1.350 . S
C1071 C1074 1.463 . S
C1071 C1076 1.350 . S
C1071 N1079 1.427 . S
C1072 H1063 0.930 . S
C1072 C1070 1.378 . S
C1072 C1073 1.367 . S
C1073 C1072 1.367 . S
C1073 C1075 1.433 . S
C1074 C1070 1.350 . S
C1074 C1071 1.463 . S
C1074 N1078 1.427 . S
C1075 H1065 0.929 . S
C1075 C1073 1.433 . S
C1075 N1078 1.384 . S
C1076 H1067 0.929 . S
C1076 C1068 1.378 . S
C1076 C1071 1.350 . S
C1077 H1064 0.929 . S
C1077 C1069 1.433 . S
C1077 N1079 1.384 . S
N1078 C1074 1.427 . S
N1078 C1075 1.384 . S
N1079 C1071 1.427 . S
N1079 C1077 1.384 . S
H1080 C1086 0.930 . S
H1081 C1090 0.930 . S
H1082 C1095 0.929 . S
H1083 C1093 0.929 . S
H1084 C1088 0.929 . S
H1085 C1094 0.929 . S
C1086 H1080 0.930 . S
C1086 C1087 1.367 . S
C1086 C1094 1.378 . S
C1087 C1086 1.367 . S
C1087 C1095 1.433 . S
C1088 H1084 0.929 . S
C1088 C1090 1.378 . S
C1088 C1092 1.350 . S
C1089 C1092 1.463 . S
C1089 C1094 1.350 . S
C1089 N1097 1.427 . S
C1090 H1081 0.930 . S
C1090 C1088 1.378 . S
C1090 C1091 1.367 . S
C1091 C1090 1.367 . S
C1091 C1093 1.433 . S
C1092 C1088 1.350 . S
C1092 C1089 1.463 . S
C1092 N1096 1.427 . S
C1093 H1083 0.929 . S
C1093 C1091 1.433 . S
C1093 N1096 1.384 . S
C1094 H1085 0.929 . S
C1094 C1086 1.378 . S
C1094 C1089 1.350 . S
C1095 H1082 0.929 . S
C1095 C1087 1.433 . S
C1095 N1097 1.384 . S
N1096 C1092 1.427 . S
N1096 C1093 1.384 . S
N1097 C1089 1.427 . S
N1097 C1095 1.384 . S
H1098 C1104 0.930 . S
H1099 C1108 0.930 . S
H1100 C1113 0.929 . S
H1101 C1111 0.929 . S
H1102 C1106 0.929 . S
H1103 C1112 0.929 . S
C1104 H1098 0.930 . S
C1104 C1105 1.367 . S
C1104 C1112 1.378 . S
C1105 C1104 1.367 . S
C1105 C1113 1.433 . S
C1106 H1102 0.929 . S
C1106 C1108 1.378 . S
C1106 C1110 1.350 . S
C1107 C1110 1.463 . S
C1107 C1112 1.350 . S
C1107 N1115 1.427 . S
C1108 H1099 0.930 . S
C1108 C1106 1.378 . S
C1108 C1109 1.367 . S
C1109 C1108 1.367 . S
C1109 C1111 1.433 . S
C1110 C1106 1.350 . S
C1110 C1107 1.463 . S
C1110 N1114 1.427 . S
C1111 H1101 0.929 . S
C1111 C1109 1.433 . S
C1111 N1114 1.384 . S
C1112 H1103 0.929 . S
C1112 C1104 1.378 . S
C1112 C1107 1.350 . S
C1113 H1100 0.929 . S
C1113 C1105 1.433 . S
C1113 N1115 1.384 . S
N1114 C1110 1.427 . S
N1114 C1111 1.384 . S
N1115 C1107 1.427 . S
N1115 C1113 1.384 . S
H1116 C1122 0.930 . S
H1117 C1126 0.930 . S
H1118 C1131 0.929 . S
H1119 C1129 0.929 . S
H1120 C1124 0.929 . S
H1121 C1130 0.929 . S
C1122 H1116 0.930 . S
C1122 C1123 1.367 . S
C1122 C1130 1.378 . S
C1123 C1122 1.367 . S
C1123 C1131 1.433 . S
C1124 H1120 0.929 . S
C1124 C1126 1.378 . S
C1124 C1128 1.350 . S
C1125 C1128 1.463 . S
C1125 C1130 1.350 . S
C1125 N1133 1.427 . S
C1126 H1117 0.930 . S
C1126 C1124 1.378 . S
C1126 C1127 1.367 . S
C1127 C1126 1.367 . S
C1127 C1129 1.433 . S
C1128 C1124 1.350 . S
C1128 C1125 1.463 . S
C1128 N1132 1.427 . S
C1129 H1119 0.929 . S
C1129 C1127 1.433 . S
C1129 N1132 1.384 . S
C1130 H1121 0.929 . S
C1130 C1122 1.378 . S
C1130 C1125 1.350 . S
C1131 H1118 0.929 . S
C1131 C1123 1.433 . S
C1131 N1133 1.384 . S
N1132 C1128 1.427 . S
N1132 C1129 1.384 . S
N1133 C1125 1.427 . S
N1133 C1131 1.384 . S
H1134 C1140 0.930 . S
H1135 C1144 0.930 . S
H1136 C1149 0.929 . S
H1137 C1147 0.929 . S
H1138 C1142 0.929 . S
H1139 C1148 0.929 . S
C1140 H1134 0.930 . S
C1140 C1141 1.367 . S
C1140 C1148 1.378 . S
C1141 C1140 1.367 . S
C1141 C1149 1.433 . S
C1142 H1138 0.929 . S
C1142 C1144 1.378 . S
C1142 C1146 1.350 . S
C1143 C1146 1.463 . S
C1143 C1148 1.350 . S
C1143 N1151 1.427 . S
C1144 H1135 0.930 . S
C1144 C1142 1.378 . S
C1144 C1145 1.367 . S
C1145 C1144 1.367 . S
C1145 C1147 1.433 . S
C1146 C1142 1.350 . S
C1146 C1143 1.463 . S
C1146 N1150 1.427 . S
C1147 H1137 0.929 . S
C1147 C1145 1.433 . S
C1147 N1150 1.384 . S
C1148 H1139 0.929 . S
C1148 C1140 1.378 . S
C1148 C1143 1.350 . S
C1149 H1136 0.929 . S
C1149 C1141 1.433 . S
C1149 N1151 1.384 . S
N1150 C1146 1.427 . S
N1150 C1147 1.384 . S
N1151 C1143 1.427 . S
N1151 C1149 1.384 . S
H1152 C1158 0.930 . S
H1153 C1162 0.930 . S
H1154 C1167 0.929 . S
H1155 C1165 0.929 . S
H1156 C1160 0.929 . S
H1157 C1166 0.929 . S
C1158 H1152 0.930 . S
C1158 C1159 1.367 . S
C1158 C1166 1.378 . S
C1159 C1158 1.367 . S
C1159 C1167 1.433 . S
C1160 H1156 0.929 . S
C1160 C1162 1.378 . S
C1160 C1164 1.350 . S
C1161 C1164 1.463 . S
C1161 C1166 1.350 . S
C1161 N1169 1.427 . S
C1162 H1153 0.930 . S
C1162 C1160 1.378 . S
C1162 C1163 1.367 . S
C1163 C1162 1.367 . S
C1163 C1165 1.433 . S
C1164 C1160 1.350 . S
C1164 C1161 1.463 . S
C1164 N1168 1.427 . S
C1165 H1155 0.929 . S
C1165 C1163 1.433 . S
C1165 N1168 1.384 . S
C1166 H1157 0.929 . S
C1166 C1158 1.378 . S
C1166 C1161 1.350 . S
C1167 H1154 0.929 . S
C1167 C1159 1.433 . S
C1167 N1169 1.384 . S
N1168 C1164 1.427 . S
N1168 C1165 1.384 . S
N1169 C1161 1.427 . S
N1169 C1167 1.384 . S
H1170 C1176 0.930 . S
H1171 C1180 0.930 . S
H1172 C1185 0.929 . S
H1173 C1183 0.929 . S
H1174 C1178 0.929 . S
H1175 C1184 0.929 . S
C1176 H1170 0.930 . S
C1176 C1177 1.367 . S
C1176 C1184 1.378 . S
C1177 C1176 1.367 . S
C1177 C1185 1.433 . S
C1178 H1174 0.929 . S
C1178 C1180 1.378 . S
C1178 C1182 1.350 . S
C1179 C1182 1.463 . S
C1179 C1184 1.350 . S
C1179 N1187 1.427 . S
C1180 H1171 0.930 . S
C1180 C1178 1.378 . S
C1180 C1181 1.367 . S
C1181 C1180 1.367 . S
C1181 C1183 1.433 . S
C1182 C1178 1.350 . S
C1182 C1179 1.463 . S
C1182 N1186 1.427 . S
C1183 H1173 0.929 . S
C1183 C1181 1.433 . S
C1183 N1186 1.384 . S
C1184 H1175 0.929 . S
C1184 C1176 1.378 . S
C1184 C1179 1.350 . S
C1185 H1172 0.929 . S
C1185 C1177 1.433 . S
C1185 N1187 1.384 . S
N1186 C1182 1.427 . S
N1186 C1183 1.384 . S
N1187 C1179 1.427 . S
N1187 C1185 1.384 . S
H1188 C1194 0.930 . S
H1189 C1198 0.930 . S
H1190 C1203 0.929 . S
H1191 C1201 0.929 . S
H1192 C1196 0.929 . S
H1193 C1202 0.929 . S
C1194 H1188 0.930 . S
C1194 C1195 1.367 . S
C1194 C1202 1.378 . S
C1195 C1194 1.367 . S
C1195 C1203 1.433 . S
C1196 H1192 0.929 . S
C1196 C1198 1.378 . S
C1196 C1200 1.350 . S
C1197 C1200 1.463 . S
C1197 C1202 1.350 . S
C1197 N1205 1.427 . S
C1198 H1189 0.930 . S
C1198 C1196 1.378 . S
C1198 C1199 1.367 . S
C1199 C1198 1.367 . S
C1199 C1201 1.433 . S
C1200 C1196 1.350 . S
C1200 C1197 1.463 . S
C1200 N1204 1.427 . S
C1201 H1191 0.929 . S
C1201 C1199 1.433 . S
C1201 N1204 1.384 . S
C1202 H1193 0.929 . S
C1202 C1194 1.378 . S
C1202 C1197 1.350 . S
C1203 H1190 0.929 . S
C1203 C1195 1.433 . S
C1203 N1205 1.384 . S
N1204 C1200 1.427 . S
N1204 C1201 1.384 . S
N1205 C1197 1.427 . S
N1205 C1203 1.384 . S
H1206 C1212 0.930 . S
H1207 C1216 0.930 . S
H1208 C1221 0.929 . S
H1209 C1219 0.929 . S
H1210 C1214 0.929 . S
H1211 C1220 0.929 . S
C1212 H1206 0.930 . S
C1212 C1213 1.367 . S
C1212 C1220 1.378 . S
C1213 C1212 1.367 . S
C1213 C1221 1.433 . S
C1214 H1210 0.929 . S
C1214 C1216 1.378 . S
C1214 C1218 1.350 . S
C1215 C1218 1.463 . S
C1215 C1220 1.350 . S
C1215 N1223 1.427 . S
C1216 H1207 0.930 . S
C1216 C1214 1.378 . S
C1216 C1217 1.367 . S
C1217 C1216 1.367 . S
C1217 C1219 1.433 . S
C1218 C1214 1.350 . S
C1218 C1215 1.463 . S
C1218 N1222 1.427 . S
C1219 H1209 0.929 . S
C1219 C1217 1.433 . S
C1219 N1222 1.384 . S
C1220 H1211 0.929 . S
C1220 C1212 1.378 . S
C1220 C1215 1.350 . S
C1221 H1208 0.929 . S
C1221 C1213 1.433 . S
C1221 N1223 1.384 . S
N1222 C1218 1.427 . S
N1222 C1219 1.384 . S
N1223 C1215 1.427 . S
N1223 C1221 1.384 . S
H1224 C1230 0.930 . S
H1225 C1234 0.930 . S
H1226 C1239 0.929 . S
H1227 C1237 0.929 . S
H1228 C1232 0.929 . S
H1229 C1238 0.929 . S
C1230 H1224 0.930 . S
C1230 C1231 1.367 . S
C1230 C1238 1.378 . S
C1231 C1230 1.367 . S
C1231 C1239 1.433 . S
C1232 H1228 0.929 . S
C1232 C1234 1.378 . S
C1232 C1236 1.350 . S
C1233 C1236 1.463 . S
C1233 C1238 1.350 . S
C1233 N1241 1.427 . S
C1234 H1225 0.930 . S
C1234 C1232 1.378 . S
C1234 C1235 1.367 . S
C1235 C1234 1.367 . S
C1235 C1237 1.433 . S
C1236 C1232 1.350 . S
C1236 C1233 1.463 . S
C1236 N1240 1.427 . S
C1237 H1227 0.929 . S
C1237 C1235 1.433 . S
C1237 N1240 1.384 . S
C1238 H1229 0.929 . S
C1238 C1230 1.378 . S
C1238 C1233 1.350 . S
C1239 H1226 0.929 . S
C1239 C1231 1.433 . S
C1239 N1241 1.384 . S
N1240 C1236 1.427 . S
N1240 C1237 1.384 . S
N1241 C1233 1.427 . S
N1241 C1239 1.384 . S
H1242 C1248 0.930 . S
H1243 C1252 0.930 . S
H1244 C1257 0.929 . S
H1245 C1255 0.929 . S
H1246 C1250 0.929 . S
H1247 C1256 0.929 . S
C1248 H1242 0.930 . S
C1248 C1249 1.367 . S
C1248 C1256 1.378 . S
C1249 C1248 1.367 . S
C1249 C1257 1.433 . S
C1250 H1246 0.929 . S
C1250 C1252 1.378 . S
C1250 C1254 1.350 . S
C1251 C1254 1.463 . S
C1251 C1256 1.350 . S
C1251 N1259 1.427 . S
C1252 H1243 0.930 . S
C1252 C1250 1.378 . S
C1252 C1253 1.367 . S
C1253 C1252 1.367 . S
C1253 C1255 1.433 . S
C1254 C1250 1.350 . S
C1254 C1251 1.463 . S
C1254 N1258 1.427 . S
C1255 H1245 0.929 . S
C1255 C1253 1.433 . S
C1255 N1258 1.384 . S
C1256 H1247 0.929 . S
C1256 C1248 1.378 . S
C1256 C1251 1.350 . S
C1257 H1244 0.929 . S
C1257 C1249 1.433 . S
C1257 N1259 1.384 . S
N1258 C1254 1.427 . S
N1258 C1255 1.384 . S
N1259 C1251 1.427 . S
N1259 C1257 1.384 . S
H1260 C1266 0.930 . S
H1261 C1270 0.930 . S
H1262 C1275 0.929 . S
H1263 C1273 0.929 . S
H1264 C1268 0.929 . S
H1265 C1274 0.929 . S
C1266 H1260 0.930 . S
C1266 C1267 1.367 . S
C1266 C1274 1.378 . S
C1267 C1266 1.367 . S
C1267 C1275 1.433 . S
C1268 H1264 0.929 . S
C1268 C1270 1.378 . S
C1268 C1272 1.350 . S
C1269 C1272 1.463 . S
C1269 C1274 1.350 . S
C1269 N1277 1.427 . S
C1270 H1261 0.930 . S
C1270 C1268 1.378 . S
C1270 C1271 1.367 . S
C1271 C1270 1.367 . S
C1271 C1273 1.433 . S
C1272 C1268 1.350 . S
C1272 C1269 1.463 . S
C1272 N1276 1.427 . S
C1273 H1263 0.929 . S
C1273 C1271 1.433 . S
C1273 N1276 1.384 . S
C1274 H1265 0.929 . S
C1274 C1266 1.378 . S
C1274 C1269 1.350 . S
C1275 H1262 0.929 . S
C1275 C1267 1.433 . S
C1275 N1277 1.384 . S
N1276 C1272 1.427 . S
N1276 C1273 1.384 . S
N1277 C1269 1.427 . S
N1277 C1275 1.384 . S
H1278 C1284 0.930 . S
H1279 C1288 0.930 . S
H1280 C1293 0.929 . S
H1281 C1291 0.929 . S
H1282 C1286 0.929 . S
H1283 C1292 0.929 . S
C1284 H1278 0.930 . S
C1284 C1285 1.367 . S
C1284 C1292 1.378 . S
C1285 C1284 1.367 . S
C1285 C1293 1.433 . S
C1286 H1282 0.929 . S
C1286 C1288 1.378 . S
C1286 C1290 1.350 . S
C1287 C1290 1.463 . S
C1287 C1292 1.350 . S
C1287 N1295 1.427 . S
C1288 H1279 0.930 . S
C1288 C1286 1.378 . S
C1288 C1289 1.367 . S
C1289 C1288 1.367 . S
C1289 C1291 1.433 . S
C1290 C1286 1.350 . S
C1290 C1287 1.463 . S
C1290 N1294 1.427 . S
C1291 H1281 0.929 . S
C1291 C1289 1.433 . S
C1291 N1294 1.384 . S
C1292 H1283 0.929 . S
C1292 C1284 1.378 . S
C1292 C1287 1.350 . S
C1293 H1280 0.929 . S
C1293 C1285 1.433 . S
C1293 N1295 1.384 . S
N1294 C1290 1.427 . S
N1294 C1291 1.384 . S
N1295 C1287 1.427 . S
N1295 C1293 1.384 . S
H1296 C1302 0.930 . S
H1297 C1306 0.930 . S
H1298 C1311 0.929 . S
H1299 C1309 0.929 . S
H1300 C1304 0.929 . S
H1301 C1310 0.929 . S
C1302 H1296 0.930 . S
C1302 C1303 1.367 . S
C1302 C1310 1.378 . S
C1303 C1302 1.367 . S
C1303 C1311 1.433 . S
C1304 H1300 0.929 . S
C1304 C1306 1.378 . S
C1304 C1308 1.350 . S
C1305 C1308 1.463 . S
C1305 C1310 1.350 . S
C1305 N1313 1.427 . S
C1306 H1297 0.930 . S
C1306 C1304 1.378 . S
C1306 C1307 1.367 . S
C1307 C1306 1.367 . S
C1307 C1309 1.433 . S
C1308 C1304 1.350 . S
C1308 C1305 1.463 . S
C1308 N1312 1.427 . S
C1309 H1299 0.929 . S
C1309 C1307 1.433 . S
C1309 N1312 1.384 . S
C1310 H1301 0.929 . S
C1310 C1302 1.378 . S
C1310 C1305 1.350 . S
C1311 H1298 0.929 . S
C1311 C1303 1.433 . S
C1311 N1313 1.384 . S
N1312 C1308 1.427 . S
N1312 C1309 1.384 . S
N1313 C1305 1.427 . S
N1313 C1311 1.384 . S
H1314 C1320 0.930 . S
H1315 C1324 0.930 . S
H1316 C1329 0.929 . S
H1317 C1327 0.929 . S
H1318 C1322 0.929 . S
H1319 C1328 0.929 . S
C1320 H1314 0.930 . S
C1320 C1321 1.367 . S
C1320 C1328 1.378 . S
C1321 C1320 1.367 . S
C1321 C1329 1.433 . S
C1322 H1318 0.929 . S
C1322 C1324 1.378 . S
C1322 C1326 1.350 . S
C1323 C1326 1.463 . S
C1323 C1328 1.350 . S
C1323 N1331 1.427 . S
C1324 H1315 0.930 . S
C1324 C1322 1.378 . S
C1324 C1325 1.367 . S
C1325 C1324 1.367 . S
C1325 C1327 1.433 . S
C1326 C1322 1.350 . S
C1326 C1323 1.463 . S
C1326 N1330 1.427 . S
C1327 H1317 0.929 . S
C1327 C1325 1.433 . S
C1327 N1330 1.384 . S
C1328 H1319 0.929 . S
C1328 C1320 1.378 . S
C1328 C1323 1.350 . S
C1329 H1316 0.929 . S
C1329 C1321 1.433 . S
C1329 N1331 1.384 . S
N1330 C1326 1.427 . S
N1330 C1327 1.384 . S
N1331 C1323 1.427 . S
N1331 C1329 1.384 . S
H1332 C1338 0.930 . S
H1333 C1342 0.930 . S
H1334 C1347 0.929 . S
H1335 C1345 0.929 . S
H1336 C1340 0.929 . S
H1337 C1346 0.929 . S
C1338 H1332 0.930 . S
C1338 C1339 1.367 . S
C1338 C1346 1.378 . S
C1339 C1338 1.367 . S
C1339 C1347 1.433 . S
C1340 H1336 0.929 . S
C1340 C1342 1.378 . S
C1340 C1344 1.350 . S
C1341 C1344 1.463 . S
C1341 C1346 1.350 . S
C1341 N1349 1.427 . S
C1342 H1333 0.930 . S
C1342 C1340 1.378 . S
C1342 C1343 1.367 . S
C1343 C1342 1.367 . S
C1343 C1345 1.433 . S
C1344 C1340 1.350 . S
C1344 C1341 1.463 . S
C1344 N1348 1.427 . S
C1345 H1335 0.929 . S
C1345 C1343 1.433 . S
C1345 N1348 1.384 . S
C1346 H1337 0.929 . S
C1346 C1338 1.378 . S
C1346 C1341 1.350 . S
C1347 H1334 0.929 . S
C1347 C1339 1.433 . S
C1347 N1349 1.384 . S
N1348 C1344 1.427 . S
N1348 C1345 1.384 . S
N1349 C1341 1.427 . S
N1349 C1347 1.384 . S
H1350 C1356 0.930 . S
H1351 C1360 0.930 . S
H1352 C1365 0.929 . S
H1353 C1363 0.929 . S
H1354 C1358 0.929 . S
H1355 C1364 0.929 . S
C1356 H1350 0.930 . S
C1356 C1357 1.367 . S
C1356 C1364 1.378 . S
C1357 C1356 1.367 . S
C1357 C1365 1.433 . S
C1358 H1354 0.929 . S
C1358 C1360 1.378 . S
C1358 C1362 1.350 . S
C1359 C1362 1.463 . S
C1359 C1364 1.350 . S
C1359 N1367 1.427 . S
C1360 H1351 0.930 . S
C1360 C1358 1.378 . S
C1360 C1361 1.367 . S
C1361 C1360 1.367 . S
C1361 C1363 1.433 . S
C1362 C1358 1.350 . S
C1362 C1359 1.463 . S
C1362 N1366 1.427 . S
C1363 H1353 0.929 . S
C1363 C1361 1.433 . S
C1363 N1366 1.384 . S
C1364 H1355 0.929 . S
C1364 C1356 1.378 . S
C1364 C1359 1.350 . S
C1365 H1352 0.929 . S
C1365 C1357 1.433 . S
C1365 N1367 1.384 . S
N1366 C1362 1.427 . S
N1366 C1363 1.384 . S
N1367 C1359 1.427 . S
N1367 C1365 1.384 . S
H1368 C1374 0.930 . S
H1369 C1378 0.930 . S
H1370 C1383 0.929 . S
H1371 C1381 0.929 . S
H1372 C1376 0.929 . S
H1373 C1382 0.929 . S
C1374 H1368 0.930 . S
C1374 C1375 1.367 . S
C1374 C1382 1.378 . S
C1375 C1374 1.367 . S
C1375 C1383 1.433 . S
C1376 H1372 0.929 . S
C1376 C1378 1.378 . S
C1376 C1380 1.350 . S
C1377 C1380 1.463 . S
C1377 C1382 1.350 . S
C1377 N1385 1.427 . S
C1378 H1369 0.930 . S
C1378 C1376 1.378 . S
C1378 C1379 1.367 . S
C1379 C1378 1.367 . S
C1379 C1381 1.433 . S
C1380 C1376 1.350 . S
C1380 C1377 1.463 . S
C1380 N1384 1.427 . S
C1381 H1371 0.929 . S
C1381 C1379 1.433 . S
C1381 N1384 1.384 . S
C1382 H1373 0.929 . S
C1382 C1374 1.378 . S
C1382 C1377 1.350 . S
C1383 H1370 0.929 . S
C1383 C1375 1.433 . S
C1383 N1385 1.384 . S
N1384 C1380 1.427 . S
N1384 C1381 1.384 . S
N1385 C1377 1.427 . S
N1385 C1383 1.384 . S
H1386 C1392 0.930 . S
H1387 C1396 0.930 . S
H1388 C1401 0.929 . S
H1389 C1399 0.929 . S
H1390 C1394 0.929 . S
H1391 C1400 0.929 . S
C1392 H1386 0.930 . S
C1392 C1393 1.367 . S
C1392 C1400 1.378 . S
C1393 C1392 1.367 . S
C1393 C1401 1.433 . S
C1394 H1390 0.929 . S
C1394 C1396 1.378 . S
C1394 C1398 1.350 . S
C1395 C1398 1.463 . S
C1395 C1400 1.350 . S
C1395 N1403 1.427 . S
C1396 H1387 0.930 . S
C1396 C1394 1.378 . S
C1396 C1397 1.367 . S
C1397 C1396 1.367 . S
C1397 C1399 1.433 . S
C1398 C1394 1.350 . S
C1398 C1395 1.463 . S
C1398 N1402 1.427 . S
C1399 H1389 0.929 . S
C1399 C1397 1.433 . S
C1399 N1402 1.384 . S
C1400 H1391 0.929 . S
C1400 C1392 1.378 . S
C1400 C1395 1.350 . S
C1401 H1388 0.929 . S
C1401 C1393 1.433 . S
C1401 N1403 1.384 . S
N1402 C1398 1.427 . S
N1402 C1399 1.384 . S
N1403 C1395 1.427 . S
N1403 C1401 1.384 . S
H1404 C1410 0.930 . S
H1405 C1414 0.930 . S
H1406 C1419 0.929 . S
H1407 C1417 0.929 . S
H1408 C1412 0.929 . S
H1409 C1418 0.929 . S
C1410 H1404 0.930 . S
C1410 C1411 1.367 . S
C1410 C1418 1.378 . S
C1411 C1410 1.367 . S
C1411 C1419 1.433 . S
C1412 H1408 0.929 . S
C1412 C1414 1.378 . S
C1412 C1416 1.350 . S
C1413 C1416 1.463 . S
C1413 C1418 1.350 . S
C1413 N1421 1.427 . S
C1414 H1405 0.930 . S
C1414 C1412 1.378 . S
C1414 C1415 1.367 . S
C1415 C1414 1.367 . S
C1415 C1417 1.433 . S
C1416 C1412 1.350 . S
C1416 C1413 1.463 . S
C1416 N1420 1.427 . S
C1417 H1407 0.929 . S
C1417 C1415 1.433 . S
C1417 N1420 1.384 . S
C1418 H1409 0.929 . S
C1418 C1410 1.378 . S
C1418 C1413 1.350 . S
C1419 H1406 0.929 . S
C1419 C1411 1.433 . S
C1419 N1421 1.384 . S
N1420 C1416 1.427 . S
N1420 C1417 1.384 . S
N1421 C1413 1.427 . S
N1421 C1419 1.384 . S
H1422 C1428 0.930 . S
H1423 C1432 0.930 . S
H1424 C1437 0.929 . S
H1425 C1435 0.929 . S
H1426 C1430 0.929 . S
H1427 C1436 0.929 . S
C1428 H1422 0.930 . S
C1428 C1429 1.367 . S
C1428 C1436 1.378 . S
C1429 C1428 1.367 . S
C1429 C1437 1.433 . S
C1430 H1426 0.929 . S
C1430 C1432 1.378 . S
C1430 C1434 1.350 . S
C1431 C1434 1.463 . S
C1431 C1436 1.350 . S
C1431 N1439 1.427 . S
C1432 H1423 0.930 . S
C1432 C1430 1.378 . S
C1432 C1433 1.367 . S
C1433 C1432 1.367 . S
C1433 C1435 1.433 . S
C1434 C1430 1.350 . S
C1434 C1431 1.463 . S
C1434 N1438 1.427 . S
C1435 H1425 0.929 . S
C1435 C1433 1.433 . S
C1435 N1438 1.384 . S
C1436 H1427 0.929 . S
C1436 C1428 1.378 . S
C1436 C1431 1.350 . S
C1437 H1424 0.929 . S
C1437 C1429 1.433 . S
C1437 N1439 1.384 . S
N1438 C1434 1.427 . S
N1438 C1435 1.384 . S
N1439 C1431 1.427 . S
N1439 C1437 1.384 . S
H1440 C1446 0.930 . S
H1441 C1450 0.930 . S
H1442 C1455 0.929 . S
H1443 C1453 0.929 . S
H1444 C1448 0.929 . S
H1445 C1454 0.929 . S
C1446 H1440 0.930 . S
C1446 C1447 1.367 . S
C1446 C1454 1.378 . S
C1447 C1446 1.367 . S
C1447 C1455 1.433 . S
C1448 H1444 0.929 . S
C1448 C1450 1.378 . S
C1448 C1452 1.350 . S
C1449 C1452 1.463 . S
C1449 C1454 1.350 . S
C1449 N1457 1.427 . S
C1450 H1441 0.930 . S
C1450 C1448 1.378 . S
C1450 C1451 1.367 . S
C1451 C1450 1.367 . S
C1451 C1453 1.433 . S
C1452 C1448 1.350 . S
C1452 C1449 1.463 . S
C1452 N1456 1.427 . S
C1453 H1443 0.929 . S
C1453 C1451 1.433 . S
C1453 N1456 1.384 . S
C1454 H1445 0.929 . S
C1454 C1446 1.378 . S
C1454 C1449 1.350 . S
C1455 H1442 0.929 . S
C1455 C1447 1.433 . S
C1455 N1457 1.384 . S
N1456 C1452 1.427 . S
N1456 C1453 1.384 . S
N1457 C1449 1.427 . S
N1457 C1455 1.384 . S
H1458 C1464 0.930 . S
H1459 C1468 0.930 . S
H1460 C1473 0.929 . S
H1461 C1471 0.929 . S
H1462 C1466 0.929 . S
H1463 C1472 0.929 . S
C1464 H1458 0.930 . S
C1464 C1465 1.367 . S
C1464 C1472 1.378 . S
C1465 C1464 1.367 . S
C1465 C1473 1.433 . S
C1466 H1462 0.929 . S
C1466 C1468 1.378 . S
C1466 C1470 1.350 . S
C1467 C1470 1.463 . S
C1467 C1472 1.350 . S
C1467 N1475 1.427 . S
C1468 H1459 0.930 . S
C1468 C1466 1.378 . S
C1468 C1469 1.367 . S
C1469 C1468 1.367 . S
C1469 C1471 1.433 . S
C1470 C1466 1.350 . S
C1470 C1467 1.463 . S
C1470 N1474 1.427 . S
C1471 H1461 0.929 . S
C1471 C1469 1.433 . S
C1471 N1474 1.384 . S
C1472 H1463 0.929 . S
C1472 C1464 1.378 . S
C1472 C1467 1.350 . S
C1473 H1460 0.929 . S
C1473 C1465 1.433 . S
C1473 N1475 1.384 . S
N1474 C1470 1.427 . S
N1474 C1471 1.384 . S
N1475 C1467 1.427 . S
N1475 C1473 1.384 . S
H1476 C1482 0.930 . S
H1477 C1486 0.930 . S
H1478 C1491 0.929 . S
H1479 C1489 0.929 . S
H1480 C1484 0.929 . S
H1481 C1490 0.929 . S
C1482 H1476 0.930 . S
C1482 C1483 1.367 . S
C1482 C1490 1.378 . S
C1483 C1482 1.367 . S
C1483 C1491 1.433 . S
C1484 H1480 0.929 . S
C1484 C1486 1.378 . S
C1484 C1488 1.350 . S
C1485 C1488 1.463 . S
C1485 C1490 1.350 . S
C1485 N1493 1.427 . S
C1486 H1477 0.930 . S
C1486 C1484 1.378 . S
C1486 C1487 1.367 . S
C1487 C1486 1.367 . S
C1487 C1489 1.433 . S
C1488 C1484 1.350 . S
C1488 C1485 1.463 . S
C1488 N1492 1.427 . S
C1489 H1479 0.929 . S
C1489 C1487 1.433 . S
C1489 N1492 1.384 . S
C1490 H1481 0.929 . S
C1490 C1482 1.378 . S
C1490 C1485 1.350 . S
C1491 H1478 0.929 . S
C1491 C1483 1.433 . S
C1491 N1493 1.384 . S
N1492 C1488 1.427 . S
N1492 C1489 1.384 . S
N1493 C1485 1.427 . S
N1493 C1491 1.384 . S
H1494 C1500 0.930 . S
H1495 C1504 0.930 . S
H1496 C1509 0.929 . S
H1497 C1507 0.929 . S
H1498 C1502 0.929 . S
H1499 C1508 0.929 . S
C1500 H1494 0.930 . S
C1500 C1501 1.367 . S
C1500 C1508 1.378 . S
C1501 C1500 1.367 . S
C1501 C1509 1.433 . S
C1502 H1498 0.929 . S
C1502 C1504 1.378 . S
C1502 C1506 1.350 . S
C1503 C1506 1.463 . S
C1503 C1508 1.350 . S
C1503 N1511 1.427 . S
C1504 H1495 0.930 . S
C1504 C1502 1.378 . S
C1504 C1505 1.367 . S
C1505 C1504 1.367 . S
C1505 C1507 1.433 . S
C1506 C1502 1.350 . S
C1506 C1503 1.463 . S
C1506 N1510 1.427 . S
C1507 H1497 0.929 . S
C1507 C1505 1.433 . S
C1507 N1510 1.384 . S
C1508 H1499 0.929 . S
C1508 C1500 1.378 . S
C1508 C1503 1.350 . S
C1509 H1496 0.929 . S
C1509 C1501 1.433 . S
C1509 N1511 1.384 . S
N1510 C1506 1.427 . S
N1510 C1507 1.384 . S
N1511 C1503 1.427 . S
N1511 C1509 1.384 . S
H1512 C1518 0.930 . S
H1513 C1522 0.930 . S
H1514 C1527 0.929 . S
H1515 C1525 0.929 . S
H1516 C1520 0.929 . S
H1517 C1526 0.929 . S
C1518 H1512 0.930 . S
C1518 C1519 1.367 . S
C1518 C1526 1.378 . S
C1519 C1518 1.367 . S
C1519 C1527 1.433 . S
C1520 H1516 0.929 . S
C1520 C1522 1.378 . S
C1520 C1524 1.350 . S
C1521 C1524 1.463 . S
C1521 C1526 1.350 . S
C1521 N1529 1.427 . S
C1522 H1513 0.930 . S
C1522 C1520 1.378 . S
C1522 C1523 1.367 . S
C1523 C1522 1.367 . S
C1523 C1525 1.433 . S
C1524 C1520 1.350 . S
C1524 C1521 1.463 . S
C1524 N1528 1.427 . S
C1525 H1515 0.929 . S
C1525 C1523 1.433 . S
C1525 N1528 1.384 . S
C1526 H1517 0.929 . S
C1526 C1518 1.378 . S
C1526 C1521 1.350 . S
C1527 H1514 0.929 . S
C1527 C1519 1.433 . S
C1527 N1529 1.384 . S
N1528 C1524 1.427 . S
N1528 C1525 1.384 . S
N1529 C1521 1.427 . S
N1529 C1527 1.384 . S
H1530 C1536 0.930 . S
H1531 C1540 0.930 . S
H1532 C1545 0.929 . S
H1533 C1543 0.929 . S
H1534 C1538 0.929 . S
H1535 C1544 0.929 . S
C1536 H1530 0.930 . S
C1536 C1537 1.367 . S
C1536 C1544 1.378 . S
C1537 C1536 1.367 . S
C1537 C1545 1.433 . S
C1538 H1534 0.929 . S
C1538 C1540 1.378 . S
C1538 C1542 1.350 . S
C1539 C1542 1.463 . S
C1539 C1544 1.350 . S
C1539 N1547 1.427 . S
C1540 H1531 0.930 . S
C1540 C1538 1.378 . S
C1540 C1541 1.367 . S
C1541 C1540 1.367 . S
C1541 C1543 1.433 . S
C1542 C1538 1.350 . S
C1542 C1539 1.463 . S
C1542 N1546 1.427 . S
C1543 H1533 0.929 . S
C1543 C1541 1.433 . S
C1543 N1546 1.384 . S
C1544 H1535 0.929 . S
C1544 C1536 1.378 . S
C1544 C1539 1.350 . S
C1545 H1532 0.929 . S
C1545 C1537 1.433 . S
C1545 N1547 1.384 . S
N1546 C1542 1.427 . S
N1546 C1543 1.384 . S
N1547 C1539 1.427 . S
N1547 C1545 1.384 . S
H1548 C1554 0.930 . S
H1549 C1558 0.930 . S
H1550 C1563 0.929 . S
H1551 C1561 0.929 . S
H1552 C1556 0.929 . S
H1553 C1562 0.929 . S
C1554 H1548 0.930 . S
C1554 C1555 1.367 . S
C1554 C1562 1.378 . S
C1555 C1554 1.367 . S
C1555 C1563 1.433 . S
C1556 H1552 0.929 . S
C1556 C1558 1.378 . S
C1556 C1560 1.350 . S
C1557 C1560 1.463 . S
C1557 C1562 1.350 . S
C1557 N1565 1.427 . S
C1558 H1549 0.930 . S
C1558 C1556 1.378 . S
C1558 C1559 1.367 . S
C1559 C1558 1.367 . S
C1559 C1561 1.433 . S
C1560 C1556 1.350 . S
C1560 C1557 1.463 . S
C1560 N1564 1.427 . S
C1561 H1551 0.929 . S
C1561 C1559 1.433 . S
C1561 N1564 1.384 . S
C1562 H1553 0.929 . S
C1562 C1554 1.378 . S
C1562 C1557 1.350 . S
C1563 H1550 0.929 . S
C1563 C1555 1.433 . S
C1563 N1565 1.384 . S
N1564 C1560 1.427 . S
N1564 C1561 1.384 . S
N1565 C1557 1.427 . S
N1565 C1563 1.384 . S
H1566 C1572 0.930 . S
H1567 C1576 0.930 . S
H1568 C1581 0.929 . S
H1569 C1579 0.929 . S
H1570 C1574 0.929 . S
H1571 C1580 0.929 . S
C1572 H1566 0.930 . S
C1572 C1573 1.367 . S
C1572 C1580 1.378 . S
C1573 C1572 1.367 . S
C1573 C1581 1.433 . S
C1574 H1570 0.929 . S
C1574 C1576 1.378 . S
C1574 C1578 1.350 . S
C1575 C1578 1.463 . S
C1575 C1580 1.350 . S
C1575 N1583 1.427 . S
C1576 H1567 0.930 . S
C1576 C1574 1.378 . S
C1576 C1577 1.367 . S
C1577 C1576 1.367 . S
C1577 C1579 1.433 . S
C1578 C1574 1.350 . S
C1578 C1575 1.463 . S
C1578 N1582 1.427 . S
C1579 H1569 0.929 . S
C1579 C1577 1.433 . S
C1579 N1582 1.384 . S
C1580 H1571 0.929 . S
C1580 C1572 1.378 . S
C1580 C1575 1.350 . S
C1581 H1568 0.929 . S
C1581 C1573 1.433 . S
C1581 N1583 1.384 . S
N1582 C1578 1.427 . S
N1582 C1579 1.384 . S
N1583 C1575 1.427 . S
N1583 C1581 1.384 . S
H1584 C1590 0.930 . S
H1585 C1594 0.930 . S
H1586 C1599 0.929 . S
H1587 C1597 0.929 . S
H1588 C1592 0.929 . S
H1589 C1598 0.929 . S
C1590 H1584 0.930 . S
C1590 C1591 1.367 . S
C1590 C1598 1.378 . S
C1591 C1590 1.367 . S
C1591 C1599 1.433 . S
C1592 H1588 0.929 . S
C1592 C1594 1.378 . S
C1592 C1596 1.350 . S
C1593 C1596 1.463 . S
C1593 C1598 1.350 . S
C1593 N1601 1.427 . S
C1594 H1585 0.930 . S
C1594 C1592 1.378 . S
C1594 C1595 1.367 . S
C1595 C1594 1.367 . S
C1595 C1597 1.433 . S
C1596 C1592 1.350 . S
C1596 C1593 1.463 . S
C1596 N1600 1.427 . S
C1597 H1587 0.929 . S
C1597 C1595 1.433 . S
C1597 N1600 1.384 . S
C1598 H1589 0.929 . S
C1598 C1590 1.378 . S
C1598 C1593 1.350 . S
C1599 H1586 0.929 . S
C1599 C1591 1.433 . S
C1599 N1601 1.384 . S
N1600 C1596 1.427 . S
N1600 C1597 1.384 . S
N1601 C1593 1.427 . S
N1601 C1599 1.384 . S
H1602 C1608 0.930 . S
H1603 C1612 0.930 . S
H1604 C1617 0.929 . S
H1605 C1615 0.929 . S
H1606 C1610 0.929 . S
H1607 C1616 0.929 . S
C1608 H1602 0.930 . S
C1608 C1609 1.367 . S
C1608 C1616 1.378 . S
C1609 C1608 1.367 . S
C1609 C1617 1.433 . S
C1610 H1606 0.929 . S
C1610 C1612 1.378 . S
C1610 C1614 1.350 . S
C1611 C1614 1.463 . S
C1611 C1616 1.350 . S
C1611 N1619 1.427 . S
C1612 H1603 0.930 . S
C1612 C1610 1.378 . S
C1612 C1613 1.367 . S
C1613 C1612 1.367 . S
C1613 C1615 1.433 . S
C1614 C1610 1.350 . S
C1614 C1611 1.463 . S
C1614 N1618 1.427 . S
C1615 H1605 0.929 . S
C1615 C1613 1.433 . S
C1615 N1618 1.384 . S
C1616 H1607 0.929 . S
C1616 C1608 1.378 . S
C1616 C1611 1.350 . S
C1617 H1604 0.929 . S
C1617 C1609 1.433 . S
C1617 N1619 1.384 . S
N1618 C1614 1.427 . S
N1618 C1615 1.384 . S
N1619 C1611 1.427 . S
N1619 C1617 1.384 . S
H1620 C1626 0.930 . S
H1621 C1630 0.930 . S
H1622 C1635 0.929 . S
H1623 C1633 0.929 . S
H1624 C1628 0.929 . S
H1625 C1634 0.929 . S
C1626 H1620 0.930 . S
C1626 C1627 1.367 . S
C1626 C1634 1.378 . S
C1627 C1626 1.367 . S
C1627 C1635 1.433 . S
C1628 H1624 0.929 . S
C1628 C1630 1.378 . S
C1628 C1632 1.350 . S
C1629 C1632 1.463 . S
C1629 C1634 1.350 . S
C1629 N1637 1.427 . S
C1630 H1621 0.930 . S
C1630 C1628 1.378 . S
C1630 C1631 1.367 . S
C1631 C1630 1.367 . S
C1631 C1633 1.433 . S
C1632 C1628 1.350 . S
C1632 C1629 1.463 . S
C1632 N1636 1.427 . S
C1633 H1623 0.929 . S
C1633 C1631 1.433 . S
C1633 N1636 1.384 . S
C1634 H1625 0.929 . S
C1634 C1626 1.378 . S
C1634 C1629 1.350 . S
C1635 H1622 0.929 . S
C1635 C1627 1.433 . S
C1635 N1637 1.384 . S
N1636 C1632 1.427 . S
N1636 C1633 1.384 . S
N1637 C1629 1.427 . S
N1637 C1635 1.384 . S
H1638 C1644 0.930 . S
H1639 C1648 0.930 . S
H1640 C1653 0.929 . S
H1641 C1651 0.929 . S
H1642 C1646 0.929 . S
H1643 C1652 0.929 . S
C1644 H1638 0.930 . S
C1644 C1645 1.367 . S
C1644 C1652 1.378 . S
C1645 C1644 1.367 . S
C1645 C1653 1.433 . S
C1646 H1642 0.929 . S
C1646 C1648 1.378 . S
C1646 C1650 1.350 . S
C1647 C1650 1.463 . S
C1647 C1652 1.350 . S
C1647 N1655 1.427 . S
C1648 H1639 0.930 . S
C1648 C1646 1.378 . S
C1648 C1649 1.367 . S
C1649 C1648 1.367 . S
C1649 C1651 1.433 . S
C1650 C1646 1.350 . S
C1650 C1647 1.463 . S
C1650 N1654 1.427 . S
C1651 H1641 0.929 . S
C1651 C1649 1.433 . S
C1651 N1654 1.384 . S
C1652 H1643 0.929 . S
C1652 C1644 1.378 . S
C1652 C1647 1.350 . S
C1653 H1640 0.929 . S
C1653 C1645 1.433 . S
C1653 N1655 1.384 . S
N1654 C1650 1.427 . S
N1654 C1651 1.384 . S
N1655 C1647 1.427 . S
N1655 C1653 1.384 . S
H1656 C1662 0.930 . S
H1657 C1666 0.930 . S
H1658 C1671 0.929 . S
H1659 C1669 0.929 . S
H1660 C1664 0.929 . S
H1661 C1670 0.929 . S
C1662 H1656 0.930 . S
C1662 C1663 1.367 . S
C1662 C1670 1.378 . S
C1663 C1662 1.367 . S
C1663 C1671 1.433 . S
C1664 H1660 0.929 . S
C1664 C1666 1.378 . S
C1664 C1668 1.350 . S
C1665 C1668 1.463 . S
C1665 C1670 1.350 . S
C1665 N1673 1.427 . S
C1666 H1657 0.930 . S
C1666 C1664 1.378 . S
C1666 C1667 1.367 . S
C1667 C1666 1.367 . S
C1667 C1669 1.433 . S
C1668 C1664 1.350 . S
C1668 C1665 1.463 . S
C1668 N1672 1.427 . S
C1669 H1659 0.929 . S
C1669 C1667 1.433 . S
C1669 N1672 1.384 . S
C1670 H1661 0.929 . S
C1670 C1662 1.378 . S
C1670 C1665 1.350 . S
C1671 H1658 0.929 . S
C1671 C1663 1.433 . S
C1671 N1673 1.384 . S
N1672 C1668 1.427 . S
N1672 C1669 1.384 . S
N1673 C1665 1.427 . S
N1673 C1671 1.384 . S
H1674 C1680 0.930 . S
H1675 C1684 0.930 . S
H1676 C1689 0.929 . S
H1677 C1687 0.929 . S
H1678 C1682 0.929 . S
H1679 C1688 0.929 . S
C1680 H1674 0.930 . S
C1680 C1681 1.367 . S
C1680 C1688 1.378 . S
C1681 C1680 1.367 . S
C1681 C1689 1.433 . S
C1682 H1678 0.929 . S
C1682 C1684 1.378 . S
C1682 C1686 1.350 . S
C1683 C1686 1.463 . S
C1683 C1688 1.350 . S
C1683 N1691 1.427 . S
C1684 H1675 0.930 . S
C1684 C1682 1.378 . S
C1684 C1685 1.367 . S
C1685 C1684 1.367 . S
C1685 C1687 1.433 . S
C1686 C1682 1.350 . S
C1686 C1683 1.463 . S
C1686 N1690 1.427 . S
C1687 H1677 0.929 . S
C1687 C1685 1.433 . S
C1687 N1690 1.384 . S
C1688 H1679 0.929 . S
C1688 C1680 1.378 . S
C1688 C1683 1.350 . S
C1689 H1676 0.929 . S
C1689 C1681 1.433 . S
C1689 N1691 1.384 . S
N1690 C1686 1.427 . S
N1690 C1687 1.384 . S
N1691 C1683 1.427 . S
N1691 C1689 1.384 . S
H1692 C1698 0.930 . S
H1693 C1702 0.930 . S
H1694 C1707 0.929 . S
H1695 C1705 0.929 . S
H1696 C1700 0.929 . S
H1697 C1706 0.929 . S
C1698 H1692 0.930 . S
C1698 C1699 1.367 . S
C1698 C1706 1.378 . S
C1699 C1698 1.367 . S
C1699 C1707 1.433 . S
C1700 H1696 0.929 . S
C1700 C1702 1.378 . S
C1700 C1704 1.350 . S
C1701 C1704 1.463 . S
C1701 C1706 1.350 . S
C1701 N1709 1.427 . S
C1702 H1693 0.930 . S
C1702 C1700 1.378 . S
C1702 C1703 1.367 . S
C1703 C1702 1.367 . S
C1703 C1705 1.433 . S
C1704 C1700 1.350 . S
C1704 C1701 1.463 . S
C1704 N1708 1.427 . S
C1705 H1695 0.929 . S
C1705 C1703 1.433 . S
C1705 N1708 1.384 . S
C1706 H1697 0.929 . S
C1706 C1698 1.378 . S
C1706 C1701 1.350 . S
C1707 H1694 0.929 . S
C1707 C1699 1.433 . S
C1707 N1709 1.384 . S
N1708 C1704 1.427 . S
N1708 C1705 1.384 . S
N1709 C1701 1.427 . S
N1709 C1707 1.384 . S
H1710 C1716 0.930 . S
H1711 C1720 0.930 . S
H1712 C1725 0.929 . S
H1713 C1723 0.929 . S
H1714 C1718 0.929 . S
H1715 C1724 0.929 . S
C1716 H1710 0.930 . S
C1716 C1717 1.367 . S
C1716 C1724 1.378 . S
C1717 C1716 1.367 . S
C1717 C1725 1.433 . S
C1718 H1714 0.929 . S
C1718 C1720 1.378 . S
C1718 C1722 1.350 . S
C1719 C1722 1.463 . S
C1719 C1724 1.350 . S
C1719 N1727 1.427 . S
C1720 H1711 0.930 . S
C1720 C1718 1.378 . S
C1720 C1721 1.367 . S
C1721 C1720 1.367 . S
C1721 C1723 1.433 . S
C1722 C1718 1.350 . S
C1722 C1719 1.463 . S
C1722 N1726 1.427 . S
C1723 H1713 0.929 . S
C1723 C1721 1.433 . S
C1723 N1726 1.384 . S
C1724 H1715 0.929 . S
C1724 C1716 1.378 . S
C1724 C1719 1.350 . S
C1725 H1712 0.929 . S
C1725 C1717 1.433 . S
C1725 N1727 1.384 . S
N1726 C1722 1.427 . S
N1726 C1723 1.384 . S
N1727 C1719 1.427 . S
N1727 C1725 1.384 . S
C875 C689 1.660 . S
C871 C74 1.634 . S
C893 C694 1.244 . S
C889 C153 1.176 . S
C911 C695 1.603 . S
C907 C231 1.591 . S
C925 C310 0.847 . S
C929 C699 0.624 . S
C943 C394 1.179 . S
C947 C702 1.245 . S
C965 C703 1.609 . S
C961 C494 1.587 . S
C979 C573 0.851 . S
C983 C680 0.635 . S
C997 C651 1.643 . S
C1001 C696 1.656 . S
C1019 C734 2.353 . S
C1015 C56 2.447 . S
C1033 C151 1.583 . S
C1037 C760 1.551 . S
C1055 C712 1.245 . S
C1051 C237 1.181 . S
C1073 C767 1.552 . S
C1069 C326 1.537 . S
C1087 C410 1.575 . S
C1091 C721 1.569 . S
C1109 C763 2.354 . S
C1105 C476 2.435 . S
C1123 C571 1.604 . S
C1127 C727 1.572 . S
C1141 C657 1.184 . S
C1145 C758 1.229 . S
C1159 C58 1.195 . S
C1163 C766 1.240 . S
C1177 C392 1.583 . S
C1181 C753 1.552 . S
C1199 C731 1.230 . S
C1195 C478 1.194 . S
C1217 C759 1.551 . S
C1213 C567 1.543 . S
C1231 C655 2.449 . S
C1235 C726 2.356 . S
C1249 C235 2.436 . S
C1253 C744 2.353 . S
C1271 C735 1.571 . S
C1267 C308 1.601 . S
C1285 C147 1.569 . S
C1289 C728 1.559 . S
C1303 C662 1.613 . S
C1307 C790 1.596 . S
C1321 C405 1.146 . S
C1325 C785 1.232 . S
C1343 C799 1.513 . S
C1339 C483 1.570 . S
C1361 C776 0.393 . S
C1357 C562 0.837 . S
C1375 C142 1.170 . S
C1379 C792 1.216 . S
C1397 C791 1.526 . S
C1393 C242 1.563 . S
C1411 C321 0.861 . S
C1415 C795 0.386 . S
C1429 C63 1.605 . S
C1433 C798 1.580 . S
C1447 C644 2.457 . S
C1451 C824 2.410 . S
C1469 C840 1.517 . S
C1465 C403 1.592 . S
C1483 C489 1.197 . S
C1487 C822 1.268 . S
C1501 C578 1.562 . S
C1505 C855 1.560 . S
C1523 C831 1.535 . S
C1519 C158 1.561 . S
C1537 C224 2.467 . S
C1541 C849 2.399 . S
C1559 C827 1.503 . S
C1555 C319 1.584 . S
C1577 C862 1.251 . S
C1573 C69 1.217 . S
C1595 C854 1.254 . S
C1591 C646 1.212 . S
C1609 C140 1.590 . S
C1613 C859 1.512 . S
C1627 C226 1.195 . S
C1631 C830 1.271 . S
C1649 C863 1.563 . S
C1645 C315 1.559 . S
C1663 C67 2.457 . S
C1667 C817 2.406 . S
C1681 C487 2.468 . S
C1685 C856 2.400 . S
C1703 C808 1.510 . S
C1699 C560 1.586 . S
C1721 C823 1.536 . S
C1717 C399 1.559 . S
