# Generated by pormake.
# Topology ctn, (3,4)-cn, num edge types: 1
# Building blocks:
#     Node 0, Type 0, BuildingBlock: WUSLED_clean_sbu_0, # of connection points: 3
#     Node 1, Type 0, BuildingBlock: WUSLED_clean_sbu_0, # of connection points: 3
#     Node 2, Type 0, BuildingBlock: WUSLED_clean_sbu_0, # of connection points: 3
#     Node 3, Type 0, BuildingBlock: WUSLED_clean_sbu_0, # of connection points: 3
#     Node 4, Type 0, BuildingBlock: WUSLED_clean_sbu_0, # of connection points: 3
#     Node 5, Type 0, BuildingBlock: WUSLED_clean_sbu_0, # of connection points: 3
#     Node 6, Type 0, BuildingBlock: WUSLED_clean_sbu_0, # of connection points: 3
#     Node 7, Type 0, BuildingBlock: WUSLED_clean_sbu_0, # of connection points: 3
#     Node 8, Type 0, BuildingBlock: WUSLED_clean_sbu_0, # of connection points: 3
#     Node 9, Type 0, BuildingBlock: WUSLED_clean_sbu_0, # of connection points: 3
#     Node 10, Type 0, BuildingBlock: WUSLED_clean_sbu_0, # of connection points: 3
#     Node 11, Type 0, BuildingBlock: WUSLED_clean_sbu_0, # of connection points: 3
#     Node 12, Type 0, BuildingBlock: WUSLED_clean_sbu_0, # of connection points: 3
#     Node 13, Type 0, BuildingBlock: WUSLED_clean_sbu_0, # of connection points: 3
#     Node 14, Type 0, BuildingBlock: WUSLED_clean_sbu_0, # of connection points: 3
#     Node 15, Type 0, BuildingBlock: WUSLED_clean_sbu_0, # of connection points: 3
#     Node 16, Type 1, BuildingBlock: UXUYUI_clean_sbu_0, # of connection points: 4
#     Node 17, Type 1, BuildingBlock: UXUYUI_clean_sbu_0, # of connection points: 4
#     Node 18, Type 1, BuildingBlock: UXUYUI_clean_sbu_0, # of connection points: 4
#     Node 19, Type 1, BuildingBlock: UXUYUI_clean_sbu_0, # of connection points: 4
#     Node 20, Type 1, BuildingBlock: UXUYUI_clean_sbu_0, # of connection points: 4
#     Node 21, Type 1, BuildingBlock: UXUYUI_clean_sbu_0, # of connection points: 4
#     Node 22, Type 1, BuildingBlock: UXUYUI_clean_sbu_0, # of connection points: 4
#     Node 23, Type 1, BuildingBlock: UXUYUI_clean_sbu_0, # of connection points: 4
#     Node 24, Type 1, BuildingBlock: UXUYUI_clean_sbu_0, # of connection points: 4
#     Node 25, Type 1, BuildingBlock: UXUYUI_clean_sbu_0, # of connection points: 4
#     Node 26, Type 1, BuildingBlock: UXUYUI_clean_sbu_0, # of connection points: 4
#     Node 27, Type 1, BuildingBlock: UXUYUI_clean_sbu_0, # of connection points: 4
#     Edge 28, Type (0, 1), BuildingBlock: EZIPEK_clean_linker_0, # of connection points: 2
#     Edge 29, Type (0, 1), BuildingBlock: EZIPEK_clean_linker_0, # of connection points: 2
#     Edge 30, Type (0, 1), BuildingBlock: EZIPEK_clean_linker_0, # of connection points: 2
#     Edge 31, Type (0, 1), BuildingBlock: EZIPEK_clean_linker_0, # of connection points: 2
#     Edge 32, Type (0, 1), BuildingBlock: EZIPEK_clean_linker_0, # of connection points: 2
#     Edge 33, Type (0, 1), BuildingBlock: EZIPEK_clean_linker_0, # of connection points: 2
#     Edge 34, Type (0, 1), BuildingBlock: EZIPEK_clean_linker_0, # of connection points: 2
#     Edge 35, Type (0, 1), BuildingBlock: EZIPEK_clean_linker_0, # of connection points: 2
#     Edge 36, Type (0, 1), BuildingBlock: EZIPEK_clean_linker_0, # of connection points: 2
#     Edge 37, Type (0, 1), BuildingBlock: EZIPEK_clean_linker_0, # of connection points: 2
#     Edge 38, Type (0, 1), BuildingBlock: EZIPEK_clean_linker_0, # of connection points: 2
#     Edge 39, Type (0, 1), BuildingBlock: EZIPEK_clean_linker_0, # of connection points: 2
#     Edge 40, Type (0, 1), BuildingBlock: EZIPEK_clean_linker_0, # of connection points: 2
#     Edge 41, Type (0, 1), BuildingBlock: EZIPEK_clean_linker_0, # of connection points: 2
#     Edge 42, Type (0, 1), BuildingBlock: EZIPEK_clean_linker_0, # of connection points: 2
#     Edge 43, Type (0, 1), BuildingBlock: EZIPEK_clean_linker_0, # of connection points: 2
#     Edge 44, Type (0, 1), BuildingBlock: EZIPEK_clean_linker_0, # of connection points: 2
#     Edge 45, Type (0, 1), BuildingBlock: EZIPEK_clean_linker_0, # of connection points: 2
#     Edge 46, Type (0, 1), BuildingBlock: EZIPEK_clean_linker_0, # of connection points: 2
#     Edge 47, Type (0, 1), BuildingBlock: EZIPEK_clean_linker_0, # of connection points: 2
#     Edge 48, Type (0, 1), BuildingBlock: EZIPEK_clean_linker_0, # of connection points: 2
#     Edge 49, Type (0, 1), BuildingBlock: EZIPEK_clean_linker_0, # of connection points: 2
#     Edge 50, Type (0, 1), BuildingBlock: EZIPEK_clean_linker_0, # of connection points: 2
#     Edge 51, Type (0, 1), BuildingBlock: EZIPEK_clean_linker_0, # of connection points: 2
#     Edge 52, Type (0, 1), BuildingBlock: EZIPEK_clean_linker_0, # of connection points: 2
#     Edge 53, Type (0, 1), BuildingBlock: EZIPEK_clean_linker_0, # of connection points: 2
#     Edge 54, Type (0, 1), BuildingBlock: EZIPEK_clean_linker_0, # of connection points: 2
#     Edge 55, Type (0, 1), BuildingBlock: EZIPEK_clean_linker_0, # of connection points: 2
#     Edge 56, Type (0, 1), BuildingBlock: EZIPEK_clean_linker_0, # of connection points: 2
#     Edge 57, Type (0, 1), BuildingBlock: EZIPEK_clean_linker_0, # of connection points: 2
#     Edge 58, Type (0, 1), BuildingBlock: EZIPEK_clean_linker_0, # of connection points: 2
#     Edge 59, Type (0, 1), BuildingBlock: EZIPEK_clean_linker_0, # of connection points: 2
#     Edge 60, Type (0, 1), BuildingBlock: EZIPEK_clean_linker_0, # of connection points: 2
#     Edge 61, Type (0, 1), BuildingBlock: EZIPEK_clean_linker_0, # of connection points: 2
#     Edge 62, Type (0, 1), BuildingBlock: EZIPEK_clean_linker_0, # of connection points: 2
#     Edge 63, Type (0, 1), BuildingBlock: EZIPEK_clean_linker_0, # of connection points: 2
#     Edge 64, Type (0, 1), BuildingBlock: EZIPEK_clean_linker_0, # of connection points: 2
#     Edge 65, Type (0, 1), BuildingBlock: EZIPEK_clean_linker_0, # of connection points: 2
#     Edge 66, Type (0, 1), BuildingBlock: EZIPEK_clean_linker_0, # of connection points: 2
#     Edge 67, Type (0, 1), BuildingBlock: EZIPEK_clean_linker_0, # of connection points: 2
#     Edge 68, Type (0, 1), BuildingBlock: EZIPEK_clean_linker_0, # of connection points: 2
#     Edge 69, Type (0, 1), BuildingBlock: EZIPEK_clean_linker_0, # of connection points: 2
#     Edge 70, Type (0, 1), BuildingBlock: EZIPEK_clean_linker_0, # of connection points: 2
#     Edge 71, Type (0, 1), BuildingBlock: EZIPEK_clean_linker_0, # of connection points: 2
#     Edge 72, Type (0, 1), BuildingBlock: EZIPEK_clean_linker_0, # of connection points: 2
#     Edge 73, Type (0, 1), BuildingBlock: EZIPEK_clean_linker_0, # of connection points: 2
#     Edge 74, Type (0, 1), BuildingBlock: EZIPEK_clean_linker_0, # of connection points: 2
#     Edge 75, Type (0, 1), BuildingBlock: EZIPEK_clean_linker_0, # of connection points: 2
# Relax obj value: 0.001
# Max RMSD: 0.015
# Mean RMSD: 0.010
data_MOF--net-ctn--node1-WUSLED_clean_sbu_0--node2-UXUYUI_clean_sbu_0--edge1-EZIPEK_clean_linker_0
_symmetry_space_group_name_H-M    P1
_symmetry_Int_Tables_number       1
_symmetry_cell_setting            triclinic
loop_
_symmetry_equiv_pos_as_xyz
'x, y, z'
_cell_length_a     69.446598
_cell_length_b     69.998241
_cell_length_c     69.890857
_cell_angle_alpha  90.593957
_cell_angle_beta   89.990474
_cell_angle_gamma 90.036861
loop_
_atom_site_label
_atom_site_type_symbol
_atom_site_fract_x
_atom_site_fract_y
_atom_site_fract_z
_atom_type_partial_charge
C0 C 0.01227 0.05004 0.09213 0.0
C1 C 0.02144 0.04569 0.10953 0.0
C2 C 0.99032 0.04017 0.12493 0.0
C3 C 1.01056 0.04078 0.12576 0.0
C4 C 0.98122 0.0441 0.10747 0.0
C5 C 0.99206 0.04898 0.09129 0.0
U6 U 0.05267 0.05056 0.05255 0.0
O7 O 0.04942 0.05827 0.02221 0.0
O8 O 0.06794 0.07565 0.0409 0.0
C9 C 0.06025 0.07363 0.0238 0.0
C10 C 0.02295 0.05744 0.07522 0.0
C11 C 0.05371 0.09129 0.01395 0.0
C12 C 0.0297 0.1095 0.99613 0.0
C13 C 0.03469 0.09366 1.00735 0.0
C14 C 0.06245 0.12109 0.99816 0.0
C15 C 0.04361 0.12324 0.99123 0.0
C16 C 0.06742 0.10532 1.00937 0.0
C17 C 0.09177 1.0097 0.05136 0.0
C18 C 0.12591 1.00771 0.04292 0.0
C19 C 0.10706 0.97877 0.04532 0.0
C20 C 0.09073 0.98967 0.04994 0.0
C21 C 0.12486 0.98764 0.04198 0.0
C22 C 0.10953 0.01866 0.0476 0.0
C23 C 0.07463 0.0204 0.05857 0.0
O24 O 0.04023 0.06462 0.07809 0.0
O25 O 0.02167 0.04754 0.05918 0.0
O26 O 0.05897 0.01987 0.04803 0.0
O27 O 0.07754 0.03719 0.06671 0.0
H28 H 0.03697 0.04647 0.11073 0.0
H29 H 0.0179 0.03783 0.13908 0.0
H30 H 0.96565 0.04376 0.10647 0.0
H31 H 0.98457 0.05242 0.07817 0.0
H32 H 0.01507 0.11084 0.99094 0.0
H33 H 0.02378 0.08308 0.01049 0.0
H34 H 0.07342 0.13146 0.99457 0.0
H35 H 0.08221 0.10381 0.01405 0.0
H36 H 0.13951 0.01486 0.04043 0.0
H37 H 0.10589 0.96334 0.04471 0.0
H38 H 0.07732 0.98236 0.05293 0.0
H39 H 0.11088 0.03404 0.04868 0.0
C40 C 0.28624 0.75023 0.17693 0.0
C41 C 0.30156 0.75238 0.16388 0.0
C42 C 0.28417 0.77755 0.14712 0.0
C43 C 0.30054 0.76592 0.14917 0.0
C44 C 0.2691 0.77575 0.16039 0.0
C45 C 0.27012 0.76225 0.17507 0.0
U46 U 0.30316 0.71985 0.2211 0.0
O47 O 0.2849 0.70588 0.24267 0.0
O48 O 0.30301 0.6884 0.22372 0.0
C49 C 0.28978 0.68852 0.23719 0.0
C50 C 0.28556 0.73431 0.191 0.0
C51 C 0.27434 0.67365 0.236 0.0
C52 C 0.24119 0.66309 0.24153 0.0
C53 C 0.2549 0.67782 0.2401 0.0
C54 C 0.26587 0.63972 0.23442 0.0
C55 C 0.24661 0.64387 0.23898 0.0
C56 C 0.27955 0.65441 0.23299 0.0
C57 C 0.34939 0.73525 0.25016 0.0
C58 C 0.35943 0.73546 0.28372 0.0
C59 C 0.38343 0.73769 0.25877 0.0
C60 C 0.36888 0.73667 0.24488 0.0
C61 C 0.37886 0.73733 0.27834 0.0
C62 C 0.34482 0.73446 0.26978 0.0
C63 C 0.33434 0.73663 0.23498 0.0
O64 O 0.29894 0.72104 0.18986 0.0
O65 O 0.28088 0.73865 0.20876 0.0
O66 O 0.31673 0.74115 0.24027 0.0
O67 O 0.33477 0.72379 0.22112 0.0
H68 H 0.31414 0.74328 0.16472 0.0
H69 H 0.31233 0.76702 0.1391 0.0
H70 H 0.25632 0.78451 0.1591 0.0
H71 H 0.25797 0.76081 0.18468 0.0
H72 H 0.22644 0.66664 0.2451 0.0
H73 H 0.25035 0.69241 0.24274 0.0
H74 H 0.27041 0.62504 0.23244 0.0
H75 H 0.2944 0.65065 0.23011 0.0
H76 H 0.35555 0.73519 0.29873 0.0
H77 H 0.39828 0.73916 0.25426 0.0
H78 H 0.37285 0.73752 0.22992 0.0
H79 H 0.32996 0.7335 0.27439 0.0
C80 C 0.97241 0.42959 0.01302 0.0
C81 C 0.98798 0.42989 1.00007 0.0
C82 C 0.98187 0.39674 0.99057 0.0
C83 C 0.99267 0.41364 0.98902 0.0
C84 C 0.96663 0.39623 1.00378 0.0
C85 C 0.96192 0.41246 0.01481 0.0
U86 U 0.97235 0.47105 0.05165 0.0
O87 O 0.96614 0.50168 0.04723 0.0
O88 O 0.94725 0.48463 0.06552 0.0
C89 C 0.9503 0.5013 0.05754 0.0
C90 C 0.96537 0.44745 0.02269 0.0
C91 C 0.9333 0.51194 0.05013 0.0
C92 C 0.89923 0.51398 0.04147 0.0
C93 C 0.91549 0.50303 0.04632 0.0
C94 C 0.91831 0.54283 0.0438 0.0
C95 C 0.90046 0.53401 0.04041 0.0
C96 C 0.93452 0.53192 0.04859 0.0
C97 C 0.0124 0.47205 0.09171 0.0
C98 C 0.01529 0.47729 0.12628 0.0
C99 C 0.04317 0.48147 0.10602 0.0
C100 C 0.03202 0.47676 0.0899 0.0
C101 C 0.035 0.48152 0.1244 0.0
C102 C 1.0041 0.47256 0.11012 0.0
C103 C 1.00179 0.46451 0.07462 0.0
O104 O 0.95734 0.44578 0.03965 0.0
O105 O 0.97598 0.46294 0.02128 0.0
O106 O 1.00324 0.47417 0.05866 0.0
O107 O 0.98448 0.45733 0.07724 0.0
H108 H 0.99623 0.44284 0.99802 0.0
H109 H 1.00444 0.41441 0.97889 0.0
H110 H 0.95805 0.3834 1.0052 0.0
H111 H 0.94964 0.41176 0.02434 0.0
H112 H 0.8856 0.50687 0.03894 0.0
H113 H 0.91401 0.48769 0.04749 0.0
H114 H 0.91961 0.55823 0.0431 0.0
H115 H 0.94797 0.53921 0.05162 0.0
H116 H 1.00868 0.47719 0.14032 0.0
H117 H 0.05833 0.48463 0.1042 0.0
H118 H 0.03893 0.47623 0.076 0.0
H119 H 0.98911 0.46884 0.11214 0.0
C120 C 0.72363 0.76112 0.18235 0.0
C121 C 0.72326 0.76928 0.16399 0.0
C122 C 0.73335 0.73903 0.14935 0.0
C123 C 0.7281 0.75834 0.14768 0.0
C124 C 0.73417 0.73102 0.16767 0.0
C125 C 0.72934 0.74191 0.18394 0.0
U126 U 0.72226 0.80133 0.2222 0.0
O127 O 0.69674 0.81504 0.23515 0.0
O128 O 0.71593 0.79789 0.25299 0.0
C129 C 0.69979 0.80766 0.25212 0.0
C130 C 0.71613 0.7714 0.19966 0.0
C131 C 0.68287 0.8 0.26277 0.0
C132 C 0.64872 0.79162 0.26497 0.0
C133 C 0.6649 0.79668 0.25397 0.0
C134 C 0.66817 0.79272 0.29365 0.0
C135 C 0.65017 0.78984 0.28495 0.0
C136 C 0.6843 0.79775 0.2827 0.0
C137 C 0.76184 0.84187 0.22143 0.0
C138 C 0.77701 0.8613 0.24643 0.0
C139 C 0.78283 0.86855 0.21345 0.0
C140 C 0.7704 0.85372 0.20785 0.0
C141 C 0.7882 0.87148 0.23284 0.0
C142 C 0.7646 0.84631 0.24084 0.0
C143 C 0.7513 0.82451 0.21476 0.0
O144 O 0.72666 0.77076 0.21528 0.0
O145 O 0.70781 0.78808 0.19727 0.0
O146 O 0.73395 0.82678 0.20762 0.0
O147 O 0.75286 0.80908 0.22521 0.0
H148 H 0.71877 0.78396 0.16215 0.0
H149 H 0.72731 0.76483 0.1337 0.0
H150 H 0.73812 0.71616 0.16933 0.0
H151 H 0.72953 0.73511 0.1978 0.0
H152 H 0.63498 0.78951 0.25794 0.0
H153 H 0.66322 0.79841 0.23869 0.0
H154 H 0.66965 0.79147 0.30902 0.0
H155 H 0.69786 0.80039 0.28993 0.0
H156 H 0.77726 0.86466 0.26147 0.0
H157 H 0.78837 0.87754 0.20224 0.0
H158 H 0.7678 0.85126 0.19273 0.0
H159 H 0.75729 0.83812 0.25172 0.0
C160 C 0.01125 0.97153 0.43258 0.0
C161 C 0.02056 0.9757 0.4152 0.0
C162 C 0.98958 0.98161 0.39969 0.0
C163 C 1.00981 0.98072 0.39892 0.0
C164 C 0.98035 0.97785 0.41712 0.0
C165 C 0.99105 0.97287 0.43335 0.0
U166 U 0.0514 0.97042 0.47238 0.0
O167 O 0.04784 0.96273 0.50271 0.0
O168 O 0.06612 0.94509 0.48409 0.0
C169 C 0.05826 0.94712 0.50112 0.0
C170 C 0.02174 0.964 0.44953 0.0
C171 C 0.05118 0.92948 0.51082 0.0
C172 C 0.0301 0.91384 0.53402 0.0
C173 C 0.03488 0.92977 0.52287 0.0
C174 C 0.0575 0.89675 0.52114 0.0
C175 C 0.04154 0.89727 0.53349 0.0
C176 C 0.06229 0.91266 0.51001 0.0
C177 C 0.09109 0.01087 0.47395 0.0
C178 C 0.12584 0.01366 0.4792 0.0
C179 C 0.1056 0.04155 0.48286 0.0
C180 C 0.08936 0.03046 0.47833 0.0
C181 C 0.12404 0.03334 0.48309 0.0
C182 C 0.10955 1.00253 0.47464 0.0
C183 C 0.07388 1.0003 0.46661 0.0
O184 O 0.03893 0.95659 0.44673 0.0
O185 O 0.02051 0.97389 0.46557 0.0
O186 O 0.05811 1.00101 0.477 0.0
O187 O 0.07659 0.98351 0.45843 0.0
H188 H 0.03607 0.9747 0.41405 0.0
H189 H 0.01724 0.98352 0.38562 0.0
H190 H 0.96479 0.97841 0.41807 0.0
H191 H 0.98346 0.96957 0.44645 0.0
H192 H 0.01775 0.91461 0.54346 0.0
H193 H 0.0261 0.9425 0.52413 0.0
H194 H 0.06658 0.88418 0.52051 0.0
H195 H 0.0751 0.912 0.50119 0.0
H196 H 0.13992 1.00702 0.47926 0.0
H197 H 0.10384 0.05668 0.48575 0.0
H198 H 0.07542 0.03738 0.47768 0.0
H199 H 0.1115 0.98754 0.47119 0.0
C200 C 0.22068 0.75908 0.84429 0.0
C201 C 0.2393 0.76699 0.84576 0.0
C202 C 0.23134 0.78166 0.87668 0.0
C203 C 0.24457 0.77813 0.86181 0.0
C204 C 0.21292 0.77344 0.87541 0.0
C205 C 0.20766 0.76233 0.85941 0.0
U206 U 0.22093 0.7197 0.80368 0.0
O207 O 0.19581 0.70546 0.79026 0.0
O208 O 0.2149 0.72326 0.77297 0.0
C209 C 0.19917 0.71282 0.77336 0.0
C210 C 0.21375 0.74915 0.82655 0.0
C211 C 0.18235 0.71985 0.76231 0.0
C212 C 0.16092 0.74514 0.7514 0.0
C213 C 0.17567 0.7387 0.76359 0.0
C214 C 0.15843 0.71373 0.73748 0.0
C215 C 0.15323 0.73329 0.73657 0.0
C216 C 0.17302 0.70728 0.74968 0.0
C217 C 0.26108 0.6799 0.80449 0.0
C218 C 0.27482 0.65989 0.77914 0.0
C219 C 0.28336 0.65412 0.81185 0.0
C220 C 0.271 0.66885 0.81782 0.0
C221 C 0.28725 0.65049 0.79222 0.0
C222 C 0.26248 0.67478 0.7851 0.0
C223 C 0.25028 0.69701 0.81133 0.0
O224 O 0.22454 0.75018 0.81113 0.0
O225 O 0.20567 0.73229 0.82856 0.0
O226 O 0.23288 0.69436 0.8182 0.0
O227 O 0.25172 0.71258 0.80106 0.0
H228 H 0.24968 0.76493 0.83436 0.0
H229 H 0.25886 0.7843 0.86247 0.0
H230 H 0.20247 0.77595 0.88666 0.0
H231 H 0.19316 0.75665 0.85862 0.0
H232 H 0.15569 0.75932 0.75428 0.0
H233 H 0.18187 0.74848 0.77402 0.0
H234 H 0.15138 0.70308 0.72863 0.0
H235 H 0.17719 0.69237 0.74903 0.0
H236 H 0.274 0.65596 0.76426 0.0
H237 H 0.29 0.64573 0.82295 0.0
H238 H 0.26948 0.67182 0.83299 0.0
H239 H 0.2541 0.68234 0.77452 0.0
C240 C 0.97267 0.59287 0.51176 0.0
C241 C 0.98921 0.59298 0.52347 0.0
C242 C 0.98236 0.6256 0.5343 0.0
C243 C 0.994 0.60917 0.53458 0.0
C244 C 0.96614 0.6257 0.52229 0.0
C245 C 0.96134 0.60954 0.51121 0.0
U246 U 0.97266 0.55126 0.47328 0.0
O247 O 0.96617 0.52071 0.4778 0.0
O248 O 0.94758 0.53775 0.45926 0.0
C249 C 0.95035 0.52114 0.46747 0.0
C250 C 0.96564 0.57501 0.50209 0.0
C251 C 0.93316 0.51071 0.47493 0.0
C252 C 0.89825 0.50696 0.47818 0.0
C253 C 0.91436 0.51818 0.47351 0.0
C254 C 0.91927 0.4807 0.48614 0.0
C255 C 0.90054 0.48801 0.48428 0.0
C256 C 0.93535 0.49189 0.48149 0.0
C257 C 0.01297 0.55006 0.43349 0.0
C258 C 0.01487 0.54137 0.39953 0.0
C259 C 0.04405 0.54364 0.41831 0.0
C260 C 0.03313 0.54847 0.43454 0.0
C261 C 0.03508 0.54028 0.40059 0.0
C262 C 1.00391 0.54625 0.41581 0.0
C263 C 1.00229 0.55761 0.45048 0.0
O264 O 0.95774 0.57667 0.48508 0.0
O265 O 0.97616 0.55949 0.50363 0.0
O266 O 1.00358 0.54793 0.46644 0.0
O267 O 0.98502 0.5648 0.44771 0.0
H268 H 0.99817 0.58039 0.52452 0.0
H269 H 1.00655 0.60872 0.54377 0.0
H270 H 0.95691 0.63816 0.52187 0.0
H271 H 0.94835 0.60988 0.50264 0.0
H272 H 0.88395 0.5129 0.47658 0.0
H273 H 0.91204 0.53252 0.46831 0.0
H274 H 0.92141 0.46613 0.49077 0.0
H275 H 0.94955 0.48557 0.48247 0.0
H276 H 1.00764 0.53888 0.38601 0.0
H277 H 0.05959 0.54292 0.41948 0.0
H278 H 0.04054 0.55151 0.44787 0.0
H279 H 0.98843 0.54747 0.41444 0.0
C280 C 0.78577 0.76997 0.84777 0.0
C281 C 0.80169 0.76709 0.85992 0.0
C282 C 0.78413 0.74258 0.87754 0.0
C283 C 0.80088 0.75351 0.87461 0.0
C284 C 0.76846 0.74511 0.86512 0.0
C285 C 0.76926 0.75865 0.85046 0.0
U286 U 0.80258 0.80012 0.80346 0.0
O287 O 0.78432 0.81421 0.782 0.0
O288 O 0.80279 0.83157 0.80074 0.0
C289 C 0.78941 0.83155 0.78742 0.0
C290 C 0.78506 0.78592 0.83374 0.0
C291 C 0.77409 0.84649 0.78881 0.0
C292 C 0.74081 0.85708 0.78425 0.0
C293 C 0.7545 0.84232 0.78544 0.0
C294 C 0.76581 0.88046 0.79017 0.0
C295 C 0.74638 0.87632 0.78633 0.0
C296 C 0.77947 0.86574 0.79135 0.0
C297 C 0.84848 0.78349 0.77446 0.0
C298 C 0.87191 0.80075 0.75514 0.0
C299 C 0.87253 0.76648 0.75546 0.0
C300 C 0.85648 0.76639 0.76763 0.0
C301 C 0.88206 0.78366 0.75049 0.0
C302 C 0.85584 0.8007 0.76746 0.0
C303 C 0.83335 0.78269 0.78952 0.0
O304 O 0.79858 0.79905 0.83473 0.0
O305 O 0.78015 0.78161 0.81604 0.0
O306 O 0.8157 0.77851 0.78412 0.0
O307 O 0.83399 0.79575 0.80316 0.0
H308 H 0.8146 0.77562 0.85839 0.0
H309 H 0.81316 0.75182 0.88399 0.0
H310 H 0.75539 0.7369 0.86708 0.0
H311 H 0.75669 0.76066 0.84153 0.0
H312 H 0.72593 0.85352 0.78124 0.0
H313 H 0.7498 0.82772 0.78321 0.0
H314 H 0.77048 0.89515 0.79179 0.0
H315 H 0.79443 0.86949 0.79368 0.0
H316 H 0.87576 0.81439 0.74934 0.0
H317 H 0.8775 0.75277 0.7502 0.0
H318 H 0.85051 0.75281 0.77201 0.0
H319 H 0.84925 0.81415 0.77159 0.0
C320 C 0.28454 0.27127 0.34686 0.0
C321 C 0.30164 0.26478 0.35545 0.0
C322 C 0.2833 0.24357 0.37632 0.0
C323 C 0.30102 0.25103 0.37002 0.0
C324 C 0.26631 0.24979 0.36744 0.0
C325 C 0.26694 0.26346 0.35291 0.0
U326 U 0.30257 0.30069 0.30265 0.0
O327 O 0.28488 0.31491 0.28081 0.0
O328 O 0.30342 0.3321 0.29963 0.0
C329 C 0.29051 0.33217 0.28587 0.0
C330 C 0.28426 0.28712 0.33276 0.0
C331 C 0.27562 0.34742 0.28655 0.0
C332 C 0.24353 0.35945 0.29451 0.0
C333 C 0.25754 0.34491 0.29528 0.0
C334 C 0.26548 0.37917 0.27646 0.0
C335 C 0.24735 0.37666 0.28494 0.0
C336 C 0.27944 0.36474 0.27729 0.0
C337 C 0.34852 0.2833 0.2744 0.0
C338 C 0.37096 0.30053 0.25395 0.0
C339 C 0.37354 0.26646 0.25653 0.0
C340 C 0.3575 0.26628 0.26871 0.0
C341 C 0.38206 0.28377 0.25038 0.0
C342 C 0.3549 0.30039 0.26628 0.0
C343 C 0.33324 0.28262 0.2893 0.0
O344 O 0.2981 0.29992 0.33386 0.0
O345 O 0.27958 0.28272 0.31503 0.0
O346 O 0.31559 0.27871 0.28368 0.0
O347 O 0.33389 0.29573 0.30289 0.0
H348 H 0.31544 0.27056 0.35117 0.0
H349 H 0.31432 0.24644 0.37661 0.0
H350 H 0.25249 0.24427 0.372 0.0
H351 H 0.25354 0.26826 0.34665 0.0
H352 H 0.22964 0.3572 0.30116 0.0
H353 H 0.25419 0.33168 0.30246 0.0
H354 H 0.26878 0.39228 0.26903 0.0
H355 H 0.29322 0.36702 0.2704 0.0
H356 H 0.37404 0.31395 0.24726 0.0
H357 H 0.37927 0.25275 0.25217 0.0
H358 H 0.35228 0.25271 0.27397 0.0
H359 H 0.34753 0.31367 0.26951 0.0
C360 C 0.47299 0.92955 0.5132 0.0
C361 C 0.48959 0.92941 0.50157 0.0
C362 C 0.48278 0.89676 0.4908 0.0
C363 C 0.49444 0.91319 0.49054 0.0
C364 C 0.4665 0.89668 0.50273 0.0
C365 C 0.46164 0.91288 0.51373 0.0
U366 U 0.47294 0.97131 0.55149 0.0
O367 O 0.44785 0.98482 0.56549 0.0
O368 O 0.46641 1.00183 0.54687 0.0
C369 C 0.45061 1.0014 0.55722 0.0
C370 C 0.46592 0.94743 0.52279 0.0
C371 C 0.4334 0.01178 0.54975 0.0
C372 C 0.3985 0.01534 0.54629 0.0
C373 C 0.41464 1.00417 0.55098 0.0
C374 C 0.41943 0.0418 0.53869 0.0
C375 C 0.40073 0.03436 0.54036 0.0
C376 C 0.43554 0.03067 0.54336 0.0
C377 C 0.51337 0.97269 0.59119 0.0
C378 C 0.51548 0.98121 0.62517 0.0
C379 C 0.54453 0.97927 0.60616 0.0
C380 C 0.53352 0.97444 0.58999 0.0
C381 C 0.53567 0.98246 0.62396 0.0
C382 C 0.50442 0.97633 0.60895 0.0
C383 C 0.50262 0.9651 0.57425 0.0
O384 O 0.45804 0.94582 0.53981 0.0
O385 O 0.47641 0.96298 0.52117 0.0
O386 O 0.50387 0.97473 0.55826 0.0
O387 O 0.48536 0.9579 0.5771 0.0
H388 H 0.49857 0.94201 0.50054 0.0
H389 H 0.50703 0.91362 0.48141 0.0
H390 H 0.45726 0.88422 0.50315 0.0
H391 H 0.44861 0.91255 0.52224 0.0
H392 H 0.38422 1.00929 0.54774 0.0
H393 H 0.41235 0.98978 0.55604 0.0
H394 H 0.42154 0.05642 0.5342 0.0
H395 H 0.44972 0.03708 0.54252 0.0
H396 H 0.50834 0.98357 0.63876 0.0
H397 H 0.56005 0.9801 0.60488 0.0
H398 H 0.54084 0.97152 0.57659 0.0
H399 H 0.48896 0.97498 0.61044 0.0
C400 C 0.22051 0.26236 0.68138 0.0
C401 C 0.23957 0.25573 0.67935 0.0
C402 C 0.23138 0.23966 0.64917 0.0
C403 C 0.24494 0.24452 0.66338 0.0
C404 C 0.2125 0.24662 0.65102 0.0
C405 C 0.20714 0.2578 0.66692 0.0
U406 U 0.22096 0.30166 0.7221 0.0
O407 O 0.19595 0.3165 0.735 0.0
O408 O 0.21401 0.29801 0.75264 0.0
C409 C 0.19843 0.30866 0.75183 0.0
C410 C 0.2136 0.27241 0.69903 0.0
C411 C 0.18087 0.30181 0.76197 0.0
C412 C 0.16214 0.277 0.7779 0.0
C413 C 0.17804 0.2825 0.76673 0.0
C414 C 0.15145 0.30985 0.77949 0.0
C415 C 0.1488 0.29067 0.78457 0.0
C416 C 0.16728 0.31534 0.76835 0.0
C417 C 0.2617 0.34095 0.72181 0.0
C418 C 0.27294 0.36268 0.74697 0.0
C419 C 0.28584 0.36529 0.71523 0.0
C420 C 0.27375 0.35045 0.70898 0.0
C421 C 0.28725 0.37063 0.73481 0.0
C422 C 0.26085 0.34767 0.74074 0.0
C423 C 0.25081 0.32392 0.71494 0.0
O424 O 0.22421 0.27117 0.71456 0.0
O425 O 0.2059 0.28942 0.69692 0.0
O426 O 0.23357 0.32677 0.70775 0.0
O427 O 0.25179 0.30844 0.72539 0.0
H428 H 0.25022 0.25887 0.69025 0.0
H429 H 0.2596 0.23936 0.66226 0.0
H430 H 0.20178 0.24309 0.64028 0.0
H431 H 0.19234 0.26253 0.66816 0.0
H432 H 0.16038 0.26211 0.7816 0.0
H433 H 0.18827 0.27173 0.76211 0.0
H434 H 0.14139 0.32065 0.78442 0.0
H435 H 0.16915 0.33032 0.76505 0.0
H436 H 0.27037 0.36787 0.76126 0.0
H437 H 0.29424 0.37243 0.70441 0.0
H438 H 0.27403 0.34621 0.69403 0.0
H439 H 0.25085 0.34132 0.75073 0.0
C440 C 0.78446 0.25159 0.67805 0.0
C441 C 0.80159 0.258 0.66944 0.0
C442 C 0.78335 0.27923 0.64854 0.0
C443 C 0.80103 0.27173 0.65485 0.0
C444 C 0.76633 0.27311 0.65745 0.0
C445 C 0.76689 0.25947 0.672 0.0
U446 U 0.80214 0.22154 0.72203 0.0
O447 O 0.7842 0.20736 0.74373 0.0
O448 O 0.80233 0.19008 0.72462 0.0
C449 C 0.78912 0.19004 0.7381 0.0
C450 C 0.78407 0.23571 0.69208 0.0
C451 C 0.77366 0.17518 0.73678 0.0
C452 C 0.74081 0.16426 0.74335 0.0
C453 C 0.75446 0.17907 0.74211 0.0
C454 C 0.76504 0.14137 0.73359 0.0
C455 C 0.74604 0.14522 0.73938 0.0
C456 C 0.77866 0.15614 0.73236 0.0
C457 C 0.84843 0.23795 0.75038 0.0
C458 C 0.86888 0.22038 0.77249 0.0
C459 C 0.87505 0.25364 0.76697 0.0
C460 C 0.85916 0.25437 0.75463 0.0
C461 C 0.8816 0.2362 0.77483 0.0
C462 C 0.85298 0.22108 0.75998 0.0
C463 C 0.83314 0.23897 0.73554 0.0
O464 O 0.79771 0.22274 0.69084 0.0
O465 O 0.77951 0.24005 0.70986 0.0
O466 O 0.81557 0.24304 0.74126 0.0
O467 O 0.83356 0.22594 0.72187 0.0
H468 H 0.81535 0.25216 0.67372 0.0
H469 H 0.81436 0.27625 0.64824 0.0
H470 H 0.75253 0.27865 0.65288 0.0
H471 H 0.75347 0.25471 0.67827 0.0
H472 H 0.72628 0.16759 0.74791 0.0
H473 H 0.75006 0.19347 0.74586 0.0
H474 H 0.76945 0.12682 0.73051 0.0
H475 H 0.79335 0.15255 0.72852 0.0
H476 H 0.87049 0.20734 0.78027 0.0
H477 H 0.88226 0.26699 0.77011 0.0
H478 H 0.85542 0.26787 0.74814 0.0
H479 H 0.84426 0.2084 0.7578 0.0
C480 C 0.51304 0.55138 0.59407 0.0
C481 C 0.50152 0.53477 0.59367 0.0
C482 C 0.49036 0.5411 0.6263 0.0
C483 C 0.49035 0.52969 0.60962 0.0
C484 C 0.50218 0.55739 0.6269 0.0
C485 C 0.51332 0.56248 0.61098 0.0
U486 U 0.55173 0.55194 0.55278 0.0
O487 O 0.54737 0.55943 0.52249 0.0
O488 O 0.56634 0.57704 0.54046 0.0
C489 C 0.55802 0.57496 0.52366 0.0
C490 C 0.52283 0.55867 0.57651 0.0
C491 C 0.55094 0.5926 0.51398 0.0
C492 C 0.53005 0.60815 0.49058 0.0
C493 C 0.53478 0.59222 0.50175 0.0
C494 C 0.55721 0.62538 0.50377 0.0
C495 C 0.54139 0.62479 0.49126 0.0
C496 C 0.56196 0.60949 0.51493 0.0
C497 C 0.59135 0.51147 0.55081 0.0
C498 C 0.62602 0.50858 0.54509 0.0
C499 C 0.60567 0.48067 0.54205 0.0
C500 C 0.58951 0.49183 0.54668 0.0
C501 C 0.62412 0.48886 0.54147 0.0
C502 C 0.60982 0.51978 0.54975 0.0
C503 C 0.5743 0.52213 0.55837 0.0
O504 O 0.54004 0.56625 0.57862 0.0
O505 O 0.52114 0.54863 0.56059 0.0
O506 O 0.5583 0.5213 0.54832 0.0
O507 O 0.57721 0.53901 0.56629 0.0
H508 H 0.5007 0.52597 0.58087 0.0
H509 H 0.48131 0.51709 0.60878 0.0
H510 H 0.50239 0.56645 0.63956 0.0
H511 H 0.52175 0.5755 0.61171 0.0
H512 H 0.51781 0.60731 0.481 0.0
H513 H 0.52609 0.57943 0.50036 0.0
H514 H 0.56622 0.63801 0.50452 0.0
H515 H 0.57468 0.61022 0.52388 0.0
H516 H 0.64011 0.51521 0.54476 0.0
H517 H 0.60383 0.46551 0.53936 0.0
H518 H 0.57557 0.48494 0.54762 0.0
H519 H 0.61185 0.5348 0.55302 0.0
C520 C 0.51056 0.4711 0.93227 0.0
C521 C 0.51984 0.47523 0.91486 0.0
C522 C 0.48884 0.48126 0.89944 0.0
C523 C 0.50907 0.48029 0.89861 0.0
C524 C 0.47965 0.47757 0.91691 0.0
C525 C 0.49037 0.47255 0.9331 0.0
U526 U 0.55094 0.46968 0.97181 0.0
O527 O 0.54755 0.46201 1.00216 0.0
O528 O 0.56554 0.44423 0.98339 0.0
C529 C 0.55785 0.44632 1.00049 0.0
C530 C 0.52107 0.46351 0.94917 0.0
C531 C 0.55075 0.42874 0.01027 0.0
C532 C 0.52975 0.41323 0.03362 0.0
C533 C 0.53451 0.42912 0.02239 0.0
C534 C 0.55705 0.39604 0.02067 0.0
C535 C 0.54115 0.39663 0.03308 0.0
C536 C 0.56182 0.41189 1.00946 0.0
C537 C 0.59124 0.50951 0.97327 0.0
C538 C 0.62616 0.51446 0.97321 0.0
C539 C 0.6054 0.53839 0.98747 0.0
C540 C 0.58924 0.52718 0.98289 0.0
C541 C 0.62401 0.53229 0.98242 0.0
C542 C 0.60998 0.50322 0.96864 0.0
C543 C 0.57376 0.49929 0.96592 0.0
O544 O 0.53816 0.45592 0.94629 0.0
O545 O 0.52004 0.47346 0.9652 0.0
O546 O 0.55803 0.50016 0.97638 0.0
O547 O 0.57613 0.48251 0.9576 0.0
H548 H 0.53535 0.47415 0.91367 0.0
H549 H 0.51647 0.48304 0.88528 0.0
H550 H 0.46409 0.47819 0.9179 0.0
H551 H 0.48281 0.46928 0.94623 0.0
H552 H 0.51745 0.41407 0.04312 0.0
H553 H 0.52577 0.44187 0.02365 0.0
H554 H 0.56609 0.38344 0.02003 0.0
H555 H 0.57459 0.41118 1.00058 0.0
H556 H 0.64035 0.50947 0.96913 0.0
H557 H 0.60336 0.55209 0.99452 0.0
H558 H 0.57507 0.53268 0.98635 0.0
H559 H 0.61216 0.48988 0.96098 0.0
C560 C 0.72094 0.25926 0.34328 0.0
C561 C 0.73995 0.26603 0.34537 0.0
C562 C 0.73159 0.28205 0.37552 0.0
C563 C 0.74522 0.27728 0.36134 0.0
C564 C 0.71276 0.27496 0.37363 0.0
C565 C 0.70751 0.26373 0.35771 0.0
U566 U 0.72152 0.21964 0.30291 0.0
O567 O 0.69647 0.20525 0.28953 0.0
O568 O 0.71551 0.22305 0.27217 0.0
C569 C 0.69979 0.21258 0.27261 0.0
C570 C 0.71415 0.24918 0.3256 0.0
C571 C 0.68294 0.21959 0.26159 0.0
C572 C 0.66149 0.24485 0.25069 0.0
C573 C 0.67629 0.23845 0.26284 0.0
C574 C 0.65889 0.21339 0.23691 0.0
C575 C 0.65372 0.23296 0.23595 0.0
C576 C 0.67353 0.20698 0.24906 0.0
C577 C 0.76178 0.17997 0.30392 0.0
C578 C 0.77567 0.15995 0.27866 0.0
C579 C 0.78408 0.15423 0.31141 0.0
C580 C 0.77167 0.16895 0.31731 0.0
C581 C 0.78806 0.15059 0.2918 0.0
C582 C 0.76327 0.17482 0.28455 0.0
C583 C 0.75094 0.19708 0.31069 0.0
O584 O 0.72503 0.25016 0.31023 0.0
O585 O 0.70616 0.2323 0.3277 0.0
O586 O 0.73353 0.19441 0.31756 0.0
O587 O 0.75233 0.21261 0.30036 0.0
H588 H 0.75066 0.26297 0.3345 0.0
H589 H 0.75984 0.28256 0.36249 0.0
H590 H 0.702 0.27841 0.38434 0.0
H591 H 0.69273 0.2589 0.35644 0.0
H592 H 0.65629 0.25905 0.25354 0.0
H593 H 0.68254 0.24826 0.2732 0.0
H594 H 0.65177 0.20271 0.22816 0.0
H595 H 0.67768 0.19206 0.24846 0.0
H596 H 0.77491 0.156 0.26378 0.0
H597 H 0.79067 0.14587 0.32255 0.0
H598 H 0.77007 0.17194 0.33247 0.0
H599 H 0.75493 0.18235 0.27392 0.0
C600 C 0.47337 0.09262 0.01155 0.0
C601 C 0.48976 0.09261 0.02348 0.0
C602 C 0.48299 0.12525 0.03426 0.0
C603 C 0.49452 0.10876 0.03466 0.0
C604 C 0.46692 0.12547 0.02206 0.0
C605 C 0.46214 0.10936 0.0109 0.0
U606 U 0.47296 0.05171 0.97233 0.0
O607 O 0.44765 0.03848 0.95847 0.0
O608 O 0.46661 0.02105 0.97625 0.0
C609 C 0.45057 0.0217 0.96626 0.0
C610 C 0.46638 0.0748 1.00177 0.0
C611 C 0.4335 0.01116 0.97385 0.0
C612 C 0.3986 1.00688 0.97663 0.0
C613 C 0.41459 0.01823 0.97188 0.0
C614 C 0.41993 0.98128 0.98582 0.0
C615 C 0.40111 0.98819 0.98339 0.0
C616 C 0.4359 0.99259 0.98105 0.0
C617 C 0.51191 0.05212 0.93125 0.0
C618 C 0.5298 0.02793 0.91305 0.0
C619 C 0.5278 0.06021 0.90118 0.0
C620 C 0.51654 0.06545 0.91705 0.0
C621 C 0.53476 0.04146 0.89911 0.0
C622 C 0.51853 0.03321 0.92899 0.0
C623 C 0.50185 0.05896 0.94889 0.0
O624 O 0.458 0.07665 0.98501 0.0
O625 O 0.47718 0.05941 1.00274 0.0
O626 O 0.50357 0.0487 0.96446 0.0
O627 O 0.48453 0.06622 0.94682 0.0
H628 H 0.49862 0.07995 0.02462 0.0
H629 H 0.50694 0.10822 0.044 0.0
H630 H 0.45777 0.13798 0.02154 0.0
H631 H 0.44926 0.1098 1.00218 0.0
H632 H 0.38424 0.01252 0.9746 0.0
H633 H 0.41209 0.03233 0.96616 0.0
H634 H 0.42225 0.96692 0.99096 0.0
H635 H 0.45019 0.98656 0.98245 0.0
H636 H 0.53496 0.01338 0.91175 0.0
H637 H 0.53139 0.07089 0.89066 0.0
H638 H 0.51182 0.08015 0.91847 0.0
H639 H 0.51532 0.02259 0.9397 0.0
Li640 Li 0.282 0.89675 0.01018 0.0
Li641 Li 0.26743 0.87287 0.03079 0.0
Li642 Li 0.26112 0.87195 0.99608 0.0
Li643 Li 0.24539 0.89773 0.01769 0.0
C644 C 0.30543 0.86829 1.00654 0.0
N645 N 0.34476 0.86952 1.00056 0.0
C646 C 0.31813 0.86546 0.02177 0.0
C647 C 0.31276 0.87169 0.98826 0.0
C648 C 0.33796 0.86611 0.01845 0.0
C649 C 0.33268 0.87231 0.98553 0.0
C650 C 0.27104 0.90353 0.05422 0.0
C651 C 0.25968 0.91314 0.08547 0.0
N652 N 0.27681 0.90774 0.09315 0.0
C653 C 0.28854 0.89813 0.0624 0.0
C654 C 0.25647 0.91111 0.06582 0.0
C655 C 0.29117 0.90034 0.08212 0.0
C656 C 0.30408 0.92491 0.9897 0.0
N657 N 0.30417 0.91369 1.00553 0.0
C658 C 0.33506 0.92643 0.01465 0.0
C659 C 0.31926 0.91441 0.018 0.0
C660 C 0.33533 0.93807 0.99841 0.0
C661 C 0.31955 0.93724 0.98587 0.0
H662 H 0.29195 0.92438 0.98004 0.0
H663 H 0.31915 0.90559 0.03055 0.0
C664 C 0.2819 0.83998 0.0507 0.0
N665 N 0.27081 0.85589 0.05303 0.0
C666 C 0.28453 0.82715 0.06579 0.0
C667 C 0.26395 0.84692 0.08548 0.0
C668 C 0.26165 0.85933 0.06999 0.0
C669 C 0.27555 0.83062 0.08348 0.0
H670 H 0.28859 0.83708 0.037 0.0
H671 H 0.25231 0.87157 0.0715 0.0
C672 C 0.2531 0.9013 0.97405 0.0
N673 N 0.23964 0.90133 0.93685 0.0
C674 C 0.23369 0.90498 0.97036 0.0
C675 C 0.2657 0.89778 0.95882 0.0
C676 C 0.22716 0.90493 0.95145 0.0
C677 C 0.2586 0.89779 0.94012 0.0
C678 C 0.23391 0.85537 0.0277 0.0
C679 C 0.23866 0.83636 0.02369 0.0
C680 C 0.22162 0.85972 0.04296 0.0
C681 C 0.23112 0.82195 0.03518 0.0
C682 C 0.21435 0.8449 0.05409 0.0
N683 N 0.21924 0.82648 0.05002 0.0
C684 C 0.27043 0.84407 0.96658 0.0
C685 C 0.23809 0.8547 0.96615 0.0
C686 C 0.26701 0.83203 0.95075 0.0
N687 N 0.25609 0.85526 0.97389 0.0
C688 C 0.23407 0.8429 0.95028 0.0
C689 C 0.24864 0.83136 0.94238 0.0
H690 H 0.28453 0.84437 0.97309 0.0
H691 H 0.2268 0.86344 0.97231 0.0
C692 C 0.22616 0.93305 0.02647 0.0
N693 N 0.22313 0.91433 0.02186 0.0
C694 C 0.21056 0.94544 0.02964 0.0
C695 C 0.18889 0.91925 0.02295 0.0
C696 C 0.2049 0.90732 0.02001 0.0
C697 C 0.19165 0.93856 0.02789 0.0
H698 H 0.24073 0.93836 0.02781 0.0
H699 H 0.20278 0.89245 0.01621 0.0
O700 O 0.28596 0.86813 1.00956 0.0
O701 O 0.26813 0.90139 0.03496 0.0
O702 O 0.25964 0.90074 0.9925 0.0
O703 O 0.24171 0.8697 0.01707 0.0
H704 H 0.31277 0.86305 0.03607 0.0
H705 H 0.30318 0.87406 0.97633 0.0
H706 H 0.34793 0.86403 0.03013 0.0
H707 H 0.33854 0.87506 0.97149 0.0
H708 H 0.24852 0.91895 0.09464 0.0
H709 H 0.29982 0.89193 0.05371 0.0
H710 H 0.24279 0.91524 0.05976 0.0
H711 H 0.30459 0.89607 0.08866 0.0
H712 H 0.34697 0.92668 0.02466 0.0
H713 H 0.31921 0.94604 0.97321 0.0
H714 H 0.29339 0.81459 0.06365 0.0
H715 H 0.25658 0.84991 0.09883 0.0
H716 H 0.22373 0.90769 0.98196 0.0
H717 H 0.28076 0.89489 0.96142 0.0
H718 H 0.21215 0.90767 0.94838 0.0
H719 H 0.26816 0.89494 0.92821 0.0
H720 H 0.24827 0.83281 0.01198 0.0
H721 H 0.21797 0.87441 0.04634 0.0
H722 H 0.23478 0.80717 0.03235 0.0
H723 H 0.20492 0.84804 0.06603 0.0
H724 H 0.27858 0.82326 0.94511 0.0
H725 H 0.2197 0.8427 0.94426 0.0
H726 H 0.21322 0.96025 0.03344 0.0
H727 H 0.1745 0.91346 0.02148 0.0
Li728 Li 0.12531 0.51504 0.28066 0.0
Li729 Li 0.15131 0.49279 0.26534 0.0
Li730 Li 0.15066 0.52745 0.25916 0.0
Li731 Li 0.12621 0.50732 0.24394 0.0
C732 C 0.16782 0.52497 0.29273 0.0
N733 N 0.19642 0.54788 0.30805 0.0
C734 C 0.18699 0.52224 0.28726 0.0
C735 C 0.16319 0.53923 0.30608 0.0
C736 C 0.20124 0.53402 0.29513 0.0
C737 C 0.17786 0.55067 0.31367 0.0
C738 C 0.11674 0.47175 0.27032 0.0
C739 C 0.11197 0.43889 0.26076 0.0
N740 N 0.10573 0.43485 0.27872 0.0
C741 C 0.11017 0.46731 0.28865 0.0
C742 C 0.11755 0.45747 0.25622 0.0
C743 C 0.1047 0.44855 0.29262 0.0
C744 C 0.09041 0.52627 0.29981 0.0
N745 N 0.10848 0.51928 0.30268 0.0
C746 C 0.10277 0.51823 0.33657 0.0
C747 C 0.11477 0.5152 0.32064 0.0
C748 C 0.08415 0.52557 0.334 0.0
C749 C 0.07799 0.52959 0.31534 0.0
H750 H 0.08566 0.52936 0.28543 0.0
H751 H 0.12913 0.50958 0.32262 0.0
C752 C 0.18538 0.47001 0.26084 0.0
N753 N 0.168 0.47055 0.2699 0.0
C754 C 0.19807 0.45466 0.26355 0.0
C755 C 0.17494 0.44055 0.28491 0.0
C756 C 0.16277 0.45627 0.28197 0.0
C757 C 0.19287 0.43963 0.27566 0.0
H758 H 0.18943 0.48155 0.25148 0.0
H759 H 0.14922 0.45706 0.28947 0.0
C760 C 0.12109 0.55109 0.25396 0.0
N761 N 0.11977 0.58961 0.2459 0.0
C762 C 0.12689 0.55762 0.23603 0.0
C763 C 0.11452 0.56412 0.26777 0.0
C764 C 0.12617 0.57716 0.23225 0.0
C765 C 0.11396 0.58355 0.26341 0.0
C766 C 0.15773 0.49822 0.22292 0.0
C767 C 0.16151 0.50982 0.2072 0.0
C768 C 0.15665 0.47842 0.2204 0.0
C769 C 0.16399 0.5014 0.18916 0.0
C770 C 0.15923 0.47054 0.20214 0.0
N771 N 0.1628 0.48209 0.18702 0.0
C772 C 0.18229 0.54822 0.24242 0.0
C773 C 0.16545 0.56603 0.26601 0.0
C774 C 0.19494 0.56355 0.2394 0.0
N775 N 0.16775 0.54969 0.25546 0.0
C776 C 0.17779 0.58168 0.26347 0.0
C777 C 0.19275 0.58056 0.25 0.0
H778 H 0.18422 0.53505 0.23446 0.0
H779 H 0.15411 0.56691 0.27656 0.0
C780 C 0.0944 0.49025 0.22342 0.0
N781 N 0.10935 0.50276 0.22172 0.0
C782 C 0.08197 0.48664 0.20795 0.0
C783 C 0.10015 0.50908 0.18921 0.0
C784 C 0.11222 0.51226 0.20503 0.0
C785 C 0.08481 0.49608 0.19055 0.0
H786 H 0.09199 0.48313 0.23684 0.0
H787 H 0.12385 0.52242 0.20393 0.0
O788 O 0.15361 0.514 0.28472 0.0
O789 O 0.12221 0.49003 0.26622 0.0
O790 O 0.12197 0.53206 0.25804 0.0
O791 O 0.155 0.50624 0.24065 0.0
H792 H 0.19076 0.51132 0.27685 0.0
H793 H 0.14838 0.54159 0.31034 0.0
H794 H 0.21612 0.5322 0.29092 0.0
H795 H 0.17449 0.56185 0.32393 0.0
H796 H 0.11256 0.42768 0.25 0.0
H797 H 0.1094 0.4782 0.29971 0.0
H798 H 0.12233 0.46071 0.24189 0.0
H799 H 0.09966 0.44489 0.30676 0.0
H800 H 0.10801 0.51498 0.35076 0.0
H801 H 0.06372 0.53528 0.31283 0.0
H802 H 0.21181 0.45448 0.2562 0.0
H803 H 0.17049 0.42928 0.29445 0.0
H804 H 0.13224 0.54774 0.2253 0.0
H805 H 0.11009 0.55931 0.28176 0.0
H806 H 0.13077 0.58243 0.21849 0.0
H807 H 0.10899 0.59382 0.27397 0.0
H808 H 0.16224 0.52519 0.20885 0.0
H809 H 0.15385 0.46923 0.23241 0.0
H810 H 0.1668 0.51021 0.17684 0.0
H811 H 0.15839 0.45524 0.19999 0.0
H812 H 0.20642 0.56211 0.22901 0.0
H813 H 0.17575 0.59452 0.27201 0.0
H814 H 0.07023 0.4766 0.20955 0.0
H815 H 0.10273 0.51669 0.17604 0.0
Li816 Li 0.74353 0.62388 1.00837 0.0
Li817 Li 0.75778 0.64813 0.02902 0.0
Li818 Li 0.76382 0.64884 0.99431 0.0
Li819 Li 0.78009 0.62348 0.01556 0.0
C820 C 0.71957 0.6513 1.0048 0.0
N821 N 0.68042 0.64791 0.99842 0.0
C822 C 0.70662 0.65285 0.02006 0.0
C823 C 0.71257 0.64806 0.98629 0.0
C824 C 0.68689 0.65113 0.01653 0.0
C825 C 0.69274 0.64635 0.98336 0.0
C826 C 0.75573 0.61826 0.05247 0.0
C827 C 0.76905 0.6104 0.08328 0.0
N828 N 0.75215 0.61551 0.09173 0.0
C829 C 0.73848 0.62338 0.06147 0.0
C830 C 0.77115 0.6117 0.06345 0.0
C831 C 0.73697 0.62193 0.08133 0.0
C832 C 0.72039 0.59674 0.98693 0.0
N833 N 0.72151 0.60664 1.00379 0.0
C834 C 0.69174 0.59253 0.01416 0.0
C835 C 0.70759 0.60459 0.01737 0.0
C836 C 0.69022 0.58226 0.99688 0.0
C837 C 0.70483 0.58444 0.98317 0.0
H838 H 0.73161 0.59833 0.97636 0.0
H839 H 0.70864 0.61243 0.0307 0.0
C840 C 0.74141 0.67993 0.04996 0.0
N841 N 0.75417 0.66523 0.05145 0.0
C842 C 0.73809 0.6924 0.06546 0.0
C843 C 0.76163 0.67503 0.08372 0.0
C844 C 0.76449 0.66288 0.06787 0.0
C845 C 0.74816 0.68992 0.08267 0.0
H846 H 0.73379 0.68205 0.03666 0.0
H847 H 0.77501 0.65157 0.06872 0.0
C848 C 0.77256 0.61938 0.97202 0.0
N849 N 0.78655 0.61903 0.935 0.0
C850 C 0.79198 0.61543 0.96852 0.0
C851 C 0.76023 0.62301 0.95667 0.0
C852 C 0.79877 0.61532 0.9497 0.0
C853 C 0.76759 0.62283 0.93807 0.0
C854 C 0.79078 0.66661 0.02538 0.0
C855 C 0.78482 0.68522 0.02143 0.0
C856 C 0.80396 0.6634 0.0401 0.0
C857 C 0.79206 0.70037 0.03246 0.0
C858 C 0.81088 0.67893 0.05078 0.0
N859 N 0.80481 0.69693 0.04678 0.0
C860 C 0.75376 0.67707 0.96617 0.0
C861 C 0.78594 0.66618 0.96387 0.0
C862 C 0.75657 0.68937 0.95068 0.0
N863 N 0.76828 0.66562 0.97239 0.0
C864 C 0.78936 0.67827 0.94831 0.0
C865 C 0.77455 0.69006 0.94153 0.0
H866 H 0.73999 0.67683 0.97334 0.0
H867 H 0.79742 0.65728 0.9692 0.0
C868 C 0.7995 0.58836 0.02366 0.0
N869 N 0.80251 0.60711 0.01954 0.0
C870 C 0.81509 0.57605 0.02687 0.0
C871 C 0.83674 0.60236 0.02118 0.0
C872 C 0.82072 0.61422 0.01819 0.0
C873 C 0.83399 0.58303 0.02566 0.0
H874 H 0.78492 0.58298 0.02462 0.0
H875 H 0.82284 0.62911 0.01477 0.0
O876 O 0.73899 0.65238 1.00801 0.0
O877 O 0.75756 0.61967 0.03305 0.0
O878 O 0.76575 0.62002 0.99039 0.0
O879 O 0.78334 0.65158 0.01519 0.0
H880 H 0.71172 0.65506 0.03452 0.0
H881 H 0.72235 0.64662 0.97433 0.0
H882 H 0.67673 0.65221 0.02822 0.0
H883 H 0.68716 0.6437 0.96913 0.0
H884 H 0.78088 0.60539 0.09195 0.0
H885 H 0.72654 0.62883 0.05328 0.0
H886 H 0.78466 0.60782 0.05678 0.0
H887 H 0.72376 0.626 0.08849 0.0
H888 H 0.68075 0.59123 0.02507 0.0
H889 H 0.70417 0.57672 0.96968 0.0
H890 H 0.72772 0.70385 0.06407 0.0
H891 H 0.76978 0.67278 0.0967 0.0
H892 H 0.80174 0.61262 0.9802 0.0
H893 H 0.74518 0.62615 0.9591 0.0
H894 H 0.81378 0.61237 0.94679 0.0
H895 H 0.75824 0.62577 0.92608 0.0
H896 H 0.77454 0.68789 0.01013 0.0
H897 H 0.80855 0.64904 0.04344 0.0
H898 H 0.78748 0.71484 0.02967 0.0
H899 H 0.82098 0.67666 0.06231 0.0
H900 H 0.74485 0.69837 0.94597 0.0
H901 H 0.80347 0.67852 0.9417 0.0
H902 H 0.81243 0.56123 0.0303 0.0
H903 H 0.85113 0.60823 0.02013 0.0
Li904 Li 0.87527 0.02863 0.26551 0.0
Li905 Li 0.90035 1.00798 0.27963 0.0
Li906 Li 0.9004 0.0144 0.24473 0.0
Li907 Li 0.87528 0.99371 0.25883 0.0
C908 C 0.90866 0.04666 0.27961 0.0
N909 N 0.91848 0.07422 0.30645 0.0
C910 C 0.89773 0.04886 0.29628 0.0
C911 C 0.92457 0.05848 0.27657 0.0
C912 C 0.90293 0.06288 0.30968 0.0
C913 C 0.92931 0.07233 0.29032 0.0
C914 C 0.86689 0.99427 0.29762 0.0
C915 C 0.87265 0.96459 0.31387 0.0
N916 N 0.85688 0.96784 0.32498 0.0
C917 C 0.85076 0.99734 0.3092 0.0
C918 C 0.87794 0.97778 0.29996 0.0
C919 C 0.84594 0.9838 0.32295 0.0
C920 C 0.84082 0.04932 0.2768 0.0
N921 N 0.85894 0.05122 0.26952 0.0
C922 C 0.85483 0.08525 0.26801 0.0
C923 C 0.86599 0.06879 0.26507 0.0
C924 C 0.83619 0.08371 0.2756 0.0
C925 C 0.82915 0.06546 0.27998 0.0
H926 H 0.83545 0.03526 0.28023 0.0
H927 H 0.88038 0.07011 0.25933 0.0
C928 C 0.93496 0.99652 0.29889 0.0
N929 N 0.91706 1.00393 0.30186 0.0
C930 C 0.94732 0.99303 0.31436 0.0
C931 C 0.92281 1.00506 0.33577 0.0
C932 C 0.91089 1.00826 0.31991 0.0
C933 C 0.94126 0.99729 0.33309 0.0
H934 H 0.93963 0.99322 0.28446 0.0
H935 H 0.89662 0.01409 0.32205 0.0
C936 C 0.86691 0.02804 0.2267 0.0
N937 N 0.85687 0.05442 0.19933 0.0
C938 C 0.85075 0.02495 0.21518 0.0
C939 C 0.87799 0.04452 0.2243 0.0
C940 C 0.8459 0.03847 0.20142 0.0
C941 C 0.87267 0.05769 0.21039 0.0
C942 C 0.9087 0.97574 0.24476 0.0
C943 C 0.89782 0.97354 0.22806 0.0
C944 C 0.92459 0.96392 0.24783 0.0
C945 C 0.90304 0.95954 0.21466 0.0
C946 C 0.92935 0.95009 0.23408 0.0
N947 N 0.91858 0.9482 0.21792 0.0
C948 C 0.93512 0.02575 0.22554 0.0
C949 C 0.91105 0.01411 0.20446 0.0
C950 C 0.94756 0.02915 0.21011 0.0
N951 N 0.91718 0.01842 0.22252 0.0
C952 C 0.92305 0.01723 0.18862 0.0
C953 C 0.94155 0.0249 0.19136 0.0
H954 H 0.93976 0.02903 0.23998 0.0
H955 H 0.89676 1.00834 0.20227 0.0
C956 C 0.8408 0.97297 0.24772 0.0
N957 N 0.85897 0.97109 0.25483 0.0
C958 C 0.82914 0.95681 0.24454 0.0
C959 C 0.85495 0.93704 0.25621 0.0
C960 C 0.86609 0.95352 0.25915 0.0
C961 C 0.83626 0.93855 0.24875 0.0
H962 H 0.83537 0.98703 0.2444 0.0
H963 H 0.88052 0.95223 0.26479 0.0
O964 O 0.90389 0.03301 0.26627 0.0
O965 O 0.87172 1.00738 0.28406 0.0
O966 O 0.87177 0.01495 0.24027 0.0
O967 O 0.90391 0.98937 0.25809 0.0
H968 H 0.88534 0.03989 0.29886 0.0
H969 H 0.93315 0.05697 0.26372 0.0
H970 H 0.8946 0.06474 0.32264 0.0
H971 H 0.94159 0.08157 0.28817 0.0
H972 H 0.88107 0.95176 0.31582 0.0
H973 H 0.84207 1.01005 0.30757 0.0
H974 H 0.89049 0.97517 0.29115 0.0
H975 H 0.83348 0.98598 0.33202 0.0
H976 H 0.86076 0.0991 0.26452 0.0
H977 H 0.81486 0.06375 0.28592 0.0
H978 H 0.96145 0.987 0.31175 0.0
H979 H 0.91764 1.00848 0.35002 0.0
H980 H 0.84204 0.01225 0.21686 0.0
H981 H 0.89056 0.04714 0.23306 0.0
H982 H 0.83342 0.03628 0.1924 0.0
H983 H 0.88111 0.07051 0.20838 0.0
H984 H 0.88544 0.9825 0.22546 0.0
H985 H 0.93314 0.96542 0.2607 0.0
H986 H 0.89475 0.95768 0.20167 0.0
H987 H 0.94162 0.94084 0.23625 0.0
H988 H 0.96172 0.0351 0.21275 0.0
H989 H 0.91792 0.01382 0.17436 0.0
H990 H 0.8148 0.9585 0.23873 0.0
H991 H 0.86094 0.92319 0.25957 0.0
Li992 Li 0.25909 0.14901 0.5295 0.0
Li993 Li 0.24419 0.12422 0.50781 0.0
Li994 Li 0.28065 0.12457 0.51488 0.0
Li995 Li 0.26594 0.14909 0.49324 0.0
C996 C 0.25394 0.11838 0.55154 0.0
N997 N 0.24493 0.11503 0.58987 0.0
C998 C 0.23521 0.1137 0.5571 0.0
C999 C 0.26815 0.1211 0.56546 0.0
C1000 C 0.23093 0.11211 0.57655 0.0
C1001 C 0.2633 0.11943 0.58476 0.0
C1002 C 0.22284 0.15704 0.50129 0.0
C1003 C 0.19937 0.15918 0.47596 0.0
N1004 N 0.18605 0.16538 0.48885 0.0
C1005 C 0.20898 0.16365 0.51425 0.0
C1006 C 0.21807 0.15497 0.48196 0.0
C1007 C 0.19043 0.16772 0.5077 0.0
C1008 C 0.26813 0.17867 0.55714 0.0
N1009 N 0.25461 0.16543 0.55205 0.0
C1010 C 0.23448 0.1757 0.5782 0.0
C1011 C 0.23798 0.16382 0.56228 0.0
C1012 C 0.24818 0.18945 0.58372 0.0
C1013 C 0.26523 0.1908 0.573 0.0
H1014 H 0.28116 0.17994 0.54878 0.0
H1015 H 0.22731 0.15338 0.55802 0.0
C1016 C 0.22422 0.09125 0.49283 0.0
N1017 N 0.22177 0.10758 0.50335 0.0
C1018 C 0.20868 0.07883 0.48936 0.0
C1019 C 0.18832 0.09991 0.50789 0.0
C1020 C 0.20422 0.11196 0.51095 0.0
C1021 C 0.19045 0.08312 0.49694 0.0
H1022 H 0.23828 0.08779 0.48715 0.0
H1023 H 0.20254 0.12471 0.51962 0.0
C1024 C 0.30323 0.15556 0.51857 0.0
N1025 N 0.34234 0.15964 0.52468 0.0
C1026 C 0.31532 0.16098 0.50358 0.0
C1027 C 0.311 0.15245 0.53671 0.0
C1028 C 0.33506 0.16293 0.50695 0.0
C1029 C 0.33081 0.1545 0.5395 0.0
C1030 C 0.26853 0.11597 0.47103 0.0
C1031 C 0.28649 0.11088 0.46357 0.0
C1032 C 0.25245 0.11618 0.45901 0.0
C1033 C 0.28816 0.10647 0.4441 0.0
C1034 C 0.25469 0.11168 0.43962 0.0
N1035 N 0.27236 0.10699 0.43262 0.0
C1036 C 0.30186 0.09428 0.53278 0.0
C1037 C 0.31963 0.11022 0.50887 0.0
C1038 C 0.31746 0.08208 0.53638 0.0
N1039 N 0.30315 0.10811 0.51926 0.0
C1040 C 0.33557 0.09832 0.51199 0.0
C1041 C 0.33459 0.08402 0.5259 0.0
H1042 H 0.28865 0.09262 0.54077 0.0
H1043 H 0.32044 0.12112 0.49807 0.0
C1044 C 0.25862 0.18149 0.46924 0.0
N1045 N 0.26992 0.16568 0.47095 0.0
C1046 C 0.26094 0.19393 0.45378 0.0
C1047 C 0.28682 0.17403 0.44214 0.0
C1048 C 0.28392 0.16188 0.45777 0.0
C1049 C 0.2752 0.19029 0.43996 0.0
H1050 H 0.24782 0.18457 0.47998 0.0
H1051 H 0.29311 0.14959 0.45949 0.0
O1052 O 0.25831 0.12038 0.53257 0.0
O1053 O 0.24101 0.15277 0.50748 0.0
O1054 O 0.28392 0.15326 0.51546 0.0
O1055 O 0.26666 0.12047 0.49004 0.0
H1056 H 0.22406 0.11145 0.54653 0.0
H1057 H 0.28276 0.12449 0.5614 0.0
H1058 H 0.21646 0.10862 0.58107 0.0
H1059 H 0.27413 0.12162 0.59569 0.0
H1060 H 0.19548 0.15757 0.46104 0.0
H1061 H 0.21245 0.16553 0.52922 0.0
H1062 H 0.22873 0.15033 0.47166 0.0
H1063 H 0.17953 0.17272 0.5176 0.0
H1064 H 0.22114 0.17424 0.58609 0.0
H1065 H 0.27612 0.20125 0.5768 0.0
H1066 H 0.21088 0.06597 0.4809 0.0
H1067 H 0.17449 0.10363 0.51404 0.0
H1068 H 0.30956 0.16356 0.48949 0.0
H1069 H 0.30183 0.14846 0.54851 0.0
H1070 H 0.3446 0.16703 0.49546 0.0
H1071 H 0.33702 0.15202 0.55345 0.0
H1072 H 0.29905 0.11047 0.47267 0.0
H1073 H 0.23835 0.1196 0.4646 0.0
H1074 H 0.30201 0.10265 0.43811 0.0
H1075 H 0.24237 0.11186 0.43015 0.0
H1076 H 0.31617 0.0712 0.54721 0.0
H1077 H 0.34854 0.10024 0.50363 0.0
H1078 H 0.25178 0.20639 0.45268 0.0
H1079 H 0.29808 0.17081 0.43188 0.0
Li1080 Li 0.39922 0.50765 0.77973 0.0
Li1081 Li 0.37406 0.5283 0.7657 0.0
Li1082 Li 0.37404 0.49336 0.75908 0.0
Li1083 Li 0.39907 0.51398 0.74481 0.0
C1084 C 0.36576 0.49405 0.79792 0.0
N1085 N 0.35573 0.46777 0.82541 0.0
C1086 C 0.34955 0.49711 0.80938 0.0
C1087 C 0.3769 0.47764 0.80045 0.0
C1088 C 0.3447 0.48365 0.82319 0.0
C1089 C 0.37159 0.46452 0.81442 0.0
C1090 C 0.40768 0.54629 0.77952 0.0
C1091 C 0.42867 0.57178 0.78999 0.0
N1092 N 0.41796 0.57387 0.80617 0.0
C1093 C 0.39687 0.5487 0.79624 0.0
C1094 C 0.4237 0.55791 0.77634 0.0
C1095 C 0.4023 0.56272 0.80954 0.0
C1096 C 0.43387 0.49611 0.79883 0.0
N1097 N 0.41604 0.50366 0.80186 0.0
C1098 C 0.42199 0.50495 0.83574 0.0
C1099 C 0.41 0.50813 0.81992 0.0
C1100 C 0.44037 0.49703 0.83299 0.0
C1101 C 0.4463 0.49263 0.81425 0.0
H1102 H 0.43843 0.49269 0.7844 0.0
H1103 H 0.39578 0.51406 0.82211 0.0
C1104 C 0.33969 0.54909 0.77705 0.0
N1105 N 0.3578 0.55094 0.76975 0.0
C1106 C 0.32808 0.56527 0.78027 0.0
C1107 C 0.3538 0.58498 0.76826 0.0
C1108 C 0.3649 0.5685 0.7653 0.0
C1109 C 0.33517 0.5835 0.77589 0.0
H1110 H 0.33428 0.53504 0.78048 0.0
H1111 H 0.37928 0.56977 0.75954 0.0
C1112 C 0.40727 0.47529 0.74489 0.0
N1113 N 0.41675 0.44757 0.7181 0.0
C1114 C 0.3964 0.47326 0.72816 0.0
C1115 C 0.42294 0.46322 0.74801 0.0
C1116 C 0.40142 0.45916 0.71479 0.0
C1117 C 0.42751 0.44929 0.73429 0.0
C1118 C 0.36552 0.52768 0.72695 0.0
C1119 C 0.34935 0.5246 0.71544 0.0
C1120 C 0.3766 0.54416 0.72454 0.0
C1121 C 0.34449 0.53812 0.70169 0.0
C1122 C 0.37128 0.55733 0.71064 0.0
N1123 N 0.35546 0.55407 0.69959 0.0
C1124 C 0.33966 0.47236 0.74792 0.0
C1125 C 0.36488 0.45322 0.76001 0.0
C1126 C 0.32804 0.45611 0.74504 0.0
N1127 N 0.35777 0.47068 0.75526 0.0
C1128 C 0.35376 0.43668 0.75742 0.0
C1129 C 0.33511 0.43798 0.74983 0.0
H1130 H 0.33424 0.48633 0.74425 0.0
H1131 H 0.37928 0.45207 0.76576 0.0
C1132 C 0.43393 0.52475 0.7256 0.0
N1133 N 0.41578 0.51797 0.72256 0.0
C1134 C 0.44634 0.5282 0.71014 0.0
C1135 C 0.42133 0.51747 0.6886 0.0
C1136 C 0.4094 0.51423 0.70446 0.0
C1137 C 0.44005 0.52462 0.69135 0.0
H1138 H 0.43877 0.52758 0.74006 0.0
H1139 H 0.39497 0.50883 0.70227 0.0
O1140 O 0.37062 0.5071 0.78431 0.0
O1141 O 0.40269 0.53263 0.76629 0.0
O1142 O 0.40265 0.48899 0.75822 0.0
O1143 O 0.3704 0.51458 0.7405 0.0
H1144 H 0.34079 0.50976 0.80761 0.0
H1145 H 0.38951 0.47505 0.79174 0.0
H1146 H 0.33218 0.48582 0.83216 0.0
H1147 H 0.38007 0.45176 0.81652 0.0
H1148 H 0.44104 0.58088 0.78773 0.0
H1149 H 0.3844 0.53987 0.79893 0.0
H1150 H 0.4322 0.55624 0.76344 0.0
H1151 H 0.39406 0.56474 0.82254 0.0
H1152 H 0.41692 0.50847 0.85 0.0
H1153 H 0.46037 0.48648 0.8116 0.0
H1154 H 0.31378 0.56359 0.78622 0.0
H1155 H 0.35976 0.59882 0.76477 0.0
H1156 H 0.38418 0.48242 0.72552 0.0
H1157 H 0.43147 0.46458 0.76092 0.0
H1158 H 0.39313 0.45743 0.70179 0.0
H1159 H 0.43961 0.43984 0.73651 0.0
H1160 H 0.34064 0.51189 0.71712 0.0
H1161 H 0.38919 0.54677 0.73329 0.0
H1162 H 0.33201 0.53593 0.69268 0.0
H1163 H 0.37972 0.57015 0.70862 0.0
H1164 H 0.31373 0.45766 0.7391 0.0
H1165 H 0.35972 0.42293 0.76121 0.0
H1166 H 0.46067 0.53372 0.71281 0.0
H1167 H 0.41598 0.51455 0.67432 0.0
Li1168 Li 0.78049 0.39758 0.50955 0.0
Li1169 Li 0.76583 0.37311 0.53126 0.0
Li1170 Li 0.75898 0.37307 0.49501 0.0
Li1171 Li 0.74405 0.39789 0.51662 0.0
C1172 C 0.80315 0.36673 0.506 0.0
N1173 N 0.84229 0.36291 0.5 0.0
C1174 C 0.81521 0.36136 0.52101 0.0
C1175 C 0.81095 0.36992 0.48788 0.0
C1176 C 0.83497 0.35954 0.5177 0.0
C1177 C 0.83079 0.368 0.48515 0.0
C1178 C 0.76819 0.40637 0.55337 0.0
C1179 C 0.75405 0.41083 0.58463 0.0
N1180 N 0.77164 0.41565 0.59176 0.0
C1181 C 0.78607 0.41159 0.56096 0.0
C1182 C 0.752 0.40619 0.56525 0.0
C1183 C 0.78755 0.41614 0.58041 0.0
C1184 C 0.80181 0.42774 0.4915 0.0
N1185 N 0.80299 0.41405 0.50518 0.0
C1186 C 0.83531 0.42402 0.51266 0.0
C1187 C 0.81936 0.4121 0.51575 0.0
C1188 C 0.83444 0.43817 0.4986 0.0
C1189 C 0.81742 0.43995 0.48793 0.0
H1190 H 0.78867 0.42926 0.48336 0.0
H1191 H 0.82009 0.4013 0.52666 0.0
C1192 C 0.75866 0.34073 0.55533 0.0
N1193 N 0.76985 0.35663 0.55359 0.0
C1194 C 0.76102 0.32838 0.57084 0.0
C1195 C 0.78674 0.34853 0.58246 0.0
C1196 C 0.7838 0.36059 0.56678 0.0
C1197 C 0.77522 0.33219 0.58467 0.0
H1198 H 0.74791 0.33753 0.54458 0.0
H1199 H 0.79291 0.37295 0.56502 0.0
C1200 C 0.75366 0.40355 0.47289 0.0
N1201 N 0.74439 0.40658 0.4346 0.0
C1202 C 0.73489 0.40812 0.46743 0.0
C1203 C 0.76778 0.40077 0.45889 0.0
C1204 C 0.73047 0.40955 0.44799 0.0
C1205 C 0.76279 0.40227 0.43961 0.0
C1206 C 0.72278 0.36496 0.52335 0.0
C1207 C 0.70888 0.35823 0.51048 0.0
C1208 C 0.71811 0.36702 0.5427 0.0
C1209 C 0.6904 0.35404 0.51714 0.0
C1210 C 0.69948 0.36268 0.54882 0.0
N1211 N 0.68611 0.35636 0.53601 0.0
C1212 C 0.76813 0.34345 0.46738 0.0
C1213 C 0.73783 0.35801 0.46237 0.0
C1214 C 0.76525 0.33127 0.45154 0.0
N1215 N 0.75452 0.35657 0.47251 0.0
C1216 C 0.73435 0.34608 0.44647 0.0
C1217 C 0.74814 0.33245 0.4409 0.0
H1218 H 0.7812 0.34231 0.47566 0.0
H1219 H 0.7271 0.36837 0.46666 0.0
C1220 C 0.72418 0.431 0.53133 0.0
N1221 N 0.72164 0.41453 0.52106 0.0
C1222 C 0.70867 0.44342 0.5348 0.0
C1223 C 0.68814 0.42206 0.51676 0.0
C1224 C 0.70402 0.41 0.5137 0.0
C1225 C 0.69036 0.43899 0.52748 0.0
H1226 H 0.7383 0.43456 0.53682 0.0
H1227 H 0.70227 0.39714 0.50521 0.0
O1228 O 0.78381 0.3689 0.50905 0.0
O1229 O 0.76651 0.40173 0.53437 0.0
O1230 O 0.75817 0.40169 0.49184 0.0
O1231 O 0.7409 0.36934 0.51704 0.0
H1232 H 0.80941 0.35872 0.53508 0.0
H1233 H 0.80181 0.37388 0.47607 0.0
H1234 H 0.84449 0.3555 0.52922 0.0
H1235 H 0.83704 0.37055 0.47123 0.0
H1236 H 0.74165 0.41068 0.59399 0.0
H1237 H 0.79872 0.41199 0.55196 0.0
H1238 H 0.73797 0.40268 0.55956 0.0
H1239 H 0.80133 0.42007 0.58649 0.0
H1240 H 0.8482 0.42223 0.52117 0.0
H1241 H 0.81622 0.45071 0.47698 0.0
H1242 H 0.75194 0.31585 0.57197 0.0
H1243 H 0.79796 0.35187 0.59272 0.0
H1244 H 0.7238 0.41041 0.47806 0.0
H1245 H 0.78243 0.39745 0.46287 0.0
H1246 H 0.71596 0.41296 0.44356 0.0
H1247 H 0.77355 0.40003 0.42862 0.0
H1248 H 0.71228 0.35636 0.49549 0.0
H1249 H 0.7288 0.37173 0.55293 0.0
H1250 H 0.67947 0.34895 0.50731 0.0
H1251 H 0.69566 0.36427 0.56376 0.0
H1252 H 0.77621 0.32092 0.4477 0.0
H1253 H 0.72097 0.34741 0.43864 0.0
H1254 H 0.71094 0.45639 0.54307 0.0
H1255 H 0.67425 0.41822 0.51082 0.0
Li1256 Li 0.65053 0.99285 0.76617 0.0
Li1257 Li 0.6264 0.01379 0.7805 0.0
Li1258 Li 0.6261 1.00648 0.74404 0.0
Li1259 Li 0.65193 0.02762 0.76004 0.0
C1260 C 0.61917 0.96976 0.76655 0.0
N1261 N 0.61368 0.93066 0.76694 0.0
C1262 C 0.61921 0.95997 0.78387 0.0
C1263 C 0.61616 0.95968 0.74943 0.0
C1264 C 0.61648 0.94019 0.78377 0.0
C1265 C 0.61343 0.93992 0.74993 0.0
C1266 C 0.65589 0.0154 0.80416 0.0
C1267 C 0.66151 0.03361 0.83311 0.0
N1268 N 0.65628 0.01821 0.84363 0.0
C1269 C 0.65078 0.9997 0.81526 0.0
C1270 C 0.66146 0.03245 0.81314 0.0
C1271 C 0.65098 1.00142 0.83519 0.0
C1272 C 0.68111 0.97147 0.78404 0.0
N1273 N 0.66711 0.97025 0.7704 0.0
C1274 C 0.67765 0.93849 0.76207 0.0
C1275 C 0.66532 0.95412 0.75943 0.0
C1276 C 0.69213 0.93942 0.77605 0.0
C1277 C 0.69376 0.95617 0.78714 0.0
H1278 H 0.68271 0.98447 0.79235 0.0
H1279 H 0.65461 0.95344 0.74829 0.0
C1280 C 0.59619 1.00521 0.80738 0.0
N1281 N 0.60956 0.01858 0.80255 0.0
C1282 C 0.58392 1.00818 0.82309 0.0
C1283 C 0.59917 0.03872 0.82864 0.0
C1284 C 0.61117 0.03516 0.81283 0.0
C1285 C 0.5853 0.02514 0.83393 0.0
H1286 H 0.59496 0.99223 0.79897 0.0
H1287 H 0.62179 0.04566 0.80878 0.0
C1288 C 0.66806 0.99471 0.73268 0.0
N1289 N 0.69543 0.9704 0.71731 0.0
C1290 C 0.68725 0.99608 0.73856 0.0
C1291 C 0.66278 0.98104 0.71894 0.0
C1292 C 0.70087 0.98363 0.73065 0.0
C1293 C 0.67684 0.96888 0.71134 0.0
C1294 C 0.62203 0.04971 0.75169 0.0
C1295 C 0.62682 0.05333 0.73265 0.0
C1296 C 0.61684 0.06482 0.76383 0.0
C1297 C 0.62645 0.07211 0.72608 0.0
C1298 C 0.61661 0.0834 0.75672 0.0
N1299 N 0.6214 0.08663 0.73816 0.0
C1300 C 0.59085 0.99723 0.72464 0.0
C1301 C 0.61609 1.00603 0.70372 0.0
C1302 C 0.5784 0.99412 0.7091 0.0
N1303 N 0.60938 1.00295 0.72175 0.0
C1304 C 0.60408 1.00319 0.68777 0.0
C1305 C 0.58501 0.99706 0.69037 0.0
H1306 H 0.58578 0.99489 0.73907 0.0
H1307 H 0.63082 1.01063 0.70169 0.0
C1308 C 0.68091 0.04993 0.7408 0.0
N1309 N 0.66836 0.05003 0.75579 0.0
C1310 C 0.69319 0.06554 0.73766 0.0
C1311 C 0.67922 0.08139 0.76515 0.0
C1312 C 0.66721 0.06548 0.76777 0.0
C1313 C 0.69253 0.08148 0.75001 0.0
H1314 H 0.68148 0.03769 0.73127 0.0
H1315 H 0.65697 0.06547 0.77942 0.0
O1316 O 0.62181 0.98914 0.76633 0.0
O1317 O 0.65516 0.01413 0.78463 0.0
O1318 O 0.65444 1.00642 0.74065 0.0
O1319 O 0.62301 0.03151 0.75852 0.0
H1320 H 0.62126 0.96752 0.79728 0.0
H1321 H 0.61626 0.96695 0.73587 0.0
H1322 H 0.61655 0.93242 0.79707 0.0
H1323 H 0.61122 0.93193 0.73678 0.0
H1324 H 0.66569 0.04676 0.84025 0.0
H1325 H 0.64663 0.98636 0.80853 0.0
H1326 H 0.66562 0.04469 0.8048 0.0
H1327 H 0.64692 0.98942 0.84394 0.0
H1328 H 0.67608 0.92588 0.75309 0.0
H1329 H 0.70488 0.95748 0.79795 0.0
H1330 H 0.57339 0.9974 0.82672 0.0
H1331 H 0.60065 0.05197 0.83664 0.0
H1332 H 0.69151 1.00648 0.74933 0.0
H1333 H 0.64795 0.97966 0.7144 0.0
H1334 H 0.71575 0.98442 0.73516 0.0
H1335 H 0.67296 0.95816 0.70076 0.0
H1336 H 0.63108 0.0418 0.72313 0.0
H1337 H 0.61314 0.06225 0.77862 0.0
H1338 H 0.63025 0.07516 0.71142 0.0
H1339 H 0.61268 0.09526 0.76597 0.0
H1340 H 0.56379 0.98938 0.71164 0.0
H1341 H 0.60966 1.00558 0.67352 0.0
H1342 H 0.70323 0.06512 0.7258 0.0
H1343 H 0.67823 0.09346 0.77491 0.0
Li1344 Li 0.03003 0.26087 0.87513 0.0
Li1345 Li 1.00778 0.27657 0.90046 0.0
Li1346 Li 0.01557 0.24031 0.89974 0.0
Li1347 Li 0.9951 0.25429 0.87536 0.0
C1348 C 0.05167 0.26922 0.9056 0.0
N1349 N 0.08902 0.28268 0.90798 0.0
C1350 C 0.05518 0.28835 0.91037 0.0
C1351 C 0.06716 0.2569 0.90219 0.0
C1352 C 0.07417 0.29488 0.91149 0.0
C1353 C 0.08593 0.26399 0.90339 0.0
C1354 C 0.99839 0.28729 0.85762 0.0
C1355 C 0.97213 0.30648 0.84605 0.0
N1356 N 0.9768 0.30143 0.82779 0.0
C1357 C 1.00299 0.28234 0.83875 0.0
C1358 C 0.98289 0.29949 0.86135 0.0
C1359 C 0.99187 0.28961 0.82386 0.0
C1360 C 0.05836 0.25204 0.84605 0.0
N1361 N 0.05238 0.26576 0.85868 0.0
C1362 C 0.07722 0.28692 0.84765 0.0
C1363 C 0.06138 0.28306 0.8595 0.0
C1364 C 0.08372 0.27296 0.83461 0.0
C1365 C 0.07406 0.25534 0.83386 0.0
H1366 H 0.05081 0.23855 0.84525 0.0
H1367 H 0.05621 0.29395 0.8693 0.0
C1368 C 0.99907 0.29628 0.93567 0.0
N1369 N 1.00332 0.29892 0.91685 0.0
C1370 C 0.99576 0.31198 0.94788 0.0
C1371 C 1.00148 0.33296 0.92129 0.0
C1372 C 1.00464 0.31685 0.90956 0.0
C1373 C 0.99692 0.33062 0.94072 0.0
H1374 H 0.99816 0.28193 0.94119 0.0
H1375 H 1.00819 0.31867 0.89462 0.0
C1376 C 0.0204 0.21689 0.87132 0.0
N1377 N 0.0278 0.17814 0.87267 0.0
C1378 C 1.0054 0.20373 0.86904 0.0
C1379 C 0.03917 0.21033 0.8742 0.0
C1380 C 1.00945 0.1842 0.86975 0.0
C1381 C 0.04261 0.19069 0.87489 0.0
C1382 C 0.97092 0.2517 0.90508 0.0
C1383 C 0.96235 0.23433 0.89989 0.0
C1384 C 0.95943 0.26681 0.91161 0.0
C1385 C 0.94238 0.23238 0.90124 0.0
C1386 C 0.9395 0.26427 0.91281 0.0
N1387 N 0.93147 0.24726 0.90763 0.0
C1388 C 0.03627 0.21838 0.92793 0.0
C1389 C 1.00744 0.20365 0.91741 0.0
C1390 C 0.04005 0.20307 0.9402 0.0
N1391 N 0.0202 0.21844 0.91672 0.0
C1392 C 1.01074 0.18799 0.92937 0.0
C1393 C 0.02722 0.18759 0.94097 0.0
H1394 H 0.04616 0.23028 0.92743 0.0
H1395 H 0.99468 0.20389 0.90862 0.0
C1396 C 0.97624 0.23858 0.8423 0.0
N1397 N 0.97318 0.25033 0.85765 0.0
C1398 C 0.96175 0.23545 0.82866 0.0
C1399 C 0.94105 0.2568 0.84646 0.0
C1400 C 0.95598 0.25956 0.85978 0.0
C1401 C 0.94388 0.2446 0.83065 0.0
H1402 H 0.99012 0.23182 0.84043 0.0
H1403 H 0.95389 0.26935 0.87164 0.0
O1404 O 0.03317 0.26266 0.90406 0.0
O1405 O 1.00873 0.27985 0.8724 0.0
O1406 O 0.01668 0.23609 0.87115 0.0
O1407 O 0.99044 0.25392 0.90384 0.0
H1408 H 0.04338 0.29809 0.91305 0.0
H1409 H 0.06471 0.24206 0.89851 0.0
H1410 H 0.07709 0.30967 0.91509 0.0
H1411 H 0.09804 0.25465 0.90066 0.0
H1412 H 0.96002 0.31585 0.84871 0.0
H1413 H 0.0149 0.27281 0.83568 0.0
H1414 H 0.97903 0.30327 0.87591 0.0
H1415 H 0.99516 0.28582 0.80918 0.0
H1416 H 0.08424 0.30072 0.84854 0.0
H1417 H 0.0786 0.24429 0.82388 0.0
H1418 H 0.99227 0.30962 0.96278 0.0
H1419 H 1.00253 0.34711 0.91527 0.0
H1420 H 0.99075 0.20852 0.86703 0.0
H1421 H 0.05093 0.22029 0.87605 0.0
H1422 H 0.99796 0.17386 0.8681 0.0
H1423 H 0.05706 0.18542 0.87723 0.0
H1424 H 0.97098 0.22261 0.89453 0.0
H1425 H 0.96579 0.28038 0.91559 0.0
H1426 H 0.93555 0.21907 0.89714 0.0
H1427 H 0.93043 0.27585 0.9178 0.0
H1428 H 0.0529 0.20326 0.94898 0.0
H1429 H 1.00051 0.17631 0.92959 0.0
H1430 H 0.96454 0.22613 0.8165 0.0
H1431 H 0.92755 0.26432 0.84832 0.0
Li1432 Li 0.53028 0.76305 0.37495 0.0
Li1433 Li 0.50933 0.77719 0.39994 0.0
Li1434 Li 0.51611 0.7424 0.39983 0.0
Li1435 Li 0.49525 0.75623 0.3749 0.0
C1436 C 0.54842 0.7772 0.40809 0.0
N1437 N 0.57611 0.80394 0.4178 0.0
C1438 C 0.5504 0.79384 0.39738 0.0
C1439 C 0.56053 0.77414 0.42372 0.0
C1440 C 0.56448 0.80718 0.40252 0.0
C1441 C 0.57444 0.78784 0.42841 0.0
C1442 C 0.49516 0.7949 0.36694 0.0
C1443 C 0.46487 0.81075 0.37279 0.0
N1444 N 0.46804 0.82203 0.35737 0.0
C1445 C 0.49814 0.80665 0.35118 0.0
C1446 C 0.47841 0.79696 0.37786 0.0
C1447 C 0.48424 0.82028 0.34656 0.0
C1448 C 0.54948 0.77464 0.34059 0.0
N1449 N 0.55259 0.7673 0.3583 0.0
C1450 C 0.58667 0.76637 0.35228 0.0
C1451 C 0.57079 0.76313 0.36426 0.0
C1452 C 0.58384 0.77405 0.33401 0.0
C1453 C 0.56496 0.77819 0.32819 0.0
H1454 H 0.53494 0.7778 0.33608 0.0
H1455 H 0.57303 0.75736 0.37837 0.0
C1456 C 0.49833 0.79668 0.43466 0.0
N1457 N 0.50513 0.7995 0.41663 0.0
C1458 C 0.49492 0.81225 0.44704 0.0
C1459 C 0.50568 0.83344 0.42222 0.0
C1460 C 0.50889 0.81749 0.41032 0.0
C1461 C 0.49855 0.83093 0.44083 0.0
H1462 H 0.49548 0.7823 0.43944 0.0
H1463 H 0.51431 0.8195 0.39597 0.0
C1464 C 0.53037 0.72424 0.3667 0.0
N1465 N 0.55746 0.6969 0.35708 0.0
C1466 C 0.5274 0.71222 0.3509 0.0
C1467 C 0.54711 0.72235 0.37763 0.0
C1468 C 0.54127 0.69848 0.34626 0.0
C1469 C 0.56063 0.70844 0.37253 0.0
C1470 C 0.47702 0.74247 0.40784 0.0
C1471 C 0.47513 0.72569 0.39698 0.0
C1472 C 0.46486 0.74567 0.42347 0.0
C1473 C 0.46109 0.71235 0.40198 0.0
C1474 C 0.45099 0.73197 0.42801 0.0
N1475 N 0.44941 0.71573 0.41726 0.0
C1476 C 0.52667 0.72354 0.43463 0.0
C1477 C 0.51665 0.70222 0.41008 0.0
C1478 C 0.5299 0.70823 0.44706 0.0
N1479 N 0.52021 0.72034 0.41647 0.0
C1480 C 0.5197 0.6865 0.42203 0.0
C1481 C 0.52644 0.68941 0.44078 0.0
H1482 H 0.52935 0.73802 0.43948 0.0
H1483 H 0.51147 0.6999 0.39565 0.0
C1484 C 0.47614 0.74508 0.34013 0.0
N1485 N 0.47298 0.75207 0.35812 0.0
C1486 C 0.46075 0.74224 0.32738 0.0
C1487 C 0.439 0.75384 0.35179 0.0
C1488 C 0.4548 0.75637 0.36411 0.0
C1489 C 0.44191 0.74673 0.33316 0.0
H1490 H 0.49068 0.74182 0.3356 0.0
H1491 H 0.45251 0.76191 0.37843 0.0
O1492 O 0.53473 0.76391 0.40337 0.0
O1493 O 0.50861 0.78144 0.37156 0.0
O1494 O 0.51691 0.73777 0.37137 0.0
O1495 O 0.4907 0.75573 0.40329 0.0
H1496 H 0.54119 0.79643 0.3852 0.0
H1497 H 0.55918 0.76131 0.43213 0.0
H1498 H 0.56617 0.82012 0.39435 0.0
H1499 H 0.58391 0.78567 0.44048 0.0
H1500 H 0.45184 0.81249 0.38111 0.0
H1501 H 0.51105 0.80526 0.3426 0.0
H1502 H 0.47586 0.78803 0.39013 0.0
H1503 H 0.48635 0.82947 0.33439 0.0
H1504 H 0.60104 0.76306 0.35726 0.0
H1505 H 0.56225 0.78414 0.31421 0.0
H1506 H 0.4894 0.80976 0.4613 0.0
H1507 H 0.50864 0.84764 0.41693 0.0
H1508 H 0.5145 0.71348 0.34231 0.0
H1509 H 0.54964 0.73149 0.38995 0.0
H1510 H 0.53917 0.68908 0.33406 0.0
H1511 H 0.57364 0.70683 0.38087 0.0
H1512 H 0.48438 0.72298 0.38481 0.0
H1513 H 0.46614 0.7586 0.43201 0.0
H1514 H 0.45948 0.6993 0.3937 0.0
H1515 H 0.44148 0.73425 0.44008 0.0
H1516 H 0.53512 0.71103 0.46142 0.0
H1517 H 0.51688 0.67219 0.41668 0.0
H1518 H 0.46353 0.73678 0.31309 0.0
H1519 H 0.42467 0.75748 0.35672 0.0
Li1520 Li 0.01612 0.77978 0.62509 0.0
Li1521 Li 0.99587 0.76604 0.65063 0.0
Li1522 Li 0.03089 0.75916 0.64968 0.0
Li1523 Li 1.00921 0.74501 0.62533 0.0
C1524 C 0.0312 0.79798 0.65795 0.0
N1525 N 0.05847 0.82531 0.66719 0.0
C1526 C 0.02868 0.80972 0.67404 0.0
C1527 C 0.04758 0.80015 0.64653 0.0
C1528 C 0.04264 0.82345 0.67848 0.0
C1529 C 0.0612 0.81404 0.65144 0.0
C1530 C 0.97683 0.77981 0.61812 0.0
C1531 C 0.95045 0.79044 0.5985 0.0
N1532 N 0.94919 0.80668 0.60929 0.0
C1533 C 0.97527 0.7966 0.62902 0.0
C1534 C 0.96434 0.77668 0.60274 0.0
C1535 C 0.9612 0.81 0.62433 0.0
C1536 C 0.02631 0.79854 0.5901 0.0
N1537 N 0.01999 0.80178 0.60831 0.0
C1538 C 0.01962 0.83562 0.60273 0.0
C1539 C 0.01656 0.81992 0.61471 0.0
C1540 C 0.02625 0.83267 0.58394 0.0
C1541 C 0.02955 0.81383 0.57765 0.0
H1542 H 0.02891 0.78405 0.58525 0.0
H1543 H 0.01152 0.82227 0.62919 0.0
C1544 C 0.97865 0.77636 0.68626 0.0
N1545 N 0.97427 0.7703 0.66821 0.0
C1546 C 0.9641 0.77923 0.69989 0.0
C1547 C 0.94058 0.76966 0.67626 0.0
C1548 C 0.95561 0.76697 0.66303 0.0
C1549 C 0.94479 0.77581 0.69498 0.0
H1550 H 0.99354 0.77879 0.69014 0.0
H1551 H 0.95237 0.76207 0.64866 0.0
C1552 C 0.04801 0.74485 0.61607 0.0
N1553 N 0.07525 0.71795 0.60563 0.0
C1554 C 0.05023 0.72824 0.62679 0.0
C1555 C 0.05965 0.74779 0.60006 0.0
C1556 C 0.06409 0.71482 0.62127 0.0
C1557 C 0.07333 0.73401 0.595 0.0
C1558 C 0.9959 0.72742 0.65871 0.0
C1559 C 0.99939 0.71542 0.67418 0.0
C1560 C 0.97869 0.72568 0.64847 0.0
C1561 C 0.98555 0.70186 0.67917 0.0
C1562 C 0.96521 0.71195 0.65391 0.0
N1563 N 0.96889 0.70042 0.66902 0.0
C1564 C 0.05183 0.74802 0.68356 0.0
C1565 C 0.07155 0.75951 0.65856 0.0
C1566 C 0.06807 0.74496 0.69515 0.0
N1567 N 0.0538 0.75515 0.66558 0.0
C1568 C 0.08811 0.75674 0.66967 0.0
C1569 C 0.0865 0.74935 0.6882 0.0
H1570 H 0.03762 0.74467 0.68891 0.0
H1571 H 0.07292 0.76511 0.64427 0.0
C1572 C 0.99776 0.72553 0.59077 0.0
N1573 N 1.00462 0.72268 0.60878 0.0
C1574 C 0.9943 0.70998 0.57838 0.0
C1575 C 1.00507 0.68874 0.60314 0.0
C1576 C 1.00834 0.70468 0.61506 0.0
C1577 C 0.99793 0.69129 0.58454 0.0
H1578 H 0.99497 0.73992 0.58601 0.0
H1579 H 0.01385 0.70264 0.62936 0.0
O1580 O 0.01767 0.78445 0.65348 0.0
O1581 O 0.99055 0.7665 0.62235 0.0
O1582 O 0.03453 0.75821 0.62115 0.0
O1583 O 1.00928 0.74083 0.65375 0.0
H1584 H 0.01607 0.80823 0.683 0.0
H1585 H 0.04976 0.79122 0.634 0.0
H1586 H 0.04089 0.83263 0.6909 0.0
H1587 H 0.07393 0.81587 0.64274 0.0
H1588 H 0.94069 0.78821 0.58663 0.0
H1589 H 0.98479 0.79926 0.641 0.0
H1590 H 0.96537 0.76375 0.59417 0.0
H1591 H 0.95984 0.82306 0.63264 0.0
H1592 H 0.01692 0.84994 0.60809 0.0
H1593 H 0.03468 0.811 0.56326 0.0
H1594 H 0.96789 0.7839 0.71423 0.0
H1595 H 0.92585 0.7668 0.67201 0.0
H1596 H 0.0414 0.72573 0.63925 0.0
H1597 H 0.05811 0.76059 0.59164 0.0
H1598 H 0.06596 0.7019 0.62944 0.0
H1599 H 0.08244 0.73609 0.58264 0.0
H1600 H 0.01265 0.7166 0.68225 0.0
H1601 H 0.97573 0.73482 0.63644 0.0
H1602 H 0.98804 0.69249 0.69113 0.0
H1603 H 0.95183 0.71045 0.64611 0.0
H1604 H 0.06627 0.7392 0.70936 0.0
H1605 H 0.1021 0.76023 0.6638 0.0
H1606 H 0.98877 0.7125 0.56413 0.0
H1607 H 1.00804 0.67454 0.60839 0.0
Li1608 Li 0.51612 0.27943 0.12508 0.0
Li1609 Li 0.49594 0.26569 0.15068 0.0
Li1610 Li 0.53097 0.25888 0.14967 0.0
Li1611 Li 0.50929 0.24466 0.12539 0.0
C1612 C 0.53124 0.29772 0.15787 0.0
N1613 N 0.55848 0.32512 0.16696 0.0
C1614 C 0.52874 0.3095 0.17393 0.0
C1615 C 0.54758 0.29988 0.14641 0.0
C1616 C 0.54268 0.32326 0.1783 0.0
C1617 C 0.56119 0.31381 0.15125 0.0
C1618 C 0.47683 0.27937 0.11817 0.0
C1619 C 0.45041 0.28991 0.09855 0.0
N1620 N 0.44913 0.30617 0.10931 0.0
C1621 C 0.47525 0.29617 0.12905 0.0
C1622 C 0.46433 0.27619 0.1028 0.0
C1623 C 0.46115 0.30954 0.12434 0.0
C1624 C 0.52618 0.29811 0.09005 0.0
N1625 N 0.51991 0.30139 0.10826 0.0
C1626 C 0.51946 0.33521 0.10259 0.0
C1627 C 0.51646 0.31954 0.11462 0.0
C1628 C 0.52606 0.33222 0.0838 0.0
C1629 C 0.52937 0.31337 0.07754 0.0
H1630 H 0.52879 0.28361 0.08523 0.0
H1631 H 0.51146 0.32192 0.1291 0.0
C1632 C 0.47871 0.27614 0.18627 0.0
N1633 N 0.47434 0.26995 0.16826 0.0
C1634 C 0.46415 0.2791 0.19988 0.0
C1635 C 0.44065 0.26932 0.17631 0.0
C1636 C 0.45569 0.26656 0.1631 0.0
C1637 C 0.44485 0.27563 0.19499 0.0
H1638 H 0.49359 0.27864 0.19013 0.0
H1639 H 0.45246 0.26156 0.14876 0.0
C1640 C 0.54807 0.24457 0.11605 0.0
N1641 N 0.57535 0.21773 0.10556 0.0
C1642 C 0.55035 0.22797 0.12676 0.0
C1643 C 0.55967 0.24753 0.10001 0.0
C1644 C 0.56422 0.21458 0.12122 0.0
C1645 C 0.57338 0.23379 0.09493 0.0
C1646 C 0.49607 0.22708 0.1588 0.0
C1647 C 0.4996 0.21511 0.17428 0.0
C1648 C 0.47885 0.22529 0.14857 0.0
C1649 C 0.48579 0.20152 0.1793 0.0
C1650 C 0.46542 0.21153 0.15403 0.0
N1651 N 0.46913 0.20002 0.16916 0.0
C1652 C 0.55205 0.24779 0.18349 0.0
C1653 C 0.57166 0.25929 0.1584 0.0
C1654 C 0.56835 0.24473 0.195 0.0
N1655 N 0.55394 0.25492 0.1655 0.0
C1656 C 0.58827 0.2565 0.16942 0.0
C1657 C 0.58675 0.24911 0.18796 0.0
H1658 H 0.53787 0.24443 0.1889 0.0
H1659 H 0.57296 0.26489 0.1441 0.0
C1660 C 0.49797 0.22514 0.09083 0.0
N1661 N 0.50477 0.22231 0.10886 0.0
C1662 C 0.49458 0.20958 0.07843 0.0
C1663 C 0.50532 0.18837 0.10324 0.0
C1664 C 0.50851 0.20432 0.11516 0.0
C1665 C 0.49824 0.19091 0.08462 0.0
H1666 H 0.49516 0.23952 0.08605 0.0
H1667 H 0.51398 0.2023 0.12948 0.0
O1668 O 0.51772 0.28416 0.15346 0.0
O1669 O 0.49058 0.26609 0.1224 0.0
O1670 O 0.53457 0.2579 0.12114 0.0
O1671 O 0.50942 0.24051 0.15382 0.0
H1672 H 0.51614 0.30802 0.18293 0.0
H1673 H 0.54975 0.29092 0.1339 0.0
H1674 H 0.54094 0.33248 0.1907 0.0
H1675 H 0.5739 0.31564 0.14251 0.0
H1676 H 0.44064 0.28765 0.08669 0.0
H1677 H 0.48477 0.29887 0.14101 0.0
H1678 H 0.46538 0.26325 0.09425 0.0
H1679 H 0.45976 0.3226 0.13263 0.0
H1680 H 0.51676 0.34954 0.10792 0.0
H1681 H 0.53447 0.31051 0.06315 0.0
H1682 H 0.46793 0.2839 0.21418 0.0
H1683 H 0.42593 0.26642 0.17207 0.0
H1684 H 0.54154 0.22545 0.13924 0.0
H1685 H 0.55809 0.26033 0.09159 0.0
H1686 H 0.56614 0.20167 0.12939 0.0
H1687 H 0.58245 0.23589 0.08255 0.0
H1688 H 0.51286 0.21632 0.18234 0.0
H1689 H 0.47587 0.2344 0.13654 0.0
H1690 H 0.48833 0.19216 0.19126 0.0
H1691 H 0.45204 0.20999 0.14625 0.0
H1692 H 0.56662 0.23896 0.20921 0.0
H1693 H 0.60224 0.25999 0.16349 0.0
H1694 H 0.4891 0.21208 0.06417 0.0
H1695 H 0.50831 0.17418 0.1085 0.0
C1696 C 0.24009 0.78631 0.91163 0.0
C1697 C 0.23648 0.79437 0.8934 0.0
C1698 C 0.24282 0.82647 0.90689 0.0
C1699 C 0.24464 0.81856 0.92545 0.0
N1700 N 0.24232 0.79124 0.94602 0.0
N1701 N 0.23162 0.82237 0.87419 0.0
C1702 C 0.24257 0.79853 0.92795 0.0
C1703 C 0.23713 0.81454 0.89117 0.0
N1704 N 0.24168 0.76693 0.91324 0.0
N1705 N 0.24706 0.84533 0.90419 0.0
H1706 H 0.22747 0.81418 0.86234 0.0
H1707 H 0.22965 0.83697 0.87228 0.0
H1708 H 0.25113 0.85451 0.91532 0.0
H1709 H 0.24812 0.85152 0.89075 0.0
H1710 H 0.24635 0.76021 0.92562 0.0
H1711 H 0.23991 0.75757 0.90166 0.0
H1712 H 0.23872 0.77714 0.949 0.0
H1713 H 0.24418 0.79967 0.95828 0.0
C1714 C 0.04959 0.51749 0.3761 0.0
C1715 C 0.04704 0.53647 0.38305 0.0
C1716 C 0.06961 0.54812 0.35855 0.0
C1717 C 0.07122 0.52932 0.35085 0.0
N1718 N 0.06068 0.49654 0.3504 0.0
N1719 N 0.05209 0.57026 0.37912 0.0
C1720 C 0.0606 0.51412 0.35911 0.0
C1721 C 0.05635 0.5519 0.37375 0.0
N1722 N 0.04197 0.5026 0.38611 0.0
N1723 N 0.08123 0.56228 0.35172 0.0
H1724 H 0.04261 0.57359 0.39024 0.0
H1725 H 0.05667 0.5822 0.37162 0.0
H1726 H 0.09087 0.56016 0.34045 0.0
H1727 H 0.08244 0.57573 0.3581 0.0
H1728 H 0.04505 0.48833 0.38315 0.0
H1729 H 0.03357 0.50454 0.39835 0.0
H1730 H 0.05165 0.48538 0.35436 0.0
H1731 H 0.06878 0.49349 0.33818 0.0
C1732 C 0.78303 0.70897 0.89072 0.0
C1733 C 0.7826 0.72904 0.89404 0.0
C1734 C 0.77944 0.72339 0.92866 0.0
C1735 C 0.77787 0.70341 0.92514 0.0
N1736 N 0.77565 0.67727 0.90255 0.0
N1737 N 0.77751 0.75544 0.91589 0.0
C1738 C 0.77904 0.69622 0.90608 0.0
C1739 C 0.78007 0.73627 0.91296 0.0
N1740 N 0.78775 0.70208 0.87297 0.0
N1741 N 0.78088 0.73004 0.94707 0.0
H1742 H 0.7779 0.76535 0.90485 0.0
H1743 H 0.7734 0.76139 0.92898 0.0
H1744 H 0.78048 0.7211 0.95891 0.0
H1745 H 0.78417 0.74417 0.95057 0.0
H1746 H 0.79035 0.6877 0.87004 0.0
H1747 H 0.79071 0.71096 0.86143 0.0
H1748 H 0.77413 0.67147 0.88885 0.0
H1749 H 0.77281 0.6675 0.91336 0.0
C1750 C 0.96856 0.97038 0.37224 0.0
C1751 C 0.97786 0.98566 0.38212 0.0
C1752 C 0.9647 1.00832 0.35871 0.0
C1753 C 0.95405 0.99327 0.34989 0.0
N1754 N 0.94376 0.9604 0.34975 0.0
N1755 N 0.98306 0.01947 0.38628 0.0
C1756 C 0.95545 0.9744 0.35706 0.0
C1757 C 0.97549 1.00472 0.37572 0.0
N1758 N 0.97269 0.95195 0.37704 0.0
N1759 N 0.96487 0.02597 0.35051 0.0
H1760 H 0.99127 0.01737 0.39857 0.0
H1761 H 0.98008 0.03378 0.38371 0.0
H1762 H 0.95696 0.02917 0.33827 0.0
H1763 H 0.97394 0.03702 0.35491 0.0
H1764 H 0.96812 0.94012 0.36911 0.0
H1765 H 0.98209 0.94844 0.3881 0.0
H1766 H 0.9424 0.94691 0.35574 0.0
H1767 H 0.93419 0.9627 0.3385 0.0
C1768 C 0.23932 0.20698 0.63523 0.0
C1769 C 0.23667 0.22692 0.63253 0.0
C1770 C 0.24047 0.22214 0.59773 0.0
C1771 C 0.24457 0.20247 0.60059 0.0
N1772 N 0.25136 0.1769 0.62239 0.0
N1773 N 0.23815 0.25402 0.61162 0.0
C1774 C 0.24499 0.19511 0.61946 0.0
C1775 C 0.23825 0.23464 0.61387 0.0
N1776 N 0.2357 0.19922 0.65274 0.0
N1777 N 0.23792 0.22877 0.57958 0.0
H1778 H 0.23658 0.26358 0.62306 0.0
H1779 H 0.24131 0.26065 0.59873 0.0
H1780 H 0.23933 0.22011 0.56742 0.0
H1781 H 0.23281 0.2424 0.57659 0.0
H1782 H 0.23521 0.18456 0.65511 0.0
H1783 H 0.23157 0.20736 0.66462 0.0
H1784 H 0.25401 0.17136 0.63591 0.0
H1785 H 0.25565 0.16781 0.61126 0.0
C1786 C 0.46057 0.54779 0.64614 0.0
C1787 C 0.47732 0.53657 0.64282 0.0
C1788 C 0.46863 0.51638 0.67022 0.0
C1789 C 0.4529 0.52867 0.67456 0.0
N1790 N 0.43564 0.55784 0.66843 0.0
N1791 N 0.49886 0.51181 0.65325 0.0
C1792 C 0.44934 0.54486 0.66298 0.0
C1793 C 0.48177 0.52128 0.65529 0.0
N1794 N 0.455 0.56087 0.63285 0.0
N1795 N 0.47069 0.49969 0.68 0.0
H1796 H 0.50873 0.51488 0.64246 0.0
H1797 H 0.50399 0.50198 0.6631 0.0
H1798 H 0.46145 0.49568 0.69102 0.0
H1799 H 0.48054 0.4891 0.6762 0.0
H1800 H 0.44185 0.56799 0.63333 0.0
H1801 H 0.46278 0.56344 0.62037 0.0
H1802 H 0.43382 0.571 0.66186 0.0
H1803 H 0.42711 0.5562 0.68059 0.0
C1804 C 0.78595 0.28682 0.61319 0.0
C1805 C 0.7824 0.29313 0.63228 0.0
C1806 C 0.77322 0.3248 0.62012 0.0
C1807 C 0.77817 0.31892 0.60121 0.0
N1808 N 0.79297 0.29551 0.58039 0.0
N1809 N 0.77617 0.31915 0.65423 0.0
C1810 C 0.78562 0.30025 0.59795 0.0
C1811 C 0.77707 0.31245 0.63582 0.0
N1812 N 0.78886 0.26783 0.60947 0.0
N1813 N 0.7641 0.34188 0.62304 0.0
H1814 H 0.77898 0.31059 0.66603 0.0
H1815 H 0.77439 0.33354 0.65775 0.0
H1816 H 0.7609 0.35125 0.61198 0.0
H1817 H 0.75821 0.34604 0.63614 0.0
H1818 H 0.78932 0.26205 0.59569 0.0
H1819 H 0.78916 0.25754 0.62014 0.0
H1820 H 0.80046 0.28289 0.57766 0.0
H1821 H 0.79317 0.30496 0.56895 0.0
C1822 C 0.55048 1.00525 0.64829 0.0
C1823 C 0.54774 0.98625 0.64143 0.0
C1824 C 0.57025 0.97453 0.66594 0.0
C1825 C 0.57207 0.99336 0.67353 0.0
N1826 N 0.56199 0.02627 0.67376 0.0
N1827 N 0.55256 0.95245 0.64543 0.0
C1828 C 0.56161 1.00862 0.66521 0.0
C1829 C 0.55695 0.97079 0.65076 0.0
N1830 N 0.54291 0.02013 0.63826 0.0
N1831 N 0.58165 0.96029 0.67293 0.0
H1832 H 0.54308 0.94915 0.6343 0.0
H1833 H 0.55705 0.94049 0.65293 0.0
H1834 H 0.59121 0.96237 0.68427 0.0
H1835 H 0.58273 0.94679 0.66664 0.0
H1836 H 0.5461 0.03441 0.64113 0.0
H1837 H 0.5344 0.01819 0.62609 0.0
H1838 H 0.55309 0.0375 0.66978 0.0
H1839 H 0.57028 0.02934 0.68586 0.0
C1840 C 0.91437 0.25072 0.78477 0.0
C1841 C 0.90056 0.23572 0.78636 0.0
C1842 C 0.91742 0.22487 0.81528 0.0
C1843 C 0.92863 0.24183 0.81566 0.0
N1844 N 0.93781 0.27124 0.80046 0.0
N1845 N 0.90239 0.20227 0.79397 0.0
C1846 C 0.92715 0.25484 0.80028 0.0
C1847 C 0.90541 0.22083 0.79921 0.0
N1848 N 0.91723 0.25905 0.76743 0.0
N1849 N 0.9183 0.21242 0.83015 0.0
H1850 H 0.8994 0.19857 0.77978 0.0
H1851 H 0.90675 0.19076 0.80227 0.0
H1852 H 0.92711 0.21469 0.84206 0.0
H1853 H 0.90906 0.20072 0.83122 0.0
H1854 H 0.92825 0.26877 0.76475 0.0
H1855 H 0.91024 0.25415 0.7551 0.0
H1856 H 0.93566 0.28224 0.79076 0.0
H1857 H 0.94782 0.27447 0.81114 0.0
C1858 C 0.50246 0.86735 0.48221 0.0
C1859 C 0.48706 0.87996 0.47792 0.0
C1860 C 0.47829 0.85956 0.45028 0.0
C1861 C 0.49462 0.84784 0.45366 0.0
N1862 N 0.52399 0.84224 0.47106 0.0
N1863 N 0.46232 0.88993 0.45599 0.0
C1864 C 0.50719 0.8522 0.46916 0.0
C1865 C 0.47553 0.87656 0.46142 0.0
N1866 N 0.51221 0.86949 0.49909 0.0
N1867 N 0.46504 0.85412 0.43682 0.0
H1868 H 0.45987 0.90253 0.4637 0.0
H1869 H 0.45498 0.88937 0.443 0.0
H1870 H 0.46656 0.84185 0.42836 0.0
H1871 H 0.45178 0.86081 0.43513 0.0
H1872 H 0.52213 0.85959 0.5041 0.0
H1873 H 0.50926 0.88044 0.50889 0.0
H1874 H 0.53479 0.84602 0.48071 0.0
H1875 H 0.52789 0.83105 0.46187 0.0
C1876 C 0.13538 0.28108 0.81685 0.0
C1877 C 0.13221 0.28515 0.7972 0.0
C1878 C 0.09719 0.28218 0.8023 0.0
C1879 C 0.10046 0.27689 0.82161 0.0
N1880 N 0.1227 0.26828 0.84651 0.0
N1881 N 0.11042 0.28649 0.77044 0.0
C1882 C 0.11959 0.27545 0.82865 0.0
C1883 C 0.11317 0.28482 0.78972 0.0
N1884 N 0.15339 0.28332 0.82444 0.0
N1885 N 0.07878 0.28529 0.79614 0.0
H1886 H 0.12174 0.28844 0.76083 0.0
H1887 H 0.09719 0.28434 0.76375 0.0
H1888 H 0.06674 0.28325 0.80481 0.0
H1889 H 0.07547 0.29127 0.78297 0.0
H1890 H 0.1563 0.28272 0.83903 0.0
H1891 H 0.16531 0.28727 0.8163 0.0
H1892 H 0.13629 0.26483 0.85172 0.0
H1893 H 0.11154 0.26432 0.85563 0.0
C1894 C 0.52165 0.6538 0.48204 0.0
C1895 C 0.53731 0.64126 0.47822 0.0
C1896 C 0.54666 0.66112 0.45079 0.0
C1897 C 0.53015 0.67278 0.4537 0.0
N1898 N 0.50025 0.6785 0.47027 0.0
N1899 N 0.5628 0.63107 0.45704 0.0
C1900 C 0.51717 0.66863 0.46885 0.0
C1901 C 0.54929 0.64441 0.46204 0.0
N1902 N 0.51142 0.6519 0.49862 0.0
N1903 N 0.56021 0.66638 0.43766 0.0
H1904 H 0.56518 0.61869 0.46487 0.0
H1905 H 0.57051 0.6314 0.44427 0.0
H1906 H 0.55879 0.67842 0.4291 0.0
H1907 H 0.57359 0.65978 0.43634 0.0
H1908 H 0.50125 0.6618 0.50334 0.0
H1909 H 0.51416 0.64117 0.5085 0.0
H1910 H 0.4892 0.67484 0.47962 0.0
H1911 H 0.49653 0.68947 0.46099 0.0
C1912 C 0.9122 0.76583 0.73791 0.0
C1913 C 0.90127 0.78302 0.73934 0.0
C1914 C 0.92133 0.79643 0.71367 0.0
C1915 C 0.92932 0.77814 0.70981 0.0
N1916 N 0.93202 0.74495 0.71829 0.0
N1917 N 0.90919 0.81654 0.73896 0.0
C1918 C 0.92468 0.76271 0.72198 0.0
C1919 C 0.90931 0.79917 0.73001 0.0
N1920 N 0.91307 0.75392 0.75324 0.0
N1921 N 0.92536 0.81137 0.70192 0.0
H1922 H 0.90579 0.81782 0.75347 0.0
H1923 H 0.916 0.82856 0.73344 0.0
H1924 H 0.9344 0.81007 0.69005 0.0
H1925 H 0.91843 0.82453 0.7032 0.0
H1926 H 0.92216 0.74212 0.75384 0.0
H1927 H 0.90677 0.75754 0.76635 0.0
H1928 H 0.92742 0.7328 0.72548 0.0
H1929 H 0.94154 0.74214 0.70706 0.0
C1930 C 0.02173 0.86825 0.54262 0.0
C1931 C 0.03739 0.88079 0.54651 0.0
C1932 C 0.04658 0.86092 0.57397 0.0
C1933 C 0.03005 0.84929 0.57101 0.0
N1934 N 1.0002 0.84359 0.55433 0.0
N1935 N 0.06277 0.89099 0.56781 0.0
C1936 C 0.01715 0.85343 0.55581 0.0
C1937 C 0.04928 0.87764 0.56274 0.0
N1938 N 0.0116 0.87011 0.52598 0.0
N1939 N 0.06009 0.85565 0.58713 0.0
H1940 H 0.06519 0.90338 0.56001 0.0
H1941 H 0.07042 0.89065 0.58062 0.0
H1942 H 0.05863 0.84359 0.59566 0.0
H1943 H 0.07347 0.86224 0.58848 0.0
H1944 H 1.00144 0.8602 0.52122 0.0
H1945 H 0.01443 0.88081 0.51609 0.0
H1946 H 0.98921 0.84727 0.54493 0.0
H1947 H 0.99641 0.83265 0.56363 0.0
C1948 C 0.129 0.75793 0.72226 0.0
C1949 C 0.13883 0.7401 0.72123 0.0
C1950 C 0.11633 0.73014 0.69564 0.0
C1951 C 0.10427 0.74598 0.69992 0.0
N1952 N 0.09913 0.77516 0.71789 0.0
N1953 N 0.14883 0.71794 0.69657 0.0
C1954 C 0.11054 0.75985 0.71352 0.0
C1955 C 0.13452 0.72847 0.70493 0.0
N1956 N 0.13882 0.77399 0.72755 0.0
N1957 N 0.1103 0.71638 0.68301 0.0
H1958 H 0.16308 0.71889 0.70122 0.0
H1959 H 0.14715 0.71059 0.68364 0.0
H1960 H 0.09714 0.71708 0.67583 0.0
H1961 H 0.11765 0.70354 0.68094 0.0
H1962 H 0.13279 0.78762 0.72736 0.0
H1963 H 0.15383 0.77406 0.72818 0.0
H1964 H 0.10231 0.78462 0.72908 0.0
H1965 H 0.08589 0.77755 0.71129 0.0
C1966 C 1.00201 0.655 0.54308 0.0
C1967 C 0.98658 0.64236 0.54726 0.0
C1968 C 0.9777 0.66266 0.57493 0.0
C1969 C 0.99404 0.67441 0.57165 0.0
N1970 N 0.0235 0.6801 0.5544 0.0
N1971 N 0.96173 0.6323 0.56905 0.0
C1972 C 1.00668 0.67011 0.55619 0.0
C1973 C 0.97497 0.64569 0.56373 0.0
N1974 N 0.01183 0.65292 0.52623 0.0
N1975 N 0.96441 0.66804 0.58837 0.0
H1976 H 0.9593 0.61973 0.56128 0.0
H1977 H 0.95433 0.63281 0.582 0.0
H1978 H 0.96591 0.68027 0.59689 0.0
H1979 H 0.95113 0.66133 0.58999 0.0
H1980 H 0.02178 0.66285 0.52129 0.0
H1981 H 1.00892 0.642 0.51638 0.0
H1982 H 0.03434 0.67636 0.54478 0.0
H1983 H 0.02735 0.69127 0.56363 0.0
C1984 C 0.81677 0.89345 0.22403 0.0
C1985 C 0.80406 0.88607 0.23818 0.0
C1986 C 0.8152 0.91147 0.26022 0.0
C1987 C 0.82465 0.92083 0.24495 0.0
N1988 N 0.83436 0.92063 0.21181 0.0
N1989 N 0.8067 0.8805 0.27205 0.0
C1990 C 0.82542 0.91177 0.2267 0.0
C1991 C 0.80719 0.89292 0.25719 0.0
N1992 N 0.82305 0.8817 0.20962 0.0
N1993 N 0.81398 0.92011 0.27778 0.0
H1994 H 0.80667 0.86576 0.26965 0.0
H1995 H 0.81019 0.88441 0.28606 0.0
H1996 H 0.81991 0.93353 0.2807 0.0
H1997 H 0.8057 0.91452 0.28885 0.0
H1998 H 0.83369 0.88556 0.19988 0.0
H1999 H 0.81964 0.86718 0.20924 0.0
H2000 H 0.83348 0.91561 0.19775 0.0
H2001 H 0.84142 0.93373 0.21328 0.0
C2002 C 0.81772 0.12966 0.29943 0.0
C2003 C 0.80381 0.13608 0.28594 0.0
C2004 C 0.81376 0.10979 0.26439 0.0
C2005 C 0.82454 0.1014 0.27936 0.0
N2006 N 0.83666 0.10341 0.31165 0.0
N2007 N 0.80365 0.13994 0.25172 0.0
C2008 C 0.82652 0.11139 0.29702 0.0
C2009 C 0.80559 0.12831 0.26711 0.0
N2010 N 0.82481 0.14222 0.31274 0.0
N2011 N 0.81147 0.10028 0.2474 0.0
H2012 H 0.80354 0.15477 0.25338 0.0
H2013 H 0.8061 0.13537 0.23768 0.0
H2014 H 0.81757 0.0869 0.24467 0.0
H2015 H 0.80225 0.10511 0.23672 0.0
H2016 H 0.83625 0.13905 0.32182 0.0
H2017 H 0.82108 0.15666 0.31271 0.0
H2018 H 0.83676 0.10914 0.32547 0.0
H2019 H 0.8437 0.09029 0.31034 0.0
C2020 C 0.37227 0.97875 1.00353 0.0
C2021 C 0.38406 0.97552 0.98719 0.0
C2022 C 0.36492 0.94686 0.97918 0.0
C2023 C 0.35212 0.95104 0.99453 0.0
N2024 N 0.34178 0.97282 0.01942 0.0
N2025 N 0.3895 0.95848 0.95752 0.0
C2026 C 0.35531 0.96751 1.0062 0.0
C2027 C 0.37978 0.96011 0.97447 0.0
N2028 N 0.37763 0.99215 0.01686 0.0
N2029 N 0.36333 0.92985 0.96951 0.0
H2030 H 0.40038 0.9679 0.9535 0.0
H2031 H 0.38564 0.94887 0.94671 0.0
H2032 H 0.35278 0.91973 0.97258 0.0
H2033 H 0.37347 0.92502 0.95961 0.0
H2034 H 0.3709 0.99375 0.03009 0.0
H2035 H 0.38986 1.00067 0.01538 0.0
H2036 H 0.34219 0.98574 0.02692 0.0
H2037 H 0.32918 0.96506 0.02174 0.0
C2038 C 0.21935 0.39196 0.26773 0.0
C2039 C 0.23241 0.3921 0.28339 0.0
C2040 C 0.21822 0.42239 0.29504 0.0
C2041 C 0.20618 0.42298 0.27858 0.0
N2042 N 0.19601 0.4092 0.24852 0.0
N2043 N 0.24549 0.40789 0.31125 0.0
C2044 C 0.20693 0.40796 0.26475 0.0
C2045 C 0.23209 0.40741 0.29691 0.0
N2046 N 0.21862 0.3763 0.25587 0.0
N2047 N 0.21622 0.43608 0.309 0.0
H2048 H 0.25528 0.39685 0.31352 0.0
H2049 H 0.24771 0.41959 0.32028 0.0
H2050 H 0.20693 0.4477 0.30774 0.0
H2051 H 0.22282 0.43543 0.32233 0.0
H2052 H 0.20814 0.37419 0.24542 0.0
H2053 H 0.22779 0.36462 0.2573 0.0
H2054 H 0.19744 0.40009 0.23676 0.0
H2055 H 0.18608 0.42013 0.24628 0.0
C2056 C 0.14853 0.05746 0.4717 0.0
C2057 C 0.14147 0.04563 0.48656 0.0
C2058 C 0.16761 0.05707 0.50764 0.0
C2059 C 0.17361 0.07009 0.49334 0.0
N2060 N 0.16825 0.08462 0.4627 0.0
N2061 N 0.14268 0.03583 0.51946 0.0
C2062 C 0.16365 0.07079 0.47561 0.0
C2063 C 0.15061 0.04586 0.50475 0.0
N2064 N 0.14114 0.05555 0.45365 0.0
N2065 N 0.17848 0.05506 0.5238 0.0
H2066 H 0.13047 0.02728 0.51781 0.0
H2067 H 0.14728 0.03703 0.5336 0.0
H2068 H 0.1908 0.06318 0.52652 0.0
H2069 H 0.17619 0.0444 0.53383 0.0
H2070 H 0.14702 0.06215 0.44171 0.0
H2071 H 0.13004 0.04606 0.45025 0.0
H2072 H 0.16016 0.08736 0.4505 0.0
H2073 H 0.17935 0.09444 0.46493 0.0
C2074 C 0.71691 0.12584 0.72883 0.0
C2075 C 0.73198 0.12915 0.74223 0.0
C2076 C 0.72199 0.10049 0.75989 0.0
C2077 C 0.70604 0.09803 0.74736 0.0
N2078 N 0.68651 0.11007 0.72169 0.0
N2079 N 0.74678 0.12164 0.77242 0.0
C2080 C 0.70301 0.1112 0.73231 0.0
C2081 C 0.73392 0.11702 0.7583 0.0
N2082 N 0.71626 0.13629 0.71243 0.0
N2083 N 0.72617 0.08666 0.77293 0.0
H2084 H 0.75574 0.13358 0.77182 0.0
H2085 H 0.74742 0.11464 0.78548 0.0
H2086 H 0.7178 0.07441 0.77459 0.0
H2087 H 0.73879 0.08649 0.78097 0.0
H2088 H 0.707 0.13323 0.70109 0.0
H2089 H 0.72605 0.14717 0.70947 0.0
H2090 H 0.68237 0.1204 0.71192 0.0
H2091 H 0.67609 0.09955 0.72378 0.0
C2092 C 0.37817 0.06103 0.5504 0.0
C2093 C 0.38352 0.04682 0.53672 0.0
C2094 C 0.35581 0.05591 0.51672 0.0
C2095 C 0.35149 0.07118 0.52959 0.0
N2096 N 0.3603 0.09014 0.5572 0.0
N2097 N 0.3791 0.03239 0.50559 0.0
C2098 C 0.36316 0.07424 0.54604 0.0
C2099 C 0.37276 0.0447 0.51953 0.0
N2100 N 0.38704 0.06153 0.56786 0.0
N2101 N 0.34336 0.05175 0.5021 0.0
H2102 H 0.39128 0.02384 0.50721 0.0
H2103 H 0.37323 0.03168 0.4919 0.0
H2104 H 0.33095 0.0597 0.49951 0.0
H2105 H 0.34446 0.03958 0.49349 0.0
H2106 H 0.38242 0.07008 0.57923 0.0
H2107 H 0.39807 0.05216 0.57158 0.0
H2108 H 0.36962 0.09438 0.56811 0.0
H2109 H 0.34943 0.10005 0.55456 0.0
C2110 C 0.65043 0.47608 0.51965 0.0
C2111 C 0.64148 0.47651 0.53794 0.0
C2112 C 0.66376 0.4515 0.54894 0.0
C2113 C 0.67355 0.45202 0.53109 0.0
N2114 N 0.67809 0.4667 0.5004 0.0
N2115 N 0.64149 0.46697 0.57097 0.0
C2116 C 0.6674 0.46486 0.51671 0.0
C2117 C 0.64869 0.46486 0.55286 0.0
N2118 N 0.64235 0.48595 0.50491 0.0
N2119 N 0.6685 0.43783 0.56194 0.0
H2120 H 0.63043 0.47648 0.57438 0.0
H2121 H 0.64749 0.46051 0.58291 0.0
H2122 H 0.67958 0.42799 0.55971 0.0
H2123 H 0.66053 0.43521 0.57426 0.0
H2124 H 0.6468 0.48459 0.49074 0.0
H2125 H 0.63015 0.4945 0.5066 0.0
H2126 H 0.67571 0.47725 0.49029 0.0
H2127 H 0.69039 0.45857 0.49765 0.0
C2128 C 0.73926 0.31481 0.38943 0.0
C2129 C 0.73677 0.29486 0.39215 0.0
C2130 C 0.74062 0.29968 0.42694 0.0
C2131 C 0.74457 0.31939 0.42406 0.0
N2132 N 0.75109 0.34501 0.40221 0.0
N2133 N 0.73848 0.26778 0.41308 0.0
C2134 C 0.74487 0.32674 0.40518 0.0
C2135 C 0.73845 0.28715 0.41081 0.0
N2136 N 0.73553 0.32253 0.37193 0.0
N2137 N 0.73819 0.29305 0.44511 0.0
H2138 H 0.73694 0.2582 0.40165 0.0
H2139 H 0.74173 0.26118 0.42596 0.0
H2140 H 0.73958 0.30173 0.45725 0.0
H2141 H 0.7332 0.27938 0.44812 0.0
H2142 H 0.73493 0.33718 0.36954 0.0
H2143 H 0.73145 0.31434 0.36006 0.0
H2144 H 0.75365 0.35057 0.38869 0.0
H2145 H 0.75533 0.35414 0.41333 0.0
C2146 C 0.56766 0.03354 0.8854 0.0
C2147 C 0.54759 0.0363 0.88252 0.0
C2148 C 0.55242 0.03292 0.84771 0.0
C2149 C 0.57221 0.02872 0.85071 0.0
N2150 N 0.59795 0.02162 0.87264 0.0
N2151 N 0.52029 0.03524 0.86127 0.0
C2152 C 0.57962 0.02805 0.86965 0.0
C2153 C 0.53981 0.035 0.86374 0.0
N2154 N 0.57548 0.03689 0.90307 0.0
N2155 N 0.54579 0.03566 0.82953 0.0
H2156 H 0.51064 0.03669 0.87264 0.0
H2157 H 0.5136 0.03231 0.84823 0.0
H2158 H 0.55452 0.03432 0.81745 0.0
H2159 H 0.53208 0.04083 0.82649 0.0
H2160 H 0.59025 0.03727 0.90562 0.0
H2161 H 0.56728 0.04089 0.91495 0.0
H2162 H 0.6035 0.0188 0.88616 0.0
H2163 H 0.60711 0.01748 0.86152 0.0
C2164 C 0.2858 0.23584 0.41164 0.0
C2165 C 0.2823 0.22961 0.39253 0.0
C2166 C 0.2732 0.19784 0.40454 0.0
C2167 C 0.27811 0.20366 0.42348 0.0
N2168 N 0.29277 0.22706 0.44443 0.0
N2169 N 0.27615 0.20366 0.37046 0.0
C2170 C 0.28549 0.22235 0.42683 0.0
C2171 C 0.27702 0.21028 0.3889 0.0
N2172 N 0.28868 0.25483 0.41544 0.0
N2173 N 0.26416 0.18072 0.40154 0.0
H2174 H 0.27892 0.21229 0.35869 0.0
H2175 H 0.27441 0.18928 0.36687 0.0
H2176 H 0.261 0.17128 0.41256 0.0
H2177 H 0.2583 0.17658 0.38843 0.0
H2178 H 0.2891 0.26056 0.42924 0.0
H2179 H 0.28899 0.26516 0.4048 0.0
H2180 H 0.30022 0.2397 0.44723 0.0
H2181 H 0.29297 0.21756 0.45583 0.0
C2182 C 0.47482 0.50439 0.87546 0.0
C2183 C 0.47709 0.48533 0.8819 0.0
C2184 C 0.45452 0.47413 0.85696 0.0
C2185 C 0.45321 0.49299 0.84975 0.0
N2186 N 0.46423 0.52562 0.85022 0.0
N2187 N 0.47172 0.45163 0.87693 0.0
C2188 C 0.46398 0.508 0.85847 0.0
C2189 C 0.46767 0.47008 0.8721 0.0
N2190 N 0.4825 0.51912 0.88594 0.0
N2191 N 0.44271 0.46017 0.84975 0.0
H2192 H 0.48115 0.44811 0.88796 0.0
H2193 H 0.46705 0.43981 0.86905 0.0
H2194 H 0.4331 0.4625 0.83854 0.0
H2195 H 0.44131 0.44671 0.85579 0.0
H2196 H 0.4796 0.53345 0.88334 0.0
H2197 H 0.49075 0.51701 0.89821 0.0
H2198 H 0.47338 0.53663 0.85454 0.0
H2199 H 0.4563 0.52883 0.83799 0.0
C2200 C 0.72299 0.71335 0.12578 0.0
C2201 C 0.73708 0.72683 0.13191 0.0
C2202 C 0.7577 0.71733 0.10471 0.0
C2203 C 0.74437 0.70271 0.09963 0.0
N2204 N 0.71572 0.68482 0.10708 0.0
N2205 N 0.76897 0.73998 0.12882 0.0
C2206 C 0.72738 0.70019 0.11065 0.0
C2207 C 0.75475 0.72838 0.12178 0.0
N2208 N 0.70514 0.71351 0.13403 0.0
N2209 N 0.77292 0.72101 0.09289 0.0
H2210 H 0.76726 0.7484 0.14111 0.0
H2211 H 0.78293 0.7402 0.12339 0.0
H2212 H 0.77562 0.71314 0.08042 0.0
H2213 H 0.78199 0.73275 0.09458 0.0
H2214 H 0.69356 0.70555 0.12884 0.0
H2215 H 0.70136 0.72288 0.14511 0.0
H2216 H 0.70434 0.68092 0.11592 0.0
H2217 H 0.71838 0.67493 0.09612 0.0
C2218 C 0.9693 0.05157 0.15231 0.0
C2219 C 0.97847 0.03622 0.14245 0.0
C2220 C 0.96497 0.01367 0.1658 0.0
C2221 C 0.95445 0.02881 0.17459 0.0
N2222 N 0.94451 0.06178 0.17471 0.0
N2223 N 0.98329 1.00236 0.13828 0.0
C2224 C 0.95608 0.04767 0.16744 0.0
C2225 C 0.97586 0.01717 0.14882 0.0
N2226 N 0.97366 0.06997 0.14755 0.0
N2227 N 0.96492 0.99601 0.17399 0.0
H2228 H 0.99157 1.00439 0.12601 0.0
H2229 H 0.98014 0.98807 0.14083 0.0
H2230 H 0.95693 0.99288 0.1862 0.0
H2231 H 0.97388 0.98488 0.16962 0.0
H2232 H 0.96919 0.08183 0.15547 0.0
H2233 H 0.98315 0.0734 0.13653 0.0
H2234 H 0.94333 0.07528 0.16872 0.0
H2235 H 0.93486 0.05956 0.18591 0.0
C2236 C 0.29231 0.80882 0.1309 0.0
C2237 C 0.28235 0.79106 0.13063 0.0
C2238 C 0.26694 0.79986 0.10016 0.0
C2239 C 0.27795 0.81697 0.09974 0.0
N2240 N 0.3031 0.8366 0.11323 0.0
N2241 N 0.26257 0.76828 0.11358 0.0
C2242 C 0.2912 0.82112 0.11472 0.0
C2243 C 0.27032 0.78621 0.11485 0.0
N2244 N 0.30234 0.8142 0.1469 0.0
N2245 N 0.25283 0.7969 0.08681 0.0
H2246 H 0.26465 0.75794 0.12402 0.0
H2247 H 0.25545 0.76307 0.10151 0.0
H2248 H 0.25011 0.8064 0.07573 0.0
H2249 H 0.24281 0.78587 0.08754 0.0
H2250 H 0.30814 0.82778 0.14895 0.0
H2251 H 0.30365 0.80551 0.15886 0.0
H2252 H 0.31454 0.83931 0.1225 0.0
H2253 H 0.30249 0.84606 0.10181 0.0
C2254 C 0.04658 0.50306 0.15148 0.0
C2255 C 0.04738 0.48518 0.1417 0.0
C2256 C 0.07362 0.47502 0.16306 0.0
C2257 C 0.07181 0.49231 0.17374 0.0
N2258 N 0.05454 0.52155 0.18003 0.0
N2259 N 0.05932 0.45287 0.14016 0.0
C2260 C 0.05771 0.50599 0.16847 0.0
C2261 C 0.06026 0.4708 0.14807 0.0
N2262 N 0.03563 0.51748 0.14418 0.0
N2263 N 0.08854 0.46288 0.16681 0.0
H2264 H 0.04979 0.44923 0.12918 0.0
H2265 H 0.06676 0.4412 0.14555 0.0
H2266 H 0.09855 0.46541 0.17767 0.0
H2267 H 0.09198 0.45115 0.15819 0.0
H2268 H 0.03606 0.53148 0.14933 0.0
H2269 H 0.02717 0.51581 0.13195 0.0
H2270 H 0.04311 0.53097 0.17819 0.0
H2271 H 0.06244 0.52422 0.19247 0.0
C2272 C 0.40215 0.75823 0.29689 0.0
C2273 C 0.39446 0.73975 0.29307 0.0
C2274 C 0.4165 0.72618 0.31702 0.0
C2275 C 0.42533 0.74436 0.31955 0.0
N2276 N 0.42822 0.77729 0.3103 0.0
N2277 N 0.39563 0.70574 0.29777 0.0
C2278 C 0.41857 0.76029 0.30906 0.0
C2279 C 0.40196 0.72361 0.30273 0.0
N2280 N 0.3934 0.77391 0.28929 0.0
N2281 N 0.42172 0.71145 0.32862 0.0
H2282 H 0.38483 0.70335 0.28765 0.0
H2283 H 0.40195 0.69321 0.30262 0.0
H2284 H 0.43249 0.71273 0.33896 0.0
H2285 H 0.41448 0.69845 0.32905 0.0
H2286 H 0.39689 0.7879 0.29312 0.0
H2287 H 0.38147 0.77298 0.28025 0.0
H2288 H 0.42551 0.78882 0.30141 0.0
H2289 H 0.44001 0.77947 0.31931 0.0
C2290 C 0.97313 0.37538 0.96241 0.0
C2291 C 0.9859 0.37984 0.97772 0.0
C2292 C 1.00685 0.35314 0.96764 0.0
C2293 C 0.99317 0.34764 0.95348 0.0
N2294 N 0.96172 0.35167 0.93949 0.0
N2295 N 0.01345 0.3713 0.99674 0.0
C2296 C 0.97588 0.35827 0.95144 0.0
C2297 C 1.00238 0.36825 0.98083 0.0
N2298 N 0.95872 0.38784 0.9579 0.0
N2299 N 0.0244 0.34433 0.96811 0.0
H2300 H 1.01069 0.38223 1.00662 0.0
H2301 H 0.02438 0.36209 1.00099 0.0
H2302 H 0.02819 0.33327 0.95873 0.0
H2303 H 0.03577 0.34901 0.97666 0.0
H2304 H 0.95029 0.38651 0.94564 0.0
H2305 H 0.95625 0.4005 0.96551 0.0
H2306 H 0.94797 0.35755 0.93896 0.0
H2307 H 0.96314 0.33923 0.93126 0.0
C2308 C 0.62554 0.76683 0.29851 0.0
C2309 C 0.63273 0.78578 0.29699 0.0
C2310 C 0.60862 0.79677 0.32056 0.0
C2311 C 0.60065 0.77809 0.32114 0.0
N2312 N 0.59966 0.74587 0.30877 0.0
N2313 N 0.62927 0.81935 0.30415 0.0
C2314 C 0.6086 0.76327 0.30955 0.0
C2315 C 0.62373 0.80091 0.30736 0.0
N2316 N 0.63531 0.75214 0.28988 0.0
N2317 N 0.60208 0.81047 0.33305 0.0
H2318 H 0.64031 0.82293 0.29472 0.0
H2319 H 0.62196 0.8312 0.30958 0.0
H2320 H 0.59083 0.80811 0.34264 0.0
H2321 H 0.6087 0.8237 0.33498 0.0
H2322 H 0.6322 0.73779 0.29211 0.0
H2323 H 0.64753 0.75424 0.28147 0.0
H2324 H 0.60334 0.73509 0.29908 0.0
H2325 H 0.58752 0.74264 0.31692 0.0
C2326 C 0.02943 0.1561 0.98564 0.0
C2327 C 0.03876 0.13953 0.97824 0.0
C2328 C 0.04139 0.15486 0.94671 0.0
C2329 C 0.03107 0.17096 0.95381 0.0
N2330 N 0.01292 0.18599 0.97917 0.0
N2331 N 0.05105 0.12182 0.95115 0.0
C2332 C 0.02441 0.17129 0.97305 0.0
C2333 C 0.04403 0.13857 0.95859 0.0
N2334 N 0.02595 0.15758 1.00485 0.0
N2335 N 0.04907 0.15533 0.9287 0.0
H2336 H 0.05332 0.10969 0.95939 0.0
H2337 H 0.05321 0.11938 0.93659 0.0
H2338 H 0.04696 0.16671 0.91941 0.0
H2339 H 0.05862 0.14513 0.92338 0.0
H2340 H 0.02122 0.17005 0.01158 0.0
H2341 H 0.02911 0.14667 0.0144 0.0
H2342 H 1.00575 0.18612 0.99225 0.0
H2343 H 1.00939 0.19755 0.97055 0.0
C2344 C 0.41311 0.26685 0.23879 0.0
C2345 C 0.40124 0.28346 0.23916 0.0
C2346 C 0.4204 0.29619 0.21246 0.0
C2347 C 0.42936 0.27814 0.20977 0.0
N2348 N 0.43382 0.24577 0.22035 0.0
N2349 N 0.40724 0.31724 0.23647 0.0
C2350 C 0.42563 0.26334 0.22298 0.0
C2351 C 0.40831 0.29935 0.22869 0.0
N2352 N 0.41472 0.25607 0.25488 0.0
N2353 N 0.4236 0.31051 0.19975 0.0
H2354 H 0.40384 0.3193 0.25089 0.0
H2355 H 0.41333 0.32921 0.2301 0.0
H2356 H 0.43274 0.30897 0.18798 0.0
H2357 H 0.41596 0.32333 0.20019 0.0
H2358 H 0.42448 0.24485 0.25618 0.0
H2359 H 0.4083 0.26019 0.26778 0.0
H2360 H 0.42994 0.23392 0.2284 0.0
H2361 H 0.44329 0.24269 0.20915 0.0
C2362 C 0.52137 0.36766 0.04239 0.0
C2363 C 0.53703 0.38022 0.04618 0.0
C2364 C 0.54633 0.36045 0.07369 0.0
C2365 C 0.52979 0.3488 0.07081 0.0
N2366 N 0.49989 0.34303 0.05425 0.0
N2367 N 0.56249 0.3905 0.06737 0.0
C2368 C 0.51684 0.35289 0.05564 0.0
C2369 C 0.54898 0.37713 0.06239 0.0
N2370 N 0.51117 0.36947 0.02578 0.0
N2371 N 0.55988 0.35523 0.08682 0.0
H2372 H 0.56487 0.40287 0.05951 0.0
H2373 H 0.57018 0.39021 0.08015 0.0
H2374 H 0.55846 0.3432 0.0954 0.0
H2375 H 0.57326 0.36184 0.08811 0.0
H2376 H 0.501 0.35954 0.02109 0.0
H2377 H 0.51396 0.38015 0.01585 0.0
H2378 H 0.48887 0.34667 0.04487 0.0
H2379 H 0.49614 0.33212 0.06359 0.0
C2380 C 0.62955 0.25765 0.22163 0.0
C2381 C 0.63925 0.23974 0.22066 0.0
C2382 C 0.6165 0.22975 0.19531 0.0
C2383 C 0.60458 0.24569 0.19957 0.0
N2384 N 0.59976 0.27503 0.21736 0.0
N2385 N 0.64893 0.21738 0.19606 0.0
C2386 C 0.61104 0.25963 0.21302 0.0
C2387 C 0.63474 0.22803 0.20447 0.0
N2388 N 0.63952 0.27368 0.22674 0.0
N2389 N 0.61029 0.21595 0.1828 0.0
H2390 H 0.66323 0.21829 0.20059 0.0
H2391 H 0.6471 0.20995 0.18319 0.0
H2392 H 0.59709 0.21669 0.17571 0.0
H2393 H 0.61754 0.20305 0.18077 0.0
H2394 H 0.63358 0.28735 0.22647 0.0
H2395 H 0.65453 0.27364 0.22731 0.0
H2396 H 0.60309 0.28456 0.22845 0.0
H2397 H 0.58647 0.27745 0.21086 0.0
C2398 C 0.47543 0.14531 0.06366 0.0
C2399 C 0.48715 0.14198 0.04727 0.0
C2400 C 0.5072 0.16972 0.05634 0.0
C2401 C 0.49445 0.17402 0.07172 0.0
N2402 N 0.46472 0.16763 0.08826 0.0
N2403 N 0.51257 0.15252 0.02643 0.0
C2404 C 0.47809 0.16226 0.07489 0.0
C2405 C 0.50262 0.15461 0.0432 0.0
N2406 N 0.46213 0.13192 0.06887 0.0
N2407 N 0.52402 0.17972 0.05466 0.0
H2408 H 0.50974 0.14159 0.01657 0.0
H2409 H 0.52256 0.16244 0.02155 0.0
H2410 H 0.52781 0.19089 0.06391 0.0
H2411 H 0.53493 0.17599 0.04511 0.0
H2412 H 0.45464 0.13242 0.08177 0.0
H2413 H 0.45974 0.11936 0.06106 0.0
H2414 H 0.45143 0.16092 0.08979 0.0
H2415 H 0.46617 0.17985 0.0968 0.0
C2416 C 0.30172 0.39545 0.75909 0.0
C2417 C 0.30255 0.38536 0.74132 0.0
C2418 C 0.32762 0.408 0.73081 0.0
C2419 C 0.32343 0.42018 0.74662 0.0
N2420 N 0.30585 0.42556 0.77597 0.0
N2421 N 0.32694 0.37554 0.71877 0.0
C2422 C 0.31016 0.41399 0.76072 0.0
C2423 C 0.31857 0.38975 0.72939 0.0
N2424 N 0.29702 0.38594 0.77534 0.0
N2425 N 0.33995 0.41395 0.71686 0.0
H2426 H 0.32252 0.36133 0.71984 0.0
H2427 H 0.33973 0.37731 0.7112 0.0
H2428 H 0.34696 0.42713 0.7174 0.0
H2429 H 0.34189 0.40647 0.70403 0.0
H2430 H 0.29736 0.39224 0.78892 0.0
H2431 H 0.29683 0.37104 0.77559 0.0
H2432 H 0.29488 0.42236 0.78561 0.0
H2433 H 0.31223 0.43891 0.77811 0.0
C2434 C 0.31693 0.62954 0.7997 0.0
C2435 C 0.30294 0.63595 0.78629 0.0
C2436 C 0.31271 0.60959 0.76474 0.0
C2437 C 0.32358 0.60122 0.77967 0.0
N2438 N 0.3359 0.60329 0.81187 0.0
N2439 N 0.30258 0.63972 0.75205 0.0
C2440 C 0.32568 0.61125 0.79729 0.0
C2441 C 0.30459 0.62813 0.76746 0.0
N2442 N 0.32411 0.64212 0.81295 0.0
N2443 N 0.3103 0.60003 0.74779 0.0
H2444 H 0.30252 0.65455 0.75367 0.0
H2445 H 0.30491 0.63511 0.73801 0.0
H2446 H 0.31636 0.58664 0.74505 0.0
H2447 H 0.30101 0.60485 0.73715 0.0
H2448 H 0.3356 0.63895 0.82197 0.0
H2449 H 0.32038 0.65656 0.81292 0.0
H2450 H 0.33611 0.60906 0.82568 0.0
H2451 H 0.34291 0.59016 0.81056 0.0
C2452 C 0.87243 0.4777 0.50497 0.0
C2453 C 0.88336 0.47547 0.4879 0.0
C2454 C 0.8632 0.44787 0.47865 0.0
C2455 C 0.85135 0.45104 0.49495 0.0
N2456 N 0.84288 0.47069 0.52218 0.0
N2457 N 0.88725 0.46047 0.45694 0.0
C2458 C 0.85548 0.46645 0.50772 0.0
C2459 C 0.8782 0.4611 0.47431 0.0
N2460 N 0.8786 0.49017 0.51885 0.0
N2461 N 0.8605 0.43184 0.46763 0.0
H2462 H 0.89828 0.46985 0.45322 0.0
H2463 H 0.88277 0.45178 0.44561 0.0
H2464 H 0.84964 0.4219 0.47027 0.0
H2465 H 0.86995 0.42753 0.45686 0.0
H2466 H 0.87259 0.49098 0.53248 0.0
H2467 H 0.89078 0.49875 0.51727 0.0
H2468 H 0.84386 0.48295 0.53068 0.0
H2469 H 0.83047 0.46271 0.52473 0.0
C2470 C 0.73257 0.90314 0.76658 0.0
C2471 C 0.73213 0.89222 0.78362 0.0
C2472 C 0.7043 0.91109 0.7949 0.0
C2473 C 0.7059 0.92309 0.77868 0.0
N2474 N 0.72351 0.93241 0.75056 0.0
N2475 N 0.71935 0.88744 0.81525 0.0
C2476 C 0.72058 0.9196 0.76491 0.0
C2477 C 0.71844 0.89664 0.79812 0.0
N2478 N 0.74404 0.89742 0.75169 0.0
N2479 N 0.68889 0.91312 0.80692 0.0
H2480 H 0.72935 0.87672 0.81806 0.0
H2481 H 0.71125 0.89142 0.82718 0.0
H2482 H 0.67833 0.92352 0.80507 0.0
H2483 H 0.68569 0.90355 0.81778 0.0
H2484 H 0.74346 0.90345 0.73815 0.0
H2485 H 0.753 0.88548 0.75233 0.0
H2486 H 0.73528 0.93187 0.74134 0.0
H2487 H 0.71508 0.94459 0.74884 0.0
C2488 C 0.6545 0.54051 1.00076 0.0
C2489 C 0.64113 0.54496 0.98607 0.0
C2490 C 0.65904 0.57463 0.9796 0.0
C2491 C 0.67332 0.56934 0.99311 0.0
N2492 N 0.68629 0.54567 0.01434 0.0
N2493 N 0.63257 0.56455 0.95919 0.0
C2494 C 0.67148 0.55183 1.00309 0.0
C2495 C 0.64395 0.56156 0.97484 0.0
N2496 N 0.65064 0.52581 0.0129 0.0
N2497 N 0.65951 0.59245 0.97179 0.0
H2498 H 0.62144 0.55533 0.95519 0.0
H2499 H 0.63522 0.57518 0.94922 0.0
H2500 H 0.67022 0.60244 0.97495 0.0
H2501 H 0.6484 0.59796 0.9635 0.0
H2502 H 0.65865 0.52314 0.02518 0.0
H2503 H 0.63844 0.5172 0.0116 0.0
H2504 H 0.68678 0.53213 0.02034 0.0
H2505 H 0.69893 0.55349 0.01636 0.0
C2506 C 0.21844 0.62356 0.22769 0.0
C2507 C 0.2324 0.62796 0.24194 0.0
C2508 C 0.22117 0.60055 0.26084 0.0
C2509 C 0.20634 0.59701 0.24727 0.0
N2510 N 0.18887 0.60687 0.21928 0.0
N2511 N 0.24496 0.62271 0.2736 0.0
C2512 C 0.20442 0.60902 0.2311 0.0
C2513 C 0.23317 0.61701 0.25896 0.0
N2514 N 0.21897 0.63288 0.2106 0.0
N2515 N 0.22422 0.58783 0.27524 0.0
H2516 H 0.25396 0.63461 0.27277 0.0
H2517 H 0.24468 0.61667 0.28715 0.0
H2518 H 0.21568 0.57573 0.2772 0.0
H2519 H 0.2361 0.58836 0.28431 0.0
H2520 H 0.21066 0.62895 0.19881 0.0
H2521 H 0.22885 0.6437 0.20768 0.0
H2522 H 0.18543 0.61641 0.20849 0.0
H2523 H 0.17844 0.59633 0.22124 0.0
C2524 C 0.87301 0.5548 0.05208 0.0
C2525 C 0.88295 0.54597 0.03656 0.0
C2526 C 0.85982 0.56016 0.014 0.0
C2527 C 0.85086 0.57018 0.02939 0.0
N2528 N 0.8501 0.57888 0.06282 0.0
N2529 N 0.88733 0.54179 1.0026 0.0
C2530 C 0.85779 0.56798 0.04837 0.0
C2531 C 0.87672 0.54904 0.01747 0.0
N2532 N 0.8778 0.55014 0.07043 0.0
N2533 N 0.85192 0.56098 0.99611 0.0
H2534 H 0.89947 0.53327 1.0046 0.0
H2535 H 0.88496 0.54521 0.98834 0.0
H2536 H 0.83993 0.56935 0.99297 0.0
H2537 H 0.85634 0.55241 0.98468 0.0
H2538 H 0.86985 0.55434 0.08237 0.0
H2539 H 0.88897 0.54077 0.0737 0.0
H2540 H 0.85589 0.5797 0.07654 0.0
H2541 H 0.83864 0.58826 0.06077 0.0
C2542 C 0.14886 0.97219 0.01927 0.0
C2543 C 0.14249 0.97572 0.03831 0.0
C2544 C 0.1677 0.95417 0.0504 0.0
C2545 C 0.17476 0.9515 0.03147 0.0
N2546 N 0.17391 0.95989 0.99816 0.0
N2547 N 0.14747 0.9725 0.07223 0.0
C2548 C 0.16585 0.96109 0.01598 0.0
C2549 C 0.15239 0.96738 0.05394 0.0
N2550 N 0.13831 0.97898 1.0043 0.0
N2551 N 0.17531 0.94366 0.06494 0.0
H2552 H 0.13624 0.98191 0.07538 0.0
H2553 H 0.15538 0.96867 0.08424 0.0
H2554 H 0.18679 0.93424 0.063 0.0
H2555 H 0.16943 0.94318 0.07863 0.0
H2556 H 0.14079 0.97519 0.99008 0.0
H2557 H 0.1261 0.98748 1.00618 0.0
H2558 H 0.16952 0.96815 0.98665 0.0
H2559 H 0.18601 0.95157 0.99514 0.0
loop_
_geom_bond_atom_site_label_1
_geom_bond_atom_site_label_2
_geom_bond_distance
_geom_bond_site_symmetry_2
_ccdc_geom_bond_type
C0 C1 1.264 . S
C0 C5 1.479 . S
C0 C10 1.465 1_655 S
C1 C0 1.264 . S
C1 C3 1.339 . S
C1 H28 0.931 1_645 S
C2 C3 1.395 . S
C2 C4 1.320 . S
C3 C1 1.339 . S
C3 C2 1.395 . S
C3 H29 0.929 1_545 S
C4 C2 1.320 . S
C4 C5 1.405 . S
C4 H30 0.930 . S
C5 C0 1.479 . S
C5 C4 1.405 . S
C5 H31 0.931 . S
U6 O7 2.454 . S
U6 O8 2.458 . S
U6 C9 2.984 . S
U6 C10 2.847 . S
U6 C23 2.918 . S
U6 O24 2.442 . S
U6 O25 2.420 . S
U6 O26 2.455 . S
U6 O27 2.449 1_545 S
O7 U6 2.454 . S
O7 C9 1.353 . S
O8 U6 2.458 . S
O8 C9 1.286 . S
C9 U6 2.984 . S
C9 O7 1.353 . S
C9 O8 1.286 . S
C9 C11 1.363 1_554 S
C10 C0 1.465 1_455 S
C10 U6 2.847 . S
C10 O24 1.249 . S
C10 O25 1.202 . S
C11 C9 1.363 1_556 S
C11 C13 1.408 . S
C11 C16 1.342 . S
C12 C13 1.310 . S
C12 C15 1.461 . S
C12 H32 0.932 1_455 S
C13 C11 1.408 . S
C13 C12 1.310 . S
C13 H33 0.908 1_456 S
C14 C15 1.474 . S
C14 C16 1.285 . S
C14 H34 0.929 . S
C15 C12 1.461 . S
C15 C14 1.474 . S
C16 C11 1.342 . S
C16 C14 1.285 . S
C16 H35 0.930 . S
C17 C20 1.424 . S
C17 C22 1.245 . S
C17 C23 1.399 1_565 S
C18 C21 1.260 . S
C18 C22 1.477 . S
C18 H36 0.932 1_554 S
C19 C20 1.384 . S
C19 C21 1.479 . S
C19 H37 0.929 . S
C20 C17 1.424 . S
C20 C19 1.384 . S
C20 H38 0.928 . S
C21 C18 1.260 . S
C21 C19 1.479 . S
C22 C17 1.245 . S
C22 C18 1.477 . S
C22 H39 0.932 1_564 S
C23 U6 2.918 . S
C23 C17 1.399 1_545 S
C23 O26 1.345 . S
C23 O27 1.272 1_545 S
O24 U6 2.442 . S
O24 C10 1.249 . S
O25 U6 2.420 . S
O25 C10 1.202 . S
O26 U6 2.455 . S
O26 C23 1.345 . S
O27 U6 2.449 1_565 S
O27 C23 1.272 1_565 S
H28 C1 0.931 1_465 S
H29 C3 0.929 1_565 S
H30 C4 0.930 . S
H31 C5 0.931 . S
H32 C12 0.932 1_655 S
H33 C13 0.908 1_654 S
H34 C14 0.929 . S
H35 C16 0.930 . S
H36 C18 0.932 1_556 S
H37 C19 0.929 . S
H38 C20 0.928 . S
H39 C22 0.932 1_546 S
C40 C41 1.264 . S
C40 C45 1.479 . S
C40 C50 1.465 . S
C41 C40 1.264 . S
C41 C43 1.339 . S
C41 H68 0.931 . S
C42 C43 1.395 . S
C42 C44 1.320 . S
C43 C41 1.339 . S
C43 C42 1.395 . S
C43 H69 0.929 . S
C44 C42 1.320 . S
C44 C45 1.405 . S
C44 H70 0.930 . S
C45 C40 1.479 . S
C45 C44 1.405 . S
C45 H71 0.931 . S
U46 O47 2.454 . S
U46 O48 2.458 . S
U46 C49 2.984 . S
U46 C50 2.847 . S
U46 C63 2.882 . S
U46 O64 2.441 . S
U46 O65 2.420 . S
U46 O66 2.455 . S
U46 O67 2.449 . S
O47 U46 2.454 . S
O47 C49 1.353 . S
O48 U46 2.458 . S
O48 C49 1.286 . S
C49 U46 2.984 . S
C49 O47 1.353 . S
C49 O48 1.286 . S
C49 C51 1.363 . S
C50 C40 1.465 . S
C50 U46 2.847 . S
C50 O64 1.249 . S
C50 O65 1.202 . S
C51 C49 1.363 . S
C51 C53 1.408 . S
C51 C56 1.342 . S
C52 C53 1.310 . S
C52 C55 1.461 . S
C52 H72 0.932 . S
C53 C51 1.408 . S
C53 C52 1.310 . S
C53 H73 0.930 . S
C54 C55 1.474 . S
C54 C56 1.285 . S
C54 H74 0.929 . S
C55 C52 1.461 . S
C55 C54 1.474 . S
C56 C51 1.342 . S
C56 C54 1.285 . S
C56 H75 0.930 . S
C57 C60 1.424 . S
C57 C62 1.245 . S
C57 C63 1.428 . S
C58 C61 1.260 . S
C58 C62 1.477 . S
C58 H76 0.932 . S
C59 C60 1.384 . S
C59 C61 1.479 . S
C59 H77 0.929 . S
C60 C57 1.424 . S
C60 C59 1.384 . S
C60 H78 0.928 . S
C61 C58 1.260 . S
C61 C59 1.479 . S
C62 C57 1.245 . S
C62 C58 1.477 . S
C62 H79 0.932 . S
C63 U46 2.882 . S
C63 C57 1.428 . S
C63 O66 1.301 . S
C63 O67 1.282 . S
O64 U46 2.441 . S
O64 C50 1.249 . S
O65 U46 2.420 . S
O65 C50 1.202 . S
O66 U46 2.455 . S
O66 C63 1.301 . S
O67 U46 2.449 . S
O67 C63 1.282 . S
H68 C41 0.931 . S
H69 C43 0.929 . S
H70 C44 0.930 . S
H71 C45 0.931 . S
H72 C52 0.932 . S
H73 C53 0.930 . S
H74 C54 0.929 . S
H75 C56 0.930 . S
H76 C58 0.932 . S
H77 C59 0.929 . S
H78 C60 0.928 . S
H79 C62 0.932 . S
C80 C81 1.267 . S
C80 C85 1.479 . S
C80 C90 1.453 1_556 S
C81 C80 1.267 . S
C81 C83 1.338 1_655 S
C81 H108 0.928 1_656 S
C82 C83 1.395 1_655 S
C82 C84 1.320 . S
C83 C81 1.338 1_455 S
C83 C82 1.395 1_455 S
C83 H109 0.929 . S
C84 C82 1.320 . S
C84 C85 1.405 . S
C84 H110 0.930 . S
C85 C80 1.479 . S
C85 C84 1.405 . S
C85 H111 0.931 . S
U86 O87 2.454 . S
U86 O88 2.458 . S
U86 C89 2.984 . S
U86 C90 2.864 . S
U86 C103 2.882 1_655 S
U86 O104 2.401 1_554 S
U86 O105 2.420 . S
U86 O106 2.455 . S
U86 O107 2.449 1_655 S
O87 U86 2.454 . S
O87 C89 1.353 . S
O88 U86 2.458 . S
O88 C89 1.286 . S
C89 U86 2.984 . S
C89 O87 1.353 . S
C89 O88 1.286 . S
C89 C91 1.363 . S
C90 C80 1.453 1_554 S
C90 U86 2.864 . S
C90 O104 1.245 1_554 S
C90 O105 1.220 . S
C91 C89 1.363 . S
C91 C93 1.408 . S
C91 C96 1.342 . S
C92 C93 1.310 . S
C92 C95 1.461 . S
C92 H112 0.932 1_554 S
C93 C91 1.408 . S
C93 C92 1.310 . S
C93 H113 0.930 1_554 S
C94 C95 1.474 . S
C94 C96 1.285 . S
C94 H114 0.929 . S
C95 C92 1.461 . S
C95 C94 1.474 . S
C96 C91 1.342 . S
C96 C94 1.285 . S
C96 H115 0.930 . S
C97 C100 1.424 . S
C97 C102 1.245 . S
C97 C103 1.428 . S
C98 C101 1.260 . S
C98 C102 1.477 . S
C98 H116 0.932 . S
C99 C100 1.384 . S
C99 C101 1.479 . S
C99 H117 0.929 . S
C100 C97 1.424 . S
C100 C99 1.384 . S
C100 H118 0.928 . S
C101 C98 1.260 . S
C101 C99 1.479 . S
C102 C97 1.245 . S
C102 C98 1.477 . S
C102 H119 0.932 1_455 S
C103 U86 2.882 1_455 S
C103 C97 1.428 . S
C103 O106 1.301 1_455 S
C103 O107 1.282 . S
O104 U86 2.401 1_556 S
O104 C90 1.245 1_556 S
O105 U86 2.420 . S
O105 C90 1.220 . S
O106 U86 2.455 . S
O106 C103 1.301 1_655 S
O107 U86 2.449 1_455 S
O107 C103 1.282 . S
H108 C81 0.928 1_454 S
H109 C83 0.929 . S
H110 C84 0.930 . S
H111 C85 0.931 . S
H112 C92 0.932 1_556 S
H113 C93 0.930 1_556 S
H114 C94 0.929 . S
H115 C96 0.930 . S
H116 C98 0.932 . S
H117 C99 0.929 . S
H118 C100 0.928 . S
H119 C102 0.932 1_655 S
C120 C121 1.264 . S
C120 C125 1.479 . S
C120 C130 1.465 . S
C121 C120 1.264 . S
C121 C123 1.339 . S
C121 H148 0.931 . S
C122 C123 1.395 . S
C122 C124 1.320 . S
C123 C121 1.339 . S
C123 C122 1.395 . S
C123 H149 0.929 . S
C124 C122 1.320 . S
C124 C125 1.405 . S
C124 H150 0.930 . S
C125 C120 1.479 . S
C125 C124 1.405 . S
C125 H151 0.931 . S
U126 O127 2.454 . S
U126 O128 2.458 . S
U126 C129 2.984 . S
U126 C130 2.847 . S
U126 C143 2.882 . S
U126 O144 2.441 . S
U126 O145 2.420 . S
U126 O146 2.455 . S
U126 O147 2.449 . S
O127 U126 2.454 . S
O127 C129 1.353 . S
O128 U126 2.458 . S
O128 C129 1.286 . S
C129 U126 2.984 . S
C129 O127 1.353 . S
C129 O128 1.286 . S
C129 C131 1.363 . S
C130 C120 1.465 . S
C130 U126 2.847 . S
C130 O144 1.249 . S
C130 O145 1.202 . S
C131 C129 1.363 . S
C131 C133 1.408 . S
C131 C136 1.342 . S
C132 C133 1.310 . S
C132 C135 1.461 . S
C132 H152 0.932 . S
C133 C131 1.408 . S
C133 C132 1.310 . S
C133 H153 0.930 . S
C134 C135 1.474 . S
C134 C136 1.285 . S
C134 H154 0.929 . S
C135 C132 1.461 . S
C135 C134 1.474 . S
C136 C131 1.342 . S
C136 C134 1.285 . S
C136 H155 0.930 . S
C137 C140 1.424 . S
C137 C142 1.245 . S
C137 C143 1.428 . S
C138 C141 1.260 . S
C138 C142 1.477 . S
C138 H156 0.932 . S
C139 C140 1.384 . S
C139 C141 1.479 . S
C139 H157 0.929 . S
C140 C137 1.424 . S
C140 C139 1.384 . S
C140 H158 0.928 . S
C141 C138 1.260 . S
C141 C139 1.479 . S
C142 C137 1.245 . S
C142 C138 1.477 . S
C142 H159 0.932 . S
C143 U126 2.882 . S
C143 C137 1.428 . S
C143 O146 1.301 . S
C143 O147 1.282 . S
O144 U126 2.441 . S
O144 C130 1.249 . S
O145 U126 2.420 . S
O145 C130 1.202 . S
O146 U126 2.455 . S
O146 C143 1.301 . S
O147 U126 2.449 . S
O147 C143 1.282 . S
H148 C121 0.931 . S
H149 C123 0.929 . S
H150 C124 0.930 . S
H151 C125 0.931 . S
H152 C132 0.932 . S
H153 C133 0.930 . S
H154 C134 0.929 . S
H155 C136 0.930 . S
H156 C138 0.932 . S
H157 C139 0.929 . S
H158 C140 0.928 . S
H159 C142 0.932 . S
C160 C161 1.264 . S
C160 C165 1.479 . S
C160 C170 1.465 1_655 S
C161 C160 1.264 . S
C161 C163 1.339 . S
C161 H188 0.931 1_665 S
C162 C163 1.395 . S
C162 C164 1.320 . S
C163 C161 1.339 . S
C163 C162 1.395 . S
C163 H189 0.929 1_565 S
C164 C162 1.320 . S
C164 C165 1.405 . S
C164 H190 0.930 . S
C165 C160 1.479 . S
C165 C164 1.405 . S
C165 H191 0.931 . S
U166 O167 2.454 . S
U166 O168 2.458 . S
U166 C169 2.984 . S
U166 C170 2.847 . S
U166 C183 2.911 . S
U166 O184 2.442 . S
U166 O185 2.420 . S
U166 O186 2.455 . S
U166 O187 2.449 1_565 S
O167 U166 2.454 . S
O167 C169 1.353 . S
O168 U166 2.458 . S
O168 C169 1.286 . S
C169 U166 2.984 . S
C169 O167 1.353 . S
C169 O168 1.286 . S
C169 C171 1.363 . S
C170 C160 1.465 1_455 S
C170 U166 2.847 . S
C170 O184 1.249 . S
C170 O185 1.202 . S
C171 C169 1.363 . S
C171 C173 1.408 . S
C171 C176 1.342 . S
C172 C173 1.310 . S
C172 C175 1.461 . S
C172 H192 0.932 1_455 S
C173 C171 1.408 . S
C173 C172 1.310 . S
C173 H193 0.908 1_455 S
C174 C175 1.474 . S
C174 C176 1.285 . S
C174 H194 0.929 . S
C175 C172 1.461 . S
C175 C174 1.474 . S
C176 C171 1.342 . S
C176 C174 1.285 . S
C176 H195 0.930 . S
C177 C180 1.424 . S
C177 C182 1.245 . S
C177 C183 1.405 1_545 S
C178 C181 1.260 . S
C178 C182 1.477 . S
C178 H196 0.932 . S
C179 C180 1.384 . S
C179 C181 1.479 . S
C179 H197 0.929 . S
C180 C177 1.424 . S
C180 C179 1.384 . S
C180 H198 0.928 . S
C181 C178 1.260 . S
C181 C179 1.479 . S
C182 C177 1.245 . S
C182 C178 1.477 . S
C182 H199 0.932 1_545 S
C183 U166 2.911 . S
C183 C177 1.405 1_565 S
C183 O186 1.336 . S
C183 O187 1.274 1_565 S
O184 U166 2.442 . S
O184 C170 1.249 . S
O185 U166 2.420 . S
O185 C170 1.202 . S
O186 U166 2.455 . S
O186 C183 1.336 . S
O187 U166 2.449 1_545 S
O187 C183 1.274 1_545 S
H188 C161 0.931 1_445 S
H189 C163 0.929 1_545 S
H190 C164 0.930 . S
H191 C165 0.931 . S
H192 C172 0.932 1_655 S
H193 C173 0.908 1_655 S
H194 C174 0.929 . S
H195 C176 0.930 . S
H196 C178 0.932 . S
H197 C179 0.929 . S
H198 C180 0.928 . S
H199 C182 0.932 1_565 S
C200 C201 1.264 . S
C200 C205 1.479 . S
C200 C210 1.465 . S
C201 C200 1.264 . S
C201 C203 1.339 . S
C201 H228 0.931 . S
C202 C203 1.395 . S
C202 C204 1.320 . S
C203 C201 1.339 . S
C203 C202 1.395 . S
C203 H229 0.929 . S
C204 C202 1.320 . S
C204 C205 1.405 . S
C204 H230 0.930 . S
C205 C200 1.479 . S
C205 C204 1.405 . S
C205 H231 0.931 . S
U206 O207 2.454 . S
U206 O208 2.458 . S
U206 C209 2.984 . S
U206 C210 2.847 . S
U206 C223 2.882 . S
U206 O224 2.441 . S
U206 O225 2.420 . S
U206 O226 2.455 . S
U206 O227 2.449 . S
O207 U206 2.454 . S
O207 C209 1.353 . S
O208 U206 2.458 . S
O208 C209 1.286 . S
C209 U206 2.984 . S
C209 O207 1.353 . S
C209 O208 1.286 . S
C209 C211 1.363 . S
C210 C200 1.465 . S
C210 U206 2.847 . S
C210 O224 1.249 . S
C210 O225 1.202 . S
C211 C209 1.363 . S
C211 C213 1.408 . S
C211 C216 1.342 . S
C212 C213 1.310 . S
C212 C215 1.461 . S
C212 H232 0.932 . S
C213 C211 1.408 . S
C213 C212 1.310 . S
C213 H233 0.930 . S
C214 C215 1.474 . S
C214 C216 1.285 . S
C214 H234 0.929 . S
C215 C212 1.461 . S
C215 C214 1.474 . S
C216 C211 1.342 . S
C216 C214 1.285 . S
C216 H235 0.930 . S
C217 C220 1.424 . S
C217 C222 1.245 . S
C217 C223 1.428 . S
C218 C221 1.260 . S
C218 C222 1.477 . S
C218 H236 0.932 . S
C219 C220 1.384 . S
C219 C221 1.479 . S
C219 H237 0.929 . S
C220 C217 1.424 . S
C220 C219 1.384 . S
C220 H238 0.928 . S
C221 C218 1.260 . S
C221 C219 1.479 . S
C222 C217 1.245 . S
C222 C218 1.477 . S
C222 H239 0.932 . S
C223 U206 2.882 . S
C223 C217 1.428 . S
C223 O226 1.301 . S
C223 O227 1.282 . S
O224 U206 2.441 . S
O224 C210 1.249 . S
O225 U206 2.420 . S
O225 C210 1.202 . S
O226 U206 2.455 . S
O226 C223 1.301 . S
O227 U206 2.449 . S
O227 C223 1.282 . S
H228 C201 0.931 . S
H229 C203 0.929 . S
H230 C204 0.930 . S
H231 C205 0.931 . S
H232 C212 0.932 . S
H233 C213 0.930 . S
H234 C214 0.929 . S
H235 C216 0.930 . S
H236 C218 0.932 . S
H237 C219 0.929 . S
H238 C220 0.928 . S
H239 C222 0.932 . S
C240 C241 1.267 . S
C240 C245 1.479 . S
C240 C250 1.465 . S
C241 C240 1.267 . S
C241 C243 1.338 1_655 S
C241 H268 0.928 1_655 S
C242 C243 1.395 1_655 S
C242 C244 1.320 . S
C243 C241 1.338 1_455 S
C243 C242 1.395 1_455 S
C243 H269 0.929 . S
C244 C242 1.320 . S
C244 C245 1.405 . S
C244 H270 0.930 . S
C245 C240 1.479 . S
C245 C244 1.405 . S
C245 H271 0.931 . S
U246 O247 2.454 . S
U246 O248 2.458 . S
U246 C249 2.984 . S
U246 C250 2.847 . S
U246 C263 2.882 1_655 S
U246 O264 2.441 . S
U246 O265 2.420 . S
U246 O266 2.455 . S
U246 O267 2.449 1_655 S
O247 U246 2.454 . S
O247 C249 1.353 . S
O248 U246 2.458 . S
O248 C249 1.286 . S
C249 U246 2.984 . S
C249 O247 1.353 . S
C249 O248 1.286 . S
C249 C251 1.363 . S
C250 C240 1.465 . S
C250 U246 2.847 . S
C250 O264 1.249 . S
C250 O265 1.202 . S
C251 C249 1.363 . S
C251 C253 1.408 . S
C251 C256 1.342 . S
C252 C253 1.310 . S
C252 C255 1.461 . S
C252 H272 0.932 . S
C253 C251 1.408 . S
C253 C252 1.310 . S
C253 H273 0.930 . S
C254 C255 1.474 . S
C254 C256 1.285 . S
C254 H274 0.929 . S
C255 C252 1.461 . S
C255 C254 1.474 . S
C256 C251 1.342 . S
C256 C254 1.285 . S
C256 H275 0.930 . S
C257 C260 1.424 . S
C257 C262 1.245 . S
C257 C263 1.428 . S
C258 C261 1.260 . S
C258 C262 1.477 . S
C258 H276 0.932 . S
C259 C260 1.384 . S
C259 C261 1.479 . S
C259 H277 0.929 . S
C260 C257 1.424 . S
C260 C259 1.384 . S
C260 H278 0.928 . S
C261 C258 1.260 . S
C261 C259 1.479 . S
C262 C257 1.245 . S
C262 C258 1.477 . S
C262 H279 0.932 1_455 S
C263 U246 2.882 1_455 S
C263 C257 1.428 . S
C263 O266 1.301 1_455 S
C263 O267 1.282 . S
O264 U246 2.441 . S
O264 C250 1.249 . S
O265 U246 2.420 . S
O265 C250 1.202 . S
O266 U246 2.455 . S
O266 C263 1.301 1_655 S
O267 U246 2.449 1_455 S
O267 C263 1.282 . S
H268 C241 0.928 1_455 S
H269 C243 0.929 . S
H270 C244 0.930 . S
H271 C245 0.931 . S
H272 C252 0.932 . S
H273 C253 0.930 . S
H274 C254 0.929 . S
H275 C256 0.930 . S
H276 C258 0.932 . S
H277 C259 0.929 . S
H278 C260 0.928 . S
H279 C262 0.932 1_655 S
C280 C281 1.264 . S
C280 C285 1.479 . S
C280 C290 1.465 . S
C281 C280 1.264 . S
C281 C283 1.339 . S
C281 H308 0.931 . S
C282 C283 1.395 . S
C282 C284 1.320 . S
C283 C281 1.339 . S
C283 C282 1.395 . S
C283 H309 0.929 . S
C284 C282 1.320 . S
C284 C285 1.405 . S
C284 H310 0.930 . S
C285 C280 1.479 . S
C285 C284 1.405 . S
C285 H311 0.931 . S
U286 O287 2.454 . S
U286 O288 2.458 . S
U286 C289 2.984 . S
U286 C290 2.847 . S
U286 C303 2.882 . S
U286 O304 2.441 . S
U286 O305 2.420 . S
U286 O306 2.455 . S
U286 O307 2.449 . S
O287 U286 2.454 . S
O287 C289 1.353 . S
O288 U286 2.458 . S
O288 C289 1.286 . S
C289 U286 2.984 . S
C289 O287 1.353 . S
C289 O288 1.286 . S
C289 C291 1.363 . S
C290 C280 1.465 . S
C290 U286 2.847 . S
C290 O304 1.249 . S
C290 O305 1.202 . S
C291 C289 1.363 . S
C291 C293 1.408 . S
C291 C296 1.342 . S
C292 C293 1.310 . S
C292 C295 1.461 . S
C292 H312 0.932 . S
C293 C291 1.408 . S
C293 C292 1.310 . S
C293 H313 0.930 . S
C294 C295 1.474 . S
C294 C296 1.285 . S
C294 H314 0.929 . S
C295 C292 1.461 . S
C295 C294 1.474 . S
C296 C291 1.342 . S
C296 C294 1.285 . S
C296 H315 0.930 . S
C297 C300 1.424 . S
C297 C302 1.245 . S
C297 C303 1.428 . S
C298 C301 1.260 . S
C298 C302 1.477 . S
C298 H316 0.932 . S
C299 C300 1.384 . S
C299 C301 1.479 . S
C299 H317 0.929 . S
C300 C297 1.424 . S
C300 C299 1.384 . S
C300 H318 0.928 . S
C301 C298 1.260 . S
C301 C299 1.479 . S
C302 C297 1.245 . S
C302 C298 1.477 . S
C302 H319 0.932 . S
C303 U286 2.882 . S
C303 C297 1.428 . S
C303 O306 1.301 . S
C303 O307 1.282 . S
O304 U286 2.441 . S
O304 C290 1.249 . S
O305 U286 2.420 . S
O305 C290 1.202 . S
O306 U286 2.455 . S
O306 C303 1.301 . S
O307 U286 2.449 . S
O307 C303 1.282 . S
H308 C281 0.931 . S
H309 C283 0.929 . S
H310 C284 0.930 . S
H311 C285 0.931 . S
H312 C292 0.932 . S
H313 C293 0.930 . S
H314 C294 0.929 . S
H315 C296 0.930 . S
H316 C298 0.932 . S
H317 C299 0.929 . S
H318 C300 0.928 . S
H319 C302 0.932 . S
C320 C321 1.264 . S
C320 C325 1.479 . S
C320 C330 1.465 . S
C321 C320 1.264 . S
C321 C323 1.339 . S
C321 H348 0.931 . S
C322 C323 1.395 . S
C322 C324 1.320 . S
C323 C321 1.339 . S
C323 C322 1.395 . S
C323 H349 0.929 . S
C324 C322 1.320 . S
C324 C325 1.405 . S
C324 H350 0.930 . S
C325 C320 1.479 . S
C325 C324 1.405 . S
C325 H351 0.931 . S
U326 O327 2.454 . S
U326 O328 2.458 . S
U326 C329 2.984 . S
U326 C330 2.847 . S
U326 C343 2.882 . S
U326 O344 2.441 . S
U326 O345 2.420 . S
U326 O346 2.455 . S
U326 O347 2.449 . S
O327 U326 2.454 . S
O327 C329 1.353 . S
O328 U326 2.458 . S
O328 C329 1.286 . S
C329 U326 2.984 . S
C329 O327 1.353 . S
C329 O328 1.286 . S
C329 C331 1.363 . S
C330 C320 1.465 . S
C330 U326 2.847 . S
C330 O344 1.249 . S
C330 O345 1.202 . S
C331 C329 1.363 . S
C331 C333 1.408 . S
C331 C336 1.342 . S
C332 C333 1.310 . S
C332 C335 1.461 . S
C332 H352 0.932 . S
C333 C331 1.408 . S
C333 C332 1.310 . S
C333 H353 0.930 . S
C334 C335 1.474 . S
C334 C336 1.285 . S
C334 H354 0.929 . S
C335 C332 1.461 . S
C335 C334 1.474 . S
C336 C331 1.342 . S
C336 C334 1.285 . S
C336 H355 0.930 . S
C337 C340 1.424 . S
C337 C342 1.245 . S
C337 C343 1.428 . S
C338 C341 1.260 . S
C338 C342 1.477 . S
C338 H356 0.932 . S
C339 C340 1.384 . S
C339 C341 1.479 . S
C339 H357 0.929 . S
C340 C337 1.424 . S
C340 C339 1.384 . S
C340 H358 0.928 . S
C341 C338 1.260 . S
C341 C339 1.479 . S
C342 C337 1.245 . S
C342 C338 1.477 . S
C342 H359 0.932 . S
C343 U326 2.882 . S
C343 C337 1.428 . S
C343 O346 1.301 . S
C343 O347 1.282 . S
O344 U326 2.441 . S
O344 C330 1.249 . S
O345 U326 2.420 . S
O345 C330 1.202 . S
O346 U326 2.455 . S
O346 C343 1.301 . S
O347 U326 2.449 . S
O347 C343 1.282 . S
H348 C321 0.931 . S
H349 C323 0.929 . S
H350 C324 0.930 . S
H351 C325 0.931 . S
H352 C332 0.932 . S
H353 C333 0.930 . S
H354 C334 0.929 . S
H355 C336 0.930 . S
H356 C338 0.932 . S
H357 C339 0.929 . S
H358 C340 0.928 . S
H359 C342 0.932 . S
C360 C361 1.264 . S
C360 C365 1.479 . S
C360 C370 1.465 . S
C361 C360 1.264 . S
C361 C363 1.339 . S
C361 H388 0.931 . S
C362 C363 1.395 . S
C362 C364 1.320 . S
C363 C361 1.339 . S
C363 C362 1.395 . S
C363 H389 0.929 . S
C364 C362 1.320 . S
C364 C365 1.405 . S
C364 H390 0.930 . S
C365 C360 1.479 . S
C365 C364 1.405 . S
C365 H391 0.931 . S
U366 O367 2.454 . S
U366 O368 2.483 . S
U366 C369 2.984 . S
U366 C370 2.847 . S
U366 C383 2.882 . S
U366 O384 2.441 . S
U366 O385 2.420 . S
U366 O386 2.455 . S
U366 O387 2.449 . S
O367 U366 2.454 . S
O367 C369 1.353 . S
O368 U366 2.483 . S
O368 C369 1.288 . S
C369 U366 2.984 . S
C369 O367 1.353 . S
C369 O368 1.288 . S
C369 C371 1.363 1_565 S
C370 C360 1.465 . S
C370 U366 2.847 . S
C370 O384 1.249 . S
C370 O385 1.202 . S
C371 C369 1.363 1_545 S
C371 C373 1.408 . S
C371 C376 1.342 . S
C372 C373 1.310 . S
C372 C375 1.461 . S
C372 H392 0.932 . S
C373 C371 1.408 . S
C373 C372 1.310 . S
C373 H393 0.930 1_545 S
C374 C375 1.474 . S
C374 C376 1.285 . S
C374 H394 0.929 . S
C375 C372 1.461 . S
C375 C374 1.474 . S
C376 C371 1.342 . S
C376 C374 1.285 . S
C376 H395 0.930 . S
C377 C380 1.424 . S
C377 C382 1.245 . S
C377 C383 1.428 . S
C378 C381 1.260 . S
C378 C382 1.477 . S
C378 H396 0.932 1_565 S
C379 C380 1.384 . S
C379 C381 1.479 . S
C379 H397 0.929 . S
C380 C377 1.424 . S
C380 C379 1.384 . S
C380 H398 0.928 . S
C381 C378 1.260 . S
C381 C379 1.479 . S
C382 C377 1.245 . S
C382 C378 1.477 . S
C382 H399 0.932 1_565 S
C383 U366 2.882 . S
C383 C377 1.428 . S
C383 O386 1.301 . S
C383 O387 1.282 . S
O384 U366 2.441 . S
O384 C370 1.249 . S
O385 U366 2.420 . S
O385 C370 1.202 . S
O386 U366 2.455 . S
O386 C383 1.301 . S
O387 U366 2.449 . S
O387 C383 1.282 . S
H388 C361 0.931 . S
H389 C363 0.929 . S
H390 C364 0.930 . S
H391 C365 0.931 . S
H392 C372 0.932 . S
H393 C373 0.930 1_565 S
H394 C374 0.929 . S
H395 C376 0.930 . S
H396 C378 0.932 1_545 S
H397 C379 0.929 . S
H398 C380 0.928 . S
H399 C382 0.932 1_545 S
C400 C401 1.264 . S
C400 C405 1.479 . S
C400 C410 1.465 . S
C401 C400 1.264 . S
C401 C403 1.339 . S
C401 H428 0.931 . S
C402 C403 1.395 . S
C402 C404 1.320 . S
C403 C401 1.339 . S
C403 C402 1.395 . S
C403 H429 0.929 . S
C404 C402 1.320 . S
C404 C405 1.405 . S
C404 H430 0.930 . S
C405 C400 1.479 . S
C405 C404 1.405 . S
C405 H431 0.931 . S
U406 O407 2.454 . S
U406 O408 2.458 . S
U406 C409 2.984 . S
U406 C410 2.847 . S
U406 C423 2.882 . S
U406 O424 2.441 . S
U406 O425 2.420 . S
U406 O426 2.455 . S
U406 O427 2.449 . S
O407 U406 2.454 . S
O407 C409 1.353 . S
O408 U406 2.458 . S
O408 C409 1.286 . S
C409 U406 2.984 . S
C409 O407 1.353 . S
C409 O408 1.286 . S
C409 C411 1.363 . S
C410 C400 1.465 . S
C410 U406 2.847 . S
C410 O424 1.249 . S
C410 O425 1.202 . S
C411 C409 1.363 . S
C411 C413 1.408 . S
C411 C416 1.342 . S
C412 C413 1.310 . S
C412 C415 1.461 . S
C412 H432 0.932 . S
C413 C411 1.408 . S
C413 C412 1.310 . S
C413 H433 0.930 . S
C414 C415 1.474 . S
C414 C416 1.285 . S
C414 H434 0.929 . S
C415 C412 1.461 . S
C415 C414 1.474 . S
C416 C411 1.342 . S
C416 C414 1.285 . S
C416 H435 0.930 . S
C417 C420 1.424 . S
C417 C422 1.245 . S
C417 C423 1.428 . S
C418 C421 1.260 . S
C418 C422 1.477 . S
C418 H436 0.932 . S
C419 C420 1.384 . S
C419 C421 1.479 . S
C419 H437 0.929 . S
C420 C417 1.424 . S
C420 C419 1.384 . S
C420 H438 0.928 . S
C421 C418 1.260 . S
C421 C419 1.479 . S
C422 C417 1.245 . S
C422 C418 1.477 . S
C422 H439 0.932 . S
C423 U406 2.882 . S
C423 C417 1.428 . S
C423 O426 1.301 . S
C423 O427 1.282 . S
O424 U406 2.441 . S
O424 C410 1.249 . S
O425 U406 2.420 . S
O425 C410 1.202 . S
O426 U406 2.455 . S
O426 C423 1.301 . S
O427 U406 2.449 . S
O427 C423 1.282 . S
H428 C401 0.931 . S
H429 C403 0.929 . S
H430 C404 0.930 . S
H431 C405 0.931 . S
H432 C412 0.932 . S
H433 C413 0.930 . S
H434 C414 0.929 . S
H435 C416 0.930 . S
H436 C418 0.932 . S
H437 C419 0.929 . S
H438 C420 0.928 . S
H439 C422 0.932 . S
C440 C441 1.264 . S
C440 C445 1.479 . S
C440 C450 1.465 . S
C441 C440 1.264 . S
C441 C443 1.339 . S
C441 H468 0.931 . S
C442 C443 1.395 . S
C442 C444 1.320 . S
C443 C441 1.339 . S
C443 C442 1.395 . S
C443 H469 0.929 . S
C444 C442 1.320 . S
C444 C445 1.405 . S
C444 H470 0.930 . S
C445 C440 1.479 . S
C445 C444 1.405 . S
C445 H471 0.931 . S
U446 O447 2.454 . S
U446 O448 2.458 . S
U446 C449 2.984 . S
U446 C450 2.847 . S
U446 C463 2.882 . S
U446 O464 2.441 . S
U446 O465 2.420 . S
U446 O466 2.455 . S
U446 O467 2.449 . S
O447 U446 2.454 . S
O447 C449 1.353 . S
O448 U446 2.458 . S
O448 C449 1.286 . S
C449 U446 2.984 . S
C449 O447 1.353 . S
C449 O448 1.286 . S
C449 C451 1.363 . S
C450 C440 1.465 . S
C450 U446 2.847 . S
C450 O464 1.249 . S
C450 O465 1.202 . S
C451 C449 1.363 . S
C451 C453 1.408 . S
C451 C456 1.342 . S
C452 C453 1.310 . S
C452 C455 1.461 . S
C452 H472 0.932 . S
C453 C451 1.408 . S
C453 C452 1.310 . S
C453 H473 0.930 . S
C454 C455 1.474 . S
C454 C456 1.285 . S
C454 H474 0.929 . S
C455 C452 1.461 . S
C455 C454 1.474 . S
C456 C451 1.342 . S
C456 C454 1.285 . S
C456 H475 0.930 . S
C457 C460 1.424 . S
C457 C462 1.245 . S
C457 C463 1.428 . S
C458 C461 1.260 . S
C458 C462 1.477 . S
C458 H476 0.932 . S
C459 C460 1.384 . S
C459 C461 1.479 . S
C459 H477 0.929 . S
C460 C457 1.424 . S
C460 C459 1.384 . S
C460 H478 0.928 . S
C461 C458 1.260 . S
C461 C459 1.479 . S
C462 C457 1.245 . S
C462 C458 1.477 . S
C462 H479 0.932 . S
C463 U446 2.882 . S
C463 C457 1.428 . S
C463 O466 1.301 . S
C463 O467 1.282 . S
O464 U446 2.441 . S
O464 C450 1.249 . S
O465 U446 2.420 . S
O465 C450 1.202 . S
O466 U446 2.455 . S
O466 C463 1.301 . S
O467 U446 2.449 . S
O467 C463 1.282 . S
H468 C441 0.931 . S
H469 C443 0.929 . S
H470 C444 0.930 . S
H471 C445 0.931 . S
H472 C452 0.932 . S
H473 C453 0.930 . S
H474 C454 0.929 . S
H475 C456 0.930 . S
H476 C458 0.932 . S
H477 C459 0.929 . S
H478 C460 0.928 . S
H479 C462 0.932 . S
C480 C481 1.264 . S
C480 C485 1.479 . S
C480 C490 1.465 . S
C481 C480 1.264 . S
C481 C483 1.339 . S
C481 H508 0.931 . S
C482 C483 1.395 . S
C482 C484 1.320 . S
C483 C481 1.339 . S
C483 C482 1.395 . S
C483 H509 0.929 . S
C484 C482 1.320 . S
C484 C485 1.405 . S
C484 H510 0.930 . S
C485 C480 1.479 . S
C485 C484 1.405 . S
C485 H511 0.931 . S
U486 O487 2.454 . S
U486 O488 2.458 . S
U486 C489 2.984 . S
U486 C490 2.847 . S
U486 C503 2.882 . S
U486 O504 2.441 . S
U486 O505 2.420 . S
U486 O506 2.455 . S
U486 O507 2.449 . S
O487 U486 2.454 . S
O487 C489 1.353 . S
O488 U486 2.458 . S
O488 C489 1.286 . S
C489 U486 2.984 . S
C489 O487 1.353 . S
C489 O488 1.286 . S
C489 C491 1.363 . S
C490 C480 1.465 . S
C490 U486 2.847 . S
C490 O504 1.249 . S
C490 O505 1.202 . S
C491 C489 1.363 . S
C491 C493 1.408 . S
C491 C496 1.342 . S
C492 C493 1.310 . S
C492 C495 1.461 . S
C492 H512 0.932 . S
C493 C491 1.408 . S
C493 C492 1.310 . S
C493 H513 0.930 . S
C494 C495 1.474 . S
C494 C496 1.285 . S
C494 H514 0.929 . S
C495 C492 1.461 . S
C495 C494 1.474 . S
C496 C491 1.342 . S
C496 C494 1.285 . S
C496 H515 0.930 . S
C497 C500 1.424 . S
C497 C502 1.245 . S
C497 C503 1.428 . S
C498 C501 1.260 . S
C498 C502 1.477 . S
C498 H516 0.932 . S
C499 C500 1.384 . S
C499 C501 1.479 . S
C499 H517 0.929 . S
C500 C497 1.424 . S
C500 C499 1.384 . S
C500 H518 0.928 . S
C501 C498 1.260 . S
C501 C499 1.479 . S
C502 C497 1.245 . S
C502 C498 1.477 . S
C502 H519 0.932 . S
C503 U486 2.882 . S
C503 C497 1.428 . S
C503 O506 1.301 . S
C503 O507 1.282 . S
O504 U486 2.441 . S
O504 C490 1.249 . S
O505 U486 2.420 . S
O505 C490 1.202 . S
O506 U486 2.455 . S
O506 C503 1.301 . S
O507 U486 2.449 . S
O507 C503 1.282 . S
H508 C481 0.931 . S
H509 C483 0.929 . S
H510 C484 0.930 . S
H511 C485 0.931 . S
H512 C492 0.932 . S
H513 C493 0.930 . S
H514 C494 0.929 . S
H515 C496 0.930 . S
H516 C498 0.932 . S
H517 C499 0.929 . S
H518 C500 0.928 . S
H519 C502 0.932 . S
C520 C521 1.264 . S
C520 C525 1.479 . S
C520 C530 1.465 . S
C521 C520 1.264 . S
C521 C523 1.339 . S
C521 H548 0.931 . S
C522 C523 1.395 . S
C522 C524 1.320 . S
C523 C521 1.339 . S
C523 C522 1.395 . S
C523 H549 0.929 . S
C524 C522 1.320 . S
C524 C525 1.405 . S
C524 H550 0.930 . S
C525 C520 1.479 . S
C525 C524 1.405 . S
C525 H551 0.931 . S
U526 O527 2.454 . S
U526 O528 2.414 1_556 S
U526 C529 2.988 . S
U526 C530 2.847 . S
U526 C543 2.882 . S
U526 O544 2.441 . S
U526 O545 2.420 . S
U526 O546 2.455 . S
U526 O547 2.449 . S
O527 U526 2.454 . S
O527 C529 1.358 . S
O528 U526 2.414 1_554 S
O528 C529 1.284 1_554 S
C529 U526 2.988 . S
C529 O527 1.358 . S
C529 O528 1.284 1_556 S
C529 C531 1.359 1_556 S
C530 C520 1.465 . S
C530 U526 2.847 . S
C530 O544 1.249 . S
C530 O545 1.202 . S
C531 C529 1.359 1_554 S
C531 C533 1.408 . S
C531 C536 1.342 . S
C532 C533 1.310 . S
C532 C535 1.461 . S
C532 H552 0.932 . S
C533 C531 1.408 . S
C533 C532 1.310 . S
C533 H553 0.930 1_554 S
C534 C535 1.474 . S
C534 C536 1.285 . S
C534 H554 0.929 . S
C535 C532 1.461 . S
C535 C534 1.474 . S
C536 C531 1.342 . S
C536 C534 1.285 . S
C536 H555 0.930 . S
C537 C540 1.424 . S
C537 C542 1.245 . S
C537 C543 1.428 . S
C538 C541 1.260 . S
C538 C542 1.477 . S
C538 H556 0.932 1_556 S
C539 C540 1.384 . S
C539 C541 1.479 . S
C539 H557 0.929 . S
C540 C537 1.424 . S
C540 C539 1.384 . S
C540 H558 0.928 . S
C541 C538 1.260 . S
C541 C539 1.479 . S
C542 C537 1.245 . S
C542 C538 1.477 . S
C542 H559 0.932 1_556 S
C543 U526 2.882 . S
C543 C537 1.428 . S
C543 O546 1.301 . S
C543 O547 1.282 . S
O544 U526 2.441 . S
O544 C530 1.249 . S
O545 U526 2.420 . S
O545 C530 1.202 . S
O546 U526 2.455 . S
O546 C543 1.301 . S
O547 U526 2.449 . S
O547 C543 1.282 . S
H548 C521 0.931 . S
H549 C523 0.929 . S
H550 C524 0.930 . S
H551 C525 0.931 . S
H552 C532 0.932 . S
H553 C533 0.930 1_556 S
H554 C534 0.929 . S
H555 C536 0.930 . S
H556 C538 0.932 1_554 S
H557 C539 0.929 . S
H558 C540 0.928 . S
H559 C542 0.932 1_554 S
C560 C561 1.264 . S
C560 C565 1.479 . S
C560 C570 1.465 . S
C561 C560 1.264 . S
C561 C563 1.339 . S
C561 H588 0.931 . S
C562 C563 1.395 . S
C562 C564 1.320 . S
C563 C561 1.339 . S
C563 C562 1.395 . S
C563 H589 0.929 . S
C564 C562 1.320 . S
C564 C565 1.405 . S
C564 H590 0.930 . S
C565 C560 1.479 . S
C565 C564 1.405 . S
C565 H591 0.931 . S
U566 O567 2.454 . S
U566 O568 2.458 . S
U566 C569 2.984 . S
U566 C570 2.847 . S
U566 C583 2.882 . S
U566 O584 2.441 . S
U566 O585 2.420 . S
U566 O586 2.455 . S
U566 O587 2.449 . S
O567 U566 2.454 . S
O567 C569 1.353 . S
O568 U566 2.458 . S
O568 C569 1.286 . S
C569 U566 2.984 . S
C569 O567 1.353 . S
C569 O568 1.286 . S
C569 C571 1.363 . S
C570 C560 1.465 . S
C570 U566 2.847 . S
C570 O584 1.249 . S
C570 O585 1.202 . S
C571 C569 1.363 . S
C571 C573 1.408 . S
C571 C576 1.342 . S
C572 C573 1.310 . S
C572 C575 1.461 . S
C572 H592 0.932 . S
C573 C571 1.408 . S
C573 C572 1.310 . S
C573 H593 0.930 . S
C574 C575 1.474 . S
C574 C576 1.285 . S
C574 H594 0.929 . S
C575 C572 1.461 . S
C575 C574 1.474 . S
C576 C571 1.342 . S
C576 C574 1.285 . S
C576 H595 0.930 . S
C577 C580 1.424 . S
C577 C582 1.245 . S
C577 C583 1.428 . S
C578 C581 1.260 . S
C578 C582 1.477 . S
C578 H596 0.932 . S
C579 C580 1.384 . S
C579 C581 1.479 . S
C579 H597 0.929 . S
C580 C577 1.424 . S
C580 C579 1.384 . S
C580 H598 0.928 . S
C581 C578 1.260 . S
C581 C579 1.479 . S
C582 C577 1.245 . S
C582 C578 1.477 . S
C582 H599 0.932 . S
C583 U566 2.882 . S
C583 C577 1.428 . S
C583 O586 1.301 . S
C583 O587 1.282 . S
O584 U566 2.441 . S
O584 C570 1.249 . S
O585 U566 2.420 . S
O585 C570 1.202 . S
O586 U566 2.455 . S
O586 C583 1.301 . S
O587 U566 2.449 . S
O587 C583 1.282 . S
H588 C561 0.931 . S
H589 C563 0.929 . S
H590 C564 0.930 . S
H591 C565 0.931 . S
H592 C572 0.932 . S
H593 C573 0.930 . S
H594 C574 0.929 . S
H595 C576 0.930 . S
H596 C578 0.932 . S
H597 C579 0.929 . S
H598 C580 0.928 . S
H599 C582 0.932 . S
C600 C601 1.264 . S
C600 C605 1.479 . S
C600 C610 1.465 . S
C601 C600 1.264 . S
C601 C603 1.339 . S
C601 H628 0.931 . S
C602 C603 1.395 . S
C602 C604 1.320 . S
C603 C601 1.339 . S
C603 C602 1.395 . S
C603 H629 0.929 . S
C604 C602 1.320 . S
C604 C605 1.405 . S
C604 H630 0.930 . S
C605 C600 1.479 . S
C605 C604 1.405 . S
C605 H631 0.931 . S
U606 O607 2.454 . S
U606 O608 2.491 . S
U606 C609 2.984 . S
U606 C610 2.847 1_556 S
U606 C623 2.882 . S
U606 O624 2.441 1_556 S
U606 O625 2.420 . S
U606 O626 2.455 . S
U606 O627 2.449 . S
O607 U606 2.454 . S
O607 C609 1.353 . S
O608 U606 2.491 . S
O608 C609 1.289 . S
C609 U606 2.984 . S
C609 O607 1.353 . S
C609 O608 1.289 . S
C609 C611 1.363 1_545 S
C610 C600 1.465 . S
C610 U606 2.847 1_554 S
C610 O624 1.249 . S
C610 O625 1.202 1_554 S
C611 C609 1.363 1_565 S
C611 C613 1.408 . S
C611 C616 1.342 . S
C612 C613 1.311 . S
C612 C615 1.468 . S
C612 H632 0.924 1_556 S
C613 C611 1.408 . S
C613 C612 1.311 . S
C613 H633 0.930 1_566 S
C614 C615 1.474 . S
C614 C616 1.285 . S
C614 H634 0.929 . S
C615 C612 1.468 . S
C615 C614 1.474 . S
C616 C611 1.342 . S
C616 C614 1.285 . S
C616 H635 0.930 . S
C617 C620 1.424 . S
C617 C622 1.245 . S
C617 C623 1.428 . S
C618 C621 1.260 . S
C618 C622 1.477 . S
C618 H636 0.932 1_545 S
C619 C620 1.384 . S
C619 C621 1.479 . S
C619 H637 0.929 . S
C620 C617 1.424 . S
C620 C619 1.384 . S
C620 H638 0.928 . S
C621 C618 1.260 . S
C621 C619 1.479 . S
C622 C617 1.245 . S
C622 C618 1.477 . S
C622 H639 0.932 1_545 S
C623 U606 2.882 . S
C623 C617 1.428 . S
C623 O626 1.301 . S
C623 O627 1.282 . S
O624 U606 2.441 1_554 S
O624 C610 1.249 . S
O625 U606 2.420 . S
O625 C610 1.202 1_556 S
O626 U606 2.455 . S
O626 C623 1.301 . S
O627 U606 2.449 . S
O627 C623 1.282 . S
H628 C601 0.931 . S
H629 C603 0.929 . S
H630 C604 0.930 . S
H631 C605 0.931 . S
H632 C612 0.924 1_554 S
H633 C613 0.930 1_544 S
H634 C614 0.929 . S
H635 C616 0.930 . S
H636 C618 0.932 1_565 S
H637 C619 0.929 . S
H638 C620 0.928 . S
H639 C622 0.932 1_565 S
Li640 N657 1.990 1_554 S
Li640 O700 1.956 . S
Li640 O701 1.970 . S
Li640 O702 1.961 1_554 S
Li641 N665 1.990 . S
Li641 O700 1.970 . S
Li641 O701 1.956 . S
Li641 O703 1.961 . S
Li642 N687 1.990 . S
Li642 O700 1.961 1_556 S
Li642 O702 1.956 . S
Li642 O703 1.970 1_556 S
Li643 N693 1.990 . S
Li643 O701 1.961 . S
Li643 O702 1.970 1_554 S
Li643 O703 1.956 . S
C644 C646 1.335 1_556 S
C644 C647 1.371 . S
C644 O700 1.323 1_556 S
N645 C648 1.314 1_556 S
N645 C649 1.279 . S
C646 C644 1.335 1_554 S
C646 C648 1.353 . S
C646 H704 0.929 . S
C647 C644 1.371 . S
C647 C649 1.358 . S
C647 H705 0.930 . S
C648 N645 1.314 1_554 S
C648 C646 1.353 . S
C648 H706 0.930 . S
C649 N645 1.279 . S
C649 C647 1.358 . S
C649 H707 0.930 . S
C650 C653 1.348 . S
C650 C654 1.356 . S
C650 O701 1.325 . S
C651 N652 1.279 . S
C651 C654 1.358 . S
C651 H708 0.930 . S
N652 C651 1.279 . S
N652 C655 1.314 . S
C653 C650 1.348 . S
C653 C655 1.353 . S
C653 H709 0.929 . S
C654 C650 1.356 . S
C654 C651 1.358 . S
C654 H710 0.930 . S
C655 N652 1.314 . S
C655 C653 1.353 . S
C655 H711 0.930 . S
C656 N657 1.314 . S
C656 C661 1.353 . S
C656 H662 0.930 . S
N657 Li640 1.990 1_556 S
N657 C656 1.314 . S
N657 C659 1.285 . S
C658 C659 1.364 . S
C658 C660 1.356 . S
C658 H712 0.930 . S
C659 N657 1.285 . S
C659 C658 1.364 . S
C659 H663 0.920 1_556 S
C660 C658 1.356 . S
C660 C661 1.348 . S
C661 C656 1.353 . S
C661 C660 1.348 . S
C661 H713 0.929 . S
H662 C656 0.930 . S
H663 C659 0.920 1_554 S
C664 N665 1.314 . S
C664 C666 1.353 . S
C664 H670 0.930 . S
N665 Li641 1.990 . S
N665 C664 1.314 . S
N665 C668 1.279 . S
C666 C664 1.353 . S
C666 C669 1.348 . S
C666 H714 0.929 . S
C667 C668 1.358 . S
C667 C669 1.356 . S
C667 H715 0.930 . S
C668 N665 1.279 . S
C668 C667 1.358 . S
C668 H671 0.930 . S
C669 C666 1.348 . S
C669 C667 1.356 . S
H670 C664 0.930 . S
H671 C668 0.930 . S
C672 C674 1.348 . S
C672 C675 1.356 . S
C672 O702 1.325 . S
N673 C676 1.314 . S
N673 C677 1.279 . S
C674 C672 1.348 . S
C674 C676 1.353 . S
C674 H716 0.929 . S
C675 C672 1.356 . S
C675 C677 1.358 . S
C675 H717 0.930 . S
C676 N673 1.314 . S
C676 C674 1.353 . S
C676 H718 0.930 . S
C677 N673 1.279 . S
C677 C675 1.358 . S
C677 H719 0.930 . S
C678 C679 1.348 1_554 S
C678 C680 1.356 . S
C678 O703 1.325 . S
C679 C678 1.348 1_556 S
C679 C681 1.363 . S
C679 H720 0.929 . S
C680 C678 1.356 . S
C680 C682 1.358 . S
C680 H721 0.930 . S
C681 C679 1.363 . S
C681 N683 1.273 1_556 S
C681 H722 0.966 . S
C682 C680 1.358 . S
C682 N683 1.279 . S
C682 H723 0.930 . S
N683 C681 1.273 1_554 S
N683 C682 1.279 . S
C684 C686 1.353 . S
C684 N687 1.314 . S
C684 H690 0.930 . S
C685 N687 1.279 . S
C685 C688 1.358 . S
C685 H691 0.930 . S
C686 C684 1.353 . S
C686 C689 1.348 . S
C686 H724 0.929 . S
N687 Li642 1.990 . S
N687 C684 1.314 . S
N687 C685 1.279 . S
C688 C685 1.358 . S
C688 C689 1.356 . S
C688 H725 0.930 . S
C689 C686 1.348 . S
C689 C688 1.356 . S
H690 C684 0.930 . S
H691 C685 0.930 . S
C692 N693 1.314 . S
C692 C694 1.353 . S
C692 H698 0.930 . S
N693 Li643 1.990 . S
N693 C692 1.314 . S
N693 C696 1.279 . S
C694 C692 1.353 . S
C694 C697 1.348 . S
C694 H726 0.929 . S
C695 C696 1.358 . S
C695 C697 1.356 . S
C695 H727 0.930 . S
C696 N693 1.279 . S
C696 C695 1.358 . S
C696 H699 0.930 . S
C697 C694 1.348 . S
C697 C695 1.356 . S
H698 C692 0.930 . S
H699 C696 0.930 . S
O700 Li640 1.956 . S
O700 Li641 1.970 . S
O700 Li642 1.961 1_554 S
O700 C644 1.323 1_554 S
O701 Li640 1.970 . S
O701 Li641 1.956 . S
O701 Li643 1.961 . S
O701 C650 1.325 . S
O702 Li640 1.961 1_556 S
O702 Li642 1.956 . S
O702 Li643 1.970 1_556 S
O702 C672 1.325 . S
O703 Li641 1.961 . S
O703 Li642 1.970 1_554 S
O703 Li643 1.956 . S
O703 C678 1.325 . S
H704 C646 0.929 . S
H705 C647 0.930 . S
H706 C648 0.930 . S
H707 C649 0.930 . S
H708 C651 0.930 . S
H709 C653 0.929 . S
H710 C654 0.930 . S
H711 C655 0.930 . S
H712 C658 0.930 . S
H713 C661 0.929 . S
H714 C666 0.929 . S
H715 C667 0.930 . S
H716 C674 0.929 . S
H717 C675 0.930 . S
H718 C676 0.930 . S
H719 C677 0.930 . S
H720 C679 0.929 . S
H721 C680 0.930 . S
H722 C681 0.966 . S
H723 C682 0.930 . S
H724 C686 0.929 . S
H725 C688 0.930 . S
H726 C694 0.929 . S
H727 C695 0.930 . S
Li728 N745 1.990 . S
Li728 O788 1.956 . S
Li728 O789 1.970 . S
Li728 O790 1.961 . S
Li729 N753 1.990 . S
Li729 O788 1.970 . S
Li729 O789 1.956 . S
Li729 O791 1.961 . S
Li730 N775 1.990 . S
Li730 O788 1.961 . S
Li730 O790 1.956 . S
Li730 O791 1.970 . S
Li731 N781 1.990 . S
Li731 O789 1.961 . S
Li731 O790 1.970 . S
Li731 O791 1.956 . S
C732 C734 1.348 . S
C732 C735 1.356 . S
C732 O788 1.325 . S
N733 C736 1.314 . S
N733 C737 1.279 . S
C734 C732 1.348 . S
C734 C736 1.353 . S
C734 H792 0.929 . S
C735 C732 1.356 . S
C735 C737 1.358 . S
C735 H793 0.930 . S
C736 N733 1.314 . S
C736 C734 1.353 . S
C736 H794 0.930 . S
C737 N733 1.279 . S
C737 C735 1.358 . S
C737 H795 0.930 . S
C738 C741 1.348 . S
C738 C742 1.356 . S
C738 O789 1.325 . S
C739 N740 1.279 . S
C739 C742 1.358 . S
C739 H796 0.930 . S
N740 C739 1.279 . S
N740 C743 1.314 . S
C741 C738 1.348 . S
C741 C743 1.353 . S
C741 H797 0.929 . S
C742 C738 1.356 . S
C742 C739 1.358 . S
C742 H798 0.930 . S
C743 N740 1.314 . S
C743 C741 1.353 . S
C743 H799 0.930 . S
C744 N745 1.314 . S
C744 C749 1.353 . S
C744 H750 0.930 . S
N745 Li728 1.990 . S
N745 C744 1.314 . S
N745 C747 1.279 . S
C746 C747 1.358 . S
C746 C748 1.356 . S
C746 H800 0.930 . S
C747 N745 1.279 . S
C747 C746 1.358 . S
C747 H751 0.930 . S
C748 C746 1.356 . S
C748 C749 1.348 . S
C749 C744 1.353 . S
C749 C748 1.348 . S
C749 H801 0.929 . S
H750 C744 0.930 . S
H751 C747 0.930 . S
C752 N753 1.314 . S
C752 C754 1.353 . S
C752 H758 0.930 . S
N753 Li729 1.990 . S
N753 C752 1.314 . S
N753 C756 1.279 . S
C754 C752 1.353 . S
C754 C757 1.348 . S
C754 H802 0.929 . S
C755 C756 1.358 . S
C755 C757 1.356 . S
C755 H803 0.930 . S
C756 N753 1.279 . S
C756 C755 1.358 . S
C756 H759 0.930 . S
C757 C754 1.348 . S
C757 C755 1.356 . S
H758 C752 0.930 . S
H759 C756 0.930 . S
C760 C762 1.348 . S
C760 C763 1.356 . S
C760 O790 1.325 . S
N761 C764 1.314 . S
N761 C765 1.279 . S
C762 C760 1.348 . S
C762 C764 1.353 . S
C762 H804 0.929 . S
C763 C760 1.356 . S
C763 C765 1.358 . S
C763 H805 0.930 . S
C764 N761 1.314 . S
C764 C762 1.353 . S
C764 H806 0.930 . S
C765 N761 1.279 . S
C765 C763 1.358 . S
C765 H807 0.930 . S
C766 C767 1.348 . S
C766 C768 1.356 . S
C766 O791 1.325 . S
C767 C766 1.348 . S
C767 C769 1.353 . S
C767 H808 0.929 . S
C768 C766 1.356 . S
C768 C770 1.358 . S
C768 H809 0.930 . S
C769 C767 1.353 . S
C769 N771 1.314 . S
C769 H810 0.930 . S
C770 C768 1.358 . S
C770 N771 1.279 . S
C770 H811 0.930 . S
N771 C769 1.314 . S
N771 C770 1.279 . S
C772 C774 1.353 . S
C772 N775 1.314 . S
C772 H778 0.930 . S
C773 N775 1.279 . S
C773 C776 1.358 . S
C773 H779 0.930 . S
C774 C772 1.353 . S
C774 C777 1.348 . S
C774 H812 0.929 . S
N775 Li730 1.990 . S
N775 C772 1.314 . S
N775 C773 1.279 . S
C776 C773 1.358 . S
C776 C777 1.356 . S
C776 H813 0.930 . S
C777 C774 1.348 . S
C777 C776 1.356 . S
H778 C772 0.930 . S
H779 C773 0.930 . S
C780 N781 1.314 . S
C780 C782 1.353 . S
C780 H786 0.930 . S
N781 Li731 1.990 . S
N781 C780 1.314 . S
N781 C784 1.279 . S
C782 C780 1.353 . S
C782 C785 1.348 . S
C782 H814 0.929 . S
C783 C784 1.358 . S
C783 C785 1.356 . S
C783 H815 0.930 . S
C784 N781 1.279 . S
C784 C783 1.358 . S
C784 H787 0.930 . S
C785 C782 1.348 . S
C785 C783 1.356 . S
H786 C780 0.930 . S
H787 C784 0.930 . S
O788 Li728 1.956 . S
O788 Li729 1.970 . S
O788 Li730 1.961 . S
O788 C732 1.325 . S
O789 Li728 1.970 . S
O789 Li729 1.956 . S
O789 Li731 1.961 . S
O789 C738 1.325 . S
O790 Li728 1.961 . S
O790 Li730 1.956 . S
O790 Li731 1.970 . S
O790 C760 1.325 . S
O791 Li729 1.961 . S
O791 Li730 1.970 . S
O791 Li731 1.956 . S
O791 C766 1.325 . S
H792 C734 0.929 . S
H793 C735 0.930 . S
H794 C736 0.930 . S
H795 C737 0.930 . S
H796 C739 0.930 . S
H797 C741 0.929 . S
H798 C742 0.930 . S
H799 C743 0.930 . S
H800 C746 0.930 . S
H801 C749 0.929 . S
H802 C754 0.929 . S
H803 C755 0.930 . S
H804 C762 0.929 . S
H805 C763 0.930 . S
H806 C764 0.930 . S
H807 C765 0.930 . S
H808 C767 0.929 . S
H809 C768 0.930 . S
H810 C769 0.930 . S
H811 C770 0.930 . S
H812 C774 0.929 . S
H813 C776 0.930 . S
H814 C782 0.929 . S
H815 C783 0.930 . S
Li816 N833 1.990 . S
Li816 O876 1.956 . S
Li816 O877 1.970 1_556 S
Li816 O878 1.961 . S
Li817 N841 1.990 . S
Li817 O876 1.970 1_554 S
Li817 O877 1.956 . S
Li817 O879 1.961 . S
Li818 N863 1.990 . S
Li818 O876 1.961 . S
Li818 O878 1.956 . S
Li818 O879 1.970 1_556 S
Li819 N869 1.990 . S
Li819 O877 1.961 . S
Li819 O878 1.970 1_554 S
Li819 O879 1.956 . S
C820 C822 1.348 1_556 S
C820 C823 1.356 . S
C820 O876 1.325 . S
N821 C824 1.314 1_556 S
N821 C825 1.279 . S
C822 C820 1.348 1_554 S
C822 C824 1.353 . S
C822 H880 0.929 . S
C823 C820 1.356 . S
C823 C825 1.358 . S
C823 H881 0.930 . S
C824 N821 1.314 1_554 S
C824 C822 1.353 . S
C824 H882 0.930 . S
C825 N821 1.279 . S
C825 C823 1.358 . S
C825 H883 0.930 . S
C826 C829 1.348 . S
C826 C830 1.356 . S
C826 O877 1.325 . S
C827 N828 1.279 . S
C827 C830 1.358 . S
C827 H884 0.930 . S
N828 C827 1.279 . S
N828 C831 1.314 . S
C829 C826 1.348 . S
C829 C831 1.353 . S
C829 H885 0.929 . S
C830 C826 1.356 . S
C830 C827 1.358 . S
C830 H886 0.930 . S
C831 N828 1.314 . S
C831 C829 1.353 . S
C831 H887 0.930 . S
C832 N833 1.314 . S
C832 C837 1.353 . S
C832 H838 0.930 . S
N833 Li816 1.990 . S
N833 C832 1.314 . S
N833 C835 1.279 . S
C834 C835 1.358 . S
C834 C836 1.356 . S
C834 H888 0.930 . S
C835 N833 1.279 . S
C835 C834 1.358 . S
C835 H839 0.930 . S
C836 C834 1.356 . S
C836 C837 1.348 . S
C837 C832 1.353 . S
C837 C836 1.348 . S
C837 H889 0.929 . S
H838 C832 0.930 . S
H839 C835 0.930 . S
C840 N841 1.314 . S
C840 C842 1.353 . S
C840 H846 0.930 . S
N841 Li817 1.990 . S
N841 C840 1.314 . S
N841 C844 1.279 . S
C842 C840 1.353 . S
C842 C845 1.348 . S
C842 H890 0.929 . S
C843 C844 1.358 . S
C843 C845 1.356 . S
C843 H891 0.930 . S
C844 N841 1.279 . S
C844 C843 1.358 . S
C844 H847 0.930 . S
C845 C842 1.348 . S
C845 C843 1.356 . S
H846 C840 0.930 . S
H847 C844 0.930 . S
C848 C850 1.348 . S
C848 C851 1.356 . S
C848 O878 1.325 . S
N849 C852 1.314 . S
N849 C853 1.279 . S
C850 C848 1.348 . S
C850 C852 1.353 . S
C850 H892 0.929 . S
C851 C848 1.356 . S
C851 C853 1.358 . S
C851 H893 0.930 . S
C852 N849 1.314 . S
C852 C850 1.353 . S
C852 H894 0.930 . S
C853 N849 1.279 . S
C853 C851 1.358 . S
C853 H895 0.930 . S
C854 C855 1.348 1_554 S
C854 C856 1.356 . S
C854 O879 1.325 . S
C855 C854 1.348 1_556 S
C855 C857 1.353 . S
C855 H896 0.929 . S
C856 C854 1.356 . S
C856 C858 1.358 . S
C856 H897 0.930 . S
C857 C855 1.353 . S
C857 N859 1.314 1_556 S
C857 H898 0.930 . S
C858 C856 1.358 . S
C858 N859 1.279 . S
C858 H899 0.930 . S
N859 C857 1.314 1_554 S
N859 C858 1.279 . S
C860 C862 1.353 . S
C860 N863 1.314 . S
C860 H866 0.930 . S
C861 N863 1.279 . S
C861 C864 1.358 . S
C861 H867 0.930 . S
C862 C860 1.353 . S
C862 C865 1.348 . S
C862 H900 0.929 . S
N863 Li818 1.990 . S
N863 C860 1.314 . S
N863 C861 1.279 . S
C864 C861 1.358 . S
C864 C865 1.356 . S
C864 H901 0.930 . S
C865 C862 1.348 . S
C865 C864 1.356 . S
H866 C860 0.930 . S
H867 C861 0.930 . S
C868 N869 1.314 . S
C868 C870 1.353 . S
C868 H874 0.930 . S
N869 Li819 1.990 . S
N869 C868 1.314 . S
N869 C872 1.279 . S
C870 C868 1.353 . S
C870 C873 1.348 . S
C870 H902 0.929 . S
C871 C872 1.358 . S
C871 C873 1.356 . S
C871 H903 0.930 . S
C872 N869 1.279 . S
C872 C871 1.358 . S
C872 H875 0.930 . S
C873 C870 1.348 . S
C873 C871 1.356 . S
H874 C868 0.930 . S
H875 C872 0.930 . S
O876 Li816 1.956 . S
O876 Li817 1.970 1_556 S
O876 Li818 1.961 . S
O876 C820 1.325 . S
O877 Li816 1.970 1_554 S
O877 Li817 1.956 . S
O877 Li819 1.961 . S
O877 C826 1.325 . S
O878 Li816 1.961 . S
O878 Li818 1.956 . S
O878 Li819 1.970 1_556 S
O878 C848 1.325 . S
O879 Li817 1.961 . S
O879 Li818 1.970 1_554 S
O879 Li819 1.956 . S
O879 C854 1.325 . S
H880 C822 0.929 . S
H881 C823 0.930 . S
H882 C824 0.930 . S
H883 C825 0.930 . S
H884 C827 0.930 . S
H885 C829 0.929 . S
H886 C830 0.930 . S
H887 C831 0.930 . S
H888 C834 0.930 . S
H889 C837 0.929 . S
H890 C842 0.929 . S
H891 C843 0.930 . S
H892 C850 0.929 . S
H893 C851 0.930 . S
H894 C852 0.930 . S
H895 C853 0.930 . S
H896 C855 0.929 . S
H897 C856 0.930 . S
H898 C857 0.930 . S
H899 C858 0.930 . S
H900 C862 0.929 . S
H901 C864 0.930 . S
H902 C870 0.929 . S
H903 C871 0.930 . S
Li904 N921 1.990 . S
Li904 O964 1.956 . S
Li904 O965 1.970 1_545 S
Li904 O966 1.961 . S
Li905 N929 1.990 . S
Li905 O964 1.970 1_565 S
Li905 O965 1.956 . S
Li905 O967 1.961 . S
Li906 N951 1.990 . S
Li906 O964 1.961 . S
Li906 O966 1.956 . S
Li906 O967 1.970 1_545 S
Li907 N957 1.990 . S
Li907 O965 1.961 . S
Li907 O966 1.970 1_565 S
Li907 O967 1.956 . S
C908 C910 1.348 . S
C908 C911 1.356 . S
C908 O964 1.325 . S
N909 C912 1.314 . S
N909 C913 1.279 . S
C910 C908 1.348 . S
C910 C912 1.353 . S
C910 H968 0.929 . S
C911 C908 1.356 . S
C911 C913 1.358 . S
C911 H969 0.930 . S
C912 N909 1.314 . S
C912 C910 1.353 . S
C912 H970 0.930 . S
C913 N909 1.279 . S
C913 C911 1.358 . S
C913 H971 0.930 . S
C914 C917 1.348 1_565 S
C914 C918 1.356 . S
C914 O965 1.325 . S
C915 N916 1.279 . S
C915 C918 1.358 . S
C915 H972 0.930 . S
N916 C915 1.279 . S
N916 C919 1.314 1_565 S
C917 C914 1.348 1_545 S
C917 C919 1.353 . S
C917 H973 0.929 . S
C918 C914 1.356 . S
C918 C915 1.358 . S
C918 H974 0.930 . S
C919 N916 1.314 1_545 S
C919 C917 1.353 . S
C919 H975 0.930 . S
C920 N921 1.314 . S
C920 C925 1.353 . S
C920 H926 0.930 . S
N921 Li904 1.990 . S
N921 C920 1.314 . S
N921 C923 1.279 . S
C922 C923 1.358 . S
C922 C924 1.356 . S
C922 H976 0.930 . S
C923 N921 1.279 . S
C923 C922 1.358 . S
C923 H927 0.930 . S
C924 C922 1.356 . S
C924 C925 1.348 . S
C925 C920 1.353 . S
C925 C924 1.348 . S
C925 H977 0.929 . S
H926 C920 0.930 . S
H927 C923 0.930 . S
C928 N929 1.314 . S
C928 C930 1.353 . S
C928 H934 0.930 . S
N929 Li905 1.990 . S
N929 C928 1.314 . S
N929 C932 1.279 . S
C930 C928 1.353 . S
C930 C933 1.348 . S
C930 H978 0.929 . S
C931 C932 1.358 . S
C931 C933 1.356 . S
C931 H979 0.930 . S
C932 N929 1.279 . S
C932 C931 1.358 . S
C932 H935 0.930 . S
C933 C930 1.348 . S
C933 C931 1.356 . S
H934 C928 0.930 . S
H935 C932 0.930 . S
C936 C938 1.348 1_545 S
C936 C939 1.356 . S
C936 O966 1.325 . S
N937 C940 1.314 1_545 S
N937 C941 1.279 . S
C938 C936 1.348 1_565 S
C938 C940 1.353 . S
C938 H980 0.929 . S
C939 C936 1.356 . S
C939 C941 1.358 . S
C939 H981 0.930 . S
C940 N937 1.314 1_565 S
C940 C938 1.353 . S
C940 H982 0.930 . S
C941 N937 1.279 . S
C941 C939 1.358 . S
C941 H983 0.930 . S
C942 C943 1.348 . S
C942 C944 1.356 . S
C942 O967 1.325 . S
C943 C942 1.348 . S
C943 C945 1.353 . S
C943 H984 0.929 . S
C944 C942 1.356 . S
C944 C946 1.358 . S
C944 H985 0.930 . S
C945 C943 1.353 . S
C945 N947 1.314 . S
C945 H986 0.930 . S
C946 C944 1.358 . S
C946 N947 1.279 . S
C946 H987 0.930 . S
N947 C945 1.314 . S
N947 C946 1.279 . S
C948 C950 1.353 . S
C948 N951 1.314 . S
C948 H954 0.930 . S
C949 N951 1.279 . S
C949 C952 1.358 . S
C949 H955 0.930 . S
C950 C948 1.353 . S
C950 C953 1.348 . S
C950 H988 0.929 . S
N951 Li906 1.990 . S
N951 C948 1.314 . S
N951 C949 1.279 . S
C952 C949 1.358 . S
C952 C953 1.356 . S
C952 H989 0.930 . S
C953 C950 1.348 . S
C953 C952 1.356 . S
H954 C948 0.930 . S
H955 C949 0.930 . S
C956 N957 1.314 . S
C956 C958 1.353 . S
C956 H962 0.930 . S
N957 Li907 1.990 . S
N957 C956 1.314 . S
N957 C960 1.279 . S
C958 C956 1.353 . S
C958 C961 1.348 . S
C958 H990 0.929 . S
C959 C960 1.358 . S
C959 C961 1.356 . S
C959 H991 0.930 . S
C960 N957 1.279 . S
C960 C959 1.358 . S
C960 H963 0.930 . S
C961 C958 1.348 . S
C961 C959 1.356 . S
H962 C956 0.930 . S
H963 C960 0.930 . S
O964 Li904 1.956 . S
O964 Li905 1.970 1_545 S
O964 Li906 1.961 . S
O964 C908 1.325 . S
O965 Li904 1.970 1_565 S
O965 Li905 1.956 . S
O965 Li907 1.961 . S
O965 C914 1.325 . S
O966 Li904 1.961 . S
O966 Li906 1.956 . S
O966 Li907 1.970 1_545 S
O966 C936 1.325 . S
O967 Li905 1.961 . S
O967 Li906 1.970 1_565 S
O967 Li907 1.956 . S
O967 C942 1.325 . S
H968 C910 0.929 . S
H969 C911 0.930 . S
H970 C912 0.930 . S
H971 C913 0.930 . S
H972 C915 0.930 . S
H973 C917 0.929 . S
H974 C918 0.930 . S
H975 C919 0.930 . S
H976 C922 0.930 . S
H977 C925 0.929 . S
H978 C930 0.929 . S
H979 C931 0.930 . S
H980 C938 0.929 . S
H981 C939 0.930 . S
H982 C940 0.930 . S
H983 C941 0.930 . S
H984 C943 0.929 . S
H985 C944 0.930 . S
H986 C945 0.930 . S
H987 C946 0.930 . S
H988 C950 0.929 . S
H989 C952 0.930 . S
H990 C958 0.929 . S
H991 C959 0.930 . S
Li992 N1009 1.990 . S
Li992 O1052 1.956 . S
Li992 O1053 1.970 . S
Li992 O1054 1.961 . S
Li993 N1017 1.990 . S
Li993 O1052 1.970 . S
Li993 O1053 1.956 . S
Li993 O1055 1.961 . S
Li994 N1039 1.990 . S
Li994 O1052 1.961 . S
Li994 O1054 1.956 . S
Li994 O1055 1.970 . S
Li995 N1045 1.990 . S
Li995 O1053 1.961 . S
Li995 O1054 1.970 . S
Li995 O1055 1.956 . S
C996 C998 1.348 . S
C996 C999 1.356 . S
C996 O1052 1.325 . S
N997 C1000 1.314 . S
N997 C1001 1.279 . S
C998 C996 1.348 . S
C998 C1000 1.353 . S
C998 H1056 0.929 . S
C999 C996 1.356 . S
C999 C1001 1.358 . S
C999 H1057 0.930 . S
C1000 N997 1.314 . S
C1000 C998 1.353 . S
C1000 H1058 0.930 . S
C1001 N997 1.279 . S
C1001 C999 1.358 . S
C1001 H1059 0.930 . S
C1002 C1005 1.348 . S
C1002 C1006 1.356 . S
C1002 O1053 1.325 . S
C1003 N1004 1.279 . S
C1003 C1006 1.358 . S
C1003 H1060 0.930 . S
N1004 C1003 1.279 . S
N1004 C1007 1.314 . S
C1005 C1002 1.348 . S
C1005 C1007 1.353 . S
C1005 H1061 0.929 . S
C1006 C1002 1.356 . S
C1006 C1003 1.358 . S
C1006 H1062 0.930 . S
C1007 N1004 1.314 . S
C1007 C1005 1.353 . S
C1007 H1063 0.930 . S
C1008 N1009 1.314 . S
C1008 C1013 1.353 . S
C1008 H1014 0.930 . S
N1009 Li992 1.990 . S
N1009 C1008 1.314 . S
N1009 C1011 1.279 . S
C1010 C1011 1.358 . S
C1010 C1012 1.356 . S
C1010 H1064 0.930 . S
C1011 N1009 1.279 . S
C1011 C1010 1.358 . S
C1011 H1015 0.930 . S
C1012 C1010 1.356 . S
C1012 C1013 1.348 . S
C1013 C1008 1.353 . S
C1013 C1012 1.348 . S
C1013 H1065 0.929 . S
H1014 C1008 0.930 . S
H1015 C1011 0.930 . S
C1016 N1017 1.314 . S
C1016 C1018 1.353 . S
C1016 H1022 0.930 . S
N1017 Li993 1.990 . S
N1017 C1016 1.314 . S
N1017 C1020 1.279 . S
C1018 C1016 1.353 . S
C1018 C1021 1.348 . S
C1018 H1066 0.929 . S
C1019 C1020 1.358 . S
C1019 C1021 1.356 . S
C1019 H1067 0.930 . S
C1020 N1017 1.279 . S
C1020 C1019 1.358 . S
C1020 H1023 0.930 . S
C1021 C1018 1.348 . S
C1021 C1019 1.356 . S
H1022 C1016 0.930 . S
H1023 C1020 0.930 . S
C1024 C1026 1.348 . S
C1024 C1027 1.356 . S
C1024 O1054 1.325 . S
N1025 C1028 1.314 . S
N1025 C1029 1.279 . S
C1026 C1024 1.348 . S
C1026 C1028 1.353 . S
C1026 H1068 0.929 . S
C1027 C1024 1.356 . S
C1027 C1029 1.358 . S
C1027 H1069 0.930 . S
C1028 N1025 1.314 . S
C1028 C1026 1.353 . S
C1028 H1070 0.930 . S
C1029 N1025 1.279 . S
C1029 C1027 1.358 . S
C1029 H1071 0.930 . S
C1030 C1031 1.348 . S
C1030 C1032 1.356 . S
C1030 O1055 1.325 . S
C1031 C1030 1.348 . S
C1031 C1033 1.353 . S
C1031 H1072 0.929 . S
C1032 C1030 1.356 . S
C1032 C1034 1.358 . S
C1032 H1073 0.930 . S
C1033 C1031 1.353 . S
C1033 N1035 1.314 . S
C1033 H1074 0.930 . S
C1034 C1032 1.358 . S
C1034 N1035 1.279 . S
C1034 H1075 0.930 . S
N1035 C1033 1.314 . S
N1035 C1034 1.279 . S
C1036 C1038 1.353 . S
C1036 N1039 1.314 . S
C1036 H1042 0.930 . S
C1037 N1039 1.279 . S
C1037 C1040 1.358 . S
C1037 H1043 0.930 . S
C1038 C1036 1.353 . S
C1038 C1041 1.348 . S
C1038 H1076 0.929 . S
N1039 Li994 1.990 . S
N1039 C1036 1.314 . S
N1039 C1037 1.279 . S
C1040 C1037 1.358 . S
C1040 C1041 1.356 . S
C1040 H1077 0.930 . S
C1041 C1038 1.348 . S
C1041 C1040 1.356 . S
H1042 C1036 0.930 . S
H1043 C1037 0.930 . S
C1044 N1045 1.314 . S
C1044 C1046 1.353 . S
C1044 H1050 0.930 . S
N1045 Li995 1.990 . S
N1045 C1044 1.314 . S
N1045 C1048 1.279 . S
C1046 C1044 1.353 . S
C1046 C1049 1.348 . S
C1046 H1078 0.929 . S
C1047 C1048 1.358 . S
C1047 C1049 1.356 . S
C1047 H1079 0.930 . S
C1048 N1045 1.279 . S
C1048 C1047 1.358 . S
C1048 H1051 0.930 . S
C1049 C1046 1.348 . S
C1049 C1047 1.356 . S
H1050 C1044 0.930 . S
H1051 C1048 0.930 . S
O1052 Li992 1.956 . S
O1052 Li993 1.970 . S
O1052 Li994 1.961 . S
O1052 C996 1.325 . S
O1053 Li992 1.970 . S
O1053 Li993 1.956 . S
O1053 Li995 1.961 . S
O1053 C1002 1.325 . S
O1054 Li992 1.961 . S
O1054 Li994 1.956 . S
O1054 Li995 1.970 . S
O1054 C1024 1.325 . S
O1055 Li993 1.961 . S
O1055 Li994 1.970 . S
O1055 Li995 1.956 . S
O1055 C1030 1.325 . S
H1056 C998 0.929 . S
H1057 C999 0.930 . S
H1058 C1000 0.930 . S
H1059 C1001 0.930 . S
H1060 C1003 0.930 . S
H1061 C1005 0.929 . S
H1062 C1006 0.930 . S
H1063 C1007 0.930 . S
H1064 C1010 0.930 . S
H1065 C1013 0.929 . S
H1066 C1018 0.929 . S
H1067 C1019 0.930 . S
H1068 C1026 0.929 . S
H1069 C1027 0.930 . S
H1070 C1028 0.930 . S
H1071 C1029 0.930 . S
H1072 C1031 0.929 . S
H1073 C1032 0.930 . S
H1074 C1033 0.930 . S
H1075 C1034 0.930 . S
H1076 C1038 0.929 . S
H1077 C1040 0.930 . S
H1078 C1046 0.929 . S
H1079 C1047 0.930 . S
Li1080 N1097 1.990 . S
Li1080 O1140 1.956 . S
Li1080 O1141 1.970 . S
Li1080 O1142 1.961 . S
Li1081 N1105 1.990 . S
Li1081 O1140 1.970 . S
Li1081 O1141 1.956 . S
Li1081 O1143 1.961 . S
Li1082 N1127 1.990 . S
Li1082 O1140 1.961 . S
Li1082 O1142 1.956 . S
Li1082 O1143 1.970 . S
Li1083 N1133 1.990 . S
Li1083 O1141 1.961 . S
Li1083 O1142 1.970 . S
Li1083 O1143 1.956 . S
C1084 C1086 1.348 . S
C1084 C1087 1.356 . S
C1084 O1140 1.325 . S
N1085 C1088 1.314 . S
N1085 C1089 1.279 . S
C1086 C1084 1.348 . S
C1086 C1088 1.353 . S
C1086 H1144 0.929 . S
C1087 C1084 1.356 . S
C1087 C1089 1.358 . S
C1087 H1145 0.930 . S
C1088 N1085 1.314 . S
C1088 C1086 1.353 . S
C1088 H1146 0.930 . S
C1089 N1085 1.279 . S
C1089 C1087 1.358 . S
C1089 H1147 0.930 . S
C1090 C1093 1.348 . S
C1090 C1094 1.356 . S
C1090 O1141 1.325 . S
C1091 N1092 1.279 . S
C1091 C1094 1.358 . S
C1091 H1148 0.930 . S
N1092 C1091 1.279 . S
N1092 C1095 1.314 . S
C1093 C1090 1.348 . S
C1093 C1095 1.353 . S
C1093 H1149 0.929 . S
C1094 C1090 1.356 . S
C1094 C1091 1.358 . S
C1094 H1150 0.930 . S
C1095 N1092 1.314 . S
C1095 C1093 1.353 . S
C1095 H1151 0.930 . S
C1096 N1097 1.314 . S
C1096 C1101 1.353 . S
C1096 H1102 0.930 . S
N1097 Li1080 1.990 . S
N1097 C1096 1.314 . S
N1097 C1099 1.279 . S
C1098 C1099 1.358 . S
C1098 C1100 1.356 . S
C1098 H1152 0.930 . S
C1099 N1097 1.279 . S
C1099 C1098 1.358 . S
C1099 H1103 0.930 . S
C1100 C1098 1.356 . S
C1100 C1101 1.348 . S
C1101 C1096 1.353 . S
C1101 C1100 1.348 . S
C1101 H1153 0.929 . S
H1102 C1096 0.930 . S
H1103 C1099 0.930 . S
C1104 N1105 1.314 . S
C1104 C1106 1.353 . S
C1104 H1110 0.930 . S
N1105 Li1081 1.990 . S
N1105 C1104 1.314 . S
N1105 C1108 1.279 . S
C1106 C1104 1.353 . S
C1106 C1109 1.348 . S
C1106 H1154 0.929 . S
C1107 C1108 1.358 . S
C1107 C1109 1.356 . S
C1107 H1155 0.930 . S
C1108 N1105 1.279 . S
C1108 C1107 1.358 . S
C1108 H1111 0.930 . S
C1109 C1106 1.348 . S
C1109 C1107 1.356 . S
H1110 C1104 0.930 . S
H1111 C1108 0.930 . S
C1112 C1114 1.348 . S
C1112 C1115 1.356 . S
C1112 O1142 1.325 . S
N1113 C1116 1.314 . S
N1113 C1117 1.279 . S
C1114 C1112 1.348 . S
C1114 C1116 1.353 . S
C1114 H1156 0.929 . S
C1115 C1112 1.356 . S
C1115 C1117 1.358 . S
C1115 H1157 0.930 . S
C1116 N1113 1.314 . S
C1116 C1114 1.353 . S
C1116 H1158 0.930 . S
C1117 N1113 1.279 . S
C1117 C1115 1.358 . S
C1117 H1159 0.930 . S
C1118 C1119 1.348 . S
C1118 C1120 1.356 . S
C1118 O1143 1.325 . S
C1119 C1118 1.348 . S
C1119 C1121 1.353 . S
C1119 H1160 0.929 . S
C1120 C1118 1.356 . S
C1120 C1122 1.358 . S
C1120 H1161 0.930 . S
C1121 C1119 1.353 . S
C1121 N1123 1.314 . S
C1121 H1162 0.930 . S
C1122 C1120 1.358 . S
C1122 N1123 1.279 . S
C1122 H1163 0.930 . S
N1123 C1121 1.314 . S
N1123 C1122 1.279 . S
C1124 C1126 1.353 . S
C1124 N1127 1.314 . S
C1124 H1130 0.930 . S
C1125 N1127 1.279 . S
C1125 C1128 1.358 . S
C1125 H1131 0.930 . S
C1126 C1124 1.353 . S
C1126 C1129 1.348 . S
C1126 H1164 0.929 . S
N1127 Li1082 1.990 . S
N1127 C1124 1.314 . S
N1127 C1125 1.279 . S
C1128 C1125 1.358 . S
C1128 C1129 1.356 . S
C1128 H1165 0.930 . S
C1129 C1126 1.348 . S
C1129 C1128 1.356 . S
H1130 C1124 0.930 . S
H1131 C1125 0.930 . S
C1132 N1133 1.314 . S
C1132 C1134 1.353 . S
C1132 H1138 0.930 . S
N1133 Li1083 1.990 . S
N1133 C1132 1.314 . S
N1133 C1136 1.279 . S
C1134 C1132 1.353 . S
C1134 C1137 1.348 . S
C1134 H1166 0.929 . S
C1135 C1136 1.358 . S
C1135 C1137 1.356 . S
C1135 H1167 0.930 . S
C1136 N1133 1.279 . S
C1136 C1135 1.358 . S
C1136 H1139 0.930 . S
C1137 C1134 1.348 . S
C1137 C1135 1.356 . S
H1138 C1132 0.930 . S
H1139 C1136 0.930 . S
O1140 Li1080 1.956 . S
O1140 Li1081 1.970 . S
O1140 Li1082 1.961 . S
O1140 C1084 1.325 . S
O1141 Li1080 1.970 . S
O1141 Li1081 1.956 . S
O1141 Li1083 1.961 . S
O1141 C1090 1.325 . S
O1142 Li1080 1.961 . S
O1142 Li1082 1.956 . S
O1142 Li1083 1.970 . S
O1142 C1112 1.325 . S
O1143 Li1081 1.961 . S
O1143 Li1082 1.970 . S
O1143 Li1083 1.956 . S
O1143 C1118 1.325 . S
H1144 C1086 0.929 . S
H1145 C1087 0.930 . S
H1146 C1088 0.930 . S
H1147 C1089 0.930 . S
H1148 C1091 0.930 . S
H1149 C1093 0.929 . S
H1150 C1094 0.930 . S
H1151 C1095 0.930 . S
H1152 C1098 0.930 . S
H1153 C1101 0.929 . S
H1154 C1106 0.929 . S
H1155 C1107 0.930 . S
H1156 C1114 0.929 . S
H1157 C1115 0.930 . S
H1158 C1116 0.930 . S
H1159 C1117 0.930 . S
H1160 C1119 0.929 . S
H1161 C1120 0.930 . S
H1162 C1121 0.930 . S
H1163 C1122 0.930 . S
H1164 C1126 0.929 . S
H1165 C1128 0.930 . S
H1166 C1134 0.929 . S
H1167 C1135 0.930 . S
Li1168 N1185 1.990 . S
Li1168 O1228 1.956 . S
Li1168 O1229 1.970 . S
Li1168 O1230 1.961 . S
Li1169 N1193 1.990 . S
Li1169 O1228 1.970 . S
Li1169 O1229 1.956 . S
Li1169 O1231 1.961 . S
Li1170 N1215 1.990 . S
Li1170 O1228 1.961 . S
Li1170 O1230 1.956 . S
Li1170 O1231 1.970 . S
Li1171 N1221 1.990 . S
Li1171 O1229 1.961 . S
Li1171 O1230 1.970 . S
Li1171 O1231 1.956 . S
C1172 C1174 1.348 . S
C1172 C1175 1.356 . S
C1172 O1228 1.325 . S
N1173 C1176 1.314 . S
N1173 C1177 1.279 . S
C1174 C1172 1.348 . S
C1174 C1176 1.353 . S
C1174 H1232 0.929 . S
C1175 C1172 1.356 . S
C1175 C1177 1.358 . S
C1175 H1233 0.930 . S
C1176 N1173 1.314 . S
C1176 C1174 1.353 . S
C1176 H1234 0.930 . S
C1177 N1173 1.279 . S
C1177 C1175 1.358 . S
C1177 H1235 0.930 . S
C1178 C1181 1.348 . S
C1178 C1182 1.356 . S
C1178 O1229 1.325 . S
C1179 N1180 1.279 . S
C1179 C1182 1.358 . S
C1179 H1236 0.930 . S
N1180 C1179 1.279 . S
N1180 C1183 1.314 . S
C1181 C1178 1.348 . S
C1181 C1183 1.353 . S
C1181 H1237 0.929 . S
C1182 C1178 1.356 . S
C1182 C1179 1.358 . S
C1182 H1238 0.930 . S
C1183 N1180 1.314 . S
C1183 C1181 1.353 . S
C1183 H1239 0.930 . S
C1184 N1185 1.314 . S
C1184 C1189 1.353 . S
C1184 H1190 0.930 . S
N1185 Li1168 1.990 . S
N1185 C1184 1.314 . S
N1185 C1187 1.279 . S
C1186 C1187 1.358 . S
C1186 C1188 1.356 . S
C1186 H1240 0.930 . S
C1187 N1185 1.279 . S
C1187 C1186 1.358 . S
C1187 H1191 0.930 . S
C1188 C1186 1.356 . S
C1188 C1189 1.348 . S
C1189 C1184 1.353 . S
C1189 C1188 1.348 . S
C1189 H1241 0.929 . S
H1190 C1184 0.930 . S
H1191 C1187 0.930 . S
C1192 N1193 1.314 . S
C1192 C1194 1.353 . S
C1192 H1198 0.930 . S
N1193 Li1169 1.990 . S
N1193 C1192 1.314 . S
N1193 C1196 1.279 . S
C1194 C1192 1.353 . S
C1194 C1197 1.348 . S
C1194 H1242 0.929 . S
C1195 C1196 1.358 . S
C1195 C1197 1.356 . S
C1195 H1243 0.930 . S
C1196 N1193 1.279 . S
C1196 C1195 1.358 . S
C1196 H1199 0.930 . S
C1197 C1194 1.348 . S
C1197 C1195 1.356 . S
H1198 C1192 0.930 . S
H1199 C1196 0.930 . S
C1200 C1202 1.348 . S
C1200 C1203 1.356 . S
C1200 O1230 1.325 . S
N1201 C1204 1.314 . S
N1201 C1205 1.279 . S
C1202 C1200 1.348 . S
C1202 C1204 1.353 . S
C1202 H1244 0.929 . S
C1203 C1200 1.356 . S
C1203 C1205 1.358 . S
C1203 H1245 0.930 . S
C1204 N1201 1.314 . S
C1204 C1202 1.353 . S
C1204 H1246 0.930 . S
C1205 N1201 1.279 . S
C1205 C1203 1.358 . S
C1205 H1247 0.930 . S
C1206 C1207 1.348 . S
C1206 C1208 1.356 . S
C1206 O1231 1.325 . S
C1207 C1206 1.348 . S
C1207 C1209 1.353 . S
C1207 H1248 0.929 . S
C1208 C1206 1.356 . S
C1208 C1210 1.358 . S
C1208 H1249 0.930 . S
C1209 C1207 1.353 . S
C1209 N1211 1.314 . S
C1209 H1250 0.930 . S
C1210 C1208 1.358 . S
C1210 N1211 1.279 . S
C1210 H1251 0.930 . S
N1211 C1209 1.314 . S
N1211 C1210 1.279 . S
C1212 C1214 1.353 . S
C1212 N1215 1.314 . S
C1212 H1218 0.930 . S
C1213 N1215 1.279 . S
C1213 C1216 1.358 . S
C1213 H1219 0.930 . S
C1214 C1212 1.353 . S
C1214 C1217 1.348 . S
C1214 H1252 0.929 . S
N1215 Li1170 1.990 . S
N1215 C1212 1.314 . S
N1215 C1213 1.279 . S
C1216 C1213 1.358 . S
C1216 C1217 1.356 . S
C1216 H1253 0.930 . S
C1217 C1214 1.348 . S
C1217 C1216 1.356 . S
H1218 C1212 0.930 . S
H1219 C1213 0.930 . S
C1220 N1221 1.314 . S
C1220 C1222 1.353 . S
C1220 H1226 0.930 . S
N1221 Li1171 1.990 . S
N1221 C1220 1.314 . S
N1221 C1224 1.279 . S
C1222 C1220 1.353 . S
C1222 C1225 1.348 . S
C1222 H1254 0.929 . S
C1223 C1224 1.358 . S
C1223 C1225 1.356 . S
C1223 H1255 0.930 . S
C1224 N1221 1.279 . S
C1224 C1223 1.358 . S
C1224 H1227 0.930 . S
C1225 C1222 1.348 . S
C1225 C1223 1.356 . S
H1226 C1220 0.930 . S
H1227 C1224 0.930 . S
O1228 Li1168 1.956 . S
O1228 Li1169 1.970 . S
O1228 Li1170 1.961 . S
O1228 C1172 1.325 . S
O1229 Li1168 1.970 . S
O1229 Li1169 1.956 . S
O1229 Li1171 1.961 . S
O1229 C1178 1.325 . S
O1230 Li1168 1.961 . S
O1230 Li1170 1.956 . S
O1230 Li1171 1.970 . S
O1230 C1200 1.325 . S
O1231 Li1169 1.961 . S
O1231 Li1170 1.970 . S
O1231 Li1171 1.956 . S
O1231 C1206 1.325 . S
H1232 C1174 0.929 . S
H1233 C1175 0.930 . S
H1234 C1176 0.930 . S
H1235 C1177 0.930 . S
H1236 C1179 0.930 . S
H1237 C1181 0.929 . S
H1238 C1182 0.930 . S
H1239 C1183 0.930 . S
H1240 C1186 0.930 . S
H1241 C1189 0.929 . S
H1242 C1194 0.929 . S
H1243 C1195 0.930 . S
H1244 C1202 0.929 . S
H1245 C1203 0.930 . S
H1246 C1204 0.930 . S
H1247 C1205 0.930 . S
H1248 C1207 0.929 . S
H1249 C1208 0.930 . S
H1250 C1209 0.930 . S
H1251 C1210 0.930 . S
H1252 C1214 0.929 . S
H1253 C1216 0.930 . S
H1254 C1222 0.929 . S
H1255 C1223 0.930 . S
Li1256 N1273 1.990 . S
Li1256 O1316 1.956 . S
Li1256 O1317 1.970 1_565 S
Li1256 O1318 1.961 . S
Li1257 N1281 1.990 . S
Li1257 O1316 1.970 1_545 S
Li1257 O1317 1.956 . S
Li1257 O1319 1.961 . S
Li1258 N1303 1.990 . S
Li1258 O1316 1.961 . S
Li1258 O1318 1.956 . S
Li1258 O1319 1.970 1_565 S
Li1259 N1309 1.990 . S
Li1259 O1317 1.961 . S
Li1259 O1318 1.970 1_545 S
Li1259 O1319 1.956 . S
C1260 C1262 1.348 . S
C1260 C1263 1.356 . S
C1260 O1316 1.325 . S
N1261 C1264 1.314 . S
N1261 C1265 1.279 . S
C1262 C1260 1.348 . S
C1262 C1264 1.353 . S
C1262 H1320 0.929 . S
C1263 C1260 1.356 . S
C1263 C1265 1.358 . S
C1263 H1321 0.930 . S
C1264 N1261 1.314 . S
C1264 C1262 1.353 . S
C1264 H1322 0.930 . S
C1265 N1261 1.279 . S
C1265 C1263 1.358 . S
C1265 H1323 0.930 . S
C1266 C1269 1.348 1_545 S
C1266 C1270 1.356 . S
C1266 O1317 1.325 . S
C1267 N1268 1.279 . S
C1267 C1270 1.358 . S
C1267 H1324 0.930 . S
N1268 C1267 1.279 . S
N1268 C1271 1.314 1_545 S
C1269 C1266 1.348 1_565 S
C1269 C1271 1.353 . S
C1269 H1325 0.929 . S
C1270 C1266 1.356 . S
C1270 C1267 1.358 . S
C1270 H1326 0.930 . S
C1271 N1268 1.314 1_565 S
C1271 C1269 1.353 . S
C1271 H1327 0.930 . S
C1272 N1273 1.314 . S
C1272 C1277 1.353 . S
C1272 H1278 0.930 . S
N1273 Li1256 1.990 . S
N1273 C1272 1.314 . S
N1273 C1275 1.279 . S
C1274 C1275 1.358 . S
C1274 C1276 1.356 . S
C1274 H1328 0.930 . S
C1275 N1273 1.279 . S
C1275 C1274 1.358 . S
C1275 H1279 0.930 . S
C1276 C1274 1.356 . S
C1276 C1277 1.348 . S
C1277 C1272 1.353 . S
C1277 C1276 1.348 . S
C1277 H1329 0.929 . S
H1278 C1272 0.930 . S
H1279 C1275 0.930 . S
C1280 N1281 1.314 . S
C1280 C1282 1.353 . S
C1280 H1286 0.930 . S
N1281 Li1257 1.990 . S
N1281 C1280 1.314 . S
N1281 C1284 1.279 . S
C1282 C1280 1.353 . S
C1282 C1285 1.348 . S
C1282 H1330 0.929 . S
C1283 C1284 1.358 . S
C1283 C1285 1.356 . S
C1283 H1331 0.930 . S
C1284 N1281 1.279 . S
C1284 C1283 1.358 . S
C1284 H1287 0.930 . S
C1285 C1282 1.348 . S
C1285 C1283 1.356 . S
H1286 C1280 0.930 . S
H1287 C1284 0.930 . S
C1288 C1290 1.348 1_565 S
C1288 C1291 1.356 . S
C1288 O1318 1.325 . S
N1289 C1292 1.314 1_565 S
N1289 C1293 1.279 . S
C1290 C1288 1.348 1_545 S
C1290 C1292 1.353 . S
C1290 H1332 0.929 . S
C1291 C1288 1.356 . S
C1291 C1293 1.358 . S
C1291 H1333 0.930 . S
C1292 N1289 1.314 1_545 S
C1292 C1290 1.353 . S
C1292 H1334 0.930 . S
C1293 N1289 1.279 . S
C1293 C1291 1.358 . S
C1293 H1335 0.930 . S
C1294 C1295 1.348 . S
C1294 C1296 1.356 . S
C1294 O1319 1.325 . S
C1295 C1294 1.348 . S
C1295 C1297 1.353 . S
C1295 H1336 0.929 . S
C1296 C1294 1.356 . S
C1296 C1298 1.358 . S
C1296 H1337 0.930 . S
C1297 C1295 1.353 . S
C1297 N1299 1.314 . S
C1297 H1338 0.930 . S
C1298 C1296 1.358 . S
C1298 N1299 1.279 . S
C1298 H1339 0.930 . S
N1299 C1297 1.314 . S
N1299 C1298 1.279 . S
C1300 C1302 1.353 . S
C1300 N1303 1.314 . S
C1300 H1306 0.930 . S
C1301 N1303 1.279 . S
C1301 C1304 1.358 . S
C1301 H1307 0.930 . S
C1302 C1300 1.353 . S
C1302 C1305 1.348 . S
C1302 H1340 0.929 . S
N1303 Li1258 1.990 . S
N1303 C1300 1.314 . S
N1303 C1301 1.279 . S
C1304 C1301 1.358 . S
C1304 C1305 1.356 . S
C1304 H1341 0.930 . S
C1305 C1302 1.348 . S
C1305 C1304 1.356 . S
H1306 C1300 0.930 . S
H1307 C1301 0.930 . S
C1308 N1309 1.314 . S
C1308 C1310 1.353 . S
C1308 H1314 0.930 . S
N1309 Li1259 1.990 . S
N1309 C1308 1.314 . S
N1309 C1312 1.279 . S
C1310 C1308 1.353 . S
C1310 C1313 1.348 . S
C1310 H1342 0.929 . S
C1311 C1312 1.358 . S
C1311 C1313 1.356 . S
C1311 H1343 0.930 . S
C1312 N1309 1.279 . S
C1312 C1311 1.358 . S
C1312 H1315 0.930 . S
C1313 C1310 1.348 . S
C1313 C1311 1.356 . S
H1314 C1308 0.930 . S
H1315 C1312 0.930 . S
O1316 Li1256 1.956 . S
O1316 Li1257 1.970 1_565 S
O1316 Li1258 1.961 . S
O1316 C1260 1.325 . S
O1317 Li1256 1.970 1_545 S
O1317 Li1257 1.956 . S
O1317 Li1259 1.961 . S
O1317 C1266 1.325 . S
O1318 Li1256 1.961 . S
O1318 Li1258 1.956 . S
O1318 Li1259 1.970 1_565 S
O1318 C1288 1.325 . S
O1319 Li1257 1.961 . S
O1319 Li1258 1.970 1_545 S
O1319 Li1259 1.956 . S
O1319 C1294 1.325 . S
H1320 C1262 0.929 . S
H1321 C1263 0.930 . S
H1322 C1264 0.930 . S
H1323 C1265 0.930 . S
H1324 C1267 0.930 . S
H1325 C1269 0.929 . S
H1326 C1270 0.930 . S
H1327 C1271 0.930 . S
H1328 C1274 0.930 . S
H1329 C1277 0.929 . S
H1330 C1282 0.929 . S
H1331 C1283 0.930 . S
H1332 C1290 0.929 . S
H1333 C1291 0.930 . S
H1334 C1292 0.930 . S
H1335 C1293 0.930 . S
H1336 C1295 0.929 . S
H1337 C1296 0.930 . S
H1338 C1297 0.930 . S
H1339 C1298 0.930 . S
H1340 C1302 0.929 . S
H1341 C1304 0.930 . S
H1342 C1310 0.929 . S
H1343 C1311 0.930 . S
Li1344 N1361 1.990 . S
Li1344 O1404 1.956 . S
Li1344 O1405 1.989 . S
Li1344 O1406 1.961 . S
Li1345 N1369 1.990 1_455 S
Li1345 O1404 1.971 . S
Li1345 O1405 1.956 . S
Li1345 O1407 1.960 1_455 S
Li1346 N1391 1.990 . S
Li1346 O1404 1.961 . S
Li1346 O1406 1.956 . S
Li1346 O1407 1.970 1_455 S
Li1347 N1397 1.990 . S
Li1347 O1405 1.947 1_655 S
Li1347 O1406 1.970 1_655 S
Li1347 O1407 1.956 . S
C1348 C1350 1.348 . S
C1348 C1351 1.356 . S
C1348 O1404 1.325 . S
N1349 C1352 1.314 . S
N1349 C1353 1.279 . S
C1350 C1348 1.348 . S
C1350 C1352 1.353 . S
C1350 H1408 0.929 . S
C1351 C1348 1.356 . S
C1351 C1353 1.358 . S
C1351 H1409 0.930 . S
C1352 N1349 1.314 . S
C1352 C1350 1.353 . S
C1352 H1410 0.930 . S
C1353 N1349 1.279 . S
C1353 C1351 1.358 . S
C1353 H1411 0.930 . S
C1354 C1357 1.348 1_655 S
C1354 C1358 1.356 . S
C1354 O1405 1.322 1_655 S
C1355 N1356 1.279 . S
C1355 C1358 1.358 . S
C1355 H1412 0.930 . S
N1356 C1355 1.279 . S
N1356 C1359 1.314 1_655 S
C1357 C1354 1.348 1_455 S
C1357 C1359 1.353 . S
C1357 H1413 0.929 . S
C1358 C1354 1.356 . S
C1358 C1355 1.358 . S
C1358 H1414 0.930 . S
C1359 N1356 1.314 1_455 S
C1359 C1357 1.353 . S
C1359 H1415 0.930 . S
C1360 N1361 1.314 . S
C1360 C1365 1.353 . S
C1360 H1366 0.930 . S
N1361 Li1344 1.990 . S
N1361 C1360 1.314 . S
N1361 C1363 1.279 . S
C1362 C1363 1.358 . S
C1362 C1364 1.356 . S
C1362 H1416 0.930 . S
C1363 N1361 1.279 . S
C1363 C1362 1.358 . S
C1363 H1367 0.930 . S
C1364 C1362 1.356 . S
C1364 C1365 1.348 . S
C1365 C1360 1.353 . S
C1365 C1364 1.348 . S
C1365 H1417 0.929 . S
H1366 C1360 0.930 . S
H1367 C1363 0.930 . S
C1368 N1369 1.314 . S
C1368 C1370 1.353 . S
C1368 H1374 0.930 . S
N1369 Li1345 1.990 1_655 S
N1369 C1368 1.314 . S
N1369 C1372 1.279 . S
C1370 C1368 1.353 . S
C1370 C1373 1.348 . S
C1370 H1418 0.929 . S
C1371 C1372 1.358 . S
C1371 C1373 1.356 . S
C1371 H1419 0.930 . S
C1372 N1369 1.279 . S
C1372 C1371 1.358 . S
C1372 H1375 0.929 1_655 S
C1373 C1370 1.348 . S
C1373 C1371 1.356 . S
H1374 C1368 0.930 . S
H1375 C1372 0.929 1_455 S
C1376 C1378 1.348 1_455 S
C1376 C1379 1.356 . S
C1376 O1406 1.325 . S
N1377 C1380 1.314 1_455 S
N1377 C1381 1.279 . S
C1378 C1376 1.348 1_655 S
C1378 C1380 1.353 . S
C1378 H1420 0.929 . S
C1379 C1376 1.356 . S
C1379 C1381 1.358 . S
C1379 H1421 0.930 . S
C1380 N1377 1.314 1_655 S
C1380 C1378 1.353 . S
C1380 H1422 0.930 . S
C1381 N1377 1.279 . S
C1381 C1379 1.358 . S
C1381 H1423 0.930 . S
C1382 C1383 1.348 . S
C1382 C1384 1.356 . S
C1382 O1407 1.325 . S
C1383 C1382 1.348 . S
C1383 C1385 1.353 . S
C1383 H1424 0.929 . S
C1384 C1382 1.356 . S
C1384 C1386 1.358 . S
C1384 H1425 0.930 . S
C1385 C1383 1.353 . S
C1385 N1387 1.314 . S
C1385 H1426 0.930 . S
C1386 C1384 1.358 . S
C1386 N1387 1.279 . S
C1386 H1427 0.930 . S
N1387 C1385 1.314 . S
N1387 C1386 1.279 . S
C1388 C1390 1.353 . S
C1388 N1391 1.314 . S
C1388 H1394 0.930 . S
C1389 N1391 1.279 . S
C1389 C1392 1.358 . S
C1389 H1395 0.930 . S
C1390 C1388 1.353 . S
C1390 C1393 1.348 . S
C1390 H1428 0.929 . S
N1391 Li1346 1.990 . S
N1391 C1388 1.314 . S
N1391 C1389 1.279 . S
C1392 C1389 1.358 . S
C1392 C1393 1.356 . S
C1392 H1429 0.930 . S
C1393 C1390 1.348 . S
C1393 C1392 1.356 . S
H1394 C1388 0.930 . S
H1395 C1389 0.930 . S
C1396 N1397 1.314 . S
C1396 C1398 1.353 . S
C1396 H1402 0.930 . S
N1397 Li1347 1.990 . S
N1397 C1396 1.314 . S
N1397 C1400 1.279 . S
C1398 C1396 1.353 . S
C1398 C1401 1.348 . S
C1398 H1430 0.929 . S
C1399 C1400 1.358 . S
C1399 C1401 1.356 . S
C1399 H1431 0.930 . S
C1400 N1397 1.279 . S
C1400 C1399 1.358 . S
C1400 H1403 0.930 . S
C1401 C1398 1.348 . S
C1401 C1399 1.356 . S
H1402 C1396 0.930 . S
H1403 C1400 0.930 . S
O1404 Li1344 1.956 . S
O1404 Li1345 1.971 . S
O1404 Li1346 1.961 . S
O1404 C1348 1.325 . S
O1405 Li1344 1.989 . S
O1405 Li1345 1.956 . S
O1405 Li1347 1.947 1_455 S
O1405 C1354 1.322 1_455 S
O1406 Li1344 1.961 . S
O1406 Li1346 1.956 . S
O1406 Li1347 1.970 1_455 S
O1406 C1376 1.325 . S
O1407 Li1345 1.960 1_655 S
O1407 Li1346 1.970 1_655 S
O1407 Li1347 1.956 . S
O1407 C1382 1.325 . S
H1408 C1350 0.929 . S
H1409 C1351 0.930 . S
H1410 C1352 0.930 . S
H1411 C1353 0.930 . S
H1412 C1355 0.930 . S
H1413 C1357 0.929 . S
H1414 C1358 0.930 . S
H1415 C1359 0.930 . S
H1416 C1362 0.930 . S
H1417 C1365 0.929 . S
H1418 C1370 0.929 . S
H1419 C1371 0.930 . S
H1420 C1378 0.929 . S
H1421 C1379 0.930 . S
H1422 C1380 0.930 . S
H1423 C1381 0.930 . S
H1424 C1383 0.929 . S
H1425 C1384 0.930 . S
H1426 C1385 0.930 . S
H1427 C1386 0.930 . S
H1428 C1390 0.929 . S
H1429 C1392 0.930 . S
H1430 C1398 0.929 . S
H1431 C1399 0.930 . S
Li1432 N1449 1.990 . S
Li1432 O1492 1.956 . S
Li1432 O1493 1.970 . S
Li1432 O1494 1.961 . S
Li1433 N1457 1.990 . S
Li1433 O1492 1.970 . S
Li1433 O1493 1.956 . S
Li1433 O1495 1.961 . S
Li1434 N1479 1.990 . S
Li1434 O1492 1.961 . S
Li1434 O1494 1.956 . S
Li1434 O1495 1.970 . S
Li1435 N1485 1.990 . S
Li1435 O1493 1.961 . S
Li1435 O1494 1.970 . S
Li1435 O1495 1.956 . S
C1436 C1438 1.348 . S
C1436 C1439 1.356 . S
C1436 O1492 1.325 . S
N1437 C1440 1.314 . S
N1437 C1441 1.279 . S
C1438 C1436 1.348 . S
C1438 C1440 1.353 . S
C1438 H1496 0.929 . S
C1439 C1436 1.356 . S
C1439 C1441 1.358 . S
C1439 H1497 0.930 . S
C1440 N1437 1.314 . S
C1440 C1438 1.353 . S
C1440 H1498 0.930 . S
C1441 N1437 1.279 . S
C1441 C1439 1.358 . S
C1441 H1499 0.930 . S
C1442 C1445 1.348 . S
C1442 C1446 1.356 . S
C1442 O1493 1.325 . S
C1443 N1444 1.279 . S
C1443 C1446 1.358 . S
C1443 H1500 0.930 . S
N1444 C1443 1.279 . S
N1444 C1447 1.314 . S
C1445 C1442 1.348 . S
C1445 C1447 1.353 . S
C1445 H1501 0.929 . S
C1446 C1442 1.356 . S
C1446 C1443 1.358 . S
C1446 H1502 0.930 . S
C1447 N1444 1.314 . S
C1447 C1445 1.353 . S
C1447 H1503 0.930 . S
C1448 N1449 1.314 . S
C1448 C1453 1.353 . S
C1448 H1454 0.930 . S
N1449 Li1432 1.990 . S
N1449 C1448 1.314 . S
N1449 C1451 1.279 . S
C1450 C1451 1.358 . S
C1450 C1452 1.356 . S
C1450 H1504 0.930 . S
C1451 N1449 1.279 . S
C1451 C1450 1.358 . S
C1451 H1455 0.930 . S
C1452 C1450 1.356 . S
C1452 C1453 1.348 . S
C1453 C1448 1.353 . S
C1453 C1452 1.348 . S
C1453 H1505 0.929 . S
H1454 C1448 0.930 . S
H1455 C1451 0.930 . S
C1456 N1457 1.314 . S
C1456 C1458 1.353 . S
C1456 H1462 0.930 . S
N1457 Li1433 1.990 . S
N1457 C1456 1.314 . S
N1457 C1460 1.279 . S
C1458 C1456 1.353 . S
C1458 C1461 1.348 . S
C1458 H1506 0.929 . S
C1459 C1460 1.358 . S
C1459 C1461 1.356 . S
C1459 H1507 0.930 . S
C1460 N1457 1.279 . S
C1460 C1459 1.358 . S
C1460 H1463 0.930 . S
C1461 C1458 1.348 . S
C1461 C1459 1.356 . S
H1462 C1456 0.930 . S
H1463 C1460 0.930 . S
C1464 C1466 1.348 . S
C1464 C1467 1.356 . S
C1464 O1494 1.325 . S
N1465 C1468 1.314 . S
N1465 C1469 1.279 . S
C1466 C1464 1.348 . S
C1466 C1468 1.353 . S
C1466 H1508 0.929 . S
C1467 C1464 1.356 . S
C1467 C1469 1.358 . S
C1467 H1509 0.930 . S
C1468 N1465 1.314 . S
C1468 C1466 1.353 . S
C1468 H1510 0.930 . S
C1469 N1465 1.279 . S
C1469 C1467 1.358 . S
C1469 H1511 0.930 . S
C1470 C1471 1.348 . S
C1470 C1472 1.356 . S
C1470 O1495 1.325 . S
C1471 C1470 1.348 . S
C1471 C1473 1.353 . S
C1471 H1512 0.929 . S
C1472 C1470 1.356 . S
C1472 C1474 1.358 . S
C1472 H1513 0.930 . S
C1473 C1471 1.353 . S
C1473 N1475 1.314 . S
C1473 H1514 0.930 . S
C1474 C1472 1.358 . S
C1474 N1475 1.279 . S
C1474 H1515 0.930 . S
N1475 C1473 1.314 . S
N1475 C1474 1.279 . S
C1476 C1478 1.353 . S
C1476 N1479 1.314 . S
C1476 H1482 0.930 . S
C1477 N1479 1.279 . S
C1477 C1480 1.358 . S
C1477 H1483 0.930 . S
C1478 C1476 1.353 . S
C1478 C1481 1.348 . S
C1478 H1516 0.929 . S
N1479 Li1434 1.990 . S
N1479 C1476 1.314 . S
N1479 C1477 1.279 . S
C1480 C1477 1.358 . S
C1480 C1481 1.356 . S
C1480 H1517 0.930 . S
C1481 C1478 1.348 . S
C1481 C1480 1.356 . S
H1482 C1476 0.930 . S
H1483 C1477 0.930 . S
C1484 N1485 1.314 . S
C1484 C1486 1.353 . S
C1484 H1490 0.930 . S
N1485 Li1435 1.990 . S
N1485 C1484 1.314 . S
N1485 C1488 1.279 . S
C1486 C1484 1.353 . S
C1486 C1489 1.348 . S
C1486 H1518 0.929 . S
C1487 C1488 1.358 . S
C1487 C1489 1.356 . S
C1487 H1519 0.930 . S
C1488 N1485 1.279 . S
C1488 C1487 1.358 . S
C1488 H1491 0.930 . S
C1489 C1486 1.348 . S
C1489 C1487 1.356 . S
H1490 C1484 0.930 . S
H1491 C1488 0.930 . S
O1492 Li1432 1.956 . S
O1492 Li1433 1.970 . S
O1492 Li1434 1.961 . S
O1492 C1436 1.325 . S
O1493 Li1432 1.970 . S
O1493 Li1433 1.956 . S
O1493 Li1435 1.961 . S
O1493 C1442 1.325 . S
O1494 Li1432 1.961 . S
O1494 Li1434 1.956 . S
O1494 Li1435 1.970 . S
O1494 C1464 1.325 . S
O1495 Li1433 1.961 . S
O1495 Li1434 1.970 . S
O1495 Li1435 1.956 . S
O1495 C1470 1.325 . S
H1496 C1438 0.929 . S
H1497 C1439 0.930 . S
H1498 C1440 0.930 . S
H1499 C1441 0.930 . S
H1500 C1443 0.930 . S
H1501 C1445 0.929 . S
H1502 C1446 0.930 . S
H1503 C1447 0.930 . S
H1504 C1450 0.930 . S
H1505 C1453 0.929 . S
H1506 C1458 0.929 . S
H1507 C1459 0.930 . S
H1508 C1466 0.929 . S
H1509 C1467 0.930 . S
H1510 C1468 0.930 . S
H1511 C1469 0.930 . S
H1512 C1471 0.929 . S
H1513 C1472 0.930 . S
H1514 C1473 0.930 . S
H1515 C1474 0.930 . S
H1516 C1478 0.929 . S
H1517 C1480 0.930 . S
H1518 C1486 0.929 . S
H1519 C1487 0.930 . S
Li1520 N1537 1.990 . S
Li1520 O1580 1.956 . S
Li1520 O1581 1.970 1_455 S
Li1520 O1582 1.961 . S
Li1521 N1545 1.990 . S
Li1521 O1580 1.970 1_655 S
Li1521 O1581 1.956 . S
Li1521 O1583 1.947 1_655 S
Li1522 N1567 1.990 . S
Li1522 O1580 1.961 . S
Li1522 O1582 1.956 . S
Li1522 O1583 1.989 . S
Li1523 N1573 1.990 1_455 S
Li1523 O1581 1.960 1_455 S
Li1523 O1582 1.971 . S
Li1523 O1583 1.956 . S
C1524 C1526 1.348 1_455 S
C1524 C1527 1.356 . S
C1524 O1580 1.325 . S
N1525 C1528 1.314 1_455 S
N1525 C1529 1.279 . S
C1526 C1524 1.348 1_655 S
C1526 C1528 1.353 . S
C1526 H1584 0.929 . S
C1527 C1524 1.356 . S
C1527 C1529 1.358 . S
C1527 H1585 0.930 . S
C1528 N1525 1.314 1_655 S
C1528 C1526 1.353 . S
C1528 H1586 0.930 . S
C1529 N1525 1.279 . S
C1529 C1527 1.358 . S
C1529 H1587 0.930 . S
C1530 C1533 1.348 . S
C1530 C1534 1.356 . S
C1530 O1581 1.325 . S
C1531 N1532 1.279 . S
C1531 C1534 1.358 . S
C1531 H1588 0.930 . S
N1532 C1531 1.279 . S
N1532 C1535 1.314 . S
C1533 C1530 1.348 . S
C1533 C1535 1.353 . S
C1533 H1589 0.929 . S
C1534 C1530 1.356 . S
C1534 C1531 1.358 . S
C1534 H1590 0.930 . S
C1535 N1532 1.314 . S
C1535 C1533 1.353 . S
C1535 H1591 0.930 . S
C1536 N1537 1.314 . S
C1536 C1541 1.353 . S
C1536 H1542 0.930 . S
N1537 Li1520 1.990 . S
N1537 C1536 1.314 . S
N1537 C1539 1.279 . S
C1538 C1539 1.358 . S
C1538 C1540 1.356 . S
C1538 H1592 0.930 . S
C1539 N1537 1.279 . S
C1539 C1538 1.358 . S
C1539 H1543 0.930 . S
C1540 C1538 1.356 . S
C1540 C1541 1.348 . S
C1541 C1536 1.353 . S
C1541 C1540 1.348 . S
C1541 H1593 0.929 . S
H1542 C1536 0.930 . S
H1543 C1539 0.930 . S
C1544 N1545 1.314 . S
C1544 C1546 1.353 . S
C1544 H1550 0.930 . S
N1545 Li1521 1.990 . S
N1545 C1544 1.314 . S
N1545 C1548 1.279 . S
C1546 C1544 1.353 . S
C1546 C1549 1.348 . S
C1546 H1594 0.929 . S
C1547 C1548 1.358 . S
C1547 C1549 1.356 . S
C1547 H1595 0.930 . S
C1548 N1545 1.279 . S
C1548 C1547 1.358 . S
C1548 H1551 0.930 . S
C1549 C1546 1.348 . S
C1549 C1547 1.356 . S
H1550 C1544 0.930 . S
H1551 C1548 0.930 . S
C1552 C1554 1.348 . S
C1552 C1555 1.356 . S
C1552 O1582 1.325 . S
N1553 C1556 1.314 . S
N1553 C1557 1.279 . S
C1554 C1552 1.348 . S
C1554 C1556 1.353 . S
C1554 H1596 0.929 . S
C1555 C1552 1.356 . S
C1555 C1557 1.358 . S
C1555 H1597 0.930 . S
C1556 N1553 1.314 . S
C1556 C1554 1.353 . S
C1556 H1598 0.930 . S
C1557 N1553 1.279 . S
C1557 C1555 1.358 . S
C1557 H1599 0.930 . S
C1558 C1559 1.348 1_655 S
C1558 C1560 1.356 . S
C1558 O1583 1.322 1_655 S
C1559 C1558 1.348 1_455 S
C1559 C1561 1.353 . S
C1559 H1600 0.929 . S
C1560 C1558 1.356 . S
C1560 C1562 1.358 . S
C1560 H1601 0.930 . S
C1561 C1559 1.353 . S
C1561 N1563 1.314 1_455 S
C1561 H1602 0.930 . S
C1562 C1560 1.358 . S
C1562 N1563 1.279 . S
C1562 H1603 0.930 . S
N1563 C1561 1.314 1_655 S
N1563 C1562 1.279 . S
C1564 C1566 1.353 . S
C1564 N1567 1.314 . S
C1564 H1570 0.930 . S
C1565 N1567 1.279 . S
C1565 C1568 1.358 . S
C1565 H1571 0.930 . S
C1566 C1564 1.353 . S
C1566 C1569 1.348 . S
C1566 H1604 0.929 . S
N1567 Li1522 1.990 . S
N1567 C1564 1.314 . S
N1567 C1565 1.279 . S
C1568 C1565 1.358 . S
C1568 C1569 1.356 . S
C1568 H1605 0.930 . S
C1569 C1566 1.348 . S
C1569 C1568 1.356 . S
H1570 C1564 0.930 . S
H1571 C1565 0.930 . S
C1572 N1573 1.314 . S
C1572 C1574 1.353 . S
C1572 H1578 0.930 . S
N1573 Li1523 1.990 1_655 S
N1573 C1572 1.314 . S
N1573 C1576 1.279 . S
C1574 C1572 1.353 . S
C1574 C1577 1.348 . S
C1574 H1606 0.929 . S
C1575 C1576 1.358 . S
C1575 C1577 1.356 . S
C1575 H1607 0.930 . S
C1576 N1573 1.279 . S
C1576 C1575 1.358 . S
C1576 H1579 0.929 1_655 S
C1577 C1574 1.348 . S
C1577 C1575 1.356 . S
H1578 C1572 0.930 . S
H1579 C1576 0.929 1_455 S
O1580 Li1520 1.956 . S
O1580 Li1521 1.970 1_455 S
O1580 Li1522 1.961 . S
O1580 C1524 1.325 . S
O1581 Li1520 1.970 1_655 S
O1581 Li1521 1.956 . S
O1581 Li1523 1.960 1_655 S
O1581 C1530 1.325 . S
O1582 Li1520 1.961 . S
O1582 Li1522 1.956 . S
O1582 Li1523 1.971 . S
O1582 C1552 1.325 . S
O1583 Li1521 1.947 1_455 S
O1583 Li1522 1.989 . S
O1583 Li1523 1.956 . S
O1583 C1558 1.322 1_455 S
H1584 C1526 0.929 . S
H1585 C1527 0.930 . S
H1586 C1528 0.930 . S
H1587 C1529 0.930 . S
H1588 C1531 0.930 . S
H1589 C1533 0.929 . S
H1590 C1534 0.930 . S
H1591 C1535 0.930 . S
H1592 C1538 0.930 . S
H1593 C1541 0.929 . S
H1594 C1546 0.929 . S
H1595 C1547 0.930 . S
H1596 C1554 0.929 . S
H1597 C1555 0.930 . S
H1598 C1556 0.930 . S
H1599 C1557 0.930 . S
H1600 C1559 0.929 . S
H1601 C1560 0.930 . S
H1602 C1561 0.930 . S
H1603 C1562 0.930 . S
H1604 C1566 0.929 . S
H1605 C1568 0.930 . S
H1606 C1574 0.929 . S
H1607 C1575 0.930 . S
Li1608 N1625 1.990 . S
Li1608 O1668 1.956 . S
Li1608 O1669 1.970 . S
Li1608 O1670 1.961 . S
Li1609 N1633 1.990 . S
Li1609 O1668 1.970 . S
Li1609 O1669 1.956 . S
Li1609 O1671 1.961 . S
Li1610 N1655 1.990 . S
Li1610 O1668 1.961 . S
Li1610 O1670 1.956 . S
Li1610 O1671 1.970 . S
Li1611 N1661 1.990 . S
Li1611 O1669 1.961 . S
Li1611 O1670 1.970 . S
Li1611 O1671 1.956 . S
C1612 C1614 1.348 . S
C1612 C1615 1.356 . S
C1612 O1668 1.325 . S
N1613 C1616 1.314 . S
N1613 C1617 1.279 . S
C1614 C1612 1.348 . S
C1614 C1616 1.353 . S
C1614 H1672 0.929 . S
C1615 C1612 1.356 . S
C1615 C1617 1.358 . S
C1615 H1673 0.930 . S
C1616 N1613 1.314 . S
C1616 C1614 1.353 . S
C1616 H1674 0.930 . S
C1617 N1613 1.279 . S
C1617 C1615 1.358 . S
C1617 H1675 0.930 . S
C1618 C1621 1.348 . S
C1618 C1622 1.356 . S
C1618 O1669 1.325 . S
C1619 N1620 1.279 . S
C1619 C1622 1.358 . S
C1619 H1676 0.930 . S
N1620 C1619 1.279 . S
N1620 C1623 1.314 . S
C1621 C1618 1.348 . S
C1621 C1623 1.353 . S
C1621 H1677 0.929 . S
C1622 C1618 1.356 . S
C1622 C1619 1.358 . S
C1622 H1678 0.930 . S
C1623 N1620 1.314 . S
C1623 C1621 1.353 . S
C1623 H1679 0.930 . S
C1624 N1625 1.314 . S
C1624 C1629 1.353 . S
C1624 H1630 0.930 . S
N1625 Li1608 1.990 . S
N1625 C1624 1.314 . S
N1625 C1627 1.279 . S
C1626 C1627 1.358 . S
C1626 C1628 1.356 . S
C1626 H1680 0.930 . S
C1627 N1625 1.279 . S
C1627 C1626 1.358 . S
C1627 H1631 0.930 . S
C1628 C1626 1.356 . S
C1628 C1629 1.348 . S
C1629 C1624 1.353 . S
C1629 C1628 1.348 . S
C1629 H1681 0.929 . S
H1630 C1624 0.930 . S
H1631 C1627 0.930 . S
C1632 N1633 1.314 . S
C1632 C1634 1.353 . S
C1632 H1638 0.930 . S
N1633 Li1609 1.990 . S
N1633 C1632 1.314 . S
N1633 C1636 1.279 . S
C1634 C1632 1.353 . S
C1634 C1637 1.348 . S
C1634 H1682 0.929 . S
C1635 C1636 1.358 . S
C1635 C1637 1.356 . S
C1635 H1683 0.930 . S
C1636 N1633 1.279 . S
C1636 C1635 1.358 . S
C1636 H1639 0.930 . S
C1637 C1634 1.348 . S
C1637 C1635 1.356 . S
H1638 C1632 0.930 . S
H1639 C1636 0.930 . S
C1640 C1642 1.348 . S
C1640 C1643 1.356 . S
C1640 O1670 1.325 . S
N1641 C1644 1.314 . S
N1641 C1645 1.279 . S
C1642 C1640 1.348 . S
C1642 C1644 1.353 . S
C1642 H1684 0.929 . S
C1643 C1640 1.356 . S
C1643 C1645 1.358 . S
C1643 H1685 0.930 . S
C1644 N1641 1.314 . S
C1644 C1642 1.353 . S
C1644 H1686 0.930 . S
C1645 N1641 1.279 . S
C1645 C1643 1.358 . S
C1645 H1687 0.930 . S
C1646 C1647 1.348 . S
C1646 C1648 1.356 . S
C1646 O1671 1.325 . S
C1647 C1646 1.348 . S
C1647 C1649 1.353 . S
C1647 H1688 0.929 . S
C1648 C1646 1.356 . S
C1648 C1650 1.358 . S
C1648 H1689 0.930 . S
C1649 C1647 1.353 . S
C1649 N1651 1.314 . S
C1649 H1690 0.930 . S
C1650 C1648 1.358 . S
C1650 N1651 1.279 . S
C1650 H1691 0.930 . S
N1651 C1649 1.314 . S
N1651 C1650 1.279 . S
C1652 C1654 1.353 . S
C1652 N1655 1.314 . S
C1652 H1658 0.930 . S
C1653 N1655 1.279 . S
C1653 C1656 1.358 . S
C1653 H1659 0.930 . S
C1654 C1652 1.353 . S
C1654 C1657 1.348 . S
C1654 H1692 0.929 . S
N1655 Li1610 1.990 . S
N1655 C1652 1.314 . S
N1655 C1653 1.279 . S
C1656 C1653 1.358 . S
C1656 C1657 1.356 . S
C1656 H1693 0.930 . S
C1657 C1654 1.348 . S
C1657 C1656 1.356 . S
H1658 C1652 0.930 . S
H1659 C1653 0.930 . S
C1660 N1661 1.314 . S
C1660 C1662 1.353 . S
C1660 H1666 0.930 . S
N1661 Li1611 1.990 . S
N1661 C1660 1.314 . S
N1661 C1664 1.279 . S
C1662 C1660 1.353 . S
C1662 C1665 1.348 . S
C1662 H1694 0.929 . S
C1663 C1664 1.358 . S
C1663 C1665 1.356 . S
C1663 H1695 0.930 . S
C1664 N1661 1.279 . S
C1664 C1663 1.358 . S
C1664 H1667 0.930 . S
C1665 C1662 1.348 . S
C1665 C1663 1.356 . S
H1666 C1660 0.930 . S
H1667 C1664 0.930 . S
O1668 Li1608 1.956 . S
O1668 Li1609 1.970 . S
O1668 Li1610 1.961 . S
O1668 C1612 1.325 . S
O1669 Li1608 1.970 . S
O1669 Li1609 1.956 . S
O1669 Li1611 1.961 . S
O1669 C1618 1.325 . S
O1670 Li1608 1.961 . S
O1670 Li1610 1.956 . S
O1670 Li1611 1.970 . S
O1670 C1640 1.325 . S
O1671 Li1609 1.961 . S
O1671 Li1610 1.970 . S
O1671 Li1611 1.956 . S
O1671 C1646 1.325 . S
H1672 C1614 0.929 . S
H1673 C1615 0.930 . S
H1674 C1616 0.930 . S
H1675 C1617 0.930 . S
H1676 C1619 0.930 . S
H1677 C1621 0.929 . S
H1678 C1622 0.930 . S
H1679 C1623 0.930 . S
H1680 C1626 0.930 . S
H1681 C1629 0.929 . S
H1682 C1634 0.929 . S
H1683 C1635 0.930 . S
H1684 C1642 0.929 . S
H1685 C1643 0.930 . S
H1686 C1644 0.930 . S
H1687 C1645 0.930 . S
H1688 C1647 0.929 . S
H1689 C1648 0.930 . S
H1690 C1649 0.930 . S
H1691 C1650 0.930 . S
H1692 C1654 0.929 . S
H1693 C1656 0.930 . S
H1694 C1662 0.929 . S
H1695 C1663 0.930 . S
C1696 C1697 1.363 . S
C1696 C1702 1.379 . S
C1696 N1704 1.356 . S
C1697 C1696 1.363 . S
C1697 C1703 1.363 . S
C1698 C1699 1.363 . S
C1698 C1703 1.379 . S
C1698 N1705 1.356 . S
C1699 C1698 1.363 . S
C1699 C1702 1.363 . S
N1700 C1702 1.356 . S
N1700 H1712 0.984 . S
N1700 H1713 0.985 . S
N1701 C1703 1.356 . S
N1701 H1706 0.984 . S
N1701 H1707 0.985 . S
C1702 C1696 1.379 . S
C1702 C1699 1.363 . S
C1702 N1700 1.356 . S
C1703 C1697 1.363 . S
C1703 C1698 1.379 . S
C1703 N1701 1.356 . S
N1704 C1696 1.356 . S
N1704 H1710 0.984 . S
N1704 H1711 0.984 . S
N1705 C1698 1.356 . S
N1705 H1708 0.984 . S
N1705 H1709 0.985 . S
H1706 N1701 0.984 . S
H1707 N1701 0.985 . S
H1708 N1705 0.984 . S
H1709 N1705 0.985 . S
H1710 N1704 0.984 . S
H1711 N1704 0.984 . S
H1712 N1700 0.984 . S
H1713 N1700 0.985 . S
C1714 C1715 1.363 . S
C1714 C1720 1.379 . S
C1714 N1722 1.356 . S
C1715 C1714 1.363 . S
C1715 C1721 1.363 . S
C1716 C1717 1.363 . S
C1716 C1721 1.379 . S
C1716 N1723 1.356 . S
C1717 C1716 1.363 . S
C1717 C1720 1.363 . S
N1718 C1720 1.356 . S
N1718 H1730 0.984 . S
N1718 H1731 0.985 . S
N1719 C1721 1.356 . S
N1719 H1724 0.984 . S
N1719 H1725 0.985 . S
C1720 C1714 1.379 . S
C1720 C1717 1.363 . S
C1720 N1718 1.356 . S
C1721 C1715 1.363 . S
C1721 C1716 1.379 . S
C1721 N1719 1.356 . S
N1722 C1714 1.356 . S
N1722 H1728 0.984 . S
N1722 H1729 0.984 . S
N1723 C1716 1.356 . S
N1723 H1726 0.984 . S
N1723 H1727 0.985 . S
H1724 N1719 0.984 . S
H1725 N1719 0.985 . S
H1726 N1723 0.984 . S
H1727 N1723 0.985 . S
H1728 N1722 0.984 . S
H1729 N1722 0.984 . S
H1730 N1718 0.984 . S
H1731 N1718 0.985 . S
C1732 C1733 1.363 . S
C1732 C1738 1.379 . S
C1732 N1740 1.356 . S
C1733 C1732 1.363 . S
C1733 C1739 1.363 . S
C1734 C1735 1.363 . S
C1734 C1739 1.379 . S
C1734 N1741 1.356 . S
C1735 C1734 1.363 . S
C1735 C1738 1.363 . S
N1736 C1738 1.356 . S
N1736 H1748 0.984 . S
N1736 H1749 0.985 . S
N1737 C1739 1.356 . S
N1737 H1742 0.984 . S
N1737 H1743 0.985 . S
C1738 C1732 1.379 . S
C1738 C1735 1.363 . S
C1738 N1736 1.356 . S
C1739 C1733 1.363 . S
C1739 C1734 1.379 . S
C1739 N1737 1.356 . S
N1740 C1732 1.356 . S
N1740 H1746 0.984 . S
N1740 H1747 0.984 . S
N1741 C1734 1.356 . S
N1741 H1744 0.984 . S
N1741 H1745 0.985 . S
H1742 N1737 0.984 . S
H1743 N1737 0.985 . S
H1744 N1741 0.984 . S
H1745 N1741 0.985 . S
H1746 N1740 0.984 . S
H1747 N1740 0.984 . S
H1748 N1736 0.984 . S
H1749 N1736 0.985 . S
C1750 C1751 1.363 . S
C1750 C1756 1.379 . S
C1750 N1758 1.356 . S
C1751 C1750 1.363 . S
C1751 C1757 1.329 1_565 S
C1752 C1753 1.363 1_545 S
C1752 C1757 1.382 . S
C1752 N1759 1.356 . S
C1753 C1752 1.363 1_565 S
C1753 C1756 1.363 . S
N1754 C1756 1.356 . S
N1754 H1766 0.984 . S
N1754 H1767 0.985 . S
N1755 C1757 1.382 . S
N1755 H1760 0.984 . S
N1755 H1761 0.985 . S
C1756 C1750 1.379 . S
C1756 C1753 1.363 . S
C1756 N1754 1.356 . S
C1757 C1751 1.329 1_545 S
C1757 C1752 1.382 . S
C1757 N1755 1.382 . S
N1758 C1750 1.356 . S
N1758 H1764 0.984 . S
N1758 H1765 0.984 . S
N1759 C1752 1.356 . S
N1759 H1762 0.984 . S
N1759 H1763 0.985 . S
H1760 N1755 0.984 . S
H1761 N1755 0.985 . S
H1762 N1759 0.984 . S
H1763 N1759 0.985 . S
H1764 N1758 0.984 . S
H1765 N1758 0.984 . S
H1766 N1754 0.984 . S
H1767 N1754 0.985 . S
C1768 C1769 1.363 . S
C1768 C1774 1.379 . S
C1768 N1776 1.356 . S
C1769 C1768 1.363 . S
C1769 C1775 1.363 . S
C1770 C1771 1.363 . S
C1770 C1775 1.379 . S
C1770 N1777 1.356 . S
C1771 C1770 1.363 . S
C1771 C1774 1.363 . S
N1772 C1774 1.356 . S
N1772 H1784 0.984 . S
N1772 H1785 0.985 . S
N1773 C1775 1.356 . S
N1773 H1778 0.984 . S
N1773 H1779 0.985 . S
C1774 C1768 1.379 . S
C1774 C1771 1.363 . S
C1774 N1772 1.356 . S
C1775 C1769 1.363 . S
C1775 C1770 1.379 . S
C1775 N1773 1.356 . S
N1776 C1768 1.356 . S
N1776 H1782 0.984 . S
N1776 H1783 0.984 . S
N1777 C1770 1.356 . S
N1777 H1780 0.984 . S
N1777 H1781 0.985 . S
H1778 N1773 0.984 . S
H1779 N1773 0.985 . S
H1780 N1777 0.984 . S
H1781 N1777 0.985 . S
H1782 N1776 0.984 . S
H1783 N1776 0.984 . S
H1784 N1772 0.984 . S
H1785 N1772 0.985 . S
C1786 C1787 1.363 . S
C1786 C1792 1.379 . S
C1786 N1794 1.356 . S
C1787 C1786 1.363 . S
C1787 C1793 1.363 . S
C1788 C1789 1.363 . S
C1788 C1793 1.379 . S
C1788 N1795 1.356 . S
C1789 C1788 1.363 . S
C1789 C1792 1.363 . S
N1790 C1792 1.356 . S
N1790 H1802 0.984 . S
N1790 H1803 0.985 . S
N1791 C1793 1.356 . S
N1791 H1796 0.984 . S
N1791 H1797 0.985 . S
C1792 C1786 1.379 . S
C1792 C1789 1.363 . S
C1792 N1790 1.356 . S
C1793 C1787 1.363 . S
C1793 C1788 1.379 . S
C1793 N1791 1.356 . S
N1794 C1786 1.356 . S
N1794 H1800 0.984 . S
N1794 H1801 0.984 . S
N1795 C1788 1.356 . S
N1795 H1798 0.984 . S
N1795 H1799 0.985 . S
H1796 N1791 0.984 . S
H1797 N1791 0.985 . S
H1798 N1795 0.984 . S
H1799 N1795 0.985 . S
H1800 N1794 0.984 . S
H1801 N1794 0.984 . S
H1802 N1790 0.984 . S
H1803 N1790 0.985 . S
C1804 C1805 1.363 . S
C1804 C1810 1.379 . S
C1804 N1812 1.356 . S
C1805 C1804 1.363 . S
C1805 C1811 1.363 . S
C1806 C1807 1.363 . S
C1806 C1811 1.379 . S
C1806 N1813 1.356 . S
C1807 C1806 1.363 . S
C1807 C1810 1.363 . S
N1808 C1810 1.356 . S
N1808 H1820 0.984 . S
N1808 H1821 0.985 . S
N1809 C1811 1.356 . S
N1809 H1814 0.984 . S
N1809 H1815 0.985 . S
C1810 C1804 1.379 . S
C1810 C1807 1.363 . S
C1810 N1808 1.356 . S
C1811 C1805 1.363 . S
C1811 C1806 1.379 . S
C1811 N1809 1.356 . S
N1812 C1804 1.356 . S
N1812 H1818 0.984 . S
N1812 H1819 0.984 . S
N1813 C1806 1.356 . S
N1813 H1816 0.984 . S
N1813 H1817 0.985 . S
H1814 N1809 0.984 . S
H1815 N1809 0.985 . S
H1816 N1813 0.984 . S
H1817 N1813 0.985 . S
H1818 N1812 0.984 . S
H1819 N1812 0.984 . S
H1820 N1808 0.984 . S
H1821 N1808 0.985 . S
C1822 C1823 1.393 . S
C1822 C1828 1.377 1_565 S
C1822 N1830 1.335 1_565 S
C1823 C1822 1.393 . S
C1823 C1829 1.363 . S
C1824 C1825 1.363 . S
C1824 C1829 1.379 . S
C1824 N1831 1.356 . S
C1825 C1824 1.363 . S
C1825 C1828 1.345 1_565 S
N1826 C1828 1.373 . S
N1826 H1838 0.984 . S
N1826 H1839 0.985 . S
N1827 C1829 1.356 . S
N1827 H1832 0.984 . S
N1827 H1833 0.985 . S
C1828 C1822 1.377 1_545 S
C1828 C1825 1.345 1_545 S
C1828 N1826 1.373 . S
C1829 C1823 1.363 . S
C1829 C1824 1.379 . S
C1829 N1827 1.356 . S
N1830 C1822 1.335 1_545 S
N1830 H1836 0.984 . S
N1830 H1837 0.984 . S
N1831 C1824 1.356 . S
N1831 H1834 0.984 . S
N1831 H1835 0.985 . S
H1832 N1827 0.984 . S
H1833 N1827 0.985 . S
H1834 N1831 0.984 . S
H1835 N1831 0.985 . S
H1836 N1830 0.984 . S
H1837 N1830 0.984 . S
H1838 N1826 0.984 . S
H1839 N1826 0.985 . S
C1840 C1841 1.363 . S
C1840 C1846 1.379 . S
C1840 N1848 1.356 . S
C1841 C1840 1.363 . S
C1841 C1847 1.363 . S
C1842 C1843 1.363 . S
C1842 C1847 1.379 . S
C1842 N1849 1.356 . S
C1843 C1842 1.363 . S
C1843 C1846 1.363 . S
N1844 C1846 1.356 . S
N1844 H1856 0.984 . S
N1844 H1857 0.985 . S
N1845 C1847 1.356 . S
N1845 H1850 0.984 . S
N1845 H1851 0.985 . S
C1846 C1840 1.379 . S
C1846 C1843 1.363 . S
C1846 N1844 1.356 . S
C1847 C1841 1.363 . S
C1847 C1842 1.379 . S
C1847 N1845 1.356 . S
N1848 C1840 1.356 . S
N1848 H1854 0.984 . S
N1848 H1855 0.984 . S
N1849 C1842 1.356 . S
N1849 H1852 0.984 . S
N1849 H1853 0.985 . S
H1850 N1845 0.984 . S
H1851 N1845 0.985 . S
H1852 N1849 0.984 . S
H1853 N1849 0.985 . S
H1854 N1848 0.984 . S
H1855 N1848 0.984 . S
H1856 N1844 0.984 . S
H1857 N1844 0.985 . S
C1858 C1859 1.363 . S
C1858 C1864 1.379 . S
C1858 N1866 1.356 . S
C1859 C1858 1.363 . S
C1859 C1865 1.363 . S
C1860 C1861 1.363 . S
C1860 C1865 1.379 . S
C1860 N1867 1.356 . S
C1861 C1860 1.363 . S
C1861 C1864 1.363 . S
N1862 C1864 1.356 . S
N1862 H1874 0.984 . S
N1862 H1875 0.985 . S
N1863 C1865 1.356 . S
N1863 H1868 0.984 . S
N1863 H1869 0.985 . S
C1864 C1858 1.379 . S
C1864 C1861 1.363 . S
C1864 N1862 1.356 . S
C1865 C1859 1.363 . S
C1865 C1860 1.379 . S
C1865 N1863 1.356 . S
N1866 C1858 1.356 . S
N1866 H1872 0.984 . S
N1866 H1873 0.984 . S
N1867 C1860 1.356 . S
N1867 H1870 0.984 . S
N1867 H1871 0.985 . S
H1868 N1863 0.984 . S
H1869 N1863 0.985 . S
H1870 N1867 0.984 . S
H1871 N1867 0.985 . S
H1872 N1866 0.984 . S
H1873 N1866 0.984 . S
H1874 N1862 0.984 . S
H1875 N1862 0.985 . S
C1876 C1877 1.363 . S
C1876 C1882 1.379 . S
C1876 N1884 1.356 . S
C1877 C1876 1.363 . S
C1877 C1883 1.363 . S
C1878 C1879 1.363 . S
C1878 C1883 1.379 . S
C1878 N1885 1.356 . S
C1879 C1878 1.363 . S
C1879 C1882 1.363 . S
N1880 C1882 1.356 . S
N1880 H1892 0.984 . S
N1880 H1893 0.985 . S
N1881 C1883 1.356 . S
N1881 H1886 0.984 . S
N1881 H1887 0.985 . S
C1882 C1876 1.379 . S
C1882 C1879 1.363 . S
C1882 N1880 1.356 . S
C1883 C1877 1.363 . S
C1883 C1878 1.379 . S
C1883 N1881 1.356 . S
N1884 C1876 1.356 . S
N1884 H1890 0.984 . S
N1884 H1891 0.984 . S
N1885 C1878 1.356 . S
N1885 H1888 0.984 . S
N1885 H1889 0.985 . S
H1886 N1881 0.984 . S
H1887 N1881 0.985 . S
H1888 N1885 0.984 . S
H1889 N1885 0.985 . S
H1890 N1884 0.984 . S
H1891 N1884 0.984 . S
H1892 N1880 0.984 . S
H1893 N1880 0.985 . S
C1894 C1895 1.363 . S
C1894 C1900 1.379 . S
C1894 N1902 1.356 . S
C1895 C1894 1.363 . S
C1895 C1901 1.363 . S
C1896 C1897 1.363 . S
C1896 C1901 1.379 . S
C1896 N1903 1.356 . S
C1897 C1896 1.363 . S
C1897 C1900 1.363 . S
N1898 C1900 1.356 . S
N1898 H1910 0.984 . S
N1898 H1911 0.985 . S
N1899 C1901 1.356 . S
N1899 H1904 0.984 . S
N1899 H1905 0.985 . S
C1900 C1894 1.379 . S
C1900 C1897 1.363 . S
C1900 N1898 1.356 . S
C1901 C1895 1.363 . S
C1901 C1896 1.379 . S
C1901 N1899 1.356 . S
N1902 C1894 1.356 . S
N1902 H1908 0.984 . S
N1902 H1909 0.984 . S
N1903 C1896 1.356 . S
N1903 H1906 0.984 . S
N1903 H1907 0.985 . S
H1904 N1899 0.984 . S
H1905 N1899 0.985 . S
H1906 N1903 0.984 . S
H1907 N1903 0.985 . S
H1908 N1902 0.984 . S
H1909 N1902 0.984 . S
H1910 N1898 0.984 . S
H1911 N1898 0.985 . S
C1912 C1913 1.363 . S
C1912 C1918 1.379 . S
C1912 N1920 1.356 . S
C1913 C1912 1.363 . S
C1913 C1919 1.363 . S
C1914 C1915 1.363 . S
C1914 C1919 1.379 . S
C1914 N1921 1.356 . S
C1915 C1914 1.363 . S
C1915 C1918 1.363 . S
N1916 C1918 1.356 . S
N1916 H1928 0.984 . S
N1916 H1929 0.985 . S
N1917 C1919 1.356 . S
N1917 H1922 0.984 . S
N1917 H1923 0.985 . S
C1918 C1912 1.379 . S
C1918 C1915 1.363 . S
C1918 N1916 1.356 . S
C1919 C1913 1.363 . S
C1919 C1914 1.379 . S
C1919 N1917 1.356 . S
N1920 C1912 1.356 . S
N1920 H1926 0.984 . S
N1920 H1927 0.984 . S
N1921 C1914 1.356 . S
N1921 H1924 0.984 . S
N1921 H1925 0.985 . S
H1922 N1917 0.984 . S
H1923 N1917 0.985 . S
H1924 N1921 0.984 . S
H1925 N1921 0.985 . S
H1926 N1920 0.984 . S
H1927 N1920 0.984 . S
H1928 N1916 0.984 . S
H1929 N1916 0.985 . S
C1930 C1931 1.363 . S
C1930 C1936 1.379 . S
C1930 N1938 1.356 . S
C1931 C1930 1.363 . S
C1931 C1937 1.363 . S
C1932 C1933 1.363 . S
C1932 C1937 1.379 . S
C1932 N1939 1.356 . S
C1933 C1932 1.363 . S
C1933 C1936 1.363 . S
N1934 C1936 1.356 1_655 S
N1934 H1946 0.984 . S
N1934 H1947 0.986 . S
N1935 C1937 1.356 . S
N1935 H1940 0.984 . S
N1935 H1941 0.985 . S
C1936 C1930 1.379 . S
C1936 C1933 1.363 . S
C1936 N1934 1.356 1_455 S
C1937 C1931 1.363 . S
C1937 C1932 1.379 . S
C1937 N1935 1.356 . S
N1938 C1930 1.356 . S
N1938 H1944 0.984 1_455 S
N1938 H1945 0.984 . S
N1939 C1932 1.356 . S
N1939 H1942 0.984 . S
N1939 H1943 0.985 . S
H1940 N1935 0.984 . S
H1941 N1935 0.985 . S
H1942 N1939 0.984 . S
H1943 N1939 0.985 . S
H1944 N1938 0.984 1_655 S
H1945 N1938 0.984 . S
H1946 N1934 0.984 . S
H1947 N1934 0.986 . S
C1948 C1949 1.363 . S
C1948 C1954 1.379 . S
C1948 N1956 1.356 . S
C1949 C1948 1.363 . S
C1949 C1955 1.363 . S
C1950 C1951 1.363 . S
C1950 C1955 1.379 . S
C1950 N1957 1.356 . S
C1951 C1950 1.363 . S
C1951 C1954 1.363 . S
N1952 C1954 1.356 . S
N1952 H1964 0.984 . S
N1952 H1965 0.985 . S
N1953 C1955 1.356 . S
N1953 H1958 0.984 . S
N1953 H1959 0.985 . S
C1954 C1948 1.379 . S
C1954 C1951 1.363 . S
C1954 N1952 1.356 . S
C1955 C1949 1.363 . S
C1955 C1950 1.379 . S
C1955 N1953 1.356 . S
N1956 C1948 1.356 . S
N1956 H1962 0.984 . S
N1956 H1963 0.984 . S
N1957 C1950 1.356 . S
N1957 H1960 0.984 . S
N1957 H1961 0.985 . S
H1958 N1953 0.984 . S
H1959 N1953 0.985 . S
H1960 N1957 0.984 . S
H1961 N1957 0.985 . S
H1962 N1956 0.984 . S
H1963 N1956 0.984 . S
H1964 N1952 0.984 . S
H1965 N1952 0.985 . S
C1966 C1967 1.363 1_455 S
C1966 C1972 1.379 . S
C1966 N1974 1.356 . S
C1967 C1966 1.363 1_655 S
C1967 C1973 1.363 . S
C1968 C1969 1.363 . S
C1968 C1973 1.379 . S
C1968 N1975 1.356 . S
C1969 C1968 1.363 . S
C1969 C1972 1.363 1_655 S
N1970 C1972 1.356 . S
N1970 H1982 0.984 . S
N1970 H1983 0.985 . S
N1971 C1973 1.356 . S
N1971 H1976 0.984 . S
N1971 H1977 0.985 . S
C1972 C1966 1.379 . S
C1972 C1969 1.363 1_455 S
C1972 N1970 1.356 . S
C1973 C1967 1.363 . S
C1973 C1968 1.379 . S
C1973 N1971 1.356 . S
N1974 C1966 1.356 . S
N1974 H1980 0.984 . S
N1974 H1981 0.984 . S
N1975 C1968 1.356 . S
N1975 H1978 0.984 . S
N1975 H1979 0.985 . S
H1976 N1971 0.984 . S
H1977 N1971 0.985 . S
H1978 N1975 0.984 . S
H1979 N1975 0.985 . S
H1980 N1974 0.984 . S
H1981 N1974 0.984 . S
H1982 N1970 0.984 . S
H1983 N1970 0.985 . S
C1984 C1985 1.363 . S
C1984 C1990 1.379 . S
C1984 N1992 1.356 . S
C1985 C1984 1.363 . S
C1985 C1991 1.363 . S
C1986 C1987 1.363 . S
C1986 C1991 1.379 . S
C1986 N1993 1.356 . S
C1987 C1986 1.363 . S
C1987 C1990 1.363 . S
N1988 C1990 1.356 . S
N1988 H2000 0.984 . S
N1988 H2001 0.985 . S
N1989 C1991 1.356 . S
N1989 H1994 0.984 . S
N1989 H1995 0.985 . S
C1990 C1984 1.379 . S
C1990 C1987 1.363 . S
C1990 N1988 1.356 . S
C1991 C1985 1.363 . S
C1991 C1986 1.379 . S
C1991 N1989 1.356 . S
N1992 C1984 1.356 . S
N1992 H1998 0.984 . S
N1992 H1999 0.984 . S
N1993 C1986 1.356 . S
N1993 H1996 0.984 . S
N1993 H1997 0.985 . S
H1994 N1989 0.984 . S
H1995 N1989 0.985 . S
H1996 N1993 0.984 . S
H1997 N1993 0.985 . S
H1998 N1992 0.984 . S
H1999 N1992 0.984 . S
H2000 N1988 0.984 . S
H2001 N1988 0.985 . S
C2002 C2003 1.363 . S
C2002 C2008 1.379 . S
C2002 N2010 1.356 . S
C2003 C2002 1.363 . S
C2003 C2009 1.363 . S
C2004 C2005 1.363 . S
C2004 C2009 1.379 . S
C2004 N2011 1.356 . S
C2005 C2004 1.363 . S
C2005 C2008 1.363 . S
N2006 C2008 1.356 . S
N2006 H2018 0.984 . S
N2006 H2019 0.985 . S
N2007 C2009 1.356 . S
N2007 H2012 0.984 . S
N2007 H2013 0.985 . S
C2008 C2002 1.379 . S
C2008 C2005 1.363 . S
C2008 N2006 1.356 . S
C2009 C2003 1.363 . S
C2009 C2004 1.379 . S
C2009 N2007 1.356 . S
N2010 C2002 1.356 . S
N2010 H2016 0.984 . S
N2010 H2017 0.984 . S
N2011 C2004 1.356 . S
N2011 H2014 0.984 . S
N2011 H2015 0.985 . S
H2012 N2007 0.984 . S
H2013 N2007 0.985 . S
H2014 N2011 0.984 . S
H2015 N2011 0.985 . S
H2016 N2010 0.984 . S
H2017 N2010 0.984 . S
H2018 N2006 0.984 . S
H2019 N2006 0.985 . S
C2020 C2021 1.363 1_554 S
C2020 C2026 1.379 . S
C2020 N2028 1.356 . S
C2021 C2020 1.363 1_556 S
C2021 C2027 1.363 . S
C2022 C2023 1.363 . S
C2022 C2027 1.379 . S
C2022 N2029 1.356 . S
C2023 C2022 1.363 . S
C2023 C2026 1.363 1_556 S
N2024 C2026 1.356 . S
N2024 H2036 0.984 . S
N2024 H2037 0.985 . S
N2025 C2027 1.356 . S
N2025 H2030 0.984 . S
N2025 H2031 0.985 . S
C2026 C2020 1.379 . S
C2026 C2023 1.363 1_554 S
C2026 N2024 1.356 . S
C2027 C2021 1.363 . S
C2027 C2022 1.379 . S
C2027 N2025 1.356 . S
N2028 C2020 1.356 . S
N2028 H2034 0.984 . S
N2028 H2035 0.984 . S
N2029 C2022 1.356 . S
N2029 H2032 0.984 . S
N2029 H2033 0.985 . S
H2030 N2025 0.984 . S
H2031 N2025 0.985 . S
H2032 N2029 0.984 . S
H2033 N2029 0.985 . S
H2034 N2028 0.984 . S
H2035 N2028 0.984 . S
H2036 N2024 0.984 . S
H2037 N2024 0.985 . S
C2038 C2039 1.363 . S
C2038 C2044 1.379 . S
C2038 N2046 1.356 . S
C2039 C2038 1.363 . S
C2039 C2045 1.363 . S
C2040 C2041 1.363 . S
C2040 C2045 1.379 . S
C2040 N2047 1.356 . S
C2041 C2040 1.363 . S
C2041 C2044 1.363 . S
N2042 C2044 1.356 . S
N2042 H2054 0.984 . S
N2042 H2055 0.985 . S
N2043 C2045 1.356 . S
N2043 H2048 0.984 . S
N2043 H2049 0.985 . S
C2044 C2038 1.379 . S
C2044 C2041 1.363 . S
C2044 N2042 1.356 . S
C2045 C2039 1.363 . S
C2045 C2040 1.379 . S
C2045 N2043 1.356 . S
N2046 C2038 1.356 . S
N2046 H2052 0.984 . S
N2046 H2053 0.984 . S
N2047 C2040 1.356 . S
N2047 H2050 0.984 . S
N2047 H2051 0.985 . S
H2048 N2043 0.984 . S
H2049 N2043 0.985 . S
H2050 N2047 0.984 . S
H2051 N2047 0.985 . S
H2052 N2046 0.984 . S
H2053 N2046 0.984 . S
H2054 N2042 0.984 . S
H2055 N2042 0.985 . S
C2056 C2057 1.363 . S
C2056 C2062 1.379 . S
C2056 N2064 1.356 . S
C2057 C2056 1.363 . S
C2057 C2063 1.363 . S
C2058 C2059 1.363 . S
C2058 C2063 1.379 . S
C2058 N2065 1.356 . S
C2059 C2058 1.363 . S
C2059 C2062 1.363 . S
N2060 C2062 1.356 . S
N2060 H2072 0.984 . S
N2060 H2073 0.985 . S
N2061 C2063 1.356 . S
N2061 H2066 0.984 . S
N2061 H2067 0.985 . S
C2062 C2056 1.379 . S
C2062 C2059 1.363 . S
C2062 N2060 1.356 . S
C2063 C2057 1.363 . S
C2063 C2058 1.379 . S
C2063 N2061 1.356 . S
N2064 C2056 1.356 . S
N2064 H2070 0.984 . S
N2064 H2071 0.984 . S
N2065 C2058 1.356 . S
N2065 H2068 0.984 . S
N2065 H2069 0.985 . S
H2066 N2061 0.984 . S
H2067 N2061 0.985 . S
H2068 N2065 0.984 . S
H2069 N2065 0.985 . S
H2070 N2064 0.984 . S
H2071 N2064 0.984 . S
H2072 N2060 0.984 . S
H2073 N2060 0.985 . S
C2074 C2075 1.363 . S
C2074 C2080 1.379 . S
C2074 N2082 1.356 . S
C2075 C2074 1.363 . S
C2075 C2081 1.363 . S
C2076 C2077 1.363 . S
C2076 C2081 1.379 . S
C2076 N2083 1.356 . S
C2077 C2076 1.363 . S
C2077 C2080 1.363 . S
N2078 C2080 1.356 . S
N2078 H2090 0.984 . S
N2078 H2091 0.985 . S
N2079 C2081 1.356 . S
N2079 H2084 0.984 . S
N2079 H2085 0.985 . S
C2080 C2074 1.379 . S
C2080 C2077 1.363 . S
C2080 N2078 1.356 . S
C2081 C2075 1.363 . S
C2081 C2076 1.379 . S
C2081 N2079 1.356 . S
N2082 C2074 1.356 . S
N2082 H2088 0.984 . S
N2082 H2089 0.984 . S
N2083 C2076 1.356 . S
N2083 H2086 0.984 . S
N2083 H2087 0.985 . S
H2084 N2079 0.984 . S
H2085 N2079 0.985 . S
H2086 N2083 0.984 . S
H2087 N2083 0.985 . S
H2088 N2082 0.984 . S
H2089 N2082 0.984 . S
H2090 N2078 0.984 . S
H2091 N2078 0.985 . S
C2092 C2093 1.363 . S
C2092 C2098 1.379 . S
C2092 N2100 1.356 . S
C2093 C2092 1.363 . S
C2093 C2099 1.363 . S
C2094 C2095 1.363 . S
C2094 C2099 1.379 . S
C2094 N2101 1.356 . S
C2095 C2094 1.363 . S
C2095 C2098 1.363 . S
N2096 C2098 1.356 . S
N2096 H2108 0.984 . S
N2096 H2109 0.985 . S
N2097 C2099 1.356 . S
N2097 H2102 0.984 . S
N2097 H2103 0.985 . S
C2098 C2092 1.379 . S
C2098 C2095 1.363 . S
C2098 N2096 1.356 . S
C2099 C2093 1.363 . S
C2099 C2094 1.379 . S
C2099 N2097 1.356 . S
N2100 C2092 1.356 . S
N2100 H2106 0.984 . S
N2100 H2107 0.984 . S
N2101 C2094 1.356 . S
N2101 H2104 0.984 . S
N2101 H2105 0.985 . S
H2102 N2097 0.984 . S
H2103 N2097 0.985 . S
H2104 N2101 0.984 . S
H2105 N2101 0.985 . S
H2106 N2100 0.984 . S
H2107 N2100 0.984 . S
H2108 N2096 0.984 . S
H2109 N2096 0.985 . S
C2110 C2111 1.363 . S
C2110 C2116 1.379 . S
C2110 N2118 1.356 . S
C2111 C2110 1.363 . S
C2111 C2117 1.363 . S
C2112 C2113 1.363 . S
C2112 C2117 1.379 . S
C2112 N2119 1.356 . S
C2113 C2112 1.363 . S
C2113 C2116 1.363 . S
N2114 C2116 1.356 . S
N2114 H2126 0.984 . S
N2114 H2127 0.985 . S
N2115 C2117 1.356 . S
N2115 H2120 0.984 . S
N2115 H2121 0.985 . S
C2116 C2110 1.379 . S
C2116 C2113 1.363 . S
C2116 N2114 1.356 . S
C2117 C2111 1.363 . S
C2117 C2112 1.379 . S
C2117 N2115 1.356 . S
N2118 C2110 1.356 . S
N2118 H2124 0.984 . S
N2118 H2125 0.984 . S
N2119 C2112 1.356 . S
N2119 H2122 0.984 . S
N2119 H2123 0.985 . S
H2120 N2115 0.984 . S
H2121 N2115 0.985 . S
H2122 N2119 0.984 . S
H2123 N2119 0.985 . S
H2124 N2118 0.984 . S
H2125 N2118 0.984 . S
H2126 N2114 0.984 . S
H2127 N2114 0.985 . S
C2128 C2129 1.363 . S
C2128 C2134 1.379 . S
C2128 N2136 1.356 . S
C2129 C2128 1.363 . S
C2129 C2135 1.363 . S
C2130 C2131 1.363 . S
C2130 C2135 1.379 . S
C2130 N2137 1.356 . S
C2131 C2130 1.363 . S
C2131 C2134 1.363 . S
N2132 C2134 1.356 . S
N2132 H2144 0.984 . S
N2132 H2145 0.985 . S
N2133 C2135 1.356 . S
N2133 H2138 0.984 . S
N2133 H2139 0.985 . S
C2134 C2128 1.379 . S
C2134 C2131 1.363 . S
C2134 N2132 1.356 . S
C2135 C2129 1.363 . S
C2135 C2130 1.379 . S
C2135 N2133 1.356 . S
N2136 C2128 1.356 . S
N2136 H2142 0.984 . S
N2136 H2143 0.984 . S
N2137 C2130 1.356 . S
N2137 H2140 0.984 . S
N2137 H2141 0.985 . S
H2138 N2133 0.984 . S
H2139 N2133 0.985 . S
H2140 N2137 0.984 . S
H2141 N2137 0.985 . S
H2142 N2136 0.984 . S
H2143 N2136 0.984 . S
H2144 N2132 0.984 . S
H2145 N2132 0.985 . S
C2146 C2147 1.363 . S
C2146 C2152 1.379 . S
C2146 N2154 1.356 1_545 S
C2147 C2146 1.363 . S
C2147 C2153 1.363 . S
C2148 C2149 1.363 . S
C2148 C2153 1.379 . S
C2148 N2155 1.356 . S
C2149 C2148 1.363 . S
C2149 C2152 1.363 . S
N2150 C2152 1.356 1_565 S
N2150 H2162 0.984 . S
N2150 H2163 0.985 . S
N2151 C2153 1.356 . S
N2151 H2156 0.984 . S
N2151 H2157 0.985 . S
C2152 C2146 1.379 . S
C2152 C2149 1.363 . S
C2152 N2150 1.356 1_545 S
C2153 C2147 1.363 . S
C2153 C2148 1.379 . S
C2153 N2151 1.356 . S
N2154 C2146 1.356 1_565 S
N2154 H2160 0.984 . S
N2154 H2161 0.984 . S
N2155 C2148 1.356 . S
N2155 H2158 0.984 . S
N2155 H2159 0.985 . S
H2156 N2151 0.984 . S
H2157 N2151 0.985 . S
H2158 N2155 0.984 . S
H2159 N2155 0.985 . S
H2160 N2154 0.984 . S
H2161 N2154 0.984 . S
H2162 N2150 0.984 . S
H2163 N2150 0.985 . S
C2164 C2165 1.363 . S
C2164 C2170 1.379 . S
C2164 N2172 1.356 . S
C2165 C2164 1.363 . S
C2165 C2171 1.363 . S
C2166 C2167 1.363 . S
C2166 C2171 1.379 . S
C2166 N2173 1.356 . S
C2167 C2166 1.363 . S
C2167 C2170 1.363 . S
N2168 C2170 1.356 . S
N2168 H2180 0.984 . S
N2168 H2181 0.985 . S
N2169 C2171 1.356 . S
N2169 H2174 0.984 . S
N2169 H2175 0.985 . S
C2170 C2164 1.379 . S
C2170 C2167 1.363 . S
C2170 N2168 1.356 . S
C2171 C2165 1.363 . S
C2171 C2166 1.379 . S
C2171 N2169 1.356 . S
N2172 C2164 1.356 . S
N2172 H2178 0.984 . S
N2172 H2179 0.984 . S
N2173 C2166 1.356 . S
N2173 H2176 0.984 . S
N2173 H2177 0.985 . S
H2174 N2169 0.984 . S
H2175 N2169 0.985 . S
H2176 N2173 0.984 . S
H2177 N2173 0.985 . S
H2178 N2172 0.984 . S
H2179 N2172 0.984 . S
H2180 N2168 0.984 . S
H2181 N2168 0.985 . S
C2182 C2183 1.363 . S
C2182 C2188 1.379 . S
C2182 N2190 1.356 . S
C2183 C2182 1.363 . S
C2183 C2189 1.363 . S
C2184 C2185 1.363 . S
C2184 C2189 1.379 . S
C2184 N2191 1.356 . S
C2185 C2184 1.363 . S
C2185 C2188 1.363 . S
N2186 C2188 1.356 . S
N2186 H2198 0.984 . S
N2186 H2199 0.985 . S
N2187 C2189 1.356 . S
N2187 H2192 0.984 . S
N2187 H2193 0.985 . S
C2188 C2182 1.379 . S
C2188 C2185 1.363 . S
C2188 N2186 1.356 . S
C2189 C2183 1.363 . S
C2189 C2184 1.379 . S
C2189 N2187 1.356 . S
N2190 C2182 1.356 . S
N2190 H2196 0.984 . S
N2190 H2197 0.984 . S
N2191 C2184 1.356 . S
N2191 H2194 0.984 . S
N2191 H2195 0.985 . S
H2192 N2187 0.984 . S
H2193 N2187 0.985 . S
H2194 N2191 0.984 . S
H2195 N2191 0.985 . S
H2196 N2190 0.984 . S
H2197 N2190 0.984 . S
H2198 N2186 0.984 . S
H2199 N2186 0.985 . S
C2200 C2201 1.363 . S
C2200 C2206 1.379 . S
C2200 N2208 1.356 . S
C2201 C2200 1.363 . S
C2201 C2207 1.363 . S
C2202 C2203 1.363 . S
C2202 C2207 1.379 . S
C2202 N2209 1.356 . S
C2203 C2202 1.363 . S
C2203 C2206 1.363 . S
N2204 C2206 1.356 . S
N2204 H2216 0.984 . S
N2204 H2217 0.985 . S
N2205 C2207 1.356 . S
N2205 H2210 0.984 . S
N2205 H2211 0.985 . S
C2206 C2200 1.379 . S
C2206 C2203 1.363 . S
C2206 N2204 1.356 . S
C2207 C2201 1.363 . S
C2207 C2202 1.379 . S
C2207 N2205 1.356 . S
N2208 C2200 1.356 . S
N2208 H2214 0.984 . S
N2208 H2215 0.984 . S
N2209 C2202 1.356 . S
N2209 H2212 0.984 . S
N2209 H2213 0.985 . S
H2210 N2205 0.984 . S
H2211 N2205 0.985 . S
H2212 N2209 0.984 . S
H2213 N2209 0.985 . S
H2214 N2208 0.984 . S
H2215 N2208 0.984 . S
H2216 N2204 0.984 . S
H2217 N2204 0.985 . S
C2218 C2219 1.363 . S
C2218 C2224 1.379 . S
C2218 N2226 1.356 . S
C2219 C2218 1.363 . S
C2219 C2225 1.353 1_545 S
C2220 C2221 1.327 1_565 S
C2220 C2225 1.378 . S
C2220 N2227 1.389 . S
C2221 C2220 1.327 1_545 S
C2221 C2224 1.363 . S
N2222 C2224 1.356 . S
N2222 H2234 0.984 . S
N2222 H2235 0.985 . S
N2223 C2225 1.363 . S
N2223 H2228 0.984 . S
N2223 H2229 0.985 . S
C2224 C2218 1.379 . S
C2224 C2221 1.363 . S
C2224 N2222 1.356 . S
C2225 C2219 1.353 1_565 S
C2225 C2220 1.378 . S
C2225 N2223 1.363 . S
N2226 C2218 1.356 . S
N2226 H2232 0.984 . S
N2226 H2233 0.984 . S
N2227 C2220 1.389 . S
N2227 H2230 0.984 . S
N2227 H2231 0.985 . S
H2228 N2223 0.984 . S
H2229 N2223 0.985 . S
H2230 N2227 0.984 . S
H2231 N2227 0.985 . S
H2232 N2226 0.984 . S
H2233 N2226 0.984 . S
H2234 N2222 0.984 . S
H2235 N2222 0.985 . S
C2236 C2237 1.363 . S
C2236 C2242 1.379 . S
C2236 N2244 1.356 . S
C2237 C2236 1.363 . S
C2237 C2243 1.363 . S
C2238 C2239 1.363 . S
C2238 C2243 1.379 . S
C2238 N2245 1.356 . S
C2239 C2238 1.363 . S
C2239 C2242 1.363 . S
N2240 C2242 1.356 . S
N2240 H2252 0.984 . S
N2240 H2253 0.985 . S
N2241 C2243 1.356 . S
N2241 H2246 0.984 . S
N2241 H2247 0.985 . S
C2242 C2236 1.379 . S
C2242 C2239 1.363 . S
C2242 N2240 1.356 . S
C2243 C2237 1.363 . S
C2243 C2238 1.379 . S
C2243 N2241 1.356 . S
N2244 C2236 1.356 . S
N2244 H2250 0.984 . S
N2244 H2251 0.984 . S
N2245 C2238 1.356 . S
N2245 H2248 0.984 . S
N2245 H2249 0.985 . S
H2246 N2241 0.984 . S
H2247 N2241 0.985 . S
H2248 N2245 0.984 . S
H2249 N2245 0.985 . S
H2250 N2244 0.984 . S
H2251 N2244 0.984 . S
H2252 N2240 0.984 . S
H2253 N2240 0.985 . S
C2254 C2255 1.363 . S
C2254 C2260 1.379 . S
C2254 N2262 1.356 . S
C2255 C2254 1.363 . S
C2255 C2261 1.363 . S
C2256 C2257 1.363 . S
C2256 C2261 1.379 . S
C2256 N2263 1.356 . S
C2257 C2256 1.363 . S
C2257 C2260 1.363 . S
N2258 C2260 1.356 . S
N2258 H2270 0.984 . S
N2258 H2271 0.985 . S
N2259 C2261 1.356 . S
N2259 H2264 0.984 . S
N2259 H2265 0.985 . S
C2260 C2254 1.379 . S
C2260 C2257 1.363 . S
C2260 N2258 1.356 . S
C2261 C2255 1.363 . S
C2261 C2256 1.379 . S
C2261 N2259 1.356 . S
N2262 C2254 1.356 . S
N2262 H2268 0.984 . S
N2262 H2269 0.984 . S
N2263 C2256 1.356 . S
N2263 H2266 0.984 . S
N2263 H2267 0.985 . S
H2264 N2259 0.984 . S
H2265 N2259 0.985 . S
H2266 N2263 0.984 . S
H2267 N2263 0.985 . S
H2268 N2262 0.984 . S
H2269 N2262 0.984 . S
H2270 N2258 0.984 . S
H2271 N2258 0.985 . S
C2272 C2273 1.363 . S
C2272 C2278 1.379 . S
C2272 N2280 1.356 . S
C2273 C2272 1.363 . S
C2273 C2279 1.363 . S
C2274 C2275 1.363 . S
C2274 C2279 1.379 . S
C2274 N2281 1.356 . S
C2275 C2274 1.363 . S
C2275 C2278 1.363 . S
N2276 C2278 1.356 . S
N2276 H2288 0.984 . S
N2276 H2289 0.985 . S
N2277 C2279 1.356 . S
N2277 H2282 0.984 . S
N2277 H2283 0.985 . S
C2278 C2272 1.379 . S
C2278 C2275 1.363 . S
C2278 N2276 1.356 . S
C2279 C2273 1.363 . S
C2279 C2274 1.379 . S
C2279 N2277 1.356 . S
N2280 C2272 1.356 . S
N2280 H2286 0.984 . S
N2280 H2287 0.984 . S
N2281 C2274 1.356 . S
N2281 H2284 0.984 . S
N2281 H2285 0.985 . S
H2282 N2277 0.984 . S
H2283 N2277 0.985 . S
H2284 N2281 0.984 . S
H2285 N2281 0.985 . S
H2286 N2280 0.984 . S
H2287 N2280 0.984 . S
H2288 N2276 0.984 . S
H2289 N2276 0.985 . S
C2290 C2291 1.363 . S
C2290 C2296 1.379 . S
C2290 N2298 1.356 . S
C2291 C2290 1.363 . S
C2291 C2297 1.392 . S
C2292 C2293 1.376 . S
C2292 C2297 1.378 . S
C2292 N2299 1.346 1_655 S
C2293 C2292 1.376 . S
C2293 C2296 1.363 . S
N2294 C2296 1.356 . S
N2294 H2306 0.984 . S
N2294 H2307 0.985 . S
N2295 C2297 1.337 1_455 S
N2295 H2300 0.984 . S
N2295 H2301 0.985 . S
C2296 C2290 1.379 . S
C2296 C2293 1.363 . S
C2296 N2294 1.356 . S
C2297 C2291 1.392 . S
C2297 C2292 1.378 . S
C2297 N2295 1.337 1_655 S
N2298 C2290 1.356 . S
N2298 H2304 0.984 . S
N2298 H2305 0.984 . S
N2299 C2292 1.346 1_455 S
N2299 H2302 0.984 . S
N2299 H2303 0.985 . S
H2300 N2295 0.984 . S
H2301 N2295 0.985 . S
H2302 N2299 0.984 . S
H2303 N2299 0.985 . S
H2304 N2298 0.984 . S
H2305 N2298 0.984 . S
H2306 N2294 0.984 . S
H2307 N2294 0.985 . S
C2308 C2309 1.363 . S
C2308 C2314 1.379 . S
C2308 N2316 1.356 . S
C2309 C2308 1.363 . S
C2309 C2315 1.363 . S
C2310 C2311 1.363 . S
C2310 C2315 1.379 . S
C2310 N2317 1.356 . S
C2311 C2310 1.363 . S
C2311 C2314 1.363 . S
N2312 C2314 1.356 . S
N2312 H2324 0.984 . S
N2312 H2325 0.985 . S
N2313 C2315 1.356 . S
N2313 H2318 0.984 . S
N2313 H2319 0.985 . S
C2314 C2308 1.379 . S
C2314 C2311 1.363 . S
C2314 N2312 1.356 . S
C2315 C2309 1.363 . S
C2315 C2310 1.379 . S
C2315 N2313 1.356 . S
N2316 C2308 1.356 . S
N2316 H2322 0.984 . S
N2316 H2323 0.984 . S
N2317 C2310 1.356 . S
N2317 H2320 0.984 . S
N2317 H2321 0.985 . S
H2318 N2313 0.984 . S
H2319 N2313 0.985 . S
H2320 N2317 0.984 . S
H2321 N2317 0.985 . S
H2322 N2316 0.984 . S
H2323 N2316 0.984 . S
H2324 N2312 0.984 . S
H2325 N2312 0.985 . S
C2326 C2327 1.363 . S
C2326 C2332 1.379 . S
C2326 N2334 1.356 . S
C2327 C2326 1.363 . S
C2327 C2333 1.363 . S
C2328 C2329 1.363 . S
C2328 C2333 1.379 . S
C2328 N2335 1.356 . S
C2329 C2328 1.363 . S
C2329 C2332 1.363 . S
N2330 C2332 1.356 . S
N2330 H2342 0.984 . S
N2330 H2343 0.985 . S
N2331 C2333 1.356 . S
N2331 H2336 0.984 . S
N2331 H2337 0.985 . S
C2332 C2326 1.379 . S
C2332 C2329 1.363 . S
C2332 N2330 1.356 . S
C2333 C2327 1.363 . S
C2333 C2328 1.379 . S
C2333 N2331 1.356 . S
N2334 C2326 1.356 . S
N2334 H2340 0.984 . S
N2334 H2341 0.984 . S
N2335 C2328 1.356 . S
N2335 H2338 0.984 . S
N2335 H2339 0.985 . S
H2336 N2331 0.984 . S
H2337 N2331 0.985 . S
H2338 N2335 0.984 . S
H2339 N2335 0.985 . S
H2340 N2334 0.984 . S
H2341 N2334 0.984 . S
H2342 N2330 0.984 . S
H2343 N2330 0.985 . S
C2344 C2345 1.363 . S
C2344 C2350 1.379 . S
C2344 N2352 1.356 . S
C2345 C2344 1.363 . S
C2345 C2351 1.363 . S
C2346 C2347 1.363 . S
C2346 C2351 1.379 . S
C2346 N2353 1.356 . S
C2347 C2346 1.363 . S
C2347 C2350 1.363 . S
N2348 C2350 1.356 . S
N2348 H2360 0.984 . S
N2348 H2361 0.985 . S
N2349 C2351 1.356 . S
N2349 H2354 0.984 . S
N2349 H2355 0.985 . S
C2350 C2344 1.379 . S
C2350 C2347 1.363 . S
C2350 N2348 1.356 . S
C2351 C2345 1.363 . S
C2351 C2346 1.379 . S
C2351 N2349 1.356 . S
N2352 C2344 1.356 . S
N2352 H2358 0.984 . S
N2352 H2359 0.984 . S
N2353 C2346 1.356 . S
N2353 H2356 0.984 . S
N2353 H2357 0.985 . S
H2354 N2349 0.984 . S
H2355 N2349 0.985 . S
H2356 N2353 0.984 . S
H2357 N2353 0.985 . S
H2358 N2352 0.984 . S
H2359 N2352 0.984 . S
H2360 N2348 0.984 . S
H2361 N2348 0.985 . S
C2362 C2363 1.363 . S
C2362 C2368 1.379 . S
C2362 N2370 1.356 . S
C2363 C2362 1.363 . S
C2363 C2369 1.363 . S
C2364 C2365 1.363 . S
C2364 C2369 1.379 . S
C2364 N2371 1.356 . S
C2365 C2364 1.363 . S
C2365 C2368 1.363 . S
N2366 C2368 1.356 . S
N2366 H2378 0.984 . S
N2366 H2379 0.985 . S
N2367 C2369 1.356 . S
N2367 H2372 0.984 . S
N2367 H2373 0.985 . S
C2368 C2362 1.379 . S
C2368 C2365 1.363 . S
C2368 N2366 1.356 . S
C2369 C2363 1.363 . S
C2369 C2364 1.379 . S
C2369 N2367 1.356 . S
N2370 C2362 1.356 . S
N2370 H2376 0.984 . S
N2370 H2377 0.984 . S
N2371 C2364 1.356 . S
N2371 H2374 0.984 . S
N2371 H2375 0.985 . S
H2372 N2367 0.984 . S
H2373 N2367 0.985 . S
H2374 N2371 0.984 . S
H2375 N2371 0.985 . S
H2376 N2370 0.984 . S
H2377 N2370 0.984 . S
H2378 N2366 0.984 . S
H2379 N2366 0.985 . S
C2380 C2381 1.363 . S
C2380 C2386 1.379 . S
C2380 N2388 1.356 . S
C2381 C2380 1.363 . S
C2381 C2387 1.363 . S
C2382 C2383 1.363 . S
C2382 C2387 1.379 . S
C2382 N2389 1.356 . S
C2383 C2382 1.363 . S
C2383 C2386 1.363 . S
N2384 C2386 1.356 . S
N2384 H2396 0.984 . S
N2384 H2397 0.985 . S
N2385 C2387 1.356 . S
N2385 H2390 0.984 . S
N2385 H2391 0.985 . S
C2386 C2380 1.379 . S
C2386 C2383 1.363 . S
C2386 N2384 1.356 . S
C2387 C2381 1.363 . S
C2387 C2382 1.379 . S
C2387 N2385 1.356 . S
N2388 C2380 1.356 . S
N2388 H2394 0.984 . S
N2388 H2395 0.984 . S
N2389 C2382 1.356 . S
N2389 H2392 0.984 . S
N2389 H2393 0.985 . S
H2390 N2385 0.984 . S
H2391 N2385 0.985 . S
H2392 N2389 0.984 . S
H2393 N2389 0.985 . S
H2394 N2388 0.984 . S
H2395 N2388 0.984 . S
H2396 N2384 0.984 . S
H2397 N2384 0.985 . S
C2398 C2399 1.363 . S
C2398 C2404 1.379 . S
C2398 N2406 1.356 . S
C2399 C2398 1.363 . S
C2399 C2405 1.363 . S
C2400 C2401 1.363 . S
C2400 C2405 1.379 . S
C2400 N2407 1.356 . S
C2401 C2400 1.363 . S
C2401 C2404 1.363 . S
N2402 C2404 1.356 . S
N2402 H2414 0.984 . S
N2402 H2415 0.985 . S
N2403 C2405 1.356 . S
N2403 H2408 0.984 . S
N2403 H2409 0.985 . S
C2404 C2398 1.379 . S
C2404 C2401 1.363 . S
C2404 N2402 1.356 . S
C2405 C2399 1.363 . S
C2405 C2400 1.379 . S
C2405 N2403 1.356 . S
N2406 C2398 1.356 . S
N2406 H2412 0.984 . S
N2406 H2413 0.984 . S
N2407 C2400 1.356 . S
N2407 H2410 0.984 . S
N2407 H2411 0.985 . S
H2408 N2403 0.984 . S
H2409 N2403 0.985 . S
H2410 N2407 0.984 . S
H2411 N2407 0.985 . S
H2412 N2406 0.984 . S
H2413 N2406 0.984 . S
H2414 N2402 0.984 . S
H2415 N2402 0.985 . S
C2416 C2417 1.363 . S
C2416 C2422 1.379 . S
C2416 N2424 1.356 . S
C2417 C2416 1.363 . S
C2417 C2423 1.363 . S
C2418 C2419 1.363 . S
C2418 C2423 1.379 . S
C2418 N2425 1.356 . S
C2419 C2418 1.363 . S
C2419 C2422 1.363 . S
N2420 C2422 1.356 . S
N2420 H2432 0.984 . S
N2420 H2433 0.985 . S
N2421 C2423 1.356 . S
N2421 H2426 0.984 . S
N2421 H2427 0.985 . S
C2422 C2416 1.379 . S
C2422 C2419 1.363 . S
C2422 N2420 1.356 . S
C2423 C2417 1.363 . S
C2423 C2418 1.379 . S
C2423 N2421 1.356 . S
N2424 C2416 1.356 . S
N2424 H2430 0.984 . S
N2424 H2431 0.984 . S
N2425 C2418 1.356 . S
N2425 H2428 0.984 . S
N2425 H2429 0.985 . S
H2426 N2421 0.984 . S
H2427 N2421 0.985 . S
H2428 N2425 0.984 . S
H2429 N2425 0.985 . S
H2430 N2424 0.984 . S
H2431 N2424 0.984 . S
H2432 N2420 0.984 . S
H2433 N2420 0.985 . S
C2434 C2435 1.363 . S
C2434 C2440 1.379 . S
C2434 N2442 1.356 . S
C2435 C2434 1.363 . S
C2435 C2441 1.363 . S
C2436 C2437 1.363 . S
C2436 C2441 1.379 . S
C2436 N2443 1.356 . S
C2437 C2436 1.363 . S
C2437 C2440 1.363 . S
N2438 C2440 1.356 . S
N2438 H2450 0.984 . S
N2438 H2451 0.985 . S
N2439 C2441 1.356 . S
N2439 H2444 0.984 . S
N2439 H2445 0.985 . S
C2440 C2434 1.379 . S
C2440 C2437 1.363 . S
C2440 N2438 1.356 . S
C2441 C2435 1.363 . S
C2441 C2436 1.379 . S
C2441 N2439 1.356 . S
N2442 C2434 1.356 . S
N2442 H2448 0.984 . S
N2442 H2449 0.984 . S
N2443 C2436 1.356 . S
N2443 H2446 0.984 . S
N2443 H2447 0.985 . S
H2444 N2439 0.984 . S
H2445 N2439 0.985 . S
H2446 N2443 0.984 . S
H2447 N2443 0.985 . S
H2448 N2442 0.984 . S
H2449 N2442 0.984 . S
H2450 N2438 0.984 . S
H2451 N2438 0.985 . S
C2452 C2453 1.363 . S
C2452 C2458 1.379 . S
C2452 N2460 1.356 . S
C2453 C2452 1.363 . S
C2453 C2459 1.363 . S
C2454 C2455 1.363 . S
C2454 C2459 1.379 . S
C2454 N2461 1.356 . S
C2455 C2454 1.363 . S
C2455 C2458 1.363 . S
N2456 C2458 1.356 . S
N2456 H2468 0.984 . S
N2456 H2469 0.985 . S
N2457 C2459 1.356 . S
N2457 H2462 0.984 . S
N2457 H2463 0.985 . S
C2458 C2452 1.379 . S
C2458 C2455 1.363 . S
C2458 N2456 1.356 . S
C2459 C2453 1.363 . S
C2459 C2454 1.379 . S
C2459 N2457 1.356 . S
N2460 C2452 1.356 . S
N2460 H2466 0.984 . S
N2460 H2467 0.984 . S
N2461 C2454 1.356 . S
N2461 H2464 0.984 . S
N2461 H2465 0.985 . S
H2462 N2457 0.984 . S
H2463 N2457 0.985 . S
H2464 N2461 0.984 . S
H2465 N2461 0.985 . S
H2466 N2460 0.984 . S
H2467 N2460 0.984 . S
H2468 N2456 0.984 . S
H2469 N2456 0.985 . S
C2470 C2471 1.363 . S
C2470 C2476 1.379 . S
C2470 N2478 1.356 . S
C2471 C2470 1.363 . S
C2471 C2477 1.363 . S
C2472 C2473 1.363 . S
C2472 C2477 1.379 . S
C2472 N2479 1.356 . S
C2473 C2472 1.363 . S
C2473 C2476 1.363 . S
N2474 C2476 1.356 . S
N2474 H2486 0.984 . S
N2474 H2487 0.985 . S
N2475 C2477 1.356 . S
N2475 H2480 0.984 . S
N2475 H2481 0.985 . S
C2476 C2470 1.379 . S
C2476 C2473 1.363 . S
C2476 N2474 1.356 . S
C2477 C2471 1.363 . S
C2477 C2472 1.379 . S
C2477 N2475 1.356 . S
N2478 C2470 1.356 . S
N2478 H2484 0.984 . S
N2478 H2485 0.984 . S
N2479 C2472 1.356 . S
N2479 H2482 0.984 . S
N2479 H2483 0.985 . S
H2480 N2475 0.984 . S
H2481 N2475 0.985 . S
H2482 N2479 0.984 . S
H2483 N2479 0.985 . S
H2484 N2478 0.984 . S
H2485 N2478 0.984 . S
H2486 N2474 0.984 . S
H2487 N2474 0.985 . S
C2488 C2489 1.364 1_554 S
C2488 C2494 1.378 . S
C2488 N2496 1.355 . S
C2489 C2488 1.364 1_556 S
C2489 C2495 1.363 . S
C2490 C2491 1.363 . S
C2490 C2495 1.379 . S
C2490 N2497 1.356 . S
C2491 C2490 1.363 . S
C2491 C2494 1.334 1_556 S
N2492 C2494 1.382 . S
N2492 H2504 0.984 . S
N2492 H2505 0.985 . S
N2493 C2495 1.356 . S
N2493 H2498 0.984 . S
N2493 H2499 0.985 . S
C2494 C2488 1.378 . S
C2494 C2491 1.334 1_554 S
C2494 N2492 1.382 . S
C2495 C2489 1.363 . S
C2495 C2490 1.379 . S
C2495 N2493 1.356 . S
N2496 C2488 1.355 . S
N2496 H2502 0.984 . S
N2496 H2503 0.984 . S
N2497 C2490 1.356 . S
N2497 H2500 0.984 . S
N2497 H2501 0.985 . S
H2498 N2493 0.984 . S
H2499 N2493 0.985 . S
H2500 N2497 0.984 . S
H2501 N2497 0.985 . S
H2502 N2496 0.984 . S
H2503 N2496 0.984 . S
H2504 N2492 0.984 . S
H2505 N2492 0.985 . S
C2506 C2507 1.363 . S
C2506 C2512 1.379 . S
C2506 N2514 1.356 . S
C2507 C2506 1.363 . S
C2507 C2513 1.363 . S
C2508 C2509 1.363 . S
C2508 C2513 1.379 . S
C2508 N2515 1.356 . S
C2509 C2508 1.363 . S
C2509 C2512 1.363 . S
N2510 C2512 1.356 . S
N2510 H2522 0.984 . S
N2510 H2523 0.985 . S
N2511 C2513 1.356 . S
N2511 H2516 0.984 . S
N2511 H2517 0.985 . S
C2512 C2506 1.379 . S
C2512 C2509 1.363 . S
C2512 N2510 1.356 . S
C2513 C2507 1.363 . S
C2513 C2508 1.379 . S
C2513 N2511 1.356 . S
N2514 C2506 1.356 . S
N2514 H2520 0.984 . S
N2514 H2521 0.984 . S
N2515 C2508 1.356 . S
N2515 H2518 0.984 . S
N2515 H2519 0.985 . S
H2516 N2511 0.984 . S
H2517 N2511 0.985 . S
H2518 N2515 0.984 . S
H2519 N2515 0.985 . S
H2520 N2514 0.984 . S
H2521 N2514 0.984 . S
H2522 N2510 0.984 . S
H2523 N2510 0.985 . S
C2524 C2525 1.363 . S
C2524 C2530 1.379 . S
C2524 N2532 1.356 . S
C2525 C2524 1.363 . S
C2525 C2531 1.389 . S
C2526 C2527 1.363 1_556 S
C2526 C2531 1.376 1_556 S
C2526 N2533 1.356 . S
C2527 C2526 1.363 1_554 S
C2527 C2530 1.363 . S
N2528 C2530 1.356 . S
N2528 H2540 0.984 . S
N2528 H2541 0.985 . S
N2529 C2531 1.340 1_556 S
N2529 H2534 0.984 . S
N2529 H2535 0.985 . S
C2530 C2524 1.379 . S
C2530 C2527 1.363 . S
C2530 N2528 1.356 . S
C2531 C2525 1.389 . S
C2531 C2526 1.376 1_554 S
C2531 N2529 1.340 1_554 S
N2532 C2524 1.356 . S
N2532 H2538 0.984 . S
N2532 H2539 0.984 . S
N2533 C2526 1.356 . S
N2533 H2536 0.984 . S
N2533 H2537 0.985 . S
H2534 N2529 0.984 . S
H2535 N2529 0.985 . S
H2536 N2533 0.984 . S
H2537 N2533 0.985 . S
H2538 N2532 0.984 . S
H2539 N2532 0.984 . S
H2540 N2528 0.984 . S
H2541 N2528 0.985 . S
C2542 C2543 1.363 . S
C2542 C2548 1.379 . S
C2542 N2550 1.356 1_554 S
C2543 C2542 1.363 . S
C2543 C2549 1.363 . S
C2544 C2545 1.363 . S
C2544 C2549 1.379 . S
C2544 N2551 1.356 . S
C2545 C2544 1.363 . S
C2545 C2548 1.363 . S
N2546 C2548 1.356 1_556 S
N2546 H2558 0.984 . S
N2546 H2559 0.985 . S
N2547 C2549 1.356 . S
N2547 H2552 0.984 . S
N2547 H2553 0.985 . S
C2548 C2542 1.379 . S
C2548 C2545 1.363 . S
C2548 N2546 1.356 1_554 S
C2549 C2543 1.363 . S
C2549 C2544 1.379 . S
C2549 N2547 1.356 . S
N2550 C2542 1.356 1_556 S
N2550 H2556 0.984 . S
N2550 H2557 0.984 . S
N2551 C2544 1.356 . S
N2551 H2554 0.984 . S
N2551 H2555 0.985 . S
H2552 N2547 0.984 . S
H2553 N2547 0.985 . S
H2554 N2551 0.984 . S
H2555 N2551 0.985 . S
H2556 N2550 0.984 . S
H2557 N2550 0.984 . S
H2558 N2546 0.984 . S
H2559 N2546 0.985 . S
C1699 C689 1.500 . S
C1697 C202 1.468 . S
C1717 C748 1.545 . S
C1715 C261 1.548 . S
C1733 C282 1.523 . S
C1735 C865 1.532 . S
C1753 C933 1.530 . S
C1751 C162 1.527 . S
C1771 C1012 1.500 . S
C1769 C402 1.468 . S
C1789 C1137 1.530 . S
C1787 C482 1.527 . S
C1805 C442 1.523 . S
C1807 C1197 1.526 . S
C1825 C1305 1.544 . S
C1823 C381 1.548 . S
C1841 C461 1.565 . S
C1843 C1401 1.561 . S
C1861 C1461 1.503 . S
C1859 C362 1.500 . S
C1877 C415 1.467 . S
C1879 C1364 1.470 . S
C1897 C1481 1.546 . S
C1895 C495 1.545 . S
C1913 C301 1.565 . S
C1915 C1549 1.561 . S
C1931 C175 1.545 . S
C1933 C1540 1.546 . S
C1949 C215 1.467 . S
C1951 C1569 1.470 . S
C1967 C242 1.500 . S
C1969 C1577 1.503 . S
C1985 C141 1.523 . S
C1987 C961 1.552 . S
C2003 C581 1.523 . S
C2005 C924 1.550 . S
C2023 C660 1.474 . S
C2021 C615 1.472 . S
C2041 C757 1.504 . S
C2039 C335 1.504 . S
C2057 C181 1.584 . S
C2059 C1021 1.582 . S
C2077 C1313 1.504 . S
C2075 C455 1.502 . S
C2095 C1041 1.474 . S
C2093 C375 1.472 . S
C2113 C1225 1.583 . S
C2111 C501 1.584 . S
C2131 C1217 1.500 . S
C2129 C562 1.468 . S
C2147 C621 1.548 . S
C2149 C1285 1.544 . S
C2165 C322 1.523 . S
C2167 C1049 1.526 . S
C2185 C1100 1.530 . S
C2183 C522 1.527 . S
C2201 C122 1.468 . S
C2203 C845 1.494 . S
C2221 C953 1.530 . S
C2219 C2 1.526 . S
C2239 C669 1.526 . S
C2237 C42 1.523 . S
C2257 C785 1.544 . S
C2255 C101 1.548 . S
C2273 C61 1.565 . S
C2275 C1489 1.561 . S
C2291 C82 1.500 . S
C2293 C1373 1.503 . S
C2309 C135 1.467 . S
C2311 C1452 1.470 . S
C2327 C15 1.545 . S
C2329 C1393 1.546 . S
C2347 C1637 1.561 . S
C2345 C341 1.565 . S
C2365 C1628 1.546 . S
C2363 C535 1.545 . S
C2383 C1657 1.470 . S
C2381 C575 1.467 . S
C2399 C602 1.500 . S
C2401 C1665 1.503 . S
C2417 C421 1.523 . S
C2419 C1129 1.551 . S
C2437 C1109 1.551 . S
C2435 C221 1.523 . S
C2455 C1188 1.474 . S
C2453 C255 1.472 . S
C2473 C1276 1.504 . S
C2471 C295 1.505 . S
C2489 C541 1.584 . S
C2491 C836 1.583 . S
C2509 C777 1.504 . S
C2507 C55 1.503 . S
C2525 C95 1.472 . S
C2527 C873 1.473 . S
C2545 C697 1.583 . S
C2543 C21 1.584 . S
