# Generated by pormake.
# Topology ocu, (6,8)-cn, num edge types: 1
# Building blocks:
#     Node 0, Type 0, BuildingBlock: HISSIN_clean_sbu_0, # of connection points: 6
#     Node 1, Type 0, BuildingBlock: HISSIN_clean_sbu_0, # of connection points: 6
#     Node 2, Type 0, BuildingBlock: HISSIN_clean_sbu_0, # of connection points: 6
#     Node 3, Type 0, BuildingBlock: HISSIN_clean_sbu_0, # of connection points: 6
#     Node 4, Type 0, BuildingBlock: HISSIN_clean_sbu_0, # of connection points: 6
#     Node 5, Type 0, BuildingBlock: HISSIN_clean_sbu_0, # of connection points: 6
#     Node 6, Type 0, BuildingBlock: HISSIN_clean_sbu_0, # of connection points: 6
#     Node 7, Type 0, BuildingBlock: HISSIN_clean_sbu_0, # of connection points: 6
#     Node 8, Type 1, BuildingBlock: TAGTUT_clean_sbu_1, # of connection points: 8
#     Node 9, Type 1, BuildingBlock: TAGTUT_clean_sbu_1, # of connection points: 8
#     Node 10, Type 1, BuildingBlock: TAGTUT_clean_sbu_1, # of connection points: 8
#     Node 11, Type 1, BuildingBlock: TAGTUT_clean_sbu_1, # of connection points: 8
#     Node 12, Type 1, BuildingBlock: TAGTUT_clean_sbu_1, # of connection points: 8
#     Node 13, Type 1, BuildingBlock: TAGTUT_clean_sbu_1, # of connection points: 8
#     Edge 14, Type (0, 1), BuildingBlock: TEMPAE_clean_linker_10, # of connection points: 2
#     Edge 15, Type (0, 1), BuildingBlock: TEMPAE_clean_linker_10, # of connection points: 2
#     Edge 16, Type (0, 1), BuildingBlock: TEMPAE_clean_linker_10, # of connection points: 2
#     Edge 17, Type (0, 1), BuildingBlock: TEMPAE_clean_linker_10, # of connection points: 2
#     Edge 18, Type (0, 1), BuildingBlock: TEMPAE_clean_linker_10, # of connection points: 2
#     Edge 19, Type (0, 1), BuildingBlock: TEMPAE_clean_linker_10, # of connection points: 2
#     Edge 20, Type (0, 1), BuildingBlock: TEMPAE_clean_linker_10, # of connection points: 2
#     Edge 21, Type (0, 1), BuildingBlock: TEMPAE_clean_linker_10, # of connection points: 2
#     Edge 22, Type (0, 1), BuildingBlock: TEMPAE_clean_linker_10, # of connection points: 2
#     Edge 23, Type (0, 1), BuildingBlock: TEMPAE_clean_linker_10, # of connection points: 2
#     Edge 24, Type (0, 1), BuildingBlock: TEMPAE_clean_linker_10, # of connection points: 2
#     Edge 25, Type (0, 1), BuildingBlock: TEMPAE_clean_linker_10, # of connection points: 2
#     Edge 26, Type (0, 1), BuildingBlock: TEMPAE_clean_linker_10, # of connection points: 2
#     Edge 27, Type (0, 1), BuildingBlock: TEMPAE_clean_linker_10, # of connection points: 2
#     Edge 28, Type (0, 1), BuildingBlock: TEMPAE_clean_linker_10, # of connection points: 2
#     Edge 29, Type (0, 1), BuildingBlock: TEMPAE_clean_linker_10, # of connection points: 2
#     Edge 30, Type (0, 1), BuildingBlock: TEMPAE_clean_linker_10, # of connection points: 2
#     Edge 31, Type (0, 1), BuildingBlock: TEMPAE_clean_linker_10, # of connection points: 2
#     Edge 32, Type (0, 1), BuildingBlock: TEMPAE_clean_linker_10, # of connection points: 2
#     Edge 33, Type (0, 1), BuildingBlock: TEMPAE_clean_linker_10, # of connection points: 2
#     Edge 34, Type (0, 1), BuildingBlock: TEMPAE_clean_linker_10, # of connection points: 2
#     Edge 35, Type (0, 1), BuildingBlock: TEMPAE_clean_linker_10, # of connection points: 2
#     Edge 36, Type (0, 1), BuildingBlock: TEMPAE_clean_linker_10, # of connection points: 2
#     Edge 37, Type (0, 1), BuildingBlock: TEMPAE_clean_linker_10, # of connection points: 2
#     Edge 38, Type (0, 1), BuildingBlock: TEMPAE_clean_linker_10, # of connection points: 2
#     Edge 39, Type (0, 1), BuildingBlock: TEMPAE_clean_linker_10, # of connection points: 2
#     Edge 40, Type (0, 1), BuildingBlock: TEMPAE_clean_linker_10, # of connection points: 2
#     Edge 41, Type (0, 1), BuildingBlock: TEMPAE_clean_linker_10, # of connection points: 2
#     Edge 42, Type (0, 1), BuildingBlock: TEMPAE_clean_linker_10, # of connection points: 2
#     Edge 43, Type (0, 1), BuildingBlock: TEMPAE_clean_linker_10, # of connection points: 2
#     Edge 44, Type (0, 1), BuildingBlock: TEMPAE_clean_linker_10, # of connection points: 2
#     Edge 45, Type (0, 1), BuildingBlock: TEMPAE_clean_linker_10, # of connection points: 2
#     Edge 46, Type (0, 1), BuildingBlock: TEMPAE_clean_linker_10, # of connection points: 2
#     Edge 47, Type (0, 1), BuildingBlock: TEMPAE_clean_linker_10, # of connection points: 2
#     Edge 48, Type (0, 1), BuildingBlock: TEMPAE_clean_linker_10, # of connection points: 2
#     Edge 49, Type (0, 1), BuildingBlock: TEMPAE_clean_linker_10, # of connection points: 2
#     Edge 50, Type (0, 1), BuildingBlock: TEMPAE_clean_linker_10, # of connection points: 2
#     Edge 51, Type (0, 1), BuildingBlock: TEMPAE_clean_linker_10, # of connection points: 2
#     Edge 52, Type (0, 1), BuildingBlock: TEMPAE_clean_linker_10, # of connection points: 2
#     Edge 53, Type (0, 1), BuildingBlock: TEMPAE_clean_linker_10, # of connection points: 2
#     Edge 54, Type (0, 1), BuildingBlock: TEMPAE_clean_linker_10, # of connection points: 2
#     Edge 55, Type (0, 1), BuildingBlock: TEMPAE_clean_linker_10, # of connection points: 2
#     Edge 56, Type (0, 1), BuildingBlock: TEMPAE_clean_linker_10, # of connection points: 2
#     Edge 57, Type (0, 1), BuildingBlock: TEMPAE_clean_linker_10, # of connection points: 2
#     Edge 58, Type (0, 1), BuildingBlock: TEMPAE_clean_linker_10, # of connection points: 2
#     Edge 59, Type (0, 1), BuildingBlock: TEMPAE_clean_linker_10, # of connection points: 2
#     Edge 60, Type (0, 1), BuildingBlock: TEMPAE_clean_linker_10, # of connection points: 2
#     Edge 61, Type (0, 1), BuildingBlock: TEMPAE_clean_linker_10, # of connection points: 2
# Relax obj value: 0.101
# Max RMSD: 0.211
# Mean RMSD: 0.124
data_MOF--net-ocu--node1-HISSIN_clean_sbu_0--node2-TAGTUT_clean_sbu_1--edge1-TEMPAE_clean_linker_10
_symmetry_space_group_name_H-M    P1
_symmetry_Int_Tables_number       1
_symmetry_cell_setting            triclinic
loop_
_symmetry_equiv_pos_as_xyz
'x, y, z'
_cell_length_a     42.29643
_cell_length_b     41.287548
_cell_length_c     42.27908
_cell_angle_alpha  101.82277
_cell_angle_beta   81.836375
_cell_angle_gamma 114.50234
loop_
_atom_site_label
_atom_site_type_symbol
_atom_site_fract_x
_atom_site_fract_y
_atom_site_fract_z
_atom_type_partial_charge
Eu0 Eu 0.29335 0.25453 0.28197 0.0
Eu1 Eu 0.23449 0.2344 0.22752 0.0
C2 C 0.21918 0.18636 0.28523 0.0
C3 C 0.35456 0.24682 0.33481 0.0
C4 C 0.33644 0.20944 0.33384 0.0
C5 C 0.40391 0.24364 0.3552 0.0
C6 C 0.35182 0.18938 0.34385 0.0
C7 C 0.38846 0.26369 0.34528 0.0
C8 C 0.38568 0.20627 0.35486 0.0
C9 C 0.33874 0.26826 0.3242 0.0
O10 O 0.22361 0.27674 0.26518 0.0
O11 O 0.26105 0.2876 0.30447 0.0
C12 C 0.23555 0.29242 0.29393 0.0
O13 O 0.32141 0.29112 0.24531 0.0
O14 O 0.18092 0.21679 0.21441 0.0
O15 O 0.22312 0.22968 0.17757 0.0
O16 O 0.27604 0.28793 0.21894 0.0
C17 C 0.3092 0.30156 0.22427 0.0
O18 O 0.30353 0.21128 0.24462 0.0
O19 O 0.268 0.20285 0.20433 0.0
O20 O 0.20685 0.19556 0.26318 0.0
O21 O 0.34736 0.27466 0.2946 0.0
O22 O 0.30555 0.25946 0.33164 0.0
O23 O 0.25213 0.20148 0.29151 0.0
C24 C 0.17645 0.24581 0.17359 0.0
C25 C 0.19473 0.28351 0.17774 0.0
C26 C 0.13125 0.25173 0.1484 0.0
C27 C 0.18132 0.30511 0.16726 0.0
C28 C 0.14452 0.23015 0.15906 0.0
C29 C 0.14955 0.28934 0.15241 0.0
C30 C 0.19019 0.22276 0.18473 0.0
C31 C 0.2927 0.19701 0.21523 0.0
H32 H 0.31033 0.19578 0.32553 0.0
H33 H 0.43019 0.25739 0.36306 0.0
H34 H 0.33691 0.16075 0.3436 0.0
H35 H 0.40301 0.29243 0.34578 0.0
H36 H 0.21938 0.2962 0.189 0.0
H37 H 0.10665 0.23909 0.13704 0.0
H38 H 0.19593 0.33406 0.17038 0.0
H39 H 0.1299 0.2012 0.15587 0.0
Eu40 Eu 0.79619 0.22957 0.25838 0.0
Eu41 Eu 0.73895 0.25747 0.24574 0.0
C42 C 0.7886 0.29718 0.30248 0.0
C43 C 0.84316 0.18345 0.29192 0.0
C44 C 0.83985 0.19093 0.32596 0.0
C45 C 0.85636 0.13253 0.2955 0.0
C46 C 0.84599 0.17013 0.34451 0.0
C47 C 0.85069 0.15364 0.27688 0.0
C48 C 0.85503 0.14138 0.32932 0.0
C49 C 0.84171 0.20806 0.27202 0.0
O50 O 0.78989 0.29781 0.22795 0.0
O51 O 0.82106 0.26213 0.21792 0.0
C52 C 0.81707 0.2912 0.21451 0.0
O53 O 0.7577 0.18486 0.2256 0.0
O54 O 0.71082 0.29244 0.25677 0.0
O55 O 0.69745 0.24907 0.2157 0.0
O56 O 0.75259 0.22545 0.20051 0.0
C57 C 0.74926 0.19255 0.20038 0.0
O58 O 0.75274 0.21208 0.29703 0.0
O59 O 0.70869 0.20748 0.26826 0.0
O60 O 0.75569 0.28369 0.29641 0.0
O61 O 0.82388 0.19368 0.24625 0.0
O62 O 0.83744 0.23679 0.28755 0.0
O63 O 0.81053 0.28655 0.28306 0.0
C64 C 0.69419 0.30378 0.21047 0.0
C65 C 0.68673 0.29231 0.17765 0.0
C66 C 0.69609 0.36254 0.20718 0.0
C67 C 0.683 0.31556 0.16007 0.0
C68 C 0.70001 0.33949 0.22468 0.0
C69 C 0.68629 0.35028 0.17521 0.0
C70 C 0.69369 0.27834 0.2306 0.0
C71 C 0.71951 0.19966 0.29212 0.0
H72 H 0.83387 0.21363 0.33832 0.0
H73 H 0.86367 0.11058 0.28351 0.0
H74 H 0.84493 0.17723 0.37067 0.0
H75 H 0.85349 0.14749 0.25073 0.0
H76 H 0.6822 0.26496 0.16599 0.0
H77 H 0.69865 0.38926 0.21921 0.0
H78 H 0.67501 0.30553 0.13547 0.0
H79 H 0.70597 0.34919 0.24983 0.0
Eu80 Eu 0.76747 0.76896 0.22447 0.0
Eu81 Eu 0.76326 0.72017 0.28149 0.0
C82 C 0.70859 0.6932 0.22942 0.0
C83 C 0.73934 0.81649 0.17174 0.0
C84 C 0.70279 0.79893 0.17405 0.0
C85 C 0.73388 0.86622 0.15374 0.0
C86 C 0.68207 0.81463 0.16582 0.0
C87 C 0.75461 0.85045 0.16188 0.0
C88 C 0.69733 0.84829 0.15515 0.0
C89 C 0.76176 0.79915 0.1781 0.0
O90 O 0.79283 0.69898 0.24019 0.0
O91 O 0.79888 0.73458 0.20192 0.0
C92 C 0.80423 0.70865 0.21152 0.0
O93 O 0.80527 0.80662 0.26116 0.0
O94 O 0.74809 0.67318 0.30545 0.0
O95 O 0.78404 0.72562 0.3275 0.0
O96 O 0.81627 0.76045 0.26954 0.0
C97 C 0.82289 0.79469 0.27518 0.0
O98 O 0.74155 0.79309 0.26736 0.0
O99 O 0.73077 0.75353 0.30332 0.0
O100 O 0.72568 0.68193 0.24492 0.0
O101 O 0.78389 0.81637 0.20056 0.0
O102 O 0.74686 0.76454 0.17877 0.0
O103 O 0.71443 0.72738 0.23445 0.0
C104 C 0.79403 0.67446 0.33355 0.0
C105 C 0.82729 0.69612 0.345 0.0
C106 C 0.80461 0.62108 0.33533 0.0
C107 C 0.8488 0.68043 0.35166 0.0
C108 C 0.7831 0.63676 0.32862 0.0
C109 C 0.83759 0.64269 0.34727 0.0
C110 C 0.77038 0.69087 0.32778 0.0
C111 C 0.72833 0.7818 0.29519 0.0
H112 H 0.69013 0.7727 0.18159 0.0
H113 H 0.74653 0.89238 0.14607 0.0
H114 H 0.65408 0.79981 0.16681 0.0
H115 H 0.78268 0.86457 0.15998 0.0
H116 H 0.83659 0.72527 0.34934 0.0
H117 H 0.79526 0.59195 0.33138 0.0
H118 H 0.8738 0.69793 0.36129 0.0
H119 H 0.75767 0.61929 0.31991 0.0
Eu120 Eu 0.28273 0.7094 0.24713 0.0
Eu121 Eu 0.25229 0.7703 0.27002 0.0
C122 C 0.2285 0.71653 0.2061 0.0
C123 C 0.34016 0.67637 0.1991 0.0
C124 C 0.33556 0.69245 0.17487 0.0
C125 C 0.40186 0.69894 0.18408 0.0
C126 C 0.36368 0.71203 0.15587 0.0
C127 C 0.37349 0.6798 0.20362 0.0
C128 C 0.39744 0.71488 0.15921 0.0
C129 C 0.31243 0.66595 0.22454 0.0
O130 O 0.20742 0.7185 0.27961 0.0
O131 O 0.23895 0.68584 0.28398 0.0
C132 C 0.20983 0.69108 0.28886 0.0
O133 O 0.31878 0.75602 0.27977 0.0
O134 O 0.22393 0.8044 0.27276 0.0
O135 O 0.25626 0.81235 0.31191 0.0
O136 O 0.27034 0.75275 0.30751 0.0
C137 C 0.30371 0.76502 0.30689 0.0
O138 O 0.31007 0.75013 0.21274 0.0
O139 O 0.30326 0.79967 0.24378 0.0
O140 O 0.23455 0.74974 0.21982 0.0
O141 O 0.31984 0.68699 0.25246 0.0
O142 O 0.28154 0.6596 0.21638 0.0
O143 O 0.2379 0.69519 0.21786 0.0
C144 C 0.19781 0.80007 0.3249 0.0
C145 C 0.19659 0.81445 0.35781 0.0
C146 C 0.1381 0.75735 0.3309 0.0
C147 C 0.16481 0.80227 0.37589 0.0
C148 C 0.16949 0.76885 0.31257 0.0
C149 C 0.13461 0.78004 0.35922 0.0
C150 C 0.22877 0.81464 0.30373 0.0
C151 C 0.31819 0.78519 0.21899 0.0
H152 H 0.3103 0.69146 0.1714 0.0
H153 H 0.4269 0.69989 0.18809 0.0
H154 H 0.35832 0.72442 0.13827 0.0
H155 H 0.37772 0.66862 0.2229 0.0
H156 H 0.21907 0.83635 0.3687 0.0
H157 H 0.11522 0.73727 0.31913 0.0
H158 H 0.1628 0.81731 0.39978 0.0
H159 H 0.17035 0.75518 0.28794 0.0
Eu160 Eu 0.30083 0.72691 0.76102 0.0
Eu161 Eu 0.23324 0.75723 0.74362 0.0
C162 C 0.28049 0.79915 0.79099 0.0
C163 C 0.35035 0.69972 0.8088 0.0
C164 C 0.35943 0.70735 0.8409 0.0
C165 C 0.34595 0.63864 0.80464 0.0
C166 C 0.36242 0.68089 0.85463 0.0
C167 C 0.34249 0.66487 0.7911 0.0
C168 C 0.35663 0.64676 0.8362 0.0
C169 C 0.34781 0.72774 0.79438 0.0
O170 O 0.28402 0.78786 0.71646 0.0
O171 O 0.32584 0.76707 0.72614 0.0
C172 C 0.31544 0.78696 0.71252 0.0
O173 O 0.27929 0.67895 0.72039 0.0
O174 O 0.18276 0.75886 0.74336 0.0
O175 O 0.2107 0.74761 0.69764 0.0
O176 O 0.25421 0.71551 0.73 0.0
C177 C 0.25452 0.68606 0.7124 0.0
O178 O 0.2499 0.69524 0.78721 0.0
O179 O 0.20889 0.71768 0.77913 0.0
O180 O 0.2558 0.80626 0.78285 0.0
O181 O 0.3502 0.72323 0.76264 0.0
O182 O 0.32295 0.73817 0.80744 0.0
O183 O 0.27976 0.76873 0.7745 0.0
C184 C 0.18329 0.78717 0.70035 0.0
C185 C 0.17683 0.78373 0.66798 0.0
C186 C 0.18629 0.84831 0.71055 0.0
C187 C 0.17451 0.81229 0.65711 0.0
C188 C 0.18914 0.82006 0.72129 0.0
C189 C 0.17842 0.84428 0.67863 0.0
C190 C 0.18563 0.75722 0.71185 0.0
C191 C 0.21879 0.69691 0.7921 0.0
H192 H 0.36486 0.73392 0.85505 0.0
H193 H 0.34137 0.61238 0.79019 0.0
H194 H 0.371 0.68763 0.87898 0.0
H195 H 0.33442 0.65808 0.76656 0.0
H196 H 0.17296 0.75881 0.65139 0.0
H197 H 0.18899 0.87279 0.7274 0.0
H198 H 0.16789 0.8088 0.63244 0.0
H199 H 0.19514 0.82376 0.74618 0.0
Eu200 Eu 0.26658 0.2679 0.72243 0.0
Eu201 Eu 0.265 0.22324 0.78078 0.0
C202 C 0.20588 0.19398 0.73269 0.0
C203 C 0.23736 0.31315 0.67041 0.0
C204 C 0.20209 0.29917 0.68155 0.0
C205 C 0.22799 0.35875 0.6494 0.0
C206 C 0.17983 0.31452 0.67615 0.0
C207 C 0.25018 0.34323 0.65462 0.0
C208 C 0.19249 0.34435 0.65981 0.0
C209 C 0.26099 0.29686 0.6754 0.0
O210 O 0.2887 0.19605 0.73825 0.0
O211 O 0.29852 0.23374 0.70095 0.0
C212 C 0.30129 0.20597 0.70978 0.0
O213 O 0.30435 0.30743 0.75802 0.0
O214 O 0.24807 0.17877 0.80835 0.0
O215 O 0.28993 0.22996 0.82465 0.0
O216 O 0.31738 0.26266 0.76588 0.0
C217 C 0.32338 0.29675 0.77146 0.0
O218 O 0.23716 0.29046 0.76331 0.0
O219 O 0.23458 0.25855 0.80337 0.0
O220 O 0.22485 0.18395 0.74703 0.0
O221 O 0.28291 0.31464 0.69794 0.0
O222 O 0.24691 0.26218 0.67589 0.0
O223 O 0.21303 0.22808 0.7341 0.0
C224 C 0.29359 0.17684 0.83409 0.0
C225 C 0.33012 0.19116 0.82914 0.0
C226 C 0.29574 0.12624 0.85337 0.0
C227 C 0.34926 0.17335 0.83666 0.0
C228 C 0.27662 0.14402 0.84585 0.0
C229 C 0.33231 0.14098 0.84934 0.0
C230 C 0.2729 0.19622 0.8283 0.0
C231 C 0.22765 0.28301 0.79294 0.0
H232 H 0.19166 0.2762 0.69422 0.0
H233 H 0.23844 0.38139 0.63635 0.0
H234 H 0.15269 0.303 0.68467 0.0
H235 H 0.27731 0.3545 0.646 0.0
H236 H 0.34401 0.21644 0.82006 0.0
H237 H 0.28192 0.10114 0.86276 0.0
H238 H 0.37741 0.18558 0.83362 0.0
H239 H 0.24852 0.1324 0.84974 0.0
Eu240 Eu 0.78232 0.21954 0.75211 0.0
Eu241 Eu 0.74198 0.27192 0.75877 0.0
C242 C 0.73309 0.20923 0.70016 0.0
C243 C 0.84925 0.19104 0.71891 0.0
C244 C 0.85177 0.2142 0.69774 0.0
C245 C 0.90421 0.18988 0.6961 0.0
C246 C 0.88057 0.22578 0.67635 0.0
C247 C 0.87629 0.1802 0.71914 0.0
C248 C 0.9053 0.21089 0.67305 0.0
C249 C 0.81983 0.18251 0.7426 0.0
O250 O 0.7194 0.23642 0.79766 0.0
O251 O 0.72808 0.18715 0.77038 0.0
C252 C 0.71085 0.20151 0.79275 0.0
O253 O 0.78832 0.25056 0.80214 0.0
O254 O 0.69304 0.27723 0.7569 0.0
O255 O 0.73854 0.32438 0.77338 0.0
O256 O 0.78953 0.30046 0.78676 0.0
C257 C 0.79958 0.28549 0.8054 0.0
O258 O 0.82035 0.27043 0.73316 0.0
O259 O 0.78237 0.29086 0.71843 0.0
O260 O 0.71622 0.22411 0.72222 0.0
O261 O 0.82361 0.20864 0.76694 0.0
O262 O 0.78947 0.17014 0.73044 0.0
O263 O 0.76512 0.21473 0.70345 0.0
C264 C 0.68923 0.30738 0.80856 0.0
C265 C 0.70587 0.29944 0.83063 0.0
C266 C 0.64268 0.30548 0.84908 0.0
C267 C 0.69104 0.29425 0.86147 0.0
C268 C 0.65652 0.30825 0.81726 0.0
C269 C 0.66156 0.30155 0.87215 0.0
C270 C 0.7046 0.3085 0.77554 0.0
C271 C 0.81362 0.29088 0.71727 0.0
H272 H 0.83072 0.22215 0.69673 0.0
H273 H 0.92281 0.1777 0.6943 0.0
H274 H 0.88081 0.24163 0.65883 0.0
H275 H 0.87504 0.16307 0.73596 0.0
H276 H 0.73112 0.29831 0.82444 0.0
H277 H 0.61927 0.31044 0.85628 0.0
H278 H 0.70562 0.29034 0.87841 0.0
H279 H 0.64257 0.31262 0.80006 0.0
Eu280 Eu 0.78977 0.75145 0.78248 0.0
Eu281 Eu 0.73458 0.73349 0.72638 0.0
C282 C 0.71161 0.69039 0.78472 0.0
C283 C 0.85086 0.7364 0.8319 0.0
C284 C 0.8344 0.69937 0.8339 0.0
C285 C 0.90488 0.73618 0.84574 0.0
C286 C 0.8527 0.68121 0.84239 0.0
C287 C 0.88644 0.75444 0.83744 0.0
C288 C 0.88811 0.69941 0.84894 0.0
C289 C 0.83068 0.75668 0.82626 0.0
O290 O 0.71823 0.76661 0.77013 0.0
O291 O 0.76753 0.79481 0.79888 0.0
C292 C 0.73596 0.79114 0.79356 0.0
O293 O 0.82138 0.78286 0.74291 0.0
O294 O 0.68109 0.71538 0.71297 0.0
O295 O 0.7239 0.73446 0.67759 0.0
O296 O 0.7772 0.7883 0.72195 0.0
C297 C 0.81057 0.79741 0.72418 0.0
O298 O 0.79565 0.7047 0.74649 0.0
O299 O 0.77009 0.70523 0.70204 0.0
O300 O 0.71237 0.68558 0.75301 0.0
O301 O 0.84147 0.77525 0.80249 0.0
O302 O 0.79692 0.74005 0.82833 0.0
O303 O 0.73527 0.71859 0.80064 0.0
C304 C 0.67458 0.74712 0.67545 0.0
C305 C 0.68801 0.78466 0.68551 0.0
C306 C 0.63022 0.75167 0.64786 0.0
C307 C 0.67278 0.8056 0.67657 0.0
C308 C 0.64549 0.73082 0.65675 0.0
C309 C 0.64371 0.78939 0.65751 0.0
C310 C 0.69049 0.72468 0.68434 0.0
C311 C 0.79038 0.69528 0.71528 0.0
H312 H 0.80701 0.68447 0.82975 0.0
H313 H 0.93223 0.75104 0.85002 0.0
H314 H 0.8386 0.65313 0.845 0.0
H315 H 0.89986 0.78291 0.83599 0.0
H316 H 0.71032 0.79776 0.7002 0.0
H317 H 0.60827 0.73825 0.63278 0.0
H318 H 0.68367 0.83446 0.68475 0.0
H319 H 0.6347 0.70191 0.64878 0.0
C320 C 0.90337 -0.00217 0.5584 0.0
C321 C 0.94484 0.0347 0.46928 0.0
C322 C 0.96767 0.9128 0.46194 0.0
Mg323 Mg 0.97174 0.04463 0.54027 0.0
O324 O 0.97728 0.00638 0.51403 0.0
Mg325 Mg 0.93561 0.96322 0.49604 0.0
Mg326 Mg 1.01443 0.99036 0.50414 0.0
O327 O 0.05165 0.97377 0.49341 0.0
Mg328 Mg 0.03398 0.92163 0.49082 0.0
Mg329 Mg 0.0925 0.01689 0.51757 0.0
C330 C 0.04895 0.06284 0.55666 0.0
C331 C 0.07439 0.04746 0.46036 0.0
O332 O 0.89663 0.98205 0.52937 0.0
O333 O 0.93322 0.00541 0.5674 0.0
O334 O 0.93856 0.00095 0.46255 0.0
O335 O 0.95566 0.05433 0.49668 0.0
O336 O 0.02379 0.07318 0.55948 0.0
O337 O 0.0473 0.03297 0.53958 0.0
C338 C 0.95812 0.93356 0.54997 0.0
O339 O 0.98973 0.95485 0.54457 0.0
O340 O 0.93399 0.93064 0.53339 0.0
O341 O 0.08949 0.97432 0.47333 0.0
O342 O 0.06662 0.91834 0.44981 0.0
O343 O 0.08552 0.97717 0.55225 0.0
C344 C 0.08785 0.95056 0.44856 0.0
O345 O 0.05119 0.91888 0.53513 0.0
O346 O 0.98166 0.89529 0.47249 0.0
C347 C 0.07128 0.94378 0.55556 0.0
O348 O 0.9786 0.94679 0.46872 0.0
O349 O 0.04204 0.02681 0.46438 0.0
O350 O 0.09717 0.05029 0.47891 0.0
C351 C 0.42891 0.06198 0.06448 0.0
C352 C 0.46485 0.05385 0.96348 0.0
C353 C 0.45347 0.92196 0.96103 0.0
Mg354 Mg 0.5009 0.06908 0.02656 0.0
O355 O 0.48382 0.01931 0.0275 0.0
Mg356 Mg 0.43667 0.98903 0.01061 0.0
Mg357 Mg 0.51157 0.99113 1.00245 0.0
O358 O 0.53939 0.96298 0.97724 0.0
Mg359 Mg 0.52272 0.91271 0.97626 0.0
Mg360 Mg 0.58621 0.99345 0.99511 0.0
C361 C 0.56897 0.05994 0.04399 0.0
C362 C 0.56944 0.04101 0.95251 0.0
O363 O 0.41503 0.02886 0.04982 0.0
O364 O 0.46146 0.08134 0.05968 0.0
O365 O 0.44398 0.02433 0.97284 0.0
O366 O 0.4917 0.07528 0.97895 0.0
O367 O 0.55194 0.07963 0.04373 0.0
O368 O 0.55805 0.02658 0.03084 0.0
C369 C 0.45469 0.94265 0.05398 0.0
O370 O 0.48602 0.95291 0.04106 0.0
O371 O 0.43235 0.95308 0.04677 0.0
O372 O 0.60908 0.95574 0.95609 0.0
O373 O 0.56409 0.90241 0.9436 0.0
O374 O 0.5782 0.95694 0.03193 0.0
C375 C 0.59651 0.92316 0.94032 0.0
O376 O 0.53167 0.90504 0.02336 0.0
O377 O 0.47063 0.90207 0.96014 0.0
C378 C 0.55767 0.92656 0.0399 0.0
O379 O 0.46476 0.95532 0.97437 0.0
O380 O 0.53761 0.03004 0.96422 0.0
O381 O 0.59127 0.03015 0.96008 0.0
C382 C 0.94365 0.57554 0.06759 0.0
C383 C 0.97579 0.56745 0.96728 0.0
C384 C 0.95747 0.42967 0.97025 0.0
Mg385 Mg 1.01333 0.57826 0.02742 0.0
O386 O 0.99386 0.52894 0.0298 0.0
Mg387 Mg 0.94589 0.50128 0.01432 0.0
Mg388 Mg 0.01778 0.49694 0.00492 0.0
O389 O 0.04156 0.46441 0.98044 0.0
Mg390 Mg 0.02213 0.41552 0.9843 0.0
Mg391 Mg 0.08976 0.49166 0.99537 0.0
C392 C 0.081 0.56416 0.03696 0.0
C393 C 0.07328 0.53738 0.94987 0.0
O394 O 0.92828 0.54266 0.05327 0.0
O395 O 0.97645 0.5937 0.06221 0.0
O396 O 0.95326 0.53861 0.97692 0.0
O397 O 1.0044 0.58575 0.98087 0.0
O398 O 0.06555 0.5854 0.03722 0.0
O399 O 0.06618 0.52979 0.03006 0.0
C400 C 0.96147 0.45398 0.05834 0.0
O401 O 0.99227 0.46189 0.04482 0.0
O402 O 0.94008 0.46542 0.05086 0.0
O403 O 0.10624 0.44883 0.95752 0.0
O404 O 0.05734 0.39889 0.94743 0.0
O405 O 0.08325 0.45723 0.03521 0.0
C406 C 0.09038 0.41643 0.94244 0.0
O407 O 0.03354 0.4087 0.02968 0.0
O408 O 0.96857 0.40964 0.98121 0.0
C409 C 0.06125 0.42787 0.04438 0.0
O410 O 0.97017 0.46418 0.97782 0.0
O411 O 0.04356 0.53207 0.96518 0.0
O412 O 0.094 0.52454 0.95652 0.0
C413 C 0.41506 0.53171 0.05105 0.0
C414 C 0.46206 0.54148 0.95731 0.0
C415 C 0.45607 0.41091 0.96307 0.0
Mg416 Mg 0.48916 0.55767 0.02722 0.0
O417 O 0.47984 0.50963 0.0172 0.0
Mg418 Mg 0.43627 0.47397 0.99759 0.0
Mg419 Mg 0.51179 0.48677 1.00119 0.0
O420 O 0.54366 0.46338 0.98638 0.0
Mg421 Mg 0.525 0.40947 0.97812 0.0
Mg422 Mg 0.59063 0.50454 0.00523 0.0
C423 C 0.55933 0.55941 0.04678 0.0
C424 C 0.57271 0.54135 0.95422 0.0
O425 O 0.40643 0.50707 0.02627 0.0
O426 O 0.44529 0.54384 0.06142 0.0
O427 O 0.4469 0.50788 0.95907 0.0
O428 O 0.47938 0.565 0.98034 0.0
O429 O 0.53983 0.57637 0.04708 0.0
O430 O 0.55142 0.52678 0.03296 0.0
C431 C 0.45334 0.44082 0.05245 0.0
O432 O 0.48552 0.45266 0.04222 0.0
O433 O 0.43026 0.44506 0.03919 0.0
O434 O 0.56295 0.46205 0.96248 0.0
O435 O 0.55635 0.411 0.93251 0.0
O436 O 0.58183 0.46301 0.03706 0.0
C437 C 0.57468 0.44478 0.93802 0.0
O438 O 0.54548 0.40511 0.02136 0.0
O439 O 0.47072 0.39072 0.96741 0.0
C440 C 0.56689 0.42995 0.0411 0.0
O441 O 0.47016 0.44506 0.97036 0.0
O442 O 0.53981 0.52301 0.95971 0.0
O443 O 0.59526 0.54059 0.97086 0.0
C444 C 0.93387 0.56899 0.56731 0.0
C445 C 0.9715 0.5622 0.46731 0.0
C446 C 0.95654 0.42817 0.46758 0.0
Mg447 Mg 1.0068 0.57678 0.53125 0.0
O448 O 0.98908 0.52679 0.53173 0.0
Mg449 Mg 0.94208 0.49697 0.51401 0.0
Mg450 Mg 0.01576 0.49714 0.50738 0.0
O451 O 0.04253 0.46787 0.4824 0.0
Mg452 Mg 0.02525 0.4179 0.48191 0.0
Mg453 Mg 0.09038 0.49803 0.4978 0.0
C454 C 0.07584 0.56677 0.54658 0.0
C455 C 0.07164 0.54343 0.45471 0.0
O456 O 0.9206 0.53629 0.55199 0.0
O457 O 0.96648 0.589 0.56381 0.0
O458 O 0.95038 0.53205 0.47538 0.0
O459 O 0.99739 0.58358 0.48401 0.0
O460 O 0.05898 0.58679 0.54671 0.0
O461 O 0.06373 0.53294 0.53454 0.0
C462 C 0.95781 0.45104 0.55942 0.0
O463 O 0.98944 0.45993 0.54722 0.0
O464 O 0.93702 0.46256 0.5508 0.0
O465 O 0.11121 0.4585 0.45817 0.0
O466 O 0.06484 0.40597 0.44811 0.0
O467 O 0.08434 0.46226 0.53429 0.0
C468 C 0.0974 0.42552 0.44336 0.0
O469 O 0.03589 0.4117 0.52896 0.0
O470 O 0.97332 0.40788 0.46622 0.0
C471 C 0.06347 0.43275 0.54355 0.0
O472 O 0.96876 0.46171 0.47995 0.0
O473 O 0.04048 0.53368 0.46782 0.0
O474 O 0.09382 0.53297 0.46206 0.0
C475 C 0.43507 0.06828 0.56195 0.0
C476 C 0.47229 0.06546 0.46281 0.0
C477 C 0.45643 0.9272 0.45884 0.0
Mg478 Mg 0.50662 0.07367 0.52526 0.0
O479 O 0.48766 0.02377 0.52343 0.0
Mg480 Mg 0.44071 -0.00333 0.5057 0.0
Mg481 Mg 0.5137 0.99249 0.50122 0.0
O482 O 0.53986 0.96128 0.47938 0.0
Mg483 Mg 0.52119 0.91132 0.47549 0.0
Mg484 Mg 0.58556 0.98732 0.49932 0.0
C485 C 0.57288 0.05857 0.53899 0.0
C486 C 0.57743 0.03653 0.45196 0.0
O487 O 0.42042 0.03716 0.5441 0.0
O488 O 0.46827 0.08595 0.5603 0.0
O489 O 0.45062 0.03471 0.46929 0.0
O490 O 0.49886 0.08456 0.47932 0.0
O491 O 0.5576 0.07968 0.53795 0.0
O492 O 0.55863 0.02422 0.53109 0.0
C493 C 0.45218 0.94875 0.55204 0.0
O494 O 0.4835 0.95585 0.53989 0.0
O495 O 0.43245 0.96098 0.5426 0.0
O496 O 0.60715 0.94726 0.46212 0.0
O497 O 0.56044 0.90032 0.44118 0.0
O498 O 0.57222 0.94864 0.53684 0.0
C499 C 0.59353 0.91748 0.44227 0.0
O500 O 0.52698 0.8978 0.52041 0.0
O501 O 0.47222 0.90671 0.4602 0.0
C502 C 0.55047 0.91674 0.54034 0.0
O503 O 0.4681 0.96078 0.47117 0.0
O504 O 0.54547 0.02939 0.46251 0.0
O505 O 0.59602 0.02362 0.46244 0.0
C506 C 0.15978 0.14032 0.30002 0.0
C507 C 0.19486 0.16069 0.30657 0.0
C508 C 0.13627 0.11901 0.32223 0.0
C509 C 0.14792 0.1188 0.35201 0.0
C510 C 0.18341 0.13881 0.35839 0.0
C511 C 0.20638 0.15908 0.33557 0.0
C512 C 0.09891 0.09719 0.31406 0.0
C513 C 0.19712 0.13958 0.38978 0.0
C514 C 0.08838 0.09716 0.42832 0.0
C515 C 0.08749 0.06343 0.43041 0.0
C516 C 0.10625 0.11469 0.40181 0.0
C517 C 0.12347 0.09796 0.37689 0.0
C518 C 0.12091 0.06297 0.37822 0.0
C519 C 0.10329 0.04641 0.40513 0.0
C520 C 0.10857 0.15208 0.40151 0.0
C521 C 0.13839 0.04383 0.35214 0.0
H522 H 0.15059 0.1413 0.27772 0.0
H523 H 0.23332 0.17477 0.34114 0.0
H524 H 0.09089 0.06877 0.31724 0.0
H525 H 0.08169 0.10807 0.33085 0.0
H526 H 0.09468 0.09761 0.28883 0.0
H527 H 0.22527 0.15716 0.39133 0.0
H528 H 0.18249 0.14946 0.4106 0.0
H529 H 0.1932 0.11193 0.39231 0.0
H530 H 0.0765 0.11048 0.44809 0.0
H531 H 0.10296 0.02059 0.40703 0.0
H532 H 0.10166 0.1538 0.37774 0.0
H533 H 0.13576 0.17185 0.40505 0.0
H534 H 0.09117 0.15993 0.42086 0.0
H535 H 0.13194 0.04455 0.32783 0.0
H536 H 0.13062 0.01526 0.35483 0.0
H537 H 0.16708 0.05782 0.35318 0.0
C538 C 0.89829 0.14415 0.36428 0.0
C539 C 0.86759 0.12379 0.34843 0.0
C540 C 0.91191 0.1281 0.38168 0.0
C541 C 0.89389 0.091 0.38365 0.0
C542 C 0.86261 0.07033 0.36783 0.0
C543 C 0.85 0.087 0.34991 0.0
C544 C 0.94528 0.15092 0.39834 0.0
C545 C 0.84208 0.03103 0.37058 0.0
C546 C 0.94307 0.0457 0.41373 0.0
C547 C 0.93328 0.04977 0.44685 0.0
C548 C 0.93001 0.05854 0.39245 0.0
C549 C 0.90629 0.07496 0.40479 0.0
C550 C 0.89559 0.07792 0.43802 0.0
C551 C 0.90919 0.06516 0.45847 0.0
C552 C 0.94173 0.05493 0.35698 0.0
C553 C 0.86989 0.09471 0.45213 0.0
H554 H 0.91184 0.17261 0.36269 0.0
H555 H 0.82618 0.07156 0.33753 0.0
H556 H 0.94017 0.15225 0.42495 0.0
H557 H 0.9645 0.1385 0.39077 0.0
H558 H 0.95703 0.17888 0.39286 0.0
H559 H 0.81875 0.01862 0.35611 0.0
H560 H 0.85875 0.01568 0.36238 0.0
H561 H 0.83347 0.02824 0.39629 0.0
H562 H 0.96101 0.0328 0.40463 0.0
H563 H 0.89981 0.06617 0.48341 0.0
H564 H 0.95454 0.08202 0.34966 0.0
H565 H 0.91887 0.03925 0.34222 0.0
H566 H 0.96019 0.04137 0.35124 0.0
H567 H 0.88149 0.12376 0.45004 0.0
H568 H 0.86227 0.09225 0.47806 0.0
H569 H 0.84603 0.08181 0.43846 0.0
C570 C 0.82774 0.83689 0.32707 0.0
C571 C 0.84137 0.81559 0.30408 0.0
C572 C 0.84126 0.851 0.35768 0.0
C573 C 0.86973 0.84453 0.36465 0.0
C574 C 0.88338 0.82293 0.34133 0.0
C575 C 0.86874 0.80844 0.31145 0.0
C576 C 0.82504 0.8728 0.38214 0.0
C577 C 0.91402 0.81571 0.34757 0.0
C578 C 0.94094 0.91364 0.41472 0.0
C579 C 0.93956 0.8953 0.4397 0.0
C580 C 0.91638 0.89859 0.39153 0.0
C581 C 0.88927 0.86447 0.39367 0.0
C582 C 0.88578 0.84714 0.42045 0.0
C583 C 0.91164 0.86246 0.44302 0.0
C584 C 0.92115 0.91806 0.36342 0.0
C585 C 0.85528 0.81217 0.42464 0.0
H586 H 0.80559 0.8412 0.32169 0.0
H587 H 0.87851 0.79114 0.29379 0.0
H588 H 0.82872 0.872 0.40739 0.0
H589 H 0.83714 0.90131 0.37825 0.0
H590 H 0.79671 0.86286 0.37907 0.0
H591 H 0.92168 0.7988 0.32654 0.0
H592 H 0.9368 0.84157 0.35316 0.0
H593 H 0.90757 0.80169 0.36881 0.0
H594 H 0.96238 0.93935 0.41242 0.0
H595 H 0.90999 0.84903 0.46307 0.0
H596 H 0.8971 0.92167 0.36109 0.0
H597 H 0.9263 0.90174 0.34054 0.0
H598 H 0.94305 0.94505 0.36617 0.0
H599 H 0.83066 0.81412 0.421 0.0
H600 H 0.85344 0.8051 0.449 0.0
H601 H 0.8578 0.78994 0.40612 0.0
C602 C 0.12565 0.82141 0.33109 0.0
C603 C 0.11416 0.80012 0.35598 0.0
C604 C 0.12536 0.85558 0.3365 0.0
C605 C 0.10972 0.86656 0.36581 0.0
C606 C 0.09181 0.84199 0.38792 0.0
C607 C 0.09493 0.80906 0.383 0.0
C608 C 0.1463 0.88147 0.31327 0.0
C609 C 0.07273 0.85169 0.41855 0.0
C610 C 0.13997 0.95621 0.41738 0.0
C611 C 0.10859 0.95987 0.41902 0.0
C612 C 0.14332 0.92666 0.39673 0.0
C613 C 0.11633 0.90476 0.37568 0.0
C614 C 0.09139 0.91719 0.37036 0.0
C615 C 0.08904 0.94681 0.3917 0.0
C616 C 0.17146 0.91533 0.40222 0.0
C617 C 0.06334 0.89555 0.34698 0.0
H618 H 0.14018 0.81428 0.30962 0.0
H619 H 0.08596 0.79238 0.40188 0.0
H620 H 0.13263 0.89808 0.30957 0.0
H621 H 0.17142 0.90026 0.32364 0.0
H622 H 0.15214 0.8672 0.28939 0.0
H623 H 0.05807 0.82837 0.4315 0.0
H624 H 0.09186 0.87296 0.43499 0.0
H625 H 0.05392 0.86151 0.41259 0.0
H626 H 0.15673 0.96942 0.43742 0.0
H627 H 0.06633 0.9528 0.39189 0.0
H628 H 0.18058 0.9023 0.37933 0.0
H629 H 0.16084 0.89551 0.41923 0.0
H630 H 0.19405 0.93872 0.41314 0.0
H631 H 0.07414 0.88453 0.32395 0.0
H632 H 0.05017 0.91201 0.34167 0.0
H633 H 0.04351 0.87234 0.35774 0.0
C634 C 0.13456 0.86905 0.68085 0.0
C635 C 0.16756 0.87011 0.66948 0.0
C636 C 0.11958 0.88699 0.66733 0.0
C637 C 0.13857 0.90682 0.64236 0.0
C638 C 0.17346 0.91105 0.63328 0.0
C639 C 0.18745 0.89188 0.64662 0.0
C640 C 0.08212 0.88126 0.67717 0.0
C641 C 0.1948 0.93309 0.60749 0.0
C642 C 0.08607 0.89924 0.57441 0.0
C643 C 0.0839 0.93291 0.58055 0.0
C644 C 0.10397 0.89065 0.59445 0.0
C645 C 0.11967 0.91624 0.62148 0.0
C646 C 0.11641 0.94972 0.62865 0.0
C647 C 0.09843 0.95768 0.60799 0.0
C648 C 0.10696 0.85456 0.58606 0.0
C649 C 0.13283 0.9774 0.65741 0.0
H650 H 0.11943 0.85187 0.69855 0.0
H651 H 0.21313 0.89256 0.63819 0.0
H652 H 0.07857 0.90687 0.68007 0.0
H653 H 0.06533 0.86199 0.65788 0.0
H654 H 0.07302 0.87008 0.70014 0.0
H655 H 0.22292 0.93897 0.60753 0.0
H656 H 0.18566 0.91802 0.58334 0.0
H657 H 0.19156 0.95894 0.61098 0.0
H658 H 0.07528 0.88019 0.55298 0.0
H659 H 0.09629 0.98349 0.61287 0.0
H660 H 0.09691 0.8397 0.60688 0.0
H661 H 0.13471 0.85871 0.58082 0.0
H662 H 0.0924 0.83742 0.56464 0.0
H663 H 0.12519 0.9651 0.67978 0.0
H664 H 0.12535 0.00077 0.6612 0.0
H665 H 0.16159 0.98738 0.65372 0.0
C666 C 0.15095 0.15397 0.70747 0.0
C667 C 0.18715 0.17013 0.70515 0.0
C668 C 0.13267 0.1373 0.67949 0.0
C669 C 0.15132 0.13812 0.6488 0.0
C670 C 0.18809 0.154 0.64656 0.0
C671 C 0.20565 0.16963 0.67499 0.0
C672 C 0.0934 0.11955 0.6827 0.0
C673 C 0.20874 0.15549 0.61428 0.0
C674 C 0.09694 0.0662 0.58613 0.0
C675 C 0.07976 0.0842 0.57543 0.0
C676 C 0.12305 0.08434 0.60781 0.0
C677 C 0.13184 0.12136 0.61936 0.0
C678 C 0.11705 0.14054 0.60636 0.0
C679 C 0.09062 0.12152 0.58476 0.0
C680 C 0.13834 0.06273 0.6206 0.0
C681 C 0.12743 0.18059 0.61688 0.0
H682 H 0.13703 0.15529 0.73098 0.0
H683 H 0.23382 0.18308 0.67361 0.0
H684 H 0.08217 0.13357 0.67077 0.0
H685 H 0.08432 0.09109 0.67034 0.0
H686 H 0.08308 0.11998 0.70838 0.0
H687 H 0.23728 0.16779 0.61698 0.0
H688 H 0.20165 0.12798 0.60005 0.0
H689 H 0.20232 0.17154 0.60008 0.0
H690 H 0.08828 0.03732 0.57945 0.0
H691 H 0.0778 0.1356 0.57601 0.0
H692 H 0.12136 0.05126 0.64151 0.0
H693 H 0.16489 0.07924 0.62889 0.0
H694 H 0.13956 0.0401 0.60177 0.0
H695 H 0.11422 0.18551 0.64086 0.0
H696 H 0.11995 0.19259 0.59946 0.0
H697 H 0.15593 0.19464 0.61941 0.0
C698 C 0.9499 0.19566 0.63716 0.0
C699 C 0.92027 0.20337 0.64018 0.0
C700 C 0.9483 0.16212 0.62041 0.0
C701 C 0.9166 0.13748 0.60695 0.0
C702 C 0.89028 0.14913 0.60406 0.0
C703 C 0.89497 0.18429 0.61747 0.0
C704 C 0.97926 0.15244 0.61882 0.0
C705 C 0.85579 0.12375 0.59006 0.0
C706 C 0.89814 0.05127 0.54989 0.0
C707 C 0.89164 0.02674 0.57079 0.0
C708 C 0.91075 0.08816 0.5614 0.0
C709 C 0.91048 0.09978 0.59504 0.0
C710 C 0.89884 0.07459 0.61679 0.0
C711 C 0.89062 0.03818 0.60428 0.0
C712 C 0.92507 0.11463 0.53762 0.0
C713 C 0.89592 0.08611 0.65299 0.0
H714 H 0.97123 0.21248 0.65243 0.0
H715 H 0.87381 0.19241 0.61674 0.0
H716 H 0.9717 0.12637 0.62726 0.0
H717 H 0.9895 0.14916 0.59323 0.0
H718 H 1.00048 0.17353 0.63345 0.0
H719 H 0.83543 0.13478 0.59707 0.0
H720 H 0.85904 0.11912 0.56328 0.0
H721 H 0.84606 0.0972 0.59828 0.0
H722 H 0.89786 0.04179 0.52426 0.0
H723 H 0.88597 0.01915 0.62045 0.0
H724 H 0.94017 0.14277 0.54889 0.0
H725 H 0.90341 0.11424 0.52538 0.0
H726 H 0.94283 0.10707 0.51878 0.0
H727 H 0.92179 0.10473 0.66184 0.0
H728 H 0.88543 0.06278 0.66625 0.0
H729 H 0.87861 0.10097 0.65901 0.0
C730 C 0.87222 0.83068 0.70328 0.0
C731 C 0.83646 0.8223 0.70301 0.0
C732 C 0.89651 0.85067 0.68078 0.0
C733 C 0.88485 0.86266 0.65742 0.0
C734 C 0.84901 0.85552 0.65783 0.0
C735 C 0.82531 0.83546 0.68054 0.0
C736 C 0.93448 0.85789 0.68127 0.0
C737 C 0.83544 0.86798 0.6335 0.0
C738 C 0.94562 0.93592 0.60919 0.0
C739 C 0.94746 0.91557 0.57865 0.0
C740 C 0.92657 0.91905 0.6356 0.0
C741 C 0.90954 0.88092 0.63136 0.0
C742 C 0.9135 0.86028 0.60098 0.0
C743 C 0.9319 0.87791 0.57481 0.0
C744 C 0.92252 0.94215 0.66725 0.0
C745 C 0.89651 0.8196 0.59556 0.0
H746 H 0.88123 0.82076 0.72051 0.0
H747 H 0.79783 0.82925 0.68003 0.0
H748 H 0.94305 0.84433 0.65833 0.0
H749 H 0.95064 0.88721 0.68294 0.0
H750 H 0.93963 0.84815 0.70183 0.0
H751 H 0.80739 0.86275 0.6386 0.0
H752 H 0.8504 0.89729 0.63338 0.0
H753 H 0.83896 0.85376 0.60885 0.0
H754 H 0.95692 0.96512 0.61181 0.0
H755 H 0.93288 0.86232 0.55098 0.0
H756 H 0.92755 0.93239 0.6878 0.0
H757 H 0.89533 0.94023 0.67109 0.0
H758 H 0.94032 0.97097 0.66772 0.0
H759 H 0.90272 0.80899 0.61488 0.0
H760 H 0.90499 0.80754 0.57169 0.0
H761 H 0.86781 0.81062 0.59672 0.0
C762 C 0.30797 0.16755 0.15937 0.0
C763 C 0.31021 0.17449 0.19319 0.0
C764 C 0.32622 0.1486 0.13839 0.0
C765 C 0.34696 0.13527 0.1512 0.0
C766 C 0.34887 0.14171 0.18536 0.0
C767 C 0.33092 0.16134 0.2057 0.0
C768 C 0.32392 0.14354 0.1023 0.0
C769 C 0.37047 0.12839 0.20053 0.0
C770 C 0.37262 0.06047 0.09765 0.0
C771 C 0.40726 0.07984 0.0869 0.0
C772 C 0.35291 0.07792 0.11859 0.0
C773 C 0.36766 0.11594 0.12894 0.0
C774 C 0.40252 0.13557 0.11801 0.0
C775 C 0.42168 0.11748 0.09751 0.0
C776 C 0.31618 0.05557 0.12983 0.0
C777 C 0.41964 0.17602 0.12761 0.0
H778 H 0.2926 0.17779 0.14908 0.0
H779 H 0.33323 0.16644 0.23163 0.0
H780 H 0.3503 0.15615 0.09051 0.0
H781 H 0.31353 0.11438 0.09212 0.0
H782 H 0.30699 0.15555 0.09594 0.0
H783 H 0.36645 0.13203 0.22736 0.0
H784 H 0.36404 0.09939 0.19111 0.0
H785 H 0.39847 0.14335 0.19401 0.0
H786 H 0.36091 0.03155 0.08991 0.0
H787 H 0.4482 0.13324 0.08946 0.0
H788 H 0.29775 0.06433 0.1214 0.0
H789 H 0.31338 0.05982 0.15669 0.0
H790 H 0.30865 0.02631 0.12073 0.0
H791 H 0.40541 0.1889 0.11806 0.0
H792 H 0.44732 0.18732 0.11832 0.0
H793 H 0.41844 0.1835 0.15436 0.0
C794 C 0.83688 0.34491 0.18688 0.0
C795 C 0.84346 0.31701 0.1948 0.0
C796 C 0.86056 0.36842 0.16674 0.0
C797 C 0.89167 0.36403 0.15428 0.0
C798 C 0.89929 0.33705 0.16337 0.0
C799 C 0.875 0.31371 0.18346 0.0
C800 C 0.85146 0.39692 0.15763 0.0
C801 C 0.93248 0.332 0.15088 0.0
C802 C 0.92344 0.39465 0.07305 0.0
C803 C 0.94883 0.42916 0.08186 0.0
C804 C 0.90614 0.37228 0.09626 0.0
C805 C 0.9141 0.38519 0.1291 0.0
C806 C 0.94097 0.41956 0.13783 0.0
C807 C 0.95821 0.44124 0.11392 0.0
C808 C 0.87786 0.33571 0.08589 0.0
C809 C 0.94994 0.43437 0.17261 0.0
H810 H 0.81272 0.34787 0.1957 0.0
H811 H 0.88053 0.29257 0.18988 0.0
H812 H 0.87351 0.42365 0.16154 0.0
H813 H 0.84653 0.39034 0.13152 0.0
H814 H 0.82795 0.399 0.17177 0.0
H815 H 0.93587 0.31178 0.16231 0.0
H816 H 0.93227 0.32297 0.12429 0.0
H817 H 0.95534 0.35799 0.15544 0.0
H818 H 0.91624 0.3857 0.04814 0.0
H819 H 0.97764 0.46827 0.12054 0.0
H820 H 0.85212 0.33588 0.09558 0.0
H821 H 0.88131 0.31462 0.09586 0.0
H822 H 0.87755 0.3282 0.05912 0.0
H823 H 0.92868 0.44148 0.18632 0.0
H824 H 0.97458 0.45891 0.17471 0.0
H825 H 0.95233 0.4138 0.18425 0.0
C826 C 0.68565 0.87927 0.1156 0.0
C827 C 0.67528 0.86351 0.1438 0.0
C828 C 0.66398 0.89098 0.10294 0.0
C829 C 0.63099 0.88683 0.11876 0.0
C830 C 0.621 0.8725 0.14803 0.0
C831 C 0.64315 0.86085 0.16012 0.0
C832 C 0.676 0.9068 0.072 0.0
C833 C 0.58662 0.86887 0.16621 0.0
C834 C 0.58955 0.94038 0.08952 0.0
C835 C 0.56867 0.91455 0.06557 0.0
C836 C 0.60813 0.93128 0.10876 0.0
C837 C 0.60639 0.8956 0.10346 0.0
C838 C 0.58349 0.86889 0.08085 0.0
C839 C 0.56461 0.87862 0.06239 0.0
C840 C 0.63149 0.96067 0.13294 0.0
C841 C 0.58102 0.8306 0.07428 0.0
H842 H 0.71025 0.88127 0.10266 0.0
H843 H 0.6352 0.84942 0.18229 0.0
H844 H 0.65791 0.88972 0.05287 0.0
H845 H 0.67563 0.93405 0.0759 0.0
H846 H 0.70272 0.90904 0.06311 0.0
H847 H 0.58418 0.86066 0.19018 0.0
H848 H 0.58349 0.89481 0.16989 0.0
H849 H 0.56498 0.8484 0.15176 0.0
H850 H 0.59282 0.96827 0.0921 0.0
H851 H 0.5489 0.85865 0.04368 0.0
H852 H 0.65803 0.9727 0.12125 0.0
H853 H 0.63347 0.95009 0.15434 0.0
H854 H 0.62192 0.98252 0.14132 0.0
H855 H 0.6062 0.83016 0.06293 0.0
H856 H 0.56013 0.81247 0.05788 0.0
H857 H 0.57598 0.81977 0.09726 0.0
C858 C 0.17831 0.69349 0.17252 0.0
C859 C 0.21337 0.70167 0.17519 0.0
C860 C 0.1609 0.668 0.14668 0.0
C861 C 0.17923 0.6503 0.12416 0.0
C862 C 0.21474 0.65912 0.12682 0.0
C863 C 0.23173 0.6859 0.15167 0.0
C864 C 0.12272 0.65877 0.14428 0.0
C865 C 0.23441 0.63922 0.10452 0.0
C866 C 0.11795 0.56567 0.07713 0.0
C867 C 0.11429 0.57994 0.05125 0.0
C868 C 0.14143 0.58768 0.10042 0.0
C869 C 0.16161 0.62403 0.09674 0.0
C870 C 0.16159 0.63657 0.06809 0.0
C871 C 0.13755 0.61417 0.04551 0.0
C872 C 0.14153 0.57316 0.13041 0.0
C873 C 0.18373 0.67496 0.06318 0.0
H874 H 0.16419 0.70516 0.1915 0.0
H875 H 0.25888 0.69234 0.15446 0.0
H876 H 0.11837 0.66236 0.12018 0.0
H877 H 0.10727 0.63005 0.14666 0.0
H878 H 0.11269 0.67572 0.1633 0.0
H879 H 0.25952 0.64443 0.1141 0.0
H880 H 0.21864 0.60971 0.1009 0.0
H881 H 0.23998 0.64793 0.08049 0.0
H882 H 0.09974 0.53894 0.08128 0.0
H883 H 0.13458 0.62462 0.02506 0.0
H884 H 0.12358 0.58019 0.14962 0.0
H885 H 0.16783 0.58501 0.13984 0.0
H886 H 0.1324 0.54329 0.12559 0.0
H887 H 0.17371 0.69344 0.0801 0.0
H888 H 0.18354 0.67901 0.03804 0.0
H889 H 0.21104 0.68268 0.06863 0.0
C890 C 0.33877 0.82022 0.81207 0.0
C891 C 0.30632 0.82235 0.81472 0.0
C892 C 0.36271 0.83941 0.83588 0.0
C893 C 0.35372 0.86099 0.86319 0.0
C894 C 0.32164 0.86474 0.86507 0.0
C895 C 0.29832 0.84547 0.84061 0.0
C896 C 0.39706 0.83551 0.8322 0.0
C897 C 0.31152 0.8881 0.89347 0.0
C898 C 0.39905 0.87314 0.93883 0.0
C899 C 0.42446 0.90826 0.93971 0.0
C900 C 0.37479 0.85807 0.91485 0.0
C901 C 0.3771 0.87809 0.89045 0.0
C902 C 0.40277 0.91364 0.89135 0.0
C903 C 0.42564 0.92861 0.91643 0.0
C904 C 0.34751 0.82022 0.91491 0.0
C905 C 0.40789 0.93483 0.86452 0.0
H906 H 0.34538 0.80327 0.79138 0.0
H907 H 0.27333 0.84742 0.84238 0.0
H908 H 0.41879 0.86201 0.83864 0.0
H909 H 0.39638 0.81767 0.84888 0.0
H910 H 0.40265 0.82354 0.80713 0.0
H911 H 0.28602 0.88879 0.89098 0.0
H912 H 0.31006 0.87781 0.91615 0.0
H913 H 0.33165 0.9161 0.89596 0.0
H914 H 0.39855 0.85731 0.95657 0.0
H915 H 0.44604 0.95542 0.91654 0.0
H916 H 0.35272 0.80194 0.89364 0.0
H917 H 0.32134 0.81951 0.91289 0.0
H918 H 0.34705 0.80964 0.93718 0.0
H919 H 0.4189 0.92263 0.84227 0.0
H920 H 0.42604 0.96347 0.8707 0.0
H921 H 0.38267 0.93368 0.85869 0.0
C922 C 0.19759 0.29754 0.84739 0.0
C923 C 0.20808 0.30312 0.81515 0.0
C924 C 0.17916 0.31642 0.86809 0.0
C925 C 0.17073 0.34172 0.85659 0.0
C926 C 0.18153 0.3477 0.82419 0.0
C927 C 0.19992 0.32854 0.80407 0.0
C928 C 0.16846 0.30907 0.90235 0.0
C929 C 0.17362 0.37445 0.81064 0.0
C930 C 0.09427 0.36473 0.89978 0.0
C931 C 0.11106 0.3981 0.91949 0.0
C932 C 0.11324 0.34646 0.87918 0.0
C933 C 0.15019 0.36143 0.87815 0.0
C934 C 0.16733 0.39528 0.8977 0.0
C935 C 0.14772 0.41312 0.9179 0.0
C936 C 0.0936 0.31088 0.85854 0.0
C937 C 0.20653 0.41249 0.89769 0.0
H938 H 0.20373 0.27831 0.85656 0.0
H939 H 0.20783 0.33354 0.7794 0.0
H940 H 0.17876 0.33459 0.9197 0.0
H941 H 0.13965 0.29797 0.90608 0.0
H942 H 0.1779 0.28968 0.90815 0.0
H943 H 0.18304 0.37556 0.78482 0.0
H944 H 0.14515 0.36727 0.81275 0.0
H945 H 0.18603 0.40178 0.82486 0.0
H946 H 0.06608 0.35268 0.90043 0.0
H947 H 0.16125 0.43871 0.93293 0.0
H948 H 0.09945 0.28932 0.86504 0.0
H949 H 0.10218 0.31237 0.83264 0.0
H950 H 0.06499 0.30308 0.86145 0.0
H951 H 0.21596 0.39508 0.90704 0.0
H952 H 0.21612 0.43965 0.91284 0.0
H953 H 0.21817 0.41502 0.87263 0.0
C954 C 0.67985 0.14302 0.81361 0.0
C955 C 0.6839 0.17865 0.81449 0.0
C956 C 0.65653 0.12181 0.83566 0.0
C957 C 0.6365 0.13641 0.85916 0.0
C958 C 0.63925 0.17181 0.85925 0.0
C959 C 0.66293 0.1925 0.83689 0.0
C960 C 0.65465 0.08429 0.83478 0.0
C961 C 0.61842 0.18844 0.88386 0.0
C962 C 0.56503 0.06719 0.90529 0.0
C963 C 0.58316 0.06877 0.93122 0.0
C964 C 0.58137 0.09046 0.88224 0.0
C965 C 0.61621 0.11603 0.88575 0.0
C966 C 0.63342 0.11935 0.91333 0.0
C967 C 0.6168 0.09553 0.9355 0.0
C968 C 0.56216 0.08625 0.85322 0.0
C969 C 0.67031 0.14652 0.91845 0.0
H970 H 0.69575 0.13196 0.79629 0.0
H971 H 0.66539 0.21974 0.83733 0.0
H972 H 0.66471 0.08316 0.85721 0.0
H973 H 0.62721 0.06444 0.83388 0.0
H974 H 0.67007 0.07603 0.81365 0.0
H975 H 0.62009 0.2142 0.87809 0.0
H976 H 0.59067 0.16952 0.88531 0.0
H977 H 0.62835 0.19393 0.90815 0.0
H978 H 0.53898 0.04656 0.90202 0.0
H979 H 0.63064 0.09714 0.95588 0.0
H980 H 0.57367 0.07404 0.83134 0.0
H981 H 0.56492 0.11295 0.84893 0.0
H982 H 0.53403 0.06877 0.85613 0.0
H983 H 0.68843 0.13846 0.90022 0.0
H984 H 0.67831 0.14861 0.94296 0.0
H985 H 0.67322 0.1736 0.91513 0.0
C986 C 0.89916 0.64382 0.84954 0.0
C987 C 0.90654 0.68053 0.86098 0.0
C988 C 0.91319 0.62479 0.86335 0.0
C989 C 0.93526 0.64275 0.88928 0.0
C990 C 0.94438 0.6802 0.89974 0.0
C991 C 0.9299 0.69855 0.88557 0.0
C992 C 0.90317 0.58504 0.85109 0.0
C993 C 0.96802 0.70056 0.92712 0.0
C994 C 0.93286 0.58686 0.95155 0.0
C995 C 0.9651 0.58397 0.94504 0.0
C996 C 0.92312 0.60607 0.93373 0.0
C997 C 0.94559 0.62177 0.90783 0.0
C998 C 0.97788 0.61809 0.90055 0.0
C999 C 0.98759 0.59982 0.91969 0.0
C1000 C 0.88915 0.61048 0.94334 0.0
C1001 C 1.00203 0.63314 0.87245 0.0
H1002 H 0.88185 0.62967 0.83008 0.0
H1003 H 0.93572 0.72675 0.89491 0.0
H1004 H 0.92654 0.57854 0.84721 0.0
H1005 H 0.88532 0.56926 0.86947 0.0
H1006 H 0.88989 0.57615 0.82809 0.0
H1007 H 0.97492 0.73006 0.93063 0.0
H1008 H 0.95496 0.69052 0.94995 0.0
H1009 H 0.99238 0.69586 0.92248 0.0
H1010 H 0.9158 0.57538 0.97168 0.0
H1011 H 1.01262 0.59776 0.91477 0.0
H1012 H 0.87199 0.59864 0.92282 0.0
H1013 H 0.89414 0.63958 0.94928 0.0
H1014 H 0.87507 0.59743 0.96461 0.0
H1015 H 0.99025 0.61716 0.84945 0.0
H1016 H 0.02781 0.63215 0.87265 0.0
H1017 H 1.00587 0.66145 0.87276 0.0
C1018 C 0.12079 0.33299 0.16152 0.0
C1019 C 0.13596 0.3119 0.14014 0.0
C1020 C 0.10711 0.35383 0.14987 0.0
C1021 C 0.10924 0.35395 0.11612 0.0
C1022 C 0.12502 0.33293 0.09457 0.0
C1023 C 0.13792 0.31194 0.10684 0.0
C1024 C 0.08995 0.37526 0.17358 0.0
C1025 C 0.12824 0.33255 0.05847 0.0
C1026 C 0.04878 0.37803 0.07583 0.0
C1027 C 0.07085 0.41239 0.06858 0.0
C1028 C 0.06031 0.35945 0.09281 0.0
C1029 C 0.09474 0.37559 0.10299 0.0
C1030 C 0.11627 0.41126 0.09784 0.0
C1031 C 0.10408 0.42924 0.08077 0.0
C1032 C 0.0363 0.32164 0.09803 0.0
C1033 C 0.15297 0.42966 0.10869 0.0
H1034 H 0.11919 0.33271 0.18729 0.0
H1035 H 0.14977 0.29564 0.09042 0.0
H1036 H 0.10221 0.40403 0.1705 0.0
H1037 H 0.06209 0.36517 0.16872 0.0
H1038 H 0.09164 0.37348 0.19911 0.0
H1039 H 0.1419 0.31545 0.04509 0.0
H1040 H 0.10199 0.32228 0.0492 0.0
H1041 H 0.14271 0.3604 0.05311 0.0
H1042 H 0.02295 0.36473 0.06681 0.0
H1043 H 0.12134 0.45582 0.07555 0.0
H1044 H 0.03578 0.31856 0.12357 0.0
H1045 H 0.0461 0.3021 0.08264 0.0
H1046 H 1.00925 0.31445 0.09191 0.0
H1047 H 0.15297 0.42913 0.13482 0.0
H1048 H 0.16569 0.45814 0.10459 0.0
H1049 H 0.16883 0.41491 0.09528 0.0
C1050 C 0.15729 0.66024 0.80958 0.0
C1051 C 0.193 0.67388 0.81412 0.0
C1052 C 0.13267 0.63788 0.83021 0.0
C1053 C 0.14407 0.62993 0.85645 0.0
C1054 C 0.18007 0.64447 0.86156 0.0
C1055 C 0.20411 0.66589 0.84009 0.0
C1056 C 0.09463 0.62233 0.82362 0.0
C1057 C 0.19329 0.63696 0.88948 0.0
C1058 C 0.08648 0.59436 0.92947 0.0
C1059 C 0.08471 0.55907 0.92375 0.0
C1060 C 0.10393 0.61752 0.9067 0.0
C1061 C 0.11906 0.60452 0.8775 0.0
C1062 C 0.11432 0.56783 0.87055 0.0
C1063 C 0.09772 0.5457 0.89407 0.0
C1064 C 0.10861 0.65649 0.9151 0.0
C1065 C 0.12885 0.55254 0.8392 0.0
H1066 H 0.14867 0.66635 0.78942 0.0
H1067 H 0.23168 0.6768 0.84389 0.0
H1068 H 0.08363 0.5925 0.82129 0.0
H1069 H 0.08007 0.63236 0.8443 0.0
H1070 H 0.09022 0.62967 0.80127 0.0
H1071 H 0.22178 0.65237 0.89138 0.0
H1072 H 0.17972 0.64395 0.91262 0.0
H1073 H 0.18761 0.60777 0.88641 0.0
H1074 H 0.07643 0.60456 0.9526 0.0
H1075 H 0.09589 0.51818 0.88969 0.0
H1076 H 0.10324 0.66556 0.89428 0.0
H1077 H 0.13605 0.67357 0.92076 0.0
H1078 H 0.09137 0.66106 0.93637 0.0
H1079 H 0.12243 0.56065 0.81831 0.0
H1080 H 0.11865 0.52263 0.83564 0.0
H1081 H 0.15764 0.56344 0.83923 0.0
C1082 C 0.34421 0.11295 0.89092 0.0
C1083 C 0.35281 0.1241 0.86053 0.0
C1084 C 0.36476 0.09974 0.90331 0.0
C1085 C 0.39463 0.09739 0.88481 0.0
C1086 C 0.40251 0.10691 0.85344 0.0
C1087 C 0.38171 0.12054 0.84178 0.0
C1088 C 0.35494 0.08915 0.93661 0.0
C1089 C 0.43297 0.10283 0.83233 0.0
C1090 C 0.46328 0.10171 0.93637 0.0
C1091 C 0.45373 0.06508 0.93726 0.0
C1092 C 0.44555 0.11261 0.91773 0.0
C1093 C 0.41809 0.08626 0.89914 0.0
C1094 C 0.41059 0.04928 0.89761 0.0
C1095 C 0.42833 0.03914 0.91683 0.0
C1096 C 0.45422 0.15233 0.92009 0.0
C1097 C 0.38188 0.02014 0.87792 0.0
H1098 H 0.32201 0.11575 0.90559 0.0
H1099 H 0.38807 0.12846 0.818 0.0
H1100 H 0.35056 0.06048 0.93512 0.0
H1101 H 0.37656 0.10562 0.95269 0.0
H1102 H 0.33099 0.09274 0.94791 0.0
H1103 H 0.43452 0.10953 0.80786 0.0
H1104 H 0.45762 0.12069 0.84394 0.0
H1105 H 0.43086 0.0747 0.82967 0.0
H1106 H 0.48271 0.12191 0.95214 0.0
H1107 H 0.42082 0.01072 0.91721 0.0
H1108 H 0.43203 0.15851 0.93276 0.0
H1109 H 0.45828 0.15964 0.89557 0.0
H1110 H 0.47789 0.16947 0.93351 0.0
H1111 H 0.35698 0.01298 0.89299 0.0
H1112 H 0.38707 -0.00461 0.87031 0.0
H1113 H 0.37852 0.02896 0.85601 0.0
C1114 C 0.83018 0.30383 0.85535 0.0
C1115 C 0.82994 0.30763 0.8235 0.0
C1116 C 0.85816 0.32718 0.87369 0.0
C1117 C 0.88658 0.354 0.85914 0.0
C1118 C 0.88756 0.356 0.82609 0.0
C1119 C 0.85879 0.33277 0.80858 0.0
C1120 C 0.85643 0.32424 0.90903 0.0
C1121 C 0.91851 0.38267 0.8094 0.0
C1122 C 0.92198 0.42762 0.92738 0.0
C1123 C 0.94385 0.41513 0.93826 0.0
C1124 C 0.90656 0.41096 0.89799 0.0
C1125 C 0.91329 0.38134 0.8799 0.0
C1126 C 0.93942 0.37255 0.8884 0.0
C1127 C 0.95431 0.38947 0.91778 0.0
C1128 C 0.88012 0.42224 0.88828 0.0
C1129 C 0.94864 0.34242 0.86869 0.0
H1130 H 0.80784 0.28372 0.86625 0.0
H1131 H 0.85869 0.33434 0.78329 0.0
H1132 H 0.87977 0.32099 0.91438 0.0
H1133 H 0.85603 0.34933 0.92441 0.0
H1134 H 0.83293 0.3011 0.91606 0.0
H1135 H 0.91266 0.38448 0.78517 0.0
H1136 H 0.92734 0.40994 0.82427 0.0
H1137 H 0.94052 0.37406 0.80611 0.0
H1138 H 0.91541 0.44881 0.9426 0.0
H1139 H 0.9732 0.3815 0.92519 0.0
H1140 H 0.85356 0.40321 0.89514 0.0
H1141 H 0.88207 0.42139 0.86171 0.0
H1142 H 0.88348 0.44988 0.90053 0.0
H1143 H 0.92957 0.31628 0.87531 0.0
H1144 H 0.97501 0.34555 0.87347 0.0
H1145 H 0.94765 0.34127 0.84241 0.0
C1146 C 0.73574 0.84418 0.83734 0.0
C1147 C 0.71799 0.81331 0.81523 0.0
C1148 C 0.71807 0.86428 0.85761 0.0
C1149 C 0.68154 0.85321 0.85634 0.0
C1150 C 0.66362 0.82206 0.83408 0.0
C1151 C 0.68189 0.80286 0.81392 0.0
C1152 C 0.7385 0.89733 0.88063 0.0
C1153 C 0.62484 0.80874 0.83161 0.0
C1154 C 0.62552 0.8793 0.92873 0.0
C1155 C 0.62032 0.9075 0.9196 0.0
C1156 C 0.64625 0.86249 0.90907 0.0
C1157 C 0.66168 0.87321 0.87876 0.0
C1158 C 0.65634 0.90167 0.86937 0.0
C1159 C 0.63624 0.91876 0.89002 0.0
C1160 C 0.65112 0.83267 0.92055 0.0
C1161 C 0.67139 0.91371 0.83716 0.0
H1162 H 0.7635 0.85279 0.83874 0.0
H1163 H 0.66747 0.77906 0.79727 0.0
H1164 H 0.73483 0.92108 0.8762 0.0
H1165 H 0.72867 0.89351 0.90593 0.0
H1166 H 0.76679 0.90327 0.87816 0.0
H1167 H 0.61452 0.78388 0.81345 0.0
H1168 H 0.61098 0.803 0.85545 0.0
H1169 H 0.6187 0.82996 0.82481 0.0
H1170 H 0.61324 0.87033 0.95147 0.0
H1171 H 0.63209 0.94022 0.88256 0.0
H1172 H 0.67929 0.83894 0.92065 0.0
H1173 H 0.63957 0.80702 0.90365 0.0
H1174 H 0.6389 0.82855 0.94526 0.0
H1175 H 0.70024 0.92539 0.83673 0.0
H1176 H 0.66288 0.93418 0.83221 0.0
H1177 H 0.66355 0.89027 0.8173 0.0
C1178 C 0.82616 0.68567 0.15607 0.0
C1179 C 0.8249 0.6897 0.18997 0.0
C1180 C 0.84431 0.66611 0.13604 0.0
C1181 C 0.86235 0.65074 0.15007 0.0
C1182 C 0.86137 0.6551 0.1843 0.0
C1183 C 0.84255 0.67411 0.20366 0.0
C1184 C 0.844 0.66169 0.09976 0.0
C1185 C 0.88056 0.63997 0.20061 0.0
C1186 C 0.88763 0.57529 0.09916 0.0
C1187 C 0.92282 0.59416 0.0897 0.0
C1188 C 0.86775 0.59317 0.11878 0.0
C1189 C 0.88309 0.63106 0.12914 0.0
C1190 C 0.91862 0.65018 0.11988 0.0
C1191 C 0.93792 0.63165 0.10052 0.0
C1192 C 0.83018 0.57145 0.12835 0.0
C1193 C 0.93628 0.69047 0.13021 0.0
H1194 H 0.81233 0.69713 0.14517 0.0
H1195 H 0.84199 0.6771 0.22979 0.0
H1196 H 0.87098 0.67401 0.0891 0.0
H1197 H 0.83346 0.63261 0.08927 0.0
H1198 H 0.82809 0.67432 0.0925 0.0
H1199 H 0.87617 0.64441 0.2274 0.0
H1200 H 0.87219 0.6106 0.19185 0.0
H1201 H 0.90891 0.65287 0.19428 0.0
H1202 H 0.87551 0.54643 0.09119 0.0
H1203 H 0.96494 0.64684 0.09344 0.0
H1204 H 0.81308 0.58146 0.11932 0.0
H1205 H 0.82598 0.57486 0.15512 0.0
H1206 H 0.82206 0.54224 0.11868 0.0
H1207 H 0.92341 0.70421 0.11992 0.0
H1208 H 0.96437 0.7013 0.1222 0.0
H1209 H 0.93367 0.69742 0.15696 0.0
C1210 C 0.37189 0.8018 0.18103 0.0
C1211 C 0.34344 0.80896 0.19676 0.0
C1212 C 0.3948 0.82316 0.15862 0.0
C1213 C 0.38896 0.85226 0.15158 0.0
C1214 C 0.36109 0.8605 0.16846 0.0
C1215 C 0.3388 0.83888 0.19088 0.0
C1216 C 0.42449 0.81373 0.14178 0.0
C1217 C 0.35416 0.8916 0.16212 0.0
C1218 C 0.4567 0.92616 0.10726 0.0
C1219 C 0.44267 0.91683 0.07701 0.0
C1220 C 0.44049 0.90451 0.13153 0.0
C1221 C 0.41004 0.87258 0.12501 0.0
C1222 C 0.39764 0.86181 0.09353 0.0
C1223 C 0.41373 0.88438 0.07013 0.0
C1224 C 0.45472 0.91691 0.16465 0.0
C1225 C 0.36632 0.82725 0.08498 0.0
H1226 H 0.37642 0.77971 0.18655 0.0
H1227 H 0.31701 0.84479 0.20313 0.0
H1228 H 0.41684 0.7978 0.11754 0.0
H1229 H 0.44817 0.83819 0.13809 0.0
H1230 H 0.43112 0.79759 0.15569 0.0
H1231 H 0.3332 0.89622 0.17894 0.0
H1232 H 0.37821 0.91671 0.16453 0.0
H1233 H 0.3464 0.88612 0.13694 0.0
H1234 H 0.47902 0.9514 0.11256 0.0
H1235 H 0.40308 0.87714 0.04659 0.0
H1236 H 0.45709 0.89446 0.17332 0.0
H1237 H 0.43638 0.92553 0.18211 0.0
H1238 H 0.48059 0.93985 0.16482 0.0
H1239 H 0.36968 0.80432 0.09173 0.0
H1240 H 0.36187 0.82118 0.05875 0.0
H1241 H 0.34272 0.82929 0.09888 0.0
C1242 C 0.73096 0.17397 0.14442 0.0
C1243 C 0.7301 0.16437 0.17449 0.0
C1244 C 0.70658 0.15153 0.12196 0.0
C1245 C 0.68067 0.11866 0.12983 0.0
C1246 C 0.68134 0.10742 0.15916 0.0
C1247 C 0.70646 0.13042 0.18115 0.0
C1248 C 0.70659 0.16476 0.09118 0.0
C1249 C 0.6544 0.0723 0.16817 0.0
C1250 C 0.59735 0.09937 0.09322 0.0
C1251 C 0.59799 0.07435 0.06544 0.0
C1252 C 0.62278 0.11182 0.11564 0.0
C1253 C 0.65024 0.0998 0.10967 0.0
C1254 C 0.65054 0.07369 0.08223 0.0
C1255 C 0.62412 0.06094 0.06049 0.0
C1256 C 0.62063 0.13847 0.14541 0.0
C1257 C 0.67922 0.06003 0.07549 0.0
H1258 H 0.74946 0.20017 0.13925 0.0
H1259 H 0.70585 0.12306 0.20449 0.0
H1260 H 0.70355 0.14303 0.07 0.0
H1261 H 0.6842 0.17259 0.09277 0.0
H1262 H 0.73084 0.18854 0.08687 0.0
H1263 H 0.65541 0.07011 0.19374 0.0
H1264 H 0.62778 0.06922 0.16447 0.0
H1265 H 0.65904 0.04956 0.15228 0.0
H1266 H 0.57646 0.10881 0.09785 0.0
H1267 H 0.62423 0.04099 0.03942 0.0
H1268 H 0.64259 0.165 0.14414 0.0
H1269 H 0.62284 0.12915 0.16751 0.0
H1270 H 0.59586 0.14234 0.14799 0.0
H1271 H 0.70454 0.08265 0.07146 0.0
H1272 H 0.67486 0.03852 0.05392 0.0
H1273 H 0.68121 0.04923 0.09674 0.0
C1274 C 0.67033 0.68129 0.83338 0.0
C1275 C 0.68244 0.66623 0.8039 0.0
C1276 C 0.64632 0.6595 0.85471 0.0
C1277 C 0.63453 0.6215 0.84681 0.0
C1278 C 0.64507 0.60606 0.81614 0.0
C1279 C 0.66868 0.62866 0.79483 0.0
C1280 C 0.63586 0.67737 0.8869 0.0
C1281 C 0.63349 0.56575 0.80688 0.0
C1282 C 0.62325 0.57686 0.91984 0.0
C1283 C 0.5869 0.56179 0.92644 0.0
C1284 C 0.63856 0.59511 0.89356 0.0
C1285 C 0.61728 0.59907 0.87298 0.0
C1286 C 0.58052 0.58385 0.87909 0.0
C1287 C 0.56569 0.56522 0.90572 0.0
C1288 C 0.67784 0.61072 0.88825 0.0
C1289 C 0.55696 0.5878 0.85787 0.0
H1290 H 0.68052 0.71038 0.8403 0.0
H1291 H 0.67798 0.61694 0.77206 0.0
H1292 H 0.60756 0.6636 0.89297 0.0
H1293 H 0.64987 0.67538 0.90623 0.0
H1294 H 0.64222 0.70635 0.88707 0.0
H1295 H 0.64046 0.55776 0.78099 0.0
H1296 H 0.64605 0.55598 0.82198 0.0
H1297 H 0.60493 0.55202 0.81158 0.0
H1298 H 0.64026 0.57434 0.93523 0.0
H1299 H 0.53766 0.55355 0.91035 0.0
H1300 H 0.68796 0.64057 0.89139 0.0
H1301 H 0.68573 0.60106 0.86318 0.0
H1302 H 0.69054 0.60343 0.90533 0.0
H1303 H 0.56121 0.6166 0.86076 0.0
H1304 H 0.52901 0.57183 0.86395 0.0
H1305 H 0.56332 0.57912 0.83202 0.0
C1306 C 0.35396 0.61131 0.87819 0.0
C1307 C 0.36714 0.62203 0.84808 0.0
C1308 C 0.36866 0.59317 0.89201 0.0
C1309 C 0.39778 0.58703 0.8756 0.0
C1310 C 0.40955 0.5957 0.84424 0.0
C1311 C 0.39381 0.61294 0.83068 0.0
C1312 C 0.35438 0.58245 0.92484 0.0
C1313 C 0.44025 0.58908 0.82602 0.0
C1314 C 0.46122 0.59032 0.9317 0.0
C1315 C 0.45234 0.55357 0.93109 0.0
C1316 C 0.44438 0.60157 0.91273 0.0
C1317 C 0.41829 0.5754 0.89268 0.0
C1318 C 0.41104 0.53843 0.89009 0.0
C1319 C 0.42835 0.52796 0.90921 0.0
C1320 C 0.45299 0.64138 0.91564 0.0
C1321 C 0.38303 0.50964 0.86937 0.0
H1322 H 0.33302 0.61818 0.8913 0.0
H1323 H 0.40391 0.62149 0.80737 0.0
H1324 H 0.35114 0.55437 0.92486 0.0
H1325 H 0.37302 0.60029 0.94331 0.0
H1326 H 0.32889 0.5845 0.93212 0.0
H1327 H 0.44426 0.59467 0.80082 0.0
H1328 H 0.46422 0.60667 0.83882 0.0
H1329 H 0.43662 0.56073 0.82522 0.0
H1330 H 0.47972 0.61024 0.94844 0.0
H1331 H 0.42111 0.49943 0.9086 0.0
H1332 H 0.43034 0.64723 0.92742 0.0
H1333 H 0.45838 0.64935 0.89128 0.0
H1334 H 0.47586 0.6583 0.93019 0.0
H1335 H 0.35742 0.50365 0.88314 0.0
H1336 H 0.38733 0.48427 0.86291 0.0
H1337 H 0.38163 0.51845 0.84672 0.0
C1338 C 0.32139 0.33459 0.82467 0.0
C1339 C 0.33901 0.31725 0.80169 0.0
C1340 C 0.33238 0.348 0.85619 0.0
C1341 C 0.36241 0.34516 0.86413 0.0
C1342 C 0.38032 0.32782 0.84076 0.0
C1343 C 0.36798 0.31356 0.80992 0.0
C1344 C 0.31182 0.36514 0.88064 0.0
C1345 C 0.41298 0.32496 0.84801 0.0
C1346 C 0.42554 0.41624 0.92058 0.0
C1347 C 0.42595 0.396 0.94327 0.0
C1348 C 0.40274 0.40068 0.89584 0.0
C1349 C 0.3786 0.36457 0.89484 0.0
C1350 C 0.37581 0.34548 0.92008 0.0
C1351 C 0.40044 0.3611 0.94369 0.0
C1352 C 0.4072 0.42157 0.86886 0.0
C1353 C 0.34832 0.30788 0.92083 0.0
H1354 H 0.29815 0.33625 0.81848 0.0
H1355 H 0.38086 0.29928 0.79216 0.0
H1356 H 0.31345 0.36178 0.90566 0.0
H1357 H 0.32228 0.39442 0.87971 0.0
H1358 H 0.28397 0.35344 0.87511 0.0
H1359 H 0.4243 0.31177 0.82663 0.0
H1360 H 0.43293 0.3522 0.85614 0.0
H1361 H 0.40715 0.30909 0.86789 0.0
H1362 H 0.44531 0.4433 0.92023 0.0
H1363 H 0.40041 0.34581 0.96171 0.0
H1364 H 0.38246 0.42378 0.86648 0.0
H1365 H 0.41385 0.4071 0.84547 0.0
H1366 H 0.42807 0.44912 0.87291 0.0
H1367 H 0.32274 0.30649 0.91561 0.0
H1368 H 0.34577 0.29931 0.94465 0.0
H1369 H 0.35505 0.28846 0.90183 0.0
C1370 C 0.62864 0.32157 0.91895 0.0
C1371 C 0.66047 0.32087 0.90542 0.0
C1372 C 0.62651 0.35485 0.93052 0.0
C1373 C 0.65719 0.38679 0.92891 0.0
C1374 C 0.69001 0.38503 0.92294 0.0
C1375 C 0.69125 0.35121 0.91367 0.0
C1376 C 0.5909 0.35565 0.93863 0.0
C1377 C 0.72305 0.41828 0.92007 0.0
C1378 C 0.62208 0.44222 0.89982 0.0
C1379 C 0.61197 0.45674 0.93027 0.0
C1380 C 0.64318 0.42329 0.89778 0.0
C1381 C 0.65386 0.42023 0.927 0.0
C1382 C 0.6514 0.44336 0.95588 0.0
C1383 C 0.63186 0.46355 0.9565 0.0
C1384 C 0.6473 0.40076 0.8658 0.0
C1385 C 0.66203 0.44081 0.9876 0.0
H1386 H 0.60495 0.29754 0.91442 0.0
H1387 H 0.7164 0.35031 0.90559 0.0
H1388 H 0.59161 0.3782 0.95837 0.0
H1389 H 0.5818 0.35938 0.91681 0.0
H1390 H 0.57164 0.32994 0.94602 0.0
H1391 H 0.74657 0.41311 0.92135 0.0
H1392 H 0.72472 0.42662 0.89632 0.0
H1393 H 0.72321 0.44119 0.93913 0.0
H1394 H 0.60799 0.43902 0.87906 0.0
H1395 H 0.62574 0.47696 0.97969 0.0
H1396 H 0.62452 0.37447 0.86345 0.0
H1397 H 0.67125 0.39554 0.86396 0.0
H1398 H 0.64806 0.41416 0.84526 0.0
H1399 H 0.63989 0.41977 0.99903 0.0
H1400 H 0.66834 0.46671 0.00458 0.0
H1401 H 0.68463 0.43316 0.98425 0.0
C1402 C 0.68478 0.37915 0.12934 0.0
C1403 C 0.67246 0.37038 0.16025 0.0
C1404 C 0.6676 0.39312 0.11335 0.0
C1405 C 0.63687 0.3969 0.12834 0.0
C1406 C 0.62554 0.38985 0.16023 0.0
C1407 C 0.64374 0.37694 0.17594 0.0
C1408 C 0.68135 0.40235 0.07996 0.0
C1409 C 0.59294 0.39359 0.17696 0.0
C1410 C 0.60122 0.44822 0.08958 0.0
C1411 C 0.57913 0.42046 0.0675 0.0
C1412 C 0.61943 0.44095 0.1104 0.0
C1413 C 0.61492 0.40496 0.10951 0.0
C1414 C 0.59053 0.3765 0.0893 0.0
C1415 C 0.57298 0.38461 0.06832 0.0
C1416 C 0.64521 0.47213 0.1315 0.0
C1417 C 0.58438 0.33763 0.0886 0.0
H1418 H 0.7072 0.37422 0.11747 0.0
H1419 H 0.6342 0.36981 0.19983 0.0
H1420 H 0.66316 0.38282 0.06179 0.0
H1421 H 0.68301 0.42958 0.07859 0.0
H1422 H 0.70749 0.40173 0.0733 0.0
H1423 H 0.59002 0.39102 0.20298 0.0
H1424 H 0.59299 0.42001 0.17507 0.0
H1425 H 0.56987 0.37228 0.1649 0.0
H1426 H 0.60579 0.47607 0.08955 0.0
H1427 H 0.55584 0.36304 0.05152 0.0
H1428 H 0.67174 0.47871 0.11952 0.0
H1429 H 0.6455 0.46536 0.15549 0.0
H1430 H 0.63943 0.49658 0.13528 0.0
H1431 H 0.60788 0.33303 0.07753 0.0
H1432 H 0.56181 0.31859 0.07446 0.0
H1433 H 0.57977 0.33138 0.11358 0.0
C1434 C 0.66887 0.68203 0.18703 0.0
C1435 C 0.68907 0.67006 0.20136 0.0
C1436 C 0.65292 0.66285 0.15837 0.0
C1437 C 0.65708 0.6307 0.14373 0.0
C1438 C 0.6782 0.61888 0.15752 0.0
C1439 C 0.6939 0.63869 0.18638 0.0
C1440 C 0.63089 0.67658 0.1442 0.0
C1441 C 0.68429 0.58553 0.14167 0.0
C1442 C 0.57748 0.56618 0.10077 0.0
C1443 C 0.58664 0.57443 0.06948 0.0
C1444 C 0.60131 0.58248 0.12473 0.0
C1445 C 0.63518 0.60736 0.11689 0.0
C1446 C 0.64541 0.61356 0.0845 0.0
C1447 C 0.62064 0.59719 0.061 0.0
C1448 C 0.58941 0.575 0.15891 0.0
C1449 C 0.68167 0.63889 0.07498 0.0
H1450 H 0.66557 0.70662 0.19822 0.0
H1451 H 0.7105 0.63003 0.19681 0.0
H1452 H 0.6402 0.6801 0.11876 0.0
H1453 H 0.60348 0.65658 0.14405 0.0
H1454 H 0.63145 0.70278 0.15798 0.0
H1455 H 0.70045 0.57924 0.15605 0.0
H1456 H 0.65909 0.56199 0.13822 0.0
H1457 H 0.69755 0.58938 0.11729 0.0
H1458 H 0.55107 0.54802 0.10681 0.0
H1459 H 0.62754 0.60284 0.03642 0.0
H1460 H 0.58884 0.5998 0.17475 0.0
H1461 H 0.6079 0.56738 0.16866 0.0
H1462 H 0.56304 0.55305 0.16036 0.0
H1463 H 0.68314 0.6669 0.07981 0.0
H1464 H 0.68845 0.63233 0.04877 0.0
H1465 H 0.70136 0.63798 0.08916 0.0
C1466 C 0.41327 0.72104 0.10187 0.0
C1467 C 0.42529 0.72658 0.13268 0.0
C1468 C 0.41285 0.69033 0.08033 0.0
C1469 C 0.43223 0.67219 0.08742 0.0
C1470 C 0.45701 0.68952 0.11124 0.0
C1471 C 0.45475 0.71921 0.13291 0.0
C1472 C 0.38795 0.67454 0.05358 0.0
C1473 C 0.48207 0.67405 0.11658 0.0
C1474 C 0.39099 0.57158 0.08566 0.0
C1475 C 0.40214 0.55967 0.05468 0.0
C1476 C 0.39905 0.60831 0.09601 0.0
C1477 C 0.42108 0.63336 0.07553 0.0
C1478 C 0.43051 0.6209 0.04353 0.0
C1479 C 0.41811 0.58386 0.0327 0.0
C1480 C 0.38557 0.62011 0.12942 0.0
C1481 C 0.45595 0.64568 0.02128 0.0
H1482 H 0.39667 0.73374 0.09797 0.0
H1483 H 0.47021 0.72995 0.1539 0.0
H1484 H 0.40245 0.67184 0.02991 0.0
H1485 H 0.36876 0.64715 0.05717 0.0
H1486 H 0.37349 0.6914 0.05259 0.0
H1487 H 0.5041 0.69462 0.1306 0.0
H1488 H 0.46834 0.65142 0.13043 0.0
H1489 H 0.49235 0.66331 0.09304 0.0
H1490 H 0.37878 0.55268 0.10259 0.0
H1491 H 0.42635 0.57423 0.00854 0.0
H1492 H 0.37388 0.6394 0.12831 0.0
H1493 H 0.40731 0.63377 0.1457 0.0
H1494 H 0.36557 0.59699 0.14024 0.0
H1495 H 0.44237 0.64463 1.00024 0.0
H1496 H 0.47685 0.63597 0.01151 0.0
H1497 H 0.46845 0.6741 0.03322 0.0
C1498 C 0.32397 0.32767 0.17334 0.0
C1499 C 0.33412 0.3268 0.2032 0.0
C1500 C 0.34799 0.34783 0.15106 0.0
C1501 C 0.38297 0.36833 0.15904 0.0
C1502 C 0.39327 0.36847 0.18951 0.0
C1503 C 0.36877 0.34737 0.21115 0.0
C1504 C 0.33598 0.34667 0.11868 0.0
C1505 C 0.4301 0.39084 0.19918 0.0
C1506 C 0.44413 0.39307 0.08484 0.0
C1507 C 0.44232 0.42553 0.08252 0.0
C1508 C 0.42683 0.37502 0.1111 0.0
C1509 C 0.40802 0.39035 0.13553 0.0
C1510 C 0.40899 0.42478 0.1345 0.0
C1511 C 0.42574 0.4417 0.10773 0.0
C1512 C 0.42629 0.3383 0.11129 0.0
C1513 C 0.39004 0.44251 0.16032 0.0
H1514 H 0.2974 0.31154 0.16678 0.0
H1515 H 0.37679 0.34683 0.23421 0.0
H1516 H 0.33974 0.37414 0.11572 0.0
H1517 H 0.35182 0.33717 0.09881 0.0
H1518 H 0.3081 0.32859 0.11593 0.0
H1519 H 0.43403 0.38775 0.22364 0.0
H1520 H 0.44869 0.38304 0.1814 0.0
H1521 H 0.4366 0.41975 0.19901 0.0
H1522 H 0.45698 0.3807 0.06516 0.0
H1523 H 0.42469 0.46705 0.10584 0.0
H1524 H 0.40007 0.31737 0.10551 0.0
H1525 H 0.43137 0.33611 0.13562 0.0
H1526 H 0.44581 0.33241 0.09326 0.0
H1527 H 0.36163 0.42876 0.15725 0.0
H1528 H 0.39833 0.47152 0.15896 0.0
H1529 H 0.39449 0.44011 0.18481 0.0
C1530 C 0.84376 0.68094 0.70044 0.0
C1531 C 0.80969 0.67442 0.69409 0.0
C1532 C 0.8634 0.66346 0.6798 0.0
C1533 C 0.8485 0.63771 0.65239 0.0
C1534 C 0.81383 0.63048 0.64623 0.0
C1535 C 0.79517 0.64926 0.66671 0.0
C1536 C 0.90045 0.67312 0.68707 0.0
C1537 C 0.79639 0.60284 0.61788 0.0
C1538 C 0.91109 0.61793 0.5832 0.0
C1539 C 0.91078 0.58528 0.58843 0.0
C1540 C 0.89038 0.63458 0.60311 0.0
C1541 C 0.86946 0.61906 0.62989 0.0
C1542 C 0.86925 0.58609 0.63537 0.0
C1543 C 0.8894 0.56938 0.61436 0.0
C1544 C 0.89111 0.66906 0.59552 0.0
C1545 C 0.84834 0.56887 0.66394 0.0
H1546 H 0.85557 0.70069 0.72116 0.0
H1547 H 0.76894 0.64391 0.66147 0.0
H1548 H 0.9036 0.64866 0.69034 0.0
H1549 H 0.91843 0.68377 0.66634 0.0
H1550 H 0.90839 0.69368 0.70917 0.0
H1551 H 0.76935 0.60003 0.61632 0.0
H1552 H 0.8116 0.61043 0.59497 0.0
H1553 H 0.79569 0.5762 0.61999 0.0
H1554 H 0.92738 0.63033 0.56314 0.0
H1555 H 0.88925 0.54438 0.61883 0.0
H1556 H 0.90137 0.6913 0.61598 0.0
H1557 H 0.86431 0.66594 0.5925 0.0
H1558 H 0.90748 0.67693 0.57313 0.0
H1559 H 0.85886 0.58683 0.68673 0.0
H1560 H 0.849 0.54223 0.66384 0.0
H1561 H 0.82085 0.56534 0.66409 0.0
C1562 C 0.33695 0.79958 0.65706 0.0
C1563 C 0.34086 0.80948 0.69035 0.0
C1564 C 0.35991 0.82155 0.63538 0.0
C1565 C 0.38677 0.85459 0.64752 0.0
C1566 C 0.39142 0.86405 0.68123 0.0
C1567 C 0.36849 0.84106 0.70231 0.0
C1568 C 0.35434 0.81022 0.59962 0.0
C1569 C 0.41919 0.89937 0.69518 0.0
C1570 C 0.45338 0.90479 0.58493 0.0
C1571 C 0.43775 0.92645 0.57814 0.0
C1572 C 0.43784 0.88199 0.60837 0.0
C1573 C 0.40623 0.88123 0.62544 0.0
C1574 C 0.39133 0.90429 0.61969 0.0
C1575 C 0.40714 0.9264 0.59609 0.0
C1576 C 0.45453 0.85784 0.61399 0.0
C1577 C 0.35788 0.90473 0.6376 0.0
H1578 H 0.31562 0.77482 0.64806 0.0
H1579 H 0.37129 0.84839 0.72822 0.0
H1580 H 0.34477 0.82822 0.59143 0.0
H1581 H 0.37929 0.81281 0.5856 0.0
H1582 H 0.33511 0.78197 0.59385 0.0
H1583 H 0.42208 0.90072 0.72119 0.0
H1584 H 0.44465 0.90359 0.68159 0.0
H1585 H 0.41232 0.92191 0.69281 0.0
H1586 H 0.47714 0.90488 0.57136 0.0
H1587 H 0.39512 0.94347 0.5915 0.0
H1588 H 0.4373 0.82923 0.6061 0.0
H1589 H 0.45782 0.86108 0.64018 0.0
H1590 H 0.48035 0.86357 0.60058 0.0
H1591 H 0.33595 0.87871 0.63016 0.0
H1592 H 0.35174 0.92685 0.63271 0.0
H1593 H 0.35949 0.90783 0.66409 0.0
C1594 C 0.13669 0.33554 0.63854 0.0
C1595 C 0.16854 0.35903 0.65159 0.0
C1596 C 0.11618 0.34875 0.62609 0.0
C1597 C 0.12781 0.3863 0.62662 0.0
C1598 C 0.15848 0.41033 0.64211 0.0
C1599 C 0.17859 0.39639 0.65431 0.0
C1600 C 0.08331 0.32236 0.61023 0.0
C1601 C 0.1711 0.45062 0.64411 0.0
C1602 C 0.10588 0.41022 0.55327 0.0
C1603 C 0.07746 0.41915 0.56528 0.0
C1604 C 0.12294 0.40051 0.57333 0.0
C1605 C 0.11116 0.39954 0.60633 0.0
C1606 C 0.08291 0.4095 0.61885 0.0
C1607 C 0.06633 0.41926 0.59801 0.0
C1608 C 0.15362 0.39127 0.55912 0.0
C1609 C 0.06978 0.40952 0.65393 0.0
H1610 H 0.12874 0.30665 0.63633 0.0
H1611 H 0.20277 0.4147 0.66511 0.0
H1612 H 0.06154 0.33098 0.61896 0.0
H1613 H 0.08731 0.32187 0.58364 0.0
H1614 H 0.07567 0.29456 0.61508 0.0
H1615 H 0.19282 0.46571 0.66038 0.0
H1616 H 0.18029 0.45792 0.6196 0.0
H1617 H 0.14948 0.45943 0.65295 0.0
H1618 H 0.11501 0.41123 0.52803 0.0
H1619 H 0.04534 0.42773 0.60733 0.0
H1620 H 0.14786 0.36295 0.56107 0.0
H1621 H 0.17689 0.4088 0.57291 0.0
H1622 H 0.16014 0.39455 0.53326 0.0
H1623 H 0.049 0.38264 0.65659 0.0
H1624 H 0.05843 0.42997 0.6623 0.0
H1625 H 0.09063 0.41499 0.66997 0.0
C1626 C 0.67788 0.16547 0.67787 0.0
C1627 C 0.71423 0.1816 0.67443 0.0
C1628 C 0.65915 0.13873 0.65375 0.0
C1629 C 0.67748 0.1287 0.62551 0.0
C1630 C 0.71418 0.14312 0.62286 0.0
C1631 C 0.73232 0.16974 0.64752 0.0
C1632 C 0.61981 0.12302 0.65765 0.0
C1633 C 0.7341 0.13207 0.59319 0.0
C1634 C 0.61609 0.05407 0.56962 0.0
C1635 C 0.60643 0.0745 0.55322 0.0
C1636 C 0.64204 0.07121 0.5916 0.0
C1637 C 0.65821 0.10924 0.59672 0.0
C1638 C 0.65124 0.1295 0.57748 0.0
C1639 C 0.62552 0.11166 0.55556 0.0
C1640 C 0.64905 0.04887 0.6117 0.0
C1641 C 0.66772 0.1703 0.58279 0.0
H1642 H 0.66398 0.17391 0.69929 0.0
H1643 H 0.76054 0.18188 0.64532 0.0
H1644 H 0.60936 0.13224 0.6402 0.0
H1645 H 0.60934 0.09315 0.65232 0.0
H1646 H 0.60998 0.13118 0.68247 0.0
H1647 H 0.76203 0.14088 0.59735 0.0
H1648 H 0.72259 0.10236 0.58569 0.0
H1649 H 0.7324 0.1444 0.57285 0.0
H1650 H 0.60137 0.02517 0.56759 0.0
H1651 H 0.61836 0.12721 0.54227 0.0
H1652 H 0.63134 0.04622 0.63394 0.0
H1653 H 0.67622 0.06156 0.61916 0.0
H1654 H 0.64396 0.02126 0.59825 0.0
H1655 H 0.65739 0.18093 0.60636 0.0
H1656 H 0.66218 0.18151 0.5635 0.0
H1657 H 0.69633 0.1803 0.58373 0.0
C1658 C 0.80521 0.35369 0.34321 0.0
C1659 C 0.80087 0.31764 0.33405 0.0
C1660 C 0.82613 0.37562 0.36885 0.0
C1661 C 0.84331 0.36097 0.38474 0.0
C1662 C 0.83703 0.32391 0.37655 0.0
C1663 C 0.81543 0.30266 0.35165 0.0
C1664 C 0.83185 0.41489 0.3773 0.0
C1665 C 0.85537 0.3072 0.39214 0.0
C1666 C 0.93338 0.41401 0.41418 0.0
C1667 C 0.92678 0.41478 0.4476 0.0
C1668 C 0.90607 0.39913 0.3935 0.0
C1669 C 0.87132 0.38452 0.40674 0.0
C1670 C 0.86451 0.38723 0.44079 0.0
C1671 C 0.89252 0.40242 0.46099 0.0
C1672 C 0.91468 0.39652 0.35737 0.0
C1673 C 0.82777 0.3725 0.45564 0.0
H1674 H 0.79423 0.36523 0.32912 0.0
H1675 H 0.81192 0.27467 0.34424 0.0
H1676 H 0.83133 0.42352 0.40395 0.0
H1677 H 0.85784 0.43171 0.36712 0.0
H1678 H 0.81191 0.42034 0.36738 0.0
H1679 H 0.84859 0.27829 0.38186 0.0
H1680 H 0.88401 0.32185 0.38878 0.0
H1681 H 0.8484 0.30939 0.41855 0.0
H1682 H 0.96011 0.42416 0.40415 0.0
H1683 H 0.88773 0.4036 0.487 0.0
H1684 H 0.89849 0.40562 0.3459 0.0
H1685 H 0.90889 0.36795 0.34652 0.0
H1686 H 0.94254 0.41288 0.35134 0.0
H1687 H 0.81099 0.3814 0.44469 0.0
H1688 H 0.82657 0.38117 0.48229 0.0
H1689 H 0.81681 0.3426 0.45056 0.0
C1690 C 0.72304 0.84008 0.3214 0.0
C1691 C 0.70995 0.80228 0.31811 0.0
C1692 C 0.70582 0.86015 0.34198 0.0
C1693 C 0.67396 0.84213 0.35926 0.0
C1694 C 0.66054 0.80389 0.35588 0.0
C1695 C 0.67889 0.78455 0.33583 0.0
C1696 C 0.7217 0.90073 0.34507 0.0
C1697 C 0.62634 0.78325 0.37299 0.0
C1698 C 0.64213 0.8954 0.43319 0.0
C1699 C 0.61622 0.90114 0.42063 0.0
C1700 C 0.66086 0.87616 0.41369 0.0
C1701 C 0.65446 0.86315 0.38039 0.0
C1702 C 0.62904 0.86998 0.36742 0.0
C1703 C 0.60991 0.8882 0.38773 0.0
C1704 C 0.68699 0.86901 0.42893 0.0
C1705 C 0.62192 0.8579 0.33201 0.0
H1706 H 0.74713 0.85412 0.30801 0.0
H1707 H 0.66834 0.75539 0.33323 0.0
H1708 H 0.70368 0.90996 0.33656 0.0
H1709 H 0.7257 0.91314 0.37085 0.0
H1710 H 0.7471 0.91084 0.33091 0.0
H1711 H 0.61989 0.75381 0.36887 0.0
H1712 H 0.62709 0.79335 0.39941 0.0
H1713 H 0.6051 0.78764 0.36428 0.0
H1714 H 0.64678 0.90472 0.45868 0.0
H1715 H 0.58993 0.89245 0.3778 0.0
H1716 H 0.7131 0.88073 0.41639 0.0
H1717 H 0.67965 0.8395 0.42611 0.0
H1718 H 0.68878 0.88045 0.45511 0.0
H1719 H 0.64592 0.87116 0.317 0.0
H1720 H 0.60086 0.86446 0.32573 0.0
H1721 H 0.6145 0.82837 0.32546 0.0
C1722 C 0.16087 0.68308 0.33108 0.0
C1723 C 0.18035 0.66791 0.30818 0.0
C1724 C 0.13566 0.6627 0.35258 0.0
C1725 C 0.13057 0.62648 0.35165 0.0
C1726 C 0.14869 0.61037 0.32727 0.0
C1727 C 0.17351 0.63137 0.30585 0.0
C1728 C 0.1171 0.68098 0.37832 0.0
C1729 C 0.14406 0.5718 0.32555 0.0
C1730 C 0.11842 0.59315 0.43086 0.0
C1731 C 0.08375 0.56821 0.43089 0.0
C1732 C 0.13328 0.61337 0.40589 0.0
C1733 C 0.11299 0.60834 0.38002 0.0
C1734 C 0.07722 0.58486 0.38086 0.0
C1735 C 0.06284 0.56504 0.40658 0.0
C1736 C 0.17126 0.63888 0.40654 0.0
C1737 C 0.05466 0.57969 0.3541 0.0
H1738 H 0.16722 0.71156 0.3339 0.0
H1739 H 0.18851 0.61956 0.28807 0.0
H1740 H 0.08984 0.66236 0.3835 0.0
H1741 H 0.13066 0.6896 0.4011 0.0
H1742 H 0.11687 0.70524 0.37115 0.0
H1743 H 0.15628 0.56189 0.30277 0.0
H1744 H 0.1562 0.56981 0.3463 0.0
H1745 H 0.11602 0.55387 0.32737 0.0
H1746 H 0.13436 0.59608 0.45009 0.0
H1747 H 0.03592 0.54585 0.40678 0.0
H1748 H 0.17437 0.66632 0.40418 0.0
H1749 H 0.18634 0.62961 0.38575 0.0
H1750 H 0.1828 0.64076 0.42922 0.0
H1751 H 0.05648 0.60618 0.35017 0.0
H1752 H 0.0269 0.56241 0.35946 0.0
H1753 H 0.06409 0.56702 0.33112 0.0
C1754 C 0.41953 0.1995 0.39537 0.0
C1755 C 0.40139 0.18524 0.36703 0.0
C1756 C 0.43273 0.17931 0.40838 0.0
C1757 C 0.42789 0.14399 0.3926 0.0
C1758 C 0.41055 0.12981 0.36343 0.0
C1759 C 0.39735 0.15052 0.35109 0.0
C1760 C 0.45069 0.19532 0.43974 0.0
C1761 C 0.40527 0.09247 0.34563 0.0
C1762 C 0.48472 0.10521 0.42067 0.0
C1763 C 0.46113 0.08261 0.44155 0.0
C1764 C 0.47371 0.12365 0.4029 0.0
C1765 C 0.43899 0.12122 0.40788 0.0
C1766 C 0.41522 0.09861 0.42916 0.0
C1767 C 0.42637 0.07898 0.44508 0.0
C1768 C 0.49921 0.14641 0.37934 0.0
C1769 C 0.37845 0.09651 0.4364 0.0
H1770 H 0.42241 0.22609 0.40807 0.0
H1771 H 0.38381 0.13949 0.32892 0.0
H1772 H 0.43576 0.17875 0.45869 0.0
H1773 H 0.47705 0.19504 0.43664 0.0
H1774 H 0.45324 0.22351 0.44847 0.0
H1775 H 0.39541 0.08724 0.32131 0.0
H1776 H 0.43006 0.08865 0.3428 0.0
H1777 H 0.38623 0.07203 0.35987 0.0
H1778 H 0.51164 0.10854 0.41846 0.0
H1779 H 0.40821 0.06225 0.46186 0.0
H1780 H 0.50598 0.17538 0.389 0.0
H1781 H 0.48737 0.1405 0.35591 0.0
H1782 H 0.52352 0.14176 0.3747 0.0
H1783 H 0.37906 0.1236 0.44728 0.0
H1784 H 0.36312 0.07738 0.45337 0.0
H1785 H 0.36477 0.08799 0.41372 0.0
C1786 C 0.59192 0.79912 0.64523 0.0
C1787 C 0.62815 0.81159 0.64665 0.0
C1788 C 0.57716 0.81793 0.63207 0.0
C1789 C 0.59904 0.85 0.61984 0.0
C1790 C 0.63545 0.86378 0.62278 0.0
C1791 C 0.64954 0.84446 0.63611 0.0
C1792 C 0.53819 0.80267 0.63002 0.0
C1793 C 0.65976 0.89803 0.61033 0.0
C1794 C 0.56802 0.86906 0.54829 0.0
C1795 C 0.55891 0.89811 0.56216 0.0
C1796 C 0.5813 0.85354 0.5668 0.0
C1797 C 0.58444 0.8665 0.60042 0.0
C1798 C 0.57426 0.89526 0.61481 0.0
C1799 C 0.56221 0.91122 0.59532 0.0
C1800 C 0.59306 0.82402 0.55008 0.0
C1801 C 0.57587 0.90904 0.6507 0.0
H1802 H 0.57504 0.77424 0.65398 0.0
H1803 H 0.67753 0.85437 0.63693 0.0
H1804 H 0.52814 0.82397 0.63945 0.0
H1805 H 0.53174 0.79284 0.60432 0.0
H1806 H 0.52447 0.7799 0.64377 0.0
H1807 H 0.68696 0.90682 0.61686 0.0
H1808 H 0.65952 0.89373 0.58356 0.0
H1809 H 0.65086 0.92011 0.62019 0.0
H1810 H 0.56629 0.85954 0.52244 0.0
H1811 H 0.55536 0.93386 0.60594 0.0
H1812 H 0.57827 0.79914 0.56083 0.0
H1813 H 0.62102 0.83233 0.55369 0.0
H1814 H 0.58953 0.81752 0.52365 0.0
H1815 H 0.55464 0.8889 0.66378 0.0
H1816 H 0.57273 0.93506 0.65719 0.0
H1817 H 0.60086 0.91263 0.65935 0.0
C1818 C 0.69165 0.1899 0.34704 0.0
C1819 C 0.69388 0.17663 0.31398 0.0
C1820 C 0.66848 0.16771 0.36854 0.0
C1821 C 0.64838 0.13104 0.35679 0.0
C1822 C 0.64984 0.1179 0.32314 0.0
C1823 C 0.67225 0.14113 0.30199 0.0
C1824 C 0.6661 0.18322 0.40393 0.0
C1825 C 0.62869 0.07905 0.30972 0.0
C1826 C 0.62961 0.068 0.41701 0.0
C1827 C 0.5944 0.06024 0.42699 0.0
C1828 C 0.647 0.09033 0.39381 0.0
C1829 C 0.629 0.10569 0.38009 0.0
C1830 C 0.59331 0.09749 0.38938 0.0
C1831 C 0.57643 0.07504 0.41293 0.0
C1832 C 0.68483 0.09758 0.38407 0.0
C1833 C 0.57294 0.11309 0.37544 0.0
H1834 H 0.70807 0.21766 0.35604 0.0
H1835 H 0.67398 0.13115 0.27626 0.0
H1836 H 0.63842 0.17635 0.41269 0.0
H1837 H 0.67714 0.17121 0.41834 0.0
H1838 H 0.68037 0.213 0.40855 0.0
H1839 H 0.63202 0.07331 0.28289 0.0
H1840 H 0.63657 0.06111 0.3201 0.0
H1841 H 0.60067 0.07224 0.31686 0.0
H1842 H 0.64396 0.05673 0.42744 0.0
H1843 H 0.54926 0.06924 0.42031 0.0
H1844 H 0.70114 0.12668 0.391 0.0
H1845 H 0.68849 0.09075 0.35739 0.0
H1846 H 0.69451 0.08188 0.39565 0.0
H1847 H 0.5725 0.13718 0.3926 0.0
H1848 H 0.54568 0.09318 0.37245 0.0
H1849 H 0.58427 0.12149 0.35166 0.0
C1850 C 0.84393 0.59745 0.37489 0.0
C1851 C 0.85931 0.62612 0.35718 0.0
C1852 C 0.86432 0.58443 0.38793 0.0
C1853 C 0.90109 0.60037 0.38313 0.0
C1854 C 0.91658 0.62738 0.3632 0.0
C1855 C 0.89559 0.64019 0.35073 0.0
C1856 C 0.84657 0.55506 0.40845 0.0
C1857 C 0.9555 0.64366 0.35607 0.0
C1858 C 0.95278 0.60597 0.45215 0.0
C1859 C 0.9604 0.57534 0.44268 0.0
C1860 C 0.93373 0.61434 0.43281 0.0
C1861 C 0.92329 0.59243 0.40248 0.0
C1862 C 0.93277 0.56256 0.39191 0.0
C1863 C 0.95041 0.55381 0.41257 0.0
C1864 C 0.92295 0.64544 0.44579 0.0
C1865 C 0.92299 0.53862 0.35966 0.0
H1866 H 0.81596 0.58634 0.38002 0.0
H1867 H 0.90767 0.66169 0.33636 0.0
H1868 H 0.85556 0.53286 0.39996 0.0
H1869 H 0.85359 0.56605 0.43392 0.0
H1870 H 0.81776 0.54369 0.4079 0.0
H1871 H 0.96315 0.66088 0.33696 0.0
H1872 H 0.96837 0.66038 0.37839 0.0
H1873 H 0.9654 0.62201 0.34826 0.0
H1874 H 0.95947 0.62191 0.4759 0.0
H1875 H 0.95565 0.52964 0.40552 0.0
H1876 H 0.89411 0.63544 0.44762 0.0
H1877 H 0.93298 0.66537 0.42894 0.0
H1878 H 0.9326 0.65941 0.47007 0.0
H1879 H 0.89723 0.51628 0.36276 0.0
H1880 H 0.94213 0.52637 0.35022 0.0
H1881 H 0.92134 0.55357 0.34136 0.0
C1882 C 0.34384 0.82959 0.31332 0.0
C1883 C 0.32055 0.79957 0.327 0.0
C1884 C 0.35902 0.86291 0.33311 0.0
C1885 C 0.35255 0.86474 0.36698 0.0
C1886 C 0.32495 0.83613 0.38 0.0
C1887 C 0.30919 0.80361 0.35962 0.0
C1888 C 0.38553 0.8945 0.31835 0.0
C1889 C 0.31611 0.83759 0.41599 0.0
C1890 C 0.42884 0.88343 0.41212 0.0
C1891 C 0.42953 0.91306 0.43551 0.0
C1892 C 0.40585 0.8697 0.38787 0.0
C1893 C 0.38207 0.88559 0.38726 0.0
C1894 C 0.3836 0.91676 0.40958 0.0
C1895 C 0.40774 0.93046 0.43359 0.0
C1896 C 0.40648 0.83715 0.36383 0.0
C1897 C 0.36039 0.93585 0.40782 0.0
H1898 H 0.35075 0.82699 0.28753 0.0
H1899 H 0.28943 0.78068 0.36955 0.0
H1900 H 0.38695 0.92042 0.33342 0.0
H1901 H 0.41159 0.89363 0.31671 0.0
H1902 H 0.37913 0.8935 0.29347 0.0
H1903 H 0.29017 0.81646 0.42143 0.0
H1904 H 0.33593 0.83316 0.42714 0.0
H1905 H 0.31632 0.86433 0.42746 0.0
H1906 H 0.44671 0.8708 0.41237 0.0
H1907 H 0.40936 0.95437 0.45084 0.0
H1908 H 0.41172 0.84337 0.33885 0.0
H1909 H 0.38105 0.81394 0.3651 0.0
H1910 H 0.42686 0.82849 0.36826 0.0
H1911 H 0.3709 0.95204 0.38791 0.0
H1912 H 0.35934 0.95437 0.43069 0.0
H1913 H 0.33352 0.91649 0.40231 0.0
C1914 C 0.19374 0.32392 0.3036 0.0
C1915 C 0.21823 0.3153 0.31562 0.0
C1916 C 0.17552 0.34329 0.32379 0.0
C1917 C 0.18136 0.35451 0.35729 0.0
C1918 C 0.2063 0.34625 0.36955 0.0
C1919 C 0.22441 0.32706 0.34872 0.0
C1920 C 0.14955 0.35137 0.30922 0.0
C1921 C 0.21318 0.35683 0.40503 0.0
C1922 C 0.15215 0.42843 0.40703 0.0
C1923 C 0.11949 0.40813 0.42122 0.0
C1924 C 0.17234 0.41154 0.38614 0.0
C1925 C 0.16028 0.37327 0.37962 0.0
C1926 C 0.12758 0.35275 0.3943 0.0
C1927 C 0.10767 0.37024 0.41439 0.0
C1928 C 0.20656 0.43473 0.37075 0.0
C1929 C 0.11345 0.31206 0.38877 0.0
H1930 H 0.18847 0.31523 0.27821 0.0
H1931 H 0.24289 0.32053 0.35865 0.0
H1932 H 0.12318 0.33831 0.32084 0.0
H1933 H 0.15633 0.38085 0.31384 0.0
H1934 H 0.14852 0.34178 0.28269 0.0
H1935 H 0.23428 0.34997 0.41074 0.0
H1936 H 0.22044 0.38624 0.41264 0.0
H1937 H 0.1891 0.34282 0.41962 0.0
H1938 H 0.16176 0.4576 0.41184 0.0
H1939 H 0.08275 0.35394 0.42523 0.0
H1940 H 0.20616 0.42767 0.34399 0.0
H1941 H 0.22803 0.42946 0.37789 0.0
H1942 H 0.21234 0.46396 0.37777 0.0
H1943 H 0.10826 0.30143 0.36288 0.0
H1944 H 0.08895 0.3 0.40367 0.0
H1945 H 0.13296 0.303 0.39456 0.0
C1946 C 0.34425 0.20018 0.66248 0.0
C1947 C 0.31993 0.18516 0.68733 0.0
C1948 C 0.36262 0.18094 0.64222 0.0
C1949 C 0.3562 0.14531 0.64618 0.0
C1950 C 0.33131 0.12989 0.67094 0.0
C1951 C 0.31384 0.14993 0.6912 0.0
C1952 C 0.38929 0.19898 0.61674 0.0
C1953 C 0.32338 0.09221 0.67638 0.0
C1954 C 0.38107 0.08217 0.57603 0.0
C1955 C 0.41345 0.08564 0.58441 0.0
C1956 C 0.36245 0.10157 0.5956 0.0
C1957 C 0.37582 0.12439 0.62492 0.0
C1958 C 0.408 0.12702 0.63393 0.0
C1959 C 0.42654 0.10826 0.61344 0.0
C1960 C 0.32867 0.09817 0.58455 0.0
C1961 C 0.42331 0.15021 0.66505 0.0
H1962 H 0.34953 0.22737 0.65927 0.0
H1963 H 0.29509 0.13775 0.71011 0.0
H1964 H 0.41531 0.20121 0.62146 0.0
H1965 H 0.38283 0.18235 0.59251 0.0
H1966 H 0.39091 0.22641 0.61614 0.0
H1967 H 0.30225 0.08332 0.69555 0.0
H1968 H 0.3156 0.07283 0.65362 0.0
H1969 H 0.34712 0.09107 0.68348 0.0
H1970 H 0.37084 0.06528 0.55352 0.0
H1971 H 0.45149 0.11127 0.62026 0.0
H1972 H 0.33056 0.12512 0.58189 0.0
H1973 H 0.30721 0.08788 0.60305 0.0
H1974 H 0.32183 0.0798 0.56109 0.0
H1975 H 0.43242 0.17907 0.66287 0.0
H1976 H 0.44569 0.14548 0.67089 0.0
H1977 H 0.40334 0.14496 0.68558 0.0
C1978 C 0.85598 0.35157 0.70671 0.0
C1979 C 0.84206 0.31412 0.69744 0.0
C1980 C 0.88158 0.374 0.68669 0.0
C1981 C 0.89324 0.3584 0.65673 0.0
C1982 C 0.88086 0.32035 0.64855 0.0
C1983 C 0.85505 0.29869 0.66891 0.0
C1984 C 0.89408 0.41437 0.69642 0.0
C1985 C 0.89369 0.3025 0.61764 0.0
C1986 C 0.90671 0.40793 0.58692 0.0
C1987 C 0.94307 0.42582 0.58331 0.0
C1988 C 0.89064 0.38593 0.61048 0.0
C1989 C 0.91128 0.38117 0.63119 0.0
C1990 C 0.94809 0.39814 0.62729 0.0
C1991 C 0.9637 0.42032 0.6032 0.0
C1992 C 0.85131 0.36783 0.61323 0.0
C1993 C 0.97071 0.39291 0.64863 0.0
H1994 H 0.84613 0.36332 0.72916 0.0
H1995 H 0.8437 0.2697 0.66178 0.0
H1996 H 0.92271 0.42766 0.69184 0.0
H1997 H 0.88192 0.42483 0.68158 0.0
H1998 H 0.88721 0.42214 0.72238 0.0
H1999 H 0.87822 0.27291 0.61281 0.0
H2000 H 0.89282 0.3142 0.59654 0.0
H2001 H 0.92122 0.30728 0.61955 0.0
H2002 H 0.89044 0.41125 0.57126 0.0
H2003 H 0.99177 0.43393 0.60047 0.0
H2004 H 0.84127 0.37544 0.63808 0.0
H2005 H 0.84292 0.3381 0.60867 0.0
H2006 H 0.83906 0.37518 0.5958 0.0
H2007 H 0.9624 0.39855 0.67452 0.0
H2008 H 0.99853 0.41064 0.64491 0.0
H2009 H 0.96785 0.36441 0.64342 0.0
C2010 C 0.24173 0.65235 0.65644 0.0
C2011 C 0.2299 0.66417 0.68739 0.0
C2012 C 0.21865 0.63485 0.63153 0.0
C2013 C 0.1828 0.62781 0.63827 0.0
C2014 C 0.17062 0.63816 0.67011 0.0
C2015 C 0.19449 0.65697 0.6941 0.0
C2016 C 0.23284 0.62542 0.59773 0.0
C2017 C 0.13246 0.62985 0.67875 0.0
C2018 C 0.12527 0.61955 0.57318 0.0
C2019 C 0.10715 0.58207 0.56564 0.0
C2020 C 0.15096 0.63467 0.5958 0.0
C2021 C 0.15832 0.61179 0.61175 0.0
C2022 C 0.14093 0.57388 0.6035 0.0
C2023 C 0.11586 0.55949 0.58026 0.0
C2024 C 0.16922 0.67523 0.6036 0.0
C2025 C 0.14728 0.54854 0.62051 0.0
H2026 H 0.26927 0.65835 0.65135 0.0
H2027 H 0.18546 0.66599 0.71822 0.0
H2028 H 0.21868 0.59641 0.58831 0.0
H2029 H 0.22873 0.64096 0.58132 0.0
H2030 H 0.26109 0.63146 0.59672 0.0
H2031 H 0.1271 0.63811 0.70498 0.0
H2032 H 0.12333 0.64398 0.6648 0.0
H2033 H 0.11693 0.6005 0.67214 0.0
H2034 H 0.11866 0.63717 0.56204 0.0
H2035 H 0.10161 0.53052 0.575 0.0
H2036 H 0.19784 0.68343 0.60222 0.0
H2037 H 0.16133 0.68475 0.62872 0.0
H2038 H 0.16302 0.68908 0.58693 0.0
H2039 H 0.17542 0.55413 0.61873 0.0
H2040 H 0.1327 0.51975 0.61037 0.0
H2041 H 0.13922 0.55296 0.64664 0.0
loop_
_geom_bond_atom_site_label_1
_geom_bond_atom_site_label_2
_geom_bond_distance
_geom_bond_site_symmetry_2
_ccdc_geom_bond_type
Eu0 C9 2.828 . S
Eu0 O11 2.392 . S
Eu0 O13 2.418 . S
Eu0 O18 2.373 . S
Eu0 O21 2.488 . S
Eu0 O22 2.471 . S
Eu0 O23 2.349 . S
Eu1 O10 2.373 . S
Eu1 O14 2.488 . S
Eu1 O15 2.471 . S
Eu1 O16 2.349 . S
Eu1 O19 2.392 . S
Eu1 O20 2.418 . S
Eu1 C30 2.828 . S
C2 O20 1.244 . S
C2 O23 1.265 . S
C3 C4 1.379 . S
C3 C7 1.373 . S
C3 C9 1.505 . S
C4 C3 1.379 . S
C4 C6 1.369 . S
C4 H32 0.930 . S
C5 C7 1.383 . S
C5 C8 1.382 . S
C5 H33 0.930 . S
C6 C4 1.369 . S
C6 C8 1.392 . S
C6 H34 0.930 . S
C7 C3 1.373 . S
C7 C5 1.383 . S
C7 H35 0.931 . S
C8 C5 1.382 . S
C8 C6 1.392 . S
C9 Eu0 2.828 . S
C9 C3 1.505 . S
C9 O21 1.249 . S
C9 O22 1.244 . S
O10 Eu1 2.373 . S
O10 C12 1.258 . S
O11 Eu0 2.392 . S
O11 C12 1.242 . S
C12 O10 1.258 . S
C12 O11 1.242 . S
O13 Eu0 2.418 . S
O13 C17 1.244 . S
O14 Eu1 2.488 . S
O14 C30 1.249 . S
O15 Eu1 2.471 . S
O15 C30 1.244 . S
O16 Eu1 2.349 . S
O16 C17 1.265 . S
C17 O13 1.244 . S
C17 O16 1.265 . S
O18 Eu0 2.373 . S
O18 C31 1.258 . S
O19 Eu1 2.392 . S
O19 C31 1.242 . S
O20 Eu1 2.418 . S
O20 C2 1.244 . S
O21 Eu0 2.488 . S
O21 C9 1.249 . S
O22 Eu0 2.471 . S
O22 C9 1.244 . S
O23 Eu0 2.349 . S
O23 C2 1.265 . S
C24 C25 1.379 . S
C24 C28 1.373 . S
C24 C30 1.505 . S
C25 C24 1.379 . S
C25 C27 1.369 . S
C25 H36 0.930 . S
C26 C28 1.383 . S
C26 C29 1.382 . S
C26 H37 0.930 . S
C27 C25 1.369 . S
C27 C29 1.392 . S
C27 H38 0.930 . S
C28 C24 1.373 . S
C28 C26 1.383 . S
C28 H39 0.931 . S
C29 C26 1.382 . S
C29 C27 1.392 . S
C30 Eu1 2.828 . S
C30 O14 1.249 . S
C30 O15 1.244 . S
C30 C24 1.505 . S
C31 O18 1.258 . S
C31 O19 1.242 . S
H32 C4 0.930 . S
H33 C5 0.930 . S
H34 C6 0.930 . S
H35 C7 0.931 . S
H36 C25 0.930 . S
H37 C26 0.930 . S
H38 C27 0.930 . S
H39 C28 0.931 . S
Eu40 C49 2.828 . S
Eu40 O51 2.392 . S
Eu40 O53 2.418 . S
Eu40 O58 2.373 . S
Eu40 O61 2.488 . S
Eu40 O62 2.471 . S
Eu40 O63 2.349 . S
Eu41 O50 2.373 . S
Eu41 O54 2.488 . S
Eu41 O55 2.471 . S
Eu41 O56 2.349 . S
Eu41 O59 2.392 . S
Eu41 O60 2.418 . S
Eu41 C70 2.828 . S
C42 O60 1.244 . S
C42 O63 1.265 . S
C43 C44 1.379 . S
C43 C47 1.373 . S
C43 C49 1.505 . S
C44 C43 1.379 . S
C44 C46 1.369 . S
C44 H72 0.930 . S
C45 C47 1.383 . S
C45 C48 1.382 . S
C45 H73 0.930 . S
C46 C44 1.369 . S
C46 C48 1.392 . S
C46 H74 0.930 . S
C47 C43 1.373 . S
C47 C45 1.383 . S
C47 H75 0.931 . S
C48 C45 1.382 . S
C48 C46 1.392 . S
C49 Eu40 2.828 . S
C49 C43 1.505 . S
C49 O61 1.249 . S
C49 O62 1.244 . S
O50 Eu41 2.373 . S
O50 C52 1.258 . S
O51 Eu40 2.392 . S
O51 C52 1.242 . S
C52 O50 1.258 . S
C52 O51 1.242 . S
O53 Eu40 2.418 . S
O53 C57 1.244 . S
O54 Eu41 2.488 . S
O54 C70 1.249 . S
O55 Eu41 2.471 . S
O55 C70 1.244 . S
O56 Eu41 2.349 . S
O56 C57 1.265 . S
C57 O53 1.244 . S
C57 O56 1.265 . S
O58 Eu40 2.373 . S
O58 C71 1.258 . S
O59 Eu41 2.392 . S
O59 C71 1.242 . S
O60 Eu41 2.418 . S
O60 C42 1.244 . S
O61 Eu40 2.488 . S
O61 C49 1.249 . S
O62 Eu40 2.471 . S
O62 C49 1.244 . S
O63 Eu40 2.349 . S
O63 C42 1.265 . S
C64 C65 1.379 . S
C64 C68 1.373 . S
C64 C70 1.505 . S
C65 C64 1.379 . S
C65 C67 1.369 . S
C65 H76 0.930 . S
C66 C68 1.383 . S
C66 C69 1.382 . S
C66 H77 0.930 . S
C67 C65 1.369 . S
C67 C69 1.392 . S
C67 H78 0.930 . S
C68 C64 1.373 . S
C68 C66 1.383 . S
C68 H79 0.931 . S
C69 C66 1.382 . S
C69 C67 1.392 . S
C70 Eu41 2.828 . S
C70 O54 1.249 . S
C70 O55 1.244 . S
C70 C64 1.505 . S
C71 O58 1.258 . S
C71 O59 1.242 . S
H72 C44 0.930 . S
H73 C45 0.930 . S
H74 C46 0.930 . S
H75 C47 0.931 . S
H76 C65 0.930 . S
H77 C66 0.930 . S
H78 C67 0.930 . S
H79 C68 0.931 . S
Eu80 C89 2.828 . S
Eu80 O91 2.392 . S
Eu80 O93 2.418 . S
Eu80 O98 2.373 . S
Eu80 O101 2.488 . S
Eu80 O102 2.471 . S
Eu80 O103 2.349 . S
Eu81 O90 2.373 . S
Eu81 O94 2.488 . S
Eu81 O95 2.471 . S
Eu81 O96 2.349 . S
Eu81 O99 2.392 . S
Eu81 O100 2.418 . S
Eu81 C110 2.828 . S
C82 O100 1.244 . S
C82 O103 1.265 . S
C83 C84 1.379 . S
C83 C87 1.373 . S
C83 C89 1.505 . S
C84 C83 1.379 . S
C84 C86 1.369 . S
C84 H112 0.930 . S
C85 C87 1.383 . S
C85 C88 1.382 . S
C85 H113 0.930 . S
C86 C84 1.369 . S
C86 C88 1.392 . S
C86 H114 0.930 . S
C87 C83 1.373 . S
C87 C85 1.383 . S
C87 H115 0.931 . S
C88 C85 1.382 . S
C88 C86 1.392 . S
C89 Eu80 2.828 . S
C89 C83 1.505 . S
C89 O101 1.249 . S
C89 O102 1.244 . S
O90 Eu81 2.373 . S
O90 C92 1.258 . S
O91 Eu80 2.392 . S
O91 C92 1.242 . S
C92 O90 1.258 . S
C92 O91 1.242 . S
O93 Eu80 2.418 . S
O93 C97 1.244 . S
O94 Eu81 2.488 . S
O94 C110 1.249 . S
O95 Eu81 2.471 . S
O95 C110 1.244 . S
O96 Eu81 2.349 . S
O96 C97 1.265 . S
C97 O93 1.244 . S
C97 O96 1.265 . S
O98 Eu80 2.373 . S
O98 C111 1.258 . S
O99 Eu81 2.392 . S
O99 C111 1.242 . S
O100 Eu81 2.418 . S
O100 C82 1.244 . S
O101 Eu80 2.488 . S
O101 C89 1.249 . S
O102 Eu80 2.471 . S
O102 C89 1.244 . S
O103 Eu80 2.349 . S
O103 C82 1.265 . S
C104 C105 1.379 . S
C104 C108 1.373 . S
C104 C110 1.505 . S
C105 C104 1.379 . S
C105 C107 1.369 . S
C105 H116 0.930 . S
C106 C108 1.383 . S
C106 C109 1.382 . S
C106 H117 0.930 . S
C107 C105 1.369 . S
C107 C109 1.392 . S
C107 H118 0.930 . S
C108 C104 1.373 . S
C108 C106 1.383 . S
C108 H119 0.931 . S
C109 C106 1.382 . S
C109 C107 1.392 . S
C110 Eu81 2.828 . S
C110 O94 1.249 . S
C110 O95 1.244 . S
C110 C104 1.505 . S
C111 O98 1.258 . S
C111 O99 1.242 . S
H112 C84 0.930 . S
H113 C85 0.930 . S
H114 C86 0.930 . S
H115 C87 0.931 . S
H116 C105 0.930 . S
H117 C106 0.930 . S
H118 C107 0.930 . S
H119 C108 0.931 . S
Eu120 C129 2.828 . S
Eu120 O131 2.392 . S
Eu120 O133 2.418 . S
Eu120 O138 2.373 . S
Eu120 O141 2.488 . S
Eu120 O142 2.471 . S
Eu120 O143 2.349 . S
Eu121 O130 2.373 . S
Eu121 O134 2.488 . S
Eu121 O135 2.471 . S
Eu121 O136 2.349 . S
Eu121 O139 2.392 . S
Eu121 O140 2.418 . S
Eu121 C150 2.828 . S
C122 O140 1.244 . S
C122 O143 1.265 . S
C123 C124 1.379 . S
C123 C127 1.373 . S
C123 C129 1.505 . S
C124 C123 1.379 . S
C124 C126 1.369 . S
C124 H152 0.930 . S
C125 C127 1.383 . S
C125 C128 1.382 . S
C125 H153 0.930 . S
C126 C124 1.369 . S
C126 C128 1.392 . S
C126 H154 0.930 . S
C127 C123 1.373 . S
C127 C125 1.383 . S
C127 H155 0.931 . S
C128 C125 1.382 . S
C128 C126 1.392 . S
C129 Eu120 2.828 . S
C129 C123 1.505 . S
C129 O141 1.249 . S
C129 O142 1.244 . S
O130 Eu121 2.373 . S
O130 C132 1.258 . S
O131 Eu120 2.392 . S
O131 C132 1.242 . S
C132 O130 1.258 . S
C132 O131 1.242 . S
O133 Eu120 2.418 . S
O133 C137 1.244 . S
O134 Eu121 2.488 . S
O134 C150 1.249 . S
O135 Eu121 2.471 . S
O135 C150 1.244 . S
O136 Eu121 2.349 . S
O136 C137 1.265 . S
C137 O133 1.244 . S
C137 O136 1.265 . S
O138 Eu120 2.373 . S
O138 C151 1.258 . S
O139 Eu121 2.392 . S
O139 C151 1.242 . S
O140 Eu121 2.418 . S
O140 C122 1.244 . S
O141 Eu120 2.488 . S
O141 C129 1.249 . S
O142 Eu120 2.471 . S
O142 C129 1.244 . S
O143 Eu120 2.349 . S
O143 C122 1.265 . S
C144 C145 1.379 . S
C144 C148 1.373 . S
C144 C150 1.505 . S
C145 C144 1.379 . S
C145 C147 1.369 . S
C145 H156 0.930 . S
C146 C148 1.383 . S
C146 C149 1.382 . S
C146 H157 0.930 . S
C147 C145 1.369 . S
C147 C149 1.392 . S
C147 H158 0.930 . S
C148 C144 1.373 . S
C148 C146 1.383 . S
C148 H159 0.931 . S
C149 C146 1.382 . S
C149 C147 1.392 . S
C150 Eu121 2.828 . S
C150 O134 1.249 . S
C150 O135 1.244 . S
C150 C144 1.505 . S
C151 O138 1.258 . S
C151 O139 1.242 . S
H152 C124 0.930 . S
H153 C125 0.930 . S
H154 C126 0.930 . S
H155 C127 0.931 . S
H156 C145 0.930 . S
H157 C146 0.930 . S
H158 C147 0.930 . S
H159 C148 0.931 . S
Eu160 C169 2.828 . S
Eu160 O171 2.392 . S
Eu160 O173 2.418 . S
Eu160 O178 2.373 . S
Eu160 O181 2.488 . S
Eu160 O182 2.471 . S
Eu160 O183 2.349 . S
Eu161 O170 2.373 . S
Eu161 O174 2.488 . S
Eu161 O175 2.471 . S
Eu161 O176 2.349 . S
Eu161 O179 2.392 . S
Eu161 O180 2.418 . S
Eu161 C190 2.828 . S
C162 O180 1.244 . S
C162 O183 1.265 . S
C163 C164 1.379 . S
C163 C167 1.373 . S
C163 C169 1.505 . S
C164 C163 1.379 . S
C164 C166 1.369 . S
C164 H192 0.930 . S
C165 C167 1.383 . S
C165 C168 1.382 . S
C165 H193 0.930 . S
C166 C164 1.369 . S
C166 C168 1.392 . S
C166 H194 0.930 . S
C167 C163 1.373 . S
C167 C165 1.383 . S
C167 H195 0.931 . S
C168 C165 1.382 . S
C168 C166 1.392 . S
C169 Eu160 2.828 . S
C169 C163 1.505 . S
C169 O181 1.249 . S
C169 O182 1.244 . S
O170 Eu161 2.373 . S
O170 C172 1.258 . S
O171 Eu160 2.392 . S
O171 C172 1.242 . S
C172 O170 1.258 . S
C172 O171 1.242 . S
O173 Eu160 2.418 . S
O173 C177 1.244 . S
O174 Eu161 2.488 . S
O174 C190 1.249 . S
O175 Eu161 2.471 . S
O175 C190 1.244 . S
O176 Eu161 2.349 . S
O176 C177 1.265 . S
C177 O173 1.244 . S
C177 O176 1.265 . S
O178 Eu160 2.373 . S
O178 C191 1.258 . S
O179 Eu161 2.392 . S
O179 C191 1.242 . S
O180 Eu161 2.418 . S
O180 C162 1.244 . S
O181 Eu160 2.488 . S
O181 C169 1.249 . S
O182 Eu160 2.471 . S
O182 C169 1.244 . S
O183 Eu160 2.349 . S
O183 C162 1.265 . S
C184 C185 1.379 . S
C184 C188 1.373 . S
C184 C190 1.505 . S
C185 C184 1.379 . S
C185 C187 1.369 . S
C185 H196 0.930 . S
C186 C188 1.383 . S
C186 C189 1.382 . S
C186 H197 0.930 . S
C187 C185 1.369 . S
C187 C189 1.392 . S
C187 H198 0.930 . S
C188 C184 1.373 . S
C188 C186 1.383 . S
C188 H199 0.931 . S
C189 C186 1.382 . S
C189 C187 1.392 . S
C190 Eu161 2.828 . S
C190 O174 1.249 . S
C190 O175 1.244 . S
C190 C184 1.505 . S
C191 O178 1.258 . S
C191 O179 1.242 . S
H192 C164 0.930 . S
H193 C165 0.930 . S
H194 C166 0.930 . S
H195 C167 0.931 . S
H196 C185 0.930 . S
H197 C186 0.930 . S
H198 C187 0.930 . S
H199 C188 0.931 . S
Eu200 C209 2.828 . S
Eu200 O211 2.392 . S
Eu200 O213 2.418 . S
Eu200 O218 2.373 . S
Eu200 O221 2.488 . S
Eu200 O222 2.471 . S
Eu200 O223 2.349 . S
Eu201 O210 2.373 . S
Eu201 O214 2.488 . S
Eu201 O215 2.471 . S
Eu201 O216 2.349 . S
Eu201 O219 2.392 . S
Eu201 O220 2.418 . S
Eu201 C230 2.828 . S
C202 O220 1.244 . S
C202 O223 1.265 . S
C203 C204 1.379 . S
C203 C207 1.373 . S
C203 C209 1.505 . S
C204 C203 1.379 . S
C204 C206 1.369 . S
C204 H232 0.930 . S
C205 C207 1.383 . S
C205 C208 1.382 . S
C205 H233 0.930 . S
C206 C204 1.369 . S
C206 C208 1.392 . S
C206 H234 0.930 . S
C207 C203 1.373 . S
C207 C205 1.383 . S
C207 H235 0.931 . S
C208 C205 1.382 . S
C208 C206 1.392 . S
C209 Eu200 2.828 . S
C209 C203 1.505 . S
C209 O221 1.249 . S
C209 O222 1.244 . S
O210 Eu201 2.373 . S
O210 C212 1.258 . S
O211 Eu200 2.392 . S
O211 C212 1.242 . S
C212 O210 1.258 . S
C212 O211 1.242 . S
O213 Eu200 2.418 . S
O213 C217 1.244 . S
O214 Eu201 2.488 . S
O214 C230 1.249 . S
O215 Eu201 2.471 . S
O215 C230 1.244 . S
O216 Eu201 2.349 . S
O216 C217 1.265 . S
C217 O213 1.244 . S
C217 O216 1.265 . S
O218 Eu200 2.373 . S
O218 C231 1.258 . S
O219 Eu201 2.392 . S
O219 C231 1.242 . S
O220 Eu201 2.418 . S
O220 C202 1.244 . S
O221 Eu200 2.488 . S
O221 C209 1.249 . S
O222 Eu200 2.471 . S
O222 C209 1.244 . S
O223 Eu200 2.349 . S
O223 C202 1.265 . S
C224 C225 1.379 . S
C224 C228 1.373 . S
C224 C230 1.505 . S
C225 C224 1.379 . S
C225 C227 1.369 . S
C225 H236 0.930 . S
C226 C228 1.383 . S
C226 C229 1.382 . S
C226 H237 0.930 . S
C227 C225 1.369 . S
C227 C229 1.392 . S
C227 H238 0.930 . S
C228 C224 1.373 . S
C228 C226 1.383 . S
C228 H239 0.931 . S
C229 C226 1.382 . S
C229 C227 1.392 . S
C230 Eu201 2.828 . S
C230 O214 1.249 . S
C230 O215 1.244 . S
C230 C224 1.505 . S
C231 O218 1.258 . S
C231 O219 1.242 . S
H232 C204 0.930 . S
H233 C205 0.930 . S
H234 C206 0.930 . S
H235 C207 0.931 . S
H236 C225 0.930 . S
H237 C226 0.930 . S
H238 C227 0.930 . S
H239 C228 0.931 . S
Eu240 C249 2.828 . S
Eu240 O251 2.392 . S
Eu240 O253 2.418 . S
Eu240 O258 2.373 . S
Eu240 O261 2.488 . S
Eu240 O262 2.471 . S
Eu240 O263 2.349 . S
Eu241 O250 2.373 . S
Eu241 O254 2.488 . S
Eu241 O255 2.471 . S
Eu241 O256 2.349 . S
Eu241 O259 2.392 . S
Eu241 O260 2.418 . S
Eu241 C270 2.828 . S
C242 O260 1.244 . S
C242 O263 1.265 . S
C243 C244 1.379 . S
C243 C247 1.373 . S
C243 C249 1.505 . S
C244 C243 1.379 . S
C244 C246 1.369 . S
C244 H272 0.930 . S
C245 C247 1.383 . S
C245 C248 1.382 . S
C245 H273 0.930 . S
C246 C244 1.369 . S
C246 C248 1.392 . S
C246 H274 0.930 . S
C247 C243 1.373 . S
C247 C245 1.383 . S
C247 H275 0.931 . S
C248 C245 1.382 . S
C248 C246 1.392 . S
C249 Eu240 2.828 . S
C249 C243 1.505 . S
C249 O261 1.249 . S
C249 O262 1.244 . S
O250 Eu241 2.373 . S
O250 C252 1.258 . S
O251 Eu240 2.392 . S
O251 C252 1.242 . S
C252 O250 1.258 . S
C252 O251 1.242 . S
O253 Eu240 2.418 . S
O253 C257 1.244 . S
O254 Eu241 2.488 . S
O254 C270 1.249 . S
O255 Eu241 2.471 . S
O255 C270 1.244 . S
O256 Eu241 2.349 . S
O256 C257 1.265 . S
C257 O253 1.244 . S
C257 O256 1.265 . S
O258 Eu240 2.373 . S
O258 C271 1.258 . S
O259 Eu241 2.392 . S
O259 C271 1.242 . S
O260 Eu241 2.418 . S
O260 C242 1.244 . S
O261 Eu240 2.488 . S
O261 C249 1.249 . S
O262 Eu240 2.471 . S
O262 C249 1.244 . S
O263 Eu240 2.349 . S
O263 C242 1.265 . S
C264 C265 1.379 . S
C264 C268 1.373 . S
C264 C270 1.505 . S
C265 C264 1.379 . S
C265 C267 1.369 . S
C265 H276 0.930 . S
C266 C268 1.383 . S
C266 C269 1.382 . S
C266 H277 0.930 . S
C267 C265 1.369 . S
C267 C269 1.392 . S
C267 H278 0.930 . S
C268 C264 1.373 . S
C268 C266 1.383 . S
C268 H279 0.931 . S
C269 C266 1.382 . S
C269 C267 1.392 . S
C270 Eu241 2.828 . S
C270 O254 1.249 . S
C270 O255 1.244 . S
C270 C264 1.505 . S
C271 O258 1.258 . S
C271 O259 1.242 . S
H272 C244 0.930 . S
H273 C245 0.930 . S
H274 C246 0.930 . S
H275 C247 0.931 . S
H276 C265 0.930 . S
H277 C266 0.930 . S
H278 C267 0.930 . S
H279 C268 0.931 . S
Eu280 C289 2.828 . S
Eu280 O291 2.392 . S
Eu280 O293 2.418 . S
Eu280 O298 2.373 . S
Eu280 O301 2.488 . S
Eu280 O302 2.471 . S
Eu280 O303 2.349 . S
Eu281 O290 2.373 . S
Eu281 O294 2.488 . S
Eu281 O295 2.471 . S
Eu281 O296 2.349 . S
Eu281 O299 2.392 . S
Eu281 O300 2.418 . S
Eu281 C310 2.828 . S
C282 O300 1.244 . S
C282 O303 1.265 . S
C283 C284 1.379 . S
C283 C287 1.373 . S
C283 C289 1.505 . S
C284 C283 1.379 . S
C284 C286 1.369 . S
C284 H312 0.930 . S
C285 C287 1.383 . S
C285 C288 1.382 . S
C285 H313 0.930 . S
C286 C284 1.369 . S
C286 C288 1.392 . S
C286 H314 0.930 . S
C287 C283 1.373 . S
C287 C285 1.383 . S
C287 H315 0.931 . S
C288 C285 1.382 . S
C288 C286 1.392 . S
C289 Eu280 2.828 . S
C289 C283 1.505 . S
C289 O301 1.249 . S
C289 O302 1.244 . S
O290 Eu281 2.373 . S
O290 C292 1.258 . S
O291 Eu280 2.392 . S
O291 C292 1.242 . S
C292 O290 1.258 . S
C292 O291 1.242 . S
O293 Eu280 2.418 . S
O293 C297 1.244 . S
O294 Eu281 2.488 . S
O294 C310 1.249 . S
O295 Eu281 2.471 . S
O295 C310 1.244 . S
O296 Eu281 2.349 . S
O296 C297 1.265 . S
C297 O293 1.244 . S
C297 O296 1.265 . S
O298 Eu280 2.373 . S
O298 C311 1.258 . S
O299 Eu281 2.392 . S
O299 C311 1.242 . S
O300 Eu281 2.418 . S
O300 C282 1.244 . S
O301 Eu280 2.488 . S
O301 C289 1.249 . S
O302 Eu280 2.471 . S
O302 C289 1.244 . S
O303 Eu280 2.349 . S
O303 C282 1.265 . S
C304 C305 1.379 . S
C304 C308 1.373 . S
C304 C310 1.505 . S
C305 C304 1.379 . S
C305 C307 1.369 . S
C305 H316 0.930 . S
C306 C308 1.383 . S
C306 C309 1.382 . S
C306 H317 0.930 . S
C307 C305 1.369 . S
C307 C309 1.392 . S
C307 H318 0.930 . S
C308 C304 1.373 . S
C308 C306 1.383 . S
C308 H319 0.931 . S
C309 C306 1.382 . S
C309 C307 1.392 . S
C310 Eu281 2.828 . S
C310 O294 1.249 . S
C310 O295 1.244 . S
C310 C304 1.505 . S
C311 O298 1.258 . S
C311 O299 1.242 . S
H312 C284 0.930 . S
H313 C285 0.930 . S
H314 C286 0.930 . S
H315 C287 0.931 . S
H316 C305 0.930 . S
H317 C306 0.930 . S
H318 C307 0.930 . S
H319 C308 0.931 . S
C320 O332 1.241 . S
C320 O333 1.280 . S
C321 O334 1.277 . S
C321 O335 1.245 . S
C322 O346 1.247 . S
C322 O348 1.289 . S
Mg323 O324 1.926 . S
Mg323 O333 1.984 . S
Mg323 O335 1.988 . S
Mg323 O336 2.061 1_655 S
O324 Mg323 1.926 . S
O324 Mg325 1.986 1_545 S
O324 Mg326 1.900 1_655 S
Mg325 O324 1.986 1_565 S
Mg325 O332 2.042 1_565 S
Mg325 O334 2.041 1_565 S
Mg325 O340 2.038 . S
Mg325 O348 2.238 . S
Mg326 O324 1.900 1_455 S
Mg326 O327 1.934 1_545 S
Mg326 O337 2.125 . S
Mg326 O339 2.073 1_445 S
Mg326 O348 2.088 1_445 S
Mg326 O349 2.085 . S
O327 Mg326 1.934 1_565 S
O327 Mg328 1.926 . S
O327 Mg329 1.986 1_565 S
Mg328 O327 1.926 . S
Mg328 O342 1.984 . S
Mg328 O345 1.988 . S
Mg328 O346 2.061 1_455 S
Mg329 O327 1.986 1_545 S
Mg329 O337 2.238 . S
Mg329 O341 2.042 1_545 S
Mg329 O343 2.041 1_545 S
Mg329 O350 2.038 . S
C330 O336 1.247 . S
C330 O337 1.289 . S
C331 O349 1.245 . S
C331 O350 1.274 . S
O332 C320 1.241 . S
O332 Mg325 2.042 1_545 S
O333 C320 1.280 . S
O333 Mg323 1.984 . S
O334 C321 1.277 . S
O334 Mg325 2.041 1_545 S
O335 C321 1.245 . S
O335 Mg323 1.988 . S
O336 Mg323 2.061 1_455 S
O336 C330 1.247 . S
O337 Mg326 2.125 . S
O337 Mg329 2.238 . S
O337 C330 1.289 . S
C338 O339 1.245 . S
C338 O340 1.274 . S
O339 Mg326 2.073 1_665 S
O339 C338 1.245 . S
O340 Mg325 2.038 . S
O340 C338 1.274 . S
O341 Mg329 2.042 1_565 S
O341 C344 1.241 . S
O342 Mg328 1.984 . S
O342 C344 1.280 . S
O343 Mg329 2.041 1_565 S
O343 C347 1.277 . S
C344 O341 1.241 . S
C344 O342 1.280 . S
O345 Mg328 1.988 . S
O345 C347 1.245 . S
O346 C322 1.247 . S
O346 Mg328 2.061 1_655 S
C347 O343 1.277 . S
C347 O345 1.245 . S
O348 C322 1.289 . S
O348 Mg325 2.238 . S
O348 Mg326 2.088 1_665 S
O349 Mg326 2.085 . S
O349 C331 1.245 . S
O350 Mg329 2.038 . S
O350 C331 1.274 . S
C351 O363 1.241 . S
C351 O364 1.280 . S
C352 O365 1.277 . S
C352 O366 1.245 . S
C353 O377 1.247 . S
C353 O379 1.289 . S
Mg354 O355 1.926 . S
Mg354 O364 1.984 . S
Mg354 O366 1.988 1_554 S
Mg354 O367 2.061 . S
O355 Mg354 1.926 . S
O355 Mg356 1.986 1_545 S
O355 Mg357 1.922 . S
Mg356 O355 1.986 1_565 S
Mg356 O363 2.042 1_565 S
Mg356 O365 2.041 1_564 S
Mg356 O371 2.038 . S
Mg356 O379 2.238 1_554 S
Mg357 O355 1.922 . S
Mg357 O358 1.911 1_544 S
Mg357 O368 2.111 . S
Mg357 O370 2.083 1_545 S
Mg357 O379 2.102 1_544 S
Mg357 O380 2.074 1_554 S
O358 Mg357 1.911 1_566 S
O358 Mg359 1.926 . S
O358 Mg360 1.986 1_565 S
Mg359 O358 1.926 . S
Mg359 O373 1.984 . S
Mg359 O376 1.988 1_556 S
Mg359 O377 2.061 . S
Mg360 O358 1.986 1_545 S
Mg360 O368 2.238 1_556 S
Mg360 O372 2.042 1_545 S
Mg360 O374 2.041 1_546 S
Mg360 O381 2.038 . S
C361 O367 1.247 . S
C361 O368 1.289 . S
C362 O380 1.245 . S
C362 O381 1.274 . S
O363 C351 1.241 . S
O363 Mg356 2.042 1_545 S
O364 C351 1.280 . S
O364 Mg354 1.984 . S
O365 C352 1.277 . S
O365 Mg356 2.041 1_546 S
O366 C352 1.245 . S
O366 Mg354 1.988 1_556 S
O367 Mg354 2.061 . S
O367 C361 1.247 . S
O368 Mg357 2.111 . S
O368 Mg360 2.238 1_554 S
O368 C361 1.289 . S
C369 O370 1.245 . S
C369 O371 1.274 . S
O370 Mg357 2.083 1_565 S
O370 C369 1.245 . S
O371 Mg356 2.038 . S
O371 C369 1.274 . S
O372 Mg360 2.042 1_565 S
O372 C375 1.241 . S
O373 Mg359 1.984 . S
O373 C375 1.280 . S
O374 Mg360 2.041 1_564 S
O374 C378 1.277 . S
C375 O372 1.241 . S
C375 O373 1.280 . S
O376 Mg359 1.988 1_554 S
O376 C378 1.245 . S
O377 C353 1.247 . S
O377 Mg359 2.061 . S
C378 O374 1.277 . S
C378 O376 1.245 . S
O379 C353 1.289 . S
O379 Mg356 2.238 1_556 S
O379 Mg357 2.102 1_566 S
O380 Mg357 2.074 1_556 S
O380 C362 1.245 . S
O381 Mg360 2.038 . S
O381 C362 1.274 . S
C382 O394 1.241 . S
C382 O395 1.280 . S
C383 O396 1.277 . S
C383 O397 1.245 . S
C384 O408 1.247 . S
C384 O410 1.289 . S
Mg385 O386 1.926 . S
Mg385 O395 1.984 . S
Mg385 O397 1.988 1_554 S
Mg385 O398 2.061 1_655 S
O386 Mg385 1.926 . S
O386 Mg387 1.986 . S
O386 Mg388 1.898 1_655 S
Mg387 O386 1.986 . S
Mg387 O394 2.042 . S
Mg387 O396 2.041 1_554 S
Mg387 O402 2.038 . S
Mg387 O410 2.238 1_554 S
Mg388 O386 1.898 1_455 S
Mg388 O389 1.936 1_554 S
Mg388 O399 2.129 . S
Mg388 O401 2.082 1_455 S
Mg388 O410 2.084 1_454 S
Mg388 O411 2.075 1_554 S
O389 Mg388 1.936 1_556 S
O389 Mg390 1.926 . S
O389 Mg391 1.986 . S
Mg390 O389 1.926 . S
Mg390 O404 1.984 . S
Mg390 O407 1.988 1_556 S
Mg390 O408 2.061 1_455 S
Mg391 O389 1.986 . S
Mg391 O399 2.238 1_556 S
Mg391 O403 2.042 . S
Mg391 O405 2.041 1_556 S
Mg391 O412 2.038 . S
C392 O398 1.247 . S
C392 O399 1.289 . S
C393 O411 1.245 . S
C393 O412 1.274 . S
O394 C382 1.241 . S
O394 Mg387 2.042 . S
O395 C382 1.280 . S
O395 Mg385 1.984 . S
O396 C383 1.277 . S
O396 Mg387 2.041 1_556 S
O397 C383 1.245 . S
O397 Mg385 1.988 1_556 S
O398 Mg385 2.061 1_455 S
O398 C392 1.247 . S
O399 Mg388 2.129 . S
O399 Mg391 2.238 1_554 S
O399 C392 1.289 . S
C400 O401 1.245 . S
C400 O402 1.274 . S
O401 Mg388 2.082 1_655 S
O401 C400 1.245 . S
O402 Mg387 2.038 . S
O402 C400 1.274 . S
O403 Mg391 2.042 . S
O403 C406 1.241 . S
O404 Mg390 1.984 . S
O404 C406 1.280 . S
O405 Mg391 2.041 1_554 S
O405 C409 1.277 . S
C406 O403 1.241 . S
C406 O404 1.280 . S
O407 Mg390 1.988 1_554 S
O407 C409 1.245 . S
O408 C384 1.247 . S
O408 Mg390 2.061 1_655 S
C409 O405 1.277 . S
C409 O407 1.245 . S
O410 C384 1.289 . S
O410 Mg387 2.238 1_556 S
O410 Mg388 2.084 1_656 S
O411 Mg388 2.075 1_556 S
O411 C393 1.245 . S
O412 Mg391 2.038 . S
O412 C393 1.274 . S
C413 O425 1.241 . S
C413 O426 1.280 . S
C414 O427 1.277 . S
C414 O428 1.245 . S
C415 O439 1.247 . S
C415 O441 1.289 . S
Mg416 O417 1.926 . S
Mg416 O426 1.984 . S
Mg416 O428 1.988 1_554 S
Mg416 O429 2.061 . S
O417 Mg416 1.926 . S
O417 Mg418 1.986 . S
O417 Mg419 1.919 . S
Mg418 O417 1.986 . S
Mg418 O425 2.042 . S
Mg418 O427 2.041 1_554 S
Mg418 O433 2.038 . S
Mg418 O441 2.238 1_554 S
Mg419 O417 1.919 . S
Mg419 O420 1.915 1_554 S
Mg419 O430 2.111 . S
Mg419 O432 2.086 . S
Mg419 O441 2.102 1_554 S
Mg419 O442 2.072 1_554 S
O420 Mg419 1.915 1_556 S
O420 Mg421 1.926 . S
O420 Mg422 1.986 . S
Mg421 O420 1.926 . S
Mg421 O435 1.984 . S
Mg421 O438 1.988 1_556 S
Mg421 O439 2.061 . S
Mg422 O420 1.986 . S
Mg422 O430 2.238 1_556 S
Mg422 O434 2.042 . S
Mg422 O436 2.041 1_556 S
Mg422 O443 2.038 . S
C423 O429 1.247 . S
C423 O430 1.289 . S
C424 O442 1.245 . S
C424 O443 1.274 . S
O425 C413 1.241 . S
O425 Mg418 2.042 . S
O426 C413 1.280 . S
O426 Mg416 1.984 . S
O427 C414 1.277 . S
O427 Mg418 2.041 1_556 S
O428 C414 1.245 . S
O428 Mg416 1.988 1_556 S
O429 Mg416 2.061 . S
O429 C423 1.247 . S
O430 Mg419 2.111 . S
O430 Mg422 2.238 1_554 S
O430 C423 1.289 . S
C431 O432 1.245 . S
C431 O433 1.274 . S
O432 Mg419 2.086 . S
O432 C431 1.245 . S
O433 Mg418 2.038 . S
O433 C431 1.274 . S
O434 Mg422 2.042 . S
O434 C437 1.241 . S
O435 Mg421 1.984 . S
O435 C437 1.280 . S
O436 Mg422 2.041 1_554 S
O436 C440 1.277 . S
C437 O434 1.241 . S
C437 O435 1.280 . S
O438 Mg421 1.988 1_554 S
O438 C440 1.245 . S
O439 C415 1.247 . S
O439 Mg421 2.061 . S
C440 O436 1.277 . S
C440 O438 1.245 . S
O441 C415 1.289 . S
O441 Mg418 2.238 1_556 S
O441 Mg419 2.102 1_556 S
O442 Mg419 2.072 1_556 S
O442 C424 1.245 . S
O443 Mg422 2.038 . S
O443 C424 1.274 . S
C444 O456 1.241 . S
C444 O457 1.280 . S
C445 O458 1.277 . S
C445 O459 1.245 . S
C446 O470 1.247 . S
C446 O472 1.289 . S
Mg447 O448 1.926 . S
Mg447 O457 1.984 . S
Mg447 O459 1.988 . S
Mg447 O460 2.061 1_655 S
O448 Mg447 1.926 . S
O448 Mg449 1.986 . S
O448 Mg450 1.896 1_655 S
Mg449 O448 1.986 . S
Mg449 O456 2.042 . S
Mg449 O458 2.041 . S
Mg449 O464 2.038 . S
Mg449 O472 2.238 . S
Mg450 O448 1.896 1_455 S
Mg450 O451 1.938 . S
Mg450 O461 2.124 . S
Mg450 O463 2.075 1_455 S
Mg450 O472 2.089 1_455 S
Mg450 O473 2.082 . S
O451 Mg450 1.938 . S
O451 Mg452 1.926 . S
O451 Mg453 1.986 . S
Mg452 O451 1.926 . S
Mg452 O466 1.984 . S
Mg452 O469 1.988 . S
Mg452 O470 2.061 1_455 S
Mg453 O451 1.986 . S
Mg453 O461 2.238 . S
Mg453 O465 2.042 . S
Mg453 O467 2.041 . S
Mg453 O474 2.038 . S
C454 O460 1.247 . S
C454 O461 1.289 . S
C455 O473 1.245 . S
C455 O474 1.274 . S
O456 C444 1.241 . S
O456 Mg449 2.042 . S
O457 C444 1.280 . S
O457 Mg447 1.984 . S
O458 C445 1.277 . S
O458 Mg449 2.041 . S
O459 C445 1.245 . S
O459 Mg447 1.988 . S
O460 Mg447 2.061 1_455 S
O460 C454 1.247 . S
O461 Mg450 2.124 . S
O461 Mg453 2.238 . S
O461 C454 1.289 . S
C462 O463 1.245 . S
C462 O464 1.274 . S
O463 Mg450 2.075 1_655 S
O463 C462 1.245 . S
O464 Mg449 2.038 . S
O464 C462 1.274 . S
O465 Mg453 2.042 . S
O465 C468 1.241 . S
O466 Mg452 1.984 . S
O466 C468 1.280 . S
O467 Mg453 2.041 . S
O467 C471 1.277 . S
C468 O465 1.241 . S
C468 O466 1.280 . S
O469 Mg452 1.988 . S
O469 C471 1.245 . S
O470 C446 1.247 . S
O470 Mg452 2.061 1_655 S
C471 O467 1.277 . S
C471 O469 1.245 . S
O472 C446 1.289 . S
O472 Mg449 2.238 . S
O472 Mg450 2.089 1_655 S
O473 Mg450 2.082 . S
O473 C455 1.245 . S
O474 Mg453 2.038 . S
O474 C455 1.274 . S
C475 O487 1.241 . S
C475 O488 1.280 . S
C476 O489 1.277 . S
C476 O490 1.245 . S
C477 O501 1.247 . S
C477 O503 1.289 . S
Mg478 O479 1.926 . S
Mg478 O488 1.984 . S
Mg478 O490 1.988 . S
Mg478 O491 2.061 . S
O479 Mg478 1.926 . S
O479 Mg480 1.986 1_545 S
O479 Mg481 1.921 . S
Mg480 O479 1.986 1_565 S
Mg480 O487 2.042 1_565 S
Mg480 O489 2.041 1_565 S
Mg480 O495 2.038 . S
Mg480 O503 2.238 . S
Mg481 O479 1.921 . S
Mg481 O482 1.913 1_545 S
Mg481 O492 2.107 . S
Mg481 O494 2.076 1_545 S
Mg481 O503 2.106 1_545 S
Mg481 O504 2.081 . S
O482 Mg481 1.913 1_565 S
O482 Mg483 1.926 . S
O482 Mg484 1.986 1_565 S
Mg483 O482 1.926 . S
Mg483 O497 1.984 . S
Mg483 O500 1.988 . S
Mg483 O501 2.061 . S
Mg484 O482 1.986 1_545 S
Mg484 O492 2.238 . S
Mg484 O496 2.042 1_545 S
Mg484 O498 2.041 1_545 S
Mg484 O505 2.038 . S
C485 O491 1.247 . S
C485 O492 1.289 . S
C486 O504 1.245 . S
C486 O505 1.274 . S
O487 C475 1.241 . S
O487 Mg480 2.042 1_545 S
O488 C475 1.280 . S
O488 Mg478 1.984 . S
O489 C476 1.277 . S
O489 Mg480 2.041 1_545 S
O490 C476 1.245 . S
O490 Mg478 1.988 . S
O491 Mg478 2.061 . S
O491 C485 1.247 . S
O492 Mg481 2.107 . S
O492 Mg484 2.238 . S
O492 C485 1.289 . S
C493 O494 1.245 . S
C493 O495 1.274 . S
O494 Mg481 2.076 1_565 S
O494 C493 1.245 . S
O495 Mg480 2.038 . S
O495 C493 1.274 . S
O496 Mg484 2.042 1_565 S
O496 C499 1.241 . S
O497 Mg483 1.984 . S
O497 C499 1.280 . S
O498 Mg484 2.041 1_565 S
O498 C502 1.277 . S
C499 O496 1.241 . S
C499 O497 1.280 . S
O500 Mg483 1.988 . S
O500 C502 1.245 . S
O501 C477 1.247 . S
O501 Mg483 2.061 . S
C502 O498 1.277 . S
C502 O500 1.245 . S
O503 C477 1.289 . S
O503 Mg480 2.238 . S
O503 Mg481 2.106 1_565 S
O504 Mg481 2.081 . S
O504 C486 1.245 . S
O505 Mg484 2.038 . S
O505 C486 1.274 . S
C506 C507 1.391 . S
C506 C508 1.394 . S
C506 H522 0.931 . S
C507 C506 1.391 . S
C507 C511 1.376 . S
C508 C506 1.394 . S
C508 C509 1.369 . S
C508 C512 1.531 . S
C509 C508 1.369 . S
C509 C510 1.410 . S
C509 C517 1.503 . S
C510 C509 1.410 . S
C510 C511 1.392 . S
C510 C513 1.511 . S
C511 C507 1.376 . S
C511 C510 1.392 . S
C511 H523 0.929 . S
C512 C508 1.531 . S
C512 H524 0.960 . S
C512 H525 0.962 . S
C512 H526 0.960 . S
C513 C510 1.511 . S
C513 H527 0.961 . S
C513 H528 0.961 . S
C513 H529 0.961 . S
C514 C515 1.370 . S
C514 C516 1.363 . S
C514 H530 0.931 . S
C515 C514 1.370 . S
C515 C519 1.408 . S
C516 C514 1.363 . S
C516 C517 1.370 . S
C516 C520 1.524 . S
C517 C509 1.503 . S
C517 C516 1.370 . S
C517 C518 1.403 . S
C518 C517 1.403 . S
C518 C519 1.404 . S
C518 C521 1.539 . S
C519 C515 1.408 . S
C519 C518 1.404 . S
C519 H531 0.930 . S
C520 C516 1.524 . S
C520 H532 0.956 . S
C520 H533 0.961 . S
C520 H534 0.961 . S
C521 C518 1.539 . S
C521 H535 0.958 . S
C521 H536 0.961 . S
C521 H537 0.960 . S
H522 C506 0.931 . S
H523 C511 0.929 . S
H524 C512 0.960 . S
H525 C512 0.962 . S
H526 C512 0.960 . S
H527 C513 0.961 . S
H528 C513 0.961 . S
H529 C513 0.961 . S
H530 C514 0.931 . S
H531 C519 0.930 . S
H532 C520 0.956 . S
H533 C520 0.961 . S
H534 C520 0.961 . S
H535 C521 0.958 . S
H536 C521 0.961 . S
H537 C521 0.960 . S
C538 C539 1.391 . S
C538 C540 1.394 . S
C538 H554 0.931 . S
C539 C538 1.391 . S
C539 C543 1.376 . S
C540 C538 1.394 . S
C540 C541 1.369 . S
C540 C544 1.531 . S
C541 C540 1.369 . S
C541 C542 1.410 . S
C541 C549 1.503 . S
C542 C541 1.410 . S
C542 C543 1.392 . S
C542 C545 1.511 . S
C543 C539 1.376 . S
C543 C542 1.392 . S
C543 H555 0.929 . S
C544 C540 1.531 . S
C544 H556 0.960 . S
C544 H557 0.962 . S
C544 H558 0.960 . S
C545 C542 1.511 . S
C545 H559 0.961 . S
C545 H560 0.961 . S
C545 H561 0.961 . S
C546 C547 1.370 . S
C546 C548 1.363 . S
C546 H562 0.931 . S
C547 C546 1.370 . S
C547 C551 1.408 . S
C548 C546 1.363 . S
C548 C549 1.370 . S
C548 C552 1.524 . S
C549 C541 1.503 . S
C549 C548 1.370 . S
C549 C550 1.403 . S
C550 C549 1.403 . S
C550 C551 1.404 . S
C550 C553 1.539 . S
C551 C547 1.408 . S
C551 C550 1.404 . S
C551 H563 0.930 . S
C552 C548 1.524 . S
C552 H564 0.956 . S
C552 H565 0.961 . S
C552 H566 0.961 . S
C553 C550 1.539 . S
C553 H567 0.958 . S
C553 H568 0.961 . S
C553 H569 0.960 . S
H554 C538 0.931 . S
H555 C543 0.929 . S
H556 C544 0.960 . S
H557 C544 0.962 . S
H558 C544 0.960 . S
H559 C545 0.961 . S
H560 C545 0.961 . S
H561 C545 0.961 . S
H562 C546 0.931 . S
H563 C551 0.930 . S
H564 C552 0.956 . S
H565 C552 0.961 . S
H566 C552 0.961 . S
H567 C553 0.958 . S
H568 C553 0.961 . S
H569 C553 0.960 . S
C570 C571 1.391 . S
C570 C572 1.394 . S
C570 H586 0.931 . S
C571 C570 1.391 . S
C571 C575 1.376 . S
C572 C570 1.394 . S
C572 C573 1.369 . S
C572 C576 1.531 . S
C573 C572 1.369 . S
C573 C574 1.410 . S
C573 C581 1.503 . S
C574 C573 1.410 . S
C574 C575 1.392 . S
C574 C577 1.511 . S
C575 C571 1.376 . S
C575 C574 1.392 . S
C575 H587 0.929 . S
C576 C572 1.531 . S
C576 H588 0.960 . S
C576 H589 0.962 . S
C576 H590 0.960 . S
C577 C574 1.511 . S
C577 H591 0.961 . S
C577 H592 0.961 . S
C577 H593 0.961 . S
C578 C579 1.370 . S
C578 C580 1.363 . S
C578 H594 0.931 . S
C579 C578 1.370 . S
C579 C583 1.408 . S
C580 C578 1.363 . S
C580 C581 1.370 . S
C580 C584 1.524 . S
C581 C573 1.503 . S
C581 C580 1.370 . S
C581 C582 1.403 . S
C582 C581 1.403 . S
C582 C583 1.404 . S
C582 C585 1.539 . S
C583 C579 1.408 . S
C583 C582 1.404 . S
C583 H595 0.930 . S
C584 C580 1.524 . S
C584 H596 0.956 . S
C584 H597 0.961 . S
C584 H598 0.961 . S
C585 C582 1.539 . S
C585 H599 0.958 . S
C585 H600 0.961 . S
C585 H601 0.960 . S
H586 C570 0.931 . S
H587 C575 0.929 . S
H588 C576 0.960 . S
H589 C576 0.962 . S
H590 C576 0.960 . S
H591 C577 0.961 . S
H592 C577 0.961 . S
H593 C577 0.961 . S
H594 C578 0.931 . S
H595 C583 0.930 . S
H596 C584 0.956 . S
H597 C584 0.961 . S
H598 C584 0.961 . S
H599 C585 0.958 . S
H600 C585 0.961 . S
H601 C585 0.960 . S
C602 C603 1.391 . S
C602 C604 1.394 . S
C602 H618 0.931 . S
C603 C602 1.391 . S
C603 C607 1.376 . S
C604 C602 1.394 . S
C604 C605 1.369 . S
C604 C608 1.531 . S
C605 C604 1.369 . S
C605 C606 1.410 . S
C605 C613 1.503 . S
C606 C605 1.410 . S
C606 C607 1.392 . S
C606 C609 1.511 . S
C607 C603 1.376 . S
C607 C606 1.392 . S
C607 H619 0.929 . S
C608 C604 1.531 . S
C608 H620 0.960 . S
C608 H621 0.962 . S
C608 H622 0.960 . S
C609 C606 1.511 . S
C609 H623 0.961 . S
C609 H624 0.961 . S
C609 H625 0.961 . S
C610 C611 1.370 . S
C610 C612 1.363 . S
C610 H626 0.931 . S
C611 C610 1.370 . S
C611 C615 1.408 . S
C612 C610 1.363 . S
C612 C613 1.370 . S
C612 C616 1.524 . S
C613 C605 1.503 . S
C613 C612 1.370 . S
C613 C614 1.403 . S
C614 C613 1.403 . S
C614 C615 1.404 . S
C614 C617 1.539 . S
C615 C611 1.408 . S
C615 C614 1.404 . S
C615 H627 0.930 . S
C616 C612 1.524 . S
C616 H628 0.956 . S
C616 H629 0.961 . S
C616 H630 0.961 . S
C617 C614 1.539 . S
C617 H631 0.958 . S
C617 H632 0.961 . S
C617 H633 0.960 . S
H618 C602 0.931 . S
H619 C607 0.929 . S
H620 C608 0.960 . S
H621 C608 0.962 . S
H622 C608 0.960 . S
H623 C609 0.961 . S
H624 C609 0.961 . S
H625 C609 0.961 . S
H626 C610 0.931 . S
H627 C615 0.930 . S
H628 C616 0.956 . S
H629 C616 0.961 . S
H630 C616 0.961 . S
H631 C617 0.958 . S
H632 C617 0.961 . S
H633 C617 0.960 . S
C634 C635 1.391 . S
C634 C636 1.394 . S
C634 H650 0.931 . S
C635 C634 1.391 . S
C635 C639 1.376 . S
C636 C634 1.394 . S
C636 C637 1.369 . S
C636 C640 1.531 . S
C637 C636 1.369 . S
C637 C638 1.410 . S
C637 C645 1.503 . S
C638 C637 1.410 . S
C638 C639 1.392 . S
C638 C641 1.511 . S
C639 C635 1.376 . S
C639 C638 1.392 . S
C639 H651 0.929 . S
C640 C636 1.531 . S
C640 H652 0.960 . S
C640 H653 0.962 . S
C640 H654 0.960 . S
C641 C638 1.511 . S
C641 H655 0.961 . S
C641 H656 0.961 . S
C641 H657 0.961 . S
C642 C643 1.370 . S
C642 C644 1.363 . S
C642 H658 0.931 . S
C643 C642 1.370 . S
C643 C647 1.408 . S
C644 C642 1.363 . S
C644 C645 1.370 . S
C644 C648 1.524 . S
C645 C637 1.503 . S
C645 C644 1.370 . S
C645 C646 1.403 . S
C646 C645 1.403 . S
C646 C647 1.404 . S
C646 C649 1.539 . S
C647 C643 1.408 . S
C647 C646 1.404 . S
C647 H659 0.930 . S
C648 C644 1.524 . S
C648 H660 0.956 . S
C648 H661 0.961 . S
C648 H662 0.961 . S
C649 C646 1.539 . S
C649 H663 0.958 . S
C649 H664 0.961 1_565 S
C649 H665 0.960 . S
H650 C634 0.931 . S
H651 C639 0.929 . S
H652 C640 0.960 . S
H653 C640 0.962 . S
H654 C640 0.960 . S
H655 C641 0.961 . S
H656 C641 0.961 . S
H657 C641 0.961 . S
H658 C642 0.931 . S
H659 C647 0.930 . S
H660 C648 0.956 . S
H661 C648 0.961 . S
H662 C648 0.961 . S
H663 C649 0.958 . S
H664 C649 0.961 1_545 S
H665 C649 0.960 . S
C666 C667 1.391 . S
C666 C668 1.394 . S
C666 H682 0.931 . S
C667 C666 1.391 . S
C667 C671 1.376 . S
C668 C666 1.394 . S
C668 C669 1.369 . S
C668 C672 1.531 . S
C669 C668 1.369 . S
C669 C670 1.410 . S
C669 C677 1.503 . S
C670 C669 1.410 . S
C670 C671 1.392 . S
C670 C673 1.511 . S
C671 C667 1.376 . S
C671 C670 1.392 . S
C671 H683 0.929 . S
C672 C668 1.531 . S
C672 H684 0.960 . S
C672 H685 0.962 . S
C672 H686 0.960 . S
C673 C670 1.511 . S
C673 H687 0.961 . S
C673 H688 0.961 . S
C673 H689 0.961 . S
C674 C675 1.370 . S
C674 C676 1.363 . S
C674 H690 0.931 . S
C675 C674 1.370 . S
C675 C679 1.408 . S
C676 C674 1.363 . S
C676 C677 1.370 . S
C676 C680 1.524 . S
C677 C669 1.503 . S
C677 C676 1.370 . S
C677 C678 1.403 . S
C678 C677 1.403 . S
C678 C679 1.404 . S
C678 C681 1.539 . S
C679 C675 1.408 . S
C679 C678 1.404 . S
C679 H691 0.930 . S
C680 C676 1.524 . S
C680 H692 0.956 . S
C680 H693 0.961 . S
C680 H694 0.961 . S
C681 C678 1.539 . S
C681 H695 0.958 . S
C681 H696 0.961 . S
C681 H697 0.960 . S
H682 C666 0.931 . S
H683 C671 0.929 . S
H684 C672 0.960 . S
H685 C672 0.962 . S
H686 C672 0.960 . S
H687 C673 0.961 . S
H688 C673 0.961 . S
H689 C673 0.961 . S
H690 C674 0.931 . S
H691 C679 0.930 . S
H692 C680 0.956 . S
H693 C680 0.961 . S
H694 C680 0.961 . S
H695 C681 0.958 . S
H696 C681 0.961 . S
H697 C681 0.960 . S
C698 C699 1.391 . S
C698 C700 1.394 . S
C698 H714 0.931 . S
C699 C698 1.391 . S
C699 C703 1.376 . S
C700 C698 1.394 . S
C700 C701 1.369 . S
C700 C704 1.531 . S
C701 C700 1.369 . S
C701 C702 1.410 . S
C701 C709 1.503 . S
C702 C701 1.410 . S
C702 C703 1.392 . S
C702 C705 1.511 . S
C703 C699 1.376 . S
C703 C702 1.392 . S
C703 H715 0.929 . S
C704 C700 1.531 . S
C704 H716 0.960 . S
C704 H717 0.962 . S
C704 H718 0.960 . S
C705 C702 1.511 . S
C705 H719 0.961 . S
C705 H720 0.961 . S
C705 H721 0.961 . S
C706 C707 1.370 . S
C706 C708 1.363 . S
C706 H722 0.931 . S
C707 C706 1.370 . S
C707 C711 1.408 . S
C708 C706 1.363 . S
C708 C709 1.370 . S
C708 C712 1.524 . S
C709 C701 1.503 . S
C709 C708 1.370 . S
C709 C710 1.403 . S
C710 C709 1.403 . S
C710 C711 1.404 . S
C710 C713 1.539 . S
C711 C707 1.408 . S
C711 C710 1.404 . S
C711 H723 0.930 . S
C712 C708 1.524 . S
C712 H724 0.956 . S
C712 H725 0.961 . S
C712 H726 0.961 . S
C713 C710 1.539 . S
C713 H727 0.958 . S
C713 H728 0.961 . S
C713 H729 0.960 . S
H714 C698 0.931 . S
H715 C703 0.929 . S
H716 C704 0.960 . S
H717 C704 0.962 . S
H718 C704 0.960 . S
H719 C705 0.961 . S
H720 C705 0.961 . S
H721 C705 0.961 . S
H722 C706 0.931 . S
H723 C711 0.930 . S
H724 C712 0.956 . S
H725 C712 0.961 . S
H726 C712 0.961 . S
H727 C713 0.958 . S
H728 C713 0.961 . S
H729 C713 0.960 . S
C730 C731 1.391 . S
C730 C732 1.394 . S
C730 H746 0.931 . S
C731 C730 1.391 . S
C731 C735 1.376 . S
C732 C730 1.394 . S
C732 C733 1.369 . S
C732 C736 1.531 . S
C733 C732 1.369 . S
C733 C734 1.410 . S
C733 C741 1.503 . S
C734 C733 1.410 . S
C734 C735 1.392 . S
C734 C737 1.511 . S
C735 C731 1.376 . S
C735 C734 1.392 . S
C735 H747 0.929 . S
C736 C732 1.531 . S
C736 H748 0.960 . S
C736 H749 0.962 . S
C736 H750 0.960 . S
C737 C734 1.511 . S
C737 H751 0.961 . S
C737 H752 0.961 . S
C737 H753 0.961 . S
C738 C739 1.370 . S
C738 C740 1.363 . S
C738 H754 0.931 . S
C739 C738 1.370 . S
C739 C743 1.408 . S
C740 C738 1.363 . S
C740 C741 1.370 . S
C740 C744 1.524 . S
C741 C733 1.503 . S
C741 C740 1.370 . S
C741 C742 1.403 . S
C742 C741 1.403 . S
C742 C743 1.404 . S
C742 C745 1.539 . S
C743 C739 1.408 . S
C743 C742 1.404 . S
C743 H755 0.930 . S
C744 C740 1.524 . S
C744 H756 0.956 . S
C744 H757 0.961 . S
C744 H758 0.961 . S
C745 C742 1.539 . S
C745 H759 0.958 . S
C745 H760 0.961 . S
C745 H761 0.960 . S
H746 C730 0.931 . S
H747 C735 0.929 . S
H748 C736 0.960 . S
H749 C736 0.962 . S
H750 C736 0.960 . S
H751 C737 0.961 . S
H752 C737 0.961 . S
H753 C737 0.961 . S
H754 C738 0.931 . S
H755 C743 0.930 . S
H756 C744 0.956 . S
H757 C744 0.961 . S
H758 C744 0.961 . S
H759 C745 0.958 . S
H760 C745 0.961 . S
H761 C745 0.960 . S
C762 C763 1.391 . S
C762 C764 1.394 . S
C762 H778 0.931 . S
C763 C762 1.391 . S
C763 C767 1.376 . S
C764 C762 1.394 . S
C764 C765 1.369 . S
C764 C768 1.531 . S
C765 C764 1.369 . S
C765 C766 1.410 . S
C765 C773 1.503 . S
C766 C765 1.410 . S
C766 C767 1.392 . S
C766 C769 1.511 . S
C767 C763 1.376 . S
C767 C766 1.392 . S
C767 H779 0.929 . S
C768 C764 1.531 . S
C768 H780 0.960 . S
C768 H781 0.962 . S
C768 H782 0.960 . S
C769 C766 1.511 . S
C769 H783 0.961 . S
C769 H784 0.961 . S
C769 H785 0.961 . S
C770 C771 1.370 . S
C770 C772 1.363 . S
C770 H786 0.931 . S
C771 C770 1.370 . S
C771 C775 1.408 . S
C772 C770 1.363 . S
C772 C773 1.370 . S
C772 C776 1.524 . S
C773 C765 1.503 . S
C773 C772 1.370 . S
C773 C774 1.403 . S
C774 C773 1.403 . S
C774 C775 1.404 . S
C774 C777 1.539 . S
C775 C771 1.408 . S
C775 C774 1.404 . S
C775 H787 0.930 . S
C776 C772 1.524 . S
C776 H788 0.956 . S
C776 H789 0.961 . S
C776 H790 0.961 . S
C777 C774 1.539 . S
C777 H791 0.958 . S
C777 H792 0.961 . S
C777 H793 0.960 . S
H778 C762 0.931 . S
H779 C767 0.929 . S
H780 C768 0.960 . S
H781 C768 0.962 . S
H782 C768 0.960 . S
H783 C769 0.961 . S
H784 C769 0.961 . S
H785 C769 0.961 . S
H786 C770 0.931 . S
H787 C775 0.930 . S
H788 C776 0.956 . S
H789 C776 0.961 . S
H790 C776 0.961 . S
H791 C777 0.958 . S
H792 C777 0.961 . S
H793 C777 0.960 . S
C794 C795 1.391 . S
C794 C796 1.394 . S
C794 H810 0.931 . S
C795 C794 1.391 . S
C795 C799 1.376 . S
C796 C794 1.394 . S
C796 C797 1.369 . S
C796 C800 1.531 . S
C797 C796 1.369 . S
C797 C798 1.410 . S
C797 C805 1.503 . S
C798 C797 1.410 . S
C798 C799 1.392 . S
C798 C801 1.511 . S
C799 C795 1.376 . S
C799 C798 1.392 . S
C799 H811 0.929 . S
C800 C796 1.531 . S
C800 H812 0.960 . S
C800 H813 0.962 . S
C800 H814 0.960 . S
C801 C798 1.511 . S
C801 H815 0.961 . S
C801 H816 0.961 . S
C801 H817 0.961 . S
C802 C803 1.370 . S
C802 C804 1.363 . S
C802 H818 0.931 . S
C803 C802 1.370 . S
C803 C807 1.408 . S
C804 C802 1.363 . S
C804 C805 1.370 . S
C804 C808 1.524 . S
C805 C797 1.503 . S
C805 C804 1.370 . S
C805 C806 1.403 . S
C806 C805 1.403 . S
C806 C807 1.404 . S
C806 C809 1.539 . S
C807 C803 1.408 . S
C807 C806 1.404 . S
C807 H819 0.930 . S
C808 C804 1.524 . S
C808 H820 0.956 . S
C808 H821 0.961 . S
C808 H822 0.961 . S
C809 C806 1.539 . S
C809 H823 0.958 . S
C809 H824 0.961 . S
C809 H825 0.960 . S
H810 C794 0.931 . S
H811 C799 0.929 . S
H812 C800 0.960 . S
H813 C800 0.962 . S
H814 C800 0.960 . S
H815 C801 0.961 . S
H816 C801 0.961 . S
H817 C801 0.961 . S
H818 C802 0.931 . S
H819 C807 0.930 . S
H820 C808 0.956 . S
H821 C808 0.961 . S
H822 C808 0.961 . S
H823 C809 0.958 . S
H824 C809 0.961 . S
H825 C809 0.960 . S
C826 C827 1.391 . S
C826 C828 1.394 . S
C826 H842 0.931 . S
C827 C826 1.391 . S
C827 C831 1.376 . S
C828 C826 1.394 . S
C828 C829 1.369 . S
C828 C832 1.531 . S
C829 C828 1.369 . S
C829 C830 1.410 . S
C829 C837 1.503 . S
C830 C829 1.410 . S
C830 C831 1.392 . S
C830 C833 1.511 . S
C831 C827 1.376 . S
C831 C830 1.392 . S
C831 H843 0.929 . S
C832 C828 1.531 . S
C832 H844 0.960 . S
C832 H845 0.962 . S
C832 H846 0.960 . S
C833 C830 1.511 . S
C833 H847 0.961 . S
C833 H848 0.961 . S
C833 H849 0.961 . S
C834 C835 1.370 . S
C834 C836 1.363 . S
C834 H850 0.931 . S
C835 C834 1.370 . S
C835 C839 1.408 . S
C836 C834 1.363 . S
C836 C837 1.370 . S
C836 C840 1.524 . S
C837 C829 1.503 . S
C837 C836 1.370 . S
C837 C838 1.403 . S
C838 C837 1.403 . S
C838 C839 1.404 . S
C838 C841 1.539 . S
C839 C835 1.408 . S
C839 C838 1.404 . S
C839 H851 0.930 . S
C840 C836 1.524 . S
C840 H852 0.956 . S
C840 H853 0.961 . S
C840 H854 0.961 . S
C841 C838 1.539 . S
C841 H855 0.958 . S
C841 H856 0.961 . S
C841 H857 0.960 . S
H842 C826 0.931 . S
H843 C831 0.929 . S
H844 C832 0.960 . S
H845 C832 0.962 . S
H846 C832 0.960 . S
H847 C833 0.961 . S
H848 C833 0.961 . S
H849 C833 0.961 . S
H850 C834 0.931 . S
H851 C839 0.930 . S
H852 C840 0.956 . S
H853 C840 0.961 . S
H854 C840 0.961 . S
H855 C841 0.958 . S
H856 C841 0.961 . S
H857 C841 0.960 . S
C858 C859 1.391 . S
C858 C860 1.394 . S
C858 H874 0.931 . S
C859 C858 1.391 . S
C859 C863 1.376 . S
C860 C858 1.394 . S
C860 C861 1.369 . S
C860 C864 1.531 . S
C861 C860 1.369 . S
C861 C862 1.410 . S
C861 C869 1.503 . S
C862 C861 1.410 . S
C862 C863 1.392 . S
C862 C865 1.511 . S
C863 C859 1.376 . S
C863 C862 1.392 . S
C863 H875 0.929 . S
C864 C860 1.531 . S
C864 H876 0.960 . S
C864 H877 0.962 . S
C864 H878 0.960 . S
C865 C862 1.511 . S
C865 H879 0.961 . S
C865 H880 0.961 . S
C865 H881 0.961 . S
C866 C867 1.370 . S
C866 C868 1.363 . S
C866 H882 0.931 . S
C867 C866 1.370 . S
C867 C871 1.408 . S
C868 C866 1.363 . S
C868 C869 1.370 . S
C868 C872 1.524 . S
C869 C861 1.503 . S
C869 C868 1.370 . S
C869 C870 1.403 . S
C870 C869 1.403 . S
C870 C871 1.404 . S
C870 C873 1.539 . S
C871 C867 1.408 . S
C871 C870 1.404 . S
C871 H883 0.930 . S
C872 C868 1.524 . S
C872 H884 0.956 . S
C872 H885 0.961 . S
C872 H886 0.961 . S
C873 C870 1.539 . S
C873 H887 0.958 . S
C873 H888 0.961 . S
C873 H889 0.960 . S
H874 C858 0.931 . S
H875 C863 0.929 . S
H876 C864 0.960 . S
H877 C864 0.962 . S
H878 C864 0.960 . S
H879 C865 0.961 . S
H880 C865 0.961 . S
H881 C865 0.961 . S
H882 C866 0.931 . S
H883 C871 0.930 . S
H884 C872 0.956 . S
H885 C872 0.961 . S
H886 C872 0.961 . S
H887 C873 0.958 . S
H888 C873 0.961 . S
H889 C873 0.960 . S
C890 C891 1.391 . S
C890 C892 1.394 . S
C890 H906 0.931 . S
C891 C890 1.391 . S
C891 C895 1.376 . S
C892 C890 1.394 . S
C892 C893 1.369 . S
C892 C896 1.531 . S
C893 C892 1.369 . S
C893 C894 1.410 . S
C893 C901 1.503 . S
C894 C893 1.410 . S
C894 C895 1.392 . S
C894 C897 1.511 . S
C895 C891 1.376 . S
C895 C894 1.392 . S
C895 H907 0.929 . S
C896 C892 1.531 . S
C896 H908 0.960 . S
C896 H909 0.962 . S
C896 H910 0.960 . S
C897 C894 1.511 . S
C897 H911 0.961 . S
C897 H912 0.961 . S
C897 H913 0.961 . S
C898 C899 1.370 . S
C898 C900 1.363 . S
C898 H914 0.931 . S
C899 C898 1.370 . S
C899 C903 1.408 . S
C900 C898 1.363 . S
C900 C901 1.370 . S
C900 C904 1.524 . S
C901 C893 1.503 . S
C901 C900 1.370 . S
C901 C902 1.403 . S
C902 C901 1.403 . S
C902 C903 1.404 . S
C902 C905 1.539 . S
C903 C899 1.408 . S
C903 C902 1.404 . S
C903 H915 0.930 . S
C904 C900 1.524 . S
C904 H916 0.956 . S
C904 H917 0.961 . S
C904 H918 0.961 . S
C905 C902 1.539 . S
C905 H919 0.958 . S
C905 H920 0.961 . S
C905 H921 0.960 . S
H906 C890 0.931 . S
H907 C895 0.929 . S
H908 C896 0.960 . S
H909 C896 0.962 . S
H910 C896 0.960 . S
H911 C897 0.961 . S
H912 C897 0.961 . S
H913 C897 0.961 . S
H914 C898 0.931 . S
H915 C903 0.930 . S
H916 C904 0.956 . S
H917 C904 0.961 . S
H918 C904 0.961 . S
H919 C905 0.958 . S
H920 C905 0.961 . S
H921 C905 0.960 . S
C922 C923 1.391 . S
C922 C924 1.394 . S
C922 H938 0.931 . S
C923 C922 1.391 . S
C923 C927 1.376 . S
C924 C922 1.394 . S
C924 C925 1.369 . S
C924 C928 1.531 . S
C925 C924 1.369 . S
C925 C926 1.410 . S
C925 C933 1.503 . S
C926 C925 1.410 . S
C926 C927 1.392 . S
C926 C929 1.511 . S
C927 C923 1.376 . S
C927 C926 1.392 . S
C927 H939 0.929 . S
C928 C924 1.531 . S
C928 H940 0.960 . S
C928 H941 0.962 . S
C928 H942 0.960 . S
C929 C926 1.511 . S
C929 H943 0.961 . S
C929 H944 0.961 . S
C929 H945 0.961 . S
C930 C931 1.370 . S
C930 C932 1.363 . S
C930 H946 0.931 . S
C931 C930 1.370 . S
C931 C935 1.408 . S
C932 C930 1.363 . S
C932 C933 1.370 . S
C932 C936 1.524 . S
C933 C925 1.503 . S
C933 C932 1.370 . S
C933 C934 1.403 . S
C934 C933 1.403 . S
C934 C935 1.404 . S
C934 C937 1.539 . S
C935 C931 1.408 . S
C935 C934 1.404 . S
C935 H947 0.930 . S
C936 C932 1.524 . S
C936 H948 0.956 . S
C936 H949 0.961 . S
C936 H950 0.961 . S
C937 C934 1.539 . S
C937 H951 0.958 . S
C937 H952 0.961 . S
C937 H953 0.960 . S
H938 C922 0.931 . S
H939 C927 0.929 . S
H940 C928 0.960 . S
H941 C928 0.962 . S
H942 C928 0.960 . S
H943 C929 0.961 . S
H944 C929 0.961 . S
H945 C929 0.961 . S
H946 C930 0.931 . S
H947 C935 0.930 . S
H948 C936 0.956 . S
H949 C936 0.961 . S
H950 C936 0.961 . S
H951 C937 0.958 . S
H952 C937 0.961 . S
H953 C937 0.960 . S
C954 C955 1.391 . S
C954 C956 1.394 . S
C954 H970 0.931 . S
C955 C954 1.391 . S
C955 C959 1.376 . S
C956 C954 1.394 . S
C956 C957 1.369 . S
C956 C960 1.531 . S
C957 C956 1.369 . S
C957 C958 1.410 . S
C957 C965 1.503 . S
C958 C957 1.410 . S
C958 C959 1.392 . S
C958 C961 1.511 . S
C959 C955 1.376 . S
C959 C958 1.392 . S
C959 H971 0.929 . S
C960 C956 1.531 . S
C960 H972 0.960 . S
C960 H973 0.962 . S
C960 H974 0.960 . S
C961 C958 1.511 . S
C961 H975 0.961 . S
C961 H976 0.961 . S
C961 H977 0.961 . S
C962 C963 1.370 . S
C962 C964 1.363 . S
C962 H978 0.931 . S
C963 C962 1.370 . S
C963 C967 1.408 . S
C964 C962 1.363 . S
C964 C965 1.370 . S
C964 C968 1.524 . S
C965 C957 1.503 . S
C965 C964 1.370 . S
C965 C966 1.403 . S
C966 C965 1.403 . S
C966 C967 1.404 . S
C966 C969 1.539 . S
C967 C963 1.408 . S
C967 C966 1.404 . S
C967 H979 0.930 . S
C968 C964 1.524 . S
C968 H980 0.956 . S
C968 H981 0.961 . S
C968 H982 0.961 . S
C969 C966 1.539 . S
C969 H983 0.958 . S
C969 H984 0.961 . S
C969 H985 0.960 . S
H970 C954 0.931 . S
H971 C959 0.929 . S
H972 C960 0.960 . S
H973 C960 0.962 . S
H974 C960 0.960 . S
H975 C961 0.961 . S
H976 C961 0.961 . S
H977 C961 0.961 . S
H978 C962 0.931 . S
H979 C967 0.930 . S
H980 C968 0.956 . S
H981 C968 0.961 . S
H982 C968 0.961 . S
H983 C969 0.958 . S
H984 C969 0.961 . S
H985 C969 0.960 . S
C986 C987 1.391 . S
C986 C988 1.394 . S
C986 H1002 0.931 . S
C987 C986 1.391 . S
C987 C991 1.376 . S
C988 C986 1.394 . S
C988 C989 1.369 . S
C988 C992 1.531 . S
C989 C988 1.369 . S
C989 C990 1.410 . S
C989 C997 1.503 . S
C990 C989 1.410 . S
C990 C991 1.392 . S
C990 C993 1.511 . S
C991 C987 1.376 . S
C991 C990 1.392 . S
C991 H1003 0.929 . S
C992 C988 1.531 . S
C992 H1004 0.960 . S
C992 H1005 0.962 . S
C992 H1006 0.960 . S
C993 C990 1.511 . S
C993 H1007 0.961 . S
C993 H1008 0.961 . S
C993 H1009 0.961 . S
C994 C995 1.370 . S
C994 C996 1.363 . S
C994 H1010 0.931 . S
C995 C994 1.370 . S
C995 C999 1.408 . S
C996 C994 1.363 . S
C996 C997 1.370 . S
C996 C1000 1.524 . S
C997 C989 1.503 . S
C997 C996 1.370 . S
C997 C998 1.403 . S
C998 C997 1.403 . S
C998 C999 1.404 . S
C998 C1001 1.539 . S
C999 C995 1.408 . S
C999 C998 1.404 . S
C999 H1011 0.930 . S
C1000 C996 1.524 . S
C1000 H1012 0.956 . S
C1000 H1013 0.961 . S
C1000 H1014 0.961 . S
C1001 C998 1.539 . S
C1001 H1015 0.958 . S
C1001 H1016 0.961 1_655 S
C1001 H1017 0.960 . S
H1002 C986 0.931 . S
H1003 C991 0.929 . S
H1004 C992 0.960 . S
H1005 C992 0.962 . S
H1006 C992 0.960 . S
H1007 C993 0.961 . S
H1008 C993 0.961 . S
H1009 C993 0.961 . S
H1010 C994 0.931 . S
H1011 C999 0.930 . S
H1012 C1000 0.956 . S
H1013 C1000 0.961 . S
H1014 C1000 0.961 . S
H1015 C1001 0.958 . S
H1016 C1001 0.961 1_455 S
H1017 C1001 0.960 . S
C1018 C1019 1.391 . S
C1018 C1020 1.394 . S
C1018 H1034 0.931 . S
C1019 C1018 1.391 . S
C1019 C1023 1.376 . S
C1020 C1018 1.394 . S
C1020 C1021 1.369 . S
C1020 C1024 1.531 . S
C1021 C1020 1.369 . S
C1021 C1022 1.410 . S
C1021 C1029 1.503 . S
C1022 C1021 1.410 . S
C1022 C1023 1.392 . S
C1022 C1025 1.511 . S
C1023 C1019 1.376 . S
C1023 C1022 1.392 . S
C1023 H1035 0.929 . S
C1024 C1020 1.531 . S
C1024 H1036 0.960 . S
C1024 H1037 0.962 . S
C1024 H1038 0.960 . S
C1025 C1022 1.511 . S
C1025 H1039 0.961 . S
C1025 H1040 0.961 . S
C1025 H1041 0.961 . S
C1026 C1027 1.370 . S
C1026 C1028 1.363 . S
C1026 H1042 0.931 . S
C1027 C1026 1.370 . S
C1027 C1031 1.408 . S
C1028 C1026 1.363 . S
C1028 C1029 1.370 . S
C1028 C1032 1.524 . S
C1029 C1021 1.503 . S
C1029 C1028 1.370 . S
C1029 C1030 1.403 . S
C1030 C1029 1.403 . S
C1030 C1031 1.404 . S
C1030 C1033 1.539 . S
C1031 C1027 1.408 . S
C1031 C1030 1.404 . S
C1031 H1043 0.930 . S
C1032 C1028 1.524 . S
C1032 H1044 0.956 . S
C1032 H1045 0.961 . S
C1032 H1046 0.961 1_455 S
C1033 C1030 1.539 . S
C1033 H1047 0.958 . S
C1033 H1048 0.961 . S
C1033 H1049 0.960 . S
H1034 C1018 0.931 . S
H1035 C1023 0.929 . S
H1036 C1024 0.960 . S
H1037 C1024 0.962 . S
H1038 C1024 0.960 . S
H1039 C1025 0.961 . S
H1040 C1025 0.961 . S
H1041 C1025 0.961 . S
H1042 C1026 0.931 . S
H1043 C1031 0.930 . S
H1044 C1032 0.956 . S
H1045 C1032 0.961 . S
H1046 C1032 0.961 1_655 S
H1047 C1033 0.958 . S
H1048 C1033 0.961 . S
H1049 C1033 0.960 . S
C1050 C1051 1.391 . S
C1050 C1052 1.394 . S
C1050 H1066 0.931 . S
C1051 C1050 1.391 . S
C1051 C1055 1.376 . S
C1052 C1050 1.394 . S
C1052 C1053 1.369 . S
C1052 C1056 1.531 . S
C1053 C1052 1.369 . S
C1053 C1054 1.410 . S
C1053 C1061 1.503 . S
C1054 C1053 1.410 . S
C1054 C1055 1.392 . S
C1054 C1057 1.511 . S
C1055 C1051 1.376 . S
C1055 C1054 1.392 . S
C1055 H1067 0.929 . S
C1056 C1052 1.531 . S
C1056 H1068 0.960 . S
C1056 H1069 0.962 . S
C1056 H1070 0.960 . S
C1057 C1054 1.511 . S
C1057 H1071 0.961 . S
C1057 H1072 0.961 . S
C1057 H1073 0.961 . S
C1058 C1059 1.370 . S
C1058 C1060 1.363 . S
C1058 H1074 0.931 . S
C1059 C1058 1.370 . S
C1059 C1063 1.408 . S
C1060 C1058 1.363 . S
C1060 C1061 1.370 . S
C1060 C1064 1.524 . S
C1061 C1053 1.503 . S
C1061 C1060 1.370 . S
C1061 C1062 1.403 . S
C1062 C1061 1.403 . S
C1062 C1063 1.404 . S
C1062 C1065 1.539 . S
C1063 C1059 1.408 . S
C1063 C1062 1.404 . S
C1063 H1075 0.930 . S
C1064 C1060 1.524 . S
C1064 H1076 0.956 . S
C1064 H1077 0.961 . S
C1064 H1078 0.961 . S
C1065 C1062 1.539 . S
C1065 H1079 0.958 . S
C1065 H1080 0.961 . S
C1065 H1081 0.960 . S
H1066 C1050 0.931 . S
H1067 C1055 0.929 . S
H1068 C1056 0.960 . S
H1069 C1056 0.962 . S
H1070 C1056 0.960 . S
H1071 C1057 0.961 . S
H1072 C1057 0.961 . S
H1073 C1057 0.961 . S
H1074 C1058 0.931 . S
H1075 C1063 0.930 . S
H1076 C1064 0.956 . S
H1077 C1064 0.961 . S
H1078 C1064 0.961 . S
H1079 C1065 0.958 . S
H1080 C1065 0.961 . S
H1081 C1065 0.960 . S
C1082 C1083 1.391 . S
C1082 C1084 1.394 . S
C1082 H1098 0.931 . S
C1083 C1082 1.391 . S
C1083 C1087 1.376 . S
C1084 C1082 1.394 . S
C1084 C1085 1.369 . S
C1084 C1088 1.531 . S
C1085 C1084 1.369 . S
C1085 C1086 1.410 . S
C1085 C1093 1.503 . S
C1086 C1085 1.410 . S
C1086 C1087 1.392 . S
C1086 C1089 1.511 . S
C1087 C1083 1.376 . S
C1087 C1086 1.392 . S
C1087 H1099 0.929 . S
C1088 C1084 1.531 . S
C1088 H1100 0.960 . S
C1088 H1101 0.962 . S
C1088 H1102 0.960 . S
C1089 C1086 1.511 . S
C1089 H1103 0.961 . S
C1089 H1104 0.961 . S
C1089 H1105 0.961 . S
C1090 C1091 1.370 . S
C1090 C1092 1.363 . S
C1090 H1106 0.931 . S
C1091 C1090 1.370 . S
C1091 C1095 1.408 . S
C1092 C1090 1.363 . S
C1092 C1093 1.370 . S
C1092 C1096 1.524 . S
C1093 C1085 1.503 . S
C1093 C1092 1.370 . S
C1093 C1094 1.403 . S
C1094 C1093 1.403 . S
C1094 C1095 1.404 . S
C1094 C1097 1.539 . S
C1095 C1091 1.408 . S
C1095 C1094 1.404 . S
C1095 H1107 0.930 . S
C1096 C1092 1.524 . S
C1096 H1108 0.956 . S
C1096 H1109 0.961 . S
C1096 H1110 0.961 . S
C1097 C1094 1.539 . S
C1097 H1111 0.958 1_545 S
C1097 H1112 0.961 1_545 S
C1097 H1113 0.960 . S
H1098 C1082 0.931 . S
H1099 C1087 0.929 . S
H1100 C1088 0.960 . S
H1101 C1088 0.962 . S
H1102 C1088 0.960 . S
H1103 C1089 0.961 . S
H1104 C1089 0.961 . S
H1105 C1089 0.961 . S
H1106 C1090 0.931 . S
H1107 C1095 0.930 . S
H1108 C1096 0.956 . S
H1109 C1096 0.961 . S
H1110 C1096 0.961 . S
H1111 C1097 0.958 1_565 S
H1112 C1097 0.961 1_565 S
H1113 C1097 0.960 . S
C1114 C1115 1.391 . S
C1114 C1116 1.394 . S
C1114 H1130 0.931 . S
C1115 C1114 1.391 . S
C1115 C1119 1.376 . S
C1116 C1114 1.394 . S
C1116 C1117 1.369 . S
C1116 C1120 1.531 . S
C1117 C1116 1.369 . S
C1117 C1118 1.410 . S
C1117 C1125 1.503 . S
C1118 C1117 1.410 . S
C1118 C1119 1.392 . S
C1118 C1121 1.511 . S
C1119 C1115 1.376 . S
C1119 C1118 1.392 . S
C1119 H1131 0.929 . S
C1120 C1116 1.531 . S
C1120 H1132 0.960 . S
C1120 H1133 0.962 . S
C1120 H1134 0.960 . S
C1121 C1118 1.511 . S
C1121 H1135 0.961 . S
C1121 H1136 0.961 . S
C1121 H1137 0.961 . S
C1122 C1123 1.370 . S
C1122 C1124 1.363 . S
C1122 H1138 0.931 . S
C1123 C1122 1.370 . S
C1123 C1127 1.408 . S
C1124 C1122 1.363 . S
C1124 C1125 1.370 . S
C1124 C1128 1.524 . S
C1125 C1117 1.503 . S
C1125 C1124 1.370 . S
C1125 C1126 1.403 . S
C1126 C1125 1.403 . S
C1126 C1127 1.404 . S
C1126 C1129 1.539 . S
C1127 C1123 1.408 . S
C1127 C1126 1.404 . S
C1127 H1139 0.930 . S
C1128 C1124 1.524 . S
C1128 H1140 0.956 . S
C1128 H1141 0.961 . S
C1128 H1142 0.961 . S
C1129 C1126 1.539 . S
C1129 H1143 0.958 . S
C1129 H1144 0.961 . S
C1129 H1145 0.960 . S
H1130 C1114 0.931 . S
H1131 C1119 0.929 . S
H1132 C1120 0.960 . S
H1133 C1120 0.962 . S
H1134 C1120 0.960 . S
H1135 C1121 0.961 . S
H1136 C1121 0.961 . S
H1137 C1121 0.961 . S
H1138 C1122 0.931 . S
H1139 C1127 0.930 . S
H1140 C1128 0.956 . S
H1141 C1128 0.961 . S
H1142 C1128 0.961 . S
H1143 C1129 0.958 . S
H1144 C1129 0.961 . S
H1145 C1129 0.960 . S
C1146 C1147 1.391 . S
C1146 C1148 1.394 . S
C1146 H1162 0.931 . S
C1147 C1146 1.391 . S
C1147 C1151 1.376 . S
C1148 C1146 1.394 . S
C1148 C1149 1.369 . S
C1148 C1152 1.531 . S
C1149 C1148 1.369 . S
C1149 C1150 1.410 . S
C1149 C1157 1.503 . S
C1150 C1149 1.410 . S
C1150 C1151 1.392 . S
C1150 C1153 1.511 . S
C1151 C1147 1.376 . S
C1151 C1150 1.392 . S
C1151 H1163 0.929 . S
C1152 C1148 1.531 . S
C1152 H1164 0.960 . S
C1152 H1165 0.962 . S
C1152 H1166 0.960 . S
C1153 C1150 1.511 . S
C1153 H1167 0.961 . S
C1153 H1168 0.961 . S
C1153 H1169 0.961 . S
C1154 C1155 1.370 . S
C1154 C1156 1.363 . S
C1154 H1170 0.931 . S
C1155 C1154 1.370 . S
C1155 C1159 1.408 . S
C1156 C1154 1.363 . S
C1156 C1157 1.370 . S
C1156 C1160 1.524 . S
C1157 C1149 1.503 . S
C1157 C1156 1.370 . S
C1157 C1158 1.403 . S
C1158 C1157 1.403 . S
C1158 C1159 1.404 . S
C1158 C1161 1.539 . S
C1159 C1155 1.408 . S
C1159 C1158 1.404 . S
C1159 H1171 0.930 . S
C1160 C1156 1.524 . S
C1160 H1172 0.956 . S
C1160 H1173 0.961 . S
C1160 H1174 0.961 . S
C1161 C1158 1.539 . S
C1161 H1175 0.958 . S
C1161 H1176 0.961 . S
C1161 H1177 0.960 . S
H1162 C1146 0.931 . S
H1163 C1151 0.929 . S
H1164 C1152 0.960 . S
H1165 C1152 0.962 . S
H1166 C1152 0.960 . S
H1167 C1153 0.961 . S
H1168 C1153 0.961 . S
H1169 C1153 0.961 . S
H1170 C1154 0.931 . S
H1171 C1159 0.930 . S
H1172 C1160 0.956 . S
H1173 C1160 0.961 . S
H1174 C1160 0.961 . S
H1175 C1161 0.958 . S
H1176 C1161 0.961 . S
H1177 C1161 0.960 . S
C1178 C1179 1.391 . S
C1178 C1180 1.394 . S
C1178 H1194 0.931 . S
C1179 C1178 1.391 . S
C1179 C1183 1.376 . S
C1180 C1178 1.394 . S
C1180 C1181 1.369 . S
C1180 C1184 1.531 . S
C1181 C1180 1.369 . S
C1181 C1182 1.410 . S
C1181 C1189 1.503 . S
C1182 C1181 1.410 . S
C1182 C1183 1.392 . S
C1182 C1185 1.511 . S
C1183 C1179 1.376 . S
C1183 C1182 1.392 . S
C1183 H1195 0.929 . S
C1184 C1180 1.531 . S
C1184 H1196 0.960 . S
C1184 H1197 0.962 . S
C1184 H1198 0.960 . S
C1185 C1182 1.511 . S
C1185 H1199 0.961 . S
C1185 H1200 0.961 . S
C1185 H1201 0.961 . S
C1186 C1187 1.370 . S
C1186 C1188 1.363 . S
C1186 H1202 0.931 . S
C1187 C1186 1.370 . S
C1187 C1191 1.408 . S
C1188 C1186 1.363 . S
C1188 C1189 1.370 . S
C1188 C1192 1.524 . S
C1189 C1181 1.503 . S
C1189 C1188 1.370 . S
C1189 C1190 1.403 . S
C1190 C1189 1.403 . S
C1190 C1191 1.404 . S
C1190 C1193 1.539 . S
C1191 C1187 1.408 . S
C1191 C1190 1.404 . S
C1191 H1203 0.930 . S
C1192 C1188 1.524 . S
C1192 H1204 0.956 . S
C1192 H1205 0.961 . S
C1192 H1206 0.961 . S
C1193 C1190 1.539 . S
C1193 H1207 0.958 . S
C1193 H1208 0.961 . S
C1193 H1209 0.960 . S
H1194 C1178 0.931 . S
H1195 C1183 0.929 . S
H1196 C1184 0.960 . S
H1197 C1184 0.962 . S
H1198 C1184 0.960 . S
H1199 C1185 0.961 . S
H1200 C1185 0.961 . S
H1201 C1185 0.961 . S
H1202 C1186 0.931 . S
H1203 C1191 0.930 . S
H1204 C1192 0.956 . S
H1205 C1192 0.961 . S
H1206 C1192 0.961 . S
H1207 C1193 0.958 . S
H1208 C1193 0.961 . S
H1209 C1193 0.960 . S
C1210 C1211 1.391 . S
C1210 C1212 1.394 . S
C1210 H1226 0.931 . S
C1211 C1210 1.391 . S
C1211 C1215 1.376 . S
C1212 C1210 1.394 . S
C1212 C1213 1.369 . S
C1212 C1216 1.531 . S
C1213 C1212 1.369 . S
C1213 C1214 1.410 . S
C1213 C1221 1.503 . S
C1214 C1213 1.410 . S
C1214 C1215 1.392 . S
C1214 C1217 1.511 . S
C1215 C1211 1.376 . S
C1215 C1214 1.392 . S
C1215 H1227 0.929 . S
C1216 C1212 1.531 . S
C1216 H1228 0.960 . S
C1216 H1229 0.962 . S
C1216 H1230 0.960 . S
C1217 C1214 1.511 . S
C1217 H1231 0.961 . S
C1217 H1232 0.961 . S
C1217 H1233 0.961 . S
C1218 C1219 1.370 . S
C1218 C1220 1.363 . S
C1218 H1234 0.931 . S
C1219 C1218 1.370 . S
C1219 C1223 1.408 . S
C1220 C1218 1.363 . S
C1220 C1221 1.370 . S
C1220 C1224 1.524 . S
C1221 C1213 1.503 . S
C1221 C1220 1.370 . S
C1221 C1222 1.403 . S
C1222 C1221 1.403 . S
C1222 C1223 1.404 . S
C1222 C1225 1.539 . S
C1223 C1219 1.408 . S
C1223 C1222 1.404 . S
C1223 H1235 0.930 . S
C1224 C1220 1.524 . S
C1224 H1236 0.956 . S
C1224 H1237 0.961 . S
C1224 H1238 0.961 . S
C1225 C1222 1.539 . S
C1225 H1239 0.958 . S
C1225 H1240 0.961 . S
C1225 H1241 0.960 . S
H1226 C1210 0.931 . S
H1227 C1215 0.929 . S
H1228 C1216 0.960 . S
H1229 C1216 0.962 . S
H1230 C1216 0.960 . S
H1231 C1217 0.961 . S
H1232 C1217 0.961 . S
H1233 C1217 0.961 . S
H1234 C1218 0.931 . S
H1235 C1223 0.930 . S
H1236 C1224 0.956 . S
H1237 C1224 0.961 . S
H1238 C1224 0.961 . S
H1239 C1225 0.958 . S
H1240 C1225 0.961 . S
H1241 C1225 0.960 . S
C1242 C1243 1.391 . S
C1242 C1244 1.394 . S
C1242 H1258 0.931 . S
C1243 C1242 1.391 . S
C1243 C1247 1.376 . S
C1244 C1242 1.394 . S
C1244 C1245 1.369 . S
C1244 C1248 1.531 . S
C1245 C1244 1.369 . S
C1245 C1246 1.410 . S
C1245 C1253 1.503 . S
C1246 C1245 1.410 . S
C1246 C1247 1.392 . S
C1246 C1249 1.511 . S
C1247 C1243 1.376 . S
C1247 C1246 1.392 . S
C1247 H1259 0.929 . S
C1248 C1244 1.531 . S
C1248 H1260 0.960 . S
C1248 H1261 0.962 . S
C1248 H1262 0.960 . S
C1249 C1246 1.511 . S
C1249 H1263 0.961 . S
C1249 H1264 0.961 . S
C1249 H1265 0.961 . S
C1250 C1251 1.370 . S
C1250 C1252 1.363 . S
C1250 H1266 0.931 . S
C1251 C1250 1.370 . S
C1251 C1255 1.408 . S
C1252 C1250 1.363 . S
C1252 C1253 1.370 . S
C1252 C1256 1.524 . S
C1253 C1245 1.503 . S
C1253 C1252 1.370 . S
C1253 C1254 1.403 . S
C1254 C1253 1.403 . S
C1254 C1255 1.404 . S
C1254 C1257 1.539 . S
C1255 C1251 1.408 . S
C1255 C1254 1.404 . S
C1255 H1267 0.930 . S
C1256 C1252 1.524 . S
C1256 H1268 0.956 . S
C1256 H1269 0.961 . S
C1256 H1270 0.961 . S
C1257 C1254 1.539 . S
C1257 H1271 0.958 . S
C1257 H1272 0.961 . S
C1257 H1273 0.960 . S
H1258 C1242 0.931 . S
H1259 C1247 0.929 . S
H1260 C1248 0.960 . S
H1261 C1248 0.962 . S
H1262 C1248 0.960 . S
H1263 C1249 0.961 . S
H1264 C1249 0.961 . S
H1265 C1249 0.961 . S
H1266 C1250 0.931 . S
H1267 C1255 0.930 . S
H1268 C1256 0.956 . S
H1269 C1256 0.961 . S
H1270 C1256 0.961 . S
H1271 C1257 0.958 . S
H1272 C1257 0.961 . S
H1273 C1257 0.960 . S
C1274 C1275 1.391 . S
C1274 C1276 1.394 . S
C1274 H1290 0.931 . S
C1275 C1274 1.391 . S
C1275 C1279 1.376 . S
C1276 C1274 1.394 . S
C1276 C1277 1.369 . S
C1276 C1280 1.531 . S
C1277 C1276 1.369 . S
C1277 C1278 1.410 . S
C1277 C1285 1.503 . S
C1278 C1277 1.410 . S
C1278 C1279 1.392 . S
C1278 C1281 1.511 . S
C1279 C1275 1.376 . S
C1279 C1278 1.392 . S
C1279 H1291 0.929 . S
C1280 C1276 1.531 . S
C1280 H1292 0.960 . S
C1280 H1293 0.962 . S
C1280 H1294 0.960 . S
C1281 C1278 1.511 . S
C1281 H1295 0.961 . S
C1281 H1296 0.961 . S
C1281 H1297 0.961 . S
C1282 C1283 1.370 . S
C1282 C1284 1.363 . S
C1282 H1298 0.931 . S
C1283 C1282 1.370 . S
C1283 C1287 1.408 . S
C1284 C1282 1.363 . S
C1284 C1285 1.370 . S
C1284 C1288 1.524 . S
C1285 C1277 1.503 . S
C1285 C1284 1.370 . S
C1285 C1286 1.403 . S
C1286 C1285 1.403 . S
C1286 C1287 1.404 . S
C1286 C1289 1.539 . S
C1287 C1283 1.408 . S
C1287 C1286 1.404 . S
C1287 H1299 0.930 . S
C1288 C1284 1.524 . S
C1288 H1300 0.956 . S
C1288 H1301 0.961 . S
C1288 H1302 0.961 . S
C1289 C1286 1.539 . S
C1289 H1303 0.958 . S
C1289 H1304 0.961 . S
C1289 H1305 0.960 . S
H1290 C1274 0.931 . S
H1291 C1279 0.929 . S
H1292 C1280 0.960 . S
H1293 C1280 0.962 . S
H1294 C1280 0.960 . S
H1295 C1281 0.961 . S
H1296 C1281 0.961 . S
H1297 C1281 0.961 . S
H1298 C1282 0.931 . S
H1299 C1287 0.930 . S
H1300 C1288 0.956 . S
H1301 C1288 0.961 . S
H1302 C1288 0.961 . S
H1303 C1289 0.958 . S
H1304 C1289 0.961 . S
H1305 C1289 0.960 . S
C1306 C1307 1.391 . S
C1306 C1308 1.394 . S
C1306 H1322 0.931 . S
C1307 C1306 1.391 . S
C1307 C1311 1.376 . S
C1308 C1306 1.394 . S
C1308 C1309 1.369 . S
C1308 C1312 1.531 . S
C1309 C1308 1.369 . S
C1309 C1310 1.410 . S
C1309 C1317 1.503 . S
C1310 C1309 1.410 . S
C1310 C1311 1.392 . S
C1310 C1313 1.511 . S
C1311 C1307 1.376 . S
C1311 C1310 1.392 . S
C1311 H1323 0.929 . S
C1312 C1308 1.531 . S
C1312 H1324 0.960 . S
C1312 H1325 0.962 . S
C1312 H1326 0.960 . S
C1313 C1310 1.511 . S
C1313 H1327 0.961 . S
C1313 H1328 0.961 . S
C1313 H1329 0.961 . S
C1314 C1315 1.370 . S
C1314 C1316 1.363 . S
C1314 H1330 0.931 . S
C1315 C1314 1.370 . S
C1315 C1319 1.408 . S
C1316 C1314 1.363 . S
C1316 C1317 1.370 . S
C1316 C1320 1.524 . S
C1317 C1309 1.503 . S
C1317 C1316 1.370 . S
C1317 C1318 1.403 . S
C1318 C1317 1.403 . S
C1318 C1319 1.404 . S
C1318 C1321 1.539 . S
C1319 C1315 1.408 . S
C1319 C1318 1.404 . S
C1319 H1331 0.930 . S
C1320 C1316 1.524 . S
C1320 H1332 0.956 . S
C1320 H1333 0.961 . S
C1320 H1334 0.961 . S
C1321 C1318 1.539 . S
C1321 H1335 0.958 . S
C1321 H1336 0.961 . S
C1321 H1337 0.960 . S
H1322 C1306 0.931 . S
H1323 C1311 0.929 . S
H1324 C1312 0.960 . S
H1325 C1312 0.962 . S
H1326 C1312 0.960 . S
H1327 C1313 0.961 . S
H1328 C1313 0.961 . S
H1329 C1313 0.961 . S
H1330 C1314 0.931 . S
H1331 C1319 0.930 . S
H1332 C1320 0.956 . S
H1333 C1320 0.961 . S
H1334 C1320 0.961 . S
H1335 C1321 0.958 . S
H1336 C1321 0.961 . S
H1337 C1321 0.960 . S
C1338 C1339 1.391 . S
C1338 C1340 1.394 . S
C1338 H1354 0.931 . S
C1339 C1338 1.391 . S
C1339 C1343 1.376 . S
C1340 C1338 1.394 . S
C1340 C1341 1.369 . S
C1340 C1344 1.531 . S
C1341 C1340 1.369 . S
C1341 C1342 1.410 . S
C1341 C1349 1.503 . S
C1342 C1341 1.410 . S
C1342 C1343 1.392 . S
C1342 C1345 1.511 . S
C1343 C1339 1.376 . S
C1343 C1342 1.392 . S
C1343 H1355 0.929 . S
C1344 C1340 1.531 . S
C1344 H1356 0.960 . S
C1344 H1357 0.962 . S
C1344 H1358 0.960 . S
C1345 C1342 1.511 . S
C1345 H1359 0.961 . S
C1345 H1360 0.961 . S
C1345 H1361 0.961 . S
C1346 C1347 1.370 . S
C1346 C1348 1.363 . S
C1346 H1362 0.931 . S
C1347 C1346 1.370 . S
C1347 C1351 1.408 . S
C1348 C1346 1.363 . S
C1348 C1349 1.370 . S
C1348 C1352 1.524 . S
C1349 C1341 1.503 . S
C1349 C1348 1.370 . S
C1349 C1350 1.403 . S
C1350 C1349 1.403 . S
C1350 C1351 1.404 . S
C1350 C1353 1.539 . S
C1351 C1347 1.408 . S
C1351 C1350 1.404 . S
C1351 H1363 0.930 . S
C1352 C1348 1.524 . S
C1352 H1364 0.956 . S
C1352 H1365 0.961 . S
C1352 H1366 0.961 . S
C1353 C1350 1.539 . S
C1353 H1367 0.958 . S
C1353 H1368 0.961 . S
C1353 H1369 0.960 . S
H1354 C1338 0.931 . S
H1355 C1343 0.929 . S
H1356 C1344 0.960 . S
H1357 C1344 0.962 . S
H1358 C1344 0.960 . S
H1359 C1345 0.961 . S
H1360 C1345 0.961 . S
H1361 C1345 0.961 . S
H1362 C1346 0.931 . S
H1363 C1351 0.930 . S
H1364 C1352 0.956 . S
H1365 C1352 0.961 . S
H1366 C1352 0.961 . S
H1367 C1353 0.958 . S
H1368 C1353 0.961 . S
H1369 C1353 0.960 . S
C1370 C1371 1.391 . S
C1370 C1372 1.394 . S
C1370 H1386 0.931 . S
C1371 C1370 1.391 . S
C1371 C1375 1.376 . S
C1372 C1370 1.394 . S
C1372 C1373 1.369 . S
C1372 C1376 1.531 . S
C1373 C1372 1.369 . S
C1373 C1374 1.410 . S
C1373 C1381 1.503 . S
C1374 C1373 1.410 . S
C1374 C1375 1.392 . S
C1374 C1377 1.511 . S
C1375 C1371 1.376 . S
C1375 C1374 1.392 . S
C1375 H1387 0.929 . S
C1376 C1372 1.531 . S
C1376 H1388 0.960 . S
C1376 H1389 0.962 . S
C1376 H1390 0.960 . S
C1377 C1374 1.511 . S
C1377 H1391 0.961 . S
C1377 H1392 0.961 . S
C1377 H1393 0.961 . S
C1378 C1379 1.370 . S
C1378 C1380 1.363 . S
C1378 H1394 0.931 . S
C1379 C1378 1.370 . S
C1379 C1383 1.408 . S
C1380 C1378 1.363 . S
C1380 C1381 1.370 . S
C1380 C1384 1.524 . S
C1381 C1373 1.503 . S
C1381 C1380 1.370 . S
C1381 C1382 1.403 . S
C1382 C1381 1.403 . S
C1382 C1383 1.404 . S
C1382 C1385 1.539 . S
C1383 C1379 1.408 . S
C1383 C1382 1.404 . S
C1383 H1395 0.930 . S
C1384 C1380 1.524 . S
C1384 H1396 0.956 . S
C1384 H1397 0.961 . S
C1384 H1398 0.961 . S
C1385 C1382 1.539 . S
C1385 H1399 0.958 . S
C1385 H1400 0.961 . S
C1385 H1401 0.960 . S
H1386 C1370 0.931 . S
H1387 C1375 0.929 . S
H1388 C1376 0.960 . S
H1389 C1376 0.962 . S
H1390 C1376 0.960 . S
H1391 C1377 0.961 . S
H1392 C1377 0.961 . S
H1393 C1377 0.961 . S
H1394 C1378 0.931 . S
H1395 C1383 0.930 . S
H1396 C1384 0.956 . S
H1397 C1384 0.961 . S
H1398 C1384 0.961 . S
H1399 C1385 0.958 . S
H1400 C1385 0.961 . S
H1401 C1385 0.960 . S
C1402 C1403 1.391 . S
C1402 C1404 1.394 . S
C1402 H1418 0.931 . S
C1403 C1402 1.391 . S
C1403 C1407 1.376 . S
C1404 C1402 1.394 . S
C1404 C1405 1.369 . S
C1404 C1408 1.531 . S
C1405 C1404 1.369 . S
C1405 C1406 1.410 . S
C1405 C1413 1.503 . S
C1406 C1405 1.410 . S
C1406 C1407 1.392 . S
C1406 C1409 1.511 . S
C1407 C1403 1.376 . S
C1407 C1406 1.392 . S
C1407 H1419 0.929 . S
C1408 C1404 1.531 . S
C1408 H1420 0.960 . S
C1408 H1421 0.962 . S
C1408 H1422 0.960 . S
C1409 C1406 1.511 . S
C1409 H1423 0.961 . S
C1409 H1424 0.961 . S
C1409 H1425 0.961 . S
C1410 C1411 1.370 . S
C1410 C1412 1.363 . S
C1410 H1426 0.931 . S
C1411 C1410 1.370 . S
C1411 C1415 1.408 . S
C1412 C1410 1.363 . S
C1412 C1413 1.370 . S
C1412 C1416 1.524 . S
C1413 C1405 1.503 . S
C1413 C1412 1.370 . S
C1413 C1414 1.403 . S
C1414 C1413 1.403 . S
C1414 C1415 1.404 . S
C1414 C1417 1.539 . S
C1415 C1411 1.408 . S
C1415 C1414 1.404 . S
C1415 H1427 0.930 . S
C1416 C1412 1.524 . S
C1416 H1428 0.956 . S
C1416 H1429 0.961 . S
C1416 H1430 0.961 . S
C1417 C1414 1.539 . S
C1417 H1431 0.958 . S
C1417 H1432 0.961 . S
C1417 H1433 0.960 . S
H1418 C1402 0.931 . S
H1419 C1407 0.929 . S
H1420 C1408 0.960 . S
H1421 C1408 0.962 . S
H1422 C1408 0.960 . S
H1423 C1409 0.961 . S
H1424 C1409 0.961 . S
H1425 C1409 0.961 . S
H1426 C1410 0.931 . S
H1427 C1415 0.930 . S
H1428 C1416 0.956 . S
H1429 C1416 0.961 . S
H1430 C1416 0.961 . S
H1431 C1417 0.958 . S
H1432 C1417 0.961 . S
H1433 C1417 0.960 . S
C1434 C1435 1.391 . S
C1434 C1436 1.394 . S
C1434 H1450 0.931 . S
C1435 C1434 1.391 . S
C1435 C1439 1.376 . S
C1436 C1434 1.394 . S
C1436 C1437 1.369 . S
C1436 C1440 1.531 . S
C1437 C1436 1.369 . S
C1437 C1438 1.410 . S
C1437 C1445 1.503 . S
C1438 C1437 1.410 . S
C1438 C1439 1.392 . S
C1438 C1441 1.511 . S
C1439 C1435 1.376 . S
C1439 C1438 1.392 . S
C1439 H1451 0.929 . S
C1440 C1436 1.531 . S
C1440 H1452 0.960 . S
C1440 H1453 0.962 . S
C1440 H1454 0.960 . S
C1441 C1438 1.511 . S
C1441 H1455 0.961 . S
C1441 H1456 0.961 . S
C1441 H1457 0.961 . S
C1442 C1443 1.370 . S
C1442 C1444 1.363 . S
C1442 H1458 0.931 . S
C1443 C1442 1.370 . S
C1443 C1447 1.408 . S
C1444 C1442 1.363 . S
C1444 C1445 1.370 . S
C1444 C1448 1.524 . S
C1445 C1437 1.503 . S
C1445 C1444 1.370 . S
C1445 C1446 1.403 . S
C1446 C1445 1.403 . S
C1446 C1447 1.404 . S
C1446 C1449 1.539 . S
C1447 C1443 1.408 . S
C1447 C1446 1.404 . S
C1447 H1459 0.930 . S
C1448 C1444 1.524 . S
C1448 H1460 0.956 . S
C1448 H1461 0.961 . S
C1448 H1462 0.961 . S
C1449 C1446 1.539 . S
C1449 H1463 0.958 . S
C1449 H1464 0.961 . S
C1449 H1465 0.960 . S
H1450 C1434 0.931 . S
H1451 C1439 0.929 . S
H1452 C1440 0.960 . S
H1453 C1440 0.962 . S
H1454 C1440 0.960 . S
H1455 C1441 0.961 . S
H1456 C1441 0.961 . S
H1457 C1441 0.961 . S
H1458 C1442 0.931 . S
H1459 C1447 0.930 . S
H1460 C1448 0.956 . S
H1461 C1448 0.961 . S
H1462 C1448 0.961 . S
H1463 C1449 0.958 . S
H1464 C1449 0.961 . S
H1465 C1449 0.960 . S
C1466 C1467 1.391 . S
C1466 C1468 1.394 . S
C1466 H1482 0.931 . S
C1467 C1466 1.391 . S
C1467 C1471 1.376 . S
C1468 C1466 1.394 . S
C1468 C1469 1.369 . S
C1468 C1472 1.531 . S
C1469 C1468 1.369 . S
C1469 C1470 1.410 . S
C1469 C1477 1.503 . S
C1470 C1469 1.410 . S
C1470 C1471 1.392 . S
C1470 C1473 1.511 . S
C1471 C1467 1.376 . S
C1471 C1470 1.392 . S
C1471 H1483 0.929 . S
C1472 C1468 1.531 . S
C1472 H1484 0.960 . S
C1472 H1485 0.962 . S
C1472 H1486 0.960 . S
C1473 C1470 1.511 . S
C1473 H1487 0.961 . S
C1473 H1488 0.961 . S
C1473 H1489 0.961 . S
C1474 C1475 1.370 . S
C1474 C1476 1.363 . S
C1474 H1490 0.931 . S
C1475 C1474 1.370 . S
C1475 C1479 1.408 . S
C1476 C1474 1.363 . S
C1476 C1477 1.370 . S
C1476 C1480 1.524 . S
C1477 C1469 1.503 . S
C1477 C1476 1.370 . S
C1477 C1478 1.403 . S
C1478 C1477 1.403 . S
C1478 C1479 1.404 . S
C1478 C1481 1.539 . S
C1479 C1475 1.408 . S
C1479 C1478 1.404 . S
C1479 H1491 0.930 . S
C1480 C1476 1.524 . S
C1480 H1492 0.956 . S
C1480 H1493 0.961 . S
C1480 H1494 0.961 . S
C1481 C1478 1.539 . S
C1481 H1495 0.958 . S
C1481 H1496 0.961 . S
C1481 H1497 0.960 . S
H1482 C1466 0.931 . S
H1483 C1471 0.929 . S
H1484 C1472 0.960 . S
H1485 C1472 0.962 . S
H1486 C1472 0.960 . S
H1487 C1473 0.961 . S
H1488 C1473 0.961 . S
H1489 C1473 0.961 . S
H1490 C1474 0.931 . S
H1491 C1479 0.930 . S
H1492 C1480 0.956 . S
H1493 C1480 0.961 . S
H1494 C1480 0.961 . S
H1495 C1481 0.958 . S
H1496 C1481 0.961 . S
H1497 C1481 0.960 . S
C1498 C1499 1.391 . S
C1498 C1500 1.394 . S
C1498 H1514 0.931 . S
C1499 C1498 1.391 . S
C1499 C1503 1.376 . S
C1500 C1498 1.394 . S
C1500 C1501 1.369 . S
C1500 C1504 1.531 . S
C1501 C1500 1.369 . S
C1501 C1502 1.410 . S
C1501 C1509 1.503 . S
C1502 C1501 1.410 . S
C1502 C1503 1.392 . S
C1502 C1505 1.511 . S
C1503 C1499 1.376 . S
C1503 C1502 1.392 . S
C1503 H1515 0.929 . S
C1504 C1500 1.531 . S
C1504 H1516 0.960 . S
C1504 H1517 0.962 . S
C1504 H1518 0.960 . S
C1505 C1502 1.511 . S
C1505 H1519 0.961 . S
C1505 H1520 0.961 . S
C1505 H1521 0.961 . S
C1506 C1507 1.370 . S
C1506 C1508 1.363 . S
C1506 H1522 0.931 . S
C1507 C1506 1.370 . S
C1507 C1511 1.408 . S
C1508 C1506 1.363 . S
C1508 C1509 1.370 . S
C1508 C1512 1.524 . S
C1509 C1501 1.503 . S
C1509 C1508 1.370 . S
C1509 C1510 1.403 . S
C1510 C1509 1.403 . S
C1510 C1511 1.404 . S
C1510 C1513 1.539 . S
C1511 C1507 1.408 . S
C1511 C1510 1.404 . S
C1511 H1523 0.930 . S
C1512 C1508 1.524 . S
C1512 H1524 0.956 . S
C1512 H1525 0.961 . S
C1512 H1526 0.961 . S
C1513 C1510 1.539 . S
C1513 H1527 0.958 . S
C1513 H1528 0.961 . S
C1513 H1529 0.960 . S
H1514 C1498 0.931 . S
H1515 C1503 0.929 . S
H1516 C1504 0.960 . S
H1517 C1504 0.962 . S
H1518 C1504 0.960 . S
H1519 C1505 0.961 . S
H1520 C1505 0.961 . S
H1521 C1505 0.961 . S
H1522 C1506 0.931 . S
H1523 C1511 0.930 . S
H1524 C1512 0.956 . S
H1525 C1512 0.961 . S
H1526 C1512 0.961 . S
H1527 C1513 0.958 . S
H1528 C1513 0.961 . S
H1529 C1513 0.960 . S
C1530 C1531 1.391 . S
C1530 C1532 1.394 . S
C1530 H1546 0.931 . S
C1531 C1530 1.391 . S
C1531 C1535 1.376 . S
C1532 C1530 1.394 . S
C1532 C1533 1.369 . S
C1532 C1536 1.531 . S
C1533 C1532 1.369 . S
C1533 C1534 1.410 . S
C1533 C1541 1.503 . S
C1534 C1533 1.410 . S
C1534 C1535 1.392 . S
C1534 C1537 1.511 . S
C1535 C1531 1.376 . S
C1535 C1534 1.392 . S
C1535 H1547 0.929 . S
C1536 C1532 1.531 . S
C1536 H1548 0.960 . S
C1536 H1549 0.962 . S
C1536 H1550 0.960 . S
C1537 C1534 1.511 . S
C1537 H1551 0.961 . S
C1537 H1552 0.961 . S
C1537 H1553 0.961 . S
C1538 C1539 1.370 . S
C1538 C1540 1.363 . S
C1538 H1554 0.931 . S
C1539 C1538 1.370 . S
C1539 C1543 1.408 . S
C1540 C1538 1.363 . S
C1540 C1541 1.370 . S
C1540 C1544 1.524 . S
C1541 C1533 1.503 . S
C1541 C1540 1.370 . S
C1541 C1542 1.403 . S
C1542 C1541 1.403 . S
C1542 C1543 1.404 . S
C1542 C1545 1.539 . S
C1543 C1539 1.408 . S
C1543 C1542 1.404 . S
C1543 H1555 0.930 . S
C1544 C1540 1.524 . S
C1544 H1556 0.956 . S
C1544 H1557 0.961 . S
C1544 H1558 0.961 . S
C1545 C1542 1.539 . S
C1545 H1559 0.958 . S
C1545 H1560 0.961 . S
C1545 H1561 0.960 . S
H1546 C1530 0.931 . S
H1547 C1535 0.929 . S
H1548 C1536 0.960 . S
H1549 C1536 0.962 . S
H1550 C1536 0.960 . S
H1551 C1537 0.961 . S
H1552 C1537 0.961 . S
H1553 C1537 0.961 . S
H1554 C1538 0.931 . S
H1555 C1543 0.930 . S
H1556 C1544 0.956 . S
H1557 C1544 0.961 . S
H1558 C1544 0.961 . S
H1559 C1545 0.958 . S
H1560 C1545 0.961 . S
H1561 C1545 0.960 . S
C1562 C1563 1.391 . S
C1562 C1564 1.394 . S
C1562 H1578 0.931 . S
C1563 C1562 1.391 . S
C1563 C1567 1.376 . S
C1564 C1562 1.394 . S
C1564 C1565 1.369 . S
C1564 C1568 1.531 . S
C1565 C1564 1.369 . S
C1565 C1566 1.410 . S
C1565 C1573 1.503 . S
C1566 C1565 1.410 . S
C1566 C1567 1.392 . S
C1566 C1569 1.511 . S
C1567 C1563 1.376 . S
C1567 C1566 1.392 . S
C1567 H1579 0.929 . S
C1568 C1564 1.531 . S
C1568 H1580 0.960 . S
C1568 H1581 0.962 . S
C1568 H1582 0.960 . S
C1569 C1566 1.511 . S
C1569 H1583 0.961 . S
C1569 H1584 0.961 . S
C1569 H1585 0.961 . S
C1570 C1571 1.370 . S
C1570 C1572 1.363 . S
C1570 H1586 0.931 . S
C1571 C1570 1.370 . S
C1571 C1575 1.408 . S
C1572 C1570 1.363 . S
C1572 C1573 1.370 . S
C1572 C1576 1.524 . S
C1573 C1565 1.503 . S
C1573 C1572 1.370 . S
C1573 C1574 1.403 . S
C1574 C1573 1.403 . S
C1574 C1575 1.404 . S
C1574 C1577 1.539 . S
C1575 C1571 1.408 . S
C1575 C1574 1.404 . S
C1575 H1587 0.930 . S
C1576 C1572 1.524 . S
C1576 H1588 0.956 . S
C1576 H1589 0.961 . S
C1576 H1590 0.961 . S
C1577 C1574 1.539 . S
C1577 H1591 0.958 . S
C1577 H1592 0.961 . S
C1577 H1593 0.960 . S
H1578 C1562 0.931 . S
H1579 C1567 0.929 . S
H1580 C1568 0.960 . S
H1581 C1568 0.962 . S
H1582 C1568 0.960 . S
H1583 C1569 0.961 . S
H1584 C1569 0.961 . S
H1585 C1569 0.961 . S
H1586 C1570 0.931 . S
H1587 C1575 0.930 . S
H1588 C1576 0.956 . S
H1589 C1576 0.961 . S
H1590 C1576 0.961 . S
H1591 C1577 0.958 . S
H1592 C1577 0.961 . S
H1593 C1577 0.960 . S
C1594 C1595 1.391 . S
C1594 C1596 1.394 . S
C1594 H1610 0.931 . S
C1595 C1594 1.391 . S
C1595 C1599 1.376 . S
C1596 C1594 1.394 . S
C1596 C1597 1.369 . S
C1596 C1600 1.531 . S
C1597 C1596 1.369 . S
C1597 C1598 1.410 . S
C1597 C1605 1.503 . S
C1598 C1597 1.410 . S
C1598 C1599 1.392 . S
C1598 C1601 1.511 . S
C1599 C1595 1.376 . S
C1599 C1598 1.392 . S
C1599 H1611 0.929 . S
C1600 C1596 1.531 . S
C1600 H1612 0.960 . S
C1600 H1613 0.962 . S
C1600 H1614 0.960 . S
C1601 C1598 1.511 . S
C1601 H1615 0.961 . S
C1601 H1616 0.961 . S
C1601 H1617 0.961 . S
C1602 C1603 1.370 . S
C1602 C1604 1.363 . S
C1602 H1618 0.931 . S
C1603 C1602 1.370 . S
C1603 C1607 1.408 . S
C1604 C1602 1.363 . S
C1604 C1605 1.370 . S
C1604 C1608 1.524 . S
C1605 C1597 1.503 . S
C1605 C1604 1.370 . S
C1605 C1606 1.403 . S
C1606 C1605 1.403 . S
C1606 C1607 1.404 . S
C1606 C1609 1.539 . S
C1607 C1603 1.408 . S
C1607 C1606 1.404 . S
C1607 H1619 0.930 . S
C1608 C1604 1.524 . S
C1608 H1620 0.956 . S
C1608 H1621 0.961 . S
C1608 H1622 0.961 . S
C1609 C1606 1.539 . S
C1609 H1623 0.958 . S
C1609 H1624 0.961 . S
C1609 H1625 0.960 . S
H1610 C1594 0.931 . S
H1611 C1599 0.929 . S
H1612 C1600 0.960 . S
H1613 C1600 0.962 . S
H1614 C1600 0.960 . S
H1615 C1601 0.961 . S
H1616 C1601 0.961 . S
H1617 C1601 0.961 . S
H1618 C1602 0.931 . S
H1619 C1607 0.930 . S
H1620 C1608 0.956 . S
H1621 C1608 0.961 . S
H1622 C1608 0.961 . S
H1623 C1609 0.958 . S
H1624 C1609 0.961 . S
H1625 C1609 0.960 . S
C1626 C1627 1.391 . S
C1626 C1628 1.394 . S
C1626 H1642 0.931 . S
C1627 C1626 1.391 . S
C1627 C1631 1.376 . S
C1628 C1626 1.394 . S
C1628 C1629 1.369 . S
C1628 C1632 1.531 . S
C1629 C1628 1.369 . S
C1629 C1630 1.410 . S
C1629 C1637 1.503 . S
C1630 C1629 1.410 . S
C1630 C1631 1.392 . S
C1630 C1633 1.511 . S
C1631 C1627 1.376 . S
C1631 C1630 1.392 . S
C1631 H1643 0.929 . S
C1632 C1628 1.531 . S
C1632 H1644 0.960 . S
C1632 H1645 0.962 . S
C1632 H1646 0.960 . S
C1633 C1630 1.511 . S
C1633 H1647 0.961 . S
C1633 H1648 0.961 . S
C1633 H1649 0.961 . S
C1634 C1635 1.370 . S
C1634 C1636 1.363 . S
C1634 H1650 0.931 . S
C1635 C1634 1.370 . S
C1635 C1639 1.408 . S
C1636 C1634 1.363 . S
C1636 C1637 1.370 . S
C1636 C1640 1.524 . S
C1637 C1629 1.503 . S
C1637 C1636 1.370 . S
C1637 C1638 1.403 . S
C1638 C1637 1.403 . S
C1638 C1639 1.404 . S
C1638 C1641 1.539 . S
C1639 C1635 1.408 . S
C1639 C1638 1.404 . S
C1639 H1651 0.930 . S
C1640 C1636 1.524 . S
C1640 H1652 0.956 . S
C1640 H1653 0.961 . S
C1640 H1654 0.961 . S
C1641 C1638 1.539 . S
C1641 H1655 0.958 . S
C1641 H1656 0.961 . S
C1641 H1657 0.960 . S
H1642 C1626 0.931 . S
H1643 C1631 0.929 . S
H1644 C1632 0.960 . S
H1645 C1632 0.962 . S
H1646 C1632 0.960 . S
H1647 C1633 0.961 . S
H1648 C1633 0.961 . S
H1649 C1633 0.961 . S
H1650 C1634 0.931 . S
H1651 C1639 0.930 . S
H1652 C1640 0.956 . S
H1653 C1640 0.961 . S
H1654 C1640 0.961 . S
H1655 C1641 0.958 . S
H1656 C1641 0.961 . S
H1657 C1641 0.960 . S
C1658 C1659 1.391 . S
C1658 C1660 1.394 . S
C1658 H1674 0.931 . S
C1659 C1658 1.391 . S
C1659 C1663 1.376 . S
C1660 C1658 1.394 . S
C1660 C1661 1.369 . S
C1660 C1664 1.531 . S
C1661 C1660 1.369 . S
C1661 C1662 1.410 . S
C1661 C1669 1.503 . S
C1662 C1661 1.410 . S
C1662 C1663 1.392 . S
C1662 C1665 1.511 . S
C1663 C1659 1.376 . S
C1663 C1662 1.392 . S
C1663 H1675 0.929 . S
C1664 C1660 1.531 . S
C1664 H1676 0.960 . S
C1664 H1677 0.962 . S
C1664 H1678 0.960 . S
C1665 C1662 1.511 . S
C1665 H1679 0.961 . S
C1665 H1680 0.961 . S
C1665 H1681 0.961 . S
C1666 C1667 1.370 . S
C1666 C1668 1.363 . S
C1666 H1682 0.931 . S
C1667 C1666 1.370 . S
C1667 C1671 1.408 . S
C1668 C1666 1.363 . S
C1668 C1669 1.370 . S
C1668 C1672 1.524 . S
C1669 C1661 1.503 . S
C1669 C1668 1.370 . S
C1669 C1670 1.403 . S
C1670 C1669 1.403 . S
C1670 C1671 1.404 . S
C1670 C1673 1.539 . S
C1671 C1667 1.408 . S
C1671 C1670 1.404 . S
C1671 H1683 0.930 . S
C1672 C1668 1.524 . S
C1672 H1684 0.956 . S
C1672 H1685 0.961 . S
C1672 H1686 0.961 . S
C1673 C1670 1.539 . S
C1673 H1687 0.958 . S
C1673 H1688 0.961 . S
C1673 H1689 0.960 . S
H1674 C1658 0.931 . S
H1675 C1663 0.929 . S
H1676 C1664 0.960 . S
H1677 C1664 0.962 . S
H1678 C1664 0.960 . S
H1679 C1665 0.961 . S
H1680 C1665 0.961 . S
H1681 C1665 0.961 . S
H1682 C1666 0.931 . S
H1683 C1671 0.930 . S
H1684 C1672 0.956 . S
H1685 C1672 0.961 . S
H1686 C1672 0.961 . S
H1687 C1673 0.958 . S
H1688 C1673 0.961 . S
H1689 C1673 0.960 . S
C1690 C1691 1.391 . S
C1690 C1692 1.394 . S
C1690 H1706 0.931 . S
C1691 C1690 1.391 . S
C1691 C1695 1.376 . S
C1692 C1690 1.394 . S
C1692 C1693 1.369 . S
C1692 C1696 1.531 . S
C1693 C1692 1.369 . S
C1693 C1694 1.410 . S
C1693 C1701 1.503 . S
C1694 C1693 1.410 . S
C1694 C1695 1.392 . S
C1694 C1697 1.511 . S
C1695 C1691 1.376 . S
C1695 C1694 1.392 . S
C1695 H1707 0.929 . S
C1696 C1692 1.531 . S
C1696 H1708 0.960 . S
C1696 H1709 0.962 . S
C1696 H1710 0.960 . S
C1697 C1694 1.511 . S
C1697 H1711 0.961 . S
C1697 H1712 0.961 . S
C1697 H1713 0.961 . S
C1698 C1699 1.370 . S
C1698 C1700 1.363 . S
C1698 H1714 0.931 . S
C1699 C1698 1.370 . S
C1699 C1703 1.408 . S
C1700 C1698 1.363 . S
C1700 C1701 1.370 . S
C1700 C1704 1.524 . S
C1701 C1693 1.503 . S
C1701 C1700 1.370 . S
C1701 C1702 1.403 . S
C1702 C1701 1.403 . S
C1702 C1703 1.404 . S
C1702 C1705 1.539 . S
C1703 C1699 1.408 . S
C1703 C1702 1.404 . S
C1703 H1715 0.930 . S
C1704 C1700 1.524 . S
C1704 H1716 0.956 . S
C1704 H1717 0.961 . S
C1704 H1718 0.961 . S
C1705 C1702 1.539 . S
C1705 H1719 0.958 . S
C1705 H1720 0.961 . S
C1705 H1721 0.960 . S
H1706 C1690 0.931 . S
H1707 C1695 0.929 . S
H1708 C1696 0.960 . S
H1709 C1696 0.962 . S
H1710 C1696 0.960 . S
H1711 C1697 0.961 . S
H1712 C1697 0.961 . S
H1713 C1697 0.961 . S
H1714 C1698 0.931 . S
H1715 C1703 0.930 . S
H1716 C1704 0.956 . S
H1717 C1704 0.961 . S
H1718 C1704 0.961 . S
H1719 C1705 0.958 . S
H1720 C1705 0.961 . S
H1721 C1705 0.960 . S
C1722 C1723 1.391 . S
C1722 C1724 1.394 . S
C1722 H1738 0.931 . S
C1723 C1722 1.391 . S
C1723 C1727 1.376 . S
C1724 C1722 1.394 . S
C1724 C1725 1.369 . S
C1724 C1728 1.531 . S
C1725 C1724 1.369 . S
C1725 C1726 1.410 . S
C1725 C1733 1.503 . S
C1726 C1725 1.410 . S
C1726 C1727 1.392 . S
C1726 C1729 1.511 . S
C1727 C1723 1.376 . S
C1727 C1726 1.392 . S
C1727 H1739 0.929 . S
C1728 C1724 1.531 . S
C1728 H1740 0.960 . S
C1728 H1741 0.962 . S
C1728 H1742 0.960 . S
C1729 C1726 1.511 . S
C1729 H1743 0.961 . S
C1729 H1744 0.961 . S
C1729 H1745 0.961 . S
C1730 C1731 1.370 . S
C1730 C1732 1.363 . S
C1730 H1746 0.931 . S
C1731 C1730 1.370 . S
C1731 C1735 1.408 . S
C1732 C1730 1.363 . S
C1732 C1733 1.370 . S
C1732 C1736 1.524 . S
C1733 C1725 1.503 . S
C1733 C1732 1.370 . S
C1733 C1734 1.403 . S
C1734 C1733 1.403 . S
C1734 C1735 1.404 . S
C1734 C1737 1.539 . S
C1735 C1731 1.408 . S
C1735 C1734 1.404 . S
C1735 H1747 0.930 . S
C1736 C1732 1.524 . S
C1736 H1748 0.956 . S
C1736 H1749 0.961 . S
C1736 H1750 0.961 . S
C1737 C1734 1.539 . S
C1737 H1751 0.958 . S
C1737 H1752 0.961 . S
C1737 H1753 0.960 . S
H1738 C1722 0.931 . S
H1739 C1727 0.929 . S
H1740 C1728 0.960 . S
H1741 C1728 0.962 . S
H1742 C1728 0.960 . S
H1743 C1729 0.961 . S
H1744 C1729 0.961 . S
H1745 C1729 0.961 . S
H1746 C1730 0.931 . S
H1747 C1735 0.930 . S
H1748 C1736 0.956 . S
H1749 C1736 0.961 . S
H1750 C1736 0.961 . S
H1751 C1737 0.958 . S
H1752 C1737 0.961 . S
H1753 C1737 0.960 . S
C1754 C1755 1.391 . S
C1754 C1756 1.394 . S
C1754 H1770 0.931 . S
C1755 C1754 1.391 . S
C1755 C1759 1.376 . S
C1756 C1754 1.394 . S
C1756 C1757 1.369 . S
C1756 C1760 1.531 . S
C1757 C1756 1.369 . S
C1757 C1758 1.410 . S
C1757 C1765 1.503 . S
C1758 C1757 1.410 . S
C1758 C1759 1.392 . S
C1758 C1761 1.511 . S
C1759 C1755 1.376 . S
C1759 C1758 1.392 . S
C1759 H1771 0.929 . S
C1760 C1756 1.531 . S
C1760 H1772 0.960 . S
C1760 H1773 0.962 . S
C1760 H1774 0.960 . S
C1761 C1758 1.511 . S
C1761 H1775 0.961 . S
C1761 H1776 0.961 . S
C1761 H1777 0.961 . S
C1762 C1763 1.370 . S
C1762 C1764 1.363 . S
C1762 H1778 0.931 . S
C1763 C1762 1.370 . S
C1763 C1767 1.408 . S
C1764 C1762 1.363 . S
C1764 C1765 1.370 . S
C1764 C1768 1.524 . S
C1765 C1757 1.503 . S
C1765 C1764 1.370 . S
C1765 C1766 1.403 . S
C1766 C1765 1.403 . S
C1766 C1767 1.404 . S
C1766 C1769 1.539 . S
C1767 C1763 1.408 . S
C1767 C1766 1.404 . S
C1767 H1779 0.930 . S
C1768 C1764 1.524 . S
C1768 H1780 0.956 . S
C1768 H1781 0.961 . S
C1768 H1782 0.961 . S
C1769 C1766 1.539 . S
C1769 H1783 0.958 . S
C1769 H1784 0.961 . S
C1769 H1785 0.960 . S
H1770 C1754 0.931 . S
H1771 C1759 0.929 . S
H1772 C1760 0.960 . S
H1773 C1760 0.962 . S
H1774 C1760 0.960 . S
H1775 C1761 0.961 . S
H1776 C1761 0.961 . S
H1777 C1761 0.961 . S
H1778 C1762 0.931 . S
H1779 C1767 0.930 . S
H1780 C1768 0.956 . S
H1781 C1768 0.961 . S
H1782 C1768 0.961 . S
H1783 C1769 0.958 . S
H1784 C1769 0.961 . S
H1785 C1769 0.960 . S
C1786 C1787 1.391 . S
C1786 C1788 1.394 . S
C1786 H1802 0.931 . S
C1787 C1786 1.391 . S
C1787 C1791 1.376 . S
C1788 C1786 1.394 . S
C1788 C1789 1.369 . S
C1788 C1792 1.531 . S
C1789 C1788 1.369 . S
C1789 C1790 1.410 . S
C1789 C1797 1.503 . S
C1790 C1789 1.410 . S
C1790 C1791 1.392 . S
C1790 C1793 1.511 . S
C1791 C1787 1.376 . S
C1791 C1790 1.392 . S
C1791 H1803 0.929 . S
C1792 C1788 1.531 . S
C1792 H1804 0.960 . S
C1792 H1805 0.962 . S
C1792 H1806 0.960 . S
C1793 C1790 1.511 . S
C1793 H1807 0.961 . S
C1793 H1808 0.961 . S
C1793 H1809 0.961 . S
C1794 C1795 1.370 . S
C1794 C1796 1.363 . S
C1794 H1810 0.931 . S
C1795 C1794 1.370 . S
C1795 C1799 1.408 . S
C1796 C1794 1.363 . S
C1796 C1797 1.370 . S
C1796 C1800 1.524 . S
C1797 C1789 1.503 . S
C1797 C1796 1.370 . S
C1797 C1798 1.403 . S
C1798 C1797 1.403 . S
C1798 C1799 1.404 . S
C1798 C1801 1.539 . S
C1799 C1795 1.408 . S
C1799 C1798 1.404 . S
C1799 H1811 0.930 . S
C1800 C1796 1.524 . S
C1800 H1812 0.956 . S
C1800 H1813 0.961 . S
C1800 H1814 0.961 . S
C1801 C1798 1.539 . S
C1801 H1815 0.958 . S
C1801 H1816 0.961 . S
C1801 H1817 0.960 . S
H1802 C1786 0.931 . S
H1803 C1791 0.929 . S
H1804 C1792 0.960 . S
H1805 C1792 0.962 . S
H1806 C1792 0.960 . S
H1807 C1793 0.961 . S
H1808 C1793 0.961 . S
H1809 C1793 0.961 . S
H1810 C1794 0.931 . S
H1811 C1799 0.930 . S
H1812 C1800 0.956 . S
H1813 C1800 0.961 . S
H1814 C1800 0.961 . S
H1815 C1801 0.958 . S
H1816 C1801 0.961 . S
H1817 C1801 0.960 . S
C1818 C1819 1.391 . S
C1818 C1820 1.394 . S
C1818 H1834 0.931 . S
C1819 C1818 1.391 . S
C1819 C1823 1.376 . S
C1820 C1818 1.394 . S
C1820 C1821 1.369 . S
C1820 C1824 1.531 . S
C1821 C1820 1.369 . S
C1821 C1822 1.410 . S
C1821 C1829 1.503 . S
C1822 C1821 1.410 . S
C1822 C1823 1.392 . S
C1822 C1825 1.511 . S
C1823 C1819 1.376 . S
C1823 C1822 1.392 . S
C1823 H1835 0.929 . S
C1824 C1820 1.531 . S
C1824 H1836 0.960 . S
C1824 H1837 0.962 . S
C1824 H1838 0.960 . S
C1825 C1822 1.511 . S
C1825 H1839 0.961 . S
C1825 H1840 0.961 . S
C1825 H1841 0.961 . S
C1826 C1827 1.370 . S
C1826 C1828 1.363 . S
C1826 H1842 0.931 . S
C1827 C1826 1.370 . S
C1827 C1831 1.408 . S
C1828 C1826 1.363 . S
C1828 C1829 1.370 . S
C1828 C1832 1.524 . S
C1829 C1821 1.503 . S
C1829 C1828 1.370 . S
C1829 C1830 1.403 . S
C1830 C1829 1.403 . S
C1830 C1831 1.404 . S
C1830 C1833 1.539 . S
C1831 C1827 1.408 . S
C1831 C1830 1.404 . S
C1831 H1843 0.930 . S
C1832 C1828 1.524 . S
C1832 H1844 0.956 . S
C1832 H1845 0.961 . S
C1832 H1846 0.961 . S
C1833 C1830 1.539 . S
C1833 H1847 0.958 . S
C1833 H1848 0.961 . S
C1833 H1849 0.960 . S
H1834 C1818 0.931 . S
H1835 C1823 0.929 . S
H1836 C1824 0.960 . S
H1837 C1824 0.962 . S
H1838 C1824 0.960 . S
H1839 C1825 0.961 . S
H1840 C1825 0.961 . S
H1841 C1825 0.961 . S
H1842 C1826 0.931 . S
H1843 C1831 0.930 . S
H1844 C1832 0.956 . S
H1845 C1832 0.961 . S
H1846 C1832 0.961 . S
H1847 C1833 0.958 . S
H1848 C1833 0.961 . S
H1849 C1833 0.960 . S
C1850 C1851 1.391 . S
C1850 C1852 1.394 . S
C1850 H1866 0.931 . S
C1851 C1850 1.391 . S
C1851 C1855 1.376 . S
C1852 C1850 1.394 . S
C1852 C1853 1.369 . S
C1852 C1856 1.531 . S
C1853 C1852 1.369 . S
C1853 C1854 1.410 . S
C1853 C1861 1.503 . S
C1854 C1853 1.410 . S
C1854 C1855 1.392 . S
C1854 C1857 1.511 . S
C1855 C1851 1.376 . S
C1855 C1854 1.392 . S
C1855 H1867 0.929 . S
C1856 C1852 1.531 . S
C1856 H1868 0.960 . S
C1856 H1869 0.962 . S
C1856 H1870 0.960 . S
C1857 C1854 1.511 . S
C1857 H1871 0.961 . S
C1857 H1872 0.961 . S
C1857 H1873 0.961 . S
C1858 C1859 1.370 . S
C1858 C1860 1.363 . S
C1858 H1874 0.931 . S
C1859 C1858 1.370 . S
C1859 C1863 1.408 . S
C1860 C1858 1.363 . S
C1860 C1861 1.370 . S
C1860 C1864 1.524 . S
C1861 C1853 1.503 . S
C1861 C1860 1.370 . S
C1861 C1862 1.403 . S
C1862 C1861 1.403 . S
C1862 C1863 1.404 . S
C1862 C1865 1.539 . S
C1863 C1859 1.408 . S
C1863 C1862 1.404 . S
C1863 H1875 0.930 . S
C1864 C1860 1.524 . S
C1864 H1876 0.956 . S
C1864 H1877 0.961 . S
C1864 H1878 0.961 . S
C1865 C1862 1.539 . S
C1865 H1879 0.958 . S
C1865 H1880 0.961 . S
C1865 H1881 0.960 . S
H1866 C1850 0.931 . S
H1867 C1855 0.929 . S
H1868 C1856 0.960 . S
H1869 C1856 0.962 . S
H1870 C1856 0.960 . S
H1871 C1857 0.961 . S
H1872 C1857 0.961 . S
H1873 C1857 0.961 . S
H1874 C1858 0.931 . S
H1875 C1863 0.930 . S
H1876 C1864 0.956 . S
H1877 C1864 0.961 . S
H1878 C1864 0.961 . S
H1879 C1865 0.958 . S
H1880 C1865 0.961 . S
H1881 C1865 0.960 . S
C1882 C1883 1.391 . S
C1882 C1884 1.394 . S
C1882 H1898 0.931 . S
C1883 C1882 1.391 . S
C1883 C1887 1.376 . S
C1884 C1882 1.394 . S
C1884 C1885 1.369 . S
C1884 C1888 1.531 . S
C1885 C1884 1.369 . S
C1885 C1886 1.410 . S
C1885 C1893 1.503 . S
C1886 C1885 1.410 . S
C1886 C1887 1.392 . S
C1886 C1889 1.511 . S
C1887 C1883 1.376 . S
C1887 C1886 1.392 . S
C1887 H1899 0.929 . S
C1888 C1884 1.531 . S
C1888 H1900 0.960 . S
C1888 H1901 0.962 . S
C1888 H1902 0.960 . S
C1889 C1886 1.511 . S
C1889 H1903 0.961 . S
C1889 H1904 0.961 . S
C1889 H1905 0.961 . S
C1890 C1891 1.370 . S
C1890 C1892 1.363 . S
C1890 H1906 0.931 . S
C1891 C1890 1.370 . S
C1891 C1895 1.408 . S
C1892 C1890 1.363 . S
C1892 C1893 1.370 . S
C1892 C1896 1.524 . S
C1893 C1885 1.503 . S
C1893 C1892 1.370 . S
C1893 C1894 1.403 . S
C1894 C1893 1.403 . S
C1894 C1895 1.404 . S
C1894 C1897 1.539 . S
C1895 C1891 1.408 . S
C1895 C1894 1.404 . S
C1895 H1907 0.930 . S
C1896 C1892 1.524 . S
C1896 H1908 0.956 . S
C1896 H1909 0.961 . S
C1896 H1910 0.961 . S
C1897 C1894 1.539 . S
C1897 H1911 0.958 . S
C1897 H1912 0.961 . S
C1897 H1913 0.960 . S
H1898 C1882 0.931 . S
H1899 C1887 0.929 . S
H1900 C1888 0.960 . S
H1901 C1888 0.962 . S
H1902 C1888 0.960 . S
H1903 C1889 0.961 . S
H1904 C1889 0.961 . S
H1905 C1889 0.961 . S
H1906 C1890 0.931 . S
H1907 C1895 0.930 . S
H1908 C1896 0.956 . S
H1909 C1896 0.961 . S
H1910 C1896 0.961 . S
H1911 C1897 0.958 . S
H1912 C1897 0.961 . S
H1913 C1897 0.960 . S
C1914 C1915 1.391 . S
C1914 C1916 1.394 . S
C1914 H1930 0.931 . S
C1915 C1914 1.391 . S
C1915 C1919 1.376 . S
C1916 C1914 1.394 . S
C1916 C1917 1.369 . S
C1916 C1920 1.531 . S
C1917 C1916 1.369 . S
C1917 C1918 1.410 . S
C1917 C1925 1.503 . S
C1918 C1917 1.410 . S
C1918 C1919 1.392 . S
C1918 C1921 1.511 . S
C1919 C1915 1.376 . S
C1919 C1918 1.392 . S
C1919 H1931 0.929 . S
C1920 C1916 1.531 . S
C1920 H1932 0.960 . S
C1920 H1933 0.962 . S
C1920 H1934 0.960 . S
C1921 C1918 1.511 . S
C1921 H1935 0.961 . S
C1921 H1936 0.961 . S
C1921 H1937 0.961 . S
C1922 C1923 1.370 . S
C1922 C1924 1.363 . S
C1922 H1938 0.931 . S
C1923 C1922 1.370 . S
C1923 C1927 1.408 . S
C1924 C1922 1.363 . S
C1924 C1925 1.370 . S
C1924 C1928 1.524 . S
C1925 C1917 1.503 . S
C1925 C1924 1.370 . S
C1925 C1926 1.403 . S
C1926 C1925 1.403 . S
C1926 C1927 1.404 . S
C1926 C1929 1.539 . S
C1927 C1923 1.408 . S
C1927 C1926 1.404 . S
C1927 H1939 0.930 . S
C1928 C1924 1.524 . S
C1928 H1940 0.956 . S
C1928 H1941 0.961 . S
C1928 H1942 0.961 . S
C1929 C1926 1.539 . S
C1929 H1943 0.958 . S
C1929 H1944 0.961 . S
C1929 H1945 0.960 . S
H1930 C1914 0.931 . S
H1931 C1919 0.929 . S
H1932 C1920 0.960 . S
H1933 C1920 0.962 . S
H1934 C1920 0.960 . S
H1935 C1921 0.961 . S
H1936 C1921 0.961 . S
H1937 C1921 0.961 . S
H1938 C1922 0.931 . S
H1939 C1927 0.930 . S
H1940 C1928 0.956 . S
H1941 C1928 0.961 . S
H1942 C1928 0.961 . S
H1943 C1929 0.958 . S
H1944 C1929 0.961 . S
H1945 C1929 0.960 . S
C1946 C1947 1.391 . S
C1946 C1948 1.394 . S
C1946 H1962 0.931 . S
C1947 C1946 1.391 . S
C1947 C1951 1.376 . S
C1948 C1946 1.394 . S
C1948 C1949 1.369 . S
C1948 C1952 1.531 . S
C1949 C1948 1.369 . S
C1949 C1950 1.410 . S
C1949 C1957 1.503 . S
C1950 C1949 1.410 . S
C1950 C1951 1.392 . S
C1950 C1953 1.511 . S
C1951 C1947 1.376 . S
C1951 C1950 1.392 . S
C1951 H1963 0.929 . S
C1952 C1948 1.531 . S
C1952 H1964 0.960 . S
C1952 H1965 0.962 . S
C1952 H1966 0.960 . S
C1953 C1950 1.511 . S
C1953 H1967 0.961 . S
C1953 H1968 0.961 . S
C1953 H1969 0.961 . S
C1954 C1955 1.370 . S
C1954 C1956 1.363 . S
C1954 H1970 0.931 . S
C1955 C1954 1.370 . S
C1955 C1959 1.408 . S
C1956 C1954 1.363 . S
C1956 C1957 1.370 . S
C1956 C1960 1.524 . S
C1957 C1949 1.503 . S
C1957 C1956 1.370 . S
C1957 C1958 1.403 . S
C1958 C1957 1.403 . S
C1958 C1959 1.404 . S
C1958 C1961 1.539 . S
C1959 C1955 1.408 . S
C1959 C1958 1.404 . S
C1959 H1971 0.930 . S
C1960 C1956 1.524 . S
C1960 H1972 0.956 . S
C1960 H1973 0.961 . S
C1960 H1974 0.961 . S
C1961 C1958 1.539 . S
C1961 H1975 0.958 . S
C1961 H1976 0.961 . S
C1961 H1977 0.960 . S
H1962 C1946 0.931 . S
H1963 C1951 0.929 . S
H1964 C1952 0.960 . S
H1965 C1952 0.962 . S
H1966 C1952 0.960 . S
H1967 C1953 0.961 . S
H1968 C1953 0.961 . S
H1969 C1953 0.961 . S
H1970 C1954 0.931 . S
H1971 C1959 0.930 . S
H1972 C1960 0.956 . S
H1973 C1960 0.961 . S
H1974 C1960 0.961 . S
H1975 C1961 0.958 . S
H1976 C1961 0.961 . S
H1977 C1961 0.960 . S
C1978 C1979 1.391 . S
C1978 C1980 1.394 . S
C1978 H1994 0.931 . S
C1979 C1978 1.391 . S
C1979 C1983 1.376 . S
C1980 C1978 1.394 . S
C1980 C1981 1.369 . S
C1980 C1984 1.531 . S
C1981 C1980 1.369 . S
C1981 C1982 1.410 . S
C1981 C1989 1.503 . S
C1982 C1981 1.410 . S
C1982 C1983 1.392 . S
C1982 C1985 1.511 . S
C1983 C1979 1.376 . S
C1983 C1982 1.392 . S
C1983 H1995 0.929 . S
C1984 C1980 1.531 . S
C1984 H1996 0.960 . S
C1984 H1997 0.962 . S
C1984 H1998 0.960 . S
C1985 C1982 1.511 . S
C1985 H1999 0.961 . S
C1985 H2000 0.961 . S
C1985 H2001 0.961 . S
C1986 C1987 1.370 . S
C1986 C1988 1.363 . S
C1986 H2002 0.931 . S
C1987 C1986 1.370 . S
C1987 C1991 1.408 . S
C1988 C1986 1.363 . S
C1988 C1989 1.370 . S
C1988 C1992 1.524 . S
C1989 C1981 1.503 . S
C1989 C1988 1.370 . S
C1989 C1990 1.403 . S
C1990 C1989 1.403 . S
C1990 C1991 1.404 . S
C1990 C1993 1.539 . S
C1991 C1987 1.408 . S
C1991 C1990 1.404 . S
C1991 H2003 0.930 . S
C1992 C1988 1.524 . S
C1992 H2004 0.956 . S
C1992 H2005 0.961 . S
C1992 H2006 0.961 . S
C1993 C1990 1.539 . S
C1993 H2007 0.958 . S
C1993 H2008 0.961 . S
C1993 H2009 0.960 . S
H1994 C1978 0.931 . S
H1995 C1983 0.929 . S
H1996 C1984 0.960 . S
H1997 C1984 0.962 . S
H1998 C1984 0.960 . S
H1999 C1985 0.961 . S
H2000 C1985 0.961 . S
H2001 C1985 0.961 . S
H2002 C1986 0.931 . S
H2003 C1991 0.930 . S
H2004 C1992 0.956 . S
H2005 C1992 0.961 . S
H2006 C1992 0.961 . S
H2007 C1993 0.958 . S
H2008 C1993 0.961 . S
H2009 C1993 0.960 . S
C2010 C2011 1.391 . S
C2010 C2012 1.394 . S
C2010 H2026 0.931 . S
C2011 C2010 1.391 . S
C2011 C2015 1.376 . S
C2012 C2010 1.394 . S
C2012 C2013 1.369 . S
C2012 C2016 1.531 . S
C2013 C2012 1.369 . S
C2013 C2014 1.410 . S
C2013 C2021 1.503 . S
C2014 C2013 1.410 . S
C2014 C2015 1.392 . S
C2014 C2017 1.511 . S
C2015 C2011 1.376 . S
C2015 C2014 1.392 . S
C2015 H2027 0.929 . S
C2016 C2012 1.531 . S
C2016 H2028 0.960 . S
C2016 H2029 0.962 . S
C2016 H2030 0.960 . S
C2017 C2014 1.511 . S
C2017 H2031 0.961 . S
C2017 H2032 0.961 . S
C2017 H2033 0.961 . S
C2018 C2019 1.370 . S
C2018 C2020 1.363 . S
C2018 H2034 0.931 . S
C2019 C2018 1.370 . S
C2019 C2023 1.408 . S
C2020 C2018 1.363 . S
C2020 C2021 1.370 . S
C2020 C2024 1.524 . S
C2021 C2013 1.503 . S
C2021 C2020 1.370 . S
C2021 C2022 1.403 . S
C2022 C2021 1.403 . S
C2022 C2023 1.404 . S
C2022 C2025 1.539 . S
C2023 C2019 1.408 . S
C2023 C2022 1.404 . S
C2023 H2035 0.930 . S
C2024 C2020 1.524 . S
C2024 H2036 0.956 . S
C2024 H2037 0.961 . S
C2024 H2038 0.961 . S
C2025 C2022 1.539 . S
C2025 H2039 0.958 . S
C2025 H2040 0.961 . S
C2025 H2041 0.960 . S
H2026 C2010 0.931 . S
H2027 C2015 0.929 . S
H2028 C2016 0.960 . S
H2029 C2016 0.962 . S
H2030 C2016 0.960 . S
H2031 C2017 0.961 . S
H2032 C2017 0.961 . S
H2033 C2017 0.961 . S
H2034 C2018 0.931 . S
H2035 C2023 0.930 . S
H2036 C2024 0.956 . S
H2037 C2024 0.961 . S
H2038 C2024 0.961 . S
H2039 C2025 0.958 . S
H2040 C2025 0.961 . S
H2041 C2025 0.960 . S
C515 C331 1.813 . S
C507 C2 1.843 . S
C547 C321 1.403 . S
C539 C48 1.437 . S
C579 C322 1.019 . S
C571 C97 1.055 . S
C603 C149 0.482 . S
C611 C344 0.647 . S
C635 C189 1.433 . S
C643 C347 1.421 . S
C675 C330 1.018 . S
C667 C202 1.059 . S
C699 C248 0.367 . S
C707 C320 0.682 . S
C731 C297 1.835 . S
C739 C338 1.814 . S
C771 C351 2.687 . S
C763 C31 2.757 . S
C795 C52 1.706 . S
C803 C400 1.677 . S
C835 C378 1.448 . S
C827 C88 1.435 . S
C867 C392 0.983 . S
C859 C122 0.989 . S
C891 C162 1.025 . S
C899 C353 1.035 . S
C931 C406 2.673 . S
C923 C231 2.756 . S
C955 C252 1.720 . S
C963 C362 1.684 . S
C987 C288 1.444 . S
C995 C383 1.421 . S
C1019 C29 1.408 . S
C1027 C409 1.415 . S
C1051 C191 1.713 . S
C1059 C393 1.667 . S
C1091 C352 1.447 . S
C1083 C229 1.482 . S
C1123 C384 0.987 . S
C1115 C257 0.964 . S
C1147 C292 2.771 . S
C1155 C375 2.696 . S
C1179 C92 2.770 . S
C1187 C382 2.668 . S
C1219 C369 1.684 . S
C1211 C151 1.725 . S
C1243 C57 1.010 . S
C1251 C361 1.027 . S
C1275 C282 1.824 . S
C1283 C424 1.825 . S
C1307 C168 1.446 . S
C1315 C414 1.418 . S
C1347 C415 1.019 . S
C1339 C217 1.056 . S
C1379 C437 0.610 . S
C1371 C269 0.530 . S
C1403 C69 1.403 . S
C1411 C440 1.419 . S
C1443 C423 1.027 . S
C1435 C82 1.049 . S
C1467 C128 0.581 . S
C1475 C413 0.602 . S
C1499 C17 1.844 . S
C1507 C431 1.815 . S
C1531 C311 2.771 . S
C1539 C444 2.696 . S
C1571 C493 1.662 . S
C1563 C172 1.719 . S
C1595 C208 1.471 . S
C1603 C471 1.458 . S
C1627 C242 0.968 . S
C1635 C485 0.979 . S
C1667 C446 1.010 . S
C1659 C42 1.021 . S
C1691 C111 2.768 . S
C1699 C499 2.678 . S
C1731 C455 1.704 . S
C1723 C132 1.722 . S
C1763 C476 1.408 . S
C1755 C8 1.400 . S
C1795 C502 1.425 . S
C1787 C309 1.438 . S
C1819 C71 1.703 . S
C1827 C486 1.678 . S
C1851 C109 1.481 . S
C1859 C445 1.457 . S
C1891 C477 1.002 . S
C1883 C137 1.032 . S
C1915 C12 2.757 . S
C1923 C468 2.683 . S
C1947 C212 2.770 . S
C1955 C475 2.678 . S
C1987 C462 1.702 . S
C1979 C271 1.726 . S
C2019 C454 1.035 . S
C2011 C177 1.016 . S
