# Generated by pormake.
# Topology gar, (4,6)-cn, num edge types: 1
# Building blocks:
#     Node 0, Type 0, BuildingBlock: NAHDIM_clean_sbu_0, # of connection points: 4
#     Node 1, Type 0, BuildingBlock: NAHDIM_clean_sbu_0, # of connection points: 4
#     Node 2, Type 0, BuildingBlock: NAHDIM_clean_sbu_0, # of connection points: 4
#     Node 3, Type 0, BuildingBlock: NAHDIM_clean_sbu_0, # of connection points: 4
#     Node 4, Type 0, BuildingBlock: NAHDIM_clean_sbu_0, # of connection points: 4
#     Node 5, Type 0, BuildingBlock: NAHDIM_clean_sbu_0, # of connection points: 4
#     Node 6, Type 0, BuildingBlock: NAHDIM_clean_sbu_0, # of connection points: 4
#     Node 7, Type 0, BuildingBlock: NAHDIM_clean_sbu_0, # of connection points: 4
#     Node 8, Type 0, BuildingBlock: NAHDIM_clean_sbu_0, # of connection points: 4
#     Node 9, Type 0, BuildingBlock: NAHDIM_clean_sbu_0, # of connection points: 4
#     Node 10, Type 0, BuildingBlock: NAHDIM_clean_sbu_0, # of connection points: 4
#     Node 11, Type 0, BuildingBlock: NAHDIM_clean_sbu_0, # of connection points: 4
#     Node 12, Type 0, BuildingBlock: NAHDIM_clean_sbu_0, # of connection points: 4
#     Node 13, Type 0, BuildingBlock: NAHDIM_clean_sbu_0, # of connection points: 4
#     Node 14, Type 0, BuildingBlock: NAHDIM_clean_sbu_0, # of connection points: 4
#     Node 15, Type 0, BuildingBlock: NAHDIM_clean_sbu_0, # of connection points: 4
#     Node 16, Type 0, BuildingBlock: NAHDIM_clean_sbu_0, # of connection points: 4
#     Node 17, Type 0, BuildingBlock: NAHDIM_clean_sbu_0, # of connection points: 4
#     Node 18, Type 0, BuildingBlock: NAHDIM_clean_sbu_0, # of connection points: 4
#     Node 19, Type 0, BuildingBlock: NAHDIM_clean_sbu_0, # of connection points: 4
#     Node 20, Type 0, BuildingBlock: NAHDIM_clean_sbu_0, # of connection points: 4
#     Node 21, Type 0, BuildingBlock: NAHDIM_clean_sbu_0, # of connection points: 4
#     Node 22, Type 0, BuildingBlock: NAHDIM_clean_sbu_0, # of connection points: 4
#     Node 23, Type 0, BuildingBlock: NAHDIM_clean_sbu_0, # of connection points: 4
#     Node 24, Type 1, BuildingBlock: PAMTOO_clean_sbu_0, # of connection points: 6
#     Node 25, Type 1, BuildingBlock: PAMTOO_clean_sbu_0, # of connection points: 6
#     Node 26, Type 1, BuildingBlock: PAMTOO_clean_sbu_0, # of connection points: 6
#     Node 27, Type 1, BuildingBlock: PAMTOO_clean_sbu_0, # of connection points: 6
#     Node 28, Type 1, BuildingBlock: PAMTOO_clean_sbu_0, # of connection points: 6
#     Node 29, Type 1, BuildingBlock: PAMTOO_clean_sbu_0, # of connection points: 6
#     Node 30, Type 1, BuildingBlock: PAMTOO_clean_sbu_0, # of connection points: 6
#     Node 31, Type 1, BuildingBlock: PAMTOO_clean_sbu_0, # of connection points: 6
#     Node 32, Type 1, BuildingBlock: PAMTOO_clean_sbu_0, # of connection points: 6
#     Node 33, Type 1, BuildingBlock: PAMTOO_clean_sbu_0, # of connection points: 6
#     Node 34, Type 1, BuildingBlock: PAMTOO_clean_sbu_0, # of connection points: 6
#     Node 35, Type 1, BuildingBlock: PAMTOO_clean_sbu_0, # of connection points: 6
#     Node 36, Type 1, BuildingBlock: PAMTOO_clean_sbu_0, # of connection points: 6
#     Node 37, Type 1, BuildingBlock: PAMTOO_clean_sbu_0, # of connection points: 6
#     Node 38, Type 1, BuildingBlock: PAMTOO_clean_sbu_0, # of connection points: 6
#     Node 39, Type 1, BuildingBlock: PAMTOO_clean_sbu_0, # of connection points: 6
#     Edge 40, Type (0, 1), BuildingBlock: EZIPEK_clean_linker_0, # of connection points: 2
#     Edge 41, Type (0, 1), BuildingBlock: EZIPEK_clean_linker_0, # of connection points: 2
#     Edge 42, Type (0, 1), BuildingBlock: EZIPEK_clean_linker_0, # of connection points: 2
#     Edge 43, Type (0, 1), BuildingBlock: EZIPEK_clean_linker_0, # of connection points: 2
#     Edge 44, Type (0, 1), BuildingBlock: EZIPEK_clean_linker_0, # of connection points: 2
#     Edge 45, Type (0, 1), BuildingBlock: EZIPEK_clean_linker_0, # of connection points: 2
#     Edge 46, Type (0, 1), BuildingBlock: EZIPEK_clean_linker_0, # of connection points: 2
#     Edge 47, Type (0, 1), BuildingBlock: EZIPEK_clean_linker_0, # of connection points: 2
#     Edge 48, Type (0, 1), BuildingBlock: EZIPEK_clean_linker_0, # of connection points: 2
#     Edge 49, Type (0, 1), BuildingBlock: EZIPEK_clean_linker_0, # of connection points: 2
#     Edge 50, Type (0, 1), BuildingBlock: EZIPEK_clean_linker_0, # of connection points: 2
#     Edge 51, Type (0, 1), BuildingBlock: EZIPEK_clean_linker_0, # of connection points: 2
#     Edge 52, Type (0, 1), BuildingBlock: EZIPEK_clean_linker_0, # of connection points: 2
#     Edge 53, Type (0, 1), BuildingBlock: EZIPEK_clean_linker_0, # of connection points: 2
#     Edge 54, Type (0, 1), BuildingBlock: EZIPEK_clean_linker_0, # of connection points: 2
#     Edge 55, Type (0, 1), BuildingBlock: EZIPEK_clean_linker_0, # of connection points: 2
#     Edge 56, Type (0, 1), BuildingBlock: EZIPEK_clean_linker_0, # of connection points: 2
#     Edge 57, Type (0, 1), BuildingBlock: EZIPEK_clean_linker_0, # of connection points: 2
#     Edge 58, Type (0, 1), BuildingBlock: EZIPEK_clean_linker_0, # of connection points: 2
#     Edge 59, Type (0, 1), BuildingBlock: EZIPEK_clean_linker_0, # of connection points: 2
#     Edge 60, Type (0, 1), BuildingBlock: EZIPEK_clean_linker_0, # of connection points: 2
#     Edge 61, Type (0, 1), BuildingBlock: EZIPEK_clean_linker_0, # of connection points: 2
#     Edge 62, Type (0, 1), BuildingBlock: EZIPEK_clean_linker_0, # of connection points: 2
#     Edge 63, Type (0, 1), BuildingBlock: EZIPEK_clean_linker_0, # of connection points: 2
#     Edge 64, Type (0, 1), BuildingBlock: EZIPEK_clean_linker_0, # of connection points: 2
#     Edge 65, Type (0, 1), BuildingBlock: EZIPEK_clean_linker_0, # of connection points: 2
#     Edge 66, Type (0, 1), BuildingBlock: EZIPEK_clean_linker_0, # of connection points: 2
#     Edge 67, Type (0, 1), BuildingBlock: EZIPEK_clean_linker_0, # of connection points: 2
#     Edge 68, Type (0, 1), BuildingBlock: EZIPEK_clean_linker_0, # of connection points: 2
#     Edge 69, Type (0, 1), BuildingBlock: EZIPEK_clean_linker_0, # of connection points: 2
#     Edge 70, Type (0, 1), BuildingBlock: EZIPEK_clean_linker_0, # of connection points: 2
#     Edge 71, Type (0, 1), BuildingBlock: EZIPEK_clean_linker_0, # of connection points: 2
#     Edge 72, Type (0, 1), BuildingBlock: EZIPEK_clean_linker_0, # of connection points: 2
#     Edge 73, Type (0, 1), BuildingBlock: EZIPEK_clean_linker_0, # of connection points: 2
#     Edge 74, Type (0, 1), BuildingBlock: EZIPEK_clean_linker_0, # of connection points: 2
#     Edge 75, Type (0, 1), BuildingBlock: EZIPEK_clean_linker_0, # of connection points: 2
#     Edge 76, Type (0, 1), BuildingBlock: EZIPEK_clean_linker_0, # of connection points: 2
#     Edge 77, Type (0, 1), BuildingBlock: EZIPEK_clean_linker_0, # of connection points: 2
#     Edge 78, Type (0, 1), BuildingBlock: EZIPEK_clean_linker_0, # of connection points: 2
#     Edge 79, Type (0, 1), BuildingBlock: EZIPEK_clean_linker_0, # of connection points: 2
#     Edge 80, Type (0, 1), BuildingBlock: EZIPEK_clean_linker_0, # of connection points: 2
#     Edge 81, Type (0, 1), BuildingBlock: EZIPEK_clean_linker_0, # of connection points: 2
#     Edge 82, Type (0, 1), BuildingBlock: EZIPEK_clean_linker_0, # of connection points: 2
#     Edge 83, Type (0, 1), BuildingBlock: EZIPEK_clean_linker_0, # of connection points: 2
#     Edge 84, Type (0, 1), BuildingBlock: EZIPEK_clean_linker_0, # of connection points: 2
#     Edge 85, Type (0, 1), BuildingBlock: EZIPEK_clean_linker_0, # of connection points: 2
#     Edge 86, Type (0, 1), BuildingBlock: EZIPEK_clean_linker_0, # of connection points: 2
#     Edge 87, Type (0, 1), BuildingBlock: EZIPEK_clean_linker_0, # of connection points: 2
#     Edge 88, Type (0, 1), BuildingBlock: EZIPEK_clean_linker_0, # of connection points: 2
#     Edge 89, Type (0, 1), BuildingBlock: EZIPEK_clean_linker_0, # of connection points: 2
#     Edge 90, Type (0, 1), BuildingBlock: EZIPEK_clean_linker_0, # of connection points: 2
#     Edge 91, Type (0, 1), BuildingBlock: EZIPEK_clean_linker_0, # of connection points: 2
#     Edge 92, Type (0, 1), BuildingBlock: EZIPEK_clean_linker_0, # of connection points: 2
#     Edge 93, Type (0, 1), BuildingBlock: EZIPEK_clean_linker_0, # of connection points: 2
#     Edge 94, Type (0, 1), BuildingBlock: EZIPEK_clean_linker_0, # of connection points: 2
#     Edge 95, Type (0, 1), BuildingBlock: EZIPEK_clean_linker_0, # of connection points: 2
#     Edge 96, Type (0, 1), BuildingBlock: EZIPEK_clean_linker_0, # of connection points: 2
#     Edge 97, Type (0, 1), BuildingBlock: EZIPEK_clean_linker_0, # of connection points: 2
#     Edge 98, Type (0, 1), BuildingBlock: EZIPEK_clean_linker_0, # of connection points: 2
#     Edge 99, Type (0, 1), BuildingBlock: EZIPEK_clean_linker_0, # of connection points: 2
#     Edge 100, Type (0, 1), BuildingBlock: EZIPEK_clean_linker_0, # of connection points: 2
#     Edge 101, Type (0, 1), BuildingBlock: EZIPEK_clean_linker_0, # of connection points: 2
#     Edge 102, Type (0, 1), BuildingBlock: EZIPEK_clean_linker_0, # of connection points: 2
#     Edge 103, Type (0, 1), BuildingBlock: EZIPEK_clean_linker_0, # of connection points: 2
#     Edge 104, Type (0, 1), BuildingBlock: EZIPEK_clean_linker_0, # of connection points: 2
#     Edge 105, Type (0, 1), BuildingBlock: EZIPEK_clean_linker_0, # of connection points: 2
#     Edge 106, Type (0, 1), BuildingBlock: EZIPEK_clean_linker_0, # of connection points: 2
#     Edge 107, Type (0, 1), BuildingBlock: EZIPEK_clean_linker_0, # of connection points: 2
#     Edge 108, Type (0, 1), BuildingBlock: EZIPEK_clean_linker_0, # of connection points: 2
#     Edge 109, Type (0, 1), BuildingBlock: EZIPEK_clean_linker_0, # of connection points: 2
#     Edge 110, Type (0, 1), BuildingBlock: EZIPEK_clean_linker_0, # of connection points: 2
#     Edge 111, Type (0, 1), BuildingBlock: EZIPEK_clean_linker_0, # of connection points: 2
#     Edge 112, Type (0, 1), BuildingBlock: EZIPEK_clean_linker_0, # of connection points: 2
#     Edge 113, Type (0, 1), BuildingBlock: EZIPEK_clean_linker_0, # of connection points: 2
#     Edge 114, Type (0, 1), BuildingBlock: EZIPEK_clean_linker_0, # of connection points: 2
#     Edge 115, Type (0, 1), BuildingBlock: EZIPEK_clean_linker_0, # of connection points: 2
#     Edge 116, Type (0, 1), BuildingBlock: EZIPEK_clean_linker_0, # of connection points: 2
#     Edge 117, Type (0, 1), BuildingBlock: EZIPEK_clean_linker_0, # of connection points: 2
#     Edge 118, Type (0, 1), BuildingBlock: EZIPEK_clean_linker_0, # of connection points: 2
#     Edge 119, Type (0, 1), BuildingBlock: EZIPEK_clean_linker_0, # of connection points: 2
#     Edge 120, Type (0, 1), BuildingBlock: EZIPEK_clean_linker_0, # of connection points: 2
#     Edge 121, Type (0, 1), BuildingBlock: EZIPEK_clean_linker_0, # of connection points: 2
#     Edge 122, Type (0, 1), BuildingBlock: EZIPEK_clean_linker_0, # of connection points: 2
#     Edge 123, Type (0, 1), BuildingBlock: EZIPEK_clean_linker_0, # of connection points: 2
#     Edge 124, Type (0, 1), BuildingBlock: EZIPEK_clean_linker_0, # of connection points: 2
#     Edge 125, Type (0, 1), BuildingBlock: EZIPEK_clean_linker_0, # of connection points: 2
#     Edge 126, Type (0, 1), BuildingBlock: EZIPEK_clean_linker_0, # of connection points: 2
#     Edge 127, Type (0, 1), BuildingBlock: EZIPEK_clean_linker_0, # of connection points: 2
#     Edge 128, Type (0, 1), BuildingBlock: EZIPEK_clean_linker_0, # of connection points: 2
#     Edge 129, Type (0, 1), BuildingBlock: EZIPEK_clean_linker_0, # of connection points: 2
#     Edge 130, Type (0, 1), BuildingBlock: EZIPEK_clean_linker_0, # of connection points: 2
#     Edge 131, Type (0, 1), BuildingBlock: EZIPEK_clean_linker_0, # of connection points: 2
#     Edge 132, Type (0, 1), BuildingBlock: EZIPEK_clean_linker_0, # of connection points: 2
#     Edge 133, Type (0, 1), BuildingBlock: EZIPEK_clean_linker_0, # of connection points: 2
#     Edge 134, Type (0, 1), BuildingBlock: EZIPEK_clean_linker_0, # of connection points: 2
#     Edge 135, Type (0, 1), BuildingBlock: EZIPEK_clean_linker_0, # of connection points: 2
# Relax obj value: 0.201
# Max RMSD: 0.275
# Mean RMSD: 0.190
data_MOF--net-gar--node1-NAHDIM_clean_sbu_0--node2-PAMTOO_clean_sbu_0--edge1-EZIPEK_clean_linker_0
_symmetry_space_group_name_H-M    P1
_symmetry_Int_Tables_number       1
_symmetry_cell_setting            triclinic
loop_
_symmetry_equiv_pos_as_xyz
'x, y, z'
_cell_length_a     45.886702
_cell_length_b     45.148656
_cell_length_c     42.184223
_cell_angle_alpha  97.968548
_cell_angle_beta   97.454183
_cell_angle_gamma 105.67584
loop_
_atom_site_label
_atom_site_type_symbol
_atom_site_fract_x
_atom_site_fract_y
_atom_site_fract_z
_atom_type_partial_charge
C0 C 0.13448 0.33636 0.34681 0.0
O1 O 0.12319 0.31287 0.36121 0.0
O2 O 0.06891 0.31823 0.38868 0.0
Zn3 Zn 0.07691 0.3561 0.36552 0.0
O4 O 0.08492 0.39565 0.40239 0.0
C5 C 1.00831 0.34795 0.35027 0.0
O6 O 1.01208 0.34728 0.38149 0.0
O7 O 0.11913 0.3565 0.34419 0.0
C8 C 0.07622 0.42002 0.39982 0.0
O9 O 0.06306 0.42281 0.3713 0.0
C10 C 0.07509 0.32104 0.41949 0.0
O11 O 0.0878 0.34897 0.43736 0.0
O12 O 0.03227 0.35132 0.33637 0.0
C13 C 0.97877 0.78616 0.74413 0.0
O14 O 0.97951 0.79437 0.7155 0.0
O15 O 0.03259 0.72678 0.70368 0.0
Zn16 Zn 0.04064 0.77177 0.73173 0.0
O17 O 0.04417 0.80269 0.70048 0.0
C18 C 0.10986 0.77963 0.74409 0.0
O19 O 0.10375 0.77048 0.71243 0.0
O20 O 1.0012 0.77637 0.75635 0.0
C21 C 0.05914 0.83141 0.71034 0.0
O22 O 0.07189 0.8411 0.7411 0.0
C23 C 0.03864 0.72253 0.67483 0.0
O24 O 0.04762 0.74687 0.66087 0.0
O25 O 0.08745 0.78234 0.75894 0.0
C26 C 0.63993 0.84923 0.85269 0.0
O27 O 0.64096 0.84204 0.88185 0.0
O28 O 0.57404 0.81999 0.8914 0.0
Zn29 Zn 0.57645 0.85648 0.86673 0.0
O30 O 0.58643 0.89778 0.90235 0.0
C31 C 0.50479 0.83214 0.84644 0.0
O32 O 0.5075 0.81152 0.86479 0.0
O33 O 0.61577 0.85647 0.84059 0.0
C34 C 0.56463 0.90815 0.91094 0.0
O35 O 0.53636 0.89345 0.89635 0.0
C36 C 0.56257 0.81794 0.91721 0.0
O37 O 0.55138 0.84009 0.92919 0.0
O38 O 0.52974 0.85094 0.84107 0.0
C39 C 0.47671 0.27564 0.2435 0.0
O40 O 0.47103 0.26835 0.21162 0.0
O41 O 0.52928 0.22394 0.2046 0.0
Zn42 Zn 0.54119 0.26966 0.23182 0.0
O43 O 0.54271 0.29841 0.19808 0.0
C44 C 0.61328 0.28864 0.24459 0.0
O45 O 0.6101 0.29723 0.21621 0.0
O46 O 0.50389 0.27709 0.25818 0.0
C47 C 0.55767 0.32737 0.20473 0.0
O48 O 0.57251 0.33959 0.23448 0.0
C49 C 0.54783 0.21759 0.18632 0.0
O50 O 0.57244 0.24004 0.18502 0.0
O51 O 0.58884 0.27833 0.25696 0.0
C52 C 0.04214 0.82212 0.13966 0.0
O53 O 0.03298 0.81223 0.10821 0.0
O54 O 0.08735 0.78522 0.09776 0.0
Zn55 Zn 0.10176 0.83458 0.12088 0.0
O56 O 0.09728 0.87246 0.09447 0.0
C57 C 0.1699 0.84281 0.14916 0.0
O58 O 0.17538 0.8387 0.11932 0.0
O59 O 0.0707 0.83375 0.15095 0.0
C60 C 0.09785 0.90003 0.10869 0.0
O61 O 0.10265 0.90606 0.14059 0.0
C62 C 0.10325 0.76585 0.10097 0.0
O63 O 0.13223 0.77726 0.11484 0.0
O64 O 0.14315 0.84387 0.15372 0.0
C65 C 0.57423 0.81597 0.44736 0.0
O66 O 0.58368 0.82965 0.47796 0.0
O67 O 0.51869 0.75221 0.4861 0.0
Zn68 Zn 0.51415 0.79452 0.46704 0.0
O69 O 0.52513 0.84061 0.49647 0.0
C70 C 0.44572 0.78126 0.43316 0.0
O71 O 0.43567 0.76952 0.45787 0.0
O72 O 0.54627 0.79989 0.43777 0.0
C73 C 0.52274 0.8632 0.48154 0.0
O74 O 0.51292 0.85634 0.44999 0.0
C75 C 0.5096 0.73628 0.50809 0.0
O76 O 0.49207 0.74601 0.52683 0.0
O77 O 0.47465 0.79027 0.4333 0.0
C78 C 0.54679 0.31417 0.64733 0.0
O79 O 0.53932 0.29254 0.62101 0.0
O80 O 0.59207 0.28768 0.59729 0.0
Zn81 Zn 0.60495 0.33635 0.62289 0.0
O82 O 0.60139 0.37508 0.59658 0.0
C83 C 0.67306 0.34309 0.6535 0.0
O84 O 0.67949 0.33908 0.62404 0.0
O85 O 0.57272 0.33516 0.65263 0.0
C86 C 0.59601 0.40037 0.6098 0.0
O87 O 0.59361 0.40344 0.64069 0.0
C88 C 0.60821 0.26834 0.59909 0.0
O89 O 0.63692 0.2794 0.61389 0.0
O90 O 0.64611 0.3447 0.65695 0.0
C91 C 0.07176 0.30964 0.94893 0.0
O92 O 0.08372 0.31879 0.97994 0.0
O93 O 1.01822 0.25124 0.99117 0.0
Zn94 Zn 1.01303 0.29336 0.97281 0.0
O95 O 0.02572 0.33882 0.00329 0.0
C96 C 0.94921 0.29891 0.95069 0.0
O97 O 0.95054 0.31063 0.98133 0.0
O98 O 0.04276 0.29821 0.94038 0.0
C99 C 0.02498 0.3622 0.98907 0.0
O100 O 1.01644 0.35642 0.95734 0.0
C101 C 1.00921 0.23548 0.01326 0.0
O102 O 0.99212 0.24554 0.03235 0.0
O103 O 0.97097 0.28824 0.94287 0.0
C104 C 0.37465 0.07731 0.30986 0.0
O105 O 0.40398 0.08868 0.30877 0.0
O106 O 0.41229 0.01639 0.29544 0.0
Zn107 Zn 0.39415 0.02896 0.33366 0.0
O108 O 0.42815 0.052 0.37017 0.0
C109 C 0.35305 0.9899 0.36822 0.0
O110 O 0.34921 0.01561 0.38344 0.0
O111 O 0.36536 0.05228 0.32067 0.0
C112 C 0.45492 0.06523 0.36529 0.0
O113 O 0.45971 0.06741 0.33558 0.0
C114 C 0.40126 0.98999 0.27676 0.0
O115 O 0.37616 0.97005 0.2814 0.0
O116 O 0.37067 0.99093 0.34733 0.0
C117 C 0.35155 0.2109 0.54955 0.0
O118 O 0.36234 0.2415 0.55772 0.0
O119 O 0.29788 0.24655 0.58329 0.0
Zn120 Zn 0.29316 0.22302 0.53735 0.0
O121 O 0.30298 0.24964 0.50256 0.0
C122 C 0.22773 0.1977 0.53464 0.0
O123 O 0.22947 0.22696 0.5453 0.0
O124 O 0.32298 0.19809 0.53962 0.0
C125 C 0.28848 0.2404 0.47344 0.0
O126 O 0.26525 0.21469 0.4665 0.0
C127 C 0.29203 0.27184 0.59329 0.0
O128 O 0.28294 0.28788 0.57233 0.0
O129 O 0.25141 0.19096 0.52726 0.0
C130 C 0.17325 0.03168 0.78479 0.0
O131 O 0.14898 0.02752 0.76252 0.0
O132 O 0.12495 0.07754 0.77351 0.0
Zn133 Zn 0.15273 0.08192 0.81725 0.0
O134 O 0.1318 0.07059 0.85612 0.0
C135 C 0.19662 0.13525 0.80613 0.0
O136 O 0.19238 0.11615 0.77834 0.0
O137 O 0.17914 0.05303 0.80982 0.0
C138 C 0.12937 0.09099 0.87896 0.0
O139 O 0.13807 0.12065 0.8764 0.0
C140 C 0.1135 0.09822 0.76398 0.0
O141 O 0.11527 0.12342 0.78478 0.0
O142 O 0.18184 0.126 0.82817 0.0
C143 C 0.2603 0.00823 0.01529 0.0
O144 O 0.24493 0.98436 0.02687 0.0
O145 O 0.29028 0.95952 0.05186 0.0
Zn146 Zn 0.29728 0.96939 0.00838 0.0
O147 O 0.28124 0.93362 0.97113 0.0
C148 C 0.3596 0.97384 0.03236 0.0
O149 O 0.34737 0.95414 0.05049 0.0
O150 O 0.28307 1.00626 1.00205 0.0
C151 C 0.29171 0.91047 0.97269 0.0
O152 O 0.30832 0.90903 0.99986 0.0
C153 C 0.27454 0.93563 0.06106 0.0
O154 O 0.25839 0.91136 0.03883 0.0
O155 O 0.34277 0.98359 0.01251 0.0
C156 C 0.27625 0.41779 0.07181 0.0
O157 O 0.27117 0.39198 0.08396 0.0
O158 O 0.33224 0.39352 0.11065 0.0
Zn159 Zn 0.33437 0.40741 0.06679 0.0
O160 O 0.32818 0.37475 0.02576 0.0
C161 C 0.39965 0.44475 0.08539 0.0
O162 O 0.40265 0.42571 0.10559 0.0
O163 O 0.30113 0.42809 0.06142 0.0
C164 C 0.33375 0.38754 1.00119 0.0
O165 O 0.34234 0.41822 0.0051 0.0
C166 C 0.3291 0.36677 0.1184 0.0
O167 O 0.32848 0.3429 0.09636 0.0
O168 O 0.37374 0.44116 0.06814 0.0
C169 C 0.82475 0.11026 0.07103 0.0
O170 O 0.81058 0.10772 0.0961 0.0
O171 O 0.81935 0.18372 0.11561 0.0
Zn172 Zn 0.80157 0.16129 0.07048 0.0
O173 O 0.80002 0.19199 0.04088 0.0
C174 C 0.74294 0.14261 0.09035 0.0
O175 O 0.75514 0.16675 0.11407 0.0
O176 O 0.82492 0.13268 0.05588 0.0
C177 C 0.78508 0.2113 0.04751 0.0
O178 O 0.77229 0.21114 0.07359 0.0
C179 C 0.83973 0.21008 0.12226 0.0
O180 O 0.84979 0.22248 0.09794 0.0
O181 O 0.75884 0.13556 0.06965 0.0
C182 C 0.2622 0.5665 0.2959 0.0
O183 O 0.26817 0.59596 0.30938 0.0
O184 O 0.1857 0.56932 0.21964 0.0
Zn185 Zn 0.22024 0.58571 0.25801 0.0
O186 O 0.20345 0.60233 0.29611 0.0
C187 C 0.24572 0.64358 0.24038 0.0
O188 O 0.21768 0.64513 0.24148 0.0
O189 O 0.24061 0.55468 0.27159 0.0
C190 C 0.21502 0.62696 0.31747 0.0
O191 O 0.24189 0.64633 0.31669 0.0
C192 C 0.15827 0.56722 0.22363 0.0
O193 O 0.1521 0.57221 0.25309 0.0
O194 O 0.25248 0.6192 0.24586 0.0
C195 C 0.77614 0.92927 0.54361 0.0
O196 O 0.76258 0.89899 0.53618 0.0
O197 O 0.81861 0.88902 0.59626 0.0
Zn198 Zn 0.82951 0.90929 0.55727 0.0
O199 O 0.81825 0.87977 0.5135 0.0
C200 C 0.88864 0.95677 0.58589 0.0
O201 O 0.87641 0.96136 0.61194 0.0
O202 O 0.80496 0.93941 0.5535 0.0
C203 C 0.83886 0.87351 0.49853 0.0
O204 O 0.86763 0.88273 0.51331 0.0
C205 C 0.83728 0.88308 0.61775 0.0
O206 O 0.86625 0.88817 0.61474 0.0
O207 O 0.87361 0.93533 0.56204 0.0
C208 C 0.9348 0.08977 0.32126 0.0
O209 O 0.93856 0.0745 0.34507 0.0
O210 O 0.98993 0.053 0.25201 0.0
Zn211 Zn 0.97008 0.05294 0.29328 0.0
O212 O 0.99938 0.06181 0.33685 0.0
C213 C 0.91977 0.99458 0.2672 0.0
O214 O 0.91818 1.00467 0.23946 0.0
O215 O 0.94649 0.08476 0.29605 0.0
C216 C 1.00434 0.03952 0.35014 0.0
O217 O 0.99448 0.01084 0.33344 0.0
C218 C 0.9822 0.0672 0.22961 0.0
O219 O 0.96229 0.0829 0.23372 0.0
O220 O 0.93958 0.0109 0.29159 0.0
C221 C 0.3231 0.59383 0.58594 0.0
O222 O 0.29881 0.59075 0.59998 0.0
O223 O 0.33283 0.6869 0.62137 0.0
Zn224 Zn 0.3168 0.65442 0.58077 0.0
O225 O 0.31859 0.67367 0.54067 0.0
C226 C 0.25653 0.6461 0.5992 0.0
O227 O 0.27001 0.66959 0.62326 0.0
O228 O 0.33559 0.61949 0.57734 0.0
C229 C 0.29762 0.65952 0.51636 0.0
O230 O 0.27956 0.63161 0.51691 0.0
C231 C 0.33822 0.71578 0.62005 0.0
O232 O 0.33914 0.725 0.59193 0.0
O233 O 0.2721 0.63584 0.58 0.0
C234 C 0.45161 0.60262 0.80246 0.0
O235 O 0.48083 0.61689 0.81397 0.0
O236 O 0.49175 0.54786 0.74879 0.0
Zn237 Zn 0.47181 0.54696 0.79013 0.0
O238 O 0.49978 0.55861 0.83467 0.0
C239 C 0.42343 0.48733 0.76682 0.0
O240 O 0.41998 0.497 0.73898 0.0
O241 O 0.44309 0.57363 0.79044 0.0
C242 C 0.5119 0.53919 0.84618 0.0
O243 O 0.51128 0.5135 0.82681 0.0
C244 C 0.49387 0.57009 0.73268 0.0
O245 O 0.48553 0.59454 0.74398 0.0
O246 O 0.44438 0.504 0.79007 0.0
C247 C 0.75684 0.05075 0.75453 0.0
O248 O 0.75978 0.0735 0.73775 0.0
O249 O 0.6726 0.05492 0.72577 0.0
Zn250 Zn 0.70186 0.06511 0.76837 0.0
O251 O 0.68026 0.05709 0.80606 0.0
C252 C 0.72055 0.12855 0.75667 0.0
O253 O 0.70359 0.11625 0.72789 0.0
O254 O 0.73335 0.04246 0.7678 0.0
C255 C 0.66267 0.07406 0.8103 0.0
O256 O 0.65863 0.09198 0.78929 0.0
C257 C 0.64395 0.04113 0.72119 0.0
O258 O 0.63125 0.02974 0.74474 0.0
O259 O 0.72363 0.11123 0.77738 0.0
C260 C 0.854 0.71467 0.02601 0.0
O261 O 0.86377 0.74369 0.02159 0.0
O262 O 0.79939 0.75001 0.07655 0.0
Zn263 Zn 0.79446 0.72603 0.03023 0.0
O264 O 0.79902 0.75245 0.99439 0.0
C265 C 0.72951 0.69309 0.02859 0.0
O266 O 0.72717 0.72073 0.03998 0.0
O267 O 0.82657 0.7035 0.03023 0.0
C268 C 0.79516 0.73829 0.96513 0.0
O269 O 0.7869 0.70758 0.959 0.0
C270 C 0.78685 0.77075 0.08633 0.0
O271 O 0.76993 0.7807 0.06512 0.0
O272 O 0.75473 0.69051 0.02107 0.0
C273 C 0.90576 0.62436 0.8177 0.0
O274 O 0.93326 0.63453 0.81056 0.0
O275 O 0.95669 0.57911 0.80885 0.0
Zn276 Zn 0.92949 0.57835 0.84256 0.0
O277 O 0.9554 0.59289 0.8869 0.0
C278 C 0.91134 0.51124 0.82442 0.0
O279 O 0.93541 0.51637 0.80995 0.0
O280 O 0.8996 0.60185 0.83297 0.0
C281 C 0.97443 0.57732 0.89071 0.0
O282 O 0.97492 0.55564 0.86679 0.0
C283 C 0.98285 0.59887 0.81133 0.0
O284 O 0.99273 0.62253 0.83579 0.0
O285 O 0.90449 0.53392 0.83979 0.0
C286 C 0.76421 0.48775 0.53499 0.0
O287 O 0.74548 0.46089 0.51895 0.0
O288 O 0.81966 0.4354 0.55321 0.0
Zn289 Zn 0.81329 0.46244 0.52122 0.0
O290 O 0.79071 0.43451 0.47921 0.0
C291 C 0.8744 0.47513 0.50718 0.0
O292 O 0.86646 0.44496 0.49619 0.0
O293 O 0.79296 0.49252 0.53866 0.0
C294 C 0.80081 0.43917 0.45325 0.0
O295 O 0.82048 0.46614 0.45251 0.0
C296 C 0.80314 0.40728 0.54986 0.0
O297 O 0.77973 0.39568 0.52581 0.0
O298 O 0.85503 0.48772 0.51744 0.0
C299 C 0.67874 0.528 0.29621 0.0
O300 O 0.64913 0.51471 0.2862 0.0
O301 O 0.63164 0.57344 0.27143 0.0
Zn302 Zn 0.65876 0.58183 0.31617 0.0
O303 O 0.63756 0.5704 0.35493 0.0
C304 C 0.69736 0.63614 0.30111 0.0
O305 O 0.69241 0.61617 0.27379 0.0
O306 O 0.68835 0.55636 0.31069 0.0
C307 C 0.62771 0.58913 0.37313 0.0
O308 O 0.62896 0.61676 0.36581 0.0
C309 C 0.61579 0.5905 0.2612 0.0
O310 O 0.61215 0.61337 0.28171 0.0
O311 O 0.68481 0.62713 0.3247 0.0
Dy312 Dy 0.08787 0.08765 0.07428 0.0
Dy313 Dy 0.02441 0.04348 0.03083 0.0
C314 C 0.08384 0.06615 0.99837 0.0
O315 O 0.06737 0.12148 0.05084 0.0
O316 O 1.01695 0.0919 0.03705 0.0
O317 O 0.12721 0.12827 0.08056 0.0
O318 O 0.12189 0.10044 0.11828 0.0
O319 O 1.01706 0.04499 0.08264 0.0
O320 O 0.05322 0.09121 0.10602 0.0
O321 O 0.05352 0.0104 0.03699 0.0
O322 O 0.08569 0.03844 0.0837 0.0
O323 O 0.9882 0.99963 0.02094 0.0
O324 O 0.98773 0.03344 0.98965 0.0
C325 C 0.03831 0.11915 0.0406 0.0
O326 O 0.10059 0.06959 0.02713 0.0
O327 O 0.05395 0.06027 0.99506 0.0
C328 C 0.17108 0.11761 0.10408 0.0
C329 C 0.21732 0.10004 0.07642 0.0
C330 C 0.19916 0.08009 0.09354 0.0
C331 C 0.17619 0.08879 0.10738 0.0
C332 C 0.19188 0.13915 0.09049 0.0
C333 C 0.21503 0.13037 0.07664 0.0
C334 C 0.14073 0.1217 0.10663 0.0
C335 C 0.02931 0.06804 0.10745 0.0
C336 C 0.07277 0.01146 0.06356 0.0
C337 C 0.94072 0.00845 0.00371 0.0
C338 C 0.89221 0.02888 0.02257 0.0
C339 C 0.90724 0.01354 0.0429 0.0
C340 C 0.93146 1.0034 0.03355 0.0
C341 C 0.92292 0.02009 0.98175 0.0
C342 C 0.89885 0.0305 0.99126 0.0
C343 C 0.97182 0.00837 0.99852 0.0
H344 H 0.20113 0.05674 0.0939 0.0
H345 H 0.16074 0.07171 0.11786 0.0
H346 H 0.18835 0.16151 0.08776 0.0
H347 H 0.22924 0.14605 0.06372 0.0
H348 H 0.90223 0.01221 0.06716 0.0
H349 H 0.94455 0.99427 0.05096 0.0
H350 H 0.92949 0.02398 0.95856 0.0
H351 H 0.88729 0.0423 0.97538 0.0
Dy352 Dy 0.3398 0.83353 0.26926 0.0
Dy353 Dy 0.28558 0.7941 0.30242 0.0
C354 C 0.31592 0.86562 0.32786 0.0
O355 O 0.36604 0.82613 0.31508 0.0
O356 O 0.32879 0.785 0.32583 0.0
O357 O 0.37861 0.87343 0.26944 0.0
O358 O 0.36166 0.8364 0.22707 0.0
O359 O 0.28438 0.77087 0.25212 0.0
O360 O 0.33555 0.78286 0.25631 0.0
O361 O 0.26088 0.81975 0.27207 0.0
O362 O 0.2951 0.83095 0.23701 0.0
O363 O 0.24978 0.78845 0.33159 0.0
O364 O 0.25862 0.74781 0.30545 0.0
C365 C 0.35741 0.80323 0.33129 0.0
O366 O 0.32236 0.86764 0.29874 0.0
O367 O 0.30705 0.83874 0.33729 0.0
C368 C 0.37191 0.8874 0.21762 0.0
C369 C 0.34201 0.91375 0.17194 0.0
C370 C 0.34017 0.9208 0.20482 0.0
C371 C 0.35467 0.90736 0.22747 0.0
C372 C 0.37652 0.88325 0.18526 0.0
C373 C 0.36146 0.89625 0.16241 0.0
C374 C 0.37801 0.86536 0.23832 0.0
C375 C 0.3084 0.7635 0.24429 0.0
C376 C 0.26766 0.82854 0.2448 0.0
C377 C 0.24951 0.74617 0.35793 0.0
C378 C 0.2622 0.71824 0.41102 0.0
C379 C 0.23233 0.70934 0.39292 0.0
C380 C 0.22602 0.72306 0.36611 0.0
C381 C 0.27889 0.75608 0.37713 0.0
C382 C 0.28527 0.74215 0.40349 0.0
C383 C 0.24498 0.75822 0.32794 0.0
H384 H 0.32565 0.93474 0.21252 0.0
H385 H 0.35029 0.91059 0.25214 0.0
H386 H 0.38948 0.86773 0.17711 0.0
H387 H 0.3632 0.89084 0.13702 0.0
H388 H 0.21415 0.69171 0.39938 0.0
H389 H 0.2032 0.7153 0.35152 0.0
H390 H 0.29711 0.77392 0.37105 0.0
H391 H 0.30835 0.74946 0.41752 0.0
Dy392 Dy 0.52666 0.06022 0.55048 0.0
Dy393 Dy 0.59443 0.07069 0.5306 0.0
C394 C 0.53767 0.071 0.48007 0.0
O395 O 0.52561 0.01151 0.52634 0.0
O396 O 0.57757 0.01852 0.53029 0.0
O397 O 0.47726 0.04434 0.5367 0.0
O398 O 0.49837 0.06701 0.58628 0.0
O399 O 0.60013 0.07085 0.58393 0.0
O400 O 0.55185 0.0417 0.58776 0.0
O401 O 0.58773 0.11916 0.53627 0.0
O402 O 0.55301 0.11118 0.57086 0.0
O403 O 0.64363 0.09188 0.54294 0.0
O404 O 0.6235 0.06194 0.49629 0.0
C405 C 0.54903 0.99985 0.52452 0.0
O406 O 0.52516 0.07933 0.50462 0.0
O407 O 0.56189 0.06112 0.48403 0.0
C408 C 0.45591 0.08045 0.56275 0.0
C409 C 0.42379 0.12495 0.55919 0.0
C410 C 0.45166 0.12928 0.54766 0.0
C411 C 0.46766 0.10718 0.54949 0.0
C412 C 0.42813 0.07616 0.57444 0.0
C413 C 0.4121 0.09837 0.57268 0.0
C414 C 0.47318 0.05762 0.56464 0.0
C415 C 0.58129 0.05298 0.59907 0.0
C416 C 0.57278 0.13038 0.5574 0.0
C417 C 0.66928 0.05691 0.52272 0.0
C418 C 0.7058 0.01673 0.53022 0.0
C419 C 0.67971 0.01331 0.54497 0.0
C420 C 0.66155 0.03329 0.54125 0.0
C421 C 0.69555 0.0606 0.50826 0.0
C422 C 0.71382 0.04061 0.51206 0.0
C423 C 0.64872 0.07614 0.51698 0.0
H424 H 0.46091 0.1497 0.53721 0.0
H425 H 0.48922 0.1109 0.54054 0.0
H426 H 0.41889 0.05572 0.58485 0.0
H427 H 0.39055 0.0948 0.58162 0.0
H428 H 0.67325 0.99496 0.55901 0.0
H429 H 0.6412 0.03003 0.55241 0.0
H430 H 0.70164 0.07858 0.49371 0.0
H431 H 0.73392 0.04344 0.50054 0.0
Dy432 Dy 0.34295 0.304 0.80257 0.0
Dy433 Dy 0.27918 0.32604 0.79746 0.0
C434 C 0.3436 0.37206 0.79036 0.0
O435 O 0.34394 0.33122 0.85187 0.0
O436 O 0.29194 0.32136 0.84893 0.0
O437 O 0.3917 0.31451 0.81963 0.0
O438 O 0.36669 0.26992 0.78899 0.0
O439 O 0.26598 0.27391 0.79011 0.0
O440 O 0.30846 0.26741 0.82002 0.0
O441 O 0.2895 0.32262 0.7469 0.0
O442 O 0.31827 0.28821 0.75084 0.0
O443 O 0.23023 0.31563 0.78005 0.0
O444 O 0.25517 0.35915 0.8125 0.0
C445 C 0.31987 0.33092 0.86585 0.0
O446 O 0.35305 0.34767 0.78225 0.0
O447 O 0.3183 0.36986 0.80255 0.0
C448 C 0.41664 0.29428 0.77977 0.0
C449 C 0.4596 0.30257 0.73697 0.0
C450 C 0.44458 0.3253 0.74432 0.0
C451 C 0.4232 0.32114 0.76541 0.0
C452 C 0.43168 0.2716 0.77244 0.0
C453 C 0.45295 0.27568 0.75119 0.0
C454 C 0.39368 0.28942 0.80165 0.0
C455 C 0.27918 0.2572 0.80688 0.0
C456 C 0.30262 0.3027 0.73344 0.0
C457 C 0.20469 0.33446 0.82017 0.0
C458 C 0.15946 0.32409 0.86025 0.0
C459 C 0.19075 0.33149 0.87372 0.0
C460 C 0.21315 0.33643 0.85386 0.0
C461 C 0.17339 0.32676 0.80668 0.0
C462 C 0.15094 0.32148 0.82652 0.0
C463 C 0.22821 0.34013 0.79899 0.0
H464 H 0.4493 0.34616 0.73358 0.0
H465 H 0.41174 0.3389 0.77041 0.0
H466 H 0.42686 0.25065 0.78305 0.0
H467 H 0.46423 0.25784 0.74577 0.0
H468 H 0.19781 0.33348 0.89964 0.0
H469 H 0.23709 0.3419 0.86489 0.0
H470 H 0.16632 0.32489 0.78078 0.0
H471 H 0.12692 0.31566 0.81564 0.0
Dy472 Dy 0.07352 0.03953 0.55646 0.0
Dy473 Dy 0.04786 0.10278 0.55845 0.0
C474 C 1.00489 0.03665 0.56652 0.0
O475 O 0.053 0.03823 0.50458 0.0
O476 O 0.04837 0.08804 0.50611 0.0
O477 O 0.0643 0.98992 0.54008 0.0
O478 O 0.10698 0.01627 0.57217 0.0
O479 O 0.09815 0.11932 0.55745 0.0
O480 O 0.11183 0.0744 0.54242 0.0
O481 O 0.05386 0.09499 0.61016 0.0
O482 O 0.08833 0.06622 0.60755 0.0
O483 O 0.05467 0.15179 0.57694 0.0
O484 O 1.01428 0.12529 0.54169 0.0
C485 C 0.04734 0.06066 0.49006 0.0
O486 O 0.02948 0.02832 0.57534 0.0
O487 O 1.00617 0.06183 0.55381 0.0
C488 C 0.08362 0.96503 0.58057 0.0
C489 C 0.07516 0.92099 0.62257 0.0
C490 C 0.05005 0.92957 0.60818 0.0
C491 C 0.05424 0.95154 0.58754 0.0
C492 C 0.10868 0.95633 0.5949 0.0
C493 C 0.10453 0.9346 0.61584 0.0
C494 C 0.08856 0.98855 0.55904 0.0
C495 C 0.11765 0.10496 0.54759 0.0
C496 C 0.07414 0.08293 0.62426 0.0
C497 C 0.03802 0.17678 0.53563 0.0
C498 C 0.05047 0.22162 0.49495 0.0
C499 C 0.06167 0.19556 0.49091 0.0
C500 C 0.05555 0.17335 0.51114 0.0
C501 C 0.02674 0.20275 0.53963 0.0
C502 C 0.03293 0.22504 0.51944 0.0
C503 C 0.03128 0.15305 0.55655 0.0
H504 H 0.02724 0.9194 0.61313 0.0
H505 H 0.0345 0.95799 0.57716 0.0
H506 H 0.13153 0.96649 0.59003 0.0
H507 H 0.1242 0.92834 0.62679 0.0
H508 H 0.0752 0.1925 0.47216 0.0
H509 H 0.06448 0.15346 0.50766 0.0
H510 H 1.01314 0.20575 0.55832 0.0
H511 H 0.0241 0.245 0.5229 0.0
Dy512 Dy 0.31298 0.84498 0.78119 0.0
Dy513 Dy 0.30337 0.7778 0.80694 0.0
C514 C 0.30152 0.83852 0.8535 0.0
O515 O 0.36171 0.84705 0.8034 0.0
O516 O 0.35496 0.79584 0.80977 0.0
O517 O 0.33125 0.89522 0.79022 0.0
O518 O 0.30303 0.87078 0.7437 0.0
O519 O 0.30492 0.76788 0.75396 0.0
O520 O 0.32982 0.8165 0.74471 0.0
O521 O 0.2557 0.78445 0.80129 0.0
O522 O 0.26189 0.81888 0.76579 0.0
O523 O 0.28242 0.72769 0.79773 0.0
O524 O 0.31308 0.75065 0.84303 0.0
C525 C 0.3731 0.82411 0.8099 0.0
O526 O 0.29712 0.85178 0.82838 0.0
O527 O 0.30917 0.81256 0.85168 0.0
C528 C 0.29585 0.9184 0.76618 0.0
C529 C 0.25585 0.95567 0.77066 0.0
C530 C 0.26062 0.93844 0.79503 0.0
C531 C 0.28041 0.91988 0.79278 0.0
C532 C 0.29113 0.93569 0.74183 0.0
C533 C 0.27121 0.95423 0.74404 0.0
C534 C 0.31564 0.89775 0.76306 0.0
C535 C 0.32085 0.78603 0.73669 0.0
C536 C 0.24381 0.79949 0.78079 0.0
C537 C 0.31826 0.70345 0.81814 0.0
C538 C 0.35988 0.66835 0.81184 0.0
C539 C 0.36127 0.69338 0.79523 0.0
C540 C 0.34056 0.71076 0.79833 0.0
C541 C 0.31644 0.6781 0.83432 0.0
C542 C 0.33712 0.66051 0.83109 0.0
C543 C 0.29893 0.72409 0.8237 0.0
H544 H 0.24887 0.93925 0.81568 0.0
H545 H 0.28348 0.90651 0.81173 0.0
H546 H 0.30263 0.93462 0.72102 0.0
H547 H 0.26767 0.96736 0.725 0.0
H548 H 0.3787 0.69974 0.78031 0.0
H549 H 0.34235 0.73041 0.78586 0.0
H550 H 0.29951 0.67234 0.84991 0.0
H551 H 0.33581 0.64122 0.84405 0.0
Dy552 Dy 0.54719 0.0743 0.02953 0.0
Dy553 Dy 0.55491 0.03332 0.08643 0.0
C554 C 0.56158 0.0095 0.01217 0.0
O555 O 0.50239 0.0379 0.02474 0.0
O556 O 0.50606 0.03231 0.07794 0.0
O557 O 0.52812 0.07664 0.98077 0.0
O558 O 0.55547 0.11897 0.01388 0.0
O559 O 0.55966 0.08265 0.11184 0.0
O560 O 0.53112 0.09715 0.07151 0.0
O561 O 0.60264 0.05145 0.07844 0.0
O562 O 0.59606 0.09283 0.05488 0.0
O563 O 0.56759 0.02869 0.1364 0.0
O564 O 0.54648 0.98754 0.09919 0.0
C565 C 0.4898 0.02906 0.04927 0.0
O566 O 0.5679 0.03854 0.00755 0.0
O567 O 0.55087 1.00167 0.03833 0.0
C568 C 0.56461 0.11166 0.96026 0.0
C569 C 0.60164 0.1045 0.91381 0.0
C570 C 0.61429 0.11109 0.94691 0.0
C571 C 0.59593 0.11477 0.97003 0.0
C572 C 0.5525 0.10727 0.92713 0.0
C573 C 0.57102 0.10383 0.90393 0.0
C574 C 0.54378 0.10593 0.98368 0.0
C575 C 0.54437 0.1016 0.10199 0.0
C576 C 0.61362 0.07816 0.06922 0.0
C577 C 0.52896 0.98831 0.14922 0.0
C578 C 0.48159 0.97833 0.186 0.0
C579 C 0.51243 0.98885 0.20157 0.0
C580 C 0.53602 0.99377 0.18326 0.0
C581 C 0.49798 0.97627 0.13372 0.0
C582 C 0.47448 0.97111 0.15202 0.0
C583 C 0.55338 0.99875 0.13027 0.0
H584 H 0.63796 0.11189 0.95475 0.0
H585 H 0.60573 0.11795 0.99547 0.0
H586 H 0.52832 0.10438 0.91919 0.0
H587 H 0.56105 0.0988 0.87834 0.0
H588 H 0.51817 0.99454 0.22786 0.0
H589 H 0.55967 1.00322 0.19566 0.0
H590 H 0.49176 0.97212 0.10747 0.0
H591 H 0.45074 0.96306 0.13973 0.0
Dy592 Dy 0.29093 0.28077 0.28174 0.0
Dy593 Dy 0.33039 0.349 0.32123 0.0
C594 C 0.31535 0.29274 0.35919 0.0
O595 O 0.25434 0.3061 0.28592 0.0
O596 O 0.281 0.34384 0.32964 0.0
O597 O 0.25327 0.23873 0.27736 0.0
O598 O 0.28147 0.24356 0.24023 0.0
O599 O 0.31173 0.35735 0.27252 0.0
O600 O 0.30424 0.30853 0.24353 0.0
O601 O 0.36593 0.33002 0.29893 0.0
O602 O 0.34049 0.27764 0.28822 0.0
O603 O 0.36819 0.39096 0.32638 0.0
O604 O 0.33842 0.38651 0.36221 0.0
C605 C 0.25454 0.32766 0.31067 0.0
O606 O 0.29374 0.27716 0.33445 0.0
O607 O 0.33664 0.3179 0.35672 0.0
C608 C 0.27072 0.19679 0.25918 0.0
C609 C 0.29521 0.14798 0.26955 0.0
C610 C 0.30631 0.17676 0.29082 0.0
C611 C 0.29412 0.20091 0.28568 0.0
C612 C 0.25886 0.16779 0.23816 0.0
C613 C 0.27098 0.14319 0.24351 0.0
C614 C 0.26171 0.22428 0.25288 0.0
C615 C 0.30894 0.33858 0.24492 0.0
C616 C 0.36603 0.30077 0.29023 0.0
C617 C 0.35276 0.43458 0.34534 0.0
C618 C 0.32994 0.48494 0.33663 0.0
C619 C 0.32743 0.46156 0.31009 0.0
C620 C 0.33877 0.43656 0.31438 0.0
C621 C 0.35652 0.45872 0.37173 0.0
C622 C 0.3453 0.48403 0.36735 0.0
C623 C 0.35934 0.40547 0.35051 0.0
H624 H 0.32497 0.18074 0.31101 0.0
H625 H 0.30364 0.22327 0.30186 0.0
H626 H 0.24096 0.16446 0.21742 0.0
H627 H 0.26223 0.12091 0.227 0.0
H628 H 0.31573 0.46214 0.28625 0.0
H629 H 0.33546 0.41817 0.29369 0.0
H630 H 0.36698 0.45735 0.39582 0.0
H631 H 0.34735 0.5021 0.388 0.0
Dy632 Dy 0.57719 0.53278 0.05009 0.0
Dy633 Dy 0.55388 0.59801 0.05536 0.0
C634 C 0.50916 0.53352 0.0652 0.0
O635 O 0.56994 0.54228 0.99913 0.0
O636 O 0.53586 0.57104 0.00478 0.0
O637 O 0.56747 0.4837 0.02978 0.0
O638 O 0.6089 0.50739 0.06489 0.0
O639 O 0.59878 0.60973 0.03794 0.0
O640 O 0.61989 0.57072 0.04978 0.0
O641 O 0.57139 0.59659 0.10726 0.0
O642 O 0.58188 0.54899 0.10336 0.0
O643 O 0.56439 0.64774 0.07207 0.0
O644 O 0.52093 0.62222 0.04089 0.0
C645 C 0.54943 0.55491 0.98658 0.0
O646 O 0.52736 0.5184 0.05349 0.0
O647 O 0.51595 0.56414 0.07095 0.0
C648 C 0.58324 0.45569 0.06934 0.0
C649 C 0.57165 0.41171 0.1113 0.0
C650 C 0.54806 0.42317 0.09809 0.0
C651 C 0.55384 0.44513 0.0775 0.0
C652 C 0.60662 0.44378 0.08211 0.0
C653 C 0.60091 0.42206 0.10295 0.0
C654 C 0.5904 0.4805 0.04947 0.0
C655 C 0.62212 0.59825 0.0418 0.0
C656 C 0.57978 0.57468 0.12049 0.0
C657 C 0.54448 0.67343 0.03307 0.0
C658 C 0.55294 0.71904 0.99301 0.0
C659 C 0.57436 0.70224 0.9975 0.0
C660 C 0.57008 0.67946 0.01725 0.0
C661 C 0.52301 0.69009 0.02834 0.0
C662 C 0.52717 0.7127 0.00841 0.0
C663 C 0.53976 0.64968 0.05419 0.0
H664 H 0.52534 0.41551 0.10422 0.0
H665 H 0.53544 0.45419 0.06838 0.0
H666 H 0.62949 0.45173 0.0764 0.0
H667 H 0.61943 0.41355 0.11288 0.0
H668 H 0.59435 0.70681 0.98575 0.0
H669 H 0.58682 0.66668 0.02027 0.0
H670 H 0.50306 0.68567 0.04016 0.0
H671 H 0.51045 0.72548 0.00521 0.0
Dy672 Dy 0.81512 0.34548 0.2717 0.0
Dy673 Dy 0.80713 0.28534 0.30837 0.0
C674 C 0.80473 0.35025 0.34429 0.0
O675 O 0.86369 0.34097 0.281 0.0
O676 O 0.85798 0.31266 0.32227 0.0
O677 O 0.83688 0.39422 0.2711 0.0
O678 O 0.80024 0.36667 0.23211 0.0
O679 O 0.82633 0.2737 0.26424 0.0
O680 O 0.81077 0.30546 0.2322 0.0
O681 O 0.75825 0.28011 0.284 0.0
O682 O 0.76447 0.33059 0.27638 0.0
O683 O 0.78958 0.23557 0.30609 0.0
O684 O 0.81658 0.26547 0.3509 0.0
C685 C 0.87578 0.32948 0.30495 0.0
O686 O 0.82217 0.36308 0.32479 0.0
O687 O 0.79142 0.32007 0.3391 0.0
C688 C 0.79982 0.41834 0.25136 0.0
C689 C 0.76272 0.45753 0.26471 0.0
C690 C 0.79017 0.46136 0.28591 0.0
C691 C 0.80865 0.44201 0.27926 0.0
C692 C 0.77302 0.41572 0.22939 0.0
C693 C 0.75459 0.43512 0.23606 0.0
C694 C 0.81675 0.39479 0.24651 0.0
C695 C 0.82127 0.2817 0.23589 0.0
C696 C 0.74629 0.30263 0.27745 0.0
C697 C 0.82503 0.21666 0.33582 0.0
C698 C 0.8621 0.17626 0.33271 0.0
C699 C 0.87168 0.2055 0.32338 0.0
C700 C 0.85322 0.22555 0.32484 0.0
C701 C 0.81564 0.1876 0.34556 0.0
C702 C 0.83409 0.16748 0.34402 0.0
C703 C 0.80468 0.23679 0.33492 0.0
H704 H 0.79679 0.47869 0.30807 0.0
H705 H 0.82921 0.44485 0.29663 0.0
H706 H 0.76572 0.39795 0.20756 0.0
H707 H 0.73351 0.43204 0.21937 0.0
H708 H 0.89316 0.21253 0.31448 0.0
H709 H 0.86068 0.24777 0.31687 0.0
H710 H 0.79384 0.18028 0.35379 0.0
H711 H 0.82638 0.14492 0.3512 0.0
Dy712 Dy 0.0639 0.58968 0.52 0.0
Dy713 Dy 0.06706 0.54647 0.5769 0.0
C714 C 0.0725 0.51888 0.50407 0.0
O715 O 1.01472 0.56577 0.51906 0.0
O716 O 1.01845 0.52996 0.5526 0.0
O717 O 0.04889 0.59536 0.47115 0.0
O718 O 0.08262 0.63359 0.50466 0.0
O719 O 0.06237 0.59255 0.60149 0.0
O720 O 0.04654 0.61505 0.55923 0.0
O721 O 0.11395 0.56311 0.56612 0.0
O722 O 0.10899 0.60886 0.55307 0.0
O723 O 0.09516 0.53662 0.61694 0.0
O724 O 0.0463 0.5134 0.60591 0.0
C725 C 1.00268 0.54174 0.5323 0.0
O726 O 0.07539 0.54689 0.49657 0.0
O727 O 0.06723 0.51274 0.53279 0.0
C728 C 0.09045 0.62554 0.45085 0.0
C729 C 0.13413 0.6323 0.40946 0.0
C730 C 0.12009 0.60276 0.41624 0.0
C731 C 0.09854 0.59941 0.43693 0.0
C732 C 0.10456 0.65512 0.44413 0.0
C733 C 0.12642 0.65853 0.42364 0.0
C734 C 0.06945 0.62249 0.4745 0.0
C735 C 0.05168 0.61427 0.59047 0.0
C736 C 0.12596 0.59207 0.5635 0.0
C737 C 0.06796 0.5332 0.66046 0.0
C738 C 0.04905 0.55866 0.71577 0.0
C739 C 0.06827 0.57838 0.69933 0.0
C740 C 0.07769 0.56573 0.67183 0.0
C741 C 0.05032 0.5134 0.67818 0.0
C742 C 0.04093 0.5261 0.70581 0.0
C743 C 0.07132 0.52084 0.62751 0.0
H744 H 0.12598 0.58235 0.40564 0.0
H745 H 0.0885 0.57644 0.4423 0.0
H746 H 0.099 0.6756 0.45511 0.0
H747 H 0.13728 0.68152 0.41876 0.0
H748 H 0.07447 0.60357 0.70668 0.0
H749 H 0.091 0.58158 0.65841 0.0
H750 H 0.04229 0.48834 0.66954 0.0
H751 H 0.02588 0.51069 0.71829 0.0
Dy752 Dy 0.83898 0.80671 0.29383 0.0
Dy753 Dy 0.77654 0.83057 0.29144 0.0
C754 C 0.84125 0.87546 0.28376 0.0
O755 O 0.84103 0.83258 0.3439 0.0
O756 O 0.78932 0.82442 0.34246 0.0
O757 O 0.88786 0.81653 0.30956 0.0
O758 O 0.86151 0.77173 0.28023 0.0
O759 O 0.76093 0.77839 0.28544 0.0
O760 O 0.80455 0.76986 0.31093 0.0
O761 O 0.78528 0.8265 0.24017 0.0
O762 O 0.81319 0.79122 0.24271 0.0
O763 O 0.72862 0.82459 0.27333 0.0
O764 O 0.75488 0.86467 0.31006 0.0
C765 C 0.81745 0.8322 0.35868 0.0
O766 O 0.84962 0.85071 0.27388 0.0
O767 O 0.81674 0.87343 0.29728 0.0
C768 C 0.91092 0.79469 0.26959 0.0
C769 C 0.95363 0.80368 0.22699 0.0
C770 C 0.92742 0.81394 0.22183 0.0
C771 C 0.9062 0.80948 0.24299 0.0
C772 C 0.93704 0.78435 0.27472 0.0
C773 C 0.95829 0.78879 0.25351 0.0
C774 C 0.8889 0.7907 0.29222 0.0
C775 C 0.77485 0.76058 0.29968 0.0
C776 C 0.79737 0.80601 0.22602 0.0
C777 C 0.70335 0.84223 0.31476 0.0
C778 C 0.66021 0.83253 0.35705 0.0
C779 C 0.66683 0.80697 0.33973 0.0
C780 C 0.68829 0.81176 0.3188 0.0
C781 C 0.69635 0.8677 0.3318 0.0
C782 C 0.675 0.86291 0.35282 0.0
C783 C 0.72762 0.84811 0.29456 0.0
H784 H 0.92347 0.82543 0.20146 0.0
H785 H 0.88615 0.81766 0.23871 0.0
H786 H 0.94106 0.77297 0.29516 0.0
H787 H 0.97841 0.78074 0.2578 0.0
H788 H 0.65561 0.78336 0.34271 0.0
H789 H 0.69333 0.79169 0.30613 0.0
H790 H 0.70779 0.89138 0.32922 0.0
H791 H 0.67017 0.8829 0.366 0.0
Dy792 Dy 0.83206 0.31586 0.77642 0.0
Dy793 Dy 0.78999 0.32796 0.83053 0.0
C794 C 0.83951 0.38334 0.81233 0.0
O795 O 0.86203 0.31969 0.8244 0.0
O796 O 0.82473 0.30804 0.85598 0.0
O797 O 0.87518 0.32828 0.75904 0.0
O798 O 0.83754 0.28861 0.73264 0.0
O799 O 0.76762 0.28076 0.79986 0.0
O800 O 0.81135 0.26993 0.78918 0.0
O801 O 0.76857 0.34357 0.78728 0.0
O802 O 0.78698 0.31694 0.74773 0.0
O803 O 0.78056 0.35761 0.87037 0.0
O804 O 0.75034 0.31077 0.85256 0.0
C805 C 0.8532 0.31157 0.85122 0.0
O806 O 0.8357 0.36634 0.78363 0.0
O807 O 0.82941 0.37111 0.8366 0.0
C808 C 0.8635 0.32259 0.70219 0.0
C809 C 0.84641 0.34452 0.64604 0.0
C810 C 0.85362 0.36437 0.67628 0.0
C811 C 0.86208 0.3535 0.70422 0.0
C812 C 0.85804 0.30332 0.67163 0.0
C813 C 0.8495 0.31428 0.64353 0.0
C814 C 0.86364 0.30874 0.73155 0.0
C815 C 0.78235 0.26067 0.79141 0.0
C816 C 0.76769 0.33233 0.75651 0.0
C817 C 0.76248 0.32689 0.90855 0.0
C818 C 0.76907 0.2962 0.9611 0.0
C819 C 0.73979 0.2967 0.94712 0.0
C820 C 0.73651 0.31199 0.92086 0.0
C821 C 0.79191 0.32826 0.92421 0.0
C822 C 0.79517 0.31304 0.9504 0.0
C823 C 0.75861 0.33487 0.87608 0.0
H824 H 0.85133 0.38781 0.67835 0.0
H825 H 0.8656 0.36871 0.72749 0.0
H826 H 0.85848 0.27927 0.6697 0.0
H827 H 0.84399 0.29886 0.62012 0.0
H828 H 0.71946 0.28358 0.95512 0.0
H829 H 0.71365 0.31031 0.90876 0.0
H830 H 0.81226 0.33923 0.91484 0.0
H831 H 0.81788 0.31263 0.9609 0.0
Dy832 Dy 0.78868 0.78605 0.77427 0.0
Dy833 Dy 0.82881 0.854 0.81457 0.0
C834 C 0.81136 0.79589 0.85115 0.0
O835 O 0.75286 0.80448 0.79633 0.0
O836 O 0.77912 0.85663 0.80705 0.0
O837 O 0.75742 0.74008 0.77184 0.0
O838 O 0.77278 0.75388 0.72839 0.0
O839 O 0.82913 0.8572 0.76223 0.0
O840 O 0.7848 0.81869 0.73971 0.0
O841 O 0.86482 0.82793 0.81048 0.0
O842 O 0.8382 0.78878 0.76777 0.0
O843 O 0.87107 0.89209 0.82503 0.0
O844 O 0.83319 0.89583 0.84903 0.0
C845 C 0.75333 0.83383 0.80531 0.0
O846 O 0.80633 0.77706 0.82305 0.0
O847 O 0.81735 0.82624 0.8534 0.0
C848 C 0.77332 0.704 0.73844 0.0
C849 C 0.80932 0.6657 0.755 0.0
C850 C 0.82019 0.68915 0.73736 0.0
C851 C 0.80227 0.70819 0.729 0.0
C852 C 0.76094 0.67785 0.7523 0.0
C853 C 0.77895 0.65866 0.76058 0.0
C854 C 0.76052 0.73057 0.74219 0.0
C855 C 0.80758 0.84256 0.73727 0.0
C856 C 0.86461 0.80555 0.7865 0.0
C857 C 0.85848 0.9396 0.8289 0.0
C858 C 0.83865 0.98444 0.79968 0.0
C859 C 0.85027 0.96332 0.78148 0.0
C860 C 0.86001 0.94089 0.79596 0.0
C861 C 0.84994 0.9629 0.84778 0.0
C862 C 0.84 0.98522 0.83321 0.0
C863 C 0.85902 0.91088 0.84141 0.0
H864 H 0.84353 0.6945 0.73263 0.0
H865 H 0.81247 0.72802 0.71814 0.0
H866 H 0.73871 0.67421 0.75977 0.0
H867 H 0.77034 0.64038 0.77407 0.0
H868 H 0.84925 0.96245 0.75554 0.0
H869 H 0.86632 0.92312 0.78068 0.0
H870 H 0.84846 0.96222 0.87312 0.0
H871 H 0.83102 1.00144 0.84749 0.0
Dy872 Dy 0.59041 0.58899 0.57006 0.0
Dy873 Dy 0.52469 0.54453 0.52911 0.0
C874 C 0.58295 0.56563 0.49344 0.0
O875 O 0.56868 0.62317 0.54869 0.0
O876 O 0.51835 0.59335 0.53292 0.0
O877 O 0.62845 0.63091 0.57582 0.0
O878 O 0.62746 0.60048 0.61113 0.0
O879 O 0.51805 0.54935 0.58124 0.0
O880 O 0.55919 0.59147 0.60595 0.0
O881 O 0.55164 0.50975 0.53682 0.0
O882 O 0.58995 0.53974 0.57841 0.0
O883 O 0.4861 0.50328 0.52438 0.0
O884 O 0.48808 0.53204 0.48746 0.0
C885 C 0.53976 0.62066 0.53735 0.0
O886 O 0.60118 0.57168 0.52174 0.0
O887 O 0.55298 0.55771 0.49105 0.0
C888 C 0.67387 0.61908 0.59361 0.0
C889 C 0.71694 0.5877 0.58115 0.0
C890 C 0.69871 0.59413 0.5553 0.0
C891 C 0.6774 0.6099 0.56146 0.0
C892 C 0.69489 0.61627 0.6195 0.0
C893 C 0.7167 0.60082 0.61326 0.0
C894 C 0.64433 0.62315 0.59949 0.0
C895 C 0.5334 0.57049 0.6068 0.0
C896 C 0.57412 0.51201 0.56088 0.0
C897 C 0.44081 0.51359 0.50478 0.0
C898 C 0.38882 0.52214 0.52834 0.0
C899 C 0.39099 0.4918 0.51956 0.0
C900 C 0.41706 0.48755 0.50789 0.0
C901 C 0.43763 0.54372 0.5121 0.0
C902 C 0.41181 0.54792 0.52372 0.0
C903 C 0.47079 0.5101 0.49968 0.0
H904 H 0.69901 0.58451 0.53037 0.0
H905 H 0.66168 0.61191 0.54097 0.0
H906 H 0.69246 0.62319 0.64443 0.0
H907 H 0.73105 0.59627 0.6334 0.0
H908 H 0.37324 0.47173 0.52298 0.0
H909 H 0.41937 0.46418 0.50281 0.0
H910 H 0.45575 0.56425 0.51039 0.0
H911 H 0.41028 0.57146 0.53032 0.0
Dy912 Dy 1.01949 0.55528 0.06195 0.0
Dy913 Dy 0.10218 0.5702 0.05184 0.0
C914 C 0.05824 0.57215 1.00095 0.0
O915 O 0.02642 0.50726 0.04686 0.0
O916 O 0.07786 0.51729 0.03755 0.0
O917 O 0.97985 0.54499 0.0243 0.0
O918 O 0.97577 0.55565 0.07527 0.0
O919 O 0.06987 0.55848 0.08464 0.0
O920 O 0.03506 0.54953 0.11337 0.0
O921 O 0.09446 0.61814 0.06437 0.0
O922 O 0.04292 0.60843 0.0733 0.0
O923 O 0.14043 0.57794 0.09069 0.0
O924 O 0.14693 0.57304 0.0401 0.0
C925 C 0.04997 0.49782 0.0379 0.0
O926 O 0.05175 0.5655 0.02857 0.0
O927 O 0.08738 0.57678 1.00082 0.0
C928 C 0.94769 0.57608 0.03796 0.0
C929 C 0.92145 0.62457 0.03015 0.0
C930 C 0.94639 0.62231 0.01497 0.0
C931 C 0.95958 0.59828 0.019 0.0
C932 C 0.92241 0.57816 0.05259 0.0
C933 C 0.9094 0.6023 0.04877 0.0
C934 C 0.96285 0.55231 0.04493 0.0
C935 C 0.06415 0.55398 0.11307 0.0
C936 C 0.0705 0.62764 0.07176 0.0
C937 C 0.17439 0.55032 0.07494 0.0
C938 C 0.20418 0.50394 0.07715 0.0
C939 C 0.22136 0.53564 0.08398 0.0
C940 C 0.20649 0.55878 0.08283 0.0
C941 C 0.15719 0.51865 0.06909 0.0
C942 C 0.17202 0.49553 0.07024 0.0
C943 C 0.1589 0.57415 0.07031 0.0
H944 H 0.95577 0.6393 1.00038 0.0
H945 H 0.9793 0.59736 0.0077 0.0
H946 H 0.91309 0.56142 0.06747 0.0
H947 H 0.88998 0.60371 0.0604 0.0
H948 H 0.24624 0.54234 0.08935 0.0
H949 H 0.22001 0.58314 0.08725 0.0
H950 H 0.13238 0.51179 0.06276 0.0
H951 H 0.15853 0.47113 0.06494 0.0
C952 C 1.00855 0.17804 0.99489 0.0
C953 C 1.01837 0.20601 0.01885 0.0
C954 C 0.03763 0.17585 0.05779 0.0
C955 C 0.03 0.14856 0.03321 0.0
N956 N 1.01247 0.12581 0.97649 0.0
N957 N 0.04759 0.23229 0.07161 0.0
C958 C 1.01655 0.15029 1.00127 0.0
C959 C 0.03436 0.20498 0.04986 0.0
N960 N 0.9904 0.17746 0.96633 0.0
N961 N 0.04687 0.1737 0.0893 0.0
H962 H 0.04629 0.25393 0.06663 0.0
H963 H 0.06238 0.23399 0.09314 0.0
H964 H 0.04903 0.15298 0.09619 0.0
H965 H 0.0495 0.19148 0.10897 0.0
H966 H 0.97935 0.15709 0.94942 0.0
H967 H 0.98442 0.19703 0.96062 0.0
H968 H 1.0062 0.12673 0.95211 0.0
H969 H 1.01783 0.10534 0.98002 0.0
C970 C 0.18878 0.81518 0.19245 0.0
C971 C 0.19376 0.84159 0.17676 0.0
C972 C 0.24615 0.86197 0.20947 0.0
C973 C 0.24253 0.83329 0.22109 0.0
N974 N 0.21161 0.77999 0.21781 0.0
N975 N 0.22807 0.89006 0.16959 0.0
C976 C 0.21412 0.80925 0.21108 0.0
C977 C 0.22282 0.8649 0.18497 0.0
N978 N 0.15977 0.79578 0.19018 0.0
N979 N 0.27111 0.88695 0.22301 0.0
H980 H 0.21108 0.89389 0.15307 0.0
H981 H 0.24954 0.90635 0.17209 0.0
H982 H 0.28825 0.88582 0.24123 0.0
H983 H 0.27328 0.90947 0.21853 0.0
H984 H 0.15456 0.77815 0.2039 0.0
H985 H 0.14039 0.79943 0.17764 0.0
H986 H 0.19263 0.76071 0.2079 0.0
H987 H 0.2297 0.77408 0.23031 0.0
C988 C 0.51753 0.90978 0.5211 0.0
C989 C 0.53283 0.89769 0.49741 0.0
C990 C 0.55703 0.95209 0.49029 0.0
C991 C 0.54337 0.9645 0.51546 0.0
N992 N 0.51568 0.95443 0.55959 0.0
N993 N 0.57325 0.9086 0.46579 0.0
C994 C 0.52504 0.94309 0.53221 0.0
C995 C 0.55447 0.91933 0.48408 0.0
N996 N 0.49479 0.88958 0.53209 0.0
N997 N 0.57101 0.97118 0.47076 0.0
H998 H 0.57258 0.8851 0.4614 0.0
H999 H 0.59161 0.92331 0.45808 0.0
H1000 H 0.57221 0.99479 0.47319 0.0
H1001 H 0.57848 0.96292 0.44993 0.0
H1002 H 0.48015 0.89688 0.54623 0.0
H1003 H 0.48917 0.86536 0.52514 0.0
H1004 H 0.50514 0.94022 0.57482 0.0
H1005 H 0.52108 0.97825 0.56888 0.0
C1006 C 0.53481 0.31233 0.70405 0.0
C1007 C 0.5251 0.31334 0.67091 0.0
C1008 C 0.47201 0.30501 0.68061 0.0
C1009 C 0.48224 0.30685 0.71427 0.0
N1010 N 0.52441 0.31875 0.75909 0.0
N1011 N 0.4857 0.31767 0.6295 0.0
C1012 C 0.51399 0.31249 0.72631 0.0
C1013 C 0.49402 0.31168 0.65971 0.0
N1014 N 0.56332 0.30946 0.71404 0.0
N1015 N 0.44124 0.29578 0.66832 0.0
H1016 H 0.50133 0.32372 0.61391 0.0
H1017 H 0.4641 0.31985 0.62128 0.0
H1018 H 0.42438 0.29042 0.68273 0.0
H1019 H 0.43245 0.29068 0.6435 0.0
H1020 H 0.5703 0.3052 0.73704 0.0
H1021 H 0.57903 0.30826 0.6985 0.0
H1022 H 0.54768 0.32631 0.76933 0.0
H1023 H 0.50993 0.31925 0.77616 0.0
C1024 C 0.07425 0.84763 0.65843 0.0
C1025 C 0.06256 0.85394 0.68741 0.0
C1026 C 0.06235 0.90563 0.67549 0.0
C1027 C 0.07072 0.89784 0.64488 0.0
N1028 N 0.07871 0.85882 0.60445 0.0
N1029 N 0.03938 0.88643 0.71998 0.0
C1030 C 0.07492 0.86804 0.63552 0.0
C1031 C 0.05492 0.88228 0.69499 0.0
N1032 N 0.08625 0.8231 0.65348 0.0
N1033 N 0.06246 0.93561 0.68648 0.0
H1034 H 0.03259 0.86952 0.73418 0.0
H1035 H 0.03046 0.90521 0.72446 0.0
H1036 H 0.06815 0.95352 0.67316 0.0
H1037 H 0.05975 0.94337 0.71005 0.0
H1038 H 0.09793 0.81938 0.63441 0.0
H1039 H 0.08747 0.80836 0.67023 0.0
H1040 H 0.07863 0.83613 0.59535 0.0
H1041 H 0.079 0.87293 0.58683 0.0
C1042 C 0.4536 0.83681 0.86098 0.0
C1043 C 0.47246 0.8352 0.83667 0.0
C1044 C 0.42732 0.83259 0.79535 0.0
C1045 C 0.40781 0.83021 0.81923 0.0
N1046 N 0.40244 0.82784 0.87486 0.0
N1047 N 0.47579 0.82868 0.77981 0.0
C1048 C 0.42108 0.83174 0.85202 0.0
C1049 C 0.45896 0.83272 0.80362 0.0
N1050 N 0.46702 0.84447 0.89307 0.0
N1051 N 0.41559 0.83468 0.76457 0.0
H1052 H 0.4987 0.82888 0.78485 0.0
H1053 H 0.46658 0.82297 0.75511 0.0
H1054 H 0.39269 0.83375 0.75753 0.0
H1055 H 0.42893 0.83965 0.74673 0.0
H1056 H 0.45555 0.84969 0.91186 0.0
H1057 H 0.49047 0.84873 0.90095 0.0
H1058 H 0.40957 0.82425 0.8981 0.0
H1059 H 0.37914 0.82624 0.87001 0.0
C1060 C 0.54711 0.18639 0.13198 0.0
C1061 C 0.54201 0.1864 0.16448 0.0
C1062 C 0.53432 0.12923 0.15501 0.0
C1063 C 0.5442 0.13058 0.12446 0.0
N1064 N 0.56766 0.16319 0.08836 0.0
N1065 N 0.53466 0.15766 0.20846 0.0
C1066 C 0.55261 0.15992 0.11416 0.0
C1067 C 0.53645 0.1577 0.17642 0.0
N1068 N 0.54606 0.21156 0.11771 0.0
N1069 N 0.52203 0.10085 0.16324 0.0
H1070 H 0.53621 0.17776 0.22487 0.0
H1071 H 0.53405 0.13816 0.21927 0.0
H1072 H 0.51974 0.0797 0.14814 0.0
H1073 H 0.51158 0.09827 0.1836 0.0
H1074 H 0.54697 0.21162 0.09315 0.0
H1075 H 0.54061 0.23079 0.12937 0.0
H1076 H 0.57675 0.18475 0.08174 0.0
H1077 H 0.57448 0.14516 0.07623 0.0
C1078 C 0.19057 0.33662 0.36088 0.0
C1079 C 0.16655 0.3395 0.33743 0.0
C1080 C 0.20185 0.33902 0.29686 0.0
C1081 C 0.22402 0.332 0.31947 0.0
N1082 N 0.23463 0.31716 0.37145 0.0
N1083 N 0.14896 0.34016 0.28136 0.0
C1084 C 0.21706 0.32914 0.3511 0.0
C1085 C 0.17224 0.34003 0.30496 0.0
N1086 N 0.18854 0.34184 0.39309 0.0
N1087 N 0.20936 0.34567 0.26784 0.0
H1088 H 0.12763 0.34143 0.28639 0.0
H1089 H 0.15007 0.3369 0.25667 0.0
H1090 H 0.23047 0.34541 0.26134 0.0
H1091 H 0.19591 0.35404 0.25156 0.0
H1092 H 0.20649 0.34318 0.41162 0.0
H1093 H 0.17035 0.34843 0.40139 0.0
H1094 H 0.22904 0.31147 0.39345 0.0
H1095 H 0.2527 0.30939 0.36463 0.0
C1096 C 0.02656 0.07328 0.19838 0.0
C1097 C 0.99442 0.06548 0.19836 0.0
C1098 C 0.98524 0.0619 0.13889 0.0
C1099 C 1.01711 0.06686 0.13864 0.0
N1100 N 0.06673 0.06873 0.16778 0.0
N1101 N 0.94293 0.04457 0.16731 0.0
C1102 C 0.0374 0.07012 0.16829 0.0
C1103 C 0.97368 0.05753 0.16821 0.0
N1104 N 0.04692 0.08505 0.22692 0.0
N1105 N 0.96609 0.0626 0.11153 0.0
H1106 H 0.93362 0.03968 0.18793 0.0
H1107 H 0.92718 0.0355 0.14571 0.0
H1108 H 0.97372 0.06661 0.08985 0.0
H1109 H 0.94329 0.06233 0.11131 0.0
H1110 H 0.0705 0.09422 0.22786 0.0
H1111 H 0.04014 0.08858 0.24944 0.0
H1112 H 0.08145 0.06788 0.18841 0.0
H1113 H 0.07519 0.06482 0.14631 0.0
C1114 C 0.27946 0.70217 0.49585 0.0
C1115 C 0.29042 0.67566 0.48952 0.0
C1116 C 0.28329 0.67751 0.43133 0.0
C1117 C 0.27005 0.70223 0.43758 0.0
N1118 N 0.25113 0.7353 0.47432 0.0
N1119 N 0.30031 0.63608 0.4513 0.0
C1120 C 0.26685 0.71374 0.46943 0.0
C1121 C 0.29152 0.66267 0.45723 0.0
N1122 N 0.28136 0.71663 0.52704 0.0
N1123 N 0.28878 0.66886 0.40081 0.0
H1124 H 0.30885 0.6259 0.46975 0.0
H1125 H 0.29775 0.62317 0.42813 0.0
H1126 H 0.28171 0.67813 0.38086 0.0
H1127 H 0.30171 0.6537 0.39544 0.0
H1128 H 0.27753 0.73825 0.53302 0.0
H1129 H 0.28881 0.70823 0.54732 0.0
H1130 H 0.24464 0.74177 0.49638 0.0
H1131 H 0.24223 0.74495 0.4556 0.0
C1132 C 0.61282 0.01598 0.66613 0.0
C1133 C 0.6245 0.04271 0.69114 0.0
C1134 C 0.60108 0.07332 0.65776 0.0
C1135 C 0.59332 0.04807 0.63133 0.0
N1136 N 0.5924 0.99567 0.60888 0.0
N1137 N 0.6315 0.09753 0.7107 0.0
C1138 C 0.599 0.01929 0.63515 0.0
C1139 C 0.61901 0.07157 0.687 0.0
N1140 N 0.61501 0.98757 0.67203 0.0
N1141 N 0.59048 0.0986 0.65514 0.0
H1142 H 0.64337 0.09695 0.73319 0.0
H1143 H 0.63182 0.12004 0.70739 0.0
H1144 H 0.57673 0.10028 0.63413 0.0
H1145 H 0.59274 0.11649 0.67457 0.0
H1146 H 0.60424 0.96659 0.65596 0.0
H1147 H 0.62581 0.98461 0.6942 0.0
H1148 H 0.59917 0.97546 0.60903 0.0
H1149 H 0.58159 0.99707 0.58611 0.0
C1150 C 0.30838 0.37712 0.9432 0.0
C1151 C 0.32772 0.36924 0.96759 0.0
C1152 C 0.3397 0.33301 0.9255 0.0
C1153 C 0.32377 0.34442 0.90101 0.0
N1154 N 0.29937 0.38326 0.88724 0.0
N1155 N 0.36508 0.34241 0.98175 0.0
C1156 C 0.30977 0.36803 0.91006 0.0
C1157 C 0.3442 0.34775 0.95876 0.0
N1158 N 0.28815 0.39286 0.9517 0.0
N1159 N 0.34966 0.30756 0.91721 0.0
H1160 H 0.36883 0.35256 0.00625 0.0
H1161 H 0.38023 0.32977 0.97615 0.0
H1162 H 0.34651 0.29605 0.89326 0.0
H1163 H 0.35861 0.29627 0.93426 0.0
H1164 H 0.27138 0.39649 0.93476 0.0
H1165 H 0.28587 0.39918 0.97579 0.0
H1166 H 0.29154 0.40261 0.89309 0.0
H1167 H 0.30191 0.37898 0.863 0.0
C1168 C 0.04499 0.06629 0.3998 0.0
C1169 C 1.01585 0.04485 0.38585 0.0
C1170 C 1.00896 0.03141 0.4396 0.0
C1171 C 0.03718 0.05451 0.454 0.0
N1172 N 0.07906 0.09832 0.4484 0.0
N1173 N 0.96697 0.0125 0.39371 0.0
C1174 C 0.05427 0.0733 0.43428 0.0
C1175 C 0.99706 0.02869 0.40604 0.0
N1176 N 0.06436 0.07913 0.38003 0.0
N1177 N 0.99293 0.01252 0.45809 0.0
H1178 H 0.95675 0.01111 0.36978 0.0
H1179 H 0.95113 1.00315 0.40793 0.0
H1180 H 0.99872 0.01564 0.48328 0.0
H1181 H 0.97469 0.99256 0.44818 0.0
H1182 H 0.08722 0.09214 0.38846 0.0
H1183 H 0.05842 0.07448 0.35474 0.0
H1184 H 0.09013 0.11495 0.43571 0.0
H1185 H 0.08721 0.10401 0.47333 0.0
C1186 C 0.35809 0.74307 0.67758 0.0
C1187 C 0.33621 0.73733 0.64883 0.0
C1188 C 0.3083 0.76931 0.67656 0.0
C1189 C 0.32773 0.77145 0.7062 0.0
N1190 N 0.3705 0.75974 0.73605 0.0
N1191 N 0.28774 0.74097 0.62181 0.0
C1192 C 0.35257 0.75826 0.70704 0.0
C1193 C 0.31076 0.74971 0.64834 0.0
N1194 N 0.38446 0.73464 0.67646 0.0
N1195 N 0.28731 0.78582 0.67541 0.0
H1196 H 0.28786 0.7258 0.60094 0.0
H1197 H 0.267 0.74628 0.62156 0.0
H1198 H 0.28403 0.79955 0.69588 0.0
H1199 H 0.27498 0.78804 0.65378 0.0
H1200 H 0.40281 0.74087 0.6958 0.0
H1201 H 0.38917 0.7236 0.65513 0.0
H1202 H 0.38648 0.74734 0.73896 0.0
H1203 H 0.36821 0.77219 0.75778 0.0
C1204 C 0.66377 0.10742 0.86222 0.0
C1205 C 0.6511 0.07831 0.84089 0.0
C1206 C 0.61059 0.06376 0.87282 0.0
C1207 C 0.61963 0.09521 0.88972 0.0
N1208 N 0.65374 0.14797 0.8991 0.0
N1209 N 0.61263 0.02822 0.82507 0.0
C1210 C 0.64616 0.11731 0.88434 0.0
C1211 C 0.62472 0.05609 0.84614 0.0
N1212 N 0.69289 0.12521 0.86163 0.0
N1213 N 0.58926 0.04114 0.88289 0.0
H1214 H 0.62341 0.02134 0.80626 0.0
H1215 H 0.59127 0.0127 0.8253 0.0
H1216 H 0.5789 0.04573 0.90288 0.0
H1217 H 0.58411 0.0174 0.87345 0.0
H1218 H 0.70444 0.14546 0.87856 0.0
H1219 H 0.7066 0.1178 0.84621 0.0
H1220 H 0.67109 0.16557 0.89337 0.0
H1221 H 0.64102 0.15632 0.91507 0.0
C1222 C 0.34557 0.37826 0.17944 0.0
C1223 C 0.32301 0.36216 0.15156 0.0
C1224 C 0.28829 0.3383 0.18695 0.0
C1225 C 0.3123 0.35095 0.2142 0.0
N1226 N 0.36438 0.38233 0.2368 0.0
N1227 N 0.27238 0.32744 0.12834 0.0
C1228 C 0.3409 0.37129 0.2107 0.0
C1229 C 0.29418 0.34237 0.15523 0.0
N1230 N 0.37171 0.39999 0.17603 0.0
N1231 N 0.25947 0.32333 0.19178 0.0
H1232 H 0.27447 0.33194 0.10503 0.0
H1233 H 0.25264 0.30961 0.12874 0.0
H1234 H 0.2544 0.32075 0.21484 0.0
H1235 H 0.24002 0.31598 0.17369 0.0
H1236 H 0.38701 0.41559 0.19544 0.0
H1237 H 0.3774 0.40381 0.15355 0.0
H1238 H 0.38694 0.39375 0.23515 0.0
H1239 H 0.36207 0.37821 0.26013 0.0
C1240 C 0.22952 0.04524 0.00873 0.0
C1241 C 0.25557 0.03888 0.02475 0.0
C1242 C 0.26333 0.08274 0.06917 0.0
C1243 C 0.23529 0.08665 0.05504 0.0
N1244 N 0.19606 0.07876 0.00822 0.0
N1245 N 0.30176 0.05512 0.06538 0.0
C1246 C 0.22006 0.07047 0.02343 0.0
C1247 C 0.27425 0.05917 0.05321 0.0
N1248 N 0.21314 0.0261 0.98038 0.0
N1249 N 0.2782 0.10035 0.0988 0.0
H1250 H 0.30999 0.03744 0.05484 0.0
H1251 H 0.3175 0.07028 0.08472 0.0
H1252 H 0.27109 0.11867 0.10997 0.0
H1253 H 0.29695 0.09671 0.11264 0.0
H1254 H 0.192 0.02705 0.96898 0.0
H1255 H 0.22059 0.00838 0.96847 0.0
H1256 H 0.18497 0.06935 0.9844 0.0
H1257 H 0.18856 0.097 0.01876 0.0
C1258 C 0.67822 0.65456 0.00404 0.0
C1259 C 0.70429 0.66477 0.02914 0.0
C1260 C 0.67807 0.62819 0.06144 0.0
C1261 C 0.65205 0.61762 0.0361 0.0
N1262 N 0.63139 0.61335 0.97967 0.0
N1263 N 0.73256 0.655 0.07696 0.0
C1264 C 0.65336 0.62859 0.00623 0.0
C1265 C 0.7054 0.64943 0.05625 0.0
N1266 N 0.67698 0.66991 0.97841 0.0
N1267 N 0.67623 0.61956 0.09109 0.0
H1268 H 0.75313 0.67011 0.07371 0.0
H1269 H 0.73532 0.64232 0.09539 0.0
H1270 H 0.65676 0.60404 0.09608 0.0
H1271 H 0.69322 0.62968 0.11156 0.0
H1272 H 0.65712 0.66579 0.96132 0.0
H1273 H 0.69538 0.68814 0.97534 0.0
H1274 H 0.63228 0.61862 0.95648 0.0
H1275 H 0.61409 0.59306 0.98025 0.0
C1276 C 0.70019 0.4831 0.3021 0.0
C1277 C 0.70087 0.5105 0.28894 0.0
C1278 C 0.74423 0.50485 0.26259 0.0
C1279 C 0.74165 0.47599 0.27331 0.0
N1280 N 0.7149 0.43522 0.29958 0.0
N1281 N 0.72 0.54494 0.25247 0.0
C1282 C 0.71896 0.4644 0.29203 0.0
C1283 C 0.72206 0.52083 0.26817 0.0
N1284 N 0.68248 0.47563 0.32518 0.0
N1285 N 0.76812 0.51714 0.24743 0.0
H1286 H 0.70377 0.55694 0.2554 0.0
H1287 H 0.73254 0.55135 0.23436 0.0
H1288 H 0.78425 0.50562 0.24208 0.0
H1289 H 0.77334 0.53972 0.24236 0.0
H1290 H 0.6835 0.45793 0.33832 0.0
H1291 H 0.66863 0.48892 0.33335 0.0
H1292 H 0.6966 0.42403 0.31004 0.0
H1293 H 0.72854 0.42103 0.29314 0.0
C1294 C 0.92263 0.49744 0.48642 0.0
C1295 C 0.90687 0.49338 0.51296 0.0
C1296 C 0.95268 0.5259 0.55094 0.0
C1297 C 0.96934 0.52718 0.52491 0.0
N1298 N 0.97192 0.5103 0.46869 0.0
N1299 N 0.90818 0.498 0.57099 0.0
C1300 C 0.95482 0.51209 0.49275 0.0
C1301 C 0.92215 0.50616 0.5454 0.0
N1302 N 0.90677 0.4879 0.45526 0.0
N1303 N 0.96588 0.5439 0.58087 0.0
H1304 H 0.8861 0.48264 0.56814 0.0
H1305 H 0.91959 0.50394 0.59502 0.0
H1306 H 0.98843 0.55854 0.58609 0.0
H1307 H 0.95362 0.54649 0.59969 0.0
H1308 H 0.91649 0.49324 0.43501 0.0
H1309 H 0.88315 0.4768 0.44975 0.0
H1310 H 0.96303 0.4965 0.44575 0.0
H1311 H 0.99565 0.52052 0.47237 0.0
C1312 C 0.33073 0.09901 0.31703 0.0
C1313 C 0.35214 0.09273 0.29755 0.0
C1314 C 0.33258 0.11883 0.25617 0.0
C1315 C 0.31039 0.1238 0.27508 0.0
N1316 N 0.28275 0.11151 0.31855 0.0
N1317 N 0.36754 0.0888 0.24479 0.0
C1318 C 0.30751 0.11123 0.30379 0.0
C1319 C 0.35129 0.10021 0.2659 0.0
N1320 N 0.33375 0.09537 0.34883 0.0
N1321 N 0.33692 0.13313 0.22991 0.0
H1322 H 0.38102 0.07446 0.25069 0.0
H1323 H 0.3652 0.09095 0.22038 0.0
H1324 H 0.32335 0.14656 0.22155 0.0
H1325 H 0.35535 0.13341 0.21779 0.0
H1326 H 0.32056 0.10263 0.36489 0.0
H1327 H 0.35151 0.08818 0.36026 0.0
H1328 H 0.27798 0.10019 0.33801 0.0
H1329 H 0.26535 0.12037 0.30913 0.0
C1330 C 0.37297 0.17032 0.52345 0.0
C1331 C 0.37231 0.19103 0.55172 0.0
C1332 C 0.40898 0.17135 0.58384 0.0
C1333 C 0.40653 0.1481 0.55651 0.0
N1334 N 0.38375 0.12277 0.50123 0.0
N1335 N 0.38649 0.20891 0.60985 0.0
C1336 C 0.38788 0.14686 0.52651 0.0
C1337 C 0.38967 0.19116 0.58221 0.0
N1338 N 0.36027 0.17384 0.49354 0.0
N1339 N 0.43009 0.17478 0.61114 0.0
H1340 H 0.37232 0.22348 0.60987 0.0
H1341 H 0.39592 0.20733 0.63315 0.0
H1342 H 0.44423 0.16029 0.61339 0.0
H1343 H 0.43539 0.19349 0.63048 0.0
H1344 H 0.3627 0.16151 0.47177 0.0
H1345 H 0.34983 0.19132 0.49029 0.0
H1346 H 0.36768 0.11862 0.48007 0.0
H1347 H 0.39469 0.10537 0.50236 0.0
C1348 C 0.74753 0.67218 0.29472 0.0
C1349 C 0.71832 0.66829 0.30416 0.0
C1350 C 0.7294 0.72532 0.31687 0.0
C1351 C 0.75625 0.72888 0.30261 0.0
N1352 N 0.78768 0.70483 0.27222 0.0
N1353 N 0.6792 0.69144 0.31925 0.0
C1354 C 0.76459 0.70209 0.29009 0.0
C1355 C 0.70864 0.69493 0.3141 0.0
N1356 N 0.75946 0.64751 0.29108 0.0
N1357 N 0.72412 0.75081 0.33394 0.0
H1358 H 0.66292 0.66972 0.31671 0.0
H1359 H 0.67008 0.71016 0.32302 0.0
H1360 H 0.73921 0.77333 0.33732 0.0
H1361 H 0.70647 0.74916 0.34746 0.0
H1362 H 0.78189 0.64983 0.28723 0.0
H1363 H 0.74825 0.62548 0.29552 0.0
H1364 H 0.79243 0.68557 0.25973 0.0
H1365 H 0.80002 0.72607 0.26701 0.0
C1366 C 0.9037 0.45924 0.84105 0.0
C1367 C 0.89223 0.47902 0.82279 0.0
C1368 C 0.84423 0.43721 0.80178 0.0
C1369 C 0.85695 0.41661 0.8175 0.0
N1370 N 0.9 0.40621 0.84845 0.0
N1371 N 0.8535 0.48678 0.78303 0.0
C1372 C 0.88694 0.42714 0.83638 0.0
C1373 C 0.86292 0.46807 0.8025 0.0
N1374 N 0.93031 0.47131 0.8633 0.0
N1375 N 0.81408 0.42745 0.7869 0.0
H1376 H 0.86643 0.5097 0.7832 0.0
H1377 H 0.83398 0.47897 0.765 0.0
H1378 H 0.79973 0.40495 0.78595 0.0
H1379 H 0.80251 0.44224 0.77784 0.0
H1380 H 0.93799 0.45899 0.88007 0.0
H1381 H 0.9436 0.49461 0.86682 0.0
H1382 H 0.92298 0.41186 0.85928 0.0
H1383 H 0.88854 0.38243 0.8454 0.0
C1384 C 0.11432 0.94889 0.08269 0.0
C1385 C 0.09035 0.9252 0.09082 0.0
C1386 C 0.05435 0.95632 0.07769 0.0
C1387 C 0.07882 0.98121 0.0719 0.0
N1388 N 0.13259 1.00125 0.06975 0.0
N1389 N 0.03767 0.90713 0.09749 0.0
C1390 C 0.10893 0.97737 0.07461 0.0
C1391 C 0.06035 0.92909 0.08829 0.0
N1392 N 0.14233 0.94382 0.08232 0.0
N1393 N 0.02512 0.95883 0.07345 0.0
H1394 H 0.04061 0.88626 0.10327 0.0
H1395 H 1.01641 0.90985 0.10076 0.0
H1396 H 1.02004 0.97919 0.06911 0.0
H1397 H 1.00557 0.94043 0.07288 0.0
H1398 H 0.16053 0.95832 0.07428 0.0
H1399 H 0.14671 0.92349 0.08802 0.0
H1400 H 0.15563 1.00211 0.07454 0.0
H1401 H 0.1293 0.02123 0.06195 0.0
C1402 C 0.90635 0.27522 0.90125 0.0
C1403 C 0.92423 0.30161 0.92507 0.0
C1404 C 0.89213 0.33275 0.90319 0.0
C1405 C 0.87659 0.30745 0.87738 0.0
N1406 N 0.87115 0.25543 0.84959 0.0
N1407 N 0.93796 0.35756 0.94367 0.0
C1408 C 0.88445 0.27895 0.87573 0.0
C1409 C 0.91803 0.33091 0.92477 0.0
N1410 N 0.90916 0.24624 0.90384 0.0
N1411 N 0.88204 0.35864 0.90735 0.0
H1412 H 0.95795 0.35787 0.9587 0.0
H1413 H 0.93649 0.3799 0.94184 0.0
H1414 H 0.8636 0.36114 0.8918 0.0
H1415 H 0.89013 0.37632 0.92779 0.0
H1416 H 0.89461 0.22564 0.8894 0.0
H1417 H 0.92426 0.24242 0.92245 0.0
H1418 H 0.87837 0.23554 0.84488 0.0
H1419 H 0.85417 0.25678 0.83133 0.0
C1420 C 0.60263 0.21318 0.61042 0.0
C1421 C 0.59495 0.23273 0.58879 0.0
C1422 C 0.56755 0.18419 0.54858 0.0
C1423 C 0.57993 0.16563 0.56819 0.0
N1424 N 0.61307 0.16416 0.6167 0.0
N1425 N 0.57196 0.23579 0.53506 0.0
C1426 C 0.59854 0.18068 0.59879 0.0
C1427 C 0.57769 0.21789 0.55728 0.0
N1428 N 0.61236 0.22529 0.64279 0.0
N1429 N 0.54521 0.1696 0.52218 0.0
H1430 H 0.57894 0.26016 0.54033 0.0
H1431 H 0.56244 0.2265 0.51073 0.0
H1432 H 0.53669 0.14529 0.51598 0.0
H1433 H 0.53308 0.1814 0.50858 0.0
H1434 H 0.61577 0.21175 0.66022 0.0
H1435 H 0.61308 0.24798 0.65271 0.0
H1436 H 0.62953 0.17457 0.63754 0.0
H1437 H 0.6108 0.14054 0.60907 0.0
C1438 C 0.58921 0.83164 0.39532 0.0
C1439 C 0.596 0.81969 0.42395 0.0
C1440 C 0.64605 0.81859 0.40995 0.0
C1441 C 0.63792 0.82761 0.3799 0.0
N1442 N 0.59949 0.83709 0.34118 0.0
N1443 N 0.62818 0.79579 0.45517 0.0
C1444 C 0.6088 0.83248 0.37175 0.0
C1445 C 0.62372 0.81153 0.43039 0.0
N1446 N 0.56488 0.84361 0.39127 0.0
N1447 N 0.67539 0.81769 0.41946 0.0
H1448 H 0.61205 0.78939 0.47016 0.0
H1449 H 0.64645 0.78636 0.45885 0.0
H1450 H 0.69243 0.82273 0.40521 0.0
H1451 H 0.68356 0.81466 0.44264 0.0
H1452 H 0.56091 0.85576 0.37269 0.0
H1453 H 0.55031 0.84413 0.40819 0.0
H1454 H 0.57722 0.83737 0.33273 0.0
H1455 H 0.61316 0.83779 0.32321 0.0
C1456 C 0.09363 0.28859 0.4567 0.0
C1457 C 0.06908 0.29315 0.43564 0.0
C1458 C 0.03356 0.24711 0.44926 0.0
C1459 C 0.05721 0.2455 0.47364 0.0
N1460 N 0.10908 0.26702 0.50338 0.0
N1461 N 1.01469 0.27864 0.41433 0.0
C1462 C 0.08713 0.26679 0.47804 0.0
C1463 C 0.03878 0.27273 0.43231 0.0
N1464 N 0.12332 0.30436 0.45547 0.0
N1465 N 1.00628 0.22377 0.44183 0.0
H1466 H 1.0174 0.29694 0.40141 0.0
H1467 H 0.99176 0.26691 0.41421 0.0
H1468 H 1.00164 0.20468 0.45373 0.0
H1469 H 0.98934 0.22184 0.42202 0.0
H1470 H 0.14231 0.29974 0.46781 0.0
H1471 H 0.129 0.31978 0.43943 0.0
H1472 H 0.13018 0.28428 0.51001 0.0
H1473 H 0.10529 0.25144 0.51955 0.0
C1474 C 0.658 0.26519 0.24636 0.0
C1475 C 0.64561 0.28901 0.25938 0.0
C1476 C 0.69812 0.31829 0.28934 0.0
C1477 C 0.71126 0.29693 0.27225 0.0
N1478 N 0.70252 0.25157 0.23054 0.0
N1479 N 0.65515 0.34015 0.29129 0.0
C1480 C 0.69078 0.27058 0.24995 0.0
C1481 C 0.66609 0.31606 0.28038 0.0
N1482 N 0.63825 0.23705 0.23066 0.0
N1483 N 0.71587 0.33989 0.31536 0.0
H1484 H 0.63186 0.33871 0.28655 0.0
H1485 H 0.66934 0.36204 0.30327 0.0
H1486 H 0.73841 0.34067 0.32402 0.0
H1487 H 0.7073 0.35444 0.33055 0.0
H1488 H 0.64537 0.21759 0.22309 0.0
H1489 H 0.61447 0.23225 0.22856 0.0
H1490 H 0.68903 0.23409 0.21145 0.0
H1491 H 0.72602 0.25514 0.2313 0.0
C1492 C 0.55541 0.95997 0.9283 0.0
C1493 C 0.56964 0.937 0.93628 0.0
C1494 C 0.5832 0.96481 0.99342 0.0
C1495 C 0.5649 0.98474 0.98608 0.0
N1496 N 0.52912 0.99725 0.94667 0.0
N1497 N 0.59474 0.91593 0.9777 0.0
C1498 C 0.54999 0.98139 0.95348 0.0
C1499 C 0.58318 0.93914 0.96917 0.0
N1500 N 0.54741 0.96163 0.89638 0.0
N1501 N 0.60141 0.97094 0.02328 0.0
H1502 H 0.5958 0.89728 0.96081 0.0
H1503 H 0.60136 0.91405 1.00173 0.0
H1504 H 0.60237 0.98962 0.04136 0.0
H1505 H 0.61763 0.95937 0.02905 0.0
H1506 H 0.53934 0.97945 0.8889 0.0
H1507 H 0.552 0.94707 0.8774 0.0
H1508 H 0.51519 0.99328 0.92403 0.0
H1509 H 0.52321 0.01195 0.96441 0.0
C1510 C 0.92773 0.76531 0.76574 0.0
C1511 C 0.9522 0.79092 0.76143 0.0
C1512 C 0.91923 0.8257 0.77299 0.0
C1513 C 0.89528 0.80048 0.77898 0.0
N1514 N 0.88024 0.74709 0.78697 0.0
N1515 N 0.97313 0.84674 0.7688 0.0
C1516 C 0.90062 0.77052 0.77701 0.0
C1517 C 0.94838 0.82142 0.76755 0.0
N1518 N 0.92971 0.73565 0.75777 0.0
N1519 N 0.91363 0.85358 0.7704 0.0
H1520 H 0.99468 0.84451 0.76572 0.0
H1521 H 0.97322 0.86973 0.77634 0.0
H1522 H 0.89268 0.85762 0.773 0.0
H1523 H 0.92858 0.87167 0.76243 0.0
H1524 H 0.91146 0.71564 0.75636 0.0
H1525 H 0.94924 0.73113 0.75059 0.0
H1526 H 0.88422 0.72588 0.78967 0.0
H1527 H 0.86058 0.74993 0.79537 0.0
C1528 C 0.13697 0.09921 0.94026 0.0
C1529 C 0.11952 0.08201 0.90973 0.0
C1530 C 0.0845 0.04897 0.93891 0.0
C1531 C 0.09839 0.07002 0.96873 0.0
N1532 N 0.13514 0.11937 0.99577 0.0
N1533 N 0.07347 0.04266 0.88026 0.0
C1534 C 0.12408 0.09618 0.96899 0.0
C1535 C 0.09249 0.05727 0.90907 0.0
N1536 N 0.16631 0.11779 0.94213 0.0
N1537 N 0.06422 0.02061 0.93909 0.0
H1538 H 0.07771 0.04864 0.85795 0.0
H1539 H 0.05194 0.02675 0.87888 0.0
H1540 H 0.05896 0.01308 0.96052 0.0
H1541 H 0.0555 1.00326 0.9184 0.0
H1542 H 0.18092 0.12847 0.96419 0.0
H1543 H 0.17724 0.11944 0.92198 0.0
H1544 H 0.15191 0.14022 0.99581 0.0
H1545 H 0.12541 0.11954 0.01669 0.0
C1546 C 0.79233 0.37272 0.59113 0.0
C1547 C 0.81247 0.38703 0.57116 0.0
C1548 C 0.85409 0.36998 0.59786 0.0
C1549 C 0.83391 0.35542 0.61748 0.0
N1550 N 0.78264 0.3367 0.62888 0.0
N1551 N 0.85946 0.39243 0.54945 0.0
C1552 C 0.80252 0.35463 0.61268 0.0
C1553 C 0.84246 0.38355 0.57267 0.0
N1554 N 0.7643 0.37793 0.59089 0.0
N1555 N 0.88462 0.37193 0.60415 0.0
H1556 H 0.85144 0.40196 0.53027 0.0
H1557 H 0.88012 0.38758 0.54733 0.0
H1558 H 0.8938 0.36121 0.62171 0.0
H1559 H 0.9012 0.38578 0.59344 0.0
H1560 H 0.74986 0.37074 0.60721 0.0
H1561 H 0.75618 0.39146 0.57579 0.0
H1562 H 0.75894 0.3328 0.62432 0.0
H1563 H 0.78959 0.32351 0.6452 0.0
C1564 C 0.48639 0.03966 0.39784 0.0
C1565 C 0.48092 0.0677 0.39083 0.0
C1566 C 0.52076 0.09808 0.43669 0.0
C1567 C 0.52187 0.06982 0.44707 0.0
N1568 N 0.50525 0.01332 0.43854 0.0
N1569 N 0.49231 0.12375 0.40273 0.0
C1570 C 0.50496 0.04043 0.42767 0.0
C1571 C 0.49822 0.09708 0.40977 0.0
N1572 N 0.47392 0.01237 0.37582 0.0
N1573 N 0.54176 0.12561 0.45217 0.0
H1574 H 0.47657 0.12371 0.38249 0.0
H1575 H 0.5017 0.14554 0.4178 0.0
H1576 H 0.55921 0.12654 0.47114 0.0
H1577 H 0.54376 0.14684 0.44434 0.0
H1578 H 0.47953 0.99181 0.37808 0.0
H1579 H 0.46016 0.01099 0.35361 0.0
H1580 H 0.49034 0.99148 0.42744 0.0
H1581 H 0.51904 0.01272 0.45995 0.0
C1582 C 0.77384 0.7583 0.14017 0.0
C1583 C 0.78809 0.78059 0.12187 0.0
C1584 C 0.80713 0.82041 0.17182 0.0
C1585 C 0.79243 0.79823 0.18992 0.0
N1586 N 0.75739 0.74813 0.19114 0.0
N1587 N 0.81438 0.83389 0.11899 0.0
C1588 C 0.77461 0.7677 0.17401 0.0
C1589 C 0.80337 0.81203 0.13732 0.0
N1590 N 0.75946 0.72805 0.12513 0.0
N1591 N 0.82597 0.84896 0.18782 0.0
H1592 H 0.81379 0.82835 0.09404 0.0
H1593 H 0.82241 0.85783 0.128 0.0
H1594 H 0.82884 0.85615 0.21286 0.0
H1595 H 0.84033 0.86487 0.1768 0.0
H1596 H 0.75236 0.70965 0.13743 0.0
H1597 H 0.75565 0.72092 0.10003 0.0
H1598 H 0.74139 0.72674 0.18063 0.0
H1599 H 0.75715 0.75437 0.21584 0.0
C1600 C 0.07888 0.06752 0.7116 0.0
C1601 C 0.10137 0.09534 0.72865 0.0
C1602 C 0.10096 0.11713 0.67819 0.0
C1603 C 0.08149 0.08793 0.66048 0.0
N1604 N 0.05446 0.03387 0.65975 0.0
N1605 N 0.13837 0.14436 0.72644 0.0
C1606 C 0.07122 0.06269 0.67704 0.0
C1607 C 0.11345 0.11972 0.71158 0.0
N1608 N 0.06393 0.04619 0.72853 0.0
N1609 N 0.10784 0.14241 0.66307 0.0
H1610 H 0.14936 0.14667 0.75024 0.0
H1611 H 0.15022 0.16092 0.71415 0.0
H1612 H 0.09996 0.14125 0.63847 0.0
H1613 H 0.11916 0.16507 0.67549 0.0
H1614 H 0.04514 0.027 0.71783 0.0
H1615 H 0.0683 0.04928 0.75384 0.0
H1616 H 0.04972 0.01369 0.66987 0.0
H1617 H 0.04697 0.02969 0.63474 0.0
C1618 C 0.78382 0.4156 0.3947 0.0
C1619 C 0.7958 0.41268 0.4263 0.0
C1620 C 0.80813 0.36513 0.40423 0.0
C1621 C 0.79991 0.37054 0.37245 0.0
N1622 N 0.77999 0.40075 0.33666 0.0
N1623 N 0.81967 0.3849 0.46195 0.0
C1624 C 0.78763 0.39565 0.36744 0.0
C1625 C 0.80736 0.3871 0.43138 0.0
N1626 N 0.76796 0.43694 0.391 0.0
N1627 N 0.81748 0.33942 0.40862 0.0
H1628 H 0.81802 0.39885 0.4829 0.0
H1629 H 0.83298 0.37016 0.46681 0.0
H1630 H 0.82276 0.32506 0.39008 0.0
H1631 H 0.81884 0.33133 0.43055 0.0
H1632 H 0.75582 0.43838 0.36893 0.0
H1633 H 0.76446 0.45145 0.41075 0.0
H1634 H 0.77472 0.42081 0.33172 0.0
H1635 H 0.78003 0.38555 0.31573 0.0
C1636 C 0.42038 1.00274 0.22646 0.0
C1637 C 0.41671 0.98261 0.24948 0.0
C1638 C 0.449 0.95444 0.22442 0.0
C1639 C 0.45691 0.97797 0.2054 0.0
N1640 N 0.45225 0.02634 0.18995 0.0
N1641 N 0.42919 0.94058 0.27253 0.0
C1642 C 0.44292 1.00247 0.20654 0.0
C1643 C 0.43108 0.95844 0.24881 0.0
N1644 N 0.40186 0.02171 0.22336 0.0
N1645 N 0.45847 0.92827 0.21897 0.0
H1646 H 0.41616 0.94263 0.29076 0.0
H1647 H 0.44212 0.92509 0.2754 0.0
H1648 H 0.47173 0.92481 0.20126 0.0
H1649 H 0.45084 0.90886 0.22978 0.0
H1650 H 0.40148 0.0349 0.20499 0.0
H1651 H 0.38442 0.02153 0.237 0.0
H1652 H 0.44533 0.04655 0.1929 0.0
H1653 H 0.46883 0.02724 0.1751 0.0
C1654 C 0.82517 0.75236 0.92057 0.0
C1655 C 0.80129 0.75577 0.93796 0.0
C1656 C 0.7839 0.78496 0.89807 0.0
C1657 C 0.8083 0.78236 0.88124 0.0
N1658 N 0.8546 0.76754 0.87835 0.0
N1659 N 0.76075 0.77906 0.9463 0.0
C1660 C 0.82955 0.76701 0.89294 0.0
C1661 C 0.78169 0.77345 0.92775 0.0
N1662 N 0.84376 0.73514 0.93064 0.0
N1663 N 0.7617 0.79678 0.88459 0.0
H1664 H 0.75705 0.76951 0.96706 0.0
H1665 H 0.74845 0.79491 0.94249 0.0
H1666 H 0.76213 0.80497 0.86271 0.0
H1667 H 0.74146 0.79617 0.89347 0.0
H1668 H 0.8587 0.7279 0.91693 0.0
H1669 H 0.84362 0.72718 0.95266 0.0
H1670 H 0.87271 0.75954 0.8873 0.0
H1671 H 0.85847 0.77804 0.85815 0.0
C1672 C 0.82599 0.05676 0.04739 0.0
C1673 C 0.84205 0.0884 0.06147 0.0
C1674 C 0.89103 0.07996 0.05244 0.0
C1675 C 0.87471 0.04889 0.03648 0.0
N1676 N 0.82753 1.00749 0.01691 0.0
N1677 N 0.88911 0.13074 0.07825 0.0
C1678 C 0.84241 0.03711 0.03366 0.0
C1679 C 0.87442 0.10013 0.06437 0.0
N1680 N 0.79506 0.0457 0.04704 0.0
N1681 N 0.92248 0.08992 0.05644 0.0
H1682 H 0.87817 0.14543 0.08992 0.0
H1683 H 0.91191 0.14218 0.07765 0.0
H1684 H 0.93547 0.07655 0.04645 0.0
H1685 H 0.93624 0.11085 0.07087 0.0
H1686 H 0.78235 0.02227 0.04016 0.0
H1687 H 0.78197 0.05981 0.05525 0.0
H1688 H 0.80377 0.99817 0.01097 0.0
H1689 H 0.83912 0.99236 0.00732 0.0
C1690 C 0.43675 0.46581 0.04983 0.0
C1691 C 0.42684 0.46877 0.08026 0.0
C1692 C 0.46935 0.5169 0.10067 0.0
C1693 C 0.47876 0.51425 0.06981 0.0
N1694 N 0.46606 0.49188 0.01266 0.0
N1695 N 0.4294 0.49981 0.13238 0.0
C1696 C 0.46078 0.49039 0.04366 0.0
C1697 C 0.44188 0.49514 0.10505 0.0
N1698 N 0.42408 0.43894 0.02726 0.0
N1699 N 0.48713 0.53932 0.12612 0.0
H1700 H 0.40953 0.48416 0.13653 0.0
H1701 H 0.4372 0.52029 0.14972 0.0
H1702 H 0.50672 0.55647 0.12389 0.0
H1703 H 0.48365 0.5398 0.15006 0.0
H1704 H 0.43273 0.43413 0.0061 0.0
H1705 H 0.40669 0.42008 0.03096 0.0
H1706 H 0.45187 0.4768 0.99219 0.0
H1707 H 0.48265 0.51036 0.00708 0.0
C1708 C 0.42703 0.63675 0.83529 0.0
C1709 C 0.42831 0.61972 0.8048 0.0
C1710 C 0.3821 0.63121 0.78016 0.0
C1711 C 0.38301 0.65103 0.80967 0.0
N1712 N 0.40982 0.67757 0.86348 0.0
N1713 N 0.4104 0.60559 0.74672 0.0
C1714 C 0.40651 0.65525 0.83673 0.0
C1715 C 0.40671 0.6182 0.77678 0.0
N1716 N 0.44419 0.63404 0.86318 0.0
N1717 N 0.35736 0.62418 0.75565 0.0
H1718 H 0.42852 0.59653 0.74299 0.0
H1719 H 0.39726 0.60688 0.72516 0.0
H1720 H 0.33883 0.63321 0.75729 0.0
H1721 H 0.35388 0.60725 0.73495 0.0
H1722 H 0.44171 0.64344 0.88632 0.0
H1723 H 0.45856 0.61968 0.86357 0.0
H1724 H 0.42864 0.684 0.88236 0.0
H1725 H 0.3953 0.6917 0.86552 0.0
C1726 C 0.20781 0.63509 0.56007 0.0
C1727 C 0.22283 0.63412 0.59135 0.0
C1728 C 0.17339 0.60934 0.60585 0.0
C1729 C 0.15919 0.60647 0.57317 0.0
N1730 N 0.16335 0.61201 0.51768 0.0
N1731 N 0.22078 0.61671 0.64283 0.0
C1732 C 0.17649 0.61807 0.54981 0.0
C1733 C 0.20588 0.62036 0.61406 0.0
N1734 N 0.22311 0.65343 0.54074 0.0
N1735 N 0.15583 0.60273 0.62922 0.0
H1736 H 0.24464 0.62439 0.64966 0.0
H1737 H 0.20965 0.60377 0.65868 0.0
H1738 H 0.13188 0.59537 0.6242 0.0
H1739 H 0.16486 0.60746 0.65396 0.0
H1740 H 0.21251 0.6573 0.51896 0.0
H1741 H 0.24568 0.66753 0.5483 0.0
H1742 H 0.17601 0.61687 0.49927 0.0
H1743 H 0.14034 0.59951 0.50902 0.0
C1744 C 0.81088 0.0514 0.77605 0.0
C1745 C 0.78074 0.03473 0.75912 0.0
C1746 C 0.78958 0.98513 0.76679 0.0
C1747 C 0.81998 1.00156 0.78296 0.0
N1748 N 0.86207 0.04906 0.79638 0.0
N1749 N 0.74516 0.98618 0.72971 0.0
C1750 C 0.83152 0.03434 0.78526 0.0
C1751 C 0.77142 1.00168 0.75154 0.0
N1752 N 0.81915 0.08318 0.78531 0.0
N1753 N 0.77727 0.95416 0.76778 0.0
H1754 H 0.73164 0.99789 0.71773 0.0
H1755 H 0.73871 0.96217 0.721 0.0
H1756 H 0.7894 0.94108 0.77942 0.0
H1757 H 0.75414 0.94208 0.75944 0.0
H1758 H 0.83948 0.09603 0.80098 0.0
H1759 H 0.80482 0.09667 0.77928 0.0
H1760 H 0.87244 0.07247 0.79572 0.0
H1761 H 0.87756 0.03705 0.8036 0.0
C1762 C 0.74118 0.95101 0.50929 0.0
C1763 C 0.7581 0.95159 0.54014 0.0
C1764 C 0.74368 0.99729 0.56334 0.0
C1765 C 0.72434 0.99472 0.53338 0.0
N1766 N 0.70035 0.96603 0.47946 0.0
N1767 N 0.77118 0.97151 0.59792 0.0
C1768 C 0.72184 0.97068 0.50677 0.0
C1769 C 0.75827 0.97376 0.56759 0.0
N1770 N 0.74461 0.93273 0.48217 0.0
N1771 N 0.74866 0.02262 0.58744 0.0
H1772 H 0.78154 0.95418 0.60219 0.0
H1773 H 0.76912 0.98494 0.6192 0.0
H1774 H 0.73828 0.04032 0.58521 0.0
H1775 H 0.76508 0.0275 0.60845 0.0
H1776 H 0.73539 0.9339 0.45863 0.0
H1777 H 0.75909 0.91847 0.48283 0.0
H1778 H 0.69514 0.94671 0.46082 0.0
H1779 H 0.68581 0.98004 0.4766 0.0
C1780 C 0.37002 0.45143 0.7644 0.0
C1781 C 0.40247 0.45769 0.77206 0.0
C1782 C 0.39515 0.41147 0.79777 0.0
C1783 C 0.36305 0.40277 0.78594 0.0
N1784 N 0.32065 0.41175 0.75221 0.0
N1785 N 0.44569 0.43935 0.78964 0.0
C1786 C 0.35059 0.42199 0.76766 0.0
C1787 C 0.415 0.43648 0.78696 0.0
N1788 N 0.35756 0.47399 0.75555 0.0
N1789 N 0.40665 0.39659 0.82026 0.0
H1790 H 0.46089 0.45642 0.78057 0.0
H1791 H 0.45535 0.42267 0.79754 0.0
H1792 H 0.39268 0.3792 0.83012 0.0
H1793 H 0.42956 0.40398 0.83181 0.0
H1794 H 0.33408 0.47151 0.75289 0.0
H1795 H 0.37076 0.49641 0.7543 0.0
H1796 H 0.3115 0.42354 0.7358 0.0
H1797 H 0.30575 0.39007 0.75325 0.0
C1798 C 0.26048 0.68426 0.20643 0.0
C1799 C 0.2689 0.67024 0.23291 0.0
C1800 C 0.31702 0.7126 0.2485 0.0
C1801 C 0.30363 0.73054 0.22976 0.0
N1802 N 0.26625 0.73266 0.18555 0.0
N1803 N 0.30658 0.67125 0.27963 0.0
C1804 C 0.27686 0.71571 0.20627 0.0
C1805 C 0.29801 0.68389 0.25362 0.0
N1806 N 0.23687 0.66755 0.18188 0.0
N1807 N 0.34744 0.72339 0.26189 0.0
H1808 H 0.29336 0.65072 0.2853 0.0
H1809 H 0.32601 0.68265 0.29725 0.0
H1810 H 0.36178 0.74345 0.25629 0.0
H1811 H 0.35891 0.71039 0.27451 0.0
H1812 H 0.23092 0.67586 0.16089 0.0
H1813 H 0.22513 0.64412 0.18121 0.0
H1814 H 0.24486 0.72471 0.17039 0.0
H1815 H 0.27899 0.75543 0.18462 0.0
C1816 C 0.51104 0.67932 0.49007 0.0
C1817 C 0.51931 0.7071 0.51419 0.0
C1818 C 0.53769 0.67709 0.55398 0.0
C1819 C 0.53154 0.65003 0.5294 0.0
N1820 N 0.51695 0.62778 0.47234 0.0
N1821 N 0.54624 0.73332 0.56786 0.0
C1822 C 0.51942 0.65187 0.49699 0.0
C1823 C 0.5342 0.70608 0.54577 0.0
N1824 N 0.49394 0.67856 0.46079 0.0
N1825 N 0.54572 0.67482 0.5857 0.0
H1826 H 0.54491 0.7549 0.5627 0.0
H1827 H 0.56022 0.73511 0.58997 0.0
H1828 H 0.54807 0.65421 0.59274 0.0
H1829 H 0.54716 0.69231 0.60523 0.0
H1830 H 0.48396 0.65821 0.44354 0.0
H1831 H 0.48769 0.69788 0.4547 0.0
H1832 H 0.51176 0.62889 0.44784 0.0
H1833 H 0.52265 0.60757 0.47623 0.0
C1834 C 0.72765 0.36122 0.68577 0.0
C1835 C 0.69655 0.34241 0.68208 0.0
C1836 C 0.71173 0.31986 0.72975 0.0
C1837 C 0.74324 0.33608 0.73101 0.0
N1838 N 0.78161 0.37009 0.70792 0.0
N1839 N 0.66021 0.29989 0.69817 0.0
C1840 C 0.75129 0.35603 0.70822 0.0
C1841 C 0.68886 0.32092 0.70367 0.0
N1842 N 0.73443 0.38524 0.66889 0.0
N1843 N 0.70347 0.30309 0.75345 0.0
H1844 H 0.64267 0.29937 0.67965 0.0
H1845 H 0.65445 0.28105 0.7102 0.0
H1846 H 0.71935 0.29968 0.77155 0.0
H1847 H 0.68078 0.29429 0.75653 0.0
H1848 H 0.75591 0.40178 0.67261 0.0
H1849 H 0.71772 0.39055 0.65334 0.0
H1850 H 0.78927 0.38184 0.68962 0.0
H1851 H 0.79941 0.36828 0.72488 0.0
C1852 C 0.05529 0.41892 0.99287 0.0
C1853 C 0.03484 0.39626 0.00624 0.0
C1854 C 0.02868 0.44015 0.04465 0.0
C1855 C 0.04488 0.46266 0.02738 0.0
N1856 N 0.06748 0.47066 0.97931 0.0
N1857 N 0.99859 0.3863 0.0428 0.0
C1858 C 0.05666 0.45126 1.00002 0.0
C1859 C 1.02068 0.40716 0.0317 0.0
N1860 N 0.07417 0.40964 0.9737 0.0
N1861 N 0.02194 0.44993 0.07419 0.0
H1862 H 0.99231 0.36226 0.03432 0.0
H1863 H 0.98488 0.39313 0.05851 0.0
H1864 H 0.02833 0.47334 0.08538 0.0
H1865 H 1.01298 0.43457 0.08919 0.0
H1866 H 0.09146 0.42535 0.96552 0.0
H1867 H 0.07502 0.38659 0.96951 0.0
H1868 H 0.07355 0.4627 0.95745 0.0
H1869 H 0.06686 0.49374 0.98172 0.0
C1870 C 1.00044 0.78694 0.16201 0.0
C1871 C 1.01948 0.81755 0.16201 0.0
C1872 C 0.99716 0.83862 0.20665 0.0
C1873 C 0.97624 0.80852 0.20451 0.0
N1874 N 0.95417 0.75513 0.17648 0.0
N1875 N 0.03238 0.87331 0.18032 0.0
C1876 C 0.97676 0.78298 0.18108 0.0
C1877 C 1.01692 0.84364 0.1833 0.0
N1878 N 1.00591 0.76148 0.14504 0.0
N1879 N 0.99871 0.86221 0.23151 0.0
H1880 H 0.04677 0.87797 0.16327 0.0
H1881 H 0.02886 0.89332 0.19267 0.0
H1882 H 0.98444 0.85951 0.2489 0.0
H1883 H 1.01576 0.88364 0.23648 0.0
H1884 H 0.99487 0.73852 0.14683 0.0
H1885 H 0.02361 0.7632 0.13155 0.0
H1886 H 0.95134 0.7368 0.15732 0.0
H1887 H 0.93656 0.75125 0.19016 0.0
C1888 C 0.55297 0.377 0.18664 0.0
C1889 C 0.55861 0.34756 0.17938 0.0
C1890 C 0.567 0.35815 0.12508 0.0
C1891 C 0.56598 0.38925 0.13434 0.0
N1892 N 0.56281 0.42992 0.17626 0.0
N1893 N 0.57571 0.31209 0.14286 0.0
C1894 C 0.56022 0.39914 0.16576 0.0
C1895 C 0.5667 0.33851 0.14881 0.0
N1896 N 0.53949 0.38342 0.21278 0.0
N1897 N 0.56756 0.34708 0.09339 0.0
H1898 H 0.57654 0.29722 0.1595 0.0
H1899 H 0.58513 0.30639 0.1225 0.0
H1900 H 0.56752 0.36065 0.0753 0.0
H1901 H 0.56502 0.32365 0.08449 0.0
H1902 H 0.53212 0.40324 0.21737 0.0
H1903 H 0.5325 0.36732 0.22782 0.0
H1904 H 0.56213 0.43897 0.20017 0.0
H1905 H 0.56849 0.44703 0.162 0.0
C1906 C 0.96106 0.36764 0.34705 0.0
C1907 C 0.97605 0.34625 0.33348 0.0
C1908 C 0.92629 0.31709 0.29708 0.0
C1909 C 0.91068 0.33627 0.3135 0.0
N1910 N 0.91334 0.37871 0.35612 0.0
N1911 N 0.97161 0.2986 0.29716 0.0
C1912 C 0.92822 0.3613 0.33895 0.0
C1913 C 0.95833 0.32065 0.30859 0.0
N1914 N 0.97853 0.39476 0.36721 0.0
N1915 N 0.91045 0.29537 0.27025 0.0
H1916 H 0.99478 0.30066 0.30442 0.0
H1917 H 0.95937 0.27738 0.28215 0.0
H1918 H 0.88714 0.29159 0.26183 0.0
H1919 H 0.92077 0.28287 0.25492 0.0
H1920 H 0.96994 0.41294 0.37554 0.0
H1921 H 1.0024 0.40045 0.3731 0.0
H1922 H 0.92381 0.3947 0.37748 0.0
H1923 H 0.8898 0.37568 0.35021 0.0
C1924 C 1.01608 0.6758 0.62891 0.0
C1925 C 0.03837 0.69102 0.6572 0.0
C1926 C 0.06947 0.65624 0.6419 0.0
C1927 C 0.04644 0.63979 0.61437 0.0
N1928 N 0.99436 0.62978 0.58654 0.0
N1929 N 0.08237 0.69042 0.69464 0.0
C1930 C 1.01871 0.64839 0.60931 0.0
C1931 C 0.06362 0.67927 0.66508 0.0
N1932 N 0.99252 0.68787 0.6204 0.0
N1933 N 0.09796 0.65183 0.64476 0.0
H1934 H 0.07879 0.70731 0.71192 0.0
H1935 H 0.0993 0.68066 0.70321 0.0
H1936 H 0.10427 0.63719 0.62736 0.0
H1937 H 0.11652 0.66538 0.66249 0.0
H1938 H 0.97776 0.68047 0.59803 0.0
H1939 H 0.98877 0.70657 0.63513 0.0
H1940 H 0.97257 0.63291 0.58404 0.0
H1941 H 0.995 0.60933 0.57216 0.0
C1942 C 0.66675 0.82942 0.80666 0.0
C1943 C 0.66831 0.84979 0.83632 0.0
C1944 C 0.72541 0.86012 0.84547 0.0
C1945 C 0.72416 0.841 0.81504 0.0
N1946 N 0.69299 0.81317 0.7636 0.0
N1947 N 0.70071 0.89067 0.87919 0.0
C1948 C 0.69457 0.82736 0.7948 0.0
C1949 C 0.69818 0.86699 0.85408 0.0
N1950 N 0.63869 0.81082 0.79036 0.0
N1951 N 0.75222 0.87025 0.86749 0.0
H1952 H 0.68165 0.89683 0.88569 0.0
H1953 H 0.72168 0.90631 0.89107 0.0
H1954 H 0.77229 0.86509 0.86316 0.0
H1955 H 0.75374 0.88102 0.89138 0.0
H1956 H 0.63588 0.79273 0.77093 0.0
H1957 H 0.61817 0.81211 0.79771 0.0
H1958 H 0.67279 0.80549 0.74647 0.0
H1959 H 0.71249 0.81195 0.75386 0.0
C1960 C 0.53276 0.56491 0.69641 0.0
C1961 C 0.50327 0.56779 0.69998 0.0
C1962 C 0.49381 0.57376 0.6426 0.0
C1963 C 0.52256 0.56906 0.63861 0.0
N1964 N 0.56614 0.5529 0.65966 0.0
N1965 N 0.4531 0.56816 0.67476 0.0
C1966 C 0.54111 0.56255 0.66495 0.0
C1967 C 0.48303 0.57029 0.67254 0.0
N1968 N 0.55342 0.56584 0.72324 0.0
N1969 N 0.47722 0.58252 0.61816 0.0
H1970 H 0.44401 0.56433 0.69576 0.0
H1971 H 0.43652 0.56714 0.655 0.0
H1972 H 0.48435 0.58522 0.59596 0.0
H1973 H 0.45772 0.58959 0.62075 0.0
H1974 H 0.57642 0.56751 0.72265 0.0
H1975 H 0.54833 0.56763 0.74669 0.0
H1976 H 0.57854 0.54448 0.67694 0.0
H1977 H 0.5728 0.55038 0.63698 0.0
C1978 C 0.7902 0.26575 0.03768 0.0
C1979 C 0.78104 0.23307 0.02544 0.0
C1980 C 0.7659 0.24221 0.97075 0.0
C1981 C 0.77229 0.2745 0.98358 0.0
N1982 N 0.78616 0.31673 0.02954 0.0
N1983 N 0.7546 0.18958 0.98178 0.0
C1984 C 0.78314 0.28621 0.01719 0.0
C1985 C 0.76738 0.22108 0.99235 0.0
N1986 N 0.80688 0.27735 0.06834 0.0
N1987 N 0.7594 0.23183 0.93783 0.0
H1988 H 0.75496 0.17311 0.99673 0.0
H1989 H 0.74116 0.1799 0.95891 0.0
H1990 H 0.75793 0.24646 0.92098 0.0
H1991 H 0.75807 0.20918 0.9271 0.0
H1992 H 0.81693 0.30114 0.07734 0.0
H1993 H 0.81316 0.2632 0.08387 0.0
H1994 H 0.79084 0.32583 0.05434 0.0
H1995 H 0.78145 0.3324 0.01505 0.0
C1996 C 0.12027 0.58783 0.19251 0.0
C1997 C 0.13421 0.56357 0.19529 0.0
C1998 C 0.10357 0.53381 0.14307 0.0
C1999 C 0.08774 0.5568 0.14169 0.0
N2000 N 0.07791 0.60363 0.16705 0.0
N2001 N 0.13672 0.5117 0.17593 0.0
C2002 C 0.09503 0.58309 0.16712 0.0
C2003 C 0.12534 0.53612 0.1712 0.0
N2004 N 0.1323 0.61612 0.21301 0.0
N2005 N 0.09774 0.5097 0.1175 0.0
H2006 H 0.15259 0.5125 0.19634 0.0
H2007 H 0.12872 0.48972 0.16108 0.0
H2008 H 0.08044 0.50599 0.09766 0.0
H2009 H 0.11102 0.4944 0.11507 0.0
H2010 H 0.1254 0.63584 0.20988 0.0
H2011 H 0.15134 0.62096 0.23141 0.0
H2012 H 0.07972 0.62097 0.18687 0.0
H2013 H 0.06044 0.60226 0.14796 0.0
C2014 C 0.82363 0.88155 0.44175 0.0
C2015 C 0.83175 0.86198 0.46282 0.0
C2016 C 0.83258 0.82371 0.41561 0.0
C2017 C 0.82264 0.84241 0.39456 0.0
N2018 N 0.8055 0.88745 0.38709 0.0
N2019 N 0.84031 0.813 0.47056 0.0
C2020 C 0.817 0.87071 0.40753 0.0
C2021 C 0.83534 0.83268 0.44993 0.0
N2022 N 0.82411 0.91136 0.45432 0.0
N2023 N 0.83946 0.79743 0.40276 0.0
H2024 H 0.84237 0.8189 0.49572 0.0
H2025 H 0.84008 0.79002 0.46286 0.0
H2026 H 0.83604 0.78915 0.37782 0.0
H2027 H 0.85014 0.78468 0.41657 0.0
H2028 H 0.82204 0.92808 0.44019 0.0
H2029 H 0.82913 0.92053 0.47914 0.0
H2030 H 0.79671 0.90561 0.39497 0.0
H2031 H 0.80314 0.8822 0.36188 0.0
C2032 C 0.51109 0.51816 0.89878 0.0
C2033 C 0.52227 0.54314 0.88209 0.0
C2034 C 0.54849 0.57682 0.93459 0.0
C2035 C 0.54074 0.5507 0.95055 0.0
N2036 N 0.51743 0.49535 0.94705 0.0
N2037 N 0.55635 0.59469 0.8839 0.0
C2038 C 0.5232 0.52094 0.9323 0.0
C2039 C 0.54223 0.57209 0.89996 0.0
N2040 N 0.48718 0.4927 0.88345 0.0
N2041 N 0.56141 0.6063 0.95239 0.0
H2042 H 0.55318 0.59181 0.85861 0.0
H2043 H 0.57356 0.61494 0.89555 0.0
H2044 H 0.56728 0.61089 0.97765 0.0
H2045 H 0.56418 0.62644 0.94224 0.0
H2046 H 0.47609 0.47536 0.89536 0.0
H2047 H 0.47585 0.49056 0.85981 0.0
H2048 H 0.50792 0.47255 0.93418 0.0
H2049 H 0.52409 0.4966 0.9719 0.0
C2050 C 0.85746 0.26203 0.16213 0.0
C2051 C 0.84519 0.22889 0.15577 0.0
C2052 C 0.81935 0.23087 0.20257 0.0
C2053 C 0.82947 0.26401 0.20793 0.0
N2054 N 0.86549 0.31094 0.19902 0.0
N2055 N 0.83045 0.18359 0.18086 0.0
C2056 C 0.85062 0.27968 0.18943 0.0
C2057 C 0.83137 0.21388 0.17966 0.0
N2058 N 0.87621 0.27655 0.14279 0.0
N2059 N 0.79709 0.21543 0.21804 0.0
H2060 H 0.84144 0.17151 0.16581 0.0
H2061 H 0.82253 0.17225 0.19936 0.0
H2062 H 0.7861 0.2269 0.23364 0.0
H2063 H 0.78722 0.19124 0.21253 0.0
H2064 H 0.8812 0.30033 0.14207 0.0
H2065 H 0.88779 0.26478 0.12829 0.0
H2066 H 0.88337 0.3231 0.18866 0.0
H2067 H 0.86178 0.32456 0.21922 0.0
C2068 C 0.171 0.64323 0.33447 0.0
C2069 C 0.19735 0.63345 0.3429 0.0
C2070 C 0.18556 0.6301 0.39739 0.0
C2071 C 0.15693 0.63537 0.38736 0.0
N2072 N 0.12049 0.64345 0.34514 0.0
N2073 N 0.22848 0.61423 0.38084 0.0
C2074 C 0.1492 0.64133 0.35565 0.0
C2075 C 0.20446 0.62614 0.37403 0.0
N2076 N 0.167 0.65455 0.3063 0.0
N2077 N 0.19508 0.62998 0.42942 0.0
H2078 H 0.24325 0.61161 0.36454 0.0
H2079 H 0.23261 0.60518 0.40182 0.0
H2080 H 0.18202 0.63362 0.44725 0.0
H2081 H 0.21707 0.62947 0.43875 0.0
H2082 H 0.14983 0.66492 0.30031 0.0
H2083 H 0.1827 0.65628 0.29033 0.0
H2084 H 0.11244 0.6442 0.32111 0.0
H2085 H 0.10367 0.64188 0.35975 0.0
C2086 C 0.81983 0.89244 0.67154 0.0
C2087 C 0.8267 0.87174 0.64699 0.0
C2088 C 0.81935 0.83119 0.6809 0.0
C2089 C 0.81126 0.8514 0.70496 0.0
N2090 N 0.79842 0.89889 0.72092 0.0
N2091 N 0.82717 0.81973 0.62522 0.0
C2092 C 0.8099 0.88136 0.69956 0.0
C2093 C 0.82468 0.84058 0.65077 0.0
N2094 N 0.82406 0.92307 0.66874 0.0
N2095 N 0.82358 0.80367 0.68745 0.0
H2096 H 0.83128 0.82587 0.60291 0.0
H2097 H 0.82253 0.79582 0.62509 0.0
H2098 H 0.8196 0.79563 0.70891 0.0
H2099 H 0.83322 0.78985 0.67271 0.0
H2100 H 0.82303 0.94024 0.68742 0.0
H2101 H 0.8308 0.93195 0.64843 0.0
H2102 H 0.79372 0.91944 0.71672 0.0
H2103 H 0.79101 0.89142 0.74163 0.0
C2104 C 0.7631 0.54295 0.53875 0.0
C2105 C 0.75249 0.51333 0.54792 0.0
C2106 C 0.7197 0.53306 0.58117 0.0
C2107 C 0.73214 0.5633 0.57391 0.0
N2108 N 0.77048 0.59868 0.55218 0.0
N2109 N 0.72663 0.48213 0.58376 0.0
C2110 C 0.75553 0.56877 0.55482 0.0
C2111 C 0.73258 0.50892 0.57097 0.0
N2112 N 0.77901 0.54608 0.51354 0.0
N2113 N 0.69462 0.52688 0.59624 0.0
H2114 H 0.73582 0.46392 0.57702 0.0
H2115 H 0.71498 0.47921 0.60325 0.0
H2116 H 0.68346 0.54335 0.6031 0.0
H2117 H 0.68316 0.50459 0.5996 0.0
H2118 H 0.7846 0.56646 0.50382 0.0
H2119 H 0.7839 0.5274 0.50007 0.0
H2120 H 0.78971 0.60433 0.54101 0.0
H2121 H 0.76546 0.61812 0.56402 0.0
C2122 C 0.19385 0.16941 0.56958 0.0
C2123 C 0.2008 0.17225 0.5381 0.0
C2124 C 0.15839 0.12481 0.51445 0.0
C2125 C 0.14848 0.12501 0.545 0.0
N2126 N 0.1572 0.14627 0.60229 0.0
N2127 N 0.18882 0.15439 0.4801 0.0
C2128 C 0.1664 0.147 0.57276 0.0
C2129 C 0.18304 0.15021 0.51042 0.0
N2130 N 0.21427 0.18708 0.59653 0.0
N2131 N 0.14461 0.10029 0.4894 0.0
H2132 H 0.20667 0.17271 0.47621 0.0
H2133 H 0.17447 0.14133 0.4587 0.0
H2134 H 0.12642 0.08132 0.49118 0.0
H2135 H 0.15289 0.09731 0.4677 0.0
H2136 H 0.21213 0.18399 0.6202 0.0
H2137 H 0.23505 0.20316 0.59532 0.0
H2138 H 0.16641 0.16418 0.62239 0.0
H2139 H 0.13951 0.12798 0.60649 0.0
C2140 C 0.22586 0.02663 0.78067 0.0
C2141 C 0.1942 0.01212 0.78026 0.0
C2142 C 0.20243 0.96056 0.76854 0.0
C2143 C 0.23457 0.97517 0.77313 0.0
N2144 N 0.27754 0.02205 0.78883 0.0
N2145 N 0.15306 0.9652 0.77902 0.0
C2146 C 0.24651 0.00822 0.7807 0.0
C2147 C 0.1826 0.97902 0.77549 0.0
N2148 N 0.23598 0.05773 0.77937 0.0
N2149 N 0.19077 0.92917 0.75673 0.0
H2150 H 0.13797 0.97787 0.78488 0.0
H2151 H 0.14442 0.94139 0.77916 0.0
H2152 H 0.20459 0.91491 0.75124 0.0
H2153 H 0.16732 0.91788 0.74954 0.0
H2154 H 0.25824 0.06889 0.77639 0.0
H2155 H 0.22126 0.07164 0.77769 0.0
H2156 H 0.28731 0.04586 0.798 0.0
H2157 H 0.29348 0.00938 0.78916 0.0
C2158 C 0.40715 0.01465 0.06081 0.0
C2159 C 0.39298 0.98712 0.03735 0.0
C2160 C 0.44265 0.98574 0.02339 0.0
C2161 C 0.45644 0.01488 0.04466 0.0
N2162 N 0.45189 0.05955 0.08026 0.0
N2163 N 0.39559 0.9472 0.99444 0.0
C2164 C 0.43876 0.02999 0.06263 0.0
C2165 C 0.41025 0.97286 0.01803 0.0
N2166 N 0.39047 0.0258 0.08166 0.0
N2167 N 0.46064 0.96973 0.00957 0.0
H2168 H 0.37207 0.93599 0.99128 0.0
H2169 H 0.40631 0.93802 0.97685 0.0
H2170 H 0.48455 0.97827 0.01314 0.0
H2171 H 0.45222 0.9469 0.99665 0.0
H2172 H 0.40026 0.04366 0.10171 0.0
H2173 H 0.36697 0.01556 0.08053 0.0
H2174 H 0.43945 0.07312 0.09095 0.0
H2175 H 0.47497 0.07176 0.08197 0.0
C2176 C 0.87286 0.66004 0.81829 0.0
C2177 C 0.88036 0.63421 0.80217 0.0
C2178 C 0.83992 0.62759 0.75552 0.0
C2179 C 0.83165 0.65269 0.77217 0.0
N2180 N 0.83658 0.69017 0.82091 0.0
N2181 N 0.8693 0.59041 0.75799 0.0
C2182 C 0.84693 0.66802 0.80413 0.0
C2183 C 0.86332 0.61703 0.77151 0.0
N2184 N 0.89117 0.67748 0.84659 0.0
N2185 N 0.82592 0.61451 0.72414 0.0
H2186 H 0.88708 0.58257 0.76836 0.0
H2187 H 0.85556 0.57492 0.73757 0.0
H2188 H 0.80766 0.62076 0.71229 0.0
H2189 H 0.83329 0.5987 0.70918 0.0
H2190 H 0.88917 0.69875 0.85768 0.0
H2191 H 0.90998 0.67179 0.85798 0.0
H2192 H 0.84443 0.69961 0.84547 0.0
H2193 H 0.81858 0.69788 0.81093 0.0
C2194 C 0.90048 0.70007 0.04879 0.0
C2195 C 0.87408 0.694 0.02445 0.0
C2196 C 0.88063 0.64362 1.00191 0.0
C2197 C 0.90708 0.64978 0.02608 0.0
N2198 N 0.94596 0.68566 0.06842 0.0
N2199 N 0.84257 0.66361 0.97401 0.0
C2200 C 0.9183 0.67871 0.04813 0.0
C2201 C 0.86525 0.66683 0.99982 0.0
N2202 N 0.90743 0.72519 0.07358 0.0
N2203 N 0.8697 0.61514 0.98161 0.0
H2204 H 0.83046 0.6799 0.97188 0.0
H2205 H 0.83735 0.64623 0.95342 0.0
H2206 H 0.88125 0.59814 0.98127 0.0
H2207 H 0.84839 0.60756 0.96633 0.0
H2208 H 0.92419 0.72895 0.09407 0.0
H2209 H 0.89497 0.74138 0.07492 0.0
H2210 H 0.95702 0.70757 0.08271 0.0
H2211 H 0.95917 0.67015 0.06913 0.0
C2212 C 0.24945 0.16948 0.80575 0.0
C2213 C 0.21912 0.16684 0.81141 0.0
C2214 C 0.23167 0.22401 0.82228 0.0
C2215 C 0.25992 0.22623 0.81097 0.0
N2216 N 0.29366 0.20016 0.78719 0.0
N2217 N 0.17997 0.1918 0.82164 0.0
C2218 C 0.26846 0.19875 0.80167 0.0
C2219 C 0.20987 0.19417 0.81907 0.0
N2220 N 0.2604 0.14416 0.80516 0.0
N2221 N 0.22595 0.25036 0.83686 0.0
H2222 H 0.16317 0.1705 0.81945 0.0
H2223 H 0.17126 0.2109 0.82331 0.0
H2224 H 0.24169 0.27256 0.84051 0.0
H2225 H 0.20709 0.24984 0.84835 0.0
H2226 H 0.28324 0.1454 0.80401 0.0
H2227 H 0.24753 0.12281 0.80969 0.0
H2228 H 0.29888 0.18032 0.77684 0.0
H2229 H 0.30771 0.22089 0.78261 0.0
C2230 C 0.3067 0.94417 0.35436 0.0
C2231 C 0.3362 0.95886 0.37328 0.0
C2232 C 0.34686 0.9089 0.37275 0.0
C2233 C 0.31919 0.89476 0.35015 0.0
N2234 N 0.26859 0.89534 0.32741 0.0
N2235 N 0.37891 0.95565 0.41028 0.0
C2236 C 0.29746 0.91124 0.34398 0.0
C2237 C 0.35412 0.94106 0.38629 0.0
N2238 N 0.28887 0.96209 0.34436 0.0
N2239 N 0.3672 0.89236 0.37898 0.0
H2240 H 0.3843 0.9795 0.4198 0.0
H2241 H 0.39217 0.94393 0.42249 0.0
H2242 H 0.36249 0.86877 0.36911 0.0
H2243 H 0.38922 0.90223 0.39254 0.0
H2244 H 0.26857 0.95346 0.32746 0.0
H2245 H 0.29503 0.98617 0.35284 0.0
H2246 H 0.25093 0.90551 0.32352 0.0
H2247 H 0.26168 0.87109 0.31981 0.0
C2248 C 0.61181 0.44565 0.57729 0.0
C2249 C 0.5892 0.42574 0.5914 0.0
C2250 C 0.55729 0.46222 0.58532 0.0
C2251 C 0.57945 0.48192 0.57064 0.0
N2252 N 0.62608 0.48969 0.54855 0.0
N2253 N 0.53705 0.41161 0.60077 0.0
C2254 C 0.6062 0.47271 0.5654 0.0
C2255 C 0.56101 0.43315 0.59296 0.0
N2256 N 0.63912 0.43923 0.57619 0.0
N2257 N 0.53308 0.47197 0.5935 0.0
H2258 H 0.53851 0.38994 0.60556 0.0
H2259 H 0.51486 0.41365 0.59909 0.0
H2260 H 0.5293 0.4927 0.58839 0.0
H2261 H 0.51823 0.46098 0.60784 0.0
H2262 H 0.65773 0.45339 0.56844 0.0
H2263 H 0.64361 0.4198 0.58418 0.0
H2264 H 0.64454 0.48329 0.54095 0.0
H2265 H 0.6229 0.50954 0.54029 0.0
C2266 C 0.42343 0.77672 0.3733 0.0
C2267 C 0.42353 0.7872 0.40676 0.0
C2268 C 0.37896 0.80606 0.39068 0.0
C2269 C 0.38051 0.79804 0.35723 0.0
N2270 N 0.40784 0.7804 0.31699 0.0
N2271 N 0.40599 0.81913 0.44638 0.0
C2272 C 0.40396 0.78491 0.34867 0.0
C2273 C 0.40244 0.80375 0.41519 0.0
N2274 N 0.44082 0.75761 0.36492 0.0
N2275 N 0.35504 0.81603 0.39929 0.0
H2276 H 0.42376 0.81962 0.46474 0.0
H2277 H 0.39348 0.83432 0.45326 0.0
H2278 H 0.33837 0.81984 0.38247 0.0
H2279 H 0.3505 0.81831 0.42293 0.0
H2280 H 0.4393 0.74642 0.34119 0.0
H2281 H 0.45472 0.75049 0.38204 0.0
H2282 H 0.42646 0.77409 0.30959 0.0
H2283 H 0.39378 0.78547 0.29833 0.0
C2284 C 0.07203 0.71285 0.06359 0.0
C2285 C 0.08946 0.7302 0.09417 0.0
C2286 C 0.09375 0.68033 0.11 0.0
C2287 C 0.07549 0.6628 0.08002 0.0
N2288 N 0.04065 0.66231 0.03187 0.0
N2289 N 0.10603 0.72784 0.15006 0.0
C2290 C 0.06244 0.67907 0.05801 0.0
C2291 C 0.09716 0.71309 0.11836 0.0
N2292 N 0.06579 0.7284 0.03925 0.0
N2293 N 0.108 0.66583 0.13078 0.0
H2294 H 0.10551 0.75067 0.15738 0.0
H2295 H 0.10961 0.71631 0.1693 0.0
H2296 H 0.10532 0.64187 0.12625 0.0
H2297 H 0.12427 0.678 0.15127 0.0
H2298 H 0.05624 0.71721 0.0154 0.0
H2299 H 0.07224 0.75274 0.0424 0.0
H2300 H 0.02803 0.6725 0.01671 0.0
H2301 H 0.03335 0.63792 0.02699 0.0
C2302 C 0.09514 0.33575 0.90544 0.0
C2303 C 0.09228 0.3117 0.92423 0.0
C2304 C 0.13001 0.29293 0.89726 0.0
C2305 C 0.13567 0.31934 0.88163 0.0
N2306 N 0.12707 0.36867 0.87481 0.0
N2307 N 0.10841 0.26849 0.9401 0.0
C2308 C 0.11905 0.34145 0.88666 0.0
C2309 C 0.11019 0.29063 0.92077 0.0
N2310 N 0.07483 0.353 0.90525 0.0
N2311 N 0.1427 0.26949 0.88873 0.0
H2312 H 0.09288 0.26485 0.95619 0.0
H2313 H 0.1235 0.25497 0.9416 0.0
H2314 H 0.15694 0.27016 0.87131 0.0
H2315 H 0.13701 0.24817 0.89668 0.0
H2316 H 0.07377 0.36868 0.88952 0.0
H2317 H 0.05711 0.34955 0.91872 0.0
H2318 H 0.11815 0.38721 0.88076 0.0
H2319 H 0.14472 0.37402 0.86137 0.0
C2320 C 0.57764 0.79906 0.96827 0.0
C2321 C 0.56326 0.79179 0.9351 0.0
C2322 C 0.54693 0.73591 0.9387 0.0
C2323 C 0.55776 0.74387 0.97274 0.0
N2324 N 0.58161 0.78297 0.02079 0.0
N2325 N 0.53289 0.75336 0.88864 0.0
C2326 C 0.57268 0.77545 0.98776 0.0
C2327 C 0.54786 0.76016 0.92013 0.0
N2328 N 0.59724 0.82829 0.98075 0.0
N2329 N 0.53598 0.7051 0.92409 0.0
H2330 H 0.53408 0.76998 0.8737 0.0
H2331 H 0.51784 0.73155 0.87769 0.0
H2332 H 0.53397 0.68678 0.93705 0.0
H2333 H 0.53097 0.69753 0.89901 0.0
H2334 H 0.61079 0.83432 0.00379 0.0
H2335 H 0.60247 0.84573 0.96679 0.0
H2336 H 0.58909 0.80587 0.03362 0.0
H2337 H 0.57965 0.76624 0.03576 0.0
C2338 C 0.15496 0.76013 0.76386 0.0
C2339 C 0.14312 0.78585 0.76079 0.0
C2340 C 0.19685 0.82089 0.7764 0.0
C2341 C 0.20894 0.79474 0.77461 0.0
N2342 N 0.19796 0.73864 0.76126 0.0
N2343 N 0.15379 0.84103 0.76129 0.0
C2344 C 0.18751 0.76412 0.7672 0.0
C2345 C 0.16442 0.81632 0.76642 0.0
N2346 N 0.13492 0.73168 0.76405 0.0
N2347 N 0.21613 0.8502 0.78898 0.0
H2348 H 0.13042 0.83882 0.75547 0.0
H2349 H 0.16816 0.86314 0.76089 0.0
H2350 H 0.23944 0.85444 0.79777 0.0
H2351 H 0.20851 0.86982 0.79385 0.0
H2352 H 0.14187 0.71243 0.76905 0.0
H2353 H 0.11139 0.7285 0.76287 0.0
H2354 H 0.18345 0.71606 0.75242 0.0
H2355 H 0.22112 0.74032 0.76183 0.0
C2356 C 0.10009 0.47404 0.43493 0.0
C2357 C 0.07794 0.44409 0.42912 0.0
C2358 C 0.05136 0.46371 0.47092 0.0
C2359 C 0.07485 0.49292 0.47869 0.0
N2360 N 0.12514 0.52317 0.4723 0.0
N2361 N 0.03637 0.40865 0.44677 0.0
C2362 C 0.10022 0.49735 0.4618 0.0
C2363 C 0.05493 0.43838 0.4489 0.0
N2364 N 0.1209 0.48039 0.41456 0.0
N2365 N 0.02457 0.4606 0.48284 0.0
H2366 H 0.03843 0.38961 0.43118 0.0
H2367 H 1.02122 0.40245 0.46275 0.0
H2368 H 1.02018 0.47877 0.49769 0.0
H2369 H 1.00537 0.44109 0.47518 0.0
H2370 H 0.13518 0.50277 0.41496 0.0
H2371 H 0.12252 0.46353 0.39582 0.0
H2372 H 0.1455 0.52639 0.46303 0.0
H2373 H 0.1267 0.53996 0.49258 0.0
C2374 C 0.43666 0.26758 0.28275 0.0
C2375 C 0.45143 0.28462 0.26021 0.0
C2376 C 0.40888 0.30934 0.25546 0.0
C2377 C 0.39533 0.2944 0.2799 0.0
N2378 N 0.40034 0.2629 0.32068 0.0
N2379 N 0.45451 0.32768 0.23168 0.0
C2380 C 0.41041 0.27449 0.29458 0.0
C2381 C 0.43833 0.30729 0.2487 0.0
N2382 N 0.44688 0.24384 0.292 0.0
N2383 N 0.39268 0.32401 0.23688 0.0
H2384 H 0.47628 0.3276 0.22703 0.0
H2385 H 0.44792 0.34676 0.22542 0.0
H2386 H 0.37046 0.32425 0.2394 0.0
H2387 H 0.3997 0.33263 0.21657 0.0
H2388 H 0.43524 0.22803 0.30517 0.0
H2389 H 0.46604 0.23868 0.28454 0.0
H2390 H 0.41181 0.25085 0.33467 0.0
H2391 H 0.38193 0.26784 0.33009 0.0
C2392 C 0.63107 0.60318 0.43375 0.0
C2393 C 0.61786 0.58143 0.4043 0.0
C2394 C 0.5866 0.54639 0.43513 0.0
C2395 C 0.59643 0.57025 0.46334 0.0
N2396 N 0.62336 0.62436 0.48674 0.0
N2397 N 0.57955 0.53376 0.3763 0.0
C2398 C 0.61752 0.59943 0.46198 0.0
C2399 C 0.59478 0.55327 0.40481 0.0
N2400 N 0.6573 0.62694 0.43523 0.0
N2401 N 0.57013 0.51688 0.43745 0.0
H2402 H 0.5843 0.53818 0.35362 0.0
H2403 H 0.56033 0.51469 0.37494 0.0
H2404 H 0.5644 0.51086 0.45933 0.0
H2405 H 0.56489 0.49779 0.41854 0.0
H2406 H 0.6695 0.64156 0.45693 0.0
H2407 H 0.66882 0.62979 0.41561 0.0
H2408 H 0.63604 0.64692 0.4853 0.0
H2409 H 0.61293 0.62341 0.50724 0.0
C2410 C 0.30462 0.95812 0.11725 0.0
C2411 C 0.28245 0.93276 0.0958 0.0
C2412 C 0.29328 0.8969 0.13091 0.0
C2413 C 0.32023 0.92095 0.14727 0.0
N2414 N 0.35179 0.97464 0.15657 0.0
N2415 N 0.24529 0.88298 0.09232 0.0
C2416 C 0.3257 0.95181 0.14106 0.0
C2417 C 0.27351 0.90341 0.10562 0.0
N2418 N 0.3045 0.98807 0.11556 0.0
N2419 N 0.28703 0.8679 0.13926 0.0
H2420 H 0.22923 0.88935 0.07695 0.0
H2421 H 0.23629 0.86163 0.09929 0.0
H2422 H 0.29988 0.86291 0.15899 0.0
H2423 H 0.26967 0.84844 0.12627 0.0
H2424 H 0.31876 1.00755 0.13201 0.0
H2425 H 0.28727 0.99288 0.10019 0.0
H2426 H 0.3586 0.99667 0.15027 0.0
H2427 H 0.36788 0.9707 0.17406 0.0
C2428 C 0.98602 0.55375 0.93828 0.0
C2429 C 0.99298 0.5798 0.92258 0.0
C2430 C 0.04095 0.60333 0.96148 0.0
C2431 C 0.03587 0.57511 0.97408 0.0
N2432 N 1.00661 0.52105 0.96967 0.0
N2433 N 0.02703 0.62923 0.91765 0.0
C2434 C 1.00909 0.54972 0.96142 0.0
C2435 C 1.02034 0.60476 0.9339 0.0
N2436 N 0.95722 0.53292 0.93108 0.0
N2437 N 0.06492 0.62891 0.97631 0.0
H2438 H 1.01151 0.6318 0.89864 0.0
H2439 H 0.04833 0.64615 0.92197 0.0
H2440 H 0.08028 0.62893 0.99681 0.0
H2441 H 0.06802 0.651 0.97023 0.0
H2442 H 0.95 0.515 0.944 0.0
H2443 H 0.93963 0.53562 0.91441 0.0
H2444 H 0.98896 0.50095 0.95855 0.0
H2445 H 0.02386 0.51667 0.9852 0.0
C2446 C 0.32427 0.29153 0.649 0.0
C2447 C 0.29489 0.2824 0.62885 0.0
C2448 C 0.27044 0.28498 0.6773 0.0
C2449 C 0.29992 0.29627 0.69738 0.0
N2450 N 0.35509 0.31567 0.70201 0.0
N2451 N 0.2402 0.27485 0.62327 0.0
C2452 C 0.32691 0.30094 0.68314 0.0
C2453 C 0.26807 0.28074 0.64285 0.0
N2454 N 0.34973 0.29106 0.63551 0.0
N2455 N 0.24473 0.27636 0.69104 0.0
H2456 H 0.23713 0.27022 0.59799 0.0
H2457 H 0.2205 0.27692 0.632 0.0
H2458 H 0.24545 0.27815 0.71606 0.0
H2459 H 0.22292 0.26463 0.67768 0.0
H2460 H 0.37105 0.29318 0.64912 0.0
H2461 H 0.34924 0.28674 0.61048 0.0
H2462 H 0.37526 0.32287 0.69268 0.0
H2463 H 0.35815 0.32332 0.72695 0.0
C2464 C 0.61775 0.6116 0.20882 0.0
C2465 C 0.6052 0.58705 0.22547 0.0
C2466 C 0.57408 0.55542 0.17368 0.0
C2467 C 0.58805 0.5792 0.15675 0.0
N2468 N 0.62793 0.62691 0.15753 0.0
N2469 N 0.57397 0.53429 0.22361 0.0
C2470 C 0.61093 0.60664 0.17418 0.0
C2471 C 0.58418 0.55855 0.20779 0.0
N2472 N 0.63676 0.63963 0.22597 0.0
N2473 N 0.55029 0.53027 0.15743 0.0
H2474 H 0.57866 0.53638 0.24881 0.0
H2475 H 0.56224 0.51154 0.21175 0.0
H2476 H 0.54231 0.52659 0.13254 0.0
H2477 H 0.53665 0.51414 0.16884 0.0
H2478 H 0.64298 0.65971 0.21587 0.0
H2479 H 0.64511 0.6436 0.25081 0.0
H2480 H 0.64742 0.64521 0.16848 0.0
H2481 H 0.62457 0.62385 0.13225 0.0
C2482 C 0.27429 0.86041 0.9323 0.0
C2483 C 0.29385 0.89144 0.94238 0.0
C2484 C 0.32169 0.88482 0.89758 0.0
C2485 C 0.29997 0.85523 0.88536 0.0
N2486 N 0.25372 0.81553 0.88851 0.0
N2487 N 0.33383 0.93501 0.93283 0.0
C2488 C 0.27582 0.84301 0.90211 0.0
C2489 C 0.31688 0.90421 0.92449 0.0
N2490 N 0.25448 0.8476 0.95169 0.0
N2491 N 0.34757 0.89387 0.88416 0.0
H2492 H 0.33195 0.94998 0.95307 0.0
H2493 H 0.34826 0.94642 0.91835 0.0
H2494 H 0.35217 0.87994 0.86468 0.0
H2495 H 0.36592 0.91367 0.89426 0.0
H2496 H 0.24194 0.82405 0.94741 0.0
H2497 H 0.2521 0.86017 0.97341 0.0
H2498 H 0.23369 0.80715 0.8977 0.0
H2499 H 0.25437 0.80199 0.86662 0.0
C2500 C 0.99204 0.59243 0.75428 0.0
C2501 C 1.00263 0.59344 0.78761 0.0
C2502 C 0.04701 0.57724 0.77393 0.0
C2503 C 0.03409 0.57221 0.74059 0.0
N2504 N 0.99345 0.57272 0.69828 0.0
N2505 N 0.03863 0.58436 0.82962 0.0
C2506 C 1.00645 0.57936 0.73051 0.0
C2507 C 0.02994 0.5856 0.79768 0.0
N2508 N 0.96866 0.60469 0.74549 0.0
N2509 N 0.07565 0.57423 0.78278 0.0
H2510 H 0.0271 0.59063 0.84796 0.0
H2511 H 0.05607 0.57509 0.83777 0.0
H2512 H 0.08843 0.56745 0.7659 0.0
H2513 H 0.08778 0.58083 0.80652 0.0
H2514 H 0.96188 0.60758 0.72188 0.0
H2515 H 0.95788 0.61479 0.76242 0.0
H2516 H 0.9715 0.57383 0.68981 0.0
H2517 H 1.0037 0.56396 0.67991 0.0
C2518 C 0.3093 0.23855 0.4211 0.0
C2519 C 0.29989 0.25595 0.44656 0.0
C2520 C 0.30609 0.30009 0.41714 0.0
C2521 C 0.31417 0.2821 0.39108 0.0
N2522 N 0.33044 0.23783 0.37111 0.0
N2523 N 0.29444 0.30495 0.47193 0.0
C2524 C 0.31776 0.25232 0.39393 0.0
C2525 C 0.30019 0.28738 0.44567 0.0
N2526 N 0.31014 0.20876 0.42295 0.0
N2527 N 0.30237 0.32864 0.41385 0.0
H2528 H 0.28789 0.29594 0.49222 0.0
H2529 H 0.2978 0.32895 0.47469 0.0
H2530 H 0.30711 0.3391 0.39386 0.0
H2531 H 0.29285 0.34139 0.42984 0.0
H2532 H 0.31263 0.19315 0.40363 0.0
H2533 H 0.30748 0.19907 0.44382 0.0
H2534 H 0.33634 0.21734 0.37267 0.0
H2535 H 0.33756 0.24789 0.35158 0.0
C2536 C 0.3221 0.55257 0.54016 0.0
C2537 C 0.33201 0.56611 0.57354 0.0
C2538 C 0.36874 0.53606 0.57837 0.0
C2539 C 0.36361 0.52832 0.54399 0.0
N2540 N 0.3337 0.5252 0.49184 0.0
N2541 N 0.36169 0.56891 0.62578 0.0
C2542 C 0.33915 0.53469 0.52482 0.0
C2543 C 0.35392 0.55667 0.59329 0.0
N2544 N 0.29676 0.55741 0.52334 0.0
N2545 N 0.38839 0.52427 0.59635 0.0
H2546 H 0.35028 0.58323 0.6373 0.0
H2547 H 0.37982 0.56576 0.64114 0.0
H2548 H 0.39975 0.50945 0.58564 0.0
H2549 H 0.39139 0.5268 0.62155 0.0
H2550 H 0.28695 0.54662 0.49946 0.0
H2551 H 0.28395 0.57047 0.53431 0.0
H2552 H 0.31866 0.53203 0.47577 0.0
H2553 H 0.34513 0.51085 0.48041 0.0
C2554 C 0.92539 0.01069 0.58971 0.0
C2555 C 0.91901 0.97759 0.58288 0.0
C2556 C 0.96666 0.98378 0.56082 0.0
C2557 C 0.9749 0.01667 0.57146 0.0
N2558 N 0.96492 0.06052 0.6033 0.0
N2559 N 0.93766 0.93308 0.56924 0.0
C2560 C 0.9551 0.02993 0.58804 0.0
C2561 C 0.94088 0.96425 0.57061 0.0
N2562 N 0.9028 0.02396 0.59604 0.0
N2563 N 0.98253 0.97117 0.54012 0.0
H2564 H 0.9198 0.91818 0.57753 0.0
H2565 H 0.95456 0.92289 0.56334 0.0
H2566 H 1.00054 0.98472 0.53086 0.0
H2567 H 0.97559 0.94759 0.52934 0.0
H2568 H 0.90571 0.04788 0.59795 0.0
H2569 H 0.88021 0.01099 0.59581 0.0
H2570 H 0.95237 0.0703 0.61839 0.0
H2571 H 0.98689 0.07521 0.60377 0.0
C2572 C 0.92641 0.13883 0.34918 0.0
C2573 C 0.91661 0.11233 0.32371 0.0
C2574 C 0.87287 0.1296 0.30239 0.0
C2575 C 0.88101 0.15435 0.3296 0.0
N2576 N 0.913 0.18056 0.3812 0.0
N2577 N 0.87795 0.07946 0.2791 0.0
C2578 C 0.9071 0.15843 0.35368 0.0
C2579 C 0.88919 0.10692 0.30101 0.0
N2580 N 0.95473 0.14598 0.36826 0.0
N2581 N 0.85 0.1282 0.27746 0.0
H2582 H 0.88899 0.06206 0.27751 0.0
H2583 H 0.85635 0.07265 0.2644 0.0
H2584 H 0.83724 0.14415 0.27775 0.0
H2585 H 0.84534 0.11285 0.25536 0.0
H2586 H 0.96458 0.16673 0.38496 0.0
H2587 H 0.96971 0.13245 0.36543 0.0
H2588 H 0.92962 0.1824 0.40127 0.0
H2589 H 0.89964 0.19566 0.38507 0.0
C2590 C 0.69175 0.12019 0.05422 0.0
C2591 C 0.70994 0.12562 0.08551 0.0
C2592 C 0.66422 0.10101 0.10706 0.0
C2593 C 0.64707 0.09259 0.075 0.0
N2594 N 0.64707 0.08623 0.01726 0.0
N2595 N 0.71474 0.11514 0.14031 0.0
C2596 C 0.6616 0.09973 0.0483 0.0
C2597 C 0.69658 0.11431 0.11164 0.0
N2598 N 0.70242 0.13592 0.03064 0.0
N2599 N 0.64964 0.09752 0.13317 0.0
H2600 H 0.73865 0.12373 0.14427 0.0
H2601 H 0.70628 0.10441 0.15894 0.0
H2602 H 0.62589 0.0883 0.13092 0.0
H2603 H 0.66084 0.10637 0.15711 0.0
H2604 H 0.68873 0.13451 0.0084 0.0
H2605 H 0.72347 0.15324 0.03472 0.0
H2606 H 0.6583 0.08813 0.99735 0.0
H2607 H 0.6251 0.07038 0.01189 0.0
C2608 C 0.31218 0.55457 0.30706 0.0
C2609 C 0.28048 0.54744 0.30925 0.0
C2610 C 0.28378 0.5039 0.33688 0.0
C2611 C 0.31459 0.50917 0.33178 0.0
N2612 N 0.35881 0.53858 0.31274 0.0
N2613 N 0.2357 0.51675 0.32665 0.0
C2614 C 0.32914 0.53456 0.31748 0.0
C2615 C 0.26619 0.52259 0.32448 0.0
N2616 N 0.32591 0.58031 0.29472 0.0
N2617 N 0.27156 0.48104 0.35368 0.0
H2618 H 0.22267 0.53128 0.31993 0.0
H2619 H 0.22274 0.4971 0.3341 0.0
H2620 H 0.28362 0.46647 0.36244 0.0
H2621 H 0.25021 0.47742 0.36081 0.0
H2622 H 0.34951 0.58897 0.29577 0.0
H2623 H 0.31385 0.59418 0.28445 0.0
H2624 H 0.36991 0.55412 0.29905 0.0
H2625 H 0.37233 0.52533 0.32175 0.0
C2626 C 0.23966 0.44187 0.04397 0.0
C2627 C 0.25479 0.43683 0.0733 0.0
C2628 C 0.23184 0.47137 0.10494 0.0
C2629 C 0.22009 0.4795 0.07571 0.0
N2630 N 0.21474 0.47507 0.01742 0.0
N2631 N 0.26847 0.44911 0.13189 0.0
C2632 C 0.22435 0.46532 0.04515 0.0
C2633 C 0.25152 0.45194 0.10391 0.0
N2634 N 0.23931 0.42364 0.01511 0.0
N2635 N 0.22386 0.48196 0.13357 0.0
H2636 H 0.28326 0.43519 0.13231 0.0
H2637 H 0.26976 0.46244 0.15453 0.0
H2638 H 0.20976 0.49658 0.13519 0.0
H2639 H 0.22901 0.47419 0.15514 0.0
H2640 H 0.22619 0.42402 0.99318 0.0
H2641 H 0.24995 0.4059 0.01361 0.0
H2642 H 0.22031 0.46822 0.99495 0.0
H2643 H 0.20297 0.49186 0.01719 0.0
C2644 C 0.91232 0.94194 0.28314 0.0
C2645 C 0.89928 0.9638 0.27022 0.0
C2646 C 0.84788 0.9265 0.26341 0.0
C2647 C 0.86074 0.90645 0.28004 0.0
N2648 N 0.90468 0.899 0.31256 0.0
N2649 N 0.85395 0.97933 0.25392 0.0
C2650 C 0.89284 0.91528 0.29186 0.0
C2651 C 0.86683 0.95678 0.2619 0.0
N2652 N 0.9432 0.94588 0.28589 0.0
N2653 N 0.81795 0.91628 0.24789 0.0
H2654 H 0.86689 1.00202 0.25327 0.0
H2655 H 0.83038 0.97638 0.25102 0.0
H2656 H 0.80342 0.89407 0.24776 0.0
H2657 H 0.80844 0.92872 0.23253 0.0
H2658 H 0.95337 0.929 0.29222 0.0
H2659 H 0.95815 0.96433 0.27833 0.0
H2660 H 0.92753 0.90631 0.32429 0.0
H2661 H 0.89103 0.88024 0.32092 0.0
C2662 C 0.73097 0.18019 0.79356 0.0
C2663 C 0.73572 0.16257 0.76513 0.0
C2664 C 0.76643 0.21063 0.7513 0.0
C2665 C 0.76564 0.22718 0.78217 0.0
N2666 N 0.75173 0.2263 0.83543 0.0
N2667 N 0.76305 0.16045 0.71995 0.0
C2668 C 0.74922 0.2116 0.80417 0.0
C2669 C 0.7549 0.1776 0.74477 0.0
N2670 N 0.70787 0.16762 0.80943 0.0
N2671 N 0.77678 0.22646 0.72769 0.0
H2672 H 0.75591 0.13606 0.71495 0.0
H2673 H 0.77941 0.17041 0.70651 0.0
H2674 H 0.78339 0.2508 0.73089 0.0
H2675 H 0.77529 0.21549 0.70386 0.0
H2676 H 0.70163 0.18055 0.82845 0.0
H2677 H 0.69266 0.1454 0.80103 0.0
H2678 H 0.74251 0.21468 0.85319 0.0
H2679 H 0.76549 0.24918 0.84447 0.0
loop_
_geom_bond_atom_site_label_1
_geom_bond_atom_site_label_2
_geom_bond_distance
_geom_bond_site_symmetry_2
_ccdc_geom_bond_type
C0 O1 1.160 . S
C0 O7 1.185 . S
O1 C0 1.160 . S
O2 Zn3 1.899 . S
O2 C10 1.284 . S
Zn3 O2 1.899 . S
Zn3 O4 2.032 . S
Zn3 O7 2.086 . S
Zn3 O12 1.977 . S
O4 Zn3 2.032 . S
O4 C8 1.278 . S
C5 O6 1.203 . S
C5 O12 1.267 1_655 S
O6 C5 1.203 . S
O7 C0 1.185 . S
O7 Zn3 2.086 . S
C8 O4 1.278 . S
C8 O9 1.211 . S
O9 C8 1.211 . S
C10 O2 1.284 . S
C10 O11 1.273 . S
O11 C10 1.273 . S
O12 Zn3 1.977 . S
O12 C5 1.267 1_455 S
C13 O14 1.160 . S
C13 O20 1.185 1_655 S
O14 C13 1.160 . S
O15 Zn16 1.899 . S
O15 C23 1.284 . S
Zn16 O15 1.899 . S
Zn16 O17 2.032 . S
Zn16 O20 2.086 . S
Zn16 O25 1.977 . S
O17 Zn16 2.032 . S
O17 C21 1.278 . S
C18 O19 1.203 . S
C18 O25 1.267 . S
O19 C18 1.203 . S
O20 C13 1.185 1_455 S
O20 Zn16 2.086 . S
C21 O17 1.278 . S
C21 O22 1.211 . S
O22 C21 1.211 . S
C23 O15 1.284 . S
C23 O24 1.273 . S
O24 C23 1.273 . S
O25 Zn16 1.977 . S
O25 C18 1.267 . S
C26 O27 1.160 . S
C26 O33 1.185 . S
O27 C26 1.160 . S
O28 Zn29 1.899 . S
O28 C36 1.284 . S
Zn29 O28 1.899 . S
Zn29 O30 2.032 . S
Zn29 O33 2.086 . S
Zn29 O38 1.977 . S
O30 Zn29 2.032 . S
O30 C34 1.278 . S
C31 O32 1.203 . S
C31 O38 1.267 . S
O32 C31 1.203 . S
O33 C26 1.185 . S
O33 Zn29 2.086 . S
C34 O30 1.278 . S
C34 O35 1.211 . S
O35 C34 1.211 . S
C36 O28 1.284 . S
C36 O37 1.273 . S
O37 C36 1.273 . S
O38 Zn29 1.977 . S
O38 C31 1.267 . S
C39 O40 1.160 . S
C39 O46 1.185 . S
O40 C39 1.160 . S
O41 Zn42 1.899 . S
O41 C49 1.284 . S
Zn42 O41 1.899 . S
Zn42 O43 2.032 . S
Zn42 O46 2.086 . S
Zn42 O51 1.977 . S
O43 Zn42 2.032 . S
O43 C47 1.278 . S
C44 O45 1.203 . S
C44 O51 1.267 . S
O45 C44 1.203 . S
O46 C39 1.185 . S
O46 Zn42 2.086 . S
C47 O43 1.278 . S
C47 O48 1.211 . S
O48 C47 1.211 . S
C49 O41 1.284 . S
C49 O50 1.273 . S
O50 C49 1.273 . S
O51 Zn42 1.977 . S
O51 C44 1.267 . S
C52 O53 1.160 . S
C52 O59 1.185 . S
O53 C52 1.160 . S
O54 Zn55 1.899 . S
O54 C62 1.284 . S
Zn55 O54 1.899 . S
Zn55 O56 2.032 . S
Zn55 O59 2.086 . S
Zn55 O64 1.977 . S
O56 Zn55 2.032 . S
O56 C60 1.278 . S
C57 O58 1.203 . S
C57 O64 1.267 . S
O58 C57 1.203 . S
O59 C52 1.185 . S
O59 Zn55 2.086 . S
C60 O56 1.278 . S
C60 O61 1.211 . S
O61 C60 1.211 . S
C62 O54 1.284 . S
C62 O63 1.273 . S
O63 C62 1.273 . S
O64 Zn55 1.977 . S
O64 C57 1.267 . S
C65 O66 1.160 . S
C65 O72 1.185 . S
O66 C65 1.160 . S
O67 Zn68 1.899 . S
O67 C75 1.284 . S
Zn68 O67 1.899 . S
Zn68 O69 2.032 . S
Zn68 O72 2.086 . S
Zn68 O77 1.977 . S
O69 Zn68 2.032 . S
O69 C73 1.278 . S
C70 O71 1.203 . S
C70 O77 1.267 . S
O71 C70 1.203 . S
O72 C65 1.185 . S
O72 Zn68 2.086 . S
C73 O69 1.278 . S
C73 O74 1.211 . S
O74 C73 1.211 . S
C75 O67 1.284 . S
C75 O76 1.273 . S
O76 C75 1.273 . S
O77 Zn68 1.977 . S
O77 C70 1.267 . S
C78 O79 1.160 . S
C78 O85 1.185 . S
O79 C78 1.160 . S
O80 Zn81 1.899 . S
O80 C88 1.284 . S
Zn81 O80 1.899 . S
Zn81 O82 2.032 . S
Zn81 O85 2.086 . S
Zn81 O90 1.977 . S
O82 Zn81 2.032 . S
O82 C86 1.278 . S
C83 O84 1.203 . S
C83 O90 1.267 . S
O84 C83 1.203 . S
O85 C78 1.185 . S
O85 Zn81 2.086 . S
C86 O82 1.278 . S
C86 O87 1.211 . S
O87 C86 1.211 . S
C88 O80 1.284 . S
C88 O89 1.273 . S
O89 C88 1.273 . S
O90 Zn81 1.977 . S
O90 C83 1.267 . S
C91 O92 1.160 . S
C91 O98 1.185 . S
O92 C91 1.160 . S
O93 Zn94 1.902 1_655 S
O93 C101 1.289 1_556 S
Zn94 O93 1.902 1_455 S
Zn94 O95 2.032 1_556 S
Zn94 O98 2.086 . S
Zn94 O103 1.977 1_455 S
O95 Zn94 2.032 1_554 S
O95 C99 1.278 . S
C96 O97 1.203 . S
C96 O103 1.267 . S
O97 C96 1.203 . S
O98 C91 1.185 . S
O98 Zn94 2.086 . S
C99 O95 1.278 . S
C99 O100 1.211 1_455 S
O100 C99 1.211 1_655 S
C101 O93 1.289 1_554 S
C101 O102 1.273 . S
O102 C101 1.273 . S
O103 Zn94 1.977 1_655 S
O103 C96 1.267 . S
C104 O105 1.160 . S
C104 O111 1.185 . S
O105 C104 1.160 . S
O106 Zn107 1.899 . S
O106 C114 1.284 . S
Zn107 O106 1.899 . S
Zn107 O108 2.032 . S
Zn107 O111 2.086 . S
Zn107 O116 1.977 1_545 S
O108 Zn107 2.032 . S
O108 C112 1.278 . S
C109 O110 1.203 . S
C109 O116 1.267 . S
O110 C109 1.203 . S
O111 C104 1.185 . S
O111 Zn107 2.086 . S
C112 O108 1.278 . S
C112 O113 1.211 1_545 S
O113 C112 1.211 1_565 S
C114 O106 1.284 . S
C114 O115 1.273 1_545 S
O115 C114 1.273 1_565 S
O116 Zn107 1.977 1_565 S
O116 C109 1.267 . S
C117 O118 1.160 . S
C117 O124 1.185 . S
O118 C117 1.160 . S
O119 Zn120 1.899 . S
O119 C127 1.284 . S
Zn120 O119 1.899 . S
Zn120 O121 2.032 . S
Zn120 O124 2.086 . S
Zn120 O129 1.977 . S
O121 Zn120 2.032 . S
O121 C125 1.278 . S
C122 O123 1.203 . S
C122 O129 1.267 . S
O123 C122 1.203 . S
O124 C117 1.185 . S
O124 Zn120 2.086 . S
C125 O121 1.278 . S
C125 O126 1.211 . S
O126 C125 1.211 . S
C127 O119 1.284 . S
C127 O128 1.273 . S
O128 C127 1.273 . S
O129 Zn120 1.977 . S
O129 C122 1.267 . S
C130 O131 1.160 . S
C130 O137 1.185 . S
O131 C130 1.160 . S
O132 Zn133 1.899 . S
O132 C140 1.284 . S
Zn133 O132 1.899 . S
Zn133 O134 2.032 . S
Zn133 O137 2.086 . S
Zn133 O142 1.977 . S
O134 Zn133 2.032 . S
O134 C138 1.278 . S
C135 O136 1.203 . S
C135 O142 1.267 . S
O136 C135 1.203 . S
O137 C130 1.185 . S
O137 Zn133 2.086 . S
C138 O134 1.278 . S
C138 O139 1.211 . S
O139 C138 1.211 . S
C140 O132 1.284 . S
C140 O141 1.273 . S
O141 C140 1.273 . S
O142 Zn133 1.977 . S
O142 C135 1.267 . S
C143 O144 1.160 . S
C143 O150 1.185 1_554 S
O144 C143 1.160 . S
O145 Zn146 1.899 . S
O145 C153 1.284 . S
Zn146 O145 1.899 . S
Zn146 O147 2.032 1_554 S
Zn146 O150 2.086 1_554 S
Zn146 O155 1.977 . S
O147 Zn146 2.032 1_556 S
O147 C151 1.278 . S
C148 O149 1.203 . S
C148 O155 1.267 . S
O149 C148 1.203 . S
O150 C143 1.185 1_556 S
O150 Zn146 2.086 1_556 S
C151 O147 1.278 . S
C151 O152 1.211 . S
O152 C151 1.211 . S
C153 O145 1.284 . S
C153 O154 1.273 . S
O154 C153 1.273 . S
O155 Zn146 1.977 . S
O155 C148 1.267 . S
C156 O157 1.160 . S
C156 O163 1.185 . S
O157 C156 1.160 . S
O158 Zn159 1.899 . S
O158 C166 1.284 . S
Zn159 O158 1.899 . S
Zn159 O160 2.032 . S
Zn159 O163 2.086 . S
Zn159 O168 1.977 . S
O160 Zn159 2.032 . S
O160 C164 1.278 1_554 S
C161 O162 1.203 . S
C161 O168 1.267 . S
O162 C161 1.203 . S
O163 C156 1.185 . S
O163 Zn159 2.086 . S
C164 O160 1.278 1_556 S
C164 O165 1.211 1_556 S
O165 C164 1.211 1_554 S
C166 O158 1.284 . S
C166 O167 1.273 . S
O167 C166 1.273 . S
O168 Zn159 1.977 . S
O168 C161 1.267 . S
C169 O170 1.160 . S
C169 O176 1.185 . S
O170 C169 1.160 . S
O171 Zn172 1.899 . S
O171 C179 1.284 . S
Zn172 O171 1.899 . S
Zn172 O173 2.032 . S
Zn172 O176 2.086 . S
Zn172 O181 1.977 . S
O173 Zn172 2.032 . S
O173 C177 1.278 . S
C174 O175 1.203 . S
C174 O181 1.267 . S
O175 C174 1.203 . S
O176 C169 1.185 . S
O176 Zn172 2.086 . S
C177 O173 1.278 . S
C177 O178 1.211 . S
O178 C177 1.211 . S
C179 O171 1.284 . S
C179 O180 1.273 . S
O180 C179 1.273 . S
O181 Zn172 1.977 . S
O181 C174 1.267 . S
C182 O183 1.160 . S
C182 O189 1.185 . S
O183 C182 1.160 . S
O184 Zn185 1.899 . S
O184 C192 1.284 . S
Zn185 O184 1.899 . S
Zn185 O186 2.032 . S
Zn185 O189 2.086 . S
Zn185 O194 1.977 . S
O186 Zn185 2.032 . S
O186 C190 1.278 . S
C187 O188 1.203 . S
C187 O194 1.267 . S
O188 C187 1.203 . S
O189 C182 1.185 . S
O189 Zn185 2.086 . S
C190 O186 1.278 . S
C190 O191 1.211 . S
O191 C190 1.211 . S
C192 O184 1.284 . S
C192 O193 1.273 . S
O193 C192 1.273 . S
O194 Zn185 1.977 . S
O194 C187 1.267 . S
C195 O196 1.160 . S
C195 O202 1.185 . S
O196 C195 1.160 . S
O197 Zn198 1.899 . S
O197 C205 1.284 . S
Zn198 O197 1.899 . S
Zn198 O199 2.032 . S
Zn198 O202 2.086 . S
Zn198 O207 1.977 . S
O199 Zn198 2.032 . S
O199 C203 1.278 . S
C200 O201 1.203 . S
C200 O207 1.267 . S
O201 C200 1.203 . S
O202 C195 1.185 . S
O202 Zn198 2.086 . S
C203 O199 1.278 . S
C203 O204 1.211 . S
O204 C203 1.211 . S
C205 O197 1.284 . S
C205 O206 1.273 . S
O206 C205 1.273 . S
O207 Zn198 1.977 . S
O207 C200 1.267 . S
C208 O209 1.160 . S
C208 O215 1.185 . S
O209 C208 1.160 . S
O210 Zn211 1.899 . S
O210 C218 1.284 . S
Zn211 O210 1.899 . S
Zn211 O212 2.032 . S
Zn211 O215 2.086 . S
Zn211 O220 1.954 1_545 S
O212 Zn211 2.032 . S
O212 C216 1.278 . S
C213 O214 1.203 . S
C213 O220 1.297 . S
O214 C213 1.203 . S
O215 C208 1.185 . S
O215 Zn211 2.086 . S
C216 O212 1.278 . S
C216 O217 1.211 . S
O217 C216 1.211 . S
C218 O210 1.284 . S
C218 O219 1.273 1_655 S
O219 C218 1.273 1_455 S
O220 Zn211 1.954 1_565 S
O220 C213 1.297 . S
C221 O222 1.160 . S
C221 O228 1.185 . S
O222 C221 1.160 . S
O223 Zn224 1.899 . S
O223 C231 1.284 . S
Zn224 O223 1.899 . S
Zn224 O225 2.032 . S
Zn224 O228 2.086 . S
Zn224 O233 1.977 . S
O225 Zn224 2.032 . S
O225 C229 1.278 . S
C226 O227 1.203 . S
C226 O233 1.267 . S
O227 C226 1.203 . S
O228 C221 1.185 . S
O228 Zn224 2.086 . S
C229 O225 1.278 . S
C229 O230 1.211 . S
O230 C229 1.211 . S
C231 O223 1.284 . S
C231 O232 1.273 . S
O232 C231 1.273 . S
O233 Zn224 1.977 . S
O233 C226 1.267 . S
C234 O235 1.160 . S
C234 O241 1.185 . S
O235 C234 1.160 . S
O236 Zn237 1.899 . S
O236 C244 1.284 . S
Zn237 O236 1.899 . S
Zn237 O238 2.032 . S
Zn237 O241 2.086 . S
Zn237 O246 1.977 . S
O238 Zn237 2.032 . S
O238 C242 1.278 . S
C239 O240 1.203 . S
C239 O246 1.267 . S
O240 C239 1.203 . S
O241 C234 1.185 . S
O241 Zn237 2.086 . S
C242 O238 1.278 . S
C242 O243 1.211 . S
O243 C242 1.211 . S
C244 O236 1.284 . S
C244 O245 1.273 . S
O245 C244 1.273 . S
O246 Zn237 1.977 . S
O246 C239 1.267 . S
C247 O248 1.160 . S
C247 O254 1.185 . S
O248 C247 1.160 . S
O249 Zn250 1.899 . S
O249 C257 1.284 . S
Zn250 O249 1.899 . S
Zn250 O251 2.032 . S
Zn250 O254 2.086 . S
Zn250 O259 1.977 . S
O251 Zn250 2.032 . S
O251 C255 1.278 . S
C252 O253 1.203 . S
C252 O259 1.267 . S
O253 C252 1.203 . S
O254 C247 1.185 . S
O254 Zn250 2.086 . S
C255 O251 1.278 . S
C255 O256 1.211 . S
O256 C255 1.211 . S
C257 O249 1.284 . S
C257 O258 1.273 . S
O258 C257 1.273 . S
O259 Zn250 1.977 . S
O259 C252 1.267 . S
C260 O261 1.160 . S
C260 O267 1.185 . S
O261 C260 1.160 . S
O262 Zn263 1.899 . S
O262 C270 1.284 . S
Zn263 O262 1.899 . S
Zn263 O264 2.032 . S
Zn263 O267 2.086 . S
Zn263 O272 1.977 . S
O264 Zn263 2.032 . S
O264 C268 1.278 1_554 S
C265 O266 1.203 . S
C265 O272 1.267 . S
O266 C265 1.203 . S
O267 C260 1.185 . S
O267 Zn263 2.086 . S
C268 O264 1.278 1_556 S
C268 O269 1.211 . S
O269 C268 1.211 . S
C270 O262 1.284 . S
C270 O271 1.273 . S
O271 C270 1.273 . S
O272 Zn263 1.977 . S
O272 C265 1.267 . S
C273 O274 1.160 . S
C273 O280 1.185 . S
O274 C273 1.160 . S
O275 Zn276 1.899 . S
O275 C283 1.284 . S
Zn276 O275 1.899 . S
Zn276 O277 2.032 . S
Zn276 O280 2.086 . S
Zn276 O285 1.977 . S
O277 Zn276 2.032 . S
O277 C281 1.278 . S
C278 O279 1.203 . S
C278 O285 1.267 . S
O279 C278 1.203 . S
O280 C273 1.185 . S
O280 Zn276 2.086 . S
C281 O277 1.278 . S
C281 O282 1.211 . S
O282 C281 1.211 . S
C283 O275 1.284 . S
C283 O284 1.273 . S
O284 C283 1.273 . S
O285 Zn276 1.977 . S
O285 C278 1.267 . S
C286 O287 1.160 . S
C286 O293 1.185 . S
O287 C286 1.160 . S
O288 Zn289 1.899 . S
O288 C296 1.284 . S
Zn289 O288 1.899 . S
Zn289 O290 2.032 . S
Zn289 O293 2.086 . S
Zn289 O298 1.977 . S
O290 Zn289 2.032 . S
O290 C294 1.278 . S
C291 O292 1.203 . S
C291 O298 1.267 . S
O292 C291 1.203 . S
O293 C286 1.185 . S
O293 Zn289 2.086 . S
C294 O290 1.278 . S
C294 O295 1.211 . S
O295 C294 1.211 . S
C296 O288 1.284 . S
C296 O297 1.273 . S
O297 C296 1.273 . S
O298 Zn289 1.977 . S
O298 C291 1.267 . S
C299 O300 1.160 . S
C299 O306 1.185 . S
O300 C299 1.160 . S
O301 Zn302 1.899 . S
O301 C309 1.284 . S
Zn302 O301 1.899 . S
Zn302 O303 2.032 . S
Zn302 O306 2.086 . S
Zn302 O311 1.977 . S
O303 Zn302 2.032 . S
O303 C307 1.278 . S
C304 O305 1.203 . S
C304 O311 1.267 . S
O305 C304 1.203 . S
O306 C299 1.185 . S
O306 Zn302 2.086 . S
C307 O303 1.278 . S
C307 O308 1.211 . S
O308 C307 1.211 . S
C309 O301 1.284 . S
C309 O310 1.273 . S
O310 C309 1.273 . S
O311 Zn302 1.977 . S
O311 C304 1.267 . S
Dy312 O315 2.307 . S
Dy312 O317 2.395 . S
Dy312 O318 2.379 . S
Dy312 O320 2.339 . S
Dy312 O322 2.298 . S
Dy312 O326 2.275 . S
Dy312 C334 2.738 . S
Dy313 O316 2.298 1_655 S
Dy313 O319 2.275 1_655 S
Dy313 O321 2.338 1_655 S
Dy313 O323 2.395 . S
Dy313 O324 2.379 1_554 S
Dy313 O327 2.339 1_654 S
Dy313 C343 2.738 . S
C314 O326 1.254 1_556 S
C314 O327 1.257 . S
O315 Dy312 2.307 . S
O315 C325 1.266 . S
O316 Dy313 2.298 1_455 S
O316 C325 1.236 . S
O317 Dy312 2.395 . S
O317 C334 1.255 . S
O318 Dy312 2.379 . S
O318 C334 1.249 . S
O319 Dy313 2.275 1_455 S
O319 C335 1.254 . S
O320 Dy312 2.339 . S
O320 C335 1.257 . S
O321 Dy313 2.338 1_455 S
O321 C336 1.251 1_545 S
O322 Dy312 2.298 . S
O322 C336 1.236 1_545 S
O323 Dy313 2.395 . S
O323 C343 1.255 . S
O324 Dy313 2.379 1_556 S
O324 C343 1.249 1_556 S
C325 O315 1.266 . S
C325 O316 1.236 . S
O326 Dy312 2.275 . S
O326 C314 1.254 1_554 S
O327 Dy313 2.339 1_456 S
O327 C314 1.257 . S
C328 C331 1.344 . S
C328 C332 1.328 . S
C328 C334 1.516 . S
C329 C330 1.304 . S
C329 C333 1.323 . S
C330 C329 1.304 . S
C330 C331 1.371 . S
C330 H344 0.930 . S
C331 C328 1.344 . S
C331 C330 1.371 . S
C331 H345 0.931 . S
C332 C328 1.328 . S
C332 C333 1.433 . S
C332 H346 0.931 . S
C333 C329 1.323 . S
C333 C332 1.433 . S
C333 H347 0.933 . S
C334 Dy312 2.738 . S
C334 O317 1.255 . S
C334 O318 1.249 . S
C334 C328 1.516 . S
C335 O319 1.254 . S
C335 O320 1.257 . S
C336 O321 1.251 1_565 S
C336 O322 1.236 1_565 S
C337 C340 1.344 . S
C337 C341 1.328 1_554 S
C337 C343 1.516 . S
C338 C339 1.304 . S
C338 C342 1.323 1_554 S
C339 C338 1.304 . S
C339 C340 1.371 . S
C339 H348 0.930 . S
C340 C337 1.344 . S
C340 C339 1.371 . S
C340 H349 0.931 . S
C341 C337 1.328 1_556 S
C341 C342 1.433 . S
C341 H350 0.931 . S
C342 C338 1.323 1_556 S
C342 C341 1.433 . S
C342 H351 0.933 . S
C343 Dy313 2.738 . S
C343 O323 1.255 . S
C343 O324 1.249 1_554 S
C343 C337 1.516 . S
H344 C330 0.930 . S
H345 C331 0.931 . S
H346 C332 0.931 . S
H347 C333 0.933 . S
H348 C339 0.930 . S
H349 C340 0.931 . S
H350 C341 0.931 . S
H351 C342 0.933 . S
Dy352 O355 2.307 . S
Dy352 O357 2.395 . S
Dy352 O358 2.379 . S
Dy352 O360 2.339 . S
Dy352 O362 2.298 . S
Dy352 O366 2.275 . S
Dy352 C374 2.738 . S
Dy353 O356 2.298 . S
Dy353 O359 2.275 . S
Dy353 O361 2.307 . S
Dy353 O363 2.395 . S
Dy353 O364 2.379 . S
Dy353 O367 2.339 . S
Dy353 C383 2.738 . S
C354 O366 1.254 . S
C354 O367 1.257 . S
O355 Dy352 2.307 . S
O355 C365 1.266 . S
O356 Dy353 2.298 . S
O356 C365 1.236 . S
O357 Dy352 2.395 . S
O357 C374 1.255 . S
O358 Dy352 2.379 . S
O358 C374 1.249 . S
O359 Dy353 2.275 . S
O359 C375 1.254 . S
O360 Dy352 2.339 . S
O360 C375 1.257 . S
O361 Dy353 2.307 . S
O361 C376 1.266 . S
O362 Dy352 2.298 . S
O362 C376 1.236 . S
O363 Dy353 2.395 . S
O363 C383 1.255 . S
O364 Dy353 2.379 . S
O364 C383 1.249 . S
C365 O355 1.266 . S
C365 O356 1.236 . S
O366 Dy352 2.275 . S
O366 C354 1.254 . S
O367 Dy353 2.339 . S
O367 C354 1.257 . S
C368 C371 1.344 . S
C368 C372 1.328 . S
C368 C374 1.516 . S
C369 C370 1.304 . S
C369 C373 1.323 . S
C370 C369 1.304 . S
C370 C371 1.371 . S
C370 H384 0.930 . S
C371 C368 1.344 . S
C371 C370 1.371 . S
C371 H385 0.931 . S
C372 C368 1.328 . S
C372 C373 1.433 . S
C372 H386 0.931 . S
C373 C369 1.323 . S
C373 C372 1.433 . S
C373 H387 0.933 . S
C374 Dy352 2.738 . S
C374 O357 1.255 . S
C374 O358 1.249 . S
C374 C368 1.516 . S
C375 O359 1.254 . S
C375 O360 1.257 . S
C376 O361 1.266 . S
C376 O362 1.236 . S
C377 C380 1.344 . S
C377 C381 1.328 . S
C377 C383 1.516 . S
C378 C379 1.304 . S
C378 C382 1.323 . S
C379 C378 1.304 . S
C379 C380 1.371 . S
C379 H388 0.930 . S
C380 C377 1.344 . S
C380 C379 1.371 . S
C380 H389 0.931 . S
C381 C377 1.328 . S
C381 C382 1.433 . S
C381 H390 0.931 . S
C382 C378 1.323 . S
C382 C381 1.433 . S
C382 H391 0.933 . S
C383 Dy353 2.738 . S
C383 O363 1.255 . S
C383 O364 1.249 . S
C383 C377 1.516 . S
H384 C370 0.930 . S
H385 C371 0.931 . S
H386 C372 0.931 . S
H387 C373 0.933 . S
H388 C379 0.930 . S
H389 C380 0.931 . S
H390 C381 0.931 . S
H391 C382 0.933 . S
Dy392 O395 2.307 . S
Dy392 O397 2.395 . S
Dy392 O398 2.379 . S
Dy392 O400 2.339 . S
Dy392 O402 2.298 . S
Dy392 O406 2.275 . S
Dy392 C414 2.738 . S
Dy393 O396 2.298 . S
Dy393 O399 2.275 . S
Dy393 O401 2.307 . S
Dy393 O403 2.395 . S
Dy393 O404 2.379 . S
Dy393 O407 2.339 . S
Dy393 C423 2.738 . S
C394 O406 1.254 . S
C394 O407 1.257 . S
O395 Dy392 2.307 . S
O395 C405 1.278 . S
O396 Dy393 2.298 . S
O396 C405 1.243 . S
O397 Dy392 2.395 . S
O397 C414 1.255 . S
O398 Dy392 2.379 . S
O398 C414 1.249 . S
O399 Dy393 2.275 . S
O399 C415 1.254 . S
O400 Dy392 2.339 . S
O400 C415 1.257 . S
O401 Dy393 2.307 . S
O401 C416 1.266 . S
O402 Dy392 2.298 . S
O402 C416 1.236 . S
O403 Dy393 2.395 . S
O403 C423 1.255 . S
O404 Dy393 2.379 . S
O404 C423 1.249 . S
C405 O395 1.278 . S
C405 O396 1.243 . S
O406 Dy392 2.275 . S
O406 C394 1.254 . S
O407 Dy393 2.339 . S
O407 C394 1.257 . S
C408 C411 1.344 . S
C408 C412 1.328 . S
C408 C414 1.516 . S
C409 C410 1.304 . S
C409 C413 1.323 . S
C410 C409 1.304 . S
C410 C411 1.371 . S
C410 H424 0.930 . S
C411 C408 1.344 . S
C411 C410 1.371 . S
C411 H425 0.931 . S
C412 C408 1.328 . S
C412 C413 1.433 . S
C412 H426 0.931 . S
C413 C409 1.323 . S
C413 C412 1.433 . S
C413 H427 0.933 . S
C414 Dy392 2.738 . S
C414 O397 1.255 . S
C414 O398 1.249 . S
C414 C408 1.516 . S
C415 O399 1.254 . S
C415 O400 1.257 . S
C416 O401 1.266 . S
C416 O402 1.236 . S
C417 C420 1.344 . S
C417 C421 1.328 . S
C417 C423 1.516 . S
C418 C419 1.304 . S
C418 C422 1.323 . S
C419 C418 1.304 . S
C419 C420 1.371 1_565 S
C419 H428 0.930 . S
C420 C417 1.344 . S
C420 C419 1.371 1_545 S
C420 H429 0.931 . S
C421 C417 1.328 . S
C421 C422 1.433 1_545 S
C421 H430 0.931 . S
C422 C418 1.323 . S
C422 C421 1.433 1_565 S
C422 H431 0.933 . S
C423 Dy393 2.738 . S
C423 O403 1.255 . S
C423 O404 1.249 . S
C423 C417 1.516 . S
H424 C410 0.930 . S
H425 C411 0.931 . S
H426 C412 0.931 . S
H427 C413 0.933 . S
H428 C419 0.930 . S
H429 C420 0.931 . S
H430 C421 0.931 . S
H431 C422 0.933 . S
Dy432 O435 2.307 . S
Dy432 O437 2.395 . S
Dy432 O438 2.379 . S
Dy432 O440 2.339 . S
Dy432 O442 2.298 . S
Dy432 O446 2.275 . S
Dy432 C454 2.738 . S
Dy433 O436 2.298 . S
Dy433 O439 2.275 . S
Dy433 O441 2.307 . S
Dy433 O443 2.395 . S
Dy433 O444 2.379 . S
Dy433 O447 2.339 . S
Dy433 C463 2.738 . S
C434 O446 1.254 . S
C434 O447 1.257 . S
O435 Dy432 2.307 . S
O435 C445 1.266 . S
O436 Dy433 2.298 . S
O436 C445 1.236 . S
O437 Dy432 2.395 . S
O437 C454 1.255 . S
O438 Dy432 2.379 . S
O438 C454 1.249 . S
O439 Dy433 2.275 . S
O439 C455 1.254 . S
O440 Dy432 2.339 . S
O440 C455 1.257 . S
O441 Dy433 2.307 . S
O441 C456 1.266 . S
O442 Dy432 2.298 . S
O442 C456 1.236 . S
O443 Dy433 2.395 . S
O443 C463 1.255 . S
O444 Dy433 2.379 . S
O444 C463 1.249 . S
C445 O435 1.266 . S
C445 O436 1.236 . S
O446 Dy432 2.275 . S
O446 C434 1.254 . S
O447 Dy433 2.339 . S
O447 C434 1.257 . S
C448 C451 1.344 . S
C448 C452 1.328 . S
C448 C454 1.516 . S
C449 C450 1.304 . S
C449 C453 1.323 . S
C450 C449 1.304 . S
C450 C451 1.371 . S
C450 H464 0.930 . S
C451 C448 1.344 . S
C451 C450 1.371 . S
C451 H465 0.931 . S
C452 C448 1.328 . S
C452 C453 1.433 . S
C452 H466 0.931 . S
C453 C449 1.323 . S
C453 C452 1.433 . S
C453 H467 0.933 . S
C454 Dy432 2.738 . S
C454 O437 1.255 . S
C454 O438 1.249 . S
C454 C448 1.516 . S
C455 O439 1.254 . S
C455 O440 1.257 . S
C456 O441 1.266 . S
C456 O442 1.236 . S
C457 C460 1.344 . S
C457 C461 1.328 . S
C457 C463 1.516 . S
C458 C459 1.304 . S
C458 C462 1.323 . S
C459 C458 1.304 . S
C459 C460 1.371 . S
C459 H468 0.930 . S
C460 C457 1.344 . S
C460 C459 1.371 . S
C460 H469 0.931 . S
C461 C457 1.328 . S
C461 C462 1.433 . S
C461 H470 0.931 . S
C462 C458 1.323 . S
C462 C461 1.433 . S
C462 H471 0.933 . S
C463 Dy433 2.738 . S
C463 O443 1.255 . S
C463 O444 1.249 . S
C463 C457 1.516 . S
H464 C450 0.930 . S
H465 C451 0.931 . S
H466 C452 0.931 . S
H467 C453 0.933 . S
H468 C459 0.930 . S
H469 C460 0.931 . S
H470 C461 0.931 . S
H471 C462 0.933 . S
Dy472 O475 2.307 . S
Dy472 O477 2.395 1_545 S
Dy472 O478 2.379 1_545 S
Dy472 O480 2.339 . S
Dy472 O482 2.298 . S
Dy472 O486 2.275 . S
Dy472 C494 2.738 1_545 S
Dy473 O476 2.298 . S
Dy473 O479 2.275 . S
Dy473 O481 2.307 . S
Dy473 O483 2.395 . S
Dy473 O484 2.379 1_455 S
Dy473 O487 2.339 1_455 S
Dy473 C503 2.738 . S
C474 O486 1.254 1_655 S
C474 O487 1.257 . S
O475 Dy472 2.307 . S
O475 C485 1.266 . S
O476 Dy473 2.298 . S
O476 C485 1.236 . S
O477 Dy472 2.395 1_565 S
O477 C494 1.255 . S
O478 Dy472 2.379 1_565 S
O478 C494 1.249 . S
O479 Dy473 2.275 . S
O479 C495 1.254 . S
O480 Dy472 2.339 . S
O480 C495 1.257 . S
O481 Dy473 2.307 . S
O481 C496 1.266 . S
O482 Dy472 2.298 . S
O482 C496 1.236 . S
O483 Dy473 2.395 . S
O483 C503 1.255 . S
O484 Dy473 2.379 1_655 S
O484 C503 1.249 1_655 S
C485 O475 1.266 . S
C485 O476 1.236 . S
O486 Dy472 2.275 . S
O486 C474 1.254 1_455 S
O487 Dy473 2.339 1_655 S
O487 C474 1.257 . S
C488 C491 1.344 . S
C488 C492 1.328 . S
C488 C494 1.516 . S
C489 C490 1.304 . S
C489 C493 1.323 . S
C490 C489 1.304 . S
C490 C491 1.371 . S
C490 H504 0.930 . S
C491 C488 1.344 . S
C491 C490 1.371 . S
C491 H505 0.931 . S
C492 C488 1.328 . S
C492 C493 1.433 . S
C492 H506 0.931 . S
C493 C489 1.323 . S
C493 C492 1.433 . S
C493 H507 0.933 . S
C494 Dy472 2.738 1_565 S
C494 O477 1.255 . S
C494 O478 1.249 . S
C494 C488 1.516 . S
C495 O479 1.254 . S
C495 O480 1.257 . S
C496 O481 1.266 . S
C496 O482 1.236 . S
C497 C500 1.344 . S
C497 C501 1.328 1_455 S
C497 C503 1.516 . S
C498 C499 1.304 . S
C498 C502 1.323 1_455 S
C499 C498 1.304 . S
C499 C500 1.371 . S
C499 H508 0.930 . S
C500 C497 1.344 . S
C500 C499 1.371 . S
C500 H509 0.931 . S
C501 C497 1.328 1_655 S
C501 C502 1.433 . S
C501 H510 0.931 . S
C502 C498 1.323 1_655 S
C502 C501 1.433 . S
C502 H511 0.933 . S
C503 Dy473 2.738 . S
C503 O483 1.255 . S
C503 O484 1.249 1_455 S
C503 C497 1.516 . S
H504 C490 0.930 . S
H505 C491 0.931 . S
H506 C492 0.931 . S
H507 C493 0.933 . S
H508 C499 0.930 . S
H509 C500 0.931 . S
H510 C501 0.931 . S
H511 C502 0.933 . S
Dy512 O515 2.307 . S
Dy512 O517 2.395 . S
Dy512 O518 2.379 . S
Dy512 O520 2.339 . S
Dy512 O522 2.298 . S
Dy512 O526 2.275 . S
Dy512 C534 2.738 . S
Dy513 O516 2.298 . S
Dy513 O519 2.275 . S
Dy513 O521 2.307 . S
Dy513 O523 2.395 . S
Dy513 O524 2.379 . S
Dy513 O527 2.339 . S
Dy513 C543 2.738 . S
C514 O526 1.254 . S
C514 O527 1.257 . S
O515 Dy512 2.307 . S
O515 C525 1.266 . S
O516 Dy513 2.298 . S
O516 C525 1.236 . S
O517 Dy512 2.395 . S
O517 C534 1.255 . S
O518 Dy512 2.379 . S
O518 C534 1.249 . S
O519 Dy513 2.275 . S
O519 C535 1.254 . S
O520 Dy512 2.339 . S
O520 C535 1.257 . S
O521 Dy513 2.307 . S
O521 C536 1.266 . S
O522 Dy512 2.298 . S
O522 C536 1.236 . S
O523 Dy513 2.395 . S
O523 C543 1.255 . S
O524 Dy513 2.379 . S
O524 C543 1.249 . S
C525 O515 1.266 . S
C525 O516 1.236 . S
O526 Dy512 2.275 . S
O526 C514 1.254 . S
O527 Dy513 2.339 . S
O527 C514 1.257 . S
C528 C531 1.344 . S
C528 C532 1.328 . S
C528 C534 1.516 . S
C529 C530 1.304 . S
C529 C533 1.323 . S
C530 C529 1.304 . S
C530 C531 1.371 . S
C530 H544 0.930 . S
C531 C528 1.344 . S
C531 C530 1.371 . S
C531 H545 0.931 . S
C532 C528 1.328 . S
C532 C533 1.433 . S
C532 H546 0.931 . S
C533 C529 1.323 . S
C533 C532 1.433 . S
C533 H547 0.933 . S
C534 Dy512 2.738 . S
C534 O517 1.255 . S
C534 O518 1.249 . S
C534 C528 1.516 . S
C535 O519 1.254 . S
C535 O520 1.257 . S
C536 O521 1.266 . S
C536 O522 1.236 . S
C537 C540 1.344 . S
C537 C541 1.328 . S
C537 C543 1.516 . S
C538 C539 1.304 . S
C538 C542 1.323 . S
C539 C538 1.304 . S
C539 C540 1.371 . S
C539 H548 0.930 . S
C540 C537 1.344 . S
C540 C539 1.371 . S
C540 H549 0.931 . S
C541 C537 1.328 . S
C541 C542 1.433 . S
C541 H550 0.931 . S
C542 C538 1.323 . S
C542 C541 1.433 . S
C542 H551 0.933 . S
C543 Dy513 2.738 . S
C543 O523 1.255 . S
C543 O524 1.249 . S
C543 C537 1.516 . S
H544 C530 0.930 . S
H545 C531 0.931 . S
H546 C532 0.931 . S
H547 C533 0.933 . S
H548 C539 0.930 . S
H549 C540 0.931 . S
H550 C541 0.931 . S
H551 C542 0.933 . S
Dy552 O555 2.307 . S
Dy552 O557 2.395 1_554 S
Dy552 O558 2.379 1_554 S
Dy552 O560 2.339 . S
Dy552 O562 2.298 . S
Dy552 O566 2.275 . S
Dy552 C574 2.738 1_554 S
Dy553 O556 2.298 . S
Dy553 O559 2.275 . S
Dy553 O561 2.307 . S
Dy553 O563 2.395 . S
Dy553 O564 2.379 1_545 S
Dy553 O567 2.339 1_545 S
Dy553 C583 2.738 . S
C554 O566 1.254 . S
C554 O567 1.257 1_545 S
O555 Dy552 2.307 . S
O555 C565 1.266 . S
O556 Dy553 2.298 . S
O556 C565 1.236 . S
O557 Dy552 2.395 1_556 S
O557 C574 1.255 . S
O558 Dy552 2.379 1_556 S
O558 C574 1.249 . S
O559 Dy553 2.275 . S
O559 C575 1.254 . S
O560 Dy552 2.339 . S
O560 C575 1.257 . S
O561 Dy553 2.307 . S
O561 C576 1.266 . S
O562 Dy552 2.298 . S
O562 C576 1.236 . S
O563 Dy553 2.395 . S
O563 C583 1.255 . S
O564 Dy553 2.379 1_565 S
O564 C583 1.249 1_565 S
C565 O555 1.266 . S
C565 O556 1.236 . S
O566 Dy552 2.275 . S
O566 C554 1.254 . S
O567 Dy553 2.339 1_565 S
O567 C554 1.257 1_565 S
C568 C571 1.344 . S
C568 C572 1.328 . S
C568 C574 1.516 . S
C569 C570 1.304 . S
C569 C573 1.323 . S
C570 C569 1.304 . S
C570 C571 1.371 . S
C570 H584 0.930 . S
C571 C568 1.344 . S
C571 C570 1.371 . S
C571 H585 0.931 . S
C572 C568 1.328 . S
C572 C573 1.433 . S
C572 H586 0.931 . S
C573 C569 1.323 . S
C573 C572 1.433 . S
C573 H587 0.933 . S
C574 Dy552 2.738 1_556 S
C574 O557 1.255 . S
C574 O558 1.249 . S
C574 C568 1.516 . S
C575 O559 1.254 . S
C575 O560 1.257 . S
C576 O561 1.266 . S
C576 O562 1.236 . S
C577 C580 1.344 . S
C577 C581 1.328 1_545 S
C577 C583 1.516 . S
C578 C579 1.304 1_565 S
C578 C582 1.323 . S
C579 C578 1.304 1_545 S
C579 C580 1.371 . S
C579 H588 0.930 . S
C580 C577 1.344 . S
C580 C579 1.371 . S
C580 H589 0.931 . S
C581 C577 1.328 1_565 S
C581 C582 1.433 . S
C581 H590 0.931 . S
C582 C578 1.323 . S
C582 C581 1.433 . S
C582 H591 0.933 . S
C583 Dy553 2.738 . S
C583 O563 1.255 . S
C583 O564 1.249 1_545 S
C583 C577 1.516 . S
H584 C570 0.930 . S
H585 C571 0.931 . S
H586 C572 0.931 . S
H587 C573 0.933 . S
H588 C579 0.930 . S
H589 C580 0.931 . S
H590 C581 0.931 . S
H591 C582 0.933 . S
Dy592 O595 2.307 . S
Dy592 O597 2.395 . S
Dy592 O598 2.379 . S
Dy592 O600 2.339 . S
Dy592 O602 2.298 . S
Dy592 O606 2.275 . S
Dy592 C614 2.738 . S
Dy593 O596 2.298 . S
Dy593 O599 2.275 . S
Dy593 O601 2.307 . S
Dy593 O603 2.395 . S
Dy593 O604 2.379 . S
Dy593 O607 2.339 . S
Dy593 C623 2.738 . S
C594 O606 1.254 . S
C594 O607 1.257 . S
O595 Dy592 2.307 . S
O595 C605 1.266 . S
O596 Dy593 2.298 . S
O596 C605 1.236 . S
O597 Dy592 2.395 . S
O597 C614 1.255 . S
O598 Dy592 2.379 . S
O598 C614 1.249 . S
O599 Dy593 2.275 . S
O599 C615 1.254 . S
O600 Dy592 2.339 . S
O600 C615 1.257 . S
O601 Dy593 2.307 . S
O601 C616 1.266 . S
O602 Dy592 2.298 . S
O602 C616 1.236 . S
O603 Dy593 2.395 . S
O603 C623 1.255 . S
O604 Dy593 2.379 . S
O604 C623 1.249 . S
C605 O595 1.266 . S
C605 O596 1.236 . S
O606 Dy592 2.275 . S
O606 C594 1.254 . S
O607 Dy593 2.339 . S
O607 C594 1.257 . S
C608 C611 1.344 . S
C608 C612 1.328 . S
C608 C614 1.516 . S
C609 C610 1.304 . S
C609 C613 1.323 . S
C610 C609 1.304 . S
C610 C611 1.371 . S
C610 H624 0.930 . S
C611 C608 1.344 . S
C611 C610 1.371 . S
C611 H625 0.931 . S
C612 C608 1.328 . S
C612 C613 1.433 . S
C612 H626 0.931 . S
C613 C609 1.323 . S
C613 C612 1.433 . S
C613 H627 0.933 . S
C614 Dy592 2.738 . S
C614 O597 1.255 . S
C614 O598 1.249 . S
C614 C608 1.516 . S
C615 O599 1.254 . S
C615 O600 1.257 . S
C616 O601 1.266 . S
C616 O602 1.236 . S
C617 C620 1.344 . S
C617 C621 1.328 . S
C617 C623 1.516 . S
C618 C619 1.304 . S
C618 C622 1.323 . S
C619 C618 1.304 . S
C619 C620 1.371 . S
C619 H628 0.930 . S
C620 C617 1.344 . S
C620 C619 1.371 . S
C620 H629 0.931 . S
C621 C617 1.328 . S
C621 C622 1.433 . S
C621 H630 0.931 . S
C622 C618 1.323 . S
C622 C621 1.433 . S
C622 H631 0.933 . S
C623 Dy593 2.738 . S
C623 O603 1.255 . S
C623 O604 1.249 . S
C623 C617 1.516 . S
H624 C610 0.930 . S
H625 C611 0.931 . S
H626 C612 0.931 . S
H627 C613 0.933 . S
H628 C619 0.930 . S
H629 C620 0.931 . S
H630 C621 0.931 . S
H631 C622 0.933 . S
Dy632 O635 2.307 1_554 S
Dy632 O637 2.395 . S
Dy632 O638 2.379 . S
Dy632 O640 2.339 . S
Dy632 O642 2.298 . S
Dy632 O646 2.275 . S
Dy632 C654 2.738 . S
Dy633 O636 2.328 . S
Dy633 O639 2.275 . S
Dy633 O641 2.307 . S
Dy633 O643 2.395 . S
Dy633 O644 2.379 . S
Dy633 O647 2.339 . S
Dy633 C663 2.738 . S
C634 O646 1.254 . S
C634 O647 1.257 . S
O635 Dy632 2.307 1_556 S
O635 C645 1.266 . S
O636 Dy633 2.328 . S
O636 C645 1.219 1_554 S
O637 Dy632 2.395 . S
O637 C654 1.255 . S
O638 Dy632 2.379 . S
O638 C654 1.249 . S
O639 Dy633 2.275 . S
O639 C655 1.254 . S
O640 Dy632 2.339 . S
O640 C655 1.257 . S
O641 Dy633 2.307 . S
O641 C656 1.266 . S
O642 Dy632 2.298 . S
O642 C656 1.236 . S
O643 Dy633 2.395 . S
O643 C663 1.255 . S
O644 Dy633 2.379 . S
O644 C663 1.249 . S
C645 O635 1.266 . S
C645 O636 1.219 1_556 S
O646 Dy632 2.275 . S
O646 C634 1.254 . S
O647 Dy633 2.339 . S
O647 C634 1.257 . S
C648 C651 1.344 . S
C648 C652 1.328 . S
C648 C654 1.516 . S
C649 C650 1.304 . S
C649 C653 1.323 . S
C650 C649 1.304 . S
C650 C651 1.371 . S
C650 H664 0.930 . S
C651 C648 1.344 . S
C651 C650 1.371 . S
C651 H665 0.931 . S
C652 C648 1.328 . S
C652 C653 1.433 . S
C652 H666 0.931 . S
C653 C649 1.323 . S
C653 C652 1.433 . S
C653 H667 0.933 . S
C654 Dy632 2.738 . S
C654 O637 1.255 . S
C654 O638 1.249 . S
C654 C648 1.516 . S
C655 O639 1.254 . S
C655 O640 1.257 . S
C656 O641 1.266 . S
C656 O642 1.236 . S
C657 C660 1.320 1_554 S
C657 C661 1.328 . S
C657 C663 1.537 . S
C658 C659 1.304 . S
C658 C662 1.323 . S
C659 C658 1.304 . S
C659 C660 1.371 . S
C659 H668 0.930 . S
C660 C657 1.320 1_556 S
C660 C659 1.371 . S
C660 H669 0.931 . S
C661 C657 1.328 . S
C661 C662 1.418 1_554 S
C661 H670 0.948 . S
C662 C658 1.323 . S
C662 C661 1.418 1_556 S
C662 H671 0.933 . S
C663 Dy633 2.738 . S
C663 O643 1.255 . S
C663 O644 1.249 . S
C663 C657 1.537 . S
H664 C650 0.930 . S
H665 C651 0.931 . S
H666 C652 0.931 . S
H667 C653 0.933 . S
H668 C659 0.930 . S
H669 C660 0.931 . S
H670 C661 0.948 . S
H671 C662 0.933 . S
Dy672 O675 2.307 . S
Dy672 O677 2.395 . S
Dy672 O678 2.379 . S
Dy672 O680 2.339 . S
Dy672 O682 2.298 . S
Dy672 O686 2.275 . S
Dy672 C694 2.738 . S
Dy673 O676 2.298 . S
Dy673 O679 2.275 . S
Dy673 O681 2.307 . S
Dy673 O683 2.395 . S
Dy673 O684 2.379 . S
Dy673 O687 2.339 . S
Dy673 C703 2.738 . S
C674 O686 1.254 . S
C674 O687 1.257 . S
O675 Dy672 2.307 . S
O675 C685 1.266 . S
O676 Dy673 2.298 . S
O676 C685 1.236 . S
O677 Dy672 2.395 . S
O677 C694 1.255 . S
O678 Dy672 2.379 . S
O678 C694 1.249 . S
O679 Dy673 2.275 . S
O679 C695 1.254 . S
O680 Dy672 2.339 . S
O680 C695 1.257 . S
O681 Dy673 2.307 . S
O681 C696 1.266 . S
O682 Dy672 2.298 . S
O682 C696 1.236 . S
O683 Dy673 2.395 . S
O683 C703 1.255 . S
O684 Dy673 2.379 . S
O684 C703 1.249 . S
C685 O675 1.266 . S
C685 O676 1.236 . S
O686 Dy672 2.275 . S
O686 C674 1.254 . S
O687 Dy673 2.339 . S
O687 C674 1.257 . S
C688 C691 1.344 . S
C688 C692 1.328 . S
C688 C694 1.516 . S
C689 C690 1.304 . S
C689 C693 1.323 . S
C690 C689 1.304 . S
C690 C691 1.371 . S
C690 H704 0.930 . S
C691 C688 1.344 . S
C691 C690 1.371 . S
C691 H705 0.931 . S
C692 C688 1.328 . S
C692 C693 1.433 . S
C692 H706 0.931 . S
C693 C689 1.323 . S
C693 C692 1.433 . S
C693 H707 0.933 . S
C694 Dy672 2.738 . S
C694 O677 1.255 . S
C694 O678 1.249 . S
C694 C688 1.516 . S
C695 O679 1.254 . S
C695 O680 1.257 . S
C696 O681 1.266 . S
C696 O682 1.236 . S
C697 C700 1.344 . S
C697 C701 1.328 . S
C697 C703 1.516 . S
C698 C699 1.304 . S
C698 C702 1.323 . S
C699 C698 1.304 . S
C699 C700 1.371 . S
C699 H708 0.930 . S
C700 C697 1.344 . S
C700 C699 1.371 . S
C700 H709 0.931 . S
C701 C697 1.328 . S
C701 C702 1.433 . S
C701 H710 0.931 . S
C702 C698 1.323 . S
C702 C701 1.433 . S
C702 H711 0.933 . S
C703 Dy673 2.738 . S
C703 O683 1.255 . S
C703 O684 1.249 . S
C703 C697 1.516 . S
H704 C690 0.930 . S
H705 C691 0.931 . S
H706 C692 0.931 . S
H707 C693 0.933 . S
H708 C699 0.930 . S
H709 C700 0.931 . S
H710 C701 0.931 . S
H711 C702 0.933 . S
Dy712 O715 2.307 1_455 S
Dy712 O717 2.395 . S
Dy712 O718 2.379 . S
Dy712 O720 2.339 . S
Dy712 O722 2.298 . S
Dy712 O726 2.275 . S
Dy712 C734 2.738 . S
Dy713 O716 2.298 1_455 S
Dy713 O719 2.275 . S
Dy713 O721 2.307 . S
Dy713 O723 2.395 . S
Dy713 O724 2.379 . S
Dy713 O727 2.339 . S
Dy713 C743 2.738 . S
C714 O726 1.254 . S
C714 O727 1.257 . S
O715 Dy712 2.307 1_655 S
O715 C725 1.266 . S
O716 Dy713 2.298 1_655 S
O716 C725 1.236 . S
O717 Dy712 2.395 . S
O717 C734 1.255 . S
O718 Dy712 2.379 . S
O718 C734 1.249 . S
O719 Dy713 2.275 . S
O719 C735 1.254 . S
O720 Dy712 2.339 . S
O720 C735 1.257 . S
O721 Dy713 2.307 . S
O721 C736 1.266 . S
O722 Dy712 2.298 . S
O722 C736 1.236 . S
O723 Dy713 2.395 . S
O723 C743 1.255 . S
O724 Dy713 2.379 . S
O724 C743 1.249 . S
C725 O715 1.266 . S
C725 O716 1.236 . S
O726 Dy712 2.275 . S
O726 C714 1.254 . S
O727 Dy713 2.339 . S
O727 C714 1.257 . S
C728 C731 1.344 . S
C728 C732 1.328 . S
C728 C734 1.516 . S
C729 C730 1.304 . S
C729 C733 1.323 . S
C730 C729 1.304 . S
C730 C731 1.371 . S
C730 H744 0.930 . S
C731 C728 1.344 . S
C731 C730 1.371 . S
C731 H745 0.931 . S
C732 C728 1.328 . S
C732 C733 1.433 . S
C732 H746 0.931 . S
C733 C729 1.323 . S
C733 C732 1.433 . S
C733 H747 0.933 . S
C734 Dy712 2.738 . S
C734 O717 1.255 . S
C734 O718 1.249 . S
C734 C728 1.516 . S
C735 O719 1.254 . S
C735 O720 1.257 . S
C736 O721 1.266 . S
C736 O722 1.236 . S
C737 C740 1.344 . S
C737 C741 1.328 . S
C737 C743 1.516 1_655 S
C738 C739 1.304 . S
C738 C742 1.323 . S
C739 C738 1.304 . S
C739 C740 1.371 . S
C739 H748 0.930 . S
C740 C737 1.344 . S
C740 C739 1.371 . S
C740 H749 0.931 . S
C741 C737 1.328 . S
C741 C742 1.433 . S
C741 H750 0.931 . S
C742 C738 1.323 . S
C742 C741 1.433 . S
C742 H751 0.933 . S
C743 Dy713 2.738 . S
C743 O723 1.255 . S
C743 O724 1.249 . S
C743 C737 1.516 1_455 S
H744 C730 0.930 . S
H745 C731 0.931 . S
H746 C732 0.931 . S
H747 C733 0.933 . S
H748 C739 0.930 . S
H749 C740 0.931 . S
H750 C741 0.931 . S
H751 C742 0.933 . S
Dy752 O755 2.307 . S
Dy752 O757 2.395 . S
Dy752 O758 2.379 . S
Dy752 O760 2.339 . S
Dy752 O762 2.298 . S
Dy752 O766 2.275 . S
Dy752 C774 2.738 . S
Dy753 O756 2.298 . S
Dy753 O759 2.275 . S
Dy753 O761 2.307 . S
Dy753 O763 2.395 . S
Dy753 O764 2.379 . S
Dy753 O767 2.339 . S
Dy753 C783 2.738 . S
C754 O766 1.254 . S
C754 O767 1.257 . S
O755 Dy752 2.307 . S
O755 C765 1.266 . S
O756 Dy753 2.298 . S
O756 C765 1.236 . S
O757 Dy752 2.395 . S
O757 C774 1.255 . S
O758 Dy752 2.379 . S
O758 C774 1.249 . S
O759 Dy753 2.275 . S
O759 C775 1.254 . S
O760 Dy752 2.339 . S
O760 C775 1.257 . S
O761 Dy753 2.307 . S
O761 C776 1.266 . S
O762 Dy752 2.298 . S
O762 C776 1.236 . S
O763 Dy753 2.395 . S
O763 C783 1.255 . S
O764 Dy753 2.379 . S
O764 C783 1.249 . S
C765 O755 1.266 . S
C765 O756 1.236 . S
O766 Dy752 2.275 . S
O766 C754 1.254 . S
O767 Dy753 2.339 . S
O767 C754 1.257 . S
C768 C771 1.344 . S
C768 C772 1.328 . S
C768 C774 1.516 . S
C769 C770 1.304 . S
C769 C773 1.323 . S
C770 C769 1.304 . S
C770 C771 1.371 . S
C770 H784 0.930 . S
C771 C768 1.344 . S
C771 C770 1.371 . S
C771 H785 0.931 . S
C772 C768 1.328 . S
C772 C773 1.433 . S
C772 H786 0.931 . S
C773 C769 1.323 . S
C773 C772 1.433 . S
C773 H787 0.933 . S
C774 Dy752 2.738 . S
C774 O757 1.255 . S
C774 O758 1.249 . S
C774 C768 1.516 . S
C775 O759 1.254 . S
C775 O760 1.257 . S
C776 O761 1.266 . S
C776 O762 1.236 . S
C777 C780 1.344 . S
C777 C781 1.328 . S
C777 C783 1.516 . S
C778 C779 1.304 . S
C778 C782 1.323 . S
C779 C778 1.304 . S
C779 C780 1.371 . S
C779 H788 0.930 . S
C780 C777 1.344 . S
C780 C779 1.371 . S
C780 H789 0.931 . S
C781 C777 1.328 . S
C781 C782 1.433 . S
C781 H790 0.931 . S
C782 C778 1.323 . S
C782 C781 1.433 . S
C782 H791 0.933 . S
C783 Dy753 2.738 . S
C783 O763 1.255 . S
C783 O764 1.249 . S
C783 C777 1.516 . S
H784 C770 0.930 . S
H785 C771 0.931 . S
H786 C772 0.931 . S
H787 C773 0.933 . S
H788 C779 0.930 . S
H789 C780 0.931 . S
H790 C781 0.931 . S
H791 C782 0.933 . S
Dy792 O795 2.307 . S
Dy792 O797 2.395 . S
Dy792 O798 2.379 . S
Dy792 O800 2.339 . S
Dy792 O802 2.298 . S
Dy792 O806 2.275 . S
Dy792 C814 2.738 . S
Dy793 O796 2.298 . S
Dy793 O799 2.275 . S
Dy793 O801 2.307 . S
Dy793 O803 2.395 . S
Dy793 O804 2.379 . S
Dy793 O807 2.339 . S
Dy793 C823 2.738 . S
C794 O806 1.254 . S
C794 O807 1.257 . S
O795 Dy792 2.307 . S
O795 C805 1.266 . S
O796 Dy793 2.298 . S
O796 C805 1.236 . S
O797 Dy792 2.395 . S
O797 C814 1.255 . S
O798 Dy792 2.379 . S
O798 C814 1.249 . S
O799 Dy793 2.275 . S
O799 C815 1.254 . S
O800 Dy792 2.339 . S
O800 C815 1.257 . S
O801 Dy793 2.307 . S
O801 C816 1.266 . S
O802 Dy792 2.298 . S
O802 C816 1.236 . S
O803 Dy793 2.395 . S
O803 C823 1.255 . S
O804 Dy793 2.379 . S
O804 C823 1.249 . S
C805 O795 1.266 . S
C805 O796 1.236 . S
O806 Dy792 2.275 . S
O806 C794 1.254 . S
O807 Dy793 2.339 . S
O807 C794 1.257 . S
C808 C811 1.344 . S
C808 C812 1.328 . S
C808 C814 1.516 . S
C809 C810 1.304 . S
C809 C813 1.323 . S
C810 C809 1.304 . S
C810 C811 1.371 . S
C810 H824 0.930 . S
C811 C808 1.344 . S
C811 C810 1.371 . S
C811 H825 0.931 . S
C812 C808 1.328 . S
C812 C813 1.433 . S
C812 H826 0.931 . S
C813 C809 1.323 . S
C813 C812 1.433 . S
C813 H827 0.933 . S
C814 Dy792 2.738 . S
C814 O797 1.255 . S
C814 O798 1.249 . S
C814 C808 1.516 . S
C815 O799 1.254 . S
C815 O800 1.257 . S
C816 O801 1.266 . S
C816 O802 1.236 . S
C817 C820 1.344 . S
C817 C821 1.328 . S
C817 C823 1.516 . S
C818 C819 1.304 . S
C818 C822 1.323 . S
C819 C818 1.304 . S
C819 C820 1.371 . S
C819 H828 0.930 . S
C820 C817 1.344 . S
C820 C819 1.371 . S
C820 H829 0.931 . S
C821 C817 1.328 . S
C821 C822 1.433 . S
C821 H830 0.931 . S
C822 C818 1.323 . S
C822 C821 1.433 . S
C822 H831 0.933 . S
C823 Dy793 2.738 . S
C823 O803 1.255 . S
C823 O804 1.249 . S
C823 C817 1.516 . S
H824 C810 0.930 . S
H825 C811 0.931 . S
H826 C812 0.931 . S
H827 C813 0.933 . S
H828 C819 0.930 . S
H829 C820 0.931 . S
H830 C821 0.931 . S
H831 C822 0.933 . S
Dy832 O835 2.307 . S
Dy832 O837 2.395 . S
Dy832 O838 2.379 . S
Dy832 O840 2.339 . S
Dy832 O842 2.298 . S
Dy832 O846 2.275 . S
Dy832 C854 2.738 . S
Dy833 O836 2.298 . S
Dy833 O839 2.275 . S
Dy833 O841 2.307 . S
Dy833 O843 2.395 . S
Dy833 O844 2.379 . S
Dy833 O847 2.339 . S
Dy833 C863 2.738 . S
C834 O846 1.254 . S
C834 O847 1.257 . S
O835 Dy832 2.307 . S
O835 C845 1.266 . S
O836 Dy833 2.298 . S
O836 C845 1.236 . S
O837 Dy832 2.395 . S
O837 C854 1.255 . S
O838 Dy832 2.379 . S
O838 C854 1.249 . S
O839 Dy833 2.275 . S
O839 C855 1.254 . S
O840 Dy832 2.339 . S
O840 C855 1.257 . S
O841 Dy833 2.307 . S
O841 C856 1.266 . S
O842 Dy832 2.298 . S
O842 C856 1.236 . S
O843 Dy833 2.395 . S
O843 C863 1.255 . S
O844 Dy833 2.379 . S
O844 C863 1.249 . S
C845 O835 1.266 . S
C845 O836 1.236 . S
O846 Dy832 2.275 . S
O846 C834 1.254 . S
O847 Dy833 2.339 . S
O847 C834 1.257 . S
C848 C851 1.344 . S
C848 C852 1.328 . S
C848 C854 1.516 . S
C849 C850 1.304 . S
C849 C853 1.323 . S
C850 C849 1.304 . S
C850 C851 1.371 . S
C850 H864 0.930 . S
C851 C848 1.344 . S
C851 C850 1.371 . S
C851 H865 0.931 . S
C852 C848 1.328 . S
C852 C853 1.433 . S
C852 H866 0.931 . S
C853 C849 1.323 . S
C853 C852 1.433 . S
C853 H867 0.933 . S
C854 Dy832 2.738 . S
C854 O837 1.255 . S
C854 O838 1.249 . S
C854 C848 1.516 . S
C855 O839 1.254 . S
C855 O840 1.257 . S
C856 O841 1.266 . S
C856 O842 1.236 . S
C857 C860 1.344 . S
C857 C861 1.328 . S
C857 C863 1.516 . S
C858 C859 1.304 . S
C858 C862 1.323 . S
C859 C858 1.304 . S
C859 C860 1.371 . S
C859 H868 0.930 . S
C860 C857 1.344 . S
C860 C859 1.371 . S
C860 H869 0.931 . S
C861 C857 1.328 . S
C861 C862 1.433 . S
C861 H870 0.931 . S
C862 C858 1.323 . S
C862 C861 1.433 . S
C862 H871 0.943 . S
C863 Dy833 2.738 . S
C863 O843 1.255 . S
C863 O844 1.249 . S
C863 C857 1.516 . S
H864 C850 0.930 . S
H865 C851 0.931 . S
H866 C852 0.931 . S
H867 C853 0.933 . S
H868 C859 0.930 . S
H869 C860 0.931 . S
H870 C861 0.931 . S
H871 C862 0.943 . S
Dy872 O875 2.307 . S
Dy872 O877 2.395 . S
Dy872 O878 2.379 . S
Dy872 O880 2.339 . S
Dy872 O882 2.298 . S
Dy872 O886 2.275 . S
Dy872 C894 2.738 . S
Dy873 O876 2.298 . S
Dy873 O879 2.275 . S
Dy873 O881 2.307 . S
Dy873 O883 2.395 . S
Dy873 O884 2.379 . S
Dy873 O887 2.339 . S
Dy873 C903 2.738 . S
C874 O886 1.254 . S
C874 O887 1.257 . S
O875 Dy872 2.307 . S
O875 C885 1.266 . S
O876 Dy873 2.298 . S
O876 C885 1.236 . S
O877 Dy872 2.395 . S
O877 C894 1.255 . S
O878 Dy872 2.379 . S
O878 C894 1.249 . S
O879 Dy873 2.275 . S
O879 C895 1.254 . S
O880 Dy872 2.339 . S
O880 C895 1.257 . S
O881 Dy873 2.307 . S
O881 C896 1.266 . S
O882 Dy872 2.298 . S
O882 C896 1.236 . S
O883 Dy873 2.395 . S
O883 C903 1.255 . S
O884 Dy873 2.379 . S
O884 C903 1.249 . S
C885 O875 1.266 . S
C885 O876 1.236 . S
O886 Dy872 2.275 . S
O886 C874 1.254 . S
O887 Dy873 2.339 . S
O887 C874 1.257 . S
C888 C891 1.344 . S
C888 C892 1.328 . S
C888 C894 1.516 . S
C889 C890 1.304 . S
C889 C893 1.323 . S
C890 C889 1.304 . S
C890 C891 1.371 . S
C890 H904 0.930 . S
C891 C888 1.344 . S
C891 C890 1.371 . S
C891 H905 0.931 . S
C892 C888 1.328 . S
C892 C893 1.433 . S
C892 H906 0.931 . S
C893 C889 1.323 . S
C893 C892 1.433 . S
C893 H907 0.933 . S
C894 Dy872 2.738 . S
C894 O877 1.255 . S
C894 O878 1.249 . S
C894 C888 1.516 . S
C895 O879 1.254 . S
C895 O880 1.257 . S
C896 O881 1.266 . S
C896 O882 1.236 . S
C897 C900 1.344 . S
C897 C901 1.328 . S
C897 C903 1.516 . S
C898 C899 1.304 . S
C898 C902 1.323 . S
C899 C898 1.304 . S
C899 C900 1.371 . S
C899 H908 0.930 . S
C900 C897 1.344 . S
C900 C899 1.371 . S
C900 H909 0.931 . S
C901 C897 1.328 . S
C901 C902 1.433 . S
C901 H910 0.931 . S
C902 C898 1.323 . S
C902 C901 1.433 . S
C902 H911 0.933 . S
C903 Dy873 2.738 . S
C903 O883 1.255 . S
C903 O884 1.249 . S
C903 C897 1.516 . S
H904 C890 0.930 . S
H905 C891 0.931 . S
H906 C892 0.931 . S
H907 C893 0.933 . S
H908 C899 0.930 . S
H909 C900 0.931 . S
H910 C901 0.931 . S
H911 C902 0.933 . S
Dy912 O915 2.307 . S
Dy912 O917 2.395 1_455 S
Dy912 O918 2.379 1_455 S
Dy912 O920 2.339 . S
Dy912 O922 2.298 . S
Dy912 O926 2.275 . S
Dy912 C934 2.738 1_455 S
Dy913 O916 2.298 . S
Dy913 O919 2.275 . S
Dy913 O921 2.307 . S
Dy913 O923 2.395 . S
Dy913 O924 2.379 1_554 S
Dy913 O927 2.339 1_554 S
Dy913 C943 2.738 . S
C914 O926 1.254 1_556 S
C914 O927 1.257 . S
O915 Dy912 2.307 . S
O915 C925 1.266 . S
O916 Dy913 2.298 . S
O916 C925 1.236 . S
O917 Dy912 2.395 1_655 S
O917 C934 1.255 . S
O918 Dy912 2.379 1_655 S
O918 C934 1.249 . S
O919 Dy913 2.275 . S
O919 C935 1.254 . S
O920 Dy912 2.339 . S
O920 C935 1.257 . S
O921 Dy913 2.307 . S
O921 C936 1.266 . S
O922 Dy912 2.298 . S
O922 C936 1.236 . S
O923 Dy913 2.395 . S
O923 C943 1.255 . S
O924 Dy913 2.379 1_556 S
O924 C943 1.249 1_556 S
C925 O915 1.266 . S
C925 O916 1.236 . S
O926 Dy912 2.275 . S
O926 C914 1.254 1_554 S
O927 Dy913 2.339 1_556 S
O927 C914 1.257 . S
C928 C931 1.344 . S
C928 C932 1.328 . S
C928 C934 1.516 . S
C929 C930 1.304 . S
C929 C933 1.323 . S
C930 C929 1.304 . S
C930 C931 1.371 . S
C930 H944 0.930 . S
C931 C928 1.344 . S
C931 C930 1.371 . S
C931 H945 0.931 . S
C932 C928 1.328 . S
C932 C933 1.433 . S
C932 H946 0.931 . S
C933 C929 1.323 . S
C933 C932 1.433 . S
C933 H947 0.933 . S
C934 Dy912 2.738 1_655 S
C934 O917 1.255 . S
C934 O918 1.249 . S
C934 C928 1.516 . S
C935 O919 1.254 . S
C935 O920 1.257 . S
C936 O921 1.266 . S
C936 O922 1.236 . S
C937 C940 1.344 . S
C937 C941 1.328 1_554 S
C937 C943 1.516 . S
C938 C939 1.304 1_556 S
C938 C942 1.323 . S
C939 C938 1.304 1_554 S
C939 C940 1.371 . S
C939 H948 0.930 . S
C940 C937 1.344 . S
C940 C939 1.371 . S
C940 H949 0.931 . S
C941 C937 1.328 1_556 S
C941 C942 1.433 . S
C941 H950 0.931 . S
C942 C938 1.323 . S
C942 C941 1.433 . S
C942 H951 0.933 . S
C943 Dy913 2.738 . S
C943 O923 1.255 . S
C943 O924 1.249 1_554 S
C943 C937 1.516 . S
H944 C930 0.930 . S
H945 C931 0.931 . S
H946 C932 0.931 . S
H947 C933 0.933 . S
H948 C939 0.930 . S
H949 C940 0.931 . S
H950 C941 0.931 . S
H951 C942 0.933 . S
C952 C953 1.363 1_655 S
C952 C958 1.379 . S
C952 N960 1.356 . S
C953 C952 1.363 1_455 S
C953 C959 1.363 . S
C954 C955 1.363 . S
C954 C959 1.379 . S
C954 N961 1.356 . S
C955 C954 1.363 . S
C955 C958 1.363 1_455 S
N956 C958 1.356 . S
N956 H968 0.984 . S
N956 H969 0.985 . S
N957 C959 1.356 . S
N957 H962 0.984 . S
N957 H963 0.985 . S
C958 C952 1.379 . S
C958 C955 1.363 1_655 S
C958 N956 1.356 . S
C959 C953 1.363 . S
C959 C954 1.379 . S
C959 N957 1.356 . S
N960 C952 1.356 . S
N960 H966 0.984 1_554 S
N960 H967 0.984 . S
N961 C954 1.356 . S
N961 H964 0.984 . S
N961 H965 0.985 . S
H962 N957 0.984 . S
H963 N957 0.985 . S
H964 N961 0.984 . S
H965 N961 0.985 . S
H966 N960 0.984 1_556 S
H967 N960 0.984 . S
H968 N956 0.984 . S
H969 N956 0.985 . S
C970 C971 1.363 . S
C970 C976 1.379 . S
C970 N978 1.356 . S
C971 C970 1.363 . S
C971 C977 1.363 . S
C972 C973 1.363 . S
C972 C977 1.379 . S
C972 N979 1.356 . S
C973 C972 1.363 . S
C973 C976 1.363 . S
N974 C976 1.356 . S
N974 H986 0.984 . S
N974 H987 0.985 . S
N975 C977 1.356 . S
N975 H980 0.984 . S
N975 H981 0.985 . S
C976 C970 1.379 . S
C976 C973 1.363 . S
C976 N974 1.356 . S
C977 C971 1.363 . S
C977 C972 1.379 . S
C977 N975 1.356 . S
N978 C970 1.356 . S
N978 H984 0.984 . S
N978 H985 0.984 . S
N979 C972 1.356 . S
N979 H982 0.984 . S
N979 H983 0.985 . S
H980 N975 0.984 . S
H981 N975 0.985 . S
H982 N979 0.984 . S
H983 N979 0.985 . S
H984 N978 0.984 . S
H985 N978 0.984 . S
H986 N974 0.984 . S
H987 N974 0.985 . S
C988 C989 1.363 . S
C988 C994 1.379 . S
C988 N996 1.356 . S
C989 C988 1.363 . S
C989 C995 1.363 . S
C990 C991 1.363 . S
C990 C995 1.379 . S
C990 N997 1.356 . S
C991 C990 1.363 . S
C991 C994 1.363 . S
N992 C994 1.356 . S
N992 H1004 0.984 . S
N992 H1005 0.985 . S
N993 C995 1.356 . S
N993 H998 0.984 . S
N993 H999 0.985 . S
C994 C988 1.379 . S
C994 C991 1.363 . S
C994 N992 1.356 . S
C995 C989 1.363 . S
C995 C990 1.379 . S
C995 N993 1.356 . S
N996 C988 1.356 . S
N996 H1002 0.984 . S
N996 H1003 0.984 . S
N997 C990 1.356 . S
N997 H1000 0.984 . S
N997 H1001 0.985 . S
H998 N993 0.984 . S
H999 N993 0.985 . S
H1000 N997 0.984 . S
H1001 N997 0.985 . S
H1002 N996 0.984 . S
H1003 N996 0.984 . S
H1004 N992 0.984 . S
H1005 N992 0.985 . S
C1006 C1007 1.363 . S
C1006 C1012 1.379 . S
C1006 N1014 1.356 . S
C1007 C1006 1.363 . S
C1007 C1013 1.363 . S
C1008 C1009 1.363 . S
C1008 C1013 1.379 . S
C1008 N1015 1.356 . S
C1009 C1008 1.363 . S
C1009 C1012 1.363 . S
N1010 C1012 1.356 . S
N1010 H1022 0.984 . S
N1010 H1023 0.985 . S
N1011 C1013 1.356 . S
N1011 H1016 0.984 . S
N1011 H1017 0.985 . S
C1012 C1006 1.379 . S
C1012 C1009 1.363 . S
C1012 N1010 1.356 . S
C1013 C1007 1.363 . S
C1013 C1008 1.379 . S
C1013 N1011 1.356 . S
N1014 C1006 1.356 . S
N1014 H1020 0.984 . S
N1014 H1021 0.984 . S
N1015 C1008 1.356 . S
N1015 H1018 0.984 . S
N1015 H1019 0.985 . S
H1016 N1011 0.984 . S
H1017 N1011 0.985 . S
H1018 N1015 0.984 . S
H1019 N1015 0.985 . S
H1020 N1014 0.984 . S
H1021 N1014 0.984 . S
H1022 N1010 0.984 . S
H1023 N1010 0.985 . S
C1024 C1025 1.363 . S
C1024 C1030 1.379 . S
C1024 N1032 1.356 . S
C1025 C1024 1.363 . S
C1025 C1031 1.363 . S
C1026 C1027 1.363 . S
C1026 C1031 1.379 . S
C1026 N1033 1.356 . S
C1027 C1026 1.363 . S
C1027 C1030 1.363 . S
N1028 C1030 1.356 . S
N1028 H1040 0.984 . S
N1028 H1041 0.985 . S
N1029 C1031 1.356 . S
N1029 H1034 0.984 . S
N1029 H1035 0.985 1_455 S
C1030 C1024 1.379 . S
C1030 C1027 1.363 . S
C1030 N1028 1.356 . S
C1031 C1025 1.363 . S
C1031 C1026 1.379 . S
C1031 N1029 1.356 . S
N1032 C1024 1.356 . S
N1032 H1038 0.984 . S
N1032 H1039 0.984 . S
N1033 C1026 1.356 . S
N1033 H1036 0.984 . S
N1033 H1037 0.985 . S
H1034 N1029 0.984 . S
H1035 N1029 0.985 1_655 S
H1036 N1033 0.984 . S
H1037 N1033 0.985 . S
H1038 N1032 0.984 . S
H1039 N1032 0.984 . S
H1040 N1028 0.984 . S
H1041 N1028 0.985 . S
C1042 C1043 1.363 . S
C1042 C1048 1.379 . S
C1042 N1050 1.356 . S
C1043 C1042 1.363 . S
C1043 C1049 1.363 . S
C1044 C1045 1.363 . S
C1044 C1049 1.379 . S
C1044 N1051 1.356 . S
C1045 C1044 1.363 . S
C1045 C1048 1.363 . S
N1046 C1048 1.356 . S
N1046 H1058 0.984 . S
N1046 H1059 0.985 . S
N1047 C1049 1.356 . S
N1047 H1052 0.984 . S
N1047 H1053 0.985 . S
C1048 C1042 1.379 . S
C1048 C1045 1.363 . S
C1048 N1046 1.356 . S
C1049 C1043 1.363 . S
C1049 C1044 1.379 . S
C1049 N1047 1.356 . S
N1050 C1042 1.356 . S
N1050 H1056 0.984 . S
N1050 H1057 0.984 . S
N1051 C1044 1.356 . S
N1051 H1054 0.984 . S
N1051 H1055 0.985 . S
H1052 N1047 0.984 . S
H1053 N1047 0.985 . S
H1054 N1051 0.984 . S
H1055 N1051 0.985 . S
H1056 N1050 0.984 . S
H1057 N1050 0.984 . S
H1058 N1046 0.984 . S
H1059 N1046 0.985 . S
C1060 C1061 1.363 . S
C1060 C1066 1.379 . S
C1060 N1068 1.356 . S
C1061 C1060 1.363 . S
C1061 C1067 1.363 . S
C1062 C1063 1.363 . S
C1062 C1067 1.379 . S
C1062 N1069 1.356 . S
C1063 C1062 1.363 . S
C1063 C1066 1.363 . S
N1064 C1066 1.356 . S
N1064 H1076 0.984 . S
N1064 H1077 0.985 . S
N1065 C1067 1.356 . S
N1065 H1070 0.984 . S
N1065 H1071 0.985 . S
C1066 C1060 1.379 . S
C1066 C1063 1.363 . S
C1066 N1064 1.356 . S
C1067 C1061 1.363 . S
C1067 C1062 1.379 . S
C1067 N1065 1.356 . S
N1068 C1060 1.356 . S
N1068 H1074 0.984 . S
N1068 H1075 0.984 . S
N1069 C1062 1.356 . S
N1069 H1072 0.984 . S
N1069 H1073 0.985 . S
H1070 N1065 0.984 . S
H1071 N1065 0.985 . S
H1072 N1069 0.984 . S
H1073 N1069 0.985 . S
H1074 N1068 0.984 . S
H1075 N1068 0.984 . S
H1076 N1064 0.984 . S
H1077 N1064 0.985 . S
C1078 C1079 1.363 . S
C1078 C1084 1.379 . S
C1078 N1086 1.356 . S
C1079 C1078 1.363 . S
C1079 C1085 1.363 . S
C1080 C1081 1.363 . S
C1080 C1085 1.379 . S
C1080 N1087 1.356 . S
C1081 C1080 1.363 . S
C1081 C1084 1.363 . S
N1082 C1084 1.356 . S
N1082 H1094 0.984 . S
N1082 H1095 0.985 . S
N1083 C1085 1.356 . S
N1083 H1088 0.984 . S
N1083 H1089 0.985 . S
C1084 C1078 1.379 . S
C1084 C1081 1.363 . S
C1084 N1082 1.356 . S
C1085 C1079 1.363 . S
C1085 C1080 1.379 . S
C1085 N1083 1.356 . S
N1086 C1078 1.356 . S
N1086 H1092 0.984 . S
N1086 H1093 0.984 . S
N1087 C1080 1.356 . S
N1087 H1090 0.984 . S
N1087 H1091 0.985 . S
H1088 N1083 0.984 . S
H1089 N1083 0.985 . S
H1090 N1087 0.984 . S
H1091 N1087 0.985 . S
H1092 N1086 0.984 . S
H1093 N1086 0.984 . S
H1094 N1082 0.984 . S
H1095 N1082 0.985 . S
C1096 C1097 1.329 1_455 S
C1096 C1102 1.379 . S
C1096 N1104 1.356 . S
C1097 C1096 1.329 1_655 S
C1097 C1103 1.382 . S
C1098 C1099 1.361 1_655 S
C1098 C1103 1.379 . S
C1098 N1105 1.357 . S
C1099 C1098 1.361 1_455 S
C1099 C1102 1.363 . S
N1100 C1102 1.356 . S
N1100 H1112 0.984 . S
N1100 H1113 0.985 . S
N1101 C1103 1.356 . S
N1101 H1106 0.984 . S
N1101 H1107 0.985 . S
C1102 C1096 1.379 . S
C1102 C1099 1.363 . S
C1102 N1100 1.356 . S
C1103 C1097 1.382 . S
C1103 C1098 1.379 . S
C1103 N1101 1.356 . S
N1104 C1096 1.356 . S
N1104 H1110 0.968 1_545 S
N1104 H1111 0.984 . S
N1105 C1098 1.357 . S
N1105 H1108 0.984 1_655 S
N1105 H1109 0.985 . S
H1106 N1101 0.984 . S
H1107 N1101 0.985 . S
H1108 N1105 0.984 1_455 S
H1109 N1105 0.985 . S
H1110 N1104 0.968 1_565 S
H1111 N1104 0.984 . S
H1112 N1100 0.984 . S
H1113 N1100 0.985 . S
C1114 C1115 1.363 . S
C1114 C1120 1.379 . S
C1114 N1122 1.356 . S
C1115 C1114 1.363 . S
C1115 C1121 1.363 . S
C1116 C1117 1.363 . S
C1116 C1121 1.379 . S
C1116 N1123 1.356 . S
C1117 C1116 1.363 . S
C1117 C1120 1.363 . S
N1118 C1120 1.356 . S
N1118 H1130 0.984 . S
N1118 H1131 0.985 . S
N1119 C1121 1.356 . S
N1119 H1124 0.984 . S
N1119 H1125 0.985 . S
C1120 C1114 1.379 . S
C1120 C1117 1.363 . S
C1120 N1118 1.356 . S
C1121 C1115 1.363 . S
C1121 C1116 1.379 . S
C1121 N1119 1.356 . S
N1122 C1114 1.356 . S
N1122 H1128 0.984 . S
N1122 H1129 0.984 . S
N1123 C1116 1.356 . S
N1123 H1126 0.984 . S
N1123 H1127 0.985 . S
H1124 N1119 0.984 . S
H1125 N1119 0.985 . S
H1126 N1123 0.984 . S
H1127 N1123 0.985 . S
H1128 N1122 0.984 . S
H1129 N1122 0.984 . S
H1130 N1118 0.984 . S
H1131 N1118 0.985 . S
C1132 C1133 1.363 . S
C1132 C1138 1.379 . S
C1132 N1140 1.356 . S
C1133 C1132 1.363 . S
C1133 C1139 1.363 . S
C1134 C1135 1.363 . S
C1134 C1139 1.379 . S
C1134 N1141 1.356 . S
C1135 C1134 1.363 . S
C1135 C1138 1.363 . S
N1136 C1138 1.356 . S
N1136 H1148 0.984 . S
N1136 H1149 0.985 . S
N1137 C1139 1.356 . S
N1137 H1142 0.984 . S
N1137 H1143 0.985 . S
C1138 C1132 1.379 . S
C1138 C1135 1.363 . S
C1138 N1136 1.356 . S
C1139 C1133 1.363 . S
C1139 C1134 1.379 . S
C1139 N1137 1.356 . S
N1140 C1132 1.356 . S
N1140 H1146 0.984 . S
N1140 H1147 0.984 . S
N1141 C1134 1.356 . S
N1141 H1144 0.984 . S
N1141 H1145 0.985 . S
H1142 N1137 0.984 . S
H1143 N1137 0.985 . S
H1144 N1141 0.984 . S
H1145 N1141 0.985 . S
H1146 N1140 0.984 . S
H1147 N1140 0.984 . S
H1148 N1136 0.984 . S
H1149 N1136 0.985 . S
C1150 C1151 1.363 . S
C1150 C1156 1.379 . S
C1150 N1158 1.356 . S
C1151 C1150 1.363 . S
C1151 C1157 1.363 . S
C1152 C1153 1.363 . S
C1152 C1157 1.379 . S
C1152 N1159 1.356 . S
C1153 C1152 1.363 . S
C1153 C1156 1.363 . S
N1154 C1156 1.356 . S
N1154 H1166 0.984 . S
N1154 H1167 0.985 . S
N1155 C1157 1.356 . S
N1155 H1160 0.984 . S
N1155 H1161 0.985 . S
C1156 C1150 1.379 . S
C1156 C1153 1.363 . S
C1156 N1154 1.356 . S
C1157 C1151 1.363 . S
C1157 C1152 1.379 . S
C1157 N1155 1.356 . S
N1158 C1150 1.356 . S
N1158 H1164 0.984 . S
N1158 H1165 0.984 . S
N1159 C1152 1.356 . S
N1159 H1162 0.984 . S
N1159 H1163 0.985 . S
H1160 N1155 0.984 . S
H1161 N1155 0.985 . S
H1162 N1159 0.984 . S
H1163 N1159 0.985 . S
H1164 N1158 0.984 . S
H1165 N1158 0.984 . S
H1166 N1154 0.984 . S
H1167 N1154 0.985 . S
C1168 C1169 1.363 . S
C1168 C1174 1.379 . S
C1168 N1176 1.356 . S
C1169 C1168 1.363 . S
C1169 C1175 1.363 1_455 S
C1170 C1171 1.363 1_655 S
C1170 C1175 1.379 . S
C1170 N1177 1.356 . S
C1171 C1170 1.363 1_455 S
C1171 C1174 1.363 . S
N1172 C1174 1.356 . S
N1172 H1184 0.984 . S
N1172 H1185 0.985 . S
N1173 C1175 1.356 . S
N1173 H1178 0.984 . S
N1173 H1179 0.985 1_545 S
C1174 C1168 1.379 . S
C1174 C1171 1.363 . S
C1174 N1172 1.356 . S
C1175 C1169 1.363 1_655 S
C1175 C1170 1.379 . S
C1175 N1173 1.356 . S
N1176 C1168 1.356 . S
N1176 H1182 0.984 . S
N1176 H1183 0.984 . S
N1177 C1170 1.356 . S
N1177 H1180 0.983 1_655 S
N1177 H1181 0.985 1_545 S
H1178 N1173 0.984 . S
H1179 N1173 0.985 1_565 S
H1180 N1177 0.983 1_455 S
H1181 N1177 0.985 1_565 S
H1182 N1176 0.984 . S
H1183 N1176 0.984 . S
H1184 N1172 0.984 . S
H1185 N1172 0.985 . S
C1186 C1187 1.363 . S
C1186 C1192 1.379 . S
C1186 N1194 1.356 . S
C1187 C1186 1.363 . S
C1187 C1193 1.363 . S
C1188 C1189 1.363 . S
C1188 C1193 1.379 . S
C1188 N1195 1.356 . S
C1189 C1188 1.363 . S
C1189 C1192 1.363 . S
N1190 C1192 1.356 . S
N1190 H1202 0.984 . S
N1190 H1203 0.985 . S
N1191 C1193 1.356 . S
N1191 H1196 0.984 . S
N1191 H1197 0.985 . S
C1192 C1186 1.379 . S
C1192 C1189 1.363 . S
C1192 N1190 1.356 . S
C1193 C1187 1.363 . S
C1193 C1188 1.379 . S
C1193 N1191 1.356 . S
N1194 C1186 1.356 . S
N1194 H1200 0.984 . S
N1194 H1201 0.984 . S
N1195 C1188 1.356 . S
N1195 H1198 0.984 . S
N1195 H1199 0.985 . S
H1196 N1191 0.984 . S
H1197 N1191 0.985 . S
H1198 N1195 0.984 . S
H1199 N1195 0.985 . S
H1200 N1194 0.984 . S
H1201 N1194 0.984 . S
H1202 N1190 0.984 . S
H1203 N1190 0.985 . S
C1204 C1205 1.363 . S
C1204 C1210 1.379 . S
C1204 N1212 1.356 . S
C1205 C1204 1.363 . S
C1205 C1211 1.363 . S
C1206 C1207 1.363 . S
C1206 C1211 1.379 . S
C1206 N1213 1.356 . S
C1207 C1206 1.363 . S
C1207 C1210 1.363 . S
N1208 C1210 1.356 . S
N1208 H1220 0.984 . S
N1208 H1221 0.985 . S
N1209 C1211 1.356 . S
N1209 H1214 0.984 . S
N1209 H1215 0.985 . S
C1210 C1204 1.379 . S
C1210 C1207 1.363 . S
C1210 N1208 1.356 . S
C1211 C1205 1.363 . S
C1211 C1206 1.379 . S
C1211 N1209 1.356 . S
N1212 C1204 1.356 . S
N1212 H1218 0.984 . S
N1212 H1219 0.984 . S
N1213 C1206 1.356 . S
N1213 H1216 0.984 . S
N1213 H1217 0.985 . S
H1214 N1209 0.984 . S
H1215 N1209 0.985 . S
H1216 N1213 0.984 . S
H1217 N1213 0.985 . S
H1218 N1212 0.984 . S
H1219 N1212 0.984 . S
H1220 N1208 0.984 . S
H1221 N1208 0.985 . S
C1222 C1223 1.363 . S
C1222 C1228 1.379 . S
C1222 N1230 1.356 . S
C1223 C1222 1.363 . S
C1223 C1229 1.363 . S
C1224 C1225 1.363 . S
C1224 C1229 1.379 . S
C1224 N1231 1.356 . S
C1225 C1224 1.363 . S
C1225 C1228 1.363 . S
N1226 C1228 1.356 . S
N1226 H1238 0.984 . S
N1226 H1239 0.985 . S
N1227 C1229 1.356 . S
N1227 H1232 0.984 . S
N1227 H1233 0.985 . S
C1228 C1222 1.379 . S
C1228 C1225 1.363 . S
C1228 N1226 1.356 . S
C1229 C1223 1.363 . S
C1229 C1224 1.379 . S
C1229 N1227 1.356 . S
N1230 C1222 1.356 . S
N1230 H1236 0.984 . S
N1230 H1237 0.984 . S
N1231 C1224 1.356 . S
N1231 H1234 0.984 . S
N1231 H1235 0.985 . S
H1232 N1227 0.984 . S
H1233 N1227 0.985 . S
H1234 N1231 0.984 . S
H1235 N1231 0.985 . S
H1236 N1230 0.984 . S
H1237 N1230 0.984 . S
H1238 N1226 0.984 . S
H1239 N1226 0.985 . S
C1240 C1241 1.363 . S
C1240 C1246 1.379 1_565 S
C1240 N1248 1.356 1_554 S
C1241 C1240 1.363 . S
C1241 C1247 1.363 . S
C1242 C1243 1.363 . S
C1242 C1247 1.373 1_545 S
C1242 N1249 1.356 . S
C1243 C1242 1.363 . S
C1243 C1246 1.363 . S
N1244 C1246 1.356 . S
N1244 H1256 0.984 . S
N1244 H1257 0.985 . S
N1245 C1247 1.363 . S
N1245 H1250 0.984 . S
N1245 H1251 0.985 . S
C1246 C1240 1.379 1_545 S
C1246 C1243 1.363 . S
C1246 N1244 1.356 . S
C1247 C1241 1.363 . S
C1247 C1242 1.373 1_565 S
C1247 N1245 1.363 . S
N1248 C1240 1.356 1_556 S
N1248 H1254 0.984 . S
N1248 H1255 0.984 . S
N1249 C1242 1.356 . S
N1249 H1252 0.984 . S
N1249 H1253 0.985 . S
H1250 N1245 0.984 . S
H1251 N1245 0.985 . S
H1252 N1249 0.984 . S
H1253 N1249 0.985 . S
H1254 N1248 0.984 . S
H1255 N1248 0.984 . S
H1256 N1244 0.984 . S
H1257 N1244 0.985 . S
C1258 C1259 1.363 . S
C1258 C1264 1.379 . S
C1258 N1266 1.356 1_554 S
C1259 C1258 1.363 . S
C1259 C1265 1.363 . S
C1260 C1261 1.363 . S
C1260 C1265 1.379 . S
C1260 N1267 1.356 . S
C1261 C1260 1.363 . S
C1261 C1264 1.363 . S
N1262 C1264 1.356 . S
N1262 H1274 0.984 1_554 S
N1262 H1275 0.985 . S
N1263 C1265 1.356 . S
N1263 H1268 0.984 . S
N1263 H1269 0.985 . S
C1264 C1258 1.379 . S
C1264 C1261 1.363 . S
C1264 N1262 1.356 . S
C1265 C1259 1.363 . S
C1265 C1260 1.379 . S
C1265 N1263 1.356 . S
N1266 C1258 1.356 1_556 S
N1266 H1272 0.984 . S
N1266 H1273 0.987 1_556 S
N1267 C1260 1.356 . S
N1267 H1270 0.984 . S
N1267 H1271 0.985 . S
H1268 N1263 0.984 . S
H1269 N1263 0.985 . S
H1270 N1267 0.984 . S
H1271 N1267 0.985 . S
H1272 N1266 0.984 . S
H1273 N1266 0.987 1_554 S
H1274 N1262 0.984 1_556 S
H1275 N1262 0.985 . S
C1276 C1277 1.363 . S
C1276 C1282 1.379 . S
C1276 N1284 1.356 . S
C1277 C1276 1.363 . S
C1277 C1283 1.363 . S
C1278 C1279 1.363 . S
C1278 C1283 1.379 . S
C1278 N1285 1.356 . S
C1279 C1278 1.363 . S
C1279 C1282 1.363 . S
N1280 C1282 1.356 . S
N1280 H1292 0.984 . S
N1280 H1293 0.985 . S
N1281 C1283 1.356 . S
N1281 H1286 0.984 . S
N1281 H1287 0.985 . S
C1282 C1276 1.379 . S
C1282 C1279 1.363 . S
C1282 N1280 1.356 . S
C1283 C1277 1.363 . S
C1283 C1278 1.379 . S
C1283 N1281 1.356 . S
N1284 C1276 1.356 . S
N1284 H1290 0.984 . S
N1284 H1291 0.984 . S
N1285 C1278 1.356 . S
N1285 H1288 0.984 . S
N1285 H1289 0.985 . S
H1286 N1281 0.984 . S
H1287 N1281 0.985 . S
H1288 N1285 0.984 . S
H1289 N1285 0.985 . S
H1290 N1284 0.984 . S
H1291 N1284 0.984 . S
H1292 N1280 0.984 . S
H1293 N1280 0.985 . S
C1294 C1295 1.363 . S
C1294 C1300 1.379 . S
C1294 N1302 1.356 . S
C1295 C1294 1.363 . S
C1295 C1301 1.363 . S
C1296 C1297 1.363 . S
C1296 C1301 1.379 . S
C1296 N1303 1.356 . S
C1297 C1296 1.363 . S
C1297 C1300 1.363 . S
N1298 C1300 1.356 . S
N1298 H1310 0.984 . S
N1298 H1311 0.985 . S
N1299 C1301 1.356 . S
N1299 H1304 0.984 . S
N1299 H1305 0.985 . S
C1300 C1294 1.379 . S
C1300 C1297 1.363 . S
C1300 N1298 1.356 . S
C1301 C1295 1.363 . S
C1301 C1296 1.379 . S
C1301 N1299 1.356 . S
N1302 C1294 1.356 . S
N1302 H1308 0.984 . S
N1302 H1309 0.984 . S
N1303 C1296 1.356 . S
N1303 H1306 0.984 . S
N1303 H1307 0.985 . S
H1304 N1299 0.984 . S
H1305 N1299 0.985 . S
H1306 N1303 0.984 . S
H1307 N1303 0.985 . S
H1308 N1302 0.984 . S
H1309 N1302 0.984 . S
H1310 N1298 0.984 . S
H1311 N1298 0.985 . S
C1312 C1313 1.363 . S
C1312 C1318 1.379 . S
C1312 N1320 1.356 . S
C1313 C1312 1.363 . S
C1313 C1319 1.363 . S
C1314 C1315 1.363 . S
C1314 C1319 1.379 . S
C1314 N1321 1.356 . S
C1315 C1314 1.363 . S
C1315 C1318 1.363 . S
N1316 C1318 1.356 . S
N1316 H1328 0.984 . S
N1316 H1329 0.985 . S
N1317 C1319 1.356 . S
N1317 H1322 0.984 . S
N1317 H1323 0.985 . S
C1318 C1312 1.379 . S
C1318 C1315 1.363 . S
C1318 N1316 1.356 . S
C1319 C1313 1.363 . S
C1319 C1314 1.379 . S
C1319 N1317 1.356 . S
N1320 C1312 1.356 . S
N1320 H1326 0.984 . S
N1320 H1327 0.984 . S
N1321 C1314 1.356 . S
N1321 H1324 0.984 . S
N1321 H1325 0.985 . S
H1322 N1317 0.984 . S
H1323 N1317 0.985 . S
H1324 N1321 0.984 . S
H1325 N1321 0.985 . S
H1326 N1320 0.984 . S
H1327 N1320 0.984 . S
H1328 N1316 0.984 . S
H1329 N1316 0.985 . S
C1330 C1331 1.363 . S
C1330 C1336 1.379 . S
C1330 N1338 1.356 . S
C1331 C1330 1.363 . S
C1331 C1337 1.363 . S
C1332 C1333 1.363 . S
C1332 C1337 1.379 . S
C1332 N1339 1.356 . S
C1333 C1332 1.363 . S
C1333 C1336 1.363 . S
N1334 C1336 1.356 . S
N1334 H1346 0.984 . S
N1334 H1347 0.985 . S
N1335 C1337 1.356 . S
N1335 H1340 0.984 . S
N1335 H1341 0.985 . S
C1336 C1330 1.379 . S
C1336 C1333 1.363 . S
C1336 N1334 1.356 . S
C1337 C1331 1.363 . S
C1337 C1332 1.379 . S
C1337 N1335 1.356 . S
N1338 C1330 1.356 . S
N1338 H1344 0.984 . S
N1338 H1345 0.984 . S
N1339 C1332 1.356 . S
N1339 H1342 0.984 . S
N1339 H1343 0.985 . S
H1340 N1335 0.984 . S
H1341 N1335 0.985 . S
H1342 N1339 0.984 . S
H1343 N1339 0.985 . S
H1344 N1338 0.984 . S
H1345 N1338 0.984 . S
H1346 N1334 0.984 . S
H1347 N1334 0.985 . S
C1348 C1349 1.363 . S
C1348 C1354 1.379 . S
C1348 N1356 1.356 . S
C1349 C1348 1.363 . S
C1349 C1355 1.363 . S
C1350 C1351 1.363 . S
C1350 C1355 1.379 . S
C1350 N1357 1.356 . S
C1351 C1350 1.363 . S
C1351 C1354 1.363 . S
N1352 C1354 1.356 . S
N1352 H1364 0.984 . S
N1352 H1365 0.985 . S
N1353 C1355 1.356 . S
N1353 H1358 0.984 . S
N1353 H1359 0.985 . S
C1354 C1348 1.379 . S
C1354 C1351 1.363 . S
C1354 N1352 1.356 . S
C1355 C1349 1.363 . S
C1355 C1350 1.379 . S
C1355 N1353 1.356 . S
N1356 C1348 1.356 . S
N1356 H1362 0.984 . S
N1356 H1363 0.984 . S
N1357 C1350 1.356 . S
N1357 H1360 0.984 . S
N1357 H1361 0.985 . S
H1358 N1353 0.984 . S
H1359 N1353 0.985 . S
H1360 N1357 0.984 . S
H1361 N1357 0.985 . S
H1362 N1356 0.984 . S
H1363 N1356 0.984 . S
H1364 N1352 0.984 . S
H1365 N1352 0.985 . S
C1366 C1367 1.363 . S
C1366 C1372 1.379 . S
C1366 N1374 1.356 . S
C1367 C1366 1.363 . S
C1367 C1373 1.363 . S
C1368 C1369 1.363 . S
C1368 C1373 1.379 . S
C1368 N1375 1.356 . S
C1369 C1368 1.363 . S
C1369 C1372 1.363 . S
N1370 C1372 1.356 . S
N1370 H1382 0.984 . S
N1370 H1383 0.985 . S
N1371 C1373 1.356 . S
N1371 H1376 0.984 . S
N1371 H1377 0.985 . S
C1372 C1366 1.379 . S
C1372 C1369 1.363 . S
C1372 N1370 1.356 . S
C1373 C1367 1.363 . S
C1373 C1368 1.379 . S
C1373 N1371 1.356 . S
N1374 C1366 1.356 . S
N1374 H1380 0.984 . S
N1374 H1381 0.984 . S
N1375 C1368 1.356 . S
N1375 H1378 0.984 . S
N1375 H1379 0.985 . S
H1376 N1371 0.984 . S
H1377 N1371 0.985 . S
H1378 N1375 0.984 . S
H1379 N1375 0.985 . S
H1380 N1374 0.984 . S
H1381 N1374 0.984 . S
H1382 N1370 0.984 . S
H1383 N1370 0.985 . S
C1384 C1385 1.363 . S
C1384 C1390 1.379 . S
C1384 N1392 1.356 . S
C1385 C1384 1.363 . S
C1385 C1391 1.363 . S
C1386 C1387 1.363 . S
C1386 C1391 1.379 . S
C1386 N1393 1.356 . S
C1387 C1386 1.363 . S
C1387 C1390 1.363 . S
N1388 C1390 1.356 . S
N1388 H1400 0.984 1_554 S
N1388 H1401 0.985 . S
N1389 C1391 1.356 . S
N1389 H1394 0.984 . S
N1389 H1395 0.985 . S
C1390 C1384 1.379 . S
C1390 C1387 1.363 . S
C1390 N1388 1.356 . S
C1391 C1385 1.363 . S
C1391 C1386 1.379 . S
C1391 N1389 1.356 . S
N1392 C1384 1.356 . S
N1392 H1398 0.970 1_554 S
N1392 H1399 0.984 . S
N1393 C1386 1.356 . S
N1393 H1396 0.984 . S
N1393 H1397 0.985 . S
H1394 N1389 0.984 . S
H1395 N1389 0.985 . S
H1396 N1393 0.984 . S
H1397 N1393 0.985 . S
H1398 N1392 0.970 1_556 S
H1399 N1392 0.984 . S
H1400 N1388 0.984 1_556 S
H1401 N1388 0.985 . S
C1402 C1403 1.363 . S
C1402 C1408 1.379 . S
C1402 N1410 1.356 . S
C1403 C1402 1.363 . S
C1403 C1409 1.363 . S
C1404 C1405 1.363 . S
C1404 C1409 1.379 . S
C1404 N1411 1.356 . S
C1405 C1404 1.363 . S
C1405 C1408 1.363 . S
N1406 C1408 1.356 . S
N1406 H1418 0.984 . S
N1406 H1419 0.985 . S
N1407 C1409 1.356 . S
N1407 H1412 0.984 . S
N1407 H1413 0.985 . S
C1408 C1402 1.379 . S
C1408 C1405 1.363 . S
C1408 N1406 1.356 . S
C1409 C1403 1.363 . S
C1409 C1404 1.379 . S
C1409 N1407 1.356 . S
N1410 C1402 1.356 . S
N1410 H1416 0.984 . S
N1410 H1417 0.984 . S
N1411 C1404 1.356 . S
N1411 H1414 0.984 . S
N1411 H1415 0.985 . S
H1412 N1407 0.984 . S
H1413 N1407 0.985 . S
H1414 N1411 0.984 . S
H1415 N1411 0.985 . S
H1416 N1410 0.984 . S
H1417 N1410 0.984 . S
H1418 N1406 0.984 . S
H1419 N1406 0.985 . S
C1420 C1421 1.363 . S
C1420 C1426 1.379 . S
C1420 N1428 1.356 . S
C1421 C1420 1.363 . S
C1421 C1427 1.363 . S
C1422 C1423 1.363 . S
C1422 C1427 1.379 . S
C1422 N1429 1.356 . S
C1423 C1422 1.363 . S
C1423 C1426 1.363 . S
N1424 C1426 1.356 . S
N1424 H1436 0.984 . S
N1424 H1437 0.985 . S
N1425 C1427 1.356 . S
N1425 H1430 0.984 . S
N1425 H1431 0.985 . S
C1426 C1420 1.379 . S
C1426 C1423 1.363 . S
C1426 N1424 1.356 . S
C1427 C1421 1.363 . S
C1427 C1422 1.379 . S
C1427 N1425 1.356 . S
N1428 C1420 1.356 . S
N1428 H1434 0.984 . S
N1428 H1435 0.984 . S
N1429 C1422 1.356 . S
N1429 H1432 0.984 . S
N1429 H1433 0.985 . S
H1430 N1425 0.984 . S
H1431 N1425 0.985 . S
H1432 N1429 0.984 . S
H1433 N1429 0.985 . S
H1434 N1428 0.984 . S
H1435 N1428 0.984 . S
H1436 N1424 0.984 . S
H1437 N1424 0.985 . S
C1438 C1439 1.363 . S
C1438 C1444 1.379 . S
C1438 N1446 1.356 . S
C1439 C1438 1.363 . S
C1439 C1445 1.363 . S
C1440 C1441 1.363 . S
C1440 C1445 1.379 . S
C1440 N1447 1.356 . S
C1441 C1440 1.363 . S
C1441 C1444 1.363 . S
N1442 C1444 1.356 . S
N1442 H1454 0.984 . S
N1442 H1455 0.985 . S
N1443 C1445 1.356 . S
N1443 H1448 0.984 . S
N1443 H1449 0.985 . S
C1444 C1438 1.379 . S
C1444 C1441 1.363 . S
C1444 N1442 1.356 . S
C1445 C1439 1.363 . S
C1445 C1440 1.379 . S
C1445 N1443 1.356 . S
N1446 C1438 1.356 . S
N1446 H1452 0.984 . S
N1446 H1453 0.984 . S
N1447 C1440 1.356 . S
N1447 H1450 0.984 . S
N1447 H1451 0.985 . S
H1448 N1443 0.984 . S
H1449 N1443 0.985 . S
H1450 N1447 0.984 . S
H1451 N1447 0.985 . S
H1452 N1446 0.984 . S
H1453 N1446 0.984 . S
H1454 N1442 0.984 . S
H1455 N1442 0.985 . S
C1456 C1457 1.363 . S
C1456 C1462 1.379 . S
C1456 N1464 1.356 . S
C1457 C1456 1.363 . S
C1457 C1463 1.374 . S
C1458 C1459 1.363 1_655 S
C1458 C1463 1.376 1_655 S
C1458 N1465 1.356 . S
C1459 C1458 1.363 1_455 S
C1459 C1462 1.363 . S
N1460 C1462 1.356 . S
N1460 H1472 0.984 . S
N1460 H1473 0.985 . S
N1461 C1463 1.351 1_655 S
N1461 H1466 0.984 1_655 S
N1461 H1467 0.985 . S
C1462 C1456 1.379 . S
C1462 C1459 1.363 . S
C1462 N1460 1.356 . S
C1463 C1457 1.374 . S
C1463 C1458 1.376 1_455 S
C1463 N1461 1.351 1_455 S
N1464 C1456 1.356 . S
N1464 H1470 0.984 . S
N1464 H1471 0.984 . S
N1465 C1458 1.356 . S
N1465 H1468 0.984 . S
N1465 H1469 0.985 . S
H1466 N1461 0.984 1_455 S
H1467 N1461 0.985 . S
H1468 N1465 0.984 . S
H1469 N1465 0.985 . S
H1470 N1464 0.984 . S
H1471 N1464 0.984 . S
H1472 N1460 0.984 . S
H1473 N1460 0.985 . S
C1474 C1475 1.363 . S
C1474 C1480 1.379 . S
C1474 N1482 1.356 . S
C1475 C1474 1.363 . S
C1475 C1481 1.363 . S
C1476 C1477 1.363 . S
C1476 C1481 1.379 . S
C1476 N1483 1.356 . S
C1477 C1476 1.363 . S
C1477 C1480 1.363 . S
N1478 C1480 1.356 . S
N1478 H1490 0.984 . S
N1478 H1491 0.985 . S
N1479 C1481 1.356 . S
N1479 H1484 0.984 . S
N1479 H1485 0.985 . S
C1480 C1474 1.379 . S
C1480 C1477 1.363 . S
C1480 N1478 1.356 . S
C1481 C1475 1.363 . S
C1481 C1476 1.379 . S
C1481 N1479 1.356 . S
N1482 C1474 1.356 . S
N1482 H1488 0.984 . S
N1482 H1489 0.984 . S
N1483 C1476 1.356 . S
N1483 H1486 0.984 . S
N1483 H1487 0.985 . S
H1484 N1479 0.984 . S
H1485 N1479 0.985 . S
H1486 N1483 0.984 . S
H1487 N1483 0.985 . S
H1488 N1482 0.984 . S
H1489 N1482 0.984 . S
H1490 N1478 0.984 . S
H1491 N1478 0.985 . S
C1492 C1493 1.363 . S
C1492 C1498 1.379 . S
C1492 N1500 1.356 . S
C1493 C1492 1.363 . S
C1493 C1499 1.363 . S
C1494 C1495 1.363 . S
C1494 C1499 1.379 . S
C1494 N1501 1.356 1_556 S
C1495 C1494 1.363 . S
C1495 C1498 1.363 . S
N1496 C1498 1.356 . S
N1496 H1508 0.984 . S
N1496 H1509 0.985 1_565 S
N1497 C1499 1.356 . S
N1497 H1502 0.984 . S
N1497 H1503 0.985 . S
C1498 C1492 1.379 . S
C1498 C1495 1.363 . S
C1498 N1496 1.356 . S
C1499 C1493 1.363 . S
C1499 C1494 1.379 . S
C1499 N1497 1.356 . S
N1500 C1492 1.356 . S
N1500 H1506 0.984 . S
N1500 H1507 0.984 . S
N1501 C1494 1.356 1_554 S
N1501 H1504 0.984 . S
N1501 H1505 0.985 . S
H1502 N1497 0.984 . S
H1503 N1497 0.985 . S
H1504 N1501 0.984 . S
H1505 N1501 0.985 . S
H1506 N1500 0.984 . S
H1507 N1500 0.984 . S
H1508 N1496 0.984 . S
H1509 N1496 0.985 1_545 S
C1510 C1511 1.363 . S
C1510 C1516 1.379 . S
C1510 N1518 1.356 . S
C1511 C1510 1.363 . S
C1511 C1517 1.363 . S
C1512 C1513 1.363 . S
C1512 C1517 1.379 . S
C1512 N1519 1.356 . S
C1513 C1512 1.363 . S
C1513 C1516 1.363 . S
N1514 C1516 1.356 . S
N1514 H1526 0.984 . S
N1514 H1527 0.985 . S
N1515 C1517 1.356 . S
N1515 H1520 0.984 . S
N1515 H1521 0.985 . S
C1516 C1510 1.379 . S
C1516 C1513 1.363 . S
C1516 N1514 1.356 . S
C1517 C1511 1.363 . S
C1517 C1512 1.379 . S
C1517 N1515 1.356 . S
N1518 C1510 1.356 . S
N1518 H1524 0.984 . S
N1518 H1525 0.984 . S
N1519 C1512 1.356 . S
N1519 H1522 0.984 . S
N1519 H1523 0.985 . S
H1520 N1515 0.984 . S
H1521 N1515 0.985 . S
H1522 N1519 0.984 . S
H1523 N1519 0.985 . S
H1524 N1518 0.984 . S
H1525 N1518 0.984 . S
H1526 N1514 0.984 . S
H1527 N1514 0.985 . S
C1528 C1529 1.363 . S
C1528 C1534 1.379 . S
C1528 N1536 1.356 . S
C1529 C1528 1.363 . S
C1529 C1535 1.363 . S
C1530 C1531 1.363 . S
C1530 C1535 1.379 . S
C1530 N1537 1.356 . S
C1531 C1530 1.363 . S
C1531 C1534 1.363 . S
N1532 C1534 1.356 . S
N1532 H1544 0.984 . S
N1532 H1545 0.985 . S
N1533 C1535 1.356 . S
N1533 H1538 0.984 . S
N1533 H1539 0.985 . S
C1534 C1528 1.379 . S
C1534 C1531 1.363 . S
C1534 N1532 1.356 . S
C1535 C1529 1.363 . S
C1535 C1530 1.379 . S
C1535 N1533 1.356 . S
N1536 C1528 1.356 . S
N1536 H1542 0.984 . S
N1536 H1543 0.984 . S
N1537 C1530 1.356 . S
N1537 H1540 0.984 . S
N1537 H1541 0.985 1_545 S
H1538 N1533 0.984 . S
H1539 N1533 0.985 . S
H1540 N1537 0.984 . S
H1541 N1537 0.985 1_565 S
H1542 N1536 0.984 . S
H1543 N1536 0.984 . S
H1544 N1532 0.984 . S
H1545 N1532 0.985 . S
C1546 C1547 1.363 . S
C1546 C1552 1.379 . S
C1546 N1554 1.356 . S
C1547 C1546 1.363 . S
C1547 C1553 1.363 . S
C1548 C1549 1.363 . S
C1548 C1553 1.379 . S
C1548 N1555 1.356 . S
C1549 C1548 1.363 . S
C1549 C1552 1.363 . S
N1550 C1552 1.356 . S
N1550 H1562 0.984 . S
N1550 H1563 0.985 . S
N1551 C1553 1.356 . S
N1551 H1556 0.984 . S
N1551 H1557 0.985 . S
C1552 C1546 1.379 . S
C1552 C1549 1.363 . S
C1552 N1550 1.356 . S
C1553 C1547 1.363 . S
C1553 C1548 1.379 . S
C1553 N1551 1.356 . S
N1554 C1546 1.356 . S
N1554 H1560 0.984 . S
N1554 H1561 0.984 . S
N1555 C1548 1.356 . S
N1555 H1558 0.984 . S
N1555 H1559 0.985 . S
H1556 N1551 0.984 . S
H1557 N1551 0.985 . S
H1558 N1555 0.984 . S
H1559 N1555 0.985 . S
H1560 N1554 0.984 . S
H1561 N1554 0.984 . S
H1562 N1550 0.984 . S
H1563 N1550 0.985 . S
C1564 C1565 1.363 . S
C1564 C1570 1.379 . S
C1564 N1572 1.359 . S
C1565 C1564 1.363 . S
C1565 C1571 1.363 . S
C1566 C1567 1.363 . S
C1566 C1571 1.379 . S
C1566 N1573 1.356 . S
C1567 C1566 1.363 . S
C1567 C1570 1.363 . S
N1568 C1570 1.356 . S
N1568 H1580 0.984 . S
N1568 H1581 0.985 . S
N1569 C1571 1.356 . S
N1569 H1574 0.984 . S
N1569 H1575 0.985 . S
C1570 C1564 1.379 . S
C1570 C1567 1.363 . S
C1570 N1568 1.356 . S
C1571 C1565 1.363 . S
C1571 C1566 1.379 . S
C1571 N1569 1.356 . S
N1572 C1564 1.359 . S
N1572 H1578 0.980 1_545 S
N1572 H1579 0.986 1_545 S
N1573 C1566 1.356 . S
N1573 H1576 0.984 . S
N1573 H1577 0.985 . S
H1574 N1569 0.984 . S
H1575 N1569 0.985 . S
H1576 N1573 0.984 . S
H1577 N1573 0.985 . S
H1578 N1572 0.980 1_565 S
H1579 N1572 0.986 1_565 S
H1580 N1568 0.984 . S
H1581 N1568 0.985 . S
C1582 C1583 1.363 . S
C1582 C1588 1.379 . S
C1582 N1590 1.356 . S
C1583 C1582 1.363 . S
C1583 C1589 1.363 . S
C1584 C1585 1.363 . S
C1584 C1589 1.379 . S
C1584 N1591 1.356 . S
C1585 C1584 1.363 . S
C1585 C1588 1.363 . S
N1586 C1588 1.356 . S
N1586 H1598 0.984 . S
N1586 H1599 0.985 . S
N1587 C1589 1.356 . S
N1587 H1592 0.984 . S
N1587 H1593 0.985 . S
C1588 C1582 1.379 . S
C1588 C1585 1.363 . S
C1588 N1586 1.356 . S
C1589 C1583 1.363 . S
C1589 C1584 1.379 . S
C1589 N1587 1.356 . S
N1590 C1582 1.356 . S
N1590 H1596 0.984 . S
N1590 H1597 0.984 . S
N1591 C1584 1.356 . S
N1591 H1594 0.984 . S
N1591 H1595 0.985 . S
H1592 N1587 0.984 . S
H1593 N1587 0.985 . S
H1594 N1591 0.984 . S
H1595 N1591 0.985 . S
H1596 N1590 0.984 . S
H1597 N1590 0.984 . S
H1598 N1586 0.984 . S
H1599 N1586 0.985 . S
C1600 C1601 1.363 . S
C1600 C1606 1.379 . S
C1600 N1608 1.356 . S
C1601 C1600 1.363 . S
C1601 C1607 1.363 . S
C1602 C1603 1.363 . S
C1602 C1607 1.379 . S
C1602 N1609 1.356 . S
C1603 C1602 1.363 . S
C1603 C1606 1.363 . S
N1604 C1606 1.356 . S
N1604 H1616 0.984 . S
N1604 H1617 0.985 . S
N1605 C1607 1.356 . S
N1605 H1610 0.984 . S
N1605 H1611 0.985 . S
C1606 C1600 1.379 . S
C1606 C1603 1.363 . S
C1606 N1604 1.356 . S
C1607 C1601 1.363 . S
C1607 C1602 1.379 . S
C1607 N1605 1.356 . S
N1608 C1600 1.356 . S
N1608 H1614 0.984 . S
N1608 H1615 0.984 . S
N1609 C1602 1.356 . S
N1609 H1612 0.984 . S
N1609 H1613 0.985 . S
H1610 N1605 0.984 . S
H1611 N1605 0.985 . S
H1612 N1609 0.984 . S
H1613 N1609 0.985 . S
H1614 N1608 0.984 . S
H1615 N1608 0.984 . S
H1616 N1604 0.984 . S
H1617 N1604 0.985 . S
C1618 C1619 1.363 . S
C1618 C1624 1.379 . S
C1618 N1626 1.356 . S
C1619 C1618 1.363 . S
C1619 C1625 1.363 . S
C1620 C1621 1.363 . S
C1620 C1625 1.379 . S
C1620 N1627 1.356 . S
C1621 C1620 1.363 . S
C1621 C1624 1.363 . S
N1622 C1624 1.356 . S
N1622 H1634 0.984 . S
N1622 H1635 0.985 . S
N1623 C1625 1.356 . S
N1623 H1628 0.984 . S
N1623 H1629 0.985 . S
C1624 C1618 1.379 . S
C1624 C1621 1.363 . S
C1624 N1622 1.356 . S
C1625 C1619 1.363 . S
C1625 C1620 1.379 . S
C1625 N1623 1.356 . S
N1626 C1618 1.356 . S
N1626 H1632 0.984 . S
N1626 H1633 0.984 . S
N1627 C1620 1.356 . S
N1627 H1630 0.984 . S
N1627 H1631 0.985 . S
H1628 N1623 0.984 . S
H1629 N1623 0.985 . S
H1630 N1627 0.984 . S
H1631 N1627 0.985 . S
H1632 N1626 0.984 . S
H1633 N1626 0.984 . S
H1634 N1622 0.984 . S
H1635 N1622 0.985 . S
C1636 C1637 1.363 . S
C1636 C1642 1.379 . S
C1636 N1644 1.356 . S
C1637 C1636 1.363 . S
C1637 C1643 1.363 . S
C1638 C1639 1.363 . S
C1638 C1643 1.379 . S
C1638 N1645 1.356 . S
C1639 C1638 1.363 . S
C1639 C1642 1.363 . S
N1640 C1642 1.356 . S
N1640 H1652 0.984 . S
N1640 H1653 0.985 . S
N1641 C1643 1.356 1_545 S
N1641 H1646 0.984 . S
N1641 H1647 0.985 . S
C1642 C1636 1.379 . S
C1642 C1639 1.363 . S
C1642 N1640 1.356 . S
C1643 C1637 1.363 . S
C1643 C1638 1.379 . S
C1643 N1641 1.356 1_565 S
N1644 C1636 1.356 . S
N1644 H1650 0.984 . S
N1644 H1651 0.984 1_565 S
N1645 C1638 1.356 . S
N1645 H1648 0.984 . S
N1645 H1649 0.985 . S
H1646 N1641 0.984 . S
H1647 N1641 0.985 . S
H1648 N1645 0.984 . S
H1649 N1645 0.985 . S
H1650 N1644 0.984 . S
H1651 N1644 0.984 1_545 S
H1652 N1640 0.984 . S
H1653 N1640 0.985 . S
C1654 C1655 1.363 . S
C1654 C1660 1.379 . S
C1654 N1662 1.356 . S
C1655 C1654 1.363 . S
C1655 C1661 1.363 . S
C1656 C1657 1.363 . S
C1656 C1661 1.379 . S
C1656 N1663 1.356 . S
C1657 C1656 1.363 . S
C1657 C1660 1.363 . S
N1658 C1660 1.356 . S
N1658 H1670 0.984 . S
N1658 H1671 0.985 . S
N1659 C1661 1.356 . S
N1659 H1664 0.984 . S
N1659 H1665 0.985 . S
C1660 C1654 1.379 . S
C1660 C1657 1.363 . S
C1660 N1658 1.356 . S
C1661 C1655 1.363 . S
C1661 C1656 1.379 . S
C1661 N1659 1.356 . S
N1662 C1654 1.356 . S
N1662 H1668 0.984 . S
N1662 H1669 0.984 . S
N1663 C1656 1.356 . S
N1663 H1666 0.984 . S
N1663 H1667 0.985 . S
H1664 N1659 0.984 . S
H1665 N1659 0.985 . S
H1666 N1663 0.984 . S
H1667 N1663 0.985 . S
H1668 N1662 0.984 . S
H1669 N1662 0.984 . S
H1670 N1658 0.984 . S
H1671 N1658 0.985 . S
C1672 C1673 1.363 . S
C1672 C1678 1.379 . S
C1672 N1680 1.356 . S
C1673 C1672 1.363 . S
C1673 C1679 1.363 . S
C1674 C1675 1.363 . S
C1674 C1679 1.379 . S
C1674 N1681 1.356 1_554 S
C1675 C1674 1.363 . S
C1675 C1678 1.363 . S
N1676 C1678 1.356 . S
N1676 H1688 0.984 . S
N1676 H1689 0.985 . S
N1677 C1679 1.356 . S
N1677 H1682 0.984 . S
N1677 H1683 0.985 . S
C1678 C1672 1.379 . S
C1678 C1675 1.363 . S
C1678 N1676 1.356 . S
C1679 C1673 1.363 . S
C1679 C1674 1.379 . S
C1679 N1677 1.356 . S
N1680 C1672 1.356 . S
N1680 H1686 0.984 . S
N1680 H1687 0.984 . S
N1681 C1674 1.356 1_556 S
N1681 H1684 0.984 . S
N1681 H1685 0.985 . S
H1682 N1677 0.984 . S
H1683 N1677 0.985 . S
H1684 N1681 0.984 . S
H1685 N1681 0.985 . S
H1686 N1680 0.984 . S
H1687 N1680 0.984 . S
H1688 N1676 0.984 . S
H1689 N1676 0.985 . S
C1690 C1691 1.363 . S
C1690 C1696 1.379 . S
C1690 N1698 1.356 . S
C1691 C1690 1.363 . S
C1691 C1697 1.363 . S
C1692 C1693 1.363 . S
C1692 C1697 1.379 . S
C1692 N1699 1.356 . S
C1693 C1692 1.363 . S
C1693 C1696 1.363 . S
N1694 C1696 1.356 . S
N1694 H1706 0.984 . S
N1694 H1707 0.985 . S
N1695 C1697 1.356 . S
N1695 H1700 0.984 . S
N1695 H1701 0.985 . S
C1696 C1690 1.379 . S
C1696 C1693 1.363 . S
C1696 N1694 1.356 . S
C1697 C1691 1.363 . S
C1697 C1692 1.379 . S
C1697 N1695 1.356 . S
N1698 C1690 1.356 . S
N1698 H1704 0.984 . S
N1698 H1705 0.984 . S
N1699 C1692 1.356 . S
N1699 H1702 0.984 . S
N1699 H1703 0.985 . S
H1700 N1695 0.984 . S
H1701 N1695 0.985 . S
H1702 N1699 0.984 . S
H1703 N1699 0.985 . S
H1704 N1698 0.984 . S
H1705 N1698 0.984 . S
H1706 N1694 0.984 . S
H1707 N1694 0.985 . S
C1708 C1709 1.363 . S
C1708 C1714 1.379 . S
C1708 N1716 1.356 . S
C1709 C1708 1.363 . S
C1709 C1715 1.363 . S
C1710 C1711 1.363 . S
C1710 C1715 1.379 . S
C1710 N1717 1.356 . S
C1711 C1710 1.363 . S
C1711 C1714 1.363 . S
N1712 C1714 1.356 . S
N1712 H1724 0.984 . S
N1712 H1725 0.985 . S
N1713 C1715 1.356 . S
N1713 H1718 0.984 . S
N1713 H1719 0.985 . S
C1714 C1708 1.379 . S
C1714 C1711 1.363 . S
C1714 N1712 1.356 . S
C1715 C1709 1.363 . S
C1715 C1710 1.379 . S
C1715 N1713 1.356 . S
N1716 C1708 1.356 . S
N1716 H1722 0.984 . S
N1716 H1723 0.984 . S
N1717 C1710 1.356 . S
N1717 H1720 0.984 . S
N1717 H1721 0.985 . S
H1718 N1713 0.984 . S
H1719 N1713 0.985 . S
H1720 N1717 0.984 . S
H1721 N1717 0.985 . S
H1722 N1716 0.984 . S
H1723 N1716 0.984 . S
H1724 N1712 0.984 . S
H1725 N1712 0.985 . S
C1726 C1727 1.363 . S
C1726 C1732 1.379 . S
C1726 N1734 1.356 . S
C1727 C1726 1.363 . S
C1727 C1733 1.363 . S
C1728 C1729 1.363 . S
C1728 C1733 1.379 . S
C1728 N1735 1.356 . S
C1729 C1728 1.363 . S
C1729 C1732 1.363 . S
N1730 C1732 1.356 . S
N1730 H1742 0.984 . S
N1730 H1743 0.985 . S
N1731 C1733 1.356 . S
N1731 H1736 0.984 . S
N1731 H1737 0.985 . S
C1732 C1726 1.379 . S
C1732 C1729 1.363 . S
C1732 N1730 1.356 . S
C1733 C1727 1.363 . S
C1733 C1728 1.379 . S
C1733 N1731 1.356 . S
N1734 C1726 1.356 . S
N1734 H1740 0.984 . S
N1734 H1741 0.984 . S
N1735 C1728 1.356 . S
N1735 H1738 0.984 . S
N1735 H1739 0.985 . S
H1736 N1731 0.984 . S
H1737 N1731 0.985 . S
H1738 N1735 0.984 . S
H1739 N1735 0.985 . S
H1740 N1734 0.984 . S
H1741 N1734 0.984 . S
H1742 N1730 0.984 . S
H1743 N1730 0.985 . S
C1744 C1745 1.363 . S
C1744 C1750 1.379 . S
C1744 N1752 1.356 . S
C1745 C1744 1.363 . S
C1745 C1751 1.363 . S
C1746 C1747 1.363 . S
C1746 C1751 1.379 . S
C1746 N1753 1.356 1_545 S
C1747 C1746 1.363 . S
C1747 C1750 1.363 . S
N1748 C1750 1.356 . S
N1748 H1760 0.984 . S
N1748 H1761 0.985 . S
N1749 C1751 1.356 . S
N1749 H1754 0.984 . S
N1749 H1755 0.985 . S
C1750 C1744 1.379 . S
C1750 C1747 1.363 . S
C1750 N1748 1.356 . S
C1751 C1745 1.363 . S
C1751 C1746 1.379 . S
C1751 N1749 1.356 . S
N1752 C1744 1.356 . S
N1752 H1758 0.984 . S
N1752 H1759 0.984 . S
N1753 C1746 1.356 1_565 S
N1753 H1756 0.984 . S
N1753 H1757 0.985 . S
H1754 N1749 0.984 . S
H1755 N1749 0.985 . S
H1756 N1753 0.984 . S
H1757 N1753 0.985 . S
H1758 N1752 0.984 . S
H1759 N1752 0.984 . S
H1760 N1748 0.984 . S
H1761 N1748 0.985 . S
C1762 C1763 1.363 . S
C1762 C1768 1.379 . S
C1762 N1770 1.356 . S
C1763 C1762 1.363 . S
C1763 C1769 1.363 . S
C1764 C1765 1.363 . S
C1764 C1769 1.379 . S
C1764 N1771 1.356 . S
C1765 C1764 1.363 . S
C1765 C1768 1.363 . S
N1766 C1768 1.356 . S
N1766 H1778 0.984 . S
N1766 H1779 0.985 . S
N1767 C1769 1.356 . S
N1767 H1772 0.984 . S
N1767 H1773 0.985 . S
C1768 C1762 1.379 . S
C1768 C1765 1.363 . S
C1768 N1766 1.356 . S
C1769 C1763 1.363 . S
C1769 C1764 1.379 . S
C1769 N1767 1.356 . S
N1770 C1762 1.356 . S
N1770 H1776 0.984 . S
N1770 H1777 0.984 . S
N1771 C1764 1.356 . S
N1771 H1774 0.983 . S
N1771 H1775 0.984 1_565 S
H1772 N1767 0.984 . S
H1773 N1767 0.985 . S
H1774 N1771 0.983 . S
H1775 N1771 0.984 1_545 S
H1776 N1770 0.984 . S
H1777 N1770 0.984 . S
H1778 N1766 0.984 . S
H1779 N1766 0.985 . S
C1780 C1781 1.363 . S
C1780 C1786 1.379 . S
C1780 N1788 1.356 . S
C1781 C1780 1.363 . S
C1781 C1787 1.363 . S
C1782 C1783 1.363 . S
C1782 C1787 1.379 . S
C1782 N1789 1.356 . S
C1783 C1782 1.363 . S
C1783 C1786 1.363 . S
N1784 C1786 1.356 . S
N1784 H1796 0.984 . S
N1784 H1797 0.985 . S
N1785 C1787 1.356 . S
N1785 H1790 0.984 . S
N1785 H1791 0.985 . S
C1786 C1780 1.379 . S
C1786 C1783 1.363 . S
C1786 N1784 1.356 . S
C1787 C1781 1.363 . S
C1787 C1782 1.379 . S
C1787 N1785 1.356 . S
N1788 C1780 1.356 . S
N1788 H1794 0.984 . S
N1788 H1795 0.984 . S
N1789 C1782 1.356 . S
N1789 H1792 0.984 . S
N1789 H1793 0.985 . S
H1790 N1785 0.984 . S
H1791 N1785 0.985 . S
H1792 N1789 0.984 . S
H1793 N1789 0.985 . S
H1794 N1788 0.984 . S
H1795 N1788 0.984 . S
H1796 N1784 0.984 . S
H1797 N1784 0.985 . S
C1798 C1799 1.363 . S
C1798 C1804 1.379 . S
C1798 N1806 1.356 . S
C1799 C1798 1.363 . S
C1799 C1805 1.363 . S
C1800 C1801 1.363 . S
C1800 C1805 1.379 . S
C1800 N1807 1.356 . S
C1801 C1800 1.363 . S
C1801 C1804 1.363 . S
N1802 C1804 1.356 . S
N1802 H1814 0.984 . S
N1802 H1815 0.985 . S
N1803 C1805 1.356 . S
N1803 H1808 0.984 . S
N1803 H1809 0.985 . S
C1804 C1798 1.379 . S
C1804 C1801 1.363 . S
C1804 N1802 1.356 . S
C1805 C1799 1.363 . S
C1805 C1800 1.379 . S
C1805 N1803 1.356 . S
N1806 C1798 1.356 . S
N1806 H1812 0.984 . S
N1806 H1813 0.984 . S
N1807 C1800 1.356 . S
N1807 H1810 0.984 . S
N1807 H1811 0.985 . S
H1808 N1803 0.984 . S
H1809 N1803 0.985 . S
H1810 N1807 0.984 . S
H1811 N1807 0.985 . S
H1812 N1806 0.984 . S
H1813 N1806 0.984 . S
H1814 N1802 0.984 . S
H1815 N1802 0.985 . S
C1816 C1817 1.363 . S
C1816 C1822 1.379 . S
C1816 N1824 1.356 . S
C1817 C1816 1.363 . S
C1817 C1823 1.363 . S
C1818 C1819 1.363 . S
C1818 C1823 1.379 . S
C1818 N1825 1.356 . S
C1819 C1818 1.363 . S
C1819 C1822 1.363 . S
N1820 C1822 1.356 . S
N1820 H1832 0.984 . S
N1820 H1833 0.985 . S
N1821 C1823 1.356 . S
N1821 H1826 0.984 . S
N1821 H1827 0.985 . S
C1822 C1816 1.379 . S
C1822 C1819 1.363 . S
C1822 N1820 1.356 . S
C1823 C1817 1.363 . S
C1823 C1818 1.379 . S
C1823 N1821 1.356 . S
N1824 C1816 1.356 . S
N1824 H1830 0.984 . S
N1824 H1831 0.984 . S
N1825 C1818 1.356 . S
N1825 H1828 0.984 . S
N1825 H1829 0.985 . S
H1826 N1821 0.984 . S
H1827 N1821 0.985 . S
H1828 N1825 0.984 . S
H1829 N1825 0.985 . S
H1830 N1824 0.984 . S
H1831 N1824 0.984 . S
H1832 N1820 0.984 . S
H1833 N1820 0.985 . S
C1834 C1835 1.363 . S
C1834 C1840 1.379 . S
C1834 N1842 1.356 . S
C1835 C1834 1.363 . S
C1835 C1841 1.363 . S
C1836 C1837 1.363 . S
C1836 C1841 1.379 . S
C1836 N1843 1.356 . S
C1837 C1836 1.363 . S
C1837 C1840 1.363 . S
N1838 C1840 1.356 . S
N1838 H1850 0.984 . S
N1838 H1851 0.985 . S
N1839 C1841 1.356 . S
N1839 H1844 0.984 . S
N1839 H1845 0.985 . S
C1840 C1834 1.379 . S
C1840 C1837 1.363 . S
C1840 N1838 1.356 . S
C1841 C1835 1.363 . S
C1841 C1836 1.379 . S
C1841 N1839 1.356 . S
N1842 C1834 1.356 . S
N1842 H1848 0.984 . S
N1842 H1849 0.984 . S
N1843 C1836 1.356 . S
N1843 H1846 0.984 . S
N1843 H1847 0.985 . S
H1844 N1839 0.984 . S
H1845 N1839 0.985 . S
H1846 N1843 0.984 . S
H1847 N1843 0.985 . S
H1848 N1842 0.984 . S
H1849 N1842 0.984 . S
H1850 N1838 0.984 . S
H1851 N1838 0.985 . S
C1852 C1853 1.363 . S
C1852 C1858 1.379 . S
C1852 N1860 1.356 1_554 S
C1853 C1852 1.363 . S
C1853 C1859 1.363 . S
C1854 C1855 1.363 . S
C1854 C1859 1.379 . S
C1854 N1861 1.356 . S
C1855 C1854 1.363 . S
C1855 C1858 1.363 . S
N1856 C1858 1.379 . S
N1856 H1868 0.956 1_554 S
N1856 H1869 0.991 . S
N1857 C1859 1.348 1_655 S
N1857 H1862 0.969 . S
N1857 H1863 1.009 . S
C1858 C1852 1.379 . S
C1858 C1855 1.363 . S
C1858 N1856 1.379 . S
C1859 C1853 1.363 . S
C1859 C1854 1.379 . S
C1859 N1857 1.348 1_455 S
N1860 C1852 1.356 1_556 S
N1860 H1866 0.984 . S
N1860 H1867 0.976 1_556 S
N1861 C1854 1.356 . S
N1861 H1864 0.984 . S
N1861 H1865 0.985 1_455 S
H1862 N1857 0.969 . S
H1863 N1857 1.009 . S
H1864 N1861 0.984 . S
H1865 N1861 0.985 1_655 S
H1866 N1860 0.984 . S
H1867 N1860 0.976 1_554 S
H1868 N1856 0.956 1_556 S
H1869 N1856 0.991 . S
C1870 C1871 1.375 . S
C1870 C1876 1.379 . S
C1870 N1878 1.356 . S
C1871 C1870 1.375 . S
C1871 C1877 1.373 1_655 S
C1872 C1873 1.363 . S
C1872 C1877 1.373 1_655 S
C1872 N1879 1.356 . S
C1873 C1872 1.363 . S
C1873 C1876 1.363 . S
N1874 C1876 1.356 . S
N1874 H1886 0.984 . S
N1874 H1887 0.985 . S
N1875 C1877 1.361 . S
N1875 H1880 0.984 . S
N1875 H1881 0.985 . S
C1876 C1870 1.379 . S
C1876 C1873 1.363 . S
C1876 N1874 1.356 . S
C1877 C1871 1.373 1_455 S
C1877 C1872 1.373 1_455 S
C1877 N1875 1.361 . S
N1878 C1870 1.356 . S
N1878 H1884 0.984 . S
N1878 H1885 0.994 . S
N1879 C1872 1.356 . S
N1879 H1882 0.984 . S
N1879 H1883 0.985 . S
H1880 N1875 0.984 . S
H1881 N1875 0.985 . S
H1882 N1879 0.984 . S
H1883 N1879 0.985 . S
H1884 N1878 0.984 . S
H1885 N1878 0.994 . S
H1886 N1874 0.984 . S
H1887 N1874 0.985 . S
C1888 C1889 1.363 . S
C1888 C1894 1.379 . S
C1888 N1896 1.356 . S
C1889 C1888 1.363 . S
C1889 C1895 1.363 . S
C1890 C1891 1.363 . S
C1890 C1895 1.379 . S
C1890 N1897 1.356 . S
C1891 C1890 1.363 . S
C1891 C1894 1.363 . S
N1892 C1894 1.356 . S
N1892 H1904 0.984 . S
N1892 H1905 0.985 . S
N1893 C1895 1.356 . S
N1893 H1898 0.984 . S
N1893 H1899 0.985 . S
C1894 C1888 1.379 . S
C1894 C1891 1.363 . S
C1894 N1892 1.356 . S
C1895 C1889 1.363 . S
C1895 C1890 1.379 . S
C1895 N1893 1.356 . S
N1896 C1888 1.356 . S
N1896 H1902 0.984 . S
N1896 H1903 0.984 . S
N1897 C1890 1.356 . S
N1897 H1900 0.984 . S
N1897 H1901 0.985 . S
H1898 N1893 0.984 . S
H1899 N1893 0.985 . S
H1900 N1897 0.984 . S
H1901 N1897 0.985 . S
H1902 N1896 0.984 . S
H1903 N1896 0.984 . S
H1904 N1892 0.984 . S
H1905 N1892 0.985 . S
C1906 C1907 1.363 . S
C1906 C1912 1.379 . S
C1906 N1914 1.356 . S
C1907 C1906 1.363 . S
C1907 C1913 1.363 . S
C1908 C1909 1.363 . S
C1908 C1913 1.379 . S
C1908 N1915 1.356 . S
C1909 C1908 1.363 . S
C1909 C1912 1.363 . S
N1910 C1912 1.356 . S
N1910 H1922 0.984 . S
N1910 H1923 0.985 . S
N1911 C1913 1.356 . S
N1911 H1916 0.984 . S
N1911 H1917 0.985 . S
C1912 C1906 1.379 . S
C1912 C1909 1.363 . S
C1912 N1910 1.356 . S
C1913 C1907 1.363 . S
C1913 C1908 1.379 . S
C1913 N1911 1.356 . S
N1914 C1906 1.356 . S
N1914 H1920 0.984 . S
N1914 H1921 0.984 . S
N1915 C1908 1.356 . S
N1915 H1918 0.984 . S
N1915 H1919 0.985 . S
H1916 N1911 0.984 . S
H1917 N1911 0.985 . S
H1918 N1915 0.984 . S
H1919 N1915 0.985 . S
H1920 N1914 0.984 . S
H1921 N1914 0.984 . S
H1922 N1910 0.984 . S
H1923 N1910 0.985 . S
C1924 C1925 1.363 . S
C1924 C1930 1.379 . S
C1924 N1932 1.356 . S
C1925 C1924 1.363 . S
C1925 C1931 1.363 . S
C1926 C1927 1.363 . S
C1926 C1931 1.379 . S
C1926 N1933 1.356 . S
C1927 C1926 1.363 . S
C1927 C1930 1.363 . S
N1928 C1930 1.356 . S
N1928 H1940 0.984 . S
N1928 H1941 0.985 . S
N1929 C1931 1.356 . S
N1929 H1934 0.984 . S
N1929 H1935 0.985 . S
C1930 C1924 1.379 . S
C1930 C1927 1.363 . S
C1930 N1928 1.356 . S
C1931 C1925 1.363 . S
C1931 C1926 1.379 . S
C1931 N1929 1.356 . S
N1932 C1924 1.356 . S
N1932 H1938 0.984 . S
N1932 H1939 0.984 . S
N1933 C1926 1.356 . S
N1933 H1936 0.984 . S
N1933 H1937 0.985 . S
H1934 N1929 0.984 . S
H1935 N1929 0.985 . S
H1936 N1933 0.984 . S
H1937 N1933 0.985 . S
H1938 N1932 0.984 . S
H1939 N1932 0.984 . S
H1940 N1928 0.984 . S
H1941 N1928 0.985 . S
C1942 C1943 1.363 . S
C1942 C1948 1.379 . S
C1942 N1950 1.356 . S
C1943 C1942 1.363 . S
C1943 C1949 1.363 . S
C1944 C1945 1.363 . S
C1944 C1949 1.379 . S
C1944 N1951 1.356 . S
C1945 C1944 1.363 . S
C1945 C1948 1.363 . S
N1946 C1948 1.356 . S
N1946 H1958 0.984 . S
N1946 H1959 0.985 . S
N1947 C1949 1.356 . S
N1947 H1952 0.984 . S
N1947 H1953 0.985 . S
C1948 C1942 1.379 . S
C1948 C1945 1.363 . S
C1948 N1946 1.356 . S
C1949 C1943 1.363 . S
C1949 C1944 1.379 . S
C1949 N1947 1.356 . S
N1950 C1942 1.356 . S
N1950 H1956 0.984 . S
N1950 H1957 0.984 . S
N1951 C1944 1.356 . S
N1951 H1954 0.984 . S
N1951 H1955 0.985 . S
H1952 N1947 0.984 . S
H1953 N1947 0.985 . S
H1954 N1951 0.984 . S
H1955 N1951 0.985 . S
H1956 N1950 0.984 . S
H1957 N1950 0.984 . S
H1958 N1946 0.984 . S
H1959 N1946 0.985 . S
C1960 C1961 1.363 . S
C1960 C1966 1.379 . S
C1960 N1968 1.356 . S
C1961 C1960 1.363 . S
C1961 C1967 1.363 . S
C1962 C1963 1.363 . S
C1962 C1967 1.379 . S
C1962 N1969 1.356 . S
C1963 C1962 1.363 . S
C1963 C1966 1.363 . S
N1964 C1966 1.356 . S
N1964 H1976 0.984 . S
N1964 H1977 0.985 . S
N1965 C1967 1.356 . S
N1965 H1970 0.984 . S
N1965 H1971 0.985 . S
C1966 C1960 1.379 . S
C1966 C1963 1.363 . S
C1966 N1964 1.356 . S
C1967 C1961 1.363 . S
C1967 C1962 1.379 . S
C1967 N1965 1.356 . S
N1968 C1960 1.356 . S
N1968 H1974 0.984 . S
N1968 H1975 0.984 . S
N1969 C1962 1.356 . S
N1969 H1972 0.984 . S
N1969 H1973 0.985 . S
H1970 N1965 0.984 . S
H1971 N1965 0.985 . S
H1972 N1969 0.984 . S
H1973 N1969 0.985 . S
H1974 N1968 0.984 . S
H1975 N1968 0.984 . S
H1976 N1964 0.984 . S
H1977 N1964 0.985 . S
C1978 C1979 1.363 . S
C1978 C1984 1.379 . S
C1978 N1986 1.356 . S
C1979 C1978 1.363 . S
C1979 C1985 1.363 . S
C1980 C1981 1.363 . S
C1980 C1985 1.379 1_556 S
C1980 N1987 1.356 . S
C1981 C1980 1.363 . S
C1981 C1984 1.363 1_556 S
N1982 C1984 1.356 . S
N1982 H1994 0.984 . S
N1982 H1995 0.985 . S
N1983 C1985 1.356 . S
N1983 H1988 0.984 . S
N1983 H1989 0.985 1_554 S
C1984 C1978 1.379 . S
C1984 C1981 1.363 1_554 S
C1984 N1982 1.356 . S
C1985 C1979 1.363 . S
C1985 C1980 1.379 1_554 S
C1985 N1983 1.356 . S
N1986 C1978 1.356 . S
N1986 H1992 0.984 . S
N1986 H1993 0.984 . S
N1987 C1980 1.356 . S
N1987 H1990 0.984 . S
N1987 H1991 0.985 . S
H1988 N1983 0.984 . S
H1989 N1983 0.985 1_556 S
H1990 N1987 0.984 . S
H1991 N1987 0.985 . S
H1992 N1986 0.984 . S
H1993 N1986 0.984 . S
H1994 N1982 0.984 . S
H1995 N1982 0.985 . S
C1996 C1997 1.363 . S
C1996 C2002 1.379 . S
C1996 N2004 1.356 . S
C1997 C1996 1.363 . S
C1997 C2003 1.363 . S
C1998 C1999 1.363 . S
C1998 C2003 1.379 . S
C1998 N2005 1.356 . S
C1999 C1998 1.363 . S
C1999 C2002 1.363 . S
N2000 C2002 1.356 . S
N2000 H2012 0.984 . S
N2000 H2013 0.985 . S
N2001 C2003 1.356 . S
N2001 H2006 0.984 . S
N2001 H2007 0.985 . S
C2002 C1996 1.379 . S
C2002 C1999 1.363 . S
C2002 N2000 1.356 . S
C2003 C1997 1.363 . S
C2003 C1998 1.379 . S
C2003 N2001 1.356 . S
N2004 C1996 1.356 . S
N2004 H2010 0.984 . S
N2004 H2011 0.984 . S
N2005 C1998 1.356 . S
N2005 H2008 0.984 . S
N2005 H2009 0.985 . S
H2006 N2001 0.984 . S
H2007 N2001 0.985 . S
H2008 N2005 0.984 . S
H2009 N2005 0.985 . S
H2010 N2004 0.984 . S
H2011 N2004 0.984 . S
H2012 N2000 0.984 . S
H2013 N2000 0.985 . S
C2014 C2015 1.363 . S
C2014 C2020 1.379 . S
C2014 N2022 1.356 . S
C2015 C2014 1.363 . S
C2015 C2021 1.363 . S
C2016 C2017 1.363 . S
C2016 C2021 1.379 . S
C2016 N2023 1.356 . S
C2017 C2016 1.363 . S
C2017 C2020 1.363 . S
N2018 C2020 1.356 . S
N2018 H2030 0.984 . S
N2018 H2031 0.985 . S
N2019 C2021 1.356 . S
N2019 H2024 0.984 . S
N2019 H2025 0.985 . S
C2020 C2014 1.379 . S
C2020 C2017 1.363 . S
C2020 N2018 1.356 . S
C2021 C2015 1.363 . S
C2021 C2016 1.379 . S
C2021 N2019 1.356 . S
N2022 C2014 1.356 . S
N2022 H2028 0.984 . S
N2022 H2029 0.984 . S
N2023 C2016 1.356 . S
N2023 H2026 0.984 . S
N2023 H2027 0.985 . S
H2024 N2019 0.984 . S
H2025 N2019 0.985 . S
H2026 N2023 0.984 . S
H2027 N2023 0.985 . S
H2028 N2022 0.984 . S
H2029 N2022 0.984 . S
H2030 N2018 0.984 . S
H2031 N2018 0.985 . S
C2032 C2033 1.363 . S
C2032 C2038 1.379 . S
C2032 N2040 1.356 . S
C2033 C2032 1.363 . S
C2033 C2039 1.363 . S
C2034 C2035 1.363 . S
C2034 C2039 1.379 . S
C2034 N2041 1.356 . S
C2035 C2034 1.363 . S
C2035 C2038 1.363 . S
N2036 C2038 1.356 . S
N2036 H2048 0.984 . S
N2036 H2049 0.985 . S
N2037 C2039 1.356 . S
N2037 H2042 0.984 . S
N2037 H2043 0.985 . S
C2038 C2032 1.379 . S
C2038 C2035 1.363 . S
C2038 N2036 1.356 . S
C2039 C2033 1.363 . S
C2039 C2034 1.379 . S
C2039 N2037 1.356 . S
N2040 C2032 1.356 . S
N2040 H2046 0.984 . S
N2040 H2047 0.984 . S
N2041 C2034 1.356 . S
N2041 H2044 0.984 . S
N2041 H2045 0.985 . S
H2042 N2037 0.984 . S
H2043 N2037 0.985 . S
H2044 N2041 0.984 . S
H2045 N2041 0.985 . S
H2046 N2040 0.984 . S
H2047 N2040 0.984 . S
H2048 N2036 0.984 . S
H2049 N2036 0.985 . S
C2050 C2051 1.363 . S
C2050 C2056 1.379 . S
C2050 N2058 1.356 . S
C2051 C2050 1.363 . S
C2051 C2057 1.363 . S
C2052 C2053 1.363 . S
C2052 C2057 1.379 . S
C2052 N2059 1.356 . S
C2053 C2052 1.363 . S
C2053 C2056 1.363 . S
N2054 C2056 1.356 . S
N2054 H2066 0.984 . S
N2054 H2067 0.985 . S
N2055 C2057 1.356 . S
N2055 H2060 0.984 . S
N2055 H2061 0.985 . S
C2056 C2050 1.379 . S
C2056 C2053 1.363 . S
C2056 N2054 1.356 . S
C2057 C2051 1.363 . S
C2057 C2052 1.379 . S
C2057 N2055 1.356 . S
N2058 C2050 1.356 . S
N2058 H2064 0.984 . S
N2058 H2065 0.984 . S
N2059 C2052 1.356 . S
N2059 H2062 0.984 . S
N2059 H2063 0.985 . S
H2060 N2055 0.984 . S
H2061 N2055 0.985 . S
H2062 N2059 0.984 . S
H2063 N2059 0.985 . S
H2064 N2058 0.984 . S
H2065 N2058 0.984 . S
H2066 N2054 0.984 . S
H2067 N2054 0.985 . S
C2068 C2069 1.363 . S
C2068 C2074 1.379 . S
C2068 N2076 1.356 . S
C2069 C2068 1.363 . S
C2069 C2075 1.363 . S
C2070 C2071 1.363 . S
C2070 C2075 1.379 . S
C2070 N2077 1.356 . S
C2071 C2070 1.363 . S
C2071 C2074 1.363 . S
N2072 C2074 1.356 . S
N2072 H2084 0.984 . S
N2072 H2085 0.985 . S
N2073 C2075 1.356 . S
N2073 H2078 0.984 . S
N2073 H2079 0.985 . S
C2074 C2068 1.379 . S
C2074 C2071 1.363 . S
C2074 N2072 1.356 . S
C2075 C2069 1.363 . S
C2075 C2070 1.379 . S
C2075 N2073 1.356 . S
N2076 C2068 1.356 . S
N2076 H2082 0.984 . S
N2076 H2083 0.984 . S
N2077 C2070 1.356 . S
N2077 H2080 0.984 . S
N2077 H2081 0.985 . S
H2078 N2073 0.984 . S
H2079 N2073 0.985 . S
H2080 N2077 0.984 . S
H2081 N2077 0.985 . S
H2082 N2076 0.984 . S
H2083 N2076 0.984 . S
H2084 N2072 0.984 . S
H2085 N2072 0.985 . S
C2086 C2087 1.363 . S
C2086 C2092 1.379 . S
C2086 N2094 1.356 . S
C2087 C2086 1.363 . S
C2087 C2093 1.363 . S
C2088 C2089 1.363 . S
C2088 C2093 1.379 . S
C2088 N2095 1.356 . S
C2089 C2088 1.363 . S
C2089 C2092 1.363 . S
N2090 C2092 1.356 . S
N2090 H2102 0.984 . S
N2090 H2103 0.985 . S
N2091 C2093 1.356 . S
N2091 H2096 0.984 . S
N2091 H2097 0.985 . S
C2092 C2086 1.379 . S
C2092 C2089 1.363 . S
C2092 N2090 1.356 . S
C2093 C2087 1.363 . S
C2093 C2088 1.379 . S
C2093 N2091 1.356 . S
N2094 C2086 1.356 . S
N2094 H2100 0.984 . S
N2094 H2101 0.984 . S
N2095 C2088 1.356 . S
N2095 H2098 0.984 . S
N2095 H2099 0.985 . S
H2096 N2091 0.984 . S
H2097 N2091 0.985 . S
H2098 N2095 0.984 . S
H2099 N2095 0.985 . S
H2100 N2094 0.984 . S
H2101 N2094 0.984 . S
H2102 N2090 0.984 . S
H2103 N2090 0.985 . S
C2104 C2105 1.363 . S
C2104 C2110 1.379 . S
C2104 N2112 1.356 . S
C2105 C2104 1.363 . S
C2105 C2111 1.363 . S
C2106 C2107 1.363 . S
C2106 C2111 1.379 . S
C2106 N2113 1.356 . S
C2107 C2106 1.363 . S
C2107 C2110 1.363 . S
N2108 C2110 1.356 . S
N2108 H2120 0.984 . S
N2108 H2121 0.985 . S
N2109 C2111 1.356 . S
N2109 H2114 0.984 . S
N2109 H2115 0.985 . S
C2110 C2104 1.379 . S
C2110 C2107 1.363 . S
C2110 N2108 1.356 . S
C2111 C2105 1.363 . S
C2111 C2106 1.379 . S
C2111 N2109 1.356 . S
N2112 C2104 1.356 . S
N2112 H2118 0.984 . S
N2112 H2119 0.984 . S
N2113 C2106 1.356 . S
N2113 H2116 0.984 . S
N2113 H2117 0.985 . S
H2114 N2109 0.984 . S
H2115 N2109 0.985 . S
H2116 N2113 0.984 . S
H2117 N2113 0.985 . S
H2118 N2112 0.984 . S
H2119 N2112 0.984 . S
H2120 N2108 0.984 . S
H2121 N2108 0.985 . S
C2122 C2123 1.363 . S
C2122 C2128 1.379 . S
C2122 N2130 1.356 . S
C2123 C2122 1.363 . S
C2123 C2129 1.363 . S
C2124 C2125 1.363 . S
C2124 C2129 1.379 . S
C2124 N2131 1.356 . S
C2125 C2124 1.363 . S
C2125 C2128 1.363 . S
N2126 C2128 1.356 . S
N2126 H2138 0.984 . S
N2126 H2139 0.985 . S
N2127 C2129 1.356 . S
N2127 H2132 0.984 . S
N2127 H2133 0.985 . S
C2128 C2122 1.379 . S
C2128 C2125 1.363 . S
C2128 N2126 1.356 . S
C2129 C2123 1.363 . S
C2129 C2124 1.379 . S
C2129 N2127 1.356 . S
N2130 C2122 1.356 . S
N2130 H2136 0.984 . S
N2130 H2137 0.984 . S
N2131 C2124 1.356 . S
N2131 H2134 0.984 . S
N2131 H2135 0.985 . S
H2132 N2127 0.984 . S
H2133 N2127 0.985 . S
H2134 N2131 0.984 . S
H2135 N2131 0.985 . S
H2136 N2130 0.984 . S
H2137 N2130 0.984 . S
H2138 N2126 0.984 . S
H2139 N2126 0.985 . S
C2140 C2141 1.363 . S
C2140 C2146 1.379 . S
C2140 N2148 1.356 . S
C2141 C2140 1.363 . S
C2141 C2147 1.363 1_545 S
C2142 C2143 1.363 . S
C2142 C2147 1.379 . S
C2142 N2149 1.356 . S
C2143 C2142 1.363 . S
C2143 C2146 1.363 1_565 S
N2144 C2146 1.356 . S
N2144 H2156 0.984 . S
N2144 H2157 0.985 1_545 S
N2145 C2147 1.356 . S
N2145 H2150 0.984 . S
N2145 H2151 0.985 . S
C2146 C2140 1.379 . S
C2146 C2143 1.363 1_545 S
C2146 N2144 1.356 . S
C2147 C2141 1.363 1_565 S
C2147 C2142 1.379 . S
C2147 N2145 1.356 . S
N2148 C2140 1.356 . S
N2148 H2154 0.984 . S
N2148 H2155 0.984 . S
N2149 C2142 1.356 . S
N2149 H2152 0.984 . S
N2149 H2153 0.985 . S
H2150 N2145 0.984 . S
H2151 N2145 0.985 . S
H2152 N2149 0.984 . S
H2153 N2149 0.985 . S
H2154 N2148 0.984 . S
H2155 N2148 0.984 . S
H2156 N2144 0.984 . S
H2157 N2144 0.985 1_565 S
C2158 C2159 1.363 1_545 S
C2158 C2164 1.379 . S
C2158 N2166 1.356 . S
C2159 C2158 1.363 1_565 S
C2159 C2165 1.363 1_554 S
C2160 C2161 1.363 . S
C2160 C2165 1.379 1_544 S
C2160 N2167 1.369 . S
C2161 C2160 1.363 . S
C2161 C2164 1.363 . S
N2162 C2164 1.356 . S
N2162 H2174 0.984 . S
N2162 H2175 0.985 . S
N2163 C2165 1.356 . S
N2163 H2168 0.984 . S
N2163 H2169 0.985 . S
C2164 C2158 1.379 . S
C2164 C2161 1.363 . S
C2164 N2162 1.356 . S
C2165 C2159 1.363 1_556 S
C2165 C2160 1.379 1_566 S
C2165 N2163 1.356 . S
N2166 C2158 1.356 . S
N2166 H2172 0.984 . S
N2166 H2173 0.984 . S
N2167 C2160 1.369 . S
N2167 H2170 0.996 . S
N2167 H2171 0.961 1_544 S
H2168 N2163 0.984 . S
H2169 N2163 0.985 . S
H2170 N2167 0.996 . S
H2171 N2167 0.961 1_566 S
H2172 N2166 0.984 . S
H2173 N2166 0.984 . S
H2174 N2162 0.984 . S
H2175 N2162 0.985 . S
C2176 C2177 1.363 . S
C2176 C2182 1.379 . S
C2176 N2184 1.356 . S
C2177 C2176 1.363 . S
C2177 C2183 1.363 . S
C2178 C2179 1.363 . S
C2178 C2183 1.379 . S
C2178 N2185 1.356 . S
C2179 C2178 1.363 . S
C2179 C2182 1.363 . S
N2180 C2182 1.356 . S
N2180 H2192 0.984 . S
N2180 H2193 0.985 . S
N2181 C2183 1.356 . S
N2181 H2186 0.984 . S
N2181 H2187 0.985 . S
C2182 C2176 1.379 . S
C2182 C2179 1.363 . S
C2182 N2180 1.356 . S
C2183 C2177 1.363 . S
C2183 C2178 1.379 . S
C2183 N2181 1.356 . S
N2184 C2176 1.356 . S
N2184 H2190 0.984 . S
N2184 H2191 0.984 . S
N2185 C2178 1.356 . S
N2185 H2188 0.984 . S
N2185 H2189 0.985 . S
H2186 N2181 0.984 . S
H2187 N2181 0.985 . S
H2188 N2185 0.984 . S
H2189 N2185 0.985 . S
H2190 N2184 0.984 . S
H2191 N2184 0.984 . S
H2192 N2180 0.984 . S
H2193 N2180 0.985 . S
C2194 C2195 1.363 . S
C2194 C2200 1.379 . S
C2194 N2202 1.356 . S
C2195 C2194 1.363 . S
C2195 C2201 1.363 . S
C2196 C2197 1.363 . S
C2196 C2201 1.379 . S
C2196 N2203 1.356 . S
C2197 C2196 1.363 . S
C2197 C2200 1.363 . S
N2198 C2200 1.356 . S
N2198 H2210 0.984 . S
N2198 H2211 0.985 . S
N2199 C2201 1.356 . S
N2199 H2204 0.984 . S
N2199 H2205 0.985 1_554 S
C2200 C2194 1.379 . S
C2200 C2197 1.363 . S
C2200 N2198 1.356 . S
C2201 C2195 1.363 . S
C2201 C2196 1.379 . S
C2201 N2199 1.356 . S
N2202 C2194 1.356 . S
N2202 H2208 0.984 . S
N2202 H2209 0.984 . S
N2203 C2196 1.356 . S
N2203 H2206 0.984 . S
N2203 H2207 0.985 . S
H2204 N2199 0.984 . S
H2205 N2199 0.985 1_556 S
H2206 N2203 0.984 . S
H2207 N2203 0.985 . S
H2208 N2202 0.984 . S
H2209 N2202 0.984 . S
H2210 N2198 0.984 . S
H2211 N2198 0.985 . S
C2212 C2213 1.363 . S
C2212 C2218 1.379 . S
C2212 N2220 1.356 . S
C2213 C2212 1.363 . S
C2213 C2219 1.363 . S
C2214 C2215 1.363 . S
C2214 C2219 1.379 . S
C2214 N2221 1.356 . S
C2215 C2214 1.363 . S
C2215 C2218 1.363 . S
N2216 C2218 1.356 . S
N2216 H2228 0.984 . S
N2216 H2229 0.985 . S
N2217 C2219 1.356 . S
N2217 H2222 0.984 . S
N2217 H2223 0.985 . S
C2218 C2212 1.379 . S
C2218 C2215 1.363 . S
C2218 N2216 1.356 . S
C2219 C2213 1.363 . S
C2219 C2214 1.379 . S
C2219 N2217 1.356 . S
N2220 C2212 1.356 . S
N2220 H2226 0.984 . S
N2220 H2227 0.984 . S
N2221 C2214 1.356 . S
N2221 H2224 0.984 . S
N2221 H2225 0.985 . S
H2222 N2217 0.984 . S
H2223 N2217 0.985 . S
H2224 N2221 0.984 . S
H2225 N2221 0.985 . S
H2226 N2220 0.984 . S
H2227 N2220 0.984 . S
H2228 N2216 0.984 . S
H2229 N2216 0.985 . S
C2230 C2231 1.363 . S
C2230 C2236 1.379 . S
C2230 N2238 1.356 . S
C2231 C2230 1.363 . S
C2231 C2237 1.363 . S
C2232 C2233 1.363 . S
C2232 C2237 1.379 . S
C2232 N2239 1.356 . S
C2233 C2232 1.363 . S
C2233 C2236 1.363 . S
N2234 C2236 1.356 . S
N2234 H2246 0.984 . S
N2234 H2247 0.985 . S
N2235 C2237 1.356 . S
N2235 H2240 0.984 . S
N2235 H2241 0.985 . S
C2236 C2230 1.379 . S
C2236 C2233 1.363 . S
C2236 N2234 1.356 . S
C2237 C2231 1.363 . S
C2237 C2232 1.379 . S
C2237 N2235 1.356 . S
N2238 C2230 1.356 . S
N2238 H2244 0.984 . S
N2238 H2245 0.984 . S
N2239 C2232 1.356 . S
N2239 H2242 0.984 . S
N2239 H2243 0.985 . S
H2240 N2235 0.984 . S
H2241 N2235 0.985 . S
H2242 N2239 0.984 . S
H2243 N2239 0.985 . S
H2244 N2238 0.984 . S
H2245 N2238 0.984 . S
H2246 N2234 0.984 . S
H2247 N2234 0.985 . S
C2248 C2249 1.363 . S
C2248 C2254 1.379 . S
C2248 N2256 1.356 . S
C2249 C2248 1.363 . S
C2249 C2255 1.363 . S
C2250 C2251 1.363 . S
C2250 C2255 1.379 . S
C2250 N2257 1.356 . S
C2251 C2250 1.363 . S
C2251 C2254 1.363 . S
N2252 C2254 1.356 . S
N2252 H2264 0.984 . S
N2252 H2265 0.985 . S
N2253 C2255 1.356 . S
N2253 H2258 0.984 . S
N2253 H2259 0.985 . S
C2254 C2248 1.379 . S
C2254 C2251 1.363 . S
C2254 N2252 1.356 . S
C2255 C2249 1.363 . S
C2255 C2250 1.379 . S
C2255 N2253 1.356 . S
N2256 C2248 1.356 . S
N2256 H2262 0.984 . S
N2256 H2263 0.984 . S
N2257 C2250 1.356 . S
N2257 H2260 0.984 . S
N2257 H2261 0.985 . S
H2258 N2253 0.984 . S
H2259 N2253 0.985 . S
H2260 N2257 0.984 . S
H2261 N2257 0.985 . S
H2262 N2256 0.984 . S
H2263 N2256 0.984 . S
H2264 N2252 0.984 . S
H2265 N2252 0.985 . S
C2266 C2267 1.363 . S
C2266 C2272 1.379 . S
C2266 N2274 1.356 . S
C2267 C2266 1.363 . S
C2267 C2273 1.363 . S
C2268 C2269 1.363 . S
C2268 C2273 1.379 . S
C2268 N2275 1.356 . S
C2269 C2268 1.363 . S
C2269 C2272 1.363 . S
N2270 C2272 1.356 . S
N2270 H2282 0.984 . S
N2270 H2283 0.985 . S
N2271 C2273 1.356 . S
N2271 H2276 0.984 . S
N2271 H2277 0.985 . S
C2272 C2266 1.379 . S
C2272 C2269 1.363 . S
C2272 N2270 1.356 . S
C2273 C2267 1.363 . S
C2273 C2268 1.379 . S
C2273 N2271 1.356 . S
N2274 C2266 1.356 . S
N2274 H2280 0.984 . S
N2274 H2281 0.984 . S
N2275 C2268 1.356 . S
N2275 H2278 0.984 . S
N2275 H2279 0.985 . S
H2276 N2271 0.984 . S
H2277 N2271 0.985 . S
H2278 N2275 0.984 . S
H2279 N2275 0.985 . S
H2280 N2274 0.984 . S
H2281 N2274 0.984 . S
H2282 N2270 0.984 . S
H2283 N2270 0.985 . S
C2284 C2285 1.363 . S
C2284 C2290 1.379 . S
C2284 N2292 1.356 . S
C2285 C2284 1.363 . S
C2285 C2291 1.363 . S
C2286 C2287 1.363 . S
C2286 C2291 1.379 . S
C2286 N2293 1.356 . S
C2287 C2286 1.363 . S
C2287 C2290 1.363 . S
N2288 C2290 1.344 1_556 S
N2288 H2300 1.005 . S
N2288 H2301 0.978 1_556 S
N2289 C2291 1.356 . S
N2289 H2294 0.984 . S
N2289 H2295 0.985 . S
C2290 C2284 1.379 . S
C2290 C2287 1.363 . S
C2290 N2288 1.344 1_554 S
C2291 C2285 1.363 . S
C2291 C2286 1.379 . S
C2291 N2289 1.356 . S
N2292 C2284 1.356 . S
N2292 H2298 0.984 1_554 S
N2292 H2299 0.984 . S
N2293 C2286 1.356 . S
N2293 H2296 0.984 . S
N2293 H2297 0.985 . S
H2294 N2289 0.984 . S
H2295 N2289 0.985 . S
H2296 N2293 0.984 . S
H2297 N2293 0.985 . S
H2298 N2292 0.984 1_556 S
H2299 N2292 0.984 . S
H2300 N2288 1.005 . S
H2301 N2288 0.978 1_554 S
C2302 C2303 1.363 . S
C2302 C2308 1.379 . S
C2302 N2310 1.356 . S
C2303 C2302 1.363 . S
C2303 C2309 1.363 . S
C2304 C2305 1.363 . S
C2304 C2309 1.379 . S
C2304 N2311 1.356 . S
C2305 C2304 1.363 . S
C2305 C2308 1.363 . S
N2306 C2308 1.356 . S
N2306 H2318 0.984 . S
N2306 H2319 0.985 . S
N2307 C2309 1.356 . S
N2307 H2312 0.984 . S
N2307 H2313 0.985 . S
C2308 C2302 1.379 . S
C2308 C2305 1.363 . S
C2308 N2306 1.356 . S
C2309 C2303 1.363 . S
C2309 C2304 1.379 . S
C2309 N2307 1.356 . S
N2310 C2302 1.356 . S
N2310 H2316 0.984 . S
N2310 H2317 0.984 . S
N2311 C2304 1.356 . S
N2311 H2314 0.984 . S
N2311 H2315 0.985 . S
H2312 N2307 0.984 . S
H2313 N2307 0.985 . S
H2314 N2311 0.984 . S
H2315 N2311 0.985 . S
H2316 N2310 0.984 . S
H2317 N2310 0.984 . S
H2318 N2306 0.984 . S
H2319 N2306 0.985 . S
C2320 C2321 1.363 . S
C2320 C2326 1.379 . S
C2320 N2328 1.356 . S
C2321 C2320 1.363 . S
C2321 C2327 1.363 . S
C2322 C2323 1.363 . S
C2322 C2327 1.379 . S
C2322 N2329 1.356 . S
C2323 C2322 1.363 . S
C2323 C2326 1.363 . S
N2324 C2326 1.356 1_554 S
N2324 H2336 0.984 . S
N2324 H2337 0.985 . S
N2325 C2327 1.356 . S
N2325 H2330 0.984 . S
N2325 H2331 0.985 . S
C2326 C2320 1.379 . S
C2326 C2323 1.363 . S
C2326 N2324 1.356 1_556 S
C2327 C2321 1.363 . S
C2327 C2322 1.379 . S
C2327 N2325 1.356 . S
N2328 C2320 1.356 . S
N2328 H2334 0.984 . S
N2328 H2335 0.984 . S
N2329 C2322 1.356 . S
N2329 H2332 0.984 . S
N2329 H2333 0.985 . S
H2330 N2325 0.984 . S
H2331 N2325 0.985 . S
H2332 N2329 0.984 . S
H2333 N2329 0.985 . S
H2334 N2328 0.984 . S
H2335 N2328 0.984 . S
H2336 N2324 0.984 . S
H2337 N2324 0.985 . S
C2338 C2339 1.363 . S
C2338 C2344 1.379 . S
C2338 N2346 1.356 . S
C2339 C2338 1.363 . S
C2339 C2345 1.363 . S
C2340 C2341 1.363 . S
C2340 C2345 1.379 . S
C2340 N2347 1.356 . S
C2341 C2340 1.363 . S
C2341 C2344 1.363 . S
N2342 C2344 1.356 . S
N2342 H2354 0.984 . S
N2342 H2355 0.985 . S
N2343 C2345 1.356 . S
N2343 H2348 0.984 . S
N2343 H2349 0.985 . S
C2344 C2338 1.379 . S
C2344 C2341 1.363 . S
C2344 N2342 1.356 . S
C2345 C2339 1.363 . S
C2345 C2340 1.379 . S
C2345 N2343 1.356 . S
N2346 C2338 1.356 . S
N2346 H2352 0.984 . S
N2346 H2353 0.984 . S
N2347 C2340 1.356 . S
N2347 H2350 0.984 . S
N2347 H2351 0.985 . S
H2348 N2343 0.984 . S
H2349 N2343 0.985 . S
H2350 N2347 0.984 . S
H2351 N2347 0.985 . S
H2352 N2346 0.984 . S
H2353 N2346 0.984 . S
H2354 N2342 0.984 . S
H2355 N2342 0.985 . S
C2356 C2357 1.363 . S
C2356 C2362 1.379 . S
C2356 N2364 1.356 . S
C2357 C2356 1.363 . S
C2357 C2363 1.363 . S
C2358 C2359 1.363 . S
C2358 C2363 1.379 . S
C2358 N2365 1.356 . S
C2359 C2358 1.363 . S
C2359 C2362 1.363 . S
N2360 C2362 1.356 . S
N2360 H2372 0.984 . S
N2360 H2373 0.985 . S
N2361 C2363 1.356 . S
N2361 H2366 0.984 . S
N2361 H2367 0.985 . S
C2362 C2356 1.379 . S
C2362 C2359 1.363 . S
C2362 N2360 1.356 . S
C2363 C2357 1.363 . S
C2363 C2358 1.379 . S
C2363 N2361 1.356 . S
N2364 C2356 1.356 . S
N2364 H2370 0.984 . S
N2364 H2371 0.984 . S
N2365 C2358 1.356 . S
N2365 H2368 0.984 . S
N2365 H2369 0.985 1_455 S
H2366 N2361 0.984 . S
H2367 N2361 0.985 . S
H2368 N2365 0.984 . S
H2369 N2365 0.985 1_655 S
H2370 N2364 0.984 . S
H2371 N2364 0.984 . S
H2372 N2360 0.984 . S
H2373 N2360 0.985 . S
C2374 C2375 1.363 . S
C2374 C2380 1.379 . S
C2374 N2382 1.356 . S
C2375 C2374 1.363 . S
C2375 C2381 1.363 . S
C2376 C2377 1.363 . S
C2376 C2381 1.379 . S
C2376 N2383 1.356 . S
C2377 C2376 1.363 . S
C2377 C2380 1.363 . S
N2378 C2380 1.356 . S
N2378 H2390 0.984 . S
N2378 H2391 0.985 . S
N2379 C2381 1.356 . S
N2379 H2384 0.984 . S
N2379 H2385 0.985 . S
C2380 C2374 1.379 . S
C2380 C2377 1.363 . S
C2380 N2378 1.356 . S
C2381 C2375 1.363 . S
C2381 C2376 1.379 . S
C2381 N2379 1.356 . S
N2382 C2374 1.356 . S
N2382 H2388 0.984 . S
N2382 H2389 0.984 . S
N2383 C2376 1.356 . S
N2383 H2386 0.984 . S
N2383 H2387 0.985 . S
H2384 N2379 0.984 . S
H2385 N2379 0.985 . S
H2386 N2383 0.984 . S
H2387 N2383 0.985 . S
H2388 N2382 0.984 . S
H2389 N2382 0.984 . S
H2390 N2378 0.984 . S
H2391 N2378 0.985 . S
C2392 C2393 1.363 . S
C2392 C2398 1.379 . S
C2392 N2400 1.356 . S
C2393 C2392 1.363 . S
C2393 C2399 1.363 . S
C2394 C2395 1.363 . S
C2394 C2399 1.379 . S
C2394 N2401 1.356 . S
C2395 C2394 1.363 . S
C2395 C2398 1.363 . S
N2396 C2398 1.356 . S
N2396 H2408 0.984 . S
N2396 H2409 0.985 . S
N2397 C2399 1.356 . S
N2397 H2402 0.984 . S
N2397 H2403 0.985 . S
C2398 C2392 1.379 . S
C2398 C2395 1.363 . S
C2398 N2396 1.356 . S
C2399 C2393 1.363 . S
C2399 C2394 1.379 . S
C2399 N2397 1.356 . S
N2400 C2392 1.356 . S
N2400 H2406 0.984 . S
N2400 H2407 0.984 . S
N2401 C2394 1.356 . S
N2401 H2404 0.984 . S
N2401 H2405 0.985 . S
H2402 N2397 0.984 . S
H2403 N2397 0.985 . S
H2404 N2401 0.984 . S
H2405 N2401 0.985 . S
H2406 N2400 0.984 . S
H2407 N2400 0.984 . S
H2408 N2396 0.984 . S
H2409 N2396 0.985 . S
C2410 C2411 1.363 . S
C2410 C2416 1.379 . S
C2410 N2418 1.356 . S
C2411 C2410 1.363 . S
C2411 C2417 1.363 . S
C2412 C2413 1.363 . S
C2412 C2417 1.379 . S
C2412 N2419 1.356 . S
C2413 C2412 1.363 . S
C2413 C2416 1.363 . S
N2414 C2416 1.356 . S
N2414 H2426 0.984 . S
N2414 H2427 0.985 . S
N2415 C2417 1.356 . S
N2415 H2420 0.984 . S
N2415 H2421 0.985 . S
C2416 C2410 1.379 . S
C2416 C2413 1.363 . S
C2416 N2414 1.356 . S
C2417 C2411 1.363 . S
C2417 C2412 1.379 . S
C2417 N2415 1.356 . S
N2418 C2410 1.356 . S
N2418 H2424 0.984 . S
N2418 H2425 0.984 . S
N2419 C2412 1.356 . S
N2419 H2422 0.984 . S
N2419 H2423 0.985 . S
H2420 N2415 0.984 . S
H2421 N2415 0.985 . S
H2422 N2419 0.984 . S
H2423 N2419 0.985 . S
H2424 N2418 0.984 . S
H2425 N2418 0.984 . S
H2426 N2414 0.984 . S
H2427 N2414 0.985 . S
C2428 C2429 1.363 . S
C2428 C2434 1.379 . S
C2428 N2436 1.356 . S
C2429 C2428 1.363 . S
C2429 C2435 1.363 . S
C2430 C2431 1.363 . S
C2430 C2435 1.379 . S
C2430 N2437 1.356 1_655 S
C2431 C2430 1.363 . S
C2431 C2434 1.363 . S
N2432 C2434 1.356 . S
N2432 H2444 0.984 1_556 S
N2432 H2445 0.983 1_656 S
N2433 C2435 1.356 . S
N2433 H2438 0.984 . S
N2433 H2439 0.985 . S
C2434 C2428 1.379 . S
C2434 C2431 1.363 . S
C2434 N2432 1.356 . S
C2435 C2429 1.363 . S
C2435 C2430 1.379 . S
C2435 N2433 1.356 . S
N2436 C2428 1.356 . S
N2436 H2442 0.984 . S
N2436 H2443 0.984 . S
N2437 C2430 1.356 1_455 S
N2437 H2440 0.984 . S
N2437 H2441 0.985 . S
H2438 N2433 0.984 . S
H2439 N2433 0.985 . S
H2440 N2437 0.984 . S
H2441 N2437 0.985 . S
H2442 N2436 0.984 . S
H2443 N2436 0.984 . S
H2444 N2432 0.984 1_554 S
H2445 N2432 0.983 1_454 S
C2446 C2447 1.363 . S
C2446 C2452 1.379 . S
C2446 N2454 1.356 . S
C2447 C2446 1.363 . S
C2447 C2453 1.363 . S
C2448 C2449 1.363 . S
C2448 C2453 1.379 . S
C2448 N2455 1.356 . S
C2449 C2448 1.363 . S
C2449 C2452 1.363 . S
N2450 C2452 1.356 . S
N2450 H2462 0.984 . S
N2450 H2463 0.985 . S
N2451 C2453 1.356 . S
N2451 H2456 0.984 . S
N2451 H2457 0.985 . S
C2452 C2446 1.379 . S
C2452 C2449 1.363 . S
C2452 N2450 1.356 . S
C2453 C2447 1.363 . S
C2453 C2448 1.379 . S
C2453 N2451 1.356 . S
N2454 C2446 1.356 . S
N2454 H2460 0.984 . S
N2454 H2461 0.984 . S
N2455 C2448 1.356 . S
N2455 H2458 0.984 . S
N2455 H2459 0.985 . S
H2456 N2451 0.984 . S
H2457 N2451 0.985 . S
H2458 N2455 0.984 . S
H2459 N2455 0.985 . S
H2460 N2454 0.984 . S
H2461 N2454 0.984 . S
H2462 N2450 0.984 . S
H2463 N2450 0.985 . S
C2464 C2465 1.363 . S
C2464 C2470 1.379 . S
C2464 N2472 1.356 . S
C2465 C2464 1.363 . S
C2465 C2471 1.363 . S
C2466 C2467 1.363 . S
C2466 C2471 1.379 . S
C2466 N2473 1.356 . S
C2467 C2466 1.363 . S
C2467 C2470 1.363 . S
N2468 C2470 1.356 . S
N2468 H2480 0.984 . S
N2468 H2481 0.985 . S
N2469 C2471 1.356 . S
N2469 H2474 0.984 . S
N2469 H2475 0.985 . S
C2470 C2464 1.379 . S
C2470 C2467 1.363 . S
C2470 N2468 1.356 . S
C2471 C2465 1.363 . S
C2471 C2466 1.379 . S
C2471 N2469 1.356 . S
N2472 C2464 1.356 . S
N2472 H2478 0.984 . S
N2472 H2479 0.984 . S
N2473 C2466 1.356 . S
N2473 H2476 0.984 . S
N2473 H2477 0.985 . S
H2474 N2469 0.984 . S
H2475 N2469 0.985 . S
H2476 N2473 0.984 . S
H2477 N2473 0.985 . S
H2478 N2472 0.984 . S
H2479 N2472 0.984 . S
H2480 N2468 0.984 . S
H2481 N2468 0.985 . S
C2482 C2483 1.363 . S
C2482 C2488 1.379 . S
C2482 N2490 1.356 . S
C2483 C2482 1.363 . S
C2483 C2489 1.363 . S
C2484 C2485 1.363 . S
C2484 C2489 1.379 . S
C2484 N2491 1.356 . S
C2485 C2484 1.363 . S
C2485 C2488 1.363 . S
N2486 C2488 1.356 . S
N2486 H2498 0.984 . S
N2486 H2499 0.985 . S
N2487 C2489 1.356 . S
N2487 H2492 0.984 . S
N2487 H2493 0.985 . S
C2488 C2482 1.379 . S
C2488 C2485 1.363 . S
C2488 N2486 1.356 . S
C2489 C2483 1.363 . S
C2489 C2484 1.379 . S
C2489 N2487 1.356 . S
N2490 C2482 1.356 . S
N2490 H2496 0.984 . S
N2490 H2497 0.984 . S
N2491 C2484 1.356 . S
N2491 H2494 0.984 . S
N2491 H2495 0.985 . S
H2492 N2487 0.984 . S
H2493 N2487 0.985 . S
H2494 N2491 0.984 . S
H2495 N2491 0.985 . S
H2496 N2490 0.984 . S
H2497 N2490 0.984 . S
H2498 N2486 0.984 . S
H2499 N2486 0.985 . S
C2500 C2501 1.363 . S
C2500 C2506 1.379 . S
C2500 N2508 1.356 . S
C2501 C2500 1.363 . S
C2501 C2507 1.363 . S
C2502 C2503 1.363 . S
C2502 C2507 1.379 . S
C2502 N2509 1.356 . S
C2503 C2502 1.363 . S
C2503 C2506 1.363 . S
N2504 C2506 1.356 . S
N2504 H2516 0.984 . S
N2504 H2517 0.985 . S
N2505 C2507 1.356 . S
N2505 H2510 0.984 . S
N2505 H2511 0.985 . S
C2506 C2500 1.379 . S
C2506 C2503 1.363 . S
C2506 N2504 1.356 . S
C2507 C2501 1.363 . S
C2507 C2502 1.379 . S
C2507 N2505 1.356 . S
N2508 C2500 1.356 . S
N2508 H2514 0.984 . S
N2508 H2515 0.984 . S
N2509 C2502 1.356 . S
N2509 H2512 0.984 . S
N2509 H2513 0.985 . S
H2510 N2505 0.984 . S
H2511 N2505 0.985 . S
H2512 N2509 0.984 . S
H2513 N2509 0.985 . S
H2514 N2508 0.984 . S
H2515 N2508 0.984 . S
H2516 N2504 0.984 . S
H2517 N2504 0.985 . S
C2518 C2519 1.363 . S
C2518 C2524 1.379 . S
C2518 N2526 1.356 . S
C2519 C2518 1.363 . S
C2519 C2525 1.363 . S
C2520 C2521 1.363 . S
C2520 C2525 1.379 . S
C2520 N2527 1.356 . S
C2521 C2520 1.363 . S
C2521 C2524 1.363 . S
N2522 C2524 1.356 . S
N2522 H2534 0.984 . S
N2522 H2535 0.985 . S
N2523 C2525 1.356 . S
N2523 H2528 0.984 . S
N2523 H2529 0.985 . S
C2524 C2518 1.379 . S
C2524 C2521 1.363 . S
C2524 N2522 1.356 . S
C2525 C2519 1.363 . S
C2525 C2520 1.379 . S
C2525 N2523 1.356 . S
N2526 C2518 1.356 . S
N2526 H2532 0.984 . S
N2526 H2533 0.984 . S
N2527 C2520 1.356 . S
N2527 H2530 0.984 . S
N2527 H2531 0.985 . S
H2528 N2523 0.984 . S
H2529 N2523 0.985 . S
H2530 N2527 0.984 . S
H2531 N2527 0.985 . S
H2532 N2526 0.984 . S
H2533 N2526 0.984 . S
H2534 N2522 0.984 . S
H2535 N2522 0.985 . S
C2536 C2537 1.363 . S
C2536 C2542 1.379 . S
C2536 N2544 1.356 . S
C2537 C2536 1.363 . S
C2537 C2543 1.363 . S
C2538 C2539 1.363 . S
C2538 C2543 1.379 . S
C2538 N2545 1.356 . S
C2539 C2538 1.363 . S
C2539 C2542 1.363 . S
N2540 C2542 1.356 . S
N2540 H2552 0.984 . S
N2540 H2553 0.985 . S
N2541 C2543 1.356 . S
N2541 H2546 0.984 . S
N2541 H2547 0.985 . S
C2542 C2536 1.379 . S
C2542 C2539 1.363 . S
C2542 N2540 1.356 . S
C2543 C2537 1.363 . S
C2543 C2538 1.379 . S
C2543 N2541 1.356 . S
N2544 C2536 1.356 . S
N2544 H2550 0.984 . S
N2544 H2551 0.984 . S
N2545 C2538 1.356 . S
N2545 H2548 0.984 . S
N2545 H2549 0.985 . S
H2546 N2541 0.984 . S
H2547 N2541 0.985 . S
H2548 N2545 0.984 . S
H2549 N2545 0.985 . S
H2550 N2544 0.984 . S
H2551 N2544 0.984 . S
H2552 N2540 0.984 . S
H2553 N2540 0.985 . S
C2554 C2555 1.363 . S
C2554 C2560 1.379 1_565 S
C2554 N2562 1.356 . S
C2555 C2554 1.363 . S
C2555 C2561 1.363 . S
C2556 C2557 1.363 1_565 S
C2556 C2561 1.379 . S
C2556 N2563 1.356 . S
C2557 C2556 1.363 1_545 S
C2557 C2560 1.363 . S
N2558 C2560 1.356 . S
N2558 H2570 0.984 . S
N2558 H2571 0.985 . S
N2559 C2561 1.356 . S
N2559 H2564 0.984 . S
N2559 H2565 0.985 . S
C2560 C2554 1.379 1_545 S
C2560 C2557 1.363 . S
C2560 N2558 1.356 . S
C2561 C2555 1.363 . S
C2561 C2556 1.379 . S
C2561 N2559 1.356 . S
N2562 C2554 1.356 . S
N2562 H2568 0.965 1_565 S
N2562 H2569 0.984 . S
N2563 C2556 1.356 . S
N2563 H2566 0.984 1_565 S
N2563 H2567 0.985 . S
H2564 N2559 0.984 . S
H2565 N2559 0.985 . S
H2566 N2563 0.984 1_545 S
H2567 N2563 0.985 . S
H2568 N2562 0.965 1_545 S
H2569 N2562 0.984 . S
H2570 N2558 0.984 . S
H2571 N2558 0.985 . S
C2572 C2573 1.363 . S
C2572 C2578 1.379 . S
C2572 N2580 1.356 . S
C2573 C2572 1.363 . S
C2573 C2579 1.363 . S
C2574 C2575 1.363 . S
C2574 C2579 1.379 . S
C2574 N2581 1.356 . S
C2575 C2574 1.363 . S
C2575 C2578 1.363 . S
N2576 C2578 1.356 . S
N2576 H2588 0.984 . S
N2576 H2589 0.985 . S
N2577 C2579 1.356 . S
N2577 H2582 0.984 . S
N2577 H2583 0.985 . S
C2578 C2572 1.379 . S
C2578 C2575 1.363 . S
C2578 N2576 1.356 . S
C2579 C2573 1.363 . S
C2579 C2574 1.379 . S
C2579 N2577 1.356 . S
N2580 C2572 1.356 . S
N2580 H2586 0.984 . S
N2580 H2587 0.984 . S
N2581 C2574 1.356 . S
N2581 H2584 0.984 . S
N2581 H2585 0.985 . S
H2582 N2577 0.984 . S
H2583 N2577 0.985 . S
H2584 N2581 0.984 . S
H2585 N2581 0.985 . S
H2586 N2580 0.984 . S
H2587 N2580 0.984 . S
H2588 N2576 0.984 . S
H2589 N2576 0.985 . S
C2590 C2591 1.363 . S
C2590 C2596 1.379 . S
C2590 N2598 1.356 . S
C2591 C2590 1.363 . S
C2591 C2597 1.363 . S
C2592 C2593 1.363 . S
C2592 C2597 1.379 . S
C2592 N2599 1.356 . S
C2593 C2592 1.363 . S
C2593 C2596 1.363 . S
N2594 C2596 1.356 . S
N2594 H2606 0.984 1_554 S
N2594 H2607 0.985 . S
N2595 C2597 1.356 . S
N2595 H2600 0.984 . S
N2595 H2601 0.985 . S
C2596 C2590 1.379 . S
C2596 C2593 1.363 . S
C2596 N2594 1.356 . S
C2597 C2591 1.363 . S
C2597 C2592 1.379 . S
C2597 N2595 1.356 . S
N2598 C2590 1.356 . S
N2598 H2604 0.984 . S
N2598 H2605 0.984 . S
N2599 C2592 1.356 . S
N2599 H2602 0.984 . S
N2599 H2603 0.985 . S
H2600 N2595 0.984 . S
H2601 N2595 0.985 . S
H2602 N2599 0.984 . S
H2603 N2599 0.985 . S
H2604 N2598 0.984 . S
H2605 N2598 0.984 . S
H2606 N2594 0.984 1_556 S
H2607 N2594 0.985 . S
C2608 C2609 1.363 . S
C2608 C2614 1.379 . S
C2608 N2616 1.356 . S
C2609 C2608 1.363 . S
C2609 C2615 1.363 . S
C2610 C2611 1.363 . S
C2610 C2615 1.379 . S
C2610 N2617 1.356 . S
C2611 C2610 1.363 . S
C2611 C2614 1.363 . S
N2612 C2614 1.356 . S
N2612 H2624 0.984 . S
N2612 H2625 0.985 . S
N2613 C2615 1.356 . S
N2613 H2618 0.984 . S
N2613 H2619 0.985 . S
C2614 C2608 1.379 . S
C2614 C2611 1.363 . S
C2614 N2612 1.356 . S
C2615 C2609 1.363 . S
C2615 C2610 1.379 . S
C2615 N2613 1.356 . S
N2616 C2608 1.356 . S
N2616 H2622 0.984 . S
N2616 H2623 0.984 . S
N2617 C2610 1.356 . S
N2617 H2620 0.984 . S
N2617 H2621 0.985 . S
H2618 N2613 0.984 . S
H2619 N2613 0.985 . S
H2620 N2617 0.984 . S
H2621 N2617 0.985 . S
H2622 N2616 0.984 . S
H2623 N2616 0.984 . S
H2624 N2612 0.984 . S
H2625 N2612 0.985 . S
C2626 C2627 1.363 . S
C2626 C2632 1.379 1_554 S
C2626 N2634 1.356 . S
C2627 C2626 1.363 . S
C2627 C2633 1.363 . S
C2628 C2629 1.363 . S
C2628 C2633 1.379 . S
C2628 N2635 1.356 . S
C2629 C2628 1.363 . S
C2629 C2632 1.363 1_554 S
N2630 C2632 1.356 . S
N2630 H2642 0.984 . S
N2630 H2643 0.985 . S
N2631 C2633 1.356 . S
N2631 H2636 0.984 . S
N2631 H2637 0.985 . S
C2632 C2626 1.379 1_556 S
C2632 C2629 1.363 1_556 S
C2632 N2630 1.356 . S
C2633 C2627 1.363 . S
C2633 C2628 1.379 . S
C2633 N2631 1.356 . S
N2634 C2626 1.356 . S
N2634 H2640 0.984 1_554 S
N2634 H2641 0.984 . S
N2635 C2628 1.356 . S
N2635 H2638 0.984 . S
N2635 H2639 0.985 . S
H2636 N2631 0.984 . S
H2637 N2631 0.985 . S
H2638 N2635 0.984 . S
H2639 N2635 0.985 . S
H2640 N2634 0.984 1_556 S
H2641 N2634 0.984 . S
H2642 N2630 0.984 . S
H2643 N2630 0.985 . S
C2644 C2645 1.363 . S
C2644 C2650 1.379 . S
C2644 N2652 1.356 . S
C2645 C2644 1.363 . S
C2645 C2651 1.363 . S
C2646 C2647 1.363 . S
C2646 C2651 1.379 . S
C2646 N2653 1.356 . S
C2647 C2646 1.363 . S
C2647 C2650 1.363 . S
N2648 C2650 1.356 . S
N2648 H2660 0.984 . S
N2648 H2661 0.985 . S
N2649 C2651 1.356 . S
N2649 H2654 0.984 . S
N2649 H2655 0.985 . S
C2650 C2644 1.379 . S
C2650 C2647 1.363 . S
C2650 N2648 1.356 . S
C2651 C2645 1.363 . S
C2651 C2646 1.379 . S
C2651 N2649 1.356 . S
N2652 C2644 1.356 . S
N2652 H2658 0.984 . S
N2652 H2659 0.984 . S
N2653 C2646 1.356 . S
N2653 H2656 0.984 . S
N2653 H2657 0.985 . S
H2654 N2649 0.984 . S
H2655 N2649 0.985 . S
H2656 N2653 0.984 . S
H2657 N2653 0.985 . S
H2658 N2652 0.984 . S
H2659 N2652 0.984 . S
H2660 N2648 0.984 . S
H2661 N2648 0.985 . S
C2662 C2663 1.363 . S
C2662 C2668 1.379 . S
C2662 N2670 1.356 . S
C2663 C2662 1.363 . S
C2663 C2669 1.363 . S
C2664 C2665 1.363 . S
C2664 C2669 1.379 . S
C2664 N2671 1.356 . S
C2665 C2664 1.363 . S
C2665 C2668 1.363 . S
N2666 C2668 1.356 . S
N2666 H2678 0.984 . S
N2666 H2679 0.985 . S
N2667 C2669 1.356 . S
N2667 H2672 0.984 . S
N2667 H2673 0.985 . S
C2668 C2662 1.379 . S
C2668 C2665 1.363 . S
C2668 N2666 1.356 . S
C2669 C2663 1.363 . S
C2669 C2664 1.379 . S
C2669 N2667 1.356 . S
N2670 C2662 1.356 . S
N2670 H2676 0.984 . S
N2670 H2677 0.984 . S
N2671 C2664 1.356 . S
N2671 H2674 0.984 . S
N2671 H2675 0.985 . S
H2672 N2667 0.984 . S
H2673 N2667 0.985 . S
H2674 N2671 0.984 . S
H2675 N2671 0.985 . S
H2676 N2670 0.984 . S
H2677 N2670 0.984 . S
H2678 N2666 0.984 . S
H2679 N2666 0.985 . S
C953 C101 2.489 1_455 S
C955 C325 2.513 . S
C971 C57 2.102 . S
C973 C376 2.134 . S
C989 C73 1.820 . S
C991 C405 1.950 1_565 S
C1009 C449 1.398 . S
C1007 C78 1.416 . S
C1025 C21 1.358 . S
C1027 C489 1.351 . S
C1045 C525 1.873 . S
C1043 C31 1.747 . S
C1063 C575 2.003 . S
C1061 C49 1.946 . S
C1079 C0 2.316 . S
C1081 C605 2.488 . S
C1099 C335 2.078 . S
C1097 C218 2.130 . S
C1115 C229 0.790 . S
C1117 C378 0.783 . S
C1135 C415 1.334 . S
C1133 C257 1.308 . S
C1153 C445 1.573 . S
C1151 C164 1.461 . S
C1169 C216 1.490 1_455 S
C1171 C485 1.591 . S
C1189 C535 0.968 . S
C1187 C231 0.960 . S
C1207 C569 0.966 . S
C1205 C255 0.970 . S
C1225 C615 2.046 . S
C1223 C166 2.086 . S
C1243 C329 1.379 . S
C1241 C143 1.333 . S
C1259 C265 1.724 . S
C1261 C655 1.750 . S
C1279 C689 1.467 . S
C1277 C299 1.472 . S
C1297 C725 0.839 . S
C1295 C291 0.827 . S
C1313 C104 1.421 . S
C1315 C609 1.492 . S
C1331 C117 1.525 . S
C1333 C409 1.526 . S
C1349 C304 1.611 . S
C1351 C775 1.639 . S
C1369 C794 0.324 . S
C1367 C278 0.469 . S
C1387 C336 2.464 . S
C1385 C60 2.467 . S
C1405 C805 2.054 . S
C1403 C96 2.076 . S
C1421 C88 1.852 . S
C1423 C416 1.858 . S
C1439 C65 1.495 . S
C1441 C778 1.368 . S
C1459 C498 1.310 . S
C1457 C10 1.368 . S
C1475 C44 1.676 . S
C1477 C696 1.783 . S
C1495 C554 1.944 1_566 S
C1493 C34 1.838 . S
C1513 C856 2.432 . S
C1511 C13 2.443 . S
C1531 C314 2.020 . S
C1529 C138 2.046 . S
C1549 C809 0.797 . S
C1547 C296 0.805 . S
C1565 C112 1.298 . S
C1567 C394 1.294 . S
C1583 C270 1.481 . S
C1585 C776 1.481 . S
C1601 C140 1.496 . S
C1603 C496 1.492 . S
C1621 C674 0.918 . S
C1619 C294 0.912 . S
C1637 C114 0.990 1_565 S
C1639 C578 0.945 . S
C1655 C268 2.014 . S
C1657 C834 1.991 . S
C1673 C169 1.601 . S
C1675 C338 1.397 . S
C1691 C161 1.704 . S
C1693 C634 1.704 . S
C1709 C234 1.658 . S
C1711 C538 1.493 . S
C1727 C226 0.785 . S
C1729 C736 0.784 . S
C1747 C858 1.492 1_545 S
C1745 C247 1.665 . S
C1763 C195 1.721 . S
C1765 C418 1.548 . S
C1783 C434 1.590 . S
C1781 C239 1.589 . S
C1801 C375 0.259 . S
C1799 C187 0.302 . S
C1817 C75 2.490 . S
C1819 C885 2.513 . S
C1837 C816 2.134 . S
C1835 C83 2.102 . S
C1853 C99 1.820 . S
C1855 C925 1.970 . S
C1871 C52 1.394 1_655 S
C1873 C769 1.398 . S
C1889 C47 1.357 . S
C1891 C649 1.351 . S
C1909 C685 1.873 . S
C1907 C5 1.747 . S
C1927 C735 2.003 . S
C1925 C23 1.946 . S
C1945 C845 2.488 . S
C1943 C26 2.315 . S
C1963 C895 2.078 . S
C1961 C244 2.114 . S
C1979 C177 0.790 . S
C1981 C818 0.783 . S
C1999 C935 1.334 . S
C1997 C192 1.308 . S
C2017 C765 1.573 . S
C2015 C203 1.461 . S
C2035 C645 1.591 . S
C2033 C242 1.490 . S
C2051 C179 0.961 . S
C2053 C695 0.968 . S
C2071 C729 0.966 . S
C2069 C190 0.970 . S
C2087 C205 2.085 . S
C2089 C855 2.046 . S
C2107 C889 1.379 . S
C2105 C286 1.334 . S
C2123 C122 1.724 . S
C2125 C495 1.751 . S
C2143 C529 1.467 . S
C2141 C130 1.472 . S
C2161 C565 0.839 . S
C2159 C148 0.828 . S
C2179 C849 1.492 . S
C2177 C273 1.421 . S
C2195 C260 1.525 . S
C2197 C929 1.526 . S
C2215 C455 1.639 . S
C2213 C135 1.611 . S
C2233 C354 0.324 . S
C2231 C109 0.469 . S
C2249 C86 2.467 . S
C2251 C896 2.464 . S
C2269 C365 2.054 . S
C2267 C70 2.076 . S
C2285 C62 1.852 . S
C2287 C936 1.858 . S
C2303 C91 1.495 . S
C2305 C458 1.368 . S
C2321 C36 1.368 . S
C2323 C658 1.310 . S
C2341 C536 1.783 . S
C2339 C18 1.676 . S
C2357 C8 1.838 . S
C2359 C714 1.944 . S
C2375 C39 2.442 . S
C2377 C616 2.432 . S
C2395 C874 2.020 . S
C2393 C307 2.046 . S
C2411 C153 0.805 . S
C2413 C369 0.795 . S
C2431 C914 1.294 1_655 S
C2429 C281 1.298 . S
C2447 C127 1.481 . S
C2449 C456 1.481 . S
C2465 C309 1.496 . S
C2467 C656 1.492 . S
C2485 C514 0.918 . S
C2483 C151 0.914 . S
C2501 C283 0.990 . S
C2503 C738 0.945 . S
C2521 C594 1.991 . S
C2519 C125 2.014 . S
C2539 C898 1.397 . S
C2537 C221 1.602 . S
C2557 C474 1.704 . S
C2555 C200 1.704 . S
C2573 C208 1.658 . S
C2575 C698 1.493 . S
C2593 C576 0.784 . S
C2591 C174 0.785 . S
C2609 C182 1.666 . S
C2611 C618 1.492 . S
C2627 C156 1.721 . S
C2629 C938 1.547 1_554 S
C2647 C754 1.590 . S
C2645 C213 1.589 . S
C2665 C815 0.259 . S
C2663 C252 0.302 . S
