# Generated by pormake.
# Topology cml, (3,6)-cn, num edge types: 1
# Building blocks:
#     Node 0, Type 0, BuildingBlock: OLANEW_clean_sbu_2, # of connection points: 3
#     Node 1, Type 0, BuildingBlock: OLANEW_clean_sbu_2, # of connection points: 3
#     Node 2, Type 0, BuildingBlock: OLANEW_clean_sbu_2, # of connection points: 3
#     Node 3, Type 0, BuildingBlock: OLANEW_clean_sbu_2, # of connection points: 3
#     Node 4, Type 0, BuildingBlock: OLANEW_clean_sbu_2, # of connection points: 3
#     Node 5, Type 0, BuildingBlock: OLANEW_clean_sbu_2, # of connection points: 3
#     Node 6, Type 0, BuildingBlock: OLANEW_clean_sbu_2, # of connection points: 3
#     Node 7, Type 0, BuildingBlock: OLANEW_clean_sbu_2, # of connection points: 3
#     Node 8, Type 1, BuildingBlock: IZENUY_clean_sbu_0, # of connection points: 6
#     Node 9, Type 1, BuildingBlock: IZENUY_clean_sbu_0, # of connection points: 6
#     Node 10, Type 1, BuildingBlock: IZENUY_clean_sbu_0, # of connection points: 6
#     Node 11, Type 1, BuildingBlock: IZENUY_clean_sbu_0, # of connection points: 6
#     Edge 12, Type (0, 1), BuildingBlock: TEMPAE_clean_linker_10, # of connection points: 2
#     Edge 13, Type (0, 1), BuildingBlock: TEMPAE_clean_linker_10, # of connection points: 2
#     Edge 14, Type (0, 1), BuildingBlock: TEMPAE_clean_linker_10, # of connection points: 2
#     Edge 15, Type (0, 1), BuildingBlock: TEMPAE_clean_linker_10, # of connection points: 2
#     Edge 16, Type (0, 1), BuildingBlock: TEMPAE_clean_linker_10, # of connection points: 2
#     Edge 17, Type (0, 1), BuildingBlock: TEMPAE_clean_linker_10, # of connection points: 2
#     Edge 18, Type (0, 1), BuildingBlock: TEMPAE_clean_linker_10, # of connection points: 2
#     Edge 19, Type (0, 1), BuildingBlock: TEMPAE_clean_linker_10, # of connection points: 2
#     Edge 20, Type (0, 1), BuildingBlock: TEMPAE_clean_linker_10, # of connection points: 2
#     Edge 21, Type (0, 1), BuildingBlock: TEMPAE_clean_linker_10, # of connection points: 2
#     Edge 22, Type (0, 1), BuildingBlock: TEMPAE_clean_linker_10, # of connection points: 2
#     Edge 23, Type (0, 1), BuildingBlock: TEMPAE_clean_linker_10, # of connection points: 2
#     Edge 24, Type (0, 1), BuildingBlock: TEMPAE_clean_linker_10, # of connection points: 2
#     Edge 25, Type (0, 1), BuildingBlock: TEMPAE_clean_linker_10, # of connection points: 2
#     Edge 26, Type (0, 1), BuildingBlock: TEMPAE_clean_linker_10, # of connection points: 2
#     Edge 27, Type (0, 1), BuildingBlock: TEMPAE_clean_linker_10, # of connection points: 2
#     Edge 28, Type (0, 1), BuildingBlock: TEMPAE_clean_linker_10, # of connection points: 2
#     Edge 29, Type (0, 1), BuildingBlock: TEMPAE_clean_linker_10, # of connection points: 2
#     Edge 30, Type (0, 1), BuildingBlock: TEMPAE_clean_linker_10, # of connection points: 2
#     Edge 31, Type (0, 1), BuildingBlock: TEMPAE_clean_linker_10, # of connection points: 2
#     Edge 32, Type (0, 1), BuildingBlock: TEMPAE_clean_linker_10, # of connection points: 2
#     Edge 33, Type (0, 1), BuildingBlock: TEMPAE_clean_linker_10, # of connection points: 2
#     Edge 34, Type (0, 1), BuildingBlock: TEMPAE_clean_linker_10, # of connection points: 2
#     Edge 35, Type (0, 1), BuildingBlock: TEMPAE_clean_linker_10, # of connection points: 2
# Relax obj value: 0.016
# Max RMSD: 0.076
# Mean RMSD: 0.062
data_MOF--net-cml--node1-OLANEW_clean_sbu_2--node2-IZENUY_clean_sbu_0--edge1-TEMPAE_clean_linker_10
_symmetry_space_group_name_H-M    P1
_symmetry_Int_Tables_number       1
_symmetry_cell_setting            triclinic
loop_
_symmetry_equiv_pos_as_xyz
'x, y, z'
_cell_length_a     39.837106
_cell_length_b     43.904435
_cell_length_c     39.968137
_cell_angle_alpha  88.39888
_cell_angle_beta   87.710777
_cell_angle_gamma 88.645556
loop_
_atom_site_label
_atom_site_type_symbol
_atom_site_fract_x
_atom_site_fract_y
_atom_site_fract_z
_atom_type_partial_charge
O0 O 0.25766 0.46477 0.93865 0.0
Cd1 Cd 0.21246 0.4352 0.96689 0.0
O2 O 0.28957 0.4427 0.97562 0.0
Cd3 Cd 0.33223 0.4331 0.00723 0.0
O4 O 0.36017 0.41496 0.04954 0.0
C5 C 0.34317 0.4049 0.07493 0.0
O6 O 0.31021 0.40607 0.07438 0.0
C7 C 0.28622 0.4621 0.95167 0.0
C8 C 0.18827 0.38323 0.9377 0.0
O9 O 0.17525 0.40972 0.9317 0.0
O10 O 0.2138 0.38146 0.95628 0.0
O11 O 0.72991 0.61878 0.56925 0.0
Cd12 Cd 0.75194 0.60453 0.51365 0.0
O13 O 0.73342 0.57145 0.58876 0.0
Cd14 Cd 0.75124 0.55217 0.54156 0.0
O15 O 0.73131 0.52326 0.50411 0.0
C16 C 0.69953 0.52162 0.50713 0.0
O17 O 0.6836 0.53749 0.5305 0.0
C18 C 0.72559 0.59934 0.59313 0.0
C19 C 0.79468 0.64722 0.48305 0.0
O20 O 0.76279 0.64961 0.48014 0.0
O21 O 0.80624 0.62483 0.50072 0.0
O22 O 0.72878 0.43399 0.96016 0.0
Cd23 Cd 0.74862 0.38795 0.99041 0.0
O24 O 0.73334 0.46144 0.00496 0.0
Cd25 Cd 0.75172 0.42404 0.03673 0.0
O26 O 0.73434 0.3958 0.07926 0.0
C27 C 0.7029 0.39154 0.07952 0.0
O28 O 0.68589 0.4023 0.05409 0.0
C29 C 0.72506 0.45935 0.97472 0.0
C30 C 0.79627 0.3503 0.95796 0.0
O31 O 0.76476 0.34697 0.95425 0.0
O32 O 0.80522 0.37209 0.97612 0.0
O33 O 0.2976 0.56846 0.47367 0.0
Cd34 Cd 0.27161 0.60875 0.50799 0.0
O35 O 0.34487 0.59328 0.46769 0.0
Cd36 Cd 0.33069 0.62861 0.50318 0.0
O37 O 0.34423 0.64784 0.5504 0.0
C38 C 0.33302 0.63616 0.57796 0.0
O39 O 0.31088 0.61449 0.57731 0.0
C40 C 0.32745 0.57038 0.46134 0.0
C41 C 0.22391 0.64562 0.4758 0.0
O42 O 0.25526 0.65165 0.47326 0.0
O43 O 0.21521 0.62185 0.49307 0.0
O44 O 0.76449 0.95861 0.93734 0.0
Cd45 Cd 0.72038 0.92785 0.96579 0.0
O46 O 0.79523 0.94082 0.97771 0.0
Cd47 Cd 0.8366 0.93591 0.01191 0.0
O48 O 0.86383 0.92094 0.05603 0.0
C49 C 0.84857 0.90354 0.07726 0.0
O50 O 0.8178 0.89554 0.07147 0.0
C51 C 0.79223 0.95835 0.95206 0.0
C52 C 0.69308 0.87853 0.93415 0.0
O53 O 0.68037 0.90552 0.93095 0.0
O54 O 0.71969 0.87509 0.95102 0.0
O55 O 0.25022 0.11708 0.5793 0.0
Cd56 Cd 0.28228 0.09988 0.52956 0.0
O57 O 0.20385 0.10033 0.55895 0.0
Cd58 Cd 0.22474 0.08224 0.51218 0.0
O59 O 0.21057 0.05243 0.47274 0.0
C60 C 0.21726 0.02401 0.47476 0.0
O61 O 0.23598 0.01346 0.49902 0.0
C62 C 0.21873 0.11306 0.58219 0.0
C63 C 0.31628 0.14629 0.49438 0.0
O64 O 0.28612 0.13991 0.48754 0.0
O65 O 0.3301 0.13093 0.51809 0.0
O66 O 0.25173 0.94817 0.97396 0.0
Cd67 Cd 0.28513 0.91003 0.00495 0.0
O68 O 0.21191 0.9437 0.01339 0.0
Cd69 Cd 0.23546 0.90859 0.04493 0.0
O70 O 0.2286 0.88043 0.09031 0.0
C71 C 0.20841 0.85851 0.08953 0.0
O72 O 0.19588 0.85197 0.06073 0.0
C73 C 0.22292 0.95607 0.98611 0.0
C74 C 0.3205 0.86615 0.96756 0.0
O75 O 0.2895 0.86263 0.97635 0.0
O76 O 0.3344 0.89082 0.9756 0.0
O77 O 0.7784 0.0541 0.47315 0.0
Cd78 Cd 0.74337 0.09033 0.50556 0.0
O79 O 0.81822 0.05766 0.50934 0.0
Cd80 Cd 0.79505 0.09127 0.54272 0.0
O81 O 0.80707 0.11437 0.5882 0.0
C82 C 0.83273 0.13108 0.58601 0.0
O83 O 0.84774 0.13555 0.55646 0.0
C84 C 0.80733 0.04615 0.48314 0.0
C85 C 0.70483 0.13233 0.46872 0.0
O86 O 0.73474 0.13844 0.47671 0.0
O87 O 0.69352 0.10606 0.47741 0.0
Fe88 Fe 0.00763 0.80581 0.32717 0.0
Fe89 Fe 0.00626 0.83991 0.39338 0.0
O90 O 0.00832 0.84032 0.34906 0.0
Fe91 Fe 0.01117 0.87548 0.32662 0.0
O92 O 0.97219 0.86929 0.30653 0.0
O93 O 0.9848 0.82249 0.29146 0.0
O94 O 0.9671 0.79609 0.34634 0.0
C95 C 0.96077 0.79426 0.37751 0.0
C96 C 0.05465 0.83646 0.28883 0.0
O97 O 0.9797 0.8064 0.39781 0.0
C98 C 0.05416 0.88493 0.37635 0.0
O99 O 0.03045 0.78322 0.35883 0.0
O100 O 0.0444 0.81675 0.39544 0.0
O101 O 0.0361 0.86015 0.29117 0.0
O102 O 0.04822 0.81297 0.30655 0.0
C103 C 0.96501 0.88891 0.38003 0.0
O104 O 0.03268 0.87341 0.39696 0.0
O105 O 0.05049 0.88364 0.34527 0.0
C106 C 0.04912 0.79135 0.3818 0.0
O107 O 0.96784 0.86299 0.39415 0.0
O108 O 0.98657 0.8975 0.35782 0.0
C109 C 0.96723 0.84686 0.28848 0.0
Fe110 Fe 0.01597 0.15304 0.8873 0.0
Fe111 Fe 0.02111 0.11654 0.82286 0.0
O112 O 0.01876 0.15195 0.84299 0.0
Fe113 Fe 0.01941 0.18623 0.81859 0.0
O114 O 0.0572 0.19816 0.83761 0.0
O115 O 0.0401 0.18831 0.88969 0.0
O116 O 0.0556 0.13199 0.8909 0.0
C117 C 0.06193 0.10627 0.87851 0.0
C118 C 0.97181 0.19931 0.87124 0.0
O119 O 0.04388 0.09638 0.85604 0.0
C120 C 0.97844 0.15256 0.78189 0.0
O121 O 0.99107 0.11803 0.89274 0.0
O122 O 0.98091 0.1055 0.84125 0.0
O123 O 0.99233 0.20793 0.84806 0.0
O124 O 0.97632 0.17422 0.88676 0.0
C125 C 0.06704 0.1482 0.78432 0.0
O126 O 0.99859 0.13012 0.78588 0.0
O127 O 0.98153 0.17653 0.79801 0.0
C128 C 0.97383 0.10394 0.87226 0.0
O129 O 0.06161 0.12527 0.80325 0.0
O130 O 0.04673 0.17086 0.78457 0.0
C131 C 0.05996 0.20151 0.86859 0.0
Fe132 Fe 0.50983 0.3122 0.3183 0.0
Fe133 Fe 0.50576 0.34299 0.38655 0.0
O134 O 0.50995 0.34557 0.34232 0.0
Fe135 Fe 0.51444 0.38163 0.32206 0.0
O136 O 0.49276 0.37153 0.28463 0.0
O137 O 0.47331 0.3258 0.29586 0.0
O138 O 0.48085 0.29152 0.3474 0.0
C139 C 0.46056 0.30064 0.37047 0.0
C140 C 0.55986 0.34821 0.28491 0.0
O141 O 0.4654 0.32518 0.38499 0.0
C142 C 0.55366 0.38634 0.37905 0.0
O143 O 0.54632 0.29642 0.33885 0.0
O144 O 0.52813 0.30595 0.39023 0.0
O145 O 0.55496 0.37058 0.30374 0.0
O146 O 0.53899 0.32683 0.28506 0.0
C147 C 0.46625 0.39562 0.36983 0.0
O148 O 0.54596 0.36054 0.39121 0.0
O149 O 0.53697 0.39859 0.35579 0.0
C150 C 0.54837 0.29235 0.37008 0.0
O151 O 0.48259 0.37965 0.39085 0.0
O152 O 0.47413 0.39491 0.33902 0.0
C153 C 0.47188 0.35099 0.2799 0.0
Fe154 Fe 0.51276 0.65417 0.8841 0.0
Fe155 Fe 0.5172 0.61632 0.82078 0.0
O156 O 0.51475 0.6522 0.8399 0.0
Fe157 Fe 0.51482 0.68588 0.81454 0.0
O158 O 0.55275 0.69872 0.83266 0.0
O159 O 0.53684 0.68952 0.88524 0.0
O160 O 0.55265 0.63349 0.8873 0.0
C161 C 0.55851 0.60739 0.87582 0.0
C162 C 0.46828 0.7001 0.86795 0.0
O163 O 0.53974 0.59668 0.85453 0.0
C164 C 0.47423 0.65111 0.77894 0.0
O165 O 0.48785 0.61913 0.89056 0.0
O166 O 0.477 0.60578 0.83944 0.0
O167 O 0.4879 0.70808 0.84371 0.0
O168 O 0.47311 0.67531 0.88395 0.0
C169 C 0.56292 0.64757 0.78183 0.0
O170 O 0.49482 0.62904 0.78329 0.0
O171 O 0.47679 0.67527 0.79483 0.0
C172 C 0.47021 0.60479 0.87055 0.0
O173 O 0.55782 0.62495 0.8013 0.0
O174 O 0.54193 0.6697 0.78072 0.0
C175 C 0.55616 0.70253 0.86349 0.0
C176 C 0.14243 0.35748 0.90894 0.0
C177 C 0.17291 0.35537 0.92536 0.0
C178 C 0.12599 0.33124 0.89966 0.0
C179 C 0.14046 0.30211 0.90673 0.0
C180 C 0.17167 0.29981 0.92247 0.0
C181 C 0.18747 0.32646 0.9317 0.0
C182 C 0.09271 0.3347 0.88297 0.0
C183 C 0.18806 0.26918 0.93011 0.0
C184 C 0.07969 0.23641 0.91209 0.0
C185 C 0.08316 0.22488 0.87972 0.0
C186 C 0.0989 0.26098 0.92155 0.0
C187 C 0.1224 0.27415 0.89819 0.0
C188 C 0.12712 0.26171 0.86601 0.0
C189 C 0.10738 0.23734 0.85712 0.0
C190 C 0.09304 0.27363 0.95609 0.0
C191 C 0.15219 0.27483 0.84052 0.0
H192 H 0.13092 0.37968 0.90399 0.0
H193 H 0.21102 0.32458 0.94435 0.0
H194 H 0.09406 0.32327 0.85853 0.0
H195 H 0.07281 0.32346 0.89876 0.0
H196 H 0.08513 0.35897 0.87866 0.0
H197 H 0.2131 0.27131 0.941 0.0
H198 H 0.17176 0.25596 0.94805 0.0
H199 H 0.19108 0.25587 0.90695 0.0
H200 H 0.06106 0.227 0.92973 0.0
H201 H 0.11049 0.22843 0.83214 0.0
H202 H 0.08255 0.29721 0.95398 0.0
H203 H 0.11715 0.27477 0.96888 0.0
H204 H 0.07537 0.25971 0.97196 0.0
H205 H 0.1441 0.29832 0.83307 0.0
H206 H 0.15484 0.26101 0.81767 0.0
H207 H 0.17719 0.27633 0.85156 0.0
C208 C 0.80467 0.69614 0.45079 0.0
C209 C 0.81755 0.66952 0.46628 0.0
C210 C 0.82618 0.71752 0.43504 0.0
C211 C 0.86134 0.71196 0.43451 0.0
C212 C 0.87444 0.68497 0.44976 0.0
C213 C 0.85241 0.66415 0.46559 0.0
C214 C 0.81133 0.7462 0.41933 0.0
C215 C 0.91179 0.67814 0.44952 0.0
C216 C 0.91903 0.75312 0.37108 0.0
C217 C 0.93325 0.77482 0.39103 0.0
C218 C 0.89497 0.73291 0.3847 0.0
C219 C 0.88465 0.73472 0.41892 0.0
C220 C 0.89794 0.75736 0.4388 0.0
C221 C 0.92218 0.77702 0.42466 0.0
C222 C 0.88147 0.70895 0.36277 0.0
C223 C 0.88724 0.7603 0.47527 0.0
H224 H 0.77776 0.70047 0.45126 0.0
H225 H 0.86254 0.64356 0.47734 0.0
H226 H 0.82077 0.76646 0.43167 0.0
H227 H 0.81936 0.74807 0.39247 0.0
H228 H 0.78343 0.74685 0.42137 0.0
H229 H 0.91785 0.65566 0.46152 0.0
H230 H 0.9223 0.67839 0.42338 0.0
H231 H 0.92459 0.69605 0.46295 0.0
H232 H 0.92746 0.75127 0.34508 0.0
H233 H 0.93276 0.79396 0.44015 0.0
H234 H 0.8536 0.70997 0.36371 0.0
H235 H 0.88925 0.68597 0.37227 0.0
H236 H 0.89062 0.71164 0.33626 0.0
H237 H 0.85946 0.76229 0.47806 0.0
H238 H 0.89825 0.7804 0.48664 0.0
H239 H 0.89517 0.73952 0.48958 0.0
C240 C 0.81157 0.30562 0.92225 0.0
C241 C 0.82151 0.32877 0.94301 0.0
C242 C 0.835 0.28411 0.9094 0.0
C243 C 0.86913 0.28567 0.91766 0.0
C244 C 0.87938 0.30917 0.93828 0.0
C245 C 0.85548 0.33048 0.95061 0.0
C246 C 0.82317 0.25953 0.88725 0.0
C247 C 0.91555 0.31157 0.9477 0.0
C248 C 0.92551 0.2147 0.91224 0.0
C249 C 0.94429 0.2205 0.88239 0.0
C250 C 0.90064 0.23552 0.92379 0.0
C251 C 0.8942 0.26267 0.90492 0.0
C252 C 0.91246 0.26828 0.87436 0.0
C253 C 0.93731 0.2472 0.86352 0.0
C254 C 0.88175 0.22877 0.95657 0.0
C255 C 0.90612 0.29682 0.85335 0.0
H256 H 0.78539 0.30413 0.91623 0.0
H257 H 0.86338 0.34822 0.96669 0.0
H258 H 0.83746 0.26025 0.86285 0.0
H259 H 0.82805 0.23678 0.89908 0.0
H260 H 0.79593 0.2619 0.88253 0.0
H261 H 0.91947 0.33131 0.96377 0.0
H262 H 0.92364 0.29044 0.96129 0.0
H263 H 0.93205 0.31387 0.92479 0.0
H264 H 0.93066 0.19414 0.92699 0.0
H265 H 0.95147 0.2518 0.84028 0.0
H266 H 0.8543 0.22923 0.9528 0.0
H267 H 0.8867 0.24663 0.97472 0.0
H268 H 0.889 0.20623 0.96773 0.0
H269 H 0.87917 0.29884 0.84745 0.0
H270 H 0.92141 0.29714 0.82949 0.0
H271 H 0.91211 0.31717 0.86764 0.0
C272 C 0.20835 0.69009 0.4384 0.0
C273 C 0.19843 0.666 0.46011 0.0
C274 C 0.18451 0.71026 0.42441 0.0
C275 C 0.14992 0.70644 0.43259 0.0
C276 C 0.13973 0.68199 0.45421 0.0
C277 C 0.16408 0.66198 0.46757 0.0
C278 C 0.19634 0.73586 0.40118 0.0
C279 C 0.10311 0.67728 0.46373 0.0
C280 C 0.09099 0.77541 0.42448 0.0
C281 C 0.0752 0.76981 0.39456 0.0
C282 C 0.11534 0.75498 0.4371 0.0
C283 C 0.12443 0.72845 0.41921 0.0
C284 C 0.10892 0.72284 0.38879 0.0
C285 C 0.08439 0.7435 0.37692 0.0
C286 C 0.13111 0.76166 0.46976 0.0
C287 C 0.11822 0.69499 0.3688 0.0
H288 H 0.23483 0.6933 0.4324 0.0
H289 H 0.15618 0.64349 0.48439 0.0
H290 H 0.18386 0.73489 0.37692 0.0
H291 H 0.18927 0.75814 0.41219 0.0
H292 H 0.22399 0.73499 0.39628 0.0
H293 H 0.09927 0.65688 0.48038 0.0
H294 H 0.09257 0.69758 0.47674 0.0
H295 H 0.08859 0.6747 0.44091 0.0
H296 H 0.08407 0.79563 0.43834 0.0
H297 H 0.07253 0.73908 0.35365 0.0
H298 H 0.15876 0.76315 0.4659 0.0
H299 H 0.12624 0.74279 0.48823 0.0
H300 H 0.1213 0.7833 0.4806 0.0
H301 H 0.14558 0.69454 0.36238 0.0
H302 H 0.10437 0.69428 0.34527 0.0
H303 H 0.11274 0.67406 0.38404 0.0
C304 C 0.6901 0.82238 0.92463 0.0
C305 C 0.6762 0.8519 0.92075 0.0
C306 C 0.67288 0.79675 0.91469 0.0
C307 C 0.64091 0.80069 0.9007 0.0
C308 C 0.62714 0.83047 0.89597 0.0
C309 C 0.64497 0.85568 0.90595 0.0
C310 C 0.68854 0.76541 0.91986 0.0
C311 C 0.59311 0.83566 0.88117 0.0
C312 C 0.60316 0.73857 0.85046 0.0
C313 C 0.57997 0.72572 0.87387 0.0
C314 C 0.62388 0.76234 0.85911 0.0
C315 C 0.62127 0.77373 0.89191 0.0
C316 C 0.59865 0.76028 0.91595 0.0
C317 C 0.5784 0.73637 0.90669 0.0
C318 C 0.64791 0.77583 0.83285 0.0
C319 C 0.59504 0.77181 0.95118 0.0
H320 H 0.71422 0.81921 0.93601 0.0
H321 H 0.63397 0.87835 0.90288 0.0
H322 H 0.67277 0.75195 0.93808 0.0
H323 H 0.68965 0.75305 0.89599 0.0
H324 H 0.71433 0.7663 0.92934 0.0
H325 H 0.58636 0.86026 0.87823 0.0
H326 H 0.59268 0.82512 0.85629 0.0
H327 H 0.57353 0.82456 0.89751 0.0
H328 H 0.60479 0.73036 0.8251 0.0
H329 H 0.56059 0.72665 0.92498 0.0
H330 H 0.67367 0.77603 0.8424 0.0
H331 H 0.64033 0.79983 0.82713 0.0
H332 H 0.64859 0.76305 0.80922 0.0
H333 H 0.61987 0.77156 0.96281 0.0
H334 H 0.5775 0.75799 0.96731 0.0
H335 H 0.58557 0.79578 0.95056 0.0
C336 C 0.31987 0.18665 0.4488 0.0
C337 C 0.3349 0.17027 0.47512 0.0
C338 C 0.33765 0.20889 0.42989 0.0
C339 C 0.37123 0.21483 0.43748 0.0
C340 C 0.38644 0.19853 0.46417 0.0
C341 C 0.36809 0.17647 0.48265 0.0
C342 C 0.32062 0.22586 0.40166 0.0
C343 C 0.42221 0.20424 0.47308 0.0
C344 C 0.43255 0.25006 0.37325 0.0
C345 C 0.43442 0.27991 0.38462 0.0
C346 C 0.41103 0.22894 0.3894 0.0
C347 C 0.39081 0.2379 0.41752 0.0
C348 C 0.39126 0.2684 0.42804 0.0
C349 C 0.41304 0.28903 0.41147 0.0
C350 C 0.41114 0.19665 0.37733 0.0
C351 C 0.3699 0.27889 0.45778 0.0
H352 H 0.29423 0.18201 0.44281 0.0
H353 H 0.37991 0.16395 0.50294 0.0
H354 H 0.32077 0.25075 0.40574 0.0
H355 H 0.33465 0.22174 0.37761 0.0
H356 H 0.29421 0.21889 0.39928 0.0
H357 H 0.43025 0.18979 0.49471 0.0
H358 H 0.43951 0.19961 0.45127 0.0
H359 H 0.42489 0.22851 0.47928 0.0
H360 H 0.44881 0.24279 0.35245 0.0
H361 H 0.41405 0.31209 0.42031 0.0
H362 H 0.38509 0.18939 0.37366 0.0
H363 H 0.42197 0.18102 0.39656 0.0
H364 H 0.42604 0.19401 0.35345 0.0
H365 H 0.34336 0.27255 0.45517 0.0
H366 H 0.37083 0.30392 0.46086 0.0
H367 H 0.3788 0.26735 0.48095 0.0
C368 C 0.37533 0.8426 0.94809 0.0
C369 C 0.34013 0.84185 0.95008 0.0
C370 C 0.39449 0.81879 0.93366 0.0
C371 C 0.37806 0.7938 0.92041 0.0
C372 C 0.34251 0.79327 0.92156 0.0
C373 C 0.32396 0.81719 0.93664 0.0
C374 C 0.43237 0.82006 0.93324 0.0
C375 C 0.32412 0.76728 0.90717 0.0
C376 C 0.43175 0.74659 0.85967 0.0
C377 C 0.44236 0.72221 0.88042 0.0
C378 C 0.40964 0.76939 0.87198 0.0
C379 C 0.39831 0.76805 0.90599 0.0
C380 C 0.40808 0.743 0.92678 0.0
C381 C 0.42977 0.72023 0.91366 0.0
C382 C 0.39928 0.79541 0.84884 0.0
C383 C 0.39682 0.7409 0.96328 0.0
H384 H 0.38802 0.86149 0.95857 0.0
H385 H 0.29676 0.81652 0.93798 0.0
H386 H 0.44273 0.80006 0.94731 0.0
H387 H 0.44278 0.81898 0.90714 0.0
H388 H 0.44126 0.84113 0.94449 0.0
H389 H 0.29642 0.77097 0.90865 0.0
H390 H 0.33228 0.76432 0.88057 0.0
H391 H 0.33037 0.74571 0.92089 0.0
H392 H 0.44112 0.7481 0.83385 0.0
H393 H 0.43792 0.70152 0.92988 0.0
H394 H 0.41019 0.81688 0.85698 0.0
H395 H 0.37155 0.79862 0.85 0.0
H396 H 0.40773 0.79164 0.82242 0.0
H397 H 0.40715 0.76012 0.97677 0.0
H398 H 0.40516 0.71918 0.9756 0.0
H399 H 0.36904 0.74286 0.96593 0.0
C400 C 0.65071 0.14836 0.44285 0.0
C401 C 0.68344 0.15538 0.4513 0.0
C402 C 0.62941 0.17051 0.42829 0.0
C403 C 0.64106 0.20043 0.42209 0.0
C404 C 0.6743 0.20751 0.42987 0.0
C405 C 0.6951 0.1849 0.44434 0.0
C406 C 0.59417 0.16204 0.42023 0.0
C407 C 0.68763 0.23916 0.42364 0.0
C408 C 0.59348 0.25208 0.36137 0.0
C409 C 0.57277 0.26936 0.38328 0.0
C410 C 0.61602 0.22975 0.37362 0.0
C411 C 0.618 0.22459 0.40861 0.0
C412 C 0.59752 0.2422 0.43086 0.0
C413 C 0.57517 0.26432 0.41795 0.0
C414 C 0.63745 0.21144 0.34911 0.0
C415 C 0.59898 0.23748 0.46835 0.0
H416 H 0.64149 0.12562 0.44806 0.0
H417 H 0.72035 0.19054 0.45078 0.0
H418 H 0.57568 0.17564 0.43541 0.0
H419 H 0.58959 0.16747 0.3935 0.0
H420 H 0.58942 0.13747 0.42526 0.0
H421 H 0.71449 0.24064 0.42977 0.0
H422 H 0.68492 0.24627 0.39701 0.0
H423 H 0.67275 0.25566 0.43904 0.0
H424 H 0.59192 0.25581 0.33455 0.0
H425 H 0.55943 0.2776 0.43512 0.0
H426 H 0.63166 0.1869 0.35226 0.0
H427 H 0.66443 0.21381 0.35419 0.0
H428 H 0.63343 0.21866 0.32268 0.0
H429 H 0.59199 0.2138 0.47555 0.0
H430 H 0.5819 0.25347 0.48226 0.0
H431 H 0.625 0.2406 0.47636 0.0
C432 C 0.34758 0.4737 0.9435 0.0
C433 C 0.31379 0.48268 0.9406 0.0
C434 C 0.37364 0.49342 0.93337 0.0
C435 C 0.36572 0.52289 0.92014 0.0
C436 C 0.33162 0.53209 0.91728 0.0
C437 C 0.30612 0.51181 0.92729 0.0
C438 C 0.40966 0.48254 0.9363 0.0
C439 C 0.32203 0.56333 0.9035 0.0
C440 C 0.43231 0.58414 0.91741 0.0
C441 C 0.44355 0.58394 0.88368 0.0
C442 C 0.40708 0.56435 0.92971 0.0
C443 C 0.39299 0.54366 0.90787 0.0
C444 C 0.40444 0.54319 0.87391 0.0
C445 C 0.42935 0.56338 0.86223 0.0
C446 C 0.39528 0.56575 0.966 0.0
C447 C 0.39033 0.52137 0.84981 0.0
H448 H 0.35372 0.45099 0.95295 0.0
H449 H 0.28005 0.51897 0.9251 0.0
H450 H 0.42231 0.48211 0.91107 0.0
H451 H 0.42352 0.49856 0.95137 0.0
H452 H 0.41165 0.45939 0.94809 0.0
H453 H 0.29439 0.56743 0.90414 0.0
H454 H 0.33366 0.58114 0.91811 0.0
H455 H 0.33174 0.56602 0.87721 0.0
H456 H 0.44301 0.59994 0.93417 0.0
H457 H 0.43788 0.56285 0.83616 0.0
H458 H 0.39888 0.54314 0.97859 0.0
H459 H 0.368 0.57148 0.96772 0.0
H460 H 0.40889 0.58295 0.9798 0.0
H461 H 0.39356 0.49758 0.85943 0.0
H462 H 0.40262 0.52327 0.82441 0.0
H463 H 0.36298 0.52588 0.84762 0.0
C464 C 0.69726 0.48293 0.46225 0.0
C465 C 0.68062 0.50142 0.48602 0.0
C466 C 0.67929 0.46307 0.44302 0.0
C467 C 0.64393 0.46176 0.44773 0.0
C468 C 0.62703 0.48055 0.47148 0.0
C469 C 0.64556 0.50014 0.4903 0.0
C470 C 0.69807 0.44339 0.41781 0.0
C471 C 0.58932 0.47988 0.47717 0.0
C472 C 0.58804 0.43306 0.38152 0.0
C473 C 0.5795 0.40422 0.39486 0.0
C474 C 0.61025 0.4515 0.39769 0.0
C475 C 0.62425 0.44087 0.42794 0.0
C476 C 0.61695 0.41128 0.44076 0.0
C477 C 0.59469 0.39326 0.42403 0.0
C478 C 0.61756 0.48288 0.38315 0.0
C479 C 0.63148 0.39916 0.47295 0.0
H480 H 0.72435 0.48379 0.45883 0.0
H481 H 0.63247 0.51436 0.50856 0.0
H482 H 0.69384 0.41898 0.42411 0.0
H483 H 0.68841 0.44801 0.39247 0.0
H484 H 0.72554 0.44735 0.41692 0.0
H485 H 0.58003 0.496 0.49657 0.0
H486 H 0.57679 0.48578 0.45348 0.0
H487 H 0.58161 0.45656 0.48508 0.0
H488 H 0.57674 0.44161 0.35879 0.0
H489 H 0.58846 0.37093 0.43439 0.0
H490 H 0.64505 0.48648 0.38132 0.0
H491 H 0.60635 0.50039 0.39997 0.0
H492 H 0.60725 0.48659 0.3579 0.0
H493 H 0.65913 0.40174 0.47213 0.0
H494 H 0.62578 0.37476 0.47795 0.0
H495 H 0.62101 0.41255 0.49424 0.0
C496 C 0.7047 0.48758 0.92361 0.0
C497 C 0.70673 0.48514 0.95852 0.0
C498 C 0.68374 0.50985 0.90867 0.0
C499 C 0.66351 0.52934 0.92922 0.0
C500 C 0.66634 0.52758 0.9644 0.0
C501 C 0.68828 0.50585 0.97855 0.0
C502 C 0.68227 0.51175 0.871 0.0
C503 C 0.64457 0.54728 0.98731 0.0
C504 C 0.61706 0.59959 0.89505 0.0
C505 C 0.58543 0.5878 0.8896 0.0
C506 C 0.64322 0.5806 0.9068 0.0
C507 C 0.63707 0.54946 0.91442 0.0
C508 C 0.60494 0.53765 0.90929 0.0
C509 C 0.57971 0.55685 0.89635 0.0
C510 C 0.67744 0.59377 0.91085 0.0
C511 C 0.59696 0.50485 0.91809 0.0
H512 H 0.71905 0.47174 0.90802 0.0
H513 H 0.68948 0.50394 0.00559 0.0
H514 H 0.65794 0.50299 0.86328 0.0
H515 H 0.68379 0.5358 0.86187 0.0
H516 H 0.70288 0.49823 0.85856 0.0
H517 H 0.65114 0.54428 0.01397 0.0
H518 H 0.64695 0.57168 0.97988 0.0
H519 H 0.61782 0.54143 0.98509 0.0
H520 H 0.62153 0.62347 0.88933 0.0
H521 H 0.55517 0.54782 0.8922 0.0
H522 H 0.69681 0.5802 0.89671 0.0
H523 H 0.68394 0.59248 0.93757 0.0
H524 H 0.67864 0.61792 0.9019 0.0
H525 H 0.61376 0.48937 0.90329 0.0
H526 H 0.5705 0.49947 0.9133 0.0
H527 H 0.60148 0.49994 0.94495 0.0
C528 C 0.3269 0.51717 0.43975 0.0
C529 C 0.34343 0.54482 0.44254 0.0
C530 C 0.34367 0.49162 0.42595 0.0
C531 C 0.37773 0.49379 0.41478 0.0
C532 C 0.39403 0.522 0.41613 0.0
C533 C 0.37668 0.54714 0.42989 0.0
C534 C 0.32537 0.46199 0.42459 0.0
C535 C 0.4303 0.52534 0.40437 0.0
C536 C 0.43679 0.42468 0.41589 0.0
C537 C 0.44088 0.41859 0.38168 0.0
C538 C 0.41528 0.44838 0.4271 0.0
C539 C 0.39723 0.46631 0.40358 0.0
C540 C 0.40003 0.45939 0.3692 0.0
C541 C 0.42188 0.43568 0.35865 0.0
C542 C 0.41302 0.45506 0.46399 0.0
C543 C 0.38095 0.47778 0.3434 0.0
H544 H 0.30121 0.51513 0.44939 0.0
H545 H 0.38967 0.56841 0.43172 0.0
H546 H 0.32836 0.45245 0.3992 0.0
H547 H 0.3364 0.44506 0.44238 0.0
H548 H 0.29812 0.46479 0.43114 0.0
H549 H 0.43872 0.54922 0.40539 0.0
H550 H 0.44665 0.5107 0.42027 0.0
H551 H 0.43401 0.5176 0.37827 0.0
H552 H 0.45122 0.41156 0.4339 0.0
H553 H 0.42458 0.43097 0.33218 0.0
H554 H 0.38638 0.4559 0.47317 0.0
H555 H 0.42364 0.47774 0.46807 0.0
H556 H 0.42686 0.43776 0.47926 0.0
H557 H 0.35395 0.47971 0.35115 0.0
H558 H 0.38321 0.4676 0.31825 0.0
H559 H 0.39075 0.50123 0.3414 0.0
C560 C 0.81091 0.00762 0.9255 0.0
C561 C 0.81921 0.97942 0.94076 0.0
C562 C 0.83589 0.02838 0.9154 0.0
C563 C 0.87012 0.02058 0.92009 0.0
C564 C 0.87868 0.99199 0.93516 0.0
C565 C 0.85311 0.97181 0.94543 0.0
C566 C 0.82564 0.05871 0.89972 0.0
C567 C 0.91488 0.98254 0.94002 0.0
C568 C 0.93479 0.06121 0.86345 0.0
C569 C 0.94722 0.08282 0.8848 0.0
C570 C 0.91007 0.04067 0.87475 0.0
C571 C 0.89696 0.04192 0.90813 0.0
C572 C 0.90918 0.06377 0.9298 0.0
C573 C 0.93433 0.08382 0.91795 0.0
C574 C 0.89805 0.01753 0.85092 0.0
C575 C 0.89551 0.06611 0.96542 0.0
H576 H 0.78473 0.01368 0.92195 0.0
H577 H 0.85974 0.94978 0.95644 0.0
H578 H 0.83568 0.07756 0.91401 0.0
H579 H 0.8365 0.06074 0.87378 0.0
H580 H 0.79791 0.06175 0.89891 0.0
H581 H 0.91733 0.95979 0.95269 0.0
H582 H 0.92868 0.98186 0.91537 0.0
H583 H 0.92724 0.99952 0.95514 0.0
H584 H 0.94466 0.06007 0.83784 0.0
H585 H 0.94365 0.10049 0.93458 0.0
H586 H 0.87073 0.02096 0.84738 0.0
H587 H 0.90182 0.99416 0.86162 0.0
H588 H 0.91139 0.01903 0.826 0.0
H589 H 0.868 0.07077 0.9656 0.0
H590 H 0.90751 0.08442 0.97905 0.0
H591 H 0.89954 0.04414 0.97922 0.0
C592 C 0.17277 0.01364 0.43453 0.0
C593 C 0.19918 0.00276 0.4541 0.0
C594 C 0.15168 0.9935 0.41929 0.0
C595 C 0.15742 0.9617 0.42333 0.0
C596 C 0.1854 0.95059 0.44112 0.0
C597 C 0.20587 0.97127 0.45648 0.0
C598 C 0.12201 0.00625 0.40064 0.0
C599 C 0.1927 0.91683 0.44539 0.0
C600 C 0.08018 0.91305 0.42184 0.0
C601 C 0.08161 0.90316 0.38876 0.0
C602 C 0.10504 0.93169 0.4335 0.0
C603 C 0.1323 0.94028 0.4117 0.0
C604 C 0.1345 0.92958 0.3786 0.0
C605 C 0.10898 0.91131 0.36743 0.0
C606 C 0.10162 0.94289 0.4689 0.0
C607 C 0.1635 0.93784 0.35486 0.0
H608 H 0.16746 0.03793 0.43243 0.0
H609 H 0.22641 0.96267 0.47131 0.0
H610 H 0.12134 0.99619 0.37554 0.0
H611 H 0.09835 1.00013 0.41456 0.0
H612 H 0.12259 0.03146 0.39748 0.0
H613 H 0.21766 0.91204 0.45607 0.0
H614 H 0.17318 0.90649 0.46241 0.0
H615 H 0.19181 0.90547 0.421 0.0
H616 H 0.05912 0.90687 0.43847 0.0
H617 H 0.11042 0.90347 0.34192 0.0
H618 H 0.09948 0.96814 0.46847 0.0
H619 H 0.12436 0.93633 0.48279 0.0
H620 H 0.07927 0.9336 0.48286 0.0
H621 H 0.163 0.96277 0.34951 0.0
H622 H 0.16273 0.92591 0.33076 0.0
H623 H 0.18772 0.93206 0.36655 0.0
C624 C 0.21376 0.99596 0.94061 0.0
C625 C 0.20172 0.97958 0.96909 0.0
C626 C 0.19341 0.01819 0.92473 0.0
C627 C 0.16025 0.02397 0.93751 0.0
C628 C 0.1481 0.00764 0.96633 0.0
C629 C 0.16895 0.98578 0.98176 0.0
C630 C 0.20724 0.03529 0.89412 0.0
C631 C 0.11281 0.01291 0.98063 0.0
C632 C 0.1102 0.09633 0.91631 0.0
C633 C 0.08865 0.086 0.89233 0.0
C634 C 0.13466 0.07674 0.93026 0.0
C635 C 0.13746 0.04607 0.92018 0.0
C636 C 0.11641 0.03578 0.89535 0.0
C637 C 0.0924 0.05586 0.88167 0.0
C638 C 0.15686 0.0886 0.95649 0.0
C639 C 0.11838 0.00321 0.88407 0.0
H640 H 0.23906 0.99143 0.93073 0.0
H641 H 0.15932 0.9733 0.00373 0.0
H642 H 0.19226 0.03038 0.87218 0.0
H643 H 0.20514 0.06021 0.89796 0.0
H644 H 0.23397 0.02909 0.88817 0.0
H645 H 0.10746 0.99877 0.00362 0.0
H646 H 0.10882 0.03725 0.98676 0.0
H647 H 0.09434 0.0075 0.96173 0.0
H648 H 0.10774 0.11964 0.92447 0.0
H649 H 0.07605 0.04763 0.86303 0.0
H650 H 0.18365 0.08335 0.94988 0.0
H651 H 0.15088 0.07707 0.98099 0.0
H652 H 0.15361 0.1136 0.95944 0.0
H653 H 0.14455 0.99693 0.87605 0.0
H654 H 0.10172 0.99931 0.86304 0.0
H655 H 0.11102 0.98764 0.90532 0.0
C656 C 0.86119 0.01641 0.47575 0.0
C657 C 0.82853 0.02304 0.46525 0.0
C658 C 0.88159 0.99407 0.46026 0.0
C659 C 0.86914 0.97777 0.43354 0.0
C660 C 0.83631 0.98439 0.42256 0.0
C661 C 0.81637 0.00702 0.43852 0.0
C662 C 0.91652 0.98786 0.47264 0.0
C663 C 0.82223 0.96744 0.39413 0.0
C664 C 0.93694 0.94055 0.37811 0.0
C665 C 0.93853 0.91083 0.39198 0.0
C666 C 0.91346 0.96221 0.39043 0.0
C667 C 0.8909 0.95399 0.41723 0.0
C668 C 0.89142 0.92372 0.43044 0.0
C669 C 0.91524 0.9025 0.41769 0.0
C670 C 0.91376 0.99425 0.37566 0.0
C671 C 0.86766 0.91404 0.45894 0.0
H672 H 0.87094 0.02866 0.49629 0.0
H673 H 0.79117 0.01192 0.43028 0.0
H674 H 0.91911 0.96371 0.48126 0.0
H675 H 0.93545 0.99158 0.4519 0.0
H676 H 0.92246 0.00265 0.49362 0.0
H677 H 0.79635 0.9754 0.38843 0.0
H678 H 0.83861 0.97036 0.37121 0.0
H679 H 0.82182 0.94269 0.40048 0.0
H680 H 0.95459 0.9472 0.35803 0.0
H681 H 0.91601 0.87954 0.42836 0.0
H682 H 0.92212 0.01015 0.3946 0.0
H683 H 0.88807 0.00171 0.36882 0.0
H684 H 0.9308 0.99628 0.35306 0.0
H685 H 0.87378 0.926 0.48194 0.0
H686 H 0.86912 0.88908 0.46428 0.0
H687 H 0.8414 0.92053 0.45315 0.0
C688 C 0.34127 0.38647 0.13478 0.0
C689 C 0.36009 0.39304 0.10512 0.0
C690 C 0.35707 0.3769 0.16416 0.0
C691 C 0.3925 0.37362 0.1638 0.0
C692 C 0.41153 0.37913 0.13363 0.0
C693 C 0.39511 0.38891 0.10469 0.0
C694 C 0.33596 0.37149 0.1959 0.0
C695 C 0.44937 0.37567 0.13219 0.0
C696 C 0.43953 0.38583 0.24255 0.0
C697 C 0.44843 0.35593 0.25245 0.0
C698 C 0.4203 0.39175 0.21445 0.0
C699 C 0.40999 0.36715 0.19548 0.0
C700 C 0.41784 0.3368 0.20598 0.0
C701 C 0.43684 0.33151 0.23458 0.0
C702 C 0.412 0.42443 0.20446 0.0
C703 C 0.40736 0.31004 0.18627 0.0
H704 H 0.31418 0.38953 0.13533 0.0
H705 H 0.40981 0.39368 0.08182 0.0
H706 H 0.34231 0.34891 0.20741 0.0
H707 H 0.34146 0.38895 0.21435 0.0
H708 H 0.30862 0.37257 0.1914 0.0
H709 H 0.46021 0.37834 0.10626 0.0
H710 H 0.46031 0.39306 0.14789 0.0
H711 H 0.45712 0.35296 0.14249 0.0
H712 H 0.44809 0.40477 0.25657 0.0
H713 H 0.44378 0.30837 0.24211 0.0
H714 H 0.38457 0.42752 0.20137 0.0
H715 H 0.42471 0.4302 0.17998 0.0
H716 H 0.41997 0.44077 0.22318 0.0
H717 H 0.38001 0.31152 0.18205 0.0
H718 H 0.41321 0.28788 0.19909 0.0
H719 H 0.42056 0.31053 0.16129 0.0
C720 C 0.70781 0.63806 0.63569 0.0
C721 C 0.7073 0.60814 0.62439 0.0
C722 C 0.6876 0.64697 0.66354 0.0
C723 C 0.66552 0.62575 0.67945 0.0
C724 C 0.66544 0.59539 0.66845 0.0
C725 C 0.68675 0.58685 0.64144 0.0
C726 C 0.68928 0.67921 0.67542 0.0
C727 C 0.64163 0.57225 0.68408 0.0
C728 C 0.62218 0.63439 0.76496 0.0
C729 C 0.59037 0.64548 0.75625 0.0
C730 C 0.64781 0.62991 0.74035 0.0
C731 C 0.64086 0.63542 0.7062 0.0
C732 C 0.6089 0.6473 0.69744 0.0
C733 C 0.58421 0.65273 0.7227 0.0
C734 C 0.6819 0.61831 0.75078 0.0
C735 C 0.60009 0.65254 0.6613 0.0
H736 H 0.72381 0.65452 0.62262 0.0
H737 H 0.68599 0.56378 0.63255 0.0
H738 H 0.66561 0.69182 0.66987 0.0
H739 H 0.69189 0.67919 0.70296 0.0
H740 H 0.71059 0.69167 0.66315 0.0
H741 H 0.64488 0.54954 0.67265 0.0
H742 H 0.64555 0.56957 0.71132 0.0
H743 H 0.61528 0.58033 0.6811 0.0
H744 H 0.6269 0.62905 0.79104 0.0
H745 H 0.55944 0.66107 0.71606 0.0
H746 H 0.70206 0.63167 0.73776 0.0
H747 H 0.68567 0.59423 0.74351 0.0
H748 H 0.68469 0.61951 0.77825 0.0
H749 H 0.61866 0.66754 0.64816 0.0
H750 H 0.57462 0.66302 0.65881 0.0
H751 H 0.60104 0.63048 0.64835 0.0
C752 C 0.70252 0.36702 0.13703 0.0
C753 C 0.68491 0.37857 0.10955 0.0
C754 C 0.68536 0.35793 0.16693 0.0
C755 C 0.64989 0.36091 0.16943 0.0
C756 C 0.63197 0.37132 0.14129 0.0
C757 C 0.64968 0.3798 0.11165 0.0
C758 C 0.70522 0.34632 0.19622 0.0
C759 C 0.59413 0.37501 0.14297 0.0
C760 C 0.59404 0.32485 0.23784 0.0
C761 C 0.58682 0.3498 0.25834 0.0
C762 C 0.61637 0.32747 0.20988 0.0
C763 C 0.63139 0.35581 0.20204 0.0
C764 C 0.62563 0.38054 0.22367 0.0
C765 C 0.60363 0.37716 0.25169 0.0
C766 C 0.6225 0.30041 0.1878 0.0
C767 C 0.641 0.41122 0.21609 0.0
H768 H 0.72974 0.36577 0.13549 0.0
H769 H 0.63584 0.38857 0.09052 0.0
H770 H 0.70422 0.36357 0.21602 0.0
H771 H 0.69414 0.3252 0.20729 0.0
H772 H 0.73199 0.34155 0.18891 0.0
H773 H 0.5839 0.38192 0.11838 0.0
H774 H 0.58242 0.35338 0.15166 0.0
H775 H 0.58651 0.39258 0.16139 0.0
H776 H 0.58149 0.30349 0.24306 0.0
H777 H 0.59841 0.39653 0.26747 0.0
H778 H 0.64969 0.29744 0.18128 0.0
H779 H 0.60938 0.30432 0.16404 0.0
H780 H 0.61321 0.27898 0.19996 0.0
H781 H 0.66854 0.40866 0.21146 0.0
H782 H 0.63618 0.42734 0.23676 0.0
H783 H 0.63038 0.42139 0.19296 0.0
C784 C 0.37729 0.66139 0.60937 0.0
C785 C 0.34868 0.64333 0.60975 0.0
C786 C 0.3954 0.66467 0.6384 0.0
C787 C 0.38445 0.64978 0.66862 0.0
C788 C 0.35447 0.63305 0.66967 0.0
C789 C 0.33699 0.62992 0.64017 0.0
C790 C 0.42731 0.68266 0.63623 0.0
C791 C 0.34174 0.61721 0.70154 0.0
C792 C 0.45241 0.62661 0.7287 0.0
C793 C 0.44997 0.65007 0.75186 0.0
C794 C 0.4309 0.6261 0.70182 0.0
C795 C 0.40606 0.64942 0.69814 0.0
C796 C 0.40282 0.67272 0.7219 0.0
C797 C 0.42493 0.67286 0.74841 0.0
C798 C 0.43531 0.60093 0.67689 0.0
C799 C 0.37635 0.69773 0.71901 0.0
H800 H 0.38647 0.67193 0.58603 0.0
H801 H 0.31476 0.61612 0.64077 0.0
H802 H 0.4271 0.69954 0.65637 0.0
H803 H 0.44923 0.66702 0.63991 0.0
H804 H 0.4309 0.69487 0.61168 0.0
H805 H 0.31615 0.60816 0.69919 0.0
H806 H 0.35903 0.59794 0.70797 0.0
H807 H 0.3412 0.63307 0.72269 0.0
H808 H 0.47166 0.60891 0.73112 0.0
H809 H 0.42271 0.69095 0.76634 0.0
H810 H 0.44171 0.61083 0.65165 0.0
H811 H 0.41146 0.58865 0.67513 0.0
H812 H 0.45541 0.58419 0.6837 0.0
H813 H 0.38114 0.71147 0.69566 0.0
H814 H 0.37587 0.71317 0.74059 0.0
H815 H 0.35115 0.68776 0.71739 0.0
C816 C 0.84706 0.87492 0.13236 0.0
C817 C 0.8648 0.89286 0.10834 0.0
C818 C 0.86174 0.86526 0.16232 0.0
C819 C 0.89496 0.87371 0.16839 0.0
C820 C 0.91317 0.89144 0.14405 0.0
C821 C 0.89786 0.90083 0.11435 0.0
C822 C 0.84153 0.84642 0.1877 0.0
C823 C 0.94871 0.90084 0.14959 0.0
C824 C 0.92486 0.87789 0.257 0.0
C825 C 0.94529 0.8515 0.25959 0.0
C826 C 0.9074 0.88483 0.22788 0.0
C827 C 0.91044 0.86493 0.20062 0.0
C828 C 0.92974 0.83756 0.2036 0.0
C829 C 0.94688 0.83112 0.23311 0.0
C830 C 0.8868 0.9141 0.2258 0.0
C831 C 0.93348 0.81574 0.17509 0.0
H832 H 0.82151 0.8686 0.12794 0.0
H833 H 0.91178 0.91461 0.0959 0.0
H834 H 0.85528 0.82481 0.19368 0.0
H835 H 0.83802 0.85894 0.21136 0.0
H836 H 0.81642 0.84091 0.1787 0.0
H837 H 0.95977 0.91386 0.12778 0.0
H838 H 0.94912 0.91519 0.17199 0.0
H839 H 0.96488 0.88041 0.15449 0.0
H840 H 0.92323 0.89365 0.27743 0.0
H841 H 0.96258 0.81068 0.23485 0.0
H842 H 0.861 0.90943 0.21817 0.0
H843 H 0.89825 0.92965 0.20642 0.0
H844 H 0.88512 0.92601 0.24999 0.0
H845 H 0.90845 0.80985 0.16629 0.0
H846 H 0.94717 0.79437 0.18231 0.0
H847 H 0.94744 0.8268 0.15364 0.0
C848 C 0.16483 0.11515 0.61611 0.0
C849 C 0.19912 0.12179 0.61292 0.0
C850 C 0.14588 0.12153 0.64543 0.0
C851 C 0.16145 0.13509 0.67232 0.0
C852 C 0.19587 0.14249 0.66914 0.0
C853 C 0.21437 0.13566 0.63946 0.0
C854 C 0.10923 0.11321 0.64781 0.0
C855 C 0.2132 0.15716 0.69726 0.0
C856 C 0.09874 0.17052 0.73442 0.0
C857 C 0.09445 0.14662 0.75816 0.0
C858 C 0.12204 0.16785 0.70732 0.0
C859 C 0.14149 0.14065 0.70388 0.0
C860 C 0.1387 0.11719 0.72879 0.0
C861 C 0.11526 0.12047 0.75566 0.0
C862 C 0.12445 0.19346 0.68138 0.0
C863 C 0.15906 0.08784 0.72608 0.0
H864 H 0.15272 0.10446 0.59581 0.0
H865 H 0.24083 0.14091 0.6372 0.0
H866 H 0.10487 0.09647 0.66876 0.0
H867 H 0.09334 0.1337 0.65328 0.0
H868 H 0.1008 0.10324 0.62442 0.0
H869 H 0.23965 0.16278 0.69028 0.0
H870 H 0.19944 0.17836 0.70459 0.0
H871 H 0.21301 0.14159 0.71961 0.0
H872 H 0.08307 0.19097 0.73631 0.0
H873 H 0.11246 0.10201 0.77407 0.0
H874 H 0.11336 0.18628 0.65791 0.0
H875 H 0.1511 0.19886 0.67535 0.0
H876 H 0.11097 0.21449 0.68983 0.0
H877 H 0.15032 0.07471 0.70489 0.0
H878 H 0.15677 0.07337 0.74927 0.0
H879 H 0.18598 0.09266 0.72079 0.0
C880 C 0.16502 0.82743 0.12057 0.0
C881 C 0.19351 0.84554 0.1212 0.0
C882 C 0.14579 0.82094 0.14995 0.0
C883 C 0.15553 0.8326 0.18068 0.0
C884 C 0.18618 0.84812 0.182 0.0
C885 C 0.20478 0.85452 0.15217 0.0
C886 C 0.11333 0.80422 0.14746 0.0
C887 C 0.19778 0.8604 0.21438 0.0
C888 C 0.084 0.85947 0.2384 0.0
C889 C 0.08155 0.83545 0.26219 0.0
C890 C 0.1082 0.85879 0.21209 0.0
C891 C 0.1309 0.83359 0.20957 0.0
C892 C 0.12918 0.80952 0.23386 0.0
C893 C 0.10435 0.81065 0.25985 0.0
C894 C 0.10903 0.88491 0.18662 0.0
C895 C 0.15327 0.78251 0.23214 0.0
H896 H 0.15632 0.82005 0.09682 0.0
H897 H 0.22709 0.86811 0.15297 0.0
H898 H 0.11024 0.78711 0.16822 0.0
H899 H 0.09187 0.82074 0.14958 0.0
H900 H 0.11203 0.79253 0.12327 0.0
H901 H 0.22468 0.86659 0.21249 0.0
H902 H 0.18263 0.88112 0.22076 0.0
H903 H 0.19407 0.8435 0.23528 0.0
H904 H 0.06655 0.87875 0.23994 0.0
H905 H 0.10275 0.79209 0.27827 0.0
H906 H 0.1048 0.87632 0.16132 0.0
H907 H 0.13409 0.89546 0.18569 0.0
H908 H 0.08969 0.90286 0.19234 0.0
H909 H 0.14928 0.76971 0.20915 0.0
H910 H 0.15008 0.76672 0.25419 0.0
H911 H 0.17958 0.79033 0.23059 0.0
C912 C 0.87939 0.15618 0.61385 0.0
C913 C 0.84889 0.1408 0.6166 0.0
C914 C 0.89802 0.16112 0.64217 0.0
C915 C 0.88577 0.15056 0.67403 0.0
C916 C 0.85393 0.1369 0.6773 0.0
C917 C 0.83585 0.13214 0.64851 0.0
C918 C 0.93182 0.17588 0.63763 0.0
C919 C 0.83988 0.12563 0.71091 0.0
C920 C 0.95247 0.12636 0.73496 0.0
C921 C 0.95347 0.15175 0.75541 0.0
C922 C 0.93011 0.12556 0.70884 0.0
C923 C 0.90798 0.15069 0.70305 0.0
C924 C 0.9082 0.1761 0.72406 0.0
C925 C 0.93101 0.17637 0.74998 0.0
C926 C 0.93068 0.09801 0.68697 0.0
C927 C 0.88479 0.20319 0.71878 0.0
H928 H 0.88955 0.1632 0.58936 0.0
H929 H 0.81219 0.12044 0.65092 0.0
H930 H 0.93407 0.19428 0.65582 0.0
H931 H 0.95201 0.15868 0.64257 0.0
H932 H 0.93615 0.18563 0.61191 0.0
H933 H 0.8131 0.11931 0.70991 0.0
H934 H 0.8546 0.10527 0.71934 0.0
H935 H 0.84204 0.14326 0.73001 0.0
H936 H 0.96957 0.10716 0.739 0.0
H937 H 0.93143 0.19601 0.76579 0.0
H938 H 0.93767 0.10489 0.66073 0.0
H939 H 0.90531 0.08813 0.68697 0.0
H940 H 0.94878 0.08002 0.69538 0.0
H941 H 0.89076 0.21436 0.69408 0.0
H942 H 0.88666 0.22032 0.73852 0.0
H943 H 0.85842 0.19566 0.71848 0.0
loop_
_geom_bond_atom_site_label_1
_geom_bond_atom_site_label_2
_geom_bond_distance
_geom_bond_site_symmetry_2
_ccdc_geom_bond_type
O0 Cd1 2.300 . S
O0 C7 1.275 . S
Cd1 O0 2.300 . S
Cd1 O9 2.381 . S
Cd1 O10 2.378 . S
O2 Cd3 2.385 1_556 S
O2 C7 1.255 . S
Cd3 O2 2.385 1_554 S
Cd3 O4 2.317 . S
O4 Cd3 2.317 . S
O4 C5 1.232 . S
C5 O4 1.232 . S
C5 O6 1.218 . S
O6 C5 1.218 . S
C7 O0 1.275 . S
C7 O2 1.255 . S
C8 O9 1.258 . S
C8 O10 1.256 . S
O9 Cd1 2.381 . S
O9 C8 1.258 . S
O10 Cd1 2.378 . S
O10 C8 1.256 . S
O11 Cd12 2.300 . S
O11 C18 1.275 . S
Cd12 O11 2.300 . S
Cd12 O20 2.381 . S
Cd12 O21 2.378 . S
O13 Cd14 2.385 . S
O13 C18 1.255 . S
Cd14 O13 2.385 . S
Cd14 O15 2.317 . S
O15 Cd14 2.317 . S
O15 C16 1.232 . S
C16 O15 1.232 . S
C16 O17 1.218 . S
O17 C16 1.218 . S
C18 O11 1.275 . S
C18 O13 1.255 . S
C19 O20 1.258 . S
C19 O21 1.256 . S
O20 Cd12 2.381 . S
O20 C19 1.258 . S
O21 Cd12 2.378 . S
O21 C19 1.256 . S
O22 Cd23 2.300 . S
O22 C29 1.275 . S
Cd23 O22 2.300 . S
Cd23 O31 2.381 . S
Cd23 O32 2.378 . S
O24 Cd25 2.385 . S
O24 C29 1.255 1_554 S
Cd25 O24 2.385 . S
Cd25 O26 2.317 . S
O26 Cd25 2.317 . S
O26 C27 1.232 . S
C27 O26 1.232 . S
C27 O28 1.218 . S
O28 C27 1.218 . S
C29 O22 1.275 . S
C29 O24 1.255 1_556 S
C30 O31 1.258 . S
C30 O32 1.256 . S
O31 Cd23 2.381 . S
O31 C30 1.258 . S
O32 Cd23 2.378 . S
O32 C30 1.256 . S
O33 Cd34 2.300 . S
O33 C40 1.275 . S
Cd34 O33 2.300 . S
Cd34 O42 2.381 . S
Cd34 O43 2.378 . S
O35 Cd36 2.385 . S
O35 C40 1.255 . S
Cd36 O35 2.385 . S
Cd36 O37 2.317 . S
O37 Cd36 2.317 . S
O37 C38 1.232 . S
C38 O37 1.232 . S
C38 O39 1.218 . S
O39 C38 1.218 . S
C40 O33 1.275 . S
C40 O35 1.255 . S
C41 O42 1.258 . S
C41 O43 1.256 . S
O42 Cd34 2.381 . S
O42 C41 1.258 . S
O43 Cd34 2.378 . S
O43 C41 1.256 . S
O44 Cd45 2.300 . S
O44 C51 1.275 . S
Cd45 O44 2.300 . S
Cd45 O53 2.381 . S
Cd45 O54 2.378 . S
O46 Cd47 2.385 1_556 S
O46 C51 1.255 . S
Cd47 O46 2.385 1_554 S
Cd47 O48 2.317 . S
O48 Cd47 2.317 . S
O48 C49 1.232 . S
C49 O48 1.232 . S
C49 O50 1.218 . S
O50 C49 1.218 . S
C51 O44 1.275 . S
C51 O46 1.255 . S
C52 O53 1.258 . S
C52 O54 1.256 . S
O53 Cd45 2.381 . S
O53 C52 1.258 . S
O54 Cd45 2.378 . S
O54 C52 1.256 . S
O55 Cd56 2.300 . S
O55 C62 1.275 . S
Cd56 O55 2.300 . S
Cd56 O64 2.381 . S
Cd56 O65 2.378 . S
O57 Cd58 2.385 . S
O57 C62 1.255 . S
Cd58 O57 2.385 . S
Cd58 O59 2.317 . S
O59 Cd58 2.317 . S
O59 C60 1.232 . S
C60 O59 1.232 . S
C60 O61 1.218 . S
O61 C60 1.218 . S
C62 O55 1.275 . S
C62 O57 1.255 . S
C63 O64 1.258 . S
C63 O65 1.256 . S
O64 Cd56 2.381 . S
O64 C63 1.258 . S
O65 Cd56 2.378 . S
O65 C63 1.256 . S
O66 Cd67 2.300 . S
O66 C73 1.275 . S
Cd67 O66 2.300 . S
Cd67 O75 2.381 . S
Cd67 O76 2.378 . S
O68 Cd69 2.385 . S
O68 C73 1.255 1_554 S
Cd69 O68 2.385 . S
Cd69 O70 2.317 . S
O70 Cd69 2.317 . S
O70 C71 1.232 . S
C71 O70 1.232 . S
C71 O72 1.218 . S
O72 C71 1.218 . S
C73 O66 1.275 . S
C73 O68 1.255 1_556 S
C74 O75 1.258 . S
C74 O76 1.256 . S
O75 Cd67 2.381 . S
O75 C74 1.258 . S
O76 Cd67 2.378 . S
O76 C74 1.256 . S
O77 Cd78 2.300 . S
O77 C84 1.275 . S
Cd78 O77 2.300 . S
Cd78 O86 2.381 . S
Cd78 O87 2.378 . S
O79 Cd80 2.385 . S
O79 C84 1.255 . S
Cd80 O79 2.385 . S
Cd80 O81 2.317 . S
O81 Cd80 2.317 . S
O81 C82 1.232 . S
C82 O81 1.232 . S
C82 O83 1.218 . S
O83 C82 1.218 . S
C84 O77 1.275 . S
C84 O79 1.255 . S
C85 O86 1.258 . S
C85 O87 1.256 . S
O86 Cd78 2.381 . S
O86 C85 1.258 . S
O87 Cd78 2.378 . S
O87 C85 1.256 . S
Fe88 O90 1.918 . S
Fe88 O93 1.997 1_455 S
Fe88 O94 2.002 1_455 S
Fe88 O99 1.976 . S
Fe88 O102 1.996 . S
Fe89 O90 1.918 . S
Fe89 O97 1.997 1_455 S
Fe89 O100 1.996 . S
Fe89 O104 1.976 . S
Fe89 O107 2.002 1_455 S
O90 Fe88 1.918 . S
O90 Fe89 1.918 . S
O90 Fe91 1.918 . S
Fe91 O90 1.918 . S
Fe91 O92 2.002 1_455 S
Fe91 O101 1.976 . S
Fe91 O105 1.996 . S
Fe91 O108 1.997 1_455 S
O92 Fe91 2.002 1_655 S
O92 C109 1.295 . S
O93 Fe88 1.997 1_655 S
O93 C109 1.235 . S
O94 Fe88 2.002 1_655 S
O94 C95 1.295 . S
C95 O94 1.295 . S
C95 O97 1.235 . S
C96 O101 1.287 . S
C96 O102 1.255 . S
O97 Fe89 1.997 1_655 S
O97 C95 1.235 . S
C98 O104 1.287 . S
C98 O105 1.255 . S
O99 Fe88 1.976 . S
O99 C106 1.287 . S
O100 Fe89 1.996 . S
O100 C106 1.255 . S
O101 Fe91 1.976 . S
O101 C96 1.287 . S
O102 Fe88 1.996 . S
O102 C96 1.255 . S
C103 O107 1.295 . S
C103 O108 1.235 . S
O104 Fe89 1.976 . S
O104 C98 1.287 . S
O105 Fe91 1.996 . S
O105 C98 1.255 . S
C106 O99 1.287 . S
C106 O100 1.255 . S
O107 Fe89 2.002 1_655 S
O107 C103 1.295 . S
O108 Fe91 1.997 1_655 S
O108 C103 1.235 . S
C109 O92 1.295 . S
C109 O93 1.235 . S
Fe110 O112 1.918 . S
Fe110 O115 1.997 . S
Fe110 O116 2.002 . S
Fe110 O121 1.976 1_455 S
Fe110 O124 1.996 1_455 S
Fe111 O112 1.918 . S
Fe111 O119 1.997 . S
Fe111 O122 1.996 1_455 S
Fe111 O126 1.976 1_455 S
Fe111 O129 2.002 . S
O112 Fe110 1.918 . S
O112 Fe111 1.918 . S
O112 Fe113 1.918 . S
Fe113 O112 1.918 . S
Fe113 O114 2.002 . S
Fe113 O123 1.976 1_455 S
Fe113 O127 1.996 1_455 S
Fe113 O130 1.997 . S
O114 Fe113 2.002 . S
O114 C131 1.295 . S
O115 Fe110 1.997 . S
O115 C131 1.235 . S
O116 Fe110 2.002 . S
O116 C117 1.295 . S
C117 O116 1.295 . S
C117 O119 1.235 . S
C118 O123 1.287 . S
C118 O124 1.255 . S
O119 Fe111 1.997 . S
O119 C117 1.235 . S
C120 O126 1.287 . S
C120 O127 1.255 . S
O121 Fe110 1.976 1_655 S
O121 C128 1.287 . S
O122 Fe111 1.996 1_655 S
O122 C128 1.255 . S
O123 Fe113 1.976 1_655 S
O123 C118 1.287 . S
O124 Fe110 1.996 1_655 S
O124 C118 1.255 . S
C125 O129 1.295 . S
C125 O130 1.235 . S
O126 Fe111 1.976 1_655 S
O126 C120 1.287 . S
O127 Fe113 1.996 1_655 S
O127 C120 1.255 . S
C128 O121 1.287 . S
C128 O122 1.255 . S
O129 Fe111 2.002 . S
O129 C125 1.295 . S
O130 Fe113 1.997 . S
O130 C125 1.235 . S
C131 O114 1.295 . S
C131 O115 1.235 . S
Fe132 O134 1.918 . S
Fe132 O137 1.997 . S
Fe132 O138 2.002 . S
Fe132 O143 1.976 . S
Fe132 O146 1.996 . S
Fe133 O134 1.918 . S
Fe133 O141 1.997 . S
Fe133 O144 1.996 . S
Fe133 O148 1.976 . S
Fe133 O151 2.002 . S
O134 Fe132 1.918 . S
O134 Fe133 1.918 . S
O134 Fe135 1.918 . S
Fe135 O134 1.918 . S
Fe135 O136 2.002 . S
Fe135 O145 1.976 . S
Fe135 O149 1.996 . S
Fe135 O152 1.997 . S
O136 Fe135 2.002 . S
O136 C153 1.295 . S
O137 Fe132 1.997 . S
O137 C153 1.235 . S
O138 Fe132 2.002 . S
O138 C139 1.295 . S
C139 O138 1.295 . S
C139 O141 1.235 . S
C140 O145 1.287 . S
C140 O146 1.255 . S
O141 Fe133 1.997 . S
O141 C139 1.235 . S
C142 O148 1.287 . S
C142 O149 1.255 . S
O143 Fe132 1.976 . S
O143 C150 1.287 . S
O144 Fe133 1.996 . S
O144 C150 1.255 . S
O145 Fe135 1.976 . S
O145 C140 1.287 . S
O146 Fe132 1.996 . S
O146 C140 1.255 . S
C147 O151 1.295 . S
C147 O152 1.235 . S
O148 Fe133 1.976 . S
O148 C142 1.287 . S
O149 Fe135 1.996 . S
O149 C142 1.255 . S
C150 O143 1.287 . S
C150 O144 1.255 . S
O151 Fe133 2.002 . S
O151 C147 1.295 . S
O152 Fe135 1.997 . S
O152 C147 1.235 . S
C153 O136 1.295 . S
C153 O137 1.235 . S
Fe154 O156 1.918 . S
Fe154 O159 1.997 . S
Fe154 O160 2.002 . S
Fe154 O165 1.976 . S
Fe154 O168 1.996 . S
Fe155 O156 1.918 . S
Fe155 O163 1.997 . S
Fe155 O166 1.996 . S
Fe155 O170 1.976 . S
Fe155 O173 2.002 . S
O156 Fe154 1.918 . S
O156 Fe155 1.918 . S
O156 Fe157 1.918 . S
Fe157 O156 1.918 . S
Fe157 O158 2.002 . S
Fe157 O167 1.976 . S
Fe157 O171 1.996 . S
Fe157 O174 1.997 . S
O158 Fe157 2.002 . S
O158 C175 1.295 . S
O159 Fe154 1.997 . S
O159 C175 1.235 . S
O160 Fe154 2.002 . S
O160 C161 1.295 . S
C161 O160 1.295 . S
C161 O163 1.235 . S
C162 O167 1.287 . S
C162 O168 1.255 . S
O163 Fe155 1.997 . S
O163 C161 1.235 . S
C164 O170 1.287 . S
C164 O171 1.255 . S
O165 Fe154 1.976 . S
O165 C172 1.287 . S
O166 Fe155 1.996 . S
O166 C172 1.255 . S
O167 Fe157 1.976 . S
O167 C162 1.287 . S
O168 Fe154 1.996 . S
O168 C162 1.255 . S
C169 O173 1.295 . S
C169 O174 1.235 . S
O170 Fe155 1.976 . S
O170 C164 1.287 . S
O171 Fe157 1.996 . S
O171 C164 1.255 . S
C172 O165 1.287 . S
C172 O166 1.255 . S
O173 Fe155 2.002 . S
O173 C169 1.295 . S
O174 Fe157 1.997 . S
O174 C169 1.235 . S
C175 O158 1.295 . S
C175 O159 1.235 . S
C176 C177 1.391 . S
C176 C178 1.394 . S
C176 H192 0.931 . S
C177 C176 1.391 . S
C177 C181 1.376 . S
C178 C176 1.394 . S
C178 C179 1.369 . S
C178 C182 1.531 . S
C179 C178 1.369 . S
C179 C180 1.410 . S
C179 C187 1.503 . S
C180 C179 1.410 . S
C180 C181 1.392 . S
C180 C183 1.511 . S
C181 C177 1.376 . S
C181 C180 1.392 . S
C181 H193 0.929 . S
C182 C178 1.531 . S
C182 H194 0.960 . S
C182 H195 0.962 . S
C182 H196 0.960 . S
C183 C180 1.511 . S
C183 H197 0.961 . S
C183 H198 0.961 . S
C183 H199 0.961 . S
C184 C185 1.370 . S
C184 C186 1.363 . S
C184 H200 0.931 . S
C185 C184 1.370 . S
C185 C189 1.408 . S
C186 C184 1.363 . S
C186 C187 1.370 . S
C186 C190 1.524 . S
C187 C179 1.503 . S
C187 C186 1.370 . S
C187 C188 1.403 . S
C188 C187 1.403 . S
C188 C189 1.404 . S
C188 C191 1.539 . S
C189 C185 1.408 . S
C189 C188 1.404 . S
C189 H201 0.930 . S
C190 C186 1.524 . S
C190 H202 0.956 . S
C190 H203 0.961 . S
C190 H204 0.961 . S
C191 C188 1.539 . S
C191 H205 0.958 . S
C191 H206 0.961 . S
C191 H207 0.960 . S
H192 C176 0.931 . S
H193 C181 0.929 . S
H194 C182 0.960 . S
H195 C182 0.962 . S
H196 C182 0.960 . S
H197 C183 0.961 . S
H198 C183 0.961 . S
H199 C183 0.961 . S
H200 C184 0.931 . S
H201 C189 0.930 . S
H202 C190 0.956 . S
H203 C190 0.961 . S
H204 C190 0.961 . S
H205 C191 0.958 . S
H206 C191 0.961 . S
H207 C191 0.960 . S
C208 C209 1.391 . S
C208 C210 1.394 . S
C208 H224 0.931 . S
C209 C208 1.391 . S
C209 C213 1.376 . S
C210 C208 1.394 . S
C210 C211 1.369 . S
C210 C214 1.531 . S
C211 C210 1.369 . S
C211 C212 1.410 . S
C211 C219 1.503 . S
C212 C211 1.410 . S
C212 C213 1.392 . S
C212 C215 1.511 . S
C213 C209 1.376 . S
C213 C212 1.392 . S
C213 H225 0.929 . S
C214 C210 1.531 . S
C214 H226 0.960 . S
C214 H227 0.962 . S
C214 H228 0.960 . S
C215 C212 1.511 . S
C215 H229 0.961 . S
C215 H230 0.961 . S
C215 H231 0.961 . S
C216 C217 1.370 . S
C216 C218 1.363 . S
C216 H232 0.931 . S
C217 C216 1.370 . S
C217 C221 1.408 . S
C218 C216 1.363 . S
C218 C219 1.370 . S
C218 C222 1.524 . S
C219 C211 1.503 . S
C219 C218 1.370 . S
C219 C220 1.403 . S
C220 C219 1.403 . S
C220 C221 1.404 . S
C220 C223 1.539 . S
C221 C217 1.408 . S
C221 C220 1.404 . S
C221 H233 0.930 . S
C222 C218 1.524 . S
C222 H234 0.956 . S
C222 H235 0.961 . S
C222 H236 0.961 . S
C223 C220 1.539 . S
C223 H237 0.958 . S
C223 H238 0.961 . S
C223 H239 0.960 . S
H224 C208 0.931 . S
H225 C213 0.929 . S
H226 C214 0.960 . S
H227 C214 0.962 . S
H228 C214 0.960 . S
H229 C215 0.961 . S
H230 C215 0.961 . S
H231 C215 0.961 . S
H232 C216 0.931 . S
H233 C221 0.930 . S
H234 C222 0.956 . S
H235 C222 0.961 . S
H236 C222 0.961 . S
H237 C223 0.958 . S
H238 C223 0.961 . S
H239 C223 0.960 . S
C240 C241 1.391 . S
C240 C242 1.394 . S
C240 H256 0.931 . S
C241 C240 1.391 . S
C241 C245 1.376 . S
C242 C240 1.394 . S
C242 C243 1.369 . S
C242 C246 1.531 . S
C243 C242 1.369 . S
C243 C244 1.410 . S
C243 C251 1.503 . S
C244 C243 1.410 . S
C244 C245 1.392 . S
C244 C247 1.511 . S
C245 C241 1.376 . S
C245 C244 1.392 . S
C245 H257 0.929 . S
C246 C242 1.531 . S
C246 H258 0.960 . S
C246 H259 0.962 . S
C246 H260 0.960 . S
C247 C244 1.511 . S
C247 H261 0.961 . S
C247 H262 0.961 . S
C247 H263 0.961 . S
C248 C249 1.370 . S
C248 C250 1.363 . S
C248 H264 0.931 . S
C249 C248 1.370 . S
C249 C253 1.408 . S
C250 C248 1.363 . S
C250 C251 1.370 . S
C250 C254 1.524 . S
C251 C243 1.503 . S
C251 C250 1.370 . S
C251 C252 1.403 . S
C252 C251 1.403 . S
C252 C253 1.404 . S
C252 C255 1.539 . S
C253 C249 1.408 . S
C253 C252 1.404 . S
C253 H265 0.930 . S
C254 C250 1.524 . S
C254 H266 0.956 . S
C254 H267 0.961 . S
C254 H268 0.961 . S
C255 C252 1.539 . S
C255 H269 0.958 . S
C255 H270 0.961 . S
C255 H271 0.960 . S
H256 C240 0.931 . S
H257 C245 0.929 . S
H258 C246 0.960 . S
H259 C246 0.962 . S
H260 C246 0.960 . S
H261 C247 0.961 . S
H262 C247 0.961 . S
H263 C247 0.961 . S
H264 C248 0.931 . S
H265 C253 0.930 . S
H266 C254 0.956 . S
H267 C254 0.961 . S
H268 C254 0.961 . S
H269 C255 0.958 . S
H270 C255 0.961 . S
H271 C255 0.960 . S
C272 C273 1.391 . S
C272 C274 1.394 . S
C272 H288 0.931 . S
C273 C272 1.391 . S
C273 C277 1.376 . S
C274 C272 1.394 . S
C274 C275 1.369 . S
C274 C278 1.531 . S
C275 C274 1.369 . S
C275 C276 1.410 . S
C275 C283 1.503 . S
C276 C275 1.410 . S
C276 C277 1.392 . S
C276 C279 1.511 . S
C277 C273 1.376 . S
C277 C276 1.392 . S
C277 H289 0.929 . S
C278 C274 1.531 . S
C278 H290 0.960 . S
C278 H291 0.962 . S
C278 H292 0.960 . S
C279 C276 1.511 . S
C279 H293 0.961 . S
C279 H294 0.961 . S
C279 H295 0.961 . S
C280 C281 1.370 . S
C280 C282 1.363 . S
C280 H296 0.931 . S
C281 C280 1.370 . S
C281 C285 1.408 . S
C282 C280 1.363 . S
C282 C283 1.370 . S
C282 C286 1.524 . S
C283 C275 1.503 . S
C283 C282 1.370 . S
C283 C284 1.403 . S
C284 C283 1.403 . S
C284 C285 1.404 . S
C284 C287 1.539 . S
C285 C281 1.408 . S
C285 C284 1.404 . S
C285 H297 0.930 . S
C286 C282 1.524 . S
C286 H298 0.956 . S
C286 H299 0.961 . S
C286 H300 0.961 . S
C287 C284 1.539 . S
C287 H301 0.958 . S
C287 H302 0.961 . S
C287 H303 0.960 . S
H288 C272 0.931 . S
H289 C277 0.929 . S
H290 C278 0.960 . S
H291 C278 0.962 . S
H292 C278 0.960 . S
H293 C279 0.961 . S
H294 C279 0.961 . S
H295 C279 0.961 . S
H296 C280 0.931 . S
H297 C285 0.930 . S
H298 C286 0.956 . S
H299 C286 0.961 . S
H300 C286 0.961 . S
H301 C287 0.958 . S
H302 C287 0.961 . S
H303 C287 0.960 . S
C304 C305 1.391 . S
C304 C306 1.394 . S
C304 H320 0.931 . S
C305 C304 1.391 . S
C305 C309 1.376 . S
C306 C304 1.394 . S
C306 C307 1.369 . S
C306 C310 1.531 . S
C307 C306 1.369 . S
C307 C308 1.410 . S
C307 C315 1.503 . S
C308 C307 1.410 . S
C308 C309 1.392 . S
C308 C311 1.511 . S
C309 C305 1.376 . S
C309 C308 1.392 . S
C309 H321 0.929 . S
C310 C306 1.531 . S
C310 H322 0.960 . S
C310 H323 0.962 . S
C310 H324 0.960 . S
C311 C308 1.511 . S
C311 H325 0.961 . S
C311 H326 0.961 . S
C311 H327 0.961 . S
C312 C313 1.370 . S
C312 C314 1.363 . S
C312 H328 0.931 . S
C313 C312 1.370 . S
C313 C317 1.408 . S
C314 C312 1.363 . S
C314 C315 1.370 . S
C314 C318 1.524 . S
C315 C307 1.503 . S
C315 C314 1.370 . S
C315 C316 1.403 . S
C316 C315 1.403 . S
C316 C317 1.404 . S
C316 C319 1.539 . S
C317 C313 1.408 . S
C317 C316 1.404 . S
C317 H329 0.930 . S
C318 C314 1.524 . S
C318 H330 0.956 . S
C318 H331 0.961 . S
C318 H332 0.961 . S
C319 C316 1.539 . S
C319 H333 0.958 . S
C319 H334 0.961 . S
C319 H335 0.960 . S
H320 C304 0.931 . S
H321 C309 0.929 . S
H322 C310 0.960 . S
H323 C310 0.962 . S
H324 C310 0.960 . S
H325 C311 0.961 . S
H326 C311 0.961 . S
H327 C311 0.961 . S
H328 C312 0.931 . S
H329 C317 0.930 . S
H330 C318 0.956 . S
H331 C318 0.961 . S
H332 C318 0.961 . S
H333 C319 0.958 . S
H334 C319 0.961 . S
H335 C319 0.960 . S
C336 C337 1.391 . S
C336 C338 1.394 . S
C336 H352 0.931 . S
C337 C336 1.391 . S
C337 C341 1.376 . S
C338 C336 1.394 . S
C338 C339 1.369 . S
C338 C342 1.531 . S
C339 C338 1.369 . S
C339 C340 1.410 . S
C339 C347 1.503 . S
C340 C339 1.410 . S
C340 C341 1.392 . S
C340 C343 1.511 . S
C341 C337 1.376 . S
C341 C340 1.392 . S
C341 H353 0.929 . S
C342 C338 1.531 . S
C342 H354 0.960 . S
C342 H355 0.962 . S
C342 H356 0.960 . S
C343 C340 1.511 . S
C343 H357 0.961 . S
C343 H358 0.961 . S
C343 H359 0.961 . S
C344 C345 1.370 . S
C344 C346 1.363 . S
C344 H360 0.931 . S
C345 C344 1.370 . S
C345 C349 1.408 . S
C346 C344 1.363 . S
C346 C347 1.370 . S
C346 C350 1.524 . S
C347 C339 1.503 . S
C347 C346 1.370 . S
C347 C348 1.403 . S
C348 C347 1.403 . S
C348 C349 1.404 . S
C348 C351 1.539 . S
C349 C345 1.408 . S
C349 C348 1.404 . S
C349 H361 0.930 . S
C350 C346 1.524 . S
C350 H362 0.956 . S
C350 H363 0.961 . S
C350 H364 0.961 . S
C351 C348 1.539 . S
C351 H365 0.958 . S
C351 H366 0.961 . S
C351 H367 0.960 . S
H352 C336 0.931 . S
H353 C341 0.929 . S
H354 C342 0.960 . S
H355 C342 0.962 . S
H356 C342 0.960 . S
H357 C343 0.961 . S
H358 C343 0.961 . S
H359 C343 0.961 . S
H360 C344 0.931 . S
H361 C349 0.930 . S
H362 C350 0.956 . S
H363 C350 0.961 . S
H364 C350 0.961 . S
H365 C351 0.958 . S
H366 C351 0.961 . S
H367 C351 0.960 . S
C368 C369 1.391 . S
C368 C370 1.394 . S
C368 H384 0.931 . S
C369 C368 1.391 . S
C369 C373 1.376 . S
C370 C368 1.394 . S
C370 C371 1.369 . S
C370 C374 1.531 . S
C371 C370 1.369 . S
C371 C372 1.410 . S
C371 C379 1.503 . S
C372 C371 1.410 . S
C372 C373 1.392 . S
C372 C375 1.511 . S
C373 C369 1.376 . S
C373 C372 1.392 . S
C373 H385 0.929 . S
C374 C370 1.531 . S
C374 H386 0.960 . S
C374 H387 0.962 . S
C374 H388 0.960 . S
C375 C372 1.511 . S
C375 H389 0.961 . S
C375 H390 0.961 . S
C375 H391 0.961 . S
C376 C377 1.370 . S
C376 C378 1.363 . S
C376 H392 0.931 . S
C377 C376 1.370 . S
C377 C381 1.408 . S
C378 C376 1.363 . S
C378 C379 1.370 . S
C378 C382 1.524 . S
C379 C371 1.503 . S
C379 C378 1.370 . S
C379 C380 1.403 . S
C380 C379 1.403 . S
C380 C381 1.404 . S
C380 C383 1.539 . S
C381 C377 1.408 . S
C381 C380 1.404 . S
C381 H393 0.930 . S
C382 C378 1.524 . S
C382 H394 0.956 . S
C382 H395 0.961 . S
C382 H396 0.961 . S
C383 C380 1.539 . S
C383 H397 0.958 . S
C383 H398 0.961 . S
C383 H399 0.960 . S
H384 C368 0.931 . S
H385 C373 0.929 . S
H386 C374 0.960 . S
H387 C374 0.962 . S
H388 C374 0.960 . S
H389 C375 0.961 . S
H390 C375 0.961 . S
H391 C375 0.961 . S
H392 C376 0.931 . S
H393 C381 0.930 . S
H394 C382 0.956 . S
H395 C382 0.961 . S
H396 C382 0.961 . S
H397 C383 0.958 . S
H398 C383 0.961 . S
H399 C383 0.960 . S
C400 C401 1.391 . S
C400 C402 1.394 . S
C400 H416 0.931 . S
C401 C400 1.391 . S
C401 C405 1.376 . S
C402 C400 1.394 . S
C402 C403 1.369 . S
C402 C406 1.531 . S
C403 C402 1.369 . S
C403 C404 1.410 . S
C403 C411 1.503 . S
C404 C403 1.410 . S
C404 C405 1.392 . S
C404 C407 1.511 . S
C405 C401 1.376 . S
C405 C404 1.392 . S
C405 H417 0.929 . S
C406 C402 1.531 . S
C406 H418 0.960 . S
C406 H419 0.962 . S
C406 H420 0.960 . S
C407 C404 1.511 . S
C407 H421 0.961 . S
C407 H422 0.961 . S
C407 H423 0.961 . S
C408 C409 1.370 . S
C408 C410 1.363 . S
C408 H424 0.931 . S
C409 C408 1.370 . S
C409 C413 1.408 . S
C410 C408 1.363 . S
C410 C411 1.370 . S
C410 C414 1.524 . S
C411 C403 1.503 . S
C411 C410 1.370 . S
C411 C412 1.403 . S
C412 C411 1.403 . S
C412 C413 1.404 . S
C412 C415 1.539 . S
C413 C409 1.408 . S
C413 C412 1.404 . S
C413 H425 0.930 . S
C414 C410 1.524 . S
C414 H426 0.956 . S
C414 H427 0.961 . S
C414 H428 0.961 . S
C415 C412 1.539 . S
C415 H429 0.958 . S
C415 H430 0.961 . S
C415 H431 0.960 . S
H416 C400 0.931 . S
H417 C405 0.929 . S
H418 C406 0.960 . S
H419 C406 0.962 . S
H420 C406 0.960 . S
H421 C407 0.961 . S
H422 C407 0.961 . S
H423 C407 0.961 . S
H424 C408 0.931 . S
H425 C413 0.930 . S
H426 C414 0.956 . S
H427 C414 0.961 . S
H428 C414 0.961 . S
H429 C415 0.958 . S
H430 C415 0.961 . S
H431 C415 0.960 . S
C432 C433 1.391 . S
C432 C434 1.394 . S
C432 H448 0.931 . S
C433 C432 1.391 . S
C433 C437 1.376 . S
C434 C432 1.394 . S
C434 C435 1.369 . S
C434 C438 1.531 . S
C435 C434 1.369 . S
C435 C436 1.410 . S
C435 C443 1.503 . S
C436 C435 1.410 . S
C436 C437 1.392 . S
C436 C439 1.511 . S
C437 C433 1.376 . S
C437 C436 1.392 . S
C437 H449 0.929 . S
C438 C434 1.531 . S
C438 H450 0.960 . S
C438 H451 0.962 . S
C438 H452 0.960 . S
C439 C436 1.511 . S
C439 H453 0.961 . S
C439 H454 0.961 . S
C439 H455 0.961 . S
C440 C441 1.370 . S
C440 C442 1.363 . S
C440 H456 0.931 . S
C441 C440 1.370 . S
C441 C445 1.408 . S
C442 C440 1.363 . S
C442 C443 1.370 . S
C442 C446 1.524 . S
C443 C435 1.503 . S
C443 C442 1.370 . S
C443 C444 1.403 . S
C444 C443 1.403 . S
C444 C445 1.404 . S
C444 C447 1.539 . S
C445 C441 1.408 . S
C445 C444 1.404 . S
C445 H457 0.930 . S
C446 C442 1.524 . S
C446 H458 0.956 . S
C446 H459 0.961 . S
C446 H460 0.961 . S
C447 C444 1.539 . S
C447 H461 0.958 . S
C447 H462 0.961 . S
C447 H463 0.960 . S
H448 C432 0.931 . S
H449 C437 0.929 . S
H450 C438 0.960 . S
H451 C438 0.962 . S
H452 C438 0.960 . S
H453 C439 0.961 . S
H454 C439 0.961 . S
H455 C439 0.961 . S
H456 C440 0.931 . S
H457 C445 0.930 . S
H458 C446 0.956 . S
H459 C446 0.961 . S
H460 C446 0.961 . S
H461 C447 0.958 . S
H462 C447 0.961 . S
H463 C447 0.960 . S
C464 C465 1.391 . S
C464 C466 1.394 . S
C464 H480 0.931 . S
C465 C464 1.391 . S
C465 C469 1.376 . S
C466 C464 1.394 . S
C466 C467 1.369 . S
C466 C470 1.531 . S
C467 C466 1.369 . S
C467 C468 1.410 . S
C467 C475 1.503 . S
C468 C467 1.410 . S
C468 C469 1.392 . S
C468 C471 1.511 . S
C469 C465 1.376 . S
C469 C468 1.392 . S
C469 H481 0.929 . S
C470 C466 1.531 . S
C470 H482 0.960 . S
C470 H483 0.962 . S
C470 H484 0.960 . S
C471 C468 1.511 . S
C471 H485 0.961 . S
C471 H486 0.961 . S
C471 H487 0.961 . S
C472 C473 1.370 . S
C472 C474 1.363 . S
C472 H488 0.931 . S
C473 C472 1.370 . S
C473 C477 1.408 . S
C474 C472 1.363 . S
C474 C475 1.370 . S
C474 C478 1.524 . S
C475 C467 1.503 . S
C475 C474 1.370 . S
C475 C476 1.403 . S
C476 C475 1.403 . S
C476 C477 1.404 . S
C476 C479 1.539 . S
C477 C473 1.408 . S
C477 C476 1.404 . S
C477 H489 0.930 . S
C478 C474 1.524 . S
C478 H490 0.956 . S
C478 H491 0.961 . S
C478 H492 0.961 . S
C479 C476 1.539 . S
C479 H493 0.958 . S
C479 H494 0.961 . S
C479 H495 0.960 . S
H480 C464 0.931 . S
H481 C469 0.929 . S
H482 C470 0.960 . S
H483 C470 0.962 . S
H484 C470 0.960 . S
H485 C471 0.961 . S
H486 C471 0.961 . S
H487 C471 0.961 . S
H488 C472 0.931 . S
H489 C477 0.930 . S
H490 C478 0.956 . S
H491 C478 0.961 . S
H492 C478 0.961 . S
H493 C479 0.958 . S
H494 C479 0.961 . S
H495 C479 0.960 . S
C496 C497 1.391 . S
C496 C498 1.394 . S
C496 H512 0.931 . S
C497 C496 1.391 . S
C497 C501 1.376 . S
C498 C496 1.394 . S
C498 C499 1.369 . S
C498 C502 1.531 . S
C499 C498 1.369 . S
C499 C500 1.410 . S
C499 C507 1.503 . S
C500 C499 1.410 . S
C500 C501 1.392 . S
C500 C503 1.511 . S
C501 C497 1.376 . S
C501 C500 1.392 . S
C501 H513 0.929 1_556 S
C502 C498 1.531 . S
C502 H514 0.960 . S
C502 H515 0.962 . S
C502 H516 0.960 . S
C503 C500 1.511 . S
C503 H517 0.961 1_556 S
C503 H518 0.961 . S
C503 H519 0.961 . S
C504 C505 1.370 . S
C504 C506 1.363 . S
C504 H520 0.931 . S
C505 C504 1.370 . S
C505 C509 1.408 . S
C506 C504 1.363 . S
C506 C507 1.370 . S
C506 C510 1.524 . S
C507 C499 1.503 . S
C507 C506 1.370 . S
C507 C508 1.403 . S
C508 C507 1.403 . S
C508 C509 1.404 . S
C508 C511 1.539 . S
C509 C505 1.408 . S
C509 C508 1.404 . S
C509 H521 0.930 . S
C510 C506 1.524 . S
C510 H522 0.956 . S
C510 H523 0.961 . S
C510 H524 0.961 . S
C511 C508 1.539 . S
C511 H525 0.958 . S
C511 H526 0.961 . S
C511 H527 0.960 . S
H512 C496 0.931 . S
H513 C501 0.929 1_554 S
H514 C502 0.960 . S
H515 C502 0.962 . S
H516 C502 0.960 . S
H517 C503 0.961 1_554 S
H518 C503 0.961 . S
H519 C503 0.961 . S
H520 C504 0.931 . S
H521 C509 0.930 . S
H522 C510 0.956 . S
H523 C510 0.961 . S
H524 C510 0.961 . S
H525 C511 0.958 . S
H526 C511 0.961 . S
H527 C511 0.960 . S
C528 C529 1.391 . S
C528 C530 1.394 . S
C528 H544 0.931 . S
C529 C528 1.391 . S
C529 C533 1.376 . S
C530 C528 1.394 . S
C530 C531 1.369 . S
C530 C534 1.531 . S
C531 C530 1.369 . S
C531 C532 1.410 . S
C531 C539 1.503 . S
C532 C531 1.410 . S
C532 C533 1.392 . S
C532 C535 1.511 . S
C533 C529 1.376 . S
C533 C532 1.392 . S
C533 H545 0.929 . S
C534 C530 1.531 . S
C534 H546 0.960 . S
C534 H547 0.962 . S
C534 H548 0.960 . S
C535 C532 1.511 . S
C535 H549 0.961 . S
C535 H550 0.961 . S
C535 H551 0.961 . S
C536 C537 1.370 . S
C536 C538 1.363 . S
C536 H552 0.931 . S
C537 C536 1.370 . S
C537 C541 1.408 . S
C538 C536 1.363 . S
C538 C539 1.370 . S
C538 C542 1.524 . S
C539 C531 1.503 . S
C539 C538 1.370 . S
C539 C540 1.403 . S
C540 C539 1.403 . S
C540 C541 1.404 . S
C540 C543 1.539 . S
C541 C537 1.408 . S
C541 C540 1.404 . S
C541 H553 0.930 . S
C542 C538 1.524 . S
C542 H554 0.956 . S
C542 H555 0.961 . S
C542 H556 0.961 . S
C543 C540 1.539 . S
C543 H557 0.958 . S
C543 H558 0.961 . S
C543 H559 0.960 . S
H544 C528 0.931 . S
H545 C533 0.929 . S
H546 C534 0.960 . S
H547 C534 0.962 . S
H548 C534 0.960 . S
H549 C535 0.961 . S
H550 C535 0.961 . S
H551 C535 0.961 . S
H552 C536 0.931 . S
H553 C541 0.930 . S
H554 C542 0.956 . S
H555 C542 0.961 . S
H556 C542 0.961 . S
H557 C543 0.958 . S
H558 C543 0.961 . S
H559 C543 0.960 . S
C560 C561 1.391 . S
C560 C562 1.394 . S
C560 H576 0.931 . S
C561 C560 1.391 . S
C561 C565 1.376 . S
C562 C560 1.394 . S
C562 C563 1.369 . S
C562 C566 1.531 1_565 S
C563 C562 1.369 . S
C563 C564 1.410 . S
C563 C571 1.503 1_565 S
C564 C563 1.410 . S
C564 C565 1.392 . S
C564 C567 1.511 . S
C565 C561 1.376 . S
C565 C564 1.392 . S
C565 H577 0.929 . S
C566 C562 1.531 1_545 S
C566 H578 0.960 . S
C566 H579 0.962 . S
C566 H580 0.938 1_556 S
C567 C564 1.511 . S
C567 H581 0.961 . S
C567 H582 0.961 . S
C567 H583 0.961 . S
C568 C569 1.370 . S
C568 C570 1.363 . S
C568 H584 0.931 . S
C569 C568 1.370 . S
C569 C573 1.408 . S
C570 C568 1.363 . S
C570 C571 1.370 . S
C570 C574 1.524 . S
C571 C563 1.503 1_545 S
C571 C570 1.370 . S
C571 C572 1.403 . S
C572 C571 1.403 . S
C572 C573 1.404 . S
C572 C575 1.539 1_545 S
C573 C569 1.408 . S
C573 C572 1.404 . S
C573 H585 0.930 . S
C574 C570 1.524 . S
C574 H586 0.956 . S
C574 H587 0.958 . S
C574 H588 0.961 . S
C575 C572 1.539 1_565 S
C575 H589 0.958 1_565 S
C575 H590 0.961 . S
C575 H591 0.960 . S
H576 C560 0.931 . S
H577 C565 0.929 . S
H578 C566 0.960 . S
H579 C566 0.962 . S
H580 C566 0.938 1_554 S
H581 C567 0.961 . S
H582 C567 0.961 . S
H583 C567 0.961 . S
H584 C568 0.931 . S
H585 C573 0.930 . S
H586 C574 0.956 . S
H587 C574 0.958 . S
H588 C574 0.961 . S
H589 C575 0.958 1_545 S
H590 C575 0.961 . S
H591 C575 0.960 . S
C592 C593 1.391 . S
C592 C594 1.394 . S
C592 H608 0.931 . S
C593 C592 1.391 . S
C593 C597 1.376 . S
C594 C592 1.394 . S
C594 C595 1.334 1_545 S
C594 C598 1.531 . S
C595 C594 1.334 1_565 S
C595 C596 1.422 . S
C595 C603 1.525 . S
C596 C595 1.422 . S
C596 C597 1.392 1_565 S
C596 C599 1.511 . S
C597 C593 1.376 . S
C597 C596 1.392 1_545 S
C597 H609 0.924 1_545 S
C598 C594 1.531 . S
C598 H610 0.960 . S
C598 H611 0.962 . S
C598 H612 0.960 . S
C599 C596 1.511 . S
C599 H613 0.961 . S
C599 H614 0.961 . S
C599 H615 0.961 . S
C600 C601 1.370 . S
C600 C602 1.363 . S
C600 H616 0.931 . S
C601 C600 1.370 . S
C601 C605 1.408 . S
C602 C600 1.363 . S
C602 C603 1.370 . S
C602 C606 1.524 1_565 S
C603 C595 1.525 . S
C603 C602 1.370 . S
C603 C604 1.403 . S
C604 C603 1.403 . S
C604 C605 1.404 . S
C604 C607 1.539 . S
C605 C601 1.408 . S
C605 C604 1.404 . S
C605 H617 0.930 . S
C606 C602 1.524 1_545 S
C606 H618 0.956 . S
C606 H619 0.961 1_545 S
C606 H620 0.961 1_545 S
C607 C604 1.539 . S
C607 H621 0.958 . S
C607 H622 0.961 . S
C607 H623 0.960 . S
H608 C592 0.931 . S
H609 C597 0.924 1_565 S
H610 C598 0.960 . S
H611 C598 0.962 . S
H612 C598 0.960 . S
H613 C599 0.961 . S
H614 C599 0.961 . S
H615 C599 0.961 . S
H616 C600 0.931 . S
H617 C605 0.930 . S
H618 C606 0.956 . S
H619 C606 0.961 1_565 S
H620 C606 0.961 1_565 S
H621 C607 0.958 . S
H622 C607 0.961 . S
H623 C607 0.960 . S
C624 C625 1.391 . S
C624 C626 1.394 . S
C624 H640 0.931 . S
C625 C624 1.391 . S
C625 C629 1.376 . S
C626 C624 1.394 . S
C626 C627 1.369 . S
C626 C630 1.531 . S
C627 C626 1.369 . S
C627 C628 1.410 . S
C627 C635 1.503 1_565 S
C628 C627 1.410 . S
C628 C629 1.392 . S
C628 C631 1.511 . S
C629 C625 1.376 . S
C629 C628 1.392 . S
C629 H641 0.929 . S
C630 C626 1.531 . S
C630 H642 0.960 . S
C630 H643 0.962 1_565 S
C630 H644 0.960 . S
C631 C628 1.511 . S
C631 H645 0.961 . S
C631 H646 0.961 . S
C631 H647 0.961 . S
C632 C633 1.370 . S
C632 C634 1.363 . S
C632 H648 0.931 . S
C633 C632 1.370 . S
C633 C637 1.408 . S
C634 C632 1.363 . S
C634 C635 1.370 . S
C634 C638 1.524 . S
C635 C627 1.503 1_545 S
C635 C634 1.370 . S
C635 C636 1.393 1_545 S
C636 C635 1.393 1_565 S
C636 C637 1.385 1_565 S
C636 C639 1.567 . S
C637 C633 1.408 . S
C637 C636 1.385 1_545 S
C637 H649 0.930 . S
C638 C634 1.524 . S
C638 H650 0.956 . S
C638 H651 0.961 . S
C638 H652 0.961 . S
C639 C636 1.567 . S
C639 H653 0.958 . S
C639 H654 0.961 . S
C639 H655 0.960 . S
H640 C624 0.931 . S
H641 C629 0.929 . S
H642 C630 0.960 . S
H643 C630 0.962 1_545 S
H644 C630 0.960 . S
H645 C631 0.961 . S
H646 C631 0.961 . S
H647 C631 0.961 . S
H648 C632 0.931 . S
H649 C637 0.930 . S
H650 C638 0.956 . S
H651 C638 0.961 . S
H652 C638 0.961 . S
H653 C639 0.958 . S
H654 C639 0.961 . S
H655 C639 0.960 . S
C656 C657 1.391 . S
C656 C658 1.394 . S
C656 H672 0.931 . S
C657 C656 1.391 . S
C657 C661 1.376 . S
C658 C656 1.394 . S
C658 C659 1.369 . S
C658 C662 1.531 1_545 S
C659 C658 1.369 . S
C659 C660 1.410 . S
C659 C667 1.503 1_545 S
C660 C659 1.410 . S
C660 C661 1.392 . S
C660 C663 1.511 . S
C661 C657 1.376 . S
C661 C660 1.392 . S
C661 H673 0.929 . S
C662 C658 1.531 1_565 S
C662 H674 0.960 . S
C662 H675 0.962 . S
C662 H676 0.960 . S
C663 C660 1.511 . S
C663 H677 0.961 . S
C663 H678 0.961 . S
C663 H679 0.961 . S
C664 C665 1.370 . S
C664 C666 1.363 . S
C664 H680 0.931 . S
C665 C664 1.370 . S
C665 C669 1.408 . S
C666 C664 1.363 . S
C666 C667 1.370 . S
C666 C670 1.524 1_565 S
C667 C659 1.503 1_565 S
C667 C666 1.370 . S
C667 C668 1.403 . S
C668 C667 1.403 . S
C668 C669 1.404 . S
C668 C671 1.539 . S
C669 C665 1.408 . S
C669 C668 1.404 . S
C669 H681 0.930 . S
C670 C666 1.524 1_545 S
C670 H682 0.956 . S
C670 H683 0.961 . S
C670 H684 0.961 . S
C671 C668 1.539 . S
C671 H685 0.958 . S
C671 H686 0.961 . S
C671 H687 0.960 . S
H672 C656 0.931 . S
H673 C661 0.929 . S
H674 C662 0.960 . S
H675 C662 0.962 . S
H676 C662 0.960 . S
H677 C663 0.961 . S
H678 C663 0.961 . S
H679 C663 0.961 . S
H680 C664 0.931 . S
H681 C669 0.930 . S
H682 C670 0.956 . S
H683 C670 0.961 . S
H684 C670 0.961 . S
H685 C671 0.958 . S
H686 C671 0.961 . S
H687 C671 0.960 . S
C688 C689 1.391 . S
C688 C690 1.394 . S
C688 H704 0.931 . S
C689 C688 1.391 . S
C689 C693 1.376 . S
C690 C688 1.394 . S
C690 C691 1.369 . S
C690 C694 1.531 . S
C691 C690 1.369 . S
C691 C692 1.410 . S
C691 C699 1.503 . S
C692 C691 1.410 . S
C692 C693 1.392 . S
C692 C695 1.511 . S
C693 C689 1.376 . S
C693 C692 1.392 . S
C693 H705 0.929 . S
C694 C690 1.531 . S
C694 H706 0.960 . S
C694 H707 0.962 . S
C694 H708 0.960 . S
C695 C692 1.511 . S
C695 H709 0.961 . S
C695 H710 0.961 . S
C695 H711 0.961 . S
C696 C697 1.370 . S
C696 C698 1.363 . S
C696 H712 0.931 . S
C697 C696 1.370 . S
C697 C701 1.408 . S
C698 C696 1.363 . S
C698 C699 1.370 . S
C698 C702 1.524 . S
C699 C691 1.503 . S
C699 C698 1.370 . S
C699 C700 1.403 . S
C700 C699 1.403 . S
C700 C701 1.404 . S
C700 C703 1.539 . S
C701 C697 1.408 . S
C701 C700 1.404 . S
C701 H713 0.930 . S
C702 C698 1.524 . S
C702 H714 0.956 . S
C702 H715 0.961 . S
C702 H716 0.961 . S
C703 C700 1.539 . S
C703 H717 0.958 . S
C703 H718 0.961 . S
C703 H719 0.960 . S
H704 C688 0.931 . S
H705 C693 0.929 . S
H706 C694 0.960 . S
H707 C694 0.962 . S
H708 C694 0.960 . S
H709 C695 0.961 . S
H710 C695 0.961 . S
H711 C695 0.961 . S
H712 C696 0.931 . S
H713 C701 0.930 . S
H714 C702 0.956 . S
H715 C702 0.961 . S
H716 C702 0.961 . S
H717 C703 0.958 . S
H718 C703 0.961 . S
H719 C703 0.960 . S
C720 C721 1.391 . S
C720 C722 1.394 . S
C720 H736 0.931 . S
C721 C720 1.391 . S
C721 C725 1.376 . S
C722 C720 1.394 . S
C722 C723 1.369 . S
C722 C726 1.531 . S
C723 C722 1.369 . S
C723 C724 1.410 . S
C723 C731 1.503 . S
C724 C723 1.410 . S
C724 C725 1.392 . S
C724 C727 1.511 . S
C725 C721 1.376 . S
C725 C724 1.392 . S
C725 H737 0.929 . S
C726 C722 1.531 . S
C726 H738 0.960 . S
C726 H739 0.962 . S
C726 H740 0.960 . S
C727 C724 1.511 . S
C727 H741 0.961 . S
C727 H742 0.961 . S
C727 H743 0.961 . S
C728 C729 1.370 . S
C728 C730 1.363 . S
C728 H744 0.931 . S
C729 C728 1.370 . S
C729 C733 1.408 . S
C730 C728 1.363 . S
C730 C731 1.370 . S
C730 C734 1.524 . S
C731 C723 1.503 . S
C731 C730 1.370 . S
C731 C732 1.403 . S
C732 C731 1.403 . S
C732 C733 1.404 . S
C732 C735 1.539 . S
C733 C729 1.408 . S
C733 C732 1.404 . S
C733 H745 0.930 . S
C734 C730 1.524 . S
C734 H746 0.956 . S
C734 H747 0.961 . S
C734 H748 0.961 . S
C735 C732 1.539 . S
C735 H749 0.958 . S
C735 H750 0.961 . S
C735 H751 0.960 . S
H736 C720 0.931 . S
H737 C725 0.929 . S
H738 C726 0.960 . S
H739 C726 0.962 . S
H740 C726 0.960 . S
H741 C727 0.961 . S
H742 C727 0.961 . S
H743 C727 0.961 . S
H744 C728 0.931 . S
H745 C733 0.930 . S
H746 C734 0.956 . S
H747 C734 0.961 . S
H748 C734 0.961 . S
H749 C735 0.958 . S
H750 C735 0.961 . S
H751 C735 0.960 . S
C752 C753 1.391 . S
C752 C754 1.394 . S
C752 H768 0.931 . S
C753 C752 1.391 . S
C753 C757 1.376 . S
C754 C752 1.394 . S
C754 C755 1.369 . S
C754 C758 1.531 . S
C755 C754 1.369 . S
C755 C756 1.410 . S
C755 C763 1.503 . S
C756 C755 1.410 . S
C756 C757 1.392 . S
C756 C759 1.511 . S
C757 C753 1.376 . S
C757 C756 1.392 . S
C757 H769 0.929 . S
C758 C754 1.531 . S
C758 H770 0.960 . S
C758 H771 0.962 . S
C758 H772 0.960 . S
C759 C756 1.511 . S
C759 H773 0.961 . S
C759 H774 0.961 . S
C759 H775 0.961 . S
C760 C761 1.370 . S
C760 C762 1.363 . S
C760 H776 0.931 . S
C761 C760 1.370 . S
C761 C765 1.408 . S
C762 C760 1.363 . S
C762 C763 1.370 . S
C762 C766 1.524 . S
C763 C755 1.503 . S
C763 C762 1.370 . S
C763 C764 1.403 . S
C764 C763 1.403 . S
C764 C765 1.404 . S
C764 C767 1.539 . S
C765 C761 1.408 . S
C765 C764 1.404 . S
C765 H777 0.930 . S
C766 C762 1.524 . S
C766 H778 0.956 . S
C766 H779 0.961 . S
C766 H780 0.961 . S
C767 C764 1.539 . S
C767 H781 0.958 . S
C767 H782 0.961 . S
C767 H783 0.960 . S
H768 C752 0.931 . S
H769 C757 0.929 . S
H770 C758 0.960 . S
H771 C758 0.962 . S
H772 C758 0.960 . S
H773 C759 0.961 . S
H774 C759 0.961 . S
H775 C759 0.961 . S
H776 C760 0.931 . S
H777 C765 0.930 . S
H778 C766 0.956 . S
H779 C766 0.961 . S
H780 C766 0.961 . S
H781 C767 0.958 . S
H782 C767 0.961 . S
H783 C767 0.960 . S
C784 C785 1.391 . S
C784 C786 1.394 . S
C784 H800 0.931 . S
C785 C784 1.391 . S
C785 C789 1.376 . S
C786 C784 1.394 . S
C786 C787 1.369 . S
C786 C790 1.531 . S
C787 C786 1.369 . S
C787 C788 1.410 . S
C787 C795 1.503 . S
C788 C787 1.410 . S
C788 C789 1.392 . S
C788 C791 1.511 . S
C789 C785 1.376 . S
C789 C788 1.392 . S
C789 H801 0.929 . S
C790 C786 1.531 . S
C790 H802 0.960 . S
C790 H803 0.962 . S
C790 H804 0.960 . S
C791 C788 1.511 . S
C791 H805 0.961 . S
C791 H806 0.961 . S
C791 H807 0.961 . S
C792 C793 1.370 . S
C792 C794 1.363 . S
C792 H808 0.931 . S
C793 C792 1.370 . S
C793 C797 1.408 . S
C794 C792 1.363 . S
C794 C795 1.370 . S
C794 C798 1.524 . S
C795 C787 1.503 . S
C795 C794 1.370 . S
C795 C796 1.403 . S
C796 C795 1.403 . S
C796 C797 1.404 . S
C796 C799 1.539 . S
C797 C793 1.408 . S
C797 C796 1.404 . S
C797 H809 0.930 . S
C798 C794 1.524 . S
C798 H810 0.956 . S
C798 H811 0.961 . S
C798 H812 0.961 . S
C799 C796 1.539 . S
C799 H813 0.958 . S
C799 H814 0.961 . S
C799 H815 0.960 . S
H800 C784 0.931 . S
H801 C789 0.929 . S
H802 C790 0.960 . S
H803 C790 0.962 . S
H804 C790 0.960 . S
H805 C791 0.961 . S
H806 C791 0.961 . S
H807 C791 0.961 . S
H808 C792 0.931 . S
H809 C797 0.930 . S
H810 C798 0.956 . S
H811 C798 0.961 . S
H812 C798 0.961 . S
H813 C799 0.958 . S
H814 C799 0.961 . S
H815 C799 0.960 . S
C816 C817 1.391 . S
C816 C818 1.394 . S
C816 H832 0.931 . S
C817 C816 1.391 . S
C817 C821 1.376 . S
C818 C816 1.394 . S
C818 C819 1.369 . S
C818 C822 1.531 . S
C819 C818 1.369 . S
C819 C820 1.410 . S
C819 C827 1.503 . S
C820 C819 1.410 . S
C820 C821 1.392 . S
C820 C823 1.511 . S
C821 C817 1.376 . S
C821 C820 1.392 . S
C821 H833 0.929 . S
C822 C818 1.531 . S
C822 H834 0.960 . S
C822 H835 0.962 . S
C822 H836 0.960 . S
C823 C820 1.511 . S
C823 H837 0.961 . S
C823 H838 0.961 . S
C823 H839 0.961 . S
C824 C825 1.370 . S
C824 C826 1.363 . S
C824 H840 0.931 . S
C825 C824 1.370 . S
C825 C829 1.408 . S
C826 C824 1.363 . S
C826 C827 1.370 . S
C826 C830 1.524 . S
C827 C819 1.503 . S
C827 C826 1.370 . S
C827 C828 1.403 . S
C828 C827 1.403 . S
C828 C829 1.404 . S
C828 C831 1.539 . S
C829 C825 1.408 . S
C829 C828 1.404 . S
C829 H841 0.930 . S
C830 C826 1.524 . S
C830 H842 0.956 . S
C830 H843 0.961 . S
C830 H844 0.961 . S
C831 C828 1.539 . S
C831 H845 0.958 . S
C831 H846 0.961 . S
C831 H847 0.960 . S
H832 C816 0.931 . S
H833 C821 0.929 . S
H834 C822 0.960 . S
H835 C822 0.962 . S
H836 C822 0.960 . S
H837 C823 0.961 . S
H838 C823 0.961 . S
H839 C823 0.961 . S
H840 C824 0.931 . S
H841 C829 0.930 . S
H842 C830 0.956 . S
H843 C830 0.961 . S
H844 C830 0.961 . S
H845 C831 0.958 . S
H846 C831 0.961 . S
H847 C831 0.960 . S
C848 C849 1.391 . S
C848 C850 1.394 . S
C848 H864 0.931 . S
C849 C848 1.391 . S
C849 C853 1.376 . S
C850 C848 1.394 . S
C850 C851 1.369 . S
C850 C854 1.531 . S
C851 C850 1.369 . S
C851 C852 1.410 . S
C851 C859 1.503 . S
C852 C851 1.410 . S
C852 C853 1.392 . S
C852 C855 1.511 . S
C853 C849 1.376 . S
C853 C852 1.392 . S
C853 H865 0.929 . S
C854 C850 1.531 . S
C854 H866 0.960 . S
C854 H867 0.962 . S
C854 H868 0.960 . S
C855 C852 1.511 . S
C855 H869 0.961 . S
C855 H870 0.961 . S
C855 H871 0.961 . S
C856 C857 1.370 . S
C856 C858 1.363 . S
C856 H872 0.931 . S
C857 C856 1.370 . S
C857 C861 1.408 . S
C858 C856 1.363 . S
C858 C859 1.370 . S
C858 C862 1.524 . S
C859 C851 1.503 . S
C859 C858 1.370 . S
C859 C860 1.403 . S
C860 C859 1.403 . S
C860 C861 1.404 . S
C860 C863 1.539 . S
C861 C857 1.408 . S
C861 C860 1.404 . S
C861 H873 0.930 . S
C862 C858 1.524 . S
C862 H874 0.956 . S
C862 H875 0.961 . S
C862 H876 0.961 . S
C863 C860 1.539 . S
C863 H877 0.958 . S
C863 H878 0.961 . S
C863 H879 0.960 . S
H864 C848 0.931 . S
H865 C853 0.929 . S
H866 C854 0.960 . S
H867 C854 0.962 . S
H868 C854 0.960 . S
H869 C855 0.961 . S
H870 C855 0.961 . S
H871 C855 0.961 . S
H872 C856 0.931 . S
H873 C861 0.930 . S
H874 C862 0.956 . S
H875 C862 0.961 . S
H876 C862 0.961 . S
H877 C863 0.958 . S
H878 C863 0.961 . S
H879 C863 0.960 . S
C880 C881 1.391 . S
C880 C882 1.394 . S
C880 H896 0.931 . S
C881 C880 1.391 . S
C881 C885 1.376 . S
C882 C880 1.394 . S
C882 C883 1.369 . S
C882 C886 1.531 . S
C883 C882 1.369 . S
C883 C884 1.410 . S
C883 C891 1.503 . S
C884 C883 1.410 . S
C884 C885 1.392 . S
C884 C887 1.511 . S
C885 C881 1.376 . S
C885 C884 1.392 . S
C885 H897 0.929 . S
C886 C882 1.531 . S
C886 H898 0.960 . S
C886 H899 0.962 . S
C886 H900 0.960 . S
C887 C884 1.511 . S
C887 H901 0.961 . S
C887 H902 0.961 . S
C887 H903 0.961 . S
C888 C889 1.370 . S
C888 C890 1.363 . S
C888 H904 0.931 . S
C889 C888 1.370 . S
C889 C893 1.408 . S
C890 C888 1.363 . S
C890 C891 1.370 . S
C890 C894 1.524 . S
C891 C883 1.503 . S
C891 C890 1.370 . S
C891 C892 1.403 . S
C892 C891 1.403 . S
C892 C893 1.404 . S
C892 C895 1.539 . S
C893 C889 1.408 . S
C893 C892 1.404 . S
C893 H905 0.930 . S
C894 C890 1.524 . S
C894 H906 0.956 . S
C894 H907 0.961 . S
C894 H908 0.961 . S
C895 C892 1.539 . S
C895 H909 0.958 . S
C895 H910 0.961 . S
C895 H911 0.960 . S
H896 C880 0.931 . S
H897 C885 0.929 . S
H898 C886 0.960 . S
H899 C886 0.962 . S
H900 C886 0.960 . S
H901 C887 0.961 . S
H902 C887 0.961 . S
H903 C887 0.961 . S
H904 C888 0.931 . S
H905 C893 0.930 . S
H906 C894 0.956 . S
H907 C894 0.961 . S
H908 C894 0.961 . S
H909 C895 0.958 . S
H910 C895 0.961 . S
H911 C895 0.960 . S
C912 C913 1.391 . S
C912 C914 1.394 . S
C912 H928 0.931 . S
C913 C912 1.391 . S
C913 C917 1.376 . S
C914 C912 1.394 . S
C914 C915 1.369 . S
C914 C918 1.531 . S
C915 C914 1.369 . S
C915 C916 1.410 . S
C915 C923 1.503 . S
C916 C915 1.410 . S
C916 C917 1.392 . S
C916 C919 1.511 . S
C917 C913 1.376 . S
C917 C916 1.392 . S
C917 H929 0.929 . S
C918 C914 1.531 . S
C918 H930 0.960 . S
C918 H931 0.962 . S
C918 H932 0.960 . S
C919 C916 1.511 . S
C919 H933 0.961 . S
C919 H934 0.961 . S
C919 H935 0.961 . S
C920 C921 1.370 . S
C920 C922 1.363 . S
C920 H936 0.931 . S
C921 C920 1.370 . S
C921 C925 1.408 . S
C922 C920 1.363 . S
C922 C923 1.370 . S
C922 C926 1.524 . S
C923 C915 1.503 . S
C923 C922 1.370 . S
C923 C924 1.403 . S
C924 C923 1.403 . S
C924 C925 1.404 . S
C924 C927 1.539 . S
C925 C921 1.408 . S
C925 C924 1.404 . S
C925 H937 0.930 . S
C926 C922 1.524 . S
C926 H938 0.956 . S
C926 H939 0.961 . S
C926 H940 0.961 . S
C927 C924 1.539 . S
C927 H941 0.958 . S
C927 H942 0.961 . S
C927 H943 0.960 . S
H928 C912 0.931 . S
H929 C917 0.929 . S
H930 C918 0.960 . S
H931 C918 0.962 . S
H932 C918 0.960 . S
H933 C919 0.961 . S
H934 C919 0.961 . S
H935 C919 0.961 . S
H936 C920 0.931 . S
H937 C925 0.930 . S
H938 C926 0.956 . S
H939 C926 0.961 . S
H940 C926 0.961 . S
H941 C927 0.958 . S
H942 C927 0.961 . S
H943 C927 0.960 . S
C177 C8 1.686 . S
C185 C131 1.720 . S
C217 C95 1.410 . S
C209 C19 1.437 . S
C249 C118 1.545 . S
C241 C30 1.545 . S
C281 C106 1.543 . S
C273 C41 1.546 . S
C313 C175 1.718 . S
C305 C52 1.683 . S
C345 C139 1.416 . S
C337 C63 1.438 . S
C369 C74 1.541 . S
C377 C162 1.543 . S
C409 C150 1.546 . S
C401 C85 1.543 . S
C433 C7 1.619 . S
C441 C172 1.708 . S
C473 C142 1.338 . S
C465 C16 1.184 . S
C497 C29 1.597 . S
C505 C161 1.584 . S
C529 C40 1.526 . S
C537 C147 1.531 . S
C569 C128 1.708 . S
C561 C51 1.633 . S
C593 C60 1.217 . S
C601 C98 1.339 . S
C633 C117 1.588 . S
C625 C73 1.586 . S
C665 C103 1.537 . S
C657 C84 1.514 . S
C697 C153 1.515 . S
C689 C5 1.246 . S
C729 C169 1.496 . S
C721 C18 1.504 . S
C753 C27 1.327 . S
C761 C140 1.486 . S
C793 C164 1.465 . S
C785 C38 1.305 . S
C825 C109 1.508 . S
C817 C49 1.194 . S
C849 C62 1.483 . S
C857 C125 1.506 . S
C881 C71 1.406 . S
C889 C96 1.488 . S
C913 C82 1.377 . S
C921 C120 1.465 . S
