# Generated by pormake.
# Topology ocu, (6,8)-cn, num edge types: 1
# Building blocks:
#     Node 0, Type 0, BuildingBlock: PAMTOO_clean_sbu_0, # of connection points: 6
#     Node 1, Type 0, BuildingBlock: PAMTOO_clean_sbu_0, # of connection points: 6
#     Node 2, Type 0, BuildingBlock: PAMTOO_clean_sbu_0, # of connection points: 6
#     Node 3, Type 0, BuildingBlock: PAMTOO_clean_sbu_0, # of connection points: 6
#     Node 4, Type 0, BuildingBlock: PAMTOO_clean_sbu_0, # of connection points: 6
#     Node 5, Type 0, BuildingBlock: PAMTOO_clean_sbu_0, # of connection points: 6
#     Node 6, Type 0, BuildingBlock: PAMTOO_clean_sbu_0, # of connection points: 6
#     Node 7, Type 0, BuildingBlock: PAMTOO_clean_sbu_0, # of connection points: 6
#     Node 8, Type 1, BuildingBlock: TAGTUT_clean_sbu_1, # of connection points: 8
#     Node 9, Type 1, BuildingBlock: TAGTUT_clean_sbu_1, # of connection points: 8
#     Node 10, Type 1, BuildingBlock: TAGTUT_clean_sbu_1, # of connection points: 8
#     Node 11, Type 1, BuildingBlock: TAGTUT_clean_sbu_1, # of connection points: 8
#     Node 12, Type 1, BuildingBlock: TAGTUT_clean_sbu_1, # of connection points: 8
#     Node 13, Type 1, BuildingBlock: TAGTUT_clean_sbu_1, # of connection points: 8
#     Edge 14, Type (0, 1), None
#     Edge 15, Type (0, 1), None
#     Edge 16, Type (0, 1), None
#     Edge 17, Type (0, 1), None
#     Edge 18, Type (0, 1), None
#     Edge 19, Type (0, 1), None
#     Edge 20, Type (0, 1), None
#     Edge 21, Type (0, 1), None
#     Edge 22, Type (0, 1), None
#     Edge 23, Type (0, 1), None
#     Edge 24, Type (0, 1), None
#     Edge 25, Type (0, 1), None
#     Edge 26, Type (0, 1), None
#     Edge 27, Type (0, 1), None
#     Edge 28, Type (0, 1), None
#     Edge 29, Type (0, 1), None
#     Edge 30, Type (0, 1), None
#     Edge 31, Type (0, 1), None
#     Edge 32, Type (0, 1), None
#     Edge 33, Type (0, 1), None
#     Edge 34, Type (0, 1), None
#     Edge 35, Type (0, 1), None
#     Edge 36, Type (0, 1), None
#     Edge 37, Type (0, 1), None
#     Edge 38, Type (0, 1), None
#     Edge 39, Type (0, 1), None
#     Edge 40, Type (0, 1), None
#     Edge 41, Type (0, 1), None
#     Edge 42, Type (0, 1), None
#     Edge 43, Type (0, 1), None
#     Edge 44, Type (0, 1), None
#     Edge 45, Type (0, 1), None
#     Edge 46, Type (0, 1), None
#     Edge 47, Type (0, 1), None
#     Edge 48, Type (0, 1), None
#     Edge 49, Type (0, 1), None
#     Edge 50, Type (0, 1), None
#     Edge 51, Type (0, 1), None
#     Edge 52, Type (0, 1), None
#     Edge 53, Type (0, 1), None
#     Edge 54, Type (0, 1), None
#     Edge 55, Type (0, 1), None
#     Edge 56, Type (0, 1), None
#     Edge 57, Type (0, 1), None
#     Edge 58, Type (0, 1), None
#     Edge 59, Type (0, 1), None
#     Edge 60, Type (0, 1), None
#     Edge 61, Type (0, 1), None
# Relax obj value: 0.555
# Max RMSD: 0.363
# Mean RMSD: 0.139
data_MOF--net-ocu--node1-PAMTOO_clean_sbu_0--node2-TAGTUT_clean_sbu_1--edge1-none
_symmetry_space_group_name_H-M    P1
_symmetry_Int_Tables_number       1
_symmetry_cell_setting            triclinic
loop_
_symmetry_equiv_pos_as_xyz
'x, y, z'
_cell_length_a     20.694137
_cell_length_b     20.612879
_cell_length_c     19.670309
_cell_angle_alpha  92.326012
_cell_angle_beta   94.293572
_cell_angle_gamma 116.13392
loop_
_atom_site_label
_atom_site_type_symbol
_atom_site_fract_x
_atom_site_fract_y
_atom_site_fract_z
_atom_type_partial_charge
Dy0 Dy 0.44262 0.40805 0.38506 0.0
Dy1 Dy 0.29308 0.32189 0.30766 0.0
C2 C 0.41105 0.27294 0.26589 0.0
O3 O 0.46033 0.48062 0.29759 0.0
O4 O 0.35217 0.41446 0.23434 0.0
O5 O 0.5588 0.46077 0.38289 0.0
O6 O 0.51224 0.46077 0.47731 0.0
O7 O 0.27878 0.3978 0.3882 0.0
O8 O 0.39412 0.47935 0.42452 0.0
O9 O 0.27548 0.24903 0.39486 0.0
O10 O 0.3833 0.31567 0.45848 0.0
O11 O 0.17693 0.26921 0.31014 0.0
O12 O 0.22319 0.26932 0.21551 0.0
C13 C 0.41887 0.47009 0.24028 0.0
O14 O 0.45699 0.33183 0.30486 0.0
O15 O 0.34161 0.25078 0.26781 0.0
C16 C 0.59977 0.42095 0.47815 0.0
C17 C 0.55556 0.28689 0.53075 0.0
C18 C 0.56722 0.29326 0.46172 0.0
C19 C 0.59165 0.36051 0.4359 0.0
C20 C 0.60003 0.41651 0.54889 0.0
C21 C 0.5766 0.34914 0.57477 0.0
C22 C 0.56938 0.46637 0.44932 0.0
C23 C 0.32471 0.45692 0.42686 0.0
C24 C 0.31674 0.25982 0.45236 0.0
C25 C 0.13606 0.30967 0.2153 0.0
C26 C 0.18085 0.44404 0.16322 0.0
C27 C 0.16936 0.43751 0.23227 0.0
C28 C 0.14461 0.37011 0.25783 0.0
C29 C 0.13572 0.31436 0.14461 0.0
C30 C 0.15935 0.38185 0.11898 0.0
C31 C 0.16621 0.26388 0.24373 0.0
H32 H 0.55608 0.24625 0.42738 0.0
H33 H 0.59446 0.36284 0.38121 0.0
H34 H 0.60847 0.46295 0.5828 0.0
H35 H 0.57568 0.34604 0.62904 0.0
H36 H 0.18082 0.48448 0.26679 0.0
H37 H 0.14189 0.36759 0.31252 0.0
H38 H 0.12696 0.26795 0.11049 0.0
H39 H 0.16011 0.3851 0.06471 0.0
Dy40 Dy 0.91975 0.35947 0.29567 0.0
Dy41 Dy 0.81641 0.37209 0.39805 0.0
C42 C 0.98291 0.46801 0.4371 0.0
O43 O 0.95976 0.32127 0.38775 0.0
O44 O 0.86129 0.29468 0.44631 0.0
O45 O 0.99767 0.38764 0.2218 0.0
O46 O 0.94131 0.27594 0.24783 0.0
O47 O 0.74122 0.30362 0.30383 0.0
O48 O 0.81517 0.26108 0.26308 0.0
O49 O 0.77719 0.41173 0.30646 0.0
O50 O 0.87448 0.43617 0.24658 0.0
O51 O 0.73837 0.34292 0.4719 0.0
O52 O 0.79425 0.45491 0.44652 0.0
C53 C 0.92371 0.29101 0.43885 0.0
O54 O 0.99535 0.42912 0.38901 0.0
O55 O 0.921 0.4701 0.43204 0.0
C56 C 0.94481 0.29341 0.13121 0.0
C57 C 0.9275 0.41116 0.09835 0.0
C58 C 0.98638 0.40165 0.07609 0.0
C59 C 0.98826 0.33593 0.08437 0.0
C60 C 0.87386 0.28609 0.12261 0.0
C61 C 0.86576 0.3491 0.11183 0.0
C62 C 0.9775 0.31861 0.2029 0.0
C63 C 0.75378 0.26418 0.25641 0.0
C64 C 0.81267 0.44087 0.25467 0.0
C65 C 0.7907 0.43668 0.56298 0.0
C66 C 0.80857 0.31921 0.59569 0.0
C67 C 0.74962 0.3284 0.61813 0.0
C68 C 0.74726 0.39387 0.60969 0.0
C69 C 0.86177 0.44433 0.57161 0.0
C70 C 0.87013 0.38142 0.58213 0.0
C71 C 0.75817 0.41179 0.49121 0.0
H72 H 1.03307 0.44487 1.05916 0.0
H73 H 1.03032 0.32525 0.06589 0.0
H74 H 0.83053 0.23986 0.14062 0.0
H75 H 0.81601 0.35143 0.12153 0.0
H76 H 0.7033 0.28502 0.6355 0.0
H77 H 0.70513 0.40435 0.62828 0.0
H78 H 0.90502 0.49075 0.55377 0.0
H79 H 0.91996 0.37933 0.57222 0.0
Dy80 Dy 0.81247 0.81404 0.39735 0.0
Dy81 Dy 0.92286 0.91635 0.2957 0.0
C82 C 0.97496 0.9188 0.44982 0.0
O83 O 0.79294 0.91278 0.38916 0.0
O84 O 0.89737 0.99674 0.35116 0.0
O85 O 0.77515 0.81851 0.49617 0.0
O86 O 0.73687 0.71539 0.43777 0.0
O87 O 0.81088 0.87817 0.24518 0.0
O88 O 0.74998 0.77386 0.29639 0.0
O89 O 0.94287 0.81795 0.3044 0.0
O90 O 0.83819 0.73381 0.3418 0.0
O91 O 0.96038 0.91173 0.19703 0.0
O92 O 0.99847 1.01495 0.2552 0.0
C93 C 0.83899 0.98042 0.3816 0.0
O94 O 0.92451 0.85235 0.44769 0.0
O95 O 0.98498 0.95691 0.39679 0.0
C96 C 0.80433 0.73161 0.54486 0.0
C97 C 0.94676 0.74707 0.56256 0.0
C98 C 0.9287 0.7967 0.59733 0.0
C99 C 0.85772 0.78839 0.58933 0.0
C100 C 0.81942 0.67466 0.52221 0.0
C101 C 0.89035 0.68322 0.52931 0.0
C102 C 0.75512 0.74916 0.49898 0.0
C103 C 0.76003 0.81194 0.24332 0.0
C104 C 0.89684 0.75026 0.31176 0.0
C105 C 0.93125 0.99848 0.14793 0.0
C106 C 0.78886 0.98307 0.13013 0.0
C107 C 0.80683 0.93326 0.09557 0.0
C108 C 0.87779 0.94152 0.10366 0.0
C109 C 0.91626 0.05559 0.17022 0.0
C110 C 0.84535 1.04705 0.1631 0.0
C111 C 0.98037 0.98105 0.19405 0.0
H112 H 0.96993 0.84434 0.62695 0.0
H113 H 0.84747 0.83229 0.60928 0.0
H114 H 0.7791 0.62859 0.48993 0.0
H115 H 0.90142 0.64168 0.5048 0.0
H116 H 0.76553 0.88549 0.06619 0.0
H117 H 0.88796 0.89747 0.08405 0.0
H118 H 0.95664 0.10178 0.20231 0.0
H119 H 0.83436 0.08874 0.18742 0.0
Dy120 Dy 0.32171 0.90825 0.3515 0.0
Dy121 Dy 0.41425 0.82203 0.34245 0.0
C122 C 0.48325 0.98767 0.40458 0.0
O123 O 0.3911 0.95037 0.2646 0.0
O124 O 0.45976 0.89027 0.25086 0.0
O125 O 0.28429 0.98916 0.36533 0.0
O126 O 0.24521 0.9134 0.27442 0.0
O127 O 0.31511 0.7482 0.27394 0.0
O128 O 0.24832 0.79291 0.32847 0.0
O129 O 0.34481 0.77969 0.42924 0.0
O130 O 0.27598 0.83961 0.44288 0.0
O131 O 0.4513 0.74083 0.32871 0.0
O132 O 0.49121 0.81715 0.41918 0.0
C133 C 0.44058 0.94141 0.23259 0.0
O134 O 0.42075 0.98229 0.41991 0.0
O135 O 0.48761 0.93746 0.36565 0.0
C136 C 0.16622 0.95553 0.31524 0.0
C137 C 0.17271 0.99624 0.44785 0.0
C138 C 0.14207 0.92142 0.42669 0.0
C139 C 0.13106 0.90025 0.35726 0.0
C140 C 0.16419 1.02145 0.33034 0.0
C141 C 0.1731 1.04468 0.39947 0.0
C142 C 0.23998 0.96606 0.30847 0.0
C143 C 0.25262 0.7428 0.28937 0.0
C144 C 0.29517 0.78845 0.46113 0.0
C145 C 0.56966 0.77451 0.37799 0.0
C146 C 0.56198 0.73359 0.24518 0.0
C147 C 0.59273 0.80842 0.26633 0.0
C148 C 0.6045 0.82968 0.33578 0.0
C149 C 0.57139 0.70848 0.36265 0.0
C150 C 0.56186 0.68516 0.29348 0.0
C151 C 0.49604 0.76419 0.38527 0.0
H152 H 0.13697 0.88136 0.46263 0.0
H153 H 0.11987 0.84491 0.34199 0.0
H154 H 0.17898 0.06191 0.29341 0.0
H155 H 0.19191 0.10149 0.4131 0.0
H156 H 0.59756 0.84846 0.23046 0.0
H157 H 0.61601 0.88508 0.35116 0.0
H158 H 0.55689 0.66807 0.39963 0.0
H159 H 0.54288 0.62833 0.27984 0.0
Dy160 Dy 0.40981 0.8321 0.80599 0.0
Dy161 Dy 0.32334 0.8971 0.88724 0.0
C162 C 0.48046 0.97684 0.90329 0.0
O163 O 0.38233 0.76124 0.89103 0.0
O164 O 0.37398 0.84285 0.96576 0.0
O165 O 0.50145 0.809 0.8045 0.0
O166 O 0.41316 0.76339 0.72338 0.0
O167 O 0.24372 0.80946 0.80842 0.0
O168 O 0.30453 0.74703 0.8256 0.0
O169 O 0.35126 0.96802 0.80219 0.0
O170 O 0.35936 0.8863 0.72743 0.0
O171 O 0.23134 0.91957 0.88891 0.0
O172 O 0.32031 0.96657 0.9693 0.0
C173 C 0.3903 0.78738 0.95393 0.0
O174 O 0.48953 0.92006 0.88449 0.0
O175 O 0.42851 0.98243 0.86807 0.0
C176 C 0.52903 0.8064 0.69226 0.0
C177 C 0.53731 0.90576 0.60129 0.0
C178 C 0.58415 0.92929 0.66134 0.0
C179 C 0.57985 0.87923 0.70744 0.0
C180 C 0.49939 0.78148 0.62444 0.0
C181 C 0.4985 0.83191 0.58046 0.0
C182 C 0.47953 0.77558 0.74334 0.0
C183 C 0.25248 0.75235 0.79026 0.0
C184 C 0.34347 0.94203 0.73925 0.0
C185 C 0.2048 0.92365 1.0014 0.0
C186 C 0.1979 0.82485 0.09245 0.0
C187 C 0.15017 0.80102 1.03298 0.0
C188 C 0.15371 0.85083 0.98686 0.0
C189 C 0.2353 0.94894 0.06895 0.0
C190 C 0.23685 0.89877 0.11294 0.0
C191 C 0.2537 0.95384 0.94971 0.0
H192 H 0.61583 0.98651 0.6771 0.0
H193 H 0.60751 0.89936 0.7584 0.0
H194 H 0.46158 0.72499 0.61154 0.0
H195 H 0.45991 0.81337 0.5355 0.0
H196 H 0.11837 0.74375 1.01752 0.0
H197 H 0.12533 0.83046 0.93619 0.0
H198 H 0.27321 1.00547 0.08143 0.0
H199 H 0.27592 0.91753 0.15756 0.0
Dy200 Dy 0.41828 0.36107 0.79139 0.0
Dy201 Dy 0.31719 0.36856 0.90193 0.0
C202 C 0.25217 0.27314 0.76584 0.0
O203 O 0.38279 0.44375 0.74741 0.0
O204 O 0.2887 0.42193 0.81176 0.0
O205 O 0.42103 0.30931 0.69433 0.0
O206 O 0.52184 0.3823 0.75473 0.0
O207 O 0.42437 0.465 0.91952 0.0
O208 O 0.49518 0.41748 0.88197 0.0
O209 O 0.35308 0.28608 0.94597 0.0
O210 O 0.44695 0.30769 0.88137 0.0
O211 O 0.31428 0.4205 0.99881 0.0
O212 O 0.21356 0.34702 0.93858 0.0
C213 C 0.32166 0.44792 0.7571 0.0
O214 O 0.31096 0.26472 0.7739 0.0
O215 O 0.24022 0.31231 0.81139 0.0
C216 C 0.49348 0.25822 0.7407 0.0
C217 C 0.4947 0.12871 0.77077 0.0
C218 C 0.43341 0.13804 0.78029 0.0
C219 C 0.43098 0.20018 0.7595 0.0
C220 C 0.56022 0.2573 0.75671 0.0
C221 C 0.56048 0.19245 0.7757 0.0
C222 C 0.4869 0.32165 0.71611 0.0
C223 C 0.48317 0.45661 0.92754 0.0
C224 C 0.41414 0.28179 0.9361 0.0
C225 C 0.24123 0.47096 0.95253 0.0
C226 C 0.23938 0.60038 0.92302 0.0
C227 C 0.30071 0.59125 0.91305 0.0
C228 C 0.30342 0.52906 0.93331 0.0
C229 C 0.17434 0.47178 0.93732 0.0
C230 C 0.17371 0.53656 0.91865 0.0
C231 C 0.24827 0.40775 0.97713 0.0
H232 H 0.38363 0.09361 0.7905 0.0
H233 H 0.37922 0.20068 0.75592 0.0
H234 H 0.61066 0.30423 0.75131 0.0
H235 H 0.61102 0.18954 0.78477 0.0
H236 H 0.35033 0.63578 0.90267 0.0
H237 H 0.3552 0.52859 0.93626 0.0
H238 H 0.12408 0.42484 0.94323 0.0
H239 H 0.12306 0.53937 0.91034 0.0
Dy240 Dy 0.81579 0.40221 0.82979 0.0
Dy241 Dy 0.91944 0.32824 0.86429 0.0
C242 C 0.93704 0.48228 0.94893 0.0
O243 O 0.92702 0.47246 0.79931 0.0
O244 O 0.97591 0.39499 0.77904 0.0
O245 O 0.79893 0.46528 0.75101 0.0
O246 O 0.72284 0.424 0.82633 0.0
O247 O 0.86015 0.25321 0.77131 0.0
O248 O 0.77553 0.29661 0.76412 0.0
O249 O 0.80814 0.25827 0.89483 0.0
O250 O 0.76026 0.3364 0.91593 0.0
O251 O 0.93587 0.26459 0.94274 0.0
O252 O 1.01241 0.30648 0.8679 0.0
C253 C 0.97395 0.45678 0.76968 0.0
O254 O 0.8756 0.47792 0.92221 0.0
O255 O 0.95944 0.4335 0.93034 0.0
C256 C 0.76877 0.54698 0.81212 0.0
C257 C 0.79392 0.60165 0.94754 0.0
C258 C 0.85308 0.61257 0.91169 0.0
C259 C 0.84065 0.58718 0.84259 0.0
C260 C 0.71381 0.55606 0.842 0.0
C261 C 0.72595 0.58155 0.91065 0.0
C262 C 0.74955 0.47318 0.78296 0.0
C263 C 0.79834 0.24829 0.74503 0.0
C264 C 0.76195 0.27449 0.92524 0.0
C265 C 0.96635 0.18335 0.88127 0.0
C266 C 0.94177 0.12966 0.74558 0.0
C267 C 0.88243 0.1184 0.78128 0.0
C268 C 0.89458 0.14331 0.8505 0.0
C269 C 1.02148 0.17458 0.8514 0.0
C270 C 1.00964 0.14964 0.78261 0.0
C271 C 0.98544 0.25695 0.9109 0.0
H272 H 0.9064 0.63058 0.93856 0.0
H273 H 0.88528 0.58521 0.81864 0.0
H274 H 0.65842 0.52825 0.81859 0.0
H275 H 0.6795 0.57408 0.93726 0.0
H276 H 0.82919 0.10045 0.75427 0.0
H277 H 0.84983 0.14505 0.8744 0.0
H278 H 1.0768 0.20227 0.87502 0.0
H279 H 1.0562 0.15731 0.75611 0.0
Dy280 Dy 0.93553 0.92042 0.89299 0.0
Dy281 Dy 0.80036 0.81109 0.80045 0.0
C282 C 0.94345 0.78554 0.79131 0.0
O283 O 0.96304 0.98098 0.79788 0.0
O284 O 0.86539 0.90116 0.72729 0.0
O285 O 1.0522 0.98405 0.91571 0.0
O286 O 0.98096 0.99185 0.98591 0.0
O287 O 0.75903 0.88293 0.86373 0.0
O288 O 0.86386 0.97717 0.90973 0.0
O289 O 0.77294 0.7501 0.89529 0.0
O290 O 0.86992 0.83053 0.96611 0.0
O291 O 0.68375 0.74679 0.77812 0.0
O292 O 0.75498 0.74015 0.70727 0.0
C293 C 0.9295 0.9603 0.73592 0.0
O294 O 0.97702 0.84856 0.83002 0.0
O295 O 0.87225 0.75464 0.78342 0.0
C296 C 1.0635 0.95484 1.02544 0.0
C297 C 1.05147 0.85109 0.11608 0.0
C298 C 1.01948 0.83091 1.04849 0.0
C299 C 1.02771 0.88142 1.0041 0.0
C300 C 0.09611 0.97772 0.09279 0.0
C301 C 0.09203 0.92502 0.13796 0.0
C302 C 1.04521 0.99786 0.97919 0.0
C303 C 0.79265 0.94614 0.90216 0.0
C304 C 0.80611 0.77105 0.95735 0.0
C305 C 0.67131 0.776 0.66853 0.0
C306 C 0.68352 0.87972 0.57786 0.0
C307 C 0.71436 0.89993 0.64578 0.0
C308 C 0.70617 0.84939 0.69015 0.0
C309 C 0.63957 0.75314 0.60092 0.0
C310 C 0.64376 0.80579 0.55568 0.0
C311 C 0.69055 0.73336 0.71449 0.0
H312 H 0.98936 0.775 1.02748 0.0
H313 H 1.00189 0.86166 0.9529 0.0
H314 H 0.12177 1.03465 0.11066 0.0
H315 H 0.11648 0.94173 0.18967 0.0
H316 H 0.74377 0.95588 0.66689 0.0
H317 H 0.73162 0.86918 0.74144 0.0
H318 H 0.6148 0.69629 0.58283 0.0
H319 H 0.62033 0.78911 0.50365 0.0
C320 C 0.94262 0.14613 0.67372 0.0
C321 C 0.95888 0.25606 0.48824 0.0
C322 C 1.02493 0.95172 0.5107 0.0
Mg323 Mg 1.06741 0.25093 0.60573 0.0
O324 O 1.06841 0.16659 0.56098 0.0
Mg325 Mg 0.9706 0.08807 0.51891 0.0
Mg326 Mg 0.1233 0.1083 0.59648 0.0
O327 O 0.17726 1.0493 0.63103 0.0
Mg328 Mg 0.1661 0.95336 0.602 0.0
Mg329 Mg 0.27727 0.12893 0.66092 0.0
C330 C 0.20358 0.24612 0.7029 0.0
C331 C 0.28248 0.21034 0.51168 0.0
O332 O 0.93507 0.09655 0.62796 0.0
O333 O 0.97998 0.21254 0.66568 0.0
O334 O 0.93325 0.1861 0.48721 0.0
O335 O 1.01955 0.29617 0.5244 0.0
O336 O 0.16053 0.2748 0.68652 0.0
O337 O 0.20656 0.19586 0.66546 0.0
C338 C 0.9682 1.00457 0.67567 0.0
O339 O 1.03827 1.04055 0.6804 0.0
O340 O 0.93189 1.01641 0.62434 0.0
O341 O 0.21338 0.0678 0.55379 0.0
O342 O 0.2468 0.9826 0.53446 0.0
O343 O 0.32369 1.03498 0.67806 0.0
C344 C 0.21986 1.0225 0.51194 0.0
O345 O 0.23187 0.92319 0.67458 0.0
O346 O 1.0605 0.91859 0.53609 0.0
C347 C 0.2996 0.96623 0.68889 0.0
O348 O 1.03943 1.01764 0.52869 0.0
O349 O 0.21236 0.18034 0.51354 0.0
O350 O 0.32127 0.19785 0.55956 0.0
C351 C 0.4401 0.2403 0.21169 0.0
C352 C 0.45 0.25173 0.98954 0.0
C353 C 0.48547 0.99475 0.9776 0.0
Mg354 Mg 0.56625 0.26822 0.11939 0.0
O355 O 0.5354 0.16731 0.11376 0.0
Mg356 Mg 0.42966 0.10696 0.08322 0.0
Mg357 Mg 0.59075 0.11409 0.07292 0.0
O358 O 0.64416 0.05923 1.02542 0.0
Mg359 Mg 0.61021 0.95401 1.00921 0.0
Mg360 Mg 0.74191 0.11049 0.07684 0.0
C361 C 0.70337 0.23662 0.19033 0.0
C362 C 0.72426 0.22433 0.97805 0.0
O363 O 0.40227 0.17746 0.17676 0.0
O364 O 0.50407 0.28159 0.19788 0.0
O365 O 0.41497 0.18638 1.00504 0.0
O366 O 0.51357 0.29203 1.02131 0.0
O367 O 0.66605 0.27244 0.17854 0.0
O368 O 0.69235 0.17871 0.15067 0.0
C369 C 0.46999 0.9943 0.17675 0.0
O370 O 0.53333 1.01696 0.15466 0.0
O371 O 0.42943 1.02345 0.15712 0.0
O372 O 0.77869 1.03264 0.9906 0.0
O373 O 0.679 0.94635 0.93048 0.0
O374 O 0.70299 1.02462 0.14832 0.0
C375 C 0.74863 0.97885 0.94178 0.0
O376 O 0.66374 0.92086 0.09104 0.0
O377 O 0.50745 0.96057 1.01904 0.0
C378 C 0.71264 0.97025 0.13204 0.0
O379 O 0.48438 0.05449 0.99869 0.0
O380 O 0.65886 0.20745 0.99428 0.0
O381 O 0.76149 0.19382 1.00333 0.0
C382 C 0.91617 0.69318 0.28871 0.0
C383 C 1.03695 0.7906 0.15832 0.0
C384 C 0.99311 0.54708 0.99178 0.0
Mg385 Mg 1.04736 0.69015 0.25948 0.0
O386 O 1.00237 0.59881 0.2032 0.0
Mg387 Mg 0.93068 0.61541 0.12972 0.0
Mg388 Mg 1.05368 0.66739 0.13226 0.0
O389 O 0.14865 0.6458 0.13996 0.0
Mg390 Mg 0.14955 0.60209 1.0509 0.0
Mg391 Mg 0.27059 0.68164 0.15097 0.0
C392 C 0.18182 0.68474 0.26374 0.0
C393 C 0.2225 0.77495 0.11811 0.0
O394 O 0.89684 0.66711 0.22583 0.0
O395 O 0.97201 0.69445 0.32112 0.0
O396 O 0.98429 0.73249 0.13323 0.0
O397 O 1.08083 0.79003 0.2067 0.0
O398 O 0.13426 0.67929 0.30315 0.0
O399 O 0.16486 0.66985 0.19715 0.0
C400 C 0.93599 0.48416 0.11642 0.0
O401 O 1.00074 0.53695 0.12639 0.0
O402 O 0.88121 0.49663 0.11979 0.0
O403 O 0.27571 0.64576 1.03699 0.0
O404 O 0.20316 0.67832 0.98042 0.0
O405 O 0.24419 0.57062 0.17738 0.0
C406 C 0.24915 0.65445 0.97929 0.0
O407 O 0.17926 0.51877 0.07812 0.0
O408 O 1.05259 0.54507 0.99605 0.0
C409 C 0.20655 0.51473 0.13682 0.0
O410 O 0.98606 0.59577 1.0302 0.0
O411 O 0.1764 0.70974 0.12894 0.0
O412 O 0.28916 0.79055 0.123 0.0
C413 C 0.51483 0.70732 0.18109 0.0
C414 C 0.43455 0.76344 1.00423 0.0
C415 C 0.53204 0.48415 0.99026 0.0
Mg416 Mg 0.56852 0.77697 0.09115 0.0
O417 O 0.55785 0.68121 0.06199 0.0
Mg418 Mg 0.45805 0.60124 1.03181 0.0
Mg419 Mg 0.6122 0.62246 0.09648 0.0
O420 O 0.66737 0.56441 0.13196 0.0
Mg421 Mg 0.66866 0.48011 0.0874 0.0
Mg422 Mg 0.76497 0.64311 0.17423 0.0
C423 C 0.71003 0.77895 0.18245 0.0
C424 C 0.76738 0.72673 1.01756 0.0
O425 O 0.52161 0.66232 0.1391 0.0
O426 O 0.48779 0.74718 0.15869 0.0
O427 O 0.41093 0.69467 1.01479 0.0
O428 O 0.50219 0.80683 1.01869 0.0
O429 O 0.67429 0.81192 0.15706 0.0
O430 O 0.69561 0.71304 0.16459 0.0
C431 C 0.45301 0.51968 0.18098 0.0
O432 O 0.52314 0.54994 0.17918 0.0
O433 O 0.41414 0.53204 0.13309 0.0
O434 O 0.80056 0.63473 0.06517 0.0
O435 O 0.75607 0.51878 1.02744 0.0
O436 O 0.80251 0.54531 0.20606 0.0
C437 C 0.79321 0.58523 1.01941 0.0
O438 O 0.71677 0.43507 0.16876 0.0
O439 O 0.57517 0.45559 1.00683 0.0
C440 C 0.77731 0.47542 0.205 0.0
O441 O 0.52954 0.53507 1.02706 0.0
O442 O 0.69732 0.69068 1.01278 0.0
O443 O 0.80368 0.71488 0.06889 0.0
C444 C 0.98751 0.75285 0.75176 0.0
C445 C 1.02301 0.75987 0.56088 0.0
C446 C 1.03476 0.49613 0.50217 0.0
Mg447 Mg 0.12576 0.77756 0.68415 0.0
O448 O 0.09216 0.67212 0.66894 0.0
Mg449 Mg 0.9942 0.62056 0.61767 0.0
Mg450 Mg 0.14566 0.61643 0.62193 0.0
O451 O 0.20044 0.5625 0.58105 0.0
Mg452 Mg 0.16982 0.46162 0.57353 0.0
Mg453 Mg 0.30634 0.62268 0.60995 0.0
C454 C 0.24689 0.7332 0.71615 0.0
C455 C 0.26568 0.73537 0.51682 0.0
O456 O 0.95746 0.699 0.70303 0.0
O457 O 1.05712 0.78532 0.76303 0.0
O458 O 1.03273 0.7054 0.54514 0.0
O459 O 1.07179 0.80953 0.60173 0.0
O460 O 0.22641 0.76749 0.67361 0.0
O461 O 0.25416 0.67659 0.69562 0.0
C462 C 1.01217 0.50733 0.71736 0.0
O463 O 1.07756 0.52387 0.7012 0.0
O464 O 0.97509 0.53799 0.69196 0.0
O465 O 0.33341 0.55233 0.51603 0.0
O466 O 0.23191 0.44808 0.4952 0.0
O467 O 0.3212 0.54335 0.68804 0.0
C468 C 0.29572 0.48946 0.4812 0.0
O469 O 0.22244 0.43779 0.67169 0.0
O470 O 1.07263 0.46072 0.51261 0.0
C471 C 0.28599 0.47803 0.70357 0.0
O472 O 1.04258 0.55016 0.54573 0.0
O473 O 0.20245 0.71278 0.53914 0.0
O474 O 0.30621 0.70612 0.53625 0.0
C475 C 0.48516 0.07525 0.714 0.0
C476 C 0.52981 0.21623 0.55721 0.0
C477 C 0.554 1.04602 0.43 0.0
Mg478 Mg 0.58584 0.12799 0.64338 0.0
O479 O 0.58722 0.08504 0.55391 0.0
Mg480 Mg 0.46526 1.04935 0.54254 0.0
Mg481 Mg 0.68185 0.0629 0.56126 0.0
O482 O 0.73352 0.13151 0.49026 0.0
Mg483 Mg 0.68849 1.04043 0.43392 0.0
Mg484 Mg 0.8055 0.11532 0.56368 0.0
C485 C 0.74221 0.18293 0.7028 0.0
C486 C 0.80018 0.24631 0.57748 0.0
O487 O 0.45931 0.08479 0.65634 0.0
O488 O 0.53088 1.05104 0.71285 0.0
O489 O 0.49193 0.16043 0.51664 0.0
O490 O 0.55718 0.21207 0.61586 0.0
O491 O 0.68228 0.18399 0.69983 0.0
O492 O 0.74973 0.13593 0.66234 0.0
C493 C 0.513 0.95578 0.57535 0.0
O494 O 0.55927 1.02098 0.56468 0.0
O495 O 0.44638 0.94032 0.57027 0.0
O496 O 0.83939 0.06372 0.46759 0.0
O497 O 0.76398 1.03633 0.37241 0.0
O498 O 0.75163 0.99811 0.56063 0.0
C499 C 0.81987 1.0376 0.40472 0.0
O500 O 0.65513 0.94082 0.4869 0.0
O501 O 0.60151 1.05143 0.39054 0.0
C502 C 0.69877 0.94013 0.53546 0.0
O503 O 0.57105 0.06123 0.49655 0.0
O504 O 0.73548 0.19337 0.56844 0.0
O505 O 0.85497 0.23404 0.57315 0.0
loop_
_geom_bond_atom_site_label_1
_geom_bond_atom_site_label_2
_geom_bond_distance
_geom_bond_site_symmetry_2
_ccdc_geom_bond_type
Dy0 O3 2.307 . S
Dy0 O5 2.395 . S
Dy0 O6 2.379 . S
Dy0 O8 2.339 . S
Dy0 O10 2.298 . S
Dy0 O14 2.275 . S
Dy0 C22 2.738 . S
Dy1 O4 2.298 . S
Dy1 O7 2.275 . S
Dy1 O9 2.307 . S
Dy1 O11 2.395 . S
Dy1 O12 2.379 . S
Dy1 O15 2.339 . S
Dy1 C31 2.738 . S
C2 O14 1.254 . S
C2 O15 1.257 . S
O3 Dy0 2.307 . S
O3 C13 1.266 . S
O4 Dy1 2.298 . S
O4 C13 1.236 . S
O5 Dy0 2.395 . S
O5 C22 1.255 . S
O6 Dy0 2.379 . S
O6 C22 1.249 . S
O7 Dy1 2.275 . S
O7 C23 1.254 . S
O8 Dy0 2.339 . S
O8 C23 1.257 . S
O9 Dy1 2.307 . S
O9 C24 1.266 . S
O10 Dy0 2.298 . S
O10 C24 1.236 . S
O11 Dy1 2.395 . S
O11 C31 1.255 . S
O12 Dy1 2.379 . S
O12 C31 1.249 . S
C13 O3 1.266 . S
C13 O4 1.236 . S
O14 Dy0 2.275 . S
O14 C2 1.254 . S
O15 Dy1 2.339 . S
O15 C2 1.257 . S
C16 C19 1.344 . S
C16 C20 1.328 . S
C16 C22 1.516 . S
C17 C18 1.304 . S
C17 C21 1.323 . S
C18 C17 1.304 . S
C18 C19 1.371 . S
C18 H32 0.930 . S
C19 C16 1.344 . S
C19 C18 1.371 . S
C19 H33 0.931 . S
C20 C16 1.328 . S
C20 C21 1.433 . S
C20 H34 0.931 . S
C21 C17 1.323 . S
C21 C20 1.433 . S
C21 H35 0.933 . S
C22 Dy0 2.738 . S
C22 O5 1.255 . S
C22 O6 1.249 . S
C22 C16 1.516 . S
C23 O7 1.254 . S
C23 O8 1.257 . S
C24 O9 1.266 . S
C24 O10 1.236 . S
C25 C28 1.344 . S
C25 C29 1.328 . S
C25 C31 1.516 . S
C26 C27 1.304 . S
C26 C30 1.323 . S
C27 C26 1.304 . S
C27 C28 1.371 . S
C27 H36 0.930 . S
C28 C25 1.344 . S
C28 C27 1.371 . S
C28 H37 0.931 . S
C29 C25 1.328 . S
C29 C30 1.433 . S
C29 H38 0.931 . S
C30 C26 1.323 . S
C30 C29 1.433 . S
C30 H39 0.933 1_554 S
C31 Dy1 2.738 . S
C31 O11 1.255 . S
C31 O12 1.249 . S
C31 C25 1.516 . S
H32 C18 0.930 . S
H33 C19 0.931 . S
H34 C20 0.931 . S
H35 C21 0.933 . S
H36 C27 0.930 . S
H37 C28 0.931 . S
H38 C29 0.931 . S
H39 C30 0.933 1_556 S
Dy40 O43 2.307 . S
Dy40 O45 2.395 . S
Dy40 O46 2.379 . S
Dy40 O48 2.339 . S
Dy40 O50 2.298 . S
Dy40 O54 2.275 . S
Dy40 C62 2.738 . S
Dy41 O44 2.298 . S
Dy41 O47 2.275 . S
Dy41 O49 2.307 . S
Dy41 O51 2.395 . S
Dy41 O52 2.379 . S
Dy41 O55 2.339 . S
Dy41 C71 2.738 . S
C42 O54 1.254 . S
C42 O55 1.257 . S
O43 Dy40 2.307 . S
O43 C53 1.266 . S
O44 Dy41 2.298 . S
O44 C53 1.236 . S
O45 Dy40 2.395 . S
O45 C62 1.255 . S
O46 Dy40 2.379 . S
O46 C62 1.249 . S
O47 Dy41 2.275 . S
O47 C63 1.254 . S
O48 Dy40 2.339 . S
O48 C63 1.257 . S
O49 Dy41 2.307 . S
O49 C64 1.266 . S
O50 Dy40 2.298 . S
O50 C64 1.236 . S
O51 Dy41 2.395 . S
O51 C71 1.255 . S
O52 Dy41 2.379 . S
O52 C71 1.249 . S
C53 O43 1.266 . S
C53 O44 1.236 . S
O54 Dy40 2.275 . S
O54 C42 1.254 . S
O55 Dy41 2.339 . S
O55 C42 1.257 . S
C56 C59 1.344 . S
C56 C60 1.328 . S
C56 C62 1.516 . S
C57 C58 1.304 . S
C57 C61 1.323 1_455 S
C58 C57 1.304 . S
C58 C59 1.371 1_455 S
C58 H72 0.930 . S
C59 C56 1.344 . S
C59 C58 1.371 1_655 S
C59 H73 0.931 . S
C60 C56 1.328 . S
C60 C61 1.433 . S
C60 H74 0.931 . S
C61 C57 1.323 1_655 S
C61 C60 1.433 . S
C61 H75 0.933 . S
C62 Dy40 2.738 . S
C62 O45 1.255 . S
C62 O46 1.249 . S
C62 C56 1.516 . S
C63 O47 1.254 . S
C63 O48 1.257 . S
C64 O49 1.266 . S
C64 O50 1.236 . S
C65 C68 1.344 . S
C65 C69 1.328 . S
C65 C71 1.516 . S
C66 C67 1.304 . S
C66 C70 1.323 . S
C67 C66 1.304 . S
C67 C68 1.371 . S
C67 H76 0.930 1_545 S
C68 C65 1.344 . S
C68 C67 1.371 . S
C68 H77 0.931 . S
C69 C65 1.328 . S
C69 C70 1.433 . S
C69 H78 0.931 . S
C70 C66 1.323 . S
C70 C69 1.433 . S
C70 H79 0.933 . S
C71 Dy41 2.738 . S
C71 O51 1.255 . S
C71 O52 1.249 . S
C71 C65 1.516 . S
H72 C58 0.930 . S
H73 C59 0.931 . S
H74 C60 0.931 . S
H75 C61 0.933 . S
H76 C67 0.930 1_565 S
H77 C68 0.931 . S
H78 C69 0.931 . S
H79 C70 0.933 . S
Dy80 O83 2.307 . S
Dy80 O85 2.395 . S
Dy80 O86 2.379 . S
Dy80 O88 2.339 . S
Dy80 O90 2.298 . S
Dy80 O94 2.275 . S
Dy80 C102 2.738 . S
Dy81 O84 2.298 . S
Dy81 O87 2.275 . S
Dy81 O89 2.307 . S
Dy81 O91 2.395 . S
Dy81 O92 2.379 . S
Dy81 O95 2.339 . S
Dy81 C111 2.738 . S
C82 O94 1.254 . S
C82 O95 1.257 . S
O83 Dy80 2.307 . S
O83 C93 1.266 . S
O84 Dy81 2.298 . S
O84 C93 1.236 . S
O85 Dy80 2.395 . S
O85 C102 1.255 . S
O86 Dy80 2.379 . S
O86 C102 1.249 . S
O87 Dy81 2.275 . S
O87 C103 1.254 . S
O88 Dy80 2.339 . S
O88 C103 1.257 . S
O89 Dy81 2.307 . S
O89 C104 1.266 . S
O90 Dy80 2.298 . S
O90 C104 1.236 . S
O91 Dy81 2.395 . S
O91 C111 1.255 . S
O92 Dy81 2.379 . S
O92 C111 1.249 . S
C93 O83 1.266 . S
C93 O84 1.236 . S
O94 Dy80 2.275 . S
O94 C82 1.254 . S
O95 Dy81 2.339 . S
O95 C82 1.257 . S
C96 C99 1.344 . S
C96 C100 1.328 . S
C96 C102 1.516 . S
C97 C98 1.304 . S
C97 C101 1.323 . S
C98 C97 1.304 . S
C98 C99 1.371 . S
C98 H112 0.930 1_655 S
C99 C96 1.344 . S
C99 C98 1.371 . S
C99 H113 0.931 . S
C100 C96 1.328 . S
C100 C101 1.433 . S
C100 H114 0.931 . S
C101 C97 1.323 . S
C101 C100 1.433 . S
C101 H115 0.933 . S
C102 Dy80 2.738 . S
C102 O85 1.255 . S
C102 O86 1.249 . S
C102 C96 1.516 . S
C103 O87 1.254 . S
C103 O88 1.257 . S
C104 O89 1.266 . S
C104 O90 1.236 . S
C105 C108 1.344 . S
C105 C109 1.328 1_565 S
C105 C111 1.516 . S
C106 C107 1.304 1_545 S
C106 C110 1.323 . S
C107 C106 1.304 1_565 S
C107 C108 1.371 . S
C107 H116 0.930 . S
C108 C105 1.344 . S
C108 C107 1.371 . S
C108 H117 0.931 . S
C109 C105 1.328 1_545 S
C109 C110 1.433 . S
C109 H118 0.931 . S
C110 C106 1.323 . S
C110 C109 1.433 . S
C110 H119 0.933 . S
C111 Dy81 2.738 . S
C111 O91 1.255 . S
C111 O92 1.249 . S
C111 C105 1.516 . S
H112 C98 0.930 1_455 S
H113 C99 0.931 . S
H114 C100 0.931 . S
H115 C101 0.933 . S
H116 C107 0.930 . S
H117 C108 0.931 . S
H118 C109 0.931 . S
H119 C110 0.933 . S
Dy120 O123 2.307 . S
Dy120 O125 2.395 . S
Dy120 O126 2.379 . S
Dy120 O128 2.339 . S
Dy120 O130 2.298 . S
Dy120 O134 2.275 . S
Dy120 C142 2.738 . S
Dy121 O124 2.298 . S
Dy121 O127 2.275 . S
Dy121 O129 2.307 . S
Dy121 O131 2.395 . S
Dy121 O132 2.379 . S
Dy121 O135 2.339 . S
Dy121 C151 2.738 . S
C122 O134 1.254 . S
C122 O135 1.257 . S
O123 Dy120 2.307 . S
O123 C133 1.266 . S
O124 Dy121 2.298 . S
O124 C133 1.236 . S
O125 Dy120 2.395 . S
O125 C142 1.255 . S
O126 Dy120 2.379 . S
O126 C142 1.249 . S
O127 Dy121 2.275 . S
O127 C143 1.254 . S
O128 Dy120 2.339 . S
O128 C143 1.257 . S
O129 Dy121 2.307 . S
O129 C144 1.266 . S
O130 Dy120 2.298 . S
O130 C144 1.236 . S
O131 Dy121 2.395 . S
O131 C151 1.255 . S
O132 Dy121 2.379 . S
O132 C151 1.249 . S
C133 O123 1.266 . S
C133 O124 1.236 . S
O134 Dy120 2.275 . S
O134 C122 1.254 . S
O135 Dy121 2.339 . S
O135 C122 1.257 . S
C136 C139 1.344 . S
C136 C140 1.328 . S
C136 C142 1.516 . S
C137 C138 1.304 . S
C137 C141 1.323 . S
C138 C137 1.304 . S
C138 C139 1.371 . S
C138 H152 0.930 1_565 S
C139 C136 1.344 . S
C139 C138 1.371 . S
C139 H153 0.931 . S
C140 C136 1.328 . S
C140 C141 1.433 . S
C140 H154 0.931 . S
C141 C137 1.323 . S
C141 C140 1.433 . S
C141 H155 0.933 . S
C142 Dy120 2.738 . S
C142 O125 1.255 . S
C142 O126 1.249 . S
C142 C136 1.516 . S
C143 O127 1.254 . S
C143 O128 1.257 . S
C144 O129 1.266 . S
C144 O130 1.236 . S
C145 C148 1.344 . S
C145 C149 1.328 . S
C145 C151 1.516 . S
C146 C147 1.304 . S
C146 C150 1.323 . S
C147 C146 1.304 . S
C147 C148 1.371 . S
C147 H156 0.930 . S
C148 C145 1.344 . S
C148 C147 1.371 . S
C148 H157 0.931 . S
C149 C145 1.328 . S
C149 C150 1.433 . S
C149 H158 0.931 . S
C150 C146 1.323 . S
C150 C149 1.433 . S
C150 H159 0.933 . S
C151 Dy121 2.738 . S
C151 O131 1.255 . S
C151 O132 1.249 . S
C151 C145 1.516 . S
H152 C138 0.930 1_545 S
H153 C139 0.931 . S
H154 C140 0.931 . S
H155 C141 0.933 . S
H156 C147 0.930 . S
H157 C148 0.931 . S
H158 C149 0.931 . S
H159 C150 0.933 . S
Dy160 O163 2.307 . S
Dy160 O165 2.395 . S
Dy160 O166 2.379 . S
Dy160 O168 2.339 . S
Dy160 O170 2.298 . S
Dy160 O174 2.275 . S
Dy160 C182 2.738 . S
Dy161 O164 2.298 . S
Dy161 O167 2.275 . S
Dy161 O169 2.307 . S
Dy161 O171 2.395 . S
Dy161 O172 2.379 . S
Dy161 O175 2.339 . S
Dy161 C191 2.738 . S
C162 O174 1.254 . S
C162 O175 1.257 . S
O163 Dy160 2.307 . S
O163 C173 1.266 . S
O164 Dy161 2.298 . S
O164 C173 1.236 . S
O165 Dy160 2.395 . S
O165 C182 1.255 . S
O166 Dy160 2.379 . S
O166 C182 1.249 . S
O167 Dy161 2.275 . S
O167 C183 1.254 . S
O168 Dy160 2.339 . S
O168 C183 1.257 . S
O169 Dy161 2.307 . S
O169 C184 1.266 . S
O170 Dy160 2.298 . S
O170 C184 1.236 . S
O171 Dy161 2.395 . S
O171 C191 1.255 . S
O172 Dy161 2.379 . S
O172 C191 1.249 . S
C173 O163 1.266 . S
C173 O164 1.236 . S
O174 Dy160 2.275 . S
O174 C162 1.254 . S
O175 Dy161 2.339 . S
O175 C162 1.257 . S
C176 C179 1.344 1_565 S
C176 C180 1.328 . S
C176 C182 1.516 . S
C177 C178 1.304 . S
C177 C181 1.323 1_545 S
C178 C177 1.304 . S
C178 C179 1.371 . S
C178 H192 0.930 . S
C179 C176 1.344 1_545 S
C179 C178 1.371 . S
C179 H193 0.931 . S
C180 C176 1.328 . S
C180 C181 1.433 . S
C180 H194 0.931 . S
C181 C177 1.323 1_565 S
C181 C180 1.433 . S
C181 H195 0.933 . S
C182 Dy160 2.738 . S
C182 O165 1.255 . S
C182 O166 1.249 . S
C182 C176 1.516 . S
C183 O167 1.254 . S
C183 O168 1.257 . S
C184 O169 1.266 . S
C184 O170 1.236 . S
C185 C188 1.344 . S
C185 C189 1.328 1_556 S
C185 C191 1.516 . S
C186 C187 1.304 1_554 S
C186 C190 1.323 . S
C187 C186 1.304 1_556 S
C187 C188 1.371 . S
C187 H196 0.930 . S
C188 C185 1.344 . S
C188 C187 1.371 . S
C188 H197 0.931 . S
C189 C185 1.328 1_554 S
C189 C190 1.433 . S
C189 H198 0.931 . S
C190 C186 1.323 . S
C190 C189 1.433 . S
C190 H199 0.933 . S
C191 Dy161 2.738 . S
C191 O171 1.255 . S
C191 O172 1.249 . S
C191 C185 1.516 . S
H192 C178 0.930 . S
H193 C179 0.931 . S
H194 C180 0.931 . S
H195 C181 0.933 . S
H196 C187 0.930 . S
H197 C188 0.931 . S
H198 C189 0.931 . S
H199 C190 0.933 . S
Dy200 O203 2.307 . S
Dy200 O205 2.395 . S
Dy200 O206 2.379 . S
Dy200 O208 2.339 . S
Dy200 O210 2.298 . S
Dy200 O214 2.275 . S
Dy200 C222 2.738 . S
Dy201 O204 2.298 . S
Dy201 O207 2.275 . S
Dy201 O209 2.307 . S
Dy201 O211 2.395 . S
Dy201 O212 2.379 . S
Dy201 O215 2.339 . S
Dy201 C231 2.738 . S
C202 O214 1.254 . S
C202 O215 1.257 . S
O203 Dy200 2.307 . S
O203 C213 1.266 . S
O204 Dy201 2.298 . S
O204 C213 1.236 . S
O205 Dy200 2.395 . S
O205 C222 1.255 . S
O206 Dy200 2.379 . S
O206 C222 1.249 . S
O207 Dy201 2.275 . S
O207 C223 1.254 . S
O208 Dy200 2.339 . S
O208 C223 1.257 . S
O209 Dy201 2.307 . S
O209 C224 1.266 . S
O210 Dy200 2.298 . S
O210 C224 1.236 . S
O211 Dy201 2.395 . S
O211 C231 1.255 . S
O212 Dy201 2.379 . S
O212 C231 1.249 . S
C213 O203 1.266 . S
C213 O204 1.236 . S
O214 Dy200 2.275 . S
O214 C202 1.254 . S
O215 Dy201 2.339 . S
O215 C202 1.257 . S
C216 C219 1.344 . S
C216 C220 1.328 . S
C216 C222 1.516 . S
C217 C218 1.304 . S
C217 C221 1.323 . S
C218 C217 1.304 . S
C218 C219 1.371 . S
C218 H232 0.930 . S
C219 C216 1.344 . S
C219 C218 1.371 . S
C219 H233 0.931 . S
C220 C216 1.328 . S
C220 C221 1.433 . S
C220 H234 0.931 . S
C221 C217 1.323 . S
C221 C220 1.433 . S
C221 H235 0.933 . S
C222 Dy200 2.738 . S
C222 O205 1.255 . S
C222 O206 1.249 . S
C222 C216 1.516 . S
C223 O207 1.254 . S
C223 O208 1.257 . S
C224 O209 1.266 . S
C224 O210 1.236 . S
C225 C228 1.344 . S
C225 C229 1.328 . S
C225 C231 1.516 . S
C226 C227 1.304 . S
C226 C230 1.323 . S
C227 C226 1.304 . S
C227 C228 1.371 . S
C227 H236 0.930 . S
C228 C225 1.344 . S
C228 C227 1.371 . S
C228 H237 0.931 . S
C229 C225 1.328 . S
C229 C230 1.433 . S
C229 H238 0.931 . S
C230 C226 1.323 . S
C230 C229 1.433 . S
C230 H239 0.933 1_455 S
C231 Dy201 2.738 . S
C231 O211 1.255 . S
C231 O212 1.249 . S
C231 C225 1.516 . S
H232 C218 0.930 . S
H233 C219 0.931 . S
H234 C220 0.931 . S
H235 C221 0.933 . S
H236 C227 0.930 . S
H237 C228 0.931 . S
H238 C229 0.931 . S
H239 C230 0.933 1_655 S
Dy240 O243 2.307 . S
Dy240 O245 2.395 . S
Dy240 O246 2.379 . S
Dy240 O248 2.339 . S
Dy240 O250 2.298 . S
Dy240 O254 2.275 . S
Dy240 C262 2.738 . S
Dy241 O244 2.298 . S
Dy241 O247 2.275 . S
Dy241 O249 2.307 . S
Dy241 O251 2.395 . S
Dy241 O252 2.379 . S
Dy241 O255 2.339 . S
Dy241 C271 2.738 . S
C242 O254 1.254 . S
C242 O255 1.257 . S
O243 Dy240 2.307 . S
O243 C253 1.266 . S
O244 Dy241 2.298 . S
O244 C253 1.236 . S
O245 Dy240 2.395 . S
O245 C262 1.255 . S
O246 Dy240 2.379 . S
O246 C262 1.249 . S
O247 Dy241 2.275 . S
O247 C263 1.254 . S
O248 Dy240 2.339 . S
O248 C263 1.257 . S
O249 Dy241 2.307 . S
O249 C264 1.266 . S
O250 Dy240 2.298 . S
O250 C264 1.236 . S
O251 Dy241 2.395 . S
O251 C271 1.255 . S
O252 Dy241 2.379 . S
O252 C271 1.249 . S
C253 O243 1.266 . S
C253 O244 1.236 . S
O254 Dy240 2.275 . S
O254 C242 1.254 . S
O255 Dy241 2.339 . S
O255 C242 1.257 . S
C256 C259 1.344 . S
C256 C260 1.328 . S
C256 C262 1.516 . S
C257 C258 1.304 . S
C257 C261 1.323 . S
C258 C257 1.304 . S
C258 C259 1.371 . S
C258 H272 0.930 . S
C259 C256 1.344 . S
C259 C258 1.371 . S
C259 H273 0.931 . S
C260 C256 1.328 . S
C260 C261 1.433 . S
C260 H274 0.931 . S
C261 C257 1.323 . S
C261 C260 1.433 . S
C261 H275 0.933 . S
C262 Dy240 2.738 . S
C262 O245 1.255 . S
C262 O246 1.249 . S
C262 C256 1.516 . S
C263 O247 1.254 . S
C263 O248 1.257 . S
C264 O249 1.266 . S
C264 O250 1.236 . S
C265 C268 1.344 . S
C265 C269 1.328 1_655 S
C265 C271 1.516 . S
C266 C267 1.304 1_455 S
C266 C270 1.323 . S
C267 C266 1.304 1_655 S
C267 C268 1.371 . S
C267 H276 0.930 . S
C268 C265 1.344 . S
C268 C267 1.371 . S
C268 H277 0.931 . S
C269 C265 1.328 1_455 S
C269 C270 1.433 . S
C269 H278 0.931 . S
C270 C266 1.323 . S
C270 C269 1.433 . S
C270 H279 0.933 . S
C271 Dy241 2.738 . S
C271 O251 1.255 . S
C271 O252 1.249 . S
C271 C265 1.516 . S
H272 C258 0.930 . S
H273 C259 0.931 . S
H274 C260 0.931 . S
H275 C261 0.933 . S
H276 C267 0.930 . S
H277 C268 0.931 . S
H278 C269 0.931 . S
H279 C270 0.933 . S
Dy280 O283 2.307 . S
Dy280 O285 2.395 . S
Dy280 O286 2.379 . S
Dy280 O288 2.339 . S
Dy280 O290 2.298 . S
Dy280 O294 2.275 . S
Dy280 C302 2.738 . S
Dy281 O284 2.298 . S
Dy281 O287 2.275 . S
Dy281 O289 2.307 . S
Dy281 O291 2.395 . S
Dy281 O292 2.379 . S
Dy281 O295 2.339 . S
Dy281 C311 2.738 . S
C282 O294 1.254 . S
C282 O295 1.257 . S
O283 Dy280 2.307 . S
O283 C293 1.266 . S
O284 Dy281 2.298 . S
O284 C293 1.236 . S
O285 Dy280 2.395 . S
O285 C302 1.255 . S
O286 Dy280 2.379 . S
O286 C302 1.249 . S
O287 Dy281 2.275 . S
O287 C303 1.254 . S
O288 Dy280 2.339 . S
O288 C303 1.257 . S
O289 Dy281 2.307 . S
O289 C304 1.266 . S
O290 Dy280 2.298 . S
O290 C304 1.236 . S
O291 Dy281 2.395 . S
O291 C311 1.255 . S
O292 Dy281 2.379 . S
O292 C311 1.249 . S
C293 O283 1.266 . S
C293 O284 1.236 . S
O294 Dy280 2.275 . S
O294 C282 1.254 . S
O295 Dy281 2.339 . S
O295 C282 1.257 . S
C296 C299 1.344 1_554 S
C296 C300 1.328 . S
C296 C302 1.516 1_554 S
C297 C298 1.304 1_455 S
C297 C301 1.323 . S
C298 C297 1.304 1_655 S
C298 C299 1.371 1_554 S
C298 H312 0.930 . S
C299 C296 1.344 1_556 S
C299 C298 1.371 1_556 S
C299 H313 0.931 . S
C300 C296 1.328 . S
C300 C301 1.433 1_655 S
C300 H314 0.931 . S
C301 C297 1.323 . S
C301 C300 1.433 1_455 S
C301 H315 0.933 . S
C302 Dy280 2.738 . S
C302 O285 1.255 . S
C302 O286 1.249 . S
C302 C296 1.516 1_556 S
C303 O287 1.254 . S
C303 O288 1.257 . S
C304 O289 1.266 . S
C304 O290 1.236 . S
C305 C308 1.344 . S
C305 C309 1.328 . S
C305 C311 1.516 . S
C306 C307 1.304 . S
C306 C310 1.323 . S
C307 C306 1.304 . S
C307 C308 1.371 . S
C307 H316 0.930 . S
C308 C305 1.344 . S
C308 C307 1.371 . S
C308 H317 0.931 . S
C309 C305 1.328 . S
C309 C310 1.433 . S
C309 H318 0.931 . S
C310 C306 1.323 . S
C310 C309 1.433 . S
C310 H319 0.933 . S
C311 Dy281 2.738 . S
C311 O291 1.255 . S
C311 O292 1.249 . S
C311 C305 1.516 . S
H312 C298 0.930 . S
H313 C299 0.931 . S
H314 C300 0.931 . S
H315 C301 0.933 . S
H316 C307 0.930 . S
H317 C308 0.931 . S
H318 C309 0.931 . S
H319 C310 0.933 . S
C320 O332 1.241 . S
C320 O333 1.280 . S
C321 O334 1.277 . S
C321 O335 1.245 . S
C322 O346 1.247 . S
C322 O348 1.289 . S
Mg323 O324 1.926 1_455 S
Mg323 O333 1.984 1_455 S
Mg323 O335 1.988 1_455 S
Mg323 O336 2.061 . S
O324 Mg323 1.926 1_655 S
O324 Mg325 1.986 . S
O324 Mg326 1.917 1_655 S
Mg325 O324 1.986 . S
Mg325 O332 2.042 . S
Mg325 O334 2.041 . S
Mg325 O340 2.038 1_545 S
Mg325 O348 2.238 1_545 S
Mg326 O324 1.917 1_455 S
Mg326 O327 1.917 . S
Mg326 O337 2.106 . S
Mg326 O339 2.079 . S
Mg326 O348 2.106 1_445 S
Mg326 O349 2.079 . S
O327 Mg326 1.917 . S
O327 Mg328 1.926 1_545 S
O327 Mg329 1.986 . S
Mg328 O327 1.926 1_565 S
Mg328 O342 1.984 . S
Mg328 O345 1.988 . S
Mg328 O346 2.061 1_455 S
Mg329 O327 1.986 . S
Mg329 O337 2.238 . S
Mg329 O341 2.042 . S
Mg329 O343 2.041 . S
Mg329 O350 2.038 . S
C330 O336 1.247 . S
C330 O337 1.289 . S
C331 O349 1.245 . S
C331 O350 1.274 . S
O332 C320 1.241 . S
O332 Mg325 2.042 . S
O333 C320 1.280 . S
O333 Mg323 1.984 1_655 S
O334 C321 1.277 . S
O334 Mg325 2.041 . S
O335 C321 1.245 . S
O335 Mg323 1.988 1_655 S
O336 Mg323 2.061 . S
O336 C330 1.247 . S
O337 Mg326 2.106 . S
O337 Mg329 2.238 . S
O337 C330 1.289 . S
C338 O339 1.245 1_665 S
C338 O340 1.274 . S
O339 Mg326 2.079 . S
O339 C338 1.245 1_445 S
O340 Mg325 2.038 1_565 S
O340 C338 1.274 . S
O341 Mg329 2.042 . S
O341 C344 1.241 1_545 S
O342 Mg328 1.984 . S
O342 C344 1.280 . S
O343 Mg329 2.041 . S
O343 C347 1.277 1_545 S
C344 O341 1.241 1_565 S
C344 O342 1.280 . S
O345 Mg328 1.988 . S
O345 C347 1.245 . S
O346 C322 1.247 . S
O346 Mg328 2.061 1_655 S
C347 O343 1.277 1_565 S
C347 O345 1.245 . S
O348 C322 1.289 . S
O348 Mg325 2.238 1_565 S
O348 Mg326 2.106 1_665 S
O349 Mg326 2.079 . S
O349 C331 1.245 . S
O350 Mg329 2.038 . S
O350 C331 1.274 . S
C351 O363 1.241 . S
C351 O364 1.280 . S
C352 O365 1.277 . S
C352 O366 1.245 . S
C353 O377 1.247 . S
C353 O379 1.289 1_565 S
Mg354 O355 1.926 . S
Mg354 O364 1.984 . S
Mg354 O366 1.988 1_554 S
Mg354 O367 2.061 . S
O355 Mg354 1.926 . S
O355 Mg356 1.986 1_554 S
O355 Mg357 1.917 . S
Mg356 O355 1.986 1_556 S
Mg356 O363 2.042 1_556 S
Mg356 O365 2.041 . S
Mg356 O371 2.038 1_556 S
Mg356 O379 2.238 . S
Mg357 O355 1.917 . S
Mg357 O358 1.917 1_554 S
Mg357 O368 2.106 . S
Mg357 O370 2.079 . S
Mg357 O379 2.106 1_554 S
Mg357 O380 2.079 1_554 S
O358 Mg357 1.917 1_556 S
O358 Mg359 1.926 1_545 S
O358 Mg360 1.986 1_556 S
Mg359 O358 1.926 1_565 S
Mg359 O373 1.984 . S
Mg359 O376 1.988 1_556 S
Mg359 O377 2.061 . S
Mg360 O358 1.986 1_554 S
Mg360 O368 2.238 . S
Mg360 O372 2.042 1_554 S
Mg360 O374 2.041 . S
Mg360 O381 2.038 1_554 S
C361 O367 1.247 . S
C361 O368 1.289 . S
C362 O380 1.245 . S
C362 O381 1.274 . S
O363 C351 1.241 . S
O363 Mg356 2.042 1_554 S
O364 C351 1.280 . S
O364 Mg354 1.984 . S
O365 C352 1.277 . S
O365 Mg356 2.041 . S
O366 C352 1.245 . S
O366 Mg354 1.988 1_556 S
O367 Mg354 2.061 . S
O367 C361 1.247 . S
O368 Mg357 2.106 . S
O368 Mg360 2.238 . S
O368 C361 1.289 . S
C369 O370 1.243 . S
C369 O371 1.281 . S
O370 Mg357 2.079 . S
O370 C369 1.243 . S
O371 Mg356 2.038 1_554 S
O371 C369 1.281 . S
O372 Mg360 2.042 1_556 S
O372 C375 1.241 1_545 S
O373 Mg359 1.984 . S
O373 C375 1.280 . S
O374 Mg360 2.041 . S
O374 C378 1.277 1_545 S
C375 O372 1.241 1_565 S
C375 O373 1.280 . S
O376 Mg359 1.988 1_554 S
O376 C378 1.245 . S
O377 C353 1.247 . S
O377 Mg359 2.061 . S
C378 O374 1.277 1_565 S
C378 O376 1.245 . S
O379 C353 1.289 1_545 S
O379 Mg356 2.238 . S
O379 Mg357 2.106 1_556 S
O380 Mg357 2.079 1_556 S
O380 C362 1.245 . S
O381 Mg360 2.038 1_556 S
O381 C362 1.274 . S
C382 O394 1.241 . S
C382 O395 1.280 . S
C383 O396 1.277 . S
C383 O397 1.245 . S
C384 O408 1.247 1_556 S
C384 O410 1.289 1_556 S
Mg385 O386 1.926 1_455 S
Mg385 O395 1.984 1_455 S
Mg385 O397 1.988 1_455 S
Mg385 O398 2.061 . S
O386 Mg385 1.926 1_655 S
O386 Mg387 1.986 . S
O386 Mg388 1.917 1_655 S
Mg387 O386 1.986 . S
Mg387 O394 2.042 . S
Mg387 O396 2.041 . S
Mg387 O402 2.038 . S
Mg387 O410 2.238 . S
Mg388 O386 1.917 1_455 S
Mg388 O389 1.917 . S
Mg388 O399 2.106 . S
Mg388 O401 2.079 1_455 S
Mg388 O410 2.106 1_455 S
Mg388 O411 2.079 . S
O389 Mg388 1.917 . S
O389 Mg390 1.926 . S
O389 Mg391 1.986 . S
Mg390 O389 1.926 . S
Mg390 O404 1.984 . S
Mg390 O407 1.988 . S
Mg390 O408 2.061 1_455 S
Mg391 O389 1.986 . S
Mg391 O399 2.238 . S
Mg391 O403 2.042 . S
Mg391 O405 2.041 . S
Mg391 O412 2.038 . S
C392 O398 1.247 . S
C392 O399 1.289 . S
C393 O411 1.245 . S
C393 O412 1.274 . S
O394 C382 1.241 . S
O394 Mg387 2.042 . S
O395 C382 1.280 . S
O395 Mg385 1.984 1_655 S
O396 C383 1.277 . S
O396 Mg387 2.041 . S
O397 C383 1.245 . S
O397 Mg385 1.988 1_655 S
O398 Mg385 2.061 . S
O398 C392 1.247 . S
O399 Mg388 2.106 . S
O399 Mg391 2.238 . S
O399 C392 1.289 . S
C400 O401 1.245 . S
C400 O402 1.274 . S
O401 Mg388 2.079 1_655 S
O401 C400 1.245 . S
O402 Mg387 2.038 . S
O402 C400 1.274 . S
O403 Mg391 2.042 . S
O403 C406 1.241 . S
O404 Mg390 1.984 . S
O404 C406 1.280 . S
O405 Mg391 2.041 . S
O405 C409 1.277 . S
C406 O403 1.241 . S
C406 O404 1.280 . S
O407 Mg390 1.988 . S
O407 C409 1.245 . S
O408 C384 1.247 1_554 S
O408 Mg390 2.061 1_655 S
C409 O405 1.277 . S
C409 O407 1.245 . S
O410 C384 1.289 1_554 S
O410 Mg387 2.238 . S
O410 Mg388 2.106 1_655 S
O411 Mg388 2.079 . S
O411 C393 1.245 . S
O412 Mg391 2.038 . S
O412 C393 1.274 . S
C413 O425 1.241 . S
C413 O426 1.280 . S
C414 O427 1.277 . S
C414 O428 1.245 . S
C415 O439 1.247 . S
C415 O441 1.289 . S
Mg416 O417 1.926 . S
Mg416 O426 1.984 . S
Mg416 O428 1.988 1_554 S
Mg416 O429 2.061 . S
O417 Mg416 1.926 . S
O417 Mg418 1.986 . S
O417 Mg419 1.917 . S
Mg418 O417 1.986 . S
Mg418 O425 2.042 . S
Mg418 O427 2.041 1_554 S
Mg418 O433 2.038 . S
Mg418 O441 2.238 1_554 S
Mg419 O417 1.917 . S
Mg419 O420 1.917 . S
Mg419 O430 2.106 . S
Mg419 O432 2.079 . S
Mg419 O441 2.106 1_554 S
Mg419 O442 2.079 1_554 S
O420 Mg419 1.917 . S
O420 Mg421 1.926 1_554 S
O420 Mg422 1.986 . S
Mg421 O420 1.926 1_556 S
Mg421 O435 1.984 . S
Mg421 O438 1.988 1_556 S
Mg421 O439 2.061 . S
Mg422 O420 1.986 . S
Mg422 O430 2.238 . S
Mg422 O434 2.042 1_554 S
Mg422 O436 2.041 . S
Mg422 O443 2.038 1_554 S
C423 O429 1.247 . S
C423 O430 1.289 . S
C424 O442 1.245 . S
C424 O443 1.274 . S
O425 C413 1.241 . S
O425 Mg418 2.042 . S
O426 C413 1.280 . S
O426 Mg416 1.984 . S
O427 C414 1.277 . S
O427 Mg418 2.041 1_556 S
O428 C414 1.245 . S
O428 Mg416 1.988 1_556 S
O429 Mg416 2.061 . S
O429 C423 1.247 . S
O430 Mg419 2.106 . S
O430 Mg422 2.238 . S
O430 C423 1.289 . S
C431 O432 1.245 . S
C431 O433 1.274 . S
O432 Mg419 2.079 . S
O432 C431 1.245 . S
O433 Mg418 2.038 . S
O433 C431 1.274 . S
O434 Mg422 2.042 1_556 S
O434 C437 1.241 . S
O435 Mg421 1.984 . S
O435 C437 1.280 . S
O436 Mg422 2.041 . S
O436 C440 1.277 . S
C437 O434 1.241 . S
C437 O435 1.280 . S
O438 Mg421 1.988 1_554 S
O438 C440 1.245 . S
O439 C415 1.247 . S
O439 Mg421 2.061 . S
C440 O436 1.277 . S
C440 O438 1.245 . S
O441 C415 1.289 . S
O441 Mg418 2.238 1_556 S
O441 Mg419 2.106 1_556 S
O442 Mg419 2.079 1_556 S
O442 C424 1.245 . S
O443 Mg422 2.038 1_556 S
O443 C424 1.274 . S
C444 O456 1.241 . S
C444 O457 1.280 1_655 S
C445 O458 1.277 . S
C445 O459 1.245 1_655 S
C446 O470 1.247 . S
C446 O472 1.289 . S
Mg447 O448 1.926 . S
Mg447 O457 1.984 . S
Mg447 O459 1.988 . S
Mg447 O460 2.061 . S
O448 Mg447 1.926 . S
O448 Mg449 1.986 1_455 S
O448 Mg450 1.917 . S
Mg449 O448 1.986 1_655 S
Mg449 O456 2.042 . S
Mg449 O458 2.041 . S
Mg449 O464 2.038 . S
Mg449 O472 2.238 . S
Mg450 O448 1.917 . S
Mg450 O451 1.917 . S
Mg450 O461 2.106 . S
Mg450 O463 2.079 . S
Mg450 O472 2.106 1_455 S
Mg450 O473 2.079 . S
O451 Mg450 1.917 . S
O451 Mg452 1.926 . S
O451 Mg453 1.986 . S
Mg452 O451 1.926 . S
Mg452 O466 1.984 . S
Mg452 O469 1.988 . S
Mg452 O470 2.061 1_455 S
Mg453 O451 1.986 . S
Mg453 O461 2.238 . S
Mg453 O465 2.042 . S
Mg453 O467 2.041 . S
Mg453 O474 2.038 . S
C454 O460 1.247 . S
C454 O461 1.289 . S
C455 O473 1.245 . S
C455 O474 1.274 . S
O456 C444 1.241 . S
O456 Mg449 2.042 . S
O457 C444 1.280 1_455 S
O457 Mg447 1.984 . S
O458 C445 1.277 . S
O458 Mg449 2.041 . S
O459 C445 1.245 1_455 S
O459 Mg447 1.988 . S
O460 Mg447 2.061 . S
O460 C454 1.247 . S
O461 Mg450 2.106 . S
O461 Mg453 2.238 . S
O461 C454 1.289 . S
C462 O463 1.245 1_655 S
C462 O464 1.274 . S
O463 Mg450 2.079 . S
O463 C462 1.245 1_455 S
O464 Mg449 2.038 . S
O464 C462 1.274 . S
O465 Mg453 2.042 . S
O465 C468 1.241 . S
O466 Mg452 1.984 . S
O466 C468 1.280 . S
O467 Mg453 2.041 . S
O467 C471 1.277 . S
C468 O465 1.241 . S
C468 O466 1.280 . S
O469 Mg452 1.988 . S
O469 C471 1.245 . S
O470 C446 1.247 . S
O470 Mg452 2.061 1_655 S
C471 O467 1.277 . S
C471 O469 1.245 . S
O472 C446 1.289 . S
O472 Mg449 2.238 . S
O472 Mg450 2.106 1_655 S
O473 Mg450 2.079 . S
O473 C455 1.245 . S
O474 Mg453 2.038 . S
O474 C455 1.274 . S
C475 O487 1.241 . S
C475 O488 1.280 . S
C476 O489 1.277 . S
C476 O490 1.245 . S
C477 O501 1.247 . S
C477 O503 1.289 . S
Mg478 O479 1.926 . S
Mg478 O488 1.984 . S
Mg478 O490 1.988 . S
Mg478 O491 2.061 . S
O479 Mg478 1.926 . S
O479 Mg480 1.986 1_545 S
O479 Mg481 1.917 . S
Mg480 O479 1.986 1_565 S
Mg480 O487 2.042 1_565 S
Mg480 O489 2.041 1_565 S
Mg480 O495 2.038 . S
Mg480 O503 2.238 . S
Mg481 O479 1.917 . S
Mg481 O482 1.917 1_545 S
Mg481 O492 2.106 . S
Mg481 O494 2.079 1_545 S
Mg481 O503 2.106 1_545 S
Mg481 O504 2.079 . S
O482 Mg481 1.917 1_565 S
O482 Mg483 1.926 . S
O482 Mg484 1.986 1_565 S
Mg483 O482 1.926 . S
Mg483 O497 1.984 . S
Mg483 O500 1.988 . S
Mg483 O501 2.061 . S
Mg484 O482 1.986 1_545 S
Mg484 O492 2.238 . S
Mg484 O496 2.042 1_545 S
Mg484 O498 2.041 1_545 S
Mg484 O505 2.038 . S
C485 O491 1.247 . S
C485 O492 1.289 . S
C486 O504 1.245 . S
C486 O505 1.274 . S
O487 C475 1.241 . S
O487 Mg480 2.042 1_545 S
O488 C475 1.280 . S
O488 Mg478 1.984 . S
O489 C476 1.277 . S
O489 Mg480 2.041 1_545 S
O490 C476 1.245 . S
O490 Mg478 1.988 . S
O491 Mg478 2.061 . S
O491 C485 1.247 . S
O492 Mg481 2.106 . S
O492 Mg484 2.238 . S
O492 C485 1.289 . S
C493 O494 1.245 . S
C493 O495 1.274 . S
O494 Mg481 2.079 1_565 S
O494 C493 1.245 . S
O495 Mg480 2.038 . S
O495 C493 1.274 . S
O496 Mg484 2.042 1_565 S
O496 C499 1.241 . S
O497 Mg483 1.984 . S
O497 C499 1.280 . S
O498 Mg484 2.041 1_565 S
O498 C502 1.277 . S
C499 O496 1.241 . S
C499 O497 1.280 . S
O500 Mg483 1.988 . S
O500 C502 1.245 . S
O501 C477 1.247 . S
O501 Mg483 2.061 . S
C502 O498 1.277 . S
C502 O500 1.245 . S
O503 C477 1.289 . S
O503 Mg480 2.238 . S
O503 Mg481 2.106 1_565 S
O504 Mg481 2.079 . S
O504 C486 1.245 . S
O505 Mg484 2.038 . S
O505 C486 1.274 . S
C331 C24 4.237 . S
C321 C53 4.758 . S
C322 C82 1.502 . S
C137 C344 1.902 . S
C184 C347 4.524 . S
C330 C202 1.523 . S
C266 C320 2.570 1_455 S
C293 C338 4.175 . S
C351 C2 4.286 . S
C57 C400 2.549 1_455 S
C378 C106 1.208 1_565 S
C392 C143 0.527 . S
C162 C353 0.650 . S
C406 C226 2.096 1_554 S
C264 C362 3.549 . S
C297 C383 1.997 1_455 S
C26 C409 3.019 . S
C186 C393 1.949 . S
C352 C224 3.437 . S
C384 C242 2.826 . S
C303 C375 5.030 . S
C104 C382 2.652 . S
C369 C133 4.664 1_545 S
C63 C361 2.256 . S
C304 C424 4.175 . S
C173 C414 4.524 . S
C415 C223 1.523 . S
C437 C257 2.570 . S
C64 C440 4.758 . S
C423 C103 1.502 . S
C146 C413 1.902 . S
C13 C431 4.237 . S
C282 C444 5.030 . S
C493 C177 1.947 1_565 S
C213 C471 3.437 . S
C263 C485 2.824 . S
C446 C42 2.256 . S
C93 C499 2.654 . S
C455 C144 4.671 . S
C476 C17 3.017 . S
C502 C306 1.998 . S
C66 C486 2.550 . S
C97 C445 1.207 . S
C477 C122 0.525 . S
C23 C468 4.286 . S
C217 C475 2.095 . S
C462 C253 3.549 . S
C454 C183 0.650 . S
