# Generated by pormake.
# Topology llj, (12,3)-cn, num edge types: 1
# Building blocks:
#     Node 0, Type 0, BuildingBlock: QEWDON_clean_sbu_0, # of connection points: 12
#     Node 1, Type 0, BuildingBlock: QEWDON_clean_sbu_0, # of connection points: 12
#     Node 2, Type 1, BuildingBlock: OLANEW_clean_sbu_2, # of connection points: 3
#     Node 3, Type 1, BuildingBlock: OLANEW_clean_sbu_2, # of connection points: 3
#     Node 4, Type 1, BuildingBlock: OLANEW_clean_sbu_2, # of connection points: 3
#     Node 5, Type 1, BuildingBlock: OLANEW_clean_sbu_2, # of connection points: 3
#     Node 6, Type 1, BuildingBlock: OLANEW_clean_sbu_2, # of connection points: 3
#     Node 7, Type 1, BuildingBlock: OLANEW_clean_sbu_2, # of connection points: 3
#     Node 8, Type 1, BuildingBlock: OLANEW_clean_sbu_2, # of connection points: 3
#     Node 9, Type 1, BuildingBlock: OLANEW_clean_sbu_2, # of connection points: 3
#     Edge 10, Type (0, 1), BuildingBlock: AJUNOK_clean_linker_0, # of connection points: 2
#     Edge 11, Type (0, 1), BuildingBlock: AJUNOK_clean_linker_0, # of connection points: 2
#     Edge 12, Type (0, 1), BuildingBlock: AJUNOK_clean_linker_0, # of connection points: 2
#     Edge 13, Type (0, 1), BuildingBlock: AJUNOK_clean_linker_0, # of connection points: 2
#     Edge 14, Type (0, 1), BuildingBlock: AJUNOK_clean_linker_0, # of connection points: 2
#     Edge 15, Type (0, 1), BuildingBlock: AJUNOK_clean_linker_0, # of connection points: 2
#     Edge 16, Type (0, 1), BuildingBlock: AJUNOK_clean_linker_0, # of connection points: 2
#     Edge 17, Type (0, 1), BuildingBlock: AJUNOK_clean_linker_0, # of connection points: 2
#     Edge 18, Type (0, 1), BuildingBlock: AJUNOK_clean_linker_0, # of connection points: 2
#     Edge 19, Type (0, 1), BuildingBlock: AJUNOK_clean_linker_0, # of connection points: 2
#     Edge 20, Type (0, 1), BuildingBlock: AJUNOK_clean_linker_0, # of connection points: 2
#     Edge 21, Type (0, 1), BuildingBlock: AJUNOK_clean_linker_0, # of connection points: 2
#     Edge 22, Type (0, 1), BuildingBlock: AJUNOK_clean_linker_0, # of connection points: 2
#     Edge 23, Type (0, 1), BuildingBlock: AJUNOK_clean_linker_0, # of connection points: 2
#     Edge 24, Type (0, 1), BuildingBlock: AJUNOK_clean_linker_0, # of connection points: 2
#     Edge 25, Type (0, 1), BuildingBlock: AJUNOK_clean_linker_0, # of connection points: 2
#     Edge 26, Type (0, 1), BuildingBlock: AJUNOK_clean_linker_0, # of connection points: 2
#     Edge 27, Type (0, 1), BuildingBlock: AJUNOK_clean_linker_0, # of connection points: 2
#     Edge 28, Type (0, 1), BuildingBlock: AJUNOK_clean_linker_0, # of connection points: 2
#     Edge 29, Type (0, 1), BuildingBlock: AJUNOK_clean_linker_0, # of connection points: 2
#     Edge 30, Type (0, 1), BuildingBlock: AJUNOK_clean_linker_0, # of connection points: 2
#     Edge 31, Type (0, 1), BuildingBlock: AJUNOK_clean_linker_0, # of connection points: 2
#     Edge 32, Type (0, 1), BuildingBlock: AJUNOK_clean_linker_0, # of connection points: 2
#     Edge 33, Type (0, 1), BuildingBlock: AJUNOK_clean_linker_0, # of connection points: 2
# Relax obj value: 0.014
# Max RMSD: 0.100
# Mean RMSD: 0.079
data_MOF--net-llj--node1-QEWDON_clean_sbu_0--node2-OLANEW_clean_sbu_2--edge1-AJUNOK_clean_linker_0
_symmetry_space_group_name_H-M    P1
_symmetry_Int_Tables_number       1
_symmetry_cell_setting            triclinic
loop_
_symmetry_equiv_pos_as_xyz
'x, y, z'
_cell_length_a     32.45647
_cell_length_b     32.499364
_cell_length_c     19.85374
_cell_angle_alpha  87.650698
_cell_angle_beta   92.694369
_cell_angle_gamma 89.788592
loop_
_atom_site_label
_atom_site_type_symbol
_atom_site_fract_x
_atom_site_fract_y
_atom_site_fract_z
_atom_type_partial_charge
Zn0 Zn 0.95508 0.12098 0.93546 0.0
Zn1 Zn 0.95563 0.11372 0.09137 0.0
O2 O 0.9948 0.12242 0.01799 0.0
H3 H 0.02101 0.1364 0.02073 0.0
C4 C 0.88289 0.0067 0.86372 0.0
O5 O 0.87581 0.01494 0.92639 0.0
Zn6 Zn 0.1002 0.9306 0.06982 0.0
Zn7 Zn 0.09505 0.91711 0.91012 0.0
O8 O 0.06559 0.94283 0.98549 0.0
H9 H 0.04315 0.96247 0.98025 0.0
Zn10 Zn 0.93359 0.94925 0.93998 0.0
O11 O 0.95909 0.98835 0.00711 0.0
Zn12 Zn 0.95887 0.95678 0.09501 0.0
H13 H 0.97216 0.01433 0.99663 0.0
Zn14 Zn 0.09983 0.06968 0.97148 0.0
O15 O 0.06614 0.04417 0.04485 0.0
H16 H 0.04165 0.02776 0.03855 0.0
Zn17 Zn 0.08451 0.06937 0.13088 0.0
C18 C 0.13281 0.00428 0.89258 0.0
O19 O 0.1521 0.99511 0.95096 0.0
O20 O 0.8972 0.14435 0.95332 0.0
O21 O 0.90117 0.14264 0.06546 0.0
O22 O 0.13976 0.87677 0.94989 0.0
O23 O 0.152 0.89852 0.05372 0.0
O24 O 0.89562 0.90644 0.98523 0.0
O25 O 0.91311 0.91472 0.09322 0.0
C26 C 0.01604 0.12296 0.19467 0.0
O27 O 0.14827 0.10403 0.00885 0.0
O28 O 0.13551 0.10464 0.11807 0.0
O29 O 0.05861 0.89676 0.8293 0.0
C30 C 0.88192 0.1522 0.00942 0.0
O31 O 0.97946 0.14 0.845 0.0
C32 C 0.03263 0.90159 0.14452 0.0
O33 O 0.90854 0.97835 0.85313 0.0
C34 C 0.15995 0.87451 0.00664 0.0
O35 O 0.10848 0.0351 0.88776 0.0
C36 C 0.94554 0.03375 0.16384 0.0
O37 O 0.97989 0.1356 0.17743 0.0
O38 O 0.03438 0.10183 0.15264 0.0
C39 C 0.89102 0.89764 0.0476 0.0
O40 O 0.07011 0.89435 0.13419 0.0
O41 O 0.01453 0.92971 0.10763 0.0
C42 C 0.10814 0.98882 0.17863 0.0
O43 O 0.94846 0.99482 0.1698 0.0
O44 O 0.95022 0.05203 0.10681 0.0
C45 C 0.15755 0.11507 0.06854 0.0
O46 O 0.09958 0.02394 0.20032 0.0
O47 O 0.10705 0.98417 0.11536 0.0
C48 C 0.01967 0.90117 0.82871 0.0
O49 O 0.00336 0.92022 0.87819 0.0
C50 C 0.01508 0.12934 0.82795 0.0
O51 O 0.03714 0.10375 0.86807 0.0
Zn52 Zn 0.45646 0.63097 0.45026 0.0
Zn53 Zn 0.43462 0.59367 0.59549 0.0
O54 O 0.47391 0.58846 0.52237 0.0
H55 H 0.48881 0.5636 0.51383 0.0
C56 C 0.39586 0.50528 0.29989 0.0
O57 O 0.42884 0.52155 0.32877 0.0
Zn58 Zn 0.56047 0.4179 0.59228 0.0
Zn59 Zn 0.56881 0.41178 0.43108 0.0
O60 O 0.5321 0.43307 0.50263 0.0
H61 H 0.50994 0.45278 0.49392 0.0
Zn62 Zn 0.40098 0.44407 0.41665 0.0
O63 O 0.41608 0.48298 0.49206 0.0
Zn64 Zn 0.41276 0.44608 0.57422 0.0
H65 H 0.43276 0.50741 0.48756 0.0
Zn66 Zn 0.59195 0.57077 0.4713 0.0
O67 O 0.56695 0.53437 0.54244 0.0
H68 H 0.54514 0.51496 0.53335 0.0
Zn69 Zn 0.5778 0.56191 0.62833 0.0
C70 C 0.60649 0.50479 0.38437 0.0
O71 O 0.61976 0.48865 0.44322 0.0
O72 O 0.40343 0.66325 0.46849 0.0
O73 O 0.38662 0.63302 0.56619 0.0
O74 O 0.61402 0.3718 0.47089 0.0
O75 O 0.60334 0.37362 0.5803 0.0
O76 O 0.36201 0.39746 0.44811 0.0
O77 O 0.37171 0.40088 0.55897 0.0
C78 C 0.50407 0.60713 0.68963 0.0
O79 O 0.63817 0.6081 0.50977 0.0
O80 O 0.62425 0.60309 0.61854 0.0
O81 O 0.53919 0.38584 0.34889 0.0
C82 C 0.37911 0.65902 0.51691 0.0
O83 O 0.5011 0.65552 0.38948 0.0
C84 C 0.48232 0.40492 0.65012 0.0
O85 O 0.38063 0.47289 0.32654 0.0
C86 C 0.62182 0.35872 0.53151 0.0
O87 O 0.5948 0.54222 0.38044 0.0
C88 C 0.39723 0.51459 0.66016 0.0
O89 O 0.46599 0.61476 0.67741 0.0
O90 O 0.52277 0.58716 0.64644 0.0
C91 C 0.35381 0.38516 0.50773 0.0
O92 O 0.52037 0.39632 0.65852 0.0
O93 O 0.46938 0.42393 0.59622 0.0
C94 C 0.5916 0.48112 0.69053 0.0
O95 O 0.39307 0.47626 0.65263 0.0
O96 O 0.41475 0.53555 0.61417 0.0
C97 C 0.64572 0.61767 0.57088 0.0
O98 O 0.59428 0.51927 0.7014 0.0
O99 O 0.58186 0.47065 0.63079 0.0
C100 C 0.50676 0.39722 0.31476 0.0
O101 O 0.48791 0.43131 0.32947 0.0
C102 C 0.51314 0.6369 0.3388 0.0
O103 O 0.4967 0.60134 0.32397 0.0
O104 O 0.43608 0.23438 0.18695 0.0
Cd105 Cd 0.41149 0.17141 0.13715 0.0
O106 O 0.40893 0.2728 0.1029 0.0
Cd107 Cd 0.40288 0.32842 0.03786 0.0
O108 O 0.41392 0.36478 0.94594 0.0
C109 C 0.40183 0.35085 0.88952 0.0
O110 O 0.38071 0.31644 0.88914 0.0
C111 C 0.43015 0.26971 0.15834 0.0
C112 C 0.32615 0.16701 0.11821 0.0
O113 O 0.34443 0.15479 0.17417 0.0
O114 O 0.34837 0.18225 0.07178 0.0
O115 O 0.63569 0.32857 0.90831 0.0
Cd116 Cd 0.64501 0.27439 0.99741 0.0
O117 O 0.59596 0.3656 0.96946 0.0
Cd118 Cd 0.60486 0.33147 0.06547 0.0
O119 O 0.60783 0.36186 0.1613 0.0
C120 C 0.58951 0.3966 0.15832 0.0
O121 O 0.57002 0.40865 0.10138 0.0
C122 C 0.61303 0.36012 0.91429 0.0
C123 C 0.72256 0.23616 0.00225 0.0
O124 O 0.6933 0.22429 0.9621 0.0
O125 O 0.71532 0.26649 0.03934 0.0
O126 O 0.62257 0.77088 0.19288 0.0
Cd127 Cd 0.64765 0.828 0.12362 0.0
O128 O 0.63547 0.72664 0.11636 0.0
Cd129 Cd 0.63654 0.6698 0.06098 0.0
O130 O 0.61448 0.64002 0.96959 0.0
C131 C 0.58457 0.65985 0.94004 0.0
O132 O 0.57215 0.694 0.96617 0.0
C133 C 0.62035 0.73438 0.17252 0.0
C134 C 0.73243 0.83188 0.11052 0.0
O135 O 0.71555 0.84661 0.16148 0.0
O136 O 0.70921 0.81403 0.06669 0.0
O137 O 0.24464 0.58741 0.13334 0.0
Cd138 Cd 0.18786 0.62185 0.07107 0.0
O139 O 0.28751 0.62371 0.07368 0.0
Cd140 Cd 0.34549 0.63624 0.02613 0.0
O141 O 0.36918 0.61823 0.93101 0.0
C142 C 0.35306 0.58472 0.91259 0.0
O143 O 0.32664 0.56637 0.95184 0.0
C144 C 0.28142 0.59601 0.11914 0.0
C145 C 0.20096 0.70612 0.05878 0.0
O146 O 0.18465 0.68959 0.11076 0.0
O147 O 0.21141 0.68253 0.01222 0.0
O148 O 0.91379 0.75783 0.70892 0.0
Cd149 Cd 0.89136 0.69367 0.66007 0.0
O150 O 0.91929 0.78512 0.60717 0.0
Cd151 Cd 0.93398 0.83125 0.52902 0.0
O152 O 0.9499 0.85713 0.43053 0.0
C153 C 0.97056 0.8336 0.39509 0.0
O154 O 0.98039 0.79656 0.41981 0.0
C155 C 0.92433 0.78786 0.67069 0.0
C156 C 0.80683 0.68492 0.63533 0.0
O157 O 0.82389 0.6758 0.69359 0.0
O158 O 0.82971 0.69937 0.58914 0.0
O159 O 0.13612 0.84554 0.42194 0.0
Cd160 Cd 0.15987 0.80932 0.52827 0.0
O161 O 0.18737 0.8895 0.43105 0.0
Cd162 Cd 0.19902 0.8753 0.53856 0.0
O163 O 0.19041 0.89379 0.64149 0.0
C164 C 0.15759 0.91402 0.64993 0.0
O165 O 0.13129 0.9202 0.59809 0.0
C166 C 0.15696 0.87506 0.3971 0.0
C167 C 0.23069 0.76037 0.51873 0.0
O168 O 0.19473 0.74417 0.51735 0.0
O169 O 0.23316 0.79942 0.52404 0.0
O170 O 0.0798 0.27035 0.62838 0.0
Cd171 Cd 0.10561 0.32454 0.55422 0.0
O172 O 0.1243 0.22504 0.59633 0.0
Cd173 Cd 0.143 0.16213 0.5778 0.0
O174 O 0.12205 0.13507 0.48369 0.0
C175 C 0.08673 0.14942 0.4647 0.0
O176 O 0.06855 0.17429 0.50469 0.0
C177 C 0.09365 0.23371 0.63078 0.0
C178 C 0.19074 0.32447 0.54487 0.0
O179 O 0.17341 0.34142 0.59346 0.0
O180 O 0.1677 0.30636 0.50117 0.0
O181 O 0.75126 0.08717 0.63834 0.0
Cd182 Cd 0.71004 0.11244 0.54002 0.0
O183 O 0.80619 0.09568 0.58019 0.0
Cd184 Cd 0.87055 0.09439 0.55272 0.0
O185 O 0.90776 0.0848 0.46612 0.0
C186 C 0.89238 0.10045 0.4108 0.0
O187 O 0.85884 0.12308 0.41239 0.0
C188 C 0.79012 0.08452 0.63514 0.0
C189 C 0.69256 0.19566 0.54907 0.0
O190 O 0.67106 0.168 0.57869 0.0
O191 O 0.72247 0.18401 0.51434 0.0
C192 C 0.21687 0.13206 0.14709 0.0
C193 C 0.19766 0.13557 0.08206 0.0
C194 C 0.25785 0.14417 0.15888 0.0
C195 C 0.2812 0.16059 0.10626 0.0
H196 H 0.20097 0.1178 0.18869 0.0
H197 H 0.27174 0.13908 0.20923 0.0
S198 S 0.24304 0.18248 0.92901 0.0
N199 N 0.20346 0.16114 0.96602 0.0
N200 N 0.28039 0.18419 0.98817 0.0
C201 C 0.26139 0.16714 0.04205 0.0
C202 C 0.21967 0.15454 0.02995 0.0
C203 C 0.81329 0.17115 0.95364 0.0
C204 C 0.8415 0.17373 0.00928 0.0
C205 C 0.77484 0.19109 0.95213 0.0
C206 C 0.76342 0.21526 0.00554 0.0
H207 H 0.8209 0.15337 0.91095 0.0
H208 H 0.75413 0.1879 0.90828 0.0
S209 S 0.8271 0.23384 0.16159 0.0
N210 N 0.85592 0.20351 0.11829 0.0
N211 N 0.78391 0.24125 0.1153 0.0
C212 C 0.79163 0.21868 0.06109 0.0
C213 C 0.83057 0.19789 0.063 0.0
C214 C 0.8285 0.85635 0.01677 0.0
C215 C 0.85528 0.8721 0.06724 0.0
C216 C 0.78988 0.8404 0.03211 0.0
C217 C 0.77639 0.83983 0.09842 0.0
H218 H 0.83631 0.85842 0.96429 0.0
H219 H 0.76946 0.83098 0.99089 0.0
S220 S 0.838 0.86893 0.25118 0.0
N221 N 0.86808 0.87965 0.18811 0.0
N222 N 0.79519 0.85021 0.21646 0.0
C223 C 0.80424 0.85186 0.15024 0.0
C224 C 0.84379 0.86777 0.13479 0.0
C225 C 0.1954 0.81131 0.97118 0.0
C226 C 0.1845 0.83662 0.0235 0.0
C227 C 0.20457 0.76948 0.9839 0.0
C228 C 0.20288 0.75146 0.04933 0.0
H229 H 0.19346 0.82298 0.91921 0.0
H230 H 0.20958 0.7506 0.94129 0.0
S231 S 0.18589 0.80612 0.20613 0.0
N232 N 0.18005 0.84197 0.14509 0.0
N233 N 0.19734 0.76345 0.16864 0.0
C234 C 0.19707 0.77737 0.10309 0.0
C235 C 0.18801 0.82002 0.09029 0.0
C236 C 0.70994 0.65399 0.53689 0.0
C237 C 0.68321 0.64204 0.58796 0.0
C238 C 0.74896 0.67027 0.55254 0.0
C239 C 0.76295 0.67505 0.61989 0.0
H240 H 0.70158 0.64901 0.48441 0.0
H241 H 0.7691 0.67705 0.51157 0.0
S242 S 0.70233 0.65572 0.77183 0.0
N243 N 0.67155 0.64165 0.70845 0.0
N244 N 0.74507 0.67177 0.73756 0.0
C245 C 0.73547 0.66624 0.67116 0.0
C246 C 0.69555 0.64992 0.65527 0.0
C247 C 0.30545 0.67014 0.54521 0.0
C248 C 0.34146 0.68515 0.5161 0.0
C249 C 0.2694 0.69428 0.54437 0.0
C250 C 0.26838 0.73471 0.51602 0.0
H251 H 0.30496 0.63934 0.5682 0.0
H252 H 0.24241 0.68148 0.56737 0.0
S253 S 0.35437 0.78865 0.43373 0.0
N254 N 0.3736 0.74294 0.45751 0.0
N255 N 0.30636 0.78857 0.45778 0.0
C256 C 0.30419 0.75014 0.48708 0.0
C257 C 0.34056 0.7253 0.48659 0.0
C258 C 0.30078 0.35609 0.58284 0.0
C259 C 0.31725 0.35875 0.51839 0.0
C260 C 0.26063 0.34212 0.59166 0.0
C261 C 0.23556 0.32956 0.53672 0.0
H262 H 0.31772 0.36775 0.6263 0.0
H263 H 0.24844 0.3433 0.64143 0.0
S264 S 0.26723 0.32137 0.36048 0.0
N265 N 0.30775 0.34105 0.40071 0.0
N266 N 0.23231 0.31419 0.41763 0.0
C267 C 0.25317 0.32755 0.47348 0.0
C268 C 0.29405 0.34225 0.46425 0.0
C269 C 0.67076 0.30628 0.49157 0.0
C270 C 0.64727 0.32087 0.54362 0.0
C271 C 0.68767 0.26646 0.49556 0.0
C272 C 0.68115 0.23959 0.55127 0.0
H273 H 0.67452 0.32502 0.44588 0.0
H274 H 0.7038 0.25587 0.45291 0.0
S275 S 0.62781 0.26452 0.70573 0.0
N276 N 0.62301 0.30663 0.65659 0.0
N277 N 0.65426 0.2317 0.66316 0.0
C278 C 0.66042 0.25465 0.60575 0.0
C279 C 0.64371 0.29537 0.60224 0.0
C280 C 0.07368 0.11566 0.28354 0.0
C281 C 0.03407 0.13047 0.26314 0.0
C282 C 0.09026 0.12108 0.34918 0.0
C283 C 0.06785 0.14161 0.3969 0.0
H284 H 0.09217 0.09986 0.24863 0.0
H285 H 0.12106 0.10951 0.36224 0.0
S286 S 0.96239 0.18595 0.36924 0.0
N287 N 0.97277 0.16659 0.29644 0.0
N288 N 0.00354 0.17621 0.41927 0.0
C289 C 0.02806 0.15632 0.37723 0.0
C290 C 0.01132 0.15099 0.31052 0.0
C291 C 0.95846 0.04982 0.28442 0.0
C292 C 0.93536 0.05651 0.22334 0.0
C293 C 0.94545 0.06596 0.34436 0.0
C294 C 0.90849 0.08877 0.34543 0.0
H295 H 0.98626 0.03116 0.2861 0.0
H296 H 0.96387 0.0594 0.39049 0.0
S297 S 0.83622 0.11289 0.19821 0.0
N298 N 0.87375 0.0862 0.16714 0.0
N299 N 0.8492 0.1172 0.27898 0.0
C300 C 0.88575 0.09648 0.28388 0.0
C301 C 0.89915 0.08007 0.22303 0.0
C302 C 0.97828 0.89668 0.2307 0.0
C303 C 0.01339 0.88019 0.20267 0.0
C304 C 0.96424 0.88116 0.29245 0.0
C305 C 0.98447 0.84806 0.32816 0.0
H306 H 0.96237 0.92274 0.20641 0.0
H307 H 0.93761 0.89558 0.31272 0.0
S308 S 0.07643 0.79183 0.27493 0.0
N309 N 0.06687 0.82718 0.21416 0.0
N310 N 0.04048 0.79809 0.32971 0.0
C311 C 0.01858 0.83006 0.29943 0.0
C312 C 0.033 0.84602 0.23685 0.0
C313 C 0.09042 0.94116 0.27468 0.0
C314 C 0.11855 0.9543 0.22671 0.0
C315 C 0.10212 0.91218 0.32654 0.0
C316 C 0.14284 0.89707 0.33373 0.0
H317 H 0.05953 0.95404 0.27291 0.0
H318 H 0.07996 0.9037 0.36378 0.0
S319 S 0.22783 0.92214 0.22099 0.0
N320 N 0.18799 0.94888 0.18763 0.0
N321 N 0.21092 0.89681 0.288 0.0
C322 C 0.1709 0.90945 0.28527 0.0
C323 C 0.15851 0.93756 0.23101 0.0
C324 C 0.11211 0.98424 0.77562 0.0
C325 C 0.13907 0.97924 0.83297 0.0
C326 C 0.11769 0.96203 0.71777 0.0
C327 C 0.1507 0.93405 0.71444 0.0
H328 H 0.08644 0.00568 0.77507 0.0
H329 H 0.09629 0.96758 0.67482 0.0
S330 S 0.22888 0.90785 0.85232 0.0
N331 N 0.19918 0.94287 0.88389 0.0
N332 N 0.20966 0.90107 0.77513 0.0
C333 C 0.1773 0.92786 0.7721 0.0
C334 C 0.17151 0.95045 0.83128 0.0
C335 C 0.07662 0.14824 0.76149 0.0
C336 C 0.0337 0.15051 0.7692 0.0
C337 C 0.09582 0.17346 0.71326 0.0
C338 C 0.07275 0.20187 0.67155 0.0
H339 H 0.09586 0.1284 0.79507 0.0
H340 H 0.12911 0.17244 0.71143 0.0
S341 S 0.95902 0.21419 0.66202 0.0
N342 N 0.96826 0.17924 0.72362 0.0
N343 N 0.00457 0.22691 0.63416 0.0
C344 C 0.02967 0.20223 0.67515 0.0
C345 C 0.01007 0.17642 0.72362 0.0
C346 C 0.87315 0.02544 0.74038 0.0
C347 C 0.86016 0.0288 0.80662 0.0
C348 C 0.85107 0.04447 0.68513 0.0
C349 C 0.81514 0.0675 0.69405 0.0
H350 H 0.9003 0.00748 0.73087 0.0
H351 H 0.86139 0.03963 0.63506 0.0
S352 S 0.76776 0.08574 0.85685 0.0
N353 N 0.80888 0.05717 0.87779 0.0
N354 N 0.76764 0.09293 0.7741 0.0
C355 C 0.80204 0.07149 0.76002 0.0
C356 C 0.82454 0.05227 0.81627 0.0
C357 C 0.95321 0.86659 0.7987 0.0
C358 C 0.99289 0.87871 0.78035 0.0
C359 C 0.93 0.83897 0.76029 0.0
C360 C 0.94506 0.82337 0.70119 0.0
H361 H 0.94093 0.87645 0.84526 0.0
H362 H 0.90073 0.82844 0.77846 0.0
S363 S 0.04493 0.84913 0.62688 0.0
N364 N 0.04471 0.87573 0.69599 0.0
N365 N 0.00069 0.82415 0.62339 0.0
C366 C 0.98334 0.83744 0.67961 0.0
C367 C 0.00736 0.86506 0.71933 0.0
C368 C 0.56608 0.61042 0.77093 0.0
C369 C 0.52454 0.62044 0.75378 0.0
C370 C 0.58522 0.62228 0.83204 0.0
C371 C 0.56371 0.64532 0.87764 0.0
H372 H 0.58412 0.59352 0.73701 0.0
H373 H 0.61731 0.61415 0.8429 0.0
S374 S 0.4542 0.67863 0.85871 0.0
N375 N 0.46236 0.6542 0.78935 0.0
N376 N 0.49847 0.67658 0.90302 0.0
C377 C 0.52222 0.65536 0.86153 0.0
C378 C 0.50263 0.64298 0.79994 0.0
C379 C 0.38602 0.57514 0.73278 0.0
C380 C 0.38378 0.53255 0.7234 0.0
C381 C 0.37669 0.59182 0.79439 0.0
C382 C 0.36322 0.56666 0.84819 0.0
H383 H 0.39432 0.59593 0.69209 0.0
H384 H 0.3791 0.62479 0.79932 0.0
S385 S 0.3443 0.45421 0.84617 0.0
N386 N 0.36219 0.46616 0.77151 0.0
N387 N 0.34384 0.49769 0.88606 0.0
C388 C 0.35829 0.5244 0.83831 0.0
C389 C 0.3685 0.50732 0.77618 0.0
C390 C 0.42997 0.36161 0.70617 0.0
C391 C 0.45529 0.39642 0.70594 0.0
C392 C 0.41079 0.34834 0.76504 0.0
C393 C 0.41672 0.36933 0.82556 0.0
H394 H 0.42666 0.34341 0.66174 0.0
H395 H 0.39288 0.32032 0.76378 0.0
S396 S 0.47471 0.4667 0.84569 0.0
N397 N 0.48139 0.45464 0.76697 0.0
N398 N 0.44579 0.42991 0.87805 0.0
C399 C 0.43992 0.40588 0.82404 0.0
C400 C 0.45915 0.41935 0.76404 0.0
C401 C 0.60976 0.41034 0.73782 0.0
C402 C 0.5962 0.45058 0.74798 0.0
C403 C 0.61505 0.38119 0.7916 0.0
C404 C 0.60707 0.39128 0.85794 0.0
H405 H 0.61767 0.40171 0.68834 0.0
H406 H 0.62565 0.35059 0.78113 0.0
S407 S 0.57511 0.49411 0.91312 0.0
N408 N 0.57746 0.49995 0.83044 0.0
N409 N 0.58756 0.44554 0.93157 0.0
C410 C 0.59436 0.43185 0.86921 0.0
C411 C 0.58908 0.46145 0.81437 0.0
C412 C 0.62541 0.4419 0.32426 0.0
C413 C 0.60228 0.47855 0.32525 0.0
C414 C 0.62076 0.4154 0.27054 0.0
C415 C 0.59266 0.42441 0.21573 0.0
H416 H 0.64738 0.43355 0.36537 0.0
H417 H 0.63956 0.38775 0.27197 0.0
S418 S 0.52228 0.51508 0.19661 0.0
N419 N 0.54882 0.52162 0.26829 0.0
N420 N 0.53983 0.47184 0.16751 0.0
C421 C 0.56888 0.46076 0.21654 0.0
C422 C 0.57378 0.48784 0.27116 0.0
C423 C 0.57318 0.68328 0.32424 0.0
C424 C 0.54405 0.65642 0.29567 0.0
C425 C 0.59965 0.70619 0.28386 0.0
C426 C 0.59791 0.70342 0.21324 0.0
H427 H 0.57485 0.68744 0.37818 0.0
H428 H 0.62067 0.72749 0.30801 0.0
S429 S 0.52681 0.6375 0.11363 0.0
N430 N 0.51568 0.6272 0.19283 0.0
N431 N 0.56426 0.67173 0.11653 0.0
C432 C 0.56979 0.67566 0.18414 0.0
C433 C 0.54315 0.65177 0.22552 0.0
C434 C 0.33701 0.50842 0.21466 0.0
C435 C 0.37217 0.52732 0.24358 0.0
C436 C 0.30919 0.53048 0.17105 0.0
C437 C 0.31552 0.57223 0.15386 0.0
H438 H 0.32964 0.47677 0.22827 0.0
H439 H 0.28157 0.51506 0.1527 0.0
S440 S 0.40474 0.63535 0.20954 0.0
N441 N 0.41366 0.5896 0.24677 0.0
N442 N 0.36082 0.63115 0.16491 0.0
C443 C 0.35187 0.59094 0.17835 0.0
C444 C 0.38037 0.56842 0.22315 0.0
C445 C 0.50952 0.33205 0.25323 0.0
C446 C 0.48832 0.36876 0.26517 0.0
C447 C 0.49085 0.30104 0.21609 0.0
C448 C 0.4505 0.30565 0.18816 0.0
H449 H 0.54034 0.3263 0.27499 0.0
H450 H 0.50783 0.27268 0.21067 0.0
S451 S 0.38285 0.39709 0.19804 0.0
N452 N 0.42562 0.40916 0.24099 0.0
N453 N 0.39059 0.35047 0.17077 0.0
C454 C 0.42971 0.34303 0.19574 0.0
C455 C 0.44865 0.37473 0.23425 0.0
loop_
_geom_bond_atom_site_label_1
_geom_bond_atom_site_label_2
_geom_bond_distance
_geom_bond_site_symmetry_2
_ccdc_geom_bond_type
Zn0 O2 1.933 1_556 S
Zn0 O20 1.985 . S
Zn0 O31 1.955 . S
Zn1 O2 1.911 . S
Zn1 O21 1.970 . S
Zn1 O37 1.945 . S
Zn1 O44 1.981 . S
O2 Zn0 1.933 1_554 S
O2 Zn1 1.911 . S
O2 H3 0.841 1_655 S
H3 O2 0.841 1_455 S
C4 O5 1.246 . S
C4 O33 1.254 1_545 S
O5 C4 1.246 . S
Zn6 O8 1.911 . S
Zn6 O23 1.970 . S
Zn6 O40 1.945 . S
Zn6 O47 1.981 . S
Zn7 O8 1.933 1_556 S
Zn7 O22 1.985 . S
Zn7 O29 1.955 . S
O8 Zn6 1.911 . S
O8 Zn7 1.933 1_554 S
O8 H9 0.841 1_455 S
H9 O8 0.841 1_655 S
Zn10 O11 1.933 1_556 S
Zn10 O24 1.985 . S
Zn10 O33 1.963 . S
O11 Zn10 1.933 1_554 S
O11 Zn12 1.911 . S
O11 H13 0.841 1_565 S
Zn12 O11 1.911 . S
Zn12 O25 1.970 . S
Zn12 O41 1.981 . S
Zn12 O43 1.945 . S
H13 O11 0.841 1_545 S
Zn14 O15 1.933 1_556 S
Zn14 O27 1.985 . S
Zn14 O35 1.955 . S
O15 Zn14 1.933 1_554 S
O15 H16 0.841 1_545 S
O15 Zn17 1.911 . S
H16 O15 0.841 1_565 S
Zn17 O15 1.911 . S
Zn17 O28 1.970 . S
Zn17 O38 1.981 . S
Zn17 O46 1.945 . S
C18 O19 1.246 . S
C18 O35 1.276 1_565 S
O19 C18 1.246 . S
O20 Zn0 1.985 . S
O20 C30 1.245 1_556 S
O21 Zn1 1.970 . S
O21 C30 1.263 . S
O22 Zn7 1.985 . S
O22 C34 1.245 1_556 S
O23 Zn6 1.970 . S
O23 C34 1.263 . S
O24 Zn10 1.985 . S
O24 C39 1.245 1_556 S
O25 Zn12 1.970 . S
O25 C39 1.263 . S
C26 O37 1.262 1_455 S
C26 O38 1.245 . S
O27 Zn14 1.985 . S
O27 C45 1.245 1_556 S
O28 Zn17 1.970 . S
O28 C45 1.263 . S
O29 Zn7 1.955 . S
O29 C48 1.276 1_455 S
C30 O20 1.245 1_554 S
C30 O21 1.263 . S
O31 Zn0 1.955 . S
O31 C50 1.276 1_655 S
C32 O40 1.262 1_655 S
C32 O41 1.245 . S
O33 C4 1.254 1_565 S
O33 Zn10 1.963 . S
C34 O22 1.245 1_554 S
C34 O23 1.263 . S
O35 Zn14 1.955 . S
O35 C18 1.276 1_545 S
C36 O43 1.262 1_545 S
C36 O44 1.245 . S
O37 Zn1 1.945 . S
O37 C26 1.262 1_655 S
O38 Zn17 1.981 . S
O38 C26 1.245 . S
C39 O24 1.245 1_554 S
C39 O25 1.263 . S
O40 Zn6 1.945 . S
O40 C32 1.262 1_455 S
O41 Zn12 1.981 . S
O41 C32 1.245 . S
C42 O46 1.262 1_565 S
C42 O47 1.245 . S
O43 Zn12 1.945 . S
O43 C36 1.262 1_565 S
O44 Zn1 1.981 . S
O44 C36 1.245 . S
C45 O27 1.245 1_554 S
C45 O28 1.263 . S
O46 Zn17 1.945 . S
O46 C42 1.262 1_545 S
O47 Zn6 1.981 . S
O47 C42 1.245 . S
C48 O29 1.276 1_655 S
C48 O49 1.246 . S
O49 C48 1.246 . S
C50 O31 1.276 1_455 S
C50 O51 1.246 . S
O51 C50 1.246 . S
Zn52 O54 1.933 . S
Zn52 O72 1.985 . S
Zn52 O83 1.955 . S
Zn53 O54 1.911 . S
Zn53 O73 1.970 . S
Zn53 O89 1.945 . S
Zn53 O96 1.981 . S
O54 Zn52 1.933 . S
O54 Zn53 1.911 . S
O54 H55 0.841 . S
H55 O54 0.841 . S
C56 O57 1.246 . S
C56 O85 1.276 . S
O57 C56 1.246 . S
Zn58 O60 1.911 . S
Zn58 O75 1.970 . S
Zn58 O92 1.945 . S
Zn58 O99 1.981 . S
Zn59 O60 1.933 . S
Zn59 O74 1.985 . S
Zn59 O81 1.955 . S
O60 Zn58 1.911 . S
O60 Zn59 1.933 . S
O60 H61 0.841 . S
H61 O60 0.841 . S
Zn62 O63 1.933 . S
Zn62 O76 1.985 . S
Zn62 O85 1.955 . S
O63 Zn62 1.933 . S
O63 Zn64 1.911 . S
O63 H65 0.841 . S
Zn64 O63 1.911 . S
Zn64 O77 1.970 . S
Zn64 O93 1.981 . S
Zn64 O95 1.945 . S
H65 O63 0.841 . S
Zn66 O67 1.933 . S
Zn66 O79 1.985 . S
Zn66 O87 1.955 . S
O67 Zn66 1.933 . S
O67 H68 0.841 . S
O67 Zn69 1.911 . S
H68 O67 0.841 . S
Zn69 O67 1.911 . S
Zn69 O80 1.970 . S
Zn69 O90 1.981 . S
Zn69 O98 1.945 . S
C70 O71 1.246 . S
C70 O87 1.276 . S
O71 C70 1.246 . S
O72 Zn52 1.985 . S
O72 C82 1.245 . S
O73 Zn53 1.970 . S
O73 C82 1.263 . S
O74 Zn59 1.985 . S
O74 C86 1.245 . S
O75 Zn58 1.970 . S
O75 C86 1.263 . S
O76 Zn62 1.985 . S
O76 C91 1.245 . S
O77 Zn64 1.970 . S
O77 C91 1.263 . S
C78 O89 1.262 . S
C78 O90 1.245 . S
O79 Zn66 1.985 . S
O79 C97 1.245 . S
O80 Zn69 1.970 . S
O80 C97 1.263 . S
O81 Zn59 1.955 . S
O81 C100 1.276 . S
C82 O72 1.245 . S
C82 O73 1.263 . S
O83 Zn52 1.955 . S
O83 C102 1.276 . S
C84 O92 1.262 . S
C84 O93 1.245 . S
O85 C56 1.276 . S
O85 Zn62 1.955 . S
C86 O74 1.245 . S
C86 O75 1.263 . S
O87 Zn66 1.955 . S
O87 C70 1.276 . S
C88 O95 1.262 . S
C88 O96 1.245 . S
O89 Zn53 1.945 . S
O89 C78 1.262 . S
O90 Zn69 1.981 . S
O90 C78 1.245 . S
C91 O76 1.245 . S
C91 O77 1.263 . S
O92 Zn58 1.945 . S
O92 C84 1.262 . S
O93 Zn64 1.981 . S
O93 C84 1.245 . S
C94 O98 1.262 . S
C94 O99 1.245 . S
O95 Zn64 1.945 . S
O95 C88 1.262 . S
O96 Zn53 1.981 . S
O96 C88 1.245 . S
C97 O79 1.245 . S
C97 O80 1.263 . S
O98 Zn69 1.945 . S
O98 C94 1.262 . S
O99 Zn58 1.981 . S
O99 C94 1.245 . S
C100 O81 1.276 . S
C100 O101 1.246 . S
O101 C100 1.246 . S
C102 O83 1.276 . S
C102 O103 1.246 . S
O103 C102 1.246 . S
O104 Cd105 2.300 . S
O104 C111 1.275 . S
Cd105 O104 2.300 . S
Cd105 O113 2.381 . S
Cd105 O114 2.378 . S
O106 Cd107 2.385 . S
O106 C111 1.255 . S
Cd107 O106 2.385 . S
Cd107 O108 2.317 1_554 S
O108 Cd107 2.317 1_556 S
O108 C109 1.232 . S
C109 O108 1.232 . S
C109 O110 1.218 . S
O110 C109 1.218 . S
C111 O104 1.275 . S
C111 O106 1.255 . S
C112 O113 1.258 . S
C112 O114 1.256 . S
O113 Cd105 2.381 . S
O113 C112 1.258 . S
O114 Cd105 2.378 . S
O114 C112 1.256 . S
O115 Cd116 2.300 . S
O115 C122 1.275 . S
Cd116 O115 2.300 . S
Cd116 O124 2.381 . S
Cd116 O125 2.378 1_556 S
O117 Cd118 2.385 1_556 S
O117 C122 1.255 . S
Cd118 O117 2.385 1_554 S
Cd118 O119 2.317 . S
O119 Cd118 2.317 . S
O119 C120 1.232 . S
C120 O119 1.232 . S
C120 O121 1.218 . S
O121 C120 1.218 . S
C122 O115 1.275 . S
C122 O117 1.255 . S
C123 O124 1.264 . S
C123 O125 1.248 1_556 S
O124 Cd116 2.381 . S
O124 C123 1.264 . S
O125 Cd116 2.378 1_554 S
O125 C123 1.248 1_554 S
O126 Cd127 2.300 . S
O126 C133 1.275 . S
Cd127 O126 2.300 . S
Cd127 O135 2.381 . S
Cd127 O136 2.378 . S
O128 Cd129 2.385 . S
O128 C133 1.255 . S
Cd129 O128 2.385 . S
Cd129 O130 2.317 1_554 S
O130 Cd129 2.317 1_556 S
O130 C131 1.232 . S
C131 O130 1.232 . S
C131 O132 1.218 . S
O132 C131 1.218 . S
C133 O126 1.275 . S
C133 O128 1.255 . S
C134 O135 1.258 . S
C134 O136 1.256 . S
O135 Cd127 2.381 . S
O135 C134 1.258 . S
O136 Cd127 2.378 . S
O136 C134 1.256 . S
O137 Cd138 2.300 . S
O137 C144 1.275 . S
Cd138 O137 2.300 . S
Cd138 O146 2.381 . S
Cd138 O147 2.378 . S
O139 Cd140 2.393 . S
O139 C144 1.255 . S
Cd140 O139 2.393 . S
Cd140 O141 2.310 1_554 S
O141 Cd140 2.310 1_556 S
O141 C142 1.232 . S
C142 O141 1.232 . S
C142 O143 1.218 . S
O143 C142 1.218 . S
C144 O137 1.275 . S
C144 O139 1.255 . S
C145 O146 1.258 . S
C145 O147 1.256 . S
O146 Cd138 2.381 . S
O146 C145 1.258 . S
O147 Cd138 2.378 . S
O147 C145 1.256 . S
O148 Cd149 2.300 . S
O148 C155 1.275 . S
Cd149 O148 2.300 . S
Cd149 O157 2.381 . S
Cd149 O158 2.378 . S
O150 Cd151 2.385 . S
O150 C155 1.255 . S
Cd151 O150 2.385 . S
Cd151 O152 2.317 . S
O152 Cd151 2.317 . S
O152 C153 1.232 . S
C153 O152 1.232 . S
C153 O154 1.218 . S
O154 C153 1.218 . S
C155 O148 1.275 . S
C155 O150 1.255 . S
C156 O157 1.258 . S
C156 O158 1.256 . S
O157 Cd149 2.381 . S
O157 C156 1.258 . S
O158 Cd149 2.378 . S
O158 C156 1.256 . S
O159 Cd160 2.300 . S
O159 C166 1.275 . S
Cd160 O159 2.300 . S
Cd160 O168 2.381 . S
Cd160 O169 2.378 . S
O161 Cd162 2.385 . S
O161 C166 1.255 . S
Cd162 O161 2.385 . S
Cd162 O163 2.317 . S
O163 Cd162 2.317 . S
O163 C164 1.232 . S
C164 O163 1.232 . S
C164 O165 1.218 . S
O165 C164 1.218 . S
C166 O159 1.275 . S
C166 O161 1.255 . S
C167 O168 1.258 . S
C167 O169 1.256 . S
O168 Cd160 2.381 . S
O168 C167 1.258 . S
O169 Cd160 2.378 . S
O169 C167 1.256 . S
O170 Cd171 2.300 . S
O170 C177 1.275 . S
Cd171 O170 2.300 . S
Cd171 O179 2.381 . S
Cd171 O180 2.378 . S
O172 Cd173 2.385 . S
O172 C177 1.255 . S
Cd173 O172 2.385 . S
Cd173 O174 2.317 . S
O174 Cd173 2.317 . S
O174 C175 1.232 . S
C175 O174 1.232 . S
C175 O176 1.218 . S
O176 C175 1.218 . S
C177 O170 1.275 . S
C177 O172 1.255 . S
C178 O179 1.258 . S
C178 O180 1.256 . S
O179 Cd171 2.381 . S
O179 C178 1.258 . S
O180 Cd171 2.378 . S
O180 C178 1.256 . S
O181 Cd182 2.300 . S
O181 C188 1.275 . S
Cd182 O181 2.300 . S
Cd182 O190 2.381 . S
Cd182 O191 2.378 . S
O183 Cd184 2.385 . S
O183 C188 1.255 . S
Cd184 O183 2.385 . S
Cd184 O185 2.317 . S
O185 Cd184 2.317 . S
O185 C186 1.232 . S
C186 O185 1.232 . S
C186 O187 1.218 . S
O187 C186 1.218 . S
C188 O181 1.275 . S
C188 O183 1.255 . S
C189 O190 1.258 . S
C189 O191 1.256 . S
O190 Cd182 2.381 . S
O190 C189 1.258 . S
O191 Cd182 2.378 . S
O191 C189 1.256 . S
C192 C193 1.369 . S
C192 C194 1.419 . S
C192 H196 0.930 . S
C193 C192 1.369 . S
C193 C202 1.429 1_554 S
C194 C192 1.419 . S
C194 C195 1.363 . S
C194 H197 0.929 . S
C195 C194 1.363 . S
C195 C201 1.428 1_554 S
H196 C192 0.930 . S
H197 C194 0.929 . S
S198 N199 1.613 . S
S198 N200 1.610 . S
N199 S198 1.613 . S
N199 C202 1.350 . S
N200 S198 1.610 . S
N200 C201 1.351 . S
C201 C195 1.428 1_556 S
C201 N200 1.351 . S
C201 C202 1.434 . S
C202 C193 1.429 1_556 S
C202 N199 1.350 . S
C202 C201 1.434 . S
C203 C204 1.369 1_556 S
C203 C205 1.419 . S
C203 H207 0.930 . S
C204 C203 1.369 1_554 S
C204 C213 1.429 . S
C205 C203 1.419 . S
C205 C206 1.363 1_556 S
C205 H208 0.929 . S
C206 C205 1.363 1_554 S
C206 C212 1.428 . S
H207 C203 0.930 . S
H208 C205 0.929 . S
S209 N210 1.613 . S
S209 N211 1.610 . S
N210 S209 1.613 . S
N210 C213 1.350 . S
N211 S209 1.610 . S
N211 C212 1.351 . S
C212 C206 1.428 . S
C212 N211 1.351 . S
C212 C213 1.434 . S
C213 C204 1.429 . S
C213 N210 1.350 . S
C213 C212 1.434 . S
C214 C215 1.369 1_556 S
C214 C216 1.419 1_556 S
C214 H218 0.930 . S
C215 C214 1.369 1_554 S
C215 C224 1.429 . S
C216 C214 1.419 1_554 S
C216 C217 1.363 . S
C216 H219 0.929 1_554 S
C217 C216 1.363 . S
C217 C223 1.428 . S
H218 C214 0.930 . S
H219 C216 0.929 1_556 S
S220 N221 1.613 . S
S220 N222 1.610 . S
N221 S220 1.613 . S
N221 C224 1.350 . S
N222 S220 1.610 . S
N222 C223 1.351 . S
C223 C217 1.428 . S
C223 N222 1.351 . S
C223 C224 1.434 . S
C224 C215 1.429 . S
C224 N221 1.350 . S
C224 C223 1.434 . S
C225 C226 1.369 1_556 S
C225 C227 1.419 . S
C225 H229 0.930 . S
C226 C225 1.369 1_554 S
C226 C235 1.429 . S
C227 C225 1.419 . S
C227 C228 1.363 1_556 S
C227 H230 0.929 . S
C228 C227 1.363 1_554 S
C228 C234 1.428 . S
H229 C225 0.930 . S
H230 C227 0.929 . S
S231 N232 1.613 . S
S231 N233 1.610 . S
N232 S231 1.613 . S
N232 C235 1.350 . S
N233 S231 1.610 . S
N233 C234 1.351 . S
C234 C228 1.428 . S
C234 N233 1.351 . S
C234 C235 1.434 . S
C235 C226 1.429 . S
C235 N232 1.350 . S
C235 C234 1.434 . S
C236 C237 1.369 . S
C236 C238 1.419 . S
C236 H240 0.930 . S
C237 C236 1.369 . S
C237 C246 1.429 . S
C238 C236 1.419 . S
C238 C239 1.363 . S
C238 H241 0.929 . S
C239 C238 1.363 . S
C239 C245 1.428 . S
H240 C236 0.930 . S
H241 C238 0.929 . S
S242 N243 1.613 . S
S242 N244 1.610 . S
N243 S242 1.613 . S
N243 C246 1.350 . S
N244 S242 1.610 . S
N244 C245 1.351 . S
C245 C239 1.428 . S
C245 N244 1.351 . S
C245 C246 1.434 . S
C246 C237 1.429 . S
C246 N243 1.350 . S
C246 C245 1.434 . S
C247 C248 1.369 . S
C247 C249 1.419 . S
C247 H251 0.930 . S
C248 C247 1.369 . S
C248 C257 1.429 . S
C249 C247 1.419 . S
C249 C250 1.363 . S
C249 H252 0.929 . S
C250 C249 1.363 . S
C250 C256 1.428 . S
H251 C247 0.930 . S
H252 C249 0.929 . S
S253 N254 1.613 . S
S253 N255 1.610 . S
N254 S253 1.613 . S
N254 C257 1.350 . S
N255 S253 1.610 . S
N255 C256 1.351 . S
C256 C250 1.428 . S
C256 N255 1.351 . S
C256 C257 1.434 . S
C257 C248 1.429 . S
C257 N254 1.350 . S
C257 C256 1.434 . S
C258 C259 1.369 . S
C258 C260 1.419 . S
C258 H262 0.930 . S
C259 C258 1.369 . S
C259 C268 1.429 . S
C260 C258 1.419 . S
C260 C261 1.363 . S
C260 H263 0.929 . S
C261 C260 1.363 . S
C261 C267 1.428 . S
H262 C258 0.930 . S
H263 C260 0.929 . S
S264 N265 1.613 . S
S264 N266 1.610 . S
N265 S264 1.613 . S
N265 C268 1.350 . S
N266 S264 1.610 . S
N266 C267 1.351 . S
C267 C261 1.428 . S
C267 N266 1.351 . S
C267 C268 1.434 . S
C268 C259 1.429 . S
C268 N265 1.350 . S
C268 C267 1.434 . S
C269 C270 1.369 . S
C269 C271 1.419 . S
C269 H273 0.930 . S
C270 C269 1.369 . S
C270 C279 1.429 . S
C271 C269 1.419 . S
C271 C272 1.363 . S
C271 H274 0.929 . S
C272 C271 1.363 . S
C272 C278 1.428 . S
H273 C269 0.930 . S
H274 C271 0.929 . S
S275 N276 1.613 . S
S275 N277 1.610 . S
N276 S275 1.613 . S
N276 C279 1.350 . S
N277 S275 1.610 . S
N277 C278 1.351 . S
C278 C272 1.428 . S
C278 N277 1.351 . S
C278 C279 1.434 . S
C279 C270 1.429 . S
C279 N276 1.350 . S
C279 C278 1.434 . S
C280 C281 1.369 . S
C280 C282 1.419 . S
C280 H284 0.930 . S
C281 C280 1.369 . S
C281 C290 1.429 . S
C282 C280 1.419 . S
C282 C283 1.363 . S
C282 H285 0.929 . S
C283 C282 1.363 . S
C283 C289 1.428 . S
H284 C280 0.930 . S
H285 C282 0.929 . S
S286 N287 1.613 . S
S286 N288 1.610 . S
N287 S286 1.613 . S
N287 C290 1.350 1_655 S
N288 S286 1.610 . S
N288 C289 1.351 1_655 S
C289 C283 1.428 . S
C289 N288 1.351 1_455 S
C289 C290 1.434 . S
C290 C281 1.429 . S
C290 N287 1.350 1_455 S
C290 C289 1.434 . S
C291 C292 1.369 . S
C291 C293 1.419 . S
C291 H295 0.930 . S
C292 C291 1.369 . S
C292 C301 1.429 . S
C293 C291 1.419 . S
C293 C294 1.363 . S
C293 H296 0.929 . S
C294 C293 1.363 . S
C294 C300 1.428 . S
H295 C291 0.930 . S
H296 C293 0.929 . S
S297 N298 1.613 1_565 S
S297 N299 1.610 1_565 S
N298 S297 1.613 1_545 S
N298 C301 1.350 . S
N299 S297 1.610 1_545 S
N299 C300 1.351 . S
C300 C294 1.428 . S
C300 N299 1.351 . S
C300 C301 1.434 . S
C301 C292 1.429 . S
C301 N298 1.350 . S
C301 C300 1.434 . S
C302 C303 1.369 . S
C302 C304 1.419 . S
C302 H306 0.930 . S
C303 C302 1.369 . S
C303 C312 1.429 . S
C304 C302 1.419 . S
C304 C305 1.363 . S
C304 H307 0.929 . S
C305 C304 1.363 . S
C305 C311 1.428 . S
H306 C302 0.930 . S
H307 C304 0.929 . S
S308 N309 1.613 . S
S308 N310 1.610 . S
N309 S308 1.613 . S
N309 C312 1.350 1_455 S
N310 S308 1.610 . S
N310 C311 1.351 1_455 S
C311 C305 1.428 . S
C311 N310 1.351 1_655 S
C311 C312 1.434 . S
C312 C303 1.429 . S
C312 N309 1.350 1_655 S
C312 C311 1.434 . S
C313 C314 1.369 . S
C313 C315 1.419 . S
C313 H317 0.930 1_565 S
C314 C313 1.369 . S
C314 C323 1.429 . S
C315 C313 1.419 . S
C315 C316 1.363 . S
C315 H318 0.929 . S
C316 C315 1.363 . S
C316 C322 1.428 . S
H317 C313 0.930 1_545 S
H318 C315 0.929 . S
S319 N320 1.613 . S
S319 N321 1.610 . S
N320 S319 1.613 . S
N320 C323 1.350 . S
N321 S319 1.610 . S
N321 C322 1.351 . S
C322 C316 1.428 . S
C322 N321 1.351 . S
C322 C323 1.434 . S
C323 C314 1.429 . S
C323 N320 1.350 . S
C323 C322 1.434 . S
C324 C325 1.369 . S
C324 C326 1.419 . S
C324 H328 0.930 . S
C325 C324 1.369 . S
C325 C334 1.429 . S
C326 C324 1.419 . S
C326 C327 1.363 . S
C326 H329 0.929 . S
C327 C326 1.363 . S
C327 C333 1.428 . S
H328 C324 0.930 . S
H329 C326 0.929 . S
S330 N331 1.613 . S
S330 N332 1.610 . S
N331 S330 1.613 . S
N331 C334 1.350 . S
N332 S330 1.610 . S
N332 C333 1.351 . S
C333 C327 1.428 . S
C333 N332 1.351 . S
C333 C334 1.434 . S
C334 C325 1.429 . S
C334 N331 1.350 . S
C334 C333 1.434 . S
C335 C336 1.369 . S
C335 C337 1.419 . S
C335 H339 0.930 . S
C336 C335 1.369 . S
C336 C345 1.429 . S
C337 C335 1.419 . S
C337 C338 1.363 . S
C337 H340 0.929 . S
C338 C337 1.363 . S
C338 C344 1.428 . S
H339 C335 0.930 . S
H340 C337 0.929 . S
S341 N342 1.613 . S
S341 N343 1.610 1_655 S
N342 S341 1.613 . S
N342 C345 1.350 1_655 S
N343 S341 1.610 1_455 S
N343 C344 1.351 . S
C344 C338 1.428 . S
C344 N343 1.351 . S
C344 C345 1.434 . S
C345 C336 1.429 . S
C345 N342 1.350 1_455 S
C345 C344 1.434 . S
C346 C347 1.369 . S
C346 C348 1.419 . S
C346 H350 0.930 . S
C347 C346 1.369 . S
C347 C356 1.429 . S
C348 C346 1.419 . S
C348 C349 1.363 . S
C348 H351 0.929 . S
C349 C348 1.363 . S
C349 C355 1.428 . S
H350 C346 0.930 . S
H351 C348 0.929 . S
S352 N353 1.613 . S
S352 N354 1.610 . S
N353 S352 1.613 . S
N353 C356 1.350 . S
N354 S352 1.610 . S
N354 C355 1.351 . S
C355 C349 1.428 . S
C355 N354 1.351 . S
C355 C356 1.434 . S
C356 C347 1.429 . S
C356 N353 1.350 . S
C356 C355 1.434 . S
C357 C358 1.369 . S
C357 C359 1.419 . S
C357 H361 0.930 . S
C358 C357 1.369 . S
C358 C367 1.429 . S
C359 C357 1.419 . S
C359 C360 1.363 . S
C359 H362 0.929 . S
C360 C359 1.363 . S
C360 C366 1.428 . S
H361 C357 0.930 . S
H362 C359 0.929 . S
S363 N364 1.613 . S
S363 N365 1.610 . S
N364 S363 1.613 . S
N364 C367 1.350 . S
N365 S363 1.610 . S
N365 C366 1.351 . S
C366 C360 1.428 . S
C366 N365 1.351 . S
C366 C367 1.434 . S
C367 C358 1.429 . S
C367 N364 1.350 . S
C367 C366 1.434 . S
C368 C369 1.369 . S
C368 C370 1.419 . S
C368 H372 0.930 . S
C369 C368 1.369 . S
C369 C378 1.429 . S
C370 C368 1.419 . S
C370 C371 1.363 . S
C370 H373 0.929 . S
C371 C370 1.363 . S
C371 C377 1.428 . S
H372 C368 0.930 . S
H373 C370 0.929 . S
S374 N375 1.613 . S
S374 N376 1.610 . S
N375 S374 1.613 . S
N375 C378 1.350 . S
N376 S374 1.610 . S
N376 C377 1.351 . S
C377 C371 1.428 . S
C377 N376 1.351 . S
C377 C378 1.434 . S
C378 C369 1.429 . S
C378 N375 1.350 . S
C378 C377 1.434 . S
C379 C380 1.369 . S
C379 C381 1.419 . S
C379 H383 0.930 . S
C380 C379 1.369 . S
C380 C389 1.429 . S
C381 C379 1.419 . S
C381 C382 1.363 . S
C381 H384 0.929 . S
C382 C381 1.363 . S
C382 C388 1.428 . S
H383 C379 0.930 . S
H384 C381 0.929 . S
S385 N386 1.613 . S
S385 N387 1.610 . S
N386 S385 1.613 . S
N386 C389 1.350 . S
N387 S385 1.610 . S
N387 C388 1.351 . S
C388 C382 1.428 . S
C388 N387 1.351 . S
C388 C389 1.434 . S
C389 C380 1.429 . S
C389 N386 1.350 . S
C389 C388 1.434 . S
C390 C391 1.369 . S
C390 C392 1.419 . S
C390 H394 0.930 . S
C391 C390 1.369 . S
C391 C400 1.429 . S
C392 C390 1.419 . S
C392 C393 1.363 . S
C392 H395 0.929 . S
C393 C392 1.363 . S
C393 C399 1.428 . S
H394 C390 0.930 . S
H395 C392 0.929 . S
S396 N397 1.613 . S
S396 N398 1.610 . S
N397 S396 1.613 . S
N397 C400 1.350 . S
N398 S396 1.610 . S
N398 C399 1.351 . S
C399 C393 1.428 . S
C399 N398 1.351 . S
C399 C400 1.434 . S
C400 C391 1.429 . S
C400 N397 1.350 . S
C400 C399 1.434 . S
C401 C402 1.369 . S
C401 C403 1.419 . S
C401 H405 0.930 . S
C402 C401 1.369 . S
C402 C411 1.429 . S
C403 C401 1.419 . S
C403 C404 1.363 . S
C403 H406 0.929 . S
C404 C403 1.363 . S
C404 C410 1.428 . S
H405 C401 0.930 . S
H406 C403 0.929 . S
S407 N408 1.613 . S
S407 N409 1.610 . S
N408 S407 1.613 . S
N408 C411 1.350 . S
N409 S407 1.610 . S
N409 C410 1.351 . S
C410 C404 1.428 . S
C410 N409 1.351 . S
C410 C411 1.434 . S
C411 C402 1.429 . S
C411 N408 1.350 . S
C411 C410 1.434 . S
C412 C413 1.369 . S
C412 C414 1.419 . S
C412 H416 0.930 . S
C413 C412 1.369 . S
C413 C422 1.429 . S
C414 C412 1.419 . S
C414 C415 1.363 . S
C414 H417 0.929 . S
C415 C414 1.363 . S
C415 C421 1.428 . S
H416 C412 0.930 . S
H417 C414 0.929 . S
S418 N419 1.613 . S
S418 N420 1.610 . S
N419 S418 1.613 . S
N419 C422 1.350 . S
N420 S418 1.610 . S
N420 C421 1.351 . S
C421 C415 1.428 . S
C421 N420 1.351 . S
C421 C422 1.434 . S
C422 C413 1.429 . S
C422 N419 1.350 . S
C422 C421 1.434 . S
C423 C424 1.369 . S
C423 C425 1.419 . S
C423 H427 0.930 . S
C424 C423 1.369 . S
C424 C433 1.429 . S
C425 C423 1.419 . S
C425 C426 1.363 . S
C425 H428 0.929 . S
C426 C425 1.363 . S
C426 C432 1.428 . S
H427 C423 0.930 . S
H428 C425 0.929 . S
S429 N430 1.613 . S
S429 N431 1.610 . S
N430 S429 1.613 . S
N430 C433 1.350 . S
N431 S429 1.610 . S
N431 C432 1.351 . S
C432 C426 1.428 . S
C432 N431 1.351 . S
C432 C433 1.434 . S
C433 C424 1.429 . S
C433 N430 1.350 . S
C433 C432 1.434 . S
C434 C435 1.369 . S
C434 C436 1.419 . S
C434 H438 0.930 . S
C435 C434 1.369 . S
C435 C444 1.429 . S
C436 C434 1.419 . S
C436 C437 1.363 . S
C436 H439 0.929 . S
C437 C436 1.363 . S
C437 C443 1.428 . S
H438 C434 0.930 . S
H439 C436 0.929 . S
S440 N441 1.613 . S
S440 N442 1.610 . S
N441 S440 1.613 . S
N441 C444 1.350 . S
N442 S440 1.610 . S
N442 C443 1.351 . S
C443 C437 1.428 . S
C443 N442 1.351 . S
C443 C444 1.434 . S
C444 C435 1.429 . S
C444 N441 1.350 . S
C444 C443 1.434 . S
C445 C446 1.369 . S
C445 C447 1.419 . S
C445 H449 0.930 . S
C446 C445 1.369 . S
C446 C455 1.429 . S
C447 C445 1.419 . S
C447 C448 1.363 . S
C447 H450 0.929 . S
C448 C447 1.363 . S
C448 C454 1.428 . S
H449 C445 0.930 . S
H450 C447 0.929 . S
S451 N452 1.613 . S
S451 N453 1.610 . S
N452 S451 1.613 . S
N452 C455 1.350 . S
N453 S451 1.610 . S
N453 C454 1.351 . S
C454 C448 1.428 . S
C454 N453 1.351 . S
C454 C455 1.434 . S
C455 C446 1.429 . S
C455 N452 1.350 . S
C455 C454 1.434 . S
C193 C45 1.603 . S
C195 C112 1.574 . S
C204 C30 1.580 . S
C206 C123 1.615 1_554 S
C215 C39 1.603 . S
C217 C134 1.578 . S
C228 C145 1.551 . S
C226 C34 1.583 . S
C237 C97 1.604 . S
C239 C156 1.573 . S
C250 C167 1.614 . S
C248 C82 1.580 . S
C261 C178 1.575 . S
C259 C91 1.606 . S
C272 C189 1.553 . S
C270 C86 1.581 . S
C283 C175 1.117 . S
C281 C26 1.349 . S
C294 C186 1.226 . S
C292 C36 1.477 . S
C305 C153 1.126 . S
C303 C32 1.354 . S
C316 C166 1.571 . S
C314 C42 1.512 . S
C325 C18 1.525 . S
C327 C164 1.552 . S
C338 C177 1.708 . S
C336 C50 1.710 . S
C347 C4 1.560 . S
C349 C188 1.555 . S
C358 C48 1.713 . S
C360 C155 1.707 . S
C371 C131 1.119 . S
C369 C78 1.348 . S
C380 C88 1.477 . S
C382 C142 1.226 . S
C393 C109 1.115 . S
C391 C84 1.361 . S
C404 C122 1.574 . S
C402 C94 1.511 . S
C415 C120 1.553 . S
C413 C70 1.533 . S
C426 C133 1.701 . S
C424 C102 1.718 . S
C435 C56 1.563 . S
C437 C144 1.552 . S
C446 C100 1.709 . S
C448 C111 1.705 . S
