# Generated by pormake.
# Topology myd, (4,6)-cn, num edge types: 1
# Building blocks:
#     Node 0, Type 0, BuildingBlock: NAWXER_clean_sbu_0, # of connection points: 4
#     Node 1, Type 0, BuildingBlock: NAWXER_clean_sbu_0, # of connection points: 4
#     Node 2, Type 0, BuildingBlock: NAWXER_clean_sbu_0, # of connection points: 4
#     Node 3, Type 0, BuildingBlock: NAWXER_clean_sbu_0, # of connection points: 4
#     Node 4, Type 0, BuildingBlock: NAWXER_clean_sbu_0, # of connection points: 4
#     Node 5, Type 0, BuildingBlock: NAWXER_clean_sbu_0, # of connection points: 4
#     Node 6, Type 0, BuildingBlock: NAWXER_clean_sbu_0, # of connection points: 4
#     Node 7, Type 0, BuildingBlock: NAWXER_clean_sbu_0, # of connection points: 4
#     Node 8, Type 0, BuildingBlock: NAWXER_clean_sbu_0, # of connection points: 4
#     Node 9, Type 0, BuildingBlock: NAWXER_clean_sbu_0, # of connection points: 4
#     Node 10, Type 0, BuildingBlock: NAWXER_clean_sbu_0, # of connection points: 4
#     Node 11, Type 0, BuildingBlock: NAWXER_clean_sbu_0, # of connection points: 4
#     Node 12, Type 1, BuildingBlock: VOLQOD_clean_sbu_1, # of connection points: 6
#     Node 13, Type 1, BuildingBlock: VOLQOD_clean_sbu_1, # of connection points: 6
#     Node 14, Type 1, BuildingBlock: VOLQOD_clean_sbu_1, # of connection points: 6
#     Node 15, Type 1, BuildingBlock: VOLQOD_clean_sbu_1, # of connection points: 6
#     Node 16, Type 1, BuildingBlock: VOLQOD_clean_sbu_1, # of connection points: 6
#     Node 17, Type 1, BuildingBlock: VOLQOD_clean_sbu_1, # of connection points: 6
#     Node 18, Type 1, BuildingBlock: VOLQOD_clean_sbu_1, # of connection points: 6
#     Node 19, Type 1, BuildingBlock: VOLQOD_clean_sbu_1, # of connection points: 6
#     Edge 20, Type (0, 1), BuildingBlock: CIFDUS_clean_linker_0, # of connection points: 2
#     Edge 21, Type (0, 1), BuildingBlock: CIFDUS_clean_linker_0, # of connection points: 2
#     Edge 22, Type (0, 1), BuildingBlock: CIFDUS_clean_linker_0, # of connection points: 2
#     Edge 23, Type (0, 1), BuildingBlock: CIFDUS_clean_linker_0, # of connection points: 2
#     Edge 24, Type (0, 1), BuildingBlock: CIFDUS_clean_linker_0, # of connection points: 2
#     Edge 25, Type (0, 1), BuildingBlock: CIFDUS_clean_linker_0, # of connection points: 2
#     Edge 26, Type (0, 1), BuildingBlock: CIFDUS_clean_linker_0, # of connection points: 2
#     Edge 27, Type (0, 1), BuildingBlock: CIFDUS_clean_linker_0, # of connection points: 2
#     Edge 28, Type (0, 1), BuildingBlock: CIFDUS_clean_linker_0, # of connection points: 2
#     Edge 29, Type (0, 1), BuildingBlock: CIFDUS_clean_linker_0, # of connection points: 2
#     Edge 30, Type (0, 1), BuildingBlock: CIFDUS_clean_linker_0, # of connection points: 2
#     Edge 31, Type (0, 1), BuildingBlock: CIFDUS_clean_linker_0, # of connection points: 2
#     Edge 32, Type (0, 1), BuildingBlock: CIFDUS_clean_linker_0, # of connection points: 2
#     Edge 33, Type (0, 1), BuildingBlock: CIFDUS_clean_linker_0, # of connection points: 2
#     Edge 34, Type (0, 1), BuildingBlock: CIFDUS_clean_linker_0, # of connection points: 2
#     Edge 35, Type (0, 1), BuildingBlock: CIFDUS_clean_linker_0, # of connection points: 2
#     Edge 36, Type (0, 1), BuildingBlock: CIFDUS_clean_linker_0, # of connection points: 2
#     Edge 37, Type (0, 1), BuildingBlock: CIFDUS_clean_linker_0, # of connection points: 2
#     Edge 38, Type (0, 1), BuildingBlock: CIFDUS_clean_linker_0, # of connection points: 2
#     Edge 39, Type (0, 1), BuildingBlock: CIFDUS_clean_linker_0, # of connection points: 2
#     Edge 40, Type (0, 1), BuildingBlock: CIFDUS_clean_linker_0, # of connection points: 2
#     Edge 41, Type (0, 1), BuildingBlock: CIFDUS_clean_linker_0, # of connection points: 2
#     Edge 42, Type (0, 1), BuildingBlock: CIFDUS_clean_linker_0, # of connection points: 2
#     Edge 43, Type (0, 1), BuildingBlock: CIFDUS_clean_linker_0, # of connection points: 2
#     Edge 44, Type (0, 1), BuildingBlock: CIFDUS_clean_linker_0, # of connection points: 2
#     Edge 45, Type (0, 1), BuildingBlock: CIFDUS_clean_linker_0, # of connection points: 2
#     Edge 46, Type (0, 1), BuildingBlock: CIFDUS_clean_linker_0, # of connection points: 2
#     Edge 47, Type (0, 1), BuildingBlock: CIFDUS_clean_linker_0, # of connection points: 2
#     Edge 48, Type (0, 1), BuildingBlock: CIFDUS_clean_linker_0, # of connection points: 2
#     Edge 49, Type (0, 1), BuildingBlock: CIFDUS_clean_linker_0, # of connection points: 2
#     Edge 50, Type (0, 1), BuildingBlock: CIFDUS_clean_linker_0, # of connection points: 2
#     Edge 51, Type (0, 1), BuildingBlock: CIFDUS_clean_linker_0, # of connection points: 2
#     Edge 52, Type (0, 1), BuildingBlock: CIFDUS_clean_linker_0, # of connection points: 2
#     Edge 53, Type (0, 1), BuildingBlock: CIFDUS_clean_linker_0, # of connection points: 2
#     Edge 54, Type (0, 1), BuildingBlock: CIFDUS_clean_linker_0, # of connection points: 2
#     Edge 55, Type (0, 1), BuildingBlock: CIFDUS_clean_linker_0, # of connection points: 2
#     Edge 56, Type (0, 1), BuildingBlock: CIFDUS_clean_linker_0, # of connection points: 2
#     Edge 57, Type (0, 1), BuildingBlock: CIFDUS_clean_linker_0, # of connection points: 2
#     Edge 58, Type (0, 1), BuildingBlock: CIFDUS_clean_linker_0, # of connection points: 2
#     Edge 59, Type (0, 1), BuildingBlock: CIFDUS_clean_linker_0, # of connection points: 2
#     Edge 60, Type (0, 1), BuildingBlock: CIFDUS_clean_linker_0, # of connection points: 2
#     Edge 61, Type (0, 1), BuildingBlock: CIFDUS_clean_linker_0, # of connection points: 2
#     Edge 62, Type (0, 1), BuildingBlock: CIFDUS_clean_linker_0, # of connection points: 2
#     Edge 63, Type (0, 1), BuildingBlock: CIFDUS_clean_linker_0, # of connection points: 2
#     Edge 64, Type (0, 1), BuildingBlock: CIFDUS_clean_linker_0, # of connection points: 2
#     Edge 65, Type (0, 1), BuildingBlock: CIFDUS_clean_linker_0, # of connection points: 2
#     Edge 66, Type (0, 1), BuildingBlock: CIFDUS_clean_linker_0, # of connection points: 2
#     Edge 67, Type (0, 1), BuildingBlock: CIFDUS_clean_linker_0, # of connection points: 2
# Relax obj value: 0.200
# Max RMSD: 0.165
# Mean RMSD: 0.125
data_MOF--net-myd--node1-NAWXER_clean_sbu_0--node2-VOLQOD_clean_sbu_1--edge1-CIFDUS_clean_linker_0
_symmetry_space_group_name_H-M    P1
_symmetry_Int_Tables_number       1
_symmetry_cell_setting            triclinic
loop_
_symmetry_equiv_pos_as_xyz
'x, y, z'
_cell_length_a     41.158455
_cell_length_b     41.269999
_cell_length_c     41.308178
_cell_angle_alpha  91.188319
_cell_angle_beta   89.879268
_cell_angle_gamma 90.924084
loop_
_atom_site_label
_atom_site_type_symbol
_atom_site_fract_x
_atom_site_fract_y
_atom_site_fract_z
_atom_type_partial_charge
C0 C 0.04492 0.21622 0.26626 0.0
C1 C 0.02807 0.29908 0.34976 0.0
O2 O 0.06632 0.23483 0.27932 0.0
Zn3 Zn 0.03778 0.25576 0.31011 0.0
O4 O 0.01527 0.21752 0.27572 0.0
Zn5 Zn 0.98684 0.24501 0.31003 0.0
O6 O 0.95792 0.26665 0.28096 0.0
O7 O 0.00908 0.28374 0.27807 0.0
O8 O 1.00168 0.28469 0.34079 0.0
O9 O 0.05524 0.28867 0.33971 0.0
O10 O 0.02312 0.21647 0.33964 0.0
O11 O 0.96956 0.2124 0.33886 0.0
C12 C 0.97937 0.28562 0.26919 0.0
C13 C 0.99677 0.20234 0.34862 0.0
C14 C 1.00048 0.79702 0.23564 0.0
C15 C 0.98296 0.71344 0.15209 0.0
O16 O 0.02677 0.78396 0.22555 0.0
Zn17 Zn 0.04187 0.74959 0.18896 0.0
O18 O 0.97346 0.7896 0.22228 0.0
Zn19 Zn 0.99076 0.75775 0.19192 0.0
O20 O 0.00986 0.72288 0.22453 0.0
O21 O 0.06259 0.71747 0.21534 0.0
O22 O 0.96157 0.73103 0.16563 0.0
O23 O 0.01305 0.71867 0.15841 0.0
O24 O 0.06763 0.77588 0.1601 0.0
O25 O 0.01576 0.78824 0.15887 0.0
C26 C 0.03701 0.70965 0.23088 0.0
C27 C 0.04499 0.79316 0.14925 0.0
C28 C 0.37442 0.02574 0.21462 0.0
C29 C 0.28776 0.02853 0.2952 0.0
O30 O 0.36464 0.99728 0.2224 0.0
Zn31 Zn 0.33027 0.97653 0.25544 0.0
O32 O 0.36314 0.05037 0.2295 0.0
Zn33 Zn 0.33256 0.02812 0.25691 0.0
O34 O 0.36114 0.0055 0.29348 0.0
O35 O 0.35556 0.95267 0.28564 0.0
O36 O 0.30177 0.053 0.28276 0.0
O37 O 0.29643 0.99982 0.28718 0.0
O38 O 0.30027 0.95345 0.22643 0.0
O39 O 0.30013 0.00671 0.22169 0.0
C40 C 0.36733 0.97651 0.30196 0.0
C41 C 0.28979 0.97851 0.21267 0.0
C42 C 0.7351 0.47109 0.22449 0.0
C43 C 0.6527 0.48202 0.3096 0.0
O44 O 0.72369 0.44899 0.24253 0.0
Zn45 Zn 0.69252 0.47566 0.26526 0.0
O46 O 0.72444 0.50007 0.22738 0.0
Zn47 Zn 0.68942 0.52611 0.25715 0.0
O48 O 0.71871 0.55665 0.27927 0.0
O49 O 0.72513 0.50571 0.29303 0.0
O50 O 0.65919 0.50924 0.29635 0.0
O51 O 0.66549 0.45641 0.2982 0.0
O52 O 0.66152 0.48833 0.22619 0.0
O53 O 0.65967 0.54169 0.2247 0.0
C54 C 0.73309 0.53573 0.29606 0.0
C55 C 0.65145 0.51409 0.21289 0.0
C56 C 0.21888 0.36226 0.00452 0.0
C57 C 0.30756 0.29403 0.96362 0.0
O58 O 0.22695 0.35811 0.97498 0.0
Zn59 Zn 0.26423 0.33025 0.98212 0.0
O60 O 0.23653 0.3503 0.02671 0.0
Zn61 Zn 0.27896 0.32149 0.03088 0.0
O62 O 0.31228 0.34899 0.05056 0.0
O63 O 0.30204 0.3622 1.00012 0.0
O64 O 0.30661 0.2976 0.99441 0.0
O65 O 0.28668 0.30799 0.9462 0.0
O66 O 0.24156 0.28905 0.00443 0.0
O67 O 0.26199 0.28401 0.05346 0.0
C68 C 0.31851 0.3664 0.02622 0.0
C69 C 0.24288 0.27385 0.03113 0.0
C70 C 0.23133 0.73989 0.52169 0.0
C71 C 0.30563 0.64852 0.52649 0.0
O72 O 0.24048 0.72934 0.49377 0.0
Zn73 Zn 0.26949 0.69115 0.47357 0.0
O74 O 0.24104 0.72613 0.54709 0.0
Zn75 Zn 0.2675 0.69332 0.52562 0.0
O76 O 0.3061 0.72024 0.50396 0.0
O77 O 0.30278 0.71554 0.45053 0.0
O78 O 0.29248 0.66329 0.55038 0.0
O79 O 0.29861 0.6564 0.49752 0.0
O80 O 0.23798 0.66402 0.45025 0.0
O81 O 0.23156 0.66349 0.50329 0.0
C82 C 0.31723 0.72648 0.47577 0.0
C83 C 0.22245 0.65425 0.47495 0.0
C84 C 0.72834 0.8596 0.48545 0.0
C85 C 0.80905 0.77534 0.48535 0.0
O86 O 0.74197 0.84606 0.46124 0.0
Zn87 Zn 0.771 0.81941 0.48493 0.0
O88 O 0.73802 0.8535 0.51417 0.0
Zn89 Zn 0.77234 0.82214 0.5363 0.0
O90 O 0.80491 0.84951 0.55752 0.0
O91 O 0.80793 0.85096 0.50425 0.0
O92 O 0.80176 0.7852 0.51405 0.0
O93 O 0.79684 0.78887 0.46094 0.0
O94 O 0.73761 0.78782 0.50966 0.0
O95 O 0.7434 0.79606 0.56239 0.0
C96 C 0.81886 0.85969 0.53215 0.0
C97 C 0.72935 0.78133 0.5388 0.0
C98 C 0.53265 0.79393 0.78138 0.0
C99 C 0.5409 0.71267 0.86598 0.0
O100 O 0.50518 0.78225 0.7905 0.0
Zn101 Zn 0.48623 0.75053 0.82691 0.0
O102 O 0.55839 0.78669 0.79646 0.0
Zn103 Zn 0.53736 0.75768 0.82735 0.0
O104 O 0.51845 0.72028 0.79477 0.0
O105 O 0.46469 0.7193 0.79818 0.0
O106 O 0.56331 0.73131 0.8555 0.0
O107 O 0.51136 0.71794 0.85809 0.0
O108 O 0.4604 0.77921 0.85395 0.0
O109 O 0.51235 0.79196 0.85762 0.0
C110 C 0.49084 0.70822 0.78604 0.0
C111 C 0.48275 0.79783 0.86507 0.0
C112 C 0.48111 0.20634 0.71846 0.0
C113 C 0.4985 0.29534 0.64306 0.0
O114 O 0.45885 0.2226 0.70527 0.0
Zn115 Zn 0.48795 0.24999 0.67942 0.0
O116 O 0.51086 0.2126 0.7117 0.0
Zn117 Zn 0.53941 0.24379 0.68269 0.0
O118 O 0.56434 0.26644 0.71567 0.0
O119 O 0.51217 0.27843 0.71683 0.0
O120 O 0.52472 0.28227 0.6527 0.0
O121 O 0.47118 0.2835 0.65171 0.0
O122 O 0.50762 0.21458 0.64645 0.0
O123 O 0.5606 0.21274 0.65464 0.0
C124 C 0.541 0.28226 0.72815 0.0
C125 C 0.53535 0.20235 0.63987 0.0
C126 C 0.8032 0.51993 0.70454 0.0
C127 C 0.8761 0.48262 0.78876 0.0
O128 O 0.82029 0.5378 0.72361 0.0
Zn129 Zn 0.84301 0.50255 0.74405 0.0
O130 O 0.80566 0.48908 0.7052 0.0
Zn131 Zn 0.83117 0.45342 0.73138 0.0
O132 O 0.79454 0.43111 0.75079 0.0
O133 O 0.80283 0.48114 0.7696 0.0
O134 O 0.86249 0.4594 0.77242 0.0
O135 O 0.87314 0.51158 0.77941 0.0
O136 O 0.87111 0.48287 0.70468 0.0
O137 O 0.85546 0.43184 0.69763 0.0
C138 C 0.78678 0.45429 0.76995 0.0
C139 C 0.87305 0.45574 0.68911 0.0
C140 C 0.23654 0.97395 0.70346 0.0
C141 C 0.14898 0.98318 0.78309 0.0
O142 O 0.21685 0.95156 0.71186 0.0
Zn143 Zn 0.19058 0.97785 0.74106 0.0
O144 O 0.23268 0.00294 0.71438 0.0
Zn145 Zn 0.19981 0.02875 0.74572 0.0
O146 O 0.22914 0.04629 0.77797 0.0
O147 O 0.22571 0.99266 0.7769 0.0
O148 O 0.16233 0.01051 0.77655 0.0
O149 O 0.15769 0.95763 0.76796 0.0
O150 O 0.16449 0.00676 0.70816 0.0
O151 O 0.17903 0.05799 0.71671 0.0
C152 C 0.23781 0.01911 0.78879 0.0
C153 C 0.16254 0.03672 0.701 0.0
C154 C 0.72624 0.13823 0.98802 0.0
C155 C 0.80832 0.21716 0.02483 0.0
O156 O 0.73478 0.1444 0.01708 0.0
Zn157 Zn 0.76962 0.17528 0.00796 0.0
O158 O 0.74267 0.15059 0.96479 0.0
Zn159 Zn 0.78302 0.18309 0.95882 0.0
O160 O 0.81847 0.15862 0.94023 0.0
O161 O 0.81094 0.14763 0.99171 0.0
O162 O 0.80807 0.21205 0.99418 0.0
O163 O 0.78894 0.20141 0.04299 0.0
O164 O 0.74384 0.21314 0.98396 0.0
O165 O 0.7635 0.2175 0.93441 0.0
C166 C 0.82743 0.14415 0.96548 0.0
C167 C 0.744 0.22704 0.95648 0.0
O168 O 0.12695 0.01938 0.10116 0.0
Zn169 Zn 0.0808 0.02779 0.08831 0.0
O170 O 0.07815 0.0455 0.04496 0.0
Zn171 Zn 0.06032 0.08908 0.04671 0.0
Zn172 Zn 0.12201 0.04776 0.02729 0.0
Zn173 Zn 0.04979 0.01761 0.01787 0.0
O174 O 0.01579 0.09045 0.02535 0.0
O175 O 0.0062 0.03893 0.01069 0.0
O176 O 0.06233 0.05832 0.12224 0.0
O177 O 0.05507 0.10269 0.09349 0.0
O178 O 0.09131 0.12268 0.02849 0.0
O179 O 0.13653 0.09436 0.02289 0.0
O180 O 0.1229 0.02484 0.98379 0.0
O181 O 0.0604 0.98375 0.08922 0.0
O182 O 0.07175 0.00855 0.97452 0.0
O183 O 0.0419 0.97416 0.03928 0.0
C184 C 0.15372 0.01935 0.08574 0.0
C185 C 0.99711 0.06825 0.01357 0.0
C186 C 0.1217 0.12119 0.02286 0.0
C187 C 0.05542 0.0882 0.12041 0.0
C188 C 0.10134 0.01148 0.96557 0.0
C189 C 0.04733 0.96498 0.06803 0.0
O190 O 0.1554 0.0284 0.05652 0.0
O191 O 0.90421 0.46966 0.10961 0.0
Zn192 Zn 0.95121 0.47109 0.0972 0.0
O193 O 0.95689 0.45227 0.05416 0.0
Zn194 Zn 0.97807 0.41111 0.05819 0.0
Zn195 Zn 0.91388 0.44496 0.03549 0.0
Zn196 Zn 0.9838 0.48049 0.02725 0.0
O197 O 0.02392 0.41287 0.04135 0.0
O198 O 0.02879 0.46132 0.01906 0.0
O199 O 0.97288 0.44576 0.13238 0.0
O200 O 0.97947 0.3996 0.10471 0.0
O201 O 0.95266 0.37426 0.03768 0.0
O202 O 0.90425 0.39704 0.03417 0.0
O203 O 0.91366 0.461 0.98938 0.0
O204 O 0.9648 0.518 0.09716 0.0
O205 O 0.96181 0.48596 0.984 0.0
O206 O 0.98821 0.52485 0.04899 0.0
C207 C 0.87769 0.46855 0.09391 0.0
C208 C 0.04071 0.43408 0.02646 0.0
C209 C 0.92208 0.37214 0.03352 0.0
C210 C 0.9788 0.41558 0.13131 0.0
C211 C 0.93436 0.47675 0.97252 0.0
C212 C 0.97883 0.53596 0.07645 0.0
O213 O 0.87725 0.46364 0.06332 0.0
O214 O 0.13274 0.92319 0.4883 0.0
Zn215 Zn 0.11342 0.96588 0.47754 0.0
O216 O 0.07152 0.9583 0.45776 0.0
Zn217 Zn 0.07527 0.96669 0.41193 0.0
Zn218 Zn 0.05682 0.91378 0.46559 0.0
Zn219 Zn 0.04043 0.98805 0.47658 0.0
O220 O 0.0528 0.00737 0.40133 0.0
O221 O 0.03312 0.02654 0.44789 0.0
O222 O 0.14541 0.98616 0.44705 0.0
O223 O 0.12173 0.97684 0.39935 0.0
O224 O 0.0571 0.92931 0.38507 0.0
O225 O 0.04821 0.89175 0.42218 0.0
O226 O 0.01293 0.91334 0.48911 0.0
O227 O 0.10897 0.99288 0.51834 0.0
O228 O 0.99817 0.96461 0.48306 0.0
O229 O 0.05617 0.00386 0.52034 0.0
C230 C 0.12198 0.89442 0.4921 0.0
C231 C 0.03884 0.02953 0.41776 0.0
C232 C 0.04825 0.90077 0.39284 0.0
C233 C 0.146 0.98652 0.41625 0.0
C234 C 0.99152 0.93544 0.49039 0.0
C235 C 0.0845 0.00517 0.53269 0.0
O236 O 0.09215 0.88698 0.48705 0.0
O237 O 0.99429 0.6163 0.41449 0.0
Zn238 Zn 0.98284 0.59697 0.45693 0.0
O239 O 0.96605 0.55367 0.45048 0.0
Zn240 Zn 0.92432 0.54853 0.4717 0.0
Zn241 Zn 0.96086 0.54503 0.40466 0.0
Zn242 Zn 0.99673 0.52431 0.46878 0.0
O243 O 0.92775 0.51956 0.51017 0.0
O244 O 0.9809 0.51039 0.51308 0.0
O245 O 0.94936 0.62593 0.47612 0.0
O246 O 0.9085 0.59214 0.48752 0.0
O247 O 0.88983 0.53308 0.44007 0.0
O248 O 0.91327 0.54629 0.39344 0.0
O249 O 0.97579 0.49982 0.39482 0.0
O250 O 0.02432 0.59755 0.48225 0.0
O251 O 1.00081 0.48468 0.43968 0.0
O252 O 0.04033 0.5468 0.47351 0.0
C253 C 0.99506 0.60629 0.3852 0.0
C254 C 0.95223 0.50824 0.52474 0.0
C255 C 0.88823 0.53818 0.40978 0.0
C256 C 0.92087 0.62059 0.48691 0.0
C257 C 0.99092 0.47877 0.4109 0.0
C258 C 0.04621 0.57609 0.48218 0.0
O259 O 0.98478 0.57799 0.37707 0.0
O260 O 0.43036 0.9643 0.6152 0.0
Zn261 Zn 0.47598 0.95611 0.59845 0.0
O262 O 0.47376 0.94272 0.553 0.0
Zn263 Zn 0.49164 0.89946 0.54716 0.0
Zn264 Zn 0.42936 0.94242 0.53773 0.0
Zn265 Zn 0.49823 0.97387 0.52766 0.0
O266 O 0.53658 0.90317 0.52734 0.0
O267 O 0.54249 0.95604 0.51836 0.0
O268 O 0.4948 0.92064 0.62616 0.0
O269 O 0.49688 0.87907 0.59103 0.0
O270 O 0.46208 0.8699 0.51965 0.0
O271 O 0.41713 0.89899 0.52006 0.0
O272 O 0.4245 0.96882 0.49791 0.0
O273 O 0.50145 0.99834 0.60379 0.0
O274 O 0.47533 0.98276 0.48535 0.0
O275 O 0.50569 0.01541 0.55315 0.0
C276 C 0.40198 0.96227 0.60286 0.0
C277 C 0.55365 0.92746 0.51838 0.0
C278 C 0.43232 0.87346 0.51218 0.0
C279 C 0.49949 0.89068 0.6198 0.0
C280 C 0.44525 0.98049 0.47825 0.0
C281 C 0.50898 0.0202 0.58355 0.0
O282 O 0.39763 0.95424 0.57321 0.0
O283 O 0.62375 0.53859 0.61417 0.0
Zn284 Zn 0.57566 0.53676 0.606 0.0
O285 O 0.56588 0.55544 0.56467 0.0
Zn286 Zn 0.5504 0.59867 0.5735 0.0
Zn287 Zn 0.6059 0.55685 0.53968 0.0
Zn288 Zn 0.53295 0.52989 0.54079 0.0
O289 O 0.50581 0.60349 0.55619 0.0
O290 O 0.48941 0.55319 0.5431 0.0
O291 O 0.55449 0.56016 0.6439 0.0
O292 O 0.54285 0.60651 0.62069 0.0
O293 O 0.58168 0.63292 0.55773 0.0
O294 O 0.61792 0.60318 0.53094 0.0
O295 O 0.6006 0.53398 0.49654 0.0
O296 O 0.5613 0.49025 0.60404 0.0
O297 O 0.54733 0.52367 0.49339 0.0
O298 O 0.52884 0.48508 0.56095 0.0
C299 C 0.64793 0.53768 0.59495 0.0
C300 C 0.48345 0.58313 0.54844 0.0
C301 C 0.60718 0.63054 0.54039 0.0
C302 C 0.54369 0.58888 0.6455 0.0
C303 C 0.57568 0.52423 0.48068 0.0
C304 C 0.54269 0.47319 0.58559 0.0
O305 O 0.64441 0.54007 0.56446 0.0
O306 O 0.63469 0.4008 0.9621 0.0
Zn307 Zn 0.6194 0.44703 0.96281 0.0
O308 O 0.57431 0.44926 0.94975 0.0
Zn309 Zn 0.57357 0.46656 0.90655 0.0
Zn310 Zn 0.5567 0.40543 0.94973 0.0
Zn311 Zn 0.54937 0.47721 0.9791 0.0
O312 O 0.55933 0.51347 0.90793 0.0
O313 O 0.54166 0.52115 0.95852 0.0
O314 O 0.65014 0.46943 0.93218 0.0
O315 O 0.61877 0.46634 0.88853 0.0
O316 O 0.54788 0.43758 0.87533 0.0
O317 O 0.54605 0.3924 0.90388 0.0
O318 O 0.51606 0.40341 0.97694 0.0
O319 O 0.6233 0.4635 0.00853 0.0
O320 O 0.50628 0.45489 0.99074 0.0
O321 O 0.57495 0.48391 0.02107 0.0
C322 C 0.61981 0.3737 0.96439 0.0
C323 C 0.54751 0.5317 0.93019 0.0
C324 C 0.54219 0.40723 0.87747 0.0
C325 C 0.64657 0.47007 0.9016 0.0
C326 C 0.49812 0.42487 0.99014 0.0
C327 C 0.60398 0.47681 0.02878 0.0
O328 O 0.5889 0.37187 0.96386 0.0
O329 O 0.4889 0.10615 0.89127 0.0
Zn330 Zn 0.48296 0.10409 0.93918 0.0
O331 O 0.457 0.06551 0.94958 0.0
Zn332 Zn 0.41628 0.08033 0.968 0.0
Zn333 Zn 0.44702 0.0404 0.91032 0.0
Zn334 Zn 0.48016 0.03856 0.98055 0.0
O335 O 0.41586 0.07301 0.01565 0.0
O336 O 0.45767 0.04084 0.02477 0.0
O337 O 0.46043 0.14674 0.95071 0.0
O338 O 0.41089 0.12745 0.9608 0.0
O339 O 0.37669 0.0603 0.94687 0.0
O340 O 0.39932 0.03598 0.90436 0.0
O341 O 0.46297 0.99481 0.91336 0.0
O342 O 0.52753 0.10146 0.9587 0.0
O343 O 0.48292 0.99154 0.96329 0.0
O344 O 0.52635 0.056 0.98695 0.0
C345 C 0.47943 0.08916 0.86697 0.0
C346 C 0.43311 0.05674 0.03484 0.0
C347 C 0.37432 0.04423 0.92039 0.0
C348 C 0.43019 0.15105 0.95554 0.0
C349 C 0.47551 0.97851 0.93587 0.0
C350 C 0.54134 0.08107 0.97667 0.0
O351 O 0.46305 0.06298 0.8701 0.0
H352 H 0.04184 0.15775 0.33903 0.0
H353 H 0.95618 0.1778 0.39563 0.0
H354 H 0.96167 0.12577 0.4231 0.0
H355 H 0.99172 0.07444 0.43068 0.0
H356 H 0.07462 0.05459 0.36951 0.0
H357 H 0.06927 0.10669 0.34406 0.0
C358 C 0.0245 0.15087 0.35761 0.0
C359 C 0.99905 0.17163 0.36586 0.0
C360 C 0.02725 0.12087 0.37227 0.0
C361 C 0.97615 0.16213 0.38919 0.0
C362 C 0.9793 0.13247 0.4048 0.0
C363 C 0.00844 0.08162 0.41172 0.0
C364 C 0.03349 0.06071 0.40198 0.0
C365 C 0.00485 0.1116 0.39652 0.0
C366 C 0.05493 0.07009 0.37723 0.0
C367 C 0.05205 0.09997 0.36275 0.0
H368 H 0.98232 0.34278 0.34027 0.0
H369 H 0.06973 0.32716 0.39467 0.0
H370 H 0.06576 0.38179 0.41925 0.0
H371 H 0.03719 0.43422 0.42438 0.0
H372 H 0.95247 0.44973 0.36549 0.0
H373 H 0.95576 0.39482 0.34328 0.0
C374 C 1.0003 0.35115 0.35786 0.0
C375 C 0.02588 0.33091 0.36628 0.0
C376 C 0.99848 0.38263 0.37074 0.0
C377 C 0.04962 0.34234 0.3882 0.0
C378 C 0.04738 0.37351 0.40211 0.0
C379 C 0.01955 0.4255 0.40665 0.0
C380 C 0.9946 0.44597 0.39662 0.0
C381 C 0.02192 0.39394 0.39343 0.0
C382 C 0.97204 0.43455 0.37342 0.0
C383 C 0.97376 0.4031 0.36084 0.0
H384 H 0.0033 0.82568 0.11113 0.0
H385 H 0.10304 0.82512 0.14328 0.0
H386 H 0.11266 0.87801 0.11938 0.0
H387 H 0.09126 0.92668 0.09449 0.0
H388 H 0.99259 0.92708 0.05995 0.0
H389 H 0.98384 0.87179 0.07967 0.0
C390 C 0.02729 0.83692 0.11241 0.0
C391 C 0.05233 0.82168 0.12929 0.0
C392 C 0.03264 0.86738 0.09862 0.0
C393 C 0.08337 0.8363 0.13043 0.0
C394 C 0.08883 0.86667 0.117 0.0
C395 C 0.06793 0.91446 0.09109 0.0
C396 C 0.04236 0.93082 0.07644 0.0
C397 C 0.0634 0.88277 0.10192 0.0
C398 C 0.01245 0.91481 0.07141 0.0
C399 C 0.0075 0.88334 0.08271 0.0
H400 H 0.02016 0.68034 0.10898 0.0
H401 H 0.92563 0.67939 0.15438 0.0
H402 H 0.91565 0.62416 0.13386 0.0
H403 H 0.93634 0.57426 0.1082 0.0
H404 H 0.02994 0.57565 0.06114 0.0
H405 H 0.03794 0.63269 0.07734 0.0
C406 C 0.99711 0.66826 0.11384 0.0
C407 C 0.9738 0.68377 0.13346 0.0
C408 C 0.99169 0.63646 0.10223 0.0
C409 C 0.94392 0.66802 0.13928 0.0
C410 C 0.93834 0.63631 0.12785 0.0
C411 C 0.95843 0.58717 0.10143 0.0
C412 C 0.98287 0.5708 0.08415 0.0
C413 C 0.9625 0.61998 0.11025 0.0
C414 C 0.01099 0.58781 0.07471 0.0
C415 C 0.01552 0.62035 0.08394 0.0
H416 H 0.37583 0.07702 0.17501 0.0
H417 H 0.41605 0.98222 0.18704 0.0
H418 H 0.44054 0.98448 0.13306 0.0
H419 H 0.44571 0.01124 0.08023 0.0
H420 H 0.40097 0.10399 0.06754 0.0
H421 H 0.38312 0.10468 0.12377 0.0
C422 C 0.39061 0.05719 0.16614 0.0
C423 C 0.39426 0.02958 0.18502 0.0
C424 C 0.40336 0.05806 0.13463 0.0
C425 C 0.41296 0.00379 0.17294 0.0
C426 C 0.4268 0.00499 0.14201 0.0
C427 C 0.43236 0.0317 0.08994 0.0
C428 C 0.42444 0.05735 0.06964 0.0
C429 C 0.42138 0.03162 0.12225 0.0
C430 C 0.40701 0.0837 0.08251 0.0
C431 C 0.39688 0.08422 0.11473 0.0
H432 H 0.66285 0.46793 0.16832 0.0
H433 H 0.60759 0.55462 0.18449 0.0
H434 H 0.58665 0.55037 0.12876 0.0
H435 H 0.58573 0.52223 0.0747 0.0
H436 H 0.64619 0.43872 0.05928 0.0
H437 H 0.66357 0.44161 0.11543 0.0
C438 C 0.64579 0.48567 0.15988 0.0
C439 C 0.63621 0.51117 0.18061 0.0
C440 C 0.63514 0.48381 0.12778 0.0
C441 C 0.61497 0.53454 0.169 0.0
C442 C 0.60315 0.53216 0.13716 0.0
C443 C 0.6027 0.50477 0.08375 0.0
C444 C 0.61472 0.48035 0.06281 0.0
C445 C 0.61333 0.50699 0.11618 0.0
C446 C 0.63686 0.45796 0.07474 0.0
C447 C 0.64668 0.45944 0.10693 0.0
H448 H 0.40577 0.01922 0.3366 0.0
H449 H 0.36579 0.92185 0.33762 0.0
H450 H 0.38601 0.91515 0.39244 0.0
H451 H 0.41224 0.93777 0.44117 0.0
H452 H 0.45605 0.03322 0.43997 0.0
H453 H 0.43702 0.04007 0.38411 0.0
C454 C 0.40187 0.9964 0.34869 0.0
C455 C 0.38411 0.97113 0.33305 0.0
C456 C 0.41383 0.99258 0.38027 0.0
C457 C 0.37947 0.94163 0.34895 0.0
C458 C 0.39081 0.93785 0.38043 0.0
C459 C 0.4175 0.96011 0.42863 0.0
C460 C 0.43478 0.9853 0.44463 0.0
C461 C 0.40744 0.96333 0.39649 0.0
C462 C 0.44239 0.01375 0.42806 0.0
C463 C 0.43158 0.01757 0.39621 0.0
H464 H 0.60804 0.52524 0.33223 0.0
H465 H 0.65704 0.43755 0.35707 0.0
H466 H 0.63509 0.4412 0.41193 0.0
H467 H 0.60712 0.47286 0.45473 0.0
H468 H 0.55573 0.55879 0.42962 0.0
H469 H 0.57309 0.55226 0.37304 0.0
C470 C 0.6134 0.50662 0.3495 0.0
C471 C 0.63443 0.48134 0.34062 0.0
C472 C 0.6004 0.50869 0.38105 0.0
C473 C 0.64091 0.45724 0.36319 0.0
C474 C 0.62852 0.45941 0.39469 0.0
C475 C 0.59908 0.48958 0.43659 0.0
C476 C 0.58014 0.51616 0.44605 0.0
C477 C 0.60898 0.48549 0.40415 0.0
C478 C 0.57 0.53794 0.42262 0.0
C479 C 0.58016 0.53434 0.39039 0.0
H480 H 0.17981 0.40198 0.96897 0.0
H481 H 0.18665 0.35496 0.06111 0.0
H482 H 0.13286 0.37346 0.07594 0.0
H483 H 0.08256 0.40043 0.06217 0.0
H484 H 0.07538 0.45091 0.97229 0.0
H485 H 0.13044 0.43391 0.95727 0.0
C486 C 0.1696 0.39609 0.99237 0.0
C487 C 0.18735 0.37693 0.01376 0.0
C488 C 0.13847 0.40729 0.00115 0.0
C489 C 0.17378 0.36973 0.04414 0.0
C490 C 0.14285 0.38017 0.05267 0.0
C491 C 0.09312 0.40784 0.03934 0.0
C492 C 0.07486 0.42654 0.0182 0.0
C493 C 0.12481 0.39854 0.03125 0.0
C494 C 0.08901 0.43647 0.98896 0.0
C495 C 0.12043 0.42665 0.98034 0.0
H496 H 0.17608 0.64697 0.52021 0.0
H497 H 0.20142 0.61729 0.4227 0.0
H498 H 0.15006 0.58653 0.41804 0.0
H499 H 0.09639 0.57141 0.44074 0.0
H500 H 0.06975 0.60646 0.53596 0.0
H501 H 0.1237 0.63149 0.54291 0.0
C502 C 0.17063 0.63348 0.498 0.0
C503 C 0.19252 0.63429 0.47183 0.0
C504 C 0.14094 0.61679 0.49527 0.0
C505 C 0.18486 0.61707 0.44311 0.0
C506 C 0.15559 0.59948 0.4405 0.0
C507 C 0.10285 0.58397 0.4632 0.0
C508 C 0.07974 0.58682 0.48811 0.0
C509 C 0.13327 0.59955 0.4663 0.0
C510 C 0.08758 0.60382 0.51679 0.0
C511 C 0.11823 0.61821 0.52062 0.0
H512 H 0.84147 0.90502 0.49141 0.0
H513 H 0.86746 0.85167 0.57585 0.0
H514 H 0.92399 0.87043 0.57076 0.0
H515 H 0.96705 0.89804 0.5388 0.0
H516 H 0.93952 0.95405 0.45657 0.0
H517 H 0.88268 0.93813 0.46407 0.0
C518 C 0.85941 0.89812 0.5091 0.0
C519 C 0.85046 0.87698 0.53386 0.0
C520 C 0.8917 0.909 0.50603 0.0
C521 C 0.87378 0.86824 0.55675 0.0
C522 C 0.90617 0.87863 0.55361 0.0
C523 C 0.94846 0.9068 0.52274 0.0
C524 C 0.95732 0.92675 0.49692 0.0
C525 C 0.91559 0.89828 0.52777 0.0
C526 C 0.93314 0.93854 0.47654 0.0
C527 C 0.90068 0.92948 0.4808 0.0
H528 H 0.35124 0.65368 0.57292 0.0
H529 H 0.32282 0.59631 0.48908 0.0
H530 H 0.37484 0.56827 0.48987 0.0
H531 H 0.43102 0.56454 0.51105 0.0
H532 H 0.46014 0.62685 0.59137 0.0
H533 H 0.40561 0.64842 0.5953 0.0
C534 C 0.35609 0.63438 0.55542 0.0
C535 C 0.33321 0.62677 0.53125 0.0
C536 C 0.3866 0.61972 0.55497 0.0
C537 C 0.34009 0.60234 0.50812 0.0
C538 C 0.36991 0.58652 0.50839 0.0
C539 C 0.42521 0.58264 0.52948 0.0
C540 C 0.44963 0.59442 0.55055 0.0
C541 C 0.39381 0.59574 0.5311 0.0
C542 C 0.44189 0.61787 0.57441 0.0
C543 C 0.41065 0.6301 0.57686 0.0
H544 H 0.50108 0.67387 0.90219 0.0
H545 H 0.5986 0.68114 0.86416 0.0
H546 H 0.60908 0.62578 0.88043 0.0
H547 H 0.58929 0.57367 0.90178 0.0
H548 H 0.49356 0.56722 0.9437 0.0
H549 H 0.48351 0.62367 0.92953 0.0
C550 C 0.52482 0.66354 0.89801 0.0
C551 C 0.54895 0.68173 0.88182 0.0
C552 C 0.53082 0.6316 0.90768 0.0
C553 C 0.57962 0.66793 0.87673 0.0
C554 C 0.58556 0.63608 0.88576 0.0
C555 C 0.56628 0.58474 0.90787 0.0
C556 C 0.54195 0.56625 0.92323 0.0
C557 C 0.56112 0.61744 0.90056 0.0
C558 C 0.51252 0.58097 0.93167 0.0
C559 C 0.50681 0.61321 0.92358 0.0
H560 H 0.52228 0.83643 0.9033 0.0
H561 H 0.42506 0.82914 0.86455 0.0
H562 H 0.41399 0.884 0.88414 0.0
H563 H 0.4334 0.93585 0.90791 0.0
H564 H 0.52899 0.94285 0.94996 0.0
H565 H 0.53927 0.88636 0.93363 0.0
C566 C 0.4985 0.84667 0.89963 0.0
C567 C 0.47463 0.82869 0.8822 0.0
C568 C 0.49214 0.87832 0.91125 0.0
C569 C 0.44386 0.84227 0.87791 0.0
C570 C 0.43756 0.8738 0.88891 0.0
C571 C 0.45636 0.92484 0.91376 0.0
C572 C 0.48059 0.94349 0.92971 0.0
C573 C 0.46175 0.8923 0.90489 0.0
C574 C 0.51003 0.92891 0.93766 0.0
C575 C 0.51591 0.89669 0.92821 0.0
H576 H 0.55308 0.33015 0.6315 0.0
H577 H 0.44943 0.33074 0.61605 0.0
H578 H 0.45414 0.38525 0.59364 0.0
H579 H 0.4877 0.43475 0.58289 0.0
H580 H 0.59035 0.43382 0.60371 0.0
H581 H 0.58606 0.37739 0.61946 0.0
C582 C 0.53143 0.34188 0.62288 0.0
C583 C 0.50092 0.32633 0.62554 0.0
C584 C 0.53418 0.37339 0.61121 0.0
C585 C 0.47324 0.34215 0.61431 0.0
C586 C 0.47592 0.37337 0.60162 0.0
C587 C 0.50906 0.42192 0.59051 0.0
C588 C 0.53928 0.43834 0.5923 0.0
C589 C 0.50623 0.38955 0.60061 0.0
C590 C 0.56681 0.4217 0.60245 0.0
C591 C 0.5644 0.38945 0.6114 0.0
H592 H 0.55864 0.14566 0.65884 0.0
H593 H 0.51087 0.19117 0.57949 0.0
H594 H 0.50152 0.13811 0.55298 0.0
H595 H 0.50157 0.07857 0.55569 0.0
H596 H 0.54297 0.03326 0.6389 0.0
H597 H 0.56012 0.08628 0.6608 0.0
C598 C 0.54709 0.14389 0.63526 0.0
C599 C 0.53608 0.17207 0.62062 0.0
C600 C 0.54007 0.11329 0.62131 0.0
C601 C 0.52002 0.16967 0.59075 0.0
C602 C 0.51442 0.13938 0.57583 0.0
C603 C 0.51471 0.08034 0.57841 0.0
C604 C 0.52096 0.05211 0.59571 0.0
C605 C 0.52348 0.11097 0.59137 0.0
C606 C 0.53766 0.0547 0.6253 0.0
C607 C 0.54756 0.08498 0.63776 0.0
H608 H 0.92766 0.48964 0.67281 0.0
H609 H 0.85715 0.42023 0.63525 0.0
H610 H 0.87739 0.42836 0.58038 0.0
H611 H 0.90997 0.46103 0.54247 0.0
H612 H 0.98284 0.5278 0.57988 0.0
H613 H 0.96713 0.5148 0.63544 0.0
C614 C 0.91735 0.47571 0.65267 0.0
C615 C 0.89077 0.45464 0.65799 0.0
C616 C 0.92925 0.48036 0.62115 0.0
C617 C 0.87772 0.4365 0.63179 0.0
C618 C 0.88907 0.44137 0.60034 0.0
C619 C 0.92283 0.47209 0.56289 0.0
C620 C 0.94724 0.49547 0.55738 0.0
C621 C 0.91401 0.4641 0.59464 0.0
C622 C 0.96401 0.50962 0.58376 0.0
C623 C 0.95491 0.50235 0.61545 0.0
H624 H 0.10318 0.0157 0.68181 0.0
H625 H 0.18534 0.07434 0.65286 0.0
H626 H 0.16601 0.07307 0.59687 0.0
H627 H 0.13113 0.04659 0.55522 0.0
H628 H 0.0475 0.99022 0.58457 0.0
H629 H 0.06161 0.99957 0.64154 0.0
C630 C 0.11612 0.02914 0.66336 0.0
C631 C 0.14566 0.04482 0.67108 0.0
C632 C 0.10489 0.02821 0.63135 0.0
C633 C 0.16238 0.06229 0.6473 0.0
C634 C 0.15155 0.06122 0.61526 0.0
C635 C 0.11561 0.03717 0.57422 0.0
C636 C 0.08869 0.0174 0.56604 0.0
C637 C 0.12369 0.04295 0.60682 0.0
C638 C 0.06838 0.0055 0.59055 0.0
C639 C 0.07655 0.01067 0.62304 0.0
H640 H 0.90952 0.524 0.83016 0.0
H641 H 0.87295 0.42557 0.82038 0.0
H642 H 0.88691 0.41556 0.87633 0.0
H643 H 0.90657 0.43527 0.9292 0.0
H644 H 0.94699 0.53189 0.93905 0.0
H645 H 0.93431 0.54217 0.88218 0.0
C646 C 0.90508 0.50024 0.84014 0.0
C647 C 0.88999 0.47572 0.82098 0.0
C648 C 0.91339 0.49442 0.87256 0.0
C649 C 0.88456 0.44498 0.83436 0.0
C650 C 0.89231 0.43921 0.86654 0.0
C651 C 0.91249 0.45859 0.91885 0.0
C652 C 0.92709 0.48301 0.93826 0.0
C653 C 0.90611 0.4639 0.88603 0.0
C654 C 0.93546 0.51285 0.92449 0.0
C655 C 0.92827 0.51869 0.89202 0.0
H656 H 0.17173 0.9629 0.83898 0.0
H657 H 0.08685 0.00251 0.79503 0.0
H658 H 0.06232 0.01141 0.84874 0.0
H659 H 0.06843 0.01391 0.90846 0.0
H660 H 0.15724 0.98094 0.95111 0.0
H661 H 0.17698 0.96338 0.89792 0.0
C662 C 0.14738 0.97245 0.84128 0.0
C663 C 0.13056 0.98119 0.81341 0.0
C664 C 0.13456 0.97928 0.87208 0.0
C665 C 0.0997 0.99485 0.81635 0.0
C666 C 0.08594 1.00027 0.84701 0.0
C667 C 0.09186 0.00243 0.90601 0.0
C668 C 0.11144 0.99874 0.93353 0.0
C669 C 0.10361 0.99351 0.8751 0.0
C670 C 0.14192 0.98423 0.93017 0.0
C671 C 0.15316 0.97411 0.89981 0.0
H672 H 0.70381 0.90674 0.52454 0.0
H673 H 0.68322 0.84969 0.43815 0.0
H674 H 0.62675 0.86703 0.4395 0.0
H675 H 0.58161 0.89281 0.46958 0.0
H676 H 0.60298 0.95225 0.55404 0.0
H677 H 0.66074 0.93964 0.54927 0.0
C678 C 0.68713 0.89881 0.50556 0.0
C679 C 0.69752 0.8768 0.48148 0.0
C680 C 0.65473 0.90885 0.50651 0.0
C681 C 0.67581 0.86681 0.45687 0.0
C682 C 0.64341 0.87641 0.45783 0.0
C683 C 0.59914 0.90332 0.48651 0.0
C684 C 0.58842 0.92303 0.5123 0.0
C685 C 0.63234 0.89649 0.4832 0.0
C686 C 0.61102 0.93693 0.53406 0.0
C687 C 0.64393 0.92969 0.53137 0.0
H688 H 0.68243 0.11105 0.0303 0.0
H689 H 0.69873 0.1288 0.92876 0.0
H690 H 0.64327 0.11188 0.91649 0.0
H691 H 0.5886 0.09702 0.93483 0.0
H692 H 0.57171 0.07592 0.03518 0.0
H693 H 0.62881 0.08916 0.04772 0.0
C694 C 0.67403 0.11063 0.00543 0.0
C695 C 0.69475 0.12166 0.98061 0.0
C696 C 0.64182 0.10075 0.99836 0.0
C697 C 0.68343 0.12069 0.94847 0.0
C698 C 0.65156 0.11117 0.94136 0.0
C699 C 0.59755 0.09515 0.95941 0.0
C700 C 0.5761 0.08612 0.98418 0.0
C701 C 0.63033 0.10207 0.96618 0.0
C702 C 0.58792 0.08304 0.0158 0.0
C703 C 0.62049 0.09064 0.02293 0.0
H704 H 0.37752 0.35078 0.04833 0.0
H705 H 0.32672 0.42569 0.99913 0.0
H706 H 0.37846 0.45324 0.98711 0.0
H707 H 0.43857 0.45221 0.98495 0.0
H708 H 0.48853 0.37279 0.02779 0.0
H709 H 0.43705 0.35083 0.04805 0.0
C710 C 0.3778 0.37366 0.03585 0.0
C711 C 0.34844 0.38656 0.02511 0.0
C712 C 0.40765 0.38821 0.0274 0.0
C713 C 0.34908 0.41561 0.00797 0.0
C714 C 0.37866 0.43117 1.00089 0.0
C715 C 0.43809 0.43044 0.99922 0.0
C716 C 0.46718 0.41413 0.00498 0.0
C717 C 0.40817 0.41716 0.0096 0.0
C718 C 0.46635 0.38564 0.023 0.0
C719 C 0.43695 0.3731 0.0346 0.0
H720 H 0.84757 0.0986 0.00768 0.0
H721 H 0.87959 0.15416 0.92591 0.0
H722 H 0.93501 0.13532 0.93308 0.0
H723 H 0.97553 0.10635 0.96545 0.0
H724 H 0.94298 0.04795 0.04475 0.0
H725 H 0.88682 0.06452 0.03586 0.0
C726 C 0.86658 0.10614 0.99109 0.0
C727 C 0.85938 0.1279 0.96639 0.0
C728 C 0.89845 0.09498 0.9952 0.0
C729 C 0.88431 0.13728 0.94501 0.0
C730 C 0.91614 0.12673 0.94926 0.0
C731 C 0.95599 0.09708 0.98048 0.0
C732 C 0.96319 0.07623 0.00586 0.0
C733 C 0.92366 0.10614 0.9747 0.0
C734 C 0.93783 0.06406 0.02509 0.0
C735 C 0.90578 0.07357 0.02003 0.0
H736 H 0.01874 0.15699 0.25287 0.0
H737 H 0.08935 0.22665 0.2186 0.0
H738 H 0.09821 0.19323 0.16981 0.0
H739 H 0.08393 0.1454 0.13589 0.0
H740 H 0.01702 0.07334 0.17206 0.0
H741 H 0.00841 0.1065 0.22128 0.0
C742 C 0.03626 0.16464 0.23478 0.0
C743 C 0.05323 0.19426 0.23904 0.0
C744 C 0.04158 0.14505 0.20716 0.0
C745 C 0.07617 0.20384 0.2158 0.0
C746 C 0.08105 0.18487 0.18786 0.0
C747 C 0.06743 0.13709 0.15461 0.0
C748 C 0.0506 0.10743 0.15036 0.0
C749 C 0.06353 0.1557 0.18309 0.0
C750 C 0.02994 0.09629 0.17491 0.0
C751 C 0.02508 0.1152 0.20294 0.0
H752 H 0.00698 0.34458 0.26123 0.0
H753 H 0.93384 0.27914 0.22164 0.0
H754 H 0.92672 0.31471 0.17554 0.0
H755 H 0.94474 0.36187 0.14457 0.0
H756 H 0.01557 0.42907 0.18517 0.0
H757 H 0.02034 0.39529 0.23321 0.0
C758 C 0.98923 0.33837 0.24263 0.0
C759 C 0.97121 0.3092 0.24441 0.0
C760 C 0.98521 0.35898 0.21646 0.0
C761 C 0.94789 0.30152 0.22066 0.0
C762 C 0.94403 0.3217 0.19426 0.0
C763 C 0.96112 0.3691 0.16407 0.0
C764 C 0.98033 0.39735 0.16137 0.0
C765 C 0.96312 0.35002 0.19158 0.0
C766 C 1.00086 0.40717 0.18687 0.0
C767 C 0.00355 0.38789 0.21417 0.0
H768 H 0.02895 0.78558 0.29226 0.0
H769 H 0.97662 0.85825 0.24135 0.0
H770 H 0.98682 0.89745 0.28595 0.0
H771 H 0.01369 0.9115 0.33816 0.0
H772 H 0.06209 0.83686 0.3904 0.0
H773 H 0.05029 0.79772 0.34662 0.0
C774 C 0.01946 0.80992 0.29123 0.0
C775 C 0.00229 0.81931 0.26377 0.0
C776 C 0.02494 0.83187 0.31703 0.0
C777 C 0.98978 0.85066 0.2625 0.0
C778 C 0.9958 0.87302 0.28784 0.0
C779 C 0.02148 0.88662 0.33989 0.0
C780 C 0.03908 0.87706 0.36715 0.0
C781 C 0.01386 0.86403 0.31498 0.0
C782 C 0.04857 0.84469 0.36956 0.0
C783 C 0.0419 0.82236 0.34455 0.0
H784 H 0.01925 0.7223 0.29168 0.0
H785 H 0.05516 0.64618 0.22915 0.0
H786 H 0.04595 0.60653 0.27204 0.0
H787 H 0.02318 0.59339 0.32616 0.0
H788 H 0.98998 0.67138 0.38853 0.0
H789 H 0.00272 0.71051 0.34699 0.0
C790 C 0.02566 0.6971 0.28779 0.0
C791 C 0.03783 0.68693 0.25766 0.0
C792 C 0.02041 0.67482 0.31238 0.0
C793 C 0.04606 0.65438 0.2525 0.0
C794 C 0.0405 0.63177 0.27686 0.0
C795 C 0.01899 0.61897 0.33061 0.0
C796 C 0.00537 0.62943 0.36023 0.0
C797 C 0.02694 0.64162 0.30669 0.0
C798 C 1.00046 0.6627 0.36595 0.0
C799 C 0.00766 0.68513 0.3422 0.0
H800 H 0.28745 0.0127 0.15809 0.0
H801 H 0.2351 0.94026 0.21188 0.0
H802 H 0.18815 0.94526 0.1759 0.0
H803 H 0.16032 0.97468 0.13263 0.0
H804 H 0.21423 0.04499 0.07731 0.0
H805 H 0.26246 0.03627 0.11023 0.0
C806 C 0.26594 0.99758 0.16147 0.0
C807 C 0.26445 0.97633 0.18758 0.0
C808 C 0.23932 1.00049 0.14066 0.0
C809 C 0.23672 0.95663 0.19174 0.0
C810 C 0.20984 0.95972 0.17138 0.0
C811 C 0.18278 0.98777 0.12762 0.0
C812 C 0.18369 0.01077 0.10294 0.0
C813 C 0.21057 0.98225 0.14633 0.0
C814 C 0.21299 0.02721 0.09623 0.0
C815 C 0.24051 0.02233 0.11511 0.0
H816 H 0.7459 0.49883 0.16625 0.0
H817 H 0.78392 0.42814 0.23101 0.0
H818 H 0.8312 0.42087 0.19577 0.0
H819 H 0.86317 0.43692 0.14829 0.0
H820 H 0.82384 0.50428 0.08099 0.0
H821 H 0.77539 0.51054 0.11533 0.0
C822 C 0.76447 0.48167 0.17244 0.0
C823 C 0.76168 0.46426 0.20133 0.0
C824 C 0.79129 0.47718 0.15173 0.0
C825 C 0.78555 0.44174 0.2089 0.0
C826 C 0.81264 0.43771 0.18885 0.0
C827 C 0.84385 0.45284 0.1411 0.0
C828 C 0.84709 0.4705 0.1125 0.0
C829 C 0.81598 0.45566 0.16051 0.0
C830 C 0.82178 0.49056 0.10299 0.0
C831 C 0.79422 0.49418 0.12266 0.0
H832 H 0.28459 0.00507 0.35501 0.0
H833 H 0.22991 0.05749 0.28507 0.0
H834 H 0.18028 0.05004 0.31734 0.0
H835 H 0.15175 0.02297 0.36248 0.0
H836 H 0.2076 0.97311 0.43368 0.0
H837 H 0.25767 0.98521 0.40404 0.0
C838 C 0.26192 0.01564 0.34744 0.0
C839 C 0.26061 0.03187 0.318 0.0
C840 C 0.23375 0.01119 0.36603 0.0
C841 C 0.23133 0.04533 0.30801 0.0
C842 C 0.20297 0.0407 0.32623 0.0
C843 C 0.17498 0.01508 0.37155 0.0
C844 C 0.17612 0.99676 0.39982 0.0
C845 C 0.20374 0.02275 0.35475 0.0
C846 C 0.20626 0.98713 0.41184 0.0
C847 C 0.23483 0.994 0.39492 0.0
H848 H 0.75061 0.50572 0.35036 0.0
H849 H 0.77759 0.58502 0.28896 0.0
H850 H 0.82847 0.59292 0.31911 0.0
H851 H 0.86689 0.57431 0.36035 0.0
H852 H 0.83832 0.49657 0.42313 0.0
H853 H 0.78633 0.49079 0.39483 0.0
C854 C 0.76746 0.52502 0.34387 0.0
C855 C 0.76062 0.54462 0.31739 0.0
C856 C 0.79647 0.52932 0.36123 0.0
C857 C 0.78235 0.56977 0.30939 0.0
C858 C 0.81152 0.57406 0.32641 0.0
C859 C 0.84923 0.55612 0.36776 0.0
C860 C 0.85652 0.53548 0.39335 0.0
C861 C 0.81915 0.55345 0.35187 0.0
C862 C 0.83324 0.51254 0.40333 0.0
C863 C 0.80357 0.50925 0.3872 0.0
H864 H 0.18531 0.25941 0.00235 0.0
H865 H 0.25612 0.22121 0.0676 0.0
H866 H 0.22562 0.1698 0.06918 0.0
H867 H 0.17929 0.13546 0.05114 0.0
H868 H 0.10606 0.17528 0.98976 0.0
H869 H 0.13718 0.22636 0.98716 0.0
C870 C 0.19397 0.23985 0.01702 0.0
C871 C 0.22301 0.24397 0.0347 0.0
C872 C 0.17606 0.21064 0.01818 0.0
C873 C 0.23376 0.21864 0.05393 0.0
C874 C 0.21645 0.1892 0.05466 0.0
C875 C 0.17037 0.15528 0.03696 0.0
C876 C 0.14083 0.15156 0.0201 0.0
C877 C 0.18774 0.18485 0.03664 0.0
C878 C 0.12893 0.1776 0.0026 0.0
C879 C 0.14665 0.20675 0.00122 0.0
H880 H 0.23637 0.79486 0.48827 0.0
H881 H 0.17646 0.74664 0.55861 0.0
H882 H 0.13638 0.79003 0.55581 0.0
H883 H 0.11729 0.84089 0.53079 0.0
H884 H 0.18081 0.89041 0.46416 0.0
H885 H 0.22045 0.84754 0.46802 0.0
C886 C 0.21467 0.79409 0.50324 0.0
C887 C 0.20918 0.76768 0.52347 0.0
C888 C 0.19228 0.81932 0.50197 0.0
C889 C 0.18121 0.76695 0.543 0.0
C890 C 0.15823 0.79162 0.54121 0.0
C891 C 0.13991 0.84225 0.51736 0.0
C892 C 0.14603 0.86869 0.4971 0.0
C893 C 0.16328 0.81778 0.5204 0.0
C894 C 0.17559 0.8704 0.48004 0.0
C895 C 0.19827 0.84584 0.48213 0.0
H896 H 0.81723 0.72516 0.52528 0.0
H897 H 0.852 0.76587 0.43606 0.0
H898 H 0.89185 0.72272 0.43049 0.0
H899 H 0.91608 0.6732 0.45061 0.0
H900 H 0.87767 0.62901 0.53654 0.0
H901 H 0.83999 0.67408 0.54421 0.0
C902 C 0.8336 0.72453 0.50466 0.0
C903 C 0.83195 0.74859 0.48116 0.0
C904 C 0.85581 0.69928 0.50127 0.0
C905 C 0.85284 0.74742 0.45431 0.0
C906 C 0.87568 0.72292 0.45123 0.0
C907 C 0.89974 0.67376 0.47127 0.0
C908 C 0.8999 0.64841 0.49342 0.0
C909 C 0.87736 0.69879 0.47458 0.0
C910 C 0.87805 0.64862 0.51951 0.0
C911 C 0.85652 0.67423 0.52376 0.0
H912 H 0.32411 0.78521 0.44895 0.0
H913 H 0.37543 0.71278 0.50112 0.0
H914 H 0.41986 0.75137 0.51261 0.0
H915 H 0.43892 0.80816 0.51614 0.0
H916 H 0.38437 0.88168 0.46855 0.0
H917 H 0.34679 0.84057 0.44663 0.0
C918 C 0.34565 0.77773 0.46173 0.0
C919 C 0.34691 0.74641 0.47397 0.0
C920 C 0.37022 0.80053 0.46968 0.0
C921 C 0.37436 0.73689 0.49128 0.0
C922 C 0.39955 0.759 0.4981 0.0
C923 C 0.41928 0.81496 0.50031 0.0
C924 C 0.41406 0.8478 0.49435 0.0
C925 C 0.39703 0.79129 0.48872 0.0
C926 C 0.38848 0.85647 0.4739 0.0
C927 C 0.36699 0.83301 0.46132 0.0
H928 H 0.53018 0.65696 0.78174 0.0
H929 H 0.45135 0.70328 0.7333 0.0
H930 H 0.45914 0.66789 0.68557 0.0
H931 H 0.49308 0.62868 0.65562 0.0
H932 H 0.57048 0.58085 0.70495 0.0
H933 H 0.55838 0.61167 0.75473 0.0
C934 C 0.51429 0.65873 0.76093 0.0
C935 C 0.49044 0.68271 0.76067 0.0
C936 C 0.51891 0.63833 0.73381 0.0
C937 C 0.46973 0.68481 0.73392 0.0
C938 C 0.4744 0.66481 0.70661 0.0
C939 C 0.50692 0.6247 0.67747 0.0
C940 C 0.53294 0.60301 0.67668 0.0
C941 C 0.49961 0.64225 0.70594 0.0
C942 C 0.5504 0.59751 0.70511 0.0
C943 C 0.5436 0.61523 0.73345 0.0
H944 H 0.50249 0.78198 0.72477 0.0
H945 H 0.5644 0.8522 0.77388 0.0
H946 H 0.55969 0.88894 0.72806 0.0
H947 H 0.53523 0.90194 0.67491 0.0
H948 H 0.47718 0.82895 0.62471 0.0
H949 H 0.48312 0.79238 0.66992 0.0
C950 C 0.51521 0.80523 0.72524 0.0
C951 C 0.53356 0.81459 0.7526 0.0
C952 C 0.51288 0.82574 0.69867 0.0
C953 C 0.55025 0.84452 0.75292 0.0
C954 C 0.54737 0.86555 0.72684 0.0
C955 C 0.52408 0.87795 0.6739 0.0
C956 C 0.50553 0.86826 0.64663 0.0
C957 C 0.52833 0.8566 0.69975 0.0
C958 C 0.49159 0.83695 0.64538 0.0
C959 C 0.49489 0.81606 0.67126 0.0
H960 H 0.50751 0.33622 0.74484 0.0
H961 H 0.5864 0.27643 0.77526 0.0
H962 H 0.59247 0.3093 0.82485 0.0
H963 H 0.57461 0.35413 0.86 0.0
H964 H 0.4994 0.41739 0.82803 0.0
H965 H 0.49232 0.38398 0.77846 0.0
C966 C 0.52609 0.33054 0.76232 0.0
C967 C 0.54636 0.30385 0.75661 0.0
C968 C 0.52984 0.34995 0.79046 0.0
C969 C 0.57064 0.29693 0.77912 0.0
C970 C 0.57398 0.31558 0.80753 0.0
C971 C 0.55649 0.36041 0.84222 0.0
C972 C 0.53699 0.38761 0.84773 0.0
C973 C 0.55352 0.34191 0.81355 0.0
C974 C 0.51433 0.39625 0.82427 0.0
C975 C 0.51039 0.37723 0.79602 0.0
H976 H 0.52487 0.17015 0.74931 0.0
H977 H 0.4216 0.185 0.74136 0.0
H978 H 0.41173 0.14539 0.78393 0.0
H979 H 0.43323 0.11064 0.82699 0.0
H980 H 0.53672 0.10068 0.83712 0.0
H981 H 0.54588 0.13398 0.78951 0.0
C982 C 0.50008 0.16469 0.75659 0.0
C983 C 0.47399 0.18083 0.74233 0.0
C984 C 0.49474 0.14259 0.78134 0.0
C985 C 0.44212 0.17312 0.75207 0.0
C986 C 0.4365 0.15048 0.77638 0.0
C987 C 0.45766 0.11509 0.81804 0.0
C988 C 0.48435 0.10288 0.83485 0.0
C989 C 0.46269 0.13554 0.79161 0.0
C990 C 0.51597 0.10948 0.82401 0.0
C991 C 0.52115 0.1287 0.79706 0.0
H992 H 0.78579 0.49874 0.64486 0.0
H993 H 0.76284 0.56999 0.71883 0.0
H994 H 0.71254 0.58271 0.69044 0.0
H995 H 0.67239 0.56888 0.64779 0.0
H996 H 0.69678 0.4997 0.57236 0.0
H997 H 0.74939 0.49067 0.59809 0.0
C998 C 0.77009 0.51759 0.65431 0.0
C999 C 0.77775 0.53332 0.68391 0.0
C1000 C 0.74133 0.52464 0.63791 0.0
C1001 C 0.75748 0.5578 0.69593 0.0
C1002 C 0.72858 0.56477 0.67991 0.0
C1003 C 0.68942 0.55203 0.63694 0.0
C1004 C 0.6807 0.53445 0.60866 0.0
C1005 C 0.71979 0.54757 0.65146 0.0
C1006 C 0.70304 0.51324 0.59428 0.0
C1007 C 0.73302 0.5081 0.60897 0.0
H1008 H 0.29478 0.00485 0.70372 0.0
H1009 H 0.24109 0.92746 0.65543 0.0
H1010 H 0.28716 0.91797 0.61884 0.0
H1011 H 0.34285 0.932 0.60064 0.0
H1012 H 0.39765 0.00639 0.65235 0.0
H1013 H 0.35096 0.01692 0.68753 0.0
C1014 C 0.29315 0.98594 0.68512 0.0
C1015 C 0.26452 0.96706 0.68202 0.0
C1016 C 0.3199 0.9802 0.66479 0.0
C1017 C 0.26291 0.94227 0.65825 0.0
C1018 C 0.28918 0.93694 0.6373 0.0
C1019 C 0.34441 0.95062 0.61951 0.0
C1020 C 0.37347 0.96867 0.62373 0.0
C1021 C 0.31778 0.95584 0.64029 0.0
C1022 C 0.37549 0.99227 0.64865 0.0
C1023 C 0.34883 0.99829 0.66873 0.0
H1024 H 0.77929 0.48592 0.82713 0.0
H1025 H 0.73209 0.41646 0.76263 0.0
H1026 H 0.68382 0.41636 0.79745 0.0
H1027 H 0.65475 0.43733 0.84528 0.0
H1028 H 0.7033 0.50393 0.91167 0.0
H1029 H 0.75157 0.50417 0.87677 0.0
C1030 C 0.75845 0.47067 0.82078 0.0
C1031 C 0.759 0.45141 0.79228 0.0
C1032 C 0.7311 0.47053 0.841 0.0
C1033 C 0.73217 0.43137 0.78452 0.0
C1034 C 0.70456 0.4315 0.80428 0.0
C1035 C 0.67584 0.4521 0.85192 0.0
C1036 C 0.67544 0.47111 0.88057 0.0
C1037 C 0.70366 0.45128 0.83233 0.0
C1038 C 0.70311 0.4894 0.88951 0.0
C1039 C 0.73063 0.48946 0.86965 0.0
H1040 H 0.24758 0.06068 0.8398 0.0
H1041 H 0.28289 0.97288 0.79458 0.0
H1042 H 0.32614 0.97032 0.83468 0.0
H1043 H 0.35672 0.99573 0.87925 0.0
H1044 H 0.32127 0.08274 0.92584 0.0
H1045 H 0.27455 0.08237 0.88929 0.0
C1046 C 0.26475 0.04101 0.83893 0.0
C1047 C 0.2626 0.01734 0.81411 0.0
C1048 C 0.28919 0.03935 0.86244 0.0
C1049 C 0.28435 0.99148 0.81345 0.0
C1050 C 0.30901 0.98996 0.83635 0.0
C1051 C 0.33835 0.0142 0.88183 0.0
C1052 C 0.34247 0.03937 0.90485 0.0
C1053 C 0.31199 0.01408 0.86054 0.0
C1054 C 0.31846 0.06301 0.90832 0.0
C1055 C 0.29199 0.06304 0.88717 0.0
H1056 H 0.70758 0.73626 0.49555 0.0
H1057 H 0.69414 0.77029 0.59409 0.0
H1058 H 0.65214 0.72844 0.60214 0.0
H1059 H 0.62112 0.68057 0.58164 0.0
H1060 H 0.63847 0.6445 0.48453 0.0
H1061 H 0.67677 0.68926 0.47513 0.0
C1062 C 0.69535 0.73471 0.51877 0.0
C1063 C 0.70392 0.75635 0.54419 0.0
C1064 C 0.67182 0.71037 0.52333 0.0
C1065 C 0.68807 0.75379 0.5742 0.0
C1066 C 0.664 0.72997 0.57876 0.0
C1067 C 0.63289 0.68298 0.55827 0.0
C1068 C 0.62686 0.65967 0.53362 0.0
C1069 C 0.65585 0.70799 0.55354 0.0
C1070 C 0.64273 0.66238 0.5037 0.0
C1071 C 0.66467 0.68781 0.4984 0.0
H1072 H 0.68644 0.23904 0.98603 0.0
H1073 H 0.75426 0.27847 0.91692 0.0
H1074 H 0.7222 0.32781 0.91401 0.0
H1075 H 0.67588 0.36052 0.93272 0.0
H1076 H 0.60592 0.31938 0.99863 0.0
H1077 H 0.63787 0.26992 0.00139 0.0
C1078 C 0.69407 0.25836 0.97015 0.0
C1079 C 0.72279 0.25522 0.95185 0.0
C1080 C 0.67529 0.28641 0.96831 0.0
C1081 C 0.73218 0.28025 0.93111 0.0
C1082 C 0.71397 0.30854 0.92963 0.0
C1083 C 0.66775 0.34072 0.94777 0.0
C1084 C 0.6389 0.3437 0.96588 0.0
C1085 C 0.68572 0.31204 0.94843 0.0
C1086 C 0.62815 0.31766 0.98466 0.0
C1087 C 0.6464 0.28942 0.98621 0.0
H1088 H 0.36961 0.28722 0.98266 0.0
H1089 H 0.29817 0.24859 0.9155 0.0
H1090 H 0.33226 0.20143 0.9046 0.0
H1091 H 0.3782 0.16772 0.92079 0.0
H1092 H 0.45036 0.20676 0.98686 0.0
H1093 H 0.42032 0.25759 0.99156 0.0
C1094 C 0.36199 0.26886 0.96494 0.0
C1095 C 0.33138 0.2711 0.95003 0.0
C1096 C 0.38158 0.24181 0.9591 0.0
C1097 C 0.32173 0.24742 0.92703 0.0
C1098 C 0.34104 0.22031 0.92113 0.0
C1099 C 0.3876 0.18768 0.9357 0.0
C1100 C 0.41609 0.18359 0.95386 0.0
C1101 C 0.37034 0.21669 0.93802 0.0
C1102 C 0.42844 0.20952 0.97278 0.0
C1103 C 0.41119 0.23842 0.97554 0.0
H1104 H 0.86878 0.23107 0.00487 0.0
H1105 H 0.79427 0.26296 0.07115 0.0
H1106 H 0.82372 0.31454 0.08003 0.0
H1107 H 0.8675 0.35247 0.06386 0.0
H1108 H 0.94286 0.31958 0.99899 0.0
H1109 H 0.916 0.26627 0.99415 0.0
C1110 C 0.85945 0.24908 0.02185 0.0
C1111 C 0.82946 0.24355 0.03726 0.0
C1112 C 0.87619 0.27859 0.02635 0.0
C1113 C 0.81751 0.26673 0.05933 0.0
C1114 C 0.83409 0.29631 0.064 0.0
C1115 C 0.87792 0.33355 0.04865 0.0
C1116 C 0.90653 0.33991 0.03107 0.0
C1117 C 0.86283 0.30288 0.04672 0.0
C1118 C 0.92055 0.31515 0.01228 0.0
C1119 C 0.9053 0.28476 0.00964 0.0
loop_
_geom_bond_atom_site_label_1
_geom_bond_atom_site_label_2
_geom_bond_distance
_geom_bond_site_symmetry_2
_ccdc_geom_bond_type
C0 O2 1.247 . S
C0 O4 1.258 1_455 S
C1 O8 1.247 . S
C1 O9 1.258 1_655 S
O2 C0 1.247 . S
O2 Zn3 2.028 . S
Zn3 O2 2.028 . S
Zn3 O7 2.035 . S
Zn3 O9 2.035 . S
Zn3 O10 2.028 . S
O4 C0 1.258 1_655 S
O4 Zn5 2.035 . S
Zn5 O4 2.035 . S
Zn5 O6 2.028 . S
Zn5 O8 2.028 . S
Zn5 O11 2.035 . S
O6 Zn5 2.028 . S
O6 C12 1.247 . S
O7 Zn3 2.035 . S
O7 C12 1.258 1_455 S
O8 C1 1.247 . S
O8 Zn5 2.028 . S
O9 C1 1.258 1_455 S
O9 Zn3 2.035 . S
O10 Zn3 2.028 . S
O10 C13 1.247 . S
O11 Zn5 2.035 . S
O11 C13 1.258 1_655 S
C12 O6 1.247 . S
C12 O7 1.258 1_655 S
C13 O10 1.247 . S
C13 O11 1.258 1_455 S
C14 O16 1.247 . S
C14 O18 1.258 . S
C15 O22 1.247 1_455 S
C15 O23 1.258 . S
O16 C14 1.247 . S
O16 Zn17 2.028 . S
Zn17 O16 2.028 . S
Zn17 O21 2.035 . S
Zn17 O23 2.035 . S
Zn17 O24 2.028 . S
O18 C14 1.258 . S
O18 Zn19 2.035 1_455 S
Zn19 O18 2.035 1_655 S
Zn19 O20 2.028 . S
Zn19 O22 2.028 . S
Zn19 O25 2.035 1_655 S
O20 Zn19 2.028 . S
O20 C26 1.247 1_655 S
O21 Zn17 2.035 . S
O21 C26 1.258 . S
O22 C15 1.247 1_655 S
O22 Zn19 2.028 . S
O23 C15 1.258 . S
O23 Zn17 2.035 . S
O24 Zn17 2.028 . S
O24 C27 1.247 . S
O25 Zn19 2.035 1_455 S
O25 C27 1.258 . S
C26 O20 1.247 1_455 S
C26 O21 1.258 . S
C27 O24 1.247 . S
C27 O25 1.258 . S
C28 O30 1.247 1_545 S
C28 O32 1.258 . S
C29 O36 1.247 1_565 S
C29 O37 1.258 . S
O30 C28 1.247 1_565 S
O30 Zn31 2.028 . S
Zn31 O30 2.028 . S
Zn31 O35 2.035 . S
Zn31 O37 2.035 . S
Zn31 O38 2.028 . S
O32 C28 1.258 . S
O32 Zn33 2.035 . S
Zn33 O32 2.035 . S
Zn33 O34 2.028 . S
Zn33 O36 2.028 . S
Zn33 O39 2.035 . S
O34 Zn33 2.028 . S
O34 C40 1.247 1_545 S
O35 Zn31 2.035 . S
O35 C40 1.258 . S
O36 C29 1.247 1_545 S
O36 Zn33 2.028 . S
O37 C29 1.258 . S
O37 Zn31 2.035 . S
O38 Zn31 2.028 . S
O38 C41 1.247 1_565 S
O39 Zn33 2.035 . S
O39 C41 1.258 . S
C40 O34 1.247 1_565 S
C40 O35 1.258 . S
C41 O38 1.247 1_545 S
C41 O39 1.258 . S
C42 O44 1.247 . S
C42 O46 1.258 . S
C43 O50 1.247 . S
C43 O51 1.258 . S
O44 C42 1.247 . S
O44 Zn45 2.028 . S
Zn45 O44 2.028 . S
Zn45 O49 2.035 . S
Zn45 O51 2.035 . S
Zn45 O52 2.028 . S
O46 C42 1.258 . S
O46 Zn47 2.035 . S
Zn47 O46 2.035 . S
Zn47 O48 2.028 . S
Zn47 O50 2.028 . S
Zn47 O53 2.035 . S
O48 Zn47 2.028 . S
O48 C54 1.247 . S
O49 Zn45 2.035 . S
O49 C54 1.258 . S
O50 C43 1.247 . S
O50 Zn47 2.028 . S
O51 C43 1.258 . S
O51 Zn45 2.035 . S
O52 Zn45 2.028 . S
O52 C55 1.247 . S
O53 Zn47 2.035 . S
O53 C55 1.258 . S
C54 O48 1.247 . S
C54 O49 1.258 . S
C55 O52 1.247 . S
C55 O53 1.258 . S
C56 O58 1.247 1_554 S
C56 O60 1.258 . S
C57 O64 1.247 . S
C57 O65 1.258 1_554 S
O58 C56 1.247 1_556 S
O58 Zn59 2.028 . S
Zn59 O58 2.028 . S
Zn59 O63 2.035 . S
Zn59 O65 2.035 . S
Zn59 O66 2.028 . S
O60 C56 1.258 . S
O60 Zn61 2.035 . S
Zn61 O60 2.035 . S
Zn61 O62 2.028 . S
Zn61 O64 2.028 . S
Zn61 O67 2.035 . S
O62 Zn61 2.028 . S
O62 C68 1.247 . S
O63 Zn59 2.035 . S
O63 C68 1.258 1_556 S
O64 C57 1.247 . S
O64 Zn61 2.028 . S
O65 C57 1.258 1_556 S
O65 Zn59 2.035 . S
O66 Zn59 2.028 . S
O66 C69 1.247 1_556 S
O67 Zn61 2.035 . S
O67 C69 1.258 . S
C68 O62 1.247 . S
C68 O63 1.258 1_554 S
C69 O66 1.247 1_554 S
C69 O67 1.258 . S
C70 O72 1.247 . S
C70 O74 1.258 . S
C71 O78 1.247 . S
C71 O79 1.258 . S
O72 C70 1.247 . S
O72 Zn73 2.028 . S
Zn73 O72 2.028 . S
Zn73 O77 2.035 . S
Zn73 O79 2.035 . S
Zn73 O80 2.028 . S
O74 C70 1.258 . S
O74 Zn75 2.035 . S
Zn75 O74 2.035 . S
Zn75 O76 2.028 . S
Zn75 O78 2.028 . S
Zn75 O81 2.035 . S
O76 Zn75 2.028 . S
O76 C82 1.247 . S
O77 Zn73 2.035 . S
O77 C82 1.258 . S
O78 C71 1.247 . S
O78 Zn75 2.028 . S
O79 C71 1.258 . S
O79 Zn73 2.035 . S
O80 Zn73 2.028 . S
O80 C83 1.247 . S
O81 Zn75 2.035 . S
O81 C83 1.258 . S
C82 O76 1.247 . S
C82 O77 1.258 . S
C83 O80 1.247 . S
C83 O81 1.258 . S
C84 O86 1.247 . S
C84 O88 1.258 . S
C85 O92 1.247 . S
C85 O93 1.258 . S
O86 C84 1.247 . S
O86 Zn87 2.028 . S
Zn87 O86 2.028 . S
Zn87 O91 2.035 . S
Zn87 O93 2.035 . S
Zn87 O94 2.028 . S
O88 C84 1.258 . S
O88 Zn89 2.035 . S
Zn89 O88 2.035 . S
Zn89 O90 2.028 . S
Zn89 O92 2.028 . S
Zn89 O95 2.035 . S
O90 Zn89 2.028 . S
O90 C96 1.247 . S
O91 Zn87 2.035 . S
O91 C96 1.258 . S
O92 C85 1.247 . S
O92 Zn89 2.028 . S
O93 C85 1.258 . S
O93 Zn87 2.035 . S
O94 Zn87 2.028 . S
O94 C97 1.247 . S
O95 Zn89 2.035 . S
O95 C97 1.258 . S
C96 O90 1.247 . S
C96 O91 1.258 . S
C97 O94 1.247 . S
C97 O95 1.258 . S
C98 O100 1.247 . S
C98 O102 1.258 . S
C99 O106 1.247 . S
C99 O107 1.258 . S
O100 C98 1.247 . S
O100 Zn101 2.028 . S
Zn101 O100 2.028 . S
Zn101 O105 2.035 . S
Zn101 O107 2.035 . S
Zn101 O108 2.028 . S
O102 C98 1.258 . S
O102 Zn103 2.035 . S
Zn103 O102 2.035 . S
Zn103 O104 2.028 . S
Zn103 O106 2.028 . S
Zn103 O109 2.035 . S
O104 Zn103 2.028 . S
O104 C110 1.247 . S
O105 Zn101 2.035 . S
O105 C110 1.258 . S
O106 C99 1.247 . S
O106 Zn103 2.028 . S
O107 C99 1.258 . S
O107 Zn101 2.035 . S
O108 Zn101 2.028 . S
O108 C111 1.247 . S
O109 Zn103 2.035 . S
O109 C111 1.258 . S
C110 O104 1.247 . S
C110 O105 1.258 . S
C111 O108 1.247 . S
C111 O109 1.258 . S
C112 O114 1.247 . S
C112 O116 1.258 . S
C113 O120 1.247 . S
C113 O121 1.258 . S
O114 C112 1.247 . S
O114 Zn115 2.028 . S
Zn115 O114 2.028 . S
Zn115 O119 2.035 . S
Zn115 O121 2.035 . S
Zn115 O122 2.028 . S
O116 C112 1.258 . S
O116 Zn117 2.035 . S
Zn117 O116 2.035 . S
Zn117 O118 2.028 . S
Zn117 O120 2.028 . S
Zn117 O123 2.035 . S
O118 Zn117 2.028 . S
O118 C124 1.247 . S
O119 Zn115 2.035 . S
O119 C124 1.258 . S
O120 C113 1.247 . S
O120 Zn117 2.028 . S
O121 C113 1.258 . S
O121 Zn115 2.035 . S
O122 Zn115 2.028 . S
O122 C125 1.247 . S
O123 Zn117 2.035 . S
O123 C125 1.258 . S
C124 O118 1.247 . S
C124 O119 1.258 . S
C125 O122 1.247 . S
C125 O123 1.258 . S
C126 O128 1.247 . S
C126 O130 1.258 . S
C127 O134 1.247 . S
C127 O135 1.258 . S
O128 C126 1.247 . S
O128 Zn129 2.028 . S
Zn129 O128 2.028 . S
Zn129 O133 2.035 . S
Zn129 O135 2.035 . S
Zn129 O136 2.028 . S
O130 C126 1.258 . S
O130 Zn131 2.035 . S
Zn131 O130 2.035 . S
Zn131 O132 2.028 . S
Zn131 O134 2.028 . S
Zn131 O137 2.035 . S
O132 Zn131 2.028 . S
O132 C138 1.247 . S
O133 Zn129 2.035 . S
O133 C138 1.258 . S
O134 C127 1.247 . S
O134 Zn131 2.028 . S
O135 C127 1.258 . S
O135 Zn129 2.035 . S
O136 Zn129 2.028 . S
O136 C139 1.247 . S
O137 Zn131 2.035 . S
O137 C139 1.258 . S
C138 O132 1.247 . S
C138 O133 1.258 . S
C139 O136 1.247 . S
C139 O137 1.258 . S
C140 O142 1.247 1_545 S
C140 O144 1.258 . S
C141 O148 1.247 . S
C141 O149 1.258 1_545 S
O142 C140 1.247 1_565 S
O142 Zn143 2.028 . S
Zn143 O142 2.028 . S
Zn143 O147 2.035 . S
Zn143 O149 2.035 . S
Zn143 O150 2.028 . S
O144 C140 1.258 . S
O144 Zn145 2.035 . S
Zn145 O144 2.035 . S
Zn145 O146 2.028 . S
Zn145 O148 2.028 . S
Zn145 O151 2.035 . S
O146 Zn145 2.028 . S
O146 C152 1.247 . S
O147 Zn143 2.035 . S
O147 C152 1.258 1_565 S
O148 C141 1.247 . S
O148 Zn145 2.028 . S
O149 C141 1.258 1_565 S
O149 Zn143 2.035 . S
O150 Zn143 2.028 . S
O150 C153 1.247 1_565 S
O151 Zn145 2.035 . S
O151 C153 1.258 . S
C152 O146 1.247 . S
C152 O147 1.258 1_545 S
C153 O150 1.247 1_545 S
C153 O151 1.258 . S
C154 O156 1.247 1_556 S
C154 O158 1.258 . S
C155 O162 1.247 1_554 S
C155 O163 1.258 . S
O156 C154 1.247 1_554 S
O156 Zn157 2.028 . S
Zn157 O156 2.028 . S
Zn157 O161 2.035 . S
Zn157 O163 2.035 . S
Zn157 O164 2.028 . S
O158 C154 1.258 . S
O158 Zn159 2.035 . S
Zn159 O158 2.035 . S
Zn159 O160 2.028 . S
Zn159 O162 2.028 . S
Zn159 O165 2.035 . S
O160 Zn159 2.028 . S
O160 C166 1.247 1_556 S
O161 Zn157 2.035 . S
O161 C166 1.258 . S
O162 C155 1.247 1_556 S
O162 Zn159 2.028 . S
O163 C155 1.258 . S
O163 Zn157 2.035 . S
O164 Zn157 2.028 . S
O164 C167 1.247 1_554 S
O165 Zn159 2.035 . S
O165 C167 1.258 . S
C166 O160 1.247 1_554 S
C166 O161 1.258 . S
C167 O164 1.247 1_556 S
C167 O165 1.258 . S
O168 Zn169 1.953 . S
O168 C184 1.225 . S
Zn169 O168 1.953 . S
Zn169 O170 1.949 . S
Zn169 O176 1.919 . S
Zn169 O181 1.924 1_545 S
O170 Zn169 1.949 . S
O170 Zn171 1.923 . S
O170 Zn172 1.950 . S
O170 Zn173 1.945 . S
Zn171 O170 1.923 . S
Zn171 O174 1.933 . S
Zn171 O177 1.941 . S
Zn171 O178 1.965 . S
Zn172 O170 1.950 . S
Zn172 O179 1.938 . S
Zn172 O180 1.906 1_554 S
Zn172 O190 1.953 . S
Zn173 O170 1.945 . S
Zn173 O175 1.932 1_455 S
Zn173 O182 1.977 1_554 S
Zn173 O183 1.910 1_545 S
O174 Zn171 1.933 . S
O174 C185 1.226 1_455 S
O175 Zn173 1.932 1_655 S
O175 C185 1.307 . S
O176 Zn169 1.919 . S
O176 C187 1.253 . S
O177 Zn171 1.941 . S
O177 C187 1.283 . S
O178 Zn171 1.965 . S
O178 C186 1.303 . S
O179 Zn172 1.938 . S
O179 C186 1.247 . S
O180 Zn172 1.906 1_556 S
O180 C188 1.304 . S
O181 Zn169 1.924 1_565 S
O181 C189 1.311 . S
O182 Zn173 1.977 1_556 S
O182 C188 1.272 . S
O183 Zn173 1.910 1_565 S
O183 C189 1.231 . S
C184 O168 1.225 . S
C184 O190 1.298 . S
C185 O174 1.226 1_655 S
C185 O175 1.307 . S
C186 O178 1.303 . S
C186 O179 1.247 . S
C187 O176 1.253 . S
C187 O177 1.283 . S
C188 O180 1.304 . S
C188 O182 1.272 . S
C189 O181 1.311 . S
C189 O183 1.231 . S
O190 Zn172 1.953 . S
O190 C184 1.298 . S
O191 Zn192 1.953 . S
O191 C207 1.225 . S
Zn192 O191 1.953 . S
Zn192 O193 1.949 . S
Zn192 O199 1.919 . S
Zn192 O204 1.924 . S
O193 Zn192 1.949 . S
O193 Zn194 1.923 . S
O193 Zn195 1.950 . S
O193 Zn196 1.946 . S
Zn194 O193 1.923 . S
Zn194 O197 1.933 1_655 S
Zn194 O200 1.941 . S
Zn194 O201 1.965 . S
Zn195 O193 1.950 . S
Zn195 O202 1.938 . S
Zn195 O203 1.906 1_554 S
Zn195 O213 1.953 . S
Zn196 O193 1.946 . S
Zn196 O198 1.930 1_655 S
Zn196 O205 1.977 1_554 S
Zn196 O206 1.910 1_655 S
O197 Zn194 1.933 1_455 S
O197 C208 1.226 . S
O198 Zn196 1.930 1_455 S
O198 C208 1.307 . S
O199 Zn192 1.919 . S
O199 C210 1.253 . S
O200 Zn194 1.941 . S
O200 C210 1.283 . S
O201 Zn194 1.965 . S
O201 C209 1.303 . S
O202 Zn195 1.938 . S
O202 C209 1.247 . S
O203 Zn195 1.906 1_556 S
O203 C211 1.304 . S
O204 Zn192 1.924 . S
O204 C212 1.311 . S
O205 Zn196 1.977 1_556 S
O205 C211 1.272 . S
O206 Zn196 1.910 1_455 S
O206 C212 1.231 1_455 S
C207 O191 1.225 . S
C207 O213 1.298 . S
C208 O197 1.226 . S
C208 O198 1.307 . S
C209 O201 1.303 . S
C209 O202 1.247 . S
C210 O199 1.253 . S
C210 O200 1.283 . S
C211 O203 1.304 . S
C211 O205 1.272 . S
C212 O204 1.311 . S
C212 O206 1.231 1_655 S
O213 Zn195 1.953 . S
O213 C207 1.298 . S
O214 Zn215 1.953 . S
O214 C230 1.225 . S
Zn215 O214 1.953 . S
Zn215 O216 1.949 . S
Zn215 O222 1.919 . S
Zn215 O227 1.924 . S
O216 Zn215 1.949 . S
O216 Zn217 1.923 . S
O216 Zn218 1.950 . S
O216 Zn219 1.945 . S
Zn217 O216 1.923 . S
Zn217 O220 1.933 1_565 S
Zn217 O223 1.941 . S
Zn217 O224 1.965 . S
Zn218 O216 1.950 . S
Zn218 O225 1.938 . S
Zn218 O226 1.906 . S
Zn218 O236 1.953 . S
Zn219 O216 1.945 . S
Zn219 O221 1.932 1_565 S
Zn219 O228 1.977 . S
Zn219 O229 1.910 . S
O220 Zn217 1.933 1_545 S
O220 C231 1.226 . S
O221 Zn219 1.932 1_545 S
O221 C231 1.307 . S
O222 Zn215 1.919 . S
O222 C233 1.253 . S
O223 Zn217 1.941 . S
O223 C233 1.283 . S
O224 Zn217 1.965 . S
O224 C232 1.303 . S
O225 Zn218 1.938 . S
O225 C232 1.247 . S
O226 Zn218 1.906 . S
O226 C234 1.304 1_455 S
O227 Zn215 1.924 . S
O227 C235 1.311 . S
O228 Zn219 1.977 . S
O228 C234 1.272 1_455 S
O229 Zn219 1.910 . S
O229 C235 1.231 . S
C230 O214 1.225 . S
C230 O236 1.298 . S
C231 O220 1.226 . S
C231 O221 1.307 . S
C232 O224 1.303 . S
C232 O225 1.247 . S
C233 O222 1.253 . S
C233 O223 1.283 . S
C234 O226 1.304 1_655 S
C234 O228 1.272 1_655 S
C235 O227 1.311 . S
C235 O229 1.231 . S
O236 Zn218 1.953 . S
O236 C230 1.298 . S
O237 Zn238 1.953 . S
O237 C253 1.225 . S
Zn238 O237 1.953 . S
Zn238 O239 1.949 . S
Zn238 O245 1.919 . S
Zn238 O250 1.924 1_655 S
O239 Zn238 1.949 . S
O239 Zn240 1.923 . S
O239 Zn241 1.950 . S
O239 Zn242 1.945 . S
Zn240 O239 1.923 . S
Zn240 O243 1.933 . S
Zn240 O246 1.941 . S
Zn240 O247 1.965 . S
Zn241 O239 1.950 . S
Zn241 O248 1.938 . S
Zn241 O249 1.906 . S
Zn241 O259 1.953 . S
Zn242 O239 1.945 . S
Zn242 O244 1.932 . S
Zn242 O251 1.977 1_655 S
Zn242 O252 1.910 1_655 S
O243 Zn240 1.933 . S
O243 C254 1.226 . S
O244 Zn242 1.932 . S
O244 C254 1.307 . S
O245 Zn238 1.919 . S
O245 C256 1.253 . S
O246 Zn240 1.941 . S
O246 C256 1.283 . S
O247 Zn240 1.965 . S
O247 C255 1.303 . S
O248 Zn241 1.938 . S
O248 C255 1.247 . S
O249 Zn241 1.906 . S
O249 C257 1.304 . S
O250 Zn238 1.924 1_455 S
O250 C258 1.311 . S
O251 Zn242 1.977 1_455 S
O251 C257 1.272 1_455 S
O252 Zn242 1.910 1_455 S
O252 C258 1.231 . S
C253 O237 1.225 . S
C253 O259 1.298 . S
C254 O243 1.226 . S
C254 O244 1.307 . S
C255 O247 1.303 . S
C255 O248 1.247 . S
C256 O245 1.253 . S
C256 O246 1.283 . S
C257 O249 1.304 . S
C257 O251 1.272 1_655 S
C258 O250 1.311 . S
C258 O252 1.231 . S
O259 Zn241 1.953 . S
O259 C253 1.298 . S
O260 Zn261 1.953 . S
O260 C276 1.225 . S
Zn261 O260 1.953 . S
Zn261 O262 1.949 . S
Zn261 O268 1.919 . S
Zn261 O273 1.924 1_565 S
O262 Zn261 1.949 . S
O262 Zn263 1.923 . S
O262 Zn264 1.950 . S
O262 Zn265 1.945 . S
Zn263 O262 1.923 . S
Zn263 O266 1.933 . S
Zn263 O269 1.941 . S
Zn263 O270 1.965 . S
Zn264 O262 1.950 . S
Zn264 O271 1.938 . S
Zn264 O272 1.906 . S
Zn264 O282 1.953 . S
Zn265 O262 1.945 . S
Zn265 O267 1.932 . S
Zn265 O274 1.977 . S
Zn265 O275 1.910 1_565 S
O266 Zn263 1.933 . S
O266 C277 1.226 . S
O267 Zn265 1.932 . S
O267 C277 1.307 . S
O268 Zn261 1.919 . S
O268 C279 1.253 . S
O269 Zn263 1.941 . S
O269 C279 1.283 . S
O270 Zn263 1.965 . S
O270 C278 1.303 . S
O271 Zn264 1.938 . S
O271 C278 1.247 . S
O272 Zn264 1.906 . S
O272 C280 1.304 . S
O273 Zn261 1.924 1_545 S
O273 C281 1.311 . S
O274 Zn265 1.977 . S
O274 C280 1.272 . S
O275 Zn265 1.910 1_545 S
O275 C281 1.231 . S
C276 O260 1.225 . S
C276 O282 1.298 . S
C277 O266 1.226 . S
C277 O267 1.307 . S
C278 O270 1.303 . S
C278 O271 1.247 . S
C279 O268 1.253 . S
C279 O269 1.283 . S
C280 O272 1.304 . S
C280 O274 1.272 . S
C281 O273 1.311 . S
C281 O275 1.231 . S
O282 Zn264 1.953 . S
O282 C276 1.298 . S
O283 Zn284 1.953 . S
O283 C299 1.225 . S
Zn284 O283 1.953 . S
Zn284 O285 1.949 . S
Zn284 O291 1.919 . S
Zn284 O296 1.924 . S
O285 Zn284 1.949 . S
O285 Zn286 1.923 . S
O285 Zn287 1.950 . S
O285 Zn288 1.945 . S
Zn286 O285 1.923 . S
Zn286 O289 1.933 . S
Zn286 O292 1.941 . S
Zn286 O293 1.965 . S
Zn287 O285 1.950 . S
Zn287 O294 1.938 . S
Zn287 O295 1.906 . S
Zn287 O305 1.953 . S
Zn288 O285 1.945 . S
Zn288 O290 1.932 . S
Zn288 O297 1.977 . S
Zn288 O298 1.910 . S
O289 Zn286 1.933 . S
O289 C300 1.226 . S
O290 Zn288 1.932 . S
O290 C300 1.307 . S
O291 Zn284 1.919 . S
O291 C302 1.253 . S
O292 Zn286 1.941 . S
O292 C302 1.283 . S
O293 Zn286 1.965 . S
O293 C301 1.303 . S
O294 Zn287 1.938 . S
O294 C301 1.247 . S
O295 Zn287 1.906 . S
O295 C303 1.304 . S
O296 Zn284 1.924 . S
O296 C304 1.311 . S
O297 Zn288 1.977 . S
O297 C303 1.272 . S
O298 Zn288 1.910 . S
O298 C304 1.231 . S
C299 O283 1.225 . S
C299 O305 1.298 . S
C300 O289 1.226 . S
C300 O290 1.307 . S
C301 O293 1.303 . S
C301 O294 1.247 . S
C302 O291 1.253 . S
C302 O292 1.283 . S
C303 O295 1.304 . S
C303 O297 1.272 . S
C304 O296 1.311 . S
C304 O298 1.231 . S
O305 Zn287 1.953 . S
O305 C299 1.298 . S
O306 Zn307 1.953 . S
O306 C322 1.225 . S
Zn307 O306 1.953 . S
Zn307 O308 1.949 . S
Zn307 O314 1.919 . S
Zn307 O319 1.924 1_556 S
O308 Zn307 1.949 . S
O308 Zn309 1.923 . S
O308 Zn310 1.950 . S
O308 Zn311 1.945 . S
Zn309 O308 1.923 . S
Zn309 O312 1.933 . S
Zn309 O315 1.941 . S
Zn309 O316 1.965 . S
Zn310 O308 1.950 . S
Zn310 O317 1.938 . S
Zn310 O318 1.906 . S
Zn310 O328 1.953 . S
Zn311 O308 1.945 . S
Zn311 O313 1.932 . S
Zn311 O320 1.977 . S
Zn311 O321 1.910 1_556 S
O312 Zn309 1.933 . S
O312 C323 1.226 . S
O313 Zn311 1.932 . S
O313 C323 1.307 . S
O314 Zn307 1.919 . S
O314 C325 1.253 . S
O315 Zn309 1.941 . S
O315 C325 1.283 . S
O316 Zn309 1.965 . S
O316 C324 1.303 . S
O317 Zn310 1.938 . S
O317 C324 1.247 . S
O318 Zn310 1.906 . S
O318 C326 1.304 . S
O319 Zn307 1.924 1_554 S
O319 C327 1.311 . S
O320 Zn311 1.977 . S
O320 C326 1.272 . S
O321 Zn311 1.910 1_554 S
O321 C327 1.231 . S
C322 O306 1.225 . S
C322 O328 1.298 . S
C323 O312 1.226 . S
C323 O313 1.307 . S
C324 O316 1.303 . S
C324 O317 1.247 . S
C325 O314 1.253 . S
C325 O315 1.283 . S
C326 O318 1.304 . S
C326 O320 1.272 . S
C327 O319 1.311 . S
C327 O321 1.231 . S
O328 Zn310 1.953 . S
O328 C322 1.298 . S
O329 Zn330 1.953 . S
O329 C345 1.225 . S
Zn330 O329 1.953 . S
Zn330 O331 1.949 . S
Zn330 O337 1.919 . S
Zn330 O342 1.924 . S
O331 Zn330 1.949 . S
O331 Zn332 1.923 . S
O331 Zn333 1.950 . S
O331 Zn334 1.945 . S
Zn332 O331 1.923 . S
Zn332 O335 1.933 1_556 S
Zn332 O338 1.941 . S
Zn332 O339 1.965 . S
Zn333 O331 1.950 . S
Zn333 O340 1.938 . S
Zn333 O341 1.906 1_545 S
Zn333 O351 1.953 . S
Zn334 O331 1.945 . S
Zn334 O336 1.932 1_556 S
Zn334 O343 1.977 1_545 S
Zn334 O344 1.910 . S
O335 Zn332 1.933 1_554 S
O335 C346 1.226 . S
O336 Zn334 1.932 1_554 S
O336 C346 1.307 . S
O337 Zn330 1.919 . S
O337 C348 1.253 . S
O338 Zn332 1.941 . S
O338 C348 1.283 . S
O339 Zn332 1.965 . S
O339 C347 1.303 . S
O340 Zn333 1.938 . S
O340 C347 1.247 . S
O341 Zn333 1.906 1_565 S
O341 C349 1.304 . S
O342 Zn330 1.924 . S
O342 C350 1.311 . S
O343 Zn334 1.977 1_565 S
O343 C349 1.272 . S
O344 Zn334 1.910 . S
O344 C350 1.231 . S
C345 O329 1.225 . S
C345 O351 1.298 . S
C346 O335 1.226 . S
C346 O336 1.307 . S
C347 O339 1.303 . S
C347 O340 1.247 . S
C348 O337 1.253 . S
C348 O338 1.283 . S
C349 O341 1.304 . S
C349 O343 1.272 . S
C350 O342 1.311 . S
C350 O344 1.231 . S
O351 Zn333 1.953 . S
O351 C345 1.298 . S
H352 C358 0.930 . S
H353 C361 0.930 . S
H354 C362 0.930 . S
H355 C363 0.929 . S
H356 C366 0.930 . S
H357 C367 0.930 . S
C358 H352 0.930 . S
C358 C359 1.355 . S
C358 C360 1.415 . S
C359 C358 1.355 . S
C359 C361 1.419 1_455 S
C360 C358 1.415 . S
C360 C365 1.425 . S
C360 C367 1.409 . S
C361 H353 0.930 . S
C361 C359 1.419 1_655 S
C361 C362 1.362 . S
C362 H354 0.930 . S
C362 C361 1.362 . S
C362 C365 1.409 1_655 S
C363 H355 0.929 . S
C363 C364 1.355 1_655 S
C363 C365 1.415 1_655 S
C364 C363 1.355 1_455 S
C364 C366 1.419 . S
C365 C360 1.425 . S
C365 C362 1.409 1_455 S
C365 C363 1.415 1_455 S
C366 H356 0.930 . S
C366 C364 1.419 . S
C366 C367 1.362 . S
C367 H357 0.930 . S
C367 C360 1.409 . S
C367 C366 1.362 . S
H368 C374 0.930 . S
H369 C377 0.930 . S
H370 C378 0.930 . S
H371 C379 0.930 . S
H372 C382 0.930 . S
H373 C383 0.930 . S
C374 H368 0.930 . S
C374 C375 1.355 . S
C374 C376 1.415 . S
C375 C374 1.355 . S
C375 C377 1.419 1_655 S
C376 C374 1.415 . S
C376 C381 1.425 1_655 S
C376 C383 1.409 . S
C377 H369 0.930 . S
C377 C375 1.419 1_455 S
C377 C378 1.362 . S
C378 H370 0.930 . S
C378 C377 1.362 . S
C378 C381 1.409 . S
C379 H371 0.930 . S
C379 C380 1.355 1_455 S
C379 C381 1.415 . S
C380 C379 1.355 1_655 S
C380 C382 1.419 . S
C381 C376 1.425 1_455 S
C381 C378 1.409 . S
C381 C379 1.415 . S
C382 H372 0.930 . S
C382 C380 1.419 . S
C382 C383 1.362 . S
C383 H373 0.930 . S
C383 C376 1.409 . S
C383 C382 1.362 . S
H384 C390 0.930 . S
H385 C393 0.930 . S
H386 C394 0.930 . S
H387 C395 0.930 . S
H388 C398 0.930 . S
H389 C399 0.930 . S
C390 H384 0.930 . S
C390 C391 1.355 . S
C390 C392 1.415 . S
C391 C390 1.355 . S
C391 C393 1.419 . S
C392 C390 1.415 . S
C392 C397 1.425 . S
C392 C399 1.409 . S
C393 H385 0.930 . S
C393 C391 1.419 . S
C393 C394 1.362 . S
C394 H386 0.930 . S
C394 C393 1.362 . S
C394 C397 1.409 . S
C395 H387 0.930 . S
C395 C396 1.355 . S
C395 C397 1.415 . S
C396 C395 1.355 . S
C396 C398 1.419 . S
C397 C392 1.425 . S
C397 C394 1.409 . S
C397 C395 1.415 . S
C398 H388 0.930 . S
C398 C396 1.419 . S
C398 C399 1.362 . S
C399 H389 0.930 . S
C399 C392 1.409 . S
C399 C398 1.362 . S
H400 C406 0.930 1_655 S
H401 C409 0.930 . S
H402 C410 0.930 . S
H403 C411 0.930 . S
H404 C414 0.930 . S
H405 C415 0.930 . S
C406 H400 0.930 1_455 S
C406 C407 1.355 . S
C406 C408 1.415 . S
C407 C406 1.355 . S
C407 C409 1.419 . S
C408 C406 1.415 . S
C408 C413 1.425 . S
C408 C415 1.409 1_455 S
C409 H401 0.930 . S
C409 C407 1.419 . S
C409 C410 1.362 . S
C410 H402 0.930 . S
C410 C409 1.362 . S
C410 C413 1.409 . S
C411 H403 0.930 . S
C411 C412 1.355 1_455 S
C411 C413 1.415 . S
C412 C411 1.355 1_655 S
C412 C414 1.419 . S
C413 C408 1.425 . S
C413 C410 1.409 . S
C413 C411 1.415 . S
C414 H404 0.930 . S
C414 C412 1.419 . S
C414 C415 1.362 . S
C415 H405 0.930 . S
C415 C408 1.409 1_655 S
C415 C414 1.362 . S
H416 C422 0.930 . S
H417 C425 0.930 . S
H418 C426 0.930 . S
H419 C427 0.930 . S
H420 C430 0.930 . S
H421 C431 0.930 . S
C422 H416 0.930 . S
C422 C423 1.355 . S
C422 C424 1.415 . S
C423 C422 1.355 . S
C423 C425 1.419 1_545 S
C424 C422 1.415 . S
C424 C429 1.425 1_545 S
C424 C431 1.409 . S
C425 H417 0.930 . S
C425 C423 1.419 1_565 S
C425 C426 1.362 . S
C426 H418 0.930 . S
C426 C425 1.362 . S
C426 C429 1.409 . S
C427 H419 0.930 . S
C427 C428 1.355 1_565 S
C427 C429 1.415 . S
C428 C427 1.355 1_545 S
C428 C430 1.419 . S
C429 C424 1.425 1_565 S
C429 C426 1.409 . S
C429 C427 1.415 . S
C430 H420 0.930 . S
C430 C428 1.419 . S
C430 C431 1.362 . S
C431 H421 0.930 . S
C431 C424 1.409 . S
C431 C430 1.362 . S
H432 C438 0.930 . S
H433 C441 0.930 . S
H434 C442 0.930 . S
H435 C443 0.930 . S
H436 C446 0.930 . S
H437 C447 0.930 . S
C438 H432 0.930 . S
C438 C439 1.355 . S
C438 C440 1.415 . S
C439 C438 1.355 . S
C439 C441 1.419 . S
C440 C438 1.415 . S
C440 C445 1.425 . S
C440 C447 1.409 . S
C441 H433 0.930 . S
C441 C439 1.419 . S
C441 C442 1.362 . S
C442 H434 0.930 . S
C442 C441 1.362 . S
C442 C445 1.409 . S
C443 H435 0.930 . S
C443 C444 1.355 . S
C443 C445 1.415 . S
C444 C443 1.355 . S
C444 C446 1.419 . S
C445 C440 1.425 . S
C445 C442 1.409 . S
C445 C443 1.415 . S
C446 H436 0.930 . S
C446 C444 1.419 . S
C446 C447 1.362 . S
C447 H437 0.930 . S
C447 C440 1.409 . S
C447 C446 1.362 . S
H448 C454 0.930 1_545 S
H449 C457 0.930 . S
H450 C458 0.930 . S
H451 C459 0.930 . S
H452 C462 0.928 1_545 S
H453 C463 0.930 . S
C454 H448 0.930 1_565 S
C454 C455 1.355 . S
C454 C456 1.415 . S
C455 C454 1.355 . S
C455 C457 1.419 . S
C456 C454 1.415 . S
C456 C461 1.425 . S
C456 C463 1.409 1_565 S
C457 H449 0.930 . S
C457 C455 1.419 . S
C457 C458 1.362 . S
C458 H450 0.930 . S
C458 C457 1.362 . S
C458 C461 1.409 . S
C459 H451 0.930 . S
C459 C460 1.355 . S
C459 C461 1.415 . S
C460 C459 1.355 . S
C460 C462 1.422 . S
C461 C456 1.425 . S
C461 C458 1.409 . S
C461 C459 1.415 . S
C462 H452 0.928 1_565 S
C462 C460 1.422 . S
C462 C463 1.361 1_565 S
C463 H453 0.930 . S
C463 C456 1.409 1_545 S
C463 C462 1.361 1_545 S
H464 C470 0.930 . S
H465 C473 0.930 . S
H466 C474 0.930 . S
H467 C475 0.930 . S
H468 C478 0.930 . S
H469 C479 0.930 . S
C470 H464 0.930 . S
C470 C471 1.355 . S
C470 C472 1.415 . S
C471 C470 1.355 . S
C471 C473 1.419 . S
C472 C470 1.415 . S
C472 C477 1.425 . S
C472 C479 1.409 . S
C473 H465 0.930 . S
C473 C471 1.419 . S
C473 C474 1.362 . S
C474 H466 0.930 . S
C474 C473 1.362 . S
C474 C477 1.409 . S
C475 H467 0.930 . S
C475 C476 1.355 . S
C475 C477 1.415 . S
C476 C475 1.355 . S
C476 C478 1.419 . S
C477 C472 1.425 . S
C477 C474 1.409 . S
C477 C475 1.415 . S
C478 H468 0.930 . S
C478 C476 1.419 . S
C478 C479 1.362 . S
C479 H469 0.930 . S
C479 C472 1.409 . S
C479 C478 1.362 . S
H480 C486 0.930 . S
H481 C489 0.930 . S
H482 C490 0.930 . S
H483 C491 0.930 . S
H484 C494 0.930 . S
H485 C495 0.930 . S
C486 H480 0.930 . S
C486 C487 1.355 . S
C486 C488 1.415 . S
C487 C486 1.355 . S
C487 C489 1.419 . S
C488 C486 1.415 . S
C488 C493 1.425 . S
C488 C495 1.409 . S
C489 H481 0.930 . S
C489 C487 1.419 . S
C489 C490 1.362 . S
C490 H482 0.930 . S
C490 C489 1.362 . S
C490 C493 1.409 . S
C491 H483 0.930 . S
C491 C492 1.355 . S
C491 C493 1.415 . S
C492 C491 1.355 . S
C492 C494 1.419 . S
C493 C488 1.425 . S
C493 C490 1.409 . S
C493 C491 1.415 . S
C494 H484 0.930 . S
C494 C492 1.419 . S
C494 C495 1.362 . S
C495 H485 0.930 . S
C495 C488 1.409 . S
C495 C494 1.362 . S
H496 C502 0.930 . S
H497 C505 0.930 . S
H498 C506 0.930 . S
H499 C507 0.930 . S
H500 C510 0.930 . S
H501 C511 0.930 . S
C502 H496 0.930 . S
C502 C503 1.355 . S
C502 C504 1.415 . S
C503 C502 1.355 . S
C503 C505 1.419 . S
C504 C502 1.415 . S
C504 C509 1.425 . S
C504 C511 1.409 . S
C505 H497 0.930 . S
C505 C503 1.419 . S
C505 C506 1.362 . S
C506 H498 0.930 . S
C506 C505 1.362 . S
C506 C509 1.409 . S
C507 H499 0.930 . S
C507 C508 1.355 . S
C507 C509 1.415 . S
C508 C507 1.355 . S
C508 C510 1.419 . S
C509 C504 1.425 . S
C509 C506 1.409 . S
C509 C507 1.415 . S
C510 H500 0.930 . S
C510 C508 1.419 . S
C510 C511 1.362 . S
C511 H501 0.930 . S
C511 C504 1.409 . S
C511 C510 1.362 . S
H512 C518 0.930 . S
H513 C521 0.930 . S
H514 C522 0.930 . S
H515 C523 0.930 . S
H516 C526 0.930 . S
H517 C527 0.930 . S
C518 H512 0.930 . S
C518 C519 1.355 . S
C518 C520 1.415 . S
C519 C518 1.355 . S
C519 C521 1.419 . S
C520 C518 1.415 . S
C520 C525 1.425 . S
C520 C527 1.409 . S
C521 H513 0.930 . S
C521 C519 1.419 . S
C521 C522 1.362 . S
C522 H514 0.930 . S
C522 C521 1.362 . S
C522 C525 1.409 . S
C523 H515 0.930 . S
C523 C524 1.355 . S
C523 C525 1.415 . S
C524 C523 1.355 . S
C524 C526 1.419 . S
C525 C520 1.425 . S
C525 C522 1.409 . S
C525 C523 1.415 . S
C526 H516 0.930 . S
C526 C524 1.419 . S
C526 C527 1.362 . S
C527 H517 0.930 . S
C527 C520 1.409 . S
C527 C526 1.362 . S
H528 C534 0.930 . S
H529 C537 0.930 . S
H530 C538 0.930 . S
H531 C539 0.930 . S
H532 C542 0.930 . S
H533 C543 0.930 . S
C534 H528 0.930 . S
C534 C535 1.355 . S
C534 C536 1.415 . S
C535 C534 1.355 . S
C535 C537 1.419 . S
C536 C534 1.415 . S
C536 C541 1.425 . S
C536 C543 1.409 . S
C537 H529 0.930 . S
C537 C535 1.419 . S
C537 C538 1.362 . S
C538 H530 0.930 . S
C538 C537 1.362 . S
C538 C541 1.409 . S
C539 H531 0.930 . S
C539 C540 1.355 . S
C539 C541 1.415 . S
C540 C539 1.355 . S
C540 C542 1.419 . S
C541 C536 1.425 . S
C541 C538 1.409 . S
C541 C539 1.415 . S
C542 H532 0.930 . S
C542 C540 1.419 . S
C542 C543 1.362 . S
C543 H533 0.930 . S
C543 C536 1.409 . S
C543 C542 1.362 . S
H544 C550 0.930 . S
H545 C553 0.930 . S
H546 C554 0.930 . S
H547 C555 0.930 . S
H548 C558 0.930 . S
H549 C559 0.930 . S
C550 H544 0.930 . S
C550 C551 1.355 . S
C550 C552 1.415 . S
C551 C550 1.355 . S
C551 C553 1.419 . S
C552 C550 1.415 . S
C552 C557 1.425 . S
C552 C559 1.409 . S
C553 H545 0.930 . S
C553 C551 1.419 . S
C553 C554 1.362 . S
C554 H546 0.930 . S
C554 C553 1.362 . S
C554 C557 1.409 . S
C555 H547 0.930 . S
C555 C556 1.355 . S
C555 C557 1.415 . S
C556 C555 1.355 . S
C556 C558 1.419 . S
C557 C552 1.425 . S
C557 C554 1.409 . S
C557 C555 1.415 . S
C558 H548 0.930 . S
C558 C556 1.419 . S
C558 C559 1.362 . S
C559 H549 0.930 . S
C559 C552 1.409 . S
C559 C558 1.362 . S
H560 C566 0.930 . S
H561 C569 0.930 . S
H562 C570 0.930 . S
H563 C571 0.930 . S
H564 C574 0.930 . S
H565 C575 0.930 . S
C566 H560 0.930 . S
C566 C567 1.355 . S
C566 C568 1.415 . S
C567 C566 1.355 . S
C567 C569 1.419 . S
C568 C566 1.415 . S
C568 C573 1.425 . S
C568 C575 1.409 . S
C569 H561 0.930 . S
C569 C567 1.419 . S
C569 C570 1.362 . S
C570 H562 0.930 . S
C570 C569 1.362 . S
C570 C573 1.409 . S
C571 H563 0.930 . S
C571 C572 1.355 . S
C571 C573 1.415 . S
C572 C571 1.355 . S
C572 C574 1.419 . S
C573 C568 1.425 . S
C573 C570 1.409 . S
C573 C571 1.415 . S
C574 H564 0.930 . S
C574 C572 1.419 . S
C574 C575 1.362 . S
C575 H565 0.930 . S
C575 C568 1.409 . S
C575 C574 1.362 . S
H576 C582 0.930 . S
H577 C585 0.930 . S
H578 C586 0.930 . S
H579 C587 0.930 . S
H580 C590 0.930 . S
H581 C591 0.930 . S
C582 H576 0.930 . S
C582 C583 1.355 . S
C582 C584 1.415 . S
C583 C582 1.355 . S
C583 C585 1.419 . S
C584 C582 1.415 . S
C584 C589 1.425 . S
C584 C591 1.409 . S
C585 H577 0.930 . S
C585 C583 1.419 . S
C585 C586 1.362 . S
C586 H578 0.930 . S
C586 C585 1.362 . S
C586 C589 1.409 . S
C587 H579 0.930 . S
C587 C588 1.355 . S
C587 C589 1.415 . S
C588 C587 1.355 . S
C588 C590 1.419 . S
C589 C584 1.425 . S
C589 C586 1.409 . S
C589 C587 1.415 . S
C590 H580 0.930 . S
C590 C588 1.419 . S
C590 C591 1.362 . S
C591 H581 0.930 . S
C591 C584 1.409 . S
C591 C590 1.362 . S
H592 C598 0.930 . S
H593 C601 0.930 . S
H594 C602 0.930 . S
H595 C603 0.930 . S
H596 C606 0.930 . S
H597 C607 0.930 . S
C598 H592 0.930 . S
C598 C599 1.355 . S
C598 C600 1.415 . S
C599 C598 1.355 . S
C599 C601 1.419 . S
C600 C598 1.415 . S
C600 C605 1.425 . S
C600 C607 1.409 . S
C601 H593 0.930 . S
C601 C599 1.419 . S
C601 C602 1.362 . S
C602 H594 0.930 . S
C602 C601 1.362 . S
C602 C605 1.409 . S
C603 H595 0.930 . S
C603 C604 1.355 . S
C603 C605 1.415 . S
C604 C603 1.355 . S
C604 C606 1.419 . S
C605 C600 1.425 . S
C605 C602 1.409 . S
C605 C603 1.415 . S
C606 H596 0.930 . S
C606 C604 1.419 . S
C606 C607 1.362 . S
C607 H597 0.930 . S
C607 C600 1.409 . S
C607 C606 1.362 . S
H608 C614 0.930 . S
H609 C617 0.930 . S
H610 C618 0.930 . S
H611 C619 0.930 . S
H612 C622 0.930 . S
H613 C623 0.930 . S
C614 H608 0.930 . S
C614 C615 1.355 . S
C614 C616 1.415 . S
C615 C614 1.355 . S
C615 C617 1.419 . S
C616 C614 1.415 . S
C616 C621 1.425 . S
C616 C623 1.409 . S
C617 H609 0.930 . S
C617 C615 1.419 . S
C617 C618 1.362 . S
C618 H610 0.930 . S
C618 C617 1.362 . S
C618 C621 1.409 . S
C619 H611 0.930 . S
C619 C620 1.355 . S
C619 C621 1.415 . S
C620 C619 1.355 . S
C620 C622 1.419 . S
C621 C616 1.425 . S
C621 C618 1.409 . S
C621 C619 1.415 . S
C622 H612 0.930 . S
C622 C620 1.419 . S
C622 C623 1.362 . S
C623 H613 0.930 . S
C623 C616 1.409 . S
C623 C622 1.362 . S
H624 C630 0.930 . S
H625 C633 0.930 . S
H626 C634 0.930 . S
H627 C635 0.930 . S
H628 C638 0.930 . S
H629 C639 0.930 . S
C630 H624 0.930 . S
C630 C631 1.355 1_565 S
C630 C632 1.415 . S
C631 C630 1.355 1_545 S
C631 C633 1.419 . S
C632 C630 1.415 . S
C632 C637 1.425 1_565 S
C632 C639 1.409 . S
C633 H625 0.930 . S
C633 C631 1.419 . S
C633 C634 1.362 . S
C634 H626 0.930 . S
C634 C633 1.362 . S
C634 C637 1.409 . S
C635 H627 0.930 . S
C635 C636 1.355 1_545 S
C635 C637 1.415 . S
C636 C635 1.355 1_565 S
C636 C638 1.419 . S
C637 C632 1.425 1_545 S
C637 C634 1.409 . S
C637 C635 1.415 . S
C638 H628 0.930 . S
C638 C636 1.419 . S
C638 C639 1.362 . S
C639 H629 0.930 . S
C639 C632 1.409 . S
C639 C638 1.362 . S
H640 C646 0.930 . S
H641 C649 0.930 . S
H642 C650 0.930 . S
H643 C651 0.930 . S
H644 C654 0.930 . S
H645 C655 0.930 . S
C646 H640 0.930 . S
C646 C647 1.355 . S
C646 C648 1.415 . S
C647 C646 1.355 . S
C647 C649 1.419 . S
C648 C646 1.415 . S
C648 C653 1.425 . S
C648 C655 1.409 . S
C649 H641 0.930 . S
C649 C647 1.419 . S
C649 C650 1.362 . S
C650 H642 0.930 . S
C650 C649 1.362 . S
C650 C653 1.409 . S
C651 H643 0.930 . S
C651 C652 1.355 . S
C651 C653 1.415 . S
C652 C651 1.355 . S
C652 C654 1.419 . S
C653 C648 1.425 . S
C653 C650 1.409 . S
C653 C651 1.415 . S
C654 H644 0.930 . S
C654 C652 1.419 . S
C654 C655 1.362 . S
C655 H645 0.930 . S
C655 C648 1.409 . S
C655 C654 1.362 . S
H656 C662 0.930 . S
H657 C665 0.930 . S
H658 C666 0.930 . S
H659 C667 0.930 . S
H660 C670 0.930 . S
H661 C671 0.930 . S
C662 H656 0.930 . S
C662 C663 1.355 . S
C662 C664 1.415 . S
C663 C662 1.355 . S
C663 C665 1.419 . S
C664 C662 1.415 . S
C664 C669 1.425 . S
C664 C671 1.409 . S
C665 H657 0.930 . S
C665 C663 1.419 . S
C665 C666 1.362 . S
C666 H658 0.930 . S
C666 C665 1.362 . S
C666 C669 1.409 . S
C667 H659 0.930 . S
C667 C668 1.355 . S
C667 C669 1.415 . S
C668 C667 1.355 . S
C668 C670 1.419 . S
C669 C664 1.425 . S
C669 C666 1.409 . S
C669 C667 1.415 . S
C670 H660 0.930 . S
C670 C668 1.419 . S
C670 C671 1.362 . S
C671 H661 0.930 . S
C671 C664 1.409 . S
C671 C670 1.362 . S
H672 C678 0.930 . S
H673 C681 0.930 . S
H674 C682 0.930 . S
H675 C683 0.930 . S
H676 C686 0.930 . S
H677 C687 0.930 . S
C678 H672 0.930 . S
C678 C679 1.355 . S
C678 C680 1.415 . S
C679 C678 1.355 . S
C679 C681 1.419 . S
C680 C678 1.415 . S
C680 C685 1.425 . S
C680 C687 1.409 . S
C681 H673 0.930 . S
C681 C679 1.419 . S
C681 C682 1.362 . S
C682 H674 0.930 . S
C682 C681 1.362 . S
C682 C685 1.409 . S
C683 H675 0.930 . S
C683 C684 1.355 . S
C683 C685 1.415 . S
C684 C683 1.355 . S
C684 C686 1.419 . S
C685 C680 1.425 . S
C685 C682 1.409 . S
C685 C683 1.415 . S
C686 H676 0.930 . S
C686 C684 1.419 . S
C686 C687 1.362 . S
C687 H677 0.930 . S
C687 C680 1.409 . S
C687 C686 1.362 . S
H688 C694 0.930 . S
H689 C697 0.930 . S
H690 C698 0.930 . S
H691 C699 0.930 . S
H692 C702 0.930 . S
H693 C703 0.930 . S
C694 H688 0.930 . S
C694 C695 1.355 1_554 S
C694 C696 1.413 1_554 S
C695 C694 1.355 1_556 S
C695 C697 1.419 . S
C696 C694 1.413 1_556 S
C696 C701 1.432 . S
C696 C703 1.404 1_556 S
C697 H689 0.930 . S
C697 C695 1.419 . S
C697 C698 1.362 . S
C698 H690 0.930 . S
C698 C697 1.362 . S
C698 C701 1.409 . S
C699 H691 0.930 . S
C699 C700 1.355 . S
C699 C701 1.415 . S
C700 C699 1.355 . S
C700 C702 1.419 1_556 S
C701 C696 1.432 . S
C701 C698 1.409 . S
C701 C699 1.415 . S
C702 H692 0.930 . S
C702 C700 1.419 1_554 S
C702 C703 1.362 . S
C703 H693 0.930 . S
C703 C696 1.404 1_554 S
C703 C702 1.362 . S
H704 C710 0.930 . S
H705 C713 0.930 . S
H706 C714 0.930 . S
H707 C715 0.930 . S
H708 C718 0.930 . S
H709 C719 0.930 . S
C710 H704 0.930 . S
C710 C711 1.354 1_556 S
C710 C712 1.416 . S
C711 C710 1.354 1_554 S
C711 C713 1.419 . S
C712 C710 1.416 . S
C712 C717 1.425 . S
C712 C719 1.409 . S
C713 H705 0.930 . S
C713 C711 1.419 . S
C713 C714 1.362 . S
C714 H706 0.930 . S
C714 C713 1.362 . S
C714 C717 1.409 1_554 S
C715 H707 0.930 . S
C715 C716 1.355 . S
C715 C717 1.415 . S
C716 C715 1.355 . S
C716 C718 1.419 . S
C717 C712 1.425 . S
C717 C714 1.409 1_556 S
C717 C715 1.415 . S
C718 H708 0.930 . S
C718 C716 1.419 . S
C718 C719 1.362 . S
C719 H709 0.930 . S
C719 C712 1.409 . S
C719 C718 1.362 . S
H720 C726 0.930 . S
H721 C729 0.930 . S
H722 C730 0.930 . S
H723 C731 0.930 . S
H724 C734 0.930 . S
H725 C735 0.930 . S
C726 H720 0.930 . S
C726 C727 1.355 . S
C726 C728 1.415 . S
C727 C726 1.355 . S
C727 C729 1.419 . S
C728 C726 1.415 . S
C728 C733 1.425 . S
C728 C735 1.409 . S
C729 H721 0.930 . S
C729 C727 1.419 . S
C729 C730 1.362 . S
C730 H722 0.930 . S
C730 C729 1.362 . S
C730 C733 1.409 . S
C731 H723 0.930 . S
C731 C732 1.355 . S
C731 C733 1.415 . S
C732 C731 1.355 . S
C732 C734 1.419 . S
C733 C728 1.425 . S
C733 C730 1.409 . S
C733 C731 1.415 . S
C734 H724 0.930 . S
C734 C732 1.419 . S
C734 C735 1.362 . S
C735 H725 0.930 . S
C735 C728 1.409 . S
C735 C734 1.362 . S
H736 C742 0.930 . S
H737 C745 0.930 . S
H738 C746 0.930 . S
H739 C747 0.930 . S
H740 C750 0.930 . S
H741 C751 0.930 . S
C742 H736 0.930 . S
C742 C743 1.355 . S
C742 C744 1.415 . S
C743 C742 1.355 . S
C743 C745 1.419 1_455 S
C744 C742 1.415 . S
C744 C749 1.425 . S
C744 C751 1.409 . S
C745 H737 0.930 . S
C745 C743 1.419 1_655 S
C745 C746 1.362 . S
C746 H738 0.930 . S
C746 C745 1.362 . S
C746 C749 1.409 1_655 S
C747 H739 0.930 . S
C747 C748 1.355 1_655 S
C747 C749 1.415 1_655 S
C748 C747 1.355 1_455 S
C748 C750 1.419 . S
C749 C744 1.425 . S
C749 C746 1.409 1_455 S
C749 C747 1.415 1_455 S
C750 H740 0.930 . S
C750 C748 1.419 . S
C750 C751 1.362 . S
C751 H741 0.930 . S
C751 C744 1.409 . S
C751 C750 1.362 . S
H752 C758 0.930 . S
H753 C761 0.930 . S
H754 C762 0.930 . S
H755 C763 0.930 . S
H756 C766 0.930 . S
H757 C767 0.930 . S
C758 H752 0.930 . S
C758 C759 1.355 . S
C758 C760 1.415 . S
C759 C758 1.355 . S
C759 C761 1.419 1_655 S
C760 C758 1.415 . S
C760 C765 1.425 1_655 S
C760 C767 1.409 . S
C761 H753 0.930 . S
C761 C759 1.419 1_455 S
C761 C762 1.362 . S
C762 H754 0.930 . S
C762 C761 1.362 . S
C762 C765 1.409 . S
C763 H755 0.930 . S
C763 C764 1.355 1_455 S
C763 C765 1.415 . S
C764 C763 1.355 1_655 S
C764 C766 1.419 . S
C765 C760 1.425 1_455 S
C765 C762 1.409 . S
C765 C763 1.415 . S
C766 H756 0.930 . S
C766 C764 1.419 . S
C766 C767 1.362 . S
C767 H757 0.930 . S
C767 C760 1.409 . S
C767 C766 1.362 . S
H768 C774 0.930 . S
H769 C777 0.930 . S
H770 C778 0.930 . S
H771 C779 0.930 . S
H772 C782 0.930 . S
H773 C783 0.930 . S
C774 H768 0.930 . S
C774 C775 1.355 . S
C774 C776 1.415 . S
C775 C774 1.355 . S
C775 C777 1.419 . S
C776 C774 1.415 . S
C776 C781 1.425 . S
C776 C783 1.409 . S
C777 H769 0.930 . S
C777 C775 1.419 . S
C777 C778 1.362 . S
C778 H770 0.930 . S
C778 C777 1.362 . S
C778 C781 1.409 . S
C779 H771 0.930 . S
C779 C780 1.355 . S
C779 C781 1.415 . S
C780 C779 1.355 . S
C780 C782 1.419 . S
C781 C776 1.425 . S
C781 C778 1.409 . S
C781 C779 1.415 . S
C782 H772 0.930 . S
C782 C780 1.419 . S
C782 C783 1.362 . S
C783 H773 0.930 . S
C783 C776 1.409 . S
C783 C782 1.362 . S
H784 C790 0.928 . S
H785 C793 0.930 . S
H786 C794 0.930 . S
H787 C795 0.930 . S
H788 C798 0.930 . S
H789 C799 0.930 . S
C790 H784 0.928 . S
C790 C791 1.356 1_655 S
C790 C792 1.415 . S
C791 C790 1.356 1_455 S
C791 C793 1.419 . S
C792 C790 1.415 . S
C792 C797 1.425 1_655 S
C792 C799 1.409 . S
C793 H785 0.930 . S
C793 C791 1.419 . S
C793 C794 1.362 . S
C794 H786 0.930 . S
C794 C793 1.362 . S
C794 C797 1.409 . S
C795 H787 0.930 . S
C795 C796 1.355 1_455 S
C795 C797 1.415 . S
C796 C795 1.355 1_655 S
C796 C798 1.419 . S
C797 C792 1.425 1_455 S
C797 C794 1.409 . S
C797 C795 1.415 . S
C798 H788 0.930 . S
C798 C796 1.419 . S
C798 C799 1.362 . S
C799 H789 0.930 . S
C799 C792 1.409 . S
C799 C798 1.362 . S
H800 C806 0.930 . S
H801 C809 0.930 . S
H802 C810 0.930 . S
H803 C811 0.930 . S
H804 C814 0.930 . S
H805 C815 0.930 . S
C806 H800 0.930 . S
C806 C807 1.355 1_565 S
C806 C808 1.415 1_565 S
C807 C806 1.355 1_545 S
C807 C809 1.419 . S
C808 C806 1.415 1_545 S
C808 C813 1.425 . S
C808 C815 1.409 1_545 S
C809 H801 0.930 . S
C809 C807 1.419 . S
C809 C810 1.362 . S
C810 H802 0.930 . S
C810 C809 1.362 . S
C810 C813 1.409 . S
C811 H803 0.930 . S
C811 C812 1.355 . S
C811 C813 1.415 . S
C812 C811 1.355 . S
C812 C814 1.419 1_545 S
C813 C808 1.425 . S
C813 C810 1.409 . S
C813 C811 1.415 . S
C814 H804 0.930 . S
C814 C812 1.419 1_565 S
C814 C815 1.362 . S
C815 H805 0.930 . S
C815 C808 1.409 1_565 S
C815 C814 1.362 . S
H816 C822 0.930 . S
H817 C825 0.930 . S
H818 C826 0.930 . S
H819 C827 0.930 . S
H820 C830 0.930 . S
H821 C831 0.930 . S
C822 H816 0.930 . S
C822 C823 1.355 . S
C822 C824 1.415 . S
C823 C822 1.355 . S
C823 C825 1.419 . S
C824 C822 1.415 . S
C824 C829 1.425 . S
C824 C831 1.409 . S
C825 H817 0.930 . S
C825 C823 1.419 . S
C825 C826 1.362 . S
C826 H818 0.930 . S
C826 C825 1.362 . S
C826 C829 1.409 . S
C827 H819 0.930 . S
C827 C828 1.355 . S
C827 C829 1.415 . S
C828 C827 1.355 . S
C828 C830 1.419 . S
C829 C824 1.425 . S
C829 C826 1.409 . S
C829 C827 1.415 . S
C830 H820 0.930 . S
C830 C828 1.419 . S
C830 C831 1.362 . S
C831 H821 0.930 . S
C831 C824 1.409 . S
C831 C830 1.362 . S
H832 C838 0.930 . S
H833 C841 0.930 . S
H834 C842 0.930 . S
H835 C843 0.930 . S
H836 C846 0.930 . S
H837 C847 0.930 . S
C838 H832 0.930 . S
C838 C839 1.355 . S
C838 C840 1.415 . S
C839 C838 1.355 . S
C839 C841 1.419 1_565 S
C840 C838 1.415 . S
C840 C845 1.425 1_565 S
C840 C847 1.409 . S
C841 H833 0.930 . S
C841 C839 1.419 1_545 S
C841 C842 1.362 . S
C842 H834 0.930 . S
C842 C841 1.362 . S
C842 C845 1.409 . S
C843 H835 0.930 . S
C843 C844 1.355 1_545 S
C843 C845 1.415 . S
C844 C843 1.355 1_565 S
C844 C846 1.419 . S
C845 C840 1.425 1_545 S
C845 C842 1.409 . S
C845 C843 1.415 . S
C846 H836 0.930 . S
C846 C844 1.419 . S
C846 C847 1.362 . S
C847 H837 0.930 . S
C847 C840 1.409 . S
C847 C846 1.362 . S
H848 C854 0.930 . S
H849 C857 0.930 . S
H850 C858 0.930 . S
H851 C859 0.930 . S
H852 C862 0.930 . S
H853 C863 0.930 . S
C854 H848 0.930 . S
C854 C855 1.355 . S
C854 C856 1.415 . S
C855 C854 1.355 . S
C855 C857 1.419 . S
C856 C854 1.415 . S
C856 C861 1.425 . S
C856 C863 1.409 . S
C857 H849 0.930 . S
C857 C855 1.419 . S
C857 C858 1.362 . S
C858 H850 0.930 . S
C858 C857 1.362 . S
C858 C861 1.409 . S
C859 H851 0.930 . S
C859 C860 1.355 . S
C859 C861 1.415 . S
C860 C859 1.355 . S
C860 C862 1.419 . S
C861 C856 1.425 . S
C861 C858 1.409 . S
C861 C859 1.415 . S
C862 H852 0.930 . S
C862 C860 1.419 . S
C862 C863 1.362 . S
C863 H853 0.930 . S
C863 C856 1.409 . S
C863 C862 1.362 . S
H864 C870 0.930 . S
H865 C873 0.930 . S
H866 C874 0.930 . S
H867 C875 0.930 . S
H868 C878 0.930 . S
H869 C879 0.930 . S
C870 H864 0.930 . S
C870 C871 1.355 . S
C870 C872 1.415 . S
C871 C870 1.355 . S
C871 C873 1.419 . S
C872 C870 1.415 . S
C872 C877 1.425 . S
C872 C879 1.409 . S
C873 H865 0.930 . S
C873 C871 1.419 . S
C873 C874 1.362 . S
C874 H866 0.930 . S
C874 C873 1.362 . S
C874 C877 1.409 . S
C875 H867 0.930 . S
C875 C876 1.355 . S
C875 C877 1.415 . S
C876 C875 1.355 . S
C876 C878 1.419 . S
C877 C872 1.425 . S
C877 C874 1.409 . S
C877 C875 1.415 . S
C878 H868 0.930 . S
C878 C876 1.419 . S
C878 C879 1.362 . S
C879 H869 0.930 . S
C879 C872 1.409 . S
C879 C878 1.362 . S
H880 C886 0.930 . S
H881 C889 0.930 . S
H882 C890 0.930 . S
H883 C891 0.930 . S
H884 C894 0.930 . S
H885 C895 0.930 . S
C886 H880 0.930 . S
C886 C887 1.355 . S
C886 C888 1.415 . S
C887 C886 1.355 . S
C887 C889 1.419 . S
C888 C886 1.415 . S
C888 C893 1.425 . S
C888 C895 1.409 . S
C889 H881 0.930 . S
C889 C887 1.419 . S
C889 C890 1.362 . S
C890 H882 0.930 . S
C890 C889 1.362 . S
C890 C893 1.409 . S
C891 H883 0.930 . S
C891 C892 1.355 . S
C891 C893 1.415 . S
C892 C891 1.355 . S
C892 C894 1.419 . S
C893 C888 1.425 . S
C893 C890 1.409 . S
C893 C891 1.415 . S
C894 H884 0.930 . S
C894 C892 1.419 . S
C894 C895 1.362 . S
C895 H885 0.930 . S
C895 C888 1.409 . S
C895 C894 1.362 . S
H896 C902 0.930 . S
H897 C905 0.930 . S
H898 C906 0.930 . S
H899 C907 0.930 . S
H900 C910 0.930 . S
H901 C911 0.930 . S
C902 H896 0.930 . S
C902 C903 1.355 . S
C902 C904 1.415 . S
C903 C902 1.355 . S
C903 C905 1.419 . S
C904 C902 1.415 . S
C904 C909 1.425 . S
C904 C911 1.409 . S
C905 H897 0.930 . S
C905 C903 1.419 . S
C905 C906 1.362 . S
C906 H898 0.930 . S
C906 C905 1.362 . S
C906 C909 1.409 . S
C907 H899 0.930 . S
C907 C908 1.355 . S
C907 C909 1.415 . S
C908 C907 1.355 . S
C908 C910 1.419 . S
C909 C904 1.425 . S
C909 C906 1.409 . S
C909 C907 1.415 . S
C910 H900 0.930 . S
C910 C908 1.419 . S
C910 C911 1.362 . S
C911 H901 0.930 . S
C911 C904 1.409 . S
C911 C910 1.362 . S
H912 C918 0.930 . S
H913 C921 0.930 . S
H914 C922 0.930 . S
H915 C923 0.930 . S
H916 C926 0.930 . S
H917 C927 0.930 . S
C918 H912 0.930 . S
C918 C919 1.355 . S
C918 C920 1.415 . S
C919 C918 1.355 . S
C919 C921 1.419 . S
C920 C918 1.415 . S
C920 C925 1.425 . S
C920 C927 1.409 . S
C921 H913 0.930 . S
C921 C919 1.419 . S
C921 C922 1.362 . S
C922 H914 0.930 . S
C922 C921 1.362 . S
C922 C925 1.409 . S
C923 H915 0.930 . S
C923 C924 1.355 . S
C923 C925 1.415 . S
C924 C923 1.355 . S
C924 C926 1.419 . S
C925 C920 1.425 . S
C925 C922 1.409 . S
C925 C923 1.415 . S
C926 H916 0.930 . S
C926 C924 1.419 . S
C926 C927 1.362 . S
C927 H917 0.930 . S
C927 C920 1.409 . S
C927 C926 1.362 . S
H928 C934 0.930 . S
H929 C937 0.930 . S
H930 C938 0.930 . S
H931 C939 0.930 . S
H932 C942 0.930 . S
H933 C943 0.930 . S
C934 H928 0.930 . S
C934 C935 1.355 . S
C934 C936 1.415 . S
C935 C934 1.355 . S
C935 C937 1.419 . S
C936 C934 1.415 . S
C936 C941 1.425 . S
C936 C943 1.409 . S
C937 H929 0.930 . S
C937 C935 1.419 . S
C937 C938 1.362 . S
C938 H930 0.930 . S
C938 C937 1.362 . S
C938 C941 1.409 . S
C939 H931 0.930 . S
C939 C940 1.355 . S
C939 C941 1.415 . S
C940 C939 1.355 . S
C940 C942 1.419 . S
C941 C936 1.425 . S
C941 C938 1.409 . S
C941 C939 1.415 . S
C942 H932 0.930 . S
C942 C940 1.419 . S
C942 C943 1.362 . S
C943 H933 0.930 . S
C943 C936 1.409 . S
C943 C942 1.362 . S
H944 C950 0.930 . S
H945 C953 0.930 . S
H946 C954 0.930 . S
H947 C955 0.930 . S
H948 C958 0.930 . S
H949 C959 0.930 . S
C950 H944 0.930 . S
C950 C951 1.355 . S
C950 C952 1.415 . S
C951 C950 1.355 . S
C951 C953 1.419 . S
C952 C950 1.415 . S
C952 C957 1.425 . S
C952 C959 1.409 . S
C953 H945 0.930 . S
C953 C951 1.419 . S
C953 C954 1.362 . S
C954 H946 0.930 . S
C954 C953 1.362 . S
C954 C957 1.409 . S
C955 H947 0.930 . S
C955 C956 1.355 . S
C955 C957 1.415 . S
C956 C955 1.355 . S
C956 C958 1.419 . S
C957 C952 1.425 . S
C957 C954 1.409 . S
C957 C955 1.415 . S
C958 H948 0.930 . S
C958 C956 1.419 . S
C958 C959 1.362 . S
C959 H949 0.930 . S
C959 C952 1.409 . S
C959 C958 1.362 . S
H960 C966 0.930 . S
H961 C969 0.930 . S
H962 C970 0.930 . S
H963 C971 0.930 . S
H964 C974 0.930 . S
H965 C975 0.930 . S
C966 H960 0.930 . S
C966 C967 1.355 . S
C966 C968 1.415 . S
C967 C966 1.355 . S
C967 C969 1.419 . S
C968 C966 1.415 . S
C968 C973 1.425 . S
C968 C975 1.409 . S
C969 H961 0.930 . S
C969 C967 1.419 . S
C969 C970 1.362 . S
C970 H962 0.930 . S
C970 C969 1.362 . S
C970 C973 1.409 . S
C971 H963 0.930 . S
C971 C972 1.355 . S
C971 C973 1.415 . S
C972 C971 1.355 . S
C972 C974 1.419 . S
C973 C968 1.425 . S
C973 C970 1.409 . S
C973 C971 1.415 . S
C974 H964 0.930 . S
C974 C972 1.419 . S
C974 C975 1.362 . S
C975 H965 0.930 . S
C975 C968 1.409 . S
C975 C974 1.362 . S
H976 C982 0.930 . S
H977 C985 0.930 . S
H978 C986 0.930 . S
H979 C987 0.930 . S
H980 C990 0.930 . S
H981 C991 0.930 . S
C982 H976 0.930 . S
C982 C983 1.355 . S
C982 C984 1.415 . S
C983 C982 1.355 . S
C983 C985 1.419 . S
C984 C982 1.415 . S
C984 C989 1.425 . S
C984 C991 1.409 . S
C985 H977 0.930 . S
C985 C983 1.419 . S
C985 C986 1.362 . S
C986 H978 0.930 . S
C986 C985 1.362 . S
C986 C989 1.409 . S
C987 H979 0.930 . S
C987 C988 1.355 . S
C987 C989 1.415 . S
C988 C987 1.355 . S
C988 C990 1.419 . S
C989 C984 1.425 . S
C989 C986 1.409 . S
C989 C987 1.415 . S
C990 H980 0.930 . S
C990 C988 1.419 . S
C990 C991 1.362 . S
C991 H981 0.930 . S
C991 C984 1.409 . S
C991 C990 1.362 . S
H992 C998 0.930 . S
H993 C1001 0.930 . S
H994 C1002 0.930 . S
H995 C1003 0.930 . S
H996 C1006 0.930 . S
H997 C1007 0.930 . S
C998 H992 0.930 . S
C998 C999 1.355 . S
C998 C1000 1.415 . S
C999 C998 1.355 . S
C999 C1001 1.419 . S
C1000 C998 1.415 . S
C1000 C1005 1.425 . S
C1000 C1007 1.409 . S
C1001 H993 0.930 . S
C1001 C999 1.419 . S
C1001 C1002 1.362 . S
C1002 H994 0.930 . S
C1002 C1001 1.362 . S
C1002 C1005 1.409 . S
C1003 H995 0.930 . S
C1003 C1004 1.355 . S
C1003 C1005 1.415 . S
C1004 C1003 1.355 . S
C1004 C1006 1.419 . S
C1005 C1000 1.425 . S
C1005 C1002 1.409 . S
C1005 C1003 1.415 . S
C1006 H996 0.930 . S
C1006 C1004 1.419 . S
C1006 C1007 1.362 . S
C1007 H997 0.930 . S
C1007 C1000 1.409 . S
C1007 C1006 1.362 . S
H1008 C1014 0.930 . S
H1009 C1017 0.930 . S
H1010 C1018 0.930 . S
H1011 C1019 0.930 . S
H1012 C1022 0.930 . S
H1013 C1023 0.933 . S
C1014 H1008 0.930 . S
C1014 C1015 1.355 . S
C1014 C1016 1.415 1_545 S
C1015 C1014 1.355 . S
C1015 C1017 1.419 1_545 S
C1016 C1014 1.415 1_565 S
C1016 C1021 1.425 . S
C1016 C1023 1.409 . S
C1017 H1009 0.930 . S
C1017 C1015 1.419 1_565 S
C1017 C1018 1.362 . S
C1018 H1010 0.930 . S
C1018 C1017 1.362 . S
C1018 C1021 1.409 . S
C1019 H1011 0.930 . S
C1019 C1020 1.355 . S
C1019 C1021 1.415 . S
C1020 C1019 1.355 . S
C1020 C1022 1.419 . S
C1021 C1016 1.425 . S
C1021 C1018 1.409 . S
C1021 C1019 1.415 . S
C1022 H1012 0.930 . S
C1022 C1020 1.419 . S
C1022 C1023 1.362 . S
C1023 H1013 0.933 . S
C1023 C1016 1.409 . S
C1023 C1022 1.362 . S
H1024 C1030 0.930 . S
H1025 C1033 0.930 . S
H1026 C1034 0.930 . S
H1027 C1035 0.930 . S
H1028 C1038 0.930 . S
H1029 C1039 0.930 . S
C1030 H1024 0.930 . S
C1030 C1031 1.355 . S
C1030 C1032 1.415 . S
C1031 C1030 1.355 . S
C1031 C1033 1.419 . S
C1032 C1030 1.415 . S
C1032 C1037 1.425 . S
C1032 C1039 1.409 . S
C1033 H1025 0.930 . S
C1033 C1031 1.419 . S
C1033 C1034 1.362 . S
C1034 H1026 0.930 . S
C1034 C1033 1.362 . S
C1034 C1037 1.409 . S
C1035 H1027 0.930 . S
C1035 C1036 1.355 . S
C1035 C1037 1.415 . S
C1036 C1035 1.355 . S
C1036 C1038 1.419 . S
C1037 C1032 1.425 . S
C1037 C1034 1.409 . S
C1037 C1035 1.415 . S
C1038 H1028 0.930 . S
C1038 C1036 1.419 . S
C1038 C1039 1.362 . S
C1039 H1029 0.930 . S
C1039 C1032 1.409 . S
C1039 C1038 1.362 . S
H1040 C1046 0.930 . S
H1041 C1049 0.930 1_565 S
H1042 C1050 0.930 . S
H1043 C1051 0.930 1_565 S
H1044 C1054 0.930 . S
H1045 C1055 0.930 . S
C1046 H1040 0.930 . S
C1046 C1047 1.355 . S
C1046 C1048 1.415 . S
C1047 C1046 1.355 . S
C1047 C1049 1.419 . S
C1048 C1046 1.415 . S
C1048 C1053 1.425 . S
C1048 C1055 1.409 . S
C1049 H1041 0.930 1_545 S
C1049 C1047 1.419 . S
C1049 C1050 1.362 1_545 S
C1050 H1042 0.930 . S
C1050 C1049 1.362 1_565 S
C1050 C1053 1.409 1_565 S
C1051 H1043 0.930 1_545 S
C1051 C1052 1.355 . S
C1051 C1053 1.415 . S
C1052 C1051 1.355 . S
C1052 C1054 1.419 . S
C1053 C1048 1.425 . S
C1053 C1050 1.409 1_545 S
C1053 C1051 1.415 . S
C1054 H1044 0.930 . S
C1054 C1052 1.419 . S
C1054 C1055 1.362 . S
C1055 H1045 0.930 . S
C1055 C1048 1.409 . S
C1055 C1054 1.362 . S
H1056 C1062 0.930 . S
H1057 C1065 0.930 . S
H1058 C1066 0.930 . S
H1059 C1067 0.930 . S
H1060 C1070 0.930 . S
H1061 C1071 0.930 . S
C1062 H1056 0.930 . S
C1062 C1063 1.355 . S
C1062 C1064 1.415 . S
C1063 C1062 1.355 . S
C1063 C1065 1.419 . S
C1064 C1062 1.415 . S
C1064 C1069 1.425 . S
C1064 C1071 1.409 . S
C1065 H1057 0.930 . S
C1065 C1063 1.419 . S
C1065 C1066 1.362 . S
C1066 H1058 0.930 . S
C1066 C1065 1.362 . S
C1066 C1069 1.409 . S
C1067 H1059 0.930 . S
C1067 C1068 1.355 . S
C1067 C1069 1.415 . S
C1068 C1067 1.355 . S
C1068 C1070 1.419 . S
C1069 C1064 1.425 . S
C1069 C1066 1.409 . S
C1069 C1067 1.415 . S
C1070 H1060 0.930 . S
C1070 C1068 1.419 . S
C1070 C1071 1.362 . S
C1071 H1061 0.930 . S
C1071 C1064 1.409 . S
C1071 C1070 1.362 . S
H1072 C1078 0.930 . S
H1073 C1081 0.930 . S
H1074 C1082 0.930 . S
H1075 C1083 0.930 1_554 S
H1076 C1086 0.930 . S
H1077 C1087 0.930 . S
C1078 H1072 0.930 . S
C1078 C1079 1.355 . S
C1078 C1080 1.415 . S
C1079 C1078 1.355 . S
C1079 C1081 1.419 1_556 S
C1080 C1078 1.415 . S
C1080 C1085 1.425 . S
C1080 C1087 1.409 . S
C1081 H1073 0.930 . S
C1081 C1079 1.419 1_554 S
C1081 C1082 1.362 . S
C1082 H1074 0.930 . S
C1082 C1081 1.362 . S
C1082 C1085 1.409 1_554 S
C1083 H1075 0.930 1_556 S
C1083 C1084 1.355 . S
C1083 C1085 1.415 . S
C1084 C1083 1.355 . S
C1084 C1086 1.419 . S
C1085 C1080 1.425 . S
C1085 C1082 1.409 1_556 S
C1085 C1083 1.415 . S
C1086 H1076 0.930 . S
C1086 C1084 1.419 . S
C1086 C1087 1.362 . S
C1087 H1077 0.930 . S
C1087 C1080 1.409 . S
C1087 C1086 1.362 . S
H1088 C1094 0.928 1_556 S
H1089 C1097 0.930 . S
H1090 C1098 0.930 . S
H1091 C1099 0.930 . S
H1092 C1102 0.930 . S
H1093 C1103 0.930 . S
C1094 H1088 0.928 1_554 S
C1094 C1095 1.358 . S
C1094 C1096 1.413 1_554 S
C1095 C1094 1.358 . S
C1095 C1097 1.419 . S
C1096 C1094 1.413 1_556 S
C1096 C1101 1.425 1_556 S
C1096 C1103 1.409 . S
C1097 H1089 0.930 . S
C1097 C1095 1.419 . S
C1097 C1098 1.362 . S
C1098 H1090 0.930 . S
C1098 C1097 1.362 . S
C1098 C1101 1.409 . S
C1099 H1091 0.930 . S
C1099 C1100 1.355 . S
C1099 C1101 1.415 1_556 S
C1100 C1099 1.355 . S
C1100 C1102 1.419 . S
C1101 C1096 1.425 1_554 S
C1101 C1098 1.409 . S
C1101 C1099 1.415 1_554 S
C1102 H1092 0.930 . S
C1102 C1100 1.419 . S
C1102 C1103 1.362 . S
C1103 H1093 0.930 . S
C1103 C1096 1.409 . S
C1103 C1102 1.362 . S
H1104 C1110 0.930 . S
H1105 C1113 0.930 . S
H1106 C1114 0.930 . S
H1107 C1115 0.930 1_556 S
H1108 C1118 0.930 . S
H1109 C1119 0.930 . S
C1110 H1104 0.930 . S
C1110 C1111 1.355 . S
C1110 C1112 1.415 . S
C1111 C1110 1.355 . S
C1111 C1113 1.419 1_554 S
C1112 C1110 1.415 . S
C1112 C1117 1.425 . S
C1112 C1119 1.409 . S
C1113 H1105 0.930 . S
C1113 C1111 1.419 1_556 S
C1113 C1114 1.362 . S
C1114 H1106 0.930 . S
C1114 C1113 1.362 . S
C1114 C1117 1.409 1_556 S
C1115 H1107 0.930 1_554 S
C1115 C1116 1.355 . S
C1115 C1117 1.415 . S
C1116 C1115 1.355 . S
C1116 C1118 1.419 . S
C1117 C1112 1.425 . S
C1117 C1114 1.409 1_554 S
C1117 C1115 1.415 . S
C1118 H1108 0.930 . S
C1118 C1116 1.419 . S
C1118 C1119 1.362 . S
C1119 H1109 0.930 . S
C1119 C1112 1.409 . S
C1119 C1118 1.362 . S
C359 C13 1.572 . S
C364 C231 1.558 . S
C380 C257 1.615 . S
C375 C1 1.624 . S
C396 C189 1.626 . S
C391 C27 1.633 . S
C407 C15 1.417 . S
C412 C212 1.417 . S
C423 C28 1.480 . S
C428 C346 1.470 . S
C439 C55 1.392 . S
C444 C327 1.418 . S
C460 C280 1.649 . S
C455 C40 1.663 . S
C471 C43 1.680 . S
C476 C303 1.690 . S
C492 C208 1.660 . S
C487 C56 1.651 . S
C508 C258 1.420 . S
C503 C83 1.436 . S
C519 C96 1.583 . S
C524 C234 1.587 . S
C535 C71 1.675 . S
C540 C300 1.636 . S
C556 C323 1.562 . S
C551 C99 1.593 . S
C572 C349 1.589 . S
C567 C111 1.651 . S
C583 C113 1.601 . S
C588 C304 1.631 . S
C604 C281 1.416 . S
C599 C125 1.420 . S
C615 C139 1.480 . S
C620 C254 1.492 . S
C631 C153 1.379 . S
C636 C235 1.416 . S
C652 C211 1.653 . S
C647 C127 1.660 . S
C663 C141 1.703 . S
C668 C188 1.646 . S
C684 C277 1.656 . S
C679 C84 1.647 . S
C700 C350 1.423 . S
C695 C154 1.428 . S
C711 C68 1.600 . S
C716 C326 1.534 . S
C727 C166 1.666 . S
C732 C185 1.672 . S
C748 C187 1.264 . S
C743 C0 1.349 . S
C759 C12 1.473 . S
C764 C210 1.367 . S
C780 C232 1.277 . S
C775 C14 1.267 . S
C796 C253 1.324 . S
C791 C26 1.358 . S
C807 C41 1.428 . S
C812 C184 1.436 . S
C823 C42 1.413 . S
C828 C207 1.425 . S
C844 C233 1.342 . S
C839 C29 1.454 . S
C855 C54 1.379 . S
C860 C255 1.356 . S
C871 C69 1.281 . S
C876 C186 1.290 . S
C892 C230 1.338 . S
C887 C70 1.359 . S
C903 C85 1.454 . S
C908 C256 1.348 . S
C919 C82 1.241 . S
C924 C278 1.252 . S
C940 C302 1.300 . S
C935 C110 1.345 . S
C951 C98 1.491 . S
C956 C279 1.356 . S
C967 C124 1.228 . S
C972 C324 1.251 . S
C983 C112 1.369 . S
C988 C345 1.328 . S
C999 C126 1.417 . S
C1004 C299 1.440 . S
C1020 C276 1.386 . S
C1015 C140 1.434 . S
C1031 C138 1.454 . S
C1036 C325 1.349 . S
C1052 C347 1.374 . S
C1047 C152 1.333 . S
C1068 C301 1.286 . S
C1063 C97 1.289 . S
C1084 C322 1.367 . S
C1079 C167 1.344 . S
C1100 C348 1.341 . S
C1095 C57 1.451 . S
C1111 C155 1.199 . S
C1116 C209 1.238 . S
