# Generated by pormake.
# Topology tsx, (6,3)-cn, num edge types: 1
# Building blocks:
#     Node 0, Type 0, BuildingBlock: JUFBIX_clean_sbu_0, # of connection points: 6
#     Node 1, Type 0, BuildingBlock: JUFBIX_clean_sbu_0, # of connection points: 6
#     Node 2, Type 1, BuildingBlock: OLANEW_clean_sbu_2, # of connection points: 3
#     Node 3, Type 1, BuildingBlock: OLANEW_clean_sbu_2, # of connection points: 3
#     Node 4, Type 1, BuildingBlock: OLANEW_clean_sbu_2, # of connection points: 3
#     Node 5, Type 1, BuildingBlock: OLANEW_clean_sbu_2, # of connection points: 3
#     Edge 6, Type (0, 1), BuildingBlock: XUDNAN_clean_linker_2, # of connection points: 2
#     Edge 7, Type (0, 1), BuildingBlock: XUDNAN_clean_linker_2, # of connection points: 2
#     Edge 8, Type (0, 1), BuildingBlock: XUDNAN_clean_linker_2, # of connection points: 2
#     Edge 9, Type (0, 1), BuildingBlock: XUDNAN_clean_linker_2, # of connection points: 2
#     Edge 10, Type (0, 1), BuildingBlock: XUDNAN_clean_linker_2, # of connection points: 2
#     Edge 11, Type (0, 1), BuildingBlock: XUDNAN_clean_linker_2, # of connection points: 2
#     Edge 12, Type (0, 1), BuildingBlock: XUDNAN_clean_linker_2, # of connection points: 2
#     Edge 13, Type (0, 1), BuildingBlock: XUDNAN_clean_linker_2, # of connection points: 2
#     Edge 14, Type (0, 1), BuildingBlock: XUDNAN_clean_linker_2, # of connection points: 2
#     Edge 15, Type (0, 1), BuildingBlock: XUDNAN_clean_linker_2, # of connection points: 2
#     Edge 16, Type (0, 1), BuildingBlock: XUDNAN_clean_linker_2, # of connection points: 2
#     Edge 17, Type (0, 1), BuildingBlock: XUDNAN_clean_linker_2, # of connection points: 2
# Relax obj value: 0.062
# Max RMSD: 0.104
# Mean RMSD: 0.074
data_MOF--net-tsx--node1-JUFBIX_clean_sbu_0--node2-OLANEW_clean_sbu_2--edge1-XUDNAN_clean_linker_2
_symmetry_space_group_name_H-M    P1
_symmetry_Int_Tables_number       1
_symmetry_cell_setting            triclinic
loop_
_symmetry_equiv_pos_as_xyz
'x, y, z'
_cell_length_a     22.325181
_cell_length_b     25.963783
_cell_length_c     33.353097
_cell_angle_alpha  98.025605
_cell_angle_beta   89.272871
_cell_angle_gamma 98.735823
loop_
_atom_site_label
_atom_site_type_symbol
_atom_site_fract_x
_atom_site_fract_y
_atom_site_fract_z
_atom_type_partial_charge
Co0 Co 0.04532 0.97444 0.01952 0.0
C1 C 0.00892 0.99729 0.94543 0.0
Co2 Co 0.97975 0.03087 0.02494 0.0
C3 C 0.10564 0.88074 0.00604 0.0
C4 C 0.16402 0.95061 0.03106 0.0
N5 N 0.10711 0.93314 0.01685 0.0
N6 N 0.15925 0.86522 0.01323 0.0
C7 C 0.19603 0.90941 0.02852 0.0
H8 H 0.06542 0.85422 0.99476 0.0
H9 H 0.18117 0.9905 0.04411 0.0
C10 C 0.01709 0.00946 0.09892 0.0
N11 N 0.9186 0.07203 0.03047 0.0
C12 C 0.91375 0.1174 0.01616 0.0
C13 C 0.86828 0.06216 0.05268 0.0
N14 N 0.86211 0.13583 0.02847 0.0
C15 C 0.83348 0.10104 0.05138 0.0
C16 C 0.93025 0.9231 0.01938 0.0
O17 O 0.0482 0.97942 0.07716 0.0
O18 O 0.98354 0.03545 0.08194 0.0
O19 O 0.92053 0.97034 0.02223 0.0
O20 O 0.98455 0.91382 0.01759 0.0
O21 O 0.97715 0.02646 0.96775 0.0
H22 H 0.85807 0.02924 0.06953 0.0
H23 H 0.94743 0.13651 0.99724 0.0
O24 O 0.04207 0.96997 0.96185 0.0
O25 O 0.10464 0.036 0.02128 0.0
O26 O 0.03905 0.09117 0.02763 0.0
C27 C 0.09359 0.08295 0.02512 0.0
H28 H 0.24279 0.91202 0.03776 0.0
H29 H 0.79127 0.10432 0.06716 0.0
Co30 Co 0.56088 0.4543 0.49479 0.0
C31 C 0.51913 0.49342 0.42888 0.0
Co32 Co 0.50209 0.51501 0.51165 0.0
C33 C 0.61613 0.3615 0.49942 0.0
C34 C 0.65611 0.40597 0.45383 0.0
N35 N 0.61106 0.40395 0.48114 0.0
N36 N 0.66319 0.33754 0.48505 0.0
C37 C 0.68828 0.36531 0.45622 0.0
H38 H 0.58774 0.34997 0.52419 0.0
H39 H 0.66633 0.43628 0.4345 0.0
C40 C 0.5444 0.47638 0.57741 0.0
N41 N 0.45352 0.56638 0.52607 0.0
C42 C 0.40201 0.57362 0.50826 0.0
C43 C 0.46463 0.60676 0.55645 0.0
N44 N 0.38085 0.61721 0.52617 0.0
C45 C 0.42019 0.63805 0.55656 0.0
C46 C 0.439 0.41366 0.49927 0.0
O47 O 0.56989 0.4482 0.55023 0.0
O48 O 0.51219 0.50876 0.5671 0.0
O49 O 0.43361 0.46192 0.50863 0.0
O50 O 0.49125 0.40112 0.49118 0.0
O51 O 0.49267 0.52099 0.45605 0.0
H52 H 0.50313 0.61341 0.57689 0.0
H53 H 0.38145 0.5482 0.48197 0.0
O54 O 0.55141 0.46105 0.43928 0.0
O55 O 0.63008 0.50804 0.49895 0.0
O56 O 0.57086 0.56758 0.51488 0.0
C57 C 0.62369 0.55599 0.50852 0.0
H58 H 0.72768 0.3573 0.43856 0.0
H59 H 0.41706 0.67336 0.57748 0.0
O60 O 0.0154 0.93388 0.39464 0.0
Cd61 Cd 0.0005 0.90615 0.46176 0.0
O62 O 0.01469 0.01708 0.41901 0.0
Cd63 Cd 0.99075 0.01043 0.48191 0.0
O64 O 0.93572 0.06528 0.51417 0.0
C65 C 0.8804 0.0517 0.52256 0.0
O66 O 0.85731 0.00156 0.51654 0.0
C67 C 0.01993 0.98181 0.3892 0.0
C68 C 0.07066 0.82871 0.47261 0.0
O69 O 0.01689 0.81629 0.45777 0.0
O70 O 0.09103 0.87769 0.48249 0.0
O71 O 0.97785 0.12376 0.66842 0.0
Cd72 Cd 0.9581 0.15321 0.60376 0.0
O73 O 0.99368 0.05043 0.63219 0.0
Cd74 Cd 0.00215 0.96714 0.6185 0.0
O75 O 0.96842 0.88582 0.59395 0.0
C76 C 0.91191 0.87767 0.58635 0.0
O77 O 0.88125 0.9173 0.59387 0.0
C78 C 0.9904 0.0774 0.66684 0.0
C79 C 0.06401 0.19663 0.56806 0.0
O80 O 0.03249 0.22565 0.59119 0.0
O81 O 0.04532 0.14699 0.5617 0.0
O82 O 0.5615 0.46935 0.89614 0.0
Cd83 Cd 0.56017 0.48459 0.9698 0.0
O84 O 0.54069 0.54752 0.88888 0.0
Cd85 Cd 0.51554 0.56557 0.95193 0.0
O86 O 0.4399 0.5963 0.98336 0.0
C87 C 0.38814 0.578 0.96762 0.0
O88 O 0.38424 0.53953 0.93721 0.0
C89 C 0.5547 0.50347 0.87346 0.0
C90 C 0.64192 0.42414 0.99392 0.0
O91 O 0.58531 0.40599 0.98989 0.0
O92 O 0.65946 0.47194 0.98838 0.0
O93 O 0.45106 0.65472 0.17053 0.0
Cd94 Cd 0.43118 0.68293 0.10582 0.0
O95 O 0.46358 0.58457 0.1292 0.0
Cd96 Cd 0.4703 0.50189 0.111 0.0
O97 O 0.43328 0.42079 0.08928 0.0
C98 C 0.37579 0.41152 0.08766 0.0
O99 O 0.34503 0.45031 0.09911 0.0
C100 C 0.46372 0.60825 0.16525 0.0
C101 C 0.54114 0.71704 0.0709 0.0
O102 O 0.51056 0.74956 0.09127 0.0
O103 O 0.51904 0.66805 0.06618 0.0
H104 H 0.0884 0.18779 0.04779 0.0
H105 H 0.21318 0.07761 0.00994 0.0
H106 H 0.29886 0.15043 0.01912 0.0
H107 H 0.16763 0.29792 0.00141 0.0
H108 H 0.15167 0.34616 0.0429 0.0
H109 H 0.0998 0.28578 0.03072 0.0
H110 H 0.10829 0.26638 0.1044 0.0
H111 H 0.16039 0.32648 0.11678 0.0
H112 H 0.1819 0.26473 0.12536 0.0
H113 H 0.37139 0.23423 0.03577 0.0
H114 H 0.4256 0.32369 0.05819 0.0
H115 H 0.25338 0.3787 0.08548 0.0
C116 C 0.13364 0.17909 0.04088 0.0
C117 C 0.14414 0.1271 0.02809 0.0
C118 C 0.20409 0.11718 0.01985 0.0
C119 C 0.25306 0.15827 0.02488 0.0
C120 C 0.24126 0.20896 0.03815 0.0
C121 C 0.18307 0.21956 0.04593 0.0
C122 C 0.183 0.27711 0.06158 0.0
C123 C 0.14849 0.30328 0.0324 0.0
C124 C 0.15686 0.28405 0.10458 0.0
C125 C 0.2503 0.29709 0.06167 0.0
C126 C 0.28312 0.25723 0.04792 0.0
C127 C 0.3462 0.2659 0.04635 0.0
C128 C 0.37656 0.31677 0.05923 0.0
C129 C 0.34373 0.35816 0.07351 0.0
C130 C 0.27979 0.34799 0.07452 0.0
H131 H 0.24745 0.83041 0.0528 0.0
H132 H 0.10675 0.78075 0.96091 0.0
H133 H 0.14043 0.69358 0.94745 0.0
H134 H 0.36008 0.77752 0.99841 0.0
H135 H 0.39592 0.75862 0.04109 0.0
H136 H 0.35345 0.81259 0.04849 0.0
H137 H 0.28682 0.76693 0.10144 0.0
H138 H 0.32886 0.71241 0.09394 0.0
H139 H 0.2477 0.70087 0.08763 0.0
H140 H 0.19812 0.61678 0.93785 0.0
H141 H 0.27708 0.55935 0.93011 0.0
H142 H 0.38218 0.6616 0.02669 0.0
C143 C 0.22319 0.80129 0.03002 0.0
C144 C 0.17454 0.8127 0.00774 0.0
C145 C 0.14368 0.77285 0.97867 0.0
C146 C 0.16252 0.72321 0.97085 0.0
C147 C 0.21189 0.714 0.99261 0.0
C148 C 0.24166 0.75202 0.02168 0.0
C149 C 0.29727 0.73476 0.03791 0.0
C150 C 0.35505 0.77313 0.03103 0.0
C151 C 0.28968 0.72835 0.0829 0.0
C152 C 0.29615 0.68212 0.01186 0.0
C153 C 0.2457 0.67015 0.98669 0.0
C154 C 0.23727 0.62537 0.95782 0.0
C155 C 0.28247 0.59299 0.95365 0.0
C156 C 0.33589 0.60607 0.97776 0.0
C157 C 0.34166 0.6503 0.00807 0.0
H158 H 0.81245 0.93572 0.02979 0.0
H159 H 0.92929 0.81539 0.01134 0.0
H160 H 0.83976 0.74707 0.01647 0.0
H161 H 0.72358 0.88251 0.10459 0.0
H162 H 0.65452 0.90176 0.08839 0.0
H163 H 0.72644 0.93933 0.07871 0.0
H164 H 0.70049 0.92627 0.00206 0.0
H165 H 0.62831 0.88857 0.01146 0.0
H166 H 0.67966 0.86063 0.97557 0.0
H167 H 0.73617 0.69283 0.02727 0.0
H168 H 0.63158 0.65896 0.04668 0.0
H169 H 0.58716 0.81739 0.06033 0.0
C170 C 0.81952 0.895 0.02622 0.0
C171 C 0.87789 0.88084 0.01996 0.0
C172 C 0.88488 0.82706 0.01598 0.0
C173 C 0.83431 0.78808 0.01874 0.0
C174 C 0.77741 0.80374 0.02546 0.0
C175 C 0.77011 0.85607 0.02921 0.0
C176 C 0.70564 0.86378 0.0392 0.0
C177 C 0.70239 0.89889 0.08015 0.0
C178 C 0.67684 0.88612 0.00503 0.0
C179 C 0.67757 0.80764 0.04141 0.0
C180 C 0.71915 0.77328 0.03275 0.0
C181 C 0.70331 0.71943 0.03389 0.0
C182 C 0.64383 0.70056 0.04486 0.0
C183 C 0.60146 0.73565 0.05511 0.0
C184 C 0.61859 0.78964 0.05273 0.0
H185 H 0.74605 0.1523 0.02293 0.0
H186 H 0.93248 0.22777 0.01735 0.0
H187 H 0.89673 0.31161 0.00942 0.0
H188 H 0.68524 0.22002 0.94949 0.0
H189 H 0.61505 0.22397 0.97623 0.0
H190 H 0.65611 0.1704 0.98048 0.0
H191 H 0.65796 0.19426 0.05863 0.0
H192 H 0.61744 0.24826 0.0546 0.0
H193 H 0.68917 0.25996 0.08106 0.0
H194 H 0.83946 0.38784 0.00439 0.0
H195 H 0.7659 0.44838 0.99755 0.0
H196 H 0.61772 0.32151 0.00711 0.0
C197 C 0.77941 0.18647 0.02015 0.0
C198 C 0.84201 0.18369 0.02095 0.0
C199 C 0.88428 0.22901 0.01645 0.0
C200 C 0.86439 0.2768 0.01226 0.0
C201 C 0.8022 0.27832 0.01244 0.0
C202 C 0.7604 0.23415 0.01588 0.0
C203 C 0.69613 0.24569 0.01487 0.0
C204 C 0.66109 0.2131 0.97807 0.0
C205 C 0.66327 0.23651 0.05466 0.0
C206 C 0.70812 0.30347 0.01052 0.0
C207 C 0.7695 0.32173 0.00932 0.0
C208 C 0.79131 0.37393 0.00524 0.0
C209 C 0.74918 0.40804 0.00154 0.0
C210 C 0.68608 0.38968 0.00185 0.0
C211 C 0.66562 0.33684 0.00688 0.0
H212 H 0.6232 0.66078 0.53211 0.0
H213 H 0.74422 0.54609 0.49874 0.0
H214 H 0.83244 0.61657 0.51265 0.0
H215 H 0.71161 0.76932 0.49021 0.0
H216 H 0.69338 0.81746 0.53106 0.0
H217 H 0.64058 0.7583 0.51632 0.0
H218 H 0.64 0.73707 0.59002 0.0
H219 H 0.69293 0.79599 0.60498 0.0
H220 H 0.71064 0.73319 0.61419 0.0
H221 H 0.90755 0.70011 0.53364 0.0
H222 H 0.96217 0.78887 0.55889 0.0
H223 H 0.79004 0.84667 0.57792 0.0
C224 C 0.66817 0.65038 0.52723 0.0
C225 C 0.67683 0.59794 0.51421 0.0
C226 C 0.73653 0.58608 0.50858 0.0
C227 C 0.78687 0.62582 0.51641 0.0
C228 C 0.77659 0.67708 0.52972 0.0
C229 C 0.71861 0.68932 0.5349 0.0
C230 C 0.71931 0.74684 0.55074 0.0
C231 C 0.68947 0.77461 0.52025 0.0
C232 C 0.68894 0.75364 0.59245 0.0
C233 C 0.7868 0.7652 0.55395 0.0
C234 C 0.81929 0.72458 0.54168 0.0
C235 C 0.8825 0.73222 0.54312 0.0
C236 C 0.91311 0.78268 0.55759 0.0
C237 C 0.88035 0.82467 0.57034 0.0
C238 C 0.81646 0.81555 0.56819 0.0
H239 H 0.78009 0.32167 0.48899 0.0
H240 H 0.5957 0.25453 0.5134 0.0
H241 H 0.63296 0.17721 0.53454 0.0
H242 H 0.82912 0.20577 0.44588 0.0
H243 H 0.90432 0.22164 0.46759 0.0
H244 H 0.86334 0.27352 0.45875 0.0
H245 H 0.87715 0.31358 0.53435 0.0
H246 H 0.91786 0.26139 0.54344 0.0
H247 H 0.85207 0.27343 0.57308 0.0
H248 H 0.68972 0.10286 0.54513 0.0
H249 H 0.76069 0.03832 0.54447 0.0
H250 H 0.90823 0.1564 0.51577 0.0
C251 C 0.74761 0.29085 0.49905 0.0
C252 C 0.68496 0.29387 0.49939 0.0
C253 C 0.6439 0.25307 0.5132 0.0
C254 C 0.66469 0.20911 0.52526 0.0
C255 C 0.72679 0.20707 0.52404 0.0
C256 C 0.76768 0.24719 0.51165 0.0
C257 C 0.83166 0.23445 0.51104 0.0
C258 C 0.85865 0.23378 0.46828 0.0
C259 C 0.87206 0.27301 0.54235 0.0
C260 C 0.82015 0.1799 0.52332 0.0
C261 C 0.75952 0.16494 0.53115 0.0
C262 C 0.73745 0.11451 0.53979 0.0
C263 C 0.7781 0.0781 0.53935 0.0
C264 C 0.84008 0.09231 0.5303 0.0
C265 C 0.86137 0.14443 0.52343 0.0
H266 H 0.32683 0.42716 0.52872 0.0
H267 H 0.43058 0.30741 0.47413 0.0
H268 H 0.34291 0.23876 0.48156 0.0
H269 H 0.2585 0.35595 0.60323 0.0
H270 H 0.18687 0.37965 0.60167 0.0
H271 H 0.25524 0.4195 0.58814 0.0
H272 H 0.2081 0.42484 0.51851 0.0
H273 H 0.13934 0.38516 0.53188 0.0
H274 H 0.17858 0.36502 0.48616 0.0
H275 H 0.24546 0.18293 0.49859 0.0
H276 H 0.14759 0.14432 0.52533 0.0
H277 H 0.10979 0.30109 0.57047 0.0
C278 C 0.33089 0.3866 0.51762 0.0
C279 C 0.38544 0.37266 0.50054 0.0
C280 C 0.38913 0.31902 0.48711 0.0
C281 C 0.33955 0.27979 0.49115 0.0
C282 C 0.28676 0.29489 0.50874 0.0
C283 C 0.28219 0.34705 0.52174 0.0
C284 C 0.22205 0.35281 0.54198 0.0
C285 C 0.23125 0.37848 0.58638 0.0
C286 C 0.18482 0.38378 0.5182 0.0
C287 C 0.19377 0.29563 0.53901 0.0
C288 C 0.23143 0.26283 0.51932 0.0
C289 C 0.21548 0.20827 0.51384 0.0
C290 C 0.15982 0.18672 0.52916 0.0
C291 C 0.12108 0.21967 0.55006 0.0
C292 C 0.13833 0.27482 0.55464 0.0
H293 H 0.36613 0.72006 0.53564 0.0
H294 H 0.2772 0.56266 0.49037 0.0
H295 H 0.18716 0.59942 0.47156 0.0
H296 H 0.23478 0.76954 0.57888 0.0
H297 H 0.25668 0.83424 0.56473 0.0
H298 H 0.31384 0.79528 0.57418 0.0
H299 H 0.35848 0.80435 0.50294 0.0
H300 H 0.30149 0.84337 0.49327 0.0
H301 H 0.30992 0.78487 0.45895 0.0
H302 H 0.10593 0.65401 0.45913 0.0
H303 H 0.04177 0.72185 0.45174 0.0
H304 H 0.1852 0.84314 0.50503 0.0
C305 C 0.32758 0.69321 0.52209 0.0
C306 C 0.32859 0.63841 0.51464 0.0
C307 C 0.2776 0.60478 0.49605 0.0
C308 C 0.22618 0.62529 0.48548 0.0
C309 C 0.22667 0.67953 0.49351 0.0
C310 C 0.27622 0.713 0.51121 0.0
C311 C 0.26582 0.7698 0.51622 0.0
C312 C 0.26789 0.79359 0.56117 0.0
C313 C 0.31164 0.80251 0.49135 0.0
C314 C 0.20242 0.76314 0.49883 0.0
C315 C 0.1805 0.71081 0.48594 0.0
C316 C 0.12273 0.6951 0.46902 0.0
C317 C 0.08661 0.73392 0.46498 0.0
C318 C 0.10847 0.78783 0.47771 0.0
C319 C 0.16714 0.80233 0.49493 0.0
H320 H 0.04081 0.937 0.14704 0.0
H321 H 0.00112 0.09616 0.1511 0.0
H322 H 0.0059 0.10796 0.22573 0.0
H323 H 0.94773 0.90678 0.23058 0.0
H324 H 0.99739 0.86714 0.24982 0.0
H325 H 0.9967 0.87256 0.1966 0.0
H326 H 0.11241 0.90484 0.19938 0.0
H327 H 0.11346 0.89966 0.25269 0.0
H328 H 0.14259 0.96115 0.23517 0.0
H329 H 0.01297 0.10256 0.29899 0.0
H330 H 0.01217 0.07801 0.36752 0.0
H331 H 0.04115 0.92009 0.31737 0.0
C332 C 0.03391 0.97448 0.16375 0.0
C333 C 0.02106 0.01587 0.14346 0.0
C334 C 0.011 0.064 0.16617 0.0
C335 C 0.01398 0.07118 0.2085 0.0
C336 C 0.02636 0.0296 0.22767 0.0
C337 C 0.03551 0.98197 0.2062 0.0
C338 C 0.04341 0.94253 0.23455 0.0
C339 C 0.99331 0.89442 0.22746 0.0
C340 C 0.10674 0.92609 0.23018 0.0
C341 C 0.03661 0.97536 0.27523 0.0
C342 C 0.02788 0.0257 0.27041 0.0
C343 C 0.01981 0.06329 0.30323 0.0
C344 C 0.01954 0.04887 0.34211 0.0
C345 C 0.02647 0.99702 0.34796 0.0
C346 C 0.03581 0.96001 0.31396 0.0
H347 H 0.95063 0.05759 0.90229 0.0
H348 H 0.06952 0.93867 0.88802 0.0
H349 H 0.07507 0.9437 0.81452 0.0
H350 H 0.86819 0.01506 0.80693 0.0
H351 H 0.86347 0.08142 0.79852 0.0
H352 H 0.86628 0.06599 0.84942 0.0
H353 H 0.95964 0.13838 0.86507 0.0
H354 H 0.95734 0.15389 0.81423 0.0
H355 H 0.02565 0.1367 0.83348 0.0
H356 H 0.07156 0.96536 0.74283 0.0
H357 H 0.05868 0.00123 0.6792 0.0
H358 H 0.94156 0.10528 0.74076 0.0
C359 C 0.97731 0.03207 0.88372 0.0
C360 C 0.00948 0.99755 0.90097 0.0
C361 C 0.04431 0.9653 0.87553 0.0
C362 C 0.04774 0.96789 0.83373 0.0
C363 C 0.01603 0.00286 0.81784 0.0
C364 C 0.98134 0.03424 0.84209 0.0
C365 C 0.95324 0.06983 0.81792 0.0
C366 C 0.88367 0.0573 0.81822 0.0
C367 C 0.97531 0.12814 0.83361 0.0
C368 C 0.9781 0.05407 0.77632 0.0
C369 C 0.01391 0.01517 0.77679 0.0
C370 C 0.04285 0.99524 0.74202 0.0
C371 C 0.03476 0.01548 0.70586 0.0
C372 C 0.99796 0.05515 0.70471 0.0
C373 C 0.96965 0.0747 0.74058 0.0
H374 H 0.51453 0.54262 0.64327 0.0
H375 H 0.5927 0.39972 0.60884 0.0
H376 H 0.60573 0.3918 0.68105 0.0
H377 H 0.61336 0.59338 0.72903 0.0
H378 H 0.55489 0.62049 0.75902 0.0
H379 H 0.55178 0.61479 0.70461 0.0
H380 H 0.4442 0.5606 0.70448 0.0
H381 H 0.44692 0.56619 0.75886 0.0
H382 H 0.43224 0.50217 0.72887 0.0
H383 H 0.60741 0.3982 0.75699 0.0
H384 H 0.59983 0.41961 0.83124 0.0
H385 H 0.52334 0.55968 0.81547 0.0
C386 C 0.53432 0.50961 0.65089 0.0
C387 C 0.55243 0.47169 0.6205 0.0
C388 C 0.57857 0.42927 0.63169 0.0
C389 C 0.58613 0.42441 0.67258 0.0
C390 C 0.56778 0.46252 0.7018 0.0
C391 C 0.54269 0.50442 0.69148 0.0
C392 C 0.527 0.54014 0.72866 0.0
C393 C 0.56398 0.59547 0.73042 0.0
C394 C 0.45852 0.54237 0.7303 0.0
C395 C 0.54658 0.51148 0.76154 0.0
C396 C 0.56992 0.46678 0.74547 0.0
C397 C 0.58956 0.43327 0.76997 0.0
C398 C 0.585 0.44573 0.81207 0.0
C399 C 0.56126 0.49142 0.82915 0.0
C400 C 0.5422 0.52473 0.8034 0.0
H401 H 0.4554 0.56061 0.39668 0.0
H402 H 0.57274 0.44268 0.36375 0.0
H403 H 0.5689 0.45753 0.29239 0.0
H404 H 0.36112 0.52935 0.30576 0.0
H405 H 0.35445 0.59718 0.30337 0.0
H406 H 0.36439 0.57566 0.35159 0.0
H407 H 0.45871 0.6472 0.36639 0.0
H408 H 0.44928 0.66886 0.31819 0.0
H409 H 0.5202 0.64962 0.3308 0.0
H410 H 0.55703 0.48862 0.22543 0.0
H411 H 0.5357 0.53211 0.16718 0.0
H412 H 0.42382 0.62803 0.24308 0.0
C413 C 0.47989 0.53754 0.37444 0.0
C414 C 0.51431 0.50039 0.38582 0.0
C415 C 0.54594 0.47125 0.35577 0.0
C416 C 0.54407 0.47941 0.31515 0.0
C417 C 0.51023 0.5167 0.30505 0.0
C418 C 0.47849 0.54513 0.33377 0.0
C419 C 0.44671 0.5837 0.31509 0.0
C420 C 0.37757 0.57067 0.31919 0.0
C421 C 0.47015 0.64071 0.33373 0.0
C422 C 0.46606 0.57288 0.27142 0.0
C423 C 0.50254 0.534 0.26628 0.0
C424 C 0.52752 0.51836 0.2289 0.0
C425 C 0.51449 0.54283 0.19582 0.0
C426 C 0.47643 0.58216 0.20022 0.0
C427 C 0.45244 0.59759 0.23868 0.0
loop_
_geom_bond_atom_site_label_1
_geom_bond_atom_site_label_2
_geom_bond_distance
_geom_bond_site_symmetry_2
_ccdc_geom_bond_type
Co0 N5 2.057 . S
Co0 O17 2.021 . S
Co0 O20 2.062 1_455 S
Co0 O24 2.117 1_554 S
Co0 O25 2.020 1_565 S
C1 O21 1.259 . S
C1 O24 1.258 1_645 S
Co2 N11 2.057 . S
Co2 O18 2.117 . S
Co2 O19 2.020 1_545 S
Co2 O21 2.021 1_554 S
Co2 O26 2.062 1_655 S
C3 N5 1.316 . S
C3 N6 1.347 . S
C3 H8 0.931 . S
C4 N5 1.375 1_556 S
C4 C7 1.350 . S
C4 H9 0.930 . S
N5 Co0 2.057 . S
N5 C3 1.316 . S
N5 C4 1.375 1_554 S
N6 C3 1.347 . S
N6 C7 1.373 1_554 S
C7 C4 1.350 . S
C7 N6 1.373 1_556 S
C7 H28 0.931 . S
H8 C3 0.931 . S
H9 C4 0.930 . S
C10 O17 1.259 1_545 S
C10 O18 1.258 1_455 S
N11 Co2 2.057 . S
N11 C12 1.316 . S
N11 C13 1.375 . S
C12 N11 1.316 . S
C12 N14 1.347 . S
C12 H23 0.931 1_554 S
C13 N11 1.375 . S
C13 C15 1.350 . S
C13 H22 0.930 . S
N14 C12 1.347 . S
N14 C15 1.373 . S
C15 C13 1.350 . S
C15 N14 1.373 . S
C15 H29 0.931 . S
C16 O19 1.256 . S
C16 O20 1.255 . S
O17 Co0 2.021 . S
O17 C10 1.259 1_565 S
O18 Co2 2.117 . S
O18 C10 1.258 1_655 S
O19 Co2 2.020 1_565 S
O19 C16 1.256 . S
O20 Co0 2.062 1_655 S
O20 C16 1.255 . S
O21 C1 1.259 . S
O21 Co2 2.021 1_556 S
H22 C13 0.930 . S
H23 C12 0.931 1_556 S
O24 Co0 2.117 1_556 S
O24 C1 1.258 1_465 S
O25 Co0 2.020 1_545 S
O25 C27 1.256 . S
O26 Co2 2.062 1_455 S
O26 C27 1.255 . S
C27 O25 1.256 . S
C27 O26 1.255 . S
H28 C7 0.931 . S
H29 C15 0.931 . S
Co30 N35 2.057 . S
Co30 O47 2.021 . S
Co30 O50 2.062 . S
Co30 O54 2.117 . S
Co30 O55 2.020 . S
C31 O51 1.259 . S
C31 O54 1.258 . S
Co32 N41 2.057 . S
Co32 O48 2.117 . S
Co32 O49 2.020 . S
Co32 O51 2.021 . S
Co32 O56 2.062 . S
C33 N35 1.316 . S
C33 N36 1.347 . S
C33 H38 0.931 . S
C34 N35 1.375 . S
C34 C37 1.350 . S
C34 H39 0.930 . S
N35 Co30 2.057 . S
N35 C33 1.316 . S
N35 C34 1.375 . S
N36 C33 1.347 . S
N36 C37 1.373 . S
C37 C34 1.350 . S
C37 N36 1.373 . S
C37 H58 0.931 . S
H38 C33 0.931 . S
H39 C34 0.930 . S
C40 O47 1.259 . S
C40 O48 1.258 . S
N41 Co32 2.057 . S
N41 C42 1.316 . S
N41 C43 1.375 . S
C42 N41 1.316 . S
C42 N44 1.347 . S
C42 H53 0.931 . S
C43 N41 1.375 . S
C43 C45 1.350 . S
C43 H52 0.930 . S
N44 C42 1.347 . S
N44 C45 1.373 . S
C45 C43 1.350 . S
C45 N44 1.373 . S
C45 H59 0.931 . S
C46 O49 1.256 . S
C46 O50 1.255 . S
O47 Co30 2.021 . S
O47 C40 1.259 . S
O48 Co32 2.117 . S
O48 C40 1.258 . S
O49 Co32 2.020 . S
O49 C46 1.256 . S
O50 Co30 2.062 . S
O50 C46 1.255 . S
O51 C31 1.259 . S
O51 Co32 2.021 . S
H52 C43 0.930 . S
H53 C42 0.931 . S
O54 Co30 2.117 . S
O54 C31 1.258 . S
O55 Co30 2.020 . S
O55 C57 1.256 . S
O56 Co32 2.062 . S
O56 C57 1.255 . S
C57 O55 1.256 . S
C57 O56 1.255 . S
H58 C37 0.931 . S
H59 C45 0.931 . S
O60 Cd61 2.300 1_565 S
O60 C67 1.275 1_565 S
Cd61 O60 2.300 1_545 S
Cd61 O69 2.376 1_545 S
Cd61 O70 2.375 1_545 S
O62 Cd63 2.385 . S
O62 C67 1.255 . S
Cd63 O62 2.385 . S
Cd63 O64 2.317 1_455 S
O64 Cd63 2.317 1_655 S
O64 C65 1.232 . S
C65 O64 1.232 . S
C65 O66 1.218 . S
O66 C65 1.218 . S
C67 O60 1.275 1_545 S
C67 O62 1.255 . S
C68 O69 1.258 . S
C68 O70 1.256 . S
O69 Cd61 2.376 1_565 S
O69 C68 1.258 . S
O70 Cd61 2.375 1_565 S
O70 C68 1.256 . S
O71 Cd72 2.300 . S
O71 C78 1.259 1_545 S
Cd72 O71 2.300 . S
Cd72 O80 2.381 . S
Cd72 O81 2.378 . S
O73 Cd74 2.385 . S
O73 C78 1.269 . S
Cd74 O73 2.385 . S
Cd74 O75 2.317 1_455 S
O75 Cd74 2.317 1_655 S
O75 C76 1.232 . S
C76 O75 1.232 . S
C76 O77 1.218 . S
O77 C76 1.218 . S
C78 O71 1.259 1_565 S
C78 O73 1.269 . S
C79 O80 1.258 . S
C79 O81 1.256 . S
O80 Cd72 2.381 . S
O80 C79 1.258 . S
O81 Cd72 2.378 . S
O81 C79 1.256 . S
O82 Cd83 2.300 . S
O82 C89 1.275 . S
Cd83 O82 2.300 . S
Cd83 O91 2.381 . S
Cd83 O92 2.378 1_556 S
O84 Cd85 2.385 . S
O84 C89 1.255 . S
Cd85 O84 2.385 . S
Cd85 O86 2.317 . S
O86 Cd85 2.317 . S
O86 C87 1.232 . S
C87 O86 1.232 . S
C87 O88 1.218 . S
O88 C87 1.218 . S
C89 O82 1.275 . S
C89 O84 1.255 . S
C90 O91 1.258 . S
C90 O92 1.256 1_556 S
O91 Cd83 2.381 . S
O91 C90 1.258 . S
O92 Cd83 2.378 1_554 S
O92 C90 1.256 1_554 S
O93 Cd94 2.300 . S
O93 C100 1.275 . S
Cd94 O93 2.300 . S
Cd94 O102 2.381 . S
Cd94 O103 2.378 . S
O95 Cd96 2.385 . S
O95 C100 1.255 . S
Cd96 O95 2.385 . S
Cd96 O97 2.317 . S
O97 Cd96 2.317 . S
O97 C98 1.232 . S
C98 O97 1.232 . S
C98 O99 1.218 . S
O99 C98 1.218 . S
C100 O93 1.275 . S
C100 O95 1.255 . S
C101 O102 1.258 . S
C101 O103 1.256 . S
O102 Cd94 2.381 . S
O102 C101 1.258 . S
O103 Cd94 2.378 . S
O103 C101 1.256 . S
H104 C116 0.930 . S
H105 C118 0.930 . S
H106 C119 0.930 . S
H107 C123 0.959 . S
H108 C123 0.959 . S
H109 C123 0.961 . S
H110 C124 0.960 . S
H111 C124 0.961 . S
H112 C124 0.959 . S
H113 C127 0.929 . S
H114 C128 0.925 1_556 S
H115 C130 0.930 . S
C116 H104 0.930 . S
C116 C117 1.399 . S
C116 C121 1.399 . S
C117 C116 1.399 . S
C117 C118 1.376 1_554 S
C118 H105 0.930 . S
C118 C117 1.376 1_556 S
C118 C119 1.388 . S
C119 H106 0.930 . S
C119 C118 1.388 . S
C119 C120 1.390 1_556 S
C120 C119 1.390 1_554 S
C120 C121 1.394 . S
C120 C126 1.465 . S
C121 C116 1.399 . S
C121 C120 1.394 . S
C121 C122 1.516 . S
C122 C121 1.516 . S
C122 C123 1.502 . S
C122 C124 1.561 . S
C122 C125 1.526 . S
C123 H107 0.959 . S
C123 H108 0.959 . S
C123 H109 0.961 . S
C123 C122 1.502 . S
C124 H110 0.960 . S
C124 H111 0.961 . S
C124 H112 0.959 . S
C124 C122 1.561 . S
C125 C122 1.526 . S
C125 C126 1.396 . S
C125 C130 1.390 . S
C126 C120 1.465 . S
C126 C125 1.396 . S
C126 C127 1.399 1_554 S
C127 H113 0.929 . S
C127 C126 1.399 1_556 S
C127 C128 1.384 1_556 S
C128 H114 0.925 1_554 S
C128 C127 1.384 1_554 S
C128 C129 1.396 . S
C129 C128 1.396 . S
C129 C130 1.387 . S
C130 H115 0.930 . S
C130 C125 1.390 . S
C130 C129 1.387 . S
H131 C143 0.930 . S
H132 C145 0.930 . S
H133 C146 0.930 . S
H134 C150 0.959 . S
H135 C150 0.959 . S
H136 C150 0.961 . S
H137 C151 0.960 . S
H138 C151 0.961 . S
H139 C151 0.959 . S
H140 C154 0.929 . S
H141 C155 0.931 . S
H142 C157 0.930 . S
C143 H131 0.930 . S
C143 C144 1.399 . S
C143 C148 1.399 . S
C144 C143 1.399 . S
C144 C145 1.376 1_554 S
C145 H132 0.930 . S
C145 C144 1.376 1_556 S
C145 C146 1.388 . S
C146 H133 0.930 . S
C146 C145 1.388 . S
C146 C147 1.390 . S
C147 C146 1.390 . S
C147 C148 1.394 1_556 S
C147 C153 1.465 . S
C148 C143 1.399 . S
C148 C147 1.394 1_554 S
C148 C149 1.516 . S
C149 C148 1.516 . S
C149 C150 1.502 . S
C149 C151 1.561 . S
C149 C152 1.526 . S
C150 H134 0.959 . S
C150 H135 0.959 . S
C150 H136 0.961 . S
C150 C149 1.502 . S
C151 H137 0.960 . S
C151 H138 0.961 . S
C151 H139 0.959 . S
C151 C149 1.561 . S
C152 C149 1.526 . S
C152 C153 1.396 1_554 S
C152 C157 1.390 . S
C153 C147 1.465 . S
C153 C152 1.396 1_556 S
C153 C154 1.399 . S
C154 H140 0.929 . S
C154 C153 1.399 . S
C154 C155 1.385 . S
C155 H141 0.931 . S
C155 C154 1.385 . S
C155 C156 1.389 . S
C156 C155 1.389 . S
C156 C157 1.387 1_556 S
C157 H142 0.930 . S
C157 C152 1.390 . S
C157 C156 1.387 1_554 S
H158 C170 0.930 . S
H159 C172 0.930 . S
H160 C173 0.930 . S
H161 C177 0.959 . S
H162 C177 0.959 . S
H163 C177 0.961 . S
H164 C178 0.960 . S
H165 C178 0.961 . S
H166 C178 0.959 . S
H167 C181 0.929 . S
H168 C182 0.931 . S
H169 C184 0.930 1_556 S
C170 H158 0.930 . S
C170 C171 1.399 1_556 S
C170 C175 1.399 1_556 S
C171 C170 1.399 1_554 S
C171 C172 1.376 . S
C172 H159 0.930 . S
C172 C171 1.376 . S
C172 C173 1.388 . S
C173 H160 0.930 . S
C173 C172 1.388 . S
C173 C174 1.390 . S
C174 C173 1.390 . S
C174 C175 1.394 . S
C174 C180 1.465 . S
C175 C170 1.399 1_554 S
C175 C174 1.394 . S
C175 C176 1.516 1_554 S
C176 C175 1.516 1_556 S
C176 C177 1.502 . S
C176 C178 1.561 . S
C176 C179 1.526 1_556 S
C177 H161 0.959 . S
C177 H162 0.959 . S
C177 H163 0.961 . S
C177 C176 1.502 . S
C178 H164 0.960 . S
C178 H165 0.961 . S
C178 H166 0.959 . S
C178 C176 1.561 . S
C179 C176 1.526 1_554 S
C179 C180 1.396 . S
C179 C184 1.390 . S
C180 C174 1.465 . S
C180 C179 1.396 . S
C180 C181 1.399 . S
C181 H167 0.929 . S
C181 C180 1.399 . S
C181 C182 1.385 . S
C182 H168 0.931 . S
C182 C181 1.385 . S
C182 C183 1.389 . S
C183 C182 1.389 . S
C183 C184 1.387 . S
C184 H169 0.930 1_554 S
C184 C179 1.390 . S
C184 C183 1.387 . S
H185 C197 0.910 1_556 S
H186 C199 0.930 . S
H187 C200 0.930 . S
H188 C204 0.959 . S
H189 C204 0.959 . S
H190 C204 0.961 . S
H191 C205 0.960 . S
H192 C205 0.961 . S
H193 C205 0.959 1_554 S
H194 C208 0.929 . S
H195 C209 0.931 . S
H196 C211 0.930 . S
C197 H185 0.910 1_554 S
C197 C198 1.420 . S
C197 C202 1.399 . S
C198 C197 1.420 . S
C198 C199 1.376 . S
C199 H186 0.930 . S
C199 C198 1.376 . S
C199 C200 1.388 . S
C200 H187 0.930 . S
C200 C199 1.388 . S
C200 C201 1.390 . S
C201 C200 1.390 . S
C201 C202 1.394 . S
C201 C207 1.465 . S
C202 C197 1.399 . S
C202 C201 1.394 . S
C202 C203 1.516 1_554 S
C203 C202 1.516 1_556 S
C203 C204 1.502 . S
C203 C205 1.561 . S
C203 C206 1.524 1_556 S
C204 H188 0.959 . S
C204 H189 0.959 . S
C204 H190 0.961 . S
C204 C203 1.502 . S
C205 H191 0.960 . S
C205 H192 0.961 . S
C205 H193 0.959 1_556 S
C205 C203 1.561 . S
C206 C203 1.524 1_554 S
C206 C207 1.400 . S
C206 C211 1.388 1_554 S
C207 C201 1.465 . S
C207 C206 1.400 . S
C207 C208 1.399 . S
C208 H194 0.929 . S
C208 C207 1.399 . S
C208 C209 1.385 . S
C209 H195 0.931 . S
C209 C208 1.385 . S
C209 C210 1.389 . S
C210 C209 1.389 . S
C210 C211 1.387 1_554 S
C211 H196 0.930 . S
C211 C206 1.388 1_556 S
C211 C210 1.387 1_556 S
H212 C224 0.930 . S
H213 C226 0.930 . S
H214 C227 0.930 . S
H215 C231 0.959 . S
H216 C231 0.959 . S
H217 C231 0.961 . S
H218 C232 0.960 . S
H219 C232 0.961 . S
H220 C232 0.959 . S
H221 C235 0.929 . S
H222 C236 0.931 . S
H223 C238 0.930 . S
C224 H212 0.930 . S
C224 C225 1.399 . S
C224 C229 1.399 . S
C225 C224 1.399 . S
C225 C226 1.376 . S
C226 H213 0.930 . S
C226 C225 1.376 . S
C226 C227 1.388 . S
C227 H214 0.930 . S
C227 C226 1.388 . S
C227 C228 1.390 . S
C228 C227 1.390 . S
C228 C229 1.394 . S
C228 C234 1.465 . S
C229 C224 1.399 . S
C229 C228 1.394 . S
C229 C230 1.516 . S
C230 C229 1.516 . S
C230 C231 1.502 . S
C230 C232 1.561 . S
C230 C233 1.526 . S
C231 H215 0.959 . S
C231 H216 0.959 . S
C231 H217 0.961 . S
C231 C230 1.502 . S
C232 H218 0.960 . S
C232 H219 0.961 . S
C232 H220 0.959 . S
C232 C230 1.561 . S
C233 C230 1.526 . S
C233 C234 1.396 . S
C233 C238 1.390 . S
C234 C228 1.465 . S
C234 C233 1.396 . S
C234 C235 1.399 . S
C235 H221 0.929 . S
C235 C234 1.399 . S
C235 C236 1.385 . S
C236 H222 0.931 . S
C236 C235 1.385 . S
C236 C237 1.389 . S
C237 C236 1.389 . S
C237 C238 1.387 . S
C238 H223 0.930 . S
C238 C233 1.390 . S
C238 C237 1.387 . S
H239 C251 0.930 . S
H240 C253 0.930 . S
H241 C254 0.930 . S
H242 C258 0.959 . S
H243 C258 0.959 . S
H244 C258 0.961 . S
H245 C259 0.960 . S
H246 C259 0.961 . S
H247 C259 0.959 . S
H248 C262 0.929 . S
H249 C263 0.931 . S
H250 C265 0.930 . S
C251 H239 0.930 . S
C251 C252 1.399 . S
C251 C256 1.399 . S
C252 C251 1.399 . S
C252 C253 1.376 . S
C253 H240 0.930 . S
C253 C252 1.376 . S
C253 C254 1.388 . S
C254 H241 0.930 . S
C254 C253 1.388 . S
C254 C255 1.390 . S
C255 C254 1.390 . S
C255 C256 1.394 . S
C255 C261 1.465 . S
C256 C251 1.399 . S
C256 C255 1.394 . S
C256 C257 1.516 . S
C257 C256 1.516 . S
C257 C258 1.502 . S
C257 C259 1.561 . S
C257 C260 1.526 . S
C258 H242 0.959 . S
C258 H243 0.959 . S
C258 H244 0.961 . S
C258 C257 1.502 . S
C259 H245 0.960 . S
C259 H246 0.961 . S
C259 H247 0.959 . S
C259 C257 1.561 . S
C260 C257 1.526 . S
C260 C261 1.396 . S
C260 C265 1.390 . S
C261 C255 1.465 . S
C261 C260 1.396 . S
C261 C262 1.399 . S
C262 H248 0.929 . S
C262 C261 1.399 . S
C262 C263 1.385 . S
C263 H249 0.931 . S
C263 C262 1.385 . S
C263 C264 1.389 . S
C264 C263 1.389 . S
C264 C265 1.387 . S
C265 H250 0.930 . S
C265 C260 1.390 . S
C265 C264 1.387 . S
H266 C278 0.930 . S
H267 C280 0.930 . S
H268 C281 0.930 . S
H269 C285 0.959 . S
H270 C285 0.959 . S
H271 C285 0.961 . S
H272 C286 0.960 . S
H273 C286 0.961 . S
H274 C286 0.959 . S
H275 C289 0.929 . S
H276 C290 0.931 . S
H277 C292 0.930 . S
C278 H266 0.930 . S
C278 C279 1.399 . S
C278 C283 1.399 . S
C279 C278 1.399 . S
C279 C280 1.376 . S
C280 H267 0.930 . S
C280 C279 1.376 . S
C280 C281 1.388 . S
C281 H268 0.930 . S
C281 C280 1.388 . S
C281 C282 1.390 . S
C282 C281 1.390 . S
C282 C283 1.394 . S
C282 C288 1.465 . S
C283 C278 1.399 . S
C283 C282 1.394 . S
C283 C284 1.516 . S
C284 C283 1.516 . S
C284 C285 1.502 . S
C284 C286 1.561 . S
C284 C287 1.526 . S
C285 H269 0.959 . S
C285 H270 0.959 . S
C285 H271 0.961 . S
C285 C284 1.502 . S
C286 H272 0.960 . S
C286 H273 0.961 . S
C286 H274 0.959 . S
C286 C284 1.561 . S
C287 C284 1.526 . S
C287 C288 1.396 . S
C287 C292 1.390 . S
C288 C282 1.465 . S
C288 C287 1.396 . S
C288 C289 1.399 . S
C289 H275 0.929 . S
C289 C288 1.399 . S
C289 C290 1.385 . S
C290 H276 0.931 . S
C290 C289 1.385 . S
C290 C291 1.389 . S
C291 C290 1.389 . S
C291 C292 1.387 . S
C292 H277 0.930 . S
C292 C287 1.390 . S
C292 C291 1.387 . S
H293 C305 0.930 . S
H294 C307 0.930 . S
H295 C308 0.930 . S
H296 C312 0.959 . S
H297 C312 0.959 . S
H298 C312 0.961 . S
H299 C313 0.960 . S
H300 C313 0.961 . S
H301 C313 0.959 . S
H302 C316 0.929 . S
H303 C317 0.931 . S
H304 C319 0.930 . S
C305 H293 0.930 . S
C305 C306 1.399 . S
C305 C310 1.399 . S
C306 C305 1.399 . S
C306 C307 1.376 . S
C307 H294 0.930 . S
C307 C306 1.376 . S
C307 C308 1.388 . S
C308 H295 0.930 . S
C308 C307 1.388 . S
C308 C309 1.390 . S
C309 C308 1.390 . S
C309 C310 1.394 . S
C309 C315 1.465 . S
C310 C305 1.399 . S
C310 C309 1.394 . S
C310 C311 1.516 . S
C311 C310 1.516 . S
C311 C312 1.502 . S
C311 C313 1.561 . S
C311 C314 1.526 . S
C312 H296 0.959 . S
C312 H297 0.959 . S
C312 H298 0.961 . S
C312 C311 1.502 . S
C313 H299 0.960 . S
C313 H300 0.961 . S
C313 H301 0.959 . S
C313 C311 1.561 . S
C314 C311 1.526 . S
C314 C315 1.396 . S
C314 C319 1.390 . S
C315 C309 1.465 . S
C315 C314 1.396 . S
C315 C316 1.399 . S
C316 H302 0.929 . S
C316 C315 1.399 . S
C316 C317 1.385 . S
C317 H303 0.931 . S
C317 C316 1.385 . S
C317 C318 1.389 . S
C318 C317 1.389 . S
C318 C319 1.387 . S
C319 H304 0.930 . S
C319 C314 1.390 . S
C319 C318 1.387 . S
H320 C332 0.930 . S
H321 C334 0.930 . S
H322 C335 0.930 . S
H323 C339 0.959 . S
H324 C339 0.959 . S
H325 C339 0.961 . S
H326 C340 0.960 . S
H327 C340 0.961 . S
H328 C340 0.959 . S
H329 C343 0.929 . S
H330 C344 0.931 . S
H331 C346 0.930 . S
C332 H320 0.930 . S
C332 C333 1.399 1_665 S
C332 C337 1.399 . S
C333 C332 1.399 1_445 S
C333 C334 1.376 . S
C334 H321 0.930 . S
C334 C333 1.376 . S
C334 C335 1.388 . S
C335 H322 0.930 . S
C335 C334 1.388 . S
C335 C336 1.390 . S
C336 C335 1.390 . S
C336 C337 1.394 1_445 S
C336 C342 1.465 . S
C337 C332 1.399 . S
C337 C336 1.394 1_665 S
C337 C338 1.516 . S
C338 C337 1.516 . S
C338 C339 1.502 . S
C338 C340 1.561 1_655 S
C338 C341 1.526 . S
C339 H323 0.959 . S
C339 H324 0.959 . S
C339 H325 0.961 . S
C339 C338 1.502 . S
C340 H326 0.960 . S
C340 H327 0.961 . S
C340 H328 0.959 . S
C340 C338 1.561 1_455 S
C341 C338 1.526 . S
C341 C342 1.396 1_665 S
C341 C346 1.390 . S
C342 C336 1.465 . S
C342 C341 1.396 1_445 S
C342 C343 1.399 . S
C343 H329 0.929 . S
C343 C342 1.399 . S
C343 C344 1.385 . S
C344 H330 0.931 . S
C344 C343 1.385 . S
C344 C345 1.389 . S
C345 C344 1.389 . S
C345 C346 1.387 1_445 S
C346 H331 0.930 . S
C346 C341 1.390 . S
C346 C345 1.387 1_665 S
H347 C359 0.930 . S
H348 C361 0.930 . S
H349 C362 0.930 . S
H350 C366 0.959 . S
H351 C366 0.959 . S
H352 C366 0.961 . S
H353 C367 0.960 . S
H354 C367 0.961 . S
H355 C367 0.959 . S
H356 C370 0.929 . S
H357 C371 0.931 . S
H358 C373 0.930 . S
C359 H347 0.930 . S
C359 C360 1.399 1_645 S
C359 C364 1.399 . S
C360 C359 1.399 1_465 S
C360 C361 1.376 . S
C361 H348 0.930 . S
C361 C360 1.376 . S
C361 C362 1.388 . S
C362 H349 0.930 . S
C362 C361 1.388 . S
C362 C363 1.390 . S
C363 C362 1.390 . S
C363 C364 1.394 1_465 S
C363 C369 1.465 . S
C364 C359 1.399 . S
C364 C363 1.394 1_645 S
C364 C365 1.516 . S
C365 C364 1.516 . S
C365 C366 1.502 . S
C365 C367 1.561 1_655 S
C365 C368 1.526 . S
C366 H350 0.959 . S
C366 H351 0.959 . S
C366 H352 0.961 . S
C366 C365 1.502 . S
C367 H353 0.960 . S
C367 H354 0.961 . S
C367 H355 0.959 . S
C367 C365 1.561 1_455 S
C368 C365 1.526 . S
C368 C369 1.396 1_645 S
C368 C373 1.390 . S
C369 C363 1.465 . S
C369 C368 1.396 1_465 S
C369 C370 1.399 . S
C370 H356 0.929 . S
C370 C369 1.399 . S
C370 C371 1.385 . S
C371 H357 0.931 . S
C371 C370 1.385 . S
C371 C372 1.398 . S
C372 C371 1.398 . S
C372 C373 1.381 1_465 S
C373 H358 0.930 . S
C373 C368 1.390 . S
C373 C372 1.381 1_645 S
H374 C386 0.930 . S
H375 C388 0.930 . S
H376 C389 0.930 . S
H377 C393 0.959 . S
H378 C393 0.959 . S
H379 C393 0.961 . S
H380 C394 0.960 . S
H381 C394 0.961 . S
H382 C394 0.959 . S
H383 C397 0.929 . S
H384 C398 0.931 . S
H385 C400 0.930 . S
C386 H374 0.930 . S
C386 C387 1.399 . S
C386 C391 1.399 . S
C387 C386 1.399 . S
C387 C388 1.376 . S
C388 H375 0.930 . S
C388 C387 1.376 . S
C388 C389 1.388 . S
C389 H376 0.930 . S
C389 C388 1.388 . S
C389 C390 1.390 . S
C390 C389 1.390 . S
C390 C391 1.394 . S
C390 C396 1.465 . S
C391 C386 1.399 . S
C391 C390 1.394 . S
C391 C392 1.516 . S
C392 C391 1.516 . S
C392 C393 1.502 . S
C392 C394 1.561 . S
C392 C395 1.526 . S
C393 H377 0.959 . S
C393 H378 0.959 . S
C393 H379 0.961 . S
C393 C392 1.502 . S
C394 H380 0.960 . S
C394 H381 0.961 . S
C394 H382 0.959 . S
C394 C392 1.561 . S
C395 C392 1.526 . S
C395 C396 1.396 . S
C395 C400 1.390 . S
C396 C390 1.465 . S
C396 C395 1.396 . S
C396 C397 1.399 . S
C397 H383 0.929 . S
C397 C396 1.399 . S
C397 C398 1.385 . S
C398 H384 0.931 . S
C398 C397 1.385 . S
C398 C399 1.389 . S
C399 C398 1.389 . S
C399 C400 1.387 . S
C400 H385 0.930 . S
C400 C395 1.390 . S
C400 C399 1.387 . S
H401 C413 0.930 . S
H402 C415 0.930 . S
H403 C416 0.930 . S
H404 C420 0.959 . S
H405 C420 0.959 . S
H406 C420 0.961 . S
H407 C421 0.960 . S
H408 C421 0.961 . S
H409 C421 0.959 . S
H410 C424 0.929 . S
H411 C425 0.931 . S
H412 C427 0.930 . S
C413 H401 0.930 . S
C413 C414 1.399 . S
C413 C418 1.399 . S
C414 C413 1.399 . S
C414 C415 1.376 . S
C415 H402 0.930 . S
C415 C414 1.376 . S
C415 C416 1.388 . S
C416 H403 0.930 . S
C416 C415 1.388 . S
C416 C417 1.390 . S
C417 C416 1.390 . S
C417 C418 1.394 . S
C417 C423 1.465 . S
C418 C413 1.399 . S
C418 C417 1.394 . S
C418 C419 1.516 . S
C419 C418 1.516 . S
C419 C420 1.502 . S
C419 C421 1.561 . S
C419 C422 1.526 . S
C420 H404 0.959 . S
C420 H405 0.959 . S
C420 H406 0.961 . S
C420 C419 1.502 . S
C421 H407 0.960 . S
C421 H408 0.961 . S
C421 H409 0.959 . S
C421 C419 1.561 . S
C422 C419 1.526 . S
C422 C423 1.396 . S
C422 C427 1.390 . S
C423 C417 1.465 . S
C423 C422 1.396 . S
C423 C424 1.399 . S
C424 H410 0.929 . S
C424 C423 1.399 . S
C424 C425 1.385 . S
C425 H411 0.931 . S
C425 C424 1.385 . S
C425 C426 1.389 . S
C426 C425 1.389 . S
C426 C427 1.387 . S
C427 H412 0.930 . S
C427 C422 1.390 . S
C427 C426 1.387 . S
C129 C98 1.255 . S
C117 C27 1.472 . S
C144 N6 1.389 . S
C156 C87 1.225 . S
C171 C16 1.438 . S
C183 C101 1.380 . S
C198 N14 1.392 . S
C210 C90 1.415 1_554 S
C225 C57 1.472 . S
C237 C76 1.246 . S
C252 N36 1.388 . S
C264 C65 1.224 . S
C291 C79 1.380 . S
C279 C46 1.438 . S
C318 C68 1.430 . S
C306 N44 1.385 . S
C333 C10 1.444 . S
C345 C67 1.390 . S
C360 C1 1.535 1_465 S
C372 C78 1.473 . S
C399 C89 1.413 . S
C387 C40 1.450 . S
C414 C31 1.536 . S
C426 C100 1.457 . S
