# Generated by pormake.
# Topology gar, (4,6)-cn, num edge types: 1
# Building blocks:
#     Node 0, Type 0, BuildingBlock: GALJAG_clean_sbu_0, # of connection points: 4
#     Node 1, Type 0, BuildingBlock: GALJAG_clean_sbu_0, # of connection points: 4
#     Node 2, Type 0, BuildingBlock: GALJAG_clean_sbu_0, # of connection points: 4
#     Node 3, Type 0, BuildingBlock: GALJAG_clean_sbu_0, # of connection points: 4
#     Node 4, Type 0, BuildingBlock: GALJAG_clean_sbu_0, # of connection points: 4
#     Node 5, Type 0, BuildingBlock: GALJAG_clean_sbu_0, # of connection points: 4
#     Node 6, Type 0, BuildingBlock: GALJAG_clean_sbu_0, # of connection points: 4
#     Node 7, Type 0, BuildingBlock: GALJAG_clean_sbu_0, # of connection points: 4
#     Node 8, Type 0, BuildingBlock: GALJAG_clean_sbu_0, # of connection points: 4
#     Node 9, Type 0, BuildingBlock: GALJAG_clean_sbu_0, # of connection points: 4
#     Node 10, Type 0, BuildingBlock: GALJAG_clean_sbu_0, # of connection points: 4
#     Node 11, Type 0, BuildingBlock: GALJAG_clean_sbu_0, # of connection points: 4
#     Node 12, Type 0, BuildingBlock: GALJAG_clean_sbu_0, # of connection points: 4
#     Node 13, Type 0, BuildingBlock: GALJAG_clean_sbu_0, # of connection points: 4
#     Node 14, Type 0, BuildingBlock: GALJAG_clean_sbu_0, # of connection points: 4
#     Node 15, Type 0, BuildingBlock: GALJAG_clean_sbu_0, # of connection points: 4
#     Node 16, Type 0, BuildingBlock: GALJAG_clean_sbu_0, # of connection points: 4
#     Node 17, Type 0, BuildingBlock: GALJAG_clean_sbu_0, # of connection points: 4
#     Node 18, Type 0, BuildingBlock: GALJAG_clean_sbu_0, # of connection points: 4
#     Node 19, Type 0, BuildingBlock: GALJAG_clean_sbu_0, # of connection points: 4
#     Node 20, Type 0, BuildingBlock: GALJAG_clean_sbu_0, # of connection points: 4
#     Node 21, Type 0, BuildingBlock: GALJAG_clean_sbu_0, # of connection points: 4
#     Node 22, Type 0, BuildingBlock: GALJAG_clean_sbu_0, # of connection points: 4
#     Node 23, Type 0, BuildingBlock: GALJAG_clean_sbu_0, # of connection points: 4
#     Node 24, Type 1, BuildingBlock: MIFKUJ_clean_sbu_0, # of connection points: 6
#     Node 25, Type 1, BuildingBlock: MIFKUJ_clean_sbu_0, # of connection points: 6
#     Node 26, Type 1, BuildingBlock: MIFKUJ_clean_sbu_0, # of connection points: 6
#     Node 27, Type 1, BuildingBlock: MIFKUJ_clean_sbu_0, # of connection points: 6
#     Node 28, Type 1, BuildingBlock: MIFKUJ_clean_sbu_0, # of connection points: 6
#     Node 29, Type 1, BuildingBlock: MIFKUJ_clean_sbu_0, # of connection points: 6
#     Node 30, Type 1, BuildingBlock: MIFKUJ_clean_sbu_0, # of connection points: 6
#     Node 31, Type 1, BuildingBlock: MIFKUJ_clean_sbu_0, # of connection points: 6
#     Node 32, Type 1, BuildingBlock: MIFKUJ_clean_sbu_0, # of connection points: 6
#     Node 33, Type 1, BuildingBlock: MIFKUJ_clean_sbu_0, # of connection points: 6
#     Node 34, Type 1, BuildingBlock: MIFKUJ_clean_sbu_0, # of connection points: 6
#     Node 35, Type 1, BuildingBlock: MIFKUJ_clean_sbu_0, # of connection points: 6
#     Node 36, Type 1, BuildingBlock: MIFKUJ_clean_sbu_0, # of connection points: 6
#     Node 37, Type 1, BuildingBlock: MIFKUJ_clean_sbu_0, # of connection points: 6
#     Node 38, Type 1, BuildingBlock: MIFKUJ_clean_sbu_0, # of connection points: 6
#     Node 39, Type 1, BuildingBlock: MIFKUJ_clean_sbu_0, # of connection points: 6
#     Edge 40, Type (0, 1), BuildingBlock: KIFKEQ_clean_linker_1, # of connection points: 2
#     Edge 41, Type (0, 1), BuildingBlock: KIFKEQ_clean_linker_1, # of connection points: 2
#     Edge 42, Type (0, 1), BuildingBlock: KIFKEQ_clean_linker_1, # of connection points: 2
#     Edge 43, Type (0, 1), BuildingBlock: KIFKEQ_clean_linker_1, # of connection points: 2
#     Edge 44, Type (0, 1), BuildingBlock: KIFKEQ_clean_linker_1, # of connection points: 2
#     Edge 45, Type (0, 1), BuildingBlock: KIFKEQ_clean_linker_1, # of connection points: 2
#     Edge 46, Type (0, 1), BuildingBlock: KIFKEQ_clean_linker_1, # of connection points: 2
#     Edge 47, Type (0, 1), BuildingBlock: KIFKEQ_clean_linker_1, # of connection points: 2
#     Edge 48, Type (0, 1), BuildingBlock: KIFKEQ_clean_linker_1, # of connection points: 2
#     Edge 49, Type (0, 1), BuildingBlock: KIFKEQ_clean_linker_1, # of connection points: 2
#     Edge 50, Type (0, 1), BuildingBlock: KIFKEQ_clean_linker_1, # of connection points: 2
#     Edge 51, Type (0, 1), BuildingBlock: KIFKEQ_clean_linker_1, # of connection points: 2
#     Edge 52, Type (0, 1), BuildingBlock: KIFKEQ_clean_linker_1, # of connection points: 2
#     Edge 53, Type (0, 1), BuildingBlock: KIFKEQ_clean_linker_1, # of connection points: 2
#     Edge 54, Type (0, 1), BuildingBlock: KIFKEQ_clean_linker_1, # of connection points: 2
#     Edge 55, Type (0, 1), BuildingBlock: KIFKEQ_clean_linker_1, # of connection points: 2
#     Edge 56, Type (0, 1), BuildingBlock: KIFKEQ_clean_linker_1, # of connection points: 2
#     Edge 57, Type (0, 1), BuildingBlock: KIFKEQ_clean_linker_1, # of connection points: 2
#     Edge 58, Type (0, 1), BuildingBlock: KIFKEQ_clean_linker_1, # of connection points: 2
#     Edge 59, Type (0, 1), BuildingBlock: KIFKEQ_clean_linker_1, # of connection points: 2
#     Edge 60, Type (0, 1), BuildingBlock: KIFKEQ_clean_linker_1, # of connection points: 2
#     Edge 61, Type (0, 1), BuildingBlock: KIFKEQ_clean_linker_1, # of connection points: 2
#     Edge 62, Type (0, 1), BuildingBlock: KIFKEQ_clean_linker_1, # of connection points: 2
#     Edge 63, Type (0, 1), BuildingBlock: KIFKEQ_clean_linker_1, # of connection points: 2
#     Edge 64, Type (0, 1), BuildingBlock: KIFKEQ_clean_linker_1, # of connection points: 2
#     Edge 65, Type (0, 1), BuildingBlock: KIFKEQ_clean_linker_1, # of connection points: 2
#     Edge 66, Type (0, 1), BuildingBlock: KIFKEQ_clean_linker_1, # of connection points: 2
#     Edge 67, Type (0, 1), BuildingBlock: KIFKEQ_clean_linker_1, # of connection points: 2
#     Edge 68, Type (0, 1), BuildingBlock: KIFKEQ_clean_linker_1, # of connection points: 2
#     Edge 69, Type (0, 1), BuildingBlock: KIFKEQ_clean_linker_1, # of connection points: 2
#     Edge 70, Type (0, 1), BuildingBlock: KIFKEQ_clean_linker_1, # of connection points: 2
#     Edge 71, Type (0, 1), BuildingBlock: KIFKEQ_clean_linker_1, # of connection points: 2
#     Edge 72, Type (0, 1), BuildingBlock: KIFKEQ_clean_linker_1, # of connection points: 2
#     Edge 73, Type (0, 1), BuildingBlock: KIFKEQ_clean_linker_1, # of connection points: 2
#     Edge 74, Type (0, 1), BuildingBlock: KIFKEQ_clean_linker_1, # of connection points: 2
#     Edge 75, Type (0, 1), BuildingBlock: KIFKEQ_clean_linker_1, # of connection points: 2
#     Edge 76, Type (0, 1), BuildingBlock: KIFKEQ_clean_linker_1, # of connection points: 2
#     Edge 77, Type (0, 1), BuildingBlock: KIFKEQ_clean_linker_1, # of connection points: 2
#     Edge 78, Type (0, 1), BuildingBlock: KIFKEQ_clean_linker_1, # of connection points: 2
#     Edge 79, Type (0, 1), BuildingBlock: KIFKEQ_clean_linker_1, # of connection points: 2
#     Edge 80, Type (0, 1), BuildingBlock: KIFKEQ_clean_linker_1, # of connection points: 2
#     Edge 81, Type (0, 1), BuildingBlock: KIFKEQ_clean_linker_1, # of connection points: 2
#     Edge 82, Type (0, 1), BuildingBlock: KIFKEQ_clean_linker_1, # of connection points: 2
#     Edge 83, Type (0, 1), BuildingBlock: KIFKEQ_clean_linker_1, # of connection points: 2
#     Edge 84, Type (0, 1), BuildingBlock: KIFKEQ_clean_linker_1, # of connection points: 2
#     Edge 85, Type (0, 1), BuildingBlock: KIFKEQ_clean_linker_1, # of connection points: 2
#     Edge 86, Type (0, 1), BuildingBlock: KIFKEQ_clean_linker_1, # of connection points: 2
#     Edge 87, Type (0, 1), BuildingBlock: KIFKEQ_clean_linker_1, # of connection points: 2
#     Edge 88, Type (0, 1), BuildingBlock: KIFKEQ_clean_linker_1, # of connection points: 2
#     Edge 89, Type (0, 1), BuildingBlock: KIFKEQ_clean_linker_1, # of connection points: 2
#     Edge 90, Type (0, 1), BuildingBlock: KIFKEQ_clean_linker_1, # of connection points: 2
#     Edge 91, Type (0, 1), BuildingBlock: KIFKEQ_clean_linker_1, # of connection points: 2
#     Edge 92, Type (0, 1), BuildingBlock: KIFKEQ_clean_linker_1, # of connection points: 2
#     Edge 93, Type (0, 1), BuildingBlock: KIFKEQ_clean_linker_1, # of connection points: 2
#     Edge 94, Type (0, 1), BuildingBlock: KIFKEQ_clean_linker_1, # of connection points: 2
#     Edge 95, Type (0, 1), BuildingBlock: KIFKEQ_clean_linker_1, # of connection points: 2
#     Edge 96, Type (0, 1), BuildingBlock: KIFKEQ_clean_linker_1, # of connection points: 2
#     Edge 97, Type (0, 1), BuildingBlock: KIFKEQ_clean_linker_1, # of connection points: 2
#     Edge 98, Type (0, 1), BuildingBlock: KIFKEQ_clean_linker_1, # of connection points: 2
#     Edge 99, Type (0, 1), BuildingBlock: KIFKEQ_clean_linker_1, # of connection points: 2
#     Edge 100, Type (0, 1), BuildingBlock: KIFKEQ_clean_linker_1, # of connection points: 2
#     Edge 101, Type (0, 1), BuildingBlock: KIFKEQ_clean_linker_1, # of connection points: 2
#     Edge 102, Type (0, 1), BuildingBlock: KIFKEQ_clean_linker_1, # of connection points: 2
#     Edge 103, Type (0, 1), BuildingBlock: KIFKEQ_clean_linker_1, # of connection points: 2
#     Edge 104, Type (0, 1), BuildingBlock: KIFKEQ_clean_linker_1, # of connection points: 2
#     Edge 105, Type (0, 1), BuildingBlock: KIFKEQ_clean_linker_1, # of connection points: 2
#     Edge 106, Type (0, 1), BuildingBlock: KIFKEQ_clean_linker_1, # of connection points: 2
#     Edge 107, Type (0, 1), BuildingBlock: KIFKEQ_clean_linker_1, # of connection points: 2
#     Edge 108, Type (0, 1), BuildingBlock: KIFKEQ_clean_linker_1, # of connection points: 2
#     Edge 109, Type (0, 1), BuildingBlock: KIFKEQ_clean_linker_1, # of connection points: 2
#     Edge 110, Type (0, 1), BuildingBlock: KIFKEQ_clean_linker_1, # of connection points: 2
#     Edge 111, Type (0, 1), BuildingBlock: KIFKEQ_clean_linker_1, # of connection points: 2
#     Edge 112, Type (0, 1), BuildingBlock: KIFKEQ_clean_linker_1, # of connection points: 2
#     Edge 113, Type (0, 1), BuildingBlock: KIFKEQ_clean_linker_1, # of connection points: 2
#     Edge 114, Type (0, 1), BuildingBlock: KIFKEQ_clean_linker_1, # of connection points: 2
#     Edge 115, Type (0, 1), BuildingBlock: KIFKEQ_clean_linker_1, # of connection points: 2
#     Edge 116, Type (0, 1), BuildingBlock: KIFKEQ_clean_linker_1, # of connection points: 2
#     Edge 117, Type (0, 1), BuildingBlock: KIFKEQ_clean_linker_1, # of connection points: 2
#     Edge 118, Type (0, 1), BuildingBlock: KIFKEQ_clean_linker_1, # of connection points: 2
#     Edge 119, Type (0, 1), BuildingBlock: KIFKEQ_clean_linker_1, # of connection points: 2
#     Edge 120, Type (0, 1), BuildingBlock: KIFKEQ_clean_linker_1, # of connection points: 2
#     Edge 121, Type (0, 1), BuildingBlock: KIFKEQ_clean_linker_1, # of connection points: 2
#     Edge 122, Type (0, 1), BuildingBlock: KIFKEQ_clean_linker_1, # of connection points: 2
#     Edge 123, Type (0, 1), BuildingBlock: KIFKEQ_clean_linker_1, # of connection points: 2
#     Edge 124, Type (0, 1), BuildingBlock: KIFKEQ_clean_linker_1, # of connection points: 2
#     Edge 125, Type (0, 1), BuildingBlock: KIFKEQ_clean_linker_1, # of connection points: 2
#     Edge 126, Type (0, 1), BuildingBlock: KIFKEQ_clean_linker_1, # of connection points: 2
#     Edge 127, Type (0, 1), BuildingBlock: KIFKEQ_clean_linker_1, # of connection points: 2
#     Edge 128, Type (0, 1), BuildingBlock: KIFKEQ_clean_linker_1, # of connection points: 2
#     Edge 129, Type (0, 1), BuildingBlock: KIFKEQ_clean_linker_1, # of connection points: 2
#     Edge 130, Type (0, 1), BuildingBlock: KIFKEQ_clean_linker_1, # of connection points: 2
#     Edge 131, Type (0, 1), BuildingBlock: KIFKEQ_clean_linker_1, # of connection points: 2
#     Edge 132, Type (0, 1), BuildingBlock: KIFKEQ_clean_linker_1, # of connection points: 2
#     Edge 133, Type (0, 1), BuildingBlock: KIFKEQ_clean_linker_1, # of connection points: 2
#     Edge 134, Type (0, 1), BuildingBlock: KIFKEQ_clean_linker_1, # of connection points: 2
#     Edge 135, Type (0, 1), BuildingBlock: KIFKEQ_clean_linker_1, # of connection points: 2
# Relax obj value: 0.119
# Max RMSD: 0.276
# Mean RMSD: 0.153
data_MOF--net-gar--node1-GALJAG_clean_sbu_0--node2-MIFKUJ_clean_sbu_0--edge1-KIFKEQ_clean_linker_1
_symmetry_space_group_name_H-M    P1
_symmetry_Int_Tables_number       1
_symmetry_cell_setting            triclinic
loop_
_symmetry_equiv_pos_as_xyz
'x, y, z'
_cell_length_a     57.371775
_cell_length_b     57.392284
_cell_length_c     55.119818
_cell_angle_alpha  94.438596
_cell_angle_beta   94.482885
_cell_angle_gamma 98.663018
loop_
_atom_site_label
_atom_site_type_symbol
_atom_site_fract_x
_atom_site_fract_y
_atom_site_fract_z
_atom_type_partial_charge
In0 In 0.03384 0.27265 0.39796 0.0
O1 O 0.05201 0.25905 0.3649 0.0
O2 O 0.07259 0.28342 0.39197 0.0
C3 C 0.99701 0.27741 0.36583 0.0
C4 C 0.0311 0.23552 0.42587 0.0
C5 C 0.03466 0.31037 0.43066 0.0
O6 O 0.00327 0.25764 0.36907 0.0
O7 O 0.00986 0.29479 0.37803 0.0
O8 O 0.01951 0.29188 0.43006 0.0
O9 O 0.04938 0.30979 0.41485 0.0
C10 C 0.07207 0.27077 0.37217 0.0
O11 O 0.04989 0.24979 0.42494 0.0
O12 O 0.01363 0.23984 0.41266 0.0
In13 In 0.01018 0.75196 0.63814 0.0
O14 O 1.00005 0.76997 0.60435 0.0
O15 O 0.02735 0.78874 0.62999 0.0
C16 C 0.99918 0.7088 0.61307 0.0
C17 C 0.05384 0.75266 0.66089 0.0
C18 C 0.97367 0.75804 0.6652 0.0
O19 O 0.00848 0.72687 0.60368 0.0
O20 O 0.995 0.71255 0.63504 0.0
O21 O 0.98944 0.74615 0.67183 0.0
O22 O 0.97647 0.76689 0.64522 0.0
C23 C 0.0149 0.78854 0.61002 0.0
O24 O 0.03881 0.76386 0.67001 0.0
O25 O 0.04677 0.7412 0.64057 0.0
In26 In 0.53274 0.77519 0.89304 0.0
O27 O 0.55283 0.77276 0.85859 0.0
O28 O 0.57272 0.77902 0.89323 0.0
C29 C 0.49161 0.77466 0.86518 0.0
C30 C 0.53158 0.73517 0.91597 0.0
C31 C 0.53369 0.8134 0.92515 0.0
O32 O 0.50831 0.79188 0.86648 0.0
O33 O 0.49611 0.75778 0.8771 0.0
O34 O 0.51847 0.79501 0.92453 0.0
O35 O 0.54846 0.81267 0.9094 0.0
C36 C 0.573 0.7759 0.87037 0.0
O37 O 0.53299 0.75529 0.92742 0.0
O38 O 0.53113 0.73531 0.89307 0.0
In39 In 0.51378 0.25336 0.14357 0.0
O40 O 0.50477 0.22741 0.10908 0.0
O41 O 0.51905 0.2148 0.14128 0.0
C42 C 0.51608 0.29422 0.12229 0.0
C43 C 0.47237 0.25149 0.16437 0.0
C44 C 0.55775 0.25997 0.16684 0.0
O45 O 0.5173 0.27476 0.11049 0.0
O46 O 0.51376 0.29302 0.14478 0.0
O47 O 0.53965 0.25243 0.17734 0.0
O48 O 0.55352 0.26428 0.14498 0.0
C49 C 0.51159 0.21028 0.11906 0.0
O50 O 0.49208 0.25422 0.177 0.0
O51 O 0.47369 0.24934 0.14163 0.0
In52 In 0.03283 0.77675 0.15525 0.0
O53 O 0.03626 0.75044 0.12274 0.0
O54 O 0.0197 0.73721 0.1531 0.0
C55 C 0.0355 0.81616 0.13101 0.0
C56 C 0.99383 0.77809 0.17941 0.0
C57 C 0.07571 0.77948 0.18014 0.0
O58 O 0.02473 0.79635 0.12156 0.0
O59 O 0.04505 0.81591 0.15235 0.0
O60 O 0.05867 0.78716 0.18955 0.0
O61 O 0.07111 0.7707 0.1583 0.0
C62 C 0.02653 0.73263 0.13232 0.0
O63 O 0.01294 0.77359 0.18955 0.0
O64 O 0.99445 0.78184 0.1572 0.0
In65 In 0.51624 0.76114 0.39833 0.0
O66 O 0.53442 0.77155 0.36425 0.0
O67 O 0.54895 0.74736 0.38599 0.0
C68 C 0.47327 0.75529 0.37272 0.0
C69 C 0.51859 0.72623 0.4283 0.0
C70 C 0.52327 0.80448 0.42341 0.0
O71 O 0.48953 0.74432 0.36611 0.0
O72 O 0.4787 0.76878 0.39211 0.0
O73 O 0.51069 0.78685 0.43059 0.0
O74 O 0.53285 0.80004 0.40415 0.0
C75 C 0.55044 0.75896 0.36751 0.0
O76 O 0.535 0.74356 0.4284 0.0
O77 O 0.50088 0.72665 0.41335 0.0
In78 In 0.53632 0.28499 0.65881 0.0
O79 O 0.54301 0.25982 0.62652 0.0
O80 O 0.5281 0.2449 0.65693 0.0
C81 C 0.5327 0.32422 0.6353 0.0
C82 C 0.49764 0.28176 0.68391 0.0
C83 C 0.57939 0.28958 0.68379 0.0
O84 O 0.52494 0.30366 0.6255 0.0
O85 O 0.54232 0.32492 0.65675 0.0
O86 O 0.56051 0.28853 0.69419 0.0
O87 O 0.5766 0.28877 0.66079 0.0
C88 C 0.53536 0.24129 0.6362 0.0
O89 O 0.51833 0.28827 0.69402 0.0
O90 O 0.49638 0.27728 0.66101 0.0
In91 In 0.01291 0.25489 0.89397 0.0
O92 O 0.01913 0.23646 0.92889 0.0
O93 O 0.01055 0.21517 0.89518 0.0
C94 C 0.00922 0.29725 0.9172 0.0
C95 C 0.05513 0.25864 0.87518 0.0
C96 C 0.9739 0.24965 0.86204 0.0
O97 O 0.99887 0.27811 0.92387 0.0
O98 O 0.02135 0.29477 0.8994 0.0
O99 O 0.9936 0.26081 0.85788 0.0
O100 O 0.97378 0.24088 0.88234 0.0
C101 C 0.01562 0.21591 0.91793 0.0
O102 O 0.03591 0.2507 0.86247 0.0
O103 O 0.05306 0.26414 0.89743 0.0
In104 In 0.39156 0.03159 0.28811 0.0
O105 O 0.41042 0.01083 0.26108 0.0
O106 O 0.41055 0.04731 0.25685 0.0
C107 C 0.42283 0.04437 0.32799 0.0
C108 C 0.35982 0.06104 0.27889 0.0
C109 C 0.36752 0.98815 0.29177 0.0
O110 O 0.42787 0.03378 0.30874 0.0
O111 O 0.4019 0.04873 0.32725 0.0
O112 O 0.37672 0.0016 0.31039 0.0
O113 O 0.3699 0.99696 0.27165 0.0
C114 C 0.41693 0.02818 0.2492 0.0
O115 O 0.35371 0.03989 0.28329 0.0
O116 O 0.38188 0.06746 0.27961 0.0
In117 In 0.26825 0.13878 0.50044 0.0
O118 O 0.27138 0.17133 0.52829 0.0
O119 O 0.26459 0.13737 0.54124 0.0
C120 C 0.27244 0.16446 0.46102 0.0
C121 C 0.30891 0.12037 0.50518 0.0
C122 C 0.22513 0.11082 0.49264 0.0
O123 O 0.26183 0.17031 0.47915 0.0
O124 O 0.2809 0.14552 0.46255 0.0
O125 O 0.24402 0.1026 0.49706 0.0
O126 O 0.22809 0.13286 0.49136 0.0
C127 C 0.26779 0.15946 0.54633 0.0
O128 O 0.28971 0.10849 0.49528 0.0
O129 O 0.3077 0.14163 0.51208 0.0
In130 In 0.14905 0.01781 0.78865 0.0
O131 O 0.12686 0.99403 0.75701 0.0
O132 O 0.12876 0.03117 0.75658 0.0
C133 C 0.12395 0.01392 0.82868 0.0
C134 C 0.17822 0.98485 0.78374 0.0
C135 C 0.17432 0.06221 0.79189 0.0
O136 O 0.11449 0.00837 0.80719 0.0
O137 O 0.14585 0.02138 0.82995 0.0
O138 O 0.18391 0.04432 0.79587 0.0
O139 O 0.15223 0.05772 0.78684 0.0
C140 C 0.12098 0.01097 0.74588 0.0
O141 O 0.16576 0.98651 0.80148 0.0
O142 O 0.17614 0.9999 0.7685 0.0
In143 In 0.25556 0.88922 0.01261 0.0
O144 O 0.24681 0.86061 0.0385 0.0
O145 O 0.26977 0.89222 0.05248 0.0
C146 C 0.24181 0.86011 0.97134 0.0
C147 C 0.22525 0.91982 0.02196 0.0
C148 C 0.30063 0.90515 0.00418 0.0
O149 O 0.25038 0.85317 0.99071 0.0
O150 O 0.23945 0.88165 0.97292 0.0
O151 O 0.28391 0.91628 0.99858 0.0
O152 O 0.29446 0.8861 0.01351 0.0
C153 C 0.25972 0.87196 0.05648 0.0
O154 O 0.24665 0.92645 0.01867 0.0
O155 O 0.21895 0.89766 0.02019 0.0
In156 In 0.27084 0.39549 0.04132 0.0
O157 O 0.26239 0.36019 0.05812 0.0
O158 O 0.26945 0.39148 0.08233 0.0
C159 C 0.27433 0.37521 0.99586 0.0
C160 C 0.23015 0.41433 0.03853 0.0
C161 C 0.31431 0.4229 0.04795 0.0
O162 O 0.27941 0.36553 0.01493 0.0
O163 O 0.26735 0.39483 0.99974 0.0
O164 O 0.29584 0.43076 0.04078 0.0
O165 O 0.31077 0.40151 0.05239 0.0
C166 C 0.26441 0.36918 0.07995 0.0
O167 O 0.24978 0.42616 0.04726 0.0
O168 O 0.23099 0.39296 0.03181 0.0
In169 In 0.7826 0.1404 0.03087 0.0
O170 O 0.80295 0.11635 0.00861 0.0
O171 O 0.81181 0.1216 0.04695 0.0
C172 C 0.74261 0.10855 0.02954 0.0
C173 C 0.7841 0.17248 0.06967 0.0
C174 C 0.78569 0.17145 0.99649 0.0
O175 O 0.75129 0.11584 0.0107 0.0
O176 O 0.75451 0.11683 0.04938 0.0
O177 O 0.76654 0.15899 0.00031 0.0
O178 O 0.80353 0.16813 0.00989 0.0
C179 C 0.81578 0.11183 0.02671 0.0
O180 O 0.76601 0.16625 0.05476 0.0
O181 O 0.8015 0.16222 0.06528 0.0
In182 In 0.14033 0.49996 0.26952 0.0
O183 O 0.17561 0.48693 0.27897 0.0
O184 O 0.14456 0.46141 0.27167 0.0
C185 C 0.16385 0.54411 0.26755 0.0
C186 C 0.11267 0.49437 0.22702 0.0
C187 C 0.11247 0.49839 0.30655 0.0
O188 O 0.16557 0.52736 0.25189 0.0
O189 O 0.15088 0.53836 0.28421 0.0
O190 O 0.10491 0.49056 0.28493 0.0
O191 O 0.13435 0.5063 0.3097 0.0
C192 C 0.16659 0.46537 0.27727 0.0
O193 O 0.10902 0.50744 0.2453 0.0
O194 O 0.13063 0.48424 0.22994 0.0
In195 In 0.77183 0.89231 0.54149 0.0
O196 O 0.76226 0.85806 0.56002 0.0
O197 O 0.7745 0.88955 0.58297 0.0
C198 C 0.76855 0.87136 0.49511 0.0
C199 C 0.73383 0.91527 0.54071 0.0
C200 C 0.81659 0.91683 0.54524 0.0
O201 O 0.77687 0.86213 0.51322 0.0
O202 O 0.76186 0.89088 0.50041 0.0
O203 O 0.7986 0.92682 0.54694 0.0
O204 O 0.81206 0.89458 0.54215 0.0
C205 C 0.76736 0.86754 0.58156 0.0
O206 O 0.75485 0.92595 0.54184 0.0
O207 O 0.73198 0.89303 0.54054 0.0
In208 In 0.89605 0.02034 0.25313 0.0
O209 O 0.93054 0.01902 0.23472 0.0
O210 O 0.89989 0.023 0.21235 0.0
C211 C 0.92382 0.02316 0.29575 0.0
C212 C 0.87346 0.05872 0.25372 0.0
C213 C 0.86516 0.97937 0.25281 0.0
O214 O 0.92109 0.00529 0.28035 0.0
O215 O 0.91316 0.03965 0.2893 0.0
O216 O 0.86992 0.99446 0.27104 0.0
O217 O 0.87571 0.985 0.23436 0.0
C218 C 0.92165 0.02146 0.21358 0.0
O219 O 0.86264 0.03801 0.25459 0.0
O220 O 0.89541 0.05995 0.25216 0.0
In221 In 0.28157 0.63586 0.53783 0.0
O222 O 0.30077 0.60415 0.54275 0.0
O223 O 0.3144 0.62939 0.51913 0.0
C224 C 0.23679 0.61581 0.54397 0.0
C225 C 0.29995 0.66496 0.57794 0.0
C226 C 0.27144 0.6542 0.49562 0.0
O227 O 0.25293 0.60365 0.54033 0.0
O228 O 0.24337 0.63781 0.54505 0.0
O229 O 0.2747 0.66648 0.51594 0.0
O230 O 0.27344 0.63266 0.49656 0.0
C231 C 0.31608 0.61015 0.52822 0.0
O232 O 0.29859 0.67189 0.55684 0.0
O233 O 0.29272 0.64321 0.57876 0.0
In234 In 0.39259 0.51817 0.75054 0.0
O235 O 0.36073 0.53707 0.75687 0.0
O236 O 0.39181 0.55748 0.74655 0.0
C237 C 0.36784 0.47342 0.74493 0.0
C238 C 0.41635 0.52302 0.71001 0.0
C239 C 0.4153 0.52033 0.79615 0.0
O240 O 0.3578 0.4915 0.74467 0.0
O241 O 0.3901 0.47791 0.74745 0.0
O242 O 0.42392 0.51277 0.77731 0.0
O243 O 0.39565 0.52713 0.79194 0.0
C244 C 0.37089 0.55713 0.75229 0.0
O245 O 0.42641 0.5274 0.73144 0.0
O246 O 0.39424 0.51636 0.70898 0.0
In247 In 0.64939 0.00336 0.76823 0.0
O248 O 0.68124 0.98897 0.78564 0.0
O249 O 0.65796 0.96637 0.75905 0.0
C250 C 0.67864 0.04521 0.7717 0.0
C251 C 0.62207 0.99953 0.72564 0.0
C252 C 0.61834 0.00128 0.80246 0.0
O253 O 0.6696 0.03482 0.75138 0.0
O254 O 0.67324 0.03429 0.78993 0.0
O255 O 0.62744 0.02043 0.79489 0.0
O256 O 0.62491 0.98299 0.79275 0.0
C257 C 0.6764 0.96901 0.77363 0.0
O258 O 0.61507 0.00615 0.74578 0.0
O259 O 0.64301 0.99508 0.7269 0.0
In260 In 0.76715 0.64194 0.00646 0.0
O261 O 0.78759 0.61341 0.99114 0.0
O262 O 0.79749 0.62844 0.02757 0.0
C263 C 0.72579 0.61102 0.00109 0.0
C264 C 0.76942 0.6724 0.04725 0.0
C265 C 0.77239 0.66933 0.96834 0.0
O266 O 0.7424 0.60972 0.01705 0.0
O267 O 0.73022 0.6275 0.98749 0.0
O268 O 0.75475 0.6681 0.98071 0.0
O269 O 0.78757 0.65687 0.97521 0.0
C270 C 0.80115 0.61393 0.01045 0.0
O271 O 0.78614 0.67241 0.03372 0.0
O272 O 0.75137 0.65742 0.03996 0.0
In273 In 0.88944 0.52824 0.78603 0.0
O274 O 0.85244 0.53802 0.78033 0.0
O275 O 0.88174 0.56511 0.77878 0.0
C276 C 0.87421 0.4822 0.79118 0.0
C277 C 0.90779 0.52531 0.74277 0.0
C278 C 0.91771 0.54161 0.82789 0.0
O279 O 0.86257 0.49822 0.7977 0.0
O280 O 0.89352 0.48955 0.78288 0.0
O281 O 0.92551 0.53618 0.80787 0.0
O282 O 0.89556 0.5408 0.82681 0.0
C283 C 0.85953 0.55932 0.77708 0.0
O284 O 0.91926 0.53657 0.76165 0.0
O285 O 0.8868 0.51635 0.74556 0.0
In286 In 0.7494 0.39188 0.51309 0.0
O287 O 0.73373 0.36194 0.5347 0.0
O288 O 0.76341 0.38613 0.55151 0.0
C289 C 0.73996 0.36484 0.46999 0.0
C290 C 0.71969 0.42289 0.52402 0.0
C291 C 0.79491 0.40915 0.50765 0.0
O292 O 0.74524 0.35669 0.48987 0.0
O293 O 0.73868 0.38664 0.47184 0.0
O294 O 0.77805 0.41917 0.4998 0.0
O295 O 0.78871 0.39076 0.51812 0.0
C296 C 0.74872 0.36769 0.553 0.0
O297 O 0.74189 0.42846 0.5268 0.0
O298 O 0.71245 0.40177 0.51556 0.0
In299 In 0.65167 0.52326 0.28972 0.0
O300 O 0.67264 0.49807 0.26968 0.0
O301 O 0.67605 0.50005 0.30827 0.0
C302 C 0.68181 0.56424 0.28738 0.0
C303 C 0.61893 0.51788 0.25069 0.0
C304 C 0.62383 0.52088 0.32765 0.0
O305 O 0.67873 0.55515 0.30723 0.0
O306 O 0.67008 0.55254 0.26897 0.0
O307 O 0.62506 0.5032 0.313 0.0
O308 O 0.63637 0.53973 0.32302 0.0
C309 C 0.68172 0.49073 0.28856 0.0
O310 O 0.62514 0.53738 0.26346 0.0
O311 O 0.62838 0.50103 0.25833 0.0
Zn312 Zn 0.05009 0.01341 0.03814 0.0
Zn313 Zn 0.00162 0.02002 0.00976 0.0
C314 C 0.03997 0.97428 0.06355 0.0
O315 O 0.04807 0.99174 0.08036 0.0
C316 C 0.01545 0.06056 0.9878 0.0
O317 O 0.00665 0.04457 0.96977 0.0
O318 O 0.0841 0.01522 0.05169 0.0
O319 O 0.05176 0.02009 0.00259 0.0
O320 O 0.01759 0.00162 0.98457 0.0
C321 C 0.10156 0.02339 0.04034 0.0
O322 O 0.09787 0.03586 0.02182 0.0
O323 O 0.03804 0.97877 0.04128 0.0
C324 C 0.95872 0.03313 0.01651 0.0
O325 O 0.97286 0.0427 0.03571 0.0
O326 O 0.96698 0.02107 0.99976 0.0
O327 O 1.00068 0.00852 0.04351 0.0
O328 O 0.03199 0.03217 0.06099 0.0
O329 O 0.01614 0.05455 0.00958 0.0
C330 C 0.03931 0.00995 0.98348 0.0
C331 C 0.01111 0.02138 0.06215 0.0
Zn332 Zn 0.26214 0.75344 0.2979 0.0
Zn333 Zn 0.28493 0.77502 0.25454 0.0
C334 C 0.2296 0.71567 0.27457 0.0
O335 O 0.21588 0.72879 0.28543 0.0
C336 C 0.31526 0.81416 0.27784 0.0
O337 O 0.32963 0.8026 0.26601 0.0
O338 O 0.25361 0.74443 0.33109 0.0
O339 O 0.29758 0.7609 0.30257 0.0
O340 O 0.30616 0.75198 0.26511 0.0
C341 C 0.25774 0.72395 0.3356 0.0
O342 O 0.26685 0.71114 0.31914 0.0
O343 O 0.25166 0.72335 0.27564 0.0
C344 C 0.28208 0.80405 0.21765 0.0
O345 O 0.27059 0.81306 0.23486 0.0
O346 O 0.29164 0.78589 0.22151 0.0
O347 O 0.24982 0.76511 0.24991 0.0
O348 O 0.24266 0.77777 0.2867 0.0
O349 O 0.29369 0.8048 0.27747 0.0
C350 C 0.31158 0.75354 0.28805 0.0
C351 C 0.23668 0.77464 0.26387 0.0
Zn352 Zn 0.50128 0.03298 0.53439 0.0
Zn353 Zn 0.54952 0.01574 0.51559 0.0
C354 C 0.52036 0.07315 0.56529 0.0
O355 O 0.51039 0.05876 0.58026 0.0
C356 C 0.53226 0.97496 0.48548 0.0
O357 O 0.54243 0.98936 0.47063 0.0
O358 O 0.46718 0.03859 0.53651 0.0
O359 O 0.50245 0.02122 0.4994 0.0
O360 O 0.5379 0.03658 0.49064 0.0
C361 C 0.46299 0.05545 0.52386 0.0
O362 O 0.48006 0.06577 0.51196 0.0
O363 O 0.52011 0.06579 0.54289 0.0
C364 C 0.58765 0.99412 0.52818 0.0
O365 O 0.57064 0.98557 0.54118 0.0
O366 O 0.58357 0.00967 0.51373 0.0
O367 O 0.54836 0.02767 0.55059 0.0
O368 O 0.51289 0.01202 0.55911 0.0
O369 O 0.53109 0.98281 0.5075 0.0
C370 C 0.51557 0.03256 0.48536 0.0
C371 C 0.53514 0.01659 0.56476 0.0
Zn372 Zn 0.29836 0.25775 0.76366 0.0
Zn373 Zn 0.25269 0.27706 0.78165 0.0
C374 C 0.27922 0.22727 0.72142 0.0
O375 O 0.28338 0.21158 0.73666 0.0
C376 C 0.27283 0.30807 0.82217 0.0
O377 O 0.26483 0.32241 0.80723 0.0
O378 O 0.33168 0.2518 0.76057 0.0
O379 O 0.30162 0.29323 0.77189 0.0
O380 O 0.26637 0.2994 0.7578 0.0
C381 C 0.34959 0.2656 0.7712 0.0
O382 O 0.34637 0.28272 0.78723 0.0
O383 O 0.2833 0.24913 0.729 0.0
C384 C 0.21368 0.27107 0.80697 0.0
O385 O 0.2285 0.25856 0.81716 0.0
O386 O 0.21987 0.28243 0.78895 0.0
O387 O 0.24761 0.24188 0.77255 0.0
O388 O 0.28265 0.23446 0.78565 0.0
O389 O 0.27134 0.28628 0.81477 0.0
C390 C 0.28849 0.30659 0.76215 0.0
C391 C 0.26041 0.22801 0.78174 0.0
Zn392 Zn 0.02839 0.98726 0.52443 0.0
Zn393 Zn 0.01558 0.03731 0.51578 0.0
C394 C 0.05565 0.99203 0.56912 0.0
O395 O 0.06807 0.9812 0.55408 0.0
C396 C 0.98718 0.0293 0.47206 0.0
O397 O 0.97437 0.03906 0.48751 0.0
O398 O 0.03061 0.95238 0.52368 0.0
O399 O 0.99402 0.98827 0.51361 0.0
O400 O 0.99016 0.02104 0.53514 0.0
C401 C 0.01421 0.9405 0.53394 0.0
O402 O 0.99748 0.95127 0.54239 0.0
O403 O 0.03652 0.99829 0.5605 0.0
C404 C 0.02863 0.08181 0.50115 0.0
O405 O 0.04298 0.06884 0.4912 0.0
O406 O 0.01359 0.07218 0.51463 0.0
O407 O 0.04993 0.03684 0.52689 0.0
O408 O 0.05387 0.004 0.50559 0.0
O409 O 0.00736 0.02494 0.48007 0.0
C410 C 0.98146 1.0002 0.52608 0.0
C411 C 0.06248 0.02492 0.5144 0.0
Zn412 Zn 0.26576 0.79781 0.75804 0.0
Zn413 Zn 0.28013 0.74894 0.77729 0.0
C414 C 0.22511 0.78161 0.72578 0.0
O415 O 0.23971 0.79145 0.71093 0.0
C416 C 0.32087 0.76728 0.80725 0.0
O417 O 0.30694 0.75625 0.82199 0.0
O418 O 0.26275 0.83199 0.75246 0.0
O419 O 0.27195 0.79717 0.79463 0.0
O420 O 0.25902 0.76023 0.8017 0.0
C421 C 0.27077 0.8491 0.76847 0.0
O422 O 0.28482 0.84528 0.78722 0.0
O423 O 0.23257 0.78103 0.74802 0.0
C424 C 0.30446 0.71072 0.76943 0.0
O425 O 0.31637 0.72772 0.75864 0.0
O426 O 0.28616 0.71484 0.77974 0.0
O427 O 0.2679 0.74991 0.74271 0.0
O428 O 0.28783 0.78387 0.73559 0.0
O429 O 0.31266 0.76853 0.78536 0.0
C430 C 0.26195 0.78235 0.80813 0.0
C431 C 0.28156 0.76183 0.72965 0.0
Zn432 Zn 0.52627 0.01469 0.00198 0.0
Zn433 Zn 0.51336 0.00073 0.05098 0.0
C434 C 0.57001 0.04295 0.01072 0.0
O435 O 0.55716 0.05555 0.99786 0.0
C436 C 0.47105 0.97177 0.03262 0.0
O437 O 0.48208 0.95738 0.04502 0.0
O438 O 0.52892 0.01652 0.96599 0.0
O439 O 0.51427 0.9801 0.00382 0.0
O440 O 0.53312 0.97644 0.03919 0.0
C441 C 0.54184 0.00185 0.9583 0.0
O442 O 0.55086 0.9887 0.9739 0.0
O443 O 0.56022 0.02305 0.01656 0.0
C444 C 0.49017 0.01091 0.09053 0.0
O445 O 0.48191 0.02269 0.07314 0.0
O446 O 0.50572 0.99799 0.08579 0.0
O447 O 0.52692 0.03495 0.05105 0.0
O448 O 0.50864 0.04001 0.01586 0.0
O449 O 0.48105 0.99299 0.0318 0.0
C450 C 0.52503 0.96777 0.01775 0.0
C451 C 0.51658 0.04794 0.03758 0.0
Zn452 Zn 0.27133 0.2357 0.25303 0.0
Zn453 Zn 0.2681 0.28436 0.27985 0.0
C454 C 0.31065 0.23904 0.22705 0.0
O455 O 0.29287 0.2295 0.21113 0.0
C456 C 0.22816 0.27177 0.30302 0.0
O457 O 0.24438 0.28257 0.32 0.0
O458 O 0.26645 0.20092 0.24122 0.0
O459 O 0.26583 0.23611 0.28913 0.0
O460 O 0.28755 0.26957 0.30497 0.0
C461 C 0.25796 0.18473 0.25402 0.0
O462 O 0.24677 0.19044 0.27296 0.0
O463 O 0.30628 0.24499 0.24877 0.0
C464 C 0.25112 0.32505 0.27307 0.0
O465 O 0.24164 0.30944 0.25496 0.0
O466 O 0.26574 0.31887 0.28902 0.0
O467 O 0.27947 0.2848 0.24614 0.0
O468 O 0.25396 0.25453 0.22945 0.0
O469 O 0.23374 0.26899 0.28117 0.0
C470 C 0.27804 0.24843 0.30723 0.0
C471 C 0.26604 0.27474 0.22774 0.0
Zn472 Zn 0.52718 0.49219 0.03067 0.0
Zn473 Zn 0.51226 0.53991 0.01351 0.0
C474 C 0.55545 0.5031 0.07428 0.0
O475 O 0.56834 0.49232 0.05972 0.0
C476 C 0.48186 0.52473 0.9713 0.0
O477 O 0.46804 0.53344 0.98637 0.0
O478 O 0.52932 0.45788 0.03464 0.0
O479 O 0.49269 0.49136 0.01929 0.0
O480 O 0.48771 0.52625 0.03536 0.0
C481 C 0.51503 0.44963 0.04954 0.0
O482 O 0.5012 0.46347 0.05906 0.0
O483 O 0.53544 0.50724 0.06552 0.0
C484 C 0.5238 0.58076 0.99226 0.0
O485 O 0.53645 0.56571 0.98275 0.0
O486 O 0.50997 0.57396 0.00821 0.0
O487 O 0.54707 0.54154 0.02429 0.0
O488 O 0.55265 0.50614 0.01015 0.0
O489 O 0.50318 0.52387 0.97908 0.0
C490 C 0.47979 0.50441 0.02984 0.0
C491 C 0.5604 0.52806 0.01518 0.0
Zn492 Zn 0.77053 0.30015 0.26385 0.0
Zn493 Zn 0.78459 0.2499 0.2776 0.0
C494 C 0.72807 0.28551 0.23517 0.0
O495 O 0.74182 0.29639 0.2202 0.0
C496 C 0.82835 0.26832 0.30471 0.0
O497 O 0.81575 0.26068 0.32222 0.0
O498 O 0.76744 0.33501 0.26285 0.0
O499 O 0.78326 0.29732 0.29828 0.0
O500 O 0.76564 0.2618 0.30416 0.0
C501 C 0.75342 0.34108 0.27818 0.0
O502 O 0.74378 0.32505 0.2917 0.0
O503 O 0.73651 0.28382 0.25689 0.0
C504 C 0.80181 0.20925 0.26275 0.0
O505 O 0.80933 0.2248 0.24769 0.0
O506 O 0.78887 0.21542 0.27913 0.0
O507 O 0.77098 0.25181 0.24321 0.0
O508 O 0.78862 0.28742 0.23684 0.0
O509 O 0.81844 0.26692 0.28307 0.0
C510 C 0.77144 0.28363 0.31148 0.0
C511 C 0.7806 0.26604 0.22902 0.0
Zn512 Zn 0.02237 0.51706 0.50025 0.0
Zn513 Zn 0.00816 0.49953 0.54703 0.0
C514 C 0.06433 0.54859 0.51901 0.0
O515 O 0.05114 0.56418 0.51221 0.0
C516 C 0.96741 0.46996 0.5247 0.0
O517 O 0.97847 0.45498 0.53615 0.0
O518 O 0.02545 0.52406 0.46564 0.0
O519 O 0.01426 0.48145 0.49885 0.0
O520 O 0.02983 0.47707 0.53563 0.0
C521 C 0.01474 0.51022 0.44781 0.0
O522 O 0.99889 0.49234 0.45209 0.0
O523 O 0.05573 0.5267 0.51621 0.0
C524 C 0.98091 0.50513 0.58451 0.0
O525 O 0.97305 0.51746 0.56742 0.0
O526 O 0.99808 0.49406 0.58059 0.0
O527 O 0.01994 0.53433 0.55022 0.0
O528 O 0.00123 0.5385 0.51513 0.0
O529 O 0.97714 0.49146 0.52555 0.0
C530 C 0.02393 0.46896 0.51352 0.0
C531 C 0.00827 0.54649 0.53702 0.0
Zn532 Zn 0.79581 0.76839 0.267 0.0
Zn533 Zn 0.74525 0.77799 0.27405 0.0
C534 C 0.79216 0.74288 0.22144 0.0
O535 O 0.80501 0.73133 0.23557 0.0
C536 C 0.75385 0.80628 0.31828 0.0
O537 O 0.74466 0.81985 0.30325 0.0
O538 O 0.83103 0.76813 0.26709 0.0
O539 O 0.79339 0.80209 0.27881 0.0
O540 O 0.76117 0.80449 0.25558 0.0
C541 C 0.84108 0.78428 0.25513 0.0
O542 O 0.82836 0.7993 0.24604 0.0
O543 O 0.78431 0.76076 0.23093 0.0
C544 C 0.69888 0.76131 0.28343 0.0
O545 O 0.71045 0.74448 0.29021 0.0
O546 O 0.71008 0.77896 0.27436 0.0
O547 O 0.74766 0.74411 0.2624 0.0
O548 O 0.7803 0.7415 0.28488 0.0
O549 O 0.75685 0.7857 0.31003 0.0
C550 C 0.78125 0.81417 0.26595 0.0
C551 C 0.76018 0.73183 0.27461 0.0
Zn552 Zn 0.77386 0.2623 0.79832 0.0
Zn553 Zn 0.77907 0.26647 0.74587 0.0
C554 C 0.74726 0.21741 0.79716 0.0
O555 O 0.73603 0.23034 0.81154 0.0
C556 C 0.80726 0.31079 0.75562 0.0
O557 O 0.82038 0.29901 0.74229 0.0
O558 O 0.77516 0.26354 0.83504 0.0
O559 O 0.80744 0.27337 0.79113 0.0
O560 O 0.80561 0.24938 0.75771 0.0
C561 C 0.79147 0.25315 0.84406 0.0
O562 O 0.80567 0.24459 0.82934 0.0
O563 O 0.76536 0.22739 0.78792 0.0
C564 C 0.7612 0.28067 0.70264 0.0
O565 O 0.74738 0.2875 0.71876 0.0
O566 O 0.77782 0.26963 0.7096 0.0
O567 O 0.74622 0.25262 0.75243 0.0
O568 O 0.7468 0.27787 0.7844 0.0
O569 O 0.78705 0.30055 0.76018 0.0
C570 C 0.81732 0.26023 0.77687 0.0
C571 C 0.7355 0.26589 0.76559 0.0
Zn572 Zn 0.77567 0.73848 0.75776 0.0
Zn573 Zn 0.77315 0.78734 0.78452 0.0
C574 C 0.81543 0.74574 0.73243 0.0
O575 O 0.7981 0.73695 0.7157 0.0
C576 C 0.73191 0.77619 0.80658 0.0
O577 O 0.74796 0.78492 0.82459 0.0
O578 O 0.77179 0.70417 0.74481 0.0
O579 O 0.76903 0.73785 0.79345 0.0
O580 O 0.7908 0.77101 0.80994 0.0
C581 C 0.76233 0.68738 0.7563 0.0
O582 O 0.75018 0.69231 0.77475 0.0
O583 O 0.81066 0.74894 0.75451 0.0
C584 C 0.76142 0.8305 0.77756 0.0
O585 O 0.75157 0.81623 0.75856 0.0
O586 O 0.77346 0.82221 0.79431 0.0
O587 O 0.78435 0.78716 0.75058 0.0
O588 O 0.758 0.75728 0.73454 0.0
O589 O 0.73817 0.77435 0.78493 0.0
C590 C 0.78075 0.74999 0.81195 0.0
C591 C 0.77041 0.77722 0.73246 0.0
Zn592 Zn 0.54506 0.51681 0.53661 0.0
Zn593 Zn 0.4992 0.52563 0.50508 0.0
C594 C 0.53111 0.47851 0.56224 0.0
O595 O 0.53796 0.49617 0.57915 0.0
C596 C 0.51933 0.56833 0.48778 0.0
O597 O 0.51528 0.55421 0.46749 0.0
O598 O 0.57803 0.51782 0.55285 0.0
O599 O 0.55023 0.52226 0.50124 0.0
O600 O 0.51597 0.50688 0.48123 0.0
C601 C 0.59657 0.52675 0.54357 0.0
O602 O 0.59454 0.54068 0.52597 0.0
O603 O 0.53157 0.48257 0.53988 0.0
C604 C 0.4478 0.51779 0.498 0.0
O605 O 0.44929 0.50014 0.51155 0.0
O606 O 0.46659 0.52881 0.49087 0.0
O607 O 0.49416 0.51442 0.53831 0.0
O608 O 0.52575 0.53676 0.55707 0.0
O609 O 0.51492 0.5599 0.50792 0.0
C610 C 0.5382 0.51326 0.48146 0.0
C611 C 0.5044 0.52679 0.55734 0.0
Zn612 Zn 0.98983 0.5214 0.03527 0.0
Zn613 Zn 0.03825 0.50413 0.01606 0.0
C614 C 0.00757 0.56221 0.06577 0.0
O615 O 0.99857 0.5476 0.08105 0.0
C616 C 0.01689 0.46425 0.98548 0.0
O617 O 0.02628 0.47837 0.96996 0.0
O618 O 0.95531 0.52537 0.03767 0.0
O619 O 0.99133 0.51012 0.00015 0.0
O620 O 0.02685 0.52604 0.99219 0.0
C621 C 0.94923 0.53979 0.02279 0.0
O622 O 0.96511 0.54954 0.00916 0.0
O623 O 0.00723 0.55472 0.0434 0.0
C624 C 0.07629 0.48054 0.02497 0.0
O625 O 0.05952 0.47036 0.03733 0.0
O626 O 0.07198 0.49762 0.0127 0.0
O627 O 0.03836 0.51532 0.05135 0.0
O628 O 0.00246 0.50101 0.06004 0.0
O629 O 0.01842 0.47175 0.00795 0.0
C630 C 0.00459 0.52194 0.98656 0.0
C631 C 0.02475 0.50489 0.06559 0.0
H632 H 0.00621 0.1705 0.89779 0.0
H633 H 0.02969 0.2125 0.96617 0.0
H634 H 0.00996 0.13469 0.9174 0.0
H635 H 0.03407 0.17634 0.98591 0.0
H636 H 0.03677 0.07514 0.94861 0.0
H637 H 0.04006 0.11426 0.93384 0.0
H638 H 0.01075 0.14049 0.99855 0.0
H639 H 0.00836 0.10121 0.01376 0.0
C640 C 0.01233 0.17209 0.91703 0.0
C641 C 0.01771 0.19432 0.93041 0.0
C642 C 0.0147 0.15153 0.92827 0.0
C643 C 0.0227 0.15263 0.95318 0.0
C644 C 0.02784 0.17488 0.96671 0.0
C645 C 0.02539 0.19556 0.95541 0.0
C646 C 0.03158 0.08943 0.95994 0.0
C647 C 0.02213 0.0852 0.98218 0.0
C648 C 0.03324 0.11179 0.9514 0.0
C649 C 0.02503 0.13035 0.96467 0.0
C650 C 0.0172 0.12657 0.98786 0.0
C651 C 0.01587 0.10413 0.99661 0.0
H652 H 0.09193 0.80166 0.22547 0.0
H653 H 0.11244 0.75923 0.16498 0.0
H654 H 0.13125 0.80336 0.24693 0.0
H655 H 0.15115 0.76021 0.18653 0.0
H656 H 0.22529 0.78339 0.21731 0.0
H657 H 0.18663 0.78703 0.19815 0.0
H658 H 0.15677 0.77925 0.26725 0.0
H659 H 0.19603 0.77656 0.28673 0.0
C660 C 0.10481 0.79264 0.21683 0.0
C661 C 0.09921 0.78045 0.1935 0.0
C662 C 0.12727 0.79351 0.22915 0.0
C663 C 0.14446 0.78213 0.21837 0.0
C664 C 0.13859 0.76968 0.19516 0.0
C665 C 0.11631 0.76896 0.18284 0.0
C666 C 0.21053 0.78271 0.2285 0.0
C667 C 0.21359 0.77943 0.25345 0.0
C668 C 0.18831 0.78464 0.21748 0.0
C669 C 0.16846 0.78292 0.23103 0.0
C670 C 0.1717 0.78072 0.25629 0.0
C671 C 0.19414 0.77912 0.26745 0.0
H672 H 0.49948 0.81961 0.4613 0.0
H673 H 0.55041 0.84425 0.41157 0.0
H674 H 0.49903 0.86055 0.47724 0.0
H675 H 0.55034 0.88489 0.42772 0.0
H676 H 0.52564 0.95456 0.43892 0.0
H677 H 0.52254 0.9128 0.42538 0.0
H678 H 0.52341 0.89571 0.50039 0.0
H679 H 0.52605 0.93774 0.51398 0.0
C680 C 0.51081 0.83374 0.45403 0.0
C681 C 0.52487 0.82877 0.43509 0.0
C682 C 0.51056 0.85716 0.46316 0.0
C683 C 0.52434 0.87598 0.45346 0.0
C684 C 0.53906 0.87084 0.43517 0.0
C685 C 0.53928 0.84753 0.42606 0.0
C686 C 0.52482 0.94189 0.45253 0.0
C687 C 0.5263 0.94944 0.47751 0.0
C688 C 0.52325 0.91796 0.44478 0.0
C689 C 0.52328 0.901 0.46185 0.0
C690 C 0.52337 0.90837 0.4868 0.0
C691 C 0.52483 0.93242 0.49458 0.0
H692 H 0.45154 0.26762 0.66621 0.0
H693 H 0.49645 0.28885 0.73329 0.0
H694 H 0.41697 0.26199 0.6894 0.0
H695 H 0.46189 0.28274 0.75658 0.0
H696 H 0.39013 0.29733 0.78363 0.0
H697 H 0.42666 0.30033 0.76352 0.0
H698 H 0.39881 0.23603 0.71785 0.0
H699 H 0.36209 0.23327 0.73758 0.0
C700 C 0.45402 0.27102 0.68592 0.0
C701 C 0.47666 0.27874 0.69793 0.0
C702 C 0.43424 0.26758 0.69924 0.0
C703 C 0.4367 0.27176 0.72487 0.0
C704 C 0.45938 0.27955 0.73686 0.0
C705 C 0.47917 0.28299 0.72352 0.0
C706 C 0.39194 0.28361 0.76958 0.0
C707 C 0.3731 0.26519 0.76205 0.0
C708 C 0.41291 0.28531 0.75808 0.0
C709 C 0.41551 0.2686 0.73884 0.0
C710 C 0.39716 0.24947 0.73224 0.0
C711 C 0.37619 0.24779 0.7437 0.0
H712 H 0.04741 0.82897 0.6167 0.0
H713 H 0.98665 0.79386 0.56937 0.0
H714 H 0.04849 0.86378 0.59368 0.0
H715 H 0.9878 0.82864 0.54635 0.0
H716 H 0.97748 0.90788 0.54324 0.0
H717 H 0.9792 0.86926 0.55806 0.0
H718 H 0.0546 0.87879 0.55215 0.0
H719 H 0.05287 0.9177 0.53719 0.0
C720 C 0.03447 0.8286 0.60121 0.0
C721 C 0.01681 0.80881 0.59496 0.0
C722 C 0.03521 0.84844 0.58792 0.0
C723 C 0.01819 0.84892 0.56826 0.0
C724 C 0.00102 0.82881 0.56154 0.0
C725 C 1.00039 0.80892 0.57469 0.0
C726 C 0.99437 0.90157 0.54469 0.0
C727 C 0.01506 0.91581 0.53917 0.0
C728 C 0.99533 0.87939 0.55305 0.0
C729 C 0.01705 0.87106 0.55635 0.0
C730 C 0.03765 0.88489 0.54993 0.0
C731 C 0.03664 0.90702 0.5412 0.0
H732 H 0.45333 0.74044 0.86379 0.0
H733 H 0.47582 0.80941 0.83949 0.0
H734 H 0.41274 0.74218 0.84868 0.0
H735 H 0.43471 0.81096 0.82401 0.0
H736 H 0.35715 0.7819 0.77925 0.0
H737 H 0.39978 0.78581 0.79137 0.0
H738 H 0.38474 0.77097 0.86459 0.0
H739 H 0.34254 0.76728 0.85281 0.0
C740 C 0.44967 0.75587 0.85493 0.0
C741 C 0.46775 0.77489 0.85301 0.0
C742 C 0.42638 0.75689 0.8464 0.0
C743 C 0.42061 0.77685 0.83554 0.0
C744 C 0.43878 0.79541 0.83239 0.0
C745 C 0.46221 0.79451 0.84123 0.0
C746 C 0.363 0.78001 0.79806 0.0
C747 C 0.34645 0.77396 0.81499 0.0
C748 C 0.38736 0.78224 0.80495 0.0
C749 C 0.39541 0.77828 0.82877 0.0
C750 C 0.37892 0.77372 0.84599 0.0
C751 C 0.35475 0.77167 0.83922 0.0
H752 H 0.48759 0.19209 0.07507 0.0
H753 H 0.53598 0.17602 0.13312 0.0
H754 H 0.48716 0.15275 0.05418 0.0
H755 H 0.53664 0.13755 0.11193 0.0
H756 H 0.51573 0.06219 0.08532 0.0
H757 H 0.51262 0.10104 0.10369 0.0
H758 H 0.5091 0.12716 0.03217 0.0
H759 H 0.51073 0.08728 0.01351 0.0
C760 C 0.49825 0.18019 0.08324 0.0
C761 C 0.51158 0.18693 0.10584 0.0
C762 C 0.49815 0.15773 0.07122 0.0
C763 C 0.51162 0.14177 0.08148 0.0
C764 C 0.52546 0.14899 0.10377 0.0
C765 C 0.52523 0.17115 0.11591 0.0
C766 C 0.51409 0.07612 0.07341 0.0
C767 C 0.51362 0.07171 0.04796 0.0
C768 C 0.51255 0.09856 0.084 0.0
C769 C 0.51116 0.11749 0.06952 0.0
C770 C 0.51006 0.11299 0.0439 0.0
C771 C 0.5111 0.09021 0.0332 0.0
H772 H 0.11664 0.29279 0.38696 0.0
H773 H 0.07636 0.24526 0.32875 0.0
H774 H 0.15282 0.2892 0.36791 0.0
H775 H 0.11306 0.24159 0.30951 0.0
H776 H 0.18601 0.26967 0.27471 0.0
H777 H 0.14647 0.2671 0.28965 0.0
H778 H 0.17639 0.25655 0.36156 0.0
H779 H 0.21548 0.25938 0.34686 0.0
C780 C 0.11549 0.28158 0.37003 0.0
C781 C 0.09365 0.2692 0.35945 0.0
C782 C 0.13628 0.27941 0.35918 0.0
C783 C 0.13583 0.26482 0.33741 0.0
C784 C 0.11392 0.25291 0.32632 0.0
C785 C 0.09298 0.25498 0.33735 0.0
C786 C 0.18392 0.26619 0.29351 0.0
C787 C 0.2038 0.26509 0.30974 0.0
C788 C 0.16135 0.26477 0.30207 0.0
C789 C 0.15848 0.26219 0.32691 0.0
C790 C 0.17814 0.25916 0.34249 0.0
C791 C 0.20052 0.26067 0.33403 0.0
H792 H 0.9062 0.02811 0.16696 0.0
H793 H 0.96854 0.01764 0.21131 0.0
H794 H 0.92858 0.02967 0.1312 0.0
H795 H 0.99095 0.01871 0.17529 0.0
H796 H 0.02851 0.04315 0.10783 0.0
H797 H 0.00753 0.04431 0.14492 0.0
H798 H 0.94545 0.00261 0.10495 0.0
H799 H 0.96599 0.0018 0.06823 0.0
C800 C 0.92469 0.02606 0.16906 0.0
C801 C 0.93553 0.02259 0.19196 0.0
C802 C 0.93753 0.02686 0.14851 0.0
C803 C 0.96157 0.02414 0.15027 0.0
C804 C 0.97255 0.02107 0.17329 0.0
C805 C 0.95966 0.02028 0.1939 0.0
C806 C 0.01036 0.03432 0.10701 0.0
C807 C 0.99897 0.02245 0.085 0.0
C808 C 0.99838 0.03485 0.12829 0.0
C809 C 0.97472 0.02366 0.12793 0.0
C810 C 0.96348 0.01178 0.10589 0.0
C811 C 0.97539 0.01118 0.08479 0.0
H812 H 0.276 0.6355 0.44982 0.0
H813 H 0.25525 0.69582 0.48937 0.0
H814 H 0.26938 0.65295 0.41165 0.0
H815 H 0.24722 0.71287 0.45096 0.0
H816 H 0.26551 0.7484 0.38067 0.0
H817 H 0.26634 0.73149 0.41998 0.0
H818 H 0.24127 0.66192 0.38288 0.0
H819 H 0.24206 0.67879 0.34375 0.0
C820 C 0.26962 0.65235 0.45025 0.0
C821 C 0.26621 0.66436 0.47248 0.0
C822 C 0.26559 0.66231 0.42833 0.0
C823 C 0.25757 0.68432 0.42808 0.0
C824 C 0.25371 0.69609 0.45042 0.0
C825 C 0.25818 0.68629 0.47242 0.0
C826 C 0.25984 0.72957 0.38111 0.0
C827 C 0.25398 0.7148 0.35935 0.0
C828 C 0.26023 0.71983 0.4036 0.0
C829 C 0.25429 0.6952 0.40465 0.0
C830 C 0.24673 0.68081 0.38279 0.0
C831 C 0.24693 0.69047 0.36038 0.0
H832 H 0.63237 0.98346 0.68055 0.0
H833 H 0.57811 0.01184 0.7182 0.0
H834 H 0.60919 0.98372 0.64161 0.0
H835 H 0.55514 0.01265 0.67913 0.0
H836 H 0.51335 0.99722 0.60314 0.0
H837 H 0.53272 0.98929 0.64232 0.0
H838 H 0.60082 0.01638 0.61865 0.0
H839 H 0.5819 0.02396 0.58005 0.0
C840 C 0.61543 0.98964 0.6805 0.0
C841 C 0.60719 0.99794 0.70233 0.0
C842 C 0.60217 0.98983 0.65822 0.0
C843 C 0.58047 0.99847 0.6573 0.0
C844 C 0.57171 0.00574 0.67927 0.0
C845 C 0.58495 0.00546 0.7016 0.0
C846 C 0.53245 0.00133 0.60636 0.0
C847 C 0.54604 0.01123 0.58848 0.0
C848 C 0.54351 0.99685 0.62875 0.0
C849 C 0.56831 0.00202 0.63345 0.0
C850 C 0.58175 0.01174 0.61545 0.0
C851 C 0.5708 0.01629 0.59333 0.0
H852 H 0.26118 0.39176 0.95283 0.0
H853 H 0.29233 0.33492 0.98256 0.0
H854 H 0.26438 0.37486 0.91169 0.0
H855 H 0.29623 0.3182 0.94111 0.0
H856 H 0.2702 0.28252 0.86214 0.0
H857 H 0.27283 0.2984 0.90489 0.0
H858 H 0.29263 0.36902 0.88342 0.0
H859 H 0.28915 0.35321 0.84081 0.0
C860 C 0.2689 0.37572 0.95055 0.0
C861 C 0.2765 0.36468 0.97093 0.0
C862 C 0.27095 0.3661 0.92692 0.0
C863 C 0.28083 0.34527 0.923 0.0
C864 C 0.28841 0.33417 0.94343 0.0
C865 C 0.28625 0.34378 0.96717 0.0
C866 C 0.27562 0.30137 0.86668 0.0
C867 C 0.27924 0.31667 0.84815 0.0
C868 C 0.27712 0.31049 0.89118 0.0
C869 C 0.28247 0.33507 0.89759 0.0
C870 C 0.28778 0.35009 0.87911 0.0
C871 C 0.28601 0.34102 0.85469 0.0
H872 H 0.94646 0.98912 0.31538 0.0
H873 H 0.92978 0.05925 0.33172 0.0
H874 H 0.96341 0.9894 0.35771 0.0
H875 H 0.94666 0.05951 0.37366 0.0
H876 H 0.9455 0.03824 0.45093 0.0
H877 H 0.93258 0.03634 0.40778 0.0
H878 H 0.99672 0.01089 0.38971 0.0
H879 H 0.00992 0.0128 0.43343 0.0
C880 C 0.94672 0.00469 0.32789 0.0
C881 C 0.9366 0.02408 0.32029 0.0
C882 C 0.95646 0.00486 0.35207 0.0
C883 C 0.95606 0.02434 0.36905 0.0
C884 C 0.94685 0.04407 0.36109 0.0
C885 C 0.93728 0.04396 0.33701 0.0
C886 C 0.95691 0.03211 0.43789 0.0
C887 C 0.97887 0.02586 0.44568 0.0
C888 C 0.94952 0.03116 0.41309 0.0
C889 C 0.9638 0.02383 0.39535 0.0
C890 C 0.98538 0.01665 0.40302 0.0
C891 C 0.99292 0.01776 0.428 0.0
H892 H 0.31298 0.65435 0.62381 0.0
H893 H 0.30037 0.71265 0.58222 0.0
H894 H 0.31533 0.67994 0.66161 0.0
H895 H 0.30147 0.73801 0.62002 0.0
H896 H 0.30862 0.78054 0.69431 0.0
H897 H 0.32033 0.75878 0.65825 0.0
H898 H 0.28383 0.69355 0.68071 0.0
H899 H 0.27291 0.71476 0.71633 0.0
C900 C 0.31106 0.67275 0.62278 0.0
C901 C 0.3061 0.68144 0.60018 0.0
C902 C 0.31226 0.6874 0.6444 0.0
C903 C 0.30793 0.71088 0.64389 0.0
C904 C 0.30492 0.72007 0.62114 0.0
C905 C 0.30416 0.70549 0.59945 0.0
C906 C 0.30336 0.76153 0.69153 0.0
C907 C 0.28969 0.74945 0.70809 0.0
C908 C 0.31002 0.74907 0.67091 0.0
C909 C 0.30321 0.72436 0.66666 0.0
C910 C 0.28994 0.71243 0.68358 0.0
C911 C 0.28335 0.72475 0.70396 0.0
H912 H 0.59379 0.96229 0.81933 0.0
H913 H 0.60631 0.03869 0.82935 0.0
H914 H 0.5699 0.96117 0.85408 0.0
H915 H 0.58316 0.03761 0.86453 0.0
H916 H 0.5314 0.02964 0.92175 0.0
H917 H 0.54507 0.02822 0.88074 0.0
H918 H 0.58047 0.96916 0.89712 0.0
H919 H 0.56641 0.97013 0.93735 0.0
C920 C 0.59129 0.97883 0.82888 0.0
C921 C 0.60213 0.00055 0.8219 0.0
C922 C 0.57768 0.97821 0.84879 0.0
C923 C 0.57485 0.9993 0.86223 0.0
C924 C 0.58477 0.02106 0.85444 0.0
C925 C 0.59822 0.02167 0.83442 0.0
C926 C 0.5418 0.01617 0.91636 0.0
C927 C 0.54801 1.00015 0.93282 0.0
C928 C 0.54971 0.01541 0.89297 0.0
C929 C 0.56389 0.9986 0.88569 0.0
C930 C 0.56928 0.98209 0.90193 0.0
C931 C 0.5614 0.98282 0.92516 0.0
H932 H 0.25797 0.32086 0.07953 0.0
H933 H 0.2655 0.38475 0.12815 0.0
H934 H 0.25692 0.29725 0.11463 0.0
H935 H 0.26379 0.36125 0.16311 0.0
H936 H 0.29138 0.31698 0.21984 0.0
H937 H 0.28926 0.33877 0.18412 0.0
H938 H 0.23497 0.2837 0.1485 0.0
H939 H 0.2375 0.26131 0.18456 0.0
C940 C 0.25913 0.32985 0.09771 0.0
C941 C 0.26204 0.35471 0.10107 0.0
C942 C 0.25838 0.31629 0.11783 0.0
C943 C 0.2605 0.3273 0.14179 0.0
C944 C 0.26261 0.35215 0.145 0.0
C945 C 0.26346 0.36566 0.12493 0.0
C946 C 0.27895 0.30936 0.20445 0.0
C947 C 0.26456 0.28732 0.20518 0.0
C948 C 0.27759 0.32205 0.18394 0.0
C949 C 0.26173 0.31322 0.16344 0.0
C950 C 0.24748 0.29101 0.16393 0.0
C951 C 0.24886 0.27819 0.1846 0.0
H952 H 0.17919 0.90985 0.03205 0.0
H953 H 0.23467 0.96806 0.02475 0.0
H954 H 0.15214 0.93779 0.04054 0.0
H955 H 0.20765 0.99608 0.03354 0.0
H956 H 0.14034 0.03116 0.01442 0.0
H957 H 0.17218 0.00758 0.01279 0.0
H958 H 0.14485 0.9687 0.07121 0.0
H959 H 0.11278 0.99204 0.07267 0.0
C960 C 0.18564 0.92863 0.03241 0.0
C961 C 0.20899 0.93676 0.0276 0.0
C962 C 0.17021 0.94466 0.0375 0.0
C963 C 0.17779 0.96918 0.03784 0.0
C964 C 0.20125 0.97731 0.03327 0.0
C965 C 0.21671 0.96126 0.02827 0.0
C966 C 0.14141 0.01798 0.02733 0.0
C967 C 0.12379 0.01328 0.04342 0.0
C968 C 0.15971 0.00446 0.02641 0.0
C969 C 0.16077 0.98597 0.04156 0.0
C970 C 0.1442 0.98248 0.05893 0.0
C971 C 0.12594 0.99602 0.0599 0.0
H972 H 0.68554 0.61548 0.97326 0.0
H973 H 0.71288 0.57254 0.02633 0.0
H974 H 0.64582 0.59348 0.9745 0.0
H975 H 0.67304 0.55042 0.02745 0.0
H976 H 0.59824 0.50495 0.00693 0.0
H977 H 0.63886 0.52292 0.00115 0.0
H978 H 0.6183 0.59227 0.00818 0.0
H979 H 0.57821 0.57462 0.01421 0.0
C980 C 0.68313 0.60113 0.98494 0.0
C981 C 0.70232 0.59586 0.99983 0.0
C982 C 0.66037 0.58859 0.98571 0.0
C983 C 0.65629 0.57033 0.0012 0.0
C984 C 0.67566 0.5643 0.01524 0.0
C985 C 0.69843 0.57704 0.01467 0.0
C986 C 0.60242 0.52401 0.00712 0.0
C987 C 0.58495 0.53832 0.011 0.0
C988 C 0.62566 0.53428 0.00391 0.0
C989 C 0.6317 0.55899 0.00404 0.0
C990 C 0.61414 0.57317 0.00763 0.0
C991 C 0.59115 0.56301 0.01123 0.0
H992 H 0.69275 0.46593 0.2479 0.0
H993 H 0.70378 0.47214 0.32666 0.0
H994 H 0.71334 0.43174 0.24597 0.0
H995 H 0.725 0.43832 0.32478 0.0
H996 H 0.72796 0.35888 0.31262 0.0
H997 H 0.71395 0.39665 0.3154 0.0
H998 H 0.75014 0.41624 0.25237 0.0
H999 H 0.76382 0.37773 0.2492 0.0
C1000 C 0.69993 0.46021 0.26481 0.0
C1001 C 0.69643 0.47159 0.28746 0.0
C1002 C 0.71189 0.44068 0.26369 0.0
C1003 C 0.72071 0.43208 0.28521 0.0
C1004 C 0.71807 0.44416 0.30784 0.0
C1005 C 0.70602 0.46364 0.30894 0.0
C1006 C 0.7331 0.37122 0.29937 0.0
C1007 C 0.74688 0.36516 0.28054 0.0
C1008 C 0.72522 0.39308 0.30113 0.0
C1009 C 0.7309 0.40961 0.28415 0.0
C1010 C 0.74522 0.40383 0.26562 0.0
C1011 C 0.75318 0.38184 0.26387 0.0
H1012 H 0.81368 0.44836 0.48594 0.0
H1013 H 0.83292 0.39035 0.52453 0.0
H1014 H 0.85572 0.4635 0.48387 0.0
H1015 H 0.87444 0.4056 0.52308 0.0
H1016 H 0.94726 0.42581 0.50618 0.0
H1017 H 0.90519 0.41121 0.49648 0.0
H1018 H 0.88976 0.48209 0.51145 0.0
H1019 H 0.93206 0.49678 0.52019 0.0
C1020 C 0.82687 0.43883 0.49388 0.0
C1021 C 0.82005 0.4182 0.50542 0.0
C1022 C 0.8509 0.44752 0.49276 0.0
C1023 C 0.86847 0.43568 0.50313 0.0
C1024 C 0.86146 0.4149 0.51438 0.0
C1025 C 0.83759 0.40625 0.51544 0.0
C1026 C 0.93488 0.43832 0.50685 0.0
C1027 C 0.94279 0.46233 0.51424 0.0
C1028 C 0.91079 0.42997 0.50145 0.0
C1029 C 0.89406 0.44538 0.50379 0.0
C1030 C 0.90215 0.46974 0.50941 0.0
C1031 C 0.92637 0.47817 0.51446 0.0
H1032 H 0.36917 0.10576 0.26506 0.0
H1033 H 0.31159 0.05204 0.27867 0.0
H1034 H 0.34103 0.13215 0.2551 0.0
H1035 H 0.28327 0.0785 0.26847 0.0
H1036 H 0.25015 0.14845 0.28331 0.0
H1037 H 0.27283 0.11601 0.28668 0.0
H1038 H 0.30907 0.13673 0.2241 0.0
H1039 H 0.28667 0.16936 0.22085 0.0
C1040 C 0.35047 0.09955 0.26581 0.0
C1041 C 0.34259 0.07688 0.27275 0.0
C1042 C 0.33431 0.11459 0.25987 0.0
C1043 C 0.30988 0.10734 0.2608 0.0
C1044 C 0.30198 0.0846 0.26766 0.0
C1045 C 0.31818 0.06947 0.27348 0.0
C1046 C 0.2625 0.14574 0.26986 0.0
C1047 C 0.26687 0.16177 0.25208 0.0
C1048 C 0.2755 0.12711 0.27179 0.0
C1049 C 0.2931 0.12414 0.25597 0.0
C1050 C 0.296 0.13892 0.2369 0.0
C1051 C 0.283 0.1575 0.23493 0.0
H1052 H 0.35276 0.14353 0.52242 0.0
H1053 H 0.31498 0.07407 0.49661 0.0
H1054 H 0.38932 0.12702 0.52847 0.0
H1055 H 0.35175 0.05751 0.50264 0.0
H1056 H 0.42064 0.03544 0.53981 0.0
H1057 H 0.38269 0.05047 0.5362 0.0
H1058 H 0.41547 0.10976 0.50065 0.0
H1059 H 0.45291 0.09503 0.5042 0.0
C1060 C 0.35226 0.12473 0.51803 0.0
C1061 C 0.33102 0.11015 0.50885 0.0
C1062 C 0.37322 0.11527 0.52147 0.0
C1063 C 0.37344 0.09096 0.51596 0.0
C1064 C 0.3521 0.07626 0.50723 0.0
C1065 C 0.33111 0.08578 0.50359 0.0
C1066 C 0.41967 0.0517 0.53131 0.0
C1067 C 0.43983 0.06403 0.52236 0.0
C1068 C 0.39796 0.06023 0.52912 0.0
C1069 C 0.39614 0.08139 0.51827 0.0
C1070 C 0.41633 0.09362 0.50941 0.0
C1071 C 0.43781 0.08504 0.51135 0.0
H1072 H 0.69096 0.5859 0.24622 0.0
H1073 H 0.7061 0.59508 0.32466 0.0
H1074 H 0.71228 0.62541 0.24315 0.0
H1075 H 0.72727 0.63501 0.32161 0.0
H1076 H 0.77898 0.7003 0.30279 0.0
H1077 H 0.76243 0.65878 0.30604 0.0
H1078 H 0.7038 0.66502 0.25411 0.0
H1079 H 0.72024 0.70595 0.25066 0.0
C1080 C 0.69899 0.59631 0.26283 0.0
C1081 C 0.69667 0.58743 0.28571 0.0
C1082 C 0.71113 0.61902 0.26107 0.0
C1083 C 0.72125 0.63349 0.28215 0.0
C1084 C 0.71978 0.62427 0.30501 0.0
C1085 C 0.70757 0.60146 0.30677 0.0
C1086 C 0.76264 0.69271 0.29198 0.0
C1087 C 0.75099 0.70648 0.27643 0.0
C1088 C 0.7531 0.66899 0.29395 0.0
C1089 C 0.73187 0.65854 0.28022 0.0
C1090 C 0.72038 0.67234 0.26463 0.0
C1091 C 0.72978 0.69593 0.26278 0.0
H1092 H 0.893 0.44607 0.7701 0.0
H1093 H 0.83489 0.4609 0.81099 0.0
H1094 H 0.87655 0.40452 0.76509 0.0
H1095 H 0.81878 0.41865 0.8071 0.0
H1096 H 0.78262 0.34717 0.7651 0.0
H1097 H 0.79918 0.38853 0.77759 0.0
H1098 H 0.86951 0.36965 0.78354 0.0
H1099 H 0.853 0.32893 0.76948 0.0
C1100 C 0.87692 0.44032 0.77852 0.0
C1101 C 0.86519 0.45672 0.79089 0.0
C1102 C 0.86752 0.41636 0.77582 0.0
C1103 C 0.84633 0.40805 0.78579 0.0
C1104 C 0.83495 0.42443 0.7989 0.0
C1105 C 0.84425 0.44859 0.8013 0.0
C1106 C 0.80159 0.35199 0.76927 0.0
C1107 C 0.81661 0.33509 0.76592 0.0
C1108 C 0.8111 0.37563 0.77661 0.0
C1109 C 0.83578 0.3826 0.7812 0.0
C1110 C 0.85053 0.36517 0.77939 0.0
C1111 C 0.84108 0.34178 0.77148 0.0
H1112 H 0.01274 0.8226 0.08692 0.0
H1113 H 0.05933 0.85964 0.14766 0.0
H1114 H 0.0115 0.86012 0.06872 0.0
H1115 H 0.05845 0.89674 0.12942 0.0
H1116 H 0.03125 0.96157 0.10857 0.0
H1117 H 0.02899 0.9225 0.12307 0.0
H1118 H 0.03634 0.89265 0.0502 0.0
H1119 H 0.03816 0.93212 0.03545 0.0
C1120 C 0.02287 0.8387 0.09624 0.0
C1121 C 0.03597 0.83824 0.11881 0.0
C1122 C 0.02221 0.86013 0.0858 0.0
C1123 C 0.03458 0.88143 0.09781 0.0
C1124 C 0.04826 0.88073 0.11997 0.0
C1125 C 0.0489 0.85943 0.13036 0.0
C1126 C 0.03215 0.94667 0.09553 0.0
C1127 C 0.0352 0.94994 0.07093 0.0
C1128 C 0.03099 0.92428 0.10389 0.0
C1129 C 0.03304 0.90457 0.0879 0.0
C1130 C 0.03475 0.90754 0.06295 0.0
C1131 C 0.03579 0.93009 0.05451 0.0
H1132 H 0.93151 0.22071 0.8624 0.0
H1133 H 0.96783 0.27583 0.82364 0.0
H1134 H 0.89491 0.22145 0.83656 0.0
H1135 H 0.93117 0.27681 0.79825 0.0
H1136 H 0.85215 0.29436 0.79794 0.0
H1137 H 0.89174 0.28962 0.81437 0.0
H1138 H 0.87757 0.2155 0.78847 0.0
H1139 H 0.83791 0.22043 0.77124 0.0
C1140 C 0.93173 0.23274 0.84818 0.0
C1141 C 0.95242 0.24832 0.84512 0.0
C1142 C 0.91088 0.23303 0.83333 0.0
C1143 C 0.91035 0.24917 0.81548 0.0
C1144 C 0.93122 0.26421 0.8119 0.0
C1145 C 0.95213 0.26363 0.82643 0.0
C1146 C 0.8577 0.27718 0.79525 0.0
C1147 C 0.84213 0.25777 0.78329 0.0
C1148 C 0.88032 0.27449 0.80459 0.0
C1149 C 0.88758 0.2522 0.80265 0.0
C1150 C 0.87228 0.23285 0.79012 0.0
C1151 C 0.84976 0.23569 0.78017 0.0
H1152 H 0.51611 0.19992 0.65243 0.0
H1153 H 0.5542 0.2282 0.59392 0.0
H1154 H 0.51594 0.16002 0.63427 0.0
H1155 H 0.55466 0.1879 0.57591 0.0
H1156 H 0.52273 0.11185 0.53891 0.0
H1157 H 0.52859 0.15335 0.55539 0.0
H1158 H 0.54232 0.13218 0.62804 0.0
H1159 H 0.53564 0.0909 0.6117 0.0
C1160 C 0.5246 0.19758 0.63573 0.0
C1161 C 0.53521 0.21718 0.62463 0.0
C1162 C 0.52471 0.17466 0.6254 0.0
C1163 C 0.5356 0.1707 0.6038 0.0
C1164 C 0.54605 0.19034 0.59251 0.0
C1165 C 0.54585 0.21339 0.60284 0.0
C1166 C 0.52748 0.11619 0.55832 0.0
C1167 C 0.52845 0.0982 0.5741 0.0
C1168 C 0.53084 0.13995 0.56777 0.0
C1169 C 0.53542 0.14606 0.59311 0.0
C1170 C 0.53812 0.12806 0.60854 0.0
C1171 C 0.53449 0.10441 0.59916 0.0
H1172 H 0.58607 0.73289 0.37157 0.0
H1173 H 0.55924 0.78409 0.32796 0.0
H1174 H 0.61966 0.73329 0.34734 0.0
H1175 H 0.5929 0.78417 0.30317 0.0
H1176 H 0.6742 0.79842 0.29008 0.0
H1177 H 0.63608 0.79728 0.30745 0.0
H1178 H 0.6297 0.72127 0.30719 0.0
H1179 H 0.66786 0.72253 0.29059 0.0
C1180 C 0.58722 0.74405 0.35659 0.0
C1181 C 0.57002 0.75845 0.35167 0.0
C1182 C 0.60641 0.74417 0.34256 0.0
C1183 C 0.6089 0.75864 0.32316 0.0
C1184 C 0.59156 0.77293 0.31806 0.0
C1185 C 0.57225 0.77279 0.33216 0.0
C1186 C 0.66437 0.78147 0.29329 0.0
C1187 C 0.67412 0.76061 0.28933 0.0
C1188 C 0.64253 0.78079 0.30321 0.0
C1189 C 0.63007 0.75922 0.30915 0.0
C1190 C 0.63913 0.73824 0.30344 0.0
C1191 C 0.66094 0.73895 0.29379 0.0
H1192 H 0.06633 0.22389 0.45644 0.0
H1193 H 0.99323 0.20102 0.42889 0.0
H1194 H 0.0654 0.18884 0.47888 0.0
H1195 H 0.99242 0.16563 0.45099 0.0
H1196 H 0.99472 0.11058 0.50643 0.0
H1197 H 0.99482 0.14981 0.49157 0.0
H1198 H 0.06384 0.14718 0.46621 0.0
H1199 H 0.06389 0.10857 0.48122 0.0
C1200 C 0.05002 0.21141 0.45527 0.0
C1201 C 0.02993 0.21506 0.44071 0.0
C1202 C 0.0495 0.19131 0.46808 0.0
C1203 C 0.02889 0.17434 0.46657 0.0
C1204 C 0.0085 0.17846 0.45273 0.0
C1205 C 0.00902 0.19863 0.43991 0.0
C1206 C 0.01003 0.11863 0.49804 0.0
C1207 C 0.02924 0.10647 0.49489 0.0
C1208 C 0.01002 0.14097 0.48937 0.0
C1209 C 0.02932 0.1516 0.47768 0.0
C1210 C 0.04882 0.13969 0.47539 0.0
C1211 C 0.04876 0.11743 0.48385 0.0
H1212 H 0.57319 0.24418 0.21011 0.0
H1213 H 0.59744 0.28244 0.15005 0.0
H1214 H 0.61422 0.24729 0.22775 0.0
H1215 H 0.63799 0.28631 0.16788 0.0
H1216 H 0.70947 0.27086 0.18899 0.0
H1217 H 0.66791 0.2626 0.17369 0.0
H1218 H 0.64811 0.27452 0.24719 0.0
H1219 H 0.69003 0.28186 0.2626 0.0
C1220 C 0.58726 0.25344 0.20083 0.0
C1221 C 0.58217 0.26292 0.17862 0.0
C1222 C 0.61074 0.25527 0.21094 0.0
C1223 C 0.62949 0.26673 0.19906 0.0
C1224 C 0.62414 0.27675 0.1772 0.0
C1225 C 0.60083 0.27473 0.16705 0.0
C1226 C 0.69622 0.2714 0.20191 0.0
C1227 C 0.70291 0.27724 0.22692 0.0
C1228 C 0.67238 0.26685 0.19314 0.0
C1229 C 0.65462 0.26848 0.20911 0.0
C1230 C 0.6613 0.27308 0.23437 0.0
C1231 C 0.68529 0.2773 0.24322 0.0
H1232 H 0.56787 0.85244 0.93471 0.0
H1233 H 0.4995 0.82144 0.95487 0.0
H1234 H 0.56638 0.8881 0.96165 0.0
H1235 H 0.49799 0.85712 0.98152 0.0
H1236 H 0.49206 0.93832 0.98781 0.0
H1237 H 0.49507 0.89921 0.96903 0.0
H1238 H 0.56384 0.90257 0.00822 0.0
H1239 H 0.56057 0.94192 0.02761 0.0
C1240 C 0.55266 0.85317 0.94506 0.0
C1241 C 0.5337 0.83429 0.94254 0.0
C1242 C 0.55192 0.87346 0.9606 0.0
C1243 C 0.53208 0.87528 0.97361 0.0
C1244 C 0.51345 0.85613 0.97162 0.0
C1245 C 0.51433 0.83576 0.95636 0.0
C1246 C 0.50765 0.93055 0.99276 0.0
C1247 C 0.5261 0.94306 0.00913 0.0
C1248 C 0.50932 0.90815 0.98209 0.0
C1249 C 0.52968 0.89793 0.98718 0.0
C1250 C 0.54798 0.91016 0.004 0.0
C1251 C 0.54606 0.9325 0.01517 0.0
H1252 H 0.93962 0.78501 0.65527 0.0
H1253 H 0.96031 0.73608 0.70549 0.0
H1254 H 0.90282 0.78563 0.67432 0.0
H1255 H 0.92309 0.73636 0.72437 0.0
H1256 H 0.85763 0.75398 0.76162 0.0
H1257 H 0.89772 0.76022 0.74807 0.0
H1258 H 0.86777 0.75556 0.67314 0.0
H1259 H 0.82825 0.74964 0.68651 0.0
C1260 C 0.93639 0.77453 0.67053 0.0
C1261 C 0.95271 0.76027 0.67869 0.0
C1262 C 0.91526 0.77484 0.68141 0.0
C1263 C 0.90989 0.7608 0.70065 0.0
C1264 C 0.92677 0.74746 0.70967 0.0
C1265 C 0.94801 0.74719 0.69878 0.0
C1266 C 0.85972 0.75458 0.74231 0.0
C1267 C 0.83979 0.75123 0.72514 0.0
C1268 C 0.88262 0.758 0.73455 0.0
C1269 C 0.88591 0.75847 0.70954 0.0
C1270 C 0.86591 0.75567 0.69256 0.0
C1271 C 0.84319 0.75207 0.70024 0.0
H1272 H 0.0758 0.0047 0.83091 0.0
H1273 H 0.14206 0.01873 0.87624 0.0
H1274 H 0.05423 0.00339 0.86753 0.0
H1275 H 0.12078 0.01654 0.91262 0.0
H1276 H 0.07874 0.03856 0.97308 0.0
H1277 H 0.09784 0.03899 0.93548 0.0
H1278 H 0.04401 0.98221 0.90223 0.0
H1279 H 0.02425 0.98237 0.94013 0.0
C1280 C 0.08575 0.0073 0.84869 0.0
C1281 C 0.11064 0.01204 0.85068 0.0
C1282 C 0.0734 0.00641 0.8697 0.0
C1283 C 0.08567 0.0101 0.89317 0.0
C1284 C 0.11061 0.0142 0.89497 0.0
C1285 C 0.12289 0.01531 0.87406 0.0
C1286 C 0.07093 0.02606 0.95784 0.0
C1287 C 0.05009 0.01019 0.95979 0.0
C1288 C 0.08201 0.02623 0.93619 0.0
C1289 C 0.07282 0.01034 0.9158 0.0
C1290 C 0.05161 0.99477 0.91749 0.0
C1291 C 0.04031 0.99477 0.93924 0.0
H1292 H 0.71725 0.32948 0.56223 0.0
H1293 H 0.78353 0.37273 0.59038 0.0
H1294 H 0.72029 0.30466 0.59613 0.0
H1295 H 0.78654 0.34796 0.62417 0.0
H1296 H 0.79494 0.287 0.6702 0.0
H1297 H 0.79178 0.30599 0.63199 0.0
H1298 H 0.71867 0.31116 0.64152 0.0
H1299 H 0.72178 0.29229 0.67946 0.0
C1300 C 0.73242 0.33369 0.57567 0.0
C1301 C 0.75006 0.35311 0.5738 0.0
C1302 C 0.73418 0.31948 0.59501 0.0
C1303 C 0.75374 0.3243 0.61264 0.0
C1304 C 0.77146 0.34362 0.61062 0.0
C1305 C 0.76959 0.35794 0.59145 0.0
C1306 C 0.7781 0.29175 0.66381 0.0
C1307 C 0.75866 0.28835 0.67781 0.0
C1308 C 0.77634 0.30277 0.64211 0.0
C1309 C 0.75503 0.3102 0.63395 0.0
C1310 C 0.73526 0.30552 0.64729 0.0
C1311 C 0.7371 0.29482 0.66906 0.0
H1312 H 0.41616 0.06675 0.37185 0.0
H1313 H 0.46717 0.03291 0.33427 0.0
H1314 H 0.44145 0.0696 0.41002 0.0
H1315 H 0.49214 0.0352 0.37251 0.0
H1316 H 0.53684 0.05038 0.44592 0.0
H1317 H 0.5168 0.05914 0.4074 0.0
H1318 H 0.44901 0.03794 0.43481 0.0
H1319 H 0.46861 0.02947 0.47267 0.0
C1320 C 0.43291 0.06022 0.37169 0.0
C1321 C 0.43951 0.04925 0.35021 0.0
C1322 C 0.44737 0.06179 0.39353 0.0
C1323 C 0.46863 0.05229 0.39433 0.0
C1324 C 0.47597 0.0428 0.37248 0.0
C1325 C 0.46155 0.04131 0.35062 0.0
C1326 C 0.51768 0.04785 0.44369 0.0
C1327 C 0.50436 0.03913 0.46232 0.0
C1328 C 0.50622 0.05283 0.42169 0.0
C1329 C 0.48132 0.04942 0.41815 0.0
C1330 C 0.46818 0.04125 0.43707 0.0
C1331 C 0.47951 0.03614 0.45877 0.0
H1332 H 0.73491 0.67752 0.07794 0.0
H1333 H 0.80898 0.70022 0.07004 0.0
H1334 H 0.73989 0.69786 0.11917 0.0
H1335 H 0.81392 0.72039 0.11121 0.0
H1336 H 0.81783 0.71596 0.19513 0.0
H1337 H 0.81169 0.7025 0.1519 0.0
H1338 H 0.75149 0.73914 0.14407 0.0
H1339 H 0.75782 0.75303 0.18781 0.0
C1340 C 0.75215 0.68715 0.08486 0.0
C1341 C 0.77161 0.68711 0.07084 0.0
C1342 C 0.75496 0.69888 0.1084 0.0
C1343 C 0.77732 0.71054 0.11845 0.0
C1344 C 0.79652 0.71134 0.104 0.0
C1345 C 0.79367 0.69986 0.08041 0.0
C1346 C 0.80329 0.72127 0.18426 0.0
C1347 C 0.78825 0.73551 0.19491 0.0
C1348 C 0.79991 0.71369 0.15942 0.0
C1349 C 0.7812 0.71987 0.14458 0.0
C1350 C 0.76605 0.73412 0.15513 0.0
C1351 C 0.76971 0.7421 0.18007 0.0
H1352 H 0.10466 0.04474 0.7198 0.0
H1353 H 0.10756 0.96981 0.71649 0.0
H1354 H 0.08663 0.04002 0.67768 0.0
H1355 H 0.08944 0.96509 0.67444 0.0
H1356 H 0.0914 0.9739 0.59243 0.0
H1357 H 0.1043 0.97799 0.63575 0.0
H1358 H 0.05053 0.0212 0.64974 0.0
H1359 H 0.03744 0.01711 0.60592 0.0
C1360 C 0.10115 0.02721 0.71018 0.0
C1361 C 0.10769 0.00766 0.7214 0.0
C1362 C 0.09071 0.02451 0.6861 0.0
C1363 C 0.08679 0.00223 0.67266 0.0
C1364 C 0.09253 0.98255 0.68422 0.0
C1365 C 0.1028 0.98522 0.70834 0.0
C1366 C 0.08225 0.98431 0.60464 0.0
C1367 C 0.06338 0.99522 0.59565 0.0
C1368 C 0.08955 0.98646 0.62956 0.0
C1369 C 0.07831 0.99973 0.64623 0.0
C1370 C 0.05956 0.01089 0.63732 0.0
C1371 C 0.05205 0.00852 0.61226 0.0
H1372 H 0.74538 0.31856 0.46197 0.0
H1373 H 0.73152 0.3791 0.42447 0.0
H1374 H 0.74993 0.29724 0.42302 0.0
H1375 H 0.7356 0.3576 0.38547 0.0
H1376 H 0.7833 0.32897 0.3316 0.0
H1377 H 0.77119 0.34672 0.36885 0.0
H1378 H 0.73157 0.27942 0.38202 0.0
H1379 H 0.74391 0.26132 0.3443 0.0
C1380 C 0.74278 0.32711 0.44534 0.0
C1381 C 0.73843 0.35062 0.44626 0.0
C1382 C 0.74527 0.31484 0.42303 0.0
C1383 C 0.74348 0.32587 0.40124 0.0
C1384 C 0.73753 0.34881 0.40204 0.0
C1385 C 0.73507 0.36108 0.42434 0.0
C1386 C 0.77199 0.31783 0.34233 0.0
C1387 C 0.76455 0.29368 0.33492 0.0
C1388 C 0.76484 0.32812 0.36361 0.0
C1389 C 0.75013 0.31457 0.3782 0.0
C1390 C 0.7429 0.2903 0.3711 0.0
C1391 C 0.74999 0.27995 0.34956 0.0
H1392 H 0.43449 0.06335 0.22208 0.0
H1393 H 0.42998 0.9882 0.22797 0.0
H1394 H 0.45496 0.05948 0.18521 0.0
H1395 H 0.44996 0.98421 0.1907 0.0
H1396 H 0.50256 0.9896 0.13166 0.0
H1397 H 0.48735 0.9944 0.17181 0.0
H1398 H 0.44247 0.04219 0.14394 0.0
H1399 H 0.45779 0.03785 0.10447 0.0
C1400 C 0.43793 0.04602 0.21551 0.0
C1401 C 0.43046 0.02604 0.22771 0.0
C1402 C 0.44958 0.04378 0.19437 0.0
C1403 C 0.45387 0.02149 0.18493 0.0
C1404 C 0.44709 0.00163 0.19763 0.0
C1405 C 0.43549 0.0039 0.21885 0.0
C1406 C 0.48951 0.00116 0.13423 0.0
C1407 C 0.48139 0.01333 0.11492 0.0
C1408 C 0.48077 0.00386 0.15714 0.0
C1409 C 0.46385 0.01883 0.16106 0.0
C1410 C 0.45583 0.03092 0.14169 0.0
C1411 C 0.4645 0.02824 0.11895 0.0
H1412 H 0.73839 0.6904 0.94531 0.0
H1413 H 0.81127 0.68024 0.943 0.0
H1414 H 0.74104 0.71179 0.90873 0.0
H1415 H 0.81396 0.70195 0.90645 0.0
H1416 H 0.8124 0.76185 0.85288 0.0
H1417 H 0.81123 0.74398 0.89202 0.0
H1418 H 0.74615 0.6985 0.86446 0.0
H1419 H 0.74743 0.71592 0.82563 0.0
C1420 C 0.75505 0.69292 0.93712 0.0
C1421 C 0.77458 0.68351 0.94698 0.0
C1422 C 0.75654 0.70512 0.91614 0.0
C1423 C 0.7777 0.70851 0.90469 0.0
C1424 C 0.79748 0.69977 0.91497 0.0
C1425 C 0.79589 0.68722 0.9358 0.0
C1426 C 0.79785 0.74809 0.85528 0.0
C1427 C 0.7801 0.74022 0.8361 0.0
C1428 C 0.79723 0.73781 0.8776 0.0
C1429 C 0.77856 0.71987 0.88131 0.0
C1430 C 0.76065 0.7124 0.86226 0.0
C1431 C 0.7615 0.7223 0.83993 0.0
H1432 H 0.85106 0.10718 0.06101 0.0
H1433 H 0.82286 0.08311 0.98689 0.0
H1434 H 0.88315 0.08446 0.05671 0.0
H1435 H 0.85453 0.05933 0.98279 0.0
H1436 H 0.93281 0.04628 0.97747 0.0
H1437 H 0.89599 0.0629 0.97906 0.0
H1438 H 0.89265 0.04623 0.05404 0.0
H1439 H 0.92988 0.03099 0.05265 0.0
C1440 C 0.85153 0.09669 0.0439 0.0
C1441 C 0.83448 0.09693 0.02431 0.0
C1442 C 0.86985 0.08346 0.04144 0.0
C1443 C 0.87139 0.06979 0.01943 0.0
C1444 C 0.85407 0.0698 0.9999 0.0
C1445 C 0.83586 0.08332 0.00229 0.0
C1446 C 0.92377 0.0457 0.99401 0.0
C1447 C 0.9341 0.03755 0.01497 0.0
C1448 C 0.90271 0.05523 0.99499 0.0
C1449 C 0.89157 0.05643 0.01689 0.0
C1450 C 0.90108 0.04635 0.03713 0.0
C1451 C 0.92225 0.03733 0.03627 0.0
H1452 H 0.35613 0.40949 0.06359 0.0
H1453 H 0.32692 0.46784 0.03477 0.0
H1454 H 0.39601 0.43063 0.06172 0.0
H1455 H 0.36695 0.48889 0.03243 0.0
H1456 H 0.4446 0.52673 0.04813 0.0
H1457 H 0.40454 0.50847 0.05536 0.0
H1458 H 0.41999 0.44022 0.02865 0.0
H1459 H 0.45964 0.45814 0.02182 0.0
C1460 C 0.35823 0.42693 0.05702 0.0
C1461 C 0.33837 0.4369 0.04915 0.0
C1462 C 0.3811 0.439 0.05581 0.0
C1463 C 0.38472 0.46135 0.04661 0.0
C1464 C 0.36482 0.47179 0.03972 0.0
C1465 C 0.34188 0.45968 0.04097 0.0
C1466 C 0.43941 0.50783 0.04391 0.0
C1467 C 0.4554 0.49394 0.03443 0.0
C1468 C 0.41645 0.49738 0.04795 0.0
C1469 C 0.40909 0.47283 0.04277 0.0
C1470 C 0.42514 0.45907 0.0333 0.0
C1471 C 0.4479 0.46945 0.02919 0.0
H1472 H 0.3843 0.59885 0.73313 0.0
H1473 H 0.33205 0.5642 0.77615 0.0
H1474 H 0.36698 0.63489 0.73751 0.0
H1475 H 0.31533 0.60076 0.78183 0.0
H1476 H 0.27872 0.6661 0.76967 0.0
H1477 H 0.29358 0.62826 0.76494 0.0
H1478 H 0.36483 0.6661 0.76571 0.0
H1479 H 0.34979 0.70335 0.76901 0.0
C1480 C 0.36916 0.59902 0.74369 0.0
C1481 C 0.35961 0.57873 0.75437 0.0
C1482 C 0.3593 0.6198 0.74644 0.0
C1483 C 0.33989 0.62108 0.76043 0.0
C1484 C 0.33009 0.60054 0.77077 0.0
C1485 C 0.33975 0.57957 0.76763 0.0
C1486 C 0.29754 0.66616 0.76897 0.0
C1487 C 0.31306 0.68764 0.76946 0.0
C1488 C 0.30613 0.6445 0.7663 0.0
C1489 C 0.33046 0.64392 0.76446 0.0
C1490 C 0.34593 0.6656 0.76615 0.0
C1491 C 0.33732 0.68707 0.76832 0.0
H1492 H 0.19849 0.63802 0.53876 0.0
H1493 H 0.21868 0.57006 0.55075 0.0
H1494 H 0.15711 0.62071 0.53609 0.0
H1495 H 0.17697 0.55272 0.54963 0.0
H1496 H 0.1016 0.52493 0.51315 0.0
H1497 H 0.14351 0.54057 0.52247 0.0
H1498 H 0.12513 0.60543 0.55563 0.0
H1499 H 0.0834 0.59024 0.54466 0.0
C1500 C 0.19402 0.61941 0.54138 0.0
C1501 C 0.21178 0.60536 0.54487 0.0
C1502 C 0.17019 0.60945 0.54006 0.0
C1503 C 0.16346 0.58522 0.54271 0.0
C1504 C 0.18137 0.57132 0.54706 0.0
C1505 C 0.20529 0.58126 0.5479 0.0
C1506 C 0.10662 0.54242 0.52267 0.0
C1507 C 0.08937 0.55653 0.52791 0.0
C1508 C 0.13067 0.5514 0.52818 0.0
C1509 C 0.13792 0.57449 0.53952 0.0
C1510 C 0.12039 0.5879 0.54618 0.0
C1511 C 0.09643 0.57915 0.5401 0.0
H1512 H 0.67118 0.92674 0.74652 0.0
H1513 H 0.71516 0.96909 0.80607 0.0
H1514 H 0.69602 0.89609 0.7493 0.0
H1515 H 0.74025 0.93814 0.80881 0.0
H1516 H 0.7551 0.85835 0.81866 0.0
H1517 H 0.73683 0.89448 0.81914 0.0
H1518 H 0.73771 0.89304 0.74076 0.0
H1519 H 0.75547 0.85715 0.74028 0.0
C1520 C 0.68618 0.9295 0.76021 0.0
C1521 C 0.6913 0.95034 0.77599 0.0
C1522 C 0.7005 0.91201 0.76171 0.0
C1523 C 0.72025 0.9149 0.77907 0.0
C1524 C 0.72515 0.93552 0.79526 0.0
C1525 C 0.71086 0.95319 0.79362 0.0
C1526 C 0.75202 0.86626 0.80172 0.0
C1527 C 0.75634 0.8549 0.77941 0.0
C1528 C 0.74152 0.88683 0.80196 0.0
C1529 C 0.73537 0.89616 0.7799 0.0
C1530 C 0.74173 0.88588 0.75795 0.0
C1531 C 0.75201 0.86543 0.7577 0.0
H1532 H 0.73325 0.96243 0.53646 0.0
H1533 H 0.68729 0.89616 0.54022 0.0
H1534 H 0.69867 0.98272 0.53292 0.0
H1535 H 0.65287 0.91632 0.5365 0.0
H1536 H 0.60017 0.96298 0.55946 0.0
H1537 H 0.63576 0.94503 0.56216 0.0
H1538 H 0.66259 0.98519 0.50442 0.0
H1539 H 0.62654 0.00355 0.50171 0.0
C1540 C 0.71577 0.9522 0.53654 0.0
C1541 C 0.713 0.92771 0.53881 0.0
C1542 C 0.69598 0.96381 0.53431 0.0
C1543 C 0.67303 0.95117 0.53452 0.0
C1544 C 0.67032 0.92665 0.53661 0.0
C1545 C 0.69005 0.91506 0.53868 0.0
C1546 C 0.61358 0.96812 0.54727 0.0
C1547 C 0.61035 0.98461 0.53018 0.0
C1548 C 0.63399 0.95768 0.54878 0.0
C1549 C 0.65189 0.96341 0.5333 0.0
C1550 C 0.64911 0.98044 0.51664 0.0
C1551 C 0.62847 0.9909 0.51504 0.0
H1552 H 0.38566 0.43234 0.73806 0.0
H1553 H 0.32074 0.45922 0.74987 0.0
H1554 H 0.36555 0.39216 0.7399 0.0
H1555 H 0.30065 0.4189 0.75268 0.0
H1556 H 0.26751 0.34012 0.73904 0.0
H1557 H 0.28572 0.38024 0.73232 0.0
H1558 H 0.35119 0.36866 0.77036 0.0
H1559 H 0.33341 0.32876 0.77627 0.0
C1560 C 0.36703 0.42963 0.74102 0.0
C1561 C 0.35483 0.44896 0.74398 0.0
C1562 C 0.3555 0.40657 0.74227 0.0
C1563 C 0.33151 0.40219 0.74686 0.0
C1564 C 0.31907 0.42152 0.74897 0.0
C1565 C 0.3306 0.44465 0.74746 0.0
C1566 C 0.28581 0.34617 0.74586 0.0
C1567 C 0.299 0.33111 0.75806 0.0
C1568 C 0.29624 0.36922 0.74212 0.0
C1569 C 0.32005 0.37772 0.75058 0.0
C1570 C 0.33303 0.36265 0.76301 0.0
C1571 C 0.32271 0.33971 0.76659 0.0
H1572 H 0.15787 0.58256 0.29669 0.0
H1573 H 0.19431 0.56156 0.23485 0.0
H1574 H 0.17383 0.62375 0.29343 0.0
H1575 H 0.21049 0.60326 0.23167 0.0
H1576 H 0.25441 0.67959 0.2631 0.0
H1577 H 0.23875 0.63723 0.25807 0.0
H1578 H 0.16794 0.65316 0.26247 0.0
H1579 H 0.18342 0.69528 0.26755 0.0
C1580 C 0.16936 0.58675 0.28242 0.0
C1581 C 0.17479 0.56885 0.26598 0.0
C1582 C 0.17834 0.61037 0.28044 0.0
C1583 C 0.19309 0.61669 0.26207 0.0
C1584 C 0.19908 0.59881 0.24593 0.0
C1585 C 0.18985 0.57503 0.24776 0.0
C1586 C 0.23545 0.67405 0.26235 0.0
C1587 C 0.22017 0.69074 0.26614 0.0
C1588 C 0.22651 0.64982 0.25947 0.0
C1589 C 0.20222 0.64199 0.26038 0.0
C1590 C 0.18682 0.65875 0.2622 0.0
C1591 C 0.19569 0.68286 0.26502 0.0
H1592 H 0.48293 0.69374 0.44088 0.0
H1593 H 0.55902 0.71312 0.44847 0.0
H1594 H 0.48663 0.65797 0.4614 0.0
H1595 H 0.56269 0.67694 0.46841 0.0
H1596 H 0.54717 0.59082 0.45656 0.0
H1597 H 0.54953 0.63211 0.44748 0.0
H1598 H 0.50437 0.64467 0.50457 0.0
H1599 H 0.50259 0.60341 0.5142 0.0
C1600 C 0.5004 0.69049 0.44723 0.0
C1601 C 0.52068 0.70611 0.44303 0.0
C1602 C 0.5025 0.67014 0.45909 0.0
C1603 C 0.52494 0.66482 0.46649 0.0
C1604 C 0.54521 0.68076 0.46292 0.0
C1605 C 0.54309 0.70141 0.45156 0.0
C1606 C 0.53838 0.60262 0.46766 0.0
C1607 C 0.52476 0.59404 0.48608 0.0
C1608 C 0.53975 0.6262 0.4625 0.0
C1609 C 0.52705 0.64144 0.47528 0.0
C1610 C 0.51432 0.63319 0.4945 0.0
C1611 C 0.51344 0.60971 0.5001 0.0
H1612 H 0.62165 0.28838 0.66486 0.0
H1613 H 0.58964 0.29091 0.73322 0.0
H1614 H 0.65921 0.28408 0.68662 0.0
H1615 H 0.62735 0.28646 0.75501 0.0
H1616 H 0.70872 0.29821 0.78365 0.0
H1617 H 0.67086 0.30642 0.76496 0.0
H1618 H 0.67062 0.24998 0.70837 0.0
H1619 H 0.70789 0.2417 0.72679 0.0
C1620 C 0.62271 0.28828 0.68456 0.0
C1621 C 0.60267 0.28975 0.69731 0.0
C1622 C 0.64416 0.28571 0.697 0.0
C1623 C 0.64606 0.28463 0.72245 0.0
C1624 C 0.62636 0.28729 0.7354 0.0
C1625 C 0.6048 0.28974 0.72291 0.0
C1626 C 0.70038 0.2874 0.76741 0.0
C1627 C 0.71142 0.26945 0.75661 0.0
C1628 C 0.67879 0.29213 0.75671 0.0
C1629 C 0.6681 0.27912 0.73497 0.0
C1630 C 0.67873 0.26065 0.7248 0.0
C1631 C 0.70003 0.25581 0.73552 0.0
H1632 H 0.98518 0.30865 0.9567 0.0
H1633 H 0.02866 0.33941 0.90318 0.0
H1634 H 0.98182 0.34857 0.97431 0.0
H1635 H 0.02551 0.37872 0.92067 0.0
H1636 H 0.00121 0.4458 0.93935 0.0
H1637 H 0.99511 0.40431 0.92368 0.0
H1638 H 0.00826 0.38432 0.99686 0.0
H1639 H 0.01385 0.42605 0.01269 0.0
C1640 C 0.99398 0.32388 0.94874 0.0
C1641 C 0.00712 0.32093 0.92854 0.0
C1642 C 0.99209 0.34667 0.95881 0.0
C1643 C 0.0031 0.36676 0.94864 0.0
C1644 C 0.01633 0.36363 0.92858 0.0
C1645 C 0.01831 0.34105 0.91867 0.0
C1646 C 0.00229 0.43253 0.95217 0.0
C1647 C 0.00836 0.43914 0.97717 0.0
C1648 C 0.9989 0.40878 0.94319 0.0
C1649 C 0.00176 0.39112 0.95898 0.0
C1650 C 0.00595 0.39755 0.98426 0.0
C1651 C 0.00917 0.42142 0.99332 0.0
H1652 H 0.98673 0.76736 0.22611 0.0
H1653 H 0.9525 0.79093 0.16191 0.0
H1654 H 0.95105 0.76954 0.24739 0.0
H1655 H 0.91705 0.79295 0.18299 0.0
H1656 H 0.86761 0.81884 0.2338 0.0
H1657 H 0.90563 0.81768 0.21759 0.0
H1658 H 0.90824 0.74945 0.24475 0.0
H1659 H 0.86996 0.75063 0.26128 0.0
C1660 C 0.9716 0.77298 0.21657 0.0
C1661 C 0.9724 0.77906 0.19239 0.0
C1662 C 0.95119 0.77413 0.22871 0.0
C1663 C 0.93136 0.7816 0.21692 0.0
C1664 C 0.9322 0.78751 0.1927 0.0
C1665 C 0.95245 0.78622 0.18056 0.0
C1666 C 0.87635 0.80367 0.2366 0.0
C1667 C 0.86563 0.78469 0.24858 0.0
C1668 C 0.8981 0.80298 0.2272 0.0
C1669 C 0.9097 0.78331 0.22954 0.0
C1670 C 0.89968 0.76486 0.2427 0.0
C1671 C 0.87778 0.76553 0.25214 0.0
H1672 H 0.51231 0.3375 0.14401 0.0
H1673 H 0.52201 0.3016 0.07456 0.0
H1674 H 0.51257 0.37443 0.12499 0.0
H1675 H 0.52201 0.33869 0.05539 0.0
H1676 H 0.54481 0.41763 0.03885 0.0
H1677 H 0.54576 0.37943 0.05568 0.0
H1678 H 0.48554 0.38961 0.09536 0.0
H1679 H 0.48467 0.4275 0.07891 0.0
C1680 C 0.51451 0.33751 0.12467 0.0
C1681 C 0.517 0.31666 0.11074 0.0
C1682 C 0.51455 0.35863 0.11375 0.0
C1683 C 0.51709 0.35939 0.08865 0.0
C1684 C 0.52013 0.33865 0.07478 0.0
C1685 C 0.52 0.31743 0.08573 0.0
C1686 C 0.53169 0.41157 0.05101 0.0
C1687 C 0.51482 0.42568 0.05772 0.0
C1688 C 0.53221 0.38972 0.06059 0.0
C1689 C 0.51592 0.38172 0.07709 0.0
C1690 C 0.49863 0.39553 0.0831 0.0
C1691 C 0.49808 0.41722 0.07354 0.0
H1692 H 0.96914 0.24399 0.33374 0.0
H1693 H 0.97434 0.31584 0.36594 0.0
H1694 H 0.92943 0.24593 0.31508 0.0
H1695 H 0.93453 0.31759 0.34758 0.0
H1696 H 0.85235 0.28778 0.34762 0.0
H1697 H 0.89505 0.29348 0.35832 0.0
H1698 H 0.90549 0.26881 0.28457 0.0
H1699 H 0.8626 0.26354 0.27366 0.0
C1700 C 0.96199 0.26033 0.33643 0.0
C1701 C 0.97477 0.27971 0.35141 0.0
C1702 C 0.93932 0.26147 0.32567 0.0
C1703 C 0.92892 0.28188 0.33001 0.0
C1704 C 0.94213 0.30162 0.34405 0.0
C1705 C 0.96493 0.30062 0.35447 0.0
C1706 C 0.8638 0.28408 0.33356 0.0
C1707 C 0.85421 0.27523 0.30984 0.0
C1708 C 0.88823 0.28742 0.33965 0.0
C1709 C 0.90353 0.28153 0.32227 0.0
C1710 C 0.89404 0.27344 0.29829 0.0
C1711 C 0.86957 0.27058 0.29204 0.0
H1712 H 0.98126 0.6671 0.63024 0.0
H1713 H 0.00923 0.69649 0.5667 0.0
H1714 H 0.97981 0.62724 0.6106 0.0
H1715 H 0.0082 0.65665 0.54725 0.0
H1716 H 0.98944 0.5804 0.51282 0.0
H1717 H 0.98314 0.61934 0.53005 0.0
H1718 H 0.01074 0.60397 0.60124 0.0
H1719 H 0.01665 0.56523 0.58426 0.0
C1720 C 0.98685 0.66504 0.61197 0.0
C1721 C 0.99557 0.68487 0.60009 0.0
C1722 C 0.98614 0.64223 0.60078 0.0
C1723 C 0.99414 0.6388 0.57749 0.0
C1724 C 0.00175 0.65869 0.56512 0.0
C1725 C 0.00246 0.68151 0.57632 0.0
C1726 C 0.99399 0.58533 0.53217 0.0
C1727 C 0.00366 0.5698 0.54714 0.0
C1728 C 0.99046 0.60763 0.54201 0.0
C1729 C 0.99637 0.6147 0.56702 0.0
C1730 C 0.00565 0.59895 0.58199 0.0
C1731 C 0.00926 0.5768 0.57218 0.0
H1732 H 0.61772 0.78782 0.89205 0.0
H1733 H 0.57867 0.76225 0.82256 0.0
H1734 H 0.65466 0.78515 0.87422 0.0
H1735 H 0.61596 0.75881 0.80464 0.0
H1736 H 0.69194 0.78273 0.77888 0.0
H1737 H 0.65215 0.78141 0.79267 0.0
H1738 H 0.67646 0.75556 0.86025 0.0
H1739 H 0.71607 0.75784 0.84687 0.0
C1740 C 0.61704 0.78151 0.87293 0.0
C1741 C 0.59529 0.77514 0.85875 0.0
C1742 C 0.63825 0.77976 0.86272 0.0
C1743 C 0.63833 0.77131 0.83807 0.0
C1744 C 0.61655 0.7654 0.82366 0.0
C1745 C 0.59521 0.76733 0.83392 0.0
C1746 C 0.68851 0.7763 0.79643 0.0
C1747 C 0.70703 0.77065 0.81197 0.0
C1748 C 0.66577 0.77557 0.80437 0.0
C1749 C 0.66124 0.76895 0.82785 0.0
C1750 C 0.67947 0.7615 0.84242 0.0
C1751 C 0.70212 0.76258 0.83468 0.0
H1752 H 0.39811 0.51996 0.66239 0.0
H1753 H 0.46434 0.53085 0.70768 0.0
H1754 H 0.41956 0.52252 0.62601 0.0
H1755 H 0.48594 0.53249 0.67125 0.0
H1756 H 0.46249 0.50052 0.56526 0.0
H1757 H 0.44196 0.50041 0.60202 0.0
H1758 H 0.49716 0.55447 0.63794 0.0
H1759 H 0.51829 0.55391 0.60106 0.0
C1760 C 0.41728 0.5228 0.66456 0.0
C1761 C 0.4295 0.52511 0.68792 0.0
C1762 C 0.42964 0.52412 0.64367 0.0
C1763 C 0.45459 0.52751 0.64553 0.0
C1764 C 0.46679 0.53015 0.669 0.0
C1765 C 0.4544 0.52905 0.68993 0.0
C1766 C 0.47031 0.51246 0.58094 0.0
C1767 C 0.49206 0.5273 0.5801 0.0
C1768 C 0.45838 0.51252 0.60208 0.0
C1769 C 0.46767 0.52759 0.62305 0.0
C1770 C 0.48951 0.54243 0.62228 0.0
C1771 C 0.5016 0.54223 0.60108 0.0
H1772 H 0.8246 0.2009 0.98528 0.0
H1773 H 0.74978 0.17949 0.96459 0.0
H1774 H 0.82712 0.22633 0.95173 0.0
H1775 H 0.75237 0.20432 0.93078 0.0
H1776 H 0.7596 0.25921 0.87775 0.0
H1777 H 0.75911 0.24411 0.91802 0.0
H1778 H 0.82516 0.21859 0.908 0.0
H1779 H 0.82597 0.23413 0.86837 0.0
C1780 C 0.80869 0.20174 0.97364 0.0
C1781 C 0.78706 0.18805 0.97735 0.0
C1782 C 0.81012 0.21626 0.95442 0.0
C1783 C 0.78996 0.21728 0.93852 0.0
C1784 C 0.76817 0.20423 0.94287 0.0
C1785 C 0.76673 0.1898 0.96211 0.0
C1786 C 0.77424 0.25084 0.88443 0.0
C1787 C 0.79267 0.24761 0.86979 0.0
C1788 C 0.77389 0.24205 0.9074 0.0
C1789 C 0.79197 0.22994 0.91611 0.0
C1790 C 0.81106 0.22801 0.90201 0.0
C1791 C 0.81142 0.23677 0.87914 0.0
H1792 H 0.11767 0.46873 0.18445 0.0
H1793 H 0.07279 0.51377 0.21765 0.0
H1794 H 0.09369 0.46674 0.1455 0.0
H1795 H 0.04907 0.51206 0.17869 0.0
H1796 H 0.00262 0.49304 0.10658 0.0
H1797 H 0.02178 0.48624 0.14627 0.0
H1798 H 0.08995 0.49732 0.11717 0.0
H1799 H 0.07115 0.50398 0.07807 0.0
C1800 C 0.10259 0.47804 0.18346 0.0
C1801 C 0.09727 0.49165 0.20395 0.0
C1802 C 0.08888 0.47691 0.1612 0.0
C1803 C 0.06959 0.48936 0.15905 0.0
C1804 C 0.06366 0.50209 0.17985 0.0
C1805 C 0.0774 0.50326 0.20208 0.0
C1806 C 0.02165 0.49373 0.10868 0.0
C1807 C 0.03536 0.49916 0.08924 0.0
C1808 C 0.0326 0.48992 0.13135 0.0
C1809 C 0.05735 0.49115 0.13475 0.0
C1810 C 0.07084 0.49587 0.11505 0.0
C1811 C 0.06002 0.49989 0.09265 0.0
H1812 H 0.78792 0.83319 0.47767 0.0
H1813 H 0.74563 0.8852 0.45504 0.0
H1814 H 0.78659 0.81687 0.43512 0.0
H1815 H 0.74352 0.86853 0.41293 0.0
H1816 H 0.76268 0.85188 0.33763 0.0
H1817 H 0.76776 0.86679 0.38045 0.0
H1818 H 0.76151 0.79512 0.40112 0.0
H1819 H 0.75731 0.78023 0.35787 0.0
C1820 C 0.77818 0.84099 0.46363 0.0
C1821 C 0.76702 0.86058 0.46965 0.0
C1822 C 0.77733 0.83159 0.43926 0.0
C1823 C 0.76518 0.84152 0.42046 0.0
C1824 C 0.75358 0.86077 0.42674 0.0
C1825 C 0.75461 0.87025 0.45096 0.0
C1826 C 0.76258 0.83929 0.35131 0.0
C1827 C 0.75936 0.81488 0.3444 0.0
C1828 C 0.76532 0.84783 0.37591 0.0
C1829 C 0.76454 0.83218 0.39435 0.0
C1830 C 0.76227 0.80772 0.38745 0.0
C1831 C 0.75982 0.79915 0.36268 0.0
H1832 H 0.45451 0.5011 0.81083 0.0
H1833 H 0.40142 0.53949 0.83824 0.0
H1834 H 0.47129 0.49922 0.85276 0.0
H1835 H 0.41843 0.53828 0.8798 0.0
H1836 H 0.43626 0.51328 0.95209 0.0
H1837 H 0.4211 0.51054 0.90938 0.0
H1838 H 0.49268 0.52266 0.88849 0.0
H1839 H 0.50788 0.52464 0.9315 0.0
C1840 C 0.44657 0.50931 0.82579 0.0
C1841 C 0.42657 0.52033 0.82126 0.0
C1842 C 0.45622 0.5083 0.84981 0.0
C1843 C 0.44605 0.51832 0.86974 0.0
C1844 C 0.42639 0.52982 0.86501 0.0
C1845 C 0.41673 0.53072 0.84112 0.0
C1846 C 0.44878 0.51501 0.93836 0.0
C1847 C 0.47325 0.51934 0.94516 0.0
C1848 C 0.44009 0.51366 0.91385 0.0
C1849 C 0.45563 0.51694 0.89546 0.0
C1850 C 0.48019 0.52002 0.90214 0.0
C1851 C 0.48892 0.52113 0.92678 0.0
H1852 H 0.82045 0.18821 0.10505 0.0
H1853 H 0.74877 0.19667 0.08177 0.0
H1854 H 0.81982 0.21532 0.14143 0.0
H1855 H 0.74827 0.22387 0.11788 0.0
H1856 H 0.74632 0.23536 0.20214 0.0
H1857 H 0.74787 0.21623 0.16152 0.0
H1858 H 0.81653 0.25765 0.15683 0.0
H1859 H 0.81487 0.27703 0.19794 0.0
C1860 C 0.80469 0.19607 0.10756 0.0
C1861 C 0.78455 0.1901 0.09076 0.0
C1862 C 0.80441 0.21174 0.12825 0.0
C1863 C 0.78396 0.22163 0.13251 0.0
C1864 C 0.76418 0.21632 0.11519 0.0
C1865 C 0.76448 0.20074 0.09453 0.0
C1866 C 0.7616 0.24065 0.19229 0.0
C1867 C 0.78054 0.25755 0.20313 0.0
C1868 C 0.76242 0.22981 0.16897 0.0
C1869 C 0.78235 0.2354 0.15603 0.0
C1870 C 0.80102 0.25294 0.1665 0.0
C1871 C 0.80001 0.26413 0.18984 0.0
H1872 H 0.12451 0.51531 0.35409 0.0
H1873 H 0.06455 0.48523 0.30306 0.0
H1874 H 0.09802 0.51983 0.38598 0.0
H1875 H 0.03794 0.4902 0.33489 0.0
H1876 H 0.00565 0.4765 0.40901 0.0
H1877 H 0.028 0.4742 0.37332 0.0
H1878 H 0.0677 0.54351 0.39646 0.0
H1879 H 0.04575 0.54563 0.4324 0.0
C1880 C 0.10567 0.50965 0.34972 0.0
C1881 C 0.09659 0.49987 0.32615 0.0
C1882 C 0.09046 0.51248 0.36789 0.0
C1883 C 0.06586 0.50564 0.36284 0.0
C1884 C 0.05681 0.49555 0.33933 0.0
C1885 C 0.07205 0.49271 0.32114 0.0
C1886 C 0.01878 0.49147 0.4062 0.0
C1887 C 0.02421 0.51108 0.42371 0.0
C1888 C 0.03159 0.49014 0.38574 0.0
C1889 C 0.04995 0.50846 0.3824 0.0
C1890 C 0.05407 0.52885 0.39892 0.0
C1891 C 0.04135 0.53014 0.41939 0.0
H1892 H 0.77381 0.88471 0.6296 0.0
H1893 H 0.75743 0.81946 0.58279 0.0
H1894 H 0.77289 0.8624 0.66544 0.0
H1895 H 0.75725 0.79697 0.61867 0.0
H1896 H 0.73969 0.76473 0.69075 0.0
H1897 H 0.73729 0.78629 0.65417 0.0
H1898 H 0.79645 0.83818 0.6859 0.0
H1899 H 0.79838 0.81723 0.72228 0.0
C1900 C 0.77005 0.86557 0.62697 0.0
C1901 C 0.76582 0.85388 0.60334 0.0
C1902 C 0.76967 0.85272 0.64753 0.0
C1903 C 0.76526 0.82778 0.64505 0.0
C1904 C 0.76051 0.81611 0.62137 0.0
C1905 C 0.76074 0.82901 0.60076 0.0
C1906 C 0.75216 0.78073 0.68983 0.0
C1907 C 0.76914 0.78926 0.70954 0.0
C1908 C 0.75086 0.79307 0.66883 0.0
C1909 C 0.76652 0.81419 0.66709 0.0
C1910 C 0.7837 0.82236 0.6867 0.0
C1911 C 0.78494 0.81016 0.70759 0.0
H1912 H 0.7307 0.47066 0.53595 0.0
H1913 H 0.672 0.41303 0.52615 0.0
H1914 H 0.70346 0.49845 0.54536 0.0
H1915 H 0.64492 0.44069 0.53559 0.0
H1916 H 0.60388 0.49108 0.57208 0.0
H1917 H 0.63568 0.4674 0.57061 0.0
H1918 H 0.67021 0.51376 0.52169 0.0
H1919 H 0.63842 0.53758 0.5231 0.0
C1920 C 0.71201 0.46393 0.53593 0.0
C1921 C 0.70344 0.43969 0.53024 0.0
C1922 C 0.69646 0.47983 0.54127 0.0
C1923 C 0.6721 0.47172 0.54137 0.0
C1924 C 0.66364 0.44742 0.53604 0.0
C1925 C 0.67912 0.43161 0.53043 0.0
C1926 C 0.61851 0.49662 0.56146 0.0
C1927 C 0.61841 0.51607 0.54742 0.0
C1928 C 0.63664 0.48292 0.56049 0.0
C1929 C 0.65518 0.48848 0.54568 0.0
C1930 C 0.65614 0.50904 0.53326 0.0
C1931 C 0.6379 0.52268 0.53407 0.0
H1932 H 0.18253 0.12532 0.48336 0.0
H1933 H 0.21386 0.06387 0.49987 0.0
H1934 H 0.14329 0.10328 0.48646 0.0
H1935 H 0.17445 0.04182 0.50336 0.0
H1936 H 0.09578 0.00525 0.48962 0.0
H1937 H 0.13507 0.02478 0.48144 0.0
H1938 H 0.12288 0.08914 0.52096 0.0
H1939 H 0.08397 0.06997 0.5289 0.0
C1940 C 0.18102 0.10701 0.48742 0.0
C1941 C 0.20131 0.0964 0.49156 0.0
C1942 C 0.15853 0.09442 0.48935 0.0
C1943 C 0.15575 0.07089 0.49552 0.0
C1944 C 0.17597 0.05988 0.4985 0.0
C1945 C 0.19854 0.07253 0.49657 0.0
C1946 C 0.10155 0.02356 0.49656 0.0
C1947 C 0.08666 0.03603 0.50985 0.0
C1948 C 0.12406 0.03472 0.49193 0.0
C1949 C 0.13201 0.0586 0.50033 0.0
C1950 C 0.11716 0.07089 0.5138 0.0
C1951 C 0.09486 0.05978 0.51852 0.0
H1952 H 0.20122 0.97321 0.74389 0.0
H1953 H 0.19002 0.95483 0.81704 0.0
H1954 H 0.22583 0.94209 0.73895 0.0
H1955 H 0.21459 0.92387 0.81214 0.0
H1956 H 0.27742 0.88557 0.80451 0.0
H1957 H 0.25672 0.91962 0.8075 0.0
H1958 H 0.22023 0.89749 0.73608 0.0
H1959 H 0.24096 0.86329 0.733 0.0
C1960 C 0.2041 0.9626 0.75895 0.0
C1961 C 0.19367 0.96647 0.78086 0.0
C1962 C 0.21811 0.94473 0.75607 0.0
C1963 C 0.22224 0.93056 0.77518 0.0
C1964 C 0.21202 0.93467 0.79718 0.0
C1965 C 0.19781 0.95232 0.79994 0.0
C1966 C 0.26528 0.8881 0.78923 0.0
C1967 C 0.26081 0.87157 0.76854 0.0
C1968 C 0.25326 0.90755 0.79106 0.0
C1969 C 0.23663 0.91113 0.77215 0.0
C1970 C 0.233 0.89529 0.75092 0.0
C1971 C 0.24487 0.87566 0.74918 0.0
H1972 H 0.31929 0.94583 0.98491 0.0
H1973 H 0.33861 0.88532 0.01897 0.0
H1974 H 0.36125 0.96234 0.98521 0.0
H1975 H 0.38 0.90199 0.02023 0.0
H1976 H 0.45385 0.9276 0.01217 0.0
H1977 H 0.41287 0.91146 0.99837 0.0
H1978 H 0.39296 0.98039 0.01447 0.0
H1979 H 0.43439 0.99672 0.02686 0.0
C1980 C 0.33251 0.936 0.99225 0.0
C1981 C 0.32573 0.91435 0.00199 0.0
C1982 C 0.35651 0.9455 0.99257 0.0
C1983 C 0.37409 0.93354 0.00274 0.0
C1984 C 0.36711 0.91153 0.01176 0.0
C1985 C 0.34328 0.90202 0.01125 0.0
C1986 C 0.44073 0.93935 0.01225 0.0
C1987 C 0.44709 0.96327 0.02086 0.0
C1988 C 0.41723 0.93011 0.0045 0.0
C1989 C 0.39946 0.94446 0.00589 0.0
C1990 C 0.40614 0.96881 0.01303 0.0
C1991 C 0.42984 0.97818 0.02025 0.0
H1992 H 0.87078 0.60477 0.76575 0.0
H1993 H 0.81122 0.55151 0.77515 0.0
H1994 H 0.84383 0.63256 0.75656 0.0
H1995 H 0.78415 0.57934 0.76572 0.0
H1996 H 0.75279 0.64973 0.78351 0.0
H1997 H 0.77443 0.61643 0.78568 0.0
H1998 H 0.81297 0.63945 0.72533 0.0
H1999 H 0.79158 0.67292 0.72328 0.0
C2000 C 0.85191 0.59897 0.76573 0.0
C2001 C 0.84311 0.57603 0.77128 0.0
C2002 C 0.83645 0.61481 0.76023 0.0
C2003 C 0.81184 0.60807 0.76024 0.0
C2004 C 0.80302 0.58505 0.76566 0.0
C2005 C 0.81851 0.56914 0.77103 0.0
C2006 C 0.76543 0.64737 0.77028 0.0
C2007 C 0.77073 0.66424 0.75351 0.0
C2008 C 0.77783 0.62825 0.77152 0.0
C2009 C 0.79575 0.62562 0.756 0.0
C2010 C 0.79962 0.64134 0.73789 0.0
C2011 C 0.78721 0.66041 0.73661 0.0
H2012 H 0.83093 0.61107 0.05088 0.0
H2013 H 0.81498 0.58408 0.97513 0.0
H2014 H 0.86457 0.58966 0.05392 0.0
H2015 H 0.84851 0.56244 0.97823 0.0
H2016 H 0.92899 0.55969 0.98519 0.0
H2017 H 0.89148 0.57448 0.98251 0.0
H2018 H 0.87722 0.55001 0.05283 0.0
H2019 H 0.91527 0.53522 0.05562 0.0
C2020 C 0.83445 0.60034 0.03494 0.0
C2021 C 0.82041 0.59944 0.01269 0.0
C2022 C 0.85363 0.58792 0.03675 0.0
C2023 C 0.85931 0.57439 0.01631 0.0
C2024 C 0.84479 0.57291 0.99425 0.0
C2025 C 0.82553 0.58525 0.99248 0.0
C2026 C 0.91782 0.55726 5e-05 0.0
C2027 C 0.9252 0.54643 0.02072 0.0
C2028 C 0.89617 0.56558 0.9984 0.0
C2029 C 0.88131 0.56346 0.01745 0.0
C2030 C 0.88837 0.55207 0.03792 0.0
C2031 C 0.91006 0.54348 0.03947 0.0
H2032 H 0.22011 0.07894 0.81056 0.0
H2033 H 0.15884 0.10003 0.7731 0.0
H2034 H 0.24171 0.1191 0.81049 0.0
H2035 H 0.1805 0.13949 0.77174 0.0
H2036 H 0.21468 0.21403 0.79018 0.0
H2037 H 0.19492 0.1745 0.79503 0.0
H2038 H 0.26045 0.14734 0.78657 0.0
H2039 H 0.28058 0.18752 0.78324 0.0
C2040 C 0.21132 0.09215 0.80221 0.0
C2041 C 0.18773 0.0864 0.79203 0.0
C2042 C 0.22374 0.11515 0.80199 0.0
C2043 C 0.21291 0.13281 0.79128 0.0
C2044 C 0.18936 0.12675 0.78081 0.0
C2045 C 0.17691 0.10397 0.78139 0.0
C2046 C 0.22495 0.19966 0.78958 0.0
C2047 C 0.24917 0.2039 0.78617 0.0
C2048 C 0.21354 0.17685 0.79213 0.0
C2049 C 0.22587 0.15742 0.79073 0.0
C2050 C 0.25033 0.16177 0.78796 0.0
C2051 C 0.2619 0.18481 0.78592 0.0
H2052 H 0.35765 0.96511 0.33249 0.0
H2053 H 0.35376 0.95487 0.25366 0.0
H2054 H 0.34397 0.92251 0.33387 0.0
H2055 H 0.34065 0.91262 0.25526 0.0
H2056 H 0.35898 0.83989 0.27681 0.0
H2057 H 0.36985 0.88273 0.2836 0.0
H2058 H 0.30041 0.88861 0.30575 0.0
H2059 H 0.28906 0.84548 0.29855 0.0
C2060 C 0.3536 0.95386 0.31552 0.0
C2061 C 0.35684 0.96326 0.29297 0.0
C2062 C 0.3458 0.92962 0.31635 0.0
C2063 C 0.34147 0.91456 0.29467 0.0
C2064 C 0.34398 0.92404 0.27217 0.0
C2065 C 0.35143 0.94818 0.2713 0.0
C2066 C 0.3461 0.85015 0.2836 0.0
C2067 C 0.32303 0.8393 0.28682 0.0
C2068 C 0.35238 0.87465 0.28748 0.0
C2069 C 0.33588 0.88872 0.29504 0.0
C2070 C 0.31337 0.87794 0.3 0.0
C2071 C 0.30694 0.85333 0.29585 0.0
H2072 H 0.51251 0.32762 0.58918 0.0
H2073 H 0.54803 0.36972 0.6536 0.0
H2074 H 0.50842 0.36386 0.56952 0.0
H2075 H 0.54434 0.40562 0.63399 0.0
H2076 H 0.5157 0.4663 0.60529 0.0
H2077 H 0.51343 0.42788 0.62148 0.0
H2078 H 0.53285 0.39767 0.55313 0.0
H2079 H 0.53459 0.43632 0.53665 0.0
C2080 C 0.51947 0.34459 0.59909 0.0
C2081 C 0.5305 0.34586 0.62297 0.0
C2082 C 0.5172 0.3653 0.58781 0.0
C2083 C 0.52581 0.38762 0.60028 0.0
C2084 C 0.53704 0.38875 0.62405 0.0
C2085 C 0.53933 0.36814 0.63525 0.0
C2086 C 0.51912 0.45138 0.59356 0.0
C2087 C 0.52563 0.45434 0.56984 0.0
C2088 C 0.51796 0.4294 0.60289 0.0
C2089 C 0.52351 0.40986 0.5888 0.0
C2090 C 0.52849 0.4124 0.56444 0.0
C2091 C 0.52948 0.4345 0.555 0.0
H2092 H 0.45728 0.72928 0.32903 0.0
H2093 H 0.43615 0.77619 0.38546 0.0
H2094 H 0.41789 0.72585 0.3069 0.0
H2095 H 0.39731 0.773 0.36345 0.0
H2096 H 0.3234 0.7445 0.33447 0.0
H2097 H 0.36248 0.74236 0.35366 0.0
H2098 H 0.39206 0.75108 0.28463 0.0
H2099 H 0.35249 0.75289 0.26512 0.0
C2100 C 0.44425 0.73881 0.33668 0.0
C2101 C 0.44972 0.75289 0.35903 0.0
C2102 C 0.4218 0.73694 0.32398 0.0
C2103 C 0.40445 0.74896 0.33356 0.0
C2104 C 0.41012 0.76314 0.35581 0.0
C2105 C 0.43245 0.76508 0.36837 0.0
C2106 C 0.33817 0.74576 0.32327 0.0
C2107 C 0.33495 0.74923 0.29836 0.0
C2108 C 0.36058 0.74459 0.3343 0.0
C2109 C 0.3804 0.74701 0.32076 0.0
C2110 C 0.37708 0.74915 0.29551 0.0
C2111 C 0.35447 0.75022 0.28436 0.0
H2112 H 0.00288 0.69286 0.1481 0.0
H2113 H 0.04537 0.71715 0.09098 0.0
H2114 H 1.00065 0.65222 0.13097 0.0
H2115 H 0.04372 0.67615 0.07407 0.0
H2116 H 0.01141 0.60021 0.03827 0.0
H2117 H 0.01704 0.64206 0.05341 0.0
H2118 H 0.02604 0.62289 0.12748 0.0
H2119 H 0.01972 0.58128 0.11242 0.0
C2120 C 0.01179 0.68948 0.13187 0.0
C2121 C 0.02435 0.70817 0.12092 0.0
C2122 C 0.01071 0.66615 0.12216 0.0
C2123 C 0.02233 0.66086 0.10135 0.0
C2124 C 0.03451 0.67962 0.09006 0.0
C2125 C 0.0355 0.70307 0.09976 0.0
C2126 C 0.01498 0.60503 0.05774 0.0
C2127 C 0.01485 0.5875 0.0742 0.0
C2128 C 0.01821 0.62899 0.06643 0.0
C2129 C 0.02152 0.6358 0.0917 0.0
C2130 C 0.02285 0.61824 0.10795 0.0
C2131 C 0.01941 0.59439 0.09932 0.0
H2132 H 0.09848 0.27446 0.89935 0.0
H2133 H 0.06375 0.25057 0.82743 0.0
H2134 H 0.13669 0.27983 0.88235 0.0
H2135 H 0.10213 0.25571 0.81043 0.0
H2136 H 0.17503 0.28849 0.78697 0.0
H2137 H 0.13622 0.28707 0.80318 0.0
H2138 H 0.16134 0.25244 0.86467 0.0
H2139 H 0.19972 0.25399 0.84884 0.0
C2140 C 0.09902 0.27033 0.87991 0.0
C2141 C 0.07818 0.2619 0.86474 0.0
C2142 C 0.12089 0.27338 0.87018 0.0
C2143 C 0.12238 0.26811 0.84508 0.0
C2144 C 0.10148 0.26012 0.8298 0.0
C2145 C 0.07957 0.25698 0.83957 0.0
C2146 C 0.17222 0.28073 0.80401 0.0
C2147 C 0.1904 0.27134 0.8166 0.0
C2148 C 0.15003 0.2798 0.8132 0.0
C2149 C 0.14582 0.26971 0.83523 0.0
C2150 C 0.16413 0.26061 0.84785 0.0
C2151 C 0.18611 0.26138 0.83864 0.0
H2152 H 0.5289 0.72991 0.96465 0.0
H2153 H 0.53072 0.69062 0.8949 0.0
H2154 H 0.52672 0.6931 0.98469 0.0
H2155 H 0.52836 0.65403 0.91481 0.0
H2156 H 0.55368 0.5994 0.96056 0.0
H2157 H 0.55531 0.63718 0.94345 0.0
H2158 H 0.49923 0.65414 0.98629 0.0
H2159 H 0.49761 0.61594 0.0038 0.0
C2160 C 0.52881 0.71343 0.95363 0.0
C2161 C 0.53015 0.71312 0.92824 0.0
C2162 C 0.5274 0.69239 0.96507 0.0
C2163 C 0.52751 0.67075 0.95133 0.0
C2164 C 0.52858 0.67049 0.92592 0.0
C2165 C 0.52986 0.69143 0.91451 0.0
C2166 C 0.54167 0.61112 0.96647 0.0
C2167 C 0.52532 0.60455 0.98339 0.0
C2168 C 0.54257 0.63276 0.95654 0.0
C2169 C 0.52719 0.64846 0.96328 0.0
C2170 C 0.51132 0.64235 0.98081 0.0
C2171 C 0.51035 0.6205 0.99076 0.0
H2172 H 0.08867 0.73058 0.64347 0.0
H2173 H 0.07406 0.77715 0.70386 0.0
H2174 H 0.12975 0.73441 0.66032 0.0
H2175 H 0.11538 0.78122 0.72063 0.0
H2176 H 0.18804 0.76901 0.75311 0.0
H2177 H 0.14599 0.75933 0.73869 0.0
H2178 H 0.16337 0.76695 0.66457 0.0
H2179 H 0.20518 0.77638 0.67884 0.0
C2180 C 0.09421 0.74153 0.66044 0.0
C2181 C 0.0782 0.75372 0.67226 0.0
C2182 C 0.11776 0.74378 0.67004 0.0
C2183 C 0.12584 0.75824 0.6917 0.0
C2184 C 0.10963 0.76979 0.70401 0.0
C2185 C 0.08602 0.76758 0.69435 0.0
C2186 C 0.18287 0.76832 0.73371 0.0
C2187 C 0.19992 0.77354 0.71712 0.0
C2188 C 0.1588 0.76294 0.72549 0.0
C2189 C 0.15137 0.76244 0.70052 0.0
C2190 C 0.16853 0.76694 0.6839 0.0
C2191 C 0.1925 0.77247 0.69211 0.0
H2192 H 0.06972 0.34826 0.44188 0.0
H2193 H 0.99848 0.32066 0.45675 0.0
H2194 H 0.06743 0.38531 0.46613 0.0
H2195 H 0.99611 0.35788 0.48059 0.0
H2196 H 0.99391 0.44009 0.47989 0.0
H2197 H 0.99701 0.39999 0.46386 0.0
H2198 H 0.06059 0.40183 0.5118 0.0
H2199 H 0.05718 0.44212 0.52843 0.0
C2200 C 0.0537 0.35002 0.45058 0.0
C2201 C 0.03422 0.33168 0.44733 0.0
C2202 C 0.05247 0.37112 0.46455 0.0
C2203 C 0.03159 0.37437 0.47514 0.0
C2204 C 0.01238 0.35576 0.47255 0.0
C2205 C 0.01377 0.3345 0.45896 0.0
C2206 C 0.00846 0.43189 0.48718 0.0
C2207 C 0.02541 0.4442 0.50529 0.0
C2208 C 0.01011 0.4089 0.47813 0.0
C2209 C 0.029 0.39789 0.48665 0.0
C2210 C 0.04586 0.41003 0.50498 0.0
C2211 C 0.04388 0.43294 0.5145 0.0
H2212 H 0.46306 0.24846 0.21228 0.0
H2213 H 0.42997 0.25425 0.14038 0.0
H2214 H 0.42441 0.24629 0.22881 0.0
H2215 H 0.39184 0.25301 0.15682 0.0
H2216 H 0.32458 0.22038 0.18496 0.0
H2217 H 0.36394 0.22402 0.17147 0.0
H2218 H 0.39178 0.26758 0.23791 0.0
H2219 H 0.35192 0.26322 0.25196 0.0
C2220 C 0.44758 0.24946 0.20008 0.0
C2221 C 0.44946 0.25119 0.17499 0.0
C2222 C 0.42548 0.24838 0.20956 0.0
C2223 C 0.40493 0.24917 0.19411 0.0
C2224 C 0.40713 0.25172 0.16917 0.0
C2225 C 0.42905 0.25255 0.15973 0.0
C2226 C 0.33901 0.23081 0.19677 0.0
C2227 C 0.33504 0.24168 0.21947 0.0
C2228 C 0.36165 0.23301 0.18893 0.0
C2229 C 0.38105 0.2464 0.2034 0.0
C2230 C 0.37724 0.25705 0.22635 0.0
C2231 C 0.35442 0.25468 0.23434 0.0
H2232 H 0.59339 0.48296 0.34003 0.0
H2233 H 0.62234 0.55573 0.3638 0.0
H2234 H 0.57175 0.48039 0.37658 0.0
H2235 H 0.60074 0.5532 0.40014 0.0
H2236 H 0.58402 0.53102 0.47533 0.0
H2237 H 0.60335 0.53247 0.43772 0.0
H2238 H 0.5389 0.49648 0.39715 0.0
H2239 H 0.5193 0.49494 0.4351 0.0
C2240 C 0.59502 0.49844 0.35297 0.0
C2241 C 0.60968 0.51952 0.34907 0.0
C2242 C 0.58253 0.497 0.37384 0.0
C2243 C 0.58464 0.51653 0.39137 0.0
C2244 C 0.59898 0.53771 0.38719 0.0
C2245 C 0.61128 0.53921 0.36628 0.0
C2246 C 0.57387 0.52329 0.45848 0.0
C2247 C 0.55001 0.51289 0.45834 0.0
C2248 C 0.58497 0.5243 0.43683 0.0
C2249 C 0.57264 0.51479 0.41437 0.0
C2250 C 0.54892 0.50389 0.41418 0.0
C2251 C 0.53768 0.50307 0.43591 0.0
H2252 H 0.24446 0.82705 0.06795 0.0
H2253 H 0.28498 0.89416 0.09781 0.0
H2254 H 0.25253 0.8104 0.10672 0.0
H2255 H 0.29313 0.8775 0.13636 0.0
H2256 H 0.27286 0.84757 0.20855 0.0
H2257 H 0.26871 0.86367 0.16925 0.0
H2258 H 0.28684 0.79998 0.1336 0.0
H2259 H 0.29094 0.78364 0.17328 0.0
C2260 C 0.25505 0.83822 0.08279 0.0
C2261 C 0.26394 0.86194 0.07996 0.0
C2262 C 0.25986 0.82863 0.10485 0.0
C2263 C 0.27349 0.84266 0.12449 0.0
C2264 C 0.28243 0.86634 0.12158 0.0
C2265 C 0.27775 0.87587 0.09952 0.0
C2266 C 0.27619 0.83704 0.19239 0.0
C2267 C 0.28215 0.81431 0.19395 0.0
C2268 C 0.27391 0.84633 0.16989 0.0
C2269 C 0.27739 0.83305 0.14838 0.0
C2270 C 0.28387 0.81049 0.14992 0.0
C2271 C 0.2864 0.80124 0.17259 0.0
H2272 H 0.90555 0.55563 0.87295 0.0
H2273 H 0.96424 0.53688 0.83521 0.0
H2274 H 0.92879 0.55612 0.91203 0.0
H2275 H 0.98721 0.53662 0.87429 0.0
H2276 H 0.02616 0.54672 0.95119 0.0
H2277 H 0.00694 0.55739 0.91314 0.0
H2278 H 0.93945 0.52283 0.93217 0.0
H2279 H 0.95822 0.51251 0.96963 0.0
C2280 C 0.92353 0.55194 0.87301 0.0
C2281 C 0.93296 0.54584 0.8511 0.0
C2282 C 0.93681 0.55213 0.89536 0.0
C2283 C 0.95967 0.54596 0.89625 0.0
C2284 C 0.96971 0.54154 0.87424 0.0
C2285 C 0.95647 0.54154 0.85185 0.0
C2286 C 0.00722 0.54154 0.94719 0.0
C2287 C 0.99376 0.52877 0.96345 0.0
C2288 C 0.99623 0.54764 0.92546 0.0
C2289 C 0.97162 0.54121 0.9198 0.0
C2290 C 0.95831 0.52859 0.93619 0.0
C2291 C 0.9692 0.52244 0.95765 0.0
H2292 H 0.27134 0.13815 0.58845 0.0
H2293 H 0.26374 0.20525 0.56094 0.0
H2294 H 0.27178 0.15568 0.63 0.0
H2295 H 0.26282 0.22274 0.60264 0.0
H2296 H 0.29026 0.25165 0.68209 0.0
H2297 H 0.28601 0.23595 0.6393 0.0
H2298 H 0.24909 0.16964 0.65903 0.0
H2299 H 0.25473 0.18499 0.70182 0.0
C2300 C 0.26945 0.15664 0.59132 0.0
C2301 C 0.26755 0.17034 0.57148 0.0
C2302 C 0.26945 0.1667 0.6152 0.0
C2303 C 0.26708 0.19068 0.61988 0.0
C2304 C 0.26498 0.20434 0.59989 0.0
C2305 C 0.26539 0.19431 0.57595 0.0
C2306 C 0.28094 0.23385 0.67715 0.0
C2307 C 0.27302 0.21944 0.69525 0.0
C2308 C 0.27843 0.22481 0.65258 0.0
C2309 C 0.26755 0.2013 0.64557 0.0
C2310 C 0.25827 0.18753 0.66369 0.0
C2311 C 0.26125 0.19639 0.68823 0.0
H2312 H 0.59922 0.55224 0.22819 0.0
H2313 H 0.60662 0.47835 0.21905 0.0
H2314 H 0.58144 0.54954 0.18591 0.0
H2315 H 0.58899 0.47575 0.17707 0.0
H2316 H 0.59481 0.49122 0.09763 0.0
H2317 H 0.60658 0.49485 0.14114 0.0
H2318 H 0.54584 0.52829 0.15512 0.0
H2319 H 0.53369 0.52448 0.11101 0.0
C2320 C 0.59661 0.53534 0.21734 0.0
C2321 C 0.60453 0.51556 0.22687 0.0
C2322 C 0.58641 0.53381 0.19319 0.0
C2323 C 0.58417 0.51254 0.17813 0.0
C2324 C 0.59084 0.49248 0.18815 0.0
C2325 C 0.60083 0.49395 0.21225 0.0
C2326 C 0.58391 0.49946 0.10983 0.0
C2327 C 0.56321 0.50745 0.10078 0.0
C2328 C 0.59061 0.50138 0.13484 0.0
C2329 C 0.57694 0.51151 0.15155 0.0
C2330 C 0.55665 0.52032 0.14261 0.0
C2331 C 0.54973 0.51815 0.11741 0.0
H2332 H 0.25419 0.81651 0.96192 0.0
H2333 H 0.22089 0.86995 0.92797 0.0
H2334 H 0.25476 0.7953 0.92198 0.0
H2335 H 0.22064 0.84831 0.88808 0.0
H2336 H 0.26236 0.82829 0.82447 0.0
H2337 H 0.25251 0.84413 0.8635 0.0
H2338 H 0.23448 0.77323 0.88487 0.0
H2339 H 0.24513 0.75714 0.84547 0.0
C2340 C 0.24641 0.82338 0.94596 0.0
C2341 C 0.23786 0.84509 0.94797 0.0
C2342 C 0.24662 0.81114 0.92307 0.0
C2343 C 0.23813 0.82032 0.90178 0.0
C2344 C 0.22785 0.84107 0.90408 0.0
C2345 C 0.22785 0.85341 0.92693 0.0
C2346 C 0.2563 0.81595 0.83736 0.0
C2347 C 0.2548 0.79141 0.83187 0.0
C2348 C 0.2503 0.82508 0.85973 0.0
C2349 C 0.24249 0.80997 0.8773 0.0
C2350 C 0.24056 0.78535 0.87175 0.0
C2351 C 0.2466 0.77614 0.84919 0.0
H2352 H 0.88605 0.50294 0.69983 0.0
H2353 H 0.95383 0.53846 0.73385 0.0
H2354 H 0.90396 0.49527 0.66192 0.0
H2355 H 0.97172 0.53091 0.69575 0.0
H2356 H 0.99875 0.49323 0.62881 0.0
H2357 H 0.98103 0.49668 0.66782 0.0
H2358 H 0.92092 0.52085 0.63127 0.0
H2359 H 0.93833 0.51733 0.59269 0.0
C2360 C 0.90475 0.50919 0.69916 0.0
C2361 C 0.91852 0.52147 0.71968 0.0
C2362 C 0.91499 0.50477 0.67749 0.0
C2363 C 0.93922 0.51246 0.67596 0.0
C2364 C 0.95306 0.52454 0.69656 0.0
C2365 C 0.94277 0.52908 0.71823 0.0
C2366 C 0.98164 0.49901 0.62917 0.0
C2367 C 0.96996 0.5051 0.6078 0.0
C2368 C 0.97161 0.50114 0.65144 0.0
C2369 C 0.94964 0.50906 0.65249 0.0
C2370 C 0.93775 0.51448 0.63096 0.0
C2371 C 0.94783 0.5126 0.60889 0.0
H2372 H 0.30403 0.16357 0.42635 0.0
H2373 H 0.24539 0.19727 0.44753 0.0
H2374 H 0.30666 0.18659 0.39064 0.0
H2375 H 0.24764 0.21968 0.41151 0.0
H2376 H 0.24146 0.22147 0.32488 0.0
H2377 H 0.24115 0.20311 0.3634 0.0
H2378 H 0.31411 0.23446 0.38241 0.0
H2379 H 0.31424 0.25363 0.3439 0.0
C2380 C 0.29175 0.17589 0.42339 0.0
C2381 C 0.27446 0.17857 0.43967 0.0
C2382 C 0.29337 0.18915 0.40309 0.0
C2383 C 0.27739 0.20492 0.39843 0.0
C2384 C 0.26018 0.20765 0.41474 0.0
C2385 C 0.25891 0.19483 0.43531 0.0
C2386 C 0.25739 0.22464 0.33737 0.0
C2387 C 0.27791 0.23894 0.33143 0.0
C2388 C 0.25716 0.21419 0.35942 0.0
C2389 C 0.27761 0.21732 0.37578 0.0
C2390 C 0.29815 0.23175 0.37001 0.0
C2391 C 0.29818 0.24278 0.34813 0.0
H2392 H 0.34231 0.61293 0.4892 0.0
H2393 H 0.32986 0.57383 0.55198 0.0
H2394 H 0.37132 0.58823 0.47758 0.0
H2395 H 0.3598 0.54986 0.54125 0.0
H2396 H 0.40378 0.49928 0.50995 0.0
H2397 H 0.37007 0.52007 0.51441 0.0
H2398 H 0.40967 0.58235 0.48907 0.0
H2399 H 0.44262 0.56126 0.48348 0.0
C2400 C 0.34599 0.59917 0.50065 0.0
C2401 C 0.33397 0.59538 0.52157 0.0
C2402 C 0.36268 0.58502 0.49405 0.0
C2403 C 0.36807 0.567 0.50847 0.0
C2404 C 0.35587 0.56321 0.52938 0.0
C2405 C 0.33887 0.57711 0.53573 0.0
C2406 C 0.40502 0.51724 0.5048 0.0
C2407 C 0.42594 0.52862 0.49649 0.0
C2408 C 0.3858 0.52928 0.50764 0.0
C2409 C 0.38719 0.5531 0.50252 0.0
C2410 C 0.40771 0.564 0.49298 0.0
C2411 C 0.42675 0.55187 0.48983 0.0
H2412 H 0.85782 0.89874 0.54492 0.0
H2413 H 0.83024 0.96473 0.54563 0.0
H2414 H 0.89748 0.91983 0.54199 0.0
H2415 H 0.86998 0.9859 0.54201 0.0
H2416 H 0.94981 0.01763 0.55514 0.0
H2417 H 0.91008 0.99817 0.56188 0.0
H2418 H 0.91793 0.93921 0.51113 0.0
H2419 H 0.95736 0.9582 0.50485 0.0
C2420 C 0.86025 0.91779 0.54451 0.0
C2421 C 0.84088 0.93004 0.54534 0.0
C2422 C 0.88298 0.92989 0.54267 0.0
C2423 C 0.88693 0.95456 0.54141 0.0
C2424 C 0.86764 0.96694 0.54307 0.0
C2425 C 0.84485 0.9548 0.54504 0.0
C2426 C 0.94297 0.00054 0.54541 0.0
C2427 C 0.95687 0.98944 0.52958 0.0
C2428 C 0.92019 0.98941 0.54922 0.0
C2429 C 0.91088 0.96696 0.53728 0.0
C2430 C 0.92467 0.9562 0.5211 0.0
C2431 C 0.94731 0.96724 0.51735 0.0
H2432 H 0.89315 0.10414 0.24905 0.0
H2433 H 0.82728 0.0615 0.26173 0.0
H2434 H 0.87437 0.13945 0.2516 0.0
H2435 H 0.80832 0.09707 0.26415 0.0
H2436 H 0.79353 0.17295 0.29268 0.0
H2437 H 0.80971 0.13565 0.29057 0.0
H2438 H 0.84412 0.15549 0.22665 0.0
H2439 H 0.8283 0.19237 0.22874 0.0
C2440 C 0.87461 0.10229 0.25231 0.0
C2441 C 0.86168 0.08 0.25504 0.0
C2442 C 0.86381 0.12253 0.25369 0.0
C2443 C 0.8398 0.12106 0.25794 0.0
C2444 C 0.82687 0.0988 0.261 0.0
C2445 C 0.83769 0.07844 0.25944 0.0
C2446 C 0.80441 0.16921 0.2781 0.0
C2447 C 0.80978 0.18577 0.26104 0.0
C2448 C 0.81361 0.14784 0.27685 0.0
C2449 C 0.82845 0.14276 0.25861 0.0
C2450 C 0.83315 0.15905 0.2412 0.0
C2451 C 0.82395 0.1802 0.24238 0.0
H2452 H 0.71467 0.08981 0.98862 0.0
H2453 H 0.71712 0.09444 0.06743 0.0
H2454 H 0.6733 0.07154 0.98579 0.0
H2455 H 0.6754 0.07592 0.06446 0.0
H2456 H 0.60212 0.02381 0.0398 0.0
H2457 H 0.64523 0.03653 0.04586 0.0
H2458 H 0.6387 0.09268 0.99923 0.0
H2459 H 0.59612 0.0804 0.99338 0.0
C2460 C 0.7065 0.08654 0.00535 0.0
C2461 C 0.71903 0.09384 0.02825 0.0
C2462 C 0.68281 0.07614 0.0037 0.0
C2463 C 0.67117 0.07267 0.0249 0.0
C2464 C 0.68405 0.07842 0.04786 0.0
C2465 C 0.70785 0.08903 0.04953 0.0
C2466 C 0.60994 0.03896 0.03101 0.0
C2467 C 0.59574 0.05103 0.01601 0.0
C2468 C 0.63452 0.04621 0.03451 0.0
C2469 C 0.6452 0.06534 0.02272 0.0
C2470 C 0.63091 0.07763 0.00821 0.0
C2471 C 0.60649 0.07065 0.00499 0.0
H2472 H 0.2143 0.46891 0.29021 0.0
H2473 H 0.1505 0.41819 0.27134 0.0
H2474 H 0.23755 0.4363 0.29165 0.0
H2475 H 0.17364 0.386 0.27265 0.0
H2476 H 0.2246 0.34285 0.23857 0.0
H2477 H 0.20592 0.3779 0.24254 0.0
H2478 H 0.23982 0.39552 0.31569 0.0
H2479 H 0.25867 0.35968 0.31195 0.0
C2480 C 0.20524 0.45085 0.28665 0.0
C2481 C 0.18063 0.44608 0.28038 0.0
C2482 C 0.21851 0.43228 0.28761 0.0
C2483 C 0.20734 0.40877 0.28207 0.0
C2484 C 0.18266 0.40404 0.27678 0.0
C2485 C 0.16944 0.42247 0.27603 0.0
C2486 C 0.22831 0.35415 0.25553 0.0
C2487 C 0.24285 0.34826 0.27512 0.0
C2488 C 0.21755 0.37423 0.25776 0.0
C2489 C 0.22115 0.3891 0.27953 0.0
C2490 C 0.23676 0.38417 0.29874 0.0
C2491 C 0.2475 0.36375 0.29659 0.0
H2492 H 0.22456 0.46079 0.04717 0.0
H2493 H 0.18574 0.39133 0.02322 0.0
H2494 H 0.18781 0.47759 0.04243 0.0
H2495 H 0.14921 0.40807 0.0184 0.0
H2496 H 0.08657 0.44071 0.04401 0.0
H2497 H 0.12387 0.42565 0.04647 0.0
H2498 H 0.15603 0.4848 0.01029 0.0
H2499 H 0.11824 0.50017 0.00785 0.0
C2500 C 0.2082 0.44913 0.04088 0.0
C2501 C 0.20802 0.4247 0.03576 0.0
C2502 C 0.18721 0.45878 0.03798 0.0
C2503 C 0.16558 0.44416 0.03011 0.0
C2504 C 0.16552 0.41978 0.02477 0.0
C2505 C 0.18647 0.41019 0.02749 0.0
C2506 C 0.1015 0.4506 0.03649 0.0
C2507 C 0.09935 0.47168 0.02568 0.0
C2508 C 0.12291 0.44183 0.0378 0.0
C2509 C 0.14291 0.45392 0.02846 0.0
C2510 C 0.14094 0.47513 0.01775 0.0
C2511 C 0.11929 0.48386 0.01623 0.0
H2512 H 0.85053 0.94439 0.21556 0.0
H2513 H 0.84466 0.96242 0.29214 0.0
H2514 H 0.82746 0.90524 0.21834 0.0
H2515 H 0.82174 0.92348 0.29487 0.0
H2516 H 0.81546 0.84236 0.29622 0.0
H2517 H 0.83312 0.88297 0.29225 0.0
H2518 H 0.78651 0.884 0.22707 0.0
H2519 H 0.76855 0.84297 0.23111 0.0
C2520 C 0.8441 0.9401 0.23289 0.0
C2521 C 0.84957 0.95643 0.25367 0.0
C2522 C 0.8308 0.91775 0.23445 0.0
C2523 C 0.82292 0.91124 0.25686 0.0
C2524 C 0.82778 0.92788 0.27741 0.0
C2525 C 0.84086 0.95022 0.27581 0.0
C2526 C 0.8088 0.85123 0.28109 0.0
C2527 C 0.7906 0.83942 0.26395 0.0
C2528 C 0.81886 0.87458 0.27891 0.0
C2529 C 0.81119 0.88671 0.25938 0.0
C2530 C 0.79285 0.87503 0.24226 0.0
C2531 C 0.78248 0.85164 0.24465 0.0
H2532 H 0.69044 0.07399 0.73569 0.0
H2533 H 0.69845 0.07047 0.81387 0.0
H2534 H 0.70945 0.11548 0.74118 0.0
H2535 H 0.71744 0.11165 0.81926 0.0
H2536 H 0.71378 0.19082 0.81981 0.0
H2537 H 0.70006 0.14851 0.81279 0.0
H2538 H 0.7482 0.14316 0.75692 0.0
H2539 H 0.7621 0.18591 0.76392 0.0
C2540 C 0.6966 0.08196 0.75396 0.0
C2541 C 0.69274 0.06912 0.77437 0.0
C2542 C 0.70753 0.10563 0.75709 0.0
C2543 C 0.71462 0.11679 0.78066 0.0
C2544 C 0.71179 0.10356 0.80091 0.0
C2545 C 0.701 0.07997 0.7978 0.0
C2546 C 0.7215 0.18071 0.80602 0.0
C2547 C 0.73906 0.1917 0.79245 0.0
C2548 C 0.71374 0.15643 0.80213 0.0
C2549 C 0.72324 0.14255 0.78448 0.0
C2550 C 0.7406 0.1535 0.77062 0.0
C2551 C 0.74858 0.17789 0.7747 0.0
loop_
_geom_bond_atom_site_label_1
_geom_bond_atom_site_label_2
_geom_bond_distance
_geom_bond_site_symmetry_2
_ccdc_geom_bond_type
In0 O1 2.294 . S
In0 O2 2.326 . S
In0 O6 2.264 . S
In0 O7 2.326 1_455 S
In0 O8 2.266 . S
In0 O9 2.326 . S
In0 O11 2.294 . S
In0 O12 2.326 . S
O1 In0 2.294 . S
O1 C10 1.240 . S
O2 In0 2.326 . S
O2 C10 1.252 . S
C3 O6 1.255 1_655 S
C3 O7 1.260 . S
C4 O11 1.240 . S
C4 O12 1.252 . S
C5 O8 1.252 . S
C5 O9 1.260 . S
O6 In0 2.264 . S
O6 C3 1.255 1_455 S
O7 In0 2.326 1_655 S
O7 C3 1.260 . S
O8 In0 2.266 . S
O8 C5 1.252 . S
O9 In0 2.326 . S
O9 C5 1.260 . S
C10 O1 1.240 . S
C10 O2 1.252 . S
O11 In0 2.294 . S
O11 C4 1.240 . S
O12 In0 2.326 . S
O12 C4 1.252 . S
In13 O14 2.294 . S
In13 O15 2.326 . S
In13 O19 2.266 . S
In13 O20 2.326 . S
In13 O21 2.266 1_455 S
In13 O22 2.326 1_455 S
In13 O24 2.294 . S
In13 O25 2.326 . S
O14 In13 2.294 . S
O14 C23 1.240 . S
O15 In13 2.326 . S
O15 C23 1.252 . S
C16 O19 1.252 . S
C16 O20 1.260 . S
C17 O24 1.240 . S
C17 O25 1.252 . S
C18 O21 1.252 . S
C18 O22 1.260 . S
O19 In13 2.266 . S
O19 C16 1.252 . S
O20 In13 2.326 . S
O20 C16 1.260 . S
O21 In13 2.266 1_655 S
O21 C18 1.252 . S
O22 In13 2.326 1_655 S
O22 C18 1.260 . S
C23 O14 1.240 . S
C23 O15 1.252 . S
O24 In13 2.294 . S
O24 C17 1.240 . S
O25 In13 2.326 . S
O25 C17 1.252 . S
In26 O27 2.294 . S
In26 O28 2.326 . S
In26 O32 2.266 . S
In26 O33 2.326 . S
In26 O34 2.266 . S
In26 O35 2.326 . S
In26 O37 2.294 . S
In26 O38 2.326 . S
O27 In26 2.294 . S
O27 C36 1.240 . S
O28 In26 2.326 . S
O28 C36 1.252 . S
C29 O32 1.252 . S
C29 O33 1.260 . S
C30 O37 1.240 . S
C30 O38 1.252 . S
C31 O34 1.252 . S
C31 O35 1.260 . S
O32 In26 2.266 . S
O32 C29 1.252 . S
O33 In26 2.326 . S
O33 C29 1.260 . S
O34 In26 2.266 . S
O34 C31 1.252 . S
O35 In26 2.326 . S
O35 C31 1.260 . S
C36 O27 1.240 . S
C36 O28 1.252 . S
O37 In26 2.294 . S
O37 C30 1.240 . S
O38 In26 2.326 . S
O38 C30 1.252 . S
In39 O40 2.294 . S
In39 O41 2.326 . S
In39 O45 2.266 . S
In39 O46 2.326 . S
In39 O47 2.266 . S
In39 O48 2.326 . S
In39 O50 2.294 . S
In39 O51 2.326 . S
O40 In39 2.294 . S
O40 C49 1.240 . S
O41 In39 2.326 . S
O41 C49 1.252 . S
C42 O45 1.252 . S
C42 O46 1.260 . S
C43 O50 1.240 . S
C43 O51 1.252 . S
C44 O47 1.252 . S
C44 O48 1.260 . S
O45 In39 2.266 . S
O45 C42 1.252 . S
O46 In39 2.326 . S
O46 C42 1.260 . S
O47 In39 2.266 . S
O47 C44 1.252 . S
O48 In39 2.326 . S
O48 C44 1.260 . S
C49 O40 1.240 . S
C49 O41 1.252 . S
O50 In39 2.294 . S
O50 C43 1.240 . S
O51 In39 2.326 . S
O51 C43 1.252 . S
In52 O53 2.294 . S
In52 O54 2.326 . S
In52 O58 2.266 . S
In52 O59 2.326 . S
In52 O60 2.266 . S
In52 O61 2.326 . S
In52 O63 2.294 . S
In52 O64 2.326 1_455 S
O53 In52 2.294 . S
O53 C62 1.240 . S
O54 In52 2.326 . S
O54 C62 1.252 . S
C55 O58 1.252 . S
C55 O59 1.260 . S
C56 O63 1.240 1_655 S
C56 O64 1.252 . S
C57 O60 1.252 . S
C57 O61 1.260 . S
O58 In52 2.266 . S
O58 C55 1.252 . S
O59 In52 2.326 . S
O59 C55 1.260 . S
O60 In52 2.266 . S
O60 C57 1.252 . S
O61 In52 2.326 . S
O61 C57 1.260 . S
C62 O53 1.240 . S
C62 O54 1.252 . S
O63 In52 2.294 . S
O63 C56 1.240 1_455 S
O64 In52 2.326 1_655 S
O64 C56 1.252 . S
In65 O66 2.294 . S
In65 O67 2.326 . S
In65 O71 2.266 . S
In65 O72 2.326 . S
In65 O73 2.266 . S
In65 O74 2.326 . S
In65 O76 2.294 . S
In65 O77 2.326 . S
O66 In65 2.294 . S
O66 C75 1.240 . S
O67 In65 2.326 . S
O67 C75 1.252 . S
C68 O71 1.252 . S
C68 O72 1.260 . S
C69 O76 1.240 . S
C69 O77 1.252 . S
C70 O73 1.252 . S
C70 O74 1.260 . S
O71 In65 2.266 . S
O71 C68 1.252 . S
O72 In65 2.326 . S
O72 C68 1.260 . S
O73 In65 2.266 . S
O73 C70 1.252 . S
O74 In65 2.326 . S
O74 C70 1.260 . S
C75 O66 1.240 . S
C75 O67 1.252 . S
O76 In65 2.294 . S
O76 C69 1.240 . S
O77 In65 2.326 . S
O77 C69 1.252 . S
In78 O79 2.294 . S
In78 O80 2.326 . S
In78 O84 2.266 . S
In78 O85 2.326 . S
In78 O86 2.266 . S
In78 O87 2.326 . S
In78 O89 2.294 . S
In78 O90 2.326 . S
O79 In78 2.294 . S
O79 C88 1.240 . S
O80 In78 2.326 . S
O80 C88 1.252 . S
C81 O84 1.252 . S
C81 O85 1.260 . S
C82 O89 1.240 . S
C82 O90 1.252 . S
C83 O86 1.252 . S
C83 O87 1.260 . S
O84 In78 2.266 . S
O84 C81 1.252 . S
O85 In78 2.326 . S
O85 C81 1.260 . S
O86 In78 2.266 . S
O86 C83 1.252 . S
O87 In78 2.326 . S
O87 C83 1.260 . S
C88 O79 1.240 . S
C88 O80 1.252 . S
O89 In78 2.294 . S
O89 C82 1.240 . S
O90 In78 2.326 . S
O90 C82 1.252 . S
In91 O92 2.294 . S
In91 O93 2.326 . S
In91 O97 2.266 . S
In91 O98 2.326 . S
In91 O99 2.266 1_455 S
In91 O100 2.326 1_455 S
In91 O102 2.294 . S
In91 O103 2.326 . S
O92 In91 2.294 . S
O92 C101 1.240 . S
O93 In91 2.326 . S
O93 C101 1.252 . S
C94 O97 1.252 . S
C94 O98 1.260 . S
C95 O102 1.240 . S
C95 O103 1.252 . S
C96 O99 1.252 . S
C96 O100 1.260 . S
O97 In91 2.266 . S
O97 C94 1.252 . S
O98 In91 2.326 . S
O98 C94 1.260 . S
O99 In91 2.266 1_655 S
O99 C96 1.252 . S
O100 In91 2.326 1_655 S
O100 C96 1.260 . S
C101 O92 1.240 . S
C101 O93 1.252 . S
O102 In91 2.294 . S
O102 C95 1.240 . S
O103 In91 2.326 . S
O103 C95 1.252 . S
In104 O105 2.294 . S
In104 O106 2.326 . S
In104 O110 2.266 . S
In104 O111 2.326 . S
In104 O112 2.266 1_545 S
In104 O113 2.326 1_545 S
In104 O115 2.294 . S
In104 O116 2.326 . S
O105 In104 2.294 . S
O105 C114 1.240 . S
O106 In104 2.326 . S
O106 C114 1.252 . S
C107 O110 1.252 . S
C107 O111 1.260 . S
C108 O115 1.240 . S
C108 O116 1.252 . S
C109 O112 1.252 . S
C109 O113 1.260 . S
O110 In104 2.266 . S
O110 C107 1.252 . S
O111 In104 2.326 . S
O111 C107 1.260 . S
O112 In104 2.266 1_565 S
O112 C109 1.252 . S
O113 In104 2.326 1_565 S
O113 C109 1.260 . S
C114 O105 1.240 . S
C114 O106 1.252 . S
O115 In104 2.294 . S
O115 C108 1.240 . S
O116 In104 2.326 . S
O116 C108 1.252 . S
In117 O118 2.294 . S
In117 O119 2.326 . S
In117 O123 2.266 . S
In117 O124 2.326 . S
In117 O125 2.266 . S
In117 O126 2.326 . S
In117 O128 2.294 . S
In117 O129 2.326 . S
O118 In117 2.294 . S
O118 C127 1.240 . S
O119 In117 2.326 . S
O119 C127 1.252 . S
C120 O123 1.252 . S
C120 O124 1.260 . S
C121 O128 1.240 . S
C121 O129 1.252 . S
C122 O125 1.252 . S
C122 O126 1.260 . S
O123 In117 2.266 . S
O123 C120 1.252 . S
O124 In117 2.326 . S
O124 C120 1.260 . S
O125 In117 2.266 . S
O125 C122 1.252 . S
O126 In117 2.326 . S
O126 C122 1.260 . S
C127 O118 1.240 . S
C127 O119 1.252 . S
O128 In117 2.294 . S
O128 C121 1.240 . S
O129 In117 2.326 . S
O129 C121 1.252 . S
In130 O131 2.294 . S
In130 O132 2.326 . S
In130 O136 2.266 . S
In130 O137 2.326 . S
In130 O138 2.266 . S
In130 O139 2.326 . S
In130 O141 2.294 1_545 S
In130 O142 2.326 1_545 S
O131 In130 2.294 . S
O131 C140 1.240 . S
O132 In130 2.326 . S
O132 C140 1.252 . S
C133 O136 1.252 . S
C133 O137 1.260 . S
C134 O141 1.240 . S
C134 O142 1.252 . S
C135 O138 1.252 . S
C135 O139 1.260 . S
O136 In130 2.266 . S
O136 C133 1.252 . S
O137 In130 2.326 . S
O137 C133 1.260 . S
O138 In130 2.266 . S
O138 C135 1.252 . S
O139 In130 2.326 . S
O139 C135 1.260 . S
C140 O131 1.240 . S
C140 O132 1.252 . S
O141 In130 2.294 1_565 S
O141 C134 1.240 . S
O142 In130 2.326 1_565 S
O142 C134 1.252 . S
In143 O144 2.294 . S
In143 O145 2.326 . S
In143 O149 2.266 1_554 S
In143 O150 2.326 1_554 S
In143 O151 2.266 . S
In143 O152 2.326 . S
In143 O154 2.294 . S
In143 O155 2.326 . S
O144 In143 2.294 . S
O144 C153 1.240 . S
O145 In143 2.326 . S
O145 C153 1.252 . S
C146 O149 1.252 . S
C146 O150 1.260 . S
C147 O154 1.240 . S
C147 O155 1.252 . S
C148 O151 1.252 . S
C148 O152 1.260 . S
O149 In143 2.266 1_556 S
O149 C146 1.252 . S
O150 In143 2.326 1_556 S
O150 C146 1.260 . S
O151 In143 2.266 . S
O151 C148 1.252 . S
O152 In143 2.326 . S
O152 C148 1.260 . S
C153 O144 1.240 . S
C153 O145 1.252 . S
O154 In143 2.294 . S
O154 C147 1.240 . S
O155 In143 2.326 . S
O155 C147 1.252 . S
In156 O157 2.294 . S
In156 O158 2.326 . S
In156 O162 2.266 . S
In156 O163 2.326 . S
In156 O164 2.266 . S
In156 O165 2.326 . S
In156 O167 2.294 . S
In156 O168 2.326 . S
O157 In156 2.294 . S
O157 C166 1.240 . S
O158 In156 2.326 . S
O158 C166 1.252 . S
C159 O162 1.252 1_556 S
C159 O163 1.260 1_556 S
C160 O167 1.240 . S
C160 O168 1.252 . S
C161 O164 1.252 . S
C161 O165 1.260 . S
O162 In156 2.266 . S
O162 C159 1.252 1_554 S
O163 In156 2.326 . S
O163 C159 1.260 1_554 S
O164 In156 2.266 . S
O164 C161 1.252 . S
O165 In156 2.326 . S
O165 C161 1.260 . S
C166 O157 1.240 . S
C166 O158 1.252 . S
O167 In156 2.294 . S
O167 C160 1.240 . S
O168 In156 2.326 . S
O168 C160 1.252 . S
In169 O170 2.294 . S
In169 O171 2.326 . S
In169 O175 2.266 . S
In169 O176 2.326 . S
In169 O177 2.266 . S
In169 O178 2.326 1_554 S
In169 O180 2.294 . S
In169 O181 2.326 . S
O170 In169 2.294 . S
O170 C179 1.240 . S
O171 In169 2.326 . S
O171 C179 1.252 . S
C172 O175 1.252 . S
C172 O176 1.260 . S
C173 O180 1.240 . S
C173 O181 1.252 . S
C174 O177 1.252 1_556 S
C174 O178 1.260 . S
O175 In169 2.266 . S
O175 C172 1.252 . S
O176 In169 2.326 . S
O176 C172 1.260 . S
O177 In169 2.266 . S
O177 C174 1.252 1_554 S
O178 In169 2.326 1_556 S
O178 C174 1.260 . S
C179 O170 1.240 . S
C179 O171 1.252 . S
O180 In169 2.294 . S
O180 C173 1.240 . S
O181 In169 2.326 . S
O181 C173 1.252 . S
In182 O183 2.294 . S
In182 O184 2.326 . S
In182 O188 2.266 . S
In182 O189 2.326 . S
In182 O190 2.266 . S
In182 O191 2.326 . S
In182 O193 2.294 . S
In182 O194 2.326 . S
O183 In182 2.294 . S
O183 C192 1.240 . S
O184 In182 2.326 . S
O184 C192 1.252 . S
C185 O188 1.252 . S
C185 O189 1.260 . S
C186 O193 1.240 . S
C186 O194 1.252 . S
C187 O190 1.252 . S
C187 O191 1.260 . S
O188 In182 2.266 . S
O188 C185 1.252 . S
O189 In182 2.326 . S
O189 C185 1.260 . S
O190 In182 2.266 . S
O190 C187 1.252 . S
O191 In182 2.326 . S
O191 C187 1.260 . S
C192 O183 1.240 . S
C192 O184 1.252 . S
O193 In182 2.294 . S
O193 C186 1.240 . S
O194 In182 2.326 . S
O194 C186 1.252 . S
In195 O196 2.294 . S
In195 O197 2.326 . S
In195 O201 2.266 . S
In195 O202 2.326 . S
In195 O203 2.266 . S
In195 O204 2.326 . S
In195 O206 2.294 . S
In195 O207 2.326 . S
O196 In195 2.294 . S
O196 C205 1.240 . S
O197 In195 2.326 . S
O197 C205 1.252 . S
C198 O201 1.252 . S
C198 O202 1.260 . S
C199 O206 1.240 . S
C199 O207 1.252 . S
C200 O203 1.252 . S
C200 O204 1.260 . S
O201 In195 2.266 . S
O201 C198 1.252 . S
O202 In195 2.326 . S
O202 C198 1.260 . S
O203 In195 2.266 . S
O203 C200 1.252 . S
O204 In195 2.326 . S
O204 C200 1.260 . S
C205 O196 1.240 . S
C205 O197 1.252 . S
O206 In195 2.294 . S
O206 C199 1.240 . S
O207 In195 2.326 . S
O207 C199 1.252 . S
In208 O209 2.294 . S
In208 O210 2.326 . S
In208 O214 2.266 . S
In208 O215 2.326 . S
In208 O216 2.266 1_545 S
In208 O217 2.326 1_545 S
In208 O219 2.294 . S
In208 O220 2.326 . S
O209 In208 2.294 . S
O209 C218 1.240 . S
O210 In208 2.326 . S
O210 C218 1.252 . S
C211 O214 1.252 . S
C211 O215 1.260 . S
C212 O219 1.240 . S
C212 O220 1.252 . S
C213 O216 1.252 . S
C213 O217 1.260 . S
O214 In208 2.266 . S
O214 C211 1.252 . S
O215 In208 2.326 . S
O215 C211 1.260 . S
O216 In208 2.266 1_565 S
O216 C213 1.252 . S
O217 In208 2.326 1_565 S
O217 C213 1.260 . S
C218 O209 1.240 . S
C218 O210 1.252 . S
O219 In208 2.294 . S
O219 C212 1.240 . S
O220 In208 2.326 . S
O220 C212 1.252 . S
In221 O222 2.294 . S
In221 O223 2.326 . S
In221 O227 2.266 . S
In221 O228 2.326 . S
In221 O229 2.266 . S
In221 O230 2.326 . S
In221 O232 2.294 . S
In221 O233 2.326 . S
O222 In221 2.294 . S
O222 C231 1.240 . S
O223 In221 2.326 . S
O223 C231 1.252 . S
C224 O227 1.252 . S
C224 O228 1.260 . S
C225 O232 1.240 . S
C225 O233 1.252 . S
C226 O229 1.252 . S
C226 O230 1.260 . S
O227 In221 2.266 . S
O227 C224 1.252 . S
O228 In221 2.326 . S
O228 C224 1.260 . S
O229 In221 2.266 . S
O229 C226 1.252 . S
O230 In221 2.326 . S
O230 C226 1.260 . S
C231 O222 1.240 . S
C231 O223 1.252 . S
O232 In221 2.294 . S
O232 C225 1.240 . S
O233 In221 2.326 . S
O233 C225 1.252 . S
In234 O235 2.294 . S
In234 O236 2.326 . S
In234 O240 2.266 . S
In234 O241 2.326 . S
In234 O242 2.266 . S
In234 O243 2.326 . S
In234 O245 2.294 . S
In234 O246 2.326 . S
O235 In234 2.294 . S
O235 C244 1.240 . S
O236 In234 2.326 . S
O236 C244 1.252 . S
C237 O240 1.252 . S
C237 O241 1.260 . S
C238 O245 1.240 . S
C238 O246 1.252 . S
C239 O242 1.252 . S
C239 O243 1.260 . S
O240 In234 2.266 . S
O240 C237 1.252 . S
O241 In234 2.326 . S
O241 C237 1.260 . S
O242 In234 2.266 . S
O242 C239 1.252 . S
O243 In234 2.326 . S
O243 C239 1.260 . S
C244 O235 1.240 . S
C244 O236 1.252 . S
O245 In234 2.294 . S
O245 C238 1.240 . S
O246 In234 2.326 . S
O246 C238 1.252 . S
In247 O248 2.294 1_545 S
In247 O249 2.326 1_545 S
In247 O253 2.266 . S
In247 O254 2.326 . S
In247 O255 2.266 . S
In247 O256 2.326 . S
In247 O258 2.294 1_545 S
In247 O259 2.327 . S
O248 In247 2.294 1_565 S
O248 C257 1.240 . S
O249 In247 2.326 1_565 S
O249 C257 1.252 . S
C250 O253 1.252 . S
C250 O254 1.260 . S
C251 O258 1.240 . S
C251 O259 1.252 1_565 S
C252 O255 1.252 . S
C252 O256 1.260 . S
O253 In247 2.266 . S
O253 C250 1.252 . S
O254 In247 2.326 . S
O254 C250 1.260 . S
O255 In247 2.266 . S
O255 C252 1.252 . S
O256 In247 2.326 . S
O256 C252 1.260 . S
C257 O248 1.240 . S
C257 O249 1.252 . S
O258 In247 2.294 1_565 S
O258 C251 1.240 . S
O259 In247 2.327 . S
O259 C251 1.252 1_545 S
In260 O261 2.294 . S
In260 O262 2.326 . S
In260 O266 2.266 1_554 S
In260 O267 2.325 1_554 S
In260 O268 2.264 1_554 S
In260 O269 2.322 1_554 S
In260 O271 2.296 . S
In260 O272 2.330 . S
O261 In260 2.294 . S
O261 C270 1.240 . S
O262 In260 2.326 . S
O262 C270 1.252 . S
C263 O266 1.252 . S
C263 O267 1.260 . S
C264 O271 1.240 . S
C264 O272 1.252 . S
C265 O268 1.252 . S
C265 O269 1.260 . S
O266 In260 2.266 1_556 S
O266 C263 1.252 . S
O267 In260 2.325 1_556 S
O267 C263 1.260 . S
O268 In260 2.264 1_556 S
O268 C265 1.252 . S
O269 In260 2.322 1_556 S
O269 C265 1.260 . S
C270 O261 1.240 . S
C270 O262 1.252 . S
O271 In260 2.296 . S
O271 C264 1.240 . S
O272 In260 2.330 . S
O272 C264 1.252 . S
In273 O274 2.294 . S
In273 O275 2.326 . S
In273 O279 2.266 . S
In273 O280 2.326 . S
In273 O281 2.266 . S
In273 O282 2.326 . S
In273 O284 2.294 . S
In273 O285 2.326 . S
O274 In273 2.294 . S
O274 C283 1.240 . S
O275 In273 2.326 . S
O275 C283 1.252 . S
C276 O279 1.252 . S
C276 O280 1.260 . S
C277 O284 1.240 . S
C277 O285 1.252 . S
C278 O281 1.252 . S
C278 O282 1.260 . S
O279 In273 2.266 . S
O279 C276 1.252 . S
O280 In273 2.326 . S
O280 C276 1.260 . S
O281 In273 2.266 . S
O281 C278 1.252 . S
O282 In273 2.326 . S
O282 C278 1.260 . S
C283 O274 1.240 . S
C283 O275 1.252 . S
O284 In273 2.294 . S
O284 C277 1.240 . S
O285 In273 2.326 . S
O285 C277 1.252 . S
In286 O287 2.294 . S
In286 O288 2.326 . S
In286 O292 2.266 . S
In286 O293 2.326 . S
In286 O294 2.266 . S
In286 O295 2.326 . S
In286 O297 2.294 . S
In286 O298 2.326 . S
O287 In286 2.294 . S
O287 C296 1.240 . S
O288 In286 2.326 . S
O288 C296 1.252 . S
C289 O292 1.252 . S
C289 O293 1.260 . S
C290 O297 1.240 . S
C290 O298 1.252 . S
C291 O294 1.252 . S
C291 O295 1.260 . S
O292 In286 2.266 . S
O292 C289 1.252 . S
O293 In286 2.326 . S
O293 C289 1.260 . S
O294 In286 2.266 . S
O294 C291 1.252 . S
O295 In286 2.326 . S
O295 C291 1.260 . S
C296 O287 1.240 . S
C296 O288 1.252 . S
O297 In286 2.294 . S
O297 C290 1.240 . S
O298 In286 2.326 . S
O298 C290 1.252 . S
In299 O300 2.294 . S
In299 O301 2.326 . S
In299 O305 2.266 . S
In299 O306 2.326 . S
In299 O307 2.266 . S
In299 O308 2.326 . S
In299 O310 2.294 . S
In299 O311 2.326 . S
O300 In299 2.294 . S
O300 C309 1.240 . S
O301 In299 2.326 . S
O301 C309 1.252 . S
C302 O305 1.252 . S
C302 O306 1.260 . S
C303 O310 1.240 . S
C303 O311 1.252 . S
C304 O307 1.252 . S
C304 O308 1.260 . S
O305 In299 2.266 . S
O305 C302 1.252 . S
O306 In299 2.326 . S
O306 C302 1.260 . S
O307 In299 2.266 . S
O307 C304 1.252 . S
O308 In299 2.326 . S
O308 C304 1.260 . S
C309 O300 1.240 . S
C309 O301 1.252 . S
O310 In299 2.294 . S
O310 C303 1.240 . S
O311 In299 2.326 . S
O311 C303 1.252 . S
Zn312 O318 1.969 . S
Zn312 O319 1.965 . S
Zn312 O323 2.024 1_545 S
Zn312 O328 1.969 . S
Zn313 O320 1.990 . S
Zn313 O326 1.969 1_455 S
Zn313 O327 1.965 . S
Zn313 O329 2.024 . S
C314 O315 1.229 . S
C314 O323 1.058 . S
O315 C314 1.229 . S
C316 O317 1.229 . S
C316 O329 1.058 . S
O317 C316 1.229 . S
O318 Zn312 1.969 . S
O318 C321 1.267 . S
O319 Zn312 1.965 . S
O319 C330 1.260 . S
O320 Zn313 1.990 . S
O320 C330 1.261 . S
C321 O318 1.267 . S
C321 O322 1.228 1_545 S
O322 C321 1.228 1_565 S
O323 Zn312 2.024 1_565 S
O323 C314 1.058 . S
C324 O325 1.228 . S
C324 O326 1.267 . S
O325 C324 1.228 . S
O326 Zn313 1.969 1_655 S
O326 C324 1.267 . S
O327 Zn313 1.965 . S
O327 C331 1.260 . S
O328 Zn312 1.969 . S
O328 C331 1.258 . S
O329 Zn313 2.024 . S
O329 C316 1.058 . S
C330 O319 1.260 . S
C330 O320 1.261 . S
C331 O327 1.260 . S
C331 O328 1.258 . S
Zn332 O338 1.969 . S
Zn332 O339 1.965 . S
Zn332 O343 2.024 . S
Zn332 O348 1.969 . S
Zn333 O340 1.969 . S
Zn333 O346 1.969 . S
Zn333 O347 1.965 . S
Zn333 O349 2.024 . S
C334 O335 1.229 . S
C334 O343 1.058 . S
O335 C334 1.229 . S
C336 O337 1.229 . S
C336 O349 1.058 . S
O337 C336 1.229 . S
O338 Zn332 1.969 . S
O338 C341 1.267 . S
O339 Zn332 1.965 . S
O339 C350 1.260 . S
O340 Zn333 1.969 . S
O340 C350 1.258 . S
C341 O338 1.267 . S
C341 O342 1.228 . S
O342 C341 1.228 . S
O343 Zn332 2.024 . S
O343 C334 1.058 . S
C344 O345 1.228 . S
C344 O346 1.267 . S
O345 C344 1.228 . S
O346 Zn333 1.969 . S
O346 C344 1.267 . S
O347 Zn333 1.965 . S
O347 C351 1.260 . S
O348 Zn332 1.969 . S
O348 C351 1.258 . S
O349 Zn333 2.024 . S
O349 C336 1.058 . S
C350 O339 1.260 . S
C350 O340 1.258 . S
C351 O347 1.260 . S
C351 O348 1.258 . S
Zn352 O358 1.969 . S
Zn352 O359 1.965 . S
Zn352 O363 2.024 . S
Zn352 O368 1.969 . S
Zn353 O360 1.969 . S
Zn353 O366 1.969 . S
Zn353 O367 1.960 1_565 S
Zn353 O369 2.024 . S
C354 O355 1.229 . S
C354 O363 1.058 . S
O355 C354 1.229 . S
C356 O357 1.229 . S
C356 O369 1.058 . S
O357 C356 1.229 . S
O358 Zn352 1.969 . S
O358 C361 1.267 . S
O359 Zn352 1.965 . S
O359 C370 1.260 . S
O360 Zn353 1.969 . S
O360 C370 1.258 1_565 S
C361 O358 1.267 . S
C361 O362 1.228 . S
O362 C361 1.228 . S
O363 Zn352 2.024 . S
O363 C354 1.058 . S
C364 O365 1.228 . S
C364 O366 1.267 . S
O365 C364 1.228 . S
O366 Zn353 1.969 . S
O366 C364 1.267 . S
O367 Zn353 1.960 1_545 S
O367 C371 1.261 . S
O368 Zn352 1.969 . S
O368 C371 1.258 . S
O369 Zn353 2.024 . S
O369 C356 1.058 . S
C370 O359 1.260 . S
C370 O360 1.258 1_545 S
C371 O367 1.261 . S
C371 O368 1.258 . S
Zn372 O378 1.969 . S
Zn372 O379 1.965 . S
Zn372 O383 2.024 . S
Zn372 O388 1.969 . S
Zn373 O380 1.969 . S
Zn373 O386 1.969 . S
Zn373 O387 1.965 . S
Zn373 O389 2.024 . S
C374 O375 1.229 . S
C374 O383 1.058 . S
O375 C374 1.229 . S
C376 O377 1.229 . S
C376 O389 1.058 . S
O377 C376 1.229 . S
O378 Zn372 1.969 . S
O378 C381 1.267 . S
O379 Zn372 1.965 . S
O379 C390 1.260 . S
O380 Zn373 1.969 . S
O380 C390 1.258 . S
C381 O378 1.267 . S
C381 O382 1.228 . S
O382 C381 1.228 . S
O383 Zn372 2.024 . S
O383 C374 1.058 . S
C384 O385 1.228 . S
C384 O386 1.267 . S
O385 C384 1.228 . S
O386 Zn373 1.969 . S
O386 C384 1.267 . S
O387 Zn373 1.965 . S
O387 C391 1.260 . S
O388 Zn372 1.969 . S
O388 C391 1.258 . S
O389 Zn373 2.024 . S
O389 C376 1.058 . S
C390 O379 1.260 . S
C390 O380 1.258 . S
C391 O387 1.260 . S
C391 O388 1.258 . S
Zn392 O398 1.969 . S
Zn392 O399 1.965 . S
Zn392 O403 2.024 1_565 S
Zn392 O408 1.969 1_565 S
Zn393 O400 1.969 1_455 S
Zn393 O406 1.969 . S
Zn393 O407 1.965 . S
Zn393 O409 2.024 . S
C394 O395 1.229 1_545 S
C394 O403 1.058 . S
O395 C394 1.229 1_565 S
C396 O397 1.229 1_455 S
C396 O409 1.058 . S
O397 C396 1.229 1_655 S
O398 Zn392 1.969 . S
O398 C401 1.267 . S
O399 Zn392 1.965 . S
O399 C410 1.260 1_455 S
O400 Zn393 1.969 1_655 S
O400 C410 1.258 1_545 S
C401 O398 1.267 . S
C401 O402 1.228 . S
O402 C401 1.228 . S
O403 Zn392 2.024 1_545 S
O403 C394 1.058 . S
C404 O405 1.228 . S
C404 O406 1.267 . S
O405 C404 1.228 . S
O406 Zn393 1.969 . S
O406 C404 1.267 . S
O407 Zn393 1.965 . S
O407 C411 1.260 . S
O408 Zn392 1.969 1_545 S
O408 C411 1.258 . S
O409 Zn393 2.024 . S
O409 C396 1.058 . S
C410 O399 1.260 1_655 S
C410 O400 1.258 1_565 S
C411 O407 1.260 . S
C411 O408 1.258 . S
Zn412 O418 1.969 . S
Zn412 O419 1.965 . S
Zn412 O423 2.024 . S
Zn412 O428 1.969 . S
Zn413 O420 1.969 . S
Zn413 O426 1.969 . S
Zn413 O427 1.965 . S
Zn413 O429 2.024 . S
C414 O415 1.229 . S
C414 O423 1.058 . S
O415 C414 1.229 . S
C416 O417 1.229 . S
C416 O429 1.058 . S
O417 C416 1.229 . S
O418 Zn412 1.969 . S
O418 C421 1.267 . S
O419 Zn412 1.965 . S
O419 C430 1.260 . S
O420 Zn413 1.969 . S
O420 C430 1.258 . S
C421 O418 1.267 . S
C421 O422 1.228 . S
O422 C421 1.228 . S
O423 Zn412 2.024 . S
O423 C414 1.058 . S
C424 O425 1.228 . S
C424 O426 1.267 . S
O425 C424 1.228 . S
O426 Zn413 1.969 . S
O426 C424 1.267 . S
O427 Zn413 1.965 . S
O427 C431 1.260 . S
O428 Zn412 1.969 . S
O428 C431 1.258 . S
O429 Zn413 2.024 . S
O429 C416 1.058 . S
C430 O419 1.260 . S
C430 O420 1.258 . S
C431 O427 1.260 . S
C431 O428 1.258 . S
Zn432 O438 1.969 . S
Zn432 O439 1.965 . S
Zn432 O443 2.024 1_556 S
Zn432 O448 1.969 1_556 S
Zn433 O440 1.969 1_545 S
Zn433 O446 1.969 . S
Zn433 O447 1.965 . S
Zn433 O449 2.024 . S
C434 O435 1.229 1_554 S
C434 O443 1.058 . S
O435 C434 1.229 1_556 S
C436 O437 1.238 . S
C436 O449 1.051 1_565 S
O437 C436 1.238 . S
O438 Zn432 1.969 . S
O438 C441 1.267 . S
O439 Zn432 1.965 . S
O439 C450 1.260 1_545 S
O440 Zn433 1.969 1_565 S
O440 C450 1.258 1_554 S
C441 O438 1.267 . S
C441 O442 1.228 . S
O442 C441 1.228 . S
O443 Zn432 2.024 1_554 S
O443 C434 1.058 . S
C444 O445 1.228 . S
C444 O446 1.267 . S
O445 C444 1.228 . S
O446 Zn433 1.969 . S
O446 C444 1.267 . S
O447 Zn433 1.965 . S
O447 C451 1.260 . S
O448 Zn432 1.969 1_554 S
O448 C451 1.258 . S
O449 Zn433 2.024 . S
O449 C436 1.051 1_545 S
C450 O439 1.260 1_565 S
C450 O440 1.258 1_556 S
C451 O447 1.260 . S
C451 O448 1.258 . S
Zn452 O458 1.969 . S
Zn452 O459 1.965 . S
Zn452 O463 2.024 . S
Zn452 O468 1.969 . S
Zn453 O460 1.969 . S
Zn453 O466 1.969 . S
Zn453 O467 1.965 . S
Zn453 O469 2.024 . S
C454 O455 1.229 . S
C454 O463 1.058 . S
O455 C454 1.229 . S
C456 O457 1.229 . S
C456 O469 1.058 . S
O457 C456 1.229 . S
O458 Zn452 1.969 . S
O458 C461 1.267 . S
O459 Zn452 1.965 . S
O459 C470 1.260 . S
O460 Zn453 1.969 . S
O460 C470 1.258 . S
C461 O458 1.267 . S
C461 O462 1.228 . S
O462 C461 1.228 . S
O463 Zn452 2.024 . S
O463 C454 1.058 . S
C464 O465 1.228 . S
C464 O466 1.267 . S
O465 C464 1.228 . S
O466 Zn453 1.969 . S
O466 C464 1.267 . S
O467 Zn453 1.965 . S
O467 C471 1.260 . S
O468 Zn452 1.969 . S
O468 C471 1.258 . S
O469 Zn453 2.024 . S
O469 C456 1.058 . S
C470 O459 1.260 . S
C470 O460 1.258 . S
C471 O467 1.260 . S
C471 O468 1.258 . S
Zn472 O478 1.969 . S
Zn472 O479 1.965 . S
Zn472 O483 2.024 . S
Zn472 O488 1.969 . S
Zn473 O480 1.969 1_556 S
Zn473 O486 1.969 . S
Zn473 O487 1.965 1_556 S
Zn473 O489 2.024 . S
C474 O475 1.229 . S
C474 O483 1.058 . S
O475 C474 1.229 . S
C476 O477 1.229 . S
C476 O489 1.058 . S
O477 C476 1.229 . S
O478 Zn472 1.969 . S
O478 C481 1.267 . S
O479 Zn472 1.965 . S
O479 C490 1.260 . S
O480 Zn473 1.969 1_554 S
O480 C490 1.258 . S
C481 O478 1.267 . S
C481 O482 1.228 . S
O482 C481 1.228 . S
O483 Zn472 2.024 . S
O483 C474 1.058 . S
C484 O485 1.228 . S
C484 O486 1.267 . S
O485 C484 1.228 . S
O486 Zn473 1.969 . S
O486 C484 1.267 . S
O487 Zn473 1.965 1_554 S
O487 C491 1.260 . S
O488 Zn472 1.969 . S
O488 C491 1.258 . S
O489 Zn473 2.024 . S
O489 C476 1.058 . S
C490 O479 1.260 . S
C490 O480 1.258 . S
C491 O487 1.260 . S
C491 O488 1.258 . S
Zn492 O498 1.969 . S
Zn492 O499 1.965 . S
Zn492 O503 2.024 . S
Zn492 O508 1.969 . S
Zn493 O500 1.969 . S
Zn493 O506 1.969 . S
Zn493 O507 1.965 . S
Zn493 O509 2.024 . S
C494 O495 1.229 . S
C494 O503 1.058 . S
O495 C494 1.229 . S
C496 O497 1.229 . S
C496 O509 1.058 . S
O497 C496 1.229 . S
O498 Zn492 1.969 . S
O498 C501 1.267 . S
O499 Zn492 1.965 . S
O499 C510 1.260 . S
O500 Zn493 1.969 . S
O500 C510 1.258 . S
C501 O498 1.267 . S
C501 O502 1.228 . S
O502 C501 1.228 . S
O503 Zn492 2.024 . S
O503 C494 1.058 . S
C504 O505 1.228 . S
C504 O506 1.267 . S
O505 C504 1.228 . S
O506 Zn493 1.969 . S
O506 C504 1.267 . S
O507 Zn493 1.965 . S
O507 C511 1.260 . S
O508 Zn492 1.969 . S
O508 C511 1.258 . S
O509 Zn493 2.024 . S
O509 C496 1.058 . S
C510 O499 1.260 . S
C510 O500 1.258 . S
C511 O507 1.260 . S
C511 O508 1.258 . S
Zn512 O518 1.969 . S
Zn512 O519 1.965 . S
Zn512 O523 2.024 . S
Zn512 O528 1.969 . S
Zn513 O520 1.969 . S
Zn513 O526 1.969 . S
Zn513 O527 1.965 1_655 S
Zn513 O529 2.024 . S
C514 O515 1.229 . S
C514 O523 1.058 . S
O515 C514 1.229 . S
C516 O517 1.229 . S
C516 O529 1.058 . S
O517 C516 1.229 . S
O518 Zn512 1.969 . S
O518 C521 1.267 . S
O519 Zn512 1.965 . S
O519 C530 1.260 . S
O520 Zn513 1.969 . S
O520 C530 1.258 1_655 S
C521 O518 1.267 . S
C521 O522 1.228 . S
O522 C521 1.228 . S
O523 Zn512 2.024 . S
O523 C514 1.058 . S
C524 O525 1.228 . S
C524 O526 1.267 . S
O525 C524 1.228 . S
O526 Zn513 1.969 . S
O526 C524 1.267 . S
O527 Zn513 1.965 1_455 S
O527 C531 1.260 . S
O528 Zn512 1.969 . S
O528 C531 1.258 . S
O529 Zn513 2.024 . S
O529 C516 1.058 . S
C530 O519 1.260 . S
C530 O520 1.258 1_455 S
C531 O527 1.260 . S
C531 O528 1.258 . S
Zn532 O538 1.969 . S
Zn532 O539 1.965 . S
Zn532 O543 2.024 . S
Zn532 O548 1.969 . S
Zn533 O540 1.969 . S
Zn533 O546 1.969 . S
Zn533 O547 1.965 . S
Zn533 O549 2.024 . S
C534 O535 1.229 . S
C534 O543 1.058 . S
O535 C534 1.229 . S
C536 O537 1.229 . S
C536 O549 1.058 . S
O537 C536 1.229 . S
O538 Zn532 1.969 . S
O538 C541 1.267 . S
O539 Zn532 1.965 . S
O539 C550 1.260 . S
O540 Zn533 1.969 . S
O540 C550 1.258 . S
C541 O538 1.267 . S
C541 O542 1.228 . S
O542 C541 1.228 . S
O543 Zn532 2.024 . S
O543 C534 1.058 . S
C544 O545 1.228 . S
C544 O546 1.267 . S
O545 C544 1.228 . S
O546 Zn533 1.969 . S
O546 C544 1.267 . S
O547 Zn533 1.965 . S
O547 C551 1.260 . S
O548 Zn532 1.969 . S
O548 C551 1.258 . S
O549 Zn533 2.024 . S
O549 C536 1.058 . S
C550 O539 1.260 . S
C550 O540 1.258 . S
C551 O547 1.260 . S
C551 O548 1.258 . S
Zn552 O558 1.969 . S
Zn552 O559 1.965 . S
Zn552 O563 2.024 . S
Zn552 O568 1.969 . S
Zn553 O560 1.969 . S
Zn553 O566 1.969 . S
Zn553 O567 1.965 . S
Zn553 O569 2.024 . S
C554 O555 1.229 . S
C554 O563 1.058 . S
O555 C554 1.229 . S
C556 O557 1.229 . S
C556 O569 1.058 . S
O557 C556 1.229 . S
O558 Zn552 1.969 . S
O558 C561 1.267 . S
O559 Zn552 1.965 . S
O559 C570 1.260 . S
O560 Zn553 1.969 . S
O560 C570 1.258 . S
C561 O558 1.267 . S
C561 O562 1.228 . S
O562 C561 1.228 . S
O563 Zn552 2.024 . S
O563 C554 1.058 . S
C564 O565 1.228 . S
C564 O566 1.267 . S
O565 C564 1.228 . S
O566 Zn553 1.969 . S
O566 C564 1.267 . S
O567 Zn553 1.965 . S
O567 C571 1.260 . S
O568 Zn552 1.969 . S
O568 C571 1.258 . S
O569 Zn553 2.024 . S
O569 C556 1.058 . S
C570 O559 1.260 . S
C570 O560 1.258 . S
C571 O567 1.260 . S
C571 O568 1.258 . S
Zn572 O578 1.969 . S
Zn572 O579 1.965 . S
Zn572 O583 2.024 . S
Zn572 O588 1.969 . S
Zn573 O580 1.969 . S
Zn573 O586 1.969 . S
Zn573 O587 1.965 . S
Zn573 O589 2.024 . S
C574 O575 1.229 . S
C574 O583 1.058 . S
O575 C574 1.229 . S
C576 O577 1.229 . S
C576 O589 1.058 . S
O577 C576 1.229 . S
O578 Zn572 1.969 . S
O578 C581 1.267 . S
O579 Zn572 1.965 . S
O579 C590 1.260 . S
O580 Zn573 1.969 . S
O580 C590 1.258 . S
C581 O578 1.267 . S
C581 O582 1.228 . S
O582 C581 1.228 . S
O583 Zn572 2.024 . S
O583 C574 1.058 . S
C584 O585 1.228 . S
C584 O586 1.267 . S
O585 C584 1.228 . S
O586 Zn573 1.969 . S
O586 C584 1.267 . S
O587 Zn573 1.965 . S
O587 C591 1.260 . S
O588 Zn572 1.969 . S
O588 C591 1.258 . S
O589 Zn573 2.024 . S
O589 C576 1.058 . S
C590 O579 1.260 . S
C590 O580 1.258 . S
C591 O587 1.260 . S
C591 O588 1.258 . S
Zn592 O598 1.969 . S
Zn592 O599 1.965 . S
Zn592 O603 2.024 . S
Zn592 O608 1.969 . S
Zn593 O600 1.969 . S
Zn593 O606 1.969 . S
Zn593 O607 1.965 . S
Zn593 O609 2.024 . S
C594 O595 1.229 . S
C594 O603 1.058 . S
O595 C594 1.229 . S
C596 O597 1.229 . S
C596 O609 1.058 . S
O597 C596 1.229 . S
O598 Zn592 1.969 . S
O598 C601 1.267 . S
O599 Zn592 1.965 . S
O599 C610 1.260 . S
O600 Zn593 1.969 . S
O600 C610 1.258 . S
C601 O598 1.267 . S
C601 O602 1.228 . S
O602 C601 1.228 . S
O603 Zn592 2.024 . S
O603 C594 1.058 . S
C604 O605 1.228 . S
C604 O606 1.267 . S
O605 C604 1.228 . S
O606 Zn593 1.969 . S
O606 C604 1.267 . S
O607 Zn593 1.965 . S
O607 C611 1.260 . S
O608 Zn592 1.969 . S
O608 C611 1.258 . S
O609 Zn593 2.024 . S
O609 C596 1.058 . S
C610 O599 1.260 . S
C610 O600 1.258 . S
C611 O607 1.260 . S
C611 O608 1.258 . S
Zn612 O618 1.969 . S
Zn612 O619 1.965 . S
Zn612 O623 2.024 1_655 S
Zn612 O628 1.969 1_655 S
Zn613 O620 1.969 1_554 S
Zn613 O626 1.969 . S
Zn613 O627 1.965 . S
Zn613 O629 2.024 . S
C614 O615 1.229 1_455 S
C614 O623 1.058 . S
O615 C614 1.229 1_655 S
C616 O617 1.229 1_554 S
C616 O629 1.058 . S
O617 C616 1.229 1_556 S
O618 Zn612 1.969 . S
O618 C621 1.267 . S
O619 Zn612 1.965 . S
O619 C630 1.260 1_554 S
O620 Zn613 1.969 1_556 S
O620 C630 1.258 1_455 S
C621 O618 1.267 . S
C621 O622 1.228 . S
O622 C621 1.228 . S
O623 Zn612 2.024 1_455 S
O623 C614 1.058 . S
C624 O625 1.228 . S
C624 O626 1.267 . S
O625 C624 1.228 . S
O626 Zn613 1.969 . S
O626 C624 1.267 . S
O627 Zn613 1.965 . S
O627 C631 1.260 . S
O628 Zn612 1.969 1_455 S
O628 C631 1.258 . S
O629 Zn613 2.024 . S
O629 C616 1.058 . S
C630 O619 1.260 1_556 S
C630 O620 1.258 1_655 S
C631 O627 1.260 . S
C631 O628 1.258 . S
H632 C640 0.950 . S
H633 C645 0.950 . S
H634 C642 0.947 1_655 S
H635 C644 0.950 . S
H636 C646 0.950 . S
H637 C648 0.950 . S
H638 C650 0.950 1_655 S
H639 C651 0.950 . S
C640 H632 0.950 . S
C640 C641 1.386 1_655 S
C640 C642 1.390 1_655 S
C641 C640 1.386 1_455 S
C641 C645 1.393 . S
C642 H634 0.947 1_455 S
C642 C640 1.390 1_455 S
C642 C643 1.404 . S
C643 C642 1.404 . S
C643 C644 1.398 . S
C643 C649 1.491 . S
C644 H635 0.950 . S
C644 C643 1.398 . S
C644 C645 1.391 . S
C645 H633 0.950 . S
C645 C641 1.393 . S
C645 C644 1.391 . S
C646 H636 0.950 . S
C646 C647 1.386 . S
C646 C648 1.391 1_554 S
C647 C646 1.386 . S
C647 C651 1.393 . S
C648 H637 0.950 . S
C648 C646 1.391 1_556 S
C648 C649 1.400 . S
C649 C643 1.491 . S
C649 C648 1.400 . S
C649 C650 1.398 . S
C650 H638 0.950 1_455 S
C650 C649 1.398 . S
C650 C651 1.391 1_556 S
C651 H639 0.950 . S
C651 C647 1.393 . S
C651 C650 1.391 1_554 S
H652 C660 0.950 . S
H653 C665 0.950 . S
H654 C662 0.950 . S
H655 C664 0.950 . S
H656 C666 0.950 . S
H657 C668 0.950 . S
H658 C670 0.950 . S
H659 C671 0.950 . S
C660 H652 0.950 . S
C660 C661 1.386 . S
C660 C662 1.391 . S
C661 C660 1.386 . S
C661 C665 1.393 . S
C662 H654 0.950 . S
C662 C660 1.391 . S
C662 C663 1.400 . S
C663 C662 1.400 . S
C663 C664 1.398 . S
C663 C669 1.491 . S
C664 H655 0.950 . S
C664 C663 1.398 . S
C664 C665 1.391 . S
C665 H653 0.950 . S
C665 C661 1.393 . S
C665 C664 1.391 . S
C666 H656 0.950 . S
C666 C667 1.386 . S
C666 C668 1.391 . S
C667 C666 1.386 . S
C667 C671 1.393 . S
C668 H657 0.950 . S
C668 C666 1.391 . S
C668 C669 1.400 . S
C669 C663 1.491 . S
C669 C668 1.400 . S
C669 C670 1.398 . S
C670 H658 0.950 . S
C670 C669 1.398 . S
C670 C671 1.391 . S
C671 H659 0.950 . S
C671 C667 1.393 . S
C671 C670 1.391 . S
H672 C680 0.950 . S
H673 C685 0.950 . S
H674 C682 0.950 . S
H675 C684 0.950 . S
H676 C686 0.950 . S
H677 C688 0.950 . S
H678 C690 0.950 . S
H679 C691 0.950 . S
C680 H672 0.950 . S
C680 C681 1.386 . S
C680 C682 1.391 . S
C681 C680 1.386 . S
C681 C685 1.393 . S
C682 H674 0.950 . S
C682 C680 1.391 . S
C682 C683 1.400 . S
C683 C682 1.400 . S
C683 C684 1.398 . S
C683 C689 1.491 . S
C684 H675 0.950 . S
C684 C683 1.398 . S
C684 C685 1.391 . S
C685 H673 0.950 . S
C685 C681 1.393 . S
C685 C684 1.391 . S
C686 H676 0.950 . S
C686 C687 1.386 . S
C686 C688 1.391 . S
C687 C686 1.386 . S
C687 C691 1.393 . S
C688 H677 0.950 . S
C688 C686 1.391 . S
C688 C689 1.400 . S
C689 C683 1.491 . S
C689 C688 1.400 . S
C689 C690 1.398 . S
C690 H678 0.950 . S
C690 C689 1.398 . S
C690 C691 1.391 . S
C691 H679 0.950 . S
C691 C687 1.393 . S
C691 C690 1.391 . S
H692 C700 0.950 . S
H693 C705 0.950 . S
H694 C702 0.950 . S
H695 C704 0.950 . S
H696 C706 0.950 . S
H697 C708 0.950 . S
H698 C710 0.950 . S
H699 C711 0.950 . S
C700 H692 0.950 . S
C700 C701 1.386 . S
C700 C702 1.391 . S
C701 C700 1.386 . S
C701 C705 1.393 . S
C702 H694 0.950 . S
C702 C700 1.391 . S
C702 C703 1.400 . S
C703 C702 1.400 . S
C703 C704 1.398 . S
C703 C709 1.491 . S
C704 H695 0.950 . S
C704 C703 1.398 . S
C704 C705 1.391 . S
C705 H693 0.950 . S
C705 C701 1.393 . S
C705 C704 1.391 . S
C706 H696 0.950 . S
C706 C707 1.386 . S
C706 C708 1.391 . S
C707 C706 1.386 . S
C707 C711 1.393 . S
C708 H697 0.950 . S
C708 C706 1.391 . S
C708 C709 1.400 . S
C709 C703 1.491 . S
C709 C708 1.400 . S
C709 C710 1.398 . S
C710 H698 0.950 . S
C710 C709 1.398 . S
C710 C711 1.391 . S
C711 H699 0.950 . S
C711 C707 1.393 . S
C711 C710 1.391 . S
H712 C720 0.950 . S
H713 C725 0.950 1_655 S
H714 C722 0.950 . S
H715 C724 0.950 1_655 S
H716 C726 0.950 . S
H717 C728 0.950 1_655 S
H718 C730 0.950 . S
H719 C731 0.950 . S
C720 H712 0.950 . S
C720 C721 1.386 . S
C720 C722 1.391 . S
C721 C720 1.386 . S
C721 C725 1.393 . S
C722 H714 0.950 . S
C722 C720 1.391 . S
C722 C723 1.400 . S
C723 C722 1.400 . S
C723 C724 1.398 . S
C723 C729 1.491 . S
C724 H715 0.950 1_455 S
C724 C723 1.398 . S
C724 C725 1.391 . S
C725 H713 0.950 1_455 S
C725 C721 1.393 . S
C725 C724 1.391 . S
C726 H716 0.950 . S
C726 C727 1.386 . S
C726 C728 1.391 . S
C727 C726 1.386 . S
C727 C731 1.393 . S
C728 H717 0.950 1_455 S
C728 C726 1.391 . S
C728 C729 1.400 . S
C729 C723 1.491 . S
C729 C728 1.400 . S
C729 C730 1.398 . S
C730 H718 0.950 . S
C730 C729 1.398 . S
C730 C731 1.391 . S
C731 H719 0.950 . S
C731 C727 1.393 . S
C731 C730 1.391 . S
H732 C740 0.950 . S
H733 C745 0.950 . S
H734 C742 0.950 . S
H735 C744 0.950 . S
H736 C746 0.950 . S
H737 C748 0.950 . S
H738 C750 0.950 . S
H739 C751 0.950 . S
C740 H732 0.950 . S
C740 C741 1.386 . S
C740 C742 1.391 . S
C741 C740 1.386 . S
C741 C745 1.393 . S
C742 H734 0.950 . S
C742 C740 1.391 . S
C742 C743 1.400 . S
C743 C742 1.400 . S
C743 C744 1.398 . S
C743 C749 1.491 . S
C744 H735 0.950 . S
C744 C743 1.398 . S
C744 C745 1.391 . S
C745 H733 0.950 . S
C745 C741 1.393 . S
C745 C744 1.391 . S
C746 H736 0.950 . S
C746 C747 1.386 . S
C746 C748 1.391 . S
C747 C746 1.386 . S
C747 C751 1.393 . S
C748 H737 0.950 . S
C748 C746 1.391 . S
C748 C749 1.400 . S
C749 C743 1.491 . S
C749 C748 1.400 . S
C749 C750 1.398 . S
C750 H738 0.950 . S
C750 C749 1.398 . S
C750 C751 1.391 . S
C751 H739 0.950 . S
C751 C747 1.393 . S
C751 C750 1.391 . S
H752 C760 0.950 . S
H753 C765 0.950 . S
H754 C762 0.950 . S
H755 C764 0.950 . S
H756 C766 0.950 . S
H757 C768 0.950 . S
H758 C770 0.950 . S
H759 C771 0.950 . S
C760 H752 0.950 . S
C760 C761 1.386 . S
C760 C762 1.391 . S
C761 C760 1.386 . S
C761 C765 1.393 . S
C762 H754 0.950 . S
C762 C760 1.391 . S
C762 C763 1.400 . S
C763 C762 1.400 . S
C763 C764 1.398 . S
C763 C769 1.491 . S
C764 H755 0.950 . S
C764 C763 1.398 . S
C764 C765 1.391 . S
C765 H753 0.950 . S
C765 C761 1.393 . S
C765 C764 1.391 . S
C766 H756 0.950 . S
C766 C767 1.386 . S
C766 C768 1.391 . S
C767 C766 1.386 . S
C767 C771 1.393 . S
C768 H757 0.950 . S
C768 C766 1.391 . S
C768 C769 1.400 . S
C769 C763 1.491 . S
C769 C768 1.400 . S
C769 C770 1.398 . S
C770 H758 0.950 . S
C770 C769 1.398 . S
C770 C771 1.391 . S
C771 H759 0.950 . S
C771 C767 1.393 . S
C771 C770 1.391 . S
H772 C780 0.950 . S
H773 C785 0.950 . S
H774 C782 0.950 . S
H775 C784 0.950 . S
H776 C786 0.950 . S
H777 C788 0.950 . S
H778 C790 0.950 . S
H779 C791 0.950 . S
C780 H772 0.950 . S
C780 C781 1.386 . S
C780 C782 1.391 . S
C781 C780 1.386 . S
C781 C785 1.393 . S
C782 H774 0.950 . S
C782 C780 1.391 . S
C782 C783 1.400 . S
C783 C782 1.400 . S
C783 C784 1.398 . S
C783 C789 1.491 . S
C784 H775 0.950 . S
C784 C783 1.398 . S
C784 C785 1.391 . S
C785 H773 0.950 . S
C785 C781 1.393 . S
C785 C784 1.391 . S
C786 H776 0.950 . S
C786 C787 1.386 . S
C786 C788 1.391 . S
C787 C786 1.386 . S
C787 C791 1.393 . S
C788 H777 0.950 . S
C788 C786 1.391 . S
C788 C789 1.400 . S
C789 C783 1.491 . S
C789 C788 1.400 . S
C789 C790 1.398 . S
C790 H778 0.950 . S
C790 C789 1.398 . S
C790 C791 1.391 . S
C791 H779 0.950 . S
C791 C787 1.393 . S
C791 C790 1.391 . S
H792 C800 0.950 1_565 S
H793 C805 0.950 . S
H794 C802 0.950 1_565 S
H795 C804 0.950 . S
H796 C806 0.950 . S
H797 C808 0.950 . S
H798 C810 0.950 1_565 S
H799 C811 0.950 . S
C800 H792 0.950 1_545 S
C800 C801 1.386 . S
C800 C802 1.391 . S
C801 C800 1.386 . S
C801 C805 1.393 . S
C802 H794 0.950 1_545 S
C802 C800 1.391 . S
C802 C803 1.400 . S
C803 C802 1.400 . S
C803 C804 1.398 . S
C803 C809 1.491 . S
C804 H795 0.950 . S
C804 C803 1.398 . S
C804 C805 1.391 . S
C805 H793 0.950 . S
C805 C801 1.393 . S
C805 C804 1.391 . S
C806 H796 0.950 . S
C806 C807 1.386 . S
C806 C808 1.391 1_455 S
C807 C806 1.386 . S
C807 C811 1.393 . S
C808 H797 0.950 . S
C808 C806 1.391 1_655 S
C808 C809 1.400 . S
C809 C803 1.491 . S
C809 C808 1.400 . S
C809 C810 1.398 . S
C810 H798 0.950 1_545 S
C810 C809 1.398 . S
C810 C811 1.391 1_655 S
C811 H799 0.950 . S
C811 C807 1.393 . S
C811 C810 1.391 1_455 S
H812 C820 0.950 . S
H813 C825 0.950 . S
H814 C822 0.950 . S
H815 C824 0.950 . S
H816 C826 0.950 . S
H817 C828 0.950 . S
H818 C830 0.950 . S
H819 C831 0.950 . S
C820 H812 0.950 . S
C820 C821 1.386 . S
C820 C822 1.391 . S
C821 C820 1.386 . S
C821 C825 1.393 . S
C822 H814 0.950 . S
C822 C820 1.391 . S
C822 C823 1.400 . S
C823 C822 1.400 . S
C823 C824 1.398 . S
C823 C829 1.491 . S
C824 H815 0.950 . S
C824 C823 1.398 . S
C824 C825 1.391 . S
C825 H813 0.950 . S
C825 C821 1.393 . S
C825 C824 1.391 . S
C826 H816 0.950 . S
C826 C827 1.386 . S
C826 C828 1.391 . S
C827 C826 1.386 . S
C827 C831 1.393 . S
C828 H817 0.950 . S
C828 C826 1.391 . S
C828 C829 1.400 . S
C829 C823 1.491 . S
C829 C828 1.400 . S
C829 C830 1.398 . S
C830 H818 0.950 . S
C830 C829 1.398 . S
C830 C831 1.391 . S
C831 H819 0.950 . S
C831 C827 1.393 . S
C831 C830 1.391 . S
H832 C840 0.950 . S
H833 C845 0.950 . S
H834 C842 0.950 . S
H835 C844 0.950 . S
H836 C846 0.950 . S
H837 C848 0.950 . S
H838 C850 0.950 . S
H839 C851 0.950 . S
C840 H832 0.950 . S
C840 C841 1.386 1_545 S
C840 C842 1.391 . S
C841 C840 1.386 1_565 S
C841 C845 1.393 . S
C842 H834 0.950 . S
C842 C840 1.391 . S
C842 C843 1.400 1_545 S
C843 C842 1.400 1_565 S
C843 C844 1.398 . S
C843 C849 1.491 . S
C844 H835 0.950 . S
C844 C843 1.398 . S
C844 C845 1.391 . S
C845 H833 0.950 . S
C845 C841 1.393 . S
C845 C844 1.391 . S
C846 H836 0.950 . S
C846 C847 1.386 . S
C846 C848 1.391 . S
C847 C846 1.386 . S
C847 C851 1.393 1_565 S
C848 H837 0.950 . S
C848 C846 1.391 . S
C848 C849 1.400 . S
C849 C843 1.491 . S
C849 C848 1.400 . S
C849 C850 1.398 1_565 S
C850 H838 0.950 . S
C850 C849 1.398 1_545 S
C850 C851 1.391 . S
C851 H839 0.950 . S
C851 C847 1.393 1_545 S
C851 C850 1.391 . S
H852 C860 0.950 . S
H853 C865 0.950 . S
H854 C862 0.950 . S
H855 C864 0.950 . S
H856 C866 0.950 . S
H857 C868 0.950 . S
H858 C870 0.950 . S
H859 C871 0.950 . S
C860 H852 0.950 . S
C860 C861 1.386 . S
C860 C862 1.391 . S
C861 C860 1.386 . S
C861 C865 1.393 . S
C862 H854 0.950 . S
C862 C860 1.391 . S
C862 C863 1.400 . S
C863 C862 1.400 . S
C863 C864 1.398 . S
C863 C869 1.491 . S
C864 H855 0.950 . S
C864 C863 1.398 . S
C864 C865 1.391 . S
C865 H853 0.950 . S
C865 C861 1.393 . S
C865 C864 1.391 . S
C866 H856 0.950 . S
C866 C867 1.386 . S
C866 C868 1.391 . S
C867 C866 1.386 . S
C867 C871 1.393 . S
C868 H857 0.950 . S
C868 C866 1.391 . S
C868 C869 1.400 . S
C869 C863 1.491 . S
C869 C868 1.400 . S
C869 C870 1.398 . S
C870 H858 0.950 . S
C870 C869 1.398 . S
C870 C871 1.391 . S
C871 H859 0.950 . S
C871 C867 1.393 . S
C871 C870 1.391 . S
H872 C880 0.950 . S
H873 C885 0.964 . S
H874 C882 0.950 . S
H875 C884 0.950 . S
H876 C886 0.950 . S
H877 C888 0.950 . S
H878 C890 0.954 . S
H879 C891 0.950 . S
C880 H872 0.950 . S
C880 C881 1.386 . S
C880 C882 1.391 . S
C881 C880 1.386 . S
C881 C885 1.372 1_545 S
C882 H874 0.950 . S
C882 C880 1.391 . S
C882 C883 1.400 . S
C883 C882 1.400 . S
C883 C884 1.398 1_545 S
C883 C889 1.491 . S
C884 H875 0.950 . S
C884 C883 1.398 1_565 S
C884 C885 1.398 . S
C885 H873 0.964 . S
C885 C881 1.372 1_565 S
C885 C884 1.398 . S
C886 H876 0.950 . S
C886 C887 1.383 1_565 S
C886 C888 1.391 . S
C887 C886 1.383 1_545 S
C887 C891 1.394 1_655 S
C888 H877 0.950 . S
C888 C886 1.391 . S
C888 C889 1.400 1_565 S
C889 C883 1.491 . S
C889 C888 1.400 1_545 S
C889 C890 1.398 . S
C890 H878 0.954 . S
C890 C889 1.398 . S
C890 C891 1.391 1_655 S
C891 H879 0.950 . S
C891 C887 1.394 1_455 S
C891 C890 1.391 1_455 S
H892 C900 0.950 . S
H893 C905 0.950 . S
H894 C902 0.950 . S
H895 C904 0.950 . S
H896 C906 0.950 . S
H897 C908 0.950 . S
H898 C910 0.950 . S
H899 C911 0.950 . S
C900 H892 0.950 . S
C900 C901 1.386 . S
C900 C902 1.391 . S
C901 C900 1.386 . S
C901 C905 1.393 . S
C902 H894 0.950 . S
C902 C900 1.391 . S
C902 C903 1.400 . S
C903 C902 1.400 . S
C903 C904 1.398 . S
C903 C909 1.491 . S
C904 H895 0.950 . S
C904 C903 1.398 . S
C904 C905 1.391 . S
C905 H893 0.950 . S
C905 C901 1.393 . S
C905 C904 1.391 . S
C906 H896 0.950 . S
C906 C907 1.386 . S
C906 C908 1.391 . S
C907 C906 1.386 . S
C907 C911 1.393 . S
C908 H897 0.950 . S
C908 C906 1.391 . S
C908 C909 1.400 . S
C909 C903 1.491 . S
C909 C908 1.400 . S
C909 C910 1.398 . S
C910 H898 0.950 . S
C910 C909 1.398 . S
C910 C911 1.391 . S
C911 H899 0.950 . S
C911 C907 1.393 . S
C911 C910 1.391 . S
H912 C920 0.950 1_565 S
H913 C925 0.950 . S
H914 C922 0.950 . S
H915 C924 0.950 . S
H916 C926 0.950 . S
H917 C928 0.950 . S
H918 C930 0.950 . S
H919 C931 0.950 . S
C920 H912 0.950 1_545 S
C920 C921 1.386 . S
C920 C922 1.391 . S
C921 C920 1.386 . S
C921 C925 1.393 . S
C922 H914 0.950 . S
C922 C920 1.391 . S
C922 C923 1.400 . S
C923 C922 1.400 . S
C923 C924 1.398 . S
C923 C929 1.491 . S
C924 H915 0.950 . S
C924 C923 1.398 . S
C924 C925 1.391 . S
C925 H913 0.950 . S
C925 C921 1.393 . S
C925 C924 1.391 . S
C926 H916 0.950 . S
C926 C927 1.386 . S
C926 C928 1.391 . S
C927 C926 1.386 . S
C927 C931 1.393 . S
C928 H917 0.950 . S
C928 C926 1.391 . S
C928 C929 1.400 . S
C929 C923 1.491 . S
C929 C928 1.400 . S
C929 C930 1.398 . S
C930 H918 0.950 . S
C930 C929 1.398 . S
C930 C931 1.391 . S
C931 H919 0.950 . S
C931 C927 1.393 . S
C931 C930 1.391 . S
H932 C940 0.950 . S
H933 C945 0.950 . S
H934 C942 0.950 . S
H935 C944 0.950 . S
H936 C946 0.950 . S
H937 C948 0.950 . S
H938 C950 0.950 . S
H939 C951 0.950 . S
C940 H932 0.950 . S
C940 C941 1.386 . S
C940 C942 1.391 . S
C941 C940 1.386 . S
C941 C945 1.393 . S
C942 H934 0.950 . S
C942 C940 1.391 . S
C942 C943 1.400 . S
C943 C942 1.400 . S
C943 C944 1.398 . S
C943 C949 1.491 . S
C944 H935 0.950 . S
C944 C943 1.398 . S
C944 C945 1.391 . S
C945 H933 0.950 . S
C945 C941 1.393 . S
C945 C944 1.391 . S
C946 H936 0.950 . S
C946 C947 1.386 . S
C946 C948 1.391 . S
C947 C946 1.386 . S
C947 C951 1.393 . S
C948 H937 0.950 . S
C948 C946 1.391 . S
C948 C949 1.400 . S
C949 C943 1.491 . S
C949 C948 1.400 . S
C949 C950 1.398 . S
C950 H938 0.950 . S
C950 C949 1.398 . S
C950 C951 1.391 . S
C951 H939 0.950 . S
C951 C947 1.393 . S
C951 C950 1.391 . S
H952 C960 0.950 . S
H953 C965 0.950 . S
H954 C962 0.950 . S
H955 C964 0.950 . S
H956 C966 0.950 . S
H957 C968 0.950 . S
H958 C970 0.950 . S
H959 C971 0.950 . S
C960 H952 0.950 . S
C960 C961 1.386 . S
C960 C962 1.391 . S
C961 C960 1.386 . S
C961 C965 1.393 . S
C962 H954 0.950 . S
C962 C960 1.391 . S
C962 C963 1.400 . S
C963 C962 1.400 . S
C963 C964 1.398 . S
C963 C969 1.491 . S
C964 H955 0.950 . S
C964 C963 1.398 . S
C964 C965 1.391 . S
C965 H953 0.950 . S
C965 C961 1.393 . S
C965 C964 1.391 . S
C966 H956 0.950 . S
C966 C967 1.386 1_545 S
C966 C968 1.391 1_545 S
C967 C966 1.386 1_565 S
C967 C971 1.393 . S
C968 H957 0.950 . S
C968 C966 1.391 1_565 S
C968 C969 1.400 . S
C969 C963 1.491 . S
C969 C968 1.400 . S
C969 C970 1.398 . S
C970 H958 0.950 . S
C970 C969 1.398 . S
C970 C971 1.391 . S
C971 H959 0.950 . S
C971 C967 1.393 . S
C971 C970 1.391 . S
H972 C980 0.950 . S
H973 C985 0.943 1_554 S
H974 C982 0.950 . S
H975 C984 0.950 . S
H976 C986 0.950 . S
H977 C988 0.950 . S
H978 C990 0.950 . S
H979 C991 0.950 . S
C980 H972 0.950 . S
C980 C981 1.386 . S
C980 C982 1.391 . S
C981 C980 1.386 . S
C981 C985 1.408 . S
C982 H974 0.950 . S
C982 C980 1.391 . S
C982 C983 1.400 . S
C983 C982 1.400 . S
C983 C984 1.398 1_556 S
C983 C989 1.497 . S
C984 H975 0.950 . S
C984 C983 1.398 1_554 S
C984 C985 1.384 1_554 S
C985 H973 0.943 1_556 S
C985 C981 1.408 . S
C985 C984 1.384 1_556 S
C986 H976 0.950 . S
C986 C987 1.386 . S
C986 C988 1.391 . S
C987 C986 1.386 . S
C987 C991 1.393 1_554 S
C988 H977 0.950 . S
C988 C986 1.391 . S
C988 C989 1.389 1_554 S
C989 C983 1.497 . S
C989 C988 1.389 1_556 S
C989 C990 1.403 . S
C990 H978 0.950 . S
C990 C989 1.403 . S
C990 C991 1.391 . S
C991 H979 0.950 . S
C991 C987 1.393 1_556 S
C991 C990 1.391 . S
H992 C1000 0.950 . S
H993 C1005 0.950 . S
H994 C1002 0.950 . S
H995 C1004 0.950 . S
H996 C1006 0.950 . S
H997 C1008 0.950 . S
H998 C1010 0.950 . S
H999 C1011 0.950 . S
C1000 H992 0.950 . S
C1000 C1001 1.386 . S
C1000 C1002 1.391 . S
C1001 C1000 1.386 . S
C1001 C1005 1.393 . S
C1002 H994 0.950 . S
C1002 C1000 1.391 . S
C1002 C1003 1.400 . S
C1003 C1002 1.400 . S
C1003 C1004 1.398 . S
C1003 C1009 1.491 . S
C1004 H995 0.950 . S
C1004 C1003 1.398 . S
C1004 C1005 1.391 . S
C1005 H993 0.950 . S
C1005 C1001 1.393 . S
C1005 C1004 1.391 . S
C1006 H996 0.950 . S
C1006 C1007 1.386 . S
C1006 C1008 1.391 . S
C1007 C1006 1.386 . S
C1007 C1011 1.393 . S
C1008 H997 0.950 . S
C1008 C1006 1.391 . S
C1008 C1009 1.400 . S
C1009 C1003 1.491 . S
C1009 C1008 1.400 . S
C1009 C1010 1.398 . S
C1010 H998 0.950 . S
C1010 C1009 1.398 . S
C1010 C1011 1.391 . S
C1011 H999 0.950 . S
C1011 C1007 1.393 . S
C1011 C1010 1.391 . S
H1012 C1020 0.950 . S
H1013 C1025 0.950 . S
H1014 C1022 0.950 . S
H1015 C1024 0.950 . S
H1016 C1026 0.950 . S
H1017 C1028 0.950 . S
H1018 C1030 0.950 . S
H1019 C1031 0.950 . S
C1020 H1012 0.950 . S
C1020 C1021 1.386 . S
C1020 C1022 1.391 . S
C1021 C1020 1.386 . S
C1021 C1025 1.393 . S
C1022 H1014 0.950 . S
C1022 C1020 1.391 . S
C1022 C1023 1.400 . S
C1023 C1022 1.400 . S
C1023 C1024 1.398 . S
C1023 C1029 1.491 . S
C1024 H1015 0.950 . S
C1024 C1023 1.398 . S
C1024 C1025 1.391 . S
C1025 H1013 0.950 . S
C1025 C1021 1.393 . S
C1025 C1024 1.391 . S
C1026 H1016 0.950 . S
C1026 C1027 1.386 . S
C1026 C1028 1.391 . S
C1027 C1026 1.386 . S
C1027 C1031 1.393 . S
C1028 H1017 0.950 . S
C1028 C1026 1.391 . S
C1028 C1029 1.400 . S
C1029 C1023 1.491 . S
C1029 C1028 1.400 . S
C1029 C1030 1.398 . S
C1030 H1018 0.950 . S
C1030 C1029 1.398 . S
C1030 C1031 1.391 . S
C1031 H1019 0.950 . S
C1031 C1027 1.393 . S
C1031 C1030 1.391 . S
H1032 C1040 0.950 . S
H1033 C1045 0.950 . S
H1034 C1042 0.950 . S
H1035 C1044 0.950 . S
H1036 C1046 0.950 . S
H1037 C1048 0.950 . S
H1038 C1050 0.950 . S
H1039 C1051 0.950 . S
C1040 H1032 0.950 . S
C1040 C1041 1.386 . S
C1040 C1042 1.391 . S
C1041 C1040 1.386 . S
C1041 C1045 1.393 . S
C1042 H1034 0.950 . S
C1042 C1040 1.391 . S
C1042 C1043 1.400 . S
C1043 C1042 1.400 . S
C1043 C1044 1.398 . S
C1043 C1049 1.491 . S
C1044 H1035 0.950 . S
C1044 C1043 1.398 . S
C1044 C1045 1.391 . S
C1045 H1033 0.950 . S
C1045 C1041 1.393 . S
C1045 C1044 1.391 . S
C1046 H1036 0.950 . S
C1046 C1047 1.386 . S
C1046 C1048 1.391 . S
C1047 C1046 1.386 . S
C1047 C1051 1.393 . S
C1048 H1037 0.950 . S
C1048 C1046 1.391 . S
C1048 C1049 1.400 . S
C1049 C1043 1.491 . S
C1049 C1048 1.400 . S
C1049 C1050 1.398 . S
C1050 H1038 0.950 . S
C1050 C1049 1.398 . S
C1050 C1051 1.391 . S
C1051 H1039 0.950 . S
C1051 C1047 1.393 . S
C1051 C1050 1.391 . S
H1052 C1060 0.950 . S
H1053 C1065 0.950 . S
H1054 C1062 0.950 . S
H1055 C1064 0.950 . S
H1056 C1066 0.950 . S
H1057 C1068 0.950 . S
H1058 C1070 0.950 . S
H1059 C1071 0.950 . S
C1060 H1052 0.950 . S
C1060 C1061 1.386 . S
C1060 C1062 1.391 . S
C1061 C1060 1.386 . S
C1061 C1065 1.393 . S
C1062 H1054 0.950 . S
C1062 C1060 1.391 . S
C1062 C1063 1.400 . S
C1063 C1062 1.400 . S
C1063 C1064 1.398 . S
C1063 C1069 1.491 . S
C1064 H1055 0.950 . S
C1064 C1063 1.398 . S
C1064 C1065 1.391 . S
C1065 H1053 0.950 . S
C1065 C1061 1.393 . S
C1065 C1064 1.391 . S
C1066 H1056 0.950 . S
C1066 C1067 1.386 . S
C1066 C1068 1.391 . S
C1067 C1066 1.386 . S
C1067 C1071 1.393 . S
C1068 H1057 0.950 . S
C1068 C1066 1.391 . S
C1068 C1069 1.400 . S
C1069 C1063 1.491 . S
C1069 C1068 1.400 . S
C1069 C1070 1.398 . S
C1070 H1058 0.950 . S
C1070 C1069 1.398 . S
C1070 C1071 1.391 . S
C1071 H1059 0.950 . S
C1071 C1067 1.393 . S
C1071 C1070 1.391 . S
H1072 C1080 0.950 . S
H1073 C1085 0.950 . S
H1074 C1082 0.950 . S
H1075 C1084 0.950 . S
H1076 C1086 0.950 . S
H1077 C1088 0.950 . S
H1078 C1090 0.950 . S
H1079 C1091 0.950 . S
C1080 H1072 0.950 . S
C1080 C1081 1.386 . S
C1080 C1082 1.391 . S
C1081 C1080 1.386 . S
C1081 C1085 1.393 . S
C1082 H1074 0.950 . S
C1082 C1080 1.391 . S
C1082 C1083 1.400 . S
C1083 C1082 1.400 . S
C1083 C1084 1.398 . S
C1083 C1089 1.491 . S
C1084 H1075 0.950 . S
C1084 C1083 1.398 . S
C1084 C1085 1.391 . S
C1085 H1073 0.950 . S
C1085 C1081 1.393 . S
C1085 C1084 1.391 . S
C1086 H1076 0.950 . S
C1086 C1087 1.386 . S
C1086 C1088 1.391 . S
C1087 C1086 1.386 . S
C1087 C1091 1.393 . S
C1088 H1077 0.950 . S
C1088 C1086 1.391 . S
C1088 C1089 1.400 . S
C1089 C1083 1.491 . S
C1089 C1088 1.400 . S
C1089 C1090 1.398 . S
C1090 H1078 0.950 . S
C1090 C1089 1.398 . S
C1090 C1091 1.391 . S
C1091 H1079 0.950 . S
C1091 C1087 1.393 . S
C1091 C1090 1.391 . S
H1092 C1100 0.950 . S
H1093 C1105 0.950 . S
H1094 C1102 0.950 . S
H1095 C1104 0.950 . S
H1096 C1106 0.950 . S
H1097 C1108 0.950 . S
H1098 C1110 0.950 . S
H1099 C1111 0.950 . S
C1100 H1092 0.950 . S
C1100 C1101 1.386 . S
C1100 C1102 1.391 . S
C1101 C1100 1.386 . S
C1101 C1105 1.393 . S
C1102 H1094 0.950 . S
C1102 C1100 1.391 . S
C1102 C1103 1.400 . S
C1103 C1102 1.400 . S
C1103 C1104 1.398 . S
C1103 C1109 1.491 . S
C1104 H1095 0.950 . S
C1104 C1103 1.398 . S
C1104 C1105 1.391 . S
C1105 H1093 0.950 . S
C1105 C1101 1.393 . S
C1105 C1104 1.391 . S
C1106 H1096 0.950 . S
C1106 C1107 1.386 . S
C1106 C1108 1.391 . S
C1107 C1106 1.386 . S
C1107 C1111 1.393 . S
C1108 H1097 0.950 . S
C1108 C1106 1.391 . S
C1108 C1109 1.400 . S
C1109 C1103 1.491 . S
C1109 C1108 1.400 . S
C1109 C1110 1.398 . S
C1110 H1098 0.950 . S
C1110 C1109 1.398 . S
C1110 C1111 1.391 . S
C1111 H1099 0.950 . S
C1111 C1107 1.393 . S
C1111 C1110 1.391 . S
H1112 C1120 0.950 . S
H1113 C1125 0.950 . S
H1114 C1122 0.950 . S
H1115 C1124 0.950 . S
H1116 C1126 0.950 . S
H1117 C1128 0.950 . S
H1118 C1130 0.950 . S
H1119 C1131 0.950 . S
C1120 H1112 0.950 . S
C1120 C1121 1.386 . S
C1120 C1122 1.391 . S
C1121 C1120 1.386 . S
C1121 C1125 1.393 . S
C1122 H1114 0.950 . S
C1122 C1120 1.391 . S
C1122 C1123 1.400 . S
C1123 C1122 1.400 . S
C1123 C1124 1.398 . S
C1123 C1129 1.491 . S
C1124 H1115 0.950 . S
C1124 C1123 1.398 . S
C1124 C1125 1.391 . S
C1125 H1113 0.950 . S
C1125 C1121 1.393 . S
C1125 C1124 1.391 . S
C1126 H1116 0.950 . S
C1126 C1127 1.386 . S
C1126 C1128 1.391 . S
C1127 C1126 1.386 . S
C1127 C1131 1.393 . S
C1128 H1117 0.950 . S
C1128 C1126 1.391 . S
C1128 C1129 1.400 . S
C1129 C1123 1.491 . S
C1129 C1128 1.400 . S
C1129 C1130 1.398 . S
C1130 H1118 0.950 . S
C1130 C1129 1.398 . S
C1130 C1131 1.391 . S
C1131 H1119 0.950 . S
C1131 C1127 1.393 . S
C1131 C1130 1.391 . S
H1132 C1140 0.950 . S
H1133 C1145 0.950 . S
H1134 C1142 0.950 . S
H1135 C1144 0.950 . S
H1136 C1146 0.950 . S
H1137 C1148 0.950 . S
H1138 C1150 0.950 . S
H1139 C1151 0.950 . S
C1140 H1132 0.950 . S
C1140 C1141 1.386 . S
C1140 C1142 1.391 . S
C1141 C1140 1.386 . S
C1141 C1145 1.393 . S
C1142 H1134 0.950 . S
C1142 C1140 1.391 . S
C1142 C1143 1.400 . S
C1143 C1142 1.400 . S
C1143 C1144 1.398 . S
C1143 C1149 1.491 . S
C1144 H1135 0.950 . S
C1144 C1143 1.398 . S
C1144 C1145 1.391 . S
C1145 H1133 0.950 . S
C1145 C1141 1.393 . S
C1145 C1144 1.391 . S
C1146 H1136 0.950 . S
C1146 C1147 1.386 . S
C1146 C1148 1.391 . S
C1147 C1146 1.386 . S
C1147 C1151 1.393 . S
C1148 H1137 0.950 . S
C1148 C1146 1.391 . S
C1148 C1149 1.400 . S
C1149 C1143 1.491 . S
C1149 C1148 1.400 . S
C1149 C1150 1.398 . S
C1150 H1138 0.950 . S
C1150 C1149 1.398 . S
C1150 C1151 1.391 . S
C1151 H1139 0.950 . S
C1151 C1147 1.393 . S
C1151 C1150 1.391 . S
H1152 C1160 0.950 . S
H1153 C1165 0.950 . S
H1154 C1162 0.950 . S
H1155 C1164 0.950 . S
H1156 C1166 0.950 . S
H1157 C1168 0.950 . S
H1158 C1170 0.950 . S
H1159 C1171 0.950 . S
C1160 H1152 0.950 . S
C1160 C1161 1.386 . S
C1160 C1162 1.391 . S
C1161 C1160 1.386 . S
C1161 C1165 1.393 . S
C1162 H1154 0.950 . S
C1162 C1160 1.391 . S
C1162 C1163 1.400 . S
C1163 C1162 1.400 . S
C1163 C1164 1.398 . S
C1163 C1169 1.491 . S
C1164 H1155 0.950 . S
C1164 C1163 1.398 . S
C1164 C1165 1.391 . S
C1165 H1153 0.950 . S
C1165 C1161 1.393 . S
C1165 C1164 1.391 . S
C1166 H1156 0.950 . S
C1166 C1167 1.386 . S
C1166 C1168 1.391 . S
C1167 C1166 1.386 . S
C1167 C1171 1.393 . S
C1168 H1157 0.950 . S
C1168 C1166 1.391 . S
C1168 C1169 1.400 . S
C1169 C1163 1.491 . S
C1169 C1168 1.400 . S
C1169 C1170 1.398 . S
C1170 H1158 0.950 . S
C1170 C1169 1.398 . S
C1170 C1171 1.391 . S
C1171 H1159 0.950 . S
C1171 C1167 1.393 . S
C1171 C1170 1.391 . S
H1172 C1180 0.950 . S
H1173 C1185 0.950 . S
H1174 C1182 0.950 . S
H1175 C1184 0.950 . S
H1176 C1186 0.950 . S
H1177 C1188 0.950 . S
H1178 C1190 0.950 . S
H1179 C1191 0.950 . S
C1180 H1172 0.950 . S
C1180 C1181 1.386 . S
C1180 C1182 1.391 . S
C1181 C1180 1.386 . S
C1181 C1185 1.393 . S
C1182 H1174 0.950 . S
C1182 C1180 1.391 . S
C1182 C1183 1.400 . S
C1183 C1182 1.400 . S
C1183 C1184 1.398 . S
C1183 C1189 1.491 . S
C1184 H1175 0.950 . S
C1184 C1183 1.398 . S
C1184 C1185 1.391 . S
C1185 H1173 0.950 . S
C1185 C1181 1.393 . S
C1185 C1184 1.391 . S
C1186 H1176 0.950 . S
C1186 C1187 1.386 . S
C1186 C1188 1.391 . S
C1187 C1186 1.386 . S
C1187 C1191 1.393 . S
C1188 H1177 0.950 . S
C1188 C1186 1.391 . S
C1188 C1189 1.400 . S
C1189 C1183 1.491 . S
C1189 C1188 1.400 . S
C1189 C1190 1.398 . S
C1190 H1178 0.950 . S
C1190 C1189 1.398 . S
C1190 C1191 1.391 . S
C1191 H1179 0.950 . S
C1191 C1187 1.393 . S
C1191 C1190 1.391 . S
H1192 C1200 0.950 . S
H1193 C1205 0.950 1_655 S
H1194 C1202 0.950 . S
H1195 C1204 0.950 1_655 S
H1196 C1206 0.950 . S
H1197 C1208 0.945 . S
H1198 C1210 0.950 . S
H1199 C1211 0.950 . S
C1200 H1192 0.950 . S
C1200 C1201 1.386 . S
C1200 C1202 1.391 . S
C1201 C1200 1.386 . S
C1201 C1205 1.393 . S
C1202 H1194 0.950 . S
C1202 C1200 1.391 . S
C1202 C1203 1.400 . S
C1203 C1202 1.400 . S
C1203 C1204 1.398 . S
C1203 C1209 1.491 . S
C1204 H1195 0.950 1_455 S
C1204 C1203 1.398 . S
C1204 C1205 1.391 . S
C1205 H1193 0.950 1_455 S
C1205 C1201 1.393 . S
C1205 C1204 1.391 . S
C1206 H1196 0.950 . S
C1206 C1207 1.386 1_655 S
C1206 C1208 1.391 . S
C1207 C1206 1.386 1_455 S
C1207 C1211 1.393 . S
C1208 H1197 0.945 . S
C1208 C1206 1.391 . S
C1208 C1209 1.404 1_655 S
C1209 C1203 1.491 . S
C1209 C1208 1.404 1_455 S
C1209 C1210 1.398 . S
C1210 H1198 0.950 . S
C1210 C1209 1.398 . S
C1210 C1211 1.391 . S
C1211 H1199 0.950 . S
C1211 C1207 1.393 . S
C1211 C1210 1.391 . S
H1212 C1220 0.950 . S
H1213 C1225 0.950 . S
H1214 C1222 0.950 . S
H1215 C1224 0.950 . S
H1216 C1226 0.950 . S
H1217 C1228 0.950 . S
H1218 C1230 0.950 . S
H1219 C1231 0.950 . S
C1220 H1212 0.950 . S
C1220 C1221 1.386 . S
C1220 C1222 1.391 . S
C1221 C1220 1.386 . S
C1221 C1225 1.393 . S
C1222 H1214 0.950 . S
C1222 C1220 1.391 . S
C1222 C1223 1.400 . S
C1223 C1222 1.400 . S
C1223 C1224 1.398 . S
C1223 C1229 1.491 . S
C1224 H1215 0.950 . S
C1224 C1223 1.398 . S
C1224 C1225 1.391 . S
C1225 H1213 0.950 . S
C1225 C1221 1.393 . S
C1225 C1224 1.391 . S
C1226 H1216 0.950 . S
C1226 C1227 1.386 . S
C1226 C1228 1.391 . S
C1227 C1226 1.386 . S
C1227 C1231 1.393 . S
C1228 H1217 0.950 . S
C1228 C1226 1.391 . S
C1228 C1229 1.400 . S
C1229 C1223 1.491 . S
C1229 C1228 1.400 . S
C1229 C1230 1.398 . S
C1230 H1218 0.950 . S
C1230 C1229 1.398 . S
C1230 C1231 1.391 . S
C1231 H1219 0.950 . S
C1231 C1227 1.393 . S
C1231 C1230 1.391 . S
H1232 C1240 0.950 . S
H1233 C1245 0.950 . S
H1234 C1242 0.950 . S
H1235 C1244 0.950 . S
H1236 C1246 0.950 . S
H1237 C1248 0.950 . S
H1238 C1250 0.950 . S
H1239 C1251 0.950 . S
C1240 H1232 0.950 . S
C1240 C1241 1.386 . S
C1240 C1242 1.391 . S
C1241 C1240 1.386 . S
C1241 C1245 1.393 . S
C1242 H1234 0.950 . S
C1242 C1240 1.391 . S
C1242 C1243 1.400 . S
C1243 C1242 1.400 . S
C1243 C1244 1.398 . S
C1243 C1249 1.491 . S
C1244 H1235 0.950 . S
C1244 C1243 1.398 . S
C1244 C1245 1.391 . S
C1245 H1233 0.950 . S
C1245 C1241 1.393 . S
C1245 C1244 1.391 . S
C1246 H1236 0.950 . S
C1246 C1247 1.386 . S
C1246 C1248 1.391 . S
C1247 C1246 1.386 . S
C1247 C1251 1.393 . S
C1248 H1237 0.950 . S
C1248 C1246 1.391 . S
C1248 C1249 1.400 . S
C1249 C1243 1.491 . S
C1249 C1248 1.400 . S
C1249 C1250 1.398 . S
C1250 H1238 0.950 . S
C1250 C1249 1.398 . S
C1250 C1251 1.391 . S
C1251 H1239 0.950 . S
C1251 C1247 1.393 . S
C1251 C1250 1.391 . S
H1252 C1260 0.950 . S
H1253 C1265 0.950 . S
H1254 C1262 0.950 . S
H1255 C1264 0.950 . S
H1256 C1266 0.950 . S
H1257 C1268 0.950 . S
H1258 C1270 0.950 . S
H1259 C1271 0.950 . S
C1260 H1252 0.950 . S
C1260 C1261 1.386 . S
C1260 C1262 1.391 . S
C1261 C1260 1.386 . S
C1261 C1265 1.393 . S
C1262 H1254 0.950 . S
C1262 C1260 1.391 . S
C1262 C1263 1.400 . S
C1263 C1262 1.400 . S
C1263 C1264 1.398 . S
C1263 C1269 1.491 . S
C1264 H1255 0.950 . S
C1264 C1263 1.398 . S
C1264 C1265 1.391 . S
C1265 H1253 0.950 . S
C1265 C1261 1.393 . S
C1265 C1264 1.391 . S
C1266 H1256 0.950 . S
C1266 C1267 1.386 . S
C1266 C1268 1.391 . S
C1267 C1266 1.386 . S
C1267 C1271 1.393 . S
C1268 H1257 0.950 . S
C1268 C1266 1.391 . S
C1268 C1269 1.400 . S
C1269 C1263 1.491 . S
C1269 C1268 1.400 . S
C1269 C1270 1.398 . S
C1270 H1258 0.950 . S
C1270 C1269 1.398 . S
C1270 C1271 1.391 . S
C1271 H1259 0.950 . S
C1271 C1267 1.393 . S
C1271 C1270 1.391 . S
H1272 C1280 0.950 . S
H1273 C1285 0.950 . S
H1274 C1282 0.950 . S
H1275 C1284 0.950 . S
H1276 C1286 0.950 . S
H1277 C1288 0.950 . S
H1278 C1290 0.950 . S
H1279 C1291 0.950 . S
C1280 H1272 0.950 . S
C1280 C1281 1.386 . S
C1280 C1282 1.391 . S
C1281 C1280 1.386 . S
C1281 C1285 1.393 . S
C1282 H1274 0.950 . S
C1282 C1280 1.391 . S
C1282 C1283 1.400 . S
C1283 C1282 1.400 . S
C1283 C1284 1.398 . S
C1283 C1289 1.491 . S
C1284 H1275 0.950 . S
C1284 C1283 1.398 . S
C1284 C1285 1.391 . S
C1285 H1273 0.950 . S
C1285 C1281 1.393 . S
C1285 C1284 1.391 . S
C1286 H1276 0.950 . S
C1286 C1287 1.386 . S
C1286 C1288 1.391 . S
C1287 C1286 1.386 . S
C1287 C1291 1.393 . S
C1288 H1277 0.950 . S
C1288 C1286 1.391 . S
C1288 C1289 1.400 . S
C1289 C1283 1.491 . S
C1289 C1288 1.400 . S
C1289 C1290 1.398 . S
C1290 H1278 0.950 . S
C1290 C1289 1.398 . S
C1290 C1291 1.391 . S
C1291 H1279 0.950 . S
C1291 C1287 1.393 . S
C1291 C1290 1.391 . S
H1292 C1300 0.950 . S
H1293 C1305 0.950 . S
H1294 C1302 0.950 . S
H1295 C1304 0.950 . S
H1296 C1306 0.950 . S
H1297 C1308 0.950 . S
H1298 C1310 0.950 . S
H1299 C1311 0.950 . S
C1300 H1292 0.950 . S
C1300 C1301 1.386 . S
C1300 C1302 1.391 . S
C1301 C1300 1.386 . S
C1301 C1305 1.393 . S
C1302 H1294 0.950 . S
C1302 C1300 1.391 . S
C1302 C1303 1.400 . S
C1303 C1302 1.400 . S
C1303 C1304 1.398 . S
C1303 C1309 1.491 . S
C1304 H1295 0.950 . S
C1304 C1303 1.398 . S
C1304 C1305 1.391 . S
C1305 H1293 0.950 . S
C1305 C1301 1.393 . S
C1305 C1304 1.391 . S
C1306 H1296 0.950 . S
C1306 C1307 1.386 . S
C1306 C1308 1.391 . S
C1307 C1306 1.386 . S
C1307 C1311 1.393 . S
C1308 H1297 0.950 . S
C1308 C1306 1.391 . S
C1308 C1309 1.400 . S
C1309 C1303 1.491 . S
C1309 C1308 1.400 . S
C1309 C1310 1.398 . S
C1310 H1298 0.950 . S
C1310 C1309 1.398 . S
C1310 C1311 1.391 . S
C1311 H1299 0.950 . S
C1311 C1307 1.393 . S
C1311 C1310 1.391 . S
H1312 C1320 0.950 1_565 S
H1313 C1325 0.950 . S
H1314 C1322 0.950 1_565 S
H1315 C1324 0.950 . S
H1316 C1326 0.950 . S
H1317 C1328 0.950 . S
H1318 C1330 0.974 . S
H1319 C1331 0.950 . S
C1320 H1312 0.950 1_545 S
C1320 C1321 1.386 . S
C1320 C1322 1.391 . S
C1321 C1320 1.386 . S
C1321 C1325 1.393 . S
C1322 H1314 0.950 1_545 S
C1322 C1320 1.391 . S
C1322 C1323 1.400 . S
C1323 C1322 1.400 . S
C1323 C1324 1.398 . S
C1323 C1329 1.491 . S
C1324 H1315 0.950 . S
C1324 C1323 1.398 . S
C1324 C1325 1.391 . S
C1325 H1313 0.950 . S
C1325 C1321 1.393 . S
C1325 C1324 1.391 . S
C1326 H1316 0.950 . S
C1326 C1327 1.386 . S
C1326 C1328 1.391 . S
C1327 C1326 1.386 . S
C1327 C1331 1.393 1_545 S
C1328 H1317 0.950 . S
C1328 C1326 1.391 . S
C1328 C1329 1.400 . S
C1329 C1323 1.491 . S
C1329 C1328 1.400 . S
C1329 C1330 1.365 1_545 S
C1330 H1318 0.974 . S
C1330 C1329 1.365 1_565 S
C1330 C1331 1.401 . S
C1331 H1319 0.950 . S
C1331 C1327 1.393 1_565 S
C1331 C1330 1.401 . S
H1332 C1340 0.950 . S
H1333 C1345 0.950 . S
H1334 C1342 0.950 . S
H1335 C1344 0.950 . S
H1336 C1346 0.950 . S
H1337 C1348 0.950 . S
H1338 C1350 0.950 . S
H1339 C1351 0.950 . S
C1340 H1332 0.950 . S
C1340 C1341 1.386 . S
C1340 C1342 1.391 . S
C1341 C1340 1.386 . S
C1341 C1345 1.393 . S
C1342 H1334 0.950 . S
C1342 C1340 1.391 . S
C1342 C1343 1.400 . S
C1343 C1342 1.400 . S
C1343 C1344 1.398 . S
C1343 C1349 1.491 . S
C1344 H1335 0.950 . S
C1344 C1343 1.398 . S
C1344 C1345 1.391 . S
C1345 H1333 0.950 . S
C1345 C1341 1.393 . S
C1345 C1344 1.391 . S
C1346 H1336 0.950 . S
C1346 C1347 1.386 . S
C1346 C1348 1.391 . S
C1347 C1346 1.386 . S
C1347 C1351 1.393 . S
C1348 H1337 0.950 . S
C1348 C1346 1.391 . S
C1348 C1349 1.400 . S
C1349 C1343 1.491 . S
C1349 C1348 1.400 . S
C1349 C1350 1.398 . S
C1350 H1338 0.950 . S
C1350 C1349 1.398 . S
C1350 C1351 1.391 . S
C1351 H1339 0.950 . S
C1351 C1347 1.393 . S
C1351 C1350 1.391 . S
H1352 C1360 0.950 . S
H1353 C1365 0.950 . S
H1354 C1362 0.950 . S
H1355 C1364 0.950 . S
H1356 C1366 0.950 . S
H1357 C1368 0.950 . S
H1358 C1370 0.950 . S
H1359 C1371 0.950 . S
C1360 H1352 0.950 . S
C1360 C1361 1.386 . S
C1360 C1362 1.391 . S
C1361 C1360 1.386 . S
C1361 C1365 1.393 1_545 S
C1362 H1354 0.950 . S
C1362 C1360 1.391 . S
C1362 C1363 1.400 . S
C1363 C1362 1.400 . S
C1363 C1364 1.398 1_545 S
C1363 C1369 1.491 . S
C1364 H1355 0.950 . S
C1364 C1363 1.398 1_565 S
C1364 C1365 1.391 . S
C1365 H1353 0.950 . S
C1365 C1361 1.393 1_565 S
C1365 C1364 1.391 . S
C1366 H1356 0.950 . S
C1366 C1367 1.386 1_565 S
C1366 C1368 1.391 . S
C1367 C1366 1.386 1_545 S
C1367 C1371 1.393 . S
C1368 H1357 0.950 . S
C1368 C1366 1.391 . S
C1368 C1369 1.400 1_565 S
C1369 C1363 1.491 . S
C1369 C1368 1.400 1_545 S
C1369 C1370 1.398 . S
C1370 H1358 0.950 . S
C1370 C1369 1.398 . S
C1370 C1371 1.391 . S
C1371 H1359 0.950 . S
C1371 C1367 1.393 . S
C1371 C1370 1.391 . S
H1372 C1380 0.950 . S
H1373 C1385 0.950 . S
H1374 C1382 0.950 . S
H1375 C1384 0.950 . S
H1376 C1386 0.950 . S
H1377 C1388 0.950 . S
H1378 C1390 0.950 . S
H1379 C1391 0.950 . S
C1380 H1372 0.950 . S
C1380 C1381 1.386 . S
C1380 C1382 1.391 . S
C1381 C1380 1.386 . S
C1381 C1385 1.393 . S
C1382 H1374 0.950 . S
C1382 C1380 1.391 . S
C1382 C1383 1.400 . S
C1383 C1382 1.400 . S
C1383 C1384 1.398 . S
C1383 C1389 1.491 . S
C1384 H1375 0.950 . S
C1384 C1383 1.398 . S
C1384 C1385 1.391 . S
C1385 H1373 0.950 . S
C1385 C1381 1.393 . S
C1385 C1384 1.391 . S
C1386 H1376 0.950 . S
C1386 C1387 1.386 . S
C1386 C1388 1.391 . S
C1387 C1386 1.386 . S
C1387 C1391 1.393 . S
C1388 H1377 0.950 . S
C1388 C1386 1.391 . S
C1388 C1389 1.400 . S
C1389 C1383 1.491 . S
C1389 C1388 1.400 . S
C1389 C1390 1.398 . S
C1390 H1378 0.950 . S
C1390 C1389 1.398 . S
C1390 C1391 1.391 . S
C1391 H1379 0.950 . S
C1391 C1387 1.393 . S
C1391 C1390 1.391 . S
H1392 C1400 0.950 . S
H1393 C1405 0.950 . S
H1394 C1402 0.950 . S
H1395 C1404 0.950 . S
H1396 C1406 0.952 . S
H1397 C1408 0.950 . S
H1398 C1410 0.950 . S
H1399 C1411 0.950 . S
C1400 H1392 0.950 . S
C1400 C1401 1.386 . S
C1400 C1402 1.391 . S
C1401 C1400 1.386 . S
C1401 C1405 1.393 . S
C1402 H1394 0.950 . S
C1402 C1400 1.391 . S
C1402 C1403 1.400 . S
C1403 C1402 1.400 . S
C1403 C1404 1.398 . S
C1403 C1409 1.491 . S
C1404 H1395 0.950 . S
C1404 C1403 1.398 . S
C1404 C1405 1.391 . S
C1405 H1393 0.950 . S
C1405 C1401 1.393 . S
C1405 C1404 1.391 . S
C1406 H1396 0.952 . S
C1406 C1407 1.386 . S
C1406 C1408 1.391 . S
C1407 C1406 1.386 . S
C1407 C1411 1.393 . S
C1408 H1397 0.950 . S
C1408 C1406 1.391 . S
C1408 C1409 1.400 . S
C1409 C1403 1.491 . S
C1409 C1408 1.400 . S
C1409 C1410 1.398 . S
C1410 H1398 0.950 . S
C1410 C1409 1.398 . S
C1410 C1411 1.391 . S
C1411 H1399 0.950 . S
C1411 C1407 1.393 . S
C1411 C1410 1.391 . S
H1412 C1420 0.950 . S
H1413 C1425 0.950 . S
H1414 C1422 0.950 . S
H1415 C1424 0.950 . S
H1416 C1426 0.950 . S
H1417 C1428 0.950 . S
H1418 C1430 0.950 . S
H1419 C1431 0.950 . S
C1420 H1412 0.950 . S
C1420 C1421 1.386 . S
C1420 C1422 1.391 . S
C1421 C1420 1.386 . S
C1421 C1425 1.393 . S
C1422 H1414 0.950 . S
C1422 C1420 1.391 . S
C1422 C1423 1.400 . S
C1423 C1422 1.400 . S
C1423 C1424 1.398 . S
C1423 C1429 1.491 . S
C1424 H1415 0.950 . S
C1424 C1423 1.398 . S
C1424 C1425 1.391 . S
C1425 H1413 0.950 . S
C1425 C1421 1.393 . S
C1425 C1424 1.391 . S
C1426 H1416 0.950 . S
C1426 C1427 1.386 . S
C1426 C1428 1.391 . S
C1427 C1426 1.386 . S
C1427 C1431 1.393 . S
C1428 H1417 0.950 . S
C1428 C1426 1.391 . S
C1428 C1429 1.400 . S
C1429 C1423 1.491 . S
C1429 C1428 1.400 . S
C1429 C1430 1.398 . S
C1430 H1418 0.950 . S
C1430 C1429 1.398 . S
C1430 C1431 1.391 . S
C1431 H1419 0.950 . S
C1431 C1427 1.393 . S
C1431 C1430 1.391 . S
H1432 C1440 0.950 . S
H1433 C1445 0.950 . S
H1434 C1442 0.950 . S
H1435 C1444 0.950 . S
H1436 C1446 0.950 . S
H1437 C1448 0.950 . S
H1438 C1450 0.950 . S
H1439 C1451 0.950 . S
C1440 H1432 0.950 . S
C1440 C1441 1.386 . S
C1440 C1442 1.391 . S
C1441 C1440 1.386 . S
C1441 C1445 1.393 . S
C1442 H1434 0.950 . S
C1442 C1440 1.391 . S
C1442 C1443 1.400 . S
C1443 C1442 1.400 . S
C1443 C1444 1.398 . S
C1443 C1449 1.491 . S
C1444 H1435 0.950 . S
C1444 C1443 1.398 . S
C1444 C1445 1.391 . S
C1445 H1433 0.950 . S
C1445 C1441 1.393 . S
C1445 C1444 1.391 . S
C1446 H1436 0.950 . S
C1446 C1447 1.386 . S
C1446 C1448 1.391 . S
C1447 C1446 1.386 . S
C1447 C1451 1.393 . S
C1448 H1437 0.950 . S
C1448 C1446 1.391 . S
C1448 C1449 1.400 . S
C1449 C1443 1.491 . S
C1449 C1448 1.400 . S
C1449 C1450 1.398 . S
C1450 H1438 0.950 . S
C1450 C1449 1.398 . S
C1450 C1451 1.391 . S
C1451 H1439 0.950 . S
C1451 C1447 1.393 . S
C1451 C1450 1.391 . S
H1452 C1460 0.950 . S
H1453 C1465 0.950 . S
H1454 C1462 0.950 . S
H1455 C1464 0.950 . S
H1456 C1466 0.950 . S
H1457 C1468 0.950 . S
H1458 C1470 0.950 . S
H1459 C1471 0.950 . S
C1460 H1452 0.950 . S
C1460 C1461 1.386 . S
C1460 C1462 1.391 . S
C1461 C1460 1.386 . S
C1461 C1465 1.393 . S
C1462 H1454 0.950 . S
C1462 C1460 1.391 . S
C1462 C1463 1.400 . S
C1463 C1462 1.400 . S
C1463 C1464 1.398 . S
C1463 C1469 1.491 . S
C1464 H1455 0.950 . S
C1464 C1463 1.398 . S
C1464 C1465 1.391 . S
C1465 H1453 0.950 . S
C1465 C1461 1.393 . S
C1465 C1464 1.391 . S
C1466 H1456 0.950 . S
C1466 C1467 1.386 . S
C1466 C1468 1.391 . S
C1467 C1466 1.386 . S
C1467 C1471 1.393 . S
C1468 H1457 0.950 . S
C1468 C1466 1.391 . S
C1468 C1469 1.400 . S
C1469 C1463 1.491 . S
C1469 C1468 1.400 . S
C1469 C1470 1.398 . S
C1470 H1458 0.950 . S
C1470 C1469 1.398 . S
C1470 C1471 1.391 . S
C1471 H1459 0.950 . S
C1471 C1467 1.393 . S
C1471 C1470 1.391 . S
H1472 C1480 0.950 . S
H1473 C1485 0.950 . S
H1474 C1482 0.950 . S
H1475 C1484 0.950 . S
H1476 C1486 0.950 . S
H1477 C1488 0.950 . S
H1478 C1490 0.950 . S
H1479 C1491 0.950 . S
C1480 H1472 0.950 . S
C1480 C1481 1.386 . S
C1480 C1482 1.391 . S
C1481 C1480 1.386 . S
C1481 C1485 1.393 . S
C1482 H1474 0.950 . S
C1482 C1480 1.391 . S
C1482 C1483 1.400 . S
C1483 C1482 1.400 . S
C1483 C1484 1.398 . S
C1483 C1489 1.491 . S
C1484 H1475 0.950 . S
C1484 C1483 1.398 . S
C1484 C1485 1.391 . S
C1485 H1473 0.950 . S
C1485 C1481 1.393 . S
C1485 C1484 1.391 . S
C1486 H1476 0.950 . S
C1486 C1487 1.386 . S
C1486 C1488 1.391 . S
C1487 C1486 1.386 . S
C1487 C1491 1.393 . S
C1488 H1477 0.950 . S
C1488 C1486 1.391 . S
C1488 C1489 1.400 . S
C1489 C1483 1.491 . S
C1489 C1488 1.400 . S
C1489 C1490 1.398 . S
C1490 H1478 0.950 . S
C1490 C1489 1.398 . S
C1490 C1491 1.391 . S
C1491 H1479 0.950 . S
C1491 C1487 1.393 . S
C1491 C1490 1.391 . S
H1492 C1500 0.950 . S
H1493 C1505 0.950 . S
H1494 C1502 0.950 . S
H1495 C1504 0.950 . S
H1496 C1506 0.950 . S
H1497 C1508 0.950 . S
H1498 C1510 0.950 . S
H1499 C1511 0.950 . S
C1500 H1492 0.950 . S
C1500 C1501 1.386 . S
C1500 C1502 1.391 . S
C1501 C1500 1.386 . S
C1501 C1505 1.393 . S
C1502 H1494 0.950 . S
C1502 C1500 1.391 . S
C1502 C1503 1.400 . S
C1503 C1502 1.400 . S
C1503 C1504 1.398 . S
C1503 C1509 1.491 . S
C1504 H1495 0.950 . S
C1504 C1503 1.398 . S
C1504 C1505 1.391 . S
C1505 H1493 0.950 . S
C1505 C1501 1.393 . S
C1505 C1504 1.391 . S
C1506 H1496 0.950 . S
C1506 C1507 1.386 . S
C1506 C1508 1.391 . S
C1507 C1506 1.386 . S
C1507 C1511 1.393 . S
C1508 H1497 0.950 . S
C1508 C1506 1.391 . S
C1508 C1509 1.400 . S
C1509 C1503 1.491 . S
C1509 C1508 1.400 . S
C1509 C1510 1.398 . S
C1510 H1498 0.950 . S
C1510 C1509 1.398 . S
C1510 C1511 1.391 . S
C1511 H1499 0.950 . S
C1511 C1507 1.393 . S
C1511 C1510 1.391 . S
H1512 C1520 0.950 . S
H1513 C1525 0.950 . S
H1514 C1522 0.950 . S
H1515 C1524 0.950 . S
H1516 C1526 0.950 . S
H1517 C1528 0.950 . S
H1518 C1530 0.950 . S
H1519 C1531 0.950 . S
C1520 H1512 0.950 . S
C1520 C1521 1.386 . S
C1520 C1522 1.391 . S
C1521 C1520 1.386 . S
C1521 C1525 1.393 . S
C1522 H1514 0.950 . S
C1522 C1520 1.391 . S
C1522 C1523 1.400 . S
C1523 C1522 1.400 . S
C1523 C1524 1.398 . S
C1523 C1529 1.491 . S
C1524 H1515 0.950 . S
C1524 C1523 1.398 . S
C1524 C1525 1.391 . S
C1525 H1513 0.950 . S
C1525 C1521 1.393 . S
C1525 C1524 1.391 . S
C1526 H1516 0.950 . S
C1526 C1527 1.386 . S
C1526 C1528 1.391 . S
C1527 C1526 1.386 . S
C1527 C1531 1.393 . S
C1528 H1517 0.950 . S
C1528 C1526 1.391 . S
C1528 C1529 1.400 . S
C1529 C1523 1.491 . S
C1529 C1528 1.400 . S
C1529 C1530 1.398 . S
C1530 H1518 0.950 . S
C1530 C1529 1.398 . S
C1530 C1531 1.391 . S
C1531 H1519 0.950 . S
C1531 C1527 1.393 . S
C1531 C1530 1.391 . S
H1532 C1540 0.950 . S
H1533 C1545 0.950 . S
H1534 C1542 0.950 . S
H1535 C1544 0.950 . S
H1536 C1546 0.950 . S
H1537 C1548 0.950 . S
H1538 C1550 0.950 . S
H1539 C1551 0.950 . S
C1540 H1532 0.950 . S
C1540 C1541 1.386 . S
C1540 C1542 1.391 . S
C1541 C1540 1.386 . S
C1541 C1545 1.393 . S
C1542 H1534 0.950 . S
C1542 C1540 1.391 . S
C1542 C1543 1.400 . S
C1543 C1542 1.400 . S
C1543 C1544 1.398 . S
C1543 C1549 1.491 . S
C1544 H1535 0.950 . S
C1544 C1543 1.398 . S
C1544 C1545 1.391 . S
C1545 H1533 0.950 . S
C1545 C1541 1.393 . S
C1545 C1544 1.391 . S
C1546 H1536 0.950 . S
C1546 C1547 1.386 . S
C1546 C1548 1.391 . S
C1547 C1546 1.386 . S
C1547 C1551 1.393 . S
C1548 H1537 0.950 . S
C1548 C1546 1.391 . S
C1548 C1549 1.400 . S
C1549 C1543 1.491 . S
C1549 C1548 1.400 . S
C1549 C1550 1.398 . S
C1550 H1538 0.950 . S
C1550 C1549 1.398 . S
C1550 C1551 1.391 . S
C1551 H1539 0.950 . S
C1551 C1547 1.393 . S
C1551 C1550 1.391 . S
H1552 C1560 0.950 . S
H1553 C1565 0.950 . S
H1554 C1562 0.950 . S
H1555 C1564 0.950 . S
H1556 C1566 0.950 . S
H1557 C1568 0.950 . S
H1558 C1570 0.950 . S
H1559 C1571 0.950 . S
C1560 H1552 0.950 . S
C1560 C1561 1.386 . S
C1560 C1562 1.391 . S
C1561 C1560 1.386 . S
C1561 C1565 1.393 . S
C1562 H1554 0.950 . S
C1562 C1560 1.391 . S
C1562 C1563 1.400 . S
C1563 C1562 1.400 . S
C1563 C1564 1.398 . S
C1563 C1569 1.491 . S
C1564 H1555 0.950 . S
C1564 C1563 1.398 . S
C1564 C1565 1.391 . S
C1565 H1553 0.950 . S
C1565 C1561 1.393 . S
C1565 C1564 1.391 . S
C1566 H1556 0.950 . S
C1566 C1567 1.386 . S
C1566 C1568 1.391 . S
C1567 C1566 1.386 . S
C1567 C1571 1.393 . S
C1568 H1557 0.950 . S
C1568 C1566 1.391 . S
C1568 C1569 1.400 . S
C1569 C1563 1.491 . S
C1569 C1568 1.400 . S
C1569 C1570 1.398 . S
C1570 H1558 0.950 . S
C1570 C1569 1.398 . S
C1570 C1571 1.391 . S
C1571 H1559 0.950 . S
C1571 C1567 1.393 . S
C1571 C1570 1.391 . S
H1572 C1580 0.950 . S
H1573 C1585 0.950 . S
H1574 C1582 0.950 . S
H1575 C1584 0.950 . S
H1576 C1586 0.950 . S
H1577 C1588 0.950 . S
H1578 C1590 0.950 . S
H1579 C1591 0.950 . S
C1580 H1572 0.950 . S
C1580 C1581 1.386 . S
C1580 C1582 1.391 . S
C1581 C1580 1.386 . S
C1581 C1585 1.393 . S
C1582 H1574 0.950 . S
C1582 C1580 1.391 . S
C1582 C1583 1.400 . S
C1583 C1582 1.400 . S
C1583 C1584 1.398 . S
C1583 C1589 1.491 . S
C1584 H1575 0.950 . S
C1584 C1583 1.398 . S
C1584 C1585 1.391 . S
C1585 H1573 0.950 . S
C1585 C1581 1.393 . S
C1585 C1584 1.391 . S
C1586 H1576 0.950 . S
C1586 C1587 1.386 . S
C1586 C1588 1.391 . S
C1587 C1586 1.386 . S
C1587 C1591 1.393 . S
C1588 H1577 0.950 . S
C1588 C1586 1.391 . S
C1588 C1589 1.400 . S
C1589 C1583 1.491 . S
C1589 C1588 1.400 . S
C1589 C1590 1.398 . S
C1590 H1578 0.950 . S
C1590 C1589 1.398 . S
C1590 C1591 1.391 . S
C1591 H1579 0.950 . S
C1591 C1587 1.393 . S
C1591 C1590 1.391 . S
H1592 C1600 0.950 . S
H1593 C1605 0.950 . S
H1594 C1602 0.950 . S
H1595 C1604 0.950 . S
H1596 C1606 0.950 . S
H1597 C1608 0.950 . S
H1598 C1610 0.950 . S
H1599 C1611 0.950 . S
C1600 H1592 0.950 . S
C1600 C1601 1.386 . S
C1600 C1602 1.391 . S
C1601 C1600 1.386 . S
C1601 C1605 1.393 . S
C1602 H1594 0.950 . S
C1602 C1600 1.391 . S
C1602 C1603 1.400 . S
C1603 C1602 1.400 . S
C1603 C1604 1.398 . S
C1603 C1609 1.491 . S
C1604 H1595 0.950 . S
C1604 C1603 1.398 . S
C1604 C1605 1.391 . S
C1605 H1593 0.950 . S
C1605 C1601 1.393 . S
C1605 C1604 1.391 . S
C1606 H1596 0.950 . S
C1606 C1607 1.386 . S
C1606 C1608 1.391 . S
C1607 C1606 1.386 . S
C1607 C1611 1.393 . S
C1608 H1597 0.950 . S
C1608 C1606 1.391 . S
C1608 C1609 1.400 . S
C1609 C1603 1.491 . S
C1609 C1608 1.400 . S
C1609 C1610 1.398 . S
C1610 H1598 0.950 . S
C1610 C1609 1.398 . S
C1610 C1611 1.391 . S
C1611 H1599 0.950 . S
C1611 C1607 1.393 . S
C1611 C1610 1.391 . S
H1612 C1620 0.950 . S
H1613 C1625 0.950 . S
H1614 C1622 0.950 . S
H1615 C1624 0.950 . S
H1616 C1626 0.950 . S
H1617 C1628 0.950 . S
H1618 C1630 0.950 . S
H1619 C1631 0.950 . S
C1620 H1612 0.950 . S
C1620 C1621 1.386 . S
C1620 C1622 1.391 . S
C1621 C1620 1.386 . S
C1621 C1625 1.393 . S
C1622 H1614 0.950 . S
C1622 C1620 1.391 . S
C1622 C1623 1.400 . S
C1623 C1622 1.400 . S
C1623 C1624 1.398 . S
C1623 C1629 1.491 . S
C1624 H1615 0.950 . S
C1624 C1623 1.398 . S
C1624 C1625 1.391 . S
C1625 H1613 0.950 . S
C1625 C1621 1.393 . S
C1625 C1624 1.391 . S
C1626 H1616 0.950 . S
C1626 C1627 1.386 . S
C1626 C1628 1.391 . S
C1627 C1626 1.386 . S
C1627 C1631 1.393 . S
C1628 H1617 0.950 . S
C1628 C1626 1.391 . S
C1628 C1629 1.400 . S
C1629 C1623 1.491 . S
C1629 C1628 1.400 . S
C1629 C1630 1.398 . S
C1630 H1618 0.950 . S
C1630 C1629 1.398 . S
C1630 C1631 1.391 . S
C1631 H1619 0.950 . S
C1631 C1627 1.393 . S
C1631 C1630 1.391 . S
H1632 C1640 0.950 . S
H1633 C1645 0.950 . S
H1634 C1642 0.950 . S
H1635 C1644 0.950 . S
H1636 C1646 0.950 . S
H1637 C1648 0.950 . S
H1638 C1650 0.950 1_554 S
H1639 C1651 0.950 . S
C1640 H1632 0.950 . S
C1640 C1641 1.386 . S
C1640 C1642 1.391 . S
C1641 C1640 1.386 . S
C1641 C1645 1.393 1_455 S
C1642 H1634 0.950 . S
C1642 C1640 1.391 . S
C1642 C1643 1.400 . S
C1643 C1642 1.400 . S
C1643 C1644 1.398 1_455 S
C1643 C1649 1.491 . S
C1644 H1635 0.950 . S
C1644 C1643 1.398 1_655 S
C1644 C1645 1.391 . S
C1645 H1633 0.950 . S
C1645 C1641 1.393 1_655 S
C1645 C1644 1.391 . S
C1646 H1636 0.950 . S
C1646 C1647 1.386 1_656 S
C1646 C1648 1.391 . S
C1647 C1646 1.386 1_454 S
C1647 C1651 1.393 . S
C1648 H1637 0.950 . S
C1648 C1646 1.391 . S
C1648 C1649 1.400 1_655 S
C1649 C1643 1.491 . S
C1649 C1648 1.400 1_455 S
C1649 C1650 1.398 . S
C1650 H1638 0.950 1_556 S
C1650 C1649 1.398 . S
C1650 C1651 1.391 1_556 S
C1651 H1639 0.950 . S
C1651 C1647 1.393 . S
C1651 C1650 1.391 1_554 S
H1652 C1660 0.950 . S
H1653 C1665 0.950 . S
H1654 C1662 0.950 . S
H1655 C1664 0.950 . S
H1656 C1666 0.950 . S
H1657 C1668 0.950 . S
H1658 C1670 0.950 . S
H1659 C1671 0.950 . S
C1660 H1652 0.950 . S
C1660 C1661 1.386 . S
C1660 C1662 1.391 . S
C1661 C1660 1.386 . S
C1661 C1665 1.393 . S
C1662 H1654 0.950 . S
C1662 C1660 1.391 . S
C1662 C1663 1.400 . S
C1663 C1662 1.400 . S
C1663 C1664 1.398 . S
C1663 C1669 1.491 . S
C1664 H1655 0.950 . S
C1664 C1663 1.398 . S
C1664 C1665 1.391 . S
C1665 H1653 0.950 . S
C1665 C1661 1.393 . S
C1665 C1664 1.391 . S
C1666 H1656 0.950 . S
C1666 C1667 1.386 . S
C1666 C1668 1.391 . S
C1667 C1666 1.386 . S
C1667 C1671 1.393 . S
C1668 H1657 0.950 . S
C1668 C1666 1.391 . S
C1668 C1669 1.400 . S
C1669 C1663 1.491 . S
C1669 C1668 1.400 . S
C1669 C1670 1.398 . S
C1670 H1658 0.950 . S
C1670 C1669 1.398 . S
C1670 C1671 1.391 . S
C1671 H1659 0.950 . S
C1671 C1667 1.393 . S
C1671 C1670 1.391 . S
H1672 C1680 0.950 . S
H1673 C1685 0.950 . S
H1674 C1682 0.950 . S
H1675 C1684 0.950 . S
H1676 C1686 0.950 . S
H1677 C1688 0.950 . S
H1678 C1690 0.950 . S
H1679 C1691 0.950 . S
C1680 H1672 0.950 . S
C1680 C1681 1.386 . S
C1680 C1682 1.391 . S
C1681 C1680 1.386 . S
C1681 C1685 1.393 . S
C1682 H1674 0.950 . S
C1682 C1680 1.391 . S
C1682 C1683 1.400 . S
C1683 C1682 1.400 . S
C1683 C1684 1.398 . S
C1683 C1689 1.491 . S
C1684 H1675 0.950 . S
C1684 C1683 1.398 . S
C1684 C1685 1.391 . S
C1685 H1673 0.950 . S
C1685 C1681 1.393 . S
C1685 C1684 1.391 . S
C1686 H1676 0.950 . S
C1686 C1687 1.386 . S
C1686 C1688 1.391 . S
C1687 C1686 1.386 . S
C1687 C1691 1.393 . S
C1688 H1677 0.950 . S
C1688 C1686 1.391 . S
C1688 C1689 1.400 . S
C1689 C1683 1.491 . S
C1689 C1688 1.400 . S
C1689 C1690 1.398 . S
C1690 H1678 0.950 . S
C1690 C1689 1.398 . S
C1690 C1691 1.391 . S
C1691 H1679 0.950 . S
C1691 C1687 1.393 . S
C1691 C1690 1.391 . S
H1692 C1700 0.950 . S
H1693 C1705 0.950 . S
H1694 C1702 0.950 . S
H1695 C1704 0.950 . S
H1696 C1706 0.950 . S
H1697 C1708 0.950 . S
H1698 C1710 0.950 . S
H1699 C1711 0.950 . S
C1700 H1692 0.950 . S
C1700 C1701 1.386 . S
C1700 C1702 1.391 . S
C1701 C1700 1.386 . S
C1701 C1705 1.393 . S
C1702 H1694 0.950 . S
C1702 C1700 1.391 . S
C1702 C1703 1.400 . S
C1703 C1702 1.400 . S
C1703 C1704 1.398 . S
C1703 C1709 1.491 . S
C1704 H1695 0.950 . S
C1704 C1703 1.398 . S
C1704 C1705 1.391 . S
C1705 H1693 0.950 . S
C1705 C1701 1.393 . S
C1705 C1704 1.391 . S
C1706 H1696 0.950 . S
C1706 C1707 1.386 . S
C1706 C1708 1.391 . S
C1707 C1706 1.386 . S
C1707 C1711 1.393 . S
C1708 H1697 0.950 . S
C1708 C1706 1.391 . S
C1708 C1709 1.400 . S
C1709 C1703 1.491 . S
C1709 C1708 1.400 . S
C1709 C1710 1.398 . S
C1710 H1698 0.950 . S
C1710 C1709 1.398 . S
C1710 C1711 1.391 . S
C1711 H1699 0.950 . S
C1711 C1707 1.393 . S
C1711 C1710 1.391 . S
H1712 C1720 0.950 . S
H1713 C1725 0.950 . S
H1714 C1722 0.950 . S
H1715 C1724 0.950 . S
H1716 C1726 0.950 . S
H1717 C1728 0.950 . S
H1718 C1730 0.950 . S
H1719 C1731 0.950 . S
C1720 H1712 0.950 . S
C1720 C1721 1.386 1_655 S
C1720 C1722 1.391 . S
C1721 C1720 1.386 1_455 S
C1721 C1725 1.393 . S
C1722 H1714 0.950 . S
C1722 C1720 1.391 . S
C1722 C1723 1.400 1_655 S
C1723 C1722 1.400 1_455 S
C1723 C1724 1.398 . S
C1723 C1729 1.491 . S
C1724 H1715 0.950 . S
C1724 C1723 1.398 . S
C1724 C1725 1.391 . S
C1725 H1713 0.950 . S
C1725 C1721 1.393 . S
C1725 C1724 1.391 . S
C1726 H1716 0.950 . S
C1726 C1727 1.386 . S
C1726 C1728 1.391 . S
C1727 C1726 1.386 . S
C1727 C1731 1.393 1_455 S
C1728 H1717 0.950 . S
C1728 C1726 1.391 . S
C1728 C1729 1.400 . S
C1729 C1723 1.491 . S
C1729 C1728 1.400 . S
C1729 C1730 1.398 1_455 S
C1730 H1718 0.950 . S
C1730 C1729 1.398 1_655 S
C1730 C1731 1.390 . S
C1731 H1719 0.950 . S
C1731 C1727 1.393 1_655 S
C1731 C1730 1.390 . S
H1732 C1740 0.950 . S
H1733 C1745 0.950 . S
H1734 C1742 0.950 . S
H1735 C1744 0.950 . S
H1736 C1746 0.950 . S
H1737 C1748 0.950 . S
H1738 C1750 0.950 . S
H1739 C1751 0.950 . S
C1740 H1732 0.950 . S
C1740 C1741 1.386 . S
C1740 C1742 1.391 . S
C1741 C1740 1.386 . S
C1741 C1745 1.393 . S
C1742 H1734 0.950 . S
C1742 C1740 1.391 . S
C1742 C1743 1.400 . S
C1743 C1742 1.400 . S
C1743 C1744 1.398 . S
C1743 C1749 1.491 . S
C1744 H1735 0.950 . S
C1744 C1743 1.398 . S
C1744 C1745 1.391 . S
C1745 H1733 0.950 . S
C1745 C1741 1.393 . S
C1745 C1744 1.391 . S
C1746 H1736 0.950 . S
C1746 C1747 1.386 . S
C1746 C1748 1.391 . S
C1747 C1746 1.386 . S
C1747 C1751 1.393 . S
C1748 H1737 0.950 . S
C1748 C1746 1.391 . S
C1748 C1749 1.400 . S
C1749 C1743 1.491 . S
C1749 C1748 1.400 . S
C1749 C1750 1.398 . S
C1750 H1738 0.950 . S
C1750 C1749 1.398 . S
C1750 C1751 1.391 . S
C1751 H1739 0.950 . S
C1751 C1747 1.393 . S
C1751 C1750 1.391 . S
H1752 C1760 0.950 . S
H1753 C1765 0.950 . S
H1754 C1762 0.950 . S
H1755 C1764 0.950 . S
H1756 C1766 0.950 . S
H1757 C1768 0.950 . S
H1758 C1770 0.950 . S
H1759 C1771 0.950 . S
C1760 H1752 0.950 . S
C1760 C1761 1.386 . S
C1760 C1762 1.391 . S
C1761 C1760 1.386 . S
C1761 C1765 1.393 . S
C1762 H1754 0.950 . S
C1762 C1760 1.391 . S
C1762 C1763 1.400 . S
C1763 C1762 1.400 . S
C1763 C1764 1.398 . S
C1763 C1769 1.491 . S
C1764 H1755 0.950 . S
C1764 C1763 1.398 . S
C1764 C1765 1.391 . S
C1765 H1753 0.950 . S
C1765 C1761 1.393 . S
C1765 C1764 1.391 . S
C1766 H1756 0.950 . S
C1766 C1767 1.386 . S
C1766 C1768 1.391 . S
C1767 C1766 1.386 . S
C1767 C1771 1.393 . S
C1768 H1757 0.950 . S
C1768 C1766 1.391 . S
C1768 C1769 1.400 . S
C1769 C1763 1.491 . S
C1769 C1768 1.400 . S
C1769 C1770 1.398 . S
C1770 H1758 0.950 . S
C1770 C1769 1.398 . S
C1770 C1771 1.391 . S
C1771 H1759 0.950 . S
C1771 C1767 1.393 . S
C1771 C1770 1.391 . S
H1772 C1780 0.950 . S
H1773 C1785 0.950 . S
H1774 C1782 0.950 . S
H1775 C1784 0.950 . S
H1776 C1786 0.950 . S
H1777 C1788 0.950 . S
H1778 C1790 0.950 . S
H1779 C1791 0.950 . S
C1780 H1772 0.950 . S
C1780 C1781 1.386 . S
C1780 C1782 1.391 . S
C1781 C1780 1.386 . S
C1781 C1785 1.393 . S
C1782 H1774 0.950 . S
C1782 C1780 1.391 . S
C1782 C1783 1.400 . S
C1783 C1782 1.400 . S
C1783 C1784 1.398 . S
C1783 C1789 1.491 . S
C1784 H1775 0.950 . S
C1784 C1783 1.398 . S
C1784 C1785 1.391 . S
C1785 H1773 0.950 . S
C1785 C1781 1.393 . S
C1785 C1784 1.391 . S
C1786 H1776 0.950 . S
C1786 C1787 1.386 . S
C1786 C1788 1.391 . S
C1787 C1786 1.386 . S
C1787 C1791 1.393 . S
C1788 H1777 0.950 . S
C1788 C1786 1.391 . S
C1788 C1789 1.400 . S
C1789 C1783 1.491 . S
C1789 C1788 1.400 . S
C1789 C1790 1.398 . S
C1790 H1778 0.950 . S
C1790 C1789 1.398 . S
C1790 C1791 1.391 . S
C1791 H1779 0.950 . S
C1791 C1787 1.393 . S
C1791 C1790 1.391 . S
H1792 C1800 0.950 . S
H1793 C1805 0.950 . S
H1794 C1802 0.950 . S
H1795 C1804 0.950 . S
H1796 C1806 0.950 . S
H1797 C1808 0.950 . S
H1798 C1810 0.950 . S
H1799 C1811 0.950 . S
C1800 H1792 0.950 . S
C1800 C1801 1.386 . S
C1800 C1802 1.391 . S
C1801 C1800 1.386 . S
C1801 C1805 1.393 . S
C1802 H1794 0.950 . S
C1802 C1800 1.391 . S
C1802 C1803 1.400 . S
C1803 C1802 1.400 . S
C1803 C1804 1.398 . S
C1803 C1809 1.491 . S
C1804 H1795 0.950 . S
C1804 C1803 1.398 . S
C1804 C1805 1.391 . S
C1805 H1793 0.950 . S
C1805 C1801 1.393 . S
C1805 C1804 1.391 . S
C1806 H1796 0.950 . S
C1806 C1807 1.386 . S
C1806 C1808 1.391 . S
C1807 C1806 1.386 . S
C1807 C1811 1.393 . S
C1808 H1797 0.950 . S
C1808 C1806 1.391 . S
C1808 C1809 1.400 . S
C1809 C1803 1.491 . S
C1809 C1808 1.400 . S
C1809 C1810 1.398 . S
C1810 H1798 0.950 . S
C1810 C1809 1.398 . S
C1810 C1811 1.391 . S
C1811 H1799 0.950 . S
C1811 C1807 1.393 . S
C1811 C1810 1.391 . S
H1812 C1820 0.950 . S
H1813 C1825 0.950 . S
H1814 C1822 0.950 . S
H1815 C1824 0.950 . S
H1816 C1826 0.950 . S
H1817 C1828 0.950 . S
H1818 C1830 0.950 . S
H1819 C1831 0.950 . S
C1820 H1812 0.950 . S
C1820 C1821 1.386 . S
C1820 C1822 1.391 . S
C1821 C1820 1.386 . S
C1821 C1825 1.393 . S
C1822 H1814 0.950 . S
C1822 C1820 1.391 . S
C1822 C1823 1.400 . S
C1823 C1822 1.400 . S
C1823 C1824 1.398 . S
C1823 C1829 1.491 . S
C1824 H1815 0.950 . S
C1824 C1823 1.398 . S
C1824 C1825 1.391 . S
C1825 H1813 0.950 . S
C1825 C1821 1.393 . S
C1825 C1824 1.391 . S
C1826 H1816 0.950 . S
C1826 C1827 1.386 . S
C1826 C1828 1.391 . S
C1827 C1826 1.386 . S
C1827 C1831 1.393 . S
C1828 H1817 0.950 . S
C1828 C1826 1.391 . S
C1828 C1829 1.400 . S
C1829 C1823 1.491 . S
C1829 C1828 1.400 . S
C1829 C1830 1.398 . S
C1830 H1818 0.950 . S
C1830 C1829 1.398 . S
C1830 C1831 1.391 . S
C1831 H1819 0.950 . S
C1831 C1827 1.393 . S
C1831 C1830 1.391 . S
H1832 C1840 0.950 . S
H1833 C1845 0.950 . S
H1834 C1842 0.950 . S
H1835 C1844 0.950 . S
H1836 C1846 0.950 . S
H1837 C1848 0.950 . S
H1838 C1850 0.950 . S
H1839 C1851 0.950 . S
C1840 H1832 0.950 . S
C1840 C1841 1.386 . S
C1840 C1842 1.391 . S
C1841 C1840 1.386 . S
C1841 C1845 1.393 . S
C1842 H1834 0.950 . S
C1842 C1840 1.391 . S
C1842 C1843 1.400 . S
C1843 C1842 1.400 . S
C1843 C1844 1.398 . S
C1843 C1849 1.491 . S
C1844 H1835 0.950 . S
C1844 C1843 1.398 . S
C1844 C1845 1.391 . S
C1845 H1833 0.950 . S
C1845 C1841 1.393 . S
C1845 C1844 1.391 . S
C1846 H1836 0.950 . S
C1846 C1847 1.386 . S
C1846 C1848 1.391 . S
C1847 C1846 1.386 . S
C1847 C1851 1.393 . S
C1848 H1837 0.950 . S
C1848 C1846 1.391 . S
C1848 C1849 1.400 . S
C1849 C1843 1.491 . S
C1849 C1848 1.400 . S
C1849 C1850 1.398 . S
C1850 H1838 0.950 . S
C1850 C1849 1.398 . S
C1850 C1851 1.391 . S
C1851 H1839 0.950 . S
C1851 C1847 1.393 . S
C1851 C1850 1.391 . S
H1852 C1860 0.950 . S
H1853 C1865 0.950 . S
H1854 C1862 0.950 . S
H1855 C1864 0.950 . S
H1856 C1866 0.950 . S
H1857 C1868 0.950 . S
H1858 C1870 0.950 . S
H1859 C1871 0.950 . S
C1860 H1852 0.950 . S
C1860 C1861 1.386 . S
C1860 C1862 1.391 . S
C1861 C1860 1.386 . S
C1861 C1865 1.393 . S
C1862 H1854 0.950 . S
C1862 C1860 1.391 . S
C1862 C1863 1.400 . S
C1863 C1862 1.400 . S
C1863 C1864 1.398 . S
C1863 C1869 1.491 . S
C1864 H1855 0.950 . S
C1864 C1863 1.398 . S
C1864 C1865 1.391 . S
C1865 H1853 0.950 . S
C1865 C1861 1.393 . S
C1865 C1864 1.391 . S
C1866 H1856 0.950 . S
C1866 C1867 1.386 . S
C1866 C1868 1.391 . S
C1867 C1866 1.386 . S
C1867 C1871 1.393 . S
C1868 H1857 0.950 . S
C1868 C1866 1.391 . S
C1868 C1869 1.400 . S
C1869 C1863 1.491 . S
C1869 C1868 1.400 . S
C1869 C1870 1.398 . S
C1870 H1858 0.950 . S
C1870 C1869 1.398 . S
C1870 C1871 1.391 . S
C1871 H1859 0.950 . S
C1871 C1867 1.393 . S
C1871 C1870 1.391 . S
H1872 C1880 0.950 . S
H1873 C1885 0.950 . S
H1874 C1882 0.950 . S
H1875 C1884 0.950 . S
H1876 C1886 0.950 . S
H1877 C1888 0.950 . S
H1878 C1890 0.950 . S
H1879 C1891 0.950 . S
C1880 H1872 0.950 . S
C1880 C1881 1.386 . S
C1880 C1882 1.391 . S
C1881 C1880 1.386 . S
C1881 C1885 1.393 . S
C1882 H1874 0.950 . S
C1882 C1880 1.391 . S
C1882 C1883 1.400 . S
C1883 C1882 1.400 . S
C1883 C1884 1.398 . S
C1883 C1889 1.491 . S
C1884 H1875 0.950 . S
C1884 C1883 1.398 . S
C1884 C1885 1.391 . S
C1885 H1873 0.950 . S
C1885 C1881 1.393 . S
C1885 C1884 1.391 . S
C1886 H1876 0.950 . S
C1886 C1887 1.386 . S
C1886 C1888 1.391 . S
C1887 C1886 1.386 . S
C1887 C1891 1.393 . S
C1888 H1877 0.950 . S
C1888 C1886 1.391 . S
C1888 C1889 1.400 . S
C1889 C1883 1.491 . S
C1889 C1888 1.400 . S
C1889 C1890 1.398 . S
C1890 H1878 0.950 . S
C1890 C1889 1.398 . S
C1890 C1891 1.391 . S
C1891 H1879 0.950 . S
C1891 C1887 1.393 . S
C1891 C1890 1.391 . S
H1892 C1900 0.950 . S
H1893 C1905 0.950 . S
H1894 C1902 0.950 . S
H1895 C1904 0.950 . S
H1896 C1906 0.950 . S
H1897 C1908 0.950 . S
H1898 C1910 0.950 . S
H1899 C1911 0.950 . S
C1900 H1892 0.950 . S
C1900 C1901 1.386 . S
C1900 C1902 1.391 . S
C1901 C1900 1.386 . S
C1901 C1905 1.393 . S
C1902 H1894 0.950 . S
C1902 C1900 1.391 . S
C1902 C1903 1.400 . S
C1903 C1902 1.400 . S
C1903 C1904 1.398 . S
C1903 C1909 1.491 . S
C1904 H1895 0.950 . S
C1904 C1903 1.398 . S
C1904 C1905 1.391 . S
C1905 H1893 0.950 . S
C1905 C1901 1.393 . S
C1905 C1904 1.391 . S
C1906 H1896 0.950 . S
C1906 C1907 1.386 . S
C1906 C1908 1.391 . S
C1907 C1906 1.386 . S
C1907 C1911 1.393 . S
C1908 H1897 0.950 . S
C1908 C1906 1.391 . S
C1908 C1909 1.400 . S
C1909 C1903 1.491 . S
C1909 C1908 1.400 . S
C1909 C1910 1.398 . S
C1910 H1898 0.950 . S
C1910 C1909 1.398 . S
C1910 C1911 1.391 . S
C1911 H1899 0.950 . S
C1911 C1907 1.393 . S
C1911 C1910 1.391 . S
H1912 C1920 0.950 . S
H1913 C1925 0.950 . S
H1914 C1922 0.950 . S
H1915 C1924 0.950 . S
H1916 C1926 0.950 . S
H1917 C1928 0.950 . S
H1918 C1930 0.950 . S
H1919 C1931 0.950 . S
C1920 H1912 0.950 . S
C1920 C1921 1.386 . S
C1920 C1922 1.391 . S
C1921 C1920 1.386 . S
C1921 C1925 1.393 . S
C1922 H1914 0.950 . S
C1922 C1920 1.391 . S
C1922 C1923 1.400 . S
C1923 C1922 1.400 . S
C1923 C1924 1.398 . S
C1923 C1929 1.491 . S
C1924 H1915 0.950 . S
C1924 C1923 1.398 . S
C1924 C1925 1.391 . S
C1925 H1913 0.950 . S
C1925 C1921 1.393 . S
C1925 C1924 1.391 . S
C1926 H1916 0.950 . S
C1926 C1927 1.386 . S
C1926 C1928 1.391 . S
C1927 C1926 1.386 . S
C1927 C1931 1.393 . S
C1928 H1917 0.950 . S
C1928 C1926 1.391 . S
C1928 C1929 1.400 . S
C1929 C1923 1.491 . S
C1929 C1928 1.400 . S
C1929 C1930 1.398 . S
C1930 H1918 0.950 . S
C1930 C1929 1.398 . S
C1930 C1931 1.391 . S
C1931 H1919 0.950 . S
C1931 C1927 1.393 . S
C1931 C1930 1.391 . S
H1932 C1940 0.950 . S
H1933 C1945 0.950 . S
H1934 C1942 0.950 . S
H1935 C1944 0.950 . S
H1936 C1946 0.950 . S
H1937 C1948 0.950 . S
H1938 C1950 0.950 . S
H1939 C1951 0.950 . S
C1940 H1932 0.950 . S
C1940 C1941 1.386 . S
C1940 C1942 1.391 . S
C1941 C1940 1.386 . S
C1941 C1945 1.393 . S
C1942 H1934 0.950 . S
C1942 C1940 1.391 . S
C1942 C1943 1.400 . S
C1943 C1942 1.400 . S
C1943 C1944 1.398 . S
C1943 C1949 1.491 . S
C1944 H1935 0.950 . S
C1944 C1943 1.398 . S
C1944 C1945 1.391 . S
C1945 H1933 0.950 . S
C1945 C1941 1.393 . S
C1945 C1944 1.391 . S
C1946 H1936 0.950 . S
C1946 C1947 1.386 . S
C1946 C1948 1.391 . S
C1947 C1946 1.386 . S
C1947 C1951 1.393 . S
C1948 H1937 0.950 . S
C1948 C1946 1.391 . S
C1948 C1949 1.400 . S
C1949 C1943 1.491 . S
C1949 C1948 1.400 . S
C1949 C1950 1.398 . S
C1950 H1938 0.950 . S
C1950 C1949 1.398 . S
C1950 C1951 1.391 . S
C1951 H1939 0.950 . S
C1951 C1947 1.393 . S
C1951 C1950 1.391 . S
H1952 C1960 0.950 . S
H1953 C1965 0.950 . S
H1954 C1962 0.950 . S
H1955 C1964 0.950 . S
H1956 C1966 0.950 . S
H1957 C1968 0.950 . S
H1958 C1970 0.950 . S
H1959 C1971 0.950 . S
C1960 H1952 0.950 . S
C1960 C1961 1.386 . S
C1960 C1962 1.391 . S
C1961 C1960 1.386 . S
C1961 C1965 1.393 . S
C1962 H1954 0.950 . S
C1962 C1960 1.391 . S
C1962 C1963 1.400 . S
C1963 C1962 1.400 . S
C1963 C1964 1.398 . S
C1963 C1969 1.491 . S
C1964 H1955 0.950 . S
C1964 C1963 1.398 . S
C1964 C1965 1.391 . S
C1965 H1953 0.950 . S
C1965 C1961 1.393 . S
C1965 C1964 1.391 . S
C1966 H1956 0.950 . S
C1966 C1967 1.386 . S
C1966 C1968 1.391 . S
C1967 C1966 1.386 . S
C1967 C1971 1.393 . S
C1968 H1957 0.950 . S
C1968 C1966 1.391 . S
C1968 C1969 1.400 . S
C1969 C1963 1.491 . S
C1969 C1968 1.400 . S
C1969 C1970 1.398 . S
C1970 H1958 0.950 . S
C1970 C1969 1.398 . S
C1970 C1971 1.391 . S
C1971 H1959 0.950 . S
C1971 C1967 1.393 . S
C1971 C1970 1.391 . S
H1972 C1980 0.950 . S
H1973 C1985 0.954 . S
H1974 C1982 0.950 . S
H1975 C1984 0.934 1_556 S
H1976 C1986 0.950 . S
H1977 C1988 0.948 1_556 S
H1978 C1990 0.950 . S
H1979 C1991 0.950 . S
C1980 H1972 0.950 . S
C1980 C1981 1.386 . S
C1980 C1982 1.391 . S
C1981 C1980 1.386 . S
C1981 C1985 1.393 . S
C1982 H1974 0.950 . S
C1982 C1980 1.391 . S
C1982 C1983 1.400 . S
C1983 C1982 1.400 . S
C1983 C1984 1.398 . S
C1983 C1989 1.491 . S
C1984 H1975 0.934 1_554 S
C1984 C1983 1.398 . S
C1984 C1985 1.391 . S
C1985 H1973 0.954 . S
C1985 C1981 1.393 . S
C1985 C1984 1.391 . S
C1986 H1976 0.950 . S
C1986 C1987 1.386 1_556 S
C1986 C1988 1.390 1_556 S
C1987 C1986 1.386 1_554 S
C1987 C1991 1.393 1_565 S
C1988 H1977 0.948 1_554 S
C1988 C1986 1.390 1_554 S
C1988 C1989 1.404 . S
C1989 C1983 1.491 . S
C1989 C1988 1.404 . S
C1989 C1990 1.398 . S
C1990 H1978 0.950 . S
C1990 C1989 1.398 . S
C1990 C1991 1.391 1_565 S
C1991 H1979 0.950 . S
C1991 C1987 1.393 1_545 S
C1991 C1990 1.391 1_545 S
H1992 C2000 0.950 . S
H1993 C2005 0.950 . S
H1994 C2002 0.950 . S
H1995 C2004 0.950 . S
H1996 C2006 0.950 . S
H1997 C2008 0.950 . S
H1998 C2010 0.950 . S
H1999 C2011 0.950 . S
C2000 H1992 0.950 . S
C2000 C2001 1.386 . S
C2000 C2002 1.391 . S
C2001 C2000 1.386 . S
C2001 C2005 1.393 . S
C2002 H1994 0.950 . S
C2002 C2000 1.391 . S
C2002 C2003 1.400 . S
C2003 C2002 1.400 . S
C2003 C2004 1.398 . S
C2003 C2009 1.491 . S
C2004 H1995 0.950 . S
C2004 C2003 1.398 . S
C2004 C2005 1.391 . S
C2005 H1993 0.950 . S
C2005 C2001 1.393 . S
C2005 C2004 1.391 . S
C2006 H1996 0.950 . S
C2006 C2007 1.386 . S
C2006 C2008 1.391 . S
C2007 C2006 1.386 . S
C2007 C2011 1.393 . S
C2008 H1997 0.950 . S
C2008 C2006 1.391 . S
C2008 C2009 1.400 . S
C2009 C2003 1.491 . S
C2009 C2008 1.400 . S
C2009 C2010 1.398 . S
C2010 H1998 0.950 . S
C2010 C2009 1.398 . S
C2010 C2011 1.391 . S
C2011 H1999 0.950 . S
C2011 C2007 1.393 . S
C2011 C2010 1.391 . S
H2012 C2020 0.950 . S
H2013 C2025 0.950 1_556 S
H2014 C2022 0.950 . S
H2015 C2024 0.950 . S
H2016 C2026 0.950 . S
H2017 C2028 0.950 . S
H2018 C2030 0.950 . S
H2019 C2031 0.950 . S
C2020 H2012 0.950 . S
C2020 C2021 1.386 . S
C2020 C2022 1.391 . S
C2021 C2020 1.386 . S
C2021 C2025 1.393 . S
C2022 H2014 0.950 . S
C2022 C2020 1.391 . S
C2022 C2023 1.400 . S
C2023 C2022 1.400 . S
C2023 C2024 1.398 . S
C2023 C2029 1.491 . S
C2024 H2015 0.950 . S
C2024 C2023 1.398 . S
C2024 C2025 1.391 . S
C2025 H2013 0.950 1_554 S
C2025 C2021 1.393 . S
C2025 C2024 1.391 . S
C2026 H2016 0.950 . S
C2026 C2027 1.386 . S
C2026 C2028 1.391 . S
C2027 C2026 1.386 . S
C2027 C2031 1.393 . S
C2028 H2017 0.950 . S
C2028 C2026 1.391 . S
C2028 C2029 1.400 . S
C2029 C2023 1.491 . S
C2029 C2028 1.400 . S
C2029 C2030 1.398 . S
C2030 H2018 0.950 . S
C2030 C2029 1.398 . S
C2030 C2031 1.391 . S
C2031 H2019 0.950 . S
C2031 C2027 1.393 . S
C2031 C2030 1.391 . S
H2032 C2040 0.950 . S
H2033 C2045 0.950 . S
H2034 C2042 0.950 . S
H2035 C2044 0.950 . S
H2036 C2046 0.950 . S
H2037 C2048 0.950 . S
H2038 C2050 0.950 . S
H2039 C2051 0.950 . S
C2040 H2032 0.950 . S
C2040 C2041 1.386 . S
C2040 C2042 1.391 . S
C2041 C2040 1.386 . S
C2041 C2045 1.393 . S
C2042 H2034 0.950 . S
C2042 C2040 1.391 . S
C2042 C2043 1.400 . S
C2043 C2042 1.400 . S
C2043 C2044 1.398 . S
C2043 C2049 1.491 . S
C2044 H2035 0.950 . S
C2044 C2043 1.398 . S
C2044 C2045 1.391 . S
C2045 H2033 0.950 . S
C2045 C2041 1.393 . S
C2045 C2044 1.391 . S
C2046 H2036 0.950 . S
C2046 C2047 1.386 . S
C2046 C2048 1.391 . S
C2047 C2046 1.386 . S
C2047 C2051 1.393 . S
C2048 H2037 0.950 . S
C2048 C2046 1.391 . S
C2048 C2049 1.400 . S
C2049 C2043 1.491 . S
C2049 C2048 1.400 . S
C2049 C2050 1.398 . S
C2050 H2038 0.950 . S
C2050 C2049 1.398 . S
C2050 C2051 1.391 . S
C2051 H2039 0.950 . S
C2051 C2047 1.393 . S
C2051 C2050 1.391 . S
H2052 C2060 0.950 . S
H2053 C2065 0.950 . S
H2054 C2062 0.950 . S
H2055 C2064 0.950 . S
H2056 C2066 0.950 . S
H2057 C2068 0.950 . S
H2058 C2070 0.950 . S
H2059 C2071 0.950 . S
C2060 H2052 0.950 . S
C2060 C2061 1.386 . S
C2060 C2062 1.391 . S
C2061 C2060 1.386 . S
C2061 C2065 1.393 . S
C2062 H2054 0.950 . S
C2062 C2060 1.391 . S
C2062 C2063 1.400 . S
C2063 C2062 1.400 . S
C2063 C2064 1.398 . S
C2063 C2069 1.491 . S
C2064 H2055 0.950 . S
C2064 C2063 1.398 . S
C2064 C2065 1.391 . S
C2065 H2053 0.950 . S
C2065 C2061 1.393 . S
C2065 C2064 1.391 . S
C2066 H2056 0.950 . S
C2066 C2067 1.386 . S
C2066 C2068 1.391 . S
C2067 C2066 1.386 . S
C2067 C2071 1.393 . S
C2068 H2057 0.950 . S
C2068 C2066 1.391 . S
C2068 C2069 1.400 . S
C2069 C2063 1.491 . S
C2069 C2068 1.400 . S
C2069 C2070 1.398 . S
C2070 H2058 0.950 . S
C2070 C2069 1.398 . S
C2070 C2071 1.391 . S
C2071 H2059 0.950 . S
C2071 C2067 1.393 . S
C2071 C2070 1.391 . S
H2072 C2080 0.950 . S
H2073 C2085 0.950 . S
H2074 C2082 0.950 . S
H2075 C2084 0.950 . S
H2076 C2086 0.950 . S
H2077 C2088 0.950 . S
H2078 C2090 0.950 . S
H2079 C2091 0.950 . S
C2080 H2072 0.950 . S
C2080 C2081 1.386 . S
C2080 C2082 1.391 . S
C2081 C2080 1.386 . S
C2081 C2085 1.393 . S
C2082 H2074 0.950 . S
C2082 C2080 1.391 . S
C2082 C2083 1.400 . S
C2083 C2082 1.400 . S
C2083 C2084 1.398 . S
C2083 C2089 1.491 . S
C2084 H2075 0.950 . S
C2084 C2083 1.398 . S
C2084 C2085 1.391 . S
C2085 H2073 0.950 . S
C2085 C2081 1.393 . S
C2085 C2084 1.391 . S
C2086 H2076 0.950 . S
C2086 C2087 1.386 . S
C2086 C2088 1.391 . S
C2087 C2086 1.386 . S
C2087 C2091 1.393 . S
C2088 H2077 0.950 . S
C2088 C2086 1.391 . S
C2088 C2089 1.400 . S
C2089 C2083 1.491 . S
C2089 C2088 1.400 . S
C2089 C2090 1.398 . S
C2090 H2078 0.950 . S
C2090 C2089 1.398 . S
C2090 C2091 1.391 . S
C2091 H2079 0.950 . S
C2091 C2087 1.393 . S
C2091 C2090 1.391 . S
H2092 C2100 0.950 . S
H2093 C2105 0.950 . S
H2094 C2102 0.950 . S
H2095 C2104 0.950 . S
H2096 C2106 0.950 . S
H2097 C2108 0.950 . S
H2098 C2110 0.950 . S
H2099 C2111 0.950 . S
C2100 H2092 0.950 . S
C2100 C2101 1.386 . S
C2100 C2102 1.391 . S
C2101 C2100 1.386 . S
C2101 C2105 1.393 . S
C2102 H2094 0.950 . S
C2102 C2100 1.391 . S
C2102 C2103 1.400 . S
C2103 C2102 1.400 . S
C2103 C2104 1.398 . S
C2103 C2109 1.491 . S
C2104 H2095 0.950 . S
C2104 C2103 1.398 . S
C2104 C2105 1.391 . S
C2105 H2093 0.950 . S
C2105 C2101 1.393 . S
C2105 C2104 1.391 . S
C2106 H2096 0.950 . S
C2106 C2107 1.386 . S
C2106 C2108 1.391 . S
C2107 C2106 1.386 . S
C2107 C2111 1.393 . S
C2108 H2097 0.950 . S
C2108 C2106 1.391 . S
C2108 C2109 1.400 . S
C2109 C2103 1.491 . S
C2109 C2108 1.400 . S
C2109 C2110 1.398 . S
C2110 H2098 0.950 . S
C2110 C2109 1.398 . S
C2110 C2111 1.391 . S
C2111 H2099 0.950 . S
C2111 C2107 1.393 . S
C2111 C2110 1.391 . S
H2112 C2120 0.934 1_655 S
H2113 C2125 0.950 . S
H2114 C2122 0.950 1_655 S
H2115 C2124 0.950 . S
H2116 C2126 0.950 . S
H2117 C2128 0.950 . S
H2118 C2130 0.950 1_655 S
H2119 C2131 0.950 1_655 S
C2120 H2112 0.934 1_455 S
C2120 C2121 1.386 . S
C2120 C2122 1.391 . S
C2121 C2120 1.386 . S
C2121 C2125 1.393 . S
C2122 H2114 0.950 1_455 S
C2122 C2120 1.391 . S
C2122 C2123 1.400 . S
C2123 C2122 1.400 . S
C2123 C2124 1.398 . S
C2123 C2129 1.491 . S
C2124 H2115 0.950 . S
C2124 C2123 1.398 . S
C2124 C2125 1.391 . S
C2125 H2113 0.950 . S
C2125 C2121 1.393 . S
C2125 C2124 1.391 . S
C2126 H2116 0.950 . S
C2126 C2127 1.386 . S
C2126 C2128 1.391 . S
C2127 C2126 1.386 . S
C2127 C2131 1.393 . S
C2128 H2117 0.950 . S
C2128 C2126 1.391 . S
C2128 C2129 1.400 . S
C2129 C2123 1.491 . S
C2129 C2128 1.400 . S
C2129 C2130 1.398 . S
C2130 H2118 0.950 1_455 S
C2130 C2129 1.398 . S
C2130 C2131 1.391 . S
C2131 H2119 0.950 1_455 S
C2131 C2127 1.393 . S
C2131 C2130 1.391 . S
H2132 C2140 0.950 . S
H2133 C2145 0.950 . S
H2134 C2142 0.950 . S
H2135 C2144 0.950 . S
H2136 C2146 0.950 . S
H2137 C2148 0.950 . S
H2138 C2150 0.950 . S
H2139 C2151 0.950 . S
C2140 H2132 0.950 . S
C2140 C2141 1.386 . S
C2140 C2142 1.391 . S
C2141 C2140 1.386 . S
C2141 C2145 1.393 . S
C2142 H2134 0.950 . S
C2142 C2140 1.391 . S
C2142 C2143 1.400 . S
C2143 C2142 1.400 . S
C2143 C2144 1.398 . S
C2143 C2149 1.491 . S
C2144 H2135 0.950 . S
C2144 C2143 1.398 . S
C2144 C2145 1.391 . S
C2145 H2133 0.950 . S
C2145 C2141 1.393 . S
C2145 C2144 1.391 . S
C2146 H2136 0.950 . S
C2146 C2147 1.386 . S
C2146 C2148 1.391 . S
C2147 C2146 1.386 . S
C2147 C2151 1.393 . S
C2148 H2137 0.950 . S
C2148 C2146 1.391 . S
C2148 C2149 1.400 . S
C2149 C2143 1.491 . S
C2149 C2148 1.400 . S
C2149 C2150 1.398 . S
C2150 H2138 0.950 . S
C2150 C2149 1.398 . S
C2150 C2151 1.391 . S
C2151 H2139 0.950 . S
C2151 C2147 1.393 . S
C2151 C2150 1.391 . S
H2152 C2160 0.950 . S
H2153 C2165 0.950 . S
H2154 C2162 0.950 . S
H2155 C2164 0.950 . S
H2156 C2166 0.950 . S
H2157 C2168 0.950 . S
H2158 C2170 0.950 . S
H2159 C2171 0.950 . S
C2160 H2152 0.950 . S
C2160 C2161 1.386 . S
C2160 C2162 1.391 . S
C2161 C2160 1.386 . S
C2161 C2165 1.393 . S
C2162 H2154 0.950 . S
C2162 C2160 1.391 . S
C2162 C2163 1.400 . S
C2163 C2162 1.400 . S
C2163 C2164 1.398 . S
C2163 C2169 1.491 . S
C2164 H2155 0.950 . S
C2164 C2163 1.398 . S
C2164 C2165 1.391 . S
C2165 H2153 0.950 . S
C2165 C2161 1.393 . S
C2165 C2164 1.391 . S
C2166 H2156 0.950 . S
C2166 C2167 1.386 . S
C2166 C2168 1.391 . S
C2167 C2166 1.386 . S
C2167 C2171 1.393 . S
C2168 H2157 0.950 . S
C2168 C2166 1.391 . S
C2168 C2169 1.400 . S
C2169 C2163 1.491 . S
C2169 C2168 1.400 . S
C2169 C2170 1.398 . S
C2170 H2158 0.950 . S
C2170 C2169 1.398 . S
C2170 C2171 1.391 . S
C2171 H2159 0.950 . S
C2171 C2167 1.393 . S
C2171 C2170 1.391 . S
H2172 C2180 0.950 . S
H2173 C2185 0.950 . S
H2174 C2182 0.950 . S
H2175 C2184 0.950 . S
H2176 C2186 0.950 . S
H2177 C2188 0.950 . S
H2178 C2190 0.950 . S
H2179 C2191 0.950 . S
C2180 H2172 0.950 . S
C2180 C2181 1.386 . S
C2180 C2182 1.391 . S
C2181 C2180 1.386 . S
C2181 C2185 1.393 . S
C2182 H2174 0.950 . S
C2182 C2180 1.391 . S
C2182 C2183 1.400 . S
C2183 C2182 1.400 . S
C2183 C2184 1.398 . S
C2183 C2189 1.491 . S
C2184 H2175 0.950 . S
C2184 C2183 1.398 . S
C2184 C2185 1.391 . S
C2185 H2173 0.950 . S
C2185 C2181 1.393 . S
C2185 C2184 1.391 . S
C2186 H2176 0.950 . S
C2186 C2187 1.386 . S
C2186 C2188 1.391 . S
C2187 C2186 1.386 . S
C2187 C2191 1.393 . S
C2188 H2177 0.950 . S
C2188 C2186 1.391 . S
C2188 C2189 1.400 . S
C2189 C2183 1.491 . S
C2189 C2188 1.400 . S
C2189 C2190 1.398 . S
C2190 H2178 0.950 . S
C2190 C2189 1.398 . S
C2190 C2191 1.391 . S
C2191 H2179 0.950 . S
C2191 C2187 1.393 . S
C2191 C2190 1.391 . S
H2192 C2200 0.950 . S
H2193 C2205 0.950 1_655 S
H2194 C2202 0.950 . S
H2195 C2204 0.950 1_655 S
H2196 C2206 0.950 1_655 S
H2197 C2208 0.950 1_655 S
H2198 C2210 0.950 . S
H2199 C2211 0.950 . S
C2200 H2192 0.950 . S
C2200 C2201 1.386 . S
C2200 C2202 1.391 . S
C2201 C2200 1.386 . S
C2201 C2205 1.393 . S
C2202 H2194 0.950 . S
C2202 C2200 1.391 . S
C2202 C2203 1.400 . S
C2203 C2202 1.400 . S
C2203 C2204 1.398 . S
C2203 C2209 1.491 . S
C2204 H2195 0.950 1_455 S
C2204 C2203 1.398 . S
C2204 C2205 1.391 . S
C2205 H2193 0.950 1_455 S
C2205 C2201 1.393 . S
C2205 C2204 1.391 . S
C2206 H2196 0.950 1_455 S
C2206 C2207 1.386 . S
C2206 C2208 1.391 . S
C2207 C2206 1.386 . S
C2207 C2211 1.393 . S
C2208 H2197 0.950 1_455 S
C2208 C2206 1.391 . S
C2208 C2209 1.400 . S
C2209 C2203 1.491 . S
C2209 C2208 1.400 . S
C2209 C2210 1.398 . S
C2210 H2198 0.950 . S
C2210 C2209 1.398 . S
C2210 C2211 1.391 . S
C2211 H2199 0.950 . S
C2211 C2207 1.393 . S
C2211 C2210 1.391 . S
H2212 C2220 0.950 . S
H2213 C2225 0.950 . S
H2214 C2222 0.950 . S
H2215 C2224 0.950 . S
H2216 C2226 0.950 . S
H2217 C2228 0.950 . S
H2218 C2230 0.950 . S
H2219 C2231 0.950 . S
C2220 H2212 0.950 . S
C2220 C2221 1.386 . S
C2220 C2222 1.391 . S
C2221 C2220 1.386 . S
C2221 C2225 1.393 . S
C2222 H2214 0.950 . S
C2222 C2220 1.391 . S
C2222 C2223 1.400 . S
C2223 C2222 1.400 . S
C2223 C2224 1.398 . S
C2223 C2229 1.491 . S
C2224 H2215 0.950 . S
C2224 C2223 1.398 . S
C2224 C2225 1.391 . S
C2225 H2213 0.950 . S
C2225 C2221 1.393 . S
C2225 C2224 1.391 . S
C2226 H2216 0.950 . S
C2226 C2227 1.386 . S
C2226 C2228 1.391 . S
C2227 C2226 1.386 . S
C2227 C2231 1.393 . S
C2228 H2217 0.950 . S
C2228 C2226 1.391 . S
C2228 C2229 1.400 . S
C2229 C2223 1.491 . S
C2229 C2228 1.400 . S
C2229 C2230 1.398 . S
C2230 H2218 0.950 . S
C2230 C2229 1.398 . S
C2230 C2231 1.391 . S
C2231 H2219 0.950 . S
C2231 C2227 1.393 . S
C2231 C2230 1.391 . S
H2232 C2240 0.950 . S
H2233 C2245 0.950 . S
H2234 C2242 0.950 . S
H2235 C2244 0.950 . S
H2236 C2246 0.950 . S
H2237 C2248 0.950 . S
H2238 C2250 0.950 . S
H2239 C2251 0.950 . S
C2240 H2232 0.950 . S
C2240 C2241 1.386 . S
C2240 C2242 1.391 . S
C2241 C2240 1.386 . S
C2241 C2245 1.393 . S
C2242 H2234 0.950 . S
C2242 C2240 1.391 . S
C2242 C2243 1.400 . S
C2243 C2242 1.400 . S
C2243 C2244 1.398 . S
C2243 C2249 1.491 . S
C2244 H2235 0.950 . S
C2244 C2243 1.398 . S
C2244 C2245 1.391 . S
C2245 H2233 0.950 . S
C2245 C2241 1.393 . S
C2245 C2244 1.391 . S
C2246 H2236 0.950 . S
C2246 C2247 1.386 . S
C2246 C2248 1.391 . S
C2247 C2246 1.386 . S
C2247 C2251 1.393 . S
C2248 H2237 0.950 . S
C2248 C2246 1.391 . S
C2248 C2249 1.400 . S
C2249 C2243 1.491 . S
C2249 C2248 1.400 . S
C2249 C2250 1.398 . S
C2250 H2238 0.950 . S
C2250 C2249 1.398 . S
C2250 C2251 1.391 . S
C2251 H2239 0.950 . S
C2251 C2247 1.393 . S
C2251 C2250 1.391 . S
H2252 C2260 0.950 . S
H2253 C2265 0.950 . S
H2254 C2262 0.950 . S
H2255 C2264 0.950 . S
H2256 C2266 0.950 . S
H2257 C2268 0.950 . S
H2258 C2270 0.950 . S
H2259 C2271 0.950 . S
C2260 H2252 0.950 . S
C2260 C2261 1.386 . S
C2260 C2262 1.391 . S
C2261 C2260 1.386 . S
C2261 C2265 1.393 . S
C2262 H2254 0.950 . S
C2262 C2260 1.391 . S
C2262 C2263 1.400 . S
C2263 C2262 1.400 . S
C2263 C2264 1.398 . S
C2263 C2269 1.491 . S
C2264 H2255 0.950 . S
C2264 C2263 1.398 . S
C2264 C2265 1.391 . S
C2265 H2253 0.950 . S
C2265 C2261 1.393 . S
C2265 C2264 1.391 . S
C2266 H2256 0.950 . S
C2266 C2267 1.386 . S
C2266 C2268 1.391 . S
C2267 C2266 1.386 . S
C2267 C2271 1.393 . S
C2268 H2257 0.950 . S
C2268 C2266 1.391 . S
C2268 C2269 1.400 . S
C2269 C2263 1.491 . S
C2269 C2268 1.400 . S
C2269 C2270 1.398 . S
C2270 H2258 0.950 . S
C2270 C2269 1.398 . S
C2270 C2271 1.391 . S
C2271 H2259 0.950 . S
C2271 C2267 1.393 . S
C2271 C2270 1.391 . S
H2272 C2280 0.950 . S
H2273 C2285 0.950 . S
H2274 C2282 0.950 . S
H2275 C2284 0.950 . S
H2276 C2286 0.950 . S
H2277 C2288 0.946 1_455 S
H2278 C2290 0.950 . S
H2279 C2291 0.950 . S
C2280 H2272 0.950 . S
C2280 C2281 1.386 . S
C2280 C2282 1.391 . S
C2281 C2280 1.386 . S
C2281 C2285 1.393 . S
C2282 H2274 0.950 . S
C2282 C2280 1.391 . S
C2282 C2283 1.400 . S
C2283 C2282 1.400 . S
C2283 C2284 1.398 . S
C2283 C2289 1.491 . S
C2284 H2275 0.950 . S
C2284 C2283 1.398 . S
C2284 C2285 1.391 . S
C2285 H2273 0.950 . S
C2285 C2281 1.393 . S
C2285 C2284 1.391 . S
C2286 H2276 0.950 . S
C2286 C2287 1.386 1_455 S
C2286 C2288 1.391 1_455 S
C2287 C2286 1.386 1_655 S
C2287 C2291 1.393 . S
C2288 H2277 0.946 1_655 S
C2288 C2286 1.391 1_655 S
C2288 C2289 1.400 . S
C2289 C2283 1.491 . S
C2289 C2288 1.400 . S
C2289 C2290 1.398 . S
C2290 H2278 0.950 . S
C2290 C2289 1.398 . S
C2290 C2291 1.391 . S
C2291 H2279 0.950 . S
C2291 C2287 1.393 . S
C2291 C2290 1.391 . S
H2292 C2300 0.950 . S
H2293 C2305 0.950 . S
H2294 C2302 0.950 . S
H2295 C2304 0.950 . S
H2296 C2306 0.950 . S
H2297 C2308 0.950 . S
H2298 C2310 0.950 . S
H2299 C2311 0.950 . S
C2300 H2292 0.950 . S
C2300 C2301 1.386 . S
C2300 C2302 1.391 . S
C2301 C2300 1.386 . S
C2301 C2305 1.393 . S
C2302 H2294 0.950 . S
C2302 C2300 1.391 . S
C2302 C2303 1.400 . S
C2303 C2302 1.400 . S
C2303 C2304 1.398 . S
C2303 C2309 1.491 . S
C2304 H2295 0.950 . S
C2304 C2303 1.398 . S
C2304 C2305 1.391 . S
C2305 H2293 0.950 . S
C2305 C2301 1.393 . S
C2305 C2304 1.391 . S
C2306 H2296 0.950 . S
C2306 C2307 1.386 . S
C2306 C2308 1.391 . S
C2307 C2306 1.386 . S
C2307 C2311 1.393 . S
C2308 H2297 0.950 . S
C2308 C2306 1.391 . S
C2308 C2309 1.400 . S
C2309 C2303 1.491 . S
C2309 C2308 1.400 . S
C2309 C2310 1.398 . S
C2310 H2298 0.950 . S
C2310 C2309 1.398 . S
C2310 C2311 1.391 . S
C2311 H2299 0.950 . S
C2311 C2307 1.393 . S
C2311 C2310 1.391 . S
H2312 C2320 0.950 . S
H2313 C2325 0.950 . S
H2314 C2322 0.950 . S
H2315 C2324 0.950 . S
H2316 C2326 0.950 . S
H2317 C2328 0.950 . S
H2318 C2330 0.950 . S
H2319 C2331 0.950 . S
C2320 H2312 0.950 . S
C2320 C2321 1.386 . S
C2320 C2322 1.391 . S
C2321 C2320 1.386 . S
C2321 C2325 1.393 . S
C2322 H2314 0.950 . S
C2322 C2320 1.391 . S
C2322 C2323 1.400 . S
C2323 C2322 1.400 . S
C2323 C2324 1.398 . S
C2323 C2329 1.491 . S
C2324 H2315 0.950 . S
C2324 C2323 1.398 . S
C2324 C2325 1.391 . S
C2325 H2313 0.950 . S
C2325 C2321 1.393 . S
C2325 C2324 1.391 . S
C2326 H2316 0.950 . S
C2326 C2327 1.386 . S
C2326 C2328 1.391 . S
C2327 C2326 1.386 . S
C2327 C2331 1.393 . S
C2328 H2317 0.950 . S
C2328 C2326 1.391 . S
C2328 C2329 1.400 . S
C2329 C2323 1.491 . S
C2329 C2328 1.400 . S
C2329 C2330 1.398 . S
C2330 H2318 0.950 . S
C2330 C2329 1.398 . S
C2330 C2331 1.391 . S
C2331 H2319 0.950 . S
C2331 C2327 1.393 . S
C2331 C2330 1.391 . S
H2332 C2340 0.950 . S
H2333 C2345 0.950 . S
H2334 C2342 0.950 . S
H2335 C2344 0.950 . S
H2336 C2346 0.950 . S
H2337 C2348 0.950 . S
H2338 C2350 0.950 . S
H2339 C2351 0.950 . S
C2340 H2332 0.950 . S
C2340 C2341 1.386 . S
C2340 C2342 1.391 . S
C2341 C2340 1.386 . S
C2341 C2345 1.393 . S
C2342 H2334 0.950 . S
C2342 C2340 1.391 . S
C2342 C2343 1.400 . S
C2343 C2342 1.400 . S
C2343 C2344 1.398 . S
C2343 C2349 1.491 . S
C2344 H2335 0.950 . S
C2344 C2343 1.398 . S
C2344 C2345 1.391 . S
C2345 H2333 0.950 . S
C2345 C2341 1.393 . S
C2345 C2344 1.391 . S
C2346 H2336 0.950 . S
C2346 C2347 1.386 . S
C2346 C2348 1.391 . S
C2347 C2346 1.386 . S
C2347 C2351 1.393 . S
C2348 H2337 0.950 . S
C2348 C2346 1.391 . S
C2348 C2349 1.400 . S
C2349 C2343 1.491 . S
C2349 C2348 1.400 . S
C2349 C2350 1.398 . S
C2350 H2338 0.950 . S
C2350 C2349 1.398 . S
C2350 C2351 1.391 . S
C2351 H2339 0.950 . S
C2351 C2347 1.393 . S
C2351 C2350 1.391 . S
H2352 C2360 0.950 . S
H2353 C2365 0.950 . S
H2354 C2362 0.950 . S
H2355 C2364 0.950 . S
H2356 C2366 0.950 . S
H2357 C2368 0.950 . S
H2358 C2370 0.950 . S
H2359 C2371 0.950 . S
C2360 H2352 0.950 . S
C2360 C2361 1.386 . S
C2360 C2362 1.391 . S
C2361 C2360 1.386 . S
C2361 C2365 1.393 . S
C2362 H2354 0.950 . S
C2362 C2360 1.391 . S
C2362 C2363 1.400 . S
C2363 C2362 1.400 . S
C2363 C2364 1.398 . S
C2363 C2369 1.491 . S
C2364 H2355 0.950 . S
C2364 C2363 1.398 . S
C2364 C2365 1.391 . S
C2365 H2353 0.950 . S
C2365 C2361 1.393 . S
C2365 C2364 1.391 . S
C2366 H2356 0.950 . S
C2366 C2367 1.386 . S
C2366 C2368 1.391 . S
C2367 C2366 1.386 . S
C2367 C2371 1.393 . S
C2368 H2357 0.950 . S
C2368 C2366 1.391 . S
C2368 C2369 1.400 . S
C2369 C2363 1.491 . S
C2369 C2368 1.400 . S
C2369 C2370 1.398 . S
C2370 H2358 0.950 . S
C2370 C2369 1.398 . S
C2370 C2371 1.391 . S
C2371 H2359 0.950 . S
C2371 C2367 1.393 . S
C2371 C2370 1.391 . S
H2372 C2380 0.950 . S
H2373 C2385 0.950 . S
H2374 C2382 0.950 . S
H2375 C2384 0.950 . S
H2376 C2386 0.950 . S
H2377 C2388 0.950 . S
H2378 C2390 0.950 . S
H2379 C2391 0.950 . S
C2380 H2372 0.950 . S
C2380 C2381 1.386 . S
C2380 C2382 1.391 . S
C2381 C2380 1.386 . S
C2381 C2385 1.393 . S
C2382 H2374 0.950 . S
C2382 C2380 1.391 . S
C2382 C2383 1.400 . S
C2383 C2382 1.400 . S
C2383 C2384 1.398 . S
C2383 C2389 1.491 . S
C2384 H2375 0.950 . S
C2384 C2383 1.398 . S
C2384 C2385 1.391 . S
C2385 H2373 0.950 . S
C2385 C2381 1.393 . S
C2385 C2384 1.391 . S
C2386 H2376 0.950 . S
C2386 C2387 1.386 . S
C2386 C2388 1.391 . S
C2387 C2386 1.386 . S
C2387 C2391 1.393 . S
C2388 H2377 0.950 . S
C2388 C2386 1.391 . S
C2388 C2389 1.400 . S
C2389 C2383 1.491 . S
C2389 C2388 1.400 . S
C2389 C2390 1.398 . S
C2390 H2378 0.950 . S
C2390 C2389 1.398 . S
C2390 C2391 1.391 . S
C2391 H2379 0.950 . S
C2391 C2387 1.393 . S
C2391 C2390 1.391 . S
H2392 C2400 0.950 . S
H2393 C2405 0.950 . S
H2394 C2402 0.950 . S
H2395 C2404 0.950 . S
H2396 C2406 0.950 . S
H2397 C2408 0.950 . S
H2398 C2410 0.950 . S
H2399 C2411 0.950 . S
C2400 H2392 0.950 . S
C2400 C2401 1.386 . S
C2400 C2402 1.391 . S
C2401 C2400 1.386 . S
C2401 C2405 1.393 . S
C2402 H2394 0.950 . S
C2402 C2400 1.391 . S
C2402 C2403 1.400 . S
C2403 C2402 1.400 . S
C2403 C2404 1.398 . S
C2403 C2409 1.491 . S
C2404 H2395 0.950 . S
C2404 C2403 1.398 . S
C2404 C2405 1.391 . S
C2405 H2393 0.950 . S
C2405 C2401 1.393 . S
C2405 C2404 1.391 . S
C2406 H2396 0.950 . S
C2406 C2407 1.386 . S
C2406 C2408 1.391 . S
C2407 C2406 1.386 . S
C2407 C2411 1.393 . S
C2408 H2397 0.950 . S
C2408 C2406 1.391 . S
C2408 C2409 1.400 . S
C2409 C2403 1.491 . S
C2409 C2408 1.400 . S
C2409 C2410 1.398 . S
C2410 H2398 0.950 . S
C2410 C2409 1.398 . S
C2410 C2411 1.391 . S
C2411 H2399 0.950 . S
C2411 C2407 1.393 . S
C2411 C2410 1.391 . S
H2412 C2420 0.950 . S
H2413 C2425 0.950 . S
H2414 C2422 0.950 . S
H2415 C2424 0.950 . S
H2416 C2426 0.950 1_545 S
H2417 C2428 0.950 . S
H2418 C2430 0.950 . S
H2419 C2431 0.950 . S
C2420 H2412 0.950 . S
C2420 C2421 1.386 . S
C2420 C2422 1.391 . S
C2421 C2420 1.386 . S
C2421 C2425 1.393 . S
C2422 H2414 0.950 . S
C2422 C2420 1.391 . S
C2422 C2423 1.400 . S
C2423 C2422 1.400 . S
C2423 C2424 1.398 . S
C2423 C2429 1.491 . S
C2424 H2415 0.950 . S
C2424 C2423 1.398 . S
C2424 C2425 1.391 . S
C2425 H2413 0.950 . S
C2425 C2421 1.393 . S
C2425 C2424 1.391 . S
C2426 H2416 0.950 1_565 S
C2426 C2427 1.386 . S
C2426 C2428 1.391 . S
C2427 C2426 1.386 . S
C2427 C2431 1.393 . S
C2428 H2417 0.950 . S
C2428 C2426 1.391 . S
C2428 C2429 1.400 . S
C2429 C2423 1.491 . S
C2429 C2428 1.400 . S
C2429 C2430 1.398 . S
C2430 H2418 0.950 . S
C2430 C2429 1.398 . S
C2430 C2431 1.391 . S
C2431 H2419 0.950 . S
C2431 C2427 1.393 . S
C2431 C2430 1.391 . S
H2432 C2440 0.950 . S
H2433 C2445 0.950 . S
H2434 C2442 0.950 . S
H2435 C2444 0.950 . S
H2436 C2446 0.950 . S
H2437 C2448 0.950 . S
H2438 C2450 0.950 . S
H2439 C2451 0.950 . S
C2440 H2432 0.950 . S
C2440 C2441 1.386 . S
C2440 C2442 1.391 . S
C2441 C2440 1.386 . S
C2441 C2445 1.393 . S
C2442 H2434 0.950 . S
C2442 C2440 1.391 . S
C2442 C2443 1.400 . S
C2443 C2442 1.400 . S
C2443 C2444 1.398 . S
C2443 C2449 1.491 . S
C2444 H2435 0.950 . S
C2444 C2443 1.398 . S
C2444 C2445 1.391 . S
C2445 H2433 0.950 . S
C2445 C2441 1.393 . S
C2445 C2444 1.391 . S
C2446 H2436 0.950 . S
C2446 C2447 1.386 . S
C2446 C2448 1.391 . S
C2447 C2446 1.386 . S
C2447 C2451 1.393 . S
C2448 H2437 0.950 . S
C2448 C2446 1.391 . S
C2448 C2449 1.400 . S
C2449 C2443 1.491 . S
C2449 C2448 1.400 . S
C2449 C2450 1.398 . S
C2450 H2438 0.950 . S
C2450 C2449 1.398 . S
C2450 C2451 1.391 . S
C2451 H2439 0.950 . S
C2451 C2447 1.393 . S
C2451 C2450 1.391 . S
H2452 C2460 0.950 . S
H2453 C2465 0.950 . S
H2454 C2462 0.950 . S
H2455 C2464 0.950 . S
H2456 C2466 0.950 . S
H2457 C2468 0.950 . S
H2458 C2470 0.950 . S
H2459 C2471 0.950 . S
C2460 H2452 0.950 . S
C2460 C2461 1.386 1_556 S
C2460 C2462 1.391 . S
C2461 C2460 1.386 1_554 S
C2461 C2465 1.393 . S
C2462 H2454 0.950 . S
C2462 C2460 1.391 . S
C2462 C2463 1.400 1_556 S
C2463 C2462 1.400 1_554 S
C2463 C2464 1.398 . S
C2463 C2469 1.491 . S
C2464 H2455 0.950 . S
C2464 C2463 1.398 . S
C2464 C2465 1.391 . S
C2465 H2453 0.950 . S
C2465 C2461 1.393 . S
C2465 C2464 1.391 . S
C2466 H2456 0.950 . S
C2466 C2467 1.386 . S
C2466 C2468 1.391 . S
C2467 C2466 1.386 . S
C2467 C2471 1.393 1_554 S
C2468 H2457 0.950 . S
C2468 C2466 1.391 . S
C2468 C2469 1.400 . S
C2469 C2463 1.491 . S
C2469 C2468 1.400 . S
C2469 C2470 1.398 1_554 S
C2470 H2458 0.950 . S
C2470 C2469 1.398 1_556 S
C2470 C2471 1.391 . S
C2471 H2459 0.950 . S
C2471 C2467 1.393 1_556 S
C2471 C2470 1.391 . S
H2472 C2480 0.950 . S
H2473 C2485 0.950 . S
H2474 C2482 0.950 . S
H2475 C2484 0.950 . S
H2476 C2486 0.950 . S
H2477 C2488 0.950 . S
H2478 C2490 0.950 . S
H2479 C2491 0.950 . S
C2480 H2472 0.950 . S
C2480 C2481 1.386 . S
C2480 C2482 1.391 . S
C2481 C2480 1.386 . S
C2481 C2485 1.393 . S
C2482 H2474 0.950 . S
C2482 C2480 1.391 . S
C2482 C2483 1.400 . S
C2483 C2482 1.400 . S
C2483 C2484 1.398 . S
C2483 C2489 1.491 . S
C2484 H2475 0.950 . S
C2484 C2483 1.398 . S
C2484 C2485 1.391 . S
C2485 H2473 0.950 . S
C2485 C2481 1.393 . S
C2485 C2484 1.391 . S
C2486 H2476 0.950 . S
C2486 C2487 1.386 . S
C2486 C2488 1.391 . S
C2487 C2486 1.386 . S
C2487 C2491 1.393 . S
C2488 H2477 0.950 . S
C2488 C2486 1.391 . S
C2488 C2489 1.400 . S
C2489 C2483 1.491 . S
C2489 C2488 1.400 . S
C2489 C2490 1.398 . S
C2490 H2478 0.950 . S
C2490 C2489 1.398 . S
C2490 C2491 1.391 . S
C2491 H2479 0.950 . S
C2491 C2487 1.393 . S
C2491 C2490 1.391 . S
H2492 C2500 0.950 . S
H2493 C2505 0.950 . S
H2494 C2502 0.950 . S
H2495 C2504 0.950 . S
H2496 C2506 0.950 . S
H2497 C2508 0.950 . S
H2498 C2510 0.936 1_556 S
H2499 C2511 0.950 1_556 S
C2500 H2492 0.950 . S
C2500 C2501 1.386 . S
C2500 C2502 1.391 . S
C2501 C2500 1.386 . S
C2501 C2505 1.393 . S
C2502 H2494 0.950 . S
C2502 C2500 1.391 . S
C2502 C2503 1.400 . S
C2503 C2502 1.400 . S
C2503 C2504 1.398 . S
C2503 C2509 1.491 . S
C2504 H2495 0.950 . S
C2504 C2503 1.398 . S
C2504 C2505 1.391 . S
C2505 H2493 0.950 . S
C2505 C2501 1.393 . S
C2505 C2504 1.391 . S
C2506 H2496 0.950 . S
C2506 C2507 1.386 . S
C2506 C2508 1.391 . S
C2507 C2506 1.386 . S
C2507 C2511 1.393 . S
C2508 H2497 0.950 . S
C2508 C2506 1.391 . S
C2508 C2509 1.400 . S
C2509 C2503 1.491 . S
C2509 C2508 1.400 . S
C2509 C2510 1.398 . S
C2510 H2498 0.936 1_554 S
C2510 C2509 1.398 . S
C2510 C2511 1.391 . S
C2511 H2499 0.950 1_554 S
C2511 C2507 1.393 . S
C2511 C2510 1.391 . S
H2512 C2520 0.950 . S
H2513 C2525 0.950 . S
H2514 C2522 0.950 . S
H2515 C2524 0.950 . S
H2516 C2526 0.950 . S
H2517 C2528 0.950 . S
H2518 C2530 0.950 . S
H2519 C2531 0.950 . S
C2520 H2512 0.950 . S
C2520 C2521 1.386 . S
C2520 C2522 1.391 . S
C2521 C2520 1.386 . S
C2521 C2525 1.393 . S
C2522 H2514 0.950 . S
C2522 C2520 1.391 . S
C2522 C2523 1.400 . S
C2523 C2522 1.400 . S
C2523 C2524 1.398 . S
C2523 C2529 1.491 . S
C2524 H2515 0.950 . S
C2524 C2523 1.398 . S
C2524 C2525 1.391 . S
C2525 H2513 0.950 . S
C2525 C2521 1.393 . S
C2525 C2524 1.391 . S
C2526 H2516 0.950 . S
C2526 C2527 1.386 . S
C2526 C2528 1.391 . S
C2527 C2526 1.386 . S
C2527 C2531 1.393 . S
C2528 H2517 0.950 . S
C2528 C2526 1.391 . S
C2528 C2529 1.400 . S
C2529 C2523 1.491 . S
C2529 C2528 1.400 . S
C2529 C2530 1.398 . S
C2530 H2518 0.950 . S
C2530 C2529 1.398 . S
C2530 C2531 1.391 . S
C2531 H2519 0.950 . S
C2531 C2527 1.393 . S
C2531 C2530 1.391 . S
H2532 C2540 0.950 . S
H2533 C2545 0.950 . S
H2534 C2542 0.950 . S
H2535 C2544 0.950 . S
H2536 C2546 0.950 . S
H2537 C2548 0.950 . S
H2538 C2550 0.950 . S
H2539 C2551 0.950 . S
C2540 H2532 0.950 . S
C2540 C2541 1.386 . S
C2540 C2542 1.391 . S
C2541 C2540 1.386 . S
C2541 C2545 1.393 . S
C2542 H2534 0.950 . S
C2542 C2540 1.391 . S
C2542 C2543 1.400 . S
C2543 C2542 1.400 . S
C2543 C2544 1.398 . S
C2543 C2549 1.491 . S
C2544 H2535 0.950 . S
C2544 C2543 1.398 . S
C2544 C2545 1.391 . S
C2545 H2533 0.950 . S
C2545 C2541 1.393 . S
C2545 C2544 1.391 . S
C2546 H2536 0.950 . S
C2546 C2547 1.386 . S
C2546 C2548 1.391 . S
C2547 C2546 1.386 . S
C2547 C2551 1.393 . S
C2548 H2537 0.950 . S
C2548 C2546 1.391 . S
C2548 C2549 1.400 . S
C2549 C2543 1.491 . S
C2549 C2548 1.400 . S
C2549 C2550 1.398 . S
C2550 H2538 0.950 . S
C2550 C2549 1.398 . S
C2550 C2551 1.391 . S
C2551 H2539 0.950 . S
C2551 C2547 1.393 . S
C2551 C2550 1.391 . S
C641 C101 1.431 . S
C647 C316 1.222 . S
C661 C57 1.451 . S
C667 C351 1.422 . S
C681 C70 1.013 . S
C687 C356 0.952 . S
C707 C381 1.310 . S
C701 C82 1.425 . S
C721 C23 1.423 . S
C727 C401 1.309 . S
C747 C416 0.897 . S
C741 C29 1.010 . S
C767 C451 1.415 . S
C761 C49 1.444 . S
C781 C10 1.414 . S
C787 C456 1.190 . S
C807 C331 1.489 . S
C801 C218 1.575 . S
C821 C226 0.984 . S
C827 C341 0.914 . S
C847 C371 1.386 1_565 S
C841 C251 1.434 . S
C867 C376 1.011 . S
C861 C159 1.138 . S
C881 C211 1.146 . S
C887 C396 1.064 1_655 S
C907 C431 1.370 . S
C901 C225 1.428 . S
C927 C441 0.921 . S
C921 C252 0.985 . S
C947 C471 1.500 . S
C941 C166 1.572 . S
C967 C321 1.290 1_565 S
C961 C147 1.468 . S
C981 C263 1.690 . S
C987 C491 1.645 . S
C1007 C501 1.401 . S
C1001 C309 1.532 . S
C1027 C516 0.955 . S
C1021 C291 1.011 . S
C1041 C108 1.464 . S
C1047 C461 1.283 . S
C1061 C121 1.534 . S
C1067 C361 1.406 . S
C1081 C302 1.694 . S
C1087 C551 1.650 . S
C1107 C556 0.893 . S
C1101 C276 1.002 . S
C1127 C314 1.346 . S
C1121 C55 1.513 . S
C1147 C570 1.664 . S
C1141 C96 1.694 . S
C1161 C88 1.252 . S
C1167 C354 1.166 . S
C1181 C75 1.645 . S
C1187 C544 1.555 . S
C1207 C404 1.553 . S
C1201 C4 1.645 . S
C1221 C44 1.255 . S
C1227 C494 1.141 . S
C1247 C450 1.665 . S
C1241 C31 1.692 . S
C1267 C574 1.365 . S
C1261 C18 1.519 . S
C1287 C330 1.676 1_556 S
C1281 C133 1.747 . S
C1307 C564 1.142 . S
C1301 C296 1.215 . S
C1321 C107 1.634 . S
C1327 C370 1.600 . S
C1341 C264 1.399 . S
C1347 C534 1.303 . S
C1361 C140 1.398 . S
C1367 C394 1.303 . S
C1387 C510 1.591 . S
C1381 C289 1.639 . S
C1401 C114 1.225 . S
C1407 C444 1.165 . S
C1421 C265 1.747 . S
C1427 C590 1.686 . S
C1441 C179 1.550 . S
C1447 C324 1.444 . S
C1461 C161 1.932 . S
C1467 C490 1.907 . S
C1481 C244 1.716 . S
C1487 C424 1.623 . S
C1501 C224 1.246 . S
C1507 C514 1.179 . S
C1527 C584 1.424 . S
C1521 C257 1.543 . S
C1541 C199 1.707 . S
C1547 C364 1.607 . S
C1567 C390 1.902 . S
C1561 C237 1.931 . S
C1587 C334 1.172 . S
C1581 C185 1.245 . S
C1601 C69 1.434 . S
C1607 C596 1.233 . S
C1627 C571 1.401 . S
C1621 C83 1.460 . S
C1641 C94 1.018 . S
C1647 C616 0.958 . S
C1661 C56 1.425 . S
C1667 C541 1.318 . S
C1681 C42 1.442 . S
C1687 C481 1.352 . S
C1707 C496 0.955 . S
C1701 C3 1.021 . S
C1727 C531 1.401 . S
C1721 C16 1.459 . S
C1747 C576 1.189 . S
C1741 C36 1.418 . S
C1767 C611 1.471 . S
C1761 C238 1.561 . S
C1781 C174 0.985 . S
C1787 C561 0.920 . S
C1807 C631 1.369 . S
C1801 C186 1.426 . S
C1827 C536 1.064 . S
C1821 C198 1.146 . S
C1847 C476 1.064 . S
C1841 C239 1.148 . S
C1861 C173 1.423 . S
C1867 C511 1.374 . S
C1887 C521 0.899 . S
C1881 C187 0.979 . S
C1901 C205 1.570 . S
C1907 C591 1.475 . S
C1927 C601 1.314 . S
C1921 C290 1.475 . S
C1941 C122 1.691 . S
C1947 C411 1.648 . S
C1967 C421 1.388 . S
C1961 C134 1.528 . S
C1987 C436 0.958 . S
C1981 C148 1.013 . S
C2007 C581 1.299 . S
C2001 C283 1.470 . S
C2021 C270 1.526 . S
C2027 C621 1.387 . S
C2047 C391 1.667 . S
C2041 C135 1.684 . S
C2067 C336 0.957 . S
C2061 C109 1.014 . S
C2081 C81 1.514 . S
C2087 C594 1.354 . S
C2107 C350 1.661 . S
C2101 C68 1.694 . S
C2121 C62 1.252 . S
C2127 C614 1.161 . S
C2141 C95 1.645 . S
C2147 C384 1.559 . S
C2161 C30 1.645 . S
C2167 C484 1.573 . S
C2187 C414 1.155 . S
C2181 C17 1.251 . S
C2201 C5 1.693 . S
C2207 C530 1.666 . S
C2221 C43 1.513 . S
C2227 C454 1.361 . S
C2247 C610 1.690 . S
C2241 C304 1.750 . S
C2261 C153 1.212 . S
C2267 C344 1.145 . S
C2287 C630 1.606 . S
C2281 C278 1.634 . S
C2301 C127 1.399 . S
C2307 C374 1.309 . S
C2321 C303 1.389 . S
C2327 C474 1.275 . S
C2347 C430 1.597 . S
C2341 C146 1.636 . S
C2361 C277 1.220 . S
C2367 C524 1.153 . S
C2387 C470 1.691 . S
C2381 C120 1.749 . S
C2407 C604 1.455 . S
C2401 C231 1.551 . S
C2427 C410 1.905 . S
C2421 C200 1.931 . S
C2441 C212 1.716 . S
C2447 C504 1.621 . S
C2467 C434 1.141 . S
C2461 C172 1.240 . S
C2481 C192 1.544 . S
C2487 C464 1.438 . S
C2501 C160 1.713 . S
C2507 C624 1.627 . S
C2527 C550 1.903 . S
C2521 C213 1.934 . S
C2547 C554 1.145 . S
C2541 C250 1.241 . S
