# Generated by pormake.
# Topology ctn, (3,4)-cn, num edge types: 1
# Building blocks:
#     Node 0, Type 0, BuildingBlock: OLANEW_clean_sbu_2, # of connection points: 3
#     Node 1, Type 0, BuildingBlock: OLANEW_clean_sbu_2, # of connection points: 3
#     Node 2, Type 0, BuildingBlock: OLANEW_clean_sbu_2, # of connection points: 3
#     Node 3, Type 0, BuildingBlock: OLANEW_clean_sbu_2, # of connection points: 3
#     Node 4, Type 0, BuildingBlock: OLANEW_clean_sbu_2, # of connection points: 3
#     Node 5, Type 0, BuildingBlock: OLANEW_clean_sbu_2, # of connection points: 3
#     Node 6, Type 0, BuildingBlock: OLANEW_clean_sbu_2, # of connection points: 3
#     Node 7, Type 0, BuildingBlock: OLANEW_clean_sbu_2, # of connection points: 3
#     Node 8, Type 0, BuildingBlock: OLANEW_clean_sbu_2, # of connection points: 3
#     Node 9, Type 0, BuildingBlock: OLANEW_clean_sbu_2, # of connection points: 3
#     Node 10, Type 0, BuildingBlock: OLANEW_clean_sbu_2, # of connection points: 3
#     Node 11, Type 0, BuildingBlock: OLANEW_clean_sbu_2, # of connection points: 3
#     Node 12, Type 0, BuildingBlock: OLANEW_clean_sbu_2, # of connection points: 3
#     Node 13, Type 0, BuildingBlock: OLANEW_clean_sbu_2, # of connection points: 3
#     Node 14, Type 0, BuildingBlock: OLANEW_clean_sbu_2, # of connection points: 3
#     Node 15, Type 0, BuildingBlock: OLANEW_clean_sbu_2, # of connection points: 3
#     Node 16, Type 1, BuildingBlock: UXUYUI_clean_sbu_0, # of connection points: 4
#     Node 17, Type 1, BuildingBlock: UXUYUI_clean_sbu_0, # of connection points: 4
#     Node 18, Type 1, BuildingBlock: UXUYUI_clean_sbu_0, # of connection points: 4
#     Node 19, Type 1, BuildingBlock: UXUYUI_clean_sbu_0, # of connection points: 4
#     Node 20, Type 1, BuildingBlock: UXUYUI_clean_sbu_0, # of connection points: 4
#     Node 21, Type 1, BuildingBlock: UXUYUI_clean_sbu_0, # of connection points: 4
#     Node 22, Type 1, BuildingBlock: UXUYUI_clean_sbu_0, # of connection points: 4
#     Node 23, Type 1, BuildingBlock: UXUYUI_clean_sbu_0, # of connection points: 4
#     Node 24, Type 1, BuildingBlock: UXUYUI_clean_sbu_0, # of connection points: 4
#     Node 25, Type 1, BuildingBlock: UXUYUI_clean_sbu_0, # of connection points: 4
#     Node 26, Type 1, BuildingBlock: UXUYUI_clean_sbu_0, # of connection points: 4
#     Node 27, Type 1, BuildingBlock: UXUYUI_clean_sbu_0, # of connection points: 4
#     Edge 28, Type (0, 1), BuildingBlock: TEMPAE_clean_linker_10, # of connection points: 2
#     Edge 29, Type (0, 1), BuildingBlock: TEMPAE_clean_linker_10, # of connection points: 2
#     Edge 30, Type (0, 1), BuildingBlock: TEMPAE_clean_linker_10, # of connection points: 2
#     Edge 31, Type (0, 1), BuildingBlock: TEMPAE_clean_linker_10, # of connection points: 2
#     Edge 32, Type (0, 1), BuildingBlock: TEMPAE_clean_linker_10, # of connection points: 2
#     Edge 33, Type (0, 1), BuildingBlock: TEMPAE_clean_linker_10, # of connection points: 2
#     Edge 34, Type (0, 1), BuildingBlock: TEMPAE_clean_linker_10, # of connection points: 2
#     Edge 35, Type (0, 1), BuildingBlock: TEMPAE_clean_linker_10, # of connection points: 2
#     Edge 36, Type (0, 1), BuildingBlock: TEMPAE_clean_linker_10, # of connection points: 2
#     Edge 37, Type (0, 1), BuildingBlock: TEMPAE_clean_linker_10, # of connection points: 2
#     Edge 38, Type (0, 1), BuildingBlock: TEMPAE_clean_linker_10, # of connection points: 2
#     Edge 39, Type (0, 1), BuildingBlock: TEMPAE_clean_linker_10, # of connection points: 2
#     Edge 40, Type (0, 1), BuildingBlock: TEMPAE_clean_linker_10, # of connection points: 2
#     Edge 41, Type (0, 1), BuildingBlock: TEMPAE_clean_linker_10, # of connection points: 2
#     Edge 42, Type (0, 1), BuildingBlock: TEMPAE_clean_linker_10, # of connection points: 2
#     Edge 43, Type (0, 1), BuildingBlock: TEMPAE_clean_linker_10, # of connection points: 2
#     Edge 44, Type (0, 1), BuildingBlock: TEMPAE_clean_linker_10, # of connection points: 2
#     Edge 45, Type (0, 1), BuildingBlock: TEMPAE_clean_linker_10, # of connection points: 2
#     Edge 46, Type (0, 1), BuildingBlock: TEMPAE_clean_linker_10, # of connection points: 2
#     Edge 47, Type (0, 1), BuildingBlock: TEMPAE_clean_linker_10, # of connection points: 2
#     Edge 48, Type (0, 1), BuildingBlock: TEMPAE_clean_linker_10, # of connection points: 2
#     Edge 49, Type (0, 1), BuildingBlock: TEMPAE_clean_linker_10, # of connection points: 2
#     Edge 50, Type (0, 1), BuildingBlock: TEMPAE_clean_linker_10, # of connection points: 2
#     Edge 51, Type (0, 1), BuildingBlock: TEMPAE_clean_linker_10, # of connection points: 2
#     Edge 52, Type (0, 1), BuildingBlock: TEMPAE_clean_linker_10, # of connection points: 2
#     Edge 53, Type (0, 1), BuildingBlock: TEMPAE_clean_linker_10, # of connection points: 2
#     Edge 54, Type (0, 1), BuildingBlock: TEMPAE_clean_linker_10, # of connection points: 2
#     Edge 55, Type (0, 1), BuildingBlock: TEMPAE_clean_linker_10, # of connection points: 2
#     Edge 56, Type (0, 1), BuildingBlock: TEMPAE_clean_linker_10, # of connection points: 2
#     Edge 57, Type (0, 1), BuildingBlock: TEMPAE_clean_linker_10, # of connection points: 2
#     Edge 58, Type (0, 1), BuildingBlock: TEMPAE_clean_linker_10, # of connection points: 2
#     Edge 59, Type (0, 1), BuildingBlock: TEMPAE_clean_linker_10, # of connection points: 2
#     Edge 60, Type (0, 1), BuildingBlock: TEMPAE_clean_linker_10, # of connection points: 2
#     Edge 61, Type (0, 1), BuildingBlock: TEMPAE_clean_linker_10, # of connection points: 2
#     Edge 62, Type (0, 1), BuildingBlock: TEMPAE_clean_linker_10, # of connection points: 2
#     Edge 63, Type (0, 1), BuildingBlock: TEMPAE_clean_linker_10, # of connection points: 2
#     Edge 64, Type (0, 1), BuildingBlock: TEMPAE_clean_linker_10, # of connection points: 2
#     Edge 65, Type (0, 1), BuildingBlock: TEMPAE_clean_linker_10, # of connection points: 2
#     Edge 66, Type (0, 1), BuildingBlock: TEMPAE_clean_linker_10, # of connection points: 2
#     Edge 67, Type (0, 1), BuildingBlock: TEMPAE_clean_linker_10, # of connection points: 2
#     Edge 68, Type (0, 1), BuildingBlock: TEMPAE_clean_linker_10, # of connection points: 2
#     Edge 69, Type (0, 1), BuildingBlock: TEMPAE_clean_linker_10, # of connection points: 2
#     Edge 70, Type (0, 1), BuildingBlock: TEMPAE_clean_linker_10, # of connection points: 2
#     Edge 71, Type (0, 1), BuildingBlock: TEMPAE_clean_linker_10, # of connection points: 2
#     Edge 72, Type (0, 1), BuildingBlock: TEMPAE_clean_linker_10, # of connection points: 2
#     Edge 73, Type (0, 1), BuildingBlock: TEMPAE_clean_linker_10, # of connection points: 2
#     Edge 74, Type (0, 1), BuildingBlock: TEMPAE_clean_linker_10, # of connection points: 2
#     Edge 75, Type (0, 1), BuildingBlock: TEMPAE_clean_linker_10, # of connection points: 2
# Relax obj value: 0.049
# Max RMSD: 0.161
# Mean RMSD: 0.098
data_MOF--net-ctn--node1-OLANEW_clean_sbu_2--node2-UXUYUI_clean_sbu_0--edge1-TEMPAE_clean_linker_10
_symmetry_space_group_name_H-M    P1
_symmetry_Int_Tables_number       1
_symmetry_cell_setting            triclinic
loop_
_symmetry_equiv_pos_as_xyz
'x, y, z'
_cell_length_a     71.935556
_cell_length_b     73.761865
_cell_length_c     69.983711
_cell_angle_alpha  91.196756
_cell_angle_beta   94.128127
_cell_angle_gamma 95.295208
loop_
_atom_site_label
_atom_site_type_symbol
_atom_site_fract_x
_atom_site_fract_y
_atom_site_fract_z
_atom_type_partial_charge
O0 O 0.05382 0.05488 0.0059 0.0
Cd1 Cd 0.05696 0.02718 0.02406 0.0
O2 O 0.03287 0.05813 0.02635 0.0
Cd3 Cd 0.01005 0.06841 0.04111 0.0
O4 O 0.99017 0.0671 0.06328 0.0
C5 C 0.98867 0.05214 0.072 0.0
O6 O 0.99865 0.03906 0.06685 0.0
C7 C 0.04156 0.06427 0.01229 0.0
C8 C 0.08602 0.00648 0.01581 0.0
O9 O 0.06963 0.00303 0.00734 0.0
O10 O 0.08878 0.02007 0.02772 0.0
O11 O 0.30715 0.74384 0.25616 0.0
Cd12 Cd 0.27543 0.73972 0.24054 0.0
O13 O 0.31464 0.71723 0.24605 0.0
Cd14 Cd 0.28631 0.70785 0.23465 0.0
O15 O 0.26227 0.68776 0.23629 0.0
C16 C 0.26574 0.67418 0.2464 0.0
O17 O 0.2828 0.67353 0.25427 0.0
C18 C 0.31918 0.73233 0.25504 0.0
C19 C 0.27227 0.75874 0.20656 0.0
O20 O 0.27029 0.76645 0.22277 0.0
O21 O 0.27578 0.74201 0.2064 0.0
O22 O 0.96031 0.47889 0.09868 0.0
Cd23 Cd 0.93978 0.47187 0.06957 0.0
O24 O 0.98331 0.4649 0.08777 0.0
Cd25 Cd 0.96885 0.45342 0.06117 0.0
O26 O 0.96806 0.4321 0.03891 0.0
C27 C 0.98382 0.42901 0.03306 0.0
O28 O 0.99883 0.43927 0.03991 0.0
C29 C 0.97691 0.47426 0.10083 0.0
C30 C 0.91393 0.49765 0.06365 0.0
O31 O 0.91015 0.48345 0.07344 0.0
O32 O 0.92995 0.49965 0.05665 0.0
O33 O 0.72268 0.82639 0.22475 0.0
Cd34 Cd 0.70116 0.79859 0.22302 0.0
O35 O 0.73911 0.81766 0.25007 0.0
Cd36 Cd 0.71839 0.79506 0.25508 0.0
O37 O 0.69386 0.78245 0.26809 0.0
C38 C 0.67946 0.79125 0.26749 0.0
O39 O 0.6799 0.80668 0.25839 0.0
C40 C 0.73668 0.82911 0.23699 0.0
C41 C 0.70985 0.77437 0.19449 0.0
O42 O 0.69791 0.78596 0.19096 0.0
O43 O 0.71764 0.77421 0.21154 0.0
O44 O 0.09711 0.96009 0.49197 0.0
Cd45 Cd 0.081 0.93012 0.48305 0.0
O46 O 0.07773 0.97151 0.47105 0.0
Cd47 Cd 0.06392 0.99174 0.45415 0.0
O48 O 0.04269 0.00242 0.4347 0.0
C49 C 0.04317 0.99967 0.41676 0.0
O50 O 0.05701 0.99135 0.41047 0.0
C51 C 0.09183 0.97385 0.48319 0.0
C52 C 0.06844 0.9096 0.5134 0.0
O53 O 0.08534 0.90961 0.50869 0.0
O54 O 0.05757 0.91963 0.504 0.0
O55 O 0.29668 0.76946 0.811 0.0
Cd56 Cd 0.30613 0.75766 0.78071 0.0
O57 O 0.26878 0.75531 0.80432 0.0
Cd58 Cd 0.23882 0.74975 0.80749 0.0
O59 O 0.20889 0.74768 0.79894 0.0
C60 C 0.20381 0.7586 0.7862 0.0
O61 O 0.21654 0.77037 0.77972 0.0
C62 C 0.28003 0.76559 0.81554 0.0
C63 C 0.30815 0.72011 0.78048 0.0
O64 O 0.32237 0.73118 0.78614 0.0
O65 O 0.29289 0.72682 0.77505 0.0
O66 O 0.98885 0.54189 0.47411 0.0
Cd67 Cd 0.97011 0.55051 0.50015 0.0
O68 O 0.00533 0.52387 0.49174 0.0
Cd69 Cd 0.99477 0.53457 0.51775 0.0
O70 O 0.98979 0.55577 0.53856 0.0
C71 C 0.00195 0.56946 0.53999 0.0
O72 O 0.01641 0.56955 0.52953 0.0
C73 C 0.00108 0.53048 0.47553 0.0
C74 C 0.94023 0.52428 0.50465 0.0
O75 O 0.93831 0.53778 0.49368 0.0
O76 O 0.95627 0.52322 0.51357 0.0
O77 O 0.79378 0.77409 0.83483 0.0
Cd78 Cd 0.79588 0.79597 0.80909 0.0
O79 O 0.76322 0.77432 0.83498 0.0
Cd80 Cd 0.76059 0.79663 0.81519 0.0
O81 O 0.74891 0.8212 0.80465 0.0
C82 C 0.73182 0.82249 0.80754 0.0
O83 O 0.72254 0.80902 0.81582 0.0
C84 C 0.77835 0.7681 0.84124 0.0
C85 C 0.82596 0.79093 0.78704 0.0
O86 O 0.82775 0.80228 0.80133 0.0
O87 O 0.80994 0.782 0.78318 0.0
O88 O 0.30273 0.28443 0.34357 0.0
Cd89 Cd 0.308 0.30935 0.32149 0.0
O90 O 0.27293 0.27809 0.33426 0.0
Cd91 Cd 0.2713 0.3017 0.3161 0.0
O92 O 0.25854 0.32617 0.30691 0.0
C93 C 0.24233 0.32761 0.31258 0.0
O94 O 0.23478 0.31454 0.32283 0.0
C95 C 0.28736 0.27463 0.34462 0.0
C96 C 0.33522 0.3023 0.29651 0.0
O97 O 0.33978 0.30909 0.31338 0.0
O98 O 0.31776 0.29888 0.29137 0.0
O99 O 0.46351 0.98224 0.59321 0.0
Cd100 Cd 0.44501 0.97674 0.5626 0.0
O101 O 0.48873 0.97233 0.58215 0.0
Cd102 Cd 0.47626 0.96164 0.55439 0.0
O103 O 0.47701 0.94098 0.53172 0.0
C104 C 0.46663 0.92608 0.53178 0.0
O105 O 0.45441 0.92386 0.54482 0.0
C106 C 0.48068 0.9794 0.59567 0.0
C107 C 0.4186 0.00208 0.55737 0.0
O108 O 0.41449 0.98682 0.56523 0.0
O109 O 0.43519 0.00532 0.55192 0.0
O110 O 0.22474 0.32577 0.72648 0.0
Cd111 Cd 0.20295 0.29814 0.72423 0.0
O112 O 0.24346 0.31506 0.74887 0.0
Cd113 Cd 0.2228 0.29246 0.75405 0.0
O114 O 0.19808 0.28061 0.76731 0.0
C115 C 0.18528 0.29111 0.76937 0.0
O116 O 0.18746 0.30769 0.76282 0.0
C117 C 0.23985 0.32752 0.73726 0.0
C118 C 0.21145 0.27427 0.69525 0.0
O119 O 0.19989 0.28625 0.69187 0.0
O120 O 0.21894 0.27355 0.71236 0.0
O121 O 0.81426 0.23678 0.749 0.0
Cd122 Cd 0.78401 0.22979 0.73076 0.0
O123 O 0.82406 0.21048 0.741 0.0
Cd124 Cd 0.797 0.199 0.72794 0.0
O125 O 0.77287 0.1788 0.72784 0.0
C126 C 0.76071 0.18068 0.73985 0.0
O127 O 0.76237 0.19541 0.75096 0.0
C128 C 0.82711 0.22601 0.74945 0.0
C129 C 0.77962 0.2522 0.69938 0.0
O130 O 0.77394 0.25649 0.71567 0.0
O131 O 0.78742 0.23733 0.69796 0.0
O132 O 0.55175 0.55322 0.50139 0.0
Cd133 Cd 0.55363 0.52445 0.51791 0.0
O134 O 0.53346 0.55769 0.52415 0.0
Cd135 Cd 0.51334 0.56938 0.54163 0.0
O136 O 0.4957 0.57037 0.56562 0.0
C137 C 0.47887 0.56326 0.56385 0.0
O138 O 0.47199 0.55637 0.54707 0.0
C139 C 0.54116 0.56348 0.50936 0.0
C140 C 0.5854 0.50635 0.51331 0.0
O141 O 0.57044 0.50258 0.50232 0.0
O142 O 0.58549 0.51906 0.52611 0.0
O143 O 0.58946 0.46101 0.98436 0.0
Cd144 Cd 0.56491 0.436 0.97762 0.0
O145 O 0.56785 0.47791 0.9737 0.0
Cd146 Cd 0.55495 0.50161 0.96261 0.0
O147 O 0.53267 0.51198 0.94429 0.0
C148 C 0.53594 0.5191 0.92835 0.0
O149 O 0.5533 0.52146 0.92355 0.0
C150 C 0.58462 0.47668 0.98023 0.0
C151 C 0.55832 0.41295 0.00798 0.0
O152 O 0.56977 0.40932 0.99552 0.0
O153 O 0.55029 0.4277 0.00629 0.0
O154 O 0.79291 0.27115 0.31013 0.0
Cd155 Cd 0.80234 0.25892 0.28003 0.0
O156 O 0.76529 0.25602 0.30457 0.0
Cd157 Cd 0.73569 0.25039 0.30942 0.0
O158 O 0.70562 0.24942 0.30188 0.0
C159 C 0.6994 0.24086 0.28644 0.0
O160 O 0.7111 0.23245 0.27662 0.0
C161 C 0.77651 0.26687 0.31519 0.0
C162 C 0.80573 0.2216 0.28091 0.0
O163 O 0.81958 0.23322 0.28628 0.0
O164 O 0.79018 0.22767 0.27525 0.0
O165 O 0.48912 0.03648 0.97238 0.0
Cd166 Cd 0.47143 0.04468 0.99935 0.0
O167 O 0.51314 0.02977 0.9913 0.0
Cd168 Cd 0.50175 0.04064 0.01677 0.0
O169 O 0.49538 0.06116 0.03765 0.0
C170 C 0.50718 0.0751 0.03985 0.0
O171 O 0.52211 0.07583 0.03 0.0
C172 C 0.50519 0.03056 0.97454 0.0
C173 C 0.44042 0.01972 0.00286 0.0
O174 O 0.43879 0.03464 0.9941 0.0
O175 O 0.45669 0.01664 0.01002 0.0
Li176 Li 0.27332 0.88875 0.01188 0.0
Li177 Li 0.25654 0.86523 0.0301 0.0
Li178 Li 0.25335 0.86382 0.99381 0.0
Li179 Li 0.23842 0.88614 0.01249 0.0
C180 C 0.29354 0.85725 0.00946 0.0
N181 N 0.329 0.84693 0.00498 0.0
C182 C 0.30551 0.85432 0.0255 0.0
C183 C 0.2995 0.85451 0.99112 0.0
C184 C 0.32342 0.84924 0.02295 0.0
C185 C 0.3175 0.8494 0.98916 0.0
C186 C 0.25993 0.89523 0.05319 0.0
C187 C 0.24814 0.89208 0.08447 0.0
N188 N 0.26443 0.90076 0.09249 0.0
C189 C 0.2765 0.90424 0.06172 0.0
C190 C 0.24557 0.88922 0.06463 0.0
C191 C 0.27852 0.90687 0.08162 0.0
C192 C 0.29498 0.92015 0.00051 0.0
N193 N 0.2954 0.90532 0.01172 0.0
C194 C 0.32717 0.91448 0.0229 0.0
C195 C 0.31098 0.90247 0.02304 0.0
C196 C 0.32729 0.92945 0.01086 0.0
C197 C 0.31094 0.93228 0.99962 0.0
H198 H 0.28224 0.92264 0.99228 0.0
H199 H 0.31077 0.89102 0.03241 0.0
C200 C 0.2457 0.83641 0.05427 0.0
N201 N 0.25856 0.85084 0.05242 0.0
C202 C 0.24679 0.82568 0.07048 0.0
C203 C 0.27431 0.84492 0.08258 0.0
C204 C 0.27278 0.85513 0.06608 0.0
C205 C 0.26124 0.82991 0.08496 0.0
H206 H 0.23463 0.83318 0.04311 0.0
H207 H 0.28289 0.86662 0.06428 0.0
C208 C 0.25831 0.89619 0.97254 0.0
N209 N 0.26728 0.90728 0.93658 0.0
C210 C 0.24583 0.90557 0.96115 0.0
C211 C 0.27544 0.89267 0.96572 0.0
C212 C 0.25059 0.911 0.94299 0.0
C213 C 0.2797 0.89833 0.9475 0.0
C214 C 0.21469 0.85681 0.01037 0.0
C215 C 0.20539 0.85358 0.99222 0.0
C216 C 0.20435 0.85811 0.02641 0.0
C217 C 0.18584 0.85194 0.9904 0.0
C218 C 0.18481 0.85641 0.02399 0.0
N219 N 0.17604 0.8534 0.00619 0.0
C220 C 0.25709 0.83116 0.9735 0.0
C221 C 0.24471 0.85391 0.95433 0.0
C222 C 0.25733 0.81967 0.9574 0.0
N223 N 0.25126 0.84808 0.97161 0.0
C224 C 0.245 0.84302 0.93784 0.0
C225 C 0.25165 0.82571 0.93914 0.0
H226 H 0.26196 0.82676 0.98748 0.0
H227 H 0.23956 0.86715 0.95322 0.0
C228 C 0.21417 0.90987 0.02793 0.0
N229 N 0.21722 0.89987 0.01212 0.0
C230 C 0.19916 0.92059 0.02767 0.0
C231 C 0.19076 0.91067 0.99479 0.0
C232 C 0.20586 0.90001 0.99575 0.0
C233 C 0.18732 0.92118 0.01089 0.0
H234 H 0.22357 0.90981 0.04065 0.0
H235 H 0.20862 0.89196 0.98337 0.0
O236 O 0.27585 0.86204 0.01173 0.0
O237 O 0.25779 0.89239 0.03373 0.0
O238 O 0.25374 0.89056 0.99027 0.0
O239 O 0.23382 0.85882 0.01238 0.0
H240 H 0.30111 0.85611 0.03979 0.0
H241 H 0.29032 0.85611 0.9785 0.0
H242 H 0.33287 0.84711 0.03526 0.0
H243 H 0.32228 0.84732 0.97504 0.0
H244 H 0.23719 0.88737 0.0935 0.0
H245 H 0.28768 0.90915 0.05309 0.0
H246 H 0.23266 0.88224 0.05827 0.0
H247 H 0.2913 0.91375 0.08842 0.0
H248 H 0.33951 0.912 0.03191 0.0
H249 H 0.31045 0.94392 0.99046 0.0
H250 H 0.23656 0.81409 0.07152 0.0
H251 H 0.2855 0.84891 0.09345 0.0
H252 H 0.2326 0.9086 0.96624 0.0
H253 H 0.28546 0.88593 0.97454 0.0
H254 H 0.24103 0.91819 0.93399 0.0
H255 H 0.29292 0.89569 0.94207 0.0
H256 H 0.21319 0.85255 0.97965 0.0
H257 H 0.21133 0.86045 0.04057 0.0
H258 H 0.17845 0.84956 0.97643 0.0
H259 H 0.17663 0.85748 0.03627 0.0
H260 H 0.26215 0.8063 0.95926 0.0
H261 H 0.24061 0.84844 0.92416 0.0
H262 H 0.19713 0.9287 0.0403 0.0
H263 H 0.18186 0.91067 0.98163 0.0
Li264 Li 0.11141 0.50301 0.30944 0.0
Li265 Li 0.13194 0.48566 0.29203 0.0
Li266 Li 0.13238 0.51891 0.28888 0.0
Li267 Li 0.10618 0.49928 0.27412 0.0
C268 C 0.14528 0.50887 0.33055 0.0
N269 N 0.1568 0.51635 0.36866 0.0
C270 C 0.1551 0.49645 0.34109 0.0
C271 C 0.14142 0.52514 0.33938 0.0
C272 C 0.16078 0.50047 0.36034 0.0
C273 C 0.14733 0.52866 0.35866 0.0
C274 C 0.09992 0.46596 0.30548 0.0
C275 C 0.07838 0.44106 0.31431 0.0
N276 N 0.09052 0.43773 0.32936 0.0
C277 C 0.11218 0.46227 0.32102 0.0
C278 C 0.08289 0.45527 0.30207 0.0
C279 C 0.10718 0.44795 0.33293 0.0
C280 C 0.08117 0.51145 0.32954 0.0
N281 N 0.09793 0.50436 0.33197 0.0
C282 C 0.09362 0.4997 0.36515 0.0
C283 C 0.10413 0.49818 0.34926 0.0
C284 C 0.07637 0.50714 0.36304 0.0
C285 C 0.07005 0.5129 0.34495 0.0
H286 H 0.07642 0.51599 0.31558 0.0
H287 H 0.11716 0.49203 0.35081 0.0
C288 C 0.16571 0.46942 0.29703 0.0
N289 N 0.14708 0.4658 0.29223 0.0
C290 C 0.17742 0.45532 0.29771 0.0
C291 C 0.1506 0.4341 0.28798 0.0
C292 C 0.13941 0.4486 0.28754 0.0
C293 C 0.16986 0.43735 0.29326 0.0
H294 H 0.17145 0.48328 0.30044 0.0
H295 H 0.12458 0.4461 0.28359 0.0
C296 C 0.10405 0.53948 0.28835 0.0
N297 N 0.10246 0.57647 0.28417 0.0
C298 C 0.10203 0.54665 0.27007 0.0
C299 C 0.10494 0.55107 0.3045 0.0
C300 C 0.10135 0.5654 0.26825 0.0
C301 C 0.10419 0.56974 0.30209 0.0
C302 C 0.13524 0.48881 0.25306 0.0
C303 C 0.1495 0.49335 0.24099 0.0
C304 C 0.12365 0.47262 0.24965 0.0
C305 C 0.15196 0.48157 0.22567 0.0
C306 C 0.12656 0.4612 0.23419 0.0
N307 N 0.14053 0.46587 0.22262 0.0
C308 C 0.15905 0.54983 0.2979 0.0
C309 C 0.14725 0.54577 0.26545 0.0
C310 C 0.17045 0.5653 0.29345 0.0
N311 N 0.14772 0.54047 0.28395 0.0
C312 C 0.15835 0.56118 0.26036 0.0
C313 C 0.17024 0.57113 0.27444 0.0
H314 H 0.15954 0.54515 0.3124 0.0
H315 H 0.13825 0.53794 0.25461 0.0
C316 C 0.07055 0.48923 0.25522 0.0
N317 N 0.08809 0.49701 0.25294 0.0
C318 C 0.05701 0.4878 0.23977 0.0
C319 C 0.07988 0.50254 0.22005 0.0
C320 C 0.09294 0.50368 0.23586 0.0
C321 C 0.06162 0.49452 0.22189 0.0
H322 H 0.06706 0.48428 0.26907 0.0
H323 H 0.10697 0.50995 0.23453 0.0
O324 O 0.13952 0.5051 0.3117 0.0
O325 O 0.10447 0.47998 0.29368 0.0
O326 O 0.10507 0.52119 0.29041 0.0
O327 O 0.13277 0.50021 0.26815 0.0
H328 H 0.15822 0.48379 0.33453 0.0
H329 H 0.13384 0.53487 0.33146 0.0
H330 H 0.16833 0.49096 0.36868 0.0
H331 H 0.14436 0.54116 0.36567 0.0
H332 H 0.06524 0.43267 0.31184 0.0
H333 H 0.12541 0.47038 0.32384 0.0
H334 H 0.07324 0.45792 0.29008 0.0
H335 H 0.11654 0.44498 0.34502 0.0
H336 H 0.0988 0.4949 0.37887 0.0
H337 H 0.0568 0.51874 0.34283 0.0
H338 H 0.19223 0.45846 0.3016 0.0
H339 H 0.14416 0.42045 0.28462 0.0
H340 H 0.10122 0.53786 0.25743 0.0
H341 H 0.10609 0.5457 0.31875 0.0
H342 H 0.09997 0.57116 0.25419 0.0
H343 H 0.10494 0.57889 0.31447 0.0
H344 H 0.15859 0.50585 0.24346 0.0
H345 H 0.11252 0.46888 0.25882 0.0
H346 H 0.16295 0.4849 0.21621 0.0
H347 H 0.1177 0.44862 0.23139 0.0
H348 H 0.17967 0.57234 0.30469 0.0
H349 H 0.15762 0.56525 0.24557 0.0
H350 H 0.04305 0.48172 0.24187 0.0
H351 H 0.08411 0.50766 0.20649 0.0
Li352 Li 0.7364 0.624 0.01798 0.0
Li353 Li 0.75178 0.64847 0.03941 0.0
Li354 Li 0.75736 0.64835 0.00582 0.0
Li355 Li 0.76973 0.62569 0.0276 0.0
C356 C 0.71617 0.65395 0.02329 0.0
N357 N 0.68185 0.66065 0.03593 0.0
C358 C 0.70942 0.64491 0.03912 0.0
C359 C 0.70543 0.66639 0.01389 0.0
C360 C 0.69206 0.64849 0.04529 0.0
C361 C 0.68812 0.66959 0.0205 0.0
C362 C 0.75423 0.61136 0.05867 0.0
C363 C 0.77683 0.6052 0.08432 0.0
N364 N 0.76645 0.58937 0.08759 0.0
C365 C 0.74366 0.59515 0.06246 0.0
C366 C 0.77082 0.61654 0.06987 0.0
C367 C 0.75011 0.58418 0.07708 0.0
C368 C 0.71728 0.58937 0.0152 0.0
N369 N 0.71505 0.60708 0.01148 0.0
C370 C 0.68348 0.59907 0.99889 0.0
C371 C 0.69869 0.6121 0.00315 0.0
C372 C 0.68519 0.5808 0.00336 0.0
C373 C 0.70238 0.57598 0.01149 0.0
H374 H 0.73068 0.58567 0.02105 0.0
H375 H 0.69742 0.62617 0.99975 0.0
C376 C 0.74463 0.68179 0.0564 0.0
N377 N 0.74803 0.66439 0.06043 0.0
C378 C 0.74122 0.69393 0.07103 0.0
C379 C 0.74439 0.66992 0.09368 0.0
C380 C 0.7479 0.65828 0.07862 0.0
C381 C 0.74099 0.68801 0.08996 0.0
H382 H 0.74435 0.68617 0.04174 0.0
H383 H 0.75026 0.64433 0.08145 0.0
C384 C 0.75017 0.61652 0.98319 0.0
N385 N 0.73601 0.60639 0.94639 0.0
C386 C 0.75763 0.60261 0.97324 0.0
C387 C 0.73549 0.62527 0.97445 0.0
C388 C 0.75028 0.59768 0.95463 0.0
C389 C 0.72854 0.61995 0.95583 0.0
C390 C 0.78407 0.66818 0.03701 0.0
C391 C 0.78127 0.68496 0.0289 0.0
C392 C 0.79454 0.66773 0.05459 0.0
C393 C 0.78868 0.70102 0.03866 0.0
C394 C 0.80171 0.68409 0.06393 0.0
N395 N 0.79864 0.70026 0.05585 0.0
C396 C 0.75178 0.67717 0.98101 0.0
C397 C 0.77494 0.65843 0.97204 0.0
C398 C 0.75474 0.68819 0.96535 0.0
N399 N 0.76189 0.6627 0.98409 0.0
C400 C 0.77828 0.66902 0.95609 0.0
C401 C 0.76818 0.6842 0.95266 0.0
H402 H 0.74154 0.68025 0.99086 0.0
H403 H 0.78276 0.6468 0.97487 0.0
C404 C 0.78495 0.59229 0.03016 0.0
N405 N 0.78943 0.61055 0.03239 0.0
C406 C 0.79862 0.58027 0.03352 0.0
C407 C 0.82133 0.60607 0.04138 0.0
C408 C 0.80719 0.61762 0.03783 0.0
C409 C 0.81712 0.58711 0.0392 0.0
H410 H 0.77067 0.5871 0.02585 0.0
H411 H 0.81037 0.63222 0.03936 0.0
O412 O 0.73321 0.65082 0.01697 0.0
O413 O 0.74828 0.62218 0.0442 0.0
O414 O 0.75721 0.62141 0.00144 0.0
O415 O 0.7766 0.65231 0.02779 0.0
H416 H 0.71742 0.63522 0.04662 0.0
H417 H 0.71037 0.67347 0.00159 0.0
H418 H 0.68669 0.6416 0.05753 0.0
H419 H 0.67967 0.67917 0.01335 0.0
H420 H 0.78975 0.60899 0.09295 0.0
H421 H 0.73049 0.59115 0.05441 0.0
H422 H 0.77902 0.62912 0.06729 0.0
H423 H 0.74208 0.57157 0.08012 0.0
H424 H 0.67046 0.60325 0.99247 0.0
H425 H 0.70433 0.56195 0.01474 0.0
H426 H 0.73836 0.70767 0.0675 0.0
H427 H 0.74439 0.66484 0.10809 0.0
H428 H 0.76897 0.59568 0.97985 0.0
H429 H 0.7295 0.63604 0.98193 0.0
H430 H 0.75592 0.58694 0.94675 0.0
H431 H 0.71719 0.6266 0.94889 0.0
H432 H 0.77325 0.68563 0.01534 0.0
H433 H 0.79716 0.65494 0.061 0.0
H434 H 0.78647 0.71409 0.03261 0.0
H435 H 0.80974 0.68393 0.07759 0.0
H436 H 0.74648 0.69961 0.9631 0.0
H437 H 0.78883 0.66555 0.94671 0.0
H438 H 0.7947 0.56575 0.03192 0.0
H439 H 0.83545 0.61193 0.04552 0.0
Li440 Li 0.85891 0.03627 0.26261 0.0
Li441 Li 0.88325 0.0192 0.27649 0.0
Li442 Li 0.88031 0.02419 0.24203 0.0
Li443 Li 0.85744 0.00248 0.2569 0.0
C444 C 0.88809 0.06036 0.26811 0.0
N445 N 0.8902 0.0968 0.27889 0.0
C446 C 0.89369 0.06594 0.28703 0.0
C447 C 0.88363 0.07334 0.25466 0.0
C448 C 0.89469 0.08443 0.29219 0.0
C449 C 0.88473 0.09168 0.26041 0.0
C450 C 0.85208 0.00803 0.29799 0.0
C451 C 0.84814 0.98076 0.3163 0.0
N452 N 0.84299 0.99079 0.33122 0.0
C453 C 0.84666 0.01805 0.31348 0.0
C454 C 0.85277 0.98922 0.29938 0.0
C455 C 0.84217 0.0091 0.33017 0.0
C456 C 0.83461 0.06288 0.2516 0.0
N457 N 0.84473 0.0564 0.26668 0.0
C458 C 0.83918 0.08181 0.28651 0.0
C459 C 0.84663 0.06517 0.28408 0.0
C460 C 0.82958 0.08939 0.27088 0.0
C461 C 0.82686 0.07944 0.2534 0.0
H462 H 0.83315 0.05555 0.23798 0.0
H463 H 0.85487 0.05977 0.29578 0.0
C464 C 0.91927 0.0262 0.29373 0.0
N465 N 0.90216 0.01801 0.29719 0.0
C466 C 0.93453 0.02558 0.3071 0.0
C467 C 0.91432 0.00835 0.32764 0.0
C468 C 0.89944 0.00926 0.31382 0.0
C469 C 0.9322 0.01648 0.32432 0.0
H470 H 0.92112 0.03299 0.28036 0.0
H471 H 0.88589 0.00279 0.31643 0.0
C472 C 0.84963 0.02185 0.21884 0.0
N473 N 0.84535 0.02128 0.17926 0.0
C474 C 0.84391 0.00553 0.20868 0.0
C475 C 0.85304 0.03791 0.20886 0.0
C476 C 0.84184 0.00553 0.18868 0.0
C477 C 0.85085 0.03733 0.18886 0.0
C478 C 0.90046 0.99336 0.26038 0.0
C479 C 0.91753 1.00015 0.25373 0.0
C480 C 0.89999 0.9791 0.27323 0.0
C481 C 0.9339 0.99264 0.26019 0.0
C482 C 0.91667 0.97198 0.27937 0.0
N483 N 0.93314 0.97885 0.27279 0.0
C484 C 0.90442 0.04407 0.21819 0.0
C485 C 0.89261 0.01473 0.20596 0.0
C486 C 0.91419 0.04733 0.20191 0.0
N487 N 0.89375 0.02807 0.2198 0.0
C488 C 0.90208 0.01744 0.18937 0.0
C489 C 0.91304 0.03394 0.1872 0.0
H490 H 0.90541 0.05429 0.22957 0.0
H491 H 0.8843 0.00199 0.20781 0.0
C492 C 0.82298 0.98056 0.25417 0.0
N493 N 0.84171 0.98045 0.25285 0.0
C494 C 0.81122 0.96442 0.25133 0.0
C495 C 0.83831 0.94844 0.24585 0.0
C496 C 0.84951 0.9649 0.24866 0.0
C497 C 0.81886 0.94802 0.24719 0.0
H498 H 0.8172 0.9932 0.25742 0.0
H499 H 0.86447 0.96526 0.24765 0.0
O500 O 0.88666 0.04227 0.26287 0.0
O501 O 0.85616 0.01658 0.28142 0.0
O502 O 0.85205 0.02207 0.23842 0.0
O503 O 0.88437 0.00091 0.25468 0.0
H504 H 0.89697 0.0561 0.29771 0.0
H505 H 0.87903 0.06926 0.24003 0.0
H506 H 0.89892 0.08893 0.3068 0.0
H507 H 0.88114 0.10184 0.25019 0.0
H508 H 0.84871 0.96623 0.31759 0.0
H509 H 0.84588 0.03258 0.31262 0.0
H510 H 0.85709 0.98124 0.28769 0.0
H511 H 0.83798 0.0167 0.34227 0.0
H512 H 0.84179 0.08908 0.30018 0.0
H513 H 0.81926 0.08464 0.24109 0.0
H514 H 0.94811 0.03181 0.30378 0.0
H515 H 0.91182 0.00137 0.34081 0.0
H516 H 0.84124 0.99297 0.21613 0.0
H517 H 0.85763 0.05063 0.21647 0.0
H518 H 0.8375 0.99298 0.18063 0.0
H519 H 0.85359 0.04962 0.18095 0.0
H520 H 0.91819 0.01127 0.2439 0.0
H521 H 0.88693 0.97369 0.27855 0.0
H522 H 0.94722 0.99784 0.25525 0.0
H523 H 0.91653 0.96103 0.28942 0.0
H524 H 0.92243 0.06027 0.20077 0.0
H525 H 0.90108 0.00664 0.17852 0.0
H526 H 0.7963 0.96482 0.25223 0.0
H527 H 0.84487 0.93614 0.24296 0.0
Li528 Li 0.25309 0.15075 0.53776 0.0
Li529 Li 0.238 0.12589 0.51676 0.0
Li530 Li 0.27156 0.12783 0.52621 0.0
Li531 Li 0.25869 0.14923 0.50379 0.0
C532 C 0.24442 0.12448 0.56062 0.0
N533 N 0.2315 0.12695 0.59673 0.0
C534 C 0.22531 0.12105 0.56307 0.0
C535 C 0.25696 0.12911 0.57654 0.0
C536 C 0.21906 0.12236 0.58145 0.0
C537 C 0.25015 0.13032 0.59467 0.0
C538 C 0.22854 0.16593 0.50505 0.0
C539 C 0.21472 0.17726 0.47576 0.0
N540 N 0.21815 0.19456 0.48312 0.0
C541 C 0.2319 0.18382 0.51233 0.0
C542 C 0.21984 0.1626 0.48664 0.0
C543 C 0.22653 0.1981 0.50102 0.0
C544 C 0.26347 0.17629 0.56887 0.0
N545 N 0.24896 0.16664 0.55859 0.0
C546 C 0.22694 0.17932 0.57777 0.0
C547 C 0.23094 0.16801 0.56267 0.0
C548 C 0.24163 0.18939 0.58878 0.0
C549 C 0.26011 0.18776 0.58414 0.0
H550 H 0.27765 0.17508 0.56523 0.0
H551 H 0.21967 0.16032 0.5541 0.0
C552 C 0.21831 0.09162 0.51776 0.0
N553 N 0.21642 0.10892 0.51218 0.0
C554 C 0.2036 0.07804 0.51414 0.0
C555 C 0.18491 0.10047 0.49973 0.0
C556 C 0.20009 0.11363 0.50352 0.0
C557 C 0.18667 0.08235 0.50486 0.0
H558 H 0.23139 0.08835 0.52486 0.0
H559 H 0.1989 0.12754 0.49941 0.0
C560 C 0.29618 0.15593 0.52843 0.0
N561 N 0.33472 0.15648 0.53279 0.0
C562 C 0.30682 0.15857 0.5126 0.0
C563 C 0.30515 0.15359 0.54648 0.0
C564 C 0.32629 0.15883 0.51511 0.0
C565 C 0.32464 0.15389 0.54839 0.0
C566 C 0.25221 0.10735 0.49004 0.0
C567 C 0.25868 0.09062 0.49486 0.0
C568 C 0.23811 0.10801 0.4753 0.0
C569 C 0.2509 0.07481 0.48486 0.0
C570 C 0.23066 0.09189 0.46568 0.0
N571 N 0.23716 0.07576 0.47062 0.0
C572 C 0.29418 0.10516 0.54845 0.0
C573 C 0.30398 0.11165 0.51751 0.0
C574 C 0.30872 0.09404 0.55186 0.0
N575 N 0.2921 0.11364 0.53149 0.0
C576 C 0.31866 0.10062 0.52027 0.0
C577 C 0.32108 0.09152 0.53758 0.0
H578 H 0.28436 0.10673 0.5592 0.0
H579 H 0.30186 0.11842 0.50407 0.0
C580 C 0.26973 0.18167 0.48571 0.0
N581 N 0.26358 0.16386 0.48223 0.0
C582 C 0.27307 0.19322 0.47055 0.0
C583 C 0.26387 0.16783 0.44844 0.0
C584 C 0.2608 0.15674 0.46407 0.0
C585 C 0.27001 0.18638 0.45157 0.0
H586 H 0.27199 0.18691 0.50033 0.0
H587 H 0.25607 0.14251 0.46169 0.0
O588 O 0.25076 0.12376 0.54268 0.0
O589 O 0.2342 0.1518 0.51567 0.0
O590 O 0.27708 0.15524 0.5262 0.0
O591 O 0.25933 0.12294 0.49996 0.0
H592 H 0.21538 0.11762 0.55091 0.0
H593 H 0.27176 0.13207 0.57487 0.0
H594 H 0.20431 0.11982 0.58355 0.0
H595 H 0.25968 0.13403 0.6071 0.0
H596 H 0.20812 0.17489 0.46144 0.0
H597 H 0.2388 0.18668 0.52646 0.0
H598 H 0.21737 0.14887 0.48067 0.0
H599 H 0.22912 0.21202 0.50644 0.0
H600 H 0.21247 0.18037 0.5806 0.0
H601 H 0.27188 0.19513 0.59233 0.0
H602 H 0.20543 0.06432 0.51863 0.0
H603 H 0.17209 0.10432 0.49252 0.0
H604 H 0.30013 0.1602 0.49848 0.0
H605 H 0.29713 0.15124 0.55883 0.0
H606 H 0.33469 0.1608 0.50297 0.0
H607 H 0.33175 0.15197 0.56225 0.0
H608 H 0.26942 0.08978 0.50634 0.0
H609 H 0.23267 0.12077 0.47161 0.0
H610 H 0.25573 0.06176 0.48849 0.0
H611 H 0.21963 0.09218 0.45437 0.0
H612 H 0.30993 0.08708 0.56531 0.0
H613 H 0.32796 0.09918 0.50895 0.0
H614 H 0.27811 0.20734 0.47368 0.0
H615 H 0.26115 0.16199 0.43408 0.0
Li616 Li 0.38528 0.52028 0.77421 0.0
Li617 Li 0.35911 0.53533 0.75987 0.0
Li618 Li 0.36018 0.50172 0.75447 0.0
Li619 Li 0.38062 0.52435 0.73857 0.0
C620 C 0.35479 0.50788 0.79602 0.0
N621 N 0.34745 0.49194 0.83043 0.0
C622 C 0.34824 0.51805 0.81078 0.0
C623 C 0.35724 0.4895 0.79866 0.0
C624 C 0.34473 0.50979 0.82811 0.0
C625 C 0.35354 0.48171 0.81618 0.0
C626 C 0.38735 0.56126 0.76346 0.0
C627 C 0.38137 0.59166 0.75428 0.0
N628 N 0.38814 0.59809 0.77202 0.0
C629 C 0.39439 0.5682 0.78154 0.0
C630 C 0.38094 0.5731 0.74964 0.0
C631 C 0.39464 0.58685 0.7856 0.0
C632 C 0.42097 0.51615 0.79163 0.0
N633 N 0.40366 0.52069 0.79526 0.0
C634 C 0.41364 0.52713 0.82823 0.0
C635 C 0.39981 0.52626 0.81307 0.0
C636 C 0.43156 0.52221 0.82496 0.0
C637 C 0.43516 0.51665 0.80638 0.0
H638 H 0.42381 0.51226 0.77723 0.0
H639 H 0.38612 0.53036 0.81546 0.0
C640 C 0.33276 0.56044 0.74971 0.0
N641 N 0.34402 0.55463 0.76431 0.0
C642 C 0.32466 0.5768 0.75167 0.0
C643 C 0.33897 0.58026 0.78403 0.0
C644 C 0.34678 0.56385 0.78145 0.0
C645 C 0.32821 0.58721 0.76882 0.0
H646 H 0.33076 0.55281 0.73626 0.0
H647 H 0.35607 0.55906 0.79268 0.0
C648 C 0.39633 0.48693 0.75388 0.0
N649 N 0.41381 0.45511 0.7562 0.0
C650 C 0.40363 0.47969 0.7377 0.0
C651 C 0.3982 0.47811 0.77131 0.0
C652 C 0.41233 0.46355 0.73914 0.0
C653 C 0.40701 0.46202 0.77218 0.0
C654 C 0.34891 0.51991 0.71652 0.0
C655 C 0.34356 0.5033 0.70678 0.0
C656 C 0.3506 0.53595 0.70623 0.0
C657 C 0.34019 0.503 0.68685 0.0
C658 C 0.34714 0.53508 0.68632 0.0
N659 N 0.34206 0.51875 0.67712 0.0
C660 C 0.32774 0.478 0.75709 0.0
C661 C 0.3523 0.46395 0.74369 0.0
C662 C 0.3161 0.46172 0.7551 0.0
N663 N 0.34548 0.47879 0.75148 0.0
C664 C 0.34123 0.44737 0.74161 0.0
C665 C 0.32282 0.44606 0.74732 0.0
H666 H 0.32261 0.49007 0.76304 0.0
H667 H 0.36626 0.46494 0.73894 0.0
C668 C 0.40337 0.54536 0.71447 0.0
N669 N 0.39313 0.52907 0.71583 0.0
C670 C 0.41205 0.54965 0.69773 0.0
C671 C 0.39993 0.5201 0.68425 0.0
C672 C 0.3914 0.51643 0.70123 0.0
C673 C 0.41032 0.53696 0.68232 0.0
H674 H 0.40482 0.55504 0.72638 0.0
H675 H 0.3832 0.50356 0.70269 0.0
O676 O 0.3582 0.51579 0.77893 0.0
O677 O 0.38656 0.54296 0.75938 0.0
O678 O 0.38776 0.50273 0.75266 0.0
O679 O 0.35249 0.52045 0.736 0.0
H680 H 0.34597 0.53221 0.80893 0.0
H681 H 0.36172 0.48123 0.78728 0.0
H682 H 0.33979 0.51755 0.83968 0.0
H683 H 0.35544 0.46751 0.81841 0.0
H684 H 0.37624 0.60093 0.7438 0.0
H685 H 0.39948 0.55928 0.79238 0.0
H686 H 0.37542 0.56798 0.73559 0.0
H687 H 0.39995 0.59239 0.79958 0.0
H688 H 0.41031 0.53149 0.84235 0.0
H689 H 0.44889 0.51305 0.8032 0.0
H690 H 0.31624 0.58157 0.73968 0.0
H691 H 0.34229 0.58794 0.79739 0.0
H692 H 0.40253 0.4864 0.72415 0.0
H693 H 0.39321 0.48376 0.78412 0.0
H694 H 0.41792 0.45775 0.7267 0.0
H695 H 0.40853 0.45507 0.78558 0.0
H696 H 0.34213 0.49076 0.71447 0.0
H697 H 0.35477 0.54892 0.7135 0.0
H698 H 0.33612 0.49023 0.67913 0.0
H699 H 0.34855 0.54736 0.67817 0.0
H700 H 0.30192 0.46151 0.75938 0.0
H701 H 0.34713 0.43567 0.73573 0.0
H702 H 0.42021 0.56267 0.69693 0.0
H703 H 0.39817 0.51 0.67266 0.0
Li704 Li 0.77559 0.39018 0.51117 0.0
Li705 Li 0.75801 0.36629 0.52958 0.0
Li706 Li 0.75554 0.36669 0.49439 0.0
Li707 Li 0.74145 0.38952 0.51121 0.0
C708 C 0.79662 0.36325 0.51382 0.0
N709 N 0.83518 0.3646 0.51836 0.0
C710 C 0.80563 0.36243 0.53211 0.0
C711 C 0.80718 0.36461 0.49783 0.0
C712 C 0.82515 0.36316 0.5341 0.0
C713 C 0.82667 0.36532 0.50042 0.0
C714 C 0.75434 0.4069 0.54361 0.0
C715 C 0.73273 0.41755 0.56511 0.0
N716 N 0.73984 0.43499 0.56255 0.0
C717 C 0.76147 0.42491 0.54121 0.0
C718 C 0.7399 0.40314 0.55569 0.0
C719 C 0.75394 0.43893 0.55092 0.0
C720 C 0.8033 0.41385 0.49539 0.0
N721 N 0.79827 0.40588 0.51181 0.0
C722 C 0.82519 0.42113 0.52937 0.0
C723 C 0.80879 0.40929 0.52866 0.0
C724 C 0.83078 0.42944 0.51256 0.0
C725 C 0.81961 0.42563 0.49541 0.0
H726 H 0.79453 0.4113 0.48231 0.0
H727 H 0.80435 0.4029 0.54156 0.0
C728 C 0.75741 0.3336 0.54984 0.0
N729 N 0.75935 0.35206 0.55185 0.0
C730 C 0.75897 0.32279 0.56592 0.0
C731 C 0.76493 0.3502 0.58581 0.0
C732 C 0.7631 0.36048 0.56935 0.0
C733 C 0.76285 0.33109 0.58421 0.0
H734 H 0.75497 0.32728 0.53571 0.0
H735 H 0.76491 0.37518 0.57051 0.0
C736 C 0.75469 0.395 0.47027 0.0
N737 N 0.74954 0.39834 0.43102 0.0
C738 C 0.7383 0.4014 0.46212 0.0
C739 C 0.76848 0.39034 0.45844 0.0
C740 C 0.73596 0.40298 0.44225 0.0
C741 C 0.7656 0.3921 0.43864 0.0
C742 C 0.7218 0.35227 0.50057 0.0
C743 C 0.70961 0.3601 0.48738 0.0
C744 C 0.7211 0.33331 0.50156 0.0
C745 C 0.6969 0.34882 0.47539 0.0
C746 C 0.70822 0.3225 0.48929 0.0
N747 N 0.69649 0.33041 0.47658 0.0
C748 C 0.7637 0.33586 0.47336 0.0
C749 C 0.74187 0.35288 0.45653 0.0
C750 C 0.76375 0.32394 0.45759 0.0
N751 N 0.75321 0.35025 0.47242 0.0
C752 C 0.74193 0.3417 0.44023 0.0
C753 C 0.7532 0.32708 0.44042 0.0
H754 H 0.77223 0.33372 0.48634 0.0
H755 H 0.73311 0.36399 0.45621 0.0
C756 C 0.725 0.42246 0.50698 0.0
N757 N 0.72163 0.40483 0.51199 0.0
C758 C 0.71089 0.4342 0.50724 0.0
C759 C 0.69009 0.40942 0.51786 0.0
C760 C 0.70469 0.39821 0.51761 0.0
C761 C 0.69305 0.4277 0.51256 0.0
H762 H 0.73871 0.42738 0.50277 0.0
H763 H 0.70248 0.38416 0.52171 0.0
O764 O 0.77758 0.36307 0.5116 0.0
O765 O 0.76114 0.39303 0.5338 0.0
O766 O 0.75727 0.39351 0.48972 0.0
O767 O 0.73456 0.3631 0.51221 0.0
H768 H 0.79766 0.36146 0.54463 0.0
H769 H 0.80038 0.36521 0.48358 0.0
H770 H 0.83234 0.36265 0.54817 0.0
H771 H 0.83503 0.36647 0.48819 0.0
H772 H 0.72147 0.41487 0.57441 0.0
H773 H 0.77256 0.42803 0.53179 0.0
H774 H 0.73413 0.38926 0.55753 0.0
H775 H 0.75925 0.45295 0.54914 0.0
H776 H 0.83345 0.42368 0.54288 0.0
H777 H 0.82321 0.43203 0.48221 0.0
H778 H 0.7576 0.30811 0.56403 0.0
H779 H 0.76786 0.35712 0.59965 0.0
H780 H 0.72742 0.40496 0.47099 0.0
H781 H 0.78112 0.38511 0.46445 0.0
H782 H 0.72333 0.40786 0.43576 0.0
H783 H 0.7761 0.38843 0.42932 0.0
H784 H 0.71019 0.37472 0.48612 0.0
H785 H 0.73048 0.327 0.51158 0.0
H786 H 0.68746 0.35471 0.46505 0.0
H787 H 0.70758 0.30781 0.48986 0.0
H788 H 0.77217 0.31255 0.45885 0.0
H789 H 0.73365 0.34497 0.42746 0.0
H790 H 0.71397 0.44825 0.50342 0.0
H791 H 0.67655 0.40372 0.52187 0.0
Li792 Li 0.63192 0.98737 0.78761 0.0
Li793 Li 0.61309 0.00468 0.80561 0.0
Li794 Li 0.60552 0.00073 0.77144 0.0
Li795 Li 0.63471 0.02063 0.78523 0.0
C796 C 0.60219 0.96684 0.80187 0.0
N797 N 0.5971 0.93665 0.82429 0.0
C798 C 0.61291 0.96587 0.81921 0.0
C799 C 0.58888 0.95246 0.79592 0.0
C800 C 0.61013 0.9505 0.83035 0.0
C801 C 0.58651 0.93731 0.80746 0.0
C802 C 0.65009 0.01262 0.82431 0.0
C803 C 0.66284 0.03792 0.84512 0.0
N804 N 0.66917 0.02604 0.85811 0.0
C805 C 0.65692 0.00067 0.83778 0.0
C806 C 0.65323 0.03141 0.82792 0.0
C807 C 0.66645 0.00772 0.85481 0.0
C808 C 0.66412 0.96892 0.79521 0.0
N809 N 0.64618 0.96688 0.7874 0.0
C810 C 0.64859 0.93545 0.78004 0.0
C811 C 0.63834 0.95063 0.77974 0.0
C812 C 0.66708 0.93704 0.78832 0.0
C813 C 0.67488 0.9541 0.79584 0.0
H814 H 0.67004 0.98208 0.801 0.0
H815 H 0.62406 0.94943 0.77351 0.0
C816 C 0.58264 0.99805 0.82825 0.0
N817 N 0.60033 0.00645 0.82881 0.0
C818 C 0.57182 0.99939 0.84391 0.0
C819 C 0.59757 0.01802 0.86056 0.0
C820 C 0.60787 0.01633 0.84457 0.0
C821 C 0.57924 0.00957 0.86033 0.0
H822 H 0.57672 0.99065 0.81541 0.0
H823 H 0.62169 0.02326 0.84473 0.0
C824 C 0.64051 0.99088 0.75225 0.0
N825 N 0.65841 0.9675 0.73007 0.0
C826 C 0.66002 0.99279 0.75221 0.0
C827 C 0.63009 0.97716 0.74096 0.0
C828 C 0.66881 0.9808 0.74092 0.0
C829 C 0.6394 0.96547 0.72984 0.0
C830 C 0.59556 0.03317 0.79648 0.0
C831 C 0.57632 0.02812 0.79394 0.0
C832 C 0.60235 0.04737 0.80939 0.0
C833 C 0.56417 0.03723 0.80459 0.0
C834 C 0.58974 0.05613 0.81977 0.0
N835 N 0.57108 0.05091 0.81719 0.0
C836 C 0.57021 0.98879 0.75241 0.0
C837 C 0.59068 0.00804 0.73494 0.0
C838 C 0.55659 0.98762 0.73704 0.0
N839 N 0.58683 0.99885 0.75101 0.0
C840 C 0.57751 0.00723 0.71925 0.0
C841 C 0.56019 0.99691 0.72015 0.0
H842 H 0.56755 0.98172 0.76547 0.0
H843 H 0.60408 0.0159 0.7343 0.0
C844 C 0.6693 0.04119 0.78136 0.0
N845 N 0.65044 0.04178 0.78046 0.0
C846 C 0.68094 0.05655 0.77706 0.0
C847 C 0.6535 0.07288 0.77137 0.0
C848 C 0.64241 0.05718 0.77566 0.0
C849 C 0.67306 0.07268 0.77188 0.0
H850 H 0.67527 0.02873 0.78525 0.0
H851 H 0.62734 0.0572 0.77505 0.0
O852 O 0.60478 0.98165 0.79059 0.0
O853 O 0.6411 0.00593 0.80737 0.0
O854 O 0.63168 0.00208 0.76368 0.0
O855 O 0.60771 0.02398 0.78669 0.0
H856 H 0.62321 0.97688 0.82403 0.0
H857 H 0.58051 0.95298 0.78249 0.0
H858 H 0.61833 0.94959 0.84382 0.0
H859 H 0.57627 0.92607 0.80303 0.0
H860 H 0.66523 0.05242 0.84815 0.0
H861 H 0.65499 0.98609 0.83509 0.0
H862 H 0.64809 0.04089 0.81773 0.0
H863 H 0.67174 0.99862 0.86539 0.0
H864 H 0.64196 0.92252 0.77426 0.0
H865 H 0.68915 0.95599 0.80211 0.0
H866 H 0.55764 0.99291 0.84297 0.0
H867 H 0.60389 0.02591 0.87297 0.0
H868 H 0.66828 0.00326 0.76098 0.0
H869 H 0.61499 0.97541 0.74097 0.0
H870 H 0.6839 0.98204 0.74083 0.0
H871 H 0.63153 0.95472 0.7211 0.0
H872 H 0.57087 0.01711 0.78407 0.0
H873 H 0.6172 0.05144 0.81151 0.0
H874 H 0.54926 0.03337 0.80289 0.0
H875 H 0.5948 0.06705 0.82991 0.0
H876 H 0.54336 0.97965 0.73841 0.0
H877 H 0.58102 0.01434 0.70642 0.0
H878 H 0.6959 0.05568 0.77743 0.0
H879 H 0.64683 0.08506 0.76776 0.0
Li880 Li 0.02668 0.25349 0.8897 0.0
Li881 Li 0.00902 0.26684 0.91349 0.0
Li882 Li 0.01087 0.23424 0.91192 0.0
Li883 Li 0.99274 0.24884 0.88745 0.0
C884 C 0.04662 0.26576 0.92406 0.0
N885 N 0.07663 0.29043 0.9362 0.0
C886 C 0.05072 0.28143 0.91367 0.0
C887 C 0.05781 0.26263 0.9406 0.0
C888 C 0.06595 0.29374 0.92004 0.0
C889 C 0.07291 0.27527 0.94651 0.0
C890 C 0.99772 0.28566 0.88098 0.0
C891 C 0.97069 0.30189 0.8855 0.0
N892 N 0.9756 0.31324 0.87125 0.0
C893 C 0.00251 0.29748 0.8664 0.0
C894 C 0.98169 0.28787 0.89062 0.0
C895 C 0.99114 0.31134 0.86169 0.0
C896 C 0.04452 0.26255 0.85654 0.0
N897 N 0.04767 0.25657 0.8746 0.0
C898 C 0.08008 0.25499 0.87 0.0
C899 C 0.06498 0.25268 0.88146 0.0
C900 C 0.0773 0.26127 0.85128 0.0
C901 C 0.05921 0.26503 0.84457 0.0
H902 H 0.03057 0.26544 0.85146 0.0
H903 H 0.06708 0.24778 0.89584 0.0
C904 C 0.99867 0.28525 0.94628 0.0
N905 N 0.00753 0.28757 0.92988 0.0
C906 C 0.99581 0.30032 0.95777 0.0
C907 C 0.01164 0.31981 0.93549 0.0
C908 C 0.01416 0.30439 0.92443 0.0
C909 C 0.00215 0.31792 0.95229 0.0
H910 H 0.99347 0.27172 0.9502 0.0
H911 H 0.02104 0.30592 0.91126 0.0
C912 C 0.02162 0.21713 0.87895 0.0
N913 N 0.04381 0.1902 0.86931 0.0
C914 C 0.01669 0.20605 0.8626 0.0
C915 C 0.03785 0.21452 0.8904 0.0
C916 C 0.02809 0.19251 0.85797 0.0
C917 C 0.04887 0.20083 0.88529 0.0
C918 C 0.97349 0.23481 0.91796 0.0
C919 C 0.96931 0.21971 0.90547 0.0
C920 C 0.96251 0.23706 0.93336 0.0
C921 C 0.95423 0.20708 0.90864 0.0
C922 C 0.94754 0.22413 0.93604 0.0
N923 N 0.94375 0.20953 0.92373 0.0
C924 C 0.02074 0.21444 0.94463 0.0
C925 C 0.00585 0.19623 0.91862 0.0
C926 C 0.0231 0.19895 0.95539 0.0
N927 N 0.01238 0.21279 0.92656 0.0
C928 C 0.00788 0.18041 0.92885 0.0
C929 C 0.01675 0.18163 0.94745 0.0
H930 H 0.02576 0.22778 0.95059 0.0
H931 H 0.99938 0.19523 0.90416 0.0
C932 C 0.97381 0.24248 0.85115 0.0
N933 N 0.97132 0.24695 0.86966 0.0
C934 C 0.95872 0.2414 0.83733 0.0
C935 C 0.93882 0.24962 0.8619 0.0
C936 C 0.95429 0.25057 0.87523 0.0
C937 C 0.94092 0.24497 0.84266 0.0
H938 H 0.98757 0.23979 0.84715 0.0
H939 H 0.95272 0.25434 0.88999 0.0
O940 O 0.03178 0.25347 0.91819 0.0
O941 O 0.00877 0.27204 0.88569 0.0
O942 O 0.01056 0.23045 0.88358 0.0
O943 O 0.98822 0.2474 0.91524 0.0
H944 H 0.04232 0.28408 0.90079 0.0
H945 H 0.05485 0.25055 0.94879 0.0
H946 H 0.06927 0.30591 0.91213 0.0
H947 H 0.08168 0.27301 0.9593 0.0
H948 H 0.95825 0.30376 0.89285 0.0
H949 H 0.01489 0.29596 0.85882 0.0
H950 H 0.97778 0.27891 0.90199 0.0
H951 H 0.99468 0.32059 0.85043 0.0
H952 H 0.09375 0.25171 0.87566 0.0
H953 H 0.05647 0.2701 0.83033 0.0
H954 H 0.98827 0.29824 0.97051 0.0
H955 H 0.01701 0.33307 0.93087 0.0
H956 H 0.00416 0.20791 0.8536 0.0
H957 H 0.04188 0.22292 0.90313 0.0
H958 H 0.02443 0.18383 0.84536 0.0
H959 H 0.06146 0.19866 0.89403 0.0
H960 H 0.97755 0.21775 0.89341 0.0
H961 H 0.96552 0.24869 0.94314 0.0
H962 H 0.95086 0.19534 0.89908 0.0
H963 H 0.93894 0.2257 0.94792 0.0
H964 H 0.02984 0.20052 0.96975 0.0
H965 H 0.00301 0.16734 0.92207 0.0
H966 H 0.96091 0.2376 0.82269 0.0
H967 H 0.9254 0.25271 0.86657 0.0
Li968 Li 0.5222 0.75387 0.38964 0.0
Li969 Li 0.50383 0.76694 0.41404 0.0
Li970 Li 0.50736 0.73438 0.41236 0.0
Li971 Li 0.48862 0.74796 0.3881 0.0
C972 C 0.54171 0.76746 0.42411 0.0
N973 N 0.57057 0.79348 0.43604 0.0
C974 C 0.54441 0.78362 0.41415 0.0
C975 C 0.55371 0.76454 0.44013 0.0
C976 C 0.55907 0.7966 0.42041 0.0
C977 C 0.56821 0.77786 0.44594 0.0
C978 C 0.49131 0.78233 0.37698 0.0
C979 C 0.46322 0.79791 0.37603 0.0
N980 N 0.46591 0.80262 0.35768 0.0
C981 C 0.49381 0.78736 0.35813 0.0
C982 C 0.4759 0.78766 0.38603 0.0
C983 C 0.48081 0.79761 0.34861 0.0
C984 C 0.53936 0.75953 0.35533 0.0
N985 N 0.54313 0.75725 0.37438 0.0
C986 C 0.57597 0.75887 0.37039 0.0
C987 C 0.56098 0.75657 0.382 0.0
C988 C 0.57253 0.76168 0.3507 0.0
C989 C 0.55391 0.76187 0.34318 0.0
H990 H 0.52501 0.75941 0.34956 0.0
H991 H 0.56363 0.75406 0.39706 0.0
C992 C 0.49543 0.785 0.44794 0.0
N993 N 0.50154 0.78755 0.43018 0.0
C994 C 0.49206 0.79995 0.45937 0.0
C995 C 0.50161 0.81981 0.43408 0.0
C996 C 0.50495 0.80452 0.42324 0.0
C997 C 0.49486 0.81761 0.4523 0.0
H998 H 0.49278 0.77133 0.45304 0.0
H999 H 0.50984 0.80617 0.40908 0.0
C1000 C 0.51881 0.71744 0.37996 0.0
N1001 N 0.54252 0.69148 0.37141 0.0
C1002 C 0.51415 0.70531 0.36439 0.0
C1003 C 0.53555 0.71638 0.39119 0.0
C1004 C 0.52632 0.69228 0.3603 0.0
C1005 C 0.54734 0.70316 0.38663 0.0
C1006 C 0.47002 0.73367 0.41938 0.0
C1007 C 0.46554 0.71853 0.407 0.0
C1008 C 0.46003 0.73556 0.43558 0.0
C1009 C 0.45112 0.7055 0.41108 0.0
C1010 C 0.4457 0.72223 0.43917 0.0
N1011 N 0.44159 0.7076 0.42695 0.0
C1012 C 0.51915 0.71485 0.44477 0.0
C1013 C 0.50319 0.69655 0.41938 0.0
C1014 C 0.52214 0.69939 0.45537 0.0
N1015 N 0.50994 0.71314 0.42708 0.0
C1016 C 0.50575 0.68077 0.42951 0.0
C1017 C 0.51546 0.68206 0.4477 0.0
H1018 H 0.52436 0.72822 0.45054 0.0
H1019 H 0.49612 0.6955 0.4052 0.0
C1020 C 0.46912 0.74073 0.35202 0.0
N1021 N 0.46698 0.74536 0.37057 0.0
C1022 C 0.45383 0.73974 0.33844 0.0
C1023 C 0.43445 0.74827 0.36337 0.0
C1024 C 0.45011 0.74912 0.37644 0.0
C1025 C 0.43621 0.74357 0.34406 0.0
H1026 H 0.48278 0.738 0.34777 0.0
H1027 H 0.44888 0.75313 0.39121 0.0
O1028 O 0.52739 0.75453 0.4184 0.0
O1029 O 0.50362 0.77189 0.3864 0.0
O1030 O 0.50698 0.73026 0.38404 0.0
O1031 O 0.48413 0.74661 0.4158 0.0
H1032 H 0.5354 0.7861 0.40165 0.0
H1033 H 0.55184 0.75211 0.448 0.0
H1034 H 0.56132 0.80914 0.41282 0.0
H1035 H 0.5776 0.77578 0.45832 0.0
H1036 H 0.45118 0.80203 0.38283 0.0
H1037 H 0.50564 0.78341 0.3509 0.0
H1038 H 0.47354 0.78362 0.40049 0.0
H1039 H 0.48255 0.80156 0.33401 0.0
H1040 H 0.59007 0.75823 0.37672 0.0
H1041 H 0.55062 0.76403 0.3281 0.0
H1042 H 0.48677 0.79769 0.47331 0.0
H1043 H 0.50417 0.83321 0.42823 0.0
H1044 H 0.50125 0.70597 0.35557 0.0
H1045 H 0.53941 0.72561 0.40332 0.0
H1046 H 0.52288 0.6828 0.34829 0.0
H1047 H 0.56032 0.70218 0.3952 0.0
H1048 H 0.4731 0.71682 0.39438 0.0
H1049 H 0.46332 0.74721 0.4453 0.0
H1050 H 0.44753 0.69371 0.40163 0.0
H1051 H 0.43785 0.72352 0.45167 0.0
H1052 H 0.52957 0.70098 0.46941 0.0
H1053 H 0.50061 0.66767 0.42295 0.0
H1054 H 0.45575 0.73592 0.32374 0.0
H1055 H 0.4212 0.75161 0.36825 0.0
Li1056 Li 0.00855 0.77143 0.65116 0.0
Li1057 Li 0.98712 0.76001 0.67488 0.0
Li1058 Li 0.02051 0.75596 0.67885 0.0
Li1059 Li 0.99975 0.73873 0.65417 0.0
C1060 C 0.01066 0.79743 0.67816 0.0
N1061 N 0.01447 0.83492 0.67574 0.0
C1062 C 0.99536 0.8074 0.68064 0.0
C1063 C 0.02792 0.80653 0.67454 0.0
C1064 C 0.99757 0.82634 0.67937 0.0
C1065 C 0.02955 0.82549 0.67332 0.0
C1066 C 0.97348 0.75014 0.63091 0.0
C1067 C 0.94989 0.72765 0.61648 0.0
N1068 N 0.95474 0.73276 0.59881 0.0
C1069 C 0.97819 0.75523 0.61261 0.0
C1070 C 0.95916 0.73631 0.63289 0.0
C1071 C 0.96855 0.74626 0.59656 0.0
C1072 C 0.02924 0.78842 0.6228 0.0
N1073 N 0.01428 0.78997 0.63333 0.0
C1074 C 0.00835 0.81802 0.61855 0.0
C1075 C 0.00362 0.8042 0.63119 0.0
C1076 C 0.02389 0.81686 0.6077 0.0
C1077 C 0.03429 0.80175 0.60981 0.0
H1078 H 0.03726 0.7768 0.62448 0.0
H1079 H 0.99151 0.80487 0.63938 0.0
C1080 C 0.969 0.76976 0.70738 0.0
N1081 N 0.96606 0.76497 0.68846 0.0
C1082 C 0.95392 0.77276 0.71813 0.0
C1083 C 0.93313 0.76657 0.68957 0.0
C1084 C 0.94861 0.76349 0.6794 0.0
C1085 C 0.93569 0.77111 0.70924 0.0
H1086 H 0.98308 0.7711 0.71412 0.0
H1087 H 0.9467 0.75981 0.66431 0.0
C1088 C 0.04265 0.74663 0.65289 0.0
N1089 N 0.07876 0.73667 0.65759 0.0
C1090 C 0.0459 0.72825 0.65208 0.0
C1091 C 0.05777 0.75995 0.65596 0.0
C1092 C 0.06427 0.72349 0.65449 0.0
C1093 C 0.07591 0.75464 0.65836 0.0
C1094 C 0.98949 0.73192 0.69723 0.0
C1095 C 0.99741 0.7352 0.71595 0.0
C1096 C 0.97131 0.7234 0.69412 0.0
C1097 C 0.9869 0.73001 0.7313 0.0
C1098 C 0.96125 0.71847 0.70986 0.0
N1099 N 0.96919 0.72186 0.72796 0.0
C1100 C 0.05035 0.7703 0.70499 0.0
C1101 C 0.04799 0.73824 0.70019 0.0
C1102 C 0.06674 0.7698 0.71684 0.0
N1103 N 0.04157 0.7547 0.69668 0.0
C1104 C 0.06438 0.7371 0.71189 0.0
C1105 C 0.07411 0.75307 0.72019 0.0
H1106 H 0.04485 0.78317 0.70212 0.0
H1107 H 0.04057 0.72603 0.69355 0.0
C1108 C 0.00064 0.71592 0.6217 0.0
N1109 N 0.99576 0.71618 0.6401 0.0
C1110 C 0.99893 0.6996 0.61101 0.0
C1111 C 0.98734 0.68405 0.63846 0.0
C1112 C 0.98918 0.70072 0.6486 0.0
C1113 C 0.99235 0.68334 0.61943 0.0
H1114 H 0.0062 0.72838 0.61546 0.0
H1115 H 0.98566 0.70127 0.66333 0.0
O1116 O 0.00873 0.77886 0.67919 0.0
O1117 O 0.983 0.7585 0.6468 0.0
O1118 O 0.02475 0.75155 0.65104 0.0
O1119 O 0.99941 0.73722 0.68202 0.0
H1120 H 0.98188 0.80059 0.68337 0.0
H1121 H 0.03986 0.79903 0.67238 0.0
H1122 H 0.98584 0.83423 0.68119 0.0
H1123 H 0.04278 0.83269 0.67038 0.0
H1124 H 0.93887 0.71683 0.6178 0.0
H1125 H 0.98926 0.76587 0.61081 0.0
H1126 H 0.95543 0.73214 0.64695 0.0
H1127 H 0.9721 0.74999 0.58231 0.0
H1128 H 0.99986 0.82937 0.61711 0.0
H1129 H 0.04639 0.80039 0.60169 0.0
H1130 H 0.95651 0.77649 0.73321 0.0
H1131 H 0.91928 0.76509 0.68222 0.0
H1132 H 0.03438 0.71774 0.64985 0.0
H1133 H 0.05548 0.77424 0.65676 0.0
H1134 H 0.06699 0.70932 0.654 0.0
H1135 H 0.08772 0.7648 0.66091 0.0
H1136 H 0.01143 0.74184 0.71861 0.0
H1137 H 0.96493 0.72089 0.67972 0.0
H1138 H 0.99281 0.73254 0.74587 0.0
H1139 H 0.94711 0.71202 0.70768 0.0
H1140 H 0.07387 0.78245 0.72282 0.0
H1141 H 0.06946 0.72391 0.71431 0.0
H1142 H 0.00326 0.69962 0.59651 0.0
H1143 H 0.98215 0.67184 0.64545 0.0
Li1144 Li 0.50859 0.27523 0.1505 0.0
Li1145 Li 0.48671 0.26478 0.17402 0.0
Li1146 Li 0.51994 0.26042 0.17877 0.0
Li1147 Li 0.49953 0.24282 0.15414 0.0
C1148 C 0.5108 0.30189 0.17531 0.0
N1149 N 0.5153 0.33871 0.16827 0.0
C1150 C 0.49525 0.31197 0.17382 0.0
C1151 C 0.52863 0.31054 0.17318 0.0
C1152 C 0.49782 0.33058 0.1703 0.0
C1153 C 0.53061 0.32916 0.16961 0.0
C1154 C 0.47339 0.25366 0.13029 0.0
C1155 C 0.45031 0.23033 0.11651 0.0
N1156 N 0.45458 0.23547 0.09867 0.0
C1157 C 0.47755 0.25871 0.11181 0.0
C1158 C 0.45964 0.23938 0.13267 0.0
C1159 C 0.46787 0.24935 0.09602 0.0
C1160 C 0.53198 0.29546 0.12615 0.0
N1161 N 0.5145 0.29358 0.13247 0.0
C1162 C 0.50549 0.31835 0.11349 0.0
C1163 C 0.50126 0.30461 0.12637 0.0
C1164 C 0.52355 0.32078 0.10697 0.0
C1165 C 0.53687 0.30912 0.11345 0.0
H1166 H 0.54214 0.28636 0.13096 0.0
H1167 H 0.48743 0.30273 0.13156 0.0
C1168 C 0.46933 0.28102 0.20376 0.0
N1169 N 0.46574 0.2703 0.18763 0.0
C1170 C 0.45479 0.28498 0.21487 0.0
C1171 C 0.43314 0.26647 0.19282 0.0
C1172 C 0.44806 0.26315 0.18192 0.0
C1173 C 0.43646 0.27754 0.20949 0.0
H1174 H 0.48355 0.28634 0.20809 0.0
H1175 H 0.44558 0.25463 0.1691 0.0
C1176 C 0.54238 0.24963 0.15386 0.0
N1177 N 0.57777 0.23811 0.16004 0.0
C1178 C 0.54494 0.2311 0.15249 0.0
C1179 C 0.55786 0.2623 0.15833 0.0
C1180 C 0.56294 0.22556 0.15564 0.0
C1181 C 0.57562 0.25621 0.16145 0.0
C1182 C 0.48857 0.23813 0.19756 0.0
C1183 C 0.49541 0.24498 0.21574 0.0
C1184 C 0.47124 0.22778 0.19527 0.0
C1185 C 0.48473 0.24139 0.23137 0.0
C1186 C 0.46097 0.22451 0.21126 0.0
N1187 N 0.46787 0.23133 0.22882 0.0
C1188 C 0.55008 0.2738 0.2056 0.0
C1189 C 0.54555 0.24173 0.20098 0.0
C1190 C 0.56617 0.2723 0.21765 0.0
N1191 N 0.54042 0.25865 0.19724 0.0
C1192 C 0.56154 0.23959 0.21291 0.0
C1193 C 0.57227 0.25503 0.22118 0.0
H1194 H 0.5455 0.28706 0.20266 0.0
H1195 H 0.5375 0.22992 0.19419 0.0
C1196 C 0.50023 0.21972 0.122 0.0
N1197 N 0.49568 0.22001 0.14051 0.0
C1198 C 0.49868 0.20335 0.11144 0.0
C1199 C 0.48799 0.18777 0.13925 0.0
C1200 C 0.48965 0.20451 0.14926 0.0
C1201 C 0.49263 0.18705 0.1201 0.0
H1202 H 0.50542 0.23222 0.11556 0.0
H1203 H 0.48647 0.20509 0.1641 0.0
O1204 O 0.50851 0.28356 0.17824 0.0
O1205 O 0.48291 0.26249 0.14595 0.0
O1206 O 0.5248 0.25531 0.15122 0.0
O1207 O 0.49852 0.24204 0.18199 0.0
H1208 H 0.48131 0.30547 0.17505 0.0
H1209 H 0.54078 0.30291 0.17387 0.0
H1210 H 0.48591 0.33852 0.16905 0.0
H1211 H 0.54431 0.33599 0.1678 0.0
H1212 H 0.43976 0.21916 0.11815 0.0
H1213 H 0.48826 0.26959 0.10966 0.0
H1214 H 0.45652 0.23502 0.14684 0.0
H1215 H 0.47098 0.25307 0.08164 0.0
H1216 H 0.49485 0.32711 0.10887 0.0
H1217 H 0.55085 0.31037 0.10852 0.0
H1218 H 0.45788 0.29343 0.22775 0.0
H1219 H 0.41914 0.26055 0.18824 0.0
H1220 H 0.53318 0.22105 0.14923 0.0
H1221 H 0.55614 0.27666 0.15985 0.0
H1222 H 0.5651 0.21125 0.15469 0.0
H1223 H 0.58767 0.26585 0.16511 0.0
H1224 H 0.50869 0.25319 0.21774 0.0
H1225 H 0.4656 0.22262 0.18125 0.0
H1226 H 0.4898 0.24667 0.24551 0.0
H1227 H 0.44747 0.21664 0.20968 0.0
H1228 H 0.57385 0.28454 0.22401 0.0
H1229 H 0.56581 0.22604 0.21507 0.0
H1230 H 0.50276 0.20337 0.09684 0.0
H1231 H 0.48324 0.17552 0.14644 0.0
C1232 C 0.26163 0.76347 0.84453 0.0
C1233 C 0.27385 0.77362 0.83322 0.0
C1234 C 0.25665 0.77071 0.86198 0.0
C1235 C 0.26384 0.78861 0.868 0.0
C1236 C 0.27583 0.79903 0.85634 0.0
C1237 C 0.28088 0.79131 0.83922 0.0
C1238 C 0.2442 0.75904 0.87424 0.0
C1239 C 0.28349 0.8183 0.86205 0.0
C1240 C 0.24079 0.81508 0.90539 0.0
C1241 C 0.25359 0.81457 0.92147 0.0
C1242 C 0.24365 0.80628 0.88801 0.0
C1243 C 0.25945 0.79635 0.88677 0.0
C1244 C 0.27188 0.79495 0.90318 0.0
C1245 C 0.26893 0.80423 0.92023 0.0
C1246 C 0.23019 0.80824 0.87076 0.0
C1247 C 0.28873 0.78421 0.90252 0.0
H1248 H 0.2565 0.74964 0.84008 0.0
H1249 H 0.2903 0.79918 0.83043 0.0
H1250 H 0.25201 0.75655 0.88805 0.0
H1251 H 0.2319 0.76619 0.87764 0.0
H1252 H 0.23917 0.74569 0.86715 0.0
H1253 H 0.29176 0.8249 0.85086 0.0
H1254 H 0.27185 0.82664 0.86484 0.0
H1255 H 0.29261 0.8183 0.87553 0.0
H1256 H 0.22865 0.82264 0.90625 0.0
H1257 H 0.2791 0.80389 0.93238 0.0
H1258 H 0.22496 0.79467 0.86441 0.0
H1259 H 0.23758 0.81589 0.85962 0.0
H1260 H 0.21801 0.81554 0.87436 0.0
H1261 H 0.28454 0.77041 0.89616 0.0
H1262 H 0.29583 0.78281 0.91697 0.0
H1263 H 0.29895 0.79112 0.89328 0.0
C1264 C 0.01134 0.53711 0.44284 0.0
C1265 C 0.01099 0.52566 0.45858 0.0
C1266 C 0.02172 0.53348 0.4272 0.0
C1267 C 0.03167 0.51779 0.42712 0.0
C1268 C 0.03091 0.50586 0.44269 0.0
C1269 C 0.02074 0.51005 0.45835 0.0
C1270 C 0.02243 0.54669 0.41101 0.0
C1271 C 0.04101 0.48881 0.44291 0.0
C1272 C 0.04622 0.50232 0.37871 0.0
C1273 C 0.0651 0.50915 0.3797 0.0
C1274 C 0.03528 0.50457 0.39426 0.0
C1275 C 0.04334 0.51424 0.41098 0.0
C1276 C 0.06246 0.5211 0.41204 0.0
C1277 C 0.07316 0.51829 0.39644 0.0
C1278 C 0.01507 0.49672 0.39275 0.0
C1279 C 0.07148 0.53179 0.42946 0.0
H1280 H 0.00394 0.54926 0.44297 0.0
H1281 H 0.02042 0.50108 0.47042 0.0
H1282 H 0.03711 0.55236 0.40971 0.0
H1283 H 0.01748 0.53954 0.39723 0.0
H1284 H 0.01375 0.55816 0.41317 0.0
H1285 H 0.0381 0.4804 0.45554 0.0
H1286 H 0.03681 0.48043 0.42969 0.0
H1287 H 0.05633 0.49248 0.44313 0.0
H1288 H 0.04006 0.49511 0.36579 0.0
H1289 H 0.08774 0.52369 0.39711 0.0
H1290 H 0.00577 0.50786 0.39342 0.0
H1291 H 0.01233 0.48783 0.40503 0.0
H1292 H 0.01124 0.48866 0.37922 0.0
H1293 H 0.06411 0.54415 0.43173 0.0
H1294 H 0.08653 0.53606 0.42807 0.0
H1295 H 0.07022 0.52352 0.44244 0.0
C1296 C 0.76068 0.74681 0.86233 0.0
C1297 C 0.7779 0.75439 0.85646 0.0
C1298 C 0.75989 0.73464 0.87744 0.0
C1299 C 0.77671 0.72996 0.88702 0.0
C1300 C 0.79415 0.7372 0.8809 0.0
C1301 C 0.79454 0.7493 0.86565 0.0
C1302 C 0.74101 0.72712 0.88346 0.0
C1303 C 0.81238 0.73254 0.89079 0.0
C1304 C 0.77269 0.71489 0.93819 0.0
C1305 C 0.77153 0.69587 0.93598 0.0
C1306 C 0.77491 0.72614 0.92244 0.0
C1307 C 0.77593 0.71818 0.90401 0.0
C1308 C 0.77521 0.699 0.90174 0.0
C1309 C 0.77306 0.68806 0.91778 0.0
C1310 C 0.77577 0.74654 0.92549 0.0
C1311 C 0.77617 0.69002 0.8823 0.0
H1312 H 0.74774 0.75055 0.85526 0.0
H1313 H 0.8079 0.75507 0.86122 0.0
H1314 H 0.74006 0.71202 0.88343 0.0
H1315 H 0.73926 0.73188 0.89831 0.0
H1316 H 0.72927 0.73137 0.87392 0.0
H1317 H 0.82474 0.73853 0.88367 0.0
H1318 H 0.81351 0.73766 0.90589 0.0
H1319 H 0.81278 0.71755 0.89108 0.0
H1320 H 0.77182 0.721 0.95228 0.0
H1321 H 0.77203 0.67336 0.91597 0.0
H1322 H 0.76358 0.75183 0.91755 0.0
H1323 H 0.78858 0.75319 0.91974 0.0
H1324 H 0.77572 0.75059 0.94086 0.0
H1325 H 0.76379 0.69282 0.87281 0.0
H1326 H 0.77654 0.67503 0.88313 0.0
H1327 H 0.78878 0.69577 0.87548 0.0
C1328 C 0.0116 0.01101 0.41018 0.0
C1329 C 0.02754 0.00426 0.40329 0.0
C1330 C 0.99609 0.01402 0.39768 0.0
C1331 C 0.99656 0.01025 0.37781 0.0
C1332 C 0.01282 0.00397 0.3707 0.0
C1333 C 0.02809 0.00103 0.38352 0.0
C1334 C 0.979 0.02073 0.4058 0.0
C1335 C 0.01389 0.99991 0.34959 0.0
C1336 C 0.95076 0.99871 0.34775 0.0
C1337 C 0.94841 0.01512 0.33848 0.0
C1338 C 0.96623 0.99704 0.36076 0.0
C1339 C 0.97977 0.01211 0.36454 0.0
C1340 C 0.97744 0.02875 0.35537 0.0
C1341 C 0.96177 0.03007 0.34247 0.0
C1342 C 0.96823 0.97906 0.37026 0.0
C1343 C 0.99158 0.04511 0.35905 0.0
H1344 H 0.01104 0.01356 0.42543 0.0
H1345 H 0.04037 0.99589 0.37805 0.0
H1346 H 0.97511 0.03313 0.39839 0.0
H1347 H 0.96696 0.01021 0.4033 0.0
H1348 H 0.98122 0.02391 0.42143 0.0
H1349 H 0.02787 0.99598 0.34625 0.0
H1350 H 0.00319 0.98864 0.34476 0.0
H1351 H 0.01079 0.01199 0.34117 0.0
H1352 H 0.94066 0.98702 0.34454 0.0
H1353 H 0.95994 0.04286 0.33556 0.0
H1354 H 0.96942 0.98106 0.38608 0.0
H1355 H 0.98124 0.97347 0.36621 0.0
H1356 H 0.95619 0.96883 0.3662 0.0
H1357 H 0.99311 0.04882 0.37457 0.0
H1358 H 0.98757 0.05714 0.35098 0.0
H1359 H 0.00549 0.04178 0.35489 0.0
C1360 C 0.22951 0.24936 0.68342 0.0
C1361 C 0.21603 0.26169 0.67982 0.0
C1362 C 0.23405 0.23744 0.66891 0.0
C1363 C 0.22482 0.2378 0.65038 0.0
C1364 C 0.21117 0.25018 0.64666 0.0
C1365 C 0.20696 0.26199 0.66141 0.0
C1366 C 0.24873 0.22448 0.6734 0.0
C1367 C 0.20097 0.25093 0.6271 0.0
C1368 C 0.24757 0.21888 0.60779 0.0
C1369 C 0.23763 0.20164 0.60485 0.0
C1370 C 0.24366 0.23072 0.62265 0.0
C1371 C 0.22943 0.22523 0.63484 0.0
C1372 C 0.21942 0.20782 0.63205 0.0
C1373 C 0.22367 0.19623 0.61713 0.0
C1374 C 0.25465 0.24917 0.62518 0.0
C1375 C 0.20416 0.20146 0.64476 0.0
H1376 H 0.23661 0.24904 0.69759 0.0
H1377 H 0.19651 0.27145 0.6585 0.0
H1378 H 0.24262 0.21022 0.67064 0.0
H1379 H 0.26033 0.22695 0.66387 0.0
H1380 H 0.25464 0.22591 0.68853 0.0
H1381 H 0.1907 0.2613 0.62657 0.0
H1382 H 0.21116 0.25415 0.61621 0.0
H1383 H 0.19345 0.23744 0.62303 0.0
H1384 H 0.25819 0.22328 0.59823 0.0
H1385 H 0.21612 0.18283 0.61515 0.0
H1386 H 0.26148 0.25085 0.63991 0.0
H1387 H 0.24504 0.26005 0.62331 0.0
H1388 H 0.26558 0.2512 0.61479 0.0
H1389 H 0.20988 0.20164 0.65992 0.0
H1390 H 0.19777 0.18749 0.64076 0.0
H1391 H 0.19299 0.2109 0.64388 0.0
C1392 C 0.44911 0.55367 0.57892 0.0
C1393 C 0.46781 0.56117 0.58087 0.0
C1394 C 0.43893 0.55031 0.59506 0.0
C1395 C 0.44772 0.55445 0.61359 0.0
C1396 C 0.46644 0.56243 0.61564 0.0
C1397 C 0.47624 0.56576 0.59925 0.0
C1398 C 0.41893 0.54194 0.59232 0.0
C1399 C 0.4763 0.56698 0.63517 0.0
C1400 C 0.41835 0.55836 0.65621 0.0
C1401 C 0.41945 0.54128 0.66442 0.0
C1402 C 0.42725 0.56277 0.63949 0.0
C1403 C 0.4376 0.5498 0.63088 0.0
C1404 C 0.43865 0.53248 0.63903 0.0
C1405 C 0.4295 0.5284 0.65567 0.0
C1406 C 0.42568 0.58131 0.63111 0.0
C1407 C 0.44967 0.51835 0.63035 0.0
H1408 H 0.44246 0.55015 0.56477 0.0
H1409 H 0.49068 0.57156 0.60091 0.0
H1410 H 0.41776 0.52828 0.5987 0.0
H1411 H 0.40961 0.5504 0.59986 0.0
H1412 H 0.4138 0.54049 0.57696 0.0
H1413 H 0.49066 0.57373 0.63428 0.0
H1414 H 0.46817 0.57608 0.64341 0.0
H1415 H 0.47726 0.55435 0.64337 0.0
H1416 H 0.41039 0.56826 0.6628 0.0
H1417 H 0.43054 0.51526 0.6621 0.0
H1418 H 0.41979 0.57982 0.61601 0.0
H1419 H 0.43978 0.58878 0.63104 0.0
H1420 H 0.41669 0.58965 0.63925 0.0
H1421 H 0.4444 0.51531 0.61522 0.0
H1422 H 0.44884 0.50544 0.63827 0.0
H1423 H 0.4646 0.52371 0.6303 0.0
C1424 C 0.78509 0.2601 0.66548 0.0
C1425 C 0.77718 0.26401 0.68267 0.0
C1426 C 0.78284 0.27112 0.64952 0.0
C1427 C 0.77231 0.28635 0.65071 0.0
C1428 C 0.76427 0.29036 0.66801 0.0
C1429 C 0.76686 0.27918 0.6838 0.0
C1430 C 0.79174 0.26647 0.63136 0.0
C1431 C 0.75285 0.30642 0.66979 0.0
C1432 C 0.78005 0.32413 0.61521 0.0
C1433 C 0.76505 0.31984 0.60144 0.0
C1434 C 0.78256 0.31337 0.63134 0.0
C1435 C 0.76968 0.29804 0.63383 0.0
C1436 C 0.75439 0.29377 0.62008 0.0
C1437 C 0.75232 0.30467 0.604 0.0
C1438 C 0.79913 0.31827 0.64559 0.0
C1439 C 0.74026 0.27765 0.62233 0.0
H1440 H 0.79312 0.24843 0.66449 0.0
H1441 H 0.76066 0.28228 0.69701 0.0
H1442 H 0.7808 0.26384 0.61937 0.0
H1443 H 0.8014 0.27816 0.62738 0.0
H1444 H 0.79969 0.2543 0.63284 0.0
H1445 H 0.74747 0.30764 0.68421 0.0
H1446 H 0.76148 0.31921 0.66701 0.0
H1447 H 0.74079 0.30508 0.65889 0.0
H1448 H 0.79005 0.33572 0.61317 0.0
H1449 H 0.74059 0.30143 0.59349 0.0
H1450 H 0.80811 0.30683 0.64656 0.0
H1451 H 0.79426 0.32055 0.66006 0.0
H1452 H 0.80777 0.3307 0.64165 0.0
H1453 H 0.74733 0.26491 0.62265 0.0
H1454 H 0.72898 0.27637 0.61054 0.0
H1455 H 0.73378 0.27893 0.63616 0.0
C1456 C 0.48224 0.98862 0.63055 0.0
C1457 C 0.49132 0.98367 0.61441 0.0
C1458 C 0.49216 0.99163 0.64856 0.0
C1459 C 0.51161 0.98972 0.65039 0.0
C1460 C 0.52091 0.98514 0.63407 0.0
C1461 C 0.51066 0.98214 0.61632 0.0
C1462 C 0.4818 0.99647 0.66567 0.0
C1463 C 0.54167 0.98311 0.6354 0.0
C1464 C 0.54334 0.01073 0.69225 0.0
C1465 C 0.54628 0.99545 0.70329 0.0
C1466 C 0.53149 0.00922 0.67536 0.0
C1467 C 0.52232 0.99203 0.66939 0.0
C1468 C 0.52462 0.9767 0.68087 0.0
C1469 C 0.5366 0.97858 0.69767 0.0
C1470 C 0.52935 0.02589 0.66352 0.0
C1471 C 0.51505 0.95813 0.675 0.0
H1472 H 0.4673 0.98982 0.62922 0.0
H1473 H 0.51784 0.97842 0.60392 0.0
H1474 H 0.48256 0.98564 0.67639 0.0
H1475 H 0.48847 0.00929 0.67271 0.0
H1476 H 0.46683 0.99815 0.66172 0.0
H1477 H 0.54688 0.98001 0.62124 0.0
H1478 H 0.54956 0.99581 0.64148 0.0
H1479 H 0.54481 0.97198 0.64522 0.0
H1480 H 0.55051 0.02388 0.6967 0.0
H1481 H 0.53893 0.96668 0.70601 0.0
H1482 H 0.51432 0.02764 0.66021 0.0
H1483 H 0.53565 0.02415 0.64967 0.0
H1484 H 0.53623 0.0385 0.6709 0.0
H1485 H 0.49983 0.95893 0.67173 0.0
H1486 H 0.517 0.94796 0.68629 0.0
H1487 H 0.52078 0.95319 0.66175 0.0
C1488 C 0.848 0.24698 0.77216 0.0
C1489 C 0.84507 0.23079 0.76101 0.0
C1490 C 0.8641 0.25063 0.78472 0.0
C1491 C 0.87757 0.23778 0.78616 0.0
C1492 C 0.87506 0.22179 0.77438 0.0
C1493 C 0.85887 0.21851 0.76194 0.0
C1494 C 0.86636 0.26788 0.79699 0.0
C1495 C 0.88913 0.20779 0.77545 0.0
C1496 C 0.92626 0.2508 0.81001 0.0
C1497 C 0.92459 0.24365 0.8283 0.0
C1498 C 0.91098 0.24931 0.79622 0.0
C1499 C 0.89366 0.2404 0.80083 0.0
C1500 C 0.89184 0.23334 0.81934 0.0
C1501 C 0.90732 0.23506 0.83284 0.0
C1502 C 0.9134 0.25709 0.77668 0.0
C1503 C 0.87363 0.22366 0.82477 0.0
H1504 H 0.83745 0.25658 0.77151 0.0
H1505 H 0.85681 0.206 0.75332 0.0
H1506 H 0.86545 0.26442 0.81227 0.0
H1507 H 0.88035 0.27525 0.79569 0.0
H1508 H 0.85547 0.27716 0.79304 0.0
H1509 H 0.88572 0.19666 0.76447 0.0
H1510 H 0.90336 0.21432 0.77351 0.0
H1511 H 0.88955 0.20171 0.78983 0.0
H1512 H 0.93951 0.25767 0.80651 0.0
H1513 H 0.90601 0.22932 0.84686 0.0
H1514 H 0.90286 0.26687 0.77341 0.0
H1515 H 0.91102 0.24602 0.76555 0.0
H1516 H 0.92759 0.26417 0.77559 0.0
H1517 H 0.86216 0.23264 0.82256 0.0
H1518 H 0.87437 0.21945 0.83993 0.0
H1519 H 0.86989 0.21135 0.8154 0.0
C1520 C 0.4855 0.91157 0.50804 0.0
C1521 C 0.46965 0.91074 0.51868 0.0
C1522 C 0.48941 0.89657 0.49684 0.0
C1523 C 0.47707 0.88043 0.49608 0.0
C1524 C 0.46077 0.87969 0.50633 0.0
C1525 C 0.45731 0.89482 0.5176 0.0
C1526 C 0.50701 0.89784 0.48621 0.0
C1527 C 0.44715 0.8628 0.50566 0.0
C1528 C 0.47985 0.84675 0.45481 0.0
C1529 C 0.49027 0.83363 0.46358 0.0
C1530 C 0.47528 0.86196 0.46525 0.0
C1531 C 0.48147 0.86419 0.48489 0.0
C1532 C 0.49202 0.851 0.49383 0.0
C1533 C 0.4962 0.83581 0.48308 0.0
C1534 C 0.46381 0.8756 0.45529 0.0
C1535 C 0.49904 0.85302 0.51469 0.0
H1536 H 0.49516 0.92378 0.50884 0.0
H1537 H 0.445 0.8941 0.52572 0.0
H1538 H 0.51624 0.88749 0.4915 0.0
H1539 H 0.50347 0.89488 0.4707 0.0
H1540 H 0.51495 0.9115 0.48796 0.0
H1541 H 0.43469 0.86471 0.51372 0.0
H1542 H 0.44238 0.8589 0.49059 0.0
H1543 H 0.4542 0.85126 0.51183 0.0
H1544 H 0.47502 0.84496 0.43979 0.0
H1545 H 0.50438 0.82576 0.48985 0.0
H1546 H 0.47182 0.88922 0.45595 0.0
H1547 H 0.45087 0.87691 0.46272 0.0
H1548 H 0.45983 0.87171 0.44002 0.0
H1549 H 0.50815 0.86596 0.51717 0.0
H1550 H 0.50709 0.84158 0.51946 0.0
H1551 H 0.48708 0.8537 0.52375 0.0
C1552 C 0.16707 0.26828 0.78858 0.0
C1553 C 0.16879 0.28537 0.7801 0.0
C1554 C 0.15206 0.26325 0.79976 0.0
C1555 C 0.13848 0.2756 0.8025 0.0
C1556 C 0.13992 0.29268 0.79363 0.0
C1557 C 0.15504 0.29735 0.78254 0.0
C1558 C 0.15095 0.24489 0.80898 0.0
C1559 C 0.12569 0.30621 0.79617 0.0
C1560 C 0.09096 0.25907 0.8194 0.0
C1561 C 0.09321 0.26419 0.83892 0.0
C1562 C 0.10569 0.26235 0.80744 0.0
C1563 C 0.12308 0.27099 0.81518 0.0
C1564 C 0.12553 0.27592 0.83492 0.0
C1565 C 0.11058 0.27246 0.84655 0.0
C1566 C 0.10257 0.25684 0.78647 0.0
C1567 C 0.14384 0.28521 0.84369 0.0
H1568 H 0.17761 0.25893 0.78676 0.0
H1569 H 0.15621 0.31056 0.776 0.0
H1570 H 0.15221 0.24675 0.8248 0.0
H1571 H 0.13715 0.23726 0.80498 0.0
H1572 H 0.16214 0.23653 0.80473 0.0
H1573 H 0.12846 0.31866 0.78777 0.0
H1574 H 0.11142 0.29986 0.79168 0.0
H1575 H 0.12579 0.31029 0.81153 0.0
H1576 H 0.07767 0.25243 0.81348 0.0
H1577 H 0.11235 0.27666 0.86155 0.0
H1578 H 0.11329 0.24784 0.78249 0.0
H1579 H 0.10412 0.26909 0.77759 0.0
H1580 H 0.08847 0.24962 0.78286 0.0
H1581 H 0.1555 0.27691 0.84085 0.0
H1582 H 0.14372 0.28748 0.85943 0.0
H1583 H 0.14681 0.29858 0.83701 0.0
C1584 C 0.54001 0.58434 0.48173 0.0
C1585 C 0.53758 0.5813 0.50115 0.0
C1586 C 0.53651 0.60102 0.47355 0.0
C1587 C 0.53044 0.61501 0.48506 0.0
C1588 C 0.5282 0.61212 0.50473 0.0
C1589 C 0.53193 0.59534 0.51256 0.0
C1590 C 0.53916 0.60361 0.45253 0.0
C1591 C 0.52186 0.62676 0.51749 0.0
C1592 C 0.53684 0.66328 0.46701 0.0
C1593 C 0.51902 0.66531 0.45826 0.0
C1594 C 0.54069 0.64708 0.47606 0.0
C1595 C 0.52635 0.63262 0.47644 0.0
C1596 C 0.50822 0.63476 0.46802 0.0
C1597 C 0.50479 0.65106 0.45899 0.0
C1598 C 0.56023 0.64528 0.48477 0.0
C1599 C 0.49251 0.61972 0.46829 0.0
H1600 H 0.54447 0.57358 0.47284 0.0
H1601 H 0.53076 0.5934 0.52771 0.0
H1602 H 0.52571 0.60637 0.44487 0.0
H1603 H 0.54934 0.61558 0.45073 0.0
H1604 H 0.54427 0.59149 0.44564 0.0
H1605 H 0.52056 0.62227 0.53243 0.0
H1606 H 0.53194 0.6391 0.51776 0.0
H1607 H 0.5081 0.63073 0.5117 0.0
H1608 H 0.54794 0.67417 0.46631 0.0
H1609 H 0.49093 0.65266 0.45246 0.0
H1610 H 0.56641 0.63418 0.4772 0.0
H1611 H 0.55979 0.64153 0.50001 0.0
H1612 H 0.56959 0.65805 0.48397 0.0
H1613 H 0.49615 0.60751 0.46037 0.0
H1614 H 0.47905 0.62379 0.46173 0.0
H1615 H 0.49052 0.6157 0.48325 0.0
C1616 C 0.85856 0.79976 0.778 0.0
C1617 C 0.84194 0.78816 0.77541 0.0
C1618 C 0.87382 0.79726 0.7671 0.0
C1619 C 0.87249 0.7827 0.75342 0.0
C1620 C 0.85577 0.77092 0.75075 0.0
C1621 C 0.84066 0.77385 0.76171 0.0
C1622 C 0.89136 0.81021 0.77022 0.0
C1623 C 0.85389 0.75514 0.73643 0.0
C1624 C 0.90562 0.78487 0.71341 0.0
C1625 C 0.91945 0.77403 0.72048 0.0
C1626 C 0.8903 0.78788 0.72401 0.0
C1627 C 0.88867 0.77968 0.74201 0.0
C1628 C 0.90253 0.76861 0.74914 0.0
C1629 C 0.9178 0.76599 0.73833 0.0
C1630 C 0.87592 0.79993 0.71603 0.0
C1631 C 0.90118 0.75946 0.76816 0.0
H1632 H 0.85964 0.81089 0.7885 0.0
H1633 H 0.82789 0.76479 0.75966 0.0
H1634 H 0.9034 0.80259 0.77492 0.0
H1635 H 0.89466 0.81671 0.75656 0.0
H1636 H 0.89001 0.82106 0.78114 0.0
H1637 H 0.83997 0.74721 0.73612 0.0
H1638 H 0.85604 0.7602 0.72186 0.0
H1639 H 0.86486 0.74586 0.73997 0.0
H1640 H 0.90697 0.79125 0.6997 0.0
H1641 H 0.92836 0.75743 0.74372 0.0
H1642 H 0.87502 0.81156 0.72612 0.0
H1643 H 0.86189 0.79219 0.71445 0.0
H1644 H 0.87927 0.80535 0.70186 0.0
H1645 H 0.901 0.76987 0.77981 0.0
H1646 H 0.91302 0.75112 0.77157 0.0
H1647 H 0.88788 0.75054 0.76805 0.0
C1648 C 0.07408 0.88927 0.54096 0.0
C1649 C 0.06148 0.8977 0.52863 0.0
C1650 C 0.06766 0.87699 0.55462 0.0
C1651 C 0.04816 0.87282 0.55576 0.0
C1652 C 0.03537 0.88157 0.54363 0.0
C1653 C 0.04219 0.89401 0.5303 0.0
C1654 C 0.08174 0.86814 0.56751 0.0
C1655 C 0.01449 0.87733 0.54428 0.0
C1656 C 0.03312 0.82665 0.57548 0.0
C1657 C 0.02933 0.8313 0.59422 0.0
C1658 C 0.0389 0.84008 0.56271 0.0
C1659 C 0.04121 0.85859 0.56895 0.0
C1660 C 0.03727 0.86339 0.58784 0.0
C1661 C 0.03123 0.84967 0.60023 0.0
C1662 C 0.04268 0.83444 0.5426 0.0
C1663 C 0.03981 0.88295 0.59508 0.0
H1664 H 0.08901 0.89214 0.53983 0.0
H1665 H 0.03237 0.90043 0.52077 0.0
H1666 H 0.07878 0.87001 0.58273 0.0
H1667 H 0.08059 0.85327 0.56429 0.0
H1668 H 0.09635 0.87379 0.56574 0.0
H1669 H 0.00642 0.88591 0.53451 0.0
H1670 H 0.01052 0.86281 0.54014 0.0
H1671 H 0.01034 0.8794 0.55907 0.0
H1672 H 0.03146 0.81245 0.57077 0.0
H1673 H 0.02846 0.85325 0.61479 0.0
H1674 H 0.0576 0.8382 0.54017 0.0
H1675 H 0.03413 0.84177 0.53202 0.0
H1676 H 0.03951 0.81955 0.53978 0.0
H1677 H 0.05467 0.88839 0.59455 0.0
H1678 H 0.03579 0.88444 0.61002 0.0
H1679 H 0.03128 0.89145 0.58572 0.0
C1680 C 0.17058 0.7445 0.78411 0.0
C1681 C 0.18414 0.75762 0.77805 0.0
C1682 C 0.1521 0.74305 0.77582 0.0
C1683 C 0.1471 0.75499 0.76114 0.0
C1684 C 0.16065 0.76842 0.75518 0.0
C1685 C 0.17898 0.76958 0.7637 0.0
C1686 C 0.13801 0.72858 0.78256 0.0
C1687 C 0.15585 0.78143 0.73957 0.0
C1688 C 0.10584 0.74181 0.7251 0.0
C1689 C 0.09226 0.75245 0.73159 0.0
C1690 C 0.12358 0.7421 0.73492 0.0
C1691 C 0.12783 0.75329 0.75163 0.0
C1692 C 0.114 0.76364 0.75858 0.0
C1693 C 0.09638 0.76312 0.74845 0.0
C1694 C 0.13797 0.7309 0.72702 0.0
C1695 C 0.11798 0.77566 0.7764 0.0
H1696 H 0.17445 0.73521 0.79519 0.0
H1697 H 0.18933 0.77978 0.75894 0.0
H1698 H 0.12566 0.7349 0.78735 0.0
H1699 H 0.13295 0.71895 0.77052 0.0
H1700 H 0.14396 0.72076 0.79455 0.0
H1701 H 0.1679 0.79133 0.73686 0.0
H1702 H 0.1512 0.77369 0.72604 0.0
H1703 H 0.14407 0.78911 0.74352 0.0
H1704 H 0.10283 0.73372 0.71195 0.0
H1705 H 0.08585 0.77118 0.75366 0.0
H1706 H 0.14371 0.72218 0.7383 0.0
H1707 H 0.14984 0.74007 0.72243 0.0
H1708 H 0.13209 0.72207 0.71458 0.0
H1709 H 0.12327 0.76766 0.78854 0.0
H1710 H 0.10537 0.78198 0.78056 0.0
H1711 H 0.12907 0.78667 0.77398 0.0
C1712 C 0.98331 0.58642 0.5622 0.0
C1713 C 0.99969 0.58536 0.55263 0.0
C1714 C 0.98089 0.60179 0.57365 0.0
C1715 C 0.9952 0.61637 0.57563 0.0
C1716 C 0.01184 0.61526 0.56621 0.0
C1717 C 0.01386 0.59981 0.55481 0.0
C1718 C 0.96294 0.60252 0.58345 0.0
C1719 C 0.02747 0.63049 0.56802 0.0
C1720 C 0.98482 0.66428 0.58932 0.0
C1721 C 0.99158 0.6657 0.60865 0.0
C1722 C 0.98531 0.64807 0.57857 0.0
C1723 C 0.99282 0.63295 0.58734 0.0
C1724 C 0.99916 0.63413 0.60699 0.0
C1725 C 0.99844 0.65048 0.61742 0.0
C1726 C 0.97829 0.64731 0.55768 0.0
C1727 C 0.00736 0.61833 0.61683 0.0
H1728 H 0.97228 0.57534 0.56057 0.0
H1729 H 0.02657 0.5991 0.54752 0.0
H1730 H 0.96609 0.60451 0.59915 0.0
H1731 H 0.95565 0.61433 0.57837 0.0
H1732 H 0.9533 0.58994 0.58072 0.0
H1733 H 0.03966 0.62735 0.56008 0.0
H1734 H 0.0223 0.64322 0.56245 0.0
H1735 H 0.03227 0.63315 0.58333 0.0
H1736 H 0.97927 0.67593 0.58255 0.0
H1737 H 0.00387 0.65155 0.63229 0.0
H1738 H 0.96787 0.63536 0.55466 0.0
H1739 H 0.99009 0.64564 0.54863 0.0
H1740 H 0.97174 0.65981 0.55336 0.0
H1741 H 0.99758 0.60581 0.61464 0.0
H1742 H 0.01047 0.621 0.63247 0.0
H1743 H 0.02053 0.6156 0.61043 0.0
C1744 C 0.74489 0.86043 0.22508 0.0
C1745 C 0.74952 0.84601 0.23672 0.0
C1746 C 0.75621 0.87703 0.22583 0.0
C1747 C 0.77264 0.8792 0.23838 0.0
C1748 C 0.7777 0.86451 0.24973 0.0
C1749 C 0.76604 0.84813 0.24883 0.0
C1750 C 0.7503 0.89243 0.2136 0.0
C1751 C 0.79523 0.86623 0.26313 0.0
C1752 C 0.81009 0.91759 0.23054 0.0
C1753 C 0.80671 0.93056 0.24454 0.0
C1754 C 0.79906 0.90085 0.2283 0.0
C1755 C 0.78419 0.89704 0.24021 0.0
C1756 C 0.78052 0.91014 0.25418 0.0
C1757 C 0.79187 0.92669 0.25624 0.0
C1758 C 0.80344 0.88718 0.21329 0.0
C1759 C 0.76473 0.9066 0.26712 0.0
H1760 H 0.73214 0.85894 0.21572 0.0
H1761 H 0.76979 0.83703 0.2578 0.0
H1762 H 0.74743 0.90404 0.22293 0.0
H1763 H 0.76176 0.89738 0.20469 0.0
H1764 H 0.73755 0.88832 0.20402 0.0
H1765 H 0.79768 0.85325 0.27024 0.0
H1766 H 0.80759 0.87058 0.25515 0.0
H1767 H 0.79418 0.87685 0.27435 0.0
H1768 H 0.82132 0.92056 0.22123 0.0
H1769 H 0.78931 0.93648 0.26728 0.0
H1770 H 0.79102 0.88379 0.20309 0.0
H1771 H 0.80678 0.87435 0.2202 0.0
H1772 H 0.81543 0.89228 0.2051 0.0
H1773 H 0.7513 0.90332 0.2584 0.0
H1774 H 0.76332 0.91845 0.27679 0.0
H1775 H 0.76714 0.89464 0.27601 0.0
C1776 C 0.8248 0.19542 0.2874 0.0
C1777 C 0.8078 0.20181 0.28076 0.0
C1778 C 0.82733 0.1768 0.28645 0.0
C1779 C 0.81251 0.16426 0.27864 0.0
C1780 C 0.79517 0.17055 0.27232 0.0
C1781 C 0.79301 0.18926 0.27347 0.0
C1782 C 0.84602 0.1706 0.29341 0.0
C1783 C 0.77906 0.15757 0.26388 0.0
C1784 C 0.8269 0.12033 0.25758 0.0
C1785 C 0.82378 0.10816 0.2724 0.0
C1786 C 0.82284 0.1385 0.25925 0.0
C1787 C 0.81556 0.1447 0.27621 0.0
C1788 C 0.81199 0.13241 0.29107 0.0
C1789 C 0.81614 0.11427 0.28899 0.0
C1790 C 0.82687 0.15119 0.24308 0.0
C1791 C 0.80418 0.13854 0.30934 0.0
H1792 H 0.83628 0.20501 0.29312 0.0
H1793 H 0.77981 0.19407 0.26835 0.0
H1794 H 0.84405 0.15989 0.30418 0.0
H1795 H 0.8526 0.1645 0.28126 0.0
H1796 H 0.8558 0.18195 0.29993 0.0
H1797 H 0.76618 0.16449 0.26061 0.0
H1798 H 0.78299 0.15114 0.25046 0.0
H1799 H 0.77589 0.14646 0.27393 0.0
H1800 H 0.83311 0.11582 0.24486 0.0
H1801 H 0.81353 0.10489 0.30042 0.0
H1802 H 0.8379 0.1621 0.2481 0.0
H1803 H 0.81416 0.15787 0.23847 0.0
H1804 H 0.83162 0.144 0.23047 0.0
H1805 H 0.81424 0.14902 0.31697 0.0
H1806 H 0.80136 0.1271 0.31913 0.0
H1807 H 0.79099 0.1449 0.306 0.0
C1808 C 0.42646 0.98812 0.00838 0.0
C1809 C 0.42401 0.00637 0.00456 0.0
C1810 C 0.411 0.97522 0.00957 0.0
C1811 C 0.39268 0.98079 0.0073 0.0
C1812 C 0.39013 0.99927 0.00377 0.0
C1813 C 0.40583 0.0118 0.00222 0.0
C1814 C 0.41427 0.95557 0.01295 0.0
C1815 C 0.37082 0.0058 0.00165 0.0
C1816 C 0.35156 0.94614 0.99244 0.0
C1817 C 0.34431 0.9422 0.01008 0.0
C1818 C 0.36752 0.95842 0.99137 0.0
C1819 C 0.37614 0.96726 0.00833 0.0
C1820 C 0.36882 0.96335 0.0262 0.0
C1821 C 0.35308 0.95068 0.02688 0.0
C1822 C 0.37515 0.96194 0.97211 0.0
C1823 C 0.3774 0.97277 0.04453 0.0
H1824 H 0.44049 0.98384 0.01008 0.0
H1825 H 0.40387 0.02592 0.9994 0.0
H1826 H 0.40796 0.95096 0.02623 0.0
H1827 H 0.40731 0.9468 0.00094 0.0
H1828 H 0.42939 0.95343 0.01426 0.0
H1829 H 0.37127 0.02074 0.99968 0.0
H1830 H 0.36265 0.99879 0.98914 0.0
H1831 H 0.36319 0.00235 0.01451 0.0
H1832 H 0.34481 0.93944 0.97948 0.0
H1833 H 0.34734 0.94771 0.0405 0.0
H1834 H 0.39007 0.95915 0.97258 0.0
H1835 H 0.37453 0.97647 0.96858 0.0
H1836 H 0.36724 0.9534 0.96042 0.0
H1837 H 0.39229 0.97008 0.0469 0.0
H1838 H 0.36996 0.96825 0.05722 0.0
H1839 H 0.37708 0.98773 0.0434 0.0
C1840 C 0.2403 0.35825 0.29796 0.0
C1841 C 0.23223 0.34387 0.30834 0.0
C1842 C 0.23093 0.37389 0.29443 0.0
C1843 C 0.21311 0.37515 0.30146 0.0
C1844 C 0.20483 0.3606 0.31176 0.0
C1845 C 0.21447 0.34516 0.31505 0.0
C1846 C 0.24017 0.38914 0.28336 0.0
C1847 C 0.18584 0.36142 0.31949 0.0
C1848 C 0.19504 0.42113 0.31028 0.0
C1849 C 0.18186 0.422 0.29463 0.0
C1850 C 0.20572 0.40621 0.31238 0.0
C1851 C 0.20317 0.3918 0.29847 0.0
C1852 C 0.19026 0.39282 0.28237 0.0
C1853 C 0.17974 0.4079 0.28065 0.0
C1854 C 0.21929 0.40559 0.3298 0.0
C1855 C 0.18722 0.37778 0.26719 0.0
H1856 H 0.25401 0.35737 0.29271 0.0
H1857 H 0.20809 0.33412 0.32306 0.0
H1858 H 0.23087 0.39213 0.27071 0.0
H1859 H 0.24252 0.40174 0.29249 0.0
H1860 H 0.25383 0.38584 0.2784 0.0
H1861 H 0.18121 0.34882 0.32694 0.0
H1862 H 0.18623 0.37317 0.32972 0.0
H1863 H 0.17523 0.36353 0.30764 0.0
H1864 H 0.19661 0.43187 0.32125 0.0
H1865 H 0.16978 0.40863 0.26837 0.0
H1866 H 0.23338 0.40317 0.3254 0.0
H1867 H 0.21463 0.39409 0.33882 0.0
H1868 H 0.22047 0.41838 0.33865 0.0
H1869 H 0.20077 0.37499 0.26164 0.0
H1870 H 0.17753 0.38116 0.25498 0.0
H1871 H 0.18132 0.36505 0.27355 0.0
C1872 C 0.10428 0.0043 0.4719 0.0
C1873 C 0.1026 0.99184 0.48667 0.0
C1874 C 0.11644 0.02035 0.47439 0.0
C1875 C 0.1272 0.02394 0.49204 0.0
C1876 C 0.12496 0.01176 0.50725 0.0
C1877 C 0.11276 0.99581 0.50434 0.0
C1878 C 0.11852 0.03295 0.45779 0.0
C1879 C 0.13607 0.01513 0.52633 0.0
C1880 C 0.17478 0.05094 0.49294 0.0
C1881 C 0.17109 0.06788 0.5005 0.0
C1882 C 0.1605 0.03672 0.48966 0.0
C1883 C 0.14205 0.03946 0.49411 0.0
C1884 C 0.13812 0.05667 0.5013 0.0
C1885 C 0.15269 0.07072 0.50437 0.0
C1886 C 0.16526 0.01862 0.48181 0.0
C1887 C 0.11864 0.06008 0.50624 0.0
H1888 H 0.09692 0.00109 0.45804 0.0
H1889 H 0.1115 0.98621 0.5158 0.0
H1890 H 0.11758 0.04726 0.46253 0.0
H1891 H 0.13252 0.03224 0.45229 0.0
H1892 H 0.1077 0.02934 0.44584 0.0
H1893 H 0.1315 0.00522 0.53719 0.0
H1894 H 0.15113 0.0141 0.52449 0.0
H1895 H 0.13471 0.0291 0.53192 0.0
H1896 H 0.18891 0.04879 0.48962 0.0
H1897 H 0.1498 0.08376 0.51032 0.0
H1898 H 0.15613 0.01455 0.46868 0.0
H1899 H 0.16267 0.00793 0.49247 0.0
H1900 H 0.1801 0.01898 0.47828 0.0
H1901 H 0.10844 0.05645 0.49379 0.0
H1902 H 0.11765 0.07451 0.51061 0.0
H1903 H 0.11444 0.05127 0.51816 0.0
C1904 C 0.74659 0.14862 0.73355 0.0
C1905 C 0.74619 0.16561 0.74282 0.0
C1906 C 0.73407 0.13372 0.73765 0.0
C1907 C 0.72073 0.1359 0.75123 0.0
C1908 C 0.71979 0.15318 0.76011 0.0
C1909 C 0.73257 0.16782 0.75585 0.0
C1910 C 0.73554 0.11548 0.72793 0.0
C1911 C 0.70561 0.15607 0.77451 0.0
C1912 C 0.67943 0.09989 0.75156 0.0
C1913 C 0.68512 0.08909 0.7668 0.0
C1914 C 0.69077 0.11529 0.74646 0.0
C1915 C 0.70829 0.11992 0.75672 0.0
C1916 C 0.71411 0.10912 0.77213 0.0
C1917 C 0.70243 0.0939 0.77703 0.0
C1918 C 0.68406 0.12653 0.73 0.0
C1919 C 0.73274 0.1136 0.78339 0.0
H1920 H 0.75706 0.14678 0.72347 0.0
H1921 H 0.7321 0.18092 0.76301 0.0
H1922 H 0.73946 0.1055 0.7388 0.0
H1923 H 0.72179 0.11018 0.72078 0.0
H1924 H 0.74611 0.11624 0.71709 0.0
H1925 H 0.70596 0.17057 0.77926 0.0
H1926 H 0.69129 0.15146 0.76827 0.0
H1927 H 0.70837 0.14778 0.78727 0.0
H1928 H 0.66622 0.09615 0.74338 0.0
H1929 H 0.70681 0.08582 0.78901 0.0
H1930 H 0.69385 0.12637 0.71848 0.0
H1931 H 0.68388 0.14092 0.73486 0.0
H1932 H 0.66981 0.12144 0.72388 0.0
H1933 H 0.74425 0.11352 0.77366 0.0
H1934 H 0.73522 0.1038 0.79494 0.0
H1935 H 0.73344 0.12749 0.78995 0.0
C1936 C 0.38614 0.0113 0.55951 0.0
C1937 C 0.4046 0.01554 0.55467 0.0
C1938 C 0.3727 0.02384 0.5569 0.0
C1939 C 0.37785 0.04109 0.54935 0.0
C1940 C 0.39649 0.04552 0.54456 0.0
C1941 C 0.40963 0.03268 0.54724 0.0
C1942 C 0.35294 0.01859 0.5621 0.0
C1943 C 0.40253 0.0638 0.53655 0.0
C1944 C 0.33921 0.06666 0.5258 0.0
C1945 C 0.33601 0.07899 0.54048 0.0
C1946 C 0.35287 0.05435 0.52845 0.0
C1947 C 0.36364 0.05439 0.5462 0.0
C1948 C 0.36062 0.06692 0.56101 0.0
C1949 C 0.3468 0.07904 0.55799 0.0
C1950 C 0.35559 0.04113 0.51235 0.0
C1951 C 0.37192 0.06746 0.58009 0.0
H1952 H 0.38213 0.99809 0.56525 0.0
H1953 H 0.42387 0.0361 0.54351 0.0
H1954 H 0.34896 0.02843 0.57293 0.0
H1955 H 0.34303 0.01915 0.54926 0.0
H1956 H 0.35122 0.00469 0.56792 0.0
H1957 H 0.41763 0.06526 0.53389 0.0
H1958 H 0.39423 0.06571 0.52287 0.0
H1959 H 0.39978 0.07489 0.54664 0.0
H1960 H 0.33074 0.06638 0.51232 0.0
H1961 H 0.34453 0.08866 0.56931 0.0
H1962 H 0.35271 0.02695 0.51707 0.0
H1963 H 0.37033 0.04276 0.5085 0.0
H1964 H 0.34629 0.04307 0.49932 0.0
H1965 H 0.36973 0.05413 0.58703 0.0
H1966 H 0.3681 0.07826 0.58998 0.0
H1967 H 0.38707 0.06989 0.57792 0.0
C1968 C 0.60006 0.47931 0.50124 0.0
C1969 C 0.60179 0.49577 0.51189 0.0
C1970 C 0.61506 0.46844 0.5009 0.0
C1971 C 0.63228 0.47431 0.51125 0.0
C1972 C 0.63428 0.49117 0.52159 0.0
C1973 C 0.61896 0.50164 0.52189 0.0
C1974 C 0.61234 0.45045 0.48988 0.0
C1975 C 0.65251 0.49801 0.53255 0.0
C1976 C 0.66475 0.43863 0.52656 0.0
C1977 C 0.67761 0.43984 0.51238 0.0
C1978 C 0.64991 0.44973 0.52633 0.0
C1979 C 0.64802 0.46255 0.51171 0.0
C1980 C 0.66104 0.46403 0.49748 0.0
C1981 C 0.67559 0.45257 0.4979 0.0
C1982 C 0.63621 0.44767 0.54168 0.0
C1983 C 0.65956 0.47765 0.48176 0.0
H1984 H 0.58681 0.47464 0.49354 0.0
H1985 H 0.62042 0.5144 0.53008 0.0
H1986 H 0.62302 0.44993 0.47927 0.0
H1987 H 0.61424 0.43916 0.49985 0.0
H1988 H 0.59822 0.44806 0.48221 0.0
H1989 H 0.65205 0.5118 0.53909 0.0
H1990 H 0.65583 0.4885 0.54412 0.0
H1991 H 0.66411 0.49847 0.52291 0.0
H1992 H 0.66634 0.42908 0.53799 0.0
H1993 H 0.68524 0.45343 0.48669 0.0
H1994 H 0.62181 0.44428 0.535 0.0
H1995 H 0.63627 0.46073 0.54985 0.0
H1996 H 0.6395 0.43688 0.55189 0.0
H1997 H 0.6461 0.47466 0.47301 0.0
H1998 H 0.67119 0.4775 0.47214 0.0
H1999 H 0.65965 0.49158 0.48808 0.0
C2000 C 0.76129 0.26391 0.34601 0.0
C2001 C 0.77057 0.2749 0.33292 0.0
C2002 C 0.7572 0.27114 0.36379 0.0
C2003 C 0.76196 0.28991 0.3682 0.0
C2004 C 0.77059 0.30118 0.35459 0.0
C2005 C 0.77514 0.29345 0.33726 0.0
C2006 C 0.74859 0.25857 0.37817 0.0
C2007 C 0.77534 0.32136 0.35847 0.0
C2008 C 0.73971 0.3133 0.40847 0.0
C2009 C 0.75471 0.3159 0.42261 0.0
C2010 C 0.74173 0.30462 0.39079 0.0
C2011 C 0.75891 0.29768 0.38738 0.0
C2012 C 0.77373 0.29925 0.40192 0.0
C2013 C 0.77159 0.30863 0.41915 0.0
C2014 C 0.72575 0.30357 0.37546 0.0
C2015 C 0.79211 0.29157 0.39906 0.0
H2016 H 0.75799 0.2495 0.34267 0.0
H2017 H 0.78224 0.30192 0.32704 0.0
H2018 H 0.75863 0.25791 0.39088 0.0
H2019 H 0.73583 0.26389 0.38324 0.0
H2020 H 0.74484 0.24454 0.37215 0.0
H2021 H 0.78038 0.32846 0.34571 0.0
H2022 H 0.76287 0.32767 0.36297 0.0
H2023 H 0.7864 0.3236 0.37038 0.0
H2024 H 0.72641 0.31831 0.41102 0.0
H2025 H 0.78347 0.31072 0.42962 0.0
H2026 H 0.72208 0.28929 0.3703 0.0
H2027 H 0.7301 0.31153 0.36298 0.0
H2028 H 0.71304 0.30897 0.38062 0.0
H2029 H 0.78962 0.27727 0.39354 0.0
H2030 H 0.80131 0.29193 0.41254 0.0
H2031 H 0.79964 0.29954 0.38825 0.0
C2032 C 0.50688 0.02726 0.93898 0.0
C2033 C 0.51505 0.02548 0.95759 0.0
C2034 C 0.51665 0.02375 0.92285 0.0
C2035 C 0.53502 0.01835 0.92538 0.0
C2036 C 0.54314 0.01601 0.94409 0.0
C2037 C 0.53306 0.01959 0.95996 0.0
C2038 C 0.50751 0.02633 0.9031 0.0
C2039 C 0.56269 0.01022 0.94736 0.0
C2040 C 0.55651 0.9969 0.88335 0.0
C2041 C 0.56779 0.01175 0.87692 0.0
C2042 C 0.54567 0.99884 0.89905 0.0
C2043 C 0.54614 0.01604 0.90852 0.0
C2044 C 0.55742 0.03109 0.90205 0.0
C2045 C 0.56808 0.02877 0.88632 0.0
C2046 C 0.53383 0.98248 0.90557 0.0
C2047 C 0.55825 0.04966 0.91175 0.0
H2048 H 0.49296 0.03174 0.93699 0.0
H2049 H 0.53948 0.01811 0.97426 0.0
H2050 H 0.51548 0.03757 0.89603 0.0
H2051 H 0.50776 0.01383 0.89407 0.0
H2052 H 0.49277 0.02959 0.90354 0.0
H2053 H 0.56659 0.00806 0.96274 0.0
H2054 H 0.56393 0.99742 0.93914 0.0
H2055 H 0.57293 0.02079 0.94209 0.0
H2056 H 0.55637 0.98367 0.87628 0.0
H2057 H 0.5765 0.04037 0.88122 0.0
H2058 H 0.51896 0.9854 0.90533 0.0
H2059 H 0.53834 0.9795 0.92057 0.0
H2060 H 0.53475 0.97014 0.89644 0.0
H2061 H 0.54404 0.05441 0.91133 0.0
H2062 H 0.56768 0.05997 0.9049 0.0
H2063 H 0.56326 0.04886 0.92705 0.0
C2064 C 0.30047 0.25839 0.37291 0.0
C2065 C 0.28589 0.25997 0.35878 0.0
C2066 C 0.29854 0.24572 0.3875 0.0
C2067 C 0.28169 0.23423 0.38788 0.0
C2068 C 0.2672 0.23526 0.37324 0.0
C2069 C 0.26945 0.24815 0.35892 0.0
C2070 C 0.31427 0.24509 0.40291 0.0
C2071 C 0.24911 0.22309 0.37303 0.0
C2072 C 0.2812 0.19247 0.41888 0.0
C2073 C 0.27305 0.19858 0.43518 0.0
C2074 C 0.28406 0.20389 0.40333 0.0
C2075 C 0.27878 0.22188 0.40416 0.0
C2076 C 0.2706 0.22815 0.42057 0.0
C2077 C 0.26775 0.21641 0.43581 0.0
C2078 C 0.29275 0.1967 0.38603 0.0
C2079 C 0.2648 0.24727 0.42201 0.0
H2080 H 0.31322 0.26746 0.37294 0.0
H2081 H 0.25814 0.24918 0.34801 0.0
H2082 H 0.3095 0.24929 0.41692 0.0
H2083 H 0.31827 0.23098 0.40427 0.0
H2084 H 0.32687 0.25418 0.39995 0.0
H2085 H 0.23977 0.22471 0.35995 0.0
H2086 H 0.25204 0.20861 0.37388 0.0
H2087 H 0.24155 0.22632 0.38576 0.0
H2088 H 0.28557 0.17881 0.41835 0.0
H2089 H 0.26114 0.22116 0.44818 0.0
H2090 H 0.30595 0.20513 0.38377 0.0
H2091 H 0.28319 0.19768 0.373 0.0
H2092 H 0.29585 0.1823 0.38752 0.0
H2093 H 0.27701 0.25731 0.42038 0.0
H2094 H 0.25893 0.25014 0.4359 0.0
H2095 H 0.25411 0.24941 0.41024 0.0
C2096 C 0.5017 0.51668 0.91814 0.0
C2097 C 0.5202 0.52246 0.91441 0.0
C2098 C 0.48686 0.5178 0.90419 0.0
C2099 C 0.49057 0.52501 0.88613 0.0
C2100 C 0.50907 0.53165 0.88258 0.0
C2101 C 0.52368 0.53024 0.89674 0.0
C2102 C 0.46733 0.51054 0.9085 0.0
C2103 C 0.51354 0.53963 0.86356 0.0
C2104 C 0.45774 0.50848 0.84315 0.0
C2105 C 0.44652 0.52294 0.84079 0.0
C2106 C 0.47206 0.50899 0.85789 0.0
C2107 C 0.47535 0.5244 0.87051 0.0
C2108 C 0.46407 0.53906 0.8682 0.0
C2109 C 0.44972 0.53812 0.8534 0.0
C2110 C 0.48365 0.49298 0.86001 0.0
C2111 C 0.46727 0.55578 0.88126 0.0
H2112 H 0.49885 0.51068 0.93175 0.0
H2113 H 0.5379 0.53484 0.89377 0.0
H2114 H 0.45736 0.5209 0.90542 0.0
H2115 H 0.46263 0.49844 0.8991 0.0
H2116 H 0.46656 0.50654 0.92366 0.0
H2117 H 0.5283 0.5456 0.86366 0.0
H2118 H 0.51107 0.52884 0.85213 0.0
H2119 H 0.50418 0.55034 0.85977 0.0
H2120 H 0.45515 0.49664 0.83356 0.0
H2121 H 0.44119 0.54942 0.85148 0.0
H2122 H 0.48253 0.48726 0.87447 0.0
H2123 H 0.49862 0.49752 0.85866 0.0
H2124 H 0.4792 0.48198 0.8491 0.0
H2125 H 0.46584 0.55188 0.89635 0.0
H2126 H 0.45727 0.566 0.87755 0.0
H2127 H 0.48173 0.56223 0.88042 0.0
C2128 C 0.72919 0.75049 0.18268 0.0
C2129 C 0.71455 0.7616 0.1793 0.0
C2130 C 0.73387 0.73844 0.16838 0.0
C2131 C 0.72358 0.73737 0.15031 0.0
C2132 C 0.70873 0.74848 0.14683 0.0
C2133 C 0.70445 0.76052 0.16134 0.0
C2134 C 0.74988 0.72689 0.17258 0.0
C2135 C 0.69734 0.74764 0.12779 0.0
C2136 C 0.74531 0.71847 0.10706 0.0
C2137 C 0.73683 0.70055 0.10564 0.0
C2138 C 0.74126 0.73055 0.12163 0.0
C2139 C 0.72831 0.7246 0.13502 0.0
C2140 C 0.71974 0.7065 0.13368 0.0
C2141 C 0.72416 0.69468 0.11905 0.0
C2142 C 0.75083 0.74968 0.1227 0.0
C2143 C 0.70572 0.6997 0.14757 0.0
H2144 H 0.7371 0.75127 0.1965 0.0
H2145 H 0.69308 0.76902 0.15862 0.0
H2146 H 0.74479 0.71224 0.17088 0.0
H2147 H 0.76064 0.72969 0.16216 0.0
H2148 H 0.7566 0.72945 0.1873 0.0
H2149 H 0.68614 0.75706 0.12744 0.0
H2150 H 0.70658 0.75115 0.11613 0.0
H2151 H 0.69079 0.73357 0.1247 0.0
H2152 H 0.75527 0.723 0.09684 0.0
H2153 H 0.71739 0.6809 0.11787 0.0
H2154 H 0.75858 0.75238 0.13691 0.0
H2155 H 0.74022 0.75967 0.12117 0.0
H2156 H 0.76079 0.75208 0.11139 0.0
H2157 H 0.7122 0.70112 0.16246 0.0
H2158 H 0.70041 0.68521 0.14465 0.0
H2159 H 0.69366 0.70808 0.14673 0.0
C2160 C 0.9757 0.03322 0.09801 0.0
C2161 C 0.97648 0.04959 0.08811 0.0
C2162 C 0.96481 0.03072 0.11374 0.0
C2163 C 0.95441 0.04491 0.11972 0.0
C2164 C 0.95487 0.06135 0.10962 0.0
C2165 C 0.96593 0.06352 0.09393 0.0
C2166 C 0.96469 0.01298 0.12417 0.0
C2167 C 0.9439 0.07676 0.11556 0.0
C2168 C 0.91492 0.03213 0.15159 0.0
C2169 C 0.92346 0.03709 0.16983 0.0
C2170 C 0.92472 0.03486 0.13509 0.0
C2171 C 0.94352 0.04267 0.13692 0.0
C2172 C 0.95216 0.04782 0.15529 0.0
C2173 C 0.94202 0.04498 0.17152 0.0
C2174 C 0.91502 0.02927 0.11573 0.0
C2175 C 0.97222 0.05607 0.15783 0.0
H2176 H 0.98377 0.02237 0.09361 0.0
H2177 H 0.96643 0.07619 0.08634 0.0
H2178 H 0.9703 0.0156 0.13925 0.0
H2179 H 0.95013 0.00661 0.12448 0.0
H2180 H 0.97318 0.00313 0.1174 0.0
H2181 H 0.94521 0.08841 0.10578 0.0
H2182 H 0.92887 0.07187 0.11584 0.0
H2183 H 0.9489 0.08169 0.13029 0.0
H2184 H 0.9005 0.02624 0.1502 0.0
H2185 H 0.94876 0.04862 0.1856 0.0
H2186 H 0.9225 0.01865 0.1089 0.0
H2187 H 0.91541 0.04109 0.10617 0.0
H2188 H 0.9002 0.02386 0.11672 0.0
H2189 H 0.98164 0.04628 0.15258 0.0
H2190 H 0.9767 0.0598 0.17304 0.0
H2191 H 0.97405 0.06846 0.14919 0.0
C2192 C 0.26987 0.78782 0.18915 0.0
C2193 C 0.27052 0.76887 0.18855 0.0
C2194 C 0.26832 0.79763 0.17222 0.0
C2195 C 0.26716 0.78825 0.15426 0.0
C2196 C 0.26767 0.7691 0.15355 0.0
C2197 C 0.26945 0.75966 0.17071 0.0
C2198 C 0.26804 0.81807 0.17356 0.0
C2199 C 0.26627 0.75859 0.13467 0.0
C2200 C 0.24655 0.81209 0.11115 0.0
C2201 C 0.26269 0.81881 0.10246 0.0
C2202 C 0.24778 0.8019 0.12784 0.0
C2203 C 0.26559 0.79851 0.13621 0.0
C2204 C 0.28193 0.80516 0.12751 0.0
C2205 C 0.28028 0.81511 0.1107 0.0
C2206 C 0.23002 0.79492 0.13664 0.0
C2207 C 0.30118 0.8019 0.13605 0.0
H2208 H 0.27075 0.79506 0.20287 0.0
H2209 H 0.26986 0.745 0.17013 0.0
H2210 H 0.27982 0.82475 0.1661 0.0
H2211 H 0.2549 0.82211 0.16628 0.0
H2212 H 0.26915 0.82333 0.18863 0.0
H2213 H 0.26658 0.74371 0.13659 0.0
H2214 H 0.25309 0.76099 0.12627 0.0
H2215 H 0.27801 0.76346 0.12608 0.0
H2216 H 0.23291 0.81507 0.10509 0.0
H2217 H 0.29283 0.81993 0.10393 0.0
H2218 H 0.22981 0.80103 0.15123 0.0
H2219 H 0.22952 0.77994 0.13813 0.0
H2220 H 0.21725 0.79814 0.12797 0.0
H2221 H 0.30334 0.80775 0.15087 0.0
H2222 H 0.31249 0.80803 0.12755 0.0
H2223 H 0.30245 0.78706 0.13695 0.0
C2224 C 0.00755 0.47523 0.12024 0.0
C2225 C 0.98876 0.47909 0.11876 0.0
C2226 C 0.0188 0.47871 0.13735 0.0
C2227 C 0.01109 0.48619 0.15345 0.0
C2228 C 0.99226 0.49047 0.152 0.0
C2229 C 0.98131 0.48691 0.13464 0.0
C2230 C 0.03886 0.47407 0.13827 0.0
C2231 C 0.98359 0.49846 0.16889 0.0
C2232 C 0.0359 0.47677 0.2014 0.0
C2233 C 0.04763 0.49292 0.2051 0.0
C2234 C 0.02345 0.47465 0.18496 0.0
C2235 C 0.02273 0.48901 0.17189 0.0
C2236 C 0.03411 0.50554 0.17583 0.0
C2237 C 0.04641 0.5073 0.1924 0.0
C2238 C 0.01154 0.4568 0.18125 0.0
C2239 C 0.0337 0.52117 0.16226 0.0
H2240 H 0.01348 0.46929 0.10804 0.0
H2241 H 0.96682 0.48992 0.13364 0.0
H2242 H 0.04846 0.48629 0.14279 0.0
H2243 H 0.04097 0.46357 0.14915 0.0
H2244 H 0.04288 0.46885 0.1243 0.0
H2245 H 0.96902 0.50172 0.1652 0.0
H2246 H 0.98347 0.48868 0.18073 0.0
H2247 H 0.99208 0.51106 0.17436 0.0
H2248 H 0.03689 0.46553 0.21104 0.0
H2249 H 0.05519 0.51994 0.19535 0.0
H2250 H 0.01585 0.44986 0.16829 0.0
H2251 H 0.99662 0.45925 0.17842 0.0
H2252 H 0.01275 0.44751 0.19347 0.0
H2253 H 0.03886 0.51708 0.14839 0.0
H2254 H 0.04248 0.53353 0.16803 0.0
H2255 H 0.01913 0.52469 0.15925 0.0
C2256 C 0.35069 0.7225 0.26522 0.0
C2257 C 0.33787 0.73573 0.26555 0.0
C2258 C 0.36749 0.72444 0.27687 0.0
C2259 C 0.37161 0.74 0.28915 0.0
C2260 C 0.35918 0.75381 0.28892 0.0
C2261 C 0.34245 0.75151 0.27712 0.0
C2262 C 0.38044 0.70945 0.27666 0.0
C2263 C 0.36315 0.77064 0.30174 0.0
C2264 C 0.40231 0.73465 0.33471 0.0
C2265 C 0.41972 0.74271 0.32992 0.0
C2266 C 0.38655 0.73379 0.32159 0.0
C2267 C 0.38823 0.74117 0.30321 0.0
C2268 C 0.40575 0.74936 0.29827 0.0
C2269 C 0.4213 0.75002 0.31169 0.0
C2270 C 0.36812 0.72486 0.32737 0.0
C2271 C 0.40804 0.75742 0.27883 0.0
H2272 H 0.34735 0.71029 0.25627 0.0
H2273 H 0.33268 0.76183 0.27744 0.0
H2274 H 0.39491 0.71519 0.27445 0.0
H2275 H 0.38087 0.70276 0.29072 0.0
H2276 H 0.37593 0.69893 0.26527 0.0
H2277 H 0.35291 0.78079 0.29867 0.0
H2278 H 0.3626 0.76678 0.31695 0.0
H2279 H 0.37743 0.77716 0.30003 0.0
H2280 H 0.40105 0.72878 0.34868 0.0
H2281 H 0.43467 0.75648 0.308 0.0
H2282 H 0.36328 0.7131 0.31755 0.0
H2283 H 0.35729 0.73463 0.32616 0.0
H2284 H 0.36913 0.71997 0.34229 0.0
H2285 H 0.40424 0.74678 0.26743 0.0
H2286 H 0.42259 0.76339 0.27727 0.0
H2287 H 0.39841 0.7682 0.27644 0.0
C2288 C 0.00307 0.41049 0.01327 0.0
C2289 C 0.9856 0.41333 0.01994 0.0
C2290 C 0.00537 0.39514 0.00183 0.0
C2291 C 0.98984 0.38225 0.99696 0.0
C2292 C 0.97209 0.38518 0.00334 0.0
C2293 C 0.97017 0.40071 0.01473 0.0
C2294 C 0.0245 0.39256 0.9952 0.0
C2295 C 0.95522 0.37172 0.99844 0.0
C2296 C 0.99323 0.34993 0.95466 0.0
C2297 C 0.9986 0.33426 0.9638 0.0
C2298 C 0.99012 0.36557 0.96527 0.0
C2299 C 0.99234 0.36554 0.98552 0.0
C2300 C 0.9975 0.3497 0.99486 0.0
C2301 C 0.00059 0.33427 0.98388 0.0
C2302 C 0.98462 0.38219 0.95481 0.0
C2303 C 1.00001 0.34916 0.01644 0.0
H2304 H 0.01506 0.42019 0.01716 0.0
H2305 H 0.95663 0.40278 0.01984 0.0
H2306 H 0.02946 0.37986 0.00107 0.0
H2307 H 0.02373 0.39109 0.97934 0.0
H2308 H 0.03501 0.40411 0.99975 0.0
H2309 H 0.94228 0.37626 0.004 0.0
H2310 H 0.95291 0.36963 0.98268 0.0
H2311 H 0.95771 0.35832 0.00456 0.0
H2312 H 0.99133 0.34993 0.93915 0.0
H2313 H 0.00491 0.32229 0.99104 0.0
H2314 H 0.99532 0.39382 0.95827 0.0
H2315 H 0.97117 0.38619 0.95959 0.0
H2316 H 0.98312 0.37988 0.93901 0.0
H2317 H 0.01145 0.3595 0.0219 0.0
H2318 H 0.00342 0.33559 0.0215 0.0
H2319 H 0.98706 0.35261 0.02281 0.0
C2320 C 0.66325 0.76974 0.28961 0.0
C2321 C 0.66307 0.78516 0.2782 0.0
C2322 C 0.64838 0.76473 0.30097 0.0
C2323 C 0.63298 0.77539 0.3009 0.0
C2324 C 0.63247 0.79063 0.28899 0.0
C2325 C 0.6475 0.79532 0.27779 0.0
C2326 C 0.6494 0.74835 0.31346 0.0
C2327 C 0.61626 0.8023 0.28846 0.0
C2328 C 0.5871 0.7564 0.31977 0.0
C2329 C 0.58828 0.76461 0.33814 0.0
C2330 C 0.60168 0.75953 0.30758 0.0
C2331 C 0.6178 0.77115 0.31392 0.0
C2332 C 0.61918 0.77927 0.33254 0.0
C2333 C 0.60441 0.77591 0.34442 0.0
C2334 C 0.59973 0.75057 0.28785 0.0
C2335 C 0.63613 0.7918 0.3398 0.0
H2336 H 0.6752 0.76178 0.29 0.0
H2337 H 0.64719 0.80721 0.26897 0.0
H2338 H 0.65013 0.75276 0.32877 0.0
H2339 H 0.63657 0.73884 0.31068 0.0
H2340 H 0.66178 0.74088 0.31103 0.0
H2341 H 0.61757 0.81317 0.27776 0.0
H2342 H 0.60288 0.79375 0.28499 0.0
H2343 H 0.61544 0.80878 0.30279 0.0
H2344 H 0.57479 0.74744 0.31493 0.0
H2345 H 0.60532 0.78247 0.3585 0.0
H2346 H 0.61175 0.7425 0.28587 0.0
H2347 H 0.59994 0.76114 0.2768 0.0
H2348 H 0.58656 0.74145 0.28532 0.0
H2349 H 0.64902 0.78475 0.33891 0.0
H2350 H 0.63531 0.79653 0.35487 0.0
H2351 H 0.6375 0.8039 0.33067 0.0
C2352 C 0.03018 0.09536 0.01383 0.0
C2353 C 0.03747 0.08161 0.00332 0.0
C2354 C 0.0264 0.11188 0.00542 0.0
C2355 C 0.03019 0.11478 0.98609 0.0
C2356 C 0.03772 0.10102 0.97546 0.0
C2357 C 0.04131 0.08463 0.98422 0.0
C2358 C 0.01851 0.12629 0.01726 0.0
C2359 C 0.04198 0.10361 0.95482 0.0
C2360 C 0.00577 0.15032 0.95781 0.0
C2361 C 0.01985 0.16485 0.95818 0.0
C2362 C 0.00885 0.13405 0.96708 0.0
C2363 C 0.02642 0.13226 0.97697 0.0
C2364 C 0.04058 0.14698 0.9777 0.0
C2365 C 0.03712 0.16309 0.9683 0.0
C2366 C 0.99337 0.1187 0.96609 0.0
C2367 C 0.05952 0.14557 0.98806 0.0
H2368 H 0.02784 0.09344 0.02877 0.0
H2369 H 0.04702 0.07408 0.97605 0.0
H2370 H 0.02835 0.13883 0.01838 0.0
H2371 H 0.00514 0.12996 0.01015 0.0
H2372 H 0.01594 0.12174 0.03195 0.0
H2373 H 0.04778 0.09157 0.94855 0.0
H2374 H 0.02905 0.1062 0.94609 0.0
H2375 H 0.05221 0.11569 0.95375 0.0
H2376 H 0.99231 0.15168 0.95024 0.0
H2377 H 0.04814 0.17416 0.96845 0.0
H2378 H 0.99012 0.11469 0.98076 0.0
H2379 H 0.99799 0.10658 0.95879 0.0
H2380 H 0.98034 0.12245 0.95827 0.0
H2381 H 0.05789 0.14185 0.00316 0.0
H2382 H 0.06875 0.15849 0.98792 0.0
H2383 H 0.06655 0.13461 0.98125 0.0
C2384 C 0.34521 0.29643 0.26358 0.0
C2385 C 0.34973 0.2985 0.28339 0.0
C2386 C 0.35894 0.2931 0.25098 0.0
C2387 C 0.37751 0.29141 0.25842 0.0
C2388 C 0.38208 0.29324 0.27843 0.0
C2389 C 0.36818 0.29696 0.29065 0.0
C2390 C 0.35361 0.29159 0.2297 0.0
C2391 C 0.40164 0.29118 0.28695 0.0
C2392 C 0.40941 0.26658 0.22804 0.0
C2393 C 0.42097 0.2811 0.22145 0.0
C2394 C 0.39518 0.26973 0.24008 0.0
C2395 C 0.39224 0.28784 0.2453 0.0
C2396 C 0.40364 0.30256 0.23831 0.0
C2397 C 0.41802 0.29899 0.22663 0.0
C2398 C 0.38357 0.25367 0.24754 0.0
C2399 C 0.40071 0.32207 0.24323 0.0
H2400 H 0.33099 0.29771 0.25788 0.0
H2401 H 0.37171 0.29842 0.30596 0.0
H2402 H 0.36232 0.30196 0.22217 0.0
H2403 H 0.35641 0.27804 0.224 0.0
H2404 H 0.33863 0.29351 0.2262 0.0
H2405 H 0.40276 0.29244 0.30285 0.0
H2406 H 0.40595 0.2777 0.28269 0.0
H2407 H 0.41169 0.3017 0.28132 0.0
H2408 H 0.41184 0.25273 0.22416 0.0
H2409 H 0.42691 0.31021 0.2214 0.0
H2410 H 0.36852 0.25456 0.24336 0.0
H2411 H 0.38522 0.25389 0.26344 0.0
H2412 H 0.3876 0.24044 0.24207 0.0
H2413 H 0.38602 0.32467 0.23912 0.0
H2414 H 0.41021 0.33195 0.23591 0.0
H2415 H 0.40314 0.32462 0.25892 0.0
C2416 C 0.54344 0.40526 0.03842 0.0
C2417 C 0.554 0.40016 0.02344 0.0
C2418 C 0.53858 0.39298 0.05271 0.0
C2419 C 0.54423 0.37511 0.05185 0.0
C2420 C 0.55503 0.36994 0.03687 0.0
C2421 C 0.55988 0.38256 0.02291 0.0
C2422 C 0.52725 0.39905 0.06861 0.0
C2423 C 0.56118 0.35096 0.03538 0.0
C2424 C 0.5453 0.34642 0.0963 0.0
C2425 C 0.52847 0.3352 0.09327 0.0
C2426 C 0.55044 0.35972 0.08312 0.0
C2427 C 0.53856 0.36168 0.06641 0.0
C2428 C 0.52147 0.3505 0.06337 0.0
C2429 C 0.51657 0.33745 0.0769 0.0
C2430 C 0.56865 0.37155 0.08699 0.0
C2431 C 0.50853 0.35206 0.04563 0.0
H2432 H 0.5389 0.41886 0.03896 0.0
H2433 H 0.56798 0.37849 0.01134 0.0
H2434 H 0.5136 0.39066 0.0681 0.0
H2435 H 0.53467 0.397 0.08274 0.0
H2436 H 0.52458 0.41361 0.06762 0.0
H2437 H 0.56967 0.34915 0.02295 0.0
H2438 H 0.56957 0.34791 0.04865 0.0
H2439 H 0.54873 0.34083 0.03393 0.0
H2440 H 0.55441 0.34483 0.10906 0.0
H2441 H 0.50365 0.32867 0.07444 0.0
H2442 H 0.56604 0.38614 0.08684 0.0
H2443 H 0.5781 0.36925 0.07551 0.0
H2444 H 0.57596 0.36876 0.101 0.0
H2445 H 0.50446 0.36616 0.04454 0.0
H2446 H 0.49561 0.34255 0.04557 0.0
H2447 H 0.51588 0.34911 0.03268 0.0
C2448 C 0.67329 0.23252 0.26138 0.0
C2449 C 0.67976 0.24163 0.27872 0.0
C2450 C 0.65525 0.23424 0.25302 0.0
C2451 C 0.64336 0.24534 0.26222 0.0
C2452 C 0.64957 0.25414 0.28002 0.0
C2453 C 0.6677 0.25217 0.28807 0.0
C2454 C 0.64911 0.22459 0.23405 0.0
C2455 C 0.63726 0.26605 0.29026 0.0
C2456 C 0.60607 0.26504 0.22992 0.0
C2457 C 0.59017 0.25316 0.23264 0.0
C2458 C 0.62336 0.26288 0.23979 0.0
C2459 C 0.62481 0.24844 0.25267 0.0
C2460 C 0.60875 0.23661 0.25578 0.0
C2461 C 0.59161 0.2391 0.24572 0.0
C2462 C 0.64019 0.27576 0.23603 0.0
C2463 C 0.60974 0.2211 0.26945 0.0
H2464 H 0.68247 0.22429 0.25408 0.0
H2465 H 0.67257 0.25924 0.30149 0.0
H2466 H 0.63569 0.2161 0.23511 0.0
H2467 H 0.64666 0.23477 0.22291 0.0
H2468 H 0.65967 0.21574 0.22925 0.0
H2469 H 0.6437 0.27102 0.30454 0.0
H2470 H 0.63455 0.27801 0.28147 0.0
H2471 H 0.6235 0.25846 0.29217 0.0
H2472 H 0.60514 0.27576 0.21963 0.0
H2473 H 0.57931 0.23 0.24805 0.0
H2474 H 0.65085 0.2681 0.22957 0.0
H2475 H 0.64673 0.28208 0.24971 0.0
H2476 H 0.63654 0.28676 0.22624 0.0
H2477 H 0.6193 0.21137 0.26435 0.0
H2478 H 0.59582 0.2136 0.27088 0.0
H2479 H 0.61559 0.22632 0.28383 0.0
C2480 C 0.51751 0.10557 0.0552 0.0
C2481 C 0.50403 0.09056 0.05271 0.0
C2482 C 0.51464 0.12063 0.0668 0.0
C2483 C 0.49784 0.12073 0.07615 0.0
C2484 C 0.48423 0.10556 0.07388 0.0
C2485 C 0.48749 0.09062 0.06219 0.0
C2486 C 0.52952 0.13654 0.0689 0.0
C2487 C 0.46615 0.1052 0.08363 0.0
C2488 C 0.49961 0.15444 0.11813 0.0
C2489 C 0.49214 0.16939 0.10941 0.0
C2490 C 0.5009 0.13822 0.10766 0.0
C2491 C 0.49453 0.13693 0.08801 0.0
C2492 C 0.48629 0.15172 0.07934 0.0
C2493 C 0.48522 0.16778 0.09014 0.0
C2494 C 0.50981 0.12277 0.1174 0.0
C2495 C 0.47923 0.15082 0.05846 0.0
H2496 H 0.53035 0.10565 0.04797 0.0
H2497 H 0.47699 0.07908 0.06033 0.0
H2498 H 0.52368 0.14902 0.06347 0.0
H2499 H 0.53414 0.13919 0.08425 0.0
H2500 H 0.54196 0.13417 0.06097 0.0
H2501 H 0.45718 0.09221 0.08074 0.0
H2502 H 0.46916 0.10716 0.09934 0.0
H2503 H 0.45818 0.1166 0.07863 0.0
H2504 H 0.50515 0.15566 0.13296 0.0
H2505 H 0.47918 0.1792 0.08341 0.0
H2506 H 0.52327 0.12084 0.11118 0.0
H2507 H 0.50068 0.10985 0.11491 0.0
H2508 H 0.51258 0.12532 0.13309 0.0
H2509 H 0.49116 0.14994 0.04938 0.0
H2510 H 0.47193 0.16293 0.05427 0.0
H2511 H 0.46947 0.13841 0.05532 0.0
C2512 C 0.27065 0.34534 0.74647 0.0
C2513 C 0.25267 0.34444 0.7371 0.0
C2514 C 0.28248 0.36162 0.74747 0.0
C2515 C 0.27609 0.37744 0.73913 0.0
C2516 C 0.25808 0.37656 0.72938 0.0
C2517 C 0.24663 0.36004 0.72837 0.0
C2518 C 0.30172 0.36196 0.75774 0.0
C2519 C 0.25069 0.3932 0.72048 0.0
C2520 C 0.29847 0.42322 0.75915 0.0
C2521 C 0.31074 0.42851 0.74512 0.0
C2522 C 0.28702 0.40672 0.75728 0.0
C2523 C 0.28801 0.39506 0.74113 0.0
C2524 C 0.3004 0.40023 0.72697 0.0
C2525 C 0.3115 0.41693 0.72906 0.0
C2526 C 0.27387 0.40175 0.77263 0.0
C2527 C 0.30195 0.38809 0.70962 0.0
H2528 H 0.27546 0.33332 0.75317 0.0
H2529 H 0.23273 0.35949 0.72117 0.0
H2530 H 0.31253 0.36716 0.74817 0.0
H2531 H 0.30277 0.37137 0.77042 0.0
H2532 H 0.30494 0.34827 0.76259 0.0
H2533 H 0.23659 0.39012 0.71294 0.0
H2534 H 0.24984 0.40382 0.73176 0.0
H2535 H 0.2604 0.39903 0.71012 0.0
H2536 H 0.29797 0.43188 0.77176 0.0
H2537 H 0.32066 0.42099 0.71797 0.0
H2538 H 0.27745 0.38889 0.77932 0.0
H2539 H 0.25928 0.39935 0.76618 0.0
H2540 H 0.27443 0.41252 0.78404 0.0
H2541 H 0.30584 0.37455 0.71421 0.0
H2542 H 0.31253 0.39393 0.70009 0.0
H2543 H 0.28821 0.38587 0.70124 0.0
C2544 C 0.32643 0.69315 0.78547 0.0
C2545 C 0.3095 0.70019 0.77979 0.0
C2546 C 0.32823 0.6744 0.78409 0.0
C2547 C 0.31271 0.66239 0.77686 0.0
C2548 C 0.29546 0.66934 0.77147 0.0
C2549 C 0.29406 0.68818 0.77299 0.0
C2550 C 0.34686 0.66749 0.79001 0.0
C2551 C 0.27862 0.65694 0.76372 0.0
C2552 C 0.32479 0.61785 0.75512 0.0
C2553 C 0.32231 0.60592 0.77027 0.0
C2554 C 0.32113 0.63613 0.75687 0.0
C2555 C 0.31487 0.64266 0.77422 0.0
C2556 C 0.31175 0.63057 0.78935 0.0
C2557 C 0.31553 0.61233 0.78721 0.0
C2558 C 0.32468 0.64861 0.74042 0.0
C2559 C 0.30498 0.63703 0.80802 0.0
H2560 H 0.33842 0.70232 0.79079 0.0
H2561 H 0.28091 0.6935 0.76861 0.0
H2562 H 0.34506 0.65691 0.80094 0.0
H2563 H 0.35248 0.66103 0.77746 0.0
H2564 H 0.35735 0.67853 0.79598 0.0
H2565 H 0.26598 0.66437 0.76107 0.0
H2566 H 0.28167 0.6503 0.75007 0.0
H2567 H 0.27548 0.64595 0.77392 0.0
H2568 H 0.33033 0.61308 0.74212 0.0
H2569 H 0.31343 0.60312 0.79889 0.0
H2570 H 0.33632 0.65914 0.74479 0.0
H2571 H 0.31211 0.65579 0.73656 0.0
H2572 H 0.32838 0.64114 0.72748 0.0
H2573 H 0.31575 0.64707 0.81532 0.0
H2574 H 0.30202 0.62567 0.81785 0.0
H2575 H 0.29209 0.64403 0.80528 0.0
C2576 C 0.92715 0.49475 0.51761 0.0
C2577 C 0.92445 0.51025 0.50683 0.0
C2578 C 0.91241 0.48117 0.51945 0.0
C2579 C 0.89452 0.48319 0.51037 0.0
C2580 C 0.89165 0.49889 0.49965 0.0
C2581 C 0.90666 0.5122 0.49797 0.0
C2582 C 0.91602 0.46458 0.53092 0.0
C2583 C 0.87275 0.50157 0.48983 0.0
C2584 C 0.86016 0.44163 0.49826 0.0
C2585 C 0.84783 0.44246 0.51282 0.0
C2586 C 0.87566 0.45456 0.49756 0.0
C2587 C 0.87885 0.46872 0.5117 0.0
C2588 C 0.86669 0.4694 0.52669 0.0
C2589 C 0.85134 0.45621 0.52711 0.0
C2590 C 0.88841 0.45325 0.48145 0.0
C2591 C 0.86959 0.48435 0.54198 0.0
H2592 H 0.94086 0.49311 0.52449 0.0
H2593 H 0.90443 0.52415 0.48966 0.0
H2594 H 0.90637 0.46316 0.54258 0.0
H2595 H 0.91322 0.45214 0.52159 0.0
H2596 H 0.93065 0.46521 0.53736 0.0
H2597 H 0.87271 0.51475 0.48245 0.0
H2598 H 0.86854 0.49038 0.47911 0.0
H2599 H 0.86199 0.50105 0.50045 0.0
H2600 H 0.85762 0.43087 0.48734 0.0
H2601 H 0.84174 0.45701 0.53828 0.0
H2602 H 0.9031 0.45292 0.48736 0.0
H2603 H 0.88791 0.46548 0.47252 0.0
H2604 H 0.88446 0.44095 0.47209 0.0
H2605 H 0.88394 0.48483 0.54903 0.0
H2606 H 0.85937 0.48248 0.55311 0.0
H2607 H 0.86816 0.49772 0.53533 0.0
C2608 C 0.70399 0.84047 0.80657 0.0
C2609 C 0.72272 0.83923 0.80275 0.0
C2610 C 0.69535 0.8565 0.80319 0.0
C2611 C 0.70567 0.8717 0.79577 0.0
C2612 C 0.72445 0.87044 0.79146 0.0
C2613 C 0.73277 0.85421 0.79502 0.0
C2614 C 0.67528 0.85729 0.80795 0.0
C2615 C 0.73586 0.88635 0.78349 0.0
C2616 C 0.67717 0.9082 0.77434 0.0
C2617 C 0.67791 0.92084 0.78971 0.0
C2618 C 0.68656 0.89237 0.7759 0.0
C2619 C 0.69691 0.88909 0.79326 0.0
C2620 C 0.69807 0.90199 0.80866 0.0
C2621 C 0.68856 0.91769 0.80671 0.0
C2622 C 0.68508 0.87898 0.75913 0.0
C2623 C 0.70892 0.89895 0.82743 0.0
H2624 H 0.69608 0.82897 0.81249 0.0
H2625 H 0.74723 0.85337 0.792 0.0
H2626 H 0.67456 0.8679 0.81928 0.0
H2627 H 0.66666 0.86117 0.79516 0.0
H2628 H 0.66901 0.84409 0.81301 0.0
H2629 H 0.74996 0.88289 0.78001 0.0
H2630 H 0.72845 0.89108 0.77033 0.0
H2631 H 0.73758 0.89792 0.79406 0.0
H2632 H 0.66918 0.91068 0.76108 0.0
H2633 H 0.68901 0.92727 0.81873 0.0
H2634 H 0.67774 0.86587 0.76314 0.0
H2635 H 0.69924 0.87614 0.7553 0.0
H2636 H 0.67735 0.88401 0.74629 0.0
H2637 H 0.70246 0.88669 0.83422 0.0
H2638 H 0.70926 0.91075 0.83763 0.0
H2639 H 0.72351 0.89642 0.8249 0.0
C2640 C 0.59303 0.50996 0.98735 0.0
C2641 C 0.59847 0.49282 0.98243 0.0
C2642 C 0.60633 0.52513 0.99037 0.0
C2643 C 0.62545 0.52311 0.98815 0.0
C2644 C 0.63093 0.50589 0.98274 0.0
C2645 C 0.6174 0.49092 0.98016 0.0
C2646 C 0.60001 0.54318 0.99649 0.0
C2647 C 0.65113 0.50322 0.97991 0.0
C2648 C 0.65953 0.5647 0.98149 0.0
C2649 C 0.66918 0.56675 0.99964 0.0
C2650 C 0.64505 0.55071 0.97757 0.0
C2651 C 0.63993 0.53873 0.99228 0.0
C2652 C 0.64926 0.54114 0.0108 0.0
C2653 C 0.6639 0.55502 0.0142 0.0
C2654 C 0.63564 0.54838 0.95758 0.0
C2655 C 0.644 0.52888 0.02696 0.0
H2656 H 0.57847 0.51139 0.9895 0.0
H2657 H 0.62163 0.47768 0.97627 0.0
H2658 H 0.60653 0.54725 0.01098 0.0
H2659 H 0.60467 0.55395 0.98659 0.0
H2660 H 0.58455 0.54267 0.99686 0.0
H2661 H 0.65289 0.48924 0.97458 0.0
H2662 H 0.65672 0.51312 0.96954 0.0
H2663 H 0.65972 0.50582 0.99367 0.0
H2664 H 0.66371 0.57372 0.9702 0.0
H2665 H 0.67125 0.55674 0.02829 0.0
H2666 H 0.62026 0.54849 0.95801 0.0
H2667 H 0.63825 0.53498 0.95133 0.0
H2668 H 0.64077 0.55924 0.94796 0.0
H2669 H 0.62878 0.52861 0.02873 0.0
H2670 H 0.65179 0.53332 0.0408 0.0
H2671 H 0.64697 0.51474 0.0235 0.0
C2672 C 0.23243 0.66033 0.24216 0.0
C2673 C 0.25094 0.65946 0.24965 0.0
C2674 C 0.21836 0.64648 0.24551 0.0
C2675 C 0.22295 0.63144 0.25656 0.0
C2676 C 0.24162 0.63046 0.26407 0.0
C2677 C 0.25536 0.64447 0.26053 0.0
C2678 C 0.19859 0.64796 0.23728 0.0
C2679 C 0.24708 0.61462 0.27589 0.0
C2680 C 0.18577 0.60271 0.28129 0.0
C2681 C 0.18284 0.5871 0.26925 0.0
C2682 C 0.1984 0.61747 0.27705 0.0
C2683 C 0.20832 0.61663 0.26035 0.0
C2684 C 0.20507 0.60114 0.24787 0.0
C2685 C 0.19241 0.58655 0.25249 0.0
C2686 C 0.20148 0.63378 0.29069 0.0
C2687 C 0.2154 0.59972 0.22994 0.0
H2688 H 0.2289 0.67187 0.23376 0.0
H2689 H 0.26962 0.64365 0.26636 0.0
H2690 H 0.19382 0.63596 0.22776 0.0
H2691 H 0.18899 0.64797 0.24899 0.0
H2692 H 0.19733 0.6605 0.22896 0.0
H2693 H 0.26223 0.61589 0.28063 0.0
H2694 H 0.23893 0.61364 0.28876 0.0
H2695 H 0.2437 0.60168 0.26746 0.0
H2696 H 0.17821 0.60335 0.2941 0.0
H2697 H 0.19042 0.57446 0.24323 0.0
H2698 H 0.19931 0.64643 0.28287 0.0
H2699 H 0.21615 0.63513 0.29703 0.0
H2700 H 0.19196 0.63273 0.30251 0.0
H2701 H 0.21377 0.61185 0.22108 0.0
H2702 H 0.21037 0.58731 0.22111 0.0
H2703 H 0.23058 0.59939 0.23388 0.0
C2704 C 0.8827 0.5089 0.06826 0.0
C2705 C 0.90014 0.51124 0.06042 0.0
C2706 C 0.8694 0.5215 0.06509 0.0
C2707 C 0.87362 0.53683 0.05378 0.0
C2708 C 0.89125 0.53936 0.04595 0.0
C2709 C 0.9043 0.52654 0.04936 0.0
C2710 C 0.85076 0.51834 0.0737 0.0
C2711 C 0.89626 0.55553 0.03382 0.0
C2712 C 0.83276 0.55943 0.03036 0.0
C2713 C 0.83189 0.57449 0.04275 0.0
C2714 C 0.84635 0.54716 0.03371 0.0
C2715 C 0.85942 0.55 0.04984 0.0
C2716 C 0.85875 0.56526 0.06231 0.0
C2717 C 0.845 0.57732 0.05861 0.0
C2718 C 0.84666 0.53111 0.02002 0.0
C2719 C 0.87243 0.56871 0.07969 0.0
H2720 H 0.87937 0.49714 0.07685 0.0
H2721 H 0.91775 0.52848 0.04326 0.0
H2722 H 0.84842 0.53025 0.08287 0.0
H2723 H 0.83928 0.51688 0.06215 0.0
H2724 H 0.8498 0.50596 0.08248 0.0
H2725 H 0.91068 0.5557 0.02906 0.0
H2726 H 0.88627 0.55533 0.02096 0.0
H2727 H 0.8951 0.56837 0.042 0.0
H2728 H 0.82285 0.55731 0.01792 0.0
H2729 H 0.84429 0.58881 0.06836 0.0
H2730 H 0.84458 0.51821 0.02781 0.0
H2731 H 0.8605 0.53139 0.01395 0.0
H2732 H 0.83565 0.53096 0.00803 0.0
H2733 H 0.87093 0.5571 0.08947 0.0
H2734 H 0.87028 0.5814 0.08774 0.0
H2735 H 0.88699 0.56973 0.07529 0.0
C2736 C 0.11942 0.99954 0.0204 0.0
C2737 C 0.10106 0.99452 0.01276 0.0
C2738 C 0.1335 0.98772 0.01894 0.0
C2739 C 0.12906 0.9704 0.00981 0.0
C2740 C 0.11066 0.96542 0.00167 0.0
C2741 C 0.0969 0.97759 0.00315 0.0
C2742 C 0.15302 0.99361 0.02759 0.0
C2743 C 0.10536 0.94701 0.99195 0.0
C2744 C 0.16913 0.94457 0.99458 0.0
C2745 C 0.17181 0.93314 0.01011 0.0
C2746 C 0.15514 0.95666 0.99417 0.0
C2747 C 0.14347 0.95719 0.00958 0.0
C2748 C 0.14586 0.94539 0.0251 0.0
C2749 C 0.16006 0.93357 0.02521 0.0
C2750 C 0.15313 0.96915 0.97748 0.0
C2751 C 0.13355 0.9454 0.04169 0.0
H2752 H 0.12276 0.01263 0.02776 0.0
H2753 H 0.08273 0.97359 0.99726 0.0
H2754 H 0.15663 0.98464 0.03956 0.0
H2755 H 0.16336 0.99222 0.01675 0.0
H2756 H 0.15446 0.00793 0.03313 0.0
H2757 H 0.09069 0.94556 0.98557 0.0
H2758 H 0.11483 0.94475 0.98047 0.0
H2759 H 0.10703 0.93614 0.00249 0.0
H2760 H 0.17833 0.9444 0.98298 0.0
H2761 H 0.16197 0.9246 0.03713 0.0
H2762 H 0.15584 0.98354 0.98263 0.0
H2763 H 0.13861 0.96735 0.97077 0.0
H2764 H 0.16294 0.96665 0.96636 0.0
H2765 H 0.13537 0.95895 0.04912 0.0
H2766 H 0.13677 0.93491 0.05228 0.0
H2767 H 0.11861 0.94288 0.03636 0.0
loop_
_geom_bond_atom_site_label_1
_geom_bond_atom_site_label_2
_geom_bond_distance
_geom_bond_site_symmetry_2
_ccdc_geom_bond_type
O0 Cd1 2.300 . S
O0 C7 1.275 . S
Cd1 O0 2.300 . S
Cd1 O9 2.381 . S
Cd1 O10 2.378 . S
O2 Cd3 2.385 . S
O2 C7 1.255 . S
Cd3 O2 2.385 . S
Cd3 O4 2.317 . S
O4 Cd3 2.317 . S
O4 C5 1.232 . S
C5 O4 1.232 . S
C5 O6 1.223 . S
O6 C5 1.223 . S
C7 O0 1.275 . S
C7 O2 1.255 . S
C8 O9 1.258 . S
C8 O10 1.256 . S
O9 Cd1 2.381 . S
O9 C8 1.258 . S
O10 Cd1 2.378 . S
O10 C8 1.256 . S
O11 Cd12 2.300 . S
O11 C18 1.275 . S
Cd12 O11 2.300 . S
Cd12 O20 2.381 . S
Cd12 O21 2.378 . S
O13 Cd14 2.385 . S
O13 C18 1.255 . S
Cd14 O13 2.385 . S
Cd14 O15 2.317 . S
O15 Cd14 2.317 . S
O15 C16 1.232 . S
C16 O15 1.232 . S
C16 O17 1.218 . S
O17 C16 1.218 . S
C18 O11 1.275 . S
C18 O13 1.255 . S
C19 O20 1.258 . S
C19 O21 1.256 . S
O20 Cd12 2.381 . S
O20 C19 1.258 . S
O21 Cd12 2.378 . S
O21 C19 1.256 . S
O22 Cd23 2.300 . S
O22 C29 1.275 . S
Cd23 O22 2.300 . S
Cd23 O31 2.381 . S
Cd23 O32 2.378 . S
O24 Cd25 2.385 1_655 S
O24 C29 1.255 . S
Cd25 O24 2.385 1_455 S
Cd25 O26 2.317 1_455 S
O26 Cd25 2.317 1_655 S
O26 C27 1.232 . S
C27 O26 1.232 . S
C27 O28 1.218 1_655 S
O28 C27 1.218 1_455 S
C29 O22 1.275 . S
C29 O24 1.255 . S
C30 O31 1.258 . S
C30 O32 1.256 . S
O31 Cd23 2.381 . S
O31 C30 1.258 . S
O32 Cd23 2.378 . S
O32 C30 1.256 . S
O33 Cd34 2.300 . S
O33 C40 1.275 . S
Cd34 O33 2.300 . S
Cd34 O42 2.381 . S
Cd34 O43 2.378 . S
O35 Cd36 2.385 . S
O35 C40 1.255 . S
Cd36 O35 2.385 . S
Cd36 O37 2.317 . S
O37 Cd36 2.317 . S
O37 C38 1.232 . S
C38 O37 1.232 . S
C38 O39 1.218 . S
O39 C38 1.218 . S
C40 O33 1.275 . S
C40 O35 1.255 . S
C41 O42 1.258 . S
C41 O43 1.256 . S
O42 Cd34 2.381 . S
O42 C41 1.258 . S
O43 Cd34 2.378 . S
O43 C41 1.256 . S
O44 Cd45 2.300 . S
O44 C51 1.275 . S
Cd45 O44 2.300 . S
Cd45 O53 2.381 . S
Cd45 O54 2.378 . S
O46 Cd47 2.385 . S
O46 C51 1.255 1_545 S
Cd47 O46 2.385 . S
Cd47 O48 2.317 1_545 S
O48 Cd47 2.317 1_565 S
O48 C49 1.232 . S
C49 O48 1.232 . S
C49 O50 1.218 1_565 S
O50 C49 1.218 1_545 S
C51 O44 1.275 . S
C51 O46 1.255 1_565 S
C52 O53 1.258 . S
C52 O54 1.256 . S
O53 Cd45 2.381 . S
O53 C52 1.258 . S
O54 Cd45 2.378 . S
O54 C52 1.256 . S
O55 Cd56 2.300 . S
O55 C62 1.275 . S
Cd56 O55 2.300 . S
Cd56 O64 2.381 . S
Cd56 O65 2.378 . S
O57 Cd58 2.385 . S
O57 C62 1.255 . S
Cd58 O57 2.385 . S
Cd58 O59 2.317 . S
O59 Cd58 2.317 . S
O59 C60 1.232 . S
C60 O59 1.232 . S
C60 O61 1.218 . S
O61 C60 1.218 . S
C62 O55 1.275 . S
C62 O57 1.255 . S
C63 O64 1.258 . S
C63 O65 1.256 . S
O64 Cd56 2.381 . S
O64 C63 1.258 . S
O65 Cd56 2.378 . S
O65 C63 1.256 . S
O66 Cd67 2.300 . S
O66 C73 1.275 . S
Cd67 O66 2.300 . S
Cd67 O75 2.381 . S
Cd67 O76 2.378 . S
O68 Cd69 2.385 . S
O68 C73 1.255 1_455 S
Cd69 O68 2.385 . S
Cd69 O70 2.317 1_455 S
O70 Cd69 2.317 1_655 S
O70 C71 1.232 1_655 S
C71 O70 1.232 1_455 S
C71 O72 1.218 . S
O72 C71 1.218 . S
C73 O66 1.275 . S
C73 O68 1.255 1_655 S
C74 O75 1.258 . S
C74 O76 1.256 . S
O75 Cd67 2.381 . S
O75 C74 1.258 . S
O76 Cd67 2.378 . S
O76 C74 1.256 . S
O77 Cd78 2.300 . S
O77 C84 1.275 . S
Cd78 O77 2.300 . S
Cd78 O86 2.381 . S
Cd78 O87 2.378 . S
O79 Cd80 2.385 . S
O79 C84 1.255 . S
Cd80 O79 2.385 . S
Cd80 O81 2.317 . S
O81 Cd80 2.317 . S
O81 C82 1.232 . S
C82 O81 1.232 . S
C82 O83 1.218 . S
O83 C82 1.218 . S
C84 O77 1.275 . S
C84 O79 1.255 . S
C85 O86 1.258 . S
C85 O87 1.256 . S
O86 Cd78 2.381 . S
O86 C85 1.258 . S
O87 Cd78 2.378 . S
O87 C85 1.256 . S
O88 Cd89 2.300 . S
O88 C95 1.275 . S
Cd89 O88 2.300 . S
Cd89 O97 2.381 . S
Cd89 O98 2.378 . S
O90 Cd91 2.385 . S
O90 C95 1.255 . S
Cd91 O90 2.385 . S
Cd91 O92 2.317 . S
O92 Cd91 2.317 . S
O92 C93 1.232 . S
C93 O92 1.232 . S
C93 O94 1.218 . S
O94 C93 1.218 . S
C95 O88 1.275 . S
C95 O90 1.255 . S
C96 O97 1.258 . S
C96 O98 1.256 . S
O97 Cd89 2.381 . S
O97 C96 1.258 . S
O98 Cd89 2.378 . S
O98 C96 1.256 . S
O99 Cd100 2.300 . S
O99 C106 1.275 . S
Cd100 O99 2.300 . S
Cd100 O108 2.381 1_565 S
Cd100 O109 2.378 1_565 S
O101 Cd102 2.385 . S
O101 C106 1.255 . S
Cd102 O101 2.385 . S
Cd102 O103 2.317 . S
O103 Cd102 2.317 . S
O103 C104 1.232 . S
C104 O103 1.232 . S
C104 O105 1.218 . S
O105 C104 1.218 . S
C106 O99 1.275 . S
C106 O101 1.255 . S
C107 O108 1.258 . S
C107 O109 1.256 . S
O108 Cd100 2.381 1_545 S
O108 C107 1.258 . S
O109 Cd100 2.378 1_545 S
O109 C107 1.256 . S
O110 Cd111 2.300 . S
O110 C117 1.275 . S
Cd111 O110 2.300 . S
Cd111 O119 2.381 . S
Cd111 O120 2.378 . S
O112 Cd113 2.385 . S
O112 C117 1.255 . S
Cd113 O112 2.385 . S
Cd113 O114 2.317 . S
O114 Cd113 2.317 . S
O114 C115 1.232 . S
C115 O114 1.232 . S
C115 O116 1.218 . S
O116 C115 1.218 . S
C117 O110 1.275 . S
C117 O112 1.255 . S
C118 O119 1.258 . S
C118 O120 1.256 . S
O119 Cd111 2.381 . S
O119 C118 1.258 . S
O120 Cd111 2.378 . S
O120 C118 1.256 . S
O121 Cd122 2.300 . S
O121 C128 1.275 . S
Cd122 O121 2.300 . S
Cd122 O130 2.381 . S
Cd122 O131 2.378 . S
O123 Cd124 2.385 . S
O123 C128 1.255 . S
Cd124 O123 2.385 . S
Cd124 O125 2.317 . S
O125 Cd124 2.317 . S
O125 C126 1.232 . S
C126 O125 1.232 . S
C126 O127 1.218 . S
O127 C126 1.218 . S
C128 O121 1.275 . S
C128 O123 1.255 . S
C129 O130 1.258 . S
C129 O131 1.256 . S
O130 Cd122 2.381 . S
O130 C129 1.258 . S
O131 Cd122 2.378 . S
O131 C129 1.256 . S
O132 Cd133 2.300 . S
O132 C139 1.275 . S
Cd133 O132 2.300 . S
Cd133 O141 2.381 . S
Cd133 O142 2.378 . S
O134 Cd135 2.385 . S
O134 C139 1.255 . S
Cd135 O134 2.385 . S
Cd135 O136 2.317 . S
O136 Cd135 2.317 . S
O136 C137 1.232 . S
C137 O136 1.232 . S
C137 O138 1.218 . S
O138 C137 1.218 . S
C139 O132 1.275 . S
C139 O134 1.255 . S
C140 O141 1.258 . S
C140 O142 1.256 . S
O141 Cd133 2.381 . S
O141 C140 1.258 . S
O142 Cd133 2.378 . S
O142 C140 1.256 . S
O143 Cd144 2.300 1_556 S
O143 C150 1.275 . S
Cd144 O143 2.300 1_554 S
Cd144 O152 2.381 . S
Cd144 O153 2.378 . S
O145 Cd146 2.385 . S
O145 C150 1.255 . S
Cd146 O145 2.385 . S
Cd146 O147 2.317 . S
O147 Cd146 2.317 . S
O147 C148 1.232 . S
C148 O147 1.232 . S
C148 O149 1.218 . S
O149 C148 1.218 . S
C150 O143 1.275 . S
C150 O145 1.255 . S
C151 O152 1.258 . S
C151 O153 1.256 . S
O152 Cd144 2.381 . S
O152 C151 1.258 . S
O153 Cd144 2.378 . S
O153 C151 1.256 . S
O154 Cd155 2.300 . S
O154 C161 1.275 . S
Cd155 O154 2.300 . S
Cd155 O163 2.381 . S
Cd155 O164 2.378 . S
O156 Cd157 2.385 . S
O156 C161 1.255 . S
Cd157 O156 2.385 . S
Cd157 O158 2.317 . S
O158 Cd157 2.317 . S
O158 C159 1.232 . S
C159 O158 1.232 . S
C159 O160 1.218 . S
O160 C159 1.218 . S
C161 O154 1.275 . S
C161 O156 1.255 . S
C162 O163 1.258 . S
C162 O164 1.256 . S
O163 Cd155 2.381 . S
O163 C162 1.258 . S
O164 Cd155 2.378 . S
O164 C162 1.256 . S
O165 Cd166 2.300 1_556 S
O165 C172 1.275 . S
Cd166 O165 2.300 1_554 S
Cd166 O174 2.381 1_554 S
Cd166 O175 2.378 1_545 S
O167 Cd168 2.385 1_556 S
O167 C172 1.255 . S
Cd168 O167 2.385 1_554 S
Cd168 O169 2.317 . S
O169 Cd168 2.317 . S
O169 C170 1.232 . S
C170 O169 1.232 . S
C170 O171 1.218 . S
O171 C170 1.218 . S
C172 O165 1.275 . S
C172 O167 1.255 . S
C173 O174 1.258 1_564 S
C173 O175 1.256 . S
O174 Cd166 2.381 1_556 S
O174 C173 1.258 1_546 S
O175 Cd166 2.378 1_565 S
O175 C173 1.256 . S
Li176 N193 1.992 . S
Li176 O236 1.956 . S
Li176 O237 1.970 . S
Li176 O238 1.961 1_554 S
Li177 N201 1.990 . S
Li177 O236 1.970 . S
Li177 O237 1.956 . S
Li177 O239 1.961 . S
Li178 N223 1.990 . S
Li178 O236 1.961 1_556 S
Li178 O238 1.956 . S
Li178 O239 1.970 1_556 S
Li179 N229 1.990 . S
Li179 O237 1.961 . S
Li179 O238 1.970 1_554 S
Li179 O239 1.956 . S
C180 C182 1.388 . S
C180 C183 1.310 1_554 S
C180 O236 1.332 . S
N181 C184 1.314 1_556 S
N181 C185 1.279 . S
C182 C180 1.388 . S
C182 C184 1.353 . S
C182 H240 0.929 . S
C183 C180 1.310 1_556 S
C183 C185 1.358 . S
C183 H241 0.930 . S
C184 N181 1.314 1_554 S
C184 C182 1.353 . S
C184 H242 0.930 . S
C185 N181 1.279 . S
C185 C183 1.358 . S
C185 H243 0.930 . S
C186 C189 1.348 . S
C186 C190 1.356 . S
C186 O237 1.325 . S
C187 N188 1.279 . S
C187 C190 1.358 . S
C187 H244 0.930 . S
N188 C187 1.279 . S
N188 C191 1.314 . S
C189 C186 1.348 . S
C189 C191 1.353 . S
C189 H245 0.929 . S
C190 C186 1.356 . S
C190 C187 1.358 . S
C190 H246 0.930 . S
C191 N188 1.314 . S
C191 C189 1.353 . S
C191 H247 0.930 . S
C192 N193 1.311 1_556 S
C192 C197 1.353 . S
C192 H198 0.930 . S
N193 Li176 1.992 . S
N193 C192 1.311 1_554 S
N193 C195 1.281 . S
C194 C195 1.358 . S
C194 C196 1.362 . S
C194 H248 0.930 . S
C195 N193 1.281 . S
C195 C194 1.358 . S
C195 H199 0.930 . S
C196 C194 1.362 . S
C196 C197 1.342 1_554 S
C197 C192 1.353 . S
C197 C196 1.342 1_556 S
C197 H249 0.929 . S
H198 C192 0.930 . S
H199 C195 0.930 . S
C200 N201 1.314 . S
C200 C202 1.353 . S
C200 H206 0.930 . S
N201 Li177 1.990 . S
N201 C200 1.314 . S
N201 C204 1.279 . S
C202 C200 1.353 . S
C202 C205 1.348 . S
C202 H250 0.929 . S
C203 C204 1.358 . S
C203 C205 1.356 . S
C203 H251 0.930 . S
C204 N201 1.279 . S
C204 C203 1.358 . S
C204 H207 0.930 . S
C205 C202 1.348 . S
C205 C203 1.356 . S
H206 C200 0.930 . S
H207 C204 0.930 . S
C208 C210 1.348 . S
C208 C211 1.356 . S
C208 O238 1.325 . S
N209 C212 1.314 . S
N209 C213 1.279 . S
C210 C208 1.348 . S
C210 C212 1.353 . S
C210 H252 0.929 . S
C211 C208 1.356 . S
C211 C213 1.358 . S
C211 H253 0.930 . S
C212 N209 1.314 . S
C212 C210 1.353 . S
C212 H254 0.930 . S
C213 N209 1.279 . S
C213 C211 1.358 . S
C213 H255 0.930 . S
C214 C215 1.348 1_554 S
C214 C216 1.356 . S
C214 O239 1.325 . S
C215 C214 1.348 1_556 S
C215 C217 1.353 . S
C215 H256 0.929 . S
C216 C214 1.356 . S
C216 C218 1.358 . S
C216 H257 0.930 . S
C217 C215 1.353 . S
C217 N219 1.314 1_556 S
C217 H258 0.930 . S
C218 C216 1.358 . S
C218 N219 1.279 . S
C218 H259 0.930 . S
N219 C217 1.314 1_554 S
N219 C218 1.279 . S
C220 C222 1.353 . S
C220 N223 1.314 . S
C220 H226 0.930 . S
C221 N223 1.279 . S
C221 C224 1.358 . S
C221 H227 0.930 . S
C222 C220 1.353 . S
C222 C225 1.348 . S
C222 H260 0.929 . S
N223 Li178 1.990 . S
N223 C220 1.314 . S
N223 C221 1.279 . S
C224 C221 1.358 . S
C224 C225 1.356 . S
C224 H261 0.930 . S
C225 C222 1.348 . S
C225 C224 1.356 . S
H226 C220 0.930 . S
H227 C221 0.930 . S
C228 N229 1.314 . S
C228 C230 1.353 . S
C228 H234 0.930 . S
N229 Li179 1.990 . S
N229 C228 1.314 . S
N229 C232 1.279 . S
C230 C228 1.353 . S
C230 C233 1.348 . S
C230 H262 0.929 . S
C231 C232 1.358 . S
C231 C233 1.356 . S
C231 H263 0.930 . S
C232 N229 1.279 . S
C232 C231 1.358 . S
C232 H235 0.930 . S
C233 C230 1.348 . S
C233 C231 1.356 . S
H234 C228 0.930 . S
H235 C232 0.930 . S
O236 Li176 1.956 . S
O236 Li177 1.970 . S
O236 Li178 1.961 1_554 S
O236 C180 1.332 . S
O237 Li176 1.970 . S
O237 Li177 1.956 . S
O237 Li179 1.961 . S
O237 C186 1.325 . S
O238 Li176 1.961 1_556 S
O238 Li178 1.956 . S
O238 Li179 1.970 1_556 S
O238 C208 1.325 . S
O239 Li177 1.961 . S
O239 Li178 1.970 1_554 S
O239 Li179 1.956 . S
O239 C214 1.325 . S
H240 C182 0.929 . S
H241 C183 0.930 . S
H242 C184 0.930 . S
H243 C185 0.930 . S
H244 C187 0.930 . S
H245 C189 0.929 . S
H246 C190 0.930 . S
H247 C191 0.930 . S
H248 C194 0.930 . S
H249 C197 0.929 . S
H250 C202 0.929 . S
H251 C203 0.930 . S
H252 C210 0.929 . S
H253 C211 0.930 . S
H254 C212 0.930 . S
H255 C213 0.930 . S
H256 C215 0.929 . S
H257 C216 0.930 . S
H258 C217 0.930 . S
H259 C218 0.930 . S
H260 C222 0.929 . S
H261 C224 0.930 . S
H262 C230 0.929 . S
H263 C231 0.930 . S
Li264 N281 1.990 . S
Li264 O324 1.956 . S
Li264 O325 1.970 . S
Li264 O326 1.961 . S
Li265 N289 1.990 . S
Li265 O324 1.970 . S
Li265 O325 1.956 . S
Li265 O327 1.961 . S
Li266 N311 1.990 . S
Li266 O324 1.961 . S
Li266 O326 1.956 . S
Li266 O327 1.970 . S
Li267 N317 1.990 . S
Li267 O325 1.961 . S
Li267 O326 1.970 . S
Li267 O327 1.956 . S
C268 C270 1.348 . S
C268 C271 1.356 . S
C268 O324 1.325 . S
N269 C272 1.314 . S
N269 C273 1.279 . S
C270 C268 1.348 . S
C270 C272 1.353 . S
C270 H328 0.929 . S
C271 C268 1.356 . S
C271 C273 1.358 . S
C271 H329 0.930 . S
C272 N269 1.314 . S
C272 C270 1.353 . S
C272 H330 0.930 . S
C273 N269 1.279 . S
C273 C271 1.358 . S
C273 H331 0.930 . S
C274 C277 1.348 . S
C274 C278 1.356 . S
C274 O325 1.325 . S
C275 N276 1.279 . S
C275 C278 1.358 . S
C275 H332 0.930 . S
N276 C275 1.279 . S
N276 C279 1.314 . S
C277 C274 1.348 . S
C277 C279 1.353 . S
C277 H333 0.929 . S
C278 C274 1.356 . S
C278 C275 1.358 . S
C278 H334 0.930 . S
C279 N276 1.314 . S
C279 C277 1.353 . S
C279 H335 0.930 . S
C280 N281 1.314 . S
C280 C285 1.353 . S
C280 H286 0.930 . S
N281 Li264 1.990 . S
N281 C280 1.314 . S
N281 C283 1.279 . S
C282 C283 1.358 . S
C282 C284 1.356 . S
C282 H336 0.930 . S
C283 N281 1.279 . S
C283 C282 1.358 . S
C283 H287 0.930 . S
C284 C282 1.356 . S
C284 C285 1.348 . S
C285 C280 1.353 . S
C285 C284 1.348 . S
C285 H337 0.929 . S
H286 C280 0.930 . S
H287 C283 0.930 . S
C288 N289 1.314 . S
C288 C290 1.353 . S
C288 H294 0.930 . S
N289 Li265 1.990 . S
N289 C288 1.314 . S
N289 C292 1.279 . S
C290 C288 1.353 . S
C290 C293 1.348 . S
C290 H338 0.929 . S
C291 C292 1.358 . S
C291 C293 1.356 . S
C291 H339 0.930 . S
C292 N289 1.279 . S
C292 C291 1.358 . S
C292 H295 0.930 . S
C293 C290 1.348 . S
C293 C291 1.356 . S
H294 C288 0.930 . S
H295 C292 0.930 . S
C296 C298 1.348 . S
C296 C299 1.356 . S
C296 O326 1.325 . S
N297 C300 1.314 . S
N297 C301 1.279 . S
C298 C296 1.348 . S
C298 C300 1.353 . S
C298 H340 0.929 . S
C299 C296 1.356 . S
C299 C301 1.358 . S
C299 H341 0.930 . S
C300 N297 1.314 . S
C300 C298 1.353 . S
C300 H342 0.930 . S
C301 N297 1.279 . S
C301 C299 1.358 . S
C301 H343 0.930 . S
C302 C303 1.348 . S
C302 C304 1.356 . S
C302 O327 1.325 . S
C303 C302 1.348 . S
C303 C305 1.353 . S
C303 H344 0.929 . S
C304 C302 1.356 . S
C304 C306 1.358 . S
C304 H345 0.930 . S
C305 C303 1.353 . S
C305 N307 1.314 . S
C305 H346 0.930 . S
C306 C304 1.358 . S
C306 N307 1.279 . S
C306 H347 0.930 . S
N307 C305 1.314 . S
N307 C306 1.279 . S
C308 C310 1.353 . S
C308 N311 1.314 . S
C308 H314 0.930 . S
C309 N311 1.279 . S
C309 C312 1.358 . S
C309 H315 0.930 . S
C310 C308 1.353 . S
C310 C313 1.348 . S
C310 H348 0.929 . S
N311 Li266 1.990 . S
N311 C308 1.314 . S
N311 C309 1.279 . S
C312 C309 1.358 . S
C312 C313 1.356 . S
C312 H349 0.930 . S
C313 C310 1.348 . S
C313 C312 1.356 . S
H314 C308 0.930 . S
H315 C309 0.930 . S
C316 N317 1.314 . S
C316 C318 1.353 . S
C316 H322 0.930 . S
N317 Li267 1.990 . S
N317 C316 1.314 . S
N317 C320 1.279 . S
C318 C316 1.353 . S
C318 C321 1.348 . S
C318 H350 0.929 . S
C319 C320 1.358 . S
C319 C321 1.356 . S
C319 H351 0.930 . S
C320 N317 1.279 . S
C320 C319 1.358 . S
C320 H323 0.930 . S
C321 C318 1.348 . S
C321 C319 1.356 . S
H322 C316 0.930 . S
H323 C320 0.930 . S
O324 Li264 1.956 . S
O324 Li265 1.970 . S
O324 Li266 1.961 . S
O324 C268 1.325 . S
O325 Li264 1.970 . S
O325 Li265 1.956 . S
O325 Li267 1.961 . S
O325 C274 1.325 . S
O326 Li264 1.961 . S
O326 Li266 1.956 . S
O326 Li267 1.970 . S
O326 C296 1.325 . S
O327 Li265 1.961 . S
O327 Li266 1.970 . S
O327 Li267 1.956 . S
O327 C302 1.325 . S
H328 C270 0.929 . S
H329 C271 0.930 . S
H330 C272 0.930 . S
H331 C273 0.930 . S
H332 C275 0.930 . S
H333 C277 0.929 . S
H334 C278 0.930 . S
H335 C279 0.930 . S
H336 C282 0.930 . S
H337 C285 0.929 . S
H338 C290 0.929 . S
H339 C291 0.930 . S
H340 C298 0.929 . S
H341 C299 0.930 . S
H342 C300 0.930 . S
H343 C301 0.930 . S
H344 C303 0.929 . S
H345 C304 0.930 . S
H346 C305 0.930 . S
H347 C306 0.930 . S
H348 C310 0.929 . S
H349 C312 0.930 . S
H350 C318 0.929 . S
H351 C319 0.930 . S
Li352 N369 1.990 . S
Li352 O412 1.956 . S
Li352 O413 1.970 1_556 S
Li352 O414 1.961 . S
Li353 N377 1.990 . S
Li353 O412 1.923 1_554 S
Li353 O413 1.956 . S
Li353 O415 1.961 . S
Li354 N399 1.990 . S
Li354 O412 1.996 . S
Li354 O414 1.956 . S
Li354 O415 1.970 1_556 S
Li355 N405 1.990 . S
Li355 O413 1.961 . S
Li355 O414 1.970 1_554 S
Li355 O415 1.956 . S
C356 C358 1.348 1_556 S
C356 C359 1.356 . S
C356 O412 1.336 . S
N357 C360 1.314 1_556 S
N357 C361 1.279 . S
C358 C356 1.348 1_554 S
C358 C360 1.353 . S
C358 H416 0.929 . S
C359 C356 1.356 . S
C359 C361 1.358 . S
C359 H417 0.930 . S
C360 N357 1.314 1_554 S
C360 C358 1.353 . S
C360 H418 0.930 . S
C361 N357 1.279 . S
C361 C359 1.358 . S
C361 H419 0.930 . S
C362 C365 1.348 . S
C362 C366 1.356 . S
C362 O413 1.325 . S
C363 N364 1.279 . S
C363 C366 1.358 . S
C363 H420 0.930 . S
N364 C363 1.279 . S
N364 C367 1.314 . S
C365 C362 1.348 . S
C365 C367 1.353 . S
C365 H421 0.929 . S
C366 C362 1.356 . S
C366 C363 1.358 . S
C366 H422 0.930 . S
C367 N364 1.314 . S
C367 C365 1.353 . S
C367 H423 0.930 . S
C368 N369 1.314 . S
C368 C373 1.353 . S
C368 H374 0.930 . S
N369 Li352 1.990 . S
N369 C368 1.314 . S
N369 C371 1.279 . S
C370 C371 1.358 . S
C370 C372 1.356 . S
C370 H424 0.930 . S
C371 N369 1.279 . S
C371 C370 1.358 . S
C371 H375 0.930 . S
C372 C370 1.356 . S
C372 C373 1.348 . S
C373 C368 1.353 . S
C373 C372 1.348 . S
C373 H425 0.929 . S
H374 C368 0.930 . S
H375 C371 0.930 . S
C376 N377 1.314 . S
C376 C378 1.353 . S
C376 H382 0.930 . S
N377 Li353 1.990 . S
N377 C376 1.314 . S
N377 C380 1.279 . S
C378 C376 1.353 . S
C378 C381 1.348 . S
C378 H426 0.929 . S
C379 C380 1.358 . S
C379 C381 1.356 . S
C379 H427 0.930 . S
C380 N377 1.279 . S
C380 C379 1.358 . S
C380 H383 0.930 . S
C381 C378 1.348 . S
C381 C379 1.356 . S
H382 C376 0.930 . S
H383 C380 0.930 . S
C384 C386 1.348 . S
C384 C387 1.356 . S
C384 O414 1.325 . S
N385 C388 1.314 . S
N385 C389 1.279 . S
C386 C384 1.348 . S
C386 C388 1.353 . S
C386 H428 0.929 . S
C387 C384 1.356 . S
C387 C389 1.358 . S
C387 H429 0.930 . S
C388 N385 1.314 . S
C388 C386 1.353 . S
C388 H430 0.930 . S
C389 N385 1.279 . S
C389 C387 1.358 . S
C389 H431 0.930 . S
C390 C391 1.348 1_554 S
C390 C392 1.356 . S
C390 O415 1.325 . S
C391 C390 1.348 1_556 S
C391 C393 1.353 1_556 S
C391 H432 0.929 . S
C392 C390 1.356 . S
C392 C394 1.358 . S
C392 H433 0.930 . S
C393 C391 1.353 1_554 S
C393 N395 1.314 . S
C393 H434 0.930 1_554 S
C394 C392 1.358 . S
C394 N395 1.279 . S
C394 H435 0.930 . S
N395 C393 1.314 . S
N395 C394 1.279 . S
C396 C398 1.353 . S
C396 N399 1.314 . S
C396 H402 0.930 . S
C397 N399 1.279 . S
C397 C400 1.358 . S
C397 H403 0.930 . S
C398 C396 1.353 . S
C398 C401 1.348 . S
C398 H436 0.929 . S
N399 Li354 1.990 . S
N399 C396 1.314 . S
N399 C397 1.279 . S
C400 C397 1.358 . S
C400 C401 1.356 . S
C400 H437 0.930 . S
C401 C398 1.348 . S
C401 C400 1.356 . S
H402 C396 0.930 . S
H403 C397 0.930 . S
C404 N405 1.314 . S
C404 C406 1.353 . S
C404 H410 0.930 . S
N405 Li355 1.990 . S
N405 C404 1.314 . S
N405 C408 1.279 . S
C406 C404 1.353 . S
C406 C409 1.348 . S
C406 H438 0.929 . S
C407 C408 1.358 . S
C407 C409 1.356 . S
C407 H439 0.930 . S
C408 N405 1.279 . S
C408 C407 1.358 . S
C408 H411 0.930 . S
C409 C406 1.348 . S
C409 C407 1.356 . S
H410 C404 0.930 . S
H411 C408 0.930 . S
O412 Li352 1.956 . S
O412 Li353 1.923 1_556 S
O412 Li354 1.996 . S
O412 C356 1.336 . S
O413 Li352 1.970 1_554 S
O413 Li353 1.956 . S
O413 Li355 1.961 . S
O413 C362 1.325 . S
O414 Li352 1.961 . S
O414 Li354 1.956 . S
O414 Li355 1.970 1_556 S
O414 C384 1.325 . S
O415 Li353 1.961 . S
O415 Li354 1.970 1_554 S
O415 Li355 1.956 . S
O415 C390 1.325 . S
H416 C358 0.929 . S
H417 C359 0.930 . S
H418 C360 0.930 . S
H419 C361 0.930 . S
H420 C363 0.930 . S
H421 C365 0.929 . S
H422 C366 0.930 . S
H423 C367 0.930 . S
H424 C370 0.930 . S
H425 C373 0.929 . S
H426 C378 0.929 . S
H427 C379 0.930 . S
H428 C386 0.929 . S
H429 C387 0.930 . S
H430 C388 0.930 . S
H431 C389 0.930 . S
H432 C391 0.929 . S
H433 C392 0.930 . S
H434 C393 0.930 1_556 S
H435 C394 0.930 . S
H436 C398 0.929 . S
H437 C400 0.930 . S
H438 C406 0.929 . S
H439 C407 0.930 . S
Li440 N457 1.990 . S
Li440 O500 1.956 . S
Li440 O501 1.970 . S
Li440 O502 1.961 . S
Li441 N465 1.990 . S
Li441 O500 1.970 . S
Li441 O501 1.956 . S
Li441 O503 1.961 1_545 S
Li442 N487 1.990 . S
Li442 O500 1.961 . S
Li442 O502 1.956 . S
Li442 O503 1.970 1_545 S
Li443 N493 1.990 . S
Li443 O501 1.961 1_565 S
Li443 O502 1.970 1_565 S
Li443 O503 1.956 . S
C444 C446 1.348 . S
C444 C447 1.356 . S
C444 O500 1.325 . S
N445 C448 1.314 . S
N445 C449 1.279 . S
C446 C444 1.348 . S
C446 C448 1.353 . S
C446 H504 0.929 . S
C447 C444 1.356 . S
C447 C449 1.358 . S
C447 H505 0.930 . S
C448 N445 1.314 . S
C448 C446 1.353 . S
C448 H506 0.930 . S
C449 N445 1.279 . S
C449 C447 1.358 . S
C449 H507 0.930 . S
C450 C453 1.348 . S
C450 C454 1.356 1_545 S
C450 O501 1.325 . S
C451 N452 1.279 1_565 S
C451 C454 1.358 . S
C451 H508 0.930 . S
N452 C451 1.279 1_545 S
N452 C455 1.314 . S
C453 C450 1.348 . S
C453 C455 1.353 . S
C453 H509 0.929 . S
C454 C450 1.356 1_565 S
C454 C451 1.358 . S
C454 H510 0.930 . S
C455 N452 1.314 . S
C455 C453 1.353 . S
C455 H511 0.930 . S
C456 N457 1.314 . S
C456 C461 1.353 . S
C456 H462 0.930 . S
N457 Li440 1.990 . S
N457 C456 1.314 . S
N457 C459 1.279 . S
C458 C459 1.358 . S
C458 C460 1.356 . S
C458 H512 0.930 . S
C459 N457 1.279 . S
C459 C458 1.358 . S
C459 H463 0.930 . S
C460 C458 1.356 . S
C460 C461 1.348 . S
C461 C456 1.353 . S
C461 C460 1.348 . S
C461 H513 0.929 . S
H462 C456 0.930 . S
H463 C459 0.930 . S
C464 N465 1.314 . S
C464 C466 1.353 . S
C464 H470 0.930 . S
N465 Li441 1.990 . S
N465 C464 1.314 . S
N465 C468 1.279 . S
C466 C464 1.353 . S
C466 C469 1.348 . S
C466 H514 0.929 . S
C467 C468 1.358 . S
C467 C469 1.356 . S
C467 H515 0.930 . S
C468 N465 1.279 . S
C468 C467 1.358 . S
C468 H471 0.930 . S
C469 C466 1.348 . S
C469 C467 1.356 . S
H470 C464 0.930 . S
H471 C468 0.930 . S
C472 C474 1.348 . S
C472 C475 1.356 . S
C472 O502 1.325 . S
N473 C476 1.314 . S
N473 C477 1.279 . S
C474 C472 1.348 . S
C474 C476 1.353 . S
C474 H516 0.929 1_545 S
C475 C472 1.356 . S
C475 C477 1.358 . S
C475 H517 0.930 . S
C476 N473 1.314 . S
C476 C474 1.353 . S
C476 H518 0.912 1_545 S
C477 N473 1.279 . S
C477 C475 1.358 . S
C477 H519 0.930 . S
C478 C479 1.348 . S
C478 C480 1.356 . S
C478 O503 1.325 . S
C479 C478 1.348 . S
C479 C481 1.353 . S
C479 H520 0.929 . S
C480 C478 1.356 . S
C480 C482 1.358 . S
C480 H521 0.930 . S
C481 C479 1.353 . S
C481 N483 1.314 . S
C481 H522 0.930 . S
C482 C480 1.358 . S
C482 N483 1.279 . S
C482 H523 0.930 . S
N483 C481 1.314 . S
N483 C482 1.279 . S
C484 C486 1.353 . S
C484 N487 1.314 . S
C484 H490 0.930 . S
C485 N487 1.279 . S
C485 C488 1.358 . S
C485 H491 0.930 . S
C486 C484 1.353 . S
C486 C489 1.348 . S
C486 H524 0.929 . S
N487 Li442 1.990 . S
N487 C484 1.314 . S
N487 C485 1.279 . S
C488 C485 1.358 . S
C488 C489 1.356 . S
C488 H525 0.930 . S
C489 C486 1.348 . S
C489 C488 1.356 . S
H490 C484 0.930 . S
H491 C485 0.930 . S
C492 N493 1.314 . S
C492 C494 1.353 . S
C492 H498 0.930 . S
N493 Li443 1.990 . S
N493 C492 1.314 . S
N493 C496 1.279 . S
C494 C492 1.353 . S
C494 C497 1.348 . S
C494 H526 0.929 . S
C495 C496 1.358 . S
C495 C497 1.356 . S
C495 H527 0.930 . S
C496 N493 1.279 . S
C496 C495 1.358 . S
C496 H499 0.930 . S
C497 C494 1.348 . S
C497 C495 1.356 . S
H498 C492 0.930 . S
H499 C496 0.930 . S
O500 Li440 1.956 . S
O500 Li441 1.970 . S
O500 Li442 1.961 . S
O500 C444 1.325 . S
O501 Li440 1.970 . S
O501 Li441 1.956 . S
O501 Li443 1.961 1_545 S
O501 C450 1.325 . S
O502 Li440 1.961 . S
O502 Li442 1.956 . S
O502 Li443 1.970 1_545 S
O502 C472 1.325 . S
O503 Li441 1.961 1_565 S
O503 Li442 1.970 1_565 S
O503 Li443 1.956 . S
O503 C478 1.325 . S
H504 C446 0.929 . S
H505 C447 0.930 . S
H506 C448 0.930 . S
H507 C449 0.930 . S
H508 C451 0.930 . S
H509 C453 0.929 . S
H510 C454 0.930 . S
H511 C455 0.930 . S
H512 C458 0.930 . S
H513 C461 0.929 . S
H514 C466 0.929 . S
H515 C467 0.930 . S
H516 C474 0.929 1_565 S
H517 C475 0.930 . S
H518 C476 0.912 1_565 S
H519 C477 0.930 . S
H520 C479 0.929 . S
H521 C480 0.930 . S
H522 C481 0.930 . S
H523 C482 0.930 . S
H524 C486 0.929 . S
H525 C488 0.930 . S
H526 C494 0.929 . S
H527 C495 0.930 . S
Li528 N545 1.990 . S
Li528 O588 1.956 . S
Li528 O589 1.970 . S
Li528 O590 1.961 . S
Li529 N553 1.990 . S
Li529 O588 1.970 . S
Li529 O589 1.956 . S
Li529 O591 1.961 . S
Li530 N575 1.990 . S
Li530 O588 1.961 . S
Li530 O590 1.956 . S
Li530 O591 1.970 . S
Li531 N581 1.990 . S
Li531 O589 1.961 . S
Li531 O590 1.970 . S
Li531 O591 1.956 . S
C532 C534 1.348 . S
C532 C535 1.356 . S
C532 O588 1.325 . S
N533 C536 1.314 . S
N533 C537 1.279 . S
C534 C532 1.348 . S
C534 C536 1.353 . S
C534 H592 0.929 . S
C535 C532 1.356 . S
C535 C537 1.358 . S
C535 H593 0.930 . S
C536 N533 1.314 . S
C536 C534 1.353 . S
C536 H594 0.930 . S
C537 N533 1.279 . S
C537 C535 1.358 . S
C537 H595 0.930 . S
C538 C541 1.348 . S
C538 C542 1.356 . S
C538 O589 1.325 . S
C539 N540 1.279 . S
C539 C542 1.358 . S
C539 H596 0.930 . S
N540 C539 1.279 . S
N540 C543 1.314 . S
C541 C538 1.348 . S
C541 C543 1.353 . S
C541 H597 0.929 . S
C542 C538 1.356 . S
C542 C539 1.358 . S
C542 H598 0.930 . S
C543 N540 1.314 . S
C543 C541 1.353 . S
C543 H599 0.930 . S
C544 N545 1.314 . S
C544 C549 1.353 . S
C544 H550 0.930 . S
N545 Li528 1.990 . S
N545 C544 1.314 . S
N545 C547 1.279 . S
C546 C547 1.358 . S
C546 C548 1.356 . S
C546 H600 0.930 . S
C547 N545 1.279 . S
C547 C546 1.358 . S
C547 H551 0.930 . S
C548 C546 1.356 . S
C548 C549 1.348 . S
C549 C544 1.353 . S
C549 C548 1.348 . S
C549 H601 0.929 . S
H550 C544 0.930 . S
H551 C547 0.930 . S
C552 N553 1.314 . S
C552 C554 1.353 . S
C552 H558 0.930 . S
N553 Li529 1.990 . S
N553 C552 1.314 . S
N553 C556 1.279 . S
C554 C552 1.353 . S
C554 C557 1.348 . S
C554 H602 0.929 . S
C555 C556 1.358 . S
C555 C557 1.356 . S
C555 H603 0.930 . S
C556 N553 1.279 . S
C556 C555 1.358 . S
C556 H559 0.930 . S
C557 C554 1.348 . S
C557 C555 1.356 . S
H558 C552 0.930 . S
H559 C556 0.930 . S
C560 C562 1.348 . S
C560 C563 1.356 . S
C560 O590 1.325 . S
N561 C564 1.314 . S
N561 C565 1.279 . S
C562 C560 1.348 . S
C562 C564 1.353 . S
C562 H604 0.929 . S
C563 C560 1.356 . S
C563 C565 1.358 . S
C563 H605 0.930 . S
C564 N561 1.314 . S
C564 C562 1.353 . S
C564 H606 0.930 . S
C565 N561 1.279 . S
C565 C563 1.358 . S
C565 H607 0.930 . S
C566 C567 1.348 . S
C566 C568 1.356 . S
C566 O591 1.325 . S
C567 C566 1.348 . S
C567 C569 1.353 . S
C567 H608 0.929 . S
C568 C566 1.356 . S
C568 C570 1.358 . S
C568 H609 0.930 . S
C569 C567 1.353 . S
C569 N571 1.314 . S
C569 H610 0.930 . S
C570 C568 1.358 . S
C570 N571 1.279 . S
C570 H611 0.930 . S
N571 C569 1.314 . S
N571 C570 1.279 . S
C572 C574 1.353 . S
C572 N575 1.314 . S
C572 H578 0.930 . S
C573 N575 1.279 . S
C573 C576 1.358 . S
C573 H579 0.930 . S
C574 C572 1.353 . S
C574 C577 1.348 . S
C574 H612 0.929 . S
N575 Li530 1.990 . S
N575 C572 1.314 . S
N575 C573 1.279 . S
C576 C573 1.358 . S
C576 C577 1.356 . S
C576 H613 0.930 . S
C577 C574 1.348 . S
C577 C576 1.356 . S
H578 C572 0.930 . S
H579 C573 0.930 . S
C580 N581 1.314 . S
C580 C582 1.353 . S
C580 H586 0.930 . S
N581 Li531 1.990 . S
N581 C580 1.314 . S
N581 C584 1.279 . S
C582 C580 1.353 . S
C582 C585 1.348 . S
C582 H614 0.929 . S
C583 C584 1.358 . S
C583 C585 1.356 . S
C583 H615 0.930 . S
C584 N581 1.279 . S
C584 C583 1.358 . S
C584 H587 0.930 . S
C585 C582 1.348 . S
C585 C583 1.356 . S
H586 C580 0.930 . S
H587 C584 0.930 . S
O588 Li528 1.956 . S
O588 Li529 1.970 . S
O588 Li530 1.961 . S
O588 C532 1.325 . S
O589 Li528 1.970 . S
O589 Li529 1.956 . S
O589 Li531 1.961 . S
O589 C538 1.325 . S
O590 Li528 1.961 . S
O590 Li530 1.956 . S
O590 Li531 1.970 . S
O590 C560 1.325 . S
O591 Li529 1.961 . S
O591 Li530 1.970 . S
O591 Li531 1.956 . S
O591 C566 1.325 . S
H592 C534 0.929 . S
H593 C535 0.930 . S
H594 C536 0.930 . S
H595 C537 0.930 . S
H596 C539 0.930 . S
H597 C541 0.929 . S
H598 C542 0.930 . S
H599 C543 0.930 . S
H600 C546 0.930 . S
H601 C549 0.929 . S
H602 C554 0.929 . S
H603 C555 0.930 . S
H604 C562 0.929 . S
H605 C563 0.930 . S
H606 C564 0.930 . S
H607 C565 0.930 . S
H608 C567 0.929 . S
H609 C568 0.930 . S
H610 C569 0.930 . S
H611 C570 0.930 . S
H612 C574 0.929 . S
H613 C576 0.930 . S
H614 C582 0.929 . S
H615 C583 0.930 . S
Li616 N633 1.990 . S
Li616 O676 1.956 . S
Li616 O677 1.970 . S
Li616 O678 1.961 . S
Li617 N641 1.990 . S
Li617 O676 1.970 . S
Li617 O677 1.956 . S
Li617 O679 1.961 . S
Li618 N663 1.990 . S
Li618 O676 1.961 . S
Li618 O678 1.956 . S
Li618 O679 1.970 . S
Li619 N669 1.990 . S
Li619 O677 1.961 . S
Li619 O678 1.970 . S
Li619 O679 1.956 . S
C620 C622 1.348 . S
C620 C623 1.356 . S
C620 O676 1.325 . S
N621 C624 1.314 . S
N621 C625 1.279 . S
C622 C620 1.348 . S
C622 C624 1.353 . S
C622 H680 0.929 . S
C623 C620 1.356 . S
C623 C625 1.358 . S
C623 H681 0.930 . S
C624 N621 1.314 . S
C624 C622 1.353 . S
C624 H682 0.930 . S
C625 N621 1.279 . S
C625 C623 1.358 . S
C625 H683 0.930 . S
C626 C629 1.348 . S
C626 C630 1.356 . S
C626 O677 1.325 . S
C627 N628 1.279 . S
C627 C630 1.358 . S
C627 H684 0.930 . S
N628 C627 1.279 . S
N628 C631 1.314 . S
C629 C626 1.348 . S
C629 C631 1.353 . S
C629 H685 0.929 . S
C630 C626 1.356 . S
C630 C627 1.358 . S
C630 H686 0.930 . S
C631 N628 1.314 . S
C631 C629 1.353 . S
C631 H687 0.930 . S
C632 N633 1.314 . S
C632 C637 1.353 . S
C632 H638 0.930 . S
N633 Li616 1.990 . S
N633 C632 1.314 . S
N633 C635 1.279 . S
C634 C635 1.358 . S
C634 C636 1.356 . S
C634 H688 0.930 . S
C635 N633 1.279 . S
C635 C634 1.358 . S
C635 H639 0.930 . S
C636 C634 1.356 . S
C636 C637 1.348 . S
C637 C632 1.353 . S
C637 C636 1.348 . S
C637 H689 0.929 . S
H638 C632 0.930 . S
H639 C635 0.930 . S
C640 N641 1.314 . S
C640 C642 1.353 . S
C640 H646 0.930 . S
N641 Li617 1.990 . S
N641 C640 1.314 . S
N641 C644 1.279 . S
C642 C640 1.353 . S
C642 C645 1.348 . S
C642 H690 0.929 . S
C643 C644 1.358 . S
C643 C645 1.356 . S
C643 H691 0.930 . S
C644 N641 1.279 . S
C644 C643 1.358 . S
C644 H647 0.930 . S
C645 C642 1.348 . S
C645 C643 1.356 . S
H646 C640 0.930 . S
H647 C644 0.930 . S
C648 C650 1.348 . S
C648 C651 1.356 . S
C648 O678 1.325 . S
N649 C652 1.314 . S
N649 C653 1.279 . S
C650 C648 1.348 . S
C650 C652 1.353 . S
C650 H692 0.929 . S
C651 C648 1.356 . S
C651 C653 1.358 . S
C651 H693 0.930 . S
C652 N649 1.314 . S
C652 C650 1.353 . S
C652 H694 0.930 . S
C653 N649 1.279 . S
C653 C651 1.358 . S
C653 H695 0.930 . S
C654 C655 1.348 . S
C654 C656 1.356 . S
C654 O679 1.325 . S
C655 C654 1.348 . S
C655 C657 1.353 . S
C655 H696 0.929 . S
C656 C654 1.356 . S
C656 C658 1.358 . S
C656 H697 0.930 . S
C657 C655 1.353 . S
C657 N659 1.314 . S
C657 H698 0.930 . S
C658 C656 1.358 . S
C658 N659 1.279 . S
C658 H699 0.930 . S
N659 C657 1.314 . S
N659 C658 1.279 . S
C660 C662 1.353 . S
C660 N663 1.314 . S
C660 H666 0.930 . S
C661 N663 1.279 . S
C661 C664 1.358 . S
C661 H667 0.930 . S
C662 C660 1.353 . S
C662 C665 1.348 . S
C662 H700 0.929 . S
N663 Li618 1.990 . S
N663 C660 1.314 . S
N663 C661 1.279 . S
C664 C661 1.358 . S
C664 C665 1.356 . S
C664 H701 0.930 . S
C665 C662 1.348 . S
C665 C664 1.356 . S
H666 C660 0.930 . S
H667 C661 0.930 . S
C668 N669 1.314 . S
C668 C670 1.353 . S
C668 H674 0.930 . S
N669 Li619 1.990 . S
N669 C668 1.314 . S
N669 C672 1.279 . S
C670 C668 1.353 . S
C670 C673 1.348 . S
C670 H702 0.929 . S
C671 C672 1.358 . S
C671 C673 1.356 . S
C671 H703 0.930 . S
C672 N669 1.279 . S
C672 C671 1.358 . S
C672 H675 0.930 . S
C673 C670 1.348 . S
C673 C671 1.356 . S
H674 C668 0.930 . S
H675 C672 0.930 . S
O676 Li616 1.956 . S
O676 Li617 1.970 . S
O676 Li618 1.961 . S
O676 C620 1.325 . S
O677 Li616 1.970 . S
O677 Li617 1.956 . S
O677 Li619 1.961 . S
O677 C626 1.325 . S
O678 Li616 1.961 . S
O678 Li618 1.956 . S
O678 Li619 1.970 . S
O678 C648 1.325 . S
O679 Li617 1.961 . S
O679 Li618 1.970 . S
O679 Li619 1.956 . S
O679 C654 1.325 . S
H680 C622 0.929 . S
H681 C623 0.930 . S
H682 C624 0.930 . S
H683 C625 0.930 . S
H684 C627 0.930 . S
H685 C629 0.929 . S
H686 C630 0.930 . S
H687 C631 0.930 . S
H688 C634 0.930 . S
H689 C637 0.929 . S
H690 C642 0.929 . S
H691 C643 0.930 . S
H692 C650 0.929 . S
H693 C651 0.930 . S
H694 C652 0.930 . S
H695 C653 0.930 . S
H696 C655 0.929 . S
H697 C656 0.930 . S
H698 C657 0.930 . S
H699 C658 0.930 . S
H700 C662 0.929 . S
H701 C664 0.930 . S
H702 C670 0.929 . S
H703 C671 0.930 . S
Li704 N721 1.990 . S
Li704 O764 1.956 . S
Li704 O765 1.970 . S
Li704 O766 1.961 . S
Li705 N729 1.990 . S
Li705 O764 1.970 . S
Li705 O765 1.956 . S
Li705 O767 1.961 . S
Li706 N751 1.990 . S
Li706 O764 1.961 . S
Li706 O766 1.956 . S
Li706 O767 1.970 . S
Li707 N757 1.990 . S
Li707 O765 1.961 . S
Li707 O766 1.970 . S
Li707 O767 1.956 . S
C708 C710 1.348 . S
C708 C711 1.356 . S
C708 O764 1.325 . S
N709 C712 1.314 . S
N709 C713 1.279 . S
C710 C708 1.348 . S
C710 C712 1.353 . S
C710 H768 0.929 . S
C711 C708 1.356 . S
C711 C713 1.358 . S
C711 H769 0.930 . S
C712 N709 1.314 . S
C712 C710 1.353 . S
C712 H770 0.930 . S
C713 N709 1.279 . S
C713 C711 1.358 . S
C713 H771 0.930 . S
C714 C717 1.348 . S
C714 C718 1.356 . S
C714 O765 1.325 . S
C715 N716 1.279 . S
C715 C718 1.358 . S
C715 H772 0.930 . S
N716 C715 1.279 . S
N716 C719 1.314 . S
C717 C714 1.348 . S
C717 C719 1.353 . S
C717 H773 0.929 . S
C718 C714 1.356 . S
C718 C715 1.358 . S
C718 H774 0.930 . S
C719 N716 1.314 . S
C719 C717 1.353 . S
C719 H775 0.930 . S
C720 N721 1.314 . S
C720 C725 1.353 . S
C720 H726 0.930 . S
N721 Li704 1.990 . S
N721 C720 1.314 . S
N721 C723 1.279 . S
C722 C723 1.358 . S
C722 C724 1.356 . S
C722 H776 0.930 . S
C723 N721 1.279 . S
C723 C722 1.358 . S
C723 H727 0.930 . S
C724 C722 1.356 . S
C724 C725 1.348 . S
C725 C720 1.353 . S
C725 C724 1.348 . S
C725 H777 0.929 . S
H726 C720 0.930 . S
H727 C723 0.930 . S
C728 N729 1.314 . S
C728 C730 1.353 . S
C728 H734 0.930 . S
N729 Li705 1.990 . S
N729 C728 1.314 . S
N729 C732 1.279 . S
C730 C728 1.353 . S
C730 C733 1.348 . S
C730 H778 0.929 . S
C731 C732 1.358 . S
C731 C733 1.356 . S
C731 H779 0.930 . S
C732 N729 1.279 . S
C732 C731 1.358 . S
C732 H735 0.930 . S
C733 C730 1.348 . S
C733 C731 1.356 . S
H734 C728 0.930 . S
H735 C732 0.930 . S
C736 C738 1.348 . S
C736 C739 1.356 . S
C736 O766 1.325 . S
N737 C740 1.314 . S
N737 C741 1.279 . S
C738 C736 1.348 . S
C738 C740 1.353 . S
C738 H780 0.929 . S
C739 C736 1.356 . S
C739 C741 1.358 . S
C739 H781 0.930 . S
C740 N737 1.314 . S
C740 C738 1.353 . S
C740 H782 0.930 . S
C741 N737 1.279 . S
C741 C739 1.358 . S
C741 H783 0.930 . S
C742 C743 1.348 . S
C742 C744 1.356 . S
C742 O767 1.325 . S
C743 C742 1.348 . S
C743 C745 1.353 . S
C743 H784 0.929 . S
C744 C742 1.356 . S
C744 C746 1.358 . S
C744 H785 0.930 . S
C745 C743 1.353 . S
C745 N747 1.314 . S
C745 H786 0.930 . S
C746 C744 1.358 . S
C746 N747 1.279 . S
C746 H787 0.930 . S
N747 C745 1.314 . S
N747 C746 1.279 . S
C748 C750 1.353 . S
C748 N751 1.314 . S
C748 H754 0.930 . S
C749 N751 1.279 . S
C749 C752 1.358 . S
C749 H755 0.930 . S
C750 C748 1.353 . S
C750 C753 1.348 . S
C750 H788 0.929 . S
N751 Li706 1.990 . S
N751 C748 1.314 . S
N751 C749 1.279 . S
C752 C749 1.358 . S
C752 C753 1.356 . S
C752 H789 0.930 . S
C753 C750 1.348 . S
C753 C752 1.356 . S
H754 C748 0.930 . S
H755 C749 0.930 . S
C756 N757 1.314 . S
C756 C758 1.353 . S
C756 H762 0.930 . S
N757 Li707 1.990 . S
N757 C756 1.314 . S
N757 C760 1.279 . S
C758 C756 1.353 . S
C758 C761 1.348 . S
C758 H790 0.929 . S
C759 C760 1.358 . S
C759 C761 1.356 . S
C759 H791 0.930 . S
C760 N757 1.279 . S
C760 C759 1.358 . S
C760 H763 0.930 . S
C761 C758 1.348 . S
C761 C759 1.356 . S
H762 C756 0.930 . S
H763 C760 0.930 . S
O764 Li704 1.956 . S
O764 Li705 1.970 . S
O764 Li706 1.961 . S
O764 C708 1.325 . S
O765 Li704 1.970 . S
O765 Li705 1.956 . S
O765 Li707 1.961 . S
O765 C714 1.325 . S
O766 Li704 1.961 . S
O766 Li706 1.956 . S
O766 Li707 1.970 . S
O766 C736 1.325 . S
O767 Li705 1.961 . S
O767 Li706 1.970 . S
O767 Li707 1.956 . S
O767 C742 1.325 . S
H768 C710 0.929 . S
H769 C711 0.930 . S
H770 C712 0.930 . S
H771 C713 0.930 . S
H772 C715 0.930 . S
H773 C717 0.929 . S
H774 C718 0.930 . S
H775 C719 0.930 . S
H776 C722 0.930 . S
H777 C725 0.929 . S
H778 C730 0.929 . S
H779 C731 0.930 . S
H780 C738 0.929 . S
H781 C739 0.930 . S
H782 C740 0.930 . S
H783 C741 0.930 . S
H784 C743 0.929 . S
H785 C744 0.930 . S
H786 C745 0.930 . S
H787 C746 0.930 . S
H788 C750 0.929 . S
H789 C752 0.930 . S
H790 C758 0.929 . S
H791 C759 0.930 . S
Li792 N809 1.990 . S
Li792 O852 1.956 . S
Li792 O853 1.970 1_565 S
Li792 O854 1.961 . S
Li793 N817 1.990 . S
Li793 O852 1.970 1_545 S
Li793 O853 1.956 . S
Li793 O855 1.961 . S
Li794 N839 1.990 . S
Li794 O852 1.961 . S
Li794 O854 1.956 . S
Li794 O855 1.970 1_565 S
Li795 N845 1.990 . S
Li795 O853 1.961 . S
Li795 O854 1.970 1_545 S
Li795 O855 1.956 . S
C796 C798 1.348 . S
C796 C799 1.356 . S
C796 O852 1.325 . S
N797 C800 1.314 . S
N797 C801 1.279 . S
C798 C796 1.348 . S
C798 C800 1.353 . S
C798 H856 0.929 . S
C799 C796 1.356 . S
C799 C801 1.358 . S
C799 H857 0.930 . S
C800 N797 1.314 . S
C800 C798 1.353 . S
C800 H858 0.930 . S
C801 N797 1.279 . S
C801 C799 1.358 . S
C801 H859 0.930 . S
C802 C805 1.348 1_545 S
C802 C806 1.356 . S
C802 O853 1.325 . S
C803 N804 1.279 . S
C803 C806 1.358 . S
C803 H860 0.930 . S
N804 C803 1.279 . S
N804 C807 1.314 1_545 S
C805 C802 1.348 1_565 S
C805 C807 1.353 . S
C805 H861 0.929 . S
C806 C802 1.356 . S
C806 C803 1.358 . S
C806 H862 0.930 . S
C807 N804 1.314 1_565 S
C807 C805 1.353 . S
C807 H863 0.930 . S
C808 N809 1.314 . S
C808 C813 1.353 . S
C808 H814 0.930 . S
N809 Li792 1.990 . S
N809 C808 1.314 . S
N809 C811 1.279 . S
C810 C811 1.358 . S
C810 C812 1.356 . S
C810 H864 0.930 . S
C811 N809 1.279 . S
C811 C810 1.358 . S
C811 H815 0.930 . S
C812 C810 1.356 . S
C812 C813 1.348 . S
C813 C808 1.353 . S
C813 C812 1.348 . S
C813 H865 0.929 . S
H814 C808 0.930 . S
H815 C811 0.930 . S
C816 N817 1.314 . S
C816 C818 1.353 . S
C816 H822 0.930 . S
N817 Li793 1.990 . S
N817 C816 1.314 . S
N817 C820 1.279 . S
C818 C816 1.353 . S
C818 C821 1.348 . S
C818 H866 0.929 . S
C819 C820 1.358 . S
C819 C821 1.356 . S
C819 H867 0.930 . S
C820 N817 1.279 . S
C820 C819 1.358 . S
C820 H823 0.930 . S
C821 C818 1.348 . S
C821 C819 1.356 . S
H822 C816 0.930 . S
H823 C820 0.930 . S
C824 C826 1.348 1_565 S
C824 C827 1.356 . S
C824 O854 1.325 . S
N825 C828 1.314 1_565 S
N825 C829 1.279 . S
C826 C824 1.348 1_545 S
C826 C828 1.353 . S
C826 H868 0.929 . S
C827 C824 1.356 . S
C827 C829 1.358 . S
C827 H869 0.930 . S
C828 N825 1.314 1_545 S
C828 C826 1.353 . S
C828 H870 0.930 . S
C829 N825 1.279 . S
C829 C827 1.358 . S
C829 H871 0.930 . S
C830 C831 1.348 . S
C830 C832 1.356 . S
C830 O855 1.325 . S
C831 C830 1.348 . S
C831 C833 1.353 . S
C831 H872 0.929 . S
C832 C830 1.356 . S
C832 C834 1.358 . S
C832 H873 0.930 . S
C833 C831 1.353 . S
C833 N835 1.314 . S
C833 H874 0.930 . S
C834 C832 1.358 . S
C834 N835 1.279 . S
C834 H875 0.930 . S
N835 C833 1.314 . S
N835 C834 1.279 . S
C836 C838 1.353 . S
C836 N839 1.314 . S
C836 H842 0.930 . S
C837 N839 1.279 . S
C837 C840 1.358 . S
C837 H843 0.930 . S
C838 C836 1.353 . S
C838 C841 1.348 . S
C838 H876 0.929 . S
N839 Li794 1.990 . S
N839 C836 1.314 . S
N839 C837 1.279 . S
C840 C837 1.358 . S
C840 C841 1.356 . S
C840 H877 0.930 . S
C841 C838 1.348 . S
C841 C840 1.356 . S
H842 C836 0.930 . S
H843 C837 0.930 . S
C844 N845 1.314 . S
C844 C846 1.353 . S
C844 H850 0.930 . S
N845 Li795 1.990 . S
N845 C844 1.314 . S
N845 C848 1.279 . S
C846 C844 1.353 . S
C846 C849 1.348 . S
C846 H878 0.929 . S
C847 C848 1.358 . S
C847 C849 1.356 . S
C847 H879 0.930 . S
C848 N845 1.279 . S
C848 C847 1.358 . S
C848 H851 0.930 . S
C849 C846 1.348 . S
C849 C847 1.356 . S
H850 C844 0.930 . S
H851 C848 0.930 . S
O852 Li792 1.956 . S
O852 Li793 1.970 1_565 S
O852 Li794 1.961 . S
O852 C796 1.325 . S
O853 Li792 1.970 1_545 S
O853 Li793 1.956 . S
O853 Li795 1.961 . S
O853 C802 1.325 . S
O854 Li792 1.961 . S
O854 Li794 1.956 . S
O854 Li795 1.970 1_565 S
O854 C824 1.325 . S
O855 Li793 1.961 . S
O855 Li794 1.970 1_545 S
O855 Li795 1.956 . S
O855 C830 1.325 . S
H856 C798 0.929 . S
H857 C799 0.930 . S
H858 C800 0.930 . S
H859 C801 0.930 . S
H860 C803 0.930 . S
H861 C805 0.929 . S
H862 C806 0.930 . S
H863 C807 0.930 . S
H864 C810 0.930 . S
H865 C813 0.929 . S
H866 C818 0.929 . S
H867 C819 0.930 . S
H868 C826 0.929 . S
H869 C827 0.930 . S
H870 C828 0.930 . S
H871 C829 0.930 . S
H872 C831 0.929 . S
H873 C832 0.930 . S
H874 C833 0.930 . S
H875 C834 0.930 . S
H876 C838 0.929 . S
H877 C840 0.930 . S
H878 C846 0.929 . S
H879 C847 0.930 . S
Li880 N897 1.990 . S
Li880 O940 1.956 . S
Li880 O941 1.970 . S
Li880 O942 1.961 . S
Li881 N905 1.990 . S
Li881 O940 1.970 . S
Li881 O941 1.956 . S
Li881 O943 1.961 1_455 S
Li882 N927 1.990 . S
Li882 O940 1.961 . S
Li882 O942 1.956 . S
Li882 O943 1.970 1_455 S
Li883 N933 1.990 . S
Li883 O941 1.961 1_655 S
Li883 O942 1.970 1_655 S
Li883 O943 1.956 . S
C884 C886 1.348 . S
C884 C887 1.356 . S
C884 O940 1.325 . S
N885 C888 1.314 . S
N885 C889 1.279 . S
C886 C884 1.348 . S
C886 C888 1.353 . S
C886 H944 0.929 . S
C887 C884 1.356 . S
C887 C889 1.358 . S
C887 H945 0.930 . S
C888 N885 1.314 . S
C888 C886 1.353 . S
C888 H946 0.930 . S
C889 N885 1.279 . S
C889 C887 1.358 . S
C889 H947 0.930 . S
C890 C893 1.348 . S
C890 C894 1.356 1_455 S
C890 O941 1.325 . S
C891 N892 1.279 . S
C891 C894 1.358 . S
C891 H948 0.930 . S
N892 C891 1.279 . S
N892 C895 1.314 1_655 S
C893 C890 1.348 . S
C893 C895 1.353 . S
C893 H949 0.929 . S
C894 C890 1.356 1_655 S
C894 C891 1.358 . S
C894 H950 0.930 . S
C895 N892 1.314 1_455 S
C895 C893 1.353 . S
C895 H951 0.930 . S
C896 N897 1.314 . S
C896 C901 1.353 . S
C896 H902 0.930 . S
N897 Li880 1.990 . S
N897 C896 1.314 . S
N897 C899 1.279 . S
C898 C899 1.358 . S
C898 C900 1.356 . S
C898 H952 0.930 . S
C899 N897 1.279 . S
C899 C898 1.358 . S
C899 H903 0.930 . S
C900 C898 1.356 . S
C900 C901 1.348 . S
C901 C896 1.353 . S
C901 C900 1.348 . S
C901 H953 0.929 . S
H902 C896 0.930 . S
H903 C899 0.930 . S
C904 N905 1.303 1_655 S
C904 C906 1.364 . S
C904 H910 0.934 . S
N905 Li881 1.990 . S
N905 C904 1.303 1_455 S
N905 C908 1.279 . S
C906 C904 1.364 . S
C906 C909 1.348 1_655 S
C906 H954 0.929 . S
C907 C908 1.358 . S
C907 C909 1.356 . S
C907 H955 0.930 . S
C908 N905 1.279 . S
C908 C907 1.358 . S
C908 H911 0.930 . S
C909 C906 1.348 1_455 S
C909 C907 1.356 . S
H910 C904 0.934 . S
H911 C908 0.930 . S
C912 C914 1.348 1_455 S
C912 C915 1.356 . S
C912 O942 1.325 . S
N913 C916 1.314 1_455 S
N913 C917 1.279 . S
C914 C912 1.348 1_655 S
C914 C916 1.353 . S
C914 H956 0.929 . S
C915 C912 1.356 . S
C915 C917 1.358 . S
C915 H957 0.930 . S
C916 N913 1.314 1_655 S
C916 C914 1.353 . S
C916 H958 0.930 . S
C917 N913 1.279 . S
C917 C915 1.358 . S
C917 H959 0.930 . S
C918 C919 1.348 . S
C918 C920 1.356 . S
C918 O943 1.325 . S
C919 C918 1.348 . S
C919 C921 1.353 . S
C919 H960 0.929 . S
C920 C918 1.356 . S
C920 C922 1.358 . S
C920 H961 0.930 . S
C921 C919 1.353 . S
C921 N923 1.314 . S
C921 H962 0.930 . S
C922 C920 1.358 . S
C922 N923 1.279 . S
C922 H963 0.930 . S
N923 C921 1.314 . S
N923 C922 1.279 . S
C924 C926 1.353 . S
C924 N927 1.314 . S
C924 H930 0.930 . S
C925 N927 1.279 . S
C925 C928 1.358 . S
C925 H931 0.930 . S
C926 C924 1.353 . S
C926 C929 1.348 . S
C926 H964 0.929 . S
N927 Li882 1.990 . S
N927 C924 1.314 . S
N927 C925 1.279 . S
C928 C925 1.358 . S
C928 C929 1.356 . S
C928 H965 0.930 . S
C929 C926 1.348 . S
C929 C928 1.356 . S
H930 C924 0.930 . S
H931 C925 0.930 . S
C932 N933 1.314 . S
C932 C934 1.353 . S
C932 H938 0.930 . S
N933 Li883 1.990 . S
N933 C932 1.314 . S
N933 C936 1.279 . S
C934 C932 1.353 . S
C934 C937 1.348 . S
C934 H966 0.929 . S
C935 C936 1.358 . S
C935 C937 1.356 . S
C935 H967 0.930 . S
C936 N933 1.279 . S
C936 C935 1.358 . S
C936 H939 0.930 . S
C937 C934 1.348 . S
C937 C935 1.356 . S
H938 C932 0.930 . S
H939 C936 0.930 . S
O940 Li880 1.956 . S
O940 Li881 1.970 . S
O940 Li882 1.961 . S
O940 C884 1.325 . S
O941 Li880 1.970 . S
O941 Li881 1.956 . S
O941 Li883 1.961 1_455 S
O941 C890 1.325 . S
O942 Li880 1.961 . S
O942 Li882 1.956 . S
O942 Li883 1.970 1_455 S
O942 C912 1.325 . S
O943 Li881 1.961 1_655 S
O943 Li882 1.970 1_655 S
O943 Li883 1.956 . S
O943 C918 1.325 . S
H944 C886 0.929 . S
H945 C887 0.930 . S
H946 C888 0.930 . S
H947 C889 0.930 . S
H948 C891 0.930 . S
H949 C893 0.929 . S
H950 C894 0.930 . S
H951 C895 0.930 . S
H952 C898 0.930 . S
H953 C901 0.929 . S
H954 C906 0.929 . S
H955 C907 0.930 . S
H956 C914 0.929 . S
H957 C915 0.930 . S
H958 C916 0.930 . S
H959 C917 0.930 . S
H960 C919 0.929 . S
H961 C920 0.930 . S
H962 C921 0.930 . S
H963 C922 0.930 . S
H964 C926 0.929 . S
H965 C928 0.930 . S
H966 C934 0.929 . S
H967 C935 0.930 . S
Li968 N985 1.990 . S
Li968 O1028 1.956 . S
Li968 O1029 1.970 . S
Li968 O1030 1.961 . S
Li969 N993 1.990 . S
Li969 O1028 1.970 . S
Li969 O1029 1.956 . S
Li969 O1031 1.961 . S
Li970 N1015 1.990 . S
Li970 O1028 1.961 . S
Li970 O1030 1.956 . S
Li970 O1031 1.970 . S
Li971 N1021 1.990 . S
Li971 O1029 1.961 . S
Li971 O1030 1.970 . S
Li971 O1031 1.956 . S
C972 C974 1.348 . S
C972 C975 1.356 . S
C972 O1028 1.325 . S
N973 C976 1.314 . S
N973 C977 1.279 . S
C974 C972 1.348 . S
C974 C976 1.353 . S
C974 H1032 0.929 . S
C975 C972 1.356 . S
C975 C977 1.358 . S
C975 H1033 0.930 . S
C976 N973 1.314 . S
C976 C974 1.353 . S
C976 H1034 0.930 . S
C977 N973 1.279 . S
C977 C975 1.358 . S
C977 H1035 0.930 . S
C978 C981 1.348 . S
C978 C982 1.356 . S
C978 O1029 1.325 . S
C979 N980 1.279 . S
C979 C982 1.358 . S
C979 H1036 0.930 . S
N980 C979 1.279 . S
N980 C983 1.314 . S
C981 C978 1.348 . S
C981 C983 1.353 . S
C981 H1037 0.929 . S
C982 C978 1.356 . S
C982 C979 1.358 . S
C982 H1038 0.930 . S
C983 N980 1.314 . S
C983 C981 1.353 . S
C983 H1039 0.930 . S
C984 N985 1.314 . S
C984 C989 1.353 . S
C984 H990 0.930 . S
N985 Li968 1.990 . S
N985 C984 1.314 . S
N985 C987 1.279 . S
C986 C987 1.358 . S
C986 C988 1.356 . S
C986 H1040 0.930 . S
C987 N985 1.279 . S
C987 C986 1.358 . S
C987 H991 0.930 . S
C988 C986 1.356 . S
C988 C989 1.348 . S
C989 C984 1.353 . S
C989 C988 1.348 . S
C989 H1041 0.929 . S
H990 C984 0.930 . S
H991 C987 0.930 . S
C992 N993 1.314 . S
C992 C994 1.353 . S
C992 H998 0.930 . S
N993 Li969 1.990 . S
N993 C992 1.314 . S
N993 C996 1.279 . S
C994 C992 1.353 . S
C994 C997 1.348 . S
C994 H1042 0.929 . S
C995 C996 1.358 . S
C995 C997 1.356 . S
C995 H1043 0.930 . S
C996 N993 1.279 . S
C996 C995 1.358 . S
C996 H999 0.930 . S
C997 C994 1.348 . S
C997 C995 1.356 . S
H998 C992 0.930 . S
H999 C996 0.930 . S
C1000 C1002 1.348 . S
C1000 C1003 1.356 . S
C1000 O1030 1.325 . S
N1001 C1004 1.314 . S
N1001 C1005 1.279 . S
C1002 C1000 1.348 . S
C1002 C1004 1.353 . S
C1002 H1044 0.929 . S
C1003 C1000 1.356 . S
C1003 C1005 1.358 . S
C1003 H1045 0.930 . S
C1004 N1001 1.314 . S
C1004 C1002 1.353 . S
C1004 H1046 0.930 . S
C1005 N1001 1.279 . S
C1005 C1003 1.358 . S
C1005 H1047 0.930 . S
C1006 C1007 1.348 . S
C1006 C1008 1.356 . S
C1006 O1031 1.325 . S
C1007 C1006 1.348 . S
C1007 C1009 1.353 . S
C1007 H1048 0.929 . S
C1008 C1006 1.356 . S
C1008 C1010 1.358 . S
C1008 H1049 0.930 . S
C1009 C1007 1.353 . S
C1009 N1011 1.314 . S
C1009 H1050 0.930 . S
C1010 C1008 1.358 . S
C1010 N1011 1.279 . S
C1010 H1051 0.930 . S
N1011 C1009 1.314 . S
N1011 C1010 1.279 . S
C1012 C1014 1.353 . S
C1012 N1015 1.314 . S
C1012 H1018 0.930 . S
C1013 N1015 1.279 . S
C1013 C1016 1.358 . S
C1013 H1019 0.930 . S
C1014 C1012 1.353 . S
C1014 C1017 1.348 . S
C1014 H1052 0.929 . S
N1015 Li970 1.990 . S
N1015 C1012 1.314 . S
N1015 C1013 1.279 . S
C1016 C1013 1.358 . S
C1016 C1017 1.356 . S
C1016 H1053 0.930 . S
C1017 C1014 1.348 . S
C1017 C1016 1.356 . S
H1018 C1012 0.930 . S
H1019 C1013 0.930 . S
C1020 N1021 1.314 . S
C1020 C1022 1.353 . S
C1020 H1026 0.930 . S
N1021 Li971 1.990 . S
N1021 C1020 1.314 . S
N1021 C1024 1.279 . S
C1022 C1020 1.353 . S
C1022 C1025 1.348 . S
C1022 H1054 0.929 . S
C1023 C1024 1.358 . S
C1023 C1025 1.356 . S
C1023 H1055 0.930 . S
C1024 N1021 1.279 . S
C1024 C1023 1.358 . S
C1024 H1027 0.930 . S
C1025 C1022 1.348 . S
C1025 C1023 1.356 . S
H1026 C1020 0.930 . S
H1027 C1024 0.930 . S
O1028 Li968 1.956 . S
O1028 Li969 1.970 . S
O1028 Li970 1.961 . S
O1028 C972 1.325 . S
O1029 Li968 1.970 . S
O1029 Li969 1.956 . S
O1029 Li971 1.961 . S
O1029 C978 1.325 . S
O1030 Li968 1.961 . S
O1030 Li970 1.956 . S
O1030 Li971 1.970 . S
O1030 C1000 1.325 . S
O1031 Li969 1.961 . S
O1031 Li970 1.970 . S
O1031 Li971 1.956 . S
O1031 C1006 1.325 . S
H1032 C974 0.929 . S
H1033 C975 0.930 . S
H1034 C976 0.930 . S
H1035 C977 0.930 . S
H1036 C979 0.930 . S
H1037 C981 0.929 . S
H1038 C982 0.930 . S
H1039 C983 0.930 . S
H1040 C986 0.930 . S
H1041 C989 0.929 . S
H1042 C994 0.929 . S
H1043 C995 0.930 . S
H1044 C1002 0.929 . S
H1045 C1003 0.930 . S
H1046 C1004 0.930 . S
H1047 C1005 0.930 . S
H1048 C1007 0.929 . S
H1049 C1008 0.930 . S
H1050 C1009 0.930 . S
H1051 C1010 0.930 . S
H1052 C1014 0.929 . S
H1053 C1016 0.930 . S
H1054 C1022 0.929 . S
H1055 C1023 0.930 . S
Li1056 N1073 1.990 . S
Li1056 O1116 1.956 . S
Li1056 O1117 1.970 . S
Li1056 O1118 1.961 . S
Li1057 N1081 1.990 1_455 S
Li1057 O1116 1.970 . S
Li1057 O1117 1.956 . S
Li1057 O1119 1.961 . S
Li1058 N1103 1.990 . S
Li1058 O1116 1.961 . S
Li1058 O1118 1.956 . S
Li1058 O1119 1.970 . S
Li1059 N1109 1.990 . S
Li1059 O1117 1.961 . S
Li1059 O1118 1.970 . S
Li1059 O1119 1.956 . S
C1060 C1062 1.348 . S
C1060 C1063 1.356 . S
C1060 O1116 1.325 . S
N1061 C1064 1.314 . S
N1061 C1065 1.279 . S
C1062 C1060 1.348 . S
C1062 C1064 1.353 . S
C1062 H1120 0.929 . S
C1063 C1060 1.356 . S
C1063 C1065 1.358 . S
C1063 H1121 0.930 . S
C1064 N1061 1.314 . S
C1064 C1062 1.353 . S
C1064 H1122 0.930 . S
C1065 N1061 1.279 . S
C1065 C1063 1.358 . S
C1065 H1123 0.930 . S
C1066 C1069 1.348 . S
C1066 C1070 1.356 . S
C1066 O1117 1.325 1_655 S
C1067 N1068 1.279 . S
C1067 C1070 1.358 . S
C1067 H1124 0.930 . S
N1068 C1067 1.279 . S
N1068 C1071 1.314 . S
C1069 C1066 1.348 . S
C1069 C1071 1.353 . S
C1069 H1125 0.929 . S
C1070 C1066 1.356 . S
C1070 C1067 1.358 . S
C1070 H1126 0.930 . S
C1071 N1068 1.314 . S
C1071 C1069 1.353 . S
C1071 H1127 0.930 . S
C1072 N1073 1.314 . S
C1072 C1077 1.353 . S
C1072 H1078 0.930 . S
N1073 Li1056 1.990 . S
N1073 C1072 1.314 . S
N1073 C1075 1.279 . S
C1074 C1075 1.358 . S
C1074 C1076 1.356 . S
C1074 H1128 0.930 . S
C1075 N1073 1.279 . S
C1075 C1074 1.358 . S
C1075 H1079 0.930 . S
C1076 C1074 1.356 . S
C1076 C1077 1.348 . S
C1077 C1072 1.353 . S
C1077 C1076 1.348 . S
C1077 H1129 0.929 . S
H1078 C1072 0.930 . S
H1079 C1075 0.930 . S
C1080 N1081 1.314 . S
C1080 C1082 1.353 . S
C1080 H1086 0.930 . S
N1081 Li1057 1.990 1_655 S
N1081 C1080 1.314 . S
N1081 C1084 1.279 . S
C1082 C1080 1.353 . S
C1082 C1085 1.348 . S
C1082 H1130 0.929 . S
C1083 C1084 1.358 . S
C1083 C1085 1.356 . S
C1083 H1131 0.930 . S
C1084 N1081 1.279 . S
C1084 C1083 1.358 . S
C1084 H1087 0.930 . S
C1085 C1082 1.348 . S
C1085 C1083 1.356 . S
H1086 C1080 0.930 . S
H1087 C1084 0.930 . S
C1088 C1090 1.348 . S
C1088 C1091 1.356 . S
C1088 O1118 1.325 . S
N1089 C1092 1.314 . S
N1089 C1093 1.279 . S
C1090 C1088 1.348 . S
C1090 C1092 1.353 . S
C1090 H1132 0.929 . S
C1091 C1088 1.356 . S
C1091 C1093 1.358 . S
C1091 H1133 0.930 . S
C1092 N1089 1.314 . S
C1092 C1090 1.353 . S
C1092 H1134 0.930 . S
C1093 N1089 1.279 . S
C1093 C1091 1.358 . S
C1093 H1135 0.930 . S
C1094 C1095 1.348 . S
C1094 C1096 1.351 . S
C1094 O1119 1.325 . S
C1095 C1094 1.348 . S
C1095 C1097 1.353 . S
C1095 H1136 0.929 . S
C1096 C1094 1.351 . S
C1096 C1098 1.359 1_455 S
C1096 H1137 0.934 1_455 S
C1097 C1095 1.353 . S
C1097 N1099 1.314 . S
C1097 H1138 0.930 . S
C1098 C1096 1.359 1_655 S
C1098 N1099 1.279 1_655 S
C1098 H1139 0.930 . S
N1099 C1097 1.314 . S
N1099 C1098 1.279 1_455 S
C1100 C1102 1.353 . S
C1100 N1103 1.314 . S
C1100 H1106 0.930 . S
C1101 N1103 1.279 . S
C1101 C1104 1.358 . S
C1101 H1107 0.930 . S
C1102 C1100 1.353 . S
C1102 C1105 1.348 . S
C1102 H1140 0.929 . S
N1103 Li1058 1.990 . S
N1103 C1100 1.314 . S
N1103 C1101 1.279 . S
C1104 C1101 1.358 . S
C1104 C1105 1.356 . S
C1104 H1141 0.930 . S
C1105 C1102 1.348 . S
C1105 C1104 1.356 . S
H1106 C1100 0.930 . S
H1107 C1101 0.930 . S
C1108 N1109 1.314 . S
C1108 C1110 1.353 . S
C1108 H1114 0.930 . S
N1109 Li1059 1.990 . S
N1109 C1108 1.314 . S
N1109 C1112 1.279 . S
C1110 C1108 1.353 . S
C1110 C1113 1.348 . S
C1110 H1142 0.929 1_455 S
C1111 C1112 1.358 . S
C1111 C1113 1.356 . S
C1111 H1143 0.930 . S
C1112 N1109 1.279 . S
C1112 C1111 1.358 . S
C1112 H1115 0.930 . S
C1113 C1110 1.348 . S
C1113 C1111 1.356 . S
H1114 C1108 0.930 . S
H1115 C1112 0.930 . S
O1116 Li1056 1.956 . S
O1116 Li1057 1.970 . S
O1116 Li1058 1.961 . S
O1116 C1060 1.325 . S
O1117 Li1056 1.970 . S
O1117 Li1057 1.956 . S
O1117 Li1059 1.961 . S
O1117 C1066 1.325 1_455 S
O1118 Li1056 1.961 . S
O1118 Li1058 1.956 . S
O1118 Li1059 1.970 . S
O1118 C1088 1.325 . S
O1119 Li1057 1.961 . S
O1119 Li1058 1.970 . S
O1119 Li1059 1.956 . S
O1119 C1094 1.325 . S
H1120 C1062 0.929 . S
H1121 C1063 0.930 . S
H1122 C1064 0.930 . S
H1123 C1065 0.930 . S
H1124 C1067 0.930 . S
H1125 C1069 0.929 . S
H1126 C1070 0.930 . S
H1127 C1071 0.930 . S
H1128 C1074 0.930 . S
H1129 C1077 0.929 . S
H1130 C1082 0.929 . S
H1131 C1083 0.930 . S
H1132 C1090 0.929 . S
H1133 C1091 0.930 . S
H1134 C1092 0.930 . S
H1135 C1093 0.930 . S
H1136 C1095 0.929 . S
H1137 C1096 0.934 1_655 S
H1138 C1097 0.930 . S
H1139 C1098 0.930 . S
H1140 C1102 0.929 . S
H1141 C1104 0.930 . S
H1142 C1110 0.929 1_655 S
H1143 C1111 0.930 . S
Li1144 N1161 1.990 . S
Li1144 O1204 1.956 . S
Li1144 O1205 1.970 . S
Li1144 O1206 1.961 . S
Li1145 N1169 1.990 . S
Li1145 O1204 1.970 . S
Li1145 O1205 1.956 . S
Li1145 O1207 1.961 . S
Li1146 N1191 1.990 . S
Li1146 O1204 1.961 . S
Li1146 O1206 1.956 . S
Li1146 O1207 1.970 . S
Li1147 N1197 1.990 . S
Li1147 O1205 1.961 . S
Li1147 O1206 1.970 . S
Li1147 O1207 1.956 . S
C1148 C1150 1.348 . S
C1148 C1151 1.356 . S
C1148 O1204 1.325 . S
N1149 C1152 1.314 . S
N1149 C1153 1.279 . S
C1150 C1148 1.348 . S
C1150 C1152 1.353 . S
C1150 H1208 0.929 . S
C1151 C1148 1.356 . S
C1151 C1153 1.358 . S
C1151 H1209 0.930 . S
C1152 N1149 1.314 . S
C1152 C1150 1.353 . S
C1152 H1210 0.930 . S
C1153 N1149 1.279 . S
C1153 C1151 1.358 . S
C1153 H1211 0.930 . S
C1154 C1157 1.348 . S
C1154 C1158 1.356 . S
C1154 O1205 1.325 . S
C1155 N1156 1.279 . S
C1155 C1158 1.358 . S
C1155 H1212 0.930 . S
N1156 C1155 1.279 . S
N1156 C1159 1.314 . S
C1157 C1154 1.348 . S
C1157 C1159 1.353 . S
C1157 H1213 0.929 . S
C1158 C1154 1.356 . S
C1158 C1155 1.358 . S
C1158 H1214 0.930 . S
C1159 N1156 1.314 . S
C1159 C1157 1.353 . S
C1159 H1215 0.930 . S
C1160 N1161 1.314 . S
C1160 C1165 1.353 . S
C1160 H1166 0.930 . S
N1161 Li1144 1.990 . S
N1161 C1160 1.314 . S
N1161 C1163 1.279 . S
C1162 C1163 1.358 . S
C1162 C1164 1.356 . S
C1162 H1216 0.930 . S
C1163 N1161 1.279 . S
C1163 C1162 1.358 . S
C1163 H1167 0.930 . S
C1164 C1162 1.356 . S
C1164 C1165 1.348 . S
C1165 C1160 1.353 . S
C1165 C1164 1.348 . S
C1165 H1217 0.929 . S
H1166 C1160 0.930 . S
H1167 C1163 0.930 . S
C1168 N1169 1.314 . S
C1168 C1170 1.353 . S
C1168 H1174 0.930 . S
N1169 Li1145 1.990 . S
N1169 C1168 1.314 . S
N1169 C1172 1.279 . S
C1170 C1168 1.353 . S
C1170 C1173 1.348 . S
C1170 H1218 0.929 . S
C1171 C1172 1.358 . S
C1171 C1173 1.356 . S
C1171 H1219 0.930 . S
C1172 N1169 1.279 . S
C1172 C1171 1.358 . S
C1172 H1175 0.930 . S
C1173 C1170 1.348 . S
C1173 C1171 1.356 . S
H1174 C1168 0.930 . S
H1175 C1172 0.930 . S
C1176 C1178 1.348 . S
C1176 C1179 1.356 . S
C1176 O1206 1.325 . S
N1177 C1180 1.314 . S
N1177 C1181 1.279 . S
C1178 C1176 1.348 . S
C1178 C1180 1.353 . S
C1178 H1220 0.929 . S
C1179 C1176 1.356 . S
C1179 C1181 1.358 . S
C1179 H1221 0.930 . S
C1180 N1177 1.314 . S
C1180 C1178 1.353 . S
C1180 H1222 0.930 . S
C1181 N1177 1.279 . S
C1181 C1179 1.358 . S
C1181 H1223 0.930 . S
C1182 C1183 1.348 . S
C1182 C1184 1.356 . S
C1182 O1207 1.325 . S
C1183 C1182 1.348 . S
C1183 C1185 1.353 . S
C1183 H1224 0.929 . S
C1184 C1182 1.356 . S
C1184 C1186 1.358 . S
C1184 H1225 0.930 . S
C1185 C1183 1.353 . S
C1185 N1187 1.314 . S
C1185 H1226 0.930 . S
C1186 C1184 1.358 . S
C1186 N1187 1.279 . S
C1186 H1227 0.930 . S
N1187 C1185 1.314 . S
N1187 C1186 1.279 . S
C1188 C1190 1.353 . S
C1188 N1191 1.314 . S
C1188 H1194 0.930 . S
C1189 N1191 1.279 . S
C1189 C1192 1.358 . S
C1189 H1195 0.930 . S
C1190 C1188 1.353 . S
C1190 C1193 1.348 . S
C1190 H1228 0.929 . S
N1191 Li1146 1.990 . S
N1191 C1188 1.314 . S
N1191 C1189 1.279 . S
C1192 C1189 1.358 . S
C1192 C1193 1.356 . S
C1192 H1229 0.930 . S
C1193 C1190 1.348 . S
C1193 C1192 1.356 . S
H1194 C1188 0.930 . S
H1195 C1189 0.930 . S
C1196 N1197 1.314 . S
C1196 C1198 1.353 . S
C1196 H1202 0.930 . S
N1197 Li1147 1.990 . S
N1197 C1196 1.314 . S
N1197 C1200 1.279 . S
C1198 C1196 1.353 . S
C1198 C1201 1.348 . S
C1198 H1230 0.929 . S
C1199 C1200 1.358 . S
C1199 C1201 1.356 . S
C1199 H1231 0.930 . S
C1200 N1197 1.279 . S
C1200 C1199 1.358 . S
C1200 H1203 0.930 . S
C1201 C1198 1.348 . S
C1201 C1199 1.356 . S
H1202 C1196 0.930 . S
H1203 C1200 0.930 . S
O1204 Li1144 1.956 . S
O1204 Li1145 1.970 . S
O1204 Li1146 1.961 . S
O1204 C1148 1.325 . S
O1205 Li1144 1.970 . S
O1205 Li1145 1.956 . S
O1205 Li1147 1.961 . S
O1205 C1154 1.325 . S
O1206 Li1144 1.961 . S
O1206 Li1146 1.956 . S
O1206 Li1147 1.970 . S
O1206 C1176 1.325 . S
O1207 Li1145 1.961 . S
O1207 Li1146 1.970 . S
O1207 Li1147 1.956 . S
O1207 C1182 1.325 . S
H1208 C1150 0.929 . S
H1209 C1151 0.930 . S
H1210 C1152 0.930 . S
H1211 C1153 0.930 . S
H1212 C1155 0.930 . S
H1213 C1157 0.929 . S
H1214 C1158 0.930 . S
H1215 C1159 0.930 . S
H1216 C1162 0.930 . S
H1217 C1165 0.929 . S
H1218 C1170 0.929 . S
H1219 C1171 0.930 . S
H1220 C1178 0.929 . S
H1221 C1179 0.930 . S
H1222 C1180 0.930 . S
H1223 C1181 0.930 . S
H1224 C1183 0.929 . S
H1225 C1184 0.930 . S
H1226 C1185 0.930 . S
H1227 C1186 0.930 . S
H1228 C1190 0.929 . S
H1229 C1192 0.930 . S
H1230 C1198 0.929 . S
H1231 C1199 0.930 . S
C1232 C1233 1.391 . S
C1232 C1234 1.394 . S
C1232 H1248 0.931 . S
C1233 C1232 1.391 . S
C1233 C1237 1.376 . S
C1234 C1232 1.394 . S
C1234 C1235 1.369 . S
C1234 C1238 1.531 . S
C1235 C1234 1.369 . S
C1235 C1236 1.410 . S
C1235 C1243 1.503 . S
C1236 C1235 1.410 . S
C1236 C1237 1.392 . S
C1236 C1239 1.511 . S
C1237 C1233 1.376 . S
C1237 C1236 1.392 . S
C1237 H1249 0.929 . S
C1238 C1234 1.531 . S
C1238 H1250 0.960 . S
C1238 H1251 0.962 . S
C1238 H1252 0.960 . S
C1239 C1236 1.511 . S
C1239 H1253 0.961 . S
C1239 H1254 0.961 . S
C1239 H1255 0.961 . S
C1240 C1241 1.370 . S
C1240 C1242 1.363 . S
C1240 H1256 0.931 . S
C1241 C1240 1.370 . S
C1241 C1245 1.408 . S
C1242 C1240 1.363 . S
C1242 C1243 1.370 . S
C1242 C1246 1.524 . S
C1243 C1235 1.503 . S
C1243 C1242 1.370 . S
C1243 C1244 1.403 . S
C1244 C1243 1.403 . S
C1244 C1245 1.404 . S
C1244 C1247 1.539 . S
C1245 C1241 1.408 . S
C1245 C1244 1.404 . S
C1245 H1257 0.930 . S
C1246 C1242 1.524 . S
C1246 H1258 0.956 . S
C1246 H1259 0.961 . S
C1246 H1260 0.961 . S
C1247 C1244 1.539 . S
C1247 H1261 0.958 . S
C1247 H1262 0.961 . S
C1247 H1263 0.960 . S
H1248 C1232 0.931 . S
H1249 C1237 0.929 . S
H1250 C1238 0.960 . S
H1251 C1238 0.962 . S
H1252 C1238 0.960 . S
H1253 C1239 0.961 . S
H1254 C1239 0.961 . S
H1255 C1239 0.961 . S
H1256 C1240 0.931 . S
H1257 C1245 0.930 . S
H1258 C1246 0.956 . S
H1259 C1246 0.961 . S
H1260 C1246 0.961 . S
H1261 C1247 0.958 . S
H1262 C1247 0.961 . S
H1263 C1247 0.960 . S
C1264 C1265 1.391 . S
C1264 C1266 1.394 . S
C1264 H1280 0.897 1_455 S
C1265 C1264 1.391 . S
C1265 C1269 1.376 . S
C1266 C1264 1.394 . S
C1266 C1267 1.369 . S
C1266 C1270 1.531 . S
C1267 C1266 1.369 . S
C1267 C1268 1.410 . S
C1267 C1275 1.503 . S
C1268 C1267 1.410 . S
C1268 C1269 1.392 . S
C1268 C1271 1.511 . S
C1269 C1265 1.376 . S
C1269 C1268 1.392 . S
C1269 H1281 0.929 . S
C1270 C1266 1.531 . S
C1270 H1282 0.960 . S
C1270 H1283 0.962 . S
C1270 H1284 0.960 . S
C1271 C1268 1.511 . S
C1271 H1285 0.961 . S
C1271 H1286 0.961 . S
C1271 H1287 0.961 . S
C1272 C1273 1.370 . S
C1272 C1274 1.363 . S
C1272 H1288 0.931 . S
C1273 C1272 1.370 . S
C1273 C1277 1.408 . S
C1274 C1272 1.363 . S
C1274 C1275 1.370 . S
C1274 C1278 1.524 . S
C1275 C1267 1.503 . S
C1275 C1274 1.370 . S
C1275 C1276 1.403 . S
C1276 C1275 1.403 . S
C1276 C1277 1.404 . S
C1276 C1279 1.539 . S
C1277 C1273 1.408 . S
C1277 C1276 1.404 . S
C1277 H1289 0.930 . S
C1278 C1274 1.524 . S
C1278 H1290 0.956 . S
C1278 H1291 0.961 . S
C1278 H1292 0.961 . S
C1279 C1276 1.539 . S
C1279 H1293 0.958 . S
C1279 H1294 0.961 . S
C1279 H1295 0.960 . S
H1280 C1264 0.897 1_655 S
H1281 C1269 0.929 . S
H1282 C1270 0.960 . S
H1283 C1270 0.962 . S
H1284 C1270 0.960 . S
H1285 C1271 0.961 . S
H1286 C1271 0.961 . S
H1287 C1271 0.961 . S
H1288 C1272 0.931 . S
H1289 C1277 0.930 . S
H1290 C1278 0.956 . S
H1291 C1278 0.961 . S
H1292 C1278 0.961 . S
H1293 C1279 0.958 . S
H1294 C1279 0.961 . S
H1295 C1279 0.960 . S
C1296 C1297 1.391 . S
C1296 C1298 1.394 . S
C1296 H1312 0.931 . S
C1297 C1296 1.391 . S
C1297 C1301 1.376 . S
C1298 C1296 1.394 . S
C1298 C1299 1.369 . S
C1298 C1302 1.531 . S
C1299 C1298 1.369 . S
C1299 C1300 1.410 . S
C1299 C1307 1.503 . S
C1300 C1299 1.410 . S
C1300 C1301 1.392 . S
C1300 C1303 1.511 . S
C1301 C1297 1.376 . S
C1301 C1300 1.392 . S
C1301 H1313 0.929 . S
C1302 C1298 1.531 . S
C1302 H1314 0.960 . S
C1302 H1315 0.962 . S
C1302 H1316 0.960 . S
C1303 C1300 1.511 . S
C1303 H1317 0.961 . S
C1303 H1318 0.961 . S
C1303 H1319 0.961 . S
C1304 C1305 1.370 . S
C1304 C1306 1.363 . S
C1304 H1320 0.931 . S
C1305 C1304 1.370 . S
C1305 C1309 1.408 . S
C1306 C1304 1.363 . S
C1306 C1307 1.370 . S
C1306 C1310 1.524 . S
C1307 C1299 1.503 . S
C1307 C1306 1.370 . S
C1307 C1308 1.403 . S
C1308 C1307 1.403 . S
C1308 C1309 1.404 . S
C1308 C1311 1.539 . S
C1309 C1305 1.408 . S
C1309 C1308 1.404 . S
C1309 H1321 0.930 . S
C1310 C1306 1.524 . S
C1310 H1322 0.956 . S
C1310 H1323 0.961 . S
C1310 H1324 0.961 . S
C1311 C1308 1.539 . S
C1311 H1325 0.958 . S
C1311 H1326 0.961 . S
C1311 H1327 0.960 . S
H1312 C1296 0.931 . S
H1313 C1301 0.929 . S
H1314 C1302 0.960 . S
H1315 C1302 0.962 . S
H1316 C1302 0.960 . S
H1317 C1303 0.961 . S
H1318 C1303 0.961 . S
H1319 C1303 0.961 . S
H1320 C1304 0.931 . S
H1321 C1309 0.930 . S
H1322 C1310 0.956 . S
H1323 C1310 0.961 . S
H1324 C1310 0.961 . S
H1325 C1311 0.958 . S
H1326 C1311 0.961 . S
H1327 C1311 0.960 . S
C1328 C1329 1.391 1_645 S
C1328 C1330 1.394 . S
C1328 H1344 0.931 . S
C1329 C1328 1.391 1_465 S
C1329 C1333 1.376 . S
C1330 C1328 1.394 . S
C1330 C1331 1.369 . S
C1330 C1334 1.531 . S
C1331 C1330 1.369 . S
C1331 C1332 1.410 1_545 S
C1331 C1339 1.503 . S
C1332 C1331 1.410 1_565 S
C1332 C1333 1.392 1_655 S
C1332 C1335 1.510 . S
C1333 C1329 1.376 . S
C1333 C1332 1.392 1_455 S
C1333 H1345 0.929 . S
C1334 C1330 1.531 . S
C1334 H1346 0.960 . S
C1334 H1347 0.962 . S
C1334 H1348 0.960 . S
C1335 C1332 1.510 . S
C1335 H1349 0.964 1_655 S
C1335 H1350 0.956 . S
C1335 H1351 0.964 1_655 S
C1336 C1337 1.370 1_565 S
C1336 C1338 1.363 . S
C1336 H1352 0.931 . S
C1337 C1336 1.370 1_545 S
C1337 C1341 1.408 . S
C1338 C1336 1.363 . S
C1338 C1339 1.370 1_565 S
C1338 C1342 1.524 . S
C1339 C1331 1.503 . S
C1339 C1338 1.370 1_545 S
C1339 C1340 1.403 . S
C1340 C1339 1.403 . S
C1340 C1341 1.404 . S
C1340 C1343 1.539 . S
C1341 C1337 1.408 . S
C1341 C1340 1.404 . S
C1341 H1353 0.930 . S
C1342 C1338 1.524 . S
C1342 H1354 0.956 . S
C1342 H1355 0.961 . S
C1342 H1356 0.961 . S
C1343 C1340 1.539 . S
C1343 H1357 0.958 . S
C1343 H1358 0.961 . S
C1343 H1359 0.945 1_655 S
H1344 C1328 0.931 . S
H1345 C1333 0.929 . S
H1346 C1334 0.960 . S
H1347 C1334 0.962 . S
H1348 C1334 0.960 . S
H1349 C1335 0.964 1_455 S
H1350 C1335 0.956 . S
H1351 C1335 0.964 1_455 S
H1352 C1336 0.931 . S
H1353 C1341 0.930 . S
H1354 C1342 0.956 . S
H1355 C1342 0.961 . S
H1356 C1342 0.961 . S
H1357 C1343 0.958 . S
H1358 C1343 0.961 . S
H1359 C1343 0.945 1_455 S
C1360 C1361 1.391 . S
C1360 C1362 1.394 . S
C1360 H1376 0.931 . S
C1361 C1360 1.391 . S
C1361 C1365 1.376 . S
C1362 C1360 1.394 . S
C1362 C1363 1.369 . S
C1362 C1366 1.531 . S
C1363 C1362 1.369 . S
C1363 C1364 1.410 . S
C1363 C1371 1.503 . S
C1364 C1363 1.410 . S
C1364 C1365 1.392 . S
C1364 C1367 1.511 . S
C1365 C1361 1.376 . S
C1365 C1364 1.392 . S
C1365 H1377 0.929 . S
C1366 C1362 1.531 . S
C1366 H1378 0.960 . S
C1366 H1379 0.962 . S
C1366 H1380 0.960 . S
C1367 C1364 1.511 . S
C1367 H1381 0.961 . S
C1367 H1382 0.961 . S
C1367 H1383 0.961 . S
C1368 C1369 1.370 . S
C1368 C1370 1.363 . S
C1368 H1384 0.931 . S
C1369 C1368 1.370 . S
C1369 C1373 1.408 . S
C1370 C1368 1.363 . S
C1370 C1371 1.370 . S
C1370 C1374 1.524 . S
C1371 C1363 1.503 . S
C1371 C1370 1.370 . S
C1371 C1372 1.403 . S
C1372 C1371 1.403 . S
C1372 C1373 1.404 . S
C1372 C1375 1.539 . S
C1373 C1369 1.408 . S
C1373 C1372 1.404 . S
C1373 H1385 0.930 . S
C1374 C1370 1.524 . S
C1374 H1386 0.956 . S
C1374 H1387 0.961 . S
C1374 H1388 0.961 . S
C1375 C1372 1.539 . S
C1375 H1389 0.958 . S
C1375 H1390 0.961 . S
C1375 H1391 0.960 . S
H1376 C1360 0.931 . S
H1377 C1365 0.929 . S
H1378 C1366 0.960 . S
H1379 C1366 0.962 . S
H1380 C1366 0.960 . S
H1381 C1367 0.961 . S
H1382 C1367 0.961 . S
H1383 C1367 0.961 . S
H1384 C1368 0.931 . S
H1385 C1373 0.930 . S
H1386 C1374 0.956 . S
H1387 C1374 0.961 . S
H1388 C1374 0.961 . S
H1389 C1375 0.958 . S
H1390 C1375 0.961 . S
H1391 C1375 0.960 . S
C1392 C1393 1.391 . S
C1392 C1394 1.394 . S
C1392 H1408 0.931 . S
C1393 C1392 1.391 . S
C1393 C1397 1.376 . S
C1394 C1392 1.394 . S
C1394 C1395 1.369 . S
C1394 C1398 1.531 . S
C1395 C1394 1.369 . S
C1395 C1396 1.410 . S
C1395 C1403 1.503 . S
C1396 C1395 1.410 . S
C1396 C1397 1.392 . S
C1396 C1399 1.511 . S
C1397 C1393 1.376 . S
C1397 C1396 1.392 . S
C1397 H1409 0.929 . S
C1398 C1394 1.531 . S
C1398 H1410 0.960 . S
C1398 H1411 0.962 . S
C1398 H1412 0.960 . S
C1399 C1396 1.511 . S
C1399 H1413 0.961 . S
C1399 H1414 0.961 . S
C1399 H1415 0.961 . S
C1400 C1401 1.370 . S
C1400 C1402 1.363 . S
C1400 H1416 0.931 . S
C1401 C1400 1.370 . S
C1401 C1405 1.408 . S
C1402 C1400 1.363 . S
C1402 C1403 1.370 . S
C1402 C1406 1.524 . S
C1403 C1395 1.503 . S
C1403 C1402 1.370 . S
C1403 C1404 1.403 . S
C1404 C1403 1.403 . S
C1404 C1405 1.404 . S
C1404 C1407 1.539 . S
C1405 C1401 1.408 . S
C1405 C1404 1.404 . S
C1405 H1417 0.930 . S
C1406 C1402 1.524 . S
C1406 H1418 0.956 . S
C1406 H1419 0.961 . S
C1406 H1420 0.961 . S
C1407 C1404 1.539 . S
C1407 H1421 0.958 . S
C1407 H1422 0.961 . S
C1407 H1423 0.960 . S
H1408 C1392 0.931 . S
H1409 C1397 0.929 . S
H1410 C1398 0.960 . S
H1411 C1398 0.962 . S
H1412 C1398 0.960 . S
H1413 C1399 0.961 . S
H1414 C1399 0.961 . S
H1415 C1399 0.961 . S
H1416 C1400 0.931 . S
H1417 C1405 0.930 . S
H1418 C1406 0.956 . S
H1419 C1406 0.961 . S
H1420 C1406 0.961 . S
H1421 C1407 0.958 . S
H1422 C1407 0.961 . S
H1423 C1407 0.960 . S
C1424 C1425 1.391 . S
C1424 C1426 1.394 . S
C1424 H1440 0.931 . S
C1425 C1424 1.391 . S
C1425 C1429 1.376 . S
C1426 C1424 1.394 . S
C1426 C1427 1.369 . S
C1426 C1430 1.531 . S
C1427 C1426 1.369 . S
C1427 C1428 1.410 . S
C1427 C1435 1.503 . S
C1428 C1427 1.410 . S
C1428 C1429 1.392 . S
C1428 C1431 1.511 . S
C1429 C1425 1.376 . S
C1429 C1428 1.392 . S
C1429 H1441 0.929 . S
C1430 C1426 1.531 . S
C1430 H1442 0.960 . S
C1430 H1443 0.962 . S
C1430 H1444 0.960 . S
C1431 C1428 1.511 . S
C1431 H1445 0.961 . S
C1431 H1446 0.961 . S
C1431 H1447 0.961 . S
C1432 C1433 1.370 . S
C1432 C1434 1.363 . S
C1432 H1448 0.931 . S
C1433 C1432 1.370 . S
C1433 C1437 1.408 . S
C1434 C1432 1.363 . S
C1434 C1435 1.370 . S
C1434 C1438 1.524 . S
C1435 C1427 1.503 . S
C1435 C1434 1.370 . S
C1435 C1436 1.403 . S
C1436 C1435 1.403 . S
C1436 C1437 1.404 . S
C1436 C1439 1.539 . S
C1437 C1433 1.408 . S
C1437 C1436 1.404 . S
C1437 H1449 0.930 . S
C1438 C1434 1.524 . S
C1438 H1450 0.956 . S
C1438 H1451 0.961 . S
C1438 H1452 0.961 . S
C1439 C1436 1.539 . S
C1439 H1453 0.958 . S
C1439 H1454 0.961 . S
C1439 H1455 0.960 . S
H1440 C1424 0.931 . S
H1441 C1429 0.929 . S
H1442 C1430 0.960 . S
H1443 C1430 0.962 . S
H1444 C1430 0.960 . S
H1445 C1431 0.961 . S
H1446 C1431 0.961 . S
H1447 C1431 0.961 . S
H1448 C1432 0.931 . S
H1449 C1437 0.930 . S
H1450 C1438 0.956 . S
H1451 C1438 0.961 . S
H1452 C1438 0.961 . S
H1453 C1439 0.958 . S
H1454 C1439 0.961 . S
H1455 C1439 0.960 . S
C1456 C1457 1.391 . S
C1456 C1458 1.394 . S
C1456 H1472 0.931 . S
C1457 C1456 1.391 . S
C1457 C1461 1.376 . S
C1458 C1456 1.394 . S
C1458 C1459 1.369 . S
C1458 C1462 1.531 . S
C1459 C1458 1.369 . S
C1459 C1460 1.410 . S
C1459 C1467 1.503 . S
C1460 C1459 1.410 . S
C1460 C1461 1.392 . S
C1460 C1463 1.511 . S
C1461 C1457 1.376 . S
C1461 C1460 1.392 . S
C1461 H1473 0.929 . S
C1462 C1458 1.531 . S
C1462 H1474 0.960 . S
C1462 H1475 0.962 . S
C1462 H1476 0.960 . S
C1463 C1460 1.511 . S
C1463 H1477 0.961 . S
C1463 H1478 0.961 . S
C1463 H1479 0.961 . S
C1464 C1465 1.370 . S
C1464 C1466 1.363 . S
C1464 H1480 0.931 1_565 S
C1465 C1464 1.370 . S
C1465 C1469 1.408 . S
C1466 C1464 1.363 . S
C1466 C1467 1.370 . S
C1466 C1470 1.524 1_565 S
C1467 C1459 1.503 . S
C1467 C1466 1.370 . S
C1467 C1468 1.403 . S
C1468 C1467 1.403 . S
C1468 C1469 1.404 . S
C1468 C1471 1.539 . S
C1469 C1465 1.408 . S
C1469 C1468 1.404 . S
C1469 H1481 0.930 . S
C1470 C1466 1.524 1_545 S
C1470 H1482 0.956 . S
C1470 H1483 0.961 . S
C1470 H1484 0.961 . S
C1471 C1468 1.539 . S
C1471 H1485 0.958 . S
C1471 H1486 0.961 . S
C1471 H1487 0.960 . S
H1472 C1456 0.931 . S
H1473 C1461 0.929 . S
H1474 C1462 0.960 . S
H1475 C1462 0.962 . S
H1476 C1462 0.960 . S
H1477 C1463 0.961 . S
H1478 C1463 0.961 . S
H1479 C1463 0.961 . S
H1480 C1464 0.931 1_545 S
H1481 C1469 0.930 . S
H1482 C1470 0.956 . S
H1483 C1470 0.961 . S
H1484 C1470 0.961 . S
H1485 C1471 0.958 . S
H1486 C1471 0.961 . S
H1487 C1471 0.960 . S
C1488 C1489 1.391 . S
C1488 C1490 1.394 . S
C1488 H1504 0.931 . S
C1489 C1488 1.391 . S
C1489 C1493 1.376 . S
C1490 C1488 1.394 . S
C1490 C1491 1.369 . S
C1490 C1494 1.531 . S
C1491 C1490 1.369 . S
C1491 C1492 1.410 . S
C1491 C1499 1.503 . S
C1492 C1491 1.410 . S
C1492 C1493 1.392 . S
C1492 C1495 1.511 . S
C1493 C1489 1.376 . S
C1493 C1492 1.392 . S
C1493 H1505 0.929 . S
C1494 C1490 1.531 . S
C1494 H1506 0.960 . S
C1494 H1507 0.962 . S
C1494 H1508 0.960 . S
C1495 C1492 1.511 . S
C1495 H1509 0.961 . S
C1495 H1510 0.961 . S
C1495 H1511 0.961 . S
C1496 C1497 1.370 . S
C1496 C1498 1.363 . S
C1496 H1512 0.931 . S
C1497 C1496 1.370 . S
C1497 C1501 1.408 . S
C1498 C1496 1.363 . S
C1498 C1499 1.370 . S
C1498 C1502 1.524 . S
C1499 C1491 1.503 . S
C1499 C1498 1.370 . S
C1499 C1500 1.403 . S
C1500 C1499 1.403 . S
C1500 C1501 1.404 . S
C1500 C1503 1.539 . S
C1501 C1497 1.408 . S
C1501 C1500 1.404 . S
C1501 H1513 0.930 . S
C1502 C1498 1.524 . S
C1502 H1514 0.956 . S
C1502 H1515 0.961 . S
C1502 H1516 0.961 . S
C1503 C1500 1.539 . S
C1503 H1517 0.958 . S
C1503 H1518 0.961 . S
C1503 H1519 0.960 . S
H1504 C1488 0.931 . S
H1505 C1493 0.929 . S
H1506 C1494 0.960 . S
H1507 C1494 0.962 . S
H1508 C1494 0.960 . S
H1509 C1495 0.961 . S
H1510 C1495 0.961 . S
H1511 C1495 0.961 . S
H1512 C1496 0.931 . S
H1513 C1501 0.930 . S
H1514 C1502 0.956 . S
H1515 C1502 0.961 . S
H1516 C1502 0.961 . S
H1517 C1503 0.958 . S
H1518 C1503 0.961 . S
H1519 C1503 0.960 . S
C1520 C1521 1.391 . S
C1520 C1522 1.394 . S
C1520 H1536 0.931 . S
C1521 C1520 1.391 . S
C1521 C1525 1.376 . S
C1522 C1520 1.394 . S
C1522 C1523 1.369 . S
C1522 C1526 1.531 . S
C1523 C1522 1.369 . S
C1523 C1524 1.410 . S
C1523 C1531 1.503 . S
C1524 C1523 1.410 . S
C1524 C1525 1.392 . S
C1524 C1527 1.511 . S
C1525 C1521 1.376 . S
C1525 C1524 1.392 . S
C1525 H1537 0.929 . S
C1526 C1522 1.531 . S
C1526 H1538 0.960 . S
C1526 H1539 0.962 . S
C1526 H1540 0.960 . S
C1527 C1524 1.511 . S
C1527 H1541 0.961 . S
C1527 H1542 0.961 . S
C1527 H1543 0.961 . S
C1528 C1529 1.370 . S
C1528 C1530 1.363 . S
C1528 H1544 0.931 . S
C1529 C1528 1.370 . S
C1529 C1533 1.408 . S
C1530 C1528 1.363 . S
C1530 C1531 1.370 . S
C1530 C1534 1.524 . S
C1531 C1523 1.503 . S
C1531 C1530 1.370 . S
C1531 C1532 1.403 . S
C1532 C1531 1.403 . S
C1532 C1533 1.404 . S
C1532 C1535 1.539 . S
C1533 C1529 1.408 . S
C1533 C1532 1.404 . S
C1533 H1545 0.930 . S
C1534 C1530 1.524 . S
C1534 H1546 0.956 . S
C1534 H1547 0.961 . S
C1534 H1548 0.961 . S
C1535 C1532 1.539 . S
C1535 H1549 0.958 . S
C1535 H1550 0.961 . S
C1535 H1551 0.960 . S
H1536 C1520 0.931 . S
H1537 C1525 0.929 . S
H1538 C1526 0.960 . S
H1539 C1526 0.962 . S
H1540 C1526 0.960 . S
H1541 C1527 0.961 . S
H1542 C1527 0.961 . S
H1543 C1527 0.961 . S
H1544 C1528 0.931 . S
H1545 C1533 0.930 . S
H1546 C1534 0.956 . S
H1547 C1534 0.961 . S
H1548 C1534 0.961 . S
H1549 C1535 0.958 . S
H1550 C1535 0.961 . S
H1551 C1535 0.960 . S
C1552 C1553 1.391 . S
C1552 C1554 1.394 . S
C1552 H1568 0.931 . S
C1553 C1552 1.391 . S
C1553 C1557 1.376 . S
C1554 C1552 1.394 . S
C1554 C1555 1.369 . S
C1554 C1558 1.531 . S
C1555 C1554 1.369 . S
C1555 C1556 1.410 . S
C1555 C1563 1.503 . S
C1556 C1555 1.410 . S
C1556 C1557 1.392 . S
C1556 C1559 1.511 . S
C1557 C1553 1.376 . S
C1557 C1556 1.392 . S
C1557 H1569 0.929 . S
C1558 C1554 1.531 . S
C1558 H1570 0.960 . S
C1558 H1571 0.962 . S
C1558 H1572 0.960 . S
C1559 C1556 1.511 . S
C1559 H1573 0.961 . S
C1559 H1574 0.961 . S
C1559 H1575 0.961 . S
C1560 C1561 1.370 . S
C1560 C1562 1.363 . S
C1560 H1576 0.931 . S
C1561 C1560 1.370 . S
C1561 C1565 1.408 . S
C1562 C1560 1.363 . S
C1562 C1563 1.370 . S
C1562 C1566 1.524 . S
C1563 C1555 1.503 . S
C1563 C1562 1.370 . S
C1563 C1564 1.403 . S
C1564 C1563 1.403 . S
C1564 C1565 1.404 . S
C1564 C1567 1.539 . S
C1565 C1561 1.408 . S
C1565 C1564 1.404 . S
C1565 H1577 0.930 . S
C1566 C1562 1.524 . S
C1566 H1578 0.956 . S
C1566 H1579 0.961 . S
C1566 H1580 0.961 . S
C1567 C1564 1.539 . S
C1567 H1581 0.958 . S
C1567 H1582 0.961 . S
C1567 H1583 0.960 . S
H1568 C1552 0.931 . S
H1569 C1557 0.929 . S
H1570 C1558 0.960 . S
H1571 C1558 0.962 . S
H1572 C1558 0.960 . S
H1573 C1559 0.961 . S
H1574 C1559 0.961 . S
H1575 C1559 0.961 . S
H1576 C1560 0.931 . S
H1577 C1565 0.930 . S
H1578 C1566 0.956 . S
H1579 C1566 0.961 . S
H1580 C1566 0.961 . S
H1581 C1567 0.958 . S
H1582 C1567 0.961 . S
H1583 C1567 0.960 . S
C1584 C1585 1.391 . S
C1584 C1586 1.394 . S
C1584 H1600 0.931 . S
C1585 C1584 1.391 . S
C1585 C1589 1.376 . S
C1586 C1584 1.394 . S
C1586 C1587 1.369 . S
C1586 C1590 1.531 . S
C1587 C1586 1.369 . S
C1587 C1588 1.410 . S
C1587 C1595 1.503 . S
C1588 C1587 1.410 . S
C1588 C1589 1.392 . S
C1588 C1591 1.511 . S
C1589 C1585 1.376 . S
C1589 C1588 1.392 . S
C1589 H1601 0.929 . S
C1590 C1586 1.531 . S
C1590 H1602 0.960 . S
C1590 H1603 0.962 . S
C1590 H1604 0.960 . S
C1591 C1588 1.511 . S
C1591 H1605 0.961 . S
C1591 H1606 0.961 . S
C1591 H1607 0.961 . S
C1592 C1593 1.370 . S
C1592 C1594 1.363 . S
C1592 H1608 0.931 . S
C1593 C1592 1.370 . S
C1593 C1597 1.408 . S
C1594 C1592 1.363 . S
C1594 C1595 1.370 . S
C1594 C1598 1.524 . S
C1595 C1587 1.503 . S
C1595 C1594 1.370 . S
C1595 C1596 1.403 . S
C1596 C1595 1.403 . S
C1596 C1597 1.404 . S
C1596 C1599 1.539 . S
C1597 C1593 1.408 . S
C1597 C1596 1.404 . S
C1597 H1609 0.930 . S
C1598 C1594 1.524 . S
C1598 H1610 0.956 . S
C1598 H1611 0.961 . S
C1598 H1612 0.961 . S
C1599 C1596 1.539 . S
C1599 H1613 0.958 . S
C1599 H1614 0.961 . S
C1599 H1615 0.960 . S
H1600 C1584 0.931 . S
H1601 C1589 0.929 . S
H1602 C1590 0.960 . S
H1603 C1590 0.962 . S
H1604 C1590 0.960 . S
H1605 C1591 0.961 . S
H1606 C1591 0.961 . S
H1607 C1591 0.961 . S
H1608 C1592 0.931 . S
H1609 C1597 0.930 . S
H1610 C1598 0.956 . S
H1611 C1598 0.961 . S
H1612 C1598 0.961 . S
H1613 C1599 0.958 . S
H1614 C1599 0.961 . S
H1615 C1599 0.960 . S
C1616 C1617 1.391 . S
C1616 C1618 1.394 . S
C1616 H1632 0.931 . S
C1617 C1616 1.391 . S
C1617 C1621 1.376 . S
C1618 C1616 1.394 . S
C1618 C1619 1.369 . S
C1618 C1622 1.531 . S
C1619 C1618 1.369 . S
C1619 C1620 1.410 . S
C1619 C1627 1.503 . S
C1620 C1619 1.410 . S
C1620 C1621 1.392 . S
C1620 C1623 1.511 . S
C1621 C1617 1.376 . S
C1621 C1620 1.392 . S
C1621 H1633 0.929 . S
C1622 C1618 1.531 . S
C1622 H1634 0.960 . S
C1622 H1635 0.962 . S
C1622 H1636 0.960 . S
C1623 C1620 1.511 . S
C1623 H1637 0.961 . S
C1623 H1638 0.961 . S
C1623 H1639 0.961 . S
C1624 C1625 1.370 . S
C1624 C1626 1.363 . S
C1624 H1640 0.931 . S
C1625 C1624 1.370 . S
C1625 C1629 1.408 . S
C1626 C1624 1.363 . S
C1626 C1627 1.370 . S
C1626 C1630 1.524 . S
C1627 C1619 1.503 . S
C1627 C1626 1.370 . S
C1627 C1628 1.403 . S
C1628 C1627 1.403 . S
C1628 C1629 1.404 . S
C1628 C1631 1.539 . S
C1629 C1625 1.408 . S
C1629 C1628 1.404 . S
C1629 H1641 0.930 . S
C1630 C1626 1.524 . S
C1630 H1642 0.956 . S
C1630 H1643 0.961 . S
C1630 H1644 0.961 . S
C1631 C1628 1.539 . S
C1631 H1645 0.958 . S
C1631 H1646 0.961 . S
C1631 H1647 0.960 . S
H1632 C1616 0.931 . S
H1633 C1621 0.929 . S
H1634 C1622 0.960 . S
H1635 C1622 0.962 . S
H1636 C1622 0.960 . S
H1637 C1623 0.961 . S
H1638 C1623 0.961 . S
H1639 C1623 0.961 . S
H1640 C1624 0.931 . S
H1641 C1629 0.930 . S
H1642 C1630 0.956 . S
H1643 C1630 0.961 . S
H1644 C1630 0.961 . S
H1645 C1631 0.958 . S
H1646 C1631 0.961 . S
H1647 C1631 0.960 . S
C1648 C1649 1.391 . S
C1648 C1650 1.394 . S
C1648 H1664 0.931 . S
C1649 C1648 1.391 . S
C1649 C1653 1.376 . S
C1650 C1648 1.394 . S
C1650 C1651 1.369 . S
C1650 C1654 1.531 . S
C1651 C1650 1.369 . S
C1651 C1652 1.410 . S
C1651 C1659 1.503 . S
C1652 C1651 1.410 . S
C1652 C1653 1.392 . S
C1652 C1655 1.511 . S
C1653 C1649 1.376 . S
C1653 C1652 1.392 . S
C1653 H1665 0.929 . S
C1654 C1650 1.531 . S
C1654 H1666 0.960 . S
C1654 H1667 0.962 . S
C1654 H1668 0.960 . S
C1655 C1652 1.511 . S
C1655 H1669 0.961 1_455 S
C1655 H1670 0.961 . S
C1655 H1671 0.967 . S
C1656 C1657 1.370 . S
C1656 C1658 1.363 . S
C1656 H1672 0.931 . S
C1657 C1656 1.370 . S
C1657 C1661 1.408 . S
C1658 C1656 1.363 . S
C1658 C1659 1.370 . S
C1658 C1662 1.524 . S
C1659 C1651 1.503 . S
C1659 C1658 1.370 . S
C1659 C1660 1.403 . S
C1660 C1659 1.403 . S
C1660 C1661 1.404 . S
C1660 C1663 1.539 . S
C1661 C1657 1.408 . S
C1661 C1660 1.404 . S
C1661 H1673 0.930 . S
C1662 C1658 1.524 . S
C1662 H1674 0.956 . S
C1662 H1675 0.961 . S
C1662 H1676 0.961 . S
C1663 C1660 1.539 . S
C1663 H1677 0.958 . S
C1663 H1678 0.961 . S
C1663 H1679 0.960 . S
H1664 C1648 0.931 . S
H1665 C1653 0.929 . S
H1666 C1654 0.960 . S
H1667 C1654 0.962 . S
H1668 C1654 0.960 . S
H1669 C1655 0.961 1_655 S
H1670 C1655 0.961 . S
H1671 C1655 0.967 . S
H1672 C1656 0.931 . S
H1673 C1661 0.930 . S
H1674 C1662 0.956 . S
H1675 C1662 0.961 . S
H1676 C1662 0.961 . S
H1677 C1663 0.958 . S
H1678 C1663 0.961 . S
H1679 C1663 0.960 . S
C1680 C1681 1.391 . S
C1680 C1682 1.394 . S
C1680 H1696 0.931 . S
C1681 C1680 1.391 . S
C1681 C1685 1.376 . S
C1682 C1680 1.394 . S
C1682 C1683 1.369 . S
C1682 C1686 1.531 . S
C1683 C1682 1.369 . S
C1683 C1684 1.410 . S
C1683 C1691 1.503 . S
C1684 C1683 1.410 . S
C1684 C1685 1.392 . S
C1684 C1687 1.511 . S
C1685 C1681 1.376 . S
C1685 C1684 1.392 . S
C1685 H1697 0.929 . S
C1686 C1682 1.531 . S
C1686 H1698 0.960 . S
C1686 H1699 0.962 . S
C1686 H1700 0.960 . S
C1687 C1684 1.511 . S
C1687 H1701 0.961 . S
C1687 H1702 0.961 . S
C1687 H1703 0.961 . S
C1688 C1689 1.370 . S
C1688 C1690 1.363 . S
C1688 H1704 0.931 . S
C1689 C1688 1.370 . S
C1689 C1693 1.408 . S
C1690 C1688 1.363 . S
C1690 C1691 1.370 . S
C1690 C1694 1.524 . S
C1691 C1683 1.503 . S
C1691 C1690 1.370 . S
C1691 C1692 1.403 . S
C1692 C1691 1.403 . S
C1692 C1693 1.404 . S
C1692 C1695 1.539 . S
C1693 C1689 1.408 . S
C1693 C1692 1.404 . S
C1693 H1705 0.930 . S
C1694 C1690 1.524 . S
C1694 H1706 0.956 . S
C1694 H1707 0.961 . S
C1694 H1708 0.961 . S
C1695 C1692 1.539 . S
C1695 H1709 0.958 . S
C1695 H1710 0.961 . S
C1695 H1711 0.960 . S
H1696 C1680 0.931 . S
H1697 C1685 0.929 . S
H1698 C1686 0.960 . S
H1699 C1686 0.962 . S
H1700 C1686 0.960 . S
H1701 C1687 0.961 . S
H1702 C1687 0.961 . S
H1703 C1687 0.961 . S
H1704 C1688 0.931 . S
H1705 C1693 0.930 . S
H1706 C1694 0.956 . S
H1707 C1694 0.961 . S
H1708 C1694 0.961 . S
H1709 C1695 0.958 . S
H1710 C1695 0.961 . S
H1711 C1695 0.960 . S
C1712 C1713 1.391 . S
C1712 C1714 1.394 . S
C1712 H1728 0.931 . S
C1713 C1712 1.391 . S
C1713 C1717 1.376 1_655 S
C1714 C1712 1.394 . S
C1714 C1715 1.369 1_655 S
C1714 C1718 1.531 . S
C1715 C1714 1.369 1_455 S
C1715 C1716 1.410 . S
C1715 C1723 1.503 . S
C1716 C1715 1.410 . S
C1716 C1717 1.392 . S
C1716 C1719 1.511 . S
C1717 C1713 1.376 1_455 S
C1717 C1716 1.392 . S
C1717 H1729 0.929 . S
C1718 C1714 1.531 . S
C1718 H1730 0.960 . S
C1718 H1731 0.962 . S
C1718 H1732 0.960 . S
C1719 C1716 1.511 . S
C1719 H1733 0.961 . S
C1719 H1734 0.961 . S
C1719 H1735 0.961 . S
C1720 C1721 1.370 1_655 S
C1720 C1722 1.363 . S
C1720 H1736 0.931 . S
C1721 C1720 1.370 1_455 S
C1721 C1725 1.408 . S
C1722 C1720 1.363 . S
C1722 C1723 1.370 1_655 S
C1722 C1726 1.524 . S
C1723 C1715 1.503 . S
C1723 C1722 1.370 1_455 S
C1723 C1724 1.403 . S
C1724 C1723 1.403 . S
C1724 C1725 1.404 . S
C1724 C1727 1.539 . S
C1725 C1721 1.408 . S
C1725 C1724 1.404 . S
C1725 H1737 0.930 . S
C1726 C1722 1.524 . S
C1726 H1738 0.956 . S
C1726 H1739 0.961 . S
C1726 H1740 0.961 . S
C1727 C1724 1.539 . S
C1727 H1741 0.958 . S
C1727 H1742 0.961 . S
C1727 H1743 0.960 . S
H1728 C1712 0.931 . S
H1729 C1717 0.929 . S
H1730 C1718 0.960 . S
H1731 C1718 0.962 . S
H1732 C1718 0.960 . S
H1733 C1719 0.961 . S
H1734 C1719 0.961 . S
H1735 C1719 0.961 . S
H1736 C1720 0.931 . S
H1737 C1725 0.930 . S
H1738 C1726 0.956 . S
H1739 C1726 0.961 . S
H1740 C1726 0.961 . S
H1741 C1727 0.958 . S
H1742 C1727 0.961 . S
H1743 C1727 0.960 . S
C1744 C1745 1.391 . S
C1744 C1746 1.394 . S
C1744 H1760 0.931 . S
C1745 C1744 1.391 . S
C1745 C1749 1.376 . S
C1746 C1744 1.394 . S
C1746 C1747 1.369 . S
C1746 C1750 1.531 . S
C1747 C1746 1.369 . S
C1747 C1748 1.410 . S
C1747 C1755 1.503 . S
C1748 C1747 1.410 . S
C1748 C1749 1.392 . S
C1748 C1751 1.511 . S
C1749 C1745 1.376 . S
C1749 C1748 1.392 . S
C1749 H1761 0.929 . S
C1750 C1746 1.531 . S
C1750 H1762 0.960 . S
C1750 H1763 0.962 . S
C1750 H1764 0.960 . S
C1751 C1748 1.511 . S
C1751 H1765 0.961 . S
C1751 H1766 0.961 . S
C1751 H1767 0.961 . S
C1752 C1753 1.370 . S
C1752 C1754 1.363 . S
C1752 H1768 0.931 . S
C1753 C1752 1.370 . S
C1753 C1757 1.408 . S
C1754 C1752 1.363 . S
C1754 C1755 1.370 . S
C1754 C1758 1.524 . S
C1755 C1747 1.503 . S
C1755 C1754 1.370 . S
C1755 C1756 1.403 . S
C1756 C1755 1.403 . S
C1756 C1757 1.404 . S
C1756 C1759 1.539 . S
C1757 C1753 1.408 . S
C1757 C1756 1.404 . S
C1757 H1769 0.930 . S
C1758 C1754 1.524 . S
C1758 H1770 0.956 . S
C1758 H1771 0.961 . S
C1758 H1772 0.961 . S
C1759 C1756 1.539 . S
C1759 H1773 0.958 . S
C1759 H1774 0.961 . S
C1759 H1775 0.960 . S
H1760 C1744 0.931 . S
H1761 C1749 0.929 . S
H1762 C1750 0.960 . S
H1763 C1750 0.962 . S
H1764 C1750 0.960 . S
H1765 C1751 0.961 . S
H1766 C1751 0.961 . S
H1767 C1751 0.961 . S
H1768 C1752 0.931 . S
H1769 C1757 0.930 . S
H1770 C1758 0.956 . S
H1771 C1758 0.961 . S
H1772 C1758 0.961 . S
H1773 C1759 0.958 . S
H1774 C1759 0.961 . S
H1775 C1759 0.960 . S
C1776 C1777 1.391 . S
C1776 C1778 1.394 . S
C1776 H1792 0.931 . S
C1777 C1776 1.391 . S
C1777 C1781 1.376 . S
C1778 C1776 1.394 . S
C1778 C1779 1.369 . S
C1778 C1782 1.531 . S
C1779 C1778 1.369 . S
C1779 C1780 1.410 . S
C1779 C1787 1.503 . S
C1780 C1779 1.410 . S
C1780 C1781 1.392 . S
C1780 C1783 1.511 . S
C1781 C1777 1.376 . S
C1781 C1780 1.392 . S
C1781 H1793 0.929 . S
C1782 C1778 1.531 . S
C1782 H1794 0.960 . S
C1782 H1795 0.962 . S
C1782 H1796 0.960 . S
C1783 C1780 1.511 . S
C1783 H1797 0.961 . S
C1783 H1798 0.961 . S
C1783 H1799 0.961 . S
C1784 C1785 1.370 . S
C1784 C1786 1.363 . S
C1784 H1800 0.931 . S
C1785 C1784 1.370 . S
C1785 C1789 1.408 . S
C1786 C1784 1.363 . S
C1786 C1787 1.370 . S
C1786 C1790 1.524 . S
C1787 C1779 1.503 . S
C1787 C1786 1.370 . S
C1787 C1788 1.403 . S
C1788 C1787 1.403 . S
C1788 C1789 1.404 . S
C1788 C1791 1.539 . S
C1789 C1785 1.408 . S
C1789 C1788 1.404 . S
C1789 H1801 0.930 . S
C1790 C1786 1.524 . S
C1790 H1802 0.956 . S
C1790 H1803 0.961 . S
C1790 H1804 0.961 . S
C1791 C1788 1.539 . S
C1791 H1805 0.958 . S
C1791 H1806 0.961 . S
C1791 H1807 0.960 . S
H1792 C1776 0.931 . S
H1793 C1781 0.929 . S
H1794 C1782 0.960 . S
H1795 C1782 0.962 . S
H1796 C1782 0.960 . S
H1797 C1783 0.961 . S
H1798 C1783 0.961 . S
H1799 C1783 0.961 . S
H1800 C1784 0.931 . S
H1801 C1789 0.930 . S
H1802 C1790 0.956 . S
H1803 C1790 0.961 . S
H1804 C1790 0.961 . S
H1805 C1791 0.958 . S
H1806 C1791 0.961 . S
H1807 C1791 0.960 . S
C1808 C1809 1.391 . S
C1808 C1810 1.394 . S
C1808 H1824 0.931 . S
C1809 C1808 1.391 . S
C1809 C1813 1.376 1_554 S
C1810 C1808 1.394 . S
C1810 C1811 1.369 . S
C1810 C1814 1.531 . S
C1811 C1810 1.369 . S
C1811 C1812 1.410 1_554 S
C1811 C1819 1.503 . S
C1812 C1811 1.410 1_556 S
C1812 C1813 1.392 . S
C1812 C1815 1.511 . S
C1813 C1809 1.376 1_556 S
C1813 C1812 1.392 . S
C1813 H1825 0.929 1_565 S
C1814 C1810 1.531 . S
C1814 H1826 0.960 . S
C1814 H1827 0.962 . S
C1814 H1828 0.960 . S
C1815 C1812 1.511 . S
C1815 H1829 0.961 1_565 S
C1815 H1830 0.961 . S
C1815 H1831 0.961 1_566 S
C1816 C1817 1.370 1_556 S
C1816 C1818 1.363 . S
C1816 H1832 0.931 . S
C1817 C1816 1.370 1_554 S
C1817 C1821 1.408 . S
C1818 C1816 1.363 . S
C1818 C1819 1.370 1_556 S
C1818 C1822 1.524 . S
C1819 C1811 1.503 . S
C1819 C1818 1.370 1_554 S
C1819 C1820 1.403 . S
C1820 C1819 1.403 . S
C1820 C1821 1.404 . S
C1820 C1823 1.539 . S
C1821 C1817 1.408 . S
C1821 C1820 1.404 . S
C1821 H1833 0.930 . S
C1822 C1818 1.524 . S
C1822 H1834 0.956 . S
C1822 H1835 0.961 . S
C1822 H1836 0.961 . S
C1823 C1820 1.539 . S
C1823 H1837 0.958 . S
C1823 H1838 0.961 . S
C1823 H1839 0.960 . S
H1824 C1808 0.931 . S
H1825 C1813 0.929 1_545 S
H1826 C1814 0.960 . S
H1827 C1814 0.962 . S
H1828 C1814 0.960 . S
H1829 C1815 0.961 1_545 S
H1830 C1815 0.961 . S
H1831 C1815 0.961 1_544 S
H1832 C1816 0.931 . S
H1833 C1821 0.930 . S
H1834 C1822 0.956 . S
H1835 C1822 0.961 . S
H1836 C1822 0.961 . S
H1837 C1823 0.958 . S
H1838 C1823 0.961 . S
H1839 C1823 0.960 . S
C1840 C1841 1.391 . S
C1840 C1842 1.394 . S
C1840 H1856 0.931 . S
C1841 C1840 1.391 . S
C1841 C1845 1.376 . S
C1842 C1840 1.394 . S
C1842 C1843 1.369 . S
C1842 C1846 1.531 . S
C1843 C1842 1.369 . S
C1843 C1844 1.410 . S
C1843 C1851 1.503 . S
C1844 C1843 1.410 . S
C1844 C1845 1.392 . S
C1844 C1847 1.511 . S
C1845 C1841 1.376 . S
C1845 C1844 1.392 . S
C1845 H1857 0.929 . S
C1846 C1842 1.531 . S
C1846 H1858 0.960 . S
C1846 H1859 0.962 . S
C1846 H1860 0.960 . S
C1847 C1844 1.511 . S
C1847 H1861 0.961 . S
C1847 H1862 0.961 . S
C1847 H1863 0.961 . S
C1848 C1849 1.370 . S
C1848 C1850 1.363 . S
C1848 H1864 0.931 . S
C1849 C1848 1.370 . S
C1849 C1853 1.408 . S
C1850 C1848 1.363 . S
C1850 C1851 1.370 . S
C1850 C1854 1.524 . S
C1851 C1843 1.503 . S
C1851 C1850 1.370 . S
C1851 C1852 1.403 . S
C1852 C1851 1.403 . S
C1852 C1853 1.404 . S
C1852 C1855 1.539 . S
C1853 C1849 1.408 . S
C1853 C1852 1.404 . S
C1853 H1865 0.930 . S
C1854 C1850 1.524 . S
C1854 H1866 0.956 . S
C1854 H1867 0.961 . S
C1854 H1868 0.961 . S
C1855 C1852 1.539 . S
C1855 H1869 0.958 . S
C1855 H1870 0.961 . S
C1855 H1871 0.960 . S
H1856 C1840 0.931 . S
H1857 C1845 0.929 . S
H1858 C1846 0.960 . S
H1859 C1846 0.962 . S
H1860 C1846 0.960 . S
H1861 C1847 0.961 . S
H1862 C1847 0.961 . S
H1863 C1847 0.961 . S
H1864 C1848 0.931 . S
H1865 C1853 0.930 . S
H1866 C1854 0.956 . S
H1867 C1854 0.961 . S
H1868 C1854 0.961 . S
H1869 C1855 0.958 . S
H1870 C1855 0.961 . S
H1871 C1855 0.960 . S
C1872 C1873 1.391 . S
C1872 C1874 1.394 . S
C1872 H1888 0.931 . S
C1873 C1872 1.391 . S
C1873 C1877 1.376 . S
C1874 C1872 1.394 . S
C1874 C1875 1.369 . S
C1874 C1878 1.531 . S
C1875 C1874 1.369 . S
C1875 C1876 1.410 . S
C1875 C1883 1.503 . S
C1876 C1875 1.410 . S
C1876 C1877 1.392 . S
C1876 C1879 1.511 . S
C1877 C1873 1.376 . S
C1877 C1876 1.392 . S
C1877 H1889 0.929 . S
C1878 C1874 1.531 . S
C1878 H1890 0.960 . S
C1878 H1891 0.962 . S
C1878 H1892 0.960 . S
C1879 C1876 1.511 . S
C1879 H1893 0.961 . S
C1879 H1894 0.961 . S
C1879 H1895 0.961 . S
C1880 C1881 1.370 . S
C1880 C1882 1.363 . S
C1880 H1896 0.931 . S
C1881 C1880 1.370 . S
C1881 C1885 1.408 . S
C1882 C1880 1.363 . S
C1882 C1883 1.370 . S
C1882 C1886 1.524 . S
C1883 C1875 1.503 . S
C1883 C1882 1.370 . S
C1883 C1884 1.403 . S
C1884 C1883 1.403 . S
C1884 C1885 1.404 . S
C1884 C1887 1.539 . S
C1885 C1881 1.408 . S
C1885 C1884 1.404 . S
C1885 H1897 0.930 . S
C1886 C1882 1.524 . S
C1886 H1898 0.956 . S
C1886 H1899 0.961 . S
C1886 H1900 0.961 . S
C1887 C1884 1.539 . S
C1887 H1901 0.958 . S
C1887 H1902 0.961 . S
C1887 H1903 0.960 . S
H1888 C1872 0.931 . S
H1889 C1877 0.929 . S
H1890 C1878 0.960 . S
H1891 C1878 0.962 . S
H1892 C1878 0.960 . S
H1893 C1879 0.961 . S
H1894 C1879 0.961 . S
H1895 C1879 0.961 . S
H1896 C1880 0.931 . S
H1897 C1885 0.930 . S
H1898 C1886 0.956 . S
H1899 C1886 0.961 . S
H1900 C1886 0.961 . S
H1901 C1887 0.958 . S
H1902 C1887 0.961 . S
H1903 C1887 0.960 . S
C1904 C1905 1.391 . S
C1904 C1906 1.394 . S
C1904 H1920 0.931 . S
C1905 C1904 1.391 . S
C1905 C1909 1.376 . S
C1906 C1904 1.394 . S
C1906 C1907 1.369 . S
C1906 C1910 1.531 . S
C1907 C1906 1.369 . S
C1907 C1908 1.410 . S
C1907 C1915 1.503 . S
C1908 C1907 1.410 . S
C1908 C1909 1.392 . S
C1908 C1911 1.511 . S
C1909 C1905 1.376 . S
C1909 C1908 1.392 . S
C1909 H1921 0.929 . S
C1910 C1906 1.531 . S
C1910 H1922 0.960 . S
C1910 H1923 0.962 . S
C1910 H1924 0.960 . S
C1911 C1908 1.511 . S
C1911 H1925 0.961 . S
C1911 H1926 0.961 . S
C1911 H1927 0.961 . S
C1912 C1913 1.370 . S
C1912 C1914 1.363 . S
C1912 H1928 0.931 . S
C1913 C1912 1.370 . S
C1913 C1917 1.408 . S
C1914 C1912 1.363 . S
C1914 C1915 1.370 . S
C1914 C1918 1.524 . S
C1915 C1907 1.503 . S
C1915 C1914 1.370 . S
C1915 C1916 1.403 . S
C1916 C1915 1.403 . S
C1916 C1917 1.404 . S
C1916 C1919 1.539 . S
C1917 C1913 1.408 . S
C1917 C1916 1.404 . S
C1917 H1929 0.930 . S
C1918 C1914 1.524 . S
C1918 H1930 0.956 . S
C1918 H1931 0.961 . S
C1918 H1932 0.961 . S
C1919 C1916 1.539 . S
C1919 H1933 0.958 . S
C1919 H1934 0.961 . S
C1919 H1935 0.960 . S
H1920 C1904 0.931 . S
H1921 C1909 0.929 . S
H1922 C1910 0.960 . S
H1923 C1910 0.962 . S
H1924 C1910 0.960 . S
H1925 C1911 0.961 . S
H1926 C1911 0.961 . S
H1927 C1911 0.961 . S
H1928 C1912 0.931 . S
H1929 C1917 0.930 . S
H1930 C1918 0.956 . S
H1931 C1918 0.961 . S
H1932 C1918 0.961 . S
H1933 C1919 0.958 . S
H1934 C1919 0.961 . S
H1935 C1919 0.960 . S
C1936 C1937 1.391 . S
C1936 C1938 1.394 . S
C1936 H1952 0.931 . S
C1937 C1936 1.391 . S
C1937 C1941 1.376 . S
C1938 C1936 1.394 . S
C1938 C1939 1.369 . S
C1938 C1942 1.531 . S
C1939 C1938 1.369 . S
C1939 C1940 1.410 . S
C1939 C1947 1.503 . S
C1940 C1939 1.410 . S
C1940 C1941 1.392 . S
C1940 C1943 1.511 . S
C1941 C1937 1.376 . S
C1941 C1940 1.392 . S
C1941 H1953 0.929 . S
C1942 C1938 1.531 . S
C1942 H1954 0.960 . S
C1942 H1955 0.962 . S
C1942 H1956 0.960 . S
C1943 C1940 1.511 . S
C1943 H1957 0.961 . S
C1943 H1958 0.961 . S
C1943 H1959 0.961 . S
C1944 C1945 1.370 . S
C1944 C1946 1.363 . S
C1944 H1960 0.931 . S
C1945 C1944 1.370 . S
C1945 C1949 1.408 . S
C1946 C1944 1.363 . S
C1946 C1947 1.370 . S
C1946 C1950 1.524 . S
C1947 C1939 1.503 . S
C1947 C1946 1.370 . S
C1947 C1948 1.403 . S
C1948 C1947 1.403 . S
C1948 C1949 1.404 . S
C1948 C1951 1.539 . S
C1949 C1945 1.408 . S
C1949 C1948 1.404 . S
C1949 H1961 0.930 . S
C1950 C1946 1.524 . S
C1950 H1962 0.956 . S
C1950 H1963 0.961 . S
C1950 H1964 0.961 . S
C1951 C1948 1.539 . S
C1951 H1965 0.958 . S
C1951 H1966 0.961 . S
C1951 H1967 0.960 . S
H1952 C1936 0.931 . S
H1953 C1941 0.929 . S
H1954 C1942 0.960 . S
H1955 C1942 0.962 . S
H1956 C1942 0.960 . S
H1957 C1943 0.961 . S
H1958 C1943 0.961 . S
H1959 C1943 0.961 . S
H1960 C1944 0.931 . S
H1961 C1949 0.930 . S
H1962 C1950 0.956 . S
H1963 C1950 0.961 . S
H1964 C1950 0.961 . S
H1965 C1951 0.958 . S
H1966 C1951 0.961 . S
H1967 C1951 0.960 . S
C1968 C1969 1.391 . S
C1968 C1970 1.394 . S
C1968 H1984 0.931 . S
C1969 C1968 1.391 . S
C1969 C1973 1.376 . S
C1970 C1968 1.394 . S
C1970 C1971 1.369 . S
C1970 C1974 1.531 . S
C1971 C1970 1.369 . S
C1971 C1972 1.410 . S
C1971 C1979 1.503 . S
C1972 C1971 1.410 . S
C1972 C1973 1.392 . S
C1972 C1975 1.511 . S
C1973 C1969 1.376 . S
C1973 C1972 1.392 . S
C1973 H1985 0.929 . S
C1974 C1970 1.531 . S
C1974 H1986 0.960 . S
C1974 H1987 0.962 . S
C1974 H1988 0.960 . S
C1975 C1972 1.511 . S
C1975 H1989 0.961 . S
C1975 H1990 0.961 . S
C1975 H1991 0.961 . S
C1976 C1977 1.370 . S
C1976 C1978 1.363 . S
C1976 H1992 0.931 . S
C1977 C1976 1.370 . S
C1977 C1981 1.408 . S
C1978 C1976 1.363 . S
C1978 C1979 1.370 . S
C1978 C1982 1.524 . S
C1979 C1971 1.503 . S
C1979 C1978 1.370 . S
C1979 C1980 1.403 . S
C1980 C1979 1.403 . S
C1980 C1981 1.404 . S
C1980 C1983 1.539 . S
C1981 C1977 1.408 . S
C1981 C1980 1.404 . S
C1981 H1993 0.930 . S
C1982 C1978 1.524 . S
C1982 H1994 0.956 . S
C1982 H1995 0.961 . S
C1982 H1996 0.961 . S
C1983 C1980 1.539 . S
C1983 H1997 0.958 . S
C1983 H1998 0.961 . S
C1983 H1999 0.960 . S
H1984 C1968 0.931 . S
H1985 C1973 0.929 . S
H1986 C1974 0.960 . S
H1987 C1974 0.962 . S
H1988 C1974 0.960 . S
H1989 C1975 0.961 . S
H1990 C1975 0.961 . S
H1991 C1975 0.961 . S
H1992 C1976 0.931 . S
H1993 C1981 0.930 . S
H1994 C1982 0.956 . S
H1995 C1982 0.961 . S
H1996 C1982 0.961 . S
H1997 C1983 0.958 . S
H1998 C1983 0.961 . S
H1999 C1983 0.960 . S
C2000 C2001 1.391 . S
C2000 C2002 1.394 . S
C2000 H2016 0.931 . S
C2001 C2000 1.391 . S
C2001 C2005 1.376 . S
C2002 C2000 1.394 . S
C2002 C2003 1.369 . S
C2002 C2006 1.531 . S
C2003 C2002 1.369 . S
C2003 C2004 1.410 . S
C2003 C2011 1.503 . S
C2004 C2003 1.410 . S
C2004 C2005 1.392 . S
C2004 C2007 1.511 . S
C2005 C2001 1.376 . S
C2005 C2004 1.392 . S
C2005 H2017 0.929 . S
C2006 C2002 1.531 . S
C2006 H2018 0.960 . S
C2006 H2019 0.962 . S
C2006 H2020 0.960 . S
C2007 C2004 1.511 . S
C2007 H2021 0.961 . S
C2007 H2022 0.961 . S
C2007 H2023 0.961 . S
C2008 C2009 1.370 . S
C2008 C2010 1.363 . S
C2008 H2024 0.931 . S
C2009 C2008 1.370 . S
C2009 C2013 1.408 . S
C2010 C2008 1.363 . S
C2010 C2011 1.370 . S
C2010 C2014 1.524 . S
C2011 C2003 1.503 . S
C2011 C2010 1.370 . S
C2011 C2012 1.403 . S
C2012 C2011 1.403 . S
C2012 C2013 1.404 . S
C2012 C2015 1.539 . S
C2013 C2009 1.408 . S
C2013 C2012 1.404 . S
C2013 H2025 0.930 . S
C2014 C2010 1.524 . S
C2014 H2026 0.956 . S
C2014 H2027 0.961 . S
C2014 H2028 0.961 . S
C2015 C2012 1.539 . S
C2015 H2029 0.958 . S
C2015 H2030 0.961 . S
C2015 H2031 0.960 . S
H2016 C2000 0.931 . S
H2017 C2005 0.929 . S
H2018 C2006 0.960 . S
H2019 C2006 0.962 . S
H2020 C2006 0.960 . S
H2021 C2007 0.961 . S
H2022 C2007 0.961 . S
H2023 C2007 0.961 . S
H2024 C2008 0.931 . S
H2025 C2013 0.930 . S
H2026 C2014 0.956 . S
H2027 C2014 0.961 . S
H2028 C2014 0.961 . S
H2029 C2015 0.958 . S
H2030 C2015 0.961 . S
H2031 C2015 0.960 . S
C2032 C2033 1.391 . S
C2032 C2034 1.394 . S
C2032 H2048 0.931 . S
C2033 C2032 1.391 . S
C2033 C2037 1.376 . S
C2034 C2032 1.394 . S
C2034 C2035 1.369 . S
C2034 C2038 1.531 . S
C2035 C2034 1.369 . S
C2035 C2036 1.410 . S
C2035 C2043 1.503 . S
C2036 C2035 1.410 . S
C2036 C2037 1.392 . S
C2036 C2039 1.557 . S
C2037 C2033 1.376 . S
C2037 C2036 1.392 . S
C2037 H2049 0.929 . S
C2038 C2034 1.531 . S
C2038 H2050 0.960 . S
C2038 H2051 0.962 . S
C2038 H2052 0.960 . S
C2039 C2036 1.557 . S
C2039 H2053 0.920 1_545 S
C2039 H2054 0.936 1_545 S
C2039 H2055 0.985 . S
C2040 C2041 1.370 . S
C2040 C2042 1.363 . S
C2040 H2056 0.931 1_545 S
C2041 C2040 1.370 . S
C2041 C2045 1.408 . S
C2042 C2040 1.363 . S
C2042 C2043 1.370 . S
C2042 C2046 1.524 1_545 S
C2043 C2035 1.503 . S
C2043 C2042 1.370 . S
C2043 C2044 1.403 . S
C2044 C2043 1.403 . S
C2044 C2045 1.404 . S
C2044 C2047 1.539 . S
C2045 C2041 1.408 . S
C2045 C2044 1.404 . S
C2045 H2057 0.930 . S
C2046 C2042 1.524 1_565 S
C2046 H2058 0.956 1_565 S
C2046 H2059 0.961 . S
C2046 H2060 0.961 . S
C2047 C2044 1.539 . S
C2047 H2061 0.958 . S
C2047 H2062 0.961 . S
C2047 H2063 0.960 . S
H2048 C2032 0.931 . S
H2049 C2037 0.929 . S
H2050 C2038 0.960 . S
H2051 C2038 0.962 . S
H2052 C2038 0.960 . S
H2053 C2039 0.920 1_565 S
H2054 C2039 0.936 1_565 S
H2055 C2039 0.985 . S
H2056 C2040 0.931 1_565 S
H2057 C2045 0.930 . S
H2058 C2046 0.956 1_545 S
H2059 C2046 0.961 . S
H2060 C2046 0.961 . S
H2061 C2047 0.958 . S
H2062 C2047 0.961 . S
H2063 C2047 0.960 . S
C2064 C2065 1.391 . S
C2064 C2066 1.394 . S
C2064 H2080 0.931 . S
C2065 C2064 1.391 . S
C2065 C2069 1.376 . S
C2066 C2064 1.394 . S
C2066 C2067 1.369 . S
C2066 C2070 1.531 . S
C2067 C2066 1.369 . S
C2067 C2068 1.410 . S
C2067 C2075 1.503 . S
C2068 C2067 1.410 . S
C2068 C2069 1.392 . S
C2068 C2071 1.511 . S
C2069 C2065 1.376 . S
C2069 C2068 1.392 . S
C2069 H2081 0.929 . S
C2070 C2066 1.531 . S
C2070 H2082 0.960 . S
C2070 H2083 0.962 . S
C2070 H2084 0.960 . S
C2071 C2068 1.511 . S
C2071 H2085 0.961 . S
C2071 H2086 0.961 . S
C2071 H2087 0.961 . S
C2072 C2073 1.370 . S
C2072 C2074 1.363 . S
C2072 H2088 0.931 . S
C2073 C2072 1.370 . S
C2073 C2077 1.408 . S
C2074 C2072 1.363 . S
C2074 C2075 1.370 . S
C2074 C2078 1.524 . S
C2075 C2067 1.503 . S
C2075 C2074 1.370 . S
C2075 C2076 1.403 . S
C2076 C2075 1.403 . S
C2076 C2077 1.404 . S
C2076 C2079 1.539 . S
C2077 C2073 1.408 . S
C2077 C2076 1.404 . S
C2077 H2089 0.930 . S
C2078 C2074 1.524 . S
C2078 H2090 0.956 . S
C2078 H2091 0.961 . S
C2078 H2092 0.961 . S
C2079 C2076 1.539 . S
C2079 H2093 0.958 . S
C2079 H2094 0.961 . S
C2079 H2095 0.960 . S
H2080 C2064 0.931 . S
H2081 C2069 0.929 . S
H2082 C2070 0.960 . S
H2083 C2070 0.962 . S
H2084 C2070 0.960 . S
H2085 C2071 0.961 . S
H2086 C2071 0.961 . S
H2087 C2071 0.961 . S
H2088 C2072 0.931 . S
H2089 C2077 0.930 . S
H2090 C2078 0.956 . S
H2091 C2078 0.961 . S
H2092 C2078 0.961 . S
H2093 C2079 0.958 . S
H2094 C2079 0.961 . S
H2095 C2079 0.960 . S
C2096 C2097 1.391 . S
C2096 C2098 1.394 . S
C2096 H2112 0.931 . S
C2097 C2096 1.391 . S
C2097 C2101 1.376 . S
C2098 C2096 1.394 . S
C2098 C2099 1.369 . S
C2098 C2102 1.531 . S
C2099 C2098 1.369 . S
C2099 C2100 1.410 . S
C2099 C2107 1.503 . S
C2100 C2099 1.410 . S
C2100 C2101 1.392 . S
C2100 C2103 1.511 . S
C2101 C2097 1.376 . S
C2101 C2100 1.392 . S
C2101 H2113 0.929 . S
C2102 C2098 1.531 . S
C2102 H2114 0.960 . S
C2102 H2115 0.962 . S
C2102 H2116 0.960 . S
C2103 C2100 1.511 . S
C2103 H2117 0.961 . S
C2103 H2118 0.961 . S
C2103 H2119 0.961 . S
C2104 C2105 1.370 . S
C2104 C2106 1.363 . S
C2104 H2120 0.931 . S
C2105 C2104 1.370 . S
C2105 C2109 1.408 . S
C2106 C2104 1.363 . S
C2106 C2107 1.370 . S
C2106 C2110 1.524 . S
C2107 C2099 1.503 . S
C2107 C2106 1.370 . S
C2107 C2108 1.403 . S
C2108 C2107 1.403 . S
C2108 C2109 1.404 . S
C2108 C2111 1.539 . S
C2109 C2105 1.408 . S
C2109 C2108 1.404 . S
C2109 H2121 0.930 . S
C2110 C2106 1.524 . S
C2110 H2122 0.956 . S
C2110 H2123 0.961 . S
C2110 H2124 0.961 . S
C2111 C2108 1.539 . S
C2111 H2125 0.958 . S
C2111 H2126 0.961 . S
C2111 H2127 0.960 . S
H2112 C2096 0.931 . S
H2113 C2101 0.929 . S
H2114 C2102 0.960 . S
H2115 C2102 0.962 . S
H2116 C2102 0.960 . S
H2117 C2103 0.961 . S
H2118 C2103 0.961 . S
H2119 C2103 0.961 . S
H2120 C2104 0.931 . S
H2121 C2109 0.930 . S
H2122 C2110 0.956 . S
H2123 C2110 0.961 . S
H2124 C2110 0.961 . S
H2125 C2111 0.958 . S
H2126 C2111 0.961 . S
H2127 C2111 0.960 . S
C2128 C2129 1.391 . S
C2128 C2130 1.394 . S
C2128 H2144 0.931 . S
C2129 C2128 1.391 . S
C2129 C2133 1.376 . S
C2130 C2128 1.394 . S
C2130 C2131 1.369 . S
C2130 C2134 1.531 . S
C2131 C2130 1.369 . S
C2131 C2132 1.410 . S
C2131 C2139 1.503 . S
C2132 C2131 1.410 . S
C2132 C2133 1.392 . S
C2132 C2135 1.511 . S
C2133 C2129 1.376 . S
C2133 C2132 1.392 . S
C2133 H2145 0.929 . S
C2134 C2130 1.531 . S
C2134 H2146 0.960 . S
C2134 H2147 0.962 . S
C2134 H2148 0.960 . S
C2135 C2132 1.511 . S
C2135 H2149 0.961 . S
C2135 H2150 0.961 . S
C2135 H2151 0.961 . S
C2136 C2137 1.370 . S
C2136 C2138 1.363 . S
C2136 H2152 0.931 . S
C2137 C2136 1.370 . S
C2137 C2141 1.408 . S
C2138 C2136 1.363 . S
C2138 C2139 1.370 . S
C2138 C2142 1.524 . S
C2139 C2131 1.503 . S
C2139 C2138 1.370 . S
C2139 C2140 1.403 . S
C2140 C2139 1.403 . S
C2140 C2141 1.404 . S
C2140 C2143 1.539 . S
C2141 C2137 1.408 . S
C2141 C2140 1.404 . S
C2141 H2153 0.930 . S
C2142 C2138 1.524 . S
C2142 H2154 0.956 . S
C2142 H2155 0.961 . S
C2142 H2156 0.961 . S
C2143 C2140 1.539 . S
C2143 H2157 0.958 . S
C2143 H2158 0.961 . S
C2143 H2159 0.960 . S
H2144 C2128 0.931 . S
H2145 C2133 0.929 . S
H2146 C2134 0.960 . S
H2147 C2134 0.962 . S
H2148 C2134 0.960 . S
H2149 C2135 0.961 . S
H2150 C2135 0.961 . S
H2151 C2135 0.961 . S
H2152 C2136 0.931 . S
H2153 C2141 0.930 . S
H2154 C2142 0.956 . S
H2155 C2142 0.961 . S
H2156 C2142 0.961 . S
H2157 C2143 0.958 . S
H2158 C2143 0.961 . S
H2159 C2143 0.960 . S
C2160 C2161 1.391 . S
C2160 C2162 1.394 . S
C2160 H2176 0.931 . S
C2161 C2160 1.391 . S
C2161 C2165 1.376 . S
C2162 C2160 1.394 . S
C2162 C2163 1.369 . S
C2162 C2166 1.531 1_545 S
C2163 C2162 1.369 . S
C2163 C2164 1.410 . S
C2163 C2171 1.503 . S
C2164 C2163 1.410 . S
C2164 C2165 1.392 . S
C2164 C2167 1.511 . S
C2165 C2161 1.376 . S
C2165 C2164 1.392 . S
C2165 H2177 0.929 1_655 S
C2166 C2162 1.531 1_565 S
C2166 H2178 0.960 . S
C2166 H2179 0.962 1_565 S
C2166 H2180 0.960 . S
C2167 C2164 1.511 . S
C2167 H2181 0.961 . S
C2167 H2182 0.961 . S
C2167 H2183 0.961 1_655 S
C2168 C2169 1.370 . S
C2168 C2170 1.363 . S
C2168 H2184 0.931 . S
C2169 C2168 1.370 . S
C2169 C2173 1.408 . S
C2170 C2168 1.363 . S
C2170 C2171 1.370 . S
C2170 C2174 1.524 . S
C2171 C2163 1.503 . S
C2171 C2170 1.370 . S
C2171 C2172 1.403 . S
C2172 C2171 1.403 . S
C2172 C2173 1.404 . S
C2172 C2175 1.539 . S
C2173 C2169 1.408 . S
C2173 C2172 1.404 . S
C2173 H2185 0.930 . S
C2174 C2170 1.524 . S
C2174 H2186 0.956 . S
C2174 H2187 0.961 . S
C2174 H2188 0.961 . S
C2175 C2172 1.539 . S
C2175 H2189 0.958 1_545 S
C2175 H2190 0.961 . S
C2175 H2191 0.960 . S
H2176 C2160 0.931 . S
H2177 C2165 0.929 1_455 S
H2178 C2166 0.960 . S
H2179 C2166 0.962 1_545 S
H2180 C2166 0.960 . S
H2181 C2167 0.961 . S
H2182 C2167 0.961 . S
H2183 C2167 0.961 1_455 S
H2184 C2168 0.931 . S
H2185 C2173 0.930 . S
H2186 C2174 0.956 . S
H2187 C2174 0.961 . S
H2188 C2174 0.961 . S
H2189 C2175 0.958 1_565 S
H2190 C2175 0.961 . S
H2191 C2175 0.960 . S
C2192 C2193 1.391 . S
C2192 C2194 1.394 . S
C2192 H2208 0.931 . S
C2193 C2192 1.391 . S
C2193 C2197 1.376 . S
C2194 C2192 1.394 . S
C2194 C2195 1.369 . S
C2194 C2198 1.531 . S
C2195 C2194 1.369 . S
C2195 C2196 1.410 . S
C2195 C2203 1.503 . S
C2196 C2195 1.410 . S
C2196 C2197 1.392 . S
C2196 C2199 1.511 . S
C2197 C2193 1.376 . S
C2197 C2196 1.392 . S
C2197 H2209 0.929 . S
C2198 C2194 1.531 . S
C2198 H2210 0.960 . S
C2198 H2211 0.962 . S
C2198 H2212 0.960 . S
C2199 C2196 1.511 . S
C2199 H2213 0.961 . S
C2199 H2214 0.961 . S
C2199 H2215 0.961 . S
C2200 C2201 1.370 . S
C2200 C2202 1.363 . S
C2200 H2216 0.931 . S
C2201 C2200 1.370 . S
C2201 C2205 1.408 . S
C2202 C2200 1.363 . S
C2202 C2203 1.370 . S
C2202 C2206 1.524 . S
C2203 C2195 1.503 . S
C2203 C2202 1.370 . S
C2203 C2204 1.403 . S
C2204 C2203 1.403 . S
C2204 C2205 1.404 . S
C2204 C2207 1.539 . S
C2205 C2201 1.408 . S
C2205 C2204 1.404 . S
C2205 H2217 0.930 . S
C2206 C2202 1.524 . S
C2206 H2218 0.956 . S
C2206 H2219 0.961 . S
C2206 H2220 0.961 . S
C2207 C2204 1.539 . S
C2207 H2221 0.958 . S
C2207 H2222 0.961 . S
C2207 H2223 0.960 . S
H2208 C2192 0.931 . S
H2209 C2197 0.929 . S
H2210 C2198 0.960 . S
H2211 C2198 0.962 . S
H2212 C2198 0.960 . S
H2213 C2199 0.961 . S
H2214 C2199 0.961 . S
H2215 C2199 0.961 . S
H2216 C2200 0.931 . S
H2217 C2205 0.930 . S
H2218 C2206 0.956 . S
H2219 C2206 0.961 . S
H2220 C2206 0.961 . S
H2221 C2207 0.958 . S
H2222 C2207 0.961 . S
H2223 C2207 0.960 . S
C2224 C2225 1.391 1_455 S
C2224 C2226 1.394 . S
C2224 H2240 0.931 . S
C2225 C2224 1.391 1_655 S
C2225 C2229 1.376 . S
C2226 C2224 1.394 . S
C2226 C2227 1.369 . S
C2226 C2230 1.531 . S
C2227 C2226 1.369 . S
C2227 C2228 1.425 . S
C2227 C2235 1.503 . S
C2228 C2227 1.425 . S
C2228 C2229 1.385 1_455 S
C2228 C2231 1.504 1_455 S
C2229 C2225 1.376 . S
C2229 C2228 1.385 1_655 S
C2229 H2241 0.929 . S
C2230 C2226 1.531 . S
C2230 H2242 0.960 . S
C2230 H2243 0.962 . S
C2230 H2244 0.960 . S
C2231 C2228 1.504 1_655 S
C2231 H2245 0.961 . S
C2231 H2246 0.970 . S
C2231 H2247 0.961 . S
C2232 C2233 1.370 . S
C2232 C2234 1.363 . S
C2232 H2248 0.931 . S
C2233 C2232 1.370 . S
C2233 C2237 1.408 . S
C2234 C2232 1.363 . S
C2234 C2235 1.370 . S
C2234 C2238 1.524 . S
C2235 C2227 1.503 . S
C2235 C2234 1.370 . S
C2235 C2236 1.403 . S
C2236 C2235 1.403 . S
C2236 C2237 1.404 . S
C2236 C2239 1.539 . S
C2237 C2233 1.408 . S
C2237 C2236 1.404 . S
C2237 H2249 0.930 . S
C2238 C2234 1.524 . S
C2238 H2250 0.956 . S
C2238 H2251 0.961 . S
C2238 H2252 0.961 . S
C2239 C2236 1.539 . S
C2239 H2253 0.958 . S
C2239 H2254 0.961 . S
C2239 H2255 0.960 . S
H2240 C2224 0.931 . S
H2241 C2229 0.929 . S
H2242 C2230 0.960 . S
H2243 C2230 0.962 . S
H2244 C2230 0.960 . S
H2245 C2231 0.961 . S
H2246 C2231 0.970 . S
H2247 C2231 0.961 . S
H2248 C2232 0.931 . S
H2249 C2237 0.930 . S
H2250 C2238 0.956 . S
H2251 C2238 0.961 . S
H2252 C2238 0.961 . S
H2253 C2239 0.958 . S
H2254 C2239 0.961 . S
H2255 C2239 0.960 . S
C2256 C2257 1.391 . S
C2256 C2258 1.394 . S
C2256 H2272 0.931 . S
C2257 C2256 1.391 . S
C2257 C2261 1.376 . S
C2258 C2256 1.394 . S
C2258 C2259 1.369 . S
C2258 C2262 1.531 . S
C2259 C2258 1.369 . S
C2259 C2260 1.410 . S
C2259 C2267 1.503 . S
C2260 C2259 1.410 . S
C2260 C2261 1.392 . S
C2260 C2263 1.511 . S
C2261 C2257 1.376 . S
C2261 C2260 1.392 . S
C2261 H2273 0.929 . S
C2262 C2258 1.531 . S
C2262 H2274 0.960 . S
C2262 H2275 0.962 . S
C2262 H2276 0.960 . S
C2263 C2260 1.511 . S
C2263 H2277 0.961 . S
C2263 H2278 0.961 . S
C2263 H2279 0.961 . S
C2264 C2265 1.370 . S
C2264 C2266 1.363 . S
C2264 H2280 0.931 . S
C2265 C2264 1.370 . S
C2265 C2269 1.408 . S
C2266 C2264 1.363 . S
C2266 C2267 1.370 . S
C2266 C2270 1.524 . S
C2267 C2259 1.503 . S
C2267 C2266 1.370 . S
C2267 C2268 1.403 . S
C2268 C2267 1.403 . S
C2268 C2269 1.404 . S
C2268 C2271 1.539 . S
C2269 C2265 1.408 . S
C2269 C2268 1.404 . S
C2269 H2281 0.930 . S
C2270 C2266 1.524 . S
C2270 H2282 0.956 . S
C2270 H2283 0.961 . S
C2270 H2284 0.961 . S
C2271 C2268 1.539 . S
C2271 H2285 0.958 . S
C2271 H2286 0.961 . S
C2271 H2287 0.960 . S
H2272 C2256 0.931 . S
H2273 C2261 0.929 . S
H2274 C2262 0.960 . S
H2275 C2262 0.962 . S
H2276 C2262 0.960 . S
H2277 C2263 0.961 . S
H2278 C2263 0.961 . S
H2279 C2263 0.961 . S
H2280 C2264 0.931 . S
H2281 C2269 0.930 . S
H2282 C2270 0.956 . S
H2283 C2270 0.961 . S
H2284 C2270 0.961 . S
H2285 C2271 0.958 . S
H2286 C2271 0.961 . S
H2287 C2271 0.960 . S
C2288 C2289 1.432 . S
C2288 C2290 1.382 1_655 S
C2288 H2304 0.903 1_655 S
C2289 C2288 1.432 . S
C2289 C2293 1.376 . S
C2290 C2288 1.382 1_455 S
C2290 C2291 1.369 1_455 S
C2290 C2294 1.531 . S
C2291 C2290 1.369 1_655 S
C2291 C2292 1.410 . S
C2291 C2299 1.503 . S
C2292 C2291 1.410 . S
C2292 C2293 1.392 . S
C2292 C2295 1.511 . S
C2293 C2289 1.376 . S
C2293 C2292 1.392 . S
C2293 H2305 0.929 . S
C2294 C2290 1.531 . S
C2294 H2306 0.960 . S
C2294 H2307 0.962 . S
C2294 H2308 0.960 . S
C2295 C2292 1.511 . S
C2295 H2309 0.961 . S
C2295 H2310 0.961 . S
C2295 H2311 0.961 . S
C2296 C2297 1.370 . S
C2296 C2298 1.363 . S
C2296 H2312 0.931 . S
C2297 C2296 1.370 . S
C2297 C2301 1.408 1_656 S
C2298 C2296 1.363 . S
C2298 C2299 1.370 1_556 S
C2298 C2302 1.524 . S
C2299 C2291 1.503 . S
C2299 C2298 1.370 1_554 S
C2299 C2300 1.403 . S
C2300 C2299 1.403 . S
C2300 C2301 1.404 1_655 S
C2300 C2303 1.539 1_655 S
C2301 C2297 1.408 1_454 S
C2301 C2300 1.404 1_455 S
C2301 H2313 0.930 . S
C2302 C2298 1.524 . S
C2302 H2314 0.956 . S
C2302 H2315 0.961 . S
C2302 H2316 0.961 . S
C2303 C2300 1.539 1_455 S
C2303 H2317 0.958 . S
C2303 H2318 0.961 1_455 S
C2303 H2319 0.960 1_455 S
H2304 C2288 0.903 1_455 S
H2305 C2293 0.929 . S
H2306 C2294 0.960 . S
H2307 C2294 0.962 . S
H2308 C2294 0.960 . S
H2309 C2295 0.961 . S
H2310 C2295 0.961 . S
H2311 C2295 0.961 . S
H2312 C2296 0.931 . S
H2313 C2301 0.930 . S
H2314 C2302 0.956 . S
H2315 C2302 0.961 . S
H2316 C2302 0.961 . S
H2317 C2303 0.958 . S
H2318 C2303 0.961 1_655 S
H2319 C2303 0.960 1_655 S
C2320 C2321 1.391 . S
C2320 C2322 1.394 . S
C2320 H2336 0.931 . S
C2321 C2320 1.391 . S
C2321 C2325 1.376 . S
C2322 C2320 1.394 . S
C2322 C2323 1.369 . S
C2322 C2326 1.531 . S
C2323 C2322 1.369 . S
C2323 C2324 1.410 . S
C2323 C2331 1.503 . S
C2324 C2323 1.410 . S
C2324 C2325 1.392 . S
C2324 C2327 1.511 . S
C2325 C2321 1.376 . S
C2325 C2324 1.392 . S
C2325 H2337 0.929 . S
C2326 C2322 1.531 . S
C2326 H2338 0.960 . S
C2326 H2339 0.962 . S
C2326 H2340 0.960 . S
C2327 C2324 1.511 . S
C2327 H2341 0.961 . S
C2327 H2342 0.961 . S
C2327 H2343 0.961 . S
C2328 C2329 1.370 . S
C2328 C2330 1.363 . S
C2328 H2344 0.931 . S
C2329 C2328 1.370 . S
C2329 C2333 1.408 . S
C2330 C2328 1.363 . S
C2330 C2331 1.370 . S
C2330 C2334 1.524 . S
C2331 C2323 1.503 . S
C2331 C2330 1.370 . S
C2331 C2332 1.403 . S
C2332 C2331 1.403 . S
C2332 C2333 1.404 . S
C2332 C2335 1.539 . S
C2333 C2329 1.408 . S
C2333 C2332 1.404 . S
C2333 H2345 0.930 . S
C2334 C2330 1.524 . S
C2334 H2346 0.956 . S
C2334 H2347 0.961 . S
C2334 H2348 0.961 . S
C2335 C2332 1.539 . S
C2335 H2349 0.958 . S
C2335 H2350 0.961 . S
C2335 H2351 0.960 . S
H2336 C2320 0.931 . S
H2337 C2325 0.929 . S
H2338 C2326 0.960 . S
H2339 C2326 0.962 . S
H2340 C2326 0.960 . S
H2341 C2327 0.961 . S
H2342 C2327 0.961 . S
H2343 C2327 0.961 . S
H2344 C2328 0.931 . S
H2345 C2333 0.930 . S
H2346 C2334 0.956 . S
H2347 C2334 0.961 . S
H2348 C2334 0.961 . S
H2349 C2335 0.958 . S
H2350 C2335 0.961 . S
H2351 C2335 0.960 . S
C2352 C2353 1.391 . S
C2352 C2354 1.394 . S
C2352 H2368 0.931 . S
C2353 C2352 1.391 . S
C2353 C2357 1.376 . S
C2354 C2352 1.394 . S
C2354 C2355 1.369 . S
C2354 C2358 1.531 . S
C2355 C2354 1.369 . S
C2355 C2356 1.410 1_554 S
C2355 C2363 1.503 1_554 S
C2356 C2355 1.410 1_556 S
C2356 C2357 1.392 1_556 S
C2356 C2359 1.511 . S
C2357 C2353 1.376 . S
C2357 C2356 1.392 1_554 S
C2357 H2369 0.929 1_554 S
C2358 C2354 1.531 . S
C2358 H2370 0.960 . S
C2358 H2371 0.962 1_455 S
C2358 H2372 0.960 . S
C2359 C2356 1.511 . S
C2359 H2373 0.961 . S
C2359 H2374 0.961 . S
C2359 H2375 0.961 . S
C2360 C2361 1.370 . S
C2360 C2362 1.363 . S
C2360 H2376 0.902 1_455 S
C2361 C2360 1.370 . S
C2361 C2365 1.408 . S
C2362 C2360 1.363 . S
C2362 C2363 1.370 . S
C2362 C2366 1.524 1_455 S
C2363 C2355 1.503 1_556 S
C2363 C2362 1.370 . S
C2363 C2364 1.403 1_556 S
C2364 C2363 1.403 1_554 S
C2364 C2365 1.404 1_554 S
C2364 C2367 1.539 . S
C2365 C2361 1.408 . S
C2365 C2364 1.404 1_556 S
C2365 H2377 0.930 . S
C2366 C2362 1.524 1_655 S
C2366 H2378 0.956 . S
C2366 H2379 0.961 1_655 S
C2366 H2380 0.961 . S
C2367 C2364 1.539 . S
C2367 H2381 0.958 . S
C2367 H2382 0.961 . S
C2367 H2383 0.960 . S
H2368 C2352 0.931 . S
H2369 C2357 0.929 1_556 S
H2370 C2358 0.960 . S
H2371 C2358 0.962 1_655 S
H2372 C2358 0.960 . S
H2373 C2359 0.961 . S
H2374 C2359 0.961 . S
H2375 C2359 0.961 . S
H2376 C2360 0.902 1_655 S
H2377 C2365 0.930 . S
H2378 C2366 0.956 . S
H2379 C2366 0.961 1_455 S
H2380 C2366 0.961 . S
H2381 C2367 0.958 . S
H2382 C2367 0.961 . S
H2383 C2367 0.960 . S
C2384 C2385 1.391 . S
C2384 C2386 1.394 . S
C2384 H2400 0.931 . S
C2385 C2384 1.391 . S
C2385 C2389 1.376 . S
C2386 C2384 1.394 . S
C2386 C2387 1.369 . S
C2386 C2390 1.531 . S
C2387 C2386 1.369 . S
C2387 C2388 1.410 . S
C2387 C2395 1.503 . S
C2388 C2387 1.410 . S
C2388 C2389 1.392 . S
C2388 C2391 1.511 . S
C2389 C2385 1.376 . S
C2389 C2388 1.392 . S
C2389 H2401 0.929 . S
C2390 C2386 1.531 . S
C2390 H2402 0.960 . S
C2390 H2403 0.962 . S
C2390 H2404 0.960 . S
C2391 C2388 1.511 . S
C2391 H2405 0.961 . S
C2391 H2406 0.961 . S
C2391 H2407 0.961 . S
C2392 C2393 1.370 . S
C2392 C2394 1.363 . S
C2392 H2408 0.931 . S
C2393 C2392 1.370 . S
C2393 C2397 1.408 . S
C2394 C2392 1.363 . S
C2394 C2395 1.370 . S
C2394 C2398 1.524 . S
C2395 C2387 1.503 . S
C2395 C2394 1.370 . S
C2395 C2396 1.403 . S
C2396 C2395 1.403 . S
C2396 C2397 1.404 . S
C2396 C2399 1.539 . S
C2397 C2393 1.408 . S
C2397 C2396 1.404 . S
C2397 H2409 0.930 . S
C2398 C2394 1.524 . S
C2398 H2410 0.956 . S
C2398 H2411 0.961 . S
C2398 H2412 0.961 . S
C2399 C2396 1.539 . S
C2399 H2413 0.958 . S
C2399 H2414 0.961 . S
C2399 H2415 0.960 . S
H2400 C2384 0.931 . S
H2401 C2389 0.929 . S
H2402 C2390 0.960 . S
H2403 C2390 0.962 . S
H2404 C2390 0.960 . S
H2405 C2391 0.961 . S
H2406 C2391 0.961 . S
H2407 C2391 0.961 . S
H2408 C2392 0.931 . S
H2409 C2397 0.930 . S
H2410 C2398 0.956 . S
H2411 C2398 0.961 . S
H2412 C2398 0.961 . S
H2413 C2399 0.958 . S
H2414 C2399 0.961 . S
H2415 C2399 0.960 . S
C2416 C2417 1.391 . S
C2416 C2418 1.394 . S
C2416 H2432 0.931 . S
C2417 C2416 1.391 . S
C2417 C2421 1.376 . S
C2418 C2416 1.394 . S
C2418 C2419 1.369 . S
C2418 C2422 1.531 . S
C2419 C2418 1.369 . S
C2419 C2420 1.410 . S
C2419 C2427 1.503 . S
C2420 C2419 1.410 . S
C2420 C2421 1.392 . S
C2420 C2423 1.511 . S
C2421 C2417 1.376 . S
C2421 C2420 1.392 . S
C2421 H2433 0.929 . S
C2422 C2418 1.531 . S
C2422 H2434 0.960 . S
C2422 H2435 0.962 . S
C2422 H2436 0.960 . S
C2423 C2420 1.511 . S
C2423 H2437 0.961 . S
C2423 H2438 0.961 . S
C2423 H2439 0.961 . S
C2424 C2425 1.370 . S
C2424 C2426 1.363 . S
C2424 H2440 0.931 . S
C2425 C2424 1.370 . S
C2425 C2429 1.408 . S
C2426 C2424 1.363 . S
C2426 C2427 1.370 . S
C2426 C2430 1.524 . S
C2427 C2419 1.503 . S
C2427 C2426 1.370 . S
C2427 C2428 1.403 . S
C2428 C2427 1.403 . S
C2428 C2429 1.404 . S
C2428 C2431 1.539 . S
C2429 C2425 1.408 . S
C2429 C2428 1.404 . S
C2429 H2441 0.930 . S
C2430 C2426 1.524 . S
C2430 H2442 0.956 . S
C2430 H2443 0.961 . S
C2430 H2444 0.961 . S
C2431 C2428 1.539 . S
C2431 H2445 0.958 . S
C2431 H2446 0.961 . S
C2431 H2447 0.960 . S
H2432 C2416 0.931 . S
H2433 C2421 0.929 . S
H2434 C2422 0.960 . S
H2435 C2422 0.962 . S
H2436 C2422 0.960 . S
H2437 C2423 0.961 . S
H2438 C2423 0.961 . S
H2439 C2423 0.961 . S
H2440 C2424 0.931 . S
H2441 C2429 0.930 . S
H2442 C2430 0.956 . S
H2443 C2430 0.961 . S
H2444 C2430 0.961 . S
H2445 C2431 0.958 . S
H2446 C2431 0.961 . S
H2447 C2431 0.960 . S
C2448 C2449 1.391 . S
C2448 C2450 1.394 . S
C2448 H2464 0.931 . S
C2449 C2448 1.391 . S
C2449 C2453 1.376 . S
C2450 C2448 1.394 . S
C2450 C2451 1.369 . S
C2450 C2454 1.531 . S
C2451 C2450 1.369 . S
C2451 C2452 1.410 . S
C2451 C2459 1.503 . S
C2452 C2451 1.410 . S
C2452 C2453 1.392 . S
C2452 C2455 1.511 . S
C2453 C2449 1.376 . S
C2453 C2452 1.392 . S
C2453 H2465 0.929 . S
C2454 C2450 1.531 . S
C2454 H2466 0.960 . S
C2454 H2467 0.962 . S
C2454 H2468 0.960 . S
C2455 C2452 1.511 . S
C2455 H2469 0.961 . S
C2455 H2470 0.961 . S
C2455 H2471 0.961 . S
C2456 C2457 1.370 . S
C2456 C2458 1.363 . S
C2456 H2472 0.931 . S
C2457 C2456 1.370 . S
C2457 C2461 1.408 . S
C2458 C2456 1.363 . S
C2458 C2459 1.370 . S
C2458 C2462 1.524 . S
C2459 C2451 1.503 . S
C2459 C2458 1.370 . S
C2459 C2460 1.403 . S
C2460 C2459 1.403 . S
C2460 C2461 1.404 . S
C2460 C2463 1.539 . S
C2461 C2457 1.408 . S
C2461 C2460 1.404 . S
C2461 H2473 0.930 . S
C2462 C2458 1.524 . S
C2462 H2474 0.956 . S
C2462 H2475 0.961 . S
C2462 H2476 0.961 . S
C2463 C2460 1.539 . S
C2463 H2477 0.958 . S
C2463 H2478 0.961 . S
C2463 H2479 0.960 . S
H2464 C2448 0.931 . S
H2465 C2453 0.929 . S
H2466 C2454 0.960 . S
H2467 C2454 0.962 . S
H2468 C2454 0.960 . S
H2469 C2455 0.961 . S
H2470 C2455 0.961 . S
H2471 C2455 0.961 . S
H2472 C2456 0.931 . S
H2473 C2461 0.930 . S
H2474 C2462 0.956 . S
H2475 C2462 0.961 . S
H2476 C2462 0.961 . S
H2477 C2463 0.958 . S
H2478 C2463 0.961 . S
H2479 C2463 0.960 . S
C2480 C2481 1.391 . S
C2480 C2482 1.394 . S
C2480 H2496 0.931 . S
C2481 C2480 1.391 . S
C2481 C2485 1.376 . S
C2482 C2480 1.394 . S
C2482 C2483 1.369 . S
C2482 C2486 1.531 . S
C2483 C2482 1.369 . S
C2483 C2484 1.410 . S
C2483 C2491 1.503 . S
C2484 C2483 1.410 . S
C2484 C2485 1.392 . S
C2484 C2487 1.511 . S
C2485 C2481 1.376 . S
C2485 C2484 1.392 . S
C2485 H2497 0.929 . S
C2486 C2482 1.531 . S
C2486 H2498 0.960 . S
C2486 H2499 0.962 . S
C2486 H2500 0.960 . S
C2487 C2484 1.511 . S
C2487 H2501 0.961 . S
C2487 H2502 0.961 . S
C2487 H2503 0.961 . S
C2488 C2489 1.370 . S
C2488 C2490 1.363 . S
C2488 H2504 0.931 . S
C2489 C2488 1.370 . S
C2489 C2493 1.408 . S
C2490 C2488 1.363 . S
C2490 C2491 1.370 . S
C2490 C2494 1.524 . S
C2491 C2483 1.503 . S
C2491 C2490 1.370 . S
C2491 C2492 1.403 . S
C2492 C2491 1.403 . S
C2492 C2493 1.404 . S
C2492 C2495 1.539 . S
C2493 C2489 1.408 . S
C2493 C2492 1.404 . S
C2493 H2505 0.930 . S
C2494 C2490 1.524 . S
C2494 H2506 0.956 . S
C2494 H2507 0.961 . S
C2494 H2508 0.961 . S
C2495 C2492 1.539 . S
C2495 H2509 0.958 . S
C2495 H2510 0.961 . S
C2495 H2511 0.960 . S
H2496 C2480 0.931 . S
H2497 C2485 0.929 . S
H2498 C2486 0.960 . S
H2499 C2486 0.962 . S
H2500 C2486 0.960 . S
H2501 C2487 0.961 . S
H2502 C2487 0.961 . S
H2503 C2487 0.961 . S
H2504 C2488 0.931 . S
H2505 C2493 0.930 . S
H2506 C2494 0.956 . S
H2507 C2494 0.961 . S
H2508 C2494 0.961 . S
H2509 C2495 0.958 . S
H2510 C2495 0.961 . S
H2511 C2495 0.960 . S
C2512 C2513 1.391 . S
C2512 C2514 1.394 . S
C2512 H2528 0.931 . S
C2513 C2512 1.391 . S
C2513 C2517 1.376 . S
C2514 C2512 1.394 . S
C2514 C2515 1.369 . S
C2514 C2518 1.531 . S
C2515 C2514 1.369 . S
C2515 C2516 1.410 . S
C2515 C2523 1.503 . S
C2516 C2515 1.410 . S
C2516 C2517 1.392 . S
C2516 C2519 1.511 . S
C2517 C2513 1.376 . S
C2517 C2516 1.392 . S
C2517 H2529 0.929 . S
C2518 C2514 1.531 . S
C2518 H2530 0.960 . S
C2518 H2531 0.962 . S
C2518 H2532 0.960 . S
C2519 C2516 1.511 . S
C2519 H2533 0.961 . S
C2519 H2534 0.961 . S
C2519 H2535 0.961 . S
C2520 C2521 1.370 . S
C2520 C2522 1.363 . S
C2520 H2536 0.931 . S
C2521 C2520 1.370 . S
C2521 C2525 1.408 . S
C2522 C2520 1.363 . S
C2522 C2523 1.370 . S
C2522 C2526 1.524 . S
C2523 C2515 1.503 . S
C2523 C2522 1.370 . S
C2523 C2524 1.403 . S
C2524 C2523 1.403 . S
C2524 C2525 1.404 . S
C2524 C2527 1.539 . S
C2525 C2521 1.408 . S
C2525 C2524 1.404 . S
C2525 H2537 0.930 . S
C2526 C2522 1.524 . S
C2526 H2538 0.956 . S
C2526 H2539 0.961 . S
C2526 H2540 0.961 . S
C2527 C2524 1.539 . S
C2527 H2541 0.958 . S
C2527 H2542 0.961 . S
C2527 H2543 0.960 . S
H2528 C2512 0.931 . S
H2529 C2517 0.929 . S
H2530 C2518 0.960 . S
H2531 C2518 0.962 . S
H2532 C2518 0.960 . S
H2533 C2519 0.961 . S
H2534 C2519 0.961 . S
H2535 C2519 0.961 . S
H2536 C2520 0.931 . S
H2537 C2525 0.930 . S
H2538 C2526 0.956 . S
H2539 C2526 0.961 . S
H2540 C2526 0.961 . S
H2541 C2527 0.958 . S
H2542 C2527 0.961 . S
H2543 C2527 0.960 . S
C2544 C2545 1.391 . S
C2544 C2546 1.394 . S
C2544 H2560 0.931 . S
C2545 C2544 1.391 . S
C2545 C2549 1.376 . S
C2546 C2544 1.394 . S
C2546 C2547 1.369 . S
C2546 C2550 1.531 . S
C2547 C2546 1.369 . S
C2547 C2548 1.410 . S
C2547 C2555 1.503 . S
C2548 C2547 1.410 . S
C2548 C2549 1.392 . S
C2548 C2551 1.511 . S
C2549 C2545 1.376 . S
C2549 C2548 1.392 . S
C2549 H2561 0.929 . S
C2550 C2546 1.531 . S
C2550 H2562 0.960 . S
C2550 H2563 0.962 . S
C2550 H2564 0.960 . S
C2551 C2548 1.511 . S
C2551 H2565 0.961 . S
C2551 H2566 0.961 . S
C2551 H2567 0.961 . S
C2552 C2553 1.370 . S
C2552 C2554 1.363 . S
C2552 H2568 0.931 . S
C2553 C2552 1.370 . S
C2553 C2557 1.408 . S
C2554 C2552 1.363 . S
C2554 C2555 1.370 . S
C2554 C2558 1.524 . S
C2555 C2547 1.503 . S
C2555 C2554 1.370 . S
C2555 C2556 1.403 . S
C2556 C2555 1.403 . S
C2556 C2557 1.404 . S
C2556 C2559 1.539 . S
C2557 C2553 1.408 . S
C2557 C2556 1.404 . S
C2557 H2569 0.930 . S
C2558 C2554 1.524 . S
C2558 H2570 0.956 . S
C2558 H2571 0.961 . S
C2558 H2572 0.961 . S
C2559 C2556 1.539 . S
C2559 H2573 0.958 . S
C2559 H2574 0.961 . S
C2559 H2575 0.960 . S
H2560 C2544 0.931 . S
H2561 C2549 0.929 . S
H2562 C2550 0.960 . S
H2563 C2550 0.962 . S
H2564 C2550 0.960 . S
H2565 C2551 0.961 . S
H2566 C2551 0.961 . S
H2567 C2551 0.961 . S
H2568 C2552 0.931 . S
H2569 C2557 0.930 . S
H2570 C2558 0.956 . S
H2571 C2558 0.961 . S
H2572 C2558 0.961 . S
H2573 C2559 0.958 . S
H2574 C2559 0.961 . S
H2575 C2559 0.960 . S
C2576 C2577 1.391 . S
C2576 C2578 1.394 . S
C2576 H2592 0.931 . S
C2577 C2576 1.391 . S
C2577 C2581 1.376 . S
C2578 C2576 1.394 . S
C2578 C2579 1.369 . S
C2578 C2582 1.531 . S
C2579 C2578 1.369 . S
C2579 C2580 1.410 . S
C2579 C2587 1.503 . S
C2580 C2579 1.410 . S
C2580 C2581 1.392 . S
C2580 C2583 1.511 . S
C2581 C2577 1.376 . S
C2581 C2580 1.392 . S
C2581 H2593 0.929 . S
C2582 C2578 1.531 . S
C2582 H2594 0.960 . S
C2582 H2595 0.962 . S
C2582 H2596 0.960 . S
C2583 C2580 1.511 . S
C2583 H2597 0.961 . S
C2583 H2598 0.961 . S
C2583 H2599 0.961 . S
C2584 C2585 1.370 . S
C2584 C2586 1.363 . S
C2584 H2600 0.931 . S
C2585 C2584 1.370 . S
C2585 C2589 1.408 . S
C2586 C2584 1.363 . S
C2586 C2587 1.370 . S
C2586 C2590 1.524 . S
C2587 C2579 1.503 . S
C2587 C2586 1.370 . S
C2587 C2588 1.403 . S
C2588 C2587 1.403 . S
C2588 C2589 1.404 . S
C2588 C2591 1.539 . S
C2589 C2585 1.408 . S
C2589 C2588 1.404 . S
C2589 H2601 0.930 . S
C2590 C2586 1.524 . S
C2590 H2602 0.956 . S
C2590 H2603 0.961 . S
C2590 H2604 0.961 . S
C2591 C2588 1.539 . S
C2591 H2605 0.958 . S
C2591 H2606 0.961 . S
C2591 H2607 0.960 . S
H2592 C2576 0.931 . S
H2593 C2581 0.929 . S
H2594 C2582 0.960 . S
H2595 C2582 0.962 . S
H2596 C2582 0.960 . S
H2597 C2583 0.961 . S
H2598 C2583 0.961 . S
H2599 C2583 0.961 . S
H2600 C2584 0.931 . S
H2601 C2589 0.930 . S
H2602 C2590 0.956 . S
H2603 C2590 0.961 . S
H2604 C2590 0.961 . S
H2605 C2591 0.958 . S
H2606 C2591 0.961 . S
H2607 C2591 0.960 . S
C2608 C2609 1.391 . S
C2608 C2610 1.394 . S
C2608 H2624 0.931 . S
C2609 C2608 1.391 . S
C2609 C2613 1.376 . S
C2610 C2608 1.394 . S
C2610 C2611 1.369 . S
C2610 C2614 1.531 . S
C2611 C2610 1.369 . S
C2611 C2612 1.410 . S
C2611 C2619 1.503 . S
C2612 C2611 1.410 . S
C2612 C2613 1.392 . S
C2612 C2615 1.511 . S
C2613 C2609 1.376 . S
C2613 C2612 1.392 . S
C2613 H2625 0.929 . S
C2614 C2610 1.531 . S
C2614 H2626 0.960 . S
C2614 H2627 0.962 . S
C2614 H2628 0.960 . S
C2615 C2612 1.511 . S
C2615 H2629 0.961 . S
C2615 H2630 0.961 . S
C2615 H2631 0.961 . S
C2616 C2617 1.370 . S
C2616 C2618 1.363 . S
C2616 H2632 0.931 . S
C2617 C2616 1.370 . S
C2617 C2621 1.408 . S
C2618 C2616 1.363 . S
C2618 C2619 1.370 . S
C2618 C2622 1.524 . S
C2619 C2611 1.503 . S
C2619 C2618 1.370 . S
C2619 C2620 1.403 . S
C2620 C2619 1.403 . S
C2620 C2621 1.404 . S
C2620 C2623 1.539 . S
C2621 C2617 1.408 . S
C2621 C2620 1.404 . S
C2621 H2633 0.930 . S
C2622 C2618 1.524 . S
C2622 H2634 0.956 . S
C2622 H2635 0.961 . S
C2622 H2636 0.961 . S
C2623 C2620 1.539 . S
C2623 H2637 0.958 . S
C2623 H2638 0.961 . S
C2623 H2639 0.960 . S
H2624 C2608 0.931 . S
H2625 C2613 0.929 . S
H2626 C2614 0.960 . S
H2627 C2614 0.962 . S
H2628 C2614 0.960 . S
H2629 C2615 0.961 . S
H2630 C2615 0.961 . S
H2631 C2615 0.961 . S
H2632 C2616 0.931 . S
H2633 C2621 0.930 . S
H2634 C2622 0.956 . S
H2635 C2622 0.961 . S
H2636 C2622 0.961 . S
H2637 C2623 0.958 . S
H2638 C2623 0.961 . S
H2639 C2623 0.960 . S
C2640 C2641 1.391 . S
C2640 C2642 1.394 . S
C2640 H2656 0.931 . S
C2641 C2640 1.391 . S
C2641 C2645 1.376 . S
C2642 C2640 1.394 . S
C2642 C2643 1.369 . S
C2642 C2646 1.538 . S
C2643 C2642 1.369 . S
C2643 C2644 1.410 . S
C2643 C2651 1.503 . S
C2644 C2643 1.410 . S
C2644 C2645 1.392 . S
C2644 C2647 1.511 . S
C2645 C2641 1.376 . S
C2645 C2644 1.392 . S
C2645 H2657 0.929 . S
C2646 C2642 1.538 . S
C2646 H2658 0.952 1_556 S
C2646 H2659 0.978 . S
C2646 H2660 0.946 1_556 S
C2647 C2644 1.511 . S
C2647 H2661 0.961 . S
C2647 H2662 0.961 . S
C2647 H2663 0.961 . S
C2648 C2649 1.370 . S
C2648 C2650 1.363 . S
C2648 H2664 0.931 . S
C2649 C2648 1.370 . S
C2649 C2653 1.408 1_556 S
C2650 C2648 1.363 . S
C2650 C2651 1.370 . S
C2650 C2654 1.524 . S
C2651 C2643 1.503 . S
C2651 C2650 1.370 . S
C2651 C2652 1.403 1_556 S
C2652 C2651 1.403 1_554 S
C2652 C2653 1.404 . S
C2652 C2655 1.539 . S
C2653 C2649 1.408 1_554 S
C2653 C2652 1.404 . S
C2653 H2665 0.930 . S
C2654 C2650 1.524 . S
C2654 H2666 0.956 . S
C2654 H2667 0.961 . S
C2654 H2668 0.961 . S
C2655 C2652 1.539 . S
C2655 H2669 0.958 . S
C2655 H2670 0.961 . S
C2655 H2671 0.960 . S
H2656 C2640 0.931 . S
H2657 C2645 0.929 . S
H2658 C2646 0.952 1_554 S
H2659 C2646 0.978 . S
H2660 C2646 0.946 1_554 S
H2661 C2647 0.961 . S
H2662 C2647 0.961 . S
H2663 C2647 0.961 . S
H2664 C2648 0.931 . S
H2665 C2653 0.930 . S
H2666 C2654 0.956 . S
H2667 C2654 0.961 . S
H2668 C2654 0.961 . S
H2669 C2655 0.958 . S
H2670 C2655 0.961 . S
H2671 C2655 0.960 . S
C2672 C2673 1.391 . S
C2672 C2674 1.394 . S
C2672 H2688 0.931 . S
C2673 C2672 1.391 . S
C2673 C2677 1.376 . S
C2674 C2672 1.394 . S
C2674 C2675 1.369 . S
C2674 C2678 1.531 . S
C2675 C2674 1.369 . S
C2675 C2676 1.410 . S
C2675 C2683 1.503 . S
C2676 C2675 1.410 . S
C2676 C2677 1.392 . S
C2676 C2679 1.511 . S
C2677 C2673 1.376 . S
C2677 C2676 1.392 . S
C2677 H2689 0.929 . S
C2678 C2674 1.531 . S
C2678 H2690 0.960 . S
C2678 H2691 0.962 . S
C2678 H2692 0.960 . S
C2679 C2676 1.511 . S
C2679 H2693 0.961 . S
C2679 H2694 0.961 . S
C2679 H2695 0.961 . S
C2680 C2681 1.370 . S
C2680 C2682 1.363 . S
C2680 H2696 0.931 . S
C2681 C2680 1.370 . S
C2681 C2685 1.408 . S
C2682 C2680 1.363 . S
C2682 C2683 1.370 . S
C2682 C2686 1.524 . S
C2683 C2675 1.503 . S
C2683 C2682 1.370 . S
C2683 C2684 1.403 . S
C2684 C2683 1.403 . S
C2684 C2685 1.404 . S
C2684 C2687 1.539 . S
C2685 C2681 1.408 . S
C2685 C2684 1.404 . S
C2685 H2697 0.930 . S
C2686 C2682 1.524 . S
C2686 H2698 0.956 . S
C2686 H2699 0.961 . S
C2686 H2700 0.961 . S
C2687 C2684 1.539 . S
C2687 H2701 0.958 . S
C2687 H2702 0.961 . S
C2687 H2703 0.960 . S
H2688 C2672 0.931 . S
H2689 C2677 0.929 . S
H2690 C2678 0.960 . S
H2691 C2678 0.962 . S
H2692 C2678 0.960 . S
H2693 C2679 0.961 . S
H2694 C2679 0.961 . S
H2695 C2679 0.961 . S
H2696 C2680 0.931 . S
H2697 C2685 0.930 . S
H2698 C2686 0.956 . S
H2699 C2686 0.961 . S
H2700 C2686 0.961 . S
H2701 C2687 0.958 . S
H2702 C2687 0.961 . S
H2703 C2687 0.960 . S
C2704 C2705 1.391 . S
C2704 C2706 1.394 . S
C2704 H2720 0.931 . S
C2705 C2704 1.391 . S
C2705 C2709 1.376 . S
C2706 C2704 1.394 . S
C2706 C2707 1.369 . S
C2706 C2710 1.531 . S
C2707 C2706 1.369 . S
C2707 C2708 1.410 . S
C2707 C2715 1.503 . S
C2708 C2707 1.410 . S
C2708 C2709 1.392 . S
C2708 C2711 1.511 . S
C2709 C2705 1.376 . S
C2709 C2708 1.392 . S
C2709 H2721 0.929 . S
C2710 C2706 1.531 . S
C2710 H2722 0.960 . S
C2710 H2723 0.962 . S
C2710 H2724 0.960 . S
C2711 C2708 1.511 . S
C2711 H2725 0.961 . S
C2711 H2726 0.961 . S
C2711 H2727 0.961 . S
C2712 C2713 1.370 . S
C2712 C2714 1.363 . S
C2712 H2728 0.931 . S
C2713 C2712 1.370 . S
C2713 C2717 1.408 . S
C2714 C2712 1.363 . S
C2714 C2715 1.370 . S
C2714 C2718 1.524 . S
C2715 C2707 1.503 . S
C2715 C2714 1.370 . S
C2715 C2716 1.403 . S
C2716 C2715 1.403 . S
C2716 C2717 1.404 . S
C2716 C2719 1.539 . S
C2717 C2713 1.408 . S
C2717 C2716 1.404 . S
C2717 H2729 0.930 . S
C2718 C2714 1.524 . S
C2718 H2730 0.956 . S
C2718 H2731 0.961 . S
C2718 H2732 0.961 1_554 S
C2719 C2716 1.539 . S
C2719 H2733 0.958 . S
C2719 H2734 0.961 . S
C2719 H2735 0.960 . S
H2720 C2704 0.931 . S
H2721 C2709 0.929 . S
H2722 C2710 0.960 . S
H2723 C2710 0.962 . S
H2724 C2710 0.960 . S
H2725 C2711 0.961 . S
H2726 C2711 0.961 . S
H2727 C2711 0.961 . S
H2728 C2712 0.931 . S
H2729 C2717 0.930 . S
H2730 C2718 0.956 . S
H2731 C2718 0.961 . S
H2732 C2718 0.961 1_556 S
H2733 C2719 0.958 . S
H2734 C2719 0.961 . S
H2735 C2719 0.960 . S
C2736 C2737 1.391 . S
C2736 C2738 1.394 . S
C2736 H2752 0.931 1_565 S
C2737 C2736 1.391 . S
C2737 C2741 1.376 . S
C2738 C2736 1.394 . S
C2738 C2739 1.369 . S
C2738 C2742 1.531 . S
C2739 C2738 1.369 . S
C2739 C2740 1.410 . S
C2739 C2747 1.503 . S
C2740 C2739 1.410 . S
C2740 C2741 1.392 . S
C2740 C2743 1.511 . S
C2741 C2737 1.376 . S
C2741 C2740 1.392 . S
C2741 H2753 0.929 . S
C2742 C2738 1.531 . S
C2742 H2754 0.960 . S
C2742 H2755 0.962 . S
C2742 H2756 0.960 1_565 S
C2743 C2740 1.511 . S
C2743 H2757 0.961 . S
C2743 H2758 0.961 . S
C2743 H2759 0.961 . S
C2744 C2745 1.370 1_556 S
C2744 C2746 1.369 . S
C2744 H2760 0.931 . S
C2745 C2744 1.370 1_554 S
C2745 C2749 1.408 . S
C2746 C2744 1.369 . S
C2746 C2747 1.346 1_556 S
C2746 C2750 1.544 . S
C2747 C2739 1.503 . S
C2747 C2746 1.346 1_554 S
C2747 C2748 1.403 . S
C2748 C2747 1.403 . S
C2748 C2749 1.404 . S
C2748 C2751 1.539 . S
C2749 C2745 1.408 . S
C2749 C2748 1.404 . S
C2749 H2761 0.930 . S
C2750 C2746 1.544 . S
C2750 H2762 0.956 . S
C2750 H2763 0.961 . S
C2750 H2764 0.961 . S
C2751 C2748 1.539 . S
C2751 H2765 0.958 . S
C2751 H2766 0.961 . S
C2751 H2767 0.960 . S
H2752 C2736 0.931 1_545 S
H2753 C2741 0.929 . S
H2754 C2742 0.960 . S
H2755 C2742 0.962 . S
H2756 C2742 0.960 1_545 S
H2757 C2743 0.961 . S
H2758 C2743 0.961 . S
H2759 C2743 0.961 . S
H2760 C2744 0.931 . S
H2761 C2749 0.930 . S
H2762 C2750 0.956 . S
H2763 C2750 0.961 . S
H2764 C2750 0.961 . S
H2765 C2751 0.958 . S
H2766 C2751 0.961 . S
H2767 C2751 0.960 . S
C1241 C225 1.220 . S
C1233 C62 1.186 . S
C1273 C284 1.598 . S
C1265 C73 1.560 1_455 S
C1297 C84 1.454 . S
C1305 C401 1.541 . S
C1337 C469 1.214 . S
C1329 C49 1.070 . S
C1369 C548 1.348 . S
C1361 C118 1.336 . S
C1401 C673 1.658 . S
C1393 C137 1.437 . S
C1425 C129 1.555 . S
C1433 C733 1.590 . S
C1465 C841 1.946 . S
C1457 C106 1.920 . S
C1489 C128 1.882 . S
C1497 C937 1.936 . S
C1529 C997 1.686 . S
C1521 C104 1.490 . S
C1553 C115 1.626 . S
C1561 C900 1.867 . S
C1593 C1017 1.830 . S
C1585 C139 1.776 . S
C1617 C85 1.567 . S
C1625 C1085 1.570 . S
C1649 C52 1.154 . S
C1657 C1076 1.162 . S
C1681 C60 0.768 . S
C1689 C1105 0.968 . S
C1713 C71 1.399 1_655 S
C1721 C1113 1.563 . S
C1745 C40 1.726 . S
C1753 C497 1.784 . S
C1777 C162 1.049 . S
C1785 C460 1.088 . S
C1817 C196 1.086 . S
C1809 C173 1.080 . S
C1849 C293 1.786 . S
C1841 C93 1.577 . S
C1873 C51 1.437 1_545 S
C1881 C557 1.482 . S
C1913 C849 1.519 . S
C1905 C126 1.311 . S
C1945 C577 1.808 . S
C1937 C107 1.809 . S
C1977 C761 1.601 . S
C1969 C140 1.576 . S
C2009 C753 1.222 . S
C2001 C161 1.151 . S
C2033 C172 1.555 . S
C2041 C821 1.593 . S
C2065 C95 1.512 . S
C2073 C585 1.539 . S
C2105 C636 1.216 . S
C2097 C148 1.016 . S
C2129 C41 1.347 . S
C2137 C381 1.349 . S
C2169 C489 1.659 . S
C2161 C5 1.396 1_655 S
C2201 C205 1.584 . S
C2193 C19 1.572 . S
C2233 C321 1.944 . S
C2225 C29 1.881 . S
C2257 C18 1.835 . S
C2265 C1025 1.935 . S
C2289 C27 1.514 . S
C2297 C909 1.685 1_655 S
C2321 C38 1.631 . S
C2329 C988 1.867 . S
C2353 C7 1.721 . S
C2361 C929 1.837 . S
C2393 C1173 1.573 . S
C2385 C96 1.574 . S
C2425 C1164 1.163 . S
C2417 C151 1.151 . S
C2457 C1193 0.964 . S
C2449 C159 0.830 . S
C2481 C170 1.484 . S
C2489 C1201 1.573 . S
C2513 C117 1.695 . S
C2521 C665 1.789 . S
C2553 C645 1.089 . S
C2545 C63 1.037 . S
C2585 C724 1.086 . S
C2577 C74 1.079 . S
C2617 C812 1.791 . S
C2609 C82 1.646 . S
C2641 C150 1.421 . S
C2649 C372 1.479 . S
C2681 C313 1.515 . S
C2673 C16 1.285 . S
C2705 C30 1.803 . S
C2713 C409 1.810 . S
C2745 C233 1.600 . S
C2737 C8 1.568 1_565 S
