# Generated by pormake.
# Topology bcu-b, (8,8)-cn, num edge types: 1
# Building blocks:
#     Node 0, Type 0, BuildingBlock: VETTIZ_charged_sbu_0, # of connection points: 8
#     Node 1, Type 1, BuildingBlock: VETTIZ_charged_sbu_0, # of connection points: 8
#     Edge 2, Type (0, 1), BuildingBlock: XUDNAN_clean_linker_2, # of connection points: 2
#     Edge 3, Type (0, 1), BuildingBlock: XUDNAN_clean_linker_2, # of connection points: 2
#     Edge 4, Type (0, 1), BuildingBlock: XUDNAN_clean_linker_2, # of connection points: 2
#     Edge 5, Type (0, 1), BuildingBlock: XUDNAN_clean_linker_2, # of connection points: 2
#     Edge 6, Type (0, 1), BuildingBlock: XUDNAN_clean_linker_2, # of connection points: 2
#     Edge 7, Type (0, 1), BuildingBlock: XUDNAN_clean_linker_2, # of connection points: 2
#     Edge 8, Type (0, 1), BuildingBlock: XUDNAN_clean_linker_2, # of connection points: 2
#     Edge 9, Type (0, 1), BuildingBlock: XUDNAN_clean_linker_2, # of connection points: 2
# Relax obj value: 0.000
# Max RMSD: 0.009
# Mean RMSD: 0.009
data_MOF--net-bcu-b--node1-VETTIZ_charged_sbu_0--node2-VETTIZ_charged_sbu_0--edge1-XUDNAN_clean_linker_2
_symmetry_space_group_name_H-M    P1
_symmetry_Int_Tables_number       1
_symmetry_cell_setting            triclinic
loop_
_symmetry_equiv_pos_as_xyz
'x, y, z'
_cell_length_a     19.305093
_cell_length_b     19.704654
_cell_length_c     20.037772
_cell_angle_alpha  90.438029
_cell_angle_beta   88.397476
_cell_angle_gamma 88.357501
loop_
_atom_site_label
_atom_site_type_symbol
_atom_site_fract_x
_atom_site_fract_y
_atom_site_fract_z
_atom_type_partial_charge
Fe0 Fe 0.98886 0.85693 0.99969 0.0
O1 O 0.97966 0.95692 0.00338 0.0
Fe2 Fe 0.02324 1.00982 0.92226 0.0
Fe3 Fe 1.01723 1.01246 0.07722 0.0
O4 O 0.98168 0.95609 0.99664 0.0
O5 O 0.06081 0.06532 0.99611 0.0
O6 O 0.05876 0.06617 0.00283 0.0
Fe7 Fe 0.05182 0.1653 0.99969 0.0
C8 C 0.92375 0.89888 0.13428 0.0
O9 O 0.0647 0.85003 0.07109 0.0
O10 O 0.10631 0.95383 0.07755 0.0
O11 O 0.12215 0.15558 0.92139 0.0
O12 O 0.07427 0.07452 0.85384 0.0
O13 O 0.11254 0.94928 0.91808 0.0
O14 O 0.06411 0.84853 0.92527 0.0
O15 O 0.06662 0.07679 0.14457 0.0
O16 O 0.11965 0.15519 0.07646 0.0
C17 C 0.11351 0.8857 0.90632 0.0
O18 O 0.97624 0.17222 0.92802 0.0
O19 O 0.93424 0.06857 0.92191 0.0
O20 O 0.91886 0.86627 0.07831 0.0
O21 O 0.96642 0.9477 0.14566 0.0
C22 C 0.11134 0.89066 0.0885 0.0
C23 C 0.11261 0.12285 0.13249 0.0
C24 C 0.9269 0.13665 0.09293 0.0
O25 O 0.92793 0.07301 0.08143 0.0
O26 O 0.97625 0.17384 0.07384 0.0
C27 C 0.11741 0.12289 0.86545 0.0
O28 O 0.97374 0.94547 0.85494 0.0
O29 O 0.9208 0.86705 0.92313 0.0
C30 C 0.92943 0.13171 0.91075 0.0
C31 C 0.92778 0.89936 0.86707 0.0
Fe32 Fe 0.52024 0.59017 0.49037 0.0
O33 O 0.46392 0.51166 0.46244 0.0
Fe34 Fe 0.67803 0.51112 0.52619 0.0
Fe35 Fe 0.3622 0.51111 0.47283 0.0
O36 O 0.57673 0.51779 0.53487 0.0
O37 O 0.5763 0.51053 0.53679 0.0
O38 O 0.4635 0.50439 0.46434 0.0
Fe39 Fe 0.51988 0.43203 0.509 0.0
C40 C 0.39688 0.61476 0.58214 0.0
O41 O 0.45227 0.65497 0.43716 0.0
O42 O 0.37018 0.58227 0.39916 0.0
O43 O 0.57815 0.41809 0.42259 0.0
O44 O 0.68497 0.43044 0.45922 0.0
O45 O 0.68422 0.57769 0.44805 0.0
O46 O 0.57999 0.58295 0.4038 0.0
O47 O 0.37203 0.42507 0.41407 0.0
O48 O 0.45261 0.35971 0.47066 0.0
C49 C 0.64436 0.59523 0.40143 0.0
O50 O 0.58784 0.36728 0.56232 0.0
O51 O 0.6702 0.43996 0.59986 0.0
O52 O 0.46195 0.60388 0.57677 0.0
O53 O 0.35522 0.59182 0.53979 0.0
C54 C 0.40231 0.63918 0.39764 0.0
C55 C 0.40381 0.36787 0.42739 0.0
C56 C 0.39557 0.42699 0.59769 0.0
O57 O 0.3559 0.44456 0.55092 0.0
O58 O 0.45994 0.4394 0.59553 0.0
C59 C 0.64322 0.40737 0.41703 0.0
O60 O 0.66829 0.59708 0.58501 0.0
O61 O 0.58748 0.66252 0.52881 0.0
C62 C 0.63801 0.38308 0.6016 0.0
C63 C 0.63638 0.65428 0.57197 0.0
H64 H 0.20923 0.2207 0.12681 0.0
H65 H 0.12636 0.06671 0.25823 0.0
H66 H 0.20729 0.10153 0.34535 0.0
H67 H 0.38929 0.20779 0.17894 0.0
H68 H 0.39969 0.29808 0.1717 0.0
H69 H 0.34121 0.25522 0.11814 0.0
H70 H 0.24046 0.33725 0.15774 0.0
H71 H 0.29867 0.38068 0.21055 0.0
H72 H 0.22037 0.34631 0.24582 0.0
H73 H 0.29148 0.16232 0.4216 0.0
H74 H 0.36125 0.24741 0.47997 0.0
H75 H 0.38559 0.35825 0.29557 0.0
C76 C 0.20821 0.19324 0.17341 0.0
C77 C 0.16111 0.14091 0.1855 0.0
C78 C 0.16177 0.10716 0.24773 0.0
C79 C 0.20795 0.12623 0.2973 0.0
C80 C 0.25337 0.17858 0.28347 0.0
C81 C 0.25347 0.21143 0.22279 0.0
C82 C 0.3023 0.2698 0.22114 0.0
C83 C 0.36164 0.25691 0.16942 0.0
C84 C 0.26309 0.33746 0.2081 0.0
C85 C 0.3283 0.26658 0.29127 0.0
C86 C 0.30088 0.21298 0.32648 0.0
C87 C 0.3141 0.20362 0.39407 0.0
C88 C 0.3541 0.25171 0.42672 0.0
C89 C 0.37909 0.30843 0.39163 0.0
C90 C 0.36782 0.31451 0.32292 0.0
H91 H 0.93582 0.25011 0.16971 0.0
H92 H 0.79274 0.09476 0.1146 0.0
H93 H 0.70144 0.1507 0.18747 0.0
H94 H 0.88292 0.25964 0.34059 0.0
H95 H 0.89518 0.34974 0.34741 0.0
H96 H 0.94649 0.29981 0.28774 0.0
H97 H 0.90555 0.37864 0.19272 0.0
H98 H 0.85387 0.42874 0.25209 0.0
H99 H 0.81405 0.39215 0.18045 0.0
H100 H 0.62559 0.22661 0.26618 0.0
H101 H 0.57611 0.3069 0.35163 0.0
H102 H 0.77331 0.40651 0.35905 0.0
C103 C 0.88504 0.22811 0.17215 0.0
C104 C 0.87097 0.16861 0.13565 0.0
C105 C 0.80442 0.14056 0.1418 0.0
C106 C 0.75232 0.17214 0.18284 0.0
C107 C 0.7681 0.23104 0.21795 0.0
C108 C 0.83326 0.2581 0.21348 0.0
C109 C 0.83898 0.31919 0.25904 0.0
C110 C 0.89414 0.30628 0.31182 0.0
C111 C 0.85398 0.38347 0.21865 0.0
C112 C 0.76678 0.32258 0.29023 0.0
C113 C 0.72617 0.27207 0.26526 0.0
C114 C 0.65714 0.26604 0.28619 0.0
C115 C 0.62942 0.31206 0.33452 0.0
C116 C 0.67104 0.3627 0.36223 0.0
C117 C 0.74041 0.36803 0.33922 0.0
H118 H 0.94619 0.79095 0.21383 0.0
H119 H 0.79455 0.94808 0.16688 0.0
H120 H 0.7035 0.88511 0.22791 0.0
H121 H 0.84198 0.65473 0.18892 0.0
H122 H 0.87347 0.60348 0.25637 0.0
H123 H 0.92882 0.66468 0.21764 0.0
H124 H 0.94709 0.72326 0.33174 0.0
H125 H 0.89401 0.66063 0.37133 0.0
H126 H 0.87271 0.74968 0.38293 0.0
H127 H 0.6267 0.79673 0.28181 0.0
H128 H 0.57433 0.70077 0.34213 0.0
H129 H 0.77755 0.60256 0.35402 0.0
C130 C 0.89449 0.81353 0.21944 0.0
C131 C 0.87742 0.87525 0.18794 0.0
C132 C 0.80871 0.90196 0.19296 0.0
C133 C 0.75665 0.86604 0.22661 0.0
C134 C 0.77448 0.80359 0.25474 0.0
C135 C 0.84217 0.77842 0.25295 0.0
C136 C 0.84748 0.709 0.28459 0.0
C137 C 0.87454 0.65481 0.23383 0.0
C138 C 0.89299 0.71078 0.34633 0.0
C139 C 0.77219 0.69858 0.30378 0.0
C140 C 0.73064 0.75324 0.28561 0.0
C141 C 0.65891 0.754 0.29687 0.0
C142 C 0.62945 0.69882 0.33027 0.0
C143 C 0.67185 0.64411 0.35244 0.0
C144 C 0.74383 0.64361 0.33748 0.0
H145 H 0.145 0.7585 0.1185 0.0
H146 H 0.20964 0.96519 0.15053 0.0
H147 H 0.29966 0.9233 0.2263 0.0
H148 H 0.1595 0.70601 0.28243 0.0
H149 H 0.19087 0.62118 0.2618 0.0
H150 H 0.13724 0.66698 0.20454 0.0
H151 H 0.2319 0.64993 0.11097 0.0
H152 H 0.28581 0.60376 0.16804 0.0
H153 H 0.31884 0.67664 0.12513 0.0
H154 H 0.37629 0.85817 0.3081 0.0
H155 H 0.43045 0.77619 0.38597 0.0
H156 H 0.31504 0.61456 0.29641 0.0
C157 C 0.17885 0.79496 0.14034 0.0
C158 C 0.17019 0.86505 0.1282 0.0
C159 C 0.2154 0.91104 0.15852 0.0
C160 C 0.26682 0.88778 0.20175 0.0
C161 C 0.27298 0.81833 0.21369 0.0
C162 C 0.23046 0.77268 0.18327 0.0
C163 C 0.24435 0.70122 0.20708 0.0
C164 C 0.17913 0.6722 0.24098 0.0
C165 C 0.27188 0.65519 0.14936 0.0
C166 C 0.29998 0.71391 0.25691 0.0
C167 C 0.31656 0.78148 0.25998 0.0
C168 C 0.36422 0.80494 0.3055 0.0
C169 C 0.39478 0.7581 0.34954 0.0
C170 C 0.37695 0.68888 0.34787 0.0
C171 C 0.33 0.667 0.2997 0.0
H172 H 0.10394 0.77321 0.82837 0.0
H173 H 0.24804 0.92685 0.88548 0.0
H174 H 0.33927 0.87079 0.81259 0.0
H175 H 0.22431 0.63038 0.81735 0.0
H176 H 0.18468 0.59463 0.7452 0.0
H177 H 0.13303 0.64482 0.80452 0.0
H178 H 0.09357 0.72463 0.70971 0.0
H179 H 0.14484 0.6746 0.65008 0.0
H180 H 0.15792 0.76452 0.65753 0.0
H181 H 0.41497 0.79474 0.73384 0.0
H182 H 0.46437 0.71441 0.6484 0.0
H183 H 0.26631 0.61662 0.63912 0.0
C184 C 0.15491 0.79483 0.82632 0.0
C185 C 0.16931 0.85385 0.86342 0.0
C186 C 0.23611 0.88142 0.85781 0.0
C187 C 0.28817 0.84977 0.81676 0.0
C188 C 0.27206 0.79131 0.78109 0.0
C189 C 0.20665 0.76477 0.78499 0.0
C190 C 0.20067 0.70405 0.73903 0.0
C191 C 0.18475 0.63967 0.77892 0.0
C192 C 0.14603 0.71781 0.68594 0.0
C193 C 0.27307 0.7002 0.70831 0.0
C194 C 0.31395 0.75021 0.73381 0.0
C195 C 0.3832 0.75571 0.71342 0.0
C196 C 0.41087 0.70965 0.66509 0.0
C197 C 0.36902 0.6595 0.63687 0.0
C198 C 0.29941 0.65472 0.65934 0.0
H199 H 0.0938 0.22451 0.77825 0.0
H200 H 0.24977 0.0786 0.84161 0.0
H201 H 0.34063 0.14246 0.78145 0.0
H202 H 0.17556 0.26022 0.61042 0.0
H203 H 0.14911 0.34859 0.61619 0.0
H204 H 0.09698 0.28531 0.65597 0.0
H205 H 0.1047 0.35089 0.76794 0.0
H206 H 0.15909 0.41289 0.72925 0.0
H207 H 0.1886 0.36702 0.80106 0.0
H208 H 0.41579 0.23134 0.7265 0.0
H209 H 0.46684 0.32703 0.66469 0.0
H210 H 0.26063 0.41436 0.63819 0.0
C211 C 0.14661 0.20429 0.77635 0.0
C212 C 0.16488 0.14554 0.81227 0.0
C213 C 0.23485 0.12224 0.81213 0.0
C214 C 0.28675 0.15873 0.77895 0.0
C215 C 0.26755 0.2184 0.74637 0.0
C216 C 0.19888 0.24009 0.74342 0.0
C217 C 0.19214 0.30745 0.70798 0.0
C218 C 0.15104 0.29992 0.64382 0.0
C219 C 0.15918 0.36279 0.75435 0.0
C220 C 0.26767 0.32088 0.69246 0.0
C221 C 0.31055 0.26929 0.71528 0.0
C222 C 0.38258 0.27165 0.7078 0.0
C223 C 0.41122 0.3267 0.67348 0.0
C224 C 0.36776 0.37829 0.64682 0.0
C225 C 0.29524 0.37576 0.65805 0.0
H226 H 0.89693 0.26379 0.87948 0.0
H227 H 0.83008 0.05746 0.84992 0.0
H228 H 0.73996 0.09941 0.77426 0.0
H229 H 0.72403 0.34717 0.87326 0.0
H230 H 0.75746 0.41928 0.82936 0.0
H231 H 0.81142 0.37315 0.88642 0.0
H232 H 0.90512 0.35426 0.79223 0.0
H233 H 0.85143 0.40001 0.73498 0.0
H234 H 0.88174 0.31471 0.71494 0.0
H235 H 0.66315 0.16452 0.69246 0.0
H236 H 0.60888 0.24636 0.6145 0.0
H237 H 0.72677 0.40759 0.70165 0.0
C238 C 0.8626 0.22743 0.8582 0.0
C239 C 0.87064 0.15742 0.87102 0.0
C240 C 0.82481 0.11155 0.84139 0.0
C241 C 0.77333 0.13485 0.79823 0.0
C242 C 0.76776 0.2042 0.78564 0.0
C243 C 0.81095 0.24975 0.81533 0.0
C244 C 0.79757 0.32107 0.79094 0.0
C245 C 0.77102 0.36791 0.84842 0.0
C246 C 0.86282 0.34911 0.75621 0.0
C247 C 0.74136 0.30845 0.74172 0.0
C248 C 0.72413 0.24103 0.73935 0.0
C249 C 0.67576 0.21764 0.6945 0.0
C250 C 0.64515 0.26441 0.6504 0.0
C251 C 0.66358 0.33347 0.65137 0.0
C252 C 0.71129 0.35528 0.69888 0.0
H253 H 0.83304 0.79978 0.87208 0.0
H254 H 0.91218 0.95683 0.74211 0.0
H255 H 0.83096 0.92197 0.65522 0.0
H256 H 0.82231 0.67556 0.75129 0.0
H257 H 0.74497 0.63968 0.78698 0.0
H258 H 0.80332 0.68308 0.83969 0.0
H259 H 0.702 0.76326 0.88165 0.0
H260 H 0.64338 0.72046 0.82819 0.0
H261 H 0.65247 0.81101 0.82215 0.0
H262 H 0.74656 0.86107 0.579 0.0
H263 H 0.67694 0.77598 0.52039 0.0
H264 H 0.65632 0.66247 0.70358 0.0
C265 C 0.83318 0.8279 0.82587 0.0
C266 C 0.87929 0.88113 0.81411 0.0
C267 C 0.87755 0.91567 0.75233 0.0
C268 C 0.83118 0.89658 0.70292 0.0
C269 C 0.7867 0.84338 0.71644 0.0
C270 C 0.78773 0.80971 0.77665 0.0
C271 C 0.73971 0.7507 0.77804 0.0
C272 C 0.77999 0.68332 0.78963 0.0
C273 C 0.6809 0.76208 0.83063 0.0
C274 C 0.71274 0.75463 0.70831 0.0
C275 C 0.73908 0.809 0.6735 0.0
C276 C 0.72481 0.81913 0.60624 0.0
C277 C 0.68488 0.77104 0.57346 0.0
C278 C 0.66099 0.71357 0.60809 0.0
C279 C 0.67326 0.70673 0.67656 0.0
loop_
_geom_bond_atom_site_label_1
_geom_bond_atom_site_label_2
_geom_bond_distance
_geom_bond_site_symmetry_2
_ccdc_geom_bond_type
Fe0 O1 1.886 . S
Fe0 O4 1.715 1_554 S
Fe0 O9 2.077 . S
Fe0 O14 1.935 1_554 S
Fe0 O20 2.077 1_455 S
Fe0 O29 1.935 1_454 S
O1 Fe0 1.886 . S
O1 Fe3 1.715 1_565 S
Fe2 O4 1.886 . S
Fe2 O5 1.715 1_565 S
Fe2 O12 1.935 1_565 S
Fe2 O13 2.077 . S
Fe2 O19 1.935 1_465 S
Fe2 O28 2.077 1_455 S
Fe3 O1 1.715 1_545 S
Fe3 O6 1.886 . S
Fe3 O10 1.935 1_545 S
Fe3 O15 2.077 . S
Fe3 O21 1.935 1_445 S
Fe3 O25 2.077 1_455 S
O4 Fe0 1.715 1_556 S
O4 Fe2 1.886 . S
O5 Fe2 1.715 1_545 S
O5 Fe7 1.886 . S
O6 Fe3 1.886 . S
O6 Fe7 1.715 1_554 S
Fe7 O5 1.886 . S
Fe7 O6 1.715 1_556 S
Fe7 O11 2.077 . S
Fe7 O16 1.935 1_556 S
Fe7 O18 2.077 1_455 S
Fe7 O26 1.935 1_456 S
C8 O20 1.381 . S
C8 O21 1.421 . S
O9 Fe0 2.077 . S
O9 C22 1.381 . S
O10 Fe3 1.935 1_565 S
O10 C22 1.421 . S
O11 Fe7 2.077 . S
O11 C27 1.381 . S
O12 Fe2 1.935 1_545 S
O12 C27 1.421 . S
O13 Fe2 2.077 . S
O13 C17 1.381 . S
O14 Fe0 1.935 1_556 S
O14 C17 1.421 . S
O15 Fe3 2.077 . S
O15 C23 1.381 . S
O16 Fe7 1.935 1_554 S
O16 C23 1.421 . S
C17 O13 1.381 . S
C17 O14 1.421 . S
O18 Fe7 2.077 1_655 S
O18 C30 1.381 . S
O19 Fe2 1.935 1_645 S
O19 C30 1.421 . S
O20 Fe0 2.077 1_655 S
O20 C8 1.381 . S
O21 Fe3 1.935 1_665 S
O21 C8 1.421 . S
C22 O9 1.381 . S
C22 O10 1.421 . S
C23 O15 1.381 . S
C23 O16 1.421 . S
C24 O25 1.381 . S
C24 O26 1.421 . S
O25 Fe3 2.077 1_655 S
O25 C24 1.381 . S
O26 Fe7 1.935 1_654 S
O26 C24 1.421 . S
C27 O11 1.381 . S
C27 O12 1.421 . S
O28 Fe2 2.077 1_655 S
O28 C31 1.381 . S
O29 Fe0 1.935 1_656 S
O29 C31 1.421 . S
C30 O18 1.381 . S
C30 O19 1.421 . S
C31 O28 1.381 . S
C31 O29 1.421 . S
Fe32 O33 1.886 . S
Fe32 O36 1.715 . S
Fe32 O41 2.077 . S
Fe32 O46 1.935 . S
Fe32 O52 2.077 . S
Fe32 O61 1.935 . S
O33 Fe32 1.886 . S
O33 Fe35 1.715 . S
Fe34 O36 1.886 . S
Fe34 O37 1.715 . S
Fe34 O44 1.935 . S
Fe34 O45 2.077 . S
Fe34 O51 1.935 . S
Fe34 O60 2.077 . S
Fe35 O33 1.715 . S
Fe35 O38 1.886 . S
Fe35 O42 1.935 . S
Fe35 O47 2.077 . S
Fe35 O53 1.935 . S
Fe35 O57 2.077 . S
O36 Fe32 1.715 . S
O36 Fe34 1.886 . S
O37 Fe34 1.715 . S
O37 Fe39 1.886 . S
O38 Fe35 1.886 . S
O38 Fe39 1.715 . S
Fe39 O37 1.886 . S
Fe39 O38 1.715 . S
Fe39 O43 2.077 . S
Fe39 O48 1.935 . S
Fe39 O50 2.077 . S
Fe39 O58 1.935 . S
C40 O52 1.381 . S
C40 O53 1.421 . S
O41 Fe32 2.077 . S
O41 C54 1.381 . S
O42 Fe35 1.935 . S
O42 C54 1.421 . S
O43 Fe39 2.077 . S
O43 C59 1.381 . S
O44 Fe34 1.935 . S
O44 C59 1.421 . S
O45 Fe34 2.077 . S
O45 C49 1.381 . S
O46 Fe32 1.935 . S
O46 C49 1.421 . S
O47 Fe35 2.077 . S
O47 C55 1.381 . S
O48 Fe39 1.935 . S
O48 C55 1.421 . S
C49 O45 1.381 . S
C49 O46 1.421 . S
O50 Fe39 2.077 . S
O50 C62 1.381 . S
O51 Fe34 1.935 . S
O51 C62 1.421 . S
O52 Fe32 2.077 . S
O52 C40 1.381 . S
O53 Fe35 1.935 . S
O53 C40 1.421 . S
C54 O41 1.381 . S
C54 O42 1.421 . S
C55 O47 1.381 . S
C55 O48 1.421 . S
C56 O57 1.381 . S
C56 O58 1.421 . S
O57 Fe35 2.077 . S
O57 C56 1.381 . S
O58 Fe39 1.935 . S
O58 C56 1.421 . S
C59 O43 1.381 . S
C59 O44 1.421 . S
O60 Fe34 2.077 . S
O60 C63 1.381 . S
O61 Fe32 1.935 . S
O61 C63 1.421 . S
C62 O50 1.381 . S
C62 O51 1.421 . S
C63 O60 1.381 . S
C63 O61 1.421 . S
H64 C76 0.930 . S
H65 C78 0.930 . S
H66 C79 0.930 . S
H67 C83 0.959 . S
H68 C83 0.959 . S
H69 C83 0.961 . S
H70 C84 0.960 . S
H71 C84 0.961 . S
H72 C84 0.959 . S
H73 C87 0.929 . S
H74 C88 0.931 . S
H75 C90 0.930 . S
C76 H64 0.930 . S
C76 C77 1.399 . S
C76 C81 1.399 . S
C77 C76 1.399 . S
C77 C78 1.376 . S
C78 H65 0.930 . S
C78 C77 1.376 . S
C78 C79 1.388 . S
C79 H66 0.930 . S
C79 C78 1.388 . S
C79 C80 1.390 . S
C80 C79 1.390 . S
C80 C81 1.394 . S
C80 C86 1.465 . S
C81 C76 1.399 . S
C81 C80 1.394 . S
C81 C82 1.516 . S
C82 C81 1.516 . S
C82 C83 1.502 . S
C82 C84 1.561 . S
C82 C85 1.526 . S
C83 H67 0.959 . S
C83 H68 0.959 . S
C83 H69 0.961 . S
C83 C82 1.502 . S
C84 H70 0.960 . S
C84 H71 0.961 . S
C84 H72 0.959 . S
C84 C82 1.561 . S
C85 C82 1.526 . S
C85 C86 1.396 . S
C85 C90 1.390 . S
C86 C80 1.465 . S
C86 C85 1.396 . S
C86 C87 1.399 . S
C87 H73 0.929 . S
C87 C86 1.399 . S
C87 C88 1.385 . S
C88 H74 0.931 . S
C88 C87 1.385 . S
C88 C89 1.389 . S
C89 C88 1.389 . S
C89 C90 1.387 . S
C90 H75 0.930 . S
C90 C85 1.390 . S
C90 C89 1.387 . S
H91 C103 0.930 . S
H92 C105 0.930 . S
H93 C106 0.930 . S
H94 C110 0.959 . S
H95 C110 0.959 . S
H96 C110 0.961 . S
H97 C111 0.960 . S
H98 C111 0.961 . S
H99 C111 0.959 . S
H100 C114 0.929 . S
H101 C115 0.931 . S
H102 C117 0.930 . S
C103 H91 0.930 . S
C103 C104 1.399 . S
C103 C108 1.399 . S
C104 C103 1.399 . S
C104 C105 1.376 . S
C105 H92 0.930 . S
C105 C104 1.376 . S
C105 C106 1.388 . S
C106 H93 0.930 . S
C106 C105 1.388 . S
C106 C107 1.390 . S
C107 C106 1.390 . S
C107 C108 1.394 . S
C107 C113 1.465 . S
C108 C103 1.399 . S
C108 C107 1.394 . S
C108 C109 1.516 . S
C109 C108 1.516 . S
C109 C110 1.502 . S
C109 C111 1.561 . S
C109 C112 1.526 . S
C110 H94 0.959 . S
C110 H95 0.959 . S
C110 H96 0.961 . S
C110 C109 1.502 . S
C111 H97 0.960 . S
C111 H98 0.961 . S
C111 H99 0.959 . S
C111 C109 1.561 . S
C112 C109 1.526 . S
C112 C113 1.396 . S
C112 C117 1.390 . S
C113 C107 1.465 . S
C113 C112 1.396 . S
C113 C114 1.399 . S
C114 H100 0.929 . S
C114 C113 1.399 . S
C114 C115 1.385 . S
C115 H101 0.931 . S
C115 C114 1.385 . S
C115 C116 1.389 . S
C116 C115 1.389 . S
C116 C117 1.387 . S
C117 H102 0.930 . S
C117 C112 1.390 . S
C117 C116 1.387 . S
H118 C130 0.930 . S
H119 C132 0.930 . S
H120 C133 0.930 . S
H121 C137 0.959 . S
H122 C137 0.959 . S
H123 C137 0.961 . S
H124 C138 0.960 . S
H125 C138 0.961 . S
H126 C138 0.959 . S
H127 C141 0.929 . S
H128 C142 0.931 . S
H129 C144 0.930 . S
C130 H118 0.930 . S
C130 C131 1.399 . S
C130 C135 1.399 . S
C131 C130 1.399 . S
C131 C132 1.376 . S
C132 H119 0.930 . S
C132 C131 1.376 . S
C132 C133 1.388 . S
C133 H120 0.930 . S
C133 C132 1.388 . S
C133 C134 1.390 . S
C134 C133 1.390 . S
C134 C135 1.394 . S
C134 C140 1.465 . S
C135 C130 1.399 . S
C135 C134 1.394 . S
C135 C136 1.516 . S
C136 C135 1.516 . S
C136 C137 1.502 . S
C136 C138 1.561 . S
C136 C139 1.526 . S
C137 H121 0.959 . S
C137 H122 0.959 . S
C137 H123 0.961 . S
C137 C136 1.502 . S
C138 H124 0.960 . S
C138 H125 0.961 . S
C138 H126 0.959 . S
C138 C136 1.561 . S
C139 C136 1.526 . S
C139 C140 1.396 . S
C139 C144 1.390 . S
C140 C134 1.465 . S
C140 C139 1.396 . S
C140 C141 1.399 . S
C141 H127 0.929 . S
C141 C140 1.399 . S
C141 C142 1.385 . S
C142 H128 0.931 . S
C142 C141 1.385 . S
C142 C143 1.389 . S
C143 C142 1.389 . S
C143 C144 1.387 . S
C144 H129 0.930 . S
C144 C139 1.390 . S
C144 C143 1.387 . S
H145 C157 0.930 . S
H146 C159 0.930 . S
H147 C160 0.930 . S
H148 C164 0.959 . S
H149 C164 0.959 . S
H150 C164 0.961 . S
H151 C165 0.960 . S
H152 C165 0.961 . S
H153 C165 0.959 . S
H154 C168 0.929 . S
H155 C169 0.931 . S
H156 C171 0.930 . S
C157 H145 0.930 . S
C157 C158 1.399 . S
C157 C162 1.399 . S
C158 C157 1.399 . S
C158 C159 1.376 . S
C159 H146 0.930 . S
C159 C158 1.376 . S
C159 C160 1.388 . S
C160 H147 0.930 . S
C160 C159 1.388 . S
C160 C161 1.390 . S
C161 C160 1.390 . S
C161 C162 1.394 . S
C161 C167 1.465 . S
C162 C157 1.399 . S
C162 C161 1.394 . S
C162 C163 1.516 . S
C163 C162 1.516 . S
C163 C164 1.502 . S
C163 C165 1.561 . S
C163 C166 1.526 . S
C164 H148 0.959 . S
C164 H149 0.959 . S
C164 H150 0.961 . S
C164 C163 1.502 . S
C165 H151 0.960 . S
C165 H152 0.961 . S
C165 H153 0.959 . S
C165 C163 1.561 . S
C166 C163 1.526 . S
C166 C167 1.396 . S
C166 C171 1.390 . S
C167 C161 1.465 . S
C167 C166 1.396 . S
C167 C168 1.399 . S
C168 H154 0.929 . S
C168 C167 1.399 . S
C168 C169 1.385 . S
C169 H155 0.931 . S
C169 C168 1.385 . S
C169 C170 1.389 . S
C170 C169 1.389 . S
C170 C171 1.387 . S
C171 H156 0.930 . S
C171 C166 1.390 . S
C171 C170 1.387 . S
H172 C184 0.930 . S
H173 C186 0.930 . S
H174 C187 0.930 . S
H175 C191 0.959 . S
H176 C191 0.959 . S
H177 C191 0.961 . S
H178 C192 0.960 . S
H179 C192 0.961 . S
H180 C192 0.959 . S
H181 C195 0.929 . S
H182 C196 0.931 . S
H183 C198 0.930 . S
C184 H172 0.930 . S
C184 C185 1.399 . S
C184 C189 1.399 . S
C185 C184 1.399 . S
C185 C186 1.376 . S
C186 H173 0.930 . S
C186 C185 1.376 . S
C186 C187 1.388 . S
C187 H174 0.930 . S
C187 C186 1.388 . S
C187 C188 1.390 . S
C188 C187 1.390 . S
C188 C189 1.394 . S
C188 C194 1.465 . S
C189 C184 1.399 . S
C189 C188 1.394 . S
C189 C190 1.516 . S
C190 C189 1.516 . S
C190 C191 1.502 . S
C190 C192 1.561 . S
C190 C193 1.526 . S
C191 H175 0.959 . S
C191 H176 0.959 . S
C191 H177 0.961 . S
C191 C190 1.502 . S
C192 H178 0.960 . S
C192 H179 0.961 . S
C192 H180 0.959 . S
C192 C190 1.561 . S
C193 C190 1.526 . S
C193 C194 1.396 . S
C193 C198 1.390 . S
C194 C188 1.465 . S
C194 C193 1.396 . S
C194 C195 1.399 . S
C195 H181 0.929 . S
C195 C194 1.399 . S
C195 C196 1.385 . S
C196 H182 0.931 . S
C196 C195 1.385 . S
C196 C197 1.389 . S
C197 C196 1.389 . S
C197 C198 1.387 . S
C198 H183 0.930 . S
C198 C193 1.390 . S
C198 C197 1.387 . S
H199 C211 0.930 . S
H200 C213 0.930 . S
H201 C214 0.930 . S
H202 C218 0.959 . S
H203 C218 0.959 . S
H204 C218 0.961 . S
H205 C219 0.960 . S
H206 C219 0.961 . S
H207 C219 0.959 . S
H208 C222 0.929 . S
H209 C223 0.931 . S
H210 C225 0.930 . S
C211 H199 0.930 . S
C211 C212 1.399 . S
C211 C216 1.399 . S
C212 C211 1.399 . S
C212 C213 1.376 . S
C213 H200 0.930 . S
C213 C212 1.376 . S
C213 C214 1.388 . S
C214 H201 0.930 . S
C214 C213 1.388 . S
C214 C215 1.390 . S
C215 C214 1.390 . S
C215 C216 1.394 . S
C215 C221 1.465 . S
C216 C211 1.399 . S
C216 C215 1.394 . S
C216 C217 1.516 . S
C217 C216 1.516 . S
C217 C218 1.502 . S
C217 C219 1.561 . S
C217 C220 1.526 . S
C218 H202 0.959 . S
C218 H203 0.959 . S
C218 H204 0.961 . S
C218 C217 1.502 . S
C219 H205 0.960 . S
C219 H206 0.961 . S
C219 H207 0.959 . S
C219 C217 1.561 . S
C220 C217 1.526 . S
C220 C221 1.396 . S
C220 C225 1.390 . S
C221 C215 1.465 . S
C221 C220 1.396 . S
C221 C222 1.399 . S
C222 H208 0.929 . S
C222 C221 1.399 . S
C222 C223 1.385 . S
C223 H209 0.931 . S
C223 C222 1.385 . S
C223 C224 1.389 . S
C224 C223 1.389 . S
C224 C225 1.387 . S
C225 H210 0.930 . S
C225 C220 1.390 . S
C225 C224 1.387 . S
H226 C238 0.930 . S
H227 C240 0.930 . S
H228 C241 0.930 . S
H229 C245 0.959 . S
H230 C245 0.959 . S
H231 C245 0.961 . S
H232 C246 0.960 . S
H233 C246 0.961 . S
H234 C246 0.959 . S
H235 C249 0.929 . S
H236 C250 0.931 . S
H237 C252 0.930 . S
C238 H226 0.930 . S
C238 C239 1.399 . S
C238 C243 1.399 . S
C239 C238 1.399 . S
C239 C240 1.376 . S
C240 H227 0.930 . S
C240 C239 1.376 . S
C240 C241 1.388 . S
C241 H228 0.930 . S
C241 C240 1.388 . S
C241 C242 1.390 . S
C242 C241 1.390 . S
C242 C243 1.394 . S
C242 C248 1.465 . S
C243 C238 1.399 . S
C243 C242 1.394 . S
C243 C244 1.516 . S
C244 C243 1.516 . S
C244 C245 1.502 . S
C244 C246 1.561 . S
C244 C247 1.526 . S
C245 H229 0.959 . S
C245 H230 0.959 . S
C245 H231 0.961 . S
C245 C244 1.502 . S
C246 H232 0.960 . S
C246 H233 0.961 . S
C246 H234 0.959 . S
C246 C244 1.561 . S
C247 C244 1.526 . S
C247 C248 1.396 . S
C247 C252 1.390 . S
C248 C242 1.465 . S
C248 C247 1.396 . S
C248 C249 1.399 . S
C249 H235 0.929 . S
C249 C248 1.399 . S
C249 C250 1.385 . S
C250 H236 0.931 . S
C250 C249 1.385 . S
C250 C251 1.389 . S
C251 C250 1.389 . S
C251 C252 1.387 . S
C252 H237 0.930 . S
C252 C247 1.390 . S
C252 C251 1.387 . S
H253 C265 0.930 . S
H254 C267 0.930 . S
H255 C268 0.930 . S
H256 C272 0.959 . S
H257 C272 0.959 . S
H258 C272 0.961 . S
H259 C273 0.960 . S
H260 C273 0.961 . S
H261 C273 0.959 . S
H262 C276 0.929 . S
H263 C277 0.931 . S
H264 C279 0.930 . S
C265 H253 0.930 . S
C265 C266 1.399 . S
C265 C270 1.399 . S
C266 C265 1.399 . S
C266 C267 1.376 . S
C267 H254 0.930 . S
C267 C266 1.376 . S
C267 C268 1.388 . S
C268 H255 0.930 . S
C268 C267 1.388 . S
C268 C269 1.390 . S
C269 C268 1.390 . S
C269 C270 1.394 . S
C269 C275 1.465 . S
C270 C265 1.399 . S
C270 C269 1.394 . S
C270 C271 1.516 . S
C271 C270 1.516 . S
C271 C272 1.502 . S
C271 C273 1.561 . S
C271 C274 1.526 . S
C272 H256 0.959 . S
C272 H257 0.959 . S
C272 H258 0.961 . S
C272 C271 1.502 . S
C273 H259 0.960 . S
C273 H260 0.961 . S
C273 H261 0.959 . S
C273 C271 1.561 . S
C274 C271 1.526 . S
C274 C275 1.396 . S
C274 C279 1.390 . S
C275 C269 1.465 . S
C275 C274 1.396 . S
C275 C276 1.399 . S
C276 H262 0.929 . S
C276 C275 1.399 . S
C276 C277 1.385 . S
C277 H263 0.931 . S
C277 C276 1.385 . S
C277 C278 1.389 . S
C278 C277 1.389 . S
C278 C279 1.387 . S
C279 H264 0.930 . S
C279 C274 1.390 . S
C279 C278 1.387 . S
C77 C23 1.417 . S
C89 C55 1.409 . S
C104 C24 1.433 . S
C116 C59 1.475 . S
C131 C8 1.420 . S
C143 C49 1.409 . S
C158 C22 1.480 . S
C170 C54 1.453 . S
C185 C17 1.454 . S
C197 C40 1.429 . S
C224 C56 1.468 . S
C212 C27 1.476 . S
C239 C30 1.479 . S
C251 C62 1.472 . S
C278 C63 1.435 . S
C266 C31 1.485 . S
