# Generated by pormake.
# Topology pts, (4,4)-cn, num edge types: 1
# Building blocks:
#     Node 0, Type 0, BuildingBlock: NAWXER_clean_sbu_0, # of connection points: 4
#     Node 1, Type 0, BuildingBlock: NAWXER_clean_sbu_0, # of connection points: 4
#     Node 2, Type 1, BuildingBlock: AZAVOO_clean_sbu_0, # of connection points: 4
#     Node 3, Type 1, BuildingBlock: AZAVOO_clean_sbu_0, # of connection points: 4
#     Edge 4, Type (0, 1), BuildingBlock: UVAHIK_clean_linker_0, # of connection points: 2
#     Edge 5, Type (0, 1), BuildingBlock: UVAHIK_clean_linker_0, # of connection points: 2
#     Edge 6, Type (0, 1), BuildingBlock: UVAHIK_clean_linker_0, # of connection points: 2
#     Edge 7, Type (0, 1), BuildingBlock: UVAHIK_clean_linker_0, # of connection points: 2
#     Edge 8, Type (0, 1), BuildingBlock: UVAHIK_clean_linker_0, # of connection points: 2
#     Edge 9, Type (0, 1), BuildingBlock: UVAHIK_clean_linker_0, # of connection points: 2
#     Edge 10, Type (0, 1), BuildingBlock: UVAHIK_clean_linker_0, # of connection points: 2
#     Edge 11, Type (0, 1), BuildingBlock: UVAHIK_clean_linker_0, # of connection points: 2
# Relax obj value: 0.010
# Max RMSD: 0.059
# Mean RMSD: 0.047
data_MOF--net-pts--node1-NAWXER_clean_sbu_0--node2-AZAVOO_clean_sbu_0--edge1-UVAHIK_clean_linker_0
_symmetry_space_group_name_H-M    P1
_symmetry_Int_Tables_number       1
_symmetry_cell_setting            triclinic
loop_
_symmetry_equiv_pos_as_xyz
'x, y, z'
_cell_length_a     29.513876
_cell_length_b     30.503144
_cell_length_c     48.79806
_cell_angle_alpha  90.000036
_cell_angle_beta   96.008461
_cell_angle_gamma 89.910085
loop_
_atom_site_label
_atom_site_type_symbol
_atom_site_fract_x
_atom_site_fract_y
_atom_site_fract_z
_atom_type_partial_charge
C0 C 0.48296 0.00726 0.97267 0.0
C1 C 0.62138 0.00514 0.0368 0.0
O2 O 0.50625 0.97416 0.98154 0.0
Zn3 Zn 0.55251 0.00584 0.00432 0.0
O4 O 0.49629 0.0459 0.9801 0.0
Zn5 Zn 0.55164 0.07526 0.00617 0.0
O6 O 0.5842 0.10946 0.98099 0.0
O7 O 0.58884 0.03812 0.97431 0.0
O8 O 0.60667 0.04418 0.03155 0.0
O9 O 0.59995 0.97278 0.02535 0.0
O10 O 0.51465 0.03349 0.03567 0.0
O11 O 0.51853 0.10562 0.03263 0.0
C12 C 0.59869 0.0774 0.96774 0.0
C13 C 0.50405 0.07168 0.04405 0.0
C14 C 0.09014 0.5675 0.47873 0.0
C15 C 0.08989 0.44854 0.54555 0.0
O16 O 0.04993 0.5556 0.48327 0.0
Zn17 Zn 0.01858 0.50727 0.50712 0.0
O18 O 0.12463 0.54763 0.49067 0.0
Zn19 Zn 0.09116 0.50703 0.51134 0.0
O20 O 0.06005 0.46584 0.47932 0.0
O21 O 0.98553 0.47083 0.47932 0.0
O22 O 0.12432 0.46595 0.5363 0.0
O23 O 0.04974 0.46104 0.5362 0.0
O24 O 0.98496 0.54328 0.53046 0.0
O25 O 0.05965 0.54989 0.53896 0.0
C26 C 0.01987 0.45496 0.4691 0.0
C27 C 0.01936 0.56055 0.54422 0.0
Mg28 Mg 0.1024 0.0107 0.274 0.0
O29 O 0.03875 0.99419 0.24381 0.0
O30 O 0.98369 0.97679 0.27006 0.0
Mg31 Mg 0.01005 0.9816 0.31544 0.0
C32 C 0.99782 0.98239 0.24647 0.0
C33 C 0.18178 0.02449 0.24156 0.0
O34 O 0.19535 -0.00168 0.26221 0.0
O35 O 0.0712 0.07708 0.28369 0.0
O36 O 0.01751 0.0558 0.31002 0.0
O37 O 0.1244 0.94022 0.27651 0.0
O38 O 0.07908 0.97067 0.30421 0.0
C39 C 0.03905 0.08577 0.2985 0.0
C40 C 0.09983 0.9362 0.2968 0.0
O41 O 0.14094 0.03854 0.23948 0.0
Mg42 Mg 0.99404 0.00363 0.73988 0.0
O43 O 0.05668 0.9903 0.77143 0.0
O44 O 0.11168 0.96455 0.74742 0.0
Mg45 Mg 0.08644 0.96333 0.70169 0.0
C46 C 0.09703 0.97553 0.77016 0.0
C47 C 0.91359 0.02995 0.76856 0.0
O48 O 0.8987 0.00436 0.7479 0.0
O49 O 0.02781 0.06624 0.72629 0.0
O50 O 0.0816 0.03856 0.70215 0.0
O51 O 0.9696 0.93435 0.74222 0.0
O52 O 0.01705 0.95716 0.71322 0.0
C53 C 0.06063 0.07117 0.71142 0.0
C54 C 0.99515 0.92529 0.72299 0.0
O55 O 0.95585 0.0391 0.77188 0.0
C56 C 0.47095 0.04073 0.08487 0.0
C57 C 0.4737 0.07545 0.06621 0.0
C58 C 0.4404 0.04254 0.10483 0.0
C59 C 0.33087 0.08535 0.11824 0.0
H60 H 0.3709 0.05686 0.19436 0.0
C61 C 0.20466 0.07008 0.20208 0.0
C62 C 0.21392 0.03611 0.22133 0.0
C63 C 0.23639 0.0809 0.18365 0.0
C64 C 0.35895 0.06445 0.17315 0.0
H65 H 0.44663 0.13936 0.05381 0.0
H66 H 0.392 0.14195 0.08848 0.0
H67 H 0.42689 0.06467 0.16141 0.0
H68 H 0.26312 0.98613 0.23579 0.0
H69 H 0.31711 0.0038 0.20348 0.0
H70 H 0.26271 0.08293 0.12957 0.0
C71 C 0.41406 0.11366 0.08772 0.0
C72 C 0.39115 0.06922 0.15436 0.0
C73 C 0.44544 0.11227 0.06806 0.0
C74 C 0.25506 0.01286 0.22148 0.0
C75 C 0.28635 0.02329 0.20302 0.0
C76 C 0.29845 0.07992 0.137 0.0
C77 C 0.41127 0.07873 0.10625 0.0
C78 C 0.3774 0.07888 0.12663 0.0
C79 C 0.27782 0.05773 0.18402 0.0
C80 C 0.31205 0.06837 0.16458 0.0
H81 H 0.49231 0.01195 0.08396 0.0
H82 H 0.43868 0.01504 0.11873 0.0
H83 H 0.31941 0.09258 0.0969 0.0
H84 H 0.17326 0.08864 0.20149 0.0
H85 H 0.22873 0.10776 0.16941 0.0
C86 C 0.05781 0.40351 0.58153 0.0
C87 C 0.09519 0.41454 0.56727 0.0
C88 C 0.0616 0.37076 0.60157 0.0
C89 C 0.12336 0.27039 0.62034 0.0
H90 H 0.06711 0.28154 0.68839 0.0
C91 C 0.11512 0.1228 0.69239 0.0
C92 C 0.07298 0.11565 0.70265 0.0
C93 C 0.12461 0.16288 0.68044 0.0
C94 C 0.08277 0.27779 0.66943 0.0
H95 H 0.16616 0.4003 0.56319 0.0
H96 H 0.17256 0.34216 0.5981 0.0
H97 H 0.07146 0.34527 0.65849 0.0
H98 H 0.00861 0.14574 0.70964 0.0
H99 H 0.02454 0.21531 0.6881 0.0
H100 H 0.13283 0.20267 0.63038 0.0
C101 C 0.14038 0.35918 0.5937 0.0
C102 C 0.08541 0.31433 0.65238 0.0
C103 C 0.13675 0.39247 0.5738 0.0
C104 C 0.04144 0.15027 0.70199 0.0
C105 C 0.05072 0.19026 0.68971 0.0
C106 C 0.12038 0.23378 0.63725 0.0
C107 C 0.10272 0.34791 0.60769 0.0
C108 C 0.10498 0.31078 0.62741 0.0
C109 C 0.09196 0.19665 0.67812 0.0
C110 C 0.09931 0.23679 0.66177 0.0
H111 H 0.02535 0.42003 0.57713 0.0
H112 H 0.03183 0.36243 0.61172 0.0
H113 H 0.1381 0.26652 0.60106 0.0
H114 H 0.14044 0.09697 0.69295 0.0
H115 H 0.15717 0.16698 0.67239 0.0
C116 C 0.68512 0.03427 0.06961 0.0
C117 C 0.66341 -0.00163 0.05579 0.0
C118 C 0.7249 0.02839 0.08739 0.0
C119 C 0.82102 0.01176 0.11321 0.0
H120 H 0.82875 0.91295 0.16342 0.0
C121 C 0.97564 0.98769 0.19521 0.0
C122 C 0.96452 0.97682 0.2217 0.0
C123 C 0.94257 0.98546 0.17243 0.0
C124 C 0.82715 0.94077 0.14955 0.0
H125 H 0.66687 0.92807 0.04966 0.0
H126 H 0.73673 0.91784 0.08052 0.0
H127 H 0.76345 0.91974 0.1288 0.0
H128 H 0.9101 0.95368 0.24473 0.0
H129 H 0.85292 0.9505 0.20544 0.0
H130 H 0.8836 0.03391 0.13485 0.0
C131 C 0.72258 0.95052 0.07786 0.0
C132 C 0.78991 0.94439 0.12947 0.0
C133 C 0.68259 0.9564 0.0601 0.0
C134 C 0.92004 0.96241 0.2247 0.0
C135 C 0.88717 0.96019 0.20204 0.0
C136 C 0.85819 0.00821 0.13336 0.0
C137 C 0.74421 0.98647 0.09175 0.0
C138 C 0.78589 0.98042 0.1114 0.0
C139 C 0.89776 0.97219 0.17566 0.0
C140 C 0.86123 0.97315 0.15216 0.0
H141 H 0.67123 0.06706 0.06687 0.0
H142 H 0.74004 0.05671 0.09812 0.0
H143 H 0.81947 0.03952 0.09931 0.0
H144 H 0.00957 -0.0012 0.19212 0.0
H145 H 0.952 0.99448 0.15233 0.0
C146 C 0.0516 0.61671 0.57794 0.0
C147 C 0.01373 0.59289 0.56622 0.0
C148 C 0.04704 0.64735 0.59867 0.0
C149 C 0.9619 0.71634 0.62867 0.0
H150 H 0.06238 0.73483 0.68537 0.0
C151 C 0.96007 0.85219 0.71151 0.0
C152 C 0.99765 0.8805 0.71181 0.0
C153 C 0.96 0.81199 0.69768 0.0
C154 C 0.03399 0.72987 0.66973 0.0
H155 H 0.94132 0.58223 0.56731 0.0
H156 H 0.93344 0.63535 0.60404 0.0
H157 H 0.06492 0.67345 0.65354 0.0
H158 H 0.06568 0.88763 0.6995 0.0
H159 H 0.0659 0.81742 0.67582 0.0
H160 H 0.93124 0.77311 0.64496 0.0
C161 C 0.96659 0.63078 0.59682 0.0
C162 C 0.0355 0.69492 0.65137 0.0
C163 C 0.97111 0.60025 0.57584 0.0
C164 C 0.03604 0.86689 0.69933 0.0
C165 C 0.03631 0.82646 0.68597 0.0
C166 C 0.96017 0.75103 0.64728 0.0
C167 C 1.00456 0.65474 0.60848 0.0
C168 C 1.00011 0.68847 0.63009 0.0
C169 C 0.99793 0.79907 0.68447 0.0
C170 C 0.99676 0.75877 0.6675 0.0
H171 H 0.08488 0.61213 0.57089 0.0
H172 H 0.07683 0.66587 0.60662 0.0
H173 H 0.93423 0.71267 0.61243 0.0
H174 H 0.92995 0.86194 0.7209 0.0
H175 H 0.93008 0.79132 0.69692 0.0
C176 C 0.40725 0.03524 0.95229 0.0
C177 C 0.44008 0.00169 0.95442 0.0
C178 C 0.36659 0.03042 0.93518 0.0
C179 C 0.29415 0.9471 0.8951 0.0
H180 H 0.24359 0.05008 0.85648 0.0
C181 C 0.16624 0.94383 0.79684 0.0
C182 C 0.12932 0.97323 0.79543 0.0
C183 C 0.19994 0.94479 0.81915 0.0
C184 C 0.25697 0.02117 0.86743 0.0
H185 H 0.45611 0.93675 0.94025 0.0
H186 H 0.3861 0.92898 0.90937 0.0
H187 H 0.31179 0.05703 0.88877 0.0
H188 H 0.09802 0.02579 0.81672 0.0
H189 H 0.15781 0.02814 0.85557 0.0
H190 H 0.24021 0.9111 0.87238 0.0
C191 C 0.39096 0.95857 0.92156 0.0
C192 C 0.29607 0.02507 0.88604 0.0
C193 C 0.43134 0.96311 0.9391 0.0
C194 C 0.12598 0.00264 0.8173 0.0
C195 C 0.16025 0.00416 0.83941 0.0
C196 C 0.25544 0.94312 0.87611 0.0
C197 C 0.358 0.99223 0.9193 0.0
C198 C 0.31541 0.98807 0.90007 0.0
C199 C 0.19787 0.97567 0.84031 0.0
C200 C 0.23663 0.9801 0.86202 0.0
H201 H 0.41271 0.06516 0.96414 0.0
H202 H 0.34177 0.05666 0.93459 0.0
H203 H 0.30735 0.91799 0.90586 0.0
H204 H 0.16962 0.92066 0.78034 0.0
H205 H 0.2287 0.92266 0.81924 0.0
C206 C 0.05235 0.41238 0.43202 0.0
C207 C 0.01437 0.424 0.44563 0.0
C208 C 0.04829 0.38182 0.41065 0.0
C209 C 0.98066 0.28711 0.38653 0.0
H210 H 0.04638 0.29735 0.32201 0.0
C211 C 0.98531 0.1425 0.31269 0.0
C212 C 0.02852 0.13175 0.30502 0.0
C213 C 0.97736 0.18339 0.32409 0.0
C214 C 0.02797 0.29391 0.33995 0.0
H215 H 0.94198 0.41347 0.44691 0.0
H216 H 0.93497 0.35949 0.40958 0.0
H217 H 0.04377 0.35956 0.35337 0.0
H218 H 0.0965 0.15634 0.30156 0.0
H219 H 0.08317 0.22742 0.32223 0.0
H220 H 0.9665 0.22111 0.37409 0.0
C221 C 0.96792 0.37414 0.41561 0.0
C222 C 0.02638 0.32958 0.35786 0.0
C223 C 0.9719 0.40509 0.43691 0.0
C224 C 0.0628 0.1638 0.30721 0.0
C225 C 0.05505 0.20461 0.31902 0.0
C226 C 0.98248 0.25143 0.36877 0.0
C227 C 0.0062 0.36189 0.40244 0.0
C228 C 1.00339 0.32625 0.38161 0.0
C229 C 0.01269 0.21426 0.32853 0.0
C230 C 0.00679 0.25407 0.34549 0.0
H231 H 0.08554 0.4265 0.4381 0.0
H232 H 0.07854 0.37269 0.40118 0.0
H233 H 0.96326 0.28327 0.40486 0.0
H234 H 0.95802 0.11862 0.31086 0.0
H235 H 0.94395 0.19014 0.33041 0.0
C236 C 0.65831 0.1199 0.94588 0.0
C237 C 0.62793 0.08437 0.94533 0.0
C238 C 0.68909 0.12343 0.92595 0.0
C239 C 0.70803 0.09107 0.85612 0.0
H240 H 0.83703 0.08603 0.88118 0.0
C241 C 0.8369 0.0289 0.78566 0.0
C242 C 0.88155 0.0454 0.78797 0.0
C243 C 0.8064 0.04162 0.80413 0.0
C244 C 0.80126 0.08846 0.87372 0.0
H245 H 0.60461 0.02577 0.92305 0.0
H246 H 0.65705 0.03285 0.88781 0.0
H247 H 0.78167 0.09562 0.91466 0.0
H248 H 0.92897 0.08893 0.81137 0.0
H249 H 0.87509 0.11213 0.84348 0.0
H250 H 0.72697 0.08402 0.81531 0.0
C251 C 0.65755 0.05757 0.90379 0.0
C252 C 0.76959 0.09384 0.89294 0.0
C253 C 0.62769 0.05345 0.924 0.0
C254 C 0.89482 0.07554 0.80909 0.0
C255 C 0.86398 0.08865 0.82755 0.0
C256 C 0.73959 0.08643 0.8369 0.0
C257 C 0.689 0.09215 0.9048 0.0
C258 C 0.72267 0.09383 0.88435 0.0
C259 C 0.81935 0.0717 0.82534 0.0
C260 C 0.78657 0.08346 0.84549 0.0
H261 H 0.6594 0.14399 0.96224 0.0
H262 H 0.71307 0.15038 0.92712 0.0
H263 H 0.67201 0.09147 0.84898 0.0
H264 H 0.82552 0.00536 0.7698 0.0
H265 H 0.77287 0.02687 0.80209 0.0
C266 C 0.1357 0.61045 0.44722 0.0
C267 C 0.09545 0.60457 0.45985 0.0
C268 C 0.13935 0.64517 0.42877 0.0
C269 C 0.0949 0.75452 0.41217 0.0
H270 H 0.12492 0.73396 0.33775 0.0
C271 C 0.06507 0.88842 0.33058 0.0
C272 C 0.09776 0.89443 0.31202 0.0
C273 C 0.06633 0.85143 0.34742 0.0
C274 C 0.11714 0.7404 0.35857 0.0
H275 H 0.02788 0.63069 0.46344 0.0
H276 H 0.03474 0.6915 0.43186 0.0
H277 H 0.12716 0.67302 0.37054 0.0
H278 H 0.15672 0.86554 0.29593 0.0
H279 H 0.15974 0.8013 0.32593 0.0
H280 H 0.0855 0.82166 0.40077 0.0
C281 C 0.06324 0.66919 0.43601 0.0
C282 C 0.11842 0.7055 0.37729 0.0
C283 C 0.05929 0.63425 0.45398 0.0
C284 C 0.13088 0.86175 0.30996 0.0
C285 C 0.13256 0.82488 0.32714 0.0
C286 C 0.09417 0.78938 0.39367 0.0
C287 C 0.10318 0.67494 0.42317 0.0
C288 C 0.10644 0.71219 0.40408 0.0
C289 C 0.10084 0.81978 0.34651 0.0
C290 C 0.1043 0.78267 0.36644 0.0
H291 H 0.16402 0.58794 0.45129 0.0
H292 H 0.17054 0.64909 0.41914 0.0
H293 H 0.08616 0.76061 0.43286 0.0
H294 H 0.03886 0.9126 0.33257 0.0
H295 H 0.04049 0.84801 0.36147 0.0
loop_
_geom_bond_atom_site_label_1
_geom_bond_atom_site_label_2
_geom_bond_distance
_geom_bond_site_symmetry_2
_ccdc_geom_bond_type
C0 O2 1.247 1_545 S
C0 O4 1.258 . S
C1 O8 1.247 . S
C1 O9 1.258 1_545 S
O2 C0 1.247 1_565 S
O2 Zn3 2.028 1_556 S
Zn3 O2 2.028 1_554 S
Zn3 O7 2.035 1_554 S
Zn3 O9 2.035 . S
Zn3 O10 2.028 . S
O4 C0 1.258 . S
O4 Zn5 2.035 1_556 S
Zn5 O4 2.035 1_554 S
Zn5 O6 2.028 1_554 S
Zn5 O8 2.028 . S
Zn5 O11 2.035 . S
O6 Zn5 2.028 1_556 S
O6 C12 1.247 . S
O7 Zn3 2.035 1_556 S
O7 C12 1.258 1_565 S
O8 C1 1.247 . S
O8 Zn5 2.028 . S
O9 C1 1.258 1_565 S
O9 Zn3 2.035 . S
O10 Zn3 2.028 . S
O10 C13 1.247 1_565 S
O11 Zn5 2.035 . S
O11 C13 1.258 . S
C12 O6 1.247 . S
C12 O7 1.258 1_545 S
C13 O10 1.247 1_545 S
C13 O11 1.258 . S
C14 O16 1.247 . S
C14 O18 1.258 . S
C15 O22 1.247 . S
C15 O23 1.258 . S
O16 C14 1.247 . S
O16 Zn17 2.028 1_455 S
Zn17 O16 2.028 1_655 S
Zn17 O21 2.035 1_655 S
Zn17 O23 2.035 1_655 S
Zn17 O24 2.028 1_655 S
O18 C14 1.258 . S
O18 Zn19 2.035 . S
Zn19 O18 2.035 . S
Zn19 O20 2.028 . S
Zn19 O22 2.028 . S
Zn19 O25 2.035 . S
O20 Zn19 2.028 . S
O20 C26 1.247 . S
O21 Zn17 2.035 1_455 S
O21 C26 1.258 . S
O22 C15 1.247 . S
O22 Zn19 2.028 . S
O23 C15 1.258 . S
O23 Zn17 2.035 1_455 S
O24 Zn17 2.028 1_455 S
O24 C27 1.247 . S
O25 Zn19 2.035 . S
O25 C27 1.258 . S
C26 O20 1.247 . S
C26 O21 1.258 . S
C27 O24 1.247 . S
C27 O25 1.258 . S
Mg28 O29 2.028 . S
Mg28 O35 1.986 . S
Mg28 O37 2.114 1_545 S
Mg28 O38 2.251 1_545 S
Mg28 O41 2.010 . S
O29 Mg28 2.028 . S
O29 C32 1.250 . S
O30 Mg31 2.028 . S
O30 C32 1.248 1_655 S
Mg31 O30 2.028 . S
Mg31 O36 2.032 1_655 S
Mg31 O38 2.079 1_645 S
C32 O29 1.250 . S
C32 O30 1.248 1_455 S
C33 O34 1.264 . S
C33 O41 1.249 . S
O34 C33 1.264 . S
O35 Mg28 1.986 . S
O35 C39 1.246 . S
O36 Mg31 2.032 1_455 S
O36 C39 1.259 . S
O37 Mg28 2.114 1_565 S
O37 C40 1.252 . S
O38 Mg28 2.251 1_565 S
O38 Mg31 2.079 1_465 S
O38 C40 1.273 . S
C39 O35 1.246 . S
C39 O36 1.259 . S
C40 O37 1.252 . S
C40 O38 1.273 . S
O41 Mg28 2.010 . S
O41 C33 1.249 . S
Mg42 O43 2.028 1_655 S
Mg42 O49 1.986 1_655 S
Mg42 O51 2.114 1_545 S
Mg42 O52 2.251 1_645 S
Mg42 O55 2.010 . S
O43 Mg42 2.028 1_455 S
O43 C46 1.250 . S
O44 Mg45 2.028 . S
O44 C46 1.248 . S
Mg45 O44 2.028 . S
Mg45 O50 2.032 . S
Mg45 O52 2.079 1_545 S
C46 O43 1.250 . S
C46 O44 1.248 . S
C47 O48 1.264 . S
C47 O55 1.249 . S
O48 C47 1.264 . S
O49 Mg42 1.986 1_455 S
O49 C53 1.246 . S
O50 Mg45 2.032 . S
O50 C53 1.259 . S
O51 Mg42 2.114 1_565 S
O51 C54 1.252 1_655 S
O52 Mg42 2.251 1_465 S
O52 Mg45 2.079 1_565 S
O52 C54 1.273 . S
C53 O49 1.246 . S
C53 O50 1.259 . S
C54 O51 1.252 1_455 S
C54 O52 1.273 . S
O55 Mg42 2.010 . S
O55 C47 1.249 . S
C56 C57 1.349 1_565 S
C56 C58 1.327 . S
C56 H81 0.950 . S
C57 C56 1.349 1_545 S
C57 C73 1.349 . S
C58 C56 1.327 . S
C58 C77 1.429 1_565 S
C58 H82 0.950 . S
C59 C76 1.574 . S
C59 C78 1.368 . S
C59 H83 0.949 . S
H60 C64 0.949 . S
C61 C62 1.349 . S
C61 C63 1.327 . S
C61 H84 0.950 . S
C62 C61 1.349 . S
C62 C74 1.349 1_545 S
C63 C61 1.327 . S
C63 C79 1.429 . S
C63 H85 0.950 . S
C64 H60 0.949 . S
C64 C72 1.574 . S
C64 C80 1.368 1_565 S
H65 C73 0.950 . S
H66 C71 0.950 . S
H67 C72 0.949 . S
H68 C74 0.950 . S
H69 C75 0.950 . S
H70 C76 0.949 . S
C71 H66 0.950 . S
C71 C73 1.327 . S
C71 C77 1.429 . S
C72 C64 1.574 . S
C72 H67 0.949 . S
C72 C78 1.368 1_565 S
C73 C57 1.349 . S
C73 H65 0.950 . S
C73 C71 1.327 . S
C74 C62 1.349 1_565 S
C74 H68 0.950 . S
C74 C75 1.327 . S
C75 H69 0.950 . S
C75 C74 1.327 . S
C75 C79 1.429 1_565 S
C76 C59 1.574 . S
C76 H70 0.949 . S
C76 C80 1.368 . S
C77 C58 1.429 1_545 S
C77 C71 1.429 . S
C77 C78 1.523 . S
C78 C59 1.368 . S
C78 C72 1.368 1_545 S
C78 C77 1.523 . S
C79 C63 1.429 . S
C79 C75 1.429 1_545 S
C79 C80 1.523 . S
C80 C64 1.368 1_545 S
C80 C76 1.368 . S
C80 C79 1.523 . S
H81 C56 0.950 . S
H82 C58 0.950 . S
H83 C59 0.949 . S
H84 C61 0.950 . S
H85 C63 0.950 . S
C86 C87 1.349 . S
C86 C88 1.327 . S
C86 H111 0.950 1_455 S
C87 C86 1.349 . S
C87 C103 1.349 . S
C88 C86 1.327 . S
C88 C107 1.429 . S
C88 H112 0.950 1_455 S
C89 C106 1.574 . S
C89 C108 1.368 . S
C89 H113 0.949 . S
H90 C94 0.949 1_655 S
C91 C92 1.349 . S
C91 C93 1.327 . S
C91 H114 0.950 . S
C92 C91 1.349 . S
C92 C104 1.349 1_455 S
C93 C91 1.327 . S
C93 C109 1.429 . S
C93 H115 0.950 . S
C94 H90 0.949 1_455 S
C94 C102 1.574 . S
C94 C110 1.368 . S
H95 C103 0.950 . S
H96 C101 0.950 . S
H97 C102 0.949 1_655 S
H98 C104 0.950 . S
H99 C105 0.950 . S
H100 C106 0.949 . S
C101 H96 0.950 . S
C101 C103 1.327 . S
C101 C107 1.429 . S
C102 C94 1.574 . S
C102 H97 0.949 1_455 S
C102 C108 1.368 . S
C103 C87 1.349 . S
C103 H95 0.950 . S
C103 C101 1.327 . S
C104 C92 1.349 1_655 S
C104 H98 0.950 . S
C104 C105 1.327 . S
C105 H99 0.950 . S
C105 C104 1.327 . S
C105 C109 1.429 1_655 S
C106 C89 1.574 . S
C106 H100 0.949 . S
C106 C110 1.368 . S
C107 C88 1.429 . S
C107 C101 1.429 . S
C107 C108 1.523 . S
C108 C89 1.368 . S
C108 C102 1.368 . S
C108 C107 1.523 . S
C109 C93 1.429 . S
C109 C105 1.429 1_455 S
C109 C110 1.523 . S
C110 C94 1.368 . S
C110 C106 1.368 . S
C110 C109 1.523 . S
H111 C86 0.950 1_655 S
H112 C88 0.950 1_655 S
H113 C89 0.949 . S
H114 C91 0.950 . S
H115 C93 0.950 . S
C116 C117 1.349 . S
C116 C118 1.327 . S
C116 H141 0.950 . S
C117 C116 1.349 . S
C117 C133 1.349 1_545 S
C118 C116 1.327 . S
C118 C137 1.429 . S
C118 H142 0.950 . S
C119 C136 1.574 . S
C119 C138 1.368 1_565 S
C119 H143 0.949 . S
H120 C124 0.949 . S
C121 C122 1.349 1_565 S
C121 C123 1.327 . S
C121 H144 0.950 . S
C122 C121 1.349 1_545 S
C122 C134 1.349 . S
C123 C121 1.327 . S
C123 C139 1.429 1_565 S
C123 H145 0.950 . S
C124 H120 0.949 . S
C124 C132 1.574 . S
C124 C140 1.368 . S
H125 C133 0.950 . S
H126 C131 0.950 . S
H127 C132 0.949 . S
H128 C134 0.950 . S
H129 C135 0.950 . S
H130 C136 0.949 . S
C131 H126 0.950 . S
C131 C133 1.327 . S
C131 C137 1.429 1_565 S
C132 C124 1.574 . S
C132 H127 0.949 . S
C132 C138 1.368 . S
C133 C117 1.349 1_565 S
C133 H125 0.950 . S
C133 C131 1.327 . S
C134 C122 1.349 . S
C134 H128 0.950 . S
C134 C135 1.327 . S
C135 H129 0.950 . S
C135 C134 1.327 . S
C135 C139 1.429 . S
C136 C119 1.574 . S
C136 H130 0.949 . S
C136 C140 1.368 1_565 S
C137 C118 1.429 . S
C137 C131 1.429 1_545 S
C137 C138 1.523 . S
C138 C119 1.368 1_545 S
C138 C132 1.368 . S
C138 C137 1.523 . S
C139 C123 1.429 1_545 S
C139 C135 1.429 . S
C139 C140 1.523 . S
C140 C124 1.368 . S
C140 C136 1.368 1_545 S
C140 C139 1.523 . S
H141 C116 0.950 . S
H142 C118 0.950 . S
H143 C119 0.949 . S
H144 C121 0.950 . S
H145 C123 0.950 . S
C146 C147 1.349 . S
C146 C148 1.327 . S
C146 H171 0.950 . S
C147 C146 1.349 . S
C147 C163 1.349 . S
C148 C146 1.327 . S
C148 C167 1.429 . S
C148 H172 0.950 . S
C149 C166 1.573 1_455 S
C149 C168 1.373 . S
C149 H173 0.946 1_455 S
H150 C154 0.949 . S
C151 C152 1.349 1_655 S
C151 C153 1.327 . S
C151 H174 0.950 . S
C152 C151 1.349 1_455 S
C152 C164 1.349 . S
C153 C151 1.327 . S
C153 C169 1.429 1_655 S
C153 H175 0.950 . S
C154 H150 0.949 . S
C154 C162 1.574 . S
C154 C170 1.368 . S
H155 C163 0.950 1_655 S
H156 C161 0.950 1_655 S
H157 C162 0.949 . S
H158 C164 0.950 . S
H159 C165 0.950 . S
H160 C166 0.949 . S
C161 H156 0.950 1_455 S
C161 C163 1.327 . S
C161 C167 1.429 . S
C162 C154 1.574 . S
C162 H157 0.949 . S
C162 C168 1.368 . S
C163 C147 1.349 . S
C163 H155 0.950 1_455 S
C163 C161 1.327 . S
C164 C152 1.349 . S
C164 H158 0.950 . S
C164 C165 1.327 . S
C165 H159 0.950 . S
C165 C164 1.327 . S
C165 C169 1.429 . S
C166 C149 1.573 1_655 S
C166 H160 0.949 . S
C166 C170 1.368 1_655 S
C167 C148 1.429 . S
C167 C161 1.429 . S
C167 C168 1.523 . S
C168 C149 1.373 . S
C168 C162 1.368 . S
C168 C167 1.523 . S
C169 C153 1.429 1_455 S
C169 C165 1.429 . S
C169 C170 1.523 . S
C170 C154 1.368 . S
C170 C166 1.368 1_455 S
C170 C169 1.523 . S
H171 C146 0.950 . S
H172 C148 0.950 . S
H173 C149 0.946 1_655 S
H174 C151 0.950 . S
H175 C153 0.950 . S
C176 C177 1.349 . S
C176 C178 1.327 . S
C176 H201 0.950 . S
C177 C176 1.349 . S
C177 C193 1.349 1_545 S
C178 C176 1.327 . S
C178 C197 1.429 . S
C178 H202 0.950 . S
C179 C196 1.574 . S
C179 C198 1.368 1_565 S
C179 H203 0.949 . S
H180 C184 0.949 . S
C181 C182 1.349 1_565 S
C181 C183 1.327 . S
C181 H204 0.950 . S
C182 C181 1.349 1_545 S
C182 C194 1.349 . S
C183 C181 1.327 . S
C183 C199 1.429 1_565 S
C183 H205 0.950 . S
C184 H180 0.949 . S
C184 C192 1.574 . S
C184 C200 1.368 . S
H185 C193 0.950 . S
H186 C191 0.950 . S
H187 C192 0.949 . S
H188 C194 0.950 . S
H189 C195 0.950 . S
H190 C196 0.949 . S
C191 H186 0.950 . S
C191 C193 1.327 . S
C191 C197 1.429 1_565 S
C192 C184 1.574 . S
C192 H187 0.949 . S
C192 C198 1.368 . S
C193 C177 1.349 1_565 S
C193 H185 0.950 . S
C193 C191 1.327 . S
C194 C182 1.349 . S
C194 H188 0.950 . S
C194 C195 1.327 . S
C195 H189 0.950 . S
C195 C194 1.327 . S
C195 C199 1.429 . S
C196 C179 1.574 . S
C196 H190 0.949 . S
C196 C200 1.368 1_565 S
C197 C178 1.429 . S
C197 C191 1.429 1_545 S
C197 C198 1.523 . S
C198 C179 1.368 1_545 S
C198 C192 1.368 . S
C198 C197 1.523 . S
C199 C183 1.429 1_545 S
C199 C195 1.429 . S
C199 C200 1.523 . S
C200 C184 1.368 . S
C200 C196 1.368 1_545 S
C200 C199 1.523 . S
H201 C176 0.950 . S
H202 C178 0.950 . S
H203 C179 0.949 . S
H204 C181 0.950 . S
H205 C183 0.950 . S
C206 C207 1.349 . S
C206 C208 1.327 . S
C206 H231 0.950 . S
C207 C206 1.349 . S
C207 C223 1.349 . S
C208 C206 1.327 . S
C208 C227 1.429 . S
C208 H232 0.950 . S
C209 C226 1.574 . S
C209 C228 1.368 . S
C209 H233 0.949 . S
H210 C214 0.949 . S
C211 C212 1.349 . S
C211 C213 1.327 . S
C211 H234 0.950 . S
C212 C211 1.349 . S
C212 C224 1.349 . S
C213 C211 1.327 . S
C213 C229 1.429 . S
C213 H235 0.950 . S
C214 H210 0.949 . S
C214 C222 1.574 . S
C214 C230 1.368 . S
H215 C223 0.950 . S
H216 C221 0.950 . S
H217 C222 0.949 . S
H218 C224 0.950 . S
H219 C225 0.950 . S
H220 C226 0.949 . S
C221 H216 0.950 . S
C221 C223 1.327 . S
C221 C227 1.429 . S
C222 C214 1.574 . S
C222 H217 0.949 . S
C222 C228 1.368 . S
C223 C207 1.349 . S
C223 H215 0.950 . S
C223 C221 1.327 . S
C224 C212 1.349 . S
C224 H218 0.950 . S
C224 C225 1.327 . S
C225 H219 0.950 . S
C225 C224 1.327 . S
C225 C229 1.429 . S
C226 C209 1.574 . S
C226 H220 0.949 . S
C226 C230 1.368 . S
C227 C208 1.429 . S
C227 C221 1.429 . S
C227 C228 1.523 . S
C228 C209 1.368 . S
C228 C222 1.368 . S
C228 C227 1.523 . S
C229 C213 1.429 . S
C229 C225 1.429 . S
C229 C230 1.523 . S
C230 C214 1.368 . S
C230 C226 1.368 . S
C230 C229 1.523 . S
H231 C206 0.950 . S
H232 C208 0.950 . S
H233 C209 0.949 . S
H234 C211 0.950 . S
H235 C213 0.950 . S
C236 C237 1.349 . S
C236 C238 1.327 . S
C236 H261 0.950 . S
C237 C236 1.349 . S
C237 C253 1.349 1_545 S
C238 C236 1.327 . S
C238 C257 1.429 . S
C238 H262 0.950 . S
C239 C256 1.574 . S
C239 C258 1.368 1_565 S
C239 H263 0.949 . S
H240 C244 0.949 . S
C241 C242 1.349 1_565 S
C241 C243 1.327 . S
C241 H264 0.950 . S
C242 C241 1.349 1_545 S
C242 C254 1.349 . S
C243 C241 1.327 . S
C243 C259 1.429 1_565 S
C243 H265 0.950 . S
C244 H240 0.949 . S
C244 C252 1.574 . S
C244 C260 1.368 . S
H245 C253 0.950 . S
H246 C251 0.950 . S
H247 C252 0.949 . S
H248 C254 0.950 . S
H249 C255 0.950 . S
H250 C256 0.949 . S
C251 H246 0.950 . S
C251 C253 1.327 . S
C251 C257 1.429 1_565 S
C252 C244 1.574 . S
C252 H247 0.949 . S
C252 C258 1.368 . S
C253 C237 1.349 1_565 S
C253 H245 0.950 . S
C253 C251 1.327 . S
C254 C242 1.349 . S
C254 H248 0.950 . S
C254 C255 1.327 . S
C255 H249 0.950 . S
C255 C254 1.327 . S
C255 C259 1.429 . S
C256 C239 1.574 . S
C256 H250 0.949 . S
C256 C260 1.368 1_565 S
C257 C238 1.429 . S
C257 C251 1.429 1_545 S
C257 C258 1.523 . S
C258 C239 1.368 1_545 S
C258 C252 1.368 . S
C258 C257 1.523 . S
C259 C243 1.429 1_545 S
C259 C255 1.429 . S
C259 C260 1.523 . S
C260 C244 1.368 . S
C260 C256 1.368 1_545 S
C260 C259 1.523 . S
H261 C236 0.950 . S
H262 C238 0.950 . S
H263 C239 0.949 . S
H264 C241 0.950 . S
H265 C243 0.950 . S
C266 C267 1.349 . S
C266 C268 1.327 . S
C266 H291 0.950 . S
C267 C266 1.349 . S
C267 C283 1.349 . S
C268 C266 1.327 . S
C268 C287 1.429 . S
C268 H292 0.950 . S
C269 C286 1.574 . S
C269 C288 1.368 . S
C269 H293 0.949 . S
H270 C274 0.949 . S
C271 C272 1.349 . S
C271 C273 1.327 . S
C271 H294 0.950 . S
C272 C271 1.349 . S
C272 C284 1.349 . S
C273 C271 1.327 . S
C273 C289 1.429 . S
C273 H295 0.950 . S
C274 H270 0.949 . S
C274 C282 1.574 . S
C274 C290 1.368 . S
H275 C283 0.950 . S
H276 C281 0.950 . S
H277 C282 0.949 . S
H278 C284 0.950 . S
H279 C285 0.950 . S
H280 C286 0.949 . S
C281 H276 0.950 . S
C281 C283 1.327 . S
C281 C287 1.429 . S
C282 C274 1.574 . S
C282 H277 0.949 . S
C282 C288 1.368 . S
C283 C267 1.349 . S
C283 H275 0.950 . S
C283 C281 1.327 . S
C284 C272 1.349 . S
C284 H278 0.950 . S
C284 C285 1.327 . S
C285 H279 0.950 . S
C285 C284 1.327 . S
C285 C289 1.429 . S
C286 C269 1.574 . S
C286 H280 0.949 . S
C286 C290 1.368 . S
C287 C268 1.429 . S
C287 C281 1.429 . S
C287 C288 1.523 . S
C288 C269 1.368 . S
C288 C282 1.368 . S
C288 C287 1.523 . S
C289 C273 1.429 . S
C289 C285 1.429 . S
C289 C290 1.523 . S
C290 C274 1.368 . S
C290 C286 1.368 . S
C290 C289 1.523 . S
H291 C266 0.950 . S
H292 C268 0.950 . S
H293 C269 0.949 . S
H294 C271 0.950 . S
H295 C273 0.950 . S
C62 C33 1.243 . S
C57 C13 1.454 . S
C92 C53 1.423 . S
C87 C15 1.454 . S
C122 C32 1.438 1_655 S
C117 C1 1.470 . S
C152 C54 1.471 . S
C147 C27 1.471 . S
C182 C46 1.438 . S
C177 C0 1.470 . S
C212 C39 1.423 . S
C207 C26 1.454 . S
C242 C47 1.243 . S
C237 C12 1.454 . S
C267 C14 1.471 . S
C272 C40 1.471 . S
