# Generated by pormake.
# Topology ibd, (4,6)-cn, num edge types: 1
# Building blocks:
#     Node 0, Type 0, BuildingBlock: CEKHIL_clean_sbu_0, # of connection points: 4
#     Node 1, Type 0, BuildingBlock: CEKHIL_clean_sbu_0, # of connection points: 4
#     Node 2, Type 0, BuildingBlock: CEKHIL_clean_sbu_0, # of connection points: 4
#     Node 3, Type 0, BuildingBlock: CEKHIL_clean_sbu_0, # of connection points: 4
#     Node 4, Type 0, BuildingBlock: CEKHIL_clean_sbu_0, # of connection points: 4
#     Node 5, Type 0, BuildingBlock: CEKHIL_clean_sbu_0, # of connection points: 4
#     Node 6, Type 0, BuildingBlock: CEKHIL_clean_sbu_0, # of connection points: 4
#     Node 7, Type 0, BuildingBlock: CEKHIL_clean_sbu_0, # of connection points: 4
#     Node 8, Type 0, BuildingBlock: CEKHIL_clean_sbu_0, # of connection points: 4
#     Node 9, Type 0, BuildingBlock: CEKHIL_clean_sbu_0, # of connection points: 4
#     Node 10, Type 0, BuildingBlock: CEKHIL_clean_sbu_0, # of connection points: 4
#     Node 11, Type 0, BuildingBlock: CEKHIL_clean_sbu_0, # of connection points: 4
#     Node 12, Type 0, BuildingBlock: CEKHIL_clean_sbu_0, # of connection points: 4
#     Node 13, Type 0, BuildingBlock: CEKHIL_clean_sbu_0, # of connection points: 4
#     Node 14, Type 0, BuildingBlock: CEKHIL_clean_sbu_0, # of connection points: 4
#     Node 15, Type 0, BuildingBlock: CEKHIL_clean_sbu_0, # of connection points: 4
#     Node 16, Type 0, BuildingBlock: CEKHIL_clean_sbu_0, # of connection points: 4
#     Node 17, Type 0, BuildingBlock: CEKHIL_clean_sbu_0, # of connection points: 4
#     Node 18, Type 0, BuildingBlock: CEKHIL_clean_sbu_0, # of connection points: 4
#     Node 19, Type 0, BuildingBlock: CEKHIL_clean_sbu_0, # of connection points: 4
#     Node 20, Type 0, BuildingBlock: CEKHIL_clean_sbu_0, # of connection points: 4
#     Node 21, Type 0, BuildingBlock: CEKHIL_clean_sbu_0, # of connection points: 4
#     Node 22, Type 0, BuildingBlock: CEKHIL_clean_sbu_0, # of connection points: 4
#     Node 23, Type 0, BuildingBlock: CEKHIL_clean_sbu_0, # of connection points: 4
#     Node 24, Type 1, BuildingBlock: OJICUG_clean_sbu_0, # of connection points: 6
#     Node 25, Type 1, BuildingBlock: OJICUG_clean_sbu_0, # of connection points: 6
#     Node 26, Type 1, BuildingBlock: OJICUG_clean_sbu_0, # of connection points: 6
#     Node 27, Type 1, BuildingBlock: OJICUG_clean_sbu_0, # of connection points: 6
#     Node 28, Type 1, BuildingBlock: OJICUG_clean_sbu_0, # of connection points: 6
#     Node 29, Type 1, BuildingBlock: OJICUG_clean_sbu_0, # of connection points: 6
#     Node 30, Type 1, BuildingBlock: OJICUG_clean_sbu_0, # of connection points: 6
#     Node 31, Type 1, BuildingBlock: OJICUG_clean_sbu_0, # of connection points: 6
#     Node 32, Type 1, BuildingBlock: OJICUG_clean_sbu_0, # of connection points: 6
#     Node 33, Type 1, BuildingBlock: OJICUG_clean_sbu_0, # of connection points: 6
#     Node 34, Type 1, BuildingBlock: OJICUG_clean_sbu_0, # of connection points: 6
#     Node 35, Type 1, BuildingBlock: OJICUG_clean_sbu_0, # of connection points: 6
#     Node 36, Type 1, BuildingBlock: OJICUG_clean_sbu_0, # of connection points: 6
#     Node 37, Type 1, BuildingBlock: OJICUG_clean_sbu_0, # of connection points: 6
#     Node 38, Type 1, BuildingBlock: OJICUG_clean_sbu_0, # of connection points: 6
#     Node 39, Type 1, BuildingBlock: OJICUG_clean_sbu_0, # of connection points: 6
#     Edge 40, Type (0, 1), BuildingBlock: XUDNAN_clean_linker_2, # of connection points: 2
#     Edge 41, Type (0, 1), BuildingBlock: XUDNAN_clean_linker_2, # of connection points: 2
#     Edge 42, Type (0, 1), BuildingBlock: XUDNAN_clean_linker_2, # of connection points: 2
#     Edge 43, Type (0, 1), BuildingBlock: XUDNAN_clean_linker_2, # of connection points: 2
#     Edge 44, Type (0, 1), BuildingBlock: XUDNAN_clean_linker_2, # of connection points: 2
#     Edge 45, Type (0, 1), BuildingBlock: XUDNAN_clean_linker_2, # of connection points: 2
#     Edge 46, Type (0, 1), BuildingBlock: XUDNAN_clean_linker_2, # of connection points: 2
#     Edge 47, Type (0, 1), BuildingBlock: XUDNAN_clean_linker_2, # of connection points: 2
#     Edge 48, Type (0, 1), BuildingBlock: XUDNAN_clean_linker_2, # of connection points: 2
#     Edge 49, Type (0, 1), BuildingBlock: XUDNAN_clean_linker_2, # of connection points: 2
#     Edge 50, Type (0, 1), BuildingBlock: XUDNAN_clean_linker_2, # of connection points: 2
#     Edge 51, Type (0, 1), BuildingBlock: XUDNAN_clean_linker_2, # of connection points: 2
#     Edge 52, Type (0, 1), BuildingBlock: XUDNAN_clean_linker_2, # of connection points: 2
#     Edge 53, Type (0, 1), BuildingBlock: XUDNAN_clean_linker_2, # of connection points: 2
#     Edge 54, Type (0, 1), BuildingBlock: XUDNAN_clean_linker_2, # of connection points: 2
#     Edge 55, Type (0, 1), BuildingBlock: XUDNAN_clean_linker_2, # of connection points: 2
#     Edge 56, Type (0, 1), BuildingBlock: XUDNAN_clean_linker_2, # of connection points: 2
#     Edge 57, Type (0, 1), BuildingBlock: XUDNAN_clean_linker_2, # of connection points: 2
#     Edge 58, Type (0, 1), BuildingBlock: XUDNAN_clean_linker_2, # of connection points: 2
#     Edge 59, Type (0, 1), BuildingBlock: XUDNAN_clean_linker_2, # of connection points: 2
#     Edge 60, Type (0, 1), BuildingBlock: XUDNAN_clean_linker_2, # of connection points: 2
#     Edge 61, Type (0, 1), BuildingBlock: XUDNAN_clean_linker_2, # of connection points: 2
#     Edge 62, Type (0, 1), BuildingBlock: XUDNAN_clean_linker_2, # of connection points: 2
#     Edge 63, Type (0, 1), BuildingBlock: XUDNAN_clean_linker_2, # of connection points: 2
#     Edge 64, Type (0, 1), BuildingBlock: XUDNAN_clean_linker_2, # of connection points: 2
#     Edge 65, Type (0, 1), BuildingBlock: XUDNAN_clean_linker_2, # of connection points: 2
#     Edge 66, Type (0, 1), BuildingBlock: XUDNAN_clean_linker_2, # of connection points: 2
#     Edge 67, Type (0, 1), BuildingBlock: XUDNAN_clean_linker_2, # of connection points: 2
#     Edge 68, Type (0, 1), BuildingBlock: XUDNAN_clean_linker_2, # of connection points: 2
#     Edge 69, Type (0, 1), BuildingBlock: XUDNAN_clean_linker_2, # of connection points: 2
#     Edge 70, Type (0, 1), BuildingBlock: XUDNAN_clean_linker_2, # of connection points: 2
#     Edge 71, Type (0, 1), BuildingBlock: XUDNAN_clean_linker_2, # of connection points: 2
#     Edge 72, Type (0, 1), BuildingBlock: XUDNAN_clean_linker_2, # of connection points: 2
#     Edge 73, Type (0, 1), BuildingBlock: XUDNAN_clean_linker_2, # of connection points: 2
#     Edge 74, Type (0, 1), BuildingBlock: XUDNAN_clean_linker_2, # of connection points: 2
#     Edge 75, Type (0, 1), BuildingBlock: XUDNAN_clean_linker_2, # of connection points: 2
#     Edge 76, Type (0, 1), BuildingBlock: XUDNAN_clean_linker_2, # of connection points: 2
#     Edge 77, Type (0, 1), BuildingBlock: XUDNAN_clean_linker_2, # of connection points: 2
#     Edge 78, Type (0, 1), BuildingBlock: XUDNAN_clean_linker_2, # of connection points: 2
#     Edge 79, Type (0, 1), BuildingBlock: XUDNAN_clean_linker_2, # of connection points: 2
#     Edge 80, Type (0, 1), BuildingBlock: XUDNAN_clean_linker_2, # of connection points: 2
#     Edge 81, Type (0, 1), BuildingBlock: XUDNAN_clean_linker_2, # of connection points: 2
#     Edge 82, Type (0, 1), BuildingBlock: XUDNAN_clean_linker_2, # of connection points: 2
#     Edge 83, Type (0, 1), BuildingBlock: XUDNAN_clean_linker_2, # of connection points: 2
#     Edge 84, Type (0, 1), BuildingBlock: XUDNAN_clean_linker_2, # of connection points: 2
#     Edge 85, Type (0, 1), BuildingBlock: XUDNAN_clean_linker_2, # of connection points: 2
#     Edge 86, Type (0, 1), BuildingBlock: XUDNAN_clean_linker_2, # of connection points: 2
#     Edge 87, Type (0, 1), BuildingBlock: XUDNAN_clean_linker_2, # of connection points: 2
#     Edge 88, Type (0, 1), BuildingBlock: XUDNAN_clean_linker_2, # of connection points: 2
#     Edge 89, Type (0, 1), BuildingBlock: XUDNAN_clean_linker_2, # of connection points: 2
#     Edge 90, Type (0, 1), BuildingBlock: XUDNAN_clean_linker_2, # of connection points: 2
#     Edge 91, Type (0, 1), BuildingBlock: XUDNAN_clean_linker_2, # of connection points: 2
#     Edge 92, Type (0, 1), BuildingBlock: XUDNAN_clean_linker_2, # of connection points: 2
#     Edge 93, Type (0, 1), BuildingBlock: XUDNAN_clean_linker_2, # of connection points: 2
#     Edge 94, Type (0, 1), BuildingBlock: XUDNAN_clean_linker_2, # of connection points: 2
#     Edge 95, Type (0, 1), BuildingBlock: XUDNAN_clean_linker_2, # of connection points: 2
#     Edge 96, Type (0, 1), BuildingBlock: XUDNAN_clean_linker_2, # of connection points: 2
#     Edge 97, Type (0, 1), BuildingBlock: XUDNAN_clean_linker_2, # of connection points: 2
#     Edge 98, Type (0, 1), BuildingBlock: XUDNAN_clean_linker_2, # of connection points: 2
#     Edge 99, Type (0, 1), BuildingBlock: XUDNAN_clean_linker_2, # of connection points: 2
#     Edge 100, Type (0, 1), BuildingBlock: XUDNAN_clean_linker_2, # of connection points: 2
#     Edge 101, Type (0, 1), BuildingBlock: XUDNAN_clean_linker_2, # of connection points: 2
#     Edge 102, Type (0, 1), BuildingBlock: XUDNAN_clean_linker_2, # of connection points: 2
#     Edge 103, Type (0, 1), BuildingBlock: XUDNAN_clean_linker_2, # of connection points: 2
#     Edge 104, Type (0, 1), BuildingBlock: XUDNAN_clean_linker_2, # of connection points: 2
#     Edge 105, Type (0, 1), BuildingBlock: XUDNAN_clean_linker_2, # of connection points: 2
#     Edge 106, Type (0, 1), BuildingBlock: XUDNAN_clean_linker_2, # of connection points: 2
#     Edge 107, Type (0, 1), BuildingBlock: XUDNAN_clean_linker_2, # of connection points: 2
#     Edge 108, Type (0, 1), BuildingBlock: XUDNAN_clean_linker_2, # of connection points: 2
#     Edge 109, Type (0, 1), BuildingBlock: XUDNAN_clean_linker_2, # of connection points: 2
#     Edge 110, Type (0, 1), BuildingBlock: XUDNAN_clean_linker_2, # of connection points: 2
#     Edge 111, Type (0, 1), BuildingBlock: XUDNAN_clean_linker_2, # of connection points: 2
#     Edge 112, Type (0, 1), BuildingBlock: XUDNAN_clean_linker_2, # of connection points: 2
#     Edge 113, Type (0, 1), BuildingBlock: XUDNAN_clean_linker_2, # of connection points: 2
#     Edge 114, Type (0, 1), BuildingBlock: XUDNAN_clean_linker_2, # of connection points: 2
#     Edge 115, Type (0, 1), BuildingBlock: XUDNAN_clean_linker_2, # of connection points: 2
#     Edge 116, Type (0, 1), BuildingBlock: XUDNAN_clean_linker_2, # of connection points: 2
#     Edge 117, Type (0, 1), BuildingBlock: XUDNAN_clean_linker_2, # of connection points: 2
#     Edge 118, Type (0, 1), BuildingBlock: XUDNAN_clean_linker_2, # of connection points: 2
#     Edge 119, Type (0, 1), BuildingBlock: XUDNAN_clean_linker_2, # of connection points: 2
#     Edge 120, Type (0, 1), BuildingBlock: XUDNAN_clean_linker_2, # of connection points: 2
#     Edge 121, Type (0, 1), BuildingBlock: XUDNAN_clean_linker_2, # of connection points: 2
#     Edge 122, Type (0, 1), BuildingBlock: XUDNAN_clean_linker_2, # of connection points: 2
#     Edge 123, Type (0, 1), BuildingBlock: XUDNAN_clean_linker_2, # of connection points: 2
#     Edge 124, Type (0, 1), BuildingBlock: XUDNAN_clean_linker_2, # of connection points: 2
#     Edge 125, Type (0, 1), BuildingBlock: XUDNAN_clean_linker_2, # of connection points: 2
#     Edge 126, Type (0, 1), BuildingBlock: XUDNAN_clean_linker_2, # of connection points: 2
#     Edge 127, Type (0, 1), BuildingBlock: XUDNAN_clean_linker_2, # of connection points: 2
#     Edge 128, Type (0, 1), BuildingBlock: XUDNAN_clean_linker_2, # of connection points: 2
#     Edge 129, Type (0, 1), BuildingBlock: XUDNAN_clean_linker_2, # of connection points: 2
#     Edge 130, Type (0, 1), BuildingBlock: XUDNAN_clean_linker_2, # of connection points: 2
#     Edge 131, Type (0, 1), BuildingBlock: XUDNAN_clean_linker_2, # of connection points: 2
#     Edge 132, Type (0, 1), BuildingBlock: XUDNAN_clean_linker_2, # of connection points: 2
#     Edge 133, Type (0, 1), BuildingBlock: XUDNAN_clean_linker_2, # of connection points: 2
#     Edge 134, Type (0, 1), BuildingBlock: XUDNAN_clean_linker_2, # of connection points: 2
#     Edge 135, Type (0, 1), BuildingBlock: XUDNAN_clean_linker_2, # of connection points: 2
# Relax obj value: 0.371
# Max RMSD: 0.283
# Mean RMSD: 0.280
data_MOF--net-ibd--node1-CEKHIL_clean_sbu_0--node2-OJICUG_clean_sbu_0--edge1-XUDNAN_clean_linker_2
_symmetry_space_group_name_H-M    P1
_symmetry_Int_Tables_number       1
_symmetry_cell_setting            triclinic
loop_
_symmetry_equiv_pos_as_xyz
'x, y, z'
_cell_length_a     48.619369
_cell_length_b     48.570519
_cell_length_c     48.589525
_cell_angle_alpha  90.436619
_cell_angle_beta   90.305601
_cell_angle_gamma 90.911635
loop_
_atom_site_label
_atom_site_type_symbol
_atom_site_fract_x
_atom_site_fract_y
_atom_site_fract_z
_atom_type_partial_charge
Co0 Co 0.9749 0.30205 0.37832 0.0
O1 O 0.97645 0.32429 0.34561 0.0
O2 O 0.93939 0.30206 0.36106 0.0
C3 C -0.00199 0.3312 0.40614 0.0
O4 O 0.96403 0.27772 0.40994 0.0
Co5 Co 0.02527 0.27864 0.40856 0.0
O6 O -0.00101 0.26315 0.4358 0.0
C7 C 0.00892 0.25702 0.35391 0.0
C8 C 0.95066 0.31733 0.34232 0.0
C9 C 0.97338 0.26435 0.43049 0.0
O10 O 0.98585 0.2694 0.35582 0.0
O11 O 0.0283 0.2599 0.37169 0.0
O12 O 0.97181 0.33451 0.40192 0.0
O13 O 0.00955 0.31164 0.39258 0.0
Co14 Co 0.95151 0.77785 0.62616 0.0
O15 O 0.92639 0.78041 0.65665 0.0
O16 O 0.95683 0.81265 0.64505 0.0
C17 C 0.92214 0.76238 0.59357 0.0
O18 O 0.97976 0.78323 0.59587 0.0
Co19 Co 0.96422 0.72113 0.59903 0.0
O20 O 0.98473 0.74375 0.5719 0.0
C21 C 0.98932 0.73567 0.65236 0.0
C22 C 0.93736 0.80455 0.6615 0.0
C23 C 0.98982 0.76933 0.57573 0.0
O24 O 0.97982 0.7602 0.65057 0.0
O25 O 0.9833 0.71639 0.63519 0.0
O26 O 0.92307 0.78843 0.59999 0.0
O27 O 0.93575 0.74647 0.60965 0.0
Co28 Co 0.4902 0.79428 0.87024 0.0
O29 O 0.47425 0.81942 0.84456 0.0
O30 O 0.45969 0.77651 0.85194 0.0
C31 C 0.49401 0.82445 0.90515 0.0
O32 O 0.49943 0.76258 0.89507 0.0
Co33 Co 0.54802 0.80185 0.89677 0.0
O34 O 0.53744 0.77013 0.92051 0.0
C35 C 0.54237 0.78485 0.83866 0.0
C36 C 0.45655 0.79968 0.83926 0.0
C37 C 0.51644 0.75547 0.91386 0.0
O38 O 0.5164 0.7806 0.84175 0.0
O39 O 0.55798 0.79591 0.85708 0.0
O40 O 0.47057 0.81207 0.90017 0.0
O41 O 0.51354 0.81954 0.88802 0.0
Co42 Co 0.51561 0.21204 0.12594 0.0
O43 O 0.49062 0.21289 0.15653 0.0
O44 O 0.51872 0.24705 0.14444 0.0
C45 C 0.4847 0.19457 0.09616 0.0
O46 O 0.5429 0.22034 0.09576 0.0
Co47 Co 0.53165 0.15961 0.0935 0.0
O48 O 0.54459 0.18576 0.06502 0.0
C49 C 0.55813 0.17289 0.14737 0.0
C50 C 0.49898 0.23822 0.16016 0.0
C51 C 0.55036 0.21033 0.07254 0.0
O52 O 0.54529 0.1958 0.14919 0.0
O53 O 0.5544 0.15545 0.12774 0.0
O54 O 0.48559 0.22087 0.1012 0.0
O55 O 0.50154 0.17955 0.10984 0.0
Co56 Co 0.03112 0.71772 0.11911 0.0
O57 O 0.02778 0.74073 0.08689 0.0
O58 O 0.99381 0.71699 0.10618 0.0
C59 C 0.05616 0.74825 0.14407 0.0
O60 O 0.02453 0.69338 0.15216 0.0
Co61 Co 0.08563 0.69751 0.14527 0.0
O62 O 0.06282 0.68016 0.17408 0.0
C63 C 0.06341 0.67128 0.09426 0.0
C64 C 0.00168 0.73433 0.08753 0.0
C65 C 0.0368 0.68064 0.17157 0.0
O66 O 0.04098 0.68503 0.09559 0.0
O67 O 0.0837 0.6749 0.11085 0.0
O68 O 0.02956 0.7504 0.14265 0.0
O69 O 0.06672 0.72874 0.12967 0.0
Co70 Co 0.4704 0.73926 0.38244 0.0
O71 O 0.44785 0.75755 0.40907 0.0
O72 O 0.49319 0.76279 0.40518 0.0
C73 C 0.44297 0.7457 0.346 0.0
O74 O 0.50074 0.72624 0.35756 0.0
Co75 Co 0.45273 0.68711 0.34932 0.0
O76 O 0.48387 0.69774 0.32497 0.0
C77 C 0.46933 0.68209 0.40733 0.0
C78 C 0.47063 0.76931 0.41757 0.0
C79 C 0.50302 0.71324 0.33465 0.0
O80 O 0.47599 0.70781 0.40806 0.0
O81 O 0.45864 0.66996 0.38629 0.0
O82 O 0.45943 0.76546 0.35441 0.0
O83 O 0.44214 0.7239 0.36105 0.0
Co84 Co 0.49607 0.26996 0.61238 0.0
O85 O 0.49657 0.28468 0.57517 0.0
O86 O 0.46113 0.26447 0.5959 0.0
C87 C 0.51724 0.30531 0.6344 0.0
O88 O 0.48431 0.25369 0.64814 0.0
Co89 Co 0.54333 0.25624 0.65213 0.0
O90 O 0.51559 0.24994 0.68146 0.0
C91 C 0.53025 0.21929 0.60476 0.0
C92 C 0.47075 0.2768 0.57448 0.0
C93 C 0.49095 0.24778 0.67278 0.0
O94 O 0.50878 0.2332 0.59865 0.0
O95 O 0.54708 0.22614 0.62407 0.0
O96 O 0.49139 0.30687 0.62758 0.0
O97 O 0.52975 0.28352 0.62613 0.0
Co98 Co -0.00312 0.22787 0.85576 0.0
O99 O 0.96299 0.23008 0.87606 0.0
O100 O 0.99578 0.26248 0.87488 0.0
C101 C 0.97778 0.21044 0.81724 0.0
O102 O 0.0333 0.23461 0.8371 0.0
Co103 Co 0.02126 0.17376 0.83215 0.0
O104 O 0.04865 0.19801 0.81366 0.0
C105 C 0.018 0.18414 0.89171 0.0
C106 C 0.97196 0.2543 0.88386 0.0
C107 C 0.05068 0.22315 0.8211 0.0
O108 O 0.01527 0.21007 0.88774 0.0
O109 O 0.01739 0.16605 0.87244 0.0
O110 O 0.97698 0.23689 0.82178 0.0
O111 O 0.98867 0.19594 0.83629 0.0
Co112 Co 0.37118 0.02716 0.24864 0.0
O113 O 0.40099 0.02458 0.22252 0.0
O114 O 0.37783 0.98933 0.24048 0.0
C115 C 0.34725 0.06019 0.22763 0.0
O116 O 0.33954 0.02 0.27452 0.0
Co117 Co 0.35771 0.07885 0.28363 0.0
O118 O 0.3268 0.05691 0.29907 0.0
C119 C 0.4063 0.04568 0.29713 0.0
C120 C 0.39698 -0.00195 0.22413 0.0
C121 C 0.32407 0.03168 0.29225 0.0
O122 O 0.39839 0.02676 0.28002 0.0
O123 O 0.39417 0.06873 0.29962 0.0
O124 O 0.3453 0.03477 0.21914 0.0
O125 O 0.36525 0.06524 0.24672 0.0
Co126 Co 0.2376 0.1285 0.50629 0.0
O127 O 0.2522 0.10401 0.53312 0.0
O128 O 0.27195 0.11425 0.49316 0.0
C129 C 0.22678 0.16019 0.53764 0.0
O130 O 0.23013 0.15362 0.47413 0.0
Co131 Co 0.1775 0.14859 0.5059 0.0
O132 O 0.1888 0.17332 0.47551 0.0
C133 C 0.19062 0.09099 0.4924 0.0
C134 C 0.27279 0.10138 0.51647 0.0
C135 C 0.21225 0.1702 0.46447 0.0
O136 O 0.21607 0.09753 0.48877 0.0
O137 O 0.17288 0.10763 0.50207 0.0
O138 O 0.25166 0.15974 0.52792 0.0
O139 O 0.20974 0.14175 0.52841 0.0
Co140 Co 0.10115 0.98646 0.71961 0.0
O141 O 0.12063 0.98618 0.68528 0.0
O142 O 0.12088 0.95262 0.71605 0.0
C143 C 0.06174 0.00142 0.7014 0.0
O144 O 0.08292 0.97808 0.75617 0.0
Co145 Co 0.07907 0.03921 0.74601 0.0
O146 O 0.06019 0.01453 0.77227 0.0
C147 C 0.13799 0.0275 0.75054 0.0
C148 C 0.12892 0.96195 0.69236 0.0
C149 C 0.06693 0.98938 0.77376 0.0
O150 O 0.13363 0.0042 0.73854 0.0
O151 O 0.11921 0.04523 0.7545 0.0
O152 O 0.06778 0.97547 0.70059 0.0
O153 O 0.08026 0.01791 0.7119 0.0
Co154 Co 0.24611 0.88494 0.01507 0.0
O155 O 0.24218 0.85358 0.03921 0.0
O156 O 0.28061 0.86762 0.01849 0.0
C157 C 0.22415 0.91539 0.04135 0.0
O158 O 0.26017 0.91507 0.99073 0.0
Co159 Co 0.19946 0.91464 0.98578 0.0
O160 O 0.22793 0.93936 0.9694 0.0
C161 C 0.21587 0.86022 0.96576 0.0
C162 C 0.26846 0.85076 0.03514 0.0
C163 C 0.25301 0.93431 0.97458 0.0
O164 O 0.23655 0.86137 0.98227 0.0
O165 O 0.19698 0.87827 0.96562 0.0
O166 O 0.24951 0.90917 0.04644 0.0
O167 O 0.21172 0.90157 0.02183 0.0
Co168 Co 0.26009 0.37996 0.00514 0.0
O169 O 0.27382 0.3443 0.0149 0.0
O170 O 0.25888 0.35656 0.97345 0.0
C171 C 0.29313 0.40517 0.02593 0.0
O172 O 0.24529 0.41334 0.98604 0.0
Co173 Co 0.24012 0.42306 0.04688 0.0
O174 O 0.23341 0.44724 0.01484 0.0
C175 C 0.20806 0.37199 0.03765 0.0
C176 C 0.26855 0.33768 0.98938 0.0
C177 C 0.23628 0.43754 0.99063 0.0
O178 O 0.22228 0.36723 0.01599 0.0
O179 O 0.21326 0.39211 0.05413 0.0
O180 O 0.2972 0.395 0.00147 0.0
O181 O 0.27021 0.3985 0.03768 0.0
Co182 Co 0.72497 0.12427 0.02228 0.0
O183 O 0.75422 0.10738 0.04303 0.0
O184 O 0.73931 0.09364 0.00184 0.0
C185 C 0.73907 0.16789 0.029 0.0
O186 O 0.69796 0.13716 0.99317 0.0
Co187 Co 0.68249 0.16371 0.04841 0.0
O188 O 0.67296 0.17214 0.00972 0.0
C189 C 0.67963 0.10456 0.06028 0.0
C190 C 0.75651 0.09079 0.02209 0.0
C191 C 0.68087 0.15681 0.99003 0.0
O192 O 0.69666 0.09984 0.0406 0.0
O193 O 0.67329 0.12881 0.06817 0.0
O194 O 0.75067 0.15282 0.01026 0.0
O195 O 0.72128 0.15557 0.04443 0.0
Co196 Co 0.13402 0.51647 0.21186 0.0
O197 O 0.16808 0.4966 0.2095 0.0
O198 O 0.15372 0.52031 0.24575 0.0
C199 C 0.10677 0.48338 0.19375 0.0
O200 O 0.10098 0.53779 0.22405 0.0
Co201 Co 0.09869 0.53391 0.16222 0.0
O202 O 0.07217 0.54843 0.18966 0.0
C203 C 0.15207 0.56098 0.1728 0.0
C204 C 0.17203 0.5045 0.23492 0.0
C205 C 0.07875 0.54827 0.21504 0.0
O206 O 0.15239 0.55051 0.19701 0.0
O207 O 0.13405 0.5545 0.15448 0.0
O208 O 0.11433 0.4823 0.21941 0.0
O209 O 0.11744 0.5031 0.17934 0.0
Co210 Co 0.7906 0.85352 0.47395 0.0
O211 O 0.81101 0.82412 0.45807 0.0
O212 O 0.77304 0.84181 0.44008 0.0
C213 C 0.82546 0.88214 0.48457 0.0
O214 O 0.76461 0.88408 0.48409 0.0
Co215 Co 0.79717 0.86811 0.5359 0.0
O216 O 0.77458 0.90039 0.52647 0.0
C217 C 0.76465 0.8193 0.51996 0.0
C218 C 0.79237 0.82369 0.43881 0.0
C219 C 0.76137 0.90152 0.5038 0.0
O220 O 0.76779 0.82593 0.49463 0.0
O221 O 0.77593 0.83259 0.53996 0.0
O222 O 0.81591 0.88105 0.45953 0.0
O223 O 0.81633 0.86338 0.50111 0.0
Co224 Co 0.87467 0.96999 0.25169 0.0
O225 O 0.90124 0.94095 0.25353 0.0
O226 O 0.89705 0.97521 0.28368 0.0
C227 C 0.83841 0.94276 0.24151 0.0
O228 O 0.85073 0.0027 0.2586 0.0
Co229 Co 0.84148 0.9857 0.20003 0.0
O230 O 0.8226 0.0131 0.22378 0.0
C231 C 0.90078 -0.00223 0.20345 0.0
C232 C 0.90951 0.95297 0.27622 0.0
C233 C 0.8319 0.01743 0.24801 0.0
O234 O 0.90051 0.99298 0.22936 0.0
O235 O 0.88024 0.99319 0.1874 0.0
O236 O 0.84672 0.94558 0.26688 0.0
O237 O 0.85296 0.95521 0.22308 0.0
Co238 Co 0.28901 0.61016 0.50723 0.0
O239 O 0.30434 0.57559 0.51795 0.0
O240 O 0.28734 0.58489 0.47663 0.0
C241 C 0.32251 0.6366 0.52529 0.0
O242 O 0.27284 0.64293 0.4879 0.0
Co243 Co 0.27221 0.65512 0.54985 0.0
O244 O 0.26467 0.67793 0.51722 0.0
C245 C 0.23633 0.60626 0.54025 0.0
C246 C 0.29934 0.56755 0.49283 0.0
C247 C 0.26524 0.66757 0.49311 0.0
O248 O 0.25158 0.59804 0.5203 0.0
O249 O 0.24225 0.62716 0.55548 0.0
O250 O 0.32575 0.62562 0.50108 0.0
O251 O 0.30043 0.62986 0.53829 0.0
Co252 Co 0.38639 0.46231 0.77082 0.0
O253 O 0.41855 0.4456 0.7855 0.0
O254 O 0.39515 0.47874 0.80625 0.0
C255 C 0.36516 0.42315 0.75718 0.0
O256 O 0.35184 0.48355 0.76251 0.0
Co257 Co 0.37108 0.45662 0.70866 0.0
O258 O 0.33659 0.47509 0.71945 0.0
C259 C 0.41308 0.49759 0.72666 0.0
C260 C 0.41556 0.46178 0.80661 0.0
C261 C 0.33411 0.48641 0.74304 0.0
O262 O 0.40898 0.4915 0.75202 0.0
O263 O 0.40168 0.48462 0.70648 0.0
O264 O 0.36378 0.43116 0.78273 0.0
O265 O 0.38142 0.43735 0.74173 0.0
Co266 Co 0.60722 0.97961 0.77731 0.0
O267 O 0.63592 0.95453 0.78689 0.0
O268 O 0.6313 0.99684 0.80387 0.0
C269 C 0.57145 0.95013 0.78027 0.0
O270 O 0.5807 0.01094 0.774 0.0
Co271 Co 0.5698 0.97196 0.72558 0.0
O272 O 0.55041 0.00502 0.73927 0.0
C273 C 0.62689 0.99206 0.71949 0.0
C274 C 0.64477 0.97398 0.8034 0.0
C275 C 0.55989 0.01858 0.75985 0.0
O276 O 0.62978 0.99435 0.7458 0.0
O277 O 0.60569 0.98107 0.70792 0.0
O278 O 0.58143 0.96165 0.80249 0.0
O279 O 0.58497 0.95457 0.75796 0.0
Co280 Co 0.76873 0.63045 0.00753 0.0
O281 O 0.78809 0.60899 0.03412 0.0
O282 O 0.80642 0.62739 0.99647 0.0
C283 C 0.74645 0.65608 0.03845 0.0
O284 O 0.75711 0.65499 0.97626 0.0
Co285 Co 0.70544 0.63378 0.00177 0.0
O286 O 0.71325 0.66762 0.98028 0.0
C287 C 0.73489 0.58414 0.98254 0.0
C288 C 0.80947 0.61303 0.01863 0.0
C289 C 0.73701 0.6705 0.96974 0.0
O290 O 0.75846 0.596 0.98634 0.0
O291 O 0.71202 0.59519 0.98893 0.0
O292 O 0.77154 0.66276 0.03168 0.0
O293 O 0.73627 0.63402 0.02733 0.0
Co294 Co 0.87394 0.52768 0.73133 0.0
O295 O 0.9064 0.53959 0.71207 0.0
O296 O 0.89373 0.49612 0.71965 0.0
C297 C 0.84466 0.55568 0.71048 0.0
O298 O 0.84226 0.50684 0.74829 0.0
Co299 Co 0.84089 0.56565 0.76986 0.0
O300 O 0.81531 0.5337 0.77415 0.0
C301 C 0.89561 0.5471 0.78644 0.0
C302 C 0.91112 0.51346 0.70891 0.0
C303 C 0.82109 0.51057 0.76331 0.0
O304 O 0.89474 0.52891 0.76711 0.0
O305 O 0.87746 0.5657 0.78926 0.0
O306 O 0.8519 0.53289 0.69856 0.0
O307 O 0.85703 0.56192 0.73338 0.0
Co308 Co 0.72196 0.3843 0.51794 0.0
O309 O 0.70925 0.3507 0.53515 0.0
O310 O 0.75293 0.36386 0.53014 0.0
C311 C 0.69248 0.41168 0.54001 0.0
O312 O 0.7441 0.41681 0.5035 0.0
Co313 Co 0.68696 0.42096 0.48092 0.0
O314 O 0.71901 0.44661 0.47936 0.0
C315 C 0.70446 0.36659 0.46085 0.0
C316 C 0.73517 0.34618 0.53964 0.0
C317 C 0.74158 0.43929 0.49015 0.0
O318 O 0.72157 0.36513 0.48108 0.0
O319 O 0.68732 0.38616 0.45839 0.0
O320 O 0.71537 0.4046 0.55171 0.0
O321 O 0.68754 0.40133 0.51584 0.0
Co322 Co 0.62572 0.47915 0.25231 0.0
O323 O 0.64954 0.49384 0.22457 0.0
O324 O 0.64321 0.4493 0.23301 0.0
C325 C 0.59069 0.50695 0.24226 0.0
O326 O 0.60186 0.45632 0.278 0.0
Co327 Co 0.60611 0.51526 0.30036 0.0
O328 O 0.58131 0.48379 0.30872 0.0
C329 C 0.66321 0.49666 0.29935 0.0
C330 C 0.65537 0.46851 0.2188 0.0
C331 C 0.58473 0.46026 0.29767 0.0
O332 O 0.65687 0.48032 0.27937 0.0
O333 O 0.64641 0.514 0.30943 0.0
O334 O 0.59409 0.4842 0.2285 0.0
O335 O 0.60932 0.51293 0.26053 0.0
Sc336 Sc 0.08248 0.16091 0.13097 0.0
Sc337 Sc 0.12622 0.12123 0.17007 0.0
Sc338 Sc 0.14603 0.14316 0.10538 0.0
O339 O 0.11831 0.14205 0.13556 0.0
C340 C 0.08973 0.13926 0.07192 0.0
C341 C 0.0657 0.10401 0.15872 0.0
C342 C 0.15116 0.08273 0.12314 0.0
C343 C 0.09107 0.17206 0.19228 0.0
C344 C 0.12589 0.20332 0.10458 0.0
C345 C 0.18327 0.14608 0.16012 0.0
O346 O 0.07437 0.14022 0.09285 0.0
O347 O 0.0901 0.09635 0.16343 0.0
O348 O 0.1462 0.09913 0.10354 0.0
O349 O 0.08846 0.18244 0.16863 0.0
O350 O 0.14627 0.1872 0.10545 0.0
O351 O 0.16334 0.145 0.17698 0.0
O352 O 0.10139 0.19585 0.1105 0.0
O353 O 0.10274 0.14908 0.1962 0.0
O354 O 0.17997 0.14292 0.13425 0.0
O355 O 0.05968 0.12822 0.1511 0.0
O356 O 0.11558 0.14335 0.0731 0.0
O357 O 0.14927 0.08987 0.14837 0.0
Sc358 Sc 0.16381 0.85435 0.40307 0.0
Sc359 Sc 0.11415 0.82415 0.36124 0.0
Sc360 Sc 0.14 0.88901 0.34662 0.0
O361 O 0.13934 0.85574 0.37017 0.0
C362 C 0.14596 0.91387 0.40728 0.0
C363 C 0.10862 0.82648 0.42443 0.0
C364 C 0.07778 0.87645 0.34895 0.0
C365 C 0.16948 0.79564 0.38069 0.0
C366 C 0.20085 0.88746 0.35946 0.0
C367 C 0.13235 0.84015 0.30304 0.0
O368 O 0.14597 0.89082 0.41936 0.0
O369 O 0.09643 0.82693 0.4013 0.0
O370 O 0.09711 0.89386 0.3532 0.0
O371 O 0.18196 0.81798 0.38695 0.0
O372 O 0.18324 0.88518 0.34014 0.0
O373 O 0.13091 0.82114 0.32078 0.0
O374 O 0.19569 0.87941 0.38384 0.0
O375 O 0.14376 0.79423 0.37545 0.0
O376 O 0.13173 0.86564 0.30922 0.0
O377 O 0.13443 0.83054 0.42725 0.0
O378 O 0.14804 0.91628 0.38129 0.0
O379 O 0.08166 0.85066 0.34649 0.0
Sc380 Sc 0.39641 0.85939 0.6321 0.0
Sc381 Sc 0.34809 0.88181 0.5838 0.0
Sc382 Sc 0.35185 0.91239 0.65001 0.0
O383 O 0.36545 0.88465 0.62197 0.0
C384 C 0.35883 0.858 0.68518 0.0
C385 C 0.35829 0.81936 0.59548 0.0
C386 C 0.29574 0.89381 0.62032 0.0
C387 C 0.41245 0.87383 0.57151 0.0
C388 C 0.41442 0.91254 0.66735 0.0
C389 C 0.3538 0.94646 0.59407 0.0
O390 O 0.37478 0.84635 0.66818 0.0
O391 O 0.34291 0.83756 0.58518 0.0
O392 O 0.30969 0.90312 0.64054 0.0
O393 O 0.4202 0.87002 0.59624 0.0
O394 O 0.39186 0.92506 0.66484 0.0
O395 O 0.35199 0.92549 0.57829 0.0
O396 O 0.41863 0.88937 0.65613 0.0
O397 O 0.38739 0.87713 0.56487 0.0
O398 O 0.35359 0.94498 0.62023 0.0
O399 O 0.37865 0.82508 0.61091 0.0
O400 O 0.34977 0.88222 0.68212 0.0
O401 O 0.30645 0.88595 0.59791 0.0
Sc402 Sc 0.37261 0.10379 0.83249 0.0
Sc403 Sc 0.38023 0.16409 0.87007 0.0
Sc404 Sc 0.33726 0.11124 0.89327 0.0
O405 O 0.36271 0.12679 0.86513 0.0
C406 C 0.31054 0.09265 0.83485 0.0
C407 C 0.37228 0.16485 0.80828 0.0
C408 C 0.31939 0.17214 0.89417 0.0
C409 C 0.42921 0.12794 0.84678 0.0
C410 C 0.36668 0.058 0.87783 0.0
C411 C 0.38359 0.14159 0.92985 0.0
O412 O 0.33072 0.10096 0.8204 0.0
O413 O 0.36614 0.17667 0.83069 0.0
O414 O 0.31211 0.14692 0.89335 0.0
O415 O 0.41473 0.10599 0.845 0.0
O416 O 0.36177 0.07538 0.89656 0.0
O417 O 0.39531 0.15371 0.9099 0.0
O418 O 0.36727 0.0645 0.85264 0.0
O419 O 0.41893 0.15143 0.85174 0.0
O420 O 0.36121 0.12777 0.92738 0.0
O421 O 0.37847 0.13953 0.8068 0.0
O422 O 0.3108 0.09274 0.86121 0.0
O423 O 0.34355 0.18068 0.88826 0.0
Sc424 Sc 0.67184 0.34567 0.88637 0.0
Sc425 Sc 0.60305 0.33646 0.86553 0.0
Sc426 Sc 0.63754 0.39694 0.84966 0.0
O427 O 0.6376 0.35965 0.8675 0.0
C428 C 0.67635 0.40815 0.90223 0.0
C429 C 0.62285 0.32608 0.92602 0.0
C430 C 0.57965 0.39735 0.87545 0.0
C431 C 0.64886 0.28992 0.8615 0.0
C432 C 0.69493 0.37468 0.83212 0.0
C433 C 0.6013 0.36165 0.80718 0.0
O434 O 0.67884 0.38323 0.90937 0.0
O435 O 0.6034 0.33066 0.90911 0.0
O436 O 0.60255 0.40995 0.87279 0.0
O437 O 0.66934 0.30602 0.86598 0.0
O438 O 0.67248 0.38603 0.82552 0.0
O439 O 0.60095 0.3399 0.82151 0.0
O440 O 0.69841 0.36142 0.85437 0.0
O441 O 0.62427 0.29832 0.86133 0.0
O442 O 0.61092 0.3845 0.81603 0.0
O443 O 0.64827 0.32934 0.92036 0.0
O444 O 0.66365 0.41526 0.88061 0.0
O445 O 0.5768 0.37162 0.8707 0.0
Sc446 Sc 0.89773 0.35275 0.09589 0.0
Sc447 Sc 0.88495 0.41621 0.12757 0.0
Sc448 Sc 0.85252 0.39953 0.06599 0.0
O449 O 0.87851 0.38932 0.09658 0.0
C450 C 0.89708 0.36464 0.03309 0.0
C451 C 0.9447 0.39409 0.11804 0.0
C452 C 0.88498 0.45458 0.07431 0.0
C453 C 0.88471 0.35871 0.15903 0.0
C454 C 0.83587 0.33847 0.07581 0.0
C455 C 0.8225 0.42513 0.11801 0.0
O456 O 0.91114 0.3581 0.05408 0.0
O457 O 0.92857 0.41388 0.12276 0.0
O458 O 0.87618 0.43616 0.05755 0.0
O459 O 0.88685 0.34346 0.13781 0.0
O460 O 0.82816 0.36323 0.07322 0.0
O461 O 0.84166 0.42 0.13492 0.0
O462 O 0.86056 0.3318 0.08145 0.0
O463 O 0.88533 0.38481 0.15831 0.0
O464 O 0.82525 0.42246 0.09216 0.0
O465 O 0.93654 0.37022 0.11024 0.0
O466 O 0.87472 0.37764 0.03484 0.0
O467 O 0.88577 0.45095 0.10023 0.0
Sc468 Sc 0.90626 0.56921 0.36061 0.0
Sc469 Sc 0.90704 0.6409 0.36065 0.0
Sc470 Sc 0.86323 0.605 0.40441 0.0
O471 O 0.89209 0.60528 0.37525 0.0
C472 C 0.84371 0.55786 0.36138 0.0
C473 C 0.91095 0.60735 0.30748 0.0
C474 C 0.84342 0.65444 0.36839 0.0
C475 C 0.96022 0.6018 0.36394 0.0
C476 C 0.89085 0.55282 0.42227 0.0
C477 C 0.90178 0.65574 0.42355 0.0
O478 O 0.86565 0.55789 0.34714 0.0
O479 O 0.89973 0.62789 0.31889 0.0
O480 O 0.83768 0.63321 0.38253 0.0
O481 O 0.94754 0.5805 0.37304 0.0
O482 O 0.88696 0.57763 0.429 0.0
O483 O 0.91522 0.65752 0.4012 0.0
O484 O 0.89719 0.54633 0.39775 0.0
O485 O 0.9478 0.62406 0.3583 0.0
O486 O 0.882 0.63869 0.42706 0.0
O487 O 0.91632 0.58567 0.32079 0.0
O488 O 0.84139 0.57131 0.38394 0.0
O489 O 0.86767 0.66049 0.36054 0.0
Sc490 Sc 0.89232 0.85476 0.89765 0.0
Sc491 Sc 0.84541 0.88701 0.94084 0.0
Sc492 Sc 0.87848 0.92407 0.88983 0.0
O493 O 0.87223 0.88853 0.90963 0.0
C494 C 0.93793 0.90356 0.89365 0.0
C495 C 0.89372 0.84752 0.96148 0.0
C496 C 0.86808 0.94509 0.95194 0.0
C497 C 0.83168 0.83145 0.91041 0.0
C498 C 0.88372 0.88025 0.8403 0.0
C499 C 0.81544 0.9243 0.89624 0.0
O500 O 0.92986 0.87859 0.89012 0.0
O501 O 0.87046 0.85892 0.96462 0.0
O502 O 0.87109 0.94929 0.92626 0.0
O503 O 0.85662 0.82768 0.90341 0.0
O504 O 0.88645 0.9045 0.85023 0.0
O505 O 0.81722 0.91461 0.92049 0.0
O506 O 0.88 0.85941 0.85551 0.0
O507 O 0.82368 0.85346 0.92183 0.0
O508 O 0.83561 0.9255 0.87971 0.0
O509 O 0.9064 0.84735 0.9387 0.0
O510 O 0.92143 0.92289 0.89929 0.0
O511 O 0.86468 0.92114 0.96172 0.0
Sc512 Sc 0.81304 0.11695 0.57946 0.0
Sc513 Sc 0.86681 0.14583 0.61823 0.0
Sc514 Sc 0.83986 0.08218 0.63461 0.0
O515 O 0.83985 0.11535 0.61075 0.0
C516 C 0.77831 0.08907 0.62821 0.0
C517 C 0.81063 0.17656 0.60335 0.0
C518 C 0.85737 0.1292 0.67767 0.0
C519 C 0.86633 0.14692 0.55436 0.0
C520 C 0.83111 0.05657 0.57602 0.0
C521 C 0.90194 0.09117 0.62532 0.0
O522 O 0.78158 0.09491 0.60281 0.0
O523 O 0.83612 0.17638 0.60979 0.0
O524 O 0.85443 0.10407 0.67074 0.0
O525 O 0.84113 0.1394 0.55305 0.0
O526 O 0.82703 0.05492 0.60175 0.0
O527 O 0.8999 0.11729 0.62763 0.0
O528 O 0.82891 0.07906 0.56308 0.0
O529 O 0.88029 0.14613 0.57648 0.0
O530 O 0.88127 0.07493 0.62353 0.0
O531 O 0.79747 0.15535 0.59449 0.0
O532 O 0.79816 0.08917 0.64534 0.0
O533 O 0.85502 0.14838 0.66041 0.0
Sc534 Sc 0.64705 0.07852 0.36959 0.0
Sc535 Sc 0.67394 0.12347 0.42063 0.0
Sc536 Sc 0.61237 0.13919 0.38599 0.0
O537 O 0.64442 0.1137 0.39218 0.0
C538 C 0.62789 0.12252 0.32516 0.0
C539 C 0.7085 0.10246 0.36956 0.0
C540 C 0.66046 0.18319 0.39828 0.0
C541 C 0.66887 0.05845 0.4277 0.0
C542 C 0.58305 0.07971 0.37874 0.0
C543 C 0.61742 0.13657 0.45113 0.0
O544 O 0.63705 0.09915 0.33193 0.0
O545 O 0.7071 0.11668 0.39164 0.0
O546 O 0.63693 0.17645 0.38876 0.0
O547 O 0.65796 0.05368 0.40431 0.0
O548 O 0.58288 0.10574 0.38179 0.0
O549 O 0.64294 0.13087 0.45144 0.0
O550 O 0.60505 0.06637 0.37575 0.0
O551 O 0.67595 0.08237 0.43585 0.0
O552 O 0.60373 0.14033 0.42913 0.0
O553 O 0.68884 0.08748 0.36045 0.0
O554 O 0.61896 0.13985 0.34252 0.0
O555 O 0.67603 0.16616 0.41001 0.0
Sc556 Sc 0.63289 0.86532 0.11107 0.0
Sc557 Sc 0.57529 0.82861 0.13591 0.0
Sc558 Sc 0.60823 0.87836 0.17785 0.0
O559 O 0.60555 0.8574 0.14164 0.0
C560 C 0.67061 0.86624 0.16533 0.0
C561 C 0.62686 0.80039 0.1071 0.0
C562 C 0.59137 0.81745 0.19764 0.0
C563 C 0.57593 0.85913 0.07857 0.0
C564 C 0.62417 0.92535 0.13445 0.0
C565 C 0.54406 0.87742 0.16668 0.0
O566 O 0.66766 0.86561 0.13925 0.0
O567 O 0.60305 0.79913 0.11783 0.0
O568 O 0.59993 0.84196 0.20236 0.0
O569 O 0.60108 0.86673 0.07969 0.0
O570 O 0.61723 0.91774 0.15849 0.0
O571 O 0.5441 0.85477 0.15332 0.0
O572 O 0.62908 0.90849 0.11518 0.0
O573 O 0.5643 0.84525 0.09725 0.0
O574 O 0.56578 0.88888 0.17621 0.0
O575 O 0.63995 0.82284 0.10369 0.0
O576 O 0.65084 0.8696 0.18191 0.0
O577 O 0.58284 0.80942 0.17424 0.0
Sc578 Sc 0.37678 0.62887 0.07378 0.0
Sc579 Sc 0.42951 0.66442 0.10892 0.0
Sc580 Sc 0.39028 0.61479 0.14252 0.0
O581 O 0.39914 0.6358 0.10831 0.0
C582 C 0.33111 0.62525 0.12061 0.0
C583 C 0.38112 0.69306 0.07575 0.0
C584 C 0.40367 0.67516 0.16656 0.0
C585 C 0.43747 0.64119 0.05001 0.0
C586 C 0.38328 0.5691 0.09444 0.0
C587 C 0.45435 0.61608 0.14559 0.0
O588 O 0.33826 0.62178 0.09564 0.0
O589 O 0.40581 0.6928 0.08469 0.0
O590 O 0.3971 0.64989 0.16968 0.0
O591 O 0.41183 0.63603 0.04693 0.0
O592 O 0.3821 0.57713 0.11946 0.0
O593 O 0.45619 0.63969 0.13441 0.0
O594 O 0.38542 0.58575 0.07445 0.0
O595 O 0.44813 0.64724 0.0732 0.0
O596 O 0.43195 0.6024 0.14715 0.0
O597 O 0.36655 0.67136 0.07236 0.0
O598 O 0.34831 0.62647 0.14028 0.0
O599 O 0.41336 0.68443 0.14428 0.0
Sc600 Sc 0.13551 0.60404 0.81465 0.0
Sc601 Sc 0.17371 0.62859 0.87029 0.0
Sc602 Sc 0.11132 0.65776 0.85492 0.0
O603 O 0.14031 0.63034 0.84637 0.0
C604 C 0.11156 0.66076 0.79155 0.0
C605 C 0.19737 0.61464 0.81002 0.0
C606 C 0.16748 0.69158 0.86735 0.0
C607 C 0.1611 0.5667 0.86176 0.0
C608 C 0.07638 0.60381 0.83849 0.0
C609 C 0.12599 0.63835 0.91359 0.0
O610 O 0.11553 0.63491 0.7891 0.0
O611 O 0.19986 0.61686 0.8361 0.0
O612 O 0.14132 0.68909 0.86768 0.0
O613 O 0.15465 0.56984 0.83649 0.0
O614 O 0.07779 0.62955 0.84383 0.0
O615 O 0.15151 0.63759 0.90788 0.0
O616 O 0.09692 0.59023 0.83037 0.0
O617 O 0.16498 0.5867 0.87825 0.0
O618 O 0.10764 0.64291 0.89568 0.0
O619 O 0.17428 0.61629 0.79789 0.0
O620 O 0.11359 0.67347 0.81438 0.0
O621 O 0.18315 0.67117 0.86378 0.0
Sc622 Sc 0.15979 0.38523 0.60352 0.0
Sc623 Sc 0.0984 0.35883 0.63166 0.0
Sc624 Sc 0.1357 0.41146 0.6664 0.0
O625 O 0.13127 0.38518 0.63384 0.0
C626 C 0.19739 0.39357 0.65713 0.0
C627 C 0.14842 0.32166 0.61286 0.0
C628 C 0.11499 0.35642 0.69512 0.0
C629 C 0.10427 0.37585 0.56893 0.0
C630 C 0.1519 0.44885 0.61517 0.0
C631 C 0.0718 0.41414 0.65313 0.0
O632 O 0.19401 0.38714 0.63194 0.0
O633 O 0.12421 0.3244 0.62217 0.0
O634 O 0.12742 0.37962 0.69619 0.0
O635 O 0.12948 0.3829 0.57103 0.0
O636 O 0.14434 0.44596 0.64001 0.0
O637 O 0.06961 0.39084 0.64116 0.0
O638 O 0.15841 0.4288 0.59979 0.0
O639 O 0.09043 0.36687 0.5891 0.0
O640 O 0.09392 0.42334 0.66386 0.0
O641 O 0.16328 0.34175 0.60496 0.0
O642 O 0.17818 0.40267 0.67199 0.0
O643 O 0.10294 0.34732 0.67363 0.0
Sc644 Sc 0.58453 0.66679 0.62451 0.0
Sc645 Sc 0.60757 0.61303 0.66467 0.0
Sc646 Sc 0.62368 0.61423 0.59574 0.0
O647 O 0.60535 0.63166 0.62804 0.0
C648 C 0.56746 0.63481 0.56981 0.0
C649 C 0.54616 0.62644 0.66026 0.0
C650 C 0.6063 0.56105 0.62531 0.0
C651 C 0.60554 0.6759 0.6833 0.0
C652 C 0.63663 0.67724 0.58582 0.0
C653 C 0.66762 0.61293 0.6452 0.0
O654 O 0.5624 0.65163 0.58922 0.0
O655 O 0.56419 0.60809 0.6639 0.0
O656 O 0.60473 0.5754 0.60387 0.0
O657 O 0.60517 0.68529 0.65913 0.0
O658 O 0.64272 0.652 0.58379 0.0
O659 O 0.65081 0.61919 0.66412 0.0
O660 O 0.61588 0.68592 0.59903 0.0
O661 O 0.60284 0.65041 0.68823 0.0
O662 O 0.66022 0.60612 0.62071 0.0
O663 O 0.55122 0.65018 0.65001 0.0
O664 O 0.58937 0.62093 0.5686 0.0
O665 O 0.61249 0.57154 0.64854 0.0
Sc666 Sc 0.32513 0.34933 0.37601 0.0
Sc667 Sc 0.36824 0.3815 0.33032 0.0
Sc668 Sc 0.37396 0.31178 0.34169 0.0
O669 O 0.35561 0.34744 0.34917 0.0
C670 C 0.36757 0.30935 0.40472 0.0
C671 C 0.35383 0.40383 0.39045 0.0
C672 C 0.42382 0.35546 0.3427 0.0
C673 C 0.30653 0.39058 0.3283 0.0
C674 C 0.3105 0.29388 0.34919 0.0
C675 C 0.37605 0.33452 0.28411 0.0
O676 O 0.34342 0.31912 0.40302 0.0
O677 O 0.35845 0.40832 0.36505 0.0
O678 O 0.41417 0.33167 0.33616 0.0
O679 O 0.30411 0.38057 0.3524 0.0
O680 O 0.33592 0.28785 0.34731 0.0
O681 O 0.38024 0.3588 0.29362 0.0
O682 O 0.30268 0.31828 0.35374 0.0
O683 O 0.32797 0.38758 0.31378 0.0
O684 O 0.36547 0.31555 0.29872 0.0
O685 O 0.34656 0.38034 0.39924 0.0
O686 O 0.3836 0.30791 0.38425 0.0
O687 O 0.40848 0.37601 0.34693 0.0
H688 H 0.05217 0.22265 0.34364 0.0
H689 H 0.97804 0.25566 0.30684 0.0
H690 H 0.99028 0.23479 0.26249 0.0
H691 H 0.09549 0.23496 0.28904 0.0
H692 H 0.11477 0.20367 0.2915 0.0
H693 H 0.09886 0.21787 0.32167 0.0
H694 H 0.07244 0.17192 0.32973 0.0
H695 H 0.08866 0.15735 0.29981 0.0
H696 H 0.05169 0.15714 0.30236 0.0
H697 H 0.01309 0.21702 0.22153 0.0
H698 H 0.04283 0.19784 0.18587 0.0
H699 H 0.10185 0.17375 0.24832 0.0
C700 C 0.03818 0.22491 0.32642 0.0
C701 C 0.01415 0.2408 0.32875 0.0
C702 C -0.00354 0.24344 0.30568 0.0
C703 C 0.00325 0.23171 0.28034 0.0
C704 C 0.02752 0.21704 0.27854 0.0
C705 C 0.04449 0.21305 0.30097 0.0
C706 C 0.07006 0.19747 0.29289 0.0
C707 C 0.09634 0.21452 0.29915 0.0
C708 C 0.07074 0.16929 0.30704 0.0
C709 C 0.06526 0.19437 0.26219 0.0
C710 C 0.04054 0.20584 0.25454 0.0
C711 C 0.03225 0.20751 0.22725 0.0
C712 C 0.0495 0.19684 0.20715 0.0
C713 C 0.07471 0.18445 0.21439 0.0
C714 C 0.08262 0.18298 0.24232 0.0
H715 H 0.03042 0.74719 0.54407 0.0
H716 H 0.98923 0.82378 0.56227 0.0
H717 H 0.0172 0.84733 0.52695 0.0
H718 H 0.09859 0.77883 0.53203 0.0
H719 H 0.1067 0.75482 0.50491 0.0
H720 H 0.0844 0.74432 0.53255 0.0
H721 H 0.0467 0.73003 0.49709 0.0
H722 H 0.06883 0.74053 0.46939 0.0
H723 H 0.03499 0.75485 0.47243 0.0
H724 H 0.04642 0.8614 0.48711 0.0
H725 H 0.07734 0.8658 0.44696 0.0
H726 H 0.10147 0.7809 0.45632 0.0
C727 C 0.02745 0.76896 0.54074 0.0
C728 C 0.00765 0.7837 0.55581 0.0
C729 C 0.00443 0.81219 0.55104 0.0
C730 C 0.02017 0.8257 0.53102 0.0
C731 C 0.03934 0.81051 0.51635 0.0
C732 C 0.04333 0.78287 0.52121 0.0
C733 C 0.06509 0.77125 0.50237 0.0
C734 C 0.09018 0.76175 0.51896 0.0
C735 C 0.05318 0.74779 0.48425 0.0
C736 C 0.07204 0.79647 0.48552 0.0
C737 C 0.05698 0.81892 0.49399 0.0
C738 C 0.05865 0.84414 0.48059 0.0
C739 C 0.07613 0.84645 0.45788 0.0
C740 C 0.09176 0.82377 0.4491 0.0
C741 C 0.08993 0.79857 0.46313 0.0
H742 H 0.43696 0.84826 0.82046 0.0
H743 H 0.42435 0.75978 0.81502 0.0
H744 H 0.38735 0.76629 0.78082 0.0
H745 H 0.36257 0.86699 0.80951 0.0
H746 H 0.3723 0.89669 0.78954 0.0
H747 H 0.39424 0.88538 0.81715 0.0
H748 H 0.43549 0.88178 0.78332 0.0
H749 H 0.41373 0.89395 0.75629 0.0
H750 H 0.43115 0.86175 0.75214 0.0
H751 H 0.36064 0.78151 0.74051 0.0
H752 H 0.34644 0.80454 0.69766 0.0
H753 H 0.3714 0.88332 0.7325 0.0
C754 C 0.42599 0.83031 0.81245 0.0
C755 C 0.43345 0.80355 0.82018 0.0
C756 C 0.41882 0.78049 0.80933 0.0
C757 C 0.39765 0.784 0.79009 0.0
C758 C 0.39099 0.8107 0.78254 0.0
C759 C 0.40454 0.8335 0.79362 0.0
C760 C 0.39568 0.85976 0.77995 0.0
C761 C 0.38027 0.87829 0.80026 0.0
C762 C 0.42047 0.87517 0.76718 0.0
C763 C 0.37642 0.848 0.75816 0.0
C764 C 0.37365 0.81967 0.7602 0.0
C765 C 0.36154 0.80374 0.73926 0.0
C766 C 0.35343 0.81691 0.71507 0.0
C767 C 0.35706 0.84567 0.71244 0.0
C768 C 0.36716 0.86148 0.73477 0.0
H769 H 0.46972 0.21793 0.0478 0.0
H770 H 0.46087 0.14376 0.09625 0.0
H771 H 0.43207 0.12244 0.05949 0.0
H772 H 0.4019 0.21702 0.01625 0.0
H773 H 0.4145 0.22846 0.98337 0.0
H774 H 0.43237 0.23858 0.0145 0.0
H775 H 0.47748 0.21835 0.99524 0.0
H776 H 0.45975 0.20809 0.9641 0.0
H777 H 0.47786 0.18291 0.984 0.0
H778 H 0.4041 0.10959 0.0177 0.0
H779 H 0.38216 0.10444 0.97179 0.0
H780 H 0.41288 0.18561 0.94956 0.0
C781 C 0.46132 0.19738 0.05074 0.0
C782 C 0.46699 0.18248 0.07476 0.0
C783 C 0.45646 0.15539 0.07785 0.0
C784 C 0.44009 0.1432 0.05721 0.0
C785 C 0.43498 0.15833 0.03356 0.0
C786 C 0.44554 0.18469 0.03008 0.0
C787 C 0.4387 0.19573 0.00193 0.0
C788 C 0.4208 0.22147 0.00416 0.0
C789 C 0.46501 0.2016 0.98535 0.0
C790 C 0.42261 0.17148 0.99017 0.0
C791 C 0.42032 0.15027 0.00885 0.0
C792 C 0.40584 0.12597 0.0028 0.0
C793 C 0.39344 0.12325 0.97681 0.0
C794 C 0.39614 0.14452 0.95724 0.0
C795 C 0.41087 0.16888 0.96407 0.0
H796 H 0.0399 0.78858 0.18014 0.0
H797 H 0.11163 0.74582 0.15005 0.0
H798 H 0.1408 0.771 0.1835 0.0
H799 H 0.07665 0.85564 0.1961 0.0
H800 H 0.05655 0.86117 0.22665 0.0
H801 H 0.04162 0.84301 0.19758 0.0
H802 H 0.02951 0.80156 0.22876 0.0
H803 H 0.0441 0.81968 0.25785 0.0
H804 H 0.0563 0.78595 0.24883 0.0
H805 H 0.16058 0.79385 0.22468 0.0
H806 H 0.16971 0.81478 0.27057 0.0
H807 H 0.08655 0.84526 0.2726 0.0
C808 C 0.06183 0.78503 0.18022 0.0
C809 C 0.07351 0.76525 0.16261 0.0
C810 C 0.10223 0.76087 0.16343 0.0
C811 C 0.11904 0.7752 0.18223 0.0
C812 C 0.10688 0.79414 0.19976 0.0
C813 C 0.07899 0.79935 0.19878 0.0
C814 C 0.07078 0.81893 0.22157 0.0
C815 C 0.06082 0.84631 0.20976 0.0
C816 C 0.0489 0.80572 0.24036 0.0
C817 C 0.09813 0.82265 0.23628 0.0
C818 C 0.11877 0.80845 0.22316 0.0
C819 C 0.14492 0.80585 0.23473 0.0
C820 C 0.14996 0.81768 0.26067 0.0
C821 C 0.12902 0.83209 0.27429 0.0
C822 C 0.10307 0.83515 0.2618 0.0
H823 H 0.4312 0.80626 0.42891 0.0
H824 H 0.51041 0.77748 0.45676 0.0
H825 H 0.50875 0.80953 0.49666 0.0
H826 H 0.44216 0.87981 0.45152 0.0
H827 H 0.40652 0.88277 0.46095 0.0
H828 H 0.41606 0.86047 0.43287 0.0
H829 H 0.39129 0.8192 0.45641 0.0
H830 H 0.38143 0.84141 0.48418 0.0
H831 H 0.40035 0.81064 0.49131 0.0
H832 H 0.49379 0.83789 0.5375 0.0
H833 H 0.46727 0.85984 0.57469 0.0
H834 H 0.40077 0.87427 0.51685 0.0
C835 C 0.44839 0.80714 0.44318 0.0
C836 C 0.47082 0.78953 0.4401 0.0
C837 C 0.49308 0.79106 0.45893 0.0
C838 C 0.49237 0.80925 0.48149 0.0
C839 C 0.46968 0.82626 0.48422 0.0
C840 C 0.44833 0.82564 0.46525 0.0
C841 C 0.42531 0.84425 0.47375 0.0
C842 C 0.42236 0.86825 0.45357 0.0
C843 C 0.39802 0.8279 0.4766 0.0
C844 C 0.43621 0.85419 0.5013 0.0
C845 C 0.46194 0.84389 0.50699 0.0
C846 C 0.47403 0.84681 0.533 0.0
C847 C 0.45883 0.85938 0.55402 0.0
C848 C 0.4319 0.86881 0.54876 0.0
C849 C 0.4214 0.86763 0.52161 0.0
H850 H 0.4874 0.24707 0.72967 0.0
H851 H 0.44409 0.22311 0.65451 0.0
H852 H 0.40561 0.20506 0.68152 0.0
H853 H 0.46831 0.18867 0.76758 0.0
H854 H 0.46369 0.20642 0.79992 0.0
H855 H 0.4873 0.22006 0.77491 0.0
H856 H 0.46186 0.26644 0.77521 0.0
H857 H 0.43805 0.25316 0.80034 0.0
H858 H 0.42539 0.26688 0.7684 0.0
H859 H 0.37454 0.1847 0.71543 0.0
H860 H 0.35258 0.16294 0.75586 0.0
H861 H 0.41307 0.20255 0.80933 0.0
C862 C 0.46973 0.23816 0.71902 0.0
C863 C 0.4687 0.23668 0.69006 0.0
C864 C 0.44526 0.22479 0.67674 0.0
C865 C 0.42318 0.21452 0.69184 0.0
C866 C 0.4246 0.21651 0.72027 0.0
C867 C 0.44714 0.22804 0.73385 0.0
C868 C 0.44381 0.2261 0.7647 0.0
C869 C 0.46715 0.2093 0.77753 0.0
C870 C 0.44218 0.25486 0.77793 0.0
C871 C 0.41639 0.21092 0.7661 0.0
C872 C 0.40561 0.20575 0.74019 0.0
C873 C 0.38218 0.18927 0.73595 0.0
C874 C 0.36979 0.17712 0.75886 0.0
C875 C 0.38065 0.18211 0.7854 0.0
C876 C 0.40376 0.19967 0.78917 0.0
H877 H 0.05848 0.20176 0.92605 0.0
H878 H 0.98991 0.14407 0.91855 0.0
H879 H 0.00111 0.12499 0.96437 0.0
H880 H 0.1043 0.15382 0.95573 0.0
H881 H 0.12117 0.1788 0.97794 0.0
H882 H 0.1063 0.18949 0.94582 0.0
H883 H 0.07665 0.22536 0.9715 0.0
H884 H 0.09184 0.21509 0.00361 0.0
H885 H 0.05497 0.21426 -0.00058 0.0
H886 H 0.01929 0.1135 0.01137 0.0
H887 H 0.04466 0.10889 0.05551 0.0
H888 H 0.10404 0.17051 0.02875 0.0
C889 C 0.04564 0.18545 0.9344 0.0
C890 C 0.0232 0.1745 0.91945 0.0
C891 C 0.00709 0.15268 0.93022 0.0
C892 C 0.0133 0.14177 0.95604 0.0
C893 C 0.03599 0.15264 0.97019 0.0
C894 C 0.05203 0.17384 0.95968 0.0
C895 C 0.0762 0.18076 0.97816 0.0
C896 C 0.10361 0.17538 0.96353 0.0
C897 C 0.07481 0.21063 0.98881 0.0
C898 C 0.07111 0.16032 0.00084 0.0
C899 C 0.04768 0.14448 0.9961 0.0
C900 C 0.03793 0.12544 0.01517 0.0
C901 C 0.0524 0.12288 0.04 0.0
C902 C 0.0765 0.13886 0.04493 0.0
C903 C 0.08614 0.15742 0.02497 0.0
H904 H 0.31635 0.05985 0.18076 0.0
H905 H 0.33301 0.10711 0.25525 0.0
H906 H 0.29567 0.1388 0.24331 0.0
H907 H 0.29862 0.12024 0.13733 0.0
H908 H 0.27243 0.1008 0.11893 0.0
H909 H 0.30239 0.08372 0.13201 0.0
H910 H 0.27097 0.04949 0.15854 0.0
H911 H 0.24104 0.06641 0.14555 0.0
H912 H 0.24581 0.06271 0.18213 0.0
H913 H 0.25118 0.15975 0.22742 0.0
H914 H 0.2062 0.17091 0.20614 0.0
H915 H 0.22235 0.11328 0.13985 0.0
C916 C 0.31247 0.0772 0.19425 0.0
C917 C 0.32734 0.08096 0.21898 0.0
C918 C 0.3218 0.10386 0.23618 0.0
C919 C 0.30068 0.122 0.22955 0.0
C920 C 0.28589 0.11735 0.20528 0.0
C921 C 0.29194 0.09583 0.18761 0.0
C922 C 0.27226 0.09448 0.16348 0.0
C923 C 0.28733 0.10016 0.13633 0.0
C924 C 0.2566 0.06664 0.16239 0.0
C925 C 0.25347 0.11782 0.17097 0.0
C926 C 0.26154 0.13081 0.19516 0.0
C927 C 0.24513 0.15044 0.20796 0.0
C928 C 0.21968 0.15663 0.19585 0.0
C929 C 0.21135 0.14356 0.17102 0.0
C930 C 0.22879 0.12445 0.15824 0.0
H931 H 0.21077 0.05782 0.45207 0.0
H932 H 0.1485 0.06194 0.51559 0.0
H933 H 0.13093 0.01586 0.50175 0.0
H934 H 0.16796 0.02717 0.40123 0.0
H935 H 0.19441 0.00577 0.38702 0.0
H936 H 0.20356 0.03795 0.40351 0.0
H937 H 0.23646 0.01244 0.43633 0.0
H938 H 0.22719 0.98006 0.42024 0.0
H939 H 0.22337 0.98442 0.45685 0.0
H940 H 0.1203 0.96942 0.48099 0.0
H941 H 0.11543 0.92707 0.45231 0.0
H942 H 0.18214 0.95576 0.40048 0.0
C943 C 0.19368 0.04883 0.46327 0.0
C944 C 0.18102 0.06318 0.48491 0.0
C945 C 0.15839 0.05113 0.49886 0.0
C946 C 0.14836 0.025 0.49126 0.0
C947 C 0.16106 0.0115 0.46954 0.0
C948 C 0.1831 0.02306 0.45563 0.0
C949 C 0.19205 0.005 0.43203 0.0
C950 C 0.18931 0.01987 0.40432 0.0
C951 C 0.22152 0.99489 0.43666 0.0
C952 C 0.17127 0.98177 0.43453 0.0
C953 C 0.15392 0.98556 0.45662 0.0
C954 C 0.13359 0.96627 0.46349 0.0
C955 C 0.13093 0.94244 0.4472 0.0
C956 C 0.14807 0.93877 0.42413 0.0
C957 C 0.16841 0.9586 0.41774 0.0
H958 H 0.16638 0.9245 0.70859 0.0
H959 H 0.13406 0.96531 0.63663 0.0
H960 H 0.16878 0.94256 0.60766 0.0
H961 H 0.23296 0.93685 0.69362 0.0
H962 H 0.24624 0.90506 0.70677 0.0
H963 H 0.21485 0.91846 0.72025 0.0
H964 H 0.18956 0.87251 0.70806 0.0
H965 H 0.22104 0.85897 0.69437 0.0
H966 H 0.19046 0.85943 0.67326 0.0
H967 H 0.21064 0.92113 0.58796 0.0
H968 H 0.25896 0.90794 0.58043 0.0
H969 H 0.26545 0.88373 0.66583 0.0
C970 C 0.16604 0.9278 0.68657 0.0
C971 C 0.14746 0.94624 0.67466 0.0
C972 C 0.14813 0.95102 0.646 0.0
C973 C 0.16757 0.938 0.62939 0.0
C974 C 0.1862 0.92041 0.64185 0.0
C975 C 0.18567 0.91544 0.66987 0.0
C976 C 0.21066 0.89978 0.67908 0.0
C977 C 0.22714 0.91602 0.70121 0.0
C978 C 0.20243 0.87096 0.68929 0.0
C979 C 0.2261 0.89811 0.65222 0.0
C980 C 0.2112 0.90913 0.63074 0.0
C981 C 0.22229 0.91195 0.60446 0.0
C982 C 0.24968 0.90435 0.60033 0.0
C983 C 0.26567 0.8948 0.62258 0.0
C984 C 0.25342 0.89074 0.64848 0.0
H985 H 0.2517 0.96034 0.9244 0.0
H986 H 0.3052 0.94151 0.99334 0.0
H987 H 0.34449 0.96227 0.96913 0.0
H988 H 0.30429 0.94915 0.86988 0.0
H989 H 0.29217 0.97736 0.84946 0.0
H990 H 0.26845 0.95805 0.87055 0.0
H991 H 0.25364 0.00296 0.89537 0.0
H992 H 0.27653 0.02218 0.87361 0.0
H993 H 0.27968 0.02527 0.9105 0.0
H994 H 0.37597 0.99022 0.94162 0.0
H995 H 0.39584 0.02834 0.91455 0.0
H996 H 0.32446 0.02633 0.86102 0.0
C997 C 0.2717 0.96064 0.93431 0.0
C998 C 0.27543 0.94934 0.96069 0.0
C999 C 0.30191 0.94996 0.97304 0.0
C1000 C 0.32445 0.96141 0.95935 0.0
C1001 C 0.32032 0.97182 0.93312 0.0
C1002 C 0.29462 0.97175 0.92073 0.0
C1003 C 0.29545 0.98661 0.89349 0.0
C1004 C 0.28975 0.96659 0.86942 0.0
C1005 C 0.27515 0.01068 0.89326 0.0
C1006 C 0.32515 0.9966 0.89352 0.0
C1007 C 0.33932 0.98717 0.91625 0.0
C1008 C 0.36556 -0.00296 0.92321 0.0
C1009 C 0.37686 0.01847 0.90764 0.0
C1010 C 0.36198 0.02935 0.88534 0.0
C1011 C 0.33669 0.01721 0.87718 0.0
H1012 H 0.29416 0.98868 0.27106 0.0
H1013 H 0.31087 0.03405 0.3467 0.0
H1014 H 0.28449 -0.001 0.37283 0.0
H1015 H 0.22397 0.96895 0.2886 0.0
H1016 H 0.22618 0.93591 0.27169 0.0
H1017 H 0.2464 0.96465 0.25951 0.0
H1018 H 0.29044 0.93571 0.26487 0.0
H1019 H 0.27041 0.90713 0.27778 0.0
H1020 H 0.29866 0.92115 0.29787 0.0
H1021 H 0.25985 0.9571 0.39075 0.0
H1022 H 0.22844 0.91768 0.39866 0.0
H1023 H 0.22552 0.90114 0.31071 0.0
C1024 C 0.29191 0.99138 0.29309 0.0
C1025 C 0.30447 0.01391 0.307 0.0
C1026 C 0.30111 0.017 0.33574 0.0
C1027 C 0.28652 -0.00295 0.35074 0.0
C1028 C 0.27521 0.97451 0.3365 0.0
C1029 C 0.27703 0.97201 0.30823 0.0
C1030 C 0.26178 0.94661 0.29772 0.0
C1031 C 0.23818 0.95451 0.27824 0.0
C1032 C 0.28151 0.92647 0.28374 0.0
C1033 C 0.25107 0.93517 0.32453 0.0
C1034 C 0.25962 0.95121 0.34669 0.0
C1035 C 0.25261 0.94462 0.37358 0.0
C1036 C 0.23509 0.92192 0.37785 0.0
C1037 C 0.22451 0.90633 0.35525 0.0
C1038 C 0.23332 0.91263 0.32836 0.0
H1039 H 0.28906 0.05282 0.49482 0.0
H1040 H 0.30745 0.11336 0.55827 0.0
H1041 H 0.3409 0.08203 0.57929 0.0
H1042 H 0.28327 0.00027 0.5364 0.0
H1043 H 0.29815 0.97402 0.51497 0.0
H1044 H 0.28328 0.00369 0.49946 0.0
H1045 H 0.32909 0.01462 0.47457 0.0
H1046 H 0.34417 0.98464 0.48987 0.0
H1047 H 0.36055 0.01796 0.49422 0.0
H1048 H 0.36218 0.04183 0.59954 0.0
H1049 H 0.36961 0.99543 0.61793 0.0
H1050 H 0.33718 0.95956 0.54215 0.0
C1051 C 0.30135 0.05979 0.51226 0.0
C1052 C 0.29651 0.08543 0.52475 0.0
C1053 C 0.31156 0.09382 0.54832 0.0
C1054 C 0.33065 0.07624 0.56024 0.0
C1055 C 0.33419 0.05036 0.54833 0.0
C1056 C 0.32014 0.04217 0.52466 0.0
C1057 C 0.32349 0.0117 0.51912 0.0
C1058 C 0.29539 0.99656 0.51742 0.0
C1059 C 0.34034 0.00696 0.49289 0.0
C1060 C 0.33957 0.0037 0.54451 0.0
C1061 C 0.34633 0.02644 0.56059 0.0
C1062 C 0.35778 0.02391 0.5868 0.0
C1063 C 0.36171 -0.00253 0.59718 0.0
C1064 C 0.35402 0.97395 0.58143 0.0
C1065 C 0.34378 0.97719 0.55441 0.0
H1066 H 0.15394 0.05899 0.79511 0.0
H1067 H 0.18544 0.00998 0.7275 0.0
H1068 H 0.23291 0.02043 0.7429 0.0
H1069 H 0.20547 0.11182 0.7951 0.0
H1070 H 0.20763 0.115 0.83204 0.0
H1071 H 0.17597 0.10356 0.81597 0.0
H1072 H 0.17613 0.05936 0.8456 0.0
H1073 H 0.20782 0.07073 0.86176 0.0
H1074 H 0.20577 0.03752 0.84501 0.0
H1075 H 0.27627 0.03825 0.76333 0.0
H1076 H 0.3141 0.06025 0.78973 0.0
H1077 H 0.25527 0.09522 0.84648 0.0
C1078 C 0.17088 0.05057 0.78357 0.0
C1079 C 0.16616 0.0339 0.76001 0.0
C1080 C 0.18871 0.02281 0.74561 0.0
C1081 C 0.21569 0.02862 0.75417 0.0
C1082 C 0.21967 0.04511 0.77744 0.0
C1083 C 0.19798 0.05567 0.79219 0.0
C1084 C 0.20814 0.07247 0.81674 0.0
C1085 C 0.19875 0.10249 0.81483 0.0
C1086 C 0.19892 0.05922 0.84388 0.0
C1087 C 0.23893 0.07032 0.81297 0.0
C1088 C 0.24501 0.05446 0.79011 0.0
C1089 C 0.27184 0.05048 0.78143 0.0
C1090 C 0.29312 0.06318 0.79645 0.0
C1091 C 0.28745 0.0794 0.82002 0.0
C1092 C 0.26005 0.08271 0.82864 0.0
H1093 H 0.19042 0.9569 0.02481 0.0
H1094 H 0.22829 0.92033 0.09643 0.0
H1095 H 0.20993 0.95727 0.12588 0.0
H1096 H 0.20769 0.02472 0.04325 0.0
H1097 H 0.17668 0.03995 0.03032 0.0
H1098 H 0.18889 0.00848 0.01529 0.0
H1099 H 0.142 0.98449 0.02504 0.0
H1100 H 0.12956 0.01601 0.03993 0.0
H1101 H 0.12854 0.98466 0.05955 0.0
H1102 H 0.19118 -0.00052 0.14686 0.0
H1103 H 0.1739 0.04555 0.15824 0.0
H1104 H 0.14992 0.05653 0.07278 0.0
C1105 C 0.19404 0.95637 0.04681 0.0
C1106 C 0.21028 0.93573 0.0586 0.0
C1107 C 0.21563 0.93599 0.08723 0.0
C1108 C 0.20526 0.95678 0.10408 0.0
C1109 C 0.18986 0.97731 0.09186 0.0
C1110 C 0.18428 0.9774 0.0639 0.0
C1111 C 0.16966 0.00344 0.05572 0.0
C1112 C 0.18676 0.02013 0.03492 0.0
C1113 C 0.14072 0.99674 0.0444 0.0
C1114 C 0.16835 0.01805 0.08335 0.0
C1115 C 0.17979 0.00241 0.10393 0.0
C1116 C 0.18187 0.01185 0.13101 0.0
C1117 C 0.17201 0.03807 0.13725 0.0
C1118 C 0.1605 0.05466 0.11644 0.0
C1119 C 0.15856 0.04435 0.08917 0.0
H1120 H 0.2047 0.31842 0.02125 0.0
H1121 H 0.16481 0.37886 0.07303 0.0
H1122 H 0.13466 0.3422 0.09186 0.0
H1123 H 0.14323 0.27146 0.0099 0.0
H1124 H 0.16441 0.24143 0.01192 0.0
H1125 H 0.17836 0.27306 -0.00177 0.0
H1126 H 0.21802 0.27136 0.03365 0.0
H1127 H 0.20419 0.24024 0.04806 0.0
H1128 H 0.21036 0.26992 0.06988 0.0
H1129 H 0.11283 0.29819 0.10891 0.0
H1130 H 0.10262 0.25046 0.12397 0.0
H1131 H 0.15964 0.21942 0.06334 0.0
C1132 C 0.18891 0.32417 0.03575 0.0
C1133 C 0.18682 0.35152 0.04544 0.0
C1134 C 0.16657 0.35804 0.06518 0.0
C1135 C 0.14931 0.33738 0.0759 0.0
C1136 C 0.15266 0.3104 0.06667 0.0
C1137 C 0.17192 0.3038 0.04694 0.0
C1138 C 0.17405 0.27299 0.04307 0.0
C1139 C 0.16443 0.26423 0.01406 0.0
C1140 C 0.20339 0.26307 0.04906 0.0
C1141 C 0.15403 0.26325 0.06467 0.0
C1142 C 0.14124 0.28504 0.07751 0.0
C1143 C 0.12252 0.28098 0.09881 0.0
C1144 C 0.11693 0.25391 0.10729 0.0
C1145 C 0.13066 0.23155 0.09496 0.0
C1146 C 0.14916 0.2363 0.07325 0.0
H1147 H 0.71408 0.18232 0.95429 0.0
H1148 H 0.63072 0.15209 0.96468 0.0
H1149 H 0.61724 0.17384 0.92077 0.0
H1150 H 0.69617 0.24551 0.93825 0.0
H1151 H 0.72326 0.25285 0.91405 0.0
H1152 H 0.72829 0.22752 0.9401 0.0
H1153 H 0.73954 0.19135 0.90243 0.0
H1154 H 0.73419 0.21676 0.87612 0.0
H1155 H 0.71525 0.18456 0.87495 0.0
H1156 H 0.611 0.20509 0.8815 0.0
H1157 H 0.60946 0.24911 0.85725 0.0
H1158 H 0.69628 0.26286 0.87446 0.0
C1159 C 0.69337 0.17919 0.94639 0.0
C1160 C 0.67357 0.16486 0.96199 0.0
C1161 C 0.64623 0.16237 0.95235 0.0
C1162 C 0.63853 0.17449 0.92739 0.0
C1163 C 0.65841 0.18926 0.91264 0.0
C1164 C 0.68529 0.19185 0.92198 0.0
C1165 C 0.70104 0.21377 0.90625 0.0
C1166 C 0.71283 0.23622 0.92583 0.0
C1167 C 0.72385 0.20082 0.8889 0.0
C1168 C 0.67832 0.2246 0.88806 0.0
C1169 C 0.65432 0.20921 0.89101 0.0
C1170 C 0.62976 0.21702 0.87871 0.0
C1171 C 0.62913 0.24218 0.86487 0.0
C1172 C 0.65269 0.25979 0.86433 0.0
C1173 C 0.678 0.24985 0.87431 0.0
H1174 H 0.07119 0.49188 0.15139 0.0
H1175 H 0.09709 0.43055 0.21004 0.0
H1176 H 0.06251 0.3976 0.19092 0.0
H1177 H 0.00147 0.47855 0.15886 0.0
H1178 H 0.99252 0.48483 0.12343 0.0
H1179 H 0.02233 0.50151 0.13841 0.0
H1180 H 0.0526 0.4813 0.0996 0.0
H1181 H 0.02279 0.46432 0.08464 0.0
H1182 H 0.05257 0.44461 0.09367 0.0
H1183 H 0.02309 0.37265 0.16766 0.0
H1184 H 0.97792 0.36015 0.14698 0.0
H1185 H 0.97594 0.43917 0.10627 0.0
C1186 C 0.06996 0.4713 0.15974 0.0
C1187 C 0.0869 0.46349 0.18185 0.0
C1188 C 0.08426 0.43675 0.19295 0.0
C1189 C 0.0649 0.41787 0.18207 0.0
C1190 C 0.04827 0.42624 0.16033 0.0
C1191 C 0.05038 0.45247 0.14954 0.0
C1192 C 0.02776 0.45768 0.12887 0.0
C1193 C 0.00997 0.48207 0.13795 0.0
C1194 C 0.03965 0.46224 0.09998 0.0
C1195 C 0.01205 0.43064 0.13036 0.0
C1196 C 0.02468 0.41242 0.14794 0.0
C1197 C 0.0132 0.38659 0.15358 0.0
C1198 C 0.98768 0.37958 0.14165 0.0
C1199 C 0.97382 0.39867 0.12493 0.0
C1200 C 0.98644 0.42417 0.11874 0.0
H1201 H 0.78622 0.77117 0.4529 0.0
H1202 H 0.79594 0.8241 0.38242 0.0
H1203 H 0.79923 0.78282 0.35205 0.0
H1204 H 0.83211 0.72451 0.43733 0.0
H1205 H 0.81326 0.69479 0.44949 0.0
H1206 H 0.80633 0.72808 0.46363 0.0
H1207 H 0.75482 0.72204 0.45039 0.0
H1208 H 0.7617 0.68856 0.43592 0.0
H1209 H 0.7453 0.71429 0.41524 0.0
H1210 H 0.81376 0.7371 0.33316 0.0
H1211 H 0.83555 0.69182 0.32716 0.0
H1212 H 0.80849 0.66815 0.40844 0.0
C1213 C 0.78779 0.77395 0.43091 0.0
C1214 C 0.7906 0.80038 0.41973 0.0
C1215 C 0.79352 0.80373 0.39108 0.0
C1216 C 0.79522 0.78046 0.3738 0.0
C1217 C 0.79285 0.75436 0.3856 0.0
C1218 C 0.78848 0.75112 0.41351 0.0
C1219 C 0.78953 0.72132 0.42191 0.0
C1220 C 0.81163 0.71695 0.44436 0.0
C1221 C 0.76114 0.71094 0.43142 0.0
C1222 C 0.79739 0.70832 0.39481 0.0
C1223 C 0.79896 0.72759 0.37395 0.0
C1224 C 0.81141 0.72155 0.34884 0.0
C1225 C 0.82371 0.69579 0.34555 0.0
C1226 C 0.82301 0.67639 0.36711 0.0
C1227 C 0.80821 0.68218 0.39121 0.0
H1228 H 0.92479 0.04618 0.21825 0.0
H1229 H 0.93255 0.97628 0.16308 0.0
H1230 H 0.97675 0.99559 0.14587 0.0
H1231 H 0.95094 0.09666 0.16981 0.0
H1232 H 0.96789 0.11713 0.19615 0.0
H1233 H 0.93741 0.09733 0.20428 0.0
H1234 H 0.96392 0.07308 0.24343 0.0
H1235 H 0.99453 0.09265 0.23529 0.0
H1236 H 0.99539 0.05556 0.23565 0.0
H1237 H 0.02149 0.02096 0.13769 0.0
H1238 H 0.06072 0.05398 0.13395 0.0
H1239 H 0.02077 0.10938 0.19089 0.0
C1240 C 0.93586 0.03511 0.20247 0.0
C1241 C 0.92579 0.00983 0.19194 0.0
C1242 C 0.94027 0.99578 0.17117 0.0
C1243 C 0.9653 0.0065 0.16145 0.0
C1244 C 0.97492 0.03147 0.17242 0.0
C1245 C 0.96037 0.04588 0.19204 0.0
C1246 C 0.97456 0.07279 0.19965 0.0
C1247 C 0.95663 0.09743 0.192 0.0
C1248 C 0.98258 0.07354 0.23032 0.0
C1249 C -0.00039 0.07111 0.18152 0.0
C1250 C -0.00031 0.04692 0.1663 0.0
C1251 C 0.02149 0.04014 0.14917 0.0
C1252 C 0.04363 0.05882 0.14727 0.0
C1253 C 0.04329 0.08402 0.16198 0.0
C1254 C 0.0211 0.09027 0.17925 0.0
H1255 H 0.32662 0.68692 0.50215 0.0
H1256 H 0.35134 0.63878 0.57244 0.0
H1257 H 0.36539 0.68129 0.59721 0.0
H1258 H 0.37966 0.74512 0.51118 0.0
H1259 H 0.35486 0.77036 0.50105 0.0
H1260 H 0.35309 0.7361 0.48655 0.0
H1261 H 0.30253 0.7317 0.5026 0.0
H1262 H 0.3043 0.76545 0.51808 0.0
H1263 H 0.29466 0.7361 0.53857 0.0
H1264 H 0.36907 0.72756 0.61684 0.0
H1265 H 0.36839 0.77673 0.62912 0.0
H1266 H 0.33942 0.79613 0.54692 0.0
C1267 C 0.33653 0.68545 0.5221 0.0
C1268 C 0.33892 0.65987 0.53528 0.0
C1269 C 0.35031 0.65835 0.56196 0.0
C1270 C 0.35808 0.68233 0.57617 0.0
C1271 C 0.35399 0.70747 0.56334 0.0
C1272 C 0.34399 0.70932 0.53673 0.0
C1273 C 0.33869 0.73899 0.52907 0.0
C1274 C 0.35771 0.74819 0.50558 0.0
C1275 C 0.30824 0.74329 0.52165 0.0
C1276 C 0.34635 0.75332 0.55588 0.0
C1277 C 0.3553 0.73465 0.57519 0.0
C1278 C 0.36263 0.74249 0.6018 0.0
C1279 C 0.36195 0.7704 0.60861 0.0
C1280 C 0.35388 0.79009 0.58892 0.0
C1281 C 0.34541 0.78141 0.56239 0.0
H1282 H 0.04776 0.52283 0.25371 0.0
H1283 H 0.07263 0.60303 0.22347 0.0
H1284 H 0.05034 0.62522 0.26353 0.0
H1285 H 0.98131 0.54245 0.27807 0.0
H1286 H 0.98222 0.52058 0.30782 0.0
H1287 H 0.00081 0.51129 0.27729 0.0
H1288 H 0.04564 0.50839 0.30575 0.0
H1289 H 0.02751 0.51804 0.33652 0.0
H1290 H 0.05726 0.53774 0.32583 0.0
H1291 H 0.02705 0.63816 0.30748 0.0
H1292 H 0.99531 0.6424 0.34647 0.0
H1293 H 0.984 0.55353 0.34725 0.0
C1294 C 0.04796 0.54509 0.25538 0.0
C1295 C 0.06125 0.56144 0.23549 0.0
C1296 C 0.06189 0.59039 0.23836 0.0
C1297 C 0.04972 0.60304 0.2612 0.0
C1298 C 0.03722 0.58631 0.28087 0.0
C1299 C 0.03574 0.558 0.27791 0.0
C1300 C 0.02004 0.54483 0.30134 0.0
C1301 C 0.99458 0.52887 0.2905 0.0
C1302 C 0.03874 0.52615 0.31836 0.0
C1303 C 0.01228 0.57024 0.31764 0.0
C1304 C 0.02312 0.59384 0.30588 0.0
C1305 C 0.01837 0.61985 0.31682 0.0
C1306 C 0.0005 0.622 0.33921 0.0
C1307 C 0.98693 0.59832 0.3499 0.0
C1308 C 0.99422 0.57201 0.33991 0.0
H1309 H 0.42901 0.41634 0.83401 0.0
H1310 H 0.44682 0.5036 0.82881 0.0
H1311 H 0.48814 0.49779 0.8582 0.0
H1312 H 0.45997 0.40646 0.90736 0.0
H1313 H 0.47219 0.3731 0.89707 0.0
H1314 H 0.44025 0.38562 0.88329 0.0
H1315 H 0.45846 0.37798 0.8338 0.0
H1316 H 0.49026 0.36573 0.8473 0.0
H1317 H 0.49044 0.39429 0.82382 0.0
H1318 H 0.53294 0.48032 0.87573 0.0
H1319 H 0.57533 0.45365 0.88116 0.0
H1320 H 0.527 0.37784 0.87771 0.0
C1321 C 0.44094 0.43434 0.84035 0.0
C1322 C 0.43492 0.46037 0.82967 0.0
C1323 C 0.45103 0.48359 0.83744 0.0
C1324 C 0.47446 0.48042 0.8541 0.0
C1325 C 0.48081 0.45405 0.86325 0.0
C1326 C 0.46398 0.43149 0.85722 0.0
C1327 C 0.4771 0.40485 0.86571 0.0
C1328 C 0.46145 0.39174 0.8898 0.0
C1329 C 0.4792 0.38458 0.8412 0.0
C1330 C 0.50502 0.41557 0.87489 0.0
C1331 C 0.50662 0.44403 0.8741 0.0
C1332 C 0.53168 0.45813 0.87737 0.0
C1333 C 0.55572 0.44277 0.88036 0.0
C1334 C 0.55451 0.4136 0.87979 0.0
C1335 C 0.52863 0.40009 0.87855 0.0
H1336 H 0.90844 0.78795 0.70678 0.0
H1337 H 0.94682 0.85972 0.66962 0.0
H1338 H 0.93307 0.88809 0.70959 0.0
H1339 H 0.85077 0.82288 0.73933 0.0
H1340 H 0.8523 0.80208 0.76984 0.0
H1341 H 0.86288 0.78804 0.7372 0.0
H1342 H 0.91041 0.77627 0.75805 0.0
H1343 H 0.89993 0.79012 0.79073 0.0
H1344 H 0.93074 0.80309 0.77455 0.0
H1345 H 0.91675 0.90815 0.75457 0.0
H1346 H 0.90268 0.91757 0.8024 0.0
H1347 H 0.87634 0.83218 0.81071 0.0
C1348 C 0.91358 0.80972 0.70686 0.0
C1349 C 0.92847 0.82172 0.685 0.0
C1350 C 0.93534 0.85015 0.68613 0.0
C1351 C 0.9275 0.86644 0.70867 0.0
C1352 C 0.91295 0.85394 0.72998 0.0
C1353 C 0.90624 0.82618 0.72935 0.0
C1354 C 0.8924 0.81731 0.75577 0.0
C1355 C 0.86283 0.80697 0.75019 0.0
C1356 C 0.90939 0.79542 0.77065 0.0
C1357 C 0.89268 0.84434 0.77153 0.0
C1358 C 0.90424 0.86531 0.75616 0.0
C1359 C 0.90751 0.89192 0.76673 0.0
C1360 C 0.89935 0.89709 0.79394 0.0
C1361 C 0.88833 0.87565 0.81042 0.0
C1362 C 0.88453 0.84909 0.79872 0.0
H1363 H 0.98244 0.23431 0.47773 0.0
H1364 H 0.91887 0.25646 0.41899 0.0
H1365 H 0.886 0.22586 0.44222 0.0
H1366 H 0.96227 0.16305 0.48482 0.0
H1367 H 0.96895 0.16206 0.52132 0.0
H1368 H 0.98827 0.18543 0.49991 0.0
H1369 H 0.97355 0.22666 0.53037 0.0
H1370 H 0.95459 0.20335 0.55209 0.0
H1371 H 0.9375 0.23206 0.53657 0.0
H1372 H 0.85999 0.19255 0.47071 0.0
H1373 H 0.84069 0.16288 0.50692 0.0
H1374 H 0.92034 0.16281 0.548 0.0
C1375 C 0.9616 0.2328 0.46983 0.0
C1376 C 0.9534 0.24774 0.44643 0.0
C1377 C 0.92581 0.24529 0.43687 0.0
C1378 C 0.90693 0.22779 0.44979 0.0
C1379 C 0.9158 0.21295 0.47237 0.0
C1380 C 0.94229 0.21553 0.48265 0.0
C1381 C 0.946 0.19806 0.50802 0.0
C1382 C 0.96766 0.17583 0.50322 0.0
C1383 C 0.95333 0.21611 0.53325 0.0
C1384 C 0.91741 0.18545 0.51036 0.0
C1385 C 0.90046 0.19404 0.48935 0.0
C1386 C 0.87301 0.18562 0.48732 0.0
C1387 C 0.86229 0.16863 0.50791 0.0
C1388 C 0.87895 0.16052 0.53035 0.0
C1389 C 0.90705 0.16857 0.53111 0.0
H1390 H 0.56392 0.19762 0.19781 0.0
H1391 H 0.59536 0.13115 0.14725 0.0
H1392 H 0.62313 0.11534 0.18639 0.0
H1393 H 0.62813 0.20877 0.24107 0.0
H1394 H 0.60788 0.21524 0.27134 0.0
H1395 H 0.5951 0.22484 0.23791 0.0
H1396 H 0.5506 0.19609 0.24637 0.0
H1397 H 0.56325 0.18627 0.27959 0.0
H1398 H 0.55323 0.16013 0.25481 0.0
H1399 H 0.64107 0.10222 0.23223 0.0
H1400 H 0.64785 0.09281 0.28155 0.0
H1401 H 0.60458 0.16774 0.30215 0.0
C1402 C 0.5773 0.18027 0.19469 0.0
C1403 C 0.57744 0.16562 0.16953 0.0
C1404 C 0.59483 0.14267 0.16641 0.0
C1405 C 0.61087 0.13364 0.18845 0.0
C1406 C 0.60948 0.14795 0.21331 0.0
C1407 C 0.59334 0.17094 0.21649 0.0
C1408 C 0.59281 0.1806 0.24611 0.0
C1409 C 0.60682 0.20905 0.24928 0.0
C1410 C 0.56323 0.18075 0.25736 0.0
C1411 C 0.60977 0.15847 0.25932 0.0
C1412 C 0.61977 0.14021 0.24 0.0
C1413 C 0.63386 0.11667 0.24754 0.0
C1414 C 0.63742 0.11141 0.27561 0.0
C1415 C 0.62664 0.12949 0.29571 0.0
C1416 C 0.61327 0.15363 0.28732 0.0
H1417 H 0.54323 0.84538 0.92226 0.0
H1418 H 0.45766 0.83711 0.94606 0.0
H1419 H 0.46923 0.85663 0.99183 0.0
H1420 H 0.56925 0.81998 0.97953 0.0
H1421 H 0.59951 0.84183 0.98193 0.0
H1422 H 0.58371 0.83529 0.94905 0.0
H1423 H 0.57872 0.88771 0.94131 0.0
H1424 H 0.59476 0.89451 0.97427 0.0
H1425 H 0.56143 0.90838 0.96665 0.0
H1426 H 0.49083 0.86714 0.03649 0.0
H1427 H 0.52066 0.8658 0.07744 0.0
H1428 H 0.59286 0.86594 0.02539 0.0
C1429 C 0.52675 0.84856 0.93678 0.0
C1430 C 0.49956 0.83983 0.93075 0.0
C1431 C 0.47861 0.84381 0.95034 0.0
C1432 C 0.48498 0.85507 0.97627 0.0
C1433 C 0.5123 0.86237 0.98202 0.0
C1434 C 0.53286 0.85941 0.96274 0.0
C1435 C 0.56111 0.86412 0.97531 0.0
C1436 C 0.57943 0.83879 0.97123 0.0
C1437 C 0.57481 0.89024 0.9637 0.0
C1438 C 0.55339 0.86812 0.00513 0.0
C1439 C 0.52509 0.868 0.00836 0.0
C1440 C 0.51295 0.86794 0.0342 0.0
C1441 C 0.53008 0.86695 0.05731 0.0
C1442 C 0.55902 0.86571 0.05441 0.0
C1443 C 0.57084 0.86744 0.02808 0.0
H1444 H 0.93701 0.22932 0.78257 0.0
H1445 H 0.98822 0.15892 0.79978 0.0
H1446 H 0.95972 0.13012 0.76905 0.0
H1447 H 0.87344 0.19385 0.77963 0.0
H1448 H 0.85947 0.2122 0.75078 0.0
H1449 H 0.88455 0.22876 0.77305 0.0
H1450 H 0.9163 0.23881 0.73151 0.0
H1451 H 0.89086 0.22317 0.70902 0.0
H1452 H 0.92568 0.21096 0.70886 0.0
H1453 H 0.92354 0.10752 0.74185 0.0
H1454 H 0.8882 0.09428 0.7079 0.0
H1455 H 0.86124 0.17914 0.70462 0.0
C1456 C 0.94258 0.20807 0.77921 0.0
C1457 C 0.96455 0.19624 0.7938 0.0
C1458 C 0.97125 0.16832 0.78906 0.0
C1459 C 0.95509 0.15168 0.77179 0.0
C1460 C 0.93256 0.16339 0.7591 0.0
C1461 C 0.92675 0.19106 0.76164 0.0
C1462 C 0.90159 0.19818 0.74474 0.0
C1463 C 0.8784 0.20888 0.76316 0.0
C1464 C 0.90906 0.21901 0.72219 0.0
C1465 C 0.89425 0.17011 0.73267 0.0
C1466 C 0.9121 0.15033 0.74185 0.0
C1467 C 0.90954 0.12279 0.73416 0.0
C1468 C 0.8891 0.11543 0.71512 0.0
C1469 C 0.87199 0.13571 0.70354 0.0
C1470 C 0.87397 0.16322 0.71321 0.0
H1471 H 0.51555 0.21022 0.55116 0.0
H1472 H 0.5635 0.1767 0.6182 0.0
H1473 H 0.58559 0.14481 0.58588 0.0
H1474 H 0.51101 0.1434 0.50771 0.0
H1475 H 0.51451 0.16304 0.47657 0.0
H1476 H 0.49681 0.1774 0.50573 0.0
H1477 H 0.52942 0.22 0.50451 0.0
H1478 H 0.54758 0.2057 0.47587 0.0
H1479 H 0.56608 0.21526 0.50683 0.0
H1480 H 0.61031 0.12565 0.54615 0.0
H1481 H 0.63322 0.11753 0.50169 0.0
H1482 H 0.56918 0.16295 0.46018 0.0
C1483 C 0.52968 0.19521 0.55921 0.0
C1484 C 0.53783 0.19587 0.5871 0.0
C1485 C 0.557 0.17653 0.59684 0.0
C1486 C 0.56956 0.15822 0.57866 0.0
C1487 C 0.56247 0.15932 0.55091 0.0
C1488 C 0.54254 0.17692 0.54125 0.0
C1489 C 0.54163 0.17701 0.51012 0.0
C1490 C 0.51437 0.16445 0.49941 0.0
C1491 C 0.54649 0.20621 0.4987 0.0
C1492 C 0.56548 0.15839 0.50389 0.0
C1493 C 0.57686 0.14792 0.52765 0.0
C1494 C 0.60111 0.13299 0.52731 0.0
C1495 C 0.61415 0.12875 0.50202 0.0
C1496 C 0.6029 0.13951 0.47751 0.0
C1497 C 0.57799 0.15402 0.47851 0.0
H1498 H 0.5089 0.70634 0.27915 0.0
H1499 H 0.55154 0.73645 0.35228 0.0
H1500 H 0.58595 0.75971 0.32337 0.0
H1501 H 0.57404 0.70173 0.23313 0.0
H1502 H 0.55429 0.71302 0.20394 0.0
H1503 H 0.53827 0.69185 0.22984 0.0
H1504 H 0.50067 0.72849 0.23615 0.0
H1505 H 0.51669 0.75 0.21087 0.0
H1506 H 0.51068 0.76338 0.24499 0.0
H1507 H 0.60688 0.78989 0.28828 0.0
H1508 H 0.61568 0.82069 0.24891 0.0
H1509 H 0.56088 0.77003 0.19826 0.0
C1510 C 0.52631 0.71656 0.28903 0.0
C1511 C 0.52749 0.71966 0.31789 0.0
C1512 C 0.55017 0.73386 0.33015 0.0
C1513 C 0.56994 0.74707 0.31389 0.0
C1514 C 0.56706 0.74544 0.28541 0.0
C1515 C 0.54622 0.7299 0.27302 0.0
C1516 C 0.54519 0.73481 0.24233 0.0
C1517 C 0.55345 0.7088 0.22637 0.0
C1518 C 0.51664 0.74478 0.23308 0.0
C1519 C 0.56695 0.75727 0.23989 0.0
C1520 C 0.57981 0.76271 0.2648 0.0
C1521 C 0.59773 0.78522 0.2684 0.0
C1522 C 0.60241 0.80276 0.24604 0.0
C1523 C 0.58915 0.79766 0.22049 0.0
C1524 C 0.57183 0.77418 0.21735 0.0
H1525 H 0.01084 0.76624 0.04171 0.0
H1526 H 0.94625 0.73445 0.09464 0.0
H1527 H 0.91206 0.76138 0.06929 0.0
H1528 H 0.98539 0.83419 0.03458 0.0
H1529 H 0.99413 0.83733 -0.00127 0.0
H1530 H 0.01386 0.81532 0.02072 0.0
H1531 H 0.00426 0.7739 0.98794 0.0
H1532 H 0.98485 0.79588 0.96563 0.0
H1533 H 0.96925 0.76483 0.9789 0.0
H1534 H 0.88525 0.7938 0.04026 0.0
H1535 H 0.86641 0.82481 0.00506 0.0
H1536 H 0.9477 0.83381 0.96931 0.0
C1537 C 0.98947 0.76479 0.04777 0.0
C1538 C 0.98123 0.74833 0.07019 0.0
C1539 C 0.95305 0.74685 0.07746 0.0
C1540 C 0.93346 0.7622 0.0633 0.0
C1541 C 0.9423 0.77867 0.04168 0.0
C1542 C 0.96951 0.77968 0.03355 0.0
C1543 C 0.97332 0.79849 0.00909 0.0
C1544 C 0.99283 0.82277 0.01622 0.0
C1545 C 0.98351 0.7823 0.9839 0.0
C1546 C 0.94406 0.80804 0.00498 0.0
C1547 C 0.92657 0.79662 0.02421 0.0
C1548 C 0.89868 0.80275 0.02494 0.0
C1549 C 0.88821 0.82055 0.005 0.0
C1550 C 0.90555 0.83168 0.98443 0.0
C1551 C 0.9339 0.82553 0.98471 0.0
H1552 H 0.68956 0.94249 0.79323 0.0
H1553 H 0.65382 -0.0029 0.85383 0.0
H1554 H 0.69358 0.98991 0.88478 0.0
H1555 H 0.7194 0.8944 0.83984 0.0
H1556 H 0.75023 0.89013 0.81993 0.0
H1557 H 0.71851 0.89885 0.80305 0.0
H1558 H 0.74225 0.94177 0.78167 0.0
H1559 H 0.77405 0.93316 0.79847 0.0
H1560 H 0.75937 0.96661 0.80386 0.0
H1561 H 0.73591 0.97461 0.90997 0.0
H1562 H 0.78062 0.95635 0.92558 0.0
H1563 H 0.79059 0.91554 0.84667 0.0
C1564 C 0.69013 0.95281 0.81306 0.0
C1565 C 0.6687 0.97012 0.82139 0.0
C1566 C 0.67019 0.98375 0.84721 0.0
C1567 C 0.69257 0.97971 0.86491 0.0
C1568 C 0.71343 0.96245 0.85614 0.0
C1569 C 0.71263 0.94957 0.83066 0.0
C1570 C 0.73827 0.93307 0.82567 0.0
C1571 C 0.73117 0.90229 0.82191 0.0
C1572 C 0.75444 0.94434 0.80096 0.0
C1573 C 0.75348 0.93847 0.85243 0.0
C1574 C 0.73863 0.95512 0.86992 0.0
C1575 C 0.7479 0.96184 0.89636 0.0
C1576 C 0.77315 0.95135 0.90507 0.0
C1577 C 0.7889 0.93491 0.88713 0.0
C1578 C 0.779 0.92849 0.86052 0.0
H1579 H 0.81522 0.93449 0.46884 0.0
H1580 H 0.86216 0.88635 0.52666 0.0
H1581 H 0.87573 0.92889 0.55172 0.0
H1582 H 0.85932 0.0001 0.47183 0.0
H1583 H 0.82918 0.02122 0.47071 0.0
H1584 H 0.82919 0.98842 0.45305 0.0
H1585 H 0.7854 0.97315 0.47991 0.0
H1586 H 0.78541 0.00598 0.49717 0.0
H1587 H 0.78606 0.97484 0.51702 0.0
H1588 H 0.87641 0.97347 0.57527 0.0
H1589 H 0.86476 0.01802 0.59619 0.0
H1590 H 0.81634 0.03834 0.52413 0.0
C1591 C 0.82952 0.93318 0.48593 0.0
C1592 C 0.83834 0.90742 0.49556 0.0
C1593 C 0.85574 0.90607 0.51882 0.0
C1594 C 0.86355 0.9301 0.53308 0.0
C1595 C 0.85356 0.95516 0.52383 0.0
C1596 C 0.83702 0.95696 0.50071 0.0
C1597 C 0.82539 0.9856 0.49779 0.0
C1598 C 0.83644 -0.00033 0.4718 0.0
C1599 C 0.79369 0.98481 0.49796 0.0
C1600 C 0.8369 -0.0008 0.52361 0.0
C1601 C 0.85351 0.98135 0.53799 0.0
C1602 C 0.864 0.98786 0.56394 0.0
C1603 C 0.85704 0.01307 0.57575 0.0
C1604 C 0.83971 0.03145 0.56166 0.0
C1605 C 0.83006 0.02478 0.53499 0.0
H1606 H 0.78305 0.04452 0.24202 0.0
H1607 H 0.85576 0.04014 0.29387 0.0
H1608 H 0.83499 0.0718 0.32714 0.0
H1609 H 0.76504 0.11916 0.26147 0.0
H1610 H 0.72886 0.11048 0.26076 0.0
H1611 H 0.75204 0.09351 0.23753 0.0
H1612 H 0.73528 0.04604 0.25557 0.0
H1613 H 0.71218 0.06285 0.27863 0.0
H1614 H 0.73708 0.03921 0.29197 0.0
H1615 H 0.8032 0.0949 0.35929 0.0
H1616 H 0.76237 0.1064 0.38718 0.0
H1617 H 0.71092 0.09737 0.31445 0.0
C1618 C 0.79496 0.05109 0.25985 0.0
C1619 C 0.82091 0.03979 0.26535 0.0
C1620 C 0.8357 0.04838 0.28925 0.0
C1621 C 0.82422 0.06664 0.3082 0.0
C1622 C 0.79806 0.0765 0.30286 0.0
C1623 C 0.78372 0.06932 0.27906 0.0
C1624 C 0.75449 0.0794 0.28013 0.0
C1625 C 0.74985 0.10199 0.2587 0.0
C1626 C 0.73356 0.05545 0.27638 0.0
C1627 C 0.75407 0.09117 0.30904 0.0
C1628 C 0.77959 0.09019 0.32158 0.0
C1629 C 0.78326 0.09658 0.3495 0.0
C1630 C 0.76004 0.1031 0.36522 0.0
C1631 C 0.73368 0.10265 0.3529 0.0
C1632 C 0.73098 0.09793 0.3243 0.0
H1633 H 0.68215 0.04988 0.04646 0.0
H1634 H 0.64909 0.10584 0.10765 0.0
H1635 H 0.63018 0.06629 0.13331 0.0
H1636 H 0.62505 0.00123 0.04693 0.0
H1637 H 0.64689 0.97191 0.04248 0.0
H1638 H 0.65711 0.00482 0.02873 0.0
H1639 H 0.70315 0.0028 0.05583 0.0
H1640 H 0.69306 0.96993 0.06968 0.0
H1641 H 0.70251 -0.00208 0.09256 0.0
H1642 H 0.61668 0.01982 0.15352 0.0
H1643 H 0.60842 0.97069 0.16505 0.0
H1644 H 0.64976 0.94678 0.08971 0.0
C1645 C 0.67082 0.05391 0.06515 0.0
C1646 C 0.66716 0.08098 0.07499 0.0
C1647 C 0.65213 0.08527 0.09959 0.0
C1648 C 0.64132 0.06294 0.11438 0.0
C1649 C 0.64554 0.0365 0.10419 0.0
C1650 C 0.65977 0.03196 0.08003 0.0
C1651 C 0.66171 0.00166 0.07349 0.0
C1652 C 0.64679 0.99449 0.0463 0.0
C1653 C 0.69189 0.99255 0.07287 0.0
C1654 C 0.64664 0.98983 0.0979 0.0
C1655 C 0.63743 0.0101 0.11547 0.0
C1656 C 0.62361 0.00374 0.13979 0.0
C1657 C 0.61907 0.97585 0.14622 0.0
C1658 C 0.62824 0.95487 0.12825 0.0
C1659 C 0.64213 0.9622 0.10383 0.0
H1660 H 0.67562 0.01814 0.73419 0.0
H1661 H 0.625 0.99499 0.66337 0.0
H1662 H 0.65678 0.0199 0.63303 0.0
H1663 H 0.69374 0.08594 0.71164 0.0
H1664 H 0.72865 0.08479 0.72421 0.0
H1665 H 0.70201 0.06499 0.74093 0.0
H1666 H 0.72965 0.02033 0.73375 0.0
H1667 H 0.75657 0.04005 0.71745 0.0
H1668 H 0.74085 0.01111 0.69964 0.0
H1669 H 0.69273 0.04824 0.61033 0.0
H1670 H 0.73433 0.07374 0.59587 0.0
H1671 H 0.76217 0.07791 0.681 0.0
C1672 C 0.6713 0.01814 0.71229 0.0
C1673 C 0.64769 0.00471 0.70128 0.0
C1674 C 0.64289 0.00513 0.67244 0.0
C1675 C 0.66074 0.01936 0.65496 0.0
C1676 C 0.68338 0.03293 0.66655 0.0
C1677 C 0.689 0.03213 0.69444 0.0
C1678 C 0.71525 0.04788 0.70138 0.0
C1679 C 0.70955 0.07235 0.72068 0.0
C1680 C 0.73686 0.02869 0.71378 0.0
C1681 C 0.72343 0.05754 0.67299 0.0
C1682 C 0.70457 0.04895 0.65327 0.0
C1683 C 0.70774 0.05509 0.62553 0.0
C1684 C 0.73136 0.06973 0.61755 0.0
C1685 C 0.75156 0.07776 0.63727 0.0
C1686 C 0.74713 0.07206 0.66541 0.0
H1687 H 0.73477 0.91456 0.45614 0.0
H1688 H 0.74516 0.94052 0.54136 0.0
H1689 H 0.71683 0.98121 0.53234 0.0
H1690 H 0.74237 0.9786 0.42784 0.0
H1691 H 0.71732 0.97343 0.40072 0.0
H1692 H 0.73485 0.94442 0.41483 0.0
H1693 H 0.68805 0.92104 0.42638 0.0
H1694 H 0.67026 0.94999 0.41218 0.0
H1695 H 0.66345 0.93931 0.44696 0.0
H1696 H 0.69308 0.02184 0.51256 0.0
H1697 H 0.67516 0.05914 0.48359 0.0
H1698 H 0.67924 0.00572 0.41179 0.0
C1699 C 0.73058 0.92838 0.47314 0.0
C1700 C 0.74219 0.92434 0.49946 0.0
C1701 C 0.73645 0.94317 0.52101 0.0
C1702 C 0.72029 0.96628 0.51613 0.0
C1703 C 0.70973 0.96995 0.48973 0.0
C1704 C 0.71445 0.95139 0.46867 0.0
C1705 C 0.70286 0.96118 0.44161 0.0
C1706 C 0.72571 0.96462 0.42 0.0
C1707 C 0.67978 0.94172 0.43118 0.0
C1708 C 0.69165 0.98864 0.45051 0.0
C1709 C 0.69558 0.99323 0.4784 0.0
C1710 C 0.68934 0.01827 0.49083 0.0
C1711 C 0.67929 0.03933 0.47422 0.0
C1712 C 0.6756 0.03514 0.44554 0.0
C1713 C 0.68122 0.00925 0.43375 0.0
H1714 H 0.81362 0.9389 0.19117 0.0
H1715 H 0.80963 0.90723 0.27436 0.0
H1716 H 0.77004 0.87747 0.26089 0.0
H1717 H 0.74291 0.94412 0.18162 0.0
H1718 H 0.74318 0.9346 0.14569 0.0
H1719 H 0.77314 0.95053 0.16117 0.0
H1720 H 0.80242 0.9093 0.14507 0.0
H1721 H 0.77233 0.89304 0.12989 0.0
H1722 H 0.79251 0.87484 0.15488 0.0
H1723 H 0.72873 0.855 0.23997 0.0
H1724 H 0.68587 0.84454 0.21433 0.0
H1725 H 0.71689 0.89032 0.14448 0.0
C1726 C 0.80466 0.92541 0.20646 0.0
C1727 C 0.81468 0.92519 0.23376 0.0
C1728 C 0.80219 0.90765 0.25332 0.0
C1729 C 0.77991 0.89051 0.24579 0.0
C1730 C 0.77055 0.89116 0.21864 0.0
C1731 C 0.78239 0.9083 0.19932 0.0
C1732 C 0.76674 0.9072 0.17232 0.0
C1733 C 0.75584 0.9358 0.16478 0.0
C1734 C 0.78457 0.89538 0.14918 0.0
C1735 C 0.74364 0.88745 0.17977 0.0
C1736 C 0.74655 0.87805 0.20643 0.0
C1737 C 0.72646 0.86177 0.21893 0.0
C1738 C 0.70223 0.85593 0.20423 0.0
C1739 C 0.69837 0.86639 0.17739 0.0
C1740 C 0.71974 0.88141 0.16465 0.0
H1741 H 0.75486 0.03467 0.02185 0.0
H1742 H 0.80978 0.1052 0.01457 0.0
H1743 H 0.84775 0.07445 0.0013 0.0
H1744 H 0.80889 0.98665 0.04944 0.0
H1745 H 0.79384 0.95768 0.03112 0.0
H1746 H 0.77227 0.98497 0.04341 0.0
H1747 H 0.75325 0.99161 0.99399 0.0
H1748 H 0.7747 0.96447 0.98161 0.0
H1749 H 0.77692 -0.00192 0.96625 0.0
H1750 H 0.87618 0.0371 0.97964 0.0
H1751 H 0.8944 0.99537 0.95675 0.0
H1752 H 0.82306 0.94859 0.98367 0.0
C1753 C 0.77517 0.04339 0.01835 0.0
C1754 C 0.77974 0.07207 0.01945 0.0
C1755 C 0.80624 0.08312 0.01422 0.0
C1756 C 0.82784 0.06584 0.00663 0.0
C1757 C 0.82264 0.03755 0.00511 0.0
C1758 C 0.79713 0.02633 0.01153 0.0
C1759 C 0.79648 0.99548 0.00698 0.0
C1760 C 0.79265 0.9803 0.03437 0.0
C1761 C 0.77402 0.98694 0.98596 0.0
C1762 C 0.82505 0.99129 0.99557 0.0
C1763 C 0.8399 0.01577 0.99462 0.0
C1764 C 0.86524 0.01761 0.98126 0.0
C1765 C 0.87547 0.9939 0.96833 0.0
C1766 C 0.86062 0.96868 0.96943 0.0
C1767 C 0.83544 0.96735 0.98372 0.0
H1768 H 0.78485 0.68087 0.94245 0.0
H1769 H 0.70328 0.71329 0.9559 0.0
H1770 H 0.71705 0.75598 0.93204 0.0
H1771 H 0.8193 0.738 0.96035 0.0
H1772 H 0.8468 0.73521 0.93581 0.0
H1773 H 0.82874 0.7048 0.94684 0.0
H1774 H 0.81672 0.69232 0.89619 0.0
H1775 H 0.83498 0.72277 0.88489 0.0
H1776 H 0.79958 0.71706 0.87489 0.0
H1777 H 0.74193 0.79774 0.91574 0.0
H1778 H 0.77576 0.83538 0.9095 0.0
H1779 H 0.84161 0.77618 0.90756 0.0
C1780 C 0.76949 0.6965 0.93954 0.0
C1781 C 0.7429 0.69365 0.95094 0.0
C1782 C 0.72365 0.71484 0.94709 0.0
C1783 C 0.73129 0.73915 0.93348 0.0
C1784 C 0.75811 0.74176 0.92361 0.0
C1785 C 0.77685 0.72085 0.92626 0.0
C1786 C 0.80546 0.73013 0.91786 0.0
C1787 C 0.82627 0.72686 0.94163 0.0
C1788 C 0.81472 0.71465 0.89191 0.0
C1789 C 0.80031 0.76009 0.91178 0.0
C1790 C 0.77273 0.76619 0.91446 0.0
C1791 C 0.76343 0.79309 0.91294 0.0
C1792 C 0.78286 0.81435 0.90954 0.0
C1793 C 0.81133 0.80865 0.90798 0.0
C1794 C 0.81996 0.78108 0.90807 0.0
H1795 H 0.26005 0.79503 0.03729 0.0
H1796 H 0.31499 0.86157 0.06308 0.0
H1797 H 0.34907 0.82797 0.07869 0.0
H1798 H 0.28012 0.74472 0.09245 0.0
H1799 H 0.27793 0.71606 0.06872 0.0
H1800 H 0.25584 0.74515 0.06428 0.0
H1801 H 0.2736 0.75056 0.01441 0.0
H1802 H 0.29624 0.72198 0.01886 0.0
H1803 H 0.30999 0.75499 0.00855 0.0
H1804 H 0.37934 0.78851 0.08529 0.0
H1805 H 0.40303 0.74417 0.08714 0.0
H1806 H 0.32913 0.70265 0.05609 0.0
C1807 C 0.27878 0.80229 0.04733 0.0
C1808 C 0.28498 0.83061 0.04956 0.0
C1809 C 0.31001 0.83977 0.06165 0.0
C1810 C 0.32944 0.82091 0.0705 0.0
C1811 C 0.32343 0.79305 0.0669 0.0
C1812 C 0.29862 0.78363 0.056 0.0
C1813 C 0.29858 0.75267 0.05212 0.0
C1814 C 0.27683 0.73884 0.0705 0.0
C1815 C 0.29436 0.7446 0.02168 0.0
C1816 C 0.32745 0.74644 0.06182 0.0
C1817 C 0.34132 0.77002 0.07038 0.0
C1818 C 0.36862 0.76976 0.07908 0.0
C1819 C 0.38197 0.7445 0.07978 0.0
C1820 C 0.36797 0.71989 0.07179 0.0
C1821 C 0.34042 0.72105 0.06241 0.0
H1822 H 0.91736 0.59205 0.81288 0.0
H1823 H 0.93001 0.50491 0.79868 0.0
H1824 H 0.97582 0.50898 0.82043 0.0
H1825 H 0.97877 0.61279 0.79187 0.0
H1826 H 0.98445 0.64053 0.81621 0.0
H1827 H 0.95 0.62979 0.80752 0.0
H1828 H 0.93933 0.6212 0.85897 0.0
H1829 H 0.97382 0.63228 0.86795 0.0
H1830 H 0.96115 0.59903 0.87875 0.0
H1831 H 0.02257 0.5238 0.83387 0.0
H1832 H 0.06714 0.54818 0.83775 0.0
H1833 H 0.02513 0.6263 0.84209 0.0
C1834 C 0.92927 0.57359 0.81554 0.0
C1835 C 0.92012 0.54813 0.80439 0.0
C1836 C 0.93663 0.52459 0.80727 0.0
C1837 C 0.96259 0.52668 0.81975 0.0
C1838 C 0.97165 0.55241 0.82928 0.0
C1839 C 0.9554 0.57546 0.82756 0.0
C1840 C 0.97155 0.60143 0.83494 0.0
C1841 C 0.97117 0.62233 0.81122 0.0
C1842 C 0.96082 0.61423 0.86175 0.0
C1843 C -0.00015 0.58962 0.83907 0.0
C1844 C -0.00073 0.56123 0.83656 0.0
C1845 C 0.02323 0.54594 0.83654 0.0
C1846 C 0.04848 0.56004 0.83851 0.0
C1847 C 0.0496 0.58918 0.84014 0.0
C1848 C 0.0249 0.60401 0.84126 0.0
H1849 H 0.24574 0.21261 0.54706 0.0
H1850 H 0.18713 0.15095 0.57516 0.0
H1851 H 0.16604 0.18504 0.60576 0.0
H1852 H 0.24858 0.2551 0.61473 0.0
H1853 H 0.25039 0.28666 0.59551 0.0
H1854 H 0.26613 0.25599 0.58215 0.0
H1855 H 0.23798 0.26068 0.53703 0.0
H1856 H 0.22197 0.291 0.55026 0.0
H1857 H 0.20099 0.26219 0.53872 0.0
H1858 H 0.14488 0.22645 0.62437 0.0
H1859 H 0.12593 0.27281 0.63086 0.0
H1860 H 0.19772 0.30812 0.59057 0.0
C1861 C 0.22926 0.2062 0.56061 0.0
C1862 C 0.21799 0.17943 0.55895 0.0
C1863 C 0.19591 0.17158 0.5762 0.0
C1864 C 0.18398 0.19068 0.59385 0.0
C1865 C 0.1945 0.21744 0.59404 0.0
C1866 C 0.21689 0.22521 0.57815 0.0
C1867 C 0.22123 0.25607 0.57869 0.0
C1868 C 0.24818 0.26391 0.59367 0.0
C1869 C 0.22047 0.26817 0.54945 0.0
C1870 C 0.19651 0.2644 0.59536 0.0
C1871 C 0.18184 0.24184 0.60475 0.0
C1872 C 0.15654 0.24437 0.61783 0.0
C1873 C 0.14579 0.27074 0.62114 0.0
C1874 C 0.16026 0.29403 0.61109 0.0
C1875 C 0.18621 0.29074 0.59867 0.0
H1876 H 0.03326 0.00586 0.81557 0.0
H1877 H 0.0749 0.93435 0.78291 0.0
H1878 H 0.05296 0.90543 0.81827 0.0
H1879 H 0.03351 0.98386 0.88994 0.0
H1880 H -0.00026 -0.0023 0.89519 0.0
H1881 H 0.02293 0.01372 0.87105 0.0
H1882 H 0.9861 0.0084 0.83245 0.0
H1883 H 0.96288 0.9927 0.85646 0.0
H1884 H 0.97145 0.97479 0.8251 0.0
H1885 H 0.02077 0.88318 0.85141 0.0
H1886 H 0.97948 0.8694 0.87739 0.0
H1887 H 0.95976 0.95552 0.88942 0.0
C1888 C 0.03834 0.98425 0.81624 0.0
C1889 C 0.05581 0.97243 0.79644 0.0
C1890 C 0.06162 0.94396 0.79787 0.0
C1891 C 0.04942 0.92737 0.81805 0.0
C1892 C 0.03179 0.93959 0.83688 0.0
C1893 C 0.02641 0.96745 0.83625 0.0
C1894 C 0.00417 0.97499 0.85645 0.0
C1895 C 0.01579 0.99367 0.87953 0.0
C1896 C 0.97972 0.98848 0.84172 0.0
C1897 C -0.00339 0.94676 0.86725 0.0
C1898 C 0.01324 0.92668 0.85629 0.0
C1899 C 0.00801 0.89875 0.86065 0.0
C1900 C 0.98445 0.89111 0.87546 0.0
C1901 C 0.96628 0.91136 0.88545 0.0
C1902 C 0.97335 0.9395 0.88243 0.0
H1903 H 0.72755 0.31589 0.46566 0.0
H1904 H 0.67505 0.36391 0.41249 0.0
H1905 H 0.66365 0.32216 0.38536 0.0
H1906 H 0.75075 0.26451 0.41223 0.0
H1907 H 0.749 0.23697 0.43686 0.0
H1908 H 0.75783 0.27146 0.44811 0.0
H1909 H 0.71754 0.27038 0.48316 0.0
H1910 H 0.70946 0.23567 0.47236 0.0
H1911 H 0.68338 0.26161 0.4712 0.0
H1912 H 0.6508 0.27434 0.37008 0.0
H1913 H 0.63943 0.22465 0.36666 0.0
H1914 H 0.70062 0.20809 0.42951 0.0
C1915 C 0.71454 0.3179 0.44765 0.0
C1916 C 0.70228 0.34321 0.4412 0.0
C1917 C 0.68477 0.34475 0.41785 0.0
C1918 C 0.67823 0.32115 0.40222 0.0
C1919 C 0.68958 0.29621 0.41001 0.0
C1920 C 0.70769 0.29452 0.43195 0.0
C1921 C 0.71418 0.26493 0.43845 0.0
C1922 C 0.74476 0.25913 0.43361 0.0
C1923 C 0.70562 0.25771 0.46803 0.0
C1924 C 0.69612 0.25018 0.41745 0.0
C1925 C 0.68228 0.26853 0.40101 0.0
C1926 C 0.66206 0.25974 0.38232 0.0
C1927 C 0.65561 0.2315 0.38064 0.0
C1928 C 0.66932 0.21245 0.39761 0.0
C1929 C 0.69022 0.222 0.41576 0.0
H1930 H 0.92413 0.4602 0.69815 0.0
H1931 H 0.9527 0.54446 0.68662 0.0
H1932 H 0.9948 0.52733 0.66454 0.0
H1933 H 0.9862 0.43388 0.71762 0.0
H1934 H 0.98181 0.40106 0.70046 0.0
H1935 H 0.95217 0.41983 0.71135 0.0
H1936 H 0.9329 0.41839 0.66149 0.0
H1937 H 0.96256 0.39952 0.65041 0.0
H1938 H 0.95377 0.43122 0.63369 0.0
H1939 H 0.03573 0.50165 0.65029 0.0
H1940 H 0.07344 0.46886 0.6443 0.0
H1941 H 0.01801 0.40101 0.66375 0.0
C1942 C 0.93898 0.47508 0.69048 0.0
C1943 C 0.93527 0.50363 0.69401 0.0
C1944 C 0.95521 0.52248 0.684 0.0
C1945 C 0.97906 0.51296 0.67132 0.0
C1946 C 0.98231 0.48462 0.6686 0.0
C1947 C 0.96277 0.46593 0.67772 0.0
C1948 C 0.97235 0.43659 0.67466 0.0
C1949 C 0.97319 0.42201 0.70269 0.0
C1950 C 0.95432 0.42048 0.65381 0.0
C1951 C 0.00091 0.44174 0.66354 0.0
C1952 C 0.00604 0.46959 0.65985 0.0
C1953 C 0.03182 0.47978 0.65249 0.0
C1954 C 0.05308 0.46107 0.64932 0.0
C1955 C 0.04833 0.43257 0.65346 0.0
C1956 C 0.02182 0.42268 0.65993 0.0
H1957 H 0.54473 0.49807 0.21079 0.0
H1958 H 0.59258 0.56231 0.25227 0.0
H1959 H 0.56359 0.59762 0.23082 0.0
H1960 H 0.53484 0.53197 0.1481 0.0
H1961 H 0.49985 0.52014 0.14298 0.0
H1962 H 0.52341 0.49972 0.16257 0.0
H1963 H 0.49022 0.49995 0.20417 0.0
H1964 H 0.46629 0.51988 0.18449 0.0
H1965 H 0.47827 0.53233 0.21754 0.0
H1966 H 0.53219 0.62589 0.20132 0.0
H1967 H 0.49548 0.64496 0.17193 0.0
H1968 H 0.4669 0.56207 0.15196 0.0
C1969 C 0.54881 0.51956 0.21568 0.0
C1970 C 0.57088 0.52754 0.23304 0.0
C1971 C 0.57563 0.5558 0.23908 0.0
C1972 C 0.55943 0.57599 0.22686 0.0
C1973 C 0.53836 0.56747 0.20907 0.0
C1974 C 0.53259 0.53992 0.20403 0.0
C1975 C 0.50856 0.5362 0.18441 0.0
C1976 C 0.5172 0.52112 0.15795 0.0
C1977 C 0.4844 0.52121 0.1985 0.0
C1978 C 0.50204 0.56596 0.17884 0.0
C1979 C 0.51964 0.58371 0.19298 0.0
C1980 C 0.51808 0.61221 0.19036 0.0
C1981 C 0.49741 0.62283 0.17344 0.0
C1982 C 0.47846 0.60493 0.15978 0.0
C1983 C 0.48109 0.57618 0.16229 0.0
H1984 H 0.53095 0.73609 0.81377 0.0
H1985 H 0.58376 0.8086 0.80871 0.0
H1986 H 0.60723 0.78829 0.76829 0.0
H1987 H 0.5837 0.68807 0.79875 0.0
H1988 H 0.56121 0.66495 0.77968 0.0
H1989 H 0.54758 0.68604 0.80686 0.0
H1990 H 0.512 0.70644 0.77297 0.0
H1991 H 0.52528 0.68508 0.74584 0.0
H1992 H 0.52382 0.72184 0.74143 0.0
H1993 H 0.62308 0.76033 0.72699 0.0
H1994 H 0.63193 0.72584 0.6902 0.0
H1995 H 0.57196 0.67039 0.7268 0.0
C1996 C 0.54719 0.74784 0.80386 0.0
C1997 C 0.55537 0.77399 0.81381 0.0
C1998 C 0.57719 0.78855 0.80102 0.0
C1999 C 0.59058 0.7772 0.77818 0.0
C2000 C 0.58221 0.7511 0.76904 0.0
C2001 C 0.56119 0.73653 0.78169 0.0
C2002 C 0.55689 0.70838 0.76892 0.0
C2003 C 0.5627 0.68552 0.7898 0.0
C2004 C 0.52778 0.70527 0.75655 0.0
C2005 C 0.57852 0.70946 0.74682 0.0
C2006 C 0.59276 0.73432 0.74691 0.0
C2007 C 0.61242 0.7406 0.72701 0.0
C2008 C 0.61735 0.72099 0.70631 0.0
C2009 C 0.6031 0.69539 0.70627 0.0
C2010 C 0.58378 0.68951 0.72696 0.0
H2011 H 0.54785 0.2126 0.01649 0.0
H2012 H 0.58834 0.24913 0.08798 0.0
H2013 H 0.61292 0.28211 0.05803 0.0
H2014 H 0.6052 0.22151 0.96791 0.0
H2015 H 0.58261 0.22996 0.93981 0.0
H2016 H 0.57077 0.20722 0.96653 0.0
H2017 H 0.52927 0.23901 0.97533 0.0
H2018 H 0.5411 0.26199 0.94888 0.0
H2019 H 0.53542 0.27492 0.98322 0.0
H2020 H 0.63262 0.31143 0.02032 0.0
H2021 H 0.64375 0.33678 0.9775 0.0
H2022 H 0.58699 0.28367 0.9319 0.0
C2023 C 0.56236 0.22717 0.02568 0.0
C2024 C 0.56654 0.22825 0.05437 0.0
C2025 C 0.58503 0.24803 0.06593 0.0
C2026 C 0.59911 0.26674 0.04913 0.0
C2027 C 0.59416 0.26554 0.02091 0.0
C2028 C 0.57616 0.24634 0.00927 0.0
C2029 C 0.57292 0.25076 0.97868 0.0
C2030 C 0.58351 0.22589 0.96228 0.0
C2031 C 0.5429 0.25705 0.9711 0.0
C2032 C 0.59146 0.27574 0.97511 0.0
C2033 C 0.60402 0.28361 -0.00045 0.0
C2034 C 0.62277 0.30563 0.00107 0.0
C2035 C 0.6289 0.31992 0.97681 0.0
C2036 C 0.61568 0.31246 0.95183 0.0
C2037 C 0.59675 0.29018 0.95103 0.0
H2038 H 0.97042 0.31908 0.29011 0.0
H2039 H 0.89622 0.32874 0.33806 0.0
H2040 H 0.86955 0.33621 0.29526 0.0
H2041 H 0.95672 0.36888 0.23851 0.0
H2042 H 0.97058 0.34847 0.21088 0.0
H2043 H 0.98337 0.34443 0.2454 0.0
H2044 H 0.97184 0.29213 0.24257 0.0
H2045 H 0.95857 0.29617 0.20816 0.0
H2046 H 0.93723 0.2809 0.23434 0.0
H2047 H 0.85208 0.34629 0.24761 0.0
H2048 H 0.84506 0.3573 0.19832 0.0
H2049 H 0.92938 0.33581 0.18137 0.0
C2050 C 0.94863 0.32315 0.29153 0.0
C2051 C 0.93533 0.32392 0.3172 0.0
C2052 C 0.90669 0.32842 0.31844 0.0
C2053 C 0.89141 0.33251 0.2943 0.0
C2054 C 0.90504 0.33125 0.26918 0.0
C2055 C 0.93297 0.32649 0.26762 0.0
C2056 C 0.9426 0.32572 0.23809 0.0
C2057 C 0.9646 0.34822 0.23292 0.0
C2058 C 0.95318 0.29702 0.23034 0.0
C2059 C 0.91593 0.33175 0.22332 0.0
C2060 C 0.89446 0.33485 0.2416 0.0
C2061 C 0.86849 0.34319 0.233 0.0
C2062 C 0.86459 0.34923 0.20507 0.0
C2063 C 0.8864 0.34628 0.18625 0.0
C2064 C 0.91213 0.33692 0.19535 0.0
H2065 H 0.90699 0.71046 0.57819 0.0
H2066 H 0.92218 0.79235 0.54616 0.0
H2067 H 0.9191 0.77384 0.49864 0.0
H2068 H 0.946 0.67449 0.53067 0.0
H2069 H 0.92285 0.64528 0.52743 0.0
H2070 H 0.92384 0.66516 0.55884 0.0
H2071 H 0.87149 0.67393 0.555 0.0
H2072 H 0.87018 0.65348 0.52392 0.0
H2073 H 0.85775 0.68824 0.52378 0.0
H2074 H 0.91987 0.74516 0.45495 0.0
H2075 H 0.91666 0.70983 0.41801 0.0
H2076 H 0.89849 0.64738 0.47887 0.0
C2077 C 0.9089 0.72458 0.56113 0.0
C2078 C 0.91457 0.7528 0.56571 0.0
C2079 C 0.91733 0.77071 0.54301 0.0
C2080 C 0.91591 0.76034 0.51599 0.0
C2081 C 0.91125 0.73216 0.51218 0.0
C2082 C 0.9071 0.71466 0.53413 0.0
C2083 C 0.90272 0.6852 0.52459 0.0
C2084 C 0.92519 0.66644 0.53607 0.0
C2085 C 0.87381 0.6746 0.53227 0.0
C2086 C 0.90553 0.68873 0.49385 0.0
C2087 C 0.91077 0.7159 0.48708 0.0
C2088 C 0.9154 0.7239 0.45998 0.0
C2089 C 0.91386 0.70369 0.4392 0.0
C2090 C 0.90736 0.67598 0.44569 0.0
C2091 C 0.90338 0.66846 0.47338 0.0
H2092 H 0.56425 0.29547 0.66275 0.0
H2093 H 0.49776 0.35368 0.65638 0.0
H2094 H 0.51599 0.37835 0.69766 0.0
H2095 H 0.55752 0.28727 0.73263 0.0
H2096 H 0.59361 0.28234 0.73929 0.0
H2097 H 0.57925 0.27324 0.70623 0.0
H2098 H 0.61488 0.3051 0.68222 0.0
H2099 H 0.6296 0.31419 0.71524 0.0
H2100 H 0.6179 0.34077 0.69251 0.0
H2101 H 0.53987 0.3942 0.74178 0.0
H2102 H 0.56407 0.39733 0.78677 0.0
H2103 H 0.60992 0.32424 0.76642 0.0
C2104 C 0.55364 0.31366 0.66961 0.0
C2105 C 0.52957 0.3227 0.65635 0.0
C2106 C 0.51635 0.34653 0.6662 0.0
C2107 C 0.52659 0.36065 0.68955 0.0
C2108 C 0.54976 0.35035 0.70283 0.0
C2109 C 0.56293 0.32722 0.69325 0.0
C2110 C 0.58481 0.31772 0.71306 0.0
C2111 C 0.5784 0.28842 0.72341 0.0
C2112 C 0.6135 0.31957 0.69997 0.0
C2113 C 0.5817 0.33886 0.73565 0.0
C2114 C 0.56195 0.358 0.7291 0.0
C2115 C 0.5554 0.37938 0.74705 0.0
C2116 C 0.56919 0.381 0.77245 0.0
C2117 C 0.58859 0.3609 0.7798 0.0
C2118 C 0.59502 0.33972 0.76116 0.0
H2119 H 0.99167 0.28506 0.92665 0.0
H2120 H 0.91671 0.26239 0.88282 0.0
H2121 H 0.89019 0.29293 0.91358 0.0
H2122 H 0.96141 0.28286 0.99285 0.0
H2123 H 0.98194 0.31093 0.00678 0.0
H2124 H 0.99524 0.28996 0.97938 0.0
H2125 H 0.00343 0.33369 0.95005 0.0
H2126 H 0.98991 0.35477 0.97734 0.0
H2127 H 0.97517 0.35629 0.94327 0.0
H2128 H 0.8722 0.3255 0.94892 0.0
H2129 H 0.86205 0.35189 0.99099 0.0
H2130 H 0.94823 0.34983 0.01472 0.0
C2131 C 0.9697 0.28686 0.92342 0.0
C2132 C 0.95608 0.27184 0.90233 0.0
C2133 C 0.92732 0.27392 0.89894 0.0
C2134 C 0.91223 0.29133 0.91611 0.0
C2135 C 0.92627 0.30598 0.93676 0.0
C2136 C 0.95427 0.3035 0.94085 0.0
C2137 C 0.96389 0.31915 0.96629 0.0
C2138 C 0.97634 0.29955 0.98758 0.0
C2139 C 0.98431 0.34235 0.95878 0.0
C2140 C 0.93686 0.33061 0.97605 0.0
C2141 C 0.91559 0.32336 0.9583 0.0
C2142 C 0.88867 0.33134 0.96297 0.0
C2143 C 0.88317 0.34647 0.98686 0.0
C2144 C 0.9044 0.35294 0.00607 0.0
C2145 C 0.93165 0.34524 0.00034 0.0
H2146 H 0.99388 0.69889 0.20171 0.0
H2147 H 0.04085 0.62615 0.18272 0.0
H2148 H 0.00854 0.5978 0.21038 0.0
H2149 H 0.98195 0.68114 0.27226 0.0
H2150 H 0.94819 0.69593 0.27295 0.0
H2151 H 0.97388 0.70947 0.25 0.0
H2152 H 0.94028 0.70127 0.20893 0.0
H2153 H 0.91477 0.68703 0.23177 0.0
H2154 H 0.92625 0.66721 0.20262 0.0
H2155 H 0.97234 0.57804 0.24106 0.0
H2156 H 0.93838 0.56878 0.27743 0.0
H2157 H 0.91633 0.65508 0.27799 0.0
C2158 C -0.00265 0.677 0.2036 0.0
C2159 C 0.01968 0.66451 0.19037 0.0
C2160 C 0.02391 0.63595 0.19313 0.0
C2161 C 0.00558 0.61974 0.2085 0.0
C2162 C 0.98361 0.63265 0.2213 0.0
C2163 C 0.97972 0.6607 0.21943 0.0
C2164 C 0.9558 0.66983 0.23684 0.0
C2165 C 0.96555 0.69029 0.25935 0.0
C2166 C 0.93293 0.68205 0.21896 0.0
C2167 C 0.94689 0.64253 0.24894 0.0
C2168 C 0.96293 0.62129 0.23936 0.0
C2169 C 0.95954 0.59444 0.24864 0.0
C2170 C 0.9401 0.58939 0.26924 0.0
C2171 C 0.92471 0.61121 0.28068 0.0
C2172 C 0.92744 0.63787 0.2695 0.0
H2173 H 0.47068 0.69991 0.46018 0.0
H2174 H 0.48408 0.62801 0.40887 0.0
H2175 H 0.50429 0.60403 0.44869 0.0
H2176 H 0.5309 0.70043 0.49253 0.0
H2177 H 0.51907 0.71111 0.52599 0.0
H2178 H 0.49983 0.71995 0.49581 0.0
H2179 H 0.45614 0.69639 0.51572 0.0
H2180 H 0.47519 0.68771 0.54631 0.0
H2181 H 0.45745 0.6611 0.52682 0.0
H2182 H 0.53224 0.59268 0.49022 0.0
H2183 H 0.56225 0.59327 0.53143 0.0
H2184 H 0.52872 0.67197 0.5559 0.0
C2185 C 0.47701 0.67876 0.45762 0.0
C2186 C 0.47596 0.66572 0.43165 0.0
C2187 C 0.48454 0.63817 0.42879 0.0
C2188 C 0.496 0.62443 0.45127 0.0
C2189 C 0.498 0.63839 0.4764 0.0
C2190 C 0.48813 0.66475 0.47982 0.0
C2191 C 0.49546 0.67654 0.5078 0.0
C2192 C 0.51232 0.70357 0.50535 0.0
C2193 C 0.46951 0.68066 0.52519 0.0
C2194 C 0.51263 0.65348 0.51889 0.0
C2195 C 0.51355 0.63145 0.50073 0.0
C2196 C 0.53101 0.60938 0.50501 0.0
C2197 C 0.54814 0.61 0.52832 0.0
C2198 C 0.54761 0.63258 0.54691 0.0
C2199 C 0.52912 0.65415 0.54238 0.0
H2200 H 0.81125 0.54341 0.66674 0.0
H2201 H 0.82683 0.60476 0.73059 0.0
H2202 H 0.78613 0.63028 0.71529 0.0
H2203 H 0.7824 0.59147 0.6141 0.0
H2204 H 0.7572 0.56614 0.60285 0.0
H2205 H 0.79022 0.55535 0.6155 0.0
H2206 H 0.76602 0.5244 0.6517 0.0
H2207 H 0.73324 0.53505 0.63882 0.0
H2208 H 0.74147 0.53949 0.67481 0.0
H2209 H 0.74096 0.64485 0.6984 0.0
H2210 H 0.69349 0.64787 0.6808 0.0
H2211 H 0.70698 0.57752 0.62729 0.0
C2212 C 0.80649 0.5626 0.67701 0.0
C2213 C 0.82211 0.57224 0.69974 0.0
C2214 C 0.81507 0.59712 0.71306 0.0
C2215 C 0.79214 0.61182 0.70441 0.0
C2216 C 0.77674 0.60142 0.68232 0.0
C2217 C 0.78366 0.57748 0.66866 0.0
C2218 C 0.76202 0.56915 0.64757 0.0
C2219 C 0.77366 0.57063 0.61827 0.0
C2220 C 0.74998 0.54032 0.65364 0.0
C2221 C 0.74118 0.5914 0.65249 0.0
C2222 C 0.75036 0.61007 0.67229 0.0
C2223 C 0.73374 0.63081 0.68244 0.0
C2224 C 0.70682 0.63224 0.67247 0.0
C2225 C 0.69687 0.61304 0.65261 0.0
C2226 C 0.71444 0.59281 0.64198 0.0
H2227 H 0.69307 0.56225 0.9524 0.0
H2228 H 0.77303 0.54288 0.98647 0.0
H2229 H 0.76667 0.49429 0.97098 0.0
H2230 H 0.65851 0.50131 0.97119 0.0
H2231 H 0.63814 0.49908 0.94012 0.0
H2232 H 0.64981 0.53216 0.95289 0.0
H2233 H 0.67331 0.54257 0.90617 0.0
H2234 H 0.66124 0.50976 0.89309 0.0
H2235 H 0.69741 0.5184 0.89221 0.0
H2236 H 0.74906 0.44668 0.95374 0.0
H2237 H 0.72486 0.40676 0.93165 0.0
H2238 H 0.65754 0.45969 0.90912 0.0
C2239 C 0.70938 0.54787 0.95646 0.0
C2240 C 0.73343 0.55615 0.97073 0.0
C2241 C 0.75447 0.53685 0.9754 0.0
C2242 C 0.75092 0.50925 0.96688 0.0
C2243 C 0.72642 0.50162 0.95353 0.0
C2244 C 0.70629 0.52062 0.94799 0.0
C2245 C 0.68192 0.50778 0.9332 0.0
C2246 C 0.65555 0.51023 0.95039 0.0
C2247 C 0.67827 0.52037 0.90447 0.0
C2248 C 0.69119 0.47841 0.93141 0.0
C2249 C 0.71677 0.47498 0.94336 0.0
C2250 C 0.7291 0.44923 0.94423 0.0
C2251 C 0.71514 0.42667 0.9319 0.0
C2252 C 0.6894 0.43029 0.91876 0.0
C2253 C 0.67725 0.45639 0.91896 0.0
H2254 H 0.69667 0.43147 0.22248 0.0
H2255 H 0.6618 0.49345 0.16957 0.0
H2256 H 0.7 0.48749 0.13675 0.0
H2257 H 0.76513 0.45442 0.21467 0.0
H2258 H 0.78002 0.42069 0.2155 0.0
H2259 H 0.74815 0.42692 0.233 0.0
H2260 H 0.72446 0.38712 0.20551 0.0
H2261 H 0.75637 0.38055 0.18813 0.0
H2262 H 0.72569 0.38715 0.16843 0.0
H2263 H 0.7423 0.47578 0.11056 0.0
H2264 H 0.78757 0.46086 0.09362 0.0
H2265 H 0.79721 0.4097 0.16575 0.0
C2266 C 0.69678 0.44313 0.20357 0.0
C2267 C 0.67618 0.46243 0.19803 0.0
C2268 C 0.67734 0.47829 0.17378 0.0
C2269 C 0.6989 0.47505 0.1551 0.0
C2270 C 0.71928 0.45624 0.16136 0.0
C2271 C 0.71855 0.44066 0.18506 0.0
C2272 C 0.7443 0.42379 0.18808 0.0
C2273 C 0.76034 0.43196 0.21437 0.0
C2274 C 0.73728 0.39281 0.18749 0.0
C2275 C 0.75965 0.43245 0.16246 0.0
C2276 C 0.74464 0.45084 0.14713 0.0
C2277 C 0.75429 0.46143 0.12238 0.0
C2278 C 0.77996 0.45286 0.11294 0.0
C2279 C 0.79584 0.43436 0.12853 0.0
C2280 C 0.78559 0.42416 0.15365 0.0
H2281 H 0.76883 0.44758 0.44234 0.0
H2282 H 0.77044 0.46798 0.52923 0.0
H2283 H 0.81355 0.4952 0.52272 0.0
H2284 H 0.84367 0.43985 0.43624 0.0
H2285 H 0.84454 0.45378 0.40197 0.0
H2286 H 0.81431 0.43551 0.41371 0.0
H2287 H 0.78403 0.47765 0.4026 0.0
H2288 H 0.81416 0.49514 0.39002 0.0
H2289 H 0.79374 0.51099 0.41646 0.0
H2290 H 0.85359 0.52396 0.50531 0.0
H2291 H 0.88701 0.55176 0.47855 0.0
H2292 H 0.86182 0.50808 0.40421 0.0
C2293 C 0.77832 0.45791 0.45989 0.0
C2294 C 0.76638 0.45631 0.48616 0.0
C2295 C 0.77938 0.46943 0.50891 0.0
C2296 C 0.80387 0.48469 0.50541 0.0
C2297 C 0.81535 0.48583 0.47918 0.0
C2298 C 0.8031 0.47256 0.45687 0.0
C2299 C 0.81938 0.47713 0.43084 0.0
C2300 C 0.83117 0.44994 0.42007 0.0
C2301 C 0.80176 0.49109 0.40871 0.0
C2302 C 0.84198 0.49614 0.44166 0.0
C2303 C 0.83948 0.50078 0.46964 0.0
C2304 C 0.85622 0.51996 0.48355 0.0
C2305 C 0.87526 0.53554 0.46826 0.0
C2306 C 0.87755 0.53157 0.43948 0.0
C2307 C 0.86138 0.51085 0.42635 0.0
H2308 H 0.804 0.4914 0.81289 0.0
H2309 H 0.79966 0.47541 0.7251 0.0
H2310 H 0.77165 0.43329 0.73345 0.0
H2311 H 0.80999 0.41853 0.83243 0.0
H2312 H 0.78988 0.42286 0.86317 0.0
H2313 H 0.81035 0.45119 0.85032 0.0
H2314 H 0.76717 0.4819 0.84854 0.0
H2315 H 0.74688 0.45388 0.86198 0.0
H2316 H 0.73704 0.46973 0.83006 0.0
H2317 H 0.73914 0.39722 0.75112 0.0
H2318 H 0.70535 0.36914 0.77722 0.0
H2319 H 0.73631 0.40462 0.85348 0.0
C2320 C 0.797 0.47899 0.79553 0.0
C2321 C 0.80338 0.48657 0.76839 0.0
C2322 C 0.79458 0.46979 0.74603 0.0
C2323 C 0.77892 0.44583 0.75058 0.0
C2324 C 0.7731 0.43866 0.77765 0.0
C2325 C 0.78209 0.45458 0.79976 0.0
C2326 C 0.77261 0.44261 0.82677 0.0
C2327 C 0.79718 0.43324 0.84419 0.0
C2328 C 0.75487 0.46324 0.84275 0.0
C2329 C 0.75576 0.41823 0.81631 0.0
C2330 C 0.75636 0.4162 0.78791 0.0
C2331 C 0.73921 0.39785 0.77339 0.0
C2332 C 0.72025 0.3819 0.78826 0.0
C2333 C 0.71925 0.38408 0.81723 0.0
C2334 C 0.73784 0.40165 0.83141 0.0
H2335 H 0.8305 0.57234 0.9885 0.0
H2336 H 0.84332 0.62042 0.06272 0.0
H2337 H 0.87959 0.58868 0.07753 0.0
H2338 H 0.82538 0.51477 0.01848 0.0
H2339 H 0.8419 0.49268 0.9938 0.0
H2340 H 0.82741 0.52433 0.98274 0.0
H2341 H 0.87435 0.53983 0.96272 0.0
H2342 H 0.88912 0.50784 0.97362 0.0
H2343 H 0.90464 0.54017 0.98428 0.0
H2344 H 0.90282 0.54709 0.0905 0.0
H2345 H 0.90625 0.49854 0.10328 0.0
H2346 H 0.8759 0.47408 0.02248 0.0
C2347 C 0.84229 0.57683 0.00701 0.0
C2348 C 0.83504 0.59886 0.02425 0.0
C2349 C 0.84932 0.6038 0.04913 0.0
C2350 C 0.87004 0.58599 0.0575 0.0
C2351 C 0.87575 0.56318 0.04091 0.0
C2352 C 0.86227 0.55857 0.01603 0.0
C2353 C 0.86636 0.52943 0.0057 0.0
C2354 C 0.83863 0.51445 -9e-05 0.0
C2355 C 0.88472 0.52932 0.98006 0.0
C2356 C 0.8813 0.51749 0.03014 0.0
C2357 C 0.88805 0.53769 0.0494 0.0
C2358 C 0.89826 0.5312 0.07535 0.0
C2359 C 0.89994 0.50347 0.08251 0.0
C2360 C 0.89086 0.48256 0.06397 0.0
C2361 C 0.88313 0.48966 0.03695 0.0
H2362 H 0.6849 0.52596 0.34292 0.0
H2363 H 0.70652 0.46806 0.27824 0.0
H2364 H 0.75539 0.47351 0.29085 0.0
H2365 H 0.73698 0.57193 0.33215 0.0
H2366 H 0.74354 0.58051 0.36777 0.0
H2367 H 0.70995 0.5685 0.35721 0.0
H2368 H 0.71202 0.5294 0.39293 0.0
H2369 H 0.74584 0.54095 0.40374 0.0
H2370 H 0.74028 0.50587 0.39243 0.0
H2371 H 0.80189 0.49076 0.3052 0.0
H2372 H 0.84266 0.51666 0.32245 0.0
H2373 H 0.79052 0.56264 0.378 0.0
C2374 C 0.69979 0.51385 0.33189 0.0
C2375 C 0.69183 0.49663 0.30961 0.0
C2376 C 0.71205 0.48132 0.29551 0.0
C2377 C 0.73991 0.48421 0.30251 0.0
C2378 C 0.74713 0.50215 0.32392 0.0
C2379 C 0.72764 0.51638 0.33869 0.0
C2380 C 0.74091 0.53614 0.35914 0.0
C2381 C 0.73234 0.56602 0.35372 0.0
C2382 C 0.73438 0.52757 0.38882 0.0
C2383 C 0.77086 0.53186 0.3525 0.0
C2384 C 0.77408 0.51189 0.33243 0.0
C2385 C 0.79972 0.50602 0.32135 0.0
C2386 C 0.82269 0.521 0.33107 0.0
C2387 C 0.81974 0.54159 0.35159 0.0
C2388 C 0.7935 0.54678 0.36255 0.0
H2389 H 0.69951 0.44039 0.58817 0.0
H2390 H 0.63949 0.42079 0.52431 0.0
H2391 H 0.60543 0.44942 0.54806 0.0
H2392 H 0.64913 0.44633 0.64704 0.0
H2393 H 0.66818 0.47501 0.66181 0.0
H2394 H 0.68597 0.44843 0.64326 0.0
H2395 H 0.70753 0.48518 0.61121 0.0
H2396 H 0.68994 0.51169 0.62964 0.0
H2397 H 0.68533 0.50827 0.59295 0.0
H2398 H 0.58114 0.48545 0.57328 0.0
H2399 H 0.57059 0.53014 0.59479 0.0
H2400 H 0.64523 0.52637 0.64344 0.0
C2401 C 0.67898 0.44164 0.57958 0.0
C2402 C 0.67203 0.42833 0.55453 0.0
C2403 C 0.6452 0.43085 0.54353 0.0
C2404 C 0.62561 0.44676 0.55706 0.0
C2405 C 0.63313 0.45984 0.58166 0.0
C2406 C 0.65923 0.45755 0.59278 0.0
C2407 C 0.66339 0.47687 0.61708 0.0
C2408 C 0.66686 0.46068 0.64389 0.0
C2409 C 0.68799 0.49666 0.61239 0.0
C2410 C 0.63628 0.49179 0.61666 0.0
C2411 C 0.61875 0.48094 0.59665 0.0
C2412 C 0.59425 0.49365 0.58954 0.0
C2413 C 0.58835 0.51895 0.6019 0.0
C2414 C 0.6069 0.53117 0.62106 0.0
C2415 C 0.63029 0.51676 0.62966 0.0
H2416 H 0.73535 0.80861 0.56713 0.0
H2417 H 0.75261 0.77645 0.48554 0.0
H2418 H 0.72146 0.73708 0.49373 0.0
H2419 H 0.72912 0.74308 0.60188 0.0
H2420 H 0.70081 0.75366 0.62308 0.0
H2421 H 0.72571 0.77879 0.61146 0.0
H2422 H 0.68649 0.80722 0.58998 0.0
H2423 H 0.6615 0.78205 0.60133 0.0
H2424 H 0.66331 0.79104 0.56546 0.0
H2425 H 0.68968 0.70114 0.5105 0.0
H2426 H 0.65701 0.67062 0.53476 0.0
H2427 H 0.65682 0.72719 0.6043 0.0
C2428 C 0.73278 0.79309 0.55116 0.0
C2429 C 0.74671 0.79534 0.52581 0.0
C2430 C 0.7424 0.77497 0.50517 0.0
C2431 C 0.72468 0.75256 0.5096 0.0
C2432 C 0.71106 0.75108 0.53463 0.0
C2433 C 0.71467 0.77079 0.55504 0.0
C2434 C 0.69659 0.76459 0.57963 0.0
C2435 C 0.71411 0.75973 0.60554 0.0
C2436 C 0.67574 0.7876 0.58436 0.0
C2437 C 0.68246 0.73825 0.56981 0.0
C2438 C 0.69136 0.73082 0.54386 0.0
C2439 C 0.68232 0.70679 0.53072 0.0
C2440 C 0.66383 0.68964 0.54462 0.0
C2441 C 0.65433 0.69685 0.57114 0.0
C2442 C 0.66346 0.7216 0.58379 0.0
H2443 H 0.21434 0.68832 0.48913 0.0
H2444 H 0.29177 0.68189 0.44609 0.0
H2445 H 0.27286 0.70915 0.40752 0.0
H2446 H 0.17036 0.68262 0.42664 0.0
H2447 H 0.14563 0.70637 0.44017 0.0
H2448 H 0.16476 0.68486 0.46323 0.0
H2449 H 0.1821 0.72809 0.49028 0.0
H2450 H 0.16265 0.74949 0.46762 0.0
H2451 H 0.19909 0.7556 0.47198 0.0
H2452 H 0.24785 0.74284 0.37802 0.0
H2453 H 0.21797 0.77895 0.35888 0.0
H2454 H 0.15505 0.75814 0.41819 0.0
C2455 C 0.22715 0.69262 0.47144 0.0
C2456 C 0.25445 0.6836 0.47036 0.0
C2457 C 0.27077 0.68899 0.44701 0.0
C2458 C 0.26017 0.7042 0.42508 0.0
C2459 C 0.23301 0.7129 0.42669 0.0
C2460 C 0.21662 0.70698 0.44913 0.0
C2461 C 0.1885 0.71946 0.44638 0.0
C2462 C 0.16599 0.69698 0.44395 0.0
C2463 C 0.18278 0.73934 0.47048 0.0
C2464 C 0.19207 0.73457 0.41956 0.0
C2465 C 0.21784 0.73046 0.4084 0.0
C2466 C 0.22728 0.74548 0.3859 0.0
C2467 C 0.21025 0.76582 0.37512 0.0
C2468 C 0.18406 0.77034 0.38657 0.0
C2469 C 0.17452 0.75396 0.40837 0.0
H2470 H 0.55283 0.90604 0.75235 0.0
H2471 H 0.52632 0.9768 0.79918 0.0
H2472 H 0.4803 0.973 0.77734 0.0
H2473 H 0.52698 0.92401 0.6932 0.0
H2474 H 0.51572 0.89066 0.68061 0.0
H2475 H 0.54332 0.89323 0.70522 0.0
H2476 H 0.51742 0.86112 0.73864 0.0
H2477 H 0.48963 0.85743 0.71412 0.0
H2478 H 0.4828 0.86887 0.74876 0.0
H2479 H 0.4415 0.96767 0.74247 0.0
H2480 H 0.41036 0.9565 0.70338 0.0
H2481 H 0.46414 0.89013 0.67907 0.0
C2482 C 0.53671 0.91956 0.75925 0.0
C2483 C 0.54268 0.94129 0.77768 0.0
C2484 C 0.52169 0.95948 0.78565 0.0
C2485 C 0.49564 0.95766 0.77307 0.0
C2486 C 0.49105 0.93724 0.75312 0.0
C2487 C 0.51079 0.91794 0.74695 0.0
C2488 C 0.50235 0.90013 0.72264 0.0
C2489 C 0.52334 0.90217 0.69905 0.0
C2490 C 0.49775 0.87011 0.73157 0.0
C2491 C 0.47561 0.91344 0.71498 0.0
C2492 C 0.46912 0.93454 0.7329 0.0
C2493 C 0.4461 0.95079 0.72868 0.0
C2494 C 0.42878 0.94457 0.70615 0.0
C2495 C 0.4348 0.92249 0.68801 0.0
C2496 C 0.45882 0.90715 0.69245 0.0
H2497 H 0.28352 0.32308 0.93786 0.0
H2498 H 0.26142 0.28961 0.01726 0.0
H2499 H 0.26355 0.2423 -0.00216 0.0
H2500 H 0.24967 0.27112 0.89373 0.0
H2501 H 0.27767 0.27066 0.86958 0.0
H2502 H 0.27036 0.30174 0.8885 0.0
H2503 H 0.32051 0.30387 0.9071 0.0
H2504 H 0.32802 0.27324 0.88778 0.0
H2505 H 0.33423 0.27434 0.92438 0.0
H2506 H 0.26948 0.1991 0.96996 0.0
H2507 H 0.28861 0.16321 0.93966 0.0
H2508 H 0.31124 0.22546 0.88012 0.0
C2509 C 0.27886 0.30573 0.95102 0.0
C2510 C 0.27186 0.30965 0.97882 0.0
C2511 C 0.26661 0.28671 0.9958 0.0
C2512 C 0.26748 0.25993 0.98488 0.0
C2513 C 0.27412 0.25671 0.95715 0.0
C2514 C 0.28041 0.27899 0.94067 0.0
C2515 C 0.29065 0.27005 0.91276 0.0
C2516 C 0.2709 0.27892 0.88979 0.0
C2517 C 0.3201 0.28101 0.90773 0.0
C2518 C 0.2899 0.23919 0.9163 0.0
C2519 C 0.27932 0.23187 0.94165 0.0
C2520 C 0.27761 0.20454 0.95001 0.0
C2521 C 0.2883 0.18431 0.93258 0.0
C2522 C 0.30115 0.19176 0.9076 0.0
C2523 C 0.30115 0.21936 0.89899 0.0
H2524 H 0.43712 0.51039 0.67766 0.0
H2525 H 0.42706 0.54039 0.76134 0.0
H2526 H 0.45305 0.58278 0.74969 0.0
H2527 H 0.50517 0.53188 0.67101 0.0
H2528 H 0.50217 0.54056 0.63512 0.0
H2529 H 0.47976 0.51476 0.64949 0.0
H2530 H 0.43761 0.54213 0.63237 0.0
H2531 H 0.46009 0.56841 0.61858 0.0
H2532 H 0.43381 0.57754 0.64288 0.0
H2533 H 0.48325 0.61986 0.73016 0.0
H2534 H 0.52123 0.64454 0.70655 0.0
H2535 H 0.51168 0.59001 0.63624 0.0
C2536 C 0.44009 0.52601 0.69347 0.0
C2537 C 0.42999 0.52217 0.72034 0.0
C2538 C 0.43474 0.54286 0.74061 0.0
C2539 C 0.44911 0.56717 0.73409 0.0
C2540 C 0.45852 0.57044 0.70726 0.0
C2541 C 0.45451 0.55022 0.68739 0.0
C2542 C 0.46942 0.55713 0.66109 0.0
C2543 C 0.49037 0.53477 0.65378 0.0
C2544 C 0.449 0.56157 0.63733 0.0
C2545 C 0.4834 0.58387 0.66962 0.0
C2546 C 0.47621 0.5917 0.69603 0.0
C2547 C 0.4886 0.61432 0.70927 0.0
C2548 C 0.5099 0.62838 0.69569 0.0
C2549 C 0.51852 0.61941 0.66947 0.0
C2550 C 0.50452 0.59767 0.6559 0.0
H2551 H 0.78761 0.19312 0.01631 0.0
H2552 H 0.70807 0.20743 0.05326 0.0
H2553 H 0.72301 0.25468 0.06615 0.0
H2554 H 0.82578 0.22439 0.06796 0.0
H2555 H 0.85179 0.23921 0.04603 0.0
H2556 H 0.83349 0.20847 0.03531 0.0
H2557 H 0.81836 0.23222 0.99021 0.0
H2558 H 0.83696 0.263 0.00061 0.0
H2559 H 0.80093 0.26465 0.99197 0.0
H2560 H 0.74778 0.29908 0.07783 0.0
H2561 H 0.7813 0.33658 0.08903 0.0
H2562 H 0.8454 0.29121 0.04778 0.0
C2563 C 0.77312 0.20651 0.0264 0.0
C2564 C 0.74667 0.19691 0.0336 0.0
C2565 C 0.72843 0.21459 0.04751 0.0
C2566 C 0.73668 0.24144 0.0548 0.0
C2567 C 0.76327 0.25006 0.04819 0.0
C2568 C 0.78122 0.23313 0.03429 0.0
C2569 C 0.80953 0.24622 0.03215 0.0
C2570 C 0.83142 0.22852 0.04621 0.0
C2571 C 0.81687 0.25186 0.00194 0.0
C2572 C 0.80494 0.27271 0.04783 0.0
C2573 C 0.77798 0.2749 0.05633 0.0
C2574 C 0.76894 0.29764 0.07124 0.0
C2575 C 0.78803 0.31871 0.07758 0.0
C2576 C 0.81584 0.31638 0.06961 0.0
C2577 C 0.8243 0.29315 0.05452 0.0
H2578 H 0.54845 0.03177 0.81238 0.0
H2579 H 0.53837 0.05986 0.72862 0.0
H2580 H 0.51293 0.10036 0.7457 0.0
H2581 H 0.48276 0.04296 0.83074 0.0
H2582 H 0.49006 0.05281 0.86592 0.0
H2583 H 0.51329 0.03096 0.84779 0.0
H2584 H 0.55319 0.06564 0.85839 0.0
H2585 H 0.52973 0.08791 0.87618 0.0
H2586 H 0.55015 0.10108 0.84821 0.0
H2587 H 0.48419 0.13402 0.77103 0.0
H2588 H 0.44642 0.1513 0.79983 0.0
H2589 H 0.47171 0.09843 0.86621 0.0
C2590 C 0.5416 0.04698 0.79778 0.0
C2591 C 0.54565 0.04323 0.76934 0.0
C2592 C 0.53553 0.06271 0.75055 0.0
C2593 C 0.52146 0.08588 0.76012 0.0
C2594 C 0.51754 0.08893 0.78843 0.0
C2595 C 0.52694 0.06967 0.80693 0.0
C2596 C 0.51551 0.07437 0.83541 0.0
C2597 C 0.49944 0.04878 0.84552 0.0
C2598 C 0.53853 0.08276 0.85575 0.0
C2599 C 0.4968 0.09824 0.82976 0.0
C2600 C 0.49937 0.10731 0.80291 0.0
C2601 C 0.4824 0.12751 0.79221 0.0
C2602 C 0.46118 0.13741 0.80876 0.0
C2603 C 0.45681 0.12645 0.83525 0.0
C2604 C 0.47542 0.10759 0.84629 0.0
H2605 H 0.94157 0.90803 0.26561 0.0
H2606 H 0.92852 0.974 0.32477 0.0
H2607 H 0.96742 0.95791 0.35246 0.0
H2608 H 0.96328 0.85589 0.31634 0.0
H2609 H 0.98882 0.84188 0.29365 0.0
H2610 H 0.95811 0.85677 0.27959 0.0
H2611 H 0.98798 0.88982 0.25009 0.0
H2612 H 0.01864 0.87495 0.26406 0.0
H2613 H 0.01355 0.91156 0.26675 0.0
H2614 H 0.01003 0.93874 0.37083 0.0
H2615 H 0.05448 0.91644 0.37945 0.0
H2616 H 0.03966 0.86142 0.31003 0.0
C2617 C 0.94669 0.91879 0.2846 0.0
C2618 C 0.93206 0.94222 0.29307 0.0
C2619 C 0.93946 0.95598 0.31789 0.0
C2620 C 0.96143 0.94694 0.33385 0.0
C2621 C 0.97563 0.92399 0.32483 0.0
C2622 C 0.96859 0.90996 0.30089 0.0
C2623 C 0.98845 0.88692 0.29512 0.0
C2624 C 0.97378 0.85869 0.29625 0.0
C2625 C 0.00302 0.89109 0.26737 0.0
C2626 C 0.00817 0.89087 0.3191 0.0
C2627 C 0.0002 0.91227 0.33605 0.0
C2628 C 0.01626 0.92156 0.35813 0.0
C2629 C 0.04142 0.9089 0.3628 0.0
C2630 C 0.05002 0.8871 0.34561 0.0
C2631 C 0.03301 0.87759 0.32385 0.0
H2632 H 0.45623 0.22578 0.19456 0.0
H2633 H 0.50697 0.29385 0.16553 0.0
H2634 H 0.47732 0.32658 0.1901 0.0
H2635 H 0.39139 0.25914 0.18949 0.0
H2636 H 0.37778 0.24432 0.22057 0.0
H2637 H 0.40295 0.22599 0.20081 0.0
H2638 H 0.43484 0.22307 0.24365 0.0
H2639 H 0.4094 0.24067 0.26364 0.0
H2640 H 0.44411 0.25417 0.26221 0.0
H2641 H 0.44169 0.35188 0.21703 0.0
H2642 H 0.40724 0.36748 0.25045 0.0
H2643 H 0.37976 0.28274 0.26163 0.0
C2644 C 0.46129 0.24754 0.1936 0.0
C2645 C 0.48387 0.25728 0.17811 0.0
C2646 C 0.48982 0.28592 0.17737 0.0
C2647 C 0.47295 0.30469 0.19102 0.0
C2648 C 0.4503 0.29446 0.20533 0.0
C2649 C 0.44474 0.26654 0.20713 0.0
C2650 C 0.41976 0.26084 0.22474 0.0
C2651 C 0.39661 0.24674 0.20788 0.0
C2652 C 0.4275 0.24369 0.25006 0.0
C2653 C 0.41226 0.28992 0.23275 0.0
C2654 C 0.42989 0.30903 0.22103 0.0
C2655 C 0.42772 0.33712 0.22631 0.0
C2656 C 0.40791 0.3458 0.2452 0.0
C2657 C 0.39076 0.32637 0.25881 0.0
C2658 C 0.39232 0.2982 0.2515 0.0
H2659 H 0.53078 0.74143 0.9666 0.0
H2660 H 0.48724 0.71141 0.89397 0.0
H2661 H 0.47002 0.67146 0.91987 0.0
H2662 H 0.54561 0.67066 -0.0027 0.0
H2663 H 0.53957 0.68356 0.03159 0.0
H2664 H 0.55413 0.70597 0.00587 0.0
H2665 H 0.51509 0.74075 0.01417 0.0
H2666 H 0.50054 0.71858 0.0398 0.0
H2667 H 0.47978 0.72919 0.01104 0.0
H2668 H 0.44939 0.6413 0.95506 0.0
H2669 H 0.4272 0.62349 -0.00296 0.0
H2670 H 0.485 0.67139 0.04697 0.0
C2671 C 0.51857 0.72582 0.95593 0.0
C2672 C 0.51043 0.72944 0.92832 0.0
C2673 C 0.49371 0.70905 0.91518 0.0
C2674 C 0.48399 0.68613 0.92965 0.0
C2675 C 0.49136 0.68368 0.95722 0.0
C2676 C 0.50853 0.70281 0.97021 0.0
C2677 C 0.51002 0.69762 0.00085 0.0
C2678 C 0.53906 0.68893 0.0094 0.0
C2679 C 0.50079 0.72303 0.01741 0.0
C2680 C 0.48963 0.67384 0.00324 0.0
C2681 C 0.47956 0.66567 0.97777 0.0
C2682 C 0.45769 0.64685 0.97508 0.0
C2683 C 0.44516 0.63686 -0.00097 0.0
C2684 C 0.45453 0.64577 0.02529 0.0
C2685 C 0.47781 0.66355 0.02725 0.0
H2686 H 0.0077 0.68515 0.66839 0.0
H2687 H 0.01729 0.77277 0.68535 0.0
H2688 H 0.05371 0.76289 0.71926 0.0
H2689 H 0.01587 0.66336 0.73764 0.0
H2690 H 0.03413 0.63261 0.72855 0.0
H2691 H 0.00985 0.64688 0.70473 0.0
H2692 H 0.04787 0.64909 0.66752 0.0
H2693 H 0.07239 0.63525 0.69145 0.0
H2694 H 0.07956 0.66758 0.67478 0.0
H2695 H 0.0882 0.7437 0.7516 0.0
H2696 H 0.1147 0.71626 0.78452 0.0
H2697 H 0.08243 0.64101 0.74687 0.0
C2698 C 0.01748 0.70232 0.67915 0.0
C2699 C 0.00971 0.72977 0.6741 0.0
C2700 C 0.02282 0.75157 0.6889 0.0
C2701 C 0.04371 0.74619 0.70801 0.0
C2702 C 0.05115 0.71894 0.71208 0.0
C2703 C 0.03822 0.69733 0.69836 0.0
C2704 C 0.04898 0.66983 0.70771 0.0
C2705 C 0.02583 0.65214 0.72042 0.0
C2706 C 0.06303 0.65455 0.68394 0.0
C2707 C 0.06972 0.67935 0.72921 0.0
C2708 C 0.07092 0.70777 0.73106 0.0
C2709 C 0.08756 0.72145 0.75027 0.0
C2710 C 0.10256 0.70566 0.76884 0.0
C2711 C 0.10065 0.6765 0.76819 0.0
C2712 C 0.08469 0.66322 0.74753 0.0
H2713 H 0.98643 0.33957 0.4603 0.0
H2714 H 0.04662 0.35677 0.39712 0.0
H2715 H 0.07827 0.37683 0.43209 0.0
H2716 H 0.00403 0.39958 0.50769 0.0
H2717 H -0.00038 0.37855 0.5378 0.0
H2718 H 0.97931 0.37151 0.50732 0.0
H2719 H -0.00366 0.32122 0.50697 0.0
H2720 H 0.01689 0.32813 0.53716 0.0
H2721 H 0.03278 0.31492 0.50645 0.0
H2722 H 0.10557 0.38873 0.47379 0.0
H2723 H 0.12739 0.39059 0.51967 0.0
H2724 H 0.05036 0.36345 0.55635 0.0
C2725 C 0.00578 0.34874 0.45387 0.0
C2726 C 0.01402 0.34747 0.42617 0.0
C2727 C 0.03997 0.3582 0.41833 0.0
C2728 C 0.05798 0.36964 0.43799 0.0
C2729 C 0.04977 0.36984 0.4654 0.0
C2730 C 0.02428 0.3597 0.4734 0.0
C2731 C 0.02215 0.35862 0.50446 0.0
C2732 C -4e-05 0.37825 0.51493 0.0
C2733 C 0.01673 0.32897 0.51432 0.0
C2734 C 0.05068 0.36881 0.51254 0.0
C2735 C 0.06607 0.37569 0.48974 0.0
C2736 C 0.09361 0.38384 0.49188 0.0
C2737 C 0.10585 0.38473 0.51804 0.0
C2738 C 0.09064 0.37717 0.54168 0.0
C2739 C 0.06256 0.36955 0.53877 0.0
H2740 H 0.40949 0.70592 0.3247 0.0
H2741 H 0.44944 0.78366 0.30477 0.0
H2742 H 0.43496 0.77767 0.25619 0.0
H2743 H 0.43344 0.67121 0.27061 0.0
H2744 H 0.40346 0.64962 0.2646 0.0
H2745 H 0.41028 0.66326 0.29841 0.0
H2746 H 0.36217 0.68552 0.29931 0.0
H2747 H 0.35501 0.6717 0.26542 0.0
H2748 H 0.35214 0.70813 0.27189 0.0
H2749 H 0.4237 0.75932 0.20937 0.0
H2750 H 0.41827 0.72993 0.16818 0.0
H2751 H 0.38719 0.66326 0.21897 0.0
C2752 C 0.41438 0.72218 0.31032 0.0
C2753 C 0.43043 0.7453 0.3184 0.0
C2754 C 0.43688 0.76591 0.29897 0.0
C2755 C 0.42866 0.76271 0.27139 0.0
C2756 C 0.41383 0.73896 0.26385 0.0
C2757 C 0.40659 0.71914 0.28286 0.0
C2758 C 0.39455 0.6936 0.26917 0.0
C2759 C 0.41145 0.66794 0.2761 0.0
C2760 C 0.36416 0.68951 0.27691 0.0
C2761 C 0.39751 0.70148 0.23934 0.0
C2762 C 0.40796 0.72798 0.23668 0.0
C2763 C 0.41498 0.73877 0.21117 0.0
C2764 C 0.41193 0.72181 0.18789 0.0
C2765 C 0.40239 0.69418 0.19037 0.0
C2766 C 0.39429 0.68432 0.21635 0.0
H2767 H 0.03848 0.67228 0.04385 0.0
H2768 H 0.10007 0.62953 0.09139 0.0
H2769 H 0.11825 0.6091 0.04896 0.0
H2770 H 0.03211 0.61674 0.9855 0.0
H2771 H 0.02789 0.6436 0.96052 0.0
H2772 H 0.01428 0.6477 0.99475 0.0
H2773 H 0.04148 0.69374 -0.00024 0.0
H2774 H 0.05581 0.68955 0.9661 0.0
H2775 H 0.07831 0.69403 0.99545 0.0
H2776 H 0.13786 0.60476 0.0025 0.0
H2777 H 0.15322 0.61122 0.95454 0.0
H2778 H 0.07849 0.65561 0.9368 0.0
C2779 C 0.05477 0.65741 0.04542 0.0
C2780 C 0.06799 0.65264 0.07075 0.0
C2781 C 0.08974 0.6336 0.07207 0.0
C2782 C 0.10016 0.62177 0.04808 0.0
C2783 C 0.08822 0.62874 0.02306 0.0
C2784 C 0.06542 0.64543 0.02157 0.0
C2785 C 0.05898 0.65294 0.99211 0.0
C2786 C 0.0317 0.63943 0.98266 0.0
C2787 C 0.05866 0.68441 0.98816 0.0
C2788 C 0.08314 0.64008 0.97773 0.0
C2789 C 0.09946 0.62569 0.99579 0.0
C2790 C 0.12479 0.61514 0.98792 0.0
C2791 C 0.13354 0.61926 0.96081 0.0
C2792 C 0.11698 0.63385 0.94206 0.0
C2793 C 0.09134 0.64396 0.95061 0.0
H2794 H 0.07231 0.2204 0.76969 0.0
H2795 H 0.07558 0.26744 0.84576 0.0
H2796 H 0.10195 0.30425 0.82267 0.0
H2797 H 0.14114 0.24759 0.73971 0.0
H2798 H 0.12596 0.2482 0.7058 0.0
H2799 H 0.1155 0.22208 0.72995 0.0
H2800 H 0.06478 0.23644 0.7236 0.0
H2801 H 0.07501 0.26281 0.69999 0.0
H2802 H 0.05551 0.2717 0.73013 0.0
H2803 H 0.11783 0.33989 0.78974 0.0
H2804 H 0.12254 0.37074 0.74964 0.0
H2805 H 0.10762 0.30099 0.69494 0.0
C2806 C 0.07991 0.23778 0.78174 0.0
C2807 C 0.07222 0.24108 0.80943 0.0
C2808 C 0.08148 0.26456 0.82447 0.0
C2809 C 0.09658 0.2855 0.81157 0.0
C2810 C 0.10234 0.28256 0.78368 0.0
C2811 C 0.09465 0.25906 0.76899 0.0
C2812 C 0.09893 0.26289 0.73846 0.0
C2813 C 0.12175 0.24408 0.72786 0.0
C2814 C 0.07196 0.25821 0.72213 0.0
C2815 C 0.1081 0.29276 0.73817 0.0
C2816 C 0.11084 0.30356 0.76442 0.0
C2817 C 0.11643 0.33152 0.76906 0.0
C2818 C 0.11891 0.34892 0.74624 0.0
C2819 C 0.11515 0.33828 0.71929 0.0
C2820 C 0.11043 0.30976 0.71535 0.0
H2821 H 0.48289 0.28622 0.5196 0.0
H2822 H 0.41562 0.27887 0.57774 0.0
H2823 H 0.38221 0.28425 0.54034 0.0
H2824 H 0.45118 0.33745 0.47637 0.0
H2825 H 0.46385 0.32299 0.4447 0.0
H2826 H 0.48296 0.31882 0.47621 0.0
H2827 H 0.48165 0.26587 0.46894 0.0
H2828 H 0.46227 0.2699 0.43755 0.0
H2829 H 0.44897 0.2483 0.46456 0.0
H2830 H 0.35582 0.29048 0.49776 0.0
H2831 H 0.33774 0.29934 0.45122 0.0
H2832 H 0.42127 0.30178 0.41974 0.0
C2833 C 0.46115 0.28601 0.52435 0.0
C2834 C 0.45184 0.28205 0.55148 0.0
C2835 C 0.42322 0.28166 0.55701 0.0
C2836 C 0.40401 0.28468 0.53594 0.0
C2837 C 0.41368 0.28798 0.50937 0.0
C2838 C 0.44148 0.2888 0.50337 0.0
C2839 C 0.44598 0.29261 0.47281 0.0
C2840 C 0.46193 0.31958 0.4672 0.0
C2841 C 0.46058 0.26768 0.46023 0.0
C2842 C 0.41641 0.29409 0.4629 0.0
C2843 C 0.39817 0.29126 0.48437 0.0
C2844 C 0.36982 0.29266 0.48064 0.0
C2845 C 0.35975 0.29768 0.45417 0.0
C2846 C 0.37805 0.30114 0.43188 0.0
C2847 C 0.40672 0.29887 0.43631 0.0
H2848 H 0.21241 0.46839 0.21984 0.0
H2849 H 0.18145 0.51554 0.28909 0.0
H2850 H 0.21356 0.49222 0.32003 0.0
H2851 H 0.21947 0.40621 0.25372 0.0
H2852 H 0.25119 0.39639 0.23762 0.0
H2853 H 0.22787 0.41864 0.21987 0.0
H2854 H 0.26656 0.45547 0.21445 0.0
H2855 H 0.29019 0.43312 0.23175 0.0
H2856 H 0.28517 0.46763 0.24446 0.0
H2857 H 0.24408 0.46017 0.3443 0.0
H2858 H 0.27656 0.42504 0.35995 0.0
H2859 H 0.28998 0.39993 0.27519 0.0
C2860 C 0.21288 0.47425 0.24139 0.0
C2861 C 0.1944 0.49369 0.25207 0.0
C2862 C 0.19543 0.5007 0.28042 0.0
C2863 C 0.21356 0.48754 0.29822 0.0
C2864 C 0.23078 0.46774 0.28726 0.0
C2865 C 0.2311 0.46149 0.25947 0.0
C2866 C 0.25123 0.43879 0.25331 0.0
C2867 C 0.23655 0.41352 0.24037 0.0
C2868 C 0.27469 0.44939 0.23491 0.0
C2869 C 0.26144 0.43276 0.2821 0.0
C2870 C 0.24925 0.44967 0.30134 0.0
C2871 C 0.25409 0.44704 0.32945 0.0
C2872 C 0.27229 0.42685 0.33813 0.0
C2873 C 0.2856 0.40981 0.31873 0.0
C2874 C 0.28012 0.41283 0.29038 0.0
H2875 H 0.32306 0.44705 0.00318 0.0
H2876 H 0.30664 0.40529 0.07996 0.0
H2877 H 0.33646 0.43895 0.10473 0.0
H2878 H 0.39518 0.47258 0.01976 0.0
H2879 H 0.38913 0.50519 0.00353 0.0
H2880 H 0.37199 0.47443 0.99078 0.0
H2881 H 0.32477 0.49777 0.99667 0.0
H2882 H 0.34173 0.52848 0.00936 0.0
H2883 H 0.31565 0.51174 0.02981 0.0
H2884 H 0.36231 0.47968 0.12193 0.0
H2885 H 0.37867 0.52699 0.13136 0.0
H2886 H 0.37641 0.54432 0.04378 0.0
C2887 C 0.32665 0.44456 0.02503 0.0
C2888 C 0.31314 0.4235 0.03974 0.0
C2889 C 0.31715 0.42128 0.06845 0.0
C2890 C 0.33419 0.44013 0.0826 0.0
C2891 C 0.34677 0.46119 0.06771 0.0
C2892 C 0.34309 0.46366 0.03957 0.0
C2893 C 0.35521 0.49057 0.02927 0.0
C2894 C 0.37931 0.48537 0.00968 0.0
C2895 C 0.33301 0.50817 0.01549 0.0
C2896 C 0.36516 0.5033 0.05616 0.0
C2897 C 0.36082 0.48564 0.07792 0.0
C2898 C 0.36622 0.49356 0.10504 0.0
C2899 C 0.37545 0.52056 0.11018 0.0
C2900 C 0.37877 0.53947 0.08833 0.0
C2901 C 0.3744 0.53033 0.06092 0.0
H2902 H 0.31728 0.50845 0.79201 0.0
H2903 H 0.2999 0.50858 0.70423 0.0
H2904 H 0.26599 0.54523 0.71135 0.0
H2905 H 0.24706 0.51912 0.8134 0.0
H2906 H 0.25724 0.54017 0.84251 0.0
H2907 H 0.27978 0.51389 0.83003 0.0
H2908 H 0.31866 0.5507 0.82482 0.0
H2909 H 0.29597 0.57722 0.8366 0.0
H2910 H 0.31282 0.5805 0.8038 0.0
H2911 H 0.23449 0.58239 0.72809 0.0
H2912 H 0.20322 0.61258 0.75391 0.0
H2913 H 0.24212 0.58822 0.83042 0.0
C2914 C 0.30628 0.51606 0.77425 0.0
C2915 C 0.31143 0.5058 0.74753 0.0
C2916 C 0.29632 0.51611 0.72491 0.0
C2917 C 0.27718 0.53709 0.72871 0.0
C2918 C 0.27333 0.54737 0.75523 0.0
C2919 C 0.28708 0.53683 0.77767 0.0
C2920 C 0.27847 0.55066 0.80416 0.0
C2921 C 0.26482 0.52972 0.82366 0.0
C2922 C 0.30294 0.56566 0.81816 0.0
C2923 C 0.25787 0.57083 0.79312 0.0
C2924 C 0.25526 0.56873 0.76485 0.0
C2925 C 0.23642 0.58431 0.75022 0.0
C2926 C 0.21889 0.60154 0.76505 0.0
C2927 C 0.22033 0.60296 0.79418 0.0
C2928 C 0.24082 0.58813 0.80816 0.0
H2929 H 0.22044 0.55629 0.51895 0.0
H2930 H 0.19774 0.61817 0.57924 0.0
H2931 H 0.16426 0.58579 0.59922 0.0
H2932 H 0.14868 0.51927 0.51582 0.0
H2933 H 0.16544 0.48659 0.51241 0.0
H2934 H 0.18053 0.51698 0.49717 0.0
H2935 H 0.22593 0.50802 0.52353 0.0
H2936 H 0.21099 0.47812 0.53919 0.0
H2937 H 0.22532 0.50534 0.56053 0.0
H2938 H 0.14428 0.54439 0.62051 0.0
H2939 H 0.13664 0.49778 0.63906 0.0
H2940 H 0.1715 0.46279 0.56475 0.0
C2941 C 0.20755 0.56343 0.53555 0.0
C2942 C 0.21194 0.58957 0.54772 0.0
C2943 C 0.19492 0.59811 0.56968 0.0
C2944 C 0.17562 0.57993 0.58106 0.0
C2945 C 0.17322 0.55353 0.56991 0.0
C2946 C 0.18823 0.54548 0.54715 0.0
C2947 C 0.18532 0.51487 0.5419 0.0
C2948 C 0.16901 0.5091 0.51524 0.0
C2949 C 0.21355 0.5008 0.54129 0.0
C2950 C 0.16882 0.50666 0.56685 0.0
C2951 C 0.16123 0.52927 0.5823 0.0
C2952 C 0.14925 0.52653 0.60818 0.0
C2953 C 0.1453 0.5 0.61869 0.0
C2954 C 0.15361 0.47668 0.6034 0.0
C2955 C 0.1647 0.48018 0.57686 0.0
H2956 H 0.1802 0.56365 0.12451 0.0
H2957 H 0.17501 0.60059 0.20575 0.0
H2958 H 0.21665 0.62862 0.19642 0.0
H2959 H 0.24875 0.55336 0.12689 0.0
H2960 H 0.25605 0.56023 0.09124 0.0
H2961 H 0.22234 0.54845 0.10105 0.0
H2962 H 0.2008 0.59109 0.0782 0.0
H2963 H 0.23458 0.60301 0.06815 0.0
H2964 H 0.2127 0.62512 0.08803 0.0
H2965 H 0.26178 0.64626 0.18214 0.0
H2966 H 0.30913 0.65074 0.16504 0.0
H2967 H 0.28708 0.60129 0.09327 0.0
C2968 C 0.1873 0.5785 0.13981 0.0
C2969 C 0.17431 0.58044 0.16565 0.0
C2970 C 0.18465 0.59911 0.18575 0.0
C2971 C 0.20813 0.61521 0.18054 0.0
C2972 C 0.22109 0.61222 0.15519 0.0
C2973 C 0.2111 0.59433 0.1351 0.0
C2974 C 0.23126 0.59174 0.11154 0.0
C2975 C 0.24012 0.56167 0.10747 0.0
C2976 C 0.2191 0.60345 0.0849 0.0
C2977 C 0.25476 0.60974 0.12227 0.0
C2978 C 0.24805 0.62195 0.14711 0.0
C2979 C 0.26713 0.63729 0.16247 0.0
C2980 C 0.29403 0.63956 0.15266 0.0
C2981 C 0.3017 0.62638 0.12782 0.0
C2982 C 0.28159 0.61203 0.11201 0.0
H2983 H 0.19823 0.47837 0.98978 0.0
H2984 H 0.25285 0.43189 0.93727 0.0
H2985 H 0.23452 0.45562 0.89647 0.0
H2986 H 0.14025 0.47784 0.94224 0.0
H2987 H 0.1302 0.51226 0.95143 0.0
H2988 H 0.14707 0.49102 0.97643 0.0
H2989 H 0.18507 0.52856 0.98382 0.0
H2990 H 0.16785 0.55008 0.95947 0.0
H2991 H 0.20346 0.54168 0.95445 0.0
H2992 H 0.21207 0.48679 0.86168 0.0
H2993 H 0.19004 0.52529 0.8371 0.0
H2994 H 0.14852 0.54857 0.91225 0.0
C2995 C 0.20647 0.47332 0.96973 0.0
C2996 C 0.22701 0.45343 0.96668 0.0
C2997 C 0.23705 0.44712 0.94004 0.0
C2998 C 0.22666 0.46033 0.91673 0.0
C2999 C 0.20595 0.47945 0.92039 0.0
C3000 C 0.19605 0.48596 0.94625 0.0
C3001 C 0.17441 0.50784 0.94482 0.0
C3002 C 0.14632 0.49655 0.95429 0.0
C3003 C 0.18324 0.53355 0.96161 0.0
C3004 C 0.17439 0.51332 0.91426 0.0
C3005 C 0.1924 0.49655 0.90034 0.0
C3006 C 0.19747 0.49967 0.87223 0.0
C3007 C 0.18468 0.52134 0.85833 0.0
C3008 C 0.16737 0.53946 0.87279 0.0
C3009 C 0.16133 0.5346 0.9007 0.0
H3010 H 0.31131 0.42194 0.77061 0.0
H3011 H 0.37034 0.38898 0.7132 0.0
H3012 H 0.33234 0.37135 0.68368 0.0
H3013 H 0.25361 0.36944 0.75878 0.0
H3014 H 0.22837 0.39616 0.76073 0.0
H3015 H 0.25961 0.39903 0.78077 0.0
H3016 H 0.26959 0.44672 0.75904 0.0
H3017 H 0.23892 0.4438 0.7384 0.0
H3018 H 0.27175 0.44948 0.72215 0.0
H3019 H 0.289 0.36557 0.65649 0.0
H3020 H 0.24336 0.37018 0.63459 0.0
H3021 H 0.21317 0.40927 0.70902 0.0
C3022 C 0.31612 0.4096 0.75266 0.0
C3023 C 0.34352 0.40606 0.74439 0.0
C3024 C 0.34931 0.39125 0.72 0.0
C3025 C 0.32789 0.38126 0.70314 0.0
C3026 C 0.30095 0.3865 0.71098 0.0
C3027 C 0.29499 0.40011 0.73533 0.0
C3028 C 0.2649 0.40726 0.73688 0.0
C3029 C 0.25079 0.39205 0.7607 0.0
C3030 C 0.26109 0.43866 0.73924 0.0
C3031 C 0.25506 0.39631 0.7093 0.0
C3032 C 0.276 0.38408 0.69479 0.0
C3033 C 0.27226 0.37455 0.66787 0.0
C3034 C 0.24634 0.37748 0.65553 0.0
C3035 C 0.22465 0.39004 0.67008 0.0
C3036 C 0.22918 0.3993 0.69738 0.0
H3037 H 0.30109 0.54968 0.43942 0.0
H3038 H 0.31932 0.52509 0.52319 0.0
H3039 H 0.3382 0.48141 0.50575 0.0
H3040 H 0.28088 0.48249 0.41388 0.0
H3041 H 0.29624 0.48774 0.38062 0.0
H3042 H 0.28382 0.51671 0.39997 0.0
H3043 H 0.33195 0.54021 0.39667 0.0
H3044 H 0.34465 0.5111 0.37769 0.0
H3045 H 0.36178 0.52232 0.40889 0.0
H3046 H 0.35406 0.44018 0.47929 0.0
H3047 H 0.36434 0.4034 0.4456 0.0
H3048 H 0.33783 0.45606 0.37913 0.0
C3049 C 0.30885 0.53502 0.45412 0.0
C3050 C 0.30873 0.54068 0.48265 0.0
C3051 C 0.31924 0.5211 0.50123 0.0
C3052 C 0.33007 0.49631 0.49153 0.0
C3053 C 0.33039 0.4916 0.46322 0.0
C3054 C 0.31995 0.51033 0.44478 0.0
C3055 C 0.32266 0.50026 0.41539 0.0
C3056 C 0.29421 0.49658 0.40167 0.0
C3057 C 0.34138 0.51963 0.39869 0.0
C3058 C 0.33612 0.47285 0.42018 0.0
C3059 C 0.34039 0.46823 0.44791 0.0
C3060 C 0.35111 0.44366 0.45751 0.0
C3061 C 0.35695 0.42296 0.43827 0.0
C3062 C 0.35229 0.42715 0.40983 0.0
C3063 C 0.34232 0.45263 0.40069 0.0
H3064 H 0.26171 0.17107 0.43813 0.0
H3065 H 0.18034 0.20657 0.43555 0.0
H3066 H 0.19494 0.23594 0.3968 0.0
H3067 H 0.29736 0.231 0.43016 0.0
H3068 H 0.32453 0.21687 0.40957 0.0
H3069 H 0.30594 0.19514 0.43293 0.0
H3070 H 0.29359 0.16177 0.39259 0.0
H3071 H 0.31197 0.18375 0.36899 0.0
H3072 H 0.27641 0.1747 0.36249 0.0
H3073 H 0.22025 0.26616 0.36383 0.0
H3074 H 0.25472 0.29714 0.34283 0.0
H3075 H 0.31945 0.24162 0.36671 0.0
C3076 C 0.24665 0.18448 0.42903 0.0
C3077 C 0.21981 0.1864 0.43985 0.0
C3078 C 0.20098 0.20463 0.42757 0.0
C3079 C 0.20903 0.22123 0.40539 0.0
C3080 C 0.23585 0.21914 0.39557 0.0
C3081 C 0.25435 0.20117 0.40704 0.0
C3082 C 0.28291 0.20531 0.39541 0.0
C3083 C 0.30389 0.21253 0.41837 0.0
C3084 C 0.29173 0.17987 0.37889 0.0
C3085 C 0.27801 0.22949 0.3767 0.0
C3086 C 0.25057 0.2367 0.37648 0.0
C3087 C 0.24165 0.26036 0.36334 0.0
C3088 C 0.26139 0.27783 0.35142 0.0
C3089 C 0.28976 0.27168 0.353 0.0
C3090 C 0.2979 0.24649 0.36452 0.0
H3091 H 0.71939 0.29178 0.53691 0.0
H3092 H 0.77236 0.3501 0.58061 0.0
H3093 H 0.79112 0.31247 0.60844 0.0
H3094 H 0.70838 0.24187 0.59523 0.0
H3095 H 0.71067 0.21246 0.57254 0.0
H3096 H 0.69698 0.24431 0.55997 0.0
H3097 H 0.73266 0.24433 0.52097 0.0
H3098 H 0.74689 0.21287 0.53324 0.0
H3099 H 0.7688 0.24285 0.52912 0.0
H3100 H 0.80854 0.26934 0.62675 0.0
H3101 H 0.82658 0.22265 0.63196 0.0
H3102 H 0.76385 0.19104 0.5756 0.0
C3103 C 0.73432 0.29651 0.55295 0.0
C3104 C 0.74431 0.32363 0.55707 0.0
C3105 C 0.76451 0.3293 0.57741 0.0
C3106 C 0.77505 0.30816 0.59345 0.0
C3107 C 0.76529 0.28146 0.58867 0.0
C3108 C 0.74552 0.27544 0.56881 0.0
C3109 C 0.74173 0.24459 0.56511 0.0
C3110 C 0.71271 0.23526 0.57374 0.0
C3111 C 0.74794 0.23565 0.53535 0.0
C3112 C 0.7633 0.23438 0.58502 0.0
C3113 C 0.77608 0.25602 0.5989 0.0
C3114 C 0.79842 0.25214 0.6164 0.0
C3115 C 0.8086 0.22556 0.6191 0.0
C3116 C 0.79661 0.20324 0.60416 0.0
C3117 C 0.77311 0.20762 0.58765 0.0
H3118 H 0.4282 0.08056 0.33591 0.0
H3119 H 0.4412 0.00147 0.29619 0.0
H3120 H 0.48541 -0.00244 0.32106 0.0
H3121 H 0.49293 0.10509 0.32805 0.0
H3122 H 0.49496 0.12362 0.36029 0.0
H3123 H 0.46212 0.1173 0.34428 0.0
H3124 H 0.44464 0.09352 0.38864 0.0
H3125 H 0.47763 0.09976 0.40485 0.0
H3126 H 0.46352 0.06526 0.40283 0.0
H3127 H 0.53098 0.00571 0.34443 0.0
H3128 H 0.57454 0.02624 0.3615 0.0
H3129 H 0.53148 0.10029 0.38523 0.0
C3130 C 0.43989 0.06203 0.33292 0.0
C3131 C 0.43114 0.04129 0.31415 0.0
C3132 C 0.44737 0.01758 0.31062 0.0
C3133 C 0.47245 0.01509 0.32477 0.0
C3134 C 0.4808 0.03635 0.34256 0.0
C3135 C 0.46488 0.05931 0.34672 0.0
C3136 C 0.47983 0.08096 0.36387 0.0
C3137 C 0.48263 0.10833 0.34817 0.0
C3138 C 0.46555 0.08511 0.3917 0.0
C3139 C 0.50728 0.06729 0.36746 0.0
C3140 C 0.50725 0.04127 0.3557 0.0
C3141 C 0.53109 0.02583 0.35418 0.0
C3142 C 0.55578 0.0377 0.36396 0.0
C3143 C 0.55646 0.06496 0.37467 0.0
C3144 C 0.53164 0.07936 0.37739 0.0
H3145 H 0.74692 0.71244 0.04079 0.0
H3146 H 0.7049 0.63947 0.07123 0.0
H3147 H 0.66993 0.66848 0.09321 0.0
H3148 H 0.7326 0.75808 0.09984 0.0
H3149 H 0.72714 0.78744 0.07812 0.0
H3150 H 0.75047 0.76098 0.06754 0.0
H3151 H 0.72321 0.75499 0.02181 0.0
H3152 H 0.69952 0.78107 0.03244 0.0
H3153 H 0.68686 0.74723 0.02287 0.0
H3154 H 0.63774 0.70492 0.10883 0.0
H3155 H 0.61179 0.74705 0.11935 0.0
H3156 H 0.67417 0.79591 0.0774 0.0
C3157 C 0.73081 0.70274 0.05281 0.0
C3158 C 0.72864 0.67389 0.05474 0.0
C3159 C 0.70686 0.66166 0.06979 0.0
C3160 C 0.68692 0.67791 0.08227 0.0
C3161 C 0.68903 0.70631 0.07929 0.0
C3162 C 0.71048 0.71867 0.0651 0.0
C3163 C 0.70689 0.74946 0.06345 0.0
C3164 C 0.73068 0.7649 0.07812 0.0
C3165 C 0.70394 0.75872 0.03336 0.0
C3166 C 0.68014 0.75237 0.07891 0.0
C3167 C 0.67014 0.72728 0.08787 0.0
C3168 C 0.64542 0.72479 0.10212 0.0
C3169 C 0.63074 0.74877 0.10784 0.0
C3170 C 0.64094 0.77478 0.09931 0.0
C3171 C 0.66583 0.77639 0.08441 0.0
H3172 H 0.54631 0.46057 0.33851 0.0
H3173 H 0.5836 0.40708 0.27773 0.0
H3174 H 0.55085 0.36991 0.29002 0.0
H3175 H 0.52719 0.40502 0.3893 0.0
H3176 H 0.49544 0.42191 0.39733 0.0
H3177 H 0.52544 0.44204 0.3881 0.0
H3178 H 0.49766 0.46518 0.34912 0.0
H3179 H 0.46775 0.44525 0.35824 0.0
H3180 H 0.48057 0.44386 0.32352 0.0
H3181 H 0.50947 0.34163 0.30315 0.0
H3182 H 0.46225 0.32604 0.31426 0.0
H3183 H 0.45236 0.39806 0.36639 0.0
C3184 C 0.54817 0.44082 0.32829 0.0
C3185 C 0.56757 0.43679 0.30717 0.0
C3186 C 0.56898 0.41069 0.29406 0.0
C3187 C 0.55057 0.38935 0.30102 0.0
C3188 C 0.53113 0.39433 0.32138 0.0
C3189 C 0.52999 0.41941 0.33496 0.0
C3190 C 0.50513 0.42092 0.35341 0.0
C3191 C 0.51383 0.42256 0.38384 0.0
C3192 C 0.4867 0.44522 0.34558 0.0
C3193 C 0.49147 0.3935 0.34674 0.0
C3194 C 0.50713 0.37805 0.32886 0.0
C3195 C 0.49733 0.35322 0.31766 0.0
C3196 C 0.47049 0.34449 0.32412 0.0
C3197 C 0.45372 0.36086 0.34122 0.0
C3198 C 0.46482 0.38504 0.35344 0.0
H3199 H 0.16974 0.83775 0.94105 0.0
H3200 H 0.25839 0.82979 0.94659 0.0
H3201 H 0.25589 0.78908 0.91605 0.0
H3202 H 0.15479 0.76798 0.9461 0.0
H3203 H 0.12598 0.76768 0.92259 0.0
H3204 H 0.13502 0.79867 0.94121 0.0
H3205 H 0.13909 0.82515 0.89524 0.0
H3206 H 0.1301 0.79411 0.87644 0.0
H3207 H 0.16155 0.81256 0.86872 0.0
H3208 H 0.24373 0.74716 0.88888 0.0
H3209 H 0.22246 0.70489 0.86959 0.0
H3210 H 0.14145 0.73908 0.88252 0.0
C3211 C 0.18866 0.82781 0.93527 0.0
C3212 C 0.21426 0.83701 0.946 0.0
C3213 C 0.23854 0.82307 0.93858 0.0
C3214 C 0.23737 0.80007 0.92108 0.0
C3215 C 0.21177 0.79123 0.91119 0.0
C3216 C 0.18782 0.80457 0.91806 0.0
C3217 C 0.16275 0.78909 0.90709 0.0
C3218 C 0.14352 0.78033 0.93065 0.0
C3219 C 0.14748 0.80626 0.88559 0.0
C3220 C 0.17633 0.76451 0.89385 0.0
C3221 C 0.20464 0.76647 0.89593 0.0
C3222 C 0.2216 0.74551 0.88679 0.0
C3223 C 0.20928 0.72153 0.87589 0.0
C3224 C 0.18024 0.71858 0.87453 0.0
C3225 C 0.16368 0.74074 0.88299 0.0
H3226 H 0.45099 0.00366 0.20949 0.0
H3227 H 0.38112 0.9471 0.20653 0.0
H3228 H 0.41052 0.91095 0.18704 0.0
H3229 H 0.48679 0.9774 0.14687 0.0
H3230 H 0.52017 0.98165 0.16279 0.0
H3231 H 0.49271 0.00442 0.17196 0.0
H3232 H 0.49932 0.99183 0.22331 0.0
H3233 H 0.52653 0.96884 0.21428 0.0
H3234 H 0.49732 0.9562 0.23338 0.0
H3235 H 0.44813 0.87976 0.17198 0.0
H3236 H 0.49169 0.85551 0.16359 0.0
H3237 H 0.53724 0.93181 0.1788 0.0
C3238 C 0.44179 0.98393 0.20387 0.0
C3239 C 0.41384 0.97815 0.20911 0.0
C3240 C 0.40255 0.95187 0.20246 0.0
C3241 C 0.41903 0.93127 0.19131 0.0
C3242 C 0.44677 0.93727 0.18714 0.0
C3243 C 0.4581 0.96296 0.19317 0.0
C3244 C 0.48898 0.96316 0.18956 0.0
C3245 C 0.49767 0.98282 0.16641 0.0
C3246 C 0.5039 0.97043 0.21675 0.0
C3247 C 0.49326 0.93343 0.18136 0.0
C3248 C 0.46865 0.91895 0.17956 0.0
C3249 C 0.46755 0.89093 0.17309 0.0
C3250 C 0.49235 0.87732 0.16842 0.0
C3251 C 0.51782 0.89171 0.17075 0.0
C3252 C 0.51811 0.92016 0.17709 0.0
H3253 H 0.03744 0.05188 0.70643 0.0
H3254 H 0.03302 0.97443 0.66124 0.0
H3255 H 0.99562 0.99237 0.63256 0.0
H3256 H 0.96474 0.0614 0.70869 0.0
H3257 H 0.96687 0.09829 0.70521 0.0
H3258 H 0.99483 0.08011 0.72078 0.0
H3259 H 0.02829 0.10173 0.68528 0.0
H3260 H 0.00019 0.11951 0.66932 0.0
H3261 H 0.02145 0.09718 0.649 0.0
H3262 H 0.95836 0.01709 0.61002 0.0
H3263 H 0.91827 0.04528 0.5987 0.0
H3264 H 0.94512 0.10684 0.65865 0.0
C3265 C 0.0286 0.03883 0.6904 0.0
C3266 C 0.03813 0.01186 0.68589 0.0
C3267 C 0.02593 0.99513 0.66506 0.0
C3268 C 0.00489 0.00523 0.64847 0.0
C3269 C 0.99617 0.03198 0.65314 0.0
C3270 C 0.00721 0.04845 0.67386 0.0
C3271 C 0.9923 0.07558 0.67589 0.0
C3272 C 0.97889 0.07903 0.70432 0.0
C3273 C 0.01172 0.09994 0.66948 0.0
C3274 C 0.9709 0.07145 0.65337 0.0
C3275 C 0.97396 0.04634 0.64023 0.0
C3276 C 0.95582 0.03692 0.61991 0.0
C3277 C 0.93319 0.05306 0.6136 0.0
C3278 C 0.9289 0.07824 0.62764 0.0
C3279 C 0.94842 0.088 0.64714 0.0
loop_
_geom_bond_atom_site_label_1
_geom_bond_atom_site_label_2
_geom_bond_distance
_geom_bond_site_symmetry_2
_ccdc_geom_bond_type
Co0 O1 2.216 1_655 S
Co0 O2 2.091 . S
Co0 O4 2.004 . S
Co0 O10 2.021 1_655 S
Co0 O12 2.140 . S
Co0 O13 2.244 1_655 S
O1 Co0 2.216 1_455 S
O1 C8 1.247 1_455 S
O2 Co0 2.091 . S
O2 C8 1.261 . S
C3 O12 1.221 1_455 S
C3 O13 1.272 . S
O4 Co0 2.004 . S
O4 C9 1.259 . S
Co5 O6 2.061 . S
Co5 O11 2.052 . S
Co5 O13 2.135 . S
O6 Co5 2.061 . S
O6 C9 1.235 1_455 S
C7 O10 1.238 . S
C7 O11 1.241 . S
C8 O1 1.247 1_655 S
C8 O2 1.261 . S
C9 O4 1.259 . S
C9 O6 1.235 1_655 S
O10 Co0 2.021 1_455 S
O10 C7 1.238 . S
O11 Co5 2.052 . S
O11 C7 1.241 . S
O12 Co0 2.140 . S
O12 C3 1.221 1_655 S
O13 Co0 2.244 1_455 S
O13 C3 1.272 . S
O13 Co5 2.135 . S
Co14 O15 2.216 . S
Co14 O16 2.091 . S
Co14 O18 2.004 1_655 S
Co14 O24 2.021 1_655 S
Co14 O26 2.137 . S
Co14 O27 2.244 . S
O15 Co14 2.216 . S
O15 C22 1.247 . S
O16 Co14 2.091 . S
O16 C22 1.261 . S
C17 O26 1.247 . S
C17 O27 1.272 . S
O18 Co14 2.004 1_455 S
O18 C23 1.259 . S
Co19 O20 2.061 . S
Co19 O25 2.052 . S
Co19 O27 2.135 1_455 S
O20 Co19 2.061 . S
O20 C23 1.235 . S
C21 O24 1.238 . S
C21 O25 1.241 . S
C22 O15 1.247 . S
C22 O16 1.261 . S
C23 O18 1.259 . S
C23 O20 1.235 . S
O24 Co14 2.021 1_455 S
O24 C21 1.238 . S
O25 Co19 2.052 . S
O25 C21 1.241 . S
O26 Co14 2.137 . S
O26 C17 1.247 . S
O27 Co14 2.244 . S
O27 C17 1.272 . S
O27 Co19 2.135 1_655 S
Co28 O29 2.216 . S
Co28 O30 2.091 . S
Co28 O32 2.004 . S
Co28 O38 2.021 . S
Co28 O40 2.137 . S
Co28 O41 2.244 . S
O29 Co28 2.216 . S
O29 C36 1.247 . S
O30 Co28 2.091 . S
O30 C36 1.261 . S
C31 O40 1.247 . S
C31 O41 1.272 . S
O32 Co28 2.004 . S
O32 C37 1.259 . S
Co33 O34 2.061 . S
Co33 O39 2.052 . S
Co33 O41 2.135 . S
O34 Co33 2.061 . S
O34 C37 1.235 . S
C35 O38 1.238 . S
C35 O39 1.241 . S
C36 O29 1.247 . S
C36 O30 1.261 . S
C37 O32 1.259 . S
C37 O34 1.235 . S
O38 Co28 2.021 . S
O38 C35 1.238 . S
O39 Co33 2.052 . S
O39 C35 1.241 . S
O40 Co28 2.137 . S
O40 C31 1.247 . S
O41 Co28 2.244 . S
O41 C31 1.272 . S
O41 Co33 2.135 . S
Co42 O43 2.216 . S
Co42 O44 2.091 . S
Co42 O46 2.004 . S
Co42 O52 2.021 . S
Co42 O54 2.137 . S
Co42 O55 2.244 . S
O43 Co42 2.216 . S
O43 C50 1.247 . S
O44 Co42 2.091 . S
O44 C50 1.261 . S
C45 O54 1.247 . S
C45 O55 1.272 . S
O46 Co42 2.004 . S
O46 C51 1.259 . S
Co47 O48 2.061 . S
Co47 O53 2.052 . S
Co47 O55 2.135 . S
O48 Co47 2.061 . S
O48 C51 1.235 . S
C49 O52 1.238 . S
C49 O53 1.241 . S
C50 O43 1.247 . S
C50 O44 1.261 . S
C51 O46 1.259 . S
C51 O48 1.235 . S
O52 Co42 2.021 . S
O52 C49 1.238 . S
O53 Co47 2.052 . S
O53 C49 1.241 . S
O54 Co42 2.137 . S
O54 C45 1.247 . S
O55 Co42 2.244 . S
O55 C45 1.272 . S
O55 Co47 2.135 . S
Co56 O57 2.216 1_655 S
Co56 O58 2.091 . S
Co56 O60 2.004 . S
Co56 O66 2.021 1_655 S
Co56 O68 2.137 . S
Co56 O69 2.244 1_655 S
O57 Co56 2.216 1_455 S
O57 C64 1.247 1_455 S
O58 Co56 2.091 . S
O58 C64 1.261 . S
C59 O68 1.247 1_455 S
C59 O69 1.272 . S
O60 Co56 2.004 . S
O60 C65 1.259 . S
Co61 O62 2.061 . S
Co61 O67 2.052 . S
Co61 O69 2.135 . S
O62 Co61 2.061 . S
O62 C65 1.235 1_455 S
C63 O66 1.238 . S
C63 O67 1.241 . S
C64 O57 1.247 1_655 S
C64 O58 1.261 . S
C65 O60 1.259 . S
C65 O62 1.235 1_655 S
O66 Co56 2.021 1_455 S
O66 C63 1.238 . S
O67 Co61 2.052 . S
O67 C63 1.241 . S
O68 Co56 2.137 . S
O68 C59 1.247 1_655 S
O69 Co56 2.244 1_455 S
O69 C59 1.272 . S
O69 Co61 2.135 . S
Co70 O71 2.216 . S
Co70 O72 2.091 . S
Co70 O74 2.004 . S
Co70 O80 2.021 . S
Co70 O82 2.137 . S
Co70 O83 2.244 . S
O71 Co70 2.216 . S
O71 C78 1.247 . S
O72 Co70 2.091 . S
O72 C78 1.261 . S
C73 O82 1.247 . S
C73 O83 1.272 . S
O74 Co70 2.004 . S
O74 C79 1.259 . S
Co75 O76 2.061 . S
Co75 O81 2.052 . S
Co75 O83 2.135 . S
O76 Co75 2.061 . S
O76 C79 1.235 . S
C77 O80 1.238 . S
C77 O81 1.241 . S
C78 O71 1.247 . S
C78 O72 1.261 . S
C79 O74 1.259 . S
C79 O76 1.235 . S
O80 Co70 2.021 . S
O80 C77 1.238 . S
O81 Co75 2.052 . S
O81 C77 1.241 . S
O82 Co70 2.137 . S
O82 C73 1.247 . S
O83 Co70 2.244 . S
O83 C73 1.272 . S
O83 Co75 2.135 . S
Co84 O85 2.216 . S
Co84 O86 2.091 . S
Co84 O88 2.004 . S
Co84 O94 2.021 . S
Co84 O96 2.137 . S
Co84 O97 2.244 . S
O85 Co84 2.216 . S
O85 C92 1.247 . S
O86 Co84 2.091 . S
O86 C92 1.261 . S
C87 O96 1.247 . S
C87 O97 1.272 . S
O88 Co84 2.004 . S
O88 C93 1.259 . S
Co89 O90 2.061 . S
Co89 O95 2.052 . S
Co89 O97 2.135 . S
O90 Co89 2.061 . S
O90 C93 1.235 . S
C91 O94 1.238 . S
C91 O95 1.241 . S
C92 O85 1.247 . S
C92 O86 1.261 . S
C93 O88 1.259 . S
C93 O90 1.235 . S
O94 Co84 2.021 . S
O94 C91 1.238 . S
O95 Co89 2.052 . S
O95 C91 1.241 . S
O96 Co84 2.137 . S
O96 C87 1.247 . S
O97 Co84 2.244 . S
O97 C87 1.272 . S
O97 Co89 2.135 . S
Co98 O99 2.216 . S
Co98 O100 2.091 . S
Co98 O102 2.004 1_655 S
Co98 O108 2.021 1_655 S
Co98 O110 2.137 . S
Co98 O111 2.244 . S
O99 Co98 2.216 . S
O99 C106 1.247 . S
O100 Co98 2.091 . S
O100 C106 1.261 . S
C101 O110 1.247 . S
C101 O111 1.272 . S
O102 Co98 2.004 1_455 S
O102 C107 1.259 . S
Co103 O104 2.061 . S
Co103 O109 2.052 . S
Co103 O111 2.135 1_455 S
O104 Co103 2.061 . S
O104 C107 1.235 . S
C105 O108 1.238 . S
C105 O109 1.241 . S
C106 O99 1.247 . S
C106 O100 1.261 . S
C107 O102 1.259 . S
C107 O104 1.235 . S
O108 Co98 2.021 1_455 S
O108 C105 1.238 . S
O109 Co103 2.052 . S
O109 C105 1.241 . S
O110 Co98 2.137 . S
O110 C101 1.247 . S
O111 Co98 2.244 . S
O111 C101 1.272 . S
O111 Co103 2.135 1_655 S
Co112 O113 2.216 1_565 S
Co112 O114 2.091 . S
Co112 O116 2.004 . S
Co112 O122 2.021 1_565 S
Co112 O124 2.138 . S
Co112 O125 2.244 1_565 S
O113 Co112 2.216 1_545 S
O113 C120 1.247 1_545 S
O114 Co112 2.091 . S
O114 C120 1.261 . S
C115 O124 1.241 1_545 S
C115 O125 1.272 . S
O116 Co112 2.004 . S
O116 C121 1.259 . S
Co117 O118 2.061 . S
Co117 O123 2.052 . S
Co117 O125 2.135 . S
O118 Co117 2.061 . S
O118 C121 1.235 1_545 S
C119 O122 1.238 . S
C119 O123 1.241 . S
C120 O113 1.247 1_565 S
C120 O114 1.261 . S
C121 O116 1.259 . S
C121 O118 1.235 1_565 S
O122 Co112 2.021 1_545 S
O122 C119 1.238 . S
O123 Co117 2.052 . S
O123 C119 1.241 . S
O124 Co112 2.138 . S
O124 C115 1.241 1_565 S
O125 Co112 2.244 1_545 S
O125 C115 1.272 . S
O125 Co117 2.135 . S
Co126 O127 2.216 . S
Co126 O128 2.091 . S
Co126 O130 2.004 . S
Co126 O136 2.021 . S
Co126 O138 2.137 . S
Co126 O139 2.244 . S
O127 Co126 2.216 . S
O127 C134 1.247 . S
O128 Co126 2.091 . S
O128 C134 1.261 . S
C129 O138 1.247 . S
C129 O139 1.272 . S
O130 Co126 2.004 . S
O130 C135 1.259 . S
Co131 O132 2.061 . S
Co131 O137 2.052 . S
Co131 O139 2.135 . S
O132 Co131 2.061 . S
O132 C135 1.235 . S
C133 O136 1.238 . S
C133 O137 1.241 . S
C134 O127 1.247 . S
C134 O128 1.261 . S
C135 O130 1.259 . S
C135 O132 1.235 . S
O136 Co126 2.021 . S
O136 C133 1.238 . S
O137 Co131 2.052 . S
O137 C133 1.241 . S
O138 Co126 2.137 . S
O138 C129 1.247 . S
O139 Co126 2.244 . S
O139 C129 1.272 . S
O139 Co131 2.135 . S
Co140 O141 2.216 1_565 S
Co140 O142 2.091 . S
Co140 O144 2.004 . S
Co140 O150 2.021 1_565 S
Co140 O152 2.137 . S
Co140 O153 2.244 1_565 S
O141 Co140 2.216 1_545 S
O141 C148 1.247 1_545 S
O142 Co140 2.091 . S
O142 C148 1.261 . S
C143 O152 1.247 1_545 S
C143 O153 1.272 . S
O144 Co140 2.004 . S
O144 C149 1.259 . S
Co145 O146 2.061 . S
Co145 O151 2.052 . S
Co145 O153 2.135 . S
O146 Co145 2.061 . S
O146 C149 1.235 1_545 S
C147 O150 1.238 . S
C147 O151 1.241 . S
C148 O141 1.247 1_565 S
C148 O142 1.261 . S
C149 O144 1.259 . S
C149 O146 1.235 1_565 S
O150 Co140 2.021 1_545 S
O150 C147 1.238 . S
O151 Co145 2.052 . S
O151 C147 1.241 . S
O152 Co140 2.137 . S
O152 C143 1.247 1_565 S
O153 Co140 2.244 1_545 S
O153 C143 1.272 . S
O153 Co145 2.135 . S
Co154 O155 2.216 . S
Co154 O156 2.091 . S
Co154 O158 2.004 1_554 S
Co154 O164 2.021 1_554 S
Co154 O166 2.137 . S
Co154 O167 2.244 . S
O155 Co154 2.216 . S
O155 C162 1.247 . S
O156 Co154 2.091 . S
O156 C162 1.261 . S
C157 O166 1.247 . S
C157 O167 1.272 . S
O158 Co154 2.004 1_556 S
O158 C163 1.259 . S
Co159 O160 2.061 . S
Co159 O165 2.052 . S
Co159 O167 2.135 1_556 S
O160 Co159 2.061 . S
O160 C163 1.235 . S
C161 O164 1.238 . S
C161 O165 1.241 . S
C162 O155 1.247 . S
C162 O156 1.261 . S
C163 O158 1.259 . S
C163 O160 1.235 . S
O164 Co154 2.021 1_556 S
O164 C161 1.238 . S
O165 Co159 2.052 . S
O165 C161 1.241 . S
O166 Co154 2.137 . S
O166 C157 1.247 . S
O167 Co154 2.244 . S
O167 C157 1.272 . S
O167 Co159 2.135 1_554 S
Co168 O169 2.216 1_556 S
Co168 O170 2.091 . S
Co168 O172 2.004 . S
Co168 O178 2.021 1_556 S
Co168 O180 2.137 . S
Co168 O181 2.244 1_556 S
O169 Co168 2.216 1_554 S
O169 C176 1.247 1_554 S
O170 Co168 2.091 . S
O170 C176 1.261 . S
C171 O180 1.247 1_554 S
C171 O181 1.272 . S
O172 Co168 2.004 . S
O172 C177 1.259 . S
Co173 O174 2.061 . S
Co173 O179 2.052 . S
Co173 O181 2.135 . S
O174 Co173 2.061 . S
O174 C177 1.235 1_554 S
C175 O178 1.238 . S
C175 O179 1.241 . S
C176 O169 1.247 1_556 S
C176 O170 1.261 . S
C177 O172 1.259 . S
C177 O174 1.235 1_556 S
O178 Co168 2.021 1_554 S
O178 C175 1.238 . S
O179 Co173 2.052 . S
O179 C175 1.241 . S
O180 Co168 2.137 . S
O180 C171 1.247 1_556 S
O181 Co168 2.244 1_554 S
O181 C171 1.272 . S
O181 Co173 2.135 . S
Co182 O183 2.216 1_556 S
Co182 O184 2.091 . S
Co182 O186 2.004 . S
Co182 O192 2.021 1_556 S
Co182 O194 2.137 . S
Co182 O195 2.244 1_556 S
O183 Co182 2.216 1_554 S
O183 C190 1.247 1_554 S
O184 Co182 2.091 . S
O184 C190 1.261 . S
C185 O194 1.247 1_554 S
C185 O195 1.272 . S
O186 Co182 2.004 . S
O186 C191 1.259 . S
Co187 O188 2.061 . S
Co187 O193 2.052 . S
Co187 O195 2.135 . S
O188 Co187 2.061 . S
O188 C191 1.235 1_554 S
C189 O192 1.238 . S
C189 O193 1.241 . S
C190 O183 1.247 1_556 S
C190 O184 1.261 . S
C191 O186 1.259 . S
C191 O188 1.235 1_556 S
O192 Co182 2.021 1_554 S
O192 C189 1.238 . S
O193 Co187 2.052 . S
O193 C189 1.241 . S
O194 Co182 2.137 . S
O194 C185 1.247 1_556 S
O195 Co182 2.244 1_554 S
O195 C185 1.272 . S
O195 Co187 2.135 . S
Co196 O197 2.216 . S
Co196 O198 2.091 . S
Co196 O200 2.004 . S
Co196 O206 2.021 . S
Co196 O208 2.137 . S
Co196 O209 2.244 . S
O197 Co196 2.216 . S
O197 C204 1.247 . S
O198 Co196 2.091 . S
O198 C204 1.261 . S
C199 O208 1.247 . S
C199 O209 1.272 . S
O200 Co196 2.004 . S
O200 C205 1.259 . S
Co201 O202 2.061 . S
Co201 O207 2.052 . S
Co201 O209 2.135 . S
O202 Co201 2.061 . S
O202 C205 1.235 . S
C203 O206 1.238 . S
C203 O207 1.241 . S
C204 O197 1.247 . S
C204 O198 1.261 . S
C205 O200 1.259 . S
C205 O202 1.235 . S
O206 Co196 2.021 . S
O206 C203 1.238 . S
O207 Co201 2.052 . S
O207 C203 1.241 . S
O208 Co196 2.137 . S
O208 C199 1.247 . S
O209 Co196 2.244 . S
O209 C199 1.272 . S
O209 Co201 2.135 . S
Co210 O211 2.216 . S
Co210 O212 2.091 . S
Co210 O214 2.004 . S
Co210 O220 2.021 . S
Co210 O222 2.137 . S
Co210 O223 2.244 . S
O211 Co210 2.216 . S
O211 C218 1.247 . S
O212 Co210 2.091 . S
O212 C218 1.261 . S
C213 O222 1.247 . S
C213 O223 1.272 . S
O214 Co210 2.004 . S
O214 C219 1.259 . S
Co215 O216 2.061 . S
Co215 O221 2.052 . S
Co215 O223 2.135 . S
O216 Co215 2.061 . S
O216 C219 1.235 . S
C217 O220 1.238 . S
C217 O221 1.241 . S
C218 O211 1.247 . S
C218 O212 1.261 . S
C219 O214 1.259 . S
C219 O216 1.235 . S
O220 Co210 2.021 . S
O220 C217 1.238 . S
O221 Co215 2.052 . S
O221 C217 1.241 . S
O222 Co210 2.137 . S
O222 C213 1.247 . S
O223 Co210 2.244 . S
O223 C213 1.272 . S
O223 Co215 2.135 . S
Co224 O225 2.216 . S
Co224 O226 2.091 . S
Co224 O228 2.004 1_565 S
Co224 O234 2.021 1_565 S
Co224 O236 2.137 . S
Co224 O237 2.244 . S
O225 Co224 2.216 . S
O225 C232 1.247 . S
O226 Co224 2.091 . S
O226 C232 1.261 . S
C227 O236 1.247 . S
C227 O237 1.272 . S
O228 Co224 2.004 1_545 S
O228 C233 1.259 . S
Co229 O230 2.061 . S
Co229 O235 2.052 . S
Co229 O237 2.135 1_545 S
O230 Co229 2.061 . S
O230 C233 1.235 . S
C231 O234 1.238 . S
C231 O235 1.241 . S
C232 O225 1.247 . S
C232 O226 1.261 . S
C233 O228 1.259 . S
C233 O230 1.235 . S
O234 Co224 2.021 1_545 S
O234 C231 1.238 . S
O235 Co229 2.052 . S
O235 C231 1.241 . S
O236 Co224 2.137 . S
O236 C227 1.247 . S
O237 Co224 2.244 . S
O237 C227 1.272 . S
O237 Co229 2.135 1_565 S
Co238 O239 2.216 . S
Co238 O240 2.091 . S
Co238 O242 2.004 . S
Co238 O248 2.021 . S
Co238 O250 2.137 . S
Co238 O251 2.244 . S
O239 Co238 2.216 . S
O239 C246 1.247 . S
O240 Co238 2.091 . S
O240 C246 1.261 . S
C241 O250 1.247 . S
C241 O251 1.272 . S
O242 Co238 2.004 . S
O242 C247 1.259 . S
Co243 O244 2.061 . S
Co243 O249 2.052 . S
Co243 O251 2.135 . S
O244 Co243 2.061 . S
O244 C247 1.235 . S
C245 O248 1.238 . S
C245 O249 1.241 . S
C246 O239 1.247 . S
C246 O240 1.261 . S
C247 O242 1.259 . S
C247 O244 1.235 . S
O248 Co238 2.021 . S
O248 C245 1.238 . S
O249 Co243 2.052 . S
O249 C245 1.241 . S
O250 Co238 2.137 . S
O250 C241 1.247 . S
O251 Co238 2.244 . S
O251 C241 1.272 . S
O251 Co243 2.135 . S
Co252 O253 2.216 . S
Co252 O254 2.091 . S
Co252 O256 2.004 . S
Co252 O262 2.021 . S
Co252 O264 2.137 . S
Co252 O265 2.244 . S
O253 Co252 2.216 . S
O253 C260 1.247 . S
O254 Co252 2.091 . S
O254 C260 1.261 . S
C255 O264 1.247 . S
C255 O265 1.272 . S
O256 Co252 2.004 . S
O256 C261 1.259 . S
Co257 O258 2.061 . S
Co257 O263 2.052 . S
Co257 O265 2.135 . S
O258 Co257 2.061 . S
O258 C261 1.235 . S
C259 O262 1.238 . S
C259 O263 1.241 . S
C260 O253 1.247 . S
C260 O254 1.261 . S
C261 O256 1.259 . S
C261 O258 1.235 . S
O262 Co252 2.021 . S
O262 C259 1.238 . S
O263 Co257 2.052 . S
O263 C259 1.241 . S
O264 Co252 2.137 . S
O264 C255 1.247 . S
O265 Co252 2.244 . S
O265 C255 1.272 . S
O265 Co257 2.135 . S
Co266 O267 2.216 . S
Co266 O268 2.091 . S
Co266 O270 2.004 1_565 S
Co266 O276 2.021 1_565 S
Co266 O278 2.137 . S
Co266 O279 2.244 . S
O267 Co266 2.216 . S
O267 C274 1.247 . S
O268 Co266 2.091 . S
O268 C274 1.261 . S
C269 O278 1.247 . S
C269 O279 1.272 . S
O270 Co266 2.004 1_545 S
O270 C275 1.259 . S
Co271 O272 2.061 . S
Co271 O277 2.052 . S
Co271 O279 2.135 1_545 S
O272 Co271 2.061 . S
O272 C275 1.235 . S
C273 O276 1.238 . S
C273 O277 1.241 . S
C274 O267 1.247 . S
C274 O268 1.261 . S
C275 O270 1.259 . S
C275 O272 1.235 . S
O276 Co266 2.021 1_545 S
O276 C273 1.238 . S
O277 Co271 2.052 . S
O277 C273 1.241 . S
O278 Co266 2.137 . S
O278 C269 1.247 . S
O279 Co266 2.244 . S
O279 C269 1.272 . S
O279 Co271 2.135 1_565 S
Co280 O281 2.216 . S
Co280 O282 2.091 . S
Co280 O284 2.004 1_554 S
Co280 O290 2.021 1_554 S
Co280 O292 2.137 . S
Co280 O293 2.244 . S
O281 Co280 2.216 . S
O281 C288 1.247 . S
O282 Co280 2.091 . S
O282 C288 1.261 . S
C283 O292 1.247 . S
C283 O293 1.272 . S
O284 Co280 2.004 1_556 S
O284 C289 1.259 . S
Co285 O286 2.061 . S
Co285 O291 2.052 . S
Co285 O293 2.135 1_556 S
O286 Co285 2.061 . S
O286 C289 1.235 . S
C287 O290 1.238 . S
C287 O291 1.241 . S
C288 O281 1.247 . S
C288 O282 1.261 . S
C289 O284 1.259 . S
C289 O286 1.235 . S
O290 Co280 2.021 1_556 S
O290 C287 1.238 . S
O291 Co285 2.052 . S
O291 C287 1.241 . S
O292 Co280 2.137 . S
O292 C283 1.247 . S
O293 Co280 2.244 . S
O293 C283 1.272 . S
O293 Co285 2.135 1_554 S
Co294 O295 2.216 . S
Co294 O296 2.091 . S
Co294 O298 2.004 . S
Co294 O304 2.021 . S
Co294 O306 2.137 . S
Co294 O307 2.244 . S
O295 Co294 2.216 . S
O295 C302 1.247 . S
O296 Co294 2.091 . S
O296 C302 1.261 . S
C297 O306 1.247 . S
C297 O307 1.272 . S
O298 Co294 2.004 . S
O298 C303 1.259 . S
Co299 O300 2.061 . S
Co299 O305 2.052 . S
Co299 O307 2.135 . S
O300 Co299 2.061 . S
O300 C303 1.235 . S
C301 O304 1.238 . S
C301 O305 1.241 . S
C302 O295 1.247 . S
C302 O296 1.261 . S
C303 O298 1.259 . S
C303 O300 1.235 . S
O304 Co294 2.021 . S
O304 C301 1.238 . S
O305 Co299 2.052 . S
O305 C301 1.241 . S
O306 Co294 2.137 . S
O306 C297 1.247 . S
O307 Co294 2.244 . S
O307 C297 1.272 . S
O307 Co299 2.135 . S
Co308 O309 2.216 . S
Co308 O310 2.091 . S
Co308 O312 2.004 . S
Co308 O318 2.021 . S
Co308 O320 2.137 . S
Co308 O321 2.244 . S
O309 Co308 2.216 . S
O309 C316 1.247 . S
O310 Co308 2.091 . S
O310 C316 1.261 . S
C311 O320 1.247 . S
C311 O321 1.272 . S
O312 Co308 2.004 . S
O312 C317 1.259 . S
Co313 O314 2.061 . S
Co313 O319 2.052 . S
Co313 O321 2.135 . S
O314 Co313 2.061 . S
O314 C317 1.235 . S
C315 O318 1.238 . S
C315 O319 1.241 . S
C316 O309 1.247 . S
C316 O310 1.261 . S
C317 O312 1.259 . S
C317 O314 1.235 . S
O318 Co308 2.021 . S
O318 C315 1.238 . S
O319 Co313 2.052 . S
O319 C315 1.241 . S
O320 Co308 2.137 . S
O320 C311 1.247 . S
O321 Co308 2.244 . S
O321 C311 1.272 . S
O321 Co313 2.135 . S
Co322 O323 2.216 . S
Co322 O324 2.091 . S
Co322 O326 2.004 . S
Co322 O332 2.021 . S
Co322 O334 2.137 . S
Co322 O335 2.244 . S
O323 Co322 2.216 . S
O323 C330 1.247 . S
O324 Co322 2.091 . S
O324 C330 1.261 . S
C325 O334 1.247 . S
C325 O335 1.272 . S
O326 Co322 2.004 . S
O326 C331 1.259 . S
Co327 O328 2.061 . S
Co327 O333 2.052 . S
Co327 O335 2.135 . S
O328 Co327 2.061 . S
O328 C331 1.235 . S
C329 O332 1.238 . S
C329 O333 1.241 . S
C330 O323 1.247 . S
C330 O324 1.261 . S
C331 O326 1.259 . S
C331 O328 1.235 . S
O332 Co322 2.021 . S
O332 C329 1.238 . S
O333 Co327 2.052 . S
O333 C329 1.241 . S
O334 Co322 2.137 . S
O334 C325 1.247 . S
O335 Co322 2.244 . S
O335 C325 1.272 . S
O335 Co327 2.135 . S
Sc336 O339 2.025 . S
Sc336 O346 2.105 . S
Sc336 O349 2.105 . S
Sc336 O352 2.105 . S
Sc336 O355 2.105 . S
Sc337 O339 2.025 . S
Sc337 O347 2.105 . S
Sc337 O351 2.105 . S
Sc337 O353 2.105 . S
Sc337 O357 2.105 . S
Sc338 O339 2.025 . S
Sc338 O348 2.105 . S
Sc338 O350 2.105 . S
Sc338 O354 2.105 . S
Sc338 O356 2.105 . S
O339 Sc336 2.025 . S
O339 Sc337 2.025 . S
O339 Sc338 2.025 . S
C340 O346 1.268 . S
C340 O356 1.268 . S
C341 O347 1.268 . S
C341 O355 1.268 . S
C342 O348 1.268 . S
C342 O357 1.268 . S
C343 O349 1.268 . S
C343 O353 1.268 . S
C344 O350 1.268 . S
C344 O352 1.268 . S
C345 O351 1.268 . S
C345 O354 1.268 . S
O346 Sc336 2.105 . S
O346 C340 1.268 . S
O347 Sc337 2.105 . S
O347 C341 1.268 . S
O348 Sc338 2.105 . S
O348 C342 1.268 . S
O349 Sc336 2.105 . S
O349 C343 1.268 . S
O350 Sc338 2.105 . S
O350 C344 1.268 . S
O351 Sc337 2.105 . S
O351 C345 1.268 . S
O352 Sc336 2.105 . S
O352 C344 1.268 . S
O353 Sc337 2.105 . S
O353 C343 1.268 . S
O354 Sc338 2.105 . S
O354 C345 1.268 . S
O355 Sc336 2.105 . S
O355 C341 1.268 . S
O356 Sc338 2.105 . S
O356 C340 1.268 . S
O357 Sc337 2.105 . S
O357 C342 1.268 . S
Sc358 O361 2.025 . S
Sc358 O368 2.105 . S
Sc358 O371 2.105 . S
Sc358 O374 2.105 . S
Sc358 O377 2.105 . S
Sc359 O361 2.025 . S
Sc359 O369 2.105 . S
Sc359 O373 2.105 . S
Sc359 O375 2.105 . S
Sc359 O379 2.105 . S
Sc360 O361 2.025 . S
Sc360 O370 2.105 . S
Sc360 O372 2.105 . S
Sc360 O376 2.105 . S
Sc360 O378 2.105 . S
O361 Sc358 2.025 . S
O361 Sc359 2.025 . S
O361 Sc360 2.025 . S
C362 O368 1.268 . S
C362 O378 1.268 . S
C363 O369 1.268 . S
C363 O377 1.268 . S
C364 O370 1.268 . S
C364 O379 1.268 . S
C365 O371 1.268 . S
C365 O375 1.268 . S
C366 O372 1.268 . S
C366 O374 1.268 . S
C367 O373 1.268 . S
C367 O376 1.268 . S
O368 Sc358 2.105 . S
O368 C362 1.268 . S
O369 Sc359 2.105 . S
O369 C363 1.268 . S
O370 Sc360 2.105 . S
O370 C364 1.268 . S
O371 Sc358 2.105 . S
O371 C365 1.268 . S
O372 Sc360 2.105 . S
O372 C366 1.268 . S
O373 Sc359 2.105 . S
O373 C367 1.268 . S
O374 Sc358 2.105 . S
O374 C366 1.268 . S
O375 Sc359 2.105 . S
O375 C365 1.268 . S
O376 Sc360 2.105 . S
O376 C367 1.268 . S
O377 Sc358 2.105 . S
O377 C363 1.268 . S
O378 Sc360 2.105 . S
O378 C362 1.268 . S
O379 Sc359 2.105 . S
O379 C364 1.268 . S
Sc380 O383 2.025 . S
Sc380 O390 2.105 . S
Sc380 O393 2.105 . S
Sc380 O396 2.105 . S
Sc380 O399 2.105 . S
Sc381 O383 2.025 . S
Sc381 O391 2.105 . S
Sc381 O395 2.105 . S
Sc381 O397 2.105 . S
Sc381 O401 2.105 . S
Sc382 O383 2.025 . S
Sc382 O392 2.105 . S
Sc382 O394 2.105 . S
Sc382 O398 2.105 . S
Sc382 O400 2.105 . S
O383 Sc380 2.025 . S
O383 Sc381 2.025 . S
O383 Sc382 2.025 . S
C384 O390 1.268 . S
C384 O400 1.268 . S
C385 O391 1.268 . S
C385 O399 1.268 . S
C386 O392 1.268 . S
C386 O401 1.268 . S
C387 O393 1.268 . S
C387 O397 1.268 . S
C388 O394 1.268 . S
C388 O396 1.268 . S
C389 O395 1.268 . S
C389 O398 1.268 . S
O390 Sc380 2.105 . S
O390 C384 1.268 . S
O391 Sc381 2.105 . S
O391 C385 1.268 . S
O392 Sc382 2.105 . S
O392 C386 1.268 . S
O393 Sc380 2.105 . S
O393 C387 1.268 . S
O394 Sc382 2.105 . S
O394 C388 1.268 . S
O395 Sc381 2.105 . S
O395 C389 1.268 . S
O396 Sc380 2.105 . S
O396 C388 1.268 . S
O397 Sc381 2.105 . S
O397 C387 1.268 . S
O398 Sc382 2.105 . S
O398 C389 1.268 . S
O399 Sc380 2.105 . S
O399 C385 1.268 . S
O400 Sc382 2.105 . S
O400 C384 1.268 . S
O401 Sc381 2.105 . S
O401 C386 1.268 . S
Sc402 O405 2.025 . S
Sc402 O412 2.105 . S
Sc402 O415 2.105 . S
Sc402 O418 2.105 . S
Sc402 O421 2.105 . S
Sc403 O405 2.025 . S
Sc403 O413 2.105 . S
Sc403 O417 2.105 . S
Sc403 O419 2.105 . S
Sc403 O423 2.105 . S
Sc404 O405 2.025 . S
Sc404 O414 2.105 . S
Sc404 O416 2.105 . S
Sc404 O420 2.105 . S
Sc404 O422 2.105 . S
O405 Sc402 2.025 . S
O405 Sc403 2.025 . S
O405 Sc404 2.025 . S
C406 O412 1.268 . S
C406 O422 1.268 . S
C407 O413 1.268 . S
C407 O421 1.268 . S
C408 O414 1.268 . S
C408 O423 1.268 . S
C409 O415 1.268 . S
C409 O419 1.268 . S
C410 O416 1.268 . S
C410 O418 1.268 . S
C411 O417 1.268 . S
C411 O420 1.268 . S
O412 Sc402 2.105 . S
O412 C406 1.268 . S
O413 Sc403 2.105 . S
O413 C407 1.268 . S
O414 Sc404 2.105 . S
O414 C408 1.268 . S
O415 Sc402 2.105 . S
O415 C409 1.268 . S
O416 Sc404 2.105 . S
O416 C410 1.268 . S
O417 Sc403 2.105 . S
O417 C411 1.268 . S
O418 Sc402 2.105 . S
O418 C410 1.268 . S
O419 Sc403 2.105 . S
O419 C409 1.268 . S
O420 Sc404 2.105 . S
O420 C411 1.268 . S
O421 Sc402 2.105 . S
O421 C407 1.268 . S
O422 Sc404 2.105 . S
O422 C406 1.268 . S
O423 Sc403 2.105 . S
O423 C408 1.268 . S
Sc424 O427 2.025 . S
Sc424 O434 2.105 . S
Sc424 O437 2.105 . S
Sc424 O440 2.105 . S
Sc424 O443 2.105 . S
Sc425 O427 2.025 . S
Sc425 O435 2.105 . S
Sc425 O439 2.105 . S
Sc425 O441 2.105 . S
Sc425 O445 2.105 . S
Sc426 O427 2.025 . S
Sc426 O436 2.105 . S
Sc426 O438 2.105 . S
Sc426 O442 2.105 . S
Sc426 O444 2.105 . S
O427 Sc424 2.025 . S
O427 Sc425 2.025 . S
O427 Sc426 2.025 . S
C428 O434 1.268 . S
C428 O444 1.268 . S
C429 O435 1.268 . S
C429 O443 1.268 . S
C430 O436 1.268 . S
C430 O445 1.268 . S
C431 O437 1.268 . S
C431 O441 1.268 . S
C432 O438 1.268 . S
C432 O440 1.268 . S
C433 O439 1.268 . S
C433 O442 1.268 . S
O434 Sc424 2.105 . S
O434 C428 1.268 . S
O435 Sc425 2.105 . S
O435 C429 1.268 . S
O436 Sc426 2.105 . S
O436 C430 1.268 . S
O437 Sc424 2.105 . S
O437 C431 1.268 . S
O438 Sc426 2.105 . S
O438 C432 1.268 . S
O439 Sc425 2.105 . S
O439 C433 1.268 . S
O440 Sc424 2.105 . S
O440 C432 1.268 . S
O441 Sc425 2.105 . S
O441 C431 1.268 . S
O442 Sc426 2.105 . S
O442 C433 1.268 . S
O443 Sc424 2.105 . S
O443 C429 1.268 . S
O444 Sc426 2.105 . S
O444 C428 1.268 . S
O445 Sc425 2.105 . S
O445 C430 1.268 . S
Sc446 O449 2.025 . S
Sc446 O456 2.105 . S
Sc446 O459 2.105 . S
Sc446 O462 2.105 . S
Sc446 O465 2.105 . S
Sc447 O449 2.025 . S
Sc447 O457 2.105 . S
Sc447 O461 2.105 . S
Sc447 O463 2.105 . S
Sc447 O467 2.105 . S
Sc448 O449 2.025 . S
Sc448 O458 2.105 . S
Sc448 O460 2.105 . S
Sc448 O464 2.105 . S
Sc448 O466 2.105 . S
O449 Sc446 2.025 . S
O449 Sc447 2.025 . S
O449 Sc448 2.025 . S
C450 O456 1.268 . S
C450 O466 1.268 . S
C451 O457 1.268 . S
C451 O465 1.268 . S
C452 O458 1.268 . S
C452 O467 1.268 . S
C453 O459 1.268 . S
C453 O463 1.268 . S
C454 O460 1.268 . S
C454 O462 1.268 . S
C455 O461 1.268 . S
C455 O464 1.268 . S
O456 Sc446 2.105 . S
O456 C450 1.268 . S
O457 Sc447 2.105 . S
O457 C451 1.268 . S
O458 Sc448 2.105 . S
O458 C452 1.268 . S
O459 Sc446 2.105 . S
O459 C453 1.268 . S
O460 Sc448 2.105 . S
O460 C454 1.268 . S
O461 Sc447 2.105 . S
O461 C455 1.268 . S
O462 Sc446 2.105 . S
O462 C454 1.268 . S
O463 Sc447 2.105 . S
O463 C453 1.268 . S
O464 Sc448 2.105 . S
O464 C455 1.268 . S
O465 Sc446 2.105 . S
O465 C451 1.268 . S
O466 Sc448 2.105 . S
O466 C450 1.268 . S
O467 Sc447 2.105 . S
O467 C452 1.268 . S
Sc468 O471 2.025 . S
Sc468 O478 2.105 . S
Sc468 O481 2.105 . S
Sc468 O484 2.105 . S
Sc468 O487 2.105 . S
Sc469 O471 2.025 . S
Sc469 O479 2.105 . S
Sc469 O483 2.105 . S
Sc469 O485 2.105 . S
Sc469 O489 2.105 . S
Sc470 O471 2.025 . S
Sc470 O480 2.105 . S
Sc470 O482 2.105 . S
Sc470 O486 2.105 . S
Sc470 O488 2.105 . S
O471 Sc468 2.025 . S
O471 Sc469 2.025 . S
O471 Sc470 2.025 . S
C472 O478 1.268 . S
C472 O488 1.268 . S
C473 O479 1.268 . S
C473 O487 1.268 . S
C474 O480 1.268 . S
C474 O489 1.268 . S
C475 O481 1.268 . S
C475 O485 1.268 . S
C476 O482 1.268 . S
C476 O484 1.268 . S
C477 O483 1.268 . S
C477 O486 1.268 . S
O478 Sc468 2.105 . S
O478 C472 1.268 . S
O479 Sc469 2.105 . S
O479 C473 1.268 . S
O480 Sc470 2.105 . S
O480 C474 1.268 . S
O481 Sc468 2.105 . S
O481 C475 1.268 . S
O482 Sc470 2.105 . S
O482 C476 1.268 . S
O483 Sc469 2.105 . S
O483 C477 1.268 . S
O484 Sc468 2.105 . S
O484 C476 1.268 . S
O485 Sc469 2.105 . S
O485 C475 1.268 . S
O486 Sc470 2.105 . S
O486 C477 1.268 . S
O487 Sc468 2.105 . S
O487 C473 1.268 . S
O488 Sc470 2.105 . S
O488 C472 1.268 . S
O489 Sc469 2.105 . S
O489 C474 1.268 . S
Sc490 O493 2.025 . S
Sc490 O500 2.105 . S
Sc490 O503 2.105 . S
Sc490 O506 2.105 . S
Sc490 O509 2.105 . S
Sc491 O493 2.025 . S
Sc491 O501 2.105 . S
Sc491 O505 2.105 . S
Sc491 O507 2.105 . S
Sc491 O511 2.105 . S
Sc492 O493 2.025 . S
Sc492 O502 2.105 . S
Sc492 O504 2.105 . S
Sc492 O508 2.105 . S
Sc492 O510 2.105 . S
O493 Sc490 2.025 . S
O493 Sc491 2.025 . S
O493 Sc492 2.025 . S
C494 O500 1.268 . S
C494 O510 1.268 . S
C495 O501 1.268 . S
C495 O509 1.268 . S
C496 O502 1.268 . S
C496 O511 1.268 . S
C497 O503 1.268 . S
C497 O507 1.268 . S
C498 O504 1.268 . S
C498 O506 1.268 . S
C499 O505 1.268 . S
C499 O508 1.268 . S
O500 Sc490 2.105 . S
O500 C494 1.268 . S
O501 Sc491 2.105 . S
O501 C495 1.268 . S
O502 Sc492 2.105 . S
O502 C496 1.268 . S
O503 Sc490 2.105 . S
O503 C497 1.268 . S
O504 Sc492 2.105 . S
O504 C498 1.268 . S
O505 Sc491 2.105 . S
O505 C499 1.268 . S
O506 Sc490 2.105 . S
O506 C498 1.268 . S
O507 Sc491 2.105 . S
O507 C497 1.268 . S
O508 Sc492 2.105 . S
O508 C499 1.268 . S
O509 Sc490 2.105 . S
O509 C495 1.268 . S
O510 Sc492 2.105 . S
O510 C494 1.268 . S
O511 Sc491 2.105 . S
O511 C496 1.268 . S
Sc512 O515 2.025 . S
Sc512 O522 2.105 . S
Sc512 O525 2.105 . S
Sc512 O528 2.105 . S
Sc512 O531 2.105 . S
Sc513 O515 2.025 . S
Sc513 O523 2.105 . S
Sc513 O527 2.105 . S
Sc513 O529 2.105 . S
Sc513 O533 2.105 . S
Sc514 O515 2.025 . S
Sc514 O524 2.105 . S
Sc514 O526 2.105 . S
Sc514 O530 2.105 . S
Sc514 O532 2.105 . S
O515 Sc512 2.025 . S
O515 Sc513 2.025 . S
O515 Sc514 2.025 . S
C516 O522 1.268 . S
C516 O532 1.268 . S
C517 O523 1.268 . S
C517 O531 1.268 . S
C518 O524 1.268 . S
C518 O533 1.268 . S
C519 O525 1.268 . S
C519 O529 1.268 . S
C520 O526 1.268 . S
C520 O528 1.268 . S
C521 O527 1.268 . S
C521 O530 1.268 . S
O522 Sc512 2.105 . S
O522 C516 1.268 . S
O523 Sc513 2.105 . S
O523 C517 1.268 . S
O524 Sc514 2.105 . S
O524 C518 1.268 . S
O525 Sc512 2.105 . S
O525 C519 1.268 . S
O526 Sc514 2.105 . S
O526 C520 1.268 . S
O527 Sc513 2.105 . S
O527 C521 1.268 . S
O528 Sc512 2.105 . S
O528 C520 1.268 . S
O529 Sc513 2.105 . S
O529 C519 1.268 . S
O530 Sc514 2.105 . S
O530 C521 1.268 . S
O531 Sc512 2.105 . S
O531 C517 1.268 . S
O532 Sc514 2.105 . S
O532 C516 1.268 . S
O533 Sc513 2.105 . S
O533 C518 1.268 . S
Sc534 O537 2.025 . S
Sc534 O544 2.105 . S
Sc534 O547 2.105 . S
Sc534 O550 2.105 . S
Sc534 O553 2.105 . S
Sc535 O537 2.025 . S
Sc535 O545 2.105 . S
Sc535 O549 2.105 . S
Sc535 O551 2.105 . S
Sc535 O555 2.105 . S
Sc536 O537 2.025 . S
Sc536 O546 2.105 . S
Sc536 O548 2.105 . S
Sc536 O552 2.105 . S
Sc536 O554 2.105 . S
O537 Sc534 2.025 . S
O537 Sc535 2.025 . S
O537 Sc536 2.025 . S
C538 O544 1.268 . S
C538 O554 1.268 . S
C539 O545 1.268 . S
C539 O553 1.268 . S
C540 O546 1.268 . S
C540 O555 1.268 . S
C541 O547 1.268 . S
C541 O551 1.268 . S
C542 O548 1.268 . S
C542 O550 1.268 . S
C543 O549 1.268 . S
C543 O552 1.268 . S
O544 Sc534 2.105 . S
O544 C538 1.268 . S
O545 Sc535 2.105 . S
O545 C539 1.268 . S
O546 Sc536 2.105 . S
O546 C540 1.268 . S
O547 Sc534 2.105 . S
O547 C541 1.268 . S
O548 Sc536 2.105 . S
O548 C542 1.268 . S
O549 Sc535 2.105 . S
O549 C543 1.268 . S
O550 Sc534 2.105 . S
O550 C542 1.268 . S
O551 Sc535 2.105 . S
O551 C541 1.268 . S
O552 Sc536 2.105 . S
O552 C543 1.268 . S
O553 Sc534 2.105 . S
O553 C539 1.268 . S
O554 Sc536 2.105 . S
O554 C538 1.268 . S
O555 Sc535 2.105 . S
O555 C540 1.268 . S
Sc556 O559 2.025 . S
Sc556 O566 2.105 . S
Sc556 O569 2.105 . S
Sc556 O572 2.105 . S
Sc556 O575 2.105 . S
Sc557 O559 2.025 . S
Sc557 O567 2.105 . S
Sc557 O571 2.105 . S
Sc557 O573 2.105 . S
Sc557 O577 2.105 . S
Sc558 O559 2.025 . S
Sc558 O568 2.105 . S
Sc558 O570 2.105 . S
Sc558 O574 2.105 . S
Sc558 O576 2.105 . S
O559 Sc556 2.025 . S
O559 Sc557 2.025 . S
O559 Sc558 2.025 . S
C560 O566 1.268 . S
C560 O576 1.268 . S
C561 O567 1.268 . S
C561 O575 1.268 . S
C562 O568 1.268 . S
C562 O577 1.268 . S
C563 O569 1.268 . S
C563 O573 1.268 . S
C564 O570 1.268 . S
C564 O572 1.268 . S
C565 O571 1.268 . S
C565 O574 1.268 . S
O566 Sc556 2.105 . S
O566 C560 1.268 . S
O567 Sc557 2.105 . S
O567 C561 1.268 . S
O568 Sc558 2.105 . S
O568 C562 1.268 . S
O569 Sc556 2.105 . S
O569 C563 1.268 . S
O570 Sc558 2.105 . S
O570 C564 1.268 . S
O571 Sc557 2.105 . S
O571 C565 1.268 . S
O572 Sc556 2.105 . S
O572 C564 1.268 . S
O573 Sc557 2.105 . S
O573 C563 1.268 . S
O574 Sc558 2.105 . S
O574 C565 1.268 . S
O575 Sc556 2.105 . S
O575 C561 1.268 . S
O576 Sc558 2.105 . S
O576 C560 1.268 . S
O577 Sc557 2.105 . S
O577 C562 1.268 . S
Sc578 O581 2.025 . S
Sc578 O588 2.105 . S
Sc578 O591 2.105 . S
Sc578 O594 2.105 . S
Sc578 O597 2.105 . S
Sc579 O581 2.025 . S
Sc579 O589 2.105 . S
Sc579 O593 2.105 . S
Sc579 O595 2.105 . S
Sc579 O599 2.105 . S
Sc580 O581 2.025 . S
Sc580 O590 2.105 . S
Sc580 O592 2.105 . S
Sc580 O596 2.105 . S
Sc580 O598 2.105 . S
O581 Sc578 2.025 . S
O581 Sc579 2.025 . S
O581 Sc580 2.025 . S
C582 O588 1.268 . S
C582 O598 1.268 . S
C583 O589 1.268 . S
C583 O597 1.268 . S
C584 O590 1.268 . S
C584 O599 1.268 . S
C585 O591 1.268 . S
C585 O595 1.268 . S
C586 O592 1.268 . S
C586 O594 1.268 . S
C587 O593 1.268 . S
C587 O596 1.268 . S
O588 Sc578 2.105 . S
O588 C582 1.268 . S
O589 Sc579 2.105 . S
O589 C583 1.268 . S
O590 Sc580 2.105 . S
O590 C584 1.268 . S
O591 Sc578 2.105 . S
O591 C585 1.268 . S
O592 Sc580 2.105 . S
O592 C586 1.268 . S
O593 Sc579 2.105 . S
O593 C587 1.268 . S
O594 Sc578 2.105 . S
O594 C586 1.268 . S
O595 Sc579 2.105 . S
O595 C585 1.268 . S
O596 Sc580 2.105 . S
O596 C587 1.268 . S
O597 Sc578 2.105 . S
O597 C583 1.268 . S
O598 Sc580 2.105 . S
O598 C582 1.268 . S
O599 Sc579 2.105 . S
O599 C584 1.268 . S
Sc600 O603 2.025 . S
Sc600 O610 2.105 . S
Sc600 O613 2.105 . S
Sc600 O616 2.105 . S
Sc600 O619 2.105 . S
Sc601 O603 2.025 . S
Sc601 O611 2.105 . S
Sc601 O615 2.105 . S
Sc601 O617 2.105 . S
Sc601 O621 2.105 . S
Sc602 O603 2.025 . S
Sc602 O612 2.105 . S
Sc602 O614 2.105 . S
Sc602 O618 2.105 . S
Sc602 O620 2.105 . S
O603 Sc600 2.025 . S
O603 Sc601 2.025 . S
O603 Sc602 2.025 . S
C604 O610 1.268 . S
C604 O620 1.268 . S
C605 O611 1.268 . S
C605 O619 1.268 . S
C606 O612 1.268 . S
C606 O621 1.268 . S
C607 O613 1.268 . S
C607 O617 1.268 . S
C608 O614 1.268 . S
C608 O616 1.268 . S
C609 O615 1.268 . S
C609 O618 1.268 . S
O610 Sc600 2.105 . S
O610 C604 1.268 . S
O611 Sc601 2.105 . S
O611 C605 1.268 . S
O612 Sc602 2.105 . S
O612 C606 1.268 . S
O613 Sc600 2.105 . S
O613 C607 1.268 . S
O614 Sc602 2.105 . S
O614 C608 1.268 . S
O615 Sc601 2.105 . S
O615 C609 1.268 . S
O616 Sc600 2.105 . S
O616 C608 1.268 . S
O617 Sc601 2.105 . S
O617 C607 1.268 . S
O618 Sc602 2.105 . S
O618 C609 1.268 . S
O619 Sc600 2.105 . S
O619 C605 1.268 . S
O620 Sc602 2.105 . S
O620 C604 1.268 . S
O621 Sc601 2.105 . S
O621 C606 1.268 . S
Sc622 O625 2.025 . S
Sc622 O632 2.105 . S
Sc622 O635 2.105 . S
Sc622 O638 2.105 . S
Sc622 O641 2.105 . S
Sc623 O625 2.025 . S
Sc623 O633 2.105 . S
Sc623 O637 2.105 . S
Sc623 O639 2.105 . S
Sc623 O643 2.105 . S
Sc624 O625 2.025 . S
Sc624 O634 2.105 . S
Sc624 O636 2.105 . S
Sc624 O640 2.105 . S
Sc624 O642 2.105 . S
O625 Sc622 2.025 . S
O625 Sc623 2.025 . S
O625 Sc624 2.025 . S
C626 O632 1.268 . S
C626 O642 1.268 . S
C627 O633 1.268 . S
C627 O641 1.268 . S
C628 O634 1.268 . S
C628 O643 1.268 . S
C629 O635 1.268 . S
C629 O639 1.268 . S
C630 O636 1.268 . S
C630 O638 1.268 . S
C631 O637 1.268 . S
C631 O640 1.268 . S
O632 Sc622 2.105 . S
O632 C626 1.268 . S
O633 Sc623 2.105 . S
O633 C627 1.268 . S
O634 Sc624 2.105 . S
O634 C628 1.268 . S
O635 Sc622 2.105 . S
O635 C629 1.268 . S
O636 Sc624 2.105 . S
O636 C630 1.268 . S
O637 Sc623 2.105 . S
O637 C631 1.268 . S
O638 Sc622 2.105 . S
O638 C630 1.268 . S
O639 Sc623 2.105 . S
O639 C629 1.268 . S
O640 Sc624 2.105 . S
O640 C631 1.268 . S
O641 Sc622 2.105 . S
O641 C627 1.268 . S
O642 Sc624 2.105 . S
O642 C626 1.268 . S
O643 Sc623 2.105 . S
O643 C628 1.268 . S
Sc644 O647 2.025 . S
Sc644 O654 2.105 . S
Sc644 O657 2.105 . S
Sc644 O660 2.105 . S
Sc644 O663 2.105 . S
Sc645 O647 2.025 . S
Sc645 O655 2.105 . S
Sc645 O659 2.105 . S
Sc645 O661 2.105 . S
Sc645 O665 2.105 . S
Sc646 O647 2.025 . S
Sc646 O656 2.105 . S
Sc646 O658 2.105 . S
Sc646 O662 2.105 . S
Sc646 O664 2.105 . S
O647 Sc644 2.025 . S
O647 Sc645 2.025 . S
O647 Sc646 2.025 . S
C648 O654 1.268 . S
C648 O664 1.268 . S
C649 O655 1.268 . S
C649 O663 1.268 . S
C650 O656 1.268 . S
C650 O665 1.268 . S
C651 O657 1.268 . S
C651 O661 1.268 . S
C652 O658 1.268 . S
C652 O660 1.268 . S
C653 O659 1.268 . S
C653 O662 1.268 . S
O654 Sc644 2.105 . S
O654 C648 1.268 . S
O655 Sc645 2.105 . S
O655 C649 1.268 . S
O656 Sc646 2.105 . S
O656 C650 1.268 . S
O657 Sc644 2.105 . S
O657 C651 1.268 . S
O658 Sc646 2.105 . S
O658 C652 1.268 . S
O659 Sc645 2.105 . S
O659 C653 1.268 . S
O660 Sc644 2.105 . S
O660 C652 1.268 . S
O661 Sc645 2.105 . S
O661 C651 1.268 . S
O662 Sc646 2.105 . S
O662 C653 1.268 . S
O663 Sc644 2.105 . S
O663 C649 1.268 . S
O664 Sc646 2.105 . S
O664 C648 1.268 . S
O665 Sc645 2.105 . S
O665 C650 1.268 . S
Sc666 O669 2.025 . S
Sc666 O676 2.105 . S
Sc666 O679 2.105 . S
Sc666 O682 2.105 . S
Sc666 O685 2.105 . S
Sc667 O669 2.025 . S
Sc667 O677 2.105 . S
Sc667 O681 2.105 . S
Sc667 O683 2.105 . S
Sc667 O687 2.105 . S
Sc668 O669 2.025 . S
Sc668 O678 2.105 . S
Sc668 O680 2.105 . S
Sc668 O684 2.105 . S
Sc668 O686 2.105 . S
O669 Sc666 2.025 . S
O669 Sc667 2.025 . S
O669 Sc668 2.025 . S
C670 O676 1.268 . S
C670 O686 1.268 . S
C671 O677 1.268 . S
C671 O685 1.268 . S
C672 O678 1.268 . S
C672 O687 1.268 . S
C673 O679 1.268 . S
C673 O683 1.268 . S
C674 O680 1.268 . S
C674 O682 1.268 . S
C675 O681 1.268 . S
C675 O684 1.268 . S
O676 Sc666 2.105 . S
O676 C670 1.268 . S
O677 Sc667 2.105 . S
O677 C671 1.268 . S
O678 Sc668 2.105 . S
O678 C672 1.268 . S
O679 Sc666 2.105 . S
O679 C673 1.268 . S
O680 Sc668 2.105 . S
O680 C674 1.268 . S
O681 Sc667 2.105 . S
O681 C675 1.268 . S
O682 Sc666 2.105 . S
O682 C674 1.268 . S
O683 Sc667 2.105 . S
O683 C673 1.268 . S
O684 Sc668 2.105 . S
O684 C675 1.268 . S
O685 Sc666 2.105 . S
O685 C671 1.268 . S
O686 Sc668 2.105 . S
O686 C670 1.268 . S
O687 Sc667 2.105 . S
O687 C672 1.268 . S
H688 C700 0.930 . S
H689 C702 0.930 . S
H690 C703 0.930 . S
H691 C707 0.959 . S
H692 C707 0.959 . S
H693 C707 0.961 . S
H694 C708 0.960 . S
H695 C708 0.961 . S
H696 C708 0.959 . S
H697 C711 0.929 . S
H698 C712 0.931 . S
H699 C714 0.930 . S
C700 H688 0.930 . S
C700 C701 1.399 . S
C700 C705 1.399 . S
C701 C700 1.399 . S
C701 C702 1.376 . S
C702 H689 0.930 . S
C702 C701 1.376 . S
C702 C703 1.388 . S
C703 H690 0.930 . S
C703 C702 1.388 . S
C703 C704 1.390 . S
C704 C703 1.390 . S
C704 C705 1.394 . S
C704 C710 1.465 . S
C705 C700 1.399 . S
C705 C704 1.394 . S
C705 C706 1.516 . S
C706 C705 1.516 . S
C706 C707 1.502 . S
C706 C708 1.561 . S
C706 C709 1.526 . S
C707 H691 0.959 . S
C707 H692 0.959 . S
C707 H693 0.961 . S
C707 C706 1.502 . S
C708 H694 0.960 . S
C708 H695 0.961 . S
C708 H696 0.959 . S
C708 C706 1.561 . S
C709 C706 1.526 . S
C709 C710 1.396 . S
C709 C714 1.390 . S
C710 C704 1.465 . S
C710 C709 1.396 . S
C710 C711 1.399 . S
C711 H697 0.929 . S
C711 C710 1.399 . S
C711 C712 1.385 . S
C712 H698 0.931 . S
C712 C711 1.385 . S
C712 C713 1.389 . S
C713 C712 1.389 . S
C713 C714 1.387 . S
C714 H699 0.930 . S
C714 C709 1.390 . S
C714 C713 1.387 . S
H715 C727 0.930 . S
H716 C729 0.930 . S
H717 C730 0.930 . S
H718 C734 0.959 . S
H719 C734 0.959 . S
H720 C734 0.961 . S
H721 C735 0.960 . S
H722 C735 0.961 . S
H723 C735 0.959 . S
H724 C738 0.929 . S
H725 C739 0.931 . S
H726 C741 0.930 . S
C727 H715 0.930 . S
C727 C728 1.399 . S
C727 C732 1.399 . S
C728 C727 1.399 . S
C728 C729 1.376 . S
C729 H716 0.930 . S
C729 C728 1.376 . S
C729 C730 1.388 . S
C730 H717 0.930 . S
C730 C729 1.388 . S
C730 C731 1.390 . S
C731 C730 1.390 . S
C731 C732 1.394 . S
C731 C737 1.465 . S
C732 C727 1.399 . S
C732 C731 1.394 . S
C732 C733 1.516 . S
C733 C732 1.516 . S
C733 C734 1.502 . S
C733 C735 1.561 . S
C733 C736 1.526 . S
C734 H718 0.959 . S
C734 H719 0.959 . S
C734 H720 0.961 . S
C734 C733 1.502 . S
C735 H721 0.960 . S
C735 H722 0.961 . S
C735 H723 0.959 . S
C735 C733 1.561 . S
C736 C733 1.526 . S
C736 C737 1.396 . S
C736 C741 1.390 . S
C737 C731 1.465 . S
C737 C736 1.396 . S
C737 C738 1.399 . S
C738 H724 0.929 . S
C738 C737 1.399 . S
C738 C739 1.385 . S
C739 H725 0.931 . S
C739 C738 1.385 . S
C739 C740 1.389 . S
C740 C739 1.389 . S
C740 C741 1.387 . S
C741 H726 0.930 . S
C741 C736 1.390 . S
C741 C740 1.387 . S
H742 C754 0.930 . S
H743 C756 0.930 . S
H744 C757 0.930 . S
H745 C761 0.959 . S
H746 C761 0.959 . S
H747 C761 0.961 . S
H748 C762 0.960 . S
H749 C762 0.961 . S
H750 C762 0.959 . S
H751 C765 0.929 . S
H752 C766 0.931 . S
H753 C768 0.930 . S
C754 H742 0.930 . S
C754 C755 1.399 . S
C754 C759 1.399 . S
C755 C754 1.399 . S
C755 C756 1.376 . S
C756 H743 0.930 . S
C756 C755 1.376 . S
C756 C757 1.388 . S
C757 H744 0.930 . S
C757 C756 1.388 . S
C757 C758 1.390 . S
C758 C757 1.390 . S
C758 C759 1.394 . S
C758 C764 1.465 . S
C759 C754 1.399 . S
C759 C758 1.394 . S
C759 C760 1.516 . S
C760 C759 1.516 . S
C760 C761 1.502 . S
C760 C762 1.561 . S
C760 C763 1.526 . S
C761 H745 0.959 . S
C761 H746 0.959 . S
C761 H747 0.961 . S
C761 C760 1.502 . S
C762 H748 0.960 . S
C762 H749 0.961 . S
C762 H750 0.959 . S
C762 C760 1.561 . S
C763 C760 1.526 . S
C763 C764 1.396 . S
C763 C768 1.390 . S
C764 C758 1.465 . S
C764 C763 1.396 . S
C764 C765 1.399 . S
C765 H751 0.929 . S
C765 C764 1.399 . S
C765 C766 1.385 . S
C766 H752 0.931 . S
C766 C765 1.385 . S
C766 C767 1.389 . S
C767 C766 1.389 . S
C767 C768 1.387 . S
C768 H753 0.930 . S
C768 C763 1.390 . S
C768 C767 1.387 . S
H769 C781 0.930 . S
H770 C783 0.930 . S
H771 C784 0.930 . S
H772 C788 0.961 . S
H773 C788 0.959 . S
H774 C788 0.970 . S
H775 C789 0.960 . S
H776 C789 0.961 . S
H777 C789 0.959 . S
H778 C792 0.929 . S
H779 C793 0.931 . S
H780 C795 0.930 . S
C781 H769 0.930 . S
C781 C782 1.399 . S
C781 C786 1.399 . S
C782 C781 1.399 . S
C782 C783 1.376 . S
C783 H770 0.930 . S
C783 C782 1.376 . S
C783 C784 1.388 . S
C784 H771 0.930 . S
C784 C783 1.388 . S
C784 C785 1.390 . S
C785 C784 1.390 . S
C785 C786 1.394 . S
C785 C791 1.465 . S
C786 C781 1.399 . S
C786 C785 1.394 . S
C786 C787 1.516 1_554 S
C787 C786 1.516 1_556 S
C787 C788 1.502 . S
C787 C789 1.561 . S
C787 C790 1.526 . S
C788 H772 0.961 . S
C788 H773 0.959 . S
C788 H774 0.970 . S
C788 C787 1.502 . S
C789 H775 0.960 . S
C789 H776 0.961 . S
C789 H777 0.959 . S
C789 C787 1.561 . S
C790 C787 1.526 . S
C790 C791 1.396 1_556 S
C790 C795 1.390 . S
C791 C785 1.465 . S
C791 C790 1.396 1_554 S
C791 C792 1.399 . S
C792 H778 0.929 . S
C792 C791 1.399 . S
C792 C793 1.385 1_554 S
C793 H779 0.931 . S
C793 C792 1.385 1_556 S
C793 C794 1.389 . S
C794 C793 1.389 . S
C794 C795 1.387 . S
C795 H780 0.930 . S
C795 C790 1.390 . S
C795 C794 1.387 . S
H796 C808 0.930 . S
H797 C810 0.930 . S
H798 C811 0.930 . S
H799 C815 0.959 . S
H800 C815 0.959 . S
H801 C815 0.961 . S
H802 C816 0.960 . S
H803 C816 0.961 . S
H804 C816 0.959 . S
H805 C819 0.929 . S
H806 C820 0.931 . S
H807 C822 0.930 . S
C808 H796 0.930 . S
C808 C809 1.399 . S
C808 C813 1.399 . S
C809 C808 1.399 . S
C809 C810 1.376 . S
C810 H797 0.930 . S
C810 C809 1.376 . S
C810 C811 1.388 . S
C811 H798 0.930 . S
C811 C810 1.388 . S
C811 C812 1.390 . S
C812 C811 1.390 . S
C812 C813 1.394 . S
C812 C818 1.465 . S
C813 C808 1.399 . S
C813 C812 1.394 . S
C813 C814 1.516 . S
C814 C813 1.516 . S
C814 C815 1.502 . S
C814 C816 1.561 . S
C814 C817 1.526 . S
C815 H799 0.959 . S
C815 H800 0.959 . S
C815 H801 0.961 . S
C815 C814 1.502 . S
C816 H802 0.960 . S
C816 H803 0.961 . S
C816 H804 0.959 . S
C816 C814 1.561 . S
C817 C814 1.526 . S
C817 C818 1.396 . S
C817 C822 1.390 . S
C818 C812 1.465 . S
C818 C817 1.396 . S
C818 C819 1.399 . S
C819 H805 0.929 . S
C819 C818 1.399 . S
C819 C820 1.385 . S
C820 H806 0.931 . S
C820 C819 1.385 . S
C820 C821 1.389 . S
C821 C820 1.389 . S
C821 C822 1.387 . S
C822 H807 0.930 . S
C822 C817 1.390 . S
C822 C821 1.387 . S
H823 C835 0.930 . S
H824 C837 0.930 . S
H825 C838 0.930 . S
H826 C842 0.959 . S
H827 C842 0.959 . S
H828 C842 0.961 . S
H829 C843 0.960 . S
H830 C843 0.961 . S
H831 C843 0.959 . S
H832 C846 0.929 . S
H833 C847 0.931 . S
H834 C849 0.930 . S
C835 H823 0.930 . S
C835 C836 1.399 . S
C835 C840 1.399 . S
C836 C835 1.399 . S
C836 C837 1.376 . S
C837 H824 0.930 . S
C837 C836 1.376 . S
C837 C838 1.388 . S
C838 H825 0.930 . S
C838 C837 1.388 . S
C838 C839 1.390 . S
C839 C838 1.390 . S
C839 C840 1.394 . S
C839 C845 1.465 . S
C840 C835 1.399 . S
C840 C839 1.394 . S
C840 C841 1.516 . S
C841 C840 1.516 . S
C841 C842 1.502 . S
C841 C843 1.561 . S
C841 C844 1.526 . S
C842 H826 0.959 . S
C842 H827 0.959 . S
C842 H828 0.961 . S
C842 C841 1.502 . S
C843 H829 0.960 . S
C843 H830 0.961 . S
C843 H831 0.959 . S
C843 C841 1.561 . S
C844 C841 1.526 . S
C844 C845 1.396 . S
C844 C849 1.390 . S
C845 C839 1.465 . S
C845 C844 1.396 . S
C845 C846 1.399 . S
C846 H832 0.929 . S
C846 C845 1.399 . S
C846 C847 1.385 . S
C847 H833 0.931 . S
C847 C846 1.385 . S
C847 C848 1.389 . S
C848 C847 1.389 . S
C848 C849 1.387 . S
C849 H834 0.930 . S
C849 C844 1.390 . S
C849 C848 1.387 . S
H850 C862 0.930 . S
H851 C864 0.930 . S
H852 C865 0.930 . S
H853 C869 0.959 . S
H854 C869 0.959 . S
H855 C869 0.961 . S
H856 C870 0.960 . S
H857 C870 0.961 . S
H858 C870 0.959 . S
H859 C873 0.929 . S
H860 C874 0.931 . S
H861 C876 0.930 . S
C862 H850 0.930 . S
C862 C863 1.399 . S
C862 C867 1.399 . S
C863 C862 1.399 . S
C863 C864 1.376 . S
C864 H851 0.930 . S
C864 C863 1.376 . S
C864 C865 1.388 . S
C865 H852 0.930 . S
C865 C864 1.388 . S
C865 C866 1.390 . S
C866 C865 1.390 . S
C866 C867 1.394 . S
C866 C872 1.465 . S
C867 C862 1.399 . S
C867 C866 1.394 . S
C867 C868 1.516 . S
C868 C867 1.516 . S
C868 C869 1.502 . S
C868 C870 1.561 . S
C868 C871 1.526 . S
C869 H853 0.959 . S
C869 H854 0.959 . S
C869 H855 0.961 . S
C869 C868 1.502 . S
C870 H856 0.960 . S
C870 H857 0.961 . S
C870 H858 0.959 . S
C870 C868 1.561 . S
C871 C868 1.526 . S
C871 C872 1.396 . S
C871 C876 1.390 . S
C872 C866 1.465 . S
C872 C871 1.396 . S
C872 C873 1.399 . S
C873 H859 0.929 . S
C873 C872 1.399 . S
C873 C874 1.385 . S
C874 H860 0.931 . S
C874 C873 1.385 . S
C874 C875 1.389 . S
C875 C874 1.389 . S
C875 C876 1.387 . S
C876 H861 0.930 . S
C876 C871 1.390 . S
C876 C875 1.387 . S
H877 C889 0.930 . S
H878 C891 0.930 . S
H879 C892 0.930 . S
H880 C896 0.959 . S
H881 C896 0.959 . S
H882 C896 0.961 . S
H883 C897 0.960 . S
H884 C897 0.961 1_554 S
H885 C897 0.959 1_554 S
H886 C900 0.929 . S
H887 C901 0.931 . S
H888 C903 0.930 . S
C889 H877 0.930 . S
C889 C890 1.399 . S
C889 C894 1.399 . S
C890 C889 1.399 . S
C890 C891 1.376 . S
C891 H878 0.930 . S
C891 C890 1.376 . S
C891 C892 1.388 . S
C892 H879 0.930 . S
C892 C891 1.388 . S
C892 C893 1.390 . S
C893 C892 1.390 . S
C893 C894 1.394 . S
C893 C899 1.462 . S
C894 C889 1.399 . S
C894 C893 1.394 . S
C894 C895 1.516 . S
C895 C894 1.516 . S
C895 C896 1.502 . S
C895 C897 1.561 . S
C895 C898 1.526 1_556 S
C896 H880 0.959 . S
C896 H881 0.959 . S
C896 H882 0.961 . S
C896 C895 1.502 . S
C897 H883 0.960 . S
C897 H884 0.961 1_556 S
C897 H885 0.959 1_556 S
C897 C895 1.561 . S
C898 C895 1.526 1_554 S
C898 C899 1.397 1_554 S
C898 C903 1.390 . S
C899 C893 1.462 . S
C899 C898 1.397 1_556 S
C899 C900 1.401 1_556 S
C900 H886 0.929 . S
C900 C899 1.401 1_554 S
C900 C901 1.385 . S
C901 H887 0.931 . S
C901 C900 1.385 . S
C901 C902 1.389 . S
C902 C901 1.389 . S
C902 C903 1.387 . S
C903 H888 0.930 . S
C903 C898 1.390 . S
C903 C902 1.387 . S
H904 C916 0.930 . S
H905 C918 0.930 . S
H906 C919 0.930 . S
H907 C923 0.959 . S
H908 C923 0.959 . S
H909 C923 0.961 . S
H910 C924 0.960 . S
H911 C924 0.961 . S
H912 C924 0.959 . S
H913 C927 0.929 . S
H914 C928 0.931 . S
H915 C930 0.930 . S
C916 H904 0.930 . S
C916 C917 1.399 . S
C916 C921 1.399 . S
C917 C916 1.399 . S
C917 C918 1.376 . S
C918 H905 0.930 . S
C918 C917 1.376 . S
C918 C919 1.388 . S
C919 H906 0.930 . S
C919 C918 1.388 . S
C919 C920 1.390 . S
C920 C919 1.390 . S
C920 C921 1.394 . S
C920 C926 1.465 . S
C921 C916 1.399 . S
C921 C920 1.394 . S
C921 C922 1.516 . S
C922 C921 1.516 . S
C922 C923 1.502 . S
C922 C924 1.561 . S
C922 C925 1.526 . S
C923 H907 0.959 . S
C923 H908 0.959 . S
C923 H909 0.961 . S
C923 C922 1.502 . S
C924 H910 0.960 . S
C924 H911 0.961 . S
C924 H912 0.959 . S
C924 C922 1.561 . S
C925 C922 1.526 . S
C925 C926 1.396 . S
C925 C930 1.390 . S
C926 C920 1.465 . S
C926 C925 1.396 . S
C926 C927 1.399 . S
C927 H913 0.929 . S
C927 C926 1.399 . S
C927 C928 1.385 . S
C928 H914 0.931 . S
C928 C927 1.385 . S
C928 C929 1.389 . S
C929 C928 1.389 . S
C929 C930 1.387 . S
C930 H915 0.930 . S
C930 C925 1.390 . S
C930 C929 1.387 . S
H931 C943 0.930 . S
H932 C945 0.930 . S
H933 C946 0.930 . S
H934 C950 0.959 . S
H935 C950 0.959 1_565 S
H936 C950 0.961 . S
H937 C951 0.960 . S
H938 C951 0.961 . S
H939 C951 0.959 . S
H940 C954 0.929 . S
H941 C955 0.931 . S
H942 C957 0.930 . S
C943 H931 0.930 . S
C943 C944 1.399 . S
C943 C948 1.399 . S
C944 C943 1.399 . S
C944 C945 1.376 . S
C945 H932 0.930 . S
C945 C944 1.376 . S
C945 C946 1.388 . S
C946 H933 0.930 . S
C946 C945 1.388 . S
C946 C947 1.390 . S
C947 C946 1.390 . S
C947 C948 1.394 . S
C947 C953 1.465 . S
C948 C943 1.399 . S
C948 C947 1.394 . S
C948 C949 1.516 . S
C949 C948 1.516 . S
C949 C950 1.502 . S
C949 C951 1.561 1_545 S
C949 C952 1.526 1_545 S
C950 H934 0.959 . S
C950 H935 0.959 1_545 S
C950 H936 0.961 . S
C950 C949 1.502 . S
C951 H937 0.960 . S
C951 H938 0.961 . S
C951 H939 0.959 . S
C951 C949 1.561 1_565 S
C952 C949 1.526 1_565 S
C952 C953 1.396 1_565 S
C952 C957 1.390 . S
C953 C947 1.465 . S
C953 C952 1.396 1_545 S
C953 C954 1.399 . S
C954 H940 0.929 . S
C954 C953 1.399 . S
C954 C955 1.385 1_545 S
C955 H941 0.931 . S
C955 C954 1.385 1_565 S
C955 C956 1.389 . S
C956 C955 1.389 . S
C956 C957 1.387 . S
C957 H942 0.930 . S
C957 C952 1.390 . S
C957 C956 1.387 . S
H958 C970 0.930 . S
H959 C972 0.930 . S
H960 C973 0.930 . S
H961 C977 0.959 . S
H962 C977 0.959 . S
H963 C977 0.961 . S
H964 C978 0.960 . S
H965 C978 0.961 . S
H966 C978 0.959 . S
H967 C981 0.929 . S
H968 C982 0.931 . S
H969 C984 0.930 . S
C970 H958 0.930 . S
C970 C971 1.399 . S
C970 C975 1.399 . S
C971 C970 1.399 . S
C971 C972 1.376 . S
C972 H959 0.930 . S
C972 C971 1.376 . S
C972 C973 1.388 . S
C973 H960 0.930 . S
C973 C972 1.388 . S
C973 C974 1.390 . S
C974 C973 1.390 . S
C974 C975 1.394 . S
C974 C980 1.465 . S
C975 C970 1.399 . S
C975 C974 1.394 . S
C975 C976 1.516 . S
C976 C975 1.516 . S
C976 C977 1.502 . S
C976 C978 1.561 . S
C976 C979 1.526 . S
C977 H961 0.959 . S
C977 H962 0.959 . S
C977 H963 0.961 . S
C977 C976 1.502 . S
C978 H964 0.960 . S
C978 H965 0.961 . S
C978 H966 0.959 . S
C978 C976 1.561 . S
C979 C976 1.526 . S
C979 C980 1.396 . S
C979 C984 1.390 . S
C980 C974 1.465 . S
C980 C979 1.396 . S
C980 C981 1.399 . S
C981 H967 0.929 . S
C981 C980 1.399 . S
C981 C982 1.385 . S
C982 H968 0.931 . S
C982 C981 1.385 . S
C982 C983 1.389 . S
C983 C982 1.389 . S
C983 C984 1.387 . S
C984 H969 0.930 . S
C984 C979 1.390 . S
C984 C983 1.387 . S
H985 C997 0.930 . S
H986 C999 0.940 . S
H987 C1000 0.930 . S
H988 C1004 0.959 . S
H989 C1004 0.959 . S
H990 C1004 0.961 . S
H991 C1005 0.960 . S
H992 C1005 0.961 1_545 S
H993 C1005 0.959 1_545 S
H994 C1008 0.929 . S
H995 C1009 0.931 . S
H996 C1011 0.930 . S
C997 H985 0.930 . S
C997 C998 1.399 . S
C997 C1002 1.399 . S
C998 C997 1.399 . S
C998 C999 1.376 . S
C999 H986 0.940 . S
C999 C998 1.376 . S
C999 C1000 1.388 . S
C1000 H987 0.930 . S
C1000 C999 1.388 . S
C1000 C1001 1.390 . S
C1001 C1000 1.390 . S
C1001 C1002 1.394 . S
C1001 C1007 1.465 1_565 S
C1002 C997 1.399 . S
C1002 C1001 1.394 . S
C1002 C1003 1.516 . S
C1003 C1002 1.516 . S
C1003 C1004 1.502 . S
C1003 C1005 1.561 . S
C1003 C1006 1.526 1_565 S
C1004 H988 0.959 . S
C1004 H989 0.959 . S
C1004 H990 0.961 . S
C1004 C1003 1.502 . S
C1005 H991 0.960 . S
C1005 H992 0.961 1_565 S
C1005 H993 0.959 1_565 S
C1005 C1003 1.561 . S
C1006 C1003 1.526 1_545 S
C1006 C1007 1.396 . S
C1006 C1011 1.390 . S
C1007 C1001 1.465 1_545 S
C1007 C1006 1.396 . S
C1007 C1008 1.399 . S
C1008 H994 0.929 . S
C1008 C1007 1.399 . S
C1008 C1009 1.385 . S
C1009 H995 0.931 . S
C1009 C1008 1.385 . S
C1009 C1010 1.389 . S
C1010 C1009 1.389 . S
C1010 C1011 1.387 . S
C1011 H996 0.930 . S
C1011 C1006 1.390 . S
C1011 C1010 1.387 . S
H1012 C1024 0.930 . S
H1013 C1026 0.930 . S
H1014 C1027 0.930 . S
H1015 C1031 0.959 . S
H1016 C1031 0.959 . S
H1017 C1031 0.961 . S
H1018 C1032 0.960 . S
H1019 C1032 0.961 . S
H1020 C1032 0.959 . S
H1021 C1035 0.929 . S
H1022 C1036 0.931 . S
H1023 C1038 0.930 . S
C1024 H1012 0.930 . S
C1024 C1025 1.399 . S
C1024 C1029 1.399 . S
C1025 C1024 1.399 . S
C1025 C1026 1.376 . S
C1026 H1013 0.930 . S
C1026 C1025 1.376 . S
C1026 C1027 1.388 . S
C1027 H1014 0.930 . S
C1027 C1026 1.388 . S
C1027 C1028 1.390 . S
C1028 C1027 1.390 . S
C1028 C1029 1.394 . S
C1028 C1034 1.465 . S
C1029 C1024 1.399 . S
C1029 C1028 1.394 . S
C1029 C1030 1.516 . S
C1030 C1029 1.516 . S
C1030 C1031 1.502 . S
C1030 C1032 1.561 . S
C1030 C1033 1.526 . S
C1031 H1015 0.959 . S
C1031 H1016 0.959 . S
C1031 H1017 0.961 . S
C1031 C1030 1.502 . S
C1032 H1018 0.960 . S
C1032 H1019 0.961 . S
C1032 H1020 0.959 . S
C1032 C1030 1.561 . S
C1033 C1030 1.526 . S
C1033 C1034 1.396 . S
C1033 C1038 1.390 . S
C1034 C1028 1.465 . S
C1034 C1033 1.396 . S
C1034 C1035 1.399 . S
C1035 H1021 0.929 . S
C1035 C1034 1.399 . S
C1035 C1036 1.385 . S
C1036 H1022 0.931 . S
C1036 C1035 1.385 . S
C1036 C1037 1.389 . S
C1037 C1036 1.389 . S
C1037 C1038 1.387 . S
C1038 H1023 0.930 . S
C1038 C1033 1.390 . S
C1038 C1037 1.387 . S
H1039 C1051 0.930 . S
H1040 C1053 0.930 . S
H1041 C1054 0.930 . S
H1042 C1058 0.959 . S
H1043 C1058 0.959 . S
H1044 C1058 0.961 . S
H1045 C1059 0.960 . S
H1046 C1059 0.961 . S
H1047 C1059 0.959 . S
H1048 C1062 0.929 . S
H1049 C1063 0.931 . S
H1050 C1065 0.930 . S
C1051 H1039 0.930 . S
C1051 C1052 1.399 . S
C1051 C1056 1.399 . S
C1052 C1051 1.399 . S
C1052 C1053 1.376 . S
C1053 H1040 0.930 . S
C1053 C1052 1.376 . S
C1053 C1054 1.388 . S
C1054 H1041 0.930 . S
C1054 C1053 1.388 . S
C1054 C1055 1.390 . S
C1055 C1054 1.390 . S
C1055 C1056 1.394 . S
C1055 C1061 1.465 . S
C1056 C1051 1.399 . S
C1056 C1055 1.394 . S
C1056 C1057 1.516 1_545 S
C1057 C1056 1.516 1_565 S
C1057 C1058 1.502 . S
C1057 C1059 1.561 . S
C1057 C1060 1.526 . S
C1058 H1042 0.959 . S
C1058 H1043 0.959 . S
C1058 H1044 0.961 . S
C1058 C1057 1.502 . S
C1059 H1045 0.960 . S
C1059 H1046 0.961 . S
C1059 H1047 0.959 . S
C1059 C1057 1.561 . S
C1060 C1057 1.526 . S
C1060 C1061 1.396 1_565 S
C1060 C1065 1.390 . S
C1061 C1055 1.465 . S
C1061 C1060 1.396 1_545 S
C1061 C1062 1.399 . S
C1062 H1048 0.929 . S
C1062 C1061 1.399 . S
C1062 C1063 1.385 1_545 S
C1063 H1049 0.931 . S
C1063 C1062 1.385 1_565 S
C1063 C1064 1.389 . S
C1064 C1063 1.389 . S
C1064 C1065 1.387 . S
C1065 H1050 0.930 . S
C1065 C1060 1.390 . S
C1065 C1064 1.387 . S
H1066 C1078 0.930 . S
H1067 C1080 0.930 . S
H1068 C1081 0.930 . S
H1069 C1085 0.959 . S
H1070 C1085 0.959 . S
H1071 C1085 0.961 . S
H1072 C1086 0.960 . S
H1073 C1086 0.961 . S
H1074 C1086 0.959 . S
H1075 C1089 0.929 . S
H1076 C1090 0.931 . S
H1077 C1092 0.930 . S
C1078 H1066 0.930 . S
C1078 C1079 1.399 . S
C1078 C1083 1.399 . S
C1079 C1078 1.399 . S
C1079 C1080 1.376 . S
C1080 H1067 0.930 . S
C1080 C1079 1.376 . S
C1080 C1081 1.388 . S
C1081 H1068 0.930 . S
C1081 C1080 1.388 . S
C1081 C1082 1.390 . S
C1082 C1081 1.390 . S
C1082 C1083 1.394 . S
C1082 C1088 1.465 . S
C1083 C1078 1.399 . S
C1083 C1082 1.394 . S
C1083 C1084 1.516 . S
C1084 C1083 1.516 . S
C1084 C1085 1.502 . S
C1084 C1086 1.561 . S
C1084 C1087 1.526 . S
C1085 H1069 0.959 . S
C1085 H1070 0.959 . S
C1085 H1071 0.961 . S
C1085 C1084 1.502 . S
C1086 H1072 0.960 . S
C1086 H1073 0.961 . S
C1086 H1074 0.959 . S
C1086 C1084 1.561 . S
C1087 C1084 1.526 . S
C1087 C1088 1.396 . S
C1087 C1092 1.390 . S
C1088 C1082 1.465 . S
C1088 C1087 1.396 . S
C1088 C1089 1.399 . S
C1089 H1075 0.929 . S
C1089 C1088 1.399 . S
C1089 C1090 1.385 . S
C1090 H1076 0.931 . S
C1090 C1089 1.385 . S
C1090 C1091 1.389 . S
C1091 C1090 1.389 . S
C1091 C1092 1.387 . S
C1092 H1077 0.930 . S
C1092 C1087 1.390 . S
C1092 C1091 1.387 . S
H1093 C1105 0.930 . S
H1094 C1107 0.930 . S
H1095 C1108 0.930 . S
H1096 C1112 0.959 . S
H1097 C1112 0.959 . S
H1098 C1112 0.961 . S
H1099 C1113 0.949 1_565 S
H1100 C1113 0.961 . S
H1101 C1113 0.959 1_565 S
H1102 C1116 0.929 . S
H1103 C1117 0.931 . S
H1104 C1119 0.930 . S
C1105 H1093 0.930 . S
C1105 C1106 1.399 . S
C1105 C1110 1.399 . S
C1106 C1105 1.399 . S
C1106 C1107 1.376 . S
C1107 H1094 0.930 . S
C1107 C1106 1.376 . S
C1107 C1108 1.388 . S
C1108 H1095 0.930 . S
C1108 C1107 1.388 . S
C1108 C1109 1.390 . S
C1109 C1108 1.390 . S
C1109 C1110 1.394 . S
C1109 C1115 1.465 . S
C1110 C1105 1.399 . S
C1110 C1109 1.394 . S
C1110 C1111 1.516 1_565 S
C1111 C1110 1.516 1_545 S
C1111 C1112 1.502 . S
C1111 C1113 1.561 . S
C1111 C1114 1.526 . S
C1112 H1096 0.959 . S
C1112 H1097 0.959 . S
C1112 H1098 0.961 . S
C1112 C1111 1.502 . S
C1113 H1099 0.949 1_545 S
C1113 H1100 0.961 . S
C1113 H1101 0.959 1_545 S
C1113 C1111 1.561 . S
C1114 C1111 1.526 . S
C1114 C1115 1.396 1_545 S
C1114 C1119 1.390 . S
C1115 C1109 1.465 . S
C1115 C1114 1.396 1_565 S
C1115 C1116 1.399 . S
C1116 H1102 0.929 . S
C1116 C1115 1.399 . S
C1116 C1117 1.385 1_565 S
C1117 H1103 0.931 . S
C1117 C1116 1.385 1_545 S
C1117 C1118 1.389 . S
C1118 C1117 1.389 . S
C1118 C1119 1.387 . S
C1119 H1104 0.930 . S
C1119 C1114 1.390 . S
C1119 C1118 1.387 . S
H1120 C1132 0.930 . S
H1121 C1134 0.930 . S
H1122 C1135 0.930 . S
H1123 C1139 0.959 . S
H1124 C1139 0.959 . S
H1125 C1139 0.961 . S
H1126 C1140 0.960 . S
H1127 C1140 0.961 . S
H1128 C1140 0.959 . S
H1129 C1143 0.929 . S
H1130 C1144 0.931 . S
H1131 C1146 0.930 . S
C1132 H1120 0.930 . S
C1132 C1133 1.399 . S
C1132 C1137 1.399 . S
C1133 C1132 1.399 . S
C1133 C1134 1.376 . S
C1134 H1121 0.930 . S
C1134 C1133 1.376 . S
C1134 C1135 1.388 . S
C1135 H1122 0.930 . S
C1135 C1134 1.388 . S
C1135 C1136 1.390 . S
C1136 C1135 1.390 . S
C1136 C1137 1.394 . S
C1136 C1142 1.465 . S
C1137 C1132 1.399 . S
C1137 C1136 1.394 . S
C1137 C1138 1.516 . S
C1138 C1137 1.516 . S
C1138 C1139 1.502 . S
C1138 C1140 1.561 . S
C1138 C1141 1.526 . S
C1139 H1123 0.959 . S
C1139 H1124 0.959 . S
C1139 H1125 0.961 . S
C1139 C1138 1.502 . S
C1140 H1126 0.960 . S
C1140 H1127 0.961 . S
C1140 H1128 0.959 . S
C1140 C1138 1.561 . S
C1141 C1138 1.526 . S
C1141 C1142 1.396 . S
C1141 C1146 1.390 . S
C1142 C1136 1.465 . S
C1142 C1141 1.396 . S
C1142 C1143 1.399 . S
C1143 H1129 0.929 . S
C1143 C1142 1.399 . S
C1143 C1144 1.385 . S
C1144 H1130 0.931 . S
C1144 C1143 1.385 . S
C1144 C1145 1.389 . S
C1145 C1144 1.389 . S
C1145 C1146 1.387 . S
C1146 H1131 0.930 . S
C1146 C1141 1.390 . S
C1146 C1145 1.387 . S
H1147 C1159 0.930 . S
H1148 C1161 0.930 1_554 S
H1149 C1162 0.930 . S
H1150 C1166 0.959 . S
H1151 C1166 0.959 . S
H1152 C1166 0.961 . S
H1153 C1167 0.960 . S
H1154 C1167 0.961 . S
H1155 C1167 0.959 . S
H1156 C1170 0.929 . S
H1157 C1171 0.931 . S
H1158 C1173 0.930 . S
C1159 H1147 0.930 . S
C1159 C1160 1.399 . S
C1159 C1164 1.399 . S
C1160 C1159 1.399 . S
C1160 C1161 1.376 . S
C1161 H1148 0.930 1_556 S
C1161 C1160 1.376 . S
C1161 C1162 1.388 . S
C1162 H1149 0.930 . S
C1162 C1161 1.388 . S
C1162 C1163 1.390 . S
C1163 C1162 1.390 . S
C1163 C1164 1.394 . S
C1163 C1169 1.465 . S
C1164 C1159 1.399 . S
C1164 C1163 1.394 . S
C1164 C1165 1.516 . S
C1165 C1164 1.516 . S
C1165 C1166 1.502 . S
C1165 C1167 1.561 . S
C1165 C1168 1.526 . S
C1166 H1150 0.959 . S
C1166 H1151 0.959 . S
C1166 H1152 0.961 . S
C1166 C1165 1.502 . S
C1167 H1153 0.960 . S
C1167 H1154 0.961 . S
C1167 H1155 0.959 . S
C1167 C1165 1.561 . S
C1168 C1165 1.526 . S
C1168 C1169 1.396 . S
C1168 C1173 1.390 . S
C1169 C1163 1.465 . S
C1169 C1168 1.396 . S
C1169 C1170 1.399 . S
C1170 H1156 0.929 . S
C1170 C1169 1.399 . S
C1170 C1171 1.385 . S
C1171 H1157 0.931 . S
C1171 C1170 1.385 . S
C1171 C1172 1.389 . S
C1172 C1171 1.389 . S
C1172 C1173 1.387 . S
C1173 H1158 0.930 . S
C1173 C1168 1.390 . S
C1173 C1172 1.387 . S
H1174 C1186 0.930 . S
H1175 C1188 0.930 . S
H1176 C1189 0.930 . S
H1177 C1193 0.959 1_655 S
H1178 C1193 0.959 1_655 S
H1179 C1193 0.961 . S
H1180 C1194 0.960 . S
H1181 C1194 0.961 . S
H1182 C1194 0.959 . S
H1183 C1197 0.929 . S
H1184 C1198 0.931 . S
H1185 C1200 0.930 . S
C1186 H1174 0.930 . S
C1186 C1187 1.399 . S
C1186 C1191 1.399 . S
C1187 C1186 1.399 . S
C1187 C1188 1.376 . S
C1188 H1175 0.930 . S
C1188 C1187 1.376 . S
C1188 C1189 1.388 . S
C1189 H1176 0.930 . S
C1189 C1188 1.388 . S
C1189 C1190 1.390 . S
C1190 C1189 1.390 . S
C1190 C1191 1.394 . S
C1190 C1196 1.465 . S
C1191 C1186 1.399 . S
C1191 C1190 1.394 . S
C1191 C1192 1.516 . S
C1192 C1191 1.516 . S
C1192 C1193 1.502 . S
C1192 C1194 1.561 . S
C1192 C1195 1.511 1_455 S
C1193 H1177 0.959 1_455 S
C1193 H1178 0.959 1_455 S
C1193 H1179 0.961 . S
C1193 C1192 1.502 . S
C1194 H1180 0.960 . S
C1194 H1181 0.961 . S
C1194 H1182 0.959 . S
C1194 C1192 1.561 . S
C1195 C1192 1.511 1_655 S
C1195 C1196 1.390 1_655 S
C1195 C1200 1.408 . S
C1196 C1190 1.465 . S
C1196 C1195 1.390 1_455 S
C1196 C1197 1.399 1_455 S
C1197 H1183 0.929 . S
C1197 C1196 1.399 1_655 S
C1197 C1198 1.385 . S
C1198 H1184 0.931 . S
C1198 C1197 1.385 . S
C1198 C1199 1.389 . S
C1199 C1198 1.389 . S
C1199 C1200 1.387 . S
C1200 H1185 0.930 . S
C1200 C1195 1.408 . S
C1200 C1199 1.387 . S
H1201 C1213 0.930 . S
H1202 C1215 0.930 . S
H1203 C1216 0.930 . S
H1204 C1220 0.959 . S
H1205 C1220 0.959 . S
H1206 C1220 0.961 . S
H1207 C1221 0.960 . S
H1208 C1221 0.961 . S
H1209 C1221 0.959 . S
H1210 C1224 0.929 . S
H1211 C1225 0.931 . S
H1212 C1227 0.930 . S
C1213 H1201 0.930 . S
C1213 C1214 1.399 . S
C1213 C1218 1.399 . S
C1214 C1213 1.399 . S
C1214 C1215 1.376 . S
C1215 H1202 0.930 . S
C1215 C1214 1.376 . S
C1215 C1216 1.388 . S
C1216 H1203 0.930 . S
C1216 C1215 1.388 . S
C1216 C1217 1.390 . S
C1217 C1216 1.390 . S
C1217 C1218 1.394 . S
C1217 C1223 1.465 . S
C1218 C1213 1.399 . S
C1218 C1217 1.394 . S
C1218 C1219 1.516 . S
C1219 C1218 1.516 . S
C1219 C1220 1.502 . S
C1219 C1221 1.561 . S
C1219 C1222 1.526 . S
C1220 H1204 0.959 . S
C1220 H1205 0.959 . S
C1220 H1206 0.961 . S
C1220 C1219 1.502 . S
C1221 H1207 0.960 . S
C1221 H1208 0.961 . S
C1221 H1209 0.959 . S
C1221 C1219 1.561 . S
C1222 C1219 1.526 . S
C1222 C1223 1.396 . S
C1222 C1227 1.390 . S
C1223 C1217 1.465 . S
C1223 C1222 1.396 . S
C1223 C1224 1.399 . S
C1224 H1210 0.929 . S
C1224 C1223 1.399 . S
C1224 C1225 1.385 . S
C1225 H1211 0.931 . S
C1225 C1224 1.385 . S
C1225 C1226 1.389 . S
C1226 C1225 1.389 . S
C1226 C1227 1.387 . S
C1227 H1212 0.930 . S
C1227 C1222 1.390 . S
C1227 C1226 1.387 . S
H1228 C1240 0.930 . S
H1229 C1242 0.930 . S
H1230 C1243 0.930 . S
H1231 C1247 0.959 . S
H1232 C1247 0.959 . S
H1233 C1247 0.961 . S
H1234 C1248 0.960 . S
H1235 C1248 0.961 1_455 S
H1236 C1248 0.959 1_455 S
H1237 C1251 0.929 . S
H1238 C1252 0.931 . S
H1239 C1254 0.930 . S
C1240 H1228 0.930 . S
C1240 C1241 1.399 . S
C1240 C1245 1.399 . S
C1241 C1240 1.399 . S
C1241 C1242 1.376 . S
C1242 H1229 0.930 . S
C1242 C1241 1.376 . S
C1242 C1243 1.388 . S
C1243 H1230 0.930 . S
C1243 C1242 1.388 . S
C1243 C1244 1.390 . S
C1244 C1243 1.390 . S
C1244 C1245 1.394 . S
C1244 C1250 1.465 . S
C1245 C1240 1.399 . S
C1245 C1244 1.394 . S
C1245 C1246 1.516 . S
C1246 C1245 1.516 . S
C1246 C1247 1.502 . S
C1246 C1248 1.561 . S
C1246 C1249 1.526 1_655 S
C1247 H1231 0.959 . S
C1247 H1232 0.959 . S
C1247 H1233 0.961 . S
C1247 C1246 1.502 . S
C1248 H1234 0.960 . S
C1248 H1235 0.961 1_655 S
C1248 H1236 0.959 1_655 S
C1248 C1246 1.561 . S
C1249 C1246 1.526 1_455 S
C1249 C1250 1.396 1_455 S
C1249 C1254 1.390 . S
C1250 C1244 1.465 . S
C1250 C1249 1.396 1_655 S
C1250 C1251 1.399 1_655 S
C1251 H1237 0.929 . S
C1251 C1250 1.399 1_455 S
C1251 C1252 1.385 . S
C1252 H1238 0.931 . S
C1252 C1251 1.385 . S
C1252 C1253 1.389 . S
C1253 C1252 1.389 . S
C1253 C1254 1.387 . S
C1254 H1239 0.930 . S
C1254 C1249 1.390 . S
C1254 C1253 1.387 . S
H1255 C1267 0.930 . S
H1256 C1269 0.930 . S
H1257 C1270 0.930 . S
H1258 C1274 0.959 . S
H1259 C1274 0.959 . S
H1260 C1274 0.961 . S
H1261 C1275 0.960 . S
H1262 C1275 0.961 . S
H1263 C1275 0.959 . S
H1264 C1278 0.929 . S
H1265 C1279 0.931 . S
H1266 C1281 0.930 . S
C1267 H1255 0.930 . S
C1267 C1268 1.399 . S
C1267 C1272 1.399 . S
C1268 C1267 1.399 . S
C1268 C1269 1.376 . S
C1269 H1256 0.930 . S
C1269 C1268 1.376 . S
C1269 C1270 1.388 . S
C1270 H1257 0.930 . S
C1270 C1269 1.388 . S
C1270 C1271 1.390 . S
C1271 C1270 1.390 . S
C1271 C1272 1.394 . S
C1271 C1277 1.465 . S
C1272 C1267 1.399 . S
C1272 C1271 1.394 . S
C1272 C1273 1.516 . S
C1273 C1272 1.516 . S
C1273 C1274 1.502 . S
C1273 C1275 1.561 . S
C1273 C1276 1.526 . S
C1274 H1258 0.959 . S
C1274 H1259 0.959 . S
C1274 H1260 0.961 . S
C1274 C1273 1.502 . S
C1275 H1261 0.960 . S
C1275 H1262 0.961 . S
C1275 H1263 0.959 . S
C1275 C1273 1.561 . S
C1276 C1273 1.526 . S
C1276 C1277 1.396 . S
C1276 C1281 1.390 . S
C1277 C1271 1.465 . S
C1277 C1276 1.396 . S
C1277 C1278 1.399 . S
C1278 H1264 0.929 . S
C1278 C1277 1.399 . S
C1278 C1279 1.385 . S
C1279 H1265 0.931 . S
C1279 C1278 1.385 . S
C1279 C1280 1.389 . S
C1280 C1279 1.389 . S
C1280 C1281 1.387 . S
C1281 H1266 0.930 . S
C1281 C1276 1.390 . S
C1281 C1280 1.387 . S
H1282 C1294 0.930 . S
H1283 C1296 0.930 . S
H1284 C1297 0.930 . S
H1285 C1301 0.959 . S
H1286 C1301 0.959 . S
H1287 C1301 0.961 . S
H1288 C1302 0.960 . S
H1289 C1302 0.961 1_655 S
H1290 C1302 0.959 . S
H1291 C1305 0.929 . S
H1292 C1306 0.931 . S
H1293 C1308 0.930 . S
C1294 H1282 0.930 . S
C1294 C1295 1.399 . S
C1294 C1299 1.399 . S
C1295 C1294 1.399 . S
C1295 C1296 1.376 . S
C1296 H1283 0.930 . S
C1296 C1295 1.376 . S
C1296 C1297 1.388 . S
C1297 H1284 0.930 . S
C1297 C1296 1.388 . S
C1297 C1298 1.390 . S
C1298 C1297 1.390 . S
C1298 C1299 1.394 . S
C1298 C1304 1.465 . S
C1299 C1294 1.399 . S
C1299 C1298 1.394 . S
C1299 C1300 1.516 . S
C1300 C1299 1.516 . S
C1300 C1301 1.502 1_455 S
C1300 C1302 1.561 . S
C1300 C1303 1.526 1_455 S
C1301 H1285 0.959 . S
C1301 H1286 0.959 . S
C1301 H1287 0.961 . S
C1301 C1300 1.502 1_655 S
C1302 H1288 0.960 . S
C1302 H1289 0.961 1_455 S
C1302 H1290 0.959 . S
C1302 C1300 1.561 . S
C1303 C1300 1.526 1_655 S
C1303 C1304 1.396 1_655 S
C1303 C1308 1.390 . S
C1304 C1298 1.465 . S
C1304 C1303 1.396 1_455 S
C1304 C1305 1.399 . S
C1305 H1291 0.929 . S
C1305 C1304 1.399 . S
C1305 C1306 1.385 1_455 S
C1306 H1292 0.931 . S
C1306 C1305 1.385 1_655 S
C1306 C1307 1.389 . S
C1307 C1306 1.389 . S
C1307 C1308 1.387 . S
C1308 H1293 0.930 . S
C1308 C1303 1.390 . S
C1308 C1307 1.387 . S
H1309 C1321 0.930 . S
H1310 C1323 0.930 . S
H1311 C1324 0.930 . S
H1312 C1328 0.959 . S
H1313 C1328 0.959 . S
H1314 C1328 0.961 . S
H1315 C1329 0.960 . S
H1316 C1329 0.961 . S
H1317 C1329 0.959 . S
H1318 C1332 0.929 . S
H1319 C1333 0.931 . S
H1320 C1335 0.930 . S
C1321 H1309 0.930 . S
C1321 C1322 1.399 . S
C1321 C1326 1.399 . S
C1322 C1321 1.399 . S
C1322 C1323 1.376 . S
C1323 H1310 0.930 . S
C1323 C1322 1.376 . S
C1323 C1324 1.388 . S
C1324 H1311 0.930 . S
C1324 C1323 1.388 . S
C1324 C1325 1.390 . S
C1325 C1324 1.390 . S
C1325 C1326 1.394 . S
C1325 C1331 1.465 . S
C1326 C1321 1.399 . S
C1326 C1325 1.394 . S
C1326 C1327 1.516 . S
C1327 C1326 1.516 . S
C1327 C1328 1.502 . S
C1327 C1329 1.561 . S
C1327 C1330 1.526 . S
C1328 H1312 0.959 . S
C1328 H1313 0.959 . S
C1328 H1314 0.961 . S
C1328 C1327 1.502 . S
C1329 H1315 0.960 . S
C1329 H1316 0.961 . S
C1329 H1317 0.959 . S
C1329 C1327 1.561 . S
C1330 C1327 1.526 . S
C1330 C1331 1.396 . S
C1330 C1335 1.390 . S
C1331 C1325 1.465 . S
C1331 C1330 1.396 . S
C1331 C1332 1.399 . S
C1332 H1318 0.929 . S
C1332 C1331 1.399 . S
C1332 C1333 1.385 . S
C1333 H1319 0.931 . S
C1333 C1332 1.385 . S
C1333 C1334 1.389 . S
C1334 C1333 1.389 . S
C1334 C1335 1.387 . S
C1335 H1320 0.930 . S
C1335 C1330 1.390 . S
C1335 C1334 1.387 . S
H1336 C1348 0.930 . S
H1337 C1350 0.930 . S
H1338 C1351 0.930 . S
H1339 C1355 0.959 . S
H1340 C1355 0.959 . S
H1341 C1355 0.961 . S
H1342 C1356 0.960 . S
H1343 C1356 0.961 . S
H1344 C1356 0.959 . S
H1345 C1359 0.929 . S
H1346 C1360 0.931 . S
H1347 C1362 0.930 . S
C1348 H1336 0.930 . S
C1348 C1349 1.399 . S
C1348 C1353 1.399 . S
C1349 C1348 1.399 . S
C1349 C1350 1.376 . S
C1350 H1337 0.930 . S
C1350 C1349 1.376 . S
C1350 C1351 1.388 . S
C1351 H1338 0.930 . S
C1351 C1350 1.388 . S
C1351 C1352 1.390 . S
C1352 C1351 1.390 . S
C1352 C1353 1.394 . S
C1352 C1358 1.465 . S
C1353 C1348 1.399 . S
C1353 C1352 1.394 . S
C1353 C1354 1.516 . S
C1354 C1353 1.516 . S
C1354 C1355 1.502 . S
C1354 C1356 1.561 . S
C1354 C1357 1.526 . S
C1355 H1339 0.959 . S
C1355 H1340 0.959 . S
C1355 H1341 0.961 . S
C1355 C1354 1.502 . S
C1356 H1342 0.960 . S
C1356 H1343 0.961 . S
C1356 H1344 0.959 . S
C1356 C1354 1.561 . S
C1357 C1354 1.526 . S
C1357 C1358 1.396 . S
C1357 C1362 1.390 . S
C1358 C1352 1.465 . S
C1358 C1357 1.396 . S
C1358 C1359 1.399 . S
C1359 H1345 0.929 . S
C1359 C1358 1.399 . S
C1359 C1360 1.385 . S
C1360 H1346 0.931 . S
C1360 C1359 1.385 . S
C1360 C1361 1.389 . S
C1361 C1360 1.389 . S
C1361 C1362 1.387 . S
C1362 H1347 0.930 . S
C1362 C1357 1.390 . S
C1362 C1361 1.387 . S
H1363 C1375 0.930 . S
H1364 C1377 0.930 . S
H1365 C1378 0.930 . S
H1366 C1382 0.959 . S
H1367 C1382 0.959 . S
H1368 C1382 0.961 . S
H1369 C1383 0.960 . S
H1370 C1383 0.961 . S
H1371 C1383 0.959 . S
H1372 C1386 0.929 . S
H1373 C1387 0.931 . S
H1374 C1389 0.930 . S
C1375 H1363 0.930 . S
C1375 C1376 1.399 . S
C1375 C1380 1.399 . S
C1376 C1375 1.399 . S
C1376 C1377 1.376 . S
C1377 H1364 0.930 . S
C1377 C1376 1.376 . S
C1377 C1378 1.388 . S
C1378 H1365 0.930 . S
C1378 C1377 1.388 . S
C1378 C1379 1.390 . S
C1379 C1378 1.390 . S
C1379 C1380 1.394 . S
C1379 C1385 1.465 . S
C1380 C1375 1.399 . S
C1380 C1379 1.394 . S
C1380 C1381 1.516 . S
C1381 C1380 1.516 . S
C1381 C1382 1.502 . S
C1381 C1383 1.561 . S
C1381 C1384 1.526 . S
C1382 H1366 0.959 . S
C1382 H1367 0.959 . S
C1382 H1368 0.961 . S
C1382 C1381 1.502 . S
C1383 H1369 0.960 . S
C1383 H1370 0.961 . S
C1383 H1371 0.959 . S
C1383 C1381 1.561 . S
C1384 C1381 1.526 . S
C1384 C1385 1.396 . S
C1384 C1389 1.390 . S
C1385 C1379 1.465 . S
C1385 C1384 1.396 . S
C1385 C1386 1.399 . S
C1386 H1372 0.929 . S
C1386 C1385 1.399 . S
C1386 C1387 1.385 . S
C1387 H1373 0.931 . S
C1387 C1386 1.385 . S
C1387 C1388 1.389 . S
C1388 C1387 1.389 . S
C1388 C1389 1.387 . S
C1389 H1374 0.930 . S
C1389 C1384 1.390 . S
C1389 C1388 1.387 . S
H1390 C1402 0.930 . S
H1391 C1404 0.930 . S
H1392 C1405 0.930 . S
H1393 C1409 0.959 . S
H1394 C1409 0.959 . S
H1395 C1409 0.961 . S
H1396 C1410 0.960 . S
H1397 C1410 0.961 . S
H1398 C1410 0.959 . S
H1399 C1413 0.929 . S
H1400 C1414 0.931 . S
H1401 C1416 0.930 . S
C1402 H1390 0.930 . S
C1402 C1403 1.399 . S
C1402 C1407 1.399 . S
C1403 C1402 1.399 . S
C1403 C1404 1.376 . S
C1404 H1391 0.930 . S
C1404 C1403 1.376 . S
C1404 C1405 1.388 . S
C1405 H1392 0.930 . S
C1405 C1404 1.388 . S
C1405 C1406 1.390 . S
C1406 C1405 1.390 . S
C1406 C1407 1.394 . S
C1406 C1412 1.465 . S
C1407 C1402 1.399 . S
C1407 C1406 1.394 . S
C1407 C1408 1.516 . S
C1408 C1407 1.516 . S
C1408 C1409 1.502 . S
C1408 C1410 1.561 . S
C1408 C1411 1.526 . S
C1409 H1393 0.959 . S
C1409 H1394 0.959 . S
C1409 H1395 0.961 . S
C1409 C1408 1.502 . S
C1410 H1396 0.960 . S
C1410 H1397 0.961 . S
C1410 H1398 0.959 . S
C1410 C1408 1.561 . S
C1411 C1408 1.526 . S
C1411 C1412 1.396 . S
C1411 C1416 1.390 . S
C1412 C1406 1.465 . S
C1412 C1411 1.396 . S
C1412 C1413 1.399 . S
C1413 H1399 0.929 . S
C1413 C1412 1.399 . S
C1413 C1414 1.385 . S
C1414 H1400 0.931 . S
C1414 C1413 1.385 . S
C1414 C1415 1.389 . S
C1415 C1414 1.389 . S
C1415 C1416 1.387 . S
C1416 H1401 0.930 . S
C1416 C1411 1.390 . S
C1416 C1415 1.387 . S
H1417 C1429 0.930 . S
H1418 C1431 0.930 . S
H1419 C1432 0.930 . S
H1420 C1436 0.959 . S
H1421 C1436 0.959 . S
H1422 C1436 0.961 . S
H1423 C1437 0.960 . S
H1424 C1437 0.961 . S
H1425 C1437 0.959 . S
H1426 C1440 0.929 . S
H1427 C1441 0.931 . S
H1428 C1443 0.930 . S
C1429 H1417 0.930 . S
C1429 C1430 1.399 . S
C1429 C1434 1.399 . S
C1430 C1429 1.399 . S
C1430 C1431 1.376 . S
C1431 H1418 0.930 . S
C1431 C1430 1.376 . S
C1431 C1432 1.388 . S
C1432 H1419 0.930 . S
C1432 C1431 1.388 . S
C1432 C1433 1.390 . S
C1433 C1432 1.390 . S
C1433 C1434 1.394 . S
C1433 C1439 1.465 1_556 S
C1434 C1429 1.399 . S
C1434 C1433 1.394 . S
C1434 C1435 1.516 . S
C1435 C1434 1.516 . S
C1435 C1436 1.502 . S
C1435 C1437 1.561 . S
C1435 C1438 1.526 . S
C1436 H1420 0.959 . S
C1436 H1421 0.959 . S
C1436 H1422 0.961 . S
C1436 C1435 1.502 . S
C1437 H1423 0.960 . S
C1437 H1424 0.961 . S
C1437 H1425 0.959 . S
C1437 C1435 1.561 . S
C1438 C1435 1.526 . S
C1438 C1439 1.396 1_556 S
C1438 C1443 1.390 1_556 S
C1439 C1433 1.465 1_554 S
C1439 C1438 1.396 1_554 S
C1439 C1440 1.399 . S
C1440 H1426 0.929 . S
C1440 C1439 1.399 . S
C1440 C1441 1.385 . S
C1441 H1427 0.931 . S
C1441 C1440 1.385 . S
C1441 C1442 1.389 . S
C1442 C1441 1.389 . S
C1442 C1443 1.387 . S
C1443 H1428 0.930 . S
C1443 C1438 1.390 1_554 S
C1443 C1442 1.387 . S
H1444 C1456 0.930 . S
H1445 C1458 0.930 . S
H1446 C1459 0.930 . S
H1447 C1463 0.959 . S
H1448 C1463 0.959 . S
H1449 C1463 0.961 . S
H1450 C1464 0.960 . S
H1451 C1464 0.961 . S
H1452 C1464 0.959 . S
H1453 C1467 0.929 . S
H1454 C1468 0.931 . S
H1455 C1470 0.930 . S
C1456 H1444 0.930 . S
C1456 C1457 1.399 . S
C1456 C1461 1.399 . S
C1457 C1456 1.399 . S
C1457 C1458 1.376 . S
C1458 H1445 0.930 . S
C1458 C1457 1.376 . S
C1458 C1459 1.388 . S
C1459 H1446 0.930 . S
C1459 C1458 1.388 . S
C1459 C1460 1.390 . S
C1460 C1459 1.390 . S
C1460 C1461 1.394 . S
C1460 C1466 1.465 . S
C1461 C1456 1.399 . S
C1461 C1460 1.394 . S
C1461 C1462 1.516 . S
C1462 C1461 1.516 . S
C1462 C1463 1.502 . S
C1462 C1464 1.561 . S
C1462 C1465 1.526 . S
C1463 H1447 0.959 . S
C1463 H1448 0.959 . S
C1463 H1449 0.961 . S
C1463 C1462 1.502 . S
C1464 H1450 0.960 . S
C1464 H1451 0.961 . S
C1464 H1452 0.959 . S
C1464 C1462 1.561 . S
C1465 C1462 1.526 . S
C1465 C1466 1.396 . S
C1465 C1470 1.390 . S
C1466 C1460 1.465 . S
C1466 C1465 1.396 . S
C1466 C1467 1.399 . S
C1467 H1453 0.929 . S
C1467 C1466 1.399 . S
C1467 C1468 1.385 . S
C1468 H1454 0.931 . S
C1468 C1467 1.385 . S
C1468 C1469 1.389 . S
C1469 C1468 1.389 . S
C1469 C1470 1.387 . S
C1470 H1455 0.930 . S
C1470 C1465 1.390 . S
C1470 C1469 1.387 . S
H1471 C1483 0.930 . S
H1472 C1485 0.930 . S
H1473 C1486 0.930 . S
H1474 C1490 0.959 . S
H1475 C1490 0.959 . S
H1476 C1490 0.961 . S
H1477 C1491 0.960 . S
H1478 C1491 0.961 . S
H1479 C1491 0.959 . S
H1480 C1494 0.929 . S
H1481 C1495 0.931 . S
H1482 C1497 0.930 . S
C1483 H1471 0.930 . S
C1483 C1484 1.399 . S
C1483 C1488 1.399 . S
C1484 C1483 1.399 . S
C1484 C1485 1.376 . S
C1485 H1472 0.930 . S
C1485 C1484 1.376 . S
C1485 C1486 1.388 . S
C1486 H1473 0.930 . S
C1486 C1485 1.388 . S
C1486 C1487 1.390 . S
C1487 C1486 1.390 . S
C1487 C1488 1.394 . S
C1487 C1493 1.465 . S
C1488 C1483 1.399 . S
C1488 C1487 1.394 . S
C1488 C1489 1.516 . S
C1489 C1488 1.516 . S
C1489 C1490 1.502 . S
C1489 C1491 1.561 . S
C1489 C1492 1.526 . S
C1490 H1474 0.959 . S
C1490 H1475 0.959 . S
C1490 H1476 0.961 . S
C1490 C1489 1.502 . S
C1491 H1477 0.960 . S
C1491 H1478 0.961 . S
C1491 H1479 0.959 . S
C1491 C1489 1.561 . S
C1492 C1489 1.526 . S
C1492 C1493 1.396 . S
C1492 C1497 1.390 . S
C1493 C1487 1.465 . S
C1493 C1492 1.396 . S
C1493 C1494 1.399 . S
C1494 H1480 0.929 . S
C1494 C1493 1.399 . S
C1494 C1495 1.385 . S
C1495 H1481 0.931 . S
C1495 C1494 1.385 . S
C1495 C1496 1.389 . S
C1496 C1495 1.389 . S
C1496 C1497 1.387 . S
C1497 H1482 0.930 . S
C1497 C1492 1.390 . S
C1497 C1496 1.387 . S
H1498 C1510 0.930 . S
H1499 C1512 0.930 . S
H1500 C1513 0.930 . S
H1501 C1517 0.959 . S
H1502 C1517 0.959 . S
H1503 C1517 0.961 . S
H1504 C1518 0.960 . S
H1505 C1518 0.961 . S
H1506 C1518 0.959 . S
H1507 C1521 0.929 . S
H1508 C1522 0.931 . S
H1509 C1524 0.930 . S
C1510 H1498 0.930 . S
C1510 C1511 1.399 . S
C1510 C1515 1.399 . S
C1511 C1510 1.399 . S
C1511 C1512 1.376 . S
C1512 H1499 0.930 . S
C1512 C1511 1.376 . S
C1512 C1513 1.388 . S
C1513 H1500 0.930 . S
C1513 C1512 1.388 . S
C1513 C1514 1.390 . S
C1514 C1513 1.390 . S
C1514 C1515 1.394 . S
C1514 C1520 1.465 . S
C1515 C1510 1.399 . S
C1515 C1514 1.394 . S
C1515 C1516 1.516 . S
C1516 C1515 1.516 . S
C1516 C1517 1.502 . S
C1516 C1518 1.561 . S
C1516 C1519 1.526 . S
C1517 H1501 0.959 . S
C1517 H1502 0.959 . S
C1517 H1503 0.961 . S
C1517 C1516 1.502 . S
C1518 H1504 0.960 . S
C1518 H1505 0.961 . S
C1518 H1506 0.959 . S
C1518 C1516 1.561 . S
C1519 C1516 1.526 . S
C1519 C1520 1.396 . S
C1519 C1524 1.390 . S
C1520 C1514 1.465 . S
C1520 C1519 1.396 . S
C1520 C1521 1.399 . S
C1521 H1507 0.929 . S
C1521 C1520 1.399 . S
C1521 C1522 1.385 . S
C1522 H1508 0.931 . S
C1522 C1521 1.385 . S
C1522 C1523 1.389 . S
C1523 C1522 1.389 . S
C1523 C1524 1.387 . S
C1524 H1509 0.930 . S
C1524 C1519 1.390 . S
C1524 C1523 1.387 . S
H1525 C1537 0.930 . S
H1526 C1539 0.930 . S
H1527 C1540 0.930 . S
H1528 C1544 0.959 . S
H1529 C1544 0.959 . S
H1530 C1544 0.961 . S
H1531 C1545 0.960 . S
H1532 C1545 0.961 . S
H1533 C1545 0.959 1_556 S
H1534 C1548 0.929 . S
H1535 C1549 0.931 . S
H1536 C1551 0.930 . S
C1537 H1525 0.930 . S
C1537 C1538 1.399 . S
C1537 C1542 1.399 . S
C1538 C1537 1.399 . S
C1538 C1539 1.376 . S
C1539 H1526 0.930 . S
C1539 C1538 1.376 . S
C1539 C1540 1.388 . S
C1540 H1527 0.930 . S
C1540 C1539 1.388 . S
C1540 C1541 1.390 . S
C1541 C1540 1.390 . S
C1541 C1542 1.394 . S
C1541 C1547 1.465 1_554 S
C1542 C1537 1.399 . S
C1542 C1541 1.394 . S
C1542 C1543 1.516 . S
C1543 C1542 1.516 . S
C1543 C1544 1.502 . S
C1543 C1545 1.561 . S
C1543 C1546 1.526 1_554 S
C1544 H1528 0.959 . S
C1544 H1529 0.959 . S
C1544 H1530 0.961 . S
C1544 C1543 1.502 . S
C1545 H1531 0.960 . S
C1545 H1532 0.961 . S
C1545 H1533 0.959 1_554 S
C1545 C1543 1.561 . S
C1546 C1543 1.526 1_556 S
C1546 C1547 1.396 . S
C1546 C1551 1.390 . S
C1547 C1541 1.465 1_556 S
C1547 C1546 1.396 . S
C1547 C1548 1.399 . S
C1548 H1534 0.929 . S
C1548 C1547 1.399 . S
C1548 C1549 1.385 . S
C1549 H1535 0.931 . S
C1549 C1548 1.385 . S
C1549 C1550 1.389 . S
C1550 C1549 1.389 . S
C1550 C1551 1.387 . S
C1551 H1536 0.930 . S
C1551 C1546 1.390 . S
C1551 C1550 1.387 . S
H1552 C1564 0.930 . S
H1553 C1566 0.930 . S
H1554 C1567 0.930 . S
H1555 C1571 0.959 . S
H1556 C1571 0.959 . S
H1557 C1571 0.961 . S
H1558 C1572 0.960 . S
H1559 C1572 0.961 . S
H1560 C1572 0.959 . S
H1561 C1575 0.929 . S
H1562 C1576 0.931 . S
H1563 C1578 0.930 . S
C1564 H1552 0.930 . S
C1564 C1565 1.399 . S
C1564 C1569 1.399 . S
C1565 C1564 1.399 . S
C1565 C1566 1.376 . S
C1566 H1553 0.930 . S
C1566 C1565 1.376 . S
C1566 C1567 1.388 . S
C1567 H1554 0.930 . S
C1567 C1566 1.388 . S
C1567 C1568 1.390 . S
C1568 C1567 1.390 . S
C1568 C1569 1.394 . S
C1568 C1574 1.465 . S
C1569 C1564 1.399 . S
C1569 C1568 1.394 . S
C1569 C1570 1.516 . S
C1570 C1569 1.516 . S
C1570 C1571 1.502 . S
C1570 C1572 1.561 . S
C1570 C1573 1.526 . S
C1571 H1555 0.959 . S
C1571 H1556 0.959 . S
C1571 H1557 0.961 . S
C1571 C1570 1.502 . S
C1572 H1558 0.960 . S
C1572 H1559 0.961 . S
C1572 H1560 0.959 . S
C1572 C1570 1.561 . S
C1573 C1570 1.526 . S
C1573 C1574 1.396 . S
C1573 C1578 1.390 . S
C1574 C1568 1.465 . S
C1574 C1573 1.396 . S
C1574 C1575 1.399 . S
C1575 H1561 0.929 . S
C1575 C1574 1.399 . S
C1575 C1576 1.385 . S
C1576 H1562 0.931 . S
C1576 C1575 1.385 . S
C1576 C1577 1.389 . S
C1577 C1576 1.389 . S
C1577 C1578 1.387 . S
C1578 H1563 0.930 . S
C1578 C1573 1.390 . S
C1578 C1577 1.387 . S
H1579 C1591 0.930 . S
H1580 C1593 0.930 . S
H1581 C1594 0.930 . S
H1582 C1598 0.959 . S
H1583 C1598 0.959 1_545 S
H1584 C1598 0.961 . S
H1585 C1599 0.960 . S
H1586 C1599 0.961 . S
H1587 C1599 0.959 . S
H1588 C1602 0.956 . S
H1589 C1603 0.931 . S
H1590 C1605 0.930 . S
C1591 H1579 0.930 . S
C1591 C1592 1.399 . S
C1591 C1596 1.399 . S
C1592 C1591 1.399 . S
C1592 C1593 1.376 . S
C1593 H1580 0.930 . S
C1593 C1592 1.376 . S
C1593 C1594 1.388 . S
C1594 H1581 0.930 . S
C1594 C1593 1.388 . S
C1594 C1595 1.390 . S
C1595 C1594 1.390 . S
C1595 C1596 1.394 . S
C1595 C1601 1.465 . S
C1596 C1591 1.399 . S
C1596 C1595 1.394 . S
C1596 C1597 1.516 . S
C1597 C1596 1.516 . S
C1597 C1598 1.502 . S
C1597 C1599 1.561 1_565 S
C1597 C1600 1.526 1_565 S
C1598 H1582 0.959 . S
C1598 H1583 0.959 1_565 S
C1598 H1584 0.961 . S
C1598 C1597 1.502 . S
C1599 H1585 0.960 . S
C1599 H1586 0.961 . S
C1599 H1587 0.959 . S
C1599 C1597 1.561 1_545 S
C1600 C1597 1.526 1_545 S
C1600 C1601 1.396 1_545 S
C1600 C1605 1.390 . S
C1601 C1595 1.465 . S
C1601 C1600 1.396 1_565 S
C1601 C1602 1.409 . S
C1602 H1588 0.956 . S
C1602 C1601 1.409 . S
C1602 C1603 1.350 1_565 S
C1603 H1589 0.931 . S
C1603 C1602 1.350 1_545 S
C1603 C1604 1.389 . S
C1604 C1603 1.389 . S
C1604 C1605 1.387 . S
C1605 H1590 0.930 . S
C1605 C1600 1.390 . S
C1605 C1604 1.387 . S
H1606 C1618 0.930 . S
H1607 C1620 0.930 . S
H1608 C1621 0.930 . S
H1609 C1625 0.959 . S
H1610 C1625 0.959 . S
H1611 C1625 0.961 . S
H1612 C1626 0.960 . S
H1613 C1626 0.961 . S
H1614 C1626 0.959 . S
H1615 C1629 0.929 . S
H1616 C1630 0.931 . S
H1617 C1632 0.930 . S
C1618 H1606 0.930 . S
C1618 C1619 1.399 . S
C1618 C1623 1.399 . S
C1619 C1618 1.399 . S
C1619 C1620 1.376 . S
C1620 H1607 0.930 . S
C1620 C1619 1.376 . S
C1620 C1621 1.388 . S
C1621 H1608 0.930 . S
C1621 C1620 1.388 . S
C1621 C1622 1.390 . S
C1622 C1621 1.390 . S
C1622 C1623 1.394 . S
C1622 C1628 1.465 . S
C1623 C1618 1.399 . S
C1623 C1622 1.394 . S
C1623 C1624 1.516 . S
C1624 C1623 1.516 . S
C1624 C1625 1.502 . S
C1624 C1626 1.561 . S
C1624 C1627 1.526 . S
C1625 H1609 0.959 . S
C1625 H1610 0.959 . S
C1625 H1611 0.961 . S
C1625 C1624 1.502 . S
C1626 H1612 0.960 . S
C1626 H1613 0.961 . S
C1626 H1614 0.959 . S
C1626 C1624 1.561 . S
C1627 C1624 1.526 . S
C1627 C1628 1.396 . S
C1627 C1632 1.390 . S
C1628 C1622 1.465 . S
C1628 C1627 1.396 . S
C1628 C1629 1.399 . S
C1629 H1615 0.929 . S
C1629 C1628 1.399 . S
C1629 C1630 1.385 . S
C1630 H1616 0.931 . S
C1630 C1629 1.385 . S
C1630 C1631 1.389 . S
C1631 C1630 1.389 . S
C1631 C1632 1.387 . S
C1632 H1617 0.930 . S
C1632 C1627 1.390 . S
C1632 C1631 1.387 . S
H1633 C1645 0.930 . S
H1634 C1647 0.930 . S
H1635 C1648 0.930 . S
H1636 C1652 0.959 . S
H1637 C1652 0.959 . S
H1638 C1652 0.961 . S
H1639 C1653 0.960 1_546 S
H1640 C1653 0.961 . S
H1641 C1653 0.959 . S
H1642 C1656 0.918 1_545 S
H1643 C1657 0.931 . S
H1644 C1659 0.930 . S
C1645 H1633 0.930 . S
C1645 C1646 1.399 . S
C1645 C1650 1.399 . S
C1646 C1645 1.399 . S
C1646 C1647 1.376 . S
C1647 H1634 0.930 . S
C1647 C1646 1.376 . S
C1647 C1648 1.388 . S
C1648 H1635 0.930 . S
C1648 C1647 1.388 . S
C1648 C1649 1.390 . S
C1649 C1648 1.390 . S
C1649 C1650 1.394 . S
C1649 C1655 1.465 . S
C1650 C1645 1.399 . S
C1650 C1649 1.394 . S
C1650 C1651 1.516 . S
C1651 C1650 1.516 . S
C1651 C1652 1.502 . S
C1651 C1653 1.561 1_545 S
C1651 C1654 1.526 1_545 S
C1652 H1636 0.959 . S
C1652 H1637 0.959 . S
C1652 H1638 0.961 . S
C1652 C1651 1.502 . S
C1653 H1639 0.960 1_564 S
C1653 H1640 0.961 . S
C1653 H1641 0.959 . S
C1653 C1651 1.561 1_565 S
C1654 C1651 1.526 1_565 S
C1654 C1655 1.396 1_565 S
C1654 C1659 1.390 . S
C1655 C1649 1.465 . S
C1655 C1654 1.396 1_545 S
C1655 C1656 1.399 1_545 S
C1656 H1642 0.918 1_565 S
C1656 C1655 1.399 1_565 S
C1656 C1657 1.385 . S
C1657 H1643 0.931 . S
C1657 C1656 1.385 . S
C1657 C1658 1.389 . S
C1658 C1657 1.389 . S
C1658 C1659 1.387 . S
C1659 H1644 0.930 . S
C1659 C1654 1.390 . S
C1659 C1658 1.387 . S
H1660 C1672 0.930 . S
H1661 C1674 0.930 . S
H1662 C1675 0.930 . S
H1663 C1679 0.959 . S
H1664 C1679 0.959 . S
H1665 C1679 0.961 . S
H1666 C1680 0.960 . S
H1667 C1680 0.961 . S
H1668 C1680 0.959 . S
H1669 C1683 0.929 . S
H1670 C1684 0.931 . S
H1671 C1686 0.930 . S
C1672 H1660 0.930 . S
C1672 C1673 1.399 . S
C1672 C1677 1.399 . S
C1673 C1672 1.399 . S
C1673 C1674 1.376 . S
C1674 H1661 0.930 . S
C1674 C1673 1.376 . S
C1674 C1675 1.388 . S
C1675 H1662 0.930 . S
C1675 C1674 1.388 . S
C1675 C1676 1.390 . S
C1676 C1675 1.390 . S
C1676 C1677 1.394 . S
C1676 C1682 1.465 . S
C1677 C1672 1.399 . S
C1677 C1676 1.394 . S
C1677 C1678 1.516 . S
C1678 C1677 1.516 . S
C1678 C1679 1.502 . S
C1678 C1680 1.561 . S
C1678 C1681 1.526 . S
C1679 H1663 0.959 . S
C1679 H1664 0.959 . S
C1679 H1665 0.961 . S
C1679 C1678 1.502 . S
C1680 H1666 0.960 . S
C1680 H1667 0.961 . S
C1680 H1668 0.959 . S
C1680 C1678 1.561 . S
C1681 C1678 1.526 . S
C1681 C1682 1.396 . S
C1681 C1686 1.390 . S
C1682 C1676 1.465 . S
C1682 C1681 1.396 . S
C1682 C1683 1.399 . S
C1683 H1669 0.929 . S
C1683 C1682 1.399 . S
C1683 C1684 1.385 . S
C1684 H1670 0.931 . S
C1684 C1683 1.385 . S
C1684 C1685 1.389 . S
C1685 C1684 1.389 . S
C1685 C1686 1.387 . S
C1686 H1671 0.930 . S
C1686 C1681 1.390 . S
C1686 C1685 1.387 . S
H1687 C1699 0.930 . S
H1688 C1701 0.930 . S
H1689 C1702 0.930 . S
H1690 C1706 0.959 1_545 S
H1691 C1706 0.959 . S
H1692 C1706 0.961 . S
H1693 C1707 0.960 . S
H1694 C1707 0.961 . S
H1695 C1707 0.959 . S
H1696 C1710 0.929 . S
H1697 C1711 0.931 . S
H1698 C1713 0.930 . S
C1699 H1687 0.930 . S
C1699 C1700 1.399 . S
C1699 C1704 1.399 . S
C1700 C1699 1.399 . S
C1700 C1701 1.376 . S
C1701 H1688 0.930 . S
C1701 C1700 1.376 . S
C1701 C1702 1.388 . S
C1702 H1689 0.930 . S
C1702 C1701 1.388 . S
C1702 C1703 1.390 . S
C1703 C1702 1.390 . S
C1703 C1704 1.394 . S
C1703 C1709 1.465 1_565 S
C1704 C1699 1.399 . S
C1704 C1703 1.394 . S
C1704 C1705 1.516 . S
C1705 C1704 1.516 . S
C1705 C1706 1.502 . S
C1705 C1707 1.561 . S
C1705 C1708 1.526 1_565 S
C1706 H1690 0.959 1_565 S
C1706 H1691 0.959 . S
C1706 H1692 0.961 . S
C1706 C1705 1.502 . S
C1707 H1693 0.960 . S
C1707 H1694 0.961 . S
C1707 H1695 0.959 . S
C1707 C1705 1.561 . S
C1708 C1705 1.526 1_545 S
C1708 C1709 1.396 . S
C1708 C1713 1.390 . S
C1709 C1703 1.465 1_545 S
C1709 C1708 1.396 . S
C1709 C1710 1.399 . S
C1710 H1696 0.929 . S
C1710 C1709 1.399 . S
C1710 C1711 1.385 . S
C1711 H1697 0.931 . S
C1711 C1710 1.385 . S
C1711 C1712 1.389 . S
C1712 C1711 1.389 . S
C1712 C1713 1.387 . S
C1713 H1698 0.930 . S
C1713 C1708 1.390 . S
C1713 C1712 1.387 . S
H1714 C1726 0.930 . S
H1715 C1728 0.930 . S
H1716 C1729 0.930 . S
H1717 C1733 0.959 . S
H1718 C1733 0.959 . S
H1719 C1733 0.961 . S
H1720 C1734 0.960 . S
H1721 C1734 0.961 . S
H1722 C1734 0.959 . S
H1723 C1737 0.929 . S
H1724 C1738 0.931 . S
H1725 C1740 0.930 . S
C1726 H1714 0.930 . S
C1726 C1727 1.399 . S
C1726 C1731 1.399 . S
C1727 C1726 1.399 . S
C1727 C1728 1.376 . S
C1728 H1715 0.930 . S
C1728 C1727 1.376 . S
C1728 C1729 1.388 . S
C1729 H1716 0.930 . S
C1729 C1728 1.388 . S
C1729 C1730 1.390 . S
C1730 C1729 1.390 . S
C1730 C1731 1.394 . S
C1730 C1736 1.465 . S
C1731 C1726 1.399 . S
C1731 C1730 1.394 . S
C1731 C1732 1.516 . S
C1732 C1731 1.516 . S
C1732 C1733 1.502 . S
C1732 C1734 1.561 . S
C1732 C1735 1.526 . S
C1733 H1717 0.959 . S
C1733 H1718 0.959 . S
C1733 H1719 0.961 . S
C1733 C1732 1.502 . S
C1734 H1720 0.960 . S
C1734 H1721 0.961 . S
C1734 H1722 0.959 . S
C1734 C1732 1.561 . S
C1735 C1732 1.526 . S
C1735 C1736 1.396 . S
C1735 C1740 1.390 . S
C1736 C1730 1.465 . S
C1736 C1735 1.396 . S
C1736 C1737 1.399 . S
C1737 H1723 0.929 . S
C1737 C1736 1.399 . S
C1737 C1738 1.385 . S
C1738 H1724 0.931 . S
C1738 C1737 1.385 . S
C1738 C1739 1.389 . S
C1739 C1738 1.389 . S
C1739 C1740 1.387 . S
C1740 H1725 0.930 . S
C1740 C1735 1.390 . S
C1740 C1739 1.387 . S
H1741 C1753 0.930 . S
H1742 C1755 0.930 . S
H1743 C1756 0.930 . S
H1744 C1760 0.959 . S
H1745 C1760 0.959 . S
H1746 C1760 0.961 . S
H1747 C1761 0.960 . S
H1748 C1761 0.961 . S
H1749 C1761 0.959 . S
H1750 C1764 0.929 . S
H1751 C1765 0.931 . S
H1752 C1767 0.930 . S
C1753 H1741 0.930 . S
C1753 C1754 1.399 . S
C1753 C1758 1.399 . S
C1754 C1753 1.399 . S
C1754 C1755 1.376 . S
C1755 H1742 0.930 . S
C1755 C1754 1.376 . S
C1755 C1756 1.388 . S
C1756 H1743 0.930 . S
C1756 C1755 1.388 . S
C1756 C1757 1.390 . S
C1757 C1756 1.390 . S
C1757 C1758 1.394 . S
C1757 C1763 1.465 . S
C1758 C1753 1.399 . S
C1758 C1757 1.394 . S
C1758 C1759 1.516 1_545 S
C1759 C1758 1.516 1_565 S
C1759 C1760 1.502 . S
C1759 C1761 1.561 . S
C1759 C1762 1.526 . S
C1760 H1744 0.959 . S
C1760 H1745 0.959 . S
C1760 H1746 0.961 . S
C1760 C1759 1.502 . S
C1761 H1747 0.960 . S
C1761 H1748 0.961 . S
C1761 H1749 0.959 . S
C1761 C1759 1.561 . S
C1762 C1759 1.526 . S
C1762 C1763 1.396 1_565 S
C1762 C1767 1.390 . S
C1763 C1757 1.465 . S
C1763 C1762 1.396 1_545 S
C1763 C1764 1.399 . S
C1764 H1750 0.929 . S
C1764 C1763 1.399 . S
C1764 C1765 1.385 1_545 S
C1765 H1751 0.931 . S
C1765 C1764 1.385 1_565 S
C1765 C1766 1.389 . S
C1766 C1765 1.389 . S
C1766 C1767 1.387 . S
C1767 H1752 0.930 . S
C1767 C1762 1.390 . S
C1767 C1766 1.387 . S
H1768 C1780 0.930 . S
H1769 C1782 0.930 . S
H1770 C1783 0.930 . S
H1771 C1787 0.959 . S
H1772 C1787 0.959 . S
H1773 C1787 0.961 . S
H1774 C1788 0.960 . S
H1775 C1788 0.961 . S
H1776 C1788 0.959 . S
H1777 C1791 0.929 . S
H1778 C1792 0.931 . S
H1779 C1794 0.930 . S
C1780 H1768 0.930 . S
C1780 C1781 1.399 . S
C1780 C1785 1.399 . S
C1781 C1780 1.399 . S
C1781 C1782 1.376 . S
C1782 H1769 0.930 . S
C1782 C1781 1.376 . S
C1782 C1783 1.388 . S
C1783 H1770 0.930 . S
C1783 C1782 1.388 . S
C1783 C1784 1.390 . S
C1784 C1783 1.390 . S
C1784 C1785 1.394 . S
C1784 C1790 1.465 . S
C1785 C1780 1.399 . S
C1785 C1784 1.394 . S
C1785 C1786 1.516 . S
C1786 C1785 1.516 . S
C1786 C1787 1.502 . S
C1786 C1788 1.561 . S
C1786 C1789 1.526 . S
C1787 H1771 0.959 . S
C1787 H1772 0.959 . S
C1787 H1773 0.961 . S
C1787 C1786 1.502 . S
C1788 H1774 0.960 . S
C1788 H1775 0.961 . S
C1788 H1776 0.959 . S
C1788 C1786 1.561 . S
C1789 C1786 1.526 . S
C1789 C1790 1.396 . S
C1789 C1794 1.390 . S
C1790 C1784 1.465 . S
C1790 C1789 1.396 . S
C1790 C1791 1.399 . S
C1791 H1777 0.929 . S
C1791 C1790 1.399 . S
C1791 C1792 1.385 . S
C1792 H1778 0.931 . S
C1792 C1791 1.385 . S
C1792 C1793 1.389 . S
C1793 C1792 1.389 . S
C1793 C1794 1.387 . S
C1794 H1779 0.930 . S
C1794 C1789 1.390 . S
C1794 C1793 1.387 . S
H1795 C1807 0.930 . S
H1796 C1809 0.930 . S
H1797 C1810 0.930 . S
H1798 C1814 0.959 . S
H1799 C1814 0.959 . S
H1800 C1814 0.961 . S
H1801 C1815 0.960 . S
H1802 C1815 0.961 . S
H1803 C1815 0.959 . S
H1804 C1818 0.929 . S
H1805 C1819 0.931 . S
H1806 C1821 0.930 . S
C1807 H1795 0.930 . S
C1807 C1808 1.399 . S
C1807 C1812 1.399 . S
C1808 C1807 1.399 . S
C1808 C1809 1.376 . S
C1809 H1796 0.930 . S
C1809 C1808 1.376 . S
C1809 C1810 1.388 . S
C1810 H1797 0.930 . S
C1810 C1809 1.388 . S
C1810 C1811 1.390 . S
C1811 C1810 1.390 . S
C1811 C1812 1.394 . S
C1811 C1817 1.465 . S
C1812 C1807 1.399 . S
C1812 C1811 1.394 . S
C1812 C1813 1.516 . S
C1813 C1812 1.516 . S
C1813 C1814 1.502 . S
C1813 C1815 1.561 . S
C1813 C1816 1.526 . S
C1814 H1798 0.959 . S
C1814 H1799 0.959 . S
C1814 H1800 0.961 . S
C1814 C1813 1.502 . S
C1815 H1801 0.960 . S
C1815 H1802 0.961 . S
C1815 H1803 0.959 . S
C1815 C1813 1.561 . S
C1816 C1813 1.526 . S
C1816 C1817 1.396 . S
C1816 C1821 1.390 . S
C1817 C1811 1.465 . S
C1817 C1816 1.396 . S
C1817 C1818 1.399 . S
C1818 H1804 0.929 . S
C1818 C1817 1.399 . S
C1818 C1819 1.385 . S
C1819 H1805 0.931 . S
C1819 C1818 1.385 . S
C1819 C1820 1.389 . S
C1820 C1819 1.389 . S
C1820 C1821 1.387 . S
C1821 H1806 0.930 . S
C1821 C1816 1.390 . S
C1821 C1820 1.387 . S
H1822 C1834 0.930 . S
H1823 C1836 0.930 . S
H1824 C1837 0.930 . S
H1825 C1841 0.959 . S
H1826 C1841 0.959 . S
H1827 C1841 0.961 . S
H1828 C1842 0.960 . S
H1829 C1842 0.961 . S
H1830 C1842 0.959 . S
H1831 C1845 0.929 . S
H1832 C1846 0.931 . S
H1833 C1848 0.930 . S
C1834 H1822 0.930 . S
C1834 C1835 1.399 . S
C1834 C1839 1.399 . S
C1835 C1834 1.399 . S
C1835 C1836 1.376 . S
C1836 H1823 0.930 . S
C1836 C1835 1.376 . S
C1836 C1837 1.388 . S
C1837 H1824 0.930 . S
C1837 C1836 1.388 . S
C1837 C1838 1.390 . S
C1838 C1837 1.390 . S
C1838 C1839 1.394 . S
C1838 C1844 1.465 . S
C1839 C1834 1.399 . S
C1839 C1838 1.394 . S
C1839 C1840 1.516 . S
C1840 C1839 1.516 . S
C1840 C1841 1.502 . S
C1840 C1842 1.561 . S
C1840 C1843 1.526 . S
C1841 H1825 0.959 . S
C1841 H1826 0.959 . S
C1841 H1827 0.961 . S
C1841 C1840 1.502 . S
C1842 H1828 0.960 . S
C1842 H1829 0.961 . S
C1842 H1830 0.959 . S
C1842 C1840 1.561 . S
C1843 C1840 1.526 . S
C1843 C1844 1.396 . S
C1843 C1848 1.390 1_655 S
C1844 C1838 1.465 . S
C1844 C1843 1.396 . S
C1844 C1845 1.399 1_655 S
C1845 H1831 0.929 . S
C1845 C1844 1.399 1_455 S
C1845 C1846 1.385 . S
C1846 H1832 0.931 . S
C1846 C1845 1.385 . S
C1846 C1847 1.389 . S
C1847 C1846 1.389 . S
C1847 C1848 1.387 . S
C1848 H1833 0.930 . S
C1848 C1843 1.390 1_455 S
C1848 C1847 1.387 . S
H1849 C1861 0.930 . S
H1850 C1863 0.930 . S
H1851 C1864 0.930 . S
H1852 C1868 0.959 . S
H1853 C1868 0.959 . S
H1854 C1868 0.961 . S
H1855 C1869 0.960 . S
H1856 C1869 0.961 . S
H1857 C1869 0.959 . S
H1858 C1872 0.929 . S
H1859 C1873 0.931 . S
H1860 C1875 0.930 . S
C1861 H1849 0.930 . S
C1861 C1862 1.399 . S
C1861 C1866 1.399 . S
C1862 C1861 1.399 . S
C1862 C1863 1.376 . S
C1863 H1850 0.930 . S
C1863 C1862 1.376 . S
C1863 C1864 1.388 . S
C1864 H1851 0.930 . S
C1864 C1863 1.388 . S
C1864 C1865 1.390 . S
C1865 C1864 1.390 . S
C1865 C1866 1.394 . S
C1865 C1871 1.465 . S
C1866 C1861 1.399 . S
C1866 C1865 1.394 . S
C1866 C1867 1.516 . S
C1867 C1866 1.516 . S
C1867 C1868 1.502 . S
C1867 C1869 1.561 . S
C1867 C1870 1.526 . S
C1868 H1852 0.959 . S
C1868 H1853 0.959 . S
C1868 H1854 0.961 . S
C1868 C1867 1.502 . S
C1869 H1855 0.960 . S
C1869 H1856 0.961 . S
C1869 H1857 0.959 . S
C1869 C1867 1.561 . S
C1870 C1867 1.526 . S
C1870 C1871 1.396 . S
C1870 C1875 1.390 . S
C1871 C1865 1.465 . S
C1871 C1870 1.396 . S
C1871 C1872 1.399 . S
C1872 H1858 0.929 . S
C1872 C1871 1.399 . S
C1872 C1873 1.385 . S
C1873 H1859 0.931 . S
C1873 C1872 1.385 . S
C1873 C1874 1.389 . S
C1874 C1873 1.389 . S
C1874 C1875 1.387 . S
C1875 H1860 0.930 . S
C1875 C1870 1.390 . S
C1875 C1874 1.387 . S
H1876 C1888 0.930 . S
H1877 C1890 0.930 . S
H1878 C1891 0.930 . S
H1879 C1895 0.959 . S
H1880 C1895 0.959 . S
H1881 C1895 0.961 . S
H1882 C1896 0.960 1_545 S
H1883 C1896 0.961 1_655 S
H1884 C1896 0.959 1_655 S
H1885 C1899 0.929 . S
H1886 C1900 0.931 . S
H1887 C1902 0.930 . S
C1888 H1876 0.930 . S
C1888 C1889 1.399 . S
C1888 C1893 1.399 . S
C1889 C1888 1.399 . S
C1889 C1890 1.376 . S
C1890 H1877 0.930 . S
C1890 C1889 1.376 . S
C1890 C1891 1.388 . S
C1891 H1878 0.930 . S
C1891 C1890 1.388 . S
C1891 C1892 1.390 . S
C1892 C1891 1.390 . S
C1892 C1893 1.394 . S
C1892 C1898 1.490 . S
C1893 C1888 1.399 . S
C1893 C1892 1.394 . S
C1893 C1894 1.516 . S
C1894 C1893 1.516 . S
C1894 C1895 1.502 . S
C1894 C1896 1.561 . S
C1894 C1897 1.526 1_455 S
C1895 H1879 0.959 . S
C1895 H1880 0.959 . S
C1895 H1881 0.961 . S
C1895 C1894 1.502 . S
C1896 H1882 0.960 1_565 S
C1896 H1883 0.961 1_455 S
C1896 H1884 0.959 1_455 S
C1896 C1894 1.561 . S
C1897 C1894 1.526 1_655 S
C1897 C1898 1.391 1_655 S
C1897 C1902 1.390 . S
C1898 C1892 1.490 . S
C1898 C1897 1.391 1_455 S
C1898 C1899 1.380 1_455 S
C1899 H1885 0.929 . S
C1899 C1898 1.380 1_655 S
C1899 C1900 1.385 . S
C1900 H1886 0.931 . S
C1900 C1899 1.385 . S
C1900 C1901 1.389 . S
C1901 C1900 1.389 . S
C1901 C1902 1.387 . S
C1902 H1887 0.930 . S
C1902 C1897 1.390 . S
C1902 C1901 1.387 . S
H1903 C1915 0.930 . S
H1904 C1917 0.930 . S
H1905 C1918 0.930 . S
H1906 C1922 0.959 . S
H1907 C1922 0.959 . S
H1908 C1922 0.961 . S
H1909 C1923 0.960 . S
H1910 C1923 0.961 . S
H1911 C1923 0.959 . S
H1912 C1926 0.929 . S
H1913 C1927 0.931 . S
H1914 C1929 0.930 . S
C1915 H1903 0.930 . S
C1915 C1916 1.399 . S
C1915 C1920 1.399 . S
C1916 C1915 1.399 . S
C1916 C1917 1.376 . S
C1917 H1904 0.930 . S
C1917 C1916 1.376 . S
C1917 C1918 1.388 . S
C1918 H1905 0.930 . S
C1918 C1917 1.388 . S
C1918 C1919 1.390 . S
C1919 C1918 1.390 . S
C1919 C1920 1.394 . S
C1919 C1925 1.465 . S
C1920 C1915 1.399 . S
C1920 C1919 1.394 . S
C1920 C1921 1.516 . S
C1921 C1920 1.516 . S
C1921 C1922 1.502 . S
C1921 C1923 1.561 . S
C1921 C1924 1.526 . S
C1922 H1906 0.959 . S
C1922 H1907 0.959 . S
C1922 H1908 0.961 . S
C1922 C1921 1.502 . S
C1923 H1909 0.960 . S
C1923 H1910 0.961 . S
C1923 H1911 0.959 . S
C1923 C1921 1.561 . S
C1924 C1921 1.526 . S
C1924 C1925 1.396 . S
C1924 C1929 1.390 . S
C1925 C1919 1.465 . S
C1925 C1924 1.396 . S
C1925 C1926 1.399 . S
C1926 H1912 0.929 . S
C1926 C1925 1.399 . S
C1926 C1927 1.385 . S
C1927 H1913 0.931 . S
C1927 C1926 1.385 . S
C1927 C1928 1.389 . S
C1928 C1927 1.389 . S
C1928 C1929 1.387 . S
C1929 H1914 0.930 . S
C1929 C1924 1.390 . S
C1929 C1928 1.387 . S
H1930 C1942 0.930 . S
H1931 C1944 0.930 . S
H1932 C1945 0.930 . S
H1933 C1949 0.959 1_455 S
H1934 C1949 0.959 1_455 S
H1935 C1949 0.961 . S
H1936 C1950 0.960 . S
H1937 C1950 0.961 . S
H1938 C1950 0.959 . S
H1939 C1953 0.929 . S
H1940 C1954 0.931 . S
H1941 C1956 0.930 . S
C1942 H1930 0.930 . S
C1942 C1943 1.399 . S
C1942 C1947 1.399 . S
C1943 C1942 1.399 . S
C1943 C1944 1.376 . S
C1944 H1931 0.930 . S
C1944 C1943 1.376 . S
C1944 C1945 1.388 . S
C1945 H1932 0.930 . S
C1945 C1944 1.388 . S
C1945 C1946 1.390 . S
C1946 C1945 1.390 . S
C1946 C1947 1.394 . S
C1946 C1952 1.465 1_655 S
C1947 C1942 1.399 . S
C1947 C1946 1.394 . S
C1947 C1948 1.516 . S
C1948 C1947 1.516 . S
C1948 C1949 1.502 . S
C1948 C1950 1.561 . S
C1948 C1951 1.526 1_655 S
C1949 H1933 0.959 1_655 S
C1949 H1934 0.959 1_655 S
C1949 H1935 0.961 . S
C1949 C1948 1.502 . S
C1950 H1936 0.960 . S
C1950 H1937 0.961 . S
C1950 H1938 0.959 . S
C1950 C1948 1.561 . S
C1951 C1948 1.526 1_455 S
C1951 C1952 1.396 . S
C1951 C1956 1.390 . S
C1952 C1946 1.465 1_455 S
C1952 C1951 1.396 . S
C1952 C1953 1.399 . S
C1953 H1939 0.929 . S
C1953 C1952 1.399 . S
C1953 C1954 1.385 . S
C1954 H1940 0.931 . S
C1954 C1953 1.385 . S
C1954 C1955 1.389 . S
C1955 C1954 1.389 . S
C1955 C1956 1.387 . S
C1956 H1941 0.930 . S
C1956 C1951 1.390 . S
C1956 C1955 1.387 . S
H1957 C1969 0.930 . S
H1958 C1971 0.930 . S
H1959 C1972 0.930 . S
H1960 C1976 0.959 . S
H1961 C1976 0.959 . S
H1962 C1976 0.961 . S
H1963 C1977 0.960 . S
H1964 C1977 0.961 . S
H1965 C1977 0.959 . S
H1966 C1980 0.929 . S
H1967 C1981 0.931 . S
H1968 C1983 0.930 . S
C1969 H1957 0.930 . S
C1969 C1970 1.399 . S
C1969 C1974 1.399 . S
C1970 C1969 1.399 . S
C1970 C1971 1.376 . S
C1971 H1958 0.930 . S
C1971 C1970 1.376 . S
C1971 C1972 1.388 . S
C1972 H1959 0.930 . S
C1972 C1971 1.388 . S
C1972 C1973 1.390 . S
C1973 C1972 1.390 . S
C1973 C1974 1.394 . S
C1973 C1979 1.465 . S
C1974 C1969 1.399 . S
C1974 C1973 1.394 . S
C1974 C1975 1.516 . S
C1975 C1974 1.516 . S
C1975 C1976 1.502 . S
C1975 C1977 1.561 . S
C1975 C1978 1.526 . S
C1976 H1960 0.959 . S
C1976 H1961 0.959 . S
C1976 H1962 0.961 . S
C1976 C1975 1.502 . S
C1977 H1963 0.960 . S
C1977 H1964 0.961 . S
C1977 H1965 0.959 . S
C1977 C1975 1.561 . S
C1978 C1975 1.526 . S
C1978 C1979 1.396 . S
C1978 C1983 1.390 . S
C1979 C1973 1.465 . S
C1979 C1978 1.396 . S
C1979 C1980 1.399 . S
C1980 H1966 0.929 . S
C1980 C1979 1.399 . S
C1980 C1981 1.385 . S
C1981 H1967 0.931 . S
C1981 C1980 1.385 . S
C1981 C1982 1.389 . S
C1982 C1981 1.389 . S
C1982 C1983 1.387 . S
C1983 H1968 0.930 . S
C1983 C1978 1.390 . S
C1983 C1982 1.387 . S
H1984 C1996 0.930 . S
H1985 C1998 0.930 . S
H1986 C1999 0.930 . S
H1987 C2003 0.959 . S
H1988 C2003 0.959 . S
H1989 C2003 0.961 . S
H1990 C2004 0.960 . S
H1991 C2004 0.961 . S
H1992 C2004 0.959 . S
H1993 C2007 0.929 . S
H1994 C2008 0.931 . S
H1995 C2010 0.930 . S
C1996 H1984 0.930 . S
C1996 C1997 1.399 . S
C1996 C2001 1.399 . S
C1997 C1996 1.399 . S
C1997 C1998 1.376 . S
C1998 H1985 0.930 . S
C1998 C1997 1.376 . S
C1998 C1999 1.388 . S
C1999 H1986 0.930 . S
C1999 C1998 1.388 . S
C1999 C2000 1.390 . S
C2000 C1999 1.390 . S
C2000 C2001 1.394 . S
C2000 C2006 1.465 . S
C2001 C1996 1.399 . S
C2001 C2000 1.394 . S
C2001 C2002 1.516 . S
C2002 C2001 1.516 . S
C2002 C2003 1.502 . S
C2002 C2004 1.561 . S
C2002 C2005 1.526 . S
C2003 H1987 0.959 . S
C2003 H1988 0.959 . S
C2003 H1989 0.961 . S
C2003 C2002 1.502 . S
C2004 H1990 0.960 . S
C2004 H1991 0.961 . S
C2004 H1992 0.959 . S
C2004 C2002 1.561 . S
C2005 C2002 1.526 . S
C2005 C2006 1.396 . S
C2005 C2010 1.390 . S
C2006 C2000 1.465 . S
C2006 C2005 1.396 . S
C2006 C2007 1.399 . S
C2007 H1993 0.929 . S
C2007 C2006 1.399 . S
C2007 C2008 1.385 . S
C2008 H1994 0.931 . S
C2008 C2007 1.385 . S
C2008 C2009 1.389 . S
C2009 C2008 1.389 . S
C2009 C2010 1.387 . S
C2010 H1995 0.930 . S
C2010 C2005 1.390 . S
C2010 C2009 1.387 . S
H2011 C2023 0.930 . S
H2012 C2025 0.930 . S
H2013 C2026 0.930 . S
H2014 C2030 0.959 . S
H2015 C2030 0.959 . S
H2016 C2030 0.961 . S
H2017 C2031 0.960 . S
H2018 C2031 0.961 . S
H2019 C2031 0.959 . S
H2020 C2034 0.929 . S
H2021 C2035 0.931 . S
H2022 C2037 0.930 . S
C2023 H2011 0.930 . S
C2023 C2024 1.399 . S
C2023 C2028 1.399 . S
C2024 C2023 1.399 . S
C2024 C2025 1.376 . S
C2025 H2012 0.930 . S
C2025 C2024 1.376 . S
C2025 C2026 1.388 . S
C2026 H2013 0.930 . S
C2026 C2025 1.388 . S
C2026 C2027 1.390 . S
C2027 C2026 1.390 . S
C2027 C2028 1.394 . S
C2027 C2033 1.465 . S
C2028 C2023 1.399 . S
C2028 C2027 1.394 . S
C2028 C2029 1.516 1_554 S
C2029 C2028 1.516 1_556 S
C2029 C2030 1.502 . S
C2029 C2031 1.561 . S
C2029 C2032 1.526 . S
C2030 H2014 0.959 . S
C2030 H2015 0.959 . S
C2030 H2016 0.961 . S
C2030 C2029 1.502 . S
C2031 H2017 0.960 . S
C2031 H2018 0.961 . S
C2031 H2019 0.959 . S
C2031 C2029 1.561 . S
C2032 C2029 1.526 . S
C2032 C2033 1.396 1_556 S
C2032 C2037 1.390 . S
C2033 C2027 1.465 . S
C2033 C2032 1.396 1_554 S
C2033 C2034 1.399 . S
C2034 H2020 0.929 . S
C2034 C2033 1.399 . S
C2034 C2035 1.385 1_554 S
C2035 H2021 0.931 . S
C2035 C2034 1.385 1_556 S
C2035 C2036 1.389 . S
C2036 C2035 1.389 . S
C2036 C2037 1.387 . S
C2037 H2022 0.930 . S
C2037 C2032 1.390 . S
C2037 C2036 1.387 . S
H2038 C2050 0.930 . S
H2039 C2052 0.930 . S
H2040 C2053 0.930 . S
H2041 C2057 0.959 . S
H2042 C2057 0.959 . S
H2043 C2057 0.961 . S
H2044 C2058 0.960 . S
H2045 C2058 0.961 . S
H2046 C2058 0.959 . S
H2047 C2061 0.929 . S
H2048 C2062 0.931 . S
H2049 C2064 0.930 . S
C2050 H2038 0.930 . S
C2050 C2051 1.399 . S
C2050 C2055 1.399 . S
C2051 C2050 1.399 . S
C2051 C2052 1.376 . S
C2052 H2039 0.930 . S
C2052 C2051 1.376 . S
C2052 C2053 1.388 . S
C2053 H2040 0.930 . S
C2053 C2052 1.388 . S
C2053 C2054 1.390 . S
C2054 C2053 1.390 . S
C2054 C2055 1.394 . S
C2054 C2060 1.465 . S
C2055 C2050 1.399 . S
C2055 C2054 1.394 . S
C2055 C2056 1.516 . S
C2056 C2055 1.516 . S
C2056 C2057 1.502 . S
C2056 C2058 1.561 . S
C2056 C2059 1.526 . S
C2057 H2041 0.959 . S
C2057 H2042 0.959 . S
C2057 H2043 0.961 . S
C2057 C2056 1.502 . S
C2058 H2044 0.960 . S
C2058 H2045 0.961 . S
C2058 H2046 0.959 . S
C2058 C2056 1.561 . S
C2059 C2056 1.526 . S
C2059 C2060 1.396 . S
C2059 C2064 1.390 . S
C2060 C2054 1.465 . S
C2060 C2059 1.396 . S
C2060 C2061 1.399 . S
C2061 H2047 0.929 . S
C2061 C2060 1.399 . S
C2061 C2062 1.385 . S
C2062 H2048 0.931 . S
C2062 C2061 1.385 . S
C2062 C2063 1.389 . S
C2063 C2062 1.389 . S
C2063 C2064 1.387 . S
C2064 H2049 0.930 . S
C2064 C2059 1.390 . S
C2064 C2063 1.387 . S
H2065 C2077 0.930 . S
H2066 C2079 0.930 . S
H2067 C2080 0.930 . S
H2068 C2084 0.959 . S
H2069 C2084 0.959 . S
H2070 C2084 0.961 . S
H2071 C2085 0.960 . S
H2072 C2085 0.961 . S
H2073 C2085 0.959 . S
H2074 C2088 0.929 . S
H2075 C2089 0.931 . S
H2076 C2091 0.930 . S
C2077 H2065 0.930 . S
C2077 C2078 1.399 . S
C2077 C2082 1.399 . S
C2078 C2077 1.399 . S
C2078 C2079 1.376 . S
C2079 H2066 0.930 . S
C2079 C2078 1.376 . S
C2079 C2080 1.388 . S
C2080 H2067 0.930 . S
C2080 C2079 1.388 . S
C2080 C2081 1.390 . S
C2081 C2080 1.390 . S
C2081 C2082 1.394 . S
C2081 C2087 1.465 . S
C2082 C2077 1.399 . S
C2082 C2081 1.394 . S
C2082 C2083 1.516 . S
C2083 C2082 1.516 . S
C2083 C2084 1.502 . S
C2083 C2085 1.561 . S
C2083 C2086 1.526 . S
C2084 H2068 0.959 . S
C2084 H2069 0.959 . S
C2084 H2070 0.961 . S
C2084 C2083 1.502 . S
C2085 H2071 0.960 . S
C2085 H2072 0.961 . S
C2085 H2073 0.959 . S
C2085 C2083 1.561 . S
C2086 C2083 1.526 . S
C2086 C2087 1.396 . S
C2086 C2091 1.390 . S
C2087 C2081 1.465 . S
C2087 C2086 1.396 . S
C2087 C2088 1.399 . S
C2088 H2074 0.929 . S
C2088 C2087 1.399 . S
C2088 C2089 1.385 . S
C2089 H2075 0.931 . S
C2089 C2088 1.385 . S
C2089 C2090 1.389 . S
C2090 C2089 1.389 . S
C2090 C2091 1.387 . S
C2091 H2076 0.930 . S
C2091 C2086 1.390 . S
C2091 C2090 1.387 . S
H2092 C2104 0.930 . S
H2093 C2106 0.930 . S
H2094 C2107 0.930 . S
H2095 C2111 0.959 . S
H2096 C2111 0.959 . S
H2097 C2111 0.961 . S
H2098 C2112 0.960 . S
H2099 C2112 0.961 . S
H2100 C2112 0.959 . S
H2101 C2115 0.929 . S
H2102 C2116 0.931 . S
H2103 C2118 0.930 . S
C2104 H2092 0.930 . S
C2104 C2105 1.399 . S
C2104 C2109 1.399 . S
C2105 C2104 1.399 . S
C2105 C2106 1.376 . S
C2106 H2093 0.930 . S
C2106 C2105 1.376 . S
C2106 C2107 1.388 . S
C2107 H2094 0.930 . S
C2107 C2106 1.388 . S
C2107 C2108 1.390 . S
C2108 C2107 1.390 . S
C2108 C2109 1.394 . S
C2108 C2114 1.465 . S
C2109 C2104 1.399 . S
C2109 C2108 1.394 . S
C2109 C2110 1.516 . S
C2110 C2109 1.516 . S
C2110 C2111 1.502 . S
C2110 C2112 1.561 . S
C2110 C2113 1.526 . S
C2111 H2095 0.959 . S
C2111 H2096 0.959 . S
C2111 H2097 0.961 . S
C2111 C2110 1.502 . S
C2112 H2098 0.960 . S
C2112 H2099 0.961 . S
C2112 H2100 0.959 . S
C2112 C2110 1.561 . S
C2113 C2110 1.526 . S
C2113 C2114 1.396 . S
C2113 C2118 1.390 . S
C2114 C2108 1.465 . S
C2114 C2113 1.396 . S
C2114 C2115 1.399 . S
C2115 H2101 0.929 . S
C2115 C2114 1.399 . S
C2115 C2116 1.385 . S
C2116 H2102 0.931 . S
C2116 C2115 1.385 . S
C2116 C2117 1.389 . S
C2117 C2116 1.389 . S
C2117 C2118 1.387 . S
C2118 H2103 0.930 . S
C2118 C2113 1.390 . S
C2118 C2117 1.387 . S
H2119 C2131 0.930 . S
H2120 C2133 0.930 . S
H2121 C2134 0.930 . S
H2122 C2138 0.959 1_554 S
H2123 C2138 0.959 . S
H2124 C2138 0.961 . S
H2125 C2139 0.960 . S
H2126 C2139 0.961 . S
H2127 C2139 0.959 . S
H2128 C2142 0.929 . S
H2129 C2143 0.931 . S
H2130 C2145 0.930 . S
C2131 H2119 0.930 . S
C2131 C2132 1.399 . S
C2131 C2136 1.399 . S
C2132 C2131 1.399 . S
C2132 C2133 1.376 . S
C2133 H2120 0.930 . S
C2133 C2132 1.376 . S
C2133 C2134 1.388 . S
C2134 H2121 0.930 . S
C2134 C2133 1.388 . S
C2134 C2135 1.390 . S
C2135 C2134 1.390 . S
C2135 C2136 1.394 . S
C2135 C2141 1.439 1_556 S
C2136 C2131 1.399 . S
C2136 C2135 1.394 . S
C2136 C2137 1.516 . S
C2137 C2136 1.516 . S
C2137 C2138 1.502 . S
C2137 C2139 1.561 . S
C2137 C2140 1.526 1_556 S
C2138 H2122 0.959 1_556 S
C2138 H2123 0.959 . S
C2138 H2124 0.961 . S
C2138 C2137 1.502 . S
C2139 H2125 0.960 . S
C2139 H2126 0.961 . S
C2139 H2127 0.959 . S
C2139 C2137 1.561 . S
C2140 C2137 1.526 1_554 S
C2140 C2141 1.400 . S
C2140 C2145 1.390 . S
C2141 C2135 1.439 1_554 S
C2141 C2140 1.400 . S
C2141 C2142 1.421 . S
C2142 H2128 0.929 . S
C2142 C2141 1.421 . S
C2142 C2143 1.385 . S
C2143 H2129 0.931 . S
C2143 C2142 1.385 . S
C2143 C2144 1.389 . S
C2144 C2143 1.389 . S
C2144 C2145 1.387 . S
C2145 H2130 0.930 . S
C2145 C2140 1.390 . S
C2145 C2144 1.387 . S
H2146 C2158 0.930 . S
H2147 C2160 0.930 . S
H2148 C2161 0.930 . S
H2149 C2165 0.959 . S
H2150 C2165 0.959 . S
H2151 C2165 0.961 . S
H2152 C2166 0.960 . S
H2153 C2166 0.961 . S
H2154 C2166 0.959 . S
H2155 C2169 0.929 . S
H2156 C2170 0.931 . S
H2157 C2172 0.930 . S
C2158 H2146 0.930 . S
C2158 C2159 1.399 . S
C2158 C2163 1.399 . S
C2159 C2158 1.399 . S
C2159 C2160 1.376 . S
C2160 H2147 0.930 . S
C2160 C2159 1.376 . S
C2160 C2161 1.388 . S
C2161 H2148 0.930 . S
C2161 C2160 1.388 . S
C2161 C2162 1.390 . S
C2162 C2161 1.390 . S
C2162 C2163 1.394 . S
C2162 C2168 1.465 . S
C2163 C2158 1.399 . S
C2163 C2162 1.394 . S
C2163 C2164 1.516 . S
C2164 C2163 1.516 . S
C2164 C2165 1.502 . S
C2164 C2166 1.561 . S
C2164 C2167 1.526 . S
C2165 H2149 0.959 . S
C2165 H2150 0.959 . S
C2165 H2151 0.961 . S
C2165 C2164 1.502 . S
C2166 H2152 0.960 . S
C2166 H2153 0.961 . S
C2166 H2154 0.959 . S
C2166 C2164 1.561 . S
C2167 C2164 1.526 . S
C2167 C2168 1.396 . S
C2167 C2172 1.390 . S
C2168 C2162 1.465 . S
C2168 C2167 1.396 . S
C2168 C2169 1.399 . S
C2169 H2155 0.929 . S
C2169 C2168 1.399 . S
C2169 C2170 1.385 . S
C2170 H2156 0.931 . S
C2170 C2169 1.385 . S
C2170 C2171 1.389 . S
C2171 C2170 1.389 . S
C2171 C2172 1.387 . S
C2172 H2157 0.930 . S
C2172 C2167 1.390 . S
C2172 C2171 1.387 . S
H2173 C2185 0.930 . S
H2174 C2187 0.930 . S
H2175 C2188 0.930 . S
H2176 C2192 0.959 . S
H2177 C2192 0.959 . S
H2178 C2192 0.961 . S
H2179 C2193 0.960 . S
H2180 C2193 0.961 . S
H2181 C2193 0.959 . S
H2182 C2196 0.929 . S
H2183 C2197 0.931 . S
H2184 C2199 0.930 . S
C2185 H2173 0.930 . S
C2185 C2186 1.399 . S
C2185 C2190 1.399 . S
C2186 C2185 1.399 . S
C2186 C2187 1.376 . S
C2187 H2174 0.930 . S
C2187 C2186 1.376 . S
C2187 C2188 1.388 . S
C2188 H2175 0.930 . S
C2188 C2187 1.388 . S
C2188 C2189 1.390 . S
C2189 C2188 1.390 . S
C2189 C2190 1.394 . S
C2189 C2195 1.465 . S
C2190 C2185 1.399 . S
C2190 C2189 1.394 . S
C2190 C2191 1.516 . S
C2191 C2190 1.516 . S
C2191 C2192 1.502 . S
C2191 C2193 1.561 . S
C2191 C2194 1.526 . S
C2192 H2176 0.959 . S
C2192 H2177 0.959 . S
C2192 H2178 0.961 . S
C2192 C2191 1.502 . S
C2193 H2179 0.960 . S
C2193 H2180 0.961 . S
C2193 H2181 0.959 . S
C2193 C2191 1.561 . S
C2194 C2191 1.526 . S
C2194 C2195 1.396 . S
C2194 C2199 1.390 . S
C2195 C2189 1.465 . S
C2195 C2194 1.396 . S
C2195 C2196 1.399 . S
C2196 H2182 0.929 . S
C2196 C2195 1.399 . S
C2196 C2197 1.385 . S
C2197 H2183 0.931 . S
C2197 C2196 1.385 . S
C2197 C2198 1.389 . S
C2198 C2197 1.389 . S
C2198 C2199 1.387 . S
C2199 H2184 0.930 . S
C2199 C2194 1.390 . S
C2199 C2198 1.387 . S
H2200 C2212 0.930 . S
H2201 C2214 0.930 . S
H2202 C2215 0.930 . S
H2203 C2219 0.959 . S
H2204 C2219 0.959 . S
H2205 C2219 0.961 . S
H2206 C2220 0.960 . S
H2207 C2220 0.961 . S
H2208 C2220 0.959 . S
H2209 C2223 0.929 . S
H2210 C2224 0.931 . S
H2211 C2226 0.930 . S
C2212 H2200 0.930 . S
C2212 C2213 1.399 . S
C2212 C2217 1.399 . S
C2213 C2212 1.399 . S
C2213 C2214 1.376 . S
C2214 H2201 0.930 . S
C2214 C2213 1.376 . S
C2214 C2215 1.388 . S
C2215 H2202 0.930 . S
C2215 C2214 1.388 . S
C2215 C2216 1.390 . S
C2216 C2215 1.390 . S
C2216 C2217 1.394 . S
C2216 C2222 1.465 . S
C2217 C2212 1.399 . S
C2217 C2216 1.394 . S
C2217 C2218 1.516 . S
C2218 C2217 1.516 . S
C2218 C2219 1.502 . S
C2218 C2220 1.561 . S
C2218 C2221 1.526 . S
C2219 H2203 0.959 . S
C2219 H2204 0.959 . S
C2219 H2205 0.961 . S
C2219 C2218 1.502 . S
C2220 H2206 0.960 . S
C2220 H2207 0.961 . S
C2220 H2208 0.959 . S
C2220 C2218 1.561 . S
C2221 C2218 1.526 . S
C2221 C2222 1.396 . S
C2221 C2226 1.390 . S
C2222 C2216 1.465 . S
C2222 C2221 1.396 . S
C2222 C2223 1.399 . S
C2223 H2209 0.929 . S
C2223 C2222 1.399 . S
C2223 C2224 1.385 . S
C2224 H2210 0.931 . S
C2224 C2223 1.385 . S
C2224 C2225 1.389 . S
C2225 C2224 1.389 . S
C2225 C2226 1.387 . S
C2226 H2211 0.930 . S
C2226 C2221 1.390 . S
C2226 C2225 1.387 . S
H2227 C2239 0.930 . S
H2228 C2241 0.930 . S
H2229 C2242 0.930 . S
H2230 C2246 0.959 . S
H2231 C2246 0.959 . S
H2232 C2246 0.961 . S
H2233 C2247 0.960 . S
H2234 C2247 0.961 . S
H2235 C2247 0.959 . S
H2236 C2250 0.929 . S
H2237 C2251 0.931 . S
H2238 C2253 0.930 . S
C2239 H2227 0.930 . S
C2239 C2240 1.399 . S
C2239 C2244 1.399 . S
C2240 C2239 1.399 . S
C2240 C2241 1.376 . S
C2241 H2228 0.930 . S
C2241 C2240 1.376 . S
C2241 C2242 1.388 . S
C2242 H2229 0.930 . S
C2242 C2241 1.388 . S
C2242 C2243 1.390 . S
C2243 C2242 1.390 . S
C2243 C2244 1.394 . S
C2243 C2249 1.465 . S
C2244 C2239 1.399 . S
C2244 C2243 1.394 . S
C2244 C2245 1.516 . S
C2245 C2244 1.516 . S
C2245 C2246 1.502 . S
C2245 C2247 1.561 . S
C2245 C2248 1.526 . S
C2246 H2230 0.959 . S
C2246 H2231 0.959 . S
C2246 H2232 0.961 . S
C2246 C2245 1.502 . S
C2247 H2233 0.960 . S
C2247 H2234 0.961 . S
C2247 H2235 0.959 . S
C2247 C2245 1.561 . S
C2248 C2245 1.526 . S
C2248 C2249 1.396 . S
C2248 C2253 1.390 . S
C2249 C2243 1.465 . S
C2249 C2248 1.396 . S
C2249 C2250 1.399 . S
C2250 H2236 0.929 . S
C2250 C2249 1.399 . S
C2250 C2251 1.385 . S
C2251 H2237 0.931 . S
C2251 C2250 1.385 . S
C2251 C2252 1.389 . S
C2252 C2251 1.389 . S
C2252 C2253 1.387 . S
C2253 H2238 0.930 . S
C2253 C2248 1.390 . S
C2253 C2252 1.387 . S
H2254 C2266 0.930 . S
H2255 C2268 0.930 . S
H2256 C2269 0.930 . S
H2257 C2273 0.959 . S
H2258 C2273 0.959 . S
H2259 C2273 0.961 . S
H2260 C2274 0.960 . S
H2261 C2274 0.961 . S
H2262 C2274 0.959 . S
H2263 C2277 0.929 . S
H2264 C2278 0.931 . S
H2265 C2280 0.930 . S
C2266 H2254 0.930 . S
C2266 C2267 1.399 . S
C2266 C2271 1.399 . S
C2267 C2266 1.399 . S
C2267 C2268 1.376 . S
C2268 H2255 0.930 . S
C2268 C2267 1.376 . S
C2268 C2269 1.388 . S
C2269 H2256 0.930 . S
C2269 C2268 1.388 . S
C2269 C2270 1.390 . S
C2270 C2269 1.390 . S
C2270 C2271 1.394 . S
C2270 C2276 1.465 . S
C2271 C2266 1.399 . S
C2271 C2270 1.394 . S
C2271 C2272 1.516 . S
C2272 C2271 1.516 . S
C2272 C2273 1.502 . S
C2272 C2274 1.561 . S
C2272 C2275 1.526 . S
C2273 H2257 0.959 . S
C2273 H2258 0.959 . S
C2273 H2259 0.961 . S
C2273 C2272 1.502 . S
C2274 H2260 0.960 . S
C2274 H2261 0.961 . S
C2274 H2262 0.959 . S
C2274 C2272 1.561 . S
C2275 C2272 1.526 . S
C2275 C2276 1.396 . S
C2275 C2280 1.390 . S
C2276 C2270 1.465 . S
C2276 C2275 1.396 . S
C2276 C2277 1.399 . S
C2277 H2263 0.929 . S
C2277 C2276 1.399 . S
C2277 C2278 1.385 . S
C2278 H2264 0.931 . S
C2278 C2277 1.385 . S
C2278 C2279 1.389 . S
C2279 C2278 1.389 . S
C2279 C2280 1.387 . S
C2280 H2265 0.930 . S
C2280 C2275 1.390 . S
C2280 C2279 1.387 . S
H2281 C2293 0.930 . S
H2282 C2295 0.930 . S
H2283 C2296 0.930 . S
H2284 C2300 0.959 . S
H2285 C2300 0.959 . S
H2286 C2300 0.961 . S
H2287 C2301 0.960 . S
H2288 C2301 0.961 . S
H2289 C2301 0.959 . S
H2290 C2304 0.929 . S
H2291 C2305 0.931 . S
H2292 C2307 0.930 . S
C2293 H2281 0.930 . S
C2293 C2294 1.399 . S
C2293 C2298 1.399 . S
C2294 C2293 1.399 . S
C2294 C2295 1.376 . S
C2295 H2282 0.930 . S
C2295 C2294 1.376 . S
C2295 C2296 1.388 . S
C2296 H2283 0.930 . S
C2296 C2295 1.388 . S
C2296 C2297 1.390 . S
C2297 C2296 1.390 . S
C2297 C2298 1.394 . S
C2297 C2303 1.465 . S
C2298 C2293 1.399 . S
C2298 C2297 1.394 . S
C2298 C2299 1.516 . S
C2299 C2298 1.516 . S
C2299 C2300 1.502 . S
C2299 C2301 1.561 . S
C2299 C2302 1.526 . S
C2300 H2284 0.959 . S
C2300 H2285 0.959 . S
C2300 H2286 0.961 . S
C2300 C2299 1.502 . S
C2301 H2287 0.960 . S
C2301 H2288 0.961 . S
C2301 H2289 0.959 . S
C2301 C2299 1.561 . S
C2302 C2299 1.526 . S
C2302 C2303 1.396 . S
C2302 C2307 1.390 . S
C2303 C2297 1.465 . S
C2303 C2302 1.396 . S
C2303 C2304 1.399 . S
C2304 H2290 0.929 . S
C2304 C2303 1.399 . S
C2304 C2305 1.385 . S
C2305 H2291 0.931 . S
C2305 C2304 1.385 . S
C2305 C2306 1.389 . S
C2306 C2305 1.389 . S
C2306 C2307 1.387 . S
C2307 H2292 0.930 . S
C2307 C2302 1.390 . S
C2307 C2306 1.387 . S
H2308 C2320 0.930 . S
H2309 C2322 0.930 . S
H2310 C2323 0.930 . S
H2311 C2327 0.959 . S
H2312 C2327 0.959 . S
H2313 C2327 0.961 . S
H2314 C2328 0.960 . S
H2315 C2328 0.961 . S
H2316 C2328 0.959 . S
H2317 C2331 0.929 . S
H2318 C2332 0.931 . S
H2319 C2334 0.930 . S
C2320 H2308 0.930 . S
C2320 C2321 1.399 . S
C2320 C2325 1.399 . S
C2321 C2320 1.399 . S
C2321 C2322 1.376 . S
C2322 H2309 0.930 . S
C2322 C2321 1.376 . S
C2322 C2323 1.388 . S
C2323 H2310 0.930 . S
C2323 C2322 1.388 . S
C2323 C2324 1.390 . S
C2324 C2323 1.390 . S
C2324 C2325 1.394 . S
C2324 C2330 1.465 . S
C2325 C2320 1.399 . S
C2325 C2324 1.394 . S
C2325 C2326 1.516 . S
C2326 C2325 1.516 . S
C2326 C2327 1.502 . S
C2326 C2328 1.561 . S
C2326 C2329 1.526 . S
C2327 H2311 0.959 . S
C2327 H2312 0.959 . S
C2327 H2313 0.961 . S
C2327 C2326 1.502 . S
C2328 H2314 0.960 . S
C2328 H2315 0.961 . S
C2328 H2316 0.959 . S
C2328 C2326 1.561 . S
C2329 C2326 1.526 . S
C2329 C2330 1.396 . S
C2329 C2334 1.390 . S
C2330 C2324 1.465 . S
C2330 C2329 1.396 . S
C2330 C2331 1.399 . S
C2331 H2317 0.929 . S
C2331 C2330 1.399 . S
C2331 C2332 1.385 . S
C2332 H2318 0.931 . S
C2332 C2331 1.385 . S
C2332 C2333 1.389 . S
C2333 C2332 1.389 . S
C2333 C2334 1.387 . S
C2334 H2319 0.930 . S
C2334 C2329 1.390 . S
C2334 C2333 1.387 . S
H2335 C2347 0.930 . S
H2336 C2349 0.930 . S
H2337 C2350 0.930 . S
H2338 C2354 0.959 . S
H2339 C2354 0.959 . S
H2340 C2354 0.961 . S
H2341 C2355 0.960 . S
H2342 C2355 0.961 . S
H2343 C2355 0.959 . S
H2344 C2358 0.929 . S
H2345 C2359 0.931 . S
H2346 C2361 0.930 . S
C2347 H2335 0.930 . S
C2347 C2348 1.399 . S
C2347 C2352 1.399 . S
C2348 C2347 1.399 . S
C2348 C2349 1.376 . S
C2349 H2336 0.930 . S
C2349 C2348 1.376 . S
C2349 C2350 1.388 . S
C2350 H2337 0.930 . S
C2350 C2349 1.388 . S
C2350 C2351 1.390 . S
C2351 C2350 1.390 . S
C2351 C2352 1.394 . S
C2351 C2357 1.465 . S
C2352 C2347 1.399 . S
C2352 C2351 1.394 . S
C2352 C2353 1.516 . S
C2353 C2352 1.516 . S
C2353 C2354 1.502 . S
C2353 C2355 1.561 . S
C2353 C2356 1.526 . S
C2354 H2338 0.959 . S
C2354 H2339 0.959 . S
C2354 H2340 0.961 . S
C2354 C2353 1.502 . S
C2355 H2341 0.960 . S
C2355 H2342 0.961 . S
C2355 H2343 0.959 . S
C2355 C2353 1.561 . S
C2356 C2353 1.526 . S
C2356 C2357 1.396 . S
C2356 C2361 1.390 . S
C2357 C2351 1.465 . S
C2357 C2356 1.396 . S
C2357 C2358 1.399 . S
C2358 H2344 0.929 . S
C2358 C2357 1.399 . S
C2358 C2359 1.385 . S
C2359 H2345 0.931 . S
C2359 C2358 1.385 . S
C2359 C2360 1.389 . S
C2360 C2359 1.389 . S
C2360 C2361 1.387 . S
C2361 H2346 0.930 . S
C2361 C2356 1.390 . S
C2361 C2360 1.387 . S
H2362 C2374 0.930 . S
H2363 C2376 0.930 . S
H2364 C2377 0.930 . S
H2365 C2381 0.959 . S
H2366 C2381 0.959 . S
H2367 C2381 0.961 . S
H2368 C2382 0.960 . S
H2369 C2382 0.961 . S
H2370 C2382 0.959 . S
H2371 C2385 0.929 . S
H2372 C2386 0.931 . S
H2373 C2388 0.930 . S
C2374 H2362 0.930 . S
C2374 C2375 1.399 . S
C2374 C2379 1.399 . S
C2375 C2374 1.399 . S
C2375 C2376 1.376 . S
C2376 H2363 0.930 . S
C2376 C2375 1.376 . S
C2376 C2377 1.388 . S
C2377 H2364 0.930 . S
C2377 C2376 1.388 . S
C2377 C2378 1.390 . S
C2378 C2377 1.390 . S
C2378 C2379 1.394 . S
C2378 C2384 1.465 . S
C2379 C2374 1.399 . S
C2379 C2378 1.394 . S
C2379 C2380 1.516 . S
C2380 C2379 1.516 . S
C2380 C2381 1.502 . S
C2380 C2382 1.561 . S
C2380 C2383 1.526 . S
C2381 H2365 0.959 . S
C2381 H2366 0.959 . S
C2381 H2367 0.961 . S
C2381 C2380 1.502 . S
C2382 H2368 0.960 . S
C2382 H2369 0.961 . S
C2382 H2370 0.959 . S
C2382 C2380 1.561 . S
C2383 C2380 1.526 . S
C2383 C2384 1.396 . S
C2383 C2388 1.390 . S
C2384 C2378 1.465 . S
C2384 C2383 1.396 . S
C2384 C2385 1.399 . S
C2385 H2371 0.929 . S
C2385 C2384 1.399 . S
C2385 C2386 1.385 . S
C2386 H2372 0.931 . S
C2386 C2385 1.385 . S
C2386 C2387 1.389 . S
C2387 C2386 1.389 . S
C2387 C2388 1.387 . S
C2388 H2373 0.930 . S
C2388 C2383 1.390 . S
C2388 C2387 1.387 . S
H2389 C2401 0.930 . S
H2390 C2403 0.930 . S
H2391 C2404 0.930 . S
H2392 C2408 0.959 . S
H2393 C2408 0.959 . S
H2394 C2408 0.961 . S
H2395 C2409 0.960 . S
H2396 C2409 0.961 . S
H2397 C2409 0.959 . S
H2398 C2412 0.929 . S
H2399 C2413 0.931 . S
H2400 C2415 0.930 . S
C2401 H2389 0.930 . S
C2401 C2402 1.399 . S
C2401 C2406 1.399 . S
C2402 C2401 1.399 . S
C2402 C2403 1.376 . S
C2403 H2390 0.930 . S
C2403 C2402 1.376 . S
C2403 C2404 1.388 . S
C2404 H2391 0.930 . S
C2404 C2403 1.388 . S
C2404 C2405 1.390 . S
C2405 C2404 1.390 . S
C2405 C2406 1.394 . S
C2405 C2411 1.465 . S
C2406 C2401 1.399 . S
C2406 C2405 1.394 . S
C2406 C2407 1.516 . S
C2407 C2406 1.516 . S
C2407 C2408 1.502 . S
C2407 C2409 1.561 . S
C2407 C2410 1.526 . S
C2408 H2392 0.959 . S
C2408 H2393 0.959 . S
C2408 H2394 0.961 . S
C2408 C2407 1.502 . S
C2409 H2395 0.960 . S
C2409 H2396 0.961 . S
C2409 H2397 0.959 . S
C2409 C2407 1.561 . S
C2410 C2407 1.526 . S
C2410 C2411 1.396 . S
C2410 C2415 1.390 . S
C2411 C2405 1.465 . S
C2411 C2410 1.396 . S
C2411 C2412 1.399 . S
C2412 H2398 0.929 . S
C2412 C2411 1.399 . S
C2412 C2413 1.385 . S
C2413 H2399 0.931 . S
C2413 C2412 1.385 . S
C2413 C2414 1.389 . S
C2414 C2413 1.389 . S
C2414 C2415 1.387 . S
C2415 H2400 0.930 . S
C2415 C2410 1.390 . S
C2415 C2414 1.387 . S
H2416 C2428 0.930 . S
H2417 C2430 0.930 . S
H2418 C2431 0.930 . S
H2419 C2435 0.959 . S
H2420 C2435 0.959 . S
H2421 C2435 0.961 . S
H2422 C2436 0.960 . S
H2423 C2436 0.961 . S
H2424 C2436 0.959 . S
H2425 C2439 0.929 . S
H2426 C2440 0.931 . S
H2427 C2442 0.930 . S
C2428 H2416 0.930 . S
C2428 C2429 1.399 . S
C2428 C2433 1.399 . S
C2429 C2428 1.399 . S
C2429 C2430 1.376 . S
C2430 H2417 0.930 . S
C2430 C2429 1.376 . S
C2430 C2431 1.388 . S
C2431 H2418 0.930 . S
C2431 C2430 1.388 . S
C2431 C2432 1.390 . S
C2432 C2431 1.390 . S
C2432 C2433 1.394 . S
C2432 C2438 1.465 . S
C2433 C2428 1.399 . S
C2433 C2432 1.394 . S
C2433 C2434 1.516 . S
C2434 C2433 1.516 . S
C2434 C2435 1.502 . S
C2434 C2436 1.561 . S
C2434 C2437 1.526 . S
C2435 H2419 0.959 . S
C2435 H2420 0.959 . S
C2435 H2421 0.961 . S
C2435 C2434 1.502 . S
C2436 H2422 0.960 . S
C2436 H2423 0.961 . S
C2436 H2424 0.959 . S
C2436 C2434 1.561 . S
C2437 C2434 1.526 . S
C2437 C2438 1.396 . S
C2437 C2442 1.390 . S
C2438 C2432 1.465 . S
C2438 C2437 1.396 . S
C2438 C2439 1.399 . S
C2439 H2425 0.929 . S
C2439 C2438 1.399 . S
C2439 C2440 1.385 . S
C2440 H2426 0.931 . S
C2440 C2439 1.385 . S
C2440 C2441 1.389 . S
C2441 C2440 1.389 . S
C2441 C2442 1.387 . S
C2442 H2427 0.930 . S
C2442 C2437 1.390 . S
C2442 C2441 1.387 . S
H2443 C2455 0.930 . S
H2444 C2457 0.930 . S
H2445 C2458 0.930 . S
H2446 C2462 0.959 . S
H2447 C2462 0.959 . S
H2448 C2462 0.961 . S
H2449 C2463 0.960 . S
H2450 C2463 0.961 . S
H2451 C2463 0.959 . S
H2452 C2466 0.929 . S
H2453 C2467 0.931 . S
H2454 C2469 0.930 . S
C2455 H2443 0.930 . S
C2455 C2456 1.399 . S
C2455 C2460 1.399 . S
C2456 C2455 1.399 . S
C2456 C2457 1.376 . S
C2457 H2444 0.930 . S
C2457 C2456 1.376 . S
C2457 C2458 1.388 . S
C2458 H2445 0.930 . S
C2458 C2457 1.388 . S
C2458 C2459 1.390 . S
C2459 C2458 1.390 . S
C2459 C2460 1.394 . S
C2459 C2465 1.465 . S
C2460 C2455 1.399 . S
C2460 C2459 1.394 . S
C2460 C2461 1.516 . S
C2461 C2460 1.516 . S
C2461 C2462 1.502 . S
C2461 C2463 1.561 . S
C2461 C2464 1.526 . S
C2462 H2446 0.959 . S
C2462 H2447 0.959 . S
C2462 H2448 0.961 . S
C2462 C2461 1.502 . S
C2463 H2449 0.960 . S
C2463 H2450 0.961 . S
C2463 H2451 0.959 . S
C2463 C2461 1.561 . S
C2464 C2461 1.526 . S
C2464 C2465 1.396 . S
C2464 C2469 1.390 . S
C2465 C2459 1.465 . S
C2465 C2464 1.396 . S
C2465 C2466 1.399 . S
C2466 H2452 0.929 . S
C2466 C2465 1.399 . S
C2466 C2467 1.385 . S
C2467 H2453 0.931 . S
C2467 C2466 1.385 . S
C2467 C2468 1.389 . S
C2468 C2467 1.389 . S
C2468 C2469 1.387 . S
C2469 H2454 0.930 . S
C2469 C2464 1.390 . S
C2469 C2468 1.387 . S
H2470 C2482 0.930 . S
H2471 C2484 0.930 . S
H2472 C2485 0.930 . S
H2473 C2489 0.959 . S
H2474 C2489 0.959 . S
H2475 C2489 0.961 . S
H2476 C2490 0.960 . S
H2477 C2490 0.961 . S
H2478 C2490 0.959 . S
H2479 C2493 0.929 . S
H2480 C2494 0.931 . S
H2481 C2496 0.930 . S
C2482 H2470 0.930 . S
C2482 C2483 1.399 . S
C2482 C2487 1.399 . S
C2483 C2482 1.399 . S
C2483 C2484 1.376 . S
C2484 H2471 0.930 . S
C2484 C2483 1.376 . S
C2484 C2485 1.388 . S
C2485 H2472 0.930 . S
C2485 C2484 1.388 . S
C2485 C2486 1.390 . S
C2486 C2485 1.390 . S
C2486 C2487 1.394 . S
C2486 C2492 1.465 . S
C2487 C2482 1.399 . S
C2487 C2486 1.394 . S
C2487 C2488 1.516 . S
C2488 C2487 1.516 . S
C2488 C2489 1.502 . S
C2488 C2490 1.561 . S
C2488 C2491 1.526 . S
C2489 H2473 0.959 . S
C2489 H2474 0.959 . S
C2489 H2475 0.961 . S
C2489 C2488 1.502 . S
C2490 H2476 0.960 . S
C2490 H2477 0.961 . S
C2490 H2478 0.959 . S
C2490 C2488 1.561 . S
C2491 C2488 1.526 . S
C2491 C2492 1.396 . S
C2491 C2496 1.390 . S
C2492 C2486 1.465 . S
C2492 C2491 1.396 . S
C2492 C2493 1.399 . S
C2493 H2479 0.929 . S
C2493 C2492 1.399 . S
C2493 C2494 1.385 . S
C2494 H2480 0.931 . S
C2494 C2493 1.385 . S
C2494 C2495 1.389 . S
C2495 C2494 1.389 . S
C2495 C2496 1.387 . S
C2496 H2481 0.930 . S
C2496 C2491 1.390 . S
C2496 C2495 1.387 . S
H2497 C2509 0.930 . S
H2498 C2511 0.930 1_554 S
H2499 C2512 0.930 . S
H2500 C2516 0.959 . S
H2501 C2516 0.959 . S
H2502 C2516 0.961 . S
H2503 C2517 0.960 . S
H2504 C2517 0.961 . S
H2505 C2517 0.959 . S
H2506 C2520 0.929 . S
H2507 C2521 0.931 . S
H2508 C2523 0.930 . S
C2509 H2497 0.930 . S
C2509 C2510 1.399 . S
C2509 C2514 1.399 . S
C2510 C2509 1.399 . S
C2510 C2511 1.376 . S
C2511 H2498 0.930 1_556 S
C2511 C2510 1.376 . S
C2511 C2512 1.388 . S
C2512 H2499 0.930 . S
C2512 C2511 1.388 . S
C2512 C2513 1.390 . S
C2513 C2512 1.390 . S
C2513 C2514 1.394 . S
C2513 C2519 1.465 . S
C2514 C2509 1.399 . S
C2514 C2513 1.394 . S
C2514 C2515 1.516 . S
C2515 C2514 1.516 . S
C2515 C2516 1.502 . S
C2515 C2517 1.561 . S
C2515 C2518 1.526 . S
C2516 H2500 0.959 . S
C2516 H2501 0.959 . S
C2516 H2502 0.961 . S
C2516 C2515 1.502 . S
C2517 H2503 0.960 . S
C2517 H2504 0.961 . S
C2517 H2505 0.959 . S
C2517 C2515 1.561 . S
C2518 C2515 1.526 . S
C2518 C2519 1.396 . S
C2518 C2523 1.390 . S
C2519 C2513 1.465 . S
C2519 C2518 1.396 . S
C2519 C2520 1.399 . S
C2520 H2506 0.929 . S
C2520 C2519 1.399 . S
C2520 C2521 1.385 . S
C2521 H2507 0.931 . S
C2521 C2520 1.385 . S
C2521 C2522 1.389 . S
C2522 C2521 1.389 . S
C2522 C2523 1.387 . S
C2523 H2508 0.930 . S
C2523 C2518 1.390 . S
C2523 C2522 1.387 . S
H2524 C2536 0.930 . S
H2525 C2538 0.930 . S
H2526 C2539 0.930 . S
H2527 C2543 0.959 . S
H2528 C2543 0.959 . S
H2529 C2543 0.961 . S
H2530 C2544 0.960 . S
H2531 C2544 0.961 . S
H2532 C2544 0.959 . S
H2533 C2547 0.929 . S
H2534 C2548 0.931 . S
H2535 C2550 0.930 . S
C2536 H2524 0.930 . S
C2536 C2537 1.399 . S
C2536 C2541 1.399 . S
C2537 C2536 1.399 . S
C2537 C2538 1.376 . S
C2538 H2525 0.930 . S
C2538 C2537 1.376 . S
C2538 C2539 1.388 . S
C2539 H2526 0.930 . S
C2539 C2538 1.388 . S
C2539 C2540 1.390 . S
C2540 C2539 1.390 . S
C2540 C2541 1.394 . S
C2540 C2546 1.465 . S
C2541 C2536 1.399 . S
C2541 C2540 1.394 . S
C2541 C2542 1.516 . S
C2542 C2541 1.516 . S
C2542 C2543 1.502 . S
C2542 C2544 1.561 . S
C2542 C2545 1.526 . S
C2543 H2527 0.959 . S
C2543 H2528 0.959 . S
C2543 H2529 0.961 . S
C2543 C2542 1.502 . S
C2544 H2530 0.960 . S
C2544 H2531 0.961 . S
C2544 H2532 0.959 . S
C2544 C2542 1.561 . S
C2545 C2542 1.526 . S
C2545 C2546 1.396 . S
C2545 C2550 1.390 . S
C2546 C2540 1.465 . S
C2546 C2545 1.396 . S
C2546 C2547 1.399 . S
C2547 H2533 0.929 . S
C2547 C2546 1.399 . S
C2547 C2548 1.385 . S
C2548 H2534 0.931 . S
C2548 C2547 1.385 . S
C2548 C2549 1.389 . S
C2549 C2548 1.389 . S
C2549 C2550 1.387 . S
C2550 H2535 0.930 . S
C2550 C2545 1.390 . S
C2550 C2549 1.387 . S
H2551 C2563 0.930 . S
H2552 C2565 0.930 . S
H2553 C2566 0.930 . S
H2554 C2570 0.959 . S
H2555 C2570 0.959 . S
H2556 C2570 0.961 . S
H2557 C2571 0.960 . S
H2558 C2571 0.961 . S
H2559 C2571 0.959 . S
H2560 C2574 0.929 . S
H2561 C2575 0.931 . S
H2562 C2577 0.930 . S
C2563 H2551 0.930 . S
C2563 C2564 1.399 . S
C2563 C2568 1.399 . S
C2564 C2563 1.399 . S
C2564 C2565 1.376 . S
C2565 H2552 0.930 . S
C2565 C2564 1.376 . S
C2565 C2566 1.388 . S
C2566 H2553 0.930 . S
C2566 C2565 1.388 . S
C2566 C2567 1.390 . S
C2567 C2566 1.390 . S
C2567 C2568 1.394 . S
C2567 C2573 1.465 . S
C2568 C2563 1.399 . S
C2568 C2567 1.394 . S
C2568 C2569 1.516 . S
C2569 C2568 1.516 . S
C2569 C2570 1.502 . S
C2569 C2571 1.561 . S
C2569 C2572 1.526 . S
C2570 H2554 0.959 . S
C2570 H2555 0.959 . S
C2570 H2556 0.961 . S
C2570 C2569 1.502 . S
C2571 H2557 0.960 . S
C2571 H2558 0.961 . S
C2571 H2559 0.959 . S
C2571 C2569 1.561 . S
C2572 C2569 1.526 . S
C2572 C2573 1.396 . S
C2572 C2577 1.390 . S
C2573 C2567 1.465 . S
C2573 C2572 1.396 . S
C2573 C2574 1.399 . S
C2574 H2560 0.929 . S
C2574 C2573 1.399 . S
C2574 C2575 1.385 . S
C2575 H2561 0.931 . S
C2575 C2574 1.385 . S
C2575 C2576 1.389 . S
C2576 C2575 1.389 . S
C2576 C2577 1.387 . S
C2577 H2562 0.930 . S
C2577 C2572 1.390 . S
C2577 C2576 1.387 . S
H2578 C2590 0.930 . S
H2579 C2592 0.930 . S
H2580 C2593 0.930 . S
H2581 C2597 0.959 . S
H2582 C2597 0.959 . S
H2583 C2597 0.961 . S
H2584 C2598 0.960 . S
H2585 C2598 0.961 . S
H2586 C2598 0.959 . S
H2587 C2601 0.929 . S
H2588 C2602 0.931 . S
H2589 C2604 0.930 . S
C2590 H2578 0.930 . S
C2590 C2591 1.399 . S
C2590 C2595 1.399 . S
C2591 C2590 1.399 . S
C2591 C2592 1.376 . S
C2592 H2579 0.930 . S
C2592 C2591 1.376 . S
C2592 C2593 1.388 . S
C2593 H2580 0.930 . S
C2593 C2592 1.388 . S
C2593 C2594 1.390 . S
C2594 C2593 1.390 . S
C2594 C2595 1.394 . S
C2594 C2600 1.465 . S
C2595 C2590 1.399 . S
C2595 C2594 1.394 . S
C2595 C2596 1.516 . S
C2596 C2595 1.516 . S
C2596 C2597 1.502 . S
C2596 C2598 1.561 . S
C2596 C2599 1.526 . S
C2597 H2581 0.959 . S
C2597 H2582 0.959 . S
C2597 H2583 0.961 . S
C2597 C2596 1.502 . S
C2598 H2584 0.960 . S
C2598 H2585 0.961 . S
C2598 H2586 0.959 . S
C2598 C2596 1.561 . S
C2599 C2596 1.526 . S
C2599 C2600 1.396 . S
C2599 C2604 1.390 . S
C2600 C2594 1.465 . S
C2600 C2599 1.396 . S
C2600 C2601 1.399 . S
C2601 H2587 0.929 . S
C2601 C2600 1.399 . S
C2601 C2602 1.385 . S
C2602 H2588 0.931 . S
C2602 C2601 1.385 . S
C2602 C2603 1.389 . S
C2603 C2602 1.389 . S
C2603 C2604 1.387 . S
C2604 H2589 0.930 . S
C2604 C2599 1.390 . S
C2604 C2603 1.387 . S
H2605 C2617 0.930 . S
H2606 C2619 0.930 . S
H2607 C2620 0.930 . S
H2608 C2624 0.959 1_655 S
H2609 C2624 0.959 . S
H2610 C2624 0.961 1_655 S
H2611 C2625 0.960 . S
H2612 C2625 0.961 . S
H2613 C2625 0.959 . S
H2614 C2628 0.929 1_655 S
H2615 C2629 0.931 . S
H2616 C2631 0.930 . S
C2617 H2605 0.930 . S
C2617 C2618 1.399 . S
C2617 C2622 1.399 . S
C2618 C2617 1.399 . S
C2618 C2619 1.376 . S
C2619 H2606 0.930 . S
C2619 C2618 1.376 . S
C2619 C2620 1.388 . S
C2620 H2607 0.930 . S
C2620 C2619 1.388 . S
C2620 C2621 1.390 . S
C2621 C2620 1.390 . S
C2621 C2622 1.394 . S
C2621 C2627 1.465 . S
C2622 C2617 1.399 . S
C2622 C2621 1.394 . S
C2622 C2623 1.516 1_655 S
C2623 C2622 1.516 1_455 S
C2623 C2624 1.502 . S
C2623 C2625 1.561 . S
C2623 C2626 1.526 . S
C2624 H2608 0.959 1_455 S
C2624 H2609 0.959 . S
C2624 H2610 0.961 1_455 S
C2624 C2623 1.502 . S
C2625 H2611 0.960 . S
C2625 H2612 0.961 . S
C2625 H2613 0.959 . S
C2625 C2623 1.561 . S
C2626 C2623 1.526 . S
C2626 C2627 1.396 1_455 S
C2626 C2631 1.390 . S
C2627 C2621 1.465 . S
C2627 C2626 1.396 1_655 S
C2627 C2628 1.399 1_655 S
C2628 H2614 0.929 1_455 S
C2628 C2627 1.399 1_455 S
C2628 C2629 1.385 . S
C2629 H2615 0.931 . S
C2629 C2628 1.385 . S
C2629 C2630 1.389 . S
C2630 C2629 1.389 . S
C2630 C2631 1.387 . S
C2631 H2616 0.930 . S
C2631 C2626 1.390 . S
C2631 C2630 1.387 . S
H2632 C2644 0.930 . S
H2633 C2646 0.930 . S
H2634 C2647 0.930 . S
H2635 C2651 0.959 . S
H2636 C2651 0.959 . S
H2637 C2651 0.961 . S
H2638 C2652 0.960 . S
H2639 C2652 0.961 . S
H2640 C2652 0.959 . S
H2641 C2655 0.929 . S
H2642 C2656 0.931 . S
H2643 C2658 0.930 . S
C2644 H2632 0.930 . S
C2644 C2645 1.399 . S
C2644 C2649 1.399 . S
C2645 C2644 1.399 . S
C2645 C2646 1.376 . S
C2646 H2633 0.930 . S
C2646 C2645 1.376 . S
C2646 C2647 1.388 . S
C2647 H2634 0.930 . S
C2647 C2646 1.388 . S
C2647 C2648 1.390 . S
C2648 C2647 1.390 . S
C2648 C2649 1.394 . S
C2648 C2654 1.465 . S
C2649 C2644 1.399 . S
C2649 C2648 1.394 . S
C2649 C2650 1.516 . S
C2650 C2649 1.516 . S
C2650 C2651 1.502 . S
C2650 C2652 1.561 . S
C2650 C2653 1.526 . S
C2651 H2635 0.959 . S
C2651 H2636 0.959 . S
C2651 H2637 0.961 . S
C2651 C2650 1.502 . S
C2652 H2638 0.960 . S
C2652 H2639 0.961 . S
C2652 H2640 0.959 . S
C2652 C2650 1.561 . S
C2653 C2650 1.526 . S
C2653 C2654 1.396 . S
C2653 C2658 1.390 . S
C2654 C2648 1.465 . S
C2654 C2653 1.396 . S
C2654 C2655 1.399 . S
C2655 H2641 0.929 . S
C2655 C2654 1.399 . S
C2655 C2656 1.385 . S
C2656 H2642 0.931 . S
C2656 C2655 1.385 . S
C2656 C2657 1.389 . S
C2657 C2656 1.389 . S
C2657 C2658 1.387 . S
C2658 H2643 0.930 . S
C2658 C2653 1.390 . S
C2658 C2657 1.387 . S
H2659 C2671 0.930 . S
H2660 C2673 0.930 . S
H2661 C2674 0.930 . S
H2662 C2678 0.959 . S
H2663 C2678 0.959 . S
H2664 C2678 0.961 . S
H2665 C2679 0.960 . S
H2666 C2679 0.961 . S
H2667 C2679 0.959 . S
H2668 C2682 0.929 . S
H2669 C2683 0.931 . S
H2670 C2685 0.930 . S
C2671 H2659 0.930 . S
C2671 C2672 1.399 . S
C2671 C2676 1.399 . S
C2672 C2671 1.399 . S
C2672 C2673 1.376 . S
C2673 H2660 0.930 . S
C2673 C2672 1.376 . S
C2673 C2674 1.388 . S
C2674 H2661 0.930 . S
C2674 C2673 1.388 . S
C2674 C2675 1.390 . S
C2675 C2674 1.390 . S
C2675 C2676 1.394 . S
C2675 C2681 1.465 . S
C2676 C2671 1.399 . S
C2676 C2675 1.394 . S
C2676 C2677 1.516 1_556 S
C2677 C2676 1.516 1_554 S
C2677 C2678 1.502 . S
C2677 C2679 1.561 . S
C2677 C2680 1.526 . S
C2678 H2662 0.959 . S
C2678 H2663 0.959 . S
C2678 H2664 0.961 . S
C2678 C2677 1.502 . S
C2679 H2665 0.960 . S
C2679 H2666 0.961 . S
C2679 H2667 0.959 . S
C2679 C2677 1.561 . S
C2680 C2677 1.526 . S
C2680 C2681 1.396 1_554 S
C2680 C2685 1.390 . S
C2681 C2675 1.465 . S
C2681 C2680 1.396 1_556 S
C2681 C2682 1.399 . S
C2682 H2668 0.929 . S
C2682 C2681 1.399 . S
C2682 C2683 1.385 1_556 S
C2683 H2669 0.931 . S
C2683 C2682 1.385 1_554 S
C2683 C2684 1.389 . S
C2684 C2683 1.389 . S
C2684 C2685 1.387 . S
C2685 H2670 0.930 . S
C2685 C2680 1.390 . S
C2685 C2684 1.387 . S
H2686 C2698 0.930 . S
H2687 C2700 0.930 . S
H2688 C2701 0.930 . S
H2689 C2705 0.959 . S
H2690 C2705 0.959 . S
H2691 C2705 0.961 . S
H2692 C2706 0.960 . S
H2693 C2706 0.961 . S
H2694 C2706 0.959 . S
H2695 C2709 0.929 . S
H2696 C2710 0.931 . S
H2697 C2712 0.930 . S
C2698 H2686 0.930 . S
C2698 C2699 1.399 . S
C2698 C2703 1.399 . S
C2699 C2698 1.399 . S
C2699 C2700 1.376 . S
C2700 H2687 0.930 . S
C2700 C2699 1.376 . S
C2700 C2701 1.388 . S
C2701 H2688 0.930 . S
C2701 C2700 1.388 . S
C2701 C2702 1.390 . S
C2702 C2701 1.390 . S
C2702 C2703 1.394 . S
C2702 C2708 1.465 . S
C2703 C2698 1.399 . S
C2703 C2702 1.394 . S
C2703 C2704 1.516 . S
C2704 C2703 1.516 . S
C2704 C2705 1.502 . S
C2704 C2706 1.561 . S
C2704 C2707 1.526 . S
C2705 H2689 0.959 . S
C2705 H2690 0.959 . S
C2705 H2691 0.961 . S
C2705 C2704 1.502 . S
C2706 H2692 0.960 . S
C2706 H2693 0.961 . S
C2706 H2694 0.959 . S
C2706 C2704 1.561 . S
C2707 C2704 1.526 . S
C2707 C2708 1.396 . S
C2707 C2712 1.390 . S
C2708 C2702 1.465 . S
C2708 C2707 1.396 . S
C2708 C2709 1.399 . S
C2709 H2695 0.929 . S
C2709 C2708 1.399 . S
C2709 C2710 1.385 . S
C2710 H2696 0.931 . S
C2710 C2709 1.385 . S
C2710 C2711 1.389 . S
C2711 C2710 1.389 . S
C2711 C2712 1.387 . S
C2712 H2697 0.930 . S
C2712 C2707 1.390 . S
C2712 C2711 1.387 . S
H2713 C2725 0.930 . S
H2714 C2727 0.930 . S
H2715 C2728 0.930 . S
H2716 C2732 0.959 . S
H2717 C2732 0.959 . S
H2718 C2732 0.977 . S
H2719 C2733 0.960 . S
H2720 C2733 0.961 . S
H2721 C2733 0.959 . S
H2722 C2736 0.929 . S
H2723 C2737 0.931 . S
H2724 C2739 0.930 . S
C2725 H2713 0.930 . S
C2725 C2726 1.399 . S
C2725 C2730 1.399 . S
C2726 C2725 1.399 . S
C2726 C2727 1.376 . S
C2727 H2714 0.930 . S
C2727 C2726 1.376 . S
C2727 C2728 1.388 . S
C2728 H2715 0.930 . S
C2728 C2727 1.388 . S
C2728 C2729 1.390 . S
C2729 C2728 1.390 . S
C2729 C2730 1.394 . S
C2729 C2735 1.465 . S
C2730 C2725 1.399 . S
C2730 C2729 1.394 . S
C2730 C2731 1.516 . S
C2731 C2730 1.516 . S
C2731 C2732 1.502 . S
C2731 C2733 1.561 . S
C2731 C2734 1.526 . S
C2732 H2716 0.959 . S
C2732 H2717 0.959 . S
C2732 H2718 0.977 . S
C2732 C2731 1.502 . S
C2733 H2719 0.960 . S
C2733 H2720 0.961 . S
C2733 H2721 0.959 . S
C2733 C2731 1.561 . S
C2734 C2731 1.526 . S
C2734 C2735 1.396 . S
C2734 C2739 1.390 . S
C2735 C2729 1.465 . S
C2735 C2734 1.396 . S
C2735 C2736 1.399 . S
C2736 H2722 0.929 . S
C2736 C2735 1.399 . S
C2736 C2737 1.385 . S
C2737 H2723 0.931 . S
C2737 C2736 1.385 . S
C2737 C2738 1.389 . S
C2738 C2737 1.389 . S
C2738 C2739 1.387 . S
C2739 H2724 0.930 . S
C2739 C2734 1.390 . S
C2739 C2738 1.387 . S
H2740 C2752 0.930 . S
H2741 C2754 0.930 . S
H2742 C2755 0.930 . S
H2743 C2759 0.959 . S
H2744 C2759 0.959 . S
H2745 C2759 0.961 . S
H2746 C2760 0.960 . S
H2747 C2760 0.961 . S
H2748 C2760 0.959 . S
H2749 C2763 0.929 . S
H2750 C2764 0.931 . S
H2751 C2766 0.930 . S
C2752 H2740 0.930 . S
C2752 C2753 1.399 . S
C2752 C2757 1.399 . S
C2753 C2752 1.399 . S
C2753 C2754 1.376 . S
C2754 H2741 0.930 . S
C2754 C2753 1.376 . S
C2754 C2755 1.388 . S
C2755 H2742 0.930 . S
C2755 C2754 1.388 . S
C2755 C2756 1.390 . S
C2756 C2755 1.390 . S
C2756 C2757 1.394 . S
C2756 C2762 1.465 . S
C2757 C2752 1.399 . S
C2757 C2756 1.394 . S
C2757 C2758 1.516 . S
C2758 C2757 1.516 . S
C2758 C2759 1.502 . S
C2758 C2760 1.561 . S
C2758 C2761 1.526 . S
C2759 H2743 0.959 . S
C2759 H2744 0.959 . S
C2759 H2745 0.961 . S
C2759 C2758 1.502 . S
C2760 H2746 0.960 . S
C2760 H2747 0.961 . S
C2760 H2748 0.959 . S
C2760 C2758 1.561 . S
C2761 C2758 1.526 . S
C2761 C2762 1.396 . S
C2761 C2766 1.390 . S
C2762 C2756 1.465 . S
C2762 C2761 1.396 . S
C2762 C2763 1.399 . S
C2763 H2749 0.929 . S
C2763 C2762 1.399 . S
C2763 C2764 1.385 . S
C2764 H2750 0.931 . S
C2764 C2763 1.385 . S
C2764 C2765 1.389 . S
C2765 C2764 1.389 . S
C2765 C2766 1.387 . S
C2766 H2751 0.930 . S
C2766 C2761 1.390 . S
C2766 C2765 1.387 . S
H2767 C2779 0.930 . S
H2768 C2781 0.930 . S
H2769 C2782 0.930 . S
H2770 C2786 0.959 . S
H2771 C2786 0.959 . S
H2772 C2786 0.961 . S
H2773 C2787 0.947 1_554 S
H2774 C2787 0.961 . S
H2775 C2787 0.957 . S
H2776 C2790 0.929 . S
H2777 C2791 0.931 . S
H2778 C2793 0.930 . S
C2779 H2767 0.930 . S
C2779 C2780 1.399 . S
C2779 C2784 1.399 . S
C2780 C2779 1.399 . S
C2780 C2781 1.376 . S
C2781 H2768 0.930 . S
C2781 C2780 1.376 . S
C2781 C2782 1.388 . S
C2782 H2769 0.930 . S
C2782 C2781 1.388 . S
C2782 C2783 1.390 . S
C2783 C2782 1.390 . S
C2783 C2784 1.394 . S
C2783 C2789 1.465 . S
C2784 C2779 1.399 . S
C2784 C2783 1.394 . S
C2784 C2785 1.483 1_554 S
C2785 C2784 1.483 1_556 S
C2785 C2786 1.517 . S
C2785 C2787 1.569 . S
C2785 C2788 1.535 . S
C2786 H2770 0.959 . S
C2786 H2771 0.959 . S
C2786 H2772 0.961 . S
C2786 C2785 1.517 . S
C2787 H2773 0.947 1_556 S
C2787 H2774 0.961 . S
C2787 H2775 0.957 . S
C2787 C2785 1.569 . S
C2788 C2785 1.535 . S
C2788 C2789 1.396 1_556 S
C2788 C2793 1.390 . S
C2789 C2783 1.465 . S
C2789 C2788 1.396 1_554 S
C2789 C2790 1.399 . S
C2790 H2776 0.929 . S
C2790 C2789 1.399 . S
C2790 C2791 1.385 1_554 S
C2791 H2777 0.931 . S
C2791 C2790 1.385 1_556 S
C2791 C2792 1.389 . S
C2792 C2791 1.389 . S
C2792 C2793 1.387 . S
C2793 H2778 0.930 . S
C2793 C2788 1.390 . S
C2793 C2792 1.387 . S
H2794 C2806 0.930 . S
H2795 C2808 0.930 . S
H2796 C2809 0.930 . S
H2797 C2813 0.959 . S
H2798 C2813 0.959 . S
H2799 C2813 0.961 . S
H2800 C2814 0.960 . S
H2801 C2814 0.961 . S
H2802 C2814 0.959 . S
H2803 C2817 0.929 . S
H2804 C2818 0.931 . S
H2805 C2820 0.930 . S
C2806 H2794 0.930 . S
C2806 C2807 1.399 . S
C2806 C2811 1.399 . S
C2807 C2806 1.399 . S
C2807 C2808 1.376 . S
C2808 H2795 0.930 . S
C2808 C2807 1.376 . S
C2808 C2809 1.388 . S
C2809 H2796 0.930 . S
C2809 C2808 1.388 . S
C2809 C2810 1.390 . S
C2810 C2809 1.390 . S
C2810 C2811 1.394 . S
C2810 C2816 1.465 . S
C2811 C2806 1.399 . S
C2811 C2810 1.394 . S
C2811 C2812 1.516 . S
C2812 C2811 1.516 . S
C2812 C2813 1.502 . S
C2812 C2814 1.561 . S
C2812 C2815 1.526 . S
C2813 H2797 0.959 . S
C2813 H2798 0.959 . S
C2813 H2799 0.961 . S
C2813 C2812 1.502 . S
C2814 H2800 0.960 . S
C2814 H2801 0.961 . S
C2814 H2802 0.959 . S
C2814 C2812 1.561 . S
C2815 C2812 1.526 . S
C2815 C2816 1.396 . S
C2815 C2820 1.390 . S
C2816 C2810 1.465 . S
C2816 C2815 1.396 . S
C2816 C2817 1.399 . S
C2817 H2803 0.929 . S
C2817 C2816 1.399 . S
C2817 C2818 1.385 . S
C2818 H2804 0.931 . S
C2818 C2817 1.385 . S
C2818 C2819 1.389 . S
C2819 C2818 1.389 . S
C2819 C2820 1.387 . S
C2820 H2805 0.930 . S
C2820 C2815 1.390 . S
C2820 C2819 1.387 . S
H2821 C2833 0.930 . S
H2822 C2835 0.930 . S
H2823 C2836 0.930 . S
H2824 C2840 0.959 . S
H2825 C2840 0.959 . S
H2826 C2840 0.961 . S
H2827 C2841 0.960 . S
H2828 C2841 0.961 . S
H2829 C2841 0.959 . S
H2830 C2844 0.929 . S
H2831 C2845 0.931 . S
H2832 C2847 0.930 . S
C2833 H2821 0.930 . S
C2833 C2834 1.399 . S
C2833 C2838 1.399 . S
C2834 C2833 1.399 . S
C2834 C2835 1.376 . S
C2835 H2822 0.930 . S
C2835 C2834 1.376 . S
C2835 C2836 1.388 . S
C2836 H2823 0.930 . S
C2836 C2835 1.388 . S
C2836 C2837 1.390 . S
C2837 C2836 1.390 . S
C2837 C2838 1.394 . S
C2837 C2843 1.465 . S
C2838 C2833 1.399 . S
C2838 C2837 1.394 . S
C2838 C2839 1.516 . S
C2839 C2838 1.516 . S
C2839 C2840 1.502 . S
C2839 C2841 1.561 . S
C2839 C2842 1.526 . S
C2840 H2824 0.959 . S
C2840 H2825 0.959 . S
C2840 H2826 0.961 . S
C2840 C2839 1.502 . S
C2841 H2827 0.960 . S
C2841 H2828 0.961 . S
C2841 H2829 0.959 . S
C2841 C2839 1.561 . S
C2842 C2839 1.526 . S
C2842 C2843 1.396 . S
C2842 C2847 1.390 . S
C2843 C2837 1.465 . S
C2843 C2842 1.396 . S
C2843 C2844 1.399 . S
C2844 H2830 0.929 . S
C2844 C2843 1.399 . S
C2844 C2845 1.385 . S
C2845 H2831 0.931 . S
C2845 C2844 1.385 . S
C2845 C2846 1.389 . S
C2846 C2845 1.389 . S
C2846 C2847 1.387 . S
C2847 H2832 0.930 . S
C2847 C2842 1.390 . S
C2847 C2846 1.387 . S
H2848 C2860 0.930 . S
H2849 C2862 0.930 . S
H2850 C2863 0.930 . S
H2851 C2867 0.959 . S
H2852 C2867 0.959 . S
H2853 C2867 0.961 . S
H2854 C2868 0.960 . S
H2855 C2868 0.961 . S
H2856 C2868 0.959 . S
H2857 C2871 0.929 . S
H2858 C2872 0.931 . S
H2859 C2874 0.930 . S
C2860 H2848 0.930 . S
C2860 C2861 1.399 . S
C2860 C2865 1.399 . S
C2861 C2860 1.399 . S
C2861 C2862 1.376 . S
C2862 H2849 0.930 . S
C2862 C2861 1.376 . S
C2862 C2863 1.388 . S
C2863 H2850 0.930 . S
C2863 C2862 1.388 . S
C2863 C2864 1.390 . S
C2864 C2863 1.390 . S
C2864 C2865 1.394 . S
C2864 C2870 1.465 . S
C2865 C2860 1.399 . S
C2865 C2864 1.394 . S
C2865 C2866 1.516 . S
C2866 C2865 1.516 . S
C2866 C2867 1.502 . S
C2866 C2868 1.561 . S
C2866 C2869 1.526 . S
C2867 H2851 0.959 . S
C2867 H2852 0.959 . S
C2867 H2853 0.961 . S
C2867 C2866 1.502 . S
C2868 H2854 0.960 . S
C2868 H2855 0.961 . S
C2868 H2856 0.959 . S
C2868 C2866 1.561 . S
C2869 C2866 1.526 . S
C2869 C2870 1.396 . S
C2869 C2874 1.390 . S
C2870 C2864 1.465 . S
C2870 C2869 1.396 . S
C2870 C2871 1.399 . S
C2871 H2857 0.929 . S
C2871 C2870 1.399 . S
C2871 C2872 1.385 . S
C2872 H2858 0.931 . S
C2872 C2871 1.385 . S
C2872 C2873 1.389 . S
C2873 C2872 1.389 . S
C2873 C2874 1.387 . S
C2874 H2859 0.930 . S
C2874 C2869 1.390 . S
C2874 C2873 1.387 . S
H2875 C2887 0.930 . S
H2876 C2889 0.930 . S
H2877 C2890 0.930 . S
H2878 C2894 0.959 . S
H2879 C2894 0.959 . S
H2880 C2894 0.961 . S
H2881 C2895 0.960 1_556 S
H2882 C2895 0.961 . S
H2883 C2895 0.959 . S
H2884 C2898 0.929 . S
H2885 C2899 0.931 . S
H2886 C2901 0.930 . S
C2887 H2875 0.930 . S
C2887 C2888 1.399 . S
C2887 C2892 1.399 . S
C2888 C2887 1.399 . S
C2888 C2889 1.376 . S
C2889 H2876 0.930 . S
C2889 C2888 1.376 . S
C2889 C2890 1.388 . S
C2890 H2877 0.930 . S
C2890 C2889 1.388 . S
C2890 C2891 1.390 . S
C2891 C2890 1.390 . S
C2891 C2892 1.394 . S
C2891 C2897 1.465 . S
C2892 C2887 1.399 . S
C2892 C2891 1.394 . S
C2892 C2893 1.516 . S
C2893 C2892 1.516 . S
C2893 C2894 1.502 . S
C2893 C2895 1.561 . S
C2893 C2896 1.526 . S
C2894 H2878 0.959 . S
C2894 H2879 0.959 . S
C2894 H2880 0.961 . S
C2894 C2893 1.502 . S
C2895 H2881 0.960 1_554 S
C2895 H2882 0.961 . S
C2895 H2883 0.959 . S
C2895 C2893 1.561 . S
C2896 C2893 1.526 . S
C2896 C2897 1.396 . S
C2896 C2901 1.390 . S
C2897 C2891 1.465 . S
C2897 C2896 1.396 . S
C2897 C2898 1.399 . S
C2898 H2884 0.929 . S
C2898 C2897 1.399 . S
C2898 C2899 1.385 . S
C2899 H2885 0.931 . S
C2899 C2898 1.385 . S
C2899 C2900 1.389 . S
C2900 C2899 1.389 . S
C2900 C2901 1.387 . S
C2901 H2886 0.930 . S
C2901 C2896 1.390 . S
C2901 C2900 1.387 . S
H2902 C2914 0.930 . S
H2903 C2916 0.930 . S
H2904 C2917 0.930 . S
H2905 C2921 0.959 . S
H2906 C2921 0.959 . S
H2907 C2921 0.961 . S
H2908 C2922 0.960 . S
H2909 C2922 0.961 . S
H2910 C2922 0.959 . S
H2911 C2925 0.929 . S
H2912 C2926 0.931 . S
H2913 C2928 0.930 . S
C2914 H2902 0.930 . S
C2914 C2915 1.399 . S
C2914 C2919 1.399 . S
C2915 C2914 1.399 . S
C2915 C2916 1.376 . S
C2916 H2903 0.930 . S
C2916 C2915 1.376 . S
C2916 C2917 1.388 . S
C2917 H2904 0.930 . S
C2917 C2916 1.388 . S
C2917 C2918 1.390 . S
C2918 C2917 1.390 . S
C2918 C2919 1.394 . S
C2918 C2924 1.465 . S
C2919 C2914 1.399 . S
C2919 C2918 1.394 . S
C2919 C2920 1.516 . S
C2920 C2919 1.516 . S
C2920 C2921 1.502 . S
C2920 C2922 1.561 . S
C2920 C2923 1.526 . S
C2921 H2905 0.959 . S
C2921 H2906 0.959 . S
C2921 H2907 0.961 . S
C2921 C2920 1.502 . S
C2922 H2908 0.960 . S
C2922 H2909 0.961 . S
C2922 H2910 0.959 . S
C2922 C2920 1.561 . S
C2923 C2920 1.526 . S
C2923 C2924 1.396 . S
C2923 C2928 1.390 . S
C2924 C2918 1.465 . S
C2924 C2923 1.396 . S
C2924 C2925 1.399 . S
C2925 H2911 0.929 . S
C2925 C2924 1.399 . S
C2925 C2926 1.385 . S
C2926 H2912 0.931 . S
C2926 C2925 1.385 . S
C2926 C2927 1.389 . S
C2927 C2926 1.389 . S
C2927 C2928 1.387 . S
C2928 H2913 0.930 . S
C2928 C2923 1.390 . S
C2928 C2927 1.387 . S
H2929 C2941 0.930 . S
H2930 C2943 0.930 . S
H2931 C2944 0.930 . S
H2932 C2948 0.959 . S
H2933 C2948 0.959 . S
H2934 C2948 0.961 . S
H2935 C2949 0.960 . S
H2936 C2949 0.961 . S
H2937 C2949 0.959 . S
H2938 C2952 0.929 . S
H2939 C2953 0.931 . S
H2940 C2955 0.930 . S
C2941 H2929 0.930 . S
C2941 C2942 1.399 . S
C2941 C2946 1.399 . S
C2942 C2941 1.399 . S
C2942 C2943 1.376 . S
C2943 H2930 0.930 . S
C2943 C2942 1.376 . S
C2943 C2944 1.388 . S
C2944 H2931 0.930 . S
C2944 C2943 1.388 . S
C2944 C2945 1.390 . S
C2945 C2944 1.390 . S
C2945 C2946 1.394 . S
C2945 C2951 1.465 . S
C2946 C2941 1.399 . S
C2946 C2945 1.394 . S
C2946 C2947 1.516 . S
C2947 C2946 1.516 . S
C2947 C2948 1.502 . S
C2947 C2949 1.561 . S
C2947 C2950 1.526 . S
C2948 H2932 0.959 . S
C2948 H2933 0.959 . S
C2948 H2934 0.961 . S
C2948 C2947 1.502 . S
C2949 H2935 0.960 . S
C2949 H2936 0.961 . S
C2949 H2937 0.959 . S
C2949 C2947 1.561 . S
C2950 C2947 1.526 . S
C2950 C2951 1.396 . S
C2950 C2955 1.390 . S
C2951 C2945 1.465 . S
C2951 C2950 1.396 . S
C2951 C2952 1.399 . S
C2952 H2938 0.929 . S
C2952 C2951 1.399 . S
C2952 C2953 1.385 . S
C2953 H2939 0.931 . S
C2953 C2952 1.385 . S
C2953 C2954 1.389 . S
C2954 C2953 1.389 . S
C2954 C2955 1.387 . S
C2955 H2940 0.930 . S
C2955 C2950 1.390 . S
C2955 C2954 1.387 . S
H2956 C2968 0.930 . S
H2957 C2970 0.930 . S
H2958 C2971 0.930 . S
H2959 C2975 0.959 . S
H2960 C2975 0.959 . S
H2961 C2975 0.961 . S
H2962 C2976 0.960 . S
H2963 C2976 0.961 . S
H2964 C2976 0.959 . S
H2965 C2979 0.929 . S
H2966 C2980 0.931 . S
H2967 C2982 0.930 . S
C2968 H2956 0.930 . S
C2968 C2969 1.399 . S
C2968 C2973 1.399 . S
C2969 C2968 1.399 . S
C2969 C2970 1.376 . S
C2970 H2957 0.930 . S
C2970 C2969 1.376 . S
C2970 C2971 1.388 . S
C2971 H2958 0.930 . S
C2971 C2970 1.388 . S
C2971 C2972 1.390 . S
C2972 C2971 1.390 . S
C2972 C2973 1.394 . S
C2972 C2978 1.465 . S
C2973 C2968 1.399 . S
C2973 C2972 1.394 . S
C2973 C2974 1.516 . S
C2974 C2973 1.516 . S
C2974 C2975 1.502 . S
C2974 C2976 1.561 . S
C2974 C2977 1.526 . S
C2975 H2959 0.959 . S
C2975 H2960 0.959 . S
C2975 H2961 0.961 . S
C2975 C2974 1.502 . S
C2976 H2962 0.960 . S
C2976 H2963 0.961 . S
C2976 H2964 0.959 . S
C2976 C2974 1.561 . S
C2977 C2974 1.526 . S
C2977 C2978 1.396 . S
C2977 C2982 1.390 . S
C2978 C2972 1.465 . S
C2978 C2977 1.396 . S
C2978 C2979 1.399 . S
C2979 H2965 0.929 . S
C2979 C2978 1.399 . S
C2979 C2980 1.385 . S
C2980 H2966 0.931 . S
C2980 C2979 1.385 . S
C2980 C2981 1.389 . S
C2981 C2980 1.389 . S
C2981 C2982 1.387 . S
C2982 H2967 0.930 . S
C2982 C2977 1.390 . S
C2982 C2981 1.387 . S
H2983 C2995 0.930 . S
H2984 C2997 0.930 . S
H2985 C2998 0.930 . S
H2986 C3002 0.959 . S
H2987 C3002 0.959 . S
H2988 C3002 0.961 . S
H2989 C3003 0.960 . S
H2990 C3003 0.961 . S
H2991 C3003 0.959 . S
H2992 C3006 0.929 . S
H2993 C3007 0.931 . S
H2994 C3009 0.930 . S
C2995 H2983 0.930 . S
C2995 C2996 1.399 . S
C2995 C3000 1.399 . S
C2996 C2995 1.399 . S
C2996 C2997 1.376 . S
C2997 H2984 0.930 . S
C2997 C2996 1.376 . S
C2997 C2998 1.388 . S
C2998 H2985 0.930 . S
C2998 C2997 1.388 . S
C2998 C2999 1.390 . S
C2999 C2998 1.390 . S
C2999 C3000 1.394 . S
C2999 C3005 1.465 . S
C3000 C2995 1.399 . S
C3000 C2999 1.394 . S
C3000 C3001 1.516 . S
C3001 C3000 1.516 . S
C3001 C3002 1.502 . S
C3001 C3003 1.561 . S
C3001 C3004 1.526 . S
C3002 H2986 0.959 . S
C3002 H2987 0.959 . S
C3002 H2988 0.961 . S
C3002 C3001 1.502 . S
C3003 H2989 0.960 . S
C3003 H2990 0.961 . S
C3003 H2991 0.959 . S
C3003 C3001 1.561 . S
C3004 C3001 1.526 . S
C3004 C3005 1.396 . S
C3004 C3009 1.390 . S
C3005 C2999 1.465 . S
C3005 C3004 1.396 . S
C3005 C3006 1.399 . S
C3006 H2992 0.929 . S
C3006 C3005 1.399 . S
C3006 C3007 1.385 . S
C3007 H2993 0.931 . S
C3007 C3006 1.385 . S
C3007 C3008 1.389 . S
C3008 C3007 1.389 . S
C3008 C3009 1.387 . S
C3009 H2994 0.930 . S
C3009 C3004 1.390 . S
C3009 C3008 1.387 . S
H3010 C3022 0.930 . S
H3011 C3024 0.930 . S
H3012 C3025 0.930 . S
H3013 C3029 0.959 . S
H3014 C3029 0.959 . S
H3015 C3029 0.961 . S
H3016 C3030 0.960 . S
H3017 C3030 0.961 . S
H3018 C3030 0.959 . S
H3019 C3033 0.929 . S
H3020 C3034 0.931 . S
H3021 C3036 0.930 . S
C3022 H3010 0.930 . S
C3022 C3023 1.399 . S
C3022 C3027 1.399 . S
C3023 C3022 1.399 . S
C3023 C3024 1.376 . S
C3024 H3011 0.930 . S
C3024 C3023 1.376 . S
C3024 C3025 1.388 . S
C3025 H3012 0.930 . S
C3025 C3024 1.388 . S
C3025 C3026 1.390 . S
C3026 C3025 1.390 . S
C3026 C3027 1.394 . S
C3026 C3032 1.465 . S
C3027 C3022 1.399 . S
C3027 C3026 1.394 . S
C3027 C3028 1.516 . S
C3028 C3027 1.516 . S
C3028 C3029 1.502 . S
C3028 C3030 1.561 . S
C3028 C3031 1.526 . S
C3029 H3013 0.959 . S
C3029 H3014 0.959 . S
C3029 H3015 0.961 . S
C3029 C3028 1.502 . S
C3030 H3016 0.960 . S
C3030 H3017 0.961 . S
C3030 H3018 0.959 . S
C3030 C3028 1.561 . S
C3031 C3028 1.526 . S
C3031 C3032 1.396 . S
C3031 C3036 1.390 . S
C3032 C3026 1.465 . S
C3032 C3031 1.396 . S
C3032 C3033 1.399 . S
C3033 H3019 0.929 . S
C3033 C3032 1.399 . S
C3033 C3034 1.385 . S
C3034 H3020 0.931 . S
C3034 C3033 1.385 . S
C3034 C3035 1.389 . S
C3035 C3034 1.389 . S
C3035 C3036 1.387 . S
C3036 H3021 0.930 . S
C3036 C3031 1.390 . S
C3036 C3035 1.387 . S
H3037 C3049 0.930 . S
H3038 C3051 0.930 . S
H3039 C3052 0.930 . S
H3040 C3056 0.959 . S
H3041 C3056 0.959 . S
H3042 C3056 0.961 . S
H3043 C3057 0.960 . S
H3044 C3057 0.961 . S
H3045 C3057 0.959 . S
H3046 C3060 0.929 . S
H3047 C3061 0.931 . S
H3048 C3063 0.930 . S
C3049 H3037 0.930 . S
C3049 C3050 1.399 . S
C3049 C3054 1.399 . S
C3050 C3049 1.399 . S
C3050 C3051 1.376 . S
C3051 H3038 0.930 . S
C3051 C3050 1.376 . S
C3051 C3052 1.388 . S
C3052 H3039 0.930 . S
C3052 C3051 1.388 . S
C3052 C3053 1.390 . S
C3053 C3052 1.390 . S
C3053 C3054 1.394 . S
C3053 C3059 1.465 . S
C3054 C3049 1.399 . S
C3054 C3053 1.394 . S
C3054 C3055 1.516 . S
C3055 C3054 1.516 . S
C3055 C3056 1.502 . S
C3055 C3057 1.561 . S
C3055 C3058 1.526 . S
C3056 H3040 0.959 . S
C3056 H3041 0.959 . S
C3056 H3042 0.961 . S
C3056 C3055 1.502 . S
C3057 H3043 0.960 . S
C3057 H3044 0.961 . S
C3057 H3045 0.959 . S
C3057 C3055 1.561 . S
C3058 C3055 1.526 . S
C3058 C3059 1.396 . S
C3058 C3063 1.390 . S
C3059 C3053 1.465 . S
C3059 C3058 1.396 . S
C3059 C3060 1.399 . S
C3060 H3046 0.929 . S
C3060 C3059 1.399 . S
C3060 C3061 1.385 . S
C3061 H3047 0.931 . S
C3061 C3060 1.385 . S
C3061 C3062 1.389 . S
C3062 C3061 1.389 . S
C3062 C3063 1.387 . S
C3063 H3048 0.930 . S
C3063 C3058 1.390 . S
C3063 C3062 1.387 . S
H3064 C3076 0.930 . S
H3065 C3078 0.930 . S
H3066 C3079 0.930 . S
H3067 C3083 0.959 . S
H3068 C3083 0.959 . S
H3069 C3083 0.961 . S
H3070 C3084 0.960 . S
H3071 C3084 0.961 . S
H3072 C3084 0.959 . S
H3073 C3087 0.929 . S
H3074 C3088 0.931 . S
H3075 C3090 0.930 . S
C3076 H3064 0.930 . S
C3076 C3077 1.399 . S
C3076 C3081 1.399 . S
C3077 C3076 1.399 . S
C3077 C3078 1.376 . S
C3078 H3065 0.930 . S
C3078 C3077 1.376 . S
C3078 C3079 1.388 . S
C3079 H3066 0.930 . S
C3079 C3078 1.388 . S
C3079 C3080 1.390 . S
C3080 C3079 1.390 . S
C3080 C3081 1.394 . S
C3080 C3086 1.465 . S
C3081 C3076 1.399 . S
C3081 C3080 1.394 . S
C3081 C3082 1.516 . S
C3082 C3081 1.516 . S
C3082 C3083 1.502 . S
C3082 C3084 1.561 . S
C3082 C3085 1.526 . S
C3083 H3067 0.959 . S
C3083 H3068 0.959 . S
C3083 H3069 0.961 . S
C3083 C3082 1.502 . S
C3084 H3070 0.960 . S
C3084 H3071 0.961 . S
C3084 H3072 0.959 . S
C3084 C3082 1.561 . S
C3085 C3082 1.526 . S
C3085 C3086 1.396 . S
C3085 C3090 1.390 . S
C3086 C3080 1.465 . S
C3086 C3085 1.396 . S
C3086 C3087 1.399 . S
C3087 H3073 0.929 . S
C3087 C3086 1.399 . S
C3087 C3088 1.385 . S
C3088 H3074 0.931 . S
C3088 C3087 1.385 . S
C3088 C3089 1.389 . S
C3089 C3088 1.389 . S
C3089 C3090 1.387 . S
C3090 H3075 0.930 . S
C3090 C3085 1.390 . S
C3090 C3089 1.387 . S
H3091 C3103 0.930 . S
H3092 C3105 0.930 . S
H3093 C3106 0.930 . S
H3094 C3110 0.959 . S
H3095 C3110 0.959 . S
H3096 C3110 0.961 . S
H3097 C3111 0.960 . S
H3098 C3111 0.961 . S
H3099 C3111 0.959 . S
H3100 C3114 0.929 . S
H3101 C3115 0.931 . S
H3102 C3117 0.930 . S
C3103 H3091 0.930 . S
C3103 C3104 1.399 . S
C3103 C3108 1.399 . S
C3104 C3103 1.399 . S
C3104 C3105 1.376 . S
C3105 H3092 0.930 . S
C3105 C3104 1.376 . S
C3105 C3106 1.388 . S
C3106 H3093 0.930 . S
C3106 C3105 1.388 . S
C3106 C3107 1.390 . S
C3107 C3106 1.390 . S
C3107 C3108 1.394 . S
C3107 C3113 1.465 . S
C3108 C3103 1.399 . S
C3108 C3107 1.394 . S
C3108 C3109 1.516 . S
C3109 C3108 1.516 . S
C3109 C3110 1.502 . S
C3109 C3111 1.561 . S
C3109 C3112 1.526 . S
C3110 H3094 0.959 . S
C3110 H3095 0.959 . S
C3110 H3096 0.961 . S
C3110 C3109 1.502 . S
C3111 H3097 0.960 . S
C3111 H3098 0.961 . S
C3111 H3099 0.959 . S
C3111 C3109 1.561 . S
C3112 C3109 1.526 . S
C3112 C3113 1.396 . S
C3112 C3117 1.390 . S
C3113 C3107 1.465 . S
C3113 C3112 1.396 . S
C3113 C3114 1.399 . S
C3114 H3100 0.929 . S
C3114 C3113 1.399 . S
C3114 C3115 1.385 . S
C3115 H3101 0.931 . S
C3115 C3114 1.385 . S
C3115 C3116 1.389 . S
C3116 C3115 1.389 . S
C3116 C3117 1.387 . S
C3117 H3102 0.930 . S
C3117 C3112 1.390 . S
C3117 C3116 1.387 . S
H3118 C3130 0.930 . S
H3119 C3132 0.930 . S
H3120 C3133 0.930 . S
H3121 C3137 0.959 . S
H3122 C3137 0.959 . S
H3123 C3137 0.961 . S
H3124 C3138 0.960 . S
H3125 C3138 0.961 . S
H3126 C3138 0.959 . S
H3127 C3141 0.929 . S
H3128 C3142 0.931 . S
H3129 C3144 0.930 . S
C3130 H3118 0.930 . S
C3130 C3131 1.399 . S
C3130 C3135 1.399 . S
C3131 C3130 1.399 . S
C3131 C3132 1.376 . S
C3132 H3119 0.930 . S
C3132 C3131 1.376 . S
C3132 C3133 1.388 . S
C3133 H3120 0.930 . S
C3133 C3132 1.388 . S
C3133 C3134 1.390 . S
C3134 C3133 1.390 . S
C3134 C3135 1.394 . S
C3134 C3140 1.465 . S
C3135 C3130 1.399 . S
C3135 C3134 1.394 . S
C3135 C3136 1.516 . S
C3136 C3135 1.516 . S
C3136 C3137 1.502 . S
C3136 C3138 1.561 . S
C3136 C3139 1.526 . S
C3137 H3121 0.959 . S
C3137 H3122 0.959 . S
C3137 H3123 0.961 . S
C3137 C3136 1.502 . S
C3138 H3124 0.960 . S
C3138 H3125 0.961 . S
C3138 H3126 0.959 . S
C3138 C3136 1.561 . S
C3139 C3136 1.526 . S
C3139 C3140 1.396 . S
C3139 C3144 1.390 . S
C3140 C3134 1.465 . S
C3140 C3139 1.396 . S
C3140 C3141 1.399 . S
C3141 H3127 0.929 . S
C3141 C3140 1.399 . S
C3141 C3142 1.385 . S
C3142 H3128 0.931 . S
C3142 C3141 1.385 . S
C3142 C3143 1.389 . S
C3143 C3142 1.389 . S
C3143 C3144 1.387 . S
C3144 H3129 0.930 . S
C3144 C3139 1.390 . S
C3144 C3143 1.387 . S
H3145 C3157 0.930 . S
H3146 C3159 0.930 . S
H3147 C3160 0.930 . S
H3148 C3164 0.959 . S
H3149 C3164 0.959 . S
H3150 C3164 0.961 . S
H3151 C3165 0.960 . S
H3152 C3165 0.961 . S
H3153 C3165 0.959 . S
H3154 C3168 0.929 . S
H3155 C3169 0.931 . S
H3156 C3171 0.930 . S
C3157 H3145 0.930 . S
C3157 C3158 1.399 . S
C3157 C3162 1.399 . S
C3158 C3157 1.399 . S
C3158 C3159 1.376 . S
C3159 H3146 0.930 . S
C3159 C3158 1.376 . S
C3159 C3160 1.388 . S
C3160 H3147 0.930 . S
C3160 C3159 1.388 . S
C3160 C3161 1.390 . S
C3161 C3160 1.390 . S
C3161 C3162 1.394 . S
C3161 C3167 1.465 . S
C3162 C3157 1.399 . S
C3162 C3161 1.394 . S
C3162 C3163 1.516 . S
C3163 C3162 1.516 . S
C3163 C3164 1.502 . S
C3163 C3165 1.561 . S
C3163 C3166 1.526 . S
C3164 H3148 0.959 . S
C3164 H3149 0.959 . S
C3164 H3150 0.961 . S
C3164 C3163 1.502 . S
C3165 H3151 0.960 . S
C3165 H3152 0.961 . S
C3165 H3153 0.959 . S
C3165 C3163 1.561 . S
C3166 C3163 1.526 . S
C3166 C3167 1.396 . S
C3166 C3171 1.390 . S
C3167 C3161 1.465 . S
C3167 C3166 1.396 . S
C3167 C3168 1.399 . S
C3168 H3154 0.929 . S
C3168 C3167 1.399 . S
C3168 C3169 1.385 . S
C3169 H3155 0.931 . S
C3169 C3168 1.385 . S
C3169 C3170 1.389 . S
C3170 C3169 1.389 . S
C3170 C3171 1.387 . S
C3171 H3156 0.930 . S
C3171 C3166 1.390 . S
C3171 C3170 1.387 . S
H3172 C3184 0.930 . S
H3173 C3186 0.930 . S
H3174 C3187 0.930 . S
H3175 C3191 0.959 . S
H3176 C3191 0.959 . S
H3177 C3191 0.961 . S
H3178 C3192 0.960 . S
H3179 C3192 0.961 . S
H3180 C3192 0.959 . S
H3181 C3195 0.929 . S
H3182 C3196 0.931 . S
H3183 C3198 0.930 . S
C3184 H3172 0.930 . S
C3184 C3185 1.399 . S
C3184 C3189 1.399 . S
C3185 C3184 1.399 . S
C3185 C3186 1.376 . S
C3186 H3173 0.930 . S
C3186 C3185 1.376 . S
C3186 C3187 1.388 . S
C3187 H3174 0.930 . S
C3187 C3186 1.388 . S
C3187 C3188 1.390 . S
C3188 C3187 1.390 . S
C3188 C3189 1.394 . S
C3188 C3194 1.465 . S
C3189 C3184 1.399 . S
C3189 C3188 1.394 . S
C3189 C3190 1.516 . S
C3190 C3189 1.516 . S
C3190 C3191 1.502 . S
C3190 C3192 1.561 . S
C3190 C3193 1.526 . S
C3191 H3175 0.959 . S
C3191 H3176 0.959 . S
C3191 H3177 0.961 . S
C3191 C3190 1.502 . S
C3192 H3178 0.960 . S
C3192 H3179 0.961 . S
C3192 H3180 0.959 . S
C3192 C3190 1.561 . S
C3193 C3190 1.526 . S
C3193 C3194 1.396 . S
C3193 C3198 1.390 . S
C3194 C3188 1.465 . S
C3194 C3193 1.396 . S
C3194 C3195 1.399 . S
C3195 H3181 0.929 . S
C3195 C3194 1.399 . S
C3195 C3196 1.385 . S
C3196 H3182 0.931 . S
C3196 C3195 1.385 . S
C3196 C3197 1.389 . S
C3197 C3196 1.389 . S
C3197 C3198 1.387 . S
C3198 H3183 0.930 . S
C3198 C3193 1.390 . S
C3198 C3197 1.387 . S
H3199 C3211 0.930 . S
H3200 C3213 0.930 . S
H3201 C3214 0.930 . S
H3202 C3218 0.959 . S
H3203 C3218 0.959 . S
H3204 C3218 0.961 . S
H3205 C3219 0.960 . S
H3206 C3219 0.961 . S
H3207 C3219 0.959 . S
H3208 C3222 0.929 . S
H3209 C3223 0.931 . S
H3210 C3225 0.930 . S
C3211 H3199 0.930 . S
C3211 C3212 1.399 . S
C3211 C3216 1.399 . S
C3212 C3211 1.399 . S
C3212 C3213 1.376 . S
C3213 H3200 0.930 . S
C3213 C3212 1.376 . S
C3213 C3214 1.388 . S
C3214 H3201 0.930 . S
C3214 C3213 1.388 . S
C3214 C3215 1.390 . S
C3215 C3214 1.390 . S
C3215 C3216 1.394 . S
C3215 C3221 1.465 . S
C3216 C3211 1.399 . S
C3216 C3215 1.394 . S
C3216 C3217 1.516 . S
C3217 C3216 1.516 . S
C3217 C3218 1.502 . S
C3217 C3219 1.561 . S
C3217 C3220 1.526 . S
C3218 H3202 0.959 . S
C3218 H3203 0.959 . S
C3218 H3204 0.961 . S
C3218 C3217 1.502 . S
C3219 H3205 0.960 . S
C3219 H3206 0.961 . S
C3219 H3207 0.959 . S
C3219 C3217 1.561 . S
C3220 C3217 1.526 . S
C3220 C3221 1.396 . S
C3220 C3225 1.390 . S
C3221 C3215 1.465 . S
C3221 C3220 1.396 . S
C3221 C3222 1.399 . S
C3222 H3208 0.929 . S
C3222 C3221 1.399 . S
C3222 C3223 1.385 . S
C3223 H3209 0.931 . S
C3223 C3222 1.385 . S
C3223 C3224 1.389 . S
C3224 C3223 1.389 . S
C3224 C3225 1.387 . S
C3225 H3210 0.930 . S
C3225 C3220 1.390 . S
C3225 C3224 1.387 . S
H3226 C3238 0.930 . S
H3227 C3240 0.930 . S
H3228 C3241 0.930 . S
H3229 C3245 0.959 . S
H3230 C3245 0.959 . S
H3231 C3245 0.961 1_545 S
H3232 C3246 0.960 . S
H3233 C3246 0.961 . S
H3234 C3246 0.959 . S
H3235 C3249 0.929 . S
H3236 C3250 0.931 . S
H3237 C3252 0.930 . S
C3238 H3226 0.930 . S
C3238 C3239 1.399 . S
C3238 C3243 1.399 . S
C3239 C3238 1.399 . S
C3239 C3240 1.376 . S
C3240 H3227 0.930 . S
C3240 C3239 1.376 . S
C3240 C3241 1.388 . S
C3241 H3228 0.930 . S
C3241 C3240 1.388 . S
C3241 C3242 1.390 . S
C3242 C3241 1.390 . S
C3242 C3243 1.394 . S
C3242 C3248 1.465 . S
C3243 C3238 1.399 . S
C3243 C3242 1.394 . S
C3243 C3244 1.516 . S
C3244 C3243 1.516 . S
C3244 C3245 1.502 . S
C3244 C3246 1.561 . S
C3244 C3247 1.526 . S
C3245 H3229 0.959 . S
C3245 H3230 0.959 . S
C3245 H3231 0.961 1_565 S
C3245 C3244 1.502 . S
C3246 H3232 0.960 . S
C3246 H3233 0.961 . S
C3246 H3234 0.959 . S
C3246 C3244 1.561 . S
C3247 C3244 1.526 . S
C3247 C3248 1.396 . S
C3247 C3252 1.390 . S
C3248 C3242 1.465 . S
C3248 C3247 1.396 . S
C3248 C3249 1.399 . S
C3249 H3235 0.929 . S
C3249 C3248 1.399 . S
C3249 C3250 1.385 . S
C3250 H3236 0.931 . S
C3250 C3249 1.385 . S
C3250 C3251 1.389 . S
C3251 C3250 1.389 . S
C3251 C3252 1.387 . S
C3252 H3237 0.930 . S
C3252 C3247 1.390 . S
C3252 C3251 1.387 . S
H3253 C3265 0.930 . S
H3254 C3267 0.930 . S
H3255 C3268 0.930 . S
H3256 C3272 0.969 . S
H3257 C3272 0.972 . S
H3258 C3272 0.949 1_455 S
H3259 C3273 0.960 . S
H3260 C3273 0.961 . S
H3261 C3273 0.959 . S
H3262 C3276 0.929 1_455 S
H3263 C3277 0.931 . S
H3264 C3279 0.930 . S
C3265 H3253 0.930 . S
C3265 C3266 1.399 . S
C3265 C3270 1.399 . S
C3266 C3265 1.399 . S
C3266 C3267 1.376 . S
C3267 H3254 0.930 . S
C3267 C3266 1.376 . S
C3267 C3268 1.388 . S
C3268 H3255 0.930 . S
C3268 C3267 1.388 . S
C3268 C3269 1.390 . S
C3269 C3268 1.390 . S
C3269 C3270 1.394 . S
C3269 C3275 1.465 . S
C3270 C3265 1.399 . S
C3270 C3269 1.394 . S
C3270 C3271 1.516 . S
C3271 C3270 1.516 . S
C3271 C3272 1.492 1_455 S
C3271 C3273 1.561 . S
C3271 C3274 1.526 1_455 S
C3272 H3256 0.969 . S
C3272 H3257 0.972 . S
C3272 H3258 0.949 1_655 S
C3272 C3271 1.492 1_655 S
C3273 H3259 0.960 . S
C3273 H3260 0.961 . S
C3273 H3261 0.959 . S
C3273 C3271 1.561 . S
C3274 C3271 1.526 1_655 S
C3274 C3275 1.396 1_655 S
C3274 C3279 1.390 . S
C3275 C3269 1.465 . S
C3275 C3274 1.396 1_455 S
C3275 C3276 1.399 1_455 S
C3276 H3262 0.929 1_655 S
C3276 C3275 1.399 1_655 S
C3276 C3277 1.385 . S
C3277 H3263 0.931 . S
C3277 C3276 1.385 . S
C3277 C3278 1.389 . S
C3278 C3277 1.389 . S
C3278 C3279 1.387 . S
C3279 H3264 0.930 . S
C3279 C3274 1.390 . S
C3279 C3278 1.387 . S
C713 C343 1.166 . S
C701 C7 1.245 . S
C728 C23 1.165 . S
C740 C363 1.186 . S
C767 C384 1.049 . S
C755 C36 1.094 . S
C794 C411 1.182 . S
C782 C45 1.178 . S
C821 C367 1.182 . S
C809 C59 1.179 . S
C836 C78 1.115 . S
C848 C387 1.012 . S
C875 C407 1.123 . S
C863 C93 1.209 . S
C890 C105 1.221 . S
C902 C340 1.209 . S
C917 C115 1.228 . S
C929 C345 1.240 . S
C956 C362 1.178 . S
C944 C133 1.136 . S
C983 C386 1.067 . S
C971 C148 1.169 . S
C1010 C410 1.116 . S
C998 C163 1.104 . S
C1037 C366 1.071 . S
C1025 C121 1.174 . S
C1064 C389 1.133 . S
C1052 C134 1.135 . S
C1079 C147 1.168 . S
C1091 C406 1.132 . S
C1118 C342 1.212 . S
C1106 C157 1.260 . S
C1133 C175 1.186 . S
C1145 C344 1.224 . S
C1160 C191 1.200 . S
C1172 C431 1.078 . S
C1199 C451 1.057 . S
C1187 C199 1.181 . S
C1226 C474 1.141 . S
C1214 C218 1.095 . S
C1241 C231 1.209 . S
C1253 C341 1.194 . S
C1268 C241 1.143 . S
C1280 C385 1.163 . S
C1307 C475 1.136 . S
C1295 C205 1.223 . S
C1334 C430 1.116 . S
C1322 C260 1.097 . S
C1361 C498 0.979 . S
C1349 C22 1.035 . S
C1388 C519 1.094 . S
C1376 C9 1.141 . S
C1403 C49 1.173 . S
C1415 C538 1.116 . S
C1430 C31 1.108 . S
C1442 C563 1.058 . S
C1457 C101 1.110 . S
C1469 C518 1.033 . S
C1484 C91 1.189 . S
C1496 C543 1.197 . S
C1523 C562 1.115 . S
C1511 C79 1.176 . S
C1538 C64 1.032 . S
C1550 C495 0.958 . S
C1565 C274 1.030 . S
C1577 C499 0.961 . S
C1604 C520 1.069 . S
C1592 C213 1.137 . S
C1631 C539 1.160 . S
C1619 C233 1.211 . S
C1658 C564 1.090 . S
C1646 C189 1.158 . S
C1685 C516 1.080 . S
C1673 C273 1.169 . S
C1712 C541 1.191 . S
C1700 C219 1.180 . S
C1739 C560 1.147 . S
C1727 C227 1.150 . S
C1754 C190 1.062 . S
C1766 C496 1.056 . S
C1793 C497 1.007 . S
C1781 C289 1.026 . S
C1808 C162 1.162 . S
C1820 C583 1.148 . S
C1847 C608 1.133 . S
C1835 C301 1.154 . S
C1862 C129 1.201 . S
C1874 C627 1.186 . S
C1901 C494 0.987 . S
C1889 C149 1.050 . S
C1928 C540 1.145 . S
C1916 C315 1.126 . S
C1955 C631 1.157 . S
C1943 C302 1.174 . S
C1970 C325 1.158 . S
C1982 C587 1.086 . S
C1997 C35 1.201 . S
C2009 C651 1.236 . S
C2024 C51 1.194 . S
C2036 C429 1.170 . S
C2063 C453 1.099 . S
C2051 C8 1.102 . S
C2078 C17 1.181 . S
C2090 C477 1.067 . S
C2105 C87 1.206 . S
C2117 C433 1.111 . S
C2132 C106 1.141 . S
C2144 C450 0.999 . S
C2171 C473 1.140 . S
C2159 C65 1.206 . S
C2198 C648 1.234 . S
C2186 C77 1.203 . S
C2225 C653 1.235 . S
C2213 C297 1.223 . S
C2252 C428 1.131 . S
C2240 C287 1.168 . S
C2279 C455 1.032 . S
C2267 C330 1.176 . S
C2294 C317 1.103 . S
C2306 C476 1.086 . S
C2333 C432 1.099 . S
C2321 C303 1.102 . S
C2348 C288 1.148 . S
C2360 C452 1.114 . S
C2387 C472 1.055 . S
C2375 C329 1.198 . S
C2402 C311 1.219 . S
C2414 C650 1.185 . S
C2441 C652 1.102 . S
C2429 C217 1.250 . S
C2456 C247 1.177 . S
C2468 C365 1.199 . S
C2495 C388 1.103 . S
C2483 C269 1.129 . S
C2510 C176 1.152 . S
C2522 C408 1.013 . S
C2549 C649 1.139 . S
C2537 C259 1.225 . S
C2576 C454 1.160 . S
C2564 C185 1.132 . S
C2603 C409 1.081 . S
C2591 C275 1.174 . S
C2630 C364 1.143 . S
C2618 C232 1.099 . S
C2645 C50 1.042 . S
C2657 C675 1.002 . S
C2672 C37 1.207 . S
C2684 C585 1.181 . S
C2699 C21 1.205 . S
C2711 C604 1.171 . S
C2738 C629 1.061 . S
C2726 C3 1.132 . S
C2765 C584 1.126 . S
C2753 C73 1.129 . S
C2780 C63 1.173 . S
C2792 C609 1.173 . S
C2819 C628 1.142 . S
C2807 C107 1.194 . S
C2834 C92 1.043 . S
C2846 C670 1.005 . S
C2873 C673 0.959 . S
C2861 C204 1.030 . S
C2888 C171 1.128 . S
C2900 C586 1.050 . S
C2915 C261 1.211 . S
C2927 C605 1.207 . S
C2954 C630 1.185 . S
C2942 C245 1.173 . S
C2981 C582 1.176 . S
C2969 C203 1.185 . S
C2996 C177 1.147 . S
C3008 C607 1.115 . S
C3035 C626 1.043 . S
C3023 C255 1.124 . S
C3062 C671 0.990 . S
C3050 C246 1.045 . S
C3089 C674 1.095 . S
C3077 C135 1.103 . S
C3116 C517 1.158 . S
C3104 C316 1.167 . S
C3131 C119 1.144 . S
C3143 C542 1.040 . S
C3158 C283 1.202 . S
C3170 C561 1.174 . S
C3197 C672 0.984 . S
C3185 C331 1.040 . S
C3224 C606 1.043 . S
C3212 C161 1.136 . S
C3251 C565 1.119 . S
C3239 C120 1.150 . S
C3278 C521 1.190 . S
C3266 C143 1.193 . S
