# Generated by pormake.
# Topology zzz, (3,6)-cn, num edge types: 1
# Building blocks:
#     Node 0, Type 0, BuildingBlock: OLANEW_clean_sbu_2, # of connection points: 3
#     Node 1, Type 0, BuildingBlock: OLANEW_clean_sbu_2, # of connection points: 3
#     Node 2, Type 0, BuildingBlock: OLANEW_clean_sbu_2, # of connection points: 3
#     Node 3, Type 0, BuildingBlock: OLANEW_clean_sbu_2, # of connection points: 3
#     Node 4, Type 0, BuildingBlock: OLANEW_clean_sbu_2, # of connection points: 3
#     Node 5, Type 0, BuildingBlock: OLANEW_clean_sbu_2, # of connection points: 3
#     Node 6, Type 0, BuildingBlock: OLANEW_clean_sbu_2, # of connection points: 3
#     Node 7, Type 0, BuildingBlock: OLANEW_clean_sbu_2, # of connection points: 3
#     Node 8, Type 1, BuildingBlock: MIFKUJ_clean_sbu_0, # of connection points: 6
#     Node 9, Type 1, BuildingBlock: MIFKUJ_clean_sbu_0, # of connection points: 6
#     Node 10, Type 1, BuildingBlock: MIFKUJ_clean_sbu_0, # of connection points: 6
#     Node 11, Type 1, BuildingBlock: MIFKUJ_clean_sbu_0, # of connection points: 6
#     Edge 12, Type (0, 1), BuildingBlock: TEMPAE_clean_linker_10, # of connection points: 2
#     Edge 13, Type (0, 1), BuildingBlock: TEMPAE_clean_linker_10, # of connection points: 2
#     Edge 14, Type (0, 1), BuildingBlock: TEMPAE_clean_linker_10, # of connection points: 2
#     Edge 15, Type (0, 1), BuildingBlock: TEMPAE_clean_linker_10, # of connection points: 2
#     Edge 16, Type (0, 1), BuildingBlock: TEMPAE_clean_linker_10, # of connection points: 2
#     Edge 17, Type (0, 1), BuildingBlock: TEMPAE_clean_linker_10, # of connection points: 2
#     Edge 18, Type (0, 1), BuildingBlock: TEMPAE_clean_linker_10, # of connection points: 2
#     Edge 19, Type (0, 1), BuildingBlock: TEMPAE_clean_linker_10, # of connection points: 2
#     Edge 20, Type (0, 1), BuildingBlock: TEMPAE_clean_linker_10, # of connection points: 2
#     Edge 21, Type (0, 1), BuildingBlock: TEMPAE_clean_linker_10, # of connection points: 2
#     Edge 22, Type (0, 1), BuildingBlock: TEMPAE_clean_linker_10, # of connection points: 2
#     Edge 23, Type (0, 1), BuildingBlock: TEMPAE_clean_linker_10, # of connection points: 2
#     Edge 24, Type (0, 1), BuildingBlock: TEMPAE_clean_linker_10, # of connection points: 2
#     Edge 25, Type (0, 1), BuildingBlock: TEMPAE_clean_linker_10, # of connection points: 2
#     Edge 26, Type (0, 1), BuildingBlock: TEMPAE_clean_linker_10, # of connection points: 2
#     Edge 27, Type (0, 1), BuildingBlock: TEMPAE_clean_linker_10, # of connection points: 2
#     Edge 28, Type (0, 1), BuildingBlock: TEMPAE_clean_linker_10, # of connection points: 2
#     Edge 29, Type (0, 1), BuildingBlock: TEMPAE_clean_linker_10, # of connection points: 2
#     Edge 30, Type (0, 1), BuildingBlock: TEMPAE_clean_linker_10, # of connection points: 2
#     Edge 31, Type (0, 1), BuildingBlock: TEMPAE_clean_linker_10, # of connection points: 2
#     Edge 32, Type (0, 1), BuildingBlock: TEMPAE_clean_linker_10, # of connection points: 2
#     Edge 33, Type (0, 1), BuildingBlock: TEMPAE_clean_linker_10, # of connection points: 2
#     Edge 34, Type (0, 1), BuildingBlock: TEMPAE_clean_linker_10, # of connection points: 2
#     Edge 35, Type (0, 1), BuildingBlock: TEMPAE_clean_linker_10, # of connection points: 2
# Relax obj value: 0.119
# Max RMSD: 0.123
# Mean RMSD: 0.094
data_MOF--net-zzz--node1-OLANEW_clean_sbu_2--node2-MIFKUJ_clean_sbu_0--edge1-TEMPAE_clean_linker_10
_symmetry_space_group_name_H-M    P1
_symmetry_Int_Tables_number       1
_symmetry_cell_setting            triclinic
loop_
_symmetry_equiv_pos_as_xyz
'x, y, z'
_cell_length_a     55.919586
_cell_length_b     56.206189
_cell_length_c     18.056749
_cell_angle_alpha  90.059816
_cell_angle_beta   89.986586
_cell_angle_gamma 90.220942
loop_
_atom_site_label
_atom_site_type_symbol
_atom_site_fract_x
_atom_site_fract_y
_atom_site_fract_z
_atom_type_partial_charge
O0 O 0.75278 0.49233 0.03501 0.0
Cd1 Cd 0.71911 0.49588 0.12049 0.0
O2 O 0.76529 0.52866 0.05889 0.0
Cd3 Cd 0.75005 0.52966 0.16975 0.0
O4 O 0.77689 0.52592 0.25742 0.0
C5 C 0.79812 0.52988 0.23494 0.0
O6 O 0.8013 0.53674 0.16611 0.0
C7 C 0.76654 0.50976 0.02046 0.0
C8 C 0.67601 0.49297 0.04243 0.0
O9 O 0.68625 0.51308 0.05404 0.0
O10 O 0.68604 0.47429 0.06846 0.0
O11 O -0.00783 0.75607 0.00421 0.0
Cd12 Cd -0.00978 0.72134 0.08544 0.0
O13 O 0.02832 0.7663 0.0402 0.0
Cd14 Cd 0.02094 0.75318 0.15135 0.0
O15 O 0.01204 0.77962 0.23645 0.0
C16 C 0.00368 0.79897 0.21068 0.0
O17 O 3e-05 0.80057 0.13899 0.0
C18 C 0.01099 0.76851 -0.00467 0.0
C19 C -0.00974 0.67944 0.00109 0.0
O20 O 0.97071 0.69017 0.01672 0.0
O21 O 0.00981 0.6884 0.02586 0.0
O22 O 0.71557 0.97027 0.99117 0.0
Cd23 Cd 0.74946 0.96292 0.0732 0.0
O24 O 0.71568 0.0086 0.01448 0.0
Cd25 Cd 0.72901 0.00097 0.12531 0.0
O26 O 0.70235 -0.00366 0.21318 0.0
C27 C 0.68235 -0.01162 0.19006 0.0
O28 O 0.68045 -0.01775 0.12011 0.0
C29 C 0.70834 -0.00888 0.97597 0.0
C30 C 0.79206 0.96729 -0.00676 0.0
O31 O 0.78077 0.94743 -0.0036 0.0
O32 O 0.78337 -0.01497 0.02873 0.0
O33 O 0.51113 0.72347 0.89252 0.0
Cd34 Cd 0.53035 0.7593 0.94099 0.0
O35 O 0.5093 0.71353 0.00954 0.0
Cd36 Cd 0.50424 0.68643 0.09446 0.0
O37 O 0.50001 0.65569 0.16637 0.0
C38 C 0.51546 0.65189 0.21648 0.0
O39 O 0.53355 0.66671 0.22359 0.0
C40 C 0.50523 0.70854 0.94204 0.0
C41 C 0.51862 0.80096 0.86657 0.0
O42 O 0.53676 0.78856 0.84703 0.0
O43 O 0.50581 0.79338 0.92056 0.0
O44 O 0.22561 0.48662 0.271 0.0
Cd45 Cd 0.26182 0.48194 0.19716 0.0
O46 O 0.20951 0.45362 0.2277 0.0
Cd47 Cd 0.22922 0.45136 0.12402 0.0
O48 O 0.20297 0.45302 0.03396 0.0
C49 C 0.18264 0.44433 0.05109 0.0
O50 O 0.18026 0.43373 0.11549 0.0
C51 C 0.20923 0.47091 0.27307 0.0
C52 C 0.30143 0.48087 0.29165 0.0
O53 O 0.2941 0.50047 0.26359 0.0
O54 O 0.29024 0.46173 0.27413 0.0
O55 O 0.96761 0.22461 0.249 0.0
Cd56 Cd 0.97922 0.26093 0.18359 0.0
O57 O 0.00542 0.21513 0.26129 0.0
Cd58 Cd 0.01318 0.22857 0.15089 0.0
O59 O 0.01105 0.2015 0.06329 0.0
C60 C 0.01176 0.18017 0.08706 0.0
O61 O 0.01467 0.17664 0.1584 0.0
C62 C -0.01634 0.21187 0.27891 0.0
C63 C 0.98045 0.29986 0.28074 0.0
O64 O 0.96147 0.29466 0.24425 0.0
O65 O -0.00112 0.28672 0.27109 0.0
O66 O 0.24382 -0.00844 0.24262 0.0
Cd67 Cd 0.2076 -0.00592 0.16769 0.0
O68 O 0.26288 0.01899 0.17818 0.0
Cd69 Cd 0.24096 0.02139 0.07906 0.0
O70 O 0.27179 0.02517 0.00523 0.0
C71 C 0.27429 0.01645 0.94077 0.0
O72 O 0.25631 0.00505 0.90997 0.0
C73 C 0.26188 0.00504 0.23344 0.0
C74 C 0.16752 -0.00458 0.26032 0.0
O75 O 0.17522 0.97566 0.23417 0.0
O76 O 0.1786 0.01452 0.24192 0.0
O77 O 0.50697 0.2652 0.21458 0.0
Cd78 Cd 0.49775 0.22897 0.14559 0.0
O79 O 0.47232 0.26345 0.27161 0.0
Cd80 Cd 0.45727 0.24584 0.1749 0.0
O81 O 0.45501 0.27129 0.0839 0.0
C82 C 0.45157 0.2926 0.10516 0.0
O83 O 0.44768 0.29661 0.17584 0.0
C84 C 0.49306 0.2726 0.26531 0.0
C85 C 0.49535 0.19043 0.2428 0.0
O86 O 0.51492 0.19579 0.20971 0.0
O87 O 0.47689 0.20313 0.22924 0.0
Zn88 Zn 0.97315 0.01715 0.61313 0.0
Zn89 Zn -0.00607 0.96822 0.67138 0.0
C90 C 0.97008 0.04516 0.74149 0.0
O91 O 0.94774 0.04471 0.71891 0.0
C92 C 0.00392 0.9423 0.54338 0.0
O93 O 0.02508 0.94528 0.57367 0.0
O94 O 0.96113 0.04543 0.5569 0.0
O95 O 0.00061 0.00416 0.55398 0.0
O96 O 0.02058 -0.00823 0.65099 0.0
C97 C 0.96432 0.04893 0.48816 0.0
O98 O 0.97403 0.03208 0.44776 0.0
O99 O -0.01461 0.03268 0.70685 0.0
C100 C -0.00484 0.92139 0.72213 0.0
O101 O 0.97592 0.92131 0.68047 0.0
O102 O 0.00682 0.94068 0.73113 0.0
O103 O 0.96435 0.97833 0.72742 0.0
O104 O 0.94502 -0.00388 0.63718 0.0
O105 O -0.01405 0.9524 0.57309 0.0
C106 C 0.02046 -0.00043 0.5849 0.0
C107 C 0.94484 -0.01468 0.69891 0.0
Zn108 Zn 0.46097 -0.00411 0.57072 0.0
Zn109 Zn 0.51006 0.00989 0.63662 0.0
C110 C 0.43347 -0.00942 0.69927 0.0
O111 O 0.43432 0.96857 0.6748 0.0
C112 C 0.53817 0.01611 0.50935 0.0
O113 O 0.53843 0.03762 0.53786 0.0
O114 O 0.43136 -0.01186 0.51205 0.0
O115 O 0.47609 0.02341 0.51805 0.0
O116 O 0.49108 0.03991 0.6181 0.0
C117 C 0.41536 0.00408 0.51767 0.0
O118 O 0.42036 0.02379 0.55372 0.0
O119 O 0.44655 0.00621 0.66821 0.0
C120 C 0.55598 0.00257 0.69084 0.0
O121 O 0.55264 -0.01612 0.64834 0.0
O122 O 0.5391 0.01749 0.69907 0.0
O123 O 0.49534 0.98123 0.68613 0.0
O124 O 0.48006 0.96609 0.58449 0.0
O125 O 0.52495 0.0003 0.53905 0.0
C126 C 0.48302 0.04188 0.55252 0.0
C127 C 0.48946 0.96318 0.64779 0.0
Zn128 Zn 0.495 0.45864 0.64157 0.0
Zn129 Zn 0.47605 0.50011 0.72702 0.0
C130 C 0.49632 0.42499 0.75676 0.0
O131 O 0.51873 0.425 0.73479 0.0
C132 C 0.47572 0.53313 0.61282 0.0
O133 O 0.45468 0.53601 0.64392 0.0
O134 O 0.50809 0.43353 0.57387 0.0
O135 O 0.46768 0.47424 0.58809 0.0
O136 O 0.44717 0.48203 0.68902 0.0
C137 C 0.50367 0.43207 0.50505 0.0
O138 O 0.49152 0.44911 0.47276 0.0
O139 O 0.48173 0.43918 0.72597 0.0
C140 C 0.48016 0.53678 0.83715 0.0
O141 O 0.50047 0.52589 0.84971 0.0
O142 O 0.46544 0.52766 0.79144 0.0
O143 O 0.50242 0.48303 0.78199 0.0
O144 O 0.52275 0.47815 0.67955 0.0
O145 O 0.48965 0.51725 0.63816 0.0
C146 C 0.44769 0.47764 0.61984 0.0
C147 C 0.52244 0.48146 0.74912 0.0
Zn148 Zn 0.01227 0.49341 0.61882 0.0
Zn149 Zn 0.96399 0.48131 0.68431 0.0
C150 C 0.041 0.49401 0.74644 0.0
O151 O 0.04291 0.51618 0.72408 0.0
C152 C 0.93589 0.48019 0.55669 0.0
O153 O 0.93337 0.4585 0.58276 0.0
O154 O 0.04191 0.50008 0.55879 0.0
O155 O -0.00477 0.46752 0.56219 0.0
O156 O 0.98026 0.45007 0.66053 0.0
C157 C 0.05658 0.48283 0.56042 0.0
O158 O 0.05041 0.4631 0.59452 0.0
O159 O 0.02643 0.48021 0.71325 0.0
C160 C 0.91916 0.49266 0.7382 0.0
O161 O 0.9256 0.51197 0.70233 0.0
O162 O 0.93377 0.47541 0.74292 0.0
O163 O 0.9812 0.507 0.74175 0.0
O164 O -0.00434 0.52439 0.64275 0.0
O165 O 0.95065 0.4942 0.58822 0.0
C166 C -0.01195 0.44873 0.59446 0.0
C167 C -0.01187 0.52579 0.70902 0.0
C168 C 0.14029 0.01739 0.34643 0.0
C169 C 0.14655 -0.00384 0.31053 0.0
C170 C 0.12045 0.01841 0.39396 0.0
C171 C 0.10637 -0.00226 0.40538 0.0
C172 C 0.11265 0.97621 0.36964 0.0
C173 C 0.13273 0.97565 0.32291 0.0
C174 C 0.11439 0.04166 0.43141 0.0
C175 C 0.09793 0.95386 0.37992 0.0
C176 C 0.06487 -0.00571 0.57218 0.0
C177 C 0.04276 9e-05 0.54041 0.0
C178 C 0.08581 -0.00633 0.5291 0.0
C179 C 0.08455 -0.00113 0.45245 0.0
C180 C 0.06233 0.00496 0.4203 0.0
C181 C 0.04176 0.00557 0.46463 0.0
C182 C 0.10922 -0.01274 0.5654 0.0
C183 C 0.06021 0.01051 0.33872 0.0
H184 H 0.15095 0.03328 0.33752 0.0
H185 H 0.13742 0.95917 0.29538 0.0
H186 H 0.0965 0.04775 0.41309 0.0
H187 H 0.11353 0.03915 0.49229 0.0
H188 H 0.12767 0.05586 0.41899 0.0
H189 H 0.10548 0.93843 0.34945 0.0
H190 H 0.09682 0.94926 0.43956 0.0
H191 H 0.07939 0.95687 0.36022 0.0
H192 H 0.06582 -0.00998 0.63063 0.0
H193 H 0.02478 0.01005 0.43943 0.0
H194 H 0.12255 0.00163 0.55622 0.0
H195 H 0.11648 0.97084 0.53989 0.0
H196 H 0.1073 -0.01569 0.62594 0.0
H197 H 0.07219 0.02556 0.32408 0.0
H198 H 0.04165 0.01518 0.32248 0.0
H199 H 0.06597 -0.00508 0.30555 0.0
C200 C 0.47326 0.16603 0.33653 0.0
C201 C 0.494 0.17004 0.29455 0.0
C202 C 0.47139 0.14633 0.38391 0.0
C203 C 0.49065 0.13014 0.38893 0.0
C204 C 0.51183 0.13436 0.34795 0.0
C205 C 0.51329 0.15432 0.30146 0.0
C206 C 0.44857 0.1425 0.42711 0.0
C207 C 0.53268 0.11738 0.35142 0.0
C208 C 0.49318 0.08546 0.54701 0.0
C209 C 0.48403 0.06493 0.51284 0.0
C210 C 0.49518 0.10697 0.50775 0.0
C211 C 0.48797 0.10787 0.43261 0.0
C212 C 0.47845 0.0873 0.39824 0.0
C213 C 0.47652 0.06615 0.43876 0.0
C214 C 0.50527 0.12863 0.54628 0.0
C215 C 0.47062 0.08749 0.31814 0.0
H216 H 0.45834 0.1782 0.33196 0.0
H217 H 0.5294 0.15732 0.26933 0.0
H218 H 0.4395 0.12608 0.40744 0.0
H219 H 0.45264 0.13998 0.48671 0.0
H220 H 0.43599 0.15763 0.42131 0.0
H221 H 0.54835 0.12389 0.31938 0.0
H222 H 0.53822 0.11461 0.40974 0.0
H223 H 0.52721 0.09979 0.329 0.0
H224 H 0.49902 0.08468 0.6042 0.0
H225 H 0.46938 0.05042 0.41177 0.0
H226 H 0.49243 0.14359 0.54259 0.0
H227 H 0.52196 0.13443 0.51832 0.0
H228 H 0.50927 0.12522 0.60558 0.0
H229 H 0.4567 0.10123 0.3096 0.0
H230 H 0.46333 0.07002 0.29993 0.0
H231 H 0.48599 0.09218 0.28207 0.0
C232 C 0.33497 0.50127 0.35867 0.0
C233 C 0.32212 0.48037 0.343 0.0
C234 C 0.35477 0.501 0.40648 0.0
C235 C 0.36187 0.47934 0.43966 0.0
C236 C 0.34877 0.45825 0.42494 0.0
C237 C 0.32909 0.459 0.37669 0.0
C238 C 0.36836 0.52384 0.42048 0.0
C239 C 0.35577 0.4348 0.45932 0.0
C240 C 0.42675 0.47362 0.49822 0.0
C241 C 0.42548 0.47767 0.57488 0.0
C242 C 0.40619 0.47401 0.45387 0.0
C243 C 0.3837 0.47853 0.48678 0.0
C244 C 0.38219 0.48247 0.56416 0.0
C245 C 0.40312 0.48202 0.60734 0.0
C246 C 0.40859 0.46975 0.37157 0.0
C247 C 0.35849 0.48728 0.60119 0.0
H248 H 0.32969 0.51786 0.33302 0.0
H249 H 0.31922 0.44279 0.36519 0.0
H250 H 0.36929 0.52749 0.4808 0.0
H251 H 0.387 0.52206 0.40022 0.0
H252 H 0.36003 0.53935 0.39261 0.0
H253 H 0.34312 0.42024 0.44487 0.0
H254 H 0.37392 0.42971 0.44035 0.0
H255 H 0.35649 0.43652 0.5205 0.0
H256 H 0.44391 0.47026 0.47244 0.0
H257 H 0.40196 0.48517 0.66647 0.0
H258 H 0.40205 0.48548 0.34063 0.0
H259 H 0.39737 0.45434 0.35474 0.0
H260 H 0.42736 0.46623 0.35476 0.0
H261 H 0.35038 0.50358 0.5776 0.0
H262 H 0.36029 0.48963 0.66204 0.0
H263 H 0.34591 0.47237 0.59034 0.0
C264 C 0.96151 0.33596 0.33714 0.0
C265 C 0.98115 0.32058 0.33178 0.0
C266 C 0.96223 0.3561 0.38325 0.0
C267 C -0.01695 0.36096 0.42537 0.0
C268 C 0.00272 0.34522 0.42151 0.0
C269 C 0.00157 0.32527 0.37465 0.0
C270 C 0.94092 0.37251 0.38551 0.0
C271 C 0.02521 0.34972 0.46575 0.0
C272 C -0.005 0.42527 0.47878 0.0
C273 C -0.01278 0.42596 0.55269 0.0
C274 C -0.00617 0.40424 0.4371 0.0
C275 C -0.01525 0.38323 0.47001 0.0
C276 C 0.97709 0.38367 0.54482 0.0
C277 C 0.97838 0.40505 0.58528 0.0
C278 C 0.00213 0.40457 0.35747 0.0
C279 C 0.96741 0.36159 0.5819 0.0
H280 H 0.94564 0.33248 0.30437 0.0
H281 H 0.01678 0.31344 0.37119 0.0
H282 H 0.93482 0.37499 0.44347 0.0
H283 H 0.94609 0.39029 0.36404 0.0
H284 H 0.92569 0.36567 0.35209 0.0
H285 H 0.03837 0.33509 0.45989 0.0
H286 H 0.03374 0.36654 0.44717 0.0
H287 H 0.02078 0.35187 0.52527 0.0
H288 H 0.0019 0.44129 0.45297 0.0
H289 H 0.97235 0.40539 0.64232 0.0
H290 H -0.01285 0.39947 0.32036 0.0
H291 H 0.01657 0.39134 0.34927 0.0
H292 H 0.00892 0.42233 0.34032 0.0
H293 H 0.95123 0.35524 0.55221 0.0
H294 H 0.96268 0.36473 0.64086 0.0
H295 H 0.98082 0.34712 0.57915 0.0
C296 C 0.8217 0.95132 0.90201 0.0
C297 C 0.81433 0.96972 0.94927 0.0
C298 C 0.8426 0.95348 0.85936 0.0
C299 C 0.8566 0.97446 0.86462 0.0
C300 C 0.8493 -0.00693 0.91236 0.0
C301 C 0.8282 -0.00948 0.95384 0.0
C302 C 0.84971 0.93332 0.80868 0.0
C303 C 0.86388 0.01561 0.92 0.0
C304 C 0.92218 0.97143 0.81051 0.0
C305 C 0.92209 -0.01802 0.74003 0.0
C306 C 0.901 0.9688 0.85142 0.0
C307 C 0.87912 0.97679 0.82112 0.0
C308 C 0.87882 -0.01281 0.74972 0.0
C309 C 0.90031 -0.01028 0.71011 0.0
C310 C 0.90208 0.95769 0.92748 0.0
C311 C 0.8558 -0.00421 0.7154 0.0
H312 H 0.81104 0.93523 0.89787 0.0
H313 H 0.82266 0.00481 0.9903 0.0
H314 H 0.85128 0.93986 0.75092 0.0
H315 H 0.8675 0.92641 0.82499 0.0
H316 H 0.83664 0.9184 0.80987 0.0
H317 H 0.85571 0.02844 0.95934 0.0
H318 H 0.88215 0.01129 0.93961 0.0
H319 H 0.86576 0.02438 0.86528 0.0
H320 H 0.93888 0.9654 0.83422 0.0
H321 H 0.90003 -0.00213 0.65571 0.0
H322 H 0.89027 0.94181 0.92977 0.0
H323 H 0.89547 0.97049 0.96951 0.0
H324 H 0.9205 0.95225 0.94287 0.0
H325 H 0.84267 0.98097 0.71246 0.0
H326 H 0.85852 0.00301 0.65875 0.0
H327 H 0.84782 0.00989 0.7505 0.0
C328 C 0.49266 0.83668 0.84941 0.0
C329 C 0.51314 0.8238 0.82968 0.0
C330 C 0.48793 0.85897 0.81784 0.0
C331 C 0.50414 0.86864 0.7656 0.0
C332 C 0.52459 0.85554 0.74438 0.0
C333 C 0.52882 0.83324 0.77655 0.0
C334 C 0.46586 0.87239 0.8415 0.0
C335 C 0.54232 0.86534 0.68902 0.0
C336 C 0.48361 0.91902 0.64107 0.0
C337 C 0.49302 0.93896 0.67783 0.0
C338 C 0.48698 0.896 0.66916 0.0
C339 C 0.50019 0.89288 0.73528 0.0
C340 C 0.50975 0.91293 0.77255 0.0
C341 C 0.50601 0.93572 0.74348 0.0
C342 C 0.47643 0.87502 0.62813 0.0
C343 C 0.52404 0.9103 0.84304 0.0
H344 H 0.48042 0.82948 0.89025 0.0
H345 H 0.54468 0.8234 0.76102 0.0
H346 H 0.47114 0.88921 0.86936 0.0
H347 H 0.45504 0.87724 0.79232 0.0
H348 H 0.45448 0.86191 0.88003 0.0
H349 H 0.55686 0.85255 0.67643 0.0
H350 H 0.53308 0.86994 0.63663 0.0
H351 H 0.55045 0.88195 0.7109 0.0
H352 H 0.47349 0.92138 0.59041 0.0
H353 H 0.51344 0.95102 0.77204 0.0
H354 H 0.46412 0.86502 0.66501 0.0
H355 H 0.49086 0.86262 0.61143 0.0
H356 H 0.46645 0.88049 0.57781 0.0
H357 H 0.51303 0.90139 0.88603 0.0
H358 H 0.5303 0.92769 0.86514 0.0
H359 H 0.53986 0.89889 0.83286 0.0
C360 C 0.64277 0.46912 0.98583 0.0
C361 C 0.65343 0.49132 -0.00039 0.0
C362 C 0.62153 0.46725 0.94471 0.0
C363 C 0.61066 0.48809 0.91674 0.0
C364 C 0.6213 0.51057 0.93049 0.0
C365 C 0.64256 0.51191 0.97172 0.0
C366 C 0.61073 0.44297 0.93118 0.0
C367 C 0.6102 0.5332 0.90171 0.0
C368 C 0.56724 0.48207 0.75564 0.0
C369 C 0.54505 0.48301 0.79181 0.0
C370 C 0.58874 0.48372 0.79558 0.0
C371 C 0.58804 0.48638 0.87355 0.0
C372 C 0.56572 0.48731 0.91038 0.0
C373 C 0.54451 0.48554 0.86914 0.0
C374 C 0.6122 0.48262 0.75436 0.0
C375 C 0.56422 0.49017 -0.00657 0.0
H376 H 0.65105 0.45311 0.00705 0.0
H377 H 0.65067 0.52915 0.98204 0.0
H378 H 0.59237 0.44221 0.95442 0.0
H379 H 0.60924 0.43961 0.8708 0.0
H380 H 0.62146 0.42849 0.9564 0.0
H381 H 0.62073 0.54926 0.91706 0.0
H382 H 0.60872 0.53241 0.84048 0.0
H383 H 0.59181 0.53511 0.92399 0.0
H384 H 0.56784 0.4801 0.69595 0.0
H385 H 0.52748 0.48616 0.89769 0.0
H386 H 0.62301 0.46752 0.7751 0.0
H387 H 0.62267 0.49911 0.7645 0.0
H388 H 0.60968 0.48046 0.69369 0.0
H389 H 0.57349 0.4752 0.02108 0.0
H390 H 0.54545 0.49075 0.01356 0.0
H391 H 0.57342 0.5068 0.01062 0.0
C392 C 0.01133 0.64428 0.94616 0.0
C393 C -0.00975 0.65739 0.95576 0.0
C394 C 0.01146 0.62318 0.90432 0.0
C395 C -0.00996 0.61509 0.87071 0.0
C396 C 0.96878 0.62842 0.87931 0.0
C397 C 0.96912 0.64934 0.92195 0.0
C398 C 0.03445 0.60936 0.89699 0.0
C399 C 0.94561 0.62046 0.84398 0.0
C400 C -0.00583 0.57011 0.71326 0.0
C401 C -0.01135 0.54875 0.74972 0.0
C402 C -0.00536 0.59186 0.75182 0.0
C403 C -0.01034 0.59223 0.82875 0.0
C404 C -0.01579 0.57072 0.86586 0.0
C405 C -0.01633 0.5493 0.82592 0.0
C406 C 0.00035 0.61446 0.71021 0.0
C407 C 0.97898 0.5703 0.94793 0.0
H408 H 0.02774 0.65035 0.97209 0.0
H409 H 0.95277 0.6594 0.92873 0.0
H410 H 0.03213 0.59135 0.92111 0.0
H411 H 0.03903 0.60699 0.83767 0.0
H412 H 0.04968 0.6183 0.92521 0.0
H413 H 0.93087 0.63328 0.85363 0.0
H414 H 0.94809 0.61822 0.78341 0.0
H415 H 0.94018 0.6029 0.86658 0.0
H416 H -0.002 0.56987 0.65442 0.0
H417 H 0.97946 0.5329 0.85474 0.0
H418 H 0.01638 0.62314 0.73448 0.0
H419 H -0.01469 0.62717 0.71561 0.0
H420 H 0.0037 0.61118 0.65043 0.0
H421 H -0.00564 0.57781 0.97905 0.0
H422 H 0.97534 0.55204 0.96868 0.0
H423 H 0.96324 0.5816 0.96025 0.0
C424 C -0.00516 0.17789 0.36029 0.0
C425 C 0.97708 0.19064 0.32282 0.0
C426 C -0.01 0.15545 0.3906 0.0
C427 C 0.96686 0.14546 0.38281 0.0
C428 C 0.94849 0.15876 0.34862 0.0
C429 C 0.9538 0.18129 0.31928 0.0
C430 C 0.00998 0.14196 0.42777 0.0
C431 C 0.92362 0.14866 0.33933 0.0
C432 C 0.96697 0.07806 0.38374 0.0
C433 C 0.96117 0.07316 0.45772 0.0
C434 C 0.96766 0.10155 0.3575 0.0
C435 C 0.96251 0.12053 0.40658 0.0
C436 C 0.95532 0.11562 0.48009 0.0
C437 C 0.95465 0.09198 0.50473 0.0
C438 C 0.97515 0.1061 0.27833 0.0
C439 C 0.94971 0.13538 0.53403 0.0
H440 H 0.01284 0.18507 0.36359 0.0
H441 H 0.93999 0.19099 0.29011 0.0
H442 H 0.00422 0.13569 0.48324 0.0
H443 H 0.01449 0.126 0.39442 0.0
H444 H 0.0264 0.15295 0.43428 0.0
H445 H 0.91079 0.16215 0.31867 0.0
H446 H 0.9241 0.13367 0.29932 0.0
H447 H 0.91689 0.14147 0.39264 0.0
H448 H 0.97188 0.06363 0.34695 0.0
H449 H 0.95003 0.08839 0.56195 0.0
H450 H -0.00703 0.11485 0.27754 0.0
H451 H 0.96239 0.11832 0.25093 0.0
H452 H 0.97621 0.08942 0.24541 0.0
H453 H 0.96637 0.14525 0.54758 0.0
H454 H 0.94183 0.12855 0.58639 0.0
H455 H 0.93711 0.14827 0.50899 0.0
C456 C 0.30249 0.01868 0.27168 0.0
C457 C 0.28266 0.00385 0.28416 0.0
C458 C 0.32309 0.01699 0.31522 0.0
C459 C 0.32394 8e-05 0.37311 0.0
C460 C 0.30387 -0.01465 0.38732 0.0
C461 C 0.28341 -0.01262 0.3425 0.0
C462 C 0.3441 0.03312 0.29848 0.0
C463 C 0.30416 0.96724 0.449 0.0
C464 C 0.38737 -0.01537 0.42794 0.0
C465 C 0.3913 0.00073 0.48592 0.0
C466 C 0.36495 -0.01682 0.39319 0.0
C467 C 0.3461 -0.002 0.41781 0.0
C468 C 0.3496 0.01311 0.4796 0.0
C469 C 0.37222 0.01439 0.51264 0.0
C470 C 0.36187 0.96684 0.32745 0.0
C471 C 0.32985 0.02888 0.50835 0.0
H472 H 0.30213 0.03152 0.22691 0.0
H473 H 0.26818 0.97584 0.35251 0.0
H474 H 0.34866 0.04389 0.34807 0.0
H475 H 0.36003 0.02229 0.2845 0.0
H476 H 0.34047 0.0454 0.25168 0.0
H477 H 0.28672 0.95791 0.45502 0.0
H478 H 0.31822 0.95382 0.43806 0.0
H479 H 0.30866 0.97599 0.50234 0.0
H480 H 0.40206 0.9739 0.40766 0.0
H481 H 0.37506 0.02647 0.5587 0.0
H482 H 0.36013 0.97762 0.27628 0.0
H483 H 0.34527 0.95614 0.33315 0.0
H484 H 0.37726 0.95458 0.32063 0.0
H485 H 0.32619 0.04315 0.4675 0.0
H486 H 0.33458 0.03733 0.56209 0.0
H487 H 0.31309 0.01853 0.51556 0.0
C488 C 0.48304 0.30338 0.35996 0.0
C489 C 0.49938 0.29406 0.30876 0.0
C490 C 0.48681 0.32572 0.39248 0.0
C491 C 0.50746 0.33904 0.37355 0.0
C492 C 0.52466 0.32922 0.32503 0.0
C493 C 0.52042 0.30682 0.29313 0.0
C494 C 0.4681 0.33554 0.44447 0.0
C495 C 0.54698 0.34284 0.3041 0.0
C496 C 0.499 0.4055 0.39474 0.0
C497 C 0.50834 0.40943 0.46579 0.0
C498 C 0.49975 0.38283 0.36221 0.0
C499 C 0.51016 0.36373 0.40168 0.0
C500 C 0.52104 0.36794 0.47118 0.0
C501 C 0.51999 0.39075 0.50245 0.0
C502 C 0.4881 0.37904 0.28759 0.0
C503 C 0.53251 0.34806 0.51454 0.0
H504 H 0.46678 0.29364 0.37256 0.0
H505 H 0.53316 0.29975 0.25366 0.0
H506 H 0.47648 0.34112 0.49744 0.0
H507 H 0.45981 0.35156 0.41956 0.0
H508 H 0.45375 0.3224 0.4567 0.0
H509 H 0.55978 0.33172 0.27231 0.0
H510 H 0.54207 0.35842 0.26973 0.0
H511 H 0.55611 0.34973 0.35433 0.0
H512 H 0.49008 0.41985 0.36586 0.0
H513 H 0.52746 0.39367 0.55712 0.0
H514 H 0.47188 0.36781 0.2942 0.0
H515 H 0.5004 0.36948 0.24972 0.0
H516 H 0.4828 0.39607 0.26116 0.0
H517 H 0.51845 0.33571 0.5349 0.0
H518 H 0.54276 0.3548 0.56296 0.0
H519 H 0.54471 0.33764 0.47865 0.0
C520 C 0.16827 0.45907 0.31337 0.0
C521 C 0.18847 0.47361 0.32325 0.0
C522 C 0.14758 0.46241 0.35561 0.0
C523 C 0.14712 0.48055 0.40995 0.0
C524 C 0.16758 0.495 0.42154 0.0
C525 C 0.18802 0.49145 0.37765 0.0
C526 C 0.12607 0.4467 0.34128 0.0
C527 C 0.16778 0.51427 0.47984 0.0
C528 C 0.08462 0.49948 0.46563 0.0
C529 C 0.08047 0.48461 0.52647 0.0
C530 C 0.10674 0.49918 0.42883 0.0
C531 C 0.12513 0.484 0.45465 0.0
C532 C 0.12143 0.47011 0.51894 0.0
C533 C 0.09905 0.47041 0.55363 0.0
C534 C 0.10998 0.51408 0.36001 0.0
C535 C 0.1407 0.45405 0.54908 0.0
H536 H 0.16835 0.44532 0.27124 0.0
H537 H 0.20356 0.50275 0.38559 0.0
H538 H 0.12133 0.43674 0.39226 0.0
H539 H 0.11042 0.45778 0.32632 0.0
H540 H 0.12923 0.4337 0.29597 0.0
H541 H 0.18533 0.52353 0.48329 0.0
H542 H 0.15377 0.5276 0.46741 0.0
H543 H 0.16353 0.50654 0.53484 0.0
H544 H 0.07025 0.5105 0.4448 0.0
H545 H 0.09599 0.45922 0.60164 0.0
H546 H 0.11131 0.50225 0.31094 0.0
H547 H 0.12686 0.52446 0.3632 0.0
H548 H 0.09489 0.52656 0.3513 0.0
H549 H 0.14331 0.43881 0.51087 0.0
H550 H 0.13611 0.44696 0.60475 0.0
H551 H 0.15799 0.46373 0.55283 0.0
C552 C 0.03274 0.79852 0.91805 0.0
C553 C 0.01112 0.78844 0.94215 0.0
C554 C 0.03297 0.81957 0.87621 0.0
C555 C 0.01112 0.83111 0.86034 0.0
C556 C -0.01078 0.82063 0.8828 0.0
C557 C -0.01051 0.79923 0.9225 0.0
C558 C 0.05658 0.8298 0.85085 0.0
C559 C 0.96554 0.83258 0.86805 0.0
C560 C 0.00854 0.89787 0.83112 0.0
C561 C 0.00298 0.89899 0.75576 0.0
C562 C 0.01214 0.8758 0.8657 0.0
C563 C 0.01091 0.85463 0.82299 0.0
C564 C 0.00702 0.85597 0.74569 0.0
C565 C 0.00263 0.87815 0.71322 0.0
C566 C 0.01569 0.87505 0.94857 0.0
C567 C 0.00636 0.83393 0.69782 0.0
H568 H 0.0495 0.79016 0.93304 0.0
H569 H 0.97274 0.79166 0.9417 0.0
H570 H 0.05586 0.83409 0.79092 0.0
H571 H 0.06029 0.84664 0.88089 0.0
H572 H 0.07166 0.81739 0.86073 0.0
H573 H 0.95013 0.822 0.88887 0.0
H574 H 0.96525 0.85032 0.89515 0.0
H575 H 0.96315 0.83548 0.80778 0.0
H576 H 0.00861 0.91407 0.86376 0.0
H577 H -0.0015 0.87918 0.6546 0.0
H578 H 0.03176 0.86448 0.9626 0.0
H579 H 0.0001 0.86615 0.97488 0.0
H580 H 0.01768 0.89311 0.97295 0.0
H581 H 0.02154 0.82204 0.71132 0.0
H582 H 0.00707 0.83832 0.63788 0.0
H583 H -0.01038 0.82388 0.70865 0.0
C584 C 0.6835 0.01706 0.89391 0.0
C585 C 0.68849 -0.0055 0.9231 0.0
C586 C 0.66291 0.02091 0.85108 0.0
C587 C 0.64669 0.0019 0.83909 0.0
C588 C 0.65191 0.979 0.8672 0.0
C589 C 0.6729 0.97552 0.90801 0.0
C590 C 0.65826 0.04538 0.82003 0.0
C591 C 0.63488 0.95833 0.85659 0.0
C592 C 0.58092 0.01282 0.80084 0.0
C593 C 0.57934 0.00592 0.72659 0.0
C594 C 0.60302 0.01248 0.83782 0.0
C595 C 0.62392 0.00579 0.7986 0.0
C596 C 0.62252 0.00044 0.72215 0.0
C597 C 0.60014 0.00017 0.68735 0.0
C598 C 0.60374 0.0178 0.91977 0.0
C599 C 0.64446 -0.00607 0.67787 0.0
H600 H 0.69554 0.03177 0.9054 0.0
H601 H 0.67651 0.95811 0.93113 0.0
H602 H 0.65461 0.04423 0.75972 0.0
H603 H 0.64215 0.05308 0.84656 0.0
H604 H 0.67356 0.0577 0.82913 0.0
H605 H 0.64157 0.94169 0.88233 0.0
H606 H 0.61725 0.96266 0.88133 0.0
H607 H 0.63195 0.95502 0.79672 0.0
H608 H 0.56474 0.01713 0.831 0.0
H609 H 0.59884 -0.00492 0.6295 0.0
H610 H 0.61769 0.0313 0.93208 0.0
H611 H 0.60851 0.0014 0.95054 0.0
H612 H 0.58629 0.02435 0.94087 0.0
H613 H 0.6592 0.00671 0.68893 0.0
H614 H 0.64083 -0.00638 0.61738 0.0
H615 H 0.65076 0.97604 0.69471 0.0
C616 C 0.47793 0.67412 0.96436 0.0
C617 C 0.49593 0.68484 0.9218 0.0
C618 C 0.47122 0.65035 0.95231 0.0
C619 C 0.48295 0.63705 0.89663 0.0
C620 C 0.50019 0.64827 0.85069 0.0
C621 C 0.50634 0.67215 0.8635 0.0
C622 C 0.45245 0.6392 0.00151 0.0
C623 C 0.51315 0.63467 0.79081 0.0
C624 C 0.49266 0.57081 0.9168 0.0
C625 C 0.47723 0.56162 0.86261 0.0
C626 C 0.49371 0.59528 0.93133 0.0
C627 C 0.47899 0.61096 0.89048 0.0
C628 C 0.46216 0.60165 0.83944 0.0
C629 C 0.46145 0.57702 0.82613 0.0
C630 C 0.51166 0.60447 0.98707 0.0
C631 C 0.44594 0.61777 0.79564 0.0
H632 H 0.46946 0.6842 0.00829 0.0
H633 H 0.52021 0.6805 0.83047 0.0
H634 H 0.4395 0.62871 0.96815 0.0
H635 H 0.46113 0.62678 0.04084 0.0
H636 H 0.44252 0.65274 0.034 0.0
H637 H 0.52487 0.64635 0.75686 0.0
H638 H 0.52434 0.62063 0.8164 0.0
H639 H 0.50015 0.62567 0.75367 0.0
H640 H 0.50474 0.55896 0.94568 0.0
H641 H 0.44947 0.57006 0.7841 0.0
H642 H 0.50286 0.61646 0.02748 0.0
H643 H 0.52564 0.61502 0.95812 0.0
H644 H 0.52051 0.58986 0.01796 0.0
H645 H 0.43753 0.63118 0.83239 0.0
H646 H 0.43164 0.60768 0.76649 0.0
H647 H 0.45661 0.62757 0.75371 0.0
C648 C 0.78754 0.48703 0.92011 0.0
C649 C 0.7863 0.50702 0.96655 0.0
C650 C 0.80783 0.48287 0.87607 0.0
C651 C 0.82742 0.49885 0.87978 0.0
C652 C 0.82595 0.51941 0.92485 0.0
C653 C 0.80533 0.52336 0.96701 0.0
C654 C 0.80857 0.46109 0.82717 0.0
C655 C 0.84654 0.53681 0.93076 0.0
C656 C 0.89088 0.47953 0.83727 0.0
C657 C 0.89501 0.49135 0.77034 0.0
C658 C 0.86851 0.48097 0.87232 0.0
C659 C 0.84983 0.49403 0.83838 0.0
C660 C 0.85355 0.5046 0.76826 0.0
C661 C 0.87622 0.50341 0.73555 0.0
C662 C 0.8653 0.46975 0.94761 0.0
C663 C 0.83396 0.51814 0.72934 0.0
H664 H 0.77287 0.47437 0.91929 0.0
H665 H 0.80461 0.53883 0.00282 0.0
H666 H 0.81361 0.46612 0.76983 0.0
H667 H 0.8224 0.44865 0.84774 0.0
H668 H 0.79112 0.45158 0.82564 0.0
H669 H 0.84244 0.55202 0.96795 0.0
H670 H 0.86261 0.52759 0.95229 0.0
H671 H 0.85114 0.5439 0.87523 0.0
H672 H 0.90546 0.47023 0.86403 0.0
H673 H 0.87936 0.51223 0.68302 0.0
H674 H 0.84898 0.45848 0.94855 0.0
H675 H 0.86292 0.4839 0.98986 0.0
H676 H 0.88087 0.45867 0.9637 0.0
H677 H 0.81703 0.50779 0.72986 0.0
H678 H 0.83869 0.52233 0.67101 0.0
H679 H 0.83061 0.53511 0.75898 0.0
C680 C 0.00498 0.16271 0.96057 0.0
C681 C 0.00796 0.15954 0.03702 0.0
C682 C 0.00016 0.14325 0.91382 0.0
C683 C -0.00181 0.12009 0.9443 0.0
C684 C 0.00166 0.11673 0.02118 0.0
C685 C 0.00652 0.13646 0.06652 0.0
C686 C -0.0034 0.14755 0.83203 0.0
C687 C -0.00041 0.09238 0.05598 0.0
C688 C 0.96021 0.07576 0.83704 0.0
C689 C 0.97755 0.06253 0.799 0.0
C690 C 0.96673 0.09419 0.88553 0.0
C691 C -0.00878 0.09961 0.89633 0.0
C692 C 0.00887 0.08585 0.86003 0.0
C693 C 0.00183 0.06743 0.81185 0.0
C694 C 0.94734 0.10829 0.92365 0.0
C695 C 0.03516 0.09102 0.87046 0.0
H696 H 0.00611 0.18045 0.9373 0.0
H697 H 0.00875 0.13378 0.12555 0.0
H698 H 0.0088 0.13606 0.79942 0.0
H699 H 0.97804 0.14272 0.81614 0.0
H700 H -0.00011 0.1664 0.81646 0.0
H701 H 0.00433 0.09255 0.11574 0.0
H702 H 0.981 0.08568 0.05022 0.0
H703 H 0.01143 0.0796 0.02697 0.0
H704 H 0.94141 0.07206 0.82775 0.0
H705 H 0.01535 0.05734 0.78259 0.0
H706 H 0.94815 0.12712 0.90535 0.0
H707 H 0.95015 0.10815 0.98446 0.0
H708 H 0.92918 0.1012 0.91169 0.0
H709 H 0.03937 0.1091 0.84942 0.0
H710 H 0.04666 0.07799 0.84109 0.0
H711 H 0.03976 0.09079 0.93022 0.0
C712 C 0.31844 0.0238 0.94606 0.0
C713 C 0.29822 0.01678 0.9052 0.0
C714 C 0.34154 0.0219 0.91629 0.0
C715 C 0.34453 0.01302 0.84358 0.0
C716 C 0.32416 0.00698 0.8007 0.0
C717 C 0.30125 0.00877 0.83223 0.0
C718 C 0.36279 0.02849 0.96378 0.0
C719 C 0.32661 -0.00216 0.72236 0.0
C720 C 0.4035 0.02066 0.74111 0.0
C721 C 0.4132 -0.00225 0.74682 0.0
C722 C 0.38139 0.02614 0.77381 0.0
C723 C 0.36895 0.0084 0.81415 0.0
C724 C 0.37939 -0.01431 0.82375 0.0
C725 C 0.40129 0.9806 0.7895 0.0
C726 C 0.37075 0.05047 0.76158 0.0
C727 C 0.36691 0.96641 0.86749 0.0
H728 H 0.31633 0.03004 0.0025 0.0
H729 H 0.28574 0.00348 0.80009 0.0
H730 H 0.37348 0.01234 0.97561 0.0
H731 H 0.37461 0.04114 0.9339 0.0
H732 H 0.35739 0.03665 0.01727 0.0
H733 H 0.30904 -0.00394 0.69412 0.0
H734 H 0.33814 0.00993 0.68934 0.0
H735 H 0.33536 0.98016 0.72298 0.0
H736 H 0.41249 0.03394 0.70755 0.0
H737 H 0.40874 0.96288 0.79412 0.0
H738 H 0.36437 0.05811 0.81465 0.0
H739 H 0.35504 0.04889 0.72435 0.0
H740 H 0.38376 0.06302 0.73613 0.0
H741 H 0.36194 0.97312 0.92319 0.0
H742 H 0.3782 0.95034 0.87424 0.0
H743 H 0.35013 0.96115 0.83894 0.0
C744 C 0.45609 0.33615 0.08171 0.0
C745 C 0.45468 0.31287 0.05372 0.0
C746 C 0.46131 0.35545 0.03523 0.0
C747 C 0.46504 0.35141 0.95876 0.0
C748 C 0.46278 0.32809 0.92966 0.0
C749 C 0.45773 0.30906 0.97758 0.0
C750 C 0.4638 0.38 0.06856 0.0
C751 C 0.46648 0.32313 0.84826 0.0
C752 C 0.46363 0.40335 0.82405 0.0
C753 C 0.4881 0.40744 0.8123 0.0
C754 C 0.45579 0.38535 0.87232 0.0
C755 C 0.47285 0.37128 0.91 0.0
C756 C 0.49755 0.37582 0.89999 0.0
C757 C 0.50486 0.39379 0.85111 0.0
C758 C 0.42931 0.381 0.8817 0.0
C759 C 0.51629 0.3614 0.93988 0.0
H760 H 0.45386 0.33927 0.14056 0.0
H761 H 0.45659 0.29114 0.95556 0.0
H762 H 0.48268 0.38599 0.06445 0.0
H763 H 0.45276 0.39295 0.03747 0.0
H764 H 0.45839 0.38045 0.12776 0.0
H765 H 0.46246 0.30434 0.8336 0.0
H766 H 0.45494 0.33491 0.81447 0.0
H767 H 0.4853 0.32706 0.83293 0.0
H768 H 0.45057 0.41382 0.79414 0.0
H769 H 0.52381 0.39694 0.84271 0.0
H770 H 0.42437 0.38202 0.94113 0.0
H771 H 0.42471 0.36282 0.86224 0.0
H772 H 0.41835 0.39402 0.85043 0.0
H773 H 0.51323 0.36214 0.00055 0.0
H774 H 0.53473 0.36779 0.92817 0.0
H775 H 0.51494 0.34246 0.92293 0.0
C776 C 0.16345 0.45726 0.93209 0.0
C777 C 0.16127 0.44844 0.00437 0.0
C778 C 0.14307 0.46285 0.89006 0.0
C779 C 0.12004 0.45991 0.92164 0.0
C780 C 0.11774 0.45048 -0.00612 0.0
C781 C 0.13836 0.4447 0.03411 0.0
C782 C 0.14619 0.47248 0.8126 0.0
C783 C 0.09354 0.44732 0.02981 0.0
C784 C 0.07139 0.49992 0.84558 0.0
C785 C 0.05901 0.48444 0.79819 0.0
C786 C 0.09089 0.49197 0.88751 0.0
C787 C 0.09844 0.46804 0.8809 0.0
C788 C 0.08561 0.45215 0.83457 0.0
C789 C 0.06589 0.46051 0.79418 0.0
C790 C 0.1038 0.50936 0.9374 0.0
C791 C 0.09329 0.4266 0.82542 0.0
H792 H 0.18108 0.46008 0.90865 0.0
H793 H 0.13648 0.43797 0.09005 0.0
H794 H 0.13517 0.46208 0.77291 0.0
H795 H 0.1399 0.49116 0.81041 0.0
H796 H 0.16513 0.472 0.79409 0.0
H797 H 0.09476 0.43867 0.08497 0.0
H798 H 0.0849 0.46492 0.03673 0.0
H799 H 0.0817 0.43642 -0.00611 0.0
H800 H 0.0661 0.51843 0.84882 0.0
H801 H 0.05657 0.44854 0.75683 0.0
H802 H 0.12241 0.51192 0.91757 0.0
H803 H 0.10482 0.50219 -0.00547 0.0
H804 H 0.09489 0.52698 0.9393 0.0
H805 H 0.11129 0.42601 0.79966 0.0
H806 H 0.0807 0.41623 0.79026 0.0
H807 H 0.09466 0.41781 0.88022 0.0
C808 C -0.00649 0.84195 0.22671 0.0
C809 C 0.00012 0.82015 0.25853 0.0
C810 C -0.00801 0.86275 0.2695 0.0
C811 C -0.00293 0.86175 0.34616 0.0
C812 C 0.0029 0.83965 0.37923 0.0
C813 C 0.00442 0.81912 0.33497 0.0
C814 C -0.01422 0.88594 0.23212 0.0
C815 C 0.00826 0.83785 0.461 0.0
C816 C 0.02105 0.91641 0.44513 0.0
C817 C 0.00098 0.92405 0.48501 0.0
C818 C 0.01978 0.89661 0.398 0.0
C819 C -0.00207 0.88402 0.39086 0.0
C820 C 0.97732 0.89225 0.42853 0.0
C821 C 0.97906 0.91227 0.47504 0.0
C822 C 0.04211 0.88866 0.35807 0.0
C823 C 0.9537 0.87931 0.42225 0.0
H824 H -0.00991 0.84297 0.16771 0.0
H825 H 0.00943 0.80235 0.36007 0.0
H826 H 0.97071 0.89466 0.2613 0.0
H827 H 0.0013 0.89826 0.23496 0.0
H828 H 0.9808 0.88345 0.17305 0.0
H829 H 0.01091 0.81916 0.47913 0.0
H830 H 0.02469 0.84816 0.47405 0.0
H831 H -0.00653 0.8457 0.49376 0.0
H832 H 0.038 0.92555 0.45233 0.0
H833 H 0.96354 0.91799 0.5062 0.0
H834 H 0.03855 0.88681 0.2979 0.0
H835 H 0.0476 0.87093 0.37885 0.0
H836 H 0.05725 0.90128 0.36584 0.0
H837 H 0.94887 0.8767 0.36321 0.0
H838 H 0.93898 0.88901 0.4503 0.0
H839 H 0.95527 0.86141 0.44758 0.0
C840 C 0.66229 -0.00561 0.31308 0.0
C841 C 0.66076 -0.0114 0.23767 0.0
C842 C 0.64155 -0.00328 0.35645 0.0
C843 C 0.6188 -0.00652 0.32332 0.0
C844 C 0.61719 -0.01315 0.24791 0.0
C845 C 0.63818 -0.01564 0.20616 0.0
C846 C 0.64396 0.00344 0.43711 0.0
C847 C 0.59328 -0.01664 0.21047 0.0
C848 C 0.56486 -0.01393 0.44968 0.0
C849 C 0.55654 0.00954 0.45432 0.0
C850 C 0.58494 0.98044 0.4064 0.0
C851 C 0.59669 -0.00134 0.36613 0.0
C852 C 0.58766 0.02216 0.36804 0.0
C853 C 0.56779 0.02733 0.41251 0.0
C854 C 0.59416 0.95523 0.40622 0.0
C855 C 0.59942 0.04201 0.32486 0.0
H856 H 0.67966 -0.00245 0.33792 0.0
H857 H 0.63678 0.97986 0.14793 0.0
H858 H 0.63668 0.02155 0.44605 0.0
H859 H 0.6334 -0.00895 0.47212 0.0
H860 H 0.66285 0.00322 0.4561 0.0
H861 H 0.59513 0.97673 0.15277 0.0
H862 H 0.58213 0.97058 0.24221 0.0
H863 H 0.58352 0.00051 0.20918 0.0
H864 H 0.55638 0.97229 0.48257 0.0
H865 H 0.56137 0.04548 0.41584 0.0
H866 H 0.61209 0.95475 0.4325 0.0
H867 H 0.59626 0.94872 0.34859 0.0
H868 H 0.58213 0.94286 0.4366 0.0
H869 H 0.61783 0.04502 0.34585 0.0
H870 H 0.58939 0.05899 0.32906 0.0
H871 H 0.60089 0.03703 0.26557 0.0
C872 C 0.52561 0.63117 0.33462 0.0
C873 C 0.51226 0.63195 0.26895 0.0
C874 C 0.5213 0.61357 0.38803 0.0
C875 C 0.50341 0.59618 0.37496 0.0
C876 C 0.49071 0.59616 0.30716 0.0
C877 C 0.49518 0.61415 0.25509 0.0
C878 C 0.53504 0.61432 0.46 0.0
C879 C 0.47172 0.57771 0.29083 0.0
C880 C 0.50127 0.54232 0.50233 0.0
C881 C 0.48303 0.54887 0.55147 0.0
C882 C 0.50792 0.55736 0.44361 0.0
C883 C 0.49635 0.57957 0.43514 0.0
C884 C 0.47807 0.58628 0.48507 0.0
C885 C 0.4715 0.57075 0.54217 0.0
C886 C 0.5272 0.5495 0.39057 0.0
C887 C 0.46555 0.60996 0.47865 0.0
H888 H 0.53888 0.64484 0.34561 0.0
H889 H 0.48501 0.61448 0.20401 0.0
H890 H 0.52267 0.61862 0.50614 0.0
H891 H 0.54293 0.59667 0.47204 0.0
H892 H 0.54961 0.62782 0.4592 0.0
H893 H 0.46543 0.57855 0.23254 0.0
H894 H 0.47865 0.55959 0.30186 0.0
H895 H 0.45616 0.58051 0.3279 0.0
H896 H 0.5101 0.52532 0.50918 0.0
H897 H 0.45752 0.57598 0.58042 0.0
H898 H 0.54236 0.56228 0.39198 0.0
H899 H 0.52015 0.54938 0.33313 0.0
H900 H 0.53406 0.53147 0.40383 0.0
H901 H 0.47881 0.62466 0.48211 0.0
H902 H 0.45193 0.61258 0.52271 0.0
H903 H 0.45659 0.61134 0.42403 0.0
C904 C 0.84215 0.52503 0.25104 0.0
C905 C 0.81918 0.52516 0.28244 0.0
C906 C 0.8623 0.51912 0.29326 0.0
C907 C 0.85949 0.51343 0.36902 0.0
C908 C 0.83646 0.51425 0.40178 0.0
C909 C 0.81653 0.51997 0.35794 0.0
C910 C 0.8865 0.51823 0.25616 0.0
C911 C 0.83283 0.50855 0.48273 0.0
C912 C 0.90464 0.4729 0.46108 0.0
C913 C 0.91852 0.48911 0.50175 0.0
C914 C 0.88571 0.48067 0.41648 0.0
C915 C 0.8804 0.50524 0.41288 0.0
C916 C 0.89482 0.52179 0.45194 0.0
C917 C 0.91382 0.51352 0.49572 0.0
C918 C 0.87097 0.46248 0.37483 0.0
C919 C 0.88965 0.54812 0.44959 0.0
H920 H 0.8444 0.52898 0.1927 0.0
H921 H 0.79886 0.52015 0.38263 0.0
H922 H 0.89949 0.52952 0.28666 0.0
H923 H 0.8934 0.49975 0.25733 0.0
H924 H 0.88583 0.52427 0.19763 0.0
H925 H 0.81412 0.5116 0.50094 0.0
H926 H 0.8374 0.48965 0.49313 0.0
H927 H 0.84495 0.51958 0.51739 0.0
H928 H 0.90824 0.45402 0.46539 0.0
H929 H 0.92435 0.52612 0.52761 0.0
H930 H 0.87042 0.467 0.31506 0.0
H931 H 0.85228 0.46267 0.39549 0.0
H932 H 0.87811 0.44417 0.38089 0.0
H933 H 0.88903 0.5544 0.39141 0.0
H934 H 0.90325 0.55874 0.48011 0.0
H935 H 0.87184 0.55158 0.47438 0.0
loop_
_geom_bond_atom_site_label_1
_geom_bond_atom_site_label_2
_geom_bond_distance
_geom_bond_site_symmetry_2
_ccdc_geom_bond_type
O0 Cd1 2.306 . S
O0 C7 1.275 . S
Cd1 O0 2.306 . S
Cd1 O9 2.386 . S
Cd1 O10 2.377 1_556 S
O2 Cd3 2.385 . S
O2 C7 1.255 1_554 S
Cd3 O2 2.385 . S
Cd3 O4 2.317 . S
O4 Cd3 2.317 . S
O4 C5 1.232 . S
C5 O4 1.232 . S
C5 O6 1.218 . S
O6 C5 1.218 . S
C7 O0 1.275 . S
C7 O2 1.255 1_556 S
C8 O9 1.258 . S
C8 O10 1.256 1_556 S
O9 Cd1 2.386 . S
O9 C8 1.258 . S
O10 Cd1 2.377 1_554 S
O10 C8 1.256 1_554 S
O11 Cd12 2.300 1_656 S
O11 C18 1.274 . S
Cd12 O11 2.300 1_454 S
Cd12 O20 2.381 1_454 S
Cd12 O21 2.378 . S
O13 Cd14 2.385 . S
O13 C18 1.258 1_454 S
Cd14 O13 2.385 . S
Cd14 O15 2.317 . S
O15 Cd14 2.317 . S
O15 C16 1.232 . S
C16 O15 1.232 . S
C16 O17 1.218 . S
O17 C16 1.218 . S
C18 O11 1.274 . S
C18 O13 1.258 1_656 S
C19 O20 1.258 . S
C19 O21 1.256 1_656 S
O20 Cd12 2.381 1_656 S
O20 C19 1.258 . S
O21 Cd12 2.378 . S
O21 C19 1.256 1_454 S
O22 Cd23 2.300 1_556 S
O22 C29 1.275 . S
Cd23 O22 2.300 1_554 S
Cd23 O31 2.381 1_554 S
Cd23 O32 2.378 . S
O24 Cd25 2.385 1_565 S
O24 C29 1.255 1_554 S
Cd25 O24 2.385 1_545 S
Cd25 O26 2.317 1_545 S
O26 Cd25 2.317 1_565 S
O26 C27 1.232 . S
C27 O26 1.232 . S
C27 O28 1.218 . S
O28 C27 1.218 . S
C29 O22 1.275 . S
C29 O24 1.255 1_556 S
C30 O31 1.258 . S
C30 O32 1.256 1_556 S
O31 Cd23 2.381 1_556 S
O31 C30 1.258 . S
O32 Cd23 2.378 . S
O32 C30 1.256 1_554 S
O33 Cd34 2.300 1_556 S
O33 C40 1.275 . S
Cd34 O33 2.300 1_554 S
Cd34 O42 2.381 1_554 S
Cd34 O43 2.378 . S
O35 Cd36 2.385 . S
O35 C40 1.255 1_554 S
Cd36 O35 2.385 . S
Cd36 O37 2.317 . S
O37 Cd36 2.317 . S
O37 C38 1.232 . S
C38 O37 1.232 . S
C38 O39 1.218 . S
O39 C38 1.218 . S
C40 O33 1.275 . S
C40 O35 1.255 1_556 S
C41 O42 1.258 . S
C41 O43 1.256 1_556 S
O42 Cd34 2.381 1_556 S
O42 C41 1.258 . S
O43 Cd34 2.378 . S
O43 C41 1.256 1_554 S
O44 Cd45 2.300 . S
O44 C51 1.275 . S
Cd45 O44 2.300 . S
Cd45 O53 2.381 . S
Cd45 O54 2.378 . S
O46 Cd47 2.385 . S
O46 C51 1.255 . S
Cd47 O46 2.385 . S
Cd47 O48 2.317 . S
O48 Cd47 2.317 . S
O48 C49 1.232 . S
C49 O48 1.232 . S
C49 O50 1.218 . S
O50 C49 1.218 . S
C51 O44 1.275 . S
C51 O46 1.255 . S
C52 O53 1.258 . S
C52 O54 1.256 . S
O53 Cd45 2.381 . S
O53 C52 1.258 . S
O54 Cd45 2.378 . S
O54 C52 1.256 . S
O55 Cd56 2.300 . S
O55 C62 1.275 . S
Cd56 O55 2.300 . S
Cd56 O64 2.381 . S
Cd56 O65 2.378 . S
O57 Cd58 2.385 . S
O57 C62 1.255 . S
Cd58 O57 2.385 . S
Cd58 O59 2.317 . S
O59 Cd58 2.317 . S
O59 C60 1.232 . S
C60 O59 1.232 . S
C60 O61 1.218 . S
O61 C60 1.218 . S
C62 O55 1.275 . S
C62 O57 1.255 . S
C63 O64 1.258 . S
C63 O65 1.256 . S
O64 Cd56 2.381 . S
O64 C63 1.258 . S
O65 Cd56 2.378 . S
O65 C63 1.256 . S
O66 Cd67 2.300 . S
O66 C73 1.275 . S
Cd67 O66 2.300 . S
Cd67 O75 2.381 . S
Cd67 O76 2.378 . S
O68 Cd69 2.385 . S
O68 C73 1.255 . S
Cd69 O68 2.385 . S
Cd69 O70 2.317 . S
O70 Cd69 2.317 . S
O70 C71 1.232 . S
C71 O70 1.232 . S
C71 O72 1.218 . S
O72 C71 1.218 . S
C73 O66 1.275 . S
C73 O68 1.255 . S
C74 O75 1.258 . S
C74 O76 1.256 . S
O75 Cd67 2.381 . S
O75 C74 1.258 . S
O76 Cd67 2.378 . S
O76 C74 1.256 . S
O77 Cd78 2.300 . S
O77 C84 1.275 . S
Cd78 O77 2.300 . S
Cd78 O86 2.381 . S
Cd78 O87 2.378 . S
O79 Cd80 2.385 . S
O79 C84 1.255 . S
Cd80 O79 2.385 . S
Cd80 O81 2.317 . S
O81 Cd80 2.317 . S
O81 C82 1.232 . S
C82 O81 1.232 . S
C82 O83 1.218 . S
O83 C82 1.218 . S
C84 O77 1.275 . S
C84 O79 1.255 . S
C85 O86 1.258 . S
C85 O87 1.256 . S
O86 Cd78 2.381 . S
O86 C85 1.258 . S
O87 Cd78 2.378 . S
O87 C85 1.256 . S
Zn88 O94 1.969 1_455 S
Zn88 O95 1.965 . S
Zn88 O99 2.024 . S
Zn88 O104 1.969 1_455 S
Zn89 O96 1.969 . S
Zn89 O102 1.969 . S
Zn89 O103 1.965 1_455 S
Zn89 O105 2.024 1_455 S
C90 O91 1.229 1_455 S
C90 O99 1.058 . S
O91 C90 1.229 1_655 S
C92 O93 1.266 . S
C92 O105 1.035 1_455 S
O93 C92 1.266 . S
O94 Zn88 1.969 1_655 S
O94 C97 1.267 1_655 S
O95 Zn88 1.965 . S
O95 C106 1.260 . S
O96 Zn89 1.969 . S
O96 C106 1.258 1_565 S
C97 O94 1.267 1_455 S
C97 O98 1.228 . S
O98 C97 1.228 . S
O99 Zn88 2.024 . S
O99 C90 1.058 . S
C100 O101 1.228 1_455 S
C100 O102 1.267 . S
O101 C100 1.228 1_655 S
O102 Zn89 1.969 . S
O102 C100 1.267 . S
O103 Zn89 1.965 1_655 S
O103 C107 1.260 1_565 S
O104 Zn88 1.969 1_655 S
O104 C107 1.258 . S
O105 Zn89 2.024 1_655 S
O105 C92 1.035 1_655 S
C106 O95 1.260 . S
C106 O96 1.258 1_545 S
C107 O103 1.260 1_545 S
C107 O104 1.258 . S
Zn108 O114 1.969 1_545 S
Zn108 O115 1.965 . S
Zn108 O119 2.024 . S
Zn108 O124 1.969 1_545 S
Zn109 O116 1.969 . S
Zn109 O122 1.969 . S
Zn109 O123 1.965 1_545 S
Zn109 O125 2.024 1_545 S
C110 O111 1.229 . S
C110 O119 1.058 . S
O111 C110 1.229 . S
C112 O113 1.229 1_565 S
C112 O125 1.058 . S
O113 C112 1.229 1_545 S
O114 Zn108 1.969 1_565 S
O114 C117 1.267 1_565 S
O115 Zn108 1.965 . S
O115 C126 1.260 . S
O116 Zn109 1.969 . S
O116 C126 1.258 . S
C117 O114 1.267 1_545 S
C117 O118 1.228 . S
O118 C117 1.228 . S
O119 Zn108 2.024 . S
O119 C110 1.058 . S
C120 O121 1.228 1_545 S
C120 O122 1.267 . S
O121 C120 1.228 1_565 S
O122 Zn109 1.969 . S
O122 C120 1.267 . S
O123 Zn109 1.965 1_565 S
O123 C127 1.260 . S
O124 Zn108 1.969 1_565 S
O124 C127 1.258 . S
O125 Zn109 2.024 1_565 S
O125 C112 1.058 . S
C126 O115 1.260 . S
C126 O116 1.258 . S
C127 O123 1.260 . S
C127 O124 1.258 . S
Zn128 O134 1.969 . S
Zn128 O135 1.965 . S
Zn128 O139 2.024 . S
Zn128 O144 1.969 . S
Zn129 O136 1.969 . S
Zn129 O142 1.969 . S
Zn129 O143 1.965 . S
Zn129 O145 2.024 . S
C130 O131 1.229 . S
C130 O139 1.058 . S
O131 C130 1.229 . S
C132 O133 1.229 . S
C132 O145 1.058 . S
O133 C132 1.229 . S
O134 Zn128 1.969 . S
O134 C137 1.267 . S
O135 Zn128 1.965 . S
O135 C146 1.260 . S
O136 Zn129 1.969 . S
O136 C146 1.258 . S
C137 O134 1.267 . S
C137 O138 1.228 . S
O138 C137 1.228 . S
O139 Zn128 2.024 . S
O139 C130 1.058 . S
C140 O141 1.228 . S
C140 O142 1.267 . S
O141 C140 1.228 . S
O142 Zn129 1.969 . S
O142 C140 1.267 . S
O143 Zn129 1.965 . S
O143 C147 1.260 . S
O144 Zn128 1.969 . S
O144 C147 1.258 . S
O145 Zn129 2.024 . S
O145 C132 1.058 . S
C146 O135 1.260 . S
C146 O136 1.258 . S
C147 O143 1.260 . S
C147 O144 1.258 . S
Zn148 O154 1.969 . S
Zn148 O155 1.965 . S
Zn148 O159 2.024 . S
Zn148 O164 1.969 . S
Zn149 O156 1.969 . S
Zn149 O162 1.969 . S
Zn149 O163 1.965 . S
Zn149 O165 2.024 . S
C150 O151 1.229 . S
C150 O159 1.058 . S
O151 C150 1.229 . S
C152 O153 1.229 . S
C152 O165 1.058 . S
O153 C152 1.229 . S
O154 Zn148 1.969 . S
O154 C157 1.267 . S
O155 Zn148 1.965 . S
O155 C166 1.260 . S
O156 Zn149 1.969 . S
O156 C166 1.258 1_655 S
C157 O154 1.267 . S
C157 O158 1.228 . S
O158 C157 1.228 . S
O159 Zn148 2.024 . S
O159 C150 1.058 . S
C160 O161 1.228 . S
C160 O162 1.267 . S
O161 C160 1.228 . S
O162 Zn149 1.969 . S
O162 C160 1.267 . S
O163 Zn149 1.965 . S
O163 C167 1.260 1_655 S
O164 Zn148 1.969 . S
O164 C167 1.258 . S
O165 Zn149 2.024 . S
O165 C152 1.058 . S
C166 O155 1.260 . S
C166 O156 1.258 1_455 S
C167 O163 1.260 1_455 S
C167 O164 1.258 . S
C168 C169 1.391 . S
C168 C170 1.394 . S
C168 H184 0.931 . S
C169 C168 1.391 . S
C169 C173 1.376 . S
C170 C168 1.394 . S
C170 C171 1.369 . S
C170 C174 1.531 . S
C171 C170 1.369 . S
C171 C172 1.410 . S
C171 C179 1.503 . S
C172 C171 1.410 . S
C172 C173 1.392 . S
C172 C175 1.511 . S
C173 C169 1.376 . S
C173 C172 1.392 . S
C173 H185 0.929 . S
C174 C170 1.531 . S
C174 H186 0.960 . S
C174 H187 0.962 . S
C174 H188 0.960 . S
C175 C172 1.511 . S
C175 H189 0.961 . S
C175 H190 0.961 . S
C175 H191 0.961 . S
C176 C177 1.388 . S
C176 C178 1.371 . S
C176 H192 0.906 1_545 S
C177 C176 1.388 . S
C177 C181 1.408 . S
C178 C176 1.371 . S
C178 C179 1.370 . S
C178 C182 1.524 1_545 S
C179 C171 1.503 . S
C179 C178 1.370 . S
C179 C180 1.403 . S
C180 C179 1.403 . S
C180 C181 1.404 . S
C180 C183 1.539 . S
C181 C177 1.408 . S
C181 C180 1.404 . S
C181 H193 0.930 . S
C182 C178 1.524 1_565 S
C182 H194 0.956 . S
C182 H195 0.961 . S
C182 H196 0.961 . S
C183 C180 1.539 . S
C183 H197 0.958 . S
C183 H198 0.961 . S
C183 H199 0.960 . S
H184 C168 0.931 . S
H185 C173 0.929 . S
H186 C174 0.960 . S
H187 C174 0.962 . S
H188 C174 0.960 . S
H189 C175 0.961 . S
H190 C175 0.961 . S
H191 C175 0.961 . S
H192 C176 0.906 1_565 S
H193 C181 0.930 . S
H194 C182 0.956 . S
H195 C182 0.961 . S
H196 C182 0.961 . S
H197 C183 0.958 . S
H198 C183 0.961 . S
H199 C183 0.960 . S
C200 C201 1.391 . S
C200 C202 1.394 . S
C200 H216 0.931 . S
C201 C200 1.391 . S
C201 C205 1.376 . S
C202 C200 1.394 . S
C202 C203 1.369 . S
C202 C206 1.531 . S
C203 C202 1.369 . S
C203 C204 1.410 . S
C203 C211 1.503 . S
C204 C203 1.410 . S
C204 C205 1.392 . S
C204 C207 1.511 . S
C205 C201 1.376 . S
C205 C204 1.392 . S
C205 H217 0.929 . S
C206 C202 1.531 . S
C206 H218 0.960 . S
C206 H219 0.962 . S
C206 H220 0.960 . S
C207 C204 1.511 . S
C207 H221 0.961 . S
C207 H222 0.961 . S
C207 H223 0.961 . S
C208 C209 1.370 . S
C208 C210 1.363 . S
C208 H224 0.931 . S
C209 C208 1.370 . S
C209 C213 1.408 . S
C210 C208 1.363 . S
C210 C211 1.370 . S
C210 C214 1.524 . S
C211 C203 1.503 . S
C211 C210 1.370 . S
C211 C212 1.403 . S
C212 C211 1.403 . S
C212 C213 1.404 . S
C212 C215 1.539 . S
C213 C209 1.408 . S
C213 C212 1.404 . S
C213 H225 0.930 . S
C214 C210 1.524 . S
C214 H226 0.956 . S
C214 H227 0.961 . S
C214 H228 0.961 . S
C215 C212 1.539 . S
C215 H229 0.958 . S
C215 H230 0.961 . S
C215 H231 0.960 . S
H216 C200 0.931 . S
H217 C205 0.929 . S
H218 C206 0.960 . S
H219 C206 0.962 . S
H220 C206 0.960 . S
H221 C207 0.961 . S
H222 C207 0.961 . S
H223 C207 0.961 . S
H224 C208 0.931 . S
H225 C213 0.930 . S
H226 C214 0.956 . S
H227 C214 0.961 . S
H228 C214 0.961 . S
H229 C215 0.958 . S
H230 C215 0.961 . S
H231 C215 0.960 . S
C232 C233 1.391 . S
C232 C234 1.394 . S
C232 H248 0.931 . S
C233 C232 1.391 . S
C233 C237 1.376 . S
C234 C232 1.394 . S
C234 C235 1.369 . S
C234 C238 1.531 . S
C235 C234 1.369 . S
C235 C236 1.410 . S
C235 C243 1.503 . S
C236 C235 1.410 . S
C236 C237 1.392 . S
C236 C239 1.511 . S
C237 C233 1.376 . S
C237 C236 1.392 . S
C237 H249 0.929 . S
C238 C234 1.531 . S
C238 H250 0.960 . S
C238 H251 0.962 . S
C238 H252 0.960 . S
C239 C236 1.511 . S
C239 H253 0.961 . S
C239 H254 0.961 . S
C239 H255 0.961 . S
C240 C241 1.370 . S
C240 C242 1.363 . S
C240 H256 0.931 . S
C241 C240 1.370 . S
C241 C245 1.408 . S
C242 C240 1.363 . S
C242 C243 1.370 . S
C242 C246 1.524 . S
C243 C235 1.503 . S
C243 C242 1.370 . S
C243 C244 1.403 . S
C244 C243 1.403 . S
C244 C245 1.404 . S
C244 C247 1.539 . S
C245 C241 1.408 . S
C245 C244 1.404 . S
C245 H257 0.930 . S
C246 C242 1.524 . S
C246 H258 0.956 . S
C246 H259 0.961 . S
C246 H260 0.961 . S
C247 C244 1.539 . S
C247 H261 0.958 . S
C247 H262 0.961 . S
C247 H263 0.960 . S
H248 C232 0.931 . S
H249 C237 0.929 . S
H250 C238 0.960 . S
H251 C238 0.962 . S
H252 C238 0.960 . S
H253 C239 0.961 . S
H254 C239 0.961 . S
H255 C239 0.961 . S
H256 C240 0.931 . S
H257 C245 0.930 . S
H258 C246 0.956 . S
H259 C246 0.961 . S
H260 C246 0.961 . S
H261 C247 0.958 . S
H262 C247 0.961 . S
H263 C247 0.960 . S
C264 C265 1.391 1_655 S
C264 C266 1.394 . S
C264 H280 0.931 . S
C265 C264 1.391 1_455 S
C265 C269 1.376 . S
C266 C264 1.394 . S
C266 C267 1.369 1_655 S
C266 C270 1.531 . S
C267 C266 1.369 1_455 S
C267 C268 1.410 . S
C267 C275 1.503 . S
C268 C267 1.410 . S
C268 C269 1.392 . S
C268 C271 1.511 . S
C269 C265 1.376 . S
C269 C268 1.392 . S
C269 H281 0.929 . S
C270 C266 1.531 . S
C270 H282 0.960 . S
C270 H283 0.962 . S
C270 H284 0.960 . S
C271 C268 1.511 . S
C271 H285 0.961 . S
C271 H286 0.961 . S
C271 H287 0.961 . S
C272 C273 1.370 . S
C272 C274 1.363 . S
C272 H288 0.931 . S
C273 C272 1.370 . S
C273 C277 1.408 . S
C274 C272 1.363 . S
C274 C275 1.370 . S
C274 C278 1.524 . S
C275 C267 1.503 . S
C275 C274 1.370 . S
C275 C276 1.403 . S
C276 C275 1.403 . S
C276 C277 1.404 . S
C276 C279 1.539 . S
C277 C273 1.408 . S
C277 C276 1.404 . S
C277 H289 0.930 . S
C278 C274 1.524 . S
C278 H290 0.956 1_455 S
C278 H291 0.961 . S
C278 H292 0.961 . S
C279 C276 1.539 . S
C279 H293 0.958 . S
C279 H294 0.961 . S
C279 H295 0.960 . S
H280 C264 0.931 . S
H281 C269 0.929 . S
H282 C270 0.960 . S
H283 C270 0.962 . S
H284 C270 0.960 . S
H285 C271 0.961 . S
H286 C271 0.961 . S
H287 C271 0.961 . S
H288 C272 0.931 . S
H289 C277 0.930 . S
H290 C278 0.956 1_655 S
H291 C278 0.961 . S
H292 C278 0.961 . S
H293 C279 0.958 . S
H294 C279 0.961 . S
H295 C279 0.960 . S
C296 C297 1.391 . S
C296 C298 1.394 . S
C296 H312 0.931 . S
C297 C296 1.391 . S
C297 C301 1.376 . S
C298 C296 1.394 . S
C298 C299 1.369 . S
C298 C302 1.531 . S
C299 C298 1.369 . S
C299 C300 1.410 . S
C299 C307 1.503 . S
C300 C299 1.410 . S
C300 C301 1.392 . S
C300 C303 1.511 1_565 S
C301 C297 1.376 . S
C301 C300 1.392 . S
C301 H313 0.929 1_556 S
C302 C298 1.531 . S
C302 H314 0.960 . S
C302 H315 0.962 . S
C302 H316 0.960 . S
C303 C300 1.511 1_545 S
C303 H317 0.961 1_546 S
C303 H318 0.960 1_545 S
C303 H319 0.961 . S
C304 C305 1.367 . S
C304 C306 1.363 . S
C304 H320 0.931 . S
C305 C304 1.367 . S
C305 C309 1.411 1_565 S
C306 C304 1.363 . S
C306 C307 1.370 . S
C306 C310 1.524 . S
C307 C299 1.503 . S
C307 C306 1.370 . S
C307 C308 1.403 1_565 S
C308 C307 1.403 1_545 S
C308 C309 1.404 . S
C308 C311 1.539 . S
C309 C305 1.411 1_545 S
C309 C308 1.404 . S
C309 H321 0.930 . S
C310 C306 1.524 . S
C310 H322 0.956 . S
C310 H323 0.961 . S
C310 H324 0.961 . S
C311 C308 1.539 . S
C311 H325 0.958 . S
C311 H326 0.961 . S
C311 H327 0.960 . S
H312 C296 0.931 . S
H313 C301 0.929 1_554 S
H314 C302 0.960 . S
H315 C302 0.962 . S
H316 C302 0.960 . S
H317 C303 0.961 1_564 S
H318 C303 0.960 1_565 S
H319 C303 0.961 . S
H320 C304 0.931 . S
H321 C309 0.930 . S
H322 C310 0.956 . S
H323 C310 0.961 . S
H324 C310 0.961 . S
H325 C311 0.958 . S
H326 C311 0.961 . S
H327 C311 0.960 . S
C328 C329 1.391 . S
C328 C330 1.394 . S
C328 H344 0.931 1_556 S
C329 C328 1.391 . S
C329 C333 1.376 . S
C330 C328 1.394 . S
C330 C331 1.369 . S
C330 C334 1.531 . S
C331 C330 1.369 . S
C331 C332 1.410 . S
C331 C339 1.503 . S
C332 C331 1.410 . S
C332 C333 1.392 . S
C332 C335 1.511 . S
C333 C329 1.376 . S
C333 C332 1.392 . S
C333 H345 0.929 . S
C334 C330 1.531 . S
C334 H346 0.960 . S
C334 H347 0.962 . S
C334 H348 0.960 . S
C335 C332 1.511 . S
C335 H349 0.961 . S
C335 H350 0.961 . S
C335 H351 0.961 . S
C336 C337 1.370 . S
C336 C338 1.363 . S
C336 H352 0.931 . S
C337 C336 1.370 . S
C337 C341 1.408 . S
C338 C336 1.363 . S
C338 C339 1.370 . S
C338 C342 1.524 . S
C339 C331 1.503 . S
C339 C338 1.370 . S
C339 C340 1.403 . S
C340 C339 1.403 . S
C340 C341 1.404 . S
C340 C343 1.539 . S
C341 C337 1.408 . S
C341 C340 1.404 . S
C341 H353 0.930 . S
C342 C338 1.524 . S
C342 H354 0.956 . S
C342 H355 0.961 . S
C342 H356 0.961 . S
C343 C340 1.539 . S
C343 H357 0.958 . S
C343 H358 0.961 . S
C343 H359 0.960 . S
H344 C328 0.931 1_554 S
H345 C333 0.929 . S
H346 C334 0.960 . S
H347 C334 0.962 . S
H348 C334 0.960 . S
H349 C335 0.961 . S
H350 C335 0.961 . S
H351 C335 0.961 . S
H352 C336 0.931 . S
H353 C341 0.930 . S
H354 C342 0.956 . S
H355 C342 0.961 . S
H356 C342 0.961 . S
H357 C343 0.958 . S
H358 C343 0.961 . S
H359 C343 0.960 . S
C360 C361 1.391 . S
C360 C362 1.394 . S
C360 H376 0.931 1_556 S
C361 C360 1.391 . S
C361 C365 1.376 . S
C362 C360 1.394 . S
C362 C363 1.369 . S
C362 C366 1.531 . S
C363 C362 1.369 . S
C363 C364 1.410 . S
C363 C371 1.503 . S
C364 C363 1.410 . S
C364 C365 1.392 . S
C364 C367 1.511 . S
C365 C361 1.376 . S
C365 C364 1.392 . S
C365 H377 0.929 . S
C366 C362 1.531 . S
C366 H378 0.960 . S
C366 H379 0.962 . S
C366 H380 0.960 1_556 S
C367 C364 1.511 . S
C367 H381 0.961 . S
C367 H382 0.961 . S
C367 H383 0.961 . S
C368 C369 1.370 . S
C368 C370 1.363 . S
C368 H384 0.931 . S
C369 C368 1.370 . S
C369 C373 1.408 . S
C370 C368 1.363 . S
C370 C371 1.370 . S
C370 C374 1.524 . S
C371 C363 1.503 . S
C371 C370 1.370 . S
C371 C372 1.403 . S
C372 C371 1.403 . S
C372 C373 1.404 . S
C372 C375 1.539 . S
C373 C369 1.408 . S
C373 C372 1.404 . S
C373 H385 0.930 . S
C374 C370 1.524 . S
C374 H386 0.956 . S
C374 H387 0.961 . S
C374 H388 0.961 . S
C375 C372 1.539 . S
C375 H389 0.958 . S
C375 H390 0.961 . S
C375 H391 0.960 . S
H376 C360 0.931 1_554 S
H377 C365 0.929 . S
H378 C366 0.960 . S
H379 C366 0.962 . S
H380 C366 0.960 1_554 S
H381 C367 0.961 . S
H382 C367 0.961 . S
H383 C367 0.961 . S
H384 C368 0.931 . S
H385 C373 0.930 . S
H386 C374 0.956 . S
H387 C374 0.961 . S
H388 C374 0.961 . S
H389 C375 0.958 . S
H390 C375 0.961 . S
H391 C375 0.960 . S
C392 C393 1.391 1_455 S
C392 C394 1.394 . S
C392 H408 0.931 . S
C393 C392 1.391 1_655 S
C393 C397 1.376 . S
C394 C392 1.394 . S
C394 C395 1.369 1_455 S
C394 C398 1.531 . S
C395 C394 1.369 1_655 S
C395 C396 1.410 . S
C395 C403 1.506 . S
C396 C395 1.410 . S
C396 C397 1.392 . S
C396 C399 1.511 . S
C397 C393 1.376 . S
C397 C396 1.392 . S
C397 H409 0.929 . S
C398 C394 1.531 . S
C398 H410 0.960 . S
C398 H411 0.962 . S
C398 H412 0.960 . S
C399 C396 1.511 . S
C399 H413 0.961 . S
C399 H414 0.961 . S
C399 H415 0.961 . S
C400 C401 1.370 . S
C400 C402 1.363 . S
C400 H416 0.931 . S
C401 C400 1.370 . S
C401 C405 1.408 1_455 S
C402 C400 1.363 . S
C402 C403 1.358 1_455 S
C402 C406 1.524 . S
C403 C395 1.506 . S
C403 C402 1.358 1_655 S
C403 C404 1.413 . S
C404 C403 1.413 . S
C404 C405 1.404 . S
C404 C407 1.539 . S
C405 C401 1.408 1_655 S
C405 C404 1.404 . S
C405 H417 0.930 . S
C406 C402 1.524 . S
C406 H418 0.956 . S
C406 H419 0.961 . S
C406 H420 0.961 . S
C407 C404 1.539 . S
C407 H421 0.958 . S
C407 H422 0.961 . S
C407 H423 0.960 . S
H408 C392 0.931 . S
H409 C397 0.929 . S
H410 C398 0.960 . S
H411 C398 0.962 . S
H412 C398 0.960 . S
H413 C399 0.961 . S
H414 C399 0.961 . S
H415 C399 0.961 . S
H416 C400 0.931 . S
H417 C405 0.930 . S
H418 C406 0.956 . S
H419 C406 0.961 . S
H420 C406 0.961 . S
H421 C407 0.958 . S
H422 C407 0.961 . S
H423 C407 0.960 . S
C424 C425 1.391 . S
C424 C426 1.394 . S
C424 H440 0.931 . S
C425 C424 1.391 . S
C425 C429 1.376 1_455 S
C426 C424 1.394 . S
C426 C427 1.369 . S
C426 C430 1.531 . S
C427 C426 1.369 . S
C427 C428 1.410 1_455 S
C427 C435 1.503 . S
C428 C427 1.410 1_655 S
C428 C429 1.392 . S
C428 C431 1.511 . S
C429 C425 1.376 1_655 S
C429 C428 1.392 . S
C429 H441 0.929 . S
C430 C426 1.531 . S
C430 H442 0.960 . S
C430 H443 0.962 . S
C430 H444 0.960 . S
C431 C428 1.511 . S
C431 H445 0.961 . S
C431 H446 0.961 . S
C431 H447 0.961 . S
C432 C433 1.370 1_455 S
C432 C434 1.363 . S
C432 H448 0.931 . S
C433 C432 1.370 1_655 S
C433 C437 1.408 . S
C434 C432 1.363 . S
C434 C435 1.370 . S
C434 C438 1.524 . S
C435 C427 1.503 . S
C435 C434 1.370 . S
C435 C436 1.403 1_455 S
C436 C435 1.403 1_655 S
C436 C437 1.404 . S
C436 C439 1.539 . S
C437 C433 1.408 . S
C437 C436 1.404 . S
C437 H449 0.930 . S
C438 C434 1.524 . S
C438 H450 0.956 . S
C438 H451 0.961 . S
C438 H452 0.961 . S
C439 C436 1.539 . S
C439 H453 0.958 . S
C439 H454 0.961 . S
C439 H455 0.960 . S
H440 C424 0.931 . S
H441 C429 0.929 . S
H442 C430 0.960 . S
H443 C430 0.962 . S
H444 C430 0.960 . S
H445 C431 0.961 . S
H446 C431 0.961 . S
H447 C431 0.961 . S
H448 C432 0.931 . S
H449 C437 0.930 . S
H450 C438 0.956 . S
H451 C438 0.961 . S
H452 C438 0.961 . S
H453 C439 0.958 . S
H454 C439 0.961 . S
H455 C439 0.960 . S
C456 C457 1.391 . S
C456 C458 1.394 . S
C456 H472 0.931 . S
C457 C456 1.391 . S
C457 C461 1.376 . S
C458 C456 1.394 . S
C458 C459 1.369 . S
C458 C462 1.531 . S
C459 C458 1.369 . S
C459 C460 1.410 . S
C459 C467 1.503 . S
C460 C459 1.410 . S
C460 C461 1.392 . S
C460 C463 1.511 1_545 S
C461 C457 1.376 . S
C461 C460 1.392 . S
C461 H473 0.929 . S
C462 C458 1.531 . S
C462 H474 0.960 . S
C462 H475 0.962 . S
C462 H476 0.960 . S
C463 C460 1.511 1_565 S
C463 H477 0.961 . S
C463 H478 0.961 . S
C463 H479 0.961 . S
C464 C465 1.370 . S
C464 C466 1.363 . S
C464 H480 0.931 . S
C465 C464 1.370 . S
C465 C469 1.408 . S
C466 C464 1.363 . S
C466 C467 1.370 . S
C466 C470 1.524 . S
C467 C459 1.503 . S
C467 C466 1.370 . S
C467 C468 1.403 . S
C468 C467 1.403 . S
C468 C469 1.404 . S
C468 C471 1.539 . S
C469 C465 1.408 . S
C469 C468 1.404 . S
C469 H481 0.930 . S
C470 C466 1.524 . S
C470 H482 0.956 . S
C470 H483 0.961 . S
C470 H484 0.961 . S
C471 C468 1.539 . S
C471 H485 0.958 . S
C471 H486 0.961 . S
C471 H487 0.960 . S
H472 C456 0.931 . S
H473 C461 0.929 . S
H474 C462 0.960 . S
H475 C462 0.962 . S
H476 C462 0.960 . S
H477 C463 0.961 . S
H478 C463 0.961 . S
H479 C463 0.961 . S
H480 C464 0.931 . S
H481 C469 0.930 . S
H482 C470 0.956 . S
H483 C470 0.961 . S
H484 C470 0.961 . S
H485 C471 0.958 . S
H486 C471 0.961 . S
H487 C471 0.960 . S
C488 C489 1.391 . S
C488 C490 1.394 . S
C488 H504 0.931 . S
C489 C488 1.391 . S
C489 C493 1.376 . S
C490 C488 1.394 . S
C490 C491 1.369 . S
C490 C494 1.531 . S
C491 C490 1.369 . S
C491 C492 1.410 . S
C491 C499 1.503 . S
C492 C491 1.410 . S
C492 C493 1.392 . S
C492 C495 1.511 . S
C493 C489 1.376 . S
C493 C492 1.392 . S
C493 H505 0.929 . S
C494 C490 1.531 . S
C494 H506 0.960 . S
C494 H507 0.962 . S
C494 H508 0.960 . S
C495 C492 1.511 . S
C495 H509 0.961 . S
C495 H510 0.961 . S
C495 H511 0.961 . S
C496 C497 1.370 . S
C496 C498 1.363 . S
C496 H512 0.931 . S
C497 C496 1.370 . S
C497 C501 1.408 . S
C498 C496 1.363 . S
C498 C499 1.370 . S
C498 C502 1.524 . S
C499 C491 1.503 . S
C499 C498 1.370 . S
C499 C500 1.403 . S
C500 C499 1.403 . S
C500 C501 1.404 . S
C500 C503 1.539 . S
C501 C497 1.408 . S
C501 C500 1.404 . S
C501 H513 0.930 . S
C502 C498 1.524 . S
C502 H514 0.956 . S
C502 H515 0.961 . S
C502 H516 0.961 . S
C503 C500 1.539 . S
C503 H517 0.958 . S
C503 H518 0.961 . S
C503 H519 0.960 . S
H504 C488 0.931 . S
H505 C493 0.929 . S
H506 C494 0.960 . S
H507 C494 0.962 . S
H508 C494 0.960 . S
H509 C495 0.961 . S
H510 C495 0.961 . S
H511 C495 0.961 . S
H512 C496 0.931 . S
H513 C501 0.930 . S
H514 C502 0.956 . S
H515 C502 0.961 . S
H516 C502 0.961 . S
H517 C503 0.958 . S
H518 C503 0.961 . S
H519 C503 0.960 . S
C520 C521 1.391 . S
C520 C522 1.394 . S
C520 H536 0.931 . S
C521 C520 1.391 . S
C521 C525 1.376 . S
C522 C520 1.394 . S
C522 C523 1.369 . S
C522 C526 1.531 . S
C523 C522 1.369 . S
C523 C524 1.410 . S
C523 C531 1.503 . S
C524 C523 1.410 . S
C524 C525 1.392 . S
C524 C527 1.511 . S
C525 C521 1.376 . S
C525 C524 1.392 . S
C525 H537 0.929 . S
C526 C522 1.531 . S
C526 H538 0.960 . S
C526 H539 0.962 . S
C526 H540 0.960 . S
C527 C524 1.511 . S
C527 H541 0.961 . S
C527 H542 0.961 . S
C527 H543 0.961 . S
C528 C529 1.370 . S
C528 C530 1.363 . S
C528 H544 0.931 . S
C529 C528 1.370 . S
C529 C533 1.408 . S
C530 C528 1.363 . S
C530 C531 1.370 . S
C530 C534 1.524 . S
C531 C523 1.503 . S
C531 C530 1.370 . S
C531 C532 1.403 . S
C532 C531 1.403 . S
C532 C533 1.404 . S
C532 C535 1.539 . S
C533 C529 1.408 . S
C533 C532 1.404 . S
C533 H545 0.930 . S
C534 C530 1.524 . S
C534 H546 0.956 . S
C534 H547 0.961 . S
C534 H548 0.961 . S
C535 C532 1.539 . S
C535 H549 0.958 . S
C535 H550 0.961 . S
C535 H551 0.960 . S
H536 C520 0.931 . S
H537 C525 0.929 . S
H538 C526 0.960 . S
H539 C526 0.962 . S
H540 C526 0.960 . S
H541 C527 0.961 . S
H542 C527 0.961 . S
H543 C527 0.961 . S
H544 C528 0.931 . S
H545 C533 0.930 . S
H546 C534 0.956 . S
H547 C534 0.961 . S
H548 C534 0.961 . S
H549 C535 0.958 . S
H550 C535 0.961 . S
H551 C535 0.960 . S
C552 C553 1.391 1_455 S
C552 C554 1.394 . S
C552 H568 0.931 . S
C553 C552 1.391 1_655 S
C553 C557 1.376 . S
C554 C552 1.394 . S
C554 C555 1.369 . S
C554 C558 1.531 . S
C555 C554 1.369 . S
C555 C556 1.410 1_455 S
C555 C563 1.503 . S
C556 C555 1.410 1_655 S
C556 C557 1.392 . S
C556 C559 1.511 . S
C557 C553 1.376 . S
C557 C556 1.392 . S
C557 H569 0.929 . S
C558 C554 1.531 . S
C558 H570 0.960 . S
C558 H571 0.962 . S
C558 H572 0.960 . S
C559 C556 1.511 . S
C559 H573 0.961 . S
C559 H574 0.961 . S
C559 H575 0.961 . S
C560 C561 1.370 . S
C560 C562 1.363 . S
C560 H576 0.931 . S
C561 C560 1.370 . S
C561 C565 1.408 . S
C562 C560 1.363 . S
C562 C563 1.370 . S
C562 C566 1.524 . S
C563 C555 1.503 . S
C563 C562 1.370 . S
C563 C564 1.403 1_455 S
C564 C563 1.403 1_655 S
C564 C565 1.404 1_655 S
C564 C567 1.539 . S
C565 C561 1.408 . S
C565 C564 1.404 1_455 S
C565 H577 0.930 1_455 S
C566 C562 1.524 . S
C566 H578 0.956 . S
C566 H579 0.961 . S
C566 H580 0.961 . S
C567 C564 1.539 . S
C567 H581 0.958 . S
C567 H582 0.961 . S
C567 H583 0.960 . S
H568 C552 0.931 . S
H569 C557 0.929 . S
H570 C558 0.960 . S
H571 C558 0.962 . S
H572 C558 0.960 . S
H573 C559 0.961 . S
H574 C559 0.961 . S
H575 C559 0.961 . S
H576 C560 0.931 . S
H577 C565 0.930 1_655 S
H578 C566 0.956 . S
H579 C566 0.961 . S
H580 C566 0.961 . S
H581 C567 0.958 . S
H582 C567 0.961 . S
H583 C567 0.960 . S
C584 C585 1.391 . S
C584 C586 1.394 . S
C584 H600 0.931 . S
C585 C584 1.391 . S
C585 C589 1.376 . S
C586 C584 1.394 . S
C586 C587 1.369 . S
C586 C590 1.531 1_565 S
C587 C586 1.369 . S
C587 C588 1.410 . S
C587 C595 1.503 . S
C588 C587 1.410 . S
C588 C589 1.392 . S
C588 C591 1.511 . S
C589 C585 1.376 . S
C589 C588 1.392 . S
C589 H601 0.929 1_556 S
C590 C586 1.531 1_545 S
C590 H602 0.960 . S
C590 H603 0.962 . S
C590 H604 0.960 . S
C591 C588 1.511 . S
C591 H605 0.961 1_556 S
C591 H606 0.961 . S
C591 H607 0.961 . S
C592 C593 1.370 . S
C592 C594 1.363 . S
C592 H608 0.931 . S
C593 C592 1.370 . S
C593 C597 1.408 1_545 S
C594 C592 1.363 . S
C594 C595 1.370 1_545 S
C594 C598 1.524 . S
C595 C587 1.503 . S
C595 C594 1.370 1_565 S
C595 C596 1.403 . S
C596 C595 1.403 . S
C596 C597 1.404 . S
C596 C599 1.539 . S
C597 C593 1.408 1_565 S
C597 C596 1.404 . S
C597 H609 0.930 . S
C598 C594 1.524 . S
C598 H610 0.956 . S
C598 H611 0.961 . S
C598 H612 0.961 . S
C599 C596 1.539 . S
C599 H613 0.958 . S
C599 H614 0.961 . S
C599 H615 0.960 . S
H600 C584 0.931 . S
H601 C589 0.929 1_554 S
H602 C590 0.960 . S
H603 C590 0.962 . S
H604 C590 0.960 . S
H605 C591 0.961 1_554 S
H606 C591 0.961 . S
H607 C591 0.961 . S
H608 C592 0.931 . S
H609 C597 0.930 . S
H610 C598 0.956 . S
H611 C598 0.961 . S
H612 C598 0.961 . S
H613 C599 0.958 . S
H614 C599 0.961 . S
H615 C599 0.960 . S
C616 C617 1.391 . S
C616 C618 1.394 . S
C616 H632 0.931 . S
C617 C616 1.391 . S
C617 C621 1.376 . S
C618 C616 1.394 . S
C618 C619 1.369 . S
C618 C622 1.531 . S
C619 C618 1.369 . S
C619 C620 1.410 . S
C619 C627 1.503 . S
C620 C619 1.410 . S
C620 C621 1.392 . S
C620 C623 1.511 . S
C621 C617 1.376 . S
C621 C620 1.392 . S
C621 H633 0.929 . S
C622 C618 1.531 . S
C622 H634 0.960 . S
C622 H635 0.962 . S
C622 H636 0.960 . S
C623 C620 1.511 . S
C623 H637 0.961 . S
C623 H638 0.961 . S
C623 H639 0.961 . S
C624 C625 1.370 . S
C624 C626 1.363 . S
C624 H640 0.931 . S
C625 C624 1.370 . S
C625 C629 1.408 . S
C626 C624 1.363 . S
C626 C627 1.370 . S
C626 C630 1.524 . S
C627 C619 1.503 . S
C627 C626 1.370 . S
C627 C628 1.403 . S
C628 C627 1.403 . S
C628 C629 1.404 . S
C628 C631 1.539 . S
C629 C625 1.408 . S
C629 C628 1.404 . S
C629 H641 0.930 . S
C630 C626 1.524 . S
C630 H642 0.956 . S
C630 H643 0.961 . S
C630 H644 0.961 . S
C631 C628 1.539 . S
C631 H645 0.958 . S
C631 H646 0.961 . S
C631 H647 0.960 . S
H632 C616 0.931 . S
H633 C621 0.929 . S
H634 C622 0.960 . S
H635 C622 0.962 . S
H636 C622 0.960 . S
H637 C623 0.961 . S
H638 C623 0.961 . S
H639 C623 0.961 . S
H640 C624 0.931 . S
H641 C629 0.930 . S
H642 C630 0.956 . S
H643 C630 0.961 . S
H644 C630 0.961 . S
H645 C631 0.958 . S
H646 C631 0.961 . S
H647 C631 0.960 . S
C648 C649 1.391 . S
C648 C650 1.394 . S
C648 H664 0.931 . S
C649 C648 1.391 . S
C649 C653 1.376 . S
C650 C648 1.394 . S
C650 C651 1.369 . S
C650 C654 1.531 . S
C651 C650 1.369 . S
C651 C652 1.410 . S
C651 C659 1.503 . S
C652 C651 1.410 . S
C652 C653 1.392 . S
C652 C655 1.511 . S
C653 C649 1.376 . S
C653 C652 1.392 . S
C653 H665 0.929 1_556 S
C654 C650 1.531 . S
C654 H666 0.960 . S
C654 H667 0.962 . S
C654 H668 0.960 . S
C655 C652 1.511 . S
C655 H669 0.961 1_556 S
C655 H670 0.961 . S
C655 H671 0.961 . S
C656 C657 1.370 . S
C656 C658 1.363 . S
C656 H672 0.931 . S
C657 C656 1.370 . S
C657 C661 1.408 . S
C658 C656 1.363 . S
C658 C659 1.370 . S
C658 C662 1.524 . S
C659 C651 1.503 . S
C659 C658 1.370 . S
C659 C660 1.403 . S
C660 C659 1.403 . S
C660 C661 1.404 . S
C660 C663 1.539 . S
C661 C657 1.408 . S
C661 C660 1.404 . S
C661 H673 0.930 . S
C662 C658 1.524 . S
C662 H674 0.956 . S
C662 H675 0.961 . S
C662 H676 0.961 . S
C663 C660 1.539 . S
C663 H677 0.958 . S
C663 H678 0.961 . S
C663 H679 0.960 . S
H664 C648 0.931 . S
H665 C653 0.929 1_554 S
H666 C654 0.960 . S
H667 C654 0.962 . S
H668 C654 0.960 . S
H669 C655 0.961 1_554 S
H670 C655 0.961 . S
H671 C655 0.961 . S
H672 C656 0.931 . S
H673 C661 0.930 . S
H674 C662 0.956 . S
H675 C662 0.961 . S
H676 C662 0.961 . S
H677 C663 0.958 . S
H678 C663 0.961 . S
H679 C663 0.960 . S
C680 C681 1.391 1_556 S
C680 C682 1.394 . S
C680 H696 0.931 . S
C681 C680 1.391 1_554 S
C681 C685 1.376 . S
C682 C680 1.394 . S
C682 C683 1.369 . S
C682 C686 1.531 . S
C683 C682 1.369 . S
C683 C684 1.410 1_556 S
C683 C691 1.503 . S
C684 C683 1.410 1_554 S
C684 C685 1.392 . S
C684 C687 1.511 . S
C685 C681 1.376 . S
C685 C684 1.392 . S
C685 H697 0.929 . S
C686 C682 1.531 . S
C686 H698 0.960 . S
C686 H699 0.962 . S
C686 H700 0.960 . S
C687 C684 1.511 . S
C687 H701 0.961 1_455 S
C687 H702 0.961 1_455 S
C687 H703 0.961 . S
C688 C689 1.402 . S
C688 C690 1.366 . S
C688 H704 0.897 1_455 S
C689 C688 1.402 . S
C689 C693 1.408 . S
C690 C688 1.366 . S
C690 C691 1.370 . S
C690 C694 1.524 1_455 S
C691 C683 1.503 . S
C691 C690 1.370 . S
C691 C692 1.403 . S
C692 C691 1.403 . S
C692 C693 1.404 . S
C692 C695 1.539 . S
C693 C689 1.408 . S
C693 C692 1.404 . S
C693 H705 0.930 . S
C694 C690 1.524 1_655 S
C694 H706 0.956 . S
C694 H707 0.961 . S
C694 H708 0.961 . S
C695 C692 1.539 . S
C695 H709 0.958 . S
C695 H710 0.961 . S
C695 H711 0.960 . S
H696 C680 0.931 . S
H697 C685 0.929 . S
H698 C686 0.960 . S
H699 C686 0.962 . S
H700 C686 0.960 . S
H701 C687 0.961 1_655 S
H702 C687 0.961 1_655 S
H703 C687 0.961 . S
H704 C688 0.897 1_655 S
H705 C693 0.930 . S
H706 C694 0.956 . S
H707 C694 0.961 . S
H708 C694 0.961 . S
H709 C695 0.958 . S
H710 C695 0.961 . S
H711 C695 0.960 . S
C712 C713 1.391 . S
C712 C714 1.394 1_554 S
C712 H728 0.931 . S
C713 C712 1.391 . S
C713 C717 1.376 1_554 S
C714 C712 1.394 1_556 S
C714 C715 1.369 . S
C714 C718 1.531 . S
C715 C714 1.369 . S
C715 C716 1.410 . S
C715 C723 1.503 . S
C716 C715 1.410 . S
C716 C717 1.392 . S
C716 C719 1.511 1_545 S
C717 C713 1.376 1_556 S
C717 C716 1.392 . S
C717 H729 0.929 . S
C718 C714 1.531 . S
C718 H730 0.960 . S
C718 H731 0.962 . S
C718 H732 0.960 1_556 S
C719 C716 1.511 1_565 S
C719 H733 0.961 . S
C719 H734 0.961 . S
C719 H735 0.961 . S
C720 C721 1.370 . S
C720 C722 1.363 . S
C720 H736 0.931 . S
C721 C720 1.370 . S
C721 C725 1.408 . S
C722 C720 1.363 . S
C722 C723 1.370 . S
C722 C726 1.524 . S
C723 C715 1.503 . S
C723 C722 1.370 . S
C723 C724 1.403 . S
C724 C723 1.403 . S
C724 C725 1.404 . S
C724 C727 1.539 1_556 S
C725 C721 1.408 . S
C725 C724 1.404 . S
C725 H737 0.930 . S
C726 C722 1.524 . S
C726 H738 0.956 . S
C726 H739 0.961 . S
C726 H740 0.961 . S
C727 C724 1.539 1_554 S
C727 H741 0.958 . S
C727 H742 0.961 . S
C727 H743 0.960 . S
H728 C712 0.931 . S
H729 C717 0.929 . S
H730 C718 0.960 . S
H731 C718 0.962 . S
H732 C718 0.960 1_554 S
H733 C719 0.961 . S
H734 C719 0.961 . S
H735 C719 0.961 . S
H736 C720 0.931 . S
H737 C725 0.930 . S
H738 C726 0.956 . S
H739 C726 0.961 . S
H740 C726 0.961 . S
H741 C727 0.958 . S
H742 C727 0.961 . S
H743 C727 0.960 . S
C744 C745 1.391 . S
C744 C746 1.394 . S
C744 H760 0.931 . S
C745 C744 1.391 . S
C745 C749 1.376 1_554 S
C746 C744 1.394 . S
C746 C747 1.369 1_554 S
C746 C750 1.531 . S
C747 C746 1.369 1_556 S
C747 C748 1.410 . S
C747 C755 1.503 . S
C748 C747 1.410 . S
C748 C749 1.392 . S
C748 C751 1.511 . S
C749 C745 1.376 1_556 S
C749 C748 1.392 . S
C749 H761 0.929 . S
C750 C746 1.531 . S
C750 H762 0.960 . S
C750 H763 0.962 . S
C750 H764 0.960 . S
C751 C748 1.511 . S
C751 H765 0.961 . S
C751 H766 0.961 . S
C751 H767 0.961 . S
C752 C753 1.370 . S
C752 C754 1.363 . S
C752 H768 0.931 . S
C753 C752 1.370 . S
C753 C757 1.408 . S
C754 C752 1.363 . S
C754 C755 1.370 . S
C754 C758 1.524 . S
C755 C747 1.503 . S
C755 C754 1.370 . S
C755 C756 1.403 . S
C756 C755 1.403 . S
C756 C757 1.404 . S
C756 C759 1.539 . S
C757 C753 1.408 . S
C757 C756 1.404 . S
C757 H769 0.930 . S
C758 C754 1.524 . S
C758 H770 0.956 . S
C758 H771 0.961 . S
C758 H772 0.961 . S
C759 C756 1.539 . S
C759 H773 0.958 . S
C759 H774 0.961 . S
C759 H775 0.960 . S
H760 C744 0.931 . S
H761 C749 0.929 . S
H762 C750 0.960 . S
H763 C750 0.962 . S
H764 C750 0.960 . S
H765 C751 0.961 . S
H766 C751 0.961 . S
H767 C751 0.961 . S
H768 C752 0.931 . S
H769 C757 0.930 . S
H770 C758 0.956 . S
H771 C758 0.961 . S
H772 C758 0.961 . S
H773 C759 0.958 . S
H774 C759 0.961 . S
H775 C759 0.960 . S
C776 C777 1.391 1_556 S
C776 C778 1.394 . S
C776 H792 0.931 . S
C777 C776 1.391 1_554 S
C777 C781 1.376 . S
C778 C776 1.394 . S
C778 C779 1.369 . S
C778 C782 1.531 . S
C779 C778 1.369 . S
C779 C780 1.410 1_556 S
C779 C787 1.503 . S
C780 C779 1.410 1_554 S
C780 C781 1.392 . S
C780 C783 1.511 . S
C781 C777 1.376 . S
C781 C780 1.392 . S
C781 H793 0.929 . S
C782 C778 1.531 . S
C782 H794 0.960 . S
C782 H795 0.962 . S
C782 H796 0.960 . S
C783 C780 1.511 . S
C783 H797 0.961 . S
C783 H798 0.961 . S
C783 H799 0.961 . S
C784 C785 1.370 . S
C784 C786 1.363 . S
C784 H800 0.931 . S
C785 C784 1.370 . S
C785 C789 1.408 . S
C786 C784 1.363 . S
C786 C787 1.370 . S
C786 C790 1.524 . S
C787 C779 1.503 . S
C787 C786 1.370 . S
C787 C788 1.403 . S
C788 C787 1.403 . S
C788 C789 1.404 . S
C788 C791 1.539 . S
C789 C785 1.408 . S
C789 C788 1.404 . S
C789 H801 0.930 . S
C790 C786 1.524 . S
C790 H802 0.956 . S
C790 H803 0.961 . S
C790 H804 0.961 . S
C791 C788 1.539 . S
C791 H805 0.958 . S
C791 H806 0.961 . S
C791 H807 0.960 . S
H792 C776 0.931 . S
H793 C781 0.929 . S
H794 C782 0.960 . S
H795 C782 0.962 . S
H796 C782 0.960 . S
H797 C783 0.961 . S
H798 C783 0.961 . S
H799 C783 0.961 . S
H800 C784 0.931 . S
H801 C789 0.930 . S
H802 C790 0.956 . S
H803 C790 0.961 . S
H804 C790 0.961 . S
H805 C791 0.958 . S
H806 C791 0.961 . S
H807 C791 0.960 . S
C808 C809 1.391 1_455 S
C808 C810 1.394 . S
C808 H824 0.931 . S
C809 C808 1.391 1_655 S
C809 C813 1.376 . S
C810 C808 1.394 . S
C810 C811 1.369 1_455 S
C810 C814 1.531 . S
C811 C810 1.369 1_655 S
C811 C812 1.410 . S
C811 C819 1.503 . S
C812 C811 1.410 . S
C812 C813 1.392 . S
C812 C815 1.511 . S
C813 C809 1.376 . S
C813 C812 1.392 . S
C813 H825 0.929 . S
C814 C810 1.531 . S
C814 H826 0.960 . S
C814 H827 0.962 . S
C814 H828 0.960 . S
C815 C812 1.511 . S
C815 H829 0.961 . S
C815 H830 0.961 . S
C815 H831 0.961 . S
C816 C817 1.370 1_455 S
C816 C818 1.363 . S
C816 H832 0.931 . S
C817 C816 1.370 1_655 S
C817 C821 1.408 . S
C818 C816 1.363 . S
C818 C819 1.370 1_455 S
C818 C822 1.524 . S
C819 C811 1.503 . S
C819 C818 1.370 1_655 S
C819 C820 1.403 . S
C820 C819 1.403 . S
C820 C821 1.404 . S
C820 C823 1.539 . S
C821 C817 1.408 . S
C821 C820 1.404 . S
C821 H833 0.930 . S
C822 C818 1.524 . S
C822 H834 0.956 . S
C822 H835 0.961 . S
C822 H836 0.961 . S
C823 C820 1.539 . S
C823 H837 0.958 . S
C823 H838 0.961 . S
C823 H839 0.960 . S
H824 C808 0.931 . S
H825 C813 0.929 . S
H826 C814 0.960 . S
H827 C814 0.962 . S
H828 C814 0.960 . S
H829 C815 0.961 . S
H830 C815 0.961 . S
H831 C815 0.961 . S
H832 C816 0.931 . S
H833 C821 0.930 . S
H834 C822 0.956 . S
H835 C822 0.961 . S
H836 C822 0.961 . S
H837 C823 0.958 . S
H838 C823 0.961 . S
H839 C823 0.960 . S
C840 C841 1.391 . S
C840 C842 1.394 . S
C840 H856 0.931 . S
C841 C840 1.391 . S
C841 C845 1.376 . S
C842 C840 1.394 . S
C842 C843 1.369 . S
C842 C846 1.531 1_565 S
C843 C842 1.369 . S
C843 C844 1.410 . S
C843 C851 1.503 . S
C844 C843 1.410 . S
C844 C845 1.392 . S
C844 C847 1.511 . S
C845 C841 1.376 . S
C845 C844 1.392 . S
C845 H857 0.929 . S
C846 C842 1.531 1_545 S
C846 H858 0.960 . S
C846 H859 0.960 1_545 S
C846 H860 0.960 . S
C847 C844 1.511 . S
C847 H861 0.961 . S
C847 H862 0.961 . S
C847 H863 0.961 . S
C848 C849 1.370 . S
C848 C850 1.363 . S
C848 H864 0.931 . S
C849 C848 1.370 . S
C849 C853 1.408 1_565 S
C850 C848 1.363 . S
C850 C851 1.370 . S
C850 C854 1.524 . S
C851 C843 1.503 . S
C851 C850 1.370 . S
C851 C852 1.403 1_565 S
C852 C851 1.403 1_545 S
C852 C853 1.404 . S
C852 C855 1.539 . S
C853 C849 1.408 1_545 S
C853 C852 1.404 . S
C853 H865 0.930 . S
C854 C850 1.524 . S
C854 H866 0.956 . S
C854 H867 0.961 . S
C854 H868 0.961 . S
C855 C852 1.539 . S
C855 H869 0.958 . S
C855 H870 0.961 . S
C855 H871 0.960 . S
H856 C840 0.931 . S
H857 C845 0.929 . S
H858 C846 0.960 . S
H859 C846 0.960 1_565 S
H860 C846 0.960 . S
H861 C847 0.961 . S
H862 C847 0.961 . S
H863 C847 0.961 . S
H864 C848 0.931 . S
H865 C853 0.930 . S
H866 C854 0.956 . S
H867 C854 0.961 . S
H868 C854 0.961 . S
H869 C855 0.958 . S
H870 C855 0.961 . S
H871 C855 0.960 . S
C872 C873 1.391 . S
C872 C874 1.394 . S
C872 H888 0.931 . S
C873 C872 1.391 . S
C873 C877 1.376 . S
C874 C872 1.394 . S
C874 C875 1.369 . S
C874 C878 1.531 . S
C875 C874 1.369 . S
C875 C876 1.410 . S
C875 C883 1.503 . S
C876 C875 1.410 . S
C876 C877 1.392 . S
C876 C879 1.511 . S
C877 C873 1.376 . S
C877 C876 1.392 . S
C877 H889 0.929 . S
C878 C874 1.531 . S
C878 H890 0.960 . S
C878 H891 0.962 . S
C878 H892 0.960 . S
C879 C876 1.511 . S
C879 H893 0.961 . S
C879 H894 0.961 . S
C879 H895 0.961 . S
C880 C881 1.370 . S
C880 C882 1.363 . S
C880 H896 0.931 . S
C881 C880 1.370 . S
C881 C885 1.408 . S
C882 C880 1.363 . S
C882 C883 1.370 . S
C882 C886 1.524 . S
C883 C875 1.503 . S
C883 C882 1.370 . S
C883 C884 1.403 . S
C884 C883 1.403 . S
C884 C885 1.404 . S
C884 C887 1.539 . S
C885 C881 1.408 . S
C885 C884 1.404 . S
C885 H897 0.930 . S
C886 C882 1.524 . S
C886 H898 0.956 . S
C886 H899 0.961 . S
C886 H900 0.961 . S
C887 C884 1.539 . S
C887 H901 0.958 . S
C887 H902 0.961 . S
C887 H903 0.960 . S
H888 C872 0.931 . S
H889 C877 0.929 . S
H890 C878 0.960 . S
H891 C878 0.962 . S
H892 C878 0.960 . S
H893 C879 0.961 . S
H894 C879 0.961 . S
H895 C879 0.961 . S
H896 C880 0.931 . S
H897 C885 0.930 . S
H898 C886 0.956 . S
H899 C886 0.961 . S
H900 C886 0.961 . S
H901 C887 0.958 . S
H902 C887 0.961 . S
H903 C887 0.960 . S
C904 C905 1.391 . S
C904 C906 1.394 . S
C904 H920 0.931 . S
C905 C904 1.391 . S
C905 C909 1.376 . S
C906 C904 1.394 . S
C906 C907 1.369 . S
C906 C910 1.531 . S
C907 C906 1.369 . S
C907 C908 1.410 . S
C907 C915 1.503 . S
C908 C907 1.410 . S
C908 C909 1.392 . S
C908 C911 1.511 . S
C909 C905 1.376 . S
C909 C908 1.392 . S
C909 H921 0.929 . S
C910 C906 1.531 . S
C910 H922 0.960 . S
C910 H923 0.962 . S
C910 H924 0.960 . S
C911 C908 1.511 . S
C911 H925 0.961 . S
C911 H926 0.961 . S
C911 H927 0.961 . S
C912 C913 1.370 . S
C912 C914 1.363 . S
C912 H928 0.931 . S
C913 C912 1.370 . S
C913 C917 1.408 . S
C914 C912 1.363 . S
C914 C915 1.370 . S
C914 C918 1.524 . S
C915 C907 1.503 . S
C915 C914 1.370 . S
C915 C916 1.403 . S
C916 C915 1.403 . S
C916 C917 1.404 . S
C916 C919 1.539 . S
C917 C913 1.408 . S
C917 C916 1.404 . S
C917 H929 0.930 . S
C918 C914 1.524 . S
C918 H930 0.956 . S
C918 H931 0.961 . S
C918 H932 0.961 . S
C919 C916 1.539 . S
C919 H933 0.958 . S
C919 H934 0.961 . S
C919 H935 0.960 . S
H920 C904 0.931 . S
H921 C909 0.929 . S
H922 C910 0.960 . S
H923 C910 0.962 . S
H924 C910 0.960 . S
H925 C911 0.961 . S
H926 C911 0.961 . S
H927 C911 0.961 . S
H928 C912 0.931 . S
H929 C917 0.930 . S
H930 C918 0.956 . S
H931 C918 0.961 . S
H932 C918 0.961 . S
H933 C919 0.958 . S
H934 C919 0.961 . S
H935 C919 0.960 . S
C169 C74 1.505 . S
C177 C106 1.487 . S
C209 C126 1.388 . S
C201 C85 1.399 . S
C241 C146 1.526 . S
C233 C52 1.513 . S
C273 C166 1.433 . S
C265 C63 1.412 . S
C305 C107 1.510 1_565 S
C297 C30 1.462 . S
C329 C41 1.439 . S
C337 C127 1.403 . S
C361 C8 1.499 . S
C369 C147 1.485 . S
C393 C19 1.439 . S
C401 C167 1.401 . S
C433 C97 0.871 1_655 S
C425 C62 0.892 . S
C465 C117 0.934 . S
C457 C73 0.970 . S
C497 C137 0.893 . S
C489 C84 0.917 . S
C521 C51 0.908 . S
C529 C157 0.870 . S
C553 C18 0.904 . S
C561 C100 0.857 . S
C593 C120 0.902 . S
C585 C29 0.969 . S
C625 C140 0.877 . S
C617 C40 0.928 . S
C649 C7 0.937 . S
C657 C160 0.858 . S
C681 C60 1.215 . S
C689 C90 1.469 . S
C713 C71 1.325 . S
C721 C110 1.477 . S
C753 C130 1.415 . S
C745 C82 1.313 . S
C785 C150 1.550 . S
C777 C49 1.348 . S
C809 C16 1.332 1_655 S
C817 C92 1.484 1_655 S
C849 C112 1.473 . S
C841 C27 1.167 . S
C881 C132 1.422 . S
C873 C38 1.280 . S
C905 C5 1.315 . S
C913 C152 1.518 . S
