# Generated by pormake.
# Topology llj, (12,3)-cn, num edge types: 1
# Building blocks:
#     Node 0, Type 0, BuildingBlock: QEWDON_clean_sbu_0, # of connection points: 12
#     Node 1, Type 0, BuildingBlock: QEWDON_clean_sbu_0, # of connection points: 12
#     Node 2, Type 1, BuildingBlock: OLANEW_clean_sbu_2, # of connection points: 3
#     Node 3, Type 1, BuildingBlock: OLANEW_clean_sbu_2, # of connection points: 3
#     Node 4, Type 1, BuildingBlock: OLANEW_clean_sbu_2, # of connection points: 3
#     Node 5, Type 1, BuildingBlock: OLANEW_clean_sbu_2, # of connection points: 3
#     Node 6, Type 1, BuildingBlock: OLANEW_clean_sbu_2, # of connection points: 3
#     Node 7, Type 1, BuildingBlock: OLANEW_clean_sbu_2, # of connection points: 3
#     Node 8, Type 1, BuildingBlock: OLANEW_clean_sbu_2, # of connection points: 3
#     Node 9, Type 1, BuildingBlock: OLANEW_clean_sbu_2, # of connection points: 3
#     Edge 10, Type (0, 1), BuildingBlock: CIFDUS_clean_linker_0, # of connection points: 2
#     Edge 11, Type (0, 1), BuildingBlock: CIFDUS_clean_linker_0, # of connection points: 2
#     Edge 12, Type (0, 1), BuildingBlock: CIFDUS_clean_linker_0, # of connection points: 2
#     Edge 13, Type (0, 1), BuildingBlock: CIFDUS_clean_linker_0, # of connection points: 2
#     Edge 14, Type (0, 1), BuildingBlock: CIFDUS_clean_linker_0, # of connection points: 2
#     Edge 15, Type (0, 1), BuildingBlock: CIFDUS_clean_linker_0, # of connection points: 2
#     Edge 16, Type (0, 1), BuildingBlock: CIFDUS_clean_linker_0, # of connection points: 2
#     Edge 17, Type (0, 1), BuildingBlock: CIFDUS_clean_linker_0, # of connection points: 2
#     Edge 18, Type (0, 1), BuildingBlock: CIFDUS_clean_linker_0, # of connection points: 2
#     Edge 19, Type (0, 1), BuildingBlock: CIFDUS_clean_linker_0, # of connection points: 2
#     Edge 20, Type (0, 1), BuildingBlock: CIFDUS_clean_linker_0, # of connection points: 2
#     Edge 21, Type (0, 1), BuildingBlock: CIFDUS_clean_linker_0, # of connection points: 2
#     Edge 22, Type (0, 1), BuildingBlock: CIFDUS_clean_linker_0, # of connection points: 2
#     Edge 23, Type (0, 1), BuildingBlock: CIFDUS_clean_linker_0, # of connection points: 2
#     Edge 24, Type (0, 1), BuildingBlock: CIFDUS_clean_linker_0, # of connection points: 2
#     Edge 25, Type (0, 1), BuildingBlock: CIFDUS_clean_linker_0, # of connection points: 2
#     Edge 26, Type (0, 1), BuildingBlock: CIFDUS_clean_linker_0, # of connection points: 2
#     Edge 27, Type (0, 1), BuildingBlock: CIFDUS_clean_linker_0, # of connection points: 2
#     Edge 28, Type (0, 1), BuildingBlock: CIFDUS_clean_linker_0, # of connection points: 2
#     Edge 29, Type (0, 1), BuildingBlock: CIFDUS_clean_linker_0, # of connection points: 2
#     Edge 30, Type (0, 1), BuildingBlock: CIFDUS_clean_linker_0, # of connection points: 2
#     Edge 31, Type (0, 1), BuildingBlock: CIFDUS_clean_linker_0, # of connection points: 2
#     Edge 32, Type (0, 1), BuildingBlock: CIFDUS_clean_linker_0, # of connection points: 2
#     Edge 33, Type (0, 1), BuildingBlock: CIFDUS_clean_linker_0, # of connection points: 2
# Relax obj value: 0.013
# Max RMSD: 0.102
# Mean RMSD: 0.082
data_MOF--net-llj--node1-QEWDON_clean_sbu_0--node2-OLANEW_clean_sbu_2--edge1-CIFDUS_clean_linker_0
_symmetry_space_group_name_H-M    P1
_symmetry_Int_Tables_number       1
_symmetry_cell_setting            triclinic
loop_
_symmetry_equiv_pos_as_xyz
'x, y, z'
_cell_length_a     37.222709
_cell_length_b     37.235602
_cell_length_c     23.158983
_cell_angle_alpha  87.956719
_cell_angle_beta   92.506784
_cell_angle_gamma 89.905849
loop_
_atom_site_label
_atom_site_type_symbol
_atom_site_fract_x
_atom_site_fract_y
_atom_site_fract_z
_atom_type_partial_charge
Zn0 Zn 0.9406 0.09815 0.94891 0.0
Zn1 Zn 0.94561 0.09696 0.08095 0.0
O2 O 0.97746 0.09992 0.01485 0.0
H3 H -0.00019 0.113 0.01285 0.0
C4 C 0.83656 0.03896 0.92 0.0
O5 O 0.82552 0.04846 0.97039 0.0
Zn6 Zn 0.05879 0.92402 0.06773 0.0
Zn7 Zn 0.06718 0.91024 0.9319 0.0
O8 O 0.03376 0.93016 0.98968 0.0
H9 H 0.01072 0.94153 0.98087 0.0
Zn10 Zn 0.87868 0.98655 0.99233 0.0
O11 O 0.93219 0.98992 0.01053 0.0
Zn12 Zn 0.93519 0.96243 0.08594 0.0
H13 H 0.94859 0.00774 0.99575 0.0
Zn14 Zn 0.05153 0.03491 0.94756 0.0
O15 O 0.03214 0.01932 0.02457 0.0
H16 H 0.0119 0.00364 0.03059 0.0
Zn17 Zn 0.05497 0.05114 0.08335 0.0
C18 C 0.08999 0.98123 0.88877 0.0
O19 O 0.11299 0.98728 0.93198 0.0
O20 O 0.89428 0.12648 0.96511 0.0
O21 O 0.90137 0.12816 0.06109 0.0
O22 O 0.11366 0.88911 0.97043 0.0
O23 O 0.10624 0.89653 0.06412 0.0
O24 O 0.85656 0.93832 0.01896 0.0
O25 O 0.89822 0.92226 0.08671 0.0
C26 C 0.00577 0.09868 0.15392 0.0
O27 O 0.08991 0.07432 0.95261 0.0
O28 O 0.09033 0.08546 0.04644 0.0
O29 O 0.04579 0.87938 0.86649 0.0
C30 C 0.88393 0.13673 0.01377 0.0
O31 O 0.96712 0.10493 0.87318 0.0
C32 C 0.99392 0.91253 0.12591 0.0
O33 O 0.85874 0.01313 0.918 0.0
C34 C 0.12455 0.88502 0.02317 0.0
O35 O 0.05984 0.99731 0.88648 0.0
C36 C 0.92778 0.03024 0.14324 0.0
O37 O 0.97449 0.11253 0.15172 0.0
O38 O 0.01395 0.0793 0.11243 0.0
C39 C 0.86892 0.91609 0.05805 0.0
O40 O 0.02483 0.89882 0.12095 0.0
O41 O 0.98456 0.93972 0.09388 0.0
C42 C 0.08444 0.98737 0.14047 0.0
O43 O 0.9264 0.99627 0.14986 0.0
O44 O 0.9339 0.04435 0.09386 0.0
C45 C 0.10182 0.0915 0.99591 0.0
O46 O 0.08223 0.02118 0.14536 0.0
O47 O 0.06757 0.97356 0.09776 0.0
C48 C 0.01934 0.88697 0.83162 0.0
O49 O 0.0024 0.91774 0.83524 0.0
C50 C 0.98583 0.07842 0.85862 0.0
O51 O 0.98296 0.04739 0.88685 0.0
Zn52 Zn 0.4824 0.61918 0.4816 0.0
Zn53 Zn 0.44336 0.58744 0.58287 0.0
O54 O 0.468 0.56996 0.51431 0.0
H55 H 0.47948 0.54701 0.51009 0.0
C56 C 0.42476 0.49718 0.36915 0.0
O57 O 0.45468 0.49557 0.40131 0.0
Zn58 Zn 0.52337 0.45141 0.58466 0.0
Zn59 Zn 0.51334 0.43627 0.45148 0.0
O60 O 0.48999 0.46177 0.51628 0.0
H61 H 0.47234 0.48083 0.51239 0.0
Zn62 Zn 0.39889 0.46522 0.47392 0.0
O63 O 0.38832 0.50593 0.52559 0.0
Zn64 Zn 0.39176 0.47659 0.59856 0.0
H65 H 0.37152 0.52528 0.51605 0.0
Zn66 Zn 0.58412 0.55797 0.42515 0.0
O67 O 0.55563 0.53908 0.49148 0.0
H68 H 0.53728 0.52081 0.48912 0.0
Zn69 Zn 0.57047 0.56703 0.56031 0.0
C70 C 0.57226 0.49975 0.34691 0.0
O71 O 0.54022 0.50173 0.36828 0.0
O72 O 0.44398 0.65876 0.48858 0.0
O73 O 0.41315 0.63134 0.55738 0.0
O74 O 0.54774 0.39554 0.48006 0.0
O75 O 0.55283 0.40615 0.574 0.0
O76 O 0.37456 0.41789 0.50044 0.0
O77 O 0.36052 0.43192 0.58966 0.0
C78 C 0.51371 0.59383 0.64076 0.0
O79 O 0.62069 0.59697 0.4481 0.0
O80 O 0.60664 0.60563 0.53913 0.0
O81 O 0.484 0.42838 0.37525 0.0
C82 C 0.4172 0.65746 0.52107 0.0
O83 O 0.52012 0.62355 0.41812 0.0
C84 C 0.46223 0.45623 0.65861 0.0
O85 O 0.39638 0.48339 0.38866 0.0
C86 C 0.56032 0.38754 0.53093 0.0
O87 O 0.59659 0.52136 0.36385 0.0
C88 C 0.39468 0.53986 0.65787 0.0
O89 O 0.48027 0.59879 0.64632 0.0
O90 O 0.5242 0.58525 0.59151 0.0
C91 C 0.35913 0.41052 0.54757 0.0
O92 O 0.49549 0.44906 0.65679 0.0
O93 O 0.44359 0.46097 0.61154 0.0
C94 C 0.58317 0.50241 0.62602 0.0
O95 O 0.37954 0.50933 0.66224 0.0
O96 O 0.41206 0.5469 0.6126 0.0
C97 C 0.62525 0.61332 0.49531 0.0
O98 O 0.59549 0.53391 0.61931 0.0
O99 O 0.55613 0.49387 0.5938 0.0
C100 C 0.46022 0.40401 0.37601 0.0
O101 O 0.45547 0.38561 0.42454 0.0
C102 C 0.5196 0.60257 0.37596 0.0
O103 O 0.49473 0.57765 0.37277 0.0
O104 O 0.3455 0.28849 0.10188 0.0
Cd105 Cd 0.31896 0.27909 0.00562 0.0
O106 O 0.33834 0.34371 0.06988 0.0
Cd107 Cd 0.33899 0.40209 0.05979 0.0
O108 O 0.34311 0.42943 0.97575 0.0
C109 C 0.37247 0.44418 0.9625 0.0
O110 O 0.39827 0.44679 0.0027 0.0
C111 C 0.34908 0.3218 0.11031 0.0
C112 C 0.25824 0.23645 0.01006 0.0
O113 O 0.2884 0.22327 0.99632 0.0
O114 O 0.25678 0.2698 0.02155 0.0
O115 O 0.6268 0.33056 0.89298 0.0
Cd116 Cd 0.6407 0.29373 0.98102 0.0
O117 O 0.66786 0.37188 0.90876 0.0
Cd118 Cd 0.67986 0.35315 0.99756 0.0
O119 O 0.67383 0.37135 0.08496 0.0
C120 C 0.64191 0.37676 0.1001 0.0
O121 O 0.61496 0.36809 0.0648 0.0
C122 C 0.64299 0.35892 0.87651 0.0
C123 C 0.70223 0.25115 0.97544 0.0
O124 O 0.67238 0.24201 0.95059 0.0
O125 O 0.70321 0.28056 0.00254 0.0
O126 O 0.71924 0.64648 0.20296 0.0
Cd127 Cd 0.77245 0.64879 0.14522 0.0
O128 O 0.68675 0.62746 0.1292 0.0
Cd129 Cd 0.63923 0.61278 0.07587 0.0
O130 O 0.60317 0.60343 0.00038 0.0
C131 C 0.61611 0.6044 0.95037 0.0
O132 O 0.65064 0.61056 0.94584 0.0
C133 C 0.68894 0.63666 0.18165 0.0
C134 C 0.79974 0.71843 0.13773 0.0
O135 O 0.77623 0.70747 0.10031 0.0
O136 O 0.81044 0.69635 0.17866 0.0
O137 O 0.36773 0.67851 0.12793 0.0
Cd138 Cd 0.36952 0.73089 0.06141 0.0
O139 O 0.42433 0.66574 0.11413 0.0
Cd140 Cd 0.42398 0.69723 0.0335 0.0
O141 O 0.41324 0.67276 0.95069 0.0
C142 C 0.40013 0.64131 0.95545 0.0
O143 O 0.39348 0.62814 0.00727 0.0
C144 C 0.39574 0.65981 0.14094 0.0
C145 C 0.30354 0.76581 0.04302 0.0
O146 O 0.31357 0.74163 0.00905 0.0
O147 O 0.32455 0.77317 0.08628 0.0
O148 O 0.91919 0.72152 0.65004 0.0
Cd149 Cd 0.89379 0.66836 0.60696 0.0
O150 O 0.89977 0.75473 0.57525 0.0
Cd151 Cd 0.89711 0.8016 0.51599 0.0
O152 O 0.906 0.82724 0.43168 0.0
C153 C 0.91089 0.80622 0.39062 0.0
O154 O 0.90906 0.77137 0.40111 0.0
C155 C 0.91666 0.7521 0.62413 0.0
C156 C 0.81938 0.67239 0.59294 0.0
O157 O 0.83468 0.66145 0.64104 0.0
O158 O 0.83939 0.6819 0.55143 0.0
O159 O 0.1844 0.8764 0.42968 0.0
Cd160 Cd 0.19958 0.84668 0.52347 0.0
O161 O 0.22353 0.9199 0.4432 0.0
Cd162 Cd 0.2381 0.90023 0.53072 0.0
O163 O 0.22242 0.8987 0.62022 0.0
C164 C 0.18878 0.90193 0.62592 0.0
O165 O 0.16748 0.90394 0.57912 0.0
C166 C 0.19928 0.90521 0.41171 0.0
C167 C 0.24998 0.79166 0.52031 0.0
O168 O 0.21622 0.7848 0.51923 0.0
O169 O 0.25984 0.82457 0.52197 0.0
O170 O 0.14111 0.17302 0.62588 0.0
Cd171 Cd 0.17313 0.19199 0.54019 0.0
O172 O 0.15149 0.11506 0.62103 0.0
Cd173 Cd 0.17399 0.12284 0.53653 0.0
O174 O 0.14653 0.12332 0.45167 0.0
C175 C 0.11291 0.1289 0.45378 0.0
O176 O 0.09954 0.13498 0.50412 0.0
C177 C 0.13779 0.14113 0.64646 0.0
C178 C 0.21736 0.25117 0.55949 0.0
O179 O 0.18336 0.25501 0.5503 0.0
O180 O 0.23055 0.21935 0.55994 0.0
O181 O 0.76213 0.14088 0.60078 0.0
Cd182 Cd 0.75017 0.17389 0.50937 0.0
O183 O 0.81556 0.13617 0.56684 0.0
Cd184 Cd 0.87194 0.12118 0.56003 0.0
O185 O 0.90749 0.10191 0.49566 0.0
C186 C 0.9021 0.11714 0.44606 0.0
O187 O 0.87902 0.14392 0.44053 0.0
C188 C 0.79418 0.12926 0.60708 0.0
C189 C 0.69292 0.22133 0.51328 0.0
O190 O 0.68842 0.19034 0.49173 0.0
O191 O 0.72435 0.22964 0.53321 0.0
H192 H 0.11739 0.14945 0.05998 0.0
H193 H 0.15228 0.09127 0.91449 0.0
H194 H 0.20419 0.13088 0.90639 0.0
H195 H 0.24086 0.18068 0.94302 0.0
H196 H 0.20367 0.24182 0.08344 0.0
H197 H 0.15141 0.2024 0.09137 0.0
C198 C 0.1363 0.14562 0.02636 0.0
C199 C 0.13127 0.11738 0.98822 0.0
C200 C 0.1657 0.16885 0.02129 0.0
C201 C 0.1556 0.11292 0.9443 0.0
C202 C 0.18536 0.13541 0.93981 0.0
C203 C 0.22122 0.1853 0.97525 0.0
C204 C 0.2261 0.21369 0.01302 0.0
C205 C 0.19088 0.16319 0.97847 0.0
C206 C 0.20032 0.21999 0.05398 0.0
C207 C 0.17055 0.19748 0.05858 0.0
H208 H 0.82951 0.14459 0.93194 0.0
H209 H 0.86577 0.18077 0.09956 0.0
H210 H 0.81352 0.22036 0.10149 0.0
H211 H 0.75743 0.24486 0.0555 0.0
H212 H 0.7189 0.20549 0.8913 0.0
H213 H 0.77223 0.16732 0.88785 0.0
C214 C 0.82594 0.16111 0.96889 0.0
C215 C 0.85159 0.15981 0.01539 0.0
C216 C 0.79547 0.18333 0.97026 0.0
C217 C 0.84641 0.18117 0.06323 0.0
C218 C 0.81658 0.20391 0.06432 0.0
C219 C 0.76081 0.22795 0.01893 0.0
C220 C 0.73448 0.22813 0.97354 0.0
C221 C 0.79097 0.20527 0.01805 0.0
C222 C 0.73883 0.20574 0.9268 0.0
C223 C 0.76928 0.18389 0.92481 0.0
H224 H 0.88162 0.86659 0.14613 0.0
H225 H 0.8139 0.88782 0.99241 0.0
H226 H 0.78596 0.82901 0.00444 0.0
H227 H 0.78254 0.77054 0.05596 0.0
H228 H 0.84983 0.74934 0.21005 0.0
H229 H 0.87553 0.80943 0.20084 0.0
C230 C 0.86063 0.85846 0.11537 0.0
C231 C 0.8501 0.88156 0.06819 0.0
C232 C 0.84463 0.82454 0.12244 0.0
C233 C 0.82259 0.87065 0.02912 0.0
C234 C 0.80665 0.83693 0.03582 0.0
C235 C 0.80285 0.77901 0.08758 0.0
C236 C 0.81446 0.75529 0.13327 0.0
C237 C 0.81778 0.81349 0.08188 0.0
C238 C 0.84059 0.76689 0.17413 0.0
C239 C 0.85543 0.80123 0.16885 0.0
H240 H 0.15926 0.8414 0.9529 0.0
H241 H 0.16591 0.88362 0.12424 0.0
H242 H 0.222 0.85037 0.14569 0.0
H243 H 0.26931 0.80951 0.11518 0.0
H244 H 0.26054 0.76587 0.94489 0.0
H245 H 0.20496 0.79947 0.92377 0.0
C246 C 0.173 0.84351 0.99492 0.0
C247 C 0.15855 0.8652 0.03674 0.0
C248 C 0.2048 0.82397 0.0072 0.0
C249 C 0.17648 0.86716 0.09123 0.0
C250 C 0.20855 0.84817 0.1035 0.0
C251 C 0.2552 0.80734 0.07349 0.0
C252 C 0.26915 0.78531 0.03159 0.0
C253 C 0.22297 0.82651 0.06176 0.0
C254 C 0.2504 0.78256 0.97795 0.0
C255 C 0.21864 0.80184 0.96574 0.0
H256 H 0.65565 0.63573 0.5963 0.0
H257 H 0.66742 0.64199 0.41158 0.0
H258 H 0.72765 0.6668 0.42589 0.0
H259 H 0.78025 0.67668 0.49111 0.0
H260 H 0.76985 0.66484 0.67571 0.0
H261 H 0.70581 0.65242 0.6612 0.0
C262 C 0.67096 0.64337 0.55902 0.0
C263 C 0.65717 0.63659 0.50294 0.0
C264 C 0.70618 0.65598 0.56765 0.0
C265 C 0.67745 0.64672 0.45522 0.0
C266 C 0.71204 0.66066 0.4634 0.0
C267 C 0.76382 0.67209 0.52819 0.0
C268 C 0.77986 0.6711 0.58435 0.0
C269 C 0.72725 0.66382 0.51947 0.0
C270 C 0.75822 0.66523 0.63198 0.0
C271 C 0.7216 0.65813 0.62374 0.0
H272 H 0.34729 0.65288 0.54812 0.0
H273 H 0.42612 0.72694 0.48284 0.0
H274 H 0.38126 0.77516 0.47691 0.0
H275 H 0.3198 0.79637 0.49161 0.0
H276 H 0.24025 0.72126 0.55148 0.0
H277 H 0.28522 0.67326 0.55795 0.0
C278 C 0.35465 0.67961 0.53271 0.0
C279 C 0.39 0.68645 0.5164 0.0
C280 C 0.3286 0.70694 0.52833 0.0
C281 C 0.39905 0.72103 0.49564 0.0
C282 C 0.37345 0.74861 0.49233 0.0
C283 C 0.31233 0.76947 0.50598 0.0
C284 C 0.27685 0.7624 0.52137 0.0
C285 C 0.33818 0.74188 0.50873 0.0
C286 C 0.2674 0.72735 0.53927 0.0
C287 C 0.29311 0.69993 0.54317 0.0
H288 H 0.29449 0.40016 0.59525 0.0
H289 H 0.37784 0.34566 0.50861 0.0
H290 H 0.34255 0.29032 0.50937 0.0
H291 H 0.28646 0.25849 0.52944 0.0
H292 H 0.20022 0.3148 0.606 0.0
H293 H 0.23796 0.36829 0.61464 0.0
C294 C 0.30499 0.37597 0.57726 0.0
C295 C 0.3387 0.37674 0.55228 0.0
C296 C 0.28389 0.3447 0.57571 0.0
C297 C 0.35189 0.34556 0.52807 0.0
C298 C 0.33174 0.31397 0.52845 0.0
C299 C 0.27613 0.28238 0.54854 0.0
C300 C 0.24076 0.28275 0.56731 0.0
C301 C 0.29749 0.31338 0.55137 0.0
C302 C 0.2274 0.314 0.59114 0.0
C303 C 0.24895 0.34454 0.59612 0.0
H304 H 0.56301 0.32827 0.46693 0.0
H305 H 0.61364 0.37835 0.61456 0.0
H306 H 0.6587 0.33041 0.62346 0.0
H307 H 0.68578 0.27632 0.58534 0.0
H308 H 0.63329 0.22459 0.44093 0.0
H309 H 0.58667 0.27106 0.43483 0.0
C310 C 0.58383 0.32854 0.5012 0.0
C311 C 0.58536 0.35694 0.53956 0.0
C312 C 0.60931 0.30073 0.50646 0.0
C313 C 0.612 0.35673 0.58446 0.0
C314 C 0.63783 0.32944 0.58942 0.0
C315 C 0.66399 0.27517 0.55278 0.0
C316 C 0.66313 0.24743 0.51317 0.0
C317 C 0.63708 0.30165 0.55006 0.0
C318 C 0.6345 0.24578 0.4718 0.0
C319 C 0.60794 0.27238 0.46816 0.0
H320 H 0.98932 0.11952 0.26009 0.0
H321 H 0.07901 0.09168 0.15866 0.0
H322 H 0.12028 0.09879 0.24232 0.0
H323 H 0.13067 0.11224 0.34492 0.0
H324 H 0.04048 0.13995 0.44596 0.0
H325 H -0.00032 0.13378 0.36175 0.0
C326 C 0.01792 0.11517 0.25623 0.0
C327 C 0.03107 0.10458 0.20349 0.0
C328 C 0.04141 0.11938 0.30446 0.0
C329 C 0.06816 0.09905 0.1991 0.0
C330 C 0.0918 0.10339 0.24685 0.0
C331 C 0.10213 0.11714 0.34843 0.0
C332 C 0.08872 0.12659 0.40167 0.0
C333 C 0.07869 0.11337 0.29986 0.0
C334 C 0.0516 0.13269 0.40552 0.0
C335 C 0.02818 0.12915 0.35739 0.0
H336 H 0.95774 0.02004 0.25116 0.0
H337 H 0.88625 0.08954 0.14733 0.0
H338 H 0.8762 0.12609 0.23069 0.0
H339 H 0.88357 0.13485 0.33442 0.0
H340 H 0.95199 0.06322 0.44082 0.0
H341 H 0.96793 0.03114 0.35514 0.0
C342 C 0.94019 0.04337 0.24702 0.0
C343 C 0.92324 0.05275 0.19322 0.0
C344 C 0.93394 0.06366 0.29557 0.0
C345 C 0.90045 0.08278 0.18796 0.0
C346 C 0.89441 0.10334 0.23575 0.0
C347 C 0.90236 0.11253 0.33894 0.0
C348 C 0.91622 0.10117 0.39403 0.0
C349 C 0.91058 0.09368 0.28991 0.0
C350 C 0.94066 0.07228 0.39894 0.0
C351 C 0.94966 0.05384 0.35003 0.0
H352 H 0.97904 0.84276 0.15112 0.0
H353 H 0.96091 0.95026 0.20551 0.0
H354 H 0.92923 0.92716 0.289 0.0
H355 H 0.91275 0.87608 0.35213 0.0
H356 H 0.93433 0.76805 0.30107 0.0
H357 H 0.95896 0.7914 0.21139 0.0
C358 C 0.96741 0.86099 0.18075 0.0
C359 C 0.97078 0.89822 0.17109 0.0
C360 C 0.95061 0.8473 0.22998 0.0
C361 C 0.95648 0.92169 0.21022 0.0
C362 C 0.93919 0.90838 0.25873 0.0
C363 C 0.92247 0.85762 0.32111 0.0
C364 C 0.92206 0.82041 0.33366 0.0
C365 C 0.93679 0.87121 0.26971 0.0
C366 C 0.93454 0.79685 0.29276 0.0
C367 C 0.94873 0.81016 0.24146 0.0
H368 H 0.13641 0.01113 0.21501 0.0
H369 H 0.08185 0.91462 0.16433 0.0
H370 H 0.11446 0.88006 0.24061 0.0
H371 H 0.15556 0.87813 0.32665 0.0
H372 H 0.21155 0.97453 0.37595 0.0
H373 H 0.18177 0.00807 0.29505 0.0
C374 C 0.1317 0.98249 0.22047 0.0
C375 C 0.10606 0.96559 0.18421 0.0
C376 C 0.15096 0.96274 0.26439 0.0
C377 C 0.10093 0.92842 0.19145 0.0
C378 C 0.1197 0.90858 0.23534 0.0
C379 C 0.16159 0.90637 0.31929 0.0
C380 C 0.18547 0.92383 0.35769 0.0
C381 C 0.14433 0.92559 0.27271 0.0
C382 C 0.19327 0.96037 0.34714 0.0
C383 C 0.17609 0.97967 0.30105 0.0
H384 H 0.15426 0.94823 0.87601 0.0
H385 H 0.05023 0.96729 0.79041 0.0
H386 H 0.07061 0.93986 0.70372 0.0
H387 H 0.11976 0.91717 0.64865 0.0
H388 H 0.22506 0.90148 0.73149 0.0
H389 H 0.20229 0.92062 0.82295 0.0
C390 C 0.13591 0.946 0.83863 0.0
C391 C 0.10088 0.96014 0.83954 0.0
C392 C 0.14815 0.93112 0.7882 0.0
C393 C 0.07738 0.95679 0.79087 0.0
C394 C 0.08906 0.94122 0.74111 0.0
C395 C 0.1377 0.91748 0.68682 0.0
C396 C 0.17419 0.90842 0.68302 0.0
C397 C 0.12468 0.92933 0.73874 0.0
C398 C 0.19693 0.90868 0.73309 0.0
C399 C 0.18395 0.9197 0.78537 0.0
H400 H 0.01914 0.14081 0.83132 0.0
H401 H 0.01767 0.02801 0.79514 0.0
H402 H 0.06773 0.03662 0.73094 0.0
H403 H 0.10989 0.07694 0.68195 0.0
H404 H 0.11058 0.18994 0.71809 0.0
H405 H 0.06319 0.18037 0.78639 0.0
C406 C 0.02955 0.11818 0.80894 0.0
C407 C 0.01454 0.08389 0.81731 0.0
C408 C 0.0584 0.12332 0.77265 0.0
C409 C 0.0288 0.05466 0.78912 0.0
C410 C 0.05742 0.05958 0.75257 0.0
C411 C 0.10012 0.09939 0.70545 0.0
C412 C 0.11367 0.13415 0.69467 0.0
C413 C 0.07231 0.09385 0.74381 0.0
C414 C 0.10055 0.16294 0.72538 0.0
C415 C 0.07329 0.15755 0.7642 0.0
H416 H 0.8618 0.03243 0.81272 0.0
H417 H 0.78285 0.08911 0.9063 0.0
H418 H 0.76219 0.1212 0.81703 0.0
H419 H 0.76771 0.13442 0.71324 0.0
H420 H 0.84581 0.07681 0.61975 0.0
H421 H 0.86619 0.04438 0.70858 0.0
C422 C 0.84007 0.05181 0.8137 0.0
C423 C 0.82392 0.05837 0.86612 0.0
C424 C 0.8286 0.07044 0.76251 0.0
C425 C 0.79585 0.08363 0.86658 0.0
C426 C 0.78407 0.10206 0.81564 0.0
C427 C 0.78916 0.11471 0.71235 0.0
C428 C 0.80594 0.10875 0.6603 0.0
C429 C 0.8004 0.09585 0.76349 0.0
C430 C 0.83349 0.08299 0.65962 0.0
C431 C 0.84482 0.06407 0.71031 0.0
H432 H 0.96408 0.89302 0.74967 0.0
H433 H 0.04651 0.81998 0.81995 0.0
H434 H 0.02342 0.77304 0.75847 0.0
H435 H 0.97751 0.75104 0.69053 0.0
H436 H 0.89469 0.82262 0.61884 0.0
H437 H 0.92053 0.87195 0.67435 0.0
C438 C 0.97712 0.86692 0.75118 0.0
C439 C 0.00667 0.85995 0.79008 0.0
C440 C 0.96367 0.83976 0.71548 0.0
C441 C 0.02352 0.82609 0.79096 0.0
C442 C 0.01035 0.79912 0.75578 0.0
C443 C 0.96532 0.77756 0.68662 0.0
C444 C 0.93428 0.78325 0.65086 0.0
C445 C 0.98008 0.80544 0.71882 0.0
C446 C 0.9189 0.81774 0.64562 0.0
C447 C 0.93347 0.84582 0.67777 0.0
H448 H 0.49605 0.58645 0.75249 0.0
H449 H 0.58667 0.60489 0.6456 0.0
H450 H 0.62663 0.60802 0.73194 0.0
H451 H 0.63525 0.60765 0.83802 0.0
H452 H 0.5439 0.59076 0.94438 0.0
H453 H 0.5047 0.58514 0.8579 0.0
C454 C 0.52456 0.5912 0.74797 0.0
C455 C 0.53845 0.59516 0.6925 0.0
C456 C 0.54717 0.59343 0.7978 0.0
C457 C 0.57543 0.60111 0.68759 0.0
C458 C 0.59822 0.60317 0.73704 0.0
C459 C 0.6068 0.60263 0.84238 0.0
C460 C 0.59257 0.59978 0.89777 0.0
C461 C 0.58432 0.5996 0.79239 0.0
C462 C 0.5556 0.59319 0.90242 0.0
C463 C 0.53314 0.58998 0.85296 0.0
H464 H 0.37537 0.52452 0.76757 0.0
H465 H 0.41198 0.61137 0.65771 0.0
H466 H 0.41675 0.65045 0.73935 0.0
H467 H 0.41243 0.6594 0.84319 0.0
H468 H 0.3751 0.57254 0.95346 0.0
H469 H 0.36835 0.53419 0.87055 0.0
C470 C 0.38433 0.552 0.76137 0.0
C471 C 0.39432 0.56467 0.70644 0.0
C472 C 0.38686 0.57435 0.80887 0.0
C473 C 0.40521 0.60054 0.69935 0.0
C474 C 0.40772 0.62303 0.74622 0.0
C475 C 0.40269 0.63214 0.84909 0.0
C476 C 0.39443 0.61888 0.90448 0.0
C477 C 0.39905 0.61008 0.80134 0.0
C478 C 0.38175 0.58347 0.91131 0.0
C479 C 0.37794 0.56143 0.86394 0.0
H480 H 0.39649 0.43601 0.69606 0.0
H481 H 0.49526 0.48825 0.74875 0.0
H482 H 0.47455 0.49294 0.84666 0.0
H483 H 0.43087 0.47728 0.91923 0.0
H484 H 0.33146 0.42573 0.86718 0.0
H485 H 0.34944 0.42658 0.76705 0.0
C486 C 0.41309 0.44889 0.72886 0.0
C487 C 0.4473 0.4616 0.71551 0.0
C488 C 0.40102 0.45148 0.78526 0.0
C489 C 0.46887 0.47797 0.75836 0.0
C490 C 0.45706 0.48075 0.81428 0.0
C491 C 0.41292 0.46665 0.88591 0.0
C492 C 0.38019 0.45094 0.90091 0.0
C493 C 0.42355 0.46684 0.82855 0.0
C494 C 0.35697 0.4378 0.85697 0.0
C495 C 0.36731 0.43803 0.79967 0.0
H496 H 0.56015 0.43624 0.66487 0.0
H497 H 0.64449 0.51372 0.69118 0.0
H498 H 0.67192 0.47521 0.76814 0.0
H499 H 0.6706 0.42069 0.83055 0.0
H500 H 0.58663 0.34252 0.80232 0.0
H501 H 0.56115 0.37958 0.72159 0.0
C502 C 0.5848 0.44443 0.68608 0.0
C503 C 0.60009 0.47774 0.67127 0.0
C504 C 0.60069 0.4219 0.72995 0.0
C505 C 0.63188 0.4882 0.7013 0.0
C506 C 0.64773 0.46615 0.74537 0.0
C507 C 0.64695 0.41149 0.8064 0.0
C508 C 0.63044 0.37895 0.82291 0.0
C509 C 0.63218 0.43306 0.76038 0.0
C510 C 0.59989 0.36746 0.7908 0.0
C511 C 0.58515 0.38874 0.74477 0.0
H512 H 0.63729 0.47974 0.30978 0.0
H513 H 0.52345 0.46081 0.28429 0.0
H514 H 0.53508 0.41924 0.20809 0.0
H515 H 0.57744 0.39054 0.14557 0.0
H516 H 0.69139 0.40894 0.17189 0.0
H517 H 0.67985 0.4481 0.25136 0.0
C518 C 0.61503 0.46646 0.28763 0.0
C519 C 0.57954 0.47356 0.30239 0.0
C520 C 0.62194 0.44244 0.24407 0.0
C521 C 0.55102 0.45584 0.27374 0.0
C522 C 0.55764 0.43208 0.23009 0.0
C523 C 0.5998 0.40284 0.169 0.0
C524 C 0.6352 0.397 0.15246 0.0
C525 C 0.59298 0.42547 0.2145 0.0
C526 C 0.66386 0.41298 0.1836 0.0
C527 C 0.65729 0.43553 0.22892 0.0
H528 H 0.57367 0.65129 0.37027 0.0
H529 H 0.52822 0.56034 0.28322 0.0
H530 H 0.57508 0.56406 0.21278 0.0
H531 H 0.63094 0.59171 0.17846 0.0
H532 H 0.67697 0.68133 0.26837 0.0
H533 H 0.62788 0.67974 0.33474 0.0
C534 C 0.57379 0.63242 0.33566 0.0
C535 C 0.54729 0.60566 0.33196 0.0
C536 C 0.60104 0.6345 0.2957 0.0
C537 C 0.54803 0.58142 0.28684 0.0
C538 C 0.57496 0.58344 0.2466 0.0
C539 C 0.62979 0.61128 0.21187 0.0
C540 C 0.65734 0.63681 0.21813 0.0
C541 C 0.60178 0.60976 0.2508 0.0
C542 C 0.65605 0.66141 0.26266 0.0
C543 C 0.62803 0.66051 0.30069 0.0
H544 H 0.36891 0.53989 0.33348 0.0
H545 H 0.47639 0.50995 0.29173 0.0
H546 H 0.47624 0.55718 0.21531 0.0
H547 H 0.44772 0.60995 0.16692 0.0
H548 H 0.34101 0.64159 0.21138 0.0
H549 H 0.33909 0.59115 0.28156 0.0
C550 C 0.39204 0.54336 0.30693 0.0
C551 C 0.4226 0.52154 0.31777 0.0
C552 C 0.39233 0.57145 0.265 0.0
C553 C 0.45262 0.52652 0.28388 0.0
C554 C 0.45266 0.55366 0.24072 0.0
C555 C 0.42403 0.60592 0.192 0.0
C556 C 0.3947 0.62977 0.18434 0.0
C557 C 0.42307 0.5769 0.2321 0.0
C558 C 0.36408 0.62383 0.21675 0.0
C559 C 0.36289 0.59491 0.25672 0.0
H560 H 0.41687 0.34663 0.35937 0.0
H561 H 0.45708 0.44182 0.27242 0.0
H562 H 0.42479 0.42578 0.18292 0.0
H563 H 0.38738 0.38306 0.12829 0.0
H564 H 0.34911 0.28702 0.21504 0.0
H565 H 0.37866 0.3049 0.30566 0.0
C566 C 0.41841 0.36402 0.32097 0.0
C567 C 0.43942 0.3953 0.32254 0.0
C568 C 0.40025 0.35437 0.26954 0.0
C569 C 0.44123 0.41746 0.2723 0.0
C570 C 0.42276 0.40832 0.22109 0.0
C571 C 0.38492 0.36645 0.16725 0.0
C572 C 0.36574 0.334 0.16516 0.0
C573 C 0.40244 0.37665 0.21907 0.0
C574 C 0.36375 0.31214 0.21563 0.0
C575 C 0.38059 0.32235 0.26745 0.0
loop_
_geom_bond_atom_site_label_1
_geom_bond_atom_site_label_2
_geom_bond_distance
_geom_bond_site_symmetry_2
_ccdc_geom_bond_type
Zn0 O2 1.933 1_556 S
Zn0 O20 1.985 . S
Zn0 O31 1.955 . S
Zn1 O2 1.911 . S
Zn1 O21 1.970 . S
Zn1 O37 1.945 . S
Zn1 O44 1.981 . S
O2 Zn0 1.933 1_554 S
O2 Zn1 1.911 . S
O2 H3 0.841 1_655 S
H3 O2 0.841 1_455 S
C4 O5 1.246 . S
C4 O33 1.254 1_545 S
O5 C4 1.246 . S
Zn6 O8 1.911 . S
Zn6 O23 1.970 . S
Zn6 O40 1.945 . S
Zn6 O47 1.981 . S
Zn7 O8 1.933 1_556 S
Zn7 O22 1.985 . S
Zn7 O29 1.955 . S
O8 Zn6 1.911 . S
O8 Zn7 1.933 1_554 S
O8 H9 0.841 1_455 S
H9 O8 0.841 1_655 S
Zn10 O11 1.933 1_556 S
Zn10 O24 1.985 . S
Zn10 O33 1.963 . S
O11 Zn10 1.933 1_554 S
O11 Zn12 1.911 . S
O11 H13 0.841 1_565 S
Zn12 O11 1.911 . S
Zn12 O25 1.970 . S
Zn12 O41 1.981 . S
Zn12 O43 1.945 . S
H13 O11 0.841 1_545 S
Zn14 O15 1.933 1_556 S
Zn14 O27 1.985 . S
Zn14 O35 1.955 . S
O15 Zn14 1.933 1_554 S
O15 H16 0.841 1_545 S
O15 Zn17 1.911 . S
H16 O15 0.841 1_565 S
Zn17 O15 1.911 . S
Zn17 O28 1.970 . S
Zn17 O38 1.981 . S
Zn17 O46 1.945 . S
C18 O19 1.246 . S
C18 O35 1.276 1_565 S
O19 C18 1.246 . S
O20 Zn0 1.985 . S
O20 C30 1.245 1_556 S
O21 Zn1 1.970 . S
O21 C30 1.263 . S
O22 Zn7 1.985 . S
O22 C34 1.245 1_556 S
O23 Zn6 1.970 . S
O23 C34 1.263 . S
O24 Zn10 1.985 . S
O24 C39 1.245 1_556 S
O25 Zn12 1.970 . S
O25 C39 1.263 . S
C26 O37 1.262 1_455 S
C26 O38 1.245 . S
O27 Zn14 1.985 . S
O27 C45 1.245 1_556 S
O28 Zn17 1.970 . S
O28 C45 1.263 . S
O29 Zn7 1.955 . S
O29 C48 1.276 1_455 S
C30 O20 1.245 1_554 S
C30 O21 1.263 . S
O31 Zn0 1.955 . S
O31 C50 1.276 1_655 S
C32 O40 1.262 1_655 S
C32 O41 1.245 . S
O33 C4 1.254 1_565 S
O33 Zn10 1.963 . S
C34 O22 1.245 1_554 S
C34 O23 1.263 . S
O35 Zn14 1.955 . S
O35 C18 1.276 1_545 S
C36 O43 1.262 1_545 S
C36 O44 1.245 . S
O37 Zn1 1.945 . S
O37 C26 1.262 1_655 S
O38 Zn17 1.981 . S
O38 C26 1.245 . S
C39 O24 1.245 1_554 S
C39 O25 1.263 . S
O40 Zn6 1.945 . S
O40 C32 1.262 1_455 S
O41 Zn12 1.981 . S
O41 C32 1.245 . S
C42 O46 1.262 1_565 S
C42 O47 1.245 . S
O43 Zn12 1.945 . S
O43 C36 1.262 1_565 S
O44 Zn1 1.981 . S
O44 C36 1.245 . S
C45 O27 1.245 1_554 S
C45 O28 1.263 . S
O46 Zn17 1.945 . S
O46 C42 1.262 1_545 S
O47 Zn6 1.981 . S
O47 C42 1.245 . S
C48 O29 1.276 1_655 S
C48 O49 1.246 . S
O49 C48 1.246 . S
C50 O31 1.276 1_455 S
C50 O51 1.246 . S
O51 C50 1.246 . S
Zn52 O54 1.933 . S
Zn52 O72 1.985 . S
Zn52 O83 1.955 . S
Zn53 O54 1.911 . S
Zn53 O73 1.970 . S
Zn53 O89 1.945 . S
Zn53 O96 1.981 . S
O54 Zn52 1.933 . S
O54 Zn53 1.911 . S
O54 H55 0.841 . S
H55 O54 0.841 . S
C56 O57 1.246 . S
C56 O85 1.276 . S
O57 C56 1.246 . S
Zn58 O60 1.911 . S
Zn58 O75 1.970 . S
Zn58 O92 1.945 . S
Zn58 O99 1.981 . S
Zn59 O60 1.933 . S
Zn59 O74 1.985 . S
Zn59 O81 1.955 . S
O60 Zn58 1.911 . S
O60 Zn59 1.933 . S
O60 H61 0.841 . S
H61 O60 0.841 . S
Zn62 O63 1.933 . S
Zn62 O76 1.985 . S
Zn62 O85 1.955 . S
O63 Zn62 1.933 . S
O63 Zn64 1.911 . S
O63 H65 0.841 . S
Zn64 O63 1.911 . S
Zn64 O77 1.970 . S
Zn64 O93 1.981 . S
Zn64 O95 1.945 . S
H65 O63 0.841 . S
Zn66 O67 1.933 . S
Zn66 O79 1.985 . S
Zn66 O87 1.955 . S
O67 Zn66 1.933 . S
O67 H68 0.841 . S
O67 Zn69 1.911 . S
H68 O67 0.841 . S
Zn69 O67 1.911 . S
Zn69 O80 1.970 . S
Zn69 O90 1.981 . S
Zn69 O98 1.945 . S
C70 O71 1.246 . S
C70 O87 1.276 . S
O71 C70 1.246 . S
O72 Zn52 1.985 . S
O72 C82 1.245 . S
O73 Zn53 1.970 . S
O73 C82 1.263 . S
O74 Zn59 1.985 . S
O74 C86 1.245 . S
O75 Zn58 1.970 . S
O75 C86 1.263 . S
O76 Zn62 1.985 . S
O76 C91 1.245 . S
O77 Zn64 1.970 . S
O77 C91 1.263 . S
C78 O89 1.262 . S
C78 O90 1.245 . S
O79 Zn66 1.985 . S
O79 C97 1.245 . S
O80 Zn69 1.970 . S
O80 C97 1.263 . S
O81 Zn59 1.955 . S
O81 C100 1.276 . S
C82 O72 1.245 . S
C82 O73 1.263 . S
O83 Zn52 1.955 . S
O83 C102 1.276 . S
C84 O92 1.262 . S
C84 O93 1.245 . S
O85 C56 1.276 . S
O85 Zn62 1.955 . S
C86 O74 1.245 . S
C86 O75 1.263 . S
O87 Zn66 1.955 . S
O87 C70 1.276 . S
C88 O95 1.262 . S
C88 O96 1.245 . S
O89 Zn53 1.945 . S
O89 C78 1.262 . S
O90 Zn69 1.981 . S
O90 C78 1.245 . S
C91 O76 1.245 . S
C91 O77 1.263 . S
O92 Zn58 1.945 . S
O92 C84 1.262 . S
O93 Zn64 1.981 . S
O93 C84 1.245 . S
C94 O98 1.262 . S
C94 O99 1.245 . S
O95 Zn64 1.945 . S
O95 C88 1.262 . S
O96 Zn53 1.981 . S
O96 C88 1.245 . S
C97 O79 1.245 . S
C97 O80 1.263 . S
O98 Zn69 1.945 . S
O98 C94 1.262 . S
O99 Zn58 1.981 . S
O99 C94 1.245 . S
C100 O81 1.276 . S
C100 O101 1.246 . S
O101 C100 1.246 . S
C102 O83 1.276 . S
C102 O103 1.246 . S
O103 C102 1.246 . S
O104 Cd105 2.300 . S
O104 C111 1.275 . S
Cd105 O104 2.300 . S
Cd105 O113 2.381 . S
Cd105 O114 2.378 . S
O106 Cd107 2.385 . S
O106 C111 1.255 . S
Cd107 O106 2.385 . S
Cd107 O108 2.317 1_554 S
O108 Cd107 2.317 1_556 S
O108 C109 1.232 . S
C109 O108 1.232 . S
C109 O110 1.218 . S
O110 C109 1.218 . S
C111 O104 1.275 . S
C111 O106 1.255 . S
C112 O113 1.258 . S
C112 O114 1.256 . S
O113 Cd105 2.381 . S
O113 C112 1.258 . S
O114 Cd105 2.378 . S
O114 C112 1.256 . S
O115 Cd116 2.300 . S
O115 C122 1.275 . S
Cd116 O115 2.300 . S
Cd116 O124 2.381 . S
Cd116 O125 2.378 1_556 S
O117 Cd118 2.385 1_556 S
O117 C122 1.255 . S
Cd118 O117 2.385 1_554 S
Cd118 O119 2.317 . S
O119 Cd118 2.317 . S
O119 C120 1.232 . S
C120 O119 1.232 . S
C120 O121 1.218 . S
O121 C120 1.218 . S
C122 O115 1.275 . S
C122 O117 1.255 . S
C123 O124 1.258 1_554 S
C123 O125 1.256 . S
O124 Cd116 2.381 . S
O124 C123 1.258 1_556 S
O125 Cd116 2.378 1_554 S
O125 C123 1.256 . S
O126 Cd127 2.300 . S
O126 C133 1.275 . S
Cd127 O126 2.300 . S
Cd127 O135 2.381 . S
Cd127 O136 2.378 . S
O128 Cd129 2.385 . S
O128 C133 1.255 . S
Cd129 O128 2.385 . S
Cd129 O130 2.317 1_554 S
O130 Cd129 2.317 1_556 S
O130 C131 1.232 . S
C131 O130 1.232 . S
C131 O132 1.218 . S
O132 C131 1.218 . S
C133 O126 1.275 . S
C133 O128 1.255 . S
C134 O135 1.258 . S
C134 O136 1.256 . S
O135 Cd127 2.381 . S
O135 C134 1.258 . S
O136 Cd127 2.378 . S
O136 C134 1.256 . S
O137 Cd138 2.300 . S
O137 C144 1.275 . S
Cd138 O137 2.300 . S
Cd138 O146 2.381 . S
Cd138 O147 2.378 . S
O139 Cd140 2.385 1_554 S
O139 C144 1.255 . S
Cd140 O139 2.385 1_556 S
Cd140 O141 2.317 . S
O141 Cd140 2.317 . S
O141 C142 1.232 . S
C142 O141 1.232 . S
C142 O143 1.218 . S
O143 C142 1.218 . S
C144 O137 1.275 . S
C144 O139 1.255 . S
C145 O146 1.258 . S
C145 O147 1.256 . S
O146 Cd138 2.381 . S
O146 C145 1.258 . S
O147 Cd138 2.378 . S
O147 C145 1.256 . S
O148 Cd149 2.300 . S
O148 C155 1.275 . S
Cd149 O148 2.300 . S
Cd149 O157 2.381 . S
Cd149 O158 2.378 . S
O150 Cd151 2.385 . S
O150 C155 1.255 . S
Cd151 O150 2.385 . S
Cd151 O152 2.317 . S
O152 Cd151 2.317 . S
O152 C153 1.232 . S
C153 O152 1.232 . S
C153 O154 1.218 . S
O154 C153 1.218 . S
C155 O148 1.275 . S
C155 O150 1.255 . S
C156 O157 1.258 . S
C156 O158 1.256 . S
O157 Cd149 2.381 . S
O157 C156 1.258 . S
O158 Cd149 2.378 . S
O158 C156 1.256 . S
O159 Cd160 2.300 . S
O159 C166 1.275 . S
Cd160 O159 2.300 . S
Cd160 O168 2.381 . S
Cd160 O169 2.378 . S
O161 Cd162 2.385 . S
O161 C166 1.255 . S
Cd162 O161 2.385 . S
Cd162 O163 2.317 . S
O163 Cd162 2.317 . S
O163 C164 1.232 . S
C164 O163 1.232 . S
C164 O165 1.218 . S
O165 C164 1.218 . S
C166 O159 1.275 . S
C166 O161 1.255 . S
C167 O168 1.258 . S
C167 O169 1.256 . S
O168 Cd160 2.381 . S
O168 C167 1.258 . S
O169 Cd160 2.378 . S
O169 C167 1.256 . S
O170 Cd171 2.300 . S
O170 C177 1.275 . S
Cd171 O170 2.300 . S
Cd171 O179 2.381 . S
Cd171 O180 2.378 . S
O172 Cd173 2.385 . S
O172 C177 1.255 . S
Cd173 O172 2.385 . S
Cd173 O174 2.317 . S
O174 Cd173 2.317 . S
O174 C175 1.232 . S
C175 O174 1.232 . S
C175 O176 1.218 . S
O176 C175 1.218 . S
C177 O170 1.275 . S
C177 O172 1.255 . S
C178 O179 1.258 . S
C178 O180 1.256 . S
O179 Cd171 2.381 . S
O179 C178 1.258 . S
O180 Cd171 2.378 . S
O180 C178 1.256 . S
O181 Cd182 2.300 . S
O181 C188 1.275 . S
Cd182 O181 2.300 . S
Cd182 O190 2.381 . S
Cd182 O191 2.378 . S
O183 Cd184 2.385 . S
O183 C188 1.255 . S
Cd184 O183 2.385 . S
Cd184 O185 2.317 . S
O185 Cd184 2.317 . S
O185 C186 1.232 . S
C186 O185 1.232 . S
C186 O187 1.218 . S
O187 C186 1.218 . S
C188 O181 1.275 . S
C188 O183 1.255 . S
C189 O190 1.258 . S
C189 O191 1.256 . S
O190 Cd182 2.381 . S
O190 C189 1.258 . S
O191 Cd182 2.378 . S
O191 C189 1.256 . S
H192 C198 0.930 . S
H193 C201 0.930 1_556 S
H194 C202 0.930 . S
H195 C203 0.930 . S
H196 C206 0.930 . S
H197 C207 0.930 . S
C198 H192 0.930 . S
C198 C199 1.355 . S
C198 C200 1.415 . S
C199 C198 1.355 . S
C199 C201 1.419 . S
C200 C198 1.415 . S
C200 C205 1.425 . S
C200 C207 1.409 . S
C201 H193 0.930 1_554 S
C201 C199 1.419 . S
C201 C202 1.362 . S
C202 H194 0.930 . S
C202 C201 1.362 . S
C202 C205 1.409 . S
C203 H195 0.930 . S
C203 C204 1.355 . S
C203 C205 1.415 . S
C204 C203 1.355 . S
C204 C206 1.419 . S
C205 C200 1.425 . S
C205 C202 1.409 . S
C205 C203 1.415 . S
C206 H196 0.930 . S
C206 C204 1.419 . S
C206 C207 1.362 . S
C207 H197 0.930 . S
C207 C200 1.409 . S
C207 C206 1.362 . S
H208 C214 0.930 1_556 S
H209 C217 0.930 . S
H210 C218 0.930 . S
H211 C219 0.930 . S
H212 C222 0.930 . S
H213 C223 0.930 . S
C214 H208 0.930 1_554 S
C214 C215 1.355 . S
C214 C216 1.415 . S
C215 C214 1.355 . S
C215 C217 1.419 . S
C216 C214 1.415 . S
C216 C221 1.425 . S
C216 C223 1.409 1_554 S
C217 H209 0.930 . S
C217 C215 1.419 . S
C217 C218 1.362 . S
C218 H210 0.930 . S
C218 C217 1.362 . S
C218 C221 1.409 . S
C219 H211 0.930 . S
C219 C220 1.355 . S
C219 C221 1.415 . S
C220 C219 1.355 . S
C220 C222 1.419 1_554 S
C221 C216 1.425 . S
C221 C218 1.409 . S
C221 C219 1.415 . S
C222 H212 0.930 . S
C222 C220 1.419 1_556 S
C222 C223 1.362 . S
C223 H213 0.930 . S
C223 C216 1.409 1_556 S
C223 C222 1.362 . S
H224 C230 0.930 . S
H225 C233 0.930 . S
H226 C234 0.930 . S
H227 C235 0.921 1_556 S
H228 C238 0.930 . S
H229 C239 0.930 . S
C230 H224 0.930 . S
C230 C231 1.355 . S
C230 C232 1.415 . S
C231 C230 1.355 . S
C231 C233 1.419 1_554 S
C232 C230 1.415 . S
C232 C237 1.425 . S
C232 C239 1.409 . S
C233 H225 0.930 . S
C233 C231 1.419 1_556 S
C233 C234 1.362 . S
C234 H226 0.930 . S
C234 C233 1.362 . S
C234 C237 1.409 1_556 S
C235 H227 0.921 1_554 S
C235 C236 1.355 . S
C235 C237 1.415 . S
C236 C235 1.355 . S
C236 C238 1.419 . S
C237 C232 1.425 . S
C237 C234 1.409 1_554 S
C237 C235 1.415 . S
C238 H228 0.930 . S
C238 C236 1.419 . S
C238 C239 1.362 . S
C239 H229 0.930 . S
C239 C232 1.409 . S
C239 C238 1.362 . S
H240 C246 0.930 1_556 S
H241 C249 0.930 . S
H242 C250 0.930 . S
H243 C251 0.930 . S
H244 C254 0.930 . S
H245 C255 0.930 . S
C246 H240 0.930 1_554 S
C246 C247 1.355 . S
C246 C248 1.415 . S
C247 C246 1.355 . S
C247 C249 1.419 . S
C248 C246 1.415 . S
C248 C253 1.425 . S
C248 C255 1.409 1_554 S
C249 H241 0.930 . S
C249 C247 1.419 . S
C249 C250 1.362 . S
C250 H242 0.930 . S
C250 C249 1.362 . S
C250 C253 1.409 . S
C251 H243 0.930 . S
C251 C252 1.355 . S
C251 C253 1.415 . S
C252 C251 1.355 . S
C252 C254 1.419 1_554 S
C253 C248 1.425 . S
C253 C250 1.409 . S
C253 C251 1.415 . S
C254 H244 0.930 . S
C254 C252 1.419 1_556 S
C254 C255 1.362 . S
C255 H245 0.930 . S
C255 C248 1.409 1_556 S
C255 C254 1.362 . S
H256 C262 0.930 . S
H257 C265 0.930 . S
H258 C266 0.930 . S
H259 C267 0.930 . S
H260 C270 0.930 . S
H261 C271 0.930 . S
C262 H256 0.930 . S
C262 C263 1.355 . S
C262 C264 1.415 . S
C263 C262 1.355 . S
C263 C265 1.419 . S
C264 C262 1.415 . S
C264 C269 1.425 . S
C264 C271 1.409 . S
C265 H257 0.930 . S
C265 C263 1.419 . S
C265 C266 1.362 . S
C266 H258 0.930 . S
C266 C265 1.362 . S
C266 C269 1.409 . S
C267 H259 0.930 . S
C267 C268 1.355 . S
C267 C269 1.415 . S
C268 C267 1.355 . S
C268 C270 1.419 . S
C269 C264 1.425 . S
C269 C266 1.409 . S
C269 C267 1.415 . S
C270 H260 0.930 . S
C270 C268 1.419 . S
C270 C271 1.362 . S
C271 H261 0.930 . S
C271 C264 1.409 . S
C271 C270 1.362 . S
H272 C278 0.930 . S
H273 C281 0.930 . S
H274 C282 0.930 . S
H275 C283 0.930 . S
H276 C286 0.930 . S
H277 C287 0.930 . S
C278 H272 0.930 . S
C278 C279 1.355 . S
C278 C280 1.415 . S
C279 C278 1.355 . S
C279 C281 1.419 . S
C280 C278 1.415 . S
C280 C285 1.425 . S
C280 C287 1.409 . S
C281 H273 0.930 . S
C281 C279 1.419 . S
C281 C282 1.362 . S
C282 H274 0.930 . S
C282 C281 1.362 . S
C282 C285 1.409 . S
C283 H275 0.930 . S
C283 C284 1.355 . S
C283 C285 1.415 . S
C284 C283 1.355 . S
C284 C286 1.419 . S
C285 C280 1.425 . S
C285 C282 1.409 . S
C285 C283 1.415 . S
C286 H276 0.930 . S
C286 C284 1.419 . S
C286 C287 1.362 . S
C287 H277 0.930 . S
C287 C280 1.409 . S
C287 C286 1.362 . S
H288 C294 0.930 . S
H289 C297 0.930 . S
H290 C298 0.930 . S
H291 C299 0.930 . S
H292 C302 0.930 . S
H293 C303 0.930 . S
C294 H288 0.930 . S
C294 C295 1.355 . S
C294 C296 1.415 . S
C295 C294 1.355 . S
C295 C297 1.419 . S
C296 C294 1.415 . S
C296 C301 1.425 . S
C296 C303 1.409 . S
C297 H289 0.930 . S
C297 C295 1.419 . S
C297 C298 1.362 . S
C298 H290 0.930 . S
C298 C297 1.362 . S
C298 C301 1.409 . S
C299 H291 0.930 . S
C299 C300 1.355 . S
C299 C301 1.415 . S
C300 C299 1.355 . S
C300 C302 1.419 . S
C301 C296 1.425 . S
C301 C298 1.409 . S
C301 C299 1.415 . S
C302 H292 0.930 . S
C302 C300 1.419 . S
C302 C303 1.362 . S
C303 H293 0.930 . S
C303 C296 1.409 . S
C303 C302 1.362 . S
H304 C310 0.930 . S
H305 C313 0.930 . S
H306 C314 0.930 . S
H307 C315 0.930 . S
H308 C318 0.930 . S
H309 C319 0.930 . S
C310 H304 0.930 . S
C310 C311 1.355 . S
C310 C312 1.415 . S
C311 C310 1.355 . S
C311 C313 1.419 . S
C312 C310 1.415 . S
C312 C317 1.425 . S
C312 C319 1.409 . S
C313 H305 0.930 . S
C313 C311 1.419 . S
C313 C314 1.362 . S
C314 H306 0.930 . S
C314 C313 1.362 . S
C314 C317 1.409 . S
C315 H307 0.930 . S
C315 C316 1.355 . S
C315 C317 1.415 . S
C316 C315 1.355 . S
C316 C318 1.419 . S
C317 C312 1.425 . S
C317 C314 1.409 . S
C317 C315 1.415 . S
C318 H308 0.930 . S
C318 C316 1.419 . S
C318 C319 1.362 . S
C319 H309 0.930 . S
C319 C312 1.409 . S
C319 C318 1.362 . S
H320 C326 0.930 . S
H321 C329 0.930 . S
H322 C330 0.930 . S
H323 C331 0.930 . S
H324 C334 0.930 . S
H325 C335 0.930 . S
C326 H320 0.930 . S
C326 C327 1.355 . S
C326 C328 1.415 . S
C327 C326 1.355 . S
C327 C329 1.419 . S
C328 C326 1.415 . S
C328 C333 1.425 . S
C328 C335 1.409 . S
C329 H321 0.930 . S
C329 C327 1.419 . S
C329 C330 1.362 . S
C330 H322 0.930 . S
C330 C329 1.362 . S
C330 C333 1.409 . S
C331 H323 0.930 . S
C331 C332 1.355 . S
C331 C333 1.415 . S
C332 C331 1.355 . S
C332 C334 1.419 . S
C333 C328 1.425 . S
C333 C330 1.409 . S
C333 C331 1.415 . S
C334 H324 0.930 . S
C334 C332 1.419 . S
C334 C335 1.362 . S
C335 H325 0.930 . S
C335 C328 1.409 . S
C335 C334 1.362 . S
H336 C342 0.930 . S
H337 C345 0.930 . S
H338 C346 0.930 . S
H339 C347 0.930 . S
H340 C350 0.930 . S
H341 C351 0.930 . S
C342 H336 0.930 . S
C342 C343 1.355 . S
C342 C344 1.415 . S
C343 C342 1.355 . S
C343 C345 1.419 . S
C344 C342 1.415 . S
C344 C349 1.425 . S
C344 C351 1.409 . S
C345 H337 0.930 . S
C345 C343 1.419 . S
C345 C346 1.362 . S
C346 H338 0.930 . S
C346 C345 1.362 . S
C346 C349 1.409 . S
C347 H339 0.930 . S
C347 C348 1.355 . S
C347 C349 1.415 . S
C348 C347 1.355 . S
C348 C350 1.419 . S
C349 C344 1.425 . S
C349 C346 1.409 . S
C349 C347 1.415 . S
C350 H340 0.930 . S
C350 C348 1.419 . S
C350 C351 1.362 . S
C351 H341 0.930 . S
C351 C344 1.409 . S
C351 C350 1.362 . S
H352 C358 0.930 . S
H353 C361 0.930 . S
H354 C362 0.930 . S
H355 C363 0.930 . S
H356 C366 0.930 . S
H357 C367 0.930 . S
C358 H352 0.930 . S
C358 C359 1.355 . S
C358 C360 1.415 . S
C359 C358 1.355 . S
C359 C361 1.419 . S
C360 C358 1.415 . S
C360 C365 1.425 . S
C360 C367 1.409 . S
C361 H353 0.930 . S
C361 C359 1.419 . S
C361 C362 1.362 . S
C362 H354 0.930 . S
C362 C361 1.362 . S
C362 C365 1.409 . S
C363 H355 0.930 . S
C363 C364 1.355 . S
C363 C365 1.415 . S
C364 C363 1.355 . S
C364 C366 1.419 . S
C365 C360 1.425 . S
C365 C362 1.409 . S
C365 C363 1.415 . S
C366 H356 0.930 . S
C366 C364 1.419 . S
C366 C367 1.362 . S
C367 H357 0.930 . S
C367 C360 1.409 . S
C367 C366 1.362 . S
H368 C374 0.907 1_545 S
H369 C377 0.930 . S
H370 C378 0.930 . S
H371 C379 0.930 . S
H372 C382 0.930 . S
H373 C383 0.930 1_545 S
C374 H368 0.907 1_565 S
C374 C375 1.355 . S
C374 C376 1.415 . S
C375 C374 1.355 . S
C375 C377 1.419 . S
C376 C374 1.415 . S
C376 C381 1.425 . S
C376 C383 1.409 . S
C377 H369 0.930 . S
C377 C375 1.419 . S
C377 C378 1.362 . S
C378 H370 0.930 . S
C378 C377 1.362 . S
C378 C381 1.409 . S
C379 H371 0.930 . S
C379 C380 1.355 . S
C379 C381 1.415 . S
C380 C379 1.355 . S
C380 C382 1.419 . S
C381 C376 1.425 . S
C381 C378 1.409 . S
C381 C379 1.415 . S
C382 H372 0.930 . S
C382 C380 1.419 . S
C382 C383 1.362 . S
C383 H373 0.930 1_565 S
C383 C376 1.409 . S
C383 C382 1.362 . S
H384 C390 0.930 . S
H385 C393 0.930 . S
H386 C394 0.930 . S
H387 C395 0.930 . S
H388 C398 0.930 . S
H389 C399 0.930 . S
C390 H384 0.930 . S
C390 C391 1.355 . S
C390 C392 1.415 . S
C391 C390 1.355 . S
C391 C393 1.419 . S
C392 C390 1.415 . S
C392 C397 1.425 . S
C392 C399 1.409 . S
C393 H385 0.930 . S
C393 C391 1.419 . S
C393 C394 1.362 . S
C394 H386 0.930 . S
C394 C393 1.362 . S
C394 C397 1.409 . S
C395 H387 0.930 . S
C395 C396 1.355 . S
C395 C397 1.415 . S
C396 C395 1.355 . S
C396 C398 1.419 . S
C397 C392 1.425 . S
C397 C394 1.409 . S
C397 C395 1.415 . S
C398 H388 0.930 . S
C398 C396 1.419 . S
C398 C399 1.362 . S
C399 H389 0.930 . S
C399 C392 1.409 . S
C399 C398 1.362 . S
H400 C406 0.930 . S
H401 C409 0.930 . S
H402 C410 0.930 . S
H403 C411 0.930 . S
H404 C414 0.930 . S
H405 C415 0.930 . S
C406 H400 0.930 . S
C406 C407 1.355 . S
C406 C408 1.415 . S
C407 C406 1.355 . S
C407 C409 1.419 . S
C408 C406 1.415 . S
C408 C413 1.425 . S
C408 C415 1.409 . S
C409 H401 0.930 . S
C409 C407 1.419 . S
C409 C410 1.362 . S
C410 H402 0.930 . S
C410 C409 1.362 . S
C410 C413 1.409 . S
C411 H403 0.930 . S
C411 C412 1.355 . S
C411 C413 1.415 . S
C412 C411 1.355 . S
C412 C414 1.419 . S
C413 C408 1.425 . S
C413 C410 1.409 . S
C413 C411 1.415 . S
C414 H404 0.930 . S
C414 C412 1.419 . S
C414 C415 1.362 . S
C415 H405 0.930 . S
C415 C408 1.409 . S
C415 C414 1.362 . S
H416 C422 0.930 . S
H417 C425 0.930 . S
H418 C426 0.930 . S
H419 C427 0.930 . S
H420 C430 0.930 . S
H421 C431 0.930 . S
C422 H416 0.930 . S
C422 C423 1.355 . S
C422 C424 1.415 . S
C423 C422 1.355 . S
C423 C425 1.419 . S
C424 C422 1.415 . S
C424 C429 1.425 . S
C424 C431 1.409 . S
C425 H417 0.930 . S
C425 C423 1.419 . S
C425 C426 1.362 . S
C426 H418 0.930 . S
C426 C425 1.362 . S
C426 C429 1.409 . S
C427 H419 0.930 . S
C427 C428 1.355 . S
C427 C429 1.415 . S
C428 C427 1.355 . S
C428 C430 1.419 . S
C429 C424 1.425 . S
C429 C426 1.409 . S
C429 C427 1.415 . S
C430 H420 0.930 . S
C430 C428 1.419 . S
C430 C431 1.362 . S
C431 H421 0.930 . S
C431 C424 1.409 . S
C431 C430 1.362 . S
H432 C438 0.930 . S
H433 C441 0.930 1_455 S
H434 C442 0.930 1_455 S
H435 C443 0.930 . S
H436 C446 0.930 . S
H437 C447 0.930 . S
C438 H432 0.930 . S
C438 C439 1.355 . S
C438 C440 1.415 . S
C439 C438 1.355 . S
C439 C441 1.419 . S
C440 C438 1.415 . S
C440 C445 1.425 . S
C440 C447 1.409 . S
C441 H433 0.930 1_655 S
C441 C439 1.419 . S
C441 C442 1.362 . S
C442 H434 0.930 1_655 S
C442 C441 1.362 . S
C442 C445 1.409 . S
C443 H435 0.930 . S
C443 C444 1.355 . S
C443 C445 1.415 . S
C444 C443 1.355 . S
C444 C446 1.419 . S
C445 C440 1.425 . S
C445 C442 1.409 . S
C445 C443 1.415 . S
C446 H436 0.930 . S
C446 C444 1.419 . S
C446 C447 1.362 . S
C447 H437 0.930 . S
C447 C440 1.409 . S
C447 C446 1.362 . S
H448 C454 0.930 . S
H449 C457 0.930 . S
H450 C458 0.930 . S
H451 C459 0.930 . S
H452 C462 0.930 . S
H453 C463 0.930 . S
C454 H448 0.930 . S
C454 C455 1.355 . S
C454 C456 1.415 . S
C455 C454 1.355 . S
C455 C457 1.419 . S
C456 C454 1.415 . S
C456 C461 1.425 . S
C456 C463 1.409 . S
C457 H449 0.930 . S
C457 C455 1.419 . S
C457 C458 1.362 . S
C458 H450 0.930 . S
C458 C457 1.362 . S
C458 C461 1.409 . S
C459 H451 0.930 . S
C459 C460 1.355 . S
C459 C461 1.415 . S
C460 C459 1.355 . S
C460 C462 1.419 . S
C461 C456 1.425 . S
C461 C458 1.409 . S
C461 C459 1.415 . S
C462 H452 0.930 . S
C462 C460 1.419 . S
C462 C463 1.362 . S
C463 H453 0.930 . S
C463 C456 1.409 . S
C463 C462 1.362 . S
H464 C470 0.930 . S
H465 C473 0.930 . S
H466 C474 0.930 . S
H467 C475 0.930 . S
H468 C478 0.930 . S
H469 C479 0.930 . S
C470 H464 0.930 . S
C470 C471 1.355 . S
C470 C472 1.415 . S
C471 C470 1.355 . S
C471 C473 1.419 . S
C472 C470 1.415 . S
C472 C477 1.425 . S
C472 C479 1.409 . S
C473 H465 0.930 . S
C473 C471 1.419 . S
C473 C474 1.362 . S
C474 H466 0.930 . S
C474 C473 1.362 . S
C474 C477 1.409 . S
C475 H467 0.930 . S
C475 C476 1.355 . S
C475 C477 1.415 . S
C476 C475 1.355 . S
C476 C478 1.419 . S
C477 C472 1.425 . S
C477 C474 1.409 . S
C477 C475 1.415 . S
C478 H468 0.930 . S
C478 C476 1.419 . S
C478 C479 1.362 . S
C479 H469 0.930 . S
C479 C472 1.409 . S
C479 C478 1.362 . S
H480 C486 0.930 . S
H481 C489 0.930 . S
H482 C490 0.930 . S
H483 C491 0.930 . S
H484 C494 0.930 . S
H485 C495 0.930 . S
C486 H480 0.930 . S
C486 C487 1.355 . S
C486 C488 1.415 . S
C487 C486 1.355 . S
C487 C489 1.419 . S
C488 C486 1.415 . S
C488 C493 1.425 . S
C488 C495 1.409 . S
C489 H481 0.930 . S
C489 C487 1.419 . S
C489 C490 1.362 . S
C490 H482 0.930 . S
C490 C489 1.362 . S
C490 C493 1.409 . S
C491 H483 0.930 . S
C491 C492 1.355 . S
C491 C493 1.415 . S
C492 C491 1.355 . S
C492 C494 1.419 . S
C493 C488 1.425 . S
C493 C490 1.409 . S
C493 C491 1.415 . S
C494 H484 0.930 . S
C494 C492 1.419 . S
C494 C495 1.362 . S
C495 H485 0.930 . S
C495 C488 1.409 . S
C495 C494 1.362 . S
H496 C502 0.930 . S
H497 C505 0.930 . S
H498 C506 0.930 . S
H499 C507 0.930 . S
H500 C510 0.930 . S
H501 C511 0.930 . S
C502 H496 0.930 . S
C502 C503 1.355 . S
C502 C504 1.415 . S
C503 C502 1.355 . S
C503 C505 1.419 . S
C504 C502 1.415 . S
C504 C509 1.425 . S
C504 C511 1.409 . S
C505 H497 0.930 . S
C505 C503 1.419 . S
C505 C506 1.362 . S
C506 H498 0.930 . S
C506 C505 1.362 . S
C506 C509 1.409 . S
C507 H499 0.930 . S
C507 C508 1.355 . S
C507 C509 1.415 . S
C508 C507 1.355 . S
C508 C510 1.419 . S
C509 C504 1.425 . S
C509 C506 1.409 . S
C509 C507 1.415 . S
C510 H500 0.930 . S
C510 C508 1.419 . S
C510 C511 1.362 . S
C511 H501 0.930 . S
C511 C504 1.409 . S
C511 C510 1.362 . S
H512 C518 0.930 . S
H513 C521 0.930 . S
H514 C522 0.930 . S
H515 C523 0.930 . S
H516 C526 0.930 . S
H517 C527 0.930 . S
C518 H512 0.930 . S
C518 C519 1.355 . S
C518 C520 1.415 . S
C519 C518 1.355 . S
C519 C521 1.419 . S
C520 C518 1.415 . S
C520 C525 1.425 . S
C520 C527 1.409 . S
C521 H513 0.930 . S
C521 C519 1.419 . S
C521 C522 1.362 . S
C522 H514 0.930 . S
C522 C521 1.362 . S
C522 C525 1.409 . S
C523 H515 0.930 . S
C523 C524 1.355 . S
C523 C525 1.415 . S
C524 C523 1.355 . S
C524 C526 1.419 . S
C525 C520 1.425 . S
C525 C522 1.409 . S
C525 C523 1.415 . S
C526 H516 0.930 . S
C526 C524 1.419 . S
C526 C527 1.362 . S
C527 H517 0.930 . S
C527 C520 1.409 . S
C527 C526 1.362 . S
H528 C534 0.930 . S
H529 C537 0.930 . S
H530 C538 0.930 . S
H531 C539 0.930 . S
H532 C542 0.930 . S
H533 C543 0.930 . S
C534 H528 0.930 . S
C534 C535 1.355 . S
C534 C536 1.415 . S
C535 C534 1.355 . S
C535 C537 1.419 . S
C536 C534 1.415 . S
C536 C541 1.425 . S
C536 C543 1.409 . S
C537 H529 0.930 . S
C537 C535 1.419 . S
C537 C538 1.362 . S
C538 H530 0.930 . S
C538 C537 1.362 . S
C538 C541 1.409 . S
C539 H531 0.930 . S
C539 C540 1.355 . S
C539 C541 1.415 . S
C540 C539 1.355 . S
C540 C542 1.419 . S
C541 C536 1.425 . S
C541 C538 1.409 . S
C541 C539 1.415 . S
C542 H532 0.930 . S
C542 C540 1.419 . S
C542 C543 1.362 . S
C543 H533 0.930 . S
C543 C536 1.409 . S
C543 C542 1.362 . S
H544 C550 0.930 . S
H545 C553 0.930 . S
H546 C554 0.930 . S
H547 C555 0.930 . S
H548 C558 0.930 . S
H549 C559 0.930 . S
C550 H544 0.930 . S
C550 C551 1.355 . S
C550 C552 1.415 . S
C551 C550 1.355 . S
C551 C553 1.419 . S
C552 C550 1.415 . S
C552 C557 1.425 . S
C552 C559 1.409 . S
C553 H545 0.930 . S
C553 C551 1.419 . S
C553 C554 1.362 . S
C554 H546 0.930 . S
C554 C553 1.362 . S
C554 C557 1.409 . S
C555 H547 0.930 . S
C555 C556 1.355 . S
C555 C557 1.415 . S
C556 C555 1.355 . S
C556 C558 1.419 . S
C557 C552 1.425 . S
C557 C554 1.409 . S
C557 C555 1.415 . S
C558 H548 0.930 . S
C558 C556 1.419 . S
C558 C559 1.362 . S
C559 H549 0.930 . S
C559 C552 1.409 . S
C559 C558 1.362 . S
H560 C566 0.930 . S
H561 C569 0.930 . S
H562 C570 0.930 . S
H563 C571 0.930 . S
H564 C574 0.930 . S
H565 C575 0.930 . S
C566 H560 0.930 . S
C566 C567 1.355 . S
C566 C568 1.415 . S
C567 C566 1.355 . S
C567 C569 1.419 . S
C568 C566 1.415 . S
C568 C573 1.425 . S
C568 C575 1.409 . S
C569 H561 0.930 . S
C569 C567 1.419 . S
C569 C570 1.362 . S
C570 H562 0.930 . S
C570 C569 1.362 . S
C570 C573 1.409 . S
C571 H563 0.930 . S
C571 C572 1.355 . S
C571 C573 1.415 . S
C572 C571 1.355 . S
C572 C574 1.419 . S
C573 C568 1.425 . S
C573 C570 1.409 . S
C573 C571 1.415 . S
C574 H564 0.930 . S
C574 C572 1.419 . S
C574 C575 1.362 . S
C575 H565 0.930 . S
C575 C568 1.409 . S
C575 C574 1.362 . S
C199 C45 1.581 . S
C204 C112 1.550 . S
C215 C30 1.556 . S
C220 C123 1.599 . S
C231 C39 1.588 . S
C236 C134 1.558 . S
C252 C145 1.559 . S
C247 C34 1.584 . S
C263 C97 1.619 . S
C268 C156 1.601 . S
C284 C167 1.599 . S
C279 C82 1.557 . S
C300 C178 1.600 . S
C295 C91 1.619 . S
C316 C189 1.578 . S
C311 C86 1.597 . S
C332 C175 1.061 . S
C327 C26 1.314 . S
C348 C186 1.148 . S
C343 C36 1.440 . S
C364 C153 1.199 . S
C359 C32 1.381 . S
C380 C166 1.576 . S
C375 C42 1.509 . S
C391 C18 1.544 . S
C396 C164 1.540 . S
C412 C177 1.734 . S
C407 C50 1.759 . S
C423 C4 1.569 . S
C428 C188 1.586 . S
C439 C48 1.685 . S
C444 C155 1.679 . S
C460 C131 1.025 . S
C455 C78 1.296 . S
C471 C88 1.446 . S
C476 C142 1.164 . S
C492 C109 1.131 . S
C487 C84 1.351 . S
C508 C122 1.553 . S
C503 C94 1.485 . S
C524 C120 1.518 . S
C519 C70 1.562 . S
C540 C133 1.723 . S
C535 C102 1.757 . S
C551 C56 1.611 . S
C556 C144 1.587 . S
C567 C100 1.718 . S
C572 C111 1.685 . S
