# Generated by pormake.
# Topology ctn, (3,4)-cn, num edge types: 1
# Building blocks:
#     Node 0, Type 0, BuildingBlock: WUSLED_clean_sbu_0, # of connection points: 3
#     Node 1, Type 0, BuildingBlock: WUSLED_clean_sbu_0, # of connection points: 3
#     Node 2, Type 0, BuildingBlock: WUSLED_clean_sbu_0, # of connection points: 3
#     Node 3, Type 0, BuildingBlock: WUSLED_clean_sbu_0, # of connection points: 3
#     Node 4, Type 0, BuildingBlock: WUSLED_clean_sbu_0, # of connection points: 3
#     Node 5, Type 0, BuildingBlock: WUSLED_clean_sbu_0, # of connection points: 3
#     Node 6, Type 0, BuildingBlock: WUSLED_clean_sbu_0, # of connection points: 3
#     Node 7, Type 0, BuildingBlock: WUSLED_clean_sbu_0, # of connection points: 3
#     Node 8, Type 0, BuildingBlock: WUSLED_clean_sbu_0, # of connection points: 3
#     Node 9, Type 0, BuildingBlock: WUSLED_clean_sbu_0, # of connection points: 3
#     Node 10, Type 0, BuildingBlock: WUSLED_clean_sbu_0, # of connection points: 3
#     Node 11, Type 0, BuildingBlock: WUSLED_clean_sbu_0, # of connection points: 3
#     Node 12, Type 0, BuildingBlock: WUSLED_clean_sbu_0, # of connection points: 3
#     Node 13, Type 0, BuildingBlock: WUSLED_clean_sbu_0, # of connection points: 3
#     Node 14, Type 0, BuildingBlock: WUSLED_clean_sbu_0, # of connection points: 3
#     Node 15, Type 0, BuildingBlock: WUSLED_clean_sbu_0, # of connection points: 3
#     Node 16, Type 1, BuildingBlock: UXUYUI_clean_sbu_0, # of connection points: 4
#     Node 17, Type 1, BuildingBlock: UXUYUI_clean_sbu_0, # of connection points: 4
#     Node 18, Type 1, BuildingBlock: UXUYUI_clean_sbu_0, # of connection points: 4
#     Node 19, Type 1, BuildingBlock: UXUYUI_clean_sbu_0, # of connection points: 4
#     Node 20, Type 1, BuildingBlock: UXUYUI_clean_sbu_0, # of connection points: 4
#     Node 21, Type 1, BuildingBlock: UXUYUI_clean_sbu_0, # of connection points: 4
#     Node 22, Type 1, BuildingBlock: UXUYUI_clean_sbu_0, # of connection points: 4
#     Node 23, Type 1, BuildingBlock: UXUYUI_clean_sbu_0, # of connection points: 4
#     Node 24, Type 1, BuildingBlock: UXUYUI_clean_sbu_0, # of connection points: 4
#     Node 25, Type 1, BuildingBlock: UXUYUI_clean_sbu_0, # of connection points: 4
#     Node 26, Type 1, BuildingBlock: UXUYUI_clean_sbu_0, # of connection points: 4
#     Node 27, Type 1, BuildingBlock: UXUYUI_clean_sbu_0, # of connection points: 4
#     Edge 28, Type (0, 1), BuildingBlock: MIFKUJ_clean_linker_0, # of connection points: 2
#     Edge 29, Type (0, 1), BuildingBlock: MIFKUJ_clean_linker_0, # of connection points: 2
#     Edge 30, Type (0, 1), BuildingBlock: MIFKUJ_clean_linker_0, # of connection points: 2
#     Edge 31, Type (0, 1), BuildingBlock: MIFKUJ_clean_linker_0, # of connection points: 2
#     Edge 32, Type (0, 1), BuildingBlock: MIFKUJ_clean_linker_0, # of connection points: 2
#     Edge 33, Type (0, 1), BuildingBlock: MIFKUJ_clean_linker_0, # of connection points: 2
#     Edge 34, Type (0, 1), BuildingBlock: MIFKUJ_clean_linker_0, # of connection points: 2
#     Edge 35, Type (0, 1), BuildingBlock: MIFKUJ_clean_linker_0, # of connection points: 2
#     Edge 36, Type (0, 1), BuildingBlock: MIFKUJ_clean_linker_0, # of connection points: 2
#     Edge 37, Type (0, 1), BuildingBlock: MIFKUJ_clean_linker_0, # of connection points: 2
#     Edge 38, Type (0, 1), BuildingBlock: MIFKUJ_clean_linker_0, # of connection points: 2
#     Edge 39, Type (0, 1), BuildingBlock: MIFKUJ_clean_linker_0, # of connection points: 2
#     Edge 40, Type (0, 1), BuildingBlock: MIFKUJ_clean_linker_0, # of connection points: 2
#     Edge 41, Type (0, 1), BuildingBlock: MIFKUJ_clean_linker_0, # of connection points: 2
#     Edge 42, Type (0, 1), BuildingBlock: MIFKUJ_clean_linker_0, # of connection points: 2
#     Edge 43, Type (0, 1), BuildingBlock: MIFKUJ_clean_linker_0, # of connection points: 2
#     Edge 44, Type (0, 1), BuildingBlock: MIFKUJ_clean_linker_0, # of connection points: 2
#     Edge 45, Type (0, 1), BuildingBlock: MIFKUJ_clean_linker_0, # of connection points: 2
#     Edge 46, Type (0, 1), BuildingBlock: MIFKUJ_clean_linker_0, # of connection points: 2
#     Edge 47, Type (0, 1), BuildingBlock: MIFKUJ_clean_linker_0, # of connection points: 2
#     Edge 48, Type (0, 1), BuildingBlock: MIFKUJ_clean_linker_0, # of connection points: 2
#     Edge 49, Type (0, 1), BuildingBlock: MIFKUJ_clean_linker_0, # of connection points: 2
#     Edge 50, Type (0, 1), BuildingBlock: MIFKUJ_clean_linker_0, # of connection points: 2
#     Edge 51, Type (0, 1), BuildingBlock: MIFKUJ_clean_linker_0, # of connection points: 2
#     Edge 52, Type (0, 1), BuildingBlock: MIFKUJ_clean_linker_0, # of connection points: 2
#     Edge 53, Type (0, 1), BuildingBlock: MIFKUJ_clean_linker_0, # of connection points: 2
#     Edge 54, Type (0, 1), BuildingBlock: MIFKUJ_clean_linker_0, # of connection points: 2
#     Edge 55, Type (0, 1), BuildingBlock: MIFKUJ_clean_linker_0, # of connection points: 2
#     Edge 56, Type (0, 1), BuildingBlock: MIFKUJ_clean_linker_0, # of connection points: 2
#     Edge 57, Type (0, 1), BuildingBlock: MIFKUJ_clean_linker_0, # of connection points: 2
#     Edge 58, Type (0, 1), BuildingBlock: MIFKUJ_clean_linker_0, # of connection points: 2
#     Edge 59, Type (0, 1), BuildingBlock: MIFKUJ_clean_linker_0, # of connection points: 2
#     Edge 60, Type (0, 1), BuildingBlock: MIFKUJ_clean_linker_0, # of connection points: 2
#     Edge 61, Type (0, 1), BuildingBlock: MIFKUJ_clean_linker_0, # of connection points: 2
#     Edge 62, Type (0, 1), BuildingBlock: MIFKUJ_clean_linker_0, # of connection points: 2
#     Edge 63, Type (0, 1), BuildingBlock: MIFKUJ_clean_linker_0, # of connection points: 2
#     Edge 64, Type (0, 1), BuildingBlock: MIFKUJ_clean_linker_0, # of connection points: 2
#     Edge 65, Type (0, 1), BuildingBlock: MIFKUJ_clean_linker_0, # of connection points: 2
#     Edge 66, Type (0, 1), BuildingBlock: MIFKUJ_clean_linker_0, # of connection points: 2
#     Edge 67, Type (0, 1), BuildingBlock: MIFKUJ_clean_linker_0, # of connection points: 2
#     Edge 68, Type (0, 1), BuildingBlock: MIFKUJ_clean_linker_0, # of connection points: 2
#     Edge 69, Type (0, 1), BuildingBlock: MIFKUJ_clean_linker_0, # of connection points: 2
#     Edge 70, Type (0, 1), BuildingBlock: MIFKUJ_clean_linker_0, # of connection points: 2
#     Edge 71, Type (0, 1), BuildingBlock: MIFKUJ_clean_linker_0, # of connection points: 2
#     Edge 72, Type (0, 1), BuildingBlock: MIFKUJ_clean_linker_0, # of connection points: 2
#     Edge 73, Type (0, 1), BuildingBlock: MIFKUJ_clean_linker_0, # of connection points: 2
#     Edge 74, Type (0, 1), BuildingBlock: MIFKUJ_clean_linker_0, # of connection points: 2
#     Edge 75, Type (0, 1), BuildingBlock: MIFKUJ_clean_linker_0, # of connection points: 2
# Relax obj value: 0.001
# Max RMSD: 0.015
# Mean RMSD: 0.010
data_MOF--net-ctn--node1-WUSLED_clean_sbu_0--node2-UXUYUI_clean_sbu_0--edge1-MIFKUJ_clean_linker_0
_symmetry_space_group_name_H-M    P1
_symmetry_Int_Tables_number       1
_symmetry_cell_setting            triclinic
loop_
_symmetry_equiv_pos_as_xyz
'x, y, z'
_cell_length_a     100.86306
_cell_length_b     101.23853
_cell_length_c     100.90336
_cell_angle_alpha  90.483405
_cell_angle_beta   89.940023
_cell_angle_gamma 89.981775
loop_
_atom_site_label
_atom_site_type_symbol
_atom_site_fract_x
_atom_site_fract_y
_atom_site_fract_z
_atom_type_partial_charge
C0 C 0.02196 0.05359 0.07839 0.0
C1 C 0.0222 0.04056 0.08305 0.0
C2 C 1.0071 0.04653 0.10112 0.0
C3 C 0.01481 0.03705 0.09429 0.0
C4 C 1.00704 0.05959 0.09644 0.0
C5 C 0.01437 0.06306 0.08521 0.0
U6 U 0.04975 0.04977 0.05215 0.0
O7 O 0.04868 0.05259 0.03055 0.0
O8 O 0.06166 0.06524 0.04258 0.0
C9 C 0.05672 0.0628 0.03076 0.0
C10 C 0.02921 0.05756 0.06632 0.0
C11 C 0.05251 0.07439 0.02304 0.0
C12 C 0.0383 0.09351 0.01952 0.0
C13 C 0.04199 0.08256 0.02714 0.0
C14 C 0.05559 0.08822 1.00368 0.0
C15 C 0.04504 0.09646 1.00764 0.0
C16 C 0.05926 0.07733 0.01129 0.0
C17 C 0.07488 0.02092 0.05513 0.0
C18 C 0.09495 0.01776 0.04202 0.0
C19 C 0.0879 1.00082 0.05727 0.0
C20 C 0.07695 1.00853 0.06088 0.0
C21 C 0.09708 1.0053 0.0478 0.0
C22 C 0.08393 0.02549 0.04564 0.0
C23 C 0.06332 0.02883 0.05945 0.0
O24 O 0.04126 0.06218 0.06811 0.0
O25 O 0.02828 0.04956 0.05603 0.0
O26 O 0.05278 0.0282 0.05183 0.0
O27 O 0.06582 0.04085 0.06381 0.0
H28 H 0.02804 0.03309 0.07797 0.0
H29 H 0.01523 0.02694 0.09769 0.0
H30 H 1.00109 0.06712 0.10129 0.0
H31 H 0.01401 0.07316 0.08176 0.0
H32 H 0.03006 0.09956 0.02283 0.0
H33 H 0.03664 0.08044 0.03619 0.0
H34 H 0.06117 0.09028 0.99476 0.0
H35 H 0.06745 0.07119 1.00799 0.0
H36 H 0.10173 0.02149 0.0346 0.0
H37 H 0.08929 0.99141 0.06211 0.0
H38 H 0.07011 1.00485 0.06827 0.0
H39 H 0.08249 0.03503 0.04106 0.0
C40 C 0.28494 0.73588 0.19066 0.0
C41 C 0.29346 0.74685 0.19104 0.0
C42 C 0.28416 0.75489 0.1702 0.0
C43 C 0.29305 0.75628 0.18091 0.0
C44 C 0.27566 0.74386 0.16997 0.0
C45 C 0.27606 0.73449 0.18007 0.0
U46 U 0.29871 0.7194 0.22235 0.0
O47 O 0.28763 0.71056 0.23886 0.0
O48 O 0.30074 0.69818 0.22665 0.0
C49 C 0.29193 0.69856 0.23625 0.0
C50 C 0.285 0.72577 0.20113 0.0
C51 C 0.28188 0.68794 0.23615 0.0
C52 C 0.26082 0.67856 0.2289 0.0
C53 C 0.27026 0.68876 0.22854 0.0
C54 C 0.27458 0.66661 0.24436 0.0
C55 C 0.26287 0.66733 0.23682 0.0
C56 C 0.28395 0.67679 0.24402 0.0
C57 C 0.32947 0.73424 0.24005 0.0
C58 C 0.34144 0.72439 0.25846 0.0
C59 C 0.34753 0.74614 0.25075 0.0
C60 C 0.33757 0.74544 0.24113 0.0
C61 C 0.34963 0.73564 0.25957 0.0
C62 C 0.33143 0.72371 0.2488 0.0
C63 C 0.31923 0.73382 0.22959 0.0
O64 O 0.29497 0.71741 0.20091 0.0
O65 O 0.28196 0.72986 0.21316 0.0
O66 O 0.30702 0.73637 0.23338 0.0
O67 O 0.32001 0.72396 0.22107 0.0
H68 H 0.30041 0.74809 0.19913 0.0
H69 H 0.29983 0.76456 0.18137 0.0
H70 H 0.26852 0.74254 0.16206 0.0
H71 H 0.26936 0.72612 0.17963 0.0
H72 H 0.252 0.67941 0.22286 0.0
H73 H 0.26848 0.69728 0.22237 0.0
H74 H 0.27643 0.65826 0.25074 0.0
H75 H 0.29283 0.67599 0.25 0.0
H76 H 0.34268 0.71617 0.26515 0.0
H77 H 0.35374 0.75486 0.25112 0.0
H78 H 0.33626 0.75365 0.23443 0.0
H79 H 0.32525 0.71498 0.24815 0.0
C80 C 0.96713 0.44566 0.0219 0.0
C81 C 0.97287 0.4347 0.02814 0.0
C82 C 0.97466 0.42309 1.00685 0.0
C83 C 0.97656 0.42351 0.02069 0.0
C84 C 0.96905 0.43419 1.00068 0.0
C85 C 0.96532 0.44531 1.00812 0.0
U86 U 0.96942 0.47139 0.05046 0.0
O87 O 0.96605 0.49289 0.04976 0.0
O88 O 0.95336 0.48049 0.06219 0.0
C89 C 0.95563 0.49238 0.05756 0.0
C90 C 0.96255 0.45741 0.02945 0.0
C91 C 0.94392 0.50001 0.05327 0.0
C92 C 0.92385 0.50262 0.04012 0.0
C93 C 0.93493 0.49509 0.04383 0.0
C94 C 0.93072 0.52005 0.05518 0.0
C95 C 0.92163 0.51524 0.04573 0.0
C96 C 0.94172 0.51252 0.05889 0.0
C97 C 0.99819 0.46903 0.07587 0.0
C98 C 0.99985 0.47926 0.09777 0.0
C99 C 0.01937 0.46986 0.08738 0.0
C100 C 0.01179 0.46624 0.07633 0.0
C101 C 0.01352 0.47637 0.09829 0.0
C102 C 0.99226 0.47565 0.08665 0.0
C103 C 0.99048 0.46457 0.0642 0.0
O104 O 0.95774 0.45534 0.04138 0.0
O105 O 0.97018 0.46791 0.02886 0.0
O106 O 0.99103 0.47218 0.05373 0.0
O107 O 0.97855 0.45987 0.06645 0.0
H108 H 0.97443 0.43475 0.03876 0.0
H109 H 0.98098 0.41521 0.02575 0.0
H110 H 0.96725 0.43418 0.9901 0.0
H111 H 0.96086 0.45363 1.00311 0.0
H112 H 0.91714 0.49865 0.03274 0.0
H113 H 0.93648 0.48545 0.03935 0.0
H114 H 0.92924 0.52959 0.0599 0.0
H115 H 0.94851 0.51648 0.06623 0.0
H116 H 0.99504 0.48439 0.10591 0.0
H117 H 0.02979 0.46729 0.08748 0.0
H118 H 0.01656 0.46109 0.06816 0.0
H119 H 0.98177 0.47797 0.0865 0.0
C120 C 0.71559 0.77172 0.19629 0.0
C121 C 0.72808 0.77341 0.19037 0.0
C122 C 0.72264 0.75685 0.17342 0.0
C123 C 0.73158 0.76602 0.17905 0.0
C124 C 0.71014 0.75529 0.17944 0.0
C125 C 0.70668 0.76263 0.19072 0.0
U126 U 0.71924 0.7996 0.22263 0.0
O127 O 0.70357 0.81144 0.2322 0.0
O128 O 0.71609 0.79851 0.24422 0.0
C129 C 0.70582 0.8065 0.24399 0.0
C130 C 0.71161 0.77907 0.20837 0.0
C131 C 0.69406 0.8023 0.25159 0.0
C132 C 0.67373 0.78951 0.25397 0.0
C133 C 0.685 0.79298 0.24657 0.0
C134 C 0.68056 0.80451 0.27148 0.0
C135 C 0.67131 0.79532 0.2665 0.0
C136 C 0.69177 0.80795 0.26411 0.0
C137 C 0.74803 0.82483 0.22016 0.0
C138 C 0.74982 0.84619 0.23136 0.0
C139 C 0.76894 0.83683 0.2202 0.0
C140 C 0.76141 0.82579 0.21653 0.0
C141 C 0.76326 0.84723 0.22762 0.0
C142 C 0.74229 0.83508 0.22769 0.0
C143 C 0.7403 0.81324 0.21561 0.0
O144 O 0.71961 0.7782 0.2186 0.0
O145 O 0.70703 0.79108 0.20659 0.0
O146 O 0.72831 0.8156 0.2111 0.0
O147 O 0.74089 0.8027 0.2231 0.0
H148 H 0.7351 0.78041 0.19451 0.0
H149 H 0.74123 0.76759 0.17462 0.0
H150 H 0.70308 0.74819 0.17556 0.0
H151 H 0.69702 0.76113 0.19518 0.0
H152 H 0.6668 0.78247 0.24977 0.0
H153 H 0.68659 0.7885 0.23692 0.0
H154 H 0.6792 0.809 0.28117 0.0
H155 H 0.69867 0.8151 0.26819 0.0
H156 H 0.74515 0.85392 0.23719 0.0
H157 H 0.77917 0.83734 0.21697 0.0
H158 H 0.76602 0.81803 0.21067 0.0
H159 H 0.73198 0.83453 0.23066 0.0
C160 C 0.02152 0.96693 0.44432 0.0
C161 C 0.01967 0.98031 0.44118 0.0
C162 C 1.00672 0.97413 0.42161 0.0
C163 C 0.01232 0.98387 0.42996 0.0
C164 C 0.00882 0.96076 0.42471 0.0
C165 C 0.01612 0.95723 0.43593 0.0
U166 U 0.04865 0.97017 0.47136 0.0
O167 O 0.04688 0.96713 0.49293 0.0
O168 O 0.06015 0.95453 0.48109 0.0
C169 C 0.05474 0.95677 0.49276 0.0
C170 C 0.02848 0.96278 0.45652 0.0
C171 C 0.0502 0.94511 0.50032 0.0
C172 C 0.04377 0.92193 0.50171 0.0
C173 C 0.04701 0.93304 0.49411 0.0
C174 C 0.04651 0.93487 0.52178 0.0
C175 C 0.04366 0.92265 0.51567 0.0
C176 C 0.04977 0.94593 0.5142 0.0
C177 C 0.07402 0.99901 0.46934 0.0
C178 C 0.09493 1.0014 0.4812 0.0
C179 C 0.08611 0.01979 0.46882 0.0
C180 C 0.07518 0.0121 0.46512 0.0
C181 C 0.09618 0.01456 0.47688 0.0
C182 C 0.08394 0.9937 0.47749 0.0
C183 C 0.06256 0.99111 0.46472 0.0
O184 O 0.04053 0.95807 0.45497 0.0
O185 O 0.02731 0.97058 0.46694 0.0
O186 O 0.0518 0.99173 0.47204 0.0
O187 O 0.06512 0.97913 0.46029 0.0
H188 H 0.02379 0.988 0.44747 0.0
H189 H 0.01105 0.99425 0.4278 0.0
H190 H 1.00454 0.95299 0.41865 0.0
H191 H 0.01735 0.94685 0.43819 0.0
H192 H 0.04173 0.91268 0.49663 0.0
H193 H 0.04725 0.9321 0.48341 0.0
H194 H 0.04628 0.93592 0.53246 0.0
H195 H 0.05216 0.95512 0.51923 0.0
H196 H 0.10241 0.99708 0.48752 0.0
H197 H 0.08679 0.02977 0.46511 0.0
H198 H 0.06768 0.01637 0.45877 0.0
H199 H 0.08322 0.98361 0.4809 0.0
C200 C 0.21636 0.7472 0.82917 0.0
C201 C 0.22969 0.74777 0.83318 0.0
C202 C 0.2237 0.76188 0.85207 0.0
C203 C 0.23333 0.75508 0.8445 0.0
C204 C 0.21036 0.76113 0.84803 0.0
C205 C 0.20676 0.75388 0.83672 0.0
U206 U 0.21955 0.71962 0.80247 0.0
O207 O 0.20371 0.70765 0.79328 0.0
O208 O 0.21586 0.72071 0.781 0.0
C209 C 0.20558 0.71274 0.78149 0.0
C210 C 0.21215 0.74002 0.81706 0.0
C211 C 0.19352 0.71693 0.7743 0.0
C212 C 0.17847 0.73386 0.76615 0.0
C213 C 0.18968 0.73025 0.77353 0.0
C214 C 0.1747 0.71091 0.76042 0.0
C215 C 0.17084 0.72423 0.75946 0.0
C216 C 0.1859 0.70732 0.76774 0.0
C217 C 0.24854 0.69445 0.80486 0.0
C218 C 0.25165 0.67466 0.7913 0.0
C219 C 0.26806 0.68066 0.80777 0.0
C220 C 0.26058 0.6918 0.81123 0.0
C221 C 0.26367 0.67186 0.79783 0.0
C222 C 0.24413 0.68585 0.79481 0.0
C223 C 0.24075 0.70606 0.80921 0.0
O224 O 0.21992 0.741 0.80664 0.0
O225 O 0.20755 0.72801 0.81878 0.0
O226 O 0.22882 0.70365 0.81387 0.0
O227 O 0.24116 0.71646 0.80151 0.0
H228 H 0.23727 0.74264 0.82754 0.0
H229 H 0.24366 0.75532 0.84738 0.0
H230 H 0.2027 0.76637 0.85345 0.0
H231 H 0.19643 0.75361 0.83379 0.0
H232 H 0.17572 0.74419 0.76576 0.0
H233 H 0.19537 0.73785 0.77856 0.0
H234 H 0.16923 0.70323 0.75528 0.0
H235 H 0.18871 0.697 0.76815 0.0
H236 H 0.24792 0.66806 0.78367 0.0
H237 H 0.27735 0.679 0.81285 0.0
H238 H 0.26418 0.69834 0.81898 0.0
H239 H 0.23484 0.68771 0.78978 0.0
C240 C 0.96801 0.57607 0.50143 0.0
C241 C 0.96854 0.58855 0.4954 0.0
C242 C 0.97541 0.59884 0.51629 0.0
C243 C 0.97218 0.5998 0.50276 0.0
C244 C 0.97509 0.58631 0.52222 0.0
C245 C 0.97139 0.5751 0.51489 0.0
U246 U 0.96936 0.54975 0.47328 0.0
O247 O 0.96597 0.52826 0.47448 0.0
O248 O 0.95305 0.54048 0.46211 0.0
C249 C 0.95521 0.52873 0.46715 0.0
C250 C 0.9632 0.56413 0.49425 0.0
C251 C 0.9435 0.52134 0.4721 0.0
C252 C 0.91994 0.51984 0.47739 0.0
C253 C 0.93102 0.52736 0.47373 0.0
C254 C 0.93364 0.50025 0.47818 0.0
C255 C 0.92108 0.50616 0.47956 0.0
C256 C 0.94468 0.50774 0.47445 0.0
C257 C 0.99747 0.55242 0.44696 0.0
C258 C 1.00177 0.53729 0.42855 0.0
C259 C 0.01589 0.55635 0.43194 0.0
C260 C 1.00833 0.56005 0.44298 0.0
C261 C 0.0128 0.54488 0.4246 0.0
C262 C 0.99419 0.54101 0.43966 0.0
C263 C 0.98995 0.55663 0.45882 0.0
O264 O 0.95786 0.56587 0.4825 0.0
O265 O 0.97082 0.55361 0.49477 0.0
O266 O 0.9908 0.54894 0.46922 0.0
O267 O 0.9779 0.56113 0.45682 0.0
H268 H 0.966 0.58968 0.48505 0.0
H269 H 0.97246 0.60926 0.49784 0.0
H270 H 0.97733 0.5852 0.53264 0.0
H271 H 0.97094 0.56564 0.51983 0.0
H272 H 0.91046 0.52475 0.47852 0.0
H273 H 0.92975 0.53782 0.472 0.0
H274 H 0.93488 0.48973 0.4796 0.0
H275 H 0.95415 0.50283 0.47316 0.0
H276 H 0.99915 0.52836 0.42319 0.0
H277 H 0.02412 0.56259 0.42909 0.0
H278 H 0.01099 0.56892 0.44844 0.0
H279 H 0.98583 0.53498 0.4426 0.0
C280 C 0.78587 0.78363 0.83395 0.0
C281 C 0.7921 0.77131 0.8323 0.0
C282 C 0.78414 0.76431 0.85406 0.0
C283 C 0.79124 0.76174 0.84227 0.0
C284 C 0.77814 0.77678 0.85568 0.0
C285 C 0.77899 0.78629 0.84575 0.0
U286 U 0.80024 0.80071 0.80278 0.0
O287 O 0.78952 0.80974 0.78616 0.0
O288 O 0.80213 0.82204 0.79893 0.0
C289 C 0.79355 0.82175 0.78915 0.0
C290 C 0.7861 0.79382 0.82355 0.0
C291 C 0.78335 0.83226 0.78926 0.0
C292 C 0.761 0.84028 0.79384 0.0
C293 C 0.77055 0.83019 0.79434 0.0
C294 C 0.777 0.85465 0.78338 0.0
C295 C 0.76411 0.85266 0.78833 0.0
C296 C 0.78648 0.84457 0.78384 0.0
C297 C 0.83187 0.78685 0.78579 0.0
C298 C 0.84102 0.7937 0.76457 0.0
C299 C 0.85355 0.77901 0.77863 0.0
C300 C 0.84333 0.77936 0.78801 0.0
C301 C 0.85256 0.78617 0.76677 0.0
C302 C 0.83078 0.79407 0.77402 0.0
C303 C 0.82126 0.78681 0.7959 0.0
O304 O 0.79588 0.80238 0.82414 0.0
O305 O 0.78346 0.78984 0.8114 0.0
O306 O 0.80922 0.78415 0.79168 0.0
O307 O 0.82159 0.79646 0.80468 0.0
H308 H 0.79749 0.76905 0.82327 0.0
H309 H 0.79592 0.75223 0.84063 0.0
H310 H 0.77282 0.77925 0.8647 0.0
H311 H 0.77418 0.79576 0.84726 0.0
H312 H 0.75123 0.83843 0.79788 0.0
H313 H 0.76791 0.82077 0.79863 0.0
H314 H 0.77972 0.86394 0.77888 0.0
H315 H 0.79628 0.84637 0.77982 0.0
H316 H 0.83996 0.79944 0.75563 0.0
H317 H 0.86215 0.77293 0.78059 0.0
H318 H 0.84435 0.77368 0.797 0.0
H319 H 0.82202 0.79996 0.77214 0.0
C320 C 0.28375 0.28257 0.33178 0.0
C321 C 0.29298 0.27219 0.332 0.0
C322 C 0.28237 0.2631 0.35175 0.0
C323 C 0.29231 0.26255 0.34192 0.0
C324 C 0.27324 0.27362 0.35146 0.0
C325 C 0.27393 0.28321 0.34159 0.0
U326 U 0.29798 0.2996 0.30053 0.0
O327 O 0.28705 0.30858 0.284 0.0
O328 O 0.29986 0.32088 0.29657 0.0
C329 C 0.29128 0.32057 0.28679 0.0
C330 C 0.28402 0.29284 0.32148 0.0
C331 C 0.28118 0.33113 0.28674 0.0
C332 C 0.26205 0.34247 0.29625 0.0
C333 C 0.27142 0.3322 0.29662 0.0
C334 C 0.2721 0.35061 0.27611 0.0
C335 C 0.26232 0.35186 0.286 0.0
C336 C 0.28141 0.34038 0.27649 0.0
C337 C 0.32892 0.28551 0.28239 0.0
C338 C 0.34825 0.29511 0.27154 0.0
C339 C 0.34035 0.27357 0.26466 0.0
C340 C 0.33016 0.27438 0.27408 0.0
C341 C 0.34966 0.28384 0.26336 0.0
C342 C 0.33801 0.29594 0.28093 0.0
C343 C 0.31866 0.28556 0.29298 0.0
O344 O 0.29399 0.30119 0.32196 0.0
O345 O 0.28116 0.28894 0.30936 0.0
O346 O 0.30647 0.28283 0.28928 0.0
O347 O 0.31927 0.29506 0.30193 0.0
H348 H 0.30064 0.27151 0.32449 0.0
H349 H 0.29945 0.25455 0.34177 0.0
H350 H 0.26561 0.27455 0.35897 0.0
H351 H 0.26675 0.29118 0.34163 0.0
H352 H 0.25474 0.34316 0.30409 0.0
H353 H 0.27109 0.32514 0.30462 0.0
H354 H 0.27249 0.35747 0.26794 0.0
H355 H 0.28882 0.33969 0.26873 0.0
H356 H 0.35529 0.30316 0.27096 0.0
H357 H 0.34092 0.26485 0.25841 0.0
H358 H 0.32334 0.26618 0.27499 0.0
H359 H 0.3374 0.30465 0.28721 0.0
C360 C 0.46709 0.94509 0.52237 0.0
C361 C 0.47396 0.93456 0.52822 0.0
C362 C 0.47389 0.92239 0.50716 0.0
C363 C 0.47733 0.92332 0.52068 0.0
C364 C 0.46728 0.93313 0.50135 0.0
C365 C 0.46392 0.94431 0.50887 0.0
U366 U 0.46947 0.97082 0.55106 0.0
O367 O 0.46529 0.99215 0.55048 0.0
O368 O 0.45332 0.97933 0.56316 0.0
C369 C 0.45505 0.99128 0.55849 0.0
C370 C 0.4626 0.95674 0.53011 0.0
C371 C 0.44296 0.99845 0.55449 0.0
C372 C 0.42594 1.00405 0.53836 0.0
C373 C 0.43723 0.99676 0.54191 0.0
C374 C 0.42596 0.01466 0.55995 0.0
C375 C 0.42015 0.01312 0.54735 0.0
C376 C 0.43721 1.00741 0.56346 0.0
C377 C 0.4983 0.96947 0.57644 0.0
C378 C 0.49961 0.97554 0.59986 0.0
C379 C 0.51961 0.97453 0.58664 0.0
C380 C 0.51211 0.97088 0.57553 0.0
C381 C 0.51349 0.97679 0.59899 0.0
C382 C 0.49208 0.97196 0.5887 0.0
C383 C 0.49082 0.96471 0.56467 0.0
O384 O 0.45809 0.9545 0.54212 0.0
O385 O 0.47006 0.96735 0.52944 0.0
O386 O 0.49107 0.97235 0.5542 0.0
O387 O 0.47912 0.9594 0.56681 0.0
H388 H 0.47653 0.93494 0.53864 0.0
H389 H 0.48233 0.91523 0.52553 0.0
H390 H 0.46469 0.93292 0.49093 0.0
H391 H 0.45867 0.95234 0.50414 0.0
H392 H 0.42169 1.0025 0.52862 0.0
H393 H 0.44151 0.98987 0.53483 0.0
H394 H 0.42196 0.02168 0.56706 0.0
H395 H 0.44151 1.0089 0.57319 0.0
H396 H 0.49454 0.97736 0.60916 0.0
H397 H 0.53028 0.97523 0.58562 0.0
H398 H 0.51715 0.96894 0.56623 0.0
H399 H 0.48144 0.97099 0.58972 0.0
C400 C 0.21582 0.27161 0.69551 0.0
C401 C 0.22825 0.27338 0.6895 0.0
C402 C 0.22283 0.25671 0.67264 0.0
C403 C 0.23174 0.26598 0.67817 0.0
C404 C 0.2104 0.25504 0.67877 0.0
C405 C 0.20696 0.2624 0.69005 0.0
U406 U 0.21933 0.29946 0.72199 0.0
O407 O 0.20347 0.31148 0.73115 0.0
O408 O 0.21559 0.29842 0.74345 0.0
C409 C 0.20526 0.30633 0.74293 0.0
C410 C 0.21179 0.27904 0.70751 0.0
C411 C 0.19314 0.30216 0.75012 0.0
C412 C 0.17986 0.28557 0.76146 0.0
C413 C 0.19095 0.28896 0.7538 0.0
C414 C 0.17279 0.3084 0.7616 0.0
C415 C 0.17069 0.29528 0.76561 0.0
C416 C 0.18387 0.31178 0.75399 0.0
C417 C 0.24845 0.32442 0.72009 0.0
C418 C 0.25064 0.34511 0.73241 0.0
C419 C 0.26909 0.33684 0.71941 0.0
C420 C 0.26152 0.32587 0.7156 0.0
C421 C 0.26377 0.34665 0.72784 0.0
C422 C 0.24306 0.33408 0.72859 0.0
C423 C 0.24067 0.3129 0.71545 0.0
O424 O 0.2196 0.27806 0.71788 0.0
O425 O 0.20741 0.29111 0.70565 0.0
O426 O 0.2288 0.3154 0.71071 0.0
O427 O 0.24097 0.3024 0.723 0.0
H428 H 0.23523 0.28047 0.69355 0.0
H429 H 0.24133 0.26762 0.67366 0.0
H430 H 0.20337 0.24787 0.67498 0.0
H431 H 0.19734 0.26084 0.69457 0.0
H432 H 0.17867 0.27538 0.76443 0.0
H433 H 0.19792 0.2813 0.75096 0.0
H434 H 0.16585 0.31612 0.76435 0.0
H435 H 0.18532 0.32202 0.75128 0.0
H436 H 0.24626 0.35238 0.73902 0.0
H437 H 0.27905 0.33775 0.71551 0.0
H438 H 0.26585 0.31856 0.70898 0.0
H439 H 0.23299 0.33313 0.73221 0.0
C440 C 0.78393 0.23863 0.69313 0.0
C441 C 0.79566 0.24337 0.68732 0.0
C442 C 0.78287 0.25793 0.67293 0.0
C443 C 0.79513 0.2529 0.6773 0.0
C444 C 0.77119 0.25327 0.67895 0.0
C445 C 0.77173 0.24374 0.6889 0.0
U446 U 0.79842 0.22033 0.72344 0.0
O447 O 0.78784 0.21162 0.74039 0.0
O448 O 0.79958 0.19896 0.7271 0.0
C449 C 0.79136 0.1995 0.73722 0.0
C450 C 0.78402 0.22807 0.7032 0.0
C451 C 0.78077 0.18942 0.73754 0.0
C452 C 0.76346 0.17628 0.72695 0.0
C453 C 0.77314 0.18623 0.72632 0.0
C454 C 0.76882 0.17274 0.75002 0.0
C455 C 0.76118 0.16938 0.73882 0.0
C456 C 0.77848 0.18263 0.74937 0.0
C457 C 0.8306 0.23352 0.73993 0.0
C458 C 0.84088 0.22495 0.75993 0.0
C459 C 0.85134 0.2428 0.74802 0.0
C460 C 0.84105 0.24254 0.73873 0.0
C461 C 0.85144 0.234 0.75875 0.0
C462 C 0.83056 0.2247 0.75059 0.0
C463 C 0.81987 0.23371 0.72998 0.0
O464 O 0.79348 0.21917 0.70223 0.0
O465 O 0.78165 0.2318 0.71548 0.0
O466 O 0.80796 0.23664 0.73442 0.0
O467 O 0.81985 0.22401 0.72124 0.0
H468 H 0.80522 0.23964 0.69044 0.0
H469 H 0.80432 0.25636 0.673 0.0
H470 H 0.76157 0.25676 0.67575 0.0
H471 H 0.76256 0.24019 0.69319 0.0
H472 H 0.75769 0.17406 0.71816 0.0
H473 H 0.77471 0.19138 0.71709 0.0
H474 H 0.76754 0.16754 0.75927 0.0
H475 H 0.78429 0.18489 0.75813 0.0
H476 H 0.84067 0.21795 0.76798 0.0
H477 H 0.85912 0.25006 0.74688 0.0
H478 H 0.84123 0.24948 0.73062 0.0
H479 H 0.82257 0.21764 0.75168 0.0
C480 C 0.51983 0.55119 0.57624 0.0
C481 C 0.52576 0.54465 0.58693 0.0
C482 C 0.5044 0.54351 0.59839 0.0
C483 C 0.51812 0.54087 0.59792 0.0
C484 C 0.49853 0.5499 0.58753 0.0
C485 C 0.50616 0.55369 0.57661 0.0
U486 U 0.54928 0.54991 0.5515 0.0
O487 O 0.54929 0.55397 0.5301 0.0
O488 O 0.56103 0.56643 0.54356 0.0
C489 C 0.55676 0.56455 0.53139 0.0
C490 C 0.52763 0.55599 0.56482 0.0
C491 C 0.55245 0.57647 0.52419 0.0
C492 C 0.5353 0.59117 0.5158 0.0
C493 C 0.53903 0.58008 0.52319 0.0
C494 C 0.55833 0.59528 0.51051 0.0
C495 C 0.54491 0.5989 0.50932 0.0
C496 C 0.56203 0.58421 0.51784 0.0
C497 C 0.57573 0.5222 0.55447 0.0
C498 C 0.59166 0.51465 0.53787 0.0
C499 C 0.59406 0.50789 0.56069 0.0
C500 C 0.58274 0.51516 0.5641 0.0
C501 C 0.59866 0.50746 0.54752 0.0
C502 C 0.58032 0.52198 0.54132 0.0
C503 C 0.56349 0.52927 0.55843 0.0
O504 O 0.53935 0.56103 0.56749 0.0
O505 O 0.5276 0.54847 0.55414 0.0
O506 O 0.55344 0.52859 0.55016 0.0
O507 O 0.56507 0.54109 0.56369 0.0
H508 H 0.53629 0.54256 0.58685 0.0
H509 H 0.52296 0.53584 0.60601 0.0
H510 H 0.48806 0.55228 0.58759 0.0
H511 H 0.50139 0.55878 0.5685 0.0
H512 H 0.52489 0.59373 0.51523 0.0
H513 H 0.53145 0.57428 0.52805 0.0
H514 H 0.566 0.60085 0.50553 0.0
H515 H 0.57243 0.58158 0.51843 0.0
H516 H 0.59499 0.51468 0.52767 0.0
H517 H 0.59903 0.50235 0.56836 0.0
H518 H 0.57934 0.51514 0.5743 0.0
H519 H 0.5751 0.52738 0.53371 0.0
C520 C 0.52008 0.46729 0.94725 0.0
C521 C 0.52508 0.47625 0.93794 0.0
C522 C 0.50454 0.47474 0.92514 0.0
C523 C 0.5174 0.47991 0.92697 0.0
C524 C 0.49961 0.46582 0.93458 0.0
C525 C 0.50729 0.46216 0.94549 0.0
U526 U 0.54923 0.47013 0.97208 0.0
O527 O 0.54919 0.46647 0.99355 0.0
O528 O 0.56156 0.45426 0.98042 0.0
C529 C 0.55715 0.45622 0.99254 0.0
C530 C 0.52796 0.46292 0.95874 0.0
C531 C 0.5532 0.44431 0.99992 0.0
C532 C 0.53733 0.42706 1.00543 0.0
C533 C 0.54081 0.43825 0.99806 0.0
C534 C 0.55861 0.42784 0.01649 0.0
C535 C 0.5462 0.42169 0.01475 0.0
C536 C 0.56204 0.439 1.00915 0.0
C537 C 0.57436 0.49894 0.9689 0.0
C538 C 0.59501 0.50143 0.98118 0.0
C539 C 0.58776 0.51874 0.96646 0.0
C540 C 0.57646 0.51136 0.96327 0.0
C541 C 0.59726 0.51386 0.97538 0.0
C542 C 0.58367 0.49402 0.97796 0.0
C543 C 0.56252 0.4913 0.96491 0.0
O544 O 0.53992 0.4584 0.95615 0.0
O545 O 0.52755 0.47058 0.96931 0.0
O546 O 0.5524 0.49167 0.97312 0.0
O547 O 0.5647 0.47945 0.95993 0.0
H548 H 0.53493 0.48036 0.93914 0.0
H549 H 0.52147 0.4869 0.91999 0.0
H550 H 0.48988 0.46146 0.93343 0.0
H551 H 0.50326 0.4552 0.95252 0.0
H552 H 0.52775 0.42253 1.00373 0.0
H553 H 0.53384 0.44219 0.99095 0.0
H554 H 0.56561 0.42416 0.02369 0.0
H555 H 0.57163 0.44356 0.01078 0.0
H556 H 0.60215 0.4973 0.98801 0.0
H557 H 0.58899 0.52835 0.96198 0.0
H558 H 0.56937 0.51536 0.95631 0.0
H559 H 0.58222 0.48444 0.98242 0.0
C560 C 0.71599 0.24822 0.32816 0.0
C561 C 0.72633 0.24407 0.33644 0.0
C562 C 0.72278 0.26321 0.351 0.0
C563 C 0.72972 0.25152 0.34776 0.0
C564 C 0.71253 0.26732 0.34252 0.0
C565 C 0.70918 0.25991 0.33126 0.0
U566 U 0.71888 0.21953 0.30248 0.0
O567 O 0.7027 0.20783 0.29353 0.0
O568 O 0.71537 0.2201 0.28097 0.0
C569 C 0.70468 0.2127 0.28165 0.0
C570 C 0.71187 0.24056 0.31635 0.0
C571 C 0.69271 0.2173 0.27442 0.0
C572 C 0.68144 0.23298 0.26003 0.0
C573 C 0.6925 0.22937 0.2676 0.0
C574 C 0.67046 0.21268 0.2661 0.0
C575 C 0.67031 0.22464 0.25911 0.0
C576 C 0.68154 0.20904 0.2736 0.0
C577 C 0.74726 0.19379 0.30534 0.0
C578 C 0.75221 0.17609 0.28957 0.0
C579 C 0.76505 0.1782 0.30974 0.0
C580 C 0.75747 0.18918 0.3135 0.0
C581 C 0.7626 0.17153 0.29769 0.0
C582 C 0.74462 0.18714 0.29336 0.0
C583 C 0.73973 0.20561 0.30957 0.0
O584 O 0.7198 0.24102 0.30602 0.0
O585 O 0.70714 0.22868 0.31852 0.0
O586 O 0.72775 0.20355 0.31424 0.0
O587 O 0.74039 0.21588 0.30171 0.0
H588 H 0.7317 0.23505 0.33421 0.0
H589 H 0.7376 0.248 0.3541 0.0
H590 H 0.70712 0.27637 0.34452 0.0
H591 H 0.7012 0.26331 0.32496 0.0
H592 H 0.68162 0.24233 0.25489 0.0
H593 H 0.70094 0.23598 0.26796 0.0
H594 H 0.66216 0.20592 0.26549 0.0
H595 H 0.68146 0.19961 0.2786 0.0
H596 H 0.7501 0.17128 0.28018 0.0
H597 H 0.77277 0.17486 0.31637 0.0
H598 H 0.75963 0.19413 0.32281 0.0
H599 H 0.73677 0.19056 0.28691 0.0
C600 C 0.4669 0.07438 1.00163 0.0
C601 C 0.47654 0.08314 0.99683 0.0
C602 C 0.47398 0.09713 0.01657 0.0
C603 C 0.48006 0.09441 1.00425 0.0
C604 C 0.46448 0.08816 0.02135 0.0
C605 C 0.461 0.07694 0.01396 0.0
U606 U 0.46977 0.04861 0.97308 0.0
O607 O 0.46578 0.02725 0.97366 0.0
O608 O 0.45372 0.03996 0.96094 0.0
C609 C 0.45542 0.02808 0.9658 0.0
C610 C 0.46256 0.06267 0.99395 0.0
C611 C 0.44328 0.02104 0.97003 0.0
C612 C 0.42895 0.01177 0.98707 0.0
C613 C 0.44017 0.01913 0.98346 0.0
C614 C 0.42364 1.00839 0.96391 0.0
C615 C 0.42057 1.00625 0.97733 0.0
C616 C 0.43486 0.01568 0.96032 0.0
C617 C 0.49891 0.05058 0.94801 0.0
C618 C 0.50074 0.03971 0.92644 0.0
C619 C 0.51993 0.05037 0.93615 0.0
C620 C 0.51235 0.05399 0.94722 0.0
C621 C 0.51424 0.04322 0.92556 0.0
C622 C 0.49315 0.04333 0.93758 0.0
C623 C 0.49117 0.05507 0.95966 0.0
O624 O 0.45817 0.06488 0.98191 0.0
O625 O 0.47017 0.05216 0.99467 0.0
O626 O 0.49139 0.04734 0.97005 0.0
O627 O 0.47937 0.06004 0.9573 0.0
H628 H 0.48122 0.08134 0.98732 0.0
H629 H 0.48733 0.10114 1.0002 0.0
H630 H 0.45977 0.08975 0.03088 0.0
H631 H 0.45358 0.07027 0.01787 0.0
H632 H 0.42681 0.01046 0.9975 0.0
H633 H 0.44646 0.02321 0.99116 0.0
H634 H 0.41755 1.00417 0.95613 0.0
H635 H 0.43709 0.01697 0.9499 0.0
H636 H 0.49605 0.03409 0.91856 0.0
H637 H 0.53021 0.05343 0.93577 0.0
H638 H 0.51698 0.05963 0.95513 0.0
H639 H 0.48279 0.04055 0.938 0.0
Li640 Li 0.2718 0.89308 0.01117 0.0
Li641 Li 0.26148 0.87549 0.02599 0.0
Li642 Li 0.25725 0.87546 1.00182 0.0
Li643 Li 0.24724 0.89227 0.01585 0.0
C644 C 0.28021 0.86365 1.00413 0.0
N645 N 0.29008 0.84333 0.98859 0.0
C646 C 0.27817 0.85053 1.00782 0.0
C647 C 0.28731 0.86646 0.99259 0.0
C648 C 0.28324 0.84039 0.99981 0.0
C649 C 0.2922 0.85603 0.98486 0.0
C650 C 0.26577 0.89844 0.04095 0.0
C651 C 0.26039 0.90191 0.06401 0.0
N652 N 0.27333 0.90475 0.06654 0.0
C653 C 0.27899 0.90151 0.04374 0.0
C654 C 0.25636 0.89875 0.05113 0.0
C655 C 0.28262 0.90463 0.05676 0.0
C656 C 0.28472 0.91745 1.00613 0.0
N657 N 0.28684 0.90439 1.00834 0.0
C658 C 0.31033 0.90754 1.00664 0.0
C659 C 0.29934 0.89934 1.00866 0.0
C660 C 0.30847 0.92109 1.00424 0.0
C661 C 0.29541 0.926 1.00402 0.0
H662 H 0.27469 0.92124 1.00605 0.0
H663 H 0.30077 0.88892 0.01048 0.0
C664 C 0.25626 0.85369 0.04283 0.0
N665 N 0.2644 0.86427 0.04119 0.0
C666 C 0.25807 0.84509 0.05347 0.0
C667 C 0.27671 0.85829 0.06058 0.0
C668 C 0.27461 0.86658 0.04972 0.0
C669 C 0.2684 0.84733 0.06257 0.0
H670 H 0.2484 0.85183 0.0358 0.0
H671 H 0.28126 0.87473 0.04802 0.0
C672 C 0.24802 0.89948 0.98933 0.0
N673 N 0.23031 0.90919 0.97095 0.0
C674 C 0.23707 0.89194 0.98546 0.0
C675 C 0.24999 0.91196 0.98385 0.0
C676 C 0.22822 0.89702 0.97616 0.0
C677 C 0.24091 0.9167 0.97457 0.0
C678 C 0.23204 0.87052 0.0209 0.0
C679 C 0.22239 0.86544 0.01234 0.0
C680 C 0.22877 0.87336 0.03407 0.0
C681 C 0.20953 0.86346 0.01709 0.0
C682 C 0.21581 0.87125 0.03844 0.0
N683 N 0.20653 0.86639 0.02992 0.0
C684 C 0.24973 0.85168 0.98863 0.0
C685 C 0.25836 0.86797 0.97431 0.0
C686 C 0.24777 0.84301 0.97794 0.0
N687 N 0.25489 0.86391 0.98665 0.0
C688 C 0.25652 0.85963 0.96331 0.0
C689 C 0.25109 0.84694 0.965 0.0
H690 H 0.24717 0.84864 0.99856 0.0
H691 H 0.26249 0.87773 0.97299 0.0
C692 C 0.23355 0.91462 0.02637 0.0
N693 N 0.23195 0.90362 0.01869 0.0
C694 C 0.22291 0.92325 0.02866 0.0
C695 C 0.20914 0.9092 0.01502 0.0
C696 C 0.22003 0.90084 0.013 0.0
C697 C 0.21045 0.92061 0.02296 0.0
H698 H 0.24312 0.91672 0.03072 0.0
H699 H 0.21893 0.89218 1.0068 0.0
O700 O 0.27492 0.87369 0.01157 0.0
O701 O 0.26202 0.8954 0.02827 0.0
O702 O 0.25679 0.89473 0.99846 0.0
O703 O 0.24465 0.87265 0.0164 0.0
H704 H 0.27261 0.84822 0.01668 0.0
H705 H 0.28885 0.87657 0.98956 0.0
H706 H 0.28169 0.83018 1.0025 0.0
H707 H 0.29765 0.85804 0.97585 0.0
H708 H 0.25323 0.90214 0.07199 0.0
H709 H 0.28638 0.90138 0.03598 0.0
H710 H 0.24605 0.89665 0.0491 0.0
H711 H 0.29283 0.90695 0.05908 0.0
H712 H 0.32017 0.90326 1.00677 0.0
H713 H 0.29347 0.93638 1.00241 0.0
H714 H 0.25138 0.83682 0.05461 0.0
H715 H 0.28495 0.86028 0.06716 0.0
H716 H 0.23535 0.88231 0.98968 0.0
H717 H 0.25843 0.91792 0.98673 0.0
H718 H 0.21968 0.8913 0.97312 0.0
H719 H 0.2423 0.92634 0.97024 0.0
H720 H 0.22477 0.86314 1.00212 0.0
H721 H 0.23618 0.87714 0.04084 0.0
H722 H 0.20193 0.8596 0.01056 0.0
H723 H 0.21313 0.87345 0.0486 0.0
H724 H 0.24379 0.83328 0.97983 0.0
H725 H 0.25911 0.86321 0.95357 0.0
H726 H 0.22442 0.93182 0.03496 0.0
H727 H 0.19984 0.90682 0.01022 0.0
Li728 Li 0.12541 0.5119 0.27427 0.0
Li729 Li 0.14234 0.49734 0.26368 0.0
Li730 Li 0.14237 0.52217 0.25937 0.0
Li731 Li 0.12549 0.50724 0.24945 0.0
C732 C 0.14939 0.51665 0.28844 0.0
N733 N 0.15811 0.52527 0.31299 0.0
C734 C 0.15436 0.50762 0.29759 0.0
C735 C 0.14907 0.53009 0.2917 0.0
C736 C 0.15866 0.51216 0.30997 0.0
C737 C 0.15346 0.53424 0.30418 0.0
C738 C 0.1212 0.48191 0.26783 0.0
C739 C 0.12248 0.45874 0.26219 0.0
N740 N 0.11873 0.45567 0.27474 0.0
C741 C 0.11727 0.47853 0.28065 0.0
C742 C 0.12373 0.47195 0.25849 0.0
C743 C 0.11611 0.4652 0.28396 0.0
C744 C 0.10198 0.52016 0.28764 0.0
N745 N 0.11414 0.51468 0.28959 0.0
C746 C 0.10978 0.51298 0.31288 0.0
C747 C 0.11808 0.51098 0.30191 0.0
C748 C 0.09721 0.51875 0.3112 0.0
C749 C 0.09335 0.52231 0.29832 0.0
H750 H 0.09898 0.52288 0.27774 0.0
H751 H 0.12757 0.50626 0.30324 0.0
C752 C 0.16302 0.47918 0.25713 0.0
N753 N 0.15366 0.48214 0.26641 0.0
C754 C 0.17152 0.46839 0.25882 0.0
C755 C 0.16061 0.46377 0.27957 0.0
C756 C 0.15239 0.47471 0.27753 0.0
C757 C 0.1704 0.46049 0.27017 0.0
H758 H 0.16395 0.48526 0.24843 0.0
H759 H 0.14503 0.47732 0.28489 0.0
C760 C 0.11877 0.53722 0.25976 0.0
N761 N 0.11087 0.56334 0.26103 0.0
C762 C 0.1136 0.54337 0.24854 0.0
C763 C 0.1197 0.54429 0.27167 0.0
C764 C 0.10973 0.55661 0.24937 0.0
C765 C 0.11571 0.5575 0.2721 0.0
C766 C 0.14624 0.5054 0.23336 0.0
C767 C 0.14929 0.51615 0.22531 0.0
C768 C 0.14413 0.49297 0.22761 0.0
C769 C 0.15 0.51431 0.21159 0.0
C770 C 0.14491 0.49154 0.21385 0.0
N771 N 0.14779 0.50215 0.20619 0.0
C772 C 0.16561 0.53771 0.26282 0.0
C773 C 0.14985 0.54741 0.24854 0.0
C774 C 0.17423 0.54841 0.26111 0.0
N775 N 0.15363 0.53742 0.25666 0.0
C776 C 0.15817 0.5583 0.24653 0.0
C777 C 0.17058 0.55893 0.25286 0.0
H778 H 0.16851 0.5296 0.26909 0.0
H779 H 0.14048 0.54685 0.24341 0.0
C780 C 0.10571 0.49406 0.23402 0.0
N781 N 0.11422 0.50448 0.23415 0.0
C782 C 0.09734 0.49183 0.22316 0.0
C783 C 0.10658 0.51113 0.21272 0.0
C784 C 0.11474 0.51299 0.2238 0.0
C785 C 0.09767 0.50043 0.21228 0.0
H786 H 0.10535 0.48747 0.24238 0.0
H787 H 0.12148 0.52128 0.22414 0.0
O788 O 0.14514 0.51235 0.27627 0.0
O789 O 0.12254 0.49489 0.26446 0.0
O790 O 0.12264 0.52427 0.25911 0.0
O791 O 0.14528 0.50705 0.24679 0.0
H792 H 0.15483 0.49721 0.2952 0.0
H793 H 0.14562 0.53726 0.28464 0.0
H794 H 0.16244 0.50527 0.31718 0.0
H795 H 0.15324 0.54462 0.30684 0.0
H796 H 0.12448 0.45094 0.25508 0.0
H797 H 0.11521 0.4861 0.28798 0.0
H798 H 0.12671 0.47439 0.24851 0.0
H799 H 0.11314 0.46244 0.29386 0.0
H800 H 0.1131 0.50981 0.32255 0.0
H801 H 0.08382 0.52688 0.29652 0.0
H802 H 0.17883 0.46619 0.25124 0.0
H803 H 0.15949 0.45811 0.28856 0.0
H804 H 0.11266 0.53802 0.23928 0.0
H805 H 0.12333 0.53961 0.28053 0.0
H806 H 0.1058 0.56152 0.24074 0.0
H807 H 0.11642 0.56309 0.28126 0.0
H808 H 0.15099 0.52582 0.2296 0.0
H809 H 0.14186 0.48454 0.23371 0.0
H810 H 0.15227 0.52256 0.20523 0.0
H811 H 0.14321 0.482 0.20926 0.0
H812 H 0.18362 0.54846 0.26631 0.0
H813 H 0.155 0.566 0.23987 0.0
H814 H 0.09078 0.48337 0.22324 0.0
H815 H 0.10709 0.51814 0.2047 0.0
Li816 Li 0.74724 0.62681 1.00869 0.0
Li817 Li 0.75645 0.64313 0.02357 0.0
Li818 Li 0.76099 0.6441 0.99847 0.0
Li819 Li 0.77098 0.62648 0.01357 0.0
C820 C 0.73091 0.64765 1.00543 0.0
N821 N 0.70436 0.65025 0.99921 0.0
C822 C 0.72119 0.64362 0.01441 0.0
C823 C 0.72713 0.65301 0.99328 0.0
C824 C 0.70782 0.645 0.01107 0.0
C825 C 0.71365 0.65426 0.99033 0.0
C826 C 0.75359 0.62297 0.03916 0.0
C827 C 0.76125 0.62429 0.06177 0.0
N828 N 0.74861 0.62249 0.06609 0.0
C829 C 0.74067 0.62108 0.04382 0.0
C830 C 0.76397 0.62453 0.0482 0.0
C831 C 0.73836 0.62088 0.05747 0.0
C832 C 0.731 0.60413 0.01277 0.0
N833 N 0.73232 0.61503 1.00509 0.0
C834 C 0.71303 0.60879 0.99264 0.0
C835 C 0.72373 0.6173 0.99496 0.0
C836 C 0.71123 0.59758 1.0006 0.0
C837 C 0.72052 0.59528 0.01072 0.0
H838 H 0.73819 0.60222 0.02047 0.0
H839 H 0.72515 0.62573 0.98863 0.0
C840 C 0.76373 0.66243 0.04318 0.0
N841 N 0.7537 0.65442 0.03904 0.0
C842 C 0.76203 0.67088 0.05413 0.0
C843 C 0.73967 0.66277 0.0564 0.0
C844 C 0.7418 0.65451 0.04541 0.0
C845 C 0.74983 0.67118 0.06091 0.0
H846 H 0.77305 0.66241 0.03789 0.0
H847 H 0.7339 0.64817 0.042 0.0
C848 C 0.75786 0.61484 0.98796 0.0
N849 N 0.74764 0.5946 0.97257 0.0
C850 C 0.7594 0.60172 0.99189 0.0
C851 C 0.75121 0.61768 0.97618 0.0
C852 C 0.75413 0.59163 0.98398 0.0
C853 C 0.7461 0.6073 0.96854 0.0
C854 C 0.7869 0.64787 0.01487 0.0
C855 C 0.79417 0.65195 1.00384 0.0
C856 C 0.79346 0.64534 0.02679 0.0
C857 C 0.80791 0.6533 1.00487 0.0
C858 C 0.80722 0.64679 0.02741 0.0
N859 N 0.8141 0.6507 0.01653 0.0
C860 C 0.75986 0.66828 0.98443 0.0
C861 C 0.77006 0.6508 0.97246 0.0
C862 C 0.7617 0.67686 0.97378 0.0
N863 N 0.76393 0.65549 0.98356 0.0
C864 C 0.77222 0.65908 0.96161 0.0
C865 C 0.76795 0.67231 0.96214 0.0
H866 H 0.7551 0.6718 0.9934 0.0
H867 H 0.77329 0.64062 0.97204 0.0
C868 C 0.78565 0.60554 0.0253 0.0
N869 N 0.78628 0.6152 0.01602 0.0
C870 C 0.79644 0.59709 0.02732 0.0
C871 C 0.80835 0.60853 0.01013 0.0
C872 C 0.79727 0.61666 1.00832 0.0
C873 C 0.80804 0.59856 0.01975 0.0
H874 H 0.77674 0.60434 0.03111 0.0
H875 H 0.79743 0.62411 1.00072 0.0
O876 O 0.74406 0.64639 1.00849 0.0
O877 O 0.75603 0.62343 0.02583 0.0
O878 O 0.76259 0.62486 0.99576 0.0
O879 O 0.77345 0.64636 0.01401 0.0
H880 H 0.72392 0.63919 0.02371 0.0
H881 H 0.73449 0.65609 0.98616 0.0
H882 H 0.7002 0.64183 0.01789 0.0
H883 H 0.71059 0.65836 0.98095 0.0
H884 H 0.76919 0.62554 0.06887 0.0
H885 H 0.73249 0.61997 0.03699 0.0
H886 H 0.77402 0.62596 0.04477 0.0
H887 H 0.72841 0.61951 0.06122 0.0
H888 H 0.70617 0.61111 0.98475 0.0
H889 H 0.71985 0.58663 0.01691 0.0
H890 H 0.77011 0.6773 0.05707 0.0
H891 H 0.73016 0.66247 0.06137 0.0
H892 H 0.76447 0.5994 1.00103 0.0
H893 H 0.74986 0.6278 0.97308 0.0
H894 H 0.75516 0.58143 0.98693 0.0
H895 H 0.74085 0.60934 0.95944 0.0
H896 H 0.78927 0.65399 0.99456 0.0
H897 H 0.78799 0.64224 0.03544 0.0
H898 H 0.81367 0.6564 0.9964 0.0
H899 H 0.81242 0.64479 0.03655 0.0
H900 H 0.7584 0.68701 0.97472 0.0
H901 H 0.777 0.65512 0.95282 0.0
H902 H 0.79575 0.58957 0.03487 0.0
H903 H 0.81699 0.60989 1.00391 0.0
Li904 Li 0.87517 0.022 0.2634 0.0
Li905 Li 0.89206 1.0079 0.2737 0.0
Li906 Li 0.89275 0.01245 0.24928 0.0
Li907 Li 0.87528 0.99784 0.25881 0.0
C908 C 0.89763 0.03473 0.27371 0.0
N909 N 0.90352 0.05387 0.29248 0.0
C910 C 0.89016 0.03568 0.28537 0.0
C911 C 0.90807 0.04353 0.27159 0.0
C912 C 0.8933 0.04541 0.29473 0.0
C913 C 0.9109 0.05314 0.2812 0.0
C914 C 0.86853 1.00004 0.28667 0.0
C915 C 0.86827 0.97954 0.29864 0.0
N916 N 0.86092 0.9854 0.30836 0.0
C917 C 0.86095 1.00586 0.29674 0.0
C918 C 0.8722 0.98678 0.28759 0.0
C919 C 0.85721 0.9983 0.30764 0.0
C920 C 0.85115 0.03502 0.27047 0.0
N921 N 0.8637 0.03709 0.26598 0.0
C922 C 0.85981 0.06044 0.26532 0.0
C923 C 0.86811 0.0495 0.26336 0.0
C924 C 0.84679 0.05864 0.27 0.0
C925 C 0.84251 0.04568 0.27254 0.0
H926 H 0.84787 0.02506 0.27248 0.0
H927 H 0.87809 0.05094 0.25974 0.0
C928 C 0.9161 1.00145 0.2866 0.0
N929 N 0.90331 1.00507 0.28894 0.0
C930 C 0.92483 0.99929 0.29713 0.0
C931 C 0.90718 1.00474 0.31238 0.0
C932 C 0.89879 1.00683 0.30155 0.0
C933 C 0.92043 1.00089 0.31029 0.0
H934 H 0.91953 1.00028 0.27649 0.0
H935 H 0.88868 0.0099 0.30325 0.0
C936 C 0.86971 0.02152 0.23643 0.0
N937 N 0.86261 0.03964 0.21739 0.0
C938 C 0.85869 0.01919 0.22837 0.0
C939 C 0.87712 0.03306 0.23482 0.0
C940 C 0.85526 0.02847 0.21879 0.0
C941 C 0.87337 0.0421 0.22514 0.0
C942 C 0.90056 0.98357 0.2563 0.0
C943 C 0.90404 0.97994 0.24336 0.0
C944 C 0.90319 0.97495 0.26672 0.0
C945 C 0.90988 0.96762 0.24103 0.0
C946 C 0.90905 0.96272 0.26399 0.0
N947 N 0.91224 0.95934 0.25131 0.0
C948 C 0.91652 0.0205 0.23652 0.0
C949 C 0.9004 0.01166 0.22189 0.0
C950 C 0.92522 0.0227 0.22594 0.0
N951 N 0.90436 0.0151 0.23434 0.0
C952 C 0.90879 0.01367 0.21102 0.0
C953 C 0.92141 0.01929 0.21293 0.0
H954 H 0.91947 0.02309 0.24651 0.0
H955 H 0.89069 1.00737 0.2204 0.0
C956 C 0.85147 0.98303 0.26076 0.0
N957 N 0.86398 0.98263 0.25569 0.0
C958 C 0.8428 0.97236 0.25897 0.0
C959 C 0.85994 0.96103 0.24664 0.0
C960 C 0.86825 0.97194 0.24863 0.0
C961 C 0.847 0.9611 0.25186 0.0
H962 H 0.84823 0.99166 0.26627 0.0
H963 H 0.87808 0.97186 0.24443 0.0
O964 O 0.89477 0.02527 0.26439 0.0
O965 O 0.87234 1.00737 0.276 0.0
O966 O 0.87312 0.01255 0.2459 0.0
O967 O 0.89496 0.99565 0.25877 0.0
H968 H 0.88201 0.029 0.28716 0.0
H969 H 0.91392 0.04294 0.2626 0.0
H970 H 0.88761 0.04625 0.30379 0.0
H971 H 0.91895 0.06001 0.27969 0.0
H972 H 0.87103 0.96926 0.29948 0.0
H973 H 0.85804 0.01614 0.29616 0.0
H974 H 0.87795 0.98211 0.27983 0.0
H975 H 0.85138 1.00268 0.31553 0.0
H976 H 0.86353 0.07019 0.26304 0.0
H977 H 0.83264 0.04378 0.2763 0.0
H978 H 0.93499 0.99657 0.29496 0.0
H979 H 0.90324 1.00598 0.3223 0.0
H980 H 0.85284 0.0103 0.22952 0.0
H981 H 0.88566 0.03504 0.24099 0.0
H982 H 0.84675 0.0268 0.21248 0.0
H983 H 0.87901 0.05108 0.22379 0.0
H984 H 0.90213 0.98651 0.23518 0.0
H985 H 0.90081 0.97768 0.27684 0.0
H986 H 0.91255 0.96465 0.23105 0.0
H987 H 0.91111 0.95594 0.27196 0.0
H988 H 0.93489 0.02688 0.22796 0.0
H989 H 0.90532 0.01102 0.2012 0.0
H990 H 0.83298 0.97286 0.26328 0.0
H991 H 0.86356 0.95269 0.24089 0.0
Li992 Li 0.25722 0.14378 0.5224 0.0
Li993 Li 0.247 0.12691 0.50767 0.0
Li994 Li 0.27195 0.12698 0.51224 0.0
Li995 Li 0.26168 0.14375 0.49747 0.0
C996 C 0.25494 0.12232 0.53795 0.0
N997 N 0.2512 0.11895 0.56485 0.0
C998 C 0.24235 0.11935 0.54291 0.0
C999 C 0.26566 0.12336 0.54665 0.0
C1000 C 0.24066 0.11774 0.55654 0.0
C1001 C 0.26356 0.12168 0.56022 0.0
C1002 C 0.23194 0.14891 0.50331 0.0
C1003 C 0.21536 0.14935 0.48611 0.0
N1004 N 0.20619 0.15342 0.49516 0.0
C1005 C 0.22239 0.15324 0.51241 0.0
C1006 C 0.22843 0.14707 0.49003 0.0
C1007 C 0.20941 0.15541 0.50811 0.0
C1008 C 0.26355 0.16421 0.54114 0.0
N1009 N 0.25433 0.15493 0.53786 0.0
C1010 C 0.2407 0.16175 0.55616 0.0
C1011 C 0.24304 0.15361 0.54512 0.0
C1012 C 0.25007 0.17139 0.55984 0.0
C1013 C 0.26165 0.1725 0.55216 0.0
H1014 H 0.27232 0.16531 0.53511 0.0
H1015 H 0.23577 0.14627 0.5423 0.0
C1016 C 0.23277 0.10517 0.49646 0.0
N1017 N 0.23166 0.11569 0.50486 0.0
C1018 C 0.22197 0.09674 0.49425 0.0
C1019 C 0.20908 0.10995 0.50956 0.0
C1020 C 0.22012 0.11815 0.51142 0.0
C1021 C 0.20987 0.09903 0.50085 0.0
H1022 H 0.24207 0.10325 0.49149 0.0
H1023 H 0.21949 0.12639 0.51827 0.0
C1024 C 0.28732 0.14921 0.51486 0.0
N1025 N 0.31389 0.15412 0.51939 0.0
C1026 C 0.29537 0.15388 0.50465 0.0
C1027 C 0.29274 0.1472 0.52743 0.0
C1028 C 0.30879 0.15627 0.50712 0.0
C1029 C 0.3062 0.14968 0.52951 0.0
C1030 C 0.26457 0.12106 0.48219 0.0
C1031 C 0.27727 0.1173 0.47808 0.0
C1032 C 0.25428 0.12154 0.47294 0.0
C1033 C 0.27953 0.11436 0.46471 0.0
C1034 C 0.25694 0.11854 0.45966 0.0
N1035 N 0.2694 0.11505 0.45585 0.0
C1036 C 0.28561 0.10494 0.52293 0.0
C1037 C 0.29913 0.11827 0.50932 0.0
C1038 C 0.29622 0.09636 0.52531 0.0
N1039 N 0.28723 0.11571 0.51512 0.0
C1040 C 0.31002 0.10997 0.51146 0.0
C1041 C 0.30869 0.0988 0.51956 0.0
H1042 H 0.27601 0.10293 0.52726 0.0
H1043 H 0.3002 0.12669 0.50292 0.0
C1044 C 0.25632 0.16566 0.48077 0.0
N1045 N 0.26432 0.15493 0.48215 0.0
C1046 C 0.25785 0.17412 0.46997 0.0
C1047 C 0.27602 0.16058 0.46227 0.0
C1048 C 0.27412 0.15235 0.4732 0.0
C1049 C 0.26781 0.17166 0.4605 0.0
H1050 H 0.24879 0.16773 0.48812 0.0
H1051 H 0.28061 0.14401 0.47461 0.0
O1052 O 0.25676 0.12411 0.52465 0.0
O1053 O 0.24466 0.14656 0.50737 0.0
O1054 O 0.27418 0.14672 0.51258 0.0
O1055 O 0.2622 0.12403 0.49524 0.0
H1056 H 0.23397 0.1184 0.53632 0.0
H1057 H 0.27551 0.12538 0.54297 0.0
H1058 H 0.23095 0.11555 0.56052 0.0
H1059 H 0.27177 0.12252 0.56707 0.0
H1060 H 0.21251 0.14792 0.47587 0.0
H1061 H 0.22494 0.15486 0.52269 0.0
H1062 H 0.23575 0.14402 0.48282 0.0
H1063 H 0.20191 0.15868 0.51506 0.0
H1064 H 0.23167 0.16044 0.56183 0.0
H1065 H 0.26906 0.17991 0.55448 0.0
H1066 H 0.22308 0.08859 0.48734 0.0
H1067 H 0.20011 0.11203 0.51508 0.0
H1068 H 0.29133 0.15562 0.49491 0.0
H1069 H 0.28662 0.1438 0.53549 0.0
H1070 H 0.31515 0.15982 0.49929 0.0
H1071 H 0.31053 0.14811 0.53917 0.0
H1072 H 0.28532 0.11675 0.4851 0.0
H1073 H 0.24433 0.1241 0.47598 0.0
H1074 H 0.28933 0.11153 0.46138 0.0
H1075 H 0.24907 0.11892 0.45239 0.0
H1076 H 0.29457 0.08776 0.53141 0.0
H1077 H 0.31942 0.11238 0.50688 0.0
H1078 H 0.25143 0.18266 0.4692 0.0
H1079 H 0.2838 0.15822 0.45524 0.0
Li1080 Li 0.39302 0.50729 0.77433 0.0
Li1081 Li 0.3761 0.52188 0.76408 0.0
Li1082 Li 0.37602 0.497 0.75944 0.0
Li1083 Li 0.39292 0.51186 0.74953 0.0
C1084 C 0.36969 0.50336 0.78903 0.0
N1085 N 0.3623 0.4963 0.81438 0.0
C1086 C 0.36613 0.51306 0.79831 0.0
C1087 C 0.36924 0.49006 0.79258 0.0
C1088 C 0.3625 0.5093 0.8111 0.0
C1089 C 0.36554 0.48669 0.80546 0.0
C1090 C 0.39762 0.5374 0.76745 0.0
C1091 C 0.39633 0.56022 0.76089 0.0
N1092 N 0.40089 0.56397 0.77304 0.0
C1093 C 0.40239 0.54147 0.77982 0.0
C1094 C 0.39467 0.54683 0.75786 0.0
C1095 C 0.40395 0.55495 0.78247 0.0
C1096 C 0.41528 0.49689 0.78828 0.0
N1097 N 0.40424 0.50452 0.78968 0.0
C1098 C 0.40947 0.50847 0.81256 0.0
C1099 C 0.40131 0.51038 0.80151 0.0
C1100 C 0.42084 0.50046 0.81149 0.0
C1101 C 0.42367 0.49466 0.79908 0.0
H1102 H 0.41762 0.49254 0.77875 0.0
H1103 H 0.39278 0.51676 0.80234 0.0
C1104 C 0.35467 0.53933 0.75835 0.0
N1105 N 0.36477 0.53712 0.76699 0.0
C1106 C 0.34616 0.55014 0.76016 0.0
C1107 C 0.35856 0.55626 0.7797 0.0
C1108 C 0.36677 0.54529 0.77757 0.0
C1109 C 0.34801 0.55883 0.77096 0.0
H1110 H 0.35314 0.53263 0.7501 0.0
H1111 H 0.37473 0.5433 0.78441 0.0
C1112 C 0.39928 0.48181 0.75901 0.0
N1113 N 0.40627 0.45541 0.75896 0.0
C1114 C 0.40499 0.47605 0.74773 0.0
C1115 C 0.3973 0.47418 0.77032 0.0
C1116 C 0.40841 0.46268 0.74789 0.0
C1117 C 0.40085 0.46085 0.77009 0.0
C1118 C 0.37177 0.51362 0.73369 0.0
C1119 C 0.36912 0.50267 0.72558 0.0
C1120 C 0.37301 0.52611 0.72805 0.0
C1121 C 0.36798 0.5044 0.71191 0.0
C1122 C 0.37182 0.52743 0.71434 0.0
N1123 N 0.36936 0.51663 0.70661 0.0
C1124 C 0.35273 0.48155 0.76285 0.0
C1125 C 0.36848 0.47164 0.7485 0.0
C1126 C 0.34411 0.47083 0.76114 0.0
N1127 N 0.36471 0.48175 0.75664 0.0
C1128 C 0.3602 0.46069 0.74655 0.0
C1129 C 0.3478 0.46016 0.75291 0.0
H1130 H 0.34986 0.48975 0.76917 0.0
H1131 H 0.37784 0.47211 0.74333 0.0
C1132 C 0.41275 0.52492 0.7342 0.0
N1133 N 0.40411 0.5146 0.73416 0.0
C1134 C 0.42104 0.52715 0.72331 0.0
C1135 C 0.41155 0.50802 0.71251 0.0
C1136 C 0.40344 0.50617 0.72361 0.0
C1137 C 0.42055 0.51864 0.71223 0.0
H1138 H 0.41327 0.53142 0.74273 0.0
H1139 H 0.39666 0.49791 0.72384 0.0
O1140 O 0.37327 0.50688 0.77645 0.0
O1141 O 0.3959 0.52425 0.76473 0.0
O1142 O 0.39575 0.49486 0.75898 0.0
O1143 O 0.37312 0.51209 0.74707 0.0
H1144 H 0.36628 0.52339 0.79571 0.0
H1145 H 0.37158 0.48239 0.78544 0.0
H1146 H 0.35984 0.51672 0.81841 0.0
H1147 H 0.3652 0.47643 0.80834 0.0
H1148 H 0.39401 0.56763 0.75359 0.0
H1149 H 0.40484 0.5343 0.78732 0.0
H1150 H 0.39107 0.54385 0.74821 0.0
H1151 H 0.40757 0.55824 0.79203 0.0
H1152 H 0.40699 0.51343 0.82178 0.0
H1153 H 0.43221 0.48832 0.79772 0.0
H1154 H 0.33807 0.55151 0.75327 0.0
H1155 H 0.36057 0.56271 0.78807 0.0
H1156 H 0.40671 0.48182 0.73893 0.0
H1157 H 0.3932 0.47855 0.77922 0.0
H1158 H 0.41277 0.45808 0.7392 0.0
H1159 H 0.39935 0.45484 0.77877 0.0
H1160 H 0.36809 0.49294 0.72978 0.0
H1161 H 0.37489 0.53471 0.7342 0.0
H1162 H 0.36602 0.496 0.7055 0.0
H1163 H 0.37283 0.53703 0.70983 0.0
H1164 H 0.33471 0.47084 0.76634 0.0
H1165 H 0.36338 0.45285 0.73991 0.0
H1166 H 0.42768 0.53555 0.72355 0.0
H1167 H 0.41092 0.50106 0.70433 0.0
Li1168 Li 0.77207 0.39232 0.51157 0.0
Li1169 Li 0.76168 0.37574 0.526 0.0
Li1170 Li 0.75731 0.37553 0.50163 0.0
Li1171 Li 0.74755 0.39305 0.51605 0.0
C1172 C 0.78617 0.36886 0.50606 0.0
N1173 N 0.81041 0.36134 0.49571 0.0
C1174 C 0.79538 0.36232 0.514 0.0
C1175 C 0.78925 0.37149 0.49284 0.0
C1176 C 0.80759 0.35862 0.50859 0.0
C1177 C 0.80156 0.36763 0.48779 0.0
C1178 C 0.77161 0.39872 0.53845 0.0
C1179 C 0.77864 0.41288 0.55644 0.0
N1180 N 0.78992 0.40563 0.55763 0.0
C1181 C 0.78326 0.39139 0.53987 0.0
C1182 C 0.76925 0.40954 0.5468 0.0
C1183 C 0.7924 0.39505 0.54962 0.0
C1184 C 0.78501 0.41596 0.50424 0.0
N1185 N 0.78736 0.40353 0.50869 0.0
C1186 C 0.81074 0.40782 0.50908 0.0
C1187 C 0.79995 0.39942 0.51123 0.0
C1188 C 0.80865 0.42074 0.50446 0.0
C1189 C 0.7955 0.42474 0.50208 0.0
H1190 H 0.77492 0.41909 0.50245 0.0
H1191 H 0.80168 0.38964 0.51501 0.0
C1192 C 0.76749 0.35165 0.53893 0.0
N1193 N 0.76405 0.36447 0.54117 0.0
C1194 C 0.76931 0.34301 0.54954 0.0
C1195 C 0.76401 0.36088 0.56462 0.0
C1196 C 0.76222 0.36916 0.55371 0.0
C1197 C 0.76761 0.34757 0.56266 0.0
H1198 H 0.76877 0.34812 0.52886 0.0
H1199 H 0.75939 0.37935 0.55529 0.0
C1200 C 0.75509 0.39876 0.48636 0.0
N1201 N 0.7507 0.40634 0.4605 0.0
C1202 C 0.74227 0.4018 0.48212 0.0
C1203 C 0.76571 0.39981 0.47753 0.0
C1204 C 0.74024 0.40554 0.46899 0.0
C1205 C 0.76328 0.4036 0.46448 0.0
C1206 C 0.73463 0.37051 0.52548 0.0
C1207 C 0.72603 0.35994 0.52307 0.0
C1208 C 0.73337 0.37792 0.53717 0.0
C1209 C 0.71629 0.35695 0.53243 0.0
C1210 C 0.72351 0.37461 0.54628 0.0
N1211 N 0.71524 0.36428 0.54375 0.0
C1212 C 0.76189 0.35327 0.48457 0.0
C1213 C 0.74401 0.36681 0.47794 0.0
C1214 C 0.75987 0.34484 0.47369 0.0
N1215 N 0.75414 0.36415 0.4864 0.0
C1216 C 0.74163 0.35864 0.46692 0.0
C1217 C 0.74964 0.34747 0.46462 0.0
H1218 H 0.76959 0.35103 0.49164 0.0
H1219 H 0.73767 0.37522 0.47977 0.0
C1220 C 0.73455 0.41682 0.52377 0.0
N1221 N 0.73252 0.40459 0.51851 0.0
C1222 C 0.72389 0.42549 0.52575 0.0
C1223 C 0.70921 0.40885 0.51678 0.0
C1224 C 0.72015 0.4005 0.51498 0.0
C1225 C 0.71096 0.42156 0.52226 0.0
H1226 H 0.74448 0.41988 0.5264 0.0
H1227 H 0.71878 0.39074 0.51077 0.0
O1228 O 0.77422 0.37267 0.51125 0.0
O1229 O 0.76253 0.39535 0.52895 0.0
O1230 O 0.75727 0.39515 0.49921 0.0
O1231 O 0.74424 0.37351 0.51642 0.0
H1232 H 0.79314 0.36019 0.52426 0.0
H1233 H 0.78216 0.37638 0.48653 0.0
H1234 H 0.81484 0.35359 0.51463 0.0
H1235 H 0.80408 0.36961 0.47758 0.0
H1236 H 0.77694 0.42124 0.56298 0.0
H1237 H 0.78522 0.38295 0.53354 0.0
H1238 H 0.76026 0.4153 0.54586 0.0
H1239 H 0.80146 0.38946 0.55081 0.0
H1240 H 0.82064 0.40413 0.51092 0.0
H1241 H 0.79327 0.43464 0.49878 0.0
H1242 H 0.77185 0.33282 0.54745 0.0
H1243 H 0.76273 0.36495 0.57449 0.0
H1244 H 0.73396 0.40116 0.48888 0.0
H1245 H 0.77574 0.39785 0.48074 0.0
H1246 H 0.73036 0.40782 0.46553 0.0
H1247 H 0.77139 0.40441 0.45752 0.0
H1248 H 0.7269 0.35411 0.51407 0.0
H1249 H 0.73992 0.38614 0.5392 0.0
H1250 H 0.70957 0.34879 0.53071 0.0
H1251 H 0.72242 0.38025 0.55537 0.0
H1252 H 0.76611 0.3362 0.47255 0.0
H1253 H 0.73365 0.36113 0.46023 0.0
H1254 H 0.7258 0.43524 0.52981 0.0
H1255 H 0.69945 0.40529 0.51408 0.0
Li1256 Li 0.64326 0.99722 0.7645 0.0
Li1257 Li 0.62624 0.01224 0.77421 0.0
Li1258 Li 0.62658 1.00758 0.74934 0.0
Li1259 Li 0.64339 0.02191 0.76029 0.0
C1260 C 0.61843 0.98277 0.76384 0.0
N1261 N 0.60784 0.95761 0.76265 0.0
C1262 C 0.613 0.97705 0.77518 0.0
C1263 C 0.61827 0.97576 0.75185 0.0
C1264 C 0.60776 0.9643 0.7744 0.0
C1265 C 0.61293 0.96304 0.75146 0.0
C1266 C 0.64676 0.01333 0.79069 0.0
C1267 C 0.64452 0.02616 0.81081 0.0
N1268 N 0.64798 0.01538 0.81798 0.0
C1269 C 0.65037 1.00239 0.79824 0.0
C1270 C 0.64389 0.02534 0.797 0.0
C1271 C 0.65091 1.00363 0.81203 0.0
C1272 C 0.66724 0.98269 0.76308 0.0
N1273 N 0.65446 0.98196 0.76736 0.0
C1274 C 0.65827 0.96012 0.77556 0.0
C1275 C 0.64991 0.97098 0.77359 0.0
C1276 C 0.67151 0.96056 0.7712 0.0
C1277 C 0.67594 0.97208 0.76489 0.0
H1278 H 0.67067 0.99154 0.75823 0.0
H1279 H 0.63985 0.97067 0.7772 0.0
C1280 C 0.60598 0.02525 0.78927 0.0
N1281 N 0.6147 0.015 0.78935 0.0
C1282 C 0.59752 0.02752 0.80007 0.0
C1283 C 0.60712 1.00862 0.8109 0.0
C1284 C 0.61534 1.00669 0.79987 0.0
C1285 C 0.59802 0.01916 0.81113 0.0
H1286 H 0.60557 0.0317 0.78079 0.0
H1287 H 0.62225 0.99854 0.79971 0.0
C1288 C 0.65127 1.0011 0.73639 0.0
N1289 N 0.66137 0.98917 0.7138 0.0
C1290 C 0.65804 1.0086 0.72699 0.0
C1291 C 0.6498 0.9875 0.73438 0.0
C1292 C 0.66302 1.0024 0.71561 0.0
C1293 C 0.65493 0.98166 0.72288 0.0
C1294 C 0.62313 0.03753 0.75543 0.0
C1295 C 0.62072 0.04075 0.74221 0.0
C1296 C 0.62519 0.04758 0.76478 0.0
C1297 C 0.62053 0.05403 0.73854 0.0
C1298 C 0.62495 0.06073 0.76071 0.0
N1299 N 0.62265 0.06365 0.74778 0.0
C1300 C 0.60243 1.00222 0.73612 0.0
C1301 C 0.62031 1.0058 0.72139 0.0
C1302 C 0.59374 1.0002 0.72547 0.0
N1303 N 0.61546 1.0049 0.73394 0.0
C1304 C 0.612 1.00376 0.71045 0.0
C1305 C 0.59847 1.00091 0.71236 0.0
H1306 H 0.59876 1.00168 0.74618 0.0
H1307 H 0.63061 1.00814 0.71981 0.0
C1308 C 0.66221 0.04174 0.76784 0.0
N1309 N 0.65471 0.03711 0.75762 0.0
C1310 C 0.67045 0.05272 0.76617 0.0
C1311 C 0.66325 0.05398 0.74341 0.0
C1312 C 0.65512 0.04298 0.74554 0.0
C1313 C 0.67108 0.05903 0.75381 0.0
H1314 H 0.66186 0.03685 0.77731 0.0
H1315 H 0.64909 0.03915 0.73754 0.0
O1316 O 0.62354 0.99529 0.76444 0.0
O1317 O 0.64601 0.01226 0.77719 0.0
O1318 O 0.64632 1.00703 0.74758 0.0
O1319 O 0.62361 0.02459 0.75917 0.0
H1320 H 0.6129 0.98236 0.78451 0.0
H1321 H 0.62209 0.98012 0.74289 0.0
H1322 H 0.60361 0.95973 0.78312 0.0
H1323 H 0.61277 0.9575 0.74225 0.0
H1324 H 0.64222 0.03537 0.81583 0.0
H1325 H 0.65265 0.99303 0.79352 0.0
H1326 H 0.64106 0.03388 0.79129 0.0
H1327 H 0.65363 0.99523 0.81801 0.0
H1328 H 0.65445 0.95157 0.78068 0.0
H1329 H 0.68601 0.97286 0.76124 0.0
H1330 H 0.59079 0.03584 0.79983 0.0
H1331 H 0.60776 1.0018 0.81908 0.0
H1332 H 0.6594 0.0191 0.72844 0.0
H1333 H 0.64489 0.98148 0.74167 0.0
H1334 H 0.66822 1.0081 0.70822 0.0
H1335 H 0.65384 0.97115 0.7212 0.0
H1336 H 0.61912 0.03308 0.73485 0.0
H1337 H 0.62707 0.04524 0.77505 0.0
H1338 H 0.61874 0.05667 0.72833 0.0
H1339 H 0.62661 0.06861 0.76782 0.0
H1340 H 0.58339 0.99828 0.72753 0.0
H1341 H 0.61621 1.00428 0.7006 0.0
H1342 H 0.67645 0.0561 0.77442 0.0
H1343 H 0.66326 0.05856 0.73376 0.0
Li1344 Li 0.02192 0.26098 0.87959 0.0
Li1345 Li 1.0067 0.2707 0.89645 0.0
Li1346 Li 0.01149 0.24608 0.8964 0.0
Li1347 Li 0.99697 0.25636 0.87943 0.0
C1348 C 0.03668 0.26017 0.90352 0.0
N1349 N 0.06262 0.25781 0.91197 0.0
C1350 C 0.04286 0.27068 0.91012 0.0
C1351 C 0.04364 0.24841 0.90136 0.0
C1352 C 0.056 0.26931 0.91427 0.0
C1353 C 0.05676 0.24742 0.90567 0.0
C1354 C 1.00527 0.28669 0.87588 0.0
C1355 C 0.9916 0.30622 0.87686 0.0
N1356 N 1.00251 0.31381 0.87474 0.0
C1357 C 0.01634 0.29467 0.87362 0.0
C1358 C 0.99278 0.29248 0.87742 0.0
C1359 C 0.01474 0.30836 0.8731 0.0
C1360 C 0.03703 0.25898 0.85586 0.0
N1361 N 0.03727 0.2639 0.86845 0.0
C1362 C 0.05886 0.27307 0.86475 0.0
C1363 C 0.04787 0.27093 0.87294 0.0
C1364 C 0.05895 0.26808 0.85168 0.0
C1365 C 0.04778 0.26095 0.8473 0.0
H1366 H 0.02842 0.25358 0.85243 0.0
H1367 H 0.04779 0.27501 0.88286 0.0
C1368 C 0.99287 0.28667 0.9155 0.0
N1369 N 1.00385 0.28604 0.90769 0.0
C1370 C 0.9906 0.29765 0.92372 0.0
C1371 C 0.01103 0.30718 0.91582 0.0
C1372 C 0.01291 0.296 0.90777 0.0
C1373 C 0.99974 0.30815 0.92398 0.0
H1374 H 0.98585 0.27861 0.9154 0.0
H1375 H 0.02165 0.29525 0.9016 0.0
C1376 C 0.01611 0.2319 0.87212 0.0
N1377 N 0.02405 0.20745 0.86263 0.0
C1378 C 1.00668 0.22266 0.86792 0.0
C1379 C 0.02959 0.22878 0.87126 0.0
C1380 C 0.01089 0.21032 0.86323 0.0
C1381 C 0.0334 0.21635 0.86649 0.0
C1382 C 0.98127 0.25234 0.90055 0.0
C1383 C 0.97771 0.23979 0.90497 0.0
C1384 C 0.97139 0.26153 0.89754 0.0
C1385 C 0.96429 0.23657 0.90616 0.0
C1386 C 0.95809 0.25792 0.89883 0.0
N1387 N 0.95484 0.24562 0.90308 0.0
C1388 C 0.02035 0.23268 0.91949 0.0
C1389 C 0.01003 0.21862 0.90375 0.0
C1390 C 0.0226 0.222 0.92793 0.0
N1391 N 0.0143 0.23082 0.90757 0.0
C1392 C 0.01205 0.20767 0.9119 0.0
C1393 C 0.01846 0.20923 0.92419 0.0
H1394 H 0.02348 0.24248 0.92246 0.0
H1395 H 1.00485 0.21739 0.89448 0.0
C1396 C 0.97956 0.26234 0.85809 0.0
N1397 N 0.98187 0.25348 0.86789 0.0
C1398 C 0.96885 0.26064 0.84942 0.0
C1399 C 0.96297 0.24077 0.86108 0.0
C1400 C 0.97388 0.24277 0.86943 0.0
C1401 C 0.96035 0.24974 0.85085 0.0
H1402 H 0.98608 0.27074 0.85696 0.0
H1403 H 0.97598 0.23572 0.87712 0.0
O1404 O 0.02385 0.26138 0.89931 0.0
O1405 O 1.00668 0.27329 0.87668 0.0
O1406 O 0.01216 0.24405 0.87667 0.0
O1407 O 0.99435 0.25562 0.89921 0.0
H1408 H 0.03759 0.27982 0.91197 0.0
H1409 H 0.03892 0.24009 0.89656 0.0
H1410 H 0.06093 0.27739 0.91933 0.0
H1411 H 0.06226 0.23838 0.90406 0.0
H1412 H 0.982 0.31084 0.87811 0.0
H1413 H 0.02607 0.29034 0.8724 0.0
H1414 H 0.98411 0.28644 0.87909 0.0
H1415 H 0.02323 0.31466 0.87144 0.0
H1416 H 0.06723 0.27851 0.86869 0.0
H1417 H 0.04721 0.2571 0.83727 0.0
H1418 H 0.98168 0.29797 0.9297 0.0
H1419 H 0.01847 0.31489 0.9158 0.0
H1420 H 0.99623 0.22493 0.86838 0.0
H1421 H 0.03705 0.23592 0.87409 0.0
H1422 H 1.00369 0.20304 0.86005 0.0
H1423 H 0.0438 0.21381 0.86581 0.0
H1424 H 0.98522 0.23259 0.90742 0.0
H1425 H 0.97397 0.27129 0.89414 0.0
H1426 H 0.9614 0.22687 0.90952 0.0
H1427 H 0.95034 0.2649 0.89645 0.0
H1428 H 0.02768 0.22374 0.93723 0.0
H1429 H 0.0084 0.19811 0.90868 0.0
H1430 H 0.96717 0.26787 0.84175 0.0
H1431 H 0.9568 0.23213 0.86245 0.0
Li1432 Li 0.5211 0.76052 0.37866 0.0
Li1433 Li 0.50692 0.77131 0.39549 0.0
Li1434 Li 0.51104 0.746 0.39521 0.0
Li1435 Li 0.49763 0.7564 0.37767 0.0
C1436 C 0.53557 0.76476 0.40309 0.0
N1437 N 0.55979 0.77237 0.41342 0.0
C1438 C 0.53839 0.77814 0.40517 0.0
C1439 C 0.54498 0.75524 0.40651 0.0
C1440 C 0.55071 0.78179 0.41033 0.0
C1441 C 0.55719 0.75929 0.41164 0.0
C1442 C 0.51249 0.78184 0.36712 0.0
C1443 C 0.51874 0.78671 0.34463 0.0
N1444 N 0.52562 0.79743 0.34903 0.0
C1445 C 0.51956 0.79294 0.37144 0.0
C1446 C 0.51201 0.77871 0.35362 0.0
C1447 C 0.52615 0.80069 0.36213 0.0
C1448 C 0.5375 0.75653 0.35572 0.0
N1449 N 0.53669 0.76329 0.36742 0.0
C1450 C 0.55701 0.77456 0.36252 0.0
C1451 C 0.54616 0.77227 0.37083 0.0
C1452 C 0.55818 0.76765 0.35042 0.0
C1453 C 0.5482 0.75851 0.34709 0.0
H1454 H 0.5297 0.74974 0.35293 0.0
H1455 H 0.5452 0.77791 0.37986 0.0
C1456 C 0.5076 0.78571 0.41984 0.0
N1457 N 0.5038 0.78632 0.40692 0.0
C1458 C 0.50556 0.7965 0.42838 0.0
C1459 C 0.49555 0.80829 0.41025 0.0
C1460 C 0.49783 0.7973 0.40205 0.0
C1461 C 0.49945 0.80803 0.42364 0.0
H1462 H 0.51225 0.77683 0.42349 0.0
H1463 H 0.49487 0.79752 0.39175 0.0
C1464 C 0.51971 0.7326 0.37267 0.0
N1465 N 0.53531 0.71084 0.36703 0.0
C1466 C 0.51467 0.72223 0.36497 0.0
C1467 C 0.53267 0.73193 0.37747 0.0
C1468 C 0.52271 0.71129 0.36224 0.0
C1469 C 0.54041 0.72085 0.37452 0.0
C1470 C 0.48083 0.75433 0.39758 0.0
C1471 C 0.47552 0.74169 0.3991 0.0
C1472 C 0.47238 0.7651 0.39573 0.0
C1473 C 0.46178 0.74002 0.39867 0.0
C1474 C 0.4587 0.76301 0.39534 0.0
N1475 N 0.45373 0.75062 0.3968 0.0
C1476 C 0.51847 0.73314 0.41891 0.0
C1477 C 0.5101 0.71859 0.40245 0.0
C1478 C 0.52057 0.72259 0.42754 0.0
N1479 N 0.5134 0.73098 0.4066 0.0
C1480 C 0.5121 0.70774 0.41074 0.0
C1481 C 0.51745 0.70961 0.42351 0.0
H1482 H 0.52089 0.7431 0.42204 0.0
H1483 H 0.50595 0.7171 0.39269 0.0
C1484 C 0.47736 0.76414 0.35962 0.0
N1485 N 0.48243 0.75372 0.36636 0.0
C1486 C 0.46637 0.76246 0.3513 0.0
C1487 C 0.46585 0.7394 0.35715 0.0
C1488 C 0.47695 0.74149 0.36523 0.0
C1489 C 0.46038 0.74995 0.34996 0.0
H1490 H 0.48189 0.77377 0.36066 0.0
H1491 H 0.48115 0.73336 0.37071 0.0
O1492 O 0.52344 0.76099 0.3983 0.0
O1493 O 0.50633 0.7739 0.37611 0.0
O1494 O 0.51187 0.74327 0.37558 0.0
O1495 O 0.49425 0.75612 0.39757 0.0
H1496 H 0.53122 0.78565 0.40263 0.0
H1497 H 0.54286 0.74483 0.40532 0.0
H1498 H 0.55307 0.79211 0.41186 0.0
H1499 H 0.56458 0.75203 0.41428 0.0
H1500 H 0.51855 0.78436 0.33415 0.0
H1501 H 0.52009 0.79543 0.38187 0.0
H1502 H 0.50665 0.77009 0.35015 0.0
H1503 H 0.53173 0.80926 0.36532 0.0
H1504 H 0.56444 0.78166 0.36559 0.0
H1505 H 0.54847 0.75314 0.33778 0.0
H1506 H 0.50857 0.79573 0.43864 0.0
H1507 H 0.49094 0.81698 0.40609 0.0
H1508 H 0.50464 0.7226 0.36121 0.0
H1509 H 0.53673 0.73993 0.38333 0.0
H1510 H 0.51894 0.70317 0.35632 0.0
H1511 H 0.55047 0.72021 0.37816 0.0
H1512 H 0.48197 0.73326 0.40048 0.0
H1513 H 0.47638 0.77494 0.39446 0.0
H1514 H 0.45752 0.73028 0.39977 0.0
H1515 H 0.45203 0.77124 0.39383 0.0
H1516 H 0.52447 0.72464 0.43734 0.0
H1517 H 0.50965 0.69796 0.40708 0.0
H1518 H 0.46276 0.77088 0.34584 0.0
H1519 H 0.46153 0.72962 0.35669 0.0
Li1520 Li 0.01377 0.77357 0.62839 0.0
Li1521 Li 0.99876 0.76398 0.64623 0.0
Li1522 Li 0.02229 0.75931 0.64572 0.0
Li1523 Li 0.00855 0.74925 0.62887 0.0
C1524 C 0.02133 0.78215 0.6575 0.0
N1525 N 0.03801 0.79151 0.67713 0.0
C1526 C 0.0178 0.7809 0.67083 0.0
C1527 C 0.0333 0.78822 0.65414 0.0
C1528 C 0.02638 0.78569 0.68061 0.0
C1529 C 0.04161 0.79287 0.66422 0.0
C1530 C 0.98553 0.76947 0.62042 0.0
C1531 C 0.96522 0.76672 0.60811 0.0
N1532 N 0.96371 0.78007 0.60785 0.0
C1533 C 0.98379 0.78316 0.62 0.0
C1534 C 0.97621 0.76117 0.61439 0.0
C1535 C 0.97268 0.78833 0.61361 0.0
C1536 C 0.01699 0.7862 0.6035 0.0
N1537 N 0.01668 0.78834 0.61682 0.0
C1538 C 0.02016 0.81151 0.61366 0.0
C1539 C 0.01816 0.8007 0.62199 0.0
C1540 C 0.02055 0.80964 0.59983 0.0
C1541 C 0.01889 0.79674 0.59479 0.0
H1542 H 0.01574 0.77628 0.59963 0.0
H1543 H 0.01768 0.8022 0.63261 0.0
C1544 C 0.98355 0.76131 0.66976 0.0
N1545 N 0.98346 0.767 0.65759 0.0
C1546 C 0.97283 0.76298 0.67845 0.0
C1547 C 0.96209 0.77645 0.66204 0.0
C1548 C 0.97301 0.77451 0.65367 0.0
C1549 C 0.96186 0.77064 0.67466 0.0
H1550 H 0.99197 0.75544 0.67275 0.0
H1551 H 0.97312 0.77911 0.64409 0.0
C1552 C 0.03537 0.74894 0.62323 0.0
N1553 N 0.05404 0.72998 0.61676 0.0
C1554 C 0.0363 0.73737 0.63064 0.0
C1555 C 0.04393 0.75087 0.61253 0.0
C1556 C 0.0458 0.72791 0.62721 0.0
C1557 C 0.05331 0.74116 0.60941 0.0
C1558 C 0.99848 0.73704 0.65133 0.0
C1559 C 1.00136 0.72719 0.66051 0.0
C1560 C 0.98614 0.73714 0.64504 0.0
C1561 C 0.99183 0.71757 0.66323 0.0
C1562 C 0.97687 0.72736 0.64804 0.0
N1563 N 0.97989 0.71785 0.657 0.0
C1564 C 0.03523 0.75152 0.66947 0.0
C1565 C 0.0499 0.75938 0.653 0.0
C1566 C 0.04583 0.74937 0.67814 0.0
N1567 N 0.03742 0.75644 0.65716 0.0
C1568 C 0.0608 0.75731 0.66132 0.0
C1569 C 0.05888 0.75222 0.67412 0.0
H1570 H 0.02521 0.74936 0.6726 0.0
H1571 H 0.05141 0.76333 0.64319 0.0
C1572 C 1.00187 0.73627 0.60469 0.0
N1573 N 1.00552 0.73412 0.61746 0.0
C1574 C 0.99964 0.72563 0.59601 0.0
C1575 C 1.0051 0.71071 0.61373 0.0
C1576 C 1.00723 0.72164 0.62205 0.0
C1577 C 1.00124 0.71259 0.60048 0.0
H1578 H 1.00073 0.74629 0.60121 0.0
H1579 H 0.01028 0.72012 0.63218 0.0
O1580 O 0.01326 0.77716 0.64781 0.0
O1581 O 0.99646 0.76422 0.62641 0.0
O1582 O 0.0261 0.75834 0.62633 0.0
O1583 O 1.00777 0.74647 0.64856 0.0
H1584 H 0.0086 0.77618 0.67358 0.0
H1585 H 0.03625 0.78912 0.64387 0.0
H1586 H 0.02381 0.78473 0.69097 0.0
H1587 H 0.05096 0.7975 0.66177 0.0
H1588 H 0.95792 0.76042 0.60342 0.0
H1589 H 0.99084 0.78973 0.62472 0.0
H1590 H 0.97743 0.75056 0.61456 0.0
H1591 H 0.97118 0.7989 0.61325 0.0
H1592 H 0.02118 0.82127 0.61801 0.0
H1593 H 0.01923 0.79478 0.58423 0.0
H1594 H 0.9731 0.75816 0.68799 0.0
H1595 H 0.954 0.78263 0.65873 0.0
H1596 H 0.02977 0.73571 0.63897 0.0
H1597 H 0.04332 0.75977 0.60668 0.0
H1598 H 0.04663 0.71891 0.63286 0.0
H1599 H 0.06001 0.74252 0.60115 0.0
H1600 H 0.01088 0.72698 0.66545 0.0
H1601 H 0.98371 0.74469 0.63795 0.0
H1602 H 0.99394 0.70988 0.67031 0.0
H1603 H 0.96729 0.72732 0.64325 0.0
H1604 H 0.04376 0.74566 0.68796 0.0
H1605 H 0.07064 0.75951 0.65766 0.0
H1606 H 0.99689 0.72762 0.58585 0.0
H1607 H 1.00632 0.70089 0.61771 0.0
Li1608 Li 0.51217 0.27334 0.1275 0.0
Li1609 Li 0.49751 0.26306 0.14439 0.0
Li1610 Li 0.52247 0.25846 0.14439 0.0
Li1611 Li 0.50746 0.24871 0.12739 0.0
C1612 C 0.51609 0.2877 0.15169 0.0
N1613 N 0.52298 0.31251 0.16099 0.0
C1614 C 0.50626 0.29679 0.15524 0.0
C1615 C 0.52944 0.29115 0.1531 0.0
C1616 C 0.50994 0.30931 0.15986 0.0
C1617 C 0.53272 0.30376 0.15776 0.0
C1618 C 0.48196 0.26671 0.12293 0.0
C1619 C 0.45889 0.26061 0.12433 0.0
N1620 N 0.45544 0.27271 0.1197 0.0
C1621 C 0.4782 0.27905 0.11811 0.0
C1622 C 0.47225 0.25737 0.12599 0.0
C1623 C 0.46473 0.2819 0.11657 0.0
C1624 C 0.52183 0.28689 0.10481 0.0
N1625 N 0.51502 0.28861 0.11634 0.0
C1626 C 0.51198 0.31159 0.11155 0.0
C1627 C 0.51 0.30065 0.11974 0.0
C1628 C 0.5192 0.31016 0.09969 0.0
C1629 C 0.52412 0.29756 0.09637 0.0
H1630 H 0.52544 0.27719 0.10208 0.0
H1631 H 0.50428 0.30178 0.12872 0.0
C1632 C 0.48059 0.25737 0.16615 0.0
N1633 N 0.48235 0.26584 0.1559 0.0
C1634 C 0.46987 0.25892 0.17485 0.0
C1635 C 0.46286 0.27787 0.16232 0.0
C1636 C 0.47381 0.27604 0.15397 0.0
C1637 C 0.46072 0.26926 0.173 0.0
H1638 H 0.4876 0.24943 0.16764 0.0
H1639 H 0.47546 0.28281 0.14591 0.0
C1640 C 0.53754 0.2593 0.12075 0.0
N1641 N 0.56367 0.26171 0.1129 0.0
C1642 C 0.5438 0.24892 0.114 0.0
C1643 C 0.54452 0.27095 0.12339 0.0
C1644 C 0.55703 0.25032 0.11015 0.0
C1645 C 0.55773 0.27196 0.11937 0.0
C1646 C 0.50585 0.23274 0.14807 0.0
C1647 C 0.51695 0.22478 0.15017 0.0
C1648 C 0.49333 0.22696 0.14686 0.0
C1649 C 0.51536 0.21109 0.15084 0.0
C1650 C 0.49215 0.21323 0.14757 0.0
N1651 N 0.5031 0.20565 0.14952 0.0
C1652 C 0.53708 0.26032 0.16834 0.0
C1653 C 0.54846 0.24873 0.15133 0.0
C1654 C 0.54765 0.25835 0.1771 0.0
N1655 N 0.53766 0.25557 0.1557 0.0
C1656 C 0.5593 0.24665 0.15971 0.0
C1657 C 0.559 0.25146 0.17282 0.0
H1658 H 0.52835 0.26563 0.17164 0.0
H1659 H 0.54862 0.2447 0.14139 0.0
C1660 C 0.49384 0.23287 0.10818 0.0
N1661 N 0.50473 0.23339 0.11611 0.0
C1662 C 0.49159 0.22192 0.09992 0.0
C1663 C 0.51188 0.21223 0.10797 0.0
C1664 C 0.51374 0.22339 0.11606 0.0
C1665 C 0.50066 0.21135 0.09973 0.0
H1666 H 0.48693 0.24101 0.10815 0.0
H1667 H 0.5224 0.22405 0.12234 0.0
O1668 O 0.51266 0.27536 0.14724 0.0
O1669 O 0.49509 0.26378 0.1246 0.0
O1670 O 0.52462 0.25805 0.12469 0.0
O1671 O 0.50724 0.24613 0.14715 0.0
H1672 H 0.49589 0.29425 0.15434 0.0
H1673 H 0.53719 0.28414 0.15075 0.0
H1674 H 0.50242 0.31647 0.16254 0.0
H1675 H 0.54301 0.30657 0.15886 0.0
H1676 H 0.45127 0.2535 0.12674 0.0
H1677 H 0.48558 0.28636 0.11561 0.0
H1678 H 0.47499 0.24776 0.1297 0.0
H1679 H 0.46167 0.29144 0.11289 0.0
H1680 H 0.50801 0.32109 0.11456 0.0
H1681 H 0.5295 0.2959 0.08721 0.0
H1682 H 0.46891 0.25217 0.18306 0.0
H1683 H 0.45608 0.28588 0.1603 0.0
H1684 H 0.53851 0.23987 0.11181 0.0
H1685 H 0.53975 0.27916 0.12835 0.0
H1686 H 0.56202 0.24234 0.10497 0.0
H1687 H 0.56325 0.28092 0.12135 0.0
H1688 H 0.52671 0.22911 0.15114 0.0
H1689 H 0.48462 0.233 0.14535 0.0
H1690 H 0.52388 0.20479 0.15238 0.0
H1691 H 0.48253 0.20861 0.14658 0.0
H1692 H 0.54699 0.26231 0.18709 0.0
H1693 H 0.56773 0.24108 0.15604 0.0
H1694 H 0.48293 0.22185 0.09359 0.0
H1695 H 0.5191 0.20432 0.10828 0.0
H1696 H 0.21063 0.76379 0.87587 0.0
H1697 H 0.21595 0.77792 0.89487 0.0
H1698 H 0.25059 0.7923 0.87449 0.0
H1699 H 0.24529 0.77818 0.85538 0.0
H1700 H 0.256 0.78786 0.9003 0.0
H1701 H 0.22224 0.8108 0.87619 0.0
H1702 H 0.20063 0.81332 0.8651 0.0
H1703 H 0.18054 0.80539 0.90172 0.0
H1704 H 0.20205 0.80264 0.91299 0.0
H1705 H 0.2666 0.84354 0.94273 0.0
H1706 H 0.26251 0.82911 0.92364 0.0
H1707 H 0.22657 0.81509 0.94194 0.0
H1708 H 0.23026 0.82993 0.96078 0.0
H1709 H 0.22219 0.81961 0.91677 0.0
H1710 H 0.25583 0.79643 0.9409 0.0
H1711 H 0.2774 0.79374 0.95205 0.0
H1712 H 0.29765 0.802 0.91559 0.0
H1713 H 0.27619 0.80491 0.90426 0.0
C1714 C 0.21935 0.76999 0.87538 0.0
C1715 C 0.22745 0.76991 0.864 0.0
C1716 C 0.2224 0.77807 0.88628 0.0
C1717 C 0.23356 0.78638 0.88606 0.0
C1718 C 0.24191 0.78602 0.8749 0.0
C1719 C 0.23888 0.7779 0.86399 0.0
C1720 C 0.23634 0.79558 0.89737 0.0
C1721 C 0.24867 0.79493 0.90379 0.0
C1722 C 0.22671 0.80465 0.90214 0.0
C1723 C 0.21376 0.8064 0.8954 0.0
C1724 C 0.21322 0.80951 0.88186 0.0
C1725 C 0.20098 0.81099 0.87554 0.0
C1726 C 0.18922 0.80949 0.88269 0.0
C1727 C 0.18966 0.80653 0.89619 0.0
C1728 C 0.20187 0.80502 0.90255 0.0
C1729 C 0.25775 0.83749 0.94267 0.0
C1730 C 0.24879 0.83793 0.95339 0.0
C1731 C 0.2555 0.8291 0.93178 0.0
C1732 C 0.24431 0.82083 0.93137 0.0
C1733 C 0.23531 0.82131 0.942 0.0
C1734 C 0.23752 0.82973 0.95286 0.0
C1735 C 0.24182 0.81184 0.91981 0.0
C1736 C 0.22954 0.81255 0.91331 0.0
C1737 C 0.25149 0.80282 0.91499 0.0
C1738 C 0.26441 0.80102 0.92177 0.0
C1739 C 0.26489 0.79777 0.93529 0.0
C1740 C 0.27709 0.79619 0.94163 0.0
C1741 C 0.28889 0.79773 0.93454 0.0
C1742 C 0.2885 0.80082 0.92108 0.0
C1743 C 0.27632 0.80243 0.91469 0.0
H1744 H 0.29833 0.79651 0.93947 0.0
H1745 H 0.17976 0.81063 0.87779 0.0
H1746 H 0.03985 0.54592 0.42233 0.0
H1747 H 0.05345 0.54097 0.4029 0.0
H1748 H 0.01846 0.5299 0.38097 0.0
H1749 H 1.0047 0.53492 0.40043 0.0
H1750 H 0.03873 0.51292 0.37592 0.0
H1751 H 0.03288 0.5598 0.37616 0.0
H1752 H 0.03312 0.58229 0.38573 0.0
H1753 H 0.07508 0.57936 0.3922 0.0
H1754 H 0.07506 0.55677 0.38284 0.0
H1755 H 0.0702 0.51526 0.31247 0.0
H1756 H 0.05549 0.51916 0.33139 0.0
H1757 H 0.08903 0.53092 0.35519 0.0
H1758 H 0.10374 0.52739 0.33621 0.0
H1759 H 0.0687 0.54767 0.35874 0.0
H1760 H 0.0744 0.50055 0.35878 0.0
H1761 H 0.07404 0.47807 0.34918 0.0
H1762 H 0.03224 0.48154 0.34195 0.0
H1763 H 0.03238 0.50412 0.35135 0.0
C1764 C 0.035 0.5425 0.41336 0.0
C1765 C 0.02113 0.54099 0.41293 0.0
C1766 C 0.04282 0.53965 0.40225 0.0
C1767 C 0.03699 0.53528 0.39036 0.0
C1768 C 0.0232 0.5333 0.39 0.0
C1769 C 0.01534 0.53615 0.40116 0.0
C1770 C 0.04531 0.53303 0.3783 0.0
C1771 C 0.04513 0.52058 0.37205 0.0
C1772 C 0.05387 0.54293 0.37334 0.0
C1773 C 0.05394 0.55654 0.37891 0.0
C1774 C 0.04214 0.56391 0.37972 0.0
C1775 C 0.04224 0.57669 0.38509 0.0
C1776 C 0.0541 0.58224 0.3896 0.0
C1777 C 0.0659 0.57504 0.38871 0.0
C1778 C 0.06585 0.56225 0.38337 0.0
C1779 C 0.07445 0.51877 0.32169 0.0
C1780 C 0.0882 0.52098 0.32278 0.0
C1781 C 0.06603 0.52087 0.33256 0.0
C1782 C 0.07114 0.52521 0.3448 0.0
C1783 C 0.08483 0.52753 0.34589 0.0
C1784 C 0.09326 0.5254 0.33504 0.0
C1785 C 0.06224 0.52752 0.35643 0.0
C1786 C 0.06228 0.54 0.36259 0.0
C1787 C 0.05355 0.51766 0.36126 0.0
C1788 C 0.05343 0.50408 0.35564 0.0
C1789 C 0.06515 0.49656 0.35504 0.0
C1790 C 0.06498 0.48379 0.34965 0.0
C1791 C 0.05313 0.4784 0.34492 0.0
C1792 C 0.04142 0.48574 0.3456 0.0
C1793 C 0.04153 0.49852 0.35097 0.0
H1794 H 0.05302 0.46851 0.34076 0.0
H1795 H 0.05416 0.59213 0.39375 0.0
H1796 H 0.80299 0.7468 0.86304 0.0
H1797 H 0.80082 0.73068 0.88087 0.0
H1798 H 0.7602 0.74261 0.88695 0.0
H1799 H 0.76224 0.75861 0.86911 0.0
H1800 H 0.77292 0.74108 0.9101 0.0
H1801 H 0.76833 0.7132 0.87143 0.0
H1802 H 0.77516 0.70361 0.84994 0.0
H1803 H 0.81048 0.68813 0.86775 0.0
H1804 H 0.80395 0.69778 0.88933 0.0
H1805 H 0.75038 0.69013 0.95183 0.0
H1806 H 0.75372 0.70514 0.9333 0.0
H1807 H 0.79337 0.69004 0.92788 0.0
H1808 H 0.78999 0.67483 0.94633 0.0
H1809 H 0.78228 0.69325 0.90458 0.0
H1810 H 0.78704 0.72057 0.94318 0.0
H1811 H 0.78066 0.73024 0.96478 0.0
H1812 H 0.74579 0.74703 0.94728 0.0
H1813 H 0.75187 0.73731 0.92561 0.0
C1814 C 0.79354 0.74589 0.86805 0.0
C1815 C 0.78281 0.75409 0.86463 0.0
C1816 C 0.79232 0.73666 0.87828 0.0
C1817 C 0.78032 0.73536 0.88526 0.0
C1818 C 0.76959 0.74346 0.88179 0.0
C1819 C 0.7708 0.75266 0.87159 0.0
C1820 C 0.77894 0.72581 0.89639 0.0
C1821 C 0.77482 0.7306 0.90884 0.0
C1822 C 0.7818 0.71217 0.89491 0.0
C1823 C 0.78572 0.70634 0.88196 0.0
C1824 C 0.77761 0.70785 0.87074 0.0
C1825 C 0.78141 0.70238 0.85855 0.0
C1826 C 0.79326 0.6953 0.85747 0.0
C1827 C 0.80131 0.69363 0.8686 0.0
C1828 C 0.79756 0.69909 0.88081 0.0
C1829 C 0.75985 0.69005 0.94675 0.0
C1830 C 0.76995 0.68132 0.95065 0.0
C1831 C 0.76176 0.69867 0.93614 0.0
C1832 C 0.7739 0.69895 0.92928 0.0
C1833 C 0.78392 0.69007 0.93299 0.0
C1834 C 0.78197 0.68135 0.94355 0.0
C1835 C 0.77611 0.7085 0.91827 0.0
C1836 C 0.78042 0.70374 0.90586 0.0
C1837 C 0.77351 0.7222 0.91979 0.0
C1838 C 0.76985 0.72811 0.9328 0.0
C1839 C 0.77796 0.72625 0.94396 0.0
C1840 C 0.77441 0.73175 0.95621 0.0
C1841 C 0.76281 0.73922 0.95741 0.0
C1842 C 0.75476 0.74123 0.94634 0.0
C1843 C 0.75826 0.73574 0.93407 0.0
H1844 H 0.76007 0.74347 0.9669 0.0
H1845 H 0.79619 0.69107 0.84803 0.0
H1846 H 1.00645 0.96262 0.39686 0.0
H1847 H 0.99216 0.9679 0.3781 0.0
H1848 H 0.97412 0.99939 0.40083 0.0
H1849 H 0.98814 0.99391 0.4198 0.0
H1850 H 0.95556 0.98518 0.38829 0.0
H1851 H 0.99624 1.00587 0.37585 0.0
H1852 H 0.02025 1.00732 0.37146 0.0
H1853 H 0.01679 0.97762 0.34103 0.0
H1854 H 0.99278 0.97586 0.34536 0.0
H1855 H 0.92192 0.01464 0.3339 0.0
H1856 H 0.93668 0.01064 0.35263 0.0
H1857 H 0.95468 0.97814 0.3314 0.0
H1858 H 0.93982 0.98192 0.31269 0.0
H1859 H 0.97331 0.99353 0.34326 0.0
H1860 H 0.93264 0.97259 0.35618 0.0
H1861 H 0.90861 0.97136 0.36055 0.0
H1862 H 0.91213 1.00187 0.39016 0.0
H1863 H 0.93616 1.00342 0.38582 0.0
C1864 C 0.99942 0.97064 0.39791 0.0
C1865 C 0.99848 0.97782 0.40989 0.0
C1866 C 0.99132 0.97374 0.3871 0.0
C1867 C 0.98211 0.98414 0.38796 0.0
C1868 C 0.98116 0.99135 0.39989 0.0
C1869 C 0.98928 0.98827 0.4107 0.0
C1870 C 0.97326 0.98725 0.37653 0.0
C1871 C 0.95947 0.98721 0.3785 0.0
C1872 C 0.97829 0.98962 0.36365 0.0
C1873 C 0.99273 0.99064 0.36102 0.0
C1874 C 1.00062 0.99957 0.3683 0.0
C1875 C 0.01422 1.00046 0.36581 0.0
C1876 C 0.02005 0.99254 0.356 0.0
C1877 C 0.01227 0.98373 0.34864 0.0
C1878 C 0.99866 0.98279 0.3511 0.0
C1879 C 0.9289 1.00654 0.33323 0.0
C1880 C 0.92958 0.99858 0.32173 0.0
C1881 C 0.93739 1.00429 0.34397 0.0
C1882 C 0.94674 0.99401 0.34351 0.0
C1883 C 0.94758 0.98616 0.33199 0.0
C1884 C 0.93908 0.98837 0.32126 0.0
C1885 C 0.95563 0.99142 0.35502 0.0
C1886 C 0.96942 0.99154 0.35307 0.0
C1887 C 0.95061 0.98915 0.36793 0.0
C1888 C 0.93617 0.98822 0.37058 0.0
C1889 C 0.92827 0.97911 0.36354 0.0
C1890 C 0.91465 0.97834 0.36603 0.0
C1891 C 0.90884 0.98656 0.3756 0.0
C1892 C 0.91664 0.99553 0.38273 0.0
C1893 C 0.93026 0.99635 0.38027 0.0
H1894 H 0.8983 0.98594 0.37751 0.0
H1895 H 0.03058 0.99325 0.35408 0.0
H1896 H 0.24678 0.24515 0.66638 0.0
H1897 H 0.25209 0.23113 0.64721 0.0
H1898 H 0.21225 0.23594 0.63257 0.0
H1899 H 0.20691 0.25002 0.65161 0.0
H1900 H 0.2194 0.21054 0.6316 0.0
H1901 H 0.2389 0.25176 0.61826 0.0
H1902 H 0.2534 0.27124 0.62064 0.0
H1903 H 0.28754 0.24601 0.62286 0.0
H1904 H 0.27322 0.22636 0.62068 0.0
H1905 H 0.22696 0.18379 0.56704 0.0
H1906 H 0.22304 0.1984 0.58604 0.0
H1907 H 0.26381 0.19389 0.59803 0.0
H1908 H 0.26783 0.17938 0.57891 0.0
H1909 H 0.25682 0.21877 0.60082 0.0
H1910 H 0.23777 0.17763 0.61399 0.0
H1911 H 0.22356 0.15792 0.61188 0.0
H1912 H 0.18895 0.18258 0.61052 0.0
H1913 H 0.20298 0.20246 0.61244 0.0
C1914 C 0.2392 0.24339 0.65899 0.0
C1915 C 0.22639 0.24871 0.66062 0.0
C1916 C 0.24225 0.23533 0.64802 0.0
C1917 C 0.23259 0.23248 0.63837 0.0
C1918 C 0.21986 0.23791 0.6399 0.0
C1919 C 0.21681 0.24594 0.65084 0.0
C1920 C 0.23556 0.22357 0.62687 0.0
C1921 C 0.22748 0.21245 0.62478 0.0
C1922 C 0.24635 0.22578 0.61815 0.0
C1923 C 0.25497 0.23759 0.61944 0.0
C1924 C 0.24949 0.25036 0.61937 0.0
C1925 C 0.25768 0.26144 0.62066 0.0
C1926 C 0.27138 0.25986 0.62194 0.0
C1927 C 0.27692 0.24721 0.62189 0.0
C1928 C 0.26878 0.23611 0.62061 0.0
C1929 C 0.23507 0.18581 0.57378 0.0
C1930 C 0.24769 0.18032 0.57147 0.0
C1931 C 0.23282 0.19419 0.58466 0.0
C1932 C 0.24307 0.19713 0.59365 0.0
C1933 C 0.25572 0.1918 0.59128 0.0
C1934 C 0.25802 0.1835 0.58032 0.0
C1935 C 0.24057 0.20579 0.60548 0.0
C1936 C 0.24875 0.21684 0.60765 0.0
C1937 C 0.22991 0.20348 0.61433 0.0
C1938 C 0.22144 0.19154 0.61324 0.0
C1939 C 0.22714 0.17885 0.61315 0.0
C1940 C 0.21911 0.16765 0.612 0.0
C1941 C 0.20536 0.169 0.61103 0.0
C1942 C 0.1996 0.18155 0.61125 0.0
C1943 C 0.20759 0.19279 0.61238 0.0
H1944 H 0.19916 0.16031 0.61014 0.0
H1945 H 0.2777 0.26845 0.62293 0.0
H1946 H 0.51101 0.54565 0.62475 0.0
H1947 H 0.49717 0.54076 0.64402 0.0
H1948 H 0.4654 0.5285 0.61815 0.0
H1949 H 0.47917 0.53333 0.59885 0.0
H1950 H 0.4561 0.54424 0.63716 0.0
H1951 H 0.48424 0.50599 0.63575 0.0
H1952 H 0.50549 0.49395 0.63513 0.0
H1953 H 0.51662 0.51148 0.67239 0.0
H1954 H 0.49549 0.52376 0.67315 0.0
H1955 H 0.4147 0.51525 0.68579 0.0
H1956 H 0.42919 0.51875 0.66672 0.0
H1957 H 0.46082 0.53079 0.69288 0.0
H1958 H 0.44656 0.52681 0.71204 0.0
H1959 H 0.4703 0.51515 0.67382 0.0
H1960 H 0.44241 0.5535 0.67523 0.0
H1961 H 0.42125 0.56568 0.67596 0.0
H1962 H 0.4098 0.5482 0.63878 0.0
H1963 H 0.43084 0.53577 0.63792 0.0
C1964 C 0.50115 0.54173 0.62315 0.0
C1965 C 0.49623 0.5399 0.6102 0.0
C1966 C 0.49322 0.53895 0.6342 0.0
C1967 C 0.48023 0.53416 0.63259 0.0
C1968 C 0.47535 0.53223 0.61969 0.0
C1969 C 0.48324 0.53503 0.60864 0.0
C1970 C 0.47158 0.53151 0.64431 0.0
C1971 C 0.45914 0.53772 0.64507 0.0
C1972 C 0.47564 0.52329 0.65486 0.0
C1973 C 0.48834 0.51589 0.65444 0.0
C1974 C 0.49126 0.50736 0.64376 0.0
C1975 C 0.50328 0.50048 0.64339 0.0
C1976 C 0.51241 0.50198 0.65369 0.0
C1977 C 0.50954 0.51034 0.66441 0.0
C1978 C 0.49754 0.51725 0.66482 0.0
C1979 C 0.42478 0.51851 0.68753 0.0
C1980 C 0.42939 0.52079 0.70052 0.0
C1981 C 0.43303 0.52065 0.67657 0.0
C1982 C 0.44608 0.52522 0.6783 0.0
C1983 C 0.45078 0.52732 0.69125 0.0
C1984 C 0.44255 0.52516 0.70221 0.0
C1985 C 0.4548 0.52784 0.66663 0.0
C1986 C 0.46726 0.52165 0.66589 0.0
C1987 C 0.45078 0.53611 0.65611 0.0
C1988 C 0.43814 0.5436 0.65658 0.0
C1989 C 0.43534 0.55217 0.66726 0.0
C1990 C 0.42337 0.55914 0.66769 0.0
C1991 C 0.41417 0.55769 0.65744 0.0
C1992 C 0.41693 0.5493 0.64672 0.0
C1993 C 0.42888 0.5423 0.64625 0.0
H1994 H 0.40491 0.56309 0.65779 0.0
H1995 H 0.52171 0.49664 0.65339 0.0
H1996 H 0.76671 0.27967 0.67113 0.0
H1997 H 0.76464 0.29503 0.6527 0.0
H1998 H 0.79525 0.27396 0.63143 0.0
H1999 H 0.79738 0.25853 0.64987 0.0
H2000 H 0.79845 0.30012 0.62881 0.0
H2001 H 0.76218 0.26971 0.6239 0.0
H2002 H 0.74238 0.25746 0.63117 0.0
H2003 H 0.72183 0.29401 0.63823 0.0
H2004 H 0.74159 0.30649 0.63117 0.0
H2005 H 0.78594 0.3276 0.56544 0.0
H2006 H 0.78879 0.31266 0.58408 0.0
H2007 H 0.75698 0.33231 0.60495 0.0
H2008 H 0.7536 0.34685 0.58607 0.0
H2009 H 0.75454 0.3068 0.60779 0.0
H2010 H 0.79063 0.3373 0.61273 0.0
H2011 H 0.81042 0.34969 0.60567 0.0
H2012 H 0.83128 0.31329 0.59874 0.0
H2013 H 0.81154 0.30067 0.60561 0.0
C2014 C 0.77297 0.27825 0.66252 0.0
C2015 C 0.78214 0.26777 0.66198 0.0
C2016 C 0.77178 0.28707 0.65196 0.0
C2017 C 0.77963 0.28556 0.64053 0.0
C2018 C 0.78906 0.27534 0.64011 0.0
C2019 C 0.79029 0.26654 0.6507 0.0
C2020 C 0.77787 0.29451 0.62897 0.0
C2021 C 0.78888 0.30145 0.6241 0.0
C2022 C 0.76533 0.29651 0.62297 0.0
C2023 C 0.75341 0.28903 0.62712 0.0
C2024 C 0.75347 0.27514 0.62709 0.0
C2025 C 0.74225 0.26815 0.63116 0.0
C2026 C 0.73086 0.27496 0.63519 0.0
C2027 C 0.73066 0.28876 0.63512 0.0
C2028 C 0.74187 0.29579 0.63108 0.0
C2029 C 0.77943 0.32869 0.57391 0.0
C2030 C 0.76954 0.33852 0.57417 0.0
C2031 C 0.7812 0.32021 0.58468 0.0
C2032 C 0.77325 0.32144 0.59608 0.0
C2033 C 0.7633 0.33117 0.59633 0.0
C2034 C 0.76147 0.33959 0.58554 0.0
C2035 C 0.77512 0.31247 0.60763 0.0
C2036 C 0.76412 0.30551 0.61249 0.0
C2037 C 0.78766 0.31048 0.61363 0.0
C2038 C 0.79956 0.31804 0.60956 0.0
C2039 C 0.79941 0.33194 0.60961 0.0
C2040 C 0.81062 0.339 0.60566 0.0
C2041 C 0.82209 0.33228 0.60173 0.0
C2042 C 0.82238 0.31848 0.60178 0.0
C2043 C 0.81119 0.31137 0.60571 0.0
H2044 H 0.83076 0.33777 0.59867 0.0
H2045 H 0.72218 0.26953 0.63834 0.0
H2046 H 0.51073 0.96737 0.62428 0.0
H2047 H 0.52466 0.97201 0.64358 0.0
H2048 H 0.5487 0.99821 0.62014 0.0
H2049 H 0.53485 0.99353 0.60078 0.0
H2050 H 0.56414 0.98309 0.63433 0.0
H2051 H 0.52611 0.00977 0.64385 0.0
H2052 H 0.50237 0.01465 0.64708 0.0
H2053 H 0.50069 0.98697 0.67904 0.0
H2054 H 0.5244 0.98178 0.67589 0.0
H2055 H 0.5987 0.01333 0.68817 0.0
H2056 H 0.58414 0.00945 0.66921 0.0
H2057 H 0.56275 0.98007 0.69131 0.0
H2058 H 0.57749 0.98359 0.71022 0.0
H2059 H 0.54596 0.99702 0.67796 0.0
H2060 H 0.58428 0.97049 0.66807 0.0
H2061 H 0.60814 0.96621 0.66484 0.0
H2062 H 0.60927 0.99452 0.63342 0.0
H2063 H 0.58545 0.99912 0.63659 0.0
C2064 C 0.51887 0.97426 0.62327 0.0
C2065 C 0.52163 0.98008 0.61095 0.0
C2066 C 0.52685 0.97691 0.63433 0.0
C2067 C 0.5377 0.98558 0.63342 0.0
C2068 C 0.54043 0.99146 0.62114 0.0
C2069 C 0.5325 0.98876 0.61006 0.0
C2070 C 0.54641 0.98825 0.64512 0.0
C2071 C 0.56015 0.98633 0.6438 0.0
C2072 C 0.54126 0.9922 0.65762 0.0
C2073 C 0.527 0.99529 0.65954 0.0
C2074 C 0.52065 1.00464 0.6515 0.0
C2075 C 0.50721 1.00748 0.65332 0.0
C2076 C 0.50002 1.0011 0.66323 0.0
C2077 C 0.50627 0.99189 0.67136 0.0
C2078 C 0.51971 0.989 0.66956 0.0
C2079 C 0.59103 1.00591 0.689 0.0
C2080 C 0.58939 0.99874 0.7008 0.0
C2081 C 0.58264 1.00375 0.67813 0.0
C2082 C 0.57239 0.9944 0.67878 0.0
C2083 C 0.57056 0.98737 0.69058 0.0
C2084 C 0.57899 0.98945 0.70143 0.0
C2085 C 0.56363 0.99188 0.66712 0.0
C2086 C 0.54991 0.99381 0.66846 0.0
C2087 C 0.5688 0.98802 0.65461 0.0
C2088 C 0.58311 0.98524 0.65266 0.0
C2089 C 0.58964 0.97589 0.66054 0.0
C2090 C 0.60315 0.97339 0.65871 0.0
C2091 C 0.61023 0.98012 0.64896 0.0
C2092 C 0.60379 0.98933 0.64099 0.0
C2093 C 0.59028 0.99188 0.64279 0.0
H2094 H 0.62069 0.97817 0.64755 0.0
H2095 H 0.48961 1.00331 0.66463 0.0
H2096 H 0.87798 0.23773 0.75407 0.0
H2097 H 0.8959 0.23959 0.77019 0.0
H2098 H 0.86817 0.23271 0.80195 0.0
H2099 H 0.85004 0.23133 0.78586 0.0
H2100 H 0.88429 0.25239 0.80846 0.0
H2101 H 0.89038 0.20867 0.79165 0.0
H2102 H 0.89304 0.1912 0.77469 0.0
H2103 H 0.92868 0.20969 0.76077 0.0
H2104 H 0.92613 0.22738 0.77753 0.0
H2105 H 0.93495 0.24225 0.85705 0.0
H2106 H 0.91625 0.2388 0.84193 0.0
H2107 H 0.9411 0.24913 0.8088 0.0
H2108 H 0.95986 0.25249 0.82385 0.0
H2109 H 0.92602 0.22681 0.80378 0.0
H2110 H 0.91915 0.27096 0.82049 0.0
H2111 H 0.91635 0.28803 0.83785 0.0
H2112 H 0.8819 0.26794 0.85249 0.0
H2113 H 0.88461 0.25063 0.83533 0.0
C2114 C 0.87564 0.23668 0.76449 0.0
C2115 C 0.8625 0.23441 0.76863 0.0
C2116 C 0.88596 0.2376 0.77371 0.0
C2117 C 0.88347 0.23615 0.78732 0.0
C2118 C 0.87038 0.23383 0.79151 0.0
C2119 C 0.86003 0.23292 0.78227 0.0
C2120 C 0.8945 0.23737 0.79714 0.0
C2121 C 0.89332 0.24662 0.80755 0.0
C2122 C 0.90642 0.23005 0.79589 0.0
C2123 C 0.90799 0.21943 0.78578 0.0
C2124 C 0.89873 0.20908 0.7849 0.0
C2125 C 0.90022 0.19912 0.77534 0.0
C2126 C 0.911 0.19935 0.76663 0.0
C2127 C 0.92032 0.20953 0.7675 0.0
C2128 C 0.91887 0.21952 0.77705 0.0
C2129 C 0.93645 0.24372 0.84654 0.0
C2130 C 0.94891 0.24768 0.84168 0.0
C2131 C 0.92573 0.24183 0.83791 0.0
C2132 C 0.92722 0.24379 0.82422 0.0
C2133 C 0.93968 0.24758 0.81932 0.0
C2134 C 0.95038 0.24959 0.82795 0.0
C2135 C 0.91583 0.24188 0.81498 0.0
C2136 C 0.91695 0.23251 0.80471 0.0
C2137 C 0.90383 0.24902 0.81641 0.0
C2138 C 0.90217 0.25942 0.82672 0.0
C2139 C 0.91104 0.27012 0.82749 0.0
C2140 C 0.90946 0.27984 0.83728 0.0
C2141 C 0.89898 0.27905 0.84629 0.0
C2142 C 0.89003 0.26853 0.84552 0.0
C2143 C 0.89158 0.25877 0.83576 0.0
H2144 H 0.89776 0.28659 0.85386 0.0
H2145 H 0.91215 0.19163 0.75924 0.0
H2146 H 0.4582 0.91029 0.48848 0.0
H2147 H 0.46313 0.89077 0.47504 0.0
H2148 H 0.501 0.88695 0.49443 0.0
H2149 H 0.49632 0.90683 0.50765 0.0
H2150 H 0.5036 0.88308 0.46825 0.0
H2151 H 0.47503 0.86634 0.50195 0.0
H2152 H 0.45502 0.86547 0.51598 0.0
H2153 H 0.43079 0.85973 0.48144 0.0
H2154 H 0.45064 0.86076 0.46718 0.0
H2155 H 0.51595 0.81816 0.44287 0.0
H2156 H 0.51202 0.83707 0.45761 0.0
H2157 H 0.47395 0.84338 0.43933 0.0
H2158 H 0.47764 0.82426 0.42481 0.0
H2159 H 0.47209 0.84552 0.46581 0.0
H2160 H 0.50077 0.86299 0.43213 0.0
H2161 H 0.52087 0.86382 0.41822 0.0
H2162 H 0.54503 0.86798 0.45302 0.0
H2163 H 0.52508 0.867 0.46715 0.0
C2164 C 0.46764 0.9054 0.48984 0.0
C2165 C 0.47687 0.91022 0.49917 0.0
C2166 C 0.47039 0.89411 0.48222 0.0
C2167 C 0.48238 0.88724 0.4838 0.0
C2168 C 0.49165 0.89203 0.49305 0.0
C2169 C 0.48891 0.90335 0.50069 0.0
C2170 C 0.48524 0.87517 0.47565 0.0
C2171 C 0.49681 0.87477 0.46789 0.0
C2172 C 0.47627 0.8644 0.47493 0.0
C2173 C 0.46432 0.86375 0.48348 0.0
C2174 C 0.46542 0.865 0.49733 0.0
C2175 C 0.45411 0.86446 0.50533 0.0
C2176 C 0.44164 0.86258 0.4996 0.0
C2177 C 0.44046 0.8612 0.48586 0.0
C2178 C 0.45174 0.86175 0.47782 0.0
C2179 C 0.50669 0.82349 0.44204 0.0
C2180 C 0.49713 0.81966 0.43259 0.0
C2181 C 0.50451 0.8344 0.45041 0.0
C2182 C 0.49274 0.84178 0.44951 0.0
C2183 C 0.48313 0.8379 0.4402 0.0
C2184 C 0.48531 0.82701 0.43181 0.0
C2185 C 0.49038 0.85348 0.45832 0.0
C2186 C 0.4789 0.8538 0.46621 0.0
C2187 C 0.49944 0.86415 0.45918 0.0
C2188 C 0.51144 0.86478 0.4507 0.0
C2189 C 0.51038 0.86397 0.43682 0.0
C2190 C 0.52174 0.86449 0.4289 0.0
C2191 C 0.53422 0.86591 0.43473 0.0
C2192 C 0.53536 0.86686 0.44851 0.0
C2193 C 0.52403 0.86633 0.45648 0.0
H2194 H 0.54301 0.86631 0.42858 0.0
H2195 H 0.4329 0.86216 0.50581 0.0
H2196 H 0.16035 0.30977 0.7863 0.0
H2197 H 0.14154 0.30442 0.80045 0.0
H2198 H 0.13637 0.26749 0.77948 0.0
H2199 H 0.1549 0.27304 0.76485 0.0
H2200 H 0.11293 0.2786 0.78388 0.0
H2201 H 0.15057 0.26885 0.81066 0.0
H2202 H 0.17206 0.27298 0.82156 0.0
H2203 H 0.15504 0.30525 0.84361 0.0
H2204 H 0.13348 0.30143 0.8327 0.0
H2205 H 0.06959 0.25128 0.83283 0.0
H2206 H 0.08836 0.25527 0.81805 0.0
H2207 H 0.09365 0.29394 0.83543 0.0
H2208 H 0.07471 0.29021 0.85001 0.0
H2209 H 0.11723 0.28078 0.83283 0.0
H2210 H 0.07958 0.29049 0.80528 0.0
H2211 H 0.05818 0.28579 0.79444 0.0
H2212 H 0.07546 0.25263 0.77399 0.0
H2213 H 0.09694 0.25703 0.78485 0.0
C2214 C 0.15515 0.30056 0.78455 0.0
C2215 C 0.1592 0.29186 0.77436 0.0
C2216 C 0.14445 0.29743 0.7928 0.0
C2217 C 0.1376 0.28544 0.79121 0.0
C2218 C 0.14151 0.27678 0.78097 0.0
C2219 C 0.15221 0.27992 0.77268 0.0
C2220 C 0.12631 0.28207 0.80017 0.0
C2221 C 0.11395 0.27887 0.79458 0.0
C2222 C 0.12749 0.28261 0.81417 0.0
C2223 C 0.14044 0.28493 0.82077 0.0
C2224 C 0.15143 0.27689 0.81776 0.0
C2225 C 0.16362 0.27916 0.82395 0.0
C2226 C 0.16492 0.28939 0.83324 0.0
C2227 C 0.15402 0.29734 0.83639 0.0
C2228 C 0.14181 0.29512 0.83022 0.0
C2229 C 0.07461 0.26071 0.83343 0.0
C2230 C 0.07053 0.27042 0.84267 0.0
C2231 C 0.08541 0.26295 0.82498 0.0
C2232 C 0.0924 0.27495 0.82555 0.0
C2233 C 0.08846 0.28459 0.83482 0.0
C2234 C 0.07763 0.2824 0.84322 0.0
C2235 C 0.10386 0.27745 0.81654 0.0
C2236 C 0.11625 0.28046 0.82213 0.0
C2237 C 0.10272 0.27664 0.80256 0.0
C2238 C 0.08983 0.274 0.79599 0.0
C2239 C 0.07879 0.28213 0.79855 0.0
C2240 C 0.06665 0.27953 0.79239 0.0
C2241 C 0.06545 0.2689 0.78356 0.0
C2242 C 0.0764 0.26085 0.78085 0.0
C2243 C 0.08856 0.2634 0.787 0.0
H2244 H 0.05604 0.2669 0.77879 0.0
H2245 H 0.17437 0.29113 0.83803 0.0
H2246 H 0.55739 0.62294 0.5077 0.0
H2247 H 0.55182 0.64155 0.4935 0.0
H2248 H 0.51799 0.62019 0.47842 0.0
H2249 H 0.52376 0.60132 0.49232 0.0
H2250 H 0.53109 0.63149 0.45858 0.0
H2251 H 0.51438 0.6461 0.50049 0.0
H2252 H 0.515 0.65112 0.52443 0.0
H2253 H 0.54595 0.67948 0.51807 0.0
H2254 H 0.54565 0.6745 0.49409 0.0
H2255 H 0.50221 0.68725 0.42655 0.0
H2256 H 0.50618 0.66854 0.44119 0.0
H2257 H 0.54166 0.68731 0.45588 0.0
H2258 H 0.53796 0.70592 0.44107 0.0
H2259 H 0.52673 0.67725 0.47602 0.0
H2260 H 0.5437 0.66196 0.43408 0.0
H2261 H 0.54273 0.65698 0.41014 0.0
H2262 H 0.51072 0.62985 0.41671 0.0
H2263 H 0.51137 0.63482 0.44068 0.0
C2264 C 0.54879 0.62215 0.50133 0.0
C2265 C 0.54105 0.61057 0.50117 0.0
C2266 C 0.54553 0.63288 0.49329 0.0
C2267 C 0.53439 0.63238 0.48495 0.0
C2268 C 0.52661 0.62086 0.48479 0.0
C2269 C 0.52986 0.61011 0.49284 0.0
C2270 C 0.53111 0.64372 0.47615 0.0
C2271 C 0.52992 0.64145 0.46245 0.0
C2272 C 0.52984 0.65682 0.48109 0.0
C2273 C 0.53007 0.65983 0.49551 0.0
C2274 C 0.5214 0.65333 0.50421 0.0
C2275 C 0.52168 0.65618 0.51778 0.0
C2276 C 0.53053 0.66559 0.52277 0.0
C2277 C 0.53911 0.67218 0.51419 0.0
C2278 C 0.53888 0.66936 0.5006 0.0
C2279 C 0.51096 0.68737 0.43276 0.0
C2280 C 0.51977 0.69817 0.43254 0.0
C2281 C 0.51318 0.67665 0.44118 0.0
C2282 C 0.52427 0.67645 0.4496 0.0
C2283 C 0.533 0.68725 0.44953 0.0
C2284 C 0.53083 0.69793 0.44106 0.0
C2285 C 0.52679 0.665 0.45848 0.0
C2286 C 0.52784 0.66726 0.47219 0.0
C2287 C 0.52788 0.6519 0.45356 0.0
C2288 C 0.52749 0.64887 0.43916 0.0
C2289 C 0.53638 0.65502 0.4304 0.0
C2290 C 0.5359 0.65218 0.41683 0.0
C2291 C 0.52664 0.64313 0.4119 0.0
C2292 C 0.51787 0.63688 0.42054 0.0
C2293 C 0.51829 0.63969 0.43412 0.0
H2294 H 0.52629 0.64095 0.40139 0.0
H2295 H 0.53073 0.66779 0.53329 0.0
H2296 H 0.85067 0.78465 0.73958 0.0
H2297 H 0.86873 0.78289 0.72342 0.0
H2298 H 0.89732 0.78433 0.75514 0.0
H2299 H 0.87938 0.78651 0.77129 0.0
H2300 H 0.90542 0.79918 0.73498 0.0
H2301 H 0.88859 0.75498 0.73982 0.0
H2302 H 0.87143 0.73764 0.73969 0.0
H2303 H 0.8635 0.74513 0.69863 0.0
H2304 H 0.8805 0.76266 0.69857 0.0
H2305 H 0.96215 0.77424 0.7017 0.0
H2306 H 0.9433 0.77737 0.71661 0.0
H2307 H 0.91654 0.77514 0.68336 0.0
H2308 H 0.93532 0.7715 0.66842 0.0
H2309 H 0.90696 0.7613 0.70351 0.0
H2310 H 0.92432 0.80492 0.69836 0.0
H2311 H 0.9415 0.82225 0.69841 0.0
H2312 H 0.94839 0.81596 0.73987 0.0
H2313 H 0.93137 0.79846 0.74002 0.0
C2314 C 0.86081 0.78476 0.74312 0.0
C2315 C 0.86353 0.78563 0.75678 0.0
C2316 C 0.87113 0.78361 0.73386 0.0
C2317 C 0.88443 0.78327 0.73805 0.0
C2318 C 0.88718 0.7845 0.75164 0.0
C2319 C 0.87687 0.78563 0.76089 0.0
C2320 C 0.89549 0.78151 0.72834 0.0
C2321 C 0.90582 0.79081 0.7282 0.0
C2322 C 0.89591 0.77078 0.71923 0.0
C2323 C 0.88571 0.76023 0.71924 0.0
C2324 C 0.88311 0.753 0.7308 0.0
C2325 C 0.87343 0.74313 0.73075 0.0
C2326 C 0.86635 0.74031 0.71917 0.0
C2327 C 0.86897 0.74734 0.7076 0.0
C2328 C 0.87864 0.75724 0.7076 0.0
C2329 C 0.95226 0.77428 0.69754 0.0
C2330 C 0.95032 0.77264 0.6838 0.0
C2331 C 0.94147 0.77623 0.70608 0.0
C2332 C 0.92846 0.77669 0.70113 0.0
C2333 C 0.92646 0.7749 0.68745 0.0
C2334 C 0.93725 0.77293 0.67889 0.0
C2335 C 0.91695 0.77892 0.71022 0.0
C2336 C 0.90654 0.7697 0.71024 0.0
C2337 C 0.91645 0.78974 0.71921 0.0
C2338 C 0.92665 0.8003 0.71917 0.0
C2339 C 0.92957 0.80717 0.70747 0.0
C2340 C 0.93927 0.81703 0.70746 0.0
C2341 C 0.94606 0.82018 0.71913 0.0
C2342 C 0.94314 0.81349 0.73083 0.0
C2343 C 0.93346 0.80361 0.73089 0.0
H2344 H 0.95356 0.82782 0.71911 0.0
H2345 H 0.85886 0.73266 0.71915 0.0
H2346 H 0.05572 0.91534 0.53884 0.0
H2347 H 0.05131 0.896 0.55239 0.0
H2348 H 0.02148 0.88308 0.52458 0.0
H2349 H 0.0255 0.90275 0.51117 0.0
H2350 H 0.01289 0.87982 0.54942 0.0
H2351 H 0.05225 0.86838 0.52559 0.0
H2352 H 0.075 0.87135 0.51717 0.0
H2353 H 0.08983 0.87272 0.55703 0.0
H2354 H 0.06713 0.86994 0.5657 0.0
H2355 H 1.00831 0.81471 0.57607 0.0
H2356 H 0.01194 0.8334 0.56127 0.0
H2357 H 0.04111 0.84923 0.58828 0.0
H2358 H 0.03774 0.83044 0.60298 0.0
H2359 H 0.04972 0.85037 0.56291 0.0
H2360 H 0.01005 0.86238 0.5866 0.0
H2361 H 0.98724 0.85924 0.5948 0.0
H2362 H 0.97298 0.85644 0.5548 0.0
H2363 H 0.99575 0.85938 0.54635 0.0
C2364 C 0.0481 0.90849 0.53564 0.0
C2365 C 0.04096 0.91068 0.52387 0.0
C2366 C 0.0457 0.89732 0.54335 0.0
C2367 C 0.03618 0.88793 0.53945 0.0
C2368 C 0.02892 0.89012 0.52779 0.0
C2369 C 0.03131 0.90134 0.52006 0.0
C2370 C 0.03381 0.87591 0.54762 0.0
C2371 C 0.02092 0.87327 0.55219 0.0
C2372 C 0.04429 0.86743 0.55147 0.0
C2373 C 0.05796 0.86907 0.5463 0.0
C2374 C 0.06034 0.86941 0.53257 0.0
C2375 C 0.07323 0.87104 0.52775 0.0
C2376 C 0.08385 0.87225 0.53656 0.0
C2377 C 0.08159 0.8718 0.55022 0.0
C2378 C 0.06872 0.87018 0.55509 0.0
C2379 C 0.01557 0.82211 0.57883 0.0
C2380 C 0.0227 0.82105 0.59076 0.0
C2381 C 0.01755 0.83287 0.5704 0.0
C2382 C 0.02671 0.84283 0.57369 0.0
C2383 C 0.03396 0.84172 0.58552 0.0
C2384 C 0.03194 0.831 0.59398 0.0
C2385 C 0.02884 0.85437 0.56481 0.0
C2386 C 0.04169 0.8569 0.5601 0.0
C2387 C 0.01832 0.8627 0.56079 0.0
C2388 C 1.00462 0.86096 0.56585 0.0
C2389 C 1.00206 0.86099 0.57955 0.0
C2390 C 0.98914 0.85926 0.58425 0.0
C2391 C 0.97867 0.8576 0.57533 0.0
C2392 C 0.9811 0.8577 0.56169 0.0
C2393 C 0.99401 0.85941 0.55695 0.0
H2394 H 0.96867 0.85628 0.57898 0.0
H2395 H 0.09382 0.87352 0.53281 0.0
H2396 H 0.16802 0.74538 0.74275 0.0
H2397 H 0.14906 0.75079 0.72869 0.0
H2398 H 0.12801 0.71691 0.74353 0.0
H2399 H 0.14689 0.71148 0.75762 0.0
H2400 H 0.12598 0.71789 0.71735 0.0
H2401 H 0.12009 0.74904 0.75315 0.0
H2402 H 0.12675 0.76697 0.76844 0.0
H2403 H 0.13329 0.7927 0.73546 0.0
H2404 H 0.12684 0.77486 0.71996 0.0
H2405 H 0.06236 0.73189 0.69172 0.0
H2406 H 0.08108 0.72797 0.70644 0.0
H2407 H 0.10061 0.76268 0.69148 0.0
H2408 H 0.08159 0.76706 0.67717 0.0
H2409 H 0.10377 0.76161 0.71737 0.0
H2410 H 0.10971 0.73082 0.68157 0.0
H2411 H 0.1033 0.71302 0.66603 0.0
H2412 H 0.0971 0.68673 0.69863 0.0
H2413 H 0.10331 0.70444 0.71439 0.0
C2414 C 0.15929 0.73918 0.74318 0.0
C2415 C 0.15904 0.72797 0.75134 0.0
C2416 C 0.14844 0.74228 0.73509 0.0
C2417 C 0.13701 0.73432 0.73507 0.0
C2418 C 0.1367 0.72319 0.7433 0.0
C2419 C 0.14754 0.72008 0.75134 0.0
C2420 C 0.12553 0.7373 0.72623 0.0
C2421 C 0.12101 0.7274 0.7175 0.0
C2422 C 0.11925 0.74983 0.72608 0.0
C2423 C 0.12311 0.76057 0.73539 0.0
C2424 C 0.12305 0.75849 0.74916 0.0
C2425 C 0.12677 0.76864 0.75786 0.0
C2426 C 0.13048 0.78095 0.75292 0.0
C2427 C 0.13044 0.78315 0.73927 0.0
C2428 C 0.12674 0.77303 0.73052 0.0
C2429 C 0.07053 0.73882 0.69164 0.0
C2430 C 0.0704 0.7498 0.68316 0.0
C2431 C 0.08135 0.73645 0.69999 0.0
C2432 C 0.09242 0.74489 0.69996 0.0
C2433 C 0.09225 0.75596 0.69166 0.0
C2434 C 0.08139 0.75838 0.68336 0.0
C2435 C 0.10415 0.74215 0.70857 0.0
C2436 C 0.10873 0.7521 0.71722 0.0
C2437 C 0.11054 0.72968 0.70862 0.0
C2438 C 0.10685 0.71899 0.69916 0.0
C2439 C 0.10689 0.72127 0.68543 0.0
C2440 C 0.10331 0.71119 0.67658 0.0
C2441 C 0.09976 0.69876 0.68134 0.0
C2442 C 0.09983 0.69637 0.69496 0.0
C2443 C 0.10339 0.70642 0.70385 0.0
H2444 H 0.09699 0.69097 0.67447 0.0
H2445 H 0.13335 0.7888 0.75968 0.0
H2446 H 0.96346 0.62319 0.51575 0.0
H2447 H 0.96835 0.64258 0.5295 0.0
H2448 H 0.9997 0.62116 0.54887 0.0
H2449 H 0.9948 0.6017 0.5352 0.0
H2450 H 0.98559 0.63395 0.5667 0.0
H2451 H 1.00597 0.64576 0.5256 0.0
H2452 H 1.00714 0.64949 0.50151 0.0
H2453 H 0.97676 0.67907 0.5047 0.0
H2454 H 0.97528 0.67539 0.5288 0.0
H2455 H 0.01519 0.68928 0.59898 0.0
H2456 H 0.0111 0.67026 0.58449 0.0
H2457 H 0.97815 0.69064 0.56672 0.0
H2458 H 0.98205 0.70966 0.5813 0.0
H2459 H 0.9933 0.67847 0.54803 0.0
H2460 H 0.973 0.66637 0.58927 0.0
H2461 H 0.97219 0.66265 0.61338 0.0
H2462 H 1.003 0.63355 0.60984 0.0
H2463 H 1.00412 0.63723 0.58572 0.0
C2464 C 0.97152 0.62265 0.52281 0.0
C2465 C 0.97875 0.61086 0.52432 0.0
C2466 C 0.97431 0.63376 0.53069 0.0
C2467 C 0.98451 0.63344 0.54017 0.0
C2468 C 0.99177 0.62169 0.54167 0.0
C2469 C 0.98894 0.61055 0.53384 0.0
C2470 C 0.98738 0.64519 0.54876 0.0
C2471 C 0.98747 0.64364 0.56258 0.0
C2472 C 0.98955 0.65795 0.54347 0.0
C2473 C 0.99043 0.6602 0.52899 0.0
C2474 C 0.99947 0.65298 0.52115 0.0
C2475 C 1.0002 0.6551 0.5075 0.0
C2476 C 0.992 0.66449 0.50157 0.0
C2477 C 0.98308 0.67179 0.5093 0.0
C2478 C 0.98231 0.6697 0.52296 0.0
C2479 C 1.00697 0.6897 0.5921 0.0
C2480 C 0.99891 0.70104 0.59142 0.0
C2481 C 1.00467 0.6788 0.58377 0.0
C2482 C 0.99422 0.67893 0.57458 0.0
C2483 C 0.98629 0.69029 0.5737 0.0
C2484 C 0.98857 0.7012 0.58204 0.0
C2485 C 0.99152 0.66719 0.56594 0.0
C2486 C 0.99145 0.66877 0.55212 0.0
C2487 C 0.98942 0.65444 0.57122 0.0
C2488 C 0.98873 0.65217 0.58571 0.0
C2489 C 0.97967 0.65925 0.59365 0.0
C2490 C 0.97915 0.65713 0.60731 0.0
C2491 C 0.98757 0.64789 0.61314 0.0
C2492 C 0.9965 0.64072 0.60531 0.0
C2493 C 0.99708 0.64281 0.59164 0.0
H2494 H 0.98715 0.64627 0.62372 0.0
H2495 H 0.99258 0.66612 0.491 0.0
H2496 H 0.75561 0.87332 0.22755 0.0
H2497 H 0.76914 0.89281 0.23247 0.0
H2498 H 0.80278 0.86775 0.24026 0.0
H2499 H 0.78921 0.84822 0.23578 0.0
H2500 H 0.80155 0.8872 0.25821 0.0
H2501 H 0.79949 0.88425 0.21074 0.0
H2502 H 0.78853 0.88275 0.18895 0.0
H2503 H 0.76908 0.91984 0.19625 0.0
H2504 H 0.7798 0.92147 0.21818 0.0
H2505 H 0.85314 0.9347 0.25296 0.0
H2506 H 0.83841 0.91582 0.24946 0.0
H2507 H 0.80561 0.94231 0.24295 0.0
H2508 H 0.82037 0.96127 0.24613 0.0
H2509 H 0.80582 0.92257 0.22474 0.0
H2510 H 0.80861 0.9258 0.27202 0.0
H2511 H 0.81987 0.92725 0.29366 0.0
H2512 H 0.83822 0.88957 0.28658 0.0
H2513 H 0.82721 0.88798 0.2648 0.0
C2514 C 0.76584 0.87193 0.23048 0.0
C2515 C 0.77131 0.85915 0.23118 0.0
C2516 C 0.77361 0.88311 0.23316 0.0
C2517 C 0.78707 0.8818 0.23655 0.0
C2518 C 0.79246 0.86906 0.23761 0.0
C2519 C 0.7847 0.85789 0.23492 0.0
C2520 C 0.7956 0.89367 0.23883 0.0
C2521 C 0.80259 0.89486 0.25082 0.0
C2522 C 0.79678 0.90385 0.22934 0.0
C2523 C 0.79034 0.90291 0.21616 0.0
C2524 C 0.79279 0.89203 0.20774 0.0
C2525 C 0.78664 0.89117 0.19536 0.0
C2526 C 0.77808 0.90118 0.19123 0.0
C2527 C 0.77569 0.91209 0.19947 0.0
C2528 C 0.78181 0.91299 0.21187 0.0
C2529 C 0.84282 0.93654 0.2507 0.0
C2530 C 0.83797 0.94955 0.24986 0.0
C2531 C 0.83436 0.92571 0.24882 0.0
C2532 C 0.82083 0.9276 0.24608 0.0
C2533 C 0.81598 0.94057 0.2451 0.0
C2534 C 0.82442 0.95141 0.24703 0.0
C2535 C 0.81181 0.91607 0.24409 0.0
C2536 C 0.80473 0.91494 0.23215 0.0
C2537 C 0.81058 0.90593 0.25361 0.0
C2538 C 0.81718 0.90683 0.26672 0.0
C2539 C 0.81513 0.91787 0.27503 0.0
C2540 C 0.82145 0.91871 0.28733 0.0
C2541 C 0.82978 0.90853 0.29148 0.0
C2542 C 0.83178 0.89746 0.28335 0.0
C2543 C 0.82549 0.89658 0.27103 0.0
H2544 H 0.83467 0.9092 0.301 0.0
H2545 H 0.77333 0.90049 0.18164 0.0
H2546 H 0.78946 0.16846 0.30062 0.0
H2547 H 0.80303 0.14926 0.29503 0.0
H2548 H 0.76853 0.12917 0.27973 0.0
H2549 H 0.75475 0.14825 0.28573 0.0
H2550 H 0.78294 0.11285 0.29472 0.0
H2551 H 0.7922 0.14201 0.25887 0.0
H2552 H 0.79865 0.16294 0.24835 0.0
H2553 H 0.83677 0.1611 0.26715 0.0
H2554 H 0.83048 0.14024 0.27794 0.0
H2555 H 0.82013 0.06055 0.26467 0.0
H2556 H 0.80546 0.07944 0.2685 0.0
H2557 H 0.83832 0.10186 0.28418 0.0
H2558 H 0.85303 0.08302 0.28041 0.0
H2559 H 0.82401 0.11676 0.26796 0.0
H2560 H 0.81437 0.08811 0.30451 0.0
H2561 H 0.80791 0.06719 0.31507 0.0
H2562 H 0.77048 0.06809 0.29487 0.0
H2563 H 0.77679 0.08893 0.28404 0.0
C2564 C 0.7847 0.15995 0.29614 0.0
C2565 C 0.77096 0.15994 0.29368 0.0
C2566 C 0.79253 0.14899 0.29281 0.0
C2567 C 0.78687 0.13776 0.28681 0.0
C2568 C 0.77316 0.13771 0.28431 0.0
C2569 C 0.7653 0.14869 0.28764 0.0
C2570 C 0.79524 0.12602 0.28345 0.0
C2571 C 0.7918 0.11367 0.28867 0.0
C2572 C 0.80699 0.12709 0.2758 0.0
C2573 C 0.81082 0.13962 0.26931 0.0
C2574 C 0.80192 0.14612 0.26084 0.0
C2575 C 0.80556 0.15796 0.25482 0.0
C2576 C 0.8181 0.16337 0.2571 0.0
C2577 C 0.82705 0.15691 0.2654 0.0
C2578 C 0.82346 0.14507 0.27146 0.0
C2579 C 0.82423 0.06945 0.26905 0.0
C2580 C 0.8378 0.0702 0.27226 0.0
C2581 C 0.81581 0.08028 0.27122 0.0
C2582 C 0.82071 0.09209 0.27677 0.0
C2583 C 0.83427 0.0929 0.27986 0.0
C2584 C 0.8427 0.0821 0.27766 0.0
C2585 C 0.81177 0.10361 0.27932 0.0
C2586 C 0.81512 0.11592 0.27394 0.0
C2587 C 0.79994 0.10251 0.28682 0.0
C2588 C 0.79611 0.09 0.29336 0.0
C2589 C 0.8048 0.08379 0.30224 0.0
C2590 C 0.80116 0.07196 0.30829 0.0
C2591 C 0.78881 0.0663 0.30562 0.0
C2592 C 0.78005 0.07248 0.29692 0.0
C2593 C 0.78365 0.0843 0.29083 0.0
H2594 H 0.78601 0.05714 0.31031 0.0
H2595 H 0.8209 0.17254 0.25242 0.0
H2596 H 0.39576 1.00619 0.96614 0.0
H2597 H 0.37691 0.99204 0.97152 0.0
H2598 H 0.39973 0.97368 1.00244 0.0
H2599 H 0.41877 0.98759 0.99688 0.0
H2600 H 0.38689 0.95539 0.98786 0.0
H2601 H 0.37508 0.99579 1.00981 0.0
H2602 H 0.37095 0.01974 0.01178 0.0
H2603 H 0.34017 0.01684 0.98253 0.0
H2604 H 0.34424 0.9929 0.98025 0.0
H2605 H 0.33255 0.92125 0.01698 0.0
H2606 H 0.35147 0.93583 0.01312 0.0
H2607 H 0.3296 0.95583 0.98256 0.0
H2608 H 0.31064 0.9413 0.98637 0.0
H2609 H 0.34216 0.97336 0.9977 0.0
H2610 H 0.3544 0.93313 0.97526 0.0
H2611 H 0.35854 0.90919 0.97319 0.0
H2612 H 0.38853 0.91178 1.00327 0.0
H2613 H 0.38445 0.93572 1.00564 0.0
C2614 C 0.3968 0.99912 0.97406 0.0
C2615 C 0.40882 0.99806 0.98106 0.0
C2616 C 0.38596 0.9911 0.97721 0.0
C2617 C 0.38681 0.98184 0.98748 0.0
C2618 C 0.39878 0.98076 0.9945 0.0
C2619 C 0.40964 0.98882 0.99138 0.0
C2620 C 0.37534 0.97309 0.99064 0.0
C2621 C 0.37716 0.95933 0.99022 0.0
C2622 C 0.36254 0.97817 0.99342 0.0
C2623 C 0.36006 0.99257 0.99477 0.0
C2624 C 0.3675 1.00028 1.00372 0.0
C2625 C 0.36516 0.01385 1.0049 0.0
C2626 C 0.35533 0.01981 0.99726 0.0
C2627 C 0.3478 0.01221 0.98843 0.0
C2628 C 0.35011 0.99864 0.9872 0.0
C2629 C 0.33179 0.92867 1.00935 0.0
C2630 C 0.32004 0.93004 1.00196 0.0
C2631 C 0.34264 0.93703 1.00716 0.0
C2632 C 0.34207 0.94687 0.99743 0.0
C2633 C 0.33031 0.94835 0.99014 0.0
C2634 C 0.31944 0.94003 0.99236 0.0
C2635 C 0.35369 0.95565 0.99486 0.0
C2636 C 0.3519 0.96941 0.99538 0.0
C2637 C 0.36652 0.95057 0.99216 0.0
C2638 C 0.36902 0.93619 0.99072 0.0
C2639 C 0.36181 0.92857 0.98151 0.0
C2640 C 0.36415 0.91501 0.98027 0.0
C2641 C 0.37377 0.90896 0.98812 0.0
C2642 C 0.38108 0.91647 0.99721 0.0
C2643 C 0.37876 0.93004 0.99849 0.0
H2644 H 0.37557 0.89846 0.98715 0.0
H2645 H 0.35352 0.03032 0.99819 0.0
H2646 H 0.23562 0.3513 0.29182 0.0
H2647 H 0.21959 0.36939 0.29024 0.0
H2648 H 0.25065 0.3955 0.27715 0.0
H2649 H 0.26677 0.37765 0.27917 0.0
H2650 H 0.23519 0.408 0.29429 0.0
H2651 H 0.2281 0.3813 0.2553 0.0
H2652 H 0.22334 0.36079 0.24284 0.0
H2653 H 0.18571 0.35753 0.26249 0.0
H2654 H 0.19033 0.37794 0.27521 0.0
H2655 H 0.19714 0.45909 0.26532 0.0
H2656 H 0.21205 0.44041 0.26887 0.0
H2657 H 0.17936 0.41732 0.28357 0.0
H2658 H 0.1643 0.43591 0.27979 0.0
H2659 H 0.19484 0.40293 0.26663 0.0
H2660 H 0.20165 0.43038 0.30487 0.0
H2661 H 0.20648 0.45107 0.31698 0.0
H2662 H 0.24475 0.45309 0.29841 0.0
H2663 H 0.24007 0.43249 0.28604 0.0
C2664 C 0.23908 0.36093 0.28876 0.0
C2665 C 0.25251 0.36295 0.28553 0.0
C2666 C 0.22986 0.37125 0.28773 0.0
C2667 C 0.23384 0.38381 0.28337 0.0
C2668 C 0.24728 0.38592 0.28046 0.0
C2669 C 0.25649 0.37563 0.28151 0.0
C2670 C 0.22405 0.39476 0.28174 0.0
C2671 C 0.22644 0.40691 0.28812 0.0
C2672 C 0.21244 0.39332 0.27395 0.0
C2673 C 0.20963 0.38106 0.26631 0.0
C2674 C 0.21886 0.37615 0.25704 0.0
C2675 C 0.21617 0.36455 0.24992 0.0
C2676 C 0.20424 0.35784 0.2519 0.0
C2677 C 0.19496 0.36273 0.26099 0.0
C2678 C 0.1976 0.37431 0.26815 0.0
C2679 C 0.19308 0.45001 0.2692 0.0
C2680 C 0.1795 0.44904 0.27228 0.0
C2681 C 0.20165 0.43936 0.27135 0.0
C2682 C 0.19688 0.42747 0.27664 0.0
C2683 C 0.1833 0.42639 0.27954 0.0
C2684 C 0.17472 0.43707 0.27746 0.0
C2685 C 0.20607 0.41619 0.27908 0.0
C2686 C 0.20355 0.40398 0.27285 0.0
C2687 C 0.21759 0.41759 0.28697 0.0
C2688 C 0.22046 0.42995 0.29443 0.0
C2689 C 0.21106 0.43529 0.30329 0.0
C2690 C 0.21377 0.44699 0.31021 0.0
C2691 C 0.2259 0.45341 0.30844 0.0
C2692 C 0.23535 0.44811 0.29976 0.0
C2693 C 0.23268 0.43642 0.2928 0.0
H2694 H 0.22798 0.46247 0.31381 0.0
H2695 H 0.20218 0.34886 0.24638 0.0
H2696 H 0.12237 1.00702 0.47825 0.0
H2697 H 0.14169 0.02089 0.48299 0.0
H2698 H 0.11613 0.05468 0.48824 0.0
H2699 H 0.09679 0.04089 0.48362 0.0
H2700 H 0.13674 0.06074 0.47278 0.0
H2701 H 0.13097 0.03931 0.51475 0.0
H2702 H 0.12863 0.02032 0.52972 0.0
H2703 H 0.1669 1.00596 0.51772 0.0
H2704 H 0.1694 0.02477 0.50254 0.0
H2705 H 0.1834 0.10563 0.4998 0.0
H2706 H 0.16445 0.09101 0.49651 0.0
H2707 H 0.19078 0.05757 0.49323 0.0
H2708 H 0.20977 0.07204 0.49719 0.0
H2709 H 0.17003 0.05098 0.50749 0.0
H2710 H 0.176 0.07203 0.46559 0.0
H2711 H 0.17856 0.09073 0.4503 0.0
H2712 H 0.1402 0.1054 0.46162 0.0
H2713 H 0.13748 0.08687 0.47712 0.0
C2714 C 0.12082 0.01735 0.48061 0.0
C2715 C 0.10797 0.0228 0.4805 0.0
C2716 C 0.13191 0.0253 0.4833 0.0
C2717 C 0.13041 0.03886 0.48604 0.0
C2718 C 0.11759 0.04428 0.48609 0.0
C2719 C 0.10652 0.03636 0.4834 0.0
C2720 C 0.14217 0.04752 0.48847 0.0
C2721 C 0.14391 0.05869 0.4805 0.0
C2722 C 0.15179 0.04469 0.49827 0.0
C2723 C 0.15031 0.03338 0.50741 0.0
C2724 C 0.13884 0.03204 0.51523 0.0
C2725 C 0.13749 0.02132 0.52376 0.0
C2726 C 0.14759 0.01192 0.52464 0.0
C2727 C 0.15908 0.01324 0.51701 0.0
C2728 C 0.16047 0.02393 0.50845 0.0
C2729 C 0.1852 0.09515 0.49854 0.0
C2730 C 0.19821 0.09009 0.49873 0.0
C2731 C 0.17432 0.08679 0.49649 0.0
C2732 C 0.17613 0.07316 0.49439 0.0
C2733 C 0.18907 0.06804 0.49475 0.0
C2734 C 0.19997 0.07638 0.49687 0.0
C2735 C 0.16456 0.06427 0.49185 0.0
C2736 C 0.16286 0.05304 0.49977 0.0
C2737 C 0.15501 0.067 0.48195 0.0
C2738 C 0.15659 0.07813 0.47261 0.0
C2739 C 0.16815 0.0793 0.46489 0.0
C2740 C 0.16962 0.08986 0.45618 0.0
C2741 C 0.15956 0.09927 0.45502 0.0
C2742 C 0.14799 0.09812 0.46255 0.0
C2743 C 0.14648 0.08758 0.47129 0.0
H2744 H 0.16072 0.10744 0.44826 0.0
H2745 H 0.14653 1.00363 0.53126 0.0
H2746 H 0.75549 0.15011 0.72027 0.0
H2747 H 0.73974 0.13184 0.72215 0.0
H2748 H 0.72831 0.14579 0.76102 0.0
H2749 H 0.74397 0.16409 0.75918 0.0
H2750 H 0.73252 0.11989 0.76139 0.0
H2751 H 0.708 0.14949 0.73367 0.0
H2752 H 0.70421 0.16365 0.71427 0.0
H2753 H 0.70937 0.13021 0.6883 0.0
H2754 H 0.71337 0.11589 0.70755 0.0
H2755 H 0.67582 0.07975 0.7709 0.0
H2756 H 0.69066 0.09854 0.76778 0.0
H2757 H 0.70123 0.08371 0.72899 0.0
H2758 H 0.68639 0.06486 0.73205 0.0
H2759 H 0.69764 0.10982 0.7282 0.0
H2760 H 0.72215 0.08023 0.75572 0.0
H2761 H 0.72605 0.06595 0.77501 0.0
H2762 H 0.72117 0.09925 0.80121 0.0
H2763 H 0.71705 0.1137 0.78207 0.0
C2764 C 0.74949 0.14942 0.72914 0.0
C2765 C 0.75107 0.1586 0.73959 0.0
C2766 C 0.74048 0.13893 0.73022 0.0
C2767 C 0.73274 0.13743 0.74171 0.0
C2768 C 0.73419 0.14666 0.75207 0.0
C2769 C 0.7432 0.15712 0.75102 0.0
C2770 C 0.72343 0.12605 0.74315 0.0
C2771 C 0.72478 0.11782 0.75422 0.0
C2772 C 0.71354 0.12305 0.73363 0.0
C2773 C 0.71112 0.13165 0.72205 0.0
C2774 C 0.70844 0.14518 0.72382 0.0
C2775 C 0.70623 0.15323 0.71285 0.0
C2776 C 0.70658 0.14784 0.70006 0.0
C2777 C 0.70911 0.13438 0.69821 0.0
C2778 C 0.71135 0.12629 0.70915 0.0
C2779 C 0.68137 0.08041 0.76174 0.0
C2780 C 0.67994 0.0707 0.75177 0.0
C2781 C 0.68986 0.09119 0.75995 0.0
C2782 C 0.69725 0.0925 0.74821 0.0
C2783 C 0.69566 0.08296 0.73814 0.0
C2784 C 0.68713 0.07218 0.7399 0.0
C2785 C 0.70668 0.10374 0.74649 0.0
C2786 C 0.70538 0.11191 0.73537 0.0
C2787 C 0.71665 0.10667 0.75595 0.0
C2788 C 0.71917 0.09802 0.76747 0.0
C2789 C 0.72181 0.08449 0.7656 0.0
C2790 C 0.72408 0.07637 0.7765 0.0
C2791 C 0.72382 0.08168 0.78933 0.0
C2792 C 0.72134 0.09514 0.79127 0.0
C2793 C 0.71905 0.1033 0.7804 0.0
H2794 H 0.72558 0.07538 0.79776 0.0
H2795 H 0.70486 0.15409 0.69158 0.0
H2796 H 0.41456 0.02486 0.52348 0.0
H2797 H 0.39549 0.03868 0.51789 0.0
H2798 H 0.3799 0.03368 0.55735 0.0
H2799 H 0.39865 0.01949 0.56284 0.0
H2800 H 0.36042 0.03205 0.53984 0.0
H2801 H 0.3964 0.06216 0.54795 0.0
H2802 H 0.41879 0.07142 0.54487 0.0
H2803 H 0.41013 0.079 0.50398 0.0
H2804 H 0.38773 0.0696 0.50677 0.0
H2805 H 0.31538 0.08598 0.54253 0.0
H2806 H 0.33391 0.07093 0.54627 0.0
H2807 H 0.34677 0.07609 0.50588 0.0
H2808 H 0.32813 0.091 0.50197 0.0
H2809 H 0.36754 0.07734 0.52285 0.0
H2810 H 0.33112 0.04795 0.51511 0.0
H2811 H 0.30867 0.03894 0.51846 0.0
H2812 H 0.31811 0.0302 0.55894 0.0
H2813 H 0.34057 0.03935 0.55589 0.0
C2814 C 0.40699 0.02654 0.53092 0.0
C2815 C 0.40824 0.0211 0.54366 0.0
C2816 C 0.39614 0.03458 0.52775 0.0
C2817 C 0.38631 0.03743 0.53726 0.0
C2818 C 0.38736 0.03172 0.54985 0.0
C2819 C 0.39818 0.02368 0.55302 0.0
C2820 C 0.37502 0.04647 0.5342 0.0
C2821 C 0.362 0.042 0.53627 0.0
C2822 C 0.377 0.05938 0.52924 0.0
C2823 C 0.39045 0.06504 0.52754 0.0
C2824 C 0.39931 0.0657 0.53828 0.0
C2825 C 0.41199 0.07099 0.53659 0.0
C2826 C 0.41589 0.07576 0.52423 0.0
C2827 C 0.4071 0.07528 0.51354 0.0
C2828 C 0.39441 0.06998 0.51517 0.0
C2829 C 0.32204 0.08382 0.53437 0.0
C2830 C 0.32015 0.08972 0.52192 0.0
C2831 C 0.33268 0.07522 0.53655 0.0
C2832 C 0.3417 0.07224 0.52632 0.0
C2833 C 0.33997 0.07823 0.51394 0.0
C2834 C 0.32931 0.08682 0.51174 0.0
C2835 C 0.35295 0.06295 0.52859 0.0
C2836 C 0.36596 0.06737 0.52637 0.0
C2837 C 0.35097 0.05001 0.53345 0.0
C2838 C 0.33749 0.04445 0.5353 0.0
C2839 C 0.32838 0.04421 0.52476 0.0
C2840 C 0.31566 0.03906 0.5266 0.0
C2841 C 0.31196 0.03403 0.53891 0.0
C2842 C 0.32098 0.03412 0.54941 0.0
C2843 C 0.33371 0.03927 0.54763 0.0
H2844 H 0.3021 0.03005 0.54031 0.0
H2845 H 0.42571 0.07986 0.52294 0.0
H2846 H 0.62178 0.5046 0.56156 0.0
H2847 H 0.64071 0.49044 0.55637 0.0
H2848 H 0.62177 0.47796 0.52007 0.0
H2849 H 0.60255 0.49182 0.52543 0.0
H2850 H 0.63196 0.45719 0.53259 0.0
H2851 H 0.64811 0.49963 0.51996 0.0
H2852 H 0.65321 0.52331 0.52274 0.0
H2853 H 0.67922 0.51445 0.55513 0.0
H2854 H 0.67413 0.49072 0.55267 0.0
H2855 H 0.68936 0.42525 0.50607 0.0
H2856 H 0.67047 0.44001 0.50958 0.0
H2857 H 0.68746 0.45339 0.54651 0.0
H2858 H 0.70633 0.43858 0.54314 0.0
H2859 H 0.67819 0.4739 0.53268 0.0
H2860 H 0.66138 0.4315 0.54566 0.0
H2861 H 0.65627 0.40783 0.54277 0.0
H2862 H 0.63147 0.41671 0.50945 0.0
H2863 H 0.63658 0.44042 0.51203 0.0
C2864 C 0.62158 0.49882 0.55249 0.0
C2865 C 0.61058 0.49937 0.54393 0.0
C2866 C 0.63251 0.4908 0.54946 0.0
C2867 C 0.63278 0.48319 0.53775 0.0
C2868 C 0.62184 0.48375 0.52915 0.0
C2869 C 0.6109 0.49179 0.53217 0.0
C2870 C 0.64432 0.47442 0.53468 0.0
C2871 C 0.64205 0.4609 0.5324 0.0
C2872 C 0.65755 0.47914 0.5347 0.0
C2873 C 0.66064 0.49341 0.53621 0.0
C2874 C 0.65483 0.50274 0.52775 0.0
C2875 C 0.65774 0.51617 0.52925 0.0
C2876 C 0.66651 0.52039 0.53913 0.0
C2877 C 0.67242 0.51117 0.5475 0.0
C2878 C 0.66954 0.49773 0.54604 0.0
C2879 C 0.68904 0.43122 0.51502 0.0
C2880 C 0.69941 0.43064 0.52434 0.0
C2881 C 0.67821 0.4397 0.517 0.0
C2882 C 0.67743 0.44776 0.52839 0.0
C2883 C 0.68782 0.44731 0.53763 0.0
C2884 C 0.69865 0.43885 0.53566 0.0
C2885 C 0.66583 0.45667 0.53067 0.0
C2886 C 0.66809 0.47021 0.53282 0.0
C2887 C 0.65259 0.45197 0.53051 0.0
C2888 C 0.64948 0.43772 0.52896 0.0
C2889 C 0.65492 0.42839 0.53766 0.0
C2890 C 0.65201 0.41497 0.53608 0.0
C2891 C 0.64358 0.41076 0.52591 0.0
C2892 C 0.63802 0.41998 0.51731 0.0
C2893 C 0.64091 0.43341 0.51883 0.0
H2894 H 0.64134 0.40037 0.52471 0.0
H2895 H 0.66875 0.53079 0.54028 0.0
H2896 H 0.74738 0.26909 0.3613 0.0
H2897 H 0.75255 0.28289 0.38068 0.0
H2898 H 0.71079 0.28912 0.38753 0.0
H2899 H 0.70557 0.27535 0.36827 0.0
H2900 H 0.72371 0.31188 0.38935 0.0
H2901 H 0.72961 0.26833 0.40708 0.0
H2902 H 0.7389 0.24583 0.40802 0.0
H2903 H 0.77816 0.26184 0.4116 0.0
H2904 H 0.76912 0.28445 0.4105 0.0
H2905 H 0.72581 0.33951 0.45407 0.0
H2906 H 0.72197 0.32509 0.43492 0.0
H2907 H 0.76415 0.32057 0.42961 0.0
H2908 H 0.76809 0.33507 0.44873 0.0
H2909 H 0.75188 0.2972 0.4267 0.0
H2910 H 0.74605 0.34068 0.40938 0.0
H2911 H 0.73686 0.36322 0.40848 0.0
H2912 H 0.69762 0.34738 0.40397 0.0
H2913 H 0.70656 0.32473 0.40503 0.0
C2914 C 0.73929 0.27326 0.36703 0.0
C2915 C 0.72605 0.27112 0.36315 0.0
C2916 C 0.74226 0.28118 0.37811 0.0
C2917 C 0.73206 0.28704 0.38565 0.0
C2918 C 0.71886 0.2848 0.38187 0.0
C2919 C 0.71588 0.27693 0.3708 0.0
C2920 C 0.73507 0.29576 0.39728 0.0
C2921 C 0.72973 0.30859 0.39758 0.0
C2922 C 0.74324 0.29167 0.4079 0.0
C2923 C 0.74869 0.27808 0.40857 0.0
C2924 C 0.74023 0.26705 0.40796 0.0
C2925 C 0.74545 0.25428 0.40854 0.0
C2926 C 0.75911 0.2524 0.40983 0.0
C2927 C 0.76758 0.2633 0.41058 0.0
C2928 C 0.76241 0.2761 0.40999 0.0
C2929 C 0.73429 0.33558 0.44876 0.0
C2930 C 0.74727 0.33856 0.45295 0.0
C2931 C 0.73207 0.32729 0.43781 0.0
C2932 C 0.74276 0.32184 0.43068 0.0
C2933 C 0.75573 0.32463 0.43493 0.0
C2934 C 0.75796 0.33291 0.44591 0.0
C2935 C 0.7404 0.31325 0.41881 0.0
C2936 C 0.74588 0.30048 0.41844 0.0
C2937 C 0.73237 0.3174 0.4081 0.0
C2938 C 0.72697 0.33101 0.40741 0.0
C2939 C 0.73545 0.342 0.4083 0.0
C2940 C 0.73029 0.3548 0.40774 0.0
C2941 C 0.71666 0.35674 0.4062 0.0
C2942 C 0.70817 0.34587 0.40518 0.0
C2943 C 0.71328 0.33305 0.40575 0.0
H2944 H 0.71269 0.36665 0.40578 0.0
H2945 H 0.76313 0.2425 0.41028 0.0
H2946 H 0.50693 0.04385 0.89931 0.0
H2947 H 0.52068 0.03917 0.87983 0.0
H2948 H 0.55377 0.03012 0.90523 0.0
H2949 H 0.54008 0.03471 0.92472 0.0
H2950 H 0.56154 0.04578 0.88578 0.0
H2951 H 0.53632 1.00574 0.8885 0.0
H2952 H 0.51606 0.99218 0.8898 0.0
H2953 H 0.50298 1.00736 0.85242 0.0
H2954 H 0.52308 0.02115 0.85098 0.0
H2955 H 0.60406 0.01685 0.83755 0.0
H2956 H 0.58948 0.02041 0.85662 0.0
H2957 H 0.55733 0.03035 0.8304 0.0
H2958 H 0.57176 0.02646 0.81123 0.0
H2959 H 0.54885 0.01439 0.84998 0.0
H2960 H 0.57413 0.05435 0.84726 0.0
H2961 H 0.59444 0.06782 0.84594 0.0
H2962 H 0.60743 0.05271 0.88339 0.0
H2963 H 0.58727 0.039 0.88485 0.0
C2964 C 0.51708 0.04067 0.90077 0.0
C2965 C 0.52237 0.03969 0.91364 0.0
C2966 C 0.52495 0.03802 0.8896 0.0
C2967 C 0.53828 0.03421 0.89101 0.0
C2968 C 0.54355 0.0331 0.90384 0.0
C2969 C 0.5357 0.03577 0.915 0.0
C2970 C 0.54688 0.03175 0.87917 0.0
C2971 C 0.55883 0.03877 0.87806 0.0
C2972 C 0.54324 0.02286 0.86887 0.0
C2973 C 0.53114 0.01458 0.86971 0.0
C2974 C 0.52907 1.00627 0.88061 0.0
C2975 C 0.51762 0.99853 0.88136 0.0
C2976 C 0.50822 0.99894 0.87122 0.0
C2977 C 0.51026 1.00707 0.86028 0.0
C2978 C 0.52168 0.01484 0.85949 0.0
C2979 C 0.59386 0.01968 0.83581 0.0
C2980 C 0.58912 0.02139 0.82281 0.0
C2981 C 0.58555 0.02183 0.84675 0.0
C2982 C 0.57232 0.0258 0.84499 0.0
C2983 C 0.5675 0.02734 0.83204 0.0
C2984 C 0.57582 0.02523 0.82108 0.0
C2985 C 0.56353 0.02836 0.85666 0.0
C2986 C 0.55154 0.02139 0.85772 0.0
C2987 C 0.56713 0.03729 0.86693 0.0
C2988 C 0.57925 0.04555 0.8661 0.0
C2989 C 0.58136 0.05382 0.85517 0.0
C2990 C 0.59284 0.06151 0.8544 0.0
C2991 C 0.60224 0.0611 0.86456 0.0
C2992 C 0.60015 0.05301 0.87552 0.0
C2993 C 0.5887 0.04528 0.87633 0.0
H2994 H 0.61111 0.06706 0.86395 0.0
H2995 H 0.49937 0.99293 0.87181 0.0
H2996 H 0.25993 0.25172 0.36194 0.0
H2997 H 0.25819 0.23598 0.38005 0.0
H2998 H 0.30077 0.23527 0.38363 0.0
H2999 H 0.30261 0.25115 0.36552 0.0
H3000 H 0.29041 0.21058 0.38581 0.0
H3001 H 0.2821 0.25302 0.40545 0.0
H3002 H 0.27128 0.27477 0.40769 0.0
H3003 H 0.23354 0.25588 0.41289 0.0
H3004 H 0.24411 0.23401 0.41049 0.0
H3005 H 0.29119 0.18026 0.4495 0.0
H3006 H 0.29419 0.19519 0.43081 0.0
H3007 H 0.25177 0.19849 0.42668 0.0
H3008 H 0.2487 0.18357 0.44535 0.0
H3009 H 0.26281 0.2221 0.42496 0.0
H3010 H 0.27103 0.17965 0.405 0.0
H3011 H 0.28181 0.15789 0.40266 0.0
H3012 H 0.31966 0.17672 0.39808 0.0
H3013 H 0.30912 0.1986 0.40057 0.0
C3014 C 0.26895 0.24831 0.36661 0.0
C3015 C 0.28142 0.25287 0.36232 0.0
C3016 C 0.26793 0.23926 0.37697 0.0
C3017 C 0.27933 0.23457 0.38339 0.0
C3018 C 0.29182 0.23875 0.37888 0.0
C3019 C 0.29286 0.24782 0.36848 0.0
C3020 C 0.27814 0.22551 0.39493 0.0
C3021 C 0.28453 0.21318 0.39445 0.0
C3022 C 0.27026 0.22874 0.40613 0.0
C3023 C 0.26388 0.24188 0.40767 0.0
C3024 C 0.27148 0.2535 0.40697 0.0
C3025 C 0.26539 0.26585 0.40829 0.0
C3026 C 0.25173 0.26671 0.4104 0.0
C3027 C 0.24412 0.25521 0.41124 0.0
C3028 C 0.25016 0.24283 0.40991 0.0
C3029 C 0.28248 0.18403 0.44453 0.0
C3030 C 0.26969 0.18065 0.44896 0.0
C3031 C 0.28422 0.1926 0.43382 0.0
C3032 C 0.27321 0.1979 0.42719 0.0
C3033 C 0.26043 0.19458 0.43162 0.0
C3034 C 0.25869 0.18605 0.44234 0.0
C3035 C 0.27496 0.2071 0.41581 0.0
C3036 C 0.2687 0.21949 0.41633 0.0
C3037 C 0.28295 0.2039 0.40466 0.0
C3038 C 0.2893 0.19076 0.4031 0.0
C3039 C 0.28167 0.17915 0.40359 0.0
C3040 C 0.28773 0.16679 0.40222 0.0
C3041 C 0.30142 0.16592 0.40026 0.0
C3042 C 0.30907 0.17741 0.39962 0.0
C3043 C 0.30305 0.18979 0.401 0.0
H3044 H 0.3061 0.15635 0.3992 0.0
H3045 H 0.24703 0.27628 0.41142 0.0
H3046 H 0.5125 0.47801 0.89927 0.0
H3047 H 0.49871 0.48302 0.88001 0.0
H3048 H 0.4641 0.48467 0.90509 0.0
H3049 H 0.4778 0.47975 0.92437 0.0
H3050 H 0.45912 0.47037 0.88339 0.0
H3051 H 0.47856 0.51287 0.89241 0.0
H3052 H 0.49685 0.52861 0.89618 0.0
H3053 H 0.51253 0.51975 0.85753 0.0
H3054 H 0.49442 0.50381 0.85361 0.0
H3055 H 0.41379 0.49767 0.83768 0.0
H3056 H 0.42824 0.49409 0.8567 0.0
H3057 H 0.46238 0.49405 0.83095 0.0
H3058 H 0.44806 0.49829 0.81194 0.0
H3059 H 0.46794 0.50738 0.85273 0.0
H3060 H 0.44883 0.46498 0.84354 0.0
H3061 H 0.4308 0.44899 0.83958 0.0
H3062 H 0.41489 0.45724 0.87826 0.0
H3063 H 0.43274 0.47342 0.88239 0.0
C3064 C 0.50198 0.47962 0.90073 0.0
C3065 C 0.49629 0.47843 0.91342 0.0
C3066 C 0.49409 0.48247 0.88968 0.0
C3067 C 0.48033 0.48431 0.89106 0.0
C3068 C 0.47466 0.48324 0.90372 0.0
C3069 C 0.48253 0.48038 0.91476 0.0
C3070 C 0.47177 0.48698 0.87931 0.0
C3071 C 0.46096 0.47858 0.8768 0.0
C3072 C 0.47433 0.49745 0.87044 0.0
C3073 C 0.48521 0.50705 0.87277 0.0
C3074 C 0.48597 0.5142 0.88476 0.0
C3075 C 0.49629 0.52317 0.88692 0.0
C3076 C 0.50587 0.52515 0.87712 0.0
C3077 C 0.50512 0.51819 0.86512 0.0
C3078 C 0.49482 0.50919 0.86292 0.0
C3079 C 0.42438 0.49707 0.83603 0.0
C3080 C 0.42969 0.49823 0.82318 0.0
C3081 C 0.43265 0.49485 0.84694 0.0
C3082 C 0.44643 0.49357 0.84529 0.0
C3083 C 0.45179 0.49492 0.83252 0.0
C3084 C 0.44354 0.49721 0.8216 0.0
C3085 C 0.45524 0.49081 0.85686 0.0
C3086 C 0.4661 0.49917 0.85932 0.0
C3087 C 0.45277 0.48025 0.86566 0.0
C3088 C 0.44205 0.4705 0.86322 0.0
C3089 C 0.44143 0.46345 0.85117 0.0
C3090 C 0.43125 0.45435 0.8489 0.0
C3091 C 0.42168 0.45213 0.85865 0.0
C3092 C 0.4223 0.45899 0.87071 0.0
C3093 C 0.43245 0.46811 0.87302 0.0
H3094 H 0.41381 0.44508 0.85687 0.0
H3095 H 0.51385 0.5321 0.8788 0.0
H3096 H 0.74654 0.74507 0.16744 0.0
H3097 H 0.75195 0.73102 0.14831 0.0
H3098 H 0.71233 0.73624 0.13319 0.0
H3099 H 0.70689 0.75032 0.15219 0.0
H3100 H 0.71914 0.71087 0.13214 0.0
H3101 H 0.7394 0.75176 0.11922 0.0
H3102 H 0.75406 0.7711 0.12176 0.0
H3103 H 0.78792 0.74555 0.12448 0.0
H3104 H 0.77343 0.72603 0.12214 0.0
H3105 H 0.7274 0.68529 0.0672 0.0
H3106 H 0.72363 0.69984 0.08624 0.0
H3107 H 0.76348 0.69262 0.09981 0.0
H3108 H 0.76731 0.67791 0.08081 0.0
H3109 H 0.75729 0.71853 0.1021 0.0
H3110 H 0.73718 0.6777 0.11464 0.0
H3111 H 0.72262 0.6583 0.11207 0.0
H3112 H 0.68855 0.68367 0.11021 0.0
H3113 H 0.70294 0.70325 0.11259 0.0
C3114 C 0.73903 0.74339 0.15995 0.0
C3115 C 0.72625 0.74883 0.16143 0.0
C3116 C 0.74213 0.73532 0.14901 0.0
C3117 C 0.73257 0.73258 0.13923 0.0
C3118 C 0.71987 0.73812 0.14061 0.0
C3119 C 0.71676 0.74616 0.15153 0.0
C3120 C 0.73561 0.72366 0.12775 0.0
C3121 C 0.72738 0.71267 0.12548 0.0
C3122 C 0.74659 0.72571 0.11924 0.0
C3123 C 0.75531 0.73743 0.12065 0.0
C3124 C 0.74996 0.75026 0.12047 0.0
C3125 C 0.75824 0.76126 0.12185 0.0
C3126 C 0.77191 0.75955 0.12332 0.0
C3127 C 0.77733 0.74685 0.12337 0.0
C3128 C 0.76909 0.73582 0.12201 0.0
C3129 C 0.73534 0.68665 0.07429 0.0
C3130 C 0.74764 0.68029 0.07247 0.0
C3131 C 0.73318 0.69504 0.08518 0.0
C3132 C 0.74321 0.69723 0.0946 0.0
C3133 C 0.75558 0.69111 0.0927 0.0
C3134 C 0.75776 0.68271 0.08179 0.0
C3135 C 0.74072 0.70585 0.10643 0.0
C3136 C 0.74906 0.71674 0.10878 0.0
C3137 C 0.72985 0.7037 0.11504 0.0
C3138 C 0.72116 0.69195 0.11367 0.0
C3139 C 0.7266 0.67915 0.11358 0.0
C3140 C 0.71837 0.66812 0.11218 0.0
C3141 C 0.70467 0.66975 0.11094 0.0
C3142 C 0.69917 0.68242 0.11115 0.0
C3143 C 0.70735 0.69349 0.11254 0.0
H3144 H 0.69832 0.6612 0.10986 0.0
H3145 H 0.7783 0.76808 0.12438 0.0
H3146 H 1.00342 0.06073 0.12414 0.0
H3147 H 0.98932 0.05529 0.14301 0.0
H3148 H 0.97844 0.01853 0.12408 0.0
H3149 H 0.99225 0.0241 0.10494 0.0
H3150 H 0.957 0.03053 0.13418 0.0
H3151 H 1.00007 0.01936 0.15037 0.0
H3152 H 0.0237 0.02295 0.15553 0.0
H3153 H 0.01337 0.05507 0.18161 0.0
H3154 H 0.98969 0.05179 0.17647 0.0
H3155 H 0.92573 1.00332 0.19117 0.0
H3156 H 0.94049 1.00723 0.17238 0.0
H3157 H 0.95262 0.04431 0.18987 0.0
H3158 H 0.93784 0.04049 0.20867 0.0
H3159 H 0.97366 0.03129 0.18042 0.0
H3160 H 0.93065 0.04286 0.16366 0.0
H3161 H 0.90703 0.03926 0.15849 0.0
H3162 H 0.91727 1.00631 0.13345 0.0
H3163 H 0.94096 0.0096 0.13861 0.0
C3164 C 0.998 0.0515 0.12394 0.0
C3165 C 0.99899 0.04287 0.11296 0.0
C3166 C 0.99002 0.04834 0.13482 0.0
C3167 C 0.98288 0.03642 0.13508 0.0
C3168 C 0.98387 0.02776 0.12416 0.0
C3169 C 0.99187 0.03091 0.11326 0.0
C3170 C 0.97417 0.03319 0.14658 0.0
C3171 C 0.9607 0.03049 0.14427 0.0
C3172 C 0.97888 0.03341 0.15981 0.0
C3173 C 0.99311 0.03541 0.16294 0.0
C3174 C 1.00285 0.02726 0.15713 0.0
C3175 C 0.01625 0.02923 0.16006 0.0
C3176 C 0.02004 0.03926 0.16886 0.0
C3177 C 0.01043 0.04732 0.17478 0.0
C3178 C 0.99701 0.0454 0.17187 0.0
C3179 C 0.93143 0.01237 0.19098 0.0
C3180 C 0.93051 0.0216 0.20147 0.0
C3181 C 0.93991 0.01459 0.18021 0.0
C3182 C 0.9476 0.02615 0.17959 0.0
C3183 C 0.94682 0.03531 0.1901 0.0
C3184 C 0.93837 0.03308 0.20089 0.0
C3185 C 0.95647 0.0287 0.16802 0.0
C3186 C 0.96997 0.03128 0.17032 0.0
C3187 C 0.95179 0.02836 0.15478 0.0
C3188 C 0.93756 0.02639 0.15163 0.0
C3189 C 0.92786 0.03478 0.15713 0.0
C3190 C 0.91446 0.03281 0.15419 0.0
C3191 C 0.91065 0.02254 0.14568 0.0
C3192 C 0.92024 0.01424 0.14006 0.0
C3193 C 0.93365 0.01616 0.14298 0.0
H3194 H 0.90027 0.02103 0.14341 0.0
H3195 H 0.03042 0.04076 0.17113 0.0
H3196 H 0.28606 0.78198 0.17212 0.0
H3197 H 0.2844 0.79815 0.1543 0.0
H3198 H 0.27898 0.76658 0.12586 0.0
H3199 H 0.2811 0.75038 0.14352 0.0
H3200 H 0.29512 0.78459 0.11598 0.0
H3201 H 0.25268 0.78537 0.1376 0.0
H3202 H 0.23726 0.78763 0.15647 0.0
H3203 H 0.25082 0.82729 0.1634 0.0
H3204 H 0.26645 0.8252 0.14467 0.0
H3205 H 0.26718 0.82026 0.06252 0.0
H3206 H 0.27066 0.8053 0.0811 0.0
H3207 H 0.27823 0.83861 0.1069 0.0
H3208 H 0.27455 0.85368 0.08837 0.0
H3209 H 0.26177 0.82056 0.11856 0.0
H3210 H 0.30358 0.81988 0.09606 0.0
H3211 H 0.31859 0.81747 0.07689 0.0
H3212 H 0.30582 0.77735 0.07134 0.0
H3213 H 0.29057 0.77958 0.09037 0.0
C3214 C 0.28468 0.77846 0.16206 0.0
C3215 C 0.28362 0.76483 0.15932 0.0
C3216 C 0.28359 0.78774 0.15187 0.0
C3217 C 0.28136 0.78363 0.13871 0.0
C3218 C 0.28063 0.77004 0.13591 0.0
C3219 C 0.28173 0.76077 0.14607 0.0
C3220 C 0.27967 0.79343 0.12784 0.0
C3221 C 0.28772 0.79236 0.11651 0.0
C3222 C 0.27023 0.8038 0.12857 0.0
C3223 C 0.26084 0.80508 0.13983 0.0
C3224 C 0.25245 0.79454 0.14322 0.0
C3225 C 0.24366 0.79579 0.15388 0.0
C3226 C 0.24309 0.80758 0.16116 0.0
C3227 C 0.25129 0.81815 0.15777 0.0
C3228 C 0.26011 0.81694 0.14713 0.0
C3229 C 0.26949 0.82443 0.07216 0.0
C3230 C 0.27059 0.8382 0.07392 0.0
C3231 C 0.2716 0.81585 0.08277 0.0
C3232 C 0.27484 0.8208 0.09541 0.0
C3233 C 0.27579 0.83454 0.09725 0.0
C3234 C 0.27377 0.84314 0.08661 0.0
C3235 C 0.27715 0.81163 0.10668 0.0
C3236 C 0.26921 0.81282 0.11808 0.0
C3237 C 0.28665 0.80134 0.10599 0.0
C3238 C 0.29584 0.79994 0.09457 0.0
C3239 C 0.30389 0.81058 0.09069 0.0
C3240 C 0.31246 0.80924 0.07986 0.0
C3241 C 0.31313 0.79728 0.07288 0.0
C3242 C 0.30527 0.78662 0.07674 0.0
C3243 C 0.29667 0.78791 0.08756 0.0
H3244 H 0.31978 0.79626 0.06451 0.0
H3245 H 0.23628 0.80853 0.1694 0.0
H3246 H 1.00674 0.47443 0.12462 0.0
H3247 H 0.02057 0.47914 0.14399 0.0
H3248 H 0.05265 0.49084 0.11836 0.0
H3249 H 0.03888 0.48619 0.09897 0.0
H3250 H 0.06162 0.47497 0.13708 0.0
H3251 H 0.03412 0.51366 0.1363 0.0
H3252 H 0.01309 0.52607 0.13589 0.0
H3253 H 1.00161 0.50879 0.17289 0.0
H3254 H 0.02251 0.49614 0.17343 0.0
H3255 H 0.1034 0.50381 0.18588 0.0
H3256 H 0.08881 0.50037 0.16685 0.0
H3257 H 0.05727 0.48842 0.19302 0.0
H3258 H 0.07167 0.49228 0.21215 0.0
H3259 H 0.04785 0.50433 0.17422 0.0
H3260 H 0.07524 0.46564 0.17499 0.0
H3261 H 0.09625 0.45319 0.17548 0.0
H3262 H 0.10786 0.4704 0.13848 0.0
H3263 H 0.08698 0.48309 0.13787 0.0
C3264 C 0.01667 0.47819 0.12309 0.0
C3265 C 0.02167 0.4799 0.11018 0.0
C3266 C 0.02459 0.48087 0.1342 0.0
C3267 C 0.03767 0.48544 0.13269 0.0
C3268 C 0.04263 0.48727 0.11982 0.0
C3269 C 0.03474 0.48457 0.10872 0.0
C3270 C 0.04633 0.48795 0.14445 0.0
C3271 C 0.05867 0.48155 0.1451 0.0
C3272 C 0.04239 0.49624 0.15514 0.0
C3273 C 0.02982 0.50385 0.15484 0.0
C3274 C 0.02707 0.51242 0.1443 0.0
C3275 C 0.01518 0.51952 0.14405 0.0
C3276 C 1.006 0.51819 0.15434 0.0
C3277 C 0.00872 0.5098 0.16492 0.0
C3278 C 0.02059 0.50267 0.1652 0.0
C3279 C 0.09333 0.50058 0.18763 0.0
C3280 C 0.08877 0.49829 0.2006 0.0
C3281 C 0.08501 0.49848 0.1767 0.0
C3282 C 0.07195 0.49396 0.17844 0.0
C3283 C 0.06731 0.49185 0.19138 0.0
C3284 C 0.07562 0.49395 0.20232 0.0
C3285 C 0.06316 0.49141 0.16679 0.0
C3286 C 0.0508 0.49777 0.16618 0.0
C3287 C 0.06707 0.48307 0.15613 0.0
C3288 C 0.07961 0.47541 0.15645 0.0
C3289 C 0.08232 0.46684 0.16701 0.0
C3290 C 0.0942 0.45973 0.1673 0.0
C3291 C 0.1034 0.46103 0.15703 0.0
C3292 C 0.10073 0.46942 0.14644 0.0
C3293 C 0.08887 0.47656 0.14611 0.0
H3294 H 0.11259 0.45551 0.15727 0.0
H3295 H 0.9968 0.5237 0.15413 0.0
H3296 H 0.36679 0.71611 0.26755 0.0
H3297 H 0.38508 0.71792 0.28338 0.0
H3298 H 0.37534 0.75888 0.29033 0.0
H3299 H 0.35704 0.75713 0.27459 0.0
H3300 H 0.40118 0.75634 0.2869 0.0
H3301 H 0.36844 0.7347 0.31334 0.0
H3302 H 0.35204 0.71758 0.31894 0.0
H3303 H 0.38242 0.68789 0.31723 0.0
H3304 H 0.39898 0.70482 0.31143 0.0
H3305 H 0.43994 0.76726 0.34484 0.0
H3306 H 0.42125 0.76424 0.32976 0.0
H3307 H 0.43488 0.72497 0.32018 0.0
H3308 H 0.45393 0.72803 0.33484 0.0
H3309 H 0.40738 0.72622 0.32492 0.0
H3310 H 0.44009 0.74829 0.29862 0.0
H3311 H 0.45632 0.76571 0.29345 0.0
H3312 H 0.42555 0.79498 0.29537 0.0
H3313 H 0.40915 0.77774 0.30076 0.0
C3314 C 0.36841 0.72546 0.27258 0.0
C3315 C 0.36041 0.73648 0.26972 0.0
C3316 C 0.37891 0.72649 0.28164 0.0
C3317 C 0.3816 0.73853 0.28815 0.0
C3318 C 0.37355 0.7495 0.28541 0.0
C3319 C 0.36308 0.74848 0.27636 0.0
C3320 C 0.39301 0.73986 0.29752 0.0
C3321 C 0.4024 0.74985 0.29531 0.0
C3322 C 0.39486 0.73122 0.30835 0.0
C3323 C 0.38492 0.72101 0.3118 0.0
C3324 C 0.3716 0.72451 0.31404 0.0
C3325 C 0.36228 0.71484 0.31727 0.0
C3326 C 0.36617 0.70165 0.3184 0.0
C3327 C 0.37941 0.69811 0.31633 0.0
C3328 C 0.38877 0.70774 0.31307 0.0
C3329 C 0.43913 0.75802 0.33942 0.0
C3330 C 0.44862 0.74794 0.34108 0.0
C3331 C 0.42834 0.75628 0.33085 0.0
C3332 C 0.42668 0.7444 0.32376 0.0
C3333 C 0.43592 0.73421 0.32557 0.0
C3334 C 0.4468 0.73597 0.33404 0.0
C3335 C 0.41543 0.74274 0.31431 0.0
C3336 C 0.40611 0.73269 0.3165 0.0
C3337 C 0.41359 0.75136 0.30349 0.0
C3338 C 0.42342 0.76174 0.30023 0.0
C3339 C 0.4368 0.75845 0.29806 0.0
C3340 C 0.44603 0.76829 0.29507 0.0
C3341 C 0.44197 0.78145 0.29412 0.0
C3342 C 0.42867 0.78479 0.29613 0.0
C3343 C 0.41941 0.77499 0.29915 0.0
H3344 H 0.44913 0.78905 0.29179 0.0
H3345 H 0.35894 0.69418 0.32091 0.0
H3346 H 0.98653 0.42199 0.98238 0.0
H3347 H 0.99124 0.40248 0.96875 0.0
H3348 H 0.97565 0.37747 0.99943 0.0
H3349 H 0.97092 0.39698 0.01315 0.0
H3350 H 0.99767 0.36683 0.989 0.0
H3351 H 0.95734 0.38488 0.97166 0.0
H3352 H 0.94289 0.40227 0.96261 0.0
H3353 H 0.96924 0.40687 0.92952 0.0
H3354 H 0.98394 0.38963 0.93847 0.0
H3355 H 0.98974 0.30889 0.94934 0.0
H3356 H 0.98594 0.32822 0.96351 0.0
H3357 H 1.00131 0.35348 0.93293 0.0
H3358 H 1.00472 0.33424 0.91851 0.0
H3359 H 0.97943 0.36393 0.94342 0.0
H3360 H 0.0197 0.34571 0.96071 0.0
H3361 H 0.03411 0.32832 0.9698 0.0
H3362 H 1.00782 0.32394 1.00297 0.0
H3363 H 0.99316 0.34119 0.99399 0.0
C3364 C 0.98404 0.41235 0.98622 0.0
C3365 C 0.97823 0.4111 0.99885 0.0
C3366 C 0.98675 0.40118 0.97841 0.0
C3367 C 0.9836 0.38847 0.98294 0.0
C3368 C 0.97816 0.38715 0.99568 0.0
C3369 C 0.97549 0.39833 1.00354 0.0
C3370 C 0.98581 0.37661 0.9743 0.0
C3371 C 0.99353 0.36613 0.9791 0.0
C3372 C 0.98067 0.37575 0.96125 0.0
C3373 C 0.9718 0.38606 0.95581 0.0
C3374 C 0.9601 0.38967 0.96251 0.0
C3375 C 0.95186 0.39948 0.95739 0.0
C3376 C 0.95516 0.40569 0.94552 0.0
C3377 C 0.9667 0.40206 0.93872 0.0
C3378 C 0.97499 0.39226 0.94381 0.0
C3379 C 0.99222 0.31856 0.94556 0.0
C3380 C 0.99756 0.31995 0.93274 0.0
C3381 C 0.99017 0.32961 0.95375 0.0
C3382 C 0.99349 0.34234 0.94939 0.0
C3383 C 0.99872 0.34378 0.93657 0.0
C3384 C 1.00077 0.33273 0.92836 0.0
C3385 C 0.99132 0.35416 0.9581 0.0
C3386 C 0.98359 0.36463 0.95332 0.0
C3387 C 0.99644 0.355 0.97116 0.0
C3388 C 1.00527 0.34466 0.97661 0.0
C3389 C 0.01694 0.34097 0.96989 0.0
C3390 C 0.02516 0.33115 0.97503 0.0
C3391 C 0.02186 0.325 0.98694 0.0
C3392 C 0.01036 0.3287 0.99375 0.0
C3393 C 1.00209 0.3385 0.98864 0.0
H3394 H 0.02824 0.3174 0.9909 0.0
H3395 H 0.94877 0.41329 0.94157 0.0
H3396 H 0.65557 0.81208 0.28109 0.0
H3397 H 0.63647 0.80661 0.29484 0.0
H3398 H 0.6402 0.76562 0.28349 0.0
H3399 H 0.65946 0.77102 0.26971 0.0
H3400 H 0.61445 0.77318 0.2836 0.0
H3401 H 0.65087 0.77629 0.31374 0.0
H3402 H 0.67037 0.78657 0.32432 0.0
H3403 H 0.64638 0.81917 0.33752 0.0
H3404 H 0.62676 0.80917 0.32686 0.0
H3405 H 0.57203 0.74961 0.33524 0.0
H3406 H 0.59085 0.75368 0.32052 0.0
H3407 H 0.58929 0.79519 0.33032 0.0
H3408 H 0.57039 0.79125 0.34491 0.0
H3409 H 0.61433 0.78632 0.33108 0.0
H3410 H 0.57797 0.78328 0.30044 0.0
H3411 H 0.55854 0.77284 0.28989 0.0
H3412 H 0.58251 0.73981 0.27779 0.0
H3413 H 0.60206 0.74998 0.28843 0.0
C3414 C 0.65243 0.80187 0.28157 0.0
C3415 C 0.65921 0.79198 0.27438 0.0
C3416 C 0.64145 0.79876 0.28943 0.0
C3417 C 0.63698 0.78566 0.29041 0.0
C3418 C 0.64346 0.7758 0.28295 0.0
C3419 C 0.65447 0.77891 0.27504 0.0
C3420 C 0.62567 0.78232 0.29934 0.0
C3421 C 0.61451 0.77588 0.29403 0.0
C3422 C 0.6256 0.78602 0.31292 0.0
C3423 C 0.63737 0.79204 0.3194 0.0
C3424 C 0.64977 0.7857 0.31882 0.0
C3425 C 0.66084 0.79147 0.32484 0.0
C3426 C 0.65962 0.80353 0.33156 0.0
C3427 C 0.64731 0.80983 0.3323 0.0
C3428 C 0.63621 0.80411 0.32628 0.0
C3429 C 0.57557 0.75964 0.33416 0.0
C3430 C 0.56963 0.77009 0.34132 0.0
C3431 C 0.58638 0.76195 0.32574 0.0
C3432 C 0.59147 0.77477 0.3242 0.0
C3433 C 0.5856 0.7852 0.33135 0.0
C3434 C 0.5748 0.78291 0.33976 0.0
C3435 C 0.60304 0.77733 0.31533 0.0
C3436 C 0.61427 0.78359 0.32066 0.0
C3437 C 0.60318 0.77344 0.3018 0.0
C3438 C 0.59145 0.76733 0.29535 0.0
C3439 C 0.57908 0.77374 0.29562 0.0
C3440 C 0.56804 0.76788 0.28961 0.0
C3441 C 0.56928 0.75565 0.28321 0.0
C3442 C 0.58156 0.74927 0.28277 0.0
C3443 C 0.59262 0.75508 0.28878 0.0
H3444 H 0.56072 0.75113 0.27856 0.0
H3445 H 0.66821 0.80798 0.33622 0.0
H3446 H 0.04374 0.09789 0.98054 0.0
H3447 H 0.0388 0.11711 0.96696 0.0
H3448 H 0.03256 0.14061 1.00225 0.0
H3449 H 0.03759 0.12138 0.01596 0.0
H3450 H 0.01392 0.14593 0.98362 0.0
H3451 H 0.06132 0.14309 0.98483 0.0
H3452 H 0.08307 0.13219 0.98249 0.0
H3453 H 0.07546 0.12501 0.94119 0.0
H3454 H 0.05357 0.13571 0.94333 0.0
H3455 H 0.01682 0.20828 0.9514 0.0
H3456 H 0.02093 0.18944 0.9658 0.0
H3457 H 0.02902 0.16496 0.93155 0.0
H3458 H 0.02543 0.18388 0.91711 0.0
H3459 H 0.04684 0.16046 0.95021 0.0
H3460 H 0.99934 0.16305 0.94899 0.0
H3461 H 0.97753 0.17384 0.95132 0.0
H3462 H 0.98525 0.18147 0.99252 0.0
H3463 H 1.0072 0.17088 0.99039 0.0
C3464 C 0.0414 0.10715 0.98545 0.0
C3465 C 0.04122 0.10807 0.99939 0.0
C3466 C 0.03855 0.11815 0.97765 0.0
C3467 C 0.03551 0.1304 0.98355 0.0
C3468 C 0.0349 0.13128 0.99744 0.0
C3469 C 0.03775 0.12025 1.00528 0.0
C3470 C 0.03321 0.14229 0.97519 0.0
C3471 C 0.0212 0.14922 0.97644 0.0
C3472 C 0.04257 0.14646 0.96561 0.0
C3473 C 0.05576 0.14009 0.96427 0.0
C3474 C 0.06424 0.1391 0.97527 0.0
C3475 C 0.0766 0.13297 0.97397 0.0
C3476 C 0.08063 0.12788 0.9617 0.0
C3477 C 0.07232 0.12894 0.95069 0.0
C3478 C 0.05994 0.13505 0.95194 0.0
C3479 C 0.01959 0.19893 0.94691 0.0
C3480 C 0.02077 0.19766 0.93304 0.0
C3481 C 0.0218 0.18809 0.95517 0.0
C3482 C 0.02513 0.17568 0.94979 0.0
C3483 C 0.02641 0.1744 0.93597 0.0
C3484 C 0.02423 0.18523 0.9277 0.0
C3485 C 0.0275 0.16407 0.95854 0.0
C3486 C 0.03955 0.15719 0.95738 0.0
C3487 C 0.01817 0.15996 0.96819 0.0
C3488 C 1.00496 0.16629 0.9695 0.0
C3489 C 0.99643 0.16712 0.95852 0.0
C3490 C 0.98404 0.17319 0.95981 0.0
C3491 C 0.98002 0.17837 0.97205 0.0
C3492 C 0.98838 0.17747 0.98304 0.0
C3493 C 1.00079 0.17142 0.9818 0.0
H3494 H 0.97042 0.18306 0.97302 0.0
H3495 H 0.0902 0.12313 0.96072 0.0
H3496 H 0.36092 0.30322 0.24795 0.0
H3497 H 0.37968 0.30118 0.23272 0.0
H3498 H 0.38255 0.25964 0.24138 0.0
H3499 H 0.36424 0.26172 0.25708 0.0
H3500 H 0.40631 0.26975 0.24093 0.0
H3501 H 0.36885 0.27151 0.21189 0.0
H3502 H 0.34828 0.28063 0.20246 0.0
H3503 H 0.36899 0.31594 0.19149 0.0
H3504 H 0.38966 0.3071 0.20102 0.0
H3505 H 0.44603 0.25014 0.18566 0.0
H3506 H 0.42752 0.25318 0.20098 0.0
H3507 H 0.42999 0.29536 0.19617 0.0
H3508 H 0.4489 0.29252 0.18126 0.0
H3509 H 0.4038 0.28545 0.19456 0.0
H3510 H 0.44148 0.28292 0.22346 0.0
H3511 H 0.46191 0.27307 0.23245 0.0
H3512 H 0.44034 0.2382 0.2432 0.0
H3513 H 0.4198 0.24777 0.23409 0.0
C3514 C 0.36559 0.29366 0.24672 0.0
C3515 C 0.36095 0.28263 0.25376 0.0
C3516 C 0.37626 0.29248 0.23786 0.0
C3517 C 0.38247 0.28021 0.23571 0.0
C3518 C 0.37792 0.26921 0.24279 0.0
C3519 C 0.36732 0.2704 0.25169 0.0
C3520 C 0.39383 0.27882 0.22626 0.0
C3521 C 0.40566 0.27303 0.23075 0.0
C3522 C 0.39318 0.28334 0.21301 0.0
C3523 C 0.38077 0.2887 0.2073 0.0
C3524 C 0.369 0.28126 0.20757 0.0
C3525 C 0.35732 0.28637 0.20218 0.0
C3526 C 0.35732 0.29887 0.19641 0.0
C3527 C 0.36901 0.30627 0.19598 0.0
C3528 C 0.3807 0.30121 0.20136 0.0
C3529 C 0.44283 0.26011 0.18796 0.0
C3530 C 0.44913 0.27107 0.18217 0.0
C3531 C 0.43214 0.26181 0.19668 0.0
C3532 C 0.42739 0.2745 0.19978 0.0
C3533 C 0.43345 0.28546 0.19389 0.0
C3534 C 0.44425 0.28379 0.18528 0.0
C3535 C 0.41616 0.27632 0.20924 0.0
C3536 C 0.4044 0.28219 0.20476 0.0
C3537 C 0.41681 0.27177 0.22245 0.0
C3538 C 0.42913 0.266 0.22796 0.0
C3539 C 0.44111 0.2731 0.22763 0.0
C3540 C 0.45271 0.26758 0.23277 0.0
C3541 C 0.45243 0.255 0.23836 0.0
C3542 C 0.44054 0.24794 0.23885 0.0
C3543 C 0.42892 0.25341 0.23371 0.0
H3544 H 0.46141 0.25075 0.24234 0.0
H3545 H 0.34828 0.30281 0.19225 0.0
H3546 H 0.52218 0.4156 0.02615 0.0
H3547 H 0.5167 0.39655 0.0399 0.0
H3548 H 0.55668 0.38202 0.03553 0.0
H3549 H 0.56209 0.40077 0.02144 0.0
H3550 H 0.53947 0.36217 0.03334 0.0
H3551 H 0.54616 0.39833 0.06396 0.0
H3552 H 0.54221 0.42059 0.07328 0.0
H3553 H 0.50138 0.4108 0.08022 0.0
H3554 H 0.50505 0.38854 0.07077 0.0
H3555 H 0.54189 0.31663 0.08621 0.0
H3556 H 0.54557 0.33528 0.07144 0.0
H3557 H 0.50543 0.34845 0.07812 0.0
H3558 H 0.50171 0.32984 0.09299 0.0
H3559 H 0.52162 0.36893 0.07872 0.0
H3560 H 0.51496 0.33255 0.0489 0.0
H3561 H 0.51876 0.31027 0.03959 0.0
H3562 H 0.5592 0.32037 0.03102 0.0
H3563 H 0.55569 0.34266 0.04044 0.0
C3564 C 0.52977 0.40828 0.02797 0.0
C3565 C 0.54261 0.40982 0.02273 0.0
C3566 C 0.52666 0.39743 0.03596 0.0
C3567 C 0.53633 0.3879 0.03895 0.0
C3568 C 0.54905 0.38924 0.03345 0.0
C3569 C 0.55216 0.40006 0.02547 0.0
C3570 C 0.5333 0.3766 0.04788 0.0
C3571 C 0.5357 0.36367 0.04331 0.0
C3572 C 0.52806 0.37846 0.0608 0.0
C3573 C 0.52585 0.39182 0.06653 0.0
C3574 C 0.53632 0.40096 0.06738 0.0
C3575 C 0.53413 0.41357 0.0727 0.0
C3576 C 0.52155 0.41712 0.07731 0.0
C3577 C 0.51112 0.40805 0.07663 0.0
C3578 C 0.51325 0.39543 0.0713 0.0
C3579 C 0.5338 0.32343 0.08446 0.0
C3580 C 0.52148 0.32166 0.09077 0.0
C3581 C 0.53591 0.33411 0.07599 0.0
C3582 C 0.52572 0.34322 0.07346 0.0
C3583 C 0.51346 0.34159 0.07987 0.0
C3584 C 0.51136 0.33094 0.08842 0.0
C3585 C 0.52789 0.35449 0.06422 0.0
C3586 C 0.52533 0.36741 0.06873 0.0
C3587 C 0.53296 0.35262 0.05123 0.0
C3588 C 0.53509 0.33924 0.04548 0.0
C3589 C 0.52469 0.32999 0.04511 0.0
C3590 C 0.52679 0.31736 0.0398 0.0
C3591 C 0.53922 0.31389 0.03474 0.0
C3592 C 0.54958 0.32306 0.03495 0.0
C3593 C 0.54753 0.3357 0.04026 0.0
H3594 H 0.54083 0.30411 0.03064 0.0
H3595 H 0.51988 0.42688 0.08143 0.0
H3596 H 0.6438 0.22176 0.26465 0.0
H3597 H 0.62491 0.22678 0.25039 0.0
H3598 H 0.65158 0.24049 0.22004 0.0
H3599 H 0.67052 0.23558 0.2343 0.0
H3600 H 0.63108 0.25654 0.22168 0.0
H3601 H 0.6364 0.20962 0.21837 0.0
H3602 H 0.63856 0.18688 0.22666 0.0
H3603 H 0.60005 0.18967 0.24465 0.0
H3604 H 0.59774 0.21251 0.23662 0.0
H3605 H 0.58558 0.25372 0.16753 0.0
H3606 H 0.60421 0.24971 0.18252 0.0
H3607 H 0.57686 0.24002 0.21383 0.0
H3608 H 0.55818 0.24391 0.19886 0.0
H3609 H 0.59745 0.22209 0.21183 0.0
H3610 H 0.59222 0.26915 0.2144 0.0
H3611 H 0.59029 0.29168 0.20553 0.0
H3612 H 0.62901 0.28827 0.18811 0.0
H3613 H 0.63109 0.26563 0.19671 0.0
C3614 C 0.64566 0.22579 0.25492 0.0
C3615 C 0.65872 0.22819 0.25062 0.0
C3616 C 0.63483 0.22866 0.24675 0.0
C3617 C 0.63677 0.23384 0.23401 0.0
C3618 C 0.64978 0.23651 0.2298 0.0
C3619 C 0.66062 0.23372 0.238 0.0
C3620 C 0.62528 0.23637 0.22503 0.0
C3621 C 0.62384 0.24894 0.2194 0.0
C3622 C 0.61562 0.22656 0.2222 0.0
C3623 C 0.61696 0.21282 0.22701 0.0
C3624 C 0.62844 0.20542 0.22418 0.0
C3625 C 0.62968 0.19251 0.22882 0.0
C3626 C 0.61947 0.18684 0.23621 0.0
C3627 C 0.60797 0.19407 0.23894 0.0
C3628 C 0.60668 0.207 0.23435 0.0
C3629 C 0.58352 0.25069 0.17759 0.0
C3630 C 0.57037 0.24916 0.18199 0.0
C3631 C 0.59419 0.24849 0.18618 0.0
C3632 C 0.59196 0.24465 0.19935 0.0
C3633 C 0.57884 0.243 0.20373 0.0
C3634 C 0.56817 0.24532 0.19519 0.0
C3635 C 0.6033 0.24223 0.2085 0.0
C3636 C 0.6047 0.22968 0.21413 0.0
C3637 C 0.61297 0.25201 0.21125 0.0
C3638 C 0.61175 0.26564 0.20609 0.0
C3639 C 0.60028 0.27316 0.20858 0.0
C3640 C 0.59916 0.28596 0.20362 0.0
C3641 C 0.6095 0.29139 0.19623 0.0
C3642 C 0.621 0.28405 0.19382 0.0
C3643 C 0.62215 0.27123 0.19874 0.0
H3644 H 0.60862 0.30131 0.1924 0.0
H3645 H 0.62045 0.17684 0.23978 0.0
H3646 H 0.45705 0.1133 0.03047 0.0
H3647 H 0.46245 0.1327 0.04391 0.0
H3648 H 0.50374 0.12835 0.03366 0.0
H3649 H 0.49846 0.10858 0.02049 0.0
H3650 H 0.50102 0.13361 0.05965 0.0
H3651 H 0.48462 0.15256 0.01969 0.0
H3652 H 0.46889 0.15591 1.00134 0.0
H3653 H 0.43896 0.16839 0.02904 0.0
H3654 H 0.45446 0.16493 0.04759 0.0
H3655 H 0.51909 0.19715 0.0854 0.0
H3656 H 0.51533 0.17803 0.07091 0.0
H3657 H 0.47347 0.17979 0.07948 0.0
H3658 H 0.47715 0.19884 0.09405 0.0
H3659 H 0.47751 0.17616 0.0535 0.0
H3660 H 0.49376 0.15634 0.09349 0.0
H3661 H 0.50957 0.153 0.11179 0.0
H3662 H 0.53994 0.14228 0.08385 0.0
H3663 H 0.52436 0.14573 0.06536 0.0
C3664 C 0.46731 0.11638 0.03113 0.0
C3665 C 0.47731 0.1093 0.02439 0.0
C3666 C 0.47037 0.12759 0.03872 0.0
C3667 C 0.48349 0.13213 0.03971 0.0
C3668 C 0.49353 0.12509 0.03303 0.0
C3669 C 0.49047 0.11385 0.0254 0.0
C3670 C 0.48669 0.14406 0.0479 0.0
C3671 C 0.49604 0.14297 0.05815 0.0
C3672 C 0.48002 0.15625 0.04617 0.0
C3673 C 0.47068 0.15837 0.03504 0.0
C3674 C 0.47465 0.15592 0.02188 0.0
C3675 C 0.46578 0.15786 0.01144 0.0
C3676 C 0.45292 0.16233 0.01403 0.0
C3677 C 0.44892 0.16491 0.02706 0.0
C3678 C 0.45775 0.16297 0.03753 0.0
C3679 C 0.50909 0.19339 0.08434 0.0
C3680 C 0.49843 0.19958 0.09095 0.0
C3681 C 0.50695 0.18245 0.07601 0.0
C3682 C 0.49412 0.17735 0.07416 0.0
C3683 C 0.48346 0.18354 0.08069 0.0
C3684 C 0.48559 0.19448 0.08901 0.0
C3685 C 0.49173 0.16567 0.06534 0.0
C3686 C 0.48255 0.16682 0.05496 0.0
C3687 C 0.49856 0.15355 0.06694 0.0
C3688 C 0.50793 0.15143 0.07804 0.0
C3689 C 0.50384 0.15337 0.09124 0.0
C3690 C 0.51276 0.15144 0.10165 0.0
C3691 C 0.52576 0.14747 0.09898 0.0
C3692 C 0.52987 0.14538 0.0859 0.0
C3693 C 0.521 0.14731 0.07546 0.0
H3694 H 0.53265 0.14598 0.10705 0.0
H3695 H 0.44607 0.16383 1.00593 0.0
H3696 H 0.25574 0.37256 0.73016 0.0
H3697 H 0.26932 0.39194 0.73535 0.0
H3698 H 0.30384 0.36706 0.7388 0.0
H3699 H 0.29025 0.34761 0.73409 0.0
H3700 H 0.30391 0.38521 0.75794 0.0
H3701 H 0.2978 0.38553 0.71074 0.0
H3702 H 0.285 0.38536 0.68994 0.0
H3703 H 0.26576 0.4215 0.70152 0.0
H3704 H 0.27832 0.42179 0.72249 0.0
H3705 H 0.35432 0.43384 0.75157 0.0
H3706 H 0.33955 0.41499 0.74805 0.0
H3707 H 0.30599 0.44132 0.74638 0.0
H3708 H 0.32076 0.46026 0.7496 0.0
H3709 H 0.30482 0.42289 0.72684 0.0
H3710 H 0.31174 0.42288 0.77379 0.0
H3711 H 0.32487 0.42301 0.79439 0.0
H3712 H 0.34295 0.3862 0.78306 0.0
H3713 H 0.33006 0.38595 0.76229 0.0
C3714 C 0.26618 0.37117 0.7322 0.0
C3715 C 0.27189 0.35848 0.7316 0.0
C3716 C 0.27398 0.38231 0.73504 0.0
C3717 C 0.28769 0.38104 0.73727 0.0
C3718 C 0.29332 0.36835 0.73705 0.0
C3719 C 0.28554 0.35723 0.73423 0.0
C3720 C 0.29621 0.3929 0.73966 0.0
C3721 C 0.30421 0.39337 0.75105 0.0
C3722 C 0.29644 0.40374 0.73086 0.0
C3723 C 0.28889 0.4036 0.71825 0.0
C3724 C 0.29076 0.39338 0.7089 0.0
C3725 C 0.28356 0.39328 0.69707 0.0
C3726 C 0.27454 0.40339 0.69442 0.0
C3727 C 0.27273 0.41366 0.70359 0.0
C3728 C 0.27989 0.4138 0.71545 0.0
C3729 C 0.34381 0.43565 0.75037 0.0
C3730 C 0.33875 0.44861 0.7509 0.0
C3731 C 0.33534 0.42483 0.74847 0.0
C3732 C 0.3216 0.42668 0.74708 0.0
C3733 C 0.31654 0.43961 0.74747 0.0
C3734 C 0.32499 0.45043 0.74943 0.0
C3735 C 0.31257 0.41516 0.74507 0.0
C3736 C 0.30448 0.41475 0.73375 0.0
C3737 C 0.31229 0.40436 0.75392 0.0
C3738 C 0.32002 0.40446 0.76642 0.0
C3739 C 0.31859 0.41487 0.77564 0.0
C3740 C 0.32598 0.41495 0.78735 0.0
C3741 C 0.33476 0.40464 0.79001 0.0
C3742 C 0.33615 0.3942 0.78097 0.0
C3743 C 0.3288 0.39407 0.76923 0.0
H3744 H 0.34047 0.40472 0.79909 0.0
H3745 H 0.26898 0.40329 0.68526 0.0
H3746 H 0.26887 0.66102 0.77323 0.0
H3747 H 0.28266 0.64176 0.76794 0.0
H3748 H 0.29029 0.63614 0.80957 0.0
H3749 H 0.27655 0.65531 0.8149 0.0
H3750 H 0.31263 0.63407 0.79617 0.0
H3751 H 0.2689 0.61589 0.79165 0.0
H3752 H 0.24606 0.61445 0.78307 0.0
H3753 H 0.261 0.61012 0.74341 0.0
H3754 H 0.28394 0.61171 0.75173 0.0
H3755 H 0.33911 0.56917 0.79467 0.0
H3756 H 0.32477 0.58829 0.79831 0.0
H3757 H 0.32158 0.59372 0.75612 0.0
H3758 H 0.33623 0.5748 0.75234 0.0
H3759 H 0.29731 0.59615 0.76876 0.0
H3760 H 0.34113 0.61372 0.77362 0.0
H3761 H 0.36389 0.61481 0.78245 0.0
H3762 H 0.34856 0.62003 0.82187 0.0
H3763 H 0.32569 0.61878 0.81329 0.0
C3764 C 0.27335 0.65559 0.78127 0.0
C3765 C 0.27162 0.65979 0.7945 0.0
C3766 C 0.28126 0.64457 0.77823 0.0
C3767 C 0.28751 0.6374 0.78835 0.0
C3768 C 0.28567 0.64151 0.80156 0.0
C3769 C 0.27782 0.65253 0.80459 0.0
C3770 C 0.29621 0.62582 0.78527 0.0
C3771 C 0.30919 0.62572 0.79031 0.0
C3772 C 0.29192 0.61502 0.77733 0.0
C3773 C 0.27814 0.61407 0.7723 0.0
C3774 C 0.26732 0.61475 0.78108 0.0
C3775 C 0.25435 0.61388 0.77627 0.0
C3776 C 0.25208 0.61223 0.7627 0.0
C3777 C 0.26277 0.61142 0.75392 0.0
C3778 C 0.27576 0.61229 0.75867 0.0
C3779 C 0.33553 0.57449 0.78613 0.0
C3780 C 0.33898 0.5704 0.77319 0.0
C3781 C 0.32725 0.58541 0.78824 0.0
C3782 C 0.32216 0.59254 0.7775 0.0
C3783 C 0.32535 0.58838 0.76457 0.0
C3784 C 0.33371 0.57749 0.76244 0.0
C3785 C 0.31363 0.60438 0.77981 0.0
C3786 C 0.30072 0.60453 0.77459 0.0
C3787 C 0.31795 0.61522 0.78763 0.0
C3788 C 0.33169 0.61603 0.79282 0.0
C3789 C 0.34261 0.615 0.78418 0.0
C3790 C 0.35553 0.61566 0.78914 0.0
C3791 C 0.35767 0.61746 0.80272 0.0
C3792 C 0.34689 0.61862 0.81136 0.0
C3793 C 0.33394 0.61795 0.80645 0.0
H3794 H 0.36768 0.61797 0.80654 0.0
H3795 H 0.24203 0.61156 0.759 0.0
H3796 H 0.8961 0.50757 0.4689 0.0
H3797 H 0.87694 0.49361 0.47365 0.0
H3798 H 0.89992 0.47219 0.5024 0.0
H3799 H 0.91916 0.48608 0.4976 0.0
H3800 H 0.88656 0.4554 0.48785 0.0
H3801 H 0.87535 0.49491 0.51151 0.0
H3802 H 0.87151 0.51877 0.51475 0.0
H3803 H 0.84056 0.51776 0.48558 0.0
H3804 H 0.84433 0.49391 0.48203 0.0
H3805 H 0.832 0.42274 0.51854 0.0
H3806 H 0.8508 0.43734 0.51444 0.0
H3807 H 0.83004 0.45469 0.4816 0.0
H3808 H 0.81137 0.43978 0.48524 0.0
H3809 H 0.84207 0.47353 0.4985 0.0
H3810 H 0.85378 0.4336 0.47513 0.0
H3811 H 0.85761 0.40964 0.47277 0.0
H3812 H 0.88779 0.41152 0.5027 0.0
H3813 H 0.88401 0.43548 0.50538 0.0
C3814 C 0.89704 0.50001 0.47636 0.0
C3815 C 0.9092 0.49799 0.48288 0.0
C3816 C 0.88605 0.49201 0.47908 0.0
C3817 C 0.88688 0.48189 0.48851 0.0
C3818 C 0.89899 0.47989 0.49506 0.0
C3819 C 0.91001 0.48784 0.4923 0.0
C3820 C 0.87525 0.47317 0.49127 0.0
C3821 C 0.8769 0.4594 0.49037 0.0
C3822 C 0.86251 0.4783 0.49432 0.0
C3823 C 0.86022 0.49265 0.49641 0.0
C3824 C 0.8678 0.49979 0.5057 0.0
C3825 C 0.86562 0.51332 0.50761 0.0
C3826 C 0.85582 0.51979 0.50035 0.0
C3827 C 0.84816 0.51274 0.49118 0.0
C3828 C 0.8503 0.49922 0.48923 0.0
C3829 C 0.83144 0.4295 0.51031 0.0
C3830 C 0.82008 0.42994 0.50219 0.0
C3831 C 0.8422 0.43793 0.50804 0.0
C3832 C 0.84188 0.44708 0.49767 0.0
C3833 C 0.83051 0.44775 0.48969 0.0
C3834 C 0.81978 0.43923 0.49185 0.0
C3835 C 0.85345 0.45584 0.49508 0.0
C3836 C 0.85177 0.46959 0.496 0.0
C3837 C 0.86619 0.4507 0.49218 0.0
C3838 C 0.86851 0.43631 0.49055 0.0
C3839 C 0.86116 0.42889 0.48129 0.0
C3840 C 0.86333 0.41531 0.47988 0.0
C3841 C 0.87291 0.40906 0.4876 0.0
C3842 C 0.88036 0.41637 0.49673 0.0
C3843 C 0.87821 0.42995 0.4982 0.0
H3844 H 0.87458 0.39854 0.48649 0.0
H3845 H 0.85415 0.53025 0.50185 0.0
H3846 H 0.73766 0.85054 0.78201 0.0
H3847 H 0.72138 0.86833 0.77982 0.0
H3848 H 0.75135 0.89697 0.79019 0.0
H3849 H 0.76755 0.87922 0.7928 0.0
H3850 H 0.72854 0.90288 0.8023 0.0
H3851 H 0.74179 0.89179 0.75784 0.0
H3852 H 0.74554 0.87705 0.73862 0.0
H3853 H 0.70412 0.86728 0.73777 0.0
H3854 H 0.70015 0.88184 0.75711 0.0
H3855 H 0.69769 0.96114 0.77862 0.0
H3856 H 0.71267 0.94248 0.78197 0.0
H3857 H 0.68109 0.91541 0.7722 0.0
H3858 H 0.66611 0.93406 0.76852 0.0
H3859 H 0.70397 0.90821 0.76012 0.0
H3860 H 0.69065 0.92001 0.80419 0.0
H3861 H 0.68701 0.93497 0.82326 0.0
H3862 H 0.72867 0.94357 0.82474 0.0
H3863 H 0.73254 0.9288 0.80555 0.0
C3864 C 0.74076 0.8606 0.784 0.0
C3865 C 0.75397 0.86342 0.78751 0.0
C3866 C 0.73146 0.8708 0.78261 0.0
C3867 C 0.73515 0.88405 0.78465 0.0
C3868 C 0.74824 0.88685 0.78849 0.0
C3869 C 0.75754 0.87668 0.78987 0.0
C3870 C 0.72547 0.89503 0.78264 0.0
C3871 C 0.72329 0.90412 0.79302 0.0
C3872 C 0.71835 0.89653 0.77065 0.0
C3873 C 0.7207 0.88779 0.75901 0.0
C3874 C 0.7335 0.88642 0.75362 0.0
C3875 C 0.73566 0.87811 0.74269 0.0
C3876 C 0.72508 0.8712 0.737 0.0
C3877 C 0.71231 0.87262 0.7422 0.0
C3878 C 0.7101 0.8809 0.75314 0.0
C3879 C 0.69394 0.95123 0.77708 0.0
C3880 C 0.68066 0.94914 0.77331 0.0
C3881 C 0.7025 0.94054 0.77912 0.0
C3882 C 0.698 0.92749 0.77749 0.0
C3883 C 0.6848 0.92536 0.77358 0.0
C3884 C 0.67621 0.93605 0.77158 0.0
C3885 C 0.7071 0.91609 0.77975 0.0
C3886 C 0.70918 0.90693 0.76942 0.0
C3887 C 0.71415 0.91454 0.79177 0.0
C3888 C 0.71186 0.92339 0.80335 0.0
C3889 C 0.69902 0.92517 0.80851 0.0
C3890 C 0.69692 0.9336 0.81936 0.0
C3891 C 0.70759 0.94024 0.82519 0.0
C3892 C 0.7204 0.93843 0.8202 0.0
C3893 C 0.72256 0.93002 0.80935 0.0
H3894 H 0.70595 0.94676 0.83358 0.0
H3895 H 0.72677 0.86478 0.72854 0.0
H3896 H 0.61252 0.52823 0.95821 0.0
H3897 H 0.63199 0.54167 0.96319 0.0
H3898 H 0.62954 0.53054 1.00428 0.0
H3899 H 0.60973 0.51735 0.99943 0.0
H3900 H 0.63413 0.5567 1.00196 0.0
H3901 H 0.65317 0.51715 0.98368 0.0
H3902 H 0.65608 0.49934 0.96712 0.0
H3903 H 0.66706 0.52783 0.93781 0.0
H3904 H 0.66404 0.54585 0.95415 0.0
H3905 H 0.69683 0.5838 0.01916 0.0
H3906 H 0.67827 0.56879 0.01546 0.0
H3907 H 0.68045 0.57594 0.97344 0.0
H3908 H 0.69956 0.59031 0.97695 0.0
H3909 H 0.67621 0.55101 0.97707 0.0
H3910 H 0.65628 0.5906 0.99469 0.0
H3911 H 0.65305 0.60869 0.0109 0.0
H3912 H 0.64342 0.58053 0.04101 0.0
H3913 H 0.64676 0.56226 0.02501 0.0
C3914 C 0.61603 0.52869 0.96834 0.0
C3915 C 0.60948 0.5217 0.97842 0.0
C3916 C 0.62729 0.53629 0.97115 0.0
C3917 C 0.63237 0.53704 0.98409 0.0
C3918 C 0.62586 0.5301 0.9942 0.0
C3919 C 0.61458 0.52246 0.99139 0.0
C3920 C 0.64433 0.54524 0.98705 0.0
C3921 C 0.6434 0.55532 0.99666 0.0
C3922 C 0.65636 0.54368 0.97995 0.0
C3923 C 0.65827 0.53286 0.97012 0.0
C3924 C 0.65611 0.51963 0.97368 0.0
C3925 C 0.65779 0.50949 0.96434 0.0
C3926 C 0.66172 0.51245 0.95141 0.0
C3927 C 0.664 0.52556 0.94782 0.0
C3928 C 0.66232 0.53573 0.95712 0.0
C3929 C 0.69352 0.58207 1.00909 0.0
C3930 C 0.69977 0.58839 0.99837 0.0
C3931 C 0.68273 0.57359 1.00701 0.0
C3932 C 0.67772 0.57136 0.99418 0.0
C3933 C 0.68403 0.57752 0.98345 0.0
C3934 C 0.69491 0.58589 0.9855 0.0
C3935 C 0.66599 0.56259 0.9919 0.0
C3936 C 0.66697 0.55239 0.98241 0.0
C3937 C 0.65397 0.56408 0.99907 0.0
C3938 C 0.6519 0.57506 1.00869 0.0
C3939 C 0.65357 0.58826 1.00479 0.0
C3940 C 0.6517 0.59855 0.01393 0.0
C3941 C 0.64807 0.59576 0.02698 0.0
C3942 C 0.64626 0.58268 0.0309 0.0
C3943 C 0.64812 0.57235 0.0218 0.0
H3944 H 0.64663 0.60374 0.03405 0.0
H3945 H 0.66302 0.50459 0.94419 0.0
H3946 H 0.23564 0.66924 0.23741 0.0
H3947 H 0.21945 0.65132 0.23919 0.0
H3948 H 0.25123 0.62282 0.23967 0.0
H3949 H 0.26741 0.6406 0.23745 0.0
H3950 H 0.23153 0.61409 0.22443 0.0
H3951 H 0.23503 0.6327 0.26833 0.0
H3952 H 0.23437 0.65049 0.28517 0.0
H3953 H 0.19354 0.65804 0.2759 0.0
H3954 H 0.19401 0.6404 0.25887 0.0
H3955 H 0.19772 0.55863 0.25025 0.0
H3956 H 0.21262 0.57732 0.24697 0.0
H3957 H 0.17919 0.60388 0.24691 0.0
H3958 H 0.16423 0.58527 0.25069 0.0
H3959 H 0.19892 0.61412 0.26127 0.0
H3960 H 0.19514 0.59491 0.21795 0.0
H3961 H 0.19578 0.57704 0.20121 0.0
H3962 H 0.23705 0.57061 0.20932 0.0
H3963 H 0.23662 0.58832 0.22625 0.0
C3964 C 0.23919 0.65915 0.23773 0.0
C3965 C 0.25288 0.65642 0.23738 0.0
C3966 C 0.22991 0.6489 0.23888 0.0
C3967 C 0.23409 0.63568 0.23977 0.0
C3968 C 0.24772 0.63291 0.23908 0.0
C3969 C 0.25699 0.64313 0.23792 0.0
C3970 C 0.22434 0.62472 0.24156 0.0
C3971 C 0.2245 0.61404 0.23257 0.0
C3972 C 0.21491 0.62475 0.25198 0.0
C3973 C 0.2146 0.63533 0.26223 0.0
C3974 C 0.22594 0.63822 0.26981 0.0
C3975 C 0.2256 0.64826 0.2794 0.0
C3976 C 0.21393 0.65541 0.28158 0.0
C3977 C 0.20258 0.65251 0.27419 0.0
C3978 C 0.20287 0.64249 0.26457 0.0
C3979 C 0.19351 0.56845 0.24968 0.0
C3980 C 0.17971 0.57038 0.25073 0.0
C3981 C 0.20206 0.57914 0.24764 0.0
C3982 C 0.19706 0.59204 0.2465 0.0
C3983 C 0.18332 0.59404 0.24769 0.0
C3984 C 0.17475 0.58334 0.24973 0.0
C3985 C 0.20618 0.60343 0.2442 0.0
C3986 C 0.2059 0.61419 0.25308 0.0
C3987 C 0.2155 0.60349 0.23368 0.0
C3988 C 0.21581 0.59287 0.22346 0.0
C3989 C 0.20433 0.58962 0.21623 0.0
C3990 C 0.20466 0.57953 0.2067 0.0
C3991 C 0.21644 0.57267 0.20422 0.0
C3992 C 0.22793 0.57592 0.21126 0.0
C3993 C 0.22765 0.58599 0.22082 0.0
H3994 H 0.21667 0.56486 0.19683 0.0
H3995 H 0.21368 0.66318 0.28901 0.0
H3996 H 0.92064 0.54195 0.04149 0.0
H3997 H 0.90129 0.55554 0.03661 0.0
H3998 H 0.87658 0.52079 0.0363 0.0
H3999 H 0.89596 0.50708 0.04125 0.0
H4000 H 0.8698 0.53703 0.01642 0.0
H4001 H 0.87688 0.54167 0.06302 0.0
H4002 H 0.88962 0.54616 0.0834 0.0
H4003 H 0.89709 0.58579 0.07052 0.0
H4004 H 0.88455 0.58147 0.04995 0.0
H4005 H 0.80822 0.5717 0.02318 0.0
H4006 H 0.82737 0.55732 0.0269 0.0
H4007 H 0.85341 0.591 0.02477 0.0
H4008 H 0.83429 0.60546 0.02113 0.0
H4009 H 0.85914 0.57495 0.04603 0.0
H4010 H 0.85179 0.56995 0.99926 0.0
H4011 H 0.8387 0.56518 0.97916 0.0
H4012 H 0.83118 0.52585 0.99287 0.0
H4013 H 0.84407 0.53045 0.01316 0.0
C4014 C 0.91109 0.53717 0.04047 0.0
C4015 C 0.90988 0.5234 0.04192 0.0
C4016 C 0.90001 0.54497 0.03765 0.0
C4017 C 0.88739 0.53925 0.0363 0.0
C4018 C 0.88619 0.52546 0.03732 0.0
C4019 C 0.8973 0.51762 0.04012 0.0
C4020 C 0.87547 0.54771 0.03406 0.0
C4021 C 0.86737 0.5452 0.023 0.0
C4022 C 0.87237 0.55854 0.04251 0.0
C4023 C 0.87989 0.5612 0.05488 0.0
C4024 C 0.88133 0.55131 0.06448 0.0
C4025 C 0.8885 0.55383 0.07608 0.0
C4026 C 0.89419 0.56624 0.07824 0.0
C4027 C 0.89269 0.57617 0.06882 0.0
C4028 C 0.88555 0.57369 0.05719 0.0
C4029 C 0.81802 0.57606 0.02355 0.0
C4030 C 0.81971 0.58974 0.02184 0.0
C4031 C 0.82897 0.5678 0.02558 0.0
C4032 C 0.84186 0.57304 0.02603 0.0
C4033 C 0.84358 0.58671 0.02443 0.0
C4034 C 0.83264 0.59495 0.02226 0.0
C4035 C 0.85354 0.56432 0.02835 0.0
C4036 C 0.86157 0.56677 0.03945 0.0
C4037 C 0.85652 0.55339 0.02 0.0
C4038 C 0.84878 0.55059 1.0078 0.0
C4039 C 0.84724 0.56032 0.99805 0.0
C4040 C 0.83988 0.55764 0.98661 0.0
C4041 C 0.83408 0.54523 0.98476 0.0
C4042 C 0.83566 0.53547 0.99433 0.0
C4043 C 0.843 0.5381 1.0058 0.0
H4044 H 0.82839 0.54318 0.97589 0.0
H4045 H 0.89974 0.56817 0.08722 0.0
H4046 H 0.12277 0.01327 0.04325 0.0
H4047 H 0.14212 0.99941 0.03842 0.0
H4048 H 0.11743 0.96467 0.03944 0.0
H4049 H 0.09808 0.97842 0.04416 0.0
H4050 H 0.13941 0.96088 0.05351 0.0
H4051 H 0.12943 0.97724 0.01007 0.0
H4052 H 0.12519 0.99428 0.99328 0.0
H4053 H 0.16384 0.01075 1.00008 0.0
H4054 H 0.16824 0.9939 0.01705 0.0
H4055 H 0.18428 0.91402 0.02669 0.0
H4056 H 0.16545 0.92878 0.03027 0.0
H4057 H 0.19152 0.96247 0.02848 0.0
H4058 H 0.21037 0.94778 0.02438 0.0
H4059 H 0.16931 0.96732 0.01505 0.0
H4060 H 0.17947 0.95101 0.05825 0.0
H4061 H 0.18385 0.9341 0.07514 0.0
H4062 H 0.14502 0.9178 0.06904 0.0
H4063 H 0.14047 0.93452 0.05198 0.0
C4064 C 0.12141 1.0027 0.04225 0.0
C4065 C 0.10883 0.99699 0.04415 0.0
C4066 C 0.13251 0.99477 0.03951 0.0
C4067 C 0.13127 0.98096 0.0385 0.0
C4068 C 0.1187 0.97527 0.04024 0.0
C4069 C 0.10762 0.98317 0.04298 0.0
C4070 C 0.14308 0.97236 0.03602 0.0
C4071 C 0.14584 0.9622 0.045 0.0
C4072 C 0.15173 0.97426 0.02513 0.0
C4073 C 0.14911 0.98439 0.01493 0.0
C4074 C 0.13698 0.98456 1.00806 0.0
C4075 C 0.13456 0.99418 0.9985 0.0
C4076 C 0.14422 1.00362 0.99564 0.0
C4077 C 0.15635 1.00344 1.00232 0.0
C4078 C 0.15882 0.99386 0.0119 0.0
C4079 C 0.18603 0.92457 0.02692 0.0
C4080 C 0.19892 0.92966 0.02527 0.0
C4081 C 0.17524 0.93302 0.02911 0.0
C4082 C 0.17704 0.94678 0.02984 0.0
C4083 C 0.18985 0.95191 0.02803 0.0
C4084 C 0.20066 0.94346 0.02581 0.0
C4085 C 0.16557 0.95577 0.03249 0.0
C4086 C 0.16289 0.96602 0.02357 0.0
C4087 C 0.15699 0.95398 0.04346 0.0
C4088 C 0.15968 0.94394 0.05374 0.0
C4089 C 0.1719 0.94376 0.06044 0.0
C4090 C 0.17441 0.93422 0.07005 0.0
C4091 C 0.16473 0.92486 0.07313 0.0
C4092 C 0.15251 0.92505 0.06663 0.0
C4093 C 0.14996 0.93456 0.05699 0.0
H4094 H 0.16669 0.91748 0.08058 0.0
H4095 H 0.14233 0.01105 0.98823 0.0
loop_
_geom_bond_atom_site_label_1
_geom_bond_atom_site_label_2
_geom_bond_distance
_geom_bond_site_symmetry_2
_ccdc_geom_bond_type
C0 C1 1.264 . S
C0 C5 1.479 1_455 S
C0 C10 1.465 . S
C1 C0 1.264 . S
C1 C3 1.339 1_455 S
C1 H28 0.931 . S
C2 C3 1.395 . S
C2 C4 1.320 . S
C3 C1 1.339 1_655 S
C3 C2 1.395 . S
C3 H29 0.924 1_655 S
C4 C2 1.320 . S
C4 C5 1.405 . S
C4 H30 0.930 . S
C5 C0 1.479 1_655 S
C5 C4 1.405 . S
C5 H31 0.931 . S
U6 O7 2.454 . S
U6 O8 2.458 . S
U6 C9 2.984 . S
U6 C10 2.847 . S
U6 C23 2.882 . S
U6 O24 2.441 . S
U6 O25 2.420 . S
U6 O26 2.455 . S
U6 O27 2.449 . S
O7 U6 2.454 . S
O7 C9 1.353 . S
O8 U6 2.458 . S
O8 C9 1.286 . S
C9 U6 2.984 . S
C9 O7 1.353 . S
C9 O8 1.286 . S
C9 C11 1.363 . S
C10 C0 1.465 . S
C10 U6 2.847 . S
C10 O24 1.249 . S
C10 O25 1.202 . S
C11 C9 1.363 . S
C11 C13 1.408 . S
C11 C16 1.342 1_554 S
C12 C13 1.310 . S
C12 C15 1.461 1_554 S
C12 H32 0.932 . S
C13 C11 1.408 . S
C13 C12 1.310 . S
C13 H33 0.930 . S
C14 C15 1.474 . S
C14 C16 1.285 . S
C14 H34 0.929 . S
C15 C12 1.461 1_556 S
C15 C14 1.474 . S
C16 C11 1.342 1_556 S
C16 C14 1.285 . S
C16 H35 0.930 . S
C17 C20 1.424 1_545 S
C17 C22 1.245 . S
C17 C23 1.428 . S
C18 C21 1.260 . S
C18 C22 1.477 1_565 S
C18 H36 0.932 . S
C19 C20 1.384 . S
C19 C21 1.479 . S
C19 H37 0.929 . S
C20 C17 1.424 1_565 S
C20 C19 1.384 . S
C20 H38 0.928 . S
C21 C18 1.260 . S
C21 C19 1.479 . S
C22 C17 1.245 . S
C22 C18 1.477 1_545 S
C22 H39 0.932 . S
C23 U6 2.882 . S
C23 C17 1.428 . S
C23 O26 1.301 . S
C23 O27 1.282 . S
O24 U6 2.441 . S
O24 C10 1.249 . S
O25 U6 2.420 . S
O25 C10 1.202 . S
O26 U6 2.455 . S
O26 C23 1.301 . S
O27 U6 2.449 . S
O27 C23 1.282 . S
H28 C1 0.931 . S
H29 C3 0.924 1_455 S
H30 C4 0.930 . S
H31 C5 0.931 . S
H32 C12 0.932 . S
H33 C13 0.930 . S
H34 C14 0.929 . S
H35 C16 0.930 . S
H36 C18 0.932 . S
H37 C19 0.929 . S
H38 C20 0.928 . S
H39 C22 0.932 . S
C40 C41 1.264 . S
C40 C45 1.479 . S
C40 C50 1.465 . S
C41 C40 1.264 . S
C41 C43 1.339 . S
C41 H68 0.931 . S
C42 C43 1.395 . S
C42 C44 1.320 . S
C43 C41 1.339 . S
C43 C42 1.395 . S
C43 H69 0.929 . S
C44 C42 1.320 . S
C44 C45 1.405 . S
C44 H70 0.930 . S
C45 C40 1.479 . S
C45 C44 1.405 . S
C45 H71 0.931 . S
U46 O47 2.454 . S
U46 O48 2.458 . S
U46 C49 2.984 . S
U46 C50 2.847 . S
U46 C63 2.882 . S
U46 O64 2.441 . S
U46 O65 2.420 . S
U46 O66 2.455 . S
U46 O67 2.449 . S
O47 U46 2.454 . S
O47 C49 1.353 . S
O48 U46 2.458 . S
O48 C49 1.286 . S
C49 U46 2.984 . S
C49 O47 1.353 . S
C49 O48 1.286 . S
C49 C51 1.363 . S
C50 C40 1.465 . S
C50 U46 2.847 . S
C50 O64 1.249 . S
C50 O65 1.202 . S
C51 C49 1.363 . S
C51 C53 1.408 . S
C51 C56 1.342 . S
C52 C53 1.310 . S
C52 C55 1.461 . S
C52 H72 0.932 . S
C53 C51 1.408 . S
C53 C52 1.310 . S
C53 H73 0.930 . S
C54 C55 1.474 . S
C54 C56 1.285 . S
C54 H74 0.929 . S
C55 C52 1.461 . S
C55 C54 1.474 . S
C56 C51 1.342 . S
C56 C54 1.285 . S
C56 H75 0.930 . S
C57 C60 1.424 . S
C57 C62 1.245 . S
C57 C63 1.428 . S
C58 C61 1.260 . S
C58 C62 1.477 . S
C58 H76 0.932 . S
C59 C60 1.384 . S
C59 C61 1.479 . S
C59 H77 0.929 . S
C60 C57 1.424 . S
C60 C59 1.384 . S
C60 H78 0.928 . S
C61 C58 1.260 . S
C61 C59 1.479 . S
C62 C57 1.245 . S
C62 C58 1.477 . S
C62 H79 0.932 . S
C63 U46 2.882 . S
C63 C57 1.428 . S
C63 O66 1.301 . S
C63 O67 1.282 . S
O64 U46 2.441 . S
O64 C50 1.249 . S
O65 U46 2.420 . S
O65 C50 1.202 . S
O66 U46 2.455 . S
O66 C63 1.301 . S
O67 U46 2.449 . S
O67 C63 1.282 . S
H68 C41 0.931 . S
H69 C43 0.929 . S
H70 C44 0.930 . S
H71 C45 0.931 . S
H72 C52 0.932 . S
H73 C53 0.930 . S
H74 C54 0.929 . S
H75 C56 0.930 . S
H76 C58 0.932 . S
H77 C59 0.929 . S
H78 C60 0.928 . S
H79 C62 0.932 . S
C80 C81 1.264 . S
C80 C85 1.479 1_554 S
C80 C90 1.465 . S
C81 C80 1.264 . S
C81 C83 1.306 1_554 S
C81 H108 0.931 . S
C82 C83 1.442 . S
C82 C84 1.320 . S
C83 C81 1.306 1_556 S
C83 C82 1.442 . S
C83 H109 0.914 1_556 S
C84 C82 1.320 . S
C84 C85 1.405 . S
C84 H110 0.930 . S
C85 C80 1.479 1_556 S
C85 C84 1.405 . S
C85 H111 0.931 . S
U86 O87 2.454 . S
U86 O88 2.458 . S
U86 C89 2.984 . S
U86 C90 2.847 . S
U86 C103 2.882 . S
U86 O104 2.441 . S
U86 O105 2.420 . S
U86 O106 2.455 . S
U86 O107 2.449 . S
O87 U86 2.454 . S
O87 C89 1.353 . S
O88 U86 2.458 . S
O88 C89 1.286 . S
C89 U86 2.984 . S
C89 O87 1.353 . S
C89 O88 1.286 . S
C89 C91 1.363 . S
C90 C80 1.465 . S
C90 U86 2.847 . S
C90 O104 1.249 . S
C90 O105 1.202 . S
C91 C89 1.363 . S
C91 C93 1.408 . S
C91 C96 1.342 . S
C92 C93 1.310 . S
C92 C95 1.461 . S
C92 H112 0.932 . S
C93 C91 1.408 . S
C93 C92 1.310 . S
C93 H113 0.930 . S
C94 C95 1.474 . S
C94 C96 1.285 . S
C94 H114 0.929 . S
C95 C92 1.461 . S
C95 C94 1.474 . S
C96 C91 1.342 . S
C96 C94 1.285 . S
C96 H115 0.930 . S
C97 C100 1.424 1_655 S
C97 C102 1.245 . S
C97 C103 1.428 . S
C98 C101 1.260 . S
C98 C102 1.477 1_455 S
C98 H116 0.932 . S
C99 C100 1.384 . S
C99 C101 1.479 . S
C99 H117 0.929 . S
C100 C97 1.424 1_455 S
C100 C99 1.384 . S
C100 H118 0.928 . S
C101 C98 1.260 . S
C101 C99 1.479 . S
C102 C97 1.245 . S
C102 C98 1.477 1_655 S
C102 H119 0.932 . S
C103 U86 2.882 . S
C103 C97 1.428 . S
C103 O106 1.301 . S
C103 O107 1.282 . S
O104 U86 2.441 . S
O104 C90 1.249 . S
O105 U86 2.420 . S
O105 C90 1.202 . S
O106 U86 2.455 . S
O106 C103 1.301 . S
O107 U86 2.449 . S
O107 C103 1.282 . S
H108 C81 0.931 . S
H109 C83 0.914 1_554 S
H110 C84 0.930 . S
H111 C85 0.931 . S
H112 C92 0.932 . S
H113 C93 0.930 . S
H114 C94 0.929 . S
H115 C96 0.930 . S
H116 C98 0.932 . S
H117 C99 0.929 . S
H118 C100 0.928 . S
H119 C102 0.932 . S
C120 C121 1.264 . S
C120 C125 1.479 . S
C120 C130 1.465 . S
C121 C120 1.264 . S
C121 C123 1.339 . S
C121 H148 0.931 . S
C122 C123 1.395 . S
C122 C124 1.320 . S
C123 C121 1.339 . S
C123 C122 1.395 . S
C123 H149 0.929 . S
C124 C122 1.320 . S
C124 C125 1.405 . S
C124 H150 0.930 . S
C125 C120 1.479 . S
C125 C124 1.405 . S
C125 H151 0.931 . S
U126 O127 2.454 . S
U126 O128 2.458 . S
U126 C129 2.984 . S
U126 C130 2.847 . S
U126 C143 2.882 . S
U126 O144 2.441 . S
U126 O145 2.420 . S
U126 O146 2.455 . S
U126 O147 2.449 . S
O127 U126 2.454 . S
O127 C129 1.353 . S
O128 U126 2.458 . S
O128 C129 1.286 . S
C129 U126 2.984 . S
C129 O127 1.353 . S
C129 O128 1.286 . S
C129 C131 1.363 . S
C130 C120 1.465 . S
C130 U126 2.847 . S
C130 O144 1.249 . S
C130 O145 1.202 . S
C131 C129 1.363 . S
C131 C133 1.408 . S
C131 C136 1.342 . S
C132 C133 1.310 . S
C132 C135 1.461 . S
C132 H152 0.932 . S
C133 C131 1.408 . S
C133 C132 1.310 . S
C133 H153 0.930 . S
C134 C135 1.474 . S
C134 C136 1.285 . S
C134 H154 0.929 . S
C135 C132 1.461 . S
C135 C134 1.474 . S
C136 C131 1.342 . S
C136 C134 1.285 . S
C136 H155 0.930 . S
C137 C140 1.424 . S
C137 C142 1.245 . S
C137 C143 1.428 . S
C138 C141 1.260 . S
C138 C142 1.477 . S
C138 H156 0.932 . S
C139 C140 1.384 . S
C139 C141 1.479 . S
C139 H157 0.929 . S
C140 C137 1.424 . S
C140 C139 1.384 . S
C140 H158 0.928 . S
C141 C138 1.260 . S
C141 C139 1.479 . S
C142 C137 1.245 . S
C142 C138 1.477 . S
C142 H159 0.932 . S
C143 U126 2.882 . S
C143 C137 1.428 . S
C143 O146 1.301 . S
C143 O147 1.282 . S
O144 U126 2.441 . S
O144 C130 1.249 . S
O145 U126 2.420 . S
O145 C130 1.202 . S
O146 U126 2.455 . S
O146 C143 1.301 . S
O147 U126 2.449 . S
O147 C143 1.282 . S
H148 C121 0.931 . S
H149 C123 0.929 . S
H150 C124 0.930 . S
H151 C125 0.931 . S
H152 C132 0.932 . S
H153 C133 0.930 . S
H154 C134 0.929 . S
H155 C136 0.930 . S
H156 C138 0.932 . S
H157 C139 0.929 . S
H158 C140 0.928 . S
H159 C142 0.932 . S
C160 C161 1.264 . S
C160 C165 1.479 1_455 S
C160 C170 1.465 . S
C161 C160 1.264 . S
C161 C163 1.339 1_455 S
C161 H188 0.931 . S
C162 C163 1.395 . S
C162 C164 1.320 . S
C163 C161 1.339 1_655 S
C163 C162 1.395 . S
C163 H189 0.923 1_655 S
C164 C162 1.320 . S
C164 C165 1.405 . S
C164 H190 0.930 . S
C165 C160 1.479 1_655 S
C165 C164 1.405 . S
C165 H191 0.931 . S
U166 O167 2.454 . S
U166 O168 2.458 . S
U166 C169 2.984 . S
U166 C170 2.847 . S
U166 C183 2.882 . S
U166 O184 2.441 . S
U166 O185 2.420 . S
U166 O186 2.455 . S
U166 O187 2.449 . S
O167 U166 2.454 . S
O167 C169 1.353 . S
O168 U166 2.458 . S
O168 C169 1.286 . S
C169 U166 2.984 . S
C169 O167 1.353 . S
C169 O168 1.286 . S
C169 C171 1.363 . S
C170 C160 1.465 . S
C170 U166 2.847 . S
C170 O184 1.249 . S
C170 O185 1.202 . S
C171 C169 1.363 . S
C171 C173 1.408 . S
C171 C176 1.342 . S
C172 C173 1.310 . S
C172 C175 1.461 . S
C172 H192 0.932 . S
C173 C171 1.408 . S
C173 C172 1.310 . S
C173 H193 0.930 . S
C174 C175 1.474 . S
C174 C176 1.285 . S
C174 H194 0.929 . S
C175 C172 1.461 . S
C175 C174 1.474 . S
C176 C171 1.342 . S
C176 C174 1.285 . S
C176 H195 0.930 . S
C177 C180 1.424 1_565 S
C177 C182 1.245 . S
C177 C183 1.428 . S
C178 C181 1.260 . S
C178 C182 1.477 1_545 S
C178 H196 0.932 . S
C179 C180 1.384 . S
C179 C181 1.479 . S
C179 H197 0.929 . S
C180 C177 1.424 1_545 S
C180 C179 1.384 . S
C180 H198 0.928 . S
C181 C178 1.260 . S
C181 C179 1.479 . S
C182 C177 1.245 . S
C182 C178 1.477 1_565 S
C182 H199 0.932 . S
C183 U166 2.882 . S
C183 C177 1.428 . S
C183 O186 1.301 . S
C183 O187 1.282 . S
O184 U166 2.441 . S
O184 C170 1.249 . S
O185 U166 2.420 . S
O185 C170 1.202 . S
O186 U166 2.455 . S
O186 C183 1.301 . S
O187 U166 2.449 . S
O187 C183 1.282 . S
H188 C161 0.931 . S
H189 C163 0.923 1_455 S
H190 C164 0.930 . S
H191 C165 0.931 . S
H192 C172 0.932 . S
H193 C173 0.930 . S
H194 C174 0.929 . S
H195 C176 0.930 . S
H196 C178 0.932 . S
H197 C179 0.929 . S
H198 C180 0.928 . S
H199 C182 0.932 . S
C200 C201 1.264 . S
C200 C205 1.479 . S
C200 C210 1.465 . S
C201 C200 1.264 . S
C201 C203 1.339 . S
C201 H228 0.931 . S
C202 C203 1.395 . S
C202 C204 1.320 . S
C203 C201 1.339 . S
C203 C202 1.395 . S
C203 H229 0.929 . S
C204 C202 1.320 . S
C204 C205 1.405 . S
C204 H230 0.930 . S
C205 C200 1.479 . S
C205 C204 1.405 . S
C205 H231 0.931 . S
U206 O207 2.454 . S
U206 O208 2.458 . S
U206 C209 2.984 . S
U206 C210 2.847 . S
U206 C223 2.882 . S
U206 O224 2.441 . S
U206 O225 2.420 . S
U206 O226 2.455 . S
U206 O227 2.449 . S
O207 U206 2.454 . S
O207 C209 1.353 . S
O208 U206 2.458 . S
O208 C209 1.286 . S
C209 U206 2.984 . S
C209 O207 1.353 . S
C209 O208 1.286 . S
C209 C211 1.363 . S
C210 C200 1.465 . S
C210 U206 2.847 . S
C210 O224 1.249 . S
C210 O225 1.202 . S
C211 C209 1.363 . S
C211 C213 1.408 . S
C211 C216 1.342 . S
C212 C213 1.310 . S
C212 C215 1.461 . S
C212 H232 0.932 . S
C213 C211 1.408 . S
C213 C212 1.310 . S
C213 H233 0.930 . S
C214 C215 1.474 . S
C214 C216 1.285 . S
C214 H234 0.929 . S
C215 C212 1.461 . S
C215 C214 1.474 . S
C216 C211 1.342 . S
C216 C214 1.285 . S
C216 H235 0.930 . S
C217 C220 1.424 . S
C217 C222 1.245 . S
C217 C223 1.428 . S
C218 C221 1.260 . S
C218 C222 1.477 . S
C218 H236 0.932 . S
C219 C220 1.384 . S
C219 C221 1.479 . S
C219 H237 0.929 . S
C220 C217 1.424 . S
C220 C219 1.384 . S
C220 H238 0.928 . S
C221 C218 1.260 . S
C221 C219 1.479 . S
C222 C217 1.245 . S
C222 C218 1.477 . S
C222 H239 0.932 . S
C223 U206 2.882 . S
C223 C217 1.428 . S
C223 O226 1.301 . S
C223 O227 1.282 . S
O224 U206 2.441 . S
O224 C210 1.249 . S
O225 U206 2.420 . S
O225 C210 1.202 . S
O226 U206 2.455 . S
O226 C223 1.301 . S
O227 U206 2.449 . S
O227 C223 1.282 . S
H228 C201 0.931 . S
H229 C203 0.929 . S
H230 C204 0.930 . S
H231 C205 0.931 . S
H232 C212 0.932 . S
H233 C213 0.930 . S
H234 C214 0.929 . S
H235 C216 0.930 . S
H236 C218 0.932 . S
H237 C219 0.929 . S
H238 C220 0.928 . S
H239 C222 0.932 . S
C240 C241 1.264 . S
C240 C245 1.479 . S
C240 C250 1.465 . S
C241 C240 1.264 . S
C241 C243 1.339 . S
C241 H268 0.931 . S
C242 C243 1.395 . S
C242 C244 1.320 . S
C243 C241 1.339 . S
C243 C242 1.395 . S
C243 H269 0.929 . S
C244 C242 1.320 . S
C244 C245 1.405 . S
C244 H270 0.930 . S
C245 C240 1.479 . S
C245 C244 1.405 . S
C245 H271 0.931 . S
U246 O247 2.454 . S
U246 O248 2.458 . S
U246 C249 2.984 . S
U246 C250 2.847 . S
U246 C263 2.882 . S
U246 O264 2.441 . S
U246 O265 2.420 . S
U246 O266 2.455 . S
U246 O267 2.449 . S
O247 U246 2.454 . S
O247 C249 1.353 . S
O248 U246 2.458 . S
O248 C249 1.286 . S
C249 U246 2.984 . S
C249 O247 1.353 . S
C249 O248 1.286 . S
C249 C251 1.363 . S
C250 C240 1.465 . S
C250 U246 2.847 . S
C250 O264 1.249 . S
C250 O265 1.202 . S
C251 C249 1.363 . S
C251 C253 1.408 . S
C251 C256 1.342 . S
C252 C253 1.310 . S
C252 C255 1.461 . S
C252 H272 0.932 . S
C253 C251 1.408 . S
C253 C252 1.310 . S
C253 H273 0.930 . S
C254 C255 1.474 . S
C254 C256 1.285 . S
C254 H274 0.929 . S
C255 C252 1.461 . S
C255 C254 1.474 . S
C256 C251 1.342 . S
C256 C254 1.285 . S
C256 H275 0.930 . S
C257 C260 1.424 1_655 S
C257 C262 1.245 . S
C257 C263 1.428 . S
C258 C261 1.260 . S
C258 C262 1.477 1_455 S
C258 H276 0.932 . S
C259 C260 1.384 . S
C259 C261 1.479 . S
C259 H277 0.929 . S
C260 C257 1.424 1_455 S
C260 C259 1.384 . S
C260 H278 0.928 . S
C261 C258 1.260 . S
C261 C259 1.479 . S
C262 C257 1.245 . S
C262 C258 1.477 1_655 S
C262 H279 0.932 . S
C263 U246 2.882 . S
C263 C257 1.428 . S
C263 O266 1.301 . S
C263 O267 1.282 . S
O264 U246 2.441 . S
O264 C250 1.249 . S
O265 U246 2.420 . S
O265 C250 1.202 . S
O266 U246 2.455 . S
O266 C263 1.301 . S
O267 U246 2.449 . S
O267 C263 1.282 . S
H268 C241 0.931 . S
H269 C243 0.929 . S
H270 C244 0.930 . S
H271 C245 0.931 . S
H272 C252 0.932 . S
H273 C253 0.930 . S
H274 C254 0.929 . S
H275 C256 0.930 . S
H276 C258 0.932 . S
H277 C259 0.929 . S
H278 C260 0.928 . S
H279 C262 0.932 . S
C280 C281 1.264 . S
C280 C285 1.479 . S
C280 C290 1.465 . S
C281 C280 1.264 . S
C281 C283 1.339 . S
C281 H308 0.931 . S
C282 C283 1.395 . S
C282 C284 1.320 . S
C283 C281 1.339 . S
C283 C282 1.395 . S
C283 H309 0.929 . S
C284 C282 1.320 . S
C284 C285 1.405 . S
C284 H310 0.930 . S
C285 C280 1.479 . S
C285 C284 1.405 . S
C285 H311 0.931 . S
U286 O287 2.454 . S
U286 O288 2.458 . S
U286 C289 2.984 . S
U286 C290 2.847 . S
U286 C303 2.882 . S
U286 O304 2.441 . S
U286 O305 2.420 . S
U286 O306 2.455 . S
U286 O307 2.449 . S
O287 U286 2.454 . S
O287 C289 1.353 . S
O288 U286 2.458 . S
O288 C289 1.286 . S
C289 U286 2.984 . S
C289 O287 1.353 . S
C289 O288 1.286 . S
C289 C291 1.363 . S
C290 C280 1.465 . S
C290 U286 2.847 . S
C290 O304 1.249 . S
C290 O305 1.202 . S
C291 C289 1.363 . S
C291 C293 1.408 . S
C291 C296 1.342 . S
C292 C293 1.310 . S
C292 C295 1.461 . S
C292 H312 0.932 . S
C293 C291 1.408 . S
C293 C292 1.310 . S
C293 H313 0.930 . S
C294 C295 1.474 . S
C294 C296 1.285 . S
C294 H314 0.929 . S
C295 C292 1.461 . S
C295 C294 1.474 . S
C296 C291 1.342 . S
C296 C294 1.285 . S
C296 H315 0.930 . S
C297 C300 1.424 . S
C297 C302 1.245 . S
C297 C303 1.428 . S
C298 C301 1.260 . S
C298 C302 1.477 . S
C298 H316 0.932 . S
C299 C300 1.384 . S
C299 C301 1.479 . S
C299 H317 0.929 . S
C300 C297 1.424 . S
C300 C299 1.384 . S
C300 H318 0.928 . S
C301 C298 1.260 . S
C301 C299 1.479 . S
C302 C297 1.245 . S
C302 C298 1.477 . S
C302 H319 0.932 . S
C303 U286 2.882 . S
C303 C297 1.428 . S
C303 O306 1.301 . S
C303 O307 1.282 . S
O304 U286 2.441 . S
O304 C290 1.249 . S
O305 U286 2.420 . S
O305 C290 1.202 . S
O306 U286 2.455 . S
O306 C303 1.301 . S
O307 U286 2.449 . S
O307 C303 1.282 . S
H308 C281 0.931 . S
H309 C283 0.929 . S
H310 C284 0.930 . S
H311 C285 0.931 . S
H312 C292 0.932 . S
H313 C293 0.930 . S
H314 C294 0.929 . S
H315 C296 0.930 . S
H316 C298 0.932 . S
H317 C299 0.929 . S
H318 C300 0.928 . S
H319 C302 0.932 . S
C320 C321 1.264 . S
C320 C325 1.479 . S
C320 C330 1.465 . S
C321 C320 1.264 . S
C321 C323 1.339 . S
C321 H348 0.931 . S
C322 C323 1.395 . S
C322 C324 1.320 . S
C323 C321 1.339 . S
C323 C322 1.395 . S
C323 H349 0.929 . S
C324 C322 1.320 . S
C324 C325 1.405 . S
C324 H350 0.930 . S
C325 C320 1.479 . S
C325 C324 1.405 . S
C325 H351 0.931 . S
U326 O327 2.454 . S
U326 O328 2.458 . S
U326 C329 2.984 . S
U326 C330 2.847 . S
U326 C343 2.882 . S
U326 O344 2.441 . S
U326 O345 2.420 . S
U326 O346 2.455 . S
U326 O347 2.449 . S
O327 U326 2.454 . S
O327 C329 1.353 . S
O328 U326 2.458 . S
O328 C329 1.286 . S
C329 U326 2.984 . S
C329 O327 1.353 . S
C329 O328 1.286 . S
C329 C331 1.363 . S
C330 C320 1.465 . S
C330 U326 2.847 . S
C330 O344 1.249 . S
C330 O345 1.202 . S
C331 C329 1.363 . S
C331 C333 1.408 . S
C331 C336 1.342 . S
C332 C333 1.310 . S
C332 C335 1.461 . S
C332 H352 0.932 . S
C333 C331 1.408 . S
C333 C332 1.310 . S
C333 H353 0.930 . S
C334 C335 1.474 . S
C334 C336 1.285 . S
C334 H354 0.929 . S
C335 C332 1.461 . S
C335 C334 1.474 . S
C336 C331 1.342 . S
C336 C334 1.285 . S
C336 H355 0.930 . S
C337 C340 1.424 . S
C337 C342 1.245 . S
C337 C343 1.428 . S
C338 C341 1.260 . S
C338 C342 1.477 . S
C338 H356 0.932 . S
C339 C340 1.384 . S
C339 C341 1.479 . S
C339 H357 0.929 . S
C340 C337 1.424 . S
C340 C339 1.384 . S
C340 H358 0.928 . S
C341 C338 1.260 . S
C341 C339 1.479 . S
C342 C337 1.245 . S
C342 C338 1.477 . S
C342 H359 0.932 . S
C343 U326 2.882 . S
C343 C337 1.428 . S
C343 O346 1.301 . S
C343 O347 1.282 . S
O344 U326 2.441 . S
O344 C330 1.249 . S
O345 U326 2.420 . S
O345 C330 1.202 . S
O346 U326 2.455 . S
O346 C343 1.301 . S
O347 U326 2.449 . S
O347 C343 1.282 . S
H348 C321 0.931 . S
H349 C323 0.929 . S
H350 C324 0.930 . S
H351 C325 0.931 . S
H352 C332 0.932 . S
H353 C333 0.930 . S
H354 C334 0.929 . S
H355 C336 0.930 . S
H356 C338 0.932 . S
H357 C339 0.929 . S
H358 C340 0.928 . S
H359 C342 0.932 . S
C360 C361 1.264 . S
C360 C365 1.479 . S
C360 C370 1.465 . S
C361 C360 1.264 . S
C361 C363 1.339 . S
C361 H388 0.931 . S
C362 C363 1.395 . S
C362 C364 1.320 . S
C363 C361 1.339 . S
C363 C362 1.395 . S
C363 H389 0.929 . S
C364 C362 1.320 . S
C364 C365 1.405 . S
C364 H390 0.930 . S
C365 C360 1.479 . S
C365 C364 1.405 . S
C365 H391 0.931 . S
U366 O367 2.454 . S
U366 O368 2.458 . S
U366 C369 2.984 . S
U366 C370 2.847 . S
U366 C383 2.882 . S
U366 O384 2.441 . S
U366 O385 2.420 . S
U366 O386 2.455 . S
U366 O387 2.449 . S
O367 U366 2.454 . S
O367 C369 1.353 . S
O368 U366 2.458 . S
O368 C369 1.286 . S
C369 U366 2.984 . S
C369 O367 1.353 . S
C369 O368 1.286 . S
C369 C371 1.363 . S
C370 C360 1.465 . S
C370 U366 2.847 . S
C370 O384 1.249 . S
C370 O385 1.202 . S
C371 C369 1.363 . S
C371 C373 1.408 . S
C371 C376 1.342 1_565 S
C372 C373 1.310 1_545 S
C372 C375 1.461 . S
C372 H392 0.932 . S
C373 C371 1.408 . S
C373 C372 1.310 1_565 S
C373 H393 0.930 . S
C374 C375 1.474 . S
C374 C376 1.285 . S
C374 H394 0.929 . S
C375 C372 1.461 . S
C375 C374 1.474 . S
C376 C371 1.342 1_545 S
C376 C374 1.285 . S
C376 H395 0.930 . S
C377 C380 1.424 . S
C377 C382 1.245 . S
C377 C383 1.428 . S
C378 C381 1.260 . S
C378 C382 1.477 . S
C378 H396 0.932 . S
C379 C380 1.384 . S
C379 C381 1.479 . S
C379 H397 0.929 . S
C380 C377 1.424 . S
C380 C379 1.384 . S
C380 H398 0.928 . S
C381 C378 1.260 . S
C381 C379 1.479 . S
C382 C377 1.245 . S
C382 C378 1.477 . S
C382 H399 0.932 . S
C383 U366 2.882 . S
C383 C377 1.428 . S
C383 O386 1.301 . S
C383 O387 1.282 . S
O384 U366 2.441 . S
O384 C370 1.249 . S
O385 U366 2.420 . S
O385 C370 1.202 . S
O386 U366 2.455 . S
O386 C383 1.301 . S
O387 U366 2.449 . S
O387 C383 1.282 . S
H388 C361 0.931 . S
H389 C363 0.929 . S
H390 C364 0.930 . S
H391 C365 0.931 . S
H392 C372 0.932 . S
H393 C373 0.930 . S
H394 C374 0.929 . S
H395 C376 0.930 . S
H396 C378 0.932 . S
H397 C379 0.929 . S
H398 C380 0.928 . S
H399 C382 0.932 . S
C400 C401 1.264 . S
C400 C405 1.479 . S
C400 C410 1.465 . S
C401 C400 1.264 . S
C401 C403 1.339 . S
C401 H428 0.931 . S
C402 C403 1.395 . S
C402 C404 1.320 . S
C403 C401 1.339 . S
C403 C402 1.395 . S
C403 H429 0.929 . S
C404 C402 1.320 . S
C404 C405 1.405 . S
C404 H430 0.930 . S
C405 C400 1.479 . S
C405 C404 1.405 . S
C405 H431 0.931 . S
U406 O407 2.454 . S
U406 O408 2.458 . S
U406 C409 2.984 . S
U406 C410 2.847 . S
U406 C423 2.882 . S
U406 O424 2.441 . S
U406 O425 2.420 . S
U406 O426 2.455 . S
U406 O427 2.449 . S
O407 U406 2.454 . S
O407 C409 1.353 . S
O408 U406 2.458 . S
O408 C409 1.286 . S
C409 U406 2.984 . S
C409 O407 1.353 . S
C409 O408 1.286 . S
C409 C411 1.363 . S
C410 C400 1.465 . S
C410 U406 2.847 . S
C410 O424 1.249 . S
C410 O425 1.202 . S
C411 C409 1.363 . S
C411 C413 1.408 . S
C411 C416 1.342 . S
C412 C413 1.310 . S
C412 C415 1.461 . S
C412 H432 0.932 . S
C413 C411 1.408 . S
C413 C412 1.310 . S
C413 H433 0.930 . S
C414 C415 1.474 . S
C414 C416 1.285 . S
C414 H434 0.929 . S
C415 C412 1.461 . S
C415 C414 1.474 . S
C416 C411 1.342 . S
C416 C414 1.285 . S
C416 H435 0.930 . S
C417 C420 1.424 . S
C417 C422 1.245 . S
C417 C423 1.428 . S
C418 C421 1.260 . S
C418 C422 1.477 . S
C418 H436 0.932 . S
C419 C420 1.384 . S
C419 C421 1.479 . S
C419 H437 0.929 . S
C420 C417 1.424 . S
C420 C419 1.384 . S
C420 H438 0.928 . S
C421 C418 1.260 . S
C421 C419 1.479 . S
C422 C417 1.245 . S
C422 C418 1.477 . S
C422 H439 0.932 . S
C423 U406 2.882 . S
C423 C417 1.428 . S
C423 O426 1.301 . S
C423 O427 1.282 . S
O424 U406 2.441 . S
O424 C410 1.249 . S
O425 U406 2.420 . S
O425 C410 1.202 . S
O426 U406 2.455 . S
O426 C423 1.301 . S
O427 U406 2.449 . S
O427 C423 1.282 . S
H428 C401 0.931 . S
H429 C403 0.929 . S
H430 C404 0.930 . S
H431 C405 0.931 . S
H432 C412 0.932 . S
H433 C413 0.930 . S
H434 C414 0.929 . S
H435 C416 0.930 . S
H436 C418 0.932 . S
H437 C419 0.929 . S
H438 C420 0.928 . S
H439 C422 0.932 . S
C440 C441 1.264 . S
C440 C445 1.479 . S
C440 C450 1.465 . S
C441 C440 1.264 . S
C441 C443 1.339 . S
C441 H468 0.931 . S
C442 C443 1.395 . S
C442 C444 1.320 . S
C443 C441 1.339 . S
C443 C442 1.395 . S
C443 H469 0.929 . S
C444 C442 1.320 . S
C444 C445 1.405 . S
C444 H470 0.930 . S
C445 C440 1.479 . S
C445 C444 1.405 . S
C445 H471 0.931 . S
U446 O447 2.454 . S
U446 O448 2.458 . S
U446 C449 2.984 . S
U446 C450 2.847 . S
U446 C463 2.882 . S
U446 O464 2.441 . S
U446 O465 2.420 . S
U446 O466 2.455 . S
U446 O467 2.449 . S
O447 U446 2.454 . S
O447 C449 1.353 . S
O448 U446 2.458 . S
O448 C449 1.286 . S
C449 U446 2.984 . S
C449 O447 1.353 . S
C449 O448 1.286 . S
C449 C451 1.363 . S
C450 C440 1.465 . S
C450 U446 2.847 . S
C450 O464 1.249 . S
C450 O465 1.202 . S
C451 C449 1.363 . S
C451 C453 1.408 . S
C451 C456 1.342 . S
C452 C453 1.310 . S
C452 C455 1.461 . S
C452 H472 0.932 . S
C453 C451 1.408 . S
C453 C452 1.310 . S
C453 H473 0.930 . S
C454 C455 1.474 . S
C454 C456 1.285 . S
C454 H474 0.929 . S
C455 C452 1.461 . S
C455 C454 1.474 . S
C456 C451 1.342 . S
C456 C454 1.285 . S
C456 H475 0.930 . S
C457 C460 1.424 . S
C457 C462 1.245 . S
C457 C463 1.428 . S
C458 C461 1.260 . S
C458 C462 1.477 . S
C458 H476 0.932 . S
C459 C460 1.384 . S
C459 C461 1.479 . S
C459 H477 0.929 . S
C460 C457 1.424 . S
C460 C459 1.384 . S
C460 H478 0.928 . S
C461 C458 1.260 . S
C461 C459 1.479 . S
C462 C457 1.245 . S
C462 C458 1.477 . S
C462 H479 0.932 . S
C463 U446 2.882 . S
C463 C457 1.428 . S
C463 O466 1.301 . S
C463 O467 1.282 . S
O464 U446 2.441 . S
O464 C450 1.249 . S
O465 U446 2.420 . S
O465 C450 1.202 . S
O466 U446 2.455 . S
O466 C463 1.301 . S
O467 U446 2.449 . S
O467 C463 1.282 . S
H468 C441 0.931 . S
H469 C443 0.929 . S
H470 C444 0.930 . S
H471 C445 0.931 . S
H472 C452 0.932 . S
H473 C453 0.930 . S
H474 C454 0.929 . S
H475 C456 0.930 . S
H476 C458 0.932 . S
H477 C459 0.929 . S
H478 C460 0.928 . S
H479 C462 0.932 . S
C480 C481 1.264 . S
C480 C485 1.479 . S
C480 C490 1.465 . S
C481 C480 1.264 . S
C481 C483 1.339 . S
C481 H508 0.931 . S
C482 C483 1.395 . S
C482 C484 1.320 . S
C483 C481 1.339 . S
C483 C482 1.395 . S
C483 H509 0.929 . S
C484 C482 1.320 . S
C484 C485 1.405 . S
C484 H510 0.930 . S
C485 C480 1.479 . S
C485 C484 1.405 . S
C485 H511 0.931 . S
U486 O487 2.454 . S
U486 O488 2.458 . S
U486 C489 2.984 . S
U486 C490 2.847 . S
U486 C503 2.882 . S
U486 O504 2.441 . S
U486 O505 2.420 . S
U486 O506 2.455 . S
U486 O507 2.449 . S
O487 U486 2.454 . S
O487 C489 1.353 . S
O488 U486 2.458 . S
O488 C489 1.286 . S
C489 U486 2.984 . S
C489 O487 1.353 . S
C489 O488 1.286 . S
C489 C491 1.363 . S
C490 C480 1.465 . S
C490 U486 2.847 . S
C490 O504 1.249 . S
C490 O505 1.202 . S
C491 C489 1.363 . S
C491 C493 1.408 . S
C491 C496 1.342 . S
C492 C493 1.310 . S
C492 C495 1.461 . S
C492 H512 0.932 . S
C493 C491 1.408 . S
C493 C492 1.310 . S
C493 H513 0.930 . S
C494 C495 1.474 . S
C494 C496 1.285 . S
C494 H514 0.929 . S
C495 C492 1.461 . S
C495 C494 1.474 . S
C496 C491 1.342 . S
C496 C494 1.285 . S
C496 H515 0.930 . S
C497 C500 1.424 . S
C497 C502 1.245 . S
C497 C503 1.428 . S
C498 C501 1.260 . S
C498 C502 1.477 . S
C498 H516 0.932 . S
C499 C500 1.384 . S
C499 C501 1.479 . S
C499 H517 0.929 . S
C500 C497 1.424 . S
C500 C499 1.384 . S
C500 H518 0.928 . S
C501 C498 1.260 . S
C501 C499 1.479 . S
C502 C497 1.245 . S
C502 C498 1.477 . S
C502 H519 0.932 . S
C503 U486 2.882 . S
C503 C497 1.428 . S
C503 O506 1.301 . S
C503 O507 1.282 . S
O504 U486 2.441 . S
O504 C490 1.249 . S
O505 U486 2.420 . S
O505 C490 1.202 . S
O506 U486 2.455 . S
O506 C503 1.301 . S
O507 U486 2.449 . S
O507 C503 1.282 . S
H508 C481 0.931 . S
H509 C483 0.929 . S
H510 C484 0.930 . S
H511 C485 0.931 . S
H512 C492 0.932 . S
H513 C493 0.930 . S
H514 C494 0.929 . S
H515 C496 0.930 . S
H516 C498 0.932 . S
H517 C499 0.929 . S
H518 C500 0.928 . S
H519 C502 0.932 . S
C520 C521 1.264 . S
C520 C525 1.479 . S
C520 C530 1.465 . S
C521 C520 1.264 . S
C521 C523 1.339 . S
C521 H548 0.931 . S
C522 C523 1.395 . S
C522 C524 1.320 . S
C523 C521 1.339 . S
C523 C522 1.395 . S
C523 H549 0.929 . S
C524 C522 1.320 . S
C524 C525 1.405 . S
C524 H550 0.930 . S
C525 C520 1.479 . S
C525 C524 1.405 . S
C525 H551 0.931 . S
U526 O527 2.454 . S
U526 O528 2.458 . S
U526 C529 2.984 . S
U526 C530 2.847 . S
U526 C543 2.882 . S
U526 O544 2.441 . S
U526 O545 2.420 . S
U526 O546 2.455 . S
U526 O547 2.449 . S
O527 U526 2.454 . S
O527 C529 1.353 . S
O528 U526 2.458 . S
O528 C529 1.286 . S
C529 U526 2.984 . S
C529 O527 1.353 . S
C529 O528 1.286 . S
C529 C531 1.363 . S
C530 C520 1.465 . S
C530 U526 2.847 . S
C530 O544 1.249 . S
C530 O545 1.202 . S
C531 C529 1.363 . S
C531 C533 1.408 . S
C531 C536 1.342 1_556 S
C532 C533 1.310 1_554 S
C532 C535 1.461 . S
C532 H552 0.932 . S
C533 C531 1.408 . S
C533 C532 1.310 1_556 S
C533 H553 0.930 . S
C534 C535 1.474 . S
C534 C536 1.285 . S
C534 H554 0.929 . S
C535 C532 1.461 . S
C535 C534 1.474 . S
C536 C531 1.342 1_554 S
C536 C534 1.285 . S
C536 H555 0.930 . S
C537 C540 1.424 . S
C537 C542 1.245 . S
C537 C543 1.428 . S
C538 C541 1.260 . S
C538 C542 1.477 . S
C538 H556 0.932 . S
C539 C540 1.384 . S
C539 C541 1.479 . S
C539 H557 0.929 . S
C540 C537 1.424 . S
C540 C539 1.384 . S
C540 H558 0.928 . S
C541 C538 1.260 . S
C541 C539 1.479 . S
C542 C537 1.245 . S
C542 C538 1.477 . S
C542 H559 0.932 . S
C543 U526 2.882 . S
C543 C537 1.428 . S
C543 O546 1.301 . S
C543 O547 1.282 . S
O544 U526 2.441 . S
O544 C530 1.249 . S
O545 U526 2.420 . S
O545 C530 1.202 . S
O546 U526 2.455 . S
O546 C543 1.301 . S
O547 U526 2.449 . S
O547 C543 1.282 . S
H548 C521 0.931 . S
H549 C523 0.929 . S
H550 C524 0.930 . S
H551 C525 0.931 . S
H552 C532 0.932 . S
H553 C533 0.930 . S
H554 C534 0.929 . S
H555 C536 0.930 . S
H556 C538 0.932 . S
H557 C539 0.929 . S
H558 C540 0.928 . S
H559 C542 0.932 . S
C560 C561 1.264 . S
C560 C565 1.479 . S
C560 C570 1.465 . S
C561 C560 1.264 . S
C561 C563 1.339 . S
C561 H588 0.931 . S
C562 C563 1.395 . S
C562 C564 1.320 . S
C563 C561 1.339 . S
C563 C562 1.395 . S
C563 H589 0.929 . S
C564 C562 1.320 . S
C564 C565 1.405 . S
C564 H590 0.930 . S
C565 C560 1.479 . S
C565 C564 1.405 . S
C565 H591 0.931 . S
U566 O567 2.454 . S
U566 O568 2.458 . S
U566 C569 2.984 . S
U566 C570 2.847 . S
U566 C583 2.882 . S
U566 O584 2.441 . S
U566 O585 2.420 . S
U566 O586 2.455 . S
U566 O587 2.449 . S
O567 U566 2.454 . S
O567 C569 1.353 . S
O568 U566 2.458 . S
O568 C569 1.286 . S
C569 U566 2.984 . S
C569 O567 1.353 . S
C569 O568 1.286 . S
C569 C571 1.363 . S
C570 C560 1.465 . S
C570 U566 2.847 . S
C570 O584 1.249 . S
C570 O585 1.202 . S
C571 C569 1.363 . S
C571 C573 1.408 . S
C571 C576 1.342 . S
C572 C573 1.310 . S
C572 C575 1.461 . S
C572 H592 0.932 . S
C573 C571 1.408 . S
C573 C572 1.310 . S
C573 H593 0.930 . S
C574 C575 1.474 . S
C574 C576 1.285 . S
C574 H594 0.929 . S
C575 C572 1.461 . S
C575 C574 1.474 . S
C576 C571 1.342 . S
C576 C574 1.285 . S
C576 H595 0.930 . S
C577 C580 1.424 . S
C577 C582 1.245 . S
C577 C583 1.428 . S
C578 C581 1.260 . S
C578 C582 1.477 . S
C578 H596 0.932 . S
C579 C580 1.384 . S
C579 C581 1.479 . S
C579 H597 0.929 . S
C580 C577 1.424 . S
C580 C579 1.384 . S
C580 H598 0.928 . S
C581 C578 1.260 . S
C581 C579 1.479 . S
C582 C577 1.245 . S
C582 C578 1.477 . S
C582 H599 0.932 . S
C583 U566 2.882 . S
C583 C577 1.428 . S
C583 O586 1.301 . S
C583 O587 1.282 . S
O584 U566 2.441 . S
O584 C570 1.249 . S
O585 U566 2.420 . S
O585 C570 1.202 . S
O586 U566 2.455 . S
O586 C583 1.301 . S
O587 U566 2.449 . S
O587 C583 1.282 . S
H588 C561 0.931 . S
H589 C563 0.929 . S
H590 C564 0.930 . S
H591 C565 0.931 . S
H592 C572 0.932 . S
H593 C573 0.930 . S
H594 C574 0.929 . S
H595 C576 0.930 . S
H596 C578 0.932 . S
H597 C579 0.929 . S
H598 C580 0.928 . S
H599 C582 0.932 . S
C600 C601 1.252 1_554 S
C600 C605 1.539 . S
C600 C610 1.429 1_554 S
C601 C600 1.252 1_556 S
C601 C603 1.339 1_556 S
C601 H628 0.931 . S
C602 C603 1.395 . S
C602 C604 1.320 . S
C603 C601 1.339 1_554 S
C603 C602 1.395 . S
C603 H629 0.929 . S
C604 C602 1.320 . S
C604 C605 1.405 . S
C604 H630 0.930 . S
C605 C600 1.539 . S
C605 C604 1.405 . S
C605 H631 0.931 . S
U606 O607 2.454 . S
U606 O608 2.458 . S
U606 C609 2.984 . S
U606 C610 2.847 . S
U606 C623 2.882 . S
U606 O624 2.441 . S
U606 O625 2.420 . S
U606 O626 2.455 . S
U606 O627 2.449 . S
O607 U606 2.454 . S
O607 C609 1.353 . S
O608 U606 2.458 . S
O608 C609 1.286 . S
C609 U606 2.984 . S
C609 O607 1.353 . S
C609 O608 1.286 . S
C609 C611 1.363 . S
C610 C600 1.429 1_556 S
C610 U606 2.847 . S
C610 O624 1.249 . S
C610 O625 1.202 . S
C611 C609 1.363 . S
C611 C613 1.408 . S
C611 C616 1.342 1_545 S
C612 C613 1.310 1_565 S
C612 C615 1.461 . S
C612 H632 0.940 . S
C613 C611 1.408 . S
C613 C612 1.310 1_545 S
C613 H633 0.930 . S
C614 C615 1.474 . S
C614 C616 1.285 . S
C614 H634 0.929 . S
C615 C612 1.461 . S
C615 C614 1.474 . S
C616 C611 1.342 1_565 S
C616 C614 1.285 . S
C616 H635 0.930 . S
C617 C620 1.424 . S
C617 C622 1.245 . S
C617 C623 1.428 . S
C618 C621 1.260 . S
C618 C622 1.477 . S
C618 H636 0.932 . S
C619 C620 1.384 . S
C619 C621 1.479 . S
C619 H637 0.929 . S
C620 C617 1.424 . S
C620 C619 1.384 . S
C620 H638 0.928 . S
C621 C618 1.260 . S
C621 C619 1.479 . S
C622 C617 1.245 . S
C622 C618 1.477 . S
C622 H639 0.932 . S
C623 U606 2.882 . S
C623 C617 1.428 . S
C623 O626 1.301 . S
C623 O627 1.282 . S
O624 U606 2.441 . S
O624 C610 1.249 . S
O625 U606 2.420 . S
O625 C610 1.202 . S
O626 U606 2.455 . S
O626 C623 1.301 . S
O627 U606 2.449 . S
O627 C623 1.282 . S
H628 C601 0.931 . S
H629 C603 0.929 . S
H630 C604 0.930 . S
H631 C605 0.931 . S
H632 C612 0.940 . S
H633 C613 0.930 . S
H634 C614 0.929 . S
H635 C616 0.930 . S
H636 C618 0.932 . S
H637 C619 0.929 . S
H638 C620 0.928 . S
H639 C622 0.932 . S
Li640 N657 1.981 1_554 S
Li640 O700 1.956 . S
Li640 O701 1.970 . S
Li640 O702 1.961 1_554 S
Li641 N665 1.990 . S
Li641 O700 1.970 . S
Li641 O701 1.956 . S
Li641 O703 1.961 . S
Li642 N687 1.990 . S
Li642 O700 1.961 1_556 S
Li642 O702 1.956 . S
Li642 O703 1.970 1_556 S
Li643 N693 1.990 . S
Li643 O701 1.961 . S
Li643 O702 1.970 1_554 S
Li643 O703 1.956 . S
C644 C646 1.409 . S
C644 C647 1.286 1_554 S
C644 O700 1.337 . S
N645 C648 1.314 1_556 S
N645 C649 1.279 . S
C646 C644 1.409 . S
C646 C648 1.353 . S
C646 H704 0.929 . S
C647 C644 1.286 1_556 S
C647 C649 1.358 . S
C647 H705 0.930 . S
C648 N645 1.314 1_554 S
C648 C646 1.353 . S
C648 H706 0.930 . S
C649 N645 1.279 . S
C649 C647 1.358 . S
C649 H707 0.930 . S
C650 C653 1.348 . S
C650 C654 1.356 . S
C650 O701 1.325 . S
C651 N652 1.279 . S
C651 C654 1.358 . S
C651 H708 0.930 . S
N652 C651 1.279 . S
N652 C655 1.314 . S
C653 C650 1.348 . S
C653 C655 1.353 . S
C653 H709 0.929 . S
C654 C650 1.356 . S
C654 C651 1.358 . S
C654 H710 0.930 . S
C655 N652 1.314 . S
C655 C653 1.353 . S
C655 H711 0.930 . S
C656 N657 1.328 . S
C656 C661 1.353 . S
C656 H662 0.930 . S
N657 Li640 1.981 1_556 S
N657 C656 1.328 . S
N657 C659 1.272 1_556 S
C658 C659 1.352 1_556 S
C658 C660 1.366 . S
C658 H712 0.927 1_556 S
C659 N657 1.272 1_554 S
C659 C658 1.352 1_554 S
C659 H663 0.943 . S
C660 C658 1.366 . S
C660 C661 1.348 . S
C661 C656 1.353 . S
C661 C660 1.348 . S
C661 H713 0.929 . S
H662 C656 0.930 . S
H663 C659 0.943 . S
C664 N665 1.314 . S
C664 C666 1.353 . S
C664 H670 0.930 . S
N665 Li641 1.990 . S
N665 C664 1.314 . S
N665 C668 1.279 . S
C666 C664 1.353 . S
C666 C669 1.348 . S
C666 H714 0.929 . S
C667 C668 1.358 . S
C667 C669 1.356 . S
C667 H715 0.930 . S
C668 N665 1.279 . S
C668 C667 1.358 . S
C668 H671 0.930 . S
C669 C666 1.348 . S
C669 C667 1.356 . S
H670 C664 0.930 . S
H671 C668 0.930 . S
C672 C674 1.348 . S
C672 C675 1.356 . S
C672 O702 1.325 . S
N673 C676 1.314 . S
N673 C677 1.279 . S
C674 C672 1.348 . S
C674 C676 1.353 . S
C674 H716 0.929 . S
C675 C672 1.356 . S
C675 C677 1.358 . S
C675 H717 0.930 . S
C676 N673 1.314 . S
C676 C674 1.353 . S
C676 H718 0.930 . S
C677 N673 1.279 . S
C677 C675 1.358 . S
C677 H719 0.930 . S
C678 C679 1.348 1_554 S
C678 C680 1.356 . S
C678 O703 1.325 . S
C679 C678 1.348 1_556 S
C679 C681 1.345 1_556 S
C679 H720 0.929 . S
C680 C678 1.356 . S
C680 C682 1.358 . S
C680 H721 0.930 . S
C681 C679 1.345 1_554 S
C681 N683 1.355 . S
C681 H722 0.894 1_554 S
C682 C680 1.358 . S
C682 N683 1.279 . S
C682 H723 0.930 . S
N683 C681 1.355 . S
N683 C682 1.279 . S
C684 C686 1.353 . S
C684 N687 1.314 . S
C684 H690 0.930 . S
C685 N687 1.279 . S
C685 C688 1.358 . S
C685 H691 0.930 . S
C686 C684 1.353 . S
C686 C689 1.348 . S
C686 H724 0.929 . S
N687 Li642 1.990 . S
N687 C684 1.314 . S
N687 C685 1.279 . S
C688 C685 1.358 . S
C688 C689 1.356 . S
C688 H725 0.930 . S
C689 C686 1.348 . S
C689 C688 1.356 . S
H690 C684 0.930 . S
H691 C685 0.930 . S
C692 N693 1.314 . S
C692 C694 1.353 . S
C692 H698 0.930 . S
N693 Li643 1.990 . S
N693 C692 1.314 . S
N693 C696 1.279 . S
C694 C692 1.353 . S
C694 C697 1.348 . S
C694 H726 0.929 . S
C695 C696 1.358 . S
C695 C697 1.356 . S
C695 H727 0.930 . S
C696 N693 1.279 . S
C696 C695 1.358 . S
C696 H699 0.930 . S
C697 C694 1.348 . S
C697 C695 1.356 . S
H698 C692 0.930 . S
H699 C696 0.930 . S
O700 Li640 1.956 . S
O700 Li641 1.970 . S
O700 Li642 1.961 1_554 S
O700 C644 1.337 . S
O701 Li640 1.970 . S
O701 Li641 1.956 . S
O701 Li643 1.961 . S
O701 C650 1.325 . S
O702 Li640 1.961 1_556 S
O702 Li642 1.956 . S
O702 Li643 1.970 1_556 S
O702 C672 1.325 . S
O703 Li641 1.961 . S
O703 Li642 1.970 1_554 S
O703 Li643 1.956 . S
O703 C678 1.325 . S
H704 C646 0.929 . S
H705 C647 0.930 . S
H706 C648 0.930 . S
H707 C649 0.930 . S
H708 C651 0.930 . S
H709 C653 0.929 . S
H710 C654 0.930 . S
H711 C655 0.930 . S
H712 C658 0.927 1_554 S
H713 C661 0.929 . S
H714 C666 0.929 . S
H715 C667 0.930 . S
H716 C674 0.929 . S
H717 C675 0.930 . S
H718 C676 0.930 . S
H719 C677 0.930 . S
H720 C679 0.929 . S
H721 C680 0.930 . S
H722 C681 0.894 1_556 S
H723 C682 0.930 . S
H724 C686 0.929 . S
H725 C688 0.930 . S
H726 C694 0.929 . S
H727 C695 0.930 . S
Li728 N745 1.990 . S
Li728 O788 1.956 . S
Li728 O789 1.970 . S
Li728 O790 1.961 . S
Li729 N753 1.990 . S
Li729 O788 1.970 . S
Li729 O789 1.956 . S
Li729 O791 1.961 . S
Li730 N775 1.990 . S
Li730 O788 1.961 . S
Li730 O790 1.956 . S
Li730 O791 1.970 . S
Li731 N781 1.990 . S
Li731 O789 1.961 . S
Li731 O790 1.970 . S
Li731 O791 1.956 . S
C732 C734 1.348 . S
C732 C735 1.356 . S
C732 O788 1.325 . S
N733 C736 1.314 . S
N733 C737 1.279 . S
C734 C732 1.348 . S
C734 C736 1.353 . S
C734 H792 0.929 . S
C735 C732 1.356 . S
C735 C737 1.358 . S
C735 H793 0.930 . S
C736 N733 1.314 . S
C736 C734 1.353 . S
C736 H794 0.930 . S
C737 N733 1.279 . S
C737 C735 1.358 . S
C737 H795 0.930 . S
C738 C741 1.348 . S
C738 C742 1.356 . S
C738 O789 1.325 . S
C739 N740 1.279 . S
C739 C742 1.358 . S
C739 H796 0.930 . S
N740 C739 1.279 . S
N740 C743 1.314 . S
C741 C738 1.348 . S
C741 C743 1.353 . S
C741 H797 0.929 . S
C742 C738 1.356 . S
C742 C739 1.358 . S
C742 H798 0.930 . S
C743 N740 1.314 . S
C743 C741 1.353 . S
C743 H799 0.930 . S
C744 N745 1.314 . S
C744 C749 1.353 . S
C744 H750 0.930 . S
N745 Li728 1.990 . S
N745 C744 1.314 . S
N745 C747 1.279 . S
C746 C747 1.358 . S
C746 C748 1.356 . S
C746 H800 0.930 . S
C747 N745 1.279 . S
C747 C746 1.358 . S
C747 H751 0.930 . S
C748 C746 1.356 . S
C748 C749 1.348 . S
C749 C744 1.353 . S
C749 C748 1.348 . S
C749 H801 0.929 . S
H750 C744 0.930 . S
H751 C747 0.930 . S
C752 N753 1.314 . S
C752 C754 1.353 . S
C752 H758 0.930 . S
N753 Li729 1.990 . S
N753 C752 1.314 . S
N753 C756 1.279 . S
C754 C752 1.353 . S
C754 C757 1.348 . S
C754 H802 0.929 . S
C755 C756 1.358 . S
C755 C757 1.356 . S
C755 H803 0.930 . S
C756 N753 1.279 . S
C756 C755 1.358 . S
C756 H759 0.930 . S
C757 C754 1.348 . S
C757 C755 1.356 . S
H758 C752 0.930 . S
H759 C756 0.930 . S
C760 C762 1.348 . S
C760 C763 1.356 . S
C760 O790 1.325 . S
N761 C764 1.314 . S
N761 C765 1.279 . S
C762 C760 1.348 . S
C762 C764 1.353 . S
C762 H804 0.929 . S
C763 C760 1.356 . S
C763 C765 1.358 . S
C763 H805 0.930 . S
C764 N761 1.314 . S
C764 C762 1.353 . S
C764 H806 0.930 . S
C765 N761 1.279 . S
C765 C763 1.358 . S
C765 H807 0.930 . S
C766 C767 1.348 . S
C766 C768 1.356 . S
C766 O791 1.325 . S
C767 C766 1.348 . S
C767 C769 1.353 . S
C767 H808 0.929 . S
C768 C766 1.356 . S
C768 C770 1.358 . S
C768 H809 0.930 . S
C769 C767 1.353 . S
C769 N771 1.314 . S
C769 H810 0.930 . S
C770 C768 1.358 . S
C770 N771 1.279 . S
C770 H811 0.930 . S
N771 C769 1.314 . S
N771 C770 1.279 . S
C772 C774 1.353 . S
C772 N775 1.314 . S
C772 H778 0.930 . S
C773 N775 1.279 . S
C773 C776 1.358 . S
C773 H779 0.930 . S
C774 C772 1.353 . S
C774 C777 1.348 . S
C774 H812 0.929 . S
N775 Li730 1.990 . S
N775 C772 1.314 . S
N775 C773 1.279 . S
C776 C773 1.358 . S
C776 C777 1.356 . S
C776 H813 0.930 . S
C777 C774 1.348 . S
C777 C776 1.356 . S
H778 C772 0.930 . S
H779 C773 0.930 . S
C780 N781 1.314 . S
C780 C782 1.353 . S
C780 H786 0.930 . S
N781 Li731 1.990 . S
N781 C780 1.314 . S
N781 C784 1.279 . S
C782 C780 1.353 . S
C782 C785 1.348 . S
C782 H814 0.929 . S
C783 C784 1.358 . S
C783 C785 1.356 . S
C783 H815 0.930 . S
C784 N781 1.279 . S
C784 C783 1.358 . S
C784 H787 0.930 . S
C785 C782 1.348 . S
C785 C783 1.356 . S
H786 C780 0.930 . S
H787 C784 0.930 . S
O788 Li728 1.956 . S
O788 Li729 1.970 . S
O788 Li730 1.961 . S
O788 C732 1.325 . S
O789 Li728 1.970 . S
O789 Li729 1.956 . S
O789 Li731 1.961 . S
O789 C738 1.325 . S
O790 Li728 1.961 . S
O790 Li730 1.956 . S
O790 Li731 1.970 . S
O790 C760 1.325 . S
O791 Li729 1.961 . S
O791 Li730 1.970 . S
O791 Li731 1.956 . S
O791 C766 1.325 . S
H792 C734 0.929 . S
H793 C735 0.930 . S
H794 C736 0.930 . S
H795 C737 0.930 . S
H796 C739 0.930 . S
H797 C741 0.929 . S
H798 C742 0.930 . S
H799 C743 0.930 . S
H800 C746 0.930 . S
H801 C749 0.929 . S
H802 C754 0.929 . S
H803 C755 0.930 . S
H804 C762 0.929 . S
H805 C763 0.930 . S
H806 C764 0.930 . S
H807 C765 0.930 . S
H808 C767 0.929 . S
H809 C768 0.930 . S
H810 C769 0.930 . S
H811 C770 0.930 . S
H812 C774 0.929 . S
H813 C776 0.930 . S
H814 C782 0.929 . S
H815 C783 0.930 . S
Li816 N833 1.990 . S
Li816 O876 1.956 . S
Li816 O877 1.970 1_556 S
Li816 O878 1.961 . S
Li817 N841 1.990 . S
Li817 O876 1.970 1_554 S
Li817 O877 1.956 . S
Li817 O879 1.961 . S
Li818 N863 1.990 . S
Li818 O876 1.961 . S
Li818 O878 1.956 . S
Li818 O879 1.970 1_556 S
Li819 N869 1.990 . S
Li819 O877 1.961 . S
Li819 O878 1.970 1_554 S
Li819 O879 1.956 . S
C820 C822 1.348 1_556 S
C820 C823 1.356 . S
C820 O876 1.325 . S
N821 C824 1.314 1_556 S
N821 C825 1.279 . S
C822 C820 1.348 1_554 S
C822 C824 1.353 . S
C822 H880 0.929 . S
C823 C820 1.356 . S
C823 C825 1.358 . S
C823 H881 0.930 . S
C824 N821 1.314 1_554 S
C824 C822 1.353 . S
C824 H882 0.930 . S
C825 N821 1.279 . S
C825 C823 1.358 . S
C825 H883 0.930 . S
C826 C829 1.348 . S
C826 C830 1.356 . S
C826 O877 1.325 . S
C827 N828 1.279 . S
C827 C830 1.358 . S
C827 H884 0.930 . S
N828 C827 1.279 . S
N828 C831 1.314 . S
C829 C826 1.348 . S
C829 C831 1.353 . S
C829 H885 0.929 . S
C830 C826 1.356 . S
C830 C827 1.358 . S
C830 H886 0.930 . S
C831 N828 1.314 . S
C831 C829 1.353 . S
C831 H887 0.930 . S
C832 N833 1.314 . S
C832 C837 1.353 . S
C832 H838 0.930 . S
N833 Li816 1.990 . S
N833 C832 1.314 . S
N833 C835 1.279 . S
C834 C835 1.358 . S
C834 C836 1.356 . S
C834 H888 0.930 . S
C835 N833 1.279 . S
C835 C834 1.358 . S
C835 H839 0.930 . S
C836 C834 1.356 . S
C836 C837 1.348 . S
C837 C832 1.353 . S
C837 C836 1.348 . S
C837 H889 0.929 . S
H838 C832 0.930 . S
H839 C835 0.930 . S
C840 N841 1.314 . S
C840 C842 1.353 . S
C840 H846 0.930 . S
N841 Li817 1.990 . S
N841 C840 1.314 . S
N841 C844 1.279 . S
C842 C840 1.353 . S
C842 C845 1.348 . S
C842 H890 0.929 . S
C843 C844 1.358 . S
C843 C845 1.356 . S
C843 H891 0.930 . S
C844 N841 1.279 . S
C844 C843 1.358 . S
C844 H847 0.930 . S
C845 C842 1.348 . S
C845 C843 1.356 . S
H846 C840 0.930 . S
H847 C844 0.930 . S
C848 C850 1.348 . S
C848 C851 1.356 . S
C848 O878 1.325 . S
N849 C852 1.314 . S
N849 C853 1.279 . S
C850 C848 1.348 . S
C850 C852 1.353 . S
C850 H892 0.929 . S
C851 C848 1.356 . S
C851 C853 1.358 . S
C851 H893 0.930 . S
C852 N849 1.314 . S
C852 C850 1.353 . S
C852 H894 0.930 . S
C853 N849 1.279 . S
C853 C851 1.358 . S
C853 H895 0.930 . S
C854 C855 1.348 1_554 S
C854 C856 1.356 . S
C854 O879 1.325 . S
C855 C854 1.348 1_556 S
C855 C857 1.353 . S
C855 H896 0.929 . S
C856 C854 1.356 . S
C856 C858 1.358 . S
C856 H897 0.930 . S
C857 C855 1.353 . S
C857 N859 1.314 1_556 S
C857 H898 0.930 . S
C858 C856 1.358 . S
C858 N859 1.279 . S
C858 H899 0.930 . S
N859 C857 1.314 1_554 S
N859 C858 1.279 . S
C860 C862 1.353 . S
C860 N863 1.314 . S
C860 H866 0.930 . S
C861 N863 1.279 . S
C861 C864 1.358 . S
C861 H867 0.930 . S
C862 C860 1.353 . S
C862 C865 1.348 . S
C862 H900 0.929 . S
N863 Li818 1.990 . S
N863 C860 1.314 . S
N863 C861 1.279 . S
C864 C861 1.358 . S
C864 C865 1.356 . S
C864 H901 0.930 . S
C865 C862 1.348 . S
C865 C864 1.356 . S
H866 C860 0.930 . S
H867 C861 0.930 . S
C868 N869 1.314 . S
C868 C870 1.353 . S
C868 H874 0.930 . S
N869 Li819 1.990 . S
N869 C868 1.314 . S
N869 C872 1.279 . S
C870 C868 1.353 . S
C870 C873 1.348 . S
C870 H902 0.929 . S
C871 C872 1.358 . S
C871 C873 1.356 . S
C871 H903 0.930 . S
C872 N869 1.279 . S
C872 C871 1.358 . S
C872 H875 0.930 . S
C873 C870 1.348 . S
C873 C871 1.356 . S
H874 C868 0.930 . S
H875 C872 0.930 . S
O876 Li816 1.956 . S
O876 Li817 1.970 1_556 S
O876 Li818 1.961 . S
O876 C820 1.325 . S
O877 Li816 1.970 1_554 S
O877 Li817 1.956 . S
O877 Li819 1.961 . S
O877 C826 1.325 . S
O878 Li816 1.961 . S
O878 Li818 1.956 . S
O878 Li819 1.970 1_556 S
O878 C848 1.325 . S
O879 Li817 1.961 . S
O879 Li818 1.970 1_554 S
O879 Li819 1.956 . S
O879 C854 1.325 . S
H880 C822 0.929 . S
H881 C823 0.930 . S
H882 C824 0.930 . S
H883 C825 0.930 . S
H884 C827 0.930 . S
H885 C829 0.929 . S
H886 C830 0.930 . S
H887 C831 0.930 . S
H888 C834 0.930 . S
H889 C837 0.929 . S
H890 C842 0.929 . S
H891 C843 0.930 . S
H892 C850 0.929 . S
H893 C851 0.930 . S
H894 C852 0.930 . S
H895 C853 0.930 . S
H896 C855 0.929 . S
H897 C856 0.930 . S
H898 C857 0.930 . S
H899 C858 0.930 . S
H900 C862 0.929 . S
H901 C864 0.930 . S
H902 C870 0.929 . S
H903 C871 0.930 . S
Li904 N921 1.990 . S
Li904 O964 1.956 . S
Li904 O965 1.970 1_545 S
Li904 O966 1.961 . S
Li905 N929 1.990 . S
Li905 O964 1.970 1_565 S
Li905 O965 1.956 . S
Li905 O967 1.961 . S
Li906 N951 1.990 . S
Li906 O964 1.961 . S
Li906 O966 1.956 . S
Li906 O967 1.970 1_545 S
Li907 N957 1.990 . S
Li907 O965 1.961 . S
Li907 O966 1.970 1_565 S
Li907 O967 1.956 . S
C908 C910 1.348 . S
C908 C911 1.356 . S
C908 O964 1.325 . S
N909 C912 1.314 . S
N909 C913 1.279 . S
C910 C908 1.348 . S
C910 C912 1.353 . S
C910 H968 0.929 . S
C911 C908 1.356 . S
C911 C913 1.358 . S
C911 H969 0.930 . S
C912 N909 1.314 . S
C912 C910 1.353 . S
C912 H970 0.930 . S
C913 N909 1.279 . S
C913 C911 1.358 . S
C913 H971 0.930 . S
C914 C917 1.348 1_565 S
C914 C918 1.356 . S
C914 O965 1.325 . S
C915 N916 1.279 . S
C915 C918 1.358 . S
C915 H972 0.930 . S
N916 C915 1.279 . S
N916 C919 1.314 1_565 S
C917 C914 1.348 1_545 S
C917 C919 1.353 . S
C917 H973 0.929 . S
C918 C914 1.356 . S
C918 C915 1.358 . S
C918 H974 0.930 . S
C919 N916 1.314 1_545 S
C919 C917 1.353 . S
C919 H975 0.930 . S
C920 N921 1.314 . S
C920 C925 1.353 . S
C920 H926 0.930 . S
N921 Li904 1.990 . S
N921 C920 1.314 . S
N921 C923 1.279 . S
C922 C923 1.358 . S
C922 C924 1.356 . S
C922 H976 0.930 . S
C923 N921 1.279 . S
C923 C922 1.358 . S
C923 H927 0.930 . S
C924 C922 1.356 . S
C924 C925 1.348 . S
C925 C920 1.353 . S
C925 C924 1.348 . S
C925 H977 0.929 . S
H926 C920 0.930 . S
H927 C923 0.930 . S
C928 N929 1.314 . S
C928 C930 1.353 . S
C928 H934 0.930 . S
N929 Li905 1.990 . S
N929 C928 1.314 . S
N929 C932 1.279 . S
C930 C928 1.353 . S
C930 C933 1.348 . S
C930 H978 0.929 . S
C931 C932 1.358 . S
C931 C933 1.356 . S
C931 H979 0.930 . S
C932 N929 1.279 . S
C932 C931 1.358 . S
C932 H935 0.930 . S
C933 C930 1.348 . S
C933 C931 1.356 . S
H934 C928 0.930 . S
H935 C932 0.930 . S
C936 C938 1.348 1_545 S
C936 C939 1.356 . S
C936 O966 1.325 . S
N937 C940 1.314 1_545 S
N937 C941 1.279 . S
C938 C936 1.348 1_565 S
C938 C940 1.353 . S
C938 H980 0.929 . S
C939 C936 1.356 . S
C939 C941 1.358 . S
C939 H981 0.930 . S
C940 N937 1.314 1_565 S
C940 C938 1.353 . S
C940 H982 0.930 . S
C941 N937 1.279 . S
C941 C939 1.358 . S
C941 H983 0.930 . S
C942 C943 1.348 . S
C942 C944 1.356 . S
C942 O967 1.325 . S
C943 C942 1.348 . S
C943 C945 1.353 . S
C943 H984 0.929 . S
C944 C942 1.356 . S
C944 C946 1.358 . S
C944 H985 0.930 . S
C945 C943 1.353 . S
C945 N947 1.314 . S
C945 H986 0.930 . S
C946 C944 1.358 . S
C946 N947 1.279 . S
C946 H987 0.930 . S
N947 C945 1.314 . S
N947 C946 1.279 . S
C948 C950 1.353 . S
C948 N951 1.314 . S
C948 H954 0.930 . S
C949 N951 1.279 . S
C949 C952 1.358 . S
C949 H955 0.930 . S
C950 C948 1.353 . S
C950 C953 1.348 . S
C950 H988 0.929 . S
N951 Li906 1.990 . S
N951 C948 1.314 . S
N951 C949 1.279 . S
C952 C949 1.358 . S
C952 C953 1.356 . S
C952 H989 0.930 . S
C953 C950 1.348 . S
C953 C952 1.356 . S
H954 C948 0.930 . S
H955 C949 0.930 . S
C956 N957 1.314 . S
C956 C958 1.353 . S
C956 H962 0.930 . S
N957 Li907 1.990 . S
N957 C956 1.314 . S
N957 C960 1.279 . S
C958 C956 1.353 . S
C958 C961 1.348 . S
C958 H990 0.929 . S
C959 C960 1.358 . S
C959 C961 1.356 . S
C959 H991 0.930 . S
C960 N957 1.279 . S
C960 C959 1.358 . S
C960 H963 0.930 . S
C961 C958 1.348 . S
C961 C959 1.356 . S
H962 C956 0.930 . S
H963 C960 0.930 . S
O964 Li904 1.956 . S
O964 Li905 1.970 1_545 S
O964 Li906 1.961 . S
O964 C908 1.325 . S
O965 Li904 1.970 1_565 S
O965 Li905 1.956 . S
O965 Li907 1.961 . S
O965 C914 1.325 . S
O966 Li904 1.961 . S
O966 Li906 1.956 . S
O966 Li907 1.970 1_545 S
O966 C936 1.325 . S
O967 Li905 1.961 . S
O967 Li906 1.970 1_565 S
O967 Li907 1.956 . S
O967 C942 1.325 . S
H968 C910 0.929 . S
H969 C911 0.930 . S
H970 C912 0.930 . S
H971 C913 0.930 . S
H972 C915 0.930 . S
H973 C917 0.929 . S
H974 C918 0.930 . S
H975 C919 0.930 . S
H976 C922 0.930 . S
H977 C925 0.929 . S
H978 C930 0.929 . S
H979 C931 0.930 . S
H980 C938 0.929 . S
H981 C939 0.930 . S
H982 C940 0.930 . S
H983 C941 0.930 . S
H984 C943 0.929 . S
H985 C944 0.930 . S
H986 C945 0.930 . S
H987 C946 0.930 . S
H988 C950 0.929 . S
H989 C952 0.930 . S
H990 C958 0.929 . S
H991 C959 0.930 . S
Li992 N1009 1.990 . S
Li992 O1052 1.956 . S
Li992 O1053 1.970 . S
Li992 O1054 1.961 . S
Li993 N1017 1.990 . S
Li993 O1052 1.970 . S
Li993 O1053 1.956 . S
Li993 O1055 1.961 . S
Li994 N1039 1.990 . S
Li994 O1052 1.961 . S
Li994 O1054 1.956 . S
Li994 O1055 1.970 . S
Li995 N1045 1.990 . S
Li995 O1053 1.961 . S
Li995 O1054 1.970 . S
Li995 O1055 1.956 . S
C996 C998 1.348 . S
C996 C999 1.356 . S
C996 O1052 1.325 . S
N997 C1000 1.314 . S
N997 C1001 1.279 . S
C998 C996 1.348 . S
C998 C1000 1.353 . S
C998 H1056 0.929 . S
C999 C996 1.356 . S
C999 C1001 1.358 . S
C999 H1057 0.930 . S
C1000 N997 1.314 . S
C1000 C998 1.353 . S
C1000 H1058 0.930 . S
C1001 N997 1.279 . S
C1001 C999 1.358 . S
C1001 H1059 0.930 . S
C1002 C1005 1.348 . S
C1002 C1006 1.356 . S
C1002 O1053 1.325 . S
C1003 N1004 1.279 . S
C1003 C1006 1.358 . S
C1003 H1060 0.930 . S
N1004 C1003 1.279 . S
N1004 C1007 1.314 . S
C1005 C1002 1.348 . S
C1005 C1007 1.353 . S
C1005 H1061 0.929 . S
C1006 C1002 1.356 . S
C1006 C1003 1.358 . S
C1006 H1062 0.930 . S
C1007 N1004 1.314 . S
C1007 C1005 1.353 . S
C1007 H1063 0.930 . S
C1008 N1009 1.314 . S
C1008 C1013 1.353 . S
C1008 H1014 0.930 . S
N1009 Li992 1.990 . S
N1009 C1008 1.314 . S
N1009 C1011 1.279 . S
C1010 C1011 1.358 . S
C1010 C1012 1.356 . S
C1010 H1064 0.930 . S
C1011 N1009 1.279 . S
C1011 C1010 1.358 . S
C1011 H1015 0.930 . S
C1012 C1010 1.356 . S
C1012 C1013 1.348 . S
C1013 C1008 1.353 . S
C1013 C1012 1.348 . S
C1013 H1065 0.929 . S
H1014 C1008 0.930 . S
H1015 C1011 0.930 . S
C1016 N1017 1.314 . S
C1016 C1018 1.353 . S
C1016 H1022 0.930 . S
N1017 Li993 1.990 . S
N1017 C1016 1.314 . S
N1017 C1020 1.279 . S
C1018 C1016 1.353 . S
C1018 C1021 1.348 . S
C1018 H1066 0.929 . S
C1019 C1020 1.358 . S
C1019 C1021 1.356 . S
C1019 H1067 0.930 . S
C1020 N1017 1.279 . S
C1020 C1019 1.358 . S
C1020 H1023 0.930 . S
C1021 C1018 1.348 . S
C1021 C1019 1.356 . S
H1022 C1016 0.930 . S
H1023 C1020 0.930 . S
C1024 C1026 1.348 . S
C1024 C1027 1.356 . S
C1024 O1054 1.325 . S
N1025 C1028 1.314 . S
N1025 C1029 1.279 . S
C1026 C1024 1.348 . S
C1026 C1028 1.353 . S
C1026 H1068 0.929 . S
C1027 C1024 1.356 . S
C1027 C1029 1.358 . S
C1027 H1069 0.930 . S
C1028 N1025 1.314 . S
C1028 C1026 1.353 . S
C1028 H1070 0.930 . S
C1029 N1025 1.279 . S
C1029 C1027 1.358 . S
C1029 H1071 0.930 . S
C1030 C1031 1.348 . S
C1030 C1032 1.356 . S
C1030 O1055 1.325 . S
C1031 C1030 1.348 . S
C1031 C1033 1.353 . S
C1031 H1072 0.929 . S
C1032 C1030 1.356 . S
C1032 C1034 1.358 . S
C1032 H1073 0.930 . S
C1033 C1031 1.353 . S
C1033 N1035 1.314 . S
C1033 H1074 0.930 . S
C1034 C1032 1.358 . S
C1034 N1035 1.279 . S
C1034 H1075 0.930 . S
N1035 C1033 1.314 . S
N1035 C1034 1.279 . S
C1036 C1038 1.353 . S
C1036 N1039 1.314 . S
C1036 H1042 0.930 . S
C1037 N1039 1.279 . S
C1037 C1040 1.358 . S
C1037 H1043 0.930 . S
C1038 C1036 1.353 . S
C1038 C1041 1.348 . S
C1038 H1076 0.929 . S
N1039 Li994 1.990 . S
N1039 C1036 1.314 . S
N1039 C1037 1.279 . S
C1040 C1037 1.358 . S
C1040 C1041 1.356 . S
C1040 H1077 0.930 . S
C1041 C1038 1.348 . S
C1041 C1040 1.356 . S
H1042 C1036 0.930 . S
H1043 C1037 0.930 . S
C1044 N1045 1.314 . S
C1044 C1046 1.353 . S
C1044 H1050 0.930 . S
N1045 Li995 1.990 . S
N1045 C1044 1.314 . S
N1045 C1048 1.279 . S
C1046 C1044 1.353 . S
C1046 C1049 1.348 . S
C1046 H1078 0.929 . S
C1047 C1048 1.358 . S
C1047 C1049 1.356 . S
C1047 H1079 0.930 . S
C1048 N1045 1.279 . S
C1048 C1047 1.358 . S
C1048 H1051 0.930 . S
C1049 C1046 1.348 . S
C1049 C1047 1.356 . S
H1050 C1044 0.930 . S
H1051 C1048 0.930 . S
O1052 Li992 1.956 . S
O1052 Li993 1.970 . S
O1052 Li994 1.961 . S
O1052 C996 1.325 . S
O1053 Li992 1.970 . S
O1053 Li993 1.956 . S
O1053 Li995 1.961 . S
O1053 C1002 1.325 . S
O1054 Li992 1.961 . S
O1054 Li994 1.956 . S
O1054 Li995 1.970 . S
O1054 C1024 1.325 . S
O1055 Li993 1.961 . S
O1055 Li994 1.970 . S
O1055 Li995 1.956 . S
O1055 C1030 1.325 . S
H1056 C998 0.929 . S
H1057 C999 0.930 . S
H1058 C1000 0.930 . S
H1059 C1001 0.930 . S
H1060 C1003 0.930 . S
H1061 C1005 0.929 . S
H1062 C1006 0.930 . S
H1063 C1007 0.930 . S
H1064 C1010 0.930 . S
H1065 C1013 0.929 . S
H1066 C1018 0.929 . S
H1067 C1019 0.930 . S
H1068 C1026 0.929 . S
H1069 C1027 0.930 . S
H1070 C1028 0.930 . S
H1071 C1029 0.930 . S
H1072 C1031 0.929 . S
H1073 C1032 0.930 . S
H1074 C1033 0.930 . S
H1075 C1034 0.930 . S
H1076 C1038 0.929 . S
H1077 C1040 0.930 . S
H1078 C1046 0.929 . S
H1079 C1047 0.930 . S
Li1080 N1097 1.990 . S
Li1080 O1140 1.956 . S
Li1080 O1141 1.970 . S
Li1080 O1142 1.961 . S
Li1081 N1105 1.990 . S
Li1081 O1140 1.970 . S
Li1081 O1141 1.956 . S
Li1081 O1143 1.961 . S
Li1082 N1127 1.990 . S
Li1082 O1140 1.961 . S
Li1082 O1142 1.956 . S
Li1082 O1143 1.970 . S
Li1083 N1133 1.990 . S
Li1083 O1141 1.961 . S
Li1083 O1142 1.970 . S
Li1083 O1143 1.956 . S
C1084 C1086 1.348 . S
C1084 C1087 1.356 . S
C1084 O1140 1.325 . S
N1085 C1088 1.314 . S
N1085 C1089 1.279 . S
C1086 C1084 1.348 . S
C1086 C1088 1.353 . S
C1086 H1144 0.929 . S
C1087 C1084 1.356 . S
C1087 C1089 1.358 . S
C1087 H1145 0.930 . S
C1088 N1085 1.314 . S
C1088 C1086 1.353 . S
C1088 H1146 0.930 . S
C1089 N1085 1.279 . S
C1089 C1087 1.358 . S
C1089 H1147 0.930 . S
C1090 C1093 1.348 . S
C1090 C1094 1.356 . S
C1090 O1141 1.325 . S
C1091 N1092 1.279 . S
C1091 C1094 1.358 . S
C1091 H1148 0.930 . S
N1092 C1091 1.279 . S
N1092 C1095 1.314 . S
C1093 C1090 1.348 . S
C1093 C1095 1.353 . S
C1093 H1149 0.929 . S
C1094 C1090 1.356 . S
C1094 C1091 1.358 . S
C1094 H1150 0.930 . S
C1095 N1092 1.314 . S
C1095 C1093 1.353 . S
C1095 H1151 0.930 . S
C1096 N1097 1.314 . S
C1096 C1101 1.353 . S
C1096 H1102 0.930 . S
N1097 Li1080 1.990 . S
N1097 C1096 1.314 . S
N1097 C1099 1.279 . S
C1098 C1099 1.358 . S
C1098 C1100 1.356 . S
C1098 H1152 0.930 . S
C1099 N1097 1.279 . S
C1099 C1098 1.358 . S
C1099 H1103 0.930 . S
C1100 C1098 1.356 . S
C1100 C1101 1.348 . S
C1101 C1096 1.353 . S
C1101 C1100 1.348 . S
C1101 H1153 0.929 . S
H1102 C1096 0.930 . S
H1103 C1099 0.930 . S
C1104 N1105 1.314 . S
C1104 C1106 1.353 . S
C1104 H1110 0.930 . S
N1105 Li1081 1.990 . S
N1105 C1104 1.314 . S
N1105 C1108 1.279 . S
C1106 C1104 1.353 . S
C1106 C1109 1.348 . S
C1106 H1154 0.929 . S
C1107 C1108 1.358 . S
C1107 C1109 1.356 . S
C1107 H1155 0.930 . S
C1108 N1105 1.279 . S
C1108 C1107 1.358 . S
C1108 H1111 0.930 . S
C1109 C1106 1.348 . S
C1109 C1107 1.356 . S
H1110 C1104 0.930 . S
H1111 C1108 0.930 . S
C1112 C1114 1.348 . S
C1112 C1115 1.356 . S
C1112 O1142 1.325 . S
N1113 C1116 1.314 . S
N1113 C1117 1.279 . S
C1114 C1112 1.348 . S
C1114 C1116 1.353 . S
C1114 H1156 0.929 . S
C1115 C1112 1.356 . S
C1115 C1117 1.358 . S
C1115 H1157 0.930 . S
C1116 N1113 1.314 . S
C1116 C1114 1.353 . S
C1116 H1158 0.930 . S
C1117 N1113 1.279 . S
C1117 C1115 1.358 . S
C1117 H1159 0.930 . S
C1118 C1119 1.348 . S
C1118 C1120 1.356 . S
C1118 O1143 1.325 . S
C1119 C1118 1.348 . S
C1119 C1121 1.353 . S
C1119 H1160 0.929 . S
C1120 C1118 1.356 . S
C1120 C1122 1.358 . S
C1120 H1161 0.930 . S
C1121 C1119 1.353 . S
C1121 N1123 1.314 . S
C1121 H1162 0.930 . S
C1122 C1120 1.358 . S
C1122 N1123 1.279 . S
C1122 H1163 0.930 . S
N1123 C1121 1.314 . S
N1123 C1122 1.279 . S
C1124 C1126 1.353 . S
C1124 N1127 1.314 . S
C1124 H1130 0.930 . S
C1125 N1127 1.279 . S
C1125 C1128 1.358 . S
C1125 H1131 0.930 . S
C1126 C1124 1.353 . S
C1126 C1129 1.348 . S
C1126 H1164 0.929 . S
N1127 Li1082 1.990 . S
N1127 C1124 1.314 . S
N1127 C1125 1.279 . S
C1128 C1125 1.358 . S
C1128 C1129 1.356 . S
C1128 H1165 0.930 . S
C1129 C1126 1.348 . S
C1129 C1128 1.356 . S
H1130 C1124 0.930 . S
H1131 C1125 0.930 . S
C1132 N1133 1.314 . S
C1132 C1134 1.353 . S
C1132 H1138 0.930 . S
N1133 Li1083 1.990 . S
N1133 C1132 1.314 . S
N1133 C1136 1.279 . S
C1134 C1132 1.353 . S
C1134 C1137 1.348 . S
C1134 H1166 0.929 . S
C1135 C1136 1.358 . S
C1135 C1137 1.356 . S
C1135 H1167 0.930 . S
C1136 N1133 1.279 . S
C1136 C1135 1.358 . S
C1136 H1139 0.930 . S
C1137 C1134 1.348 . S
C1137 C1135 1.356 . S
H1138 C1132 0.930 . S
H1139 C1136 0.930 . S
O1140 Li1080 1.956 . S
O1140 Li1081 1.970 . S
O1140 Li1082 1.961 . S
O1140 C1084 1.325 . S
O1141 Li1080 1.970 . S
O1141 Li1081 1.956 . S
O1141 Li1083 1.961 . S
O1141 C1090 1.325 . S
O1142 Li1080 1.961 . S
O1142 Li1082 1.956 . S
O1142 Li1083 1.970 . S
O1142 C1112 1.325 . S
O1143 Li1081 1.961 . S
O1143 Li1082 1.970 . S
O1143 Li1083 1.956 . S
O1143 C1118 1.325 . S
H1144 C1086 0.929 . S
H1145 C1087 0.930 . S
H1146 C1088 0.930 . S
H1147 C1089 0.930 . S
H1148 C1091 0.930 . S
H1149 C1093 0.929 . S
H1150 C1094 0.930 . S
H1151 C1095 0.930 . S
H1152 C1098 0.930 . S
H1153 C1101 0.929 . S
H1154 C1106 0.929 . S
H1155 C1107 0.930 . S
H1156 C1114 0.929 . S
H1157 C1115 0.930 . S
H1158 C1116 0.930 . S
H1159 C1117 0.930 . S
H1160 C1119 0.929 . S
H1161 C1120 0.930 . S
H1162 C1121 0.930 . S
H1163 C1122 0.930 . S
H1164 C1126 0.929 . S
H1165 C1128 0.930 . S
H1166 C1134 0.929 . S
H1167 C1135 0.930 . S
Li1168 N1185 1.990 . S
Li1168 O1228 1.956 . S
Li1168 O1229 1.970 . S
Li1168 O1230 1.961 . S
Li1169 N1193 1.990 . S
Li1169 O1228 1.970 . S
Li1169 O1229 1.956 . S
Li1169 O1231 1.961 . S
Li1170 N1215 1.990 . S
Li1170 O1228 1.961 . S
Li1170 O1230 1.956 . S
Li1170 O1231 1.970 . S
Li1171 N1221 1.990 . S
Li1171 O1229 1.961 . S
Li1171 O1230 1.970 . S
Li1171 O1231 1.956 . S
C1172 C1174 1.348 . S
C1172 C1175 1.356 . S
C1172 O1228 1.325 . S
N1173 C1176 1.314 . S
N1173 C1177 1.279 . S
C1174 C1172 1.348 . S
C1174 C1176 1.353 . S
C1174 H1232 0.929 . S
C1175 C1172 1.356 . S
C1175 C1177 1.358 . S
C1175 H1233 0.930 . S
C1176 N1173 1.314 . S
C1176 C1174 1.353 . S
C1176 H1234 0.930 . S
C1177 N1173 1.279 . S
C1177 C1175 1.358 . S
C1177 H1235 0.930 . S
C1178 C1181 1.348 . S
C1178 C1182 1.356 . S
C1178 O1229 1.325 . S
C1179 N1180 1.279 . S
C1179 C1182 1.358 . S
C1179 H1236 0.930 . S
N1180 C1179 1.279 . S
N1180 C1183 1.314 . S
C1181 C1178 1.348 . S
C1181 C1183 1.353 . S
C1181 H1237 0.929 . S
C1182 C1178 1.356 . S
C1182 C1179 1.358 . S
C1182 H1238 0.930 . S
C1183 N1180 1.314 . S
C1183 C1181 1.353 . S
C1183 H1239 0.930 . S
C1184 N1185 1.314 . S
C1184 C1189 1.353 . S
C1184 H1190 0.930 . S
N1185 Li1168 1.990 . S
N1185 C1184 1.314 . S
N1185 C1187 1.279 . S
C1186 C1187 1.358 . S
C1186 C1188 1.356 . S
C1186 H1240 0.930 . S
C1187 N1185 1.279 . S
C1187 C1186 1.358 . S
C1187 H1191 0.930 . S
C1188 C1186 1.356 . S
C1188 C1189 1.348 . S
C1189 C1184 1.353 . S
C1189 C1188 1.348 . S
C1189 H1241 0.929 . S
H1190 C1184 0.930 . S
H1191 C1187 0.930 . S
C1192 N1193 1.314 . S
C1192 C1194 1.353 . S
C1192 H1198 0.930 . S
N1193 Li1169 1.990 . S
N1193 C1192 1.314 . S
N1193 C1196 1.279 . S
C1194 C1192 1.353 . S
C1194 C1197 1.348 . S
C1194 H1242 0.929 . S
C1195 C1196 1.358 . S
C1195 C1197 1.356 . S
C1195 H1243 0.930 . S
C1196 N1193 1.279 . S
C1196 C1195 1.358 . S
C1196 H1199 0.930 . S
C1197 C1194 1.348 . S
C1197 C1195 1.356 . S
H1198 C1192 0.930 . S
H1199 C1196 0.930 . S
C1200 C1202 1.348 . S
C1200 C1203 1.356 . S
C1200 O1230 1.325 . S
N1201 C1204 1.314 . S
N1201 C1205 1.279 . S
C1202 C1200 1.348 . S
C1202 C1204 1.353 . S
C1202 H1244 0.929 . S
C1203 C1200 1.356 . S
C1203 C1205 1.358 . S
C1203 H1245 0.930 . S
C1204 N1201 1.314 . S
C1204 C1202 1.353 . S
C1204 H1246 0.930 . S
C1205 N1201 1.279 . S
C1205 C1203 1.358 . S
C1205 H1247 0.930 . S
C1206 C1207 1.348 . S
C1206 C1208 1.356 . S
C1206 O1231 1.325 . S
C1207 C1206 1.348 . S
C1207 C1209 1.353 . S
C1207 H1248 0.929 . S
C1208 C1206 1.356 . S
C1208 C1210 1.358 . S
C1208 H1249 0.930 . S
C1209 C1207 1.353 . S
C1209 N1211 1.314 . S
C1209 H1250 0.930 . S
C1210 C1208 1.358 . S
C1210 N1211 1.279 . S
C1210 H1251 0.930 . S
N1211 C1209 1.314 . S
N1211 C1210 1.279 . S
C1212 C1214 1.353 . S
C1212 N1215 1.314 . S
C1212 H1218 0.930 . S
C1213 N1215 1.279 . S
C1213 C1216 1.358 . S
C1213 H1219 0.930 . S
C1214 C1212 1.353 . S
C1214 C1217 1.348 . S
C1214 H1252 0.929 . S
N1215 Li1170 1.990 . S
N1215 C1212 1.314 . S
N1215 C1213 1.279 . S
C1216 C1213 1.358 . S
C1216 C1217 1.356 . S
C1216 H1253 0.930 . S
C1217 C1214 1.348 . S
C1217 C1216 1.356 . S
H1218 C1212 0.930 . S
H1219 C1213 0.930 . S
C1220 N1221 1.314 . S
C1220 C1222 1.353 . S
C1220 H1226 0.930 . S
N1221 Li1171 1.990 . S
N1221 C1220 1.314 . S
N1221 C1224 1.279 . S
C1222 C1220 1.353 . S
C1222 C1225 1.348 . S
C1222 H1254 0.929 . S
C1223 C1224 1.358 . S
C1223 C1225 1.356 . S
C1223 H1255 0.930 . S
C1224 N1221 1.279 . S
C1224 C1223 1.358 . S
C1224 H1227 0.930 . S
C1225 C1222 1.348 . S
C1225 C1223 1.356 . S
H1226 C1220 0.930 . S
H1227 C1224 0.930 . S
O1228 Li1168 1.956 . S
O1228 Li1169 1.970 . S
O1228 Li1170 1.961 . S
O1228 C1172 1.325 . S
O1229 Li1168 1.970 . S
O1229 Li1169 1.956 . S
O1229 Li1171 1.961 . S
O1229 C1178 1.325 . S
O1230 Li1168 1.961 . S
O1230 Li1170 1.956 . S
O1230 Li1171 1.970 . S
O1230 C1200 1.325 . S
O1231 Li1169 1.961 . S
O1231 Li1170 1.970 . S
O1231 Li1171 1.956 . S
O1231 C1206 1.325 . S
H1232 C1174 0.929 . S
H1233 C1175 0.930 . S
H1234 C1176 0.930 . S
H1235 C1177 0.930 . S
H1236 C1179 0.930 . S
H1237 C1181 0.929 . S
H1238 C1182 0.930 . S
H1239 C1183 0.930 . S
H1240 C1186 0.930 . S
H1241 C1189 0.929 . S
H1242 C1194 0.929 . S
H1243 C1195 0.930 . S
H1244 C1202 0.929 . S
H1245 C1203 0.930 . S
H1246 C1204 0.930 . S
H1247 C1205 0.930 . S
H1248 C1207 0.929 . S
H1249 C1208 0.930 . S
H1250 C1209 0.930 . S
H1251 C1210 0.930 . S
H1252 C1214 0.929 . S
H1253 C1216 0.930 . S
H1254 C1222 0.929 . S
H1255 C1223 0.930 . S
Li1256 N1273 1.990 . S
Li1256 O1316 1.956 . S
Li1256 O1317 1.970 1_565 S
Li1256 O1318 1.961 . S
Li1257 N1281 1.990 . S
Li1257 O1316 1.970 1_545 S
Li1257 O1317 1.956 . S
Li1257 O1319 1.961 . S
Li1258 N1303 1.990 . S
Li1258 O1316 1.961 . S
Li1258 O1318 1.956 . S
Li1258 O1319 1.970 1_565 S
Li1259 N1309 1.990 . S
Li1259 O1317 1.961 . S
Li1259 O1318 1.970 1_545 S
Li1259 O1319 1.956 . S
C1260 C1262 1.348 . S
C1260 C1263 1.356 . S
C1260 O1316 1.325 . S
N1261 C1264 1.314 . S
N1261 C1265 1.279 . S
C1262 C1260 1.348 . S
C1262 C1264 1.353 . S
C1262 H1320 0.929 . S
C1263 C1260 1.356 . S
C1263 C1265 1.358 . S
C1263 H1321 0.930 . S
C1264 N1261 1.314 . S
C1264 C1262 1.353 . S
C1264 H1322 0.930 . S
C1265 N1261 1.279 . S
C1265 C1263 1.358 . S
C1265 H1323 0.930 . S
C1266 C1269 1.348 1_545 S
C1266 C1270 1.356 . S
C1266 O1317 1.325 . S
C1267 N1268 1.279 . S
C1267 C1270 1.358 . S
C1267 H1324 0.930 . S
N1268 C1267 1.279 . S
N1268 C1271 1.314 1_545 S
C1269 C1266 1.348 1_565 S
C1269 C1271 1.353 . S
C1269 H1325 0.929 . S
C1270 C1266 1.356 . S
C1270 C1267 1.358 . S
C1270 H1326 0.930 . S
C1271 N1268 1.314 1_565 S
C1271 C1269 1.353 . S
C1271 H1327 0.930 . S
C1272 N1273 1.314 . S
C1272 C1277 1.353 . S
C1272 H1278 0.930 . S
N1273 Li1256 1.990 . S
N1273 C1272 1.314 . S
N1273 C1275 1.279 . S
C1274 C1275 1.358 . S
C1274 C1276 1.356 . S
C1274 H1328 0.930 . S
C1275 N1273 1.279 . S
C1275 C1274 1.358 . S
C1275 H1279 0.930 . S
C1276 C1274 1.356 . S
C1276 C1277 1.348 . S
C1277 C1272 1.353 . S
C1277 C1276 1.348 . S
C1277 H1329 0.929 . S
H1278 C1272 0.930 . S
H1279 C1275 0.930 . S
C1280 N1281 1.314 . S
C1280 C1282 1.353 . S
C1280 H1286 0.930 . S
N1281 Li1257 1.990 . S
N1281 C1280 1.314 . S
N1281 C1284 1.279 . S
C1282 C1280 1.353 . S
C1282 C1285 1.348 . S
C1282 H1330 0.929 . S
C1283 C1284 1.358 . S
C1283 C1285 1.356 . S
C1283 H1331 0.930 . S
C1284 N1281 1.279 . S
C1284 C1283 1.358 . S
C1284 H1287 0.930 . S
C1285 C1282 1.348 . S
C1285 C1283 1.356 . S
H1286 C1280 0.930 . S
H1287 C1284 0.930 . S
C1288 C1290 1.348 1_565 S
C1288 C1291 1.356 . S
C1288 O1318 1.325 . S
N1289 C1292 1.314 1_565 S
N1289 C1293 1.279 . S
C1290 C1288 1.348 1_545 S
C1290 C1292 1.353 . S
C1290 H1332 0.929 . S
C1291 C1288 1.356 . S
C1291 C1293 1.358 . S
C1291 H1333 0.930 . S
C1292 N1289 1.314 1_545 S
C1292 C1290 1.353 . S
C1292 H1334 0.930 . S
C1293 N1289 1.279 . S
C1293 C1291 1.358 . S
C1293 H1335 0.930 . S
C1294 C1295 1.348 . S
C1294 C1296 1.356 . S
C1294 O1319 1.325 . S
C1295 C1294 1.348 . S
C1295 C1297 1.353 . S
C1295 H1336 0.929 . S
C1296 C1294 1.356 . S
C1296 C1298 1.358 . S
C1296 H1337 0.930 . S
C1297 C1295 1.353 . S
C1297 N1299 1.314 . S
C1297 H1338 0.930 . S
C1298 C1296 1.358 . S
C1298 N1299 1.279 . S
C1298 H1339 0.930 . S
N1299 C1297 1.314 . S
N1299 C1298 1.279 . S
C1300 C1302 1.353 . S
C1300 N1303 1.314 . S
C1300 H1306 0.930 . S
C1301 N1303 1.279 . S
C1301 C1304 1.358 . S
C1301 H1307 0.930 . S
C1302 C1300 1.353 . S
C1302 C1305 1.348 . S
C1302 H1340 0.929 . S
N1303 Li1258 1.990 . S
N1303 C1300 1.314 . S
N1303 C1301 1.279 . S
C1304 C1301 1.358 . S
C1304 C1305 1.356 . S
C1304 H1341 0.930 . S
C1305 C1302 1.348 . S
C1305 C1304 1.356 . S
H1306 C1300 0.930 . S
H1307 C1301 0.930 . S
C1308 N1309 1.314 . S
C1308 C1310 1.353 . S
C1308 H1314 0.930 . S
N1309 Li1259 1.990 . S
N1309 C1308 1.314 . S
N1309 C1312 1.279 . S
C1310 C1308 1.353 . S
C1310 C1313 1.348 . S
C1310 H1342 0.929 . S
C1311 C1312 1.358 . S
C1311 C1313 1.356 . S
C1311 H1343 0.930 . S
C1312 N1309 1.279 . S
C1312 C1311 1.358 . S
C1312 H1315 0.930 . S
C1313 C1310 1.348 . S
C1313 C1311 1.356 . S
H1314 C1308 0.930 . S
H1315 C1312 0.930 . S
O1316 Li1256 1.956 . S
O1316 Li1257 1.970 1_565 S
O1316 Li1258 1.961 . S
O1316 C1260 1.325 . S
O1317 Li1256 1.970 1_545 S
O1317 Li1257 1.956 . S
O1317 Li1259 1.961 . S
O1317 C1266 1.325 . S
O1318 Li1256 1.961 . S
O1318 Li1258 1.956 . S
O1318 Li1259 1.970 1_565 S
O1318 C1288 1.325 . S
O1319 Li1257 1.961 . S
O1319 Li1258 1.970 1_545 S
O1319 Li1259 1.956 . S
O1319 C1294 1.325 . S
H1320 C1262 0.929 . S
H1321 C1263 0.930 . S
H1322 C1264 0.930 . S
H1323 C1265 0.930 . S
H1324 C1267 0.930 . S
H1325 C1269 0.929 . S
H1326 C1270 0.930 . S
H1327 C1271 0.930 . S
H1328 C1274 0.930 . S
H1329 C1277 0.929 . S
H1330 C1282 0.929 . S
H1331 C1283 0.930 . S
H1332 C1290 0.929 . S
H1333 C1291 0.930 . S
H1334 C1292 0.930 . S
H1335 C1293 0.930 . S
H1336 C1295 0.929 . S
H1337 C1296 0.930 . S
H1338 C1297 0.930 . S
H1339 C1298 0.930 . S
H1340 C1302 0.929 . S
H1341 C1304 0.930 . S
H1342 C1310 0.929 . S
H1343 C1311 0.930 . S
Li1344 N1361 1.990 . S
Li1344 O1404 1.956 . S
Li1344 O1405 1.974 1_455 S
Li1344 O1406 1.961 . S
Li1345 N1369 1.993 . S
Li1345 O1404 1.955 1_655 S
Li1345 O1405 1.956 . S
Li1345 O1407 1.972 . S
Li1346 N1391 1.990 . S
Li1346 O1404 1.961 . S
Li1346 O1406 1.956 . S
Li1346 O1407 1.970 1_455 S
Li1347 N1397 1.990 . S
Li1347 O1405 1.958 . S
Li1347 O1406 1.970 1_655 S
Li1347 O1407 1.956 . S
C1348 C1350 1.348 . S
C1348 C1351 1.356 . S
C1348 O1404 1.325 . S
N1349 C1352 1.314 . S
N1349 C1353 1.279 . S
C1350 C1348 1.348 . S
C1350 C1352 1.353 . S
C1350 H1408 0.929 . S
C1351 C1348 1.356 . S
C1351 C1353 1.358 . S
C1351 H1409 0.930 . S
C1352 N1349 1.314 . S
C1352 C1350 1.353 . S
C1352 H1410 0.930 . S
C1353 N1349 1.279 . S
C1353 C1351 1.358 . S
C1353 H1411 0.930 . S
C1354 C1357 1.348 1_655 S
C1354 C1358 1.356 . S
C1354 O1405 1.324 . S
C1355 N1356 1.279 . S
C1355 C1358 1.358 . S
C1355 H1412 0.930 . S
N1356 C1355 1.279 . S
N1356 C1359 1.314 1_655 S
C1357 C1354 1.348 1_455 S
C1357 C1359 1.353 . S
C1357 H1413 0.929 . S
C1358 C1354 1.356 . S
C1358 C1355 1.358 . S
C1358 H1414 0.930 . S
C1359 N1356 1.314 1_455 S
C1359 C1357 1.353 . S
C1359 H1415 0.930 . S
C1360 N1361 1.314 . S
C1360 C1365 1.353 . S
C1360 H1366 0.930 . S
N1361 Li1344 1.990 . S
N1361 C1360 1.314 . S
N1361 C1363 1.279 . S
C1362 C1363 1.358 . S
C1362 C1364 1.356 . S
C1362 H1416 0.930 . S
C1363 N1361 1.279 . S
C1363 C1362 1.358 . S
C1363 H1367 0.930 . S
C1364 C1362 1.356 . S
C1364 C1365 1.348 . S
C1365 C1360 1.353 . S
C1365 C1364 1.348 . S
C1365 H1417 0.929 . S
H1366 C1360 0.930 . S
H1367 C1363 0.930 . S
C1368 N1369 1.314 . S
C1368 C1370 1.353 . S
C1368 H1374 0.930 . S
N1369 Li1345 1.993 . S
N1369 C1368 1.314 . S
N1369 C1372 1.279 . S
C1370 C1368 1.353 . S
C1370 C1373 1.348 . S
C1370 H1418 0.929 . S
C1371 C1372 1.358 . S
C1371 C1373 1.356 . S
C1371 H1419 0.930 . S
C1372 N1369 1.279 . S
C1372 C1371 1.358 . S
C1372 H1375 0.933 . S
C1373 C1370 1.348 . S
C1373 C1371 1.356 . S
H1374 C1368 0.930 . S
H1375 C1372 0.933 . S
C1376 C1378 1.348 1_455 S
C1376 C1379 1.356 . S
C1376 O1406 1.325 . S
N1377 C1380 1.314 1_455 S
N1377 C1381 1.279 . S
C1378 C1376 1.348 1_655 S
C1378 C1380 1.353 . S
C1378 H1420 0.929 . S
C1379 C1376 1.356 . S
C1379 C1381 1.358 . S
C1379 H1421 0.930 . S
C1380 N1377 1.314 1_655 S
C1380 C1378 1.353 . S
C1380 H1422 0.930 . S
C1381 N1377 1.279 . S
C1381 C1379 1.358 . S
C1381 H1423 0.930 . S
C1382 C1383 1.348 . S
C1382 C1384 1.356 . S
C1382 O1407 1.325 . S
C1383 C1382 1.348 . S
C1383 C1385 1.353 . S
C1383 H1424 0.929 . S
C1384 C1382 1.356 . S
C1384 C1386 1.358 . S
C1384 H1425 0.930 . S
C1385 C1383 1.353 . S
C1385 N1387 1.314 . S
C1385 H1426 0.930 . S
C1386 C1384 1.358 . S
C1386 N1387 1.279 . S
C1386 H1427 0.930 . S
N1387 C1385 1.314 . S
N1387 C1386 1.279 . S
C1388 C1390 1.353 . S
C1388 N1391 1.314 . S
C1388 H1394 0.930 . S
C1389 N1391 1.279 . S
C1389 C1392 1.358 . S
C1389 H1395 0.930 . S
C1390 C1388 1.353 . S
C1390 C1393 1.348 . S
C1390 H1428 0.929 . S
N1391 Li1346 1.990 . S
N1391 C1388 1.314 . S
N1391 C1389 1.279 . S
C1392 C1389 1.358 . S
C1392 C1393 1.356 . S
C1392 H1429 0.930 . S
C1393 C1390 1.348 . S
C1393 C1392 1.356 . S
H1394 C1388 0.930 . S
H1395 C1389 0.930 . S
C1396 N1397 1.314 . S
C1396 C1398 1.353 . S
C1396 H1402 0.930 . S
N1397 Li1347 1.990 . S
N1397 C1396 1.314 . S
N1397 C1400 1.279 . S
C1398 C1396 1.353 . S
C1398 C1401 1.348 . S
C1398 H1430 0.929 . S
C1399 C1400 1.358 . S
C1399 C1401 1.356 . S
C1399 H1431 0.930 . S
C1400 N1397 1.279 . S
C1400 C1399 1.358 . S
C1400 H1403 0.930 . S
C1401 C1398 1.348 . S
C1401 C1399 1.356 . S
H1402 C1396 0.930 . S
H1403 C1400 0.930 . S
O1404 Li1344 1.956 . S
O1404 Li1345 1.955 1_455 S
O1404 Li1346 1.961 . S
O1404 C1348 1.325 . S
O1405 Li1344 1.974 1_655 S
O1405 Li1345 1.956 . S
O1405 Li1347 1.958 . S
O1405 C1354 1.324 . S
O1406 Li1344 1.961 . S
O1406 Li1346 1.956 . S
O1406 Li1347 1.970 1_455 S
O1406 C1376 1.325 . S
O1407 Li1345 1.972 . S
O1407 Li1346 1.970 1_655 S
O1407 Li1347 1.956 . S
O1407 C1382 1.325 . S
H1408 C1350 0.929 . S
H1409 C1351 0.930 . S
H1410 C1352 0.930 . S
H1411 C1353 0.930 . S
H1412 C1355 0.930 . S
H1413 C1357 0.929 . S
H1414 C1358 0.930 . S
H1415 C1359 0.930 . S
H1416 C1362 0.930 . S
H1417 C1365 0.929 . S
H1418 C1370 0.929 . S
H1419 C1371 0.930 . S
H1420 C1378 0.929 . S
H1421 C1379 0.930 . S
H1422 C1380 0.930 . S
H1423 C1381 0.930 . S
H1424 C1383 0.929 . S
H1425 C1384 0.930 . S
H1426 C1385 0.930 . S
H1427 C1386 0.930 . S
H1428 C1390 0.929 . S
H1429 C1392 0.930 . S
H1430 C1398 0.929 . S
H1431 C1399 0.930 . S
Li1432 N1449 1.990 . S
Li1432 O1492 1.956 . S
Li1432 O1493 1.970 . S
Li1432 O1494 1.961 . S
Li1433 N1457 1.990 . S
Li1433 O1492 1.970 . S
Li1433 O1493 1.956 . S
Li1433 O1495 1.961 . S
Li1434 N1479 1.990 . S
Li1434 O1492 1.961 . S
Li1434 O1494 1.956 . S
Li1434 O1495 1.970 . S
Li1435 N1485 1.990 . S
Li1435 O1493 1.961 . S
Li1435 O1494 1.970 . S
Li1435 O1495 1.956 . S
C1436 C1438 1.348 . S
C1436 C1439 1.356 . S
C1436 O1492 1.325 . S
N1437 C1440 1.314 . S
N1437 C1441 1.279 . S
C1438 C1436 1.348 . S
C1438 C1440 1.353 . S
C1438 H1496 0.929 . S
C1439 C1436 1.356 . S
C1439 C1441 1.358 . S
C1439 H1497 0.930 . S
C1440 N1437 1.314 . S
C1440 C1438 1.353 . S
C1440 H1498 0.930 . S
C1441 N1437 1.279 . S
C1441 C1439 1.358 . S
C1441 H1499 0.930 . S
C1442 C1445 1.348 . S
C1442 C1446 1.356 . S
C1442 O1493 1.325 . S
C1443 N1444 1.279 . S
C1443 C1446 1.358 . S
C1443 H1500 0.930 . S
N1444 C1443 1.279 . S
N1444 C1447 1.314 . S
C1445 C1442 1.348 . S
C1445 C1447 1.353 . S
C1445 H1501 0.929 . S
C1446 C1442 1.356 . S
C1446 C1443 1.358 . S
C1446 H1502 0.930 . S
C1447 N1444 1.314 . S
C1447 C1445 1.353 . S
C1447 H1503 0.930 . S
C1448 N1449 1.314 . S
C1448 C1453 1.353 . S
C1448 H1454 0.930 . S
N1449 Li1432 1.990 . S
N1449 C1448 1.314 . S
N1449 C1451 1.279 . S
C1450 C1451 1.358 . S
C1450 C1452 1.356 . S
C1450 H1504 0.930 . S
C1451 N1449 1.279 . S
C1451 C1450 1.358 . S
C1451 H1455 0.930 . S
C1452 C1450 1.356 . S
C1452 C1453 1.348 . S
C1453 C1448 1.353 . S
C1453 C1452 1.348 . S
C1453 H1505 0.929 . S
H1454 C1448 0.930 . S
H1455 C1451 0.930 . S
C1456 N1457 1.314 . S
C1456 C1458 1.353 . S
C1456 H1462 0.930 . S
N1457 Li1433 1.990 . S
N1457 C1456 1.314 . S
N1457 C1460 1.279 . S
C1458 C1456 1.353 . S
C1458 C1461 1.348 . S
C1458 H1506 0.929 . S
C1459 C1460 1.358 . S
C1459 C1461 1.356 . S
C1459 H1507 0.930 . S
C1460 N1457 1.279 . S
C1460 C1459 1.358 . S
C1460 H1463 0.930 . S
C1461 C1458 1.348 . S
C1461 C1459 1.356 . S
H1462 C1456 0.930 . S
H1463 C1460 0.930 . S
C1464 C1466 1.348 . S
C1464 C1467 1.356 . S
C1464 O1494 1.325 . S
N1465 C1468 1.314 . S
N1465 C1469 1.279 . S
C1466 C1464 1.348 . S
C1466 C1468 1.353 . S
C1466 H1508 0.929 . S
C1467 C1464 1.356 . S
C1467 C1469 1.358 . S
C1467 H1509 0.930 . S
C1468 N1465 1.314 . S
C1468 C1466 1.353 . S
C1468 H1510 0.930 . S
C1469 N1465 1.279 . S
C1469 C1467 1.358 . S
C1469 H1511 0.930 . S
C1470 C1471 1.348 . S
C1470 C1472 1.356 . S
C1470 O1495 1.325 . S
C1471 C1470 1.348 . S
C1471 C1473 1.353 . S
C1471 H1512 0.929 . S
C1472 C1470 1.356 . S
C1472 C1474 1.358 . S
C1472 H1513 0.930 . S
C1473 C1471 1.353 . S
C1473 N1475 1.314 . S
C1473 H1514 0.930 . S
C1474 C1472 1.358 . S
C1474 N1475 1.279 . S
C1474 H1515 0.930 . S
N1475 C1473 1.314 . S
N1475 C1474 1.279 . S
C1476 C1478 1.353 . S
C1476 N1479 1.314 . S
C1476 H1482 0.930 . S
C1477 N1479 1.279 . S
C1477 C1480 1.358 . S
C1477 H1483 0.930 . S
C1478 C1476 1.353 . S
C1478 C1481 1.348 . S
C1478 H1516 0.929 . S
N1479 Li1434 1.990 . S
N1479 C1476 1.314 . S
N1479 C1477 1.279 . S
C1480 C1477 1.358 . S
C1480 C1481 1.356 . S
C1480 H1517 0.930 . S
C1481 C1478 1.348 . S
C1481 C1480 1.356 . S
H1482 C1476 0.930 . S
H1483 C1477 0.930 . S
C1484 N1485 1.314 . S
C1484 C1486 1.353 . S
C1484 H1490 0.930 . S
N1485 Li1435 1.990 . S
N1485 C1484 1.314 . S
N1485 C1488 1.279 . S
C1486 C1484 1.353 . S
C1486 C1489 1.348 . S
C1486 H1518 0.929 . S
C1487 C1488 1.358 . S
C1487 C1489 1.356 . S
C1487 H1519 0.930 . S
C1488 N1485 1.279 . S
C1488 C1487 1.358 . S
C1488 H1491 0.930 . S
C1489 C1486 1.348 . S
C1489 C1487 1.356 . S
H1490 C1484 0.930 . S
H1491 C1488 0.930 . S
O1492 Li1432 1.956 . S
O1492 Li1433 1.970 . S
O1492 Li1434 1.961 . S
O1492 C1436 1.325 . S
O1493 Li1432 1.970 . S
O1493 Li1433 1.956 . S
O1493 Li1435 1.961 . S
O1493 C1442 1.325 . S
O1494 Li1432 1.961 . S
O1494 Li1434 1.956 . S
O1494 Li1435 1.970 . S
O1494 C1464 1.325 . S
O1495 Li1433 1.961 . S
O1495 Li1434 1.970 . S
O1495 Li1435 1.956 . S
O1495 C1470 1.325 . S
H1496 C1438 0.929 . S
H1497 C1439 0.930 . S
H1498 C1440 0.930 . S
H1499 C1441 0.930 . S
H1500 C1443 0.930 . S
H1501 C1445 0.929 . S
H1502 C1446 0.930 . S
H1503 C1447 0.930 . S
H1504 C1450 0.930 . S
H1505 C1453 0.929 . S
H1506 C1458 0.929 . S
H1507 C1459 0.930 . S
H1508 C1466 0.929 . S
H1509 C1467 0.930 . S
H1510 C1468 0.930 . S
H1511 C1469 0.930 . S
H1512 C1471 0.929 . S
H1513 C1472 0.930 . S
H1514 C1473 0.930 . S
H1515 C1474 0.930 . S
H1516 C1478 0.929 . S
H1517 C1480 0.930 . S
H1518 C1486 0.929 . S
H1519 C1487 0.930 . S
Li1520 N1537 1.990 . S
Li1520 O1580 1.956 . S
Li1520 O1581 1.970 1_455 S
Li1520 O1582 1.961 . S
Li1521 N1545 1.990 . S
Li1521 O1580 1.970 1_655 S
Li1521 O1581 1.956 . S
Li1521 O1583 1.958 . S
Li1522 N1567 1.990 . S
Li1522 O1580 1.961 . S
Li1522 O1582 1.956 . S
Li1522 O1583 1.974 1_455 S
Li1523 N1573 1.993 . S
Li1523 O1581 1.972 . S
Li1523 O1582 1.955 1_655 S
Li1523 O1583 1.956 . S
C1524 C1526 1.348 1_455 S
C1524 C1527 1.356 . S
C1524 O1580 1.325 . S
N1525 C1528 1.314 1_455 S
N1525 C1529 1.279 . S
C1526 C1524 1.348 1_655 S
C1526 C1528 1.353 . S
C1526 H1584 0.929 . S
C1527 C1524 1.356 . S
C1527 C1529 1.358 . S
C1527 H1585 0.930 . S
C1528 N1525 1.314 1_655 S
C1528 C1526 1.353 . S
C1528 H1586 0.930 . S
C1529 N1525 1.279 . S
C1529 C1527 1.358 . S
C1529 H1587 0.930 . S
C1530 C1533 1.348 . S
C1530 C1534 1.356 . S
C1530 O1581 1.325 . S
C1531 N1532 1.279 . S
C1531 C1534 1.358 . S
C1531 H1588 0.930 . S
N1532 C1531 1.279 . S
N1532 C1535 1.314 . S
C1533 C1530 1.348 . S
C1533 C1535 1.353 . S
C1533 H1589 0.929 . S
C1534 C1530 1.356 . S
C1534 C1531 1.358 . S
C1534 H1590 0.930 . S
C1535 N1532 1.314 . S
C1535 C1533 1.353 . S
C1535 H1591 0.930 . S
C1536 N1537 1.314 . S
C1536 C1541 1.353 . S
C1536 H1542 0.930 . S
N1537 Li1520 1.990 . S
N1537 C1536 1.314 . S
N1537 C1539 1.279 . S
C1538 C1539 1.358 . S
C1538 C1540 1.356 . S
C1538 H1592 0.930 . S
C1539 N1537 1.279 . S
C1539 C1538 1.358 . S
C1539 H1543 0.930 . S
C1540 C1538 1.356 . S
C1540 C1541 1.348 . S
C1541 C1536 1.353 . S
C1541 C1540 1.348 . S
C1541 H1593 0.929 . S
H1542 C1536 0.930 . S
H1543 C1539 0.930 . S
C1544 N1545 1.314 . S
C1544 C1546 1.353 . S
C1544 H1550 0.930 . S
N1545 Li1521 1.990 . S
N1545 C1544 1.314 . S
N1545 C1548 1.279 . S
C1546 C1544 1.353 . S
C1546 C1549 1.348 . S
C1546 H1594 0.929 . S
C1547 C1548 1.358 . S
C1547 C1549 1.356 . S
C1547 H1595 0.930 . S
C1548 N1545 1.279 . S
C1548 C1547 1.358 . S
C1548 H1551 0.930 . S
C1549 C1546 1.348 . S
C1549 C1547 1.356 . S
H1550 C1544 0.930 . S
H1551 C1548 0.930 . S
C1552 C1554 1.348 . S
C1552 C1555 1.356 . S
C1552 O1582 1.325 . S
N1553 C1556 1.314 . S
N1553 C1557 1.279 . S
C1554 C1552 1.348 . S
C1554 C1556 1.353 . S
C1554 H1596 0.929 . S
C1555 C1552 1.356 . S
C1555 C1557 1.358 . S
C1555 H1597 0.930 . S
C1556 N1553 1.314 . S
C1556 C1554 1.353 . S
C1556 H1598 0.930 . S
C1557 N1553 1.279 . S
C1557 C1555 1.358 . S
C1557 H1599 0.930 . S
C1558 C1559 1.348 1_655 S
C1558 C1560 1.356 . S
C1558 O1583 1.324 . S
C1559 C1558 1.348 1_455 S
C1559 C1561 1.353 . S
C1559 H1600 0.929 . S
C1560 C1558 1.356 . S
C1560 C1562 1.358 . S
C1560 H1601 0.930 . S
C1561 C1559 1.353 . S
C1561 N1563 1.314 1_455 S
C1561 H1602 0.930 . S
C1562 C1560 1.358 . S
C1562 N1563 1.279 . S
C1562 H1603 0.930 . S
N1563 C1561 1.314 1_655 S
N1563 C1562 1.279 . S
C1564 C1566 1.353 . S
C1564 N1567 1.314 . S
C1564 H1570 0.930 . S
C1565 N1567 1.279 . S
C1565 C1568 1.358 . S
C1565 H1571 0.930 . S
C1566 C1564 1.353 . S
C1566 C1569 1.348 . S
C1566 H1604 0.929 . S
N1567 Li1522 1.990 . S
N1567 C1564 1.314 . S
N1567 C1565 1.279 . S
C1568 C1565 1.358 . S
C1568 C1569 1.356 . S
C1568 H1605 0.930 . S
C1569 C1566 1.348 . S
C1569 C1568 1.356 . S
H1570 C1564 0.930 . S
H1571 C1565 0.930 . S
C1572 N1573 1.314 . S
C1572 C1574 1.353 . S
C1572 H1578 0.930 . S
N1573 Li1523 1.993 . S
N1573 C1572 1.314 . S
N1573 C1576 1.279 . S
C1574 C1572 1.353 . S
C1574 C1577 1.348 . S
C1574 H1606 0.929 . S
C1575 C1576 1.358 . S
C1575 C1577 1.356 . S
C1575 H1607 0.930 . S
C1576 N1573 1.279 . S
C1576 C1575 1.358 . S
C1576 H1579 0.933 . S
C1577 C1574 1.348 . S
C1577 C1575 1.356 . S
H1578 C1572 0.930 . S
H1579 C1576 0.933 . S
O1580 Li1520 1.956 . S
O1580 Li1521 1.970 1_455 S
O1580 Li1522 1.961 . S
O1580 C1524 1.325 . S
O1581 Li1520 1.970 1_655 S
O1581 Li1521 1.956 . S
O1581 Li1523 1.972 . S
O1581 C1530 1.325 . S
O1582 Li1520 1.961 . S
O1582 Li1522 1.956 . S
O1582 Li1523 1.955 1_455 S
O1582 C1552 1.325 . S
O1583 Li1521 1.958 . S
O1583 Li1522 1.974 1_655 S
O1583 Li1523 1.956 . S
O1583 C1558 1.324 . S
H1584 C1526 0.929 . S
H1585 C1527 0.930 . S
H1586 C1528 0.930 . S
H1587 C1529 0.930 . S
H1588 C1531 0.930 . S
H1589 C1533 0.929 . S
H1590 C1534 0.930 . S
H1591 C1535 0.930 . S
H1592 C1538 0.930 . S
H1593 C1541 0.929 . S
H1594 C1546 0.929 . S
H1595 C1547 0.930 . S
H1596 C1554 0.929 . S
H1597 C1555 0.930 . S
H1598 C1556 0.930 . S
H1599 C1557 0.930 . S
H1600 C1559 0.929 . S
H1601 C1560 0.930 . S
H1602 C1561 0.930 . S
H1603 C1562 0.930 . S
H1604 C1566 0.929 . S
H1605 C1568 0.930 . S
H1606 C1574 0.929 . S
H1607 C1575 0.930 . S
Li1608 N1625 1.990 . S
Li1608 O1668 1.956 . S
Li1608 O1669 1.970 . S
Li1608 O1670 1.961 . S
Li1609 N1633 1.990 . S
Li1609 O1668 1.970 . S
Li1609 O1669 1.956 . S
Li1609 O1671 1.961 . S
Li1610 N1655 1.990 . S
Li1610 O1668 1.961 . S
Li1610 O1670 1.956 . S
Li1610 O1671 1.970 . S
Li1611 N1661 1.990 . S
Li1611 O1669 1.961 . S
Li1611 O1670 1.970 . S
Li1611 O1671 1.956 . S
C1612 C1614 1.348 . S
C1612 C1615 1.356 . S
C1612 O1668 1.325 . S
N1613 C1616 1.314 . S
N1613 C1617 1.279 . S
C1614 C1612 1.348 . S
C1614 C1616 1.353 . S
C1614 H1672 0.929 . S
C1615 C1612 1.356 . S
C1615 C1617 1.358 . S
C1615 H1673 0.930 . S
C1616 N1613 1.314 . S
C1616 C1614 1.353 . S
C1616 H1674 0.930 . S
C1617 N1613 1.279 . S
C1617 C1615 1.358 . S
C1617 H1675 0.930 . S
C1618 C1621 1.348 . S
C1618 C1622 1.356 . S
C1618 O1669 1.325 . S
C1619 N1620 1.279 . S
C1619 C1622 1.358 . S
C1619 H1676 0.930 . S
N1620 C1619 1.279 . S
N1620 C1623 1.314 . S
C1621 C1618 1.348 . S
C1621 C1623 1.353 . S
C1621 H1677 0.929 . S
C1622 C1618 1.356 . S
C1622 C1619 1.358 . S
C1622 H1678 0.930 . S
C1623 N1620 1.314 . S
C1623 C1621 1.353 . S
C1623 H1679 0.930 . S
C1624 N1625 1.314 . S
C1624 C1629 1.353 . S
C1624 H1630 0.930 . S
N1625 Li1608 1.990 . S
N1625 C1624 1.314 . S
N1625 C1627 1.279 . S
C1626 C1627 1.358 . S
C1626 C1628 1.356 . S
C1626 H1680 0.930 . S
C1627 N1625 1.279 . S
C1627 C1626 1.358 . S
C1627 H1631 0.930 . S
C1628 C1626 1.356 . S
C1628 C1629 1.348 . S
C1629 C1624 1.353 . S
C1629 C1628 1.348 . S
C1629 H1681 0.929 . S
H1630 C1624 0.930 . S
H1631 C1627 0.930 . S
C1632 N1633 1.314 . S
C1632 C1634 1.353 . S
C1632 H1638 0.930 . S
N1633 Li1609 1.990 . S
N1633 C1632 1.314 . S
N1633 C1636 1.279 . S
C1634 C1632 1.353 . S
C1634 C1637 1.348 . S
C1634 H1682 0.929 . S
C1635 C1636 1.358 . S
C1635 C1637 1.356 . S
C1635 H1683 0.930 . S
C1636 N1633 1.279 . S
C1636 C1635 1.358 . S
C1636 H1639 0.930 . S
C1637 C1634 1.348 . S
C1637 C1635 1.356 . S
H1638 C1632 0.930 . S
H1639 C1636 0.930 . S
C1640 C1642 1.348 . S
C1640 C1643 1.356 . S
C1640 O1670 1.325 . S
N1641 C1644 1.314 . S
N1641 C1645 1.279 . S
C1642 C1640 1.348 . S
C1642 C1644 1.353 . S
C1642 H1684 0.929 . S
C1643 C1640 1.356 . S
C1643 C1645 1.358 . S
C1643 H1685 0.930 . S
C1644 N1641 1.314 . S
C1644 C1642 1.353 . S
C1644 H1686 0.930 . S
C1645 N1641 1.279 . S
C1645 C1643 1.358 . S
C1645 H1687 0.930 . S
C1646 C1647 1.348 . S
C1646 C1648 1.356 . S
C1646 O1671 1.325 . S
C1647 C1646 1.348 . S
C1647 C1649 1.353 . S
C1647 H1688 0.929 . S
C1648 C1646 1.356 . S
C1648 C1650 1.358 . S
C1648 H1689 0.930 . S
C1649 C1647 1.353 . S
C1649 N1651 1.314 . S
C1649 H1690 0.930 . S
C1650 C1648 1.358 . S
C1650 N1651 1.279 . S
C1650 H1691 0.930 . S
N1651 C1649 1.314 . S
N1651 C1650 1.279 . S
C1652 C1654 1.353 . S
C1652 N1655 1.314 . S
C1652 H1658 0.930 . S
C1653 N1655 1.279 . S
C1653 C1656 1.358 . S
C1653 H1659 0.930 . S
C1654 C1652 1.353 . S
C1654 C1657 1.348 . S
C1654 H1692 0.929 . S
N1655 Li1610 1.990 . S
N1655 C1652 1.314 . S
N1655 C1653 1.279 . S
C1656 C1653 1.358 . S
C1656 C1657 1.356 . S
C1656 H1693 0.930 . S
C1657 C1654 1.348 . S
C1657 C1656 1.356 . S
H1658 C1652 0.930 . S
H1659 C1653 0.930 . S
C1660 N1661 1.314 . S
C1660 C1662 1.353 . S
C1660 H1666 0.930 . S
N1661 Li1611 1.990 . S
N1661 C1660 1.314 . S
N1661 C1664 1.279 . S
C1662 C1660 1.353 . S
C1662 C1665 1.348 . S
C1662 H1694 0.929 . S
C1663 C1664 1.358 . S
C1663 C1665 1.356 . S
C1663 H1695 0.930 . S
C1664 N1661 1.279 . S
C1664 C1663 1.358 . S
C1664 H1667 0.930 . S
C1665 C1662 1.348 . S
C1665 C1663 1.356 . S
H1666 C1660 0.930 . S
H1667 C1664 0.930 . S
O1668 Li1608 1.956 . S
O1668 Li1609 1.970 . S
O1668 Li1610 1.961 . S
O1668 C1612 1.325 . S
O1669 Li1608 1.970 . S
O1669 Li1609 1.956 . S
O1669 Li1611 1.961 . S
O1669 C1618 1.325 . S
O1670 Li1608 1.961 . S
O1670 Li1610 1.956 . S
O1670 Li1611 1.970 . S
O1670 C1640 1.325 . S
O1671 Li1609 1.961 . S
O1671 Li1610 1.970 . S
O1671 Li1611 1.956 . S
O1671 C1646 1.325 . S
H1672 C1614 0.929 . S
H1673 C1615 0.930 . S
H1674 C1616 0.930 . S
H1675 C1617 0.930 . S
H1676 C1619 0.930 . S
H1677 C1621 0.929 . S
H1678 C1622 0.930 . S
H1679 C1623 0.930 . S
H1680 C1626 0.930 . S
H1681 C1629 0.929 . S
H1682 C1634 0.929 . S
H1683 C1635 0.930 . S
H1684 C1642 0.929 . S
H1685 C1643 0.930 . S
H1686 C1644 0.930 . S
H1687 C1645 0.930 . S
H1688 C1647 0.929 . S
H1689 C1648 0.930 . S
H1690 C1649 0.930 . S
H1691 C1650 0.930 . S
H1692 C1654 0.929 . S
H1693 C1656 0.930 . S
H1694 C1662 0.929 . S
H1695 C1663 0.930 . S
H1696 C1714 0.951 . S
H1697 C1716 0.951 . S
H1698 C1718 0.950 . S
H1699 C1719 0.950 . S
H1700 C1721 0.950 . S
H1701 C1724 0.950 . S
H1702 C1725 0.950 . S
H1703 C1727 0.950 . S
H1704 C1728 0.950 . S
H1705 C1729 0.951 . S
H1706 C1731 0.951 . S
H1707 C1733 0.950 . S
H1708 C1734 0.950 . S
H1709 C1736 0.950 . S
H1710 C1739 0.950 . S
H1711 C1740 0.950 . S
H1712 C1742 0.950 . S
H1713 C1743 0.950 . S
C1714 H1696 0.951 . S
C1714 C1715 1.366 . S
C1714 C1716 1.388 . S
C1715 C1714 1.366 . S
C1715 C1719 1.385 . S
C1716 H1697 0.951 . S
C1716 C1714 1.388 . S
C1716 C1717 1.366 . S
C1717 C1716 1.366 . S
C1717 C1718 1.414 . S
C1717 C1720 1.499 . S
C1718 H1698 0.950 . S
C1718 C1717 1.414 . S
C1718 C1719 1.374 . S
C1719 H1699 0.950 . S
C1719 C1715 1.385 . S
C1719 C1718 1.374 . S
C1720 C1717 1.499 . S
C1720 C1721 1.373 . S
C1720 C1722 1.389 . S
C1721 H1700 0.950 . S
C1721 C1720 1.373 . S
C1721 C1737 1.377 . S
C1722 C1720 1.389 . S
C1722 C1723 1.524 . S
C1722 C1736 1.377 . S
C1723 C1722 1.524 . S
C1723 C1724 1.397 . S
C1723 C1728 1.363 . S
C1724 H1701 0.950 . S
C1724 C1723 1.397 . S
C1724 C1725 1.334 . S
C1725 H1702 0.950 . S
C1725 C1724 1.334 . S
C1725 C1726 1.287 . S
C1726 C1725 1.287 . S
C1726 C1727 1.524 . S
C1726 H1745 0.913 . S
C1727 H1703 0.950 . S
C1727 C1726 1.524 . S
C1727 C1728 1.415 . S
C1728 H1704 0.950 . S
C1728 C1723 1.363 . S
C1728 C1727 1.415 . S
C1729 H1705 0.951 . S
C1729 C1730 1.366 . S
C1729 C1731 1.388 . S
C1730 C1729 1.366 . S
C1730 C1734 1.385 . S
C1731 H1706 0.951 . S
C1731 C1729 1.388 . S
C1731 C1732 1.366 . S
C1732 C1731 1.366 . S
C1732 C1733 1.414 . S
C1732 C1735 1.499 . S
C1733 H1707 0.950 . S
C1733 C1732 1.414 . S
C1733 C1734 1.374 . S
C1734 H1708 0.950 . S
C1734 C1730 1.385 . S
C1734 C1733 1.374 . S
C1735 C1732 1.499 . S
C1735 C1736 1.373 . S
C1735 C1737 1.389 . S
C1736 H1709 0.950 . S
C1736 C1722 1.377 . S
C1736 C1735 1.373 . S
C1737 C1721 1.377 . S
C1737 C1735 1.389 . S
C1737 C1738 1.524 . S
C1738 C1737 1.524 . S
C1738 C1739 1.397 . S
C1738 C1743 1.363 . S
C1739 H1710 0.950 . S
C1739 C1738 1.397 . S
C1739 C1740 1.334 . S
C1740 H1711 0.950 . S
C1740 C1739 1.334 . S
C1740 C1741 1.287 . S
C1741 C1740 1.287 . S
C1741 C1742 1.524 . S
C1741 H1744 0.999 . S
C1742 H1712 0.950 . S
C1742 C1741 1.524 . S
C1742 C1743 1.415 . S
C1743 H1713 0.950 . S
C1743 C1738 1.363 . S
C1743 C1742 1.415 . S
H1744 C1741 0.999 . S
H1745 C1726 0.913 . S
H1746 C1764 0.951 . S
H1747 C1766 0.951 . S
H1748 C1768 0.950 . S
H1749 C1769 0.950 . S
H1750 C1771 0.950 . S
H1751 C1774 0.950 . S
H1752 C1775 0.950 . S
H1753 C1777 0.950 . S
H1754 C1778 0.950 . S
H1755 C1779 0.951 . S
H1756 C1781 0.951 . S
H1757 C1783 0.950 . S
H1758 C1784 0.950 . S
H1759 C1786 0.950 . S
H1760 C1789 0.950 . S
H1761 C1790 0.950 . S
H1762 C1792 0.950 . S
H1763 C1793 0.950 . S
C1764 H1746 0.951 . S
C1764 C1765 1.366 . S
C1764 C1766 1.388 . S
C1765 C1764 1.366 . S
C1765 C1769 1.385 . S
C1766 H1747 0.951 . S
C1766 C1764 1.388 . S
C1766 C1767 1.366 . S
C1767 C1766 1.366 . S
C1767 C1768 1.414 . S
C1767 C1770 1.499 . S
C1768 H1748 0.950 . S
C1768 C1767 1.414 . S
C1768 C1769 1.374 . S
C1769 H1749 0.950 . S
C1769 C1765 1.385 . S
C1769 C1768 1.374 . S
C1770 C1767 1.499 . S
C1770 C1771 1.373 . S
C1770 C1772 1.389 . S
C1771 H1750 0.950 . S
C1771 C1770 1.373 . S
C1771 C1787 1.377 . S
C1772 C1770 1.389 . S
C1772 C1773 1.524 . S
C1772 C1786 1.377 . S
C1773 C1772 1.524 . S
C1773 C1774 1.397 . S
C1773 C1778 1.363 . S
C1774 H1751 0.950 . S
C1774 C1773 1.397 . S
C1774 C1775 1.334 . S
C1775 H1752 0.950 . S
C1775 C1774 1.334 . S
C1775 C1776 1.287 . S
C1776 C1775 1.287 . S
C1776 C1777 1.524 . S
C1776 H1795 0.913 . S
C1777 H1753 0.950 . S
C1777 C1776 1.524 . S
C1777 C1778 1.415 . S
C1778 H1754 0.950 . S
C1778 C1773 1.363 . S
C1778 C1777 1.415 . S
C1779 H1755 0.951 . S
C1779 C1780 1.366 . S
C1779 C1781 1.388 . S
C1780 C1779 1.366 . S
C1780 C1784 1.385 . S
C1781 H1756 0.951 . S
C1781 C1779 1.388 . S
C1781 C1782 1.366 . S
C1782 C1781 1.366 . S
C1782 C1783 1.414 . S
C1782 C1785 1.499 . S
C1783 H1757 0.950 . S
C1783 C1782 1.414 . S
C1783 C1784 1.374 . S
C1784 H1758 0.950 . S
C1784 C1780 1.385 . S
C1784 C1783 1.374 . S
C1785 C1782 1.499 . S
C1785 C1786 1.373 . S
C1785 C1787 1.389 . S
C1786 H1759 0.950 . S
C1786 C1772 1.377 . S
C1786 C1785 1.373 . S
C1787 C1771 1.377 . S
C1787 C1785 1.389 . S
C1787 C1788 1.524 . S
C1788 C1787 1.524 . S
C1788 C1789 1.397 . S
C1788 C1793 1.363 . S
C1789 H1760 0.950 . S
C1789 C1788 1.397 . S
C1789 C1790 1.334 . S
C1790 H1761 0.950 . S
C1790 C1789 1.334 . S
C1790 C1791 1.287 . S
C1791 C1790 1.287 . S
C1791 C1792 1.524 . S
C1791 H1794 0.999 . S
C1792 H1762 0.950 . S
C1792 C1791 1.524 . S
C1792 C1793 1.415 . S
C1793 H1763 0.950 . S
C1793 C1788 1.363 . S
C1793 C1792 1.415 . S
H1794 C1791 0.999 . S
H1795 C1776 0.913 . S
H1796 C1814 0.951 . S
H1797 C1816 0.951 . S
H1798 C1818 0.950 . S
H1799 C1819 0.950 . S
H1800 C1821 0.950 . S
H1801 C1824 0.950 . S
H1802 C1825 0.950 . S
H1803 C1827 0.950 . S
H1804 C1828 0.950 . S
H1805 C1829 0.951 . S
H1806 C1831 0.951 . S
H1807 C1833 0.950 . S
H1808 C1834 0.950 . S
H1809 C1836 0.950 . S
H1810 C1839 0.950 . S
H1811 C1840 0.950 . S
H1812 C1842 0.950 . S
H1813 C1843 0.950 . S
C1814 H1796 0.951 . S
C1814 C1815 1.366 . S
C1814 C1816 1.388 . S
C1815 C1814 1.366 . S
C1815 C1819 1.385 . S
C1816 H1797 0.951 . S
C1816 C1814 1.388 . S
C1816 C1817 1.366 . S
C1817 C1816 1.366 . S
C1817 C1818 1.414 . S
C1817 C1820 1.499 . S
C1818 H1798 0.950 . S
C1818 C1817 1.414 . S
C1818 C1819 1.374 . S
C1819 H1799 0.950 . S
C1819 C1815 1.385 . S
C1819 C1818 1.374 . S
C1820 C1817 1.499 . S
C1820 C1821 1.373 . S
C1820 C1822 1.389 . S
C1821 H1800 0.950 . S
C1821 C1820 1.373 . S
C1821 C1837 1.377 . S
C1822 C1820 1.389 . S
C1822 C1823 1.524 . S
C1822 C1836 1.377 . S
C1823 C1822 1.524 . S
C1823 C1824 1.397 . S
C1823 C1828 1.363 . S
C1824 H1801 0.950 . S
C1824 C1823 1.397 . S
C1824 C1825 1.334 . S
C1825 H1802 0.950 . S
C1825 C1824 1.334 . S
C1825 C1826 1.287 . S
C1826 C1825 1.287 . S
C1826 C1827 1.524 . S
C1826 H1845 0.913 . S
C1827 H1803 0.950 . S
C1827 C1826 1.524 . S
C1827 C1828 1.415 . S
C1828 H1804 0.950 . S
C1828 C1823 1.363 . S
C1828 C1827 1.415 . S
C1829 H1805 0.951 . S
C1829 C1830 1.366 . S
C1829 C1831 1.388 . S
C1830 C1829 1.366 . S
C1830 C1834 1.385 . S
C1831 H1806 0.951 . S
C1831 C1829 1.388 . S
C1831 C1832 1.366 . S
C1832 C1831 1.366 . S
C1832 C1833 1.414 . S
C1832 C1835 1.499 . S
C1833 H1807 0.950 . S
C1833 C1832 1.414 . S
C1833 C1834 1.374 . S
C1834 H1808 0.950 . S
C1834 C1830 1.385 . S
C1834 C1833 1.374 . S
C1835 C1832 1.499 . S
C1835 C1836 1.373 . S
C1835 C1837 1.389 . S
C1836 H1809 0.950 . S
C1836 C1822 1.377 . S
C1836 C1835 1.373 . S
C1837 C1821 1.377 . S
C1837 C1835 1.389 . S
C1837 C1838 1.524 . S
C1838 C1837 1.524 . S
C1838 C1839 1.397 . S
C1838 C1843 1.363 . S
C1839 H1810 0.950 . S
C1839 C1838 1.397 . S
C1839 C1840 1.334 . S
C1840 H1811 0.950 . S
C1840 C1839 1.334 . S
C1840 C1841 1.287 . S
C1841 C1840 1.287 . S
C1841 C1842 1.524 . S
C1841 H1844 0.999 . S
C1842 H1812 0.950 . S
C1842 C1841 1.524 . S
C1842 C1843 1.415 . S
C1843 H1813 0.950 . S
C1843 C1838 1.363 . S
C1843 C1842 1.415 . S
H1844 C1841 0.999 . S
H1845 C1826 0.913 . S
H1846 C1864 0.951 . S
H1847 C1866 0.951 . S
H1848 C1868 0.950 . S
H1849 C1869 0.950 . S
H1850 C1871 0.950 . S
H1851 C1874 0.950 . S
H1852 C1875 0.951 1_455 S
H1853 C1877 0.952 1_455 S
H1854 C1878 0.950 . S
H1855 C1879 0.951 1_545 S
H1856 C1881 0.913 1_545 S
H1857 C1883 0.950 . S
H1858 C1884 0.950 . S
H1859 C1886 0.950 . S
H1860 C1889 0.950 . S
H1861 C1890 0.950 . S
H1862 C1892 0.950 . S
H1863 C1893 0.950 . S
C1864 H1846 0.951 . S
C1864 C1865 1.366 . S
C1864 C1866 1.388 . S
C1865 C1864 1.366 . S
C1865 C1869 1.385 . S
C1866 H1847 0.951 . S
C1866 C1864 1.388 . S
C1866 C1867 1.366 . S
C1867 C1866 1.366 . S
C1867 C1868 1.414 . S
C1867 C1870 1.499 . S
C1868 H1848 0.950 . S
C1868 C1867 1.414 . S
C1868 C1869 1.374 . S
C1869 H1849 0.950 . S
C1869 C1865 1.385 . S
C1869 C1868 1.374 . S
C1870 C1867 1.499 . S
C1870 C1871 1.373 . S
C1870 C1872 1.389 . S
C1871 H1850 0.950 . S
C1871 C1870 1.373 . S
C1871 C1887 1.377 . S
C1872 C1870 1.389 . S
C1872 C1873 1.524 . S
C1872 C1886 1.377 . S
C1873 C1872 1.524 . S
C1873 C1874 1.397 1_565 S
C1873 C1878 1.363 . S
C1874 H1851 0.950 . S
C1874 C1873 1.397 1_545 S
C1874 C1875 1.334 . S
C1875 H1852 0.951 1_655 S
C1875 C1874 1.334 . S
C1875 C1876 1.287 1_655 S
C1876 C1875 1.287 1_455 S
C1876 C1877 1.525 1_445 S
C1876 H1895 0.913 . S
C1877 H1853 0.952 1_655 S
C1877 C1876 1.525 1_665 S
C1877 C1878 1.411 . S
C1878 H1854 0.950 . S
C1878 C1873 1.363 . S
C1878 C1877 1.411 . S
C1879 H1855 0.951 1_565 S
C1879 C1880 1.366 . S
C1879 C1881 1.388 . S
C1880 C1879 1.366 . S
C1880 C1884 1.385 . S
C1881 H1856 0.913 1_565 S
C1881 C1879 1.388 . S
C1881 C1882 1.366 . S
C1882 C1881 1.366 . S
C1882 C1883 1.414 . S
C1882 C1885 1.499 . S
C1883 H1857 0.950 . S
C1883 C1882 1.414 . S
C1883 C1884 1.374 . S
C1884 H1858 0.950 . S
C1884 C1880 1.385 . S
C1884 C1883 1.374 . S
C1885 C1882 1.499 . S
C1885 C1886 1.373 . S
C1885 C1887 1.389 . S
C1886 H1859 0.950 . S
C1886 C1872 1.377 . S
C1886 C1885 1.373 . S
C1887 C1871 1.377 . S
C1887 C1885 1.389 . S
C1887 C1888 1.524 . S
C1888 C1887 1.524 . S
C1888 C1889 1.397 . S
C1888 C1893 1.363 . S
C1889 H1860 0.950 . S
C1889 C1888 1.397 . S
C1889 C1890 1.334 . S
C1890 H1861 0.950 . S
C1890 C1889 1.334 . S
C1890 C1891 1.287 . S
C1891 C1890 1.287 . S
C1891 C1892 1.524 . S
C1891 H1894 0.999 . S
C1892 H1862 0.950 . S
C1892 C1891 1.524 . S
C1892 C1893 1.415 . S
C1893 H1863 0.950 . S
C1893 C1888 1.363 . S
C1893 C1892 1.415 . S
H1894 C1891 0.999 . S
H1895 C1876 0.913 . S
H1896 C1914 0.951 . S
H1897 C1916 0.951 . S
H1898 C1918 0.950 . S
H1899 C1919 0.950 . S
H1900 C1921 0.950 . S
H1901 C1924 0.950 . S
H1902 C1925 0.950 . S
H1903 C1927 0.950 . S
H1904 C1928 0.950 . S
H1905 C1929 0.951 . S
H1906 C1931 0.951 . S
H1907 C1933 0.950 . S
H1908 C1934 0.950 . S
H1909 C1936 0.950 . S
H1910 C1939 0.950 . S
H1911 C1940 0.950 . S
H1912 C1942 0.950 . S
H1913 C1943 0.950 . S
C1914 H1896 0.951 . S
C1914 C1915 1.366 . S
C1914 C1916 1.388 . S
C1915 C1914 1.366 . S
C1915 C1919 1.385 . S
C1916 H1897 0.951 . S
C1916 C1914 1.388 . S
C1916 C1917 1.366 . S
C1917 C1916 1.366 . S
C1917 C1918 1.414 . S
C1917 C1920 1.499 . S
C1918 H1898 0.950 . S
C1918 C1917 1.414 . S
C1918 C1919 1.374 . S
C1919 H1899 0.950 . S
C1919 C1915 1.385 . S
C1919 C1918 1.374 . S
C1920 C1917 1.499 . S
C1920 C1921 1.373 . S
C1920 C1922 1.389 . S
C1921 H1900 0.950 . S
C1921 C1920 1.373 . S
C1921 C1937 1.377 . S
C1922 C1920 1.389 . S
C1922 C1923 1.524 . S
C1922 C1936 1.377 . S
C1923 C1922 1.524 . S
C1923 C1924 1.397 . S
C1923 C1928 1.363 . S
C1924 H1901 0.950 . S
C1924 C1923 1.397 . S
C1924 C1925 1.334 . S
C1925 H1902 0.950 . S
C1925 C1924 1.334 . S
C1925 C1926 1.287 . S
C1926 C1925 1.287 . S
C1926 C1927 1.524 . S
C1926 H1945 0.913 . S
C1927 H1903 0.950 . S
C1927 C1926 1.524 . S
C1927 C1928 1.415 . S
C1928 H1904 0.950 . S
C1928 C1923 1.363 . S
C1928 C1927 1.415 . S
C1929 H1905 0.951 . S
C1929 C1930 1.366 . S
C1929 C1931 1.388 . S
C1930 C1929 1.366 . S
C1930 C1934 1.385 . S
C1931 H1906 0.951 . S
C1931 C1929 1.388 . S
C1931 C1932 1.366 . S
C1932 C1931 1.366 . S
C1932 C1933 1.414 . S
C1932 C1935 1.499 . S
C1933 H1907 0.950 . S
C1933 C1932 1.414 . S
C1933 C1934 1.374 . S
C1934 H1908 0.950 . S
C1934 C1930 1.385 . S
C1934 C1933 1.374 . S
C1935 C1932 1.499 . S
C1935 C1936 1.373 . S
C1935 C1937 1.389 . S
C1936 H1909 0.950 . S
C1936 C1922 1.377 . S
C1936 C1935 1.373 . S
C1937 C1921 1.377 . S
C1937 C1935 1.389 . S
C1937 C1938 1.524 . S
C1938 C1937 1.524 . S
C1938 C1939 1.397 . S
C1938 C1943 1.363 . S
C1939 H1910 0.950 . S
C1939 C1938 1.397 . S
C1939 C1940 1.334 . S
C1940 H1911 0.950 . S
C1940 C1939 1.334 . S
C1940 C1941 1.287 . S
C1941 C1940 1.287 . S
C1941 C1942 1.524 . S
C1941 H1944 0.999 . S
C1942 H1912 0.950 . S
C1942 C1941 1.524 . S
C1942 C1943 1.415 . S
C1943 H1913 0.950 . S
C1943 C1938 1.363 . S
C1943 C1942 1.415 . S
H1944 C1941 0.999 . S
H1945 C1926 0.913 . S
H1946 C1964 0.951 . S
H1947 C1966 0.951 . S
H1948 C1968 0.950 . S
H1949 C1969 0.950 . S
H1950 C1971 0.950 . S
H1951 C1974 0.950 . S
H1952 C1975 0.950 . S
H1953 C1977 0.950 . S
H1954 C1978 0.950 . S
H1955 C1979 0.951 . S
H1956 C1981 0.951 . S
H1957 C1983 0.950 . S
H1958 C1984 0.950 . S
H1959 C1986 0.950 . S
H1960 C1989 0.950 . S
H1961 C1990 0.950 . S
H1962 C1992 0.950 . S
H1963 C1993 0.950 . S
C1964 H1946 0.951 . S
C1964 C1965 1.366 . S
C1964 C1966 1.388 . S
C1965 C1964 1.366 . S
C1965 C1969 1.385 . S
C1966 H1947 0.951 . S
C1966 C1964 1.388 . S
C1966 C1967 1.366 . S
C1967 C1966 1.366 . S
C1967 C1968 1.414 . S
C1967 C1970 1.499 . S
C1968 H1948 0.950 . S
C1968 C1967 1.414 . S
C1968 C1969 1.374 . S
C1969 H1949 0.950 . S
C1969 C1965 1.385 . S
C1969 C1968 1.374 . S
C1970 C1967 1.499 . S
C1970 C1971 1.373 . S
C1970 C1972 1.389 . S
C1971 H1950 0.950 . S
C1971 C1970 1.373 . S
C1971 C1987 1.377 . S
C1972 C1970 1.389 . S
C1972 C1973 1.524 . S
C1972 C1986 1.377 . S
C1973 C1972 1.524 . S
C1973 C1974 1.397 . S
C1973 C1978 1.363 . S
C1974 H1951 0.950 . S
C1974 C1973 1.397 . S
C1974 C1975 1.334 . S
C1975 H1952 0.950 . S
C1975 C1974 1.334 . S
C1975 C1976 1.287 . S
C1976 C1975 1.287 . S
C1976 C1977 1.524 . S
C1976 H1995 0.913 . S
C1977 H1953 0.950 . S
C1977 C1976 1.524 . S
C1977 C1978 1.415 . S
C1978 H1954 0.950 . S
C1978 C1973 1.363 . S
C1978 C1977 1.415 . S
C1979 H1955 0.951 . S
C1979 C1980 1.366 . S
C1979 C1981 1.388 . S
C1980 C1979 1.366 . S
C1980 C1984 1.385 . S
C1981 H1956 0.951 . S
C1981 C1979 1.388 . S
C1981 C1982 1.366 . S
C1982 C1981 1.366 . S
C1982 C1983 1.414 . S
C1982 C1985 1.499 . S
C1983 H1957 0.950 . S
C1983 C1982 1.414 . S
C1983 C1984 1.374 . S
C1984 H1958 0.950 . S
C1984 C1980 1.385 . S
C1984 C1983 1.374 . S
C1985 C1982 1.499 . S
C1985 C1986 1.373 . S
C1985 C1987 1.389 . S
C1986 H1959 0.950 . S
C1986 C1972 1.377 . S
C1986 C1985 1.373 . S
C1987 C1971 1.377 . S
C1987 C1985 1.389 . S
C1987 C1988 1.524 . S
C1988 C1987 1.524 . S
C1988 C1989 1.397 . S
C1988 C1993 1.363 . S
C1989 H1960 0.950 . S
C1989 C1988 1.397 . S
C1989 C1990 1.334 . S
C1990 H1961 0.950 . S
C1990 C1989 1.334 . S
C1990 C1991 1.287 . S
C1991 C1990 1.287 . S
C1991 C1992 1.524 . S
C1991 H1994 0.999 . S
C1992 H1962 0.950 . S
C1992 C1991 1.524 . S
C1992 C1993 1.415 . S
C1993 H1963 0.950 . S
C1993 C1988 1.363 . S
C1993 C1992 1.415 . S
H1994 C1991 0.999 . S
H1995 C1976 0.913 . S
H1996 C2014 0.951 . S
H1997 C2016 0.951 . S
H1998 C2018 0.950 . S
H1999 C2019 0.950 . S
H2000 C2021 0.950 . S
H2001 C2024 0.950 . S
H2002 C2025 0.950 . S
H2003 C2027 0.950 . S
H2004 C2028 0.950 . S
H2005 C2029 0.951 . S
H2006 C2031 0.951 . S
H2007 C2033 0.950 . S
H2008 C2034 0.950 . S
H2009 C2036 0.950 . S
H2010 C2039 0.950 . S
H2011 C2040 0.950 . S
H2012 C2042 0.950 . S
H2013 C2043 0.950 . S
C2014 H1996 0.951 . S
C2014 C2015 1.366 . S
C2014 C2016 1.388 . S
C2015 C2014 1.366 . S
C2015 C2019 1.385 . S
C2016 H1997 0.951 . S
C2016 C2014 1.388 . S
C2016 C2017 1.366 . S
C2017 C2016 1.366 . S
C2017 C2018 1.414 . S
C2017 C2020 1.499 . S
C2018 H1998 0.950 . S
C2018 C2017 1.414 . S
C2018 C2019 1.374 . S
C2019 H1999 0.950 . S
C2019 C2015 1.385 . S
C2019 C2018 1.374 . S
C2020 C2017 1.499 . S
C2020 C2021 1.373 . S
C2020 C2022 1.389 . S
C2021 H2000 0.950 . S
C2021 C2020 1.373 . S
C2021 C2037 1.377 . S
C2022 C2020 1.389 . S
C2022 C2023 1.524 . S
C2022 C2036 1.377 . S
C2023 C2022 1.524 . S
C2023 C2024 1.397 . S
C2023 C2028 1.363 . S
C2024 H2001 0.950 . S
C2024 C2023 1.397 . S
C2024 C2025 1.334 . S
C2025 H2002 0.950 . S
C2025 C2024 1.334 . S
C2025 C2026 1.287 . S
C2026 C2025 1.287 . S
C2026 C2027 1.524 . S
C2026 H2045 0.913 . S
C2027 H2003 0.950 . S
C2027 C2026 1.524 . S
C2027 C2028 1.415 . S
C2028 H2004 0.950 . S
C2028 C2023 1.363 . S
C2028 C2027 1.415 . S
C2029 H2005 0.951 . S
C2029 C2030 1.366 . S
C2029 C2031 1.388 . S
C2030 C2029 1.366 . S
C2030 C2034 1.385 . S
C2031 H2006 0.951 . S
C2031 C2029 1.388 . S
C2031 C2032 1.366 . S
C2032 C2031 1.366 . S
C2032 C2033 1.414 . S
C2032 C2035 1.499 . S
C2033 H2007 0.950 . S
C2033 C2032 1.414 . S
C2033 C2034 1.374 . S
C2034 H2008 0.950 . S
C2034 C2030 1.385 . S
C2034 C2033 1.374 . S
C2035 C2032 1.499 . S
C2035 C2036 1.373 . S
C2035 C2037 1.389 . S
C2036 H2009 0.950 . S
C2036 C2022 1.377 . S
C2036 C2035 1.373 . S
C2037 C2021 1.377 . S
C2037 C2035 1.389 . S
C2037 C2038 1.524 . S
C2038 C2037 1.524 . S
C2038 C2039 1.397 . S
C2038 C2043 1.363 . S
C2039 H2010 0.950 . S
C2039 C2038 1.397 . S
C2039 C2040 1.334 . S
C2040 H2011 0.950 . S
C2040 C2039 1.334 . S
C2040 C2041 1.287 . S
C2041 C2040 1.287 . S
C2041 C2042 1.524 . S
C2041 H2044 0.999 . S
C2042 H2012 0.950 . S
C2042 C2041 1.524 . S
C2042 C2043 1.415 . S
C2043 H2013 0.950 . S
C2043 C2038 1.363 . S
C2043 C2042 1.415 . S
H2044 C2041 0.999 . S
H2045 C2026 0.913 . S
H2046 C2064 0.951 . S
H2047 C2066 0.951 . S
H2048 C2068 0.950 . S
H2049 C2069 0.950 . S
H2050 C2071 0.950 . S
H2051 C2074 0.950 . S
H2052 C2075 0.950 . S
H2053 C2077 0.950 . S
H2054 C2078 0.950 . S
H2055 C2079 0.951 . S
H2056 C2081 0.951 . S
H2057 C2083 0.950 . S
H2058 C2084 0.950 . S
H2059 C2086 0.950 . S
H2060 C2089 0.950 . S
H2061 C2090 0.950 . S
H2062 C2092 0.950 . S
H2063 C2093 0.950 . S
C2064 H2046 0.951 . S
C2064 C2065 1.366 . S
C2064 C2066 1.388 . S
C2065 C2064 1.366 . S
C2065 C2069 1.385 . S
C2066 H2047 0.951 . S
C2066 C2064 1.388 . S
C2066 C2067 1.366 . S
C2067 C2066 1.366 . S
C2067 C2068 1.414 . S
C2067 C2070 1.499 . S
C2068 H2048 0.950 . S
C2068 C2067 1.414 . S
C2068 C2069 1.374 . S
C2069 H2049 0.950 . S
C2069 C2065 1.385 . S
C2069 C2068 1.374 . S
C2070 C2067 1.499 . S
C2070 C2071 1.373 . S
C2070 C2072 1.389 . S
C2071 H2050 0.950 . S
C2071 C2070 1.373 . S
C2071 C2087 1.377 . S
C2072 C2070 1.389 . S
C2072 C2073 1.551 . S
C2072 C2086 1.377 . S
C2073 C2072 1.551 . S
C2073 C2074 1.362 1_565 S
C2073 C2078 1.371 . S
C2074 H2051 0.950 . S
C2074 C2073 1.362 1_545 S
C2074 C2075 1.334 . S
C2075 H2052 0.950 . S
C2075 C2074 1.334 . S
C2075 C2076 1.287 . S
C2076 C2075 1.287 . S
C2076 C2077 1.524 . S
C2076 H2095 0.913 . S
C2077 H2053 0.950 . S
C2077 C2076 1.524 . S
C2077 C2078 1.415 1_545 S
C2078 H2054 0.950 . S
C2078 C2073 1.371 . S
C2078 C2077 1.415 1_565 S
C2079 H2055 0.951 . S
C2079 C2080 1.366 . S
C2079 C2081 1.388 . S
C2080 C2079 1.366 . S
C2080 C2084 1.385 . S
C2081 H2056 0.951 . S
C2081 C2079 1.388 . S
C2081 C2082 1.366 . S
C2082 C2081 1.366 . S
C2082 C2083 1.414 . S
C2082 C2085 1.499 . S
C2083 H2057 0.950 . S
C2083 C2082 1.414 . S
C2083 C2084 1.374 . S
C2084 H2058 0.950 . S
C2084 C2080 1.385 . S
C2084 C2083 1.374 . S
C2085 C2082 1.499 . S
C2085 C2086 1.373 . S
C2085 C2087 1.389 . S
C2086 H2059 0.950 . S
C2086 C2072 1.377 . S
C2086 C2085 1.373 . S
C2087 C2071 1.377 . S
C2087 C2085 1.389 . S
C2087 C2088 1.524 . S
C2088 C2087 1.524 . S
C2088 C2089 1.397 . S
C2088 C2093 1.363 . S
C2089 H2060 0.950 . S
C2089 C2088 1.397 . S
C2089 C2090 1.334 . S
C2090 H2061 0.950 . S
C2090 C2089 1.334 . S
C2090 C2091 1.287 . S
C2091 C2090 1.287 . S
C2091 C2092 1.524 . S
C2091 H2094 0.999 . S
C2092 H2062 0.950 . S
C2092 C2091 1.524 . S
C2092 C2093 1.415 . S
C2093 H2063 0.950 . S
C2093 C2088 1.363 . S
C2093 C2092 1.415 . S
H2094 C2091 0.999 . S
H2095 C2076 0.913 . S
H2096 C2114 0.951 . S
H2097 C2116 0.951 . S
H2098 C2118 0.950 . S
H2099 C2119 0.950 . S
H2100 C2121 0.950 . S
H2101 C2124 0.950 . S
H2102 C2125 0.950 . S
H2103 C2127 0.950 . S
H2104 C2128 0.950 . S
H2105 C2129 0.951 . S
H2106 C2131 0.951 . S
H2107 C2133 0.950 . S
H2108 C2134 0.950 . S
H2109 C2136 0.950 . S
H2110 C2139 0.950 . S
H2111 C2140 0.950 . S
H2112 C2142 0.950 . S
H2113 C2143 0.950 . S
C2114 H2096 0.951 . S
C2114 C2115 1.366 . S
C2114 C2116 1.388 . S
C2115 C2114 1.366 . S
C2115 C2119 1.385 . S
C2116 H2097 0.951 . S
C2116 C2114 1.388 . S
C2116 C2117 1.366 . S
C2117 C2116 1.366 . S
C2117 C2118 1.414 . S
C2117 C2120 1.499 . S
C2118 H2098 0.950 . S
C2118 C2117 1.414 . S
C2118 C2119 1.374 . S
C2119 H2099 0.950 . S
C2119 C2115 1.385 . S
C2119 C2118 1.374 . S
C2120 C2117 1.499 . S
C2120 C2121 1.373 . S
C2120 C2122 1.389 . S
C2121 H2100 0.950 . S
C2121 C2120 1.373 . S
C2121 C2137 1.377 . S
C2122 C2120 1.389 . S
C2122 C2123 1.524 . S
C2122 C2136 1.377 . S
C2123 C2122 1.524 . S
C2123 C2124 1.397 . S
C2123 C2128 1.363 . S
C2124 H2101 0.950 . S
C2124 C2123 1.397 . S
C2124 C2125 1.334 . S
C2125 H2102 0.950 . S
C2125 C2124 1.334 . S
C2125 C2126 1.287 . S
C2126 C2125 1.287 . S
C2126 C2127 1.524 . S
C2126 H2145 0.913 . S
C2127 H2103 0.950 . S
C2127 C2126 1.524 . S
C2127 C2128 1.415 . S
C2128 H2104 0.950 . S
C2128 C2123 1.363 . S
C2128 C2127 1.415 . S
C2129 H2105 0.951 . S
C2129 C2130 1.366 . S
C2129 C2131 1.388 . S
C2130 C2129 1.366 . S
C2130 C2134 1.385 . S
C2131 H2106 0.951 . S
C2131 C2129 1.388 . S
C2131 C2132 1.366 . S
C2132 C2131 1.366 . S
C2132 C2133 1.414 . S
C2132 C2135 1.499 . S
C2133 H2107 0.950 . S
C2133 C2132 1.414 . S
C2133 C2134 1.374 . S
C2134 H2108 0.950 . S
C2134 C2130 1.385 . S
C2134 C2133 1.374 . S
C2135 C2132 1.499 . S
C2135 C2136 1.373 . S
C2135 C2137 1.389 . S
C2136 H2109 0.950 . S
C2136 C2122 1.377 . S
C2136 C2135 1.373 . S
C2137 C2121 1.377 . S
C2137 C2135 1.389 . S
C2137 C2138 1.524 . S
C2138 C2137 1.524 . S
C2138 C2139 1.397 . S
C2138 C2143 1.363 . S
C2139 H2110 0.950 . S
C2139 C2138 1.397 . S
C2139 C2140 1.334 . S
C2140 H2111 0.950 . S
C2140 C2139 1.334 . S
C2140 C2141 1.287 . S
C2141 C2140 1.287 . S
C2141 C2142 1.524 . S
C2141 H2144 0.999 . S
C2142 H2112 0.950 . S
C2142 C2141 1.524 . S
C2142 C2143 1.415 . S
C2143 H2113 0.950 . S
C2143 C2138 1.363 . S
C2143 C2142 1.415 . S
H2144 C2141 0.999 . S
H2145 C2126 0.913 . S
H2146 C2164 0.951 . S
H2147 C2166 0.951 . S
H2148 C2168 0.950 . S
H2149 C2169 0.950 . S
H2150 C2171 0.950 . S
H2151 C2174 0.950 . S
H2152 C2175 0.950 . S
H2153 C2177 0.950 . S
H2154 C2178 0.950 . S
H2155 C2179 0.951 . S
H2156 C2181 0.951 . S
H2157 C2183 0.950 . S
H2158 C2184 0.950 . S
H2159 C2186 0.950 . S
H2160 C2189 0.950 . S
H2161 C2190 0.950 . S
H2162 C2192 0.950 . S
H2163 C2193 0.950 . S
C2164 H2146 0.951 . S
C2164 C2165 1.366 . S
C2164 C2166 1.388 . S
C2165 C2164 1.366 . S
C2165 C2169 1.385 . S
C2166 H2147 0.951 . S
C2166 C2164 1.388 . S
C2166 C2167 1.366 . S
C2167 C2166 1.366 . S
C2167 C2168 1.414 . S
C2167 C2170 1.499 . S
C2168 H2148 0.950 . S
C2168 C2167 1.414 . S
C2168 C2169 1.374 . S
C2169 H2149 0.950 . S
C2169 C2165 1.385 . S
C2169 C2168 1.374 . S
C2170 C2167 1.499 . S
C2170 C2171 1.373 . S
C2170 C2172 1.389 . S
C2171 H2150 0.950 . S
C2171 C2170 1.373 . S
C2171 C2187 1.377 . S
C2172 C2170 1.389 . S
C2172 C2173 1.524 . S
C2172 C2186 1.377 . S
C2173 C2172 1.524 . S
C2173 C2174 1.397 . S
C2173 C2178 1.363 . S
C2174 H2151 0.950 . S
C2174 C2173 1.397 . S
C2174 C2175 1.334 . S
C2175 H2152 0.950 . S
C2175 C2174 1.334 . S
C2175 C2176 1.287 . S
C2176 C2175 1.287 . S
C2176 C2177 1.524 . S
C2176 H2195 0.913 . S
C2177 H2153 0.950 . S
C2177 C2176 1.524 . S
C2177 C2178 1.415 . S
C2178 H2154 0.950 . S
C2178 C2173 1.363 . S
C2178 C2177 1.415 . S
C2179 H2155 0.951 . S
C2179 C2180 1.366 . S
C2179 C2181 1.388 . S
C2180 C2179 1.366 . S
C2180 C2184 1.385 . S
C2181 H2156 0.951 . S
C2181 C2179 1.388 . S
C2181 C2182 1.366 . S
C2182 C2181 1.366 . S
C2182 C2183 1.414 . S
C2182 C2185 1.499 . S
C2183 H2157 0.950 . S
C2183 C2182 1.414 . S
C2183 C2184 1.374 . S
C2184 H2158 0.950 . S
C2184 C2180 1.385 . S
C2184 C2183 1.374 . S
C2185 C2182 1.499 . S
C2185 C2186 1.373 . S
C2185 C2187 1.389 . S
C2186 H2159 0.950 . S
C2186 C2172 1.377 . S
C2186 C2185 1.373 . S
C2187 C2171 1.377 . S
C2187 C2185 1.389 . S
C2187 C2188 1.524 . S
C2188 C2187 1.524 . S
C2188 C2189 1.397 . S
C2188 C2193 1.363 . S
C2189 H2160 0.950 . S
C2189 C2188 1.397 . S
C2189 C2190 1.334 . S
C2190 H2161 0.950 . S
C2190 C2189 1.334 . S
C2190 C2191 1.287 . S
C2191 C2190 1.287 . S
C2191 C2192 1.524 . S
C2191 H2194 0.999 . S
C2192 H2162 0.950 . S
C2192 C2191 1.524 . S
C2192 C2193 1.415 . S
C2193 H2163 0.950 . S
C2193 C2188 1.363 . S
C2193 C2192 1.415 . S
H2194 C2191 0.999 . S
H2195 C2176 0.913 . S
H2196 C2214 0.951 . S
H2197 C2216 0.951 . S
H2198 C2218 0.950 . S
H2199 C2219 0.950 . S
H2200 C2221 0.950 . S
H2201 C2224 0.950 . S
H2202 C2225 0.950 . S
H2203 C2227 0.950 . S
H2204 C2228 0.950 . S
H2205 C2229 0.951 . S
H2206 C2231 0.951 . S
H2207 C2233 0.950 . S
H2208 C2234 0.950 . S
H2209 C2236 0.950 . S
H2210 C2239 0.950 . S
H2211 C2240 0.950 . S
H2212 C2242 0.950 . S
H2213 C2243 0.950 . S
C2214 H2196 0.951 . S
C2214 C2215 1.366 . S
C2214 C2216 1.388 . S
C2215 C2214 1.366 . S
C2215 C2219 1.385 . S
C2216 H2197 0.951 . S
C2216 C2214 1.388 . S
C2216 C2217 1.366 . S
C2217 C2216 1.366 . S
C2217 C2218 1.414 . S
C2217 C2220 1.499 . S
C2218 H2198 0.950 . S
C2218 C2217 1.414 . S
C2218 C2219 1.374 . S
C2219 H2199 0.950 . S
C2219 C2215 1.385 . S
C2219 C2218 1.374 . S
C2220 C2217 1.499 . S
C2220 C2221 1.373 . S
C2220 C2222 1.389 . S
C2221 H2200 0.950 . S
C2221 C2220 1.373 . S
C2221 C2237 1.377 . S
C2222 C2220 1.389 . S
C2222 C2223 1.524 . S
C2222 C2236 1.377 . S
C2223 C2222 1.524 . S
C2223 C2224 1.397 . S
C2223 C2228 1.363 . S
C2224 H2201 0.950 . S
C2224 C2223 1.397 . S
C2224 C2225 1.334 . S
C2225 H2202 0.950 . S
C2225 C2224 1.334 . S
C2225 C2226 1.287 . S
C2226 C2225 1.287 . S
C2226 C2227 1.524 . S
C2226 H2245 0.913 . S
C2227 H2203 0.950 . S
C2227 C2226 1.524 . S
C2227 C2228 1.415 . S
C2228 H2204 0.950 . S
C2228 C2223 1.363 . S
C2228 C2227 1.415 . S
C2229 H2205 0.951 . S
C2229 C2230 1.366 . S
C2229 C2231 1.388 . S
C2230 C2229 1.366 . S
C2230 C2234 1.385 . S
C2231 H2206 0.951 . S
C2231 C2229 1.388 . S
C2231 C2232 1.366 . S
C2232 C2231 1.366 . S
C2232 C2233 1.414 . S
C2232 C2235 1.499 . S
C2233 H2207 0.950 . S
C2233 C2232 1.414 . S
C2233 C2234 1.374 . S
C2234 H2208 0.950 . S
C2234 C2230 1.385 . S
C2234 C2233 1.374 . S
C2235 C2232 1.499 . S
C2235 C2236 1.373 . S
C2235 C2237 1.389 . S
C2236 H2209 0.950 . S
C2236 C2222 1.377 . S
C2236 C2235 1.373 . S
C2237 C2221 1.377 . S
C2237 C2235 1.389 . S
C2237 C2238 1.524 . S
C2238 C2237 1.524 . S
C2238 C2239 1.397 . S
C2238 C2243 1.363 . S
C2239 H2210 0.950 . S
C2239 C2238 1.397 . S
C2239 C2240 1.334 . S
C2240 H2211 0.950 . S
C2240 C2239 1.334 . S
C2240 C2241 1.287 . S
C2241 C2240 1.287 . S
C2241 C2242 1.524 . S
C2241 H2244 0.999 . S
C2242 H2212 0.950 . S
C2242 C2241 1.524 . S
C2242 C2243 1.415 . S
C2243 H2213 0.950 . S
C2243 C2238 1.363 . S
C2243 C2242 1.415 . S
H2244 C2241 0.999 . S
H2245 C2226 0.913 . S
H2246 C2264 0.951 . S
H2247 C2266 0.951 . S
H2248 C2268 0.950 . S
H2249 C2269 0.950 . S
H2250 C2271 0.950 . S
H2251 C2274 0.950 . S
H2252 C2275 0.950 . S
H2253 C2277 0.950 . S
H2254 C2278 0.950 . S
H2255 C2279 0.951 . S
H2256 C2281 0.951 . S
H2257 C2283 0.950 . S
H2258 C2284 0.950 . S
H2259 C2286 0.950 . S
H2260 C2289 0.950 . S
H2261 C2290 0.950 . S
H2262 C2292 0.950 . S
H2263 C2293 0.950 . S
C2264 H2246 0.951 . S
C2264 C2265 1.366 . S
C2264 C2266 1.388 . S
C2265 C2264 1.366 . S
C2265 C2269 1.385 . S
C2266 H2247 0.951 . S
C2266 C2264 1.388 . S
C2266 C2267 1.366 . S
C2267 C2266 1.366 . S
C2267 C2268 1.414 . S
C2267 C2270 1.499 . S
C2268 H2248 0.950 . S
C2268 C2267 1.414 . S
C2268 C2269 1.374 . S
C2269 H2249 0.950 . S
C2269 C2265 1.385 . S
C2269 C2268 1.374 . S
C2270 C2267 1.499 . S
C2270 C2271 1.373 . S
C2270 C2272 1.389 . S
C2271 H2250 0.950 . S
C2271 C2270 1.373 . S
C2271 C2287 1.377 . S
C2272 C2270 1.389 . S
C2272 C2273 1.524 . S
C2272 C2286 1.377 . S
C2273 C2272 1.524 . S
C2273 C2274 1.397 . S
C2273 C2278 1.363 . S
C2274 H2251 0.950 . S
C2274 C2273 1.397 . S
C2274 C2275 1.334 . S
C2275 H2252 0.950 . S
C2275 C2274 1.334 . S
C2275 C2276 1.287 . S
C2276 C2275 1.287 . S
C2276 C2277 1.524 . S
C2276 H2295 0.913 . S
C2277 H2253 0.950 . S
C2277 C2276 1.524 . S
C2277 C2278 1.415 . S
C2278 H2254 0.950 . S
C2278 C2273 1.363 . S
C2278 C2277 1.415 . S
C2279 H2255 0.951 . S
C2279 C2280 1.366 . S
C2279 C2281 1.388 . S
C2280 C2279 1.366 . S
C2280 C2284 1.385 . S
C2281 H2256 0.951 . S
C2281 C2279 1.388 . S
C2281 C2282 1.366 . S
C2282 C2281 1.366 . S
C2282 C2283 1.414 . S
C2282 C2285 1.499 . S
C2283 H2257 0.950 . S
C2283 C2282 1.414 . S
C2283 C2284 1.374 . S
C2284 H2258 0.950 . S
C2284 C2280 1.385 . S
C2284 C2283 1.374 . S
C2285 C2282 1.499 . S
C2285 C2286 1.373 . S
C2285 C2287 1.389 . S
C2286 H2259 0.950 . S
C2286 C2272 1.377 . S
C2286 C2285 1.373 . S
C2287 C2271 1.377 . S
C2287 C2285 1.389 . S
C2287 C2288 1.524 . S
C2288 C2287 1.524 . S
C2288 C2289 1.397 . S
C2288 C2293 1.363 . S
C2289 H2260 0.950 . S
C2289 C2288 1.397 . S
C2289 C2290 1.334 . S
C2290 H2261 0.950 . S
C2290 C2289 1.334 . S
C2290 C2291 1.287 . S
C2291 C2290 1.287 . S
C2291 C2292 1.524 . S
C2291 H2294 0.999 . S
C2292 H2262 0.950 . S
C2292 C2291 1.524 . S
C2292 C2293 1.415 . S
C2293 H2263 0.950 . S
C2293 C2288 1.363 . S
C2293 C2292 1.415 . S
H2294 C2291 0.999 . S
H2295 C2276 0.913 . S
H2296 C2314 0.951 . S
H2297 C2316 0.951 . S
H2298 C2318 0.950 . S
H2299 C2319 0.950 . S
H2300 C2321 0.950 . S
H2301 C2324 0.950 . S
H2302 C2325 0.950 . S
H2303 C2327 0.950 . S
H2304 C2328 0.950 . S
H2305 C2329 0.951 . S
H2306 C2331 0.951 . S
H2307 C2333 0.950 . S
H2308 C2334 0.950 . S
H2309 C2336 0.950 . S
H2310 C2339 0.950 . S
H2311 C2340 0.950 . S
H2312 C2342 0.950 . S
H2313 C2343 0.950 . S
C2314 H2296 0.951 . S
C2314 C2315 1.366 . S
C2314 C2316 1.388 . S
C2315 C2314 1.366 . S
C2315 C2319 1.385 . S
C2316 H2297 0.951 . S
C2316 C2314 1.388 . S
C2316 C2317 1.366 . S
C2317 C2316 1.366 . S
C2317 C2318 1.414 . S
C2317 C2320 1.499 . S
C2318 H2298 0.950 . S
C2318 C2317 1.414 . S
C2318 C2319 1.374 . S
C2319 H2299 0.950 . S
C2319 C2315 1.385 . S
C2319 C2318 1.374 . S
C2320 C2317 1.499 . S
C2320 C2321 1.373 . S
C2320 C2322 1.389 . S
C2321 H2300 0.950 . S
C2321 C2320 1.373 . S
C2321 C2337 1.377 . S
C2322 C2320 1.389 . S
C2322 C2323 1.524 . S
C2322 C2336 1.377 . S
C2323 C2322 1.524 . S
C2323 C2324 1.397 . S
C2323 C2328 1.363 . S
C2324 H2301 0.950 . S
C2324 C2323 1.397 . S
C2324 C2325 1.334 . S
C2325 H2302 0.950 . S
C2325 C2324 1.334 . S
C2325 C2326 1.287 . S
C2326 C2325 1.287 . S
C2326 C2327 1.524 . S
C2326 H2345 0.913 . S
C2327 H2303 0.950 . S
C2327 C2326 1.524 . S
C2327 C2328 1.415 . S
C2328 H2304 0.950 . S
C2328 C2323 1.363 . S
C2328 C2327 1.415 . S
C2329 H2305 0.951 . S
C2329 C2330 1.366 . S
C2329 C2331 1.388 . S
C2330 C2329 1.366 . S
C2330 C2334 1.385 . S
C2331 H2306 0.951 . S
C2331 C2329 1.388 . S
C2331 C2332 1.366 . S
C2332 C2331 1.366 . S
C2332 C2333 1.414 . S
C2332 C2335 1.499 . S
C2333 H2307 0.950 . S
C2333 C2332 1.414 . S
C2333 C2334 1.374 . S
C2334 H2308 0.950 . S
C2334 C2330 1.385 . S
C2334 C2333 1.374 . S
C2335 C2332 1.499 . S
C2335 C2336 1.373 . S
C2335 C2337 1.389 . S
C2336 H2309 0.950 . S
C2336 C2322 1.377 . S
C2336 C2335 1.373 . S
C2337 C2321 1.377 . S
C2337 C2335 1.389 . S
C2337 C2338 1.524 . S
C2338 C2337 1.524 . S
C2338 C2339 1.397 . S
C2338 C2343 1.363 . S
C2339 H2310 0.950 . S
C2339 C2338 1.397 . S
C2339 C2340 1.334 . S
C2340 H2311 0.950 . S
C2340 C2339 1.334 . S
C2340 C2341 1.287 . S
C2341 C2340 1.287 . S
C2341 C2342 1.524 . S
C2341 H2344 0.999 . S
C2342 H2312 0.950 . S
C2342 C2341 1.524 . S
C2342 C2343 1.415 . S
C2343 H2313 0.950 . S
C2343 C2338 1.363 . S
C2343 C2342 1.415 . S
H2344 C2341 0.999 . S
H2345 C2326 0.913 . S
H2346 C2364 0.951 . S
H2347 C2366 0.951 . S
H2348 C2368 0.950 . S
H2349 C2369 0.950 . S
H2350 C2371 0.952 1_655 S
H2351 C2374 0.950 . S
H2352 C2375 0.950 . S
H2353 C2377 0.950 . S
H2354 C2378 0.950 . S
H2355 C2379 0.951 1_655 S
H2356 C2381 0.951 1_655 S
H2357 C2383 0.950 . S
H2358 C2384 0.950 . S
H2359 C2386 0.950 . S
H2360 C2389 0.950 1_455 S
H2361 C2390 0.950 . S
H2362 C2392 0.950 . S
H2363 C2393 0.950 . S
C2364 H2346 0.951 . S
C2364 C2365 1.366 . S
C2364 C2366 1.388 . S
C2365 C2364 1.366 . S
C2365 C2369 1.385 . S
C2366 H2347 0.951 . S
C2366 C2364 1.388 . S
C2366 C2367 1.366 . S
C2367 C2366 1.366 . S
C2367 C2368 1.414 . S
C2367 C2370 1.499 . S
C2368 H2348 0.950 . S
C2368 C2367 1.414 . S
C2368 C2369 1.374 . S
C2369 H2349 0.950 . S
C2369 C2365 1.385 . S
C2369 C2368 1.374 . S
C2370 C2367 1.499 . S
C2370 C2371 1.373 . S
C2370 C2372 1.389 . S
C2371 H2350 0.952 1_455 S
C2371 C2370 1.373 . S
C2371 C2387 1.377 . S
C2372 C2370 1.389 . S
C2372 C2373 1.524 . S
C2372 C2386 1.377 . S
C2373 C2372 1.524 . S
C2373 C2374 1.397 . S
C2373 C2378 1.363 . S
C2374 H2351 0.950 . S
C2374 C2373 1.397 . S
C2374 C2375 1.334 . S
C2375 H2352 0.950 . S
C2375 C2374 1.334 . S
C2375 C2376 1.287 . S
C2376 C2375 1.287 . S
C2376 C2377 1.524 . S
C2376 H2395 0.913 . S
C2377 H2353 0.950 . S
C2377 C2376 1.524 . S
C2377 C2378 1.415 . S
C2378 H2354 0.950 . S
C2378 C2373 1.363 . S
C2378 C2377 1.415 . S
C2379 H2355 0.951 1_455 S
C2379 C2380 1.366 . S
C2379 C2381 1.388 . S
C2380 C2379 1.366 . S
C2380 C2384 1.385 . S
C2381 H2356 0.951 1_455 S
C2381 C2379 1.388 . S
C2381 C2382 1.366 . S
C2382 C2381 1.366 . S
C2382 C2383 1.414 . S
C2382 C2385 1.499 . S
C2383 H2357 0.950 . S
C2383 C2382 1.414 . S
C2383 C2384 1.374 . S
C2384 H2358 0.950 . S
C2384 C2380 1.385 . S
C2384 C2383 1.374 . S
C2385 C2382 1.499 . S
C2385 C2386 1.373 . S
C2385 C2387 1.389 . S
C2386 H2359 0.950 . S
C2386 C2372 1.377 . S
C2386 C2385 1.373 . S
C2387 C2371 1.377 . S
C2387 C2385 1.389 . S
C2387 C2388 1.524 1_455 S
C2388 C2387 1.524 1_655 S
C2388 C2389 1.397 . S
C2388 C2393 1.363 . S
C2389 H2360 0.950 1_655 S
C2389 C2388 1.397 . S
C2389 C2390 1.334 . S
C2390 H2361 0.950 . S
C2390 C2389 1.334 . S
C2390 C2391 1.287 . S
C2391 C2390 1.287 . S
C2391 C2392 1.524 . S
C2391 H2394 0.999 . S
C2392 H2362 0.950 . S
C2392 C2391 1.524 . S
C2392 C2393 1.415 . S
C2393 H2363 0.950 . S
C2393 C2388 1.363 . S
C2393 C2392 1.415 . S
H2394 C2391 0.999 . S
H2395 C2376 0.913 . S
H2396 C2414 0.951 . S
H2397 C2416 0.951 . S
H2398 C2418 0.950 . S
H2399 C2419 0.950 . S
H2400 C2421 0.950 . S
H2401 C2424 0.950 . S
H2402 C2425 0.950 . S
H2403 C2427 0.950 . S
H2404 C2428 0.950 . S
H2405 C2429 0.951 . S
H2406 C2431 0.951 . S
H2407 C2433 0.950 . S
H2408 C2434 0.950 . S
H2409 C2436 0.950 . S
H2410 C2439 0.950 . S
H2411 C2440 0.950 . S
H2412 C2442 0.950 . S
H2413 C2443 0.950 . S
C2414 H2396 0.951 . S
C2414 C2415 1.366 . S
C2414 C2416 1.388 . S
C2415 C2414 1.366 . S
C2415 C2419 1.385 . S
C2416 H2397 0.951 . S
C2416 C2414 1.388 . S
C2416 C2417 1.366 . S
C2417 C2416 1.366 . S
C2417 C2418 1.414 . S
C2417 C2420 1.499 . S
C2418 H2398 0.950 . S
C2418 C2417 1.414 . S
C2418 C2419 1.374 . S
C2419 H2399 0.950 . S
C2419 C2415 1.385 . S
C2419 C2418 1.374 . S
C2420 C2417 1.499 . S
C2420 C2421 1.373 . S
C2420 C2422 1.389 . S
C2421 H2400 0.950 . S
C2421 C2420 1.373 . S
C2421 C2437 1.377 . S
C2422 C2420 1.389 . S
C2422 C2423 1.524 . S
C2422 C2436 1.377 . S
C2423 C2422 1.524 . S
C2423 C2424 1.397 . S
C2423 C2428 1.363 . S
C2424 H2401 0.950 . S
C2424 C2423 1.397 . S
C2424 C2425 1.334 . S
C2425 H2402 0.950 . S
C2425 C2424 1.334 . S
C2425 C2426 1.287 . S
C2426 C2425 1.287 . S
C2426 C2427 1.524 . S
C2426 H2445 0.913 . S
C2427 H2403 0.950 . S
C2427 C2426 1.524 . S
C2427 C2428 1.415 . S
C2428 H2404 0.950 . S
C2428 C2423 1.363 . S
C2428 C2427 1.415 . S
C2429 H2405 0.951 . S
C2429 C2430 1.366 . S
C2429 C2431 1.388 . S
C2430 C2429 1.366 . S
C2430 C2434 1.385 . S
C2431 H2406 0.951 . S
C2431 C2429 1.388 . S
C2431 C2432 1.366 . S
C2432 C2431 1.366 . S
C2432 C2433 1.414 . S
C2432 C2435 1.499 . S
C2433 H2407 0.950 . S
C2433 C2432 1.414 . S
C2433 C2434 1.374 . S
C2434 H2408 0.950 . S
C2434 C2430 1.385 . S
C2434 C2433 1.374 . S
C2435 C2432 1.499 . S
C2435 C2436 1.373 . S
C2435 C2437 1.389 . S
C2436 H2409 0.950 . S
C2436 C2422 1.377 . S
C2436 C2435 1.373 . S
C2437 C2421 1.377 . S
C2437 C2435 1.389 . S
C2437 C2438 1.524 . S
C2438 C2437 1.524 . S
C2438 C2439 1.397 . S
C2438 C2443 1.363 . S
C2439 H2410 0.950 . S
C2439 C2438 1.397 . S
C2439 C2440 1.334 . S
C2440 H2411 0.950 . S
C2440 C2439 1.334 . S
C2440 C2441 1.287 . S
C2441 C2440 1.287 . S
C2441 C2442 1.524 . S
C2441 H2444 0.999 . S
C2442 H2412 0.950 . S
C2442 C2441 1.524 . S
C2442 C2443 1.415 . S
C2443 H2413 0.950 . S
C2443 C2438 1.363 . S
C2443 C2442 1.415 . S
H2444 C2441 0.999 . S
H2445 C2426 0.913 . S
H2446 C2464 0.951 . S
H2447 C2466 0.951 . S
H2448 C2468 0.950 . S
H2449 C2469 0.950 . S
H2450 C2471 0.950 . S
H2451 C2474 0.950 . S
H2452 C2475 0.950 . S
H2453 C2477 0.950 . S
H2454 C2478 0.950 . S
H2455 C2479 0.951 1_455 S
H2456 C2481 0.951 1_455 S
H2457 C2483 0.950 . S
H2458 C2484 0.950 . S
H2459 C2486 0.950 . S
H2460 C2489 0.950 . S
H2461 C2490 0.950 . S
H2462 C2492 0.950 . S
H2463 C2493 0.950 . S
C2464 H2446 0.951 . S
C2464 C2465 1.366 . S
C2464 C2466 1.388 . S
C2465 C2464 1.366 . S
C2465 C2469 1.385 . S
C2466 H2447 0.951 . S
C2466 C2464 1.388 . S
C2466 C2467 1.366 . S
C2467 C2466 1.366 . S
C2467 C2468 1.414 . S
C2467 C2470 1.499 . S
C2468 H2448 0.950 . S
C2468 C2467 1.414 . S
C2468 C2469 1.374 . S
C2469 H2449 0.950 . S
C2469 C2465 1.385 . S
C2469 C2468 1.374 . S
C2470 C2467 1.499 . S
C2470 C2471 1.373 . S
C2470 C2472 1.389 . S
C2471 H2450 0.950 . S
C2471 C2470 1.373 . S
C2471 C2487 1.377 . S
C2472 C2470 1.389 . S
C2472 C2473 1.524 . S
C2472 C2486 1.377 . S
C2473 C2472 1.524 . S
C2473 C2474 1.397 1_655 S
C2473 C2478 1.363 . S
C2474 H2451 0.950 . S
C2474 C2473 1.397 1_455 S
C2474 C2475 1.334 . S
C2475 H2452 0.950 . S
C2475 C2474 1.334 . S
C2475 C2476 1.287 . S
C2476 C2475 1.287 . S
C2476 C2477 1.524 1_455 S
C2476 H2495 0.913 . S
C2477 H2453 0.950 . S
C2477 C2476 1.524 1_655 S
C2477 C2478 1.415 . S
C2478 H2454 0.950 . S
C2478 C2473 1.363 . S
C2478 C2477 1.415 . S
C2479 H2455 0.951 1_655 S
C2479 C2480 1.366 . S
C2479 C2481 1.388 . S
C2480 C2479 1.366 . S
C2480 C2484 1.385 . S
C2481 H2456 0.951 1_655 S
C2481 C2479 1.388 . S
C2481 C2482 1.366 . S
C2482 C2481 1.366 . S
C2482 C2483 1.414 . S
C2482 C2485 1.499 . S
C2483 H2457 0.950 . S
C2483 C2482 1.414 . S
C2483 C2484 1.374 . S
C2484 H2458 0.950 . S
C2484 C2480 1.385 . S
C2484 C2483 1.374 . S
C2485 C2482 1.499 . S
C2485 C2486 1.373 . S
C2485 C2487 1.389 . S
C2486 H2459 0.950 . S
C2486 C2472 1.377 . S
C2486 C2485 1.373 . S
C2487 C2471 1.377 . S
C2487 C2485 1.389 . S
C2487 C2488 1.524 . S
C2488 C2487 1.524 . S
C2488 C2489 1.397 . S
C2488 C2493 1.363 . S
C2489 H2460 0.950 . S
C2489 C2488 1.397 . S
C2489 C2490 1.334 . S
C2490 H2461 0.950 . S
C2490 C2489 1.334 . S
C2490 C2491 1.287 . S
C2491 C2490 1.287 . S
C2491 C2492 1.524 . S
C2491 H2494 0.999 . S
C2492 H2462 0.950 . S
C2492 C2491 1.524 . S
C2492 C2493 1.415 . S
C2493 H2463 0.950 . S
C2493 C2488 1.363 . S
C2493 C2492 1.415 . S
H2494 C2491 0.999 . S
H2495 C2476 0.913 . S
H2496 C2514 0.951 . S
H2497 C2516 0.951 . S
H2498 C2518 0.950 . S
H2499 C2519 0.950 . S
H2500 C2521 0.950 . S
H2501 C2524 0.950 . S
H2502 C2525 0.950 . S
H2503 C2527 0.950 . S
H2504 C2528 0.950 . S
H2505 C2529 0.951 . S
H2506 C2531 0.951 . S
H2507 C2533 0.950 . S
H2508 C2534 0.950 . S
H2509 C2536 0.950 . S
H2510 C2539 0.950 . S
H2511 C2540 0.950 . S
H2512 C2542 0.950 . S
H2513 C2543 0.950 . S
C2514 H2496 0.951 . S
C2514 C2515 1.366 . S
C2514 C2516 1.388 . S
C2515 C2514 1.366 . S
C2515 C2519 1.385 . S
C2516 H2497 0.951 . S
C2516 C2514 1.388 . S
C2516 C2517 1.366 . S
C2517 C2516 1.366 . S
C2517 C2518 1.414 . S
C2517 C2520 1.499 . S
C2518 H2498 0.950 . S
C2518 C2517 1.414 . S
C2518 C2519 1.374 . S
C2519 H2499 0.950 . S
C2519 C2515 1.385 . S
C2519 C2518 1.374 . S
C2520 C2517 1.499 . S
C2520 C2521 1.373 . S
C2520 C2522 1.389 . S
C2521 H2500 0.950 . S
C2521 C2520 1.373 . S
C2521 C2537 1.377 . S
C2522 C2520 1.389 . S
C2522 C2523 1.524 . S
C2522 C2536 1.377 . S
C2523 C2522 1.524 . S
C2523 C2524 1.397 . S
C2523 C2528 1.363 . S
C2524 H2501 0.950 . S
C2524 C2523 1.397 . S
C2524 C2525 1.334 . S
C2525 H2502 0.950 . S
C2525 C2524 1.334 . S
C2525 C2526 1.287 . S
C2526 C2525 1.287 . S
C2526 C2527 1.524 . S
C2526 H2545 0.913 . S
C2527 H2503 0.950 . S
C2527 C2526 1.524 . S
C2527 C2528 1.415 . S
C2528 H2504 0.950 . S
C2528 C2523 1.363 . S
C2528 C2527 1.415 . S
C2529 H2505 0.951 . S
C2529 C2530 1.366 . S
C2529 C2531 1.388 . S
C2530 C2529 1.366 . S
C2530 C2534 1.385 . S
C2531 H2506 0.951 . S
C2531 C2529 1.388 . S
C2531 C2532 1.366 . S
C2532 C2531 1.366 . S
C2532 C2533 1.414 . S
C2532 C2535 1.499 . S
C2533 H2507 0.950 . S
C2533 C2532 1.414 . S
C2533 C2534 1.374 . S
C2534 H2508 0.950 . S
C2534 C2530 1.385 . S
C2534 C2533 1.374 . S
C2535 C2532 1.499 . S
C2535 C2536 1.373 . S
C2535 C2537 1.389 . S
C2536 H2509 0.950 . S
C2536 C2522 1.377 . S
C2536 C2535 1.373 . S
C2537 C2521 1.377 . S
C2537 C2535 1.389 . S
C2537 C2538 1.524 . S
C2538 C2537 1.524 . S
C2538 C2539 1.397 . S
C2538 C2543 1.363 . S
C2539 H2510 0.950 . S
C2539 C2538 1.397 . S
C2539 C2540 1.334 . S
C2540 H2511 0.950 . S
C2540 C2539 1.334 . S
C2540 C2541 1.287 . S
C2541 C2540 1.287 . S
C2541 C2542 1.524 . S
C2541 H2544 0.999 . S
C2542 H2512 0.950 . S
C2542 C2541 1.524 . S
C2542 C2543 1.415 . S
C2543 H2513 0.950 . S
C2543 C2538 1.363 . S
C2543 C2542 1.415 . S
H2544 C2541 0.999 . S
H2545 C2526 0.913 . S
H2546 C2564 0.951 . S
H2547 C2566 0.951 . S
H2548 C2568 0.950 . S
H2549 C2569 0.950 . S
H2550 C2571 0.950 . S
H2551 C2574 0.950 . S
H2552 C2575 0.950 . S
H2553 C2577 0.950 . S
H2554 C2578 0.950 . S
H2555 C2579 0.951 . S
H2556 C2581 0.951 . S
H2557 C2583 0.950 . S
H2558 C2584 0.950 . S
H2559 C2586 0.950 . S
H2560 C2589 0.950 . S
H2561 C2590 0.950 . S
H2562 C2592 0.950 . S
H2563 C2593 0.950 . S
C2564 H2546 0.951 . S
C2564 C2565 1.366 . S
C2564 C2566 1.388 . S
C2565 C2564 1.366 . S
C2565 C2569 1.385 . S
C2566 H2547 0.951 . S
C2566 C2564 1.388 . S
C2566 C2567 1.366 . S
C2567 C2566 1.366 . S
C2567 C2568 1.414 . S
C2567 C2570 1.499 . S
C2568 H2548 0.950 . S
C2568 C2567 1.414 . S
C2568 C2569 1.374 . S
C2569 H2549 0.950 . S
C2569 C2565 1.385 . S
C2569 C2568 1.374 . S
C2570 C2567 1.499 . S
C2570 C2571 1.373 . S
C2570 C2572 1.389 . S
C2571 H2550 0.950 . S
C2571 C2570 1.373 . S
C2571 C2587 1.377 . S
C2572 C2570 1.389 . S
C2572 C2573 1.524 . S
C2572 C2586 1.377 . S
C2573 C2572 1.524 . S
C2573 C2574 1.397 . S
C2573 C2578 1.363 . S
C2574 H2551 0.950 . S
C2574 C2573 1.397 . S
C2574 C2575 1.334 . S
C2575 H2552 0.950 . S
C2575 C2574 1.334 . S
C2575 C2576 1.287 . S
C2576 C2575 1.287 . S
C2576 C2577 1.524 . S
C2576 H2595 0.913 . S
C2577 H2553 0.950 . S
C2577 C2576 1.524 . S
C2577 C2578 1.415 . S
C2578 H2554 0.950 . S
C2578 C2573 1.363 . S
C2578 C2577 1.415 . S
C2579 H2555 0.951 . S
C2579 C2580 1.366 . S
C2579 C2581 1.388 . S
C2580 C2579 1.366 . S
C2580 C2584 1.385 . S
C2581 H2556 0.951 . S
C2581 C2579 1.388 . S
C2581 C2582 1.366 . S
C2582 C2581 1.366 . S
C2582 C2583 1.414 . S
C2582 C2585 1.499 . S
C2583 H2557 0.950 . S
C2583 C2582 1.414 . S
C2583 C2584 1.374 . S
C2584 H2558 0.950 . S
C2584 C2580 1.385 . S
C2584 C2583 1.374 . S
C2585 C2582 1.499 . S
C2585 C2586 1.373 . S
C2585 C2587 1.389 . S
C2586 H2559 0.950 . S
C2586 C2572 1.377 . S
C2586 C2585 1.373 . S
C2587 C2571 1.377 . S
C2587 C2585 1.389 . S
C2587 C2588 1.524 . S
C2588 C2587 1.524 . S
C2588 C2589 1.397 . S
C2588 C2593 1.363 . S
C2589 H2560 0.950 . S
C2589 C2588 1.397 . S
C2589 C2590 1.334 . S
C2590 H2561 0.950 . S
C2590 C2589 1.334 . S
C2590 C2591 1.287 . S
C2591 C2590 1.287 . S
C2591 C2592 1.524 . S
C2591 H2594 0.999 . S
C2592 H2562 0.950 . S
C2592 C2591 1.524 . S
C2592 C2593 1.415 . S
C2593 H2563 0.950 . S
C2593 C2588 1.363 . S
C2593 C2592 1.415 . S
H2594 C2591 0.999 . S
H2595 C2576 0.913 . S
H2596 C2614 0.951 . S
H2597 C2616 0.951 . S
H2598 C2618 0.907 1_554 S
H2599 C2619 0.950 . S
H2600 C2621 0.950 . S
H2601 C2624 1.006 . S
H2602 C2625 0.945 1_545 S
H2603 C2627 0.912 1_545 S
H2604 C2628 0.950 . S
H2605 C2629 0.951 . S
H2606 C2631 0.951 . S
H2607 C2633 0.950 . S
H2608 C2634 0.950 . S
H2609 C2636 0.950 . S
H2610 C2639 0.950 . S
H2611 C2640 0.950 . S
H2612 C2642 0.985 . S
H2613 C2643 0.950 1_554 S
C2614 H2596 0.951 . S
C2614 C2615 1.366 . S
C2614 C2616 1.388 . S
C2615 C2614 1.366 . S
C2615 C2619 1.385 . S
C2616 H2597 0.951 . S
C2616 C2614 1.388 . S
C2616 C2617 1.366 . S
C2617 C2616 1.366 . S
C2617 C2618 1.414 . S
C2617 C2620 1.499 . S
C2618 H2598 0.907 1_556 S
C2618 C2617 1.414 . S
C2618 C2619 1.374 . S
C2619 H2599 0.950 . S
C2619 C2615 1.385 . S
C2619 C2618 1.374 . S
C2620 C2617 1.499 . S
C2620 C2621 1.373 . S
C2620 C2622 1.389 . S
C2621 H2600 0.950 . S
C2621 C2620 1.373 . S
C2621 C2637 1.377 . S
C2622 C2620 1.389 . S
C2622 C2623 1.524 . S
C2622 C2636 1.377 . S
C2623 C2622 1.524 . S
C2623 C2624 1.332 1_556 S
C2623 C2628 1.363 . S
C2624 H2601 1.006 . S
C2624 C2623 1.332 1_554 S
C2624 C2625 1.351 . S
C2625 H2602 0.945 1_565 S
C2625 C2624 1.351 . S
C2625 C2626 1.287 1_564 S
C2626 C2625 1.287 1_546 S
C2626 C2627 1.524 1_545 S
C2626 H2645 0.913 . S
C2627 H2603 0.912 1_565 S
C2627 C2626 1.524 1_565 S
C2627 C2628 1.415 . S
C2628 H2604 0.950 . S
C2628 C2623 1.363 . S
C2628 C2627 1.415 . S
C2629 H2605 0.951 . S
C2629 C2630 1.366 1_554 S
C2629 C2631 1.388 . S
C2630 C2629 1.366 1_556 S
C2630 C2634 1.385 . S
C2631 H2606 0.951 . S
C2631 C2629 1.388 . S
C2631 C2632 1.366 1_554 S
C2632 C2631 1.366 1_556 S
C2632 C2633 1.414 . S
C2632 C2635 1.499 . S
C2633 H2607 0.950 . S
C2633 C2632 1.414 . S
C2633 C2634 1.374 . S
C2634 H2608 0.950 . S
C2634 C2630 1.385 . S
C2634 C2633 1.374 . S
C2635 C2632 1.499 . S
C2635 C2636 1.373 . S
C2635 C2637 1.389 . S
C2636 H2609 0.950 . S
C2636 C2622 1.377 . S
C2636 C2635 1.373 . S
C2637 C2621 1.377 . S
C2637 C2635 1.389 . S
C2637 C2638 1.524 . S
C2638 C2637 1.524 . S
C2638 C2639 1.397 . S
C2638 C2643 1.363 . S
C2639 H2610 0.950 . S
C2639 C2638 1.397 . S
C2639 C2640 1.334 . S
C2640 H2611 0.950 . S
C2640 C2639 1.334 . S
C2640 C2641 1.287 . S
C2641 C2640 1.287 . S
C2641 C2642 1.524 . S
C2641 H2644 0.999 . S
C2642 H2612 0.985 . S
C2642 C2641 1.524 . S
C2642 C2643 1.415 . S
C2643 H2613 0.950 1_556 S
C2643 C2638 1.363 . S
C2643 C2642 1.415 . S
H2644 C2641 0.999 . S
H2645 C2626 0.913 . S
H2646 C2664 0.951 . S
H2647 C2666 0.951 . S
H2648 C2668 0.950 . S
H2649 C2669 0.950 . S
H2650 C2671 0.950 . S
H2651 C2674 0.950 . S
H2652 C2675 0.950 . S
H2653 C2677 0.950 . S
H2654 C2678 0.950 . S
H2655 C2679 0.951 . S
H2656 C2681 0.951 . S
H2657 C2683 0.950 . S
H2658 C2684 0.950 . S
H2659 C2686 0.950 . S
H2660 C2689 0.950 . S
H2661 C2690 0.950 . S
H2662 C2692 0.950 . S
H2663 C2693 0.950 . S
C2664 H2646 0.951 . S
C2664 C2665 1.366 . S
C2664 C2666 1.388 . S
C2665 C2664 1.366 . S
C2665 C2669 1.385 . S
C2666 H2647 0.951 . S
C2666 C2664 1.388 . S
C2666 C2667 1.366 . S
C2667 C2666 1.366 . S
C2667 C2668 1.414 . S
C2667 C2670 1.499 . S
C2668 H2648 0.950 . S
C2668 C2667 1.414 . S
C2668 C2669 1.374 . S
C2669 H2649 0.950 . S
C2669 C2665 1.385 . S
C2669 C2668 1.374 . S
C2670 C2667 1.499 . S
C2670 C2671 1.373 . S
C2670 C2672 1.389 . S
C2671 H2650 0.950 . S
C2671 C2670 1.373 . S
C2671 C2687 1.377 . S
C2672 C2670 1.389 . S
C2672 C2673 1.524 . S
C2672 C2686 1.377 . S
C2673 C2672 1.524 . S
C2673 C2674 1.397 . S
C2673 C2678 1.363 . S
C2674 H2651 0.950 . S
C2674 C2673 1.397 . S
C2674 C2675 1.334 . S
C2675 H2652 0.950 . S
C2675 C2674 1.334 . S
C2675 C2676 1.287 . S
C2676 C2675 1.287 . S
C2676 C2677 1.524 . S
C2676 H2695 0.913 . S
C2677 H2653 0.950 . S
C2677 C2676 1.524 . S
C2677 C2678 1.415 . S
C2678 H2654 0.950 . S
C2678 C2673 1.363 . S
C2678 C2677 1.415 . S
C2679 H2655 0.951 . S
C2679 C2680 1.366 . S
C2679 C2681 1.388 . S
C2680 C2679 1.366 . S
C2680 C2684 1.385 . S
C2681 H2656 0.951 . S
C2681 C2679 1.388 . S
C2681 C2682 1.366 . S
C2682 C2681 1.366 . S
C2682 C2683 1.414 . S
C2682 C2685 1.499 . S
C2683 H2657 0.950 . S
C2683 C2682 1.414 . S
C2683 C2684 1.374 . S
C2684 H2658 0.950 . S
C2684 C2680 1.385 . S
C2684 C2683 1.374 . S
C2685 C2682 1.499 . S
C2685 C2686 1.373 . S
C2685 C2687 1.389 . S
C2686 H2659 0.950 . S
C2686 C2672 1.377 . S
C2686 C2685 1.373 . S
C2687 C2671 1.377 . S
C2687 C2685 1.389 . S
C2687 C2688 1.524 . S
C2688 C2687 1.524 . S
C2688 C2689 1.397 . S
C2688 C2693 1.363 . S
C2689 H2660 0.950 . S
C2689 C2688 1.397 . S
C2689 C2690 1.334 . S
C2690 H2661 0.950 . S
C2690 C2689 1.334 . S
C2690 C2691 1.287 . S
C2691 C2690 1.287 . S
C2691 C2692 1.524 . S
C2691 H2694 0.999 . S
C2692 H2662 0.950 . S
C2692 C2691 1.524 . S
C2692 C2693 1.415 . S
C2693 H2663 0.950 . S
C2693 C2688 1.363 . S
C2693 C2692 1.415 . S
H2694 C2691 0.999 . S
H2695 C2676 0.913 . S
H2696 C2714 0.951 . S
H2697 C2716 0.951 . S
H2698 C2718 0.950 . S
H2699 C2719 0.950 . S
H2700 C2721 0.950 . S
H2701 C2724 0.950 . S
H2702 C2725 0.950 . S
H2703 C2727 0.950 . S
H2704 C2728 0.950 . S
H2705 C2729 0.951 . S
H2706 C2731 0.951 . S
H2707 C2733 0.950 . S
H2708 C2734 0.950 . S
H2709 C2736 0.950 . S
H2710 C2739 0.950 . S
H2711 C2740 0.950 . S
H2712 C2742 0.950 . S
H2713 C2743 0.950 . S
C2714 H2696 0.951 . S
C2714 C2715 1.366 . S
C2714 C2716 1.388 . S
C2715 C2714 1.366 . S
C2715 C2719 1.385 . S
C2716 H2697 0.951 . S
C2716 C2714 1.388 . S
C2716 C2717 1.366 . S
C2717 C2716 1.366 . S
C2717 C2718 1.414 . S
C2717 C2720 1.499 . S
C2718 H2698 0.950 . S
C2718 C2717 1.414 . S
C2718 C2719 1.374 . S
C2719 H2699 0.950 . S
C2719 C2715 1.385 . S
C2719 C2718 1.374 . S
C2720 C2717 1.499 . S
C2720 C2721 1.373 . S
C2720 C2722 1.389 . S
C2721 H2700 0.950 . S
C2721 C2720 1.373 . S
C2721 C2737 1.377 . S
C2722 C2720 1.389 . S
C2722 C2723 1.524 . S
C2722 C2736 1.377 . S
C2723 C2722 1.524 . S
C2723 C2724 1.397 . S
C2723 C2728 1.363 . S
C2724 H2701 0.950 . S
C2724 C2723 1.397 . S
C2724 C2725 1.334 . S
C2725 H2702 0.950 . S
C2725 C2724 1.334 . S
C2725 C2726 1.287 . S
C2726 C2725 1.287 . S
C2726 C2727 1.524 . S
C2726 H2745 0.913 . S
C2727 H2703 0.950 . S
C2727 C2726 1.524 . S
C2727 C2728 1.415 . S
C2728 H2704 0.950 . S
C2728 C2723 1.363 . S
C2728 C2727 1.415 . S
C2729 H2705 0.951 . S
C2729 C2730 1.366 . S
C2729 C2731 1.388 . S
C2730 C2729 1.366 . S
C2730 C2734 1.385 . S
C2731 H2706 0.951 . S
C2731 C2729 1.388 . S
C2731 C2732 1.366 . S
C2732 C2731 1.366 . S
C2732 C2733 1.414 . S
C2732 C2735 1.499 . S
C2733 H2707 0.950 . S
C2733 C2732 1.414 . S
C2733 C2734 1.374 . S
C2734 H2708 0.950 . S
C2734 C2730 1.385 . S
C2734 C2733 1.374 . S
C2735 C2732 1.499 . S
C2735 C2736 1.373 . S
C2735 C2737 1.389 . S
C2736 H2709 0.950 . S
C2736 C2722 1.377 . S
C2736 C2735 1.373 . S
C2737 C2721 1.377 . S
C2737 C2735 1.389 . S
C2737 C2738 1.524 . S
C2738 C2737 1.524 . S
C2738 C2739 1.397 . S
C2738 C2743 1.363 . S
C2739 H2710 0.950 . S
C2739 C2738 1.397 . S
C2739 C2740 1.334 . S
C2740 H2711 0.950 . S
C2740 C2739 1.334 . S
C2740 C2741 1.287 . S
C2741 C2740 1.287 . S
C2741 C2742 1.524 . S
C2741 H2744 0.999 . S
C2742 H2712 0.950 . S
C2742 C2741 1.524 . S
C2742 C2743 1.415 . S
C2743 H2713 0.950 . S
C2743 C2738 1.363 . S
C2743 C2742 1.415 . S
H2744 C2741 0.999 . S
H2745 C2726 0.913 . S
H2746 C2764 0.951 . S
H2747 C2766 0.951 . S
H2748 C2768 0.950 . S
H2749 C2769 0.950 . S
H2750 C2771 0.950 . S
H2751 C2774 0.950 . S
H2752 C2775 0.950 . S
H2753 C2777 0.950 . S
H2754 C2778 0.950 . S
H2755 C2779 0.951 . S
H2756 C2781 0.951 . S
H2757 C2783 0.950 . S
H2758 C2784 0.950 . S
H2759 C2786 0.950 . S
H2760 C2789 0.950 . S
H2761 C2790 0.950 . S
H2762 C2792 0.950 . S
H2763 C2793 0.950 . S
C2764 H2746 0.951 . S
C2764 C2765 1.366 . S
C2764 C2766 1.388 . S
C2765 C2764 1.366 . S
C2765 C2769 1.385 . S
C2766 H2747 0.951 . S
C2766 C2764 1.388 . S
C2766 C2767 1.366 . S
C2767 C2766 1.366 . S
C2767 C2768 1.414 . S
C2767 C2770 1.499 . S
C2768 H2748 0.950 . S
C2768 C2767 1.414 . S
C2768 C2769 1.374 . S
C2769 H2749 0.950 . S
C2769 C2765 1.385 . S
C2769 C2768 1.374 . S
C2770 C2767 1.499 . S
C2770 C2771 1.373 . S
C2770 C2772 1.389 . S
C2771 H2750 0.950 . S
C2771 C2770 1.373 . S
C2771 C2787 1.377 . S
C2772 C2770 1.389 . S
C2772 C2773 1.524 . S
C2772 C2786 1.377 . S
C2773 C2772 1.524 . S
C2773 C2774 1.397 . S
C2773 C2778 1.363 . S
C2774 H2751 0.950 . S
C2774 C2773 1.397 . S
C2774 C2775 1.334 . S
C2775 H2752 0.950 . S
C2775 C2774 1.334 . S
C2775 C2776 1.287 . S
C2776 C2775 1.287 . S
C2776 C2777 1.524 . S
C2776 H2795 0.913 . S
C2777 H2753 0.950 . S
C2777 C2776 1.524 . S
C2777 C2778 1.415 . S
C2778 H2754 0.950 . S
C2778 C2773 1.363 . S
C2778 C2777 1.415 . S
C2779 H2755 0.951 . S
C2779 C2780 1.366 . S
C2779 C2781 1.388 . S
C2780 C2779 1.366 . S
C2780 C2784 1.385 . S
C2781 H2756 0.951 . S
C2781 C2779 1.388 . S
C2781 C2782 1.366 . S
C2782 C2781 1.366 . S
C2782 C2783 1.414 . S
C2782 C2785 1.499 . S
C2783 H2757 0.950 . S
C2783 C2782 1.414 . S
C2783 C2784 1.374 . S
C2784 H2758 0.950 . S
C2784 C2780 1.385 . S
C2784 C2783 1.374 . S
C2785 C2782 1.499 . S
C2785 C2786 1.373 . S
C2785 C2787 1.389 . S
C2786 H2759 0.950 . S
C2786 C2772 1.377 . S
C2786 C2785 1.373 . S
C2787 C2771 1.377 . S
C2787 C2785 1.389 . S
C2787 C2788 1.524 . S
C2788 C2787 1.524 . S
C2788 C2789 1.397 . S
C2788 C2793 1.363 . S
C2789 H2760 0.950 . S
C2789 C2788 1.397 . S
C2789 C2790 1.334 . S
C2790 H2761 0.950 . S
C2790 C2789 1.334 . S
C2790 C2791 1.287 . S
C2791 C2790 1.287 . S
C2791 C2792 1.524 . S
C2791 H2794 0.999 . S
C2792 H2762 0.950 . S
C2792 C2791 1.524 . S
C2792 C2793 1.415 . S
C2793 H2763 0.950 . S
C2793 C2788 1.363 . S
C2793 C2792 1.415 . S
H2794 C2791 0.999 . S
H2795 C2776 0.913 . S
H2796 C2814 0.951 . S
H2797 C2816 0.951 . S
H2798 C2818 0.950 . S
H2799 C2819 0.950 . S
H2800 C2821 0.950 . S
H2801 C2824 0.950 . S
H2802 C2825 0.950 . S
H2803 C2827 0.950 . S
H2804 C2828 0.950 . S
H2805 C2829 0.951 . S
H2806 C2831 0.951 . S
H2807 C2833 0.950 . S
H2808 C2834 0.950 . S
H2809 C2836 0.950 . S
H2810 C2839 0.950 . S
H2811 C2840 0.950 . S
H2812 C2842 0.950 . S
H2813 C2843 0.950 . S
C2814 H2796 0.951 . S
C2814 C2815 1.366 . S
C2814 C2816 1.388 . S
C2815 C2814 1.366 . S
C2815 C2819 1.385 . S
C2816 H2797 0.951 . S
C2816 C2814 1.388 . S
C2816 C2817 1.366 . S
C2817 C2816 1.366 . S
C2817 C2818 1.414 . S
C2817 C2820 1.499 . S
C2818 H2798 0.950 . S
C2818 C2817 1.414 . S
C2818 C2819 1.374 . S
C2819 H2799 0.950 . S
C2819 C2815 1.385 . S
C2819 C2818 1.374 . S
C2820 C2817 1.499 . S
C2820 C2821 1.373 . S
C2820 C2822 1.389 . S
C2821 H2800 0.950 . S
C2821 C2820 1.373 . S
C2821 C2837 1.377 . S
C2822 C2820 1.389 . S
C2822 C2823 1.524 . S
C2822 C2836 1.377 . S
C2823 C2822 1.524 . S
C2823 C2824 1.397 . S
C2823 C2828 1.363 . S
C2824 H2801 0.950 . S
C2824 C2823 1.397 . S
C2824 C2825 1.334 . S
C2825 H2802 0.950 . S
C2825 C2824 1.334 . S
C2825 C2826 1.287 . S
C2826 C2825 1.287 . S
C2826 C2827 1.524 . S
C2826 H2845 0.913 . S
C2827 H2803 0.950 . S
C2827 C2826 1.524 . S
C2827 C2828 1.415 . S
C2828 H2804 0.950 . S
C2828 C2823 1.363 . S
C2828 C2827 1.415 . S
C2829 H2805 0.951 . S
C2829 C2830 1.366 . S
C2829 C2831 1.388 . S
C2830 C2829 1.366 . S
C2830 C2834 1.385 . S
C2831 H2806 0.951 . S
C2831 C2829 1.388 . S
C2831 C2832 1.366 . S
C2832 C2831 1.366 . S
C2832 C2833 1.414 . S
C2832 C2835 1.499 . S
C2833 H2807 0.950 . S
C2833 C2832 1.414 . S
C2833 C2834 1.374 . S
C2834 H2808 0.950 . S
C2834 C2830 1.385 . S
C2834 C2833 1.374 . S
C2835 C2832 1.499 . S
C2835 C2836 1.373 . S
C2835 C2837 1.389 . S
C2836 H2809 0.950 . S
C2836 C2822 1.377 . S
C2836 C2835 1.373 . S
C2837 C2821 1.377 . S
C2837 C2835 1.389 . S
C2837 C2838 1.524 . S
C2838 C2837 1.524 . S
C2838 C2839 1.397 . S
C2838 C2843 1.363 . S
C2839 H2810 0.950 . S
C2839 C2838 1.397 . S
C2839 C2840 1.334 . S
C2840 H2811 0.950 . S
C2840 C2839 1.334 . S
C2840 C2841 1.287 . S
C2841 C2840 1.287 . S
C2841 C2842 1.524 . S
C2841 H2844 0.999 . S
C2842 H2812 0.950 . S
C2842 C2841 1.524 . S
C2842 C2843 1.415 . S
C2843 H2813 0.950 . S
C2843 C2838 1.363 . S
C2843 C2842 1.415 . S
H2844 C2841 0.999 . S
H2845 C2826 0.913 . S
H2846 C2864 0.951 . S
H2847 C2866 0.951 . S
H2848 C2868 0.950 . S
H2849 C2869 0.950 . S
H2850 C2871 0.950 . S
H2851 C2874 0.950 . S
H2852 C2875 0.950 . S
H2853 C2877 0.950 . S
H2854 C2878 0.950 . S
H2855 C2879 0.951 . S
H2856 C2881 0.951 . S
H2857 C2883 0.950 . S
H2858 C2884 0.950 . S
H2859 C2886 0.950 . S
H2860 C2889 0.950 . S
H2861 C2890 0.950 . S
H2862 C2892 0.950 . S
H2863 C2893 0.950 . S
C2864 H2846 0.951 . S
C2864 C2865 1.366 . S
C2864 C2866 1.388 . S
C2865 C2864 1.366 . S
C2865 C2869 1.385 . S
C2866 H2847 0.951 . S
C2866 C2864 1.388 . S
C2866 C2867 1.366 . S
C2867 C2866 1.366 . S
C2867 C2868 1.414 . S
C2867 C2870 1.499 . S
C2868 H2848 0.950 . S
C2868 C2867 1.414 . S
C2868 C2869 1.374 . S
C2869 H2849 0.950 . S
C2869 C2865 1.385 . S
C2869 C2868 1.374 . S
C2870 C2867 1.499 . S
C2870 C2871 1.373 . S
C2870 C2872 1.389 . S
C2871 H2850 0.950 . S
C2871 C2870 1.373 . S
C2871 C2887 1.377 . S
C2872 C2870 1.389 . S
C2872 C2873 1.524 . S
C2872 C2886 1.377 . S
C2873 C2872 1.524 . S
C2873 C2874 1.397 . S
C2873 C2878 1.363 . S
C2874 H2851 0.950 . S
C2874 C2873 1.397 . S
C2874 C2875 1.334 . S
C2875 H2852 0.950 . S
C2875 C2874 1.334 . S
C2875 C2876 1.287 . S
C2876 C2875 1.287 . S
C2876 C2877 1.524 . S
C2876 H2895 0.913 . S
C2877 H2853 0.950 . S
C2877 C2876 1.524 . S
C2877 C2878 1.415 . S
C2878 H2854 0.950 . S
C2878 C2873 1.363 . S
C2878 C2877 1.415 . S
C2879 H2855 0.951 . S
C2879 C2880 1.366 . S
C2879 C2881 1.388 . S
C2880 C2879 1.366 . S
C2880 C2884 1.385 . S
C2881 H2856 0.951 . S
C2881 C2879 1.388 . S
C2881 C2882 1.366 . S
C2882 C2881 1.366 . S
C2882 C2883 1.414 . S
C2882 C2885 1.499 . S
C2883 H2857 0.950 . S
C2883 C2882 1.414 . S
C2883 C2884 1.374 . S
C2884 H2858 0.950 . S
C2884 C2880 1.385 . S
C2884 C2883 1.374 . S
C2885 C2882 1.499 . S
C2885 C2886 1.373 . S
C2885 C2887 1.389 . S
C2886 H2859 0.950 . S
C2886 C2872 1.377 . S
C2886 C2885 1.373 . S
C2887 C2871 1.377 . S
C2887 C2885 1.389 . S
C2887 C2888 1.524 . S
C2888 C2887 1.524 . S
C2888 C2889 1.397 . S
C2888 C2893 1.363 . S
C2889 H2860 0.950 . S
C2889 C2888 1.397 . S
C2889 C2890 1.334 . S
C2890 H2861 0.950 . S
C2890 C2889 1.334 . S
C2890 C2891 1.287 . S
C2891 C2890 1.287 . S
C2891 C2892 1.524 . S
C2891 H2894 0.999 . S
C2892 H2862 0.950 . S
C2892 C2891 1.524 . S
C2892 C2893 1.415 . S
C2893 H2863 0.950 . S
C2893 C2888 1.363 . S
C2893 C2892 1.415 . S
H2894 C2891 0.999 . S
H2895 C2876 0.913 . S
H2896 C2914 0.951 . S
H2897 C2916 0.951 . S
H2898 C2918 0.950 . S
H2899 C2919 0.950 . S
H2900 C2921 0.950 . S
H2901 C2924 0.950 . S
H2902 C2925 0.950 . S
H2903 C2927 0.950 . S
H2904 C2928 0.950 . S
H2905 C2929 0.951 . S
H2906 C2931 0.951 . S
H2907 C2933 0.950 . S
H2908 C2934 0.950 . S
H2909 C2936 0.950 . S
H2910 C2939 0.950 . S
H2911 C2940 0.950 . S
H2912 C2942 0.950 . S
H2913 C2943 0.950 . S
C2914 H2896 0.951 . S
C2914 C2915 1.366 . S
C2914 C2916 1.388 . S
C2915 C2914 1.366 . S
C2915 C2919 1.385 . S
C2916 H2897 0.951 . S
C2916 C2914 1.388 . S
C2916 C2917 1.366 . S
C2917 C2916 1.366 . S
C2917 C2918 1.414 . S
C2917 C2920 1.499 . S
C2918 H2898 0.950 . S
C2918 C2917 1.414 . S
C2918 C2919 1.374 . S
C2919 H2899 0.950 . S
C2919 C2915 1.385 . S
C2919 C2918 1.374 . S
C2920 C2917 1.499 . S
C2920 C2921 1.373 . S
C2920 C2922 1.389 . S
C2921 H2900 0.950 . S
C2921 C2920 1.373 . S
C2921 C2937 1.377 . S
C2922 C2920 1.389 . S
C2922 C2923 1.524 . S
C2922 C2936 1.377 . S
C2923 C2922 1.524 . S
C2923 C2924 1.397 . S
C2923 C2928 1.363 . S
C2924 H2901 0.950 . S
C2924 C2923 1.397 . S
C2924 C2925 1.334 . S
C2925 H2902 0.950 . S
C2925 C2924 1.334 . S
C2925 C2926 1.287 . S
C2926 C2925 1.287 . S
C2926 C2927 1.524 . S
C2926 H2945 0.913 . S
C2927 H2903 0.950 . S
C2927 C2926 1.524 . S
C2927 C2928 1.415 . S
C2928 H2904 0.950 . S
C2928 C2923 1.363 . S
C2928 C2927 1.415 . S
C2929 H2905 0.951 . S
C2929 C2930 1.366 . S
C2929 C2931 1.388 . S
C2930 C2929 1.366 . S
C2930 C2934 1.385 . S
C2931 H2906 0.951 . S
C2931 C2929 1.388 . S
C2931 C2932 1.366 . S
C2932 C2931 1.366 . S
C2932 C2933 1.414 . S
C2932 C2935 1.499 . S
C2933 H2907 0.950 . S
C2933 C2932 1.414 . S
C2933 C2934 1.374 . S
C2934 H2908 0.950 . S
C2934 C2930 1.385 . S
C2934 C2933 1.374 . S
C2935 C2932 1.499 . S
C2935 C2936 1.373 . S
C2935 C2937 1.389 . S
C2936 H2909 0.950 . S
C2936 C2922 1.377 . S
C2936 C2935 1.373 . S
C2937 C2921 1.377 . S
C2937 C2935 1.389 . S
C2937 C2938 1.524 . S
C2938 C2937 1.524 . S
C2938 C2939 1.397 . S
C2938 C2943 1.363 . S
C2939 H2910 0.950 . S
C2939 C2938 1.397 . S
C2939 C2940 1.334 . S
C2940 H2911 0.950 . S
C2940 C2939 1.334 . S
C2940 C2941 1.287 . S
C2941 C2940 1.287 . S
C2941 C2942 1.524 . S
C2941 H2944 0.999 . S
C2942 H2912 0.950 . S
C2942 C2941 1.524 . S
C2942 C2943 1.415 . S
C2943 H2913 0.950 . S
C2943 C2938 1.363 . S
C2943 C2942 1.415 . S
H2944 C2941 0.999 . S
H2945 C2926 0.913 . S
H2946 C2964 0.951 . S
H2947 C2966 0.951 . S
H2948 C2968 0.950 . S
H2949 C2969 0.950 . S
H2950 C2971 0.950 . S
H2951 C2974 0.950 . S
H2952 C2975 0.950 . S
H2953 C2977 0.950 . S
H2954 C2978 0.950 . S
H2955 C2979 0.951 . S
H2956 C2981 0.951 . S
H2957 C2983 0.950 . S
H2958 C2984 0.950 . S
H2959 C2986 0.950 1_565 S
H2960 C2989 0.950 . S
H2961 C2990 0.950 . S
H2962 C2992 0.950 . S
H2963 C2993 0.950 . S
C2964 H2946 0.951 . S
C2964 C2965 1.366 . S
C2964 C2966 1.388 . S
C2965 C2964 1.366 . S
C2965 C2969 1.385 . S
C2966 H2947 0.951 . S
C2966 C2964 1.388 . S
C2966 C2967 1.366 . S
C2967 C2966 1.366 . S
C2967 C2968 1.414 . S
C2967 C2970 1.499 . S
C2968 H2948 0.950 . S
C2968 C2967 1.414 . S
C2968 C2969 1.374 . S
C2969 H2949 0.950 . S
C2969 C2965 1.385 . S
C2969 C2968 1.374 . S
C2970 C2967 1.499 . S
C2970 C2971 1.373 . S
C2970 C2972 1.389 . S
C2971 H2950 0.950 . S
C2971 C2970 1.373 . S
C2971 C2987 1.377 . S
C2972 C2970 1.389 . S
C2972 C2973 1.524 1_545 S
C2972 C2986 1.377 . S
C2973 C2972 1.524 1_565 S
C2973 C2974 1.397 . S
C2973 C2978 1.363 . S
C2974 H2951 0.950 . S
C2974 C2973 1.397 . S
C2974 C2975 1.334 . S
C2975 H2952 0.950 . S
C2975 C2974 1.334 . S
C2975 C2976 1.287 . S
C2976 C2975 1.287 . S
C2976 C2977 1.524 . S
C2976 H2995 0.913 . S
C2977 H2953 0.950 . S
C2977 C2976 1.524 . S
C2977 C2978 1.415 . S
C2978 H2954 0.950 . S
C2978 C2973 1.363 . S
C2978 C2977 1.415 . S
C2979 H2955 0.951 . S
C2979 C2980 1.366 . S
C2979 C2981 1.388 . S
C2980 C2979 1.366 . S
C2980 C2984 1.385 . S
C2981 H2956 0.951 . S
C2981 C2979 1.388 . S
C2981 C2982 1.366 . S
C2982 C2981 1.366 . S
C2982 C2983 1.414 . S
C2982 C2985 1.499 . S
C2983 H2957 0.950 . S
C2983 C2982 1.414 . S
C2983 C2984 1.374 . S
C2984 H2958 0.950 . S
C2984 C2980 1.385 . S
C2984 C2983 1.374 . S
C2985 C2982 1.499 . S
C2985 C2986 1.373 . S
C2985 C2987 1.389 . S
C2986 H2959 0.950 1_545 S
C2986 C2972 1.377 . S
C2986 C2985 1.373 . S
C2987 C2971 1.377 . S
C2987 C2985 1.389 . S
C2987 C2988 1.524 . S
C2988 C2987 1.524 . S
C2988 C2989 1.397 . S
C2988 C2993 1.363 . S
C2989 H2960 0.950 . S
C2989 C2988 1.397 . S
C2989 C2990 1.334 . S
C2990 H2961 0.950 . S
C2990 C2989 1.334 . S
C2990 C2991 1.287 . S
C2991 C2990 1.287 . S
C2991 C2992 1.524 . S
C2991 H2994 0.999 . S
C2992 H2962 0.950 . S
C2992 C2991 1.524 . S
C2992 C2993 1.415 . S
C2993 H2963 0.950 . S
C2993 C2988 1.363 . S
C2993 C2992 1.415 . S
H2994 C2991 0.999 . S
H2995 C2976 0.913 . S
H2996 C3014 0.951 . S
H2997 C3016 0.951 . S
H2998 C3018 0.950 . S
H2999 C3019 0.950 . S
H3000 C3021 0.950 . S
H3001 C3024 0.950 . S
H3002 C3025 0.950 . S
H3003 C3027 0.950 . S
H3004 C3028 0.950 . S
H3005 C3029 0.951 . S
H3006 C3031 0.951 . S
H3007 C3033 0.950 . S
H3008 C3034 0.950 . S
H3009 C3036 0.950 . S
H3010 C3039 0.950 . S
H3011 C3040 0.950 . S
H3012 C3042 0.950 . S
H3013 C3043 0.950 . S
C3014 H2996 0.951 . S
C3014 C3015 1.366 . S
C3014 C3016 1.388 . S
C3015 C3014 1.366 . S
C3015 C3019 1.385 . S
C3016 H2997 0.951 . S
C3016 C3014 1.388 . S
C3016 C3017 1.366 . S
C3017 C3016 1.366 . S
C3017 C3018 1.414 . S
C3017 C3020 1.499 . S
C3018 H2998 0.950 . S
C3018 C3017 1.414 . S
C3018 C3019 1.374 . S
C3019 H2999 0.950 . S
C3019 C3015 1.385 . S
C3019 C3018 1.374 . S
C3020 C3017 1.499 . S
C3020 C3021 1.373 . S
C3020 C3022 1.389 . S
C3021 H3000 0.950 . S
C3021 C3020 1.373 . S
C3021 C3037 1.377 . S
C3022 C3020 1.389 . S
C3022 C3023 1.524 . S
C3022 C3036 1.377 . S
C3023 C3022 1.524 . S
C3023 C3024 1.397 . S
C3023 C3028 1.363 . S
C3024 H3001 0.950 . S
C3024 C3023 1.397 . S
C3024 C3025 1.334 . S
C3025 H3002 0.950 . S
C3025 C3024 1.334 . S
C3025 C3026 1.287 . S
C3026 C3025 1.287 . S
C3026 C3027 1.524 . S
C3026 H3045 0.913 . S
C3027 H3003 0.950 . S
C3027 C3026 1.524 . S
C3027 C3028 1.415 . S
C3028 H3004 0.950 . S
C3028 C3023 1.363 . S
C3028 C3027 1.415 . S
C3029 H3005 0.951 . S
C3029 C3030 1.366 . S
C3029 C3031 1.388 . S
C3030 C3029 1.366 . S
C3030 C3034 1.385 . S
C3031 H3006 0.951 . S
C3031 C3029 1.388 . S
C3031 C3032 1.366 . S
C3032 C3031 1.366 . S
C3032 C3033 1.414 . S
C3032 C3035 1.499 . S
C3033 H3007 0.950 . S
C3033 C3032 1.414 . S
C3033 C3034 1.374 . S
C3034 H3008 0.950 . S
C3034 C3030 1.385 . S
C3034 C3033 1.374 . S
C3035 C3032 1.499 . S
C3035 C3036 1.373 . S
C3035 C3037 1.389 . S
C3036 H3009 0.950 . S
C3036 C3022 1.377 . S
C3036 C3035 1.373 . S
C3037 C3021 1.377 . S
C3037 C3035 1.389 . S
C3037 C3038 1.524 . S
C3038 C3037 1.524 . S
C3038 C3039 1.397 . S
C3038 C3043 1.363 . S
C3039 H3010 0.950 . S
C3039 C3038 1.397 . S
C3039 C3040 1.334 . S
C3040 H3011 0.950 . S
C3040 C3039 1.334 . S
C3040 C3041 1.287 . S
C3041 C3040 1.287 . S
C3041 C3042 1.524 . S
C3041 H3044 0.999 . S
C3042 H3012 0.950 . S
C3042 C3041 1.524 . S
C3042 C3043 1.415 . S
C3043 H3013 0.950 . S
C3043 C3038 1.363 . S
C3043 C3042 1.415 . S
H3044 C3041 0.999 . S
H3045 C3026 0.913 . S
H3046 C3064 0.951 . S
H3047 C3066 0.951 . S
H3048 C3068 0.950 . S
H3049 C3069 0.950 . S
H3050 C3071 0.950 . S
H3051 C3074 0.950 . S
H3052 C3075 0.950 . S
H3053 C3077 0.950 . S
H3054 C3078 0.950 . S
H3055 C3079 0.951 . S
H3056 C3081 0.951 . S
H3057 C3083 0.950 . S
H3058 C3084 0.950 . S
H3059 C3086 0.950 . S
H3060 C3089 0.950 . S
H3061 C3090 0.950 . S
H3062 C3092 0.950 . S
H3063 C3093 0.950 . S
C3064 H3046 0.951 . S
C3064 C3065 1.366 . S
C3064 C3066 1.388 . S
C3065 C3064 1.366 . S
C3065 C3069 1.385 . S
C3066 H3047 0.951 . S
C3066 C3064 1.388 . S
C3066 C3067 1.366 . S
C3067 C3066 1.366 . S
C3067 C3068 1.414 . S
C3067 C3070 1.499 . S
C3068 H3048 0.950 . S
C3068 C3067 1.414 . S
C3068 C3069 1.374 . S
C3069 H3049 0.950 . S
C3069 C3065 1.385 . S
C3069 C3068 1.374 . S
C3070 C3067 1.499 . S
C3070 C3071 1.373 . S
C3070 C3072 1.389 . S
C3071 H3050 0.950 . S
C3071 C3070 1.373 . S
C3071 C3087 1.377 . S
C3072 C3070 1.389 . S
C3072 C3073 1.524 . S
C3072 C3086 1.377 . S
C3073 C3072 1.524 . S
C3073 C3074 1.397 . S
C3073 C3078 1.363 . S
C3074 H3051 0.950 . S
C3074 C3073 1.397 . S
C3074 C3075 1.334 . S
C3075 H3052 0.950 . S
C3075 C3074 1.334 . S
C3075 C3076 1.287 . S
C3076 C3075 1.287 . S
C3076 C3077 1.524 . S
C3076 H3095 0.913 . S
C3077 H3053 0.950 . S
C3077 C3076 1.524 . S
C3077 C3078 1.415 . S
C3078 H3054 0.950 . S
C3078 C3073 1.363 . S
C3078 C3077 1.415 . S
C3079 H3055 0.951 . S
C3079 C3080 1.366 . S
C3079 C3081 1.388 . S
C3080 C3079 1.366 . S
C3080 C3084 1.385 . S
C3081 H3056 0.951 . S
C3081 C3079 1.388 . S
C3081 C3082 1.366 . S
C3082 C3081 1.366 . S
C3082 C3083 1.414 . S
C3082 C3085 1.499 . S
C3083 H3057 0.950 . S
C3083 C3082 1.414 . S
C3083 C3084 1.374 . S
C3084 H3058 0.950 . S
C3084 C3080 1.385 . S
C3084 C3083 1.374 . S
C3085 C3082 1.499 . S
C3085 C3086 1.373 . S
C3085 C3087 1.389 . S
C3086 H3059 0.950 . S
C3086 C3072 1.377 . S
C3086 C3085 1.373 . S
C3087 C3071 1.377 . S
C3087 C3085 1.389 . S
C3087 C3088 1.524 . S
C3088 C3087 1.524 . S
C3088 C3089 1.397 . S
C3088 C3093 1.363 . S
C3089 H3060 0.950 . S
C3089 C3088 1.397 . S
C3089 C3090 1.334 . S
C3090 H3061 0.950 . S
C3090 C3089 1.334 . S
C3090 C3091 1.287 . S
C3091 C3090 1.287 . S
C3091 C3092 1.524 . S
C3091 H3094 0.999 . S
C3092 H3062 0.950 . S
C3092 C3091 1.524 . S
C3092 C3093 1.415 . S
C3093 H3063 0.950 . S
C3093 C3088 1.363 . S
C3093 C3092 1.415 . S
H3094 C3091 0.999 . S
H3095 C3076 0.913 . S
H3096 C3114 0.951 . S
H3097 C3116 0.951 . S
H3098 C3118 0.950 . S
H3099 C3119 0.950 . S
H3100 C3121 0.950 . S
H3101 C3124 0.950 . S
H3102 C3125 0.950 . S
H3103 C3127 0.950 . S
H3104 C3128 0.950 . S
H3105 C3129 0.951 . S
H3106 C3131 0.951 . S
H3107 C3133 0.950 . S
H3108 C3134 0.950 . S
H3109 C3136 0.950 . S
H3110 C3139 0.950 . S
H3111 C3140 0.950 . S
H3112 C3142 0.950 . S
H3113 C3143 0.950 . S
C3114 H3096 0.951 . S
C3114 C3115 1.366 . S
C3114 C3116 1.388 . S
C3115 C3114 1.366 . S
C3115 C3119 1.385 . S
C3116 H3097 0.951 . S
C3116 C3114 1.388 . S
C3116 C3117 1.366 . S
C3117 C3116 1.366 . S
C3117 C3118 1.414 . S
C3117 C3120 1.499 . S
C3118 H3098 0.950 . S
C3118 C3117 1.414 . S
C3118 C3119 1.374 . S
C3119 H3099 0.950 . S
C3119 C3115 1.385 . S
C3119 C3118 1.374 . S
C3120 C3117 1.499 . S
C3120 C3121 1.373 . S
C3120 C3122 1.389 . S
C3121 H3100 0.950 . S
C3121 C3120 1.373 . S
C3121 C3137 1.377 . S
C3122 C3120 1.389 . S
C3122 C3123 1.524 . S
C3122 C3136 1.377 . S
C3123 C3122 1.524 . S
C3123 C3124 1.397 . S
C3123 C3128 1.363 . S
C3124 H3101 0.950 . S
C3124 C3123 1.397 . S
C3124 C3125 1.334 . S
C3125 H3102 0.950 . S
C3125 C3124 1.334 . S
C3125 C3126 1.287 . S
C3126 C3125 1.287 . S
C3126 C3127 1.524 . S
C3126 H3145 0.913 . S
C3127 H3103 0.950 . S
C3127 C3126 1.524 . S
C3127 C3128 1.415 . S
C3128 H3104 0.950 . S
C3128 C3123 1.363 . S
C3128 C3127 1.415 . S
C3129 H3105 0.951 . S
C3129 C3130 1.366 . S
C3129 C3131 1.388 . S
C3130 C3129 1.366 . S
C3130 C3134 1.385 . S
C3131 H3106 0.951 . S
C3131 C3129 1.388 . S
C3131 C3132 1.366 . S
C3132 C3131 1.366 . S
C3132 C3133 1.414 . S
C3132 C3135 1.499 . S
C3133 H3107 0.950 . S
C3133 C3132 1.414 . S
C3133 C3134 1.374 . S
C3134 H3108 0.950 . S
C3134 C3130 1.385 . S
C3134 C3133 1.374 . S
C3135 C3132 1.499 . S
C3135 C3136 1.373 . S
C3135 C3137 1.389 . S
C3136 H3109 0.950 . S
C3136 C3122 1.377 . S
C3136 C3135 1.373 . S
C3137 C3121 1.377 . S
C3137 C3135 1.389 . S
C3137 C3138 1.524 . S
C3138 C3137 1.524 . S
C3138 C3139 1.397 . S
C3138 C3143 1.363 . S
C3139 H3110 0.950 . S
C3139 C3138 1.397 . S
C3139 C3140 1.334 . S
C3140 H3111 0.950 . S
C3140 C3139 1.334 . S
C3140 C3141 1.287 . S
C3141 C3140 1.287 . S
C3141 C3142 1.524 . S
C3141 H3144 0.999 . S
C3142 H3112 0.950 . S
C3142 C3141 1.524 . S
C3142 C3143 1.415 . S
C3143 H3113 0.950 . S
C3143 C3138 1.363 . S
C3143 C3142 1.415 . S
H3144 C3141 0.999 . S
H3145 C3126 0.913 . S
H3146 C3164 0.951 . S
H3147 C3166 0.951 . S
H3148 C3168 0.950 1_565 S
H3149 C3169 0.945 1_565 S
H3150 C3171 0.950 . S
H3151 C3174 0.950 . S
H3152 C3175 1.005 . S
H3153 C3177 0.950 . S
H3154 C3178 0.950 . S
H3155 C3179 0.951 . S
H3156 C3181 0.945 . S
H3157 C3183 0.950 . S
H3158 C3184 0.950 . S
H3159 C3186 0.950 . S
H3160 C3189 0.950 . S
H3161 C3190 0.950 . S
H3162 C3192 0.950 . S
H3163 C3193 0.950 . S
C3164 H3146 0.951 . S
C3164 C3165 1.366 . S
C3164 C3166 1.388 . S
C3165 C3164 1.366 . S
C3165 C3169 1.385 . S
C3166 H3147 0.951 . S
C3166 C3164 1.388 . S
C3166 C3167 1.366 . S
C3167 C3166 1.366 . S
C3167 C3168 1.414 . S
C3167 C3170 1.499 . S
C3168 H3148 0.950 1_545 S
C3168 C3167 1.414 . S
C3168 C3169 1.374 . S
C3169 H3149 0.945 1_545 S
C3169 C3165 1.385 . S
C3169 C3168 1.374 . S
C3170 C3167 1.499 . S
C3170 C3171 1.373 . S
C3170 C3172 1.389 . S
C3171 H3150 0.950 . S
C3171 C3170 1.373 . S
C3171 C3187 1.377 . S
C3172 C3170 1.389 . S
C3172 C3173 1.524 . S
C3172 C3186 1.377 . S
C3173 C3172 1.524 . S
C3173 C3174 1.397 . S
C3173 C3178 1.363 . S
C3174 H3151 0.950 . S
C3174 C3173 1.397 . S
C3174 C3175 1.265 1_655 S
C3175 H3152 1.005 . S
C3175 C3174 1.265 1_455 S
C3175 C3176 1.302 . S
C3176 C3175 1.302 . S
C3176 C3177 1.524 1_455 S
C3176 H3195 0.913 . S
C3177 H3153 0.950 . S
C3177 C3176 1.524 1_655 S
C3177 C3178 1.415 . S
C3178 H3154 0.950 . S
C3178 C3173 1.363 . S
C3178 C3177 1.415 . S
C3179 H3155 0.951 . S
C3179 C3180 1.366 1_565 S
C3179 C3181 1.387 . S
C3180 C3179 1.366 1_545 S
C3180 C3184 1.385 . S
C3181 H3156 0.945 . S
C3181 C3179 1.387 . S
C3181 C3182 1.372 1_565 S
C3182 C3181 1.372 1_545 S
C3182 C3183 1.414 . S
C3182 C3185 1.499 . S
C3183 H3157 0.950 . S
C3183 C3182 1.414 . S
C3183 C3184 1.374 . S
C3184 H3158 0.950 . S
C3184 C3180 1.385 . S
C3184 C3183 1.374 . S
C3185 C3182 1.499 . S
C3185 C3186 1.373 . S
C3185 C3187 1.389 . S
C3186 H3159 0.950 . S
C3186 C3172 1.377 . S
C3186 C3185 1.373 . S
C3187 C3171 1.377 . S
C3187 C3185 1.389 . S
C3187 C3188 1.524 . S
C3188 C3187 1.524 . S
C3188 C3189 1.397 . S
C3188 C3193 1.363 1_545 S
C3189 H3160 0.950 . S
C3189 C3188 1.397 . S
C3189 C3190 1.334 . S
C3190 H3161 0.950 . S
C3190 C3189 1.334 . S
C3190 C3191 1.287 1_545 S
C3191 C3190 1.287 1_565 S
C3191 C3192 1.524 . S
C3191 H3194 0.999 . S
C3192 H3162 0.950 . S
C3192 C3191 1.524 . S
C3192 C3193 1.415 . S
C3193 H3163 0.950 . S
C3193 C3188 1.363 1_565 S
C3193 C3192 1.415 . S
H3194 C3191 0.999 . S
H3195 C3176 0.913 . S
H3196 C3214 0.951 . S
H3197 C3216 0.951 . S
H3198 C3218 0.950 . S
H3199 C3219 0.950 . S
H3200 C3221 0.950 . S
H3201 C3224 0.950 . S
H3202 C3225 0.950 . S
H3203 C3227 0.950 . S
H3204 C3228 0.950 . S
H3205 C3229 0.951 . S
H3206 C3231 0.951 . S
H3207 C3233 0.950 . S
H3208 C3234 0.950 . S
H3209 C3236 0.950 . S
H3210 C3239 0.950 . S
H3211 C3240 0.950 . S
H3212 C3242 0.950 . S
H3213 C3243 0.950 . S
C3214 H3196 0.951 . S
C3214 C3215 1.366 . S
C3214 C3216 1.388 . S
C3215 C3214 1.366 . S
C3215 C3219 1.385 . S
C3216 H3197 0.951 . S
C3216 C3214 1.388 . S
C3216 C3217 1.366 . S
C3217 C3216 1.366 . S
C3217 C3218 1.414 . S
C3217 C3220 1.499 . S
C3218 H3198 0.950 . S
C3218 C3217 1.414 . S
C3218 C3219 1.374 . S
C3219 H3199 0.950 . S
C3219 C3215 1.385 . S
C3219 C3218 1.374 . S
C3220 C3217 1.499 . S
C3220 C3221 1.373 . S
C3220 C3222 1.389 . S
C3221 H3200 0.950 . S
C3221 C3220 1.373 . S
C3221 C3237 1.377 . S
C3222 C3220 1.389 . S
C3222 C3223 1.524 . S
C3222 C3236 1.377 . S
C3223 C3222 1.524 . S
C3223 C3224 1.397 . S
C3223 C3228 1.363 . S
C3224 H3201 0.950 . S
C3224 C3223 1.397 . S
C3224 C3225 1.334 . S
C3225 H3202 0.950 . S
C3225 C3224 1.334 . S
C3225 C3226 1.287 . S
C3226 C3225 1.287 . S
C3226 C3227 1.524 . S
C3226 H3245 0.913 . S
C3227 H3203 0.950 . S
C3227 C3226 1.524 . S
C3227 C3228 1.415 . S
C3228 H3204 0.950 . S
C3228 C3223 1.363 . S
C3228 C3227 1.415 . S
C3229 H3205 0.951 . S
C3229 C3230 1.366 . S
C3229 C3231 1.388 . S
C3230 C3229 1.366 . S
C3230 C3234 1.385 . S
C3231 H3206 0.951 . S
C3231 C3229 1.388 . S
C3231 C3232 1.366 . S
C3232 C3231 1.366 . S
C3232 C3233 1.414 . S
C3232 C3235 1.499 . S
C3233 H3207 0.950 . S
C3233 C3232 1.414 . S
C3233 C3234 1.374 . S
C3234 H3208 0.950 . S
C3234 C3230 1.385 . S
C3234 C3233 1.374 . S
C3235 C3232 1.499 . S
C3235 C3236 1.373 . S
C3235 C3237 1.389 . S
C3236 H3209 0.950 . S
C3236 C3222 1.377 . S
C3236 C3235 1.373 . S
C3237 C3221 1.377 . S
C3237 C3235 1.389 . S
C3237 C3238 1.524 . S
C3238 C3237 1.524 . S
C3238 C3239 1.397 . S
C3238 C3243 1.363 . S
C3239 H3210 0.950 . S
C3239 C3238 1.397 . S
C3239 C3240 1.334 . S
C3240 H3211 0.950 . S
C3240 C3239 1.334 . S
C3240 C3241 1.287 . S
C3241 C3240 1.287 . S
C3241 C3242 1.524 . S
C3241 H3244 0.999 . S
C3242 H3212 0.950 . S
C3242 C3241 1.524 . S
C3242 C3243 1.415 . S
C3243 H3213 0.950 . S
C3243 C3238 1.363 . S
C3243 C3242 1.415 . S
H3244 C3241 0.999 . S
H3245 C3226 0.913 . S
H3246 C3264 0.951 . S
H3247 C3266 0.951 . S
H3248 C3268 0.950 . S
H3249 C3269 0.950 . S
H3250 C3271 0.950 . S
H3251 C3274 0.950 . S
H3252 C3275 0.950 . S
H3253 C3277 0.950 . S
H3254 C3278 0.950 . S
H3255 C3279 0.951 . S
H3256 C3281 0.951 . S
H3257 C3283 0.950 . S
H3258 C3284 0.950 . S
H3259 C3286 0.950 . S
H3260 C3289 0.950 . S
H3261 C3290 0.950 . S
H3262 C3292 0.950 . S
H3263 C3293 0.950 . S
C3264 H3246 0.951 . S
C3264 C3265 1.366 . S
C3264 C3266 1.388 . S
C3265 C3264 1.366 . S
C3265 C3269 1.385 . S
C3266 H3247 0.951 . S
C3266 C3264 1.388 . S
C3266 C3267 1.366 . S
C3267 C3266 1.366 . S
C3267 C3268 1.414 . S
C3267 C3270 1.499 . S
C3268 H3248 0.950 . S
C3268 C3267 1.414 . S
C3268 C3269 1.374 . S
C3269 H3249 0.950 . S
C3269 C3265 1.385 . S
C3269 C3268 1.374 . S
C3270 C3267 1.499 . S
C3270 C3271 1.373 . S
C3270 C3272 1.389 . S
C3271 H3250 0.950 . S
C3271 C3270 1.373 . S
C3271 C3287 1.377 . S
C3272 C3270 1.389 . S
C3272 C3273 1.524 . S
C3272 C3286 1.377 . S
C3273 C3272 1.524 . S
C3273 C3274 1.397 . S
C3273 C3278 1.363 . S
C3274 H3251 0.950 . S
C3274 C3273 1.397 . S
C3274 C3275 1.334 . S
C3275 H3252 0.950 . S
C3275 C3274 1.334 . S
C3275 C3276 1.287 . S
C3276 C3275 1.287 . S
C3276 C3277 1.524 . S
C3276 H3295 0.913 . S
C3277 H3253 0.950 . S
C3277 C3276 1.524 . S
C3277 C3278 1.415 . S
C3278 H3254 0.950 . S
C3278 C3273 1.363 . S
C3278 C3277 1.415 . S
C3279 H3255 0.951 . S
C3279 C3280 1.366 . S
C3279 C3281 1.388 . S
C3280 C3279 1.366 . S
C3280 C3284 1.385 . S
C3281 H3256 0.951 . S
C3281 C3279 1.388 . S
C3281 C3282 1.366 . S
C3282 C3281 1.366 . S
C3282 C3283 1.414 . S
C3282 C3285 1.499 . S
C3283 H3257 0.950 . S
C3283 C3282 1.414 . S
C3283 C3284 1.374 . S
C3284 H3258 0.950 . S
C3284 C3280 1.385 . S
C3284 C3283 1.374 . S
C3285 C3282 1.499 . S
C3285 C3286 1.373 . S
C3285 C3287 1.389 . S
C3286 H3259 0.950 . S
C3286 C3272 1.377 . S
C3286 C3285 1.373 . S
C3287 C3271 1.377 . S
C3287 C3285 1.389 . S
C3287 C3288 1.524 . S
C3288 C3287 1.524 . S
C3288 C3289 1.397 . S
C3288 C3293 1.363 . S
C3289 H3260 0.950 . S
C3289 C3288 1.397 . S
C3289 C3290 1.334 . S
C3290 H3261 0.950 . S
C3290 C3289 1.334 . S
C3290 C3291 1.287 . S
C3291 C3290 1.287 . S
C3291 C3292 1.524 . S
C3291 H3294 0.999 . S
C3292 H3262 0.950 . S
C3292 C3291 1.524 . S
C3292 C3293 1.415 . S
C3293 H3263 0.950 . S
C3293 C3288 1.363 . S
C3293 C3292 1.415 . S
H3294 C3291 0.999 . S
H3295 C3276 0.913 . S
H3296 C3314 0.951 . S
H3297 C3316 0.951 . S
H3298 C3318 0.950 . S
H3299 C3319 0.950 . S
H3300 C3321 0.950 . S
H3301 C3324 0.950 . S
H3302 C3325 0.950 . S
H3303 C3327 0.950 . S
H3304 C3328 0.950 . S
H3305 C3329 0.951 . S
H3306 C3331 0.951 . S
H3307 C3333 0.950 . S
H3308 C3334 0.950 . S
H3309 C3336 0.950 . S
H3310 C3339 0.950 . S
H3311 C3340 0.950 . S
H3312 C3342 0.950 . S
H3313 C3343 0.950 . S
C3314 H3296 0.951 . S
C3314 C3315 1.366 . S
C3314 C3316 1.388 . S
C3315 C3314 1.366 . S
C3315 C3319 1.385 . S
C3316 H3297 0.951 . S
C3316 C3314 1.388 . S
C3316 C3317 1.366 . S
C3317 C3316 1.366 . S
C3317 C3318 1.414 . S
C3317 C3320 1.499 . S
C3318 H3298 0.950 . S
C3318 C3317 1.414 . S
C3318 C3319 1.374 . S
C3319 H3299 0.950 . S
C3319 C3315 1.385 . S
C3319 C3318 1.374 . S
C3320 C3317 1.499 . S
C3320 C3321 1.373 . S
C3320 C3322 1.389 . S
C3321 H3300 0.950 . S
C3321 C3320 1.373 . S
C3321 C3337 1.377 . S
C3322 C3320 1.389 . S
C3322 C3323 1.524 . S
C3322 C3336 1.377 . S
C3323 C3322 1.524 . S
C3323 C3324 1.397 . S
C3323 C3328 1.363 . S
C3324 H3301 0.950 . S
C3324 C3323 1.397 . S
C3324 C3325 1.334 . S
C3325 H3302 0.950 . S
C3325 C3324 1.334 . S
C3325 C3326 1.287 . S
C3326 C3325 1.287 . S
C3326 C3327 1.524 . S
C3326 H3345 0.913 . S
C3327 H3303 0.950 . S
C3327 C3326 1.524 . S
C3327 C3328 1.415 . S
C3328 H3304 0.950 . S
C3328 C3323 1.363 . S
C3328 C3327 1.415 . S
C3329 H3305 0.951 . S
C3329 C3330 1.366 . S
C3329 C3331 1.388 . S
C3330 C3329 1.366 . S
C3330 C3334 1.385 . S
C3331 H3306 0.951 . S
C3331 C3329 1.388 . S
C3331 C3332 1.366 . S
C3332 C3331 1.366 . S
C3332 C3333 1.414 . S
C3332 C3335 1.499 . S
C3333 H3307 0.950 . S
C3333 C3332 1.414 . S
C3333 C3334 1.374 . S
C3334 H3308 0.950 . S
C3334 C3330 1.385 . S
C3334 C3333 1.374 . S
C3335 C3332 1.499 . S
C3335 C3336 1.373 . S
C3335 C3337 1.389 . S
C3336 H3309 0.950 . S
C3336 C3322 1.377 . S
C3336 C3335 1.373 . S
C3337 C3321 1.377 . S
C3337 C3335 1.389 . S
C3337 C3338 1.524 . S
C3338 C3337 1.524 . S
C3338 C3339 1.397 . S
C3338 C3343 1.363 . S
C3339 H3310 0.950 . S
C3339 C3338 1.397 . S
C3339 C3340 1.334 . S
C3340 H3311 0.950 . S
C3340 C3339 1.334 . S
C3340 C3341 1.287 . S
C3341 C3340 1.287 . S
C3341 C3342 1.524 . S
C3341 H3344 0.999 . S
C3342 H3312 0.950 . S
C3342 C3341 1.524 . S
C3342 C3343 1.415 . S
C3343 H3313 0.950 . S
C3343 C3338 1.363 . S
C3343 C3342 1.415 . S
H3344 C3341 0.999 . S
H3345 C3326 0.913 . S
H3346 C3364 0.951 . S
H3347 C3366 0.951 . S
H3348 C3368 0.950 . S
H3349 C3369 0.950 . S
H3350 C3371 0.992 . S
H3351 C3374 0.950 . S
H3352 C3375 0.950 . S
H3353 C3377 0.950 . S
H3354 C3378 0.950 . S
H3355 C3379 0.951 . S
H3356 C3381 0.951 . S
H3357 C3383 0.950 . S
H3358 C3384 0.950 . S
H3359 C3386 0.950 . S
H3360 C3389 0.950 . S
H3361 C3390 0.950 . S
H3362 C3392 0.950 . S
H3363 C3393 0.945 1_655 S
C3364 H3346 0.951 . S
C3364 C3365 1.366 . S
C3364 C3366 1.388 . S
C3365 C3364 1.366 . S
C3365 C3369 1.385 . S
C3366 H3347 0.951 . S
C3366 C3364 1.388 . S
C3366 C3367 1.366 . S
C3367 C3366 1.366 . S
C3367 C3368 1.414 . S
C3367 C3370 1.499 . S
C3368 H3348 0.950 . S
C3368 C3367 1.414 . S
C3368 C3369 1.374 . S
C3369 H3349 0.950 . S
C3369 C3365 1.385 . S
C3369 C3368 1.374 . S
C3370 C3367 1.499 . S
C3370 C3371 1.373 . S
C3370 C3372 1.389 . S
C3371 H3350 0.992 . S
C3371 C3370 1.373 . S
C3371 C3387 1.377 . S
C3372 C3370 1.389 . S
C3372 C3373 1.524 . S
C3372 C3386 1.377 . S
C3373 C3372 1.524 . S
C3373 C3374 1.397 . S
C3373 C3378 1.363 . S
C3374 H3351 0.950 . S
C3374 C3373 1.397 . S
C3374 C3375 1.334 . S
C3375 H3352 0.950 . S
C3375 C3374 1.334 . S
C3375 C3376 1.287 . S
C3376 C3375 1.287 . S
C3376 C3377 1.524 . S
C3376 H3395 0.913 . S
C3377 H3353 0.950 . S
C3377 C3376 1.524 . S
C3377 C3378 1.415 . S
C3378 H3354 0.950 . S
C3378 C3373 1.363 . S
C3378 C3377 1.415 . S
C3379 H3355 0.951 . S
C3379 C3380 1.366 . S
C3379 C3381 1.388 . S
C3380 C3379 1.366 . S
C3380 C3384 1.385 . S
C3381 H3356 0.951 . S
C3381 C3379 1.388 . S
C3381 C3382 1.366 . S
C3382 C3381 1.366 . S
C3382 C3383 1.414 . S
C3382 C3385 1.499 . S
C3383 H3357 0.950 . S
C3383 C3382 1.414 . S
C3383 C3384 1.374 . S
C3384 H3358 0.950 . S
C3384 C3380 1.385 . S
C3384 C3383 1.374 . S
C3385 C3382 1.499 . S
C3385 C3386 1.373 . S
C3385 C3387 1.389 . S
C3386 H3359 0.950 . S
C3386 C3372 1.377 . S
C3386 C3385 1.373 . S
C3387 C3371 1.377 . S
C3387 C3385 1.389 . S
C3387 C3388 1.524 1_655 S
C3388 C3387 1.524 1_455 S
C3388 C3389 1.397 . S
C3388 C3393 1.363 . S
C3389 H3360 0.950 . S
C3389 C3388 1.397 . S
C3389 C3390 1.334 . S
C3390 H3361 0.950 . S
C3390 C3389 1.334 . S
C3390 C3391 1.287 . S
C3391 C3390 1.287 . S
C3391 C3392 1.524 . S
C3391 H3394 0.999 . S
C3392 H3362 0.950 . S
C3392 C3391 1.524 . S
C3392 C3393 1.415 . S
C3393 H3363 0.945 1_455 S
C3393 C3388 1.363 . S
C3393 C3392 1.415 . S
H3394 C3391 0.999 . S
H3395 C3376 0.913 . S
H3396 C3414 0.951 . S
H3397 C3416 0.951 . S
H3398 C3418 0.950 . S
H3399 C3419 0.950 . S
H3400 C3421 0.950 . S
H3401 C3424 0.950 . S
H3402 C3425 0.950 . S
H3403 C3427 0.950 . S
H3404 C3428 0.950 . S
H3405 C3429 0.951 . S
H3406 C3431 0.951 . S
H3407 C3433 0.950 . S
H3408 C3434 0.950 . S
H3409 C3436 0.950 . S
H3410 C3439 0.950 . S
H3411 C3440 0.950 . S
H3412 C3442 0.950 . S
H3413 C3443 0.950 . S
C3414 H3396 0.951 . S
C3414 C3415 1.366 . S
C3414 C3416 1.388 . S
C3415 C3414 1.366 . S
C3415 C3419 1.385 . S
C3416 H3397 0.951 . S
C3416 C3414 1.388 . S
C3416 C3417 1.366 . S
C3417 C3416 1.366 . S
C3417 C3418 1.414 . S
C3417 C3420 1.499 . S
C3418 H3398 0.950 . S
C3418 C3417 1.414 . S
C3418 C3419 1.374 . S
C3419 H3399 0.950 . S
C3419 C3415 1.385 . S
C3419 C3418 1.374 . S
C3420 C3417 1.499 . S
C3420 C3421 1.373 . S
C3420 C3422 1.389 . S
C3421 H3400 0.950 . S
C3421 C3420 1.373 . S
C3421 C3437 1.377 . S
C3422 C3420 1.389 . S
C3422 C3423 1.524 . S
C3422 C3436 1.377 . S
C3423 C3422 1.524 . S
C3423 C3424 1.397 . S
C3423 C3428 1.363 . S
C3424 H3401 0.950 . S
C3424 C3423 1.397 . S
C3424 C3425 1.334 . S
C3425 H3402 0.950 . S
C3425 C3424 1.334 . S
C3425 C3426 1.287 . S
C3426 C3425 1.287 . S
C3426 C3427 1.524 . S
C3426 H3445 0.913 . S
C3427 H3403 0.950 . S
C3427 C3426 1.524 . S
C3427 C3428 1.415 . S
C3428 H3404 0.950 . S
C3428 C3423 1.363 . S
C3428 C3427 1.415 . S
C3429 H3405 0.951 . S
C3429 C3430 1.366 . S
C3429 C3431 1.388 . S
C3430 C3429 1.366 . S
C3430 C3434 1.385 . S
C3431 H3406 0.951 . S
C3431 C3429 1.388 . S
C3431 C3432 1.366 . S
C3432 C3431 1.366 . S
C3432 C3433 1.414 . S
C3432 C3435 1.499 . S
C3433 H3407 0.950 . S
C3433 C3432 1.414 . S
C3433 C3434 1.374 . S
C3434 H3408 0.950 . S
C3434 C3430 1.385 . S
C3434 C3433 1.374 . S
C3435 C3432 1.499 . S
C3435 C3436 1.373 . S
C3435 C3437 1.389 . S
C3436 H3409 0.950 . S
C3436 C3422 1.377 . S
C3436 C3435 1.373 . S
C3437 C3421 1.377 . S
C3437 C3435 1.389 . S
C3437 C3438 1.524 . S
C3438 C3437 1.524 . S
C3438 C3439 1.397 . S
C3438 C3443 1.363 . S
C3439 H3410 0.950 . S
C3439 C3438 1.397 . S
C3439 C3440 1.334 . S
C3440 H3411 0.950 . S
C3440 C3439 1.334 . S
C3440 C3441 1.287 . S
C3441 C3440 1.287 . S
C3441 C3442 1.524 . S
C3441 H3444 0.999 . S
C3442 H3412 0.950 . S
C3442 C3441 1.524 . S
C3442 C3443 1.415 . S
C3443 H3413 0.950 . S
C3443 C3438 1.363 . S
C3443 C3442 1.415 . S
H3444 C3441 0.999 . S
H3445 C3426 0.913 . S
H3446 C3464 0.951 . S
H3447 C3466 0.951 . S
H3448 C3468 0.950 . S
H3449 C3469 0.950 . S
H3450 C3471 0.913 1_655 S
H3451 C3474 0.950 . S
H3452 C3475 0.950 . S
H3453 C3477 0.950 . S
H3454 C3478 0.950 . S
H3455 C3479 0.951 . S
H3456 C3481 0.951 . S
H3457 C3483 0.950 . S
H3458 C3484 0.950 . S
H3459 C3486 0.950 . S
H3460 C3489 0.950 . S
H3461 C3490 0.950 . S
H3462 C3492 0.950 . S
H3463 C3493 0.950 . S
C3464 H3446 0.951 . S
C3464 C3465 1.366 . S
C3464 C3466 1.388 . S
C3465 C3464 1.366 . S
C3465 C3469 1.385 . S
C3466 H3447 0.951 . S
C3466 C3464 1.388 . S
C3466 C3467 1.366 . S
C3467 C3466 1.366 . S
C3467 C3468 1.414 . S
C3467 C3470 1.499 . S
C3468 H3448 0.950 . S
C3468 C3467 1.414 . S
C3468 C3469 1.374 . S
C3469 H3449 0.950 . S
C3469 C3465 1.385 . S
C3469 C3468 1.374 . S
C3470 C3467 1.499 . S
C3470 C3471 1.373 . S
C3470 C3472 1.389 . S
C3471 H3450 0.913 1_455 S
C3471 C3470 1.373 . S
C3471 C3487 1.377 . S
C3472 C3470 1.389 . S
C3472 C3473 1.524 . S
C3472 C3486 1.377 . S
C3473 C3472 1.524 . S
C3473 C3474 1.397 . S
C3473 C3478 1.363 . S
C3474 H3451 0.950 . S
C3474 C3473 1.397 . S
C3474 C3475 1.334 . S
C3475 H3452 0.950 . S
C3475 C3474 1.334 . S
C3475 C3476 1.287 . S
C3476 C3475 1.287 . S
C3476 C3477 1.524 . S
C3476 H3495 0.913 . S
C3477 H3453 0.950 . S
C3477 C3476 1.524 . S
C3477 C3478 1.415 . S
C3478 H3454 0.950 . S
C3478 C3473 1.363 . S
C3478 C3477 1.415 . S
C3479 H3455 0.951 . S
C3479 C3480 1.366 . S
C3479 C3481 1.388 . S
C3480 C3479 1.366 . S
C3480 C3484 1.385 . S
C3481 H3456 0.951 . S
C3481 C3479 1.388 . S
C3481 C3482 1.366 . S
C3482 C3481 1.366 . S
C3482 C3483 1.414 . S
C3482 C3485 1.499 . S
C3483 H3457 0.950 . S
C3483 C3482 1.414 . S
C3483 C3484 1.374 . S
C3484 H3458 0.950 . S
C3484 C3480 1.385 . S
C3484 C3483 1.374 . S
C3485 C3482 1.499 . S
C3485 C3486 1.373 . S
C3485 C3487 1.389 . S
C3486 H3459 0.950 . S
C3486 C3472 1.377 . S
C3486 C3485 1.373 . S
C3487 C3471 1.377 . S
C3487 C3485 1.389 . S
C3487 C3488 1.524 1_455 S
C3488 C3487 1.524 1_655 S
C3488 C3489 1.397 . S
C3488 C3493 1.363 . S
C3489 H3460 0.950 . S
C3489 C3488 1.397 . S
C3489 C3490 1.334 . S
C3490 H3461 0.950 . S
C3490 C3489 1.334 . S
C3490 C3491 1.287 . S
C3491 C3490 1.287 . S
C3491 C3492 1.524 . S
C3491 H3494 0.999 . S
C3492 H3462 0.950 . S
C3492 C3491 1.524 . S
C3492 C3493 1.415 . S
C3493 H3463 0.950 . S
C3493 C3488 1.363 . S
C3493 C3492 1.415 . S
H3494 C3491 0.999 . S
H3495 C3476 0.913 . S
H3496 C3514 0.951 . S
H3497 C3516 0.951 . S
H3498 C3518 0.950 . S
H3499 C3519 0.950 . S
H3500 C3521 0.950 . S
H3501 C3524 0.950 . S
H3502 C3525 0.950 . S
H3503 C3527 0.950 . S
H3504 C3528 0.950 . S
H3505 C3529 0.951 . S
H3506 C3531 0.951 . S
H3507 C3533 0.950 . S
H3508 C3534 0.950 . S
H3509 C3536 0.950 . S
H3510 C3539 0.950 . S
H3511 C3540 0.950 . S
H3512 C3542 0.950 . S
H3513 C3543 0.950 . S
C3514 H3496 0.951 . S
C3514 C3515 1.366 . S
C3514 C3516 1.388 . S
C3515 C3514 1.366 . S
C3515 C3519 1.385 . S
C3516 H3497 0.951 . S
C3516 C3514 1.388 . S
C3516 C3517 1.366 . S
C3517 C3516 1.366 . S
C3517 C3518 1.414 . S
C3517 C3520 1.499 . S
C3518 H3498 0.950 . S
C3518 C3517 1.414 . S
C3518 C3519 1.374 . S
C3519 H3499 0.950 . S
C3519 C3515 1.385 . S
C3519 C3518 1.374 . S
C3520 C3517 1.499 . S
C3520 C3521 1.373 . S
C3520 C3522 1.389 . S
C3521 H3500 0.950 . S
C3521 C3520 1.373 . S
C3521 C3537 1.377 . S
C3522 C3520 1.389 . S
C3522 C3523 1.524 . S
C3522 C3536 1.377 . S
C3523 C3522 1.524 . S
C3523 C3524 1.397 . S
C3523 C3528 1.363 . S
C3524 H3501 0.950 . S
C3524 C3523 1.397 . S
C3524 C3525 1.334 . S
C3525 H3502 0.950 . S
C3525 C3524 1.334 . S
C3525 C3526 1.287 . S
C3526 C3525 1.287 . S
C3526 C3527 1.524 . S
C3526 H3545 0.913 . S
C3527 H3503 0.950 . S
C3527 C3526 1.524 . S
C3527 C3528 1.415 . S
C3528 H3504 0.950 . S
C3528 C3523 1.363 . S
C3528 C3527 1.415 . S
C3529 H3505 0.951 . S
C3529 C3530 1.366 . S
C3529 C3531 1.388 . S
C3530 C3529 1.366 . S
C3530 C3534 1.385 . S
C3531 H3506 0.951 . S
C3531 C3529 1.388 . S
C3531 C3532 1.366 . S
C3532 C3531 1.366 . S
C3532 C3533 1.414 . S
C3532 C3535 1.499 . S
C3533 H3507 0.950 . S
C3533 C3532 1.414 . S
C3533 C3534 1.374 . S
C3534 H3508 0.950 . S
C3534 C3530 1.385 . S
C3534 C3533 1.374 . S
C3535 C3532 1.499 . S
C3535 C3536 1.373 . S
C3535 C3537 1.389 . S
C3536 H3509 0.950 . S
C3536 C3522 1.377 . S
C3536 C3535 1.373 . S
C3537 C3521 1.377 . S
C3537 C3535 1.389 . S
C3537 C3538 1.524 . S
C3538 C3537 1.524 . S
C3538 C3539 1.397 . S
C3538 C3543 1.363 . S
C3539 H3510 0.950 . S
C3539 C3538 1.397 . S
C3539 C3540 1.334 . S
C3540 H3511 0.950 . S
C3540 C3539 1.334 . S
C3540 C3541 1.287 . S
C3541 C3540 1.287 . S
C3541 C3542 1.524 . S
C3541 H3544 0.999 . S
C3542 H3512 0.950 . S
C3542 C3541 1.524 . S
C3542 C3543 1.415 . S
C3543 H3513 0.950 . S
C3543 C3538 1.363 . S
C3543 C3542 1.415 . S
H3544 C3541 0.999 . S
H3545 C3526 0.913 . S
H3546 C3564 0.951 . S
H3547 C3566 0.951 . S
H3548 C3568 0.950 . S
H3549 C3569 0.950 . S
H3550 C3571 0.950 . S
H3551 C3574 0.950 . S
H3552 C3575 0.950 . S
H3553 C3577 0.950 . S
H3554 C3578 0.950 . S
H3555 C3579 0.951 . S
H3556 C3581 0.951 . S
H3557 C3583 0.950 . S
H3558 C3584 0.950 . S
H3559 C3586 0.950 . S
H3560 C3589 0.950 . S
H3561 C3590 0.950 . S
H3562 C3592 0.950 . S
H3563 C3593 0.950 . S
C3564 H3546 0.951 . S
C3564 C3565 1.366 . S
C3564 C3566 1.388 . S
C3565 C3564 1.366 . S
C3565 C3569 1.385 . S
C3566 H3547 0.951 . S
C3566 C3564 1.388 . S
C3566 C3567 1.366 . S
C3567 C3566 1.366 . S
C3567 C3568 1.414 . S
C3567 C3570 1.499 . S
C3568 H3548 0.950 . S
C3568 C3567 1.414 . S
C3568 C3569 1.374 . S
C3569 H3549 0.950 . S
C3569 C3565 1.385 . S
C3569 C3568 1.374 . S
C3570 C3567 1.499 . S
C3570 C3571 1.373 . S
C3570 C3572 1.389 . S
C3571 H3550 0.950 . S
C3571 C3570 1.373 . S
C3571 C3587 1.377 . S
C3572 C3570 1.389 . S
C3572 C3573 1.524 . S
C3572 C3586 1.377 . S
C3573 C3572 1.524 . S
C3573 C3574 1.397 . S
C3573 C3578 1.363 . S
C3574 H3551 0.950 . S
C3574 C3573 1.397 . S
C3574 C3575 1.334 . S
C3575 H3552 0.950 . S
C3575 C3574 1.334 . S
C3575 C3576 1.287 . S
C3576 C3575 1.287 . S
C3576 C3577 1.524 . S
C3576 H3595 0.913 . S
C3577 H3553 0.950 . S
C3577 C3576 1.524 . S
C3577 C3578 1.415 . S
C3578 H3554 0.950 . S
C3578 C3573 1.363 . S
C3578 C3577 1.415 . S
C3579 H3555 0.951 . S
C3579 C3580 1.366 . S
C3579 C3581 1.388 . S
C3580 C3579 1.366 . S
C3580 C3584 1.385 . S
C3581 H3556 0.951 . S
C3581 C3579 1.388 . S
C3581 C3582 1.366 . S
C3582 C3581 1.366 . S
C3582 C3583 1.414 . S
C3582 C3585 1.499 . S
C3583 H3557 0.950 . S
C3583 C3582 1.414 . S
C3583 C3584 1.374 . S
C3584 H3558 0.950 . S
C3584 C3580 1.385 . S
C3584 C3583 1.374 . S
C3585 C3582 1.499 . S
C3585 C3586 1.373 . S
C3585 C3587 1.389 . S
C3586 H3559 0.950 . S
C3586 C3572 1.377 . S
C3586 C3585 1.373 . S
C3587 C3571 1.377 . S
C3587 C3585 1.389 . S
C3587 C3588 1.524 . S
C3588 C3587 1.524 . S
C3588 C3589 1.397 . S
C3588 C3593 1.363 . S
C3589 H3560 0.950 . S
C3589 C3588 1.397 . S
C3589 C3590 1.334 . S
C3590 H3561 0.950 . S
C3590 C3589 1.334 . S
C3590 C3591 1.287 . S
C3591 C3590 1.287 . S
C3591 C3592 1.524 . S
C3591 H3594 0.999 . S
C3592 H3562 0.950 . S
C3592 C3591 1.524 . S
C3592 C3593 1.415 . S
C3593 H3563 0.950 . S
C3593 C3588 1.363 . S
C3593 C3592 1.415 . S
H3594 C3591 0.999 . S
H3595 C3576 0.913 . S
H3596 C3614 0.951 . S
H3597 C3616 0.951 . S
H3598 C3618 0.950 . S
H3599 C3619 0.950 . S
H3600 C3621 0.950 . S
H3601 C3624 0.950 . S
H3602 C3625 0.950 . S
H3603 C3627 0.950 . S
H3604 C3628 0.950 . S
H3605 C3629 0.951 . S
H3606 C3631 0.951 . S
H3607 C3633 0.950 . S
H3608 C3634 0.950 . S
H3609 C3636 0.950 . S
H3610 C3639 0.950 . S
H3611 C3640 0.950 . S
H3612 C3642 0.950 . S
H3613 C3643 0.950 . S
C3614 H3596 0.951 . S
C3614 C3615 1.366 . S
C3614 C3616 1.388 . S
C3615 C3614 1.366 . S
C3615 C3619 1.385 . S
C3616 H3597 0.951 . S
C3616 C3614 1.388 . S
C3616 C3617 1.366 . S
C3617 C3616 1.366 . S
C3617 C3618 1.414 . S
C3617 C3620 1.499 . S
C3618 H3598 0.950 . S
C3618 C3617 1.414 . S
C3618 C3619 1.374 . S
C3619 H3599 0.950 . S
C3619 C3615 1.385 . S
C3619 C3618 1.374 . S
C3620 C3617 1.499 . S
C3620 C3621 1.373 . S
C3620 C3622 1.389 . S
C3621 H3600 0.950 . S
C3621 C3620 1.373 . S
C3621 C3637 1.377 . S
C3622 C3620 1.389 . S
C3622 C3623 1.524 . S
C3622 C3636 1.377 . S
C3623 C3622 1.524 . S
C3623 C3624 1.397 . S
C3623 C3628 1.363 . S
C3624 H3601 0.950 . S
C3624 C3623 1.397 . S
C3624 C3625 1.334 . S
C3625 H3602 0.950 . S
C3625 C3624 1.334 . S
C3625 C3626 1.287 . S
C3626 C3625 1.287 . S
C3626 C3627 1.524 . S
C3626 H3645 0.913 . S
C3627 H3603 0.950 . S
C3627 C3626 1.524 . S
C3627 C3628 1.415 . S
C3628 H3604 0.950 . S
C3628 C3623 1.363 . S
C3628 C3627 1.415 . S
C3629 H3605 0.951 . S
C3629 C3630 1.366 . S
C3629 C3631 1.388 . S
C3630 C3629 1.366 . S
C3630 C3634 1.385 . S
C3631 H3606 0.951 . S
C3631 C3629 1.388 . S
C3631 C3632 1.366 . S
C3632 C3631 1.366 . S
C3632 C3633 1.414 . S
C3632 C3635 1.499 . S
C3633 H3607 0.950 . S
C3633 C3632 1.414 . S
C3633 C3634 1.374 . S
C3634 H3608 0.950 . S
C3634 C3630 1.385 . S
C3634 C3633 1.374 . S
C3635 C3632 1.499 . S
C3635 C3636 1.373 . S
C3635 C3637 1.389 . S
C3636 H3609 0.950 . S
C3636 C3622 1.377 . S
C3636 C3635 1.373 . S
C3637 C3621 1.377 . S
C3637 C3635 1.389 . S
C3637 C3638 1.524 . S
C3638 C3637 1.524 . S
C3638 C3639 1.397 . S
C3638 C3643 1.363 . S
C3639 H3610 0.950 . S
C3639 C3638 1.397 . S
C3639 C3640 1.334 . S
C3640 H3611 0.950 . S
C3640 C3639 1.334 . S
C3640 C3641 1.287 . S
C3641 C3640 1.287 . S
C3641 C3642 1.524 . S
C3641 H3644 0.999 . S
C3642 H3612 0.950 . S
C3642 C3641 1.524 . S
C3642 C3643 1.415 . S
C3643 H3613 0.950 . S
C3643 C3638 1.363 . S
C3643 C3642 1.415 . S
H3644 C3641 0.999 . S
H3645 C3626 0.913 . S
H3646 C3664 0.951 . S
H3647 C3666 0.951 . S
H3648 C3668 0.950 . S
H3649 C3669 0.950 . S
H3650 C3671 0.950 . S
H3651 C3674 0.950 . S
H3652 C3675 0.963 . S
H3653 C3677 0.950 . S
H3654 C3678 0.950 . S
H3655 C3679 0.951 . S
H3656 C3681 0.951 . S
H3657 C3683 0.950 . S
H3658 C3684 0.950 . S
H3659 C3686 0.950 . S
H3660 C3689 0.950 . S
H3661 C3690 0.950 . S
H3662 C3692 0.950 . S
H3663 C3693 0.950 . S
C3664 H3646 0.951 . S
C3664 C3665 1.366 . S
C3664 C3666 1.388 . S
C3665 C3664 1.366 . S
C3665 C3669 1.385 . S
C3666 H3647 0.951 . S
C3666 C3664 1.388 . S
C3666 C3667 1.366 . S
C3667 C3666 1.366 . S
C3667 C3668 1.414 . S
C3667 C3670 1.499 . S
C3668 H3648 0.950 . S
C3668 C3667 1.414 . S
C3668 C3669 1.374 . S
C3669 H3649 0.950 . S
C3669 C3665 1.385 . S
C3669 C3668 1.374 . S
C3670 C3667 1.499 . S
C3670 C3671 1.373 . S
C3670 C3672 1.389 . S
C3671 H3650 0.950 . S
C3671 C3670 1.373 . S
C3671 C3687 1.377 . S
C3672 C3670 1.389 . S
C3672 C3673 1.524 . S
C3672 C3686 1.377 . S
C3673 C3672 1.524 . S
C3673 C3674 1.397 . S
C3673 C3678 1.363 . S
C3674 H3651 0.950 . S
C3674 C3673 1.397 . S
C3674 C3675 1.334 . S
C3675 H3652 0.963 . S
C3675 C3674 1.334 . S
C3675 C3676 1.287 . S
C3676 C3675 1.287 . S
C3676 C3677 1.524 . S
C3676 H3695 0.913 . S
C3677 H3653 0.950 . S
C3677 C3676 1.524 . S
C3677 C3678 1.415 . S
C3678 H3654 0.950 . S
C3678 C3673 1.363 . S
C3678 C3677 1.415 . S
C3679 H3655 0.951 . S
C3679 C3680 1.366 . S
C3679 C3681 1.388 . S
C3680 C3679 1.366 . S
C3680 C3684 1.385 . S
C3681 H3656 0.951 . S
C3681 C3679 1.388 . S
C3681 C3682 1.366 . S
C3682 C3681 1.366 . S
C3682 C3683 1.414 . S
C3682 C3685 1.499 . S
C3683 H3657 0.950 . S
C3683 C3682 1.414 . S
C3683 C3684 1.374 . S
C3684 H3658 0.950 . S
C3684 C3680 1.385 . S
C3684 C3683 1.374 . S
C3685 C3682 1.499 . S
C3685 C3686 1.373 . S
C3685 C3687 1.389 . S
C3686 H3659 0.950 . S
C3686 C3672 1.377 . S
C3686 C3685 1.373 . S
C3687 C3671 1.377 . S
C3687 C3685 1.389 . S
C3687 C3688 1.524 . S
C3688 C3687 1.524 . S
C3688 C3689 1.397 . S
C3688 C3693 1.363 . S
C3689 H3660 0.950 . S
C3689 C3688 1.397 . S
C3689 C3690 1.334 . S
C3690 H3661 0.950 . S
C3690 C3689 1.334 . S
C3690 C3691 1.287 . S
C3691 C3690 1.287 . S
C3691 C3692 1.524 . S
C3691 H3694 0.999 . S
C3692 H3662 0.950 . S
C3692 C3691 1.524 . S
C3692 C3693 1.415 . S
C3693 H3663 0.950 . S
C3693 C3688 1.363 . S
C3693 C3692 1.415 . S
H3694 C3691 0.999 . S
H3695 C3676 0.913 . S
H3696 C3714 0.951 . S
H3697 C3716 0.951 . S
H3698 C3718 0.950 . S
H3699 C3719 0.950 . S
H3700 C3721 0.950 . S
H3701 C3724 0.950 . S
H3702 C3725 0.950 . S
H3703 C3727 0.950 . S
H3704 C3728 0.950 . S
H3705 C3729 0.951 . S
H3706 C3731 0.951 . S
H3707 C3733 0.950 . S
H3708 C3734 0.950 . S
H3709 C3736 0.950 . S
H3710 C3739 0.950 . S
H3711 C3740 0.950 . S
H3712 C3742 0.950 . S
H3713 C3743 0.950 . S
C3714 H3696 0.951 . S
C3714 C3715 1.366 . S
C3714 C3716 1.388 . S
C3715 C3714 1.366 . S
C3715 C3719 1.385 . S
C3716 H3697 0.951 . S
C3716 C3714 1.388 . S
C3716 C3717 1.366 . S
C3717 C3716 1.366 . S
C3717 C3718 1.414 . S
C3717 C3720 1.499 . S
C3718 H3698 0.950 . S
C3718 C3717 1.414 . S
C3718 C3719 1.374 . S
C3719 H3699 0.950 . S
C3719 C3715 1.385 . S
C3719 C3718 1.374 . S
C3720 C3717 1.499 . S
C3720 C3721 1.373 . S
C3720 C3722 1.389 . S
C3721 H3700 0.950 . S
C3721 C3720 1.373 . S
C3721 C3737 1.377 . S
C3722 C3720 1.389 . S
C3722 C3723 1.524 . S
C3722 C3736 1.377 . S
C3723 C3722 1.524 . S
C3723 C3724 1.397 . S
C3723 C3728 1.363 . S
C3724 H3701 0.950 . S
C3724 C3723 1.397 . S
C3724 C3725 1.334 . S
C3725 H3702 0.950 . S
C3725 C3724 1.334 . S
C3725 C3726 1.287 . S
C3726 C3725 1.287 . S
C3726 C3727 1.524 . S
C3726 H3745 0.913 . S
C3727 H3703 0.950 . S
C3727 C3726 1.524 . S
C3727 C3728 1.415 . S
C3728 H3704 0.950 . S
C3728 C3723 1.363 . S
C3728 C3727 1.415 . S
C3729 H3705 0.951 . S
C3729 C3730 1.366 . S
C3729 C3731 1.388 . S
C3730 C3729 1.366 . S
C3730 C3734 1.385 . S
C3731 H3706 0.951 . S
C3731 C3729 1.388 . S
C3731 C3732 1.366 . S
C3732 C3731 1.366 . S
C3732 C3733 1.414 . S
C3732 C3735 1.499 . S
C3733 H3707 0.950 . S
C3733 C3732 1.414 . S
C3733 C3734 1.374 . S
C3734 H3708 0.950 . S
C3734 C3730 1.385 . S
C3734 C3733 1.374 . S
C3735 C3732 1.499 . S
C3735 C3736 1.373 . S
C3735 C3737 1.389 . S
C3736 H3709 0.950 . S
C3736 C3722 1.377 . S
C3736 C3735 1.373 . S
C3737 C3721 1.377 . S
C3737 C3735 1.389 . S
C3737 C3738 1.524 . S
C3738 C3737 1.524 . S
C3738 C3739 1.397 . S
C3738 C3743 1.363 . S
C3739 H3710 0.950 . S
C3739 C3738 1.397 . S
C3739 C3740 1.334 . S
C3740 H3711 0.950 . S
C3740 C3739 1.334 . S
C3740 C3741 1.287 . S
C3741 C3740 1.287 . S
C3741 C3742 1.524 . S
C3741 H3744 0.999 . S
C3742 H3712 0.950 . S
C3742 C3741 1.524 . S
C3742 C3743 1.415 . S
C3743 H3713 0.950 . S
C3743 C3738 1.363 . S
C3743 C3742 1.415 . S
H3744 C3741 0.999 . S
H3745 C3726 0.913 . S
H3746 C3764 0.951 . S
H3747 C3766 0.951 . S
H3748 C3768 0.950 . S
H3749 C3769 0.950 . S
H3750 C3771 0.950 . S
H3751 C3774 0.950 . S
H3752 C3775 0.950 . S
H3753 C3777 0.950 . S
H3754 C3778 0.950 . S
H3755 C3779 0.951 . S
H3756 C3781 0.951 . S
H3757 C3783 0.950 . S
H3758 C3784 0.950 . S
H3759 C3786 0.950 . S
H3760 C3789 0.950 . S
H3761 C3790 0.950 . S
H3762 C3792 0.950 . S
H3763 C3793 0.950 . S
C3764 H3746 0.951 . S
C3764 C3765 1.366 . S
C3764 C3766 1.388 . S
C3765 C3764 1.366 . S
C3765 C3769 1.385 . S
C3766 H3747 0.951 . S
C3766 C3764 1.388 . S
C3766 C3767 1.366 . S
C3767 C3766 1.366 . S
C3767 C3768 1.414 . S
C3767 C3770 1.499 . S
C3768 H3748 0.950 . S
C3768 C3767 1.414 . S
C3768 C3769 1.374 . S
C3769 H3749 0.950 . S
C3769 C3765 1.385 . S
C3769 C3768 1.374 . S
C3770 C3767 1.499 . S
C3770 C3771 1.373 . S
C3770 C3772 1.389 . S
C3771 H3750 0.950 . S
C3771 C3770 1.373 . S
C3771 C3787 1.377 . S
C3772 C3770 1.389 . S
C3772 C3773 1.524 . S
C3772 C3786 1.377 . S
C3773 C3772 1.524 . S
C3773 C3774 1.397 . S
C3773 C3778 1.363 . S
C3774 H3751 0.950 . S
C3774 C3773 1.397 . S
C3774 C3775 1.334 . S
C3775 H3752 0.950 . S
C3775 C3774 1.334 . S
C3775 C3776 1.287 . S
C3776 C3775 1.287 . S
C3776 C3777 1.524 . S
C3776 H3795 0.913 . S
C3777 H3753 0.950 . S
C3777 C3776 1.524 . S
C3777 C3778 1.415 . S
C3778 H3754 0.950 . S
C3778 C3773 1.363 . S
C3778 C3777 1.415 . S
C3779 H3755 0.951 . S
C3779 C3780 1.366 . S
C3779 C3781 1.388 . S
C3780 C3779 1.366 . S
C3780 C3784 1.385 . S
C3781 H3756 0.951 . S
C3781 C3779 1.388 . S
C3781 C3782 1.366 . S
C3782 C3781 1.366 . S
C3782 C3783 1.414 . S
C3782 C3785 1.499 . S
C3783 H3757 0.950 . S
C3783 C3782 1.414 . S
C3783 C3784 1.374 . S
C3784 H3758 0.950 . S
C3784 C3780 1.385 . S
C3784 C3783 1.374 . S
C3785 C3782 1.499 . S
C3785 C3786 1.373 . S
C3785 C3787 1.389 . S
C3786 H3759 0.950 . S
C3786 C3772 1.377 . S
C3786 C3785 1.373 . S
C3787 C3771 1.377 . S
C3787 C3785 1.389 . S
C3787 C3788 1.524 . S
C3788 C3787 1.524 . S
C3788 C3789 1.397 . S
C3788 C3793 1.363 . S
C3789 H3760 0.950 . S
C3789 C3788 1.397 . S
C3789 C3790 1.334 . S
C3790 H3761 0.950 . S
C3790 C3789 1.334 . S
C3790 C3791 1.287 . S
C3791 C3790 1.287 . S
C3791 C3792 1.524 . S
C3791 H3794 0.999 . S
C3792 H3762 0.950 . S
C3792 C3791 1.524 . S
C3792 C3793 1.415 . S
C3793 H3763 0.950 . S
C3793 C3788 1.363 . S
C3793 C3792 1.415 . S
H3794 C3791 0.999 . S
H3795 C3776 0.913 . S
H3796 C3814 0.951 . S
H3797 C3816 0.951 . S
H3798 C3818 0.950 . S
H3799 C3819 0.950 . S
H3800 C3821 0.950 . S
H3801 C3824 0.950 . S
H3802 C3825 0.950 . S
H3803 C3827 0.950 . S
H3804 C3828 0.950 . S
H3805 C3829 0.951 . S
H3806 C3831 0.951 . S
H3807 C3833 0.950 . S
H3808 C3834 0.950 . S
H3809 C3836 0.950 . S
H3810 C3839 0.950 . S
H3811 C3840 0.950 . S
H3812 C3842 0.950 . S
H3813 C3843 0.950 . S
C3814 H3796 0.951 . S
C3814 C3815 1.366 . S
C3814 C3816 1.388 . S
C3815 C3814 1.366 . S
C3815 C3819 1.385 . S
C3816 H3797 0.951 . S
C3816 C3814 1.388 . S
C3816 C3817 1.366 . S
C3817 C3816 1.366 . S
C3817 C3818 1.414 . S
C3817 C3820 1.499 . S
C3818 H3798 0.950 . S
C3818 C3817 1.414 . S
C3818 C3819 1.374 . S
C3819 H3799 0.950 . S
C3819 C3815 1.385 . S
C3819 C3818 1.374 . S
C3820 C3817 1.499 . S
C3820 C3821 1.373 . S
C3820 C3822 1.389 . S
C3821 H3800 0.950 . S
C3821 C3820 1.373 . S
C3821 C3837 1.377 . S
C3822 C3820 1.389 . S
C3822 C3823 1.524 . S
C3822 C3836 1.377 . S
C3823 C3822 1.524 . S
C3823 C3824 1.397 . S
C3823 C3828 1.363 . S
C3824 H3801 0.950 . S
C3824 C3823 1.397 . S
C3824 C3825 1.334 . S
C3825 H3802 0.950 . S
C3825 C3824 1.334 . S
C3825 C3826 1.287 . S
C3826 C3825 1.287 . S
C3826 C3827 1.524 . S
C3826 H3845 0.913 . S
C3827 H3803 0.950 . S
C3827 C3826 1.524 . S
C3827 C3828 1.415 . S
C3828 H3804 0.950 . S
C3828 C3823 1.363 . S
C3828 C3827 1.415 . S
C3829 H3805 0.951 . S
C3829 C3830 1.366 . S
C3829 C3831 1.388 . S
C3830 C3829 1.366 . S
C3830 C3834 1.385 . S
C3831 H3806 0.951 . S
C3831 C3829 1.388 . S
C3831 C3832 1.366 . S
C3832 C3831 1.366 . S
C3832 C3833 1.414 . S
C3832 C3835 1.499 . S
C3833 H3807 0.950 . S
C3833 C3832 1.414 . S
C3833 C3834 1.374 . S
C3834 H3808 0.950 . S
C3834 C3830 1.385 . S
C3834 C3833 1.374 . S
C3835 C3832 1.499 . S
C3835 C3836 1.373 . S
C3835 C3837 1.389 . S
C3836 H3809 0.950 . S
C3836 C3822 1.377 . S
C3836 C3835 1.373 . S
C3837 C3821 1.377 . S
C3837 C3835 1.389 . S
C3837 C3838 1.524 . S
C3838 C3837 1.524 . S
C3838 C3839 1.397 . S
C3838 C3843 1.363 . S
C3839 H3810 0.950 . S
C3839 C3838 1.397 . S
C3839 C3840 1.334 . S
C3840 H3811 0.950 . S
C3840 C3839 1.334 . S
C3840 C3841 1.287 . S
C3841 C3840 1.287 . S
C3841 C3842 1.524 . S
C3841 H3844 0.999 . S
C3842 H3812 0.950 . S
C3842 C3841 1.524 . S
C3842 C3843 1.415 . S
C3843 H3813 0.950 . S
C3843 C3838 1.363 . S
C3843 C3842 1.415 . S
H3844 C3841 0.999 . S
H3845 C3826 0.913 . S
H3846 C3864 0.951 . S
H3847 C3866 0.951 . S
H3848 C3868 0.950 . S
H3849 C3869 0.950 . S
H3850 C3871 0.950 . S
H3851 C3874 0.950 . S
H3852 C3875 0.950 . S
H3853 C3877 0.950 . S
H3854 C3878 0.950 . S
H3855 C3879 0.951 . S
H3856 C3881 0.951 . S
H3857 C3883 0.950 . S
H3858 C3884 0.950 . S
H3859 C3886 0.950 . S
H3860 C3889 0.950 . S
H3861 C3890 0.950 . S
H3862 C3892 0.950 . S
H3863 C3893 0.950 . S
C3864 H3846 0.951 . S
C3864 C3865 1.366 . S
C3864 C3866 1.388 . S
C3865 C3864 1.366 . S
C3865 C3869 1.385 . S
C3866 H3847 0.951 . S
C3866 C3864 1.388 . S
C3866 C3867 1.366 . S
C3867 C3866 1.366 . S
C3867 C3868 1.414 . S
C3867 C3870 1.499 . S
C3868 H3848 0.950 . S
C3868 C3867 1.414 . S
C3868 C3869 1.374 . S
C3869 H3849 0.950 . S
C3869 C3865 1.385 . S
C3869 C3868 1.374 . S
C3870 C3867 1.499 . S
C3870 C3871 1.373 . S
C3870 C3872 1.389 . S
C3871 H3850 0.950 . S
C3871 C3870 1.373 . S
C3871 C3887 1.377 . S
C3872 C3870 1.389 . S
C3872 C3873 1.524 . S
C3872 C3886 1.377 . S
C3873 C3872 1.524 . S
C3873 C3874 1.397 . S
C3873 C3878 1.363 . S
C3874 H3851 0.950 . S
C3874 C3873 1.397 . S
C3874 C3875 1.334 . S
C3875 H3852 0.950 . S
C3875 C3874 1.334 . S
C3875 C3876 1.287 . S
C3876 C3875 1.287 . S
C3876 C3877 1.524 . S
C3876 H3895 0.913 . S
C3877 H3853 0.950 . S
C3877 C3876 1.524 . S
C3877 C3878 1.415 . S
C3878 H3854 0.950 . S
C3878 C3873 1.363 . S
C3878 C3877 1.415 . S
C3879 H3855 0.951 . S
C3879 C3880 1.366 . S
C3879 C3881 1.388 . S
C3880 C3879 1.366 . S
C3880 C3884 1.385 . S
C3881 H3856 0.951 . S
C3881 C3879 1.388 . S
C3881 C3882 1.366 . S
C3882 C3881 1.366 . S
C3882 C3883 1.414 . S
C3882 C3885 1.499 . S
C3883 H3857 0.950 . S
C3883 C3882 1.414 . S
C3883 C3884 1.374 . S
C3884 H3858 0.950 . S
C3884 C3880 1.385 . S
C3884 C3883 1.374 . S
C3885 C3882 1.499 . S
C3885 C3886 1.373 . S
C3885 C3887 1.389 . S
C3886 H3859 0.950 . S
C3886 C3872 1.377 . S
C3886 C3885 1.373 . S
C3887 C3871 1.377 . S
C3887 C3885 1.389 . S
C3887 C3888 1.524 . S
C3888 C3887 1.524 . S
C3888 C3889 1.397 . S
C3888 C3893 1.363 . S
C3889 H3860 0.950 . S
C3889 C3888 1.397 . S
C3889 C3890 1.334 . S
C3890 H3861 0.950 . S
C3890 C3889 1.334 . S
C3890 C3891 1.287 . S
C3891 C3890 1.287 . S
C3891 C3892 1.524 . S
C3891 H3894 0.999 . S
C3892 H3862 0.950 . S
C3892 C3891 1.524 . S
C3892 C3893 1.415 . S
C3893 H3863 0.950 . S
C3893 C3888 1.363 . S
C3893 C3892 1.415 . S
H3894 C3891 0.999 . S
H3895 C3876 0.913 . S
H3896 C3914 0.951 . S
H3897 C3916 0.951 . S
H3898 C3918 0.950 1_554 S
H3899 C3919 0.952 1_554 S
H3900 C3921 0.950 1_554 S
H3901 C3924 0.950 . S
H3902 C3925 0.950 . S
H3903 C3927 0.950 . S
H3904 C3928 0.950 . S
H3905 C3929 0.951 . S
H3906 C3931 0.952 . S
H3907 C3933 0.950 . S
H3908 C3934 0.950 . S
H3909 C3936 0.950 . S
H3910 C3939 0.950 1_556 S
H3911 C3940 0.950 . S
H3912 C3942 0.950 . S
H3913 C3943 0.950 . S
C3914 H3896 0.951 . S
C3914 C3915 1.366 . S
C3914 C3916 1.388 . S
C3915 C3914 1.366 . S
C3915 C3919 1.385 . S
C3916 H3897 0.951 . S
C3916 C3914 1.388 . S
C3916 C3917 1.366 . S
C3917 C3916 1.366 . S
C3917 C3918 1.414 . S
C3917 C3920 1.499 . S
C3918 H3898 0.950 1_556 S
C3918 C3917 1.414 . S
C3918 C3919 1.374 . S
C3919 H3899 0.952 1_556 S
C3919 C3915 1.385 . S
C3919 C3918 1.374 . S
C3920 C3917 1.499 . S
C3920 C3921 1.373 . S
C3920 C3922 1.389 . S
C3921 H3900 0.950 1_556 S
C3921 C3920 1.373 . S
C3921 C3937 1.377 . S
C3922 C3920 1.389 . S
C3922 C3923 1.524 . S
C3922 C3936 1.377 . S
C3923 C3922 1.524 . S
C3923 C3924 1.397 . S
C3923 C3928 1.363 . S
C3924 H3901 0.950 . S
C3924 C3923 1.397 . S
C3924 C3925 1.334 . S
C3925 H3902 0.950 . S
C3925 C3924 1.334 . S
C3925 C3926 1.287 . S
C3926 C3925 1.287 . S
C3926 C3927 1.524 . S
C3926 H3945 0.913 . S
C3927 H3903 0.950 . S
C3927 C3926 1.524 . S
C3927 C3928 1.415 . S
C3928 H3904 0.950 . S
C3928 C3923 1.363 . S
C3928 C3927 1.415 . S
C3929 H3905 0.951 . S
C3929 C3930 1.366 1_554 S
C3929 C3931 1.388 . S
C3930 C3929 1.366 1_556 S
C3930 C3934 1.385 . S
C3931 H3906 0.952 . S
C3931 C3929 1.388 . S
C3931 C3932 1.364 1_554 S
C3932 C3931 1.364 1_556 S
C3932 C3933 1.414 . S
C3932 C3935 1.499 . S
C3933 H3907 0.950 . S
C3933 C3932 1.414 . S
C3933 C3934 1.374 . S
C3934 H3908 0.950 . S
C3934 C3930 1.385 . S
C3934 C3933 1.374 . S
C3935 C3932 1.499 . S
C3935 C3936 1.373 . S
C3935 C3937 1.389 . S
C3936 H3909 0.950 . S
C3936 C3922 1.377 . S
C3936 C3935 1.373 . S
C3937 C3921 1.377 . S
C3937 C3935 1.389 . S
C3937 C3938 1.524 1_556 S
C3938 C3937 1.524 1_554 S
C3938 C3939 1.397 . S
C3938 C3943 1.363 . S
C3939 H3910 0.950 1_554 S
C3939 C3938 1.397 . S
C3939 C3940 1.334 . S
C3940 H3911 0.950 . S
C3940 C3939 1.334 . S
C3940 C3941 1.287 . S
C3941 C3940 1.287 . S
C3941 C3942 1.524 . S
C3941 H3944 0.999 . S
C3942 H3912 0.950 . S
C3942 C3941 1.524 . S
C3942 C3943 1.415 . S
C3943 H3913 0.950 . S
C3943 C3938 1.363 . S
C3943 C3942 1.415 . S
H3944 C3941 0.999 . S
H3945 C3926 0.913 . S
H3946 C3964 0.951 . S
H3947 C3966 0.951 . S
H3948 C3968 0.950 . S
H3949 C3969 0.950 . S
H3950 C3971 0.950 . S
H3951 C3974 0.950 . S
H3952 C3975 0.950 . S
H3953 C3977 0.950 . S
H3954 C3978 0.950 . S
H3955 C3979 0.951 . S
H3956 C3981 0.951 . S
H3957 C3983 0.950 . S
H3958 C3984 0.950 . S
H3959 C3986 0.950 . S
H3960 C3989 0.950 . S
H3961 C3990 0.950 . S
H3962 C3992 0.950 . S
H3963 C3993 0.950 . S
C3964 H3946 0.951 . S
C3964 C3965 1.366 . S
C3964 C3966 1.388 . S
C3965 C3964 1.366 . S
C3965 C3969 1.385 . S
C3966 H3947 0.951 . S
C3966 C3964 1.388 . S
C3966 C3967 1.366 . S
C3967 C3966 1.366 . S
C3967 C3968 1.414 . S
C3967 C3970 1.499 . S
C3968 H3948 0.950 . S
C3968 C3967 1.414 . S
C3968 C3969 1.374 . S
C3969 H3949 0.950 . S
C3969 C3965 1.385 . S
C3969 C3968 1.374 . S
C3970 C3967 1.499 . S
C3970 C3971 1.373 . S
C3970 C3972 1.389 . S
C3971 H3950 0.950 . S
C3971 C3970 1.373 . S
C3971 C3987 1.377 . S
C3972 C3970 1.389 . S
C3972 C3973 1.524 . S
C3972 C3986 1.377 . S
C3973 C3972 1.524 . S
C3973 C3974 1.397 . S
C3973 C3978 1.363 . S
C3974 H3951 0.950 . S
C3974 C3973 1.397 . S
C3974 C3975 1.334 . S
C3975 H3952 0.950 . S
C3975 C3974 1.334 . S
C3975 C3976 1.287 . S
C3976 C3975 1.287 . S
C3976 C3977 1.524 . S
C3976 H3995 0.913 . S
C3977 H3953 0.950 . S
C3977 C3976 1.524 . S
C3977 C3978 1.415 . S
C3978 H3954 0.950 . S
C3978 C3973 1.363 . S
C3978 C3977 1.415 . S
C3979 H3955 0.951 . S
C3979 C3980 1.366 . S
C3979 C3981 1.388 . S
C3980 C3979 1.366 . S
C3980 C3984 1.385 . S
C3981 H3956 0.951 . S
C3981 C3979 1.388 . S
C3981 C3982 1.366 . S
C3982 C3981 1.366 . S
C3982 C3983 1.414 . S
C3982 C3985 1.499 . S
C3983 H3957 0.950 . S
C3983 C3982 1.414 . S
C3983 C3984 1.374 . S
C3984 H3958 0.950 . S
C3984 C3980 1.385 . S
C3984 C3983 1.374 . S
C3985 C3982 1.499 . S
C3985 C3986 1.373 . S
C3985 C3987 1.389 . S
C3986 H3959 0.950 . S
C3986 C3972 1.377 . S
C3986 C3985 1.373 . S
C3987 C3971 1.377 . S
C3987 C3985 1.389 . S
C3987 C3988 1.524 . S
C3988 C3987 1.524 . S
C3988 C3989 1.397 . S
C3988 C3993 1.363 . S
C3989 H3960 0.950 . S
C3989 C3988 1.397 . S
C3989 C3990 1.334 . S
C3990 H3961 0.950 . S
C3990 C3989 1.334 . S
C3990 C3991 1.287 . S
C3991 C3990 1.287 . S
C3991 C3992 1.524 . S
C3991 H3994 0.999 . S
C3992 H3962 0.950 . S
C3992 C3991 1.524 . S
C3992 C3993 1.415 . S
C3993 H3963 0.950 . S
C3993 C3988 1.363 . S
C3993 C3992 1.415 . S
H3994 C3991 0.999 . S
H3995 C3976 0.913 . S
H3996 C4014 0.951 . S
H3997 C4016 0.951 . S
H3998 C4018 0.950 . S
H3999 C4019 0.950 . S
H4000 C4021 0.950 1_556 S
H4001 C4024 0.950 . S
H4002 C4025 0.950 . S
H4003 C4027 0.950 . S
H4004 C4028 0.950 . S
H4005 C4029 0.951 1_556 S
H4006 C4031 0.963 . S
H4007 C4033 0.950 . S
H4008 C4034 0.950 . S
H4009 C4036 0.950 . S
H4010 C4039 0.950 . S
H4011 C4040 0.950 . S
H4012 C4042 0.950 . S
H4013 C4043 0.950 . S
C4014 H3996 0.951 . S
C4014 C4015 1.366 . S
C4014 C4016 1.388 . S
C4015 C4014 1.366 . S
C4015 C4019 1.385 . S
C4016 H3997 0.951 . S
C4016 C4014 1.388 . S
C4016 C4017 1.366 . S
C4017 C4016 1.366 . S
C4017 C4018 1.414 . S
C4017 C4020 1.499 . S
C4018 H3998 0.950 . S
C4018 C4017 1.414 . S
C4018 C4019 1.374 . S
C4019 H3999 0.950 . S
C4019 C4015 1.385 . S
C4019 C4018 1.374 . S
C4020 C4017 1.499 . S
C4020 C4021 1.373 . S
C4020 C4022 1.389 . S
C4021 H4000 0.950 1_554 S
C4021 C4020 1.373 . S
C4021 C4037 1.377 . S
C4022 C4020 1.389 . S
C4022 C4023 1.524 . S
C4022 C4036 1.377 . S
C4023 C4022 1.524 . S
C4023 C4024 1.397 . S
C4023 C4028 1.363 . S
C4024 H4001 0.950 . S
C4024 C4023 1.397 . S
C4024 C4025 1.334 . S
C4025 H4002 0.950 . S
C4025 C4024 1.334 . S
C4025 C4026 1.287 . S
C4026 C4025 1.287 . S
C4026 C4027 1.524 . S
C4026 H4045 0.913 . S
C4027 H4003 0.950 . S
C4027 C4026 1.524 . S
C4027 C4028 1.415 . S
C4028 H4004 0.950 . S
C4028 C4023 1.363 . S
C4028 C4027 1.415 . S
C4029 H4005 0.951 1_554 S
C4029 C4030 1.366 . S
C4029 C4031 1.388 . S
C4030 C4029 1.366 . S
C4030 C4034 1.385 . S
C4031 H4006 0.963 . S
C4031 C4029 1.388 . S
C4031 C4032 1.366 . S
C4032 C4031 1.366 . S
C4032 C4033 1.414 . S
C4032 C4035 1.499 . S
C4033 H4007 0.950 . S
C4033 C4032 1.414 . S
C4033 C4034 1.374 . S
C4034 H4008 0.950 . S
C4034 C4030 1.385 . S
C4034 C4033 1.374 . S
C4035 C4032 1.499 . S
C4035 C4036 1.373 . S
C4035 C4037 1.389 . S
C4036 H4009 0.950 . S
C4036 C4022 1.377 . S
C4036 C4035 1.373 . S
C4037 C4021 1.377 . S
C4037 C4035 1.389 . S
C4037 C4038 1.524 1_554 S
C4038 C4037 1.524 1_556 S
C4038 C4039 1.397 . S
C4038 C4043 1.363 . S
C4039 H4010 0.950 . S
C4039 C4038 1.397 . S
C4039 C4040 1.334 . S
C4040 H4011 0.950 . S
C4040 C4039 1.334 . S
C4040 C4041 1.287 . S
C4041 C4040 1.287 . S
C4041 C4042 1.524 . S
C4041 H4044 0.999 . S
C4042 H4012 0.950 . S
C4042 C4041 1.524 . S
C4042 C4043 1.415 . S
C4043 H4013 0.950 . S
C4043 C4038 1.363 . S
C4043 C4042 1.415 . S
H4044 C4041 0.999 . S
H4045 C4026 0.913 . S
H4046 C4064 0.951 . S
H4047 C4066 0.951 . S
H4048 C4068 0.950 . S
H4049 C4069 0.950 . S
H4050 C4071 0.950 . S
H4051 C4074 0.950 . S
H4052 C4075 0.950 . S
H4053 C4077 0.950 . S
H4054 C4078 0.950 . S
H4055 C4079 0.951 . S
H4056 C4081 0.951 . S
H4057 C4083 0.950 . S
H4058 C4084 0.950 . S
H4059 C4086 0.960 . S
H4060 C4089 0.950 . S
H4061 C4090 0.950 . S
H4062 C4092 0.950 . S
H4063 C4093 0.950 . S
C4064 H4046 0.951 . S
C4064 C4065 1.366 . S
C4064 C4066 1.388 . S
C4065 C4064 1.366 . S
C4065 C4069 1.385 . S
C4066 H4047 0.951 . S
C4066 C4064 1.388 . S
C4066 C4067 1.366 . S
C4067 C4066 1.366 . S
C4067 C4068 1.414 . S
C4067 C4070 1.499 . S
C4068 H4048 0.950 . S
C4068 C4067 1.414 . S
C4068 C4069 1.374 . S
C4069 H4049 0.950 . S
C4069 C4065 1.385 . S
C4069 C4068 1.374 . S
C4070 C4067 1.499 . S
C4070 C4071 1.373 . S
C4070 C4072 1.389 . S
C4071 H4050 0.950 . S
C4071 C4070 1.373 . S
C4071 C4087 1.377 . S
C4072 C4070 1.389 . S
C4072 C4073 1.524 1_554 S
C4072 C4086 1.377 . S
C4073 C4072 1.524 1_556 S
C4073 C4074 1.397 . S
C4073 C4078 1.363 . S
C4074 H4051 0.950 . S
C4074 C4073 1.397 . S
C4074 C4075 1.334 . S
C4075 H4052 0.950 . S
C4075 C4074 1.334 . S
C4075 C4076 1.287 . S
C4076 C4075 1.287 . S
C4076 C4077 1.524 . S
C4076 H4095 0.913 . S
C4077 H4053 0.950 . S
C4077 C4076 1.524 . S
C4077 C4078 1.415 . S
C4078 H4054 0.950 . S
C4078 C4073 1.363 . S
C4078 C4077 1.415 . S
C4079 H4055 0.951 . S
C4079 C4080 1.366 . S
C4079 C4081 1.388 . S
C4080 C4079 1.366 . S
C4080 C4084 1.385 . S
C4081 H4056 0.951 . S
C4081 C4079 1.388 . S
C4081 C4082 1.366 . S
C4082 C4081 1.366 . S
C4082 C4083 1.414 . S
C4082 C4085 1.499 . S
C4083 H4057 0.950 . S
C4083 C4082 1.414 . S
C4083 C4084 1.374 . S
C4084 H4058 0.950 . S
C4084 C4080 1.385 . S
C4084 C4083 1.374 . S
C4085 C4082 1.499 . S
C4085 C4086 1.373 . S
C4085 C4087 1.389 . S
C4086 H4059 0.960 . S
C4086 C4072 1.377 . S
C4086 C4085 1.373 . S
C4087 C4071 1.377 . S
C4087 C4085 1.389 . S
C4087 C4088 1.524 . S
C4088 C4087 1.524 . S
C4088 C4089 1.397 . S
C4088 C4093 1.363 . S
C4089 H4060 0.950 . S
C4089 C4088 1.397 . S
C4089 C4090 1.334 . S
C4090 H4061 0.950 . S
C4090 C4089 1.334 . S
C4090 C4091 1.287 . S
C4091 C4090 1.287 . S
C4091 C4092 1.524 . S
C4091 H4094 0.999 . S
C4092 H4062 0.950 . S
C4092 C4091 1.524 . S
C4092 C4093 1.415 . S
C4093 H4063 0.950 . S
C4093 C4088 1.363 . S
C4093 C4092 1.415 . S
H4094 C4091 0.999 . S
H4095 C4076 0.913 . S
C1730 C689 1.488 . S
C1715 C202 1.466 . S
C1780 C748 1.545 . S
C1765 C261 1.543 . S
C1815 C282 1.514 . S
C1830 C865 1.529 . S
C1880 C933 1.525 . S
C1865 C162 1.517 . S
C1930 C1012 1.489 . S
C1915 C402 1.466 . S
C1980 C1137 1.524 . S
C1965 C482 1.517 . S
C2015 C442 1.514 . S
C2030 C1197 1.521 . S
C2080 C1305 1.545 . S
C2065 C381 1.542 . S
C2115 C461 1.562 . S
C2130 C1401 1.565 . S
C2180 C1461 1.492 . S
C2165 C362 1.485 . S
C2215 C415 1.454 . S
C2230 C1364 1.456 . S
C2280 C1481 1.547 . S
C2265 C495 1.547 . S
C2315 C301 1.563 . S
C2330 C1549 1.566 . S
C2365 C175 1.547 . S
C2380 C1540 1.548 . S
C2415 C215 1.454 . S
C2430 C1569 1.456 . S
C2465 C242 1.485 . S
C2480 C1577 1.492 . S
C2515 C141 1.537 . S
C2530 C961 1.558 . S
C2565 C581 1.536 . S
C2580 C924 1.558 . S
C2630 C660 1.459 . S
C2615 C615 1.458 . S
C2680 C757 1.493 . S
C2665 C335 1.492 . S
C2715 C181 1.590 . S
C2730 C1021 1.593 . S
C2780 C1313 1.493 . S
C2765 C455 1.492 . S
C2830 C1041 1.458 . S
C2815 C375 1.458 . S
C2880 C1225 1.594 . S
C2865 C501 1.590 . S
C2930 C1217 1.489 . S
C2915 C562 1.465 . S
C2965 C621 1.543 . S
C2980 C1285 1.545 . S
C3015 C322 1.514 . S
C3030 C1049 1.521 . S
C3080 C1100 1.525 . S
C3065 C522 1.517 . S
C3115 C122 1.465 . S
C3130 C845 1.480 . S
C3180 C953 1.524 . S
C3165 C2 1.517 . S
C3230 C669 1.521 . S
C3215 C42 1.514 . S
C3280 C785 1.545 . S
C3265 C101 1.542 . S
C3315 C61 1.563 . S
C3330 C1489 1.565 . S
C3365 C82 1.485 . S
C3380 C1373 1.492 . S
C3415 C135 1.454 . S
C3430 C1452 1.455 . S
C3465 C15 1.547 . S
C3480 C1393 1.548 . S
C3530 C1637 1.565 . S
C3515 C341 1.563 . S
C3580 C1628 1.547 . S
C3565 C535 1.547 . S
C3630 C1657 1.456 . S
C3615 C575 1.454 . S
C3665 C602 1.485 . S
C3680 C1665 1.492 . S
C3715 C421 1.537 . S
C3730 C1129 1.558 . S
C3780 C1109 1.558 . S
C3765 C221 1.537 . S
C3830 C1188 1.459 . S
C3815 C255 1.458 . S
C3880 C1276 1.493 . S
C3865 C295 1.492 . S
C3915 C541 1.590 . S
C3930 C836 1.594 . S
C3980 C777 1.493 . S
C3965 C55 1.492 . S
C4015 C95 1.458 . S
C4030 C873 1.457 . S
C4080 C697 1.594 . S
C4065 C21 1.590 . S
