# Generated by pormake.
# Topology pth, (4,4)-cn, num edge types: 1
# Building blocks:
#     Node 0, Type 0, BuildingBlock: TATPOV_clean_sbu_0, # of connection points: 4
#     Node 1, Type 0, BuildingBlock: TATPOV_clean_sbu_0, # of connection points: 4
#     Node 2, Type 0, BuildingBlock: TATPOV_clean_sbu_0, # of connection points: 4
#     Node 3, Type 1, BuildingBlock: NAWXER_clean_sbu_0, # of connection points: 4
#     Node 4, Type 1, BuildingBlock: NAWXER_clean_sbu_0, # of connection points: 4
#     Node 5, Type 1, BuildingBlock: NAWXER_clean_sbu_0, # of connection points: 4
#     Edge 6, Type (0, 1), BuildingBlock: XIVTED_clean_linker_0, # of connection points: 2
#     Edge 7, Type (0, 1), BuildingBlock: XIVTED_clean_linker_0, # of connection points: 2
#     Edge 8, Type (0, 1), BuildingBlock: XIVTED_clean_linker_0, # of connection points: 2
#     Edge 9, Type (0, 1), BuildingBlock: XIVTED_clean_linker_0, # of connection points: 2
#     Edge 10, Type (0, 1), BuildingBlock: XIVTED_clean_linker_0, # of connection points: 2
#     Edge 11, Type (0, 1), BuildingBlock: XIVTED_clean_linker_0, # of connection points: 2
#     Edge 12, Type (0, 1), BuildingBlock: XIVTED_clean_linker_0, # of connection points: 2
#     Edge 13, Type (0, 1), BuildingBlock: XIVTED_clean_linker_0, # of connection points: 2
#     Edge 14, Type (0, 1), BuildingBlock: XIVTED_clean_linker_0, # of connection points: 2
#     Edge 15, Type (0, 1), BuildingBlock: XIVTED_clean_linker_0, # of connection points: 2
#     Edge 16, Type (0, 1), BuildingBlock: XIVTED_clean_linker_0, # of connection points: 2
#     Edge 17, Type (0, 1), BuildingBlock: XIVTED_clean_linker_0, # of connection points: 2
# Relax obj value: 0.048
# Max RMSD: 0.172
# Mean RMSD: 0.098
data_MOF--net-pth--node1-TATPOV_clean_sbu_0--node2-NAWXER_clean_sbu_0--edge1-XIVTED_clean_linker_0
_symmetry_space_group_name_H-M    P1
_symmetry_Int_Tables_number       1
_symmetry_cell_setting            triclinic
loop_
_symmetry_equiv_pos_as_xyz
'x, y, z'
_cell_length_a     23.251252
_cell_length_b     23.045818
_cell_length_c     56.69547
_cell_angle_alpha  92.586019
_cell_angle_beta   92.023016
_cell_angle_gamma 121.13784
loop_
_atom_site_label
_atom_site_type_symbol
_atom_site_fract_x
_atom_site_fract_y
_atom_site_fract_z
_atom_type_partial_charge
Zn0 Zn 0.18101 0.0471 0.04039 0.0
Zn1 Zn 0.10117 0.08655 0.05759 0.0
O2 O 0.1085 0.02597 0.08153 0.0
O3 O 0.18036 -0.00153 0.06923 0.0
O4 O 0.06478 0.13285 0.07769 0.0
O5 O 0.25544 0.14245 0.03448 0.0
O6 O 0.18206 0.16983 0.04493 0.0
C7 C 0.13935 0.99416 0.08416 0.0
C8 C 0.04527 0.98941 0.0153 0.0
O9 O 0.03436 0.02453 0.03054 0.0
O10 O 0.10163 0.99282 0.01593 0.0
C11 C 0.06231 0.18386 0.07149 0.0
O12 O 0.07253 0.20067 0.04953 0.0
C13 C 0.23847 0.18635 0.03685 0.0
Zn14 Zn 0.22994 0.22488 0.37892 0.0
Zn15 Zn 0.11232 0.1447 0.39552 0.0
O16 O 0.18548 0.15513 0.41991 0.0
O17 O 0.28415 0.23211 0.40863 0.0
O18 O 0.03202 0.11246 0.41529 0.0
O19 O 0.21061 0.29746 0.37025 0.0
O20 O 0.10953 0.22264 0.3802 0.0
C21 C 0.24939 0.18961 0.42325 0.0
C22 C 0.14512 0.08391 0.35552 0.0
O23 O 0.10047 0.07373 0.36999 0.0
O24 O 0.19951 0.14137 0.35604 0.0
C25 C 0.04313 0.15844 0.4313 0.0
O26 O 0.10243 0.21491 0.43322 0.0
C27 C 0.14925 0.27865 0.37154 0.0
Zn28 Zn 0.07394 0.87119 0.74218 0.0
Zn29 Zn 0.03584 0.94838 0.72158 0.0
O30 O 0.10147 0.9417 0.69987 0.0
O31 O 0.12526 0.86913 0.71435 0.0
O32 O 0.98653 0.97816 0.70005 0.0
O33 O 0.97913 0.79564 0.74792 0.0
O34 O 0.95349 0.86746 0.73424 0.0
C35 C 0.13285 0.90998 0.69884 0.0
C36 C 0.12512 0.01076 0.7651 0.0
O37 O 0.09174 0.019 0.7486 0.0
O38 O 0.12358 0.95492 0.76578 0.0
C39 C 0.95348 0.93362 0.68295 0.0
O40 O 0.96052 0.88068 0.68055 0.0
C41 C 0.93584 0.81205 0.74358 0.0
C42 C 0.11281 0.70413 0.2509 0.0
C43 C 0.09346 0.52705 0.19406 0.0
O44 O 0.16219 0.70465 0.24159 0.0
Zn45 Zn 0.10898 0.61704 0.22333 0.0
O46 O 0.05279 0.65415 0.24576 0.0
Zn47 Zn 0.99931 0.56101 0.22453 0.0
O48 O 0.96018 0.49416 0.24864 0.0
O49 O 0.07135 0.55065 0.25051 0.0
O50 O 0.03706 0.51707 0.20058 0.0
O51 O 0.14843 0.57733 0.20339 0.0
O52 O 0.05645 0.64064 0.19821 0.0
O53 O 0.94675 0.58308 0.20278 0.0
C54 C 0.01587 0.50733 0.25876 0.0
C55 C 0.99685 0.62622 0.192 0.0
C56 C 0.61268 0.9665 0.58185 0.0
C57 C 0.48951 0.02777 0.52577 0.0
O58 O 0.56806 0.92455 0.56609 0.0
Zn59 Zn 0.54699 0.98949 0.55277 0.0
O60 O 0.62872 0.02869 0.58332 0.0
Zn61 Zn 0.60669 0.09639 0.56737 0.0
O62 O 0.57026 0.12363 0.59362 0.0
O63 O 0.50803 0.01432 0.5819 0.0
O64 O 0.53572 0.07643 0.53947 0.0
O65 O 0.47682 0.96731 0.52745 0.0
O66 O 0.63641 0.05173 0.53621 0.0
O67 O 0.69219 0.15622 0.55315 0.0
C68 C 0.51927 0.06471 0.59588 0.0
C69 C 0.68744 0.11234 0.5374 0.0
C70 C 0.47191 0.52483 0.92571 0.0
C71 C 0.57307 0.59611 0.8497 0.0
O72 O 0.45938 0.55956 0.91186 0.0
Zn73 Zn 0.51911 0.56342 0.8874 0.0
O74 O 0.51124 0.50415 0.9198 0.0
Zn75 Zn 0.57046 0.50742 0.892 0.0
O76 O 0.65996 0.55402 0.90803 0.0
O77 O 0.6154 0.61842 0.90614 0.0
O78 O 0.58786 0.5576 0.86055 0.0
O79 O 0.53555 0.61475 0.85902 0.0
O80 O 0.46597 0.46127 0.87261 0.0
O81 O 0.52489 0.41275 0.87978 0.0
C82 C 0.66396 0.61057 0.91288 0.0
C83 C 0.47217 0.40921 0.8707 0.0
H84 H 0.10053 0.1987 0.11852 0.0
H85 H 0.00588 0.47135 0.15546 0.0
H86 H 0.02691 0.27925 0.06611 0.0
H87 H 0.17747 0.47684 0.18963 0.0
H88 H 0.99761 0.38782 0.12512 0.0
H89 H 0.11216 0.28597 0.1479 0.0
C90 C 0.08585 0.23409 0.11327 0.0
C91 C 0.06235 0.23155 0.08984 0.0
C92 C 0.03728 0.40763 0.13918 0.0
C93 C 0.07567 0.33122 0.12337 0.0
C94 C 0.04197 0.45501 0.15649 0.0
C95 C 0.09247 0.48081 0.17501 0.0
C96 C 0.08224 0.38444 0.14076 0.0
C97 C 0.13813 0.45834 0.17552 0.0
C98 C 0.09329 0.28426 0.12998 0.0
C99 C 0.04505 0.27936 0.08398 0.0
N100 N 0.13136 0.41052 0.15878 0.0
N101 N 0.05155 0.327 0.1007 0.0
H102 H 0.91042 0.05542 0.42997 0.0
H103 H 0.81955 0.22033 0.5395 0.0
H104 H 0.0553 0.24654 0.46779 0.0
H105 H 0.67563 0.03733 0.49728 0.0
H106 H 0.90706 0.23348 0.51327 0.0
H107 H 0.82383 0.04861 0.45495 0.0
C108 C 0.92409 0.09579 0.44357 0.0
C109 C 0.99021 0.15152 0.44677 0.0
C110 C 0.85612 0.19072 0.50974 0.0
C111 C 0.8913 0.14444 0.47541 0.0
C112 C 0.8062 0.1835 0.52462 0.0
C113 C 0.74033 0.12743 0.52073 0.0
C114 C 0.83976 0.14151 0.49091 0.0
C115 C 0.72585 0.08102 0.5012 0.0
C116 C 0.8746 0.09211 0.45779 0.0
C117 C 0.00494 0.20256 0.46466 0.0
N118 N 0.77506 0.0889 0.48718 0.0
N119 N 0.95596 0.19778 0.47831 0.0
H120 H 0.8446 0.85202 0.74922 0.0
H121 H 0.60199 0.5264 0.81764 0.0
H122 H 0.87187 0.68249 0.75812 0.0
H123 H 0.6162 0.71937 0.83072 0.0
H124 H 0.67753 0.57253 0.78585 0.0
H125 H 0.74028 0.79359 0.76962 0.0
C126 C 0.82803 0.80192 0.75503 0.0
C127 C 0.86751 0.77235 0.7522 0.0
C128 C 0.66336 0.60458 0.79537 0.0
C129 C 0.74808 0.70543 0.77539 0.0
C130 C 0.62002 0.57827 0.81346 0.0
C131 C 0.60379 0.61959 0.82706 0.0
C132 C 0.69119 0.67296 0.79086 0.0
C133 C 0.62775 0.686 0.82069 0.0
C134 C 0.76864 0.76888 0.76675 0.0
C135 C 0.84348 0.70746 0.76011 0.0
N136 N 0.67141 0.71119 0.80323 0.0
N137 N 0.78555 0.6764 0.77146 0.0
H138 H 0.05391 0.97127 0.11965 0.0
H139 H 0.03223 0.62385 0.14762 0.0
H140 H 0.17252 0.89709 0.08824 0.0
H141 H 0.95577 0.718 0.19385 0.0
H142 H 0.06359 0.71397 0.12081 0.0
H143 H 0.00424 0.87342 0.14396 0.0
C144 C 0.07026 0.93504 0.11809 0.0
C145 C 0.11768 0.94261 0.10187 0.0
C146 C 0.03869 0.7144 0.13654 0.0
C147 C 0.05948 0.82973 0.12909 0.0
C148 C 0.01963 0.66228 0.15159 0.0
C149 C 0.99059 0.66325 0.1727 0.0
C150 C 0.02947 0.76853 0.14282 0.0
C151 C 0.97686 0.71497 0.17745 0.0
C152 C 0.04142 0.87896 0.13183 0.0
C153 C 0.13651 0.89377 0.10052 0.0
N154 N 0.99731 0.76634 0.16274 0.0
N155 N 0.107 0.83929 0.11378 0.0
H156 H 0.38314 0.25744 0.43796 0.0
H157 H 0.35666 0.95039 0.50789 0.0
H158 H 0.19297 0.07695 0.44887 0.0
H159 H 0.53817 0.14635 0.50543 0.0
H160 H 0.29543 0.99118 0.48413 0.0
H161 H 0.44049 0.21505 0.46205 0.0
C162 C 0.35331 0.20937 0.44573 0.0
C163 C 0.28315 0.17079 0.44135 0.0
C164 C 0.34876 0.02493 0.48875 0.0
C165 C 0.34872 0.12086 0.46857 0.0
C166 C 0.38371 0.00139 0.50203 0.0
C167 C 0.45239 0.04514 0.50865 0.0
C168 C 0.38319 0.09226 0.482 0.0
C169 C 0.48506 0.11106 0.50086 0.0
C170 C 0.38612 0.18486 0.45938 0.0
C171 C 0.24716 0.1086 0.45186 0.0
N172 N 0.45025 0.13253 0.48805 0.0
N173 N 0.28041 0.08522 0.46479 0.0
H174 H 0.14037 0.13714 0.77121 0.0
H175 H 0.46098 0.28446 0.86355 0.0
H176 H 0.21353 0.01378 0.79891 0.0
H177 H 0.36061 0.39267 0.84668 0.0
H178 H 0.37227 0.18487 0.83938 0.0
H179 H 0.22222 0.23223 0.79844 0.0
C180 C 0.17321 0.12985 0.78311 0.0
C181 C 0.17013 0.06742 0.78269 0.0
C182 C 0.36965 0.23042 0.84113 0.0
C183 C 0.26439 0.17615 0.81372 0.0
C184 C 0.4203 0.28722 0.85488 0.0
C185 C 0.41842 0.34706 0.85711 0.0
C186 C 0.31723 0.23386 0.82941 0.0
C187 C 0.36437 0.34775 0.84548 0.0
C188 C 0.21998 0.18415 0.79865 0.0
C189 C 0.21405 0.06097 0.79856 0.0
N190 N 0.31628 0.29226 0.83206 0.0
N191 N 0.25966 0.11476 0.81328 0.0
H192 H 0.88301 0.85158 0.64324 0.0
H193 H 0.65861 0.01912 0.62665 0.0
H194 H 0.90593 0.02022 0.68774 0.0
H195 H 0.6528 0.87347 0.57461 0.0
H196 H 0.73903 0.00803 0.65162 0.0
H197 H 0.7923 0.85041 0.61962 0.0
C198 C 0.86924 0.88864 0.64799 0.0
C199 C 0.9023 0.93625 0.66751 0.0
C200 C 0.71997 0.97794 0.63486 0.0
C201 C 0.79779 0.93438 0.64069 0.0
C202 C 0.67365 0.98388 0.62064 0.0
C203 C 0.64944 0.94748 0.59846 0.0
C204 C 0.74295 0.93552 0.62687 0.0
C205 C 0.67012 0.90219 0.59164 0.0
C206 C 0.81727 0.88771 0.63451 0.0
C207 C 0.8822 0.98288 0.67281 0.0
N208 N 0.71648 0.89801 0.60572 0.0
N209 N 0.83115 0.98059 0.65953 0.0
H210 H 0.91845 0.96828 0.00652 0.0
H211 H 0.7861 0.62419 0.92562 0.0
H212 H 0.04777 0.89524 0.98506 0.0
H213 H 0.67532 0.72687 0.9319 0.0
H214 H 0.88119 0.72006 0.94914 0.0
H215 H 0.82676 0.87736 0.98048 0.0
C216 C 0.92777 0.9336 0.9962 0.0
C217 C 0.99086 0.93939 0.99804 0.0
C218 C 0.83605 0.72154 0.94524 0.0
C219 C 0.88609 0.83478 0.96852 0.0
C220 C 0.78179 0.66677 0.93191 0.0
C221 C 0.72273 0.66747 0.92678 0.0
C222 C 0.83073 0.77683 0.95368 0.0
C223 C 0.7199 0.7241 0.93534 0.0
C224 C 0.87543 0.88166 0.98137 0.0
C225 C -0.0 0.89285 0.98425 0.0
N226 N 0.77292 0.77623 0.94845 0.0
N227 N 0.94808 0.84222 0.97024 0.0
H228 H 0.0396 0.95126 0.34988 0.0
H229 H 0.22442 0.83333 0.25956 0.0
H230 H 0.234 0.08885 0.32423 0.0
H231 H 0.02091 0.70317 0.27935 0.0
H232 H 0.23204 0.92682 0.28484 0.0
H233 H 0.03356 0.85858 0.32497 0.0
C234 C 0.08072 0.96213 0.3389 0.0
C235 C 0.13731 0.02797 0.33918 0.0
C236 C 0.18583 0.87764 0.28363 0.0
C237 C 0.13124 0.92206 0.31084 0.0
C238 C 0.18167 0.82429 0.26933 0.0
C239 C 0.12191 0.76054 0.26724 0.0
C240 C 0.12994 0.86677 0.29596 0.0
C241 C 0.06787 0.75161 0.28024 0.0
C242 C 0.07743 0.90917 0.32474 0.0
C243 C 0.1893 0.03895 0.32462 0.0
N244 N 0.07317 0.80404 0.29398 0.0
N245 N 0.18512 0.98654 0.31113 0.0
H246 H 0.20475 0.84873 0.68958 0.0
H247 H 0.46845 0.14297 0.61217 0.0
H248 H 0.1849 0.01727 0.67067 0.0
H249 H 0.45875 0.95303 0.6203 0.0
H250 H 0.37236 0.10515 0.6372 0.0
H251 H 0.3035 0.8913 0.66649 0.0
C252 C 0.2206 0.89421 0.68033 0.0
C253 C 0.18623 0.92926 0.68204 0.0
C254 C 0.39186 0.07218 0.63364 0.0
C255 C 0.30049 0.97934 0.65591 0.0
C256 C 0.44707 0.09413 0.61965 0.0
C257 C 0.47122 0.05094 0.6142 0.0
C258 C 0.36155 0.00707 0.64228 0.0
C259 C 0.44128 0.98769 0.624 0.0
C260 C 0.27733 0.91881 0.66725 0.0
C261 C 0.20953 0.98828 0.66974 0.0
N262 N 0.38804 0.96764 0.63746 0.0
N263 N 0.26549 0.01174 0.65733 0.0
H264 H 0.37167 0.25146 0.02787 0.0
H265 H 0.5357 0.53586 0.96773 0.0
H266 H 0.19808 0.27305 0.02332 0.0
H267 H 0.33818 0.46299 0.93463 0.0
H268 H 0.48416 0.46892 0.00134 0.0
H269 H 0.43321 0.35302 0.00628 0.0
C270 C 0.34703 0.2785 0.02278 0.0
C271 C 0.2797 0.25371 0.02738 0.0
C272 C 0.45195 0.46809 0.9869 0.0
C273 C 0.34984 0.37041 0.00263 0.0
C274 C 0.48126 0.50709 0.96791 0.0
C275 C 0.44095 0.50428 0.94839 0.0
C276 C 0.38177 0.42479 0.9861 0.0
C277 C 0.37083 0.46647 0.94943 0.0
C278 C 0.38235 0.33695 0.01061 0.0
C279 C 0.25009 0.29063 0.02024 0.0
N280 N 0.34325 0.42696 0.96784 0.0
N281 N 0.28488 0.34633 0.00775 0.0
H282 H 0.21849 0.41186 0.36148 0.0
H283 H 0.93032 0.37705 0.27218 0.0
H284 H 0.01879 0.23321 0.35607 0.0
H285 H 0.11279 0.56655 0.2942 0.0
H286 H 0.9554 0.32351 0.30449 0.0
H287 H 0.17622 0.47042 0.33843 0.0
C288 C 0.16552 0.38524 0.35567 0.0
C289 C 0.12227 0.31752 0.36057 0.0
C290 C 0.98914 0.37713 0.30245 0.0
C291 C 0.07341 0.38376 0.33369 0.0
C292 C 0.97464 0.40759 0.28412 0.0
C293 C 0.0202 0.47584 0.28032 0.0
C294 C 0.04948 0.41551 0.31684 0.0
C295 C 0.07702 0.51333 0.29621 0.0
C296 C 0.14123 0.41867 0.3425 0.0
C297 C 0.05389 0.28554 0.35267 0.0
N298 N 0.09042 0.48256 0.31352 0.0
N299 N 0.03172 0.31856 0.33926 0.0
loop_
_geom_bond_atom_site_label_1
_geom_bond_atom_site_label_2
_geom_bond_distance
_geom_bond_site_symmetry_2
_ccdc_geom_bond_type
Zn0 O3 2.031 1_545 S
Zn0 O5 2.049 . S
Zn0 O10 2.067 1_545 S
Zn1 O2 1.962 . S
Zn1 O4 1.986 . S
Zn1 O6 1.996 . S
Zn1 O9 1.943 . S
O2 Zn1 1.962 . S
O2 C7 1.254 1_545 S
O3 Zn0 2.031 1_565 S
O3 C7 1.269 . S
O4 Zn1 1.986 . S
O4 C11 1.262 . S
O5 Zn0 2.049 . S
O5 C13 1.260 . S
O6 Zn1 1.996 . S
O6 C13 1.257 . S
C7 O2 1.254 1_565 S
C7 O3 1.269 . S
C8 O9 1.249 1_565 S
C8 O10 1.270 . S
O9 Zn1 1.943 . S
O9 C8 1.249 1_545 S
O10 Zn0 2.067 1_565 S
O10 C8 1.270 . S
C11 O4 1.262 . S
C11 O12 1.232 . S
O12 C11 1.232 . S
C13 O5 1.260 . S
C13 O6 1.257 . S
Zn14 O17 2.031 . S
Zn14 O19 2.049 . S
Zn14 O24 2.067 . S
Zn15 O16 1.962 . S
Zn15 O18 1.986 1_455 S
Zn15 O20 1.996 . S
Zn15 O23 1.943 . S
O16 Zn15 1.962 . S
O16 C21 1.254 . S
O17 Zn14 2.031 . S
O17 C21 1.269 . S
O18 Zn15 1.986 1_655 S
O18 C25 1.262 . S
O19 Zn14 2.049 . S
O19 C27 1.260 . S
O20 Zn15 1.996 . S
O20 C27 1.257 . S
C21 O16 1.254 . S
C21 O17 1.269 . S
C22 O23 1.249 . S
C22 O24 1.270 . S
O23 Zn15 1.943 . S
O23 C22 1.249 . S
O24 Zn14 2.067 . S
O24 C22 1.270 . S
C25 O18 1.262 . S
C25 O26 1.232 . S
O26 C25 1.232 . S
C27 O19 1.260 . S
C27 O20 1.257 . S
Zn28 O31 2.031 1_565 S
Zn28 O33 2.049 . S
Zn28 O38 2.067 1_565 S
Zn29 O30 1.962 1_545 S
Zn29 O32 1.986 1_455 S
Zn29 O34 1.996 1_545 S
Zn29 O37 1.943 . S
O30 Zn29 1.962 1_565 S
O30 C35 1.254 1_565 S
O31 Zn28 2.031 1_545 S
O31 C35 1.269 . S
O32 Zn29 1.986 1_655 S
O32 C39 1.262 . S
O33 Zn28 2.049 . S
O33 C41 1.260 1_455 S
O34 Zn29 1.996 1_565 S
O34 C41 1.257 1_455 S
C35 O30 1.254 1_545 S
C35 O31 1.269 . S
C36 O37 1.249 . S
C36 O38 1.270 . S
O37 Zn29 1.943 . S
O37 C36 1.249 . S
O38 Zn28 2.067 1_545 S
O38 C36 1.270 . S
C39 O32 1.262 . S
C39 O40 1.232 1_655 S
O40 C39 1.232 1_455 S
C41 O33 1.260 1_655 S
C41 O34 1.257 1_655 S
C42 O44 1.247 . S
C42 O46 1.258 . S
C43 O50 1.247 . S
C43 O51 1.258 . S
O44 C42 1.247 . S
O44 Zn45 2.028 . S
Zn45 O44 2.028 . S
Zn45 O49 2.035 . S
Zn45 O51 2.035 . S
Zn45 O52 2.028 . S
O46 C42 1.258 . S
O46 Zn47 2.035 . S
Zn47 O46 2.035 . S
Zn47 O48 2.028 . S
Zn47 O50 2.028 . S
Zn47 O53 2.035 . S
O48 Zn47 2.028 . S
O48 C54 1.247 . S
O49 Zn45 2.035 . S
O49 C54 1.258 . S
O50 C43 1.247 . S
O50 Zn47 2.028 . S
O51 C43 1.258 . S
O51 Zn45 2.035 . S
O52 Zn45 2.028 . S
O52 C55 1.247 . S
O53 Zn47 2.035 . S
O53 C55 1.258 . S
C54 O48 1.247 . S
C54 O49 1.258 . S
C55 O52 1.247 . S
C55 O53 1.258 . S
C56 O58 1.247 1_545 S
C56 O60 1.258 . S
C57 O64 1.247 . S
C57 O65 1.258 . S
O58 C56 1.247 1_565 S
O58 Zn59 2.028 . S
Zn59 O58 2.028 . S
Zn59 O63 2.035 . S
Zn59 O65 2.035 1_565 S
Zn59 O66 2.028 1_565 S
O60 C56 1.258 . S
O60 Zn61 2.035 . S
Zn61 O60 2.035 . S
Zn61 O62 2.028 . S
Zn61 O64 2.028 . S
Zn61 O67 2.035 . S
O62 Zn61 2.028 . S
O62 C68 1.247 . S
O63 Zn59 2.035 . S
O63 C68 1.258 1_565 S
O64 C57 1.247 . S
O64 Zn61 2.028 . S
O65 C57 1.258 . S
O65 Zn59 2.035 1_545 S
O66 Zn59 2.028 1_545 S
O66 C69 1.247 . S
O67 Zn61 2.035 . S
O67 C69 1.258 . S
C68 O62 1.247 . S
C68 O63 1.258 1_545 S
C69 O66 1.247 . S
C69 O67 1.258 . S
C70 O72 1.247 . S
C70 O74 1.258 . S
C71 O78 1.247 . S
C71 O79 1.258 . S
O72 C70 1.247 . S
O72 Zn73 2.028 . S
Zn73 O72 2.028 . S
Zn73 O77 2.035 . S
Zn73 O79 2.035 . S
Zn73 O80 2.028 . S
O74 C70 1.258 . S
O74 Zn75 2.035 . S
Zn75 O74 2.035 . S
Zn75 O76 2.028 . S
Zn75 O78 2.028 . S
Zn75 O81 2.035 . S
O76 Zn75 2.028 . S
O76 C82 1.247 . S
O77 Zn73 2.035 . S
O77 C82 1.258 . S
O78 C71 1.247 . S
O78 Zn75 2.028 . S
O79 C71 1.258 . S
O79 Zn73 2.035 . S
O80 Zn73 2.028 . S
O80 C83 1.247 . S
O81 Zn75 2.035 . S
O81 C83 1.258 . S
C82 O76 1.247 . S
C82 O77 1.258 . S
C83 O80 1.247 . S
C83 O81 1.258 . S
H84 C90 0.930 . S
H85 C94 0.930 1_655 S
H86 C99 0.929 1_655 S
H87 C97 0.929 . S
H88 C92 0.929 1_655 S
H89 C98 0.929 . S
C90 H84 0.930 . S
C90 C91 1.367 . S
C90 C98 1.378 . S
C91 C90 1.367 . S
C91 C99 1.433 . S
C92 H88 0.929 1_455 S
C92 C94 1.378 . S
C92 C96 1.350 . S
C93 C96 1.463 . S
C93 C98 1.350 . S
C93 N101 1.427 . S
C94 H85 0.930 1_455 S
C94 C92 1.378 . S
C94 C95 1.367 . S
C95 C94 1.367 . S
C95 C97 1.433 . S
C96 C92 1.350 . S
C96 C93 1.463 . S
C96 N100 1.427 . S
C97 H87 0.929 . S
C97 C95 1.433 . S
C97 N100 1.384 . S
C98 H89 0.929 . S
C98 C90 1.378 . S
C98 C93 1.350 . S
C99 H86 0.929 1_455 S
C99 C91 1.433 . S
C99 N101 1.384 . S
N100 C96 1.427 . S
N100 C97 1.384 . S
N101 C93 1.427 . S
N101 C99 1.384 . S
H102 C108 0.930 . S
H103 C112 0.930 . S
H104 C117 0.929 . S
H105 C115 0.929 . S
H106 C110 0.929 . S
H107 C116 0.929 . S
C108 H102 0.930 . S
C108 C109 1.367 . S
C108 C116 1.378 . S
C109 C108 1.367 . S
C109 C117 1.433 . S
C110 H106 0.929 . S
C110 C112 1.378 . S
C110 C114 1.350 . S
C111 C114 1.463 . S
C111 C116 1.350 . S
C111 N119 1.427 . S
C112 H103 0.930 . S
C112 C110 1.378 . S
C112 C113 1.367 . S
C113 C112 1.367 . S
C113 C115 1.433 . S
C114 C110 1.350 . S
C114 C111 1.463 . S
C114 N118 1.427 . S
C115 H105 0.929 . S
C115 C113 1.433 . S
C115 N118 1.384 . S
C116 H107 0.929 . S
C116 C108 1.378 . S
C116 C111 1.350 . S
C117 H104 0.929 . S
C117 C109 1.433 . S
C117 N119 1.384 . S
N118 C114 1.427 . S
N118 C115 1.384 . S
N119 C111 1.427 . S
N119 C117 1.384 . S
H120 C126 0.930 . S
H121 C130 0.930 . S
H122 C135 0.929 1_455 S
H123 C133 0.929 . S
H124 C128 0.929 . S
H125 C134 0.929 . S
C126 H120 0.930 . S
C126 C127 1.367 . S
C126 C134 1.378 . S
C127 C126 1.367 . S
C127 C135 1.433 . S
C128 H124 0.929 . S
C128 C130 1.378 . S
C128 C132 1.350 . S
C129 C132 1.463 . S
C129 C134 1.350 . S
C129 N137 1.427 . S
C130 H121 0.930 . S
C130 C128 1.378 . S
C130 C131 1.367 . S
C131 C130 1.367 . S
C131 C133 1.433 . S
C132 C128 1.350 . S
C132 C129 1.463 . S
C132 N136 1.427 . S
C133 H123 0.929 . S
C133 C131 1.433 . S
C133 N136 1.384 . S
C134 H125 0.929 . S
C134 C126 1.378 . S
C134 C129 1.350 . S
C135 H122 0.929 1_655 S
C135 C127 1.433 . S
C135 N137 1.384 . S
N136 C132 1.427 . S
N136 C133 1.384 . S
N137 C129 1.427 . S
N137 C135 1.384 . S
H138 C144 0.930 . S
H139 C148 0.930 . S
H140 C153 0.929 . S
H141 C151 0.929 . S
H142 C146 0.929 . S
H143 C152 0.929 . S
C144 H138 0.930 . S
C144 C145 1.367 . S
C144 C152 1.378 . S
C145 C144 1.367 . S
C145 C153 1.433 . S
C146 H142 0.929 . S
C146 C148 1.378 . S
C146 C150 1.350 . S
C147 C150 1.463 . S
C147 C152 1.350 . S
C147 N155 1.427 . S
C148 H139 0.930 . S
C148 C146 1.378 . S
C148 C149 1.367 . S
C149 C148 1.367 . S
C149 C151 1.433 . S
C150 C146 1.350 . S
C150 C147 1.463 . S
C150 N154 1.427 . S
C151 H141 0.929 . S
C151 C149 1.433 . S
C151 N154 1.384 . S
C152 H143 0.929 . S
C152 C144 1.378 . S
C152 C147 1.350 . S
C153 H140 0.929 . S
C153 C145 1.433 . S
C153 N155 1.384 . S
N154 C150 1.427 . S
N154 C151 1.384 . S
N155 C147 1.427 . S
N155 C153 1.384 . S
H156 C162 0.930 . S
H157 C166 0.930 . S
H158 C171 0.929 . S
H159 C169 0.929 1_565 S
H160 C164 0.929 . S
H161 C170 0.929 1_565 S
C162 H156 0.930 . S
C162 C163 1.367 . S
C162 C170 1.378 . S
C163 C162 1.367 . S
C163 C171 1.433 . S
C164 H160 0.929 . S
C164 C166 1.378 . S
C164 C168 1.350 . S
C165 C168 1.463 . S
C165 C170 1.350 . S
C165 N173 1.427 . S
C166 H157 0.930 . S
C166 C164 1.378 . S
C166 C167 1.367 . S
C167 C166 1.367 . S
C167 C169 1.433 . S
C168 C164 1.350 . S
C168 C165 1.463 . S
C168 N172 1.427 . S
C169 H159 0.929 1_545 S
C169 C167 1.433 . S
C169 N172 1.384 . S
C170 H161 0.929 1_545 S
C170 C162 1.378 . S
C170 C165 1.350 . S
C171 H158 0.929 . S
C171 C163 1.433 . S
C171 N173 1.384 . S
N172 C168 1.427 . S
N172 C169 1.384 . S
N173 C165 1.427 . S
N173 C171 1.384 . S
H174 C180 0.930 . S
H175 C184 0.930 . S
H176 C189 0.929 . S
H177 C187 0.929 . S
H178 C182 0.929 . S
H179 C188 0.929 . S
C180 H174 0.930 . S
C180 C181 1.367 . S
C180 C188 1.378 . S
C181 C180 1.367 . S
C181 C189 1.433 . S
C182 H178 0.929 . S
C182 C184 1.378 . S
C182 C186 1.350 . S
C183 C186 1.463 . S
C183 C188 1.350 . S
C183 N191 1.427 . S
C184 H175 0.930 . S
C184 C182 1.378 . S
C184 C185 1.367 . S
C185 C184 1.367 . S
C185 C187 1.433 . S
C186 C182 1.350 . S
C186 C183 1.463 . S
C186 N190 1.427 . S
C187 H177 0.929 . S
C187 C185 1.433 . S
C187 N190 1.384 . S
C188 H179 0.929 . S
C188 C180 1.378 . S
C188 C183 1.350 . S
C189 H176 0.929 . S
C189 C181 1.433 . S
C189 N191 1.384 . S
N190 C186 1.427 . S
N190 C187 1.384 . S
N191 C183 1.427 . S
N191 C189 1.384 . S
H192 C198 0.930 . S
H193 C202 0.930 1_565 S
H194 C207 0.929 1_565 S
H195 C205 0.929 . S
H196 C200 0.929 1_565 S
H197 C206 0.929 . S
C198 H192 0.930 . S
C198 C199 1.367 . S
C198 C206 1.378 . S
C199 C198 1.367 . S
C199 C207 1.433 . S
C200 H196 0.929 1_545 S
C200 C202 1.378 . S
C200 C204 1.350 . S
C201 C204 1.463 . S
C201 C206 1.350 . S
C201 N209 1.427 . S
C202 H193 0.930 1_545 S
C202 C200 1.378 . S
C202 C203 1.367 . S
C203 C202 1.367 . S
C203 C205 1.433 . S
C204 C200 1.350 . S
C204 C201 1.463 . S
C204 N208 1.427 . S
C205 H195 0.929 . S
C205 C203 1.433 . S
C205 N208 1.384 . S
C206 H197 0.929 . S
C206 C198 1.378 . S
C206 C201 1.350 . S
C207 H194 0.929 1_545 S
C207 C199 1.433 . S
C207 N209 1.384 . S
N208 C204 1.427 . S
N208 C205 1.384 . S
N209 C201 1.427 . S
N209 C207 1.384 . S
H210 C216 0.930 . S
H211 C220 0.930 . S
H212 C225 0.929 1_455 S
H213 C223 0.929 . S
H214 C218 0.929 . S
H215 C224 0.929 . S
C216 H210 0.930 . S
C216 C217 1.367 . S
C216 C224 1.378 . S
C217 C216 1.367 . S
C217 C225 1.433 1_554 S
C218 H214 0.929 . S
C218 C220 1.378 . S
C218 C222 1.350 . S
C219 C222 1.463 . S
C219 C224 1.350 1_556 S
C219 N227 1.427 . S
C220 H211 0.930 . S
C220 C218 1.378 . S
C220 C221 1.367 . S
C221 C220 1.367 . S
C221 C223 1.433 . S
C222 C218 1.350 . S
C222 C219 1.463 . S
C222 N226 1.427 . S
C223 H213 0.929 . S
C223 C221 1.433 . S
C223 N226 1.384 . S
C224 H215 0.929 . S
C224 C216 1.378 . S
C224 C219 1.350 1_554 S
C225 H212 0.929 1_655 S
C225 C217 1.433 1_556 S
C225 N227 1.384 . S
N226 C222 1.427 . S
N226 C223 1.384 . S
N227 C219 1.427 . S
N227 C225 1.384 . S
H228 C234 0.930 . S
H229 C238 0.930 . S
H230 C243 0.929 1_545 S
H231 C241 0.929 1_655 S
H232 C236 0.929 . S
H233 C242 0.929 . S
C234 H228 0.930 . S
C234 C235 1.367 1_655 S
C234 C242 1.378 . S
C235 C234 1.367 1_455 S
C235 C243 1.433 . S
C236 H232 0.929 . S
C236 C238 1.378 . S
C236 C240 1.350 . S
C237 C240 1.463 . S
C237 C242 1.350 1_455 S
C237 N245 1.427 . S
C238 H229 0.930 . S
C238 C236 1.378 . S
C238 C239 1.367 . S
C239 C238 1.367 . S
C239 C241 1.433 . S
C240 C236 1.350 . S
C240 C237 1.463 . S
C240 N244 1.427 . S
C241 H231 0.929 1_455 S
C241 C239 1.433 . S
C241 N244 1.384 . S
C242 H233 0.929 . S
C242 C234 1.378 . S
C242 C237 1.350 1_655 S
C243 H230 0.929 1_565 S
C243 C235 1.433 . S
C243 N245 1.384 . S
N244 C240 1.427 . S
N244 C241 1.384 . S
N245 C237 1.427 . S
N245 C243 1.384 . S
H246 C252 0.930 . S
H247 C256 0.930 . S
H248 C261 0.929 . S
H249 C259 0.929 . S
H250 C254 0.929 . S
H251 C260 0.929 . S
C252 H246 0.930 . S
C252 C253 1.367 . S
C252 C260 1.378 . S
C253 C252 1.367 . S
C253 C261 1.433 1_545 S
C254 H250 0.929 . S
C254 C256 1.378 . S
C254 C258 1.350 1_565 S
C255 C258 1.463 . S
C255 C260 1.350 . S
C255 N263 1.427 1_545 S
C256 H247 0.930 . S
C256 C254 1.378 . S
C256 C257 1.367 1_565 S
C257 C256 1.367 1_545 S
C257 C259 1.433 . S
C258 C254 1.350 1_545 S
C258 C255 1.463 . S
C258 N262 1.427 . S
C259 H249 0.929 . S
C259 C257 1.433 . S
C259 N262 1.384 . S
C260 H251 0.929 . S
C260 C252 1.378 . S
C260 C255 1.350 . S
C261 H248 0.929 . S
C261 C253 1.433 1_565 S
C261 N263 1.384 . S
N262 C258 1.427 . S
N262 C259 1.384 . S
N263 C255 1.427 1_565 S
N263 C261 1.384 . S
H264 C270 0.930 . S
H265 C274 0.930 . S
H266 C279 0.929 . S
H267 C277 0.929 . S
H268 C272 0.929 . S
H269 C278 0.929 . S
C270 H264 0.930 . S
C270 C271 1.367 1_556 S
C270 C278 1.378 . S
C271 C270 1.367 1_554 S
C271 C279 1.433 . S
C272 H268 0.929 . S
C272 C274 1.378 . S
C272 C276 1.350 . S
C273 C276 1.463 . S
C273 C278 1.350 . S
C273 N281 1.427 1_556 S
C274 H265 0.930 . S
C274 C272 1.378 . S
C274 C275 1.367 . S
C275 C274 1.367 . S
C275 C277 1.433 . S
C276 C272 1.350 . S
C276 C273 1.463 . S
C276 N280 1.427 . S
C277 H267 0.929 . S
C277 C275 1.433 . S
C277 N280 1.384 . S
C278 H269 0.929 . S
C278 C270 1.378 . S
C278 C273 1.350 . S
C279 H266 0.929 . S
C279 C271 1.433 . S
C279 N281 1.384 . S
N280 C276 1.427 . S
N280 C277 1.384 . S
N281 C273 1.427 1_554 S
N281 C279 1.384 . S
H282 C288 0.930 . S
H283 C292 0.923 1_655 S
H284 C297 0.929 . S
H285 C295 0.929 . S
H286 C290 0.929 . S
H287 C296 0.929 . S
C288 H282 0.930 . S
C288 C289 1.367 . S
C288 C296 1.378 . S
C289 C288 1.367 . S
C289 C297 1.433 . S
C290 H286 0.929 . S
C290 C292 1.378 . S
C290 C294 1.350 . S
C291 C294 1.463 . S
C291 C296 1.350 . S
C291 N299 1.427 . S
C292 H283 0.923 1_455 S
C292 C290 1.378 . S
C292 C293 1.367 . S
C293 C292 1.367 . S
C293 C295 1.433 . S
C294 C290 1.350 . S
C294 C291 1.463 . S
C294 N298 1.427 . S
C295 H285 0.929 . S
C295 C293 1.433 . S
C295 N298 1.384 . S
C296 H287 0.929 . S
C296 C288 1.378 . S
C296 C291 1.350 . S
C297 H284 0.929 . S
C297 C289 1.433 . S
C297 N299 1.384 . S
N298 C294 1.427 . S
N298 C295 1.384 . S
N299 C291 1.427 . S
N299 C297 1.384 . S
C95 C43 1.334 . S
C91 C11 1.315 . S
C109 C25 1.381 . S
C113 C69 1.398 . S
C127 C41 1.368 . S
C131 C71 1.422 . S
C145 C7 1.376 . S
C149 C55 1.374 . S
C167 C57 1.431 . S
C163 C21 1.428 . S
C181 C36 1.389 . S
C185 C83 1.446 . S
C203 C56 1.391 . S
C199 C39 1.373 . S
C217 C8 1.385 1_655 S
C221 C82 1.442 . S
C239 C42 1.500 . S
C235 C22 1.440 1_565 S
C257 C68 1.426 . S
C253 C35 1.423 . S
C275 C70 1.416 . S
C271 C13 1.350 . S
C289 C27 1.394 . S
C293 C54 1.458 . S
