# Generated by pormake.
# Topology ocu, (6,8)-cn, num edge types: 1
# Building blocks:
#     Node 0, Type 0, BuildingBlock: KUMBUR_clean_sbu_1, # of connection points: 6
#     Node 1, Type 0, BuildingBlock: KUMBUR_clean_sbu_1, # of connection points: 6
#     Node 2, Type 0, BuildingBlock: KUMBUR_clean_sbu_1, # of connection points: 6
#     Node 3, Type 0, BuildingBlock: KUMBUR_clean_sbu_1, # of connection points: 6
#     Node 4, Type 0, BuildingBlock: KUMBUR_clean_sbu_1, # of connection points: 6
#     Node 5, Type 0, BuildingBlock: KUMBUR_clean_sbu_1, # of connection points: 6
#     Node 6, Type 0, BuildingBlock: KUMBUR_clean_sbu_1, # of connection points: 6
#     Node 7, Type 0, BuildingBlock: KUMBUR_clean_sbu_1, # of connection points: 6
#     Node 8, Type 1, BuildingBlock: TAGTUT_clean_sbu_1, # of connection points: 8
#     Node 9, Type 1, BuildingBlock: TAGTUT_clean_sbu_1, # of connection points: 8
#     Node 10, Type 1, BuildingBlock: TAGTUT_clean_sbu_1, # of connection points: 8
#     Node 11, Type 1, BuildingBlock: TAGTUT_clean_sbu_1, # of connection points: 8
#     Node 12, Type 1, BuildingBlock: TAGTUT_clean_sbu_1, # of connection points: 8
#     Node 13, Type 1, BuildingBlock: TAGTUT_clean_sbu_1, # of connection points: 8
#     Edge 14, Type (0, 1), BuildingBlock: TEMPAE_clean_linker_10, # of connection points: 2
#     Edge 15, Type (0, 1), BuildingBlock: TEMPAE_clean_linker_10, # of connection points: 2
#     Edge 16, Type (0, 1), BuildingBlock: TEMPAE_clean_linker_10, # of connection points: 2
#     Edge 17, Type (0, 1), BuildingBlock: TEMPAE_clean_linker_10, # of connection points: 2
#     Edge 18, Type (0, 1), BuildingBlock: TEMPAE_clean_linker_10, # of connection points: 2
#     Edge 19, Type (0, 1), BuildingBlock: TEMPAE_clean_linker_10, # of connection points: 2
#     Edge 20, Type (0, 1), BuildingBlock: TEMPAE_clean_linker_10, # of connection points: 2
#     Edge 21, Type (0, 1), BuildingBlock: TEMPAE_clean_linker_10, # of connection points: 2
#     Edge 22, Type (0, 1), BuildingBlock: TEMPAE_clean_linker_10, # of connection points: 2
#     Edge 23, Type (0, 1), BuildingBlock: TEMPAE_clean_linker_10, # of connection points: 2
#     Edge 24, Type (0, 1), BuildingBlock: TEMPAE_clean_linker_10, # of connection points: 2
#     Edge 25, Type (0, 1), BuildingBlock: TEMPAE_clean_linker_10, # of connection points: 2
#     Edge 26, Type (0, 1), BuildingBlock: TEMPAE_clean_linker_10, # of connection points: 2
#     Edge 27, Type (0, 1), BuildingBlock: TEMPAE_clean_linker_10, # of connection points: 2
#     Edge 28, Type (0, 1), BuildingBlock: TEMPAE_clean_linker_10, # of connection points: 2
#     Edge 29, Type (0, 1), BuildingBlock: TEMPAE_clean_linker_10, # of connection points: 2
#     Edge 30, Type (0, 1), BuildingBlock: TEMPAE_clean_linker_10, # of connection points: 2
#     Edge 31, Type (0, 1), BuildingBlock: TEMPAE_clean_linker_10, # of connection points: 2
#     Edge 32, Type (0, 1), BuildingBlock: TEMPAE_clean_linker_10, # of connection points: 2
#     Edge 33, Type (0, 1), BuildingBlock: TEMPAE_clean_linker_10, # of connection points: 2
#     Edge 34, Type (0, 1), BuildingBlock: TEMPAE_clean_linker_10, # of connection points: 2
#     Edge 35, Type (0, 1), BuildingBlock: TEMPAE_clean_linker_10, # of connection points: 2
#     Edge 36, Type (0, 1), BuildingBlock: TEMPAE_clean_linker_10, # of connection points: 2
#     Edge 37, Type (0, 1), BuildingBlock: TEMPAE_clean_linker_10, # of connection points: 2
#     Edge 38, Type (0, 1), BuildingBlock: TEMPAE_clean_linker_10, # of connection points: 2
#     Edge 39, Type (0, 1), BuildingBlock: TEMPAE_clean_linker_10, # of connection points: 2
#     Edge 40, Type (0, 1), BuildingBlock: TEMPAE_clean_linker_10, # of connection points: 2
#     Edge 41, Type (0, 1), BuildingBlock: TEMPAE_clean_linker_10, # of connection points: 2
#     Edge 42, Type (0, 1), BuildingBlock: TEMPAE_clean_linker_10, # of connection points: 2
#     Edge 43, Type (0, 1), BuildingBlock: TEMPAE_clean_linker_10, # of connection points: 2
#     Edge 44, Type (0, 1), BuildingBlock: TEMPAE_clean_linker_10, # of connection points: 2
#     Edge 45, Type (0, 1), BuildingBlock: TEMPAE_clean_linker_10, # of connection points: 2
#     Edge 46, Type (0, 1), BuildingBlock: TEMPAE_clean_linker_10, # of connection points: 2
#     Edge 47, Type (0, 1), BuildingBlock: TEMPAE_clean_linker_10, # of connection points: 2
#     Edge 48, Type (0, 1), BuildingBlock: TEMPAE_clean_linker_10, # of connection points: 2
#     Edge 49, Type (0, 1), BuildingBlock: TEMPAE_clean_linker_10, # of connection points: 2
#     Edge 50, Type (0, 1), BuildingBlock: TEMPAE_clean_linker_10, # of connection points: 2
#     Edge 51, Type (0, 1), BuildingBlock: TEMPAE_clean_linker_10, # of connection points: 2
#     Edge 52, Type (0, 1), BuildingBlock: TEMPAE_clean_linker_10, # of connection points: 2
#     Edge 53, Type (0, 1), BuildingBlock: TEMPAE_clean_linker_10, # of connection points: 2
#     Edge 54, Type (0, 1), BuildingBlock: TEMPAE_clean_linker_10, # of connection points: 2
#     Edge 55, Type (0, 1), BuildingBlock: TEMPAE_clean_linker_10, # of connection points: 2
#     Edge 56, Type (0, 1), BuildingBlock: TEMPAE_clean_linker_10, # of connection points: 2
#     Edge 57, Type (0, 1), BuildingBlock: TEMPAE_clean_linker_10, # of connection points: 2
#     Edge 58, Type (0, 1), BuildingBlock: TEMPAE_clean_linker_10, # of connection points: 2
#     Edge 59, Type (0, 1), BuildingBlock: TEMPAE_clean_linker_10, # of connection points: 2
#     Edge 60, Type (0, 1), BuildingBlock: TEMPAE_clean_linker_10, # of connection points: 2
#     Edge 61, Type (0, 1), BuildingBlock: TEMPAE_clean_linker_10, # of connection points: 2
# Relax obj value: 0.068
# Max RMSD: 0.174
# Mean RMSD: 0.095
data_MOF--net-ocu--node1-KUMBUR_clean_sbu_1--node2-TAGTUT_clean_sbu_1--edge1-TEMPAE_clean_linker_10
_symmetry_space_group_name_H-M    P1
_symmetry_Int_Tables_number       1
_symmetry_cell_setting            triclinic
loop_
_symmetry_equiv_pos_as_xyz
'x, y, z'
_cell_length_a     40.828216
_cell_length_b     39.326217
_cell_length_c     43.042839
_cell_angle_alpha  100.46763
_cell_angle_beta   81.864566
_cell_angle_gamma 113.75954
loop_
_atom_site_label
_atom_site_type_symbol
_atom_site_fract_x
_atom_site_fract_y
_atom_site_fract_z
_atom_type_partial_charge
Tb0 Tb 0.23652 0.24598 0.22707 0.0
C1 C 0.3305 0.34389 0.33346 0.0
N2 N 0.34013 0.32904 0.30427 0.0
C3 C 0.38685 0.38904 0.29688 0.0
C4 C 0.3476 0.3823 0.34487 0.0
C5 C 0.36961 0.35059 0.28696 0.0
C6 C 0.37533 0.40514 0.32567 0.0
C7 C 0.29685 0.33319 0.38443 0.0
C8 C 0.30546 0.31985 0.35303 0.0
C9 C 0.31236 0.37174 0.39533 0.0
C10 C 0.33761 0.39628 0.37555 0.0
Tb11 Tb 0.30769 0.26601 0.29056 0.0
N12 N 0.29048 0.28289 0.3415 0.0
C13 C 0.27379 0.30718 0.4041 0.0
C14 C 0.26976 0.25709 0.36096 0.0
C15 C 0.26071 0.26888 0.39247 0.0
H16 H 0.38056 0.33843 0.26567 0.0
H17 H 0.24376 0.24851 0.40774 0.0
H18 H 0.18161 0.16059 0.24138 0.0
H19 H 0.31473 0.29765 0.12061 0.0
H20 H 0.26012 0.22753 0.35204 0.0
H21 H 0.26665 0.31625 0.42847 0.0
H22 H 0.28499 0.30362 0.17402 0.0
H23 H 0.40951 0.40607 0.2826 0.0
H24 H 0.30576 0.3827 0.41928 0.0
H25 H 0.35019 0.42578 0.3846 0.0
H26 H 0.16336 0.09605 0.21319 0.0
H27 H 0.38914 0.4348 0.33353 0.0
H28 H 0.30505 0.23511 0.09063 0.0
N29 N 0.21836 0.1851 0.20364 0.0
C30 C 0.23135 0.17943 0.17314 0.0
C31 C 0.18276 0.11923 0.20176 0.0
C32 C 0.22168 0.14306 0.15612 0.0
C33 C 0.19343 0.15584 0.21779 0.0
C34 C 0.19717 0.11275 0.17089 0.0
N35 N 0.2633 0.24499 0.17659 0.0
C36 C 0.28258 0.27618 0.16225 0.0
C37 C 0.27021 0.20558 0.12817 0.0
C38 C 0.25534 0.21031 0.15948 0.0
C39 C 0.29289 0.23748 0.11456 0.0
C40 C 0.29854 0.27291 0.13148 0.0
H41 H 0.18905 0.08434 0.15863 0.0
H42 H 0.23031 0.11037 0.11182 0.0
H43 H 0.27271 0.16517 0.08728 0.0
O44 O 0.21225 0.26376 0.19646 0.0
O45 O 0.266 0.20879 0.22622 0.0
O46 O 0.32197 0.24735 0.24141 0.0
O47 O 0.18072 0.23027 0.23237 0.0
O48 O 0.28105 0.30163 0.23084 0.0
O49 O 0.32783 0.29116 0.24634 0.0
O50 O 0.3157 0.21984 0.30139 0.0
O51 O 0.26059 0.28056 0.30647 0.0
O52 O 0.24693 0.29667 0.26266 0.0
O53 O 0.3544 0.27589 0.31189 0.0
O54 O 0.26014 0.21262 0.28737 0.0
O55 O 0.21364 0.22369 0.27187 0.0
C56 C 0.30106 0.21848 0.22306 0.0
C57 C 0.16107 0.27514 0.22041 0.0
C58 C 0.13208 0.31327 0.2056 0.0
C59 C 0.11974 0.31881 0.23768 0.0
C60 C 0.14928 0.28236 0.25223 0.0
C61 C 0.12869 0.30391 0.26065 0.0
C62 C 0.15285 0.29108 0.19723 0.0
C63 C 0.31558 0.30984 0.23171 0.0
C64 C 0.18071 0.24996 0.21114 0.0
C65 C 0.23707 0.13814 0.1252 0.0
C66 C 0.26135 0.16933 0.11128 0.0
C67 C 0.2461 0.29861 0.29366 0.0
C68 C 0.3764 0.22814 0.30024 0.0
C69 C 0.41917 0.20314 0.3109 0.0
C70 C 0.43647 0.21006 0.28055 0.0
C71 C 0.39377 0.23425 0.27008 0.0
C72 C 0.38868 0.21208 0.32029 0.0
C73 C 0.42354 0.22501 0.26027 0.0
C74 C 0.22596 0.20748 0.28905 0.0
C75 C 0.34694 0.24057 0.31194 0.0
H76 H 0.1026 0.33424 0.24525 0.0
H77 H 0.15549 0.27094 0.27067 0.0
H78 H 0.11915 0.30866 0.28511 0.0
H79 H 0.16283 0.28621 0.17286 0.0
H80 H 0.46046 0.20463 0.27251 0.0
H81 H 0.38475 0.24684 0.25444 0.0
H82 H 0.37437 0.20678 0.34324 0.0
H83 H 0.43709 0.23012 0.23705 0.0
Tb84 Tb 0.73254 0.29046 0.25674 0.0
C85 C 0.85606 0.24844 0.19946 0.0
N86 N 0.82301 0.22504 0.2099 0.0
C87 C 0.81894 0.18374 0.16078 0.0
C88 C 0.87093 0.24158 0.16854 0.0
C89 C 0.80576 0.19148 0.1919 0.0
C90 C 0.85126 0.20938 0.14875 0.0
C91 C 0.91158 0.30122 0.21195 0.0
C92 C 0.87613 0.27785 0.2207 0.0
C93 C 0.92588 0.29581 0.18066 0.0
C94 C 0.90551 0.26614 0.15894 0.0
Tb95 Tb 0.80312 0.24337 0.26022 0.0
N96 N 0.86092 0.28306 0.25034 0.0
C97 C 0.93155 0.32903 0.23503 0.0
C98 C 0.88076 0.30855 0.27348 0.0
C99 C 0.91621 0.33236 0.26606 0.0
H100 H 0.78182 0.17037 0.20135 0.0
H101 H 0.93163 0.35323 0.28423 0.0
H102 H 0.73682 0.34112 0.32726 0.0
H103 H 0.62036 0.17829 0.1994 0.0
H104 H 0.86898 0.31072 0.29749 0.0
H105 H 0.95891 0.34763 0.22927 0.0
H106 H 0.68005 0.22965 0.20075 0.0
H107 H 0.8044 0.15775 0.14626 0.0
H108 H 0.95286 0.31388 0.17324 0.0
H109 H 0.91721 0.26168 0.13511 0.0
H110 H 0.69867 0.33883 0.37737 0.0
H111 H 0.86161 0.20311 0.12476 0.0
H112 H 0.58062 0.16639 0.24857 0.0
N113 N 0.6987 0.29189 0.30347 0.0
C114 C 0.66487 0.26524 0.30463 0.0
C115 C 0.68892 0.3178 0.35715 0.0
C116 C 0.64215 0.26279 0.33268 0.0
C117 C 0.71059 0.31885 0.32881 0.0
C118 C 0.65466 0.2894 0.35922 0.0
N119 N 0.6763 0.24409 0.25097 0.0
C120 C 0.66396 0.22365 0.22274 0.0
C121 C 0.6187 0.21172 0.27782 0.0
C122 C 0.65357 0.23999 0.27764 0.0
C123 C 0.60721 0.18846 0.24948 0.0
C124 C 0.62967 0.195 0.2217 0.0
H125 H 0.63804 0.28843 0.38128 0.0
H126 H 0.59031 0.23129 0.35481 0.0
H127 H 0.56944 0.18648 0.30672 0.0
O128 O 0.70053 0.30717 0.2337 0.0
O129 O 0.72923 0.25914 0.29532 0.0
O130 O 0.7463 0.21108 0.27236 0.0
O131 O 0.74513 0.34818 0.25852 0.0
O132 O 0.74093 0.25275 0.21468 0.0
O133 O 0.75524 0.20959 0.23411 0.0
O134 O 0.8133 0.23378 0.30369 0.0
O135 O 0.82012 0.29892 0.24555 0.0
O136 O 0.77452 0.29502 0.21817 0.0
O137 O 0.82632 0.20437 0.25978 0.0
O138 O 0.79707 0.28263 0.30176 0.0
O139 O 0.77902 0.32525 0.28466 0.0
C140 C 0.72512 0.22392 0.29234 0.0
C141 C 0.6954 0.36427 0.25553 0.0
C142 C 0.65313 0.39005 0.24512 0.0
C143 C 0.65443 0.40778 0.27671 0.0
C144 C 0.69632 0.38232 0.28684 0.0
C145 C 0.67567 0.40367 0.29737 0.0
C146 C 0.67351 0.36788 0.23496 0.0
C147 C 0.7426 0.21959 0.21237 0.0
C148 C 0.71772 0.34253 0.24315 0.0
C149 C 0.60793 0.23383 0.33335 0.0
C150 C 0.59619 0.20829 0.306 0.0
C151 C 0.80886 0.3058 0.22133 0.0
C152 C 0.8121 0.17368 0.30453 0.0
C153 C 0.82563 0.13029 0.32909 0.0
C154 C 0.78887 0.10705 0.33092 0.0
C155 C 0.77558 0.15026 0.30624 0.0
C156 C 0.8369 0.16369 0.31593 0.0
C157 C 0.76405 0.11703 0.31946 0.0
C158 C 0.79435 0.31547 0.30473 0.0
C159 C 0.82546 0.20833 0.29041 0.0
H160 H 0.63979 0.42567 0.28536 0.0
H161 H 0.71326 0.3804 0.30305 0.0
H162 H 0.67663 0.41769 0.32152 0.0
H163 H 0.67262 0.35346 0.21091 0.0
H164 H 0.77942 0.081 0.34081 0.0
H165 H 0.7562 0.15756 0.29723 0.0
H166 H 0.86506 0.18224 0.3148 0.0
H167 H 0.73586 0.09888 0.32067 0.0
Tb168 Tb 0.77169 0.72417 0.28275 0.0
C169 C 0.85625 0.82756 0.17583 0.0
N170 N 0.844 0.837 0.206 0.0
C171 C 0.90116 0.888 0.21413 0.0
C172 C 0.89201 0.84706 0.16436 0.0
C173 C 0.86536 0.86855 0.22426 0.0
C174 C 0.91476 0.87677 0.18432 0.0
C175 C 0.84343 0.7918 0.12339 0.0
C176 C 0.83233 0.79993 0.15543 0.0
C177 C 0.87936 0.81007 0.11248 0.0
C178 C 0.90361 0.83745 0.13294 0.0
Tb179 Tb 0.78468 0.80096 0.21824 0.0
N180 N 0.79789 0.7816 0.16682 0.0
C181 C 0.81787 0.76612 0.10307 0.0
C182 C 0.77252 0.7579 0.14682 0.0
C183 C 0.78217 0.74948 0.11477 0.0
H184 H 0.85523 0.87997 0.2464 0.0
H185 H 0.7621 0.73028 0.09911 0.0
H186 H 0.71934 0.63679 0.25149 0.0
H187 H 0.76988 0.78774 0.40462 0.0
H188 H 0.74475 0.74618 0.15534 0.0
H189 H 0.82531 0.75939 0.07825 0.0
H190 H 0.79779 0.77661 0.35094 0.0
H191 H 0.91803 0.91228 0.22907 0.0
H192 H 0.88849 0.80379 0.08805 0.0
H193 H 0.93106 0.85196 0.12392 0.0
H194 H 0.65745 0.59205 0.26193 0.0
H195 H 0.94238 0.89236 0.17639 0.0
H196 H 0.70505 0.75245 0.41687 0.0
N197 N 0.71599 0.67789 0.2904 0.0
C198 C 0.69698 0.68455 0.31774 0.0
C199 C 0.66802 0.61824 0.27756 0.0
C200 C 0.66194 0.659 0.32527 0.0
C201 C 0.70296 0.64398 0.27151 0.0
C202 C 0.6471 0.62616 0.30419 0.0
N203 N 0.74878 0.73738 0.33269 0.0
C204 C 0.76942 0.76169 0.35599 0.0
C205 C 0.69702 0.72021 0.37009 0.0
C206 C 0.71409 0.71496 0.33985 0.0
C207 C 0.71712 0.7477 0.39326 0.0
C208 C 0.75377 0.76764 0.38648 0.0
H209 H 0.62025 0.60586 0.3091 0.0
H210 H 0.61655 0.64691 0.36036 0.0
H211 H 0.6474 0.70038 0.39972 0.0
O212 O 0.81818 0.73366 0.30445 0.0
O213 O 0.74976 0.76839 0.30048 0.0
O214 O 0.75327 0.80787 0.2635 0.0
O215 O 0.77886 0.67785 0.29382 0.0
O216 O 0.81368 0.77262 0.26478 0.0
O217 O 0.81083 0.82703 0.26204 0.0
O218 O 0.7426 0.80146 0.19538 0.0
O219 O 0.80594 0.75539 0.20122 0.0
O220 O 0.79678 0.71158 0.23612 0.0
O221 O 0.78833 0.85221 0.20711 0.0
O222 O 0.73863 0.75376 0.23406 0.0
O223 O 0.74305 0.70004 0.23973 0.0
C224 C 0.74279 0.79525 0.29139 0.0
C225 C 0.81194 0.69018 0.338 0.0
C226 C 0.84736 0.67873 0.37261 0.0
C227 C 0.82039 0.67628 0.39729 0.0
C228 C 0.78447 0.68603 0.36244 0.0
C229 C 0.78898 0.67973 0.39211 0.0
C230 C 0.84318 0.68597 0.34304 0.0
C231 C 0.82066 0.80731 0.27713 0.0
C232 C 0.80856 0.69848 0.30704 0.0
C233 C 0.64365 0.66596 0.35436 0.0
C234 C 0.66121 0.69644 0.37678 0.0
C235 C 0.80958 0.72578 0.20914 0.0
C236 C 0.73239 0.85701 0.20962 0.0
C237 C 0.68382 0.87575 0.2026 0.0
C238 C 0.6837 0.89036 0.23507 0.0
C239 C 0.73258 0.87306 0.24148 0.0
C240 C 0.70851 0.85894 0.19018 0.0
C241 C 0.7084 0.8897 0.25404 0.0
C242 C 0.7326 0.71872 0.22382 0.0
C243 C 0.75657 0.83774 0.19649 0.0
H244 H 0.82312 0.67036 0.4202 0.0
H245 H 0.75944 0.68718 0.3586 0.0
H246 H 0.76784 0.67686 0.41095 0.0
H247 H 0.86405 0.68799 0.32398 0.0
H248 H 0.66459 0.90242 0.24607 0.0
H249 H 0.75123 0.87253 0.25676 0.0
H250 H 0.70989 0.84786 0.1653 0.0
H251 H 0.70862 0.90189 0.27869 0.0
Tb252 Tb 0.23222 0.78501 0.25642 0.0
C253 C 0.28052 0.68474 0.31581 0.0
N254 N 0.29546 0.72233 0.31524 0.0
C255 C 0.30482 0.73299 0.3705 0.0
C256 C 0.27554 0.66978 0.34427 0.0
C257 C 0.30935 0.7465 0.34161 0.0
C258 C 0.28734 0.69451 0.37194 0.0
C259 C 0.25771 0.62207 0.2868 0.0
C260 C 0.27201 0.66133 0.2874 0.0
C261 C 0.2509 0.60692 0.31532 0.0
C262 C 0.26014 0.63074 0.34395 0.0
Tb263 Tb 0.30247 0.74137 0.26704 0.0
N264 N 0.28045 0.67705 0.2602 0.0
C265 C 0.2523 0.59927 0.25744 0.0
C266 C 0.27831 0.65485 0.23149 0.0
C267 C 0.26327 0.61577 0.22966 0.0
H268 H 0.32321 0.77618 0.34035 0.0
H269 H 0.2608 0.59842 0.20681 0.0
H270 H 0.17059 0.72511 0.20905 0.0
H271 H 0.30976 0.93283 0.2542 0.0
H272 H 0.28846 0.66692 0.20977 0.0
H273 H 0.24126 0.56898 0.25596 0.0
H274 H 0.28024 0.87439 0.27879 0.0
H275 H 0.31483 0.75211 0.39162 0.0
H276 H 0.23966 0.57683 0.31536 0.0
H277 H 0.25586 0.61866 0.36562 0.0
H278 H 0.15495 0.71891 0.15454 0.0
H279 H 0.28395 0.68412 0.39432 0.0
H280 H 0.30386 0.93161 0.19747 0.0
N281 N 0.21457 0.77743 0.20657 0.0
C282 C 0.23118 0.80687 0.19005 0.0
C283 C 0.17704 0.74353 0.1639 0.0
C284 C 0.22259 0.80525 0.1591 0.0
C285 C 0.18646 0.74675 0.1946 0.0
C286 C 0.19573 0.7726 0.14576 0.0
N287 N 0.25949 0.84054 0.23599 0.0
C288 C 0.2776 0.8738 0.25403 0.0
C289 C 0.27004 0.87241 0.19054 0.0
C290 C 0.25428 0.83987 0.20546 0.0
C291 C 0.29104 0.906 0.20812 0.0
C292 C 0.29434 0.90682 0.24018 0.0
H293 H 0.18809 0.77031 0.12213 0.0
H294 H 0.2336 0.83621 0.11939 0.0
H295 H 0.27504 0.89521 0.14707 0.0
O296 O 0.21483 0.81749 0.29339 0.0
O297 O 0.28889 0.8106 0.23873 0.0
O298 O 0.30576 0.76113 0.22193 0.0
O299 O 0.17862 0.78071 0.25899 0.0
O300 O 0.25978 0.80537 0.30059 0.0
O301 O 0.3143 0.80002 0.28601 0.0
O302 O 0.34419 0.72187 0.26048 0.0
O303 O 0.2587 0.73969 0.30388 0.0
O304 O 0.2125 0.7316 0.27535 0.0
O305 O 0.35548 0.78068 0.27152 0.0
O306 O 0.27449 0.72043 0.2227 0.0
O307 O 0.21982 0.72562 0.23683 0.0
C308 C 0.30842 0.79491 0.21966 0.0
C309 C 0.15771 0.78225 0.31334 0.0
C310 C 0.14716 0.78432 0.37057 0.0
C311 C 0.12158 0.74738 0.36662 0.0
C312 C 0.13266 0.74494 0.30952 0.0
C313 C 0.11433 0.72783 0.33617 0.0
C314 C 0.1641 0.80171 0.34382 0.0
C315 C 0.29407 0.81555 0.3042 0.0
C316 C 0.18152 0.80023 0.28696 0.0
C317 C 0.23957 0.83696 0.1433 0.0
C318 C 0.26314 0.87057 0.15908 0.0
C319 C 0.22429 0.72572 0.29982 0.0
C320 C 0.39382 0.76256 0.23351 0.0
C321 C 0.40196 0.7497 0.17606 0.0
C322 C 0.43937 0.76931 0.17815 0.0
C323 C 0.43077 0.78201 0.23536 0.0
C324 C 0.37971 0.74866 0.204 0.0
C325 C 0.45345 0.78599 0.20755 0.0
C326 C 0.24035 0.71057 0.21813 0.0
C327 C 0.36899 0.75555 0.26176 0.0
H328 H 0.107 0.73403 0.387 0.0
H329 H 0.1277 0.72886 0.28619 0.0
H330 H 0.09475 0.69925 0.33324 0.0
H331 H 0.1828 0.8308 0.34666 0.0
H332 H 0.45815 0.7706 0.15757 0.0
H333 H 0.44198 0.79365 0.25811 0.0
H334 H 0.35102 0.7353 0.20334 0.0
H335 H 0.48214 0.80074 0.20885 0.0
Tb336 Tb 0.23971 0.77432 0.75105 0.0
C337 C 0.38712 0.7739 0.71307 0.0
N338 N 0.35508 0.74442 0.71054 0.0
C339 C 0.37182 0.72712 0.65619 0.0
C340 C 0.41223 0.78236 0.68672 0.0
C341 C 0.34773 0.71997 0.68307 0.0
C342 C 0.40402 0.75875 0.65789 0.0
C343 C 0.42781 0.82571 0.74631 0.0
C344 C 0.39457 0.79526 0.74237 0.0
C345 C 0.45244 0.83545 0.71987 0.0
C346 C 0.44469 0.81373 0.69013 0.0
Tb347 Tb 0.3169 0.73581 0.75518 0.0
N348 N 0.3701 0.7847 0.76732 0.0
C349 C 0.43583 0.84444 0.77687 0.0
C350 C 0.37926 0.80071 0.79746 0.0
C351 C 0.41183 0.83129 0.80262 0.0
H352 H 0.32292 0.69549 0.68177 0.0
H353 H 0.41861 0.84447 0.82646 0.0
H354 H 0.25277 0.84274 0.81347 0.0
H355 H 0.12053 0.65382 0.71909 0.0
H356 H 0.36172 0.78988 0.8177 0.0
H357 H 0.46108 0.86798 0.78097 0.0
H358 H 0.1815 0.7019 0.70971 0.0
H359 H 0.36551 0.70832 0.63419 0.0
H360 H 0.47796 0.85903 0.72234 0.0
H361 H 0.46426 0.82093 0.6701 0.0
H362 H 0.22516 0.84967 0.86752 0.0
H363 H 0.42255 0.76435 0.63701 0.0
H364 H 0.08836 0.65492 0.77232 0.0
N365 N 0.2152 0.78684 0.801 0.0
C366 C 0.1826 0.76058 0.80904 0.0
C367 C 0.21318 0.82414 0.85149 0.0
C368 C 0.16488 0.76415 0.83928 0.0
C369 C 0.22929 0.81963 0.82095 0.0
C370 C 0.18121 0.7959 0.86096 0.0
N371 N 0.18398 0.72869 0.75738 0.0
C372 C 0.16768 0.70228 0.73302 0.0
C373 C 0.13129 0.70437 0.79269 0.0
C374 C 0.16598 0.73108 0.78618 0.0
C375 C 0.115 0.67603 0.76829 0.0
C376 C 0.13314 0.67524 0.73822 0.0
H377 H 0.16859 0.79966 0.8845 0.0
H378 H 0.11707 0.73871 0.8697 0.0
H379 H 0.08771 0.68627 0.82888 0.0
O380 O 0.22664 0.78275 0.70833 0.0
O381 O 0.22782 0.71933 0.76532 0.0
O382 O 0.27408 0.72613 0.79345 0.0
O383 O 0.21319 0.81077 0.75278 0.0
O384 O 0.25082 0.73887 0.70876 0.0
O385 O 0.27231 0.69916 0.72606 0.0
O386 O 0.35132 0.71805 0.77397 0.0
O387 O 0.31697 0.76659 0.7178 0.0
O388 O 0.2955 0.81165 0.73964 0.0
O389 O 0.3074 0.67856 0.74753 0.0
O390 O 0.30386 0.77015 0.79755 0.0
O391 O 0.28538 0.81096 0.77891 0.0
C392 C 0.23956 0.71382 0.79 0.0
C393 C 0.22387 0.84131 0.7082 0.0
C394 C 0.20681 0.8828 0.68436 0.0
C395 C 0.24328 0.90628 0.68015 0.0
C396 C 0.26013 0.86502 0.704 0.0
C397 C 0.26971 0.89749 0.6901 0.0
C398 C 0.19732 0.8504 0.69863 0.0
C399 C 0.25664 0.70762 0.70546 0.0
C400 C 0.21296 0.80678 0.72224 0.0
C401 C 0.13094 0.73666 0.84647 0.0
C402 C 0.11413 0.70689 0.82319 0.0
C403 C 0.31949 0.80122 0.72149 0.0
C404 C 0.3231 0.65777 0.78909 0.0
C405 C 0.34218 0.6272 0.82324 0.0
C406 C 0.3061 0.60863 0.83395 0.0
C407 C 0.28725 0.63943 0.80037 0.0
C408 C 0.3504 0.65167 0.80065 0.0
C409 C 0.27892 0.61472 0.82247 0.0
C410 C 0.29969 0.80214 0.80021 0.0
C411 C 0.33268 0.68288 0.76494 0.0
H412 H 0.25129 0.93152 0.6693 0.0
H413 H 0.28092 0.85844 0.71136 0.0
H414 H 0.29767 0.91585 0.68698 0.0
H415 H 0.16933 0.8318 0.70164 0.0
H416 H 0.29884 0.58896 0.85084 0.0
H417 H 0.26569 0.64382 0.79191 0.0
H418 H 0.37809 0.66628 0.79221 0.0
H419 H 0.25129 0.59985 0.83042 0.0
Tb420 Tb 0.27102 0.2237 0.78269 0.0
C421 C 0.34271 0.30739 0.66714 0.0
N422 N 0.33946 0.31899 0.6988 0.0
C423 C 0.40196 0.35904 0.69739 0.0
C424 C 0.3762 0.32025 0.64959 0.0
C425 C 0.36823 0.3453 0.71388 0.0
C426 C 0.40604 0.34631 0.66517 0.0
C427 C 0.31515 0.2671 0.62027 0.0
C428 C 0.31249 0.2811 0.65267 0.0
C429 C 0.34855 0.27962 0.60275 0.0
C430 C 0.37894 0.30624 0.61733 0.0
Tb431 Tb 0.28257 0.29656 0.72207 0.0
N432 N 0.28057 0.26938 0.67039 0.0
C433 C 0.28407 0.24121 0.60637 0.0
C434 C 0.24982 0.24634 0.65632 0.0
C435 C 0.25122 0.23114 0.6244 0.0
H436 H 0.36542 0.35637 0.73847 0.0
H437 H 0.22691 0.21223 0.61353 0.0
H438 H 0.21045 0.13993 0.75356 0.0
H439 H 0.27956 0.28968 0.904 0.0
H440 H 0.22404 0.24086 0.66919 0.0
H441 H 0.28499 0.22964 0.58157 0.0
H442 H 0.30327 0.27416 0.84937 0.0
H443 H 0.42477 0.37965 0.70949 0.0
H444 H 0.35111 0.26907 0.57784 0.0
H445 H 0.4045 0.31562 0.60349 0.0
H446 H 0.14659 0.1019 0.76556 0.0
H447 H 0.43226 0.35688 0.65253 0.0
H448 H 0.21433 0.26127 0.91887 0.0
N449 N 0.21303 0.18275 0.79273 0.0
C450 C 0.19626 0.19188 0.82057 0.0
C451 C 0.16008 0.12748 0.78102 0.0
C452 C 0.16014 0.17008 0.82911 0.0
C453 C 0.19621 0.14952 0.77406 0.0
C454 C 0.1417 0.13824 0.80834 0.0
N455 N 0.25172 0.23949 0.83344 0.0
C456 C 0.2748 0.26213 0.85574 0.0
C457 C 0.20172 0.22859 0.87271 0.0
C458 C 0.21652 0.22084 0.84199 0.0
C459 C 0.22461 0.25459 0.89495 0.0
C460 C 0.26149 0.27064 0.88666 0.0
H461 H 0.11389 0.12078 0.81395 0.0
H462 H 0.11642 0.16352 0.86559 0.0
H463 H 0.15297 0.2147 0.90391 0.0
O464 O 0.31839 0.22765 0.79971 0.0
O465 O 0.25625 0.27239 0.80134 0.0
O466 O 0.23698 0.28454 0.75844 0.0
O467 O 0.27182 0.17631 0.79821 0.0
O468 O 0.31989 0.27092 0.77114 0.0
O469 O 0.30909 0.32175 0.76629 0.0
O470 O 0.26066 0.31828 0.69289 0.0
O471 O 0.31631 0.26216 0.71225 0.0
O472 O 0.28498 0.20607 0.73286 0.0
O473 O 0.29327 0.35427 0.73012 0.0
O474 O 0.23029 0.24994 0.72714 0.0
O475 O 0.24254 0.20128 0.73905 0.0
C476 C 0.23836 0.28764 0.78927 0.0
C477 C 0.32838 0.17215 0.79358 0.0
C478 C 0.3729 0.15013 0.80491 0.0
C479 C 0.37287 0.13246 0.77335 0.0
C480 C 0.32855 0.15419 0.76241 0.0
C481 C 0.35092 0.13464 0.75229 0.0
C482 C 0.35073 0.17042 0.81464 0.0
C483 C 0.32466 0.30594 0.78034 0.0
C484 C 0.3052 0.19294 0.80469 0.0
C485 C 0.14428 0.17961 0.85876 0.0
C486 C 0.16509 0.20876 0.88059 0.0
C487 C 0.30872 0.22598 0.71204 0.0
C488 C 0.24492 0.36826 0.71891 0.0
C489 C 0.19654 0.38377 0.70558 0.0
C490 C 0.19361 0.40021 0.7372 0.0
C491 C 0.24118 0.3847 0.75032 0.0
C492 C 0.22252 0.36792 0.69662 0.0
C493 C 0.21578 0.40066 0.75926 0.0
C494 C 0.22299 0.21399 0.72629 0.0
C495 C 0.27204 0.35155 0.70904 0.0
H496 H 0.38907 0.11608 0.7651 0.0
H497 H 0.31113 0.15503 0.74617 0.0
H498 H 0.35081 0.12063 0.72821 0.0
H499 H 0.35071 0.18485 0.83863 0.0
H500 H 0.17458 0.41342 0.74486 0.0
H501 H 0.25783 0.38531 0.76806 0.0
H502 H 0.22516 0.355 0.67242 0.0
H503 H 0.21335 0.41358 0.78342 0.0
Tb504 Tb 0.74098 0.27638 0.74773 0.0
C505 C 0.77076 0.18197 0.82625 0.0
N506 N 0.78985 0.21767 0.81957 0.0
C507 C 0.79993 0.23868 0.87473 0.0
C508 C 0.76593 0.17339 0.85743 0.0
C509 C 0.80557 0.24566 0.84325 0.0
C510 C 0.78016 0.20243 0.88183 0.0
C511 C 0.73685 0.11629 0.80765 0.0
C512 C 0.75658 0.15354 0.80162 0.0
C513 C 0.73246 0.10773 0.83858 0.0
C514 C 0.7473 0.13612 0.86332 0.0
Tb515 Tb 0.79902 0.22309 0.7665 0.0
N516 N 0.76163 0.16259 0.77178 0.0
C517 C 0.72208 0.08869 0.7824 0.0
C518 C 0.74885 0.13528 0.74682 0.0
C519 C 0.72783 0.09831 0.75193 0.0
H520 H 0.82376 0.27304 0.83821 0.0
H521 H 0.71668 0.077 0.73225 0.0
H522 H 0.73281 0.24677 0.67174 0.0
H523 H 0.77216 0.41488 0.81451 0.0
H524 H 0.7553 0.14152 0.72287 0.0
H525 H 0.7064 0.05985 0.78615 0.0
H526 H 0.74585 0.34582 0.80735 0.0
H527 H 0.81159 0.26095 0.89356 0.0
H528 H 0.71763 0.07923 0.84361 0.0
H529 H 0.7439 0.12901 0.88705 0.0
H530 H 0.74806 0.27468 0.62185 0.0
H531 H 0.77655 0.19707 0.90616 0.0
H532 H 0.79855 0.44871 0.76808 0.0
N533 N 0.75553 0.29925 0.70065 0.0
C534 C 0.76992 0.33709 0.7022 0.0
C535 C 0.75477 0.29253 0.64426 0.0
C536 C 0.77907 0.35433 0.67454 0.0
C537 C 0.74637 0.27679 0.67243 0.0
C538 C 0.77144 0.33147 0.64529 0.0
N539 N 0.76069 0.34032 0.75768 0.0
C540 C 0.75864 0.3601 0.787 0.0
C541 C 0.78722 0.39784 0.73459 0.0
C542 C 0.77332 0.3584 0.73178 0.0
C543 C 0.78791 0.41833 0.76486 0.0
C544 C 0.77303 0.39933 0.79113 0.0
H545 H 0.77754 0.34362 0.62347 0.0
H546 H 0.80209 0.40754 0.6561 0.0
H547 H 0.80979 0.4457 0.70873 0.0
O548 O 0.69894 0.29468 0.74944 0.0
O549 O 0.78933 0.27979 0.71669 0.0
O550 O 0.83016 0.27536 0.74624 0.0
O551 O 0.68972 0.23625 0.73757 0.0
O552 O 0.76555 0.29498 0.79357 0.0
O553 O 0.81713 0.28252 0.78673 0.0
O554 O 0.8317 0.20013 0.73582 0.0
O555 O 0.74029 0.20289 0.77596 0.0
O556 O 0.72989 0.25596 0.79351 0.0
O557 O 0.84093 0.21668 0.78515 0.0
O558 O 0.78325 0.20918 0.71761 0.0
O559 O 0.73052 0.21913 0.72524 0.0
C560 C 0.82222 0.28945 0.72419 0.0
C561 C 0.64646 0.25062 0.77191 0.0
C562 C 0.6282 0.26273 0.8276 0.0
C563 C 0.59938 0.22761 0.82512 0.0
C564 C 0.61772 0.2155 0.76953 0.0
C565 C 0.59412 0.2042 0.79607 0.0
C566 C 0.65098 0.27416 0.80081 0.0
C567 C 0.79921 0.30386 0.79892 0.0
C568 C 0.6749 0.26048 0.74622 0.0
C569 C 0.79431 0.39367 0.6771 0.0
C570 C 0.79867 0.41539 0.70709 0.0
C571 C 0.72282 0.22075 0.79531 0.0
C572 C 0.84109 0.15759 0.76193 0.0
C573 C 0.81852 0.09203 0.7383 0.0
C574 C 0.81844 0.08106 0.76751 0.0
C575 C 0.84063 0.14639 0.7913 0.0
C576 C 0.83092 0.13016 0.73554 0.0
C577 C 0.82956 0.1083 0.79394 0.0
C578 C 0.75173 0.20362 0.70872 0.0
C579 C 0.84657 0.19645 0.75919 0.0
H580 H 0.58134 0.21811 0.8456 0.0
H581 H 0.61418 0.19652 0.74748 0.0
H582 H 0.57215 0.17699 0.79429 0.0
H583 H 0.6729 0.30145 0.80272 0.0
H584 H 0.80972 0.05168 0.76983 0.0
H585 H 0.84783 0.16686 0.81233 0.0
H586 H 0.83177 0.13841 0.71261 0.0
H587 H 0.82908 0.09986 0.81662 0.0
Tb588 Tb 0.73102 0.744 0.72813 0.0
C589 C 0.87186 0.85013 0.78943 0.0
N590 N 0.8629 0.81632 0.77084 0.0
C591 C 0.91725 0.841 0.73748 0.0
C592 C 0.90291 0.88126 0.78182 0.0
C593 C 0.88662 0.81079 0.74642 0.0
C594 C 0.92503 0.87659 0.75484 0.0
C595 C 0.86273 0.88546 0.83989 0.0
C596 C 0.85203 0.85234 0.81801 0.0
C597 C 0.89193 0.91743 0.83136 0.0
C598 C 0.91196 0.91535 0.80231 0.0
Tb599 Tb 0.8093 0.77069 0.7869 0.0
N600 N 0.82474 0.82066 0.82581 0.0
C601 C 0.84504 0.88474 0.87028 0.0
C602 C 0.80961 0.81878 0.85617 0.0
C603 C 0.81892 0.85099 0.87867 0.0
H604 H 0.88043 0.7837 0.73218 0.0
H605 H 0.80601 0.84975 0.90244 0.0
H606 H 0.66868 0.66373 0.75066 0.0
H607 H 0.78877 0.78048 0.6121 0.0
H608 H 0.78948 0.79257 0.8626 0.0
H609 H 0.85248 0.90957 0.88782 0.0
H610 H 0.77291 0.79363 0.66924 0.0
H611 H 0.93476 0.83681 0.71711 0.0
H612 H 0.90025 0.94335 0.84764 0.0
H613 H 0.93541 0.93973 0.79664 0.0
H614 H 0.64311 0.59739 0.72741 0.0
H615 H 0.94899 0.89985 0.74805 0.0
H616 H 0.76831 0.71512 0.5852 0.0
N617 N 0.70359 0.68153 0.70976 0.0
C618 C 0.71119 0.67191 0.67839 0.0
C619 C 0.66273 0.61794 0.71351 0.0
C620 C 0.69638 0.63438 0.66384 0.0
C621 C 0.67791 0.65557 0.72681 0.0
C622 C 0.67251 0.60716 0.68205 0.0
N623 N 0.74566 0.73613 0.675 0.0
C624 C 0.76482 0.76499 0.65795 0.0
C625 C 0.74053 0.69133 0.62771 0.0
C626 C 0.73256 0.70007 0.66037 0.0
C627 C 0.76158 0.72066 0.61036 0.0
C628 C 0.77339 0.75764 0.62549 0.0
H629 H 0.6605 0.57802 0.67174 0.0
H630 H 0.69412 0.59665 0.61994 0.0
H631 H 0.73311 0.64647 0.58841 0.0
O632 O 0.70281 0.76113 0.7007 0.0
O633 O 0.77762 0.73031 0.70718 0.0
O634 O 0.8004 0.72123 0.7499 0.0
O635 O 0.67643 0.73289 0.74214 0.0
O636 O 0.77225 0.80105 0.73056 0.0
O637 O 0.81921 0.78805 0.73996 0.0
O638 O 0.80761 0.71983 0.79772 0.0
O639 O 0.76777 0.7936 0.80633 0.0
O640 O 0.73561 0.79237 0.76505 0.0
O641 O 0.84757 0.77204 0.8157 0.0
O642 O 0.75495 0.74619 0.80833 0.0
O643 O 0.72733 0.70885 0.76442 0.0
C644 C 0.79548 0.71503 0.71934 0.0
C645 C 0.63948 0.75069 0.71326 0.0
C646 C 0.60629 0.77934 0.69081 0.0
C647 C 0.57445 0.75591 0.70597 0.0
C648 C 0.60719 0.72779 0.72804 0.0
C649 C 0.57494 0.73029 0.72425 0.0
C650 C 0.63889 0.77621 0.69418 0.0
C651 C 0.80684 0.80913 0.72899 0.0
C652 C 0.67342 0.74824 0.71875 0.0
C653 C 0.70497 0.62539 0.63144 0.0
C654 C 0.72707 0.65378 0.61345 0.0
C655 C 0.74512 0.80354 0.79448 0.0
C656 C 0.86495 0.72113 0.80149 0.0
C657 C 0.90613 0.69409 0.81194 0.0
C658 C 0.92178 0.69792 0.78071 0.0
C659 C 0.88017 0.7232 0.7703 0.0
C660 C 0.87754 0.70608 0.82217 0.0
C661 C 0.90851 0.71187 0.76002 0.0
C662 C 0.72797 0.71792 0.79536 0.0
C663 C 0.83681 0.73586 0.81249 0.0
H664 H 0.54896 0.7572 0.70345 0.0
H665 H 0.60683 0.70784 0.74258 0.0
H666 H 0.55018 0.71239 0.73568 0.0
H667 H 0.66369 0.79424 0.68281 0.0
H668 H 0.94454 0.69043 0.77211 0.0
H669 H 0.87003 0.73354 0.75389 0.0
H670 H 0.86477 0.7035 0.84594 0.0
H671 H 0.92038 0.71409 0.73596 0.0
C672 C 0.90636 0.05322 0.53445 0.0
C673 C 0.97476 0.06547 0.44823 0.0
C674 C 0.96459 0.93009 0.46564 0.0
Mg675 Mg 0.98929 0.08192 0.51892 0.0
O676 O 0.97687 0.03052 0.51819 0.0
Mg677 Mg 0.93878 0.99314 0.49114 0.0
Mg678 Mg 1.01303 0.00794 0.50825 0.0
O679 O 0.04945 0.98529 0.50015 0.0
Mg680 Mg 0.02299 0.93078 0.50553 0.0
Mg681 Mg 0.09204 0.02811 0.52714 0.0
C682 C 0.05183 0.08285 0.55692 0.0
C683 C 0.08228 0.06619 0.46896 0.0
O684 O 0.90244 0.02227 0.51653 0.0
O685 O 0.93727 0.07951 0.53927 0.0
O686 O 0.95526 0.03175 0.45298 0.0
O687 O 0.99311 0.08982 0.46984 0.0
O688 O 0.0346 0.10109 0.54954 0.0
O689 O 0.0462 0.04891 0.54478 0.0
C690 C 0.94462 0.9527 0.5486 0.0
O691 O 0.97891 0.96885 0.5451 0.0
O692 O 0.92446 0.95694 0.53067 0.0
O693 O 0.07553 0.97531 0.49076 0.0
O694 O 0.0636 0.91587 0.47656 0.0
O695 O 0.07654 0.98822 0.56514 0.0
C696 C 0.08712 0.94921 0.47925 0.0
O697 O 0.03183 0.93137 0.55476 0.0
O698 O 0.97457 0.91028 0.47977 0.0
C699 C 0.05567 0.95582 0.57274 0.0
O700 O 0.97828 0.96587 0.4706 0.0
O701 O 0.04809 0.0479 0.47169 0.0
O702 O 0.10312 0.06376 0.48737 0.0
C703 C 0.43305 0.08194 0.06595 0.0
C704 C 0.47772 0.08049 0.96732 0.0
C705 C 0.45779 0.93729 0.96931 0.0
Mg706 Mg 0.50798 0.09096 0.03153 0.0
O707 O 0.48976 0.03876 0.03083 0.0
Mg708 Mg 0.44258 0.00977 0.01174 0.0
Mg709 Mg 0.51808 0.00893 1.00731 0.0
O710 O 0.54651 0.97928 0.98345 0.0
Mg711 Mg 0.5289 0.92741 0.98452 0.0
Mg712 Mg 0.59518 0.00967 0.99936 0.0
C713 C 0.57901 0.08041 0.04596 0.0
C714 C 0.57796 0.06062 0.9575 0.0
O715 O 0.41953 0.0499 0.04849 0.0
O716 O 0.46684 0.10196 0.06458 0.0
O717 O 0.45507 0.04875 0.97429 0.0
O718 O 0.50257 0.10173 0.98531 0.0
O719 O 0.56066 0.10047 0.0458 0.0
O720 O 0.56713 0.0451 0.0352 0.0
C721 C 0.45544 0.95852 0.05636 0.0
O722 O 0.4886 0.96786 0.04543 0.0
O723 O 0.43482 0.97168 0.04739 0.0
O724 O 0.617 0.96982 0.96058 0.0
O725 O 0.56939 0.91558 0.95105 0.0
O726 O 0.58773 0.97047 0.03501 0.0
C727 C 0.6028 0.93601 0.946 0.0
O728 O 0.53801 0.91845 0.03045 0.0
O729 O 0.47551 0.91682 0.97046 0.0
C730 C 0.56648 0.93946 0.04432 0.0
O731 O 0.47033 0.97281 0.97901 0.0
O732 O 0.54535 0.04989 0.96957 0.0
O733 O 0.60017 0.04838 0.96476 0.0
C734 C 0.95048 0.59002 0.06099 0.0
C735 C 0.98811 0.58097 0.96321 0.0
C736 C 0.96224 0.43645 0.96725 0.0
Mg737 Mg 0.02344 0.59159 0.02493 0.0
O738 O 1.00178 0.53985 0.02654 0.0
Mg739 Mg 0.95289 0.5127 0.0101 0.0
Mg740 Mg 0.02648 0.50572 1.00444 0.0
O741 O 0.05113 0.47162 0.98225 0.0
Mg742 Mg 0.02968 0.41974 0.9831 0.0
Mg743 Mg 0.10029 0.49858 0.99783 0.0
C744 C 0.09153 0.57514 0.04008 0.0
C745 C 0.08857 0.54916 0.9517 0.0
O746 O 0.93469 0.55683 0.04597 0.0
O747 O 0.98466 0.60782 0.05756 0.0
O748 O 0.9648 0.55042 0.97191 0.0
O749 O 1.01571 0.60076 0.97868 0.0
O750 O 0.07592 0.59755 0.03863 0.0
O751 O 0.07653 0.53943 0.03154 0.0
C752 C 0.9641 0.46311 0.05724 0.0
O753 O 0.99604 0.46856 0.04455 0.0
O754 O 0.9443 0.47693 0.04791 0.0
O755 O 0.11812 0.4553 0.96023 0.0
O756 O 0.06807 0.404 0.94962 0.0
O757 O 0.08911 0.45946 0.03549 0.0
C758 C 0.10205 0.42222 0.94515 0.0
O759 O 0.0374 0.40989 0.02913 0.0
O760 O 0.97777 0.41394 0.96854 0.0
C761 C 0.06554 0.42889 0.04412 0.0
O762 O 0.97678 0.47182 0.97729 0.0
O763 O 0.05656 0.54313 0.9644 0.0
O764 O 0.10852 0.53535 0.96079 0.0
C765 C 0.42801 0.56839 0.02764 0.0
C766 C 0.48718 0.55844 0.94137 0.0
C767 C 0.47232 0.42749 0.96793 0.0
Mg768 Mg 0.50864 0.58321 0.00933 0.0
O769 O 0.48854 0.53361 0.01825 0.0
Mg770 Mg 0.44751 0.49586 0.99378 0.0
Mg771 Mg 0.52097 0.50675 0.00916 0.0
O772 O 0.55321 0.47943 1.00004 0.0
Mg773 Mg 0.53188 0.42973 0.00939 0.0
Mg774 Mg 0.59329 0.51699 0.02566 0.0
C775 C 0.5701 0.58646 0.04843 0.0
C776 C 0.5901 0.55355 0.96393 0.0
O777 O 0.41734 0.53359 0.01605 0.0
O778 O 0.461 0.59108 0.02798 0.0
O779 O 0.46456 0.52811 0.95105 0.0
O780 O 0.51035 0.58331 0.95924 0.0
O781 O 0.55619 0.60528 0.03713 0.0
O782 O 0.55835 0.55066 0.04291 0.0
C783 C 0.4525 0.46002 0.05486 0.0
O784 O 0.48674 0.47289 0.04932 0.0
O785 O 0.43244 0.46492 0.03719 0.0
O786 O 0.62329 0.47892 1.00517 0.0
O787 O 0.5802 0.42071 0.99501 0.0
O788 O 0.57401 0.48461 0.06898 0.0
C789 C 0.61313 0.44359 0.99585 0.0
O790 O 0.52702 0.43043 0.06 0.0
O791 O 0.486 0.4081 0.97882 0.0
C792 C 0.55005 0.45469 0.0784 0.0
O793 O 0.4833 0.46307 0.97533 0.0
O794 O 0.55579 0.54112 0.96933 0.0
O795 O 0.6097 0.54792 0.98168 0.0
C796 C 0.93999 0.58002 0.57385 0.0
C797 C 0.97706 0.57573 0.47591 0.0
C798 C 0.9596 0.4336 0.47379 0.0
Mg799 Mg 1.01382 0.58686 0.53584 0.0
O800 O 0.99549 0.53492 0.53614 0.0
Mg801 Mg 0.9464 0.5055 0.52069 0.0
Mg802 Mg 0.02252 0.50433 0.51098 0.0
O803 O 0.04912 0.47322 0.48626 0.0
Mg804 Mg 0.03046 0.42113 0.48676 0.0
Mg805 Mg 0.09835 0.50271 0.50125 0.0
C806 C 0.0848 0.57514 0.54812 0.0
C807 C 0.08083 0.55156 0.45735 0.0
O808 O 0.9255 0.54641 0.559 0.0
O809 O 0.97369 0.59976 0.56939 0.0
O810 O 0.95478 0.54495 0.48498 0.0
O811 O 1.00545 0.59603 0.49007 0.0
O812 O 0.06699 0.59601 0.54907 0.0
O813 O 0.07245 0.54017 0.53652 0.0
C814 C 0.9637 0.45464 0.56275 0.0
O815 O 0.99611 0.46457 0.55 0.0
O816 O 0.94148 0.467 0.55561 0.0
O817 O 0.11837 0.46123 0.46305 0.0
O818 O 0.06956 0.40878 0.45189 0.0
O819 O 0.09 0.4653 0.539 0.0
C820 C 0.10329 0.42825 0.44736 0.0
O821 O 0.04128 0.41228 0.53231 0.0
O822 O 0.9768 0.4122 0.47345 0.0
C823 C 0.06839 0.43406 0.54777 0.0
O824 O 0.97268 0.46868 0.48505 0.0
O825 O 0.04922 0.54396 0.47164 0.0
O826 O 0.10277 0.53887 0.46452 0.0
C827 C 0.45178 0.09271 0.56432 0.0
C828 C 0.49267 0.08744 0.46639 0.0
C829 C 0.46224 0.94034 0.46863 0.0
Mg830 Mg 0.52516 0.09498 0.52952 0.0
O831 O 0.50276 0.04279 0.52864 0.0
Mg832 Mg 0.45442 0.01707 0.51104 0.0
Mg833 Mg 0.52686 0.00839 0.50605 0.0
O834 O 0.55124 0.97429 0.48326 0.0
Mg835 Mg 0.52925 0.92229 0.48275 0.0
Mg836 Mg 0.59995 1.00012 0.50001 0.0
C837 C 0.5924 0.07607 0.54251 0.0
C838 C 0.59001 0.05355 0.45507 0.0
O839 O 0.43622 0.06109 0.54697 0.0
O840 O 0.4861 0.1098 0.56322 0.0
O841 O 0.46883 0.05629 0.4735 0.0
O842 O 0.51902 0.10667 0.48351 0.0
O843 O 0.57756 0.09953 0.54243 0.0
O844 O 0.5764 0.04068 0.53345 0.0
C845 C 0.46329 0.96505 0.55745 0.0
O846 O 0.49556 0.97091 0.54547 0.0
O847 O 0.4441 0.9796 0.54802 0.0
O848 O 0.61804 0.95724 0.46235 0.0
O849 O 0.56799 0.90669 0.44987 0.0
O850 O 0.58663 0.9594 0.53757 0.0
C851 C 0.60213 0.9246 0.44654 0.0
O852 O 0.53502 0.91061 0.52839 0.0
O853 O 0.47747 0.91733 0.46898 0.0
C854 C 0.56211 0.92853 0.54485 0.0
O855 O 0.47753 0.97568 0.47847 0.0
O856 O 0.55757 0.04622 0.46703 0.0
O857 O 0.60995 0.0393 0.46371 0.0
C858 C 0.20474 0.15421 0.32087 0.0
C859 C 0.20112 0.18568 0.31344 0.0
C860 C 0.18258 0.13463 0.34528 0.0
C861 C 0.15697 0.14755 0.36339 0.0
C862 C 0.15328 0.17941 0.35589 0.0
C863 C 0.17502 0.19773 0.33069 0.0
C864 C 0.18709 0.10051 0.35211 0.0
C865 C 0.12732 0.19501 0.37518 0.0
C866 C 0.08337 0.08016 0.41394 0.0
C867 C 0.09898 0.08946 0.44294 0.0
C868 C 0.10154 0.09927 0.38794 0.0
C869 C 0.13572 0.12894 0.39127 0.0
C870 C 0.15065 0.13961 0.42101 0.0
C871 C 0.13233 0.11952 0.44629 0.0
C872 C 0.08489 0.08661 0.35656 0.0
C873 C 0.18632 0.17192 0.42601 0.0
H874 H 0.22493 0.1449 0.30755 0.0
H875 H 0.1726 0.22247 0.32531 0.0
H876 H 0.19721 0.10619 0.37589 0.0
H877 H 0.16078 0.07642 0.3524 0.0
H878 H 0.20613 0.09236 0.33436 0.0
H879 H 0.12686 0.21924 0.36564 0.0
H880 H 0.09981 0.17294 0.3758 0.0
H881 H 0.13492 0.20429 0.39999 0.0
H882 H 0.05769 0.05685 0.41112 0.0
H883 H 0.14437 0.12717 0.46874 0.0
H884 H 0.10173 0.07506 0.33896 0.0
H885 H 0.08393 0.11075 0.34738 0.0
H886 H 0.05727 0.06476 0.35832 0.0
H887 H 0.20777 0.16623 0.40982 0.0
H888 H 0.1939 0.17722 0.45075 0.0
H889 H 0.18517 0.19778 0.42027 0.0
C890 C 0.84527 0.10744 0.37075 0.0
C891 C 0.85235 0.12041 0.34134 0.0
C892 C 0.87096 0.09981 0.38342 0.0
C893 C 0.90455 0.10522 0.3662 0.0
C894 C 0.91173 0.11784 0.33629 0.0
C895 C 0.88551 0.12532 0.3242 0.0
C896 C 0.86224 0.08633 0.41545 0.0
C897 C 0.94704 0.1235 0.31715 0.0
C898 C 0.97343 0.11564 0.42097 0.0
C899 C 0.96825 0.078 0.42011 0.0
C900 C 0.95526 0.12572 0.4012 0.0
C901 C 0.93181 0.09751 0.37997 0.0
C902 C 0.9303 0.06043 0.37611 0.0
C903 C 0.94864 0.05111 0.39621 0.0
C904 C 0.95798 0.16572 0.40573 0.0
C905 C 0.90613 0.02962 0.35334 0.0
H906 H 0.81989 0.10409 0.38424 0.0
H907 H 0.89092 0.13492 0.30124 0.0
H908 H 0.86397 0.05855 0.41336 0.0
H909 H 0.88211 0.10608 0.43214 0.0
H910 H 0.83496 0.08376 0.4258 0.0
H911 H 0.9482 0.13299 0.29408 0.0
H912 H 0.96944 0.14463 0.33071 0.0
H913 H 0.95147 0.09693 0.31258 0.0
H914 H 0.98873 0.13669 0.43916 0.0
H915 H 0.94493 0.02202 0.39503 0.0
H916 H 0.93348 0.16744 0.41959 0.0
H917 H 0.95971 0.17524 0.38261 0.0
H918 H 0.98168 0.18523 0.41869 0.0
H919 H 0.87801 0.02053 0.36385 0.0
H920 H 0.91358 1.00482 0.34833 0.0
H921 H 0.90706 0.03968 0.33065 0.0
C922 C 0.8262 0.84789 0.32934 0.0
C923 C 0.83764 0.82342 0.30716 0.0
C924 C 0.84191 0.86286 0.35832 0.0
C925 C 0.8716 0.85547 0.36398 0.0
C926 C 0.88386 0.83155 0.3411 0.0
C927 C 0.86629 0.8153 0.31317 0.0
C928 C 0.82673 0.88642 0.38284 0.0
C929 C 0.91642 0.82428 0.3455 0.0
C930 C 0.94134 0.92987 0.41549 0.0
C931 C 0.93792 0.91185 0.44174 0.0
C932 C 0.91945 0.91203 0.39033 0.0
C933 C 0.89241 0.87578 0.392 0.0
C934 C 0.88743 0.85821 0.41927 0.0
C935 C 0.91077 0.87622 0.44367 0.0
C936 C 0.92658 0.93127 0.36125 0.0
C937 C 0.85755 0.82048 0.42259 0.0
H938 H 0.80455 0.85477 0.32424 0.0
H939 H 0.87577 0.79726 0.29546 0.0
H940 H 0.81912 0.87413 0.40534 0.0
H941 H 0.84726 0.9152 0.38794 0.0
H942 H 0.80272 0.8883 0.37517 0.0
H943 H 0.92249 0.80509 0.32537 0.0
H944 H 0.94016 0.8512 0.34791 0.0
H945 H 0.91227 0.8118 0.36758 0.0
H946 H 0.96247 0.95735 0.41384 0.0
H947 H 0.90781 0.86252 0.46419 0.0
H948 H 0.90228 0.93503 0.35671 0.0
H949 H 0.93314 0.91354 0.34018 0.0
H950 H 0.9491 0.9592 0.36359 0.0
H951 H 0.83136 0.82289 0.42289 0.0
H952 H 0.85819 0.80991 0.44464 0.0
H953 H 0.85904 0.79946 0.40202 0.0
C954 C 0.12377 0.81009 0.42115 0.0
C955 C 0.15333 0.8075 0.40186 0.0
C956 C 0.12756 0.8421 0.44301 0.0
C957 C 0.1619 0.8719 0.44542 0.0
C958 C 0.19258 0.86644 0.42996 0.0
C959 C 0.18793 0.83385 0.40838 0.0
C960 C 0.09384 0.84607 0.45949 0.0
C961 C 0.22987 0.89611 0.43406 0.0
C962 C 0.13957 0.95313 0.44468 0.0
C963 C 0.12473 0.95499 0.47585 0.0
C964 C 0.15864 0.93007 0.43449 0.0
C965 C 0.16347 0.91027 0.45672 0.0
C966 C 0.1576 0.92116 0.48936 0.0
C967 C 0.13728 0.94318 0.49883 0.0
C968 C 0.1674 0.92168 0.39939 0.0
C969 C 0.16745 0.90492 0.51388 0.0
H970 H 0.09708 0.7895 0.41642 0.0
H971 H 0.21098 0.83097 0.39409 0.0
H972 H 0.09726 0.85709 0.48491 0.0
H973 H 0.08794 0.86596 0.44822 0.0
H974 H 0.07024 0.81894 0.45775 0.0
H975 H 0.24783 0.89533 0.41225 0.0
H976 H 0.2303 0.92491 0.44023 0.0
H977 H 0.24095 0.89059 0.45382 0.0
H978 H 0.13054 0.96353 0.42724 0.0
H979 H 0.12663 0.94586 0.52331 0.0
H980 H 0.14845 0.89326 0.39021 0.0
H981 H 0.19495 0.92207 0.39482 0.0
H982 H 0.16539 0.94227 0.38594 0.0
H983 H 0.14285 0.88395 0.52436 0.0
H984 H 0.17996 0.92771 0.53308 0.0
H985 H 0.18657 0.8914 0.5039 0.0
C986 C 0.18306 0.89965 0.64184 0.0
C987 C 0.17888 0.89135 0.67274 0.0
C988 C 0.1573 0.90811 0.63021 0.0
C989 C 0.12671 0.9088 0.65007 0.0
C990 C 0.12209 0.90003 0.68129 0.0
C991 C 0.14817 0.8911 0.69221 0.0
C992 C 0.16308 0.91669 0.59666 0.0
C993 C 0.0902 0.90104 0.70333 0.0
C994 C 0.09076 0.97027 0.61995 0.0
C995 C 0.06519 0.94384 0.59984 0.0
C996 C 0.10855 0.959 0.63914 0.0
C997 C 0.10085 0.92037 0.638 0.0
C998 C 0.07246 0.89348 0.62038 0.0
C999 C 0.05476 0.90555 0.60166 0.0
C1000 C 0.13823 0.98859 0.658 0.0
C1001 C 0.06338 0.852 0.61845 0.0
H1002 H 0.20649 0.89924 0.62661 0.0
H1003 H 0.14499 0.88476 0.71621 0.0
H1004 H 0.1391 0.89861 0.5836 0.0
H1005 H 0.16686 0.94627 0.59671 0.0
H1006 H 0.18691 0.9123 0.58372 0.0
H1007 H 0.08911 0.89075 0.726 0.0
H1008 H 0.09157 0.93024 0.70868 0.0
H1009 H 0.06489 0.88377 0.69185 0.0
H1010 H 0.09896 0.99992 0.61893 0.0
H1011 H 0.035 0.88481 0.58635 0.0
H1012 H 0.1646 0.9909 0.64549 0.0
H1013 H 0.13732 0.98083 0.68172 0.0
H1014 H 0.13665 0.01653 0.66106 0.0
H1015 H 0.08389 0.84452 0.60226 0.0
H1016 H 0.03667 0.83492 0.6092 0.0
H1017 H 0.06365 0.84445 0.64198 0.0
C1018 C 0.2035 0.16376 0.68073 0.0
C1019 C 0.19495 0.18757 0.70588 0.0
C1020 C 0.18047 0.14565 0.65621 0.0
C1021 C 0.14737 0.1499 0.658 0.0
C1022 C 0.13756 0.17169 0.68474 0.0
C1023 C 0.16187 0.19097 0.70805 0.0
C1024 C 0.19272 0.12428 0.62739 0.0
C1025 C 0.10227 0.17633 0.68783 0.0
C1026 C 0.10085 0.13791 0.5836 0.0
C1027 C 0.07742 0.10024 0.58171 0.0
C1028 C 0.12433 0.15445 0.60796 0.0
C1029 C 0.12355 0.13286 0.63141 0.0
C1030 C 0.09915 0.09499 0.62992 0.0
C1031 C 0.07703 0.07891 0.60467 0.0
C1032 C 0.14964 0.19495 0.60786 0.0
C1033 C 0.09536 0.07194 0.6557 0.0
H1034 H 0.22954 0.16193 0.67885 0.0
H1035 H 0.15554 0.20964 0.72751 0.0
H1036 H 0.17337 0.09472 0.62387 0.0
H1037 H 0.19364 0.13679 0.60598 0.0
H1038 H 0.21972 0.12463 0.62929 0.0
H1039 H 0.0967 0.19 0.71179 0.0
H1040 H 0.10283 0.19385 0.67009 0.0
H1041 H 0.0799 0.14866 0.68295 0.0
H1042 H 0.10115 0.1544 0.56583 0.0
H1043 H 0.05832 0.04988 0.60355 0.0
H1044 H 0.17001 0.19682 0.58751 0.0
H1045 H 0.16374 0.20775 0.62983 0.0
H1046 H 0.13471 0.21191 0.60421 0.0
H1047 H 0.1209 0.06876 0.65677 0.0
H1048 H 0.07357 0.04363 0.65202 0.0
H1049 H 0.08955 0.08661 0.67906 0.0
C1050 C 0.83042 0.04522 0.69704 0.0
C1051 C 0.80874 0.06509 0.70929 0.0
C1052 C 0.83379 0.03413 0.66436 0.0
C1053 C 0.81453 0.04288 0.64417 0.0
C1054 C 0.78767 0.05638 0.65717 0.0
C1055 C 0.78548 0.06796 0.68975 0.0
C1056 C 0.86202 0.01855 0.65129 0.0
C1057 C 0.76521 0.06406 0.63646 0.0
C1058 C 0.87968 0.08637 0.57838 0.0
C1059 C 0.87538 0.0546 0.55598 0.0
C1060 C 0.85741 0.08374 0.60635 0.0
C1061 C 0.82986 0.04858 0.61147 0.0
C1062 C 0.82184 0.01813 0.58681 0.0
C1063 C 0.84485 0.02147 0.55915 0.0
C1064 C 0.86617 0.1175 0.63178 0.0
C1065 C 0.79146 0.98089 0.59066 0.0
H1066 H 0.84821 0.04286 0.71226 0.0
H1067 H 0.76882 0.08345 0.69912 0.0
H1068 H 0.85127 0.99416 0.6328 0.0
H1069 H 0.88532 0.04033 0.64013 0.0
H1070 H 0.8717 0.0097 0.67006 0.0
H1071 H 0.73963 0.06385 0.6495 0.0
H1072 H 0.78015 0.09219 0.62897 0.0
H1073 H 0.75915 0.04311 0.61479 0.0
H1074 H 0.9026 0.11234 0.57557 0.0
H1075 H 0.84068 0.99691 0.54151 0.0
H1076 H 0.8757 0.11169 0.65237 0.0
H1077 H 0.8419 0.12356 0.64024 0.0
H1078 H 0.8873 0.14305 0.62324 0.0
H1079 H 0.8016 0.96275 0.59999 0.0
H1080 H 0.78066 0.96621 0.56747 0.0
H1081 H 0.76928 0.98418 0.60739 0.0
C1082 C 0.82892 0.86618 0.70156 0.0
C1083 C 0.82975 0.83164 0.70429 0.0
C1084 C 0.84973 0.88669 0.67713 0.0
C1085 C 0.87108 0.87176 0.65455 0.0
C1086 C 0.87177 0.83673 0.65725 0.0
C1087 C 0.85139 0.81731 0.68224 0.0
C1088 C 0.84811 0.92382 0.67488 0.0
C1089 C 0.89294 0.81905 0.63311 0.0
C1090 C 0.89158 0.90441 0.57352 0.0
C1091 C 0.92727 0.93015 0.57489 0.0
C1092 C 0.87317 0.88509 0.5991 0.0
C1093 C 0.89079 0.8916 0.62696 0.0
C1094 C 0.9271 0.91707 0.62835 0.0
C1095 C 0.94503 0.93587 0.60218 0.0
C1096 C 0.83511 0.85704 0.59561 0.0
C1097 C 0.94668 0.92511 0.65776 0.0
H1098 H 0.812 0.87708 0.7185 0.0
H1099 H 0.85135 0.79009 0.68383 0.0
H1100 H 0.87564 0.9458 0.67339 0.0
H1101 H 0.83566 0.92163 0.65289 0.0
H1102 H 0.83235 0.93287 0.69545 0.0
H1103 H 0.89196 0.79248 0.63945 0.0
H1104 H 0.88201 0.81296 0.60963 0.0
H1105 H 0.92139 0.83873 0.63066 0.0
H1106 H 0.87783 0.89938 0.55233 0.0
H1107 H 0.97256 0.95589 0.60349 0.0
H1108 H 0.81809 0.85644 0.61816 0.0
H1109 H 0.8357 0.82877 0.58813 0.0
H1110 H 0.82234 0.86294 0.5772 0.0
H1111 H 0.93285 0.93714 0.67807 0.0
H1112 H 0.97506 0.94503 0.65486 0.0
H1113 H 0.94623 0.89871 0.6639 0.0
C1114 C 0.29911 0.15843 0.18842 0.0
C1115 C 0.318 0.19645 0.19927 0.0
C1116 C 0.31549 0.13772 0.16623 0.0
C1117 C 0.35172 0.1554 0.15442 0.0
C1118 C 0.37081 0.19388 0.16528 0.0
C1119 C 0.35397 0.21359 0.18781 0.0
C1120 C 0.29419 0.09669 0.15596 0.0
C1121 C 0.40919 0.21439 0.1532 0.0
C1122 C 0.41075 0.10018 0.12119 0.0
C1123 C 0.40927 0.09702 0.08839 0.0
C1124 C 0.39105 0.11769 0.14287 0.0
C1125 C 0.3702 0.13367 0.13155 0.0
C1126 C 0.36865 0.13045 0.09834 0.0
C1127 C 0.3878 0.11176 0.07721 0.0
C1128 C 0.39306 0.11969 0.17796 0.0
C1129 C 0.34776 0.14791 0.08508 0.0
H1130 H 0.27176 0.14456 0.1979 0.0
H1131 H 0.36917 0.24268 0.19644 0.0
H1132 H 0.29296 0.09124 0.12987 0.0
H1133 H 0.30775 0.07965 0.16215 0.0
H1134 H 0.26634 0.08709 0.1672 0.0
H1135 H 0.41922 0.24494 0.16189 0.0
H1136 H 0.42679 0.20271 0.16097 0.0
H1137 H 0.41161 0.21044 0.1269 0.0
H1138 H 0.42761 0.08914 0.1299 0.0
H1139 H 0.38712 0.10995 0.05186 0.0
H1140 H 0.36563 0.10894 0.1899 0.0
H1141 H 0.40669 0.14929 0.18858 0.0
H1142 H 0.40791 0.10328 0.18299 0.0
H1143 H 0.31905 0.13557 0.0936 0.0
H1144 H 0.34984 0.14377 0.05876 0.0
H1145 H 0.3577 0.17846 0.09364 0.0
C1146 C 0.82689 0.32068 0.16612 0.0
C1147 C 0.83516 0.32714 0.19767 0.0
C1148 C 0.8515 0.34106 0.14339 0.0
C1149 C 0.88513 0.36847 0.15252 0.0
C1150 C 0.894 0.37421 0.18417 0.0
C1151 C 0.86863 0.35385 0.2065 0.0
C1152 C 0.84107 0.33408 0.10983 0.0
C1153 C 0.92997 0.40233 0.19455 0.0
C1154 C 0.95479 0.40901 0.08586 0.0
C1155 C 0.94854 0.44105 0.0839 0.0
C1156 C 0.93483 0.3852 0.10858 0.0
C1157 C 0.90883 0.39428 0.12997 0.0
C1158 C 0.90387 0.42759 0.12893 0.0
C1159 C 0.92375 0.45047 0.10599 0.0
C1160 C 0.94111 0.35014 0.10939 0.0
C1161 C 0.87641 0.43836 0.15121 0.0
H1162 H 0.80109 0.29977 0.15922 0.0
H1163 H 0.87483 0.35918 0.23101 0.0
H1164 H 0.83894 0.35949 0.10413 0.0
H1165 H 0.86208 0.32846 0.09294 0.0
H1166 H 0.81502 0.31001 0.10609 0.0
H1167 H 0.93272 0.40332 0.22005 0.0
H1168 H 0.95168 0.395 0.18033 0.0
H1169 H 0.93394 0.43076 0.19026 0.0
H1170 H 0.97388 0.40165 0.0688 0.0
H1171 H 0.91915 0.4755 0.10482 0.0
H1172 H 0.91547 0.32595 0.113 0.0
H1173 H 0.9572 0.3549 0.12964 0.0
H1174 H 0.95573 0.34258 0.08725 0.0
H1175 H 0.84915 0.41659 0.14735 0.0
H1176 H 0.87664 0.4658 0.14785 0.0
H1177 H 0.88152 0.43989 0.17617 0.0
C1178 C 0.64923 0.91044 0.18815 0.0
C1179 C 0.65956 0.87963 0.18163 0.0
C1180 C 0.62846 0.91599 0.1678 0.0
C1181 C 0.61919 0.89132 0.13924 0.0
C1182 C 0.62849 0.85961 0.13274 0.0
C1183 C 0.64786 0.8537 0.15431 0.0
C1184 C 0.61797 0.94944 0.17615 0.0
C1185 C 0.61966 0.83306 0.1022 0.0
C1186 C 0.5546 0.89998 0.08799 0.0
C1187 C 0.57856 0.9263 0.06896 0.0
C1188 C 0.56723 0.88793 0.11104 0.0
C1189 C 0.60465 0.90191 0.11438 0.0
C1190 C 0.62886 0.92747 0.09442 0.0
C1191 C 0.61552 0.93972 0.07241 0.0
C1192 C 0.54044 0.86137 0.13241 0.0
C1193 C 0.66905 0.94196 0.09619 0.0
H1194 H 0.65838 0.93128 0.20861 0.0
H1195 H 0.65444 0.8291 0.14925 0.0
H1196 H 0.63444 0.97113 0.16084 0.0
H1197 H 0.5894 0.94115 0.17191 0.0
H1198 H 0.622 0.96219 0.20127 0.0
H1199 H 0.62676 0.80845 0.10151 0.0
H1200 H 0.59064 0.82288 0.09883 0.0
H1201 H 0.63458 0.84815 0.08191 0.0
H1202 H 0.52606 0.88936 0.08523 0.0
H1203 H 0.63437 0.95945 0.05733 0.0
H1204 H 0.53564 0.87781 0.15514 0.0
H1205 H 0.55051 0.84102 0.13797 0.0
H1206 H 0.5144 0.84554 0.12166 0.0
H1207 H 0.67662 0.95937 0.11938 0.0
H1208 H 0.6842 0.95924 0.07718 0.0
H1209 H 0.67759 0.91815 0.09428 0.0
C1210 C 0.18801 0.66344 0.1897 0.0
C1211 C 0.22509 0.68408 0.18967 0.0
C1212 C 0.17192 0.64358 0.16166 0.0
C1213 C 0.19364 0.64266 0.13298 0.0
C1214 C 0.23143 0.66133 0.13322 0.0
C1215 C 0.24676 0.68192 0.16159 0.0
C1216 C 0.13143 0.6259 0.16239 0.0
C1217 C 0.25533 0.66135 0.1031 0.0
C1218 C 0.13588 0.56909 0.07168 0.0
C1219 C 0.12518 0.59131 0.05659 0.0
C1220 C 0.16154 0.58574 0.0944 0.0
C1221 C 0.17603 0.6253 0.10265 0.0
C1222 C 0.16838 0.64769 0.08466 0.0
C1223 C 0.14338 0.63039 0.06174 0.0
C1224 C 0.17134 0.56089 0.11101 0.0
C1225 C 0.1841 0.69002 0.09036 0.0
H1226 H 0.17125 0.66439 0.2115 0.0
H1227 H 0.2755 0.69772 0.16142 0.0
H1228 H 0.12197 0.63817 0.14597 0.0
H1229 H 0.12229 0.59535 0.15424 0.0
H1230 H 0.11846 0.63014 0.18645 0.0
H1231 H 0.28414 0.67757 0.10705 0.0
H1232 H 0.25123 0.63205 0.0928 0.0
H1233 H 0.24812 0.67382 0.08532 0.0
H1234 H 0.12257 0.5388 0.0674 0.0
H1235 H 0.13631 0.64788 0.04937 0.0
H1236 H 0.15641 0.55805 0.13464 0.0
H1237 H 0.20045 0.57342 0.11468 0.0
H1238 H 0.16456 0.53237 0.09739 0.0
H1239 H 0.16201 0.70031 0.09608 0.0
H1240 H 0.1988 0.70082 0.06817 0.0
H1241 H 0.20271 0.7022 0.10946 0.0
C1242 C 0.34343 0.86216 0.82491 0.0
C1243 C 0.31287 0.82953 0.82815 0.0
C1244 C 0.36147 0.88392 0.85159 0.0
C1245 C 0.34713 0.87373 0.88213 0.0
C1246 C 0.31345 0.84366 0.88547 0.0
C1247 C 0.2974 0.82093 0.85829 0.0
C1248 C 0.39741 0.91554 0.84676 0.0
C1249 C 0.29544 0.83372 0.91752 0.0
C1250 C 0.41497 0.8824 0.93735 0.0
C1251 C 0.42463 0.91957 0.95218 0.0
C1252 C 0.38911 0.86696 0.91522 0.0
C1253 C 0.37079 0.88853 0.90883 0.0
C1254 C 0.37782 0.92481 0.92602 0.0
C1255 C 0.4052 0.94022 0.94709 0.0
C1256 C 0.3828 0.82794 0.89799 0.0
C1257 C 0.3577 0.94827 0.92172 0.0
H1258 H 0.35499 0.86863 0.80136 0.0
H1259 H 0.27324 0.79591 0.8606 0.0
H1260 H 0.39621 0.94242 0.85894 0.0
H1261 H 0.41841 0.91097 0.85722 0.0
H1262 H 0.40569 0.91822 0.8213 0.0
H1263 H 0.26576 0.82164 0.91688 0.0
H1264 H 0.30312 0.81214 0.92417 0.0
H1265 H 0.30327 0.85857 0.93609 0.0
H1266 H 0.42917 0.86575 0.94152 0.0
H1267 H 0.412 0.96879 0.95873 0.0
H1268 H 0.3774 0.82502 0.87294 0.0
H1269 H 0.35922 0.80729 0.90984 0.0
H1270 H 0.40611 0.82029 0.89841 0.0
H1271 H 0.37519 0.9707 0.90744 0.0
H1272 H 0.35109 0.96241 0.94508 0.0
H1273 H 0.33249 0.93158 0.90992 0.0
C1274 C 0.1931 0.31821 0.801 0.0
C1275 C 0.21913 0.30887 0.81139 0.0
C1276 C 0.17474 0.33785 0.82202 0.0
C1277 C 0.18218 0.34819 0.85443 0.0
C1278 C 0.20863 0.33907 0.86492 0.0
C1279 C 0.22697 0.32015 0.84328 0.0
C1280 C 0.1471 0.34725 0.80957 0.0
C1281 C 0.21714 0.34858 0.89922 0.0
C1282 C 0.15612 0.42485 0.90698 0.0
C1283 C 0.12309 0.40378 0.92206 0.0
C1284 C 0.17532 0.40728 0.88461 0.0
C1285 C 0.16172 0.36755 0.87755 0.0
C1286 C 0.12871 0.34618 0.89314 0.0
C1287 C 0.1097 0.36447 0.91475 0.0
C1288 C 0.21009 0.43127 0.86831 0.0
C1289 C 0.11362 0.30383 0.88731 0.0
H1290 H 0.18688 0.30999 0.77641 0.0
H1291 H 0.24779 0.31449 0.85144 0.0
H1292 H 0.1202 0.33234 0.82111 0.0
H1293 H 0.15322 0.37775 0.81548 0.0
H1294 H 0.14591 0.33935 0.7835 0.0
H1295 H 0.23968 0.34132 0.9033 0.0
H1296 H 0.22417 0.37893 0.90733 0.0
H1297 H 0.19308 0.33306 0.91416 0.0
H1298 H 0.16668 0.45518 0.91223 0.0
H1299 H 0.08441 0.34777 0.92638 0.0
H1300 H 0.20824 0.42527 0.84228 0.0
H1301 H 0.23242 0.42435 0.87337 0.0
H1302 H 0.21683 0.46172 0.87589 0.0
H1303 H 0.10876 0.29384 0.86193 0.0
H1304 H 0.08805 0.29121 0.90175 0.0
H1305 H 0.13332 0.29338 0.89295 0.0
C1306 C 0.68213 0.21928 0.84481 0.0
C1307 C 0.69317 0.20012 0.81747 0.0
C1308 C 0.6563 0.19985 0.86746 0.0
C1309 C 0.64209 0.16012 0.86307 0.0
C1310 C 0.65219 0.14064 0.8348 0.0
C1311 C 0.67693 0.16091 0.81207 0.0
C1312 C 0.64525 0.22193 0.8965 0.0
C1313 C 0.63938 0.09839 0.82973 0.0
C1314 C 0.62889 0.11171 0.93459 0.0
C1315 C 0.59209 0.08938 0.93576 0.0
C1316 C 0.64492 0.13648 0.91231 0.0
C1317 C 0.62368 0.13919 0.89032 0.0
C1318 C 0.58591 0.1193 0.89309 0.0
C1319 C 0.57043 0.09429 0.9158 0.0
C1320 C 0.68468 0.15993 0.91293 0.0
C1321 C 0.56212 0.12444 0.87207 0.0
H1322 H 0.69498 0.24942 0.8492 0.0
H1323 H 0.68463 0.1459 0.79056 0.0
H1324 H 0.64278 0.20957 0.91831 0.0
H1325 H 0.66452 0.25158 0.90006 0.0
H1326 H 0.61849 0.22148 0.89363 0.0
H1327 H 0.64761 0.08743 0.80558 0.0
H1328 H 0.65071 0.08949 0.84728 0.0
H1329 H 0.60976 0.08527 0.83349 0.0
H1330 H 0.64556 0.1095 0.95101 0.0
H1331 H 0.54179 0.07784 0.9172 0.0
H1332 H 0.68865 0.18743 0.92752 0.0
H1333 H 0.69759 0.16546 0.889 0.0
H1334 H 0.69867 0.14646 0.92377 0.0
H1335 H 0.56779 0.15474 0.87345 0.0
H1336 H 0.53316 0.1093 0.87878 0.0
H1337 H 0.56795 0.11415 0.84702 0.0
C1338 C 0.93373 0.65013 0.82087 0.0
C1339 C 0.91979 0.6776 0.8334 0.0
C1340 C 0.94791 0.63522 0.84028 0.0
C1341 C 0.94664 0.64657 0.87336 0.0
C1342 C 0.93204 0.67368 0.88641 0.0
C1343 C 0.91939 0.68933 0.86626 0.0
C1344 C 0.96398 0.60702 0.82534 0.0
C1345 C 0.9294 0.68579 0.92173 0.0
C1346 C 0.94526 0.57847 0.92602 0.0
C1347 C 0.97966 0.5958 0.93734 0.0
C1348 C 0.93433 0.59465 0.90515 0.0
C1349 C 0.95867 0.62853 0.89449 0.0
C1350 C 0.99396 0.64539 0.90462 0.0
C1351 C 1.00388 0.62906 0.92628 0.0
C1352 C 0.89616 0.57623 0.89561 0.0
C1353 C 0.02105 0.68081 0.89279 0.0
H1354 H 0.93334 0.6398 0.79578 0.0
H1355 H 0.90938 0.71092 0.87638 0.0
H1356 H 0.99126 0.61576 0.83328 0.0
H1357 H 0.94739 0.57929 0.83301 0.0
H1358 H 0.96586 0.60371 0.79904 0.0
H1359 H 0.91698 0.70683 0.92819 0.0
H1360 H 0.91315 0.66105 0.93399 0.0
H1361 H 0.95647 0.69799 0.93076 0.0
H1362 H 0.92611 0.55292 0.93452 0.0
H1363 H 0.03028 0.64275 0.93508 0.0
H1364 H 0.89588 0.57013 0.86945 0.0
H1365 H 0.88215 0.59565 0.90384 0.0
H1366 H 0.88074 0.54962 0.90566 0.0
H1367 H 0.02678 0.67519 0.86681 0.0
H1368 H 0.04667 0.69169 0.90433 0.0
H1369 H 1.01011 0.70303 0.89707 0.0
C1370 C 0.11776 0.31262 0.14994 0.0
C1371 C 0.12268 0.33033 0.1814 0.0
C1372 C 0.10808 0.32826 0.12753 0.0
C1373 C 0.10193 0.36177 0.1369 0.0
C1374 C 0.10633 0.37951 0.16855 0.0
C1375 C 0.11752 0.36422 0.19005 0.0
C1376 C 0.10415 0.3088 0.09383 0.0
C1377 C 0.09888 0.41456 0.17985 0.0
C1378 C 0.10971 0.42445 0.07627 0.0
C1379 C 0.07388 0.41304 0.06943 0.0
C1380 C 0.11914 0.4075 0.09766 0.0
C1381 C 0.09202 0.37906 0.11344 0.0
C1382 C 0.05568 0.36774 0.10706 0.0
C1383 C 0.04711 0.38465 0.08492 0.0
C1384 C 0.15831 0.41945 0.10277 0.0
C1385 C 0.02564 0.33841 0.12401 0.0
H1386 H 0.12095 0.28621 0.14277 0.0
H1387 H 0.12222 0.37911 0.21379 0.0
H1388 H 0.07607 0.29979 0.08778 0.0
H1389 H 0.12162 0.32856 0.07726 0.0
H1390 H 0.11124 0.2838 0.08993 0.0
H1391 H 0.10136 0.42362 0.20571 0.0
H1392 H 0.11784 0.43782 0.16709 0.0
H1393 H 0.07136 0.4096 0.17455 0.0
H1394 H 0.13075 0.44591 0.06407 0.0
H1395 H 1.01946 0.37566 0.07974 0.0
H1396 H 0.16587 0.39476 0.0973 0.0
H1397 H 0.16312 0.43105 0.12794 0.0
H1398 H 0.17622 0.44099 0.08778 0.0
H1399 H 0.03363 0.31599 0.12838 0.0
H1400 H 1.0014 0.32516 0.1104 0.0
H1401 H 1.01839 0.35202 0.14736 0.0
C1402 C 0.22111 0.69884 0.84518 0.0
C1403 C 0.21384 0.69112 0.81327 0.0
C1404 C 0.19703 0.67739 0.86761 0.0
C1405 C 0.16507 0.64738 0.85778 0.0
C1406 C 0.15716 0.64026 0.82571 0.0
C1407 C 0.18191 0.6619 0.80373 0.0
C1408 C 0.20611 0.68632 0.90171 0.0
C1409 C 0.12289 0.60929 0.81456 0.0
C1410 C 0.13156 0.56597 0.90489 0.0
C1411 C 0.10413 0.57223 0.92557 0.0
C1412 C 0.15071 0.5897 0.88236 0.0
C1413 C 0.14242 0.62073 0.88018 0.0
C1414 C 0.11388 0.62664 0.90016 0.0
C1415 C 0.09471 0.60197 0.9225 0.0
C1416 C 0.18124 0.58265 0.86206 0.0
C1417 C 0.10378 0.6591 0.89841 0.0
H1418 H 0.24568 0.72168 0.85261 0.0
H1419 H 0.1765 0.65564 0.77896 0.0
H1420 H 0.18341 0.68993 0.91745 0.0
H1421 H 0.2104 0.6626 0.90851 0.0
H1422 H 0.23065 0.71218 0.90592 0.0
H1423 H 0.12037 0.60783 0.78894 0.0
H1424 H 0.12177 0.58186 0.81888 0.0
H1425 H 0.09951 0.61384 0.8283 0.0
H1426 H 0.13876 0.54276 0.90679 0.0
H1427 H 0.07353 0.60695 0.93833 0.0
H1428 H 0.20685 0.6058 0.86883 0.0
H1429 H 0.17878 0.5824 0.83667 0.0
H1430 H 0.18255 0.55573 0.86495 0.0
H1431 H 0.12694 0.68348 0.89044 0.0
H1432 H 0.0926 0.66851 0.92182 0.0
H1433 H 0.08297 0.6499 0.88124 0.0
C1434 C 0.42874 0.14529 0.81849 0.0
C1435 C 0.39454 0.14581 0.82793 0.0
C1436 C 0.44794 0.1379 0.83927 0.0
C1437 C 0.43275 0.13128 0.87033 0.0
C1438 C 0.39903 0.13349 0.88048 0.0
C1439 C 0.38026 0.14043 0.85913 0.0
C1440 C 0.48375 0.13562 0.82757 0.0
C1441 C 0.38206 0.12699 0.91356 0.0
C1442 C 0.45071 0.06783 0.91594 0.0
C1443 C 0.47234 0.09373 0.93911 0.0
C1444 C 0.43966 0.07981 0.89206 0.0
C1445 C 0.45018 0.11868 0.89149 0.0
C1446 C 0.47408 0.14499 0.91344 0.0
C1447 C 0.48507 0.13216 0.93696 0.0
C1448 C 0.41477 0.05074 0.86873 0.0
C1449 C 0.48596 0.18666 0.91359 0.0
H1450 H 0.44034 0.15014 0.79466 0.0
H1451 H 0.35372 0.14027 0.86664 0.0
H1452 H 0.50434 0.15334 0.84434 0.0
H1453 H 0.48145 0.10631 0.82628 0.0
H1454 H 0.49326 0.14457 0.80375 0.0
H1455 H 0.35736 0.13306 0.91867 0.0
H1456 H 0.37494 0.09734 0.91656 0.0
H1457 H 0.40135 0.14486 0.93138 0.0
H1458 H 0.44118 0.03804 0.91717 0.0
H1459 H 0.50187 0.15232 0.95475 0.0
H1460 H 0.42356 0.05763 0.84426 0.0
H1461 H 0.38732 0.05053 0.87439 0.0
H1462 H 0.41342 0.02209 0.86942 0.0
H1463 H 0.4943 0.19411 0.88925 0.0
H1464 H 0.50855 0.20314 0.9288 0.0
H1465 H 0.46309 0.19506 0.9227 0.0
C1466 C 0.85211 0.35806 0.8195 0.0
C1467 C 0.81605 0.33434 0.82427 0.0
C1468 C 0.8717 0.38094 0.84504 0.0
C1469 C 0.85502 0.37925 0.87623 0.0
C1470 C 0.81782 0.35719 0.88085 0.0
C1471 C 0.79857 0.33538 0.85464 0.0
C1472 C 0.9112 0.40391 0.83891 0.0
C1473 C 0.79937 0.35365 0.91373 0.0
C1474 C 0.91728 0.38343 0.93541 0.0
C1475 C 0.9297 0.42119 0.94911 0.0
C1476 C 0.8923 0.36944 0.9125 0.0
C1477 C 0.878 0.39331 0.90358 0.0
C1478 C 0.88812 0.43072 0.91907 0.0
C1479 C 0.91423 0.44441 0.94145 0.0
C1480 C 0.88399 0.32984 0.89607 0.0
C1481 C 0.87309 0.4569 0.91068 0.0
H1482 H 0.86554 0.35713 0.79591 0.0
H1483 H 0.7708 0.31648 0.85827 0.0
H1484 H 0.91881 0.43222 0.85292 0.0
H1485 H 0.92704 0.38996 0.84639 0.0
H1486 H 0.9187 0.407 0.81343 0.0
H1487 H 0.7713 0.3327 0.9135 0.0
H1488 H 0.81403 0.34494 0.92849 0.0
H1489 H 0.79942 0.38131 0.92524 0.0
H1490 H 0.92873 0.36495 0.94104 0.0
H1491 H 0.92352 0.47362 0.95185 0.0
H1492 H 0.90361 0.33044 0.87529 0.0
H1493 H 0.85688 0.31687 0.8874 0.0
H1494 H 0.88628 0.31176 0.91201 0.0
H1495 H 0.88609 0.4663 0.8876 0.0
H1496 H 0.87796 0.48212 0.92878 0.0
H1497 H 0.84381 0.44237 0.90814 0.0
C1498 C 0.70489 0.84011 0.80468 0.0
C1499 C 0.72679 0.82612 0.81636 0.0
C1500 C 0.68592 0.85952 0.82516 0.0
C1501 C 0.68894 0.86565 0.85835 0.0
C1502 C 0.71128 0.85198 0.87026 0.0
C1503 C 0.72939 0.83212 0.8493 0.0
C1504 C 0.66202 0.87284 0.81125 0.0
C1505 C 0.71536 0.85742 0.90535 0.0
C1506 C 0.66015 0.94041 0.91149 0.0
C1507 C 0.62538 0.9188 0.92333 0.0
C1508 C 0.681 0.92368 0.89021 0.0
C1509 C 0.66714 0.88426 0.88071 0.0
C1510 C 0.63224 0.86235 0.89282 0.0
C1511 C 0.61189 0.87977 0.91363 0.0
C1512 C 0.71794 0.94821 0.87786 0.0
C1513 C 0.61633 0.82025 0.88394 0.0
H1514 H 0.70208 0.83547 0.77942 0.0
H1515 H 0.74477 0.82037 0.85902 0.0
H1516 H 0.63376 0.85866 0.82045 0.0
H1517 H 0.66969 0.90342 0.81858 0.0
H1518 H 0.66343 0.86711 0.78495 0.0
H1519 H 0.73564 0.84755 0.91068 0.0
H1520 H 0.72336 0.8875 0.91518 0.0
H1521 H 0.68924 0.8418 0.91777 0.0
H1522 H 0.67102 0.97049 0.91865 0.0
H1523 H 0.58529 0.86247 0.92264 0.0
H1524 H 0.7197 0.94465 0.85159 0.0
H1525 H 0.73832 0.93955 0.88476 0.0
H1526 H 0.72479 0.97837 0.88699 0.0
H1527 H 0.61502 0.81302 0.85788 0.0
H1528 H 0.58892 0.80711 0.89543 0.0
H1529 H 0.63373 0.80777 0.89094 0.0
C1530 C 0.84634 0.68622 0.19787 0.0
C1531 C 0.82939 0.70577 0.18635 0.0
C1532 C 0.86498 0.66671 0.17733 0.0
C1533 C 0.86696 0.66647 0.14417 0.0
C1534 C 0.84958 0.68576 0.13232 0.0
C1535 C 0.83111 0.70507 0.15353 0.0
C1536 C 0.88281 0.64654 0.19125 0.0
C1537 C 0.85091 0.6866 0.09725 0.0
C1538 C 0.94497 0.64721 0.09507 0.0
C1539 C 0.92872 0.6092 0.08231 0.0
C1540 C 0.92515 0.66618 0.11466 0.0
C1541 C 0.88798 0.64683 0.12218 0.0
C1542 C 0.87129 0.60852 0.10941 0.0
C1543 C 0.89174 0.59025 0.08961 0.0
C1544 C 0.94408 0.70706 0.12737 0.0
C1545 C 0.83176 0.58679 0.11673 0.0
H1546 H 0.84539 0.68644 0.2232 0.0
H1547 H 0.81737 0.71891 0.14434 0.0
H1548 H 0.87269 0.61648 0.18102 0.0
H1549 H 0.91218 0.65857 0.18509 0.0
H1550 H 0.878 0.64853 0.21746 0.0
H1551 H 0.83052 0.69601 0.09145 0.0
H1552 H 0.87785 0.7063 0.08927 0.0
H1553 H 0.84655 0.65854 0.0836 0.0
H1554 H 0.97338 0.66246 0.08958 0.0
H1555 H 0.8787 0.561 0.07997 0.0
H1556 H 0.94188 0.71082 0.15365 0.0
H1557 H 0.93102 0.7239 0.12002 0.0
H1558 H 0.97295 0.71837 0.11894 0.0
H1559 H 0.82587 0.58646 0.14267 0.0
H1560 H 0.82257 0.55738 0.10471 0.0
H1561 H 0.81593 0.60074 0.10925 0.0
C1562 C 0.35195 0.8561 0.20406 0.0
C1563 C 0.33597 0.81699 0.197 0.0
C1564 C 0.37597 0.87799 0.1819 0.0
C1565 C 0.38434 0.8603 0.15193 0.0
C1566 C 0.36939 0.82063 0.14519 0.0
C1567 C 0.34554 0.79938 0.16794 0.0
C1568 C 0.39058 0.92018 0.18989 0.0
C1569 C 0.37714 0.80083 0.11333 0.0
C1570 C 0.4011 0.91548 0.08401 0.0
C1571 C 0.43876 0.93126 0.0795 0.0
C1572 C 0.38344 0.89201 0.10703 0.0
C1573 C 0.40368 0.88342 0.12615 0.0
C1574 C 0.44168 0.89812 0.12129 0.0
C1575 C 0.45891 0.92186 0.09782 0.0
C1576 C 0.34297 0.87754 0.11167 0.0
C1577 C 0.46394 0.88913 0.14114 0.0
H1578 H 0.3453 0.86969 0.22684 0.0
H1579 H 0.33323 0.7691 0.16248 0.0
H1580 H 0.42004 0.93229 0.18425 0.0
H1581 H 0.37841 0.9319 0.1753 0.0
H1582 H 0.38465 0.92936 0.21527 0.0
H1583 H 0.36186 0.77001 0.11118 0.0
H1584 H 0.37011 0.8114 0.09408 0.0
H1585 H 0.40629 0.80691 0.10951 0.0
H1586 H 0.38503 0.92189 0.06975 0.0
H1587 H 0.48795 0.93371 0.09441 0.0
H1588 H 0.33507 0.88833 0.13591 0.0
H1589 H 0.33125 0.84647 0.10943 0.0
H1590 H 0.33108 0.88628 0.09442 0.0
H1591 H 0.45629 0.89497 0.16672 0.0
H1592 H 0.4931 0.90554 0.13666 0.0
H1593 H 0.45863 0.85876 0.13585 0.0
C1594 C 0.69632 0.16007 0.18961 0.0
C1595 C 0.72731 0.19193 0.18509 0.0
C1596 C 0.6771 0.13765 0.16372 0.0
C1597 C 0.69062 0.14623 0.13264 0.0
C1598 C 0.72446 0.17567 0.128 0.0
C1599 C 0.74177 0.19915 0.15441 0.0
C1600 C 0.64076 0.10721 0.16991 0.0
C1601 C 0.74125 0.18388 0.09525 0.0
C1602 C 0.63243 0.07856 0.06797 0.0
C1603 C 0.61206 0.09845 0.06335 0.0
C1604 C 0.65996 0.09453 0.08898 0.0
C1605 C 0.66615 0.13051 0.10652 0.0
C1606 C 0.64668 0.15118 0.10082 0.0
C1607 C 0.6207 0.13531 0.07882 0.0
C1608 C 0.68114 0.07208 0.09313 0.0
C1609 C 0.6516 0.18933 0.11932 0.0
H1610 H 0.68549 0.15466 0.21355 0.0
H1611 H 0.76628 0.22354 0.15113 0.0
H1612 H 0.61965 0.11408 0.16206 0.0
H1613 H 0.63954 0.0801 0.15611 0.0
H1614 H 0.63449 0.1037 0.19539 0.0
H1615 H 0.77069 0.20013 0.09543 0.0
H1616 H 0.73612 0.15746 0.07861 0.0
H1617 H 0.72939 0.20067 0.08616 0.0
H1618 H 0.62629 0.05022 0.05596 0.0
H1619 H 0.60563 0.15135 0.07523 0.0
H1620 H 0.66675 0.05352 0.11142 0.0
H1621 H 0.70838 0.09039 0.10064 0.0
H1622 H 0.68373 0.05381 0.07077 0.0
H1623 H 0.64846 0.18792 0.14512 0.0
H1624 H 0.63208 0.20015 0.11387 0.0
H1625 H 0.679 0.20991 0.11385 0.0
C1626 C 0.69245 0.70681 0.8472 0.0
C1627 C 0.70246 0.69204 0.81694 0.0
C1628 C 0.6714 0.68329 0.86962 0.0
C1629 C 0.66064 0.64392 0.86191 0.0
C1630 C 0.66976 0.62877 0.83101 0.0
C1631 C 0.69048 0.65301 0.80884 0.0
C1632 C 0.66149 0.70069 0.90187 0.0
C1633 C 0.65874 0.587 0.82177 0.0
C1634 C 0.6454 0.59099 0.93203 0.0
C1635 C 0.6078 0.57535 0.93689 0.0
C1636 C 0.66272 0.61247 0.9073 0.0
C1637 C 0.64212 0.61901 0.88691 0.0
C1638 C 0.60416 0.60274 0.89122 0.0
C1639 C 0.58753 0.58099 0.91598 0.0
C1640 C 0.70322 0.62853 0.90321 0.0
C1641 C 0.58093 0.60915 0.87043 0.0
H1642 H 0.70156 0.737 0.85349 0.0
H1643 H 0.69864 0.64145 0.78568 0.0
H1644 H 0.63207 0.68772 0.90756 0.0
H1645 H 0.67464 0.69526 0.92021 0.0
H1646 H 0.66968 0.7315 0.90335 0.0
H1647 H 0.66604 0.57949 0.79635 0.0
H1648 H 0.67196 0.5764 0.83636 0.0
H1649 H 0.62933 0.5724 0.82655 0.0
H1650 H 0.6615 0.58671 0.94773 0.0
H1651 H 0.55858 0.56848 0.91892 0.0
H1652 H 0.71356 0.65962 0.90705 0.0
H1653 H 0.71235 0.61992 0.87865 0.0
H1654 H 0.71531 0.61933 0.91996 0.0
H1655 H 0.57948 0.63693 0.87894 0.0
H1656 H 0.55321 0.5874 0.87113 0.0
H1657 H 0.59223 0.60926 0.84543 0.0
C1658 C 0.39903 0.61544 0.81492 0.0
C1659 C 0.37105 0.62075 0.8355 0.0
C1660 C 0.42539 0.6074 0.82618 0.0
C1661 C 0.42342 0.60428 0.85867 0.0
C1662 C 0.3959 0.61085 0.87969 0.0
C1663 C 0.37015 0.6191 0.86785 0.0
C1664 C 0.45438 0.60078 0.80309 0.0
C1665 C 0.3929 0.60796 0.91462 0.0
C1666 C 0.45306 0.54157 0.89354 0.0
C1667 C 0.48028 0.56819 0.91197 0.0
C1668 C 0.43662 0.55267 0.87309 0.0
C1669 C 0.44795 0.59124 0.87086 0.0
C1670 C 0.47864 0.61756 0.88592 0.0
C1671 C 0.49449 0.60571 0.90643 0.0
C1672 C 0.40424 0.52363 0.85708 0.0
C1673 C 0.4922 0.65883 0.88335 0.0
H1674 H 0.39973 0.61645 0.78983 0.0
H1675 H 0.34902 0.62397 0.88392 0.0
H1676 H 0.48085 0.61444 0.81331 0.0
H1677 H 0.44822 0.57024 0.79789 0.0
H1678 H 0.45641 0.61141 0.78039 0.0
H1679 H 0.37081 0.61544 0.92793 0.0
H1680 H 0.38795 0.57888 0.91784 0.0
H1681 H 0.41842 0.62676 0.92519 0.0
H1682 H 0.44211 0.51244 0.89736 0.0
H1683 H 0.51587 0.62647 0.92018 0.0
H1684 H 0.4051 0.52817 0.83225 0.0
H1685 H 0.37952 0.5262 0.86976 0.0
H1686 H 0.40224 0.49465 0.85713 0.0
H1687 H 0.49071 0.66334 0.85897 0.0
H1688 H 0.52033 0.67391 0.88997 0.0
H1689 H 0.47512 0.67133 0.89963 0.0
C1690 C 0.33333 0.34899 0.83152 0.0
C1691 C 0.34527 0.326 0.80806 0.0
C1692 C 0.3505 0.36426 0.85987 0.0
C1693 C 0.38135 0.35789 0.86391 0.0
C1694 C 0.39401 0.33556 0.83969 0.0
C1695 C 0.37536 0.31928 0.81235 0.0
C1696 C 0.33533 0.38664 0.88561 0.0
C1697 C 0.42756 0.32924 0.84243 0.0
C1698 C 0.45029 0.42958 0.91785 0.0
C1699 C 0.44669 0.40988 0.94307 0.0
C1700 C 0.42892 0.41308 0.89218 0.0
C1701 C 0.40207 0.37653 0.89233 0.0
C1702 C 0.39722 0.35701 0.91839 0.0
C1703 C 0.42012 0.37369 0.94327 0.0
C1704 C 0.43627 0.43406 0.86418 0.0
C1705 C 0.36799 0.31853 0.91986 0.0
H1706 H 0.30969 0.35366 0.82829 0.0
H1707 H 0.3845 0.30145 0.79409 0.0
H1708 H 0.35464 0.41623 0.8892 0.0
H1709 H 0.30939 0.38608 0.87991 0.0
H1710 H 0.33112 0.37538 0.90835 0.0
H1711 H 0.43424 0.3119 0.82109 0.0
H1712 H 0.45063 0.35659 0.84594 0.0
H1713 H 0.42417 0.31504 0.86338 0.0
H1714 H 0.4711 0.45747 0.91746 0.0
H1715 H 0.41715 0.35862 0.9629 0.0
H1716 H 0.44282 0.41733 0.84238 0.0
H1717 H 0.45891 0.46183 0.86736 0.0
H1718 H 0.41197 0.43824 0.8603 0.0
H1719 H 0.34154 0.32004 0.91929 0.0
H1720 H 0.36784 0.30699 0.94162 0.0
H1721 H 0.3712 0.29877 0.89888 0.0
C1722 C 0.67021 0.30953 0.86615 0.0
C1723 C 0.63487 0.28851 0.85759 0.0
C1724 C 0.67737 0.33723 0.89246 0.0
C1725 C 0.64866 0.34487 0.90982 0.0
C1726 C 0.61286 0.32348 0.90169 0.0
C1727 C 0.60638 0.29501 0.8759 0.0
C1728 C 0.71555 0.35846 0.90145 0.0
C1729 C 0.58155 0.33195 0.91908 0.0
C1730 C 0.63984 0.39704 0.98913 0.0
C1731 C 0.6393 0.42901 0.97984 0.0
C1732 C 0.6489 0.37115 0.96678 0.0
C1733 C 0.65571 0.37727 0.93476 0.0
C1734 C 0.66064 0.41232 0.92643 0.0
C1735 C 0.65292 0.43839 0.94958 0.0
C1736 C 0.64598 0.33505 0.97656 0.0
C1737 C 0.66814 0.41989 0.89242 0.0
H1738 H 0.69252 0.30504 0.85188 0.0
H1739 H 0.57922 0.27938 0.86892 0.0
H1740 H 0.72208 0.38901 0.90732 0.0
H1741 H 0.71876 0.34869 0.923 0.0
H1742 H 0.73522 0.35404 0.88226 0.0
H1743 H 0.55564 0.31331 0.90899 0.0
H1744 H 0.57936 0.32859 0.9444 0.0
H1745 H 0.58589 0.36147 0.91801 0.0
H1746 H 0.62933 0.39027 0.01282 0.0
H1747 H 0.65222 0.46333 0.94276 0.0
H1748 H 0.66672 0.32552 0.96308 0.0
H1749 H 0.61929 0.31285 0.97136 0.0
H1750 H 0.64889 0.33828 1.00233 0.0
H1751 H 0.67602 0.45006 0.89067 0.0
H1752 H 0.64359 0.40349 0.87957 0.0
H1753 H 0.68975 0.41098 0.88021 0.0
C1754 C 0.59927 0.40009 0.23294 0.0
C1755 C 0.6319 0.39603 0.22256 0.0
C1756 C 0.58046 0.40848 0.21247 0.0
C1757 C 0.59413 0.41213 0.18062 0.0
C1758 C 0.62625 0.40663 0.16963 0.0
C1759 C 0.64491 0.39911 0.19076 0.0
C1760 C 0.54661 0.41468 0.22519 0.0
C1761 C 0.6415 0.40969 0.13568 0.0
C1762 C 0.53892 0.4076 0.11487 0.0
C1763 C 0.55379 0.44509 0.10916 0.0
C1764 C 0.55012 0.39658 0.13942 0.0
C1765 C 0.57632 0.42381 0.15901 0.0
C1766 C 0.58868 0.46215 0.15531 0.0
C1767 C 0.57747 0.47228 0.13031 0.0
C1768 C 0.53628 0.35539 0.14245 0.0
C1769 C 0.61593 0.49224 0.17618 0.0
H1770 H 0.58849 0.39704 0.25722 0.0
H1771 H 0.67031 0.39673 0.18242 0.0
H1772 H 0.551 0.44431 0.22462 0.0
H1773 H 0.52434 0.39689 0.21005 0.0
H1774 H 0.53823 0.40845 0.24991 0.0
H1775 H 0.66511 0.40173 0.13025 0.0
H1776 H 0.62072 0.39139 0.11924 0.0
H1777 H 0.64984 0.43894 0.13093 0.0
H1778 H 0.52054 0.38633 0.09874 0.0
H1779 H 0.58895 0.50134 0.12624 0.0
H1780 H 0.53014 0.35082 0.16765 0.0
H1781 H 0.55732 0.3445 0.13243 0.0
H1782 H 0.51176 0.33882 0.12955 0.0
H1783 H 0.6088 0.4879 0.20141 0.0
H1784 H 0.61817 0.52077 0.17387 0.0
H1785 H 0.64265 0.49082 0.16947 0.0
C1786 C 0.72026 0.67393 0.17408 0.0
C1787 C 0.71072 0.69923 0.19696 0.0
C1788 C 0.70097 0.65723 0.14708 0.0
C1789 C 0.67034 0.66441 0.14406 0.0
C1790 C 0.66039 0.68957 0.16751 0.0
C1791 C 0.68118 0.70726 0.19342 0.0
C1792 C 0.7136 0.63238 0.12165 0.0
C1793 C 0.62751 0.69737 0.16544 0.0
C1794 C 0.62469 0.64106 0.06744 0.0
C1795 C 0.59789 0.60573 0.07108 0.0
C1796 C 0.64968 0.66001 0.09037 0.0
C1797 C 0.64688 0.64353 0.11785 0.0
C1798 C 0.61983 0.60776 0.12143 0.0
C1799 C 0.59619 0.58895 0.09764 0.0
C1800 C 0.67925 0.69723 0.08483 0.0
C1801 C 0.61489 0.58994 0.15096 0.0
H1802 H 0.74359 0.66837 0.17673 0.0
H1803 H 0.674 0.72693 0.21125 0.0
H1804 H 0.69361 0.60306 0.12032 0.0
H1805 H 0.71606 0.64159 0.09823 0.0
H1806 H 0.73993 0.6328 0.12609 0.0
H1807 H 0.62307 0.717 0.18605 0.0
H1808 H 0.6302 0.70963 0.14349 0.0
H1809 H 0.6034 0.67073 0.16419 0.0
H1810 H 0.62621 0.65371 0.04662 0.0
H1811 H 0.57524 0.56168 0.10055 0.0
H1812 H 0.70427 0.69263 0.07627 0.0
H1813 H 0.68461 0.71747 0.10694 0.0
H1814 H 0.67293 0.71 0.06667 0.0
H1815 H 0.6386 0.58356 0.15269 0.0
H1816 H 0.59053 0.56361 0.15125 0.0
H1817 H 0.61268 0.60967 0.17237 0.0
C1818 C 0.40599 0.73178 0.1169 0.0
C1819 C 0.38648 0.72574 0.14633 0.0
C1820 C 0.39827 0.70309 0.09119 0.0
C1821 C 0.37011 0.66808 0.09517 0.0
C1822 C 0.34556 0.66485 0.12194 0.0
C1823 C 0.35445 0.69329 0.14765 0.0
C1824 C 0.42393 0.7082 0.06189 0.0
C1825 C 0.31373 0.62853 0.12574 0.0
C1826 C 0.38008 0.59249 0.03165 0.0
C1827 C 0.4027 0.58248 0.04621 0.0
C1828 C 0.36555 0.61785 0.04847 0.0
C1829 C 0.37548 0.63399 0.07964 0.0
C1830 C 0.39562 0.62074 0.09513 0.0
C1831 C 0.40834 0.59445 0.07818 0.0
C1832 C 0.34208 0.62906 0.03188 0.0
C1833 C 0.40717 0.6369 0.12842 0.0
H1834 H 0.42908 0.75762 0.1145 0.0
H1835 H 0.33796 0.68732 0.16943 0.0
H1836 H 0.44141 0.69267 0.06191 0.0
H1837 H 0.40895 0.69668 0.0403 0.0
H1838 H 0.44132 0.73819 0.06072 0.0
H1839 H 0.29247 0.63328 0.14291 0.0
H1840 H 0.3024 0.61467 0.10261 0.0
H1841 H 0.32229 0.609 0.13486 0.0
H1842 H 0.37595 0.58283 1.00671 0.0
H1843 H 0.42592 0.58608 0.08897 0.0
H1844 H 0.35903 0.64825 0.01471 0.0
H1845 H 0.32664 0.64316 0.04861 0.0
H1846 H 0.32299 0.60394 0.01807 0.0
H1847 H 0.42275 0.6676 0.12998 0.0
H1848 H 0.42413 0.6242 0.13594 0.0
H1849 H 0.3834 0.63207 0.14564 0.0
C1850 C 0.34143 0.37119 0.21012 0.0
C1851 C 0.34107 0.33544 0.21002 0.0
C1852 C 0.36278 0.39375 0.18706 0.0
C1853 C 0.3828 0.37943 0.16246 0.0
C1854 C 0.38271 0.3434 0.16262 0.0
C1855 C 0.36265 0.32236 0.1869 0.0
C1856 C 0.36246 0.43213 0.18801 0.0
C1857 C 0.40151 0.32581 0.13589 0.0
C1858 C 0.3985 0.41693 0.08365 0.0
C1859 C 0.43532 0.43924 0.08236 0.0
C1860 C 0.38109 0.3977 0.10954 0.0
C1861 C 0.40097 0.40053 0.13507 0.0
C1862 C 0.4382 0.42339 0.13413 0.0
C1863 C 0.45495 0.44228 0.10773 0.0
C1864 C 0.3414 0.37422 0.10848 0.0
C1865 C 0.46023 0.42851 0.16128 0.0
H1866 H 0.32468 0.38127 0.228 0.0
H1867 H 0.36162 0.29438 0.1864 0.0
H1868 H 0.39023 0.4531 0.18441 0.0
H1869 H 0.34717 0.43166 0.16846 0.0
H1870 H 0.34986 0.44129 0.21079 0.0
H1871 H 0.39941 0.29784 0.1399 0.0
H1872 H 0.38943 0.32246 0.11342 0.0
H1873 H 0.43029 0.34424 0.13279 0.0
H1874 H 0.38298 0.41422 0.06421 0.0
H1875 H 0.48325 0.46008 0.1073 0.0
H1876 H 0.32801 0.36463 0.13134 0.0
H1877 H 0.33754 0.34933 0.09023 0.0
H1878 H 0.32766 0.39036 0.10097 0.0
H1879 H 0.44711 0.43718 0.18394 0.0
H1880 H 0.48796 0.44982 0.15824 0.0
H1881 H 0.46191 0.40156 0.16329 0.0
C1882 C 0.82017 0.69518 0.66488 0.0
C1883 C 0.81399 0.69272 0.69752 0.0
C1884 C 0.83906 0.67565 0.64444 0.0
C1885 C 0.85267 0.6532 0.65677 0.0
C1886 C 0.84622 0.65038 0.68967 0.0
C1887 C 0.82681 0.66977 0.70943 0.0
C1888 C 0.84514 0.67979 0.60969 0.0
C1889 C 0.86036 0.62731 0.70419 0.0
C1890 C 0.87978 0.57926 0.60029 0.0
C1891 C 0.91728 0.59778 0.59586 0.0
C1892 C 0.85849 0.59681 0.6199 0.0
C1893 C 0.87482 0.63393 0.63564 0.0
C1894 C 0.91261 0.65265 0.63139 0.0
C1895 C 0.9332 0.6345 0.61176 0.0
C1896 C 0.81839 0.57567 0.62364 0.0
C1897 C 0.93143 0.69213 0.64754 0.0
H1898 H 0.81098 0.71314 0.65531 0.0
H1899 H 0.8219 0.66713 0.73446 0.0
H1900 H 0.87428 0.69406 0.60331 0.0
H1901 H 0.83582 0.65177 0.59512 0.0
H1902 H 0.83098 0.69624 0.60342 0.0
H1903 H 0.85244 0.62723 0.72997 0.0
H1904 H 0.85031 0.59795 0.69218 0.0
H1905 H 0.89009 0.63861 0.70078 0.0
H1906 H 0.86692 0.55106 0.58822 0.0
H1907 H 0.96201 0.64944 0.60871 0.0
H1908 H 0.80458 0.5914 0.61565 0.0
H1909 H 0.80956 0.57316 0.64901 0.0
H1910 H 0.80962 0.5471 0.60991 0.0
H1911 H 0.92089 0.71123 0.64027 0.0
H1912 H 0.96095 0.70298 0.64186 0.0
H1913 H 0.92598 0.69304 0.67361 0.0
C1914 C 0.34984 0.8106 0.66792 0.0
C1915 C 0.34446 0.82588 0.69929 0.0
C1916 C 0.37415 0.83283 0.64625 0.0
C1917 C 0.39332 0.87142 0.65614 0.0
C1918 C 0.38885 0.88676 0.68815 0.0
C1919 C 0.36413 0.86377 0.70939 0.0
C1920 C 0.37802 0.81531 0.6124 0.0
C1921 C 0.40925 0.92768 0.69962 0.0
C1922 C 0.46601 0.92658 0.59746 0.0
C1923 C 0.4467 0.94116 0.583 0.0
C1924 C 0.44944 0.90443 0.62199 0.0
C1925 C 0.41275 0.89655 0.63187 0.0
C1926 C 0.39334 0.91128 0.61735 0.0
C1927 C 0.41048 0.93331 0.59328 0.0
C1928 C 0.47096 0.88896 0.63679 0.0
C1929 C 0.35411 0.90335 0.62691 0.0
H1930 H 0.33445 0.78123 0.66014 0.0
H1931 H 0.36031 0.8753 0.73386 0.0
H1932 H 0.36728 0.82711 0.59662 0.0
H1933 H 0.40676 0.82199 0.60464 0.0
H1934 H 0.36349 0.78433 0.60925 0.0
H1935 H 0.40633 0.93413 0.72584 0.0
H1936 H 0.43818 0.93597 0.69182 0.0
H1937 H 0.39918 0.94504 0.6891 0.0
H1938 H 0.49397 0.93247 0.58972 0.0
H1939 H 0.39508 0.94421 0.58235 0.0
H1940 H 0.46384 0.85898 0.62702 0.0
H1941 H 0.4648 0.89062 0.66284 0.0
H1942 H 0.5003 0.90408 0.63175 0.0
H1943 H 0.33808 0.87271 0.62277 0.0
H1944 H 0.34307 0.91753 0.61361 0.0
H1945 H 0.35054 0.91284 0.65257 0.0
C1946 C 0.18724 0.39236 0.65133 0.0
C1947 C 0.17317 0.38441 0.68209 0.0
C1948 C 0.16636 0.39651 0.63006 0.0
C1949 C 0.13059 0.39288 0.63976 0.0
C1950 C 0.11581 0.38351 0.67032 0.0
C1951 C 0.13716 0.37916 0.69099 0.0
C1952 C 0.18311 0.40632 0.59761 0.0
C1953 C 0.078 0.37988 0.68175 0.0
C1954 C 0.09847 0.44946 0.59785 0.0
C1955 C 0.07806 0.42212 0.57469 0.0
C1956 C 0.11409 0.43994 0.62017 0.0
C1957 C 0.10991 0.4022 0.61896 0.0
C1958 C 0.08784 0.37414 0.59664 0.0
C1959 C 0.07187 0.38441 0.5749 0.0
C1960 C 0.13673 0.4708 0.64387 0.0
C1961 C 0.08284 0.33364 0.59445 0.0
H1962 H 0.21504 0.3968 0.64422 0.0
H1963 H 0.12576 0.37226 0.71445 0.0
H1964 H 0.16542 0.3872 0.57907 0.0
H1965 H 0.18618 0.43527 0.59583 0.0
H1966 H 0.20991 0.40467 0.59257 0.0
H1967 H 0.06954 0.36967 0.70518 0.0
H1968 H 0.07615 0.40761 0.6838 0.0
H1969 H 0.05885 0.36037 0.66442 0.0
H1970 H 0.1033 0.47868 0.59785 0.0
H1971 H 0.05646 0.36323 0.55683 0.0
H1972 H 0.16554 0.47798 0.63605 0.0
H1973 H 0.13201 0.46173 0.66761 0.0
H1974 H 0.13108 0.49652 0.64611 0.0
H1975 H 0.10864 0.33074 0.58579 0.0
H1976 H 0.06215 0.31478 0.57807 0.0
H1977 H 0.07504 0.32423 0.61816 0.0
C1978 C 0.69926 0.15494 0.68288 0.0
C1979 C 0.73643 0.1753 0.68155 0.0
C1980 C 0.68218 0.13357 0.65586 0.0
C1981 C 0.70286 0.13235 0.62666 0.0
C1982 C 0.74084 0.14978 0.62585 0.0
C1983 C 0.75731 0.17127 0.65349 0.0
C1984 C 0.64164 0.11512 0.65815 0.0
C1985 C 0.76397 0.1482 0.5955 0.0
C1986 C 0.63995 0.06584 0.56625 0.0
C1987 C 0.62745 0.09038 0.55651 0.0
C1988 C 0.66814 0.07954 0.58637 0.0
C1989 C 0.68374 0.11848 0.5971 0.0
C1990 C 0.67407 0.14355 0.58429 0.0
C1991 C 0.64615 0.12918 0.56405 0.0
C1992 C 0.67896 0.05213 0.59838 0.0
C1993 C 0.69026 0.18538 0.59476 0.0
H1994 H 0.68316 0.15723 0.70487 0.0
H1995 H 0.78614 0.18673 0.65258 0.0
H1996 H 0.63068 0.12939 0.64488 0.0
H1997 H 0.63263 0.0853 0.64737 0.0
H1998 H 0.6299 0.11635 0.68304 0.0
H1999 H 0.79146 0.15239 0.60033 0.0
H2000 H 0.75211 0.12106 0.58009 0.0
H2001 H 0.76629 0.17092 0.5823 0.0
H2002 H 0.62617 0.03582 0.56008 0.0
H2003 H 0.63736 0.14845 0.55595 0.0
H2004 H 0.66726 0.04847 0.62302 0.0
H2005 H 0.70855 0.06299 0.59873 0.0
H2006 H 0.66954 0.02421 0.58357 0.0
H2007 H 0.68022 0.19168 0.61958 0.0
H2008 H 0.68329 0.20125 0.57968 0.0
H2009 H 0.71989 0.19562 0.59414 0.0
C2010 C 0.84547 0.36978 0.32767 0.0
C2011 C 0.81087 0.34261 0.33186 0.0
C2012 C 0.8659 0.38865 0.35378 0.0
C2013 C 0.85074 0.38079 0.38472 0.0
C2014 C 0.81442 0.35602 0.38908 0.0
C2015 C 0.79516 0.3365 0.36246 0.0
C2016 C 0.90475 0.41399 0.34787 0.0
C2017 C 0.7968 0.34774 0.42161 0.0
C2018 C 0.91635 0.38182 0.4392 0.0
C2019 C 0.92689 0.41825 0.45591 0.0
C2020 C 0.89086 0.36908 0.4167 0.0
C2021 C 0.87454 0.39291 0.41127 0.0
C2022 C 0.88289 0.42863 0.42975 0.0
C2023 C 0.90925 0.44106 0.45167 0.0
C2024 C 0.88309 0.33087 0.39737 0.0
C2025 C 0.86523 0.45438 0.42537 0.0
H2026 H 0.8576 0.37394 0.30383 0.0
H2027 H 0.76842 0.31509 0.3655 0.0
H2028 H 0.91146 0.44073 0.3642 0.0
H2029 H 0.92214 0.40012 0.35251 0.0
H2030 H 0.91126 0.42037 0.32309 0.0
H2031 H 0.76707 0.33473 0.42154 0.0
H2032 H 0.80586 0.328 0.42978 0.0
H2033 H 0.8045 0.37374 0.43895 0.0
H2034 H 0.92949 0.36373 0.44234 0.0
H2035 H 0.91695 0.46915 0.46453 0.0
H2036 H 0.89078 0.33393 0.37192 0.0
H2037 H 0.85396 0.31337 0.3996 0.0
H2038 H 0.89782 0.31566 0.40476 0.0
H2039 H 0.87605 0.46594 0.40272 0.0
H2040 H 0.87008 0.47822 0.44489 0.0
H2041 H 0.83585 0.4387 0.42409 0.0
C2042 C 0.72928 0.82382 0.34647 0.0
C2043 C 0.72202 0.81367 0.31449 0.0
C2044 C 0.71025 0.84175 0.36838 0.0
C2045 C 0.6834 0.85042 0.35805 0.0
C2046 C 0.67579 0.8401 0.32571 0.0
C2047 C 0.69516 0.82191 0.3044 0.0
C2048 C 0.71891 0.85136 0.40263 0.0
C2049 C 0.64717 0.84831 0.31361 0.0
C2050 C 0.61056 0.86679 0.41759 0.0
C2051 C 0.62358 0.90613 0.4242 0.0
C2052 C 0.62999 0.84843 0.39669 0.0
C2053 C 0.66297 0.86977 0.38107 0.0
C2054 C 0.67622 0.90953 0.38744 0.0
C2055 C 0.65667 0.92719 0.40922 0.0
C2056 C 0.61529 0.80608 0.39149 0.0
C2057 C 0.71087 0.93341 0.37088 0.0
H2058 H 0.75066 0.81883 0.35427 0.0
H2059 H 0.68906 0.81378 0.27978 0.0
H2060 H 0.72858 0.88214 0.40978 0.0
H2061 H 0.69432 0.8383 0.41804 0.0
H2062 H 0.73973 0.84173 0.40705 0.0
H2063 H 0.64401 0.83795 0.28799 0.0
H2064 H 0.62098 0.83505 0.32691 0.0
H2065 H 0.65394 0.879 0.31758 0.0
H2066 H 0.58523 0.85017 0.42923 0.0
H2067 H 0.66691 0.95755 0.41398 0.0
H2068 H 0.63527 0.79613 0.3973 0.0
H2069 H 0.61025 0.79548 0.36621 0.0
H2070 H 0.58987 0.79354 0.40616 0.0
H2071 H 0.73336 0.927 0.37632 0.0
H2072 H 0.71733 0.96389 0.37796 0.0
H2073 H 0.70906 0.92679 0.34484 0.0
C2074 C 0.20753 0.7061 0.3539 0.0
C2075 C 0.19837 0.70251 0.32298 0.0
C2076 C 0.18442 0.68256 0.37549 0.0
C2077 C 0.15087 0.65508 0.36618 0.0
C2078 C 0.14068 0.65261 0.33546 0.0
C2079 C 0.16465 0.67618 0.31416 0.0
C2080 C 0.19673 0.68604 0.40781 0.0
C2081 C 0.10502 0.62417 0.32468 0.0
C2082 C 0.11763 0.56833 0.4072 0.0
C2083 C 0.09362 0.57543 0.43164 0.0
C2084 C 0.13507 0.59321 0.38502 0.0
C2085 C 0.12864 0.62636 0.38727 0.0
C2086 C 0.10308 0.63286 0.41098 0.0
C2087 C 0.0857 0.60718 0.43289 0.0
C2088 C 0.16207 0.58506 0.36033 0.0
C2089 C 0.09517 0.66759 0.41386 0.0
H2090 H 0.23307 0.7271 0.36115 0.0
H2091 H 0.15724 0.67341 0.29034 0.0
H2092 H 0.17554 0.68747 0.42659 0.0
H2093 H 0.20192 0.66085 0.40949 0.0
H2094 H 0.2217 0.71125 0.41254 0.0
H2095 H 0.09918 0.62902 0.3018 0.0
H2096 H 0.10507 0.59557 0.32173 0.0
H2097 H 0.08302 0.625 0.34277 0.0
H2098 H 0.12367 0.54365 0.40596 0.0
H2099 H 0.06746 0.61296 0.45191 0.0
H2100 H 0.18905 0.60685 0.36478 0.0
H2101 H 0.15617 0.58636 0.3363 0.0
H2102 H 0.16273 0.55717 0.36068 0.0
H2103 H 0.12011 0.69296 0.41784 0.0
H2104 H 0.07475 0.66881 0.43356 0.0
H2105 H 0.08537 0.6684 0.39138 0.0
C2106 C 0.45031 0.16236 0.32044 0.0
C2107 C 0.43311 0.18713 0.33266 0.0
C2108 C 0.46374 0.14733 0.34047 0.0
C2109 C 0.45858 0.15586 0.37371 0.0
C2110 C 0.44131 0.18074 0.38634 0.0
C2111 C 0.42939 0.19654 0.36574 0.0
C2112 C 0.48299 0.12183 0.32603 0.0
C2113 C 0.43476 0.19009 0.42169 0.0
C2114 C 0.45392 0.08523 0.42541 0.0
C2115 C 0.48651 0.10322 0.43991 0.0
C2116 C 0.44482 0.10182 0.40357 0.0
C2117 C 0.4692 0.137 0.39531 0.0
C2118 C 0.50287 0.15455 0.40862 0.0
C2119 C 0.51101 0.13767 0.43103 0.0
C2120 C 0.40837 0.08237 0.39042 0.0
C2121 C 0.52995 0.19154 0.39969 0.0
H2122 H 0.4529 0.15407 0.29511 0.0
H2123 H 0.41716 0.21634 0.37575 0.0
H2124 H 0.50893 0.13101 0.3367 0.0
H2125 H 0.46657 0.09284 0.33109 0.0
H2126 H 0.48832 0.1213 0.29995 0.0
H2127 H 0.42095 0.20992 0.42778 0.0
H2128 H 0.41811 0.16404 0.4321 0.0
H2129 H 0.46059 0.20266 0.43298 0.0
H2130 H 0.43464 0.05866 0.43204 0.0
H2131 H 0.53631 0.15175 0.44191 0.0
H2132 H 0.41129 0.07822 0.36415 0.0
H2133 H 0.39262 0.10021 0.39783 0.0
H2134 H 0.39288 0.05463 0.39861 0.0
H2135 H 0.53304 0.1906 0.37357 0.0
H2136 H 0.55661 0.19891 0.40848 0.0
H2137 H 0.52029 0.21416 0.40979 0.0
C2138 C 0.61941 0.80839 0.64048 0.0
C2139 C 0.60452 0.80674 0.67187 0.0
C2140 C 0.61339 0.83049 0.62127 0.0
C2141 C 0.59241 0.85186 0.63387 0.0
C2142 C 0.57878 0.85158 0.66599 0.0
C2143 C 0.58489 0.82901 0.68449 0.0
C2144 C 0.62817 0.82974 0.58708 0.0
C2145 C 0.55688 0.87437 0.68062 0.0
C2146 C 0.5982 0.92875 0.58782 0.0
C2147 C 0.56756 0.91087 0.57056 0.0
C2148 C 0.6062 0.91032 0.60905 0.0
C2149 C 0.58319 0.87292 0.61306 0.0
C2150 C 0.55151 0.85525 0.59667 0.0
C2151 C 0.54404 0.87442 0.57577 0.0
C2152 C 0.63983 0.93057 0.62653 0.0
C2153 C 0.526 0.81555 0.60039 0.0
H2154 H 0.63439 0.7911 0.63052 0.0
H2155 H 0.5737 0.82822 0.70887 0.0
H2156 H 0.60569 0.81754 0.57138 0.0
H2157 H 0.6444 0.85869 0.58179 0.0
H2158 H 0.64514 0.81301 0.58118 0.0
H2159 H 0.54929 0.87216 0.70622 0.0
H2160 H 0.57224 0.90433 0.6778 0.0
H2161 H 0.53201 0.86479 0.66821 0.0
H2162 H 0.61656 0.95691 0.58416 0.0
H2163 H 0.52023 0.86027 0.56273 0.0
H2164 H 0.65899 0.91669 0.61829 0.0
H2165 H 0.63341 0.92915 0.65231 0.0
H2166 H 0.6533 0.96051 0.62285 0.0
H2167 H 0.54008 0.79619 0.59232 0.0
H2168 H 0.50206 0.80615 0.58665 0.0
H2169 H 0.51677 0.8132 0.6257 0.0
C2170 C 0.68541 0.16048 0.30631 0.0
C2171 C 0.69977 0.19947 0.31476 0.0
C2172 C 0.66336 0.13675 0.32819 0.0
C2173 C 0.65538 0.15248 0.35918 0.0
C2174 C 0.66843 0.19196 0.36728 0.0
C2175 C 0.69077 0.21496 0.34505 0.0
C2176 C 0.65007 0.09482 0.31862 0.0
C2177 C 0.66029 0.20988 0.39992 0.0
C2178 C 0.58441 0.08913 0.4141 0.0
C2179 C 0.60582 0.07965 0.43101 0.0
C2180 C 0.60002 0.11282 0.39049 0.0
C2181 C 0.63783 0.1278 0.3842 0.0
C2182 C 0.65945 0.11884 0.40162 0.0
C2183 C 0.64323 0.09486 0.42461 0.0
C2184 C 0.5762 0.12157 0.3721 0.0
C2185 C 0.69988 0.13436 0.39582 0.0
H2186 H 0.69203 0.14846 0.28276 0.0
H2187 H 0.70221 0.24508 0.35181 0.0
H2188 H 0.66364 0.08301 0.3317 0.0
H2189 H 0.62082 0.08148 0.32495 0.0
H2190 H 0.65537 0.08715 0.29281 0.0
H2191 H 0.67011 0.24088 0.40163 0.0
H2192 H 0.63094 0.19853 0.40629 0.0
H2193 H 0.67314 0.20306 0.41766 0.0
H2194 H 0.55551 0.07752 0.41887 0.0
H2195 H 0.6601 0.08812 0.43772 0.0
H2196 H 0.58227 0.11531 0.34626 0.0
H2197 H 0.5816 0.15194 0.37725 0.0
H2198 H 0.54726 0.10536 0.37794 0.0
H2199 H 0.70758 0.12578 0.37082 0.0
H2200 H 0.71284 0.12461 0.41141 0.0
H2201 H 0.71073 0.16547 0.39988 0.0
C2202 C 0.90134 0.69278 0.40075 0.0
C2203 C 0.87818 0.67047 0.3774 0.0
C2204 C 0.92538 0.6805 0.41082 0.0
C2205 C 0.92527 0.64472 0.39774 0.0
C2206 C 0.90444 0.62392 0.37192 0.0
C2207 C 0.88108 0.63717 0.36194 0.0
C2208 C 0.94795 0.70395 0.43778 0.0
C2209 C 0.90397 0.58587 0.35716 0.0
C2210 C 0.98797 0.61196 0.43037 0.0
C2211 C 0.96478 0.59157 0.4537 0.0
C2212 C 0.97537 0.6284 0.41079 0.0
C2213 C 0.93932 0.62555 0.41587 0.0
C2214 C 0.91601 0.60494 0.43953 0.0
C2215 C 0.92891 0.58779 0.45773 0.0
C2216 C 1.00087 0.64935 0.38537 0.0
C2217 C 0.87757 0.6018 0.44636 0.0
H2218 H 0.89913 0.71873 0.41237 0.0
H2219 H 0.86304 0.62005 0.34382 0.0
H2220 H 0.93603 0.6914 0.4599 0.0
H2221 H 0.97554 0.7044 0.43317 0.0
H2222 H 0.94953 0.73326 0.44165 0.0
H2223 H 0.89185 0.57656 0.33399 0.0
H2224 H 0.93157 0.58625 0.35373 0.0
H2225 H 0.88795 0.5649 0.37326 0.0
H2226 H 1.01566 0.61472 0.42726 0.0
H2227 H 0.91111 0.57254 0.47618 0.0
H2228 H 1.01412 0.67935 0.39516 0.0
H2229 H 0.98674 0.6477 0.3646 0.0
H2230 H 0.02213 0.6382 0.3772 0.0
H2231 H 0.87696 0.63016 0.45312 0.0
H2232 H 0.86322 0.58493 0.46582 0.0
H2233 H 0.86263 0.5886 0.42484 0.0
C2234 C 0.29353 0.84252 0.36145 0.0
C2235 C 0.31105 0.84341 0.33101 0.0
C2236 C 0.31283 0.86256 0.38808 0.0
C2237 C 0.35011 0.88421 0.38386 0.0
C2238 C 0.36706 0.88742 0.35286 0.0
C2239 C 0.34731 0.86691 0.32686 0.0
C2240 C 0.29419 0.85829 0.42083 0.0
C2241 C 0.40689 0.90944 0.34721 0.0
C2242 C 0.4129 0.94917 0.44602 0.0
C2243 C 0.42813 0.92539 0.45295 0.0
C2244 C 0.38498 0.9355 0.42555 0.0
C2245 C 0.37284 0.89757 0.41119 0.0
C2246 C 0.38637 0.87301 0.41994 0.0
C2247 C 0.41328 0.88707 0.44109 0.0
C2248 C 0.37023 0.96223 0.41773 0.0
C2249 C 0.37482 0.8325 0.40487 0.0
H2250 H 0.26558 0.82396 0.36463 0.0
H2251 H 0.36079 0.8676 0.30323 0.0
H2252 H 0.30523 0.84372 0.43363 0.0
H2253 H 0.29931 0.88638 0.43471 0.0
H2254 H 0.26486 0.84193 0.42023 0.0
H2255 H 0.41526 0.91178 0.32172 0.0
H2256 H 0.41477 0.93807 0.36059 0.0
H2257 H 0.42192 0.89537 0.35583 0.0
H2258 H 0.42385 0.97873 0.45529 0.0
H2259 H 0.42429 0.86819 0.44665 0.0
H2260 H 0.34082 0.94821 0.41567 0.0
H2261 H 0.38294 0.97172 0.39463 0.0
H2262 H 0.37583 0.98743 0.43595 0.0
H2263 H 0.3452 0.81841 0.4065 0.0
H2264 H 0.38581 0.81643 0.41608 0.0
H2265 H 0.3841 0.83124 0.37933 0.0
C2266 C 0.21468 0.34414 0.30445 0.0
C2267 C 0.22553 0.31891 0.31517 0.0
C2268 C 0.19526 0.36307 0.32499 0.0
C2269 C 0.18672 0.3571 0.35724 0.0
C2270 C 0.19739 0.33141 0.36803 0.0
C2271 C 0.21616 0.31253 0.34692 0.0
C2272 C 0.18369 0.38935 0.3121 0.0
C2273 C 0.18873 0.32355 0.40194 0.0
C2274 C 0.16275 0.42861 0.41956 0.0
C2275 C 0.12512 0.41126 0.42355 0.0
C2276 C 0.18307 0.41161 0.39791 0.0
C2277 C 0.16553 0.37644 0.37951 0.0
C2278 C 0.1276 0.35896 0.38334 0.0
C2279 C 0.10803 0.37652 0.40503 0.0
C2280 C 0.22343 0.43099 0.39514 0.0
C2281 C 0.10745 0.32157 0.36448 0.0
H2282 H 0.2213 0.34909 0.27995 0.0
H2283 H 0.22298 0.29215 0.35533 0.0
H2284 H 0.15412 0.38039 0.31587 0.0
H2285 H 0.1958 0.41806 0.32507 0.0
H2286 H 0.19159 0.39035 0.2864 0.0
H2287 H 0.19742 0.30155 0.40628 0.0
H2288 H 0.2022 0.34962 0.41808 0.0
H2289 H 0.15942 0.31434 0.40823 0.0
H2290 H 0.17644 0.45529 0.43366 0.0
H2291 H 0.07906 0.36267 0.40755 0.0
H2292 H 0.23312 0.43556 0.37023 0.0
H2293 H 0.23561 0.41289 0.40171 0.0
H2294 H 0.23311 0.45846 0.41057 0.0
H2295 H 0.10952 0.32524 0.33929 0.0
H2296 H 0.07856 0.30963 0.37276 0.0
H2297 H 0.11934 0.30103 0.36575 0.0
C2298 C 0.36042 0.22678 0.67149 0.0
C2299 C 0.32862 0.20655 0.68859 0.0
C2300 C 0.37961 0.20845 0.65006 0.0
C2301 C 0.36786 0.16881 0.64663 0.0
C2302 C 0.33593 0.14824 0.66404 0.0
C2303 C 0.31627 0.16718 0.68391 0.0
C2304 C 0.4125 0.23159 0.63103 0.0
C2305 C 0.32274 0.10616 0.66219 0.0
C2306 C 0.39999 0.11356 0.5747 0.0
C2307 C 0.42952 0.11087 0.58568 0.0
C2308 C 0.3803 0.13305 0.5939 0.0
C2309 C 0.38925 0.14892 0.62545 0.0
C2310 C 0.41848 0.1453 0.6369 0.0
C2311 C 0.43869 0.12714 0.6167 0.0
C2312 C 0.35034 0.1373 0.58018 0.0
C2313 C 0.42815 0.16022 0.67068 0.0
H2314 H 0.37076 0.25704 0.6752 0.0
H2315 H 0.29133 0.15094 0.69627 0.0
H2316 H 0.43636 0.22731 0.63606 0.0
H2317 H 0.40886 0.22234 0.60537 0.0
H2318 H 0.418 0.26203 0.6362 0.0
H2319 H 0.30008 0.0949 0.68004 0.0
H2320 H 0.31363 0.09259 0.63831 0.0
H2321 H 0.34483 0.09808 0.66593 0.0
H2322 H 0.39305 0.10148 0.55063 0.0
H2323 H 0.4614 0.12507 0.62538 0.0
H2324 H 0.35447 0.16736 0.58316 0.0
H2325 H 0.32432 0.12243 0.59306 0.0
H2326 H 0.3485 0.12595 0.55461 0.0
H2327 H 0.436 0.19105 0.67498 0.0
H2328 H 0.45056 0.1538 0.67639 0.0
H2329 H 0.40444 0.14789 0.68724 0.0
C2330 C 0.86 0.35199 0.7083 0.0
C2331 C 0.85159 0.31339 0.70418 0.0
C2332 C 0.88407 0.37458 0.6865 0.0
C2333 C 0.89994 0.35801 0.65992 0.0
C2334 C 0.89291 0.31921 0.65679 0.0
C2335 C 0.86868 0.2973 0.67899 0.0
C2336 C 0.89068 0.41573 0.69084 0.0
C2337 C 0.90887 0.3003 0.62876 0.0
C2338 C 0.91323 0.40376 0.5865 0.0
C2339 C 0.94983 0.42693 0.58545 0.0
C2340 C 0.89735 0.38013 0.60972 0.0
C2341 C 0.91837 0.37968 0.63297 0.0
C2342 C 0.95585 0.40152 0.63117 0.0
C2343 C 0.97128 0.42488 0.60722 0.0
C2344 C 0.85747 0.3574 0.61044 0.0
C2345 C 0.9793 0.40152 0.65527 0.0
H2346 H 0.84683 0.36428 0.72802 0.0
H2347 H 0.86183 0.26729 0.67586 0.0
H2348 H 0.91988 0.43291 0.68834 0.0
H2349 H 0.87809 0.42128 0.67214 0.0
H2350 H 0.87945 0.42503 0.71431 0.0
H2351 H 0.90535 0.27169 0.63225 0.0
H2352 H 0.89557 0.29797 0.60726 0.0
H2353 H 0.93791 0.31721 0.62432 0.0
H2354 H 0.8966 0.4047 0.56939 0.0
H2355 H 0.99964 0.44264 0.60641 0.0
H2356 H 0.84446 0.36899 0.63155 0.0
H2357 H 0.85135 0.32773 0.61259 0.0
H2358 H 0.84552 0.35818 0.58908 0.0
H2359 H 0.97378 0.41724 0.67816 0.0
H2360 H 1.0083 0.41485 0.64774 0.0
H2361 H 0.97316 0.37249 0.65949 0.0
C2362 C 0.25109 0.69299 0.64775 0.0
C2363 C 0.24368 0.68053 0.67735 0.0
C2364 C 0.2323 0.67027 0.62185 0.0
C2365 C 0.20461 0.6351 0.62628 0.0
C2366 C 0.19994 0.62087 0.6553 0.0
C2367 C 0.2199 0.64383 0.68061 0.0
C2368 C 0.23903 0.68592 0.59099 0.0
C2369 C 0.17069 0.5836 0.66108 0.0
C2370 C 0.11969 0.61999 0.59106 0.0
C2371 C 0.11718 0.59099 0.566 0.0
C2372 C 0.14775 0.6339 0.61087 0.0
C2373 C 0.17486 0.61927 0.60503 0.0
C2374 C 0.17305 0.59039 0.57944 0.0
C2375 C 0.14383 0.57618 0.56034 0.0
C2376 C 0.14787 0.66391 0.63848 0.0
C2377 C 0.20206 0.57496 0.572 0.0
H2378 H 0.2701 0.72133 0.64533 0.0
H2379 H 0.21439 0.63439 0.70367 0.0
H2380 H 0.23648 0.66357 0.57052 0.0
H2381 H 0.21876 0.69769 0.58975 0.0
H2382 H 0.26609 0.70869 0.58891 0.0
H2383 H 0.17595 0.57272 0.68112 0.0
H2384 H 0.14476 0.5871 0.66697 0.0
H2385 H 0.16782 0.56252 0.63962 0.0
H2386 H 0.09886 0.63113 0.59604 0.0
H2387 H 0.14196 0.55375 0.54101 0.0
H2388 H 0.17192 0.69 0.63577 0.0
H2389 H 0.14905 0.65457 0.66096 0.0
H2390 H 0.12369 0.67075 0.64058 0.0
H2391 H 0.22656 0.59615 0.56164 0.0
H2392 H 0.1939 0.54877 0.55484 0.0
H2393 H 0.20929 0.56925 0.59384 0.0
loop_
_geom_bond_atom_site_label_1
_geom_bond_atom_site_label_2
_geom_bond_distance
_geom_bond_site_symmetry_2
_ccdc_geom_bond_type
Tb0 N29 2.617 . S
Tb0 N35 2.572 . S
Tb0 O44 2.465 . S
Tb0 O45 2.387 . S
Tb0 O47 2.428 . S
Tb0 O48 2.308 . S
Tb0 O52 2.349 . S
Tb0 O55 2.393 . S
Tb0 C64 2.802 . S
C1 N2 1.379 . S
C1 C4 1.416 . S
C1 C8 1.424 . S
N2 C1 1.379 . S
N2 C5 1.334 . S
N2 Tb11 2.617 . S
C3 C5 1.390 . S
C3 C6 1.339 . S
C3 H23 0.930 . S
C4 C1 1.416 . S
C4 C6 1.416 . S
C4 C10 1.448 . S
C5 N2 1.334 . S
C5 C3 1.390 . S
C5 H16 0.930 . S
C6 C3 1.339 . S
C6 C4 1.416 . S
C6 H27 0.930 . S
C7 C8 1.413 . S
C7 C9 1.427 . S
C7 C13 1.416 . S
C8 C1 1.424 . S
C8 C7 1.413 . S
C8 N12 1.361 . S
C9 C7 1.427 . S
C9 C10 1.328 . S
C9 H24 0.929 . S
C10 C4 1.448 . S
C10 C9 1.328 . S
C10 H25 0.930 . S
Tb11 N2 2.617 . S
Tb11 N12 2.572 . S
Tb11 O46 2.349 . S
Tb11 O49 2.393 . S
Tb11 O50 2.465 . S
Tb11 O51 2.387 . S
Tb11 O53 2.428 . S
Tb11 O54 2.308 . S
Tb11 C75 2.802 . S
N12 C8 1.361 . S
N12 Tb11 2.572 . S
N12 C14 1.340 . S
C13 C7 1.416 . S
C13 C15 1.332 . S
C13 H21 0.931 . S
C14 N12 1.340 . S
C14 C15 1.407 . S
C14 H20 0.930 . S
C15 C13 1.332 . S
C15 C14 1.407 . S
C15 H17 0.929 . S
H16 C5 0.930 . S
H17 C15 0.929 . S
H18 C33 0.930 . S
H19 C40 0.929 . S
H20 C14 0.930 . S
H21 C13 0.931 . S
H22 C36 0.930 . S
H23 C3 0.930 . S
H24 C9 0.929 . S
H25 C10 0.930 . S
H26 C31 0.930 . S
H27 C6 0.930 . S
H28 C39 0.931 . S
N29 Tb0 2.617 . S
N29 C30 1.379 . S
N29 C33 1.334 . S
C30 N29 1.379 . S
C30 C32 1.416 . S
C30 C38 1.424 . S
C31 H26 0.930 . S
C31 C33 1.390 . S
C31 C34 1.339 . S
C32 C30 1.416 . S
C32 C34 1.416 . S
C32 C65 1.448 . S
C33 H18 0.930 . S
C33 N29 1.334 . S
C33 C31 1.390 . S
C34 C31 1.339 . S
C34 C32 1.416 . S
C34 H41 0.930 . S
N35 Tb0 2.572 . S
N35 C36 1.340 . S
N35 C38 1.361 . S
C36 H22 0.930 . S
C36 N35 1.340 . S
C36 C40 1.407 . S
C37 C38 1.413 . S
C37 C39 1.416 . S
C37 C66 1.427 . S
C38 C30 1.424 . S
C38 N35 1.361 . S
C38 C37 1.413 . S
C39 H28 0.931 . S
C39 C37 1.416 . S
C39 C40 1.332 . S
C40 H19 0.929 . S
C40 C36 1.407 . S
C40 C39 1.332 . S
H41 C34 0.930 . S
H42 C65 0.930 . S
H43 C66 0.929 . S
O44 Tb0 2.465 . S
O44 C64 1.264 . S
O45 Tb0 2.387 . S
O45 C56 1.264 . S
O46 Tb11 2.349 . S
O46 C56 1.243 . S
O47 Tb0 2.428 . S
O47 C64 1.256 . S
O48 Tb0 2.308 . S
O48 C63 1.266 . S
O49 Tb11 2.393 . S
O49 C63 1.248 . S
O50 Tb11 2.465 . S
O50 C75 1.264 . S
O51 Tb11 2.387 . S
O51 C67 1.264 . S
O52 Tb0 2.349 . S
O52 C67 1.243 . S
O53 Tb11 2.428 . S
O53 C75 1.256 . S
O54 Tb11 2.308 . S
O54 C74 1.266 . S
O55 Tb0 2.393 . S
O55 C74 1.248 . S
C56 O45 1.264 . S
C56 O46 1.243 . S
C57 C60 1.399 . S
C57 C62 1.383 . S
C57 C64 1.496 . S
C58 C59 1.399 . S
C58 C62 1.389 . S
C59 C58 1.399 . S
C59 C61 1.380 . S
C59 H76 0.929 . S
C60 C57 1.399 . S
C60 C61 1.392 . S
C60 H77 0.929 . S
C61 C59 1.380 . S
C61 C60 1.392 . S
C61 H78 0.929 . S
C62 C57 1.383 . S
C62 C58 1.389 . S
C62 H79 0.931 . S
C63 O48 1.266 . S
C63 O49 1.248 . S
C64 Tb0 2.802 . S
C64 O44 1.264 . S
C64 O47 1.256 . S
C64 C57 1.496 . S
C65 C32 1.448 . S
C65 H42 0.930 . S
C65 C66 1.328 . S
C66 C37 1.427 . S
C66 H43 0.929 . S
C66 C65 1.328 . S
C67 O51 1.264 . S
C67 O52 1.243 . S
C68 C71 1.399 . S
C68 C72 1.383 . S
C68 C75 1.496 . S
C69 C70 1.399 . S
C69 C72 1.389 . S
C70 C69 1.399 . S
C70 C73 1.380 . S
C70 H80 0.929 . S
C71 C68 1.399 . S
C71 C73 1.392 . S
C71 H81 0.929 . S
C72 C68 1.383 . S
C72 C69 1.389 . S
C72 H82 0.931 . S
C73 C70 1.380 . S
C73 C71 1.392 . S
C73 H83 0.929 . S
C74 O54 1.266 . S
C74 O55 1.248 . S
C75 Tb11 2.802 . S
C75 O50 1.264 . S
C75 O53 1.256 . S
C75 C68 1.496 . S
H76 C59 0.929 . S
H77 C60 0.929 . S
H78 C61 0.929 . S
H79 C62 0.931 . S
H80 C70 0.929 . S
H81 C71 0.929 . S
H82 C72 0.931 . S
H83 C73 0.929 . S
Tb84 N113 2.617 . S
Tb84 N119 2.572 . S
Tb84 O128 2.465 . S
Tb84 O129 2.387 . S
Tb84 O131 2.428 . S
Tb84 O132 2.308 . S
Tb84 O136 2.349 . S
Tb84 O139 2.393 . S
Tb84 C148 2.802 . S
C85 N86 1.379 . S
C85 C88 1.416 . S
C85 C92 1.424 . S
N86 C85 1.379 . S
N86 C89 1.334 . S
N86 Tb95 2.617 . S
C87 C89 1.390 . S
C87 C90 1.339 . S
C87 H107 0.930 . S
C88 C85 1.416 . S
C88 C90 1.416 . S
C88 C94 1.448 . S
C89 N86 1.334 . S
C89 C87 1.390 . S
C89 H100 0.930 . S
C90 C87 1.339 . S
C90 C88 1.416 . S
C90 H111 0.930 . S
C91 C92 1.413 . S
C91 C93 1.427 . S
C91 C97 1.416 . S
C92 C85 1.424 . S
C92 C91 1.413 . S
C92 N96 1.361 . S
C93 C91 1.427 . S
C93 C94 1.328 . S
C93 H108 0.929 . S
C94 C88 1.448 . S
C94 C93 1.328 . S
C94 H109 0.930 . S
Tb95 N86 2.617 . S
Tb95 N96 2.572 . S
Tb95 O130 2.349 . S
Tb95 O133 2.393 . S
Tb95 O134 2.465 . S
Tb95 O135 2.387 . S
Tb95 O137 2.428 . S
Tb95 O138 2.308 . S
Tb95 C159 2.802 . S
N96 C92 1.361 . S
N96 Tb95 2.572 . S
N96 C98 1.340 . S
C97 C91 1.416 . S
C97 C99 1.332 . S
C97 H105 0.931 . S
C98 N96 1.340 . S
C98 C99 1.407 . S
C98 H104 0.930 . S
C99 C97 1.332 . S
C99 C98 1.407 . S
C99 H101 0.929 . S
H100 C89 0.930 . S
H101 C99 0.929 . S
H102 C117 0.930 . S
H103 C124 0.929 . S
H104 C98 0.930 . S
H105 C97 0.931 . S
H106 C120 0.930 . S
H107 C87 0.930 . S
H108 C93 0.929 . S
H109 C94 0.930 . S
H110 C115 0.930 . S
H111 C90 0.930 . S
H112 C123 0.931 . S
N113 Tb84 2.617 . S
N113 C114 1.379 . S
N113 C117 1.334 . S
C114 N113 1.379 . S
C114 C116 1.416 . S
C114 C122 1.424 . S
C115 H110 0.930 . S
C115 C117 1.390 . S
C115 C118 1.339 . S
C116 C114 1.416 . S
C116 C118 1.416 . S
C116 C149 1.448 . S
C117 H102 0.930 . S
C117 N113 1.334 . S
C117 C115 1.390 . S
C118 C115 1.339 . S
C118 C116 1.416 . S
C118 H125 0.930 . S
N119 Tb84 2.572 . S
N119 C120 1.340 . S
N119 C122 1.361 . S
C120 H106 0.930 . S
C120 N119 1.340 . S
C120 C124 1.407 . S
C121 C122 1.413 . S
C121 C123 1.416 . S
C121 C150 1.427 . S
C122 C114 1.424 . S
C122 N119 1.361 . S
C122 C121 1.413 . S
C123 H112 0.931 . S
C123 C121 1.416 . S
C123 C124 1.332 . S
C124 H103 0.929 . S
C124 C120 1.407 . S
C124 C123 1.332 . S
H125 C118 0.930 . S
H126 C149 0.930 . S
H127 C150 0.929 . S
O128 Tb84 2.465 . S
O128 C148 1.264 . S
O129 Tb84 2.387 . S
O129 C140 1.264 . S
O130 Tb95 2.349 . S
O130 C140 1.243 . S
O131 Tb84 2.428 . S
O131 C148 1.256 . S
O132 Tb84 2.308 . S
O132 C147 1.266 . S
O133 Tb95 2.393 . S
O133 C147 1.248 . S
O134 Tb95 2.465 . S
O134 C159 1.264 . S
O135 Tb95 2.387 . S
O135 C151 1.264 . S
O136 Tb84 2.349 . S
O136 C151 1.243 . S
O137 Tb95 2.428 . S
O137 C159 1.256 . S
O138 Tb95 2.308 . S
O138 C158 1.266 . S
O139 Tb84 2.393 . S
O139 C158 1.248 . S
C140 O129 1.264 . S
C140 O130 1.243 . S
C141 C144 1.399 . S
C141 C146 1.383 . S
C141 C148 1.496 . S
C142 C143 1.399 . S
C142 C146 1.389 . S
C143 C142 1.399 . S
C143 C145 1.380 . S
C143 H160 0.929 . S
C144 C141 1.399 . S
C144 C145 1.392 . S
C144 H161 0.929 . S
C145 C143 1.380 . S
C145 C144 1.392 . S
C145 H162 0.929 . S
C146 C141 1.383 . S
C146 C142 1.389 . S
C146 H163 0.931 . S
C147 O132 1.266 . S
C147 O133 1.248 . S
C148 Tb84 2.802 . S
C148 O128 1.264 . S
C148 O131 1.256 . S
C148 C141 1.496 . S
C149 C116 1.448 . S
C149 H126 0.930 . S
C149 C150 1.328 . S
C150 C121 1.427 . S
C150 H127 0.929 . S
C150 C149 1.328 . S
C151 O135 1.264 . S
C151 O136 1.243 . S
C152 C155 1.399 . S
C152 C156 1.383 . S
C152 C159 1.496 . S
C153 C154 1.399 . S
C153 C156 1.389 . S
C154 C153 1.399 . S
C154 C157 1.380 . S
C154 H164 0.929 . S
C155 C152 1.399 . S
C155 C157 1.392 . S
C155 H165 0.929 . S
C156 C152 1.383 . S
C156 C153 1.389 . S
C156 H166 0.931 . S
C157 C154 1.380 . S
C157 C155 1.392 . S
C157 H167 0.929 . S
C158 O138 1.266 . S
C158 O139 1.248 . S
C159 Tb95 2.802 . S
C159 O134 1.264 . S
C159 O137 1.256 . S
C159 C152 1.496 . S
H160 C143 0.929 . S
H161 C144 0.929 . S
H162 C145 0.929 . S
H163 C146 0.931 . S
H164 C154 0.929 . S
H165 C155 0.929 . S
H166 C156 0.931 . S
H167 C157 0.929 . S
Tb168 N197 2.617 . S
Tb168 N203 2.572 . S
Tb168 O212 2.465 . S
Tb168 O213 2.387 . S
Tb168 O215 2.428 . S
Tb168 O216 2.308 . S
Tb168 O220 2.349 . S
Tb168 O223 2.393 . S
Tb168 C232 2.802 . S
C169 N170 1.379 . S
C169 C172 1.416 . S
C169 C176 1.424 . S
N170 C169 1.379 . S
N170 C173 1.334 . S
N170 Tb179 2.617 . S
C171 C173 1.390 . S
C171 C174 1.339 . S
C171 H191 0.930 . S
C172 C169 1.416 . S
C172 C174 1.416 . S
C172 C178 1.448 . S
C173 N170 1.334 . S
C173 C171 1.390 . S
C173 H184 0.930 . S
C174 C171 1.339 . S
C174 C172 1.416 . S
C174 H195 0.930 . S
C175 C176 1.413 . S
C175 C177 1.427 . S
C175 C181 1.416 . S
C176 C169 1.424 . S
C176 C175 1.413 . S
C176 N180 1.361 . S
C177 C175 1.427 . S
C177 C178 1.328 . S
C177 H192 0.929 . S
C178 C172 1.448 . S
C178 C177 1.328 . S
C178 H193 0.930 . S
Tb179 N170 2.617 . S
Tb179 N180 2.572 . S
Tb179 O214 2.349 . S
Tb179 O217 2.393 . S
Tb179 O218 2.465 . S
Tb179 O219 2.387 . S
Tb179 O221 2.428 . S
Tb179 O222 2.308 . S
Tb179 C243 2.802 . S
N180 C176 1.361 . S
N180 Tb179 2.572 . S
N180 C182 1.340 . S
C181 C175 1.416 . S
C181 C183 1.332 . S
C181 H189 0.931 . S
C182 N180 1.340 . S
C182 C183 1.407 . S
C182 H188 0.930 . S
C183 C181 1.332 . S
C183 C182 1.407 . S
C183 H185 0.929 . S
H184 C173 0.930 . S
H185 C183 0.929 . S
H186 C201 0.930 . S
H187 C208 0.929 . S
H188 C182 0.930 . S
H189 C181 0.931 . S
H190 C204 0.930 . S
H191 C171 0.930 . S
H192 C177 0.929 . S
H193 C178 0.930 . S
H194 C199 0.930 . S
H195 C174 0.930 . S
H196 C207 0.931 . S
N197 Tb168 2.617 . S
N197 C198 1.379 . S
N197 C201 1.334 . S
C198 N197 1.379 . S
C198 C200 1.416 . S
C198 C206 1.424 . S
C199 H194 0.930 . S
C199 C201 1.390 . S
C199 C202 1.339 . S
C200 C198 1.416 . S
C200 C202 1.416 . S
C200 C233 1.448 . S
C201 H186 0.930 . S
C201 N197 1.334 . S
C201 C199 1.390 . S
C202 C199 1.339 . S
C202 C200 1.416 . S
C202 H209 0.930 . S
N203 Tb168 2.572 . S
N203 C204 1.340 . S
N203 C206 1.361 . S
C204 H190 0.930 . S
C204 N203 1.340 . S
C204 C208 1.407 . S
C205 C206 1.413 . S
C205 C207 1.416 . S
C205 C234 1.427 . S
C206 C198 1.424 . S
C206 N203 1.361 . S
C206 C205 1.413 . S
C207 H196 0.931 . S
C207 C205 1.416 . S
C207 C208 1.332 . S
C208 H187 0.929 . S
C208 C204 1.407 . S
C208 C207 1.332 . S
H209 C202 0.930 . S
H210 C233 0.930 . S
H211 C234 0.929 . S
O212 Tb168 2.465 . S
O212 C232 1.264 . S
O213 Tb168 2.387 . S
O213 C224 1.264 . S
O214 Tb179 2.349 . S
O214 C224 1.243 . S
O215 Tb168 2.428 . S
O215 C232 1.256 . S
O216 Tb168 2.308 . S
O216 C231 1.266 . S
O217 Tb179 2.393 . S
O217 C231 1.248 . S
O218 Tb179 2.465 . S
O218 C243 1.264 . S
O219 Tb179 2.387 . S
O219 C235 1.264 . S
O220 Tb168 2.349 . S
O220 C235 1.243 . S
O221 Tb179 2.428 . S
O221 C243 1.256 . S
O222 Tb179 2.308 . S
O222 C242 1.266 . S
O223 Tb168 2.393 . S
O223 C242 1.248 . S
C224 O213 1.264 . S
C224 O214 1.243 . S
C225 C228 1.399 . S
C225 C230 1.383 . S
C225 C232 1.496 . S
C226 C227 1.399 . S
C226 C230 1.389 . S
C227 C226 1.399 . S
C227 C229 1.380 . S
C227 H244 0.929 . S
C228 C225 1.399 . S
C228 C229 1.392 . S
C228 H245 0.929 . S
C229 C227 1.380 . S
C229 C228 1.392 . S
C229 H246 0.929 . S
C230 C225 1.383 . S
C230 C226 1.389 . S
C230 H247 0.931 . S
C231 O216 1.266 . S
C231 O217 1.248 . S
C232 Tb168 2.802 . S
C232 O212 1.264 . S
C232 O215 1.256 . S
C232 C225 1.496 . S
C233 C200 1.448 . S
C233 H210 0.930 . S
C233 C234 1.328 . S
C234 C205 1.427 . S
C234 H211 0.929 . S
C234 C233 1.328 . S
C235 O219 1.264 . S
C235 O220 1.243 . S
C236 C239 1.399 . S
C236 C240 1.383 . S
C236 C243 1.496 . S
C237 C238 1.399 . S
C237 C240 1.389 . S
C238 C237 1.399 . S
C238 C241 1.380 . S
C238 H248 0.929 . S
C239 C236 1.399 . S
C239 C241 1.392 . S
C239 H249 0.929 . S
C240 C236 1.383 . S
C240 C237 1.389 . S
C240 H250 0.931 . S
C241 C238 1.380 . S
C241 C239 1.392 . S
C241 H251 0.929 . S
C242 O222 1.266 . S
C242 O223 1.248 . S
C243 Tb179 2.802 . S
C243 O218 1.264 . S
C243 O221 1.256 . S
C243 C236 1.496 . S
H244 C227 0.929 . S
H245 C228 0.929 . S
H246 C229 0.929 . S
H247 C230 0.931 . S
H248 C238 0.929 . S
H249 C239 0.929 . S
H250 C240 0.931 . S
H251 C241 0.929 . S
Tb252 N281 2.617 . S
Tb252 N287 2.572 . S
Tb252 O296 2.465 . S
Tb252 O297 2.387 . S
Tb252 O299 2.428 . S
Tb252 O300 2.308 . S
Tb252 O304 2.349 . S
Tb252 O307 2.393 . S
Tb252 C316 2.802 . S
C253 N254 1.379 . S
C253 C256 1.416 . S
C253 C260 1.424 . S
N254 C253 1.379 . S
N254 C257 1.334 . S
N254 Tb263 2.617 . S
C255 C257 1.390 . S
C255 C258 1.339 . S
C255 H275 0.930 . S
C256 C253 1.416 . S
C256 C258 1.416 . S
C256 C262 1.448 . S
C257 N254 1.334 . S
C257 C255 1.390 . S
C257 H268 0.930 . S
C258 C255 1.339 . S
C258 C256 1.416 . S
C258 H279 0.930 . S
C259 C260 1.413 . S
C259 C261 1.427 . S
C259 C265 1.416 . S
C260 C253 1.424 . S
C260 C259 1.413 . S
C260 N264 1.361 . S
C261 C259 1.427 . S
C261 C262 1.328 . S
C261 H276 0.929 . S
C262 C256 1.448 . S
C262 C261 1.328 . S
C262 H277 0.930 . S
Tb263 N254 2.617 . S
Tb263 N264 2.572 . S
Tb263 O298 2.349 . S
Tb263 O301 2.393 . S
Tb263 O302 2.465 . S
Tb263 O303 2.387 . S
Tb263 O305 2.428 . S
Tb263 O306 2.308 . S
Tb263 C327 2.802 . S
N264 C260 1.361 . S
N264 Tb263 2.572 . S
N264 C266 1.340 . S
C265 C259 1.416 . S
C265 C267 1.332 . S
C265 H273 0.931 . S
C266 N264 1.340 . S
C266 C267 1.407 . S
C266 H272 0.930 . S
C267 C265 1.332 . S
C267 C266 1.407 . S
C267 H269 0.929 . S
H268 C257 0.930 . S
H269 C267 0.929 . S
H270 C285 0.930 . S
H271 C292 0.929 . S
H272 C266 0.930 . S
H273 C265 0.931 . S
H274 C288 0.930 . S
H275 C255 0.930 . S
H276 C261 0.929 . S
H277 C262 0.930 . S
H278 C283 0.930 . S
H279 C258 0.930 . S
H280 C291 0.931 . S
N281 Tb252 2.617 . S
N281 C282 1.379 . S
N281 C285 1.334 . S
C282 N281 1.379 . S
C282 C284 1.416 . S
C282 C290 1.424 . S
C283 H278 0.930 . S
C283 C285 1.390 . S
C283 C286 1.339 . S
C284 C282 1.416 . S
C284 C286 1.416 . S
C284 C317 1.448 . S
C285 H270 0.930 . S
C285 N281 1.334 . S
C285 C283 1.390 . S
C286 C283 1.339 . S
C286 C284 1.416 . S
C286 H293 0.930 . S
N287 Tb252 2.572 . S
N287 C288 1.340 . S
N287 C290 1.361 . S
C288 H274 0.930 . S
C288 N287 1.340 . S
C288 C292 1.407 . S
C289 C290 1.413 . S
C289 C291 1.416 . S
C289 C318 1.427 . S
C290 C282 1.424 . S
C290 N287 1.361 . S
C290 C289 1.413 . S
C291 H280 0.931 . S
C291 C289 1.416 . S
C291 C292 1.332 . S
C292 H271 0.929 . S
C292 C288 1.407 . S
C292 C291 1.332 . S
H293 C286 0.930 . S
H294 C317 0.930 . S
H295 C318 0.929 . S
O296 Tb252 2.465 . S
O296 C316 1.264 . S
O297 Tb252 2.387 . S
O297 C308 1.264 . S
O298 Tb263 2.349 . S
O298 C308 1.243 . S
O299 Tb252 2.428 . S
O299 C316 1.256 . S
O300 Tb252 2.308 . S
O300 C315 1.266 . S
O301 Tb263 2.393 . S
O301 C315 1.248 . S
O302 Tb263 2.465 . S
O302 C327 1.264 . S
O303 Tb263 2.387 . S
O303 C319 1.264 . S
O304 Tb252 2.349 . S
O304 C319 1.243 . S
O305 Tb263 2.428 . S
O305 C327 1.256 . S
O306 Tb263 2.308 . S
O306 C326 1.266 . S
O307 Tb252 2.393 . S
O307 C326 1.248 . S
C308 O297 1.264 . S
C308 O298 1.243 . S
C309 C312 1.399 . S
C309 C314 1.383 . S
C309 C316 1.496 . S
C310 C311 1.399 . S
C310 C314 1.389 . S
C311 C310 1.399 . S
C311 C313 1.380 . S
C311 H328 0.929 . S
C312 C309 1.399 . S
C312 C313 1.392 . S
C312 H329 0.929 . S
C313 C311 1.380 . S
C313 C312 1.392 . S
C313 H330 0.929 . S
C314 C309 1.383 . S
C314 C310 1.389 . S
C314 H331 0.931 . S
C315 O300 1.266 . S
C315 O301 1.248 . S
C316 Tb252 2.802 . S
C316 O296 1.264 . S
C316 O299 1.256 . S
C316 C309 1.496 . S
C317 C284 1.448 . S
C317 H294 0.930 . S
C317 C318 1.328 . S
C318 C289 1.427 . S
C318 H295 0.929 . S
C318 C317 1.328 . S
C319 O303 1.264 . S
C319 O304 1.243 . S
C320 C323 1.399 . S
C320 C324 1.383 . S
C320 C327 1.496 . S
C321 C322 1.399 . S
C321 C324 1.389 . S
C322 C321 1.399 . S
C322 C325 1.380 . S
C322 H332 0.929 . S
C323 C320 1.399 . S
C323 C325 1.392 . S
C323 H333 0.929 . S
C324 C320 1.383 . S
C324 C321 1.389 . S
C324 H334 0.931 . S
C325 C322 1.380 . S
C325 C323 1.392 . S
C325 H335 0.929 . S
C326 O306 1.266 . S
C326 O307 1.248 . S
C327 Tb263 2.802 . S
C327 O302 1.264 . S
C327 O305 1.256 . S
C327 C320 1.496 . S
H328 C311 0.929 . S
H329 C312 0.929 . S
H330 C313 0.929 . S
H331 C314 0.931 . S
H332 C322 0.929 . S
H333 C323 0.929 . S
H334 C324 0.931 . S
H335 C325 0.929 . S
Tb336 N365 2.617 . S
Tb336 N371 2.572 . S
Tb336 O380 2.465 . S
Tb336 O381 2.387 . S
Tb336 O383 2.428 . S
Tb336 O384 2.308 . S
Tb336 O388 2.349 . S
Tb336 O391 2.393 . S
Tb336 C400 2.802 . S
C337 N338 1.379 . S
C337 C340 1.416 . S
C337 C344 1.424 . S
N338 C337 1.379 . S
N338 C341 1.334 . S
N338 Tb347 2.617 . S
C339 C341 1.390 . S
C339 C342 1.339 . S
C339 H359 0.930 . S
C340 C337 1.416 . S
C340 C342 1.416 . S
C340 C346 1.448 . S
C341 N338 1.334 . S
C341 C339 1.390 . S
C341 H352 0.930 . S
C342 C339 1.339 . S
C342 C340 1.416 . S
C342 H363 0.930 . S
C343 C344 1.413 . S
C343 C345 1.427 . S
C343 C349 1.416 . S
C344 C337 1.424 . S
C344 C343 1.413 . S
C344 N348 1.361 . S
C345 C343 1.427 . S
C345 C346 1.328 . S
C345 H360 0.929 . S
C346 C340 1.448 . S
C346 C345 1.328 . S
C346 H361 0.930 . S
Tb347 N338 2.617 . S
Tb347 N348 2.572 . S
Tb347 O382 2.349 . S
Tb347 O385 2.393 . S
Tb347 O386 2.465 . S
Tb347 O387 2.387 . S
Tb347 O389 2.428 . S
Tb347 O390 2.308 . S
Tb347 C411 2.802 . S
N348 C344 1.361 . S
N348 Tb347 2.572 . S
N348 C350 1.340 . S
C349 C343 1.416 . S
C349 C351 1.332 . S
C349 H357 0.931 . S
C350 N348 1.340 . S
C350 C351 1.407 . S
C350 H356 0.930 . S
C351 C349 1.332 . S
C351 C350 1.407 . S
C351 H353 0.929 . S
H352 C341 0.930 . S
H353 C351 0.929 . S
H354 C369 0.930 . S
H355 C376 0.929 . S
H356 C350 0.930 . S
H357 C349 0.931 . S
H358 C372 0.930 . S
H359 C339 0.930 . S
H360 C345 0.929 . S
H361 C346 0.930 . S
H362 C367 0.930 . S
H363 C342 0.930 . S
H364 C375 0.931 . S
N365 Tb336 2.617 . S
N365 C366 1.379 . S
N365 C369 1.334 . S
C366 N365 1.379 . S
C366 C368 1.416 . S
C366 C374 1.424 . S
C367 H362 0.930 . S
C367 C369 1.390 . S
C367 C370 1.339 . S
C368 C366 1.416 . S
C368 C370 1.416 . S
C368 C401 1.448 . S
C369 H354 0.930 . S
C369 N365 1.334 . S
C369 C367 1.390 . S
C370 C367 1.339 . S
C370 C368 1.416 . S
C370 H377 0.930 . S
N371 Tb336 2.572 . S
N371 C372 1.340 . S
N371 C374 1.361 . S
C372 H358 0.930 . S
C372 N371 1.340 . S
C372 C376 1.407 . S
C373 C374 1.413 . S
C373 C375 1.416 . S
C373 C402 1.427 . S
C374 C366 1.424 . S
C374 N371 1.361 . S
C374 C373 1.413 . S
C375 H364 0.931 . S
C375 C373 1.416 . S
C375 C376 1.332 . S
C376 H355 0.929 . S
C376 C372 1.407 . S
C376 C375 1.332 . S
H377 C370 0.930 . S
H378 C401 0.930 . S
H379 C402 0.929 . S
O380 Tb336 2.465 . S
O380 C400 1.264 . S
O381 Tb336 2.387 . S
O381 C392 1.264 . S
O382 Tb347 2.349 . S
O382 C392 1.243 . S
O383 Tb336 2.428 . S
O383 C400 1.256 . S
O384 Tb336 2.308 . S
O384 C399 1.266 . S
O385 Tb347 2.393 . S
O385 C399 1.248 . S
O386 Tb347 2.465 . S
O386 C411 1.264 . S
O387 Tb347 2.387 . S
O387 C403 1.264 . S
O388 Tb336 2.349 . S
O388 C403 1.243 . S
O389 Tb347 2.428 . S
O389 C411 1.256 . S
O390 Tb347 2.308 . S
O390 C410 1.266 . S
O391 Tb336 2.393 . S
O391 C410 1.248 . S
C392 O381 1.264 . S
C392 O382 1.243 . S
C393 C396 1.399 . S
C393 C398 1.383 . S
C393 C400 1.496 . S
C394 C395 1.399 . S
C394 C398 1.389 . S
C395 C394 1.399 . S
C395 C397 1.380 . S
C395 H412 0.929 . S
C396 C393 1.399 . S
C396 C397 1.392 . S
C396 H413 0.929 . S
C397 C395 1.380 . S
C397 C396 1.392 . S
C397 H414 0.929 . S
C398 C393 1.383 . S
C398 C394 1.389 . S
C398 H415 0.931 . S
C399 O384 1.266 . S
C399 O385 1.248 . S
C400 Tb336 2.802 . S
C400 O380 1.264 . S
C400 O383 1.256 . S
C400 C393 1.496 . S
C401 C368 1.448 . S
C401 H378 0.930 . S
C401 C402 1.328 . S
C402 C373 1.427 . S
C402 H379 0.929 . S
C402 C401 1.328 . S
C403 O387 1.264 . S
C403 O388 1.243 . S
C404 C407 1.399 . S
C404 C408 1.383 . S
C404 C411 1.496 . S
C405 C406 1.399 . S
C405 C408 1.389 . S
C406 C405 1.399 . S
C406 C409 1.380 . S
C406 H416 0.929 . S
C407 C404 1.399 . S
C407 C409 1.392 . S
C407 H417 0.929 . S
C408 C404 1.383 . S
C408 C405 1.389 . S
C408 H418 0.931 . S
C409 C406 1.380 . S
C409 C407 1.392 . S
C409 H419 0.929 . S
C410 O390 1.266 . S
C410 O391 1.248 . S
C411 Tb347 2.802 . S
C411 O386 1.264 . S
C411 O389 1.256 . S
C411 C404 1.496 . S
H412 C395 0.929 . S
H413 C396 0.929 . S
H414 C397 0.929 . S
H415 C398 0.931 . S
H416 C406 0.929 . S
H417 C407 0.929 . S
H418 C408 0.931 . S
H419 C409 0.929 . S
Tb420 N449 2.617 . S
Tb420 N455 2.572 . S
Tb420 O464 2.465 . S
Tb420 O465 2.387 . S
Tb420 O467 2.428 . S
Tb420 O468 2.308 . S
Tb420 O472 2.349 . S
Tb420 O475 2.393 . S
Tb420 C484 2.802 . S
C421 N422 1.379 . S
C421 C424 1.416 . S
C421 C428 1.424 . S
N422 C421 1.379 . S
N422 C425 1.334 . S
N422 Tb431 2.617 . S
C423 C425 1.390 . S
C423 C426 1.339 . S
C423 H443 0.930 . S
C424 C421 1.416 . S
C424 C426 1.416 . S
C424 C430 1.448 . S
C425 N422 1.334 . S
C425 C423 1.390 . S
C425 H436 0.930 . S
C426 C423 1.339 . S
C426 C424 1.416 . S
C426 H447 0.930 . S
C427 C428 1.413 . S
C427 C429 1.427 . S
C427 C433 1.416 . S
C428 C421 1.424 . S
C428 C427 1.413 . S
C428 N432 1.361 . S
C429 C427 1.427 . S
C429 C430 1.328 . S
C429 H444 0.929 . S
C430 C424 1.448 . S
C430 C429 1.328 . S
C430 H445 0.930 . S
Tb431 N422 2.617 . S
Tb431 N432 2.572 . S
Tb431 O466 2.349 . S
Tb431 O469 2.393 . S
Tb431 O470 2.465 . S
Tb431 O471 2.387 . S
Tb431 O473 2.428 . S
Tb431 O474 2.308 . S
Tb431 C495 2.802 . S
N432 C428 1.361 . S
N432 Tb431 2.572 . S
N432 C434 1.340 . S
C433 C427 1.416 . S
C433 C435 1.332 . S
C433 H441 0.931 . S
C434 N432 1.340 . S
C434 C435 1.407 . S
C434 H440 0.930 . S
C435 C433 1.332 . S
C435 C434 1.407 . S
C435 H437 0.929 . S
H436 C425 0.930 . S
H437 C435 0.929 . S
H438 C453 0.930 . S
H439 C460 0.929 . S
H440 C434 0.930 . S
H441 C433 0.931 . S
H442 C456 0.930 . S
H443 C423 0.930 . S
H444 C429 0.929 . S
H445 C430 0.930 . S
H446 C451 0.930 . S
H447 C426 0.930 . S
H448 C459 0.931 . S
N449 Tb420 2.617 . S
N449 C450 1.379 . S
N449 C453 1.334 . S
C450 N449 1.379 . S
C450 C452 1.416 . S
C450 C458 1.424 . S
C451 H446 0.930 . S
C451 C453 1.390 . S
C451 C454 1.339 . S
C452 C450 1.416 . S
C452 C454 1.416 . S
C452 C485 1.448 . S
C453 H438 0.930 . S
C453 N449 1.334 . S
C453 C451 1.390 . S
C454 C451 1.339 . S
C454 C452 1.416 . S
C454 H461 0.930 . S
N455 Tb420 2.572 . S
N455 C456 1.340 . S
N455 C458 1.361 . S
C456 H442 0.930 . S
C456 N455 1.340 . S
C456 C460 1.407 . S
C457 C458 1.413 . S
C457 C459 1.416 . S
C457 C486 1.427 . S
C458 C450 1.424 . S
C458 N455 1.361 . S
C458 C457 1.413 . S
C459 H448 0.931 . S
C459 C457 1.416 . S
C459 C460 1.332 . S
C460 H439 0.929 . S
C460 C456 1.407 . S
C460 C459 1.332 . S
H461 C454 0.930 . S
H462 C485 0.930 . S
H463 C486 0.929 . S
O464 Tb420 2.465 . S
O464 C484 1.264 . S
O465 Tb420 2.387 . S
O465 C476 1.264 . S
O466 Tb431 2.349 . S
O466 C476 1.243 . S
O467 Tb420 2.428 . S
O467 C484 1.256 . S
O468 Tb420 2.308 . S
O468 C483 1.266 . S
O469 Tb431 2.393 . S
O469 C483 1.248 . S
O470 Tb431 2.465 . S
O470 C495 1.264 . S
O471 Tb431 2.387 . S
O471 C487 1.264 . S
O472 Tb420 2.349 . S
O472 C487 1.243 . S
O473 Tb431 2.428 . S
O473 C495 1.256 . S
O474 Tb431 2.308 . S
O474 C494 1.266 . S
O475 Tb420 2.393 . S
O475 C494 1.248 . S
C476 O465 1.264 . S
C476 O466 1.243 . S
C477 C480 1.399 . S
C477 C482 1.383 . S
C477 C484 1.496 . S
C478 C479 1.399 . S
C478 C482 1.389 . S
C479 C478 1.399 . S
C479 C481 1.380 . S
C479 H496 0.929 . S
C480 C477 1.399 . S
C480 C481 1.392 . S
C480 H497 0.929 . S
C481 C479 1.380 . S
C481 C480 1.392 . S
C481 H498 0.929 . S
C482 C477 1.383 . S
C482 C478 1.389 . S
C482 H499 0.931 . S
C483 O468 1.266 . S
C483 O469 1.248 . S
C484 Tb420 2.802 . S
C484 O464 1.264 . S
C484 O467 1.256 . S
C484 C477 1.496 . S
C485 C452 1.448 . S
C485 H462 0.930 . S
C485 C486 1.328 . S
C486 C457 1.427 . S
C486 H463 0.929 . S
C486 C485 1.328 . S
C487 O471 1.264 . S
C487 O472 1.243 . S
C488 C491 1.399 . S
C488 C492 1.383 . S
C488 C495 1.496 . S
C489 C490 1.399 . S
C489 C492 1.389 . S
C490 C489 1.399 . S
C490 C493 1.380 . S
C490 H500 0.929 . S
C491 C488 1.399 . S
C491 C493 1.392 . S
C491 H501 0.929 . S
C492 C488 1.383 . S
C492 C489 1.389 . S
C492 H502 0.931 . S
C493 C490 1.380 . S
C493 C491 1.392 . S
C493 H503 0.929 . S
C494 O474 1.266 . S
C494 O475 1.248 . S
C495 Tb431 2.802 . S
C495 O470 1.264 . S
C495 O473 1.256 . S
C495 C488 1.496 . S
H496 C479 0.929 . S
H497 C480 0.929 . S
H498 C481 0.929 . S
H499 C482 0.931 . S
H500 C490 0.929 . S
H501 C491 0.929 . S
H502 C492 0.931 . S
H503 C493 0.929 . S
Tb504 N533 2.617 . S
Tb504 N539 2.572 . S
Tb504 O548 2.465 . S
Tb504 O549 2.387 . S
Tb504 O551 2.428 . S
Tb504 O552 2.308 . S
Tb504 O556 2.349 . S
Tb504 O559 2.393 . S
Tb504 C568 2.802 . S
C505 N506 1.379 . S
C505 C508 1.416 . S
C505 C512 1.424 . S
N506 C505 1.379 . S
N506 C509 1.334 . S
N506 Tb515 2.617 . S
C507 C509 1.390 . S
C507 C510 1.339 . S
C507 H527 0.930 . S
C508 C505 1.416 . S
C508 C510 1.416 . S
C508 C514 1.448 . S
C509 N506 1.334 . S
C509 C507 1.390 . S
C509 H520 0.930 . S
C510 C507 1.339 . S
C510 C508 1.416 . S
C510 H531 0.930 . S
C511 C512 1.413 . S
C511 C513 1.427 . S
C511 C517 1.416 . S
C512 C505 1.424 . S
C512 C511 1.413 . S
C512 N516 1.361 . S
C513 C511 1.427 . S
C513 C514 1.328 . S
C513 H528 0.929 . S
C514 C508 1.448 . S
C514 C513 1.328 . S
C514 H529 0.930 . S
Tb515 N506 2.617 . S
Tb515 N516 2.572 . S
Tb515 O550 2.349 . S
Tb515 O553 2.393 . S
Tb515 O554 2.465 . S
Tb515 O555 2.387 . S
Tb515 O557 2.428 . S
Tb515 O558 2.308 . S
Tb515 C579 2.802 . S
N516 C512 1.361 . S
N516 Tb515 2.572 . S
N516 C518 1.340 . S
C517 C511 1.416 . S
C517 C519 1.332 . S
C517 H525 0.931 . S
C518 N516 1.340 . S
C518 C519 1.407 . S
C518 H524 0.930 . S
C519 C517 1.332 . S
C519 C518 1.407 . S
C519 H521 0.929 . S
H520 C509 0.930 . S
H521 C519 0.929 . S
H522 C537 0.930 . S
H523 C544 0.929 . S
H524 C518 0.930 . S
H525 C517 0.931 . S
H526 C540 0.930 . S
H527 C507 0.930 . S
H528 C513 0.929 . S
H529 C514 0.930 . S
H530 C535 0.930 . S
H531 C510 0.930 . S
H532 C543 0.931 . S
N533 Tb504 2.617 . S
N533 C534 1.379 . S
N533 C537 1.334 . S
C534 N533 1.379 . S
C534 C536 1.416 . S
C534 C542 1.424 . S
C535 H530 0.930 . S
C535 C537 1.390 . S
C535 C538 1.339 . S
C536 C534 1.416 . S
C536 C538 1.416 . S
C536 C569 1.448 . S
C537 H522 0.930 . S
C537 N533 1.334 . S
C537 C535 1.390 . S
C538 C535 1.339 . S
C538 C536 1.416 . S
C538 H545 0.930 . S
N539 Tb504 2.572 . S
N539 C540 1.340 . S
N539 C542 1.361 . S
C540 H526 0.930 . S
C540 N539 1.340 . S
C540 C544 1.407 . S
C541 C542 1.413 . S
C541 C543 1.416 . S
C541 C570 1.427 . S
C542 C534 1.424 . S
C542 N539 1.361 . S
C542 C541 1.413 . S
C543 H532 0.931 . S
C543 C541 1.416 . S
C543 C544 1.332 . S
C544 H523 0.929 . S
C544 C540 1.407 . S
C544 C543 1.332 . S
H545 C538 0.930 . S
H546 C569 0.930 . S
H547 C570 0.929 . S
O548 Tb504 2.465 . S
O548 C568 1.264 . S
O549 Tb504 2.387 . S
O549 C560 1.264 . S
O550 Tb515 2.349 . S
O550 C560 1.243 . S
O551 Tb504 2.428 . S
O551 C568 1.256 . S
O552 Tb504 2.308 . S
O552 C567 1.266 . S
O553 Tb515 2.393 . S
O553 C567 1.248 . S
O554 Tb515 2.465 . S
O554 C579 1.264 . S
O555 Tb515 2.387 . S
O555 C571 1.264 . S
O556 Tb504 2.349 . S
O556 C571 1.243 . S
O557 Tb515 2.428 . S
O557 C579 1.256 . S
O558 Tb515 2.308 . S
O558 C578 1.266 . S
O559 Tb504 2.393 . S
O559 C578 1.248 . S
C560 O549 1.264 . S
C560 O550 1.243 . S
C561 C564 1.399 . S
C561 C566 1.383 . S
C561 C568 1.496 . S
C562 C563 1.399 . S
C562 C566 1.389 . S
C563 C562 1.399 . S
C563 C565 1.380 . S
C563 H580 0.929 . S
C564 C561 1.399 . S
C564 C565 1.392 . S
C564 H581 0.929 . S
C565 C563 1.380 . S
C565 C564 1.392 . S
C565 H582 0.929 . S
C566 C561 1.383 . S
C566 C562 1.389 . S
C566 H583 0.931 . S
C567 O552 1.266 . S
C567 O553 1.248 . S
C568 Tb504 2.802 . S
C568 O548 1.264 . S
C568 O551 1.256 . S
C568 C561 1.496 . S
C569 C536 1.448 . S
C569 H546 0.930 . S
C569 C570 1.328 . S
C570 C541 1.427 . S
C570 H547 0.929 . S
C570 C569 1.328 . S
C571 O555 1.264 . S
C571 O556 1.243 . S
C572 C575 1.399 . S
C572 C576 1.383 . S
C572 C579 1.496 . S
C573 C574 1.399 . S
C573 C576 1.389 . S
C574 C573 1.399 . S
C574 C577 1.380 . S
C574 H584 0.929 . S
C575 C572 1.399 . S
C575 C577 1.392 . S
C575 H585 0.929 . S
C576 C572 1.383 . S
C576 C573 1.389 . S
C576 H586 0.931 . S
C577 C574 1.380 . S
C577 C575 1.392 . S
C577 H587 0.929 . S
C578 O558 1.266 . S
C578 O559 1.248 . S
C579 Tb515 2.802 . S
C579 O554 1.264 . S
C579 O557 1.256 . S
C579 C572 1.496 . S
H580 C563 0.929 . S
H581 C564 0.929 . S
H582 C565 0.929 . S
H583 C566 0.931 . S
H584 C574 0.929 . S
H585 C575 0.929 . S
H586 C576 0.931 . S
H587 C577 0.929 . S
Tb588 N617 2.617 . S
Tb588 N623 2.572 . S
Tb588 O632 2.465 . S
Tb588 O633 2.387 . S
Tb588 O635 2.428 . S
Tb588 O636 2.308 . S
Tb588 O640 2.349 . S
Tb588 O643 2.393 . S
Tb588 C652 2.802 . S
C589 N590 1.379 . S
C589 C592 1.416 . S
C589 C596 1.424 . S
N590 C589 1.379 . S
N590 C593 1.334 . S
N590 Tb599 2.617 . S
C591 C593 1.390 . S
C591 C594 1.339 . S
C591 H611 0.930 . S
C592 C589 1.416 . S
C592 C594 1.416 . S
C592 C598 1.448 . S
C593 N590 1.334 . S
C593 C591 1.390 . S
C593 H604 0.930 . S
C594 C591 1.339 . S
C594 C592 1.416 . S
C594 H615 0.930 . S
C595 C596 1.413 . S
C595 C597 1.427 . S
C595 C601 1.416 . S
C596 C589 1.424 . S
C596 C595 1.413 . S
C596 N600 1.361 . S
C597 C595 1.427 . S
C597 C598 1.328 . S
C597 H612 0.929 . S
C598 C592 1.448 . S
C598 C597 1.328 . S
C598 H613 0.930 . S
Tb599 N590 2.617 . S
Tb599 N600 2.572 . S
Tb599 O634 2.349 . S
Tb599 O637 2.393 . S
Tb599 O638 2.465 . S
Tb599 O639 2.387 . S
Tb599 O641 2.428 . S
Tb599 O642 2.308 . S
Tb599 C663 2.802 . S
N600 C596 1.361 . S
N600 Tb599 2.572 . S
N600 C602 1.340 . S
C601 C595 1.416 . S
C601 C603 1.332 . S
C601 H609 0.931 . S
C602 N600 1.340 . S
C602 C603 1.407 . S
C602 H608 0.930 . S
C603 C601 1.332 . S
C603 C602 1.407 . S
C603 H605 0.929 . S
H604 C593 0.930 . S
H605 C603 0.929 . S
H606 C621 0.930 . S
H607 C628 0.929 . S
H608 C602 0.930 . S
H609 C601 0.931 . S
H610 C624 0.930 . S
H611 C591 0.930 . S
H612 C597 0.929 . S
H613 C598 0.930 . S
H614 C619 0.930 . S
H615 C594 0.930 . S
H616 C627 0.931 . S
N617 Tb588 2.617 . S
N617 C618 1.379 . S
N617 C621 1.334 . S
C618 N617 1.379 . S
C618 C620 1.416 . S
C618 C626 1.424 . S
C619 H614 0.930 . S
C619 C621 1.390 . S
C619 C622 1.339 . S
C620 C618 1.416 . S
C620 C622 1.416 . S
C620 C653 1.448 . S
C621 H606 0.930 . S
C621 N617 1.334 . S
C621 C619 1.390 . S
C622 C619 1.339 . S
C622 C620 1.416 . S
C622 H629 0.930 . S
N623 Tb588 2.572 . S
N623 C624 1.340 . S
N623 C626 1.361 . S
C624 H610 0.930 . S
C624 N623 1.340 . S
C624 C628 1.407 . S
C625 C626 1.413 . S
C625 C627 1.416 . S
C625 C654 1.427 . S
C626 C618 1.424 . S
C626 N623 1.361 . S
C626 C625 1.413 . S
C627 H616 0.931 . S
C627 C625 1.416 . S
C627 C628 1.332 . S
C628 H607 0.929 . S
C628 C624 1.407 . S
C628 C627 1.332 . S
H629 C622 0.930 . S
H630 C653 0.930 . S
H631 C654 0.929 . S
O632 Tb588 2.465 . S
O632 C652 1.264 . S
O633 Tb588 2.387 . S
O633 C644 1.264 . S
O634 Tb599 2.349 . S
O634 C644 1.243 . S
O635 Tb588 2.428 . S
O635 C652 1.256 . S
O636 Tb588 2.308 . S
O636 C651 1.266 . S
O637 Tb599 2.393 . S
O637 C651 1.248 . S
O638 Tb599 2.465 . S
O638 C663 1.264 . S
O639 Tb599 2.387 . S
O639 C655 1.264 . S
O640 Tb588 2.349 . S
O640 C655 1.243 . S
O641 Tb599 2.428 . S
O641 C663 1.256 . S
O642 Tb599 2.308 . S
O642 C662 1.266 . S
O643 Tb588 2.393 . S
O643 C662 1.248 . S
C644 O633 1.264 . S
C644 O634 1.243 . S
C645 C648 1.399 . S
C645 C650 1.383 . S
C645 C652 1.496 . S
C646 C647 1.399 . S
C646 C650 1.389 . S
C647 C646 1.399 . S
C647 C649 1.380 . S
C647 H664 0.929 . S
C648 C645 1.399 . S
C648 C649 1.392 . S
C648 H665 0.929 . S
C649 C647 1.380 . S
C649 C648 1.392 . S
C649 H666 0.929 . S
C650 C645 1.383 . S
C650 C646 1.389 . S
C650 H667 0.931 . S
C651 O636 1.266 . S
C651 O637 1.248 . S
C652 Tb588 2.802 . S
C652 O632 1.264 . S
C652 O635 1.256 . S
C652 C645 1.496 . S
C653 C620 1.448 . S
C653 H630 0.930 . S
C653 C654 1.328 . S
C654 C625 1.427 . S
C654 H631 0.929 . S
C654 C653 1.328 . S
C655 O639 1.264 . S
C655 O640 1.243 . S
C656 C659 1.399 . S
C656 C660 1.383 . S
C656 C663 1.496 . S
C657 C658 1.399 . S
C657 C660 1.389 . S
C658 C657 1.399 . S
C658 C661 1.380 . S
C658 H668 0.929 . S
C659 C656 1.399 . S
C659 C661 1.392 . S
C659 H669 0.929 . S
C660 C656 1.383 . S
C660 C657 1.389 . S
C660 H670 0.931 . S
C661 C658 1.380 . S
C661 C659 1.392 . S
C661 H671 0.929 . S
C662 O642 1.266 . S
C662 O643 1.248 . S
C663 Tb599 2.802 . S
C663 O638 1.264 . S
C663 O641 1.256 . S
C663 C656 1.496 . S
H664 C647 0.929 . S
H665 C648 0.929 . S
H666 C649 0.929 . S
H667 C650 0.931 . S
H668 C658 0.929 . S
H669 C659 0.929 . S
H670 C660 0.931 . S
H671 C661 0.929 . S
C672 O684 1.241 . S
C672 O685 1.280 . S
C673 O686 1.277 . S
C673 O687 1.245 . S
C674 O698 1.247 . S
C674 O700 1.289 . S
Mg675 O676 1.926 . S
Mg675 O685 1.984 . S
Mg675 O687 1.988 . S
Mg675 O688 2.061 1_655 S
O676 Mg675 1.926 . S
O676 Mg677 1.986 1_545 S
O676 Mg678 1.914 1_655 S
Mg677 O676 1.986 1_565 S
Mg677 O684 2.042 1_565 S
Mg677 O686 2.041 1_565 S
Mg677 O692 2.038 . S
Mg677 O700 2.238 . S
Mg678 O676 1.914 1_455 S
Mg678 O679 1.919 1_545 S
Mg678 O689 2.109 . S
Mg678 O691 2.078 1_445 S
Mg678 O700 2.104 1_445 S
Mg678 O701 2.079 . S
O679 Mg678 1.919 1_565 S
O679 Mg680 1.926 . S
O679 Mg681 1.986 1_565 S
Mg680 O679 1.926 . S
Mg680 O694 1.984 . S
Mg680 O697 1.988 . S
Mg680 O698 2.061 1_455 S
Mg681 O679 1.986 1_545 S
Mg681 O689 2.238 . S
Mg681 O693 2.042 1_545 S
Mg681 O695 2.041 1_545 S
Mg681 O702 2.038 . S
C682 O688 1.247 . S
C682 O689 1.289 . S
C683 O701 1.245 . S
C683 O702 1.274 . S
O684 C672 1.241 . S
O684 Mg677 2.042 1_545 S
O685 C672 1.280 . S
O685 Mg675 1.984 . S
O686 C673 1.277 . S
O686 Mg677 2.041 1_545 S
O687 C673 1.245 . S
O687 Mg675 1.988 . S
O688 Mg675 2.061 1_455 S
O688 C682 1.247 . S
O689 Mg678 2.109 . S
O689 Mg681 2.238 . S
O689 C682 1.289 . S
C690 O691 1.245 . S
C690 O692 1.274 . S
O691 Mg678 2.078 1_665 S
O691 C690 1.245 . S
O692 Mg677 2.038 . S
O692 C690 1.274 . S
O693 Mg681 2.042 1_565 S
O693 C696 1.241 . S
O694 Mg680 1.984 . S
O694 C696 1.280 . S
O695 Mg681 2.041 1_565 S
O695 C699 1.277 . S
C696 O693 1.241 . S
C696 O694 1.280 . S
O697 Mg680 1.988 . S
O697 C699 1.245 . S
O698 C674 1.247 . S
O698 Mg680 2.061 1_655 S
C699 O695 1.277 . S
C699 O697 1.245 . S
O700 C674 1.289 . S
O700 Mg677 2.238 . S
O700 Mg678 2.104 1_665 S
O701 Mg678 2.079 . S
O701 C683 1.245 . S
O702 Mg681 2.038 . S
O702 C683 1.274 . S
C703 O715 1.241 . S
C703 O716 1.280 . S
C704 O717 1.277 . S
C704 O718 1.245 . S
C705 O729 1.247 . S
C705 O731 1.289 . S
Mg706 O707 1.926 . S
Mg706 O716 1.984 . S
Mg706 O718 1.988 1_554 S
Mg706 O719 2.061 . S
O707 Mg706 1.926 . S
O707 Mg708 1.986 1_545 S
O707 Mg709 1.918 . S
Mg708 O707 1.986 1_565 S
Mg708 O715 2.042 1_565 S
Mg708 O717 2.041 1_564 S
Mg708 O723 2.038 . S
Mg708 O731 2.238 1_554 S
Mg709 O707 1.918 . S
Mg709 O710 1.916 1_544 S
Mg709 O720 2.108 . S
Mg709 O722 2.082 1_545 S
Mg709 O731 2.104 1_544 S
Mg709 O732 2.076 1_554 S
O710 Mg709 1.916 1_566 S
O710 Mg711 1.926 . S
O710 Mg712 1.986 1_565 S
Mg711 O710 1.926 . S
Mg711 O725 1.984 . S
Mg711 O728 1.988 1_556 S
Mg711 O729 2.061 . S
Mg712 O710 1.986 1_545 S
Mg712 O720 2.238 1_556 S
Mg712 O724 2.042 1_545 S
Mg712 O726 2.041 1_546 S
Mg712 O733 2.038 . S
C713 O719 1.247 . S
C713 O720 1.289 . S
C714 O732 1.245 . S
C714 O733 1.274 . S
O715 C703 1.241 . S
O715 Mg708 2.042 1_545 S
O716 C703 1.280 . S
O716 Mg706 1.984 . S
O717 C704 1.277 . S
O717 Mg708 2.041 1_546 S
O718 C704 1.245 . S
O718 Mg706 1.988 1_556 S
O719 Mg706 2.061 . S
O719 C713 1.247 . S
O720 Mg709 2.108 . S
O720 Mg712 2.238 1_554 S
O720 C713 1.289 . S
C721 O722 1.245 . S
C721 O723 1.274 . S
O722 Mg709 2.082 1_565 S
O722 C721 1.245 . S
O723 Mg708 2.038 . S
O723 C721 1.274 . S
O724 Mg712 2.042 1_565 S
O724 C727 1.241 . S
O725 Mg711 1.984 . S
O725 C727 1.280 . S
O726 Mg712 2.041 1_564 S
O726 C730 1.277 . S
C727 O724 1.241 . S
C727 O725 1.280 . S
O728 Mg711 1.988 1_554 S
O728 C730 1.245 . S
O729 C705 1.247 . S
O729 Mg711 2.061 . S
C730 O726 1.277 . S
C730 O728 1.245 . S
O731 C705 1.289 . S
O731 Mg708 2.238 1_556 S
O731 Mg709 2.104 1_566 S
O732 Mg709 2.076 1_556 S
O732 C714 1.245 . S
O733 Mg712 2.038 . S
O733 C714 1.274 . S
C734 O746 1.241 . S
C734 O747 1.280 . S
C735 O748 1.277 . S
C735 O749 1.245 . S
C736 O760 1.247 . S
C736 O762 1.289 . S
Mg737 O738 1.926 . S
Mg737 O747 1.984 . S
Mg737 O749 1.988 1_554 S
Mg737 O750 2.061 1_655 S
O738 Mg737 1.926 . S
O738 Mg739 1.986 . S
O738 Mg740 1.915 1_655 S
Mg739 O738 1.986 . S
Mg739 O746 2.042 . S
Mg739 O748 2.041 1_554 S
Mg739 O754 2.038 . S
Mg739 O762 2.238 1_554 S
Mg740 O738 1.915 1_455 S
Mg740 O741 1.919 1_554 S
Mg740 O751 2.111 . S
Mg740 O753 2.081 1_455 S
Mg740 O762 2.102 1_454 S
Mg740 O763 2.076 1_554 S
O741 Mg740 1.919 1_556 S
O741 Mg742 1.926 . S
O741 Mg743 1.986 . S
Mg742 O741 1.926 . S
Mg742 O756 1.984 . S
Mg742 O759 1.988 1_556 S
Mg742 O760 2.061 1_455 S
Mg743 O741 1.986 . S
Mg743 O751 2.238 1_556 S
Mg743 O755 2.042 . S
Mg743 O757 2.041 1_556 S
Mg743 O764 2.038 . S
C744 O750 1.247 . S
C744 O751 1.289 . S
C745 O763 1.245 . S
C745 O764 1.274 . S
O746 C734 1.241 . S
O746 Mg739 2.042 . S
O747 C734 1.280 . S
O747 Mg737 1.984 . S
O748 C735 1.277 . S
O748 Mg739 2.041 1_556 S
O749 C735 1.245 . S
O749 Mg737 1.988 1_556 S
O750 Mg737 2.061 1_455 S
O750 C744 1.247 . S
O751 Mg740 2.111 . S
O751 Mg743 2.238 1_554 S
O751 C744 1.289 . S
C752 O753 1.245 . S
C752 O754 1.274 . S
O753 Mg740 2.081 1_655 S
O753 C752 1.245 . S
O754 Mg739 2.038 . S
O754 C752 1.274 . S
O755 Mg743 2.042 . S
O755 C758 1.241 . S
O756 Mg742 1.984 . S
O756 C758 1.280 . S
O757 Mg743 2.041 1_554 S
O757 C761 1.277 . S
C758 O755 1.241 . S
C758 O756 1.280 . S
O759 Mg742 1.988 1_554 S
O759 C761 1.245 . S
O760 C736 1.247 . S
O760 Mg742 2.061 1_655 S
C761 O757 1.277 . S
C761 O759 1.245 . S
O762 C736 1.289 . S
O762 Mg739 2.238 1_556 S
O762 Mg740 2.102 1_656 S
O763 Mg740 2.076 1_556 S
O763 C745 1.245 . S
O764 Mg743 2.038 . S
O764 C745 1.274 . S
C765 O777 1.241 . S
C765 O778 1.280 . S
C766 O779 1.277 . S
C766 O780 1.245 . S
C767 O791 1.247 . S
C767 O793 1.289 . S
Mg768 O769 1.926 . S
Mg768 O778 1.984 . S
Mg768 O780 1.988 1_554 S
Mg768 O781 2.061 . S
O769 Mg768 1.926 . S
O769 Mg770 1.986 . S
O769 Mg771 1.918 . S
Mg770 O769 1.986 . S
Mg770 O777 2.042 . S
Mg770 O779 2.041 1_554 S
Mg770 O785 2.038 . S
Mg770 O793 2.238 1_554 S
Mg771 O769 1.918 . S
Mg771 O772 1.916 1_554 S
Mg771 O782 2.108 . S
Mg771 O784 2.082 . S
Mg771 O793 2.104 1_554 S
Mg771 O794 2.076 1_554 S
O772 Mg771 1.916 1_556 S
O772 Mg773 1.926 . S
O772 Mg774 1.986 . S
Mg773 O772 1.926 . S
Mg773 O787 1.984 . S
Mg773 O790 1.988 1_556 S
Mg773 O791 2.061 . S
Mg774 O772 1.986 . S
Mg774 O782 2.238 1_556 S
Mg774 O786 2.042 . S
Mg774 O788 2.041 1_556 S
Mg774 O795 2.038 . S
C775 O781 1.247 . S
C775 O782 1.289 . S
C776 O794 1.245 . S
C776 O795 1.274 . S
O777 C765 1.241 . S
O777 Mg770 2.042 . S
O778 C765 1.280 . S
O778 Mg768 1.984 . S
O779 C766 1.277 . S
O779 Mg770 2.041 1_556 S
O780 C766 1.245 . S
O780 Mg768 1.988 1_556 S
O781 Mg768 2.061 . S
O781 C775 1.247 . S
O782 Mg771 2.108 . S
O782 Mg774 2.238 1_554 S
O782 C775 1.289 . S
C783 O784 1.245 . S
C783 O785 1.274 . S
O784 Mg771 2.082 . S
O784 C783 1.245 . S
O785 Mg770 2.038 . S
O785 C783 1.274 . S
O786 Mg774 2.042 . S
O786 C789 1.241 . S
O787 Mg773 1.984 . S
O787 C789 1.280 . S
O788 Mg774 2.041 1_554 S
O788 C792 1.277 . S
C789 O786 1.241 . S
C789 O787 1.280 . S
O790 Mg773 1.988 1_554 S
O790 C792 1.245 . S
O791 C767 1.247 . S
O791 Mg773 2.061 . S
C792 O788 1.277 . S
C792 O790 1.245 . S
O793 C767 1.289 . S
O793 Mg770 2.238 1_556 S
O793 Mg771 2.104 1_556 S
O794 Mg771 2.076 1_556 S
O794 C776 1.245 . S
O795 Mg774 2.038 . S
O795 C776 1.274 . S
C796 O808 1.241 . S
C796 O809 1.280 . S
C797 O810 1.277 . S
C797 O811 1.245 . S
C798 O822 1.247 . S
C798 O824 1.289 . S
Mg799 O800 1.926 . S
Mg799 O809 1.984 . S
Mg799 O811 1.988 . S
Mg799 O812 2.061 1_655 S
O800 Mg799 1.926 . S
O800 Mg801 1.986 . S
O800 Mg802 1.914 1_655 S
Mg801 O800 1.986 . S
Mg801 O808 2.042 . S
Mg801 O810 2.041 . S
Mg801 O816 2.038 . S
Mg801 O824 2.238 . S
Mg802 O800 1.914 1_455 S
Mg802 O803 1.920 . S
Mg802 O813 2.109 . S
Mg802 O815 2.078 1_455 S
Mg802 O824 2.104 1_455 S
Mg802 O825 2.079 . S
O803 Mg802 1.920 . S
O803 Mg804 1.926 . S
O803 Mg805 1.986 . S
Mg804 O803 1.926 . S
Mg804 O818 1.984 . S
Mg804 O821 1.988 . S
Mg804 O822 2.061 1_455 S
Mg805 O803 1.986 . S
Mg805 O813 2.238 . S
Mg805 O817 2.042 . S
Mg805 O819 2.041 . S
Mg805 O826 2.038 . S
C806 O812 1.247 . S
C806 O813 1.289 . S
C807 O825 1.245 . S
C807 O826 1.274 . S
O808 C796 1.241 . S
O808 Mg801 2.042 . S
O809 C796 1.280 . S
O809 Mg799 1.984 . S
O810 C797 1.277 . S
O810 Mg801 2.041 . S
O811 C797 1.245 . S
O811 Mg799 1.988 . S
O812 Mg799 2.061 1_455 S
O812 C806 1.247 . S
O813 Mg802 2.109 . S
O813 Mg805 2.238 . S
O813 C806 1.289 . S
C814 O815 1.245 . S
C814 O816 1.274 . S
O815 Mg802 2.078 1_655 S
O815 C814 1.245 . S
O816 Mg801 2.038 . S
O816 C814 1.274 . S
O817 Mg805 2.042 . S
O817 C820 1.241 . S
O818 Mg804 1.984 . S
O818 C820 1.280 . S
O819 Mg805 2.041 . S
O819 C823 1.277 . S
C820 O817 1.241 . S
C820 O818 1.280 . S
O821 Mg804 1.988 . S
O821 C823 1.245 . S
O822 C798 1.247 . S
O822 Mg804 2.061 1_655 S
C823 O819 1.277 . S
C823 O821 1.245 . S
O824 C798 1.289 . S
O824 Mg801 2.238 . S
O824 Mg802 2.104 1_655 S
O825 Mg802 2.079 . S
O825 C807 1.245 . S
O826 Mg805 2.038 . S
O826 C807 1.274 . S
C827 O839 1.241 . S
C827 O840 1.280 . S
C828 O841 1.277 . S
C828 O842 1.245 . S
C829 O853 1.247 . S
C829 O855 1.289 . S
Mg830 O831 1.926 . S
Mg830 O840 1.984 . S
Mg830 O842 1.988 . S
Mg830 O843 2.061 . S
O831 Mg830 1.926 . S
O831 Mg832 1.986 1_545 S
O831 Mg833 1.917 . S
Mg832 O831 1.986 1_565 S
Mg832 O839 2.042 1_565 S
Mg832 O841 2.041 1_565 S
Mg832 O847 2.038 . S
Mg832 O855 2.238 . S
Mg833 O831 1.917 . S
Mg833 O834 1.917 1_545 S
Mg833 O844 2.106 . S
Mg833 O846 2.079 1_545 S
Mg833 O855 2.106 1_545 S
Mg833 O856 2.079 . S
O834 Mg833 1.917 1_565 S
O834 Mg835 1.926 . S
O834 Mg836 1.986 1_565 S
Mg835 O834 1.926 . S
Mg835 O849 1.984 . S
Mg835 O852 1.988 . S
Mg835 O853 2.061 . S
Mg836 O834 1.986 1_545 S
Mg836 O844 2.238 . S
Mg836 O848 2.042 1_545 S
Mg836 O850 2.041 1_545 S
Mg836 O857 2.038 . S
C837 O843 1.247 . S
C837 O844 1.289 . S
C838 O856 1.245 . S
C838 O857 1.274 . S
O839 C827 1.241 . S
O839 Mg832 2.042 1_545 S
O840 C827 1.280 . S
O840 Mg830 1.984 . S
O841 C828 1.277 . S
O841 Mg832 2.041 1_545 S
O842 C828 1.245 . S
O842 Mg830 1.988 . S
O843 Mg830 2.061 . S
O843 C837 1.247 . S
O844 Mg833 2.106 . S
O844 Mg836 2.238 . S
O844 C837 1.289 . S
C845 O846 1.245 . S
C845 O847 1.274 . S
O846 Mg833 2.079 1_565 S
O846 C845 1.245 . S
O847 Mg832 2.038 . S
O847 C845 1.274 . S
O848 Mg836 2.042 1_565 S
O848 C851 1.241 . S
O849 Mg835 1.984 . S
O849 C851 1.280 . S
O850 Mg836 2.041 1_565 S
O850 C854 1.277 . S
C851 O848 1.241 . S
C851 O849 1.280 . S
O852 Mg835 1.988 . S
O852 C854 1.245 . S
O853 C829 1.247 . S
O853 Mg835 2.061 . S
C854 O850 1.277 . S
C854 O852 1.245 . S
O855 C829 1.289 . S
O855 Mg832 2.238 . S
O855 Mg833 2.106 1_565 S
O856 Mg833 2.079 . S
O856 C838 1.245 . S
O857 Mg836 2.038 . S
O857 C838 1.274 . S
C858 C859 1.391 . S
C858 C860 1.394 . S
C858 H874 0.931 . S
C859 C858 1.391 . S
C859 C863 1.376 . S
C860 C858 1.394 . S
C860 C861 1.369 . S
C860 C864 1.531 . S
C861 C860 1.369 . S
C861 C862 1.410 . S
C861 C869 1.503 . S
C862 C861 1.410 . S
C862 C863 1.392 . S
C862 C865 1.511 . S
C863 C859 1.376 . S
C863 C862 1.392 . S
C863 H875 0.929 . S
C864 C860 1.531 . S
C864 H876 0.960 . S
C864 H877 0.962 . S
C864 H878 0.960 . S
C865 C862 1.511 . S
C865 H879 0.961 . S
C865 H880 0.961 . S
C865 H881 0.961 . S
C866 C867 1.370 . S
C866 C868 1.363 . S
C866 H882 0.931 . S
C867 C866 1.370 . S
C867 C871 1.408 . S
C868 C866 1.363 . S
C868 C869 1.370 . S
C868 C872 1.524 . S
C869 C861 1.503 . S
C869 C868 1.370 . S
C869 C870 1.403 . S
C870 C869 1.403 . S
C870 C871 1.404 . S
C870 C873 1.539 . S
C871 C867 1.408 . S
C871 C870 1.404 . S
C871 H883 0.930 . S
C872 C868 1.524 . S
C872 H884 0.956 . S
C872 H885 0.961 . S
C872 H886 0.961 . S
C873 C870 1.539 . S
C873 H887 0.958 . S
C873 H888 0.961 . S
C873 H889 0.960 . S
H874 C858 0.931 . S
H875 C863 0.929 . S
H876 C864 0.960 . S
H877 C864 0.962 . S
H878 C864 0.960 . S
H879 C865 0.961 . S
H880 C865 0.961 . S
H881 C865 0.961 . S
H882 C866 0.931 . S
H883 C871 0.930 . S
H884 C872 0.956 . S
H885 C872 0.961 . S
H886 C872 0.961 . S
H887 C873 0.958 . S
H888 C873 0.961 . S
H889 C873 0.960 . S
C890 C891 1.391 . S
C890 C892 1.394 . S
C890 H906 0.931 . S
C891 C890 1.391 . S
C891 C895 1.376 . S
C892 C890 1.394 . S
C892 C893 1.369 . S
C892 C896 1.531 . S
C893 C892 1.369 . S
C893 C894 1.410 . S
C893 C901 1.503 . S
C894 C893 1.410 . S
C894 C895 1.392 . S
C894 C897 1.511 . S
C895 C891 1.376 . S
C895 C894 1.392 . S
C895 H907 0.929 . S
C896 C892 1.531 . S
C896 H908 0.960 . S
C896 H909 0.962 . S
C896 H910 0.960 . S
C897 C894 1.511 . S
C897 H911 0.961 . S
C897 H912 0.961 . S
C897 H913 0.961 . S
C898 C899 1.370 . S
C898 C900 1.363 . S
C898 H914 0.931 . S
C899 C898 1.370 . S
C899 C903 1.408 . S
C900 C898 1.363 . S
C900 C901 1.370 . S
C900 C904 1.524 . S
C901 C893 1.503 . S
C901 C900 1.370 . S
C901 C902 1.403 . S
C902 C901 1.403 . S
C902 C903 1.404 . S
C902 C905 1.539 . S
C903 C899 1.408 . S
C903 C902 1.404 . S
C903 H915 0.930 . S
C904 C900 1.524 . S
C904 H916 0.956 . S
C904 H917 0.961 . S
C904 H918 0.961 . S
C905 C902 1.539 . S
C905 H919 0.958 . S
C905 H920 0.961 . S
C905 H921 0.960 . S
H906 C890 0.931 . S
H907 C895 0.929 . S
H908 C896 0.960 . S
H909 C896 0.962 . S
H910 C896 0.960 . S
H911 C897 0.961 . S
H912 C897 0.961 . S
H913 C897 0.961 . S
H914 C898 0.931 . S
H915 C903 0.930 . S
H916 C904 0.956 . S
H917 C904 0.961 . S
H918 C904 0.961 . S
H919 C905 0.958 . S
H920 C905 0.961 . S
H921 C905 0.960 . S
C922 C923 1.391 . S
C922 C924 1.394 . S
C922 H938 0.931 . S
C923 C922 1.391 . S
C923 C927 1.376 . S
C924 C922 1.394 . S
C924 C925 1.369 . S
C924 C928 1.531 . S
C925 C924 1.369 . S
C925 C926 1.410 . S
C925 C933 1.503 . S
C926 C925 1.410 . S
C926 C927 1.392 . S
C926 C929 1.511 . S
C927 C923 1.376 . S
C927 C926 1.392 . S
C927 H939 0.929 . S
C928 C924 1.531 . S
C928 H940 0.960 . S
C928 H941 0.962 . S
C928 H942 0.960 . S
C929 C926 1.511 . S
C929 H943 0.961 . S
C929 H944 0.961 . S
C929 H945 0.961 . S
C930 C931 1.370 . S
C930 C932 1.363 . S
C930 H946 0.931 . S
C931 C930 1.370 . S
C931 C935 1.408 . S
C932 C930 1.363 . S
C932 C933 1.370 . S
C932 C936 1.524 . S
C933 C925 1.503 . S
C933 C932 1.370 . S
C933 C934 1.403 . S
C934 C933 1.403 . S
C934 C935 1.404 . S
C934 C937 1.539 . S
C935 C931 1.408 . S
C935 C934 1.404 . S
C935 H947 0.930 . S
C936 C932 1.524 . S
C936 H948 0.956 . S
C936 H949 0.961 . S
C936 H950 0.961 . S
C937 C934 1.539 . S
C937 H951 0.958 . S
C937 H952 0.961 . S
C937 H953 0.960 . S
H938 C922 0.931 . S
H939 C927 0.929 . S
H940 C928 0.960 . S
H941 C928 0.962 . S
H942 C928 0.960 . S
H943 C929 0.961 . S
H944 C929 0.961 . S
H945 C929 0.961 . S
H946 C930 0.931 . S
H947 C935 0.930 . S
H948 C936 0.956 . S
H949 C936 0.961 . S
H950 C936 0.961 . S
H951 C937 0.958 . S
H952 C937 0.961 . S
H953 C937 0.960 . S
C954 C955 1.391 . S
C954 C956 1.394 . S
C954 H970 0.931 . S
C955 C954 1.391 . S
C955 C959 1.376 . S
C956 C954 1.394 . S
C956 C957 1.369 . S
C956 C960 1.531 . S
C957 C956 1.369 . S
C957 C958 1.410 . S
C957 C965 1.503 . S
C958 C957 1.410 . S
C958 C959 1.392 . S
C958 C961 1.511 . S
C959 C955 1.376 . S
C959 C958 1.392 . S
C959 H971 0.929 . S
C960 C956 1.531 . S
C960 H972 0.960 . S
C960 H973 0.962 . S
C960 H974 0.960 . S
C961 C958 1.511 . S
C961 H975 0.961 . S
C961 H976 0.961 . S
C961 H977 0.961 . S
C962 C963 1.370 . S
C962 C964 1.363 . S
C962 H978 0.931 . S
C963 C962 1.370 . S
C963 C967 1.408 . S
C964 C962 1.363 . S
C964 C965 1.370 . S
C964 C968 1.524 . S
C965 C957 1.503 . S
C965 C964 1.370 . S
C965 C966 1.403 . S
C966 C965 1.403 . S
C966 C967 1.404 . S
C966 C969 1.539 . S
C967 C963 1.408 . S
C967 C966 1.404 . S
C967 H979 0.930 . S
C968 C964 1.524 . S
C968 H980 0.956 . S
C968 H981 0.961 . S
C968 H982 0.961 . S
C969 C966 1.539 . S
C969 H983 0.958 . S
C969 H984 0.961 . S
C969 H985 0.960 . S
H970 C954 0.931 . S
H971 C959 0.929 . S
H972 C960 0.960 . S
H973 C960 0.962 . S
H974 C960 0.960 . S
H975 C961 0.961 . S
H976 C961 0.961 . S
H977 C961 0.961 . S
H978 C962 0.931 . S
H979 C967 0.930 . S
H980 C968 0.956 . S
H981 C968 0.961 . S
H982 C968 0.961 . S
H983 C969 0.958 . S
H984 C969 0.961 . S
H985 C969 0.960 . S
C986 C987 1.391 . S
C986 C988 1.394 . S
C986 H1002 0.931 . S
C987 C986 1.391 . S
C987 C991 1.376 . S
C988 C986 1.394 . S
C988 C989 1.369 . S
C988 C992 1.531 . S
C989 C988 1.369 . S
C989 C990 1.410 . S
C989 C997 1.503 . S
C990 C989 1.410 . S
C990 C991 1.392 . S
C990 C993 1.511 . S
C991 C987 1.376 . S
C991 C990 1.392 . S
C991 H1003 0.929 . S
C992 C988 1.531 . S
C992 H1004 0.960 . S
C992 H1005 0.962 . S
C992 H1006 0.960 . S
C993 C990 1.511 . S
C993 H1007 0.961 . S
C993 H1008 0.961 . S
C993 H1009 0.961 . S
C994 C995 1.370 . S
C994 C996 1.363 . S
C994 H1010 0.931 . S
C995 C994 1.370 . S
C995 C999 1.408 . S
C996 C994 1.363 . S
C996 C997 1.370 . S
C996 C1000 1.524 . S
C997 C989 1.503 . S
C997 C996 1.370 . S
C997 C998 1.403 . S
C998 C997 1.403 . S
C998 C999 1.404 . S
C998 C1001 1.539 . S
C999 C995 1.408 . S
C999 C998 1.404 . S
C999 H1011 0.930 . S
C1000 C996 1.524 . S
C1000 H1012 0.956 . S
C1000 H1013 0.961 . S
C1000 H1014 0.961 . S
C1001 C998 1.539 . S
C1001 H1015 0.958 . S
C1001 H1016 0.961 . S
C1001 H1017 0.960 . S
H1002 C986 0.931 . S
H1003 C991 0.929 . S
H1004 C992 0.960 . S
H1005 C992 0.962 . S
H1006 C992 0.960 . S
H1007 C993 0.961 . S
H1008 C993 0.961 . S
H1009 C993 0.961 . S
H1010 C994 0.931 . S
H1011 C999 0.930 . S
H1012 C1000 0.956 . S
H1013 C1000 0.961 . S
H1014 C1000 0.961 . S
H1015 C1001 0.958 . S
H1016 C1001 0.961 . S
H1017 C1001 0.960 . S
C1018 C1019 1.391 . S
C1018 C1020 1.394 . S
C1018 H1034 0.931 . S
C1019 C1018 1.391 . S
C1019 C1023 1.376 . S
C1020 C1018 1.394 . S
C1020 C1021 1.369 . S
C1020 C1024 1.531 . S
C1021 C1020 1.369 . S
C1021 C1022 1.410 . S
C1021 C1029 1.503 . S
C1022 C1021 1.410 . S
C1022 C1023 1.392 . S
C1022 C1025 1.511 . S
C1023 C1019 1.376 . S
C1023 C1022 1.392 . S
C1023 H1035 0.929 . S
C1024 C1020 1.531 . S
C1024 H1036 0.960 . S
C1024 H1037 0.962 . S
C1024 H1038 0.960 . S
C1025 C1022 1.511 . S
C1025 H1039 0.961 . S
C1025 H1040 0.961 . S
C1025 H1041 0.961 . S
C1026 C1027 1.370 . S
C1026 C1028 1.363 . S
C1026 H1042 0.931 . S
C1027 C1026 1.370 . S
C1027 C1031 1.408 . S
C1028 C1026 1.363 . S
C1028 C1029 1.370 . S
C1028 C1032 1.524 . S
C1029 C1021 1.503 . S
C1029 C1028 1.370 . S
C1029 C1030 1.403 . S
C1030 C1029 1.403 . S
C1030 C1031 1.404 . S
C1030 C1033 1.539 . S
C1031 C1027 1.408 . S
C1031 C1030 1.404 . S
C1031 H1043 0.930 . S
C1032 C1028 1.524 . S
C1032 H1044 0.956 . S
C1032 H1045 0.961 . S
C1032 H1046 0.961 . S
C1033 C1030 1.539 . S
C1033 H1047 0.958 . S
C1033 H1048 0.961 . S
C1033 H1049 0.960 . S
H1034 C1018 0.931 . S
H1035 C1023 0.929 . S
H1036 C1024 0.960 . S
H1037 C1024 0.962 . S
H1038 C1024 0.960 . S
H1039 C1025 0.961 . S
H1040 C1025 0.961 . S
H1041 C1025 0.961 . S
H1042 C1026 0.931 . S
H1043 C1031 0.930 . S
H1044 C1032 0.956 . S
H1045 C1032 0.961 . S
H1046 C1032 0.961 . S
H1047 C1033 0.958 . S
H1048 C1033 0.961 . S
H1049 C1033 0.960 . S
C1050 C1051 1.391 . S
C1050 C1052 1.394 . S
C1050 H1066 0.931 . S
C1051 C1050 1.391 . S
C1051 C1055 1.376 . S
C1052 C1050 1.394 . S
C1052 C1053 1.369 . S
C1052 C1056 1.531 . S
C1053 C1052 1.369 . S
C1053 C1054 1.410 . S
C1053 C1061 1.503 . S
C1054 C1053 1.410 . S
C1054 C1055 1.392 . S
C1054 C1057 1.511 . S
C1055 C1051 1.376 . S
C1055 C1054 1.392 . S
C1055 H1067 0.929 . S
C1056 C1052 1.531 . S
C1056 H1068 0.960 . S
C1056 H1069 0.962 . S
C1056 H1070 0.960 . S
C1057 C1054 1.511 . S
C1057 H1071 0.961 . S
C1057 H1072 0.961 . S
C1057 H1073 0.961 . S
C1058 C1059 1.370 . S
C1058 C1060 1.363 . S
C1058 H1074 0.931 . S
C1059 C1058 1.370 . S
C1059 C1063 1.408 . S
C1060 C1058 1.363 . S
C1060 C1061 1.370 . S
C1060 C1064 1.524 . S
C1061 C1053 1.503 . S
C1061 C1060 1.370 . S
C1061 C1062 1.403 . S
C1062 C1061 1.403 . S
C1062 C1063 1.404 . S
C1062 C1065 1.539 . S
C1063 C1059 1.408 . S
C1063 C1062 1.404 . S
C1063 H1075 0.930 . S
C1064 C1060 1.524 . S
C1064 H1076 0.956 . S
C1064 H1077 0.961 . S
C1064 H1078 0.961 . S
C1065 C1062 1.539 . S
C1065 H1079 0.958 . S
C1065 H1080 0.961 . S
C1065 H1081 0.960 . S
H1066 C1050 0.931 . S
H1067 C1055 0.929 . S
H1068 C1056 0.960 . S
H1069 C1056 0.962 . S
H1070 C1056 0.960 . S
H1071 C1057 0.961 . S
H1072 C1057 0.961 . S
H1073 C1057 0.961 . S
H1074 C1058 0.931 . S
H1075 C1063 0.930 . S
H1076 C1064 0.956 . S
H1077 C1064 0.961 . S
H1078 C1064 0.961 . S
H1079 C1065 0.958 . S
H1080 C1065 0.961 . S
H1081 C1065 0.960 . S
C1082 C1083 1.391 . S
C1082 C1084 1.394 . S
C1082 H1098 0.931 . S
C1083 C1082 1.391 . S
C1083 C1087 1.376 . S
C1084 C1082 1.394 . S
C1084 C1085 1.369 . S
C1084 C1088 1.531 . S
C1085 C1084 1.369 . S
C1085 C1086 1.410 . S
C1085 C1093 1.503 . S
C1086 C1085 1.410 . S
C1086 C1087 1.392 . S
C1086 C1089 1.511 . S
C1087 C1083 1.376 . S
C1087 C1086 1.392 . S
C1087 H1099 0.929 . S
C1088 C1084 1.531 . S
C1088 H1100 0.960 . S
C1088 H1101 0.962 . S
C1088 H1102 0.960 . S
C1089 C1086 1.511 . S
C1089 H1103 0.961 . S
C1089 H1104 0.961 . S
C1089 H1105 0.961 . S
C1090 C1091 1.370 . S
C1090 C1092 1.363 . S
C1090 H1106 0.931 . S
C1091 C1090 1.370 . S
C1091 C1095 1.408 . S
C1092 C1090 1.363 . S
C1092 C1093 1.370 . S
C1092 C1096 1.524 . S
C1093 C1085 1.503 . S
C1093 C1092 1.370 . S
C1093 C1094 1.403 . S
C1094 C1093 1.403 . S
C1094 C1095 1.404 . S
C1094 C1097 1.539 . S
C1095 C1091 1.408 . S
C1095 C1094 1.404 . S
C1095 H1107 0.930 . S
C1096 C1092 1.524 . S
C1096 H1108 0.956 . S
C1096 H1109 0.961 . S
C1096 H1110 0.961 . S
C1097 C1094 1.539 . S
C1097 H1111 0.958 . S
C1097 H1112 0.961 . S
C1097 H1113 0.960 . S
H1098 C1082 0.931 . S
H1099 C1087 0.929 . S
H1100 C1088 0.960 . S
H1101 C1088 0.962 . S
H1102 C1088 0.960 . S
H1103 C1089 0.961 . S
H1104 C1089 0.961 . S
H1105 C1089 0.961 . S
H1106 C1090 0.931 . S
H1107 C1095 0.930 . S
H1108 C1096 0.956 . S
H1109 C1096 0.961 . S
H1110 C1096 0.961 . S
H1111 C1097 0.958 . S
H1112 C1097 0.961 . S
H1113 C1097 0.960 . S
C1114 C1115 1.391 . S
C1114 C1116 1.394 . S
C1114 H1130 0.931 . S
C1115 C1114 1.391 . S
C1115 C1119 1.376 . S
C1116 C1114 1.394 . S
C1116 C1117 1.369 . S
C1116 C1120 1.531 . S
C1117 C1116 1.369 . S
C1117 C1118 1.410 . S
C1117 C1125 1.503 . S
C1118 C1117 1.410 . S
C1118 C1119 1.392 . S
C1118 C1121 1.511 . S
C1119 C1115 1.376 . S
C1119 C1118 1.392 . S
C1119 H1131 0.929 . S
C1120 C1116 1.531 . S
C1120 H1132 0.960 . S
C1120 H1133 0.962 . S
C1120 H1134 0.960 . S
C1121 C1118 1.511 . S
C1121 H1135 0.961 . S
C1121 H1136 0.961 . S
C1121 H1137 0.961 . S
C1122 C1123 1.370 . S
C1122 C1124 1.363 . S
C1122 H1138 0.931 . S
C1123 C1122 1.370 . S
C1123 C1127 1.408 . S
C1124 C1122 1.363 . S
C1124 C1125 1.370 . S
C1124 C1128 1.524 . S
C1125 C1117 1.503 . S
C1125 C1124 1.370 . S
C1125 C1126 1.403 . S
C1126 C1125 1.403 . S
C1126 C1127 1.404 . S
C1126 C1129 1.539 . S
C1127 C1123 1.408 . S
C1127 C1126 1.404 . S
C1127 H1139 0.930 . S
C1128 C1124 1.524 . S
C1128 H1140 0.956 . S
C1128 H1141 0.961 . S
C1128 H1142 0.961 . S
C1129 C1126 1.539 . S
C1129 H1143 0.958 . S
C1129 H1144 0.961 . S
C1129 H1145 0.960 . S
H1130 C1114 0.931 . S
H1131 C1119 0.929 . S
H1132 C1120 0.960 . S
H1133 C1120 0.962 . S
H1134 C1120 0.960 . S
H1135 C1121 0.961 . S
H1136 C1121 0.961 . S
H1137 C1121 0.961 . S
H1138 C1122 0.931 . S
H1139 C1127 0.930 . S
H1140 C1128 0.956 . S
H1141 C1128 0.961 . S
H1142 C1128 0.961 . S
H1143 C1129 0.958 . S
H1144 C1129 0.961 . S
H1145 C1129 0.960 . S
C1146 C1147 1.391 . S
C1146 C1148 1.394 . S
C1146 H1162 0.931 . S
C1147 C1146 1.391 . S
C1147 C1151 1.376 . S
C1148 C1146 1.394 . S
C1148 C1149 1.369 . S
C1148 C1152 1.531 . S
C1149 C1148 1.369 . S
C1149 C1150 1.410 . S
C1149 C1157 1.503 . S
C1150 C1149 1.410 . S
C1150 C1151 1.392 . S
C1150 C1153 1.511 . S
C1151 C1147 1.376 . S
C1151 C1150 1.392 . S
C1151 H1163 0.929 . S
C1152 C1148 1.531 . S
C1152 H1164 0.960 . S
C1152 H1165 0.962 . S
C1152 H1166 0.960 . S
C1153 C1150 1.511 . S
C1153 H1167 0.961 . S
C1153 H1168 0.961 . S
C1153 H1169 0.961 . S
C1154 C1155 1.370 . S
C1154 C1156 1.363 . S
C1154 H1170 0.931 . S
C1155 C1154 1.370 . S
C1155 C1159 1.408 . S
C1156 C1154 1.363 . S
C1156 C1157 1.370 . S
C1156 C1160 1.524 . S
C1157 C1149 1.503 . S
C1157 C1156 1.370 . S
C1157 C1158 1.403 . S
C1158 C1157 1.403 . S
C1158 C1159 1.404 . S
C1158 C1161 1.539 . S
C1159 C1155 1.408 . S
C1159 C1158 1.404 . S
C1159 H1171 0.930 . S
C1160 C1156 1.524 . S
C1160 H1172 0.956 . S
C1160 H1173 0.961 . S
C1160 H1174 0.961 . S
C1161 C1158 1.539 . S
C1161 H1175 0.958 . S
C1161 H1176 0.961 . S
C1161 H1177 0.960 . S
H1162 C1146 0.931 . S
H1163 C1151 0.929 . S
H1164 C1152 0.960 . S
H1165 C1152 0.962 . S
H1166 C1152 0.960 . S
H1167 C1153 0.961 . S
H1168 C1153 0.961 . S
H1169 C1153 0.961 . S
H1170 C1154 0.931 . S
H1171 C1159 0.930 . S
H1172 C1160 0.956 . S
H1173 C1160 0.961 . S
H1174 C1160 0.961 . S
H1175 C1161 0.958 . S
H1176 C1161 0.961 . S
H1177 C1161 0.960 . S
C1178 C1179 1.391 . S
C1178 C1180 1.394 . S
C1178 H1194 0.931 . S
C1179 C1178 1.391 . S
C1179 C1183 1.376 . S
C1180 C1178 1.394 . S
C1180 C1181 1.369 . S
C1180 C1184 1.531 . S
C1181 C1180 1.369 . S
C1181 C1182 1.410 . S
C1181 C1189 1.503 . S
C1182 C1181 1.410 . S
C1182 C1183 1.392 . S
C1182 C1185 1.511 . S
C1183 C1179 1.376 . S
C1183 C1182 1.392 . S
C1183 H1195 0.929 . S
C1184 C1180 1.531 . S
C1184 H1196 0.960 . S
C1184 H1197 0.962 . S
C1184 H1198 0.960 . S
C1185 C1182 1.511 . S
C1185 H1199 0.961 . S
C1185 H1200 0.961 . S
C1185 H1201 0.961 . S
C1186 C1187 1.370 . S
C1186 C1188 1.363 . S
C1186 H1202 0.931 . S
C1187 C1186 1.370 . S
C1187 C1191 1.408 . S
C1188 C1186 1.363 . S
C1188 C1189 1.370 . S
C1188 C1192 1.524 . S
C1189 C1181 1.503 . S
C1189 C1188 1.370 . S
C1189 C1190 1.403 . S
C1190 C1189 1.403 . S
C1190 C1191 1.404 . S
C1190 C1193 1.539 . S
C1191 C1187 1.408 . S
C1191 C1190 1.404 . S
C1191 H1203 0.930 . S
C1192 C1188 1.524 . S
C1192 H1204 0.956 . S
C1192 H1205 0.961 . S
C1192 H1206 0.961 . S
C1193 C1190 1.539 . S
C1193 H1207 0.958 . S
C1193 H1208 0.961 . S
C1193 H1209 0.960 . S
H1194 C1178 0.931 . S
H1195 C1183 0.929 . S
H1196 C1184 0.960 . S
H1197 C1184 0.962 . S
H1198 C1184 0.960 . S
H1199 C1185 0.961 . S
H1200 C1185 0.961 . S
H1201 C1185 0.961 . S
H1202 C1186 0.931 . S
H1203 C1191 0.930 . S
H1204 C1192 0.956 . S
H1205 C1192 0.961 . S
H1206 C1192 0.961 . S
H1207 C1193 0.958 . S
H1208 C1193 0.961 . S
H1209 C1193 0.960 . S
C1210 C1211 1.391 . S
C1210 C1212 1.394 . S
C1210 H1226 0.931 . S
C1211 C1210 1.391 . S
C1211 C1215 1.376 . S
C1212 C1210 1.394 . S
C1212 C1213 1.369 . S
C1212 C1216 1.531 . S
C1213 C1212 1.369 . S
C1213 C1214 1.410 . S
C1213 C1221 1.503 . S
C1214 C1213 1.410 . S
C1214 C1215 1.392 . S
C1214 C1217 1.511 . S
C1215 C1211 1.376 . S
C1215 C1214 1.392 . S
C1215 H1227 0.929 . S
C1216 C1212 1.531 . S
C1216 H1228 0.960 . S
C1216 H1229 0.962 . S
C1216 H1230 0.960 . S
C1217 C1214 1.511 . S
C1217 H1231 0.961 . S
C1217 H1232 0.961 . S
C1217 H1233 0.961 . S
C1218 C1219 1.370 . S
C1218 C1220 1.363 . S
C1218 H1234 0.931 . S
C1219 C1218 1.370 . S
C1219 C1223 1.408 . S
C1220 C1218 1.363 . S
C1220 C1221 1.370 . S
C1220 C1224 1.524 . S
C1221 C1213 1.503 . S
C1221 C1220 1.370 . S
C1221 C1222 1.403 . S
C1222 C1221 1.403 . S
C1222 C1223 1.404 . S
C1222 C1225 1.539 . S
C1223 C1219 1.408 . S
C1223 C1222 1.404 . S
C1223 H1235 0.930 . S
C1224 C1220 1.524 . S
C1224 H1236 0.956 . S
C1224 H1237 0.961 . S
C1224 H1238 0.961 . S
C1225 C1222 1.539 . S
C1225 H1239 0.958 . S
C1225 H1240 0.961 . S
C1225 H1241 0.960 . S
H1226 C1210 0.931 . S
H1227 C1215 0.929 . S
H1228 C1216 0.960 . S
H1229 C1216 0.962 . S
H1230 C1216 0.960 . S
H1231 C1217 0.961 . S
H1232 C1217 0.961 . S
H1233 C1217 0.961 . S
H1234 C1218 0.931 . S
H1235 C1223 0.930 . S
H1236 C1224 0.956 . S
H1237 C1224 0.961 . S
H1238 C1224 0.961 . S
H1239 C1225 0.958 . S
H1240 C1225 0.961 . S
H1241 C1225 0.960 . S
C1242 C1243 1.391 . S
C1242 C1244 1.394 . S
C1242 H1258 0.931 . S
C1243 C1242 1.391 . S
C1243 C1247 1.376 . S
C1244 C1242 1.394 . S
C1244 C1245 1.369 . S
C1244 C1248 1.531 . S
C1245 C1244 1.369 . S
C1245 C1246 1.410 . S
C1245 C1253 1.503 . S
C1246 C1245 1.410 . S
C1246 C1247 1.392 . S
C1246 C1249 1.511 . S
C1247 C1243 1.376 . S
C1247 C1246 1.392 . S
C1247 H1259 0.929 . S
C1248 C1244 1.531 . S
C1248 H1260 0.960 . S
C1248 H1261 0.962 . S
C1248 H1262 0.960 . S
C1249 C1246 1.511 . S
C1249 H1263 0.961 . S
C1249 H1264 0.961 . S
C1249 H1265 0.961 . S
C1250 C1251 1.370 . S
C1250 C1252 1.363 . S
C1250 H1266 0.931 . S
C1251 C1250 1.370 . S
C1251 C1255 1.408 . S
C1252 C1250 1.363 . S
C1252 C1253 1.370 . S
C1252 C1256 1.524 . S
C1253 C1245 1.503 . S
C1253 C1252 1.370 . S
C1253 C1254 1.403 . S
C1254 C1253 1.403 . S
C1254 C1255 1.404 . S
C1254 C1257 1.539 . S
C1255 C1251 1.408 . S
C1255 C1254 1.404 . S
C1255 H1267 0.930 . S
C1256 C1252 1.524 . S
C1256 H1268 0.956 . S
C1256 H1269 0.961 . S
C1256 H1270 0.961 . S
C1257 C1254 1.539 . S
C1257 H1271 0.958 . S
C1257 H1272 0.961 . S
C1257 H1273 0.960 . S
H1258 C1242 0.931 . S
H1259 C1247 0.929 . S
H1260 C1248 0.960 . S
H1261 C1248 0.962 . S
H1262 C1248 0.960 . S
H1263 C1249 0.961 . S
H1264 C1249 0.961 . S
H1265 C1249 0.961 . S
H1266 C1250 0.931 . S
H1267 C1255 0.930 . S
H1268 C1256 0.956 . S
H1269 C1256 0.961 . S
H1270 C1256 0.961 . S
H1271 C1257 0.958 . S
H1272 C1257 0.961 . S
H1273 C1257 0.960 . S
C1274 C1275 1.391 . S
C1274 C1276 1.394 . S
C1274 H1290 0.931 . S
C1275 C1274 1.391 . S
C1275 C1279 1.376 . S
C1276 C1274 1.394 . S
C1276 C1277 1.369 . S
C1276 C1280 1.531 . S
C1277 C1276 1.369 . S
C1277 C1278 1.410 . S
C1277 C1285 1.503 . S
C1278 C1277 1.410 . S
C1278 C1279 1.392 . S
C1278 C1281 1.511 . S
C1279 C1275 1.376 . S
C1279 C1278 1.392 . S
C1279 H1291 0.929 . S
C1280 C1276 1.531 . S
C1280 H1292 0.960 . S
C1280 H1293 0.962 . S
C1280 H1294 0.960 . S
C1281 C1278 1.511 . S
C1281 H1295 0.961 . S
C1281 H1296 0.961 . S
C1281 H1297 0.961 . S
C1282 C1283 1.370 . S
C1282 C1284 1.363 . S
C1282 H1298 0.931 . S
C1283 C1282 1.370 . S
C1283 C1287 1.408 . S
C1284 C1282 1.363 . S
C1284 C1285 1.370 . S
C1284 C1288 1.524 . S
C1285 C1277 1.503 . S
C1285 C1284 1.370 . S
C1285 C1286 1.403 . S
C1286 C1285 1.403 . S
C1286 C1287 1.404 . S
C1286 C1289 1.539 . S
C1287 C1283 1.408 . S
C1287 C1286 1.404 . S
C1287 H1299 0.930 . S
C1288 C1284 1.524 . S
C1288 H1300 0.956 . S
C1288 H1301 0.961 . S
C1288 H1302 0.961 . S
C1289 C1286 1.539 . S
C1289 H1303 0.958 . S
C1289 H1304 0.961 . S
C1289 H1305 0.960 . S
H1290 C1274 0.931 . S
H1291 C1279 0.929 . S
H1292 C1280 0.960 . S
H1293 C1280 0.962 . S
H1294 C1280 0.960 . S
H1295 C1281 0.961 . S
H1296 C1281 0.961 . S
H1297 C1281 0.961 . S
H1298 C1282 0.931 . S
H1299 C1287 0.930 . S
H1300 C1288 0.956 . S
H1301 C1288 0.961 . S
H1302 C1288 0.961 . S
H1303 C1289 0.958 . S
H1304 C1289 0.961 . S
H1305 C1289 0.960 . S
C1306 C1307 1.391 . S
C1306 C1308 1.394 . S
C1306 H1322 0.931 . S
C1307 C1306 1.391 . S
C1307 C1311 1.376 . S
C1308 C1306 1.394 . S
C1308 C1309 1.369 . S
C1308 C1312 1.531 . S
C1309 C1308 1.369 . S
C1309 C1310 1.410 . S
C1309 C1317 1.503 . S
C1310 C1309 1.410 . S
C1310 C1311 1.392 . S
C1310 C1313 1.511 . S
C1311 C1307 1.376 . S
C1311 C1310 1.392 . S
C1311 H1323 0.929 . S
C1312 C1308 1.531 . S
C1312 H1324 0.960 . S
C1312 H1325 0.962 . S
C1312 H1326 0.960 . S
C1313 C1310 1.511 . S
C1313 H1327 0.961 . S
C1313 H1328 0.961 . S
C1313 H1329 0.961 . S
C1314 C1315 1.370 . S
C1314 C1316 1.363 . S
C1314 H1330 0.931 . S
C1315 C1314 1.370 . S
C1315 C1319 1.408 . S
C1316 C1314 1.363 . S
C1316 C1317 1.370 . S
C1316 C1320 1.524 . S
C1317 C1309 1.503 . S
C1317 C1316 1.370 . S
C1317 C1318 1.403 . S
C1318 C1317 1.403 . S
C1318 C1319 1.404 . S
C1318 C1321 1.539 . S
C1319 C1315 1.408 . S
C1319 C1318 1.404 . S
C1319 H1331 0.930 . S
C1320 C1316 1.524 . S
C1320 H1332 0.956 . S
C1320 H1333 0.961 . S
C1320 H1334 0.961 . S
C1321 C1318 1.539 . S
C1321 H1335 0.958 . S
C1321 H1336 0.961 . S
C1321 H1337 0.960 . S
H1322 C1306 0.931 . S
H1323 C1311 0.929 . S
H1324 C1312 0.960 . S
H1325 C1312 0.962 . S
H1326 C1312 0.960 . S
H1327 C1313 0.961 . S
H1328 C1313 0.961 . S
H1329 C1313 0.961 . S
H1330 C1314 0.931 . S
H1331 C1319 0.930 . S
H1332 C1320 0.956 . S
H1333 C1320 0.961 . S
H1334 C1320 0.961 . S
H1335 C1321 0.958 . S
H1336 C1321 0.961 . S
H1337 C1321 0.960 . S
C1338 C1339 1.391 . S
C1338 C1340 1.394 . S
C1338 H1354 0.931 . S
C1339 C1338 1.391 . S
C1339 C1343 1.376 . S
C1340 C1338 1.394 . S
C1340 C1341 1.369 . S
C1340 C1344 1.531 . S
C1341 C1340 1.369 . S
C1341 C1342 1.410 . S
C1341 C1349 1.503 . S
C1342 C1341 1.410 . S
C1342 C1343 1.392 . S
C1342 C1345 1.511 . S
C1343 C1339 1.376 . S
C1343 C1342 1.392 . S
C1343 H1355 0.929 . S
C1344 C1340 1.531 . S
C1344 H1356 0.960 . S
C1344 H1357 0.962 . S
C1344 H1358 0.960 . S
C1345 C1342 1.511 . S
C1345 H1359 0.961 . S
C1345 H1360 0.961 . S
C1345 H1361 0.961 . S
C1346 C1347 1.370 . S
C1346 C1348 1.363 . S
C1346 H1362 0.931 . S
C1347 C1346 1.370 . S
C1347 C1351 1.408 . S
C1348 C1346 1.363 . S
C1348 C1349 1.370 . S
C1348 C1352 1.524 . S
C1349 C1341 1.503 . S
C1349 C1348 1.370 . S
C1349 C1350 1.403 . S
C1350 C1349 1.403 . S
C1350 C1351 1.404 . S
C1350 C1353 1.539 . S
C1351 C1347 1.408 . S
C1351 C1350 1.404 . S
C1351 H1363 0.930 . S
C1352 C1348 1.524 . S
C1352 H1364 0.956 . S
C1352 H1365 0.961 . S
C1352 H1366 0.961 . S
C1353 C1350 1.539 . S
C1353 H1367 0.958 . S
C1353 H1368 0.961 . S
C1353 H1369 0.960 . S
H1354 C1338 0.931 . S
H1355 C1343 0.929 . S
H1356 C1344 0.960 . S
H1357 C1344 0.962 . S
H1358 C1344 0.960 . S
H1359 C1345 0.961 . S
H1360 C1345 0.961 . S
H1361 C1345 0.961 . S
H1362 C1346 0.931 . S
H1363 C1351 0.930 . S
H1364 C1352 0.956 . S
H1365 C1352 0.961 . S
H1366 C1352 0.961 . S
H1367 C1353 0.958 . S
H1368 C1353 0.961 . S
H1369 C1353 0.960 . S
C1370 C1371 1.391 . S
C1370 C1372 1.394 . S
C1370 H1386 0.931 . S
C1371 C1370 1.391 . S
C1371 C1375 1.376 . S
C1372 C1370 1.394 . S
C1372 C1373 1.369 . S
C1372 C1376 1.531 . S
C1373 C1372 1.369 . S
C1373 C1374 1.410 . S
C1373 C1381 1.503 . S
C1374 C1373 1.410 . S
C1374 C1375 1.392 . S
C1374 C1377 1.511 . S
C1375 C1371 1.376 . S
C1375 C1374 1.392 . S
C1375 H1387 0.929 . S
C1376 C1372 1.531 . S
C1376 H1388 0.960 . S
C1376 H1389 0.962 . S
C1376 H1390 0.960 . S
C1377 C1374 1.511 . S
C1377 H1391 0.961 . S
C1377 H1392 0.961 . S
C1377 H1393 0.961 . S
C1378 C1379 1.370 . S
C1378 C1380 1.363 . S
C1378 H1394 0.931 . S
C1379 C1378 1.370 . S
C1379 C1383 1.408 . S
C1380 C1378 1.363 . S
C1380 C1381 1.370 . S
C1380 C1384 1.524 . S
C1381 C1373 1.503 . S
C1381 C1380 1.370 . S
C1381 C1382 1.403 . S
C1382 C1381 1.403 . S
C1382 C1383 1.404 . S
C1382 C1385 1.539 . S
C1383 C1379 1.408 . S
C1383 C1382 1.404 . S
C1383 H1395 0.930 . S
C1384 C1380 1.524 . S
C1384 H1396 0.956 . S
C1384 H1397 0.961 . S
C1384 H1398 0.961 . S
C1385 C1382 1.539 . S
C1385 H1399 0.958 . S
C1385 H1400 0.985 . S
C1385 H1401 0.960 . S
H1386 C1370 0.931 . S
H1387 C1375 0.929 . S
H1388 C1376 0.960 . S
H1389 C1376 0.962 . S
H1390 C1376 0.960 . S
H1391 C1377 0.961 . S
H1392 C1377 0.961 . S
H1393 C1377 0.961 . S
H1394 C1378 0.931 . S
H1395 C1383 0.930 . S
H1396 C1384 0.956 . S
H1397 C1384 0.961 . S
H1398 C1384 0.961 . S
H1399 C1385 0.958 . S
H1400 C1385 0.985 . S
H1401 C1385 0.960 . S
C1402 C1403 1.391 . S
C1402 C1404 1.394 . S
C1402 H1418 0.931 . S
C1403 C1402 1.391 . S
C1403 C1407 1.376 . S
C1404 C1402 1.394 . S
C1404 C1405 1.369 . S
C1404 C1408 1.531 . S
C1405 C1404 1.369 . S
C1405 C1406 1.410 . S
C1405 C1413 1.503 . S
C1406 C1405 1.410 . S
C1406 C1407 1.392 . S
C1406 C1409 1.511 . S
C1407 C1403 1.376 . S
C1407 C1406 1.392 . S
C1407 H1419 0.929 . S
C1408 C1404 1.531 . S
C1408 H1420 0.960 . S
C1408 H1421 0.962 . S
C1408 H1422 0.960 . S
C1409 C1406 1.511 . S
C1409 H1423 0.961 . S
C1409 H1424 0.961 . S
C1409 H1425 0.961 . S
C1410 C1411 1.370 . S
C1410 C1412 1.363 . S
C1410 H1426 0.931 . S
C1411 C1410 1.370 . S
C1411 C1415 1.408 . S
C1412 C1410 1.363 . S
C1412 C1413 1.370 . S
C1412 C1416 1.524 . S
C1413 C1405 1.503 . S
C1413 C1412 1.370 . S
C1413 C1414 1.403 . S
C1414 C1413 1.403 . S
C1414 C1415 1.404 . S
C1414 C1417 1.539 . S
C1415 C1411 1.408 . S
C1415 C1414 1.404 . S
C1415 H1427 0.930 . S
C1416 C1412 1.524 . S
C1416 H1428 0.956 . S
C1416 H1429 0.961 . S
C1416 H1430 0.961 . S
C1417 C1414 1.539 . S
C1417 H1431 0.958 . S
C1417 H1432 0.961 . S
C1417 H1433 0.960 . S
H1418 C1402 0.931 . S
H1419 C1407 0.929 . S
H1420 C1408 0.960 . S
H1421 C1408 0.962 . S
H1422 C1408 0.960 . S
H1423 C1409 0.961 . S
H1424 C1409 0.961 . S
H1425 C1409 0.961 . S
H1426 C1410 0.931 . S
H1427 C1415 0.930 . S
H1428 C1416 0.956 . S
H1429 C1416 0.961 . S
H1430 C1416 0.961 . S
H1431 C1417 0.958 . S
H1432 C1417 0.961 . S
H1433 C1417 0.960 . S
C1434 C1435 1.391 . S
C1434 C1436 1.394 . S
C1434 H1450 0.931 . S
C1435 C1434 1.391 . S
C1435 C1439 1.376 . S
C1436 C1434 1.394 . S
C1436 C1437 1.369 . S
C1436 C1440 1.531 . S
C1437 C1436 1.369 . S
C1437 C1438 1.410 . S
C1437 C1445 1.503 . S
C1438 C1437 1.410 . S
C1438 C1439 1.392 . S
C1438 C1441 1.511 . S
C1439 C1435 1.376 . S
C1439 C1438 1.392 . S
C1439 H1451 0.929 . S
C1440 C1436 1.531 . S
C1440 H1452 0.960 . S
C1440 H1453 0.962 . S
C1440 H1454 0.960 . S
C1441 C1438 1.511 . S
C1441 H1455 0.961 . S
C1441 H1456 0.961 . S
C1441 H1457 0.961 . S
C1442 C1443 1.370 . S
C1442 C1444 1.363 . S
C1442 H1458 0.931 . S
C1443 C1442 1.370 . S
C1443 C1447 1.408 . S
C1444 C1442 1.363 . S
C1444 C1445 1.370 . S
C1444 C1448 1.524 . S
C1445 C1437 1.503 . S
C1445 C1444 1.370 . S
C1445 C1446 1.403 . S
C1446 C1445 1.403 . S
C1446 C1447 1.404 . S
C1446 C1449 1.539 . S
C1447 C1443 1.408 . S
C1447 C1446 1.404 . S
C1447 H1459 0.930 . S
C1448 C1444 1.524 . S
C1448 H1460 0.956 . S
C1448 H1461 0.961 . S
C1448 H1462 0.961 . S
C1449 C1446 1.539 . S
C1449 H1463 0.958 . S
C1449 H1464 0.961 . S
C1449 H1465 0.960 . S
H1450 C1434 0.931 . S
H1451 C1439 0.929 . S
H1452 C1440 0.960 . S
H1453 C1440 0.962 . S
H1454 C1440 0.960 . S
H1455 C1441 0.961 . S
H1456 C1441 0.961 . S
H1457 C1441 0.961 . S
H1458 C1442 0.931 . S
H1459 C1447 0.930 . S
H1460 C1448 0.956 . S
H1461 C1448 0.961 . S
H1462 C1448 0.961 . S
H1463 C1449 0.958 . S
H1464 C1449 0.961 . S
H1465 C1449 0.960 . S
C1466 C1467 1.391 . S
C1466 C1468 1.394 . S
C1466 H1482 0.931 . S
C1467 C1466 1.391 . S
C1467 C1471 1.376 . S
C1468 C1466 1.394 . S
C1468 C1469 1.369 . S
C1468 C1472 1.531 . S
C1469 C1468 1.369 . S
C1469 C1470 1.410 . S
C1469 C1477 1.503 . S
C1470 C1469 1.410 . S
C1470 C1471 1.392 . S
C1470 C1473 1.511 . S
C1471 C1467 1.376 . S
C1471 C1470 1.392 . S
C1471 H1483 0.929 . S
C1472 C1468 1.531 . S
C1472 H1484 0.960 . S
C1472 H1485 0.962 . S
C1472 H1486 0.960 . S
C1473 C1470 1.511 . S
C1473 H1487 0.961 . S
C1473 H1488 0.961 . S
C1473 H1489 0.961 . S
C1474 C1475 1.370 . S
C1474 C1476 1.363 . S
C1474 H1490 0.931 . S
C1475 C1474 1.370 . S
C1475 C1479 1.408 . S
C1476 C1474 1.363 . S
C1476 C1477 1.370 . S
C1476 C1480 1.524 . S
C1477 C1469 1.503 . S
C1477 C1476 1.370 . S
C1477 C1478 1.403 . S
C1478 C1477 1.403 . S
C1478 C1479 1.404 . S
C1478 C1481 1.539 . S
C1479 C1475 1.408 . S
C1479 C1478 1.404 . S
C1479 H1491 0.930 . S
C1480 C1476 1.524 . S
C1480 H1492 0.956 . S
C1480 H1493 0.961 . S
C1480 H1494 0.961 . S
C1481 C1478 1.539 . S
C1481 H1495 0.958 . S
C1481 H1496 0.961 . S
C1481 H1497 0.960 . S
H1482 C1466 0.931 . S
H1483 C1471 0.929 . S
H1484 C1472 0.960 . S
H1485 C1472 0.962 . S
H1486 C1472 0.960 . S
H1487 C1473 0.961 . S
H1488 C1473 0.961 . S
H1489 C1473 0.961 . S
H1490 C1474 0.931 . S
H1491 C1479 0.930 . S
H1492 C1480 0.956 . S
H1493 C1480 0.961 . S
H1494 C1480 0.961 . S
H1495 C1481 0.958 . S
H1496 C1481 0.961 . S
H1497 C1481 0.960 . S
C1498 C1499 1.391 . S
C1498 C1500 1.394 . S
C1498 H1514 0.931 . S
C1499 C1498 1.391 . S
C1499 C1503 1.376 . S
C1500 C1498 1.394 . S
C1500 C1501 1.369 . S
C1500 C1504 1.531 . S
C1501 C1500 1.369 . S
C1501 C1502 1.410 . S
C1501 C1509 1.503 . S
C1502 C1501 1.410 . S
C1502 C1503 1.392 . S
C1502 C1505 1.511 . S
C1503 C1499 1.376 . S
C1503 C1502 1.392 . S
C1503 H1515 0.929 . S
C1504 C1500 1.531 . S
C1504 H1516 0.960 . S
C1504 H1517 0.962 . S
C1504 H1518 0.960 . S
C1505 C1502 1.511 . S
C1505 H1519 0.961 . S
C1505 H1520 0.961 . S
C1505 H1521 0.961 . S
C1506 C1507 1.370 . S
C1506 C1508 1.363 . S
C1506 H1522 0.931 . S
C1507 C1506 1.370 . S
C1507 C1511 1.408 . S
C1508 C1506 1.363 . S
C1508 C1509 1.370 . S
C1508 C1512 1.524 . S
C1509 C1501 1.503 . S
C1509 C1508 1.370 . S
C1509 C1510 1.403 . S
C1510 C1509 1.403 . S
C1510 C1511 1.404 . S
C1510 C1513 1.539 . S
C1511 C1507 1.408 . S
C1511 C1510 1.404 . S
C1511 H1523 0.930 . S
C1512 C1508 1.524 . S
C1512 H1524 0.956 . S
C1512 H1525 0.961 . S
C1512 H1526 0.961 . S
C1513 C1510 1.539 . S
C1513 H1527 0.958 . S
C1513 H1528 0.961 . S
C1513 H1529 0.960 . S
H1514 C1498 0.931 . S
H1515 C1503 0.929 . S
H1516 C1504 0.960 . S
H1517 C1504 0.962 . S
H1518 C1504 0.960 . S
H1519 C1505 0.961 . S
H1520 C1505 0.961 . S
H1521 C1505 0.961 . S
H1522 C1506 0.931 . S
H1523 C1511 0.930 . S
H1524 C1512 0.956 . S
H1525 C1512 0.961 . S
H1526 C1512 0.961 . S
H1527 C1513 0.958 . S
H1528 C1513 0.961 . S
H1529 C1513 0.960 . S
C1530 C1531 1.391 . S
C1530 C1532 1.394 . S
C1530 H1546 0.931 . S
C1531 C1530 1.391 . S
C1531 C1535 1.376 . S
C1532 C1530 1.394 . S
C1532 C1533 1.369 . S
C1532 C1536 1.531 . S
C1533 C1532 1.369 . S
C1533 C1534 1.410 . S
C1533 C1541 1.503 . S
C1534 C1533 1.410 . S
C1534 C1535 1.392 . S
C1534 C1537 1.511 . S
C1535 C1531 1.376 . S
C1535 C1534 1.392 . S
C1535 H1547 0.929 . S
C1536 C1532 1.531 . S
C1536 H1548 0.960 . S
C1536 H1549 0.962 . S
C1536 H1550 0.960 . S
C1537 C1534 1.511 . S
C1537 H1551 0.961 . S
C1537 H1552 0.961 . S
C1537 H1553 0.961 . S
C1538 C1539 1.370 . S
C1538 C1540 1.363 . S
C1538 H1554 0.931 . S
C1539 C1538 1.370 . S
C1539 C1543 1.408 . S
C1540 C1538 1.363 . S
C1540 C1541 1.370 . S
C1540 C1544 1.524 . S
C1541 C1533 1.503 . S
C1541 C1540 1.370 . S
C1541 C1542 1.403 . S
C1542 C1541 1.403 . S
C1542 C1543 1.404 . S
C1542 C1545 1.539 . S
C1543 C1539 1.408 . S
C1543 C1542 1.404 . S
C1543 H1555 0.930 . S
C1544 C1540 1.524 . S
C1544 H1556 0.956 . S
C1544 H1557 0.961 . S
C1544 H1558 0.961 . S
C1545 C1542 1.539 . S
C1545 H1559 0.958 . S
C1545 H1560 0.961 . S
C1545 H1561 0.960 . S
H1546 C1530 0.931 . S
H1547 C1535 0.929 . S
H1548 C1536 0.960 . S
H1549 C1536 0.962 . S
H1550 C1536 0.960 . S
H1551 C1537 0.961 . S
H1552 C1537 0.961 . S
H1553 C1537 0.961 . S
H1554 C1538 0.931 . S
H1555 C1543 0.930 . S
H1556 C1544 0.956 . S
H1557 C1544 0.961 . S
H1558 C1544 0.961 . S
H1559 C1545 0.958 . S
H1560 C1545 0.961 . S
H1561 C1545 0.960 . S
C1562 C1563 1.391 . S
C1562 C1564 1.394 . S
C1562 H1578 0.931 . S
C1563 C1562 1.391 . S
C1563 C1567 1.376 . S
C1564 C1562 1.394 . S
C1564 C1565 1.369 . S
C1564 C1568 1.531 . S
C1565 C1564 1.369 . S
C1565 C1566 1.410 . S
C1565 C1573 1.503 . S
C1566 C1565 1.410 . S
C1566 C1567 1.392 . S
C1566 C1569 1.511 . S
C1567 C1563 1.376 . S
C1567 C1566 1.392 . S
C1567 H1579 0.929 . S
C1568 C1564 1.531 . S
C1568 H1580 0.960 . S
C1568 H1581 0.962 . S
C1568 H1582 0.960 . S
C1569 C1566 1.511 . S
C1569 H1583 0.961 . S
C1569 H1584 0.961 . S
C1569 H1585 0.961 . S
C1570 C1571 1.370 . S
C1570 C1572 1.363 . S
C1570 H1586 0.931 . S
C1571 C1570 1.370 . S
C1571 C1575 1.408 . S
C1572 C1570 1.363 . S
C1572 C1573 1.370 . S
C1572 C1576 1.524 . S
C1573 C1565 1.503 . S
C1573 C1572 1.370 . S
C1573 C1574 1.403 . S
C1574 C1573 1.403 . S
C1574 C1575 1.404 . S
C1574 C1577 1.539 . S
C1575 C1571 1.408 . S
C1575 C1574 1.404 . S
C1575 H1587 0.930 . S
C1576 C1572 1.524 . S
C1576 H1588 0.956 . S
C1576 H1589 0.961 . S
C1576 H1590 0.961 . S
C1577 C1574 1.539 . S
C1577 H1591 0.958 . S
C1577 H1592 0.961 . S
C1577 H1593 0.960 . S
H1578 C1562 0.931 . S
H1579 C1567 0.929 . S
H1580 C1568 0.960 . S
H1581 C1568 0.962 . S
H1582 C1568 0.960 . S
H1583 C1569 0.961 . S
H1584 C1569 0.961 . S
H1585 C1569 0.961 . S
H1586 C1570 0.931 . S
H1587 C1575 0.930 . S
H1588 C1576 0.956 . S
H1589 C1576 0.961 . S
H1590 C1576 0.961 . S
H1591 C1577 0.958 . S
H1592 C1577 0.961 . S
H1593 C1577 0.960 . S
C1594 C1595 1.391 . S
C1594 C1596 1.394 . S
C1594 H1610 0.931 . S
C1595 C1594 1.391 . S
C1595 C1599 1.376 . S
C1596 C1594 1.394 . S
C1596 C1597 1.369 . S
C1596 C1600 1.531 . S
C1597 C1596 1.369 . S
C1597 C1598 1.410 . S
C1597 C1605 1.503 . S
C1598 C1597 1.410 . S
C1598 C1599 1.392 . S
C1598 C1601 1.511 . S
C1599 C1595 1.376 . S
C1599 C1598 1.392 . S
C1599 H1611 0.929 . S
C1600 C1596 1.531 . S
C1600 H1612 0.960 . S
C1600 H1613 0.962 . S
C1600 H1614 0.960 . S
C1601 C1598 1.511 . S
C1601 H1615 0.961 . S
C1601 H1616 0.961 . S
C1601 H1617 0.961 . S
C1602 C1603 1.370 . S
C1602 C1604 1.363 . S
C1602 H1618 0.931 . S
C1603 C1602 1.370 . S
C1603 C1607 1.408 . S
C1604 C1602 1.363 . S
C1604 C1605 1.370 . S
C1604 C1608 1.524 . S
C1605 C1597 1.503 . S
C1605 C1604 1.370 . S
C1605 C1606 1.403 . S
C1606 C1605 1.403 . S
C1606 C1607 1.404 . S
C1606 C1609 1.539 . S
C1607 C1603 1.408 . S
C1607 C1606 1.404 . S
C1607 H1619 0.930 . S
C1608 C1604 1.524 . S
C1608 H1620 0.956 . S
C1608 H1621 0.961 . S
C1608 H1622 0.961 . S
C1609 C1606 1.539 . S
C1609 H1623 0.958 . S
C1609 H1624 0.961 . S
C1609 H1625 0.960 . S
H1610 C1594 0.931 . S
H1611 C1599 0.929 . S
H1612 C1600 0.960 . S
H1613 C1600 0.962 . S
H1614 C1600 0.960 . S
H1615 C1601 0.961 . S
H1616 C1601 0.961 . S
H1617 C1601 0.961 . S
H1618 C1602 0.931 . S
H1619 C1607 0.930 . S
H1620 C1608 0.956 . S
H1621 C1608 0.961 . S
H1622 C1608 0.961 . S
H1623 C1609 0.958 . S
H1624 C1609 0.961 . S
H1625 C1609 0.960 . S
C1626 C1627 1.391 . S
C1626 C1628 1.394 . S
C1626 H1642 0.931 . S
C1627 C1626 1.391 . S
C1627 C1631 1.376 . S
C1628 C1626 1.394 . S
C1628 C1629 1.369 . S
C1628 C1632 1.531 . S
C1629 C1628 1.369 . S
C1629 C1630 1.410 . S
C1629 C1637 1.503 . S
C1630 C1629 1.410 . S
C1630 C1631 1.392 . S
C1630 C1633 1.511 . S
C1631 C1627 1.376 . S
C1631 C1630 1.392 . S
C1631 H1643 0.929 . S
C1632 C1628 1.531 . S
C1632 H1644 0.960 . S
C1632 H1645 0.962 . S
C1632 H1646 0.960 . S
C1633 C1630 1.511 . S
C1633 H1647 0.961 . S
C1633 H1648 0.961 . S
C1633 H1649 0.961 . S
C1634 C1635 1.370 . S
C1634 C1636 1.363 . S
C1634 H1650 0.931 . S
C1635 C1634 1.370 . S
C1635 C1639 1.408 . S
C1636 C1634 1.363 . S
C1636 C1637 1.370 . S
C1636 C1640 1.524 . S
C1637 C1629 1.503 . S
C1637 C1636 1.370 . S
C1637 C1638 1.403 . S
C1638 C1637 1.403 . S
C1638 C1639 1.404 . S
C1638 C1641 1.539 . S
C1639 C1635 1.408 . S
C1639 C1638 1.404 . S
C1639 H1651 0.930 . S
C1640 C1636 1.524 . S
C1640 H1652 0.956 . S
C1640 H1653 0.961 . S
C1640 H1654 0.961 . S
C1641 C1638 1.539 . S
C1641 H1655 0.958 . S
C1641 H1656 0.961 . S
C1641 H1657 0.960 . S
H1642 C1626 0.931 . S
H1643 C1631 0.929 . S
H1644 C1632 0.960 . S
H1645 C1632 0.962 . S
H1646 C1632 0.960 . S
H1647 C1633 0.961 . S
H1648 C1633 0.961 . S
H1649 C1633 0.961 . S
H1650 C1634 0.931 . S
H1651 C1639 0.930 . S
H1652 C1640 0.956 . S
H1653 C1640 0.961 . S
H1654 C1640 0.961 . S
H1655 C1641 0.958 . S
H1656 C1641 0.961 . S
H1657 C1641 0.960 . S
C1658 C1659 1.391 . S
C1658 C1660 1.394 . S
C1658 H1674 0.931 . S
C1659 C1658 1.391 . S
C1659 C1663 1.376 . S
C1660 C1658 1.394 . S
C1660 C1661 1.369 . S
C1660 C1664 1.531 . S
C1661 C1660 1.369 . S
C1661 C1662 1.410 . S
C1661 C1669 1.503 . S
C1662 C1661 1.410 . S
C1662 C1663 1.392 . S
C1662 C1665 1.511 . S
C1663 C1659 1.376 . S
C1663 C1662 1.392 . S
C1663 H1675 0.929 . S
C1664 C1660 1.531 . S
C1664 H1676 0.960 . S
C1664 H1677 0.962 . S
C1664 H1678 0.960 . S
C1665 C1662 1.511 . S
C1665 H1679 0.961 . S
C1665 H1680 0.961 . S
C1665 H1681 0.961 . S
C1666 C1667 1.370 . S
C1666 C1668 1.363 . S
C1666 H1682 0.931 . S
C1667 C1666 1.370 . S
C1667 C1671 1.408 . S
C1668 C1666 1.363 . S
C1668 C1669 1.370 . S
C1668 C1672 1.524 . S
C1669 C1661 1.503 . S
C1669 C1668 1.370 . S
C1669 C1670 1.403 . S
C1670 C1669 1.403 . S
C1670 C1671 1.404 . S
C1670 C1673 1.539 . S
C1671 C1667 1.408 . S
C1671 C1670 1.404 . S
C1671 H1683 0.930 . S
C1672 C1668 1.524 . S
C1672 H1684 0.956 . S
C1672 H1685 0.961 . S
C1672 H1686 0.961 . S
C1673 C1670 1.539 . S
C1673 H1687 0.958 . S
C1673 H1688 0.961 . S
C1673 H1689 0.960 . S
H1674 C1658 0.931 . S
H1675 C1663 0.929 . S
H1676 C1664 0.960 . S
H1677 C1664 0.962 . S
H1678 C1664 0.960 . S
H1679 C1665 0.961 . S
H1680 C1665 0.961 . S
H1681 C1665 0.961 . S
H1682 C1666 0.931 . S
H1683 C1671 0.930 . S
H1684 C1672 0.956 . S
H1685 C1672 0.961 . S
H1686 C1672 0.961 . S
H1687 C1673 0.958 . S
H1688 C1673 0.961 . S
H1689 C1673 0.960 . S
C1690 C1691 1.391 . S
C1690 C1692 1.394 . S
C1690 H1706 0.931 . S
C1691 C1690 1.391 . S
C1691 C1695 1.376 . S
C1692 C1690 1.394 . S
C1692 C1693 1.369 . S
C1692 C1696 1.531 . S
C1693 C1692 1.369 . S
C1693 C1694 1.410 . S
C1693 C1701 1.503 . S
C1694 C1693 1.410 . S
C1694 C1695 1.392 . S
C1694 C1697 1.511 . S
C1695 C1691 1.376 . S
C1695 C1694 1.392 . S
C1695 H1707 0.929 . S
C1696 C1692 1.531 . S
C1696 H1708 0.960 . S
C1696 H1709 0.962 . S
C1696 H1710 0.960 . S
C1697 C1694 1.511 . S
C1697 H1711 0.961 . S
C1697 H1712 0.961 . S
C1697 H1713 0.961 . S
C1698 C1699 1.370 . S
C1698 C1700 1.363 . S
C1698 H1714 0.931 . S
C1699 C1698 1.370 . S
C1699 C1703 1.408 . S
C1700 C1698 1.363 . S
C1700 C1701 1.370 . S
C1700 C1704 1.524 . S
C1701 C1693 1.503 . S
C1701 C1700 1.370 . S
C1701 C1702 1.403 . S
C1702 C1701 1.403 . S
C1702 C1703 1.404 . S
C1702 C1705 1.539 . S
C1703 C1699 1.408 . S
C1703 C1702 1.404 . S
C1703 H1715 0.930 . S
C1704 C1700 1.524 . S
C1704 H1716 0.956 . S
C1704 H1717 0.961 . S
C1704 H1718 0.961 . S
C1705 C1702 1.539 . S
C1705 H1719 0.958 . S
C1705 H1720 0.961 . S
C1705 H1721 0.960 . S
H1706 C1690 0.931 . S
H1707 C1695 0.929 . S
H1708 C1696 0.960 . S
H1709 C1696 0.962 . S
H1710 C1696 0.960 . S
H1711 C1697 0.961 . S
H1712 C1697 0.961 . S
H1713 C1697 0.961 . S
H1714 C1698 0.931 . S
H1715 C1703 0.930 . S
H1716 C1704 0.956 . S
H1717 C1704 0.961 . S
H1718 C1704 0.961 . S
H1719 C1705 0.958 . S
H1720 C1705 0.961 . S
H1721 C1705 0.960 . S
C1722 C1723 1.391 . S
C1722 C1724 1.394 . S
C1722 H1738 0.931 . S
C1723 C1722 1.391 . S
C1723 C1727 1.376 . S
C1724 C1722 1.394 . S
C1724 C1725 1.369 . S
C1724 C1728 1.531 . S
C1725 C1724 1.369 . S
C1725 C1726 1.410 . S
C1725 C1733 1.503 . S
C1726 C1725 1.410 . S
C1726 C1727 1.392 . S
C1726 C1729 1.511 . S
C1727 C1723 1.376 . S
C1727 C1726 1.392 . S
C1727 H1739 0.929 . S
C1728 C1724 1.531 . S
C1728 H1740 0.960 . S
C1728 H1741 0.962 . S
C1728 H1742 0.960 . S
C1729 C1726 1.511 . S
C1729 H1743 0.961 . S
C1729 H1744 0.961 . S
C1729 H1745 0.961 . S
C1730 C1731 1.370 . S
C1730 C1732 1.363 . S
C1730 H1746 0.931 . S
C1731 C1730 1.370 . S
C1731 C1735 1.408 . S
C1732 C1730 1.363 . S
C1732 C1733 1.370 . S
C1732 C1736 1.524 . S
C1733 C1725 1.503 . S
C1733 C1732 1.370 . S
C1733 C1734 1.403 . S
C1734 C1733 1.403 . S
C1734 C1735 1.404 . S
C1734 C1737 1.539 . S
C1735 C1731 1.408 . S
C1735 C1734 1.404 . S
C1735 H1747 0.930 . S
C1736 C1732 1.524 . S
C1736 H1748 0.956 . S
C1736 H1749 0.961 . S
C1736 H1750 0.961 . S
C1737 C1734 1.539 . S
C1737 H1751 0.958 . S
C1737 H1752 0.961 . S
C1737 H1753 0.960 . S
H1738 C1722 0.931 . S
H1739 C1727 0.929 . S
H1740 C1728 0.960 . S
H1741 C1728 0.962 . S
H1742 C1728 0.960 . S
H1743 C1729 0.961 . S
H1744 C1729 0.961 . S
H1745 C1729 0.961 . S
H1746 C1730 0.931 . S
H1747 C1735 0.930 . S
H1748 C1736 0.956 . S
H1749 C1736 0.961 . S
H1750 C1736 0.961 . S
H1751 C1737 0.958 . S
H1752 C1737 0.961 . S
H1753 C1737 0.960 . S
C1754 C1755 1.391 . S
C1754 C1756 1.394 . S
C1754 H1770 0.931 . S
C1755 C1754 1.391 . S
C1755 C1759 1.376 . S
C1756 C1754 1.394 . S
C1756 C1757 1.369 . S
C1756 C1760 1.531 . S
C1757 C1756 1.369 . S
C1757 C1758 1.410 . S
C1757 C1765 1.503 . S
C1758 C1757 1.410 . S
C1758 C1759 1.392 . S
C1758 C1761 1.511 . S
C1759 C1755 1.376 . S
C1759 C1758 1.392 . S
C1759 H1771 0.929 . S
C1760 C1756 1.531 . S
C1760 H1772 0.960 . S
C1760 H1773 0.962 . S
C1760 H1774 0.960 . S
C1761 C1758 1.511 . S
C1761 H1775 0.961 . S
C1761 H1776 0.961 . S
C1761 H1777 0.961 . S
C1762 C1763 1.370 . S
C1762 C1764 1.363 . S
C1762 H1778 0.931 . S
C1763 C1762 1.370 . S
C1763 C1767 1.408 . S
C1764 C1762 1.363 . S
C1764 C1765 1.370 . S
C1764 C1768 1.524 . S
C1765 C1757 1.503 . S
C1765 C1764 1.370 . S
C1765 C1766 1.403 . S
C1766 C1765 1.403 . S
C1766 C1767 1.404 . S
C1766 C1769 1.539 . S
C1767 C1763 1.408 . S
C1767 C1766 1.404 . S
C1767 H1779 0.930 . S
C1768 C1764 1.524 . S
C1768 H1780 0.956 . S
C1768 H1781 0.961 . S
C1768 H1782 0.961 . S
C1769 C1766 1.539 . S
C1769 H1783 0.958 . S
C1769 H1784 0.961 . S
C1769 H1785 0.960 . S
H1770 C1754 0.931 . S
H1771 C1759 0.929 . S
H1772 C1760 0.960 . S
H1773 C1760 0.962 . S
H1774 C1760 0.960 . S
H1775 C1761 0.961 . S
H1776 C1761 0.961 . S
H1777 C1761 0.961 . S
H1778 C1762 0.931 . S
H1779 C1767 0.930 . S
H1780 C1768 0.956 . S
H1781 C1768 0.961 . S
H1782 C1768 0.961 . S
H1783 C1769 0.958 . S
H1784 C1769 0.961 . S
H1785 C1769 0.960 . S
C1786 C1787 1.391 . S
C1786 C1788 1.394 . S
C1786 H1802 0.931 . S
C1787 C1786 1.391 . S
C1787 C1791 1.376 . S
C1788 C1786 1.394 . S
C1788 C1789 1.369 . S
C1788 C1792 1.531 . S
C1789 C1788 1.369 . S
C1789 C1790 1.410 . S
C1789 C1797 1.503 . S
C1790 C1789 1.410 . S
C1790 C1791 1.392 . S
C1790 C1793 1.511 . S
C1791 C1787 1.376 . S
C1791 C1790 1.392 . S
C1791 H1803 0.929 . S
C1792 C1788 1.531 . S
C1792 H1804 0.960 . S
C1792 H1805 0.962 . S
C1792 H1806 0.960 . S
C1793 C1790 1.511 . S
C1793 H1807 0.961 . S
C1793 H1808 0.961 . S
C1793 H1809 0.961 . S
C1794 C1795 1.370 . S
C1794 C1796 1.363 . S
C1794 H1810 0.931 . S
C1795 C1794 1.370 . S
C1795 C1799 1.408 . S
C1796 C1794 1.363 . S
C1796 C1797 1.370 . S
C1796 C1800 1.524 . S
C1797 C1789 1.503 . S
C1797 C1796 1.370 . S
C1797 C1798 1.403 . S
C1798 C1797 1.403 . S
C1798 C1799 1.404 . S
C1798 C1801 1.539 . S
C1799 C1795 1.408 . S
C1799 C1798 1.404 . S
C1799 H1811 0.930 . S
C1800 C1796 1.524 . S
C1800 H1812 0.956 . S
C1800 H1813 0.961 . S
C1800 H1814 0.961 . S
C1801 C1798 1.539 . S
C1801 H1815 0.958 . S
C1801 H1816 0.961 . S
C1801 H1817 0.960 . S
H1802 C1786 0.931 . S
H1803 C1791 0.929 . S
H1804 C1792 0.960 . S
H1805 C1792 0.962 . S
H1806 C1792 0.960 . S
H1807 C1793 0.961 . S
H1808 C1793 0.961 . S
H1809 C1793 0.961 . S
H1810 C1794 0.931 . S
H1811 C1799 0.930 . S
H1812 C1800 0.956 . S
H1813 C1800 0.961 . S
H1814 C1800 0.961 . S
H1815 C1801 0.958 . S
H1816 C1801 0.961 . S
H1817 C1801 0.960 . S
C1818 C1819 1.391 . S
C1818 C1820 1.394 . S
C1818 H1834 0.931 . S
C1819 C1818 1.391 . S
C1819 C1823 1.376 . S
C1820 C1818 1.394 . S
C1820 C1821 1.369 . S
C1820 C1824 1.531 . S
C1821 C1820 1.369 . S
C1821 C1822 1.410 . S
C1821 C1829 1.503 . S
C1822 C1821 1.410 . S
C1822 C1823 1.392 . S
C1822 C1825 1.511 . S
C1823 C1819 1.376 . S
C1823 C1822 1.392 . S
C1823 H1835 0.929 . S
C1824 C1820 1.531 . S
C1824 H1836 0.960 . S
C1824 H1837 0.962 . S
C1824 H1838 0.960 . S
C1825 C1822 1.511 . S
C1825 H1839 0.961 . S
C1825 H1840 0.961 . S
C1825 H1841 0.961 . S
C1826 C1827 1.370 . S
C1826 C1828 1.363 . S
C1826 H1842 0.931 . S
C1827 C1826 1.370 . S
C1827 C1831 1.408 . S
C1828 C1826 1.363 . S
C1828 C1829 1.370 . S
C1828 C1832 1.524 . S
C1829 C1821 1.503 . S
C1829 C1828 1.370 . S
C1829 C1830 1.403 . S
C1830 C1829 1.403 . S
C1830 C1831 1.404 . S
C1830 C1833 1.539 . S
C1831 C1827 1.408 . S
C1831 C1830 1.404 . S
C1831 H1843 0.930 . S
C1832 C1828 1.524 . S
C1832 H1844 0.956 . S
C1832 H1845 0.961 . S
C1832 H1846 0.961 . S
C1833 C1830 1.539 . S
C1833 H1847 0.958 . S
C1833 H1848 0.961 . S
C1833 H1849 0.960 . S
H1834 C1818 0.931 . S
H1835 C1823 0.929 . S
H1836 C1824 0.960 . S
H1837 C1824 0.962 . S
H1838 C1824 0.960 . S
H1839 C1825 0.961 . S
H1840 C1825 0.961 . S
H1841 C1825 0.961 . S
H1842 C1826 0.931 . S
H1843 C1831 0.930 . S
H1844 C1832 0.956 . S
H1845 C1832 0.961 . S
H1846 C1832 0.961 . S
H1847 C1833 0.958 . S
H1848 C1833 0.961 . S
H1849 C1833 0.960 . S
C1850 C1851 1.391 . S
C1850 C1852 1.394 . S
C1850 H1866 0.931 . S
C1851 C1850 1.391 . S
C1851 C1855 1.376 . S
C1852 C1850 1.394 . S
C1852 C1853 1.369 . S
C1852 C1856 1.531 . S
C1853 C1852 1.369 . S
C1853 C1854 1.410 . S
C1853 C1861 1.503 . S
C1854 C1853 1.410 . S
C1854 C1855 1.392 . S
C1854 C1857 1.511 . S
C1855 C1851 1.376 . S
C1855 C1854 1.392 . S
C1855 H1867 0.929 . S
C1856 C1852 1.531 . S
C1856 H1868 0.960 . S
C1856 H1869 0.962 . S
C1856 H1870 0.960 . S
C1857 C1854 1.511 . S
C1857 H1871 0.961 . S
C1857 H1872 0.961 . S
C1857 H1873 0.961 . S
C1858 C1859 1.370 . S
C1858 C1860 1.363 . S
C1858 H1874 0.931 . S
C1859 C1858 1.370 . S
C1859 C1863 1.408 . S
C1860 C1858 1.363 . S
C1860 C1861 1.370 . S
C1860 C1864 1.524 . S
C1861 C1853 1.503 . S
C1861 C1860 1.370 . S
C1861 C1862 1.403 . S
C1862 C1861 1.403 . S
C1862 C1863 1.404 . S
C1862 C1865 1.539 . S
C1863 C1859 1.408 . S
C1863 C1862 1.404 . S
C1863 H1875 0.930 . S
C1864 C1860 1.524 . S
C1864 H1876 0.956 . S
C1864 H1877 0.961 . S
C1864 H1878 0.961 . S
C1865 C1862 1.539 . S
C1865 H1879 0.958 . S
C1865 H1880 0.961 . S
C1865 H1881 0.960 . S
H1866 C1850 0.931 . S
H1867 C1855 0.929 . S
H1868 C1856 0.960 . S
H1869 C1856 0.962 . S
H1870 C1856 0.960 . S
H1871 C1857 0.961 . S
H1872 C1857 0.961 . S
H1873 C1857 0.961 . S
H1874 C1858 0.931 . S
H1875 C1863 0.930 . S
H1876 C1864 0.956 . S
H1877 C1864 0.961 . S
H1878 C1864 0.961 . S
H1879 C1865 0.958 . S
H1880 C1865 0.961 . S
H1881 C1865 0.960 . S
C1882 C1883 1.391 . S
C1882 C1884 1.394 . S
C1882 H1898 0.931 . S
C1883 C1882 1.391 . S
C1883 C1887 1.376 . S
C1884 C1882 1.394 . S
C1884 C1885 1.369 . S
C1884 C1888 1.531 . S
C1885 C1884 1.369 . S
C1885 C1886 1.410 . S
C1885 C1893 1.503 . S
C1886 C1885 1.410 . S
C1886 C1887 1.392 . S
C1886 C1889 1.511 . S
C1887 C1883 1.376 . S
C1887 C1886 1.392 . S
C1887 H1899 0.929 . S
C1888 C1884 1.531 . S
C1888 H1900 0.960 . S
C1888 H1901 0.962 . S
C1888 H1902 0.960 . S
C1889 C1886 1.511 . S
C1889 H1903 0.961 . S
C1889 H1904 0.961 . S
C1889 H1905 0.961 . S
C1890 C1891 1.370 . S
C1890 C1892 1.363 . S
C1890 H1906 0.931 . S
C1891 C1890 1.370 . S
C1891 C1895 1.408 . S
C1892 C1890 1.363 . S
C1892 C1893 1.370 . S
C1892 C1896 1.524 . S
C1893 C1885 1.503 . S
C1893 C1892 1.370 . S
C1893 C1894 1.403 . S
C1894 C1893 1.403 . S
C1894 C1895 1.404 . S
C1894 C1897 1.539 . S
C1895 C1891 1.408 . S
C1895 C1894 1.404 . S
C1895 H1907 0.930 . S
C1896 C1892 1.524 . S
C1896 H1908 0.956 . S
C1896 H1909 0.961 . S
C1896 H1910 0.961 . S
C1897 C1894 1.539 . S
C1897 H1911 0.958 . S
C1897 H1912 0.961 . S
C1897 H1913 0.960 . S
H1898 C1882 0.931 . S
H1899 C1887 0.929 . S
H1900 C1888 0.960 . S
H1901 C1888 0.962 . S
H1902 C1888 0.960 . S
H1903 C1889 0.961 . S
H1904 C1889 0.961 . S
H1905 C1889 0.961 . S
H1906 C1890 0.931 . S
H1907 C1895 0.930 . S
H1908 C1896 0.956 . S
H1909 C1896 0.961 . S
H1910 C1896 0.961 . S
H1911 C1897 0.958 . S
H1912 C1897 0.961 . S
H1913 C1897 0.960 . S
C1914 C1915 1.391 . S
C1914 C1916 1.394 . S
C1914 H1930 0.931 . S
C1915 C1914 1.391 . S
C1915 C1919 1.376 . S
C1916 C1914 1.394 . S
C1916 C1917 1.369 . S
C1916 C1920 1.531 . S
C1917 C1916 1.369 . S
C1917 C1918 1.410 . S
C1917 C1925 1.503 . S
C1918 C1917 1.410 . S
C1918 C1919 1.392 . S
C1918 C1921 1.511 . S
C1919 C1915 1.376 . S
C1919 C1918 1.392 . S
C1919 H1931 0.929 . S
C1920 C1916 1.531 . S
C1920 H1932 0.960 . S
C1920 H1933 0.962 . S
C1920 H1934 0.960 . S
C1921 C1918 1.511 . S
C1921 H1935 0.961 . S
C1921 H1936 0.961 . S
C1921 H1937 0.961 . S
C1922 C1923 1.370 . S
C1922 C1924 1.363 . S
C1922 H1938 0.931 . S
C1923 C1922 1.370 . S
C1923 C1927 1.408 . S
C1924 C1922 1.363 . S
C1924 C1925 1.370 . S
C1924 C1928 1.524 . S
C1925 C1917 1.503 . S
C1925 C1924 1.370 . S
C1925 C1926 1.403 . S
C1926 C1925 1.403 . S
C1926 C1927 1.404 . S
C1926 C1929 1.539 . S
C1927 C1923 1.408 . S
C1927 C1926 1.404 . S
C1927 H1939 0.930 . S
C1928 C1924 1.524 . S
C1928 H1940 0.956 . S
C1928 H1941 0.961 . S
C1928 H1942 0.961 . S
C1929 C1926 1.539 . S
C1929 H1943 0.958 . S
C1929 H1944 0.961 . S
C1929 H1945 0.960 . S
H1930 C1914 0.931 . S
H1931 C1919 0.929 . S
H1932 C1920 0.960 . S
H1933 C1920 0.962 . S
H1934 C1920 0.960 . S
H1935 C1921 0.961 . S
H1936 C1921 0.961 . S
H1937 C1921 0.961 . S
H1938 C1922 0.931 . S
H1939 C1927 0.930 . S
H1940 C1928 0.956 . S
H1941 C1928 0.961 . S
H1942 C1928 0.961 . S
H1943 C1929 0.958 . S
H1944 C1929 0.961 . S
H1945 C1929 0.960 . S
C1946 C1947 1.391 . S
C1946 C1948 1.394 . S
C1946 H1962 0.931 . S
C1947 C1946 1.391 . S
C1947 C1951 1.376 . S
C1948 C1946 1.394 . S
C1948 C1949 1.369 . S
C1948 C1952 1.531 . S
C1949 C1948 1.369 . S
C1949 C1950 1.410 . S
C1949 C1957 1.503 . S
C1950 C1949 1.410 . S
C1950 C1951 1.392 . S
C1950 C1953 1.511 . S
C1951 C1947 1.376 . S
C1951 C1950 1.392 . S
C1951 H1963 0.929 . S
C1952 C1948 1.531 . S
C1952 H1964 0.960 . S
C1952 H1965 0.962 . S
C1952 H1966 0.960 . S
C1953 C1950 1.511 . S
C1953 H1967 0.961 . S
C1953 H1968 0.961 . S
C1953 H1969 0.961 . S
C1954 C1955 1.370 . S
C1954 C1956 1.363 . S
C1954 H1970 0.931 . S
C1955 C1954 1.370 . S
C1955 C1959 1.408 . S
C1956 C1954 1.363 . S
C1956 C1957 1.370 . S
C1956 C1960 1.524 . S
C1957 C1949 1.503 . S
C1957 C1956 1.370 . S
C1957 C1958 1.403 . S
C1958 C1957 1.403 . S
C1958 C1959 1.404 . S
C1958 C1961 1.539 . S
C1959 C1955 1.408 . S
C1959 C1958 1.404 . S
C1959 H1971 0.930 . S
C1960 C1956 1.524 . S
C1960 H1972 0.956 . S
C1960 H1973 0.961 . S
C1960 H1974 0.961 . S
C1961 C1958 1.539 . S
C1961 H1975 0.958 . S
C1961 H1976 0.961 . S
C1961 H1977 0.960 . S
H1962 C1946 0.931 . S
H1963 C1951 0.929 . S
H1964 C1952 0.960 . S
H1965 C1952 0.962 . S
H1966 C1952 0.960 . S
H1967 C1953 0.961 . S
H1968 C1953 0.961 . S
H1969 C1953 0.961 . S
H1970 C1954 0.931 . S
H1971 C1959 0.930 . S
H1972 C1960 0.956 . S
H1973 C1960 0.961 . S
H1974 C1960 0.961 . S
H1975 C1961 0.958 . S
H1976 C1961 0.961 . S
H1977 C1961 0.960 . S
C1978 C1979 1.391 . S
C1978 C1980 1.394 . S
C1978 H1994 0.931 . S
C1979 C1978 1.391 . S
C1979 C1983 1.376 . S
C1980 C1978 1.394 . S
C1980 C1981 1.369 . S
C1980 C1984 1.531 . S
C1981 C1980 1.369 . S
C1981 C1982 1.410 . S
C1981 C1989 1.503 . S
C1982 C1981 1.410 . S
C1982 C1983 1.392 . S
C1982 C1985 1.511 . S
C1983 C1979 1.376 . S
C1983 C1982 1.392 . S
C1983 H1995 0.929 . S
C1984 C1980 1.531 . S
C1984 H1996 0.960 . S
C1984 H1997 0.962 . S
C1984 H1998 0.960 . S
C1985 C1982 1.511 . S
C1985 H1999 0.961 . S
C1985 H2000 0.961 . S
C1985 H2001 0.961 . S
C1986 C1987 1.370 . S
C1986 C1988 1.363 . S
C1986 H2002 0.931 . S
C1987 C1986 1.370 . S
C1987 C1991 1.408 . S
C1988 C1986 1.363 . S
C1988 C1989 1.370 . S
C1988 C1992 1.524 . S
C1989 C1981 1.503 . S
C1989 C1988 1.370 . S
C1989 C1990 1.403 . S
C1990 C1989 1.403 . S
C1990 C1991 1.404 . S
C1990 C1993 1.539 . S
C1991 C1987 1.408 . S
C1991 C1990 1.404 . S
C1991 H2003 0.930 . S
C1992 C1988 1.524 . S
C1992 H2004 0.956 . S
C1992 H2005 0.961 . S
C1992 H2006 0.961 . S
C1993 C1990 1.539 . S
C1993 H2007 0.958 . S
C1993 H2008 0.961 . S
C1993 H2009 0.960 . S
H1994 C1978 0.931 . S
H1995 C1983 0.929 . S
H1996 C1984 0.960 . S
H1997 C1984 0.962 . S
H1998 C1984 0.960 . S
H1999 C1985 0.961 . S
H2000 C1985 0.961 . S
H2001 C1985 0.961 . S
H2002 C1986 0.931 . S
H2003 C1991 0.930 . S
H2004 C1992 0.956 . S
H2005 C1992 0.961 . S
H2006 C1992 0.961 . S
H2007 C1993 0.958 . S
H2008 C1993 0.961 . S
H2009 C1993 0.960 . S
C2010 C2011 1.391 . S
C2010 C2012 1.394 . S
C2010 H2026 0.931 . S
C2011 C2010 1.391 . S
C2011 C2015 1.376 . S
C2012 C2010 1.394 . S
C2012 C2013 1.369 . S
C2012 C2016 1.531 . S
C2013 C2012 1.369 . S
C2013 C2014 1.410 . S
C2013 C2021 1.503 . S
C2014 C2013 1.410 . S
C2014 C2015 1.392 . S
C2014 C2017 1.511 . S
C2015 C2011 1.376 . S
C2015 C2014 1.392 . S
C2015 H2027 0.929 . S
C2016 C2012 1.531 . S
C2016 H2028 0.960 . S
C2016 H2029 0.962 . S
C2016 H2030 0.960 . S
C2017 C2014 1.511 . S
C2017 H2031 0.961 . S
C2017 H2032 0.961 . S
C2017 H2033 0.961 . S
C2018 C2019 1.370 . S
C2018 C2020 1.363 . S
C2018 H2034 0.931 . S
C2019 C2018 1.370 . S
C2019 C2023 1.408 . S
C2020 C2018 1.363 . S
C2020 C2021 1.370 . S
C2020 C2024 1.524 . S
C2021 C2013 1.503 . S
C2021 C2020 1.370 . S
C2021 C2022 1.403 . S
C2022 C2021 1.403 . S
C2022 C2023 1.404 . S
C2022 C2025 1.539 . S
C2023 C2019 1.408 . S
C2023 C2022 1.404 . S
C2023 H2035 0.930 . S
C2024 C2020 1.524 . S
C2024 H2036 0.956 . S
C2024 H2037 0.961 . S
C2024 H2038 0.961 . S
C2025 C2022 1.539 . S
C2025 H2039 0.958 . S
C2025 H2040 0.961 . S
C2025 H2041 0.960 . S
H2026 C2010 0.931 . S
H2027 C2015 0.929 . S
H2028 C2016 0.960 . S
H2029 C2016 0.962 . S
H2030 C2016 0.960 . S
H2031 C2017 0.961 . S
H2032 C2017 0.961 . S
H2033 C2017 0.961 . S
H2034 C2018 0.931 . S
H2035 C2023 0.930 . S
H2036 C2024 0.956 . S
H2037 C2024 0.961 . S
H2038 C2024 0.961 . S
H2039 C2025 0.958 . S
H2040 C2025 0.961 . S
H2041 C2025 0.960 . S
C2042 C2043 1.391 . S
C2042 C2044 1.394 . S
C2042 H2058 0.931 . S
C2043 C2042 1.391 . S
C2043 C2047 1.376 . S
C2044 C2042 1.394 . S
C2044 C2045 1.369 . S
C2044 C2048 1.531 . S
C2045 C2044 1.369 . S
C2045 C2046 1.410 . S
C2045 C2053 1.503 . S
C2046 C2045 1.410 . S
C2046 C2047 1.392 . S
C2046 C2049 1.511 . S
C2047 C2043 1.376 . S
C2047 C2046 1.392 . S
C2047 H2059 0.929 . S
C2048 C2044 1.531 . S
C2048 H2060 0.960 . S
C2048 H2061 0.962 . S
C2048 H2062 0.960 . S
C2049 C2046 1.511 . S
C2049 H2063 0.961 . S
C2049 H2064 0.961 . S
C2049 H2065 0.961 . S
C2050 C2051 1.370 . S
C2050 C2052 1.363 . S
C2050 H2066 0.931 . S
C2051 C2050 1.370 . S
C2051 C2055 1.408 . S
C2052 C2050 1.363 . S
C2052 C2053 1.370 . S
C2052 C2056 1.524 . S
C2053 C2045 1.503 . S
C2053 C2052 1.370 . S
C2053 C2054 1.403 . S
C2054 C2053 1.403 . S
C2054 C2055 1.404 . S
C2054 C2057 1.539 . S
C2055 C2051 1.408 . S
C2055 C2054 1.404 . S
C2055 H2067 0.930 . S
C2056 C2052 1.524 . S
C2056 H2068 0.956 . S
C2056 H2069 0.961 . S
C2056 H2070 0.961 . S
C2057 C2054 1.539 . S
C2057 H2071 0.958 . S
C2057 H2072 0.961 . S
C2057 H2073 0.960 . S
H2058 C2042 0.931 . S
H2059 C2047 0.929 . S
H2060 C2048 0.960 . S
H2061 C2048 0.962 . S
H2062 C2048 0.960 . S
H2063 C2049 0.961 . S
H2064 C2049 0.961 . S
H2065 C2049 0.961 . S
H2066 C2050 0.931 . S
H2067 C2055 0.930 . S
H2068 C2056 0.956 . S
H2069 C2056 0.961 . S
H2070 C2056 0.961 . S
H2071 C2057 0.958 . S
H2072 C2057 0.961 . S
H2073 C2057 0.960 . S
C2074 C2075 1.391 . S
C2074 C2076 1.394 . S
C2074 H2090 0.931 . S
C2075 C2074 1.391 . S
C2075 C2079 1.376 . S
C2076 C2074 1.394 . S
C2076 C2077 1.369 . S
C2076 C2080 1.531 . S
C2077 C2076 1.369 . S
C2077 C2078 1.410 . S
C2077 C2085 1.503 . S
C2078 C2077 1.410 . S
C2078 C2079 1.392 . S
C2078 C2081 1.511 . S
C2079 C2075 1.376 . S
C2079 C2078 1.392 . S
C2079 H2091 0.929 . S
C2080 C2076 1.531 . S
C2080 H2092 0.960 . S
C2080 H2093 0.962 . S
C2080 H2094 0.960 . S
C2081 C2078 1.511 . S
C2081 H2095 0.961 . S
C2081 H2096 0.961 . S
C2081 H2097 0.961 . S
C2082 C2083 1.370 . S
C2082 C2084 1.363 . S
C2082 H2098 0.931 . S
C2083 C2082 1.370 . S
C2083 C2087 1.408 . S
C2084 C2082 1.363 . S
C2084 C2085 1.370 . S
C2084 C2088 1.524 . S
C2085 C2077 1.503 . S
C2085 C2084 1.370 . S
C2085 C2086 1.403 . S
C2086 C2085 1.403 . S
C2086 C2087 1.404 . S
C2086 C2089 1.539 . S
C2087 C2083 1.408 . S
C2087 C2086 1.404 . S
C2087 H2099 0.930 . S
C2088 C2084 1.524 . S
C2088 H2100 0.956 . S
C2088 H2101 0.961 . S
C2088 H2102 0.961 . S
C2089 C2086 1.539 . S
C2089 H2103 0.958 . S
C2089 H2104 0.961 . S
C2089 H2105 0.960 . S
H2090 C2074 0.931 . S
H2091 C2079 0.929 . S
H2092 C2080 0.960 . S
H2093 C2080 0.962 . S
H2094 C2080 0.960 . S
H2095 C2081 0.961 . S
H2096 C2081 0.961 . S
H2097 C2081 0.961 . S
H2098 C2082 0.931 . S
H2099 C2087 0.930 . S
H2100 C2088 0.956 . S
H2101 C2088 0.961 . S
H2102 C2088 0.961 . S
H2103 C2089 0.958 . S
H2104 C2089 0.961 . S
H2105 C2089 0.960 . S
C2106 C2107 1.391 . S
C2106 C2108 1.394 . S
C2106 H2122 0.931 . S
C2107 C2106 1.391 . S
C2107 C2111 1.376 . S
C2108 C2106 1.394 . S
C2108 C2109 1.369 . S
C2108 C2112 1.531 . S
C2109 C2108 1.369 . S
C2109 C2110 1.410 . S
C2109 C2117 1.503 . S
C2110 C2109 1.410 . S
C2110 C2111 1.392 . S
C2110 C2113 1.511 . S
C2111 C2107 1.376 . S
C2111 C2110 1.392 . S
C2111 H2123 0.929 . S
C2112 C2108 1.531 . S
C2112 H2124 0.960 . S
C2112 H2125 0.962 . S
C2112 H2126 0.960 . S
C2113 C2110 1.511 . S
C2113 H2127 0.961 . S
C2113 H2128 0.961 . S
C2113 H2129 0.961 . S
C2114 C2115 1.370 . S
C2114 C2116 1.363 . S
C2114 H2130 0.931 . S
C2115 C2114 1.370 . S
C2115 C2119 1.408 . S
C2116 C2114 1.363 . S
C2116 C2117 1.370 . S
C2116 C2120 1.524 . S
C2117 C2109 1.503 . S
C2117 C2116 1.370 . S
C2117 C2118 1.403 . S
C2118 C2117 1.403 . S
C2118 C2119 1.404 . S
C2118 C2121 1.539 . S
C2119 C2115 1.408 . S
C2119 C2118 1.404 . S
C2119 H2131 0.930 . S
C2120 C2116 1.524 . S
C2120 H2132 0.956 . S
C2120 H2133 0.961 . S
C2120 H2134 0.961 . S
C2121 C2118 1.539 . S
C2121 H2135 0.958 . S
C2121 H2136 0.961 . S
C2121 H2137 0.960 . S
H2122 C2106 0.931 . S
H2123 C2111 0.929 . S
H2124 C2112 0.960 . S
H2125 C2112 0.962 . S
H2126 C2112 0.960 . S
H2127 C2113 0.961 . S
H2128 C2113 0.961 . S
H2129 C2113 0.961 . S
H2130 C2114 0.931 . S
H2131 C2119 0.930 . S
H2132 C2120 0.956 . S
H2133 C2120 0.961 . S
H2134 C2120 0.961 . S
H2135 C2121 0.958 . S
H2136 C2121 0.961 . S
H2137 C2121 0.960 . S
C2138 C2139 1.391 . S
C2138 C2140 1.394 . S
C2138 H2154 0.931 . S
C2139 C2138 1.391 . S
C2139 C2143 1.376 . S
C2140 C2138 1.394 . S
C2140 C2141 1.369 . S
C2140 C2144 1.531 . S
C2141 C2140 1.369 . S
C2141 C2142 1.410 . S
C2141 C2149 1.503 . S
C2142 C2141 1.410 . S
C2142 C2143 1.392 . S
C2142 C2145 1.511 . S
C2143 C2139 1.376 . S
C2143 C2142 1.392 . S
C2143 H2155 0.929 . S
C2144 C2140 1.531 . S
C2144 H2156 0.960 . S
C2144 H2157 0.962 . S
C2144 H2158 0.960 . S
C2145 C2142 1.511 . S
C2145 H2159 0.961 . S
C2145 H2160 0.961 . S
C2145 H2161 0.961 . S
C2146 C2147 1.370 . S
C2146 C2148 1.363 . S
C2146 H2162 0.931 . S
C2147 C2146 1.370 . S
C2147 C2151 1.408 . S
C2148 C2146 1.363 . S
C2148 C2149 1.370 . S
C2148 C2152 1.524 . S
C2149 C2141 1.503 . S
C2149 C2148 1.370 . S
C2149 C2150 1.403 . S
C2150 C2149 1.403 . S
C2150 C2151 1.404 . S
C2150 C2153 1.539 . S
C2151 C2147 1.408 . S
C2151 C2150 1.404 . S
C2151 H2163 0.930 . S
C2152 C2148 1.524 . S
C2152 H2164 0.956 . S
C2152 H2165 0.961 . S
C2152 H2166 0.961 . S
C2153 C2150 1.539 . S
C2153 H2167 0.958 . S
C2153 H2168 0.961 . S
C2153 H2169 0.960 . S
H2154 C2138 0.931 . S
H2155 C2143 0.929 . S
H2156 C2144 0.960 . S
H2157 C2144 0.962 . S
H2158 C2144 0.960 . S
H2159 C2145 0.961 . S
H2160 C2145 0.961 . S
H2161 C2145 0.961 . S
H2162 C2146 0.931 . S
H2163 C2151 0.930 . S
H2164 C2152 0.956 . S
H2165 C2152 0.961 . S
H2166 C2152 0.961 . S
H2167 C2153 0.958 . S
H2168 C2153 0.961 . S
H2169 C2153 0.960 . S
C2170 C2171 1.391 . S
C2170 C2172 1.394 . S
C2170 H2186 0.931 . S
C2171 C2170 1.391 . S
C2171 C2175 1.376 . S
C2172 C2170 1.394 . S
C2172 C2173 1.369 . S
C2172 C2176 1.531 . S
C2173 C2172 1.369 . S
C2173 C2174 1.410 . S
C2173 C2181 1.503 . S
C2174 C2173 1.410 . S
C2174 C2175 1.392 . S
C2174 C2177 1.511 . S
C2175 C2171 1.376 . S
C2175 C2174 1.392 . S
C2175 H2187 0.929 . S
C2176 C2172 1.531 . S
C2176 H2188 0.960 . S
C2176 H2189 0.962 . S
C2176 H2190 0.960 . S
C2177 C2174 1.511 . S
C2177 H2191 0.961 . S
C2177 H2192 0.961 . S
C2177 H2193 0.961 . S
C2178 C2179 1.370 . S
C2178 C2180 1.363 . S
C2178 H2194 0.931 . S
C2179 C2178 1.370 . S
C2179 C2183 1.408 . S
C2180 C2178 1.363 . S
C2180 C2181 1.370 . S
C2180 C2184 1.524 . S
C2181 C2173 1.503 . S
C2181 C2180 1.370 . S
C2181 C2182 1.403 . S
C2182 C2181 1.403 . S
C2182 C2183 1.404 . S
C2182 C2185 1.539 . S
C2183 C2179 1.408 . S
C2183 C2182 1.404 . S
C2183 H2195 0.930 . S
C2184 C2180 1.524 . S
C2184 H2196 0.956 . S
C2184 H2197 0.961 . S
C2184 H2198 0.961 . S
C2185 C2182 1.539 . S
C2185 H2199 0.958 . S
C2185 H2200 0.961 . S
C2185 H2201 0.960 . S
H2186 C2170 0.931 . S
H2187 C2175 0.929 . S
H2188 C2176 0.960 . S
H2189 C2176 0.962 . S
H2190 C2176 0.960 . S
H2191 C2177 0.961 . S
H2192 C2177 0.961 . S
H2193 C2177 0.961 . S
H2194 C2178 0.931 . S
H2195 C2183 0.930 . S
H2196 C2184 0.956 . S
H2197 C2184 0.961 . S
H2198 C2184 0.961 . S
H2199 C2185 0.958 . S
H2200 C2185 0.961 . S
H2201 C2185 0.960 . S
C2202 C2203 1.391 . S
C2202 C2204 1.394 . S
C2202 H2218 0.931 . S
C2203 C2202 1.391 . S
C2203 C2207 1.376 . S
C2204 C2202 1.394 . S
C2204 C2205 1.369 . S
C2204 C2208 1.531 . S
C2205 C2204 1.369 . S
C2205 C2206 1.410 . S
C2205 C2213 1.503 . S
C2206 C2205 1.410 . S
C2206 C2207 1.392 . S
C2206 C2209 1.511 . S
C2207 C2203 1.376 . S
C2207 C2206 1.392 . S
C2207 H2219 0.929 . S
C2208 C2204 1.531 . S
C2208 H2220 0.960 . S
C2208 H2221 0.962 . S
C2208 H2222 0.960 . S
C2209 C2206 1.511 . S
C2209 H2223 0.961 . S
C2209 H2224 0.961 . S
C2209 H2225 0.961 . S
C2210 C2211 1.370 . S
C2210 C2212 1.363 . S
C2210 H2226 0.931 . S
C2211 C2210 1.370 . S
C2211 C2215 1.408 . S
C2212 C2210 1.363 . S
C2212 C2213 1.370 . S
C2212 C2216 1.524 . S
C2213 C2205 1.503 . S
C2213 C2212 1.370 . S
C2213 C2214 1.403 . S
C2214 C2213 1.403 . S
C2214 C2215 1.404 . S
C2214 C2217 1.539 . S
C2215 C2211 1.408 . S
C2215 C2214 1.404 . S
C2215 H2227 0.930 . S
C2216 C2212 1.524 . S
C2216 H2228 0.956 . S
C2216 H2229 0.961 . S
C2216 H2230 0.961 . S
C2217 C2214 1.539 . S
C2217 H2231 0.958 . S
C2217 H2232 0.961 . S
C2217 H2233 0.960 . S
H2218 C2202 0.931 . S
H2219 C2207 0.929 . S
H2220 C2208 0.960 . S
H2221 C2208 0.962 . S
H2222 C2208 0.960 . S
H2223 C2209 0.961 . S
H2224 C2209 0.961 . S
H2225 C2209 0.961 . S
H2226 C2210 0.931 . S
H2227 C2215 0.930 . S
H2228 C2216 0.956 . S
H2229 C2216 0.961 . S
H2230 C2216 0.961 . S
H2231 C2217 0.958 . S
H2232 C2217 0.961 . S
H2233 C2217 0.960 . S
C2234 C2235 1.391 . S
C2234 C2236 1.394 . S
C2234 H2250 0.931 . S
C2235 C2234 1.391 . S
C2235 C2239 1.376 . S
C2236 C2234 1.394 . S
C2236 C2237 1.369 . S
C2236 C2240 1.531 . S
C2237 C2236 1.369 . S
C2237 C2238 1.410 . S
C2237 C2245 1.503 . S
C2238 C2237 1.410 . S
C2238 C2239 1.392 . S
C2238 C2241 1.511 . S
C2239 C2235 1.376 . S
C2239 C2238 1.392 . S
C2239 H2251 0.929 . S
C2240 C2236 1.531 . S
C2240 H2252 0.960 . S
C2240 H2253 0.962 . S
C2240 H2254 0.960 . S
C2241 C2238 1.511 . S
C2241 H2255 0.961 . S
C2241 H2256 0.961 . S
C2241 H2257 0.961 . S
C2242 C2243 1.370 . S
C2242 C2244 1.363 . S
C2242 H2258 0.931 . S
C2243 C2242 1.370 . S
C2243 C2247 1.408 . S
C2244 C2242 1.363 . S
C2244 C2245 1.370 . S
C2244 C2248 1.524 . S
C2245 C2237 1.503 . S
C2245 C2244 1.370 . S
C2245 C2246 1.403 . S
C2246 C2245 1.403 . S
C2246 C2247 1.404 . S
C2246 C2249 1.539 . S
C2247 C2243 1.408 . S
C2247 C2246 1.404 . S
C2247 H2259 0.930 . S
C2248 C2244 1.524 . S
C2248 H2260 0.956 . S
C2248 H2261 0.961 . S
C2248 H2262 0.961 . S
C2249 C2246 1.539 . S
C2249 H2263 0.958 . S
C2249 H2264 0.961 . S
C2249 H2265 0.960 . S
H2250 C2234 0.931 . S
H2251 C2239 0.929 . S
H2252 C2240 0.960 . S
H2253 C2240 0.962 . S
H2254 C2240 0.960 . S
H2255 C2241 0.961 . S
H2256 C2241 0.961 . S
H2257 C2241 0.961 . S
H2258 C2242 0.931 . S
H2259 C2247 0.930 . S
H2260 C2248 0.956 . S
H2261 C2248 0.961 . S
H2262 C2248 0.961 . S
H2263 C2249 0.958 . S
H2264 C2249 0.961 . S
H2265 C2249 0.960 . S
C2266 C2267 1.391 . S
C2266 C2268 1.394 . S
C2266 H2282 0.931 . S
C2267 C2266 1.391 . S
C2267 C2271 1.376 . S
C2268 C2266 1.394 . S
C2268 C2269 1.369 . S
C2268 C2272 1.531 . S
C2269 C2268 1.369 . S
C2269 C2270 1.410 . S
C2269 C2277 1.503 . S
C2270 C2269 1.410 . S
C2270 C2271 1.392 . S
C2270 C2273 1.511 . S
C2271 C2267 1.376 . S
C2271 C2270 1.392 . S
C2271 H2283 0.929 . S
C2272 C2268 1.531 . S
C2272 H2284 0.960 . S
C2272 H2285 0.962 . S
C2272 H2286 0.960 . S
C2273 C2270 1.511 . S
C2273 H2287 0.961 . S
C2273 H2288 0.961 . S
C2273 H2289 0.961 . S
C2274 C2275 1.370 . S
C2274 C2276 1.363 . S
C2274 H2290 0.931 . S
C2275 C2274 1.370 . S
C2275 C2279 1.408 . S
C2276 C2274 1.363 . S
C2276 C2277 1.370 . S
C2276 C2280 1.524 . S
C2277 C2269 1.503 . S
C2277 C2276 1.370 . S
C2277 C2278 1.403 . S
C2278 C2277 1.403 . S
C2278 C2279 1.404 . S
C2278 C2281 1.539 . S
C2279 C2275 1.408 . S
C2279 C2278 1.404 . S
C2279 H2291 0.930 . S
C2280 C2276 1.524 . S
C2280 H2292 0.956 . S
C2280 H2293 0.961 . S
C2280 H2294 0.961 . S
C2281 C2278 1.539 . S
C2281 H2295 0.958 . S
C2281 H2296 0.961 . S
C2281 H2297 0.960 . S
H2282 C2266 0.931 . S
H2283 C2271 0.929 . S
H2284 C2272 0.960 . S
H2285 C2272 0.962 . S
H2286 C2272 0.960 . S
H2287 C2273 0.961 . S
H2288 C2273 0.961 . S
H2289 C2273 0.961 . S
H2290 C2274 0.931 . S
H2291 C2279 0.930 . S
H2292 C2280 0.956 . S
H2293 C2280 0.961 . S
H2294 C2280 0.961 . S
H2295 C2281 0.958 . S
H2296 C2281 0.961 . S
H2297 C2281 0.960 . S
C2298 C2299 1.391 . S
C2298 C2300 1.394 . S
C2298 H2314 0.931 . S
C2299 C2298 1.391 . S
C2299 C2303 1.376 . S
C2300 C2298 1.394 . S
C2300 C2301 1.369 . S
C2300 C2304 1.531 . S
C2301 C2300 1.369 . S
C2301 C2302 1.410 . S
C2301 C2309 1.503 . S
C2302 C2301 1.410 . S
C2302 C2303 1.392 . S
C2302 C2305 1.511 . S
C2303 C2299 1.376 . S
C2303 C2302 1.392 . S
C2303 H2315 0.929 . S
C2304 C2300 1.531 . S
C2304 H2316 0.960 . S
C2304 H2317 0.962 . S
C2304 H2318 0.960 . S
C2305 C2302 1.511 . S
C2305 H2319 0.961 . S
C2305 H2320 0.961 . S
C2305 H2321 0.961 . S
C2306 C2307 1.370 . S
C2306 C2308 1.363 . S
C2306 H2322 0.931 . S
C2307 C2306 1.370 . S
C2307 C2311 1.408 . S
C2308 C2306 1.363 . S
C2308 C2309 1.370 . S
C2308 C2312 1.524 . S
C2309 C2301 1.503 . S
C2309 C2308 1.370 . S
C2309 C2310 1.403 . S
C2310 C2309 1.403 . S
C2310 C2311 1.404 . S
C2310 C2313 1.539 . S
C2311 C2307 1.408 . S
C2311 C2310 1.404 . S
C2311 H2323 0.930 . S
C2312 C2308 1.524 . S
C2312 H2324 0.956 . S
C2312 H2325 0.961 . S
C2312 H2326 0.961 . S
C2313 C2310 1.539 . S
C2313 H2327 0.958 . S
C2313 H2328 0.961 . S
C2313 H2329 0.960 . S
H2314 C2298 0.931 . S
H2315 C2303 0.929 . S
H2316 C2304 0.960 . S
H2317 C2304 0.962 . S
H2318 C2304 0.960 . S
H2319 C2305 0.961 . S
H2320 C2305 0.961 . S
H2321 C2305 0.961 . S
H2322 C2306 0.931 . S
H2323 C2311 0.930 . S
H2324 C2312 0.956 . S
H2325 C2312 0.961 . S
H2326 C2312 0.961 . S
H2327 C2313 0.958 . S
H2328 C2313 0.961 . S
H2329 C2313 0.960 . S
C2330 C2331 1.391 . S
C2330 C2332 1.394 . S
C2330 H2346 0.931 . S
C2331 C2330 1.391 . S
C2331 C2335 1.376 . S
C2332 C2330 1.394 . S
C2332 C2333 1.369 . S
C2332 C2336 1.531 . S
C2333 C2332 1.369 . S
C2333 C2334 1.410 . S
C2333 C2341 1.503 . S
C2334 C2333 1.410 . S
C2334 C2335 1.392 . S
C2334 C2337 1.511 . S
C2335 C2331 1.376 . S
C2335 C2334 1.392 . S
C2335 H2347 0.929 . S
C2336 C2332 1.531 . S
C2336 H2348 0.960 . S
C2336 H2349 0.962 . S
C2336 H2350 0.960 . S
C2337 C2334 1.511 . S
C2337 H2351 0.961 . S
C2337 H2352 0.961 . S
C2337 H2353 0.961 . S
C2338 C2339 1.370 . S
C2338 C2340 1.363 . S
C2338 H2354 0.931 . S
C2339 C2338 1.370 . S
C2339 C2343 1.408 . S
C2340 C2338 1.363 . S
C2340 C2341 1.370 . S
C2340 C2344 1.524 . S
C2341 C2333 1.503 . S
C2341 C2340 1.370 . S
C2341 C2342 1.403 . S
C2342 C2341 1.403 . S
C2342 C2343 1.404 . S
C2342 C2345 1.539 . S
C2343 C2339 1.408 . S
C2343 C2342 1.404 . S
C2343 H2355 0.930 . S
C2344 C2340 1.524 . S
C2344 H2356 0.956 . S
C2344 H2357 0.961 . S
C2344 H2358 0.961 . S
C2345 C2342 1.539 . S
C2345 H2359 0.958 . S
C2345 H2360 0.961 . S
C2345 H2361 0.960 . S
H2346 C2330 0.931 . S
H2347 C2335 0.929 . S
H2348 C2336 0.960 . S
H2349 C2336 0.962 . S
H2350 C2336 0.960 . S
H2351 C2337 0.961 . S
H2352 C2337 0.961 . S
H2353 C2337 0.961 . S
H2354 C2338 0.931 . S
H2355 C2343 0.930 . S
H2356 C2344 0.956 . S
H2357 C2344 0.961 . S
H2358 C2344 0.961 . S
H2359 C2345 0.958 . S
H2360 C2345 0.961 . S
H2361 C2345 0.960 . S
C2362 C2363 1.391 . S
C2362 C2364 1.394 . S
C2362 H2378 0.931 . S
C2363 C2362 1.391 . S
C2363 C2367 1.376 . S
C2364 C2362 1.394 . S
C2364 C2365 1.369 . S
C2364 C2368 1.531 . S
C2365 C2364 1.369 . S
C2365 C2366 1.410 . S
C2365 C2373 1.503 . S
C2366 C2365 1.410 . S
C2366 C2367 1.392 . S
C2366 C2369 1.511 . S
C2367 C2363 1.376 . S
C2367 C2366 1.392 . S
C2367 H2379 0.929 . S
C2368 C2364 1.531 . S
C2368 H2380 0.960 . S
C2368 H2381 0.962 . S
C2368 H2382 0.960 . S
C2369 C2366 1.511 . S
C2369 H2383 0.961 . S
C2369 H2384 0.961 . S
C2369 H2385 0.961 . S
C2370 C2371 1.370 . S
C2370 C2372 1.363 . S
C2370 H2386 0.931 . S
C2371 C2370 1.370 . S
C2371 C2375 1.408 . S
C2372 C2370 1.363 . S
C2372 C2373 1.370 . S
C2372 C2376 1.524 . S
C2373 C2365 1.503 . S
C2373 C2372 1.370 . S
C2373 C2374 1.403 . S
C2374 C2373 1.403 . S
C2374 C2375 1.404 . S
C2374 C2377 1.539 . S
C2375 C2371 1.408 . S
C2375 C2374 1.404 . S
C2375 H2387 0.930 . S
C2376 C2372 1.524 . S
C2376 H2388 0.956 . S
C2376 H2389 0.961 . S
C2376 H2390 0.961 . S
C2377 C2374 1.539 . S
C2377 H2391 0.958 . S
C2377 H2392 0.961 . S
C2377 H2393 0.960 . S
H2378 C2362 0.931 . S
H2379 C2367 0.929 . S
H2380 C2368 0.960 . S
H2381 C2368 0.962 . S
H2382 C2368 0.960 . S
H2383 C2369 0.961 . S
H2384 C2369 0.961 . S
H2385 C2369 0.961 . S
H2386 C2370 0.931 . S
H2387 C2375 0.930 . S
H2388 C2376 0.956 . S
H2389 C2376 0.961 . S
H2390 C2376 0.961 . S
H2391 C2377 0.958 . S
H2392 C2377 0.961 . S
H2393 C2377 0.960 . S
C867 C683 1.645 . S
C859 C74 1.640 . S
C899 C673 1.392 . S
C891 C153 1.278 . S
C931 C674 1.243 . S
C923 C231 1.218 . S
C955 C310 0.872 . S
C963 C696 0.539 . S
C987 C394 1.326 . S
C995 C699 1.401 . S
C1027 C682 1.255 . S
C1019 C494 1.230 . S
C1051 C573 0.711 . S
C1059 C672 0.618 . S
C1083 C651 1.631 . S
C1091 C690 1.661 . S
C1123 C703 2.448 . S
C1115 C56 2.536 . S
C1147 C151 1.611 . S
C1155 C752 1.574 . S
C1187 C730 1.404 . S
C1179 C237 1.376 . S
C1219 C744 1.218 . S
C1211 C326 1.227 . S
C1243 C410 1.219 . S
C1251 C705 1.221 . S
C1283 C758 2.444 . S
C1275 C476 2.548 . S
C1307 C571 1.616 . S
C1315 C714 1.585 . S
C1339 C657 1.321 . S
C1347 C735 1.383 . S
C1371 C58 1.279 . S
C1379 C761 1.403 . S
C1403 C392 1.604 . S
C1411 C745 1.569 . S
C1443 C704 1.412 . S
C1435 C478 1.415 . S
C1475 C736 1.229 . S
C1467 C567 1.253 . S
C1499 C655 2.536 . S
C1507 C727 2.449 . S
C1531 C235 2.540 . S
C1539 C734 2.460 . S
C1571 C721 1.589 . S
C1563 C308 1.618 . S
C1595 C147 1.246 . S
C1603 C713 1.209 . S
C1627 C662 1.614 . S
C1635 C776 1.659 . S
C1659 C405 1.357 . S
C1667 C766 1.389 . S
C1699 C767 1.235 . S
C1691 C483 1.269 . S
C1731 C789 0.614 . S
C1723 C562 0.776 . S
C1755 C142 1.277 . S
C1763 C792 1.401 . S
C1795 C775 1.250 . S
C1787 C242 1.246 . S
C1819 C321 0.715 . S
C1827 C765 0.572 . S
C1851 C63 1.634 . S
C1859 C783 1.661 . S
C1883 C644 2.533 . S
C1891 C796 2.452 . S
C1923 C845 1.561 . S
C1915 C403 1.602 . S
C1947 C489 1.405 . S
C1955 C823 1.409 . S
C1979 C578 1.192 . S
C1987 C837 1.229 . S
C2019 C798 1.230 . S
C2011 C158 1.206 . S
C2043 C224 2.540 . S
C2051 C851 2.462 . S
C2083 C807 1.584 . S
C2075 C319 1.614 . S
C2115 C828 1.389 . S
C2107 C69 1.291 . S
C2147 C854 1.394 . S
C2139 C646 1.289 . S
C2171 C140 1.602 . S
C2179 C838 1.559 . S
C2203 C226 1.367 . S
C2211 C797 1.405 . S
C2243 C829 1.219 . S
C2235 C315 1.204 . S
C2267 C67 2.532 . S
C2275 C820 2.452 . S
C2299 C487 2.546 . S
C2307 C827 2.457 . S
C2339 C814 1.590 . S
C2331 C560 1.618 . S
C2371 C806 1.217 . S
C2363 C399 1.233 . S
