# Generated by pormake.
# Topology anh, (6,3)-cn, num edge types: 1
# Building blocks:
#     Node 0, Type 0, BuildingBlock: BETFEN_clean_sbu_0, # of connection points: 6
#     Node 1, Type 0, BuildingBlock: BETFEN_clean_sbu_0, # of connection points: 6
#     Node 2, Type 0, BuildingBlock: BETFEN_clean_sbu_0, # of connection points: 6
#     Node 3, Type 1, BuildingBlock: OLANEW_clean_sbu_2, # of connection points: 3
#     Node 4, Type 1, BuildingBlock: OLANEW_clean_sbu_2, # of connection points: 3
#     Node 5, Type 1, BuildingBlock: OLANEW_clean_sbu_2, # of connection points: 3
#     Node 6, Type 1, BuildingBlock: OLANEW_clean_sbu_2, # of connection points: 3
#     Node 7, Type 1, BuildingBlock: OLANEW_clean_sbu_2, # of connection points: 3
#     Node 8, Type 1, BuildingBlock: OLANEW_clean_sbu_2, # of connection points: 3
#     Edge 9, Type (0, 1), BuildingBlock: EZIPEK_clean_linker_0, # of connection points: 2
#     Edge 10, Type (0, 1), BuildingBlock: EZIPEK_clean_linker_0, # of connection points: 2
#     Edge 11, Type (0, 1), BuildingBlock: EZIPEK_clean_linker_0, # of connection points: 2
#     Edge 12, Type (0, 1), BuildingBlock: EZIPEK_clean_linker_0, # of connection points: 2
#     Edge 13, Type (0, 1), BuildingBlock: EZIPEK_clean_linker_0, # of connection points: 2
#     Edge 14, Type (0, 1), BuildingBlock: EZIPEK_clean_linker_0, # of connection points: 2
#     Edge 15, Type (0, 1), BuildingBlock: EZIPEK_clean_linker_0, # of connection points: 2
#     Edge 16, Type (0, 1), BuildingBlock: EZIPEK_clean_linker_0, # of connection points: 2
#     Edge 17, Type (0, 1), BuildingBlock: EZIPEK_clean_linker_0, # of connection points: 2
#     Edge 18, Type (0, 1), BuildingBlock: EZIPEK_clean_linker_0, # of connection points: 2
#     Edge 19, Type (0, 1), BuildingBlock: EZIPEK_clean_linker_0, # of connection points: 2
#     Edge 20, Type (0, 1), BuildingBlock: EZIPEK_clean_linker_0, # of connection points: 2
#     Edge 21, Type (0, 1), BuildingBlock: EZIPEK_clean_linker_0, # of connection points: 2
#     Edge 22, Type (0, 1), BuildingBlock: EZIPEK_clean_linker_0, # of connection points: 2
#     Edge 23, Type (0, 1), BuildingBlock: EZIPEK_clean_linker_0, # of connection points: 2
#     Edge 24, Type (0, 1), BuildingBlock: EZIPEK_clean_linker_0, # of connection points: 2
#     Edge 25, Type (0, 1), BuildingBlock: EZIPEK_clean_linker_0, # of connection points: 2
#     Edge 26, Type (0, 1), BuildingBlock: EZIPEK_clean_linker_0, # of connection points: 2
# Relax obj value: 0.195
# Max RMSD: 0.192
# Mean RMSD: 0.123
data_MOF--net-anh--node1-BETFEN_clean_sbu_0--node2-OLANEW_clean_sbu_2--edge1-EZIPEK_clean_linker_0
_symmetry_space_group_name_H-M    P1
_symmetry_Int_Tables_number       1
_symmetry_cell_setting            triclinic
loop_
_symmetry_equiv_pos_as_xyz
'x, y, z'
_cell_length_a     25.573587
_cell_length_b     29.488674
_cell_length_c     37.40423
_cell_angle_alpha  89.682957
_cell_angle_beta   92.524161
_cell_angle_gamma 105.03502
loop_
_atom_site_label
_atom_site_type_symbol
_atom_site_fract_x
_atom_site_fract_y
_atom_site_fract_z
_atom_type_partial_charge
Pr0 Pr 0.9957 0.49141 0.15541 0.0
Pr1 Pr 0.02948 0.59683 0.14978 0.0
C2 C 0.97271 0.40037 0.17514 0.0
C3 C 0.92438 0.36186 0.18165 0.0
C4 C 0.9252 0.31534 0.17477 0.0
C5 C 0.88025 0.27826 0.1818 0.0
C6 C 0.83402 0.28727 0.19597 0.0
C7 C 0.83288 0.33379 0.20254 0.0
C8 C 0.87767 0.3709 0.19525 0.0
C9 C 0.99238 0.52312 0.08501 0.0
C10 C 0.90026 0.54601 0.14451 0.0
C11 C 0.07588 0.68854 0.13748 0.0
C12 C 0.13118 0.71955 0.14003 0.0
C13 C 0.13878 0.76679 0.14962 0.0
C14 C 0.19075 0.79489 0.15838 0.0
C15 C 0.23573 0.77602 0.15766 0.0
C16 C 0.22855 0.72943 0.14635 0.0
C17 C 0.17651 0.7013 0.13764 0.0
C18 C 1.00113 0.56457 0.21836 0.0
C19 C 0.12641 0.54109 0.15245 0.0
O20 O 0.98366 0.43539 0.19788 0.0
O21 O 0.98044 0.41383 0.14202 0.0
O22 O 0.02949 0.53965 0.10834 0.0
O23 O 0.95555 0.48849 0.09771 0.0
O24 O 0.93775 0.58106 0.13159 0.0
O25 O 0.91321 0.51067 0.16127 0.0
O26 O 0.06452 0.6567 0.11213 0.0
O27 O 0.05623 0.67254 0.16799 0.0
O28 O 0.03035 0.54822 0.19828 0.0
O29 O 0.98529 0.59852 0.20297 0.0
O30 O 0.08854 0.50115 0.15031 0.0
O31 O 0.11485 0.5818 0.15616 0.0
H32 H 0.96079 0.3077 0.16422 0.0
H33 H 0.88167 0.24251 0.17657 0.0
H34 H 0.79741 0.34128 0.21338 0.0
H35 H 0.87596 0.40657 0.20048 0.0
H36 H 0.10426 0.78132 0.15197 0.0
H37 H 0.19565 0.83068 0.16735 0.0
H38 H 0.26283 0.71426 0.14595 0.0
H39 H 0.17151 0.66486 0.13061 0.0
Pr40 Pr 0.59089 0.03937 0.547 0.0
Pr41 Pr 0.47081 1.01117 0.54656 0.0
C42 C 0.69502 0.0817 0.53416 0.0
C43 C 0.72526 0.13061 0.5273 0.0
C44 C 0.71979 0.16788 0.54893 0.0
C45 C 0.74637 0.21426 0.54079 0.0
C46 C 0.77814 0.22411 0.51066 0.0
C47 C 0.78391 0.18695 0.48921 0.0
C48 C 0.75774 0.14055 0.49751 0.0
C49 C 0.55124 0.03158 0.61563 0.0
C50 C 0.52356 0.12365 0.54555 0.0
C51 C 0.36544 0.96856 0.55584 0.0
C52 C 0.32946 0.92182 0.5469 0.0
C53 C 0.27384 0.91657 0.53998 0.0
C54 C 0.23975 0.87273 0.53002 0.0
C55 C 0.26086 0.83352 0.52688 0.0
C56 C 0.31652 0.83875 0.53379 0.0
C57 C 0.35055 0.88255 0.54371 0.0
C58 C 0.51125 0.02361 0.47818 0.0
C59 C 0.53875 0.92671 0.55224 0.0
O60 O 0.65962 0.0616 0.50907 0.0
O61 O 0.6776 0.0719 0.56634 0.0
O62 O 0.53234 0.05055 0.58953 0.0
O63 O 0.59136 0.0153 0.60652 0.0
O64 O 0.48074 0.0916 0.55609 0.0
O65 O 0.56723 0.11129 0.53606 0.0
O66 O 0.40371 0.9701 0.58056 0.0
O67 O 0.38203 0.99575 0.52869 0.0
O68 O 0.52938 1.00224 0.50322 0.0
O69 O 0.46958 0.03722 0.4876 0.0
O70 O 0.58333 0.95844 0.54418 0.0
O71 O 0.49345 0.93898 0.55738 0.0
H72 H 0.69442 0.1613 0.57182 0.0
H73 H 0.74145 0.24255 0.55759 0.0
H74 H 0.80824 0.19396 0.46583 0.0
H75 H 0.76216 0.11243 0.48033 0.0
H76 H 0.25686 0.94647 0.54201 0.0
H77 H 0.19693 0.86936 0.52467 0.0
H78 H 0.3336 0.80898 0.5313 0.0
H79 H 0.39334 0.88576 0.54865 0.0
Pr80 Pr 0.47557 0.48066 0.79793 0.0
Pr81 Pr 0.52475 0.58251 0.80926 0.0
C82 C 0.42471 0.3931 0.7749 0.0
C83 C 0.41899 0.34189 0.77715 0.0
C84 C 0.38697 0.31457 0.80311 0.0
C85 C 0.37426 0.26552 0.80139 0.0
C86 C 0.39322 0.24301 0.7737 0.0
C87 C 0.42717 0.27008 0.74872 0.0
C88 C 0.43975 0.3191 0.75033 0.0
C89 C 0.50408 0.50244 0.87029 0.0
C90 C 0.60743 0.51575 0.80896 0.0
C91 C 0.56109 0.6754 0.8221 0.0
C92 C 0.55292 0.71912 0.83702 0.0
C93 C 0.51226 0.73902 0.82264 0.0
C94 C 0.51289 0.78524 0.83117 0.0
C95 C 0.55396 0.81198 0.85423 0.0
C96 C 0.59212 0.79111 0.87067 0.0
C97 C 0.59165 0.74496 0.86206 0.0
C98 C 0.52168 0.55282 0.73774 0.0
C99 C 0.39131 0.54611 0.80933 0.0
O100 O 0.46723 0.41943 0.75982 0.0
O101 O 0.40812 0.41405 0.80125 0.0
O102 O 0.48263 0.52663 0.84923 0.0
O103 O 0.50955 0.465 0.85448 0.0
O104 O 0.59879 0.55299 0.82426 0.0
O105 O 0.56804 0.48578 0.79077 0.0
O106 O 0.57206 0.64395 0.84392 0.0
O107 O 0.53251 0.65753 0.79328 0.0
O108 O 0.48314 0.54212 0.75853 0.0
O109 O 0.56524 0.57636 0.75491 0.0
O110 O 0.39608 0.50555 0.7974 0.0
O111 O 0.43403 0.58078 0.81811 0.0
H112 H 0.36989 0.33094 0.82391 0.0
H113 H 0.34787 0.2451 0.82082 0.0
H114 H 0.44197 0.25321 0.72709 0.0
H115 H 0.46387 0.33911 0.72968 0.0
H116 H 0.48192 0.71998 0.80324 0.0
H117 H 0.48338 0.80107 0.81812 0.0
H118 H 0.62432 0.81152 0.88828 0.0
H119 H 0.62361 0.7305 0.87326 0.0
O120 O 0.55032 0.05014 0.30853 0.0
Cd121 Cd 0.56611 0.05481 0.24432 0.0
O122 O 0.53806 0.97337 0.31089 0.0
Cd123 Cd 0.5252 0.96247 0.25309 0.0
O124 O 0.45971 0.92607 0.2157 0.0
C125 C 0.442 0.88211 0.22029 0.0
O126 O 0.46637 0.86129 0.24448 0.0
C127 C 0.54303 0.01249 0.32658 0.0
C128 C 0.65243 0.13105 0.22844 0.0
O129 O 0.60367 0.13506 0.2272 0.0
O130 O 0.66061 0.09128 0.2371 0.0
O131 O 0.53244 0.47418 0.58161 0.0
Cd132 Cd 0.54073 0.4219 0.53049 0.0
O133 O 0.5382 0.54648 0.56109 0.0
Cd134 Cd 0.53957 0.62361 0.56482 0.0
O135 O 0.55011 0.70193 0.55758 0.0
C136 C 0.51997 0.72577 0.57043 0.0
O137 O 0.47912 0.70436 0.58963 0.0
C138 C 0.53266 0.51719 0.58694 0.0
C139 C 0.53375 0.32441 0.54095 0.0
O140 O 0.57931 0.35543 0.54403 0.0
O141 O 0.4912 0.33891 0.53443 0.0
O142 O 0.05153 0.53521 0.91471 0.0
Cd143 Cd 0.0623 0.53979 0.8499 0.0
O144 O 0.96453 0.53397 0.91489 0.0
Cd145 Cd 0.94198 0.53406 0.85776 0.0
O146 O 0.86589 0.53306 0.82797 0.0
C147 C 0.82635 0.49745 0.83245 0.0
O148 O 0.8345 0.4622 0.85156 0.0
C149 C 0.00897 0.5339 0.93149 0.0
C150 C 0.17019 0.54756 0.83428 0.0
O151 O 0.15348 0.58434 0.83915 0.0
O152 O 0.13619 0.50729 0.83629 0.0
O153 O 0.05132 0.56095 0.39143 0.0
Cd154 Cd 0.06076 0.56438 0.45691 0.0
O155 O 0.96352 0.52667 0.38778 0.0
Cd156 Cd 0.95457 0.50258 0.44308 0.0
O157 O 0.91867 0.44111 0.4755 0.0
C158 C 0.88266 0.40919 0.45906 0.0
O159 O 0.86879 0.41598 0.42562 0.0
C160 C 0.0073 0.54639 0.37283 0.0
C161 C 0.12512 0.65193 0.4805 0.0
O162 O 0.14639 0.61811 0.47422 0.0
O163 O 0.07366 0.64466 0.47588 0.0
O164 O 0.59636 0.10593 0.77782 0.0
Cd165 Cd 0.59852 0.10726 0.84297 0.0
O166 O 0.50947 0.07574 0.78318 0.0
Cd167 Cd 0.4279 0.04147 0.76284 0.0
O168 O 0.3404 0.01382 0.75617 0.0
C169 C 0.30969 0.04142 0.75712 0.0
O170 O 0.25692 0.02412 0.75377 0.0
C171 C 0.55014 0.086 0.7636 0.0
C172 C 0.58493 0.01308 0.85849 0.0
O173 O 0.54381 0.03028 0.85564 0.0
O174 O 0.63242 0.04089 0.85667 0.0
O175 O 0.54654 0.52056 0.04342 0.0
Cd176 Cd 0.56206 0.52814 0.10833 0.0
O177 O 0.45764 0.51008 0.03983 0.0
Cd178 Cd 0.44306 0.51711 0.09643 0.0
O179 O 0.37866 0.5285 0.12915 0.0
C180 C 0.33345 0.52077 0.11165 0.0
O181 O 0.33068 0.50709 0.07809 0.0
C182 C 0.50219 0.51342 0.02494 0.0
C183 C 0.67186 0.53699 0.12425 0.0
O184 O 0.63786 0.49653 0.12304 0.0
O185 O 0.65416 0.57342 0.11885 0.0
C186 C 0.20797 0.56455 0.11514 0.0
C187 C 0.18286 0.54068 0.1455 0.0
C188 C 0.2596 0.50601 0.15626 0.0
C189 C 0.28547 0.53161 0.12682 0.0
N190 N 0.29171 0.5954 0.08531 0.0
N191 N 0.1892 0.49681 0.19931 0.0
C192 C 0.26199 0.56421 0.10859 0.0
C193 C 0.21015 0.51394 0.16749 0.0
N194 N 0.17925 0.58479 0.09104 0.0
N195 N 0.28068 0.47252 0.1723 0.0
H196 H 0.15328 0.50236 0.20828 0.0
H197 H 0.20972 0.4809 0.21816 0.0
H198 H 0.31696 0.46601 0.16504 0.0
H199 H 0.26041 0.44901 0.19111 0.0
H200 H 0.19402 0.59797 0.06652 0.0
H201 H 0.13877 0.58448 0.09366 0.0
H202 H 0.27845 0.62304 0.07397 0.0
H203 H 0.33195 0.59674 0.08041 0.0
C204 C 0.77327 0.30306 0.48694 0.0
C205 C 0.80485 0.27342 0.50098 0.0
C206 C 0.88827 0.33367 0.48895 0.0
C207 C 0.85667 0.36424 0.47664 0.0
N208 N 0.76997 0.38236 0.47193 0.0
N209 N 0.89147 0.26411 0.52294 0.0
C210 C 0.79937 0.35021 0.4781 0.0
C211 C 0.86213 0.28993 0.50439 0.0
N212 N 0.71867 0.28566 0.48053 0.0
N213 N 0.9428 0.34507 0.48408 0.0
H214 H 0.87361 0.23199 0.53472 0.0
H215 H 0.93272 0.2765 0.5295 0.0
H216 H 0.96363 0.37644 0.47254 0.0
H217 H 0.9667 0.32173 0.48869 0.0
H218 H 0.69465 0.30407 0.46663 0.0
H219 H 0.69789 0.25127 0.48642 0.0
H220 H 0.72868 0.37551 0.47616 0.0
H221 H 0.78789 0.41743 0.46605 0.0
C222 C 0.59061 0.89178 0.8289 0.0
C223 C 0.56234 0.86355 0.85633 0.0
C224 C 0.55321 0.93398 0.88737 0.0
C225 C 0.57754 0.96168 0.85841 0.0
N226 N 0.60949 0.96627 0.79828 0.0
N227 N 0.5113 0.85596 0.90959 0.0
C228 C 0.59372 0.94044 0.82829 0.0
C229 C 0.54207 0.88414 0.88505 0.0
N230 N 0.61554 0.87223 0.80375 0.0
N231 N 0.54246 0.95545 0.91746 0.0
H232 H 0.50353 0.81943 0.909 0.0
H233 H 0.49048 0.86834 0.92903 0.0
H234 H 0.55017 0.99184 0.9199 0.0
H235 H 0.52982 0.93768 0.94095 0.0
H236 H 0.64214 0.89198 0.78577 0.0
H237 H 0.61339 0.83646 0.80263 0.0
H238 H 0.61531 0.95146 0.77404 0.0
H239 H 0.6118 1.00201 0.79628 0.0
C240 C 0.80943 0.5413 0.16973 0.0
C241 C 0.84217 0.54562 0.13952 0.0
C242 C 0.76438 0.55046 0.10015 0.0
C243 C 0.73064 0.5413 0.12985 0.0
N244 N 0.71883 0.52269 0.19229 0.0
N245 N 0.84853 0.54576 0.07525 0.0
C246 C 0.75251 0.53499 0.16447 0.0
C247 C 0.81918 0.54829 0.10452 0.0
N248 N 0.83307 0.54548 0.20348 0.0
N249 N 0.74404 0.56105 0.06765 0.0
H250 H 0.88814 0.54261 0.07707 0.0
H251 H 0.83212 0.5422 0.04913 0.0
H252 H 0.70344 0.56059 0.06275 0.0
H253 H 0.76818 0.57368 0.0462 0.0
H254 H 0.81224 0.54745 0.22648 0.0
H255 H 0.87474 0.55153 0.20847 0.0
H256 H 0.73127 0.5121 0.21713 0.0
H257 H 0.67734 0.52002 0.18985 0.0
C258 C 0.21202 0.74956 0.54044 0.0
C259 C 0.22482 0.78699 0.5157 0.0
C260 C 0.16892 0.73698 0.4686 0.0
C261 C 0.15929 0.69849 0.49264 0.0
N262 N 0.17532 0.66609 0.55022 0.0
N263 N 0.22275 0.81693 0.45696 0.0
C264 C 0.18207 0.70418 0.52822 0.0
C265 C 0.2047 0.78067 0.47984 0.0
N266 N 0.22662 0.75801 0.57588 0.0
N267 N 0.14369 0.73164 0.43529 0.0
H268 H 0.2142 0.81573 0.42943 0.0
H269 H 0.2142 0.81573 0.42943 0.0
H270 H 0.11982 0.69952 0.42553 0.0
H271 H 0.14347 0.75931 0.41797 0.0
H272 H 0.21387 0.73371 0.59603 0.0
H273 H 0.24815 0.79093 0.58566 0.0
H274 H 0.19599 0.66658 0.57488 0.0
H275 H 0.15131 0.63285 0.54296 0.0
C276 C 0.39267 0.16083 0.79268 0.0
C277 C 0.3735 0.19126 0.76901 0.0
C278 C 0.31899 0.12338 0.73486 0.0
C279 C 0.333 0.09291 0.76094 0.0
N280 N 0.37608 0.08299 0.81819 0.0
N281 N 0.3109 0.20166 0.72134 0.0
C282 C 0.36814 0.11168 0.79079 0.0
C283 C 0.33454 0.17258 0.74112 0.0
N284 N 0.43504 0.17879 0.81644 0.0
N285 N 0.29276 0.10552 0.70335 0.0
H286 H 0.3208 0.23795 0.72514 0.0
H287 H 0.27795 0.18936 0.70342 0.0
H288 H 0.28208 0.06977 0.69716 0.0
H289 H 0.28659 0.12647 0.68189 0.0
H290 H 0.45465 0.15792 0.83165 0.0
H291 H 0.45374 0.21465 0.81864 0.0
H292 H 0.39674 0.09547 0.84224 0.0
H293 H 0.35795 0.04699 0.81828 0.0
C294 C 0.49936 0.84202 0.53316 0.0
C295 C 0.53797 0.87551 0.55458 0.0
C296 C 0.57174 0.81085 0.58103 0.0
C297 C 0.52887 0.77729 0.56286 0.0
N298 N 0.44861 0.76083 0.52379 0.0
N299 N 0.60664 0.89114 0.60246 0.0
C300 C 0.49173 0.79294 0.53959 0.0
C301 C 0.57348 0.85978 0.5792 0.0
N302 N 0.47159 0.85712 0.50546 0.0
N303 N 0.61074 0.79596 0.60031 0.0
H304 H 0.60859 0.92686 0.60248 0.0
H305 H 0.62886 0.88135 0.62376 0.0
H306 H 0.60966 0.76056 0.60343 0.0
H307 H 0.64626 0.81861 0.61087 0.0
H308 H 0.44683 0.8347 0.48661 0.0
H309 H 0.47736 0.8925 0.49915 0.0
H310 H 0.41625 0.76997 0.51043 0.0
H311 H 0.44344 0.72466 0.52584 0.0
C312 C 0.68408 0.50558 0.84943 0.0
C313 C 0.66207 0.50719 0.81405 0.0
C314 C 0.74686 0.49795 0.79021 0.0
C315 C 0.7702 0.50128 0.82552 0.0
N316 N 0.76469 0.51768 0.8882 0.0
N317 N 0.67482 0.51139 0.75043 0.0
C318 C 0.73982 0.5077 0.85498 0.0
C319 C 0.69393 0.50482 0.78424 0.0
N320 N 0.65126 0.5002 0.87784 0.0
N321 N 0.77488 0.4874 0.76253 0.0
H322 H 0.63653 0.5167 0.74495 0.0
H323 H 0.69836 0.51522 0.72805 0.0
H324 H 0.81405 0.48317 0.766 0.0
H325 H 0.75799 0.47945 0.73676 0.0
H326 H 0.66378 0.49376 0.90382 0.0
H327 H 0.6099 0.49714 0.87493 0.0
H328 H 0.74601 0.52812 0.90974 0.0
H329 H 0.80569 0.52004 0.89356 0.0
C330 C 0.33026 0.82721 0.15043 0.0
C331 C 0.28906 0.80323 0.17307 0.0
C332 C 0.34583 0.83603 0.22594 0.0
C333 C 0.38913 0.85619 0.20356 0.0
N334 N 0.42548 0.86667 0.14481 0.0
N335 N 0.26057 0.77783 0.23222 0.0
C336 C 0.38213 0.85081 0.1658 0.0
C337 C 0.29774 0.80558 0.2108 0.0
N338 N 0.31939 0.82817 0.11437 0.0
N339 N 0.34952 0.84781 0.26146 0.0
H340 H 0.22443 0.75529 0.22228 0.0
H341 H 0.26771 0.77404 0.25956 0.0
H342 H 0.38327 0.87133 0.27351 0.0
H343 H 0.31704 0.83816 0.27821 0.0
H344 H 0.3456 0.84913 0.09677 0.0
H345 H 0.28221 0.81045 0.10227 0.0
H346 H 0.42451 0.85949 0.11753 0.0
H347 H 0.46392 0.88415 0.15517 0.0
C348 C 0.51235 0.19798 0.57527 0.0
C349 C 0.52354 0.17466 0.54436 0.0
C350 C 0.54603 0.25042 0.51269 0.0
C351 C 0.5307 0.27295 0.5425 0.0
N352 N 0.49203 0.26704 0.60043 0.0
N353 N 0.53881 0.17724 0.48117 0.0
C354 C 0.51144 0.24627 0.5732 0.0
C355 C 0.53729 0.20059 0.51243 0.0
N356 N 0.50533 0.17483 0.60718 0.0
N357 N 0.56909 0.27663 0.48446 0.0
H358 H 0.52935 0.14073 0.47943 0.0
H359 H 0.54341 0.19348 0.45629 0.0
H360 H 0.57397 0.31279 0.48275 0.0
H361 H 0.58705 0.26311 0.464 0.0
H362 H 0.50354 0.19129 0.63148 0.0
H363 H 0.50585 0.1398 0.61006 0.0
H364 H 0.4716 0.24844 0.62161 0.0
H365 H 0.493 0.30262 0.6006 0.0
C366 C 0.29786 0.54589 0.78584 0.0
C367 C 0.33612 0.55123 0.81518 0.0
C368 C 0.26735 0.56186 0.85585 0.0
C369 C 0.22775 0.55127 0.82722 0.0
N370 N 0.20336 0.52973 0.76547 0.0
N371 N 0.35575 0.55718 0.87902 0.0
C372 C 0.24247 0.54228 0.79232 0.0
C373 C 0.32069 0.55784 0.85042 0.0
N374 N 0.31495 0.54586 0.7517 0.0
N375 N 0.25393 0.57551 0.88833 0.0
H376 H 0.39486 0.55352 0.87649 0.0
H377 H 0.34468 0.55616 0.90552 0.0
H378 H 0.21473 0.57671 0.89395 0.0
H379 H 0.28239 0.58902 0.90891 0.0
H380 H 0.29033 0.5468 0.72895 0.0
H381 H 0.35535 0.54911 0.74603 0.0
H382 H 0.21024 0.51724 0.7406 0.0
H383 H 0.16288 0.52913 0.76872 0.0
C384 C 0.74449 0.23147 0.17823 0.0
C385 C 0.78696 0.24774 0.20445 0.0
C386 C 0.73858 0.19047 0.2474 0.0
C387 C 0.6984 0.17155 0.22024 0.0
N388 N 0.66657 0.1691 0.15843 0.0
N389 N 0.82847 0.23997 0.2625 0.0
C390 C 0.70211 0.19087 0.18529 0.0
C391 C 0.78518 0.22639 0.23863 0.0
N392 N 0.74434 0.25526 0.14675 0.0
N393 N 0.73101 0.17551 0.28193 0.0
H394 H 0.86245 0.26733 0.25758 0.0
H395 H 0.83255 0.22213 0.28612 0.0
H396 H 0.6972 0.1496 0.28949 0.0
H397 H 0.75571 0.19141 0.30364 0.0
H398 H 0.71156 0.2486 0.12828 0.0
H399 H 0.77559 0.28418 0.14015 0.0
H400 H 0.67066 0.17826 0.13159 0.0
H401 H 0.63523 0.13913 0.16246 0.0
C402 C 0.9976 0.56913 0.02778 0.0
C403 C 1.00167 0.52784 0.04612 0.0
C404 C 0.01372 0.49126 0.98933 0.0
C405 C 0.01062 0.53284 0.9711 0.0
N406 N 0.01085 0.6145 0.97301 0.0
N407 N 0.02761 0.45479 0.04596 0.0
C408 C 0.0059 0.57276 0.99038 0.0
C409 C 0.0139 0.49039 0.02735 0.0
N410 N 0.98417 0.6043 0.04587 0.0
N411 N 0.0143 0.45197 0.97027 0.0
H412 H 0.02938 0.45343 0.07384 0.0
H413 H 0.04237 0.42908 0.03401 0.0
H414 H 0.01514 0.45142 0.94242 0.0
H415 H 0.00993 0.41904 0.98179 0.0
H416 H 0.97378 0.63262 0.03347 0.0
H417 H 0.98024 0.60375 0.07343 0.0
H418 H 0.0135 0.64619 0.98602 0.0
H419 H 0.01706 0.61835 0.94566 0.0
C420 C 0.48507 0.98416 0.41869 0.0
C421 C 0.52202 0.01861 0.44005 0.0
C422 C 0.57698 0.04429 0.38799 0.0
C423 C 0.53667 0.01369 0.36581 0.0
N424 N 0.44668 0.96123 0.35925 0.0
N425 N 0.59802 0.08698 0.44413 0.0
C426 C 0.48927 0.98513 0.38094 0.0
C427 C 0.56668 0.05019 0.42449 0.0
N428 N 0.44606 0.95027 0.43447 0.0
N429 N 0.62581 0.06652 0.37456 0.0
H430 H 0.59138 0.09249 0.47083 0.0
H431 H 0.62747 0.11409 0.43318 0.0
H432 H 0.63537 0.06223 0.34818 0.0
H433 H 0.65862 0.0855 0.39041 0.0
H434 H 0.42193 0.92119 0.42066 0.0
H435 H 0.44093 0.94895 0.462 0.0
H436 H 0.40908 0.94398 0.36879 0.0
H437 H 0.44664 0.96251 0.3314 0.0
C438 C 0.47787 0.51033 0.6799 0.0
C439 C 0.51624 0.54831 0.6977 0.0
C440 C 0.56228 0.56933 0.6414 0.0
C441 C 0.52432 0.53166 0.62377 0.0
N442 N 0.43616 0.47687 0.62324 0.0
N443 N 0.57675 0.62543 0.68983 0.0
C444 C 0.47907 0.50539 0.64214 0.0
C445 C 0.55302 0.58137 0.6768 0.0
N446 N 0.44108 0.47797 0.6985 0.0
N447 N 0.60841 0.59256 0.62522 0.0
H448 H 0.56604 0.63771 0.7138 0.0
H449 H 0.60068 0.65176 0.67446 0.0
H450 H 0.61757 0.58445 0.59954 0.0
H451 H 0.63979 0.61705 0.63868 0.0
H452 H 0.41897 0.44602 0.68744 0.0
H453 H 0.43342 0.48142 0.72518 0.0
H454 H 0.39951 0.46067 0.63453 0.0
H455 H 0.4349 0.47356 0.59543 0.0
C456 C 0.57022 0.09328 0.66375 0.0
C457 C 0.54726 0.0459 0.653 0.0
C458 C 0.52568 0.02436 0.71497 0.0
C459 C 0.54485 0.07246 0.72522 0.0
N460 N 0.57344 0.15372 0.70797 0.0
N461 N 0.49502 0.96785 0.66662 0.0
C462 C 0.56351 0.10725 0.69915 0.0
C463 C 0.52234 1.01191 0.67809 0.0
N464 N 0.60074 0.12449 0.6408 0.0
N465 N 0.51363 0.99025 0.74047 0.0
H466 H 0.49272 0.95735 0.63987 0.0
H467 H 0.47097 0.94304 0.68303 0.0
H468 H 0.51593 0.99741 0.76782 0.0
H469 H 0.50573 0.95453 0.73475 0.0
H470 H 0.62317 0.15802 0.64857 0.0
H471 H 0.60761 0.11575 0.61477 0.0
H472 H 0.5817 0.18052 0.68914 0.0
H473 H 0.56793 0.1652 0.73353 0.0
C474 C 0.46703 0.46995 0.92897 0.0
C475 C 0.50265 0.50598 0.90985 0.0
C476 C 0.53275 0.54945 0.96601 0.0
C477 C 0.5025 0.51069 0.98539 0.0
N478 N 0.44766 0.43063 0.98573 0.0
N479 N 0.5751 0.57714 0.91078 0.0
C480 C 0.47143 0.46996 0.96699 0.0
C481 C 0.53701 0.545 0.92854 0.0
N482 N 0.42733 0.43687 0.91096 0.0
N483 N 0.55552 0.59126 0.98309 0.0
H484 H 0.5791 0.5752 0.8834 0.0
H485 H 0.60553 0.60318 0.92356 0.0
H486 H 0.55253 0.59638 0.01041 0.0
H487 H 0.57284 0.62216 0.96963 0.0
H488 H 0.39683 0.4127 0.92373 0.0
H489 H 0.42126 0.43662 0.8832 0.0
H490 H 0.42945 0.39838 0.97354 0.0
H491 H 0.45059 0.42895 0.01358 0.0
C492 C 0.97404 0.51785 0.27393 0.0
C493 C 1.0034 0.55972 0.2578 0.0
C494 C 0.03096 0.59486 0.31718 0.0
C495 C 0.0069 0.55105 0.33321 0.0
N496 N 0.96713 0.46756 0.32562 0.0
N497 N 0.06948 0.63475 0.26399 0.0
C498 C 0.98163 0.51154 0.31125 0.0
C499 C 0.0348 0.59729 0.27939 0.0
N500 N 0.9374 0.48474 0.25392 0.0
N501 N 0.04776 0.63465 0.33768 0.0
H502 H 0.07438 0.63747 0.23647 0.0
H503 H 0.09728 0.66073 0.27878 0.0
H504 H 0.04356 0.63499 0.36526 0.0
H505 H 0.06055 0.66811 0.32681 0.0
H506 H 0.91093 0.45566 0.26504 0.0
H507 H 0.92984 0.48884 0.22668 0.0
H508 H 0.95329 0.43723 0.31007 0.0
H509 H 0.9746 0.46076 0.35248 0.0
loop_
_geom_bond_atom_site_label_1
_geom_bond_atom_site_label_2
_geom_bond_distance
_geom_bond_site_symmetry_2
_ccdc_geom_bond_type
Pr0 C2 2.880 . S
Pr0 O20 2.562 . S
Pr0 O21 2.490 . S
Pr0 O22 2.695 1_655 S
Pr0 O23 2.512 . S
Pr0 O25 2.437 . S
Pr0 O28 2.436 . S
Pr0 O30 2.438 1_655 S
Pr1 C11 2.880 . S
Pr1 O22 2.436 . S
Pr1 O24 2.438 1_455 S
Pr1 O26 2.562 . S
Pr1 O27 2.490 . S
Pr1 O28 2.695 1_455 S
Pr1 O29 2.512 . S
Pr1 O31 2.437 . S
C2 Pr0 2.880 . S
C2 C3 1.491 . S
C2 O20 1.254 . S
C2 O21 1.225 . S
C3 C2 1.491 . S
C3 C4 1.392 . S
C3 C8 1.356 . S
C4 C3 1.392 . S
C4 C5 1.368 . S
C4 H32 0.929 . S
C5 C4 1.368 . S
C5 C6 1.386 . S
C5 H33 0.929 . S
C6 C5 1.386 . S
C6 C7 1.373 . S
C7 C6 1.373 . S
C7 C8 1.409 . S
C7 H34 0.931 . S
C8 C3 1.356 . S
C8 C7 1.409 . S
C8 H35 0.930 . S
C9 O22 1.270 . S
C9 O23 1.248 1_455 S
C10 O24 1.267 . S
C10 O25 1.278 . S
C11 Pr1 2.880 . S
C11 C12 1.491 . S
C11 O26 1.254 . S
C11 O27 1.225 . S
C12 C11 1.491 . S
C12 C13 1.392 . S
C12 C17 1.356 . S
C13 C12 1.392 . S
C13 C14 1.368 . S
C13 H36 0.929 . S
C14 C13 1.368 . S
C14 C15 1.386 . S
C14 H37 0.929 . S
C15 C14 1.386 . S
C15 C16 1.373 . S
C16 C15 1.373 . S
C16 C17 1.409 . S
C16 H38 0.931 . S
C17 C12 1.356 . S
C17 C16 1.409 . S
C17 H39 0.930 . S
C18 O28 1.270 1_455 S
C18 O29 1.248 . S
C19 O30 1.267 . S
C19 O31 1.278 . S
O20 Pr0 2.562 . S
O20 C2 1.254 . S
O21 Pr0 2.490 . S
O21 C2 1.225 . S
O22 Pr0 2.695 1_455 S
O22 Pr1 2.436 . S
O22 C9 1.270 . S
O23 Pr0 2.512 . S
O23 C9 1.248 1_655 S
O24 Pr1 2.438 1_655 S
O24 C10 1.267 . S
O25 Pr0 2.437 . S
O25 C10 1.278 . S
O26 Pr1 2.562 . S
O26 C11 1.254 . S
O27 Pr1 2.490 . S
O27 C11 1.225 . S
O28 Pr0 2.436 . S
O28 Pr1 2.695 1_655 S
O28 C18 1.270 1_655 S
O29 Pr1 2.512 . S
O29 C18 1.248 . S
O30 Pr0 2.438 1_455 S
O30 C19 1.267 . S
O31 Pr1 2.437 . S
O31 C19 1.278 . S
H32 C4 0.929 . S
H33 C5 0.929 . S
H34 C7 0.931 . S
H35 C8 0.930 . S
H36 C13 0.929 . S
H37 C14 0.929 . S
H38 C16 0.931 . S
H39 C17 0.930 . S
Pr40 C42 2.880 . S
Pr40 O60 2.562 . S
Pr40 O61 2.490 . S
Pr40 O62 2.695 . S
Pr40 O63 2.512 . S
Pr40 O65 2.437 . S
Pr40 O68 2.436 . S
Pr40 O70 2.438 1_545 S
Pr41 C51 2.880 . S
Pr41 O62 2.436 1_565 S
Pr41 O64 2.438 1_565 S
Pr41 O66 2.562 . S
Pr41 O67 2.490 . S
Pr41 O68 2.695 1_565 S
Pr41 O69 2.512 . S
Pr41 O71 2.437 . S
C42 Pr40 2.880 . S
C42 C43 1.491 . S
C42 O60 1.254 . S
C42 O61 1.225 . S
C43 C42 1.491 . S
C43 C44 1.392 . S
C43 C48 1.356 . S
C44 C43 1.392 . S
C44 C45 1.368 . S
C44 H72 0.929 . S
C45 C44 1.368 . S
C45 C46 1.386 . S
C45 H73 0.929 . S
C46 C45 1.386 . S
C46 C47 1.373 . S
C47 C46 1.373 . S
C47 C48 1.409 . S
C47 H74 0.931 . S
C48 C43 1.356 . S
C48 C47 1.409 . S
C48 H75 0.930 . S
C49 O62 1.270 . S
C49 O63 1.248 . S
C50 O64 1.267 . S
C50 O65 1.278 . S
C51 Pr41 2.880 . S
C51 C52 1.491 . S
C51 O66 1.254 . S
C51 O67 1.225 . S
C52 C51 1.491 . S
C52 C53 1.392 . S
C52 C57 1.356 . S
C53 C52 1.392 . S
C53 C54 1.368 . S
C53 H76 0.929 . S
C54 C53 1.368 . S
C54 C55 1.386 . S
C54 H77 0.929 . S
C55 C54 1.386 . S
C55 C56 1.373 . S
C56 C55 1.373 . S
C56 C57 1.409 . S
C56 H78 0.931 . S
C57 C52 1.356 . S
C57 C56 1.409 . S
C57 H79 0.930 . S
C58 O68 1.270 . S
C58 O69 1.248 1_545 S
C59 O70 1.267 . S
C59 O71 1.278 . S
O60 Pr40 2.562 . S
O60 C42 1.254 . S
O61 Pr40 2.490 . S
O61 C42 1.225 . S
O62 Pr40 2.695 . S
O62 Pr41 2.436 1_545 S
O62 C49 1.270 . S
O63 Pr40 2.512 . S
O63 C49 1.248 . S
O64 Pr41 2.438 1_545 S
O64 C50 1.267 . S
O65 Pr40 2.437 . S
O65 C50 1.278 . S
O66 Pr41 2.562 . S
O66 C51 1.254 . S
O67 Pr41 2.490 . S
O67 C51 1.225 . S
O68 Pr40 2.436 . S
O68 Pr41 2.695 1_545 S
O68 C58 1.270 . S
O69 Pr41 2.512 . S
O69 C58 1.248 1_565 S
O70 Pr40 2.438 1_565 S
O70 C59 1.267 . S
O71 Pr41 2.437 . S
O71 C59 1.278 . S
H72 C44 0.929 . S
H73 C45 0.929 . S
H74 C47 0.931 . S
H75 C48 0.930 . S
H76 C53 0.929 . S
H77 C54 0.929 . S
H78 C56 0.931 . S
H79 C57 0.930 . S
Pr80 C82 2.880 . S
Pr80 O100 2.562 . S
Pr80 O101 2.490 . S
Pr80 O102 2.695 . S
Pr80 O103 2.512 . S
Pr80 O105 2.437 . S
Pr80 O108 2.436 . S
Pr80 O110 2.438 . S
Pr81 C91 2.880 . S
Pr81 O102 2.436 . S
Pr81 O104 2.438 . S
Pr81 O106 2.562 . S
Pr81 O107 2.490 . S
Pr81 O108 2.695 . S
Pr81 O109 2.512 . S
Pr81 O111 2.437 . S
C82 Pr80 2.880 . S
C82 C83 1.491 . S
C82 O100 1.254 . S
C82 O101 1.225 . S
C83 C82 1.491 . S
C83 C84 1.392 . S
C83 C88 1.356 . S
C84 C83 1.392 . S
C84 C85 1.368 . S
C84 H112 0.929 . S
C85 C84 1.368 . S
C85 C86 1.386 . S
C85 H113 0.929 . S
C86 C85 1.386 . S
C86 C87 1.373 . S
C87 C86 1.373 . S
C87 C88 1.409 . S
C87 H114 0.931 . S
C88 C83 1.356 . S
C88 C87 1.409 . S
C88 H115 0.930 . S
C89 O102 1.270 . S
C89 O103 1.248 . S
C90 O104 1.267 . S
C90 O105 1.278 . S
C91 Pr81 2.880 . S
C91 C92 1.491 . S
C91 O106 1.254 . S
C91 O107 1.225 . S
C92 C91 1.491 . S
C92 C93 1.392 . S
C92 C97 1.356 . S
C93 C92 1.392 . S
C93 C94 1.368 . S
C93 H116 0.929 . S
C94 C93 1.368 . S
C94 C95 1.386 . S
C94 H117 0.929 . S
C95 C94 1.386 . S
C95 C96 1.373 . S
C96 C95 1.373 . S
C96 C97 1.409 . S
C96 H118 0.931 . S
C97 C92 1.356 . S
C97 C96 1.409 . S
C97 H119 0.930 . S
C98 O108 1.270 . S
C98 O109 1.248 . S
C99 O110 1.267 . S
C99 O111 1.278 . S
O100 Pr80 2.562 . S
O100 C82 1.254 . S
O101 Pr80 2.490 . S
O101 C82 1.225 . S
O102 Pr80 2.695 . S
O102 Pr81 2.436 . S
O102 C89 1.270 . S
O103 Pr80 2.512 . S
O103 C89 1.248 . S
O104 Pr81 2.438 . S
O104 C90 1.267 . S
O105 Pr80 2.437 . S
O105 C90 1.278 . S
O106 Pr81 2.562 . S
O106 C91 1.254 . S
O107 Pr81 2.490 . S
O107 C91 1.225 . S
O108 Pr80 2.436 . S
O108 Pr81 2.695 . S
O108 C98 1.270 . S
O109 Pr81 2.512 . S
O109 C98 1.248 . S
O110 Pr80 2.438 . S
O110 C99 1.267 . S
O111 Pr81 2.437 . S
O111 C99 1.278 . S
H112 C84 0.929 . S
H113 C85 0.929 . S
H114 C87 0.931 . S
H115 C88 0.930 . S
H116 C93 0.929 . S
H117 C94 0.929 . S
H118 C96 0.931 . S
H119 C97 0.930 . S
O120 Cd121 2.300 . S
O120 C127 1.275 . S
Cd121 O120 2.300 . S
Cd121 O129 2.381 . S
Cd121 O130 2.378 . S
O122 Cd123 2.385 . S
O122 C127 1.255 1_565 S
Cd123 O122 2.385 . S
Cd123 O124 2.317 . S
O124 Cd123 2.317 . S
O124 C125 1.232 . S
C125 O124 1.232 . S
C125 O126 1.218 . S
O126 C125 1.218 . S
C127 O120 1.275 . S
C127 O122 1.255 1_545 S
C128 O129 1.258 . S
C128 O130 1.256 . S
O129 Cd121 2.381 . S
O129 C128 1.258 . S
O130 Cd121 2.378 . S
O130 C128 1.256 . S
O131 Cd132 2.300 . S
O131 C138 1.275 . S
Cd132 O131 2.300 . S
Cd132 O140 2.381 . S
Cd132 O141 2.378 . S
O133 Cd134 2.385 . S
O133 C138 1.255 . S
Cd134 O133 2.385 . S
Cd134 O135 2.317 . S
O135 Cd134 2.317 . S
O135 C136 1.232 . S
C136 O135 1.232 . S
C136 O137 1.218 . S
O137 C136 1.218 . S
C138 O131 1.275 . S
C138 O133 1.255 . S
C139 O140 1.258 . S
C139 O141 1.256 . S
O140 Cd132 2.381 . S
O140 C139 1.258 . S
O141 Cd132 2.378 . S
O141 C139 1.256 . S
O142 Cd143 2.300 . S
O142 C149 1.275 . S
Cd143 O142 2.300 . S
Cd143 O151 2.381 . S
Cd143 O152 2.378 . S
O144 Cd145 2.385 . S
O144 C149 1.255 1_655 S
Cd145 O144 2.385 . S
Cd145 O146 2.317 . S
O146 Cd145 2.317 . S
O146 C147 1.232 . S
C147 O146 1.232 . S
C147 O148 1.218 . S
O148 C147 1.218 . S
C149 O142 1.275 . S
C149 O144 1.255 1_455 S
C150 O151 1.258 . S
C150 O152 1.256 . S
O151 Cd143 2.381 . S
O151 C150 1.258 . S
O152 Cd143 2.378 . S
O152 C150 1.256 . S
O153 Cd154 2.300 . S
O153 C160 1.275 1_455 S
Cd154 O153 2.300 . S
Cd154 O162 2.381 . S
Cd154 O163 2.378 . S
O155 Cd156 2.385 . S
O155 C160 1.255 . S
Cd156 O155 2.385 . S
Cd156 O157 2.317 . S
O157 Cd156 2.317 . S
O157 C158 1.232 . S
C158 O157 1.232 . S
C158 O159 1.218 . S
O159 C158 1.218 . S
C160 O153 1.275 1_655 S
C160 O155 1.255 . S
C161 O162 1.258 . S
C161 O163 1.256 . S
O162 Cd154 2.381 . S
O162 C161 1.258 . S
O163 Cd154 2.378 . S
O163 C161 1.256 . S
O164 Cd165 2.300 . S
O164 C171 1.275 1_565 S
Cd165 O164 2.300 . S
Cd165 O173 2.381 . S
Cd165 O174 2.378 . S
O166 Cd167 2.385 . S
O166 C171 1.255 . S
Cd167 O166 2.385 . S
Cd167 O168 2.317 . S
O168 Cd167 2.317 . S
O168 C169 1.232 . S
C169 O168 1.232 . S
C169 O170 1.218 . S
O170 C169 1.218 . S
C171 O164 1.275 1_545 S
C171 O166 1.255 . S
C172 O173 1.258 . S
C172 O174 1.256 . S
O173 Cd165 2.381 . S
O173 C172 1.258 . S
O174 Cd165 2.378 . S
O174 C172 1.256 . S
O175 Cd176 2.300 . S
O175 C182 1.275 . S
Cd176 O175 2.300 . S
Cd176 O184 2.381 . S
Cd176 O185 2.378 . S
O177 Cd178 2.385 . S
O177 C182 1.255 . S
Cd178 O177 2.385 . S
Cd178 O179 2.317 . S
O179 Cd178 2.317 . S
O179 C180 1.232 . S
C180 O179 1.232 . S
C180 O181 1.218 . S
O181 C180 1.218 . S
C182 O175 1.275 . S
C182 O177 1.255 . S
C183 O184 1.258 . S
C183 O185 1.256 . S
O184 Cd176 2.381 . S
O184 C183 1.258 . S
O185 Cd176 2.378 . S
O185 C183 1.256 . S
C186 C187 1.363 . S
C186 C192 1.379 . S
C186 N194 1.356 . S
C187 C186 1.363 . S
C187 C193 1.363 . S
C188 C189 1.363 . S
C188 C193 1.379 . S
C188 N195 1.356 . S
C189 C188 1.363 . S
C189 C192 1.363 . S
N190 C192 1.356 . S
N190 H202 0.984 . S
N190 H203 0.985 . S
N191 C193 1.356 . S
N191 H196 0.984 . S
N191 H197 0.985 . S
C192 C186 1.379 . S
C192 C189 1.363 . S
C192 N190 1.356 . S
C193 C187 1.363 . S
C193 C188 1.379 . S
C193 N191 1.356 . S
N194 C186 1.356 . S
N194 H200 0.984 . S
N194 H201 0.984 . S
N195 C188 1.356 . S
N195 H198 0.984 . S
N195 H199 0.985 . S
H196 N191 0.984 . S
H197 N191 0.985 . S
H198 N195 0.984 . S
H199 N195 0.985 . S
H200 N194 0.984 . S
H201 N194 0.984 . S
H202 N190 0.984 . S
H203 N190 0.985 . S
C204 C205 1.363 . S
C204 C210 1.379 . S
C204 N212 1.356 . S
C205 C204 1.363 . S
C205 C211 1.363 . S
C206 C207 1.363 . S
C206 C211 1.379 . S
C206 N213 1.356 . S
C207 C206 1.363 . S
C207 C210 1.363 . S
N208 C210 1.356 . S
N208 H220 0.984 . S
N208 H221 0.985 . S
N209 C211 1.356 . S
N209 H214 0.984 . S
N209 H215 0.985 . S
C210 C204 1.379 . S
C210 C207 1.363 . S
C210 N208 1.356 . S
C211 C205 1.363 . S
C211 C206 1.379 . S
C211 N209 1.356 . S
N212 C204 1.356 . S
N212 H218 0.984 . S
N212 H219 0.984 . S
N213 C206 1.356 . S
N213 H216 0.984 . S
N213 H217 0.985 . S
H214 N209 0.984 . S
H215 N209 0.985 . S
H216 N213 0.984 . S
H217 N213 0.985 . S
H218 N212 0.984 . S
H219 N212 0.984 . S
H220 N208 0.984 . S
H221 N208 0.985 . S
C222 C223 1.363 . S
C222 C228 1.379 . S
C222 N230 1.356 . S
C223 C222 1.363 . S
C223 C229 1.363 . S
C224 C225 1.363 . S
C224 C229 1.379 . S
C224 N231 1.356 . S
C225 C224 1.363 . S
C225 C228 1.363 . S
N226 C228 1.356 . S
N226 H238 0.984 . S
N226 H239 0.985 . S
N227 C229 1.356 . S
N227 H232 0.984 . S
N227 H233 0.985 . S
C228 C222 1.379 . S
C228 C225 1.363 . S
C228 N226 1.356 . S
C229 C223 1.363 . S
C229 C224 1.379 . S
C229 N227 1.356 . S
N230 C222 1.356 . S
N230 H236 0.984 . S
N230 H237 0.984 . S
N231 C224 1.356 . S
N231 H234 0.984 . S
N231 H235 0.985 . S
H232 N227 0.984 . S
H233 N227 0.985 . S
H234 N231 0.984 . S
H235 N231 0.985 . S
H236 N230 0.984 . S
H237 N230 0.984 . S
H238 N226 0.984 . S
H239 N226 0.985 . S
C240 C241 1.363 . S
C240 C246 1.379 . S
C240 N248 1.356 . S
C241 C240 1.363 . S
C241 C247 1.363 . S
C242 C243 1.363 . S
C242 C247 1.379 . S
C242 N249 1.356 . S
C243 C242 1.363 . S
C243 C246 1.363 . S
N244 C246 1.356 . S
N244 H256 0.984 . S
N244 H257 0.985 . S
N245 C247 1.356 . S
N245 H250 0.984 . S
N245 H251 0.985 . S
C246 C240 1.379 . S
C246 C243 1.363 . S
C246 N244 1.356 . S
C247 C241 1.363 . S
C247 C242 1.379 . S
C247 N245 1.356 . S
N248 C240 1.356 . S
N248 H254 0.984 . S
N248 H255 0.984 . S
N249 C242 1.356 . S
N249 H252 0.984 . S
N249 H253 0.985 . S
H250 N245 0.984 . S
H251 N245 0.985 . S
H252 N249 0.984 . S
H253 N249 0.985 . S
H254 N248 0.984 . S
H255 N248 0.984 . S
H256 N244 0.984 . S
H257 N244 0.985 . S
C258 C259 1.363 . S
C258 C264 1.379 . S
C258 N266 1.356 . S
C259 C258 1.363 . S
C259 C265 1.363 . S
C260 C261 1.363 . S
C260 C265 1.379 . S
C260 N267 1.356 . S
C261 C260 1.363 . S
C261 C264 1.363 . S
N262 C264 1.356 . S
N262 H274 0.984 . S
N262 H275 0.985 . S
N263 C265 1.356 . S
N263 H268 0.984 . S
N263 H269 0.985 . S
C264 C258 1.379 . S
C264 C261 1.363 . S
C264 N262 1.356 . S
C265 C259 1.363 . S
C265 C260 1.379 . S
C265 N263 1.356 . S
N266 C258 1.356 . S
N266 H272 0.984 . S
N266 H273 0.984 . S
N267 C260 1.356 . S
N267 H270 0.984 . S
N267 H271 0.985 . S
H268 N263 0.984 . S
H269 N263 0.985 . S
H270 N267 0.984 . S
H271 N267 0.985 . S
H272 N266 0.984 . S
H273 N266 0.984 . S
H274 N262 0.984 . S
H275 N262 0.985 . S
C276 C277 1.363 . S
C276 C282 1.379 . S
C276 N284 1.356 . S
C277 C276 1.363 . S
C277 C283 1.363 . S
C278 C279 1.363 . S
C278 C283 1.379 . S
C278 N285 1.356 . S
C279 C278 1.363 . S
C279 C282 1.363 . S
N280 C282 1.356 . S
N280 H292 0.984 . S
N280 H293 0.985 . S
N281 C283 1.356 . S
N281 H286 0.984 . S
N281 H287 0.985 . S
C282 C276 1.379 . S
C282 C279 1.363 . S
C282 N280 1.356 . S
C283 C277 1.363 . S
C283 C278 1.379 . S
C283 N281 1.356 . S
N284 C276 1.356 . S
N284 H290 0.984 . S
N284 H291 0.984 . S
N285 C278 1.356 . S
N285 H288 0.984 . S
N285 H289 0.985 . S
H286 N281 0.984 . S
H287 N281 0.985 . S
H288 N285 0.984 . S
H289 N285 0.985 . S
H290 N284 0.984 . S
H291 N284 0.984 . S
H292 N280 0.984 . S
H293 N280 0.985 . S
C294 C295 1.363 . S
C294 C300 1.379 . S
C294 N302 1.356 . S
C295 C294 1.363 . S
C295 C301 1.363 . S
C296 C297 1.363 . S
C296 C301 1.379 . S
C296 N303 1.356 . S
C297 C296 1.363 . S
C297 C300 1.363 . S
N298 C300 1.356 . S
N298 H310 0.984 . S
N298 H311 0.985 . S
N299 C301 1.356 . S
N299 H304 0.984 . S
N299 H305 0.985 . S
C300 C294 1.379 . S
C300 C297 1.363 . S
C300 N298 1.356 . S
C301 C295 1.363 . S
C301 C296 1.379 . S
C301 N299 1.356 . S
N302 C294 1.356 . S
N302 H308 0.984 . S
N302 H309 0.984 . S
N303 C296 1.356 . S
N303 H306 0.984 . S
N303 H307 0.985 . S
H304 N299 0.984 . S
H305 N299 0.985 . S
H306 N303 0.984 . S
H307 N303 0.985 . S
H308 N302 0.984 . S
H309 N302 0.984 . S
H310 N298 0.984 . S
H311 N298 0.985 . S
C312 C313 1.363 . S
C312 C318 1.379 . S
C312 N320 1.356 . S
C313 C312 1.363 . S
C313 C319 1.363 . S
C314 C315 1.363 . S
C314 C319 1.379 . S
C314 N321 1.356 . S
C315 C314 1.363 . S
C315 C318 1.363 . S
N316 C318 1.356 . S
N316 H328 0.984 . S
N316 H329 0.985 . S
N317 C319 1.356 . S
N317 H322 0.984 . S
N317 H323 0.985 . S
C318 C312 1.379 . S
C318 C315 1.363 . S
C318 N316 1.356 . S
C319 C313 1.363 . S
C319 C314 1.379 . S
C319 N317 1.356 . S
N320 C312 1.356 . S
N320 H326 0.984 . S
N320 H327 0.984 . S
N321 C314 1.356 . S
N321 H324 0.984 . S
N321 H325 0.985 . S
H322 N317 0.984 . S
H323 N317 0.985 . S
H324 N321 0.984 . S
H325 N321 0.985 . S
H326 N320 0.984 . S
H327 N320 0.984 . S
H328 N316 0.984 . S
H329 N316 0.985 . S
C330 C331 1.363 . S
C330 C336 1.379 . S
C330 N338 1.356 . S
C331 C330 1.363 . S
C331 C337 1.363 . S
C332 C333 1.363 . S
C332 C337 1.379 . S
C332 N339 1.356 . S
C333 C332 1.363 . S
C333 C336 1.363 . S
N334 C336 1.356 . S
N334 H346 0.984 . S
N334 H347 0.985 . S
N335 C337 1.356 . S
N335 H340 0.984 . S
N335 H341 0.985 . S
C336 C330 1.379 . S
C336 C333 1.363 . S
C336 N334 1.356 . S
C337 C331 1.363 . S
C337 C332 1.379 . S
C337 N335 1.356 . S
N338 C330 1.356 . S
N338 H344 0.984 . S
N338 H345 0.984 . S
N339 C332 1.356 . S
N339 H342 0.984 . S
N339 H343 0.985 . S
H340 N335 0.984 . S
H341 N335 0.985 . S
H342 N339 0.984 . S
H343 N339 0.985 . S
H344 N338 0.984 . S
H345 N338 0.984 . S
H346 N334 0.984 . S
H347 N334 0.985 . S
C348 C349 1.363 . S
C348 C354 1.379 . S
C348 N356 1.356 . S
C349 C348 1.363 . S
C349 C355 1.363 . S
C350 C351 1.363 . S
C350 C355 1.379 . S
C350 N357 1.356 . S
C351 C350 1.363 . S
C351 C354 1.363 . S
N352 C354 1.356 . S
N352 H364 0.984 . S
N352 H365 0.985 . S
N353 C355 1.356 . S
N353 H358 0.984 . S
N353 H359 0.985 . S
C354 C348 1.379 . S
C354 C351 1.363 . S
C354 N352 1.356 . S
C355 C349 1.363 . S
C355 C350 1.379 . S
C355 N353 1.356 . S
N356 C348 1.356 . S
N356 H362 0.984 . S
N356 H363 0.984 . S
N357 C350 1.356 . S
N357 H360 0.984 . S
N357 H361 0.985 . S
H358 N353 0.984 . S
H359 N353 0.985 . S
H360 N357 0.984 . S
H361 N357 0.985 . S
H362 N356 0.984 . S
H363 N356 0.984 . S
H364 N352 0.984 . S
H365 N352 0.985 . S
C366 C367 1.363 . S
C366 C372 1.379 . S
C366 N374 1.356 . S
C367 C366 1.363 . S
C367 C373 1.363 . S
C368 C369 1.363 . S
C368 C373 1.379 . S
C368 N375 1.356 . S
C369 C368 1.363 . S
C369 C372 1.363 . S
N370 C372 1.356 . S
N370 H382 0.984 . S
N370 H383 0.985 . S
N371 C373 1.356 . S
N371 H376 0.984 . S
N371 H377 0.985 . S
C372 C366 1.379 . S
C372 C369 1.363 . S
C372 N370 1.356 . S
C373 C367 1.363 . S
C373 C368 1.379 . S
C373 N371 1.356 . S
N374 C366 1.356 . S
N374 H380 0.984 . S
N374 H381 0.984 . S
N375 C368 1.356 . S
N375 H378 0.984 . S
N375 H379 0.985 . S
H376 N371 0.984 . S
H377 N371 0.985 . S
H378 N375 0.984 . S
H379 N375 0.985 . S
H380 N374 0.984 . S
H381 N374 0.984 . S
H382 N370 0.984 . S
H383 N370 0.985 . S
C384 C385 1.363 . S
C384 C390 1.379 . S
C384 N392 1.356 . S
C385 C384 1.363 . S
C385 C391 1.363 . S
C386 C387 1.363 . S
C386 C391 1.379 . S
C386 N393 1.356 . S
C387 C386 1.363 . S
C387 C390 1.363 . S
N388 C390 1.356 . S
N388 H400 0.984 . S
N388 H401 0.985 . S
N389 C391 1.356 . S
N389 H394 0.984 . S
N389 H395 0.985 . S
C390 C384 1.379 . S
C390 C387 1.363 . S
C390 N388 1.356 . S
C391 C385 1.363 . S
C391 C386 1.379 . S
C391 N389 1.356 . S
N392 C384 1.356 . S
N392 H398 0.984 . S
N392 H399 0.984 . S
N393 C386 1.356 . S
N393 H396 0.984 . S
N393 H397 0.985 . S
H394 N389 0.984 . S
H395 N389 0.985 . S
H396 N393 0.984 . S
H397 N393 0.985 . S
H398 N392 0.984 . S
H399 N392 0.984 . S
H400 N388 0.984 . S
H401 N388 0.985 . S
C402 C403 1.364 . S
C402 C408 1.379 1_454 S
C402 N410 1.355 1_455 S
C403 C402 1.364 . S
C403 C409 1.363 . S
C404 C405 1.363 . S
C404 C409 1.379 1_556 S
C404 N411 1.356 . S
C405 C404 1.363 . S
C405 C408 1.363 1_455 S
N406 C408 1.356 . S
N406 H418 0.984 . S
N406 H419 0.985 . S
N407 C409 1.356 . S
N407 H412 0.984 . S
N407 H413 0.985 . S
C408 C402 1.379 1_656 S
C408 C405 1.363 1_655 S
C408 N406 1.356 . S
C409 C403 1.363 . S
C409 C404 1.379 1_554 S
C409 N407 1.356 . S
N410 C402 1.355 1_655 S
N410 H416 0.984 . S
N410 H417 0.984 1_655 S
N411 C404 1.356 . S
N411 H414 0.984 . S
N411 H415 0.985 . S
H412 N407 0.984 . S
H413 N407 0.985 . S
H414 N411 0.984 . S
H415 N411 0.985 . S
H416 N410 0.984 . S
H417 N410 0.984 1_455 S
H418 N406 0.984 . S
H419 N406 0.985 . S
C420 C421 1.363 1_565 S
C420 C426 1.379 . S
C420 N428 1.356 . S
C421 C420 1.363 1_545 S
C421 C427 1.363 . S
C422 C423 1.363 . S
C422 C427 1.379 . S
C422 N429 1.356 . S
C423 C422 1.363 . S
C423 C426 1.363 1_545 S
N424 C426 1.356 . S
N424 H436 0.984 . S
N424 H437 0.985 . S
N425 C427 1.356 . S
N425 H430 0.984 . S
N425 H431 0.985 . S
C426 C420 1.379 . S
C426 C423 1.363 1_565 S
C426 N424 1.356 . S
C427 C421 1.363 . S
C427 C422 1.379 . S
C427 N425 1.356 . S
N428 C420 1.356 . S
N428 H434 0.984 . S
N428 H435 0.984 . S
N429 C422 1.356 . S
N429 H432 0.984 . S
N429 H433 0.985 . S
H430 N425 0.984 . S
H431 N425 0.985 . S
H432 N429 0.984 . S
H433 N429 0.985 . S
H434 N428 0.984 . S
H435 N428 0.984 . S
H436 N424 0.984 . S
H437 N424 0.985 . S
C438 C439 1.363 . S
C438 C444 1.379 . S
C438 N446 1.356 . S
C439 C438 1.363 . S
C439 C445 1.363 . S
C440 C441 1.363 . S
C440 C445 1.379 . S
C440 N447 1.356 . S
C441 C440 1.363 . S
C441 C444 1.363 . S
N442 C444 1.356 . S
N442 H454 0.984 . S
N442 H455 0.985 . S
N443 C445 1.356 . S
N443 H448 0.984 . S
N443 H449 0.985 . S
C444 C438 1.379 . S
C444 C441 1.363 . S
C444 N442 1.356 . S
C445 C439 1.363 . S
C445 C440 1.379 . S
C445 N443 1.356 . S
N446 C438 1.356 . S
N446 H452 0.984 . S
N446 H453 0.984 . S
N447 C440 1.356 . S
N447 H450 0.984 . S
N447 H451 0.985 . S
H448 N443 0.984 . S
H449 N443 0.985 . S
H450 N447 0.984 . S
H451 N447 0.985 . S
H452 N446 0.984 . S
H453 N446 0.984 . S
H454 N442 0.984 . S
H455 N442 0.985 . S
C456 C457 1.363 . S
C456 C462 1.379 . S
C456 N464 1.356 . S
C457 C456 1.363 . S
C457 C463 1.363 1_545 S
C458 C459 1.363 1_565 S
C458 C463 1.379 . S
C458 N465 1.356 . S
C459 C458 1.363 1_545 S
C459 C462 1.363 . S
N460 C462 1.356 . S
N460 H472 0.984 . S
N460 H473 0.985 . S
N461 C463 1.356 . S
N461 H466 0.984 . S
N461 H467 0.985 . S
C462 C456 1.379 . S
C462 C459 1.363 . S
C462 N460 1.356 . S
C463 C457 1.363 1_565 S
C463 C458 1.379 . S
C463 N461 1.356 . S
N464 C456 1.356 . S
N464 H470 0.984 . S
N464 H471 0.984 . S
N465 C458 1.356 . S
N465 H468 0.984 . S
N465 H469 0.985 . S
H466 N461 0.984 . S
H467 N461 0.985 . S
H468 N465 0.984 . S
H469 N465 0.985 . S
H470 N464 0.984 . S
H471 N464 0.984 . S
H472 N460 0.984 . S
H473 N460 0.985 . S
C474 C475 1.363 . S
C474 C480 1.379 1_556 S
C474 N482 1.356 . S
C475 C474 1.363 . S
C475 C481 1.363 . S
C476 C477 1.363 . S
C476 C481 1.379 1_554 S
C476 N483 1.356 . S
C477 C476 1.363 . S
C477 C480 1.363 . S
N478 C480 1.356 . S
N478 H490 0.984 . S
N478 H491 0.985 . S
N479 C481 1.356 . S
N479 H484 0.984 . S
N479 H485 0.985 . S
C480 C474 1.379 1_554 S
C480 C477 1.363 . S
C480 N478 1.356 . S
C481 C475 1.363 . S
C481 C476 1.379 1_556 S
C481 N479 1.356 . S
N482 C474 1.356 . S
N482 H488 0.984 . S
N482 H489 0.984 . S
N483 C476 1.356 . S
N483 H486 0.984 . S
N483 H487 0.985 . S
H484 N479 0.984 . S
H485 N479 0.985 . S
H486 N483 0.984 . S
H487 N483 0.985 . S
H488 N482 0.984 . S
H489 N482 0.984 . S
H490 N478 0.984 . S
H491 N478 0.985 . S
C492 C493 1.363 1_655 S
C492 C498 1.379 . S
C492 N500 1.356 . S
C493 C492 1.363 1_455 S
C493 C499 1.363 . S
C494 C495 1.363 1_455 S
C494 C499 1.379 . S
C494 N501 1.356 . S
C495 C494 1.363 1_655 S
C495 C498 1.363 . S
N496 C498 1.356 . S
N496 H508 0.984 . S
N496 H509 0.985 . S
N497 C499 1.356 . S
N497 H502 0.984 . S
N497 H503 0.985 . S
C498 C492 1.379 . S
C498 C495 1.363 . S
C498 N496 1.356 . S
C499 C493 1.363 . S
C499 C494 1.379 . S
C499 N497 1.356 . S
N500 C492 1.356 . S
N500 H506 0.984 . S
N500 H507 0.984 . S
N501 C494 1.356 . S
N501 H504 0.984 . S
N501 H505 0.985 . S
H502 N497 0.984 . S
H503 N497 0.985 . S
H504 N501 0.984 . S
H505 N501 0.985 . S
H506 N500 0.984 . S
H507 N500 0.984 . S
H508 N496 0.984 . S
H509 N496 0.985 . S
C187 C19 2.030 . S
C189 C180 1.744 . S
C205 C46 1.417 . S
C207 C158 1.325 . S
C223 C95 0.641 . S
C225 C172 0.494 . S
C241 C10 1.952 . S
C243 C183 1.865 . S
C261 C161 1.171 . S
C259 C55 1.184 . S
C279 C169 0.761 . S
C277 C86 0.943 . S
C295 C59 3.264 . S
C297 C136 2.918 . S
C313 C90 2.107 . S
C315 C147 1.755 . S
C331 C15 1.431 . S
C333 C125 1.255 . S
C351 C139 2.909 . S
C349 C50 2.996 . S
C369 C150 1.834 . S
C367 C99 1.873 . S
C385 C6 1.102 . S
C387 C128 1.097 . S
C405 C149 1.375 . S
C403 C9 1.400 . S
C421 C58 1.460 . S
C423 C127 1.460 . S
C439 C98 1.679 . S
C441 C138 1.677 . S
C459 C171 1.112 . S
C457 C49 1.177 . S
C477 C182 1.365 . S
C475 C89 1.399 . S
C493 C18 1.501 . S
C495 C160 1.444 . S
