# Generated by pormake.
# Topology ocu, (6,8)-cn, num edge types: 1
# Building blocks:
#     Node 0, Type 0, BuildingBlock: BETDEL_clean_sbu_0, # of connection points: 6
#     Node 1, Type 0, BuildingBlock: BETDEL_clean_sbu_0, # of connection points: 6
#     Node 2, Type 0, BuildingBlock: BETDEL_clean_sbu_0, # of connection points: 6
#     Node 3, Type 0, BuildingBlock: BETDEL_clean_sbu_0, # of connection points: 6
#     Node 4, Type 0, BuildingBlock: BETDEL_clean_sbu_0, # of connection points: 6
#     Node 5, Type 0, BuildingBlock: BETDEL_clean_sbu_0, # of connection points: 6
#     Node 6, Type 0, BuildingBlock: BETDEL_clean_sbu_0, # of connection points: 6
#     Node 7, Type 0, BuildingBlock: BETDEL_clean_sbu_0, # of connection points: 6
#     Node 8, Type 1, BuildingBlock: TAGTUT_clean_sbu_1, # of connection points: 8
#     Node 9, Type 1, BuildingBlock: TAGTUT_clean_sbu_1, # of connection points: 8
#     Node 10, Type 1, BuildingBlock: TAGTUT_clean_sbu_1, # of connection points: 8
#     Node 11, Type 1, BuildingBlock: TAGTUT_clean_sbu_1, # of connection points: 8
#     Node 12, Type 1, BuildingBlock: TAGTUT_clean_sbu_1, # of connection points: 8
#     Node 13, Type 1, BuildingBlock: TAGTUT_clean_sbu_1, # of connection points: 8
#     Edge 14, Type (0, 1), BuildingBlock: EZIPEK_clean_linker_0, # of connection points: 2
#     Edge 15, Type (0, 1), BuildingBlock: EZIPEK_clean_linker_0, # of connection points: 2
#     Edge 16, Type (0, 1), BuildingBlock: EZIPEK_clean_linker_0, # of connection points: 2
#     Edge 17, Type (0, 1), BuildingBlock: EZIPEK_clean_linker_0, # of connection points: 2
#     Edge 18, Type (0, 1), BuildingBlock: EZIPEK_clean_linker_0, # of connection points: 2
#     Edge 19, Type (0, 1), BuildingBlock: EZIPEK_clean_linker_0, # of connection points: 2
#     Edge 20, Type (0, 1), BuildingBlock: EZIPEK_clean_linker_0, # of connection points: 2
#     Edge 21, Type (0, 1), BuildingBlock: EZIPEK_clean_linker_0, # of connection points: 2
#     Edge 22, Type (0, 1), BuildingBlock: EZIPEK_clean_linker_0, # of connection points: 2
#     Edge 23, Type (0, 1), BuildingBlock: EZIPEK_clean_linker_0, # of connection points: 2
#     Edge 24, Type (0, 1), BuildingBlock: EZIPEK_clean_linker_0, # of connection points: 2
#     Edge 25, Type (0, 1), BuildingBlock: EZIPEK_clean_linker_0, # of connection points: 2
#     Edge 26, Type (0, 1), BuildingBlock: EZIPEK_clean_linker_0, # of connection points: 2
#     Edge 27, Type (0, 1), BuildingBlock: EZIPEK_clean_linker_0, # of connection points: 2
#     Edge 28, Type (0, 1), BuildingBlock: EZIPEK_clean_linker_0, # of connection points: 2
#     Edge 29, Type (0, 1), BuildingBlock: EZIPEK_clean_linker_0, # of connection points: 2
#     Edge 30, Type (0, 1), BuildingBlock: EZIPEK_clean_linker_0, # of connection points: 2
#     Edge 31, Type (0, 1), BuildingBlock: EZIPEK_clean_linker_0, # of connection points: 2
#     Edge 32, Type (0, 1), BuildingBlock: EZIPEK_clean_linker_0, # of connection points: 2
#     Edge 33, Type (0, 1), BuildingBlock: EZIPEK_clean_linker_0, # of connection points: 2
#     Edge 34, Type (0, 1), BuildingBlock: EZIPEK_clean_linker_0, # of connection points: 2
#     Edge 35, Type (0, 1), BuildingBlock: EZIPEK_clean_linker_0, # of connection points: 2
#     Edge 36, Type (0, 1), BuildingBlock: EZIPEK_clean_linker_0, # of connection points: 2
#     Edge 37, Type (0, 1), BuildingBlock: EZIPEK_clean_linker_0, # of connection points: 2
#     Edge 38, Type (0, 1), BuildingBlock: EZIPEK_clean_linker_0, # of connection points: 2
#     Edge 39, Type (0, 1), BuildingBlock: EZIPEK_clean_linker_0, # of connection points: 2
#     Edge 40, Type (0, 1), BuildingBlock: EZIPEK_clean_linker_0, # of connection points: 2
#     Edge 41, Type (0, 1), BuildingBlock: EZIPEK_clean_linker_0, # of connection points: 2
#     Edge 42, Type (0, 1), BuildingBlock: EZIPEK_clean_linker_0, # of connection points: 2
#     Edge 43, Type (0, 1), BuildingBlock: EZIPEK_clean_linker_0, # of connection points: 2
#     Edge 44, Type (0, 1), BuildingBlock: EZIPEK_clean_linker_0, # of connection points: 2
#     Edge 45, Type (0, 1), BuildingBlock: EZIPEK_clean_linker_0, # of connection points: 2
#     Edge 46, Type (0, 1), BuildingBlock: EZIPEK_clean_linker_0, # of connection points: 2
#     Edge 47, Type (0, 1), BuildingBlock: EZIPEK_clean_linker_0, # of connection points: 2
#     Edge 48, Type (0, 1), BuildingBlock: EZIPEK_clean_linker_0, # of connection points: 2
#     Edge 49, Type (0, 1), BuildingBlock: EZIPEK_clean_linker_0, # of connection points: 2
#     Edge 50, Type (0, 1), BuildingBlock: EZIPEK_clean_linker_0, # of connection points: 2
#     Edge 51, Type (0, 1), BuildingBlock: EZIPEK_clean_linker_0, # of connection points: 2
#     Edge 52, Type (0, 1), BuildingBlock: EZIPEK_clean_linker_0, # of connection points: 2
#     Edge 53, Type (0, 1), BuildingBlock: EZIPEK_clean_linker_0, # of connection points: 2
#     Edge 54, Type (0, 1), BuildingBlock: EZIPEK_clean_linker_0, # of connection points: 2
#     Edge 55, Type (0, 1), BuildingBlock: EZIPEK_clean_linker_0, # of connection points: 2
#     Edge 56, Type (0, 1), BuildingBlock: EZIPEK_clean_linker_0, # of connection points: 2
#     Edge 57, Type (0, 1), BuildingBlock: EZIPEK_clean_linker_0, # of connection points: 2
#     Edge 58, Type (0, 1), BuildingBlock: EZIPEK_clean_linker_0, # of connection points: 2
#     Edge 59, Type (0, 1), BuildingBlock: EZIPEK_clean_linker_0, # of connection points: 2
#     Edge 60, Type (0, 1), BuildingBlock: EZIPEK_clean_linker_0, # of connection points: 2
#     Edge 61, Type (0, 1), BuildingBlock: EZIPEK_clean_linker_0, # of connection points: 2
# Relax obj value: 0.091
# Max RMSD: 0.261
# Mean RMSD: 0.143
data_MOF--net-ocu--node1-BETDEL_clean_sbu_0--node2-TAGTUT_clean_sbu_1--edge1-EZIPEK_clean_linker_0
_symmetry_space_group_name_H-M    P1
_symmetry_Int_Tables_number       1
_symmetry_cell_setting            triclinic
loop_
_symmetry_equiv_pos_as_xyz
'x, y, z'
_cell_length_a     28.909333
_cell_length_b     28.339549
_cell_length_c     29.20427
_cell_angle_alpha  91.835741
_cell_angle_beta   94.522089
_cell_angle_gamma 109.99576
loop_
_atom_site_label
_atom_site_type_symbol
_atom_site_fract_x
_atom_site_fract_y
_atom_site_fract_z
_atom_type_partial_charge
Dy0 Dy 0.31229 0.25248 0.28411 0.0
C1 C 0.15776 0.26859 0.16712 0.0
C2 C 0.38475 0.22864 0.33219 0.0
Dy3 Dy 0.22145 0.2411 0.2223 0.0
O4 O 0.38693 0.27423 0.32465 0.0
O5 O 0.3426 0.19673 0.31512 0.0
O6 O 0.3497 0.32984 0.26044 0.0
O7 O 0.30083 0.2745 0.21393 0.0
C8 C 0.32919 0.3199 0.21839 0.0
C9 C 0.19222 0.17604 0.28881 0.0
O10 O 0.25021 0.19371 0.17675 0.0
O11 O 0.31663 0.19706 0.22831 0.0
O12 O 0.15627 0.22233 0.16956 0.0
O13 O 0.19519 0.29967 0.19262 0.0
O14 O 0.16304 0.18141 0.25493 0.0
O15 O 0.23554 0.20552 0.28449 0.0
O16 O 0.27302 0.28758 0.332 0.0
O17 O 0.22382 0.30372 0.27309 0.0
C18 C 0.28961 0.18099 0.18819 0.0
C19 C 0.24113 0.30938 0.3169 0.0
Dy20 Dy 0.80936 0.22462 0.25842 0.0
C21 C 0.64146 0.26555 0.17054 0.0
C22 C 0.88459 0.20802 0.30956 0.0
Dy23 Dy 0.71618 0.2524 0.22573 0.0
O24 O 0.8764 0.20124 0.26506 0.0
O25 O 0.8523 0.22476 0.32598 0.0
O26 O 0.80436 0.18347 0.18916 0.0
O27 O 0.74159 0.1899 0.21479 0.0
C28 C 0.75784 0.17694 0.17977 0.0
C29 C 0.7641 0.29627 0.30568 0.0
O30 O 0.6796 0.18735 0.26692 0.0
O31 O 0.75169 0.17931 0.30259 0.0
O32 O 0.67208 0.29947 0.19992 0.0
O33 O 0.65067 0.22387 0.17256 0.0
O34 O 0.7173 0.28864 0.29553 0.0
O35 O 0.78325 0.2868 0.27083 0.0
O36 O 0.8463 0.29462 0.22446 0.0
O37 O 0.77532 0.29731 0.18248 0.0
C38 C 0.70288 0.16795 0.29786 0.0
C39 C 0.82423 0.31231 0.1913 0.0
Dy40 Dy 0.71984 0.72964 0.27296 0.0
C41 C 0.87141 0.767 0.15522 0.0
C42 C 0.65707 0.73815 0.33435 0.0
Dy43 Dy 0.79689 0.75841 0.21009 0.0
O44 O 0.64555 0.70336 0.30116 0.0
O45 O 0.70297 0.76643 0.33497 0.0
O46 O 0.70046 0.64741 0.25432 0.0
O47 O 0.72543 0.69898 0.20442 0.0
C48 C 0.71511 0.6533 0.21323 0.0
C49 C 0.80295 0.83298 0.27233 0.0
O50 O 0.7389 0.77743 0.16571 0.0
O51 O 0.69098 0.77749 0.22494 0.0
O52 O 0.87491 0.76637 0.19957 0.0
O53 O 0.82637 0.76236 0.1409 0.0
O54 O 0.81248 0.83987 0.23 0.0
O55 O 0.79303 0.78709 0.27903 0.0
O56 O 0.77586 0.7063 0.31567 0.0
O57 O 0.82051 0.70347 0.25439 0.0
C58 C 0.70178 0.78792 0.1822 0.0
C59 C 0.81123 0.69382 0.29779 0.0
Dy60 Dy 0.29201 0.71402 0.25838 0.0
C61 C 0.17594 0.84276 0.26045 0.0
C62 C 0.33867 0.64953 0.23374 0.0
Dy63 Dy 0.22572 0.78122 0.23799 0.0
O64 O 0.35973 0.69292 0.25616 0.0
O65 O 0.29108 0.63888 0.23075 0.0
O66 O 0.34159 0.76735 0.31447 0.0
O67 O 0.26935 0.76702 0.29673 0.0
C68 C 0.31085 0.79154 0.31833 0.0
C69 C 0.21213 0.70264 0.17777 0.0
O70 O 0.29412 0.83082 0.21054 0.0
O71 O 0.33402 0.77249 0.21276 0.0
O72 O 0.1685 0.81699 0.22108 0.0
O73 O 0.21359 0.83839 0.2848 0.0
O74 O 0.17832 0.72268 0.18297 0.0
O75 O 0.25188 0.73031 0.19955 0.0
O76 O 0.2237 0.6708 0.29221 0.0
O77 O 0.17668 0.72243 0.27757 0.0
C78 C 0.33256 0.81718 0.20295 0.0
C79 C 0.18339 0.68307 0.29571 0.0
Dy80 Dy 0.30014 0.72593 0.76003 0.0
C81 C 0.14557 0.7898 0.67584 0.0
C82 C 0.3687 0.69911 0.81202 0.0
Dy83 Dy 0.21668 0.7654 0.72485 0.0
O84 O 0.36732 0.70275 0.7678 0.0
O85 O 0.33284 0.71052 0.82785 0.0
O86 O 0.29957 0.6902 0.68966 0.0
O87 O 0.23573 0.6993 0.71021 0.0
C88 C 0.25524 0.68883 0.67632 0.0
C89 C 0.26069 0.80184 0.80877 0.0
O90 O 0.17145 0.69175 0.7483 0.0
O91 O 0.23459 0.68049 0.79615 0.0
O92 O 0.14794 0.78533 0.7199 0.0
O93 O 0.18214 0.78111 0.65849 0.0
O94 O 0.21644 0.80019 0.79508 0.0
O95 O 0.281 0.79209 0.77504 0.0
O96 O 0.34507 0.79853 0.73315 0.0
O97 O 0.28055 0.8113 0.6881 0.0
C98 C 0.187 0.67042 0.78281 0.0
C99 C 0.32826 0.82088 0.69997 0.0
Dy100 Dy 0.21768 0.22757 0.77264 0.0
C101 C 0.37376 0.26674 0.66284 0.0
C102 C 0.14138 0.22782 0.82141 0.0
Dy103 Dy 0.29769 0.2621 0.71392 0.0
O104 O 0.18688 0.23877 0.83847 0.0
O105 O 0.13715 0.21178 0.77881 0.0
O106 O 0.20467 0.14648 0.75629 0.0
O107 O 0.22895 0.19764 0.70585 0.0
C108 C 0.2208 0.15244 0.71585 0.0
C109 C 0.29451 0.33645 0.77221 0.0
O110 O 0.24252 0.28371 0.66805 0.0
O111 O 0.19107 0.27754 0.7255 0.0
O112 O 0.37825 0.28183 0.70573 0.0
O113 O 0.32758 0.25293 0.64707 0.0
O114 O 0.30972 0.34306 0.73148 0.0
O115 O 0.28675 0.29113 0.78104 0.0
O116 O 0.27372 0.20742 0.81884 0.0
O117 O 0.3249 0.21223 0.76114 0.0
C118 C 0.20357 0.29098 0.68386 0.0
C119 C 0.3125 0.19952 0.80309 0.0
Dy120 Dy 0.79758 0.21394 0.76405 0.0
C121 C 0.67759 0.33492 0.74619 0.0
C122 C 0.85675 0.16185 0.74375 0.0
Dy123 Dy 0.72726 0.27031 0.73361 0.0
O124 O 0.86158 0.18769 0.78268 0.0
O125 O 0.81871 0.16285 0.71796 0.0
O126 O 0.81342 0.25401 0.83406 0.0
O127 O 0.79626 0.28894 0.77618 0.0
C128 C 0.80318 0.29274 0.81944 0.0
C129 C 0.72329 0.19315 0.67699 0.0
O130 O 0.7882 0.31154 0.69309 0.0
O131 O 0.84069 0.26804 0.71566 0.0
O132 O 0.65798 0.28948 0.72697 0.0
O133 O 0.72448 0.34461 0.75668 0.0
O134 O 0.71155 0.2314 0.66317 0.0
O135 O 0.72909 0.19557 0.72034 0.0
O136 O 0.73231 0.16712 0.79703 0.0
O137 O 0.69066 0.22446 0.79015 0.0
C138 C 0.82973 0.30199 0.69136 0.0
C139 C 0.69582 0.18315 0.80596 0.0
Dy140 Dy 0.79334 0.74208 0.77264 0.0
C141 C 0.632 0.76163 0.66378 0.0
C142 C 0.85566 0.7122 0.8283 0.0
Dy143 Dy 0.70344 0.73394 0.7099 0.0
O144 O 0.86039 0.75895 0.82279 0.0
O145 O 0.81545 0.68203 0.80551 0.0
O146 O 0.85296 0.80198 0.74079 0.0
O147 O 0.78085 0.77952 0.7112 0.0
C148 C 0.82436 0.80893 0.70718 0.0
C149 C 0.68473 0.66392 0.77371 0.0
O150 O 0.74225 0.69875 0.66118 0.0
O151 O 0.79208 0.6819 0.7193 0.0
O152 O 0.62795 0.71554 0.67141 0.0
O153 O 0.67563 0.79178 0.67928 0.0
O154 O 0.66505 0.65566 0.73133 0.0
O155 O 0.71334 0.70933 0.77952 0.0
O156 O 0.76586 0.79111 0.81803 0.0
O157 O 0.69984 0.78901 0.76648 0.0
C158 C 0.77475 0.67716 0.67545 0.0
C159 C 0.72683 0.80458 0.80665 0.0
C160 C 0.94876 0.11997 0.59588 0.0
C161 C 0.98121 0.13484 0.45 0.0
C162 C 0.90499 0.93332 0.43815 0.0
Mg163 Mg 0.03318 0.11607 0.53908 0.0
O164 O 0.98953 0.04884 0.53471 0.0
Mg165 Mg 0.92029 0.03292 0.50684 0.0
Mg166 Mg 1.00736 -0.00154 0.49998 0.0
O167 O 0.02622 0.94826 0.46581 0.0
Mg168 Mg 0.98404 0.88093 0.46078 0.0
Mg169 Mg 0.0958 0.96447 0.49364 0.0
C170 C 0.1095 0.06029 0.56565 0.0
C171 C 0.0947 0.05793 0.43373 0.0
O172 O 0.9169 0.08686 0.56733 0.0
O173 O 0.9951 0.13706 0.59121 0.0
O174 O 0.9444 0.09729 0.45927 0.0
O175 O 0.02291 0.14822 0.47419 0.0
O176 O 0.0998 0.10125 0.56415 0.0
O177 O 0.07964 0.01843 0.54652 0.0
C178 C 0.92015 0.93903 0.56648 0.0
O179 O 0.96173 0.94138 0.55173 0.0
O180 O 0.89795 0.96881 0.55345 0.0
O181 O 0.10056 0.91171 0.43339 0.0
O182 O 0.02266 0.86373 0.40571 0.0
O183 O 0.07287 0.8997 0.54073 0.0
C184 C 0.06958 0.88043 0.40298 0.0
O185 O 0.99611 0.8459 0.52216 0.0
O186 O 0.91381 0.89353 0.44925 0.0
C187 C 0.03668 0.86054 0.54779 0.0
O188 O 0.93479 0.97768 0.45221 0.0
O189 O 0.05301 0.05541 0.44828 0.0
O190 O 0.11722 0.02856 0.44713 0.0
C191 C 0.39099 0.09266 0.0641 0.0
C192 C 0.42311 0.10384 0.92618 0.0
C193 C 0.42109 0.90262 0.93799 0.0
Mg194 Mg 0.48984 0.1085 0.01846 0.0
O195 O 0.46783 0.03797 0.01792 0.0
Mg196 Mg 0.39874 -0.00058 0.99103 0.0
Mg197 Mg 0.50584 0.99461 -0.00508 0.0
O198 O 0.54444 0.9517 0.97175 0.0
Mg199 Mg 0.52497 0.8814 0.96911 0.0
Mg200 Mg 0.61339 0.9912 -0.00266 0.0
C201 C 0.59283 0.08713 0.05048 0.0
C202 C 0.5761 0.05687 0.92292 0.0
O203 O 0.37098 0.05074 0.03973 0.0
O204 O 0.43689 0.11958 0.06372 0.0
O205 O 0.39841 0.05793 0.93393 0.0
O206 O 0.46347 0.12865 0.95102 0.0
O207 O 0.56763 0.11706 0.04604 0.0
O208 O 0.57522 0.04014 0.03764 0.0
C209 C 0.43398 0.93296 0.06681 0.0
O210 O 0.47718 0.94483 0.05304 0.0
O211 O 0.40049 0.94848 0.04868 0.0
O212 O 0.64235 0.94039 0.9483 0.0
O213 O 0.57708 0.87198 0.92236 0.0
O214 O 0.61466 0.93481 0.05487 0.0
C215 C 0.62301 0.89902 0.92293 0.0
O216 O 0.55512 0.86064 0.03481 0.0
O217 O 0.44734 0.8737 0.9427 0.0
C218 C 0.59333 0.88788 0.06123 0.0
O219 O 0.43708 0.94929 0.95216 0.0
O220 O 0.53329 0.04455 0.93726 0.0
O221 O 0.61025 0.04186 0.94024 0.0
C222 C 0.95757 0.64668 0.06389 0.0
C223 C 0.97407 0.62206 0.92871 0.0
C224 C 0.9095 0.42861 0.94905 0.0
Mg225 Mg 0.03734 0.62184 0.01412 0.0
O226 O 0.99964 0.5575 0.02896 0.0
Mg227 Mg 0.92784 0.53544 0.00518 0.0
Mg228 Mg 0.01699 0.50294 -0.00188 0.0
O229 O 0.03291 0.44832 0.96731 0.0
Mg230 Mg 0.99266 0.38233 0.97488 0.0
Mg231 Mg 0.10468 0.46884 0.98667 0.0
C232 C 0.12506 0.58077 0.03977 0.0
C233 C 0.08659 0.54757 0.91716 0.0
O234 O 0.92585 0.60281 0.05126 0.0
O235 O 1.00256 0.66133 0.05433 0.0
O236 O 0.93973 0.58923 0.94706 0.0
O237 O 0.019 0.63536 0.94487 0.0
O238 O 0.10836 0.617 0.03471 0.0
O239 O 0.09648 0.53423 0.03385 0.0
C240 C 0.94357 0.45467 0.07574 0.0
O241 O 0.98312 0.45609 0.05779 0.0
O242 O 0.91791 0.48154 0.06249 0.0
O243 O 0.10135 0.40023 0.93638 0.0
O244 O 0.02185 0.34768 0.92529 0.0
O245 O 0.09401 0.41535 0.04456 0.0
C246 C 0.06733 0.35984 0.91812 0.0
O247 O 0.01764 0.35823 0.03822 0.0
O248 O 0.92157 0.38953 0.95499 0.0
C249 C 0.0617 0.37615 0.05762 0.0
O250 O 0.94001 0.47311 0.96018 0.0
O251 O 0.04932 0.54839 0.93776 0.0
O252 O 0.11237 0.52061 0.92927 0.0
C253 C 0.4342 0.59982 0.08299 0.0
C254 C 0.47168 0.6173 0.94116 0.0
C255 C 0.41167 0.4183 0.92387 0.0
Mg256 Mg 0.52389 0.60214 0.03174 0.0
O257 O 0.48504 0.53375 0.02633 0.0
Mg258 Mg 0.4157 0.51232 -0.00364 0.0
Mg259 Mg 0.50843 0.48539 0.99418 0.0
O260 O 0.5319 0.43756 0.96144 0.0
Mg261 Mg 0.49528 0.36985 0.94607 0.0
Mg262 Mg 0.6021 0.45922 0.988 0.0
C263 C 0.60647 0.55384 0.06081 0.0
C264 C 0.59221 0.54834 0.92519 0.0
O265 O 0.40588 0.56444 0.05428 0.0
O266 O 0.48067 0.62088 0.08041 0.0
O267 O 0.4365 0.57702 0.94807 0.0
O268 O 0.51203 0.63355 0.96739 0.0
O269 O 0.59225 0.59212 0.05884 0.0
O270 O 0.58055 0.51058 0.04115 0.0
C271 C 0.42332 0.42558 0.06294 0.0
O272 O 0.46616 0.43023 0.0496 0.0
O273 O 0.3975 0.45002 0.045 0.0
O274 O 0.61482 0.4126 0.92622 0.0
O275 O 0.54058 0.36469 0.89305 0.0
O276 O 0.58106 0.3904 0.03289 0.0
C277 C 0.58678 0.38769 0.89087 0.0
O278 O 0.50763 0.33278 0.00681 0.0
O279 O 0.4262 0.38029 0.92127 0.0
C280 C 0.54621 0.34822 0.03553 0.0
O281 O 0.43728 0.45941 0.94701 0.0
O282 O 0.54954 0.54192 0.93948 0.0
O283 O 0.61883 0.52367 0.94091 0.0
C284 C 0.88362 0.58455 0.56085 0.0
C285 C 0.91822 0.59589 0.423 0.0
C286 C 0.92531 0.40075 0.43349 0.0
Mg287 Mg 0.98419 0.60395 0.51717 0.0
O288 O 0.96588 0.53372 0.51592 0.0
Mg289 Mg 0.89782 0.49298 0.48792 0.0
Mg290 Mg 1.00728 0.49282 0.49415 0.0
O291 O 0.0484 0.45228 0.47198 0.0
Mg292 Mg 0.02903 0.38234 0.46755 0.0
Mg293 Mg 0.11618 0.49137 0.50142 0.0
C294 C 0.08934 0.58567 0.55194 0.0
C295 C 0.08094 0.55801 0.42574 0.0
O296 O 0.86551 0.54265 0.53591 0.0
O297 O 0.92943 0.61236 0.56168 0.0
O298 O 0.89679 0.5492 0.43011 0.0
O299 O 0.95586 0.62366 0.44978 0.0
O300 O 0.06217 0.61348 0.54542 0.0
O301 O 0.07437 0.53864 0.53924 0.0
C302 C 0.93458 0.4275 0.56314 0.0
O303 O 0.97829 0.44183 0.55056 0.0
O304 O 0.90027 0.4418 0.54494 0.0
O305 O 0.14897 0.44297 0.45398 0.0
O306 O 0.08502 0.37498 0.42473 0.0
O307 O 0.11449 0.43129 0.558 0.0
C308 C 0.13107 0.40226 0.42759 0.0
O309 O 0.05268 0.36052 0.5347 0.0
O310 O 0.95208 0.3724 0.43806 0.0
C311 C 0.08979 0.38466 0.56346 0.0
O312 O 0.93999 0.44671 0.44943 0.0
O313 O 0.03697 0.54365 0.43782 0.0
O314 O 0.11521 0.54394 0.44456 0.0
C315 C 0.45714 0.14561 0.56395 0.0
C316 C 0.49058 0.12914 0.43101 0.0
C317 C 0.40674 0.92965 0.44171 0.0
Mg318 Mg 0.53961 0.11773 0.52252 0.0
O319 O 0.49497 0.0534 0.52749 0.0
Mg320 Mg 0.42639 0.03828 0.49732 0.0
Mg321 Mg 0.51142 -0.0033 0.49979 0.0
O322 O 0.52737 0.93959 0.47251 0.0
Mg323 Mg 0.48139 0.87533 0.47684 0.0
Mg324 Mg 0.59475 0.95375 0.50526 0.0
C325 C 0.61551 0.06446 0.5566 0.0
C326 C 0.59798 0.0386 0.43235 0.0
O327 O 0.42439 0.10536 0.54437 0.0
O328 O 0.50357 0.15729 0.56098 0.0
O329 O 0.45145 0.09585 0.44248 0.0
O330 O 0.53238 0.13862 0.45368 0.0
O331 O 0.60483 0.10439 0.55075 0.0
O332 O 0.58398 0.02012 0.54596 0.0
C333 C 0.42719 0.95355 0.56896 0.0
O334 O 0.46688 0.95145 0.55394 0.0
O335 O 0.40513 0.98276 0.55331 0.0
O336 O 0.59703 0.88602 0.45969 0.0
O337 O 0.51811 0.83548 0.43904 0.0
O338 O 0.56621 0.89705 0.56041 0.0
C339 C 0.56484 0.84655 0.4384 0.0
O340 O 0.48575 0.85365 0.54571 0.0
O341 O 0.41701 0.88941 0.44702 0.0
C342 C 0.52636 0.86377 0.57067 0.0
O343 O 0.43832 0.97358 0.45386 0.0
O344 O 0.55759 0.04164 0.44536 0.0
O345 O 0.61848 0.00884 0.44976 0.0
C346 C 0.1293 0.0994 0.31515 0.0
C347 C 0.17381 0.14076 0.32612 0.0
C348 C 0.16375 0.13049 0.40849 0.0
C349 C 0.11727 0.09192 0.39733 0.0
N350 N 0.05311 0.04303 0.33987 0.0
N351 N 0.24235 0.18142 0.38321 0.0
C352 C 0.09932 0.07744 0.35055 0.0
C353 C 0.19405 0.15185 0.37282 0.0
N354 N 0.11804 0.07831 0.27109 0.0
N355 N 0.1775 0.14866 0.45323 0.0
H356 H 0.26624 0.19505 0.35814 0.0
H357 H 0.26029 0.18753 0.41634 0.0
H358 H 0.1545 0.13552 0.47931 0.0
H359 H 0.20858 0.18004 0.46366 0.0
H360 H 0.08873 0.04518 0.26118 0.0
H361 H 0.14201 0.09034 0.24554 0.0
H362 H 0.03529 0.03472 0.30669 0.0
H363 H 0.0308 0.02615 0.36509 0.0
C364 C 0.95173 0.22865 0.37403 0.0
C365 C 0.92158 0.19389 0.33848 0.0
C366 C 0.95335 0.12975 0.36726 0.0
C367 C 0.97368 0.1605 0.40816 0.0
N368 N 0.99377 0.24036 0.45085 0.0
N369 N 0.89164 0.10942 0.30219 0.0
C370 C 0.97448 0.21081 0.41129 0.0
C371 C 0.92275 0.14423 0.33448 0.0
N372 N 0.95882 0.27868 0.37186 0.0
N373 N 0.96228 0.08583 0.36073 0.0
H374 H 0.86735 0.11729 0.27799 0.0
H375 H 0.88687 0.07127 0.30171 0.0
H376 H 0.98393 0.07429 0.38503 0.0
H377 H 0.95247 0.06376 0.32988 0.0
H378 H 0.98451 0.30641 0.39412 0.0
H379 H 0.94283 0.29279 0.34474 0.0
H380 H 0.98966 0.27499 0.45736 0.0
H381 H 0.01185 0.22902 0.47826 0.0
C382 C 0.88223 0.88578 0.31651 0.0
C383 C 0.83 0.87153 0.30927 0.0
C384 C 0.82839 0.91344 0.38366 0.0
C385 C 0.8803 0.92652 0.391 0.0
N386 N 0.95796 0.9374 0.36015 0.0
N387 N 0.75455 0.88128 0.32963 0.0
C388 C 0.90751 0.91775 0.35534 0.0
C389 C 0.80344 0.88884 0.34076 0.0
N390 N 0.90745 0.86515 0.28895 0.0
N391 N 0.80308 0.92226 0.41857 0.0
H392 H 0.73584 0.86351 0.29829 0.0
H393 H 0.73372 0.89589 0.34957 0.0
H394 H 0.82122 0.94198 0.4494 0.0
H395 H 0.76468 0.90867 0.41767 0.0
H396 H 0.94429 0.86855 0.29667 0.0
H397 H 0.89108 0.84077 0.26028 0.0
H398 H 0.97976 0.93691 0.3335 0.0
H399 H 0.9779 0.95789 0.38982 0.0
C400 C 0.14379 0.90277 0.29961 0.0
C401 C 0.1367 0.85292 0.28398 0.0
C402 C 0.08092 0.81999 0.34351 0.0
C403 C 0.08864 0.86996 0.35966 0.0
N404 N 0.1132 0.95779 0.34354 0.0
N405 N 0.08648 0.76478 0.28083 0.0
C406 C 0.11562 0.91111 0.33464 0.0
C407 C 0.10086 0.81176 0.30232 0.0
N408 N 0.17856 0.94197 0.28195 0.0
N409 N 0.05742 0.78062 0.36887 0.0
H410 H 0.09944 0.75745 0.25011 0.0
H411 H 0.0577 0.73424 0.29062 0.0
H412 H 0.04289 0.78512 0.3996 0.0
H413 H 0.05604 0.74396 0.36154 0.0
H414 H 0.18988 0.97891 0.29586 0.0
H415 H 0.19765 0.93684 0.2544 0.0
H416 H 0.12888 0.98822 0.32388 0.0
H417 H 0.09101 0.96472 0.3675 0.0
C418 C 0.08984 0.84026 0.66068 0.0
C419 C 0.10523 0.79945 0.64832 0.0
C420 C 0.05822 0.7873 0.57304 0.0
C421 C 0.04541 0.82977 0.58454 0.0
N422 N 0.03211 0.88375 0.64284 0.0
N423 N 0.08908 0.72329 0.60095 0.0
C424 C 0.05527 0.85156 0.62991 0.0
C425 C 0.08444 0.76933 0.60712 0.0
N426 N 0.1109 0.87072 0.69945 0.0
N427 N 0.04825 0.76624 0.52899 0.0
H428 H 0.10659 0.70803 0.62598 0.0
H429 H 0.07061 0.69825 0.57328 0.0
H430 H 0.02733 0.77722 0.50356 0.0
H431 H 0.06272 0.73962 0.51713 0.0
H432 H 0.10473 0.90416 0.7069 0.0
H433 H 0.13757 0.86504 0.72249 0.0
H434 H 0.03423 0.89761 0.6767 0.0
H435 H 1.00667 0.89201 0.62002 0.0
C436 C 0.22797 0.11924 0.63717 0.0
C437 C 0.20805 0.1103 0.67986 0.0
C438 C 0.13682 0.04168 0.64397 0.0
C439 C 0.1497 0.06083 0.60051 0.0
N440 N 0.21258 0.10652 0.55379 0.0
N441 N 0.16286 0.04399 0.72548 0.0
C442 C 0.19772 0.09524 0.59648 0.0
C443 C 0.16862 0.06504 0.68401 0.0
N444 N 0.27621 0.14867 0.63657 0.0
N445 N 0.09265 0.00442 0.64741 0.0
H446 H 0.18902 0.05841 0.75374 0.0
H447 H 0.1365 0.00914 0.73013 0.0
H448 H 0.06997 0.98422 0.6188 0.0
H449 H 0.07813 0.99431 0.67863 0.0
H450 H 0.29469 0.15503 0.60695 0.0
H451 H 0.29864 0.16226 0.66735 0.0
H452 H 0.24505 0.13513 0.54778 0.0
H453 H 0.19139 0.08628 0.52431 0.0
C454 C 0.93034 0.19089 0.7017 0.0
C455 C 0.89627 0.15067 0.72237 0.0
C456 C 0.90952 0.09076 0.6679 0.0
C457 C 0.93309 0.13127 0.64059 0.0
N458 N 0.96666 0.22067 0.6314 0.0
N459 N 0.85456 0.06223 0.72768 0.0
C460 C 0.94472 0.18175 0.65786 0.0
C461 C 0.88692 0.10044 0.70666 0.0
N462 N 0.94721 0.23789 0.72332 0.0
N463 N 0.91018 0.04359 0.65775 0.0
H464 H 0.83975 0.06873 0.75776 0.0
H465 H 0.84108 0.02499 0.71436 0.0
H466 H 0.92875 0.0355 0.63107 0.0
H467 H 0.89701 0.01378 0.67875 0.0
H468 H 0.97474 0.26831 0.71169 0.0
H469 H 0.93726 0.24497 0.7557 0.0
H470 H 0.97236 0.25816 0.64063 0.0
H471 H 0.97549 0.21526 0.59817 0.0
C472 C 0.82167 0.83956 0.625 0.0
C473 C 0.84316 0.84673 0.67142 0.0
C474 C 0.91579 0.91513 0.64874 0.0
C475 C 0.8969 0.90374 0.60183 0.0
N476 N 0.83422 0.8523 0.54437 0.0
N477 N 0.89944 0.90597 0.72879 0.0
C478 C 0.85027 0.86544 0.58983 0.0
C479 C 0.88739 0.88853 0.68365 0.0
N480 N 0.77335 0.81002 0.6145 0.0
N481 N 0.96095 0.95164 0.66001 0.0
H482 H 0.87621 0.89145 0.75437 0.0
H483 H 0.92855 0.93868 0.74026 0.0
H484 H 0.98163 0.97358 0.63575 0.0
H485 H 0.97977 0.95789 0.69274 0.0
H486 H 0.75413 0.80749 0.58231 0.0
H487 H 0.75058 0.79206 0.63901 0.0
H488 H 0.80372 0.82079 0.53281 0.0
H489 H 0.85417 0.8703 0.51786 0.0
C490 C 0.32833 0.11609 0.16932 0.0
C491 C 0.30882 0.15322 0.15387 0.0
C492 C 0.33349 0.14099 0.07658 0.0
C493 C 0.36008 0.11075 0.09431 0.0
N494 N 0.38852 0.07533 0.15984 0.0
N495 N 0.3028 0.20831 0.0934 0.0
C496 C 0.35906 0.09992 0.14137 0.0
C497 C 0.31354 0.16738 0.10748 0.0
N498 N 0.31634 0.09505 0.21016 0.0
N499 N 0.32722 0.14461 0.03016 0.0
H500 H 0.29143 0.23133 0.11492 0.0
H501 H 0.31068 0.22299 0.06151 0.0
H502 H 0.34083 0.12531 0.00673 0.0
H503 H 0.30435 0.16242 0.01493 0.0
H504 H 0.32608 0.06486 0.22131 0.0
H505 H 0.29198 0.104 0.23042 0.0
H506 H 0.39324 0.0708 0.19497 0.0
H507 H 0.41161 0.06351 0.14032 0.0
C508 C 0.89024 0.39612 0.18335 0.0
C509 C 0.85599 0.34984 0.16272 0.0
C510 C 0.89361 0.3675 0.09061 0.0
C511 C 0.92233 0.41655 0.10865 0.0
N512 N 0.94722 0.47963 0.17142 0.0
N513 N 0.8188 0.29691 0.09339 0.0
C514 C 0.92064 0.43145 0.15499 0.0
C515 C 0.85566 0.33718 0.11536 0.0
N516 N 0.89339 0.40653 0.22972 0.0
N517 N 0.90338 0.34927 0.05018 0.0
H518 H 0.78984 0.27323 0.10972 0.0
H519 H 0.81427 0.29002 0.05774 0.0
H520 H 0.93339 0.36958 0.03324 0.0
H521 H 0.88636 0.31209 0.03721 0.0
H522 H 0.9215 0.43663 0.2473 0.0
H523 H 0.86938 0.3835 0.25114 0.0
H524 H 0.94325 0.49486 0.20317 0.0
H525 H 0.97191 0.5052 0.15206 0.0
C526 C 0.62027 0.79849 0.14975 0.0
C527 C 0.67304 0.81396 0.15261 0.0
C528 C 0.67191 0.87289 0.09235 0.0
C529 C 0.62015 0.8627 0.09387 0.0
N530 N 0.54698 0.82074 0.13119 0.0
N531 N 0.74863 0.87759 0.13476 0.0
C532 C 0.59488 0.82687 0.1247 0.0
C533 C 0.69863 0.85455 0.12632 0.0
N534 N 0.59387 0.75524 0.16879 0.0
N535 N 0.69577 0.89759 0.05686 0.0
H536 H 0.76963 0.86792 0.16094 0.0
H537 H 0.76816 0.91038 0.11953 0.0
H538 H 0.67799 0.90876 0.02911 0.0
H539 H 0.73214 0.90122 0.05199 0.0
H540 H 0.55543 0.73958 0.16403 0.0
H541 H 0.61038 0.73206 0.18514 0.0
H542 H 0.52812 0.79902 0.1565 0.0
H543 H 0.52782 0.84142 0.11442 0.0
C544 C 0.22052 0.68195 0.09496 0.0
C545 C 0.20924 0.66541 0.13952 0.0
C546 C 0.17834 0.57784 0.10775 0.0
C547 C 0.17533 0.59611 0.06404 0.0
N548 N 0.21618 0.65756 0.01321 0.0
N549 N 0.19047 0.59715 0.19009 0.0
C550 C 0.2061 0.64554 0.05702 0.0
C551 C 0.19315 0.61296 0.14662 0.0
N552 N 0.2424 0.73204 0.08889 0.0
N553 N 0.16499 0.52721 0.11131 0.0
H554 H 0.20209 0.62255 0.21857 0.0
H555 H 0.17655 0.55969 0.19806 0.0
H556 H 0.15564 0.50279 0.08184 0.0
H557 H 0.16689 0.51002 0.14199 0.0
H558 H 0.24852 0.74691 0.0569 0.0
H559 H 0.25421 0.75917 0.11633 0.0
H560 H 0.23931 0.69251 0.00449 0.0
H561 H 0.20295 0.63019 0.9859 0.0
C562 C 0.2993 0.80752 0.88901 0.0
C563 C 0.28961 0.8318 0.84976 0.0
C564 C 0.36116 0.90622 0.87253 0.0
C565 C 0.37223 0.88184 0.9116 0.0
N566 N 0.34416 0.81655 0.96443 0.0
N567 N 0.29798 0.9095 0.81463 0.0
C568 C 0.33863 0.8347 0.92235 0.0
C569 C 0.31583 0.88317 0.84541 0.0
N570 N 0.27182 0.75834 0.89359 0.0
N571 N 0.39543 0.94841 0.85826 0.0
H572 H 0.26484 0.89308 0.79385 0.0
H573 H 0.31365 0.94841 0.81309 0.0
H574 H 0.43091 0.96551 0.87459 0.0
H575 H 0.3904 0.96345 0.82694 0.0
H576 H 0.2807 0.73656 0.91852 0.0
H577 H 0.24075 0.73897 0.87107 0.0
H578 H 0.31883 0.7841 0.97559 0.0
H579 H 0.37173 0.8369 0.98994 0.0
C580 C 0.09971 0.29192 0.8186 0.0
C581 C 0.10863 0.25161 0.84117 0.0
C582 C 0.07921 0.27659 0.91087 0.0
C583 C 0.08106 0.32253 0.89139 0.0
N584 N 0.09584 0.37573 0.82745 0.0
N585 N 0.10764 0.20554 0.90909 0.0
C586 C 0.09223 0.33081 0.84545 0.0
C587 C 0.09823 0.24375 0.88736 0.0
N588 N 0.097 0.29271 0.77172 0.0
N589 N 0.05875 0.26384 0.95135 0.0
H590 H 0.11818 0.17859 0.89178 0.0
H591 H 0.10722 0.20205 0.94448 0.0
H592 H 0.04471 0.28678 0.97025 0.0
H593 H 0.05214 0.22863 0.96449 0.0
H594 H 0.0873 0.31964 0.75376 0.0
H595 H 0.0972 0.26292 0.75017 0.0
H596 H 0.10961 0.386 0.79594 0.0
H597 H 0.08867 0.40437 0.84561 0.0
C598 C 0.65244 0.17122 0.87693 0.0
C599 C 0.65725 0.15262 0.83272 0.0
C600 C 0.59258 0.07289 0.84236 0.0
C601 C 0.58879 0.09172 0.8867 0.0
N602 N 0.599 0.16313 0.93801 0.0
N603 N 0.62117 0.09338 0.76736 0.0
C604 C 0.61287 0.14277 0.90086 0.0
C605 C 0.62375 0.10576 0.81329 0.0
N606 N 0.68774 0.21355 0.89754 0.0
N607 N 0.56799 0.02337 0.82907 0.0
H608 H 0.64203 0.11821 0.74499 0.0
H609 H 0.59497 0.06103 0.75089 0.0
H610 H 0.54299 -0.00062 0.84931 0.0
H611 H 0.57392 0.006 0.79922 0.0
H612 H 0.68774 0.22626 0.93143 0.0
H613 H 0.71997 0.23234 0.88252 0.0
H614 H 0.6135 0.2014 0.94793 0.0
H615 H 0.5696 0.14213 0.95578 0.0
C616 C 0.90854 0.65853 0.82728 0.0
C617 C 0.89432 0.69548 0.85071 0.0
C618 C 0.95342 0.69852 0.91607 0.0
C619 C 0.95871 0.65419 0.89695 0.0
N620 N 0.94385 0.59245 0.83422 0.0
N621 N 0.90098 0.74899 0.91885 0.0
C622 C 0.93732 0.63454 0.85224 0.0
C623 C 0.91686 0.71588 0.89517 0.0
N624 N 0.89625 0.64789 0.78099 0.0
N625 N 0.98232 0.72314 0.95485 0.0
H626 H 0.87266 0.76108 0.90579 0.0
H627 H 0.91275 0.76118 0.95318 0.0
H628 H 1.00925 0.71132 0.97147 0.0
H629 H 0.98309 0.75805 0.96794 0.0
H630 H 0.90887 0.6241 0.76159 0.0
H631 H 0.87797 0.66708 0.76091 0.0
H632 H 0.92413 0.57232 0.80421 0.0
H633 H 0.96809 0.57681 0.85063 0.0
C634 C 0.13011 0.28804 0.09085 0.0
C635 C 0.12363 0.28517 0.13795 0.0
C636 C 0.06722 0.33293 0.13054 0.0
C637 C 0.08059 0.34296 0.08533 0.0
N638 N 0.13041 0.33492 0.02416 0.0
N639 N 0.08687 0.30361 0.20436 0.0
C640 C 0.11327 0.32156 0.0658 0.0
C641 C 0.09198 0.30687 0.15832 0.0
N642 N 0.15289 0.25918 0.07003 0.0
N643 N 0.03167 0.34886 0.14689 0.0
H644 H 0.10248 0.28241 0.22489 0.0
H645 H 0.06893 0.32328 0.22254 0.0
H646 H 0.01435 0.36964 0.12773 0.0
H647 H 0.01706 0.33884 0.17807 0.0
H648 H 0.15351 0.2556 0.03447 0.0
H649 H 0.16687 0.2348 0.08764 0.0
H650 H 0.15975 0.32646 0.01193 0.0
H651 H 0.11751 0.35688 0.00261 0.0
C652 C 0.1351 0.58491 0.80353 0.0
C653 C 0.15004 0.63779 0.81003 0.0
C654 C 0.11702 0.63164 0.88405 0.0
C655 C 0.10139 0.57856 0.87803 0.0
N656 N 0.08247 0.5044 0.82698 0.0
N657 N 0.13674 0.70919 0.84608 0.0
C658 C 0.10605 0.55498 0.8359 0.0
C659 C 0.13458 0.66038 0.84674 0.0
N660 N 0.14948 0.56368 0.76719 0.0
N661 N 0.11933 0.65499 0.92613 0.0
H662 H 0.14674 0.73021 0.81762 0.0
H663 H 0.12247 0.72611 0.87094 0.0
H664 H 0.10872 0.63526 0.95503 0.0
H665 H 0.13598 0.69375 0.93297 0.0
H666 H 0.14428 0.52549 0.76325 0.0
H667 H 0.16866 0.58522 0.74196 0.0
H668 H 0.08154 0.48574 0.79544 0.0
H669 H 0.05979 0.48198 0.84984 0.0
C670 C 0.36791 0.20108 0.87611 0.0
C671 C 0.34344 0.17638 0.83326 0.0
C672 C 0.38045 0.1101 0.84718 0.0
C673 C 0.39941 0.13125 0.89263 0.0
N674 N 0.40319 0.19418 0.95251 0.0
N675 N 0.32238 0.10367 0.78017 0.0
C676 C 0.39132 0.17625 0.90751 0.0
C677 C 0.34892 0.13 0.81929 0.0
N678 N 0.37026 0.24929 0.88646 0.0
N679 N 0.39402 0.07192 0.82993 0.0
H680 H 0.29905 0.11659 0.75907 0.0
H681 H 0.32019 0.06718 0.77065 0.0
H682 H 0.41806 0.05781 0.84873 0.0
H683 H 0.38569 0.0578 0.79576 0.0
H684 H 0.39243 0.27161 0.91443 0.0
H685 H 0.35399 0.26884 0.86463 0.0
H686 H 0.3928 0.22295 0.96639 0.0
H687 H 0.41885 0.17741 0.97753 0.0
C688 C 0.87064 0.37606 0.8385 0.0
C689 C 0.82292 0.34217 0.84527 0.0
C690 C 0.82288 0.39058 0.91575 0.0
C691 C 0.87177 0.42142 0.91031 0.0
N692 N 0.93012 0.45985 0.85661 0.0
N693 N 0.74631 0.33141 0.87801 0.0
C694 C 0.89034 0.42066 0.86722 0.0
C695 C 0.79627 0.35418 0.87984 0.0
N696 N 0.89906 0.36394 0.80819 0.0
N697 N 0.80368 0.39391 0.95635 0.0
H698 H 0.72637 0.30725 0.85003 0.0
H699 H 0.72482 0.34098 0.90116 0.0
H700 H 0.82326 0.42131 0.98232 0.0
H701 H 0.76994 0.36871 0.96436 0.0
H702 H 0.93592 0.3858 0.80584 0.0
H703 H 0.88721 0.33031 0.78794 0.0
H704 H 0.9439 0.4619 0.8245 0.0
H705 H 0.94543 0.49227 0.87851 0.0
C706 C 0.69743 0.87689 0.82575 0.0
C707 C 0.70845 0.83409 0.84046 0.0
C708 C 0.66947 0.83888 0.91229 0.0
C709 C 0.65552 0.87933 0.89589 0.0
N710 N 0.65259 0.93474 0.83595 0.0
N711 N 0.71209 0.77937 0.90155 0.0
C712 C 0.66906 0.89812 0.85254 0.0
C713 C 0.69695 0.81687 0.88504 0.0
N714 N 0.71624 0.89864 0.78697 0.0
N715 N 0.65387 0.81961 0.95304 0.0
H716 H 0.72731 0.75827 0.88188 0.0
H717 H 0.71152 0.7699 0.93565 0.0
H718 H 0.63516 0.83543 0.97448 0.0
H719 H 0.65686 0.78654 0.96504 0.0
H720 H 0.71382 0.93238 0.77607 0.0
H721 H 0.73859 0.88533 0.76764 0.0
H722 H 0.65539 0.94603 0.80242 0.0
H723 H 0.63307 0.95198 0.85503 0.0
C724 C 0.89067 0.73908 0.07976 0.0
C725 C 0.90611 0.75486 0.12644 0.0
C726 C 0.96253 0.70768 0.1293 0.0
C727 C 0.94063 0.6847 0.08523 0.0
N728 N 0.8866 0.68044 0.01623 0.0
N729 N 0.97272 0.77549 0.18648 0.0
C730 C 0.90584 0.70136 0.05947 0.0
C731 C 0.94742 0.74603 0.14837 0.0
N732 N 0.86365 0.76222 0.05472 0.0
N733 N 0.99521 0.69069 0.154 0.0
H734 H 0.96392 0.8062 0.19846 0.0
H735 H 1.00539 0.77353 0.2026 0.0
H736 H 1.00633 0.66173 0.14158 0.0
H737 H 1.0084 0.70244 0.18817 0.0
H738 H 0.85345 0.75509 0.01953 0.0
H739 H 0.85647 0.79315 0.06857 0.0
H740 H 0.8565 0.68607 -0.0016 0.0
H741 H 0.89932 0.65556 -0.00152 0.0
C742 C 0.38359 0.90365 0.17942 0.0
C743 C 0.37372 0.85084 0.17864 0.0
C744 C 0.41793 0.85499 0.11011 0.0
C745 C 0.42349 0.90624 0.10886 0.0
N746 N 0.43499 0.98287 0.15306 0.0
N747 N 0.41137 0.78826 0.16068 0.0
C748 C 0.41382 0.93182 0.14708 0.0
C749 C 0.40003 0.82968 0.14948 0.0
N750 N 0.36414 0.9272 0.21017 0.0
N751 N 0.42898 0.83034 0.07396 0.0
H752 H 0.40875 0.77475 0.19346 0.0
H753 H 0.43176 0.77314 0.14057 0.0
H754 H 0.44441 0.84858 0.04545 0.0
H755 H 0.42021 0.79141 0.07152 0.0
H756 H 0.36515 0.96413 0.20741 0.0
H757 H 0.34627 0.91006 0.23792 0.0
H758 H 0.43454 0.00277 0.18356 0.0
H759 H 0.45804 0.00416 0.12982 0.0
C760 C 0.68307 0.10396 0.15514 0.0
C761 C 0.72435 0.14292 0.14233 0.0
C762 C 0.68426 0.13541 0.06427 0.0
C763 C 0.63949 0.10425 0.08047 0.0
N764 N 0.59534 0.05932 0.14198 0.0
N765 N 0.77261 0.18114 0.08175 0.0
C766 C 0.63873 0.08793 0.1259 0.0
C767 C 0.72769 0.15439 0.09575 0.0
N768 N 0.68778 0.08069 0.19442 0.0
N769 N 0.68457 0.14755 0.01942 0.0
H770 H 0.80473 0.19274 0.1044 0.0
H771 H 0.77896 0.18891 0.04779 0.0
H772 H 0.65392 0.13154 -0.00443 0.0
H773 H 0.71431 0.17369 0.00588 0.0
H774 H 0.66031 0.04919 0.20459 0.0
H775 H 0.72229 0.08921 0.21286 0.0
H776 H 0.59224 0.05141 0.17643 0.0
H777 H 0.56145 0.04662 0.12192 0.0
C778 C 0.6369 0.65686 0.84487 0.0
C779 C 0.65765 0.63428 0.81143 0.0
C780 C 0.61947 0.55333 0.84527 0.0
C781 C 0.60922 0.57814 0.88425 0.0
N782 N 0.61341 0.65604 0.92287 0.0
N783 N 0.6706 0.55958 0.78239 0.0
C784 C 0.61929 0.63069 0.88455 0.0
C785 C 0.64927 0.58199 0.81229 0.0
N786 N 0.6302 0.70136 0.83715 0.0
N787 N 0.59871 0.50226 0.83853 0.0
H788 H 0.69262 0.57921 0.75782 0.0
H789 H 0.6698 0.52268 0.78474 0.0
H790 H 0.5748 0.48033 0.86077 0.0
H791 H 0.60055 0.48273 0.80827 0.0
H792 H 0.61124 0.71702 0.85847 0.0
H793 H 0.63756 0.71884 0.80641 0.0
H794 H 0.6241 0.69513 0.92606 0.0
H795 H 0.60179 0.63816 0.95272 0.0
C796 C 0.41827 0.64215 0.82832 0.0
C797 C 0.40587 0.68498 0.84088 0.0
C798 C 0.44967 0.6915 0.91736 0.0
C799 C 0.46122 0.64833 0.90493 0.0
N800 N 0.47186 0.59382 0.84535 0.0
N801 N 0.42455 0.75989 0.89086 0.0
C802 C 0.45084 0.62767 0.85908 0.0
C803 C 0.42642 0.71278 0.88334 0.0
N804 N 0.3962 0.61287 0.78914 0.0
N805 N 0.45791 0.71036 0.96211 0.0
H806 H 0.40935 0.77749 0.86607 0.0
H807 H 0.44306 0.78347 0.91953 0.0
H808 H 0.47592 0.69679 0.98804 0.0
H809 H 0.44415 0.73751 0.97407 0.0
H810 H 0.40002 0.57832 0.78139 0.0
H811 H 0.37056 0.62044 0.76623 0.0
H812 H 0.46936 0.58067 0.8112 0.0
H813 H 0.49623 0.58335 0.86764 0.0
C814 C 0.29064 0.36705 0.85228 0.0
C815 C 0.30955 0.37746 0.80934 0.0
C816 C 0.38539 0.4388 0.84627 0.0
C817 C 0.37187 0.41798 0.88905 0.0
N818 N 0.30922 0.36949 0.93509 0.0
N819 N 0.35866 0.4438 0.76611 0.0
C820 C 0.32304 0.38533 0.89302 0.0
C821 C 0.35171 0.42043 0.8064 0.0
N822 N 0.2415 0.34142 0.85326 0.0
N823 N 0.43184 0.4722 0.84293 0.0
H824 H 0.33178 0.43271 0.73808 0.0
H825 H 0.38727 0.47746 0.76259 0.0
H826 H 0.45723 0.48766 0.87146 0.0
H827 H 0.44593 0.48293 0.81165 0.0
H828 H 0.22384 0.33509 0.88338 0.0
H829 H 0.21804 0.33154 0.82272 0.0
H830 H 0.27579 0.34154 0.93977 0.0
H831 H 0.33238 0.38404 0.9653 0.0
C832 C 0.67764 0.4061 0.79799 0.0
C833 C 0.65017 0.3634 0.76875 0.0
C834 C 0.57655 0.36014 0.80561 0.0
C835 C 0.60759 0.38769 0.84503 0.0
N836 N 0.68604 0.45419 0.86958 0.0
N837 N 0.56986 0.30909 0.73572 0.0
C838 C 0.65781 0.41623 0.8386 0.0
C839 C 0.59834 0.34324 0.76959 0.0
N840 N 0.72128 0.43817 0.78528 0.0
N841 N 0.52772 0.35524 0.79996 0.0
H842 H 0.5833 0.30271 0.70488 0.0
H843 H 0.53304 0.28761 0.7385 0.0
H844 H 0.51272 0.37609 0.82038 0.0
H845 H 0.5044 0.33785 0.77064 0.0
H846 H 0.7418 0.47226 0.80313 0.0
H847 H 0.73369 0.43323 0.75345 0.0
H848 H 0.72449 0.46879 0.87115 0.0
H849 H 0.67107 0.47334 0.89171 0.0
C850 C 0.5783 0.30594 0.15145 0.0
C851 C 0.60527 0.27559 0.13677 0.0
C852 C 0.57028 0.27514 0.05748 0.0
C853 C 0.55421 0.31493 0.07091 0.0
N854 N 0.53898 0.36651 0.13068 0.0
N855 N 0.63025 0.23478 0.07354 0.0
C856 C 0.55654 0.32946 0.11807 0.0
C857 C 0.60124 0.2599 0.08933 0.0
N858 N 0.5728 0.3114 0.19714 0.0
N859 N 0.55721 0.25283 0.014 0.0
H860 H 0.65596 0.22498 0.09433 0.0
H861 H 0.63238 0.22785 0.03865 0.0
H862 H 0.53555 0.26379 0.9893 0.0
H863 H 0.56307 0.21975 0.00442 0.0
H864 H 0.55028 0.32973 0.20966 0.0
H865 H 0.58669 0.29293 0.22212 0.0
H866 H 0.54469 0.38308 0.16395 0.0
H867 H 0.52017 0.38199 0.10702 0.0
C868 C 0.72234 0.62277 0.13344 0.0
C869 C 0.70281 0.61198 0.17626 0.0
C870 C 0.6356 0.53925 0.13993 0.0
C871 C 0.64746 0.55893 0.0964 0.0
N872 N 0.70663 0.61203 0.05008 0.0
N873 N 0.66071 0.54413 0.22193 0.0
C874 C 0.69324 0.59751 0.09263 0.0
C875 C 0.6657 0.56488 0.18028 0.0
N876 N 0.76929 0.65563 0.1326 0.0
N877 N 0.59356 0.49893 0.14302 0.0
H878 H 0.68596 0.56009 0.25048 0.0
H879 H 0.63624 0.50831 0.22669 0.0
H880 H 0.57233 0.47739 0.11428 0.0
H881 H 0.57908 0.48747 0.17398 0.0
H882 H 0.78757 0.66308 0.10291 0.0
H883 H 0.79152 0.67069 0.16316 0.0
H884 H 0.73676 0.64364 0.04463 0.0
H885 H 0.68616 0.59234 0.02005 0.0
C886 C 0.39835 0.6121 0.20404 0.0
C887 C 0.36267 0.63531 0.19533 0.0
C888 C 0.37486 0.63588 0.11304 0.0
C889 C 0.41217 0.61494 0.12203 0.0
N890 N 0.4658 0.59017 0.1767 0.0
N891 N 0.32666 0.68118 0.1434 0.0
C892 C 0.42613 0.60546 0.16779 0.0
C893 C 0.35335 0.6502 0.15033 0.0
N894 N 0.40447 0.59499 0.24653 0.0
N895 N 0.36003 0.64258 0.06877 0.0
H896 H 0.30947 0.69251 0.16909 0.0
H897 H 0.32573 0.69977 0.11333 0.0
H898 H 0.37824 0.63779 0.0405 0.0
H899 H 0.32791 0.65041 0.05979 0.0
H900 H 0.42588 0.5727 0.2539 0.0
H901 H 0.38486 0.59981 0.27375 0.0
H902 H 0.48126 0.5886 0.20978 0.0
H903 H 0.48531 0.58152 0.15115 0.0
C904 C 0.3569 0.39625 0.1719 0.0
C905 C 0.35583 0.34693 0.17959 0.0
C906 C 0.40106 0.34801 0.11095 0.0
C907 C 0.40487 0.39865 0.10509 0.0
N908 N 0.40036 0.47517 0.14031 0.0
N909 N 0.39222 0.28337 0.16522 0.0
C910 C 0.38683 0.42397 0.13865 0.0
C911 C 0.38231 0.32481 0.15163 0.0
N912 N 0.32873 0.41661 0.19579 0.0
N913 N 0.41365 0.3214 0.07733 0.0
H914 H 0.38315 0.26823 0.19667 0.0
H915 H 0.41468 0.26812 0.14814 0.0
H916 H 0.42658 0.33686 0.04692 0.0
H917 H 0.4072 0.28293 0.07802 0.0
H918 H 0.32391 0.45036 0.18798 0.0
H919 H 0.30667 0.39763 0.22068 0.0
H920 H 0.39158 0.49572 0.16633 0.0
H921 H 0.42545 0.49739 0.11918 0.0
C922 C 0.79495 0.6001 0.64859 0.0
C923 C 0.79655 0.65024 0.64184 0.0
C924 C 0.84603 0.65154 0.57607 0.0
C925 C 0.8501 0.60446 0.58678 0.0
N926 N 0.83152 0.53548 0.63641 0.0
N927 N 0.83283 0.72664 0.60389 0.0
C928 C 0.82501 0.57893 0.62372 0.0
C929 C 0.82414 0.67649 0.60647 0.0
N930 N 0.76366 0.57217 0.67808 0.0
N931 N 0.86242 0.67235 0.53618 0.0
H932 H 0.8198 0.74643 0.62699 0.0
H933 H 0.85717 0.74934 0.58247 0.0
H934 H 0.87828 0.65531 0.51283 0.0
H935 H 0.85572 0.70381 0.52402 0.0
H936 H 0.75696 0.53404 0.68168 0.0
H937 H 0.74069 0.58618 0.69576 0.0
H938 H 0.81927 0.51804 0.66622 0.0
H939 H 0.85241 0.51868 0.61877 0.0
C940 C 0.37501 0.83589 0.63202 0.0
C941 C 0.36351 0.85574 0.67268 0.0
C942 C 0.40261 0.94112 0.64915 0.0
C943 C 0.40575 0.92036 0.60511 0.0
N944 N 0.38493 0.8476 0.55186 0.0
N945 N 0.36611 0.92646 0.72179 0.0
C946 C 0.3897 0.86761 0.59582 0.0
C947 C 0.3775 0.9083 0.68199 0.0
N948 N 0.37196 0.78678 0.62801 0.0
N949 N 0.42448 0.99166 0.65979 0.0
H950 H 0.35098 0.90294 0.74755 0.0
H951 H 0.37005 0.96401 0.7285 0.0
H952 H 0.44343 0.01666 0.6365 0.0
H953 H 0.42719 0.00832 0.69265 0.0
H954 H 0.38404 0.77164 0.60028 0.0
H955 H 0.36262 0.76302 0.65488 0.0
H956 H 0.36857 0.80923 0.54278 0.0
H957 H 0.3927 0.86989 0.52396 0.0
C958 C 0.16763 0.361 0.66947 0.0
C959 C 0.17228 0.31444 0.65464 0.0
C960 C 0.10796 0.30598 0.59062 0.0
C961 C 0.10986 0.35657 0.59998 0.0
N962 N 0.13339 0.42753 0.65491 0.0
N963 N 0.14885 0.24435 0.59823 0.0
C964 C 0.13749 0.38263 0.6415 0.0
C965 C 0.14336 0.28783 0.61418 0.0
N966 N 0.19221 0.3846 0.71041 0.0
N967 N 0.06979 0.27315 0.56246 0.0
H968 H 0.17123 0.22744 0.6158 0.0
H969 H 0.13397 0.22702 0.56577 0.0
H970 H 0.03808 0.28058 0.55147 0.0
H971 H 0.06488 0.23518 0.55695 0.0
H972 H 0.1877 0.41595 0.72614 0.0
H973 H 0.21682 0.37191 0.72996 0.0
H974 H 0.15554 0.45199 0.68154 0.0
H975 H 0.10611 0.43983 0.63954 0.0
C976 C 0.69711 0.09874 0.66008 0.0
C977 C 0.71871 0.14855 0.64601 0.0
C978 C 0.70265 0.11437 0.56633 0.0
C979 C 0.66474 0.07269 0.58038 0.0
N980 N 0.63561 0.01604 0.63928 0.0
N981 N 0.75409 0.20135 0.58533 0.0
C982 C 0.66645 0.06106 0.62686 0.0
C983 C 0.72656 0.15538 0.59891 0.0
N984 N 0.70615 0.08737 0.70406 0.0
N985 N 0.71099 0.11618 0.52105 0.0
H986 H 0.77308 0.23148 0.60887 0.0
H987 H 0.75719 0.20993 0.55106 0.0
H988 H 0.69123 0.08612 0.49756 0.0
H989 H 0.73927 0.1447 0.50798 0.0
H990 H 0.69353 0.05096 0.71512 0.0
H991 H 0.73116 0.11335 0.72797 0.0
H992 H 0.62984 0.00768 0.67329 0.0
H993 H 0.61512 0.98753 0.61467 0.0
C994 C 0.82133 0.37864 0.33888 0.0
C995 C 0.79412 0.32797 0.34556 0.0
C996 C 0.84257 0.33367 0.41916 0.0
C997 C 0.87659 0.37975 0.40697 0.0
N998 N 0.89993 0.44597 0.35355 0.0
N999 N 0.77448 0.2575 0.39326 0.0
C1000 C 0.86595 0.40303 0.36697 0.0
C1001 C 0.80293 0.30574 0.3865 0.0
N1002 N 0.80471 0.40289 0.30517 0.0
N1003 N 0.84794 0.31732 0.46212 0.0
H1004 H 0.74306 0.238 0.37143 0.0
H1005 H 0.7827 0.23661 0.41936 0.0
H1006 H 0.87598 0.33814 0.48707 0.0
H1007 H 0.82223 0.28596 0.4745 0.0
H1008 H 0.8205 0.44134 0.30124 0.0
H1009 H 0.77205 0.38526 0.28396 0.0
H1010 H 0.89567 0.46149 0.32236 0.0
H1011 H 0.93445 0.46426 0.3714 0.0
C1012 C 0.58857 0.77186 0.33868 0.0
C1013 C 0.62242 0.75206 0.36149 0.0
C1014 C 0.60891 0.7849 0.43583 0.0
C1015 C 0.58231 0.81192 0.41217 0.0
N1016 N 0.54976 0.83517 0.34113 0.0
N1017 N 0.66498 0.73828 0.43121 0.0
C1018 C 0.57219 0.80594 0.36363 0.0
C1019 C 0.63225 0.75775 0.41004 0.0
N1020 N 0.57274 0.75898 0.29315 0.0
N1021 N 0.61091 0.78442 0.48277 0.0
H1022 H 0.67988 0.71512 0.41351 0.0
H1023 H 0.67878 0.74652 0.46566 0.0
H1024 H 0.59381 0.80368 0.50266 0.0
H1025 H 0.62587 0.76172 0.50176 0.0
H1026 H 0.54456 0.76855 0.27599 0.0
H1027 H 0.58396 0.73441 0.27339 0.0
H1028 H 0.54681 0.83696 0.30552 0.0
H1029 H 0.53768 0.86112 0.3581 0.0
C1030 C 0.1308 0.67392 0.36229 0.0
C1031 C 0.14426 0.65256 0.3229 0.0
C1032 C 0.10136 0.56811 0.34511 0.0
C1033 C 0.09246 0.5892 0.38657 0.0
N1034 N 0.07997 0.65902 0.4263 0.0
N1035 N 0.11774 0.58341 0.26619 0.0
C1036 C 0.10071 0.6412 0.39234 0.0
C1037 C 0.12219 0.60064 0.31093 0.0
N1038 N 0.14822 0.72471 0.37231 0.0
N1039 N 0.09035 0.51736 0.33859 0.0
H1040 H 0.12562 0.60854 0.24018 0.0
H1041 H 0.09929 0.54594 0.25469 0.0
H1042 H 0.07219 0.49204 0.36204 0.0
H1043 H 0.10126 0.50095 0.31089 0.0
H1044 H 0.14513 0.74128 0.40372 0.0
H1045 H 0.16734 0.75075 0.3501 0.0
H1046 H 0.08083 0.69601 0.42955 0.0
H1047 H 0.05793 0.63558 0.44887 0.0
C1048 C 0.45031 0.23379 0.39589 0.0
C1049 C 0.4257 0.21357 0.35203 0.0
C1050 C 0.46236 0.14751 0.35327 0.0
C1051 C 0.48364 0.16532 0.39844 0.0
N1052 N 0.5143 0.23557 0.45524 0.0
N1053 N 0.4227 0.16403 0.28237 0.0
C1054 C 0.48366 0.2123 0.41694 0.0
C1055 C 0.43654 0.17454 0.32845 0.0
N1056 N 0.4391 0.2706 0.41902 0.0
N1057 N 0.46543 0.10381 0.33508 0.0
H1058 H 0.40561 0.18486 0.263 0.0
H1059 H 0.43263 0.13846 0.26256 0.0
H1060 H 0.48696 0.0854 0.35192 0.0
H1061 H 0.44565 0.08522 0.30452 0.0
H1062 H 0.45145 0.28237 0.45334 0.0
H1063 H 0.41452 0.28717 0.40521 0.0
H1064 H 0.5186 0.27174 0.46791 0.0
H1065 H 0.53972 0.22147 0.47144 0.0
C1066 C 0.5858 0.82119 0.67094 0.0
C1067 C 0.59136 0.77915 0.64711 0.0
C1068 C 0.52562 0.77886 0.58927 0.0
C1069 C 0.53166 0.82857 0.60528 0.0
N1070 N 0.5613 0.89482 0.66486 0.0
N1071 N 0.566 0.71745 0.58246 0.0
C1072 C 0.55927 0.84868 0.64779 0.0
C1073 C 0.5603 0.75694 0.60648 0.0
N1074 N 0.60501 0.83402 0.7157 0.0
N1075 N 0.48748 0.75298 0.55736 0.0
H1076 H 0.59159 0.70068 0.59315 0.0
H1077 H 0.5481 0.704 0.54982 0.0
H1078 H 0.45958 0.76663 0.54638 0.0
H1079 H 0.47982 0.7154 0.54679 0.0
H1080 H 0.5994 0.86229 0.73575 0.0
H1081 H 0.6219 0.81255 0.73433 0.0
H1082 H 0.58532 0.91455 0.69299 0.0
H1083 H 0.53955 0.91381 0.64938 0.0
C1084 C 0.67175 0.08302 0.33101 0.0
C1085 C 0.67351 0.13373 0.33035 0.0
C1086 C 0.63198 0.12333 0.40057 0.0
C1087 C 0.62258 0.07096 0.39654 0.0
N1088 N 0.62398 -0.00083 0.35036 0.0
N1089 N 0.64378 0.19816 0.35995 0.0
C1090 C 0.63944 0.05009 0.35936 0.0
C1091 C 0.64942 0.15248 0.36323 0.0
N1092 N 0.70178 0.06638 0.30618 0.0
N1093 N 0.62857 0.14627 0.44126 0.0
H1094 H 0.65632 0.22163 0.33364 0.0
H1095 H 0.62249 0.21044 0.38149 0.0
H1096 H 0.61944 0.12666 0.47062 0.0
H1097 H 0.64008 0.18528 0.44693 0.0
H1098 H 0.70416 0.03066 0.30877 0.0
H1099 H 0.72849 0.08997 0.2875 0.0
H1100 H 0.63225 0.98272 0.32111 0.0
H1101 H 0.59852 0.97379 0.36918 0.0
C1102 C 0.8138 0.6286 0.35547 0.0
C1103 C 0.83959 0.66696 0.32707 0.0
C1104 C 0.91706 0.65305 0.35598 0.0
C1105 C 0.89185 0.62019 0.38892 0.0
N1106 N 0.81682 0.5894 0.42726 0.0
N1107 N 0.91924 0.72199 0.30777 0.0
C1108 C 0.84039 0.61149 0.3906 0.0
C1109 C 0.89224 0.68073 0.32913 0.0
N1110 N 0.76362 0.60656 0.34803 0.0
N1111 N 0.96437 0.65697 0.34926 0.0
H1112 H 0.90338 0.74487 0.29009 0.0
H1113 H 0.95776 0.73651 0.3117 0.0
H1114 H 0.98337 0.63735 0.3679 0.0
H1115 H 0.9826 0.67553 0.32213 0.0
H1116 H 0.74368 0.57523 0.36494 0.0
H1117 H 0.74277 0.61531 0.32112 0.0
H1118 H 0.78076 0.58695 0.43217 0.0
H1119 H 0.83475 0.5793 0.45558 0.0
C1120 C 0.363 0.88248 0.33553 0.0
C1121 C 0.32335 0.83949 0.34654 0.0
C1122 C 0.31993 0.88471 0.41866 0.0
C1123 C 0.36334 0.92327 0.40908 0.0
N1124 N 0.40547 0.97233 0.35052 0.0
N1125 N 0.26051 0.80106 0.39713 0.0
C1126 C 0.37581 0.92725 0.36379 0.0
C1127 C 0.29928 0.84168 0.38697 0.0
N1128 N 0.39191 0.87952 0.3016 0.0
N1129 N 0.30318 0.88739 0.46069 0.0
H1130 H 0.24888 0.76701 0.37756 0.0
H1131 H 0.24005 0.80062 0.42493 0.0
H1132 H 0.32023 0.91889 0.48353 0.0
H1133 H 0.27335 0.85988 0.47274 0.0
H1134 H 0.42397 0.90893 0.29583 0.0
H1135 H 0.38654 0.8466 0.2819 0.0
H1136 H 0.41455 0.97799 0.31677 0.0
H1137 H 0.41652 0.00451 0.37295 0.0
C1138 C 0.22347 0.38739 0.34426 0.0
C1139 C 0.21901 0.33632 0.34969 0.0
C1140 C 0.16657 0.33426 0.4129 0.0
C1141 C 0.16513 0.38244 0.40307 0.0
N1142 N 0.18913 0.45377 0.35626 0.0
N1143 N 0.17611 0.25847 0.3828 0.0
C1144 C 0.19317 0.40901 0.36814 0.0
C1145 C 0.18824 0.30925 0.3827 0.0
N1146 N 0.25728 0.41547 0.31679 0.0
N1147 N 0.14764 0.31232 0.45157 0.0
H1148 H 0.18826 0.23887 0.35883 0.0
H1149 H 0.14959 0.23573 0.40242 0.0
H1150 H 0.13223 0.3297 0.47508 0.0
H1151 H 0.15196 0.27938 0.46277 0.0
H1152 H 0.26583 0.45405 0.31444 0.0
H1153 H 0.28013 0.40084 0.29952 0.0
H1154 H 0.20407 0.47236 0.32779 0.0
H1155 H 0.16766 0.47063 0.37298 0.0
C1156 C 0.43493 0.22114 0.66384 0.0
C1157 C 0.40942 0.24938 0.63983 0.0
C1158 C 0.41821 0.2116 0.56603 0.0
C1159 C 0.44109 0.18145 0.59003 0.0
N1160 N 0.4806 0.16381 0.66004 0.0
N1161 N 0.39142 0.28389 0.5695 0.0
C1162 C 0.45257 0.1884 0.63839 0.0
C1163 C 0.40592 0.24854 0.59122 0.0
N1164 N 0.44001 0.22308 0.71085 0.0
N1165 N 0.40744 0.20429 0.51932 0.0
H1166 H 0.38371 0.31218 0.58778 0.0
H1167 H 0.39183 0.28842 0.53428 0.0
H1168 H 0.41816 0.17943 0.49925 0.0
H1169 H 0.38536 0.22063 0.50063 0.0
H1170 H 0.44784 0.19572 0.72974 0.0
H1171 H 0.43797 0.2527 0.73148 0.0
H1172 H 0.49607 0.17248 0.69402 0.0
H1173 H 0.49095 0.13639 0.6434 0.0
C1174 C 0.8863 0.31304 0.62881 0.0
C1175 C 0.86785 0.33442 0.66483 0.0
C1176 C 0.91108 0.41923 0.64226 0.0
C1177 C 0.92355 0.39738 0.60305 0.0
N1178 N 0.93714 0.32756 0.56469 0.0
N1179 N 0.87181 0.40668 0.71337 0.0
C1180 C 0.91626 0.34551 0.59851 0.0
C1181 C 0.8835 0.38734 0.67414 0.0
N1182 N 0.87233 0.26193 0.62156 0.0
N1183 N 0.9244 0.47047 0.64762 0.0
H1184 H 0.85067 0.38433 0.73706 0.0
H1185 H 0.88486 0.4446 0.72425 0.0
H1186 H 0.94751 0.49454 0.62605 0.0
H1187 H 0.91281 0.48956 0.67273 0.0
H1188 H 0.87906 0.24397 0.59254 0.0
H1189 H 0.85168 0.23647 0.64348 0.0
H1190 H 0.9374 0.29098 0.56185 0.0
H1191 H 0.95767 0.35052 0.54097 0.0
C1192 C 0.19826 0.60744 0.64153 0.0
C1193 C 0.22482 0.65847 0.63597 0.0
C1194 C 0.17175 0.65501 0.56574 0.0
C1195 C 0.13858 0.60825 0.57785 0.0
N1196 N 0.11748 0.54377 0.63317 0.0
N1197 N 0.23913 0.73173 0.59223 0.0
C1198 C 0.15136 0.58475 0.61679 0.0
C1199 C 0.21259 0.68248 0.59754 0.0
N1200 N 0.21728 0.58111 0.67129 0.0
N1201 N 0.16475 0.67243 0.52366 0.0
H1202 H 0.27097 0.7515 0.61362 0.0
H1203 H 0.22844 0.7532 0.56807 0.0
H1204 H 0.13649 0.65157 0.49904 0.0
H1205 H 0.18971 0.70449 0.51152 0.0
H1206 H 0.20106 0.5424 0.67361 0.0
H1207 H 0.25167 0.59722 0.6902 0.0
H1208 H 0.12399 0.5296 0.66458 0.0
H1209 H 0.08108 0.52738 0.61873 0.0
loop_
_geom_bond_atom_site_label_1
_geom_bond_atom_site_label_2
_geom_bond_distance
_geom_bond_site_symmetry_2
_ccdc_geom_bond_type
Dy0 O4 2.398 . S
Dy0 O5 2.491 . S
Dy0 O6 2.403 . S
Dy0 O7 2.664 . S
Dy0 O11 2.326 . S
Dy0 O15 2.310 . S
Dy0 O16 2.351 . S
C1 O12 1.185 . S
C1 O13 1.355 . S
C2 O4 1.185 . S
C2 O5 1.355 . S
Dy3 O7 2.310 . S
Dy3 O10 2.351 . S
Dy3 O12 2.398 . S
Dy3 O13 2.491 . S
Dy3 O14 2.403 . S
Dy3 O15 2.664 . S
Dy3 O17 2.326 . S
O4 Dy0 2.398 . S
O4 C2 1.185 . S
O5 Dy0 2.491 . S
O5 C2 1.355 . S
O6 Dy0 2.403 . S
O6 C8 1.254 . S
O7 Dy0 2.664 . S
O7 Dy3 2.310 . S
O7 C8 1.268 . S
C8 O6 1.254 . S
C8 O7 1.268 . S
C9 O14 1.254 . S
C9 O15 1.268 . S
O10 Dy3 2.351 . S
O10 C18 1.249 . S
O11 Dy0 2.326 . S
O11 C18 1.267 . S
O12 C1 1.185 . S
O12 Dy3 2.398 . S
O13 C1 1.355 . S
O13 Dy3 2.491 . S
O14 Dy3 2.403 . S
O14 C9 1.254 . S
O15 Dy0 2.310 . S
O15 Dy3 2.664 . S
O15 C9 1.268 . S
O16 Dy0 2.351 . S
O16 C19 1.249 . S
O17 Dy3 2.326 . S
O17 C19 1.267 . S
C18 O10 1.249 . S
C18 O11 1.267 . S
C19 O16 1.249 . S
C19 O17 1.267 . S
Dy20 O24 2.398 . S
Dy20 O25 2.491 . S
Dy20 O26 2.403 . S
Dy20 O27 2.664 . S
Dy20 O31 2.326 . S
Dy20 O35 2.310 . S
Dy20 O36 2.351 . S
C21 O32 1.185 . S
C21 O33 1.355 . S
C22 O24 1.185 . S
C22 O25 1.355 . S
Dy23 O27 2.310 . S
Dy23 O30 2.351 . S
Dy23 O32 2.398 . S
Dy23 O33 2.491 . S
Dy23 O34 2.403 . S
Dy23 O35 2.664 . S
Dy23 O37 2.326 . S
O24 Dy20 2.398 . S
O24 C22 1.185 . S
O25 Dy20 2.491 . S
O25 C22 1.355 . S
O26 Dy20 2.403 . S
O26 C28 1.254 . S
O27 Dy20 2.664 . S
O27 Dy23 2.310 . S
O27 C28 1.268 . S
C28 O26 1.254 . S
C28 O27 1.268 . S
C29 O34 1.254 . S
C29 O35 1.268 . S
O30 Dy23 2.351 . S
O30 C38 1.249 . S
O31 Dy20 2.326 . S
O31 C38 1.267 . S
O32 C21 1.185 . S
O32 Dy23 2.398 . S
O33 C21 1.355 . S
O33 Dy23 2.491 . S
O34 Dy23 2.403 . S
O34 C29 1.254 . S
O35 Dy20 2.310 . S
O35 Dy23 2.664 . S
O35 C29 1.268 . S
O36 Dy20 2.351 . S
O36 C39 1.249 . S
O37 Dy23 2.326 . S
O37 C39 1.267 . S
C38 O30 1.249 . S
C38 O31 1.267 . S
C39 O36 1.249 . S
C39 O37 1.267 . S
Dy40 O44 2.398 . S
Dy40 O45 2.491 . S
Dy40 O46 2.403 . S
Dy40 O47 2.664 . S
Dy40 O51 2.326 . S
Dy40 O55 2.310 . S
Dy40 O56 2.351 . S
C41 O52 1.185 . S
C41 O53 1.355 . S
C42 O44 1.185 . S
C42 O45 1.355 . S
Dy43 O47 2.310 . S
Dy43 O50 2.351 . S
Dy43 O52 2.398 . S
Dy43 O53 2.491 . S
Dy43 O54 2.403 . S
Dy43 O55 2.664 . S
Dy43 O57 2.326 . S
O44 Dy40 2.398 . S
O44 C42 1.185 . S
O45 Dy40 2.491 . S
O45 C42 1.355 . S
O46 Dy40 2.403 . S
O46 C48 1.254 . S
O47 Dy40 2.664 . S
O47 Dy43 2.310 . S
O47 C48 1.268 . S
C48 O46 1.254 . S
C48 O47 1.268 . S
C49 O54 1.254 . S
C49 O55 1.268 . S
O50 Dy43 2.351 . S
O50 C58 1.249 . S
O51 Dy40 2.326 . S
O51 C58 1.267 . S
O52 C41 1.185 . S
O52 Dy43 2.398 . S
O53 C41 1.355 . S
O53 Dy43 2.491 . S
O54 Dy43 2.403 . S
O54 C49 1.254 . S
O55 Dy40 2.310 . S
O55 Dy43 2.664 . S
O55 C49 1.268 . S
O56 Dy40 2.351 . S
O56 C59 1.249 . S
O57 Dy43 2.326 . S
O57 C59 1.267 . S
C58 O50 1.249 . S
C58 O51 1.267 . S
C59 O56 1.249 . S
C59 O57 1.267 . S
Dy60 O64 2.398 . S
Dy60 O65 2.491 . S
Dy60 O66 2.403 . S
Dy60 O67 2.664 . S
Dy60 O71 2.326 . S
Dy60 O75 2.310 . S
Dy60 O76 2.351 . S
C61 O72 1.185 . S
C61 O73 1.355 . S
C62 O64 1.185 . S
C62 O65 1.355 . S
Dy63 O67 2.310 . S
Dy63 O70 2.351 . S
Dy63 O72 2.398 . S
Dy63 O73 2.491 . S
Dy63 O74 2.403 . S
Dy63 O75 2.664 . S
Dy63 O77 2.326 . S
O64 Dy60 2.398 . S
O64 C62 1.185 . S
O65 Dy60 2.491 . S
O65 C62 1.355 . S
O66 Dy60 2.403 . S
O66 C68 1.254 . S
O67 Dy60 2.664 . S
O67 Dy63 2.310 . S
O67 C68 1.268 . S
C68 O66 1.254 . S
C68 O67 1.268 . S
C69 O74 1.254 . S
C69 O75 1.268 . S
O70 Dy63 2.351 . S
O70 C78 1.249 . S
O71 Dy60 2.326 . S
O71 C78 1.267 . S
O72 C61 1.185 . S
O72 Dy63 2.398 . S
O73 C61 1.355 . S
O73 Dy63 2.491 . S
O74 Dy63 2.403 . S
O74 C69 1.254 . S
O75 Dy60 2.310 . S
O75 Dy63 2.664 . S
O75 C69 1.268 . S
O76 Dy60 2.351 . S
O76 C79 1.249 . S
O77 Dy63 2.326 . S
O77 C79 1.267 . S
C78 O70 1.249 . S
C78 O71 1.267 . S
C79 O76 1.249 . S
C79 O77 1.267 . S
Dy80 O84 2.398 . S
Dy80 O85 2.491 . S
Dy80 O86 2.403 . S
Dy80 O87 2.664 . S
Dy80 O91 2.326 . S
Dy80 O95 2.310 . S
Dy80 O96 2.351 . S
C81 O92 1.185 . S
C81 O93 1.355 . S
C82 O84 1.185 . S
C82 O85 1.355 . S
Dy83 O87 2.310 . S
Dy83 O90 2.351 . S
Dy83 O92 2.398 . S
Dy83 O93 2.491 . S
Dy83 O94 2.403 . S
Dy83 O95 2.664 . S
Dy83 O97 2.326 . S
O84 Dy80 2.398 . S
O84 C82 1.185 . S
O85 Dy80 2.491 . S
O85 C82 1.355 . S
O86 Dy80 2.403 . S
O86 C88 1.254 . S
O87 Dy80 2.664 . S
O87 Dy83 2.310 . S
O87 C88 1.268 . S
C88 O86 1.254 . S
C88 O87 1.268 . S
C89 O94 1.254 . S
C89 O95 1.268 . S
O90 Dy83 2.351 . S
O90 C98 1.249 . S
O91 Dy80 2.326 . S
O91 C98 1.267 . S
O92 C81 1.185 . S
O92 Dy83 2.398 . S
O93 C81 1.355 . S
O93 Dy83 2.491 . S
O94 Dy83 2.403 . S
O94 C89 1.254 . S
O95 Dy80 2.310 . S
O95 Dy83 2.664 . S
O95 C89 1.268 . S
O96 Dy80 2.351 . S
O96 C99 1.249 . S
O97 Dy83 2.326 . S
O97 C99 1.267 . S
C98 O90 1.249 . S
C98 O91 1.267 . S
C99 O96 1.249 . S
C99 O97 1.267 . S
Dy100 O104 2.398 . S
Dy100 O105 2.491 . S
Dy100 O106 2.403 . S
Dy100 O107 2.664 . S
Dy100 O111 2.326 . S
Dy100 O115 2.310 . S
Dy100 O116 2.351 . S
C101 O112 1.185 . S
C101 O113 1.355 . S
C102 O104 1.185 . S
C102 O105 1.355 . S
Dy103 O107 2.310 . S
Dy103 O110 2.351 . S
Dy103 O112 2.398 . S
Dy103 O113 2.491 . S
Dy103 O114 2.403 . S
Dy103 O115 2.664 . S
Dy103 O117 2.326 . S
O104 Dy100 2.398 . S
O104 C102 1.185 . S
O105 Dy100 2.491 . S
O105 C102 1.355 . S
O106 Dy100 2.403 . S
O106 C108 1.254 . S
O107 Dy100 2.664 . S
O107 Dy103 2.310 . S
O107 C108 1.268 . S
C108 O106 1.254 . S
C108 O107 1.268 . S
C109 O114 1.254 . S
C109 O115 1.268 . S
O110 Dy103 2.351 . S
O110 C118 1.249 . S
O111 Dy100 2.326 . S
O111 C118 1.267 . S
O112 C101 1.185 . S
O112 Dy103 2.398 . S
O113 C101 1.355 . S
O113 Dy103 2.491 . S
O114 Dy103 2.403 . S
O114 C109 1.254 . S
O115 Dy100 2.310 . S
O115 Dy103 2.664 . S
O115 C109 1.268 . S
O116 Dy100 2.351 . S
O116 C119 1.249 . S
O117 Dy103 2.326 . S
O117 C119 1.267 . S
C118 O110 1.249 . S
C118 O111 1.267 . S
C119 O116 1.249 . S
C119 O117 1.267 . S
Dy120 O124 2.398 . S
Dy120 O125 2.491 . S
Dy120 O126 2.403 . S
Dy120 O127 2.664 . S
Dy120 O131 2.326 . S
Dy120 O135 2.310 . S
Dy120 O136 2.351 . S
C121 O132 1.185 . S
C121 O133 1.355 . S
C122 O124 1.185 . S
C122 O125 1.355 . S
Dy123 O127 2.310 . S
Dy123 O130 2.351 . S
Dy123 O132 2.398 . S
Dy123 O133 2.491 . S
Dy123 O134 2.403 . S
Dy123 O135 2.664 . S
Dy123 O137 2.326 . S
O124 Dy120 2.398 . S
O124 C122 1.185 . S
O125 Dy120 2.491 . S
O125 C122 1.355 . S
O126 Dy120 2.403 . S
O126 C128 1.254 . S
O127 Dy120 2.664 . S
O127 Dy123 2.310 . S
O127 C128 1.268 . S
C128 O126 1.254 . S
C128 O127 1.268 . S
C129 O134 1.254 . S
C129 O135 1.268 . S
O130 Dy123 2.351 . S
O130 C138 1.249 . S
O131 Dy120 2.326 . S
O131 C138 1.267 . S
O132 C121 1.185 . S
O132 Dy123 2.398 . S
O133 C121 1.355 . S
O133 Dy123 2.491 . S
O134 Dy123 2.403 . S
O134 C129 1.254 . S
O135 Dy120 2.310 . S
O135 Dy123 2.664 . S
O135 C129 1.268 . S
O136 Dy120 2.351 . S
O136 C139 1.249 . S
O137 Dy123 2.326 . S
O137 C139 1.267 . S
C138 O130 1.249 . S
C138 O131 1.267 . S
C139 O136 1.249 . S
C139 O137 1.267 . S
Dy140 O144 2.398 . S
Dy140 O145 2.491 . S
Dy140 O146 2.403 . S
Dy140 O147 2.664 . S
Dy140 O151 2.326 . S
Dy140 O155 2.310 . S
Dy140 O156 2.351 . S
C141 O152 1.185 . S
C141 O153 1.355 . S
C142 O144 1.185 . S
C142 O145 1.355 . S
Dy143 O147 2.310 . S
Dy143 O150 2.351 . S
Dy143 O152 2.398 . S
Dy143 O153 2.491 . S
Dy143 O154 2.403 . S
Dy143 O155 2.664 . S
Dy143 O157 2.326 . S
O144 Dy140 2.398 . S
O144 C142 1.185 . S
O145 Dy140 2.491 . S
O145 C142 1.355 . S
O146 Dy140 2.403 . S
O146 C148 1.254 . S
O147 Dy140 2.664 . S
O147 Dy143 2.310 . S
O147 C148 1.268 . S
C148 O146 1.254 . S
C148 O147 1.268 . S
C149 O154 1.254 . S
C149 O155 1.268 . S
O150 Dy143 2.351 . S
O150 C158 1.249 . S
O151 Dy140 2.326 . S
O151 C158 1.267 . S
O152 C141 1.185 . S
O152 Dy143 2.398 . S
O153 C141 1.355 . S
O153 Dy143 2.491 . S
O154 Dy143 2.403 . S
O154 C149 1.254 . S
O155 Dy140 2.310 . S
O155 Dy143 2.664 . S
O155 C149 1.268 . S
O156 Dy140 2.351 . S
O156 C159 1.249 . S
O157 Dy143 2.326 . S
O157 C159 1.267 . S
C158 O150 1.249 . S
C158 O151 1.267 . S
C159 O156 1.249 . S
C159 O157 1.267 . S
C160 O172 1.241 . S
C160 O173 1.280 . S
C161 O174 1.277 . S
C161 O175 1.245 . S
C162 O186 1.247 . S
C162 O188 1.289 . S
Mg163 O164 1.926 . S
Mg163 O173 1.984 . S
Mg163 O175 1.988 . S
Mg163 O176 2.061 1_655 S
O164 Mg163 1.926 . S
O164 Mg165 1.986 1_545 S
O164 Mg166 1.919 1_655 S
Mg165 O164 1.986 1_565 S
Mg165 O172 2.042 1_565 S
Mg165 O174 2.041 1_565 S
Mg165 O180 2.038 . S
Mg165 O188 2.238 . S
Mg166 O164 1.919 1_455 S
Mg166 O167 1.915 1_545 S
Mg166 O177 2.107 . S
Mg166 O179 2.077 1_445 S
Mg166 O188 2.106 1_445 S
Mg166 O189 2.080 . S
O167 Mg166 1.915 1_565 S
O167 Mg168 1.926 . S
O167 Mg169 1.986 1_565 S
Mg168 O167 1.926 . S
Mg168 O182 1.984 . S
Mg168 O185 1.988 . S
Mg168 O186 2.061 1_455 S
Mg169 O167 1.986 1_545 S
Mg169 O177 2.238 . S
Mg169 O181 2.042 1_545 S
Mg169 O183 2.041 1_545 S
Mg169 O190 2.038 . S
C170 O176 1.247 . S
C170 O177 1.289 . S
C171 O189 1.245 . S
C171 O190 1.274 . S
O172 C160 1.241 . S
O172 Mg165 2.042 1_545 S
O173 C160 1.280 . S
O173 Mg163 1.984 . S
O174 C161 1.277 . S
O174 Mg165 2.041 1_545 S
O175 C161 1.245 . S
O175 Mg163 1.988 . S
O176 Mg163 2.061 1_455 S
O176 C170 1.247 . S
O177 Mg166 2.107 . S
O177 Mg169 2.238 . S
O177 C170 1.289 . S
C178 O179 1.245 . S
C178 O180 1.274 . S
O179 Mg166 2.077 1_665 S
O179 C178 1.245 . S
O180 Mg165 2.038 . S
O180 C178 1.274 . S
O181 Mg169 2.042 1_565 S
O181 C184 1.241 . S
O182 Mg168 1.984 . S
O182 C184 1.280 . S
O183 Mg169 2.041 1_565 S
O183 C187 1.277 . S
C184 O181 1.241 . S
C184 O182 1.280 . S
O185 Mg168 1.988 . S
O185 C187 1.245 . S
O186 C162 1.247 . S
O186 Mg168 2.061 1_655 S
C187 O183 1.277 . S
C187 O185 1.245 . S
O188 C162 1.289 . S
O188 Mg165 2.238 . S
O188 Mg166 2.106 1_665 S
O189 Mg166 2.080 . S
O189 C171 1.245 . S
O190 Mg169 2.038 . S
O190 C171 1.274 . S
C191 O203 1.241 . S
C191 O204 1.280 . S
C192 O205 1.277 . S
C192 O206 1.245 . S
C193 O217 1.247 . S
C193 O219 1.289 . S
Mg194 O195 1.926 . S
Mg194 O204 1.984 . S
Mg194 O206 1.988 1_554 S
Mg194 O207 2.061 . S
O195 Mg194 1.926 . S
O195 Mg196 1.986 1_544 S
O195 Mg197 1.919 . S
Mg196 O195 1.986 1_566 S
Mg196 O203 2.042 1_566 S
Mg196 O205 2.041 1_565 S
Mg196 O211 2.038 1_556 S
Mg196 O219 2.238 . S
Mg197 O195 1.919 . S
Mg197 O198 1.915 1_544 S
Mg197 O208 2.107 . S
Mg197 O210 2.078 1_545 S
Mg197 O219 2.106 1_544 S
Mg197 O220 2.080 1_554 S
O198 Mg197 1.915 1_566 S
O198 Mg199 1.926 . S
O198 Mg200 1.986 1_566 S
Mg199 O198 1.926 . S
Mg199 O213 1.984 . S
Mg199 O216 1.988 1_556 S
Mg199 O217 2.061 . S
Mg200 O198 1.986 1_544 S
Mg200 O208 2.238 . S
Mg200 O212 2.042 1_544 S
Mg200 O214 2.041 1_545 S
Mg200 O221 2.038 1_554 S
C201 O207 1.247 . S
C201 O208 1.289 . S
C202 O220 1.245 . S
C202 O221 1.274 . S
O203 C191 1.241 . S
O203 Mg196 2.042 1_544 S
O204 C191 1.280 . S
O204 Mg194 1.984 . S
O205 C192 1.277 . S
O205 Mg196 2.041 1_545 S
O206 C192 1.245 . S
O206 Mg194 1.988 1_556 S
O207 Mg194 2.061 . S
O207 C201 1.247 . S
O208 Mg197 2.107 . S
O208 Mg200 2.238 . S
O208 C201 1.289 . S
C209 O210 1.245 . S
C209 O211 1.274 . S
O210 Mg197 2.078 1_565 S
O210 C209 1.245 . S
O211 Mg196 2.038 1_554 S
O211 C209 1.274 . S
O212 Mg200 2.042 1_566 S
O212 C215 1.241 . S
O213 Mg199 1.984 . S
O213 C215 1.280 . S
O214 Mg200 2.041 1_565 S
O214 C218 1.277 . S
C215 O212 1.241 . S
C215 O213 1.280 . S
O216 Mg199 1.988 1_554 S
O216 C218 1.245 . S
O217 C193 1.247 . S
O217 Mg199 2.061 . S
C218 O214 1.277 . S
C218 O216 1.245 . S
O219 C193 1.289 . S
O219 Mg196 2.238 . S
O219 Mg197 2.106 1_566 S
O220 Mg197 2.080 1_556 S
O220 C202 1.245 . S
O221 Mg200 2.038 1_556 S
O221 C202 1.274 . S
C222 O234 1.241 . S
C222 O235 1.280 . S
C223 O236 1.277 . S
C223 O237 1.245 . S
C224 O248 1.247 . S
C224 O250 1.289 . S
Mg225 O226 1.926 . S
Mg225 O235 1.984 . S
Mg225 O237 1.988 1_554 S
Mg225 O238 2.061 1_655 S
O226 Mg225 1.926 . S
O226 Mg227 1.986 1_554 S
O226 Mg228 1.917 1_655 S
Mg227 O226 1.986 1_556 S
Mg227 O234 2.042 1_556 S
Mg227 O236 2.041 . S
Mg227 O242 2.038 1_556 S
Mg227 O250 2.238 . S
Mg228 O226 1.917 1_455 S
Mg228 O229 1.917 1_554 S
Mg228 O239 2.107 . S
Mg228 O241 2.079 1_455 S
Mg228 O250 2.106 1_454 S
Mg228 O251 2.078 1_554 S
O229 Mg228 1.917 1_556 S
O229 Mg230 1.926 . S
O229 Mg231 1.986 1_556 S
Mg230 O229 1.926 . S
Mg230 O244 1.984 . S
Mg230 O247 1.988 1_556 S
Mg230 O248 2.061 1_455 S
Mg231 O229 1.986 1_554 S
Mg231 O239 2.238 . S
Mg231 O243 2.042 1_554 S
Mg231 O245 2.041 . S
Mg231 O252 2.038 1_554 S
C232 O238 1.247 . S
C232 O239 1.289 . S
C233 O251 1.245 . S
C233 O252 1.274 . S
O234 C222 1.241 . S
O234 Mg227 2.042 1_554 S
O235 C222 1.280 . S
O235 Mg225 1.984 . S
O236 C223 1.277 . S
O236 Mg227 2.041 . S
O237 C223 1.245 . S
O237 Mg225 1.988 1_556 S
O238 Mg225 2.061 1_455 S
O238 C232 1.247 . S
O239 Mg228 2.107 . S
O239 Mg231 2.238 . S
O239 C232 1.289 . S
C240 O241 1.245 . S
C240 O242 1.274 . S
O241 Mg228 2.079 1_655 S
O241 C240 1.245 . S
O242 Mg227 2.038 1_554 S
O242 C240 1.274 . S
O243 Mg231 2.042 1_556 S
O243 C246 1.241 . S
O244 Mg230 1.984 . S
O244 C246 1.280 . S
O245 Mg231 2.041 . S
O245 C249 1.277 . S
C246 O243 1.241 . S
C246 O244 1.280 . S
O247 Mg230 1.988 1_554 S
O247 C249 1.245 . S
O248 C224 1.247 . S
O248 Mg230 2.061 1_655 S
C249 O245 1.277 . S
C249 O247 1.245 . S
O250 C224 1.289 . S
O250 Mg227 2.238 . S
O250 Mg228 2.106 1_656 S
O251 Mg228 2.078 1_556 S
O251 C233 1.245 . S
O252 Mg231 2.038 1_556 S
O252 C233 1.274 . S
C253 O265 1.241 . S
C253 O266 1.280 . S
C254 O267 1.277 . S
C254 O268 1.245 . S
C255 O279 1.247 . S
C255 O281 1.289 . S
Mg256 O257 1.926 . S
Mg256 O266 1.984 . S
Mg256 O268 1.988 1_554 S
Mg256 O269 2.061 . S
O257 Mg256 1.926 . S
O257 Mg258 1.986 1_554 S
O257 Mg259 1.917 . S
Mg258 O257 1.986 1_556 S
Mg258 O265 2.042 1_556 S
Mg258 O267 2.041 . S
Mg258 O273 2.038 1_556 S
Mg258 O281 2.238 . S
Mg259 O257 1.917 . S
Mg259 O260 1.917 1_554 S
Mg259 O270 2.107 . S
Mg259 O272 2.079 . S
Mg259 O281 2.106 1_554 S
Mg259 O282 2.078 1_554 S
O260 Mg259 1.917 1_556 S
O260 Mg261 1.926 . S
O260 Mg262 1.986 1_556 S
Mg261 O260 1.926 . S
Mg261 O275 1.984 . S
Mg261 O278 1.988 1_556 S
Mg261 O279 2.061 . S
Mg262 O260 1.986 1_554 S
Mg262 O270 2.238 . S
Mg262 O274 2.042 1_554 S
Mg262 O276 2.041 . S
Mg262 O283 2.038 1_554 S
C263 O269 1.247 . S
C263 O270 1.289 . S
C264 O282 1.245 . S
C264 O283 1.274 . S
O265 C253 1.241 . S
O265 Mg258 2.042 1_554 S
O266 C253 1.280 . S
O266 Mg256 1.984 . S
O267 C254 1.277 . S
O267 Mg258 2.041 . S
O268 C254 1.245 . S
O268 Mg256 1.988 1_556 S
O269 Mg256 2.061 . S
O269 C263 1.247 . S
O270 Mg259 2.107 . S
O270 Mg262 2.238 . S
O270 C263 1.289 . S
C271 O272 1.245 . S
C271 O273 1.274 . S
O272 Mg259 2.079 . S
O272 C271 1.245 . S
O273 Mg258 2.038 1_554 S
O273 C271 1.274 . S
O274 Mg262 2.042 1_556 S
O274 C277 1.241 . S
O275 Mg261 1.984 . S
O275 C277 1.280 . S
O276 Mg262 2.041 . S
O276 C280 1.277 . S
C277 O274 1.241 . S
C277 O275 1.280 . S
O278 Mg261 1.988 1_554 S
O278 C280 1.245 . S
O279 C255 1.247 . S
O279 Mg261 2.061 . S
C280 O276 1.277 . S
C280 O278 1.245 . S
O281 C255 1.289 . S
O281 Mg258 2.238 . S
O281 Mg259 2.106 1_556 S
O282 Mg259 2.078 1_556 S
O282 C264 1.245 . S
O283 Mg262 2.038 1_556 S
O283 C264 1.274 . S
C284 O296 1.241 . S
C284 O297 1.280 . S
C285 O298 1.277 . S
C285 O299 1.245 . S
C286 O310 1.247 . S
C286 O312 1.289 . S
Mg287 O288 1.926 . S
Mg287 O297 1.984 . S
Mg287 O299 1.988 . S
Mg287 O300 2.061 1_655 S
O288 Mg287 1.926 . S
O288 Mg289 1.986 . S
O288 Mg290 1.917 1_655 S
Mg289 O288 1.986 . S
Mg289 O296 2.042 . S
Mg289 O298 2.041 . S
Mg289 O304 2.038 . S
Mg289 O312 2.238 . S
Mg290 O288 1.917 1_455 S
Mg290 O291 1.917 . S
Mg290 O301 2.106 . S
Mg290 O303 2.079 1_455 S
Mg290 O312 2.106 1_455 S
Mg290 O313 2.079 . S
O291 Mg290 1.917 . S
O291 Mg292 1.926 . S
O291 Mg293 1.986 . S
Mg292 O291 1.926 . S
Mg292 O306 1.984 . S
Mg292 O309 1.988 . S
Mg292 O310 2.061 1_455 S
Mg293 O291 1.986 . S
Mg293 O301 2.238 . S
Mg293 O305 2.042 . S
Mg293 O307 2.041 . S
Mg293 O314 2.038 . S
C294 O300 1.247 . S
C294 O301 1.289 . S
C295 O313 1.245 . S
C295 O314 1.274 . S
O296 C284 1.241 . S
O296 Mg289 2.042 . S
O297 C284 1.280 . S
O297 Mg287 1.984 . S
O298 C285 1.277 . S
O298 Mg289 2.041 . S
O299 C285 1.245 . S
O299 Mg287 1.988 . S
O300 Mg287 2.061 1_455 S
O300 C294 1.247 . S
O301 Mg290 2.106 . S
O301 Mg293 2.238 . S
O301 C294 1.289 . S
C302 O303 1.245 . S
C302 O304 1.274 . S
O303 Mg290 2.079 1_655 S
O303 C302 1.245 . S
O304 Mg289 2.038 . S
O304 C302 1.274 . S
O305 Mg293 2.042 . S
O305 C308 1.241 . S
O306 Mg292 1.984 . S
O306 C308 1.280 . S
O307 Mg293 2.041 . S
O307 C311 1.277 . S
C308 O305 1.241 . S
C308 O306 1.280 . S
O309 Mg292 1.988 . S
O309 C311 1.245 . S
O310 C286 1.247 . S
O310 Mg292 2.061 1_655 S
C311 O307 1.277 . S
C311 O309 1.245 . S
O312 C286 1.289 . S
O312 Mg289 2.238 . S
O312 Mg290 2.106 1_655 S
O313 Mg290 2.079 . S
O313 C295 1.245 . S
O314 Mg293 2.038 . S
O314 C295 1.274 . S
C315 O327 1.241 . S
C315 O328 1.280 . S
C316 O329 1.277 . S
C316 O330 1.245 . S
C317 O341 1.247 . S
C317 O343 1.289 . S
Mg318 O319 1.926 . S
Mg318 O328 1.984 . S
Mg318 O330 1.988 . S
Mg318 O331 2.061 . S
O319 Mg318 1.926 . S
O319 Mg320 1.986 1_545 S
O319 Mg321 1.919 . S
Mg320 O319 1.986 1_565 S
Mg320 O327 2.042 1_565 S
Mg320 O329 2.041 1_565 S
Mg320 O335 2.038 . S
Mg320 O343 2.238 . S
Mg321 O319 1.919 . S
Mg321 O322 1.915 1_545 S
Mg321 O332 2.107 . S
Mg321 O334 2.077 1_545 S
Mg321 O343 2.106 1_545 S
Mg321 O344 2.080 . S
O322 Mg321 1.915 1_565 S
O322 Mg323 1.926 . S
O322 Mg324 1.986 1_565 S
Mg323 O322 1.926 . S
Mg323 O337 1.984 . S
Mg323 O340 1.988 . S
Mg323 O341 2.061 . S
Mg324 O322 1.986 1_545 S
Mg324 O332 2.238 . S
Mg324 O336 2.042 1_545 S
Mg324 O338 2.041 1_545 S
Mg324 O345 2.038 . S
C325 O331 1.247 . S
C325 O332 1.289 . S
C326 O344 1.245 . S
C326 O345 1.274 . S
O327 C315 1.241 . S
O327 Mg320 2.042 1_545 S
O328 C315 1.280 . S
O328 Mg318 1.984 . S
O329 C316 1.277 . S
O329 Mg320 2.041 1_545 S
O330 C316 1.245 . S
O330 Mg318 1.988 . S
O331 Mg318 2.061 . S
O331 C325 1.247 . S
O332 Mg321 2.107 . S
O332 Mg324 2.238 . S
O332 C325 1.289 . S
C333 O334 1.245 . S
C333 O335 1.274 . S
O334 Mg321 2.077 1_565 S
O334 C333 1.245 . S
O335 Mg320 2.038 . S
O335 C333 1.274 . S
O336 Mg324 2.042 1_565 S
O336 C339 1.241 . S
O337 Mg323 1.984 . S
O337 C339 1.280 . S
O338 Mg324 2.041 1_565 S
O338 C342 1.277 . S
C339 O336 1.241 . S
C339 O337 1.280 . S
O340 Mg323 1.988 . S
O340 C342 1.245 . S
O341 C317 1.247 . S
O341 Mg323 2.061 . S
C342 O338 1.277 . S
C342 O340 1.245 . S
O343 C317 1.289 . S
O343 Mg320 2.238 . S
O343 Mg321 2.106 1_565 S
O344 Mg321 2.080 . S
O344 C326 1.245 . S
O345 Mg324 2.038 . S
O345 C326 1.274 . S
C346 C347 1.363 . S
C346 C352 1.379 . S
C346 N354 1.356 . S
C347 C346 1.363 . S
C347 C353 1.363 . S
C348 C349 1.363 . S
C348 C353 1.379 . S
C348 N355 1.356 . S
C349 C348 1.363 . S
C349 C352 1.363 . S
N350 C352 1.356 . S
N350 H362 0.984 . S
N350 H363 0.985 . S
N351 C353 1.356 . S
N351 H356 0.984 . S
N351 H357 0.985 . S
C352 C346 1.379 . S
C352 C349 1.363 . S
C352 N350 1.356 . S
C353 C347 1.363 . S
C353 C348 1.379 . S
C353 N351 1.356 . S
N354 C346 1.356 . S
N354 H360 0.984 . S
N354 H361 0.984 . S
N355 C348 1.356 . S
N355 H358 0.984 . S
N355 H359 0.985 . S
H356 N351 0.984 . S
H357 N351 0.985 . S
H358 N355 0.984 . S
H359 N355 0.985 . S
H360 N354 0.984 . S
H361 N354 0.984 . S
H362 N350 0.984 . S
H363 N350 0.985 . S
C364 C365 1.363 . S
C364 C370 1.379 . S
C364 N372 1.356 . S
C365 C364 1.363 . S
C365 C371 1.363 . S
C366 C367 1.363 . S
C366 C371 1.379 . S
C366 N373 1.356 . S
C367 C366 1.363 . S
C367 C370 1.363 . S
N368 C370 1.356 . S
N368 H380 0.984 . S
N368 H381 0.985 . S
N369 C371 1.356 . S
N369 H374 0.984 . S
N369 H375 0.985 . S
C370 C364 1.379 . S
C370 C367 1.363 . S
C370 N368 1.356 . S
C371 C365 1.363 . S
C371 C366 1.379 . S
C371 N369 1.356 . S
N372 C364 1.356 . S
N372 H378 0.984 . S
N372 H379 0.984 . S
N373 C366 1.356 . S
N373 H376 0.984 . S
N373 H377 0.985 1_545 S
H374 N369 0.984 . S
H375 N369 0.985 . S
H376 N373 0.984 . S
H377 N373 0.985 1_565 S
H378 N372 0.984 . S
H379 N372 0.984 . S
H380 N368 0.984 . S
H381 N368 0.985 . S
C382 C383 1.363 . S
C382 C388 1.379 . S
C382 N390 1.356 . S
C383 C382 1.363 . S
C383 C389 1.363 . S
C384 C385 1.363 . S
C384 C389 1.379 . S
C384 N391 1.356 . S
C385 C384 1.363 . S
C385 C388 1.363 . S
N386 C388 1.356 . S
N386 H398 0.984 . S
N386 H399 0.985 . S
N387 C389 1.356 . S
N387 H392 0.984 . S
N387 H393 0.985 . S
C388 C382 1.379 . S
C388 C385 1.363 . S
C388 N386 1.356 . S
C389 C383 1.363 . S
C389 C384 1.379 . S
C389 N387 1.356 . S
N390 C382 1.356 . S
N390 H396 0.984 . S
N390 H397 0.984 . S
N391 C384 1.356 . S
N391 H394 0.984 . S
N391 H395 0.985 . S
H392 N387 0.984 . S
H393 N387 0.985 . S
H394 N391 0.984 . S
H395 N391 0.985 . S
H396 N390 0.984 . S
H397 N390 0.984 . S
H398 N386 0.984 . S
H399 N386 0.985 . S
C400 C401 1.363 . S
C400 C406 1.379 . S
C400 N408 1.356 . S
C401 C400 1.363 . S
C401 C407 1.363 . S
C402 C403 1.363 . S
C402 C407 1.379 . S
C402 N409 1.356 . S
C403 C402 1.363 . S
C403 C406 1.363 . S
N404 C406 1.356 . S
N404 H416 0.984 . S
N404 H417 0.985 . S
N405 C407 1.356 . S
N405 H410 0.984 . S
N405 H411 0.985 . S
C406 C400 1.379 . S
C406 C403 1.363 . S
C406 N404 1.356 . S
C407 C401 1.363 . S
C407 C402 1.379 . S
C407 N405 1.356 . S
N408 C400 1.356 . S
N408 H414 0.984 . S
N408 H415 0.984 . S
N409 C402 1.356 . S
N409 H412 0.984 . S
N409 H413 0.985 . S
H410 N405 0.984 . S
H411 N405 0.985 . S
H412 N409 0.984 . S
H413 N409 0.985 . S
H414 N408 0.984 . S
H415 N408 0.984 . S
H416 N404 0.984 . S
H417 N404 0.985 . S
C418 C419 1.363 . S
C418 C424 1.379 . S
C418 N426 1.356 . S
C419 C418 1.363 . S
C419 C425 1.363 . S
C420 C421 1.363 . S
C420 C425 1.379 . S
C420 N427 1.356 . S
C421 C420 1.363 . S
C421 C424 1.363 . S
N422 C424 1.356 . S
N422 H434 0.984 1_565 S
N422 H435 0.985 . S
N423 C425 1.356 . S
N423 H428 0.984 . S
N423 H429 0.985 . S
C424 C418 1.379 . S
C424 C421 1.363 . S
C424 N422 1.356 . S
C425 C419 1.363 . S
C425 C420 1.379 . S
C425 N423 1.356 . S
N426 C418 1.356 . S
N426 H432 0.984 . S
N426 H433 0.984 . S
N427 C420 1.356 . S
N427 H430 0.984 . S
N427 H431 0.985 . S
H428 N423 0.984 . S
H429 N423 0.985 . S
H430 N427 0.984 . S
H431 N427 0.985 . S
H432 N426 0.984 . S
H433 N426 0.984 . S
H434 N422 0.984 1_545 S
H435 N422 0.985 . S
C436 C437 1.363 . S
C436 C442 1.379 . S
C436 N444 1.356 . S
C437 C436 1.363 . S
C437 C443 1.363 . S
C438 C439 1.363 . S
C438 C443 1.379 . S
C438 N445 1.356 . S
C439 C438 1.363 . S
C439 C442 1.363 . S
N440 C442 1.356 . S
N440 H452 0.984 . S
N440 H453 0.985 . S
N441 C443 1.356 . S
N441 H446 0.984 . S
N441 H447 0.985 . S
C442 C436 1.379 . S
C442 C439 1.363 . S
C442 N440 1.356 . S
C443 C437 1.363 . S
C443 C438 1.379 . S
C443 N441 1.356 . S
N444 C436 1.356 . S
N444 H450 0.984 . S
N444 H451 0.984 . S
N445 C438 1.356 . S
N445 H448 0.984 . S
N445 H449 0.985 . S
H446 N441 0.984 . S
H447 N441 0.985 . S
H448 N445 0.984 . S
H449 N445 0.985 . S
H450 N444 0.984 . S
H451 N444 0.984 . S
H452 N440 0.984 . S
H453 N440 0.985 . S
C454 C455 1.363 . S
C454 C460 1.379 . S
C454 N462 1.356 . S
C455 C454 1.363 . S
C455 C461 1.363 . S
C456 C457 1.363 . S
C456 C461 1.379 . S
C456 N463 1.356 . S
C457 C456 1.363 . S
C457 C460 1.363 . S
N458 C460 1.356 . S
N458 H470 0.984 . S
N458 H471 0.985 . S
N459 C461 1.356 . S
N459 H464 0.984 . S
N459 H465 0.985 . S
C460 C454 1.379 . S
C460 C457 1.363 . S
C460 N458 1.356 . S
C461 C455 1.363 . S
C461 C456 1.379 . S
C461 N459 1.356 . S
N462 C454 1.356 . S
N462 H468 0.984 . S
N462 H469 0.984 . S
N463 C456 1.356 . S
N463 H466 0.984 . S
N463 H467 0.985 . S
H464 N459 0.984 . S
H465 N459 0.985 . S
H466 N463 0.984 . S
H467 N463 0.985 . S
H468 N462 0.984 . S
H469 N462 0.984 . S
H470 N458 0.984 . S
H471 N458 0.985 . S
C472 C473 1.363 . S
C472 C478 1.379 . S
C472 N480 1.356 . S
C473 C472 1.363 . S
C473 C479 1.363 . S
C474 C475 1.363 . S
C474 C479 1.379 . S
C474 N481 1.356 . S
C475 C474 1.363 . S
C475 C478 1.363 . S
N476 C478 1.356 . S
N476 H488 0.984 . S
N476 H489 0.985 . S
N477 C479 1.356 . S
N477 H482 0.984 . S
N477 H483 0.985 . S
C478 C472 1.379 . S
C478 C475 1.363 . S
C478 N476 1.356 . S
C479 C473 1.363 . S
C479 C474 1.379 . S
C479 N477 1.356 . S
N480 C472 1.356 . S
N480 H486 0.984 . S
N480 H487 0.984 . S
N481 C474 1.356 . S
N481 H484 0.984 . S
N481 H485 0.985 . S
H482 N477 0.984 . S
H483 N477 0.985 . S
H484 N481 0.984 . S
H485 N481 0.985 . S
H486 N480 0.984 . S
H487 N480 0.984 . S
H488 N476 0.984 . S
H489 N476 0.985 . S
C490 C491 1.363 . S
C490 C496 1.379 . S
C490 N498 1.356 . S
C491 C490 1.363 . S
C491 C497 1.363 . S
C492 C493 1.363 . S
C492 C497 1.379 . S
C492 N499 1.356 . S
C493 C492 1.363 . S
C493 C496 1.363 . S
N494 C496 1.356 . S
N494 H506 0.984 1_545 S
N494 H507 0.985 . S
N495 C497 1.356 . S
N495 H500 0.984 . S
N495 H501 0.985 . S
C496 C490 1.379 . S
C496 C493 1.363 . S
C496 N494 1.356 . S
C497 C491 1.363 . S
C497 C492 1.379 . S
C497 N495 1.356 . S
N498 C490 1.356 . S
N498 H504 0.984 . S
N498 H505 0.984 . S
N499 C492 1.356 . S
N499 H502 0.984 . S
N499 H503 0.985 . S
H500 N495 0.984 . S
H501 N495 0.985 . S
H502 N499 0.984 . S
H503 N499 0.985 . S
H504 N498 0.984 . S
H505 N498 0.984 . S
H506 N494 0.984 1_565 S
H507 N494 0.985 . S
C508 C509 1.363 . S
C508 C514 1.379 . S
C508 N516 1.356 . S
C509 C508 1.363 . S
C509 C515 1.363 . S
C510 C511 1.363 . S
C510 C515 1.379 . S
C510 N517 1.356 . S
C511 C510 1.363 . S
C511 C514 1.363 . S
N512 C514 1.356 . S
N512 H524 0.984 . S
N512 H525 0.985 . S
N513 C515 1.356 . S
N513 H518 0.984 . S
N513 H519 0.985 . S
C514 C508 1.379 . S
C514 C511 1.363 . S
C514 N512 1.356 . S
C515 C509 1.363 . S
C515 C510 1.379 . S
C515 N513 1.356 . S
N516 C508 1.356 . S
N516 H522 0.984 . S
N516 H523 0.984 . S
N517 C510 1.356 . S
N517 H520 0.984 . S
N517 H521 0.985 . S
H518 N513 0.984 . S
H519 N513 0.985 . S
H520 N517 0.984 . S
H521 N517 0.985 . S
H522 N516 0.984 . S
H523 N516 0.984 . S
H524 N512 0.984 . S
H525 N512 0.985 . S
C526 C527 1.363 . S
C526 C532 1.379 . S
C526 N534 1.356 . S
C527 C526 1.363 . S
C527 C533 1.363 . S
C528 C529 1.363 . S
C528 C533 1.379 . S
C528 N535 1.356 . S
C529 C528 1.363 . S
C529 C532 1.363 . S
N530 C532 1.356 . S
N530 H542 0.984 . S
N530 H543 0.985 . S
N531 C533 1.356 . S
N531 H536 0.984 . S
N531 H537 0.985 . S
C532 C526 1.379 . S
C532 C529 1.363 . S
C532 N530 1.356 . S
C533 C527 1.363 . S
C533 C528 1.379 . S
C533 N531 1.356 . S
N534 C526 1.356 . S
N534 H540 0.984 . S
N534 H541 0.984 . S
N535 C528 1.356 . S
N535 H538 0.984 . S
N535 H539 0.985 . S
H536 N531 0.984 . S
H537 N531 0.985 . S
H538 N535 0.984 . S
H539 N535 0.985 . S
H540 N534 0.984 . S
H541 N534 0.984 . S
H542 N530 0.984 . S
H543 N530 0.985 . S
C544 C545 1.363 . S
C544 C550 1.379 . S
C544 N552 1.356 . S
C545 C544 1.363 . S
C545 C551 1.363 . S
C546 C547 1.363 . S
C546 C551 1.379 . S
C546 N553 1.356 . S
C547 C546 1.363 . S
C547 C550 1.363 . S
N548 C550 1.356 . S
N548 H560 0.984 . S
N548 H561 0.985 . S
N549 C551 1.356 . S
N549 H554 0.984 . S
N549 H555 0.985 . S
C550 C544 1.379 . S
C550 C547 1.363 . S
C550 N548 1.356 . S
C551 C545 1.363 . S
C551 C546 1.379 . S
C551 N549 1.356 . S
N552 C544 1.356 . S
N552 H558 0.984 . S
N552 H559 0.984 . S
N553 C546 1.356 . S
N553 H556 0.984 . S
N553 H557 0.985 . S
H554 N549 0.984 . S
H555 N549 0.985 . S
H556 N553 0.984 . S
H557 N553 0.985 . S
H558 N552 0.984 . S
H559 N552 0.984 . S
H560 N548 0.984 . S
H561 N548 0.985 . S
C562 C563 1.363 . S
C562 C568 1.379 . S
C562 N570 1.356 . S
C563 C562 1.363 . S
C563 C569 1.363 . S
C564 C565 1.363 . S
C564 C569 1.379 . S
C564 N571 1.356 . S
C565 C564 1.363 . S
C565 C568 1.363 . S
N566 C568 1.356 . S
N566 H578 0.984 . S
N566 H579 0.985 . S
N567 C569 1.356 . S
N567 H572 0.984 . S
N567 H573 0.985 . S
C568 C562 1.379 . S
C568 C565 1.363 . S
C568 N566 1.356 . S
C569 C563 1.363 . S
C569 C564 1.379 . S
C569 N567 1.356 . S
N570 C562 1.356 . S
N570 H576 0.984 . S
N570 H577 0.984 . S
N571 C564 1.356 . S
N571 H574 0.984 . S
N571 H575 0.985 . S
H572 N567 0.984 . S
H573 N567 0.985 . S
H574 N571 0.984 . S
H575 N571 0.985 . S
H576 N570 0.984 . S
H577 N570 0.984 . S
H578 N566 0.984 . S
H579 N566 0.985 . S
C580 C581 1.363 . S
C580 C586 1.379 . S
C580 N588 1.356 . S
C581 C580 1.363 . S
C581 C587 1.363 . S
C582 C583 1.363 . S
C582 C587 1.379 . S
C582 N589 1.356 . S
C583 C582 1.363 . S
C583 C586 1.363 . S
N584 C586 1.356 . S
N584 H596 0.984 . S
N584 H597 0.985 . S
N585 C587 1.356 . S
N585 H590 0.984 . S
N585 H591 0.985 . S
C586 C580 1.379 . S
C586 C583 1.363 . S
C586 N584 1.356 . S
C587 C581 1.363 . S
C587 C582 1.379 . S
C587 N585 1.356 . S
N588 C580 1.356 . S
N588 H594 0.984 . S
N588 H595 0.984 . S
N589 C582 1.356 . S
N589 H592 0.984 . S
N589 H593 0.985 . S
H590 N585 0.984 . S
H591 N585 0.985 . S
H592 N589 0.984 . S
H593 N589 0.985 . S
H594 N588 0.984 . S
H595 N588 0.984 . S
H596 N584 0.984 . S
H597 N584 0.985 . S
C598 C599 1.363 . S
C598 C604 1.379 . S
C598 N606 1.356 . S
C599 C598 1.363 . S
C599 C605 1.363 . S
C600 C601 1.363 . S
C600 C605 1.379 . S
C600 N607 1.356 . S
C601 C600 1.363 . S
C601 C604 1.363 . S
N602 C604 1.356 . S
N602 H614 0.984 . S
N602 H615 0.985 . S
N603 C605 1.356 . S
N603 H608 0.984 . S
N603 H609 0.985 . S
C604 C598 1.379 . S
C604 C601 1.363 . S
C604 N602 1.356 . S
C605 C599 1.363 . S
C605 C600 1.379 . S
C605 N603 1.356 . S
N606 C598 1.356 . S
N606 H612 0.984 . S
N606 H613 0.984 . S
N607 C600 1.356 . S
N607 H610 0.984 . S
N607 H611 0.985 . S
H608 N603 0.984 . S
H609 N603 0.985 . S
H610 N607 0.984 . S
H611 N607 0.985 . S
H612 N606 0.984 . S
H613 N606 0.984 . S
H614 N602 0.984 . S
H615 N602 0.985 . S
C616 C617 1.363 . S
C616 C622 1.379 . S
C616 N624 1.356 . S
C617 C616 1.363 . S
C617 C623 1.363 . S
C618 C619 1.363 . S
C618 C623 1.379 . S
C618 N625 1.356 . S
C619 C618 1.363 . S
C619 C622 1.363 . S
N620 C622 1.356 . S
N620 H632 0.984 . S
N620 H633 0.985 . S
N621 C623 1.356 . S
N621 H626 0.984 . S
N621 H627 0.985 . S
C622 C616 1.379 . S
C622 C619 1.363 . S
C622 N620 1.356 . S
C623 C617 1.363 . S
C623 C618 1.379 . S
C623 N621 1.356 . S
N624 C616 1.356 . S
N624 H630 0.984 . S
N624 H631 0.984 . S
N625 C618 1.356 . S
N625 H628 0.984 . S
N625 H629 0.985 . S
H626 N621 0.984 . S
H627 N621 0.985 . S
H628 N625 0.984 . S
H629 N625 0.985 . S
H630 N624 0.984 . S
H631 N624 0.984 . S
H632 N620 0.984 . S
H633 N620 0.985 . S
C634 C635 1.363 . S
C634 C640 1.379 . S
C634 N642 1.356 . S
C635 C634 1.363 . S
C635 C641 1.363 . S
C636 C637 1.363 . S
C636 C641 1.379 . S
C636 N643 1.356 . S
C637 C636 1.363 . S
C637 C640 1.363 . S
N638 C640 1.356 . S
N638 H650 0.984 . S
N638 H651 0.985 . S
N639 C641 1.356 . S
N639 H644 0.984 . S
N639 H645 0.985 . S
C640 C634 1.379 . S
C640 C637 1.363 . S
C640 N638 1.356 . S
C641 C635 1.363 . S
C641 C636 1.379 . S
C641 N639 1.356 . S
N642 C634 1.356 . S
N642 H648 0.984 . S
N642 H649 0.984 . S
N643 C636 1.356 . S
N643 H646 0.984 . S
N643 H647 0.985 . S
H644 N639 0.984 . S
H645 N639 0.985 . S
H646 N643 0.984 . S
H647 N643 0.985 . S
H648 N642 0.984 . S
H649 N642 0.984 . S
H650 N638 0.984 . S
H651 N638 0.985 . S
C652 C653 1.363 . S
C652 C658 1.379 . S
C652 N660 1.356 . S
C653 C652 1.363 . S
C653 C659 1.363 . S
C654 C655 1.363 . S
C654 C659 1.379 . S
C654 N661 1.356 . S
C655 C654 1.363 . S
C655 C658 1.363 . S
N656 C658 1.356 . S
N656 H668 0.984 . S
N656 H669 0.985 . S
N657 C659 1.356 . S
N657 H662 0.984 . S
N657 H663 0.985 . S
C658 C652 1.379 . S
C658 C655 1.363 . S
C658 N656 1.356 . S
C659 C653 1.363 . S
C659 C654 1.379 . S
C659 N657 1.356 . S
N660 C652 1.356 . S
N660 H666 0.984 . S
N660 H667 0.984 . S
N661 C654 1.356 . S
N661 H664 0.984 . S
N661 H665 0.985 . S
H662 N657 0.984 . S
H663 N657 0.985 . S
H664 N661 0.984 . S
H665 N661 0.985 . S
H666 N660 0.984 . S
H667 N660 0.984 . S
H668 N656 0.984 . S
H669 N656 0.985 . S
C670 C671 1.363 . S
C670 C676 1.379 . S
C670 N678 1.356 . S
C671 C670 1.363 . S
C671 C677 1.363 . S
C672 C673 1.363 . S
C672 C677 1.379 . S
C672 N679 1.356 . S
C673 C672 1.363 . S
C673 C676 1.363 . S
N674 C676 1.356 . S
N674 H686 0.984 . S
N674 H687 0.985 . S
N675 C677 1.356 . S
N675 H680 0.984 . S
N675 H681 0.985 . S
C676 C670 1.379 . S
C676 C673 1.363 . S
C676 N674 1.356 . S
C677 C671 1.363 . S
C677 C672 1.379 . S
C677 N675 1.356 . S
N678 C670 1.356 . S
N678 H684 0.984 . S
N678 H685 0.984 . S
N679 C672 1.356 . S
N679 H682 0.984 . S
N679 H683 0.985 . S
H680 N675 0.984 . S
H681 N675 0.985 . S
H682 N679 0.984 . S
H683 N679 0.985 . S
H684 N678 0.984 . S
H685 N678 0.984 . S
H686 N674 0.984 . S
H687 N674 0.985 . S
C688 C689 1.363 . S
C688 C694 1.379 . S
C688 N696 1.356 . S
C689 C688 1.363 . S
C689 C695 1.363 . S
C690 C691 1.363 . S
C690 C695 1.379 . S
C690 N697 1.356 . S
C691 C690 1.363 . S
C691 C694 1.363 . S
N692 C694 1.356 . S
N692 H704 0.984 . S
N692 H705 0.985 . S
N693 C695 1.356 . S
N693 H698 0.984 . S
N693 H699 0.985 . S
C694 C688 1.379 . S
C694 C691 1.363 . S
C694 N692 1.356 . S
C695 C689 1.363 . S
C695 C690 1.379 . S
C695 N693 1.356 . S
N696 C688 1.356 . S
N696 H702 0.984 . S
N696 H703 0.984 . S
N697 C690 1.356 . S
N697 H700 0.984 . S
N697 H701 0.985 . S
H698 N693 0.984 . S
H699 N693 0.985 . S
H700 N697 0.984 . S
H701 N697 0.985 . S
H702 N696 0.984 . S
H703 N696 0.984 . S
H704 N692 0.984 . S
H705 N692 0.985 . S
C706 C707 1.363 . S
C706 C712 1.379 . S
C706 N714 1.356 . S
C707 C706 1.363 . S
C707 C713 1.363 . S
C708 C709 1.363 . S
C708 C713 1.379 . S
C708 N715 1.356 . S
C709 C708 1.363 . S
C709 C712 1.363 . S
N710 C712 1.356 . S
N710 H722 0.984 . S
N710 H723 0.985 . S
N711 C713 1.356 . S
N711 H716 0.984 . S
N711 H717 0.985 . S
C712 C706 1.379 . S
C712 C709 1.363 . S
C712 N710 1.356 . S
C713 C707 1.363 . S
C713 C708 1.379 . S
C713 N711 1.356 . S
N714 C706 1.356 . S
N714 H720 0.984 . S
N714 H721 0.984 . S
N715 C708 1.356 . S
N715 H718 0.984 . S
N715 H719 0.985 . S
H716 N711 0.984 . S
H717 N711 0.985 . S
H718 N715 0.984 . S
H719 N715 0.985 . S
H720 N714 0.984 . S
H721 N714 0.984 . S
H722 N710 0.984 . S
H723 N710 0.985 . S
C724 C725 1.363 . S
C724 C730 1.379 . S
C724 N732 1.356 . S
C725 C724 1.363 . S
C725 C731 1.363 . S
C726 C727 1.363 . S
C726 C731 1.379 . S
C726 N733 1.356 . S
C727 C726 1.363 . S
C727 C730 1.363 . S
N728 C730 1.356 . S
N728 H740 0.984 . S
N728 H741 0.985 . S
N729 C731 1.356 . S
N729 H734 0.984 . S
N729 H735 0.985 . S
C730 C724 1.379 . S
C730 C727 1.363 . S
C730 N728 1.356 . S
C731 C725 1.363 . S
C731 C726 1.379 . S
C731 N729 1.356 . S
N732 C724 1.356 . S
N732 H738 0.984 . S
N732 H739 0.984 . S
N733 C726 1.356 . S
N733 H736 0.984 . S
N733 H737 0.985 . S
H734 N729 0.984 . S
H735 N729 0.985 . S
H736 N733 0.984 . S
H737 N733 0.985 . S
H738 N732 0.984 . S
H739 N732 0.984 . S
H740 N728 0.984 . S
H741 N728 0.985 . S
C742 C743 1.363 . S
C742 C748 1.379 . S
C742 N750 1.356 . S
C743 C742 1.363 . S
C743 C749 1.363 . S
C744 C745 1.363 . S
C744 C749 1.379 . S
C744 N751 1.356 . S
C745 C744 1.363 . S
C745 C748 1.363 . S
N746 C748 1.356 . S
N746 H758 0.984 . S
N746 H759 0.985 . S
N747 C749 1.356 . S
N747 H752 0.984 . S
N747 H753 0.985 . S
C748 C742 1.379 . S
C748 C745 1.363 . S
C748 N746 1.356 . S
C749 C743 1.363 . S
C749 C744 1.379 . S
C749 N747 1.356 . S
N750 C742 1.356 . S
N750 H756 0.984 . S
N750 H757 0.984 . S
N751 C744 1.356 . S
N751 H754 0.984 . S
N751 H755 0.985 . S
H752 N747 0.984 . S
H753 N747 0.985 . S
H754 N751 0.984 . S
H755 N751 0.985 . S
H756 N750 0.984 . S
H757 N750 0.984 . S
H758 N746 0.984 . S
H759 N746 0.985 . S
C760 C761 1.363 . S
C760 C766 1.379 . S
C760 N768 1.356 . S
C761 C760 1.363 . S
C761 C767 1.363 . S
C762 C763 1.363 . S
C762 C767 1.379 . S
C762 N769 1.356 . S
C763 C762 1.363 . S
C763 C766 1.363 . S
N764 C766 1.356 . S
N764 H776 0.984 . S
N764 H777 0.985 . S
N765 C767 1.356 . S
N765 H770 0.984 . S
N765 H771 0.985 . S
C766 C760 1.379 . S
C766 C763 1.363 . S
C766 N764 1.356 . S
C767 C761 1.363 . S
C767 C762 1.379 . S
C767 N765 1.356 . S
N768 C760 1.356 . S
N768 H774 0.984 . S
N768 H775 0.984 . S
N769 C762 1.356 . S
N769 H772 0.984 . S
N769 H773 0.985 . S
H770 N765 0.984 . S
H771 N765 0.985 . S
H772 N769 0.984 . S
H773 N769 0.985 . S
H774 N768 0.984 . S
H775 N768 0.984 . S
H776 N764 0.984 . S
H777 N764 0.985 . S
C778 C779 1.363 . S
C778 C784 1.379 . S
C778 N786 1.356 . S
C779 C778 1.363 . S
C779 C785 1.363 . S
C780 C781 1.363 . S
C780 C785 1.379 . S
C780 N787 1.356 . S
C781 C780 1.363 . S
C781 C784 1.363 . S
N782 C784 1.356 . S
N782 H794 0.984 . S
N782 H795 0.985 . S
N783 C785 1.356 . S
N783 H788 0.984 . S
N783 H789 0.985 . S
C784 C778 1.379 . S
C784 C781 1.363 . S
C784 N782 1.356 . S
C785 C779 1.363 . S
C785 C780 1.379 . S
C785 N783 1.356 . S
N786 C778 1.356 . S
N786 H792 0.984 . S
N786 H793 0.984 . S
N787 C780 1.356 . S
N787 H790 0.984 . S
N787 H791 0.985 . S
H788 N783 0.984 . S
H789 N783 0.985 . S
H790 N787 0.984 . S
H791 N787 0.985 . S
H792 N786 0.984 . S
H793 N786 0.984 . S
H794 N782 0.984 . S
H795 N782 0.985 . S
C796 C797 1.363 . S
C796 C802 1.379 . S
C796 N804 1.356 . S
C797 C796 1.363 . S
C797 C803 1.363 . S
C798 C799 1.363 . S
C798 C803 1.379 . S
C798 N805 1.356 . S
C799 C798 1.363 . S
C799 C802 1.363 . S
N800 C802 1.356 . S
N800 H812 0.984 . S
N800 H813 0.985 . S
N801 C803 1.356 . S
N801 H806 0.984 . S
N801 H807 0.985 . S
C802 C796 1.379 . S
C802 C799 1.363 . S
C802 N800 1.356 . S
C803 C797 1.363 . S
C803 C798 1.379 . S
C803 N801 1.356 . S
N804 C796 1.356 . S
N804 H810 0.984 . S
N804 H811 0.984 . S
N805 C798 1.356 . S
N805 H808 0.984 . S
N805 H809 0.985 . S
H806 N801 0.984 . S
H807 N801 0.985 . S
H808 N805 0.984 . S
H809 N805 0.985 . S
H810 N804 0.984 . S
H811 N804 0.984 . S
H812 N800 0.984 . S
H813 N800 0.985 . S
C814 C815 1.363 . S
C814 C820 1.379 . S
C814 N822 1.356 . S
C815 C814 1.363 . S
C815 C821 1.363 . S
C816 C817 1.363 . S
C816 C821 1.379 . S
C816 N823 1.356 . S
C817 C816 1.363 . S
C817 C820 1.363 . S
N818 C820 1.356 . S
N818 H830 0.984 . S
N818 H831 0.985 . S
N819 C821 1.356 . S
N819 H824 0.984 . S
N819 H825 0.985 . S
C820 C814 1.379 . S
C820 C817 1.363 . S
C820 N818 1.356 . S
C821 C815 1.363 . S
C821 C816 1.379 . S
C821 N819 1.356 . S
N822 C814 1.356 . S
N822 H828 0.984 . S
N822 H829 0.984 . S
N823 C816 1.356 . S
N823 H826 0.984 . S
N823 H827 0.985 . S
H824 N819 0.984 . S
H825 N819 0.985 . S
H826 N823 0.984 . S
H827 N823 0.985 . S
H828 N822 0.984 . S
H829 N822 0.984 . S
H830 N818 0.984 . S
H831 N818 0.985 . S
C832 C833 1.363 . S
C832 C838 1.379 . S
C832 N840 1.356 . S
C833 C832 1.363 . S
C833 C839 1.363 . S
C834 C835 1.363 . S
C834 C839 1.379 . S
C834 N841 1.356 . S
C835 C834 1.363 . S
C835 C838 1.363 . S
N836 C838 1.356 . S
N836 H848 0.984 . S
N836 H849 0.985 . S
N837 C839 1.356 . S
N837 H842 0.984 . S
N837 H843 0.985 . S
C838 C832 1.379 . S
C838 C835 1.363 . S
C838 N836 1.356 . S
C839 C833 1.363 . S
C839 C834 1.379 . S
C839 N837 1.356 . S
N840 C832 1.356 . S
N840 H846 0.984 . S
N840 H847 0.984 . S
N841 C834 1.356 . S
N841 H844 0.984 . S
N841 H845 0.985 . S
H842 N837 0.984 . S
H843 N837 0.985 . S
H844 N841 0.984 . S
H845 N841 0.985 . S
H846 N840 0.984 . S
H847 N840 0.984 . S
H848 N836 0.984 . S
H849 N836 0.985 . S
C850 C851 1.363 . S
C850 C856 1.379 . S
C850 N858 1.356 . S
C851 C850 1.363 . S
C851 C857 1.363 . S
C852 C853 1.363 . S
C852 C857 1.379 . S
C852 N859 1.356 . S
C853 C852 1.363 . S
C853 C856 1.363 . S
N854 C856 1.356 . S
N854 H866 0.984 . S
N854 H867 0.985 . S
N855 C857 1.356 . S
N855 H860 0.984 . S
N855 H861 0.985 . S
C856 C850 1.379 . S
C856 C853 1.363 . S
C856 N854 1.356 . S
C857 C851 1.363 . S
C857 C852 1.379 . S
C857 N855 1.356 . S
N858 C850 1.356 . S
N858 H864 0.984 . S
N858 H865 0.984 . S
N859 C852 1.356 . S
N859 H862 0.984 . S
N859 H863 0.985 . S
H860 N855 0.984 . S
H861 N855 0.985 . S
H862 N859 0.984 . S
H863 N859 0.985 . S
H864 N858 0.984 . S
H865 N858 0.984 . S
H866 N854 0.984 . S
H867 N854 0.985 . S
C868 C869 1.363 . S
C868 C874 1.379 . S
C868 N876 1.356 . S
C869 C868 1.363 . S
C869 C875 1.363 . S
C870 C871 1.363 . S
C870 C875 1.379 . S
C870 N877 1.356 . S
C871 C870 1.363 . S
C871 C874 1.363 . S
N872 C874 1.356 . S
N872 H884 0.984 . S
N872 H885 0.985 . S
N873 C875 1.356 . S
N873 H878 0.984 . S
N873 H879 0.985 . S
C874 C868 1.379 . S
C874 C871 1.363 . S
C874 N872 1.356 . S
C875 C869 1.363 . S
C875 C870 1.379 . S
C875 N873 1.356 . S
N876 C868 1.356 . S
N876 H882 0.984 . S
N876 H883 0.984 . S
N877 C870 1.356 . S
N877 H880 0.984 . S
N877 H881 0.985 . S
H878 N873 0.984 . S
H879 N873 0.985 . S
H880 N877 0.984 . S
H881 N877 0.985 . S
H882 N876 0.984 . S
H883 N876 0.984 . S
H884 N872 0.984 . S
H885 N872 0.985 . S
C886 C887 1.363 . S
C886 C892 1.379 . S
C886 N894 1.356 . S
C887 C886 1.363 . S
C887 C893 1.363 . S
C888 C889 1.363 . S
C888 C893 1.379 . S
C888 N895 1.356 . S
C889 C888 1.363 . S
C889 C892 1.363 . S
N890 C892 1.356 . S
N890 H902 0.984 . S
N890 H903 0.985 . S
N891 C893 1.356 . S
N891 H896 0.984 . S
N891 H897 0.985 . S
C892 C886 1.379 . S
C892 C889 1.363 . S
C892 N890 1.356 . S
C893 C887 1.363 . S
C893 C888 1.379 . S
C893 N891 1.356 . S
N894 C886 1.356 . S
N894 H900 0.984 . S
N894 H901 0.984 . S
N895 C888 1.356 . S
N895 H898 0.984 . S
N895 H899 0.985 . S
H896 N891 0.984 . S
H897 N891 0.985 . S
H898 N895 0.984 . S
H899 N895 0.985 . S
H900 N894 0.984 . S
H901 N894 0.984 . S
H902 N890 0.984 . S
H903 N890 0.985 . S
C904 C905 1.363 . S
C904 C910 1.379 . S
C904 N912 1.356 . S
C905 C904 1.363 . S
C905 C911 1.363 . S
C906 C907 1.363 . S
C906 C911 1.379 . S
C906 N913 1.356 . S
C907 C906 1.363 . S
C907 C910 1.363 . S
N908 C910 1.356 . S
N908 H920 0.984 . S
N908 H921 0.985 . S
N909 C911 1.356 . S
N909 H914 0.984 . S
N909 H915 0.985 . S
C910 C904 1.379 . S
C910 C907 1.363 . S
C910 N908 1.356 . S
C911 C905 1.363 . S
C911 C906 1.379 . S
C911 N909 1.356 . S
N912 C904 1.356 . S
N912 H918 0.984 . S
N912 H919 0.984 . S
N913 C906 1.356 . S
N913 H916 0.984 . S
N913 H917 0.985 . S
H914 N909 0.984 . S
H915 N909 0.985 . S
H916 N913 0.984 . S
H917 N913 0.985 . S
H918 N912 0.984 . S
H919 N912 0.984 . S
H920 N908 0.984 . S
H921 N908 0.985 . S
C922 C923 1.363 . S
C922 C928 1.379 . S
C922 N930 1.356 . S
C923 C922 1.363 . S
C923 C929 1.363 . S
C924 C925 1.363 . S
C924 C929 1.379 . S
C924 N931 1.356 . S
C925 C924 1.363 . S
C925 C928 1.363 . S
N926 C928 1.356 . S
N926 H938 0.984 . S
N926 H939 0.985 . S
N927 C929 1.356 . S
N927 H932 0.984 . S
N927 H933 0.985 . S
C928 C922 1.379 . S
C928 C925 1.363 . S
C928 N926 1.356 . S
C929 C923 1.363 . S
C929 C924 1.379 . S
C929 N927 1.356 . S
N930 C922 1.356 . S
N930 H936 0.984 . S
N930 H937 0.984 . S
N931 C924 1.356 . S
N931 H934 0.984 . S
N931 H935 0.985 . S
H932 N927 0.984 . S
H933 N927 0.985 . S
H934 N931 0.984 . S
H935 N931 0.985 . S
H936 N930 0.984 . S
H937 N930 0.984 . S
H938 N926 0.984 . S
H939 N926 0.985 . S
C940 C941 1.363 . S
C940 C946 1.379 . S
C940 N948 1.356 . S
C941 C940 1.363 . S
C941 C947 1.363 . S
C942 C943 1.363 . S
C942 C947 1.379 . S
C942 N949 1.356 . S
C943 C942 1.363 . S
C943 C946 1.363 . S
N944 C946 1.356 . S
N944 H956 0.984 . S
N944 H957 0.985 . S
N945 C947 1.356 . S
N945 H950 0.984 . S
N945 H951 0.985 . S
C946 C940 1.379 . S
C946 C943 1.363 . S
C946 N944 1.356 . S
C947 C941 1.363 . S
C947 C942 1.379 . S
C947 N945 1.356 . S
N948 C940 1.356 . S
N948 H954 0.984 . S
N948 H955 0.984 . S
N949 C942 1.356 . S
N949 H952 0.984 . S
N949 H953 0.985 . S
H950 N945 0.984 . S
H951 N945 0.985 . S
H952 N949 0.984 . S
H953 N949 0.985 . S
H954 N948 0.984 . S
H955 N948 0.984 . S
H956 N944 0.984 . S
H957 N944 0.985 . S
C958 C959 1.363 . S
C958 C964 1.379 . S
C958 N966 1.356 . S
C959 C958 1.363 . S
C959 C965 1.363 . S
C960 C961 1.363 . S
C960 C965 1.379 . S
C960 N967 1.356 . S
C961 C960 1.363 . S
C961 C964 1.363 . S
N962 C964 1.356 . S
N962 H974 0.984 . S
N962 H975 0.985 . S
N963 C965 1.356 . S
N963 H968 0.984 . S
N963 H969 0.985 . S
C964 C958 1.379 . S
C964 C961 1.363 . S
C964 N962 1.356 . S
C965 C959 1.363 . S
C965 C960 1.379 . S
C965 N963 1.356 . S
N966 C958 1.356 . S
N966 H972 0.984 . S
N966 H973 0.984 . S
N967 C960 1.356 . S
N967 H970 0.984 . S
N967 H971 0.985 . S
H968 N963 0.984 . S
H969 N963 0.985 . S
H970 N967 0.984 . S
H971 N967 0.985 . S
H972 N966 0.984 . S
H973 N966 0.984 . S
H974 N962 0.984 . S
H975 N962 0.985 . S
C976 C977 1.363 . S
C976 C982 1.379 . S
C976 N984 1.356 . S
C977 C976 1.363 . S
C977 C983 1.363 . S
C978 C979 1.363 . S
C978 C983 1.379 . S
C978 N985 1.356 . S
C979 C978 1.363 . S
C979 C982 1.363 . S
N980 C982 1.356 . S
N980 H992 0.984 . S
N980 H993 0.985 . S
N981 C983 1.356 . S
N981 H986 0.984 . S
N981 H987 0.985 . S
C982 C976 1.379 . S
C982 C979 1.363 . S
C982 N980 1.356 . S
C983 C977 1.363 . S
C983 C978 1.379 . S
C983 N981 1.356 . S
N984 C976 1.356 . S
N984 H990 0.984 . S
N984 H991 0.984 . S
N985 C978 1.356 . S
N985 H988 0.984 . S
N985 H989 0.985 . S
H986 N981 0.984 . S
H987 N981 0.985 . S
H988 N985 0.984 . S
H989 N985 0.985 . S
H990 N984 0.984 . S
H991 N984 0.984 . S
H992 N980 0.984 . S
H993 N980 0.985 . S
C994 C995 1.363 . S
C994 C1000 1.379 . S
C994 N1002 1.356 . S
C995 C994 1.363 . S
C995 C1001 1.363 . S
C996 C997 1.363 . S
C996 C1001 1.379 . S
C996 N1003 1.356 . S
C997 C996 1.363 . S
C997 C1000 1.363 . S
N998 C1000 1.356 . S
N998 H1010 0.984 . S
N998 H1011 0.985 . S
N999 C1001 1.356 . S
N999 H1004 0.984 . S
N999 H1005 0.985 . S
C1000 C994 1.379 . S
C1000 C997 1.363 . S
C1000 N998 1.356 . S
C1001 C995 1.363 . S
C1001 C996 1.379 . S
C1001 N999 1.356 . S
N1002 C994 1.356 . S
N1002 H1008 0.984 . S
N1002 H1009 0.984 . S
N1003 C996 1.356 . S
N1003 H1006 0.984 . S
N1003 H1007 0.985 . S
H1004 N999 0.984 . S
H1005 N999 0.985 . S
H1006 N1003 0.984 . S
H1007 N1003 0.985 . S
H1008 N1002 0.984 . S
H1009 N1002 0.984 . S
H1010 N998 0.984 . S
H1011 N998 0.985 . S
C1012 C1013 1.363 . S
C1012 C1018 1.379 . S
C1012 N1020 1.356 . S
C1013 C1012 1.363 . S
C1013 C1019 1.363 . S
C1014 C1015 1.363 . S
C1014 C1019 1.379 . S
C1014 N1021 1.356 . S
C1015 C1014 1.363 . S
C1015 C1018 1.363 . S
N1016 C1018 1.356 . S
N1016 H1028 0.984 . S
N1016 H1029 0.985 . S
N1017 C1019 1.356 . S
N1017 H1022 0.984 . S
N1017 H1023 0.985 . S
C1018 C1012 1.379 . S
C1018 C1015 1.363 . S
C1018 N1016 1.356 . S
C1019 C1013 1.363 . S
C1019 C1014 1.379 . S
C1019 N1017 1.356 . S
N1020 C1012 1.356 . S
N1020 H1026 0.984 . S
N1020 H1027 0.984 . S
N1021 C1014 1.356 . S
N1021 H1024 0.984 . S
N1021 H1025 0.985 . S
H1022 N1017 0.984 . S
H1023 N1017 0.985 . S
H1024 N1021 0.984 . S
H1025 N1021 0.985 . S
H1026 N1020 0.984 . S
H1027 N1020 0.984 . S
H1028 N1016 0.984 . S
H1029 N1016 0.985 . S
C1030 C1031 1.363 . S
C1030 C1036 1.379 . S
C1030 N1038 1.356 . S
C1031 C1030 1.363 . S
C1031 C1037 1.363 . S
C1032 C1033 1.363 . S
C1032 C1037 1.379 . S
C1032 N1039 1.356 . S
C1033 C1032 1.363 . S
C1033 C1036 1.363 . S
N1034 C1036 1.356 . S
N1034 H1046 0.984 . S
N1034 H1047 0.985 . S
N1035 C1037 1.356 . S
N1035 H1040 0.984 . S
N1035 H1041 0.985 . S
C1036 C1030 1.379 . S
C1036 C1033 1.363 . S
C1036 N1034 1.356 . S
C1037 C1031 1.363 . S
C1037 C1032 1.379 . S
C1037 N1035 1.356 . S
N1038 C1030 1.356 . S
N1038 H1044 0.984 . S
N1038 H1045 0.984 . S
N1039 C1032 1.356 . S
N1039 H1042 0.984 . S
N1039 H1043 0.985 . S
H1040 N1035 0.984 . S
H1041 N1035 0.985 . S
H1042 N1039 0.984 . S
H1043 N1039 0.985 . S
H1044 N1038 0.984 . S
H1045 N1038 0.984 . S
H1046 N1034 0.984 . S
H1047 N1034 0.985 . S
C1048 C1049 1.363 . S
C1048 C1054 1.379 . S
C1048 N1056 1.356 . S
C1049 C1048 1.363 . S
C1049 C1055 1.363 . S
C1050 C1051 1.363 . S
C1050 C1055 1.379 . S
C1050 N1057 1.356 . S
C1051 C1050 1.363 . S
C1051 C1054 1.363 . S
N1052 C1054 1.356 . S
N1052 H1064 0.984 . S
N1052 H1065 0.985 . S
N1053 C1055 1.356 . S
N1053 H1058 0.984 . S
N1053 H1059 0.985 . S
C1054 C1048 1.379 . S
C1054 C1051 1.363 . S
C1054 N1052 1.356 . S
C1055 C1049 1.363 . S
C1055 C1050 1.379 . S
C1055 N1053 1.356 . S
N1056 C1048 1.356 . S
N1056 H1062 0.984 . S
N1056 H1063 0.984 . S
N1057 C1050 1.356 . S
N1057 H1060 0.984 . S
N1057 H1061 0.985 . S
H1058 N1053 0.984 . S
H1059 N1053 0.985 . S
H1060 N1057 0.984 . S
H1061 N1057 0.985 . S
H1062 N1056 0.984 . S
H1063 N1056 0.984 . S
H1064 N1052 0.984 . S
H1065 N1052 0.985 . S
C1066 C1067 1.363 . S
C1066 C1072 1.379 . S
C1066 N1074 1.356 . S
C1067 C1066 1.363 . S
C1067 C1073 1.363 . S
C1068 C1069 1.363 . S
C1068 C1073 1.379 . S
C1068 N1075 1.356 . S
C1069 C1068 1.363 . S
C1069 C1072 1.363 . S
N1070 C1072 1.356 . S
N1070 H1082 0.984 . S
N1070 H1083 0.985 . S
N1071 C1073 1.356 . S
N1071 H1076 0.984 . S
N1071 H1077 0.985 . S
C1072 C1066 1.379 . S
C1072 C1069 1.363 . S
C1072 N1070 1.356 . S
C1073 C1067 1.363 . S
C1073 C1068 1.379 . S
C1073 N1071 1.356 . S
N1074 C1066 1.356 . S
N1074 H1080 0.984 . S
N1074 H1081 0.984 . S
N1075 C1068 1.356 . S
N1075 H1078 0.984 . S
N1075 H1079 0.985 . S
H1076 N1071 0.984 . S
H1077 N1071 0.985 . S
H1078 N1075 0.984 . S
H1079 N1075 0.985 . S
H1080 N1074 0.984 . S
H1081 N1074 0.984 . S
H1082 N1070 0.984 . S
H1083 N1070 0.985 . S
C1084 C1085 1.363 . S
C1084 C1090 1.379 . S
C1084 N1092 1.356 . S
C1085 C1084 1.363 . S
C1085 C1091 1.363 . S
C1086 C1087 1.363 . S
C1086 C1091 1.379 . S
C1086 N1093 1.356 . S
C1087 C1086 1.363 . S
C1087 C1090 1.363 . S
N1088 C1090 1.356 . S
N1088 H1100 0.984 . S
N1088 H1101 0.985 . S
N1089 C1091 1.356 . S
N1089 H1094 0.984 . S
N1089 H1095 0.985 . S
C1090 C1084 1.379 . S
C1090 C1087 1.363 . S
C1090 N1088 1.356 . S
C1091 C1085 1.363 . S
C1091 C1086 1.379 . S
C1091 N1089 1.356 . S
N1092 C1084 1.356 . S
N1092 H1098 0.984 . S
N1092 H1099 0.984 . S
N1093 C1086 1.356 . S
N1093 H1096 0.984 . S
N1093 H1097 0.985 . S
H1094 N1089 0.984 . S
H1095 N1089 0.985 . S
H1096 N1093 0.984 . S
H1097 N1093 0.985 . S
H1098 N1092 0.984 . S
H1099 N1092 0.984 . S
H1100 N1088 0.984 . S
H1101 N1088 0.985 . S
C1102 C1103 1.363 . S
C1102 C1108 1.379 . S
C1102 N1110 1.356 . S
C1103 C1102 1.363 . S
C1103 C1109 1.363 . S
C1104 C1105 1.363 . S
C1104 C1109 1.379 . S
C1104 N1111 1.356 . S
C1105 C1104 1.363 . S
C1105 C1108 1.363 . S
N1106 C1108 1.356 . S
N1106 H1118 0.984 . S
N1106 H1119 0.985 . S
N1107 C1109 1.356 . S
N1107 H1112 0.984 . S
N1107 H1113 0.985 . S
C1108 C1102 1.379 . S
C1108 C1105 1.363 . S
C1108 N1106 1.356 . S
C1109 C1103 1.363 . S
C1109 C1104 1.379 . S
C1109 N1107 1.356 . S
N1110 C1102 1.356 . S
N1110 H1116 0.984 . S
N1110 H1117 0.984 . S
N1111 C1104 1.356 . S
N1111 H1114 0.984 . S
N1111 H1115 0.985 . S
H1112 N1107 0.984 . S
H1113 N1107 0.985 . S
H1114 N1111 0.984 . S
H1115 N1111 0.985 . S
H1116 N1110 0.984 . S
H1117 N1110 0.984 . S
H1118 N1106 0.984 . S
H1119 N1106 0.985 . S
C1120 C1121 1.363 . S
C1120 C1126 1.379 . S
C1120 N1128 1.356 . S
C1121 C1120 1.363 . S
C1121 C1127 1.363 . S
C1122 C1123 1.363 . S
C1122 C1127 1.379 . S
C1122 N1129 1.356 . S
C1123 C1122 1.363 . S
C1123 C1126 1.363 . S
N1124 C1126 1.356 . S
N1124 H1136 0.984 . S
N1124 H1137 0.985 . S
N1125 C1127 1.356 . S
N1125 H1130 0.984 . S
N1125 H1131 0.985 . S
C1126 C1120 1.379 . S
C1126 C1123 1.363 . S
C1126 N1124 1.356 . S
C1127 C1121 1.363 . S
C1127 C1122 1.379 . S
C1127 N1125 1.356 . S
N1128 C1120 1.356 . S
N1128 H1134 0.984 . S
N1128 H1135 0.984 . S
N1129 C1122 1.356 . S
N1129 H1132 0.984 . S
N1129 H1133 0.985 . S
H1130 N1125 0.984 . S
H1131 N1125 0.985 . S
H1132 N1129 0.984 . S
H1133 N1129 0.985 . S
H1134 N1128 0.984 . S
H1135 N1128 0.984 . S
H1136 N1124 0.984 . S
H1137 N1124 0.985 . S
C1138 C1139 1.363 . S
C1138 C1144 1.379 . S
C1138 N1146 1.356 . S
C1139 C1138 1.363 . S
C1139 C1145 1.363 . S
C1140 C1141 1.363 . S
C1140 C1145 1.379 . S
C1140 N1147 1.356 . S
C1141 C1140 1.363 . S
C1141 C1144 1.363 . S
N1142 C1144 1.356 . S
N1142 H1154 0.984 . S
N1142 H1155 0.985 . S
N1143 C1145 1.356 . S
N1143 H1148 0.984 . S
N1143 H1149 0.985 . S
C1144 C1138 1.379 . S
C1144 C1141 1.363 . S
C1144 N1142 1.356 . S
C1145 C1139 1.363 . S
C1145 C1140 1.379 . S
C1145 N1143 1.356 . S
N1146 C1138 1.356 . S
N1146 H1152 0.984 . S
N1146 H1153 0.984 . S
N1147 C1140 1.356 . S
N1147 H1150 0.984 . S
N1147 H1151 0.985 . S
H1148 N1143 0.984 . S
H1149 N1143 0.985 . S
H1150 N1147 0.984 . S
H1151 N1147 0.985 . S
H1152 N1146 0.984 . S
H1153 N1146 0.984 . S
H1154 N1142 0.984 . S
H1155 N1142 0.985 . S
C1156 C1157 1.363 . S
C1156 C1162 1.379 . S
C1156 N1164 1.356 . S
C1157 C1156 1.363 . S
C1157 C1163 1.363 . S
C1158 C1159 1.363 . S
C1158 C1163 1.379 . S
C1158 N1165 1.356 . S
C1159 C1158 1.363 . S
C1159 C1162 1.363 . S
N1160 C1162 1.356 . S
N1160 H1172 0.984 . S
N1160 H1173 0.985 . S
N1161 C1163 1.356 . S
N1161 H1166 0.984 . S
N1161 H1167 0.985 . S
C1162 C1156 1.379 . S
C1162 C1159 1.363 . S
C1162 N1160 1.356 . S
C1163 C1157 1.363 . S
C1163 C1158 1.379 . S
C1163 N1161 1.356 . S
N1164 C1156 1.356 . S
N1164 H1170 0.984 . S
N1164 H1171 0.984 . S
N1165 C1158 1.356 . S
N1165 H1168 0.984 . S
N1165 H1169 0.985 . S
H1166 N1161 0.984 . S
H1167 N1161 0.985 . S
H1168 N1165 0.984 . S
H1169 N1165 0.985 . S
H1170 N1164 0.984 . S
H1171 N1164 0.984 . S
H1172 N1160 0.984 . S
H1173 N1160 0.985 . S
C1174 C1175 1.363 . S
C1174 C1180 1.379 . S
C1174 N1182 1.356 . S
C1175 C1174 1.363 . S
C1175 C1181 1.363 . S
C1176 C1177 1.363 . S
C1176 C1181 1.379 . S
C1176 N1183 1.356 . S
C1177 C1176 1.363 . S
C1177 C1180 1.363 . S
N1178 C1180 1.356 . S
N1178 H1190 0.984 . S
N1178 H1191 0.985 . S
N1179 C1181 1.356 . S
N1179 H1184 0.984 . S
N1179 H1185 0.985 . S
C1180 C1174 1.379 . S
C1180 C1177 1.363 . S
C1180 N1178 1.356 . S
C1181 C1175 1.363 . S
C1181 C1176 1.379 . S
C1181 N1179 1.356 . S
N1182 C1174 1.356 . S
N1182 H1188 0.984 . S
N1182 H1189 0.984 . S
N1183 C1176 1.356 . S
N1183 H1186 0.984 . S
N1183 H1187 0.985 . S
H1184 N1179 0.984 . S
H1185 N1179 0.985 . S
H1186 N1183 0.984 . S
H1187 N1183 0.985 . S
H1188 N1182 0.984 . S
H1189 N1182 0.984 . S
H1190 N1178 0.984 . S
H1191 N1178 0.985 . S
C1192 C1193 1.363 . S
C1192 C1198 1.379 . S
C1192 N1200 1.356 . S
C1193 C1192 1.363 . S
C1193 C1199 1.363 . S
C1194 C1195 1.363 . S
C1194 C1199 1.379 . S
C1194 N1201 1.356 . S
C1195 C1194 1.363 . S
C1195 C1198 1.363 . S
N1196 C1198 1.356 . S
N1196 H1208 0.984 . S
N1196 H1209 0.985 . S
N1197 C1199 1.356 . S
N1197 H1202 0.984 . S
N1197 H1203 0.985 . S
C1198 C1192 1.379 . S
C1198 C1195 1.363 . S
C1198 N1196 1.356 . S
C1199 C1193 1.363 . S
C1199 C1194 1.379 . S
C1199 N1197 1.356 . S
N1200 C1192 1.356 . S
N1200 H1206 0.984 . S
N1200 H1207 0.984 . S
N1201 C1194 1.356 . S
N1201 H1204 0.984 . S
N1201 H1205 0.985 . S
H1202 N1197 0.984 . S
H1203 N1197 0.985 . S
H1204 N1201 0.984 . S
H1205 N1201 0.985 . S
H1206 N1200 0.984 . S
H1207 N1200 0.984 . S
H1208 N1196 0.984 . S
H1209 N1196 0.985 . S
C349 C171 1.625 . S
C347 C9 1.650 . S
C367 C161 1.323 . S
C365 C22 1.320 . S
C385 C162 1.085 . S
C383 C49 1.096 . S
C401 C61 1.268 . S
C403 C184 1.254 . S
C419 C81 1.319 . S
C421 C187 1.322 . S
C439 C170 1.085 . S
C437 C108 1.096 . S
C455 C122 1.268 . S
C457 C160 1.257 . S
C473 C148 1.651 . S
C475 C178 1.626 . S
C493 C191 2.107 . S
C491 C18 2.079 . S
C509 C39 1.501 . S
C511 C240 1.468 . S
C529 C218 2.182 . S
C527 C58 2.155 . S
C547 C232 1.026 . S
C545 C69 1.073 . S
C563 C89 1.058 . S
C565 C193 1.037 . S
C583 C246 1.291 . S
C581 C102 1.334 . S
C599 C139 1.499 . S
C601 C202 1.472 . S
C617 C142 1.344 . S
C619 C223 1.328 . S
C635 C1 1.344 . S
C637 C249 1.326 . S
C653 C98 1.501 . S
C655 C233 1.467 . S
C673 C192 2.182 . S
C671 C119 2.155 . S
C691 C224 1.026 . S
C689 C128 1.073 . S
C707 C159 2.079 . S
C709 C215 2.107 . S
C725 C41 1.335 . S
C727 C222 1.293 . S
C745 C209 1.472 . S
C743 C78 1.499 . S
C761 C28 1.058 . S
C763 C201 1.037 . S
C779 C149 1.651 . S
C781 C264 1.625 . S
C797 C82 1.318 . S
C799 C254 1.323 . S
C817 C255 1.085 . S
C815 C109 1.096 . S
C835 C277 1.256 . S
C833 C121 1.268 . S
C851 C21 1.318 . S
C853 C280 1.323 . S
C871 C263 1.085 . S
C869 C48 1.096 . S
C887 C62 1.268 . S
C889 C253 1.256 . S
C905 C8 1.651 . S
C907 C271 1.625 . S
C923 C158 2.079 . S
C925 C284 2.109 . S
C943 C333 1.468 . S
C941 C99 1.501 . S
C959 C118 2.155 . S
C961 C311 2.180 . S
C977 C129 1.073 . S
C979 C325 1.026 . S
C997 C286 1.037 . S
C995 C29 1.060 . S
C1013 C42 1.335 . S
C1015 C339 1.291 . S
C1033 C295 1.472 . S
C1031 C79 1.498 . S
C1051 C316 1.327 . S
C1049 C2 1.344 . S
C1069 C342 1.327 . S
C1067 C141 1.344 . S
C1085 C38 1.501 . S
C1087 C326 1.467 . S
C1103 C59 2.155 . S
C1105 C285 2.183 . S
C1123 C317 1.026 . S
C1121 C68 1.073 . S
C1139 C19 2.079 . S
C1141 C308 2.106 . S
C1157 C101 1.335 . S
C1159 C315 1.291 . S
C1177 C302 1.472 . S
C1175 C138 1.500 . S
C1195 C294 1.037 . S
C1193 C88 1.057 . S
