# Generated by pormake.
# Topology gar, (4,6)-cn, num edge types: 1
# Building blocks:
#     Node 0, Type 0, BuildingBlock: QUQFOY_clean_sbu_1, # of connection points: 4
#     Node 1, Type 0, BuildingBlock: QUQFOY_clean_sbu_1, # of connection points: 4
#     Node 2, Type 0, BuildingBlock: QUQFOY_clean_sbu_1, # of connection points: 4
#     Node 3, Type 0, BuildingBlock: QUQFOY_clean_sbu_1, # of connection points: 4
#     Node 4, Type 0, BuildingBlock: QUQFOY_clean_sbu_1, # of connection points: 4
#     Node 5, Type 0, BuildingBlock: QUQFOY_clean_sbu_1, # of connection points: 4
#     Node 6, Type 0, BuildingBlock: QUQFOY_clean_sbu_1, # of connection points: 4
#     Node 7, Type 0, BuildingBlock: QUQFOY_clean_sbu_1, # of connection points: 4
#     Node 8, Type 0, BuildingBlock: QUQFOY_clean_sbu_1, # of connection points: 4
#     Node 9, Type 0, BuildingBlock: QUQFOY_clean_sbu_1, # of connection points: 4
#     Node 10, Type 0, BuildingBlock: QUQFOY_clean_sbu_1, # of connection points: 4
#     Node 11, Type 0, BuildingBlock: QUQFOY_clean_sbu_1, # of connection points: 4
#     Node 12, Type 0, BuildingBlock: QUQFOY_clean_sbu_1, # of connection points: 4
#     Node 13, Type 0, BuildingBlock: QUQFOY_clean_sbu_1, # of connection points: 4
#     Node 14, Type 0, BuildingBlock: QUQFOY_clean_sbu_1, # of connection points: 4
#     Node 15, Type 0, BuildingBlock: QUQFOY_clean_sbu_1, # of connection points: 4
#     Node 16, Type 0, BuildingBlock: QUQFOY_clean_sbu_1, # of connection points: 4
#     Node 17, Type 0, BuildingBlock: QUQFOY_clean_sbu_1, # of connection points: 4
#     Node 18, Type 0, BuildingBlock: QUQFOY_clean_sbu_1, # of connection points: 4
#     Node 19, Type 0, BuildingBlock: QUQFOY_clean_sbu_1, # of connection points: 4
#     Node 20, Type 0, BuildingBlock: QUQFOY_clean_sbu_1, # of connection points: 4
#     Node 21, Type 0, BuildingBlock: QUQFOY_clean_sbu_1, # of connection points: 4
#     Node 22, Type 0, BuildingBlock: QUQFOY_clean_sbu_1, # of connection points: 4
#     Node 23, Type 0, BuildingBlock: QUQFOY_clean_sbu_1, # of connection points: 4
#     Node 24, Type 1, BuildingBlock: BETDEL_clean_sbu_0, # of connection points: 6
#     Node 25, Type 1, BuildingBlock: BETDEL_clean_sbu_0, # of connection points: 6
#     Node 26, Type 1, BuildingBlock: BETDEL_clean_sbu_0, # of connection points: 6
#     Node 27, Type 1, BuildingBlock: BETDEL_clean_sbu_0, # of connection points: 6
#     Node 28, Type 1, BuildingBlock: BETDEL_clean_sbu_0, # of connection points: 6
#     Node 29, Type 1, BuildingBlock: BETDEL_clean_sbu_0, # of connection points: 6
#     Node 30, Type 1, BuildingBlock: BETDEL_clean_sbu_0, # of connection points: 6
#     Node 31, Type 1, BuildingBlock: BETDEL_clean_sbu_0, # of connection points: 6
#     Node 32, Type 1, BuildingBlock: BETDEL_clean_sbu_0, # of connection points: 6
#     Node 33, Type 1, BuildingBlock: BETDEL_clean_sbu_0, # of connection points: 6
#     Node 34, Type 1, BuildingBlock: BETDEL_clean_sbu_0, # of connection points: 6
#     Node 35, Type 1, BuildingBlock: BETDEL_clean_sbu_0, # of connection points: 6
#     Node 36, Type 1, BuildingBlock: BETDEL_clean_sbu_0, # of connection points: 6
#     Node 37, Type 1, BuildingBlock: BETDEL_clean_sbu_0, # of connection points: 6
#     Node 38, Type 1, BuildingBlock: BETDEL_clean_sbu_0, # of connection points: 6
#     Node 39, Type 1, BuildingBlock: BETDEL_clean_sbu_0, # of connection points: 6
#     Edge 40, Type (0, 1), BuildingBlock: CIFDUS_clean_linker_0, # of connection points: 2
#     Edge 41, Type (0, 1), BuildingBlock: CIFDUS_clean_linker_0, # of connection points: 2
#     Edge 42, Type (0, 1), BuildingBlock: CIFDUS_clean_linker_0, # of connection points: 2
#     Edge 43, Type (0, 1), BuildingBlock: CIFDUS_clean_linker_0, # of connection points: 2
#     Edge 44, Type (0, 1), BuildingBlock: CIFDUS_clean_linker_0, # of connection points: 2
#     Edge 45, Type (0, 1), BuildingBlock: CIFDUS_clean_linker_0, # of connection points: 2
#     Edge 46, Type (0, 1), BuildingBlock: CIFDUS_clean_linker_0, # of connection points: 2
#     Edge 47, Type (0, 1), BuildingBlock: CIFDUS_clean_linker_0, # of connection points: 2
#     Edge 48, Type (0, 1), BuildingBlock: CIFDUS_clean_linker_0, # of connection points: 2
#     Edge 49, Type (0, 1), BuildingBlock: CIFDUS_clean_linker_0, # of connection points: 2
#     Edge 50, Type (0, 1), BuildingBlock: CIFDUS_clean_linker_0, # of connection points: 2
#     Edge 51, Type (0, 1), BuildingBlock: CIFDUS_clean_linker_0, # of connection points: 2
#     Edge 52, Type (0, 1), BuildingBlock: CIFDUS_clean_linker_0, # of connection points: 2
#     Edge 53, Type (0, 1), BuildingBlock: CIFDUS_clean_linker_0, # of connection points: 2
#     Edge 54, Type (0, 1), BuildingBlock: CIFDUS_clean_linker_0, # of connection points: 2
#     Edge 55, Type (0, 1), BuildingBlock: CIFDUS_clean_linker_0, # of connection points: 2
#     Edge 56, Type (0, 1), BuildingBlock: CIFDUS_clean_linker_0, # of connection points: 2
#     Edge 57, Type (0, 1), BuildingBlock: CIFDUS_clean_linker_0, # of connection points: 2
#     Edge 58, Type (0, 1), BuildingBlock: CIFDUS_clean_linker_0, # of connection points: 2
#     Edge 59, Type (0, 1), BuildingBlock: CIFDUS_clean_linker_0, # of connection points: 2
#     Edge 60, Type (0, 1), BuildingBlock: CIFDUS_clean_linker_0, # of connection points: 2
#     Edge 61, Type (0, 1), BuildingBlock: CIFDUS_clean_linker_0, # of connection points: 2
#     Edge 62, Type (0, 1), BuildingBlock: CIFDUS_clean_linker_0, # of connection points: 2
#     Edge 63, Type (0, 1), BuildingBlock: CIFDUS_clean_linker_0, # of connection points: 2
#     Edge 64, Type (0, 1), BuildingBlock: CIFDUS_clean_linker_0, # of connection points: 2
#     Edge 65, Type (0, 1), BuildingBlock: CIFDUS_clean_linker_0, # of connection points: 2
#     Edge 66, Type (0, 1), BuildingBlock: CIFDUS_clean_linker_0, # of connection points: 2
#     Edge 67, Type (0, 1), BuildingBlock: CIFDUS_clean_linker_0, # of connection points: 2
#     Edge 68, Type (0, 1), BuildingBlock: CIFDUS_clean_linker_0, # of connection points: 2
#     Edge 69, Type (0, 1), BuildingBlock: CIFDUS_clean_linker_0, # of connection points: 2
#     Edge 70, Type (0, 1), BuildingBlock: CIFDUS_clean_linker_0, # of connection points: 2
#     Edge 71, Type (0, 1), BuildingBlock: CIFDUS_clean_linker_0, # of connection points: 2
#     Edge 72, Type (0, 1), BuildingBlock: CIFDUS_clean_linker_0, # of connection points: 2
#     Edge 73, Type (0, 1), BuildingBlock: CIFDUS_clean_linker_0, # of connection points: 2
#     Edge 74, Type (0, 1), BuildingBlock: CIFDUS_clean_linker_0, # of connection points: 2
#     Edge 75, Type (0, 1), BuildingBlock: CIFDUS_clean_linker_0, # of connection points: 2
#     Edge 76, Type (0, 1), BuildingBlock: CIFDUS_clean_linker_0, # of connection points: 2
#     Edge 77, Type (0, 1), BuildingBlock: CIFDUS_clean_linker_0, # of connection points: 2
#     Edge 78, Type (0, 1), BuildingBlock: CIFDUS_clean_linker_0, # of connection points: 2
#     Edge 79, Type (0, 1), BuildingBlock: CIFDUS_clean_linker_0, # of connection points: 2
#     Edge 80, Type (0, 1), BuildingBlock: CIFDUS_clean_linker_0, # of connection points: 2
#     Edge 81, Type (0, 1), BuildingBlock: CIFDUS_clean_linker_0, # of connection points: 2
#     Edge 82, Type (0, 1), BuildingBlock: CIFDUS_clean_linker_0, # of connection points: 2
#     Edge 83, Type (0, 1), BuildingBlock: CIFDUS_clean_linker_0, # of connection points: 2
#     Edge 84, Type (0, 1), BuildingBlock: CIFDUS_clean_linker_0, # of connection points: 2
#     Edge 85, Type (0, 1), BuildingBlock: CIFDUS_clean_linker_0, # of connection points: 2
#     Edge 86, Type (0, 1), BuildingBlock: CIFDUS_clean_linker_0, # of connection points: 2
#     Edge 87, Type (0, 1), BuildingBlock: CIFDUS_clean_linker_0, # of connection points: 2
#     Edge 88, Type (0, 1), BuildingBlock: CIFDUS_clean_linker_0, # of connection points: 2
#     Edge 89, Type (0, 1), BuildingBlock: CIFDUS_clean_linker_0, # of connection points: 2
#     Edge 90, Type (0, 1), BuildingBlock: CIFDUS_clean_linker_0, # of connection points: 2
#     Edge 91, Type (0, 1), BuildingBlock: CIFDUS_clean_linker_0, # of connection points: 2
#     Edge 92, Type (0, 1), BuildingBlock: CIFDUS_clean_linker_0, # of connection points: 2
#     Edge 93, Type (0, 1), BuildingBlock: CIFDUS_clean_linker_0, # of connection points: 2
#     Edge 94, Type (0, 1), BuildingBlock: CIFDUS_clean_linker_0, # of connection points: 2
#     Edge 95, Type (0, 1), BuildingBlock: CIFDUS_clean_linker_0, # of connection points: 2
#     Edge 96, Type (0, 1), BuildingBlock: CIFDUS_clean_linker_0, # of connection points: 2
#     Edge 97, Type (0, 1), BuildingBlock: CIFDUS_clean_linker_0, # of connection points: 2
#     Edge 98, Type (0, 1), BuildingBlock: CIFDUS_clean_linker_0, # of connection points: 2
#     Edge 99, Type (0, 1), BuildingBlock: CIFDUS_clean_linker_0, # of connection points: 2
#     Edge 100, Type (0, 1), BuildingBlock: CIFDUS_clean_linker_0, # of connection points: 2
#     Edge 101, Type (0, 1), BuildingBlock: CIFDUS_clean_linker_0, # of connection points: 2
#     Edge 102, Type (0, 1), BuildingBlock: CIFDUS_clean_linker_0, # of connection points: 2
#     Edge 103, Type (0, 1), BuildingBlock: CIFDUS_clean_linker_0, # of connection points: 2
#     Edge 104, Type (0, 1), BuildingBlock: CIFDUS_clean_linker_0, # of connection points: 2
#     Edge 105, Type (0, 1), BuildingBlock: CIFDUS_clean_linker_0, # of connection points: 2
#     Edge 106, Type (0, 1), BuildingBlock: CIFDUS_clean_linker_0, # of connection points: 2
#     Edge 107, Type (0, 1), BuildingBlock: CIFDUS_clean_linker_0, # of connection points: 2
#     Edge 108, Type (0, 1), BuildingBlock: CIFDUS_clean_linker_0, # of connection points: 2
#     Edge 109, Type (0, 1), BuildingBlock: CIFDUS_clean_linker_0, # of connection points: 2
#     Edge 110, Type (0, 1), BuildingBlock: CIFDUS_clean_linker_0, # of connection points: 2
#     Edge 111, Type (0, 1), BuildingBlock: CIFDUS_clean_linker_0, # of connection points: 2
#     Edge 112, Type (0, 1), BuildingBlock: CIFDUS_clean_linker_0, # of connection points: 2
#     Edge 113, Type (0, 1), BuildingBlock: CIFDUS_clean_linker_0, # of connection points: 2
#     Edge 114, Type (0, 1), BuildingBlock: CIFDUS_clean_linker_0, # of connection points: 2
#     Edge 115, Type (0, 1), BuildingBlock: CIFDUS_clean_linker_0, # of connection points: 2
#     Edge 116, Type (0, 1), BuildingBlock: CIFDUS_clean_linker_0, # of connection points: 2
#     Edge 117, Type (0, 1), BuildingBlock: CIFDUS_clean_linker_0, # of connection points: 2
#     Edge 118, Type (0, 1), BuildingBlock: CIFDUS_clean_linker_0, # of connection points: 2
#     Edge 119, Type (0, 1), BuildingBlock: CIFDUS_clean_linker_0, # of connection points: 2
#     Edge 120, Type (0, 1), BuildingBlock: CIFDUS_clean_linker_0, # of connection points: 2
#     Edge 121, Type (0, 1), BuildingBlock: CIFDUS_clean_linker_0, # of connection points: 2
#     Edge 122, Type (0, 1), BuildingBlock: CIFDUS_clean_linker_0, # of connection points: 2
#     Edge 123, Type (0, 1), BuildingBlock: CIFDUS_clean_linker_0, # of connection points: 2
#     Edge 124, Type (0, 1), BuildingBlock: CIFDUS_clean_linker_0, # of connection points: 2
#     Edge 125, Type (0, 1), BuildingBlock: CIFDUS_clean_linker_0, # of connection points: 2
#     Edge 126, Type (0, 1), BuildingBlock: CIFDUS_clean_linker_0, # of connection points: 2
#     Edge 127, Type (0, 1), BuildingBlock: CIFDUS_clean_linker_0, # of connection points: 2
#     Edge 128, Type (0, 1), BuildingBlock: CIFDUS_clean_linker_0, # of connection points: 2
#     Edge 129, Type (0, 1), BuildingBlock: CIFDUS_clean_linker_0, # of connection points: 2
#     Edge 130, Type (0, 1), BuildingBlock: CIFDUS_clean_linker_0, # of connection points: 2
#     Edge 131, Type (0, 1), BuildingBlock: CIFDUS_clean_linker_0, # of connection points: 2
#     Edge 132, Type (0, 1), BuildingBlock: CIFDUS_clean_linker_0, # of connection points: 2
#     Edge 133, Type (0, 1), BuildingBlock: CIFDUS_clean_linker_0, # of connection points: 2
#     Edge 134, Type (0, 1), BuildingBlock: CIFDUS_clean_linker_0, # of connection points: 2
#     Edge 135, Type (0, 1), BuildingBlock: CIFDUS_clean_linker_0, # of connection points: 2
# Relax obj value: 0.160
# Max RMSD: 0.281
# Mean RMSD: 0.181
data_MOF--net-gar--node1-QUQFOY_clean_sbu_1--node2-BETDEL_clean_sbu_0--edge1-CIFDUS_clean_linker_0
_symmetry_space_group_name_H-M    P1
_symmetry_Int_Tables_number       1
_symmetry_cell_setting            triclinic
loop_
_symmetry_equiv_pos_as_xyz
'x, y, z'
_cell_length_a     50.340841
_cell_length_b     47.519956
_cell_length_c     49.061165
_cell_angle_alpha  95.762877
_cell_angle_beta   92.679622
_cell_angle_gamma 103.436
loop_
_atom_site_label
_atom_site_type_symbol
_atom_site_fract_x
_atom_site_fract_y
_atom_site_fract_z
_atom_type_partial_charge
O0 O 0.03628 0.23214 0.40324 0.0
Cd1 Cd 0.03391 0.25843 0.37289 0.0
Cd2 Cd 0.01961 0.29164 0.4203 0.0
O3 O 0.02435 0.25613 0.43973 0.0
O4 O 0.04882 0.23832 0.34168 0.0
O5 O 0.06837 0.28312 0.36018 0.0
C6 C 0.06854 0.26121 0.34238 0.0
C7 C 0.03306 0.33778 0.44458 0.0
C8 C 0.03167 0.23411 0.42852 0.0
C9 C 0.98002 0.27461 0.36899 0.0
O10 O 0.98627 0.28812 0.39292 0.0
O11 O 0.99584 0.26061 0.35745 0.0
O12 O 0.01127 0.31934 0.44967 0.0
O13 O 0.04833 0.32965 0.42642 0.0
O14 O 0.98336 0.73256 0.61604 0.0
Cd15 Cd 0.99084 0.76504 0.6489 0.0
Cd16 Cd 0.02179 0.79498 0.61315 0.0
O17 O 0.00619 0.75842 0.58589 0.0
O18 O 0.96179 0.75397 0.67483 0.0
O19 O 0.96757 0.79429 0.65467 0.0
C20 C 0.95435 0.77764 0.67131 0.0
C21 C 0.02333 0.84037 0.59827 0.0
C22 C 0.99141 0.7347 0.59197 0.0
C23 C 0.05098 0.77994 0.66309 0.0
O24 O 0.05288 0.79142 0.64073 0.0
O25 O 0.02758 0.76928 0.67131 0.0
O26 O 0.0408 0.8256 0.59109 0.0
O27 O 0.00464 0.82941 0.61394 0.0
O28 O 0.59777 0.78604 0.90957 0.0
Cd29 Cd 0.56985 0.78874 0.93914 0.0
Cd30 Cd 0.54248 0.80571 0.89009 0.0
O31 O 0.57571 0.79478 0.87241 0.0
O32 O 0.58082 0.76774 0.96967 0.0
O33 O 0.54227 0.75143 0.94355 0.0
C34 C 0.55868 0.74768 0.96319 0.0
C35 C 0.5014 0.79993 0.86334 0.0
C36 C 0.59625 0.78819 0.8839 0.0
C37 C 0.55555 0.84728 0.94379 0.0
O38 O 0.54784 0.84161 0.91843 0.0
O39 O 0.56466 0.829 0.95653 0.0
O40 O 0.52328 0.81863 0.85895 0.0
O41 O 0.50313 0.78297 0.88199 0.0
O42 O 0.47567 0.21857 0.11934 0.0
Cd43 Cd 0.48467 0.25529 0.14791 0.0
Cd44 Cd 0.51439 0.27853 0.10766 0.0
O45 O 0.49718 0.23886 0.08547 0.0
O46 O 0.45801 0.24695 0.1768 0.0
O47 O 0.46082 0.28411 0.1526 0.0
C48 C 0.4495 0.26955 0.17161 0.0
C49 C 0.51118 0.32214 0.09097 0.0
C50 C 0.48328 0.21654 0.09498 0.0
C51 C 0.54578 0.26994 0.15837 0.0
O52 O 0.54719 0.27754 0.13423 0.0
O53 O 0.52271 0.26232 0.16843 0.0
O54 O 0.52706 0.30682 0.08053 0.0
O55 O 0.49694 0.31256 0.11081 0.0
O56 O 0.02077 0.73797 0.12806 0.0
Cd57 Cd 0.02833 0.77118 0.15999 0.0
Cd58 Cd 0.0638 0.79681 0.12581 0.0
O59 O 0.056 0.75542 0.10452 0.0
O60 O 1.00225 0.7545 0.1867 0.0
O61 O 1.00085 0.79522 0.16939 0.0
C62 C 0.99119 0.77621 0.18564 0.0
C63 C 0.04781 0.83319 0.10618 0.0
C64 C 0.03589 0.73483 0.10849 0.0
C65 C 0.08852 0.79293 0.18037 0.0
O66 O 0.09312 0.80532 0.15868 0.0
O67 O 0.06468 0.778 0.1836 0.0
O68 O 0.07063 0.8271 0.09981 0.0
O69 O 0.03431 0.81892 0.12428 0.0
O70 O 0.54929 0.76583 0.36858 0.0
Cd71 Cd 0.52269 0.7674 0.39919 0.0
Cd72 Cd 0.49188 0.78016 0.35044 0.0
O73 O 0.52629 0.77389 0.33183 0.0
O74 O 0.54312 0.7556 0.43029 0.0
O75 O 0.50297 0.72947 0.41194 0.0
C76 C 0.52374 0.73237 0.42937 0.0
C77 C 0.44952 0.76419 0.32526 0.0
C78 C 0.5475 0.76843 0.34307 0.0
C79 C 0.50318 0.8236 0.40212 0.0
O80 O 0.49421 0.81709 0.3771 0.0
O81 O 0.51449 0.8066 0.41443 0.0
O82 O 0.46781 0.78611 0.31935 0.0
O83 O 0.45563 0.75038 0.34512 0.0
O84 O 0.53908 0.24862 0.64493 0.0
Cd85 Cd 0.54533 0.28678 0.67124 0.0
Cd86 Cd 0.56865 0.31052 0.6278 0.0
O87 O 0.55293 0.2691 0.60794 0.0
O88 O 0.51872 0.27973 0.70033 0.0
O89 O 0.51796 0.31177 0.67079 0.0
C90 C 0.50739 0.29896 0.69113 0.0
C91 C 0.56156 0.34956 0.60493 0.0
C92 C 0.54296 0.2466 0.61947 0.0
C93 C 0.6058 0.31048 0.67842 0.0
O94 O 0.60401 0.31576 0.65354 0.0
O95 O 0.58423 0.30069 0.69036 0.0
O96 O 0.57991 0.33577 0.59811 0.0
O97 O 0.54724 0.34145 0.62517 0.0
O98 O 0.99459 0.1885 0.87438 0.0
Cd99 Cd 0.99927 0.21834 0.84559 0.0
Cd100 Cd 0.98597 0.25266 0.89154 0.0
O101 O 0.99192 0.21782 0.91168 0.0
O102 O 0.02595 0.20891 0.81872 0.0
O103 O 0.0345 0.24928 0.84763 0.0
C104 C 0.04267 0.23318 0.82849 0.0
C105 C 0.99789 0.30031 0.9141 0.0
C106 C 0.99333 0.19297 0.9003 0.0
C107 C 0.9472 0.23691 0.83853 0.0
O108 O 0.95255 0.24699 0.8637 0.0
O109 O 0.964 0.22504 0.82582 0.0
O110 O 0.97682 0.28144 0.92012 0.0
O111 O 0.01329 0.29175 0.89629 0.0
O112 O 0.41744 0.07651 0.24029 0.0
Cd113 Cd 0.38541 0.06116 0.26339 0.0
Cd114 Cd 0.43391 0.05147 0.29879 0.0
O115 O 0.45129 0.06553 0.26405 0.0
O116 O 0.35436 0.06594 0.23917 0.0
O117 O 0.36416 0.08794 0.28151 0.0
C118 C 0.34881 0.08307 0.2589 0.0
C119 C 0.46567 0.06008 0.33686 0.0
C120 C 0.44232 0.07539 0.24332 0.0
C121 C 0.38383 1.00168 0.28214 0.0
O122 O 0.40634 0.01169 0.29646 0.0
O123 O 0.37367 0.01757 0.26739 0.0
O124 O 0.46637 0.04148 0.3162 0.0
O125 O 0.44668 0.0742 0.33616 0.0
O126 O 0.27921 0.1631 0.54885 0.0
Cd127 Cd 0.27785 0.13445 0.51348 0.0
Cd128 Cd 0.2598 0.17968 0.49109 0.0
O129 O 0.27245 0.20166 0.53017 0.0
O130 O 0.29914 0.10575 0.52395 0.0
O131 O 0.31134 0.13461 0.49192 0.0
C132 C 0.31611 0.11448 0.50596 0.0
C133 C 0.271 0.20347 0.45135 0.0
C134 C 0.27743 0.18953 0.55123 0.0
C135 C 0.21925 0.12071 0.49272 0.0
O136 O 0.22332 0.14759 0.48936 0.0
O137 O 0.23908 0.10994 0.49971 0.0
O138 O 0.25168 0.20841 0.4661 0.0
O139 O 0.28439 0.18522 0.45923 0.0
O140 O 0.15241 0.01495 0.74401 0.0
Cd141 Cd 0.17786 0.01506 0.77843 0.0
Cd142 Cd 0.1374 0.038 0.8044 0.0
O143 O 0.12041 0.03249 0.76445 0.0
O144 O 0.20486 0.99181 0.76671 0.0
O145 O 0.17497 0.97869 0.79737 0.0
C146 C 0.19467 0.97341 0.78326 0.0
C147 C 0.10925 0.03059 0.8412 0.0
C148 C 0.13035 0.02369 0.74269 0.0
C149 C 0.19411 0.07696 0.80564 0.0
O150 O 0.1697 0.07369 0.81252 0.0
O151 O 0.20181 0.05583 0.79304 0.0
O152 O 0.11004 0.05196 0.82689 0.0
O153 O 0.12355 0.01217 0.83392 0.0
O154 O 0.24068 0.90436 0.05306 0.0
Cd155 Cd 0.2526 0.93383 0.02536 0.0
Cd156 Cd 0.25813 0.88363 0.99279 0.0
O157 O 0.24487 0.86504 0.02725 0.0
O158 O 0.23898 0.96861 0.03843 0.0
O159 O 0.22454 0.94164 0.99869 0.0
C160 C 0.22312 0.96341 0.01617 0.0
C161 C 0.24376 0.85565 0.9506 0.0
C162 C 0.23904 0.87714 0.0497 0.0
C163 C 0.30823 0.93364 0.00656 0.0
O164 O 0.29755 0.90849 0.99419 0.0
O165 O 0.2939 0.94775 0.02049 0.0
O166 O 0.26059 0.84888 0.96787 0.0
O167 O 0.23431 0.87818 0.95759 0.0
O168 O 0.25773 0.38613 0.08314 0.0
Cd169 Cd 0.2617 0.41967 0.05827 0.0
Cd170 Cd 0.28241 0.37746 0.02313 0.0
O171 O 0.27195 0.35322 0.05613 0.0
O172 O 0.23951 0.44634 0.07449 0.0
O173 O 0.23035 0.42337 0.0325 0.0
C174 C 0.22443 0.44109 0.05172 0.0
C175 C 0.27504 0.3559 0.9771 0.0
C176 C 0.26283 0.36107 0.07881 0.0
C177 C 0.3195 0.43819 0.04197 0.0
O178 O 0.31565 0.41294 0.02886 0.0
O179 O 0.3006 0.44547 0.05529 0.0
O180 O 0.29454 0.35207 0.9932 0.0
O181 O 0.25865 0.37068 0.98747 0.0
O182 O 0.80451 0.15703 0.07356 0.0
Cd183 Cd 0.79564 0.1274 0.03837 0.0
Cd184 Cd 0.78723 0.17307 0.01669 0.0
O185 O 0.80604 0.1962 0.05262 0.0
O186 O 0.81127 0.09372 0.04459 0.0
O187 O 0.82347 0.12196 0.01177 0.0
C188 C 0.82545 0.09942 0.02373 0.0
C189 C 0.80036 0.19142 0.97611 0.0
C190 C 0.80917 0.18459 0.07429 0.0
C191 C 0.73838 0.1243 0.01965 0.0
O192 O 0.74659 0.15111 0.01674 0.0
O193 O 0.75524 0.1097 0.02641 0.0
O194 O 0.78633 0.20379 0.9927 0.0
O195 O 0.80738 0.1684 0.98273 0.0
O196 O 0.11095 0.4745 0.17652 0.0
Cd197 Cd 0.14597 0.49124 0.20172 0.0
Cd198 Cd 0.11151 0.5087 0.23857 0.0
O199 O 0.085 0.49401 0.204 0.0
O200 O 0.17512 0.47233 0.189 0.0
O201 O 0.16019 0.47062 0.23076 0.0
C202 C 0.17708 0.4645 0.21331 0.0
C203 C 0.09088 0.50359 0.28015 0.0
C204 C 0.08804 0.48018 0.18126 0.0
C205 C 0.15884 0.5538 0.22159 0.0
O206 O 0.14121 0.54693 0.23897 0.0
O207 O 0.16244 0.53494 0.20287 0.0
O208 O 0.08625 0.52195 0.26409 0.0
O209 O 0.10735 0.48762 0.27256 0.0
O210 O 0.76333 0.89087 0.59026 0.0
Cd211 Cd 0.76701 0.91841 0.55942 0.0
Cd212 Cd 0.78417 0.8706 0.53204 0.0
O213 O 0.77359 0.85205 0.56857 0.0
O214 O 0.7455 0.9483 0.56945 0.0
O215 O 0.7352 0.9168 0.53208 0.0
C216 C 0.72988 0.93834 0.54734 0.0
C217 C 0.77254 0.84695 0.48703 0.0
C218 C 0.76655 0.86501 0.5902 0.0
C219 C 0.82455 0.9302 0.5415 0.0
O220 O 0.81969 0.90313 0.53341 0.0
O221 O 0.80613 0.9411 0.55225 0.0
O222 O 0.79126 0.84097 0.50274 0.0
O223 O 0.75872 0.86458 0.4976 0.0
O224 O 0.8925 0.04533 0.18785 0.0
Cd225 Cd 0.86273 0.03961 0.21657 0.0
Cd226 Cd 0.91017 0.03249 0.24928 0.0
O227 O 0.92933 0.04967 0.21598 0.0
O228 O 0.83173 0.05623 0.20339 0.0
O229 O 0.85729 0.07412 0.24177 0.0
C230 C 0.83718 0.07524 0.22485 0.0
C231 C 0.9348 0.03958 0.29227 0.0
C232 C 0.91845 0.05073 0.1923 0.0
C233 C 0.85986 0.98117 0.23611 0.0
O234 O 0.88492 0.99115 0.24427 0.0
O235 O 0.84629 0.99736 0.22549 0.0
O236 O 0.94158 0.02492 0.27138 0.0
O237 O 0.91498 0.05213 0.28847 0.0
O238 O 0.31452 0.67923 0.58068 0.0
Cd239 Cd 0.30001 0.64642 0.54941 0.0
Cd240 Cd 0.28202 0.68936 0.52461 0.0
O241 O 0.29596 0.71157 0.5628 0.0
O242 O 0.31835 0.61466 0.55547 0.0
O243 O 0.32237 0.63775 0.51828 0.0
C244 C 0.32805 0.61763 0.53179 0.0
C245 C 0.28651 0.71724 0.48772 0.0
C246 C 0.30911 0.70413 0.58249 0.0
C247 C 0.24072 0.63429 0.53323 0.0
O248 O 0.24633 0.65724 0.52132 0.0
O249 O 0.2591 0.62678 0.54734 0.0
O250 O 0.26958 0.71983 0.50609 0.0
O251 O 0.30162 0.69902 0.49052 0.0
O252 O 0.39414 0.54883 0.68136 0.0
Cd253 Cd 0.3682 0.54765 0.71378 0.0
Cd254 Cd 0.41007 0.52251 0.73679 0.0
O255 O 0.42924 0.53789 0.70312 0.0
O256 O 0.34197 0.57261 0.70641 0.0
O257 O 0.37276 0.58303 0.74174 0.0
C258 C 0.35282 0.58963 0.72822 0.0
C259 C 0.43547 0.52408 0.77854 0.0
C260 C 0.41861 0.54556 0.68188 0.0
C261 C 0.35243 0.48536 0.72678 0.0
O262 O 0.37782 0.48643 0.73019 0.0
O263 O 0.34418 0.50793 0.72227 0.0
O264 O 0.43854 0.50766 0.75699 0.0
O265 O 0.41888 0.54088 0.77619 0.0
O266 O 0.60776 0.98012 0.6974 0.0
Cd267 Cd 0.63863 0.99478 0.72833 0.0
Cd268 Cd 0.60063 0.0189 0.75355 0.0
O269 O 0.57767 1.0001 0.71825 0.0
O270 O 0.66762 0.97415 0.71974 0.0
O271 O 0.64598 0.97102 0.75804 0.0
C272 C 0.66504 0.96481 0.74348 0.0
C273 C 0.57802 0.01086 0.79313 0.0
C274 C 0.58403 0.98509 0.69785 0.0
C275 C 0.65295 0.0596 0.74341 0.0
O276 O 0.62968 0.05743 0.75303 0.0
O277 O 0.66007 0.03737 0.73267 0.0
O278 O 0.57266 0.02902 0.77712 0.0
O279 O 0.59701 0.99761 0.787 0.0
O280 O 0.78007 0.66863 0.05425 0.0
Cd281 Cd 0.77747 0.64011 0.01858 0.0
Cd282 Cd 0.76362 0.68874 0.99663 0.0
O283 O 0.77689 0.70889 0.03634 0.0
O284 O 0.79767 0.60958 0.02681 0.0
O285 O 0.81014 0.6399 0.99596 0.0
C286 C 0.8144 0.61862 0.00867 0.0
C287 C 0.77003 0.71489 0.95759 0.0
C288 C 0.78009 0.69559 0.05716 0.0
C289 C 0.71955 0.63157 0.99787 0.0
O290 O 0.72623 0.65845 0.99446 0.0
O291 O 0.73769 0.61853 0.00503 0.0
O292 O 0.75291 0.71901 0.97537 0.0
O293 O 0.78483 0.69686 0.9624 0.0
O294 O 0.92114 0.57673 0.72414 0.0
Cd295 Cd 0.8894 0.55862 0.74647 0.0
Cd296 Cd 0.93123 0.54606 0.77833 0.0
O297 O 0.95387 0.56346 0.74742 0.0
O298 O 0.85737 0.5695 0.72932 0.0
O299 O 0.87198 0.58255 0.773 0.0
C300 C 0.85435 0.58236 0.75293 0.0
C301 C 0.94872 0.55788 0.82365 0.0
C302 C 0.94592 0.57522 0.72741 0.0
C303 C 0.88557 0.49618 0.75488 0.0
O304 O 0.90733 0.50442 0.77058 0.0
O305 O 0.87599 0.51433 0.74268 0.0
O306 O 0.95976 0.54287 0.80621 0.0
O307 O 0.9281 0.56738 0.81522 0.0
O308 O 0.75128 0.40747 0.55061 0.0
Cd309 Cd 0.75656 0.4356 0.52103 0.0
Cd310 Cd 0.76105 0.38782 0.48759 0.0
O311 O 0.7488 0.36792 0.52191 0.0
O312 O 0.73917 0.46825 0.53124 0.0
O313 O 0.7257 0.43624 0.4942 0.0
C314 C 0.72292 0.45912 0.50938 0.0
C315 C 0.74573 0.36059 0.44529 0.0
C316 C 0.74754 0.38002 0.54591 0.0
C317 C 0.81045 0.43932 0.49872 0.0
O318 O 0.80047 0.41337 0.48778 0.0
O319 O 0.79595 0.453 0.51277 0.0
O320 O 0.76294 0.35348 0.46187 0.0
O321 O 0.73646 0.38306 0.45297 0.0
O322 O 0.6473 0.50271 0.23538 0.0
Cd323 Cd 0.67492 0.50692 0.26917 0.0
Cd324 Cd 0.63069 0.5243 0.29427 0.0
O325 O 0.61208 0.51457 0.25486 0.0
O326 O 0.7022 0.48497 0.25504 0.0
O327 O 0.67825 0.47325 0.2905 0.0
C328 C 0.696 0.46789 0.27377 0.0
C329 C 0.60504 0.51216 0.33253 0.0
C330 C 0.62339 0.50732 0.23346 0.0
C331 C 0.68456 0.5696 0.29249 0.0
O332 O 0.6598 0.56328 0.29877 0.0
O333 O 0.69567 0.54989 0.28204 0.0
O334 O 0.60143 0.53246 0.31826 0.0
O335 O 0.62304 0.49813 0.32487 0.0
Dy336 Dy 0.98468 0.00636 0.00748 0.0
C337 C 0.10082 0.04119 0.02548 0.0
C338 C 0.9292 0.99954 0.00406 0.0
Dy339 Dy 0.04564 0.03547 0.0258 0.0
O340 O 0.94462 0.00323 0.9836 0.0
O341 O 0.94405 0.99803 0.02591 0.0
O342 O 0.99728 0.98056 0.97154 0.0
O343 O 0.02112 0.02238 0.98689 0.0
C344 C 0.02001 1.00014 0.97005 0.0
C345 C 0.0098 0.0399 0.06405 0.0
O346 O 0.03647 0.07325 0.00728 0.0
O347 O 0.98916 0.05446 1.00293 0.0
O348 O 0.08826 0.04794 0.04693 0.0
O349 O 0.08331 0.03263 0.00436 0.0
O350 O 0.0328 0.05937 0.06357 0.0
O351 O 0.00909 0.0188 0.04612 0.0
O352 O 0.99496 0.96793 0.02489 0.0
O353 O 0.04211 0.98783 0.02925 0.0
C354 C 0.01129 0.07577 1.00116 0.0
C355 C 0.02052 0.96578 0.03009 0.0
Dy356 Dy 0.26346 0.77666 0.22538 0.0
C357 C 0.2863 0.77222 0.3404 0.0
C358 C 0.24769 0.78627 0.17404 0.0
Dy359 Dy 0.27008 0.78152 0.28905 0.0
O360 O 0.26442 0.77007 0.17936 0.0
O361 O 0.2396 0.79689 0.19666 0.0
O362 O 0.29737 0.75324 0.22161 0.0
O363 O 0.29737 0.78285 0.25608 0.0
C364 C 0.3084 0.76329 0.24621 0.0
C365 C 0.2262 0.796 0.26757 0.0
O366 O 0.29542 0.82531 0.28323 0.0
O367 O 0.28043 0.82474 0.23747 0.0
O368 O 0.26686 0.7851 0.33482 0.0
O369 O 0.29689 0.76474 0.31801 0.0
O370 O 0.23804 0.80786 0.29149 0.0
O371 O 0.2364 0.77556 0.25835 0.0
O372 O 0.23829 0.73289 0.23108 0.0
O373 O 0.25182 0.73357 0.2773 0.0
C374 C 0.29341 0.83857 0.26096 0.0
C375 C 0.23939 0.71977 0.25356 0.0
Dy376 Dy 0.55847 0.03291 0.5216 0.0
C377 C 0.44271 0.03902 0.51204 0.0
C378 C 0.6086 0.02028 0.53017 0.0
Dy379 Dy 0.49386 0.0284 0.51892 0.0
O380 O 0.59781 0.03627 0.54742 0.0
O381 O 0.59237 0.01204 0.50801 0.0
O382 O 0.56418 0.06482 0.49011 0.0
O383 O 0.52654 0.03466 0.49105 0.0
C384 C 0.53841 0.0574 0.48136 0.0
C385 C 0.51425 0.00407 0.55923 0.0
O386 O 0.495 0.98809 0.49149 0.0
O387 O 0.538 0.98567 0.50973 0.0
O388 O 0.45042 0.02418 0.53047 0.0
O389 O 0.4628 0.0474 0.49671 0.0
O390 O 0.48863 0.99592 0.55017 0.0
O391 O 0.52586 0.02658 0.5491 0.0
O392 O 0.55768 0.07293 0.54949 0.0
O393 O 0.51254 0.07458 0.53743 0.0
C394 C 0.51443 0.97377 0.4952 0.0
C395 C 0.53727 0.08636 0.54982 0.0
Dy396 Dy 0.24739 0.27264 0.76495 0.0
C397 C 0.36621 0.29603 0.75905 0.0
C398 C 0.19212 0.25582 0.77138 0.0
Dy399 Dy 0.31048 0.28145 0.76233 0.0
O400 O 0.20713 0.2822 0.77575 0.0
O401 O 0.20719 0.23838 0.76266 0.0
O402 O 0.25187 0.32116 0.76369 0.0
O403 O 0.27949 0.30051 0.74494 0.0
C404 C 0.27452 0.32483 0.7515 0.0
C405 C 0.2835 0.22807 0.77086 0.0
O406 O 0.30718 0.30632 0.80344 0.0
O407 O 0.26205 0.28359 0.80926 0.0
O408 O 0.35307 0.27734 0.77421 0.0
O409 O 0.34892 0.30763 0.74639 0.0
O410 O 0.3053 0.2335 0.75734 0.0
O411 O 0.27817 0.25151 0.78105 0.0
O412 O 0.24972 0.24892 0.72302 0.0
O413 O 0.29637 0.26666 0.71797 0.0
C414 C 0.286 0.30068 0.81898 0.0
C415 C 0.27149 0.25171 0.70812 0.0
Dy416 Dy 0.00685 0.03311 0.49818 0.0
C417 C 0.06103 0.06589 0.60791 0.0
C418 C 0.97899 0.02604 0.44784 0.0
Dy419 Dy 0.02794 0.05766 0.56087 0.0
O420 O 1.00346 0.02211 0.45223 0.0
O421 O 0.96929 0.03256 0.47111 0.0
O422 O 0.04963 0.02767 0.491 0.0
O423 O 0.04399 0.06006 0.52044 0.0
C424 C 0.06172 0.04822 0.51023 0.0
C425 C 0.973 0.03723 0.55513 0.0
O426 O 0.02993 0.1004 0.54403 0.0
O427 O 0.00777 0.08082 0.50074 0.0
O428 O 0.04104 0.07865 0.60415 0.0
O429 O 0.06371 0.05008 0.58546 0.0
O430 O 0.98606 0.04998 0.57823 0.0
O431 O 0.99032 0.03748 0.53752 0.0
O432 O 0.99941 0.99138 0.51671 0.0
O433 O 0.02893 0.01013 0.55582 0.0
C434 C 0.01894 0.10323 0.5195 0.0
C435 C 0.01337 0.98797 0.53924 0.0
Dy436 Dy 0.30243 0.79413 0.77724 0.0
C437 C 0.19668 0.76148 0.71922 0.0
C438 C 0.34981 0.80139 0.80942 0.0
Dy439 Dy 0.24373 0.76814 0.75176 0.0
O440 O 0.34782 0.81181 0.7861 0.0
O441 O 0.32568 0.78806 0.8157 0.0
O442 O 0.31458 0.8131 0.73831 0.0
O443 O 0.28434 0.77464 0.73682 0.0
C444 C 0.29614 0.79381 0.72262 0.0
C445 C 0.25031 0.76913 0.80644 0.0
O446 O 0.25994 0.72823 0.74316 0.0
O447 O 0.29962 0.74547 0.772 0.0
O448 O 0.19803 0.75208 0.74312 0.0
O449 O 0.22113 0.77336 0.7127 0.0
O450 O 0.23226 0.74914 0.79097 0.0
O451 O 0.26182 0.78815 0.79199 0.0
O452 O 0.287 0.83479 0.78429 0.0
O453 O 0.24648 0.81657 0.75668 0.0
C454 C 0.2824 0.7241 0.7559 0.0
C455 C 0.26429 0.83833 0.77161 0.0
Dy456 Dy 0.52705 0.03836 0.0591 0.0
C457 C 0.52951 1.00044 0.94264 0.0
C458 C 0.52203 0.05563 0.11265 0.0
Dy459 Dy 0.52229 0.02529 0.99308 0.0
O460 O 0.52728 0.03103 0.10353 0.0
O461 O 0.51941 0.07077 0.09252 0.0
O462 O 0.55293 0.00529 0.05995 0.0
O463 O 0.52236 1.00096 0.02826 0.0
C464 C 0.54154 0.99055 0.03689 0.0
C465 C 0.51401 0.07803 0.01008 0.0
O466 O 0.48015 0.00277 1.00272 0.0
O467 O 0.48182 0.02161 0.04907 0.0
O468 O 0.50938 0.0125 0.94833 0.0
O469 O 0.54544 1.00177 0.96458 0.0
O470 O 0.51349 0.06862 0.98415 0.0
O471 O 0.51977 0.05908 0.02372 0.0
O472 O 0.56565 0.06764 0.04892 0.0
O473 O 0.56703 0.04502 0.00457 0.0
C474 C 0.46827 0.00734 0.02592 0.0
C475 C 0.57848 0.06339 0.02645 0.0
Dy476 Dy 0.27419 0.31553 0.27259 0.0
C477 C 0.25376 0.19221 0.26186 0.0
C478 C 0.27413 0.37302 0.27251 0.0
Dy479 Dy 0.25523 0.24898 0.25644 0.0
O480 O 0.26982 0.35842 0.29354 0.0
O481 O 0.28054 0.3566 0.25236 0.0
O482 O 0.29451 0.30752 0.3124 0.0
O483 O 0.25909 0.27816 0.29412 0.0
C484 C 0.27736 0.28246 0.31354 0.0
C485 C 0.24938 0.2808 0.21564 0.0
O486 O 0.21541 0.25613 0.26935 0.0
O487 O 0.22791 0.30646 0.26956 0.0
O488 O 0.25237 0.20279 0.23849 0.0
O489 O 0.25478 0.21247 0.28191 0.0
O490 O 0.23457 0.25437 0.2161 0.0
O491 O 0.26839 0.28654 0.23456 0.0
O492 O 0.31383 0.30867 0.25785 0.0
O493 O 0.30127 0.25816 0.25654 0.0
C494 C 0.20935 0.28191 0.27156 0.0
C495 C 0.3197 0.28278 0.25459 0.0
Dy496 Dy 0.51334 0.51672 0.98297 0.0
C497 C 0.55483 0.54346 0.09505 0.0
C498 C 0.48554 0.51003 0.93251 0.0
Dy499 Dy 0.52914 0.53798 0.04371 0.0
O500 O 0.5104 0.50704 0.93669 0.0
O501 O 0.4757 0.51546 0.95591 0.0
O502 O 0.55585 0.51143 0.97696 0.0
O503 O 0.54996 0.54468 0.00589 0.0
C504 C 0.5675 0.53202 0.99623 0.0
C505 C 0.47489 0.52118 0.03013 0.0
O506 O 0.53469 0.58189 0.0286 0.0
O507 O 0.50994 0.56354 0.987 0.0
O508 O 0.53286 0.55236 0.08934 0.0
O509 O 0.56339 0.53302 0.07254 0.0
O510 O 0.48571 0.54123 0.05016 0.0
O511 O 0.49327 0.50995 0.02063 0.0
O512 O 0.50953 0.47262 0.99727 0.0
O513 O 0.53103 0.49075 0.04056 0.0
C514 C 0.5219 0.58579 0.00549 0.0
C515 C 0.5205 0.46872 0.02134 0.0
Dy516 Dy 0.79311 0.28404 0.27096 0.0
C517 C 0.68622 0.24075 0.21625 0.0
C518 C 0.84026 0.29756 0.30401 0.0
Dy519 Dy 0.7341 0.25321 0.2484 0.0
O520 O 0.83586 0.31129 0.28322 0.0
O521 O 0.81883 0.27715 0.30691 0.0
O522 O 0.80603 0.28991 0.22757 0.0
O523 O 0.77446 0.25573 0.23488 0.0
C524 C 0.7865 0.26833 0.21622 0.0
C525 C 0.74159 0.26512 0.303 0.0
O526 O 0.75148 0.21344 0.24831 0.0
O527 O 0.78984 0.23673 0.27732 0.0
O528 O 0.6882 0.23829 0.24238 0.0
O529 O 0.71051 0.2485 0.2075 0.0
O530 O 0.72373 0.2425 0.2908 0.0
O531 O 0.75248 0.28094 0.28554 0.0
O532 O 0.77502 0.32311 0.27266 0.0
O533 O 0.73816 0.30067 0.2417 0.0
C534 C 0.77364 0.21262 0.26393 0.0
C535 C 0.75401 0.32443 0.25589 0.0
Dy536 Dy 0.02742 0.54635 0.53945 0.0
C537 C 0.02577 0.53052 0.4218 0.0
C538 C 0.02291 0.56058 0.59393 0.0
Dy539 Dy 0.02048 0.54485 0.47605 0.0
O540 O 0.03501 0.54081 0.58405 0.0
O541 O 0.01331 0.57228 0.57409 0.0
O542 O 0.04314 0.50555 0.53463 0.0
O543 O 0.01476 0.5127 0.50505 0.0
C544 C 0.03029 0.49652 0.5106 0.0
C545 C 0.01724 0.59445 0.50519 0.0
O546 O 0.97769 0.52305 0.48347 0.0
O547 O 0.98153 0.53666 0.53072 0.0
O548 O 0.01439 0.551 0.4315 0.0
O549 O 0.03386 0.51774 0.4417 0.0
O550 O 0.00417 0.58548 0.48121 0.0
O551 O 0.03283 0.57824 0.51048 0.0
O552 O 0.07041 0.56718 0.53208 0.0
O553 O 0.06632 0.5556 0.48452 0.0
C554 C 0.96662 0.52596 0.50729 0.0
C555 C 0.08128 0.56517 0.50808 0.0
Dy556 Dy 0.74208 0.77197 0.27003 0.0
C557 C 0.85679 0.79637 0.256 0.0
C558 C 0.68919 0.75616 0.284 0.0
Dy559 Dy 0.80372 0.78091 0.26953 0.0
O560 O 0.69738 0.77234 0.26475 0.0
O561 O 0.70977 0.74823 0.29508 0.0
O562 O 0.74305 0.80983 0.24601 0.0
O563 O 0.7765 0.81037 0.27349 0.0
C564 C 0.76783 0.82339 0.25503 0.0
C565 C 0.77776 0.72901 0.28391 0.0
O566 O 0.80279 0.80182 0.31246 0.0
O567 O 0.75592 0.78506 0.31499 0.0
O568 O 0.84703 0.77592 0.271 0.0
O569 O 0.83767 0.80898 0.24895 0.0
O570 O 0.8027 0.74221 0.2927 0.0
O571 O 0.76925 0.74262 0.26591 0.0
O572 O 0.74415 0.74731 0.22877 0.0
O573 O 0.7898 0.76886 0.22454 0.0
C574 C 0.7807 0.7976 0.32675 0.0
C575 C 0.76561 0.75323 0.21368 0.0
Dy576 Dy 0.7794 0.2768 0.72207 0.0
C577 C 0.79444 0.26216 0.83821 0.0
C578 C 0.77732 0.29832 0.67299 0.0
Dy579 Dy 0.77966 0.27282 0.78722 0.0
O580 O 0.79882 0.30324 0.69002 0.0
O581 O 0.75698 0.28031 0.68213 0.0
O582 O 0.80926 0.24749 0.71928 0.0
O583 O 0.8084 0.27446 0.75538 0.0
C584 C 0.81862 0.25457 0.7449 0.0
C585 C 0.73437 0.28775 0.76757 0.0
O586 O 0.80754 0.31644 0.78539 0.0
O587 O 0.79153 0.32286 0.74173 0.0
O588 O 0.78698 0.2855 0.83257 0.0
O589 O 0.7936 0.24447 0.81597 0.0
O590 O 0.73853 0.28409 0.79324 0.0
O591 O 0.7545 0.28308 0.75536 0.0
O592 O 0.747 0.23635 0.72358 0.0
O593 O 0.75989 0.22742 0.76785 0.0
C594 C 0.80585 0.33299 0.76549 0.0
C595 C 0.74548 0.2195 0.74373 0.0
Dy596 Dy 0.77806 0.81803 0.77565 0.0
C597 C 0.76712 0.69608 0.78172 0.0
C598 C 0.77384 0.87369 0.77261 0.0
Dy599 Dy 0.76264 0.74846 0.76738 0.0
O600 O 0.76936 0.85973 0.79401 0.0
O601 O 0.78229 0.85771 0.75342 0.0
O602 O 0.80446 0.81624 0.81394 0.0
O603 O 0.76947 0.78304 0.80136 0.0
C604 C 0.78987 0.79085 0.81856 0.0
C605 C 0.75766 0.77085 0.71902 0.0
O606 O 0.72407 0.7557 0.78405 0.0
O607 O 0.73197 0.80518 0.77814 0.0
O608 O 0.75002 0.69947 0.76216 0.0
O609 O 0.78112 0.7212 0.79336 0.0
O610 O 0.7527 0.74294 0.72091 0.0
O611 O 0.76405 0.7836 0.74296 0.0
O612 O 0.8151 0.81029 0.75532 0.0
O613 O 0.80779 0.76122 0.76215 0.0
C614 C 0.71613 0.78052 0.78472 0.0
C615 C 0.82317 0.78554 0.7547 0.0
Dy616 Dy 0.4863 0.51947 0.50605 0.0
C617 C 0.60347 0.54107 0.50834 0.0
C618 C 0.43191 0.51822 0.5055 0.0
Dy619 Dy 0.5514 0.54294 0.51865 0.0
O620 O 0.44581 0.50996 0.52491 0.0
O621 O 0.44752 0.52557 0.48578 0.0
O622 O 0.49435 0.49217 0.46812 0.0
O623 O 0.52212 0.53101 0.48297 0.0
C624 C 0.5184 0.50896 0.46549 0.0
C625 C 0.52401 0.54929 0.56404 0.0
O626 O 0.54191 0.58194 0.50202 0.0
O627 O 0.49446 0.56807 0.5053 0.0
O628 O 0.59706 0.56093 0.52547 0.0
O629 O 0.58147 0.52319 0.49657 0.0
O630 O 0.55068 0.55717 0.56437 0.0
O631 O 0.51507 0.53915 0.53988 0.0
O632 O 0.49491 0.48364 0.52865 0.0
O633 O 0.54249 0.49601 0.52697 0.0
C634 C 0.51709 0.58731 0.50046 0.0
C635 C 0.51942 0.47822 0.53277 0.0
Dy636 Dy 0.04782 0.52079 0.00348 0.0
C637 C 0.93509 0.53405 1.00147 0.0
C638 C 0.09759 0.50687 0.00905 0.0
Dy639 Dy 0.98468 0.51905 0.00547 0.0
O640 O 0.08289 0.50458 0.98609 0.0
O641 O 0.08551 0.51776 0.02896 0.0
O642 O 0.05211 0.5514 0.97147 0.0
O643 O 0.01419 0.52171 0.97392 0.0
C644 C 0.02633 0.54353 0.96273 0.0
C645 C 0.0069 0.49678 0.04619 0.0
O646 O 0.98224 0.47744 0.97832 0.0
O647 O 0.02627 0.47378 0.9917 0.0
O648 O 0.93985 0.51232 0.01345 0.0
O649 O 0.95725 0.54702 0.99099 0.0
O650 O 0.98073 0.48972 0.03947 0.0
O651 O 0.01823 0.51798 0.03411 0.0
O652 O 0.05178 0.56463 0.02705 0.0
O653 O 0.00542 0.56499 0.02265 0.0
C654 C 1.00146 0.46241 0.97945 0.0
C655 C 0.03143 0.57791 0.03032 0.0
H656 H 0.01782 0.19494 0.95157 0.0
H657 H 0.9674 0.13619 0.8865 0.0
H658 H 0.966 0.09535 0.91345 0.0
H659 H 0.98072 0.07582 0.95462 0.0
H660 H 0.03587 0.13302 0.01721 0.0
H661 H 0.03371 0.17497 0.99248 0.0
C662 C 0.00643 0.1732 0.94343 0.0
C663 C 0.99263 0.16858 0.91713 0.0
C664 C 0.00653 0.14957 0.95868 0.0
C665 C 0.97827 0.14025 0.90663 0.0
C666 C 0.97739 0.11691 0.92207 0.0
C667 C 0.99188 0.09758 0.96303 0.0
C668 C 0.00799 0.10152 0.98793 0.0
C669 C 0.9916 0.12125 0.94802 0.0
C670 C 0.02307 0.12961 0.99823 0.0
C671 C 0.02192 0.15352 0.98402 0.0
H672 H 0.14031 0.82896 0.1871 0.0
H673 H 0.08748 0.75709 0.2202 0.0
H674 H 0.12493 0.75313 0.25144 0.0
H675 H 0.17367 0.76723 0.26703 0.0
H676 H 0.22661 0.84023 0.23647 0.0
H677 H 0.18836 0.84672 0.20671 0.0
C678 C 0.13697 0.81265 0.20135 0.0
C679 C 0.11112 0.7932 0.20102 0.0
C680 C 0.15867 0.81062 0.2197 0.0
C681 C 0.10709 0.77237 0.21986 0.0
C682 C 0.12855 0.76997 0.23777 0.0
C683 C 0.17654 0.78493 0.25427 0.0
C684 C 0.2026 0.80327 0.25378 0.0
C685 C 0.1545 0.7886 0.23755 0.0
C686 C 0.20647 0.82605 0.23717 0.0
C687 C 0.18468 0.82961 0.22008 0.0
H688 H 0.52315 0.84698 0.45406 0.0
H689 H 0.47688 0.86303 0.38336 0.0
H690 H 0.4738 0.90978 0.40687 0.0
H691 H 0.48667 0.94769 0.44665 0.0
H692 H 0.53453 0.93192 0.51625 0.0
H693 H 0.5342 0.88352 0.49424 0.0
C694 C 0.51226 0.86059 0.44381 0.0
C695 C 0.50047 0.8515 0.4169 0.0
C696 C 0.51077 0.8876 0.45731 0.0
C697 C 0.48637 0.8695 0.40401 0.0
C698 C 0.48452 0.89627 0.41745 0.0
C699 C 0.49658 0.9334 0.45711 0.0
C700 C 0.51064 0.94333 0.48295 0.0
C701 C 0.49693 0.90574 0.444 0.0
C702 C 0.52371 0.92479 0.49622 0.0
C703 C 0.52359 0.89712 0.48365 0.0
H704 H 0.48385 0.27923 0.73654 0.0
H705 H 0.47438 0.3322 0.67198 0.0
H706 H 0.43091 0.3384 0.68889 0.0
H707 H 0.39372 0.32547 0.71993 0.0
H708 H 0.40333 0.27185 0.78388 0.0
H709 H 0.44866 0.26956 0.76956 0.0
C710 C 0.47242 0.29234 0.72627 0.0
C711 C 0.4823 0.30499 0.70284 0.0
C712 C 0.44738 0.29569 0.73602 0.0
C713 C 0.46726 0.32211 0.68998 0.0
C714 C 0.44234 0.32563 0.69962 0.0
C715 C 0.40597 0.31372 0.731 0.0
C716 C 0.39515 0.29877 0.75289 0.0
C717 C 0.43194 0.31209 0.72234 0.0
C718 C 0.41119 0.28353 0.76696 0.0
C719 C 0.43707 0.28209 0.7587 0.0
H720 H 0.98302 0.86047 0.57385 0.0
H721 H 0.06856 0.88438 0.6017 0.0
H722 H 0.07311 0.93245 0.58601 0.0
H723 H 0.05274 0.9676 0.56436 0.0
H724 H 0.96836 0.94246 0.53231 0.0
H725 H 0.96331 0.8948 0.54921 0.0
C726 C 1.00254 0.87637 0.57654 0.0
C727 C 0.02536 0.8693 0.58918 0.0
C728 C 0.00522 0.90352 0.56647 0.0
C729 C 0.05075 0.88961 0.59212 0.0
C730 C 0.05335 0.917 0.58313 0.0
C731 C 0.03331 0.95159 0.56097 0.0
C732 C 0.01095 0.95842 0.54721 0.0
C733 C 0.03076 0.92416 0.57023 0.0
C734 C 0.98592 0.9375 0.54267 0.0
C735 C 0.98298 0.91037 0.55249 0.0
H736 H 0.45 0.77883 0.87909 0.0
H737 H 0.49364 0.82242 0.81566 0.0
H738 H 0.45073 0.82778 0.79407 0.0
H739 H 0.40091 0.821 0.79356 0.0
H740 H 0.3569 0.77803 0.85701 0.0
H741 H 0.3998 0.77194 0.8785 0.0
C742 C 0.45003 0.78913 0.86034 0.0
C743 C 0.47495 0.80003 0.8489 0.0
C744 C 0.42527 0.79271 0.8483 0.0
C745 C 0.47473 0.81376 0.82484 0.0
C746 C 0.45021 0.81698 0.81254 0.0
C747 C 0.40076 0.81054 0.81223 0.0
C748 C 0.37586 0.80017 0.82381 0.0
C749 C 0.42541 0.80683 0.82424 0.0
C750 C 0.37589 0.7864 0.84785 0.0
C751 C 0.40038 0.78275 0.86003 0.0
H752 H 0.49831 0.20408 0.04339 0.0
H753 H 0.46373 0.16319 0.11264 0.0
H754 H 0.46971 0.11633 0.0921 0.0
H755 H 0.48874 0.08783 0.05644 0.0
H756 H 0.52301 0.12865 0.98734 0.0
H757 H 0.51327 0.17471 0.00585 0.0
C758 C 0.4916 0.18486 0.05382 0.0
C759 C 0.48084 0.18735 0.0797 0.0
C760 C 0.4956 0.15806 0.04217 0.0
C761 C 0.4721 0.16205 0.09273 0.0
C762 C 0.47577 0.13523 0.08113 0.0
C763 C 0.49433 0.10696 0.04571 0.0
C764 C 0.50731 0.1053 0.02109 0.0
C765 C 0.48832 0.13319 0.05632 0.0
C766 C 0.51334 0.1297 0.00656 0.0
C767 C 0.50773 0.15595 0.0171 0.0
H768 H 0.10869 0.30772 0.33221 0.0
H769 H 0.0795 0.21473 0.31201 0.0
H770 H 0.11922 0.21332 0.28588 0.0
H771 H 0.16416 0.23766 0.27216 0.0
H772 H 0.19339 0.33076 0.29161 0.0
H773 H 0.15158 0.33296 0.31405 0.0
C774 C 0.11093 0.28721 0.32188 0.0
C775 C 0.09133 0.26134 0.32437 0.0
C776 C 0.13385 0.28653 0.30671 0.0
C777 C 0.09433 0.23498 0.31056 0.0
C778 C 0.11709 0.23411 0.29562 0.0
C779 C 0.16125 0.25851 0.28095 0.0
C780 C 0.18207 0.2839 0.28046 0.0
C781 C 0.13725 0.25964 0.29404 0.0
C782 C 0.17776 0.31079 0.29169 0.0
C783 C 0.1539 0.31208 0.30473 0.0
H784 H 0.91626 0.01388 0.14636 0.0
H785 H 0.96146 0.09664 0.18738 0.0
H786 H 0.99312 0.10182 0.15055 0.0
H787 H 0.00894 0.08154 0.10712 0.0
H788 H 0.96727 0.9951 0.07112 0.0
H789 H 0.93328 0.99268 0.10495 0.0
C790 C 0.93283 0.03322 0.14695 0.0
C791 C 0.93627 0.05513 0.16916 0.0
C792 C 0.95163 0.03533 0.12645 0.0
C793 C 0.95828 0.07968 0.17024 0.0
C794 C 0.97642 0.08256 0.14925 0.0
C795 C 0.99232 0.06229 0.10666 0.0
C796 C 0.99002 0.03903 0.08576 0.0
C797 C 0.9735 0.06035 0.12733 0.0
C798 C 0.96879 0.01391 0.08599 0.0
C799 C 0.9495 0.01231 0.10565 0.0
H800 H 0.31667 0.71391 0.44323 0.0
H801 H 0.25725 0.75703 0.4778 0.0
H802 H 0.25365 0.77985 0.43597 0.0
H803 H 0.2643 0.78432 0.38814 0.0
H804 H 0.32318 0.74098 0.35303 0.0
H805 H 0.33028 0.72177 0.3965 0.0
C806 C 0.3032 0.72857 0.44172 0.0
C807 C 0.28705 0.73347 0.46349 0.0
C808 C 0.301 0.74149 0.41743 0.0
C809 C 0.26977 0.75266 0.46127 0.0
C810 C 0.26765 0.76573 0.43732 0.0
C811 C 0.27893 0.77097 0.39016 0.0
C812 C 0.29301 0.76382 0.36748 0.0
C813 C 0.28268 0.75979 0.41507 0.0
C814 C 0.31201 0.74664 0.37028 0.0
C815 C 0.31602 0.73559 0.39508 0.0
H816 H 0.59648 0.97666 0.64511 0.0
H817 H 0.52864 0.97725 0.69556 0.0
H818 H 0.49882 0.97778 0.65501 0.0
H819 H 0.49464 0.98755 0.60684 0.0
H820 H 0.56352 0.99084 0.55761 0.0
H821 H 0.59037 0.97923 0.59573 0.0
C822 C 0.57497 0.97599 0.6471 0.0
C823 C 0.56484 0.97737 0.67321 0.0
C824 C 0.55831 0.97767 0.62393 0.0
C825 C 0.53695 0.97657 0.67558 0.0
C826 C 0.51992 0.97702 0.65246 0.0
C827 C 0.51528 0.98495 0.60441 0.0
C828 C 0.52759 0.99084 0.57996 0.0
C829 C 0.53074 0.97906 0.62675 0.0
C830 C 0.55421 0.98743 0.57673 0.0
C831 C 0.56943 0.98056 0.59844 0.0
H832 H 0.31561 0.34639 0.94521 0.0
H833 H 0.22888 0.34149 0.94218 0.0
H834 H 0.22473 0.324 0.89313 0.0
H835 H 0.2457 0.30999 0.85115 0.0
H836 H 0.33293 0.3181 0.85321 0.0
H837 H 0.33702 0.33474 0.90249 0.0
C838 C 0.29578 0.34132 0.93382 0.0
C839 C 0.27249 0.34488 0.94742 0.0
C840 C 0.2937 0.33206 0.90542 0.0
C841 C 0.24706 0.33881 0.93226 0.0
C842 C 0.2447 0.32884 0.9042 0.0
C843 C 0.26565 0.31542 0.86235 0.0
C844 C 0.28898 0.31258 0.84849 0.0
C845 C 0.26787 0.32538 0.89057 0.0
C846 C 0.31468 0.32013 0.8633 0.0
C847 C 0.31699 0.32952 0.89152 0.0
H848 H 0.91344 0.04709 0.34175 0.0
H849 H 0.98491 0.03006 0.30452 0.0
H850 H 0.00448 0.02337 0.3492 0.0
H851 H 1.00084 0.02105 0.39869 0.0
H852 H 0.9291 0.03692 0.4361 0.0
H853 H 0.90987 0.04487 0.39156 0.0
C854 C 0.93348 0.04238 0.34353 0.0
C855 C 0.94781 0.03933 0.31989 0.0
C856 C 0.94433 0.03781 0.36925 0.0
C857 C 0.97353 0.03265 0.32243 0.0
C858 C 0.98467 0.02866 0.34795 0.0
C859 C 0.98089 0.026 0.39703 0.0
C860 C 0.96632 0.02819 0.42057 0.0
C861 C 0.97011 0.0308 0.37143 0.0
C862 C 0.94061 0.03489 0.41819 0.0
C863 C 0.92969 0.03963 0.39277 0.0
H864 H 0.29117 0.75292 0.59698 0.0
H865 H 0.33963 0.69729 0.62775 0.0
H866 H 0.34229 0.72295 0.67376 0.0
H867 H 0.32623 0.75704 0.70606 0.0
H868 H 0.27587 0.81092 0.6763 0.0
H869 H 0.27864 0.79024 0.62881 0.0
C870 C 0.30278 0.74676 0.61361 0.0
C871 C 0.31494 0.72299 0.60896 0.0
C872 C 0.30366 0.76114 0.64016 0.0
C873 C 0.32991 0.71534 0.63078 0.0
C874 C 0.33138 0.72993 0.65712 0.0
C875 C 0.3164 0.76461 0.689 0.0
C876 C 0.30101 0.78539 0.6942 0.0
C877 C 0.31763 0.75221 0.66215 0.0
C878 C 0.28799 0.79503 0.67239 0.0
C879 C 0.28948 0.78312 0.64541 0.0
H880 H 0.5902 0.98298 0.83622 0.0
H881 H 0.53165 0.02778 0.80543 0.0
H882 H 0.50855 0.02404 0.84787 0.0
H883 H 0.50808 0.01315 0.89546 0.0
H884 H 0.5682 0.97143 0.92783 0.0
H885 H 0.58717 0.96815 0.88289 0.0
C886 C 0.5722 0.9916 0.83872 0.0
C887 C 0.5629 0.00601 0.81792 0.0
C888 C 0.55928 0.9899 0.86345 0.0
C889 C 0.53948 0.01697 0.82133 0.0
C890 C 0.52617 0.01477 0.84556 0.0
C891 C 0.52493 0.00275 0.89247 0.0
C892 C 0.53693 0.99277 0.91477 0.0
C893 C 0.53633 1.002 0.867 0.0
C894 C 0.5588 0.97942 0.91082 0.0
C895 C 0.56973 0.9777 0.88523 0.0
H896 H 0.24953 0.37312 0.13148 0.0
H897 H 0.26822 0.30467 0.07649 0.0
H898 H 0.26449 0.27338 0.11344 0.0
H899 H 0.25748 0.26588 0.16217 0.0
H900 H 0.23957 0.33459 0.21695 0.0
H901 H 0.24134 0.3652 0.17947 0.0
C902 C 0.25264 0.3513 0.12743 0.0
C903 C 0.25918 0.34141 0.10104 0.0
C904 C 0.25077 0.33346 0.14891 0.0
C905 C 0.2632 0.31302 0.09647 0.0
C906 C 0.26109 0.29505 0.11765 0.0
C907 C 0.25384 0.28752 0.16574 0.0
C908 C 0.24885 0.29825 0.19234 0.0
C909 C 0.25511 0.30509 0.14404 0.0
C910 C 0.24416 0.32625 0.19682 0.0
C911 C 0.245 0.34366 0.17534 0.0
H912 H 0.2094 0.00343 0.05296 0.0
H913 H 0.19081 0.96216 0.96956 0.0
H914 H 0.1536 0.98664 0.96397 0.0
H915 H 0.12341 0.0153 0.98429 0.0
H916 H 0.1396 0.05362 0.06868 0.0
H917 H 0.18114 0.0353 0.07223 0.0
C918 C 0.19746 1.0001 0.03343 0.0
C919 C 0.20273 0.98078 0.01177 0.0
C920 C 0.17569 0.01371 0.03057 0.0
C921 C 0.18706 0.97671 0.98662 0.0
C922 C 0.16578 0.99071 0.9834 0.0
C923 C 0.13634 0.02017 0.0033 0.0
C924 C 0.12848 0.0357 0.02624 0.0
C925 C 0.15949 0.00864 0.00545 0.0
C926 C 0.14531 0.04174 0.05076 0.0
C927 C 0.16892 0.03109 0.05282 0.0
H928 H 0.69618 0.57287 0.99371 0.0
H929 H 0.67632 0.65683 0.99956 0.0
H930 H 0.62808 0.63366 1.00152 0.0
H931 H 0.59124 0.58972 1.00195 0.0
H932 H 0.60968 0.50534 0.99214 0.0
H933 H 0.65863 0.52837 0.9917 0.0
C934 C 0.68126 0.58605 0.99524 0.0
C935 C 0.69001 0.61659 0.99649 0.0
C936 C 0.65327 0.57251 0.99597 0.0
C937 C 0.6703 0.6333 0.99835 0.0
C938 C 0.64264 0.62009 0.99967 0.0
C939 C 0.60604 0.57642 0.99999 0.0
C940 C 0.59706 0.54593 0.99753 0.0
C941 C 0.6339 0.58977 0.99868 0.0
C942 C 0.61628 0.52888 0.99431 0.0
C943 C 0.6442 0.54205 0.99395 0.0
H944 H 0.71061 0.43466 0.23149 0.0
H945 H 0.70862 0.4439 0.3196 0.0
H946 H 0.72898 0.402 0.32212 0.0
H947 H 0.74623 0.3617 0.29895 0.0
H948 H 0.74237 0.34888 0.21054 0.0
H949 H 0.72578 0.39324 0.20831 0.0
C950 C 0.71479 0.42757 0.25124 0.0
C951 C 0.70835 0.44252 0.27536 0.0
C952 C 0.72555 0.40282 0.25241 0.0
C953 C 0.71339 0.43277 0.30077 0.0
C954 C 0.72509 0.40884 0.3022 0.0
C955 C 0.74198 0.36884 0.27925 0.0
C956 C 0.74589 0.35236 0.25491 0.0
C957 C 0.73115 0.3936 0.27814 0.0
C958 C 0.73974 0.36142 0.2295 0.0
C959 C 0.73018 0.3867 0.22824 0.0
H960 H 0.8425 0.48564 0.53077 0.0
H961 H 0.84317 0.42438 0.45975 0.0
H962 H 0.89132 0.44704 0.45522 0.0
H963 H 0.93348 0.48319 0.47232 0.0
H964 H 0.93355 0.54248 0.54498 0.0
H965 H 0.8847 0.52169 0.54795 0.0
C966 C 0.85313 0.47738 0.51419 0.0
C967 C 0.83932 0.45344 0.49559 0.0
C968 C 0.88089 0.49012 0.51204 0.0
C969 C 0.85342 0.44274 0.47439 0.0
C970 C 0.88091 0.4557 0.47176 0.0
C971 C 0.92272 0.49176 0.48862 0.0
C972 C 0.93696 0.51439 0.50832 0.0
C973 C 0.89487 0.47927 0.49057 0.0
C974 C 0.92294 0.52499 0.52962 0.0
C975 C 0.89506 0.51314 0.53132 0.0
H976 H 0.3227 0.10799 0.29835 0.0
H977 H 0.32415 0.09025 0.2105 0.0
H978 H 0.29037 0.11868 0.20342 0.0
H979 H 0.26525 0.15382 0.22222 0.0
H980 H 0.26396 0.17184 0.31002 0.0
H981 H 0.29206 0.13735 0.3171 0.0
C982 C 0.31538 0.11014 0.27769 0.0
C983 C 0.32626 0.09759 0.25501 0.0
C984 C 0.29586 0.12643 0.27375 0.0
C985 C 0.31624 0.09998 0.22832 0.0
C986 C 0.29692 0.11622 0.22423 0.0
C987 C 0.27044 0.1495 0.24285 0.0
C988 C 0.26294 0.16555 0.26554 0.0
C989 C 0.28719 0.13023 0.24678 0.0
C990 C 0.26967 0.15978 0.29221 0.0
C991 C 0.28597 0.14029 0.29629 0.0
H992 H 0.32968 0.07096 0.53144 0.0
H993 H 0.35745 0.13005 0.4718 0.0
H994 H 0.39831 0.11082 0.46704 0.0
H995 H 0.42729 0.07843 0.48141 0.0
H996 H 0.39924 0.02018 0.54164 0.0
H997 H 0.35741 0.03764 0.54437 0.0
C998 C 0.34458 0.07961 0.51729 0.0
C999 C 0.34046 0.10206 0.5021 0.0
C1000 C 0.36807 0.06852 0.51474 0.0
C1001 C 0.36004 0.11283 0.48381 0.0
C1002 C 0.38346 0.10184 0.48108 0.0
C1003 C 0.41184 0.06936 0.49487 0.0
C1004 C 0.41638 0.048 0.51129 0.0
C1005 C 0.38784 0.07983 0.49663 0.0
C1006 C 0.39627 0.0366 0.52878 0.0
C1007 C 0.37235 0.04665 0.53042 0.0
H1008 H 0.73942 0.59589 0.30211 0.0
H1009 H 0.66065 0.6132 0.28277 0.0
H1010 H 0.68241 0.66359 0.27764 0.0
H1011 H 0.72392 0.70225 0.27624 0.0
H1012 H 0.80239 0.68775 0.30105 0.0
H1013 H 0.78091 0.63686 0.30606 0.0
C1014 C 0.7271 0.61084 0.29708 0.0
C1015 C 0.69848 0.60076 0.29278 0.0
C1016 C 0.73972 0.64024 0.29484 0.0
C1017 C 0.6827 0.62042 0.28643 0.0
C1018 C 0.69513 0.64924 0.28328 0.0
C1019 C 0.73623 0.68811 0.2832 0.0
C1020 C 0.76462 0.69872 0.28828 0.0
C1021 C 0.72361 0.65931 0.28712 0.0
C1022 C 0.78042 0.68006 0.29705 0.0
C1023 C 0.76815 0.65095 0.2999 0.0
H1024 H 0.88692 0.45676 0.79085 0.0
H1025 H 0.84878 0.46766 0.71319 0.0
H1026 H 0.82017 0.41825 0.71021 0.0
H1027 H 0.80562 0.37271 0.72982 0.0
H1028 H 0.84274 0.36143 0.80793 0.0
H1029 H 0.8719 0.41071 0.8108 0.0
C1030 C 0.87255 0.44816 0.77316 0.0
C1031 C 0.87001 0.46566 0.7522 0.0
C1032 C 0.85577 0.41998 0.77185 0.0
C1033 C 0.85106 0.45451 0.72957 0.0
C1034 C 0.83466 0.42635 0.72788 0.0
C1035 C 0.81998 0.38096 0.74759 0.0
C1036 C 0.82199 0.3634 0.76863 0.0
C1037 C 0.8367 0.40905 0.74901 0.0
C1038 C 0.8407 0.37455 0.79149 0.0
C1039 C 0.85748 0.40264 0.79308 0.0
H1040 H 0.07148 0.8657 0.06737 0.0
H1041 H 1.00062 0.85127 0.11496 0.0
H1042 H 0.98418 0.88903 0.09357 0.0
H1043 H 0.9913 0.92826 0.06289 0.0
H1044 H 0.06336 0.94317 0.01707 0.0
H1045 H 0.07765 0.90296 0.0358 0.0
C1046 C 0.05239 0.87071 0.07306 0.0
C1047 C 0.03745 0.85574 0.09291 0.0
C1048 C 0.04314 0.89252 0.0608 0.0
C1049 C 0.01266 0.86252 0.09986 0.0
C1050 C 1.00319 0.8841 0.08758 0.0
C1051 C 0.00981 0.92225 0.05665 0.0
C1052 C 0.0262 0.93859 0.03854 0.0
C1053 C 0.01838 0.89946 0.06816 0.0
C1054 C 0.05041 0.93093 0.03099 0.0
C1055 C 0.05866 0.90801 0.04177 0.0
H1056 H 0.92469 0.21548 0.78581 0.0
H1057 H 0.9116 0.26683 0.85961 0.0
H1058 H 0.87079 0.27569 0.83744 0.0
H1059 H 0.83998 0.27142 0.79685 0.0
H1060 H 0.85027 0.21905 0.72299 0.0
H1061 H 0.89101 0.20834 0.74525 0.0
C1062 C 0.91285 0.22851 0.79703 0.0
C1063 C 0.92156 0.24059 0.82437 0.0
C1064 C 0.88893 0.23355 0.78412 0.0
C1065 C 0.9057 0.25725 0.83859 0.0
C1066 C 0.88225 0.26245 0.82592 0.0
C1067 C 0.85079 0.25721 0.78571 0.0
C1068 C 0.84202 0.24592 0.75837 0.0
C1069 C 0.87385 0.251 0.79868 0.0
C1070 C 0.85658 0.22794 0.74412 0.0
C1071 C 0.8799 0.22188 0.75684 0.0
H1072 H 0.56219 0.20113 0.63294 0.0
H1073 H 0.51402 0.22813 0.57016 0.0
H1074 H 0.50743 0.18038 0.54311 0.0
H1075 H 0.51588 0.13113 0.53734 0.0
H1076 H 0.56818 0.10619 0.59791 0.0
H1077 H 0.57301 0.15305 0.62579 0.0
C1078 C 0.55007 0.19635 0.61343 0.0
C1079 C 0.53815 0.21768 0.60364 0.0
C1080 C 0.5474 0.1694 0.59758 0.0
C1081 C 0.52312 0.21177 0.57807 0.0
C1082 C 0.51943 0.18458 0.56264 0.0
C1083 C 0.52835 0.13605 0.55664 0.0
C1084 C 0.54155 0.11529 0.56571 0.0
C1085 C 0.53156 0.16327 0.57217 0.0
C1086 C 0.55796 0.12195 0.5905 0.0
C1087 C 0.5606 0.14864 0.60649 0.0
H1088 H 0.58744 0.74111 0.35507 0.0
H1089 H 0.55979 0.78921 0.29396 0.0
H1090 H 0.60039 0.78771 0.26881 0.0
H1091 H 0.64548 0.77573 0.26615 0.0
H1092 H 0.67232 0.72704 0.3272 0.0
H1093 H 0.63015 0.72546 0.35022 0.0
C1094 C 0.59022 0.75117 0.33618 0.0
C1095 C 0.57082 0.76558 0.32659 0.0
C1096 C 0.61346 0.75008 0.3218 0.0
C1097 C 0.57448 0.77806 0.30183 0.0
C1098 C 0.59771 0.77726 0.28747 0.0
C1099 C 0.64185 0.76442 0.28425 0.0
C1100 C 0.66201 0.75173 0.29512 0.0
C1101 C 0.61757 0.76374 0.29751 0.0
C1102 C 0.65711 0.73707 0.31852 0.0
C1103 C 0.63306 0.73625 0.33176 0.0
H1104 H 0.01979 0.22675 0.48205 0.0
H1105 H 0.04903 0.18615 0.41033 0.0
H1106 H 0.04947 0.14354 0.4334 0.0
H1107 H 0.03866 0.11614 0.47205 0.0
H1108 H 0.00963 0.15451 0.54458 0.0
H1109 H 0.01243 0.19991 0.52332 0.0
C1110 C 0.02647 0.20868 0.47161 0.0
C1111 C 0.03399 0.20963 0.44428 0.0
C1112 C 0.02667 0.18385 0.48507 0.0
C1113 C 0.04282 0.18606 0.43117 0.0
C1114 C 0.04313 0.16158 0.44435 0.0
C1115 C 0.03307 0.13454 0.48329 0.0
C1116 C 0.02355 0.13205 0.50954 0.0
C1117 C 0.0346 0.16004 0.47098 0.0
C1118 C 0.01695 0.15608 0.52424 0.0
C1119 C 0.01841 0.18186 0.51201 0.0
H1120 H 0.59408 0.26577 0.13774 0.0
H1121 H 0.55279 0.26438 0.21294 0.0
H1122 H 0.59177 0.25272 0.23696 0.0
H1123 H 0.63759 0.24291 0.23663 0.0
H1124 H 0.67897 0.24454 0.1616 0.0
H1125 H 0.63964 0.2554 0.13729 0.0
C1126 C 0.59374 0.2633 0.15947 0.0
C1127 C 0.57063 0.26623 0.17357 0.0
C1128 C 0.61599 0.25604 0.17304 0.0
C1129 C 0.57037 0.26243 0.20162 0.0
C1130 C 0.59258 0.25557 0.21534 0.0
C1131 C 0.63778 0.24517 0.21485 0.0
C1132 C 0.66099 0.2427 0.20083 0.0
C1133 C 0.61539 0.25209 0.20121 0.0
C1134 C 0.66119 0.24611 0.17274 0.0
C1135 C 0.63883 0.25257 0.15891 0.0
H1136 H 0.58044 0.87751 0.99294 0.0
H1137 H 0.52038 0.87842 0.92736 0.0
H1138 H 0.51071 0.92204 0.95056 0.0
H1139 H 0.51779 0.95909 0.98978 0.0
H1140 H 0.58002 0.96231 0.05412 0.0
H1141 H 0.5899 0.9177 0.03154 0.0
C1142 C 0.5653 0.88733 0.98379 0.0
C1143 C 0.55115 0.87454 0.95845 0.0
C1144 C 0.56001 0.91303 0.99711 0.0
C1145 C 0.53173 0.88773 0.94675 0.0
C1146 C 0.52602 0.91268 0.96005 0.0
C1147 C 0.53386 0.95035 0.99867 0.0
C1148 C 0.54834 0.96411 0.02339 0.0
C1149 C 0.5399 0.9254 0.98523 0.0
C1150 C 0.56867 0.95214 0.03498 0.0
C1151 C 0.57432 0.92666 0.02206 0.0
H1152 H 0.92792 0.7501 0.71152 0.0
H1153 H 0.92898 0.82201 0.66415 0.0
H1154 H 0.88968 0.83254 0.6873 0.0
H1155 H 0.8533 0.81942 0.71947 0.0
H1156 H 0.853 0.74686 0.76596 0.0
H1157 H 0.89377 0.73877 0.74491 0.0
C1158 C 0.91966 0.76816 0.70625 0.0
C1159 C 0.93128 0.78507 0.68594 0.0
C1160 C 0.89714 0.77404 0.71958 0.0
C1161 C 0.92039 0.80855 0.67963 0.0
C1162 C 0.8979 0.81458 0.69287 0.0
C1163 C 0.86245 0.80217 0.72529 0.0
C1164 C 0.84998 0.78372 0.74421 0.0
C1165 C 0.88589 0.79727 0.71273 0.0
C1166 C 0.86198 0.76128 0.75133 0.0
C1167 C 0.88533 0.75657 0.73927 0.0
H1168 H 0.08589 0.98209 0.86544 0.0
H1169 H 0.09817 0.07556 0.87302 0.0
H1170 H 0.07345 0.07446 0.91454 0.0
H1171 H 0.04743 0.04721 0.94816 0.0
H1172 H 0.03071 0.9535 0.93908 0.0
H1173 H 0.05813 0.9543 0.89889 0.0
C1174 C 0.08314 1.00214 0.87627 0.0
C1175 C 0.09383 0.02886 0.86617 0.0
C1176 C 0.06815 1.0013 0.89988 0.0
C1177 C 0.08995 0.05469 0.88024 0.0
C1178 C 0.07591 0.05413 0.90407 0.0
C1179 C 0.04997 0.02697 0.9375 0.0
C1180 C 0.03732 1.00034 0.94657 0.0
C1181 C 0.06483 0.0276 0.914 0.0
C1182 C 0.04036 0.97425 0.93237 0.0
C1183 C 0.05598 0.97472 0.90943 0.0
H1184 H 0.78206 0.39203 0.59069 0.0
H1185 H 0.71215 0.32813 0.55144 0.0
H1186 H 0.71456 0.29683 0.588 0.0
H1187 H 0.73804 0.28723 0.63049 0.0
H1188 H 0.81122 0.34948 0.66576 0.0
H1189 H 0.80636 0.38172 0.63129 0.0
C1190 C 0.7671 0.37145 0.59048 0.0
C1191 C 0.74662 0.36251 0.56898 0.0
C1192 C 0.76957 0.35311 0.61056 0.0
C1193 C 0.72784 0.33546 0.56819 0.0
C1194 C 0.72935 0.31757 0.58892 0.0
C1195 C 0.75296 0.30775 0.63037 0.0
C1196 C 0.77501 0.31594 0.65042 0.0
C1197 C 0.75039 0.32601 0.61003 0.0
C1198 C 0.79426 0.34256 0.65025 0.0
C1199 C 0.7914 0.36114 0.63071 0.0
H1200 H 0.46263 0.08559 0.38861 0.0
H1201 H 0.51294 0.04205 0.3389 0.0
H1202 H 0.54253 0.04116 0.37932 0.0
H1203 H 0.55084 0.04725 0.42944 0.0
H1204 H 0.50005 0.08889 0.47976 0.0
H1205 H 0.47397 0.09628 0.43865 0.0
C1206 C 0.48034 0.07639 0.38661 0.0
C1207 C 0.48538 0.06358 0.3609 0.0
C1208 C 0.49703 0.07539 0.4101 0.0
C1209 C 0.50841 0.05172 0.35856 0.0
C1210 C 0.52538 0.0512 0.38165 0.0
C1211 C 0.53449 0.05859 0.4312 0.0
C1212 C 0.52697 0.06732 0.4572 0.0
C1213 C 0.51942 0.06217 0.4076 0.0
C1214 C 0.50571 0.0817 0.45967 0.0
C1215 C 0.4909 0.08592 0.43624 0.0
H1216 H 0.75129 0.67522 0.09908 0.0
H1217 H 0.80968 0.75011 0.07786 0.0
H1218 H 0.81036 0.77471 0.12448 0.0
H1219 H 0.79459 0.77448 0.17156 0.0
H1220 H 0.73281 0.70128 0.19102 0.0
H1221 H 0.73288 0.67658 0.14479 0.0
C1222 C 0.76427 0.69688 0.10476 0.0
C1223 C 0.78083 0.71067 0.08528 0.0
C1224 C 0.76371 0.71124 0.13121 0.0
C1225 C 0.79698 0.73901 0.0926 0.0
C1226 C 0.79731 0.75305 0.11922 0.0
C1227 C 0.78102 0.75319 0.16559 0.0
C1228 C 0.76378 0.73968 0.18478 0.0
C1229 C 0.78078 0.73935 0.13873 0.0
C1230 C 0.74612 0.71224 0.17664 0.0
C1231 C 0.7463 0.69802 0.15025 0.0
H1232 H 0.09684 0.0591 0.7315 0.0
H1233 H 0.13734 0.99668 0.69261 0.0
H1234 H 0.12089 0.00575 0.64741 0.0
H1235 H 0.09519 0.0315 0.61894 0.0
H1236 H 0.05501 0.09423 0.65762 0.0
H1237 H 0.07169 0.08544 0.70294 0.0
C1238 C 0.10179 0.04719 0.71315 0.0
C1239 C 0.11807 0.02699 0.71548 0.0
C1240 C 0.09276 0.05299 0.68721 0.0
C1241 C 0.12471 0.0122 0.69144 0.0
C1242 C 0.11545 0.01749 0.66558 0.0
C1243 C 0.09039 0.04353 0.63729 0.0
C1244 C 0.07405 0.06364 0.63497 0.0
C1245 C 0.09965 0.038 0.66322 0.0
C1246 C 0.06775 0.07883 0.6589 0.0
C1247 C 0.07709 0.07363 0.6848 0.0
H1248 H 0.74869 0.30535 0.42942 0.0
H1249 H 0.72782 0.38022 0.39915 0.0
H1250 H 0.72373 0.35642 0.35203 0.0
H1251 H 0.72989 0.31602 0.31943 0.0
H1252 H 0.74903 0.24043 0.34948 0.0
H1253 H 0.74997 0.26274 0.39703 0.0
C1254 C 0.7429 0.31628 0.41252 0.0
C1255 C 0.73884 0.34458 0.41761 0.0
C1256 C 0.74058 0.30247 0.38561 0.0
C1257 C 0.731 0.35841 0.39567 0.0
C1258 C 0.72886 0.34491 0.36876 0.0
C1259 C 0.73417 0.30452 0.3365 0.0
C1260 C 0.73988 0.27702 0.33136 0.0
C1261 C 0.73426 0.31728 0.3635 0.0
C1262 C 0.74476 0.26175 0.35328 0.0
C1263 C 0.74533 0.2745 0.38032 0.0
H1264 H 0.48691 0.05499 0.23271 0.0
H1265 H 0.43698 0.10939 0.20258 0.0
H1266 H 0.46126 0.11212 0.16052 0.0
H1267 H 0.49174 0.09296 0.12984 0.0
H1268 H 0.53728 0.03377 0.1582 0.0
H1269 H 0.52 0.03926 0.2037 0.0
C1270 C 0.48175 0.068 0.21723 0.0
C1271 C 0.46007 0.08177 0.22058 0.0
C1272 C 0.49484 0.06831 0.1927 0.0
C1273 C 0.45347 0.09839 0.20029 0.0
C1274 C 0.46728 0.09989 0.17625 0.0
C1275 C 0.49828 0.08181 0.14622 0.0
C1276 C 0.51553 0.06289 0.14089 0.0
C1277 C 0.48725 0.08401 0.17182 0.0
C1278 C 0.52383 0.04831 0.162 0.0
C1279 C 0.51392 0.05139 0.18791 0.0
H1280 H 0.8141 0.73746 0.92837 0.0
H1281 H 0.72624 0.72245 0.92812 0.0
H1282 H 0.72456 0.74309 0.88469 0.0
H1283 H 0.74777 0.76572 0.84679 0.0
H1284 H 0.83581 0.78647 0.84862 0.0
H1285 H 0.83788 0.76345 0.89118 0.0
C1286 C 0.79466 0.73875 0.91873 0.0
C1287 C 0.77029 0.72829 0.93143 0.0
C1288 C 0.79391 0.75171 0.89401 0.0
C1289 C 0.74527 0.73044 0.91887 0.0
C1290 C 0.74427 0.74217 0.89396 0.0
C1291 C 0.76742 0.76515 0.85649 0.0
C1292 C 0.79161 0.77753 0.8445 0.0
C1293 C 0.76841 0.7529 0.88136 0.0
C1294 C 0.81693 0.77707 0.85751 0.0
C1295 C 0.81807 0.76387 0.8818 0.0
H1296 H 0.83392 0.05169 0.04543 0.0
H1297 H 0.85645 0.10404 0.97934 0.0
H1298 H 0.88703 0.07347 0.96404 0.0
H1299 H 0.91073 0.03512 0.97236 0.0
H1300 H 0.89098 0.98565 0.04076 0.0
H1301 H 0.85516 0.01116 0.05172 0.0
C1302 C 0.84538 0.05634 0.02757 0.0
C1303 C 0.84319 0.08035 0.01376 0.0
C1304 C 0.86313 0.03892 0.01912 0.0
C1305 C 0.85801 0.0859 0.99053 0.0
C1306 C 0.8754 0.06835 0.98169 0.0
C1307 C 0.89794 0.02928 0.98909 0.0
C1308 C 0.90318 0.0084 0.00562 0.0
C1309 C 0.8785 0.04514 0.99613 0.0
C1310 C 0.887 1.00145 0.02763 0.0
C1311 C 0.8668 0.01628 0.03408 0.0
H1312 H 0.35948 0.43379 0.0078 0.0
H1313 H 0.34043 0.4893 0.07549 0.0
H1314 H 0.38632 0.5214 0.07659 0.0
H1315 H 0.433 0.53192 0.06001 0.0
H1316 H 0.45117 0.4756 0.99246 0.0
H1317 H 0.40443 0.44587 0.98944 0.0
C1318 C 0.36526 0.45295 0.02278 0.0
C1319 C 0.34659 0.4589 0.04174 0.0
C1320 C 0.39158 0.47124 0.02329 0.0
C1321 C 0.3544 0.4841 0.06072 0.0
C1322 C 0.38067 0.50246 0.06138 0.0
C1323 C 0.42656 0.51336 0.04443 0.0
C1324 C 0.44557 0.50589 0.02657 0.0
C1325 C 0.39959 0.49603 0.043 0.0
C1326 C 0.43697 0.48179 0.00648 0.0
C1327 C 0.41026 0.46468 0.0048 0.0
H1328 H 0.30698 0.60448 0.70839 0.0
H1329 H 0.37549 0.63358 0.76891 0.0
H1330 H 0.35917 0.67691 0.78357 0.0
H1331 H 0.32614 0.70725 0.77845 0.0
H1332 H 0.25733 0.67786 0.71822 0.0
H1333 H 0.27295 0.63394 0.7045 0.0
C1334 C 0.31837 0.62028 0.72481 0.0
C1335 C 0.34257 0.61577 0.73739 0.0
C1336 C 0.30874 0.64511 0.7333 0.0
C1337 C 0.35687 0.63643 0.75879 0.0
C1338 C 0.34753 0.66126 0.7672 0.0
C1339 C 0.31438 0.69117 0.76246 0.0
C1340 C 0.29052 0.69605 0.74943 0.0
C1341 C 0.32356 0.66591 0.75453 0.0
C1342 C 0.27567 0.6748 0.72875 0.0
C1343 C 0.28467 0.64966 0.72077 0.0
H1344 H 0.20253 0.62837 0.49127 0.0
H1345 H 0.21547 0.60156 0.57128 0.0
H1346 H 0.16699 0.57679 0.57022 0.0
H1347 H 0.12053 0.56544 0.54763 0.0
H1348 H 0.1082 0.5901 0.46657 0.0
H1349 H 0.15701 0.61293 0.46681 0.0
C1350 C 0.19471 0.61694 0.50837 0.0
C1351 C 0.21229 0.61701 0.53144 0.0
C1352 C 0.16703 0.60249 0.50745 0.0
C1353 C 0.20219 0.60176 0.55331 0.0
C1354 C 0.17451 0.58772 0.55277 0.0
C1355 C 0.12863 0.5757 0.53 0.0
C1356 C 0.11093 0.57647 0.50728 0.0
C1357 C 0.15669 0.58838 0.53013 0.0
C1358 C 0.12155 0.5893 0.4843 0.0
C1359 C 0.14938 0.60244 0.48447 0.0
H1360 H 0.70969 0.9544 0.7195 0.0
H1361 H 0.66454 0.94024 0.7916 0.0
H1362 H 0.6974 0.91461 0.80918 0.0
H1363 H 0.73699 0.89351 0.80248 0.0
H1364 H 0.78055 0.90546 0.72925 0.0
H1365 H 0.75072 0.93566 0.71404 0.0
C1366 C 0.70698 0.94571 0.73907 0.0
C1367 C 0.6845 0.94888 0.75407 0.0
C1368 C 0.7259 0.93107 0.74901 0.0
C1369 C 0.68151 0.93781 0.77953 0.0
C1370 C 0.70037 0.92331 0.78966 0.0
C1371 C 0.7404 0.90338 0.78355 0.0
C1372 C 0.76095 0.89747 0.76701 0.0
C1373 C 0.72247 0.9196 0.77444 0.0
C1374 C 0.76496 0.90997 0.74236 0.0
C1375 C 0.74772 0.92692 0.73354 0.0
H1376 H 0.71247 0.98181 0.57664 0.0
H1377 H 0.69507 0.92419 0.50085 0.0
H1378 H 0.657 0.94536 0.4883 0.0
H1379 H 0.62791 0.97963 0.4992 0.0
H1380 H 0.64452 0.03627 0.57548 0.0
H1381 H 0.68365 0.01631 0.58737 0.0
C1382 C 0.7004 0.97388 0.55734 0.0
C1383 C 0.70671 0.95135 0.53975 0.0
C1384 C 0.67839 0.98609 0.55028 0.0
C1385 C 0.69073 0.94142 0.51485 0.0
C1386 C 0.66894 0.95356 0.50762 0.0
C1387 C 0.64027 0.98778 0.51831 0.0
C1388 C 0.63343 0.00957 0.53635 0.0
C1389 C 0.66251 0.97585 0.52519 0.0
C1390 C 0.64944 0.01967 0.56116 0.0
C1391 C 0.67177 0.00817 0.56801 0.0
H1392 H 0.35801 0.43088 0.71224 0.0
H1393 H 0.3028 0.47816 0.74893 0.0
H1394 H 0.2733 0.43249 0.7599 0.0
H1395 H 0.26494 0.37912 0.76152 0.0
H1396 H 0.31826 0.33222 0.72065 0.0
H1397 H 0.34694 0.37761 0.70913 0.0
C1398 C 0.33936 0.43112 0.72239 0.0
C1399 C 0.33266 0.45777 0.72997 0.0
C1400 C 0.32243 0.40487 0.72828 0.0
C1401 C 0.30829 0.45783 0.7428 0.0
C1402 C 0.29154 0.43176 0.74924 0.0
C1403 C 0.2828 0.37893 0.75002 0.0
C1404 C 0.29018 0.35248 0.74295 0.0
C1405 C 0.29867 0.40516 0.7425 0.0
C1406 C 0.31292 0.35241 0.72744 0.0
C1407 C 0.32913 0.37834 0.72052 0.0
H1408 H 0.17127 0.59349 0.26664 0.0
H1409 H 0.18325 0.58152 0.1801 0.0
H1410 H 0.20938 0.63205 0.18244 0.0
H1411 H 0.22806 0.67971 0.20891 0.0
H1412 H 0.21821 0.69101 0.29593 0.0
H1413 H 0.19208 0.64047 0.29363 0.0
C1414 C 0.17958 0.60199 0.24831 0.0
C1415 C 0.17519 0.584 0.2232 0.0
C1416 C 0.19496 0.63082 0.24991 0.0
C1417 C 0.1864 0.59505 0.19967 0.0
C1418 C 0.20128 0.6239 0.20097 0.0
C1419 C 0.22017 0.67108 0.22735 0.0
C1420 C 0.2248 0.689 0.25249 0.0
C1421 C 0.20555 0.64199 0.22595 0.0
C1422 C 0.2149 0.67752 0.27635 0.0
C1423 C 0.1999 0.64871 0.27503 0.0
H1424 H 0.48342 0.6873 0.44165 0.0
H1425 H 0.57023 0.72507 0.45534 0.0
H1426 H 0.57589 0.68438 0.47985 0.0
H1427 H 0.55662 0.63636 0.49485 0.0
H1428 H 0.46941 0.59966 0.48252 0.0
H1429 H 0.46356 0.64162 0.46046 0.0
C1430 C 0.50352 0.68672 0.4502 0.0
C1431 C 0.52637 0.70904 0.44645 0.0
C1432 C 0.50663 0.66336 0.46453 0.0
C1433 C 0.55226 0.70815 0.45791 0.0
C1434 C 0.55556 0.68482 0.47188 0.0
C1435 C 0.53631 0.63768 0.4876 0.0
C1436 C 0.51361 0.61468 0.4902 0.0
C1437 C 0.53296 0.66205 0.47494 0.0
C1438 C 0.48737 0.61695 0.48086 0.0
C1439 C 0.48394 0.64094 0.46807 0.0
H1440 H 0.61716 0.30282 0.7316 0.0
H1441 H 0.65585 0.3209 0.6565 0.0
H1442 H 0.69935 0.31609 0.67748 0.0
H1443 H 0.7258 0.30362 0.71648 0.0
H1444 H 0.68669 0.28589 0.79128 0.0
H1445 H 0.64409 0.29368 0.77115 0.0
C1446 C 0.63515 0.30609 0.71987 0.0
C1447 C 0.63306 0.31206 0.69243 0.0
C1448 C 0.66004 0.30302 0.73195 0.0
C1449 C 0.65675 0.31633 0.67767 0.0
C1450 C 0.68165 0.3134 0.6896 0.0
C1451 C 0.70791 0.30146 0.72826 0.0
C1452 C 0.70925 0.29381 0.75516 0.0
C1453 C 0.68342 0.30616 0.71656 0.0
C1454 C 0.68611 0.2916 0.77047 0.0
C1455 C 0.66173 0.29606 0.75898 0.0
H1456 H 0.96066 0.32936 0.93272 0.0
H1457 H 0.04686 0.34054 0.9218 0.0
H1458 H 0.0554 0.39166 0.94108 0.0
H1459 H 0.03838 0.433 0.96102 0.0
H1460 H 0.95182 0.42299 0.96923 0.0
H1461 H 0.94329 0.37157 0.9507 0.0
C1462 C 0.98134 0.34297 0.93474 0.0
C1463 C 1.00319 0.33111 0.92618 0.0
C1464 C 0.98594 0.37253 0.94513 0.0
C1465 C 0.02976 0.34913 0.92835 0.0
C1466 C 0.03462 0.37834 0.93935 0.0
C1467 C 0.01761 0.41959 0.95877 0.0
C1468 C 0.99575 0.43177 0.96669 0.0
C1469 C 0.01287 0.39025 0.94778 0.0
C1470 C 0.96896 0.41419 0.96323 0.0
C1471 C 0.96412 0.38477 0.95276 0.0
H1472 H 0.95901 0.81539 0.18461 0.0
H1473 H 0.97197 0.74275 0.2254 0.0
H1474 H 0.93328 0.74477 0.25275 0.0
H1475 H 0.89404 0.76483 0.26316 0.0
H1476 H 0.87905 0.83599 0.22164 0.0
H1477 H 0.92045 0.83726 0.19689 0.0
C1478 C 0.95343 0.80015 0.1996 0.0
C1479 C 0.96825 0.7788 0.20275 0.0
C1480 C 0.93084 0.8012 0.21521 0.0
C1481 C 0.96081 0.75924 0.22233 0.0
C1482 C 0.9387 0.7604 0.23808 0.0
C1483 C 0.90006 0.78091 0.249 0.0
C1484 C 0.8836 0.80025 0.24416 0.0
C1485 C 0.92336 0.78098 0.23443 0.0
C1486 C 0.89151 0.8209 0.22569 0.0
C1487 C 0.91507 0.82151 0.21144 0.0
H1488 H 0.52088 0.33889 0.04003 0.0
H1489 H 0.49925 0.36878 0.12005 0.0
H1490 H 0.50044 0.41668 0.10543 0.0
H1491 H 0.50891 0.45049 0.0705 0.0
H1492 H 0.52684 0.42034 0.9892 0.0
H1493 H 0.52567 0.37199 0.00356 0.0
C1494 C 0.51634 0.3559 0.05419 0.0
C1495 C 0.51021 0.3504 0.08118 0.0
C1496 C 0.51644 0.38327 0.04541 0.0
C1497 C 0.50398 0.37246 0.0992 0.0
C1498 C 0.50475 0.39988 0.09087 0.0
C1499 C 0.51256 0.4333 0.05592 0.0
C1500 C 0.51835 0.43897 0.02895 0.0
C1501 C 0.51118 0.40558 0.06414 0.0
C1502 C 0.52243 0.41642 0.01008 0.0
C1503 C 0.52183 0.38887 0.01833 0.0
H1504 H 0.9575 0.3207 0.36539 0.0
H1505 H 0.94376 0.22843 0.34107 0.0
H1506 H 0.8985 0.22741 0.31987 0.0
H1507 H 0.86276 0.25266 0.30889 0.0
H1508 H 0.87811 0.34573 0.32796 0.0
H1509 H 0.923 0.34683 0.35073 0.0
C1510 C 0.94453 0.30046 0.35534 0.0
C1511 C 0.95362 0.2746 0.35488 0.0
C1512 C 0.91897 0.30027 0.34245 0.0
C1513 C 0.93704 0.24853 0.34154 0.0
C1514 C 0.9112 0.24794 0.32955 0.0
C1515 C 0.87599 0.27314 0.31814 0.0
C1516 C 0.86729 0.29903 0.31734 0.0
C1517 C 0.90194 0.27363 0.33004 0.0
C1518 C 0.88458 0.32559 0.32865 0.0
C1519 C 0.91012 0.32616 0.34159 0.0
H1520 H 0.02044 0.69584 0.59905 0.0
H1521 H 0.9606 0.71548 0.54316 0.0
H1522 H 0.96258 0.67278 0.51108 0.0
H1523 H 0.98287 0.63061 0.49873 0.0
H1524 H 0.04667 0.61572 0.55333 0.0
H1525 H 0.04174 0.65573 0.58618 0.0
C1526 C 0.00758 0.69042 0.57998 0.0
C1527 C 0.98999 0.70807 0.57351 0.0
C1528 C 0.00976 0.66685 0.56142 0.0
C1529 C 0.97393 0.70168 0.54854 0.0
C1530 C 0.97523 0.67746 0.53024 0.0
C1531 C 0.99566 0.63624 0.51781 0.0
C1532 C 0.01469 0.61985 0.52389 0.0
C1533 C 0.99331 0.66003 0.53635 0.0
C1534 C 0.03146 0.6276 0.54845 0.0
C1535 C 0.02874 0.65054 0.56724 0.0
H1536 H 0.61183 0.81015 0.8363 0.0
H1537 H 0.63091 0.75354 0.8939 0.0
H1538 H 0.66777 0.74385 0.8665 0.0
H1539 H 0.6957 0.75282 0.82724 0.0
H1540 H 0.68015 0.81331 0.77217 0.0
H1541 H 0.64057 0.81987 0.79721 0.0
C1542 C 0.62398 0.79557 0.84274 0.0
C1543 C 0.61858 0.78252 0.86708 0.0
C1544 C 0.64565 0.79068 0.82723 0.0
C1545 C 0.63472 0.76397 0.87535 0.0
C1546 C 0.65573 0.75833 0.85963 0.0
C1547 C 0.68332 0.76702 0.82041 0.0
C1548 C 0.69046 0.78214 0.79758 0.0
C1549 C 0.66147 0.77166 0.83563 0.0
C1550 C 0.6748 0.80118 0.78949 0.0
C1551 C 0.65229 0.80504 0.80389 0.0
H1552 H 0.47329 0.55053 0.67916 0.0
H1553 H 0.39999 0.54767 0.62867 0.0
H1554 H 0.42594 0.54871 0.58762 0.0
H1555 H 0.46955 0.54874 0.56582 0.0
H1556 H 0.54255 0.55287 0.61711 0.0
H1557 H 0.51671 0.55309 0.65799 0.0
C1558 C 0.46293 0.55025 0.65922 0.0
C1559 C 0.43463 0.54885 0.65711 0.0
C1560 C 0.47796 0.55089 0.63574 0.0
C1561 C 0.42173 0.54881 0.63101 0.0
C1562 C 0.43654 0.54924 0.60746 0.0
C1563 C 0.47965 0.54944 0.58594 0.0
C1564 C 0.50782 0.5503 0.58842 0.0
C1565 C 0.46463 0.54991 0.60952 0.0
C1566 C 0.52087 0.55207 0.61467 0.0
C1567 C 0.5061 0.55217 0.63806 0.0
H1568 H 0.7986 0.24452 0.96269 0.0
H1569 H 0.81551 0.16324 0.9301 0.0
H1570 H 0.81798 0.17942 0.88424 0.0
H1571 H 0.80992 0.21449 0.8528 0.0
H1572 H 0.79206 0.29512 0.88597 0.0
H1573 H 0.79558 0.28146 0.93239 0.0
C1574 C 0.80314 0.23046 0.94561 0.0
C1575 C 0.80641 0.20258 0.94959 0.0
C1576 C 0.80413 0.23971 0.91944 0.0
C1577 C 0.81278 0.18477 0.92745 0.0
C1578 C 0.81404 0.19395 0.90124 0.0
C1579 C 0.80714 0.22916 0.87027 0.0
C1580 C 0.8003 0.2555 0.8661 0.0
C1581 C 0.8089 0.22101 0.89687 0.0
C1582 C 0.79708 0.27458 0.88877 0.0
C1583 C 0.79904 0.26678 0.91528 0.0
H1584 H 0.0918 0.46494 0.12695 0.0
H1585 H 0.03521 0.48478 0.18521 0.0
H1586 H 1.00281 0.48771 0.14765 0.0
H1587 H 0.99379 0.49217 0.09858 0.0
H1588 H 0.05101 0.47396 0.04083 0.0
H1589 H 0.08002 0.46297 0.07769 0.0
C1590 C 0.07212 0.46921 0.13146 0.0
C1591 C 0.06615 0.47507 0.15886 0.0
C1592 C 0.05395 0.47178 0.10981 0.0
C1593 C 0.04048 0.48049 0.16429 0.0
C1594 C 0.02196 0.48231 0.14282 0.0
C1595 C 0.01233 0.48518 0.09415 0.0
C1596 C 0.02096 0.48477 0.06741 0.0
C1597 C 0.02895 0.47918 0.11556 0.0
C1598 C 0.04479 0.47558 0.06159 0.0
C1599 C 0.06116 0.469 0.0826 0.0
H1600 H 0.81084 0.83289 0.45454 0.0
H1601 H 0.72632 0.83772 0.45236 0.0
H1602 H 0.72122 0.82242 0.40278 0.0
H1603 H 0.7411 0.80851 0.3598 0.0
H1604 H 0.82666 0.80752 0.36169 0.0
H1605 H 0.83109 0.8207 0.41144 0.0
C1606 C 0.79121 0.83029 0.44326 0.0
C1607 C 0.76886 0.83603 0.45725 0.0
C1608 C 0.78872 0.82246 0.4146 0.0
C1609 C 0.74377 0.83324 0.44217 0.0
C1610 C 0.74089 0.82456 0.41379 0.0
C1611 C 0.76074 0.81118 0.37108 0.0
C1612 C 0.78352 0.80693 0.3569 0.0
C1613 C 0.76327 0.81928 0.39974 0.0
C1614 C 0.80883 0.81078 0.37193 0.0
C1615 C 0.81135 0.8182 0.40046 0.0
H1616 H 0.41786 0.534 0.82932 0.0
H1617 H 0.48336 0.50806 0.78764 0.0
H1618 H 0.50449 0.5007 0.83145 0.0
H1619 H 0.50411 0.50118 0.8818 0.0
H1620 H 0.43719 0.5246 0.92298 0.0
H1621 H 0.4167 0.53297 0.87933 0.0
C1622 C 0.43692 0.52707 0.82991 0.0
C1623 C 0.44921 0.52193 0.80534 0.0
C1624 C 0.44851 0.52202 0.85509 0.0
C1625 C 0.47359 0.51233 0.80632 0.0
C1626 C 0.48563 0.508 0.83135 0.0
C1627 C 0.48493 0.50787 0.88112 0.0
C1628 C 0.47216 0.51221 0.90556 0.0
C1629 C 0.47317 0.51257 0.85587 0.0
C1630 C 0.44735 0.52095 0.90443 0.0
C1631 C 0.43569 0.52592 0.87948 0.0
H1632 H 0.77598 0.17461 0.11451 0.0
H1633 H 0.8462 0.23613 0.09169 0.0
H1634 H 0.84528 0.26892 0.13361 0.0
H1635 H 0.82344 0.27996 0.17673 0.0
H1636 H 0.74988 0.21949 0.19498 0.0
H1637 H 0.75274 0.1868 0.15468 0.0
C1638 C 0.7914 0.19496 0.11906 0.0
C1639 C 0.81162 0.2027 0.10075 0.0
C1640 C 0.78972 0.21416 0.14208 0.0
C1641 C 0.83084 0.22959 0.10604 0.0
C1642 C 0.83011 0.24839 0.12978 0.0
C1643 C 0.80788 0.25985 0.17155 0.0
C1644 C 0.78664 0.25208 0.18901 0.0
C1645 C 0.8094 0.24103 0.14786 0.0
C1646 C 0.76655 0.22597 0.18205 0.0
C1647 C 0.76822 0.20708 0.15905 0.0
H1648 H 0.0539 0.53269 0.29871 0.0
H1649 H 0.09969 0.4712 0.32139 0.0
H1650 H 0.08152 0.47227 0.36681 0.0
H1651 H 0.05523 0.4935 0.40102 0.0
H1652 H 0.01079 0.55609 0.37834 0.0
H1653 H 0.02565 0.55156 0.33171 0.0
C1654 C 0.05981 0.51934 0.31348 0.0
C1655 C 0.07833 0.50208 0.30677 0.0
C1656 C 0.04955 0.52032 0.33952 0.0
C1657 C 0.08556 0.48475 0.32609 0.0
C1658 C 0.07521 0.4854 0.35206 0.0
C1659 C 0.04855 0.50585 0.38573 0.0
C1660 C 0.03208 0.5252 0.39302 0.0
C1661 C 0.05757 0.5035 0.35914 0.0
C1662 C 0.02353 0.54112 0.37315 0.0
C1663 C 0.03209 0.53859 0.34655 0.0
H1664 H 0.76707 0.80852 0.59852 0.0
H1665 H 0.75885 0.88973 0.64112 0.0
H1666 H 0.75548 0.86835 0.6843 0.0
H1667 H 0.75524 0.82653 0.71065 0.0
H1668 H 0.76222 0.74507 0.66812 0.0
H1669 H 0.76542 0.76634 0.62468 0.0
C1670 C 0.76446 0.82155 0.6172 0.0
C1671 C 0.7633 0.85084 0.61625 0.0
C1672 C 0.76235 0.80902 0.64224 0.0
C1673 C 0.75979 0.86717 0.6409 0.0
C1674 C 0.75792 0.85497 0.66579 0.0
C1675 C 0.75775 0.81359 0.69193 0.0
C1676 C 0.75889 0.78436 0.6928 0.0
C1677 C 0.75932 0.82595 0.66681 0.0
C1678 C 0.76135 0.76764 0.66813 0.0
C1679 C 0.76323 0.77982 0.64321 0.0
H1680 H 0.71545 0.51012 0.53439 0.0
H1681 H 0.68175 0.44177 0.46867 0.0
H1682 H 0.64354 0.46403 0.45997 0.0
H1683 H 0.61741 0.4998 0.47418 0.0
H1684 H 0.65003 0.56726 0.54079 0.0
H1685 H 0.69143 0.54889 0.54556 0.0
C1686 C 0.69987 0.50021 0.51801 0.0
C1687 C 0.70122 0.47406 0.50248 0.0
C1688 C 0.67786 0.51302 0.51324 0.0
C1689 C 0.68107 0.46174 0.48109 0.0
C1690 C 0.65922 0.47446 0.47609 0.0
C1691 C 0.63383 0.51083 0.48939 0.0
C1692 C 0.63068 0.53466 0.50729 0.0
C1693 C 0.6571 0.49967 0.49246 0.0
C1694 C 0.65208 0.54889 0.52679 0.0
C1695 C 0.6756 0.53822 0.52966 0.0
H1696 H 0.17672 0.1373 0.51495 0.0
H1697 H 0.19861 0.06384 0.47103 0.0
H1698 H 0.15177 0.03427 0.47275 0.0
H1699 H 0.10416 0.02969 0.48682 0.0
H1700 H 0.08485 0.10265 0.53475 0.0
H1701 H 0.13099 0.13177 0.53176 0.0
C1702 C 0.17113 0.11489 0.50551 0.0
C1703 C 0.19083 0.10291 0.49234 0.0
C1704 C 0.14463 0.09781 0.50762 0.0
C1705 C 0.18362 0.0736 0.48096 0.0
C1706 C 0.1569 0.0567 0.48206 0.0
C1707 C 0.1102 0.05186 0.49681 0.0
C1708 C 0.09093 0.06398 0.51081 0.0
C1709 C 0.13718 0.06856 0.49542 0.0
C1710 C 0.09915 0.0927 0.5238 0.0
C1711 C 0.12556 0.10951 0.522 0.0
H1712 H 0.24577 0.96566 0.77502 0.0
H1713 H 0.16565 0.92082 0.79525 0.0
H1714 H 0.18036 0.87514 0.7939 0.0
H1715 H 0.21529 0.84743 0.78455 0.0
H1716 H 0.29653 0.89252 0.76806 0.0
H1717 H 0.28229 0.93873 0.77055 0.0
C1718 C 0.23163 0.9459 0.77931 0.0
C1719 C 0.20455 0.94653 0.78494 0.0
C1720 C 0.24044 0.91982 0.77909 0.0
C1721 C 0.18656 0.92089 0.79087 0.0
C1722 C 0.19494 0.89476 0.79 0.0
C1723 C 0.22989 0.86746 0.78168 0.0
C1724 C 0.2568 0.86667 0.77579 0.0
C1725 C 0.22169 0.89389 0.78375 0.0
C1726 C 0.27571 0.89271 0.77259 0.0
C1727 C 0.26752 0.91904 0.7739 0.0
H1728 H 0.34175 0.97516 0.0428 0.0
H1729 H 0.34123 0.91892 0.96791 0.0
H1730 H 0.39068 0.93697 0.96707 0.0
H1731 H 0.43418 0.96788 0.98812 0.0
H1732 H 0.43491 0.02266 0.06407 0.0
H1733 H 0.38534 0.00584 0.06403 0.0
C1734 C 0.35245 0.96706 0.02618 0.0
C1735 C 0.33787 0.94584 0.00542 0.0
C1736 C 0.38095 0.97706 0.02612 0.0
C1737 C 0.35203 0.93525 0.98419 0.0
C1738 C 0.38029 0.94552 0.98369 0.0
C1739 C 0.42351 0.97617 0.00465 0.0
C1740 C 0.43828 0.99644 0.02606 0.0
C1741 C 0.395 0.96626 0.00466 0.0
C1742 C 0.42411 0.00685 0.04741 0.0
C1743 C 0.39572 0.99736 0.04737 0.0
H1744 H 0.84368 0.61369 0.79889 0.0
H1745 H 0.81373 0.58326 0.71466 0.0
H1746 H 0.77907 0.61139 0.71835 0.0
H1747 H 0.76205 0.65021 0.74314 0.0
H1748 H 0.79427 0.68348 0.82604 0.0
H1749 H 0.82248 0.64797 0.82565 0.0
C1750 C 0.82934 0.61294 0.78147 0.0
C1751 C 0.83165 0.59693 0.7564 0.0
C1752 C 0.80971 0.62957 0.78356 0.0
C1753 C 0.81271 0.59584 0.73409 0.0
C1754 C 0.79279 0.61184 0.73618 0.0
C1755 C 0.7745 0.64891 0.76141 0.0
C1756 C 0.7763 0.66934 0.78451 0.0
C1757 C 0.79169 0.62953 0.76051 0.0
C1758 C 0.79269 0.66783 0.80802 0.0
C1759 C 0.80903 0.64779 0.80769 0.0
H1760 H 0.8244 0.56943 0.02703 0.0
H1761 H 0.85747 0.6377 0.97765 0.0
H1762 H 0.89705 0.61699 0.97002 0.0
H1763 H 0.92332 0.58038 0.97883 0.0
H1764 H 0.88975 0.51191 0.02775 0.0
H1765 H 0.8494 0.5316 0.03389 0.0
C1766 C 0.84021 0.57977 0.01452 0.0
C1767 C 0.83793 0.60525 0.00309 0.0
C1768 C 0.86291 0.56764 0.0101 0.0
C1769 C 0.8586 0.61813 0.98676 0.0
C1770 C 0.88131 0.6063 0.9824 0.0
C1771 C 0.90704 0.56964 0.99061 0.0
C1772 C 0.9096 0.54471 1.00286 0.0
C1773 C 0.88382 0.58118 0.99414 0.0
C1774 C 0.88831 0.53107 0.01808 0.0
C1775 C 0.86524 0.5424 0.02168 0.0
H1776 H 0.24079 0.09464 0.78036 0.0
H1777 H 0.18628 0.12668 0.83417 0.0
H1778 H 0.20949 0.17682 0.82879 0.0
H1779 H 0.24283 0.21156 0.80532 0.0
H1780 H 0.29559 0.17825 0.75022 0.0
H1781 H 0.27531 0.12879 0.75936 0.0
C1782 C 0.23432 0.11254 0.79144 0.0
C1783 C 0.21176 0.10684 0.80755 0.0
C1784 C 0.24711 0.14121 0.78756 0.0
C1785 C 0.2036 0.13041 0.82158 0.0
C1786 C 0.21671 0.15913 0.81835 0.0
C1787 C 0.24984 0.19341 0.79543 0.0
C1788 C 0.27054 0.1985 0.77704 0.0
C1789 C 0.23799 0.16478 0.80073 0.0
C1790 C 0.2796 0.17489 0.76441 0.0
C1791 C 0.26809 0.14656 0.76968 0.0
H1792 H 0.34173 0.97043 0.24705 0.0
H1793 H 0.39333 0.96385 0.31782 0.0
H1794 H 0.36927 0.91293 0.31799 0.0
H1795 H 0.33405 0.8702 0.29764 0.0
H1796 H 0.28358 0.87657 0.22596 0.0
H1797 H 0.30679 0.9278 0.22662 0.0
C1798 C 0.34768 0.95792 0.2626 0.0
C1799 C 0.36925 0.97093 0.28241 0.0
C1800 C 0.334 0.92865 0.2624 0.0
C1801 C 0.37683 0.95433 0.30227 0.0
C1802 C 0.36307 0.92524 0.30242 0.0
C1803 C 0.32803 0.88284 0.28225 0.0
C1804 C 0.30715 0.86964 0.2618 0.0
C1805 C 0.34168 0.91217 0.28253 0.0
C1806 C 0.29973 0.8862 0.24184 0.0
C1807 C 0.31294 0.9155 0.24222 0.0
H1808 H 0.51649 0.37244 0.60253 0.0
H1809 H 0.59698 0.38077 0.57278 0.0
H1810 H 0.59064 0.42042 0.5472 0.0
H1811 H 0.56277 0.45326 0.53377 0.0
H1812 H 0.48161 0.44452 0.56191 0.0
H1813 H 0.48752 0.4043 0.58721 0.0
C1814 C 0.53264 0.38302 0.5905 0.0
C1815 C 0.55726 0.37377 0.58974 0.0
C1816 C 0.52868 0.4056 0.57536 0.0
C1817 C 0.57785 0.38744 0.57376 0.0
C1818 C 0.57425 0.41014 0.55909 0.0
C1819 C 0.54627 0.44251 0.54532 0.0
C1820 C 0.5218 0.45203 0.54597 0.0
C1821 C 0.54979 0.41943 0.55978 0.0
C1822 C 0.50061 0.43759 0.56088 0.0
C1823 C 0.50404 0.41468 0.57552 0.0
H1824 H 0.43359 0.78639 0.28033 0.0
H1825 H 0.40333 0.72574 0.33798 0.0
H1826 H 0.3567 0.71846 0.31721 0.0
H1827 H 0.32409 0.73235 0.28469 0.0
H1828 H 0.35485 0.79361 0.22798 0.0
H1829 H 0.40187 0.79763 0.24623 0.0
C1830 C 0.41687 0.77132 0.28821 0.0
C1831 C 0.4219 0.75679 0.3108 0.0
C1832 C 0.39022 0.76749 0.27638 0.0
C1833 C 0.40001 0.73721 0.32062 0.0
C1834 C 0.37333 0.73313 0.30883 0.0
C1835 C 0.34123 0.74626 0.27625 0.0
C1836 C 0.33639 0.76265 0.25512 0.0
C1837 C 0.36813 0.74859 0.28704 0.0
C1838 C 0.35843 0.78068 0.24414 0.0
C1839 C 0.38519 0.78305 0.25464 0.0
H1840 H 0.07328 0.70858 0.08495 0.0
H1841 H 0.98685 0.69669 0.09508 0.0
H1842 H 0.97798 0.64752 0.07112 0.0
H1843 H 0.99474 0.60736 0.04931 0.0
H1844 H 0.08133 0.61724 0.04104 0.0
H1845 H 0.09022 0.66767 0.06251 0.0
C1846 C 0.0525 0.69531 0.08152 0.0
C1847 C 0.03071 0.70628 0.09159 0.0
C1848 C 0.04763 0.66662 0.06843 0.0
C1849 C 1.00393 0.68872 0.08749 0.0
C1850 C 0.99886 0.66059 0.07387 0.0
C1851 C 0.01561 0.62047 0.05204 0.0
C1852 C 0.03733 0.60843 0.04352 0.0
C1853 C 0.02057 0.6492 0.06461 0.0
C1854 C 0.06422 0.62585 0.0475 0.0
C1855 C 0.0693 0.65474 0.0597 0.0
H1856 H 0.07007 0.19973 0.79721 0.0
H1857 H 0.07822 0.28667 0.83741 0.0
H1858 H 0.12439 0.30146 0.82218 0.0
H1859 H 0.16302 0.28961 0.79849 0.0
H1860 H 0.15629 0.20231 0.76017 0.0
H1861 H 0.10908 0.18779 0.77345 0.0
C1862 C 0.08189 0.22196 0.80252 0.0
C1863 C 0.07055 0.24207 0.81843 0.0
C1864 C 0.10874 0.23025 0.79402 0.0
C1865 C 0.08634 0.27071 0.82527 0.0
C1866 C 0.11279 0.27921 0.81653 0.0
C1867 C 0.15116 0.26744 0.79286 0.0
C1868 C 0.1631 0.2471 0.7782 0.0
C1869 C 0.12426 0.25916 0.80104 0.0
C1870 C 0.14755 0.2184 0.77134 0.0
C1871 C 0.12057 0.2101 0.77899 0.0
H1872 H 0.51679 0.69931 0.95091 0.0
H1873 H 0.58882 0.73474 0.00598 0.0
H1874 H 0.58265 0.68864 0.02566 0.0
H1875 H 0.5586 0.63691 0.02506 0.0
H1876 H 0.48746 0.60146 0.96878 0.0
H1877 H 0.49138 0.64873 0.95208 0.0
C1878 C 0.53098 0.69709 0.96743 0.0
C1879 C 0.55329 0.72051 0.97682 0.0
C1880 C 0.52753 0.67034 0.97846 0.0
C1881 C 0.57148 0.71711 0.99824 0.0
C1882 C 0.568 0.69069 0.00953 0.0
C1883 C 0.5437 0.63968 0.00949 0.0
C1884 C 0.52281 0.61558 0.99819 0.0
C1885 C 0.54635 0.66696 0.99951 0.0
C1886 C 0.50386 0.61953 0.97776 0.0
C1887 C 0.50608 0.6466 0.96814 0.0
H1888 H 0.10234 0.78909 0.64546 0.0
H1889 H 0.05589 0.76156 0.71388 0.0
H1890 H 0.09649 0.75166 0.73656 0.0
H1891 H 0.14533 0.75082 0.73694 0.0
H1892 H 0.19145 0.77848 0.66846 0.0
H1893 H 0.15069 0.78782 0.6456 0.0
C1894 C 0.10109 0.78118 0.66546 0.0
C1895 C 0.07608 0.77628 0.678 0.0
C1896 C 0.12438 0.77513 0.67819 0.0
C1897 C 0.07487 0.76568 0.70378 0.0
C1898 C 0.09806 0.75986 0.71672 0.0
C1899 C 0.14631 0.75853 0.71686 0.0
C1900 C 0.17127 0.76378 0.70429 0.0
C1901 C 0.12288 0.76434 0.70404 0.0
C1902 C 0.1724 0.77412 0.67845 0.0
C1903 C 0.14916 0.77964 0.66545 0.0
H1904 H 0.99649 0.37013 0.44835 0.0
H1905 H 0.08132 0.37296 0.46846 0.0
H1906 H 0.08816 0.42284 0.49148 0.0
H1907 H 0.06906 0.46515 0.50677 0.0
H1908 H 0.98514 0.46274 0.48191 0.0
H1909 H 0.97875 0.41316 0.45969 0.0
C1910 C 0.01647 0.38175 0.4578 0.0
C1911 C 0.0383 0.36806 0.45724 0.0
C1912 C 0.02031 0.41039 0.47007 0.0
C1913 C 0.06427 0.38328 0.46888 0.0
C1914 C 0.06811 0.41166 0.48203 0.0
C1915 C 0.04948 0.45366 0.49639 0.0
C1916 C 0.0275 0.46726 0.49616 0.0
C1917 C 0.04617 0.42536 0.48292 0.0
C1918 C 1.0023 0.45258 0.48233 0.0
C1919 C 0.99861 0.42425 0.4697 0.0
H1920 H 0.42191 0.24211 0.21145 0.0
H1921 H 0.42711 0.31632 0.16625 0.0
H1922 H 0.38929 0.32906 0.19037 0.0
H1923 H 0.35264 0.31714 0.22222 0.0
H1924 H 0.34663 0.24145 0.26542 0.0
H1925 H 0.38708 0.23158 0.24455 0.0
C1926 C 0.41491 0.26118 0.20693 0.0
C1927 C 0.42727 0.2781 0.1869 0.0
C1928 C 0.39302 0.26821 0.22066 0.0
C1929 C 0.41791 0.30279 0.18144 0.0
C1930 C 0.39629 0.31013 0.19527 0.0
C1931 C 0.36059 0.29889 0.2275 0.0
C1932 C 0.34673 0.28014 0.24546 0.0
C1933 C 0.38345 0.29279 0.21471 0.0
C1934 C 0.35694 0.25623 0.25169 0.0
C1935 C 0.38 0.25048 0.23966 0.0
H1936 H 0.57029 0.54211 0.35538 0.0
H1937 H 0.60491 0.46855 0.36552 0.0
H1938 H 0.58004 0.45975 0.40682 0.0
H1939 H 0.5491 0.47407 0.44114 0.0
H1940 H 0.5168 0.5491 0.43113 0.0
H1941 H 0.53985 0.55609 0.38876 0.0
C1942 C 0.57234 0.52401 0.36647 0.0
C1943 C 0.58945 0.506 0.35722 0.0
C1944 C 0.55824 0.5193 0.39031 0.0
C1945 C 0.59189 0.48279 0.3721 0.0
C1946 C 0.57765 0.47773 0.39575 0.0
C1947 C 0.54692 0.49164 0.42938 0.0
C1948 C 0.53103 0.51085 0.43894 0.0
C1949 C 0.56081 0.49593 0.40517 0.0
C1950 C 0.52874 0.53394 0.42395 0.0
C1951 C 0.54198 0.53799 0.39979 0.0
H1952 H 0.25042 0.82508 0.05582 0.0
H1953 H 0.2146 0.89086 0.0961 0.0
H1954 H 0.21065 0.86569 0.13731 0.0
H1955 H 0.22231 0.82839 0.16344 0.0
H1956 H 0.26174 0.76513 0.12448 0.0
H1957 H 0.25902 0.78568 0.08093 0.0
C1958 C 0.2413 0.83364 0.07343 0.0
C1959 C 0.23301 0.8599 0.07301 0.0
C1960 C 0.23994 0.81963 0.0973 0.0
C1961 C 0.22136 0.87081 0.09604 0.0
C1962 C 0.21912 0.85646 0.11959 0.0
C1963 C 0.22989 0.81882 0.14527 0.0
C1964 C 0.24237 0.79548 0.14704 0.0
C1965 C 0.2291 0.83137 0.1207 0.0
C1966 C 0.25215 0.78322 0.1235 0.0
C1967 C 0.25068 0.79502 0.09869 0.0
H1968 H 1.00049 0.57722 0.84561 0.0
H1969 H 0.91767 0.54404 0.86618 0.0
H1970 H 0.93433 0.53722 0.91226 0.0
H1971 H 0.97307 0.53488 0.94402 0.0
H1972 H 0.05559 0.57262 0.92492 0.0
H1973 H 0.03857 0.58325 0.88065 0.0
C1974 C 0.98615 0.56929 0.86053 0.0
C1975 C 0.95803 0.56105 0.85279 0.0
C1976 C 0.99586 0.56572 0.88689 0.0
C1977 C 0.93943 0.55076 0.87201 0.0
C1978 C 0.94897 0.54655 0.89816 0.0
C1979 C 0.9872 0.54615 0.93051 0.0
C1980 C 0.01548 0.5528 0.93762 0.0
C1981 C 0.97721 0.55308 0.90548 0.0
C1982 C 0.03369 0.56716 0.91981 0.0
C1983 C 0.024 0.57325 0.8945 0.0
H1984 H 0.25125 0.17038 0.59514 0.0
H1985 H 0.30694 0.24468 0.56935 0.0
H1986 H 0.31025 0.27058 0.61575 0.0
H1987 H 0.2977 0.27161 0.664 0.0
H1988 H 0.2383 0.19912 0.68822 0.0
H1989 H 0.23574 0.17306 0.64214 0.0
C1990 C 0.26415 0.19223 0.59977 0.0
C1991 C 0.2792 0.20549 0.57906 0.0
C1992 C 0.26511 0.20731 0.62617 0.0
C1993 C 0.29534 0.23402 0.58505 0.0
C1994 C 0.2972 0.24879 0.61155 0.0
C1995 C 0.28409 0.25017 0.65909 0.0
C1996 C 0.26829 0.23722 0.67952 0.0
C1997 C 0.28224 0.23561 0.63231 0.0
C1998 C 0.25052 0.2096 0.67282 0.0
C1999 C 0.24918 0.19463 0.64652 0.0
H2000 H 0.58318 0.5346 0.22035 0.0
H2001 H 0.63577 0.48345 0.18413 0.0
H2002 H 0.61992 0.49109 0.13828 0.0
H2003 H 0.59245 0.51371 0.10842 0.0
H2004 H 0.5399 0.56497 0.14422 0.0
H2005 H 0.55474 0.55631 0.19028 0.0
C2006 C 0.59083 0.52469 0.20243 0.0
C2007 C 0.61058 0.50833 0.20577 0.0
C2008 C 0.58205 0.5297 0.17605 0.0
C2009 C 0.62053 0.49606 0.18224 0.0
C2010 C 0.61161 0.50057 0.15598 0.0
C2011 C 0.58442 0.5232 0.12632 0.0
C2012 C 0.56535 0.54025 0.12297 0.0
C2013 C 0.59273 0.51774 0.15265 0.0
C2014 C 0.55481 0.55202 0.14632 0.0
C2015 C 0.56317 0.5469 0.17263 0.0
H2016 H 0.25538 0.80415 0.93331 0.0
H2017 H 0.21869 0.87085 0.90567 0.0
H2018 H 0.21526 0.84788 0.85838 0.0
H2019 H 0.22725 0.81197 0.82458 0.0
H2020 H 0.26434 0.74563 0.85174 0.0
H2021 H 0.26299 0.76521 0.89985 0.0
C2022 C 0.24629 0.81345 0.91699 0.0
C2023 C 0.23761 0.83937 0.92291 0.0
C2024 C 0.24465 0.8003 0.88988 0.0
C2025 C 0.22559 0.85097 0.90163 0.0
C2026 C 0.22374 0.83793 0.87459 0.0
C2027 C 0.23457 0.80159 0.84117 0.0
C2028 C 0.24593 0.77758 0.83505 0.0
C2029 C 0.23388 0.81309 0.86845 0.0
C2030 C 0.25542 0.76408 0.85631 0.0
C2031 C 0.25476 0.77537 0.88366 0.0
H2032 H 0.98977 0.55383 0.71478 0.0
H2033 H 0.94242 0.61306 0.68993 0.0
H2034 H 0.9658 0.61712 0.64748 0.0
H2035 H 0.99416 0.59792 0.61465 0.0
H2036 H 0.03845 0.53536 0.63765 0.0
H2037 H 0.02208 0.53872 0.6838 0.0
C2038 C 0.9851 0.56823 0.70042 0.0
C2039 C 0.96424 0.58292 0.70532 0.0
C2040 C 0.99776 0.56946 0.67555 0.0
C2041 C 0.95826 0.60136 0.68646 0.0
C2042 C 0.97152 0.60358 0.66215 0.0
C2043 C 1.00058 0.5854 0.62994 0.0
C2044 C 0.01711 0.56611 0.62281 0.0
C2045 C 0.99042 0.58677 0.656 0.0
C2046 C 0.02552 0.55017 0.64273 0.0
C2047 C 0.01611 0.55203 0.66904 0.0
H2048 H 0.23559 0.22137 0.41755 0.0
H2049 H 0.32019 0.21803 0.42816 0.0
H2050 H 0.33031 0.24335 0.38726 0.0
H2051 H 0.31482 0.26685 0.3481 0.0
H2052 H 0.22906 0.2651 0.33576 0.0
H2053 H 0.21971 0.2416 0.37741 0.0
C2054 C 0.25626 0.22623 0.41094 0.0
C2055 C 0.27715 0.21807 0.42608 0.0
C2056 C 0.26173 0.24 0.38697 0.0
C2057 C 0.30373 0.22409 0.41692 0.0
C2058 C 0.30953 0.23864 0.39354 0.0
C2059 C 0.29416 0.26135 0.35467 0.0
C2060 C 0.27272 0.26802 0.339 0.0
C2061 C 0.28869 0.24681 0.37837 0.0
C2062 C 0.24594 0.26029 0.34746 0.0
C2063 C 0.24055 0.24685 0.37132 0.0
H2064 H 0.3398 0.57167 0.55417 0.0
H2065 H 0.3546 0.62027 0.48437 0.0
H2066 H 0.385 0.5901 0.46762 0.0
H2067 H 0.41059 0.55314 0.47521 0.0
H2068 H 0.39761 0.50645 0.54629 0.0
H2069 H 0.36263 0.53216 0.55982 0.0
C2070 C 0.34954 0.57559 0.5352 0.0
C2071 C 0.34523 0.59845 0.52073 0.0
C2072 C 0.3671 0.55833 0.52583 0.0
C2073 C 0.35776 0.60299 0.49603 0.0
C2074 C 0.37509 0.5857 0.4864 0.0
C2075 C 0.39956 0.54804 0.49325 0.0
C2076 C 0.40657 0.52795 0.50976 0.0
C2077 C 0.38028 0.56368 0.50141 0.0
C2078 C 0.3924 0.52174 0.53323 0.0
C2079 C 0.37262 0.53664 0.54109 0.0
H2080 H 0.8485 0.98362 0.5689 0.0
H2081 H 0.86255 0.91857 0.50697 0.0
H2082 H 0.90873 0.94776 0.50306 0.0
H2083 H 0.94639 0.99033 0.51946 0.0
H2084 H 0.9336 0.05288 0.58434 0.0
H2085 H 0.8857 0.02663 0.58445 0.0
C2086 C 0.86157 0.97597 0.55436 0.0
C2087 C 0.85206 0.94889 0.53835 0.0
C2088 C 0.8884 0.99255 0.55266 0.0
C2089 C 0.86939 0.93922 0.51974 0.0
C2090 C 0.89582 0.95595 0.51741 0.0
C2091 C 0.93295 0.99842 0.53324 0.0
C2092 C 0.94338 0.02355 0.55175 0.0
C2093 C 0.90571 0.98246 0.53403 0.0
C2094 C 0.92591 0.0336 0.56984 0.0
C2095 C 0.89858 0.01853 0.57001 0.0
H2096 H 0.84173 0.11675 0.26897 0.0
H2097 H 0.79596 0.08439 0.19111 0.0
H2098 H 0.77034 0.12205 0.19743 0.0
H2099 H 0.76257 0.16614 0.22383 0.0
H2100 H 0.8091 0.19899 0.3012 0.0
H2101 H 0.83226 0.15919 0.29647 0.0
C2102 C 0.82606 0.11782 0.25343 0.0
C2103 C 0.82099 0.09773 0.22952 0.0
C2104 C 0.81132 0.13966 0.25717 0.0
C2105 C 0.80046 0.09952 0.2097 0.0
C2106 C 0.78571 0.12109 0.2133 0.0
C2107 C 0.77731 0.16421 0.23996 0.0
C2108 C 0.78389 0.18554 0.26294 0.0
C2109 C 0.7911 0.14148 0.23684 0.0
C2110 C 0.80351 0.18292 0.28333 0.0
C2111 C 0.81692 0.16019 0.28059 0.0
H2112 H 0.69668 0.14656 0.0372 0.0
H2113 H 0.71493 0.06993 0.99518 0.0
H2114 H 0.66638 0.04482 0.99181 0.0
H2115 H 0.61915 0.04401 1.00278 0.0
H2116 H 0.60162 0.11871 0.04921 0.0
H2117 H 0.64948 0.14536 0.04903 0.0
C2118 C 0.68986 0.12449 0.02705 0.0
C2119 C 0.70906 0.11008 0.01622 0.0
C2120 C 0.66217 0.10987 0.02621 0.0
C2121 C 0.70031 0.08132 0.0036 0.0
C2122 C 0.67265 0.06701 1.0017 0.0
C2123 C 0.62585 0.0662 0.01266 0.0
C2124 C 0.60708 0.07952 0.02589 0.0
C2125 C 0.65346 0.08095 0.01323 0.0
C2126 C 0.6159 0.10807 0.03902 0.0
C2127 C 0.64317 0.1233 0.03885 0.0
H2128 H 0.19211 0.45281 0.26431 0.0
H2129 H 0.21134 0.44392 0.17948 0.0
H2130 H 0.24696 0.41939 0.19149 0.0
H2131 H 0.26965 0.39643 0.22514 0.0
H2132 H 0.24958 0.40341 0.30966 0.0
H2133 H 0.21798 0.43352 0.29891 0.0
C2134 C 0.20409 0.44547 0.24846 0.0
C2135 C 0.19874 0.44977 0.22097 0.0
C2136 C 0.22461 0.43131 0.2555 0.0
C2137 C 0.21478 0.4406 0.20076 0.0
C2138 C 0.23524 0.42663 0.2076 0.0
C2139 C 0.25889 0.40517 0.24136 0.0
C2140 C 0.26182 0.39763 0.26811 0.0
C2141 C 0.24002 0.42144 0.2348 0.0
C2142 C 0.24773 0.40903 0.28891 0.0
C2143 C 0.22939 0.42592 0.28269 0.0
H2144 H 0.19519 0.44372 0.00402 0.0
H2145 H 0.20157 0.47041 0.09125 0.0
H2146 H 0.16359 0.49379 0.08581 0.0
H2147 H 0.1279 0.50619 0.05636 0.0
H2148 H 0.12205 0.48038 0.96907 0.0
H2149 H 0.16043 0.45745 0.9744 0.0
C2150 C 0.18825 0.45462 0.02184 0.0
C2151 C 0.20121 0.45516 0.04802 0.0
C2152 C 0.16652 0.46838 0.01854 0.0
C2153 C 0.19204 0.46962 0.07084 0.0
C2154 C 0.17028 0.48304 0.06776 0.0
C2155 C 0.13523 0.49579 0.0385 0.0
C2156 C 0.12222 0.4951 0.01235 0.0
C2157 C 0.15734 0.48257 0.04172 0.0
C2158 C 0.1318 0.48135 0.98942 0.0
C2159 C 0.1537 0.46812 0.99245 0.0
H2160 H 0.80861 0.94869 0.21704 0.0
H2161 H 0.88114 0.94516 0.26592 0.0
H2162 H 0.85934 0.89642 0.27599 0.0
H2163 H 0.8192 0.85505 0.27231 0.0
H2164 H 0.74723 0.85725 0.22216 0.0
H2165 H 0.76912 0.90605 0.21145 0.0
C2166 C 0.81967 0.93723 0.22981 0.0
C2167 C 0.84648 0.9508 0.24073 0.0
C2168 C 0.80705 0.9089 0.23549 0.0
C2169 C 0.86051 0.93541 0.25713 0.0
C2170 C 0.84804 0.90746 0.26303 0.0
C2171 C 0.80841 0.86614 0.25889 0.0
C2172 C 0.78164 0.85259 0.24811 0.0
C2173 C 0.82126 0.89406 0.25251 0.0
C2174 C 0.76787 0.86725 0.23078 0.0
C2175 C 0.78038 0.89518 0.22463 0.0
H2176 H 0.64646 0.10902 0.72396 0.0
H2177 H 0.70384 0.07242 0.76808 0.0
H2178 H 0.73787 0.11901 0.77232 0.0
H2179 H 0.75114 0.17009 0.76348 0.0
H2180 H 0.6955 0.2057 0.71569 0.0
H2181 H 0.66098 0.15952 0.71245 0.0
C2182 C 0.66641 0.11148 0.73456 0.0
C2183 C 0.67276 0.0878 0.74603 0.0
C2184 C 0.68615 0.13796 0.736 0.0
C2185 C 0.6987 0.09067 0.75928 0.0
C2186 C 0.71809 0.11718 0.76166 0.0
C2187 C 0.73148 0.16761 0.75227 0.0
C2188 C 0.72572 0.19107 0.7399 0.0
C2189 C 0.71204 0.14095 0.75007 0.0
C2190 C 0.70037 0.18771 0.72517 0.0
C2191 C 0.68059 0.16143 0.72348 0.0
loop_
_geom_bond_atom_site_label_1
_geom_bond_atom_site_label_2
_geom_bond_distance
_geom_bond_site_symmetry_2
_ccdc_geom_bond_type
O0 Cd1 2.223 . S
O0 C8 1.315 . S
Cd1 O0 2.223 . S
Cd1 O4 2.297 . S
Cd1 O5 2.439 . S
Cd1 O11 2.240 1_455 S
Cd2 O3 2.240 . S
Cd2 O10 2.223 1_455 S
Cd2 O12 2.297 . S
Cd2 O13 2.439 . S
O3 Cd2 2.240 . S
O3 C8 1.279 . S
O4 Cd1 2.297 . S
O4 C6 1.247 . S
O5 Cd1 2.439 . S
O5 C6 1.208 . S
C6 O4 1.247 . S
C6 O5 1.208 . S
C7 O12 1.247 . S
C7 O13 1.208 . S
C8 O0 1.315 . S
C8 O3 1.279 . S
C9 O10 1.315 . S
C9 O11 1.279 . S
O10 Cd2 2.223 1_655 S
O10 C9 1.315 . S
O11 Cd1 2.240 1_655 S
O11 C9 1.279 . S
O12 Cd2 2.297 . S
O12 C7 1.247 . S
O13 Cd2 2.439 . S
O13 C7 1.208 . S
O14 Cd15 2.223 1_455 S
O14 C22 1.315 1_455 S
Cd15 O14 2.223 1_655 S
Cd15 O18 2.297 . S
Cd15 O19 2.439 . S
Cd15 O25 2.240 1_655 S
Cd16 O17 2.240 1_455 S
Cd16 O24 2.223 . S
Cd16 O26 2.297 . S
Cd16 O27 2.439 . S
O17 Cd16 2.240 1_655 S
O17 C22 1.280 . S
O18 Cd15 2.297 . S
O18 C20 1.247 . S
O19 Cd15 2.439 . S
O19 C20 1.208 . S
C20 O18 1.247 . S
C20 O19 1.208 . S
C21 O26 1.247 . S
C21 O27 1.208 . S
C22 O14 1.315 1_655 S
C22 O17 1.280 . S
C23 O24 1.315 . S
C23 O25 1.279 . S
O24 Cd16 2.223 . S
O24 C23 1.315 . S
O25 Cd15 2.240 1_455 S
O25 C23 1.279 . S
O26 Cd16 2.297 . S
O26 C21 1.247 . S
O27 Cd16 2.439 . S
O27 C21 1.208 . S
O28 Cd29 2.223 . S
O28 C36 1.315 . S
Cd29 O28 2.223 . S
Cd29 O32 2.297 . S
Cd29 O33 2.439 . S
Cd29 O39 2.240 . S
Cd30 O31 2.240 . S
Cd30 O38 2.223 . S
Cd30 O40 2.297 . S
Cd30 O41 2.439 . S
O31 Cd30 2.240 . S
O31 C36 1.279 . S
O32 Cd29 2.297 . S
O32 C34 1.247 . S
O33 Cd29 2.439 . S
O33 C34 1.208 . S
C34 O32 1.247 . S
C34 O33 1.208 . S
C35 O40 1.247 . S
C35 O41 1.208 . S
C36 O28 1.315 . S
C36 O31 1.279 . S
C37 O38 1.315 . S
C37 O39 1.279 . S
O38 Cd30 2.223 . S
O38 C37 1.315 . S
O39 Cd29 2.240 . S
O39 C37 1.279 . S
O40 Cd30 2.297 . S
O40 C35 1.247 . S
O41 Cd30 2.439 . S
O41 C35 1.208 . S
O42 Cd43 2.223 . S
O42 C50 1.315 . S
Cd43 O42 2.223 . S
Cd43 O46 2.297 . S
Cd43 O47 2.439 . S
Cd43 O53 2.240 . S
Cd44 O45 2.240 . S
Cd44 O52 2.223 . S
Cd44 O54 2.297 . S
Cd44 O55 2.439 . S
O45 Cd44 2.240 . S
O45 C50 1.279 . S
O46 Cd43 2.297 . S
O46 C48 1.247 . S
O47 Cd43 2.439 . S
O47 C48 1.208 . S
C48 O46 1.247 . S
C48 O47 1.208 . S
C49 O54 1.247 . S
C49 O55 1.208 . S
C50 O42 1.315 . S
C50 O45 1.279 . S
C51 O52 1.315 . S
C51 O53 1.279 . S
O52 Cd44 2.223 . S
O52 C51 1.315 . S
O53 Cd43 2.240 . S
O53 C51 1.279 . S
O54 Cd44 2.297 . S
O54 C49 1.247 . S
O55 Cd44 2.439 . S
O55 C49 1.208 . S
O56 Cd57 2.223 . S
O56 C64 1.315 . S
Cd57 O56 2.223 . S
Cd57 O60 2.297 1_455 S
Cd57 O61 2.439 1_455 S
Cd57 O67 2.240 . S
Cd58 O59 2.240 . S
Cd58 O66 2.223 . S
Cd58 O68 2.297 . S
Cd58 O69 2.439 . S
O59 Cd58 2.240 . S
O59 C64 1.279 . S
O60 Cd57 2.297 1_655 S
O60 C62 1.247 . S
O61 Cd57 2.439 1_655 S
O61 C62 1.208 . S
C62 O60 1.247 . S
C62 O61 1.208 . S
C63 O68 1.247 . S
C63 O69 1.208 . S
C64 O56 1.315 . S
C64 O59 1.279 . S
C65 O66 1.315 . S
C65 O67 1.279 . S
O66 Cd58 2.223 . S
O66 C65 1.315 . S
O67 Cd57 2.240 . S
O67 C65 1.279 . S
O68 Cd58 2.297 . S
O68 C63 1.247 . S
O69 Cd58 2.439 . S
O69 C63 1.208 . S
O70 Cd71 2.223 . S
O70 C78 1.315 . S
Cd71 O70 2.223 . S
Cd71 O74 2.297 . S
Cd71 O75 2.439 . S
Cd71 O81 2.240 . S
Cd72 O73 2.240 . S
Cd72 O80 2.223 . S
Cd72 O82 2.297 . S
Cd72 O83 2.439 . S
O73 Cd72 2.240 . S
O73 C78 1.279 . S
O74 Cd71 2.297 . S
O74 C76 1.247 . S
O75 Cd71 2.439 . S
O75 C76 1.208 . S
C76 O74 1.247 . S
C76 O75 1.208 . S
C77 O82 1.247 . S
C77 O83 1.208 . S
C78 O70 1.315 . S
C78 O73 1.279 . S
C79 O80 1.315 . S
C79 O81 1.279 . S
O80 Cd72 2.223 . S
O80 C79 1.315 . S
O81 Cd71 2.240 . S
O81 C79 1.279 . S
O82 Cd72 2.297 . S
O82 C77 1.247 . S
O83 Cd72 2.439 . S
O83 C77 1.208 . S
O84 Cd85 2.223 . S
O84 C92 1.315 . S
Cd85 O84 2.223 . S
Cd85 O88 2.297 . S
Cd85 O89 2.439 . S
Cd85 O95 2.240 . S
Cd86 O87 2.240 . S
Cd86 O94 2.223 . S
Cd86 O96 2.297 . S
Cd86 O97 2.439 . S
O87 Cd86 2.240 . S
O87 C92 1.279 . S
O88 Cd85 2.297 . S
O88 C90 1.247 . S
O89 Cd85 2.439 . S
O89 C90 1.208 . S
C90 O88 1.247 . S
C90 O89 1.208 . S
C91 O96 1.247 . S
C91 O97 1.208 . S
C92 O84 1.315 . S
C92 O87 1.279 . S
C93 O94 1.315 . S
C93 O95 1.279 . S
O94 Cd86 2.223 . S
O94 C93 1.315 . S
O95 Cd85 2.240 . S
O95 C93 1.279 . S
O96 Cd86 2.297 . S
O96 C91 1.247 . S
O97 Cd86 2.439 . S
O97 C91 1.208 . S
O98 Cd99 2.223 1_655 S
O98 C106 1.315 . S
Cd99 O98 2.223 1_455 S
Cd99 O102 2.297 . S
Cd99 O103 2.439 . S
Cd99 O109 2.240 1_455 S
Cd100 O101 2.240 1_655 S
Cd100 O108 2.223 . S
Cd100 O110 2.297 . S
Cd100 O111 2.439 1_655 S
O101 Cd100 2.240 1_455 S
O101 C106 1.279 1_455 S
O102 Cd99 2.297 . S
O102 C104 1.247 . S
O103 Cd99 2.439 . S
O103 C104 1.208 . S
C104 O102 1.247 . S
C104 O103 1.208 . S
C105 O110 1.247 1_455 S
C105 O111 1.208 . S
C106 O98 1.315 . S
C106 O101 1.279 1_655 S
C107 O108 1.315 . S
C107 O109 1.279 . S
O108 Cd100 2.223 . S
O108 C107 1.315 . S
O109 Cd99 2.240 1_655 S
O109 C107 1.279 . S
O110 Cd100 2.297 . S
O110 C105 1.247 1_655 S
O111 Cd100 2.439 1_455 S
O111 C105 1.208 . S
O112 Cd113 2.223 . S
O112 C120 1.315 . S
Cd113 O112 2.223 . S
Cd113 O116 2.297 . S
Cd113 O117 2.439 . S
Cd113 O123 2.240 1_545 S
Cd114 O115 2.240 . S
Cd114 O122 2.223 1_545 S
Cd114 O124 2.297 . S
Cd114 O125 2.439 . S
O115 Cd114 2.240 . S
O115 C120 1.279 . S
O116 Cd113 2.297 . S
O116 C118 1.247 . S
O117 Cd113 2.439 . S
O117 C118 1.208 . S
C118 O116 1.247 . S
C118 O117 1.208 . S
C119 O124 1.247 . S
C119 O125 1.208 . S
C120 O112 1.315 . S
C120 O115 1.279 . S
C121 O122 1.315 . S
C121 O123 1.279 . S
O122 Cd114 2.223 1_565 S
O122 C121 1.315 . S
O123 Cd113 2.240 1_565 S
O123 C121 1.279 . S
O124 Cd114 2.297 . S
O124 C119 1.247 . S
O125 Cd114 2.439 . S
O125 C119 1.208 . S
O126 Cd127 2.223 . S
O126 C134 1.315 . S
Cd127 O126 2.223 . S
Cd127 O130 2.297 . S
Cd127 O131 2.439 . S
Cd127 O137 2.240 . S
Cd128 O129 2.240 . S
Cd128 O136 2.223 . S
Cd128 O138 2.297 . S
Cd128 O139 2.439 . S
O129 Cd128 2.240 . S
O129 C134 1.279 . S
O130 Cd127 2.297 . S
O130 C132 1.247 . S
O131 Cd127 2.439 . S
O131 C132 1.208 . S
C132 O130 1.247 . S
C132 O131 1.208 . S
C133 O138 1.247 . S
C133 O139 1.208 . S
C134 O126 1.315 . S
C134 O129 1.279 . S
C135 O136 1.315 . S
C135 O137 1.279 . S
O136 Cd128 2.223 . S
O136 C135 1.315 . S
O137 Cd127 2.240 . S
O137 C135 1.279 . S
O138 Cd128 2.297 . S
O138 C133 1.247 . S
O139 Cd128 2.439 . S
O139 C133 1.208 . S
O140 Cd141 2.223 1_545 S
O140 C148 1.315 1_545 S
Cd141 O140 2.223 1_565 S
Cd141 O144 2.297 . S
Cd141 O145 2.439 . S
Cd141 O151 2.240 1_565 S
Cd142 O143 2.240 1_545 S
Cd142 O150 2.223 . S
Cd142 O152 2.297 . S
Cd142 O153 2.439 1_545 S
O143 Cd142 2.240 1_565 S
O143 C148 1.279 . S
O144 Cd141 2.297 . S
O144 C146 1.247 . S
O145 Cd141 2.439 . S
O145 C146 1.208 . S
C146 O144 1.247 . S
C146 O145 1.208 . S
C147 O152 1.247 . S
C147 O153 1.208 1_545 S
C148 O140 1.315 1_565 S
C148 O143 1.279 . S
C149 O150 1.315 . S
C149 O151 1.279 . S
O150 Cd142 2.223 . S
O150 C149 1.315 . S
O151 Cd141 2.240 1_545 S
O151 C149 1.279 . S
O152 Cd142 2.297 . S
O152 C147 1.247 . S
O153 Cd142 2.439 1_565 S
O153 C147 1.208 1_565 S
O154 Cd155 2.223 . S
O154 C162 1.315 . S
Cd155 O154 2.223 . S
Cd155 O158 2.297 . S
Cd155 O159 2.439 . S
Cd155 O165 2.240 . S
Cd156 O157 2.240 1_556 S
Cd156 O164 2.223 1_556 S
Cd156 O166 2.297 . S
Cd156 O167 2.439 . S
O157 Cd156 2.240 1_554 S
O157 C162 1.279 . S
O158 Cd155 2.297 . S
O158 C160 1.247 . S
O159 Cd155 2.439 . S
O159 C160 1.208 . S
C160 O158 1.247 . S
C160 O159 1.208 . S
C161 O166 1.247 . S
C161 O167 1.208 . S
C162 O154 1.315 . S
C162 O157 1.279 . S
C163 O164 1.315 . S
C163 O165 1.279 . S
O164 Cd156 2.223 1_554 S
O164 C163 1.315 . S
O165 Cd155 2.240 . S
O165 C163 1.279 . S
O166 Cd156 2.297 . S
O166 C161 1.247 . S
O167 Cd156 2.439 . S
O167 C161 1.208 . S
O168 Cd169 2.223 . S
O168 C176 1.315 . S
Cd169 O168 2.223 . S
Cd169 O172 2.297 . S
Cd169 O173 2.439 . S
Cd169 O179 2.240 . S
Cd170 O171 2.240 . S
Cd170 O178 2.223 . S
Cd170 O180 2.297 1_554 S
Cd170 O181 2.439 1_554 S
O171 Cd170 2.240 . S
O171 C176 1.279 . S
O172 Cd169 2.297 . S
O172 C174 1.247 . S
O173 Cd169 2.439 . S
O173 C174 1.208 . S
C174 O172 1.247 . S
C174 O173 1.208 . S
C175 O180 1.247 . S
C175 O181 1.208 . S
C176 O168 1.315 . S
C176 O171 1.279 . S
C177 O178 1.315 . S
C177 O179 1.279 . S
O178 Cd170 2.223 . S
O178 C177 1.315 . S
O179 Cd169 2.240 . S
O179 C177 1.279 . S
O180 Cd170 2.297 1_556 S
O180 C175 1.247 . S
O181 Cd170 2.439 1_556 S
O181 C175 1.208 . S
O182 Cd183 2.223 . S
O182 C190 1.315 . S
Cd183 O182 2.223 . S
Cd183 O186 2.297 . S
Cd183 O187 2.439 1_554 S
Cd183 O193 2.240 1_554 S
Cd184 O185 2.240 1_556 S
Cd184 O192 2.223 1_556 S
Cd184 O194 2.297 . S
Cd184 O195 2.439 . S
O185 Cd184 2.240 1_554 S
O185 C190 1.279 . S
O186 Cd183 2.297 . S
O186 C188 1.247 . S
O187 Cd183 2.439 1_556 S
O187 C188 1.208 1_556 S
C188 O186 1.247 . S
C188 O187 1.208 1_554 S
C189 O194 1.247 . S
C189 O195 1.208 . S
C190 O182 1.315 . S
C190 O185 1.279 . S
C191 O192 1.315 1_556 S
C191 O193 1.281 . S
O192 Cd184 2.223 1_554 S
O192 C191 1.315 1_554 S
O193 Cd183 2.240 1_556 S
O193 C191 1.281 . S
O194 Cd184 2.297 . S
O194 C189 1.247 . S
O195 Cd184 2.439 . S
O195 C189 1.208 . S
O196 Cd197 2.223 . S
O196 C204 1.315 . S
Cd197 O196 2.223 . S
Cd197 O200 2.297 . S
Cd197 O201 2.439 . S
Cd197 O207 2.240 . S
Cd198 O199 2.240 . S
Cd198 O206 2.223 . S
Cd198 O208 2.297 . S
Cd198 O209 2.439 . S
O199 Cd198 2.240 . S
O199 C204 1.279 . S
O200 Cd197 2.297 . S
O200 C202 1.247 . S
O201 Cd197 2.439 . S
O201 C202 1.208 . S
C202 O200 1.247 . S
C202 O201 1.208 . S
C203 O208 1.247 . S
C203 O209 1.208 . S
C204 O196 1.315 . S
C204 O199 1.279 . S
C205 O206 1.315 . S
C205 O207 1.279 . S
O206 Cd198 2.223 . S
O206 C205 1.315 . S
O207 Cd197 2.240 . S
O207 C205 1.279 . S
O208 Cd198 2.297 . S
O208 C203 1.247 . S
O209 Cd198 2.439 . S
O209 C203 1.208 . S
O210 Cd211 2.223 . S
O210 C218 1.315 . S
Cd211 O210 2.223 . S
Cd211 O214 2.297 . S
Cd211 O215 2.439 . S
Cd211 O221 2.240 . S
Cd212 O213 2.240 . S
Cd212 O220 2.223 . S
Cd212 O222 2.297 . S
Cd212 O223 2.439 . S
O213 Cd212 2.240 . S
O213 C218 1.279 . S
O214 Cd211 2.297 . S
O214 C216 1.247 . S
O215 Cd211 2.439 . S
O215 C216 1.208 . S
C216 O214 1.247 . S
C216 O215 1.208 . S
C217 O222 1.247 . S
C217 O223 1.208 . S
C218 O210 1.315 . S
C218 O213 1.279 . S
C219 O220 1.315 . S
C219 O221 1.279 . S
O220 Cd212 2.223 . S
O220 C219 1.315 . S
O221 Cd211 2.240 . S
O221 C219 1.279 . S
O222 Cd212 2.297 . S
O222 C217 1.247 . S
O223 Cd212 2.439 . S
O223 C217 1.208 . S
O224 Cd225 2.223 . S
O224 C232 1.315 . S
Cd225 O224 2.223 . S
Cd225 O228 2.297 . S
Cd225 O229 2.439 . S
Cd225 O235 2.240 . S
Cd226 O227 2.240 . S
Cd226 O234 2.223 1_545 S
Cd226 O236 2.297 . S
Cd226 O237 2.439 . S
O227 Cd226 2.240 . S
O227 C232 1.279 . S
O228 Cd225 2.297 . S
O228 C230 1.247 . S
O229 Cd225 2.439 . S
O229 C230 1.208 . S
C230 O228 1.247 . S
C230 O229 1.208 . S
C231 O236 1.247 . S
C231 O237 1.208 . S
C232 O224 1.315 . S
C232 O227 1.279 . S
C233 O234 1.315 . S
C233 O235 1.279 1_565 S
O234 Cd226 2.223 1_565 S
O234 C233 1.315 . S
O235 Cd225 2.240 . S
O235 C233 1.279 1_545 S
O236 Cd226 2.297 . S
O236 C231 1.247 . S
O237 Cd226 2.439 . S
O237 C231 1.208 . S
O238 Cd239 2.223 . S
O238 C246 1.315 . S
Cd239 O238 2.223 . S
Cd239 O242 2.297 . S
Cd239 O243 2.439 . S
Cd239 O249 2.240 . S
Cd240 O241 2.240 . S
Cd240 O248 2.223 . S
Cd240 O250 2.297 . S
Cd240 O251 2.439 . S
O241 Cd240 2.240 . S
O241 C246 1.279 . S
O242 Cd239 2.297 . S
O242 C244 1.247 . S
O243 Cd239 2.439 . S
O243 C244 1.208 . S
C244 O242 1.247 . S
C244 O243 1.208 . S
C245 O250 1.247 . S
C245 O251 1.208 . S
C246 O238 1.315 . S
C246 O241 1.279 . S
C247 O248 1.315 . S
C247 O249 1.279 . S
O248 Cd240 2.223 . S
O248 C247 1.315 . S
O249 Cd239 2.240 . S
O249 C247 1.279 . S
O250 Cd240 2.297 . S
O250 C245 1.247 . S
O251 Cd240 2.439 . S
O251 C245 1.208 . S
O252 Cd253 2.223 . S
O252 C260 1.315 . S
Cd253 O252 2.223 . S
Cd253 O256 2.297 . S
Cd253 O257 2.439 . S
Cd253 O263 2.240 . S
Cd254 O255 2.240 . S
Cd254 O262 2.223 . S
Cd254 O264 2.297 . S
Cd254 O265 2.439 . S
O255 Cd254 2.240 . S
O255 C260 1.279 . S
O256 Cd253 2.297 . S
O256 C258 1.247 . S
O257 Cd253 2.439 . S
O257 C258 1.208 . S
C258 O256 1.247 . S
C258 O257 1.208 . S
C259 O264 1.247 . S
C259 O265 1.208 . S
C260 O252 1.315 . S
C260 O255 1.279 . S
C261 O262 1.315 . S
C261 O263 1.279 . S
O262 Cd254 2.223 . S
O262 C261 1.315 . S
O263 Cd253 2.240 . S
O263 C261 1.279 . S
O264 Cd254 2.297 . S
O264 C259 1.247 . S
O265 Cd254 2.439 . S
O265 C259 1.208 . S
O266 Cd267 2.223 . S
O266 C274 1.315 . S
Cd267 O266 2.223 . S
Cd267 O270 2.297 1_545 S
Cd267 O271 2.439 1_545 S
Cd267 O277 2.240 . S
Cd268 O269 2.240 . S
Cd268 O276 2.223 . S
Cd268 O278 2.297 . S
Cd268 O279 2.439 . S
O269 Cd268 2.240 . S
O269 C274 1.279 . S
O270 Cd267 2.297 1_565 S
O270 C272 1.247 . S
O271 Cd267 2.439 1_565 S
O271 C272 1.208 . S
C272 O270 1.247 . S
C272 O271 1.208 . S
C273 O278 1.247 . S
C273 O279 1.208 . S
C274 O266 1.315 . S
C274 O269 1.279 . S
C275 O276 1.315 . S
C275 O277 1.279 . S
O276 Cd268 2.223 . S
O276 C275 1.315 . S
O277 Cd267 2.240 . S
O277 C275 1.279 . S
O278 Cd268 2.297 . S
O278 C273 1.247 . S
O279 Cd268 2.439 . S
O279 C273 1.208 . S
O280 Cd281 2.223 . S
O280 C288 1.315 . S
Cd281 O280 2.223 . S
Cd281 O284 2.297 . S
Cd281 O285 2.439 . S
Cd281 O291 2.240 . S
Cd282 O283 2.240 . S
Cd282 O290 2.223 . S
Cd282 O292 2.297 1_554 S
Cd282 O293 2.439 1_554 S
O283 Cd282 2.240 . S
O283 C288 1.279 . S
O284 Cd281 2.297 . S
O284 C286 1.247 . S
O285 Cd281 2.439 . S
O285 C286 1.208 . S
C286 O284 1.247 . S
C286 O285 1.208 . S
C287 O292 1.247 . S
C287 O293 1.208 . S
C288 O280 1.315 . S
C288 O283 1.279 . S
C289 O290 1.315 . S
C289 O291 1.279 . S
O290 Cd282 2.223 . S
O290 C289 1.315 . S
O291 Cd281 2.240 . S
O291 C289 1.279 . S
O292 Cd282 2.297 1_556 S
O292 C287 1.247 . S
O293 Cd282 2.439 1_556 S
O293 C287 1.208 . S
O294 Cd295 2.223 . S
O294 C302 1.315 . S
Cd295 O294 2.223 . S
Cd295 O298 2.297 . S
Cd295 O299 2.439 . S
Cd295 O305 2.240 . S
Cd296 O297 2.240 . S
Cd296 O304 2.223 . S
Cd296 O306 2.297 . S
Cd296 O307 2.439 . S
O297 Cd296 2.240 . S
O297 C302 1.279 . S
O298 Cd295 2.297 . S
O298 C300 1.247 . S
O299 Cd295 2.439 . S
O299 C300 1.208 . S
C300 O298 1.247 . S
C300 O299 1.208 . S
C301 O306 1.247 . S
C301 O307 1.208 . S
C302 O294 1.315 . S
C302 O297 1.279 . S
C303 O304 1.315 . S
C303 O305 1.279 . S
O304 Cd296 2.223 . S
O304 C303 1.315 . S
O305 Cd295 2.240 . S
O305 C303 1.279 . S
O306 Cd296 2.297 . S
O306 C301 1.247 . S
O307 Cd296 2.439 . S
O307 C301 1.208 . S
O308 Cd309 2.223 . S
O308 C316 1.315 . S
Cd309 O308 2.223 . S
Cd309 O312 2.297 . S
Cd309 O313 2.439 . S
Cd309 O319 2.240 . S
Cd310 O311 2.240 . S
Cd310 O318 2.223 . S
Cd310 O320 2.297 . S
Cd310 O321 2.439 . S
O311 Cd310 2.240 . S
O311 C316 1.279 . S
O312 Cd309 2.297 . S
O312 C314 1.247 . S
O313 Cd309 2.439 . S
O313 C314 1.208 . S
C314 O312 1.247 . S
C314 O313 1.208 . S
C315 O320 1.247 . S
C315 O321 1.208 . S
C316 O308 1.315 . S
C316 O311 1.279 . S
C317 O318 1.315 . S
C317 O319 1.279 . S
O318 Cd310 2.223 . S
O318 C317 1.315 . S
O319 Cd309 2.240 . S
O319 C317 1.279 . S
O320 Cd310 2.297 . S
O320 C315 1.247 . S
O321 Cd310 2.439 . S
O321 C315 1.208 . S
O322 Cd323 2.223 . S
O322 C330 1.315 . S
Cd323 O322 2.223 . S
Cd323 O326 2.297 . S
Cd323 O327 2.439 . S
Cd323 O333 2.240 . S
Cd324 O325 2.240 . S
Cd324 O332 2.223 . S
Cd324 O334 2.297 . S
Cd324 O335 2.439 . S
O325 Cd324 2.240 . S
O325 C330 1.279 . S
O326 Cd323 2.297 . S
O326 C328 1.247 . S
O327 Cd323 2.439 . S
O327 C328 1.208 . S
C328 O326 1.247 . S
C328 O327 1.208 . S
C329 O334 1.247 . S
C329 O335 1.208 . S
C330 O322 1.315 . S
C330 O325 1.279 . S
C331 O332 1.315 . S
C331 O333 1.279 . S
O332 Cd324 2.223 . S
O332 C331 1.315 . S
O333 Cd323 2.240 . S
O333 C331 1.279 . S
O334 Cd324 2.297 . S
O334 C329 1.247 . S
O335 Cd324 2.439 . S
O335 C329 1.208 . S
Dy336 O340 2.398 1_554 S
Dy336 O341 2.491 . S
Dy336 O342 2.403 1_554 S
Dy336 O343 2.664 1_654 S
Dy336 O347 2.321 1_654 S
Dy336 O351 2.310 1_655 S
Dy336 O352 2.351 1_545 S
C337 O348 1.185 . S
C337 O349 1.355 . S
C338 O340 1.185 . S
C338 O341 1.355 1_556 S
Dy339 O343 2.310 1_554 S
Dy339 O346 2.351 . S
Dy339 O348 2.398 . S
Dy339 O349 2.491 . S
Dy339 O350 2.403 . S
Dy339 O351 2.664 . S
Dy339 O353 2.326 . S
O340 Dy336 2.398 1_556 S
O340 C338 1.185 . S
O341 Dy336 2.491 . S
O341 C338 1.355 1_554 S
O342 Dy336 2.403 1_556 S
O342 C344 1.254 1_655 S
O343 Dy336 2.664 1_456 S
O343 Dy339 2.310 1_556 S
O343 C344 1.268 . S
C344 O342 1.254 1_455 S
C344 O343 1.268 . S
C345 O350 1.254 . S
C345 O351 1.268 . S
O346 Dy339 2.351 . S
O346 C354 1.249 . S
O347 Dy336 2.321 1_456 S
O347 C354 1.279 1_556 S
O348 C337 1.185 . S
O348 Dy339 2.398 . S
O349 C337 1.355 . S
O349 Dy339 2.491 . S
O350 Dy339 2.403 . S
O350 C345 1.254 . S
O351 Dy336 2.310 1_455 S
O351 Dy339 2.664 . S
O351 C345 1.268 . S
O352 Dy336 2.351 1_565 S
O352 C355 1.249 1_655 S
O353 Dy339 2.326 . S
O353 C355 1.267 1_545 S
C354 O346 1.249 . S
C354 O347 1.279 1_554 S
C355 O352 1.249 1_455 S
C355 O353 1.267 1_565 S
Dy356 O360 2.398 . S
Dy356 O361 2.491 . S
Dy356 O362 2.403 . S
Dy356 O363 2.664 . S
Dy356 O367 2.326 . S
Dy356 O371 2.310 . S
Dy356 O372 2.351 . S
C357 O368 1.185 . S
C357 O369 1.355 . S
C358 O360 1.185 . S
C358 O361 1.355 . S
Dy359 O363 2.310 . S
Dy359 O366 2.351 . S
Dy359 O368 2.398 . S
Dy359 O369 2.491 . S
Dy359 O370 2.403 . S
Dy359 O371 2.664 . S
Dy359 O373 2.326 . S
O360 Dy356 2.398 . S
O360 C358 1.185 . S
O361 Dy356 2.491 . S
O361 C358 1.355 . S
O362 Dy356 2.403 . S
O362 C364 1.254 . S
O363 Dy356 2.664 . S
O363 Dy359 2.310 . S
O363 C364 1.268 . S
C364 O362 1.254 . S
C364 O363 1.268 . S
C365 O370 1.254 . S
C365 O371 1.268 . S
O366 Dy359 2.351 . S
O366 C374 1.249 . S
O367 Dy356 2.326 . S
O367 C374 1.267 . S
O368 C357 1.185 . S
O368 Dy359 2.398 . S
O369 C357 1.355 . S
O369 Dy359 2.491 . S
O370 Dy359 2.403 . S
O370 C365 1.254 . S
O371 Dy356 2.310 . S
O371 Dy359 2.664 . S
O371 C365 1.268 . S
O372 Dy356 2.351 . S
O372 C375 1.249 . S
O373 Dy359 2.326 . S
O373 C375 1.267 . S
C374 O366 1.249 . S
C374 O367 1.267 . S
C375 O372 1.249 . S
C375 O373 1.267 . S
Dy376 O380 2.398 . S
Dy376 O381 2.491 1_545 S
Dy376 O382 2.403 . S
Dy376 O383 2.664 . S
Dy376 O387 2.326 1_545 S
Dy376 O391 2.310 . S
Dy376 O392 2.351 . S
C377 O388 1.185 . S
C377 O389 1.355 . S
C378 O380 1.185 1_565 S
C378 O381 1.355 . S
Dy379 O383 2.310 . S
Dy379 O386 2.351 1_545 S
Dy379 O388 2.398 . S
Dy379 O389 2.491 . S
Dy379 O390 2.403 . S
Dy379 O391 2.664 . S
Dy379 O393 2.326 . S
O380 Dy376 2.398 . S
O380 C378 1.185 1_545 S
O381 Dy376 2.491 1_565 S
O381 C378 1.355 . S
O382 Dy376 2.403 . S
O382 C384 1.254 . S
O383 Dy376 2.664 . S
O383 Dy379 2.310 . S
O383 C384 1.268 . S
C384 O382 1.254 . S
C384 O383 1.268 . S
C385 O390 1.254 . S
C385 O391 1.268 . S
O386 Dy379 2.351 1_565 S
O386 C394 1.249 . S
O387 Dy376 2.326 1_565 S
O387 C394 1.267 . S
O388 C377 1.185 . S
O388 Dy379 2.398 . S
O389 C377 1.355 . S
O389 Dy379 2.491 . S
O390 Dy379 2.403 . S
O390 C385 1.254 . S
O391 Dy376 2.310 . S
O391 Dy379 2.664 . S
O391 C385 1.268 . S
O392 Dy376 2.351 . S
O392 C395 1.249 . S
O393 Dy379 2.326 . S
O393 C395 1.267 . S
C394 O386 1.249 . S
C394 O387 1.267 . S
C395 O392 1.249 . S
C395 O393 1.267 . S
Dy396 O400 2.398 . S
Dy396 O401 2.491 . S
Dy396 O402 2.403 . S
Dy396 O403 2.664 . S
Dy396 O407 2.326 . S
Dy396 O411 2.310 . S
Dy396 O412 2.351 . S
C397 O408 1.185 . S
C397 O409 1.355 . S
C398 O400 1.185 . S
C398 O401 1.355 . S
Dy399 O403 2.310 . S
Dy399 O406 2.351 . S
Dy399 O408 2.398 . S
Dy399 O409 2.491 . S
Dy399 O410 2.403 . S
Dy399 O411 2.664 . S
Dy399 O413 2.326 . S
O400 Dy396 2.398 . S
O400 C398 1.185 . S
O401 Dy396 2.491 . S
O401 C398 1.355 . S
O402 Dy396 2.403 . S
O402 C404 1.254 . S
O403 Dy396 2.664 . S
O403 Dy399 2.310 . S
O403 C404 1.268 . S
C404 O402 1.254 . S
C404 O403 1.268 . S
C405 O410 1.254 . S
C405 O411 1.268 . S
O406 Dy399 2.351 . S
O406 C414 1.249 . S
O407 Dy396 2.326 . S
O407 C414 1.267 . S
O408 C397 1.185 . S
O408 Dy399 2.398 . S
O409 C397 1.355 . S
O409 Dy399 2.491 . S
O410 Dy399 2.403 . S
O410 C405 1.254 . S
O411 Dy396 2.310 . S
O411 Dy399 2.664 . S
O411 C405 1.268 . S
O412 Dy396 2.351 . S
O412 C415 1.249 . S
O413 Dy399 2.326 . S
O413 C415 1.267 . S
C414 O406 1.249 . S
C414 O407 1.267 . S
C415 O412 1.249 . S
C415 O413 1.267 . S
Dy416 O420 2.398 . S
Dy416 O421 2.491 1_455 S
Dy416 O422 2.403 . S
Dy416 O423 2.664 . S
Dy416 O427 2.326 . S
Dy416 O431 2.310 1_455 S
Dy416 O432 2.351 1_545 S
C417 O428 1.185 . S
C417 O429 1.355 . S
C418 O420 1.187 . S
C418 O421 1.354 1_455 S
Dy419 O423 2.310 . S
Dy419 O426 2.351 . S
Dy419 O428 2.398 . S
Dy419 O429 2.491 . S
Dy419 O430 2.403 1_455 S
Dy419 O431 2.664 1_455 S
Dy419 O433 2.326 1_545 S
O420 Dy416 2.398 . S
O420 C418 1.187 . S
O421 Dy416 2.491 1_655 S
O421 C418 1.354 1_655 S
O422 Dy416 2.403 . S
O422 C424 1.254 . S
O423 Dy416 2.664 . S
O423 Dy419 2.310 . S
O423 C424 1.268 . S
C424 O422 1.254 . S
C424 O423 1.268 . S
C425 O430 1.254 . S
C425 O431 1.268 . S
O426 Dy419 2.351 . S
O426 C434 1.249 . S
O427 Dy416 2.326 . S
O427 C434 1.267 . S
O428 C417 1.185 . S
O428 Dy419 2.398 . S
O429 C417 1.355 . S
O429 Dy419 2.491 . S
O430 Dy419 2.403 1_655 S
O430 C425 1.254 . S
O431 Dy416 2.310 1_655 S
O431 Dy419 2.664 1_655 S
O431 C425 1.268 . S
O432 Dy416 2.351 1_565 S
O432 C435 1.249 . S
O433 Dy419 2.326 1_565 S
O433 C435 1.267 . S
C434 O426 1.249 . S
C434 O427 1.267 . S
C435 O432 1.249 . S
C435 O433 1.267 . S
Dy436 O440 2.398 . S
Dy436 O441 2.491 . S
Dy436 O442 2.403 . S
Dy436 O443 2.664 . S
Dy436 O447 2.326 . S
Dy436 O451 2.310 . S
Dy436 O452 2.351 . S
C437 O448 1.185 . S
C437 O449 1.355 . S
C438 O440 1.185 . S
C438 O441 1.355 . S
Dy439 O443 2.310 . S
Dy439 O446 2.351 . S
Dy439 O448 2.398 . S
Dy439 O449 2.491 . S
Dy439 O450 2.403 . S
Dy439 O451 2.664 . S
Dy439 O453 2.326 . S
O440 Dy436 2.398 . S
O440 C438 1.185 . S
O441 Dy436 2.491 . S
O441 C438 1.355 . S
O442 Dy436 2.403 . S
O442 C444 1.254 . S
O443 Dy436 2.664 . S
O443 Dy439 2.310 . S
O443 C444 1.268 . S
C444 O442 1.254 . S
C444 O443 1.268 . S
C445 O450 1.254 . S
C445 O451 1.268 . S
O446 Dy439 2.351 . S
O446 C454 1.249 . S
O447 Dy436 2.326 . S
O447 C454 1.267 . S
O448 C437 1.185 . S
O448 Dy439 2.398 . S
O449 C437 1.355 . S
O449 Dy439 2.491 . S
O450 Dy439 2.403 . S
O450 C445 1.254 . S
O451 Dy436 2.310 . S
O451 Dy439 2.664 . S
O451 C445 1.268 . S
O452 Dy436 2.351 . S
O452 C455 1.249 . S
O453 Dy439 2.326 . S
O453 C455 1.267 . S
C454 O446 1.249 . S
C454 O447 1.267 . S
C455 O452 1.249 . S
C455 O453 1.267 . S
Dy456 O460 2.398 1_545 S
Dy456 O461 2.491 . S
Dy456 O462 2.403 1_545 S
Dy456 O463 2.657 1_545 S
Dy456 O467 2.326 1_545 S
Dy456 O471 2.310 . S
Dy456 O472 2.351 . S
C457 O468 1.185 . S
C457 O469 1.355 . S
C458 O460 1.185 1_545 S
C458 O461 1.355 . S
Dy459 O463 2.280 1_546 S
Dy459 O466 2.351 . S
Dy459 O468 2.398 . S
Dy459 O469 2.491 . S
Dy459 O470 2.403 1_556 S
Dy459 O471 2.664 1_556 S
Dy459 O473 2.327 1_556 S
O460 Dy456 2.398 1_565 S
O460 C458 1.185 1_565 S
O461 Dy456 2.491 . S
O461 C458 1.355 . S
O462 Dy456 2.403 1_565 S
O462 C464 1.254 . S
O463 Dy456 2.657 1_565 S
O463 Dy459 2.280 1_564 S
O463 C464 1.301 . S
C464 O462 1.254 . S
C464 O463 1.301 . S
C465 O470 1.254 . S
C465 O471 1.268 . S
O466 Dy459 2.351 . S
O466 C474 1.249 1_556 S
O467 Dy456 2.326 1_565 S
O467 C474 1.267 1_565 S
O468 C457 1.185 . S
O468 Dy459 2.398 . S
O469 C457 1.355 . S
O469 Dy459 2.491 . S
O470 Dy459 2.403 1_554 S
O470 C465 1.254 . S
O471 Dy456 2.310 . S
O471 Dy459 2.664 1_554 S
O471 C465 1.268 . S
O472 Dy456 2.351 . S
O472 C475 1.249 . S
O473 Dy459 2.327 1_554 S
O473 C475 1.265 . S
C474 O466 1.249 1_554 S
C474 O467 1.267 1_545 S
C475 O472 1.249 . S
C475 O473 1.265 . S
Dy476 O480 2.398 . S
Dy476 O481 2.491 . S
Dy476 O482 2.403 . S
Dy476 O483 2.664 . S
Dy476 O487 2.326 . S
Dy476 O491 2.310 . S
Dy476 O492 2.351 . S
C477 O488 1.185 . S
C477 O489 1.355 . S
C478 O480 1.185 . S
C478 O481 1.355 . S
Dy479 O483 2.310 . S
Dy479 O486 2.351 . S
Dy479 O488 2.398 . S
Dy479 O489 2.491 . S
Dy479 O490 2.403 . S
Dy479 O491 2.664 . S
Dy479 O493 2.326 . S
O480 Dy476 2.398 . S
O480 C478 1.185 . S
O481 Dy476 2.491 . S
O481 C478 1.355 . S
O482 Dy476 2.403 . S
O482 C484 1.254 . S
O483 Dy476 2.664 . S
O483 Dy479 2.310 . S
O483 C484 1.268 . S
C484 O482 1.254 . S
C484 O483 1.268 . S
C485 O490 1.254 . S
C485 O491 1.268 . S
O486 Dy479 2.351 . S
O486 C494 1.249 . S
O487 Dy476 2.326 . S
O487 C494 1.267 . S
O488 C477 1.185 . S
O488 Dy479 2.398 . S
O489 C477 1.355 . S
O489 Dy479 2.491 . S
O490 Dy479 2.403 . S
O490 C485 1.254 . S
O491 Dy476 2.310 . S
O491 Dy479 2.664 . S
O491 C485 1.268 . S
O492 Dy476 2.351 . S
O492 C495 1.249 . S
O493 Dy479 2.326 . S
O493 C495 1.267 . S
C494 O486 1.249 . S
C494 O487 1.267 . S
C495 O492 1.249 . S
C495 O493 1.267 . S
Dy496 O500 2.398 . S
Dy496 O501 2.491 . S
Dy496 O502 2.403 . S
Dy496 O503 2.664 1_556 S
Dy496 O507 2.326 . S
Dy496 O511 2.310 1_556 S
Dy496 O512 2.351 1_556 S
C497 O508 1.185 . S
C497 O509 1.355 . S
C498 O500 1.185 . S
C498 O501 1.355 . S
Dy499 O503 2.310 . S
Dy499 O506 2.351 . S
Dy499 O508 2.398 . S
Dy499 O509 2.491 . S
Dy499 O510 2.403 . S
Dy499 O511 2.664 . S
Dy499 O513 2.326 . S
O500 Dy496 2.398 . S
O500 C498 1.185 . S
O501 Dy496 2.491 . S
O501 C498 1.355 . S
O502 Dy496 2.403 . S
O502 C504 1.254 1_556 S
O503 Dy496 2.664 1_554 S
O503 Dy499 2.310 . S
O503 C504 1.268 . S
C504 O502 1.254 1_554 S
C504 O503 1.268 . S
C505 O510 1.254 . S
C505 O511 1.268 . S
O506 Dy499 2.351 . S
O506 C514 1.249 1_554 S
O507 Dy496 2.326 . S
O507 C514 1.267 . S
O508 C497 1.185 . S
O508 Dy499 2.398 . S
O509 C497 1.355 . S
O509 Dy499 2.491 . S
O510 Dy499 2.403 . S
O510 C505 1.254 . S
O511 Dy496 2.310 1_554 S
O511 Dy499 2.664 . S
O511 C505 1.268 . S
O512 Dy496 2.351 1_554 S
O512 C515 1.249 . S
O513 Dy499 2.326 . S
O513 C515 1.267 . S
C514 O506 1.249 1_556 S
C514 O507 1.267 . S
C515 O512 1.249 . S
C515 O513 1.267 . S
Dy516 O520 2.398 . S
Dy516 O521 2.491 . S
Dy516 O522 2.403 . S
Dy516 O523 2.664 . S
Dy516 O527 2.326 . S
Dy516 O531 2.310 . S
Dy516 O532 2.351 . S
C517 O528 1.185 . S
C517 O529 1.355 . S
C518 O520 1.185 . S
C518 O521 1.355 . S
Dy519 O523 2.310 . S
Dy519 O526 2.351 . S
Dy519 O528 2.398 . S
Dy519 O529 2.491 . S
Dy519 O530 2.403 . S
Dy519 O531 2.664 . S
Dy519 O533 2.326 . S
O520 Dy516 2.398 . S
O520 C518 1.185 . S
O521 Dy516 2.491 . S
O521 C518 1.355 . S
O522 Dy516 2.403 . S
O522 C524 1.254 . S
O523 Dy516 2.664 . S
O523 Dy519 2.310 . S
O523 C524 1.268 . S
C524 O522 1.254 . S
C524 O523 1.268 . S
C525 O530 1.254 . S
C525 O531 1.268 . S
O526 Dy519 2.351 . S
O526 C534 1.249 . S
O527 Dy516 2.326 . S
O527 C534 1.267 . S
O528 C517 1.185 . S
O528 Dy519 2.398 . S
O529 C517 1.355 . S
O529 Dy519 2.491 . S
O530 Dy519 2.403 . S
O530 C525 1.254 . S
O531 Dy516 2.310 . S
O531 Dy519 2.664 . S
O531 C525 1.268 . S
O532 Dy516 2.351 . S
O532 C535 1.249 . S
O533 Dy519 2.326 . S
O533 C535 1.267 . S
C534 O526 1.249 . S
C534 O527 1.267 . S
C535 O532 1.249 . S
C535 O533 1.267 . S
Dy536 O540 2.398 1_455 S
Dy536 O541 2.491 1_455 S
Dy536 O542 2.403 . S
Dy536 O543 2.664 . S
Dy536 O547 2.326 1_455 S
Dy536 O551 2.310 . S
Dy536 O552 2.351 . S
C537 O548 1.185 . S
C537 O549 1.355 . S
C538 O540 1.185 . S
C538 O541 1.355 . S
Dy539 O543 2.310 . S
Dy539 O546 2.351 1_455 S
Dy539 O548 2.398 . S
Dy539 O549 2.491 . S
Dy539 O550 2.403 . S
Dy539 O551 2.664 . S
Dy539 O553 2.326 . S
O540 Dy536 2.398 1_655 S
O540 C538 1.185 . S
O541 Dy536 2.491 1_655 S
O541 C538 1.355 . S
O542 Dy536 2.403 . S
O542 C544 1.254 . S
O543 Dy536 2.664 . S
O543 Dy539 2.310 . S
O543 C544 1.268 . S
C544 O542 1.254 . S
C544 O543 1.268 . S
C545 O550 1.254 . S
C545 O551 1.268 . S
O546 Dy539 2.351 1_655 S
O546 C554 1.249 . S
O547 Dy536 2.326 1_655 S
O547 C554 1.267 . S
O548 C537 1.185 . S
O548 Dy539 2.398 . S
O549 C537 1.355 . S
O549 Dy539 2.491 . S
O550 Dy539 2.403 . S
O550 C545 1.254 . S
O551 Dy536 2.310 . S
O551 Dy539 2.664 . S
O551 C545 1.268 . S
O552 Dy536 2.351 . S
O552 C555 1.249 . S
O553 Dy539 2.326 . S
O553 C555 1.267 . S
C554 O546 1.249 . S
C554 O547 1.267 . S
C555 O552 1.249 . S
C555 O553 1.267 . S
Dy556 O560 2.398 . S
Dy556 O561 2.491 . S
Dy556 O562 2.403 . S
Dy556 O563 2.664 . S
Dy556 O567 2.326 . S
Dy556 O571 2.310 . S
Dy556 O572 2.351 . S
C557 O568 1.185 . S
C557 O569 1.355 . S
C558 O560 1.185 . S
C558 O561 1.355 . S
Dy559 O563 2.310 . S
Dy559 O566 2.351 . S
Dy559 O568 2.398 . S
Dy559 O569 2.491 . S
Dy559 O570 2.403 . S
Dy559 O571 2.664 . S
Dy559 O573 2.326 . S
O560 Dy556 2.398 . S
O560 C558 1.185 . S
O561 Dy556 2.491 . S
O561 C558 1.355 . S
O562 Dy556 2.403 . S
O562 C564 1.254 . S
O563 Dy556 2.664 . S
O563 Dy559 2.310 . S
O563 C564 1.268 . S
C564 O562 1.254 . S
C564 O563 1.268 . S
C565 O570 1.254 . S
C565 O571 1.268 . S
O566 Dy559 2.351 . S
O566 C574 1.249 . S
O567 Dy556 2.326 . S
O567 C574 1.267 . S
O568 C557 1.185 . S
O568 Dy559 2.398 . S
O569 C557 1.355 . S
O569 Dy559 2.491 . S
O570 Dy559 2.403 . S
O570 C565 1.254 . S
O571 Dy556 2.310 . S
O571 Dy559 2.664 . S
O571 C565 1.268 . S
O572 Dy556 2.351 . S
O572 C575 1.249 . S
O573 Dy559 2.326 . S
O573 C575 1.267 . S
C574 O566 1.249 . S
C574 O567 1.267 . S
C575 O572 1.249 . S
C575 O573 1.267 . S
Dy576 O580 2.398 . S
Dy576 O581 2.491 . S
Dy576 O582 2.403 . S
Dy576 O583 2.664 . S
Dy576 O587 2.326 . S
Dy576 O591 2.310 . S
Dy576 O592 2.351 . S
C577 O588 1.185 . S
C577 O589 1.355 . S
C578 O580 1.185 . S
C578 O581 1.355 . S
Dy579 O583 2.310 . S
Dy579 O586 2.351 . S
Dy579 O588 2.398 . S
Dy579 O589 2.491 . S
Dy579 O590 2.403 . S
Dy579 O591 2.664 . S
Dy579 O593 2.326 . S
O580 Dy576 2.398 . S
O580 C578 1.185 . S
O581 Dy576 2.491 . S
O581 C578 1.355 . S
O582 Dy576 2.403 . S
O582 C584 1.254 . S
O583 Dy576 2.664 . S
O583 Dy579 2.310 . S
O583 C584 1.268 . S
C584 O582 1.254 . S
C584 O583 1.268 . S
C585 O590 1.254 . S
C585 O591 1.268 . S
O586 Dy579 2.351 . S
O586 C594 1.249 . S
O587 Dy576 2.326 . S
O587 C594 1.267 . S
O588 C577 1.185 . S
O588 Dy579 2.398 . S
O589 C577 1.355 . S
O589 Dy579 2.491 . S
O590 Dy579 2.403 . S
O590 C585 1.254 . S
O591 Dy576 2.310 . S
O591 Dy579 2.664 . S
O591 C585 1.268 . S
O592 Dy576 2.351 . S
O592 C595 1.249 . S
O593 Dy579 2.326 . S
O593 C595 1.267 . S
C594 O586 1.249 . S
C594 O587 1.267 . S
C595 O592 1.249 . S
C595 O593 1.267 . S
Dy596 O600 2.398 . S
Dy596 O601 2.491 . S
Dy596 O602 2.403 . S
Dy596 O603 2.664 . S
Dy596 O607 2.326 . S
Dy596 O611 2.310 . S
Dy596 O612 2.351 . S
C597 O608 1.185 . S
C597 O609 1.355 . S
C598 O600 1.185 . S
C598 O601 1.355 . S
Dy599 O603 2.310 . S
Dy599 O606 2.351 . S
Dy599 O608 2.398 . S
Dy599 O609 2.491 . S
Dy599 O610 2.403 . S
Dy599 O611 2.664 . S
Dy599 O613 2.326 . S
O600 Dy596 2.398 . S
O600 C598 1.185 . S
O601 Dy596 2.491 . S
O601 C598 1.355 . S
O602 Dy596 2.403 . S
O602 C604 1.254 . S
O603 Dy596 2.664 . S
O603 Dy599 2.310 . S
O603 C604 1.268 . S
C604 O602 1.254 . S
C604 O603 1.268 . S
C605 O610 1.254 . S
C605 O611 1.268 . S
O606 Dy599 2.351 . S
O606 C614 1.249 . S
O607 Dy596 2.326 . S
O607 C614 1.267 . S
O608 C597 1.185 . S
O608 Dy599 2.398 . S
O609 C597 1.355 . S
O609 Dy599 2.491 . S
O610 Dy599 2.403 . S
O610 C605 1.254 . S
O611 Dy596 2.310 . S
O611 Dy599 2.664 . S
O611 C605 1.268 . S
O612 Dy596 2.351 . S
O612 C615 1.249 . S
O613 Dy599 2.326 . S
O613 C615 1.267 . S
C614 O606 1.249 . S
C614 O607 1.267 . S
C615 O612 1.249 . S
C615 O613 1.267 . S
Dy616 O620 2.398 . S
Dy616 O621 2.491 . S
Dy616 O622 2.403 . S
Dy616 O623 2.664 . S
Dy616 O627 2.326 . S
Dy616 O631 2.310 . S
Dy616 O632 2.351 . S
C617 O628 1.185 . S
C617 O629 1.355 . S
C618 O620 1.185 . S
C618 O621 1.355 . S
Dy619 O623 2.310 . S
Dy619 O626 2.351 . S
Dy619 O628 2.398 . S
Dy619 O629 2.491 . S
Dy619 O630 2.403 . S
Dy619 O631 2.664 . S
Dy619 O633 2.326 . S
O620 Dy616 2.398 . S
O620 C618 1.185 . S
O621 Dy616 2.491 . S
O621 C618 1.355 . S
O622 Dy616 2.403 . S
O622 C624 1.254 . S
O623 Dy616 2.664 . S
O623 Dy619 2.310 . S
O623 C624 1.268 . S
C624 O622 1.254 . S
C624 O623 1.268 . S
C625 O630 1.254 . S
C625 O631 1.268 . S
O626 Dy619 2.351 . S
O626 C634 1.249 . S
O627 Dy616 2.326 . S
O627 C634 1.267 . S
O628 C617 1.185 . S
O628 Dy619 2.398 . S
O629 C617 1.355 . S
O629 Dy619 2.491 . S
O630 Dy619 2.403 . S
O630 C625 1.254 . S
O631 Dy616 2.310 . S
O631 Dy619 2.664 . S
O631 C625 1.268 . S
O632 Dy616 2.351 . S
O632 C635 1.249 . S
O633 Dy619 2.326 . S
O633 C635 1.267 . S
C634 O626 1.249 . S
C634 O627 1.267 . S
C635 O632 1.249 . S
C635 O633 1.267 . S
Dy636 O640 2.398 1_554 S
Dy636 O641 2.491 . S
Dy636 O642 2.403 1_554 S
Dy636 O643 2.664 . S
Dy636 O647 2.326 . S
Dy636 O651 2.310 . S
Dy636 O652 2.351 . S
C637 O648 1.185 . S
C637 O649 1.355 . S
C638 O640 1.185 1_554 S
C638 O641 1.355 . S
Dy639 O643 2.310 1_655 S
Dy639 O646 2.351 . S
Dy639 O648 2.398 . S
Dy639 O649 2.491 . S
Dy639 O650 2.403 . S
Dy639 O651 2.664 1_655 S
Dy639 O653 2.326 1_655 S
O640 Dy636 2.398 1_556 S
O640 C638 1.185 1_556 S
O641 Dy636 2.491 . S
O641 C638 1.355 . S
O642 Dy636 2.403 1_556 S
O642 C644 1.254 . S
O643 Dy636 2.664 . S
O643 Dy639 2.310 1_455 S
O643 C644 1.268 1_554 S
C644 O642 1.254 . S
C644 O643 1.268 1_556 S
C645 O650 1.254 1_455 S
C645 O651 1.268 . S
O646 Dy639 2.351 . S
O646 C654 1.249 1_655 S
O647 Dy636 2.326 . S
O647 C654 1.267 . S
O648 C637 1.185 . S
O648 Dy639 2.398 . S
O649 C637 1.355 . S
O649 Dy639 2.491 . S
O650 Dy639 2.403 . S
O650 C645 1.254 1_655 S
O651 Dy636 2.310 . S
O651 Dy639 2.664 1_455 S
O651 C645 1.268 . S
O652 Dy636 2.351 . S
O652 C655 1.249 . S
O653 Dy639 2.326 1_455 S
O653 C655 1.267 . S
C654 O646 1.249 1_455 S
C654 O647 1.267 . S
C655 O652 1.249 . S
C655 O653 1.267 . S
H656 C662 0.930 . S
H657 C665 0.930 . S
H658 C666 0.930 . S
H659 C667 0.930 . S
H660 C670 0.930 1_554 S
H661 C671 0.930 . S
C662 H656 0.930 . S
C662 C663 1.355 1_455 S
C662 C664 1.415 . S
C663 C662 1.355 1_655 S
C663 C665 1.419 . S
C664 C662 1.415 . S
C664 C669 1.425 1_455 S
C664 C671 1.409 . S
C665 H657 0.930 . S
C665 C663 1.419 . S
C665 C666 1.362 . S
C666 H658 0.930 . S
C666 C665 1.362 . S
C666 C669 1.409 . S
C667 H659 0.930 . S
C667 C668 1.355 1_655 S
C667 C669 1.415 . S
C668 C667 1.355 1_455 S
C668 C670 1.419 . S
C669 C664 1.425 1_655 S
C669 C666 1.409 . S
C669 C667 1.415 . S
C670 H660 0.930 1_556 S
C670 C668 1.419 . S
C670 C671 1.362 . S
C671 H661 0.930 . S
C671 C664 1.409 . S
C671 C670 1.362 . S
H672 C678 0.930 . S
H673 C681 0.930 . S
H674 C682 0.930 . S
H675 C683 0.930 . S
H676 C686 0.930 . S
H677 C687 0.930 . S
C678 H672 0.930 . S
C678 C679 1.355 . S
C678 C680 1.415 . S
C679 C678 1.355 . S
C679 C681 1.419 . S
C680 C678 1.415 . S
C680 C685 1.425 . S
C680 C687 1.409 . S
C681 H673 0.930 . S
C681 C679 1.419 . S
C681 C682 1.362 . S
C682 H674 0.930 . S
C682 C681 1.362 . S
C682 C685 1.409 . S
C683 H675 0.930 . S
C683 C684 1.355 . S
C683 C685 1.415 . S
C684 C683 1.355 . S
C684 C686 1.419 . S
C685 C680 1.425 . S
C685 C682 1.409 . S
C685 C683 1.415 . S
C686 H676 0.930 . S
C686 C684 1.419 . S
C686 C687 1.362 . S
C687 H677 0.930 . S
C687 C680 1.409 . S
C687 C686 1.362 . S
H688 C694 0.930 . S
H689 C697 0.930 . S
H690 C698 0.930 . S
H691 C699 0.930 . S
H692 C702 0.930 . S
H693 C703 0.930 . S
C694 H688 0.930 . S
C694 C695 1.355 . S
C694 C696 1.415 . S
C695 C694 1.355 . S
C695 C697 1.419 . S
C696 C694 1.415 . S
C696 C701 1.425 . S
C696 C703 1.409 . S
C697 H689 0.930 . S
C697 C695 1.419 . S
C697 C698 1.362 . S
C698 H690 0.930 . S
C698 C697 1.362 . S
C698 C701 1.409 . S
C699 H691 0.930 . S
C699 C700 1.355 . S
C699 C701 1.415 . S
C700 C699 1.355 . S
C700 C702 1.419 . S
C701 C696 1.425 . S
C701 C698 1.409 . S
C701 C699 1.415 . S
C702 H692 0.930 . S
C702 C700 1.419 . S
C702 C703 1.362 . S
C703 H693 0.930 . S
C703 C696 1.409 . S
C703 C702 1.362 . S
H704 C710 0.930 . S
H705 C713 0.930 . S
H706 C714 0.930 . S
H707 C715 0.930 . S
H708 C718 0.930 . S
H709 C719 0.930 . S
C710 H704 0.930 . S
C710 C711 1.355 . S
C710 C712 1.415 . S
C711 C710 1.355 . S
C711 C713 1.419 . S
C712 C710 1.415 . S
C712 C717 1.425 . S
C712 C719 1.409 . S
C713 H705 0.930 . S
C713 C711 1.419 . S
C713 C714 1.362 . S
C714 H706 0.930 . S
C714 C713 1.362 . S
C714 C717 1.409 . S
C715 H707 0.930 . S
C715 C716 1.355 . S
C715 C717 1.415 . S
C716 C715 1.355 . S
C716 C718 1.419 . S
C717 C712 1.425 . S
C717 C714 1.409 . S
C717 C715 1.415 . S
C718 H708 0.930 . S
C718 C716 1.419 . S
C718 C719 1.362 . S
C719 H709 0.930 . S
C719 C712 1.409 . S
C719 C718 1.362 . S
H720 C726 0.930 1_655 S
H721 C729 0.930 . S
H722 C730 0.930 . S
H723 C731 0.930 . S
H724 C734 0.930 1_655 S
H725 C735 0.927 . S
C726 H720 0.930 1_455 S
C726 C727 1.355 . S
C726 C728 1.415 . S
C727 C726 1.355 . S
C727 C729 1.419 . S
C728 C726 1.415 . S
C728 C733 1.425 . S
C728 C735 1.412 1_455 S
C729 H721 0.930 . S
C729 C727 1.419 . S
C729 C730 1.362 . S
C730 H722 0.930 . S
C730 C729 1.362 . S
C730 C733 1.409 . S
C731 H723 0.930 . S
C731 C732 1.355 . S
C731 C733 1.415 . S
C732 C731 1.355 . S
C732 C734 1.419 . S
C733 C728 1.425 . S
C733 C730 1.409 . S
C733 C731 1.415 . S
C734 H724 0.930 1_455 S
C734 C732 1.419 . S
C734 C735 1.363 1_455 S
C735 H725 0.927 . S
C735 C728 1.412 1_655 S
C735 C734 1.363 1_655 S
H736 C742 0.930 . S
H737 C745 0.930 . S
H738 C746 0.930 . S
H739 C747 0.930 . S
H740 C750 0.930 . S
H741 C751 0.930 . S
C742 H736 0.930 . S
C742 C743 1.355 . S
C742 C744 1.415 . S
C743 C742 1.355 . S
C743 C745 1.419 . S
C744 C742 1.415 . S
C744 C749 1.425 . S
C744 C751 1.409 . S
C745 H737 0.930 . S
C745 C743 1.419 . S
C745 C746 1.362 . S
C746 H738 0.930 . S
C746 C745 1.362 . S
C746 C749 1.409 . S
C747 H739 0.930 . S
C747 C748 1.355 . S
C747 C749 1.415 . S
C748 C747 1.355 . S
C748 C750 1.419 . S
C749 C744 1.425 . S
C749 C746 1.409 . S
C749 C747 1.415 . S
C750 H740 0.930 . S
C750 C748 1.419 . S
C750 C751 1.362 . S
C751 H741 0.930 . S
C751 C744 1.409 . S
C751 C750 1.362 . S
H752 C758 0.930 . S
H753 C761 0.930 . S
H754 C762 0.930 . S
H755 C763 0.930 . S
H756 C766 0.930 . S
H757 C767 0.930 . S
C758 H752 0.930 . S
C758 C759 1.355 . S
C758 C760 1.415 . S
C759 C758 1.355 . S
C759 C761 1.419 . S
C760 C758 1.415 . S
C760 C765 1.425 . S
C760 C767 1.409 . S
C761 H753 0.930 . S
C761 C759 1.419 . S
C761 C762 1.362 . S
C762 H754 0.930 . S
C762 C761 1.362 . S
C762 C765 1.409 . S
C763 H755 0.930 . S
C763 C764 1.355 . S
C763 C765 1.415 . S
C764 C763 1.355 . S
C764 C766 1.419 . S
C765 C760 1.425 . S
C765 C762 1.409 . S
C765 C763 1.415 . S
C766 H756 0.930 . S
C766 C764 1.419 . S
C766 C767 1.362 . S
C767 H757 0.930 . S
C767 C760 1.409 . S
C767 C766 1.362 . S
H768 C774 0.930 . S
H769 C777 0.930 . S
H770 C778 0.930 . S
H771 C779 0.930 . S
H772 C782 0.930 . S
H773 C783 0.930 . S
C774 H768 0.930 . S
C774 C775 1.355 . S
C774 C776 1.415 . S
C775 C774 1.355 . S
C775 C777 1.419 . S
C776 C774 1.415 . S
C776 C781 1.425 . S
C776 C783 1.409 . S
C777 H769 0.930 . S
C777 C775 1.419 . S
C777 C778 1.362 . S
C778 H770 0.930 . S
C778 C777 1.362 . S
C778 C781 1.409 . S
C779 H771 0.930 . S
C779 C780 1.355 . S
C779 C781 1.415 . S
C780 C779 1.355 . S
C780 C782 1.419 . S
C781 C776 1.425 . S
C781 C778 1.409 . S
C781 C779 1.415 . S
C782 H772 0.930 . S
C782 C780 1.419 . S
C782 C783 1.362 . S
C783 H773 0.930 . S
C783 C776 1.409 . S
C783 C782 1.362 . S
H784 C790 0.930 . S
H785 C793 0.930 . S
H786 C794 0.930 . S
H787 C795 0.915 1_455 S
H788 C798 0.930 . S
H789 C799 0.930 1_565 S
C790 H784 0.930 . S
C790 C791 1.355 . S
C790 C792 1.415 . S
C791 C790 1.355 . S
C791 C793 1.419 . S
C792 C790 1.415 . S
C792 C797 1.425 . S
C792 C799 1.409 . S
C793 H785 0.930 . S
C793 C791 1.419 . S
C793 C794 1.362 . S
C794 H786 0.930 . S
C794 C793 1.362 . S
C794 C797 1.409 . S
C795 H787 0.915 1_655 S
C795 C796 1.355 . S
C795 C797 1.415 . S
C796 C795 1.355 . S
C796 C798 1.419 . S
C797 C792 1.425 . S
C797 C794 1.409 . S
C797 C795 1.415 . S
C798 H788 0.930 . S
C798 C796 1.419 . S
C798 C799 1.362 . S
C799 H789 0.930 1_545 S
C799 C792 1.409 . S
C799 C798 1.362 . S
H800 C806 0.930 . S
H801 C809 0.930 . S
H802 C810 0.930 . S
H803 C811 0.930 . S
H804 C814 0.930 . S
H805 C815 0.930 . S
C806 H800 0.930 . S
C806 C807 1.355 . S
C806 C808 1.415 . S
C807 C806 1.355 . S
C807 C809 1.419 . S
C808 C806 1.415 . S
C808 C813 1.425 . S
C808 C815 1.409 . S
C809 H801 0.930 . S
C809 C807 1.419 . S
C809 C810 1.362 . S
C810 H802 0.930 . S
C810 C809 1.362 . S
C810 C813 1.409 . S
C811 H803 0.930 . S
C811 C812 1.355 . S
C811 C813 1.415 . S
C812 C811 1.355 . S
C812 C814 1.419 . S
C813 C808 1.425 . S
C813 C810 1.409 . S
C813 C811 1.415 . S
C814 H804 0.930 . S
C814 C812 1.419 . S
C814 C815 1.362 . S
C815 H805 0.930 . S
C815 C808 1.409 . S
C815 C814 1.362 . S
H816 C822 0.930 . S
H817 C825 0.930 . S
H818 C826 0.930 . S
H819 C827 0.930 . S
H820 C830 0.930 . S
H821 C831 0.930 . S
C822 H816 0.930 . S
C822 C823 1.355 . S
C822 C824 1.415 . S
C823 C822 1.355 . S
C823 C825 1.419 . S
C824 C822 1.415 . S
C824 C829 1.425 . S
C824 C831 1.409 . S
C825 H817 0.930 . S
C825 C823 1.419 . S
C825 C826 1.362 . S
C826 H818 0.930 . S
C826 C825 1.362 . S
C826 C829 1.409 . S
C827 H819 0.930 . S
C827 C828 1.355 . S
C827 C829 1.415 . S
C828 C827 1.355 . S
C828 C830 1.419 . S
C829 C824 1.425 . S
C829 C826 1.409 . S
C829 C827 1.415 . S
C830 H820 0.930 . S
C830 C828 1.419 . S
C830 C831 1.362 . S
C831 H821 0.930 . S
C831 C824 1.409 . S
C831 C830 1.362 . S
H832 C838 0.930 . S
H833 C841 0.930 . S
H834 C842 0.930 . S
H835 C843 0.930 . S
H836 C846 0.930 . S
H837 C847 0.930 . S
C838 H832 0.930 . S
C838 C839 1.355 . S
C838 C840 1.415 . S
C839 C838 1.355 . S
C839 C841 1.419 . S
C840 C838 1.415 . S
C840 C845 1.425 . S
C840 C847 1.409 . S
C841 H833 0.930 . S
C841 C839 1.419 . S
C841 C842 1.362 . S
C842 H834 0.930 . S
C842 C841 1.362 . S
C842 C845 1.409 . S
C843 H835 0.930 . S
C843 C844 1.355 . S
C843 C845 1.415 . S
C844 C843 1.355 . S
C844 C846 1.419 . S
C845 C840 1.425 . S
C845 C842 1.409 . S
C845 C843 1.415 . S
C846 H836 0.930 . S
C846 C844 1.419 . S
C846 C847 1.362 . S
C847 H837 0.930 . S
C847 C840 1.409 . S
C847 C846 1.362 . S
H848 C854 0.930 . S
H849 C857 0.930 . S
H850 C858 0.965 . S
H851 C859 0.930 1_455 S
H852 C862 0.947 . S
H853 C863 0.930 . S
C854 H848 0.930 . S
C854 C855 1.355 . S
C854 C856 1.415 . S
C855 C854 1.355 . S
C855 C857 1.419 . S
C856 C854 1.415 . S
C856 C861 1.425 . S
C856 C863 1.409 . S
C857 H849 0.930 . S
C857 C855 1.419 . S
C857 C858 1.362 . S
C858 H850 0.965 . S
C858 C857 1.362 . S
C858 C861 1.409 . S
C859 H851 0.930 1_655 S
C859 C860 1.355 . S
C859 C861 1.415 . S
C860 C859 1.355 . S
C860 C862 1.419 . S
C861 C856 1.425 . S
C861 C858 1.409 . S
C861 C859 1.415 . S
C862 H852 0.947 . S
C862 C860 1.419 . S
C862 C863 1.362 . S
C863 H853 0.930 . S
C863 C856 1.409 . S
C863 C862 1.362 . S
H864 C870 0.930 . S
H865 C873 0.930 . S
H866 C874 0.930 . S
H867 C875 0.930 . S
H868 C878 0.930 . S
H869 C879 0.930 . S
C870 H864 0.930 . S
C870 C871 1.355 . S
C870 C872 1.415 . S
C871 C870 1.355 . S
C871 C873 1.419 . S
C872 C870 1.415 . S
C872 C877 1.425 . S
C872 C879 1.409 . S
C873 H865 0.930 . S
C873 C871 1.419 . S
C873 C874 1.362 . S
C874 H866 0.930 . S
C874 C873 1.362 . S
C874 C877 1.409 . S
C875 H867 0.930 . S
C875 C876 1.355 . S
C875 C877 1.415 . S
C876 C875 1.355 . S
C876 C878 1.419 . S
C877 C872 1.425 . S
C877 C874 1.409 . S
C877 C875 1.415 . S
C878 H868 0.930 . S
C878 C876 1.419 . S
C878 C879 1.362 . S
C879 H869 0.930 . S
C879 C872 1.409 . S
C879 C878 1.362 . S
H880 C886 0.930 . S
H881 C889 0.930 . S
H882 C890 0.930 . S
H883 C891 0.930 . S
H884 C894 0.930 . S
H885 C895 0.930 . S
C886 H880 0.930 . S
C886 C887 1.355 . S
C886 C888 1.415 . S
C887 C886 1.355 . S
C887 C889 1.419 . S
C888 C886 1.415 . S
C888 C893 1.425 . S
C888 C895 1.409 . S
C889 H881 0.930 . S
C889 C887 1.419 . S
C889 C890 1.362 . S
C890 H882 0.930 . S
C890 C889 1.362 . S
C890 C893 1.409 . S
C891 H883 0.930 . S
C891 C892 1.355 . S
C891 C893 1.415 . S
C892 C891 1.355 . S
C892 C894 1.419 . S
C893 C888 1.425 . S
C893 C890 1.409 . S
C893 C891 1.415 . S
C894 H884 0.930 . S
C894 C892 1.419 . S
C894 C895 1.362 . S
C895 H885 0.930 . S
C895 C888 1.409 . S
C895 C894 1.362 . S
H896 C902 0.930 . S
H897 C905 0.930 . S
H898 C906 0.930 . S
H899 C907 0.930 . S
H900 C910 0.930 . S
H901 C911 0.930 . S
C902 H896 0.930 . S
C902 C903 1.355 . S
C902 C904 1.415 . S
C903 C902 1.355 . S
C903 C905 1.419 . S
C904 C902 1.415 . S
C904 C909 1.425 . S
C904 C911 1.409 . S
C905 H897 0.930 . S
C905 C903 1.419 . S
C905 C906 1.362 . S
C906 H898 0.930 . S
C906 C905 1.362 . S
C906 C909 1.409 . S
C907 H899 0.930 . S
C907 C908 1.355 . S
C907 C909 1.415 . S
C908 C907 1.355 . S
C908 C910 1.419 . S
C909 C904 1.425 . S
C909 C906 1.409 . S
C909 C907 1.415 . S
C910 H900 0.930 . S
C910 C908 1.419 . S
C910 C911 1.362 . S
C911 H901 0.930 . S
C911 C904 1.409 . S
C911 C910 1.362 . S
H912 C918 0.930 . S
H913 C921 0.930 . S
H914 C922 0.930 . S
H915 C923 0.930 . S
H916 C926 0.930 . S
H917 C927 0.930 . S
C918 H912 0.930 . S
C918 C919 1.355 . S
C918 C920 1.415 . S
C919 C918 1.355 . S
C919 C921 1.419 . S
C920 C918 1.415 . S
C920 C925 1.425 . S
C920 C927 1.409 1_565 S
C921 H913 0.930 . S
C921 C919 1.419 . S
C921 C922 1.362 . S
C922 H914 0.930 . S
C922 C921 1.362 . S
C922 C925 1.409 . S
C923 H915 0.930 . S
C923 C924 1.355 1_565 S
C923 C925 1.415 . S
C924 C923 1.355 1_545 S
C924 C926 1.419 . S
C925 C920 1.425 . S
C925 C922 1.409 . S
C925 C923 1.415 . S
C926 H916 0.930 . S
C926 C924 1.419 . S
C926 C927 1.362 . S
C927 H917 0.930 . S
C927 C920 1.409 1_545 S
C927 C926 1.362 . S
H928 C934 0.930 . S
H929 C937 0.930 1_556 S
H930 C938 0.925 1_556 S
H931 C939 0.930 . S
H932 C942 0.930 . S
H933 C943 0.930 . S
C934 H928 0.930 . S
C934 C935 1.355 . S
C934 C936 1.415 . S
C935 C934 1.355 . S
C935 C937 1.419 . S
C936 C934 1.415 . S
C936 C941 1.425 . S
C936 C943 1.409 . S
C937 H929 0.930 1_554 S
C937 C935 1.419 . S
C937 C938 1.362 . S
C938 H930 0.925 1_554 S
C938 C937 1.362 . S
C938 C941 1.415 . S
C939 H931 0.930 . S
C939 C940 1.355 . S
C939 C941 1.415 . S
C940 C939 1.355 . S
C940 C942 1.419 . S
C941 C936 1.425 . S
C941 C938 1.415 . S
C941 C939 1.415 . S
C942 H932 0.930 . S
C942 C940 1.419 . S
C942 C943 1.362 . S
C943 H933 0.930 . S
C943 C936 1.409 . S
C943 C942 1.362 . S
H944 C950 0.930 . S
H945 C953 0.930 . S
H946 C954 0.930 . S
H947 C955 0.930 . S
H948 C958 0.930 . S
H949 C959 0.930 . S
C950 H944 0.930 . S
C950 C951 1.355 . S
C950 C952 1.415 . S
C951 C950 1.355 . S
C951 C953 1.419 . S
C952 C950 1.415 . S
C952 C957 1.425 . S
C952 C959 1.409 . S
C953 H945 0.930 . S
C953 C951 1.419 . S
C953 C954 1.362 . S
C954 H946 0.930 . S
C954 C953 1.362 . S
C954 C957 1.409 . S
C955 H947 0.930 . S
C955 C956 1.355 . S
C955 C957 1.415 . S
C956 C955 1.355 . S
C956 C958 1.419 . S
C957 C952 1.425 . S
C957 C954 1.409 . S
C957 C955 1.415 . S
C958 H948 0.930 . S
C958 C956 1.419 . S
C958 C959 1.362 . S
C959 H949 0.930 . S
C959 C952 1.409 . S
C959 C958 1.362 . S
H960 C966 0.930 . S
H961 C969 0.930 . S
H962 C970 0.930 . S
H963 C971 0.930 . S
H964 C974 0.930 . S
H965 C975 0.930 . S
C966 H960 0.930 . S
C966 C967 1.355 . S
C966 C968 1.415 . S
C967 C966 1.355 . S
C967 C969 1.419 . S
C968 C966 1.415 . S
C968 C973 1.425 . S
C968 C975 1.409 . S
C969 H961 0.930 . S
C969 C967 1.419 . S
C969 C970 1.362 . S
C970 H962 0.930 . S
C970 C969 1.362 . S
C970 C973 1.409 . S
C971 H963 0.930 . S
C971 C972 1.355 . S
C971 C973 1.415 . S
C972 C971 1.355 . S
C972 C974 1.419 . S
C973 C968 1.425 . S
C973 C970 1.409 . S
C973 C971 1.415 . S
C974 H964 0.930 . S
C974 C972 1.419 . S
C974 C975 1.362 . S
C975 H965 0.930 . S
C975 C968 1.409 . S
C975 C974 1.362 . S
H976 C982 0.930 . S
H977 C985 0.930 . S
H978 C986 0.930 . S
H979 C987 0.930 . S
H980 C990 0.930 . S
H981 C991 0.930 . S
C982 H976 0.930 . S
C982 C983 1.355 . S
C982 C984 1.415 . S
C983 C982 1.355 . S
C983 C985 1.419 . S
C984 C982 1.415 . S
C984 C989 1.425 . S
C984 C991 1.409 . S
C985 H977 0.930 . S
C985 C983 1.419 . S
C985 C986 1.362 . S
C986 H978 0.930 . S
C986 C985 1.362 . S
C986 C989 1.409 . S
C987 H979 0.930 . S
C987 C988 1.355 . S
C987 C989 1.415 . S
C988 C987 1.355 . S
C988 C990 1.419 . S
C989 C984 1.425 . S
C989 C986 1.409 . S
C989 C987 1.415 . S
C990 H980 0.930 . S
C990 C988 1.419 . S
C990 C991 1.362 . S
C991 H981 0.930 . S
C991 C984 1.409 . S
C991 C990 1.362 . S
H992 C998 0.930 . S
H993 C1001 0.930 . S
H994 C1002 0.930 . S
H995 C1003 0.930 . S
H996 C1006 0.930 . S
H997 C1007 0.930 . S
C998 H992 0.930 . S
C998 C999 1.355 . S
C998 C1000 1.415 . S
C999 C998 1.355 . S
C999 C1001 1.419 . S
C1000 C998 1.415 . S
C1000 C1005 1.425 . S
C1000 C1007 1.409 . S
C1001 H993 0.930 . S
C1001 C999 1.419 . S
C1001 C1002 1.362 . S
C1002 H994 0.930 . S
C1002 C1001 1.362 . S
C1002 C1005 1.409 . S
C1003 H995 0.930 . S
C1003 C1004 1.355 . S
C1003 C1005 1.415 . S
C1004 C1003 1.355 . S
C1004 C1006 1.419 . S
C1005 C1000 1.425 . S
C1005 C1002 1.409 . S
C1005 C1003 1.415 . S
C1006 H996 0.930 . S
C1006 C1004 1.419 . S
C1006 C1007 1.362 . S
C1007 H997 0.930 . S
C1007 C1000 1.409 . S
C1007 C1006 1.362 . S
H1008 C1014 0.930 . S
H1009 C1017 0.930 . S
H1010 C1018 0.930 . S
H1011 C1019 0.930 . S
H1012 C1022 0.930 . S
H1013 C1023 0.930 . S
C1014 H1008 0.930 . S
C1014 C1015 1.355 . S
C1014 C1016 1.415 . S
C1015 C1014 1.355 . S
C1015 C1017 1.419 . S
C1016 C1014 1.415 . S
C1016 C1021 1.425 . S
C1016 C1023 1.409 . S
C1017 H1009 0.930 . S
C1017 C1015 1.419 . S
C1017 C1018 1.362 . S
C1018 H1010 0.930 . S
C1018 C1017 1.362 . S
C1018 C1021 1.409 . S
C1019 H1011 0.930 . S
C1019 C1020 1.355 . S
C1019 C1021 1.415 . S
C1020 C1019 1.355 . S
C1020 C1022 1.419 . S
C1021 C1016 1.425 . S
C1021 C1018 1.409 . S
C1021 C1019 1.415 . S
C1022 H1012 0.930 . S
C1022 C1020 1.419 . S
C1022 C1023 1.362 . S
C1023 H1013 0.930 . S
C1023 C1016 1.409 . S
C1023 C1022 1.362 . S
H1024 C1030 0.930 . S
H1025 C1033 0.930 . S
H1026 C1034 0.930 . S
H1027 C1035 0.930 . S
H1028 C1038 0.930 . S
H1029 C1039 0.930 . S
C1030 H1024 0.930 . S
C1030 C1031 1.355 . S
C1030 C1032 1.415 . S
C1031 C1030 1.355 . S
C1031 C1033 1.419 . S
C1032 C1030 1.415 . S
C1032 C1037 1.425 . S
C1032 C1039 1.409 . S
C1033 H1025 0.930 . S
C1033 C1031 1.419 . S
C1033 C1034 1.362 . S
C1034 H1026 0.930 . S
C1034 C1033 1.362 . S
C1034 C1037 1.409 . S
C1035 H1027 0.930 . S
C1035 C1036 1.355 . S
C1035 C1037 1.415 . S
C1036 C1035 1.355 . S
C1036 C1038 1.419 . S
C1037 C1032 1.425 . S
C1037 C1034 1.409 . S
C1037 C1035 1.415 . S
C1038 H1028 0.930 . S
C1038 C1036 1.419 . S
C1038 C1039 1.362 . S
C1039 H1029 0.930 . S
C1039 C1032 1.409 . S
C1039 C1038 1.362 . S
H1040 C1046 0.930 . S
H1041 C1049 0.930 . S
H1042 C1050 0.930 . S
H1043 C1051 0.930 . S
H1044 C1054 0.930 1_556 S
H1045 C1055 0.930 . S
C1046 H1040 0.930 . S
C1046 C1047 1.355 . S
C1046 C1048 1.415 . S
C1047 C1046 1.355 . S
C1047 C1049 1.419 . S
C1048 C1046 1.415 . S
C1048 C1053 1.425 . S
C1048 C1055 1.409 . S
C1049 H1041 0.930 . S
C1049 C1047 1.419 . S
C1049 C1050 1.362 . S
C1050 H1042 0.930 . S
C1050 C1049 1.362 . S
C1050 C1053 1.409 . S
C1051 H1043 0.930 . S
C1051 C1052 1.355 . S
C1051 C1053 1.415 . S
C1052 C1051 1.355 . S
C1052 C1054 1.419 . S
C1053 C1048 1.425 . S
C1053 C1050 1.409 . S
C1053 C1051 1.415 . S
C1054 H1044 0.930 1_554 S
C1054 C1052 1.419 . S
C1054 C1055 1.362 . S
C1055 H1045 0.930 . S
C1055 C1048 1.409 . S
C1055 C1054 1.362 . S
H1056 C1062 0.930 . S
H1057 C1065 0.930 . S
H1058 C1066 0.930 . S
H1059 C1067 0.930 . S
H1060 C1070 0.930 . S
H1061 C1071 0.930 . S
C1062 H1056 0.930 . S
C1062 C1063 1.355 . S
C1062 C1064 1.415 . S
C1063 C1062 1.355 . S
C1063 C1065 1.419 . S
C1064 C1062 1.415 . S
C1064 C1069 1.425 . S
C1064 C1071 1.409 . S
C1065 H1057 0.930 . S
C1065 C1063 1.419 . S
C1065 C1066 1.362 . S
C1066 H1058 0.930 . S
C1066 C1065 1.362 . S
C1066 C1069 1.409 . S
C1067 H1059 0.930 . S
C1067 C1068 1.355 . S
C1067 C1069 1.415 . S
C1068 C1067 1.355 . S
C1068 C1070 1.419 . S
C1069 C1064 1.425 . S
C1069 C1066 1.409 . S
C1069 C1067 1.415 . S
C1070 H1060 0.930 . S
C1070 C1068 1.419 . S
C1070 C1071 1.362 . S
C1071 H1061 0.930 . S
C1071 C1064 1.409 . S
C1071 C1070 1.362 . S
H1072 C1078 0.930 . S
H1073 C1081 0.930 . S
H1074 C1082 0.930 . S
H1075 C1083 0.930 . S
H1076 C1086 0.930 . S
H1077 C1087 0.930 . S
C1078 H1072 0.930 . S
C1078 C1079 1.355 . S
C1078 C1080 1.415 . S
C1079 C1078 1.355 . S
C1079 C1081 1.419 . S
C1080 C1078 1.415 . S
C1080 C1085 1.425 . S
C1080 C1087 1.409 . S
C1081 H1073 0.930 . S
C1081 C1079 1.419 . S
C1081 C1082 1.362 . S
C1082 H1074 0.930 . S
C1082 C1081 1.362 . S
C1082 C1085 1.409 . S
C1083 H1075 0.930 . S
C1083 C1084 1.355 . S
C1083 C1085 1.415 . S
C1084 C1083 1.355 . S
C1084 C1086 1.419 . S
C1085 C1080 1.425 . S
C1085 C1082 1.409 . S
C1085 C1083 1.415 . S
C1086 H1076 0.930 . S
C1086 C1084 1.419 . S
C1086 C1087 1.362 . S
C1087 H1077 0.930 . S
C1087 C1080 1.409 . S
C1087 C1086 1.362 . S
H1088 C1094 0.930 . S
H1089 C1097 0.930 . S
H1090 C1098 0.930 . S
H1091 C1099 0.930 . S
H1092 C1102 0.930 . S
H1093 C1103 0.930 . S
C1094 H1088 0.930 . S
C1094 C1095 1.355 . S
C1094 C1096 1.415 . S
C1095 C1094 1.355 . S
C1095 C1097 1.419 . S
C1096 C1094 1.415 . S
C1096 C1101 1.425 . S
C1096 C1103 1.409 . S
C1097 H1089 0.930 . S
C1097 C1095 1.419 . S
C1097 C1098 1.362 . S
C1098 H1090 0.930 . S
C1098 C1097 1.362 . S
C1098 C1101 1.409 . S
C1099 H1091 0.930 . S
C1099 C1100 1.355 . S
C1099 C1101 1.415 . S
C1100 C1099 1.355 . S
C1100 C1102 1.419 . S
C1101 C1096 1.425 . S
C1101 C1098 1.409 . S
C1101 C1099 1.415 . S
C1102 H1092 0.930 . S
C1102 C1100 1.419 . S
C1102 C1103 1.362 . S
C1103 H1093 0.930 . S
C1103 C1096 1.409 . S
C1103 C1102 1.362 . S
H1104 C1110 0.930 . S
H1105 C1113 0.930 . S
H1106 C1114 0.930 . S
H1107 C1115 0.930 . S
H1108 C1118 0.930 . S
H1109 C1119 0.930 . S
C1110 H1104 0.930 . S
C1110 C1111 1.355 1_655 S
C1110 C1112 1.415 . S
C1111 C1110 1.355 1_455 S
C1111 C1113 1.419 . S
C1112 C1110 1.415 . S
C1112 C1117 1.425 1_655 S
C1112 C1119 1.409 . S
C1113 H1105 0.930 . S
C1113 C1111 1.419 . S
C1113 C1114 1.362 . S
C1114 H1106 0.930 . S
C1114 C1113 1.362 . S
C1114 C1117 1.409 . S
C1115 H1107 0.930 . S
C1115 C1116 1.355 . S
C1115 C1117 1.415 . S
C1116 C1115 1.355 . S
C1116 C1118 1.419 1_455 S
C1117 C1112 1.425 1_455 S
C1117 C1114 1.409 . S
C1117 C1115 1.415 . S
C1118 H1108 0.930 . S
C1118 C1116 1.419 1_655 S
C1118 C1119 1.362 . S
C1119 H1109 0.930 . S
C1119 C1112 1.409 . S
C1119 C1118 1.362 . S
H1120 C1126 0.930 . S
H1121 C1129 0.930 . S
H1122 C1130 0.930 . S
H1123 C1131 0.930 . S
H1124 C1134 0.930 . S
H1125 C1135 0.930 . S
C1126 H1120 0.930 . S
C1126 C1127 1.355 . S
C1126 C1128 1.415 . S
C1127 C1126 1.355 . S
C1127 C1129 1.419 . S
C1128 C1126 1.415 . S
C1128 C1133 1.425 . S
C1128 C1135 1.409 . S
C1129 H1121 0.930 . S
C1129 C1127 1.419 . S
C1129 C1130 1.362 . S
C1130 H1122 0.930 . S
C1130 C1129 1.362 . S
C1130 C1133 1.409 . S
C1131 H1123 0.930 . S
C1131 C1132 1.355 . S
C1131 C1133 1.415 . S
C1132 C1131 1.355 . S
C1132 C1134 1.419 . S
C1133 C1128 1.425 . S
C1133 C1130 1.409 . S
C1133 C1131 1.415 . S
C1134 H1124 0.930 . S
C1134 C1132 1.419 . S
C1134 C1135 1.362 . S
C1135 H1125 0.930 . S
C1135 C1128 1.409 . S
C1135 C1134 1.362 . S
H1136 C1142 0.930 . S
H1137 C1145 0.930 . S
H1138 C1146 0.930 . S
H1139 C1147 0.930 . S
H1140 C1150 0.930 . S
H1141 C1151 0.930 . S
C1142 H1136 0.930 . S
C1142 C1143 1.355 . S
C1142 C1144 1.415 . S
C1143 C1142 1.355 . S
C1143 C1145 1.419 . S
C1144 C1142 1.415 . S
C1144 C1149 1.425 . S
C1144 C1151 1.409 . S
C1145 H1137 0.930 . S
C1145 C1143 1.419 . S
C1145 C1146 1.362 . S
C1146 H1138 0.930 . S
C1146 C1145 1.362 . S
C1146 C1149 1.409 . S
C1147 H1139 0.930 . S
C1147 C1148 1.355 . S
C1147 C1149 1.415 . S
C1148 C1147 1.355 . S
C1148 C1150 1.419 1_556 S
C1149 C1144 1.425 . S
C1149 C1146 1.409 . S
C1149 C1147 1.415 . S
C1150 H1140 0.930 . S
C1150 C1148 1.419 1_554 S
C1150 C1151 1.362 1_554 S
C1151 H1141 0.930 . S
C1151 C1144 1.409 . S
C1151 C1150 1.362 1_556 S
H1152 C1158 0.930 . S
H1153 C1161 0.930 . S
H1154 C1162 0.930 . S
H1155 C1163 0.930 . S
H1156 C1166 0.930 . S
H1157 C1167 0.930 . S
C1158 H1152 0.930 . S
C1158 C1159 1.355 . S
C1158 C1160 1.415 . S
C1159 C1158 1.355 . S
C1159 C1161 1.419 . S
C1160 C1158 1.415 . S
C1160 C1165 1.425 . S
C1160 C1167 1.409 . S
C1161 H1153 0.930 . S
C1161 C1159 1.419 . S
C1161 C1162 1.362 . S
C1162 H1154 0.930 . S
C1162 C1161 1.362 . S
C1162 C1165 1.409 . S
C1163 H1155 0.930 . S
C1163 C1164 1.355 . S
C1163 C1165 1.415 . S
C1164 C1163 1.355 . S
C1164 C1166 1.419 . S
C1165 C1160 1.425 . S
C1165 C1162 1.409 . S
C1165 C1163 1.415 . S
C1166 H1156 0.930 . S
C1166 C1164 1.419 . S
C1166 C1167 1.362 . S
C1167 H1157 0.930 . S
C1167 C1160 1.409 . S
C1167 C1166 1.362 . S
H1168 C1174 0.948 . S
H1169 C1177 0.930 . S
H1170 C1178 0.930 . S
H1171 C1179 0.930 . S
H1172 C1182 0.930 . S
H1173 C1183 0.930 . S
C1174 H1168 0.948 . S
C1174 C1175 1.343 1_565 S
C1174 C1176 1.409 1_565 S
C1175 C1174 1.343 1_545 S
C1175 C1177 1.419 . S
C1176 C1174 1.409 1_545 S
C1176 C1181 1.425 . S
C1176 C1183 1.409 1_545 S
C1177 H1169 0.930 . S
C1177 C1175 1.419 . S
C1177 C1178 1.362 . S
C1178 H1170 0.930 . S
C1178 C1177 1.362 . S
C1178 C1181 1.409 . S
C1179 H1171 0.930 . S
C1179 C1180 1.355 . S
C1179 C1181 1.415 . S
C1180 C1179 1.355 . S
C1180 C1182 1.419 1_545 S
C1181 C1176 1.425 . S
C1181 C1178 1.409 . S
C1181 C1179 1.415 . S
C1182 H1172 0.930 . S
C1182 C1180 1.419 1_565 S
C1182 C1183 1.362 . S
C1183 H1173 0.930 . S
C1183 C1176 1.409 1_565 S
C1183 C1182 1.362 . S
H1184 C1190 0.930 . S
H1185 C1193 0.930 . S
H1186 C1194 0.930 . S
H1187 C1195 0.930 . S
H1188 C1198 0.930 . S
H1189 C1199 0.930 . S
C1190 H1184 0.930 . S
C1190 C1191 1.355 . S
C1190 C1192 1.415 . S
C1191 C1190 1.355 . S
C1191 C1193 1.419 . S
C1192 C1190 1.415 . S
C1192 C1197 1.425 . S
C1192 C1199 1.409 . S
C1193 H1185 0.930 . S
C1193 C1191 1.419 . S
C1193 C1194 1.362 . S
C1194 H1186 0.930 . S
C1194 C1193 1.362 . S
C1194 C1197 1.409 . S
C1195 H1187 0.930 . S
C1195 C1196 1.355 . S
C1195 C1197 1.415 . S
C1196 C1195 1.355 . S
C1196 C1198 1.419 . S
C1197 C1192 1.425 . S
C1197 C1194 1.409 . S
C1197 C1195 1.415 . S
C1198 H1188 0.930 . S
C1198 C1196 1.419 . S
C1198 C1199 1.362 . S
C1199 H1189 0.930 . S
C1199 C1192 1.409 . S
C1199 C1198 1.362 . S
H1200 C1206 0.930 . S
H1201 C1209 0.939 . S
H1202 C1210 0.930 1_565 S
H1203 C1211 0.930 . S
H1204 C1214 0.930 . S
H1205 C1215 0.930 . S
C1206 H1200 0.930 . S
C1206 C1207 1.355 . S
C1206 C1208 1.415 . S
C1207 C1206 1.355 . S
C1207 C1209 1.419 . S
C1208 C1206 1.415 . S
C1208 C1213 1.425 . S
C1208 C1215 1.409 . S
C1209 H1201 0.939 . S
C1209 C1207 1.419 . S
C1209 C1210 1.362 . S
C1210 H1202 0.930 1_545 S
C1210 C1209 1.362 . S
C1210 C1213 1.409 . S
C1211 H1203 0.930 . S
C1211 C1212 1.355 . S
C1211 C1213 1.415 . S
C1212 C1211 1.355 . S
C1212 C1214 1.419 . S
C1213 C1208 1.425 . S
C1213 C1210 1.409 . S
C1213 C1211 1.415 . S
C1214 H1204 0.930 . S
C1214 C1212 1.419 . S
C1214 C1215 1.362 . S
C1215 H1205 0.930 . S
C1215 C1208 1.409 . S
C1215 C1214 1.362 . S
H1216 C1222 0.930 . S
H1217 C1225 0.930 . S
H1218 C1226 0.930 . S
H1219 C1227 0.930 . S
H1220 C1230 0.930 . S
H1221 C1231 0.930 . S
C1222 H1216 0.930 . S
C1222 C1223 1.355 . S
C1222 C1224 1.415 . S
C1223 C1222 1.355 . S
C1223 C1225 1.419 . S
C1224 C1222 1.415 . S
C1224 C1229 1.425 . S
C1224 C1231 1.409 . S
C1225 H1217 0.930 . S
C1225 C1223 1.419 . S
C1225 C1226 1.362 . S
C1226 H1218 0.930 . S
C1226 C1225 1.362 . S
C1226 C1229 1.409 . S
C1227 H1219 0.930 . S
C1227 C1228 1.355 . S
C1227 C1229 1.415 . S
C1228 C1227 1.355 . S
C1228 C1230 1.419 . S
C1229 C1224 1.425 . S
C1229 C1226 1.409 . S
C1229 C1227 1.415 . S
C1230 H1220 0.930 . S
C1230 C1228 1.419 . S
C1230 C1231 1.362 . S
C1231 H1221 0.930 . S
C1231 C1224 1.409 . S
C1231 C1230 1.362 . S
H1232 C1238 0.930 . S
H1233 C1241 0.930 . S
H1234 C1242 0.930 . S
H1235 C1243 0.930 . S
H1236 C1246 0.930 . S
H1237 C1247 0.938 . S
C1238 H1232 0.930 . S
C1238 C1239 1.355 1_565 S
C1238 C1240 1.415 1_565 S
C1239 C1238 1.355 1_545 S
C1239 C1241 1.419 . S
C1240 C1238 1.415 1_545 S
C1240 C1245 1.425 . S
C1240 C1247 1.411 1_545 S
C1241 H1233 0.930 . S
C1241 C1239 1.419 . S
C1241 C1242 1.362 . S
C1242 H1234 0.930 . S
C1242 C1241 1.362 . S
C1242 C1245 1.409 . S
C1243 H1235 0.930 . S
C1243 C1244 1.355 . S
C1243 C1245 1.415 . S
C1244 C1243 1.355 . S
C1244 C1246 1.419 . S
C1245 C1240 1.425 . S
C1245 C1242 1.409 . S
C1245 C1243 1.415 . S
C1246 H1236 0.930 . S
C1246 C1244 1.419 . S
C1246 C1247 1.353 1_545 S
C1247 H1237 0.938 . S
C1247 C1240 1.411 1_565 S
C1247 C1246 1.353 1_565 S
H1248 C1254 0.930 . S
H1249 C1257 0.930 . S
H1250 C1258 0.930 . S
H1251 C1259 0.930 . S
H1252 C1262 0.930 . S
H1253 C1263 0.930 . S
C1254 H1248 0.930 . S
C1254 C1255 1.355 . S
C1254 C1256 1.415 . S
C1255 C1254 1.355 . S
C1255 C1257 1.419 . S
C1256 C1254 1.415 . S
C1256 C1261 1.425 . S
C1256 C1263 1.409 . S
C1257 H1249 0.930 . S
C1257 C1255 1.419 . S
C1257 C1258 1.362 . S
C1258 H1250 0.930 . S
C1258 C1257 1.362 . S
C1258 C1261 1.409 . S
C1259 H1251 0.930 . S
C1259 C1260 1.355 . S
C1259 C1261 1.415 . S
C1260 C1259 1.355 . S
C1260 C1262 1.419 . S
C1261 C1256 1.425 . S
C1261 C1258 1.409 . S
C1261 C1259 1.415 . S
C1262 H1252 0.930 . S
C1262 C1260 1.419 . S
C1262 C1263 1.362 . S
C1263 H1253 0.930 . S
C1263 C1256 1.409 . S
C1263 C1262 1.362 . S
H1264 C1270 0.930 . S
H1265 C1273 0.930 . S
H1266 C1274 0.930 . S
H1267 C1275 0.930 . S
H1268 C1278 0.930 . S
H1269 C1279 0.930 . S
C1270 H1264 0.930 . S
C1270 C1271 1.355 . S
C1270 C1272 1.415 . S
C1271 C1270 1.355 . S
C1271 C1273 1.419 . S
C1272 C1270 1.415 . S
C1272 C1277 1.425 . S
C1272 C1279 1.409 1_545 S
C1273 H1265 0.930 . S
C1273 C1271 1.419 . S
C1273 C1274 1.362 . S
C1274 H1266 0.930 . S
C1274 C1273 1.362 . S
C1274 C1277 1.409 . S
C1275 H1267 0.930 . S
C1275 C1276 1.349 1_545 S
C1275 C1277 1.415 . S
C1276 C1275 1.349 1_565 S
C1276 C1278 1.424 . S
C1277 C1272 1.425 . S
C1277 C1274 1.409 . S
C1277 C1275 1.415 . S
C1278 H1268 0.930 . S
C1278 C1276 1.424 . S
C1278 C1279 1.362 . S
C1279 H1269 0.930 . S
C1279 C1272 1.409 1_565 S
C1279 C1278 1.362 . S
H1280 C1286 0.930 . S
H1281 C1289 0.930 . S
H1282 C1290 0.930 . S
H1283 C1291 0.930 . S
H1284 C1294 0.930 . S
H1285 C1295 0.930 . S
C1286 H1280 0.930 . S
C1286 C1287 1.355 . S
C1286 C1288 1.415 . S
C1287 C1286 1.355 . S
C1287 C1289 1.419 . S
C1288 C1286 1.415 . S
C1288 C1293 1.425 . S
C1288 C1295 1.409 . S
C1289 H1281 0.930 . S
C1289 C1287 1.419 . S
C1289 C1290 1.362 . S
C1290 H1282 0.930 . S
C1290 C1289 1.362 . S
C1290 C1293 1.409 . S
C1291 H1283 0.930 . S
C1291 C1292 1.355 . S
C1291 C1293 1.415 . S
C1292 C1291 1.355 . S
C1292 C1294 1.419 . S
C1293 C1288 1.425 . S
C1293 C1290 1.409 . S
C1293 C1291 1.415 . S
C1294 H1284 0.930 . S
C1294 C1292 1.419 . S
C1294 C1295 1.362 . S
C1295 H1285 0.930 . S
C1295 C1288 1.409 . S
C1295 C1294 1.362 . S
H1296 C1302 0.930 . S
H1297 C1305 0.930 . S
H1298 C1306 0.930 . S
H1299 C1307 0.930 . S
H1300 C1310 0.930 . S
H1301 C1311 0.930 . S
C1302 H1296 0.930 . S
C1302 C1303 1.355 . S
C1302 C1304 1.415 1_554 S
C1303 C1302 1.355 . S
C1303 C1305 1.419 . S
C1304 C1302 1.415 1_556 S
C1304 C1309 1.423 . S
C1304 C1311 1.409 . S
C1305 H1297 0.930 . S
C1305 C1303 1.419 . S
C1305 C1306 1.362 . S
C1306 H1298 0.930 . S
C1306 C1305 1.362 . S
C1306 C1309 1.404 1_554 S
C1307 H1299 0.930 . S
C1307 C1308 1.355 . S
C1307 C1309 1.423 . S
C1308 C1307 1.355 . S
C1308 C1310 1.419 . S
C1309 C1304 1.423 . S
C1309 C1306 1.404 1_556 S
C1309 C1307 1.423 . S
C1310 H1300 0.930 . S
C1310 C1308 1.419 . S
C1310 C1311 1.362 . S
C1311 H1301 0.930 . S
C1311 C1304 1.409 . S
C1311 C1310 1.362 . S
H1312 C1318 0.930 . S
H1313 C1321 0.933 . S
H1314 C1322 0.930 . S
H1315 C1323 0.930 1_556 S
H1316 C1326 0.930 . S
H1317 C1327 0.930 . S
C1318 H1312 0.930 . S
C1318 C1319 1.355 . S
C1318 C1320 1.415 . S
C1319 C1318 1.355 . S
C1319 C1321 1.414 1_554 S
C1320 C1318 1.415 . S
C1320 C1325 1.425 . S
C1320 C1327 1.409 . S
C1321 H1313 0.933 . S
C1321 C1319 1.414 1_556 S
C1321 C1322 1.364 . S
C1322 H1314 0.930 . S
C1322 C1321 1.364 . S
C1322 C1325 1.409 1_556 S
C1323 H1315 0.930 1_554 S
C1323 C1324 1.355 . S
C1323 C1325 1.415 . S
C1324 C1323 1.355 . S
C1324 C1326 1.419 . S
C1325 C1320 1.425 . S
C1325 C1322 1.409 1_554 S
C1325 C1323 1.415 . S
C1326 H1316 0.930 . S
C1326 C1324 1.419 . S
C1326 C1327 1.362 . S
C1327 H1317 0.930 . S
C1327 C1320 1.409 . S
C1327 C1326 1.362 . S
H1328 C1334 0.930 . S
H1329 C1337 0.930 . S
H1330 C1338 0.930 . S
H1331 C1339 0.930 . S
H1332 C1342 0.930 . S
H1333 C1343 0.930 . S
C1334 H1328 0.930 . S
C1334 C1335 1.355 . S
C1334 C1336 1.415 . S
C1335 C1334 1.355 . S
C1335 C1337 1.419 . S
C1336 C1334 1.415 . S
C1336 C1341 1.425 . S
C1336 C1343 1.409 . S
C1337 H1329 0.930 . S
C1337 C1335 1.419 . S
C1337 C1338 1.362 . S
C1338 H1330 0.930 . S
C1338 C1337 1.362 . S
C1338 C1341 1.409 . S
C1339 H1331 0.930 . S
C1339 C1340 1.355 . S
C1339 C1341 1.415 . S
C1340 C1339 1.355 . S
C1340 C1342 1.419 . S
C1341 C1336 1.425 . S
C1341 C1338 1.409 . S
C1341 C1339 1.415 . S
C1342 H1332 0.930 . S
C1342 C1340 1.419 . S
C1342 C1343 1.362 . S
C1343 H1333 0.930 . S
C1343 C1336 1.409 . S
C1343 C1342 1.362 . S
H1344 C1350 0.930 . S
H1345 C1353 0.930 . S
H1346 C1354 0.930 . S
H1347 C1355 0.930 . S
H1348 C1358 0.930 . S
H1349 C1359 0.930 . S
C1350 H1344 0.930 . S
C1350 C1351 1.355 . S
C1350 C1352 1.415 . S
C1351 C1350 1.355 . S
C1351 C1353 1.419 . S
C1352 C1350 1.415 . S
C1352 C1357 1.425 . S
C1352 C1359 1.409 . S
C1353 H1345 0.930 . S
C1353 C1351 1.419 . S
C1353 C1354 1.362 . S
C1354 H1346 0.930 . S
C1354 C1353 1.362 . S
C1354 C1357 1.409 . S
C1355 H1347 0.930 . S
C1355 C1356 1.355 . S
C1355 C1357 1.415 . S
C1356 C1355 1.355 . S
C1356 C1358 1.419 . S
C1357 C1352 1.425 . S
C1357 C1354 1.409 . S
C1357 C1355 1.415 . S
C1358 H1348 0.930 . S
C1358 C1356 1.419 . S
C1358 C1359 1.362 . S
C1359 H1349 0.930 . S
C1359 C1352 1.409 . S
C1359 C1358 1.362 . S
H1360 C1366 0.930 . S
H1361 C1369 0.930 . S
H1362 C1370 0.930 . S
H1363 C1371 0.930 . S
H1364 C1374 0.930 . S
H1365 C1375 0.930 . S
C1366 H1360 0.930 . S
C1366 C1367 1.355 . S
C1366 C1368 1.415 . S
C1367 C1366 1.355 . S
C1367 C1369 1.419 . S
C1368 C1366 1.415 . S
C1368 C1373 1.425 . S
C1368 C1375 1.409 . S
C1369 H1361 0.930 . S
C1369 C1367 1.419 . S
C1369 C1370 1.362 . S
C1370 H1362 0.930 . S
C1370 C1369 1.362 . S
C1370 C1373 1.409 . S
C1371 H1363 0.930 . S
C1371 C1372 1.355 . S
C1371 C1373 1.415 . S
C1372 C1371 1.355 . S
C1372 C1374 1.419 . S
C1373 C1368 1.425 . S
C1373 C1370 1.409 . S
C1373 C1371 1.415 . S
C1374 H1364 0.930 . S
C1374 C1372 1.419 . S
C1374 C1375 1.362 . S
C1375 H1365 0.930 . S
C1375 C1368 1.409 . S
C1375 C1374 1.362 . S
H1376 C1382 0.930 . S
H1377 C1385 0.930 . S
H1378 C1386 0.930 . S
H1379 C1387 0.930 . S
H1380 C1390 0.930 1_545 S
H1381 C1391 0.930 . S
C1382 H1376 0.930 . S
C1382 C1383 1.355 . S
C1382 C1384 1.415 . S
C1383 C1382 1.355 . S
C1383 C1385 1.419 . S
C1384 C1382 1.415 . S
C1384 C1389 1.425 . S
C1384 C1391 1.409 . S
C1385 H1377 0.930 . S
C1385 C1383 1.419 . S
C1385 C1386 1.362 . S
C1386 H1378 0.930 . S
C1386 C1385 1.362 . S
C1386 C1389 1.409 . S
C1387 H1379 0.930 . S
C1387 C1388 1.355 . S
C1387 C1389 1.415 . S
C1388 C1387 1.355 . S
C1388 C1390 1.419 . S
C1389 C1384 1.425 . S
C1389 C1386 1.409 . S
C1389 C1387 1.415 . S
C1390 H1380 0.930 1_565 S
C1390 C1388 1.419 . S
C1390 C1391 1.362 . S
C1391 H1381 0.930 . S
C1391 C1384 1.409 . S
C1391 C1390 1.362 . S
H1392 C1398 0.930 . S
H1393 C1401 0.930 . S
H1394 C1402 0.930 . S
H1395 C1403 0.930 . S
H1396 C1406 0.930 . S
H1397 C1407 0.930 . S
C1398 H1392 0.930 . S
C1398 C1399 1.355 . S
C1398 C1400 1.415 . S
C1399 C1398 1.355 . S
C1399 C1401 1.419 . S
C1400 C1398 1.415 . S
C1400 C1405 1.425 . S
C1400 C1407 1.409 . S
C1401 H1393 0.930 . S
C1401 C1399 1.419 . S
C1401 C1402 1.362 . S
C1402 H1394 0.930 . S
C1402 C1401 1.362 . S
C1402 C1405 1.409 . S
C1403 H1395 0.930 . S
C1403 C1404 1.355 . S
C1403 C1405 1.415 . S
C1404 C1403 1.355 . S
C1404 C1406 1.419 . S
C1405 C1400 1.425 . S
C1405 C1402 1.409 . S
C1405 C1403 1.415 . S
C1406 H1396 0.930 . S
C1406 C1404 1.419 . S
C1406 C1407 1.362 . S
C1407 H1397 0.930 . S
C1407 C1400 1.409 . S
C1407 C1406 1.362 . S
H1408 C1414 0.930 . S
H1409 C1417 0.930 . S
H1410 C1418 0.930 . S
H1411 C1419 0.930 . S
H1412 C1422 0.930 . S
H1413 C1423 0.930 . S
C1414 H1408 0.930 . S
C1414 C1415 1.355 . S
C1414 C1416 1.415 . S
C1415 C1414 1.355 . S
C1415 C1417 1.419 . S
C1416 C1414 1.415 . S
C1416 C1421 1.425 . S
C1416 C1423 1.409 . S
C1417 H1409 0.930 . S
C1417 C1415 1.419 . S
C1417 C1418 1.362 . S
C1418 H1410 0.930 . S
C1418 C1417 1.362 . S
C1418 C1421 1.409 . S
C1419 H1411 0.930 . S
C1419 C1420 1.355 . S
C1419 C1421 1.415 . S
C1420 C1419 1.355 . S
C1420 C1422 1.419 . S
C1421 C1416 1.425 . S
C1421 C1418 1.409 . S
C1421 C1419 1.415 . S
C1422 H1412 0.930 . S
C1422 C1420 1.419 . S
C1422 C1423 1.362 . S
C1423 H1413 0.930 . S
C1423 C1416 1.409 . S
C1423 C1422 1.362 . S
H1424 C1430 0.930 . S
H1425 C1433 0.930 . S
H1426 C1434 0.930 . S
H1427 C1435 0.930 . S
H1428 C1438 0.930 . S
H1429 C1439 0.930 . S
C1430 H1424 0.930 . S
C1430 C1431 1.355 . S
C1430 C1432 1.415 . S
C1431 C1430 1.355 . S
C1431 C1433 1.419 . S
C1432 C1430 1.415 . S
C1432 C1437 1.425 . S
C1432 C1439 1.409 . S
C1433 H1425 0.930 . S
C1433 C1431 1.419 . S
C1433 C1434 1.362 . S
C1434 H1426 0.930 . S
C1434 C1433 1.362 . S
C1434 C1437 1.409 . S
C1435 H1427 0.930 . S
C1435 C1436 1.355 . S
C1435 C1437 1.415 . S
C1436 C1435 1.355 . S
C1436 C1438 1.419 . S
C1437 C1432 1.425 . S
C1437 C1434 1.409 . S
C1437 C1435 1.415 . S
C1438 H1428 0.930 . S
C1438 C1436 1.419 . S
C1438 C1439 1.362 . S
C1439 H1429 0.930 . S
C1439 C1432 1.409 . S
C1439 C1438 1.362 . S
H1440 C1446 0.930 . S
H1441 C1449 0.930 . S
H1442 C1450 0.930 . S
H1443 C1451 0.930 . S
H1444 C1454 0.930 . S
H1445 C1455 0.930 . S
C1446 H1440 0.930 . S
C1446 C1447 1.355 . S
C1446 C1448 1.415 . S
C1447 C1446 1.355 . S
C1447 C1449 1.419 . S
C1448 C1446 1.415 . S
C1448 C1453 1.425 . S
C1448 C1455 1.409 . S
C1449 H1441 0.930 . S
C1449 C1447 1.419 . S
C1449 C1450 1.362 . S
C1450 H1442 0.930 . S
C1450 C1449 1.362 . S
C1450 C1453 1.409 . S
C1451 H1443 0.930 . S
C1451 C1452 1.355 . S
C1451 C1453 1.415 . S
C1452 C1451 1.355 . S
C1452 C1454 1.419 . S
C1453 C1448 1.425 . S
C1453 C1450 1.409 . S
C1453 C1451 1.415 . S
C1454 H1444 0.930 . S
C1454 C1452 1.419 . S
C1454 C1455 1.362 . S
C1455 H1445 0.930 . S
C1455 C1448 1.409 . S
C1455 C1454 1.362 . S
H1456 C1462 0.930 . S
H1457 C1465 0.930 . S
H1458 C1466 0.930 1_554 S
H1459 C1467 0.930 1_655 S
H1460 C1470 0.930 . S
H1461 C1471 0.930 . S
C1462 H1456 0.930 . S
C1462 C1463 1.355 . S
C1462 C1464 1.415 . S
C1463 C1462 1.355 . S
C1463 C1465 1.419 1_455 S
C1464 C1462 1.415 . S
C1464 C1469 1.425 . S
C1464 C1471 1.409 . S
C1465 H1457 0.930 . S
C1465 C1463 1.419 1_655 S
C1465 C1466 1.362 . S
C1466 H1458 0.930 1_556 S
C1466 C1465 1.362 . S
C1466 C1469 1.409 1_655 S
C1467 H1459 0.930 1_455 S
C1467 C1468 1.355 . S
C1467 C1469 1.415 1_554 S
C1468 C1467 1.355 . S
C1468 C1470 1.419 1_554 S
C1469 C1464 1.425 . S
C1469 C1466 1.409 1_455 S
C1469 C1467 1.415 1_556 S
C1470 H1460 0.930 . S
C1470 C1468 1.419 1_556 S
C1470 C1471 1.362 . S
C1471 H1461 0.930 . S
C1471 C1464 1.409 . S
C1471 C1470 1.362 . S
H1472 C1478 0.930 . S
H1473 C1481 0.930 . S
H1474 C1482 0.930 . S
H1475 C1483 0.930 . S
H1476 C1486 0.930 . S
H1477 C1487 0.930 . S
C1478 H1472 0.930 . S
C1478 C1479 1.355 . S
C1478 C1480 1.415 . S
C1479 C1478 1.355 . S
C1479 C1481 1.419 . S
C1480 C1478 1.415 . S
C1480 C1485 1.425 . S
C1480 C1487 1.409 . S
C1481 H1473 0.930 . S
C1481 C1479 1.419 . S
C1481 C1482 1.362 . S
C1482 H1474 0.930 . S
C1482 C1481 1.362 . S
C1482 C1485 1.409 . S
C1483 H1475 0.930 . S
C1483 C1484 1.355 . S
C1483 C1485 1.415 . S
C1484 C1483 1.355 . S
C1484 C1486 1.419 . S
C1485 C1480 1.425 . S
C1485 C1482 1.409 . S
C1485 C1483 1.415 . S
C1486 H1476 0.930 . S
C1486 C1484 1.419 . S
C1486 C1487 1.362 . S
C1487 H1477 0.930 . S
C1487 C1480 1.409 . S
C1487 C1486 1.362 . S
H1488 C1494 0.930 . S
H1489 C1497 0.930 . S
H1490 C1498 0.930 . S
H1491 C1499 0.930 . S
H1492 C1502 0.930 . S
H1493 C1503 0.930 . S
C1494 H1488 0.930 . S
C1494 C1495 1.355 . S
C1494 C1496 1.415 . S
C1495 C1494 1.355 . S
C1495 C1497 1.419 . S
C1496 C1494 1.415 . S
C1496 C1501 1.425 . S
C1496 C1503 1.409 . S
C1497 H1489 0.930 . S
C1497 C1495 1.419 . S
C1497 C1498 1.362 . S
C1498 H1490 0.930 . S
C1498 C1497 1.362 . S
C1498 C1501 1.409 . S
C1499 H1491 0.930 . S
C1499 C1500 1.355 . S
C1499 C1501 1.415 . S
C1500 C1499 1.355 . S
C1500 C1502 1.419 . S
C1501 C1496 1.425 . S
C1501 C1498 1.409 . S
C1501 C1499 1.415 . S
C1502 H1492 0.930 . S
C1502 C1500 1.419 . S
C1502 C1503 1.362 . S
C1503 H1493 0.930 . S
C1503 C1496 1.409 . S
C1503 C1502 1.362 . S
H1504 C1510 0.930 . S
H1505 C1513 0.930 . S
H1506 C1514 0.930 . S
H1507 C1515 0.930 . S
H1508 C1518 0.930 . S
H1509 C1519 0.930 . S
C1510 H1504 0.930 . S
C1510 C1511 1.355 . S
C1510 C1512 1.415 . S
C1511 C1510 1.355 . S
C1511 C1513 1.419 . S
C1512 C1510 1.415 . S
C1512 C1517 1.425 . S
C1512 C1519 1.409 . S
C1513 H1505 0.930 . S
C1513 C1511 1.419 . S
C1513 C1514 1.362 . S
C1514 H1506 0.930 . S
C1514 C1513 1.362 . S
C1514 C1517 1.409 . S
C1515 H1507 0.930 . S
C1515 C1516 1.355 . S
C1515 C1517 1.415 . S
C1516 C1515 1.355 . S
C1516 C1518 1.419 . S
C1517 C1512 1.425 . S
C1517 C1514 1.409 . S
C1517 C1515 1.415 . S
C1518 H1508 0.930 . S
C1518 C1516 1.419 . S
C1518 C1519 1.362 . S
C1519 H1509 0.930 . S
C1519 C1512 1.409 . S
C1519 C1518 1.362 . S
H1520 C1526 0.930 . S
H1521 C1529 0.930 . S
H1522 C1530 0.930 . S
H1523 C1531 0.930 . S
H1524 C1534 0.930 . S
H1525 C1535 0.930 . S
C1526 H1520 0.930 . S
C1526 C1527 1.355 1_455 S
C1526 C1528 1.415 . S
C1527 C1526 1.355 1_655 S
C1527 C1529 1.419 . S
C1528 C1526 1.415 . S
C1528 C1533 1.425 1_455 S
C1528 C1535 1.409 . S
C1529 H1521 0.930 . S
C1529 C1527 1.419 . S
C1529 C1530 1.362 . S
C1530 H1522 0.930 . S
C1530 C1529 1.362 . S
C1530 C1533 1.409 . S
C1531 H1523 0.930 . S
C1531 C1532 1.355 1_655 S
C1531 C1533 1.415 . S
C1532 C1531 1.355 1_455 S
C1532 C1534 1.419 . S
C1533 C1528 1.425 1_655 S
C1533 C1530 1.409 . S
C1533 C1531 1.415 . S
C1534 H1524 0.930 . S
C1534 C1532 1.419 . S
C1534 C1535 1.362 . S
C1535 H1525 0.930 . S
C1535 C1528 1.409 . S
C1535 C1534 1.362 . S
H1536 C1542 0.930 . S
H1537 C1545 0.930 . S
H1538 C1546 0.930 . S
H1539 C1547 0.930 . S
H1540 C1550 0.930 . S
H1541 C1551 0.930 . S
C1542 H1536 0.930 . S
C1542 C1543 1.355 . S
C1542 C1544 1.415 . S
C1543 C1542 1.355 . S
C1543 C1545 1.419 . S
C1544 C1542 1.415 . S
C1544 C1549 1.425 . S
C1544 C1551 1.409 . S
C1545 H1537 0.930 . S
C1545 C1543 1.419 . S
C1545 C1546 1.362 . S
C1546 H1538 0.930 . S
C1546 C1545 1.362 . S
C1546 C1549 1.409 . S
C1547 H1539 0.930 . S
C1547 C1548 1.355 . S
C1547 C1549 1.415 . S
C1548 C1547 1.355 . S
C1548 C1550 1.419 . S
C1549 C1544 1.425 . S
C1549 C1546 1.409 . S
C1549 C1547 1.415 . S
C1550 H1540 0.930 . S
C1550 C1548 1.419 . S
C1550 C1551 1.362 . S
C1551 H1541 0.930 . S
C1551 C1544 1.409 . S
C1551 C1550 1.362 . S
H1552 C1558 0.930 . S
H1553 C1561 0.930 . S
H1554 C1562 0.930 . S
H1555 C1563 0.930 . S
H1556 C1566 0.930 . S
H1557 C1567 0.930 . S
C1558 H1552 0.930 . S
C1558 C1559 1.355 . S
C1558 C1560 1.415 . S
C1559 C1558 1.355 . S
C1559 C1561 1.419 . S
C1560 C1558 1.415 . S
C1560 C1565 1.425 . S
C1560 C1567 1.409 . S
C1561 H1553 0.930 . S
C1561 C1559 1.419 . S
C1561 C1562 1.362 . S
C1562 H1554 0.930 . S
C1562 C1561 1.362 . S
C1562 C1565 1.409 . S
C1563 H1555 0.930 . S
C1563 C1564 1.355 . S
C1563 C1565 1.415 . S
C1564 C1563 1.355 . S
C1564 C1566 1.419 . S
C1565 C1560 1.425 . S
C1565 C1562 1.409 . S
C1565 C1563 1.415 . S
C1566 H1556 0.930 . S
C1566 C1564 1.419 . S
C1566 C1567 1.362 . S
C1567 H1557 0.930 . S
C1567 C1560 1.409 . S
C1567 C1566 1.362 . S
H1568 C1574 0.930 . S
H1569 C1577 0.930 . S
H1570 C1578 0.930 . S
H1571 C1579 0.930 . S
H1572 C1582 0.930 . S
H1573 C1583 0.930 . S
C1574 H1568 0.930 . S
C1574 C1575 1.355 . S
C1574 C1576 1.415 . S
C1575 C1574 1.355 . S
C1575 C1577 1.419 . S
C1576 C1574 1.415 . S
C1576 C1581 1.425 . S
C1576 C1583 1.409 . S
C1577 H1569 0.930 . S
C1577 C1575 1.419 . S
C1577 C1578 1.362 . S
C1578 H1570 0.930 . S
C1578 C1577 1.362 . S
C1578 C1581 1.409 . S
C1579 H1571 0.930 . S
C1579 C1580 1.355 . S
C1579 C1581 1.415 . S
C1580 C1579 1.355 . S
C1580 C1582 1.419 . S
C1581 C1576 1.425 . S
C1581 C1578 1.409 . S
C1581 C1579 1.415 . S
C1582 H1572 0.930 . S
C1582 C1580 1.419 . S
C1582 C1583 1.362 . S
C1583 H1573 0.930 . S
C1583 C1576 1.409 . S
C1583 C1582 1.362 . S
H1584 C1590 0.930 . S
H1585 C1593 0.930 . S
H1586 C1594 0.930 . S
H1587 C1595 0.930 . S
H1588 C1598 0.930 . S
H1589 C1599 0.930 . S
C1590 H1584 0.930 . S
C1590 C1591 1.355 . S
C1590 C1592 1.415 . S
C1591 C1590 1.355 . S
C1591 C1593 1.419 . S
C1592 C1590 1.415 . S
C1592 C1597 1.425 . S
C1592 C1599 1.409 . S
C1593 H1585 0.930 . S
C1593 C1591 1.419 . S
C1593 C1594 1.362 . S
C1594 H1586 0.930 . S
C1594 C1593 1.362 . S
C1594 C1597 1.409 . S
C1595 H1587 0.930 . S
C1595 C1596 1.355 . S
C1595 C1597 1.415 . S
C1596 C1595 1.355 . S
C1596 C1598 1.419 . S
C1597 C1592 1.425 . S
C1597 C1594 1.409 . S
C1597 C1595 1.415 . S
C1598 H1588 0.930 . S
C1598 C1596 1.419 . S
C1598 C1599 1.362 . S
C1599 H1589 0.930 . S
C1599 C1592 1.409 . S
C1599 C1598 1.362 . S
H1600 C1606 0.930 . S
H1601 C1609 0.930 . S
H1602 C1610 0.930 . S
H1603 C1611 0.930 . S
H1604 C1614 0.930 . S
H1605 C1615 0.930 . S
C1606 H1600 0.930 . S
C1606 C1607 1.355 . S
C1606 C1608 1.415 . S
C1607 C1606 1.355 . S
C1607 C1609 1.419 . S
C1608 C1606 1.415 . S
C1608 C1613 1.425 . S
C1608 C1615 1.409 . S
C1609 H1601 0.930 . S
C1609 C1607 1.419 . S
C1609 C1610 1.362 . S
C1610 H1602 0.930 . S
C1610 C1609 1.362 . S
C1610 C1613 1.409 . S
C1611 H1603 0.930 . S
C1611 C1612 1.355 . S
C1611 C1613 1.415 . S
C1612 C1611 1.355 . S
C1612 C1614 1.419 . S
C1613 C1608 1.425 . S
C1613 C1610 1.409 . S
C1613 C1611 1.415 . S
C1614 H1604 0.930 . S
C1614 C1612 1.419 . S
C1614 C1615 1.362 . S
C1615 H1605 0.930 . S
C1615 C1608 1.409 . S
C1615 C1614 1.362 . S
H1616 C1622 0.930 . S
H1617 C1625 0.930 . S
H1618 C1626 0.930 . S
H1619 C1627 0.930 . S
H1620 C1630 0.930 . S
H1621 C1631 0.930 . S
C1622 H1616 0.930 . S
C1622 C1623 1.355 . S
C1622 C1624 1.415 . S
C1623 C1622 1.355 . S
C1623 C1625 1.419 . S
C1624 C1622 1.415 . S
C1624 C1629 1.425 . S
C1624 C1631 1.409 . S
C1625 H1617 0.930 . S
C1625 C1623 1.419 . S
C1625 C1626 1.362 . S
C1626 H1618 0.930 . S
C1626 C1625 1.362 . S
C1626 C1629 1.409 . S
C1627 H1619 0.930 . S
C1627 C1628 1.355 . S
C1627 C1629 1.415 . S
C1628 C1627 1.355 . S
C1628 C1630 1.419 . S
C1629 C1624 1.425 . S
C1629 C1626 1.409 . S
C1629 C1627 1.415 . S
C1630 H1620 0.930 . S
C1630 C1628 1.419 . S
C1630 C1631 1.362 . S
C1631 H1621 0.930 . S
C1631 C1624 1.409 . S
C1631 C1630 1.362 . S
H1632 C1638 0.930 . S
H1633 C1641 0.930 . S
H1634 C1642 0.930 . S
H1635 C1643 0.930 . S
H1636 C1646 0.930 . S
H1637 C1647 0.930 . S
C1638 H1632 0.930 . S
C1638 C1639 1.355 . S
C1638 C1640 1.415 . S
C1639 C1638 1.355 . S
C1639 C1641 1.419 . S
C1640 C1638 1.415 . S
C1640 C1645 1.425 . S
C1640 C1647 1.409 . S
C1641 H1633 0.930 . S
C1641 C1639 1.419 . S
C1641 C1642 1.362 . S
C1642 H1634 0.930 . S
C1642 C1641 1.362 . S
C1642 C1645 1.409 . S
C1643 H1635 0.930 . S
C1643 C1644 1.355 . S
C1643 C1645 1.415 . S
C1644 C1643 1.355 . S
C1644 C1646 1.419 . S
C1645 C1640 1.425 . S
C1645 C1642 1.409 . S
C1645 C1643 1.415 . S
C1646 H1636 0.930 . S
C1646 C1644 1.419 . S
C1646 C1647 1.362 . S
C1647 H1637 0.930 . S
C1647 C1640 1.409 . S
C1647 C1646 1.362 . S
H1648 C1654 0.930 . S
H1649 C1657 0.930 . S
H1650 C1658 0.930 . S
H1651 C1659 0.930 . S
H1652 C1662 0.930 . S
H1653 C1663 0.930 . S
C1654 H1648 0.930 . S
C1654 C1655 1.355 . S
C1654 C1656 1.415 . S
C1655 C1654 1.355 . S
C1655 C1657 1.419 . S
C1656 C1654 1.415 . S
C1656 C1661 1.425 . S
C1656 C1663 1.409 . S
C1657 H1649 0.930 . S
C1657 C1655 1.419 . S
C1657 C1658 1.362 . S
C1658 H1650 0.930 . S
C1658 C1657 1.362 . S
C1658 C1661 1.409 . S
C1659 H1651 0.930 . S
C1659 C1660 1.355 . S
C1659 C1661 1.415 . S
C1660 C1659 1.355 . S
C1660 C1662 1.419 . S
C1661 C1656 1.425 . S
C1661 C1658 1.409 . S
C1661 C1659 1.415 . S
C1662 H1652 0.930 . S
C1662 C1660 1.419 . S
C1662 C1663 1.362 . S
C1663 H1653 0.930 . S
C1663 C1656 1.409 . S
C1663 C1662 1.362 . S
H1664 C1670 0.930 . S
H1665 C1673 0.930 . S
H1666 C1674 0.930 . S
H1667 C1675 0.930 . S
H1668 C1678 0.930 . S
H1669 C1679 0.930 . S
C1670 H1664 0.930 . S
C1670 C1671 1.355 . S
C1670 C1672 1.415 . S
C1671 C1670 1.355 . S
C1671 C1673 1.419 . S
C1672 C1670 1.415 . S
C1672 C1677 1.425 . S
C1672 C1679 1.409 . S
C1673 H1665 0.930 . S
C1673 C1671 1.419 . S
C1673 C1674 1.362 . S
C1674 H1666 0.930 . S
C1674 C1673 1.362 . S
C1674 C1677 1.409 . S
C1675 H1667 0.930 . S
C1675 C1676 1.355 . S
C1675 C1677 1.415 . S
C1676 C1675 1.355 . S
C1676 C1678 1.419 . S
C1677 C1672 1.425 . S
C1677 C1674 1.409 . S
C1677 C1675 1.415 . S
C1678 H1668 0.930 . S
C1678 C1676 1.419 . S
C1678 C1679 1.362 . S
C1679 H1669 0.930 . S
C1679 C1672 1.409 . S
C1679 C1678 1.362 . S
H1680 C1686 0.930 . S
H1681 C1689 0.930 . S
H1682 C1690 0.930 . S
H1683 C1691 0.930 . S
H1684 C1694 0.930 . S
H1685 C1695 0.930 . S
C1686 H1680 0.930 . S
C1686 C1687 1.355 . S
C1686 C1688 1.415 . S
C1687 C1686 1.355 . S
C1687 C1689 1.419 . S
C1688 C1686 1.415 . S
C1688 C1693 1.425 . S
C1688 C1695 1.409 . S
C1689 H1681 0.930 . S
C1689 C1687 1.419 . S
C1689 C1690 1.362 . S
C1690 H1682 0.930 . S
C1690 C1689 1.362 . S
C1690 C1693 1.409 . S
C1691 H1683 0.930 . S
C1691 C1692 1.355 . S
C1691 C1693 1.415 . S
C1692 C1691 1.355 . S
C1692 C1694 1.419 . S
C1693 C1688 1.425 . S
C1693 C1690 1.409 . S
C1693 C1691 1.415 . S
C1694 H1684 0.930 . S
C1694 C1692 1.419 . S
C1694 C1695 1.362 . S
C1695 H1685 0.930 . S
C1695 C1688 1.409 . S
C1695 C1694 1.362 . S
H1696 C1702 0.930 . S
H1697 C1705 0.930 . S
H1698 C1706 0.930 . S
H1699 C1707 0.930 . S
H1700 C1710 0.930 . S
H1701 C1711 0.930 . S
C1702 H1696 0.930 . S
C1702 C1703 1.355 . S
C1702 C1704 1.415 . S
C1703 C1702 1.355 . S
C1703 C1705 1.419 . S
C1704 C1702 1.415 . S
C1704 C1709 1.425 . S
C1704 C1711 1.409 . S
C1705 H1697 0.930 . S
C1705 C1703 1.419 . S
C1705 C1706 1.362 . S
C1706 H1698 0.930 . S
C1706 C1705 1.362 . S
C1706 C1709 1.409 . S
C1707 H1699 0.930 . S
C1707 C1708 1.355 . S
C1707 C1709 1.415 . S
C1708 C1707 1.355 . S
C1708 C1710 1.419 . S
C1709 C1704 1.425 . S
C1709 C1706 1.409 . S
C1709 C1707 1.415 . S
C1710 H1700 0.930 . S
C1710 C1708 1.419 . S
C1710 C1711 1.362 . S
C1711 H1701 0.930 . S
C1711 C1704 1.409 . S
C1711 C1710 1.362 . S
H1712 C1718 0.930 . S
H1713 C1721 0.930 . S
H1714 C1722 0.930 . S
H1715 C1723 0.930 . S
H1716 C1726 0.930 . S
H1717 C1727 0.930 . S
C1718 H1712 0.930 . S
C1718 C1719 1.355 . S
C1718 C1720 1.415 . S
C1719 C1718 1.355 . S
C1719 C1721 1.419 . S
C1720 C1718 1.415 . S
C1720 C1725 1.425 . S
C1720 C1727 1.409 . S
C1721 H1713 0.930 . S
C1721 C1719 1.419 . S
C1721 C1722 1.362 . S
C1722 H1714 0.930 . S
C1722 C1721 1.362 . S
C1722 C1725 1.409 . S
C1723 H1715 0.930 . S
C1723 C1724 1.355 . S
C1723 C1725 1.415 . S
C1724 C1723 1.355 . S
C1724 C1726 1.419 . S
C1725 C1720 1.425 . S
C1725 C1722 1.409 . S
C1725 C1723 1.415 . S
C1726 H1716 0.930 . S
C1726 C1724 1.419 . S
C1726 C1727 1.362 . S
C1727 H1717 0.930 . S
C1727 C1720 1.409 . S
C1727 C1726 1.362 . S
H1728 C1734 0.930 . S
H1729 C1737 0.930 . S
H1730 C1738 0.930 . S
H1731 C1739 0.930 . S
H1732 C1742 0.930 . S
H1733 C1743 0.930 . S
C1734 H1728 0.930 . S
C1734 C1735 1.355 . S
C1734 C1736 1.415 . S
C1735 C1734 1.355 . S
C1735 C1737 1.419 . S
C1736 C1734 1.415 . S
C1736 C1741 1.425 . S
C1736 C1743 1.409 1_565 S
C1737 H1729 0.930 . S
C1737 C1735 1.419 . S
C1737 C1738 1.362 . S
C1738 H1730 0.930 . S
C1738 C1737 1.362 . S
C1738 C1741 1.409 . S
C1739 H1731 0.930 . S
C1739 C1740 1.380 . S
C1739 C1741 1.415 . S
C1740 C1739 1.380 . S
C1740 C1742 1.399 1_565 S
C1741 C1736 1.425 . S
C1741 C1738 1.409 . S
C1741 C1739 1.415 . S
C1742 H1732 0.930 . S
C1742 C1740 1.399 1_545 S
C1742 C1743 1.362 . S
C1743 H1733 0.930 . S
C1743 C1736 1.409 1_545 S
C1743 C1742 1.362 . S
H1744 C1750 0.930 . S
H1745 C1753 0.930 . S
H1746 C1754 0.930 . S
H1747 C1755 0.930 . S
H1748 C1758 0.930 . S
H1749 C1759 0.930 . S
C1750 H1744 0.930 . S
C1750 C1751 1.355 . S
C1750 C1752 1.415 . S
C1751 C1750 1.355 . S
C1751 C1753 1.419 . S
C1752 C1750 1.415 . S
C1752 C1757 1.425 . S
C1752 C1759 1.409 . S
C1753 H1745 0.930 . S
C1753 C1751 1.419 . S
C1753 C1754 1.362 . S
C1754 H1746 0.930 . S
C1754 C1753 1.362 . S
C1754 C1757 1.409 . S
C1755 H1747 0.930 . S
C1755 C1756 1.355 . S
C1755 C1757 1.415 . S
C1756 C1755 1.355 . S
C1756 C1758 1.419 . S
C1757 C1752 1.425 . S
C1757 C1754 1.409 . S
C1757 C1755 1.415 . S
C1758 H1748 0.930 . S
C1758 C1756 1.419 . S
C1758 C1759 1.362 . S
C1759 H1749 0.930 . S
C1759 C1752 1.409 . S
C1759 C1758 1.362 . S
H1760 C1766 0.930 . S
H1761 C1769 0.930 . S
H1762 C1770 0.930 . S
H1763 C1771 0.930 . S
H1764 C1774 0.930 . S
H1765 C1775 0.930 . S
C1766 H1760 0.930 . S
C1766 C1767 1.355 . S
C1766 C1768 1.415 . S
C1767 C1766 1.355 . S
C1767 C1769 1.419 . S
C1768 C1766 1.415 . S
C1768 C1773 1.425 . S
C1768 C1775 1.409 . S
C1769 H1761 0.930 . S
C1769 C1767 1.419 . S
C1769 C1770 1.362 . S
C1770 H1762 0.930 . S
C1770 C1769 1.362 . S
C1770 C1773 1.409 . S
C1771 H1763 0.930 . S
C1771 C1772 1.355 . S
C1771 C1773 1.415 . S
C1772 C1771 1.355 . S
C1772 C1774 1.419 . S
C1773 C1768 1.425 . S
C1773 C1770 1.409 . S
C1773 C1771 1.415 . S
C1774 H1764 0.930 . S
C1774 C1772 1.419 . S
C1774 C1775 1.362 . S
C1775 H1765 0.930 . S
C1775 C1768 1.409 . S
C1775 C1774 1.362 . S
H1776 C1782 0.930 . S
H1777 C1785 0.930 . S
H1778 C1786 0.930 . S
H1779 C1787 0.930 . S
H1780 C1790 0.930 . S
H1781 C1791 0.930 . S
C1782 H1776 0.930 . S
C1782 C1783 1.355 . S
C1782 C1784 1.415 . S
C1783 C1782 1.355 . S
C1783 C1785 1.419 . S
C1784 C1782 1.415 . S
C1784 C1789 1.425 . S
C1784 C1791 1.409 . S
C1785 H1777 0.930 . S
C1785 C1783 1.419 . S
C1785 C1786 1.362 . S
C1786 H1778 0.930 . S
C1786 C1785 1.362 . S
C1786 C1789 1.409 . S
C1787 H1779 0.930 . S
C1787 C1788 1.355 . S
C1787 C1789 1.415 . S
C1788 C1787 1.355 . S
C1788 C1790 1.419 . S
C1789 C1784 1.425 . S
C1789 C1786 1.409 . S
C1789 C1787 1.415 . S
C1790 H1780 0.930 . S
C1790 C1788 1.419 . S
C1790 C1791 1.362 . S
C1791 H1781 0.930 . S
C1791 C1784 1.409 . S
C1791 C1790 1.362 . S
H1792 C1798 0.930 . S
H1793 C1801 0.930 . S
H1794 C1802 0.930 . S
H1795 C1803 0.930 . S
H1796 C1806 0.930 . S
H1797 C1807 0.930 . S
C1798 H1792 0.930 . S
C1798 C1799 1.355 . S
C1798 C1800 1.415 . S
C1799 C1798 1.355 . S
C1799 C1801 1.419 . S
C1800 C1798 1.415 . S
C1800 C1805 1.425 . S
C1800 C1807 1.409 . S
C1801 H1793 0.930 . S
C1801 C1799 1.419 . S
C1801 C1802 1.362 . S
C1802 H1794 0.930 . S
C1802 C1801 1.362 . S
C1802 C1805 1.409 . S
C1803 H1795 0.930 . S
C1803 C1804 1.355 . S
C1803 C1805 1.415 . S
C1804 C1803 1.355 . S
C1804 C1806 1.419 . S
C1805 C1800 1.425 . S
C1805 C1802 1.409 . S
C1805 C1803 1.415 . S
C1806 H1796 0.930 . S
C1806 C1804 1.419 . S
C1806 C1807 1.362 . S
C1807 H1797 0.930 . S
C1807 C1800 1.409 . S
C1807 C1806 1.362 . S
H1808 C1814 0.930 . S
H1809 C1817 0.930 . S
H1810 C1818 0.930 . S
H1811 C1819 0.930 . S
H1812 C1822 0.930 . S
H1813 C1823 0.930 . S
C1814 H1808 0.930 . S
C1814 C1815 1.355 . S
C1814 C1816 1.415 . S
C1815 C1814 1.355 . S
C1815 C1817 1.419 . S
C1816 C1814 1.415 . S
C1816 C1821 1.425 . S
C1816 C1823 1.409 . S
C1817 H1809 0.930 . S
C1817 C1815 1.419 . S
C1817 C1818 1.362 . S
C1818 H1810 0.930 . S
C1818 C1817 1.362 . S
C1818 C1821 1.409 . S
C1819 H1811 0.930 . S
C1819 C1820 1.355 . S
C1819 C1821 1.415 . S
C1820 C1819 1.355 . S
C1820 C1822 1.419 . S
C1821 C1816 1.425 . S
C1821 C1818 1.409 . S
C1821 C1819 1.415 . S
C1822 H1812 0.930 . S
C1822 C1820 1.419 . S
C1822 C1823 1.362 . S
C1823 H1813 0.930 . S
C1823 C1816 1.409 . S
C1823 C1822 1.362 . S
H1824 C1830 0.930 . S
H1825 C1833 0.930 . S
H1826 C1834 0.930 . S
H1827 C1835 0.930 . S
H1828 C1838 0.930 . S
H1829 C1839 0.930 . S
C1830 H1824 0.930 . S
C1830 C1831 1.355 . S
C1830 C1832 1.415 . S
C1831 C1830 1.355 . S
C1831 C1833 1.419 . S
C1832 C1830 1.415 . S
C1832 C1837 1.425 . S
C1832 C1839 1.409 . S
C1833 H1825 0.930 . S
C1833 C1831 1.419 . S
C1833 C1834 1.362 . S
C1834 H1826 0.930 . S
C1834 C1833 1.362 . S
C1834 C1837 1.409 . S
C1835 H1827 0.930 . S
C1835 C1836 1.355 . S
C1835 C1837 1.415 . S
C1836 C1835 1.355 . S
C1836 C1838 1.419 . S
C1837 C1832 1.425 . S
C1837 C1834 1.409 . S
C1837 C1835 1.415 . S
C1838 H1828 0.930 . S
C1838 C1836 1.419 . S
C1838 C1839 1.362 . S
C1839 H1829 0.930 . S
C1839 C1832 1.409 . S
C1839 C1838 1.362 . S
H1840 C1846 0.930 . S
H1841 C1849 0.930 . S
H1842 C1850 0.930 . S
H1843 C1851 0.930 1_655 S
H1844 C1854 0.930 . S
H1845 C1855 0.930 . S
C1846 H1840 0.930 . S
C1846 C1847 1.355 . S
C1846 C1848 1.415 . S
C1847 C1846 1.355 . S
C1847 C1849 1.419 1_455 S
C1848 C1846 1.415 . S
C1848 C1853 1.425 . S
C1848 C1855 1.409 . S
C1849 H1841 0.930 . S
C1849 C1847 1.419 1_655 S
C1849 C1850 1.362 . S
C1850 H1842 0.930 . S
C1850 C1849 1.362 . S
C1850 C1853 1.409 1_655 S
C1851 H1843 0.930 1_455 S
C1851 C1852 1.355 . S
C1851 C1853 1.415 . S
C1852 C1851 1.355 . S
C1852 C1854 1.419 . S
C1853 C1848 1.425 . S
C1853 C1850 1.409 1_455 S
C1853 C1851 1.415 . S
C1854 H1844 0.930 . S
C1854 C1852 1.419 . S
C1854 C1855 1.362 . S
C1855 H1845 0.930 . S
C1855 C1848 1.409 . S
C1855 C1854 1.362 . S
H1856 C1862 0.930 . S
H1857 C1865 0.930 . S
H1858 C1866 0.930 . S
H1859 C1867 0.930 . S
H1860 C1870 0.930 . S
H1861 C1871 0.930 . S
C1862 H1856 0.930 . S
C1862 C1863 1.355 . S
C1862 C1864 1.415 . S
C1863 C1862 1.355 . S
C1863 C1865 1.419 . S
C1864 C1862 1.415 . S
C1864 C1869 1.425 . S
C1864 C1871 1.409 . S
C1865 H1857 0.930 . S
C1865 C1863 1.419 . S
C1865 C1866 1.362 . S
C1866 H1858 0.930 . S
C1866 C1865 1.362 . S
C1866 C1869 1.409 . S
C1867 H1859 0.930 . S
C1867 C1868 1.355 . S
C1867 C1869 1.415 . S
C1868 C1867 1.355 . S
C1868 C1870 1.419 . S
C1869 C1864 1.425 . S
C1869 C1866 1.409 . S
C1869 C1867 1.415 . S
C1870 H1860 0.930 . S
C1870 C1868 1.419 . S
C1870 C1871 1.362 . S
C1871 H1861 0.930 . S
C1871 C1864 1.409 . S
C1871 C1870 1.362 . S
H1872 C1878 0.930 . S
H1873 C1881 0.930 . S
H1874 C1882 0.930 . S
H1875 C1883 0.930 1_554 S
H1876 C1886 0.930 . S
H1877 C1887 0.930 . S
C1878 H1872 0.930 . S
C1878 C1879 1.355 . S
C1878 C1880 1.415 . S
C1879 C1878 1.355 . S
C1879 C1881 1.419 . S
C1880 C1878 1.415 . S
C1880 C1885 1.425 . S
C1880 C1887 1.409 . S
C1881 H1873 0.930 . S
C1881 C1879 1.419 . S
C1881 C1882 1.362 . S
C1882 H1874 0.930 . S
C1882 C1881 1.362 . S
C1882 C1885 1.409 . S
C1883 H1875 0.930 1_556 S
C1883 C1884 1.355 . S
C1883 C1885 1.415 . S
C1884 C1883 1.355 . S
C1884 C1886 1.419 . S
C1885 C1880 1.425 . S
C1885 C1882 1.409 . S
C1885 C1883 1.415 . S
C1886 H1876 0.930 . S
C1886 C1884 1.419 . S
C1886 C1887 1.362 . S
C1887 H1877 0.930 . S
C1887 C1880 1.409 . S
C1887 C1886 1.362 . S
H1888 C1894 0.930 . S
H1889 C1897 0.930 . S
H1890 C1898 0.930 . S
H1891 C1899 0.930 . S
H1892 C1902 0.930 . S
H1893 C1903 0.930 . S
C1894 H1888 0.930 . S
C1894 C1895 1.355 . S
C1894 C1896 1.415 . S
C1895 C1894 1.355 . S
C1895 C1897 1.419 . S
C1896 C1894 1.415 . S
C1896 C1901 1.425 . S
C1896 C1903 1.409 . S
C1897 H1889 0.930 . S
C1897 C1895 1.419 . S
C1897 C1898 1.362 . S
C1898 H1890 0.930 . S
C1898 C1897 1.362 . S
C1898 C1901 1.409 . S
C1899 H1891 0.930 . S
C1899 C1900 1.355 . S
C1899 C1901 1.415 . S
C1900 C1899 1.355 . S
C1900 C1902 1.419 . S
C1901 C1896 1.425 . S
C1901 C1898 1.409 . S
C1901 C1899 1.415 . S
C1902 H1892 0.930 . S
C1902 C1900 1.419 . S
C1902 C1903 1.362 . S
C1903 H1893 0.930 . S
C1903 C1896 1.409 . S
C1903 C1902 1.362 . S
H1904 C1910 0.930 1_655 S
H1905 C1913 0.930 . S
H1906 C1914 0.930 . S
H1907 C1915 0.930 . S
H1908 C1918 0.930 . S
H1909 C1919 0.930 . S
C1910 H1904 0.930 1_455 S
C1910 C1911 1.355 . S
C1910 C1912 1.415 . S
C1911 C1910 1.355 . S
C1911 C1913 1.419 . S
C1912 C1910 1.415 . S
C1912 C1917 1.425 . S
C1912 C1919 1.409 1_455 S
C1913 H1905 0.930 . S
C1913 C1911 1.419 . S
C1913 C1914 1.362 . S
C1914 H1906 0.930 . S
C1914 C1913 1.362 . S
C1914 C1917 1.409 . S
C1915 H1907 0.930 . S
C1915 C1916 1.355 . S
C1915 C1917 1.415 . S
C1916 C1915 1.355 . S
C1916 C1918 1.419 1_455 S
C1917 C1912 1.425 . S
C1917 C1914 1.409 . S
C1917 C1915 1.415 . S
C1918 H1908 0.930 . S
C1918 C1916 1.419 1_655 S
C1918 C1919 1.362 . S
C1919 H1909 0.930 . S
C1919 C1912 1.409 1_655 S
C1919 C1918 1.362 . S
H1920 C1926 0.930 . S
H1921 C1929 0.930 . S
H1922 C1930 0.930 . S
H1923 C1931 0.930 . S
H1924 C1934 0.930 . S
H1925 C1935 0.930 . S
C1926 H1920 0.930 . S
C1926 C1927 1.355 . S
C1926 C1928 1.415 . S
C1927 C1926 1.355 . S
C1927 C1929 1.419 . S
C1928 C1926 1.415 . S
C1928 C1933 1.425 . S
C1928 C1935 1.409 . S
C1929 H1921 0.930 . S
C1929 C1927 1.419 . S
C1929 C1930 1.362 . S
C1930 H1922 0.930 . S
C1930 C1929 1.362 . S
C1930 C1933 1.409 . S
C1931 H1923 0.930 . S
C1931 C1932 1.355 . S
C1931 C1933 1.415 . S
C1932 C1931 1.355 . S
C1932 C1934 1.419 . S
C1933 C1928 1.425 . S
C1933 C1930 1.409 . S
C1933 C1931 1.415 . S
C1934 H1924 0.930 . S
C1934 C1932 1.419 . S
C1934 C1935 1.362 . S
C1935 H1925 0.930 . S
C1935 C1928 1.409 . S
C1935 C1934 1.362 . S
H1936 C1942 0.930 . S
H1937 C1945 0.930 . S
H1938 C1946 0.930 . S
H1939 C1947 0.930 . S
H1940 C1950 0.930 . S
H1941 C1951 0.930 . S
C1942 H1936 0.930 . S
C1942 C1943 1.355 . S
C1942 C1944 1.415 . S
C1943 C1942 1.355 . S
C1943 C1945 1.419 . S
C1944 C1942 1.415 . S
C1944 C1949 1.425 . S
C1944 C1951 1.409 . S
C1945 H1937 0.930 . S
C1945 C1943 1.419 . S
C1945 C1946 1.362 . S
C1946 H1938 0.930 . S
C1946 C1945 1.362 . S
C1946 C1949 1.409 . S
C1947 H1939 0.930 . S
C1947 C1948 1.355 . S
C1947 C1949 1.415 . S
C1948 C1947 1.355 . S
C1948 C1950 1.419 . S
C1949 C1944 1.425 . S
C1949 C1946 1.409 . S
C1949 C1947 1.415 . S
C1950 H1940 0.930 . S
C1950 C1948 1.419 . S
C1950 C1951 1.362 . S
C1951 H1941 0.930 . S
C1951 C1944 1.409 . S
C1951 C1950 1.362 . S
H1952 C1958 0.930 . S
H1953 C1961 0.930 . S
H1954 C1962 0.930 . S
H1955 C1963 0.930 . S
H1956 C1966 0.930 . S
H1957 C1967 0.930 . S
C1958 H1952 0.930 . S
C1958 C1959 1.355 . S
C1958 C1960 1.415 . S
C1959 C1958 1.355 . S
C1959 C1961 1.419 . S
C1960 C1958 1.415 . S
C1960 C1965 1.425 . S
C1960 C1967 1.409 . S
C1961 H1953 0.930 . S
C1961 C1959 1.419 . S
C1961 C1962 1.362 . S
C1962 H1954 0.930 . S
C1962 C1961 1.362 . S
C1962 C1965 1.409 . S
C1963 H1955 0.930 . S
C1963 C1964 1.355 . S
C1963 C1965 1.415 . S
C1964 C1963 1.355 . S
C1964 C1966 1.419 . S
C1965 C1960 1.425 . S
C1965 C1962 1.409 . S
C1965 C1963 1.415 . S
C1966 H1956 0.930 . S
C1966 C1964 1.419 . S
C1966 C1967 1.362 . S
C1967 H1957 0.930 . S
C1967 C1960 1.409 . S
C1967 C1966 1.362 . S
H1968 C1974 0.930 . S
H1969 C1977 0.930 . S
H1970 C1978 0.930 . S
H1971 C1979 0.930 . S
H1972 C1982 0.930 . S
H1973 C1983 0.930 . S
C1974 H1968 0.930 . S
C1974 C1975 1.355 . S
C1974 C1976 1.415 . S
C1975 C1974 1.355 . S
C1975 C1977 1.419 . S
C1976 C1974 1.415 . S
C1976 C1981 1.425 . S
C1976 C1983 1.409 . S
C1977 H1969 0.930 . S
C1977 C1975 1.419 . S
C1977 C1978 1.362 . S
C1978 H1970 0.930 . S
C1978 C1977 1.362 . S
C1978 C1981 1.409 . S
C1979 H1971 0.930 . S
C1979 C1980 1.355 . S
C1979 C1981 1.415 . S
C1980 C1979 1.355 . S
C1980 C1982 1.419 . S
C1981 C1976 1.425 . S
C1981 C1978 1.409 . S
C1981 C1979 1.415 . S
C1982 H1972 0.930 . S
C1982 C1980 1.419 . S
C1982 C1983 1.362 . S
C1983 H1973 0.930 . S
C1983 C1976 1.409 . S
C1983 C1982 1.362 . S
H1984 C1990 0.930 . S
H1985 C1993 0.930 . S
H1986 C1994 0.930 . S
H1987 C1995 0.930 . S
H1988 C1998 0.930 . S
H1989 C1999 0.930 . S
C1990 H1984 0.930 . S
C1990 C1991 1.355 . S
C1990 C1992 1.415 . S
C1991 C1990 1.355 . S
C1991 C1993 1.419 . S
C1992 C1990 1.415 . S
C1992 C1997 1.425 . S
C1992 C1999 1.409 . S
C1993 H1985 0.930 . S
C1993 C1991 1.419 . S
C1993 C1994 1.362 . S
C1994 H1986 0.930 . S
C1994 C1993 1.362 . S
C1994 C1997 1.409 . S
C1995 H1987 0.930 . S
C1995 C1996 1.355 . S
C1995 C1997 1.415 . S
C1996 C1995 1.355 . S
C1996 C1998 1.419 . S
C1997 C1992 1.425 . S
C1997 C1994 1.409 . S
C1997 C1995 1.415 . S
C1998 H1988 0.930 . S
C1998 C1996 1.419 . S
C1998 C1999 1.362 . S
C1999 H1989 0.930 . S
C1999 C1992 1.409 . S
C1999 C1998 1.362 . S
H2000 C2006 0.930 . S
H2001 C2009 0.930 . S
H2002 C2010 0.930 . S
H2003 C2011 0.930 . S
H2004 C2014 0.930 . S
H2005 C2015 0.930 . S
C2006 H2000 0.930 . S
C2006 C2007 1.355 . S
C2006 C2008 1.415 . S
C2007 C2006 1.355 . S
C2007 C2009 1.419 . S
C2008 C2006 1.415 . S
C2008 C2013 1.425 . S
C2008 C2015 1.409 . S
C2009 H2001 0.930 . S
C2009 C2007 1.419 . S
C2009 C2010 1.362 . S
C2010 H2002 0.930 . S
C2010 C2009 1.362 . S
C2010 C2013 1.409 . S
C2011 H2003 0.930 . S
C2011 C2012 1.355 . S
C2011 C2013 1.415 . S
C2012 C2011 1.355 . S
C2012 C2014 1.419 . S
C2013 C2008 1.425 . S
C2013 C2010 1.409 . S
C2013 C2011 1.415 . S
C2014 H2004 0.930 . S
C2014 C2012 1.419 . S
C2014 C2015 1.362 . S
C2015 H2005 0.930 . S
C2015 C2008 1.409 . S
C2015 C2014 1.362 . S
H2016 C2022 0.930 . S
H2017 C2025 0.930 . S
H2018 C2026 0.930 . S
H2019 C2027 0.930 . S
H2020 C2030 0.930 . S
H2021 C2031 0.930 . S
C2022 H2016 0.930 . S
C2022 C2023 1.355 . S
C2022 C2024 1.415 . S
C2023 C2022 1.355 . S
C2023 C2025 1.419 . S
C2024 C2022 1.415 . S
C2024 C2029 1.425 . S
C2024 C2031 1.409 . S
C2025 H2017 0.930 . S
C2025 C2023 1.419 . S
C2025 C2026 1.362 . S
C2026 H2018 0.930 . S
C2026 C2025 1.362 . S
C2026 C2029 1.409 . S
C2027 H2019 0.930 . S
C2027 C2028 1.355 . S
C2027 C2029 1.415 . S
C2028 C2027 1.355 . S
C2028 C2030 1.419 . S
C2029 C2024 1.425 . S
C2029 C2026 1.409 . S
C2029 C2027 1.415 . S
C2030 H2020 0.930 . S
C2030 C2028 1.419 . S
C2030 C2031 1.362 . S
C2031 H2021 0.930 . S
C2031 C2024 1.409 . S
C2031 C2030 1.362 . S
H2032 C2038 0.930 . S
H2033 C2041 0.930 . S
H2034 C2042 0.930 . S
H2035 C2043 0.930 . S
H2036 C2046 0.930 . S
H2037 C2047 0.930 . S
C2038 H2032 0.930 . S
C2038 C2039 1.355 . S
C2038 C2040 1.415 . S
C2039 C2038 1.355 . S
C2039 C2041 1.419 . S
C2040 C2038 1.415 . S
C2040 C2045 1.425 . S
C2040 C2047 1.409 . S
C2041 H2033 0.930 . S
C2041 C2039 1.419 . S
C2041 C2042 1.362 . S
C2042 H2034 0.930 . S
C2042 C2041 1.362 . S
C2042 C2045 1.409 . S
C2043 H2035 0.930 . S
C2043 C2044 1.355 . S
C2043 C2045 1.415 . S
C2044 C2043 1.355 . S
C2044 C2046 1.419 . S
C2045 C2040 1.425 . S
C2045 C2042 1.409 . S
C2045 C2043 1.415 . S
C2046 H2036 0.930 . S
C2046 C2044 1.419 . S
C2046 C2047 1.362 . S
C2047 H2037 0.930 . S
C2047 C2040 1.409 . S
C2047 C2046 1.362 . S
H2048 C2054 0.930 . S
H2049 C2057 0.930 . S
H2050 C2058 0.930 . S
H2051 C2059 0.930 . S
H2052 C2062 0.930 . S
H2053 C2063 0.930 . S
C2054 H2048 0.930 . S
C2054 C2055 1.355 . S
C2054 C2056 1.415 . S
C2055 C2054 1.355 . S
C2055 C2057 1.419 . S
C2056 C2054 1.415 . S
C2056 C2061 1.425 . S
C2056 C2063 1.409 . S
C2057 H2049 0.930 . S
C2057 C2055 1.419 . S
C2057 C2058 1.362 . S
C2058 H2050 0.930 . S
C2058 C2057 1.362 . S
C2058 C2061 1.409 . S
C2059 H2051 0.930 . S
C2059 C2060 1.355 . S
C2059 C2061 1.415 . S
C2060 C2059 1.355 . S
C2060 C2062 1.419 . S
C2061 C2056 1.425 . S
C2061 C2058 1.409 . S
C2061 C2059 1.415 . S
C2062 H2052 0.930 . S
C2062 C2060 1.419 . S
C2062 C2063 1.362 . S
C2063 H2053 0.930 . S
C2063 C2056 1.409 . S
C2063 C2062 1.362 . S
H2064 C2070 0.930 . S
H2065 C2073 0.930 . S
H2066 C2074 0.930 . S
H2067 C2075 0.930 . S
H2068 C2078 0.930 . S
H2069 C2079 0.930 . S
C2070 H2064 0.930 . S
C2070 C2071 1.355 . S
C2070 C2072 1.415 . S
C2071 C2070 1.355 . S
C2071 C2073 1.419 . S
C2072 C2070 1.415 . S
C2072 C2077 1.425 . S
C2072 C2079 1.409 . S
C2073 H2065 0.930 . S
C2073 C2071 1.419 . S
C2073 C2074 1.362 . S
C2074 H2066 0.930 . S
C2074 C2073 1.362 . S
C2074 C2077 1.409 . S
C2075 H2067 0.930 . S
C2075 C2076 1.355 . S
C2075 C2077 1.415 . S
C2076 C2075 1.355 . S
C2076 C2078 1.419 . S
C2077 C2072 1.425 . S
C2077 C2074 1.409 . S
C2077 C2075 1.415 . S
C2078 H2068 0.930 . S
C2078 C2076 1.419 . S
C2078 C2079 1.362 . S
C2079 H2069 0.930 . S
C2079 C2072 1.409 . S
C2079 C2078 1.362 . S
H2080 C2086 0.930 . S
H2081 C2089 0.930 . S
H2082 C2090 0.930 . S
H2083 C2091 0.930 . S
H2084 C2094 0.930 1_545 S
H2085 C2095 0.930 . S
C2086 H2080 0.930 . S
C2086 C2087 1.355 . S
C2086 C2088 1.415 . S
C2087 C2086 1.355 . S
C2087 C2089 1.419 . S
C2088 C2086 1.415 . S
C2088 C2093 1.425 . S
C2088 C2095 1.409 . S
C2089 H2081 0.930 . S
C2089 C2087 1.419 . S
C2089 C2090 1.362 . S
C2090 H2082 0.930 . S
C2090 C2089 1.362 . S
C2090 C2093 1.409 . S
C2091 H2083 0.930 . S
C2091 C2092 1.355 . S
C2091 C2093 1.415 . S
C2092 C2091 1.355 . S
C2092 C2094 1.419 . S
C2093 C2088 1.425 . S
C2093 C2090 1.409 . S
C2093 C2091 1.415 . S
C2094 H2084 0.930 1_565 S
C2094 C2092 1.419 . S
C2094 C2095 1.362 . S
C2095 H2085 0.930 . S
C2095 C2088 1.409 . S
C2095 C2094 1.362 . S
H2096 C2102 0.930 . S
H2097 C2105 0.930 . S
H2098 C2106 0.930 . S
H2099 C2107 0.930 . S
H2100 C2110 0.930 . S
H2101 C2111 0.930 . S
C2102 H2096 0.930 . S
C2102 C2103 1.355 . S
C2102 C2104 1.415 . S
C2103 C2102 1.355 . S
C2103 C2105 1.419 . S
C2104 C2102 1.415 . S
C2104 C2109 1.425 . S
C2104 C2111 1.409 . S
C2105 H2097 0.930 . S
C2105 C2103 1.419 . S
C2105 C2106 1.362 . S
C2106 H2098 0.930 . S
C2106 C2105 1.362 . S
C2106 C2109 1.409 . S
C2107 H2099 0.930 . S
C2107 C2108 1.355 . S
C2107 C2109 1.415 . S
C2108 C2107 1.355 . S
C2108 C2110 1.419 . S
C2109 C2104 1.425 . S
C2109 C2106 1.409 . S
C2109 C2107 1.415 . S
C2110 H2100 0.930 . S
C2110 C2108 1.419 . S
C2110 C2111 1.362 . S
C2111 H2101 0.930 . S
C2111 C2104 1.409 . S
C2111 C2110 1.362 . S
H2112 C2118 0.930 . S
H2113 C2121 0.930 . S
H2114 C2122 0.930 . S
H2115 C2123 0.930 . S
H2116 C2126 0.930 . S
H2117 C2127 0.930 . S
C2118 H2112 0.930 . S
C2118 C2119 1.355 . S
C2118 C2120 1.415 . S
C2119 C2118 1.355 . S
C2119 C2121 1.419 . S
C2120 C2118 1.415 . S
C2120 C2125 1.425 . S
C2120 C2127 1.409 . S
C2121 H2113 0.930 . S
C2121 C2119 1.419 . S
C2121 C2122 1.362 . S
C2122 H2114 0.930 . S
C2122 C2121 1.362 . S
C2122 C2125 1.409 . S
C2123 H2115 0.930 . S
C2123 C2124 1.355 . S
C2123 C2125 1.415 . S
C2124 C2123 1.355 . S
C2124 C2126 1.419 . S
C2125 C2120 1.425 . S
C2125 C2122 1.409 . S
C2125 C2123 1.415 . S
C2126 H2116 0.930 . S
C2126 C2124 1.419 . S
C2126 C2127 1.362 . S
C2127 H2117 0.930 . S
C2127 C2120 1.409 . S
C2127 C2126 1.362 . S
H2128 C2134 0.930 . S
H2129 C2137 0.930 . S
H2130 C2138 0.930 . S
H2131 C2139 0.930 . S
H2132 C2142 0.930 . S
H2133 C2143 0.930 . S
C2134 H2128 0.930 . S
C2134 C2135 1.355 . S
C2134 C2136 1.415 . S
C2135 C2134 1.355 . S
C2135 C2137 1.419 . S
C2136 C2134 1.415 . S
C2136 C2141 1.425 . S
C2136 C2143 1.409 . S
C2137 H2129 0.930 . S
C2137 C2135 1.419 . S
C2137 C2138 1.362 . S
C2138 H2130 0.930 . S
C2138 C2137 1.362 . S
C2138 C2141 1.409 . S
C2139 H2131 0.930 . S
C2139 C2140 1.355 . S
C2139 C2141 1.415 . S
C2140 C2139 1.355 . S
C2140 C2142 1.419 . S
C2141 C2136 1.425 . S
C2141 C2138 1.409 . S
C2141 C2139 1.415 . S
C2142 H2132 0.930 . S
C2142 C2140 1.419 . S
C2142 C2143 1.362 . S
C2143 H2133 0.930 . S
C2143 C2136 1.409 . S
C2143 C2142 1.362 . S
H2144 C2150 0.930 1_556 S
H2145 C2153 0.930 . S
H2146 C2154 0.930 . S
H2147 C2155 0.930 . S
H2148 C2158 0.930 . S
H2149 C2159 0.930 . S
C2150 H2144 0.930 1_554 S
C2150 C2151 1.355 . S
C2150 C2152 1.415 . S
C2151 C2150 1.355 . S
C2151 C2153 1.419 . S
C2152 C2150 1.415 . S
C2152 C2157 1.425 . S
C2152 C2159 1.409 1_554 S
C2153 H2145 0.930 . S
C2153 C2151 1.419 . S
C2153 C2154 1.362 . S
C2154 H2146 0.930 . S
C2154 C2153 1.362 . S
C2154 C2157 1.409 . S
C2155 H2147 0.930 . S
C2155 C2156 1.355 . S
C2155 C2157 1.415 . S
C2156 C2155 1.355 . S
C2156 C2158 1.419 1_554 S
C2157 C2152 1.425 . S
C2157 C2154 1.409 . S
C2157 C2155 1.415 . S
C2158 H2148 0.930 . S
C2158 C2156 1.419 1_556 S
C2158 C2159 1.362 . S
C2159 H2149 0.930 . S
C2159 C2152 1.409 1_556 S
C2159 C2158 1.362 . S
H2160 C2166 0.930 . S
H2161 C2169 0.930 . S
H2162 C2170 0.930 . S
H2163 C2171 0.930 . S
H2164 C2174 0.930 . S
H2165 C2175 0.930 . S
C2166 H2160 0.930 . S
C2166 C2167 1.355 . S
C2166 C2168 1.415 . S
C2167 C2166 1.355 . S
C2167 C2169 1.419 . S
C2168 C2166 1.415 . S
C2168 C2173 1.425 . S
C2168 C2175 1.409 . S
C2169 H2161 0.930 . S
C2169 C2167 1.419 . S
C2169 C2170 1.362 . S
C2170 H2162 0.930 . S
C2170 C2169 1.362 . S
C2170 C2173 1.409 . S
C2171 H2163 0.930 . S
C2171 C2172 1.355 . S
C2171 C2173 1.415 . S
C2172 C2171 1.355 . S
C2172 C2174 1.419 . S
C2173 C2168 1.425 . S
C2173 C2170 1.409 . S
C2173 C2171 1.415 . S
C2174 H2164 0.930 . S
C2174 C2172 1.419 . S
C2174 C2175 1.362 . S
C2175 H2165 0.930 . S
C2175 C2168 1.409 . S
C2175 C2174 1.362 . S
H2176 C2182 0.930 . S
H2177 C2185 0.930 . S
H2178 C2186 0.930 . S
H2179 C2187 0.930 . S
H2180 C2190 0.930 . S
H2181 C2191 0.930 . S
C2182 H2176 0.930 . S
C2182 C2183 1.355 . S
C2182 C2184 1.415 . S
C2183 C2182 1.355 . S
C2183 C2185 1.419 . S
C2184 C2182 1.415 . S
C2184 C2189 1.425 . S
C2184 C2191 1.409 . S
C2185 H2177 0.930 . S
C2185 C2183 1.419 . S
C2185 C2186 1.362 . S
C2186 H2178 0.930 . S
C2186 C2185 1.362 . S
C2186 C2189 1.409 . S
C2187 H2179 0.930 . S
C2187 C2188 1.355 . S
C2187 C2189 1.415 . S
C2188 C2187 1.355 . S
C2188 C2190 1.419 . S
C2189 C2184 1.425 . S
C2189 C2186 1.409 . S
C2189 C2187 1.415 . S
C2190 H2180 0.930 . S
C2190 C2188 1.419 . S
C2190 C2191 1.362 . S
C2191 H2181 0.930 . S
C2191 C2184 1.409 . S
C2191 C2190 1.362 . S
C663 C106 1.948 . S
C668 C354 1.903 1_556 S
C679 C65 1.637 . S
C684 C365 1.641 . S
C695 C79 1.465 . S
C700 C394 1.453 . S
C716 C397 1.262 . S
C711 C90 1.209 . S
C727 C21 1.367 . S
C732 C435 1.355 . S
C748 C438 1.120 . S
C743 C35 1.077 . S
C764 C465 1.531 . S
C759 C50 1.540 . S
C775 C6 1.664 . S
C780 C494 1.660 . S
C796 C345 1.812 1_655 S
C791 C232 1.801 . S
C807 C245 0.894 . S
C812 C357 0.977 . S
C828 C385 1.621 . S
C823 C274 1.620 . S
C844 C414 1.168 . S
C839 C175 1.184 . S
C855 C231 0.921 . S
C860 C418 0.934 1_655 S
C876 C444 1.592 . S
C871 C246 1.596 . S
C892 C457 0.751 . S
C887 C273 0.669 . S
C908 C485 1.792 . S
C903 C176 1.790 . S
C924 C337 1.544 . S
C919 C160 1.534 . S
C935 C289 1.745 . S
C940 C504 1.740 . S
C956 C535 1.641 . S
C951 C328 1.610 . S
C972 C554 1.079 . S
C967 C317 1.175 . S
C983 C118 1.313 . S
C988 C477 1.438 . S
C999 C132 1.498 . S
C1004 C377 1.525 . S
C1015 C331 1.650 . S
C1020 C565 1.636 . S
C1036 C594 1.109 . S
C1031 C303 1.207 . S
C1052 C355 1.548 . S
C1047 C63 1.551 . S
C1068 C584 2.001 . S
C1063 C107 1.951 . S
C1079 C92 1.242 . S
C1084 C395 1.186 . S
C1095 C78 1.718 . S
C1100 C558 1.728 . S
C1116 C434 1.899 . S
C1111 C8 1.914 . S
C1127 C51 1.201 . S
C1132 C517 1.210 . S
C1148 C464 1.850 1_556 S
C1143 C37 1.814 . S
C1164 C615 1.590 . S
C1159 C20 1.607 . S
C1180 C344 1.578 . S
C1175 C147 1.534 . S
C1196 C578 1.139 . S
C1191 C316 1.138 . S
C1207 C119 1.468 . S
C1212 C384 1.551 . S
C1223 C288 1.315 . S
C1228 C575 1.260 . S
C1239 C148 1.213 1_545 S
C1244 C417 1.233 . S
C1260 C525 1.564 . S
C1255 C315 1.562 . S
C1271 C120 0.993 . S
C1276 C458 1.004 1_565 S
C1287 C287 1.585 . S
C1292 C604 1.641 . S
C1303 C188 1.450 . S
C1308 C338 1.426 . S
C1319 C177 1.949 . S
C1324 C505 1.927 . S
C1335 C258 1.654 . S
C1340 C454 1.633 . S
C1351 C247 1.193 . S
C1356 C555 1.176 . S
C1372 C598 1.288 . S
C1367 C272 1.281 . S
C1383 C216 1.411 . S
C1388 C378 1.409 . S
C1404 C404 1.852 . S
C1399 C261 1.821 . S
C1420 C375 1.131 . S
C1415 C205 1.176 . S
C1431 C76 1.499 . S
C1436 C634 1.520 . S
C1452 C585 1.703 . S
C1447 C93 1.701 . S
C1463 C105 1.058 . S
C1468 C654 1.041 . S
C1479 C62 1.230 . S
C1484 C557 1.267 . S
C1495 C49 1.396 . S
C1500 C515 1.363 . S
C1516 C518 1.497 . S
C1511 C9 1.491 . S
C1532 C545 1.485 . S
C1527 C22 1.484 . S
C1548 C614 1.969 . S
C1543 C36 2.031 . S
C1564 C625 1.752 . S
C1559 C260 1.744 . S
C1575 C189 0.899 . S
C1580 C577 0.838 . S
C1596 C645 1.563 . S
C1591 C204 1.562 . S
C1612 C574 1.033 . S
C1607 C217 1.065 . S
C1628 C498 1.115 . S
C1623 C259 1.008 . S
C1639 C190 1.658 . S
C1644 C524 1.646 . S
C1660 C537 0.850 . S
C1655 C203 0.911 . S
C1671 C218 1.808 . S
C1676 C605 1.814 . S
C1692 C617 1.515 . S
C1687 C314 1.503 . S
C1703 C135 1.803 . S
C1708 C424 1.756 . S
C1724 C455 1.580 . S
C1719 C146 1.597 . S
C1740 C474 1.219 1_565 S
C1735 C163 1.182 . S
C1756 C597 1.439 . S
C1751 C300 1.341 . S
C1767 C286 1.454 . S
C1772 C637 1.496 . S
C1788 C405 1.588 . S
C1783 C149 1.584 . S
C1804 C374 1.123 . S
C1799 C121 1.161 . S
C1815 C91 1.478 . S
C1820 C635 1.482 . S
C1836 C364 1.631 . S
C1831 C77 1.556 . S
C1847 C64 1.195 . S
C1852 C655 1.145 . S
C1863 C104 1.392 . S
C1868 C398 1.419 . S
C1879 C34 1.525 . S
C1884 C514 1.543 . S
C1900 C437 1.155 . S
C1895 C23 1.181 . S
C1911 C7 1.456 . S
C1916 C544 1.489 . S
C1927 C48 1.576 . S
C1932 C495 1.561 . S
C1948 C624 1.560 . S
C1943 C329 1.471 . S
C1959 C162 1.120 . S
C1964 C358 1.093 . S
C1980 C644 1.532 1_655 S
C1975 C301 1.465 . S
C1991 C134 1.319 . S
C1996 C415 1.267 . S
C2007 C330 1.218 . S
C2012 C497 1.203 . S
C2028 C445 1.549 . S
C2023 C161 1.555 . S
C2039 C302 1.010 . S
C2044 C538 0.987 . S
C2060 C484 1.580 . S
C2055 C133 1.608 . S
C2076 C618 1.597 . S
C2071 C244 1.605 . S
C2092 C425 1.904 1_565 S
C2087 C219 1.926 . S
C2103 C230 1.450 . S
C2108 C534 1.465 . S
C2124 C475 1.105 . S
C2119 C191 1.178 1_554 S
C2135 C202 1.444 . S
C2140 C478 1.500 . S
C2151 C174 1.522 . S
C2156 C638 1.607 . S
C2172 C564 1.812 . S
C2167 C233 1.778 . S
C2188 C595 1.096 . S
C2183 C275 1.179 . S
