# Generated by pormake.
# Topology nia, (6,6)-cn, num edge types: 1
# Building blocks:
#     Node 0, Type 0, BuildingBlock: HISSIN_clean_sbu_0, # of connection points: 6
#     Node 1, Type 0, BuildingBlock: HISSIN_clean_sbu_0, # of connection points: 6
#     Node 2, Type 1, BuildingBlock: MIDCAF_clean_sbu_0, # of connection points: 6
#     Node 3, Type 1, BuildingBlock: MIDCAF_clean_sbu_0, # of connection points: 6
#     Edge 4, Type (0, 1), BuildingBlock: XUDNAN_clean_linker_2, # of connection points: 2
#     Edge 5, Type (0, 1), BuildingBlock: XUDNAN_clean_linker_2, # of connection points: 2
#     Edge 6, Type (0, 1), BuildingBlock: XUDNAN_clean_linker_2, # of connection points: 2
#     Edge 7, Type (0, 1), BuildingBlock: XUDNAN_clean_linker_2, # of connection points: 2
#     Edge 8, Type (0, 1), BuildingBlock: XUDNAN_clean_linker_2, # of connection points: 2
#     Edge 9, Type (0, 1), BuildingBlock: XUDNAN_clean_linker_2, # of connection points: 2
#     Edge 10, Type (0, 1), BuildingBlock: XUDNAN_clean_linker_2, # of connection points: 2
#     Edge 11, Type (0, 1), BuildingBlock: XUDNAN_clean_linker_2, # of connection points: 2
#     Edge 12, Type (0, 1), BuildingBlock: XUDNAN_clean_linker_2, # of connection points: 2
#     Edge 13, Type (0, 1), BuildingBlock: XUDNAN_clean_linker_2, # of connection points: 2
#     Edge 14, Type (0, 1), BuildingBlock: XUDNAN_clean_linker_2, # of connection points: 2
#     Edge 15, Type (0, 1), BuildingBlock: XUDNAN_clean_linker_2, # of connection points: 2
# Relax obj value: 0.355
# Max RMSD: 0.265
# Mean RMSD: 0.254
data_MOF--net-nia--node1-HISSIN_clean_sbu_0--node2-MIDCAF_clean_sbu_0--edge1-XUDNAN_clean_linker_2
_symmetry_space_group_name_H-M    P1
_symmetry_Int_Tables_number       1
_symmetry_cell_setting            triclinic
loop_
_symmetry_equiv_pos_as_xyz
'x, y, z'
_cell_length_a     25.50443
_cell_length_b     25.515425
_cell_length_c     33.648481
_cell_angle_alpha  80.215649
_cell_angle_beta   80.27235
_cell_angle_gamma 116.35423
loop_
_atom_site_label
_atom_site_type_symbol
_atom_site_fract_x
_atom_site_fract_y
_atom_site_fract_z
_atom_type_partial_charge
Eu0 Eu 0.01819 0.06431 0.0466 0.0
Eu1 Eu 0.97988 0.96077 0.99835 0.0
C2 C 0.12046 0.06208 0.97583 0.0
C3 C 0.09308 0.19296 0.09837 0.0
C4 C 0.13131 0.17793 0.11762 0.0
C5 C 0.1426 0.29378 0.10751 0.0
C6 C 0.17469 0.22084 0.13232 0.0
C7 C 0.09952 0.25118 0.09307 0.0
C8 C 0.18045 0.2791 0.12749 0.0
C9 C 0.04375 0.14865 0.08547 0.0
O10 O 0.99487 0.92047 0.05816 0.0
O11 O 0.06129 0.00941 0.06924 0.0
C12 C 0.03605 0.95011 0.07657 0.0
O13 O 0.92745 0.98576 0.08717 0.0
O14 O 0.97885 0.93724 0.93936 0.0
O15 O 0.92941 0.8658 0.99817 0.0
O16 O 0.89169 0.95269 0.03367 0.0
C17 C 0.88183 0.95605 0.0724 0.0
O18 O 0.95864 0.0782 1.00795 0.0
O19 O 0.99022 0.04489 0.95567 0.0
O20 O 0.08204 0.00461 0.98061 0.0
O21 O 0.04862 0.15915 0.04531 0.0
O22 O 0.02139 0.09114 0.10446 0.0
O23 O 0.10315 0.09658 0.99316 0.0
C24 C 0.96787 0.83996 0.93981 0.0
C25 C 0.92857 0.77716 0.95278 0.0
C26 C 0.03559 0.82623 0.8875 0.0
C27 C 0.94176 0.7393 0.93286 0.0
C28 C 0.02236 0.86432 0.90769 0.0
C29 C 0.99474 0.76344 0.8994 0.0
C30 C 0.94759 0.87887 0.95737 0.0
C31 C 0.96529 0.07589 0.96899 0.0
H32 H 0.12693 0.13297 0.12194 0.0
H33 H 0.14467 0.33768 0.10431 0.0
H34 H 0.20321 0.20843 0.14771 0.0
H35 H 0.07005 0.26329 0.07862 0.0
H36 H 0.88609 0.75755 0.97714 0.0
H37 H 0.07659 0.84599 0.86181 0.0
H38 H 0.9083 0.69141 0.94218 0.0
H39 H 0.0536 0.91285 0.89712 0.0
Eu40 Eu 0.94049 0.9962 0.50253 0.0
Eu41 Eu 0.05023 0.04181 0.54524 0.0
C42 C 0.94313 0.90196 0.57764 0.0
C43 C 0.83289 0.98144 0.43262 0.0
C44 C 0.83836 0.03973 0.42185 0.0
C45 C 0.77734 0.95378 0.38128 0.0
C46 C 0.81082 0.05386 0.39226 0.0
C47 C 0.80451 0.93967 0.41089 0.0
C48 C 0.77784 0.01002 0.37299 0.0
C49 C 0.8499 0.9606 0.46923 0.0
O50 O 0.06475 0.98291 0.50612 0.0
O51 O 0.02191 0.0061 0.45658 0.0
C52 C 0.05677 0.98487 0.46845 0.0
O53 O 0.99235 0.09826 0.47271 0.0
O54 O 0.0795 0.07219 0.59777 0.0
O55 O 0.14336 0.06822 0.54823 0.0
O56 O 0.08339 0.12129 0.48794 0.0
C57 C 0.04995 0.13681 0.46801 0.0
O58 O 0.90548 0.00477 0.56629 0.0
O59 O 0.99437 0.08697 0.56061 0.0
O60 O 0.9787 0.94907 0.58929 0.0
O61 O 0.89203 0.94484 0.46252 0.0
O62 O 0.8546 0.9905 0.49743 0.0
O63 O 0.93138 0.90945 0.54122 0.0
C64 C 0.15751 0.05676 0.61726 0.0
C65 C 0.20562 0.04449 0.60605 0.0
C66 C 0.1693 0.04997 0.68783 0.0
C67 C 0.23661 0.03709 0.63514 0.0
C68 C 0.13822 0.05715 0.65886 0.0
C69 C 0.22033 0.04248 0.67569 0.0
C70 C 0.13351 0.0781 0.58495 0.0
C71 C 0.93552 0.05487 0.57657 0.0
H72 H 0.86093 0.07311 0.43789 0.0
H73 H 0.75156 0.91846 0.3676 0.0
H74 H 0.81227 0.09762 0.38627 0.0
H75 H 0.80002 0.89459 0.4187 0.0
H76 H 0.22176 0.04429 0.57419 0.0
H77 H 0.15583 0.0541 0.71896 0.0
H78 H 0.27633 0.0321 0.6248 0.0
H79 H 0.10143 0.06677 0.66846 0.0
Zn80 Zn 0.34031 0.75799 0.20037 0.0
Zn81 Zn 0.2875 0.69356 0.35848 0.0
Zn82 Zn 0.31008 0.72072 0.27894 0.0
C83 C 0.40621 0.79088 0.32556 0.0
C84 C 0.25009 0.58223 0.34527 0.0
O85 O 0.25187 0.75933 0.25749 0.0
O86 O 0.28626 0.78974 0.18823 0.0
C87 C 0.44984 0.8043 0.21119 0.0
O88 O 0.39534 0.77966 0.29113 0.0
O89 O 0.36696 0.75842 0.36029 0.0
O90 O 0.26226 0.60518 0.37515 0.0
O91 O 0.26385 0.61776 0.30826 0.0
O92 O 0.42797 0.81376 0.18159 0.0
O93 O 0.4136 0.77322 0.24863 0.0
O94 O 0.28991 0.63599 0.2635 0.0
O95 O 0.32122 0.67563 0.19478 0.0
C96 C 0.30176 0.63047 0.22626 0.0
O97 O 0.24967 0.75844 0.30133 0.0
O98 O 0.2242 0.71832 0.36973 0.0
C99 C 0.24938 0.78304 0.22119 0.0
C100 C 0.22096 0.75173 0.33897 0.0
Zn101 Zn 0.6751 0.30378 0.85459 0.0
Zn102 Zn 0.71943 0.34599 0.69656 0.0
Zn103 Zn 0.70003 0.32302 0.77687 0.0
C104 C 0.75551 0.45928 0.70939 0.0
C105 C 0.59462 0.26411 0.73546 0.0
O106 O 0.74373 0.26993 0.79915 0.0
O107 O 0.69545 0.2369 0.86663 0.0
C108 C 0.77468 0.42163 0.81808 0.0
O109 O 0.74516 0.42601 0.74657 0.0
O110 O 0.74565 0.43432 0.68012 0.0
O111 O 0.63393 0.28542 0.70035 0.0
O112 O 0.61008 0.27742 0.76832 0.0
O113 O 0.74438 0.38173 0.85283 0.0
O114 O 0.75868 0.41185 0.78462 0.0
O115 O 0.59822 0.27559 0.81067 0.0
O116 O 0.58931 0.28617 0.87485 0.0
C117 C 0.56451 0.26828 0.84681 0.0
O118 O 0.74576 0.27329 0.75401 0.0
O119 O 0.7798 0.31697 0.68561 0.0
C120 C 0.73357 0.23818 0.83653 0.0
C121 C 0.77571 0.27907 0.71716 0.0
H122 H 0.14715 0.9905 0.09178 0.0
H123 H 0.96674 0.8335 0.12801 0.0
H124 H 0.99802 0.77813 0.17837 0.0
H125 H 0.22502 0.90673 0.09018 0.0
H126 H 0.28526 0.95713 0.10877 0.0
H127 H 0.2456 0.98605 0.08035 0.0
H128 H 0.219 0.02637 0.14229 0.0
H129 H 0.25801 0.99669 0.17112 0.0
H130 H 0.17954 0.97452 0.19418 0.0
H131 H 0.05124 0.73884 0.22334 0.0
H132 H 0.12535 0.71362 0.24898 0.0
H133 H 0.27152 0.89381 0.17879 0.0
C134 C 0.11396 0.94478 0.11081 0.0
C135 C 0.05436 0.91642 0.10643 0.0
C136 C 0.01265 0.85601 0.131 0.0
C137 C 0.02985 0.82449 0.15994 0.0
C138 C 0.08911 0.85384 0.16358 0.0
C139 C 0.13075 0.91236 0.13909 0.0
C140 C 0.19341 0.93142 0.14522 0.0
C141 C 0.24003 0.94615 0.10368 0.0
C142 C 0.21366 0.98546 0.16435 0.0
C143 C 0.18104 0.87407 0.17625 0.0
C144 C 0.12029 0.83036 0.18754 0.0
C145 C 0.0988 0.7729 0.21489 0.0
C146 C 0.14094 0.75905 0.2296 0.0
C147 C 0.20366 0.80208 0.21609 0.0
C148 C 0.22351 0.86059 0.19 0.0
H149 H 0.26394 0.13459 0.71153 0.0
H150 H 0.27659 0.97545 0.69496 0.0
H151 H 0.36602 0.00762 0.72312 0.0
H152 H 0.40985 0.23313 0.67256 0.0
H153 H 0.41675 0.2809 0.70736 0.0
H154 H 0.34444 0.23751 0.6982 0.0
H155 H 0.29647 0.18913 0.77733 0.0
H156 H 0.36834 0.22878 0.78878 0.0
H157 H 0.32464 0.14683 0.80677 0.0
H158 H 0.4648 0.06758 0.7358 0.0
H159 H 0.56476 0.14939 0.73526 0.0
H160 H 0.48948 0.27069 0.74369 0.0
C161 C 0.28355 0.10484 0.71601 0.0
C162 C 0.26307 0.0521 0.70177 0.0
C163 C 0.29145 0.01567 0.70616 0.0
C164 C 0.342 0.03351 0.72228 0.0
C165 C 0.36316 0.08763 0.73395 0.0
C166 C 0.33433 0.12244 0.73156 0.0
C167 C 0.37138 0.18326 0.73948 0.0
C168 C 0.38649 0.23678 0.70217 0.0
C169 C 0.33832 0.1873 0.78054 0.0
C170 C 0.42769 0.17917 0.74351 0.0
C171 C 0.42128 0.12297 0.74132 0.0
C172 C 0.46974 0.11095 0.73888 0.0
C173 C 0.52629 0.15766 0.73816 0.0
C174 C 0.53371 0.21539 0.7398 0.0
C175 C 0.4839 0.22619 0.74324 0.0
H176 H 0.25295 0.39985 0.09073 0.0
H177 H 0.19739 0.25973 0.20598 0.0
H178 H 0.24146 0.339 0.24212 0.0
H179 H 0.38976 0.52672 0.11034 0.0
H180 H 0.36871 0.58156 0.0882 0.0
H181 H 0.35378 0.5164 0.06842 0.0
H182 H 0.24011 0.48837 0.0826 0.0
H183 H 0.25403 0.55204 0.10341 0.0
H184 H 0.1974 0.47635 0.13493 0.0
H185 H 0.27546 0.4335 0.26828 0.0
H186 H 0.29259 0.53152 0.28159 0.0
H187 H 0.30467 0.60243 0.15204 0.0
C188 C 0.2523 0.38598 0.12316 0.0
C189 C 0.2219 0.324 0.14562 0.0
C190 C 0.2214 0.30717 0.18805 0.0
C191 C 0.24612 0.35193 0.20884 0.0
C192 C 0.27107 0.41287 0.18659 0.0
C193 C 0.27471 0.42979 0.14445 0.0
C194 C 0.29179 0.49594 0.12942 0.0
C195 C 0.35477 0.5323 0.0972 0.0
C196 C 0.2429 0.50354 0.1116 0.0
C197 C 0.29359 0.5128 0.17014 0.0
C198 C 0.28401 0.46536 0.20246 0.0
C199 C 0.28241 0.47065 0.24317 0.0
C200 C 0.29016 0.52568 0.25087 0.0
C201 C 0.2957 0.57297 0.21871 0.0
C202 C 0.29897 0.56662 0.17769 0.0
H203 H 0.96898 0.17218 0.57578 0.0
H204 H 0.83134 0.98607 0.64181 0.0
H205 H 0.7819 0.02349 0.6912 0.0
H206 H 0.97954 0.23469 0.66528 0.0
H207 H 0.9871 0.30537 0.63681 0.0
H208 H 0.01447 0.26363 0.60941 0.0
H209 H 0.94756 0.26126 0.55896 0.0
H210 H 0.92069 0.30364 0.5858 0.0
H211 H 0.86697 0.23159 0.58043 0.0
H212 H 0.74771 0.0827 0.73317 0.0
H213 H 0.7219 0.15756 0.75642 0.0
H214 H 0.87814 0.304 0.6591 0.0
C215 C 0.92876 0.13926 0.60093 0.0
C216 C 0.90422 0.07625 0.60542 0.0
C217 C 0.85078 0.03457 0.63799 0.0
C218 C 0.8228 0.05541 0.66633 0.0
C219 C 0.84849 0.11803 0.66121 0.0
C220 C 0.89969 0.1593 0.62878 0.0
C221 C 0.91522 0.22423 0.62747 0.0
C222 C 0.9778 0.25901 0.63521 0.0
C223 C 0.9124 0.25708 0.5857 0.0
C224 C 0.86439 0.21327 0.66394 0.0
C225 C 0.82718 0.15183 0.68373 0.0
C226 C 0.77663 0.13087 0.71791 0.0
C227 C 0.76254 0.17366 0.73111 0.0
C228 C 0.79828 0.2364 0.70966 0.0
C229 C 0.85043 0.2563 0.67625 0.0
H230 H 0.78924 0.97726 0.0594 0.0
H231 H 0.83386 0.86947 0.14729 0.0
H232 H 0.72797 0.81842 0.19324 0.0
H233 H 0.69575 0.00222 0.13931 0.0
H234 H 0.64242 -9e-05 0.10976 0.0
H235 H 0.72036 0.02527 0.08274 0.0
H236 H 0.68479 0.94344 0.04231 0.0
H237 H 0.60681 0.91881 0.0687 0.0
H238 H 0.63455 0.86484 0.07129 0.0
H239 H 0.6142 0.77353 0.22632 0.0
H240 H 0.50643 0.74905 0.24938 0.0
H241 H 0.54054 0.89607 0.1448 0.0
C242 C 0.77635 0.9426 0.08823 0.0
C243 C 0.81895 0.92629 0.09972 0.0
C244 C 0.80138 0.88198 0.13802 0.0
C245 C 0.74145 0.85278 0.16416 0.0
C246 C 0.7002 0.86961 0.15196 0.0
C247 C 0.71726 0.9144 0.11531 0.0
C248 C 0.6653 0.9266 0.11062 0.0
C249 C 0.68197 0.9924 0.11062 0.0
C250 C 0.64677 0.91258 0.07088 0.0
C251 C 0.61612 0.88119 0.15004 0.0
C252 C 0.63672 0.8479 0.17306 0.0
C253 C 0.59809 0.80046 0.20915 0.0
C254 C 0.5371 0.78724 0.22228 0.0
C255 C 0.51571 0.82259 0.20027 0.0
C256 C 0.55599 0.86976 0.1634 0.0
H257 H 0.91093 0.79594 0.55495 0.0
H258 H 0.91314 0.86548 0.66391 0.0
H259 H 0.86347 0.76007 0.71037 0.0
H260 H 0.76762 0.65897 0.59748 0.0
H261 H 0.79298 0.61368 0.57283 0.0
H262 H 0.82723 0.6942 0.54875 0.0
H263 H 0.93362 0.7066 0.54822 0.0
H264 H 0.90005 0.6262 0.57236 0.0
H265 H 0.94729 0.68013 0.59656 0.0
H266 H 0.80664 0.64365 0.74504 0.0
H267 H 0.76031 0.53111 0.76365 0.0
H268 H 0.80522 0.54096 0.63143 0.0
C269 C 0.90081 0.78904 0.5886 0.0
C270 C 0.91541 0.83903 0.6058 0.0
C271 C 0.90237 0.82797 0.65 0.0
C272 C 0.87391 0.76816 0.67663 0.0
C273 C 0.85968 0.71978 0.65863 0.0
C274 C 0.87369 0.7299 0.61552 0.0
C275 C 0.85615 0.67075 0.60376 0.0
C276 C 0.80814 0.65871 0.57926 0.0
C277 C 0.91265 0.67094 0.57877 0.0
C278 C 0.82944 0.62553 0.64689 0.0
C279 C 0.83106 0.65431 0.67827 0.0
C280 C 0.8063 0.62099 0.72059 0.0
C281 C 0.78023 0.55699 0.73094 0.0
C282 C 0.78067 0.52687 0.69925 0.0
C283 C 0.80496 0.56216 0.65669 0.0
H284 H 0.07919 0.89054 0.49176 0.0
H285 H 0.08966 0.01625 0.38243 0.0
H286 H 0.12866 0.96788 0.33622 0.0
H287 H 0.21261 0.88181 0.44882 0.0
H288 H 0.17871 0.80165 0.47425 0.0
H289 H 0.15358 0.84778 0.49779 0.0
H290 H 0.0428 0.77495 0.49929 0.0
H291 H 0.0675 0.7289 0.47521 0.0
H292 H 0.02552 0.75995 0.45129 0.0
H293 H 0.1738 0.90874 0.30208 0.0
H294 H 0.2152 0.84206 0.28408 0.0
H295 H 0.16225 0.74797 0.41611 0.0
C296 C 0.09027 0.90828 0.45807 0.0
C297 C 0.0823 0.95771 0.4406 0.0
C298 C 0.09586 0.97865 0.39642 0.0
C299 C 0.11793 0.9514 0.36996 0.0
C300 C 0.12491 0.90237 0.38823 0.0
C301 C 0.11085 0.8807 0.43134 0.0
C302 C 0.12071 0.82654 0.44332 0.0
C303 C 0.1693 0.8403 0.46745 0.0
C304 C 0.06054 0.76919 0.46877 0.0
C305 C 0.14337 0.82152 0.40027 0.0
C306 C 0.14608 0.86585 0.36878 0.0
C307 C 0.17031 0.87284 0.32655 0.0
C308 C 0.19301 0.83407 0.31644 0.0
C309 C 0.19009 0.78788 0.34825 0.0
C310 C 0.164 0.78152 0.39066 0.0
H311 H 0.22259 0.17006 0.97078 0.0
H312 H 0.16419 0.01119 0.92323 0.0
H313 H 0.26987 0.0496 0.88236 0.0
H314 H 0.33994 0.27881 0.8746 0.0
H315 H 0.3919 0.32011 0.90233 0.0
H316 H 0.31094 0.28205 0.92633 0.0
H317 H 0.32408 0.22235 0.99079 0.0
H318 H 0.405 0.26024 0.96701 0.0
H319 H 0.36202 0.17825 0.98311 0.0
H320 H 0.38276 0.10225 0.84895 0.0
H321 H 0.49483 0.16525 0.82654 0.0
H322 H 0.48197 0.29063 0.89461 0.0
C323 C 0.23194 0.14365 0.95147 0.0
C324 C 0.18464 0.08747 0.95036 0.0
C325 C 0.19927 0.05416 0.92492 0.0
C326 C 0.25932 0.0757 0.90139 0.0
C327 C 0.30482 0.13076 0.90347 0.0
C328 C 0.29201 0.16436 0.92784 0.0
C329 C 0.34999 0.22104 0.9256 0.0
C330 C 0.34806 0.27893 0.90605 0.0
C331 C 0.36091 0.2204 0.96922 0.0
C332 C 0.39728 0.21358 0.89661 0.0
C333 C 0.3701 0.16138 0.88396 0.0
C334 C 0.40439 0.14374 0.85814 0.0
C335 C 0.46802 0.18029 0.84496 0.0
C336 C 0.497 0.23397 0.85742 0.0
C337 C 0.46095 0.25049 0.88382 0.0
H338 H 0.14475 0.24092 0.47413 0.0
H339 H 0.01435 0.17744 0.40224 0.0
H340 H 0.055 0.28361 0.36012 0.0
H341 H 0.13115 0.37222 0.48041 0.0
H342 H 0.21026 0.41959 0.47683 0.0
H343 H 0.17463 0.33842 0.49865 0.0
H344 H 0.25731 0.33465 0.44453 0.0
H345 H 0.29329 0.4159 0.42258 0.0
H346 H 0.27058 0.36615 0.38931 0.0
H347 H 0.10936 0.39873 0.32645 0.0
H348 H 0.16756 0.51148 0.30785 0.0
H349 H 0.25859 0.49967 0.40406 0.0
C350 C 0.12543 0.24921 0.44905 0.0
C351 C 0.0768 0.20052 0.44118 0.0
C352 C 0.0518 0.21376 0.40877 0.0
C353 C 0.07472 0.27402 0.38458 0.0
C354 C 0.12232 0.32102 0.39338 0.0
C355 C 0.14705 0.30925 0.42509 0.0
C356 C 0.19508 0.36804 0.43014 0.0
C357 C 0.17666 0.37496 0.47411 0.0
C358 C 0.25778 0.37136 0.42109 0.0
C359 C 0.1935 0.41476 0.39647 0.0
C360 C 0.15177 0.38683 0.37521 0.0
C361 C 0.14218 0.42091 0.34292 0.0
C362 C 0.17553 0.48497 0.33246 0.0
C363 C 0.21796 0.51453 0.35423 0.0
C364 C 0.22674 0.47855 0.38665 0.0
H365 H 0.86637 0.0917 0.99182 0.0
H366 H 1.00374 0.11787 0.88341 0.0
H367 H 0.95699 0.15813 0.83656 0.0
H368 H 0.74213 0.03978 0.94502 0.0
H369 H 0.70567 0.0766 0.97029 0.0
H370 H 0.7513 0.0521 0.99518 0.0
H371 H 0.81766 0.1611 0.99985 0.0
H372 H 0.772 0.18607 0.97546 0.0
H373 H 0.8533 0.22397 0.95292 0.0
H374 H 0.8982 0.20188 0.80207 0.0
H375 H 0.83037 0.24105 0.7831 0.0
H376 H 0.72505 0.17458 0.91361 0.0
C377 C 0.88696 0.10652 0.95823 0.0
C378 C 0.93911 0.10253 0.94115 0.0
C379 C 0.96394 0.12095 0.89704 0.0
C380 C 0.93766 0.14375 0.87024 0.0
C381 C 0.88584 0.14662 0.88805 0.0
C382 C 0.8605 0.12801 0.93103 0.0
C383 C 0.804 0.13435 0.94227 0.0
C384 C 0.74742 0.07198 0.96448 0.0
C385 C 0.81227 0.17904 0.9692 0.0
C386 C 0.80195 0.16026 0.89893 0.0
C387 C 0.84971 0.16747 0.86804 0.0
C388 C 0.85972 0.19501 0.82592 0.0
C389 C 0.82037 0.21645 0.81526 0.0
C390 C 0.77076 0.20902 0.84638 0.0
C391 C 0.76142 0.17973 0.88868 0.0
H392 H 0.7524 0.97622 0.30284 0.0
H393 H 0.70116 0.05348 0.39752 0.0
H394 H 0.60403 0.02574 0.38079 0.0
H395 H 0.65342 -0.00038 0.23156 0.0
H396 H 0.63223 0.92659 0.22227 0.0
H397 H 0.70769 0.97221 0.22674 0.0
H398 H 0.69497 0.88558 0.28515 0.0
H399 H 0.61984 0.83684 0.28268 0.0
H400 H 0.6316 0.85184 0.33169 0.0
H401 H 0.50338 0.95952 0.3739 0.0
H402 H 0.41149 0.87156 0.36978 0.0
H403 H 0.5237 0.8311 0.28322 0.0
C404 C 0.72197 0.99021 0.31827 0.0
C405 C 0.73408 0.01658 0.35153 0.0
C406 C 0.69334 0.034 0.37149 0.0
C407 C 0.63765 0.01807 0.36229 0.0
C408 C 0.6239 0.98563 0.33268 0.0
C409 C 0.66572 0.97345 0.30992 0.0
C410 C 0.63609 0.92774 0.28638 0.0
C411 C 0.6588 0.95841 0.23892 0.0
C412 C 0.64622 0.87229 0.29716 0.0
C413 C 0.5702 0.91085 0.30332 0.0
C414 C 0.56432 0.94635 0.32871 0.0
C415 C 0.50753 0.93316 0.35274 0.0
C416 C 0.4557 0.88264 0.35071 0.0
C417 C 0.46106 0.84572 0.32509 0.0
C418 C 0.51873 0.8606 0.30085 0.0
H419 H 0.97239 0.64782 0.92862 0.0
H420 H 0.02709 0.78785 0.81367 0.0
H421 H 0.99896 0.71034 0.7749 0.0
H422 H 0.98988 0.52595 0.88051 0.0
H423 H 0.91981 0.46786 0.91834 0.0
H424 H 0.97049 0.53333 0.93256 0.0
H425 H 0.88126 0.55464 0.95519 0.0
H426 H 0.83095 0.49095 0.94006 0.0
H427 H 0.84176 0.56562 0.9176 0.0
H428 H 0.94126 0.61643 0.75232 0.0
H429 H 0.85754 0.5195 0.74987 0.0
H430 H 0.82154 0.44603 0.88338 0.0
C431 C 0.98122 0.66229 0.89489 0.0
C432 C 1.00144 0.72343 0.87421 0.0
C433 C 0.01239 0.74122 0.83011 0.0
C434 C 0.99626 0.69729 0.80782 0.0
C435 C 0.96926 0.63612 0.83018 0.0
C436 C 0.96236 0.61873 0.87291 0.0
C437 C 0.91834 0.5516 0.8921 0.0
C438 C 0.95164 0.51768 0.90672 0.0
C439 C 0.86497 0.54014 0.92829 0.0
C440 C 0.89747 0.53515 0.85449 0.0
C441 C 0.92957 0.58319 0.81855 0.0
C442 C 0.91571 0.57874 0.78044 0.0
C443 C 0.86685 0.5243 0.77953 0.0
C444 C 0.82992 0.47716 0.81699 0.0
C445 C 0.84734 0.4821 0.85439 0.0
loop_
_geom_bond_atom_site_label_1
_geom_bond_atom_site_label_2
_geom_bond_distance
_geom_bond_site_symmetry_2
_ccdc_geom_bond_type
Eu0 C9 2.828 . S
Eu0 O11 2.392 1_545 S
Eu0 O13 2.418 1_455 S
Eu0 O18 2.373 1_455 S
Eu0 O21 2.488 . S
Eu0 O22 2.471 . S
Eu0 O23 2.349 1_554 S
Eu1 O10 2.373 1_656 S
Eu1 O14 2.488 1_655 S
Eu1 O15 2.471 . S
Eu1 O16 2.349 1_556 S
Eu1 O19 2.392 1_565 S
Eu1 O20 2.418 1_665 S
Eu1 C30 2.828 . S
C2 O20 1.244 . S
C2 O23 1.265 . S
C3 C4 1.379 . S
C3 C7 1.373 . S
C3 C9 1.505 . S
C4 C3 1.379 . S
C4 C6 1.369 . S
C4 H32 0.930 . S
C5 C7 1.383 . S
C5 C8 1.382 . S
C5 H33 0.930 . S
C6 C4 1.369 . S
C6 C8 1.392 . S
C6 H34 0.930 . S
C7 C3 1.373 . S
C7 C5 1.383 . S
C7 H35 0.931 . S
C8 C5 1.382 . S
C8 C6 1.392 . S
C9 Eu0 2.828 . S
C9 C3 1.505 . S
C9 O21 1.249 . S
C9 O22 1.244 . S
O10 Eu1 2.373 1_454 S
O10 C12 1.258 . S
O11 Eu0 2.392 1_565 S
O11 C12 1.242 . S
C12 O10 1.258 . S
C12 O11 1.242 . S
O13 Eu0 2.418 1_655 S
O13 C17 1.244 1_545 S
O14 Eu1 2.488 1_455 S
O14 C30 1.249 1_455 S
O15 Eu1 2.471 . S
O15 C30 1.244 . S
O16 Eu1 2.349 1_554 S
O16 C17 1.265 . S
C17 O13 1.244 1_565 S
C17 O16 1.265 . S
O18 Eu0 2.373 1_655 S
O18 C31 1.258 1_554 S
O19 Eu1 2.392 1_545 S
O19 C31 1.242 . S
O20 Eu1 2.418 1_445 S
O20 C2 1.244 . S
O21 Eu0 2.488 . S
O21 C9 1.249 . S
O22 Eu0 2.471 . S
O22 C9 1.244 . S
O23 Eu0 2.349 1_556 S
O23 C2 1.265 . S
C24 C25 1.379 . S
C24 C28 1.373 . S
C24 C30 1.505 . S
C25 C24 1.379 . S
C25 C27 1.369 . S
C25 H36 0.930 1_556 S
C26 C28 1.383 . S
C26 C29 1.382 . S
C26 H37 0.930 . S
C27 C25 1.369 . S
C27 C29 1.392 . S
C27 H38 0.930 1_556 S
C28 C24 1.373 . S
C28 C26 1.383 . S
C28 H39 0.931 1_655 S
C29 C26 1.382 . S
C29 C27 1.392 . S
C30 Eu1 2.828 . S
C30 O14 1.249 1_655 S
C30 O15 1.244 . S
C30 C24 1.505 . S
C31 O18 1.258 1_556 S
C31 O19 1.242 . S
H32 C4 0.930 . S
H33 C5 0.930 . S
H34 C6 0.930 . S
H35 C7 0.931 . S
H36 C25 0.930 1_554 S
H37 C26 0.930 . S
H38 C27 0.930 1_554 S
H39 C28 0.931 1_455 S
Eu40 C49 2.828 . S
Eu40 O51 2.392 1_655 S
Eu40 O53 2.418 1_665 S
Eu40 O58 2.373 1_565 S
Eu40 O61 2.488 1_565 S
Eu40 O62 2.471 . S
Eu40 O63 2.349 . S
Eu41 O50 2.373 1_545 S
Eu41 O54 2.488 . S
Eu41 O55 2.471 . S
Eu41 O56 2.349 . S
Eu41 O59 2.392 1_455 S
Eu41 O60 2.418 1_445 S
Eu41 C70 2.828 . S
C42 O60 1.244 . S
C42 O63 1.265 . S
C43 C44 1.379 . S
C43 C47 1.373 . S
C43 C49 1.505 . S
C44 C43 1.379 . S
C44 C46 1.369 . S
C44 H72 0.930 . S
C45 C47 1.383 . S
C45 C48 1.382 . S
C45 H73 0.930 . S
C46 C44 1.369 . S
C46 C48 1.392 . S
C46 H74 0.930 . S
C47 C43 1.373 . S
C47 C45 1.383 . S
C47 H75 0.931 1_565 S
C48 C45 1.382 . S
C48 C46 1.392 . S
C49 Eu40 2.828 . S
C49 C43 1.505 . S
C49 O61 1.249 1_565 S
C49 O62 1.244 . S
O50 Eu41 2.373 1_565 S
O50 C52 1.258 . S
O51 Eu40 2.392 1_455 S
O51 C52 1.242 . S
C52 O50 1.258 . S
C52 O51 1.242 . S
O53 Eu40 2.418 1_445 S
O53 C57 1.244 . S
O54 Eu41 2.488 . S
O54 C70 1.249 . S
O55 Eu41 2.471 . S
O55 C70 1.244 . S
O56 Eu41 2.349 . S
O56 C57 1.265 . S
C57 O53 1.244 . S
C57 O56 1.265 . S
O58 Eu40 2.373 1_545 S
O58 C71 1.258 . S
O59 Eu41 2.392 1_655 S
O59 C71 1.242 . S
O60 Eu41 2.418 1_665 S
O60 C42 1.244 . S
O61 Eu40 2.488 1_545 S
O61 C49 1.249 1_545 S
O62 Eu40 2.471 . S
O62 C49 1.244 . S
O63 Eu40 2.349 . S
O63 C42 1.265 . S
C64 C65 1.379 . S
C64 C68 1.373 . S
C64 C70 1.505 . S
C65 C64 1.379 . S
C65 C67 1.369 . S
C65 H76 0.930 . S
C66 C68 1.383 . S
C66 C69 1.382 . S
C66 H77 0.930 . S
C67 C65 1.369 . S
C67 C69 1.392 . S
C67 H78 0.930 . S
C68 C64 1.373 . S
C68 C66 1.383 . S
C68 H79 0.931 . S
C69 C66 1.382 . S
C69 C67 1.392 . S
C70 Eu41 2.828 . S
C70 O54 1.249 . S
C70 O55 1.244 . S
C70 C64 1.505 . S
C71 O58 1.258 . S
C71 O59 1.242 . S
H72 C44 0.930 . S
H73 C45 0.930 . S
H74 C46 0.930 . S
H75 C47 0.931 1_545 S
H76 C65 0.930 . S
H77 C66 0.930 . S
H78 C67 0.930 . S
H79 C68 0.931 . S
Zn80 O86 1.920 . S
Zn80 O92 1.898 . S
Zn80 O95 1.905 . S
Zn81 O89 1.905 . S
Zn81 O90 1.898 . S
Zn81 O98 1.920 . S
Zn82 O85 2.080 . S
Zn82 O88 2.114 . S
Zn82 O91 2.120 . S
Zn82 O93 2.120 . S
Zn82 O94 2.114 . S
Zn82 O97 2.080 . S
C83 O88 1.166 . S
C83 O89 1.182 . S
C84 O90 1.167 . S
C84 O91 1.299 . S
O85 Zn82 2.080 . S
O85 C99 1.305 . S
O86 Zn80 1.920 . S
O86 C99 1.234 . S
C87 O92 1.167 . S
C87 O93 1.299 . S
O88 Zn82 2.114 . S
O88 C83 1.166 . S
O89 Zn81 1.905 . S
O89 C83 1.182 . S
O90 Zn81 1.898 . S
O90 C84 1.167 . S
O91 Zn82 2.120 . S
O91 C84 1.299 . S
O92 Zn80 1.898 . S
O92 C87 1.167 . S
O93 Zn82 2.120 . S
O93 C87 1.299 . S
O94 Zn82 2.114 . S
O94 C96 1.166 . S
O95 Zn80 1.905 . S
O95 C96 1.182 . S
C96 O94 1.166 . S
C96 O95 1.182 . S
O97 Zn82 2.080 . S
O97 C100 1.305 . S
O98 Zn81 1.920 . S
O98 C100 1.234 . S
C99 O85 1.305 . S
C99 O86 1.234 . S
C100 O97 1.305 . S
C100 O98 1.234 . S
Zn101 O107 1.920 . S
Zn101 O113 1.898 . S
Zn101 O116 1.905 . S
Zn102 O110 1.905 . S
Zn102 O111 1.898 . S
Zn102 O119 1.920 . S
Zn103 O106 2.080 . S
Zn103 O109 2.114 . S
Zn103 O112 2.120 . S
Zn103 O114 2.120 . S
Zn103 O115 2.114 . S
Zn103 O118 2.080 . S
C104 O109 1.166 . S
C104 O110 1.182 . S
C105 O111 1.167 . S
C105 O112 1.299 . S
O106 Zn103 2.080 . S
O106 C120 1.305 . S
O107 Zn101 1.920 . S
O107 C120 1.234 . S
C108 O113 1.167 . S
C108 O114 1.299 . S
O109 Zn103 2.114 . S
O109 C104 1.166 . S
O110 Zn102 1.905 . S
O110 C104 1.182 . S
O111 Zn102 1.898 . S
O111 C105 1.167 . S
O112 Zn103 2.120 . S
O112 C105 1.299 . S
O113 Zn101 1.898 . S
O113 C108 1.167 . S
O114 Zn103 2.120 . S
O114 C108 1.299 . S
O115 Zn103 2.114 . S
O115 C117 1.166 . S
O116 Zn101 1.905 . S
O116 C117 1.182 . S
C117 O115 1.166 . S
C117 O116 1.182 . S
O118 Zn103 2.080 . S
O118 C121 1.305 . S
O119 Zn102 1.920 . S
O119 C121 1.234 . S
C120 O106 1.305 . S
C120 O107 1.234 . S
C121 O118 1.305 . S
C121 O119 1.234 . S
H122 C134 0.930 . S
H123 C136 0.930 1_655 S
H124 C137 0.930 . S
H125 C141 0.959 . S
H126 C141 0.959 . S
H127 C141 0.961 . S
H128 C142 0.960 . S
H129 C142 0.961 . S
H130 C142 0.959 . S
H131 C145 0.929 . S
H132 C146 0.931 . S
H133 C148 0.930 . S
C134 H122 0.930 . S
C134 C135 1.399 . S
C134 C139 1.399 . S
C135 C134 1.399 . S
C135 C136 1.376 . S
C136 H123 0.930 1_455 S
C136 C135 1.376 . S
C136 C137 1.388 . S
C137 H124 0.930 . S
C137 C136 1.388 . S
C137 C138 1.390 . S
C138 C137 1.390 . S
C138 C139 1.394 . S
C138 C144 1.465 . S
C139 C134 1.399 . S
C139 C138 1.394 . S
C139 C140 1.516 . S
C140 C139 1.516 . S
C140 C141 1.502 . S
C140 C142 1.561 . S
C140 C143 1.526 . S
C141 H125 0.959 . S
C141 H126 0.959 . S
C141 H127 0.961 . S
C141 C140 1.502 . S
C142 H128 0.960 . S
C142 H129 0.961 . S
C142 H130 0.959 . S
C142 C140 1.561 . S
C143 C140 1.526 . S
C143 C144 1.396 . S
C143 C148 1.390 . S
C144 C138 1.465 . S
C144 C143 1.396 . S
C144 C145 1.399 . S
C145 H131 0.929 . S
C145 C144 1.399 . S
C145 C146 1.385 . S
C146 H132 0.931 . S
C146 C145 1.385 . S
C146 C147 1.389 . S
C147 C146 1.389 . S
C147 C148 1.387 . S
C148 H133 0.930 . S
C148 C143 1.390 . S
C148 C147 1.387 . S
H149 C161 0.930 . S
H150 C163 0.930 . S
H151 C164 0.930 . S
H152 C168 0.959 . S
H153 C168 0.959 . S
H154 C168 0.961 . S
H155 C169 0.960 . S
H156 C169 0.961 . S
H157 C169 0.959 . S
H158 C172 0.929 . S
H159 C173 0.931 . S
H160 C175 0.930 . S
C161 H149 0.930 . S
C161 C162 1.399 . S
C161 C166 1.399 . S
C162 C161 1.399 . S
C162 C163 1.376 . S
C163 H150 0.930 . S
C163 C162 1.376 . S
C163 C164 1.388 . S
C164 H151 0.930 . S
C164 C163 1.388 . S
C164 C165 1.390 . S
C165 C164 1.390 . S
C165 C166 1.394 . S
C165 C171 1.465 . S
C166 C161 1.399 . S
C166 C165 1.394 . S
C166 C167 1.516 . S
C167 C166 1.516 . S
C167 C168 1.502 . S
C167 C169 1.561 . S
C167 C170 1.526 . S
C168 H152 0.959 . S
C168 H153 0.959 . S
C168 H154 0.961 . S
C168 C167 1.502 . S
C169 H155 0.960 . S
C169 H156 0.961 . S
C169 H157 0.959 . S
C169 C167 1.561 . S
C170 C167 1.526 . S
C170 C171 1.396 . S
C170 C175 1.390 . S
C171 C165 1.465 . S
C171 C170 1.396 . S
C171 C172 1.399 . S
C172 H158 0.929 . S
C172 C171 1.399 . S
C172 C173 1.385 . S
C173 H159 0.931 . S
C173 C172 1.385 . S
C173 C174 1.389 . S
C174 C173 1.389 . S
C174 C175 1.387 . S
C175 H160 0.930 . S
C175 C170 1.390 . S
C175 C174 1.387 . S
H176 C188 0.930 . S
H177 C190 0.930 . S
H178 C191 0.930 . S
H179 C195 0.959 . S
H180 C195 0.959 . S
H181 C195 0.961 . S
H182 C196 0.960 . S
H183 C196 0.961 . S
H184 C196 0.959 . S
H185 C199 0.929 . S
H186 C200 0.931 . S
H187 C202 0.930 . S
C188 H176 0.930 . S
C188 C189 1.399 . S
C188 C193 1.399 . S
C189 C188 1.399 . S
C189 C190 1.376 . S
C190 H177 0.930 . S
C190 C189 1.376 . S
C190 C191 1.388 . S
C191 H178 0.930 . S
C191 C190 1.388 . S
C191 C192 1.390 . S
C192 C191 1.390 . S
C192 C193 1.394 . S
C192 C198 1.465 . S
C193 C188 1.399 . S
C193 C192 1.394 . S
C193 C194 1.516 . S
C194 C193 1.516 . S
C194 C195 1.502 . S
C194 C196 1.561 . S
C194 C197 1.526 . S
C195 H179 0.959 . S
C195 H180 0.959 . S
C195 H181 0.961 . S
C195 C194 1.502 . S
C196 H182 0.960 . S
C196 H183 0.961 . S
C196 H184 0.959 . S
C196 C194 1.561 . S
C197 C194 1.526 . S
C197 C198 1.396 . S
C197 C202 1.390 . S
C198 C192 1.465 . S
C198 C197 1.396 . S
C198 C199 1.399 . S
C199 H185 0.929 . S
C199 C198 1.399 . S
C199 C200 1.385 . S
C200 H186 0.931 . S
C200 C199 1.385 . S
C200 C201 1.389 . S
C201 C200 1.389 . S
C201 C202 1.387 . S
C202 H187 0.930 . S
C202 C197 1.390 . S
C202 C201 1.387 . S
H203 C215 0.930 . S
H204 C217 0.930 . S
H205 C218 0.930 . S
H206 C222 0.959 . S
H207 C222 0.959 . S
H208 C222 0.961 . S
H209 C223 0.960 . S
H210 C223 0.961 . S
H211 C223 0.959 . S
H212 C226 0.929 . S
H213 C227 0.931 . S
H214 C229 0.930 . S
C215 H203 0.930 . S
C215 C216 1.399 . S
C215 C220 1.399 . S
C216 C215 1.399 . S
C216 C217 1.376 . S
C217 H204 0.930 . S
C217 C216 1.376 . S
C217 C218 1.388 . S
C218 H205 0.930 . S
C218 C217 1.388 . S
C218 C219 1.390 . S
C219 C218 1.390 . S
C219 C220 1.394 . S
C219 C225 1.465 . S
C220 C215 1.399 . S
C220 C219 1.394 . S
C220 C221 1.516 . S
C221 C220 1.516 . S
C221 C222 1.502 . S
C221 C223 1.561 . S
C221 C224 1.526 . S
C222 H206 0.959 . S
C222 H207 0.959 . S
C222 H208 0.961 . S
C222 C221 1.502 . S
C223 H209 0.960 . S
C223 H210 0.961 . S
C223 H211 0.959 . S
C223 C221 1.561 . S
C224 C221 1.526 . S
C224 C225 1.396 . S
C224 C229 1.390 . S
C225 C219 1.465 . S
C225 C224 1.396 . S
C225 C226 1.399 . S
C226 H212 0.929 . S
C226 C225 1.399 . S
C226 C227 1.385 . S
C227 H213 0.931 . S
C227 C226 1.385 . S
C227 C228 1.389 . S
C228 C227 1.389 . S
C228 C229 1.387 . S
C229 H214 0.930 . S
C229 C224 1.390 . S
C229 C228 1.387 . S
H230 C242 0.930 . S
H231 C244 0.930 . S
H232 C245 0.930 . S
H233 C249 0.959 . S
H234 C249 0.959 . S
H235 C249 0.961 . S
H236 C250 0.960 . S
H237 C250 0.961 . S
H238 C250 0.959 . S
H239 C253 0.929 . S
H240 C254 0.931 . S
H241 C256 0.930 . S
C242 H230 0.930 . S
C242 C243 1.399 . S
C242 C247 1.399 . S
C243 C242 1.399 . S
C243 C244 1.376 . S
C244 H231 0.930 . S
C244 C243 1.376 . S
C244 C245 1.388 . S
C245 H232 0.930 . S
C245 C244 1.388 . S
C245 C246 1.390 . S
C246 C245 1.390 . S
C246 C247 1.394 . S
C246 C252 1.465 . S
C247 C242 1.399 . S
C247 C246 1.394 . S
C247 C248 1.516 . S
C248 C247 1.516 . S
C248 C249 1.502 . S
C248 C250 1.561 . S
C248 C251 1.526 . S
C249 H233 0.959 . S
C249 H234 0.959 . S
C249 H235 0.961 . S
C249 C248 1.502 . S
C250 H236 0.960 . S
C250 H237 0.961 . S
C250 H238 0.959 . S
C250 C248 1.561 . S
C251 C248 1.526 . S
C251 C252 1.396 . S
C251 C256 1.390 . S
C252 C246 1.465 . S
C252 C251 1.396 . S
C252 C253 1.399 . S
C253 H239 0.929 . S
C253 C252 1.399 . S
C253 C254 1.385 . S
C254 H240 0.931 . S
C254 C253 1.385 . S
C254 C255 1.389 . S
C255 C254 1.389 . S
C255 C256 1.387 . S
C256 H241 0.930 . S
C256 C251 1.390 . S
C256 C255 1.387 . S
H257 C269 0.930 . S
H258 C271 0.930 . S
H259 C272 0.930 . S
H260 C276 0.959 . S
H261 C276 0.959 . S
H262 C276 0.961 . S
H263 C277 0.960 . S
H264 C277 0.961 . S
H265 C277 0.959 . S
H266 C280 0.929 . S
H267 C281 0.931 . S
H268 C283 0.930 . S
C269 H257 0.930 . S
C269 C270 1.399 . S
C269 C274 1.399 . S
C270 C269 1.399 . S
C270 C271 1.376 . S
C271 H258 0.930 . S
C271 C270 1.376 . S
C271 C272 1.388 . S
C272 H259 0.930 . S
C272 C271 1.388 . S
C272 C273 1.390 . S
C273 C272 1.390 . S
C273 C274 1.394 . S
C273 C279 1.465 . S
C274 C269 1.399 . S
C274 C273 1.394 . S
C274 C275 1.516 . S
C275 C274 1.516 . S
C275 C276 1.502 . S
C275 C277 1.561 . S
C275 C278 1.526 . S
C276 H260 0.959 . S
C276 H261 0.959 . S
C276 H262 0.961 . S
C276 C275 1.502 . S
C277 H263 0.960 . S
C277 H264 0.961 . S
C277 H265 0.959 . S
C277 C275 1.561 . S
C278 C275 1.526 . S
C278 C279 1.396 . S
C278 C283 1.390 . S
C279 C273 1.465 . S
C279 C278 1.396 . S
C279 C280 1.399 . S
C280 H266 0.929 . S
C280 C279 1.399 . S
C280 C281 1.385 . S
C281 H267 0.931 . S
C281 C280 1.385 . S
C281 C282 1.389 . S
C282 C281 1.389 . S
C282 C283 1.387 . S
C283 H268 0.930 . S
C283 C278 1.390 . S
C283 C282 1.387 . S
H284 C296 0.930 1_545 S
H285 C298 0.930 . S
H286 C299 0.930 . S
H287 C303 0.959 . S
H288 C303 0.959 . S
H289 C303 0.961 . S
H290 C304 0.960 . S
H291 C304 0.961 . S
H292 C304 0.959 . S
H293 C307 0.929 . S
H294 C308 0.931 . S
H295 C310 0.930 . S
C296 H284 0.930 1_565 S
C296 C297 1.399 . S
C296 C301 1.399 . S
C297 C296 1.399 . S
C297 C298 1.376 . S
C298 H285 0.930 . S
C298 C297 1.376 . S
C298 C299 1.388 . S
C299 H286 0.930 . S
C299 C298 1.388 . S
C299 C300 1.390 . S
C300 C299 1.390 . S
C300 C301 1.394 . S
C300 C306 1.465 . S
C301 C296 1.399 . S
C301 C300 1.394 . S
C301 C302 1.516 . S
C302 C301 1.516 . S
C302 C303 1.502 . S
C302 C304 1.561 1_565 S
C302 C305 1.526 . S
C303 H287 0.959 . S
C303 H288 0.959 . S
C303 H289 0.961 . S
C303 C302 1.502 . S
C304 H290 0.960 . S
C304 H291 0.961 . S
C304 H292 0.959 . S
C304 C302 1.561 1_545 S
C305 C302 1.526 . S
C305 C306 1.396 . S
C305 C310 1.390 . S
C306 C300 1.465 . S
C306 C305 1.396 . S
C306 C307 1.399 . S
C307 H293 0.929 . S
C307 C306 1.399 . S
C307 C308 1.385 . S
C308 H294 0.931 . S
C308 C307 1.385 . S
C308 C309 1.389 . S
C309 C308 1.389 . S
C309 C310 1.387 . S
C310 H295 0.930 . S
C310 C305 1.390 . S
C310 C309 1.387 . S
H311 C323 0.930 . S
H312 C325 0.930 . S
H313 C326 0.930 . S
H314 C330 0.959 . S
H315 C330 0.959 . S
H316 C330 0.961 . S
H317 C331 0.960 . S
H318 C331 0.961 . S
H319 C331 0.959 . S
H320 C334 0.929 . S
H321 C335 0.931 . S
H322 C337 0.930 . S
C323 H311 0.930 . S
C323 C324 1.399 . S
C323 C328 1.399 . S
C324 C323 1.399 . S
C324 C325 1.376 . S
C325 H312 0.930 . S
C325 C324 1.376 . S
C325 C326 1.388 . S
C326 H313 0.930 . S
C326 C325 1.388 . S
C326 C327 1.390 . S
C327 C326 1.390 . S
C327 C328 1.394 . S
C327 C333 1.465 . S
C328 C323 1.399 . S
C328 C327 1.394 . S
C328 C329 1.516 . S
C329 C328 1.516 . S
C329 C330 1.502 . S
C329 C331 1.561 . S
C329 C332 1.526 . S
C330 H314 0.959 . S
C330 H315 0.959 . S
C330 H316 0.961 . S
C330 C329 1.502 . S
C331 H317 0.960 . S
C331 H318 0.961 . S
C331 H319 0.959 . S
C331 C329 1.561 . S
C332 C329 1.526 . S
C332 C333 1.396 . S
C332 C337 1.390 . S
C333 C327 1.465 . S
C333 C332 1.396 . S
C333 C334 1.399 . S
C334 H320 0.929 . S
C334 C333 1.399 . S
C334 C335 1.385 . S
C335 H321 0.931 . S
C335 C334 1.385 . S
C335 C336 1.389 . S
C336 C335 1.389 . S
C336 C337 1.387 . S
C337 H322 0.930 . S
C337 C332 1.390 . S
C337 C336 1.387 . S
H338 C350 0.930 . S
H339 C352 0.930 . S
H340 C353 0.930 . S
H341 C357 0.959 . S
H342 C357 0.959 . S
H343 C357 0.961 . S
H344 C358 0.960 . S
H345 C358 0.961 . S
H346 C358 0.959 . S
H347 C361 0.929 . S
H348 C362 0.931 . S
H349 C364 0.930 . S
C350 H338 0.930 . S
C350 C351 1.399 . S
C350 C355 1.399 . S
C351 C350 1.399 . S
C351 C352 1.376 . S
C352 H339 0.930 . S
C352 C351 1.376 . S
C352 C353 1.388 . S
C353 H340 0.930 . S
C353 C352 1.388 . S
C353 C354 1.390 . S
C354 C353 1.390 . S
C354 C355 1.394 . S
C354 C360 1.465 . S
C355 C350 1.399 . S
C355 C354 1.394 . S
C355 C356 1.516 . S
C356 C355 1.516 . S
C356 C357 1.502 . S
C356 C358 1.561 . S
C356 C359 1.526 . S
C357 H341 0.959 . S
C357 H342 0.959 . S
C357 H343 0.961 . S
C357 C356 1.502 . S
C358 H344 0.960 . S
C358 H345 0.961 . S
C358 H346 0.959 . S
C358 C356 1.561 . S
C359 C356 1.526 . S
C359 C360 1.396 . S
C359 C364 1.390 . S
C360 C354 1.465 . S
C360 C359 1.396 . S
C360 C361 1.399 . S
C361 H347 0.929 . S
C361 C360 1.399 . S
C361 C362 1.385 . S
C362 H348 0.931 . S
C362 C361 1.385 . S
C362 C363 1.389 . S
C363 C362 1.389 . S
C363 C364 1.387 . S
C364 H349 0.930 . S
C364 C359 1.390 . S
C364 C363 1.387 . S
H365 C377 0.930 . S
H366 C379 0.930 . S
H367 C380 0.930 . S
H368 C384 0.959 . S
H369 C384 0.959 . S
H370 C384 0.961 . S
H371 C385 0.960 . S
H372 C385 0.961 . S
H373 C385 0.959 . S
H374 C388 0.929 . S
H375 C389 0.931 . S
H376 C391 0.930 . S
C377 H365 0.930 . S
C377 C378 1.399 . S
C377 C382 1.399 . S
C378 C377 1.399 . S
C378 C379 1.376 . S
C379 H366 0.930 . S
C379 C378 1.376 . S
C379 C380 1.388 . S
C380 H367 0.930 . S
C380 C379 1.388 . S
C380 C381 1.390 . S
C381 C380 1.390 . S
C381 C382 1.394 . S
C381 C387 1.465 . S
C382 C377 1.399 . S
C382 C381 1.394 . S
C382 C383 1.516 . S
C383 C382 1.516 . S
C383 C384 1.502 . S
C383 C385 1.561 . S
C383 C386 1.526 . S
C384 H368 0.959 . S
C384 H369 0.959 . S
C384 H370 0.961 . S
C384 C383 1.502 . S
C385 H371 0.960 . S
C385 H372 0.961 . S
C385 H373 0.959 . S
C385 C383 1.561 . S
C386 C383 1.526 . S
C386 C387 1.396 . S
C386 C391 1.390 . S
C387 C381 1.465 . S
C387 C386 1.396 . S
C387 C388 1.399 . S
C388 H374 0.929 . S
C388 C387 1.399 . S
C388 C389 1.385 . S
C389 H375 0.931 . S
C389 C388 1.385 . S
C389 C390 1.389 . S
C390 C389 1.389 . S
C390 C391 1.387 . S
C391 H376 0.930 . S
C391 C386 1.390 . S
C391 C390 1.387 . S
H392 C404 0.930 . S
H393 C406 0.930 . S
H394 C407 0.930 . S
H395 C411 0.959 . S
H396 C411 0.959 . S
H397 C411 0.961 . S
H398 C412 0.960 . S
H399 C412 0.961 . S
H400 C412 0.959 . S
H401 C415 0.929 . S
H402 C416 0.931 . S
H403 C418 0.930 . S
C404 H392 0.930 . S
C404 C405 1.399 . S
C404 C409 1.399 . S
C405 C404 1.399 . S
C405 C406 1.376 . S
C406 H393 0.930 . S
C406 C405 1.376 . S
C406 C407 1.388 . S
C407 H394 0.930 . S
C407 C406 1.388 . S
C407 C408 1.390 . S
C408 C407 1.390 . S
C408 C409 1.394 . S
C408 C414 1.465 . S
C409 C404 1.399 . S
C409 C408 1.394 . S
C409 C410 1.516 . S
C410 C409 1.516 . S
C410 C411 1.502 . S
C410 C412 1.561 . S
C410 C413 1.526 . S
C411 H395 0.959 . S
C411 H396 0.959 . S
C411 H397 0.961 . S
C411 C410 1.502 . S
C412 H398 0.960 . S
C412 H399 0.961 . S
C412 H400 0.959 . S
C412 C410 1.561 . S
C413 C410 1.526 . S
C413 C414 1.396 . S
C413 C418 1.390 . S
C414 C408 1.465 . S
C414 C413 1.396 . S
C414 C415 1.399 . S
C415 H401 0.929 . S
C415 C414 1.399 . S
C415 C416 1.385 . S
C416 H402 0.931 . S
C416 C415 1.385 . S
C416 C417 1.389 . S
C417 C416 1.389 . S
C417 C418 1.387 . S
C418 H403 0.930 . S
C418 C413 1.390 . S
C418 C417 1.387 . S
H419 C431 0.930 . S
H420 C433 0.930 . S
H421 C434 0.930 . S
H422 C438 0.959 . S
H423 C438 0.959 . S
H424 C438 0.961 . S
H425 C439 0.960 . S
H426 C439 0.961 . S
H427 C439 0.959 . S
H428 C442 0.929 . S
H429 C443 0.931 . S
H430 C445 0.930 . S
C431 H419 0.930 . S
C431 C432 1.399 . S
C431 C436 1.399 . S
C432 C431 1.399 . S
C432 C433 1.376 . S
C433 H420 0.930 . S
C433 C432 1.376 . S
C433 C434 1.388 . S
C434 H421 0.930 . S
C434 C433 1.388 . S
C434 C435 1.390 . S
C435 C434 1.390 . S
C435 C436 1.394 . S
C435 C441 1.465 . S
C436 C431 1.399 . S
C436 C435 1.394 . S
C436 C437 1.516 . S
C437 C436 1.516 . S
C437 C438 1.502 . S
C437 C439 1.561 . S
C437 C440 1.526 . S
C438 H422 0.959 . S
C438 H423 0.959 . S
C438 H424 0.961 . S
C438 C437 1.502 . S
C439 H425 0.960 . S
C439 H426 0.961 . S
C439 H427 0.959 . S
C439 C437 1.561 . S
C440 C437 1.526 . S
C440 C441 1.396 . S
C440 C445 1.390 . S
C441 C435 1.465 . S
C441 C440 1.396 . S
C441 C442 1.399 . S
C442 H428 0.929 . S
C442 C441 1.399 . S
C442 C443 1.385 . S
C443 H429 0.931 . S
C443 C442 1.385 . S
C443 C444 1.389 . S
C444 C443 1.389 . S
C444 C445 1.387 . S
C445 H430 0.930 . S
C445 C440 1.390 . S
C445 C444 1.387 . S
C135 C12 1.612 . S
C147 C99 1.541 . S
C162 C69 1.046 . S
C174 C105 0.839 . S
C189 C8 1.010 . S
C201 C96 1.104 . S
C216 C71 1.925 . S
C228 C121 1.768 . S
C243 C17 2.332 . S
C255 C87 2.283 . S
C282 C104 2.091 . S
C270 C42 2.097 . S
C297 C52 1.619 . S
C309 C100 1.444 . S
C336 C117 2.071 . S
C324 C2 2.092 . S
C363 C84 2.268 . S
C351 C57 2.311 . S
C390 C120 1.802 . S
C378 C31 1.878 . S
C417 C83 1.050 . S
C405 C48 1.021 . S
C444 C108 1.014 . S
C432 C29 0.916 . S
