# Generated by pormake.
# Topology gar, (4,6)-cn, num edge types: 1
# Building blocks:
#     Node 0, Type 0, BuildingBlock: GALJAG_clean_sbu_0, # of connection points: 4
#     Node 1, Type 0, BuildingBlock: GALJAG_clean_sbu_0, # of connection points: 4
#     Node 2, Type 0, BuildingBlock: GALJAG_clean_sbu_0, # of connection points: 4
#     Node 3, Type 0, BuildingBlock: GALJAG_clean_sbu_0, # of connection points: 4
#     Node 4, Type 0, BuildingBlock: GALJAG_clean_sbu_0, # of connection points: 4
#     Node 5, Type 0, BuildingBlock: GALJAG_clean_sbu_0, # of connection points: 4
#     Node 6, Type 0, BuildingBlock: GALJAG_clean_sbu_0, # of connection points: 4
#     Node 7, Type 0, BuildingBlock: GALJAG_clean_sbu_0, # of connection points: 4
#     Node 8, Type 0, BuildingBlock: GALJAG_clean_sbu_0, # of connection points: 4
#     Node 9, Type 0, BuildingBlock: GALJAG_clean_sbu_0, # of connection points: 4
#     Node 10, Type 0, BuildingBlock: GALJAG_clean_sbu_0, # of connection points: 4
#     Node 11, Type 0, BuildingBlock: GALJAG_clean_sbu_0, # of connection points: 4
#     Node 12, Type 0, BuildingBlock: GALJAG_clean_sbu_0, # of connection points: 4
#     Node 13, Type 0, BuildingBlock: GALJAG_clean_sbu_0, # of connection points: 4
#     Node 14, Type 0, BuildingBlock: GALJAG_clean_sbu_0, # of connection points: 4
#     Node 15, Type 0, BuildingBlock: GALJAG_clean_sbu_0, # of connection points: 4
#     Node 16, Type 0, BuildingBlock: GALJAG_clean_sbu_0, # of connection points: 4
#     Node 17, Type 0, BuildingBlock: GALJAG_clean_sbu_0, # of connection points: 4
#     Node 18, Type 0, BuildingBlock: GALJAG_clean_sbu_0, # of connection points: 4
#     Node 19, Type 0, BuildingBlock: GALJAG_clean_sbu_0, # of connection points: 4
#     Node 20, Type 0, BuildingBlock: GALJAG_clean_sbu_0, # of connection points: 4
#     Node 21, Type 0, BuildingBlock: GALJAG_clean_sbu_0, # of connection points: 4
#     Node 22, Type 0, BuildingBlock: GALJAG_clean_sbu_0, # of connection points: 4
#     Node 23, Type 0, BuildingBlock: GALJAG_clean_sbu_0, # of connection points: 4
#     Node 24, Type 1, BuildingBlock: BETDEL_clean_sbu_0, # of connection points: 6
#     Node 25, Type 1, BuildingBlock: BETDEL_clean_sbu_0, # of connection points: 6
#     Node 26, Type 1, BuildingBlock: BETDEL_clean_sbu_0, # of connection points: 6
#     Node 27, Type 1, BuildingBlock: BETDEL_clean_sbu_0, # of connection points: 6
#     Node 28, Type 1, BuildingBlock: BETDEL_clean_sbu_0, # of connection points: 6
#     Node 29, Type 1, BuildingBlock: BETDEL_clean_sbu_0, # of connection points: 6
#     Node 30, Type 1, BuildingBlock: BETDEL_clean_sbu_0, # of connection points: 6
#     Node 31, Type 1, BuildingBlock: BETDEL_clean_sbu_0, # of connection points: 6
#     Node 32, Type 1, BuildingBlock: BETDEL_clean_sbu_0, # of connection points: 6
#     Node 33, Type 1, BuildingBlock: BETDEL_clean_sbu_0, # of connection points: 6
#     Node 34, Type 1, BuildingBlock: BETDEL_clean_sbu_0, # of connection points: 6
#     Node 35, Type 1, BuildingBlock: BETDEL_clean_sbu_0, # of connection points: 6
#     Node 36, Type 1, BuildingBlock: BETDEL_clean_sbu_0, # of connection points: 6
#     Node 37, Type 1, BuildingBlock: BETDEL_clean_sbu_0, # of connection points: 6
#     Node 38, Type 1, BuildingBlock: BETDEL_clean_sbu_0, # of connection points: 6
#     Node 39, Type 1, BuildingBlock: BETDEL_clean_sbu_0, # of connection points: 6
#     Edge 40, Type (0, 1), BuildingBlock: XIVTED_clean_linker_0, # of connection points: 2
#     Edge 41, Type (0, 1), BuildingBlock: XIVTED_clean_linker_0, # of connection points: 2
#     Edge 42, Type (0, 1), BuildingBlock: XIVTED_clean_linker_0, # of connection points: 2
#     Edge 43, Type (0, 1), BuildingBlock: XIVTED_clean_linker_0, # of connection points: 2
#     Edge 44, Type (0, 1), BuildingBlock: XIVTED_clean_linker_0, # of connection points: 2
#     Edge 45, Type (0, 1), BuildingBlock: XIVTED_clean_linker_0, # of connection points: 2
#     Edge 46, Type (0, 1), BuildingBlock: XIVTED_clean_linker_0, # of connection points: 2
#     Edge 47, Type (0, 1), BuildingBlock: XIVTED_clean_linker_0, # of connection points: 2
#     Edge 48, Type (0, 1), BuildingBlock: XIVTED_clean_linker_0, # of connection points: 2
#     Edge 49, Type (0, 1), BuildingBlock: XIVTED_clean_linker_0, # of connection points: 2
#     Edge 50, Type (0, 1), BuildingBlock: XIVTED_clean_linker_0, # of connection points: 2
#     Edge 51, Type (0, 1), BuildingBlock: XIVTED_clean_linker_0, # of connection points: 2
#     Edge 52, Type (0, 1), BuildingBlock: XIVTED_clean_linker_0, # of connection points: 2
#     Edge 53, Type (0, 1), BuildingBlock: XIVTED_clean_linker_0, # of connection points: 2
#     Edge 54, Type (0, 1), BuildingBlock: XIVTED_clean_linker_0, # of connection points: 2
#     Edge 55, Type (0, 1), BuildingBlock: XIVTED_clean_linker_0, # of connection points: 2
#     Edge 56, Type (0, 1), BuildingBlock: XIVTED_clean_linker_0, # of connection points: 2
#     Edge 57, Type (0, 1), BuildingBlock: XIVTED_clean_linker_0, # of connection points: 2
#     Edge 58, Type (0, 1), BuildingBlock: XIVTED_clean_linker_0, # of connection points: 2
#     Edge 59, Type (0, 1), BuildingBlock: XIVTED_clean_linker_0, # of connection points: 2
#     Edge 60, Type (0, 1), BuildingBlock: XIVTED_clean_linker_0, # of connection points: 2
#     Edge 61, Type (0, 1), BuildingBlock: XIVTED_clean_linker_0, # of connection points: 2
#     Edge 62, Type (0, 1), BuildingBlock: XIVTED_clean_linker_0, # of connection points: 2
#     Edge 63, Type (0, 1), BuildingBlock: XIVTED_clean_linker_0, # of connection points: 2
#     Edge 64, Type (0, 1), BuildingBlock: XIVTED_clean_linker_0, # of connection points: 2
#     Edge 65, Type (0, 1), BuildingBlock: XIVTED_clean_linker_0, # of connection points: 2
#     Edge 66, Type (0, 1), BuildingBlock: XIVTED_clean_linker_0, # of connection points: 2
#     Edge 67, Type (0, 1), BuildingBlock: XIVTED_clean_linker_0, # of connection points: 2
#     Edge 68, Type (0, 1), BuildingBlock: XIVTED_clean_linker_0, # of connection points: 2
#     Edge 69, Type (0, 1), BuildingBlock: XIVTED_clean_linker_0, # of connection points: 2
#     Edge 70, Type (0, 1), BuildingBlock: XIVTED_clean_linker_0, # of connection points: 2
#     Edge 71, Type (0, 1), BuildingBlock: XIVTED_clean_linker_0, # of connection points: 2
#     Edge 72, Type (0, 1), BuildingBlock: XIVTED_clean_linker_0, # of connection points: 2
#     Edge 73, Type (0, 1), BuildingBlock: XIVTED_clean_linker_0, # of connection points: 2
#     Edge 74, Type (0, 1), BuildingBlock: XIVTED_clean_linker_0, # of connection points: 2
#     Edge 75, Type (0, 1), BuildingBlock: XIVTED_clean_linker_0, # of connection points: 2
#     Edge 76, Type (0, 1), BuildingBlock: XIVTED_clean_linker_0, # of connection points: 2
#     Edge 77, Type (0, 1), BuildingBlock: XIVTED_clean_linker_0, # of connection points: 2
#     Edge 78, Type (0, 1), BuildingBlock: XIVTED_clean_linker_0, # of connection points: 2
#     Edge 79, Type (0, 1), BuildingBlock: XIVTED_clean_linker_0, # of connection points: 2
#     Edge 80, Type (0, 1), BuildingBlock: XIVTED_clean_linker_0, # of connection points: 2
#     Edge 81, Type (0, 1), BuildingBlock: XIVTED_clean_linker_0, # of connection points: 2
#     Edge 82, Type (0, 1), BuildingBlock: XIVTED_clean_linker_0, # of connection points: 2
#     Edge 83, Type (0, 1), BuildingBlock: XIVTED_clean_linker_0, # of connection points: 2
#     Edge 84, Type (0, 1), BuildingBlock: XIVTED_clean_linker_0, # of connection points: 2
#     Edge 85, Type (0, 1), BuildingBlock: XIVTED_clean_linker_0, # of connection points: 2
#     Edge 86, Type (0, 1), BuildingBlock: XIVTED_clean_linker_0, # of connection points: 2
#     Edge 87, Type (0, 1), BuildingBlock: XIVTED_clean_linker_0, # of connection points: 2
#     Edge 88, Type (0, 1), BuildingBlock: XIVTED_clean_linker_0, # of connection points: 2
#     Edge 89, Type (0, 1), BuildingBlock: XIVTED_clean_linker_0, # of connection points: 2
#     Edge 90, Type (0, 1), BuildingBlock: XIVTED_clean_linker_0, # of connection points: 2
#     Edge 91, Type (0, 1), BuildingBlock: XIVTED_clean_linker_0, # of connection points: 2
#     Edge 92, Type (0, 1), BuildingBlock: XIVTED_clean_linker_0, # of connection points: 2
#     Edge 93, Type (0, 1), BuildingBlock: XIVTED_clean_linker_0, # of connection points: 2
#     Edge 94, Type (0, 1), BuildingBlock: XIVTED_clean_linker_0, # of connection points: 2
#     Edge 95, Type (0, 1), BuildingBlock: XIVTED_clean_linker_0, # of connection points: 2
#     Edge 96, Type (0, 1), BuildingBlock: XIVTED_clean_linker_0, # of connection points: 2
#     Edge 97, Type (0, 1), BuildingBlock: XIVTED_clean_linker_0, # of connection points: 2
#     Edge 98, Type (0, 1), BuildingBlock: XIVTED_clean_linker_0, # of connection points: 2
#     Edge 99, Type (0, 1), BuildingBlock: XIVTED_clean_linker_0, # of connection points: 2
#     Edge 100, Type (0, 1), BuildingBlock: XIVTED_clean_linker_0, # of connection points: 2
#     Edge 101, Type (0, 1), BuildingBlock: XIVTED_clean_linker_0, # of connection points: 2
#     Edge 102, Type (0, 1), BuildingBlock: XIVTED_clean_linker_0, # of connection points: 2
#     Edge 103, Type (0, 1), BuildingBlock: XIVTED_clean_linker_0, # of connection points: 2
#     Edge 104, Type (0, 1), BuildingBlock: XIVTED_clean_linker_0, # of connection points: 2
#     Edge 105, Type (0, 1), BuildingBlock: XIVTED_clean_linker_0, # of connection points: 2
#     Edge 106, Type (0, 1), BuildingBlock: XIVTED_clean_linker_0, # of connection points: 2
#     Edge 107, Type (0, 1), BuildingBlock: XIVTED_clean_linker_0, # of connection points: 2
#     Edge 108, Type (0, 1), BuildingBlock: XIVTED_clean_linker_0, # of connection points: 2
#     Edge 109, Type (0, 1), BuildingBlock: XIVTED_clean_linker_0, # of connection points: 2
#     Edge 110, Type (0, 1), BuildingBlock: XIVTED_clean_linker_0, # of connection points: 2
#     Edge 111, Type (0, 1), BuildingBlock: XIVTED_clean_linker_0, # of connection points: 2
#     Edge 112, Type (0, 1), BuildingBlock: XIVTED_clean_linker_0, # of connection points: 2
#     Edge 113, Type (0, 1), BuildingBlock: XIVTED_clean_linker_0, # of connection points: 2
#     Edge 114, Type (0, 1), BuildingBlock: XIVTED_clean_linker_0, # of connection points: 2
#     Edge 115, Type (0, 1), BuildingBlock: XIVTED_clean_linker_0, # of connection points: 2
#     Edge 116, Type (0, 1), BuildingBlock: XIVTED_clean_linker_0, # of connection points: 2
#     Edge 117, Type (0, 1), BuildingBlock: XIVTED_clean_linker_0, # of connection points: 2
#     Edge 118, Type (0, 1), BuildingBlock: XIVTED_clean_linker_0, # of connection points: 2
#     Edge 119, Type (0, 1), BuildingBlock: XIVTED_clean_linker_0, # of connection points: 2
#     Edge 120, Type (0, 1), BuildingBlock: XIVTED_clean_linker_0, # of connection points: 2
#     Edge 121, Type (0, 1), BuildingBlock: XIVTED_clean_linker_0, # of connection points: 2
#     Edge 122, Type (0, 1), BuildingBlock: XIVTED_clean_linker_0, # of connection points: 2
#     Edge 123, Type (0, 1), BuildingBlock: XIVTED_clean_linker_0, # of connection points: 2
#     Edge 124, Type (0, 1), BuildingBlock: XIVTED_clean_linker_0, # of connection points: 2
#     Edge 125, Type (0, 1), BuildingBlock: XIVTED_clean_linker_0, # of connection points: 2
#     Edge 126, Type (0, 1), BuildingBlock: XIVTED_clean_linker_0, # of connection points: 2
#     Edge 127, Type (0, 1), BuildingBlock: XIVTED_clean_linker_0, # of connection points: 2
#     Edge 128, Type (0, 1), BuildingBlock: XIVTED_clean_linker_0, # of connection points: 2
#     Edge 129, Type (0, 1), BuildingBlock: XIVTED_clean_linker_0, # of connection points: 2
#     Edge 130, Type (0, 1), BuildingBlock: XIVTED_clean_linker_0, # of connection points: 2
#     Edge 131, Type (0, 1), BuildingBlock: XIVTED_clean_linker_0, # of connection points: 2
#     Edge 132, Type (0, 1), BuildingBlock: XIVTED_clean_linker_0, # of connection points: 2
#     Edge 133, Type (0, 1), BuildingBlock: XIVTED_clean_linker_0, # of connection points: 2
#     Edge 134, Type (0, 1), BuildingBlock: XIVTED_clean_linker_0, # of connection points: 2
#     Edge 135, Type (0, 1), BuildingBlock: XIVTED_clean_linker_0, # of connection points: 2
# Relax obj value: 0.162
# Max RMSD: 0.265
# Mean RMSD: 0.166
data_MOF--net-gar--node1-GALJAG_clean_sbu_0--node2-BETDEL_clean_sbu_0--edge1-XIVTED_clean_linker_0
_symmetry_space_group_name_H-M    P1
_symmetry_Int_Tables_number       1
_symmetry_cell_setting            triclinic
loop_
_symmetry_equiv_pos_as_xyz
'x, y, z'
_cell_length_a     56.385403
_cell_length_b     53.657804
_cell_length_c     54.964121
_cell_angle_alpha  95.267849
_cell_angle_beta   92.476087
_cell_angle_gamma 100.30194
loop_
_atom_site_label
_atom_site_type_symbol
_atom_site_fract_x
_atom_site_fract_y
_atom_site_fract_z
_atom_type_partial_charge
In0 In 0.03561 0.26986 0.39437 0.0
O1 O 0.05161 0.25196 0.3607 0.0
O2 O 0.07411 0.28172 0.38345 0.0
C3 C 0.99233 0.27647 0.37585 0.0
C4 C 0.0305 0.22784 0.41865 0.0
C5 C 0.04437 0.3154 0.4211 0.0
O6 O 0.01037 0.27672 0.36299 0.0
O7 O 0.99583 0.27162 0.39759 0.0
O8 O 0.04409 0.2949 0.43079 0.0
O9 O 0.04108 0.31281 0.39811 0.0
C10 C 0.07202 0.26624 0.3645 0.0
O11 O 0.04556 0.24781 0.4258 0.0
O12 O 0.01838 0.22892 0.39905 0.0
In13 In -0.00145 0.76538 0.62909 0.0
O14 O 0.98775 0.78893 0.59925 0.0
O15 O 0.01696 0.80598 0.62455 0.0
C16 C 0.98993 0.72096 0.60044 0.0
C17 C 0.0411 0.75829 0.649 0.0
C18 C 0.96198 0.76753 0.659 0.0
O19 O 0.99061 0.74201 0.59167 0.0
O20 O 0.99293 0.72248 0.62341 0.0
O21 O 0.96053 0.75168 0.6404 0.0
O22 O 0.98175 0.78302 0.66233 0.0
C23 C 0.00386 0.80817 0.60595 0.0
O24 O 0.0228 0.75879 0.66134 0.0
O25 O 0.03824 0.76255 0.62698 0.0
In26 In 0.53358 0.76483 0.89283 0.0
O27 O 0.55186 0.7442 0.8625 0.0
O28 O 0.56908 0.78122 0.87727 0.0
C29 C 0.4901 0.76675 0.87145 0.0
C30 C 0.53035 0.72476 0.91964 0.0
C31 C 0.5406 0.81032 0.91963 0.0
O32 O 0.50808 0.76407 0.8592 0.0
O33 O 0.49386 0.76747 0.8943 0.0
O34 O 0.54302 0.79021 0.92898 0.0
O35 O 0.53543 0.80744 0.8969 0.0
C36 C 0.5695 0.76227 0.86211 0.0
O37 O 0.54822 0.74289 0.92222 0.0
O38 O 0.51449 0.72675 0.90342 0.0
In39 In 0.50023 0.26356 0.12816 0.0
O40 O 0.49461 0.23949 0.09111 0.0
O41 O 0.49324 0.22047 0.12345 0.0
C42 C 0.50386 0.30495 0.10301 0.0
C43 C 0.46388 0.26625 0.15835 0.0
C44 C 0.54314 0.25986 0.15004 0.0
O45 O 0.48591 0.28694 0.09979 0.0
O46 O 0.51959 0.30217 0.11904 0.0
O47 O 0.52512 0.26297 0.16203 0.0
O48 O 0.53966 0.25924 0.12718 0.0
C49 C 0.49216 0.21857 0.10038 0.0
O50 O 0.48282 0.28301 0.15993 0.0
O51 O 0.46318 0.2486 0.14143 0.0
In52 In 0.03985 0.79807 0.15545 0.0
O53 O 0.02749 0.76794 0.1232 0.0
O54 O 0.04793 0.75769 0.15273 0.0
C55 C 0.03597 0.83054 0.12148 0.0
C56 C 0.00434 0.79915 0.18666 0.0
C57 C 0.08324 0.81087 0.1802 0.0
O58 O 0.05564 0.83028 0.13321 0.0
O59 O 0.01827 0.81465 0.12707 0.0
O60 O 0.0639 0.81333 0.19013 0.0
O61 O 0.08062 0.80276 0.1578 0.0
C62 C 0.03735 0.75112 0.13187 0.0
O63 O 0.01114 0.77881 0.17906 0.0
O64 O 0.01571 0.81897 0.17884 0.0
In65 In 0.50266 0.75527 0.38029 0.0
O66 O 0.52621 0.73582 0.3547 0.0
O67 O 0.53198 0.7762 0.35824 0.0
C68 C 0.45874 0.74442 0.3563 0.0
C69 C 0.50684 0.72033 0.41179 0.0
C70 C 0.50471 0.80101 0.40619 0.0
O71 O 0.46192 0.75149 0.37891 0.0
O72 O 0.47776 0.74203 0.34572 0.0
O73 O 0.51392 0.78347 0.41432 0.0
O74 O 0.4951 0.79578 0.38478 0.0
C75 C 0.53813 0.75626 0.34861 0.0
O76 O 0.52415 0.73768 0.40805 0.0
O77 O 0.48745 0.72045 0.39951 0.0
In78 In 0.53575 0.29088 0.65098 0.0
O79 O 0.52313 0.26175 0.61785 0.0
O80 O 0.54435 0.2508 0.64638 0.0
C81 C 0.53487 0.32554 0.61851 0.0
C82 C 0.49899 0.29049 0.68101 0.0
C83 C 0.57827 0.30228 0.67747 0.0
O84 O 0.55338 0.32492 0.63198 0.0
O85 O 0.51677 0.30883 0.62154 0.0
O86 O 0.55864 0.30503 0.68665 0.0
O87 O 0.57637 0.29443 0.655 0.0
C88 C 0.5334 0.24477 0.62564 0.0
O89 O 0.50993 0.31059 0.67334 0.0
O90 O 0.50677 0.27063 0.67381 0.0
In91 In -0.00103 0.25962 0.88387 0.0
O92 O 0.99178 0.23948 0.91842 0.0
O93 O 0.00345 0.21892 0.88769 0.0
C94 C 0.00557 0.30734 0.90667 0.0
C95 C 0.0391 0.26148 0.8586 0.0
C96 C 0.95435 0.24914 0.86143 0.0
O97 O 0.01247 0.28922 0.91627 0.0
O98 O 0.9959 0.30159 0.88532 0.0
O99 O 0.97288 0.24608 0.85027 0.0
O100 O 0.95835 0.25683 0.88384 0.0
C101 C -0.00227 0.2191 0.90962 0.0
O102 O 0.01921 0.26425 0.84875 0.0
O103 O 0.03878 0.25863 0.88109 0.0
In104 In 0.41227 0.04969 0.28672 0.0
O105 O 0.43918 0.06899 0.26139 0.0
O106 O 0.43844 0.02985 0.26583 0.0
C107 C 0.43366 0.0656 0.33154 0.0
C108 C 0.37836 0.07748 0.277 0.0
C109 C 0.38716 0.00168 0.28258 0.0
O110 O 0.44355 0.07211 0.31236 0.0
O111 O 0.41295 0.05196 0.32796 0.0
O112 O 0.40408 0.00965 0.29869 0.0
O113 O 0.38324 0.01773 0.26828 0.0
C114 C 0.44748 0.04906 0.25548 0.0
O115 O 0.39045 0.06876 0.26061 0.0
O116 O 0.38422 0.0733 0.29842 0.0
In117 In 0.26903 0.14867 0.49724 0.0
O118 O 0.27845 0.18537 0.52404 0.0
O119 O 0.25644 0.15285 0.53582 0.0
C120 C 0.27387 0.17527 0.45721 0.0
C121 C 0.30507 0.12124 0.50067 0.0
C122 C 0.22426 0.12012 0.49359 0.0
O123 O 0.28781 0.1815 0.47624 0.0
O124 O 0.25766 0.15611 0.45861 0.0
O125 O 0.24301 0.11026 0.49275 0.0
O126 O 0.2282 0.14417 0.49572 0.0
C127 C 0.2667 0.17568 0.54103 0.0
O128 O 0.29173 0.11999 0.48145 0.0
O129 O 0.3004 0.13636 0.5179 0.0
In130 In 0.14828 0.00326 0.78433 0.0
O131 O 0.11502 0.00659 0.76051 0.0
O132 O 0.14813 0.00688 0.74333 0.0
C133 C 0.12368 0.99609 0.82518 0.0
C134 C 0.17119 0.96304 0.77817 0.0
C135 C 0.17314 0.05144 0.78993 0.0
O136 O 0.14434 0.00972 0.82541 0.0
O137 O 0.11545 0.98551 0.80434 0.0
O138 O 0.18352 0.03241 0.78936 0.0
O139 O 0.1504 0.04611 0.78817 0.0
C140 C 0.12611 0.00853 0.7411 0.0
O141 O 0.18075 0.98384 0.79017 0.0
O142 O 0.15 0.96242 0.76947 0.0
In143 In 0.25003 0.88972 0.00601 0.0
O144 O 0.22774 0.86508 0.03167 0.0
O145 O 0.26522 0.8641 0.03067 0.0
C146 C 0.2462 0.85732 0.9652 0.0
C147 C 0.22043 0.92377 0.00976 0.0
C148 C 0.2913 0.92384 0.00837 0.0
O149 O 0.26603 0.86609 0.97702 0.0
O150 O 0.22805 0.86469 0.97411 0.0
O151 O 0.28299 0.91412 0.02699 0.0
O152 O 0.27878 0.91634 0.98866 0.0
C153 C 0.24545 0.85616 0.0397 0.0
O154 O 0.23105 0.91731 0.02818 0.0
O155 O 0.22415 0.91245 0.98952 0.0
In156 In 0.26645 0.39202 0.03085 0.0
O157 O 0.25017 0.35607 0.04894 0.0
O158 O 0.27189 0.38686 0.07116 0.0
C159 C 0.26609 0.36101 0.98877 0.0
C160 C 0.23354 0.42352 0.03043 0.0
C161 C 0.31154 0.42025 0.03516 0.0
O162 O 0.24696 0.36359 -0.00092 0.0
O163 O 0.2851 0.3733 4e-05 0.0
O164 O 0.2939 0.42802 0.02537 0.0
O165 O 0.30628 0.39867 0.04289 0.0
C166 C 0.2595 0.36474 0.07003 0.0
O167 O 0.24047 0.41502 0.04958 0.0
O168 O 0.2432 0.41626 0.01145 0.0
In169 In 0.77793 0.13738 0.02743 0.0
O170 O 0.80011 0.1144 0.00375 0.0
O171 O 0.80252 0.11234 0.04222 0.0
C172 C 0.73725 0.10237 0.02387 0.0
C173 C 0.78316 0.16876 0.06902 0.0
C174 C 0.77944 0.17299 0.99593 0.0
O175 O 0.74632 0.11178 0.00543 0.0
O176 O 0.74879 0.11055 0.04402 0.0
O177 O 0.7982 0.16549 0.00339 0.0
O178 O 0.7601 0.16235 0.00417 0.0
C179 C 0.80888 0.10492 0.02147 0.0
O180 O 0.76292 0.15989 0.05804 0.0
O181 O 0.80096 0.1617 0.05907 0.0
In182 In 0.13233 0.49387 0.2448 0.0
O183 O 0.16138 0.47221 0.23155 0.0
O184 O 0.15646 0.47607 0.26968 0.0
C185 C 0.15389 0.54335 0.25107 0.0
C186 C 0.11087 0.47816 0.19994 0.0
C187 C 0.0967 0.48841 0.2758 0.0
O188 O 0.15883 0.52728 0.26487 0.0
O189 O 0.1378 0.5346 0.23432 0.0
O190 O 0.10307 0.50861 0.2658 0.0
O191 O 0.10807 0.47075 0.26982 0.0
C192 C 0.16822 0.46798 0.25266 0.0
O193 O 0.10135 0.47111 0.21911 0.0
O194 O 0.13138 0.49229 0.20349 0.0
In195 In 0.76408 0.88751 0.53388 0.0
O196 O 0.74631 0.85336 0.55381 0.0
O197 O 0.77666 0.87841 0.57149 0.0
C198 C 0.76588 0.86302 0.48879 0.0
C199 C 0.72758 0.91448 0.53308 0.0
C200 C 0.80855 0.91664 0.53702 0.0
O201 O 0.75518 0.85191 0.50566 0.0
O202 O 0.77529 0.88599 0.49475 0.0
O203 O 0.78968 0.92613 0.53919 0.0
O204 O 0.80492 0.89262 0.5339 0.0
C205 C 0.76076 0.8589 0.57251 0.0
O206 O 0.74202 0.91586 0.5515 0.0
O207 O 0.73131 0.89933 0.51541 0.0
In208 In 0.89266 0.04053 0.2384 0.0
O209 O 0.92617 0.05768 0.21892 0.0
O210 O 0.89724 0.03398 0.19747 0.0
C211 C 0.91288 0.03475 0.28247 0.0
C212 C 0.87019 0.08106 0.24429 0.0
C213 C 0.86719 0.99265 0.23236 0.0
O214 O 0.92467 0.03581 0.26344 0.0
O215 O 0.89126 0.03762 0.27941 0.0
O216 O 0.85723 0.01187 0.23146 0.0
O217 O 0.88988 -0.00237 0.23567 0.0
C218 C 0.91809 0.04725 0.19799 0.0
O219 O 0.8602 0.06001 0.23305 0.0
O220 O 0.89166 0.08184 0.25225 0.0
In221 In 0.28669 0.6403 0.52361 0.0
O222 O 0.31036 0.61392 0.53785 0.0
O223 O 0.30525 0.6137 0.49939 0.0
C224 C 0.24056 0.61536 0.52073 0.0
C225 C 0.29891 0.66862 0.56673 0.0
C226 C 0.28928 0.67575 0.49206 0.0
O227 O 0.25491 0.61162 0.5044 0.0
O228 O 0.24945 0.63161 0.53821 0.0
O229 O 0.30736 0.66634 0.49825 0.0
O230 O 0.26999 0.66715 0.50171 0.0
C231 C 0.3146 0.60461 0.51697 0.0
O232 O 0.30514 0.67683 0.54674 0.0
O233 O 0.28766 0.64592 0.56489 0.0
In234 In 0.3867 0.52841 0.73911 0.0
O235 O 0.35347 0.54646 0.73283 0.0
O236 O 0.38382 0.56916 0.75319 0.0
C237 C 0.36114 0.48062 0.73276 0.0
C238 C 0.41302 0.53628 0.69931 0.0
C239 C 0.40667 0.52295 0.78352 0.0
O240 O 0.35138 0.49987 0.73113 0.0
O241 O 0.38374 0.4855 0.73696 0.0
O242 O 0.41834 0.52303 0.76442 0.0
O243 O 0.3853 0.52656 0.78035 0.0
C244 C 0.36241 0.56756 0.74462 0.0
O245 O 0.41988 0.54767 0.7202 0.0
O246 O 0.39295 0.52144 0.69852 0.0
In247 In 0.62989 0.99333 0.75173 0.0
O248 O 0.65663 0.97676 0.77473 0.0
O249 O 0.65618 0.96929 0.7361 0.0
C250 C 0.6516 0.0427 0.75903 0.0
C251 C 0.60841 0.98052 0.70658 0.0
C252 C 0.59482 0.98557 0.78327 0.0
O253 O 0.65705 0.02614 0.77197 0.0
O254 O 0.63494 0.03448 0.74274 0.0
O255 O 0.60037 0.0062 0.77378 0.0
O256 O 0.60675 0.96863 0.77658 0.0
C257 C 0.66563 0.96659 0.75665 0.0
O258 O 0.59882 0.97223 0.72529 0.0
O259 O 0.62895 0.9945 0.7107 0.0
In260 In 0.76844 0.64771 0.00014 0.0
O261 O 0.79238 0.62556 0.02137 0.0
O262 O 0.79613 0.62574 0.98327 0.0
C263 C 0.72382 0.61833 0.99559 0.0
C264 C 0.76799 0.68016 0.04106 0.0
C265 C 0.77505 0.67324 0.95981 0.0
O266 O 0.72865 0.63989 0.98775 0.0
O267 O 0.74164 0.61118 0.00572 0.0
O268 O 0.78306 0.68338 0.98093 0.0
O269 O 0.76413 0.65054 0.95922 0.0
C270 C 0.80307 0.61843 0.00305 0.0
O271 O 0.74919 0.66688 0.0302 0.0
O272 O 0.78724 0.67777 0.03091 0.0
In273 In 0.91693 0.54402 0.78512 0.0
O274 O 0.89393 0.56487 0.76218 0.0
O275 O 0.8853 0.56099 0.7991 0.0
C276 C 0.89091 0.49669 0.78517 0.0
C277 C 0.94746 0.54912 0.7491 0.0
C278 C 0.94745 0.56097 0.82461 0.0
O279 O 0.90161 0.50912 0.8043 0.0
O280 O 0.89391 0.50782 0.76606 0.0
O281 O 0.9502 0.54287 0.80937 0.0
O282 O 0.92934 0.57089 0.81989 0.0
C283 C 0.88004 0.56877 0.77893 0.0
O284 O 0.93834 0.56749 0.75816 0.0
O285 O 0.94134 0.52845 0.75841 0.0
In286 In 0.74733 0.38897 0.50887 0.0
O287 O 0.76267 0.36405 0.53419 0.0
O288 O 0.7252 0.36534 0.53526 0.0
C289 C 0.73573 0.36083 0.46558 0.0
C290 C 0.71968 0.42499 0.51467 0.0
C291 C 0.79352 0.41346 0.50889 0.0
O292 O 0.73268 0.35125 0.48561 0.0
O293 O 0.74352 0.38452 0.46761 0.0
O294 O 0.77898 0.42036 0.52373 0.0
O295 O 0.78492 0.39408 0.49446 0.0
C296 C 0.74293 0.35659 0.54354 0.0
O297 O 0.73203 0.41909 0.53217 0.0
O298 O 0.72067 0.41219 0.49447 0.0
In299 In 0.65404 0.51621 0.28812 0.0
O300 O 0.68796 0.49877 0.29233 0.0
O301 O 0.65603 0.47475 0.27628 0.0
C302 C 0.67795 0.56467 0.29387 0.0
C303 C 0.6337 0.51986 0.24347 0.0
C304 C 0.62891 0.50886 0.32868 0.0
O305 O 0.68849 0.54604 0.29604 0.0
O306 O 0.65542 0.55882 0.28936 0.0
O307 O 0.64948 0.52271 0.32911 0.0
O308 O 0.62096 0.49826 0.30777 0.0
C309 C 0.67809 0.4769 0.28278 0.0
O310 O 0.62207 0.52005 0.2626 0.0
O311 O 0.65529 0.51699 0.24677 0.0
Dy312 Dy 0.9916 0.01318 0.00365 0.0
C313 C 0.09515 0.0296 0.01714 0.0
C314 C 0.94307 0.01158 0.00339 0.0
Dy315 Dy 0.0467 0.02883 0.01653 0.0
O316 O 0.95538 0.01125 0.98396 0.0
O317 O 0.95723 0.01227 0.02274 0.0
O318 O -0.0013 0.98933 0.96977 0.0
O319 O 0.0234 0.02246 0.98325 0.0
C320 C 0.01977 0.00331 0.96759 0.0
C321 C 0.0184 0.03852 0.0526 0.0
O322 O 0.04068 0.06431 0.00143 0.0
O323 O -0.00115 0.05593 0.00328 0.0
O324 O 0.08288 0.03132 0.03649 0.0
O325 O 0.08102 0.02817 0.99764 0.0
O326 O 0.0394 0.05264 0.0504 0.0
O327 O 0.01494 0.01941 0.03689 0.0
O328 O -0.00237 0.97727 0.01801 0.0
O329 O 0.0395 0.98621 0.01707 0.0
C330 C 0.01937 0.07138 -0.00018 0.0
C331 C 0.01903 0.97045 0.01998 0.0
Dy332 Dy 0.26781 0.77301 0.24279 0.0
C333 C 0.2773 0.76756 0.34676 0.0
C334 C 0.2581 0.7808 0.19553 0.0
Dy335 Dy 0.26743 0.77546 0.29962 0.0
O336 O 0.27368 0.76736 0.20256 0.0
O337 O 0.24815 0.79013 0.21426 0.0
O338 O 0.299 0.75186 0.24334 0.0
O339 O 0.29468 0.77796 0.27292 0.0
C340 C 0.30655 0.76134 0.26554 0.0
C341 C 0.22913 0.78772 0.27675 0.0
O342 O 0.28868 0.81405 0.29629 0.0
O343 O 0.28026 0.81491 0.2545 0.0
O344 O 0.25955 0.7781 0.33948 0.0
O345 O 0.28936 0.76127 0.32835 0.0
O346 O 0.23683 0.79741 0.29887 0.0
O347 O 0.24067 0.77074 0.26953 0.0
O348 O 0.24579 0.73483 0.24639 0.0
O349 O 0.25525 0.73351 0.28785 0.0
C350 C 0.28902 0.82631 0.27638 0.0
C351 C 0.24588 0.72232 0.26611 0.0
Dy352 Dy 0.54628 0.02203 0.51877 0.0
C353 C 0.44447 0.03019 0.51578 0.0
C354 C 0.59161 0.01094 0.52347 0.0
Dy355 Dy 0.49002 0.01963 0.5207 0.0
O356 O 0.58031 0.01315 0.50291 0.0
O357 O 0.57841 0.01553 0.54154 0.0
O358 O 0.5469 0.04694 0.48784 0.0
O359 O 0.51602 0.01972 0.49271 0.0
C360 C 0.52445 0.03779 0.48068 0.0
C361 C 0.51217 0.00416 0.55885 0.0
O362 O 0.48958 0.98132 0.50104 0.0
O363 O 0.52994 0.9803 0.51149 0.0
O364 O 0.45608 0.02906 0.53647 0.0
O365 O 0.45751 0.0249 0.4978 0.0
O366 O 0.48974 0.99476 0.55178 0.0
O367 O 0.52029 0.02215 0.54666 0.0
O368 O 0.54677 0.06039 0.53824 0.0
O369 O 0.50641 0.06141 0.5277 0.0
C370 C 0.50803 0.96911 0.50225 0.0
C371 C 0.52835 0.07264 0.53687 0.0
Dy372 Dy 0.23813 0.26609 0.76332 0.0
C373 C 0.34156 0.27951 0.75857 0.0
C374 C 0.1905 0.25515 0.77271 0.0
Dy375 Dy 0.29343 0.26915 0.76626 0.0
O376 O 0.1996 0.27154 0.75808 0.0
O377 O 0.20733 0.2444 0.78169 0.0
O378 O 0.24224 0.30131 0.74351 0.0
O379 O 0.26946 0.29654 0.76906 0.0
C380 C 0.26394 0.31016 0.75303 0.0
C381 C 0.2674 0.22536 0.77714 0.0
O382 O 0.28991 0.2869 0.80417 0.0
O383 O 0.24813 0.27498 0.8038 0.0
O384 O 0.33053 0.25918 0.76727 0.0
O385 O 0.32635 0.29434 0.75434 0.0
O386 O 0.28893 0.23458 0.78694 0.0
O387 O 0.26203 0.23861 0.7607 0.0
O388 O 0.24201 0.24694 0.72618 0.0
O389 O 0.28331 0.26178 0.72561 0.0
C390 C 0.26942 0.2843 0.81555 0.0
C391 C 0.26214 0.25102 0.7143 0.0
Dy392 Dy 0.00822 0.00635 0.48586 0.0
C393 C 0.04981 0.04097 0.5824 0.0
C394 C 0.9831 0.99551 0.44145 0.0
Dy395 Dy 0.02397 0.02964 0.53841 0.0
O396 O 0.00565 0.99396 0.44542 0.0
O397 O 0.97411 0.00201 0.46192 0.0
O398 O 0.04658 0.0024 0.47925 0.0
O399 O 0.03953 0.03254 0.50317 0.0
C400 C 0.05593 0.02165 0.49495 0.0
C401 C 0.97623 0.01442 0.5293 0.0
O402 O 0.02413 0.06607 0.52165 0.0
O403 O 0.00186 0.04676 0.48622 0.0
O404 O 0.02692 0.04127 0.57902 0.0
O405 O 0.05867 0.03534 0.56162 0.0
O406 O 0.98561 0.03363 0.54506 0.0
O407 O 0.99265 0.00354 0.52112 0.0
O408 O 0.00756 0.96994 0.50275 0.0
O409 O 0.03012 0.98911 0.53806 0.0
C410 C 0.01166 0.06742 0.50093 0.0
C411 C 0.02007 0.96848 0.52342 0.0
Dy412 Dy 0.28737 0.77554 0.77216 0.0
C413 C 0.19652 0.72815 0.72033 0.0
C414 C 0.33221 0.78865 0.79533 0.0
Dy415 Dy 0.23598 0.74773 0.75073 0.0
O416 O 0.32759 0.78093 0.77232 0.0
O417 O 0.31218 0.78989 0.80591 0.0
O418 O 0.29479 0.78808 0.73441 0.0
O419 O 0.27197 0.75395 0.73843 0.0
C420 C 0.28029 0.76848 0.72308 0.0
C421 C 0.2377 0.76685 0.79739 0.0
O422 O 0.25301 0.71338 0.75436 0.0
O423 O 0.28869 0.73451 0.77599 0.0
O424 O 0.19982 0.7221 0.74252 0.0
O425 O 0.21521 0.74404 0.71465 0.0
O426 O 0.21837 0.76325 0.7829 0.0
O427 O 0.25408 0.75739 0.7871 0.0
O428 O 0.26778 0.8081 0.7742 0.0
O429 O 0.23809 0.78894 0.74428 0.0
C430 C 0.27416 0.71336 0.76613 0.0
C431 C 0.24933 0.80916 0.75881 0.0
Dy432 Dy 0.51501 0.01193 0.04477 0.0
C433 C 0.51782 0.99376 0.93976 0.0
C434 C 0.51136 0.02049 0.09389 0.0
Dy435 Dy 0.51309 0.00862 0.98773 0.0
O436 O 0.52241 0.03702 0.08043 0.0
O437 O 0.50229 -0.00056 0.08056 0.0
O438 O 0.53111 0.97647 0.04306 0.0
O439 O 0.50665 0.98171 0.01488 0.0
C440 C 0.52072 0.96763 0.02171 0.0
C441 C 0.507 0.05325 0.00937 0.0
O442 O 0.47483 0.99336 0.99424 0.0
O443 O 0.47608 0.01184 0.03437 0.0
O444 O 0.50753 0.01252 0.94761 0.0
O445 O 0.52556 0.98321 0.95809 0.0
O446 O 0.49929 0.04525 0.98691 0.0
O447 O 0.52043 0.03903 0.01749 0.0
O448 O 0.55394 0.02527 0.03978 0.0
O449 O 0.55293 0.01571 0.99743 0.0
C450 C 0.46394 0.00076 0.01382 0.0
C451 C 0.56481 0.02288 0.01902 0.0
Dy452 Dy 0.27432 0.29524 0.26925 0.0
C453 C 0.26114 0.18707 0.25107 0.0
C454 C 0.27507 0.34629 0.27154 0.0
Dy455 Dy 0.26127 0.238 0.25336 0.0
O456 O 0.27381 0.33314 0.29029 0.0
O457 O 0.2764 0.33158 0.25179 0.0
O458 O 0.29482 0.2879 0.3031 0.0
O459 O 0.26442 0.26148 0.28818 0.0
C460 C 0.28157 0.26558 0.30442 0.0
C461 C 0.25401 0.26773 0.2183 0.0
O462 O 0.22556 0.24291 0.26662 0.0
O463 O 0.2336 0.28713 0.26889 0.0
O464 O 0.26283 0.20037 0.23242 0.0
O465 O 0.25882 0.20156 0.2707 0.0
O466 O 0.24077 0.24536 0.21946 0.0
O467 O 0.27115 0.2717 0.23452 0.0
O468 O 0.30992 0.2903 0.25573 0.0
O469 O 0.30202 0.24614 0.25388 0.0
C470 C 0.2186 0.2652 0.27009 0.0
C471 C 0.31696 0.26804 0.25243 0.0
Dy472 Dy 0.50502 0.50696 0.98756 0.0
C473 C 0.56155 0.54152 0.07939 0.0
C474 C 0.47553 0.4918 0.94609 0.0
Dy475 Dy 0.53193 0.52549 0.03821 0.0
O476 O 0.49763 0.48822 0.94898 0.0
O477 O 0.46922 0.50257 0.96633 0.0
O478 O 0.53712 0.52652 0.96946 0.0
O479 O 0.5423 0.51143 0.00269 0.0
C480 C 0.55263 0.52437 0.98689 0.0
C481 C 0.48436 0.50815 0.03894 0.0
O482 O 0.53331 0.56239 0.02136 0.0
O483 O 0.50209 0.54795 0.99158 0.0
O484 O 0.53945 0.54507 0.07644 0.0
O485 O 0.56775 0.53013 0.05942 0.0
O486 O 0.49986 0.50609 0.05642 0.0
O487 O 0.49469 0.52107 0.02312 0.0
O488 O 0.50352 0.47 0.00432 0.0
O489 O 0.53442 0.48434 0.03451 0.0
C490 C 0.51772 0.5666 0.00408 0.0
C491 C 0.51883 0.46574 0.02185 0.0
Dy492 Dy 0.79784 0.2917 0.27715 0.0
C493 C 0.70161 0.24932 0.23287 0.0
C494 C 0.83731 0.311 0.30764 0.0
Dy495 Dy 0.74653 0.26328 0.25579 0.0
O496 O 0.83392 0.3174 0.2856 0.0
O497 O 0.8186 0.29507 0.31322 0.0
O498 O 0.8155 0.2776 0.24434 0.0
O499 O 0.77939 0.28243 0.24095 0.0
C500 C 0.79595 0.2738 0.23014 0.0
C501 C 0.75433 0.26877 0.30483 0.0
O502 O 0.76694 0.23138 0.25239 0.0
O503 O 0.79689 0.25032 0.28215 0.0
O504 O 0.70629 0.25829 0.2556 0.0
O505 O 0.7216 0.24742 0.22247 0.0
O506 O 0.7402 0.24916 0.29307 0.0
O507 O 0.76197 0.28411 0.28989 0.0
O508 O 0.7804 0.32575 0.27395 0.0
O509 O 0.74472 0.30433 0.25246 0.0
C510 C 0.78584 0.23035 0.26722 0.0
C511 C 0.75914 0.32557 0.26235 0.0
Dy512 Dy 0.01631 0.52113 0.53701 0.0
C513 C 0.02001 0.5023 0.43216 0.0
C514 C 0.01101 0.53499 0.58502 0.0
Dy515 Dy 0.01428 0.5164 0.48003 0.0
O516 O 0.00279 0.54545 0.56685 0.0
O517 O 0.02197 0.51684 0.57698 0.0
O518 O 0.03283 0.48591 0.53704 0.0
O519 O 0.00904 0.49019 0.5079 0.0
C520 C 0.02335 0.4767 0.5154 0.0
C521 C 0.00745 0.56084 0.5019 0.0
O522 O 0.97652 0.4979 0.48579 0.0
O523 O 0.97633 0.51234 0.52705 0.0
O524 O 0.00994 0.52125 0.43998 0.0
O525 O 0.02706 0.49123 0.45045 0.0
O526 O -0.00229 0.55172 0.48031 0.0
O527 O 0.0217 0.54719 0.50911 0.0
O528 O 0.05392 0.53968 0.53125 0.0
O529 O 0.05437 0.52511 0.49008 0.0
C530 C 0.96497 0.50163 0.50597 0.0
C531 C 0.06564 0.53573 0.51125 0.0
Dy532 Dy 0.74171 0.77876 0.26051 0.0
C533 C 0.84538 0.79142 0.25918 0.0
C534 C 0.69327 0.76977 0.267 0.0
Dy535 Dy 0.79689 0.78134 0.26483 0.0
O536 O 0.70555 0.7909 0.26097 0.0
O537 O 0.70739 0.75335 0.26912 0.0
O538 O 0.74717 0.81271 0.23905 0.0
O539 O 0.77326 0.8091 0.26645 0.0
C540 C 0.76838 0.82209 0.24957 0.0
C541 C 0.77028 0.738 0.27582 0.0
O542 O 0.79227 0.79967 0.30202 0.0
O543 O 0.7508 0.78532 0.30134 0.0
O544 O 0.83393 0.77151 0.26821 0.0
O545 O 0.83037 0.80597 0.2534 0.0
O546 O 0.79162 0.74722 0.28611 0.0
O547 O 0.76541 0.75104 0.259 0.0
O548 O 0.74606 0.76091 0.22291 0.0
O549 O 0.78793 0.77279 0.22414 0.0
C550 C 0.77177 0.79566 0.31326 0.0
C551 C 0.76683 0.76336 0.21203 0.0
Dy552 Dy 0.76258 0.27307 0.74712 0.0
C553 C 0.77085 0.26768 0.85129 0.0
C554 C 0.75327 0.28088 0.69979 0.0
Dy555 Dy 0.76175 0.27574 0.80396 0.0
O556 O 0.76901 0.26773 0.70702 0.0
O557 O 0.74286 0.28986 0.71837 0.0
O558 O 0.79377 0.25207 0.74793 0.0
O559 O 0.78928 0.27823 0.77746 0.0
C560 C 0.80119 0.26159 0.77015 0.0
C561 C 0.72335 0.28723 0.78046 0.0
O562 O 0.78241 0.3147 0.80084 0.0
O563 O 0.77488 0.31494 0.75881 0.0
O564 O 0.75206 0.27614 0.8433 0.0
O565 O 0.78447 0.26368 0.83349 0.0
O566 O 0.73086 0.29735 0.80252 0.0
O567 O 0.73524 0.27045 0.7736 0.0
O568 O 0.74095 0.23477 0.75068 0.0
O569 O 0.75066 0.23364 0.79212 0.0
C570 C 0.7832 0.32664 0.78071 0.0
C571 C 0.74137 0.2223 0.77039 0.0
Dy572 Dy 0.77225 0.79065 0.77026 0.0
C573 C 0.76517 0.68264 0.75749 0.0
C574 C 0.77025 0.84082 0.76924 0.0
Dy575 Dy 0.76233 0.7327 0.75672 0.0
O576 O 0.77239 0.82975 0.78907 0.0
O577 O 0.76957 0.82455 0.75016 0.0
O578 O 0.79195 0.786 0.80555 0.0
O579 O 0.76309 0.75764 0.79032 0.0
C580 C 0.77959 0.76331 0.80721 0.0
C581 C 0.75512 0.76034 0.71991 0.0
O582 O 0.72579 0.73609 0.76875 0.0
O583 O 0.73159 0.78019 0.76943 0.0
O584 O 0.76305 0.69385 0.73773 0.0
O585 O 0.76516 0.69869 0.7766 0.0
O586 O 0.74257 0.7377 0.72145 0.0
O587 O 0.7716 0.76567 0.7368 0.0
O588 O 0.80874 0.78728 0.75821 0.0
O589 O 0.80301 0.7432 0.75743 0.0
C590 C 0.71753 0.75775 0.77098 0.0
C591 C 0.81703 0.76566 0.75587 0.0
Dy592 Dy 0.4957 0.51437 0.50746 0.0
C593 C 0.59865 0.53481 0.52547 0.0
C594 C 0.4468 0.51008 0.50449 0.0
Dy595 Dy 0.54985 0.53212 0.523 0.0
O596 O 0.46035 0.51199 0.48599 0.0
O597 O 0.45997 0.51009 0.52442 0.0
O598 O 0.5051 0.49172 0.47393 0.0
O599 O 0.52827 0.52548 0.48854 0.0
C600 C 0.52589 0.50656 0.47265 0.0
C601 C 0.51954 0.5397 0.55782 0.0
O602 O 0.54311 0.56788 0.50883 0.0
O603 O 0.50121 0.55709 0.50808 0.0
O604 O 0.58537 0.53439 0.54421 0.0
O605 O 0.5853 0.53458 0.50562 0.0
O606 O 0.54032 0.55464 0.55665 0.0
O607 O 0.51734 0.52088 0.54185 0.0
O608 O 0.50235 0.47853 0.52131 0.0
O609 O 0.54425 0.48939 0.5228 0.0
C610 C 0.52136 0.57374 0.50609 0.0
C611 C 0.52405 0.47268 0.52432 0.0
Dy612 Dy 0.05269 0.53224 0.01767 0.0
C613 C 0.95002 0.53822 0.01397 0.0
C614 C 0.09804 0.52102 0.02291 0.0
Dy615 Dy 0.99625 0.52919 0.01785 0.0
O616 O 0.08801 0.52609 0.00268 0.0
O617 O 0.08354 0.52282 0.04045 0.0
O618 O 0.05583 0.55994 0.98944 0.0
O619 O 0.02351 0.53339 0.99079 0.0
C620 C 0.03334 0.553 0.98138 0.0
C621 C 0.01728 0.51048 0.0549 0.0
O622 O 0.99671 0.49261 0.9954 0.0
O623 O 0.03687 0.49107 0.00607 0.0
O624 O 0.96297 0.53954 0.03432 0.0
O625 O 0.96215 0.53145 0.99571 0.0
O626 O 0.99518 0.50129 0.0466 0.0
O627 O 0.02556 0.52965 0.04438 0.0
O628 O 0.05182 0.56898 0.03995 0.0
O629 O 0.01212 0.57073 0.02724 0.0
C630 C 0.01522 0.48047 0.99583 0.0
C631 C 0.03347 0.58135 0.03827 0.0
H632 H 0.97722 0.20872 0.95273 0.0
H633 H 0.05309 0.10067 0.97536 0.0
H634 H 0.02411 0.18207 0.90021 0.0
H635 H 0.98222 0.09805 0.00297 0.0
H636 H 0.048 0.13804 0.95489 0.0
H637 H 0.98342 0.17437 0.97772 0.0
C638 C 0.98873 0.19561 0.94647 0.0
C639 C 5e-05 0.19803 0.92436 0.0
C640 C 0.03369 0.12939 0.96564 0.0
C641 C 0.00768 0.15954 0.95294 0.0
C642 C 0.03664 0.10821 0.97751 0.0
C643 C 0.01796 0.09613 0.99074 0.0
C644 C 0.01208 0.13876 0.96731 0.0
C645 C 0.99697 0.1067 0.99277 0.0
C646 C 0.99226 0.17613 0.96069 0.0
C647 C 0.01488 0.18069 0.91704 0.0
N648 N 0.99455 0.12746 0.9811 0.0
N649 N 0.01842 0.16229 0.93141 0.0
H650 H 0.09424 0.82781 0.22875 0.0
H651 H 0.20965 0.76499 0.23258 0.0
H652 H 0.12532 0.80016 0.1635 0.0
H653 H 0.20167 0.82394 0.28888 0.0
H654 H 0.17638 0.77554 0.20834 0.0
H655 H 0.1316 0.82566 0.25255 0.0
C656 C 0.10904 0.8217 0.21939 0.0
C657 C 0.10663 0.81387 0.19419 0.0
C658 C 0.18202 0.78637 0.22588 0.0
C659 C 0.1489 0.81097 0.2212 0.0
C660 C 0.20102 0.78038 0.23973 0.0
C661 C 0.20866 0.79395 0.26253 0.0
C662 C 0.17003 0.80561 0.2352 0.0
C663 C 0.19636 0.81317 0.27126 0.0
C664 C 0.13029 0.82049 0.23295 0.0
C665 C 0.12634 0.80618 0.18292 0.0
N666 N 0.17742 0.81834 0.25762 0.0
N667 N 0.1465 0.80454 0.19657 0.0
H668 H 0.47965 0.83813 0.39552 0.0
H669 H 0.53637 0.93421 0.51085 0.0
H670 H 0.52836 0.81889 0.45053 0.0
H671 H 0.4734 0.94381 0.46774 0.0
H672 H 0.53447 0.8924 0.48845 0.0
H673 H 0.47831 0.87784 0.42072 0.0
C674 C 0.49012 0.84232 0.41288 0.0
C675 C 0.50423 0.8253 0.42093 0.0
C676 C 0.52092 0.90353 0.48405 0.0
C677 C 0.50274 0.87058 0.44983 0.0
C678 C 0.52198 0.92741 0.49683 0.0
C679 C 0.50506 0.94256 0.49107 0.0
C680 C 0.50303 0.89486 0.46512 0.0
C681 C 0.48676 0.93272 0.47282 0.0
C682 C 0.48922 0.86489 0.42731 0.0
C683 C 0.51731 0.83154 0.44362 0.0
N684 N 0.48639 0.90959 0.46027 0.0
N685 N 0.51635 0.85376 0.45723 0.0
H686 H 0.4749 0.25044 0.70276 0.0
H687 H 0.36685 0.32109 0.74006 0.0
H688 H 0.47514 0.32947 0.69351 0.0
H689 H 0.37325 0.24682 0.76066 0.0
H690 H 0.40719 0.3253 0.72427 0.0
H691 H 0.43831 0.24923 0.72523 0.0
C692 C 0.46733 0.26758 0.70562 0.0
C693 C 0.47796 0.29004 0.69615 0.0
C694 C 0.39989 0.30819 0.73248 0.0
C695 C 0.436 0.28878 0.72168 0.0
C696 C 0.3769 0.3058 0.74149 0.0
C697 C 0.36675 0.28352 0.75152 0.0
C698 C 0.41265 0.28802 0.7333 0.0
C699 C 0.38045 0.26428 0.75298 0.0
C700 C 0.44646 0.26691 0.71848 0.0
C701 C 0.46746 0.31173 0.70045 0.0
N702 N 0.40262 0.26686 0.74374 0.0
N703 N 0.44693 0.3105 0.71271 0.0
H704 H 0.03723 0.85175 0.61718 0.0
H705 H 0.99286 0.92204 0.50583 0.0
H706 H 0.97899 0.81693 0.56461 0.0
H707 H 0.04745 0.95773 0.56196 0.0
H708 H 0.99001 0.88206 0.52464 0.0
H709 H 0.04324 0.88965 0.59514 0.0
C710 C 0.02569 0.8521 0.60099 0.0
C711 C 0.0075 0.83123 0.59278 0.0
C712 C 0.00274 0.8986 0.5327 0.0
C713 C 0.01433 0.87455 0.56734 0.0
C714 C 0.0045 0.9214 0.52188 0.0
C715 C 0.02032 0.94334 0.5324 0.0
C716 C 0.01695 0.89774 0.55416 0.0
C717 C 0.03486 0.94138 0.55329 0.0
C718 C 0.02915 0.87373 0.58837 0.0
C719 C 0.99315 0.83267 0.57163 0.0
N720 N 0.03272 0.91907 0.56353 0.0
N721 N 0.99684 0.85399 0.55965 0.0
H722 H 0.47836 0.76882 0.82303 0.0
H723 H 0.34426 0.79295 0.84466 0.0
H724 H 0.44954 0.7743 0.8944 0.0
H725 H 0.3745 0.78798 0.774 0.0
H726 H 0.38342 0.78913 0.86386 0.0
H727 H 0.44074 0.77762 0.80507 0.0
C728 C 0.46405 0.77174 0.8349 0.0
C729 C 0.467 0.77069 0.8602 0.0
C730 C 0.38153 0.78914 0.84418 0.0
C731 C 0.42394 0.78103 0.83985 0.0
C732 C 0.35927 0.79151 0.83327 0.0
C733 C 0.35622 0.79067 0.80776 0.0
C734 C 0.40071 0.78588 0.82937 0.0
C735 C 0.3761 0.7886 0.79376 0.0
C736 C 0.4426 0.7769 0.82467 0.0
C737 C 0.44794 0.77481 0.87476 0.0
N738 N 0.39744 0.78609 0.80473 0.0
N739 N 0.42719 0.77978 0.86437 0.0
H740 H 0.49324 0.20917 0.0506 0.0
H741 H 0.50042 0.0626 0.05763 0.0
H742 H 0.48711 0.17175 0.11689 0.0
H743 H 0.50179 0.09707 0.99002 0.0
H744 H 0.49417 0.10236 0.07941 0.0
H745 H 0.49436 0.16815 0.02747 0.0
C746 C 0.49186 0.19228 0.06022 0.0
C747 C 0.49025 0.19383 0.08569 0.0
C748 C 0.49595 0.10139 0.05982 0.0
C749 C 0.49172 0.14707 0.0595 0.0
C750 C 0.49997 0.07879 0.04755 0.0
C751 C 0.50256 0.07696 0.02235 0.0
C752 C 0.49451 0.12236 0.04666 0.0
C753 C 0.50022 0.09795 0.00963 0.0
C754 C 0.49256 0.16891 0.04704 0.0
C755 C 0.48851 0.17142 0.09728 0.0
N756 N 0.49655 0.11995 0.02197 0.0
N757 N 0.48947 0.14902 0.08412 0.0
H758 H 0.07669 0.22909 0.32811 0.0
H759 H 0.20039 0.30704 0.287 0.0
H760 H 0.11211 0.30249 0.36281 0.0
H761 H 0.18125 0.22516 0.27325 0.0
H762 H 0.16283 0.30749 0.30724 0.0
H763 H 0.11041 0.22908 0.30115 0.0
C764 C 0.0915 0.2452 0.32997 0.0
C765 C 0.09177 0.26573 0.34781 0.0
C766 C 0.16677 0.28945 0.29958 0.0
C767 C 0.1299 0.26604 0.31694 0.0
C768 C 0.18815 0.28916 0.28786 0.0
C769 C 0.19418 0.26597 0.27864 0.0
C770 C 0.15114 0.26644 0.30197 0.0
C771 C 0.17747 0.24345 0.2803 0.0
C772 C 0.11067 0.24517 0.31464 0.0
C773 C 0.11131 0.28617 0.34946 0.0
N774 N 0.15675 0.24422 0.29192 0.0
N775 N 0.12955 0.28584 0.33419 0.0
H776 H 0.9624 0.07685 0.19305 0.0
H777 H 0.97889 0.00527 0.06342 0.0
H778 H 0.90626 0.02103 0.15306 0.0
H779 H 0.02343 0.07759 0.08947 0.0
H780 H 0.95355 0.00951 0.09779 0.0
H781 H 0.98657 0.07653 0.15691 0.0
C782 C 0.95511 0.06468 0.17663 0.0
C783 C 0.93234 0.04887 0.17605 0.0
C784 C 0.96872 0.02461 0.09592 0.0
C785 C 0.95989 0.0482 0.13494 0.0
C786 C 0.98311 0.02227 0.07619 0.0
C787 C 0.00299 0.04135 0.07334 0.0
C788 C 0.97449 0.04596 0.11331 0.0
C789 C 0.00814 0.06253 0.09096 0.0
C790 C 0.96887 0.06454 0.15605 0.0
C791 C 0.92373 0.03349 0.15433 0.0
N792 N 0.99403 0.06423 0.11033 0.0
N793 N 0.93759 0.03338 0.13475 0.0
H794 H 0.32725 0.694 0.4655 0.0
H795 H 0.24872 0.77032 0.38542 0.0
H796 H 0.25361 0.70078 0.47851 0.0
H797 H 0.31605 0.74978 0.36431 0.0
H798 H 0.25413 0.75329 0.42476 0.0
H799 H 0.3271 0.72263 0.43338 0.0
C800 C 0.31114 0.70172 0.46173 0.0
C801 C 0.29028 0.69475 0.47433 0.0
C802 C 0.26785 0.75282 0.41162 0.0
C803 C 0.28997 0.72741 0.43778 0.0
C804 C 0.2648 0.76258 0.38927 0.0
C805 C 0.28179 0.76101 0.37163 0.0
C806 C 0.28805 0.74156 0.4162 0.0
C807 C 0.30238 0.75097 0.37741 0.0
C808 C 0.31106 0.71803 0.44343 0.0
C809 C 0.26996 0.70543 0.46895 0.0
N810 N 0.30484 0.74138 0.39916 0.0
N811 N 0.27024 0.72109 0.4509 0.0
H812 H 0.62585 -0.00305 0.66441 0.0
H813 H 0.49988 0.96336 0.58564 0.0
H814 H 0.56174 0.95666 0.69351 0.0
H815 H 0.55564 0.0284 0.579 0.0
H816 H 0.5243 0.95214 0.61994 0.0
H817 H 0.60262 -0.00167 0.62628 0.0
C818 C 0.60695 0.98804 0.66263 0.0
C819 C 0.59557 0.97707 0.68225 0.0
C820 C 0.53118 0.96865 0.61066 0.0
C821 C 0.56889 0.97881 0.63879 0.0
C822 C 0.5173 0.97507 0.59124 0.0
C823 C 0.52602 0.99657 0.5793 0.0
C824 C 0.55389 0.98372 0.61773 0.0
C825 C 0.54857 0.01127 0.58726 0.0
C826 C 0.5937 0.98893 0.64092 0.0
C827 C 0.5711 0.96554 0.67885 0.0
N828 N 0.56176 0.00451 0.60588 0.0
N829 N 0.55841 0.96697 0.65755 0.0
H830 H 0.22764 0.33393 0.95948 0.0
H831 H 0.30843 0.30703 0.84671 0.0
H832 H 0.30526 0.35554 0.96264 0.0
H833 H 0.23108 0.28241 0.84475 0.0
H834 H 0.30787 0.32343 0.88968 0.0
H835 H 0.2287 0.31325 0.91799 0.0
C836 C 0.24491 0.33414 0.95153 0.0
C837 C 0.26637 0.34653 0.96452 0.0
C838 C 0.29104 0.31433 0.87986 0.0
C839 C 0.26776 0.32312 0.91696 0.0
C840 C 0.29135 0.30495 0.85529 0.0
C841 C 0.26977 0.2934 0.84195 0.0
C842 C 0.26899 0.31223 0.89123 0.0
C843 C 0.24819 0.29125 0.85416 0.0
C844 C 0.24552 0.32238 0.92782 0.0
C845 C 0.28826 0.34624 0.95329 0.0
N846 N 0.24835 0.30065 0.878 0.0
N847 N 0.28837 0.33488 0.93015 0.0
H848 H 0.89068 0.03105 0.32551 0.0
H849 H 0.00235 0.99025 0.39692 0.0
H850 H 0.95752 0.02351 0.2927 0.0
H851 H 0.93742 0.00308 0.43081 0.0
H852 H 0.98482 -0.00149 0.35758 0.0
H853 H 0.90652 0.01818 0.36354 0.0
C854 C 0.90876 0.02682 0.32636 0.0
C855 C 0.92287 0.02849 0.30596 0.0
C856 C 0.97431 -0.00072 0.37356 0.0
C857 C 0.94104 0.01345 0.34938 0.0
C858 C 0.98423 0.99437 0.39596 0.0
C859 C 0.97131 0.99606 0.41709 0.0
C860 C 0.95132 0.00596 0.37234 0.0
C861 C 0.94798 0.00161 0.41492 0.0
C862 C 0.91776 0.01937 0.34805 0.0
C863 C 0.9461 0.02262 0.30805 0.0
N864 N 0.9388 0.00654 0.39298 0.0
N865 N 0.95446 0.01535 0.32937 0.0
H866 H 0.31666 0.7201 0.57512 0.0
H867 H 0.25251 0.72643 0.69994 0.0
H868 H 0.28512 0.6548 0.61088 0.0
H869 H 0.31173 0.78651 0.68861 0.0
H870 H 0.25906 0.70391 0.66139 0.0
H871 H 0.3124 0.74778 0.6124 0.0
C872 C 0.30927 0.71157 0.59092 0.0
C873 C 0.30098 0.68516 0.5899 0.0
C874 C 0.27055 0.72212 0.66715 0.0
C875 C 0.29559 0.71651 0.63184 0.0
C876 C 0.26656 0.73524 0.68901 0.0
C877 C 0.28159 0.75839 0.69748 0.0
C878 C 0.28979 0.73208 0.65352 0.0
C879 C 0.29975 0.76868 0.68263 0.0
C880 C 0.30676 0.72736 0.61203 0.0
C881 C 0.29153 0.67505 0.61077 0.0
N882 N 0.30354 0.75528 0.66128 0.0
N883 N 0.28881 0.69077 0.63074 0.0
H884 H 0.56393 0.01717 0.79721 0.0
H885 H 0.53869 0.95474 0.92099 0.0
H886 H 0.58609 0.94709 0.81284 0.0
H887 H 0.50833 0.01866 0.9005 0.0
H888 H 0.55202 0.94839 0.87949 0.0
H889 H 0.5393 0.01501 0.83265 0.0
C890 C 0.56335 0.00115 0.80796 0.0
C891 C 0.5773 0.98247 0.80235 0.0
C892 C 0.54214 0.96358 0.88394 0.0
C893 C 0.54942 0.98 0.84307 0.0
C894 C 0.53457 0.96721 0.90761 0.0
C895 C 0.52276 0.98748 0.91414 0.0
C896 C 0.53808 0.98054 0.86686 0.0
C897 C 0.51762 0.00297 0.89618 0.0
C898 C 0.54927 -0.00011 0.82817 0.0
C899 C 0.57574 0.962 0.81669 0.0
N900 N 0.52562 -0.0006 0.87341 0.0
N901 N 0.56234 0.9615 0.83665 0.0
H902 H 0.23088 0.3182 0.07451 0.0
H903 H 0.28583 0.31004 0.20949 0.0
H904 H 0.28235 0.37841 0.11518 0.0
H905 H 0.22153 0.25916 0.17836 0.0
H906 H 0.28582 0.334 0.1739 0.0
H907 H 0.22814 0.29476 0.11102 0.0
C908 C 0.24155 0.3265 0.0911 0.0
C909 C 0.2569 0.35028 0.09179 0.0
C910 C 0.27156 0.31773 0.17487 0.0
C911 C 0.25398 0.32359 0.13345 0.0
C912 C 0.27148 0.30411 0.19531 0.0
C913 C 0.25345 0.28279 0.19708 0.0
C914 C 0.25369 0.30978 0.15575 0.0
C915 C 0.23569 0.27559 0.17777 0.0
C916 C 0.23993 0.31316 0.11192 0.0
C917 C 0.27028 0.36015 0.11377 0.0
N918 N 0.23631 0.28898 0.15782 0.0
N919 N 0.2686 0.34674 0.13361 0.0
H920 H 0.20834 0.94947 0.05129 0.0
H921 H 0.12104 0.02174 0.97751 0.0
H922 H 0.19865 0.9433 0.9725 0.0
H923 H 0.12334 0.02093 0.05598 0.0
H924 H 0.15571 0.00026 0.97605 0.0
H925 H 0.18258 0.98168 0.05389 0.0
C926 C 0.20083 0.95495 0.03455 0.0
C927 C 0.20533 0.94351 0.01165 0.0
C928 C 0.14891 0.00513 0.99365 0.0
C929 C 0.17613 0.98041 0.01447 0.0
C930 C 0.12924 0.01756 0.9945 0.0
C931 C 0.11922 0.02276 0.01687 0.0
C932 C 0.15845 -0.00226 0.01531 0.0
C933 C 0.1305 0.01705 0.03835 0.0
C934 C 0.18622 0.97339 0.03604 0.0
C935 C 0.19539 0.95145 0.99053 0.0
N936 N 0.14933 0.00445 0.03702 0.0
N937 N 0.18113 0.96933 0.99245 0.0
H938 H 0.68481 0.62784 0.9697 0.0
H939 H 0.58964 0.5167 0.01784 0.0
H940 H 0.70625 0.575 0.01715 0.0
H941 H 0.57365 0.56063 0.95938 0.0
H942 H 0.63195 0.53881 0.01993 0.0
H943 H 0.64348 0.60436 0.96756 0.0
C944 C 0.68082 0.61121 0.97963 0.0
C945 C 0.699 0.60334 0.99361 0.0
C946 C 0.61916 0.54353 0.00662 0.0
C947 C 0.65151 0.57636 0.99139 0.0
C948 C 0.59505 0.53104 0.00553 0.0
C949 C 0.5782 0.53697 0.98849 0.0
C950 C 0.6263 0.56215 0.99065 0.0
C951 C 0.5861 0.55546 0.97275 0.0
C952 C 0.65718 0.59777 0.97839 0.0
C953 C 0.69276 0.58164 0.0061 0.0
N954 N 0.60952 0.56744 0.97428 0.0
N955 N 0.66947 0.56894 0.0048 0.0
H956 H 0.72478 0.47575 0.29804 0.0
H957 H 0.71867 0.33325 0.23716 0.0
H958 H 0.66183 0.42989 0.25844 0.0
H959 H 0.7776 0.37261 0.28705 0.0
H960 H 0.70014 0.37086 0.24082 0.0
H961 H 0.74645 0.44023 0.29096 0.0
C962 C 0.71553 0.45821 0.28786 0.0
C963 C 0.69143 0.45569 0.2789 0.0
C964 C 0.7172 0.37138 0.25088 0.0
C965 C 0.71614 0.41517 0.27057 0.0
C966 C 0.72789 0.34988 0.24874 0.0
C967 C 0.74969 0.34961 0.262 0.0
C968 C 0.72828 0.39291 0.26641 0.0
C969 C 0.76078 0.37191 0.27653 0.0
C970 C 0.72791 0.43798 0.28381 0.0
C971 C 0.68034 0.43261 0.26578 0.0
N972 N 0.74986 0.39262 0.27849 0.0
N973 N 0.69278 0.41328 0.262 0.0
H974 H 0.82593 0.40497 0.47522 0.0
H975 H 0.93385 0.50859 0.54184 0.0
H976 H 0.8176 0.45332 0.54032 0.0
H977 H 0.93673 0.47065 0.46951 0.0
H978 H 0.89153 0.48823 0.54219 0.0
H979 H 0.86711 0.42814 0.47359 0.0
C980 C 0.83281 0.42046 0.4892 0.0
C981 C 0.81843 0.42723 0.50798 0.0
C982 C 0.9014 0.48451 0.52619 0.0
C983 C 0.86548 0.45383 0.50623 0.0
C984 C 0.92557 0.4961 0.52597 0.0
C985 C 0.93891 0.49119 0.50567 0.0
C986 C 0.89058 0.46774 0.50605 0.0
C987 C 0.92719 0.47497 0.48558 0.0
C988 C 0.85628 0.43375 0.4882 0.0
C989 C 0.82816 0.4475 0.52556 0.0
N990 N 0.90374 0.46367 0.48636 0.0
N991 N 0.85117 0.46006 0.52432 0.0
H992 H 0.36204 0.08827 0.23233 0.0
H993 H 0.26144 0.15879 0.28956 0.0
H994 H 0.34735 0.09379 0.30887 0.0
H995 H 0.28031 0.16067 0.21444 0.0
H996 H 0.28629 0.12653 0.29444 0.0
H997 H 0.32714 0.10799 0.22351 0.0
C998 C 0.35148 0.09368 0.24727 0.0
C999 C 0.35776 0.0898 0.27141 0.0
C1000 C 0.28464 0.13361 0.27673 0.0
C1001 C 0.31771 0.11192 0.26144 0.0
C1002 C 0.27028 0.15184 0.27388 0.0
C1003 C 0.26925 0.16264 0.2517 0.0
C1004 C 0.29819 0.12641 0.25731 0.0
C1005 C 0.28089 0.15294 0.23192 0.0
C1006 C 0.33148 0.10475 0.24221 0.0
C1007 C 0.34331 0.09679 0.29004 0.0
N1008 N 0.29533 0.13569 0.23533 0.0
N1009 N 0.32403 0.10765 0.28468 0.0
H1010 H 0.3324 0.11742 0.54185 0.0
H1011 H 0.41871 0.03447 0.47358 0.0
H1012 H 0.32178 0.09074 0.465 0.0
H1013 H 0.41891 0.04864 0.55211 0.0
H1014 H 0.38338 0.05496 0.46967 0.0
H1015 H 0.36465 0.09285 0.54566 0.0
C1016 C 0.33686 0.10636 0.52576 0.0
C1017 C 0.32445 0.10617 0.50305 0.0
C1018 C 0.39101 0.05337 0.48776 0.0
C1019 C 0.36143 0.07798 0.50726 0.0
C1020 C 0.41111 0.04163 0.48999 0.0
C1021 C 0.42169 0.03989 0.5132 0.0
C1022 C 0.38161 0.06367 0.5089 0.0
C1023 C 0.41127 0.04957 0.53387 0.0
C1024 C 0.35523 0.09225 0.52796 0.0
C1025 C 0.33093 0.09143 0.48284 0.0
N1026 N 0.39193 0.06122 0.53123 0.0
N1027 N 0.34908 0.07802 0.48539 0.0
H1028 H 0.72503 0.58362 0.30946 0.0
H1029 H 0.72719 0.71446 0.25293 0.0
H1030 H 0.66067 0.60561 0.2796 0.0
H1031 H 0.78055 0.70559 0.30855 0.0
H1032 H 0.70363 0.6732 0.26008 0.0
H1033 H 0.74706 0.62704 0.30721 0.0
C1034 C 0.71552 0.59764 0.30262 0.0
C1035 C 0.69105 0.59108 0.29463 0.0
C1036 C 0.72038 0.68039 0.27088 0.0
C1037 C 0.71609 0.64039 0.2917 0.0
C1038 C 0.73378 0.70394 0.26686 0.0
C1039 C 0.75567 0.71348 0.28037 0.0
C1040 C 0.72922 0.66608 0.28816 0.0
C1041 C 0.7637 0.69886 0.29781 0.0
C1042 C 0.72806 0.62236 0.30139 0.0
C1043 C 0.67953 0.60991 0.28595 0.0
N1044 N 0.75055 0.67572 0.30109 0.0
N1045 N 0.69223 0.63366 0.28445 0.0
H1046 H 0.88057 0.46916 0.82412 0.0
H1047 H 0.78922 0.35763 0.74374 0.0
H1048 H 0.86474 0.46785 0.74643 0.0
H1049 H 0.80764 0.35598 0.82064 0.0
H1050 H 0.81477 0.3995 0.74522 0.0
H1051 H 0.85253 0.42863 0.82386 0.0
C1052 C 0.87127 0.46027 0.80701 0.0
C1053 C 0.875 0.47177 0.78525 0.0
C1054 C 0.81314 0.39004 0.76181 0.0
C1055 C 0.84283 0.42568 0.78483 0.0
C1056 C 0.79846 0.36613 0.76101 0.0
C1057 C 0.7964 0.35315 0.78206 0.0
C1058 C 0.8259 0.40108 0.78381 0.0
C1059 C 0.80875 0.36523 0.80392 0.0
C1060 C 0.85522 0.43722 0.80687 0.0
C1061 C 0.86243 0.45957 0.7636 0.0
N1062 N 0.8231 0.38847 0.80419 0.0
N1063 N 0.84689 0.43718 0.76394 0.0
H1064 H 0.07213 0.86286 0.1029 0.0
H1065 H 0.98215 0.93359 0.03177 0.0
H1066 H 0.99475 0.83824 0.09773 0.0
H1067 H 0.05974 0.95072 0.02871 0.0
H1068 H 0.98613 0.89635 0.05295 0.0
H1069 H 0.06787 0.89341 0.07341 0.0
C1070 C 0.05425 0.86385 0.09547 0.0
C1071 C 0.03374 0.84822 0.1029 0.0
C1072 C 0.00225 0.90808 0.04735 0.0
C1073 C 0.02868 0.88311 0.06922 0.0
C1074 C -1e-05 0.92933 0.03519 0.0
C1075 C 0.02066 0.94556 0.02877 0.0
C1076 C 0.02534 0.90316 0.05328 0.0
C1077 C 0.04329 0.93897 0.03356 0.0
C1078 C 0.05181 0.8812 0.07856 0.0
C1079 C 0.01102 0.85008 0.09257 0.0
N1080 N 0.04504 0.91848 0.04581 0.0
N1081 N 0.00907 0.86741 0.07641 0.0
H1082 H 0.91396 0.26197 0.88054 0.0
H1083 H 0.82978 0.22681 0.75724 0.0
H1084 H 0.93997 0.23051 0.81389 0.0
H1085 H 0.82229 0.28636 0.81312 0.0
H1086 H 0.8663 0.22027 0.78011 0.0
H1087 H 0.87545 0.26222 0.85861 0.0
C1088 C 0.91146 0.25482 0.86134 0.0
C1089 C 0.93023 0.24643 0.84892 0.0
C1090 C 0.85646 0.23459 0.78736 0.0
C1091 C 0.88626 0.24673 0.82377 0.0
C1092 C 0.8357 0.23832 0.77439 0.0
C1093 C 0.82288 0.2569 0.78354 0.0
C1094 C 0.86409 0.24934 0.80969 0.0
C1095 C 0.83133 0.27144 0.80571 0.0
C1096 C 0.88954 0.2551 0.84883 0.0
C1097 C 0.92598 0.23731 0.82406 0.0
N1098 N 0.85133 0.26727 0.81809 0.0
N1099 N 0.9044 0.23778 0.81221 0.0
H1100 H 0.50699 0.22519 0.58313 0.0
H1101 H 0.56487 0.09927 0.56869 0.0
H1102 H 0.55982 0.20852 0.63544 0.0
H1103 H 0.49897 0.10693 0.52943 0.0
H1104 H 0.56728 0.14217 0.58924 0.0
H1105 H 0.50745 0.18433 0.55951 0.0
C1106 C 0.51868 0.21291 0.58963 0.0
C1107 C 0.53327 0.22012 0.61132 0.0
C1108 C 0.55238 0.13447 0.57602 0.0
C1109 C 0.53409 0.17359 0.58433 0.0
C1110 C 0.55108 0.11007 0.56416 0.0
C1111 C 0.5316 0.09944 0.54744 0.0
C1112 C 0.53421 0.14839 0.57094 0.0
C1113 C 0.51419 0.11427 0.54236 0.0
C1114 C 0.51894 0.18963 0.57616 0.0
C1115 C 0.54816 0.20358 0.61889 0.0
N1116 N 0.51588 0.13797 0.55411 0.0
N1117 N 0.54821 0.18108 0.60538 0.0
H1118 H 0.55831 0.71625 0.33043 0.0
H1119 H 0.66374 0.8048 0.26849 0.0
H1120 H 0.56441 0.79757 0.33043 0.0
H1121 H 0.66572 0.72716 0.28167 0.0
H1122 H 0.62371 0.80056 0.28486 0.0
H1123 H 0.59413 0.71817 0.30655 0.0
C1124 C 0.56707 0.73447 0.32521 0.0
C1125 C 0.55852 0.75683 0.33257 0.0
C1126 C 0.6328 0.78437 0.28398 0.0
C1127 C 0.59944 0.75915 0.30528 0.0
C1128 C 0.65558 0.78675 0.27455 0.0
C1129 C 0.66804 0.76634 0.27392 0.0
C1130 C 0.6224 0.7614 0.29279 0.0
C1131 C 0.6567 0.74338 0.28197 0.0
C1132 C 0.58753 0.73556 0.31164 0.0
C1133 C 0.57051 0.77991 0.32528 0.0
N1134 N 0.63455 0.74156 0.29123 0.0
N1135 N 0.59042 0.78049 0.31212 0.0
H1136 H 0.05408 0.22091 0.46147 0.0
H1137 H 0.98328 0.07788 0.46308 0.0
H1138 H -0.0016 0.18334 0.40728 0.0
H1139 H 0.03926 0.11395 0.51768 0.0
H1140 H 0.98654 0.11771 0.44449 0.0
H1141 H 0.04746 0.18309 0.48388 0.0
C1142 C 0.04047 0.2047 0.45429 0.0
C1143 C 0.02686 0.20519 0.43241 0.0
C1144 C -0.002 0.11704 0.46065 0.0
C1145 C 0.01909 0.16198 0.45799 0.0
C1146 C 0.99611 0.09427 0.47135 0.0
C1147 C 0.01115 0.09248 0.4919 0.0
C1148 C 0.01517 0.13826 0.47042 0.0
C1149 C 0.0273 0.11445 0.50185 0.0
C1150 C 0.03665 0.18316 0.46713 0.0
C1151 C 0.00938 0.18374 0.424 0.0
N1152 N 0.02905 0.13638 0.49087 0.0
N1153 N 0.00605 0.16301 0.43677 0.0
H1154 H 0.58389 0.2518 0.1277 0.0
H1155 H 0.6592 0.25006 0.25402 0.0
H1156 H 0.55485 0.25964 0.19878 0.0
H1157 H 0.68924 0.24154 0.18355 0.0
H1158 H 0.62 0.25036 0.23366 0.0
H1159 H 0.62191 0.24564 0.14733 0.0
C1160 C 0.58554 0.25225 0.14745 0.0
C1161 C 0.56626 0.25639 0.16167 0.0
C1162 C 0.63505 0.2482 0.22257 0.0
C1163 C 0.60961 0.24921 0.18422 0.0
C1164 C 0.65743 0.24793 0.2342 0.0
C1165 C 0.67744 0.24587 0.2204 0.0
C1166 C 0.63267 0.24659 0.19692 0.0
C1167 C 0.67419 0.24314 0.19481 0.0
C1168 C 0.60721 0.24865 0.15863 0.0
C1169 C 0.5693 0.25664 0.18714 0.0
N1170 N 0.65223 0.24381 0.18385 0.0
N1171 N 0.59058 0.25316 0.19759 0.0
H1172 H 0.52805 0.85306 0.90409 0.0
H1173 H 0.55268 0.93702 0.03271 0.0
H1174 H 0.55408 0.82319 0.96837 0.0
H1175 H 0.49807 0.94569 0.97829 0.0
H1176 H 0.56 0.89914 0.00763 0.0
H1177 H 0.52466 0.89207 0.92915 0.0
C1178 C 0.53332 0.85483 0.92345 0.0
C1179 C 0.5412 0.83484 0.93426 0.0
C1180 C 0.54649 0.90945 0.00123 0.0
C1181 C 0.53729 0.87933 0.96294 0.0
C1182 C 0.5423 0.93097 0.01547 0.0
C1183 C 0.52496 0.94457 0.00733 0.0
C1184 C 0.53346 0.90186 0.97865 0.0
C1185 C 0.51189 0.93596 0.98498 0.0
C1186 C 0.53123 0.87701 0.93773 0.0
C1187 C 0.5478 0.83815 0.95941 0.0
N1188 N 0.51654 0.91524 0.9713 0.0
N1189 N 0.54566 0.86004 0.97299 0.0
H1190 H 0.92389 0.72922 0.66175 0.0
H1191 H 0.8527 0.80719 0.7525 0.0
H1192 H 0.95563 0.80451 0.69484 0.0
H1193 H 0.83745 0.72509 0.73974 0.0
H1194 H 0.89029 0.80753 0.73174 0.0
H1195 H 0.89123 0.72823 0.68951 0.0
C1196 C 0.92395 0.74558 0.67488 0.0
C1197 C 0.94236 0.76706 0.67592 0.0
C1198 C 0.87886 0.78946 0.73386 0.0
C1199 C 0.905 0.76608 0.70776 0.0
C1200 C 0.8574 0.78922 0.74571 0.0
C1201 C 0.84171 0.76609 0.74762 0.0
C1202 C 0.88442 0.76645 0.72354 0.0
C1203 C 0.84884 0.74341 0.73858 0.0
C1204 C 0.9054 0.74493 0.69085 0.0
C1205 C 0.94169 0.78763 0.69343 0.0
N1206 N 0.86947 0.7442 0.7266 0.0
N1207 N 0.92312 0.78677 0.70854 0.0
H1208 H 0.13592 0.02206 0.87019 0.0
H1209 H 0.01502 0.96351 0.93154 0.0
H1210 H 0.07953 0.96638 0.83038 0.0
H1211 H 0.05971 0.03599 0.9568 0.0
H1212 H 0.04122 0.9594 0.89729 0.0
H1213 H 0.11129 0.02192 0.90564 0.0
C1214 C 0.11842 0.00963 0.86898 0.0
C1215 C 0.10967 0.99433 0.84726 0.0
C1216 C 0.04533 0.97608 0.91049 0.0
C1217 C 0.08136 0.99413 0.88779 0.0
C1218 C 0.03044 0.97842 0.92998 0.0
C1219 C 0.03544 -4e-05 0.94717 0.0
C1220 C 0.0654 0.99532 0.90842 0.0
C1221 C 0.05552 0.0188 0.94429 0.0
C1222 C 0.10434 0.00964 0.88919 0.0
C1223 C 0.08688 0.97856 0.84675 0.0
N1224 N 0.0698 0.01601 0.92536 0.0
N1225 N 0.07344 0.97889 0.86673 0.0
H1226 H 0.7053 0.34519 0.57279 0.0
H1227 H 0.77887 0.27074 0.66025 0.0
H1228 H 0.77682 0.33074 0.55992 0.0
H1229 H 0.71772 0.3037 0.68216 0.0
H1230 H 0.77359 0.28432 0.6193 0.0
H1231 H 0.70496 0.32164 0.60893 0.0
C1232 C 0.72078 0.33678 0.57741 0.0
C1233 C 0.74124 0.34014 0.56361 0.0
C1234 C 0.7612 0.28836 0.63302 0.0
C1235 C 0.74097 0.31328 0.6047 0.0
C1236 C 0.76418 0.28058 0.65631 0.0
C1237 C 0.74889 0.28646 0.67453 0.0
C1238 C 0.74273 0.30193 0.62804 0.0
C1239 C 0.73006 0.29911 0.66859 0.0
C1240 C 0.72061 0.32343 0.59803 0.0
C1241 C 0.7608 0.32881 0.57028 0.0
N1242 N 0.72758 0.30659 0.64584 0.0
N1243 N 0.76025 0.316 0.59047 0.0
H1244 H 0.48108 0.08738 0.34388 0.0
H1245 H 0.4806 0.01473 0.46045 0.0
H1246 H 0.41537 0.05303 0.37456 0.0
H1247 H 0.53792 0.07834 0.45395 0.0
H1248 H 0.45739 0.02793 0.42729 0.0
H1249 H 0.50335 0.08521 0.38282 0.0
C1250 C 0.47127 0.07995 0.35896 0.0
C1251 C 0.44645 0.06993 0.35592 0.0
C1252 C 0.47489 0.03928 0.43329 0.0
C1253 C 0.4717 0.06705 0.39996 0.0
C1254 C 0.4881 0.03181 0.45231 0.0
C1255 C 0.51089 0.04585 0.46031 0.0
C1256 C 0.48485 0.06052 0.42157 0.0
C1257 C 0.52027 0.06715 0.44835 0.0
C1258 C 0.48398 0.0787 0.3811 0.0
C1259 C 0.43457 0.06059 0.376 0.0
N1260 N 0.50726 0.07376 0.4293 0.0
N1261 N 0.44738 0.05895 0.39702 0.0
H1262 H 0.72845 0.68721 0.06595 0.0
H1263 H 0.8057 0.76458 0.18354 0.0
H1264 H 0.80616 0.70797 0.07024 0.0
H1265 H 0.72824 0.74048 0.18045 0.0
H1266 H 0.80591 0.74691 0.14106 0.0
H1267 H 0.72778 0.70965 0.10659 0.0
C1268 C 0.74539 0.69668 0.07537 0.0
C1269 C 0.76742 0.69563 0.06471 0.0
C1270 C 0.78885 0.74557 0.14962 0.0
C1271 C 0.76679 0.72127 0.11142 0.0
C1272 C 0.78868 0.75568 0.17394 0.0
C1273 C 0.76691 0.75392 0.18576 0.0
C1274 C 0.76709 0.73355 0.13688 0.0
C1275 C 0.74548 0.74223 0.17221 0.0
C1276 C 0.74499 0.70945 0.09862 0.0
C1277 C 0.78878 0.70827 0.07777 0.0
N1278 N 0.74613 0.73242 0.14856 0.0
N1279 N 0.78794 0.72045 0.10049 0.0
H1280 H 0.07989 0.01613 0.73253 0.0
H1281 H 0.097 0.03796 0.59171 0.0
H1282 H 0.14656 0.0142 0.6973 0.0
H1283 H 0.03129 0.04352 0.62749 0.0
H1284 H 0.11614 0.03152 0.63083 0.0
H1285 H 0.06204 0.02734 0.6946 0.0
C1286 C 0.09073 0.01794 0.71676 0.0
C1287 C 0.1147 0.0141 0.71801 0.0
C1288 C 0.09761 0.0344 0.63022 0.0
C1289 C 0.09449 0.02714 0.67463 0.0
C1290 C 0.08673 0.03821 0.60792 0.0
C1291 C 0.06254 0.04121 0.60642 0.0
C1292 C 0.08413 0.03339 0.65114 0.0
C1293 C 0.05001 0.0413 0.6279 0.0
C1294 C 0.08058 0.02448 0.69516 0.0
C1295 C 0.12798 0.01688 0.6971 0.0
N1296 N 0.06088 0.03721 0.64936 0.0
N1297 N 0.11768 0.02319 0.67628 0.0
H1298 H 0.74334 0.37799 0.42124 0.0
H1299 H 0.72591 0.24616 0.33947 0.0
H1300 H 0.72467 0.30864 0.45583 0.0
H1301 H 0.77885 0.31239 0.32871 0.0
H1302 H 0.71882 0.26706 0.3798 0.0
H1303 H 0.74756 0.35285 0.3831 0.0
C1304 C 0.73979 0.35742 0.42072 0.0
C1305 C 0.73395 0.34537 0.44178 0.0
C1306 C 0.7322 0.27668 0.36861 0.0
C1307 C 0.73901 0.31649 0.3982 0.0
C1308 C 0.73636 0.26477 0.34579 0.0
C1309 C 0.75288 0.27768 0.33076 0.0
C1310 C 0.74439 0.30162 0.37588 0.0
C1311 C 0.76589 0.30178 0.33965 0.0
C1312 C 0.7424 0.3431 0.399 0.0
C1313 C 0.72936 0.31861 0.43997 0.0
N1314 N 0.76111 0.31309 0.36143 0.0
N1315 N 0.73214 0.30493 0.41848 0.0
H1316 H 0.46713 0.08646 0.22764 0.0
H1317 H 0.49671 0.98549 0.12526 0.0
H1318 H 0.4653 0.00742 0.23817 0.0
H1319 H 0.51825 0.0663 0.1218 0.0
H1320 H 0.48736 0.99368 0.16784 0.0
H1321 H 0.4886 0.08056 0.19036 0.0
C1322 C 0.47165 0.068 0.22235 0.0
C1323 C 0.46413 0.04728 0.23574 0.0
C1324 C 0.49443 0.00966 0.15793 0.0
C1325 C 0.4883 0.04035 0.19314 0.0
C1326 C 0.49967 0.00497 0.13362 0.0
C1327 C 0.50804 0.02528 0.12011 0.0
C1328 C 0.49715 0.03488 0.16864 0.0
C1329 C 0.51174 0.05016 0.13172 0.0
C1330 C 0.48388 0.06465 0.20108 0.0
C1331 C 0.47051 0.02383 0.22819 0.0
N1332 N 0.50591 0.05433 0.1553 0.0
N1333 N 0.4819 0.0209 0.20718 0.0
H1334 H 0.80109 0.7208 0.95441 0.0
H1335 H 0.74953 0.71993 0.81652 0.0
H1336 H 0.7544 0.65633 0.91422 0.0
H1337 H 0.81062 0.77532 0.84819 0.0
H1338 H 0.74979 0.69768 0.85325 0.0
H1339 H 0.80358 0.74259 0.9169 0.0
C1340 C 0.79142 0.71122 0.93772 0.0
C1341 C 0.77749 0.68673 0.93745 0.0
C1342 C 0.76328 0.71458 0.85215 0.0
C1343 C 0.78012 0.71153 0.89463 0.0
C1344 C 0.76323 0.72723 0.83109 0.0
C1345 C 0.78029 0.74931 0.82915 0.0
C1346 C 0.78029 0.72428 0.8717 0.0
C1347 C 0.79722 0.75827 0.84891 0.0
C1348 C 0.7929 0.72363 0.91632 0.0
C1349 C 0.76536 0.67519 0.9153 0.0
N1350 N 0.79673 0.74579 0.86945 0.0
N1351 N 0.76685 0.68772 0.89489 0.0
H1352 H 0.82829 0.0805 0.05659 0.0
H1353 H 0.91391 0.02036 0.96536 0.0
H1354 H 0.82627 0.08718 0.9789 0.0
H1355 H 0.9168 0.0157 0.04334 0.0
H1356 H 0.87717 0.03846 0.96878 0.0
H1357 H 0.85661 0.05126 0.05109 0.0
C1358 C 0.83377 0.07573 0.03835 0.0
C1359 C 0.82523 0.08651 0.0182 0.0
C1360 C 0.88561 0.03308 0.98508 0.0
C1361 C 0.85755 0.05303 0.01174 0.0
C1362 C 0.90647 0.02262 0.9831 0.0
C1363 C 0.91845 0.01689 0.00415 0.0
C1364 C 0.87688 0.0379 0.00829 0.0
C1365 C 0.90815 0.02012 0.0267 0.0
C1366 C 0.84986 0.05896 0.0352 0.0
C1367 C 0.83266 0.07947 0.99495 0.0
N1368 N 0.88811 0.03075 0.02823 0.0
N1369 N 0.84859 0.06333 0.99237 0.0
H1370 H 0.35046 0.40958 0.06032 0.0
H1371 H 0.44731 0.51643 0.00834 0.0
H1372 H 0.32977 0.46293 0.013 0.0
H1373 H 0.463 0.47302 0.06732 0.0
H1374 H 0.40458 0.49588 0.00756 0.0
H1375 H 0.39225 0.43154 0.06116 0.0
C1376 C 0.35472 0.42602 0.05016 0.0
C1377 C 0.33663 0.43446 0.03658 0.0
C1378 C 0.41741 0.49093 0.02068 0.0
C1379 C 0.38461 0.45968 0.03729 0.0
C1380 C 0.44174 0.50253 0.02103 0.0
C1381 C 0.45861 0.49631 0.03787 0.0
C1382 C 0.41008 0.47291 0.03718 0.0
C1383 C 0.45054 0.47839 0.05409 0.0
C1384 C 0.37861 0.43858 0.05066 0.0
C1385 C 0.3432 0.45587 0.02377 0.0
N1386 N 0.4269 0.46728 0.05328 0.0
N1387 N 0.36673 0.4677 0.02432 0.0
H1388 H 0.37637 0.61285 0.77286 0.0
H1389 H 0.25711 0.66717 0.73924 0.0
H1390 H 0.31685 0.5694 0.72629 0.0
H1391 H 0.31357 0.70503 0.79261 0.0
H1392 H 0.27751 0.63043 0.73507 0.0
H1393 H 0.353 0.64664 0.78041 0.0
C1394 C 0.35838 0.61046 0.76417 0.0
C1395 C 0.34857 0.58835 0.74885 0.0
C1396 C 0.28525 0.6467 0.74787 0.0
C1397 C 0.32159 0.62694 0.75747 0.0
C1398 C 0.27353 0.66762 0.75038 0.0
C1399 C 0.2837 0.68935 0.76616 0.0
C1400 C 0.30732 0.64759 0.76117 0.0
C1401 C 0.30512 0.68886 0.78003 0.0
C1402 C 0.34497 0.62971 0.76857 0.0
C1403 C 0.32511 0.5862 0.73818 0.0
N1404 N 0.31627 0.66847 0.77704 0.0
N1405 N 0.31244 0.6053 0.74261 0.0
H1406 H 0.2084 0.6176 0.55588 0.0
H1407 H 0.09693 0.53279 0.47452 0.0
H1408 H 0.21531 0.58309 0.48307 0.0
H1409 H 0.09431 0.56047 0.55052 0.0
H1410 H 0.14016 0.5507 0.47678 0.0
H1411 H 0.16628 0.59658 0.55374 0.0
C1412 C 0.20102 0.60554 0.53943 0.0
C1413 C 0.21528 0.60211 0.51958 0.0
C1414 C 0.13009 0.55271 0.49295 0.0
C1415 C 0.16701 0.57799 0.51695 0.0
C1416 C 0.10542 0.54252 0.49168 0.0
C1417 C 0.09192 0.54527 0.51232 0.0
C1418 C 0.14123 0.56578 0.51498 0.0
C1419 C 0.10389 0.55797 0.53409 0.0
C1420 C 0.17696 0.59348 0.53822 0.0
C1421 C 0.20485 0.58621 0.49875 0.0
N1422 N 0.1278 0.56783 0.53479 0.0
N1423 N 0.18124 0.57478 0.49791 0.0
H1424 H 0.68822 0.95746 0.79901 0.0
H1425 H 0.76447 0.86519 0.72885 0.0
H1426 H 0.68895 0.94466 0.72039 0.0
H1427 H 0.75974 0.8727 0.80723 0.0
H1428 H 0.74381 0.90119 0.72617 0.0
H1429 H 0.72031 0.93262 0.80297 0.0
C1430 C 0.69523 0.94951 0.78259 0.0
C1431 C 0.68571 0.95273 0.75934 0.0
C1432 C 0.74763 0.89528 0.74402 0.0
C1433 C 0.72242 0.92451 0.7637 0.0
C1434 C 0.75953 0.87483 0.74556 0.0
C1435 C 0.7634 0.86584 0.76825 0.0
C1436 C 0.73936 0.90656 0.76532 0.0
C1437 C 0.75685 0.879 0.78936 0.0
C1438 C 0.71359 0.93544 0.78485 0.0
C1439 C 0.69559 0.94233 0.73866 0.0
N1440 N 0.74473 0.8985 0.78735 0.0
N1441 N 0.71329 0.92849 0.74134 0.0
H1442 H 0.69876 0.9189 0.49322 0.0
H1443 H 0.61673 0.00391 0.56524 0.0
H1444 H 0.71268 0.94506 0.56997 0.0
H1445 H 0.61679 0.99335 0.4865 0.0
H1446 H 0.65106 0.98169 0.56802 0.0
H1447 H 0.6673 0.94463 0.491 0.0
C1448 C 0.69516 0.93005 0.50963 0.0
C1449 C 0.70832 0.92982 0.53183 0.0
C1450 C 0.64371 0.98448 0.55015 0.0
C1451 C 0.67227 0.95938 0.52942 0.0
C1452 C 0.6242 -0.0028 0.54856 0.0
C1453 C 0.61398 0.00044 0.5256 0.0
C1454 C 0.65281 0.97469 0.52861 0.0
C1455 C 0.62418 0.99128 0.50456 0.0
C1456 C 0.67727 0.94485 0.50833 0.0
C1457 C 0.70293 0.94471 0.5525 0.0
N1458 N 0.64289 0.97863 0.50657 0.0
N1459 N 0.68522 0.95881 0.55083 0.0
H1460 H 0.31335 0.46387 0.7186 0.0
H1461 H 0.30788 0.33242 0.77464 0.0
H1462 H 0.377 0.43837 0.74561 0.0
H1463 H 0.25345 0.34338 0.7211 0.0
H1464 H 0.33239 0.37286 0.76673 0.0
H1465 H 0.28978 0.42121 0.72139 0.0
C1466 C 0.32238 0.44923 0.7249 0.0
C1467 C 0.3471 0.4546 0.73198 0.0
C1468 C 0.31518 0.36632 0.75655 0.0
C1469 C 0.32033 0.40618 0.73554 0.0
C1470 C 0.30123 0.34323 0.76101 0.0
C1471 C 0.2788 0.33446 0.74826 0.0
C1472 C 0.30638 0.38101 0.7396 0.0
C1473 C 0.27072 0.3495 0.73124 0.0
C1474 C 0.30896 0.42495 0.72644 0.0
C1475 C 0.35797 0.43501 0.73998 0.0
N1476 N 0.28445 0.37221 0.7275 0.0
N1477 N 0.34445 0.41173 0.74182 0.0
H1478 H 0.14977 0.58001 0.22071 0.0
H1479 H 0.24455 0.68848 0.30076 0.0
H1480 H 0.18704 0.56715 0.28735 0.0
H1481 H 0.21791 0.69534 0.22725 0.0
H1482 H 0.22172 0.64493 0.29763 0.0
H1483 H 0.17238 0.62364 0.22448 0.0
C1484 C 0.16264 0.58643 0.23619 0.0
C1485 C 0.16661 0.57 0.25372 0.0
C1486 C 0.22097 0.65598 0.28218 0.0
C1487 C 0.19255 0.61978 0.25814 0.0
C1488 C 0.23398 0.68083 0.28394 0.0
C1489 C 0.23316 0.6956 0.26424 0.0
C1490 C 0.20689 0.64591 0.26063 0.0
C1491 C 0.21916 0.68467 0.24289 0.0
C1492 C 0.17561 0.61129 0.23829 0.0
C1493 C 0.1835 0.57924 0.27341 0.0
N1494 N 0.20652 0.66054 0.2417 0.0
N1495 N 0.19587 0.60356 0.2751 0.0
H1496 H 0.54771 0.71352 0.43695 0.0
H1497 H 0.47992 0.59193 0.49647 0.0
H1498 H 0.47126 0.68388 0.42583 0.0
H1499 H 0.55758 0.61236 0.49626 0.0
H1500 H 0.47627 0.63 0.47671 0.0
H1501 H 0.55136 0.68059 0.46418 0.0
C1502 C 0.53168 0.70015 0.44034 0.0
C1503 C 0.50918 0.70125 0.42898 0.0
C1504 C 0.49411 0.62627 0.48118 0.0
C1505 C 0.51319 0.66371 0.46015 0.0
C1506 C 0.49625 0.60456 0.49258 0.0
C1507 C 0.51912 0.59871 0.49777 0.0
C1508 C 0.51497 0.64231 0.47492 0.0
C1509 C 0.53958 0.61596 0.49242 0.0
C1510 C 0.53377 0.68139 0.45587 0.0
C1511 C 0.48898 0.68357 0.43407 0.0
N1512 N 0.53702 0.63688 0.48108 0.0
N1513 N 0.49148 0.66547 0.44923 0.0
H1514 H 0.62096 0.29197 0.66208 0.0
H1515 H 0.69459 0.32254 0.79172 0.0
H1516 H 0.58794 0.31935 0.72619 0.0
H1517 H 0.70461 0.26345 0.73646 0.0
H1518 H 0.66 0.3303 0.76631 0.0
H1519 H 0.65751 0.29162 0.68735 0.0
C1520 C 0.62151 0.29822 0.68144 0.0
C1521 C 0.60131 0.30539 0.69215 0.0
C1522 C 0.67 0.3158 0.75981 0.0
C1523 C 0.64304 0.30496 0.72111 0.0
C1524 C 0.68962 0.31137 0.77423 0.0
C1525 C 0.7026 0.29257 0.76597 0.0
C1526 C 0.66378 0.30157 0.73697 0.0
C1527 C 0.6954 0.27847 0.7433 0.0
C1528 C 0.64232 0.2979 0.69584 0.0
C1529 C 0.60309 0.31347 0.71731 0.0
N1530 N 0.6766 0.28338 0.72953 0.0
N1531 N 0.62361 0.31291 0.73106 0.0
H1532 H 0.03108 0.32611 0.94979 0.0
H1533 H 0.98002 0.45604 0.9614 0.0
H1534 H 0.98395 0.34632 0.89387 0.0
H1535 H 0.04381 0.44535 0.00251 0.0
H1536 H 0.97737 0.41356 0.93968 0.0
H1537 H 0.03256 0.3679 0.97236 0.0
C1538 C 0.02111 0.33939 0.94224 0.0
C1539 C 0.00746 0.33285 0.91991 0.0
C1540 C 0.9919 0.42055 0.9535 0.0
C1541 C 0.00879 0.38044 0.94573 0.0
C1542 C 0.99333 0.44469 0.96601 0.0
C1543 C 0.01222 0.45427 0.98371 0.0
C1544 C 0.00929 0.40583 0.95899 0.0
C1545 C 0.02904 0.4388 0.98887 0.0
C1546 C 0.02195 0.36321 0.95511 0.0
C1547 C 0.99481 0.35071 0.91097 0.0
N1548 N 0.02716 0.41534 0.97659 0.0
N1549 N 0.99568 0.37368 0.92398 0.0
H1550 H 0.97957 0.75991 0.20897 0.0
H1551 H 0.87183 0.83249 0.24093 0.0
H1552 H 0.98181 0.83913 0.19909 0.0
H1553 H 0.8768 0.75888 0.26419 0.0
H1554 H 0.91295 0.83623 0.22723 0.0
H1555 H 0.94279 0.7598 0.23095 0.0
C1556 C 0.97242 0.77734 0.21164 0.0
C1557 C 0.9836 0.7995 0.20205 0.0
C1558 C 0.90517 0.81939 0.23559 0.0
C1559 C 0.94144 0.79948 0.22695 0.0
C1560 C 0.88172 0.81726 0.24339 0.0
C1561 C 0.87095 0.79527 0.2535 0.0
C1562 C 0.91774 0.79923 0.23768 0.0
C1563 C 0.88448 0.7761 0.25637 0.0
C1564 C 0.95145 0.77729 0.22421 0.0
C1565 C 0.97368 0.8216 0.20611 0.0
N1566 N 0.90709 0.77839 0.24823 0.0
N1567 N 0.95299 0.82096 0.21802 0.0
H1568 H 0.54236 0.34386 0.10522 0.0
H1569 H 0.48198 0.42427 0.01226 0.0
H1570 H 0.47183 0.31705 0.06886 0.0
H1571 H 0.55272 0.44824 0.049 0.0
H1572 H 0.47862 0.38351 0.02997 0.0
H1573 H 0.54698 0.38112 0.0825 0.0
C1574 C 0.52781 0.34583 0.09242 0.0
C1575 C 0.50662 0.32742 0.08902 0.0
C1576 C 0.49496 0.39763 0.03392 0.0
C1577 C 0.51177 0.37017 0.06282 0.0
C1578 C 0.49695 0.42082 0.02369 0.0
C1579 C 0.5176 0.43976 0.02928 0.0
C1580 C 0.51377 0.39343 0.04978 0.0
C1581 C 0.53636 0.43433 0.04436 0.0
C1582 C 0.53047 0.36711 0.07938 0.0
C1583 C 0.48843 0.33089 0.07208 0.0
N1584 N 0.53392 0.41179 0.05416 0.0
N1585 N 0.49136 0.35195 0.05966 0.0
H1586 H 0.95096 0.27605 0.39993 0.0
H1587 H 0.88163 0.32938 0.29153 0.0
H1588 H 0.98236 0.29393 0.33199 0.0
H1589 H 0.84687 0.29856 0.35343 0.0
H1590 H 0.92061 0.32389 0.30961 0.0
H1591 H 0.91424 0.29008 0.38591 0.0
C1592 C 0.95007 0.28281 0.382 0.0
C1593 C 0.96962 0.28358 0.36698 0.0
C1594 C 0.9045 0.31871 0.31941 0.0
C1595 C 0.92781 0.30004 0.35098 0.0
C1596 C 0.8823 0.32211 0.30924 0.0
C1597 C 0.86105 0.31421 0.32095 0.0
C1598 C 0.90533 0.3074 0.34143 0.0
C1599 C 0.86287 0.30475 0.34377 0.0
C1600 C 0.92916 0.29094 0.37406 0.0
C1601 C 0.9676 0.29277 0.34403 0.0
N1602 N 0.8846 0.30134 0.35315 0.0
N1603 N 0.94704 0.30063 0.33671 0.0
H1604 H 0.98003 0.71081 0.55074 0.0
H1605 H 0.02921 0.58219 0.54563 0.0
H1606 H 0.99673 0.67591 0.61554 0.0
H1607 H 0.97752 0.59328 0.48929 0.0
H1608 H 0.02182 0.62023 0.56959 0.0
H1609 H 0.98229 0.67089 0.52578 0.0
C1610 C 0.9839 0.6947 0.5597 0.0
C1611 C 0.98835 0.69664 0.58518 0.0
C1612 C 0.01197 0.61427 0.55205 0.0
C1613 C 0.99137 0.65157 0.55694 0.0
C1614 C 0.01615 0.59257 0.53839 0.0
C1615 C 0.00357 0.58438 0.51573 0.0
C1616 C 0.99557 0.6283 0.54269 0.0
C1617 C 0.98739 0.59894 0.50684 0.0
C1618 C 0.98514 0.67202 0.5455 0.0
C1619 C 0.99325 0.67526 0.59594 0.0
N1620 N 0.9839 0.62041 0.52033 0.0
N1621 N 0.99495 0.65373 0.58173 0.0
H1622 H 0.60384 0.80191 0.85236 0.0
H1623 H 0.6829 0.7164 0.77808 0.0
H1624 H 0.57983 0.72117 0.83376 0.0
H1625 H 0.69545 0.79851 0.78185 0.0
H1626 H 0.64455 0.71717 0.79707 0.0
H1627 H 0.63732 0.80064 0.82595 0.0
C1628 C 0.60561 0.7839 0.84264 0.0
C1629 C 0.58916 0.76157 0.84536 0.0
C1630 C 0.65557 0.73497 0.79342 0.0
C1631 C 0.62756 0.75993 0.81512 0.0
C1632 C 0.67747 0.73456 0.78254 0.0
C1633 C 0.69262 0.75745 0.77862 0.0
C1634 C 0.64892 0.75843 0.80062 0.0
C1635 C 0.68454 0.78038 0.7847 0.0
C1636 C 0.62466 0.7832 0.82745 0.0
C1637 C 0.59219 0.7388 0.83219 0.0
N1638 N 0.66343 0.78029 0.79567 0.0
N1639 N 0.6112 0.73849 0.8178 0.0
H1640 H 0.40331 0.50971 0.65427 0.0
H1641 H 0.52245 0.57759 0.59551 0.0
H1642 H 0.45609 0.56856 0.69507 0.0
H1643 H 0.48026 0.50491 0.56673 0.0
H1644 H 0.49583 0.57859 0.62974 0.0
H1645 H 0.42851 0.51209 0.61928 0.0
C1646 C 0.42016 0.52326 0.65583 0.0
C1647 C 0.42768 0.53887 0.67767 0.0
C1648 C 0.49235 0.56254 0.6158 0.0
C1649 C 0.45669 0.54168 0.63758 0.0
C1650 C 0.50748 0.56198 0.59628 0.0
C1651 C 0.50335 0.54127 0.57812 0.0
C1652 C 0.47291 0.54233 0.61698 0.0
C1653 C 0.48381 0.52148 0.58004 0.0
C1654 C 0.43459 0.52454 0.63585 0.0
C1655 C 0.44968 0.5561 0.67859 0.0
N1656 N 0.46931 0.52252 0.59905 0.0
N1657 N 0.46346 0.55704 0.65882 0.0
H1658 H 0.74223 0.19529 0.9812 0.0
H1659 H 0.81087 0.25324 0.87042 0.0
H1660 H 0.81736 0.19383 0.97044 0.0
H1661 H 0.7396 0.26504 0.88794 0.0
H1662 H 0.815 0.23498 0.90913 0.0
H1663 H 0.742 0.22397 0.94925 0.0
C1664 C 0.75874 0.20118 0.97221 0.0
C1665 C 0.77977 0.19196 0.9782 0.0
C1666 C 0.79858 0.24187 0.90471 0.0
C1667 C 0.77963 0.22466 0.94159 0.0
C1668 C 0.79622 0.25228 0.88264 0.0
C1669 C 0.77476 0.26033 0.87599 0.0
C1670 C 0.77918 0.2392 0.92003 0.0
C1671 C 0.75638 0.25887 0.89242 0.0
C1672 C 0.75862 0.21762 0.95403 0.0
C1673 C 0.80071 0.20036 0.9662 0.0
N1674 N 0.75887 0.24813 0.91359 0.0
N1675 N 0.80004 0.21603 0.94823 0.0
H1676 H 0.06356 0.45559 0.18816 0.0
H1677 H 0.05968 0.53438 0.07736 0.0
H1678 H 0.12814 0.49176 0.15678 0.0
H1679 H 0.00514 0.46701 0.0784 0.0
H1680 H 0.0835 0.51982 0.10907 0.0
H1681 H 0.04031 0.4585 0.14997 0.0
C1682 C 0.07293 0.46353 0.17305 0.0
C1683 C 0.0977 0.47395 0.17574 0.0
C1684 C 0.06649 0.50796 0.10219 0.0
C1685 C 0.07133 0.47761 0.13259 0.0
C1686 C 0.0529 0.51623 0.08402 0.0
C1687 C 0.03077 0.5015 0.07479 0.0
C1688 C 0.05756 0.48516 0.11195 0.0
C1689 C 0.02229 0.47874 0.08493 0.0
C1690 C 0.05966 0.46518 0.15134 0.0
C1691 C 0.109 0.48392 0.15563 0.0
N1692 N 0.03566 0.47129 0.10328 0.0
N1693 N 0.09564 0.48596 0.13508 0.0
H1694 H 0.73901 0.81818 0.46639 0.0
H1695 H 0.80768 0.82745 0.34205 0.0
H1696 H 0.79623 0.88004 0.45439 0.0
H1697 H 0.73646 0.78245 0.34501 0.0
H1698 H 0.80706 0.84201 0.38543 0.0
H1699 H 0.74107 0.79998 0.42392 0.0
C1700 C 0.75209 0.8278 0.4549 0.0
C1701 C 0.76738 0.8507 0.46385 0.0
C1702 C 0.79159 0.8289 0.37659 0.0
C1703 C 0.76995 0.83001 0.41557 0.0
C1704 C 0.79196 0.8205 0.35183 0.0
C1705 C 0.77203 0.80383 0.33979 0.0
C1706 C 0.77127 0.82036 0.38956 0.0
C1707 C 0.75215 0.79549 0.35348 0.0
C1708 C 0.75319 0.81749 0.43069 0.0
C1709 C 0.78398 0.86243 0.44819 0.0
N1710 N 0.75228 0.80382 0.37765 0.0
N1711 N 0.78485 0.85195 0.42489 0.0
H1712 H 0.4501 0.50897 0.79376 0.0
H1713 H 0.4309 0.50309 0.93662 0.0
H1714 H 0.3854 0.52325 0.82731 0.0
H1715 H 0.49088 0.47909 0.90099 0.0
H1716 H 0.41307 0.509 0.89663 0.0
H1717 H 0.46516 0.4976 0.83289 0.0
C1718 C 0.43912 0.50984 0.8094 0.0
C1719 C 0.41653 0.51721 0.80732 0.0
C1720 C 0.42998 0.50213 0.8975 0.0
C1721 C 0.43355 0.50402 0.85214 0.0
C1722 C 0.44007 0.4986 0.92032 0.0
C1723 C 0.46241 0.49065 0.92208 0.0
C1724 C 0.44244 0.49792 0.87634 0.0
C1725 C 0.47361 0.48524 0.90042 0.0
C1726 C 0.44765 0.50319 0.8317 0.0
C1727 C 0.40298 0.51779 0.82814 0.0
N1728 N 0.46365 0.48924 0.87848 0.0
N1729 N 0.41172 0.51136 0.84968 0.0
H1730 H 0.82408 0.18727 0.09822 0.0
H1731 H 0.75752 0.26586 0.19625 0.0
H1732 H 0.74782 0.18891 0.09172 0.0
H1733 H 0.8296 0.25105 0.20817 0.0
H1734 H 0.75436 0.24121 0.15597 0.0
H1735 H 0.8274 0.21454 0.13679 0.0
C1736 C 0.80806 0.19345 0.1049 0.0
C1737 C 0.78564 0.18577 0.0919 0.0
C1738 C 0.77086 0.24339 0.16744 0.0
C1739 C 0.78925 0.21691 0.13589 0.0
C1740 C 0.77259 0.25733 0.19039 0.0
C1741 C 0.7937 0.26016 0.20552 0.0
C1742 C 0.7905 0.23248 0.15967 0.0
C1743 C 0.81297 0.24924 0.19701 0.0
C1744 C 0.80994 0.20896 0.12691 0.0
C1745 C 0.76544 0.19433 0.10129 0.0
N1746 N 0.81089 0.23585 0.17466 0.0
N1747 N 0.76771 0.20945 0.12278 0.0
H1748 H 0.06786 0.52236 0.28938 0.0
H1749 H 0.03881 0.46185 0.41345 0.0
H1750 H 0.08556 0.45039 0.30548 0.0
H1751 H 0.01267 0.52825 0.39297 0.0
H1752 H 0.05184 0.45447 0.37198 0.0
H1753 H 0.04326 0.52212 0.32487 0.0
C1754 C 0.06628 0.50634 0.30022 0.0
C1755 C 0.07901 0.48655 0.29476 0.0
C1756 C 0.04296 0.47046 0.37642 0.0
C1757 C 0.05118 0.48627 0.3355 0.0
C1758 C 0.03558 0.47469 0.40008 0.0
C1759 C 0.02501 0.49588 0.40659 0.0
C1760 C 0.03999 0.48775 0.35932 0.0
C1761 C 0.02098 0.51182 0.38865 0.0
C1762 C 0.05223 0.50619 0.32047 0.0
C1763 C 0.0762 0.46614 0.30922 0.0
N1764 N 0.02879 0.50764 0.36587 0.0
N1765 N 0.06286 0.4667 0.32918 0.0
H1766 H 0.79066 0.86805 0.61381 0.0
H1767 H 0.72208 0.75123 0.68041 0.0
H1768 H 0.72768 0.81641 0.5806 0.0
H1769 H 0.78694 0.80218 0.71007 0.0
H1770 H 0.72261 0.77503 0.64422 0.0
H1771 H 0.78846 0.8444 0.64964 0.0
C1772 C 0.77634 0.85167 0.61404 0.0
C1773 C 0.75935 0.84419 0.59413 0.0
C1774 C 0.73665 0.78105 0.65872 0.0
C1775 C 0.75666 0.81686 0.63536 0.0
C1776 C 0.73633 0.7675 0.67936 0.0
C1777 C 0.75439 0.77486 0.69834 0.0
C1778 C 0.7552 0.80206 0.65708 0.0
C1779 C 0.77248 0.796 0.69604 0.0
C1780 C 0.77508 0.83815 0.63457 0.0
C1781 C 0.74117 0.82281 0.59554 0.0
N1782 N 0.77242 0.8088 0.67583 0.0
N1783 N 0.7403 0.80988 0.61581 0.0
H1784 H 0.71054 0.45173 0.55698 0.0
H1785 H 0.62623 0.53004 0.48658 0.0
H1786 H 0.69753 0.44563 0.47852 0.0
H1787 H 0.62541 0.52347 0.56419 0.0
H1788 H 0.66044 0.5079 0.48464 0.0
H1789 H 0.68636 0.48542 0.56089 0.0
C1790 C 0.70267 0.45756 0.5406 0.0
C1791 C 0.70571 0.44568 0.51742 0.0
C1792 C 0.65307 0.51169 0.50219 0.0
C1793 C 0.67845 0.48429 0.52171 0.0
C1794 C 0.63368 0.52451 0.50334 0.0
C1795 C 0.62284 0.52819 0.52552 0.0
C1796 C 0.66154 0.50243 0.52336 0.0
C1797 C 0.6332 0.52077 0.5467 0.0
C1798 C 0.68897 0.47681 0.54283 0.0
C1799 C 0.69535 0.45407 0.49676 0.0
N1800 N 0.65179 0.50782 0.54504 0.0
N1801 N 0.68209 0.4728 0.49941 0.0
H1802 H 0.183 0.13751 0.50386 0.0
H1803 H 0.09418 0.00371 0.47505 0.0
H1804 H 0.2096 0.06837 0.48367 0.0
H1805 H 0.07584 0.06803 0.51829 0.0
H1806 H 0.13593 0.02695 0.47505 0.0
H1807 H 0.14259 0.1125 0.50546 0.0
C1808 C 0.1803 0.11704 0.49964 0.0
C1809 C 0.19966 0.10498 0.4936 0.0
C1810 C 0.12276 0.03583 0.48467 0.0
C1811 C 0.15338 0.07619 0.49543 0.0
C1812 C 0.099 0.02261 0.48469 0.0
C1813 C 0.08157 0.03405 0.49657 0.0
C1814 C 0.12892 0.06073 0.49635 0.0
C1815 C 0.0887 0.05854 0.50882 0.0
C1816 C 0.15725 0.10275 0.50071 0.0
C1817 C 0.19513 0.07838 0.48842 0.0
N1818 N 0.11175 0.07114 0.50819 0.0
N1819 N 0.17239 0.06483 0.48935 0.0
H1820 H 0.21583 0.95894 0.79722 0.0
H1821 H 0.21019 0.81807 0.7319 0.0
H1822 H 0.15548 0.91767 0.75037 0.0
H1823 H 0.26603 0.8548 0.7864 0.0
H1824 H 0.19209 0.85615 0.73539 0.0
H1825 H 0.23635 0.92254 0.79081 0.0
C1826 C 0.20691 0.94222 0.78557 0.0
C1827 C 0.18387 0.94127 0.77439 0.0
C1828 C 0.20838 0.85594 0.7465 0.0
C1829 C 0.20728 0.89962 0.76687 0.0
C1830 C 0.21882 0.83421 0.74444 0.0
C1831 C 0.23967 0.83312 0.75895 0.0
C1832 C 0.21882 0.87685 0.76316 0.0
C1833 C 0.24995 0.8547 0.77488 0.0
C1834 C 0.21863 0.92146 0.78191 0.0
C1835 C 0.17319 0.91917 0.75942 0.0
N1836 N 0.23937 0.87563 0.77662 0.0
N1837 N 0.18497 0.89923 0.75611 0.0
H1838 H 0.31478 0.94307 0.96999 0.0
H1839 H 0.4349 0.00403 0.05219 0.0
H1840 H 0.321 0.94381 0.04862 0.0
H1841 H 0.43252 0.9851 0.97389 0.0
H1842 H 0.39105 0.99087 0.05099 0.0
H1843 H 0.3558 0.96755 0.97122 0.0
C1844 C 0.3247 0.94866 0.98754 0.0
C1845 C 0.31472 0.94113 0.00922 0.0
C1846 C 0.40016 0.98983 0.03408 0.0
C1847 C 0.3615 0.96899 0.01073 0.0
C1848 C 0.42516 -0.00264 0.03472 0.0
C1849 C 0.43739 0.99524 0.01315 0.0
C1850 C 0.38738 0.9803 0.0117 0.0
C1851 C 0.42385 0.98665 0.99102 0.0
C1852 C 0.34809 0.96257 0.98822 0.0
C1853 C 0.32821 0.949 0.03148 0.0
N1854 N 0.39955 0.97932 0.99089 0.0
N1855 N 0.35106 0.96235 0.03165 0.0
H1856 H 0.84825 0.58029 0.81242 0.0
H1857 H 0.77901 0.65279 0.71976 0.0
H1858 H 0.86362 0.58433 0.73648 0.0
H1859 H 0.77131 0.65811 0.79771 0.0
H1860 H 0.80296 0.61944 0.72384 0.0
H1861 H 0.81398 0.60155 0.80576 0.0
C1862 C 0.84435 0.5856 0.79433 0.0
C1863 C 0.85896 0.58094 0.77505 0.0
C1864 C 0.79564 0.62756 0.73999 0.0
C1865 C 0.81975 0.60502 0.76725 0.0
C1866 C 0.78181 0.64642 0.73762 0.0
C1867 C 0.77357 0.65838 0.75849 0.0
C1868 C 0.80121 0.6208 0.76338 0.0
C1869 C 0.77764 0.64949 0.78121 0.0
C1870 C 0.82474 0.59762 0.79051 0.0
C1871 C 0.85297 0.5879 0.75192 0.0
N1872 N 0.79151 0.63147 0.78313 0.0
N1873 N 0.8339 0.59977 0.7487 0.0
H1874 H 0.82307 0.60304 0.04411 0.0
H1875 H 0.92349 0.54244 0.97219 0.0
H1876 H 0.8281 0.60032 0.96585 0.0
H1877 H 0.92299 0.55275 0.05089 0.0
H1878 H 0.88607 0.55952 0.9692 0.0
H1879 H 0.85721 0.58072 0.04668 0.0
C1880 C 0.83127 0.59761 0.02744 0.0
C1881 C 0.8228 0.60366 0.00474 0.0
C1882 C 0.89404 0.55789 0.98713 0.0
C1883 C 0.86194 0.57813 0.00753 0.0
C1884 C 0.91534 0.54805 0.98883 0.0
C1885 C 0.92633 0.54625 0.01182 0.0
C1886 C 0.88365 0.56596 0.00859 0.0
C1887 C 0.9151 0.55387 0.0328 0.0
C1888 C 0.85079 0.5849 0.02892 0.0
C1889 C 0.8341 0.59613 0.98374 0.0
N1890 N 0.89444 0.56348 0.03069 0.0
N1891 N 0.85312 0.58384 0.98565 0.0
H1892 H 0.15495 0.09369 0.78119 0.0
H1893 H 0.28039 0.19059 0.80591 0.0
H1894 H 0.22145 0.06915 0.80076 0.0
H1895 H 0.22227 0.20363 0.75788 0.0
H1896 H 0.25703 0.1485 0.81134 0.0
H1897 H 0.17749 0.13693 0.78006 0.0
C1898 C 0.17428 0.09747 0.78547 0.0
C1899 C 0.18642 0.07784 0.79096 0.0
C1900 C 0.24939 0.16067 0.79973 0.0
C1901 C 0.2122 0.12718 0.78979 0.0
C1902 C 0.26264 0.18466 0.79668 0.0
C1903 C 0.25317 0.20053 0.78145 0.0
C1904 C 0.22642 0.15278 0.78775 0.0
C1905 C 0.23014 0.19199 0.76987 0.0
C1906 C 0.18711 0.12209 0.78471 0.0
C1907 C 0.21146 0.08375 0.79632 0.0
N1908 N 0.21749 0.16869 0.77331 0.0
N1909 N 0.22357 0.10796 0.79563 0.0
H1910 H 0.35231 0.97912 0.24744 0.0
H1911 H 0.31619 0.85375 0.31555 0.0
H1912 H 0.38847 0.96596 0.31461 0.0
H1913 H 0.29132 0.85956 0.24118 0.0
H1914 H 0.33968 0.8967 0.31716 0.0
H1915 H 0.32714 0.93681 0.24621 0.0
C1916 C 0.35498 0.96727 0.26188 0.0
C1917 C 0.3725 0.97595 0.28113 0.0
C1918 C 0.32905 0.88859 0.30051 0.0
C1919 C 0.34371 0.92779 0.27996 0.0
C1920 C 0.31551 0.8641 0.2996 0.0
C1921 C 0.30184 0.85297 0.27814 0.0
C1922 C 0.32882 0.90214 0.27987 0.0
C1923 C 0.3017 0.86733 0.25805 0.0
C1924 C 0.34063 0.94317 0.26118 0.0
C1925 C 0.37522 0.95992 0.2994 0.0
N1926 N 0.31504 0.89119 0.2594 0.0
N1927 N 0.3609 0.93661 0.29841 0.0
H1928 H 0.5723 0.36126 0.60663 0.0
H1929 H 0.48747 0.43257 0.52913 0.0
H1930 H 0.4961 0.33316 0.5905 0.0
H1931 H 0.56502 0.45561 0.53835 0.0
H1932 H 0.49066 0.39408 0.54849 0.0
H1933 H 0.57043 0.39426 0.57917 0.0
C1934 C 0.5552 0.36198 0.5972 0.0
C1935 C 0.53427 0.34465 0.60099 0.0
C1936 C 0.50701 0.40741 0.54601 0.0
C1937 C 0.53196 0.38234 0.56961 0.0
C1938 C 0.5052 0.42941 0.53492 0.0
C1939 C 0.52597 0.44755 0.53239 0.0
C1940 C 0.52971 0.40363 0.55483 0.0
C1941 C 0.54848 0.44229 0.54009 0.0
C1942 C 0.55415 0.38077 0.58147 0.0
C1943 C 0.51263 0.34629 0.5882 0.0
N1944 N 0.54971 0.42097 0.55124 0.0
N1945 N 0.51198 0.36497 0.57323 0.0
H1946 H 0.44598 0.72731 0.30805 0.0
H1947 H 0.32708 0.78553 0.30888 0.0
H1948 H 0.41762 0.75636 0.37438 0.0
H1949 H 0.33559 0.72692 0.25247 0.0
H1950 H 0.36249 0.77754 0.33162 0.0
H1951 H 0.40755 0.72861 0.28574 0.0
C1952 C 0.43159 0.73364 0.31795 0.0
C1953 C 0.435 0.74191 0.34304 0.0
C1954 C 0.35652 0.76623 0.31439 0.0
C1955 C 0.39147 0.74382 0.3177 0.0
C1956 C 0.33625 0.77072 0.30142 0.0
C1957 C 0.32814 0.75649 0.27902 0.0
C1958 C 0.36923 0.74783 0.3046 0.0
C1959 C 0.34121 0.73814 0.26981 0.0
C1960 C 0.40973 0.73435 0.30524 0.0
C1961 C 0.4158 0.74991 0.35502 0.0
N1962 N 0.36131 0.73442 0.28259 0.0
N1963 N 0.39499 0.75098 0.34218 0.0
H1964 H 0.06271 0.71451 0.14366 0.0
H1965 H 0.00529 0.61626 0.02963 0.0
H1966 H 0.0124 0.73126 0.08878 0.0
H1967 H 0.06703 0.60598 0.07428 0.0
H1968 H 0.0069 0.6579 0.05201 0.0
H1969 H 0.06346 0.67383 0.11978 0.0
C1970 C 0.05175 0.70956 0.12664 0.0
C1971 C 0.0374 0.72619 0.11819 0.0
C1972 C 0.02023 0.64666 0.05683 0.0
C1973 C 0.03823 0.67986 0.09083 0.0
C1974 C 0.01931 0.62284 0.04406 0.0
C1975 C 0.03601 0.60758 0.05016 0.0
C1976 C 0.0378 0.65525 0.07606 0.0
C1977 C 0.05386 0.61718 0.06893 0.0
C1978 C 0.0523 0.68644 0.11297 0.0
C1979 C 0.02368 0.71896 0.09597 0.0
N1980 N 0.05415 0.64035 0.0814 0.0
N1981 N 0.02437 0.6963 0.0831 0.0
H1982 H 0.07994 0.24595 0.87417 0.0
H1983 H 0.15346 0.27788 0.75741 0.0
H1984 H 0.04735 0.27301 0.81163 0.0
H1985 H 0.17229 0.22743 0.8088 0.0
H1986 H 0.11514 0.27822 0.77697 0.0
H1987 H 0.11523 0.24187 0.85113 0.0
C1988 C 0.08027 0.25116 0.85558 0.0
C1989 C 0.06075 0.25992 0.8448 0.0
C1990 C 0.12755 0.26683 0.78372 0.0
C1991 C 0.10114 0.25523 0.81825 0.0
C1992 C 0.14934 0.26659 0.77256 0.0
C1993 C 0.16602 0.25269 0.78162 0.0
C1994 C 0.12272 0.25339 0.80424 0.0
C1995 C 0.15993 0.23844 0.8013 0.0
C1996 C 0.10036 0.24863 0.84237 0.0
C1997 C 0.06208 0.26621 0.8206 0.0
N1998 N 0.13889 0.2394 0.81214 0.0
N1999 N 0.08205 0.2639 0.80814 0.0
H2000 H 0.49167 0.68637 0.91962 0.0
H2001 H 0.5549 0.6079 0.01209 0.0
H2002 H 0.56314 0.71375 0.95364 0.0
H2003 H 0.48272 0.58411 0.97865 0.0
H2004 H 0.55761 0.64838 0.99394 0.0
H2005 H 0.48758 0.65007 0.94359 0.0
C2006 C 0.50653 0.68473 0.93217 0.0
C2007 C 0.52784 0.703 0.93452 0.0
C2008 C 0.5411 0.63438 0.99084 0.0
C2009 C 0.52331 0.66134 0.96215 0.0
C2010 C 0.53949 0.61136 0.00133 0.0
C2011 C 0.51863 0.59253 0.99672 0.0
C2012 C 0.5217 0.63848 0.97572 0.0
C2013 C 0.49927 0.59793 0.98248 0.0
C2014 C 0.50417 0.664 0.94594 0.0
C2015 C 0.54644 0.7 0.95122 0.0
N2016 N 0.50136 0.62028 0.97238 0.0
N2017 N 0.54381 0.67944 0.96432 0.0
H2018 H 0.04975 0.74268 0.694 0.0
H2019 H 0.18775 0.73748 0.67336 0.0
H2020 H 0.08305 0.75724 0.62624 0.0
H2021 H 0.15189 0.71155 0.7366 0.0
H2022 H 0.14883 0.74156 0.65443 0.0
H2023 H 0.08649 0.72949 0.70934 0.0
C2024 C 0.06484 0.7432 0.6824 0.0
C2025 C 0.06347 0.75129 0.65892 0.0
C2026 C 0.14936 0.73456 0.67227 0.0
C2027 C 0.10543 0.73599 0.67621 0.0
C2028 C 0.17156 0.73206 0.68299 0.0
C2029 C 0.17297 0.72433 0.7066 0.0
C2030 C 0.1285 0.72965 0.68543 0.0
C2031 C 0.15152 0.71758 0.71834 0.0
C2032 C 0.08573 0.73547 0.69108 0.0
C2033 C 0.08343 0.75132 0.64454 0.0
N2034 N 0.13016 0.72081 0.7078 0.0
N2035 N 0.10362 0.74392 0.65347 0.0
H2036 H 0.05508 0.32786 0.47041 0.0
H2037 H 0.00181 0.45414 0.47182 0.0
H2038 H 0.03566 0.35911 0.40433 0.0
H2039 H 0.05408 0.44547 0.52862 0.0
H2040 H 0.01007 0.41599 0.44858 0.0
H2041 H 0.05182 0.36818 0.49404 0.0
C2042 C 0.05043 0.34328 0.46089 0.0
C2043 C 0.04553 0.34018 0.43544 0.0
C2044 C 0.01985 0.42253 0.46606 0.0
C2045 C 0.04132 0.38573 0.4622 0.0
C2046 C 0.01519 0.44429 0.47929 0.0
C2047 C 0.02766 0.45317 0.50188 0.0
C2048 C 0.03664 0.40915 0.47581 0.0
C2049 C 0.04425 0.43927 0.51112 0.0
C2050 C 0.04859 0.36619 0.47433 0.0
C2051 C 0.03956 0.36069 0.42393 0.0
N2052 N 0.04821 0.41776 0.49807 0.0
N2053 N 0.0373 0.38248 0.43744 0.0
H2054 H 0.45684 0.30553 0.19127 0.0
H2055 H 0.3358 0.22609 0.23696 0.0
H2056 H 0.42618 0.22805 0.16365 0.0
H2057 H 0.3537 0.30821 0.24774 0.0
H2058 H 0.37342 0.22546 0.21684 0.0
H2059 H 0.42313 0.30579 0.2181 0.0
C2060 C 0.44308 0.28857 0.19094 0.0
C2061 C 0.44415 0.26681 0.1751 0.0
C2062 C 0.36921 0.24361 0.2238 0.0
C2063 C 0.40589 0.26687 0.20582 0.0
C2064 C 0.34777 0.244 0.23545 0.0
C2065 C 0.34139 0.26728 0.24384 0.0
C2066 C 0.38449 0.26662 0.2206 0.0
C2067 C 0.35775 0.28983 0.24137 0.0
C2068 C 0.42389 0.28874 0.20621 0.0
C2069 C 0.42593 0.24532 0.17542 0.0
N2070 N 0.37849 0.28895 0.22982 0.0
N2071 N 0.40757 0.24589 0.19053 0.0
H2072 H 0.64045 0.53478 0.37386 0.0
H2073 H 0.52213 0.46864 0.43498 0.0
H2074 H 0.58555 0.47762 0.33376 0.0
H2075 H 0.56543 0.5409 0.46336 0.0
H2076 H 0.54805 0.46735 0.40025 0.0
H2077 H 0.61624 0.53262 0.40964 0.0
C2078 C 0.62335 0.52164 0.37263 0.0
C2079 C 0.61493 0.50644 0.35076 0.0
C2080 C 0.55194 0.48337 0.41421 0.0
C2081 C 0.58712 0.50388 0.39171 0.0
C2082 C 0.53721 0.4841 0.43401 0.0
C2083 C 0.54182 0.50478 0.45218 0.0
C2084 C 0.57148 0.50338 0.41274 0.0
C2085 C 0.5615 0.52436 0.45002 0.0
C2086 C 0.60951 0.52049 0.39305 0.0
C2087 C 0.59265 0.48975 0.35024 0.0
N2088 N 0.57562 0.52316 0.43071 0.0
N2089 N 0.57947 0.48891 0.37043 0.0
H2090 H 0.20797 0.84426 0.06905 0.0
H2091 H 0.28285 0.77004 0.15549 0.0
H2092 H 0.27932 0.82986 0.0552 0.0
H2093 H 0.22235 0.80359 0.1784 0.0
H2094 H 0.27674 0.78314 0.11445 0.0
H2095 H 0.20804 0.82048 0.10503 0.0
C2096 C 0.22349 0.83578 0.0734 0.0
C2097 C 0.24381 0.83927 0.05942 0.0
C2098 C 0.26468 0.7874 0.12842 0.0
C2099 C 0.24401 0.81219 0.10031 0.0
C2100 C 0.26813 0.77991 0.15175 0.0
C2101 C 0.25328 0.78612 0.17027 0.0
C2102 C 0.24616 0.801 0.12368 0.0
C2103 C 0.23438 0.79878 0.1646 0.0
C2104 C 0.22355 0.82231 0.09393 0.0
C2105 C 0.26341 0.82785 0.06573 0.0
N2106 N 0.23143 0.80596 0.14179 0.0
N2107 N 0.26311 0.81495 0.08584 0.0
H2108 H 0.9368 0.58525 0.86753 0.0
H2109 H 0.05611 0.56332 0.93997 0.0
H2110 H 0.99292 0.5522 0.83327 0.0
H2111 H 0.98826 0.56294 0.97308 0.0
H2112 H 0.03756 0.57245 0.90133 0.0
H2113 H 0.96024 0.59011 0.90692 0.0
C2114 C 0.95428 0.57954 0.86823 0.0
C2115 C 0.96288 0.56802 0.84731 0.0
C2116 C 0.02681 0.57058 0.91714 0.0
C2117 C 0.98963 0.57365 0.89191 0.0
C2118 C 0.03736 0.56546 0.93911 0.0
C2119 C 0.02333 0.56164 0.9593 0.0
C2120 C 0.00225 0.57231 0.91567 0.0
C2121 C -0.00076 0.56478 0.95751 0.0
C2122 C 0.96754 0.58221 0.89065 0.0
C2123 C 0.98558 0.56089 0.8491 0.0
N2124 N 0.98934 0.56981 0.93596 0.0
N2125 N -0.00186 0.56369 0.8711 0.0
H2126 H 0.29454 0.22062 0.56199 0.0
H2127 H 0.22566 0.2187 0.68662 0.0
H2128 H 0.23533 0.1616 0.57563 0.0
H2129 H 0.297 0.26268 0.6817 0.0
H2130 H 0.22578 0.20231 0.64364 0.0
H2131 H 0.29261 0.24094 0.60367 0.0
C2132 C 0.28105 0.21207 0.57367 0.0
C2133 C 0.26517 0.18934 0.56541 0.0
C2134 C 0.24138 0.21562 0.65195 0.0
C2135 C 0.26275 0.21244 0.61286 0.0
C2136 C 0.24129 0.22507 0.67649 0.0
C2137 C 0.26141 0.24198 0.68789 0.0
C2138 C 0.26162 0.22331 0.63856 0.0
C2139 C 0.28116 0.24951 0.67375 0.0
C2140 C 0.28 0.22359 0.59744 0.0
C2141 C 0.24804 0.17903 0.5813 0.0
N2142 N 0.28078 0.24013 0.64984 0.0
N2143 N 0.24728 0.19064 0.60419 0.0
H2144 H 0.58966 0.53218 0.23278 0.0
H2145 H 0.60651 0.5312 0.08905 0.0
H2146 H 0.65461 0.51828 0.19951 0.0
H2147 H 0.54667 0.55607 0.12419 0.0
H2148 H 0.6252 0.52771 0.12935 0.0
H2149 H 0.57373 0.54121 0.19309 0.0
C2150 C 0.60052 0.53092 0.21709 0.0
C2151 C 0.62343 0.52434 0.2194 0.0
C2152 C 0.60812 0.53424 0.12828 0.0
C2153 C 0.6054 0.53481 0.17394 0.0
C2154 C 0.59754 0.53637 0.10529 0.0
C2155 C 0.57501 0.54386 0.10334 0.0
C2156 C 0.59595 0.5394 0.14942 0.0
C2157 C 0.56407 0.55022 0.12491 0.0
C2158 C 0.59148 0.53623 0.19446 0.0
C2159 C 0.63681 0.52319 0.19851 0.0
N2160 N 0.57451 0.54758 0.14705 0.0
N2161 N 0.62756 0.52828 0.17664 0.0
H2162 H 0.28254 0.83775 0.94368 0.0
H2163 H 0.2029 0.78721 0.81979 0.0
H2164 H 0.20666 0.84017 0.93374 0.0
H2165 H 0.27498 0.77267 0.83255 0.0
H2166 H 0.20437 0.80689 0.86163 0.0
H2167 H 0.28052 0.81376 0.90337 0.0
C2168 C 0.26541 0.83305 0.93307 0.0
C2169 C 0.24474 0.84105 0.94193 0.0
C2170 C 0.21989 0.79936 0.85539 0.0
C2171 C 0.24237 0.81385 0.89587 0.0
C2172 C 0.21907 0.78816 0.83148 0.0
C2173 C 0.23893 0.77848 0.82276 0.0
C2174 C 0.24079 0.80105 0.8707 0.0
C2175 C 0.25942 0.78019 0.83859 0.0
C2176 C 0.26428 0.81937 0.9101 0.0
C2177 C 0.22302 0.83442 0.92755 0.0
N2178 N 0.25988 0.79141 0.86187 0.0
N2179 N 0.22245 0.82135 0.90513 0.0
H2180 H 0.97483 0.51531 0.73166 0.0
H2181 H 0.98963 0.57339 0.60447 0.0
H2182 H 0.95398 0.58661 0.71821 0.0
H2183 H 0.02279 0.51094 0.62404 0.0
H2184 H 0.97898 0.58068 0.64692 0.0
H2185 H 0.99527 0.51537 0.69347 0.0
C2186 C 0.97481 0.53114 0.72076 0.0
C2187 C 0.9625 0.55084 0.72789 0.0
C2188 C 0.98885 0.56559 0.64201 0.0
C2189 C 0.98556 0.5509 0.68402 0.0
C2190 C 0.99486 0.56139 0.6178 0.0
C2191 C 0.00679 0.54134 0.61083 0.0
C2192 C 0.99463 0.54941 0.65917 0.0
C2193 C 0.01338 0.52647 0.62872 0.0
C2194 C 0.98651 0.53119 0.69897 0.0
C2195 C 0.96318 0.57099 0.71325 0.0
N2196 N 0.00694 0.53061 0.65204 0.0
N2197 N 0.97422 0.57032 0.69177 0.0
H2198 H 0.308 0.21648 0.44826 0.0
H2199 H 0.24916 0.22401 0.31412 0.0
H2200 H 0.2451 0.16474 0.41505 0.0
H2201 H 0.31407 0.27451 0.34431 0.0
H2202 H 0.24821 0.20167 0.35086 0.0
H2203 H 0.31115 0.23794 0.4106 0.0
C2204 C 0.29486 0.20966 0.43308 0.0
C2205 C 0.27623 0.18882 0.43484 0.0
C2206 C 0.26278 0.21754 0.34948 0.0
C2207 C 0.27973 0.2132 0.39171 0.0
C2208 C 0.2634 0.23022 0.32839 0.0
C2209 C 0.28181 0.25107 0.32607 0.0
C2210 C 0.2806 0.22581 0.36861 0.0
C2211 C 0.29957 0.2585 0.34535 0.0
C2212 C 0.29668 0.22187 0.41157 0.0
C2213 C 0.25974 0.18074 0.41457 0.0
N2214 N 0.29849 0.24595 0.36586 0.0
N2215 N 0.26186 0.19293 0.39395 0.0
H2216 H 0.32896 0.58403 0.47394 0.0
H2217 H 0.41764 0.50961 0.54259 0.0
H2218 H 0.33392 0.58011 0.55203 0.0
H2219 H 0.4195 0.5207 0.4659 0.0
H2220 H 0.38036 0.5267 0.54435 0.0
H2221 H 0.35608 0.55329 0.46899 0.0
C2222 C 0.33563 0.57654 0.49002 0.0
C2223 C 0.32956 0.58489 0.51347 0.0
C2224 C 0.38867 0.525 0.52702 0.0
C2225 C 0.36037 0.54973 0.50795 0.0
C2226 C 0.40985 0.51511 0.52599 0.0
C2227 C 0.42175 0.51419 0.50417 0.0
C2228 C 0.37952 0.5342 0.50612 0.0
C2229 C 0.41092 0.52138 0.48314 0.0
C2230 C 0.35103 0.55897 0.48718 0.0
C2231 C 0.33845 0.57443 0.53365 0.0
N2232 N 0.39057 0.53153 0.48472 0.0
N2233 N 0.35358 0.55755 0.53045 0.0
H2234 H 0.82264 0.96828 0.54826 0.0
H2235 H 0.95617 0.96861 0.50489 0.0
H2236 H 0.84965 0.9005 0.52375 0.0
H2237 H 0.93828 0.03127 0.55102 0.0
H2238 H 0.91493 0.94556 0.50635 0.0
H2239 H 0.86305 0.9936 0.54507 0.0
C2240 C 0.83707 0.95874 0.5423 0.0
C2241 C 0.83285 0.93226 0.53635 0.0
C2242 C 0.91996 0.96439 0.5161 0.0
C2243 C 0.87878 0.96103 0.53229 0.0
C2244 C 0.94347 0.97761 0.51517 0.0
C2245 C 0.95066 0.00178 0.52804 0.0
C2246 C 0.90341 0.97546 0.52984 0.0
C2247 C 0.93344 0.01259 0.54095 0.0
C2248 C 0.86007 0.97318 0.54048 0.0
C2249 C 0.85213 0.92085 0.52865 0.0
N2250 N 0.91055 -0.00069 0.5416 0.0
N2251 N 0.8742 0.9353 0.52673 0.0
H2252 H 0.8866 0.12679 0.27125 0.0
H2253 H 0.76931 0.18508 0.23897 0.0
H2254 H 0.82491 0.08474 0.22675 0.0
H2255 H 0.82665 0.22217 0.29174 0.0
H2256 H 0.78927 0.14821 0.23401 0.0
H2257 H 0.8651 0.16229 0.27829 0.0
C2258 C 0.86854 0.12506 0.26292 0.0
C2259 C 0.85754 0.10282 0.24835 0.0
C2260 C 0.79737 0.16435 0.24681 0.0
C2261 C 0.83277 0.14336 0.25636 0.0
C2262 C 0.78595 0.18541 0.24971 0.0
C2263 C 0.79629 0.20683 0.2658 0.0
C2264 C 0.8194 0.16476 0.25995 0.0
C2265 C 0.81795 0.20614 0.27913 0.0
C2266 C 0.85623 0.14529 0.26702 0.0
C2267 C 0.83407 0.10157 0.23809 0.0
N2268 N 0.82883 0.18554 0.27579 0.0
N2269 N 0.82249 0.12158 0.24223 0.0
H2270 H 0.70886 0.08222 0.98279 0.0
H2271 H 0.59628 0.03397 0.05945 0.0
H2272 H 0.71257 0.08295 0.06147 0.0
H2273 H 0.59385 0.02672 0.98039 0.0
H2274 H 0.63986 0.048 0.06034 0.0
H2275 H 0.66783 0.05768 0.98119 0.0
C2276 C 0.70112 0.07694 -0.00031 0.0
C2277 C 0.7139 0.08488 0.02232 0.0
C2278 C 0.62983 0.04314 0.04279 0.0
C2279 C 0.66707 0.05709 0.02068 0.0
C2280 C 0.60491 0.03522 0.04227 0.0
C2281 C 0.59135 0.02956 0.01981 0.0
C2282 C 0.64124 0.04562 0.02071 0.0
C2283 C 0.60355 0.03115 0.99813 0.0
C2284 C 0.67772 0.06294 0.99878 0.0
C2285 C 0.70319 0.07739 0.04366 0.0
N2286 N 0.62781 0.03932 -0.00087 0.0
N2287 N 0.68024 0.06416 0.04235 0.0
H2288 H 0.18572 0.45625 0.29644 0.0
H2289 H 0.27508 0.37465 0.23309 0.0
H2290 H 0.19743 0.45076 0.2192 0.0
H2291 H 0.25952 0.37472 0.30925 0.0
H2292 H 0.25392 0.41022 0.22987 0.0
H2293 H 0.21867 0.43315 0.30325 0.0
C2294 C 0.19531 0.45026 0.28094 0.0
C2295 C 0.18863 0.455 0.25717 0.0
C2296 C 0.25551 0.40281 0.24742 0.0
C2297 C 0.22637 0.42881 0.26482 0.0
C2298 C 0.26772 0.38263 0.2493 0.0
C2299 C 0.26862 0.37157 0.27136 0.0
C2300 C 0.24394 0.41171 0.2677 0.0
C2301 C 0.25897 0.38263 0.29185 0.0
C2302 C 0.21417 0.4372 0.28485 0.0
C2303 C 0.2018 0.44715 0.23777 0.0
N2304 N 0.24658 0.40184 0.28941 0.0
N2305 N 0.21992 0.43424 0.242 0.0
H2306 H 0.20984 0.44098 0.06904 0.0
H2307 H 0.12787 0.51237 0.98651 0.0
H2308 H 0.21565 0.44411 0.99133 0.0
H2309 H 0.119 0.50549 0.06329 0.0
H2310 H 0.16246 0.49069 0.98873 0.0
H2311 H 0.17876 0.46746 0.06804 0.0
C2312 C 0.20463 0.44731 0.05177 0.0
C2313 C 0.21528 0.44023 0.03021 0.0
C2314 C 0.1531 0.49409 0.00516 0.0
C2315 C 0.17969 0.47058 0.02892 0.0
C2316 C 0.13342 0.50656 0.00391 0.0
C2317 C 0.12057 0.51068 0.02474 0.0
C2318 C 0.15998 0.48561 0.0274 0.0
C2319 C 0.12845 0.50269 0.0468 0.0
C2320 C 0.18688 0.46244 0.05122 0.0
C2321 C 0.20787 0.44905 0.00838 0.0
N2322 N 0.14756 0.49041 0.04753 0.0
N2323 N 0.1905 0.46368 0.00828 0.0
H2324 H 0.88375 0.95059 0.24472 0.0
H2325 H 0.75825 0.85462 0.21681 0.0
H2326 H 0.81934 0.97534 0.21867 0.0
H2327 H 0.81192 0.84511 0.27184 0.0
H2328 H 0.78285 0.89575 0.21009 0.0
H2329 H 0.86007 0.90808 0.24696 0.0
C2330 C 0.86466 0.94699 0.23921 0.0
C2331 C 0.85341 0.9665 0.23162 0.0
C2332 C 0.78924 0.88452 0.22351 0.0
C2333 C 0.82634 0.91799 0.23409 0.0
C2334 C 0.77529 0.8611 0.22732 0.0
C2335 C 0.7832 0.84644 0.24478 0.0
C2336 C 0.81136 0.89302 0.23701 0.0
C2337 C 0.80534 0.85568 0.25797 0.0
C2338 C 0.85118 0.9228 0.24063 0.0
C2339 C 0.82864 0.96082 0.22475 0.0
N2340 N 0.81872 0.87836 0.25374 0.0
N2341 N 0.81587 0.93702 0.22614 0.0
H2342 H 0.68576 0.06578 0.79477 0.0
H2343 H 0.71391 0.19501 0.73143 0.0
H2344 H 0.64689 0.0799 0.72959 0.0
H2345 H 0.74054 0.18842 0.80502 0.0
H2346 H 0.69198 0.1514 0.72913 0.0
H2347 H 0.7083 0.10955 0.79784 0.0
C2348 C 0.68192 0.07814 0.78118 0.0
C2349 C 0.66447 0.06929 0.7619 0.0
C2350 C 0.70262 0.15948 0.74579 0.0
C2351 C 0.69024 0.11908 0.76515 0.0
C2352 C 0.71527 0.18437 0.74709 0.0
C2353 C 0.72907 0.19544 0.76849 0.0
C2354 C 0.70385 0.14542 0.76596 0.0
C2355 C 0.73006 0.18068 0.78819 0.0
C2356 C 0.69476 0.10307 0.78294 0.0
C2357 C 0.66017 0.08601 0.74477 0.0
N2358 N 0.71761 0.15637 0.78645 0.0
N2359 N 0.67306 0.11008 0.74673 0.0
loop_
_geom_bond_atom_site_label_1
_geom_bond_atom_site_label_2
_geom_bond_distance
_geom_bond_site_symmetry_2
_ccdc_geom_bond_type
In0 O1 2.294 . S
In0 O2 2.326 . S
In0 O6 2.296 . S
In0 O7 2.326 1_455 S
In0 O8 2.266 . S
In0 O9 2.326 . S
In0 O11 2.294 . S
In0 O12 2.326 . S
O1 In0 2.294 . S
O1 C10 1.240 . S
O2 In0 2.326 . S
O2 C10 1.252 . S
C3 O6 1.215 1_655 S
C3 O7 1.260 . S
C4 O11 1.240 . S
C4 O12 1.252 . S
C5 O8 1.252 . S
C5 O9 1.260 . S
O6 In0 2.296 . S
O6 C3 1.215 1_455 S
O7 In0 2.326 1_655 S
O7 C3 1.260 . S
O8 In0 2.266 . S
O8 C5 1.252 . S
O9 In0 2.326 . S
O9 C5 1.260 . S
C10 O1 1.240 . S
C10 O2 1.252 . S
O11 In0 2.294 . S
O11 C4 1.240 . S
O12 In0 2.326 . S
O12 C4 1.252 . S
In13 O14 2.294 . S
In13 O15 2.326 . S
In13 O19 2.266 . S
In13 O20 2.326 . S
In13 O21 2.266 1_455 S
In13 O22 2.326 1_455 S
In13 O24 2.294 . S
In13 O25 2.326 . S
O14 In13 2.294 . S
O14 C23 1.240 . S
O15 In13 2.326 . S
O15 C23 1.252 . S
C16 O19 1.252 . S
C16 O20 1.260 . S
C17 O24 1.240 . S
C17 O25 1.252 . S
C18 O21 1.252 . S
C18 O22 1.260 . S
O19 In13 2.266 . S
O19 C16 1.252 . S
O20 In13 2.326 . S
O20 C16 1.260 . S
O21 In13 2.266 1_655 S
O21 C18 1.252 . S
O22 In13 2.326 1_655 S
O22 C18 1.260 . S
C23 O14 1.240 . S
C23 O15 1.252 . S
O24 In13 2.294 . S
O24 C17 1.240 . S
O25 In13 2.326 . S
O25 C17 1.252 . S
In26 O27 2.294 . S
In26 O28 2.326 . S
In26 O32 2.266 . S
In26 O33 2.326 . S
In26 O34 2.266 . S
In26 O35 2.326 . S
In26 O37 2.294 . S
In26 O38 2.326 . S
O27 In26 2.294 . S
O27 C36 1.240 . S
O28 In26 2.326 . S
O28 C36 1.252 . S
C29 O32 1.252 . S
C29 O33 1.260 . S
C30 O37 1.240 . S
C30 O38 1.252 . S
C31 O34 1.252 . S
C31 O35 1.260 . S
O32 In26 2.266 . S
O32 C29 1.252 . S
O33 In26 2.326 . S
O33 C29 1.260 . S
O34 In26 2.266 . S
O34 C31 1.252 . S
O35 In26 2.326 . S
O35 C31 1.260 . S
C36 O27 1.240 . S
C36 O28 1.252 . S
O37 In26 2.294 . S
O37 C30 1.240 . S
O38 In26 2.326 . S
O38 C30 1.252 . S
In39 O40 2.294 . S
In39 O41 2.326 . S
In39 O45 2.266 . S
In39 O46 2.326 . S
In39 O47 2.266 . S
In39 O48 2.326 . S
In39 O50 2.294 . S
In39 O51 2.326 . S
O40 In39 2.294 . S
O40 C49 1.240 . S
O41 In39 2.326 . S
O41 C49 1.252 . S
C42 O45 1.252 . S
C42 O46 1.260 . S
C43 O50 1.240 . S
C43 O51 1.252 . S
C44 O47 1.252 . S
C44 O48 1.260 . S
O45 In39 2.266 . S
O45 C42 1.252 . S
O46 In39 2.326 . S
O46 C42 1.260 . S
O47 In39 2.266 . S
O47 C44 1.252 . S
O48 In39 2.326 . S
O48 C44 1.260 . S
C49 O40 1.240 . S
C49 O41 1.252 . S
O50 In39 2.294 . S
O50 C43 1.240 . S
O51 In39 2.326 . S
O51 C43 1.252 . S
In52 O53 2.294 . S
In52 O54 2.326 . S
In52 O58 2.266 . S
In52 O59 2.326 . S
In52 O60 2.266 . S
In52 O61 2.326 . S
In52 O63 2.294 . S
In52 O64 2.326 1_455 S
O53 In52 2.294 . S
O53 C62 1.240 . S
O54 In52 2.326 . S
O54 C62 1.252 . S
C55 O58 1.252 . S
C55 O59 1.260 . S
C56 O63 1.240 1_655 S
C56 O64 1.252 . S
C57 O60 1.252 . S
C57 O61 1.260 . S
O58 In52 2.266 . S
O58 C55 1.252 . S
O59 In52 2.326 . S
O59 C55 1.260 . S
O60 In52 2.266 . S
O60 C57 1.252 . S
O61 In52 2.326 . S
O61 C57 1.260 . S
C62 O53 1.240 . S
C62 O54 1.252 . S
O63 In52 2.294 . S
O63 C56 1.240 1_455 S
O64 In52 2.326 1_655 S
O64 C56 1.252 . S
In65 O66 2.294 . S
In65 O67 2.326 . S
In65 O71 2.266 . S
In65 O72 2.326 . S
In65 O73 2.266 . S
In65 O74 2.326 . S
In65 O76 2.294 . S
In65 O77 2.326 . S
O66 In65 2.294 . S
O66 C75 1.240 . S
O67 In65 2.326 . S
O67 C75 1.252 . S
C68 O71 1.252 . S
C68 O72 1.260 . S
C69 O76 1.240 . S
C69 O77 1.252 . S
C70 O73 1.252 . S
C70 O74 1.260 . S
O71 In65 2.266 . S
O71 C68 1.252 . S
O72 In65 2.326 . S
O72 C68 1.260 . S
O73 In65 2.266 . S
O73 C70 1.252 . S
O74 In65 2.326 . S
O74 C70 1.260 . S
C75 O66 1.240 . S
C75 O67 1.252 . S
O76 In65 2.294 . S
O76 C69 1.240 . S
O77 In65 2.326 . S
O77 C69 1.252 . S
In78 O79 2.294 . S
In78 O80 2.326 . S
In78 O84 2.266 . S
In78 O85 2.326 . S
In78 O86 2.266 . S
In78 O87 2.326 . S
In78 O89 2.294 . S
In78 O90 2.326 . S
O79 In78 2.294 . S
O79 C88 1.240 . S
O80 In78 2.326 . S
O80 C88 1.252 . S
C81 O84 1.252 . S
C81 O85 1.260 . S
C82 O89 1.240 . S
C82 O90 1.252 . S
C83 O86 1.252 . S
C83 O87 1.260 . S
O84 In78 2.266 . S
O84 C81 1.252 . S
O85 In78 2.326 . S
O85 C81 1.260 . S
O86 In78 2.266 . S
O86 C83 1.252 . S
O87 In78 2.326 . S
O87 C83 1.260 . S
C88 O79 1.240 . S
C88 O80 1.252 . S
O89 In78 2.294 . S
O89 C82 1.240 . S
O90 In78 2.326 . S
O90 C82 1.252 . S
In91 O92 2.294 . S
In91 O93 2.326 . S
In91 O97 2.266 . S
In91 O98 2.326 . S
In91 O99 2.266 1_455 S
In91 O100 2.326 1_455 S
In91 O102 2.294 . S
In91 O103 2.326 . S
O92 In91 2.294 . S
O92 C101 1.240 . S
O93 In91 2.326 . S
O93 C101 1.252 . S
C94 O97 1.252 . S
C94 O98 1.260 . S
C95 O102 1.240 . S
C95 O103 1.252 . S
C96 O99 1.252 . S
C96 O100 1.260 . S
O97 In91 2.266 . S
O97 C94 1.252 . S
O98 In91 2.326 . S
O98 C94 1.260 . S
O99 In91 2.266 1_655 S
O99 C96 1.252 . S
O100 In91 2.326 1_655 S
O100 C96 1.260 . S
C101 O92 1.240 . S
C101 O93 1.252 . S
O102 In91 2.294 . S
O102 C95 1.240 . S
O103 In91 2.326 . S
O103 C95 1.252 . S
In104 O105 2.294 . S
In104 O106 2.326 . S
In104 O110 2.266 . S
In104 O111 2.326 . S
In104 O112 2.266 1_545 S
In104 O113 2.326 1_545 S
In104 O115 2.294 . S
In104 O116 2.326 . S
O105 In104 2.294 . S
O105 C114 1.240 . S
O106 In104 2.326 . S
O106 C114 1.252 . S
C107 O110 1.252 . S
C107 O111 1.260 . S
C108 O115 1.240 . S
C108 O116 1.252 . S
C109 O112 1.252 . S
C109 O113 1.260 . S
O110 In104 2.266 . S
O110 C107 1.252 . S
O111 In104 2.326 . S
O111 C107 1.260 . S
O112 In104 2.266 1_565 S
O112 C109 1.252 . S
O113 In104 2.326 1_565 S
O113 C109 1.260 . S
C114 O105 1.240 . S
C114 O106 1.252 . S
O115 In104 2.294 . S
O115 C108 1.240 . S
O116 In104 2.326 . S
O116 C108 1.252 . S
In117 O118 2.294 . S
In117 O119 2.326 . S
In117 O123 2.266 . S
In117 O124 2.326 . S
In117 O125 2.266 . S
In117 O126 2.326 . S
In117 O128 2.294 . S
In117 O129 2.326 . S
O118 In117 2.294 . S
O118 C127 1.240 . S
O119 In117 2.326 . S
O119 C127 1.252 . S
C120 O123 1.252 . S
C120 O124 1.260 . S
C121 O128 1.240 . S
C121 O129 1.252 . S
C122 O125 1.252 . S
C122 O126 1.260 . S
O123 In117 2.266 . S
O123 C120 1.252 . S
O124 In117 2.326 . S
O124 C120 1.260 . S
O125 In117 2.266 . S
O125 C122 1.252 . S
O126 In117 2.326 . S
O126 C122 1.260 . S
C127 O118 1.240 . S
C127 O119 1.252 . S
O128 In117 2.294 . S
O128 C121 1.240 . S
O129 In117 2.326 . S
O129 C121 1.252 . S
In130 O131 2.294 1_545 S
In130 O132 2.326 1_545 S
In130 O136 2.266 . S
In130 O137 2.326 . S
In130 O138 2.264 . S
In130 O139 2.322 . S
In130 O141 2.296 1_545 S
In130 O142 2.330 1_545 S
O131 In130 2.294 1_565 S
O131 C140 1.240 . S
O132 In130 2.326 1_565 S
O132 C140 1.252 . S
C133 O136 1.252 . S
C133 O137 1.260 . S
C134 O141 1.240 . S
C134 O142 1.252 . S
C135 O138 1.252 . S
C135 O139 1.260 . S
O136 In130 2.266 . S
O136 C133 1.252 . S
O137 In130 2.326 . S
O137 C133 1.260 . S
O138 In130 2.264 . S
O138 C135 1.252 . S
O139 In130 2.322 . S
O139 C135 1.260 . S
C140 O131 1.240 . S
C140 O132 1.252 . S
O141 In130 2.296 1_565 S
O141 C134 1.240 . S
O142 In130 2.330 1_565 S
O142 C134 1.252 . S
In143 O144 2.294 . S
In143 O145 2.326 . S
In143 O149 2.266 1_554 S
In143 O150 2.326 1_554 S
In143 O151 2.266 . S
In143 O152 2.326 . S
In143 O154 2.294 . S
In143 O155 2.326 . S
O144 In143 2.294 . S
O144 C153 1.240 . S
O145 In143 2.326 . S
O145 C153 1.252 . S
C146 O149 1.252 . S
C146 O150 1.260 . S
C147 O154 1.240 . S
C147 O155 1.252 . S
C148 O151 1.252 . S
C148 O152 1.260 . S
O149 In143 2.266 1_556 S
O149 C146 1.252 . S
O150 In143 2.326 1_556 S
O150 C146 1.260 . S
O151 In143 2.266 . S
O151 C148 1.252 . S
O152 In143 2.326 . S
O152 C148 1.260 . S
C153 O144 1.240 . S
C153 O145 1.252 . S
O154 In143 2.294 . S
O154 C147 1.240 . S
O155 In143 2.326 . S
O155 C147 1.252 . S
In156 O157 2.294 . S
In156 O158 2.326 . S
In156 O162 2.266 1_554 S
In156 O163 2.326 1_554 S
In156 O164 2.266 . S
In156 O165 2.326 . S
In156 O167 2.294 . S
In156 O168 2.326 . S
O157 In156 2.294 . S
O157 C166 1.240 . S
O158 In156 2.326 . S
O158 C166 1.252 . S
C159 O162 1.252 . S
C159 O163 1.260 . S
C160 O167 1.240 . S
C160 O168 1.252 . S
C161 O164 1.252 . S
C161 O165 1.260 . S
O162 In156 2.266 1_556 S
O162 C159 1.252 . S
O163 In156 2.326 1_556 S
O163 C159 1.260 . S
O164 In156 2.266 . S
O164 C161 1.252 . S
O165 In156 2.326 . S
O165 C161 1.260 . S
C166 O157 1.240 . S
C166 O158 1.252 . S
O167 In156 2.294 . S
O167 C160 1.240 . S
O168 In156 2.326 . S
O168 C160 1.252 . S
In169 O170 2.294 . S
In169 O171 2.326 . S
In169 O175 2.266 1_554 S
In169 O176 2.326 . S
In169 O177 2.266 1_554 S
In169 O178 2.326 1_554 S
In169 O180 2.294 . S
In169 O181 2.326 . S
O170 In169 2.294 . S
O170 C179 1.240 . S
O171 In169 2.326 . S
O171 C179 1.252 . S
C172 O175 1.252 . S
C172 O176 1.260 1_556 S
C173 O180 1.240 . S
C173 O181 1.252 . S
C174 O177 1.252 . S
C174 O178 1.260 . S
O175 In169 2.266 1_556 S
O175 C172 1.252 . S
O176 In169 2.326 . S
O176 C172 1.260 1_554 S
O177 In169 2.266 1_556 S
O177 C174 1.252 . S
O178 In169 2.326 1_556 S
O178 C174 1.260 . S
C179 O170 1.240 . S
C179 O171 1.252 . S
O180 In169 2.294 . S
O180 C173 1.240 . S
O181 In169 2.326 . S
O181 C173 1.252 . S
In182 O183 2.294 . S
In182 O184 2.326 . S
In182 O188 2.266 . S
In182 O189 2.326 . S
In182 O190 2.266 . S
In182 O191 2.326 . S
In182 O193 2.294 . S
In182 O194 2.326 . S
O183 In182 2.294 . S
O183 C192 1.240 . S
O184 In182 2.326 . S
O184 C192 1.252 . S
C185 O188 1.252 . S
C185 O189 1.260 . S
C186 O193 1.240 . S
C186 O194 1.252 . S
C187 O190 1.252 . S
C187 O191 1.260 . S
O188 In182 2.266 . S
O188 C185 1.252 . S
O189 In182 2.326 . S
O189 C185 1.260 . S
O190 In182 2.266 . S
O190 C187 1.252 . S
O191 In182 2.326 . S
O191 C187 1.260 . S
C192 O183 1.240 . S
C192 O184 1.252 . S
O193 In182 2.294 . S
O193 C186 1.240 . S
O194 In182 2.326 . S
O194 C186 1.252 . S
In195 O196 2.294 . S
In195 O197 2.326 . S
In195 O201 2.266 . S
In195 O202 2.326 . S
In195 O203 2.266 . S
In195 O204 2.326 . S
In195 O206 2.294 . S
In195 O207 2.326 . S
O196 In195 2.294 . S
O196 C205 1.240 . S
O197 In195 2.326 . S
O197 C205 1.252 . S
C198 O201 1.252 . S
C198 O202 1.260 . S
C199 O206 1.240 . S
C199 O207 1.252 . S
C200 O203 1.252 . S
C200 O204 1.260 . S
O201 In195 2.266 . S
O201 C198 1.252 . S
O202 In195 2.326 . S
O202 C198 1.260 . S
O203 In195 2.266 . S
O203 C200 1.252 . S
O204 In195 2.326 . S
O204 C200 1.260 . S
C205 O196 1.240 . S
C205 O197 1.252 . S
O206 In195 2.294 . S
O206 C199 1.240 . S
O207 In195 2.326 . S
O207 C199 1.252 . S
In208 O209 2.294 . S
In208 O210 2.326 . S
In208 O214 2.266 . S
In208 O215 2.326 . S
In208 O216 2.266 . S
In208 O217 2.326 . S
In208 O219 2.294 . S
In208 O220 2.326 . S
O209 In208 2.294 . S
O209 C218 1.240 . S
O210 In208 2.326 . S
O210 C218 1.252 . S
C211 O214 1.252 . S
C211 O215 1.260 . S
C212 O219 1.240 . S
C212 O220 1.252 . S
C213 O216 1.252 1_565 S
C213 O217 1.260 1_565 S
O214 In208 2.266 . S
O214 C211 1.252 . S
O215 In208 2.326 . S
O215 C211 1.260 . S
O216 In208 2.266 . S
O216 C213 1.252 1_545 S
O217 In208 2.326 . S
O217 C213 1.260 1_545 S
C218 O209 1.240 . S
C218 O210 1.252 . S
O219 In208 2.294 . S
O219 C212 1.240 . S
O220 In208 2.326 . S
O220 C212 1.252 . S
In221 O222 2.294 . S
In221 O223 2.326 . S
In221 O227 2.266 . S
In221 O228 2.326 . S
In221 O229 2.266 . S
In221 O230 2.326 . S
In221 O232 2.294 . S
In221 O233 2.326 . S
O222 In221 2.294 . S
O222 C231 1.240 . S
O223 In221 2.326 . S
O223 C231 1.252 . S
C224 O227 1.252 . S
C224 O228 1.260 . S
C225 O232 1.240 . S
C225 O233 1.252 . S
C226 O229 1.252 . S
C226 O230 1.260 . S
O227 In221 2.266 . S
O227 C224 1.252 . S
O228 In221 2.326 . S
O228 C224 1.260 . S
O229 In221 2.266 . S
O229 C226 1.252 . S
O230 In221 2.326 . S
O230 C226 1.260 . S
C231 O222 1.240 . S
C231 O223 1.252 . S
O232 In221 2.294 . S
O232 C225 1.240 . S
O233 In221 2.326 . S
O233 C225 1.252 . S
In234 O235 2.294 . S
In234 O236 2.326 . S
In234 O240 2.266 . S
In234 O241 2.326 . S
In234 O242 2.266 . S
In234 O243 2.326 . S
In234 O245 2.294 . S
In234 O246 2.326 . S
O235 In234 2.294 . S
O235 C244 1.240 . S
O236 In234 2.326 . S
O236 C244 1.252 . S
C237 O240 1.252 . S
C237 O241 1.260 . S
C238 O245 1.240 . S
C238 O246 1.252 . S
C239 O242 1.252 . S
C239 O243 1.260 . S
O240 In234 2.266 . S
O240 C237 1.252 . S
O241 In234 2.326 . S
O241 C237 1.260 . S
O242 In234 2.266 . S
O242 C239 1.252 . S
O243 In234 2.326 . S
O243 C239 1.260 . S
C244 O235 1.240 . S
C244 O236 1.252 . S
O245 In234 2.294 . S
O245 C238 1.240 . S
O246 In234 2.326 . S
O246 C238 1.252 . S
In247 O248 2.294 . S
In247 O249 2.326 1_545 S
In247 O253 2.266 . S
In247 O254 2.326 . S
In247 O255 2.266 . S
In247 O256 2.326 . S
In247 O258 2.294 . S
In247 O259 2.326 . S
O248 In247 2.294 . S
O248 C257 1.240 1_545 S
O249 In247 2.326 1_565 S
O249 C257 1.252 . S
C250 O253 1.252 . S
C250 O254 1.260 . S
C251 O258 1.240 . S
C251 O259 1.252 . S
C252 O255 1.252 . S
C252 O256 1.260 . S
O253 In247 2.266 . S
O253 C250 1.252 . S
O254 In247 2.326 . S
O254 C250 1.260 . S
O255 In247 2.266 . S
O255 C252 1.252 . S
O256 In247 2.326 . S
O256 C252 1.260 . S
C257 O248 1.240 1_565 S
C257 O249 1.252 . S
O258 In247 2.294 . S
O258 C251 1.240 . S
O259 In247 2.326 . S
O259 C251 1.252 . S
In260 O261 2.294 . S
In260 O262 2.326 . S
In260 O266 2.266 . S
In260 O267 2.326 . S
In260 O268 2.266 1_554 S
In260 O269 2.326 1_554 S
In260 O271 2.294 . S
In260 O272 2.326 . S
O261 In260 2.294 . S
O261 C270 1.240 . S
O262 In260 2.326 . S
O262 C270 1.252 . S
C263 O266 1.252 . S
C263 O267 1.260 . S
C264 O271 1.240 . S
C264 O272 1.252 . S
C265 O268 1.252 . S
C265 O269 1.260 . S
O266 In260 2.266 . S
O266 C263 1.252 . S
O267 In260 2.326 . S
O267 C263 1.260 . S
O268 In260 2.266 1_556 S
O268 C265 1.252 . S
O269 In260 2.326 1_556 S
O269 C265 1.260 . S
C270 O261 1.240 . S
C270 O262 1.252 . S
O271 In260 2.294 . S
O271 C264 1.240 . S
O272 In260 2.326 . S
O272 C264 1.252 . S
In273 O274 2.294 . S
In273 O275 2.326 . S
In273 O279 2.266 . S
In273 O280 2.326 . S
In273 O281 2.266 . S
In273 O282 2.326 . S
In273 O284 2.294 . S
In273 O285 2.326 . S
O274 In273 2.294 . S
O274 C283 1.240 . S
O275 In273 2.326 . S
O275 C283 1.252 . S
C276 O279 1.252 . S
C276 O280 1.260 . S
C277 O284 1.240 . S
C277 O285 1.252 . S
C278 O281 1.252 . S
C278 O282 1.260 . S
O279 In273 2.266 . S
O279 C276 1.252 . S
O280 In273 2.326 . S
O280 C276 1.260 . S
O281 In273 2.266 . S
O281 C278 1.252 . S
O282 In273 2.326 . S
O282 C278 1.260 . S
C283 O274 1.240 . S
C283 O275 1.252 . S
O284 In273 2.294 . S
O284 C277 1.240 . S
O285 In273 2.326 . S
O285 C277 1.252 . S
In286 O287 2.294 . S
In286 O288 2.326 . S
In286 O292 2.266 . S
In286 O293 2.326 . S
In286 O294 2.266 . S
In286 O295 2.326 . S
In286 O297 2.294 . S
In286 O298 2.326 . S
O287 In286 2.294 . S
O287 C296 1.240 . S
O288 In286 2.326 . S
O288 C296 1.252 . S
C289 O292 1.252 . S
C289 O293 1.260 . S
C290 O297 1.240 . S
C290 O298 1.252 . S
C291 O294 1.252 . S
C291 O295 1.260 . S
O292 In286 2.266 . S
O292 C289 1.252 . S
O293 In286 2.326 . S
O293 C289 1.260 . S
O294 In286 2.266 . S
O294 C291 1.252 . S
O295 In286 2.326 . S
O295 C291 1.260 . S
C296 O287 1.240 . S
C296 O288 1.252 . S
O297 In286 2.294 . S
O297 C290 1.240 . S
O298 In286 2.326 . S
O298 C290 1.252 . S
In299 O300 2.294 . S
In299 O301 2.326 . S
In299 O305 2.266 . S
In299 O306 2.326 . S
In299 O307 2.266 . S
In299 O308 2.326 . S
In299 O310 2.294 . S
In299 O311 2.326 . S
O300 In299 2.294 . S
O300 C309 1.240 . S
O301 In299 2.326 . S
O301 C309 1.252 . S
C302 O305 1.252 . S
C302 O306 1.260 . S
C303 O310 1.240 . S
C303 O311 1.252 . S
C304 O307 1.252 . S
C304 O308 1.260 . S
O305 In299 2.266 . S
O305 C302 1.252 . S
O306 In299 2.326 . S
O306 C302 1.260 . S
O307 In299 2.266 . S
O307 C304 1.252 . S
O308 In299 2.326 . S
O308 C304 1.260 . S
C309 O300 1.240 . S
C309 O301 1.252 . S
O310 In299 2.294 . S
O310 C303 1.240 . S
O311 In299 2.326 . S
O311 C303 1.252 . S
Dy312 O316 2.398 1_554 S
Dy312 O317 2.491 . S
Dy312 O318 2.403 1_654 S
Dy312 O319 2.664 1_655 S
Dy312 O323 2.326 1_655 S
Dy312 O327 2.310 1_655 S
Dy312 O328 2.351 1_645 S
C313 O324 1.185 . S
C313 O325 1.355 . S
C314 O316 1.185 1_554 S
C314 O317 1.355 . S
Dy315 O319 2.310 . S
Dy315 O322 2.351 . S
Dy315 O324 2.398 . S
Dy315 O325 2.491 . S
Dy315 O326 2.403 . S
Dy315 O327 2.664 . S
Dy315 O329 2.326 . S
O316 Dy312 2.398 1_556 S
O316 C314 1.185 1_556 S
O317 Dy312 2.491 . S
O317 C314 1.355 . S
O318 Dy312 2.403 1_456 S
O318 C320 1.254 . S
O319 Dy312 2.664 1_455 S
O319 Dy315 2.310 . S
O319 C320 1.268 1_554 S
C320 O318 1.254 . S
C320 O319 1.268 1_556 S
C321 O326 1.254 . S
C321 O327 1.268 . S
O322 Dy315 2.351 . S
O322 C330 1.249 . S
O323 Dy312 2.326 1_455 S
O323 C330 1.267 . S
O324 C313 1.185 . S
O324 Dy315 2.398 . S
O325 C313 1.355 . S
O325 Dy315 2.491 . S
O326 Dy315 2.403 . S
O326 C321 1.254 . S
O327 Dy312 2.310 1_455 S
O327 Dy315 2.664 . S
O327 C321 1.268 . S
O328 Dy312 2.351 1_465 S
O328 C331 1.249 . S
O329 Dy315 2.326 . S
O329 C331 1.267 1_545 S
C330 O322 1.249 . S
C330 O323 1.267 . S
C331 O328 1.249 . S
C331 O329 1.267 1_565 S
Dy332 O336 2.398 . S
Dy332 O337 2.491 . S
Dy332 O338 2.403 . S
Dy332 O339 2.664 . S
Dy332 O343 2.326 . S
Dy332 O347 2.310 . S
Dy332 O348 2.351 . S
C333 O344 1.185 . S
C333 O345 1.355 . S
C334 O336 1.185 . S
C334 O337 1.355 . S
Dy335 O339 2.310 . S
Dy335 O342 2.351 . S
Dy335 O344 2.398 . S
Dy335 O345 2.491 . S
Dy335 O346 2.403 . S
Dy335 O347 2.664 . S
Dy335 O349 2.326 . S
O336 Dy332 2.398 . S
O336 C334 1.185 . S
O337 Dy332 2.491 . S
O337 C334 1.355 . S
O338 Dy332 2.403 . S
O338 C340 1.254 . S
O339 Dy332 2.664 . S
O339 Dy335 2.310 . S
O339 C340 1.268 . S
C340 O338 1.254 . S
C340 O339 1.268 . S
C341 O346 1.254 . S
C341 O347 1.268 . S
O342 Dy335 2.351 . S
O342 C350 1.249 . S
O343 Dy332 2.326 . S
O343 C350 1.267 . S
O344 C333 1.185 . S
O344 Dy335 2.398 . S
O345 C333 1.355 . S
O345 Dy335 2.491 . S
O346 Dy335 2.403 . S
O346 C341 1.254 . S
O347 Dy332 2.310 . S
O347 Dy335 2.664 . S
O347 C341 1.268 . S
O348 Dy332 2.351 . S
O348 C351 1.249 . S
O349 Dy335 2.326 . S
O349 C351 1.267 . S
C350 O342 1.249 . S
C350 O343 1.267 . S
C351 O348 1.249 . S
C351 O349 1.267 . S
Dy352 O356 2.398 1_545 S
Dy352 O357 2.491 1_545 S
Dy352 O358 2.403 . S
Dy352 O359 2.664 . S
Dy352 O363 2.326 1_545 S
Dy352 O367 2.310 . S
Dy352 O368 2.351 . S
C353 O364 1.185 . S
C353 O365 1.355 . S
C354 O356 1.185 . S
C354 O357 1.355 . S
Dy355 O359 2.310 . S
Dy355 O362 2.351 1_545 S
Dy355 O364 2.398 . S
Dy355 O365 2.491 . S
Dy355 O366 2.403 . S
Dy355 O367 2.664 . S
Dy355 O369 2.326 . S
O356 Dy352 2.398 1_565 S
O356 C354 1.185 . S
O357 Dy352 2.491 1_565 S
O357 C354 1.355 . S
O358 Dy352 2.403 . S
O358 C360 1.254 . S
O359 Dy352 2.664 . S
O359 Dy355 2.310 . S
O359 C360 1.268 . S
C360 O358 1.254 . S
C360 O359 1.268 . S
C361 O366 1.254 . S
C361 O367 1.268 . S
O362 Dy355 2.351 1_565 S
O362 C370 1.249 . S
O363 Dy352 2.326 1_565 S
O363 C370 1.267 . S
O364 C353 1.185 . S
O364 Dy355 2.398 . S
O365 C353 1.355 . S
O365 Dy355 2.491 . S
O366 Dy355 2.403 . S
O366 C361 1.254 . S
O367 Dy352 2.310 . S
O367 Dy355 2.664 . S
O367 C361 1.268 . S
O368 Dy352 2.351 . S
O368 C371 1.249 . S
O369 Dy355 2.326 . S
O369 C371 1.267 . S
C370 O362 1.249 . S
C370 O363 1.267 . S
C371 O368 1.249 . S
C371 O369 1.267 . S
Dy372 O376 2.398 . S
Dy372 O377 2.491 . S
Dy372 O378 2.403 . S
Dy372 O379 2.664 . S
Dy372 O383 2.326 . S
Dy372 O387 2.310 . S
Dy372 O388 2.351 . S
C373 O384 1.185 . S
C373 O385 1.355 . S
C374 O376 1.185 . S
C374 O377 1.355 . S
Dy375 O379 2.310 . S
Dy375 O382 2.351 . S
Dy375 O384 2.398 . S
Dy375 O385 2.491 . S
Dy375 O386 2.403 . S
Dy375 O387 2.664 . S
Dy375 O389 2.326 . S
O376 Dy372 2.398 . S
O376 C374 1.185 . S
O377 Dy372 2.491 . S
O377 C374 1.355 . S
O378 Dy372 2.403 . S
O378 C380 1.254 . S
O379 Dy372 2.664 . S
O379 Dy375 2.310 . S
O379 C380 1.268 . S
C380 O378 1.254 . S
C380 O379 1.268 . S
C381 O386 1.254 . S
C381 O387 1.268 . S
O382 Dy375 2.351 . S
O382 C390 1.249 . S
O383 Dy372 2.326 . S
O383 C390 1.267 . S
O384 C373 1.185 . S
O384 Dy375 2.398 . S
O385 C373 1.355 . S
O385 Dy375 2.491 . S
O386 Dy375 2.403 . S
O386 C381 1.254 . S
O387 Dy372 2.310 . S
O387 Dy375 2.664 . S
O387 C381 1.268 . S
O388 Dy372 2.351 . S
O388 C391 1.249 . S
O389 Dy375 2.326 . S
O389 C391 1.267 . S
C390 O382 1.249 . S
C390 O383 1.267 . S
C391 O388 1.249 . S
C391 O389 1.267 . S
Dy392 O396 2.398 1_565 S
Dy392 O397 2.491 1_465 S
Dy392 O398 2.403 1_565 S
Dy392 O399 2.664 1_565 S
Dy392 O403 2.326 1_565 S
Dy392 O407 2.310 1_565 S
Dy392 O408 2.351 . S
C393 O404 1.185 . S
C393 O405 1.355 . S
C394 O396 1.185 . S
C394 O397 1.355 1_455 S
Dy395 O399 2.310 . S
Dy395 O402 2.351 . S
Dy395 O404 2.398 . S
Dy395 O405 2.491 . S
Dy395 O406 2.403 1_455 S
Dy395 O407 2.664 . S
Dy395 O409 2.326 1_545 S
O396 Dy392 2.398 1_545 S
O396 C394 1.185 . S
O397 Dy392 2.491 1_645 S
O397 C394 1.355 1_655 S
O398 Dy392 2.403 1_545 S
O398 C400 1.254 . S
O399 Dy392 2.664 1_545 S
O399 Dy395 2.310 . S
O399 C400 1.268 . S
C400 O398 1.254 . S
C400 O399 1.268 . S
C401 O406 1.256 . S
C401 O407 1.268 1_655 S
O402 Dy395 2.351 . S
O402 C410 1.249 . S
O403 Dy392 2.326 1_545 S
O403 C410 1.267 . S
O404 C393 1.185 . S
O404 Dy395 2.398 . S
O405 C393 1.355 . S
O405 Dy395 2.491 . S
O406 Dy395 2.403 1_655 S
O406 C401 1.256 . S
O407 Dy392 2.310 1_545 S
O407 Dy395 2.664 . S
O407 C401 1.268 1_455 S
O408 Dy392 2.351 . S
O408 C411 1.249 . S
O409 Dy395 2.326 1_565 S
O409 C411 1.267 . S
C410 O402 1.249 . S
C410 O403 1.267 . S
C411 O408 1.249 . S
C411 O409 1.267 . S
Dy412 O416 2.398 . S
Dy412 O417 2.491 . S
Dy412 O418 2.403 . S
Dy412 O419 2.664 . S
Dy412 O423 2.326 . S
Dy412 O427 2.310 . S
Dy412 O428 2.351 . S
C413 O424 1.185 . S
C413 O425 1.355 . S
C414 O416 1.185 . S
C414 O417 1.355 . S
Dy415 O419 2.310 . S
Dy415 O422 2.351 . S
Dy415 O424 2.398 . S
Dy415 O425 2.491 . S
Dy415 O426 2.403 . S
Dy415 O427 2.664 . S
Dy415 O429 2.326 . S
O416 Dy412 2.398 . S
O416 C414 1.185 . S
O417 Dy412 2.491 . S
O417 C414 1.355 . S
O418 Dy412 2.403 . S
O418 C420 1.254 . S
O419 Dy412 2.664 . S
O419 Dy415 2.310 . S
O419 C420 1.268 . S
C420 O418 1.254 . S
C420 O419 1.268 . S
C421 O426 1.254 . S
C421 O427 1.268 . S
O422 Dy415 2.351 . S
O422 C430 1.249 . S
O423 Dy412 2.326 . S
O423 C430 1.267 . S
O424 C413 1.185 . S
O424 Dy415 2.398 . S
O425 C413 1.355 . S
O425 Dy415 2.491 . S
O426 Dy415 2.403 . S
O426 C421 1.254 . S
O427 Dy412 2.310 . S
O427 Dy415 2.664 . S
O427 C421 1.268 . S
O428 Dy412 2.351 . S
O428 C431 1.249 . S
O429 Dy415 2.326 . S
O429 C431 1.267 . S
C430 O422 1.249 . S
C430 O423 1.267 . S
C431 O428 1.249 . S
C431 O429 1.267 . S
Dy432 O436 2.398 1_545 S
Dy432 O437 2.491 . S
Dy432 O438 2.403 1_545 S
Dy432 O439 2.664 1_554 S
Dy432 O443 2.326 . S
Dy432 O447 2.310 . S
Dy432 O448 2.351 . S
C433 O444 1.185 . S
C433 O445 1.355 . S
C434 O436 1.185 1_545 S
C434 O437 1.355 . S
Dy435 O439 2.310 . S
Dy435 O442 2.351 . S
Dy435 O444 2.398 . S
Dy435 O445 2.491 . S
Dy435 O446 2.403 . S
Dy435 O447 2.664 1_556 S
Dy435 O449 2.326 . S
O436 Dy432 2.398 1_565 S
O436 C434 1.185 1_565 S
O437 Dy432 2.491 . S
O437 C434 1.355 . S
O438 Dy432 2.403 1_565 S
O438 C440 1.254 1_554 S
O439 Dy432 2.664 1_556 S
O439 Dy435 2.310 . S
O439 C440 1.268 1_545 S
C440 O438 1.254 1_556 S
C440 O439 1.268 1_565 S
C441 O446 1.254 1_554 S
C441 O447 1.268 . S
O442 Dy435 2.351 . S
O442 C450 1.249 1_556 S
O443 Dy432 2.326 . S
O443 C450 1.267 . S
O444 C433 1.185 . S
O444 Dy435 2.398 . S
O445 C433 1.355 . S
O445 Dy435 2.491 . S
O446 Dy435 2.403 . S
O446 C441 1.254 1_556 S
O447 Dy432 2.310 . S
O447 Dy435 2.664 1_554 S
O447 C441 1.268 . S
O448 Dy432 2.351 . S
O448 C451 1.249 . S
O449 Dy435 2.326 . S
O449 C451 1.267 1_556 S
C450 O442 1.249 1_554 S
C450 O443 1.267 . S
C451 O448 1.249 . S
C451 O449 1.267 1_554 S
Dy452 O456 2.398 . S
Dy452 O457 2.491 . S
Dy452 O458 2.403 . S
Dy452 O459 2.664 . S
Dy452 O463 2.326 . S
Dy452 O467 2.310 . S
Dy452 O468 2.351 . S
C453 O464 1.185 . S
C453 O465 1.355 . S
C454 O456 1.185 . S
C454 O457 1.355 . S
Dy455 O459 2.310 . S
Dy455 O462 2.351 . S
Dy455 O464 2.398 . S
Dy455 O465 2.491 . S
Dy455 O466 2.403 . S
Dy455 O467 2.664 . S
Dy455 O469 2.326 . S
O456 Dy452 2.398 . S
O456 C454 1.185 . S
O457 Dy452 2.491 . S
O457 C454 1.355 . S
O458 Dy452 2.403 . S
O458 C460 1.254 . S
O459 Dy452 2.664 . S
O459 Dy455 2.310 . S
O459 C460 1.268 . S
C460 O458 1.254 . S
C460 O459 1.268 . S
C461 O466 1.254 . S
C461 O467 1.268 . S
O462 Dy455 2.351 . S
O462 C470 1.249 . S
O463 Dy452 2.326 . S
O463 C470 1.267 . S
O464 C453 1.185 . S
O464 Dy455 2.398 . S
O465 C453 1.355 . S
O465 Dy455 2.491 . S
O466 Dy455 2.403 . S
O466 C461 1.254 . S
O467 Dy452 2.310 . S
O467 Dy455 2.664 . S
O467 C461 1.268 . S
O468 Dy452 2.351 . S
O468 C471 1.249 . S
O469 Dy455 2.326 . S
O469 C471 1.267 . S
C470 O462 1.249 . S
C470 O463 1.267 . S
C471 O468 1.249 . S
C471 O469 1.267 . S
Dy472 O476 2.398 . S
Dy472 O477 2.491 . S
Dy472 O478 2.403 . S
Dy472 O479 2.664 1_556 S
Dy472 O483 2.326 . S
Dy472 O487 2.313 . S
Dy472 O488 2.351 . S
C473 O484 1.185 . S
C473 O485 1.355 . S
C474 O476 1.185 . S
C474 O477 1.355 . S
Dy475 O479 2.310 . S
Dy475 O482 2.351 . S
Dy475 O484 2.398 . S
Dy475 O485 2.491 . S
Dy475 O486 2.403 . S
Dy475 O487 2.661 1_554 S
Dy475 O489 2.326 . S
O476 Dy472 2.398 . S
O476 C474 1.185 . S
O477 Dy472 2.491 . S
O477 C474 1.355 . S
O478 Dy472 2.403 . S
O478 C480 1.254 . S
O479 Dy472 2.664 1_554 S
O479 Dy475 2.310 . S
O479 C480 1.268 1_554 S
C480 O478 1.254 . S
C480 O479 1.268 1_556 S
C481 O486 1.254 . S
C481 O487 1.265 1_554 S
O482 Dy475 2.351 . S
O482 C490 1.249 1_554 S
O483 Dy472 2.326 . S
O483 C490 1.267 . S
O484 C473 1.185 . S
O484 Dy475 2.398 . S
O485 C473 1.355 . S
O485 Dy475 2.491 . S
O486 Dy475 2.403 . S
O486 C481 1.254 . S
O487 Dy472 2.313 . S
O487 Dy475 2.661 1_556 S
O487 C481 1.265 1_556 S
O488 Dy472 2.351 . S
O488 C491 1.249 1_556 S
O489 Dy475 2.326 . S
O489 C491 1.267 . S
C490 O482 1.249 1_556 S
C490 O483 1.267 . S
C491 O488 1.249 1_554 S
C491 O489 1.267 . S
Dy492 O496 2.398 . S
Dy492 O497 2.491 . S
Dy492 O498 2.403 . S
Dy492 O499 2.664 . S
Dy492 O503 2.326 . S
Dy492 O507 2.310 . S
Dy492 O508 2.351 . S
C493 O504 1.185 . S
C493 O505 1.355 . S
C494 O496 1.185 . S
C494 O497 1.355 . S
Dy495 O499 2.310 . S
Dy495 O502 2.351 . S
Dy495 O504 2.398 . S
Dy495 O505 2.491 . S
Dy495 O506 2.403 . S
Dy495 O507 2.664 . S
Dy495 O509 2.326 . S
O496 Dy492 2.398 . S
O496 C494 1.185 . S
O497 Dy492 2.491 . S
O497 C494 1.355 . S
O498 Dy492 2.403 . S
O498 C500 1.254 . S
O499 Dy492 2.664 . S
O499 Dy495 2.310 . S
O499 C500 1.268 . S
C500 O498 1.254 . S
C500 O499 1.268 . S
C501 O506 1.254 . S
C501 O507 1.268 . S
O502 Dy495 2.351 . S
O502 C510 1.249 . S
O503 Dy492 2.326 . S
O503 C510 1.267 . S
O504 C493 1.185 . S
O504 Dy495 2.398 . S
O505 C493 1.355 . S
O505 Dy495 2.491 . S
O506 Dy495 2.403 . S
O506 C501 1.254 . S
O507 Dy492 2.310 . S
O507 Dy495 2.664 . S
O507 C501 1.268 . S
O508 Dy492 2.351 . S
O508 C511 1.249 . S
O509 Dy495 2.326 . S
O509 C511 1.267 . S
C510 O502 1.249 . S
C510 O503 1.267 . S
C511 O508 1.249 . S
C511 O509 1.267 . S
Dy512 O516 2.398 1_455 S
Dy512 O517 2.491 1_455 S
Dy512 O518 2.403 . S
Dy512 O519 2.664 . S
Dy512 O523 2.326 1_455 S
Dy512 O527 2.310 . S
Dy512 O528 2.351 . S
C513 O524 1.185 . S
C513 O525 1.355 . S
C514 O516 1.185 . S
C514 O517 1.355 . S
Dy515 O519 2.310 . S
Dy515 O522 2.351 1_455 S
Dy515 O524 2.398 . S
Dy515 O525 2.491 . S
Dy515 O526 2.403 . S
Dy515 O527 2.664 . S
Dy515 O529 2.326 . S
O516 Dy512 2.398 1_655 S
O516 C514 1.185 . S
O517 Dy512 2.491 1_655 S
O517 C514 1.355 . S
O518 Dy512 2.403 . S
O518 C520 1.254 . S
O519 Dy512 2.664 . S
O519 Dy515 2.310 . S
O519 C520 1.268 . S
C520 O518 1.254 . S
C520 O519 1.268 . S
C521 O526 1.254 . S
C521 O527 1.268 . S
O522 Dy515 2.351 1_655 S
O522 C530 1.249 . S
O523 Dy512 2.326 1_655 S
O523 C530 1.267 . S
O524 C513 1.185 . S
O524 Dy515 2.398 . S
O525 C513 1.355 . S
O525 Dy515 2.491 . S
O526 Dy515 2.403 . S
O526 C521 1.254 . S
O527 Dy512 2.310 . S
O527 Dy515 2.664 . S
O527 C521 1.268 . S
O528 Dy512 2.351 . S
O528 C531 1.249 . S
O529 Dy515 2.326 . S
O529 C531 1.267 . S
C530 O522 1.249 . S
C530 O523 1.267 . S
C531 O528 1.249 . S
C531 O529 1.267 . S
Dy532 O536 2.398 . S
Dy532 O537 2.491 . S
Dy532 O538 2.403 . S
Dy532 O539 2.664 . S
Dy532 O543 2.326 . S
Dy532 O547 2.310 . S
Dy532 O548 2.351 . S
C533 O544 1.185 . S
C533 O545 1.355 . S
C534 O536 1.185 . S
C534 O537 1.355 . S
Dy535 O539 2.310 . S
Dy535 O542 2.351 . S
Dy535 O544 2.398 . S
Dy535 O545 2.491 . S
Dy535 O546 2.403 . S
Dy535 O547 2.664 . S
Dy535 O549 2.326 . S
O536 Dy532 2.398 . S
O536 C534 1.185 . S
O537 Dy532 2.491 . S
O537 C534 1.355 . S
O538 Dy532 2.403 . S
O538 C540 1.254 . S
O539 Dy532 2.664 . S
O539 Dy535 2.310 . S
O539 C540 1.268 . S
C540 O538 1.254 . S
C540 O539 1.268 . S
C541 O546 1.254 . S
C541 O547 1.268 . S
O542 Dy535 2.351 . S
O542 C550 1.249 . S
O543 Dy532 2.326 . S
O543 C550 1.267 . S
O544 C533 1.185 . S
O544 Dy535 2.398 . S
O545 C533 1.355 . S
O545 Dy535 2.491 . S
O546 Dy535 2.403 . S
O546 C541 1.254 . S
O547 Dy532 2.310 . S
O547 Dy535 2.664 . S
O547 C541 1.268 . S
O548 Dy532 2.351 . S
O548 C551 1.249 . S
O549 Dy535 2.326 . S
O549 C551 1.267 . S
C550 O542 1.249 . S
C550 O543 1.267 . S
C551 O548 1.249 . S
C551 O549 1.267 . S
Dy552 O556 2.398 . S
Dy552 O557 2.491 . S
Dy552 O558 2.403 . S
Dy552 O559 2.664 . S
Dy552 O563 2.326 . S
Dy552 O567 2.310 . S
Dy552 O568 2.351 . S
C553 O564 1.185 . S
C553 O565 1.355 . S
C554 O556 1.185 . S
C554 O557 1.355 . S
Dy555 O559 2.310 . S
Dy555 O562 2.351 . S
Dy555 O564 2.398 . S
Dy555 O565 2.491 . S
Dy555 O566 2.403 . S
Dy555 O567 2.664 . S
Dy555 O569 2.326 . S
O556 Dy552 2.398 . S
O556 C554 1.185 . S
O557 Dy552 2.491 . S
O557 C554 1.355 . S
O558 Dy552 2.403 . S
O558 C560 1.254 . S
O559 Dy552 2.664 . S
O559 Dy555 2.310 . S
O559 C560 1.268 . S
C560 O558 1.254 . S
C560 O559 1.268 . S
C561 O566 1.254 . S
C561 O567 1.268 . S
O562 Dy555 2.351 . S
O562 C570 1.249 . S
O563 Dy552 2.326 . S
O563 C570 1.267 . S
O564 C553 1.185 . S
O564 Dy555 2.398 . S
O565 C553 1.355 . S
O565 Dy555 2.491 . S
O566 Dy555 2.403 . S
O566 C561 1.254 . S
O567 Dy552 2.310 . S
O567 Dy555 2.664 . S
O567 C561 1.268 . S
O568 Dy552 2.351 . S
O568 C571 1.249 . S
O569 Dy555 2.326 . S
O569 C571 1.267 . S
C570 O562 1.249 . S
C570 O563 1.267 . S
C571 O568 1.249 . S
C571 O569 1.267 . S
Dy572 O576 2.398 . S
Dy572 O577 2.491 . S
Dy572 O578 2.403 . S
Dy572 O579 2.664 . S
Dy572 O583 2.326 . S
Dy572 O587 2.310 . S
Dy572 O588 2.351 . S
C573 O584 1.185 . S
C573 O585 1.355 . S
C574 O576 1.185 . S
C574 O577 1.355 . S
Dy575 O579 2.310 . S
Dy575 O582 2.351 . S
Dy575 O584 2.398 . S
Dy575 O585 2.491 . S
Dy575 O586 2.403 . S
Dy575 O587 2.664 . S
Dy575 O589 2.326 . S
O576 Dy572 2.398 . S
O576 C574 1.185 . S
O577 Dy572 2.491 . S
O577 C574 1.355 . S
O578 Dy572 2.403 . S
O578 C580 1.254 . S
O579 Dy572 2.664 . S
O579 Dy575 2.310 . S
O579 C580 1.268 . S
C580 O578 1.254 . S
C580 O579 1.268 . S
C581 O586 1.254 . S
C581 O587 1.268 . S
O582 Dy575 2.351 . S
O582 C590 1.249 . S
O583 Dy572 2.326 . S
O583 C590 1.267 . S
O584 C573 1.185 . S
O584 Dy575 2.398 . S
O585 C573 1.355 . S
O585 Dy575 2.491 . S
O586 Dy575 2.403 . S
O586 C581 1.254 . S
O587 Dy572 2.310 . S
O587 Dy575 2.664 . S
O587 C581 1.268 . S
O588 Dy572 2.351 . S
O588 C591 1.249 . S
O589 Dy575 2.326 . S
O589 C591 1.267 . S
C590 O582 1.249 . S
C590 O583 1.267 . S
C591 O588 1.249 . S
C591 O589 1.267 . S
Dy592 O596 2.398 . S
Dy592 O597 2.491 . S
Dy592 O598 2.403 . S
Dy592 O599 2.664 . S
Dy592 O603 2.326 . S
Dy592 O607 2.310 . S
Dy592 O608 2.351 . S
C593 O604 1.185 . S
C593 O605 1.355 . S
C594 O596 1.185 . S
C594 O597 1.355 . S
Dy595 O599 2.310 . S
Dy595 O602 2.351 . S
Dy595 O604 2.398 . S
Dy595 O605 2.491 . S
Dy595 O606 2.403 . S
Dy595 O607 2.664 . S
Dy595 O609 2.326 . S
O596 Dy592 2.398 . S
O596 C594 1.185 . S
O597 Dy592 2.491 . S
O597 C594 1.355 . S
O598 Dy592 2.403 . S
O598 C600 1.254 . S
O599 Dy592 2.664 . S
O599 Dy595 2.310 . S
O599 C600 1.268 . S
C600 O598 1.254 . S
C600 O599 1.268 . S
C601 O606 1.254 . S
C601 O607 1.268 . S
O602 Dy595 2.351 . S
O602 C610 1.249 . S
O603 Dy592 2.326 . S
O603 C610 1.267 . S
O604 C593 1.185 . S
O604 Dy595 2.398 . S
O605 C593 1.355 . S
O605 Dy595 2.491 . S
O606 Dy595 2.403 . S
O606 C601 1.254 . S
O607 Dy592 2.310 . S
O607 Dy595 2.664 . S
O607 C601 1.268 . S
O608 Dy592 2.351 . S
O608 C611 1.249 . S
O609 Dy595 2.326 . S
O609 C611 1.267 . S
C610 O602 1.249 . S
C610 O603 1.267 . S
C611 O608 1.249 . S
C611 O609 1.267 . S
Dy612 O616 2.398 1_554 S
Dy612 O617 2.491 . S
Dy612 O618 2.403 1_554 S
Dy612 O619 2.664 1_455 S
Dy612 O623 2.326 . S
Dy612 O627 2.310 . S
Dy612 O628 2.351 . S
C613 O624 1.185 . S
C613 O625 1.355 . S
C614 O616 1.185 1_554 S
C614 O617 1.355 . S
Dy615 O619 2.310 . S
Dy615 O622 2.351 . S
Dy615 O624 2.398 . S
Dy615 O625 2.491 . S
Dy615 O626 2.403 . S
Dy615 O627 2.664 1_655 S
Dy615 O629 2.326 . S
O616 Dy612 2.398 1_556 S
O616 C614 1.185 1_556 S
O617 Dy612 2.491 . S
O617 C614 1.355 . S
O618 Dy612 2.403 1_556 S
O618 C620 1.254 . S
O619 Dy612 2.664 1_655 S
O619 Dy615 2.310 . S
O619 C620 1.268 1_654 S
C620 O618 1.254 . S
C620 O619 1.268 1_456 S
C621 O626 1.254 1_455 S
C621 O627 1.268 . S
O622 Dy615 2.351 . S
O622 C630 1.249 1_655 S
O623 Dy612 2.326 . S
O623 C630 1.267 . S
O624 C613 1.185 . S
O624 Dy615 2.398 . S
O625 C613 1.355 . S
O625 Dy615 2.491 . S
O626 Dy615 2.403 . S
O626 C621 1.254 1_655 S
O627 Dy612 2.310 . S
O627 Dy615 2.664 1_455 S
O627 C621 1.268 . S
O628 Dy612 2.351 . S
O628 C631 1.249 . S
O629 Dy615 2.326 . S
O629 C631 1.267 1_655 S
C630 O622 1.249 1_455 S
C630 O623 1.267 . S
C631 O628 1.249 . S
C631 O629 1.267 1_455 S
H632 C638 0.930 . S
H633 C642 0.930 . S
H634 C647 0.929 . S
H635 C645 0.929 . S
H636 C640 0.929 . S
H637 C646 0.929 . S
C638 H632 0.930 . S
C638 C639 1.367 . S
C638 C646 1.378 . S
C639 C638 1.367 . S
C639 C647 1.433 . S
C640 H636 0.929 . S
C640 C642 1.378 . S
C640 C644 1.350 . S
C641 C644 1.463 . S
C641 C646 1.350 . S
C641 N649 1.427 . S
C642 H633 0.930 . S
C642 C640 1.378 . S
C642 C643 1.367 1_556 S
C643 C642 1.367 1_554 S
C643 C645 1.433 . S
C644 C640 1.350 . S
C644 C641 1.463 . S
C644 N648 1.427 1_556 S
C645 H635 0.929 . S
C645 C643 1.433 . S
C645 N648 1.384 . S
C646 H637 0.929 . S
C646 C638 1.378 . S
C646 C641 1.350 . S
C647 H634 0.929 . S
C647 C639 1.433 . S
C647 N649 1.384 . S
N648 C644 1.427 1_554 S
N648 C645 1.384 . S
N649 C641 1.427 . S
N649 C647 1.384 . S
H650 C656 0.930 . S
H651 C660 0.930 . S
H652 C665 0.929 . S
H653 C663 0.929 . S
H654 C658 0.929 . S
H655 C664 0.929 . S
C656 H650 0.930 . S
C656 C657 1.367 . S
C656 C664 1.378 . S
C657 C656 1.367 . S
C657 C665 1.433 . S
C658 H654 0.929 . S
C658 C660 1.378 . S
C658 C662 1.350 . S
C659 C662 1.463 . S
C659 C664 1.350 . S
C659 N667 1.427 . S
C660 H651 0.930 . S
C660 C658 1.378 . S
C660 C661 1.367 . S
C661 C660 1.367 . S
C661 C663 1.433 . S
C662 C658 1.350 . S
C662 C659 1.463 . S
C662 N666 1.427 . S
C663 H653 0.929 . S
C663 C661 1.433 . S
C663 N666 1.384 . S
C664 H655 0.929 . S
C664 C656 1.378 . S
C664 C659 1.350 . S
C665 H652 0.929 . S
C665 C657 1.433 . S
C665 N667 1.384 . S
N666 C662 1.427 . S
N666 C663 1.384 . S
N667 C659 1.427 . S
N667 C665 1.384 . S
H668 C674 0.930 . S
H669 C678 0.930 . S
H670 C683 0.929 . S
H671 C681 0.929 . S
H672 C676 0.929 . S
H673 C682 0.929 . S
C674 H668 0.930 . S
C674 C675 1.367 . S
C674 C682 1.378 . S
C675 C674 1.367 . S
C675 C683 1.433 . S
C676 H672 0.929 . S
C676 C678 1.378 . S
C676 C680 1.350 . S
C677 C680 1.463 . S
C677 C682 1.350 . S
C677 N685 1.427 . S
C678 H669 0.930 . S
C678 C676 1.378 . S
C678 C679 1.367 . S
C679 C678 1.367 . S
C679 C681 1.433 . S
C680 C676 1.350 . S
C680 C677 1.463 . S
C680 N684 1.427 . S
C681 H671 0.929 . S
C681 C679 1.433 . S
C681 N684 1.384 . S
C682 H673 0.929 . S
C682 C674 1.378 . S
C682 C677 1.350 . S
C683 H670 0.929 . S
C683 C675 1.433 . S
C683 N685 1.384 . S
N684 C680 1.427 . S
N684 C681 1.384 . S
N685 C677 1.427 . S
N685 C683 1.384 . S
H686 C692 0.930 . S
H687 C696 0.930 . S
H688 C701 0.929 . S
H689 C699 0.929 . S
H690 C694 0.929 . S
H691 C700 0.929 . S
C692 H686 0.930 . S
C692 C693 1.367 . S
C692 C700 1.378 . S
C693 C692 1.367 . S
C693 C701 1.433 . S
C694 H690 0.929 . S
C694 C696 1.378 . S
C694 C698 1.350 . S
C695 C698 1.463 . S
C695 C700 1.350 . S
C695 N703 1.427 . S
C696 H687 0.930 . S
C696 C694 1.378 . S
C696 C697 1.367 . S
C697 C696 1.367 . S
C697 C699 1.433 . S
C698 C694 1.350 . S
C698 C695 1.463 . S
C698 N702 1.427 . S
C699 H689 0.929 . S
C699 C697 1.433 . S
C699 N702 1.384 . S
C700 H691 0.929 . S
C700 C692 1.378 . S
C700 C695 1.350 . S
C701 H688 0.929 . S
C701 C693 1.433 . S
C701 N703 1.384 . S
N702 C698 1.427 . S
N702 C699 1.384 . S
N703 C695 1.427 . S
N703 C701 1.384 . S
H704 C710 0.930 . S
H705 C714 0.930 . S
H706 C719 0.929 . S
H707 C717 0.929 . S
H708 C712 0.929 . S
H709 C718 0.929 . S
C710 H704 0.930 . S
C710 C711 1.367 . S
C710 C718 1.378 . S
C711 C710 1.367 . S
C711 C719 1.433 . S
C712 H708 0.929 . S
C712 C714 1.378 . S
C712 C716 1.350 . S
C713 C716 1.463 . S
C713 C718 1.350 . S
C713 N721 1.427 . S
C714 H705 0.930 . S
C714 C712 1.378 . S
C714 C715 1.367 . S
C715 C714 1.367 . S
C715 C717 1.433 . S
C716 C712 1.350 . S
C716 C713 1.463 . S
C716 N720 1.427 . S
C717 H707 0.929 . S
C717 C715 1.433 . S
C717 N720 1.384 . S
C718 H709 0.929 . S
C718 C710 1.378 . S
C718 C713 1.350 . S
C719 H706 0.929 . S
C719 C711 1.433 . S
C719 N721 1.384 . S
N720 C716 1.427 . S
N720 C717 1.384 . S
N721 C713 1.427 . S
N721 C719 1.384 . S
H722 C728 0.930 . S
H723 C732 0.930 . S
H724 C737 0.929 . S
H725 C735 0.929 . S
H726 C730 0.929 . S
H727 C736 0.929 . S
C728 H722 0.930 . S
C728 C729 1.367 . S
C728 C736 1.378 . S
C729 C728 1.367 . S
C729 C737 1.433 . S
C730 H726 0.929 . S
C730 C732 1.378 . S
C730 C734 1.350 . S
C731 C734 1.463 . S
C731 C736 1.350 . S
C731 N739 1.427 . S
C732 H723 0.930 . S
C732 C730 1.378 . S
C732 C733 1.367 . S
C733 C732 1.367 . S
C733 C735 1.433 . S
C734 C730 1.350 . S
C734 C731 1.463 . S
C734 N738 1.427 . S
C735 H725 0.929 . S
C735 C733 1.433 . S
C735 N738 1.384 . S
C736 H727 0.929 . S
C736 C728 1.378 . S
C736 C731 1.350 . S
C737 H724 0.929 . S
C737 C729 1.433 . S
C737 N739 1.384 . S
N738 C734 1.427 . S
N738 C735 1.384 . S
N739 C731 1.427 . S
N739 C737 1.384 . S
H740 C746 0.930 . S
H741 C750 0.930 . S
H742 C755 0.929 . S
H743 C753 0.929 . S
H744 C748 0.929 . S
H745 C754 0.929 . S
C746 H740 0.930 . S
C746 C747 1.367 . S
C746 C754 1.378 . S
C747 C746 1.367 . S
C747 C755 1.433 . S
C748 H744 0.929 . S
C748 C750 1.378 . S
C748 C752 1.350 . S
C749 C752 1.463 . S
C749 C754 1.350 . S
C749 N757 1.427 . S
C750 H741 0.930 . S
C750 C748 1.378 . S
C750 C751 1.367 . S
C751 C750 1.367 . S
C751 C753 1.433 . S
C752 C748 1.350 . S
C752 C749 1.463 . S
C752 N756 1.427 . S
C753 H743 0.929 . S
C753 C751 1.433 . S
C753 N756 1.384 . S
C754 H745 0.929 . S
C754 C746 1.378 . S
C754 C749 1.350 . S
C755 H742 0.929 . S
C755 C747 1.433 . S
C755 N757 1.384 . S
N756 C752 1.427 . S
N756 C753 1.384 . S
N757 C749 1.427 . S
N757 C755 1.384 . S
H758 C764 0.930 . S
H759 C768 0.930 . S
H760 C773 0.929 . S
H761 C771 0.929 . S
H762 C766 0.929 . S
H763 C772 0.929 . S
C764 H758 0.930 . S
C764 C765 1.367 . S
C764 C772 1.378 . S
C765 C764 1.367 . S
C765 C773 1.433 . S
C766 H762 0.929 . S
C766 C768 1.378 . S
C766 C770 1.350 . S
C767 C770 1.463 . S
C767 C772 1.350 . S
C767 N775 1.427 . S
C768 H759 0.930 . S
C768 C766 1.378 . S
C768 C769 1.367 . S
C769 C768 1.367 . S
C769 C771 1.433 . S
C770 C766 1.350 . S
C770 C767 1.463 . S
C770 N774 1.427 . S
C771 H761 0.929 . S
C771 C769 1.433 . S
C771 N774 1.384 . S
C772 H763 0.929 . S
C772 C764 1.378 . S
C772 C767 1.350 . S
C773 H760 0.929 . S
C773 C765 1.433 . S
C773 N775 1.384 . S
N774 C770 1.427 . S
N774 C771 1.384 . S
N775 C767 1.427 . S
N775 C773 1.384 . S
H776 C782 0.930 . S
H777 C786 0.943 . S
H778 C791 0.929 . S
H779 C789 0.929 . S
H780 C784 0.929 . S
H781 C790 0.929 . S
C782 H776 0.930 . S
C782 C783 1.367 . S
C782 C790 1.378 . S
C783 C782 1.367 . S
C783 C791 1.433 . S
C784 H780 0.929 . S
C784 C786 1.359 1_655 S
C784 C788 1.350 . S
C785 C788 1.463 . S
C785 C790 1.350 . S
C785 N793 1.427 . S
C786 H777 0.943 . S
C786 C784 1.359 1_455 S
C786 C787 1.375 . S
C787 C786 1.375 . S
C787 C789 1.433 . S
C788 C784 1.350 . S
C788 C785 1.463 . S
C788 N792 1.427 . S
C789 H779 0.929 . S
C789 C787 1.433 . S
C789 N792 1.384 1_455 S
C790 H781 0.929 . S
C790 C782 1.378 . S
C790 C785 1.350 . S
C791 H778 0.929 . S
C791 C783 1.433 . S
C791 N793 1.384 . S
N792 C788 1.427 . S
N792 C789 1.384 1_655 S
N793 C785 1.427 . S
N793 C791 1.384 . S
H794 C800 0.930 . S
H795 C804 0.930 . S
H796 C809 0.929 . S
H797 C807 0.929 . S
H798 C802 0.929 . S
H799 C808 0.929 . S
C800 H794 0.930 . S
C800 C801 1.367 . S
C800 C808 1.378 . S
C801 C800 1.367 . S
C801 C809 1.433 . S
C802 H798 0.929 . S
C802 C804 1.378 . S
C802 C806 1.350 . S
C803 C806 1.463 . S
C803 C808 1.350 . S
C803 N811 1.427 . S
C804 H795 0.930 . S
C804 C802 1.378 . S
C804 C805 1.367 . S
C805 C804 1.367 . S
C805 C807 1.433 . S
C806 C802 1.350 . S
C806 C803 1.463 . S
C806 N810 1.427 . S
C807 H797 0.929 . S
C807 C805 1.433 . S
C807 N810 1.384 . S
C808 H799 0.929 . S
C808 C800 1.378 . S
C808 C803 1.350 . S
C809 H796 0.929 . S
C809 C801 1.433 . S
C809 N811 1.384 . S
N810 C806 1.427 . S
N810 C807 1.384 . S
N811 C803 1.427 . S
N811 C809 1.384 . S
H812 C818 0.930 . S
H813 C822 0.930 1_565 S
H814 C827 0.929 . S
H815 C825 0.929 . S
H816 C820 0.926 1_565 S
H817 C826 0.929 . S
C818 H812 0.930 . S
C818 C819 1.367 . S
C818 C826 1.378 . S
C819 C818 1.367 . S
C819 C827 1.433 . S
C820 H816 0.926 1_545 S
C820 C822 1.378 . S
C820 C824 1.350 . S
C821 C824 1.463 . S
C821 C826 1.350 . S
C821 N829 1.427 . S
C822 H813 0.930 1_545 S
C822 C820 1.378 . S
C822 C823 1.366 . S
C823 C822 1.366 . S
C823 C825 1.433 . S
C824 C820 1.350 . S
C824 C821 1.463 . S
C824 N828 1.427 . S
C825 H815 0.929 . S
C825 C823 1.433 . S
C825 N828 1.384 . S
C826 H817 0.929 . S
C826 C818 1.378 . S
C826 C821 1.350 . S
C827 H814 0.929 . S
C827 C819 1.433 . S
C827 N829 1.384 . S
N828 C824 1.427 . S
N828 C825 1.384 . S
N829 C821 1.427 . S
N829 C827 1.384 . S
H830 C836 0.930 . S
H831 C840 0.930 . S
H832 C845 0.929 . S
H833 C843 0.929 . S
H834 C838 0.929 . S
H835 C844 0.929 . S
C836 H830 0.930 . S
C836 C837 1.367 . S
C836 C844 1.378 . S
C837 C836 1.367 . S
C837 C845 1.433 . S
C838 H834 0.929 . S
C838 C840 1.378 . S
C838 C842 1.350 . S
C839 C842 1.463 . S
C839 C844 1.350 . S
C839 N847 1.427 . S
C840 H831 0.930 . S
C840 C838 1.378 . S
C840 C841 1.367 . S
C841 C840 1.367 . S
C841 C843 1.433 . S
C842 C838 1.350 . S
C842 C839 1.463 . S
C842 N846 1.427 . S
C843 H833 0.929 . S
C843 C841 1.433 . S
C843 N846 1.384 . S
C844 H835 0.929 . S
C844 C836 1.378 . S
C844 C839 1.350 . S
C845 H832 0.929 . S
C845 C837 1.433 . S
C845 N847 1.384 . S
N846 C842 1.427 . S
N846 C843 1.384 . S
N847 C839 1.427 . S
N847 C845 1.384 . S
H848 C854 0.930 . S
H849 C858 0.930 . S
H850 C863 0.929 . S
H851 C861 0.908 1_565 S
H852 C856 0.929 1_455 S
H853 C862 0.929 . S
C854 H848 0.930 . S
C854 C855 1.367 . S
C854 C862 1.378 . S
C855 C854 1.367 . S
C855 C863 1.433 . S
C856 H852 0.929 1_655 S
C856 C858 1.378 1_655 S
C856 C860 1.350 . S
C857 C860 1.463 . S
C857 C862 1.350 . S
C857 N865 1.427 . S
C858 H849 0.930 . S
C858 C856 1.378 1_455 S
C858 C859 1.367 . S
C859 C858 1.367 . S
C859 C861 1.443 1_455 S
C860 C856 1.350 . S
C860 C857 1.463 . S
C860 N864 1.427 . S
C861 H851 0.908 1_545 S
C861 C859 1.443 1_655 S
C861 N864 1.396 . S
C862 H853 0.929 . S
C862 C854 1.378 . S
C862 C857 1.350 . S
C863 H850 0.929 . S
C863 C855 1.433 . S
C863 N865 1.384 . S
N864 C860 1.427 . S
N864 C861 1.396 . S
N865 C857 1.427 . S
N865 C863 1.384 . S
H866 C872 0.930 . S
H867 C876 0.930 . S
H868 C881 0.929 . S
H869 C879 0.929 . S
H870 C874 0.929 . S
H871 C880 0.929 . S
C872 H866 0.930 . S
C872 C873 1.367 . S
C872 C880 1.378 . S
C873 C872 1.367 . S
C873 C881 1.433 . S
C874 H870 0.929 . S
C874 C876 1.378 . S
C874 C878 1.350 . S
C875 C878 1.463 . S
C875 C880 1.350 . S
C875 N883 1.427 . S
C876 H867 0.930 . S
C876 C874 1.378 . S
C876 C877 1.367 . S
C877 C876 1.367 . S
C877 C879 1.433 . S
C878 C874 1.350 . S
C878 C875 1.463 . S
C878 N882 1.427 . S
C879 H869 0.929 . S
C879 C877 1.433 . S
C879 N882 1.384 . S
C880 H871 0.929 . S
C880 C872 1.378 . S
C880 C875 1.350 . S
C881 H868 0.929 . S
C881 C873 1.433 . S
C881 N883 1.384 . S
N882 C878 1.427 . S
N882 C879 1.384 . S
N883 C875 1.427 . S
N883 C881 1.384 . S
H884 C890 0.930 . S
H885 C894 0.930 . S
H886 C899 0.929 . S
H887 C897 0.929 . S
H888 C892 0.929 . S
H889 C898 0.929 . S
C890 H884 0.930 . S
C890 C891 1.367 . S
C890 C898 1.378 . S
C891 C890 1.367 . S
C891 C899 1.433 . S
C892 H888 0.929 . S
C892 C894 1.378 . S
C892 C896 1.350 . S
C893 C896 1.463 . S
C893 C898 1.350 . S
C893 N901 1.427 . S
C894 H885 0.930 . S
C894 C892 1.378 . S
C894 C895 1.367 . S
C895 C894 1.367 . S
C895 C897 1.433 . S
C896 C892 1.350 . S
C896 C893 1.463 . S
C896 N900 1.427 . S
C897 H887 0.929 . S
C897 C895 1.433 . S
C897 N900 1.384 . S
C898 H889 0.929 . S
C898 C890 1.378 . S
C898 C893 1.350 . S
C899 H886 0.929 . S
C899 C891 1.433 . S
C899 N901 1.384 . S
N900 C896 1.427 . S
N900 C897 1.384 . S
N901 C893 1.427 . S
N901 C899 1.384 . S
H902 C908 0.930 . S
H903 C912 0.930 . S
H904 C917 0.929 . S
H905 C915 0.929 . S
H906 C910 0.929 . S
H907 C916 0.929 . S
C908 H902 0.930 . S
C908 C909 1.367 . S
C908 C916 1.378 . S
C909 C908 1.367 . S
C909 C917 1.433 . S
C910 H906 0.929 . S
C910 C912 1.378 . S
C910 C914 1.350 . S
C911 C914 1.463 . S
C911 C916 1.350 . S
C911 N919 1.427 . S
C912 H903 0.930 . S
C912 C910 1.378 . S
C912 C913 1.367 . S
C913 C912 1.367 . S
C913 C915 1.433 . S
C914 C910 1.350 . S
C914 C911 1.463 . S
C914 N918 1.427 . S
C915 H905 0.929 . S
C915 C913 1.433 . S
C915 N918 1.384 . S
C916 H907 0.929 . S
C916 C908 1.378 . S
C916 C911 1.350 . S
C917 H904 0.929 . S
C917 C909 1.433 . S
C917 N919 1.384 . S
N918 C914 1.427 . S
N918 C915 1.384 . S
N919 C911 1.427 . S
N919 C917 1.384 . S
H920 C926 0.930 . S
H921 C930 0.930 . S
H922 C935 0.929 1_556 S
H923 C933 0.929 . S
H924 C928 0.929 . S
H925 C934 0.929 . S
C926 H920 0.930 . S
C926 C927 1.367 . S
C926 C934 1.378 . S
C927 C926 1.367 . S
C927 C935 1.433 . S
C928 H924 0.929 . S
C928 C930 1.378 . S
C928 C932 1.350 . S
C929 C932 1.463 . S
C929 C934 1.350 . S
C929 N937 1.427 . S
C930 H921 0.930 . S
C930 C928 1.378 . S
C930 C931 1.367 1_565 S
C931 C930 1.367 1_545 S
C931 C933 1.433 . S
C932 C928 1.350 . S
C932 C929 1.463 . S
C932 N936 1.427 . S
C933 H923 0.929 . S
C933 C931 1.433 . S
C933 N936 1.384 1_545 S
C934 H925 0.929 . S
C934 C926 1.378 . S
C934 C929 1.350 . S
C935 H922 0.929 1_554 S
C935 C927 1.433 . S
C935 N937 1.384 . S
N936 C932 1.427 . S
N936 C933 1.384 1_565 S
N937 C929 1.427 . S
N937 C935 1.384 . S
H938 C944 0.930 . S
H939 C948 0.930 . S
H940 C953 0.929 . S
H941 C951 0.929 . S
H942 C946 0.929 . S
H943 C952 0.929 . S
C944 H938 0.930 . S
C944 C945 1.367 1_556 S
C944 C952 1.378 . S
C945 C944 1.367 1_554 S
C945 C953 1.433 . S
C946 H942 0.929 . S
C946 C948 1.378 . S
C946 C950 1.350 . S
C947 C950 1.469 . S
C947 C952 1.312 1_554 S
C947 N955 1.463 . S
C948 H939 0.930 . S
C948 C946 1.378 . S
C948 C949 1.365 . S
C949 C948 1.365 . S
C949 C951 1.435 1_554 S
C950 C946 1.350 . S
C950 C947 1.469 . S
C950 N954 1.427 1_554 S
C951 H941 0.929 . S
C951 C949 1.435 1_556 S
C951 N954 1.384 . S
C952 H943 0.929 . S
C952 C944 1.378 . S
C952 C947 1.312 1_556 S
C953 H940 0.929 . S
C953 C945 1.433 . S
C953 N955 1.384 . S
N954 C950 1.427 1_556 S
N954 C951 1.384 . S
N955 C947 1.463 . S
N955 C953 1.384 . S
H956 C962 0.930 . S
H957 C966 0.930 . S
H958 C971 0.929 . S
H959 C969 0.929 . S
H960 C964 0.929 . S
H961 C970 0.929 . S
C962 H956 0.930 . S
C962 C963 1.367 . S
C962 C970 1.378 . S
C963 C962 1.367 . S
C963 C971 1.433 . S
C964 H960 0.929 . S
C964 C966 1.378 . S
C964 C968 1.350 . S
C965 C968 1.463 . S
C965 C970 1.350 . S
C965 N973 1.427 . S
C966 H957 0.930 . S
C966 C964 1.378 . S
C966 C967 1.367 . S
C967 C966 1.367 . S
C967 C969 1.433 . S
C968 C964 1.350 . S
C968 C965 1.463 . S
C968 N972 1.427 . S
C969 H959 0.929 . S
C969 C967 1.433 . S
C969 N972 1.384 . S
C970 H961 0.929 . S
C970 C962 1.378 . S
C970 C965 1.350 . S
C971 H958 0.929 . S
C971 C963 1.433 . S
C971 N973 1.384 . S
N972 C968 1.427 . S
N972 C969 1.384 . S
N973 C965 1.427 . S
N973 C971 1.384 . S
H974 C980 0.930 . S
H975 C984 0.930 . S
H976 C989 0.929 . S
H977 C987 0.929 . S
H978 C982 0.929 . S
H979 C988 0.929 . S
C980 H974 0.930 . S
C980 C981 1.367 . S
C980 C988 1.378 . S
C981 C980 1.367 . S
C981 C989 1.433 . S
C982 H978 0.929 . S
C982 C984 1.378 . S
C982 C986 1.350 . S
C983 C986 1.463 . S
C983 C988 1.350 . S
C983 N991 1.427 . S
C984 H975 0.930 . S
C984 C982 1.378 . S
C984 C985 1.367 . S
C985 C984 1.367 . S
C985 C987 1.433 . S
C986 C982 1.350 . S
C986 C983 1.463 . S
C986 N990 1.427 . S
C987 H977 0.929 . S
C987 C985 1.433 . S
C987 N990 1.384 . S
C988 H979 0.929 . S
C988 C980 1.378 . S
C988 C983 1.350 . S
C989 H976 0.929 . S
C989 C981 1.433 . S
C989 N991 1.384 . S
N990 C986 1.427 . S
N990 C987 1.384 . S
N991 C983 1.427 . S
N991 C989 1.384 . S
H992 C998 0.930 . S
H993 C1002 0.930 . S
H994 C1007 0.929 . S
H995 C1005 0.929 . S
H996 C1000 0.929 . S
H997 C1006 0.929 . S
C998 H992 0.930 . S
C998 C999 1.367 . S
C998 C1006 1.378 . S
C999 C998 1.367 . S
C999 C1007 1.433 . S
C1000 H996 0.929 . S
C1000 C1002 1.378 . S
C1000 C1004 1.350 . S
C1001 C1004 1.463 . S
C1001 C1006 1.350 . S
C1001 N1009 1.427 . S
C1002 H993 0.930 . S
C1002 C1000 1.378 . S
C1002 C1003 1.367 . S
C1003 C1002 1.367 . S
C1003 C1005 1.433 . S
C1004 C1000 1.350 . S
C1004 C1001 1.463 . S
C1004 N1008 1.427 . S
C1005 H995 0.929 . S
C1005 C1003 1.433 . S
C1005 N1008 1.384 . S
C1006 H997 0.929 . S
C1006 C998 1.378 . S
C1006 C1001 1.350 . S
C1007 H994 0.929 . S
C1007 C999 1.433 . S
C1007 N1009 1.384 . S
N1008 C1004 1.427 . S
N1008 C1005 1.384 . S
N1009 C1001 1.427 . S
N1009 C1007 1.384 . S
H1010 C1016 0.930 . S
H1011 C1020 0.930 . S
H1012 C1025 0.929 . S
H1013 C1023 0.929 . S
H1014 C1018 0.929 . S
H1015 C1024 0.929 . S
C1016 H1010 0.930 . S
C1016 C1017 1.367 . S
C1016 C1024 1.378 . S
C1017 C1016 1.367 . S
C1017 C1025 1.433 . S
C1018 H1014 0.929 . S
C1018 C1020 1.378 . S
C1018 C1022 1.350 . S
C1019 C1022 1.463 . S
C1019 C1024 1.350 . S
C1019 N1027 1.427 . S
C1020 H1011 0.930 . S
C1020 C1018 1.378 . S
C1020 C1021 1.367 . S
C1021 C1020 1.367 . S
C1021 C1023 1.433 . S
C1022 C1018 1.350 . S
C1022 C1019 1.463 . S
C1022 N1026 1.427 . S
C1023 H1013 0.929 . S
C1023 C1021 1.433 . S
C1023 N1026 1.384 . S
C1024 H1015 0.929 . S
C1024 C1016 1.378 . S
C1024 C1019 1.350 . S
C1025 H1012 0.929 . S
C1025 C1017 1.433 . S
C1025 N1027 1.384 . S
N1026 C1022 1.427 . S
N1026 C1023 1.384 . S
N1027 C1019 1.427 . S
N1027 C1025 1.384 . S
H1028 C1034 0.930 . S
H1029 C1038 0.930 . S
H1030 C1043 0.929 . S
H1031 C1041 0.929 . S
H1032 C1036 0.929 . S
H1033 C1042 0.929 . S
C1034 H1028 0.930 . S
C1034 C1035 1.367 . S
C1034 C1042 1.378 . S
C1035 C1034 1.367 . S
C1035 C1043 1.433 . S
C1036 H1032 0.929 . S
C1036 C1038 1.378 . S
C1036 C1040 1.350 . S
C1037 C1040 1.463 . S
C1037 C1042 1.350 . S
C1037 N1045 1.427 . S
C1038 H1029 0.930 . S
C1038 C1036 1.378 . S
C1038 C1039 1.367 . S
C1039 C1038 1.367 . S
C1039 C1041 1.433 . S
C1040 C1036 1.350 . S
C1040 C1037 1.463 . S
C1040 N1044 1.427 . S
C1041 H1031 0.929 . S
C1041 C1039 1.433 . S
C1041 N1044 1.384 . S
C1042 H1033 0.929 . S
C1042 C1034 1.378 . S
C1042 C1037 1.350 . S
C1043 H1030 0.929 . S
C1043 C1035 1.433 . S
C1043 N1045 1.384 . S
N1044 C1040 1.427 . S
N1044 C1041 1.384 . S
N1045 C1037 1.427 . S
N1045 C1043 1.384 . S
H1046 C1052 0.930 . S
H1047 C1056 0.930 . S
H1048 C1061 0.929 . S
H1049 C1059 0.929 . S
H1050 C1054 0.929 . S
H1051 C1060 0.929 . S
C1052 H1046 0.930 . S
C1052 C1053 1.367 . S
C1052 C1060 1.378 . S
C1053 C1052 1.367 . S
C1053 C1061 1.433 . S
C1054 H1050 0.929 . S
C1054 C1056 1.378 . S
C1054 C1058 1.350 . S
C1055 C1058 1.463 . S
C1055 C1060 1.350 . S
C1055 N1063 1.427 . S
C1056 H1047 0.930 . S
C1056 C1054 1.378 . S
C1056 C1057 1.367 . S
C1057 C1056 1.367 . S
C1057 C1059 1.433 . S
C1058 C1054 1.350 . S
C1058 C1055 1.463 . S
C1058 N1062 1.427 . S
C1059 H1049 0.929 . S
C1059 C1057 1.433 . S
C1059 N1062 1.384 . S
C1060 H1051 0.929 . S
C1060 C1052 1.378 . S
C1060 C1055 1.350 . S
C1061 H1048 0.929 . S
C1061 C1053 1.433 . S
C1061 N1063 1.384 . S
N1062 C1058 1.427 . S
N1062 C1059 1.384 . S
N1063 C1055 1.427 . S
N1063 C1061 1.384 . S
H1064 C1070 0.930 . S
H1065 C1074 0.930 . S
H1066 C1079 0.929 . S
H1067 C1077 0.929 . S
H1068 C1072 0.929 . S
H1069 C1078 0.929 . S
C1070 H1064 0.930 . S
C1070 C1071 1.367 . S
C1070 C1078 1.378 . S
C1071 C1070 1.367 . S
C1071 C1079 1.433 . S
C1072 H1068 0.929 . S
C1072 C1074 1.378 . S
C1072 C1076 1.350 . S
C1073 C1076 1.463 . S
C1073 C1078 1.350 . S
C1073 N1081 1.427 . S
C1074 H1065 0.930 . S
C1074 C1072 1.378 . S
C1074 C1075 1.367 . S
C1075 C1074 1.367 . S
C1075 C1077 1.433 . S
C1076 C1072 1.350 . S
C1076 C1073 1.463 . S
C1076 N1080 1.427 . S
C1077 H1067 0.929 . S
C1077 C1075 1.433 . S
C1077 N1080 1.384 . S
C1078 H1069 0.929 . S
C1078 C1070 1.378 . S
C1078 C1073 1.350 . S
C1079 H1066 0.929 . S
C1079 C1071 1.433 . S
C1079 N1081 1.384 . S
N1080 C1076 1.427 . S
N1080 C1077 1.384 . S
N1081 C1073 1.427 . S
N1081 C1079 1.384 . S
H1082 C1088 0.930 . S
H1083 C1092 0.930 . S
H1084 C1097 0.929 . S
H1085 C1095 0.929 . S
H1086 C1090 0.929 . S
H1087 C1096 0.929 . S
C1088 H1082 0.930 . S
C1088 C1089 1.367 . S
C1088 C1096 1.378 . S
C1089 C1088 1.367 . S
C1089 C1097 1.433 . S
C1090 H1086 0.929 . S
C1090 C1092 1.378 . S
C1090 C1094 1.350 . S
C1091 C1094 1.463 . S
C1091 C1096 1.350 . S
C1091 N1099 1.427 . S
C1092 H1083 0.930 . S
C1092 C1090 1.378 . S
C1092 C1093 1.367 . S
C1093 C1092 1.367 . S
C1093 C1095 1.433 . S
C1094 C1090 1.350 . S
C1094 C1091 1.463 . S
C1094 N1098 1.427 . S
C1095 H1085 0.929 . S
C1095 C1093 1.433 . S
C1095 N1098 1.384 . S
C1096 H1087 0.929 . S
C1096 C1088 1.378 . S
C1096 C1091 1.350 . S
C1097 H1084 0.929 . S
C1097 C1089 1.433 . S
C1097 N1099 1.384 . S
N1098 C1094 1.427 . S
N1098 C1095 1.384 . S
N1099 C1091 1.427 . S
N1099 C1097 1.384 . S
H1100 C1106 0.930 . S
H1101 C1110 0.930 . S
H1102 C1115 0.929 . S
H1103 C1113 0.929 . S
H1104 C1108 0.929 . S
H1105 C1114 0.929 . S
C1106 H1100 0.930 . S
C1106 C1107 1.367 . S
C1106 C1114 1.378 . S
C1107 C1106 1.367 . S
C1107 C1115 1.433 . S
C1108 H1104 0.929 . S
C1108 C1110 1.378 . S
C1108 C1112 1.350 . S
C1109 C1112 1.463 . S
C1109 C1114 1.350 . S
C1109 N1117 1.427 . S
C1110 H1101 0.930 . S
C1110 C1108 1.378 . S
C1110 C1111 1.367 . S
C1111 C1110 1.367 . S
C1111 C1113 1.433 . S
C1112 C1108 1.350 . S
C1112 C1109 1.463 . S
C1112 N1116 1.427 . S
C1113 H1103 0.929 . S
C1113 C1111 1.433 . S
C1113 N1116 1.384 . S
C1114 H1105 0.929 . S
C1114 C1106 1.378 . S
C1114 C1109 1.350 . S
C1115 H1102 0.929 . S
C1115 C1107 1.433 . S
C1115 N1117 1.384 . S
N1116 C1112 1.427 . S
N1116 C1113 1.384 . S
N1117 C1109 1.427 . S
N1117 C1115 1.384 . S
H1118 C1124 0.930 . S
H1119 C1128 0.930 . S
H1120 C1133 0.929 . S
H1121 C1131 0.929 . S
H1122 C1126 0.929 . S
H1123 C1132 0.929 . S
C1124 H1118 0.930 . S
C1124 C1125 1.367 . S
C1124 C1132 1.378 . S
C1125 C1124 1.367 . S
C1125 C1133 1.433 . S
C1126 H1122 0.929 . S
C1126 C1128 1.378 . S
C1126 C1130 1.350 . S
C1127 C1130 1.463 . S
C1127 C1132 1.350 . S
C1127 N1135 1.427 . S
C1128 H1119 0.930 . S
C1128 C1126 1.378 . S
C1128 C1129 1.367 . S
C1129 C1128 1.367 . S
C1129 C1131 1.433 . S
C1130 C1126 1.350 . S
C1130 C1127 1.463 . S
C1130 N1134 1.427 . S
C1131 H1121 0.929 . S
C1131 C1129 1.433 . S
C1131 N1134 1.384 . S
C1132 H1123 0.929 . S
C1132 C1124 1.378 . S
C1132 C1127 1.350 . S
C1133 H1120 0.929 . S
C1133 C1125 1.433 . S
C1133 N1135 1.384 . S
N1134 C1130 1.427 . S
N1134 C1131 1.384 . S
N1135 C1127 1.427 . S
N1135 C1133 1.384 . S
H1136 C1142 0.930 . S
H1137 C1146 0.930 . S
H1138 C1151 0.929 1_655 S
H1139 C1149 0.929 . S
H1140 C1144 0.924 1_655 S
H1141 C1150 0.929 . S
C1142 H1136 0.930 . S
C1142 C1143 1.367 . S
C1142 C1150 1.378 . S
C1143 C1142 1.367 . S
C1143 C1151 1.433 . S
C1144 H1140 0.924 1_455 S
C1144 C1146 1.378 1_455 S
C1144 C1148 1.354 . S
C1145 C1148 1.463 . S
C1145 C1150 1.350 . S
C1145 N1153 1.427 . S
C1146 H1137 0.930 . S
C1146 C1144 1.378 1_655 S
C1146 C1147 1.367 1_655 S
C1147 C1146 1.367 1_455 S
C1147 C1149 1.433 . S
C1148 C1144 1.354 . S
C1148 C1145 1.463 . S
C1148 N1152 1.427 . S
C1149 H1139 0.929 . S
C1149 C1147 1.433 . S
C1149 N1152 1.384 . S
C1150 H1141 0.929 . S
C1150 C1142 1.378 . S
C1150 C1145 1.350 . S
C1151 H1138 0.929 1_455 S
C1151 C1143 1.433 . S
C1151 N1153 1.384 . S
N1152 C1148 1.427 . S
N1152 C1149 1.384 . S
N1153 C1145 1.427 . S
N1153 C1151 1.384 . S
H1154 C1160 0.930 . S
H1155 C1164 0.930 . S
H1156 C1169 0.929 . S
H1157 C1167 0.929 . S
H1158 C1162 0.929 . S
H1159 C1168 0.929 . S
C1160 H1154 0.930 . S
C1160 C1161 1.367 . S
C1160 C1168 1.378 . S
C1161 C1160 1.367 . S
C1161 C1169 1.433 . S
C1162 H1158 0.929 . S
C1162 C1164 1.378 . S
C1162 C1166 1.350 . S
C1163 C1166 1.463 . S
C1163 C1168 1.350 . S
C1163 N1171 1.427 . S
C1164 H1155 0.930 . S
C1164 C1162 1.378 . S
C1164 C1165 1.367 . S
C1165 C1164 1.367 . S
C1165 C1167 1.433 . S
C1166 C1162 1.350 . S
C1166 C1163 1.463 . S
C1166 N1170 1.427 . S
C1167 H1157 0.929 . S
C1167 C1165 1.433 . S
C1167 N1170 1.384 . S
C1168 H1159 0.929 . S
C1168 C1160 1.378 . S
C1168 C1163 1.350 . S
C1169 H1156 0.929 . S
C1169 C1161 1.433 . S
C1169 N1171 1.384 . S
N1170 C1166 1.427 . S
N1170 C1167 1.384 . S
N1171 C1163 1.427 . S
N1171 C1169 1.384 . S
H1172 C1178 0.930 . S
H1173 C1182 0.930 1_554 S
H1174 C1187 0.929 . S
H1175 C1185 0.929 . S
H1176 C1180 0.929 . S
H1177 C1186 0.929 . S
C1178 H1172 0.930 . S
C1178 C1179 1.367 . S
C1178 C1186 1.378 . S
C1179 C1178 1.367 . S
C1179 C1187 1.433 . S
C1180 H1176 0.929 . S
C1180 C1182 1.378 . S
C1180 C1184 1.350 . S
C1181 C1184 1.463 . S
C1181 C1186 1.350 . S
C1181 N1189 1.427 . S
C1182 H1173 0.930 1_556 S
C1182 C1180 1.378 . S
C1182 C1183 1.367 . S
C1183 C1182 1.367 . S
C1183 C1185 1.433 . S
C1184 C1180 1.350 . S
C1184 C1181 1.463 . S
C1184 N1188 1.427 . S
C1185 H1175 0.929 . S
C1185 C1183 1.433 . S
C1185 N1188 1.384 . S
C1186 H1177 0.929 . S
C1186 C1178 1.378 . S
C1186 C1181 1.350 . S
C1187 H1174 0.929 . S
C1187 C1179 1.433 . S
C1187 N1189 1.384 . S
N1188 C1184 1.427 . S
N1188 C1185 1.384 . S
N1189 C1181 1.427 . S
N1189 C1187 1.384 . S
H1190 C1196 0.930 . S
H1191 C1200 0.930 . S
H1192 C1205 0.929 . S
H1193 C1203 0.929 . S
H1194 C1198 0.929 . S
H1195 C1204 0.929 . S
C1196 H1190 0.930 . S
C1196 C1197 1.367 . S
C1196 C1204 1.378 . S
C1197 C1196 1.367 . S
C1197 C1205 1.433 . S
C1198 H1194 0.929 . S
C1198 C1200 1.378 . S
C1198 C1202 1.350 . S
C1199 C1202 1.463 . S
C1199 C1204 1.350 . S
C1199 N1207 1.427 . S
C1200 H1191 0.930 . S
C1200 C1198 1.378 . S
C1200 C1201 1.367 . S
C1201 C1200 1.367 . S
C1201 C1203 1.433 . S
C1202 C1198 1.350 . S
C1202 C1199 1.463 . S
C1202 N1206 1.427 . S
C1203 H1193 0.929 . S
C1203 C1201 1.433 . S
C1203 N1206 1.384 . S
C1204 H1195 0.929 . S
C1204 C1196 1.378 . S
C1204 C1199 1.350 . S
C1205 H1192 0.929 . S
C1205 C1197 1.433 . S
C1205 N1207 1.384 . S
N1206 C1202 1.427 . S
N1206 C1203 1.384 . S
N1207 C1199 1.427 . S
N1207 C1205 1.384 . S
H1208 C1214 0.930 . S
H1209 C1218 0.930 . S
H1210 C1223 0.929 . S
H1211 C1221 0.929 . S
H1212 C1216 0.929 . S
H1213 C1222 0.929 . S
C1214 H1208 0.930 . S
C1214 C1215 1.367 . S
C1214 C1222 1.378 . S
C1215 C1214 1.367 . S
C1215 C1223 1.433 1_545 S
C1216 H1212 0.929 . S
C1216 C1218 1.378 . S
C1216 C1220 1.350 1_565 S
C1217 C1220 1.463 . S
C1217 C1222 1.350 . S
C1217 N1225 1.427 1_545 S
C1218 H1209 0.930 . S
C1218 C1216 1.378 . S
C1218 C1219 1.367 1_565 S
C1219 C1218 1.367 1_545 S
C1219 C1221 1.433 . S
C1220 C1216 1.350 1_545 S
C1220 C1217 1.463 . S
C1220 N1224 1.427 . S
C1221 H1211 0.929 . S
C1221 C1219 1.433 . S
C1221 N1224 1.384 . S
C1222 H1213 0.929 . S
C1222 C1214 1.378 . S
C1222 C1217 1.350 . S
C1223 H1210 0.929 . S
C1223 C1215 1.433 1_565 S
C1223 N1225 1.384 . S
N1224 C1220 1.427 . S
N1224 C1221 1.384 . S
N1225 C1217 1.427 1_565 S
N1225 C1223 1.384 . S
H1226 C1232 0.930 . S
H1227 C1236 0.930 . S
H1228 C1241 0.929 . S
H1229 C1239 0.929 . S
H1230 C1234 0.929 . S
H1231 C1240 0.929 . S
C1232 H1226 0.930 . S
C1232 C1233 1.367 . S
C1232 C1240 1.378 . S
C1233 C1232 1.367 . S
C1233 C1241 1.433 . S
C1234 H1230 0.929 . S
C1234 C1236 1.378 . S
C1234 C1238 1.350 . S
C1235 C1238 1.463 . S
C1235 C1240 1.350 . S
C1235 N1243 1.427 . S
C1236 H1227 0.930 . S
C1236 C1234 1.378 . S
C1236 C1237 1.367 . S
C1237 C1236 1.367 . S
C1237 C1239 1.433 . S
C1238 C1234 1.350 . S
C1238 C1235 1.463 . S
C1238 N1242 1.427 . S
C1239 H1229 0.929 . S
C1239 C1237 1.433 . S
C1239 N1242 1.384 . S
C1240 H1231 0.929 . S
C1240 C1232 1.378 . S
C1240 C1235 1.350 . S
C1241 H1228 0.929 . S
C1241 C1233 1.433 . S
C1241 N1243 1.384 . S
N1242 C1238 1.427 . S
N1242 C1239 1.384 . S
N1243 C1235 1.427 . S
N1243 C1241 1.384 . S
H1244 C1250 0.930 . S
H1245 C1254 0.930 . S
H1246 C1259 0.929 . S
H1247 C1257 0.929 . S
H1248 C1252 0.929 . S
H1249 C1258 0.929 . S
C1250 H1244 0.930 . S
C1250 C1251 1.367 . S
C1250 C1258 1.378 . S
C1251 C1250 1.367 . S
C1251 C1259 1.433 . S
C1252 H1248 0.929 . S
C1252 C1254 1.378 . S
C1252 C1256 1.350 . S
C1253 C1256 1.463 . S
C1253 C1258 1.350 . S
C1253 N1261 1.427 . S
C1254 H1245 0.930 . S
C1254 C1252 1.378 . S
C1254 C1255 1.367 . S
C1255 C1254 1.367 . S
C1255 C1257 1.433 . S
C1256 C1252 1.350 . S
C1256 C1253 1.463 . S
C1256 N1260 1.427 . S
C1257 H1247 0.929 . S
C1257 C1255 1.433 . S
C1257 N1260 1.384 . S
C1258 H1249 0.929 . S
C1258 C1250 1.378 . S
C1258 C1253 1.350 . S
C1259 H1246 0.929 . S
C1259 C1251 1.433 . S
C1259 N1261 1.384 . S
N1260 C1256 1.427 . S
N1260 C1257 1.384 . S
N1261 C1253 1.427 . S
N1261 C1259 1.384 . S
H1262 C1268 0.930 . S
H1263 C1272 0.930 . S
H1264 C1277 0.929 . S
H1265 C1275 0.929 . S
H1266 C1270 0.929 . S
H1267 C1276 0.929 . S
C1268 H1262 0.930 . S
C1268 C1269 1.367 . S
C1268 C1276 1.378 . S
C1269 C1268 1.367 . S
C1269 C1277 1.433 . S
C1270 H1266 0.929 . S
C1270 C1272 1.378 . S
C1270 C1274 1.350 . S
C1271 C1274 1.463 . S
C1271 C1276 1.350 . S
C1271 N1279 1.427 . S
C1272 H1263 0.930 . S
C1272 C1270 1.378 . S
C1272 C1273 1.367 . S
C1273 C1272 1.367 . S
C1273 C1275 1.433 . S
C1274 C1270 1.350 . S
C1274 C1271 1.463 . S
C1274 N1278 1.427 . S
C1275 H1265 0.929 . S
C1275 C1273 1.433 . S
C1275 N1278 1.384 . S
C1276 H1267 0.929 . S
C1276 C1268 1.378 . S
C1276 C1271 1.350 . S
C1277 H1264 0.929 . S
C1277 C1269 1.433 . S
C1277 N1279 1.384 . S
N1278 C1274 1.427 . S
N1278 C1275 1.384 . S
N1279 C1271 1.427 . S
N1279 C1277 1.384 . S
H1280 C1286 0.930 . S
H1281 C1290 0.930 . S
H1282 C1295 0.929 . S
H1283 C1293 0.929 . S
H1284 C1288 0.929 . S
H1285 C1294 0.929 . S
C1286 H1280 0.930 . S
C1286 C1287 1.367 . S
C1286 C1294 1.378 . S
C1287 C1286 1.367 . S
C1287 C1295 1.433 1_565 S
C1288 H1284 0.929 . S
C1288 C1290 1.378 . S
C1288 C1292 1.350 . S
C1289 C1292 1.463 1_565 S
C1289 C1294 1.350 . S
C1289 N1297 1.427 1_565 S
C1290 H1281 0.930 . S
C1290 C1288 1.378 . S
C1290 C1291 1.367 . S
C1291 C1290 1.367 . S
C1291 C1293 1.433 1_545 S
C1292 C1288 1.350 . S
C1292 C1289 1.463 1_545 S
C1292 N1296 1.427 1_545 S
C1293 H1283 0.929 . S
C1293 C1291 1.433 1_565 S
C1293 N1296 1.384 . S
C1294 H1285 0.929 . S
C1294 C1286 1.378 . S
C1294 C1289 1.350 . S
C1295 H1282 0.929 . S
C1295 C1287 1.433 1_545 S
C1295 N1297 1.384 . S
N1296 C1292 1.427 1_565 S
N1296 C1293 1.384 . S
N1297 C1289 1.427 1_545 S
N1297 C1295 1.384 . S
H1298 C1304 0.930 . S
H1299 C1308 0.930 . S
H1300 C1313 0.929 . S
H1301 C1311 0.929 . S
H1302 C1306 0.929 . S
H1303 C1312 0.929 . S
C1304 H1298 0.930 . S
C1304 C1305 1.367 . S
C1304 C1312 1.378 . S
C1305 C1304 1.367 . S
C1305 C1313 1.433 . S
C1306 H1302 0.929 . S
C1306 C1308 1.378 . S
C1306 C1310 1.350 . S
C1307 C1310 1.463 . S
C1307 C1312 1.350 . S
C1307 N1315 1.427 . S
C1308 H1299 0.930 . S
C1308 C1306 1.378 . S
C1308 C1309 1.367 . S
C1309 C1308 1.367 . S
C1309 C1311 1.433 . S
C1310 C1306 1.350 . S
C1310 C1307 1.463 . S
C1310 N1314 1.427 . S
C1311 H1301 0.929 . S
C1311 C1309 1.433 . S
C1311 N1314 1.384 . S
C1312 H1303 0.929 . S
C1312 C1304 1.378 . S
C1312 C1307 1.350 . S
C1313 H1300 0.929 . S
C1313 C1305 1.433 . S
C1313 N1315 1.384 . S
N1314 C1310 1.427 . S
N1314 C1311 1.384 . S
N1315 C1307 1.427 . S
N1315 C1313 1.384 . S
H1316 C1322 0.930 . S
H1317 C1326 0.930 . S
H1318 C1331 0.929 1_565 S
H1319 C1329 0.929 . S
H1320 C1324 0.929 . S
H1321 C1330 0.929 . S
C1322 H1316 0.930 . S
C1322 C1323 1.367 . S
C1322 C1330 1.378 . S
C1323 C1322 1.367 . S
C1323 C1331 1.433 . S
C1324 H1320 0.929 . S
C1324 C1326 1.378 . S
C1324 C1328 1.350 1_565 S
C1325 C1328 1.463 . S
C1325 C1330 1.350 . S
C1325 N1333 1.427 . S
C1326 H1317 0.930 . S
C1326 C1324 1.378 . S
C1326 C1327 1.367 1_565 S
C1327 C1326 1.367 1_545 S
C1327 C1329 1.433 . S
C1328 C1324 1.350 1_545 S
C1328 C1325 1.463 . S
C1328 N1332 1.427 . S
C1329 H1319 0.929 . S
C1329 C1327 1.433 . S
C1329 N1332 1.384 . S
C1330 H1321 0.929 . S
C1330 C1322 1.378 . S
C1330 C1325 1.350 . S
C1331 H1318 0.929 1_545 S
C1331 C1323 1.433 . S
C1331 N1333 1.384 . S
N1332 C1328 1.427 . S
N1332 C1329 1.384 . S
N1333 C1325 1.427 . S
N1333 C1331 1.384 . S
H1334 C1340 0.930 . S
H1335 C1344 0.930 . S
H1336 C1349 0.929 . S
H1337 C1347 0.929 . S
H1338 C1342 0.929 . S
H1339 C1348 0.929 . S
C1340 H1334 0.930 . S
C1340 C1341 1.367 . S
C1340 C1348 1.378 . S
C1341 C1340 1.367 . S
C1341 C1349 1.433 . S
C1342 H1338 0.929 . S
C1342 C1344 1.378 . S
C1342 C1346 1.350 . S
C1343 C1346 1.463 . S
C1343 C1348 1.350 . S
C1343 N1351 1.427 . S
C1344 H1335 0.930 . S
C1344 C1342 1.378 . S
C1344 C1345 1.367 . S
C1345 C1344 1.367 . S
C1345 C1347 1.433 . S
C1346 C1342 1.350 . S
C1346 C1343 1.463 . S
C1346 N1350 1.427 . S
C1347 H1337 0.929 . S
C1347 C1345 1.433 . S
C1347 N1350 1.384 . S
C1348 H1339 0.929 . S
C1348 C1340 1.378 . S
C1348 C1343 1.350 . S
C1349 H1336 0.929 . S
C1349 C1341 1.433 . S
C1349 N1351 1.384 . S
N1350 C1346 1.427 . S
N1350 C1347 1.384 . S
N1351 C1343 1.427 . S
N1351 C1349 1.384 . S
H1352 C1358 0.930 . S
H1353 C1362 0.930 . S
H1354 C1367 0.929 . S
H1355 C1365 0.929 . S
H1356 C1360 0.929 . S
H1357 C1366 0.929 . S
C1358 H1352 0.930 . S
C1358 C1359 1.367 . S
C1358 C1366 1.378 . S
C1359 C1358 1.367 . S
C1359 C1367 1.433 . S
C1360 H1356 0.929 . S
C1360 C1362 1.378 . S
C1360 C1364 1.350 . S
C1361 C1364 1.463 . S
C1361 C1366 1.350 . S
C1361 N1369 1.427 . S
C1362 H1353 0.930 . S
C1362 C1360 1.378 . S
C1362 C1363 1.367 . S
C1363 C1362 1.367 . S
C1363 C1365 1.433 . S
C1364 C1360 1.350 . S
C1364 C1361 1.463 . S
C1364 N1368 1.427 . S
C1365 H1355 0.929 . S
C1365 C1363 1.433 . S
C1365 N1368 1.384 . S
C1366 H1357 0.929 . S
C1366 C1358 1.378 . S
C1366 C1361 1.350 . S
C1367 H1354 0.929 . S
C1367 C1359 1.433 . S
C1367 N1369 1.384 . S
N1368 C1364 1.427 . S
N1368 C1365 1.384 . S
N1369 C1361 1.427 . S
N1369 C1367 1.384 . S
H1370 C1376 0.930 . S
H1371 C1380 0.930 . S
H1372 C1385 0.929 . S
H1373 C1383 0.929 . S
H1374 C1378 0.929 . S
H1375 C1384 0.929 . S
C1376 H1370 0.930 . S
C1376 C1377 1.367 . S
C1376 C1384 1.378 . S
C1377 C1376 1.367 . S
C1377 C1385 1.433 1_554 S
C1378 H1374 0.929 . S
C1378 C1380 1.378 . S
C1378 C1382 1.350 1_556 S
C1379 C1382 1.463 . S
C1379 C1384 1.350 . S
C1379 N1387 1.427 1_554 S
C1380 H1371 0.930 . S
C1380 C1378 1.378 . S
C1380 C1381 1.367 1_556 S
C1381 C1380 1.367 1_554 S
C1381 C1383 1.433 . S
C1382 C1378 1.350 1_554 S
C1382 C1379 1.463 . S
C1382 N1386 1.427 . S
C1383 H1373 0.929 . S
C1383 C1381 1.433 . S
C1383 N1386 1.384 . S
C1384 H1375 0.929 . S
C1384 C1376 1.378 . S
C1384 C1379 1.350 . S
C1385 H1372 0.929 . S
C1385 C1377 1.433 1_556 S
C1385 N1387 1.384 . S
N1386 C1382 1.427 . S
N1386 C1383 1.384 . S
N1387 C1379 1.427 1_556 S
N1387 C1385 1.384 . S
H1388 C1394 0.930 . S
H1389 C1398 0.930 . S
H1390 C1403 0.929 . S
H1391 C1401 0.929 . S
H1392 C1396 0.929 . S
H1393 C1402 0.929 . S
C1394 H1388 0.930 . S
C1394 C1395 1.367 . S
C1394 C1402 1.378 . S
C1395 C1394 1.367 . S
C1395 C1403 1.433 . S
C1396 H1392 0.929 . S
C1396 C1398 1.378 . S
C1396 C1400 1.350 . S
C1397 C1400 1.463 . S
C1397 C1402 1.350 . S
C1397 N1405 1.427 . S
C1398 H1389 0.930 . S
C1398 C1396 1.378 . S
C1398 C1399 1.367 . S
C1399 C1398 1.367 . S
C1399 C1401 1.433 . S
C1400 C1396 1.350 . S
C1400 C1397 1.463 . S
C1400 N1404 1.427 . S
C1401 H1391 0.929 . S
C1401 C1399 1.433 . S
C1401 N1404 1.384 . S
C1402 H1393 0.929 . S
C1402 C1394 1.378 . S
C1402 C1397 1.350 . S
C1403 H1390 0.929 . S
C1403 C1395 1.433 . S
C1403 N1405 1.384 . S
N1404 C1400 1.427 . S
N1404 C1401 1.384 . S
N1405 C1397 1.427 . S
N1405 C1403 1.384 . S
H1406 C1412 0.930 . S
H1407 C1416 0.930 . S
H1408 C1421 0.929 . S
H1409 C1419 0.929 . S
H1410 C1414 0.929 . S
H1411 C1420 0.929 . S
C1412 H1406 0.930 . S
C1412 C1413 1.367 . S
C1412 C1420 1.378 . S
C1413 C1412 1.367 . S
C1413 C1421 1.433 . S
C1414 H1410 0.929 . S
C1414 C1416 1.378 . S
C1414 C1418 1.350 . S
C1415 C1418 1.463 . S
C1415 C1420 1.350 . S
C1415 N1423 1.427 . S
C1416 H1407 0.930 . S
C1416 C1414 1.378 . S
C1416 C1417 1.367 . S
C1417 C1416 1.367 . S
C1417 C1419 1.433 . S
C1418 C1414 1.350 . S
C1418 C1415 1.463 . S
C1418 N1422 1.427 . S
C1419 H1409 0.929 . S
C1419 C1417 1.433 . S
C1419 N1422 1.384 . S
C1420 H1411 0.929 . S
C1420 C1412 1.378 . S
C1420 C1415 1.350 . S
C1421 H1408 0.929 . S
C1421 C1413 1.433 . S
C1421 N1423 1.384 . S
N1422 C1418 1.427 . S
N1422 C1419 1.384 . S
N1423 C1415 1.427 . S
N1423 C1421 1.384 . S
H1424 C1430 0.930 . S
H1425 C1434 0.930 . S
H1426 C1439 0.929 . S
H1427 C1437 0.929 . S
H1428 C1432 0.929 . S
H1429 C1438 0.929 . S
C1430 H1424 0.930 . S
C1430 C1431 1.367 . S
C1430 C1438 1.378 . S
C1431 C1430 1.367 . S
C1431 C1439 1.433 . S
C1432 H1428 0.929 . S
C1432 C1434 1.378 . S
C1432 C1436 1.350 . S
C1433 C1436 1.463 . S
C1433 C1438 1.350 . S
C1433 N1441 1.427 . S
C1434 H1425 0.930 . S
C1434 C1432 1.378 . S
C1434 C1435 1.367 . S
C1435 C1434 1.367 . S
C1435 C1437 1.433 . S
C1436 C1432 1.350 . S
C1436 C1433 1.463 . S
C1436 N1440 1.427 . S
C1437 H1427 0.929 . S
C1437 C1435 1.433 . S
C1437 N1440 1.384 . S
C1438 H1429 0.929 . S
C1438 C1430 1.378 . S
C1438 C1433 1.350 . S
C1439 H1426 0.929 . S
C1439 C1431 1.433 . S
C1439 N1441 1.384 . S
N1440 C1436 1.427 . S
N1440 C1437 1.384 . S
N1441 C1433 1.427 . S
N1441 C1439 1.384 . S
H1442 C1448 0.930 . S
H1443 C1452 0.930 . S
H1444 C1457 0.929 . S
H1445 C1455 0.929 . S
H1446 C1450 0.929 . S
H1447 C1456 0.929 . S
C1448 H1442 0.930 . S
C1448 C1449 1.367 . S
C1448 C1456 1.378 . S
C1449 C1448 1.367 . S
C1449 C1457 1.433 . S
C1450 H1446 0.929 . S
C1450 C1452 1.378 . S
C1450 C1454 1.350 . S
C1451 C1454 1.463 . S
C1451 C1456 1.350 . S
C1451 N1459 1.427 . S
C1452 H1443 0.930 . S
C1452 C1450 1.378 . S
C1452 C1453 1.367 . S
C1453 C1452 1.367 . S
C1453 C1455 1.433 . S
C1454 C1450 1.350 . S
C1454 C1451 1.463 . S
C1454 N1458 1.427 . S
C1455 H1445 0.929 . S
C1455 C1453 1.433 . S
C1455 N1458 1.384 . S
C1456 H1447 0.929 . S
C1456 C1448 1.378 . S
C1456 C1451 1.350 . S
C1457 H1444 0.929 . S
C1457 C1449 1.433 . S
C1457 N1459 1.384 . S
N1458 C1454 1.427 . S
N1458 C1455 1.384 . S
N1459 C1451 1.427 . S
N1459 C1457 1.384 . S
H1460 C1466 0.930 . S
H1461 C1470 0.930 . S
H1462 C1475 0.929 . S
H1463 C1473 0.929 . S
H1464 C1468 0.929 . S
H1465 C1474 0.929 . S
C1466 H1460 0.930 . S
C1466 C1467 1.367 . S
C1466 C1474 1.378 . S
C1467 C1466 1.367 . S
C1467 C1475 1.433 . S
C1468 H1464 0.929 . S
C1468 C1470 1.378 . S
C1468 C1472 1.350 . S
C1469 C1472 1.463 . S
C1469 C1474 1.350 . S
C1469 N1477 1.427 . S
C1470 H1461 0.930 . S
C1470 C1468 1.378 . S
C1470 C1471 1.367 . S
C1471 C1470 1.367 . S
C1471 C1473 1.433 . S
C1472 C1468 1.350 . S
C1472 C1469 1.463 . S
C1472 N1476 1.427 . S
C1473 H1463 0.929 . S
C1473 C1471 1.433 . S
C1473 N1476 1.384 . S
C1474 H1465 0.929 . S
C1474 C1466 1.378 . S
C1474 C1469 1.350 . S
C1475 H1462 0.929 . S
C1475 C1467 1.433 . S
C1475 N1477 1.384 . S
N1476 C1472 1.427 . S
N1476 C1473 1.384 . S
N1477 C1469 1.427 . S
N1477 C1475 1.384 . S
H1478 C1484 0.930 . S
H1479 C1488 0.930 . S
H1480 C1493 0.929 . S
H1481 C1491 0.929 . S
H1482 C1486 0.929 . S
H1483 C1492 0.929 . S
C1484 H1478 0.930 . S
C1484 C1485 1.367 . S
C1484 C1492 1.378 . S
C1485 C1484 1.367 . S
C1485 C1493 1.433 . S
C1486 H1482 0.929 . S
C1486 C1488 1.378 . S
C1486 C1490 1.350 . S
C1487 C1490 1.463 . S
C1487 C1492 1.350 . S
C1487 N1495 1.427 . S
C1488 H1479 0.930 . S
C1488 C1486 1.378 . S
C1488 C1489 1.367 . S
C1489 C1488 1.367 . S
C1489 C1491 1.433 . S
C1490 C1486 1.350 . S
C1490 C1487 1.463 . S
C1490 N1494 1.427 . S
C1491 H1481 0.929 . S
C1491 C1489 1.433 . S
C1491 N1494 1.384 . S
C1492 H1483 0.929 . S
C1492 C1484 1.378 . S
C1492 C1487 1.350 . S
C1493 H1480 0.929 . S
C1493 C1485 1.433 . S
C1493 N1495 1.384 . S
N1494 C1490 1.427 . S
N1494 C1491 1.384 . S
N1495 C1487 1.427 . S
N1495 C1493 1.384 . S
H1496 C1502 0.930 . S
H1497 C1506 0.930 . S
H1498 C1511 0.929 . S
H1499 C1509 0.929 . S
H1500 C1504 0.929 . S
H1501 C1510 0.929 . S
C1502 H1496 0.930 . S
C1502 C1503 1.367 . S
C1502 C1510 1.378 . S
C1503 C1502 1.367 . S
C1503 C1511 1.433 . S
C1504 H1500 0.929 . S
C1504 C1506 1.378 . S
C1504 C1508 1.350 . S
C1505 C1508 1.463 . S
C1505 C1510 1.350 . S
C1505 N1513 1.427 . S
C1506 H1497 0.930 . S
C1506 C1504 1.378 . S
C1506 C1507 1.367 . S
C1507 C1506 1.367 . S
C1507 C1509 1.433 . S
C1508 C1504 1.350 . S
C1508 C1505 1.463 . S
C1508 N1512 1.427 . S
C1509 H1499 0.929 . S
C1509 C1507 1.433 . S
C1509 N1512 1.384 . S
C1510 H1501 0.929 . S
C1510 C1502 1.378 . S
C1510 C1505 1.350 . S
C1511 H1498 0.929 . S
C1511 C1503 1.433 . S
C1511 N1513 1.384 . S
N1512 C1508 1.427 . S
N1512 C1509 1.384 . S
N1513 C1505 1.427 . S
N1513 C1511 1.384 . S
H1514 C1520 0.930 . S
H1515 C1524 0.930 . S
H1516 C1529 0.929 . S
H1517 C1527 0.929 . S
H1518 C1522 0.929 . S
H1519 C1528 0.929 . S
C1520 H1514 0.930 . S
C1520 C1521 1.367 . S
C1520 C1528 1.378 . S
C1521 C1520 1.367 . S
C1521 C1529 1.433 . S
C1522 H1518 0.929 . S
C1522 C1524 1.378 . S
C1522 C1526 1.350 . S
C1523 C1526 1.463 . S
C1523 C1528 1.350 . S
C1523 N1531 1.427 . S
C1524 H1515 0.930 . S
C1524 C1522 1.378 . S
C1524 C1525 1.367 . S
C1525 C1524 1.367 . S
C1525 C1527 1.433 . S
C1526 C1522 1.350 . S
C1526 C1523 1.463 . S
C1526 N1530 1.427 . S
C1527 H1517 0.929 . S
C1527 C1525 1.433 . S
C1527 N1530 1.384 . S
C1528 H1519 0.929 . S
C1528 C1520 1.378 . S
C1528 C1523 1.350 . S
C1529 H1516 0.929 . S
C1529 C1521 1.433 . S
C1529 N1531 1.384 . S
N1530 C1526 1.427 . S
N1530 C1527 1.384 . S
N1531 C1523 1.427 . S
N1531 C1529 1.384 . S
H1532 C1538 0.930 1_655 S
H1533 C1542 0.930 . S
H1534 C1547 0.929 . S
H1535 C1545 0.929 . S
H1536 C1540 0.929 . S
H1537 C1546 0.921 1_655 S
C1538 H1532 0.930 1_455 S
C1538 C1539 1.367 . S
C1538 C1546 1.383 . S
C1539 C1538 1.367 . S
C1539 C1547 1.433 . S
C1540 H1536 0.929 . S
C1540 C1542 1.378 . S
C1540 C1544 1.350 . S
C1541 C1544 1.463 . S
C1541 C1546 1.353 . S
C1541 N1549 1.427 . S
C1542 H1533 0.930 . S
C1542 C1540 1.378 . S
C1542 C1543 1.367 1_556 S
C1543 C1542 1.367 1_554 S
C1543 C1545 1.433 1_455 S
C1544 C1540 1.350 . S
C1544 C1541 1.463 . S
C1544 N1548 1.414 1_456 S
C1545 H1535 0.929 . S
C1545 C1543 1.433 1_655 S
C1545 N1548 1.394 . S
C1546 H1537 0.921 1_455 S
C1546 C1538 1.383 . S
C1546 C1541 1.353 . S
C1547 H1534 0.929 . S
C1547 C1539 1.433 . S
C1547 N1549 1.384 . S
N1548 C1544 1.414 1_654 S
N1548 C1545 1.394 . S
N1549 C1541 1.427 . S
N1549 C1547 1.384 . S
H1550 C1556 0.930 . S
H1551 C1560 0.930 . S
H1552 C1565 0.929 . S
H1553 C1563 0.929 . S
H1554 C1558 0.929 . S
H1555 C1564 0.929 . S
C1556 H1550 0.930 . S
C1556 C1557 1.367 . S
C1556 C1564 1.378 . S
C1557 C1556 1.367 . S
C1557 C1565 1.433 . S
C1558 H1554 0.929 . S
C1558 C1560 1.378 . S
C1558 C1562 1.350 . S
C1559 C1562 1.463 . S
C1559 C1564 1.350 . S
C1559 N1567 1.427 . S
C1560 H1551 0.930 . S
C1560 C1558 1.378 . S
C1560 C1561 1.367 . S
C1561 C1560 1.367 . S
C1561 C1563 1.433 . S
C1562 C1558 1.350 . S
C1562 C1559 1.463 . S
C1562 N1566 1.427 . S
C1563 H1553 0.929 . S
C1563 C1561 1.433 . S
C1563 N1566 1.384 . S
C1564 H1555 0.929 . S
C1564 C1556 1.378 . S
C1564 C1559 1.350 . S
C1565 H1552 0.929 . S
C1565 C1557 1.433 . S
C1565 N1567 1.384 . S
N1566 C1562 1.427 . S
N1566 C1563 1.384 . S
N1567 C1559 1.427 . S
N1567 C1565 1.384 . S
H1568 C1574 0.930 . S
H1569 C1578 0.930 . S
H1570 C1583 0.929 . S
H1571 C1581 0.929 . S
H1572 C1576 0.929 . S
H1573 C1582 0.929 . S
C1574 H1568 0.930 . S
C1574 C1575 1.367 . S
C1574 C1582 1.378 . S
C1575 C1574 1.367 . S
C1575 C1583 1.433 . S
C1576 H1572 0.929 . S
C1576 C1578 1.378 . S
C1576 C1580 1.350 . S
C1577 C1580 1.463 . S
C1577 C1582 1.350 . S
C1577 N1585 1.427 . S
C1578 H1569 0.930 . S
C1578 C1576 1.378 . S
C1578 C1579 1.367 . S
C1579 C1578 1.367 . S
C1579 C1581 1.433 . S
C1580 C1576 1.350 . S
C1580 C1577 1.463 . S
C1580 N1584 1.427 . S
C1581 H1571 0.929 . S
C1581 C1579 1.433 . S
C1581 N1584 1.384 . S
C1582 H1573 0.929 . S
C1582 C1574 1.378 . S
C1582 C1577 1.350 . S
C1583 H1570 0.929 . S
C1583 C1575 1.433 . S
C1583 N1585 1.384 . S
N1584 C1580 1.427 . S
N1584 C1581 1.384 . S
N1585 C1577 1.427 . S
N1585 C1583 1.384 . S
H1586 C1592 0.930 . S
H1587 C1596 0.930 . S
H1588 C1601 0.929 . S
H1589 C1599 0.929 . S
H1590 C1594 0.929 . S
H1591 C1600 0.929 . S
C1592 H1586 0.930 . S
C1592 C1593 1.367 . S
C1592 C1600 1.378 . S
C1593 C1592 1.367 . S
C1593 C1601 1.433 . S
C1594 H1590 0.929 . S
C1594 C1596 1.378 . S
C1594 C1598 1.350 . S
C1595 C1598 1.463 . S
C1595 C1600 1.350 . S
C1595 N1603 1.427 . S
C1596 H1587 0.930 . S
C1596 C1594 1.378 . S
C1596 C1597 1.367 . S
C1597 C1596 1.367 . S
C1597 C1599 1.433 . S
C1598 C1594 1.350 . S
C1598 C1595 1.463 . S
C1598 N1602 1.427 . S
C1599 H1589 0.929 . S
C1599 C1597 1.433 . S
C1599 N1602 1.384 . S
C1600 H1591 0.929 . S
C1600 C1592 1.378 . S
C1600 C1595 1.350 . S
C1601 H1588 0.929 . S
C1601 C1593 1.433 . S
C1601 N1603 1.384 . S
N1602 C1598 1.427 . S
N1602 C1599 1.384 . S
N1603 C1595 1.427 . S
N1603 C1601 1.384 . S
H1604 C1610 0.930 . S
H1605 C1614 0.930 . S
H1606 C1619 0.929 . S
H1607 C1617 0.929 . S
H1608 C1612 0.929 . S
H1609 C1618 0.929 . S
C1610 H1604 0.930 . S
C1610 C1611 1.367 . S
C1610 C1618 1.378 . S
C1611 C1610 1.367 . S
C1611 C1619 1.433 . S
C1612 H1608 0.929 . S
C1612 C1614 1.378 . S
C1612 C1616 1.350 . S
C1613 C1616 1.463 . S
C1613 C1618 1.350 . S
C1613 N1621 1.427 . S
C1614 H1605 0.930 . S
C1614 C1612 1.378 . S
C1614 C1615 1.367 . S
C1615 C1614 1.367 . S
C1615 C1617 1.433 . S
C1616 C1612 1.350 . S
C1616 C1613 1.463 . S
C1616 N1620 1.427 . S
C1617 H1607 0.929 . S
C1617 C1615 1.433 . S
C1617 N1620 1.384 . S
C1618 H1609 0.929 . S
C1618 C1610 1.378 . S
C1618 C1613 1.350 . S
C1619 H1606 0.929 . S
C1619 C1611 1.433 . S
C1619 N1621 1.384 . S
N1620 C1616 1.427 . S
N1620 C1617 1.384 . S
N1621 C1613 1.427 . S
N1621 C1619 1.384 . S
H1622 C1628 0.930 . S
H1623 C1632 0.930 . S
H1624 C1637 0.929 . S
H1625 C1635 0.929 . S
H1626 C1630 0.929 . S
H1627 C1636 0.929 . S
C1628 H1622 0.930 . S
C1628 C1629 1.367 . S
C1628 C1636 1.378 . S
C1629 C1628 1.367 . S
C1629 C1637 1.433 . S
C1630 H1626 0.929 . S
C1630 C1632 1.378 . S
C1630 C1634 1.350 . S
C1631 C1634 1.463 . S
C1631 C1636 1.350 . S
C1631 N1639 1.427 . S
C1632 H1623 0.930 . S
C1632 C1630 1.378 . S
C1632 C1633 1.367 . S
C1633 C1632 1.367 . S
C1633 C1635 1.433 . S
C1634 C1630 1.350 . S
C1634 C1631 1.463 . S
C1634 N1638 1.427 . S
C1635 H1625 0.929 . S
C1635 C1633 1.433 . S
C1635 N1638 1.384 . S
C1636 H1627 0.929 . S
C1636 C1628 1.378 . S
C1636 C1631 1.350 . S
C1637 H1624 0.929 . S
C1637 C1629 1.433 . S
C1637 N1639 1.384 . S
N1638 C1634 1.427 . S
N1638 C1635 1.384 . S
N1639 C1631 1.427 . S
N1639 C1637 1.384 . S
H1640 C1646 0.930 . S
H1641 C1650 0.930 . S
H1642 C1655 0.929 . S
H1643 C1653 0.929 . S
H1644 C1648 0.929 . S
H1645 C1654 0.929 . S
C1646 H1640 0.930 . S
C1646 C1647 1.367 . S
C1646 C1654 1.378 . S
C1647 C1646 1.367 . S
C1647 C1655 1.433 . S
C1648 H1644 0.929 . S
C1648 C1650 1.378 . S
C1648 C1652 1.350 . S
C1649 C1652 1.463 . S
C1649 C1654 1.350 . S
C1649 N1657 1.427 . S
C1650 H1641 0.930 . S
C1650 C1648 1.378 . S
C1650 C1651 1.367 . S
C1651 C1650 1.367 . S
C1651 C1653 1.433 . S
C1652 C1648 1.350 . S
C1652 C1649 1.463 . S
C1652 N1656 1.427 . S
C1653 H1643 0.929 . S
C1653 C1651 1.433 . S
C1653 N1656 1.384 . S
C1654 H1645 0.929 . S
C1654 C1646 1.378 . S
C1654 C1649 1.350 . S
C1655 H1642 0.929 . S
C1655 C1647 1.433 . S
C1655 N1657 1.384 . S
N1656 C1652 1.427 . S
N1656 C1653 1.384 . S
N1657 C1649 1.427 . S
N1657 C1655 1.384 . S
H1658 C1664 0.930 . S
H1659 C1668 0.930 . S
H1660 C1673 0.929 . S
H1661 C1671 0.929 . S
H1662 C1666 0.929 . S
H1663 C1672 0.929 . S
C1664 H1658 0.930 . S
C1664 C1665 1.367 . S
C1664 C1672 1.378 . S
C1665 C1664 1.367 . S
C1665 C1673 1.433 . S
C1666 H1662 0.929 . S
C1666 C1668 1.378 . S
C1666 C1670 1.350 . S
C1667 C1670 1.463 . S
C1667 C1672 1.350 . S
C1667 N1675 1.427 . S
C1668 H1659 0.930 . S
C1668 C1666 1.378 . S
C1668 C1669 1.367 . S
C1669 C1668 1.367 . S
C1669 C1671 1.433 . S
C1670 C1666 1.350 . S
C1670 C1667 1.463 . S
C1670 N1674 1.427 . S
C1671 H1661 0.929 . S
C1671 C1669 1.433 . S
C1671 N1674 1.384 . S
C1672 H1663 0.929 . S
C1672 C1664 1.378 . S
C1672 C1667 1.350 . S
C1673 H1660 0.929 . S
C1673 C1665 1.433 . S
C1673 N1675 1.384 . S
N1674 C1670 1.427 . S
N1674 C1671 1.384 . S
N1675 C1667 1.427 . S
N1675 C1673 1.384 . S
H1676 C1682 0.930 . S
H1677 C1686 0.930 . S
H1678 C1691 0.929 . S
H1679 C1689 0.929 . S
H1680 C1684 0.929 . S
H1681 C1690 0.929 . S
C1682 H1676 0.930 . S
C1682 C1683 1.367 . S
C1682 C1690 1.378 . S
C1683 C1682 1.367 . S
C1683 C1691 1.433 . S
C1684 H1680 0.929 . S
C1684 C1686 1.378 . S
C1684 C1688 1.350 . S
C1685 C1688 1.463 . S
C1685 C1690 1.350 . S
C1685 N1693 1.427 . S
C1686 H1677 0.930 . S
C1686 C1684 1.378 . S
C1686 C1687 1.367 . S
C1687 C1686 1.367 . S
C1687 C1689 1.433 . S
C1688 C1684 1.350 . S
C1688 C1685 1.463 . S
C1688 N1692 1.427 . S
C1689 H1679 0.929 . S
C1689 C1687 1.433 . S
C1689 N1692 1.384 . S
C1690 H1681 0.929 . S
C1690 C1682 1.378 . S
C1690 C1685 1.350 . S
C1691 H1678 0.929 . S
C1691 C1683 1.433 . S
C1691 N1693 1.384 . S
N1692 C1688 1.427 . S
N1692 C1689 1.384 . S
N1693 C1685 1.427 . S
N1693 C1691 1.384 . S
H1694 C1700 0.930 . S
H1695 C1704 0.930 . S
H1696 C1709 0.929 . S
H1697 C1707 0.929 . S
H1698 C1702 0.929 . S
H1699 C1708 0.929 . S
C1700 H1694 0.930 . S
C1700 C1701 1.367 . S
C1700 C1708 1.378 . S
C1701 C1700 1.367 . S
C1701 C1709 1.433 . S
C1702 H1698 0.929 . S
C1702 C1704 1.378 . S
C1702 C1706 1.350 . S
C1703 C1706 1.463 . S
C1703 C1708 1.350 . S
C1703 N1711 1.427 . S
C1704 H1695 0.930 . S
C1704 C1702 1.378 . S
C1704 C1705 1.367 . S
C1705 C1704 1.367 . S
C1705 C1707 1.433 . S
C1706 C1702 1.350 . S
C1706 C1703 1.463 . S
C1706 N1710 1.427 . S
C1707 H1697 0.929 . S
C1707 C1705 1.433 . S
C1707 N1710 1.384 . S
C1708 H1699 0.929 . S
C1708 C1700 1.378 . S
C1708 C1703 1.350 . S
C1709 H1696 0.929 . S
C1709 C1701 1.433 . S
C1709 N1711 1.384 . S
N1710 C1706 1.427 . S
N1710 C1707 1.384 . S
N1711 C1703 1.427 . S
N1711 C1709 1.384 . S
H1712 C1718 0.930 . S
H1713 C1722 0.930 . S
H1714 C1727 0.929 . S
H1715 C1725 0.929 . S
H1716 C1720 0.929 . S
H1717 C1726 0.929 . S
C1718 H1712 0.930 . S
C1718 C1719 1.367 . S
C1718 C1726 1.378 . S
C1719 C1718 1.367 . S
C1719 C1727 1.433 . S
C1720 H1716 0.929 . S
C1720 C1722 1.378 . S
C1720 C1724 1.350 . S
C1721 C1724 1.463 . S
C1721 C1726 1.350 . S
C1721 N1729 1.427 . S
C1722 H1713 0.930 . S
C1722 C1720 1.378 . S
C1722 C1723 1.367 . S
C1723 C1722 1.367 . S
C1723 C1725 1.433 . S
C1724 C1720 1.350 . S
C1724 C1721 1.463 . S
C1724 N1728 1.427 . S
C1725 H1715 0.929 . S
C1725 C1723 1.433 . S
C1725 N1728 1.384 . S
C1726 H1717 0.929 . S
C1726 C1718 1.378 . S
C1726 C1721 1.350 . S
C1727 H1714 0.929 . S
C1727 C1719 1.433 . S
C1727 N1729 1.384 . S
N1728 C1724 1.427 . S
N1728 C1725 1.384 . S
N1729 C1721 1.427 . S
N1729 C1727 1.384 . S
H1730 C1736 0.930 . S
H1731 C1740 0.930 . S
H1732 C1745 0.929 . S
H1733 C1743 0.929 . S
H1734 C1738 0.929 . S
H1735 C1744 0.929 . S
C1736 H1730 0.930 . S
C1736 C1737 1.367 . S
C1736 C1744 1.378 . S
C1737 C1736 1.367 . S
C1737 C1745 1.433 . S
C1738 H1734 0.929 . S
C1738 C1740 1.378 . S
C1738 C1742 1.350 . S
C1739 C1742 1.463 . S
C1739 C1744 1.350 . S
C1739 N1747 1.427 . S
C1740 H1731 0.930 . S
C1740 C1738 1.378 . S
C1740 C1741 1.367 . S
C1741 C1740 1.367 . S
C1741 C1743 1.433 . S
C1742 C1738 1.350 . S
C1742 C1739 1.463 . S
C1742 N1746 1.427 . S
C1743 H1733 0.929 . S
C1743 C1741 1.433 . S
C1743 N1746 1.384 . S
C1744 H1735 0.929 . S
C1744 C1736 1.378 . S
C1744 C1739 1.350 . S
C1745 H1732 0.929 . S
C1745 C1737 1.433 . S
C1745 N1747 1.384 . S
N1746 C1742 1.427 . S
N1746 C1743 1.384 . S
N1747 C1739 1.427 . S
N1747 C1745 1.384 . S
H1748 C1754 0.930 . S
H1749 C1758 0.930 . S
H1750 C1763 0.929 . S
H1751 C1761 0.929 . S
H1752 C1756 0.929 . S
H1753 C1762 0.929 . S
C1754 H1748 0.930 . S
C1754 C1755 1.367 . S
C1754 C1762 1.378 . S
C1755 C1754 1.367 . S
C1755 C1763 1.433 . S
C1756 H1752 0.929 . S
C1756 C1758 1.378 . S
C1756 C1760 1.350 . S
C1757 C1760 1.463 . S
C1757 C1762 1.350 . S
C1757 N1765 1.427 . S
C1758 H1749 0.930 . S
C1758 C1756 1.378 . S
C1758 C1759 1.367 . S
C1759 C1758 1.367 . S
C1759 C1761 1.433 . S
C1760 C1756 1.350 . S
C1760 C1757 1.463 . S
C1760 N1764 1.427 . S
C1761 H1751 0.929 . S
C1761 C1759 1.433 . S
C1761 N1764 1.384 . S
C1762 H1753 0.929 . S
C1762 C1754 1.378 . S
C1762 C1757 1.350 . S
C1763 H1750 0.929 . S
C1763 C1755 1.433 . S
C1763 N1765 1.384 . S
N1764 C1760 1.427 . S
N1764 C1761 1.384 . S
N1765 C1757 1.427 . S
N1765 C1763 1.384 . S
H1766 C1772 0.930 . S
H1767 C1776 0.930 . S
H1768 C1781 0.929 . S
H1769 C1779 0.929 . S
H1770 C1774 0.929 . S
H1771 C1780 0.929 . S
C1772 H1766 0.930 . S
C1772 C1773 1.367 . S
C1772 C1780 1.378 . S
C1773 C1772 1.367 . S
C1773 C1781 1.433 . S
C1774 H1770 0.929 . S
C1774 C1776 1.378 . S
C1774 C1778 1.350 . S
C1775 C1778 1.463 . S
C1775 C1780 1.350 . S
C1775 N1783 1.427 . S
C1776 H1767 0.930 . S
C1776 C1774 1.378 . S
C1776 C1777 1.367 . S
C1777 C1776 1.367 . S
C1777 C1779 1.433 . S
C1778 C1774 1.350 . S
C1778 C1775 1.463 . S
C1778 N1782 1.427 . S
C1779 H1769 0.929 . S
C1779 C1777 1.433 . S
C1779 N1782 1.384 . S
C1780 H1771 0.929 . S
C1780 C1772 1.378 . S
C1780 C1775 1.350 . S
C1781 H1768 0.929 . S
C1781 C1773 1.433 . S
C1781 N1783 1.384 . S
N1782 C1778 1.427 . S
N1782 C1779 1.384 . S
N1783 C1775 1.427 . S
N1783 C1781 1.384 . S
H1784 C1790 0.930 . S
H1785 C1794 0.930 . S
H1786 C1799 0.929 . S
H1787 C1797 0.929 . S
H1788 C1792 0.929 . S
H1789 C1798 0.929 . S
C1790 H1784 0.930 . S
C1790 C1791 1.367 . S
C1790 C1798 1.378 . S
C1791 C1790 1.367 . S
C1791 C1799 1.433 . S
C1792 H1788 0.929 . S
C1792 C1794 1.378 . S
C1792 C1796 1.350 . S
C1793 C1796 1.463 . S
C1793 C1798 1.350 . S
C1793 N1801 1.427 . S
C1794 H1785 0.930 . S
C1794 C1792 1.378 . S
C1794 C1795 1.367 . S
C1795 C1794 1.367 . S
C1795 C1797 1.433 . S
C1796 C1792 1.350 . S
C1796 C1793 1.463 . S
C1796 N1800 1.427 . S
C1797 H1787 0.929 . S
C1797 C1795 1.433 . S
C1797 N1800 1.384 . S
C1798 H1789 0.929 . S
C1798 C1790 1.378 . S
C1798 C1793 1.350 . S
C1799 H1786 0.929 . S
C1799 C1791 1.433 . S
C1799 N1801 1.384 . S
N1800 C1796 1.427 . S
N1800 C1797 1.384 . S
N1801 C1793 1.427 . S
N1801 C1799 1.384 . S
H1802 C1808 0.930 . S
H1803 C1812 0.930 . S
H1804 C1817 0.929 . S
H1805 C1815 0.929 . S
H1806 C1810 0.929 . S
H1807 C1816 0.929 . S
C1808 H1802 0.930 . S
C1808 C1809 1.367 . S
C1808 C1816 1.378 . S
C1809 C1808 1.367 . S
C1809 C1817 1.433 . S
C1810 H1806 0.929 . S
C1810 C1812 1.378 . S
C1810 C1814 1.350 . S
C1811 C1814 1.463 . S
C1811 C1816 1.350 . S
C1811 N1819 1.427 . S
C1812 H1803 0.930 . S
C1812 C1810 1.378 . S
C1812 C1813 1.367 . S
C1813 C1812 1.367 . S
C1813 C1815 1.433 . S
C1814 C1810 1.350 . S
C1814 C1811 1.463 . S
C1814 N1818 1.427 . S
C1815 H1805 0.929 . S
C1815 C1813 1.433 . S
C1815 N1818 1.384 . S
C1816 H1807 0.929 . S
C1816 C1808 1.378 . S
C1816 C1811 1.350 . S
C1817 H1804 0.929 . S
C1817 C1809 1.433 . S
C1817 N1819 1.384 . S
N1818 C1814 1.427 . S
N1818 C1815 1.384 . S
N1819 C1811 1.427 . S
N1819 C1817 1.384 . S
H1820 C1826 0.930 . S
H1821 C1830 0.930 . S
H1822 C1835 0.929 . S
H1823 C1833 0.929 . S
H1824 C1828 0.929 . S
H1825 C1834 0.929 . S
C1826 H1820 0.930 . S
C1826 C1827 1.367 . S
C1826 C1834 1.378 . S
C1827 C1826 1.367 . S
C1827 C1835 1.433 . S
C1828 H1824 0.929 . S
C1828 C1830 1.378 . S
C1828 C1832 1.350 . S
C1829 C1832 1.463 . S
C1829 C1834 1.350 . S
C1829 N1837 1.427 . S
C1830 H1821 0.930 . S
C1830 C1828 1.378 . S
C1830 C1831 1.367 . S
C1831 C1830 1.367 . S
C1831 C1833 1.433 . S
C1832 C1828 1.350 . S
C1832 C1829 1.463 . S
C1832 N1836 1.427 . S
C1833 H1823 0.929 . S
C1833 C1831 1.433 . S
C1833 N1836 1.384 . S
C1834 H1825 0.929 . S
C1834 C1826 1.378 . S
C1834 C1829 1.350 . S
C1835 H1822 0.929 . S
C1835 C1827 1.433 . S
C1835 N1837 1.384 . S
N1836 C1832 1.427 . S
N1836 C1833 1.384 . S
N1837 C1829 1.427 . S
N1837 C1835 1.384 . S
H1838 C1844 0.930 1_556 S
H1839 C1848 0.930 . S
H1840 C1853 0.929 . S
H1841 C1851 0.929 . S
H1842 C1846 0.929 . S
H1843 C1852 0.929 . S
C1844 H1838 0.930 1_554 S
C1844 C1845 1.367 . S
C1844 C1852 1.378 1_554 S
C1845 C1844 1.367 . S
C1845 C1853 1.433 . S
C1846 H1842 0.929 . S
C1846 C1848 1.378 . S
C1846 C1850 1.350 1_545 S
C1847 C1850 1.463 . S
C1847 C1852 1.350 1_554 S
C1847 N1855 1.427 . S
C1848 H1839 0.930 . S
C1848 C1846 1.378 . S
C1848 C1849 1.367 . S
C1849 C1848 1.367 . S
C1849 C1851 1.433 1_544 S
C1850 C1846 1.350 1_565 S
C1850 C1847 1.463 . S
C1850 N1854 1.427 1_554 S
C1851 H1841 0.929 . S
C1851 C1849 1.433 1_566 S
C1851 N1854 1.384 . S
C1852 H1843 0.929 . S
C1852 C1844 1.378 1_556 S
C1852 C1847 1.350 1_556 S
C1853 H1840 0.929 . S
C1853 C1845 1.433 . S
C1853 N1855 1.384 . S
N1854 C1850 1.427 1_556 S
N1854 C1851 1.384 . S
N1855 C1847 1.427 . S
N1855 C1853 1.384 . S
H1856 C1862 0.930 . S
H1857 C1866 0.930 . S
H1858 C1871 0.929 . S
H1859 C1869 0.929 . S
H1860 C1864 0.929 . S
H1861 C1870 0.929 . S
C1862 H1856 0.930 . S
C1862 C1863 1.367 . S
C1862 C1870 1.378 . S
C1863 C1862 1.367 . S
C1863 C1871 1.433 . S
C1864 H1860 0.929 . S
C1864 C1866 1.378 . S
C1864 C1868 1.350 . S
C1865 C1868 1.463 . S
C1865 C1870 1.350 . S
C1865 N1873 1.427 . S
C1866 H1857 0.930 . S
C1866 C1864 1.378 . S
C1866 C1867 1.367 . S
C1867 C1866 1.367 . S
C1867 C1869 1.433 . S
C1868 C1864 1.350 . S
C1868 C1865 1.463 . S
C1868 N1872 1.427 . S
C1869 H1859 0.929 . S
C1869 C1867 1.433 . S
C1869 N1872 1.384 . S
C1870 H1861 0.929 . S
C1870 C1862 1.378 . S
C1870 C1865 1.350 . S
C1871 H1858 0.929 . S
C1871 C1863 1.433 . S
C1871 N1873 1.384 . S
N1872 C1868 1.427 . S
N1872 C1869 1.384 . S
N1873 C1865 1.427 . S
N1873 C1871 1.384 . S
H1874 C1880 0.930 . S
H1875 C1884 0.930 . S
H1876 C1889 0.929 1_556 S
H1877 C1887 0.929 . S
H1878 C1882 0.929 . S
H1879 C1888 0.929 . S
C1880 H1874 0.930 . S
C1880 C1881 1.367 . S
C1880 C1888 1.378 . S
C1881 C1880 1.367 . S
C1881 C1889 1.433 . S
C1882 H1878 0.929 . S
C1882 C1884 1.378 . S
C1882 C1886 1.350 . S
C1883 C1886 1.463 . S
C1883 C1888 1.350 . S
C1883 N1891 1.427 . S
C1884 H1875 0.930 . S
C1884 C1882 1.378 . S
C1884 C1885 1.367 . S
C1885 C1884 1.367 . S
C1885 C1887 1.433 . S
C1886 C1882 1.350 . S
C1886 C1883 1.463 . S
C1886 N1890 1.427 . S
C1887 H1877 0.929 . S
C1887 C1885 1.433 . S
C1887 N1890 1.384 . S
C1888 H1879 0.929 . S
C1888 C1880 1.378 . S
C1888 C1883 1.350 . S
C1889 H1876 0.929 1_554 S
C1889 C1881 1.433 . S
C1889 N1891 1.384 . S
N1890 C1886 1.427 . S
N1890 C1887 1.384 . S
N1891 C1883 1.427 . S
N1891 C1889 1.384 . S
H1892 C1898 0.930 . S
H1893 C1902 0.930 . S
H1894 C1907 0.929 . S
H1895 C1905 0.929 . S
H1896 C1900 0.929 . S
H1897 C1906 0.929 . S
C1898 H1892 0.930 . S
C1898 C1899 1.367 . S
C1898 C1906 1.378 . S
C1899 C1898 1.367 . S
C1899 C1907 1.433 . S
C1900 H1896 0.929 . S
C1900 C1902 1.378 . S
C1900 C1904 1.350 . S
C1901 C1904 1.463 . S
C1901 C1906 1.350 . S
C1901 N1909 1.427 . S
C1902 H1893 0.930 . S
C1902 C1900 1.378 . S
C1902 C1903 1.367 . S
C1903 C1902 1.367 . S
C1903 C1905 1.433 . S
C1904 C1900 1.350 . S
C1904 C1901 1.463 . S
C1904 N1908 1.427 . S
C1905 H1895 0.929 . S
C1905 C1903 1.433 . S
C1905 N1908 1.384 . S
C1906 H1897 0.929 . S
C1906 C1898 1.378 . S
C1906 C1901 1.350 . S
C1907 H1894 0.929 . S
C1907 C1899 1.433 . S
C1907 N1909 1.384 . S
N1908 C1904 1.427 . S
N1908 C1905 1.384 . S
N1909 C1901 1.427 . S
N1909 C1907 1.384 . S
H1910 C1916 0.930 . S
H1911 C1920 0.930 . S
H1912 C1925 0.929 . S
H1913 C1923 0.929 . S
H1914 C1918 0.929 . S
H1915 C1924 0.929 . S
C1916 H1910 0.930 . S
C1916 C1917 1.367 . S
C1916 C1924 1.378 . S
C1917 C1916 1.367 . S
C1917 C1925 1.433 . S
C1918 H1914 0.929 . S
C1918 C1920 1.378 . S
C1918 C1922 1.350 . S
C1919 C1922 1.463 . S
C1919 C1924 1.350 . S
C1919 N1927 1.427 . S
C1920 H1911 0.930 . S
C1920 C1918 1.378 . S
C1920 C1921 1.367 . S
C1921 C1920 1.367 . S
C1921 C1923 1.433 . S
C1922 C1918 1.350 . S
C1922 C1919 1.463 . S
C1922 N1926 1.427 . S
C1923 H1913 0.929 . S
C1923 C1921 1.433 . S
C1923 N1926 1.384 . S
C1924 H1915 0.929 . S
C1924 C1916 1.378 . S
C1924 C1919 1.350 . S
C1925 H1912 0.929 . S
C1925 C1917 1.433 . S
C1925 N1927 1.384 . S
N1926 C1922 1.427 . S
N1926 C1923 1.384 . S
N1927 C1919 1.427 . S
N1927 C1925 1.384 . S
H1928 C1934 0.930 . S
H1929 C1938 0.930 . S
H1930 C1943 0.929 . S
H1931 C1941 0.929 . S
H1932 C1936 0.929 . S
H1933 C1942 0.929 . S
C1934 H1928 0.930 . S
C1934 C1935 1.367 . S
C1934 C1942 1.378 . S
C1935 C1934 1.367 . S
C1935 C1943 1.433 . S
C1936 H1932 0.929 . S
C1936 C1938 1.378 . S
C1936 C1940 1.350 . S
C1937 C1940 1.463 . S
C1937 C1942 1.350 . S
C1937 N1945 1.427 . S
C1938 H1929 0.930 . S
C1938 C1936 1.378 . S
C1938 C1939 1.367 . S
C1939 C1938 1.367 . S
C1939 C1941 1.433 . S
C1940 C1936 1.350 . S
C1940 C1937 1.463 . S
C1940 N1944 1.427 . S
C1941 H1931 0.929 . S
C1941 C1939 1.433 . S
C1941 N1944 1.384 . S
C1942 H1933 0.929 . S
C1942 C1934 1.378 . S
C1942 C1937 1.350 . S
C1943 H1930 0.929 . S
C1943 C1935 1.433 . S
C1943 N1945 1.384 . S
N1944 C1940 1.427 . S
N1944 C1941 1.384 . S
N1945 C1937 1.427 . S
N1945 C1943 1.384 . S
H1946 C1952 0.930 . S
H1947 C1956 0.930 . S
H1948 C1961 0.929 . S
H1949 C1959 0.929 . S
H1950 C1954 0.929 . S
H1951 C1960 0.929 . S
C1952 H1946 0.930 . S
C1952 C1953 1.367 . S
C1952 C1960 1.378 . S
C1953 C1952 1.367 . S
C1953 C1961 1.433 . S
C1954 H1950 0.929 . S
C1954 C1956 1.378 . S
C1954 C1958 1.350 . S
C1955 C1958 1.463 . S
C1955 C1960 1.350 . S
C1955 N1963 1.427 . S
C1956 H1947 0.930 . S
C1956 C1954 1.378 . S
C1956 C1957 1.367 . S
C1957 C1956 1.367 . S
C1957 C1959 1.433 . S
C1958 C1954 1.350 . S
C1958 C1955 1.463 . S
C1958 N1962 1.427 . S
C1959 H1949 0.929 . S
C1959 C1957 1.433 . S
C1959 N1962 1.384 . S
C1960 H1951 0.929 . S
C1960 C1952 1.378 . S
C1960 C1955 1.350 . S
C1961 H1948 0.929 . S
C1961 C1953 1.433 . S
C1961 N1963 1.384 . S
N1962 C1958 1.427 . S
N1962 C1959 1.384 . S
N1963 C1955 1.427 . S
N1963 C1961 1.384 . S
H1964 C1970 0.930 . S
H1965 C1974 0.930 . S
H1966 C1979 0.929 . S
H1967 C1977 0.929 . S
H1968 C1972 0.929 . S
H1969 C1978 0.929 . S
C1970 H1964 0.930 . S
C1970 C1971 1.367 . S
C1970 C1978 1.378 . S
C1971 C1970 1.367 . S
C1971 C1979 1.433 . S
C1972 H1968 0.929 . S
C1972 C1974 1.378 . S
C1972 C1976 1.350 . S
C1973 C1976 1.463 . S
C1973 C1978 1.350 . S
C1973 N1981 1.427 . S
C1974 H1965 0.930 . S
C1974 C1972 1.378 . S
C1974 C1975 1.367 . S
C1975 C1974 1.367 . S
C1975 C1977 1.433 . S
C1976 C1972 1.350 . S
C1976 C1973 1.463 . S
C1976 N1980 1.427 . S
C1977 H1967 0.929 . S
C1977 C1975 1.433 . S
C1977 N1980 1.384 . S
C1978 H1969 0.929 . S
C1978 C1970 1.378 . S
C1978 C1973 1.350 . S
C1979 H1966 0.929 . S
C1979 C1971 1.433 . S
C1979 N1981 1.384 . S
N1980 C1976 1.427 . S
N1980 C1977 1.384 . S
N1981 C1973 1.427 . S
N1981 C1979 1.384 . S
H1982 C1988 0.930 . S
H1983 C1992 0.930 . S
H1984 C1997 0.929 . S
H1985 C1995 0.929 . S
H1986 C1990 0.929 . S
H1987 C1996 0.929 . S
C1988 H1982 0.930 . S
C1988 C1989 1.367 . S
C1988 C1996 1.378 . S
C1989 C1988 1.367 . S
C1989 C1997 1.433 . S
C1990 H1986 0.929 . S
C1990 C1992 1.378 . S
C1990 C1994 1.350 . S
C1991 C1994 1.463 . S
C1991 C1996 1.350 . S
C1991 N1999 1.427 . S
C1992 H1983 0.930 . S
C1992 C1990 1.378 . S
C1992 C1993 1.367 . S
C1993 C1992 1.367 . S
C1993 C1995 1.433 . S
C1994 C1990 1.350 . S
C1994 C1991 1.463 . S
C1994 N1998 1.427 . S
C1995 H1985 0.929 . S
C1995 C1993 1.433 . S
C1995 N1998 1.384 . S
C1996 H1987 0.929 . S
C1996 C1988 1.378 . S
C1996 C1991 1.350 . S
C1997 H1984 0.929 . S
C1997 C1989 1.433 . S
C1997 N1999 1.384 . S
N1998 C1994 1.427 . S
N1998 C1995 1.384 . S
N1999 C1991 1.427 . S
N1999 C1997 1.384 . S
H2000 C2006 0.930 . S
H2001 C2010 0.930 . S
H2002 C2015 0.929 . S
H2003 C2013 0.929 . S
H2004 C2008 0.929 . S
H2005 C2014 0.929 . S
C2006 H2000 0.930 . S
C2006 C2007 1.367 . S
C2006 C2014 1.378 . S
C2007 C2006 1.367 . S
C2007 C2015 1.433 . S
C2008 H2004 0.929 . S
C2008 C2010 1.378 . S
C2008 C2012 1.350 . S
C2009 C2012 1.463 . S
C2009 C2014 1.350 . S
C2009 N2017 1.427 . S
C2010 H2001 0.930 . S
C2010 C2008 1.378 . S
C2010 C2011 1.367 . S
C2011 C2010 1.367 . S
C2011 C2013 1.433 . S
C2012 C2008 1.350 . S
C2012 C2009 1.463 . S
C2012 N2016 1.427 . S
C2013 H2003 0.929 . S
C2013 C2011 1.433 . S
C2013 N2016 1.384 . S
C2014 H2005 0.929 . S
C2014 C2006 1.378 . S
C2014 C2009 1.350 . S
C2015 H2002 0.929 . S
C2015 C2007 1.433 . S
C2015 N2017 1.384 . S
N2016 C2012 1.427 . S
N2016 C2013 1.384 . S
N2017 C2009 1.427 . S
N2017 C2015 1.384 . S
H2018 C2024 0.930 . S
H2019 C2028 0.930 . S
H2020 C2033 0.929 . S
H2021 C2031 0.929 . S
H2022 C2026 0.929 . S
H2023 C2032 0.929 . S
C2024 H2018 0.930 . S
C2024 C2025 1.367 . S
C2024 C2032 1.378 . S
C2025 C2024 1.367 . S
C2025 C2033 1.433 . S
C2026 H2022 0.929 . S
C2026 C2028 1.378 . S
C2026 C2030 1.350 . S
C2027 C2030 1.463 . S
C2027 C2032 1.350 . S
C2027 N2035 1.427 . S
C2028 H2019 0.930 . S
C2028 C2026 1.378 . S
C2028 C2029 1.367 . S
C2029 C2028 1.367 . S
C2029 C2031 1.433 . S
C2030 C2026 1.350 . S
C2030 C2027 1.463 . S
C2030 N2034 1.427 . S
C2031 H2021 0.929 . S
C2031 C2029 1.433 . S
C2031 N2034 1.384 . S
C2032 H2023 0.929 . S
C2032 C2024 1.378 . S
C2032 C2027 1.350 . S
C2033 H2020 0.929 . S
C2033 C2025 1.433 . S
C2033 N2035 1.384 . S
N2034 C2030 1.427 . S
N2034 C2031 1.384 . S
N2035 C2027 1.427 . S
N2035 C2033 1.384 . S
H2036 C2042 0.930 . S
H2037 C2046 0.930 1_655 S
H2038 C2051 0.929 1_655 S
H2039 C2049 0.929 . S
H2040 C2044 0.929 1_655 S
H2041 C2050 0.929 . S
C2042 H2036 0.930 . S
C2042 C2043 1.367 . S
C2042 C2050 1.378 . S
C2043 C2042 1.367 . S
C2043 C2051 1.433 . S
C2044 H2040 0.929 1_455 S
C2044 C2046 1.378 . S
C2044 C2048 1.350 . S
C2045 C2048 1.463 . S
C2045 C2050 1.350 . S
C2045 N2053 1.427 . S
C2046 H2037 0.930 1_455 S
C2046 C2044 1.378 . S
C2046 C2047 1.367 . S
C2047 C2046 1.367 . S
C2047 C2049 1.433 . S
C2048 C2044 1.350 . S
C2048 C2045 1.463 . S
C2048 N2052 1.427 . S
C2049 H2039 0.929 . S
C2049 C2047 1.433 . S
C2049 N2052 1.384 . S
C2050 H2041 0.929 . S
C2050 C2042 1.378 . S
C2050 C2045 1.350 . S
C2051 H2038 0.929 1_455 S
C2051 C2043 1.433 . S
C2051 N2053 1.384 . S
N2052 C2048 1.427 . S
N2052 C2049 1.384 . S
N2053 C2045 1.427 . S
N2053 C2051 1.384 . S
H2054 C2060 0.930 . S
H2055 C2064 0.930 . S
H2056 C2069 0.929 . S
H2057 C2067 0.929 . S
H2058 C2062 0.929 . S
H2059 C2068 0.929 . S
C2060 H2054 0.930 . S
C2060 C2061 1.367 . S
C2060 C2068 1.378 . S
C2061 C2060 1.367 . S
C2061 C2069 1.433 . S
C2062 H2058 0.929 . S
C2062 C2064 1.378 . S
C2062 C2066 1.350 . S
C2063 C2066 1.463 . S
C2063 C2068 1.350 . S
C2063 N2071 1.427 . S
C2064 H2055 0.930 . S
C2064 C2062 1.378 . S
C2064 C2065 1.367 . S
C2065 C2064 1.367 . S
C2065 C2067 1.433 . S
C2066 C2062 1.350 . S
C2066 C2063 1.463 . S
C2066 N2070 1.427 . S
C2067 H2057 0.929 . S
C2067 C2065 1.433 . S
C2067 N2070 1.384 . S
C2068 H2059 0.929 . S
C2068 C2060 1.378 . S
C2068 C2063 1.350 . S
C2069 H2056 0.929 . S
C2069 C2061 1.433 . S
C2069 N2071 1.384 . S
N2070 C2066 1.427 . S
N2070 C2067 1.384 . S
N2071 C2063 1.427 . S
N2071 C2069 1.384 . S
H2072 C2078 0.930 . S
H2073 C2082 0.930 . S
H2074 C2087 0.929 . S
H2075 C2085 0.929 . S
H2076 C2080 0.929 . S
H2077 C2086 0.929 . S
C2078 H2072 0.930 . S
C2078 C2079 1.367 . S
C2078 C2086 1.378 . S
C2079 C2078 1.367 . S
C2079 C2087 1.433 . S
C2080 H2076 0.929 . S
C2080 C2082 1.378 . S
C2080 C2084 1.350 . S
C2081 C2084 1.463 . S
C2081 C2086 1.350 . S
C2081 N2089 1.427 . S
C2082 H2073 0.930 . S
C2082 C2080 1.378 . S
C2082 C2083 1.367 . S
C2083 C2082 1.367 . S
C2083 C2085 1.433 . S
C2084 C2080 1.350 . S
C2084 C2081 1.463 . S
C2084 N2088 1.427 . S
C2085 H2075 0.929 . S
C2085 C2083 1.433 . S
C2085 N2088 1.384 . S
C2086 H2077 0.929 . S
C2086 C2078 1.378 . S
C2086 C2081 1.350 . S
C2087 H2074 0.929 . S
C2087 C2079 1.433 . S
C2087 N2089 1.384 . S
N2088 C2084 1.427 . S
N2088 C2085 1.384 . S
N2089 C2081 1.427 . S
N2089 C2087 1.384 . S
H2090 C2096 0.930 . S
H2091 C2100 0.930 . S
H2092 C2105 0.929 . S
H2093 C2103 0.929 . S
H2094 C2098 0.929 . S
H2095 C2104 0.929 . S
C2096 H2090 0.930 . S
C2096 C2097 1.367 . S
C2096 C2104 1.378 . S
C2097 C2096 1.367 . S
C2097 C2105 1.433 . S
C2098 H2094 0.929 . S
C2098 C2100 1.378 . S
C2098 C2102 1.350 . S
C2099 C2102 1.463 . S
C2099 C2104 1.350 . S
C2099 N2107 1.427 . S
C2100 H2091 0.930 . S
C2100 C2098 1.378 . S
C2100 C2101 1.367 . S
C2101 C2100 1.367 . S
C2101 C2103 1.433 . S
C2102 C2098 1.350 . S
C2102 C2099 1.463 . S
C2102 N2106 1.427 . S
C2103 H2093 0.929 . S
C2103 C2101 1.433 . S
C2103 N2106 1.384 . S
C2104 H2095 0.929 . S
C2104 C2096 1.378 . S
C2104 C2099 1.350 . S
C2105 H2092 0.929 . S
C2105 C2097 1.433 . S
C2105 N2107 1.384 . S
N2106 C2102 1.427 . S
N2106 C2103 1.384 . S
N2107 C2099 1.427 . S
N2107 C2105 1.384 . S
H2108 C2114 0.930 . S
H2109 C2118 0.956 . S
H2110 C2123 0.929 . S
H2111 C2121 0.929 . S
H2112 C2116 0.929 . S
H2113 C2122 0.929 . S
C2114 H2108 0.930 . S
C2114 C2115 1.367 . S
C2114 C2122 1.378 . S
C2115 C2114 1.367 . S
C2115 C2123 1.433 . S
C2116 H2112 0.929 . S
C2116 C2118 1.378 . S
C2116 C2120 1.350 . S
C2117 C2120 1.463 . S
C2117 C2122 1.350 . S
C2117 N2125 1.427 . S
C2118 H2109 0.956 . S
C2118 C2116 1.378 . S
C2118 C2119 1.367 . S
C2119 C2118 1.367 . S
C2119 C2121 1.433 . S
C2120 C2116 1.350 . S
C2120 C2117 1.463 . S
C2120 N2124 1.427 . S
C2121 H2111 0.929 . S
C2121 C2119 1.433 . S
C2121 N2124 1.384 . S
C2122 H2113 0.929 . S
C2122 C2114 1.378 . S
C2122 C2117 1.350 . S
C2123 H2110 0.929 . S
C2123 C2115 1.433 . S
C2123 N2125 1.384 . S
N2124 C2120 1.427 . S
N2124 C2121 1.384 . S
N2125 C2117 1.427 . S
N2125 C2123 1.384 . S
H2126 C2132 0.930 . S
H2127 C2136 0.930 . S
H2128 C2141 0.929 . S
H2129 C2139 0.929 . S
H2130 C2134 0.929 . S
H2131 C2140 0.929 . S
C2132 H2126 0.930 . S
C2132 C2133 1.367 . S
C2132 C2140 1.378 . S
C2133 C2132 1.367 . S
C2133 C2141 1.433 . S
C2134 H2130 0.929 . S
C2134 C2136 1.378 . S
C2134 C2138 1.350 . S
C2135 C2138 1.463 . S
C2135 C2140 1.350 . S
C2135 N2143 1.427 . S
C2136 H2127 0.930 . S
C2136 C2134 1.378 . S
C2136 C2137 1.367 . S
C2137 C2136 1.367 . S
C2137 C2139 1.433 . S
C2138 C2134 1.350 . S
C2138 C2135 1.463 . S
C2138 N2142 1.427 . S
C2139 H2129 0.929 . S
C2139 C2137 1.433 . S
C2139 N2142 1.384 . S
C2140 H2131 0.929 . S
C2140 C2132 1.378 . S
C2140 C2135 1.350 . S
C2141 H2128 0.929 . S
C2141 C2133 1.433 . S
C2141 N2143 1.384 . S
N2142 C2138 1.427 . S
N2142 C2139 1.384 . S
N2143 C2135 1.427 . S
N2143 C2141 1.384 . S
H2144 C2150 0.930 . S
H2145 C2154 0.930 . S
H2146 C2159 0.929 . S
H2147 C2157 0.929 . S
H2148 C2152 0.929 . S
H2149 C2158 0.929 . S
C2150 H2144 0.930 . S
C2150 C2151 1.367 . S
C2150 C2158 1.378 . S
C2151 C2150 1.367 . S
C2151 C2159 1.433 . S
C2152 H2148 0.929 . S
C2152 C2154 1.378 . S
C2152 C2156 1.350 . S
C2153 C2156 1.463 . S
C2153 C2158 1.350 . S
C2153 N2161 1.427 . S
C2154 H2145 0.930 . S
C2154 C2152 1.378 . S
C2154 C2155 1.367 . S
C2155 C2154 1.367 . S
C2155 C2157 1.433 . S
C2156 C2152 1.350 . S
C2156 C2153 1.463 . S
C2156 N2160 1.427 . S
C2157 H2147 0.929 . S
C2157 C2155 1.433 . S
C2157 N2160 1.384 . S
C2158 H2149 0.929 . S
C2158 C2150 1.378 . S
C2158 C2153 1.350 . S
C2159 H2146 0.929 . S
C2159 C2151 1.433 . S
C2159 N2161 1.384 . S
N2160 C2156 1.427 . S
N2160 C2157 1.384 . S
N2161 C2153 1.427 . S
N2161 C2159 1.384 . S
H2162 C2168 0.930 . S
H2163 C2172 0.930 . S
H2164 C2177 0.929 . S
H2165 C2175 0.929 . S
H2166 C2170 0.929 . S
H2167 C2176 0.929 . S
C2168 H2162 0.930 . S
C2168 C2169 1.367 . S
C2168 C2176 1.378 . S
C2169 C2168 1.367 . S
C2169 C2177 1.433 . S
C2170 H2166 0.929 . S
C2170 C2172 1.378 . S
C2170 C2174 1.350 . S
C2171 C2174 1.463 . S
C2171 C2176 1.350 . S
C2171 N2179 1.427 . S
C2172 H2163 0.930 . S
C2172 C2170 1.378 . S
C2172 C2173 1.367 . S
C2173 C2172 1.367 . S
C2173 C2175 1.433 . S
C2174 C2170 1.350 . S
C2174 C2171 1.463 . S
C2174 N2178 1.427 . S
C2175 H2165 0.929 . S
C2175 C2173 1.433 . S
C2175 N2178 1.384 . S
C2176 H2167 0.929 . S
C2176 C2168 1.378 . S
C2176 C2171 1.350 . S
C2177 H2164 0.929 . S
C2177 C2169 1.433 . S
C2177 N2179 1.384 . S
N2178 C2174 1.427 . S
N2178 C2175 1.384 . S
N2179 C2171 1.427 . S
N2179 C2177 1.384 . S
H2180 C2186 0.930 . S
H2181 C2190 0.930 . S
H2182 C2195 0.929 . S
H2183 C2193 0.929 . S
H2184 C2188 0.929 . S
H2185 C2194 0.929 . S
C2186 H2180 0.930 . S
C2186 C2187 1.367 . S
C2186 C2194 1.378 . S
C2187 C2186 1.367 . S
C2187 C2195 1.433 . S
C2188 H2184 0.929 . S
C2188 C2190 1.378 . S
C2188 C2192 1.350 . S
C2189 C2192 1.463 . S
C2189 C2194 1.350 . S
C2189 N2197 1.427 . S
C2190 H2181 0.930 . S
C2190 C2188 1.378 . S
C2190 C2191 1.367 . S
C2191 C2190 1.367 . S
C2191 C2193 1.433 . S
C2192 C2188 1.350 . S
C2192 C2189 1.463 . S
C2192 N2196 1.427 . S
C2193 H2183 0.929 . S
C2193 C2191 1.433 . S
C2193 N2196 1.384 . S
C2194 H2185 0.929 . S
C2194 C2186 1.378 . S
C2194 C2189 1.350 . S
C2195 H2182 0.929 . S
C2195 C2187 1.433 . S
C2195 N2197 1.384 . S
N2196 C2192 1.427 . S
N2196 C2193 1.384 . S
N2197 C2189 1.427 . S
N2197 C2195 1.384 . S
H2198 C2204 0.930 . S
H2199 C2208 0.930 . S
H2200 C2213 0.929 . S
H2201 C2211 0.929 . S
H2202 C2206 0.929 . S
H2203 C2212 0.929 . S
C2204 H2198 0.930 . S
C2204 C2205 1.367 . S
C2204 C2212 1.378 . S
C2205 C2204 1.367 . S
C2205 C2213 1.433 . S
C2206 H2202 0.929 . S
C2206 C2208 1.378 . S
C2206 C2210 1.350 . S
C2207 C2210 1.463 . S
C2207 C2212 1.350 . S
C2207 N2215 1.427 . S
C2208 H2199 0.930 . S
C2208 C2206 1.378 . S
C2208 C2209 1.367 . S
C2209 C2208 1.367 . S
C2209 C2211 1.433 . S
C2210 C2206 1.350 . S
C2210 C2207 1.463 . S
C2210 N2214 1.427 . S
C2211 H2201 0.929 . S
C2211 C2209 1.433 . S
C2211 N2214 1.384 . S
C2212 H2203 0.929 . S
C2212 C2204 1.378 . S
C2212 C2207 1.350 . S
C2213 H2200 0.929 . S
C2213 C2205 1.433 . S
C2213 N2215 1.384 . S
N2214 C2210 1.427 . S
N2214 C2211 1.384 . S
N2215 C2207 1.427 . S
N2215 C2213 1.384 . S
H2216 C2222 0.930 . S
H2217 C2226 0.930 . S
H2218 C2231 0.929 . S
H2219 C2229 0.929 . S
H2220 C2224 0.929 . S
H2221 C2230 0.929 . S
C2222 H2216 0.930 . S
C2222 C2223 1.367 . S
C2222 C2230 1.378 . S
C2223 C2222 1.367 . S
C2223 C2231 1.433 . S
C2224 H2220 0.929 . S
C2224 C2226 1.378 . S
C2224 C2228 1.350 . S
C2225 C2228 1.463 . S
C2225 C2230 1.350 . S
C2225 N2233 1.427 . S
C2226 H2217 0.930 . S
C2226 C2224 1.378 . S
C2226 C2227 1.367 . S
C2227 C2226 1.367 . S
C2227 C2229 1.433 . S
C2228 C2224 1.350 . S
C2228 C2225 1.463 . S
C2228 N2232 1.427 . S
C2229 H2219 0.929 . S
C2229 C2227 1.433 . S
C2229 N2232 1.384 . S
C2230 H2221 0.929 . S
C2230 C2222 1.378 . S
C2230 C2225 1.350 . S
C2231 H2218 0.929 . S
C2231 C2223 1.433 . S
C2231 N2233 1.384 . S
N2232 C2228 1.427 . S
N2232 C2229 1.384 . S
N2233 C2225 1.427 . S
N2233 C2231 1.384 . S
H2234 C2240 0.930 . S
H2235 C2244 0.930 . S
H2236 C2249 0.929 . S
H2237 C2247 0.929 1_545 S
H2238 C2242 0.929 . S
H2239 C2248 0.929 . S
C2240 H2234 0.930 . S
C2240 C2241 1.367 . S
C2240 C2248 1.378 . S
C2241 C2240 1.367 . S
C2241 C2249 1.433 . S
C2242 H2238 0.929 . S
C2242 C2244 1.378 . S
C2242 C2246 1.350 . S
C2243 C2246 1.463 . S
C2243 C2248 1.350 . S
C2243 N2251 1.427 . S
C2244 H2235 0.930 . S
C2244 C2242 1.378 . S
C2244 C2245 1.367 . S
C2245 C2244 1.367 . S
C2245 C2247 1.433 . S
C2246 C2242 1.350 . S
C2246 C2243 1.463 . S
C2246 N2250 1.427 . S
C2247 H2237 0.929 1_565 S
C2247 C2245 1.433 . S
C2247 N2250 1.384 . S
C2248 H2239 0.929 . S
C2248 C2240 1.378 . S
C2248 C2243 1.350 . S
C2249 H2236 0.929 . S
C2249 C2241 1.433 . S
C2249 N2251 1.384 . S
N2250 C2246 1.427 . S
N2250 C2247 1.384 . S
N2251 C2243 1.427 . S
N2251 C2249 1.384 . S
H2252 C2258 0.930 . S
H2253 C2262 0.930 . S
H2254 C2267 0.929 . S
H2255 C2265 0.929 . S
H2256 C2260 0.929 . S
H2257 C2266 0.929 . S
C2258 H2252 0.930 . S
C2258 C2259 1.367 . S
C2258 C2266 1.378 . S
C2259 C2258 1.367 . S
C2259 C2267 1.433 . S
C2260 H2256 0.929 . S
C2260 C2262 1.378 . S
C2260 C2264 1.350 . S
C2261 C2264 1.463 . S
C2261 C2266 1.350 . S
C2261 N2269 1.427 . S
C2262 H2253 0.930 . S
C2262 C2260 1.378 . S
C2262 C2263 1.367 . S
C2263 C2262 1.367 . S
C2263 C2265 1.433 . S
C2264 C2260 1.350 . S
C2264 C2261 1.463 . S
C2264 N2268 1.427 . S
C2265 H2255 0.929 . S
C2265 C2263 1.433 . S
C2265 N2268 1.384 . S
C2266 H2257 0.929 . S
C2266 C2258 1.378 . S
C2266 C2261 1.350 . S
C2267 H2254 0.929 . S
C2267 C2259 1.433 . S
C2267 N2269 1.384 . S
N2268 C2264 1.427 . S
N2268 C2265 1.384 . S
N2269 C2261 1.427 . S
N2269 C2267 1.384 . S
H2270 C2276 0.930 . S
H2271 C2280 0.930 . S
H2272 C2285 0.929 . S
H2273 C2283 0.929 . S
H2274 C2278 0.929 . S
H2275 C2284 0.929 . S
C2276 H2270 0.930 . S
C2276 C2277 1.367 . S
C2276 C2284 1.378 . S
C2277 C2276 1.367 . S
C2277 C2285 1.433 1_556 S
C2278 H2274 0.929 . S
C2278 C2280 1.378 . S
C2278 C2282 1.352 1_554 S
C2279 C2282 1.462 . S
C2279 C2284 1.350 . S
C2279 N2287 1.427 1_556 S
C2280 H2271 0.930 . S
C2280 C2278 1.378 . S
C2280 C2281 1.367 . S
C2281 C2280 1.367 . S
C2281 C2283 1.433 1_554 S
C2282 C2278 1.352 1_556 S
C2282 C2279 1.462 . S
C2282 N2286 1.425 . S
C2283 H2273 0.929 . S
C2283 C2281 1.433 1_556 S
C2283 N2286 1.384 . S
C2284 H2275 0.929 . S
C2284 C2276 1.378 . S
C2284 C2279 1.350 . S
C2285 H2272 0.929 . S
C2285 C2277 1.433 1_554 S
C2285 N2287 1.384 . S
N2286 C2282 1.425 . S
N2286 C2283 1.384 . S
N2287 C2279 1.427 1_554 S
N2287 C2285 1.384 . S
H2288 C2294 0.930 . S
H2289 C2298 0.930 . S
H2290 C2303 0.929 . S
H2291 C2301 0.929 . S
H2292 C2296 0.929 . S
H2293 C2302 0.929 . S
C2294 H2288 0.930 . S
C2294 C2295 1.367 . S
C2294 C2302 1.378 . S
C2295 C2294 1.367 . S
C2295 C2303 1.433 . S
C2296 H2292 0.929 . S
C2296 C2298 1.378 . S
C2296 C2300 1.350 . S
C2297 C2300 1.463 . S
C2297 C2302 1.350 . S
C2297 N2305 1.427 . S
C2298 H2289 0.930 . S
C2298 C2296 1.378 . S
C2298 C2299 1.367 . S
C2299 C2298 1.367 . S
C2299 C2301 1.433 . S
C2300 C2296 1.350 . S
C2300 C2297 1.463 . S
C2300 N2304 1.427 . S
C2301 H2291 0.929 . S
C2301 C2299 1.433 . S
C2301 N2304 1.384 . S
C2302 H2293 0.929 . S
C2302 C2294 1.378 . S
C2302 C2297 1.350 . S
C2303 H2290 0.929 . S
C2303 C2295 1.433 . S
C2303 N2305 1.384 . S
N2304 C2300 1.427 . S
N2304 C2301 1.384 . S
N2305 C2297 1.427 . S
N2305 C2303 1.384 . S
H2306 C2312 0.930 . S
H2307 C2316 0.930 . S
H2308 C2321 0.928 . S
H2309 C2319 0.929 . S
H2310 C2314 0.929 . S
H2311 C2320 0.929 . S
C2312 H2306 0.930 . S
C2312 C2313 1.367 . S
C2312 C2320 1.378 . S
C2313 C2312 1.367 . S
C2313 C2321 1.434 1_554 S
C2314 H2310 0.929 . S
C2314 C2316 1.378 . S
C2314 C2318 1.350 1_556 S
C2315 C2318 1.463 . S
C2315 C2320 1.350 . S
C2315 N2323 1.427 1_554 S
C2316 H2307 0.930 . S
C2316 C2314 1.378 . S
C2316 C2317 1.367 1_556 S
C2317 C2316 1.367 1_554 S
C2317 C2319 1.433 . S
C2318 C2314 1.350 1_554 S
C2318 C2315 1.463 . S
C2318 N2322 1.427 . S
C2319 H2309 0.929 . S
C2319 C2317 1.433 . S
C2319 N2322 1.384 . S
C2320 H2311 0.929 . S
C2320 C2312 1.378 . S
C2320 C2315 1.350 . S
C2321 H2308 0.928 . S
C2321 C2313 1.434 1_556 S
C2321 N2323 1.383 . S
N2322 C2318 1.427 . S
N2322 C2319 1.384 . S
N2323 C2315 1.427 1_556 S
N2323 C2321 1.383 . S
H2324 C2330 0.930 . S
H2325 C2334 0.930 . S
H2326 C2339 0.929 . S
H2327 C2337 0.929 . S
H2328 C2332 0.929 . S
H2329 C2338 0.929 . S
C2330 H2324 0.930 . S
C2330 C2331 1.367 . S
C2330 C2338 1.378 . S
C2331 C2330 1.367 . S
C2331 C2339 1.433 . S
C2332 H2328 0.929 . S
C2332 C2334 1.378 . S
C2332 C2336 1.350 . S
C2333 C2336 1.463 . S
C2333 C2338 1.350 . S
C2333 N2341 1.427 . S
C2334 H2325 0.930 . S
C2334 C2332 1.378 . S
C2334 C2335 1.367 . S
C2335 C2334 1.367 . S
C2335 C2337 1.433 . S
C2336 C2332 1.350 . S
C2336 C2333 1.463 . S
C2336 N2340 1.427 . S
C2337 H2327 0.929 . S
C2337 C2335 1.433 . S
C2337 N2340 1.384 . S
C2338 H2329 0.929 . S
C2338 C2330 1.378 . S
C2338 C2333 1.350 . S
C2339 H2326 0.929 . S
C2339 C2331 1.433 . S
C2339 N2341 1.384 . S
N2340 C2336 1.427 . S
N2340 C2337 1.384 . S
N2341 C2333 1.427 . S
N2341 C2339 1.384 . S
H2342 C2348 0.930 . S
H2343 C2352 0.930 . S
H2344 C2357 0.929 . S
H2345 C2355 0.929 . S
H2346 C2350 0.929 . S
H2347 C2356 0.929 . S
C2348 H2342 0.930 . S
C2348 C2349 1.367 . S
C2348 C2356 1.378 . S
C2349 C2348 1.367 . S
C2349 C2357 1.433 . S
C2350 H2346 0.929 . S
C2350 C2352 1.378 . S
C2350 C2354 1.350 . S
C2351 C2354 1.463 . S
C2351 C2356 1.350 . S
C2351 N2359 1.427 . S
C2352 H2343 0.930 . S
C2352 C2350 1.378 . S
C2352 C2353 1.367 . S
C2353 C2352 1.367 . S
C2353 C2355 1.433 . S
C2354 C2350 1.350 . S
C2354 C2351 1.463 . S
C2354 N2358 1.427 . S
C2355 H2345 0.929 . S
C2355 C2353 1.433 . S
C2355 N2358 1.384 . S
C2356 H2347 0.929 . S
C2356 C2348 1.378 . S
C2356 C2351 1.350 . S
C2357 H2344 0.929 . S
C2357 C2349 1.433 . S
C2357 N2359 1.384 . S
N2358 C2354 1.427 . S
N2358 C2355 1.384 . S
N2359 C2351 1.427 . S
N2359 C2357 1.384 . S
C639 C101 1.509 . S
C643 C330 1.445 . S
C657 C57 1.600 . S
C661 C341 1.628 . S
C675 C70 0.923 . S
C679 C370 0.907 . S
C697 C373 1.443 . S
C693 C82 1.448 . S
C711 C23 1.616 . S
C715 C411 1.551 . S
C733 C414 0.938 . S
C729 C29 0.941 . S
C751 C441 1.427 . S
C747 C49 1.406 . S
C765 C10 1.640 . S
C769 C470 1.556 . S
C787 C321 1.537 . S
C783 C218 1.524 . S
C801 C226 0.906 . S
C805 C333 0.908 . S
C823 C361 1.565 . S
C819 C251 1.561 . S
C841 C390 0.985 . S
C837 C159 1.015 . S
C855 C211 0.998 . S
C859 C394 1.006 . S
C877 C420 1.600 . S
C873 C225 1.612 . S
C895 C433 0.738 . S
C891 C252 0.739 . S
C913 C461 1.560 . S
C909 C166 1.561 . S
C931 C313 1.515 . S
C927 C147 1.532 . S
C945 C263 1.708 . S
C949 C480 1.696 1_554 S
C967 C511 1.547 . S
C963 C309 1.611 . S
C985 C530 0.846 . S
C981 C291 0.851 . S
C999 C108 1.388 . S
C1003 C453 1.386 . S
C1017 C121 1.507 . S
C1021 C353 1.508 . S
C1035 C302 1.527 . S
C1039 C541 1.531 . S
C1057 C570 0.855 . S
C1053 C276 0.876 . S
C1075 C331 1.676 . S
C1071 C55 1.720 . S
C1093 C560 1.778 . S
C1089 C96 1.786 . S
C1107 C88 1.213 . S
C1111 C371 1.177 . S
C1125 C75 1.619 . S
C1129 C534 1.608 . S
C1147 C410 1.740 . S
C1143 C4 1.793 . S
C1161 C44 1.131 . S
C1165 C493 1.143 . S
C1183 C440 1.648 . S
C1179 C31 1.663 . S
C1201 C591 1.745 . S
C1197 C18 1.810 . S
C1219 C320 1.698 . S
C1215 C133 1.706 . S
C1237 C554 1.054 . S
C1233 C296 1.073 . S
C1251 C107 1.740 . S
C1255 C360 1.727 . S
C1269 C264 1.356 . S
C1273 C551 1.342 . S
C1287 C140 1.196 . S
C1291 C393 1.197 . S
C1309 C501 1.736 . S
C1305 C289 1.768 . S
C1323 C114 0.974 . S
C1327 C434 0.969 . S
C1341 C265 1.781 . S
C1345 C580 1.764 . S
C1359 C179 1.647 . S
C1363 C314 1.620 . S
C1377 C161 1.872 . S
C1381 C481 1.846 . S
C1395 C244 1.758 . S
C1399 C430 1.693 . S
C1413 C224 1.187 . S
C1417 C531 1.175 . S
C1435 C574 1.481 . S
C1431 C257 1.492 . S
C1449 C199 1.625 . S
C1453 C354 1.612 . S
C1471 C380 1.734 . S
C1467 C237 1.751 . S
C1489 C351 1.117 . S
C1485 C185 1.134 . S
C1503 C69 1.510 . S
C1507 C610 1.453 . S
C1525 C561 1.629 . S
C1521 C83 1.602 . S
C1539 C94 0.915 . S
C1543 C630 0.881 . S
C1557 C56 1.446 . S
C1561 C533 1.444 . S
C1575 C42 1.625 . S
C1579 C491 1.555 . S
C1597 C494 0.954 . S
C1593 C3 0.953 . S
C1615 C521 1.436 . S
C1611 C16 1.415 . S
C1633 C590 1.566 . S
C1629 C36 1.646 . S
C1651 C601 1.536 . S
C1647 C238 1.526 . S
C1665 C174 0.907 . S
C1669 C553 0.893 . S
C1687 C621 1.564 . S
C1683 C186 1.559 . S
C1705 C550 0.981 . S
C1701 C198 1.011 . S
C1723 C474 0.997 . S
C1719 C239 0.990 . S
C1737 C173 1.617 . S
C1741 C500 1.605 . S
C1759 C513 0.741 . S
C1755 C187 0.741 . S
C1773 C205 1.564 . S
C1777 C581 1.561 . S
C1795 C593 1.515 . S
C1791 C290 1.530 . S
C1809 C122 1.708 . S
C1813 C400 1.691 . S
C1831 C431 1.561 . S
C1827 C134 1.624 . S
C1849 C450 0.844 . S
C1845 C148 0.848 . S
C1867 C573 1.390 . S
C1863 C283 1.393 . S
C1881 C270 1.502 . S
C1885 C613 1.508 . S
C1903 C381 1.528 . S
C1899 C135 1.519 . S
C1921 C350 0.870 . S
C1917 C109 0.888 . S
C1935 C81 1.723 . S
C1939 C611 1.683 . S
C1957 C340 1.778 . S
C1953 C68 1.786 . S
C1971 C62 1.214 . S
C1975 C631 1.192 . S
C1989 C95 1.619 . S
C1993 C374 1.601 . S
C2007 C30 1.794 . S
C2011 C490 1.740 . S
C2029 C413 1.130 . S
C2025 C17 1.124 . S
C2043 C5 1.665 . S
C2047 C520 1.655 . S
C2061 C43 1.801 . S
C2065 C471 1.739 . S
C2083 C600 1.699 . S
C2079 C304 1.706 . S
C2097 C153 1.072 . S
C2101 C334 1.060 . S
C2119 C620 1.722 1_655 S
C2115 C278 1.741 . S
C2133 C127 1.357 . S
C2137 C391 1.338 . S
C2151 C303 1.191 . S
C2155 C473 1.194 . S
C2173 C421 1.733 . S
C2169 C146 1.766 . S
C2187 C277 0.967 . S
C2191 C514 0.948 . S
C2209 C460 1.762 . S
C2205 C120 1.779 . S
C2227 C594 1.618 . S
C2223 C231 1.646 . S
C2245 C401 1.840 1_565 S
C2241 C200 1.871 . S
C2259 C212 1.760 . S
C2263 C510 1.696 . S
C2281 C451 1.164 . S
C2277 C172 1.190 . S
C2295 C192 1.490 . S
C2299 C454 1.471 . S
C2313 C160 1.626 . S
C2317 C614 1.620 . S
C2335 C540 1.731 . S
C2331 C213 1.753 . S
C2353 C571 1.102 . S
C2349 C250 1.133 . S
