# Generated by pormake.
# Topology rtl, (3,6)-cn, num edge types: 1
# Building blocks:
#     Node 0, Type 0, BuildingBlock: OLANEW_clean_sbu_2, # of connection points: 3
#     Node 1, Type 0, BuildingBlock: OLANEW_clean_sbu_2, # of connection points: 3
#     Node 2, Type 0, BuildingBlock: OLANEW_clean_sbu_2, # of connection points: 3
#     Node 3, Type 0, BuildingBlock: OLANEW_clean_sbu_2, # of connection points: 3
#     Node 4, Type 1, BuildingBlock: LEVNOQ01_clean_sbu_1, # of connection points: 6
#     Node 5, Type 1, BuildingBlock: LEVNOQ01_clean_sbu_1, # of connection points: 6
#     Edge 6, Type (0, 1), BuildingBlock: EZIPEK_clean_linker_0, # of connection points: 2
#     Edge 7, Type (0, 1), BuildingBlock: EZIPEK_clean_linker_0, # of connection points: 2
#     Edge 8, Type (0, 1), BuildingBlock: EZIPEK_clean_linker_0, # of connection points: 2
#     Edge 9, Type (0, 1), BuildingBlock: EZIPEK_clean_linker_0, # of connection points: 2
#     Edge 10, Type (0, 1), BuildingBlock: EZIPEK_clean_linker_0, # of connection points: 2
#     Edge 11, Type (0, 1), BuildingBlock: EZIPEK_clean_linker_0, # of connection points: 2
#     Edge 12, Type (0, 1), BuildingBlock: EZIPEK_clean_linker_0, # of connection points: 2
#     Edge 13, Type (0, 1), BuildingBlock: EZIPEK_clean_linker_0, # of connection points: 2
#     Edge 14, Type (0, 1), BuildingBlock: EZIPEK_clean_linker_0, # of connection points: 2
#     Edge 15, Type (0, 1), BuildingBlock: EZIPEK_clean_linker_0, # of connection points: 2
#     Edge 16, Type (0, 1), BuildingBlock: EZIPEK_clean_linker_0, # of connection points: 2
#     Edge 17, Type (0, 1), BuildingBlock: EZIPEK_clean_linker_0, # of connection points: 2
# Relax obj value: 0.017
# Max RMSD: 0.117
# Mean RMSD: 0.072
data_MOF--net-rtl--node1-OLANEW_clean_sbu_2--node2-LEVNOQ01_clean_sbu_1--edge1-EZIPEK_clean_linker_0
_symmetry_space_group_name_H-M    P1
_symmetry_Int_Tables_number       1
_symmetry_cell_setting            triclinic
loop_
_symmetry_equiv_pos_as_xyz
'x, y, z'
_cell_length_a     27.809506
_cell_length_b     28.116398
_cell_length_c     17.648204
_cell_angle_alpha  86.664401
_cell_angle_beta   100.84024
_cell_angle_gamma 89.995153
loop_
_atom_site_label
_atom_site_type_symbol
_atom_site_fract_x
_atom_site_fract_y
_atom_site_fract_z
_atom_type_partial_charge
O0 O 0.17774 0.82858 0.03465 0.0
Cd1 Cd 0.2325 0.79967 0.15474 0.0
O2 O 0.22245 0.89244 0.0232 0.0
Cd3 Cd 0.25923 0.8827 0.14324 0.0
O4 O 0.22982 0.89308 0.24723 0.0
C5 C 0.19963 0.92772 0.24018 0.0
O6 O 0.1919 0.95508 0.17607 0.0
C7 C 0.18697 0.86606 0.99616 0.0
C8 C 0.29683 0.73048 0.1238 0.0
O9 O 0.30577 0.77494 0.11468 0.0
O10 O 0.25836 0.71862 0.15022 0.0
O11 O 0.67254 0.74018 0.76326 0.0
Cd12 Cd 0.68602 0.79759 0.66028 0.0
O13 O 0.69884 0.69553 0.68304 0.0
Cd14 Cd 0.70849 0.63639 0.61302 0.0
O15 O 0.69491 0.62452 0.48972 0.0
C16 C 0.65336 0.60793 0.46167 0.0
O17 O 0.62282 0.59676 0.5081 0.0
C18 C 0.67927 0.69873 0.74213 0.0
C19 C 0.78339 0.81819 0.65167 0.0
O20 O 0.75578 0.84764 0.67688 0.0
O21 O 0.76471 0.77818 0.63205 0.0
O22 O 0.83677 0.20174 0.1062 0.0
Cd23 Cd 0.81035 0.24503 0.97991 0.0
O24 O 0.91493 0.2159 0.10855 0.0
Cd25 Cd 0.89795 0.24291 0.98852 0.0
O26 O 0.87742 0.21111 0.87744 0.0
C27 C 0.86597 0.16738 0.88251 0.0
O28 O 0.86749 0.14745 0.95201 0.0
C29 C 0.88124 0.19832 0.14082 0.0
C30 C 0.72502 0.29741 0.9741 0.0
O31 O 0.72335 0.25566 0.9482 0.0
O32 O 0.767 0.31474 0.00074 0.0
O33 O 0.33201 0.3497 0.55668 0.0
Cd34 Cd 0.28387 0.32071 0.43639 0.0
O35 O 0.27848 0.40643 0.56316 0.0
Cd36 Cd 0.24107 0.39723 0.44457 0.0
O37 O 0.25465 0.41174 0.32724 0.0
C38 C 0.3001 0.41338 0.32568 0.0
O39 O 0.33193 0.40481 0.38999 0.0
C40 C 0.31746 0.38325 0.59257 0.0
C41 C 0.22493 0.2441 0.46471 0.0
O42 O 0.26744 0.23723 0.44889 0.0
O43 O 0.20975 0.28708 0.46532 0.0
O44 O 0.9986 0.10371 0.71492 0.0
Mg45 Mg 0.06493 0.07913 0.69244 0.0
O46 O 0.95973 0.05361 0.63329 0.0
Mg47 Mg 0.01559 0.01864 0.5673 0.0
O48 O 0.07309 0.0807 0.57933 0.0
O49 O 0.11111 0.1299 0.66717 0.0
O50 O 0.06866 0.98348 0.49961 0.0
O51 O 0.97997 0.06713 0.4549 0.0
Mg52 Mg 0.95569 0.97546 0.44695 0.0
O53 O 0.95993 0.95378 0.55979 0.0
O54 O 0.01741 0.96292 0.39561 0.0
O55 O 0.91001 0.0343 0.4103 0.0
O56 O 0.91577 0.91734 0.45989 0.0
C57 C 0.08433 0.97867 0.74087 0.0
C58 C 0.95952 0.08439 0.68357 0.0
C59 C 0.10356 0.11528 0.59798 0.0
C60 C 0.06072 0.96752 0.43233 0.0
C61 C 0.93825 0.06918 0.40979 0.0
C62 C 0.92895 0.92101 0.53342 0.0
O63 O 0.09772 0.02003 0.75941 0.0
O64 O 0.05424 0.97235 0.67809 0.0
O65 O 0.56889 0.49917 0.20237 0.0
Mg66 Mg 0.5323 0.44858 0.13359 0.0
O67 O 0.54067 0.55515 0.11198 0.0
Mg68 Mg 0.49654 0.51568 0.00632 0.0
O69 O 0.548 0.44679 0.02453 0.0
O70 O 0.57659 0.39444 0.12446 0.0
O71 O 0.45349 0.47723 0.89915 0.0
O72 O 0.55472 0.54836 0.93633 0.0
Mg73 Mg 0.44739 0.58884 0.87194 0.0
O74 O 0.44572 0.58232 0.9867 0.0
O75 O 0.41173 0.53131 0.81571 0.0
O76 O 0.5176 0.60467 0.85207 0.0
O77 O 0.40667 0.64073 0.90751 0.0
C78 C 0.42965 0.45402 0.12441 0.0
C79 C 0.56534 0.54241 0.17868 0.0
C80 C 0.57436 0.40919 0.05324 0.0
C81 C 0.42287 0.48825 0.83691 0.0
C82 C 0.55588 0.58167 0.88413 0.0
C83 C 0.41722 0.6197 0.97558 0.0
O84 O 0.46466 0.42679 0.15572 0.0
O85 O 0.43597 0.4866 0.07395 0.0
C86 C 0.1456 0.19932 0.44848 0.0
C87 C 0.19511 0.2036 0.48659 0.0
C88 C 0.18545 0.13371 0.57128 0.0
C89 C 0.13424 0.13622 0.54493 0.0
N90 N 0.0644 0.17015 0.45702 0.0
N91 N 0.2608 0.17761 0.59157 0.0
C92 C 0.11393 0.16807 0.48197 0.0
C93 C 0.21511 0.17094 0.54901 0.0
N94 N 0.12919 0.22468 0.38008 0.0
N95 N 0.20541 0.09603 0.61925 0.0
H96 H 0.28332 0.20575 0.58051 0.0
H97 H 0.27455 0.15785 0.64285 0.0
H98 H 0.18407 0.06815 0.63585 0.0
H99 H 0.24302 0.09003 0.63543 0.0
H100 H 0.09478 0.2201 0.34617 0.0
H101 H 0.15182 0.24715 0.35365 0.0
H102 H 0.04667 0.19637 0.41746 0.0
H103 H 0.04079 0.14655 0.4789 0.0
C104 C 0.38078 0.697 0.12394 0.0
C105 C 0.3291 0.69408 0.10041 0.0
C106 C 0.34061 0.62586 0.02525 0.0
C107 C 0.39108 0.63582 0.03504 0.0
N108 N 0.46044 0.6808 0.09286 0.0
N109 N 0.25983 0.65879 0.01893 0.0
C110 C 0.41175 0.67092 0.0852 0.0
C111 C 0.30879 0.65866 0.04972 0.0
N112 N 0.40011 0.72405 0.18387 0.0
N113 N 0.32307 0.58568 0.99021 0.0
H114 H 0.23504 0.68389 0.03039 0.0
H115 H 0.24447 0.63686 0.97537 0.0
H116 H 0.34605 0.56127 0.97169 0.0
H117 H 0.28715 0.57425 0.98725 0.0
H118 H 0.43732 0.72436 0.20775 0.0
H119 H 0.37833 0.74241 0.21483 0.0
H120 H 0.47673 0.70977 0.12144 0.0
H121 H 0.48411 0.66078 0.06752 0.0
C122 C 0.85439 0.87258 0.68093 0.0
C123 C 0.83378 0.83283 0.64116 0.0
C124 C 0.89792 0.8405 0.56302 0.0
C125 C 0.90602 0.88797 0.58489 0.0
N126 N 0.88747 0.95056 0.66441 0.0
N127 N 0.84127 0.77568 0.54473 0.0
C128 C 0.88408 0.90426 0.64516 0.0
C129 C 0.85755 0.81504 0.58329 0.0
N130 N 0.84534 0.88024 0.75263 0.0
N131 N 0.92908 0.81979 0.523 0.0
H132 H 0.81707 0.7512 0.56219 0.0
H133 H 0.8523 0.76734 0.49373 0.0
H134 H 0.95986 0.83735 0.5099 0.0
H135 H 0.92753 0.78391 0.51094 0.0
H136 H 0.86212 0.90729 0.78581 0.0
H137 H 0.82616 0.85579 0.78212 0.0
H138 H 0.86682 0.96439 0.70177 0.0
H139 H 0.90696 0.97616 0.63843 0.0
C140 C 0.6427 0.30356 0.01272 0.0
C141 C 0.67969 0.32454 0.97665 0.0
C142 C 0.63979 0.40282 0.97151 0.0
C143 C 0.60288 0.38147 0.00749 0.0
N144 N 0.55967 0.31017 0.03431 0.0
N145 N 0.70437 0.39031 0.89929 0.0
C146 C 0.60103 0.33122 0.01773 0.0
C147 C 0.67516 0.37299 0.94846 0.0
N148 N 0.64886 0.25883 0.04815 0.0
N149 N 0.6434 0.45123 0.96395 0.0
H150 H 0.72983 0.36897 0.88012 0.0
H151 H 0.69969 0.42414 0.87138 0.0
H152 H 0.6184 0.47451 0.97958 0.0
H153 H 0.67309 0.46833 0.94657 0.0
H154 H 0.62516 0.2445 0.08251 0.0
H155 H 0.67992 0.23777 0.05023 0.0
H156 H 0.5549 0.27337 0.03674 0.0
H157 H 0.52828 0.32989 0.03706 0.0
C158 C 0.13421 0.90037 0.31261 0.0
C159 C 0.16945 0.93484 0.29935 0.0
C160 C 0.13575 0.99039 0.3785 0.0
C161 C 0.10192 0.95504 0.39454 0.0
N162 N 0.07684 0.87298 0.3929 0.0
N163 N 0.21106 0.00803 0.33243 0.0
C164 C 0.10374 0.90889 0.36666 0.0
C165 C 0.17256 0.97839 0.33657 0.0
N166 N 0.12773 0.86083 0.27034 0.0
N167 N 0.13097 0.03612 0.39886 0.0
H168 H 0.23865 0.00015 0.30225 0.0
H169 H 0.21812 0.03797 0.36466 0.0
H170 H 0.10416 0.04686 0.4285 0.0
H171 H 0.15106 0.06446 0.38094 0.0
H172 H 0.09866 0.83755 0.27096 0.0
H173 H 0.14886 0.85322 0.22954 0.0
H174 H 0.0802 0.83753 0.38036 0.0
H175 H 0.05479 0.87781 0.43365 0.0
C176 C 0.66876 0.65128 0.8626 0.0
C177 C 0.65891 0.65692 0.7805 0.0
C178 C 0.60083 0.59143 0.77694 0.0
C179 C 0.60153 0.59462 0.85658 0.0
N180 N 0.63768 0.62574 0.97806 0.0
N181 N 0.6094 0.63534 0.65924 0.0
C182 C 0.63679 0.6232 0.9008 0.0
C183 C 0.62423 0.62697 0.73715 0.0
N184 N 0.70841 0.67301 0.90364 0.0
N185 N 0.57597 0.55531 0.73914 0.0
H186 H 0.62277 0.66281 0.62721 0.0
H187 H 0.57985 0.61791 0.62762 0.0
H188 H 0.55931 0.52872 0.76865 0.0
H189 H 0.57688 0.54902 0.68178 0.0
H190 H 0.71969 0.66741 0.96319 0.0
H191 H 0.73276 0.69305 0.87681 0.0
H192 H 0.65833 0.6504 0.01179 0.0
H193 H 0.61594 0.60419 0.00771 0.0
C194 C 0.91395 0.18562 0.28399 0.0
C195 C 0.89487 0.16668 0.21165 0.0
C196 C 0.91563 0.08618 0.26767 0.0
C197 C 0.928 0.10415 0.34228 0.0
N198 N 0.93672 0.17086 0.42326 0.0
N199 N 0.87023 0.09804 0.13755 0.0
C200 C 0.92696 0.15397 0.35105 0.0
C201 C 0.89321 0.11671 0.20454 0.0
N202 N 0.91978 0.23368 0.28843 0.0
N203 N 0.92797 0.04041 0.25609 0.0
H204 H 0.85433 0.11874 0.08846 0.0
H205 H 0.86309 0.06182 0.13303 0.0
H206 H 0.94769 0.01765 0.2997 0.0
H207 H 0.92412 0.02695 0.20153 0.0
H208 H 0.93842 0.24936 0.33733 0.0
H209 H 0.90841 0.25783 0.24127 0.0
H210 H 0.93132 0.20622 0.4344 0.0
H211 H 0.94785 0.14873 0.47289 0.0
C212 C 0.34709 0.38896 0.73589 0.0
C213 C 0.35101 0.40271 0.65865 0.0
C214 C 0.41516 0.45911 0.7056 0.0
C215 C 0.40477 0.45202 0.78093 0.0
N216 N 0.362 0.40973 0.87028 0.0
N217 N 0.38674 0.45297 0.5687 0.0
C218 C 0.37169 0.41611 0.79732 0.0
C219 C 0.38495 0.43795 0.6432 0.0
N220 N 0.31989 0.35015 0.75008 0.0
N221 N 0.4545 0.48588 0.69414 0.0
H222 H 0.36617 0.43767 0.52096 0.0
H223 H 0.40598 0.48286 0.55414 0.0
H224 H 0.47782 0.50118 0.73934 0.0
H225 H 0.46693 0.48877 0.64197 0.0
H226 H 0.31887 0.33551 0.80529 0.0
H227 H 0.30127 0.33025 0.70584 0.0
H228 H 0.33458 0.38769 0.88454 0.0
H229 H 0.38011 0.42841 0.9164 0.0
C230 C 0.66423 0.57778 0.33362 0.0
C231 C 0.63705 0.60457 0.37723 0.0
C232 C 0.56584 0.60641 0.27158 0.0
C233 C 0.59187 0.57676 0.23091 0.0
N234 N 0.66932 0.54985 0.20761 0.0
N235 N 0.5703 0.65949 0.37609 0.0
C236 C 0.64261 0.56839 0.25659 0.0
C237 C 0.59055 0.62411 0.34201 0.0
N238 N 0.70857 0.55797 0.3671 0.0
N239 N 0.51694 0.61475 0.24607 0.0
H240 H 0.5884 0.6739 0.42677 0.0
H241 H 0.53832 0.6778 0.35008 0.0
H242 H 0.49807 0.60276 0.19406 0.0
H243 H 0.49473 0.63147 0.27814 0.0
H244 H 0.72703 0.53364 0.34029 0.0
H245 H 0.72557 0.56301 0.4238 0.0
H246 H 0.7073 0.54617 0.22037 0.0
H247 H 0.65348 0.54281 0.1509 0.0
C248 C 0.86331 0.15983 0.74052 0.0
C249 C 0.86461 0.13749 0.81481 0.0
C250 C 0.90577 0.06797 0.7796 0.0
C251 C 0.91483 0.09489 0.71344 0.0
N252 N 0.89367 0.16033 0.61968 0.0
N253 N 0.85834 0.06124 0.88174 0.0
C254 C 0.88969 0.13855 0.68931 0.0
C255 C 0.87636 0.08832 0.82698 0.0
N256 N 0.83637 0.20069 0.71986 0.0
N257 N 0.92812 0.02466 0.79996 0.0
H258 H 0.83245 0.0747 0.9109 0.0
H259 H 0.86358 0.02449 0.89023 0.0
H260 H 0.94853 0.00832 0.76467 0.0
H261 H 0.92797 0.00604 0.8527 0.0
H262 H 0.83226 0.21875 0.66589 0.0
H263 H 0.81456 0.2142 0.75595 0.0
H264 H 0.87991 0.19414 0.60014 0.0
H265 H 0.91119 0.14357 0.58102 0.0
C266 C 0.33135 0.39161 0.20842 0.0
C267 C 0.31834 0.42733 0.25437 0.0
C268 C 0.36726 0.48601 0.19529 0.0
C269 C 0.38297 0.44937 0.15293 0.0
N270 N 0.36921 0.37253 0.10041 0.0
N271 N 0.31115 0.51031 0.27651 0.0
C272 C 0.36104 0.40387 0.15307 0.0
C273 C 0.33176 0.47531 0.24204 0.0
N274 N 0.31745 0.34563 0.22076 0.0
N275 N 0.38892 0.5297 0.19597 0.0
H276 H 0.28543 0.50301 0.31163 0.0
H277 H 0.31588 0.54654 0.26476 0.0
H278 H 0.41433 0.53962 0.16172 0.0
H279 H 0.38365 0.55564 0.23344 0.0
H280 H 0.33062 0.31677 0.19605 0.0
H281 H 0.29402 0.33611 0.25877 0.0
H282 H 0.35156 0.34 0.09318 0.0
H283 H 0.39046 0.38132 0.05883 0.0
C284 C 0.11078 0.91044 0.93509 0.0
C285 C 0.15232 0.88367 0.92598 0.0
C286 C 0.1362 0.90578 0.78679 0.0
C287 C 0.10022 0.93881 0.79878 0.0
N288 N 0.04988 0.97106 0.88092 0.0
N289 N 0.20336 0.85186 0.84487 0.0
C290 C 0.0859 0.93995 0.87177 0.0
C291 C 0.16418 0.87952 0.85189 0.0
N292 N 0.09574 0.90808 0.00472 0.0
N293 N 0.14401 0.90041 0.71356 0.0
H294 H 0.22284 0.83074 0.89112 0.0
H295 H 0.21755 0.85062 0.79455 0.0
H296 H 0.12446 0.91979 0.6654 0.0
H297 H 0.1671 0.87465 0.69935 0.0
H298 H 0.06334 0.92322 0.01384 0.0
H299 H 0.11397 0.88788 0.053 0.0
H300 H 0.04159 0.97869 0.93402 0.0
H301 H 0.02897 0.99095 0.83462 0.0
loop_
_geom_bond_atom_site_label_1
_geom_bond_atom_site_label_2
_geom_bond_distance
_geom_bond_site_symmetry_2
_ccdc_geom_bond_type
O0 Cd1 2.300 1_556 S
O0 C7 1.275 . S
Cd1 O0 2.300 1_554 S
Cd1 O9 2.381 . S
Cd1 O10 2.378 . S
O2 Cd3 2.385 . S
O2 C7 1.255 1_554 S
Cd3 O2 2.385 . S
Cd3 O4 2.317 . S
O4 Cd3 2.317 . S
O4 C5 1.232 . S
C5 O4 1.232 . S
C5 O6 1.218 . S
O6 C5 1.218 . S
C7 O0 1.275 . S
C7 O2 1.255 1_556 S
C8 O9 1.258 . S
C8 O10 1.256 . S
O9 Cd1 2.381 . S
O9 C8 1.258 . S
O10 Cd1 2.378 . S
O10 C8 1.256 . S
O11 Cd12 2.300 . S
O11 C18 1.275 . S
Cd12 O11 2.300 . S
Cd12 O20 2.381 . S
Cd12 O21 2.378 . S
O13 Cd14 2.385 . S
O13 C18 1.255 . S
Cd14 O13 2.385 . S
Cd14 O15 2.317 . S
O15 Cd14 2.317 . S
O15 C16 1.232 . S
C16 O15 1.232 . S
C16 O17 1.218 . S
O17 C16 1.218 . S
C18 O11 1.275 . S
C18 O13 1.255 . S
C19 O20 1.258 . S
C19 O21 1.256 . S
O20 Cd12 2.381 . S
O20 C19 1.258 . S
O21 Cd12 2.378 . S
O21 C19 1.256 . S
O22 Cd23 2.300 . S
O22 C29 1.275 . S
Cd23 O22 2.300 . S
Cd23 O31 2.381 . S
Cd23 O32 2.378 1_554 S
O24 Cd25 2.385 . S
O24 C29 1.255 . S
Cd25 O24 2.385 . S
Cd25 O26 2.317 1_554 S
O26 Cd25 2.317 1_556 S
O26 C27 1.232 . S
C27 O26 1.232 . S
C27 O28 1.218 . S
O28 C27 1.218 . S
C29 O22 1.275 . S
C29 O24 1.255 . S
C30 O31 1.258 . S
C30 O32 1.256 1_554 S
O31 Cd23 2.381 . S
O31 C30 1.258 . S
O32 Cd23 2.378 1_556 S
O32 C30 1.256 1_556 S
O33 Cd34 2.300 . S
O33 C40 1.275 . S
Cd34 O33 2.300 . S
Cd34 O42 2.381 . S
Cd34 O43 2.378 . S
O35 Cd36 2.385 . S
O35 C40 1.255 . S
Cd36 O35 2.385 . S
Cd36 O37 2.317 . S
O37 Cd36 2.317 . S
O37 C38 1.232 . S
C38 O37 1.232 . S
C38 O39 1.218 . S
O39 C38 1.218 . S
C40 O33 1.275 . S
C40 O35 1.255 . S
C41 O42 1.258 . S
C41 O43 1.256 . S
O42 Cd34 2.381 . S
O42 C41 1.258 . S
O43 Cd34 2.378 . S
O43 C41 1.256 . S
O44 Mg45 1.990 . S
O44 C58 1.253 1_455 S
Mg45 O44 1.990 . S
Mg45 O48 2.180 . S
Mg45 O49 2.117 . S
Mg45 O63 2.030 . S
O46 Mg47 2.072 1_655 S
O46 C58 1.260 . S
Mg47 O46 2.072 1_455 S
Mg47 O48 2.099 . S
Mg47 O50 2.079 1_545 S
Mg47 O51 2.072 1_455 S
Mg47 O53 2.099 1_445 S
Mg47 O64 2.079 1_545 S
O48 Mg45 2.180 . S
O48 Mg47 2.099 . S
O48 C59 1.279 . S
O49 Mg45 2.117 . S
O49 C59 1.250 . S
O50 Mg47 2.079 1_565 S
O50 C60 1.264 . S
O51 Mg47 2.072 1_655 S
O51 C61 1.260 . S
Mg52 O53 2.180 . S
Mg52 O54 2.030 1_655 S
Mg52 O55 1.990 1_565 S
Mg52 O56 2.117 . S
O53 Mg47 2.099 1_665 S
O53 Mg52 2.180 . S
O53 C62 1.279 . S
O54 Mg52 2.030 1_455 S
O54 C60 1.248 . S
O55 Mg52 1.990 1_545 S
O55 C61 1.253 . S
O56 Mg52 2.117 . S
O56 C62 1.250 . S
C57 O63 1.248 1_565 S
C57 O64 1.264 . S
C58 O44 1.253 1_655 S
C58 O46 1.260 . S
C59 O48 1.279 . S
C59 O49 1.250 . S
C60 O50 1.264 . S
C60 O54 1.248 . S
C61 O51 1.260 . S
C61 O55 1.253 . S
C62 O53 1.279 . S
C62 O56 1.250 . S
O63 Mg45 2.030 . S
O63 C57 1.248 1_545 S
O64 Mg47 2.079 1_565 S
O64 C57 1.264 . S
O65 Mg66 1.990 . S
O65 C79 1.253 . S
Mg66 O65 1.990 . S
Mg66 O69 2.180 . S
Mg66 O70 2.117 . S
Mg66 O84 2.030 . S
O67 Mg68 2.072 . S
O67 C79 1.260 . S
Mg68 O67 2.072 . S
Mg68 O69 2.099 . S
Mg68 O71 2.079 1_554 S
Mg68 O72 2.072 1_554 S
Mg68 O74 2.099 1_554 S
Mg68 O85 2.079 . S
O69 Mg66 2.180 . S
O69 Mg68 2.099 . S
O69 C80 1.279 . S
O70 Mg66 2.117 . S
O70 C80 1.250 . S
O71 Mg68 2.079 1_556 S
O71 C81 1.264 . S
O72 Mg68 2.072 1_556 S
O72 C82 1.260 . S
Mg73 O74 2.180 . S
Mg73 O75 2.030 . S
Mg73 O76 1.990 . S
Mg73 O77 2.117 . S
O74 Mg68 2.099 1_556 S
O74 Mg73 2.180 . S
O74 C83 1.279 . S
O75 Mg73 2.030 . S
O75 C81 1.248 . S
O76 Mg73 1.990 . S
O76 C82 1.253 . S
O77 Mg73 2.117 . S
O77 C83 1.250 . S
C78 O84 1.248 . S
C78 O85 1.264 . S
C79 O65 1.253 . S
C79 O67 1.260 . S
C80 O69 1.279 . S
C80 O70 1.250 . S
C81 O71 1.264 . S
C81 O75 1.248 . S
C82 O72 1.260 . S
C82 O76 1.253 . S
C83 O74 1.279 . S
C83 O77 1.250 . S
O84 Mg66 2.030 . S
O84 C78 1.248 . S
O85 Mg68 2.079 . S
O85 C78 1.264 . S
C86 C87 1.363 . S
C86 C92 1.379 . S
C86 N94 1.356 . S
C87 C86 1.363 . S
C87 C93 1.363 . S
C88 C89 1.363 . S
C88 C93 1.379 . S
C88 N95 1.356 . S
C89 C88 1.363 . S
C89 C92 1.363 . S
N90 C92 1.356 . S
N90 H102 0.984 . S
N90 H103 0.985 . S
N91 C93 1.356 . S
N91 H96 0.984 . S
N91 H97 0.985 . S
C92 C86 1.379 . S
C92 C89 1.363 . S
C92 N90 1.356 . S
C93 C87 1.363 . S
C93 C88 1.379 . S
C93 N91 1.356 . S
N94 C86 1.356 . S
N94 H100 0.984 . S
N94 H101 0.984 . S
N95 C88 1.356 . S
N95 H98 0.984 . S
N95 H99 0.985 . S
H96 N91 0.984 . S
H97 N91 0.985 . S
H98 N95 0.984 . S
H99 N95 0.985 . S
H100 N94 0.984 . S
H101 N94 0.984 . S
H102 N90 0.984 . S
H103 N90 0.985 . S
C104 C105 1.363 . S
C104 C110 1.379 . S
C104 N112 1.356 . S
C105 C104 1.363 . S
C105 C111 1.363 . S
C106 C107 1.363 1_556 S
C106 C111 1.379 1_556 S
C106 N113 1.356 . S
C107 C106 1.363 1_554 S
C107 C110 1.363 . S
N108 C110 1.356 . S
N108 H120 0.984 . S
N108 H121 0.985 . S
N109 C111 1.356 1_556 S
N109 H114 0.984 . S
N109 H115 0.985 . S
C110 C104 1.379 . S
C110 C107 1.363 . S
C110 N108 1.356 . S
C111 C105 1.363 . S
C111 C106 1.379 1_554 S
C111 N109 1.356 1_554 S
N112 C104 1.356 . S
N112 H118 0.984 . S
N112 H119 0.984 . S
N113 C106 1.356 . S
N113 H116 0.984 . S
N113 H117 0.985 . S
H114 N109 0.984 . S
H115 N109 0.985 . S
H116 N113 0.984 . S
H117 N113 0.985 . S
H118 N112 0.984 . S
H119 N112 0.984 . S
H120 N108 0.984 . S
H121 N108 0.985 . S
C122 C123 1.363 . S
C122 C128 1.379 . S
C122 N130 1.356 . S
C123 C122 1.363 . S
C123 C129 1.363 . S
C124 C125 1.363 . S
C124 C129 1.379 . S
C124 N131 1.356 . S
C125 C124 1.363 . S
C125 C128 1.363 . S
N126 C128 1.356 . S
N126 H138 0.984 . S
N126 H139 0.985 . S
N127 C129 1.356 . S
N127 H132 0.984 . S
N127 H133 0.985 . S
C128 C122 1.379 . S
C128 C125 1.363 . S
C128 N126 1.356 . S
C129 C123 1.363 . S
C129 C124 1.379 . S
C129 N127 1.356 . S
N130 C122 1.356 . S
N130 H136 0.984 . S
N130 H137 0.984 . S
N131 C124 1.356 . S
N131 H134 0.984 . S
N131 H135 0.985 . S
H132 N127 0.984 . S
H133 N127 0.985 . S
H134 N131 0.984 . S
H135 N131 0.985 . S
H136 N130 0.984 . S
H137 N130 0.984 . S
H138 N126 0.984 . S
H139 N126 0.985 . S
C140 C141 1.363 . S
C140 C146 1.379 . S
C140 N148 1.356 . S
C141 C140 1.363 . S
C141 C147 1.363 1_554 S
C142 C143 1.363 1_556 S
C142 C147 1.379 . S
C142 N149 1.356 . S
C143 C142 1.363 1_554 S
C143 C146 1.363 . S
N144 C146 1.356 . S
N144 H156 0.984 . S
N144 H157 0.985 . S
N145 C147 1.356 . S
N145 H150 0.984 . S
N145 H151 0.985 . S
C146 C140 1.379 . S
C146 C143 1.363 . S
C146 N144 1.356 . S
C147 C141 1.363 1_556 S
C147 C142 1.379 . S
C147 N145 1.356 . S
N148 C140 1.356 . S
N148 H154 0.984 . S
N148 H155 0.984 . S
N149 C142 1.356 . S
N149 H152 0.984 . S
N149 H153 0.985 . S
H150 N145 0.984 . S
H151 N145 0.985 . S
H152 N149 0.984 . S
H153 N149 0.985 . S
H154 N148 0.984 . S
H155 N148 0.984 . S
H156 N144 0.984 . S
H157 N144 0.985 . S
C158 C159 1.363 . S
C158 C164 1.379 . S
C158 N166 1.356 . S
C159 C158 1.363 . S
C159 C165 1.363 . S
C160 C161 1.363 . S
C160 C165 1.379 . S
C160 N167 1.356 1_565 S
C161 C160 1.363 . S
C161 C164 1.363 . S
N162 C164 1.356 . S
N162 H174 0.984 . S
N162 H175 0.985 . S
N163 C165 1.356 . S
N163 H168 0.984 . S
N163 H169 0.985 1_565 S
C164 C158 1.379 . S
C164 C161 1.363 . S
C164 N162 1.356 . S
C165 C159 1.363 . S
C165 C160 1.379 . S
C165 N163 1.356 . S
N166 C158 1.356 . S
N166 H172 0.984 . S
N166 H173 0.984 . S
N167 C160 1.356 1_545 S
N167 H170 0.984 . S
N167 H171 0.985 . S
H168 N163 0.984 . S
H169 N163 0.985 1_545 S
H170 N167 0.984 . S
H171 N167 0.985 . S
H172 N166 0.984 . S
H173 N166 0.984 . S
H174 N162 0.984 . S
H175 N162 0.985 . S
C176 C177 1.363 . S
C176 C182 1.379 . S
C176 N184 1.356 . S
C177 C176 1.363 . S
C177 C183 1.363 . S
C178 C179 1.363 . S
C178 C183 1.379 . S
C178 N185 1.356 . S
C179 C178 1.363 . S
C179 C182 1.363 . S
N180 C182 1.356 . S
N180 H192 0.984 . S
N180 H193 0.985 . S
N181 C183 1.356 . S
N181 H186 0.984 . S
N181 H187 0.985 . S
C182 C176 1.379 . S
C182 C179 1.363 . S
C182 N180 1.356 . S
C183 C177 1.363 . S
C183 C178 1.379 . S
C183 N181 1.356 . S
N184 C176 1.356 . S
N184 H190 0.984 . S
N184 H191 0.984 . S
N185 C178 1.356 . S
N185 H188 0.984 . S
N185 H189 0.985 . S
H186 N181 0.984 . S
H187 N181 0.985 . S
H188 N185 0.984 . S
H189 N185 0.985 . S
H190 N184 0.984 . S
H191 N184 0.984 . S
H192 N180 0.984 . S
H193 N180 0.985 . S
C194 C195 1.363 . S
C194 C200 1.379 . S
C194 N202 1.356 . S
C195 C194 1.363 . S
C195 C201 1.363 . S
C196 C197 1.363 . S
C196 C201 1.379 . S
C196 N203 1.356 . S
C197 C196 1.363 . S
C197 C200 1.363 . S
N198 C200 1.356 . S
N198 H210 0.984 . S
N198 H211 0.985 . S
N199 C201 1.356 . S
N199 H204 0.984 . S
N199 H205 0.985 . S
C200 C194 1.379 . S
C200 C197 1.363 . S
C200 N198 1.356 . S
C201 C195 1.363 . S
C201 C196 1.379 . S
C201 N199 1.356 . S
N202 C194 1.356 . S
N202 H208 0.984 . S
N202 H209 0.984 . S
N203 C196 1.356 . S
N203 H206 0.984 . S
N203 H207 0.985 1_545 S
H204 N199 0.984 . S
H205 N199 0.985 . S
H206 N203 0.984 . S
H207 N203 0.985 1_565 S
H208 N202 0.984 . S
H209 N202 0.984 . S
H210 N198 0.984 . S
H211 N198 0.985 . S
C212 C213 1.363 . S
C212 C218 1.379 . S
C212 N220 1.356 . S
C213 C212 1.363 . S
C213 C219 1.363 . S
C214 C215 1.363 . S
C214 C219 1.379 . S
C214 N221 1.356 . S
C215 C214 1.363 . S
C215 C218 1.363 . S
N216 C218 1.356 . S
N216 H228 0.984 . S
N216 H229 0.985 . S
N217 C219 1.356 . S
N217 H222 0.984 . S
N217 H223 0.985 . S
C218 C212 1.379 . S
C218 C215 1.363 . S
C218 N216 1.356 . S
C219 C213 1.363 . S
C219 C214 1.379 . S
C219 N217 1.356 . S
N220 C212 1.356 . S
N220 H226 0.984 . S
N220 H227 0.984 . S
N221 C214 1.356 . S
N221 H224 0.984 . S
N221 H225 0.985 . S
H222 N217 0.984 . S
H223 N217 0.985 . S
H224 N221 0.984 . S
H225 N221 0.985 . S
H226 N220 0.984 . S
H227 N220 0.984 . S
H228 N216 0.984 . S
H229 N216 0.985 . S
C230 C231 1.363 . S
C230 C236 1.379 . S
C230 N238 1.356 . S
C231 C230 1.363 . S
C231 C237 1.363 . S
C232 C233 1.363 . S
C232 C237 1.379 . S
C232 N239 1.356 . S
C233 C232 1.363 . S
C233 C236 1.363 . S
N234 C236 1.356 . S
N234 H246 0.984 . S
N234 H247 0.985 . S
N235 C237 1.356 . S
N235 H240 0.984 . S
N235 H241 0.985 . S
C236 C230 1.379 . S
C236 C233 1.363 . S
C236 N234 1.356 . S
C237 C231 1.363 . S
C237 C232 1.379 . S
C237 N235 1.356 . S
N238 C230 1.356 . S
N238 H244 0.984 . S
N238 H245 0.984 . S
N239 C232 1.356 . S
N239 H242 0.984 . S
N239 H243 0.985 . S
H240 N235 0.984 . S
H241 N235 0.985 . S
H242 N239 0.984 . S
H243 N239 0.985 . S
H244 N238 0.984 . S
H245 N238 0.984 . S
H246 N234 0.984 . S
H247 N234 0.985 . S
C248 C249 1.363 . S
C248 C254 1.379 . S
C248 N256 1.356 . S
C249 C248 1.363 . S
C249 C255 1.363 . S
C250 C251 1.363 . S
C250 C255 1.379 . S
C250 N257 1.356 . S
C251 C250 1.363 . S
C251 C254 1.363 . S
N252 C254 1.356 . S
N252 H264 0.984 . S
N252 H265 0.985 . S
N253 C255 1.356 . S
N253 H258 0.984 . S
N253 H259 0.985 . S
C254 C248 1.379 . S
C254 C251 1.363 . S
C254 N252 1.356 . S
C255 C249 1.363 . S
C255 C250 1.379 . S
C255 N253 1.356 . S
N256 C248 1.356 . S
N256 H262 0.984 . S
N256 H263 0.984 . S
N257 C250 1.356 . S
N257 H260 0.984 . S
N257 H261 0.985 . S
H258 N253 0.984 . S
H259 N253 0.985 . S
H260 N257 0.984 . S
H261 N257 0.985 . S
H262 N256 0.984 . S
H263 N256 0.984 . S
H264 N252 0.984 . S
H265 N252 0.985 . S
C266 C267 1.363 . S
C266 C272 1.379 . S
C266 N274 1.356 . S
C267 C266 1.363 . S
C267 C273 1.363 . S
C268 C269 1.363 . S
C268 C273 1.379 . S
C268 N275 1.356 . S
C269 C268 1.363 . S
C269 C272 1.363 . S
N270 C272 1.356 . S
N270 H282 0.984 . S
N270 H283 0.985 . S
N271 C273 1.356 . S
N271 H276 0.984 . S
N271 H277 0.985 . S
C272 C266 1.379 . S
C272 C269 1.363 . S
C272 N270 1.356 . S
C273 C267 1.363 . S
C273 C268 1.379 . S
C273 N271 1.356 . S
N274 C266 1.356 . S
N274 H280 0.984 . S
N274 H281 0.984 . S
N275 C268 1.356 . S
N275 H278 0.984 . S
N275 H279 0.985 . S
H276 N271 0.984 . S
H277 N271 0.985 . S
H278 N275 0.984 . S
H279 N275 0.985 . S
H280 N274 0.984 . S
H281 N274 0.984 . S
H282 N270 0.984 . S
H283 N270 0.985 . S
C284 C285 1.363 . S
C284 C290 1.379 . S
C284 N292 1.356 . S
C285 C284 1.363 . S
C285 C291 1.363 . S
C286 C287 1.363 . S
C286 C291 1.379 . S
C286 N293 1.356 . S
C287 C286 1.363 . S
C287 C290 1.363 . S
N288 C290 1.356 . S
N288 H300 0.984 1_565 S
N288 H301 0.983 1_565 S
N289 C291 1.356 . S
N289 H294 0.984 . S
N289 H295 0.985 . S
C290 C284 1.379 . S
C290 C287 1.363 . S
C290 N288 1.356 . S
C291 C285 1.363 . S
C291 C286 1.379 . S
C291 N289 1.356 . S
N292 C284 1.356 . S
N292 H298 0.984 1_556 S
N292 H299 0.984 1_556 S
N293 C286 1.356 . S
N293 H296 0.984 . S
N293 H297 0.985 . S
H294 N289 0.984 . S
H295 N289 0.985 . S
H296 N293 0.984 . S
H297 N293 0.985 . S
H298 N292 0.984 1_554 S
H299 N292 0.984 1_554 S
H300 N288 0.984 1_545 S
H301 N288 0.983 1_545 S
C89 C59 1.259 . S
C87 C41 1.456 . S
C105 C8 1.462 . S
C107 C83 1.323 1_554 S
C123 C19 1.625 . S
C125 C62 1.463 . S
C141 C30 1.558 . S
C143 C80 1.322 . S
C161 C60 1.500 . S
C159 C5 1.375 . S
C179 C82 1.618 . S
C177 C18 1.657 . S
C195 C29 1.560 . S
C197 C61 1.547 . S
C213 C40 1.560 . S
C215 C81 1.533 . S
C233 C79 1.421 . S
C231 C16 1.314 . S
C251 C58 1.427 . S
C249 C27 1.306 . S
C269 C78 1.353 . S
C267 C38 1.256 . S
C285 C7 1.392 . S
C287 C57 1.359 . S
