# Generated by pormake.
# Topology nia, (6,6)-cn, num edge types: 1
# Building blocks:
#     Node 0, Type 0, BuildingBlock: BETDIP_clean_sbu_0, # of connection points: 6
#     Node 1, Type 0, BuildingBlock: BETDIP_clean_sbu_0, # of connection points: 6
#     Node 2, Type 1, BuildingBlock: MIDCAF_clean_sbu_0, # of connection points: 6
#     Node 3, Type 1, BuildingBlock: MIDCAF_clean_sbu_0, # of connection points: 6
#     Edge 4, Type (0, 1), BuildingBlock: UVAHIK_clean_linker_0, # of connection points: 2
#     Edge 5, Type (0, 1), BuildingBlock: UVAHIK_clean_linker_0, # of connection points: 2
#     Edge 6, Type (0, 1), BuildingBlock: UVAHIK_clean_linker_0, # of connection points: 2
#     Edge 7, Type (0, 1), BuildingBlock: UVAHIK_clean_linker_0, # of connection points: 2
#     Edge 8, Type (0, 1), BuildingBlock: UVAHIK_clean_linker_0, # of connection points: 2
#     Edge 9, Type (0, 1), BuildingBlock: UVAHIK_clean_linker_0, # of connection points: 2
#     Edge 10, Type (0, 1), BuildingBlock: UVAHIK_clean_linker_0, # of connection points: 2
#     Edge 11, Type (0, 1), BuildingBlock: UVAHIK_clean_linker_0, # of connection points: 2
#     Edge 12, Type (0, 1), BuildingBlock: UVAHIK_clean_linker_0, # of connection points: 2
#     Edge 13, Type (0, 1), BuildingBlock: UVAHIK_clean_linker_0, # of connection points: 2
#     Edge 14, Type (0, 1), BuildingBlock: UVAHIK_clean_linker_0, # of connection points: 2
#     Edge 15, Type (0, 1), BuildingBlock: UVAHIK_clean_linker_0, # of connection points: 2
# Relax obj value: 0.278
# Max RMSD: 0.262
# Mean RMSD: 0.234
data_MOF--net-nia--node1-BETDIP_clean_sbu_0--node2-MIDCAF_clean_sbu_0--edge1-UVAHIK_clean_linker_0
_symmetry_space_group_name_H-M    P1
_symmetry_Int_Tables_number       1
_symmetry_cell_setting            triclinic
loop_
_symmetry_equiv_pos_as_xyz
'x, y, z'
_cell_length_a     34.794708
_cell_length_b     32.052721
_cell_length_c     42.951429
_cell_angle_alpha  100.4469
_cell_angle_beta   75.219043
_cell_angle_gamma 128.63493
loop_
_atom_site_label
_atom_site_type_symbol
_atom_site_fract_x
_atom_site_fract_y
_atom_site_fract_z
_atom_type_partial_charge
Tb0 Tb 0.98935 0.02688 0.99828 0.0
Tb1 Tb 0.03193 0.99415 0.03561 0.0
C2 C 0.95401 0.06143 0.97743 0.0
C3 C 0.93315 0.08181 0.96514 0.0
C4 C 0.89994 0.08972 0.98603 0.0
C5 C 0.88268 0.1127 0.97495 0.0
C6 C 0.89781 0.12744 0.94261 0.0
C7 C 0.9305 0.11833 0.92165 0.0
C8 C 0.94836 0.09618 0.93292 0.0
C9 C 0.07532 0.04509 0.97053 0.0
C10 C 0.04307 0.09818 0.05628 0.0
C11 C 0.08733 0.98344 0.05488 0.0
C12 C 0.08483 0.94609 0.07259 0.0
C13 C 0.1001 0.91544 0.05581 0.0
C14 C 0.1062 0.88698 0.07251 0.0
C15 C 0.09758 0.88894 0.10639 0.0
C16 C 0.07972 0.91731 0.12321 0.0
C17 C 0.07348 0.94569 0.10649 0.0
C18 C 0.93769 0.95388 0.06312 0.0
C19 C 0.97173 0.91804 0.98 0.0
O20 O 0.92563 0.01436 0.99042 0.0
O21 O 0.00222 0.08924 0.97645 0.0
O22 O 0.06188 0.0508 1.00003 0.0
O23 O 0.04112 0.03116 0.95533 0.0
O24 O 0.00609 0.07992 0.04139 0.0
O25 O 0.06581 0.07609 0.05127 0.0
O26 O 0.07695 0.96892 0.02566 0.0
O27 O 0.06965 0.00852 0.07151 0.0
O28 O 0.96381 0.98193 0.03874 0.0
O29 O 0.96528 0.94675 0.073 0.0
O30 O 0.00531 0.93302 0.99729 0.0
O31 O 0.95472 0.94528 0.97981 0.0
H32 H 0.88839 0.07941 0.01113 0.0
H33 H 0.85828 0.11986 0.99193 0.0
H34 H 0.94221 0.12809 0.89647 0.0
H35 H 0.97404 0.09025 0.91648 0.0
H36 H 0.10931 0.91514 0.02974 0.0
H37 H 0.11912 0.86466 0.05886 0.0
H38 H 0.07303 0.91989 0.14929 0.0
H39 H 0.06189 0.96916 0.12023 0.0
Tb40 Tb 0.03594 0.02749 0.54492 0.0
Tb41 Tb 0.96736 0.97884 0.49404 0.0
C42 C 0.0782 0.03795 0.58804 0.0
C43 C 0.1297 0.05821 0.58818 0.0
C44 C 0.13681 0.02745 0.60184 0.0
C45 C 0.18503 0.04403 0.60071 0.0
C46 C 0.22725 0.092 0.58608 0.0
C47 C 0.22017 0.12316 0.57265 0.0
C48 C 0.17184 0.10625 0.57347 0.0
C49 C 0.07518 0.09771 0.49962 0.0
C50 C 0.05479 0.97074 0.48007 0.0
C51 C 0.9132 0.9566 0.45566 0.0
C52 C 0.88709 0.97533 0.44858 0.0
C53 C 0.91316 0.02738 0.43825 0.0
C54 C 0.88757 0.0427 0.42961 0.0
C55 C 0.83551 0.00633 0.43133 0.0
C56 C 0.8094 0.95481 0.44257 0.0
C57 C 0.83497 0.93944 0.45099 0.0
C58 C 0.947 0.91209 0.5345 0.0
C59 C 0.95387 0.04379 0.55566 0.0
O60 O 0.05216 0.99316 0.57147 0.0
O61 O 0.07223 0.07298 0.58369 0.0
O62 O 0.03563 0.05077 0.50212 0.0
O63 O 0.09603 0.10639 0.52342 0.0
O64 O 0.06056 0.98606 0.51039 0.0
O65 O 0.02498 0.97181 0.4668 0.0
O66 O 0.96237 0.98817 0.44863 0.0
O67 O 0.89557 0.93353 0.48336 0.0
O68 O 0.96084 0.95907 0.54135 0.0
O69 O 0.94183 0.9006 0.50469 0.0
O70 O 0.94813 0.02753 0.5254 0.0
O71 O 0.9815 0.04054 0.56985 0.0
H72 H 0.10491 0.99021 0.61316 0.0
H73 H 0.18933 0.01956 0.61163 0.0
H74 H 0.252 0.16016 0.56104 0.0
H75 H 0.16752 0.13051 0.56235 0.0
H76 H 0.95337 0.05588 0.43608 0.0
H77 H 0.90855 0.08259 0.42099 0.0
H78 H 0.7694 0.92549 0.44351 0.0
H79 H 0.81411 0.89898 0.45867 0.0
Zn80 Zn 0.33736 0.64882 0.22621 0.0
Zn81 Zn 0.32307 0.67032 0.34665 0.0
Zn82 Zn 0.33074 0.66379 0.28669 0.0
C83 C 0.42443 0.74319 0.32221 0.0
C84 C 0.28365 0.56713 0.3359 0.0
O85 O 0.29266 0.69136 0.2727 0.0
O86 O 0.30589 0.67954 0.21981 0.0
C87 C 0.43464 0.71532 0.23238 0.0
O88 O 0.40865 0.72279 0.29535 0.0
O89 O 0.39379 0.72687 0.3485 0.0
O90 O 0.29617 0.60004 0.35938 0.0
O91 O 0.2915 0.58286 0.30773 0.0
O92 O 0.40894 0.6906 0.21052 0.0
O93 O 0.41274 0.71081 0.26221 0.0
O94 O 0.28781 0.57659 0.27549 0.0
O95 O 0.29877 0.57121 0.22223 0.0
C96 C 0.27973 0.54873 0.24888 0.0
O97 O 0.29159 0.70086 0.30624 0.0
O98 O 0.27997 0.69284 0.35841 0.0
C99 C 0.28832 0.69472 0.24451 0.0
C100 C 0.27431 0.7073 0.3356 0.0
Zn101 Zn 0.6699 0.38793 0.80499 0.0
Zn102 Zn 0.75508 0.39282 0.71072 0.0
Zn103 Zn 0.68582 0.35604 0.75351 0.0
C104 C 0.75491 0.47268 0.72144 0.0
C105 C 0.67022 0.31052 0.68557 0.0
O106 O 0.72843 0.35549 0.78175 0.0
O107 O 0.67203 0.33547 0.82537 0.0
C108 C 0.76579 0.46066 0.79103 0.0
O109 O 0.71062 0.43204 0.73333 0.0
O110 O 0.79055 0.46961 0.7155 0.0
O111 O 0.70923 0.3565 0.6768 0.0
O112 O 0.66177 0.29747 0.71433 0.0
O113 O 0.7302 0.46237 0.80494 0.0
O114 O 0.75681 0.41986 0.77293 0.0
O115 O 0.60493 0.31225 0.77834 0.0
O116 O 0.60561 0.37442 0.81 0.0
C117 C 0.58103 0.32806 0.79749 0.0
O118 O 0.70106 0.29751 0.73042 0.0
O119 O 0.78282 0.35818 0.71916 0.0
C120 C 0.70831 0.33565 0.80973 0.0
C121 C 0.7452 0.30963 0.72241 0.0
C122 C 0.15566 0.87092 0.11216 0.0
C123 C 0.11099 0.865 0.12387 0.0
C124 C 0.16939 0.84961 0.12851 0.0
C125 C 0.15018 0.80374 0.20752 0.0
H126 H 0.21144 0.73988 0.15593 0.0
C127 C 0.21803 0.70191 0.25524 0.0
C128 C 0.26614 0.71913 0.23931 0.0
C129 C 0.19458 0.71886 0.24503 0.0
C130 C 0.19439 0.75762 0.17066 0.0
H131 H 0.04587 0.83246 0.16222 0.0
H132 H 0.06996 0.79485 0.19092 0.0
H133 H 0.1774 0.76858 0.12986 0.0
H134 H 0.32847 0.76916 0.20175 0.0
H135 H 0.28793 0.79852 0.18409 0.0
H136 H 0.16785 0.79269 0.24837 0.0
C137 C 0.09439 0.81633 0.16909 0.0
C138 C 0.17505 0.77422 0.15574 0.0
C139 C 0.08059 0.83776 0.15264 0.0
C140 C 0.29128 0.75526 0.21431 0.0
C141 C 0.26802 0.77183 0.20412 0.0
C142 C 0.1694 0.78671 0.22256 0.0
C143 C 0.13882 0.82174 0.15703 0.0
C144 C 0.15397 0.79883 0.17381 0.0
C145 C 0.2189 0.75249 0.2186 0.0
C146 C 0.19289 0.76486 0.20407 0.0
H147 H 0.18066 0.89296 0.09058 0.0
H148 H 0.20449 0.8557 0.119 0.0
H149 H 0.13425 0.82268 0.22207 0.0
H150 H 0.19783 0.67357 0.27437 0.0
H151 H 0.15667 0.70355 0.2566 0.0
C152 C 0.28984 0.07367 0.57722 0.0
C153 C 0.2784 0.10978 0.58551 0.0
C154 C 0.33717 0.0897 0.5786 0.0
C155 C 0.46675 0.21107 0.58728 0.0
H156 H 0.46975 0.1136 0.62653 0.0
C157 C 0.58563 0.22866 0.67638 0.0
C158 C 0.63319 0.27455 0.66415 0.0
C159 C 0.54718 0.20072 0.65854 0.0
C160 C 0.46967 0.14136 0.6155 0.0
H161 H 0.30774 0.19108 0.60141 0.0
H162 H 0.38954 0.21877 0.60467 0.0
H163 H 0.3928 0.08237 0.61109 0.0
H164 H 0.67905 0.32387 0.62226 0.0
H165 H 0.61246 0.27435 0.59078 0.0
H166 H 0.54222 0.27108 0.59379 0.0
C167 C 0.36269 0.17842 0.5962 0.0
C168 C 0.42558 0.12324 0.60624 0.0
C169 C 0.31561 0.16253 0.59452 0.0
C170 C 0.64263 0.2891 0.63257 0.0
C171 C 0.60427 0.26087 0.6146 0.0
C172 C 0.51057 0.22929 0.59679 0.0
C173 C 0.37406 0.14214 0.58857 0.0
C174 C 0.42299 0.15847 0.59316 0.0
C175 C 0.55543 0.21775 0.6279 0.0
C176 C 0.51215 0.19525 0.61212 0.0
H177 H 0.26205 0.0329 0.56977 0.0
H178 H 0.34468 0.06085 0.57208 0.0
H179 H 0.46667 0.239 0.57644 0.0
H180 H 0.57708 0.21618 0.70058 0.0
H181 H 0.51017 0.16802 0.66982 0.0
C182 C 0.10492 0.16878 0.08983 0.0
C183 C 0.05859 0.14223 0.08059 0.0
C184 C 0.11787 0.20517 0.11573 0.0
C185 C 0.09266 0.29332 0.16624 0.0
H186 H 0.16741 0.29355 0.21978 0.0
C187 C 0.19323 0.46516 0.25682 0.0
C188 C 0.24479 0.49041 0.24844 0.0
C189 C 0.15921 0.41294 0.24568 0.0
C190 C 0.14602 0.29354 0.20533 0.0
H191 H 0.99022 0.1346 0.09042 0.0
H192 H 0.01315 0.19909 0.13616 0.0
H193 H 0.12814 0.2213 0.18008 0.0
H194 H 0.30158 0.48099 0.22398 0.0
H195 H 0.24239 0.38925 0.20548 0.0
H196 H 0.11221 0.36676 0.19088 0.0
C197 C 0.03926 0.1913 0.12321 0.0
C198 C 0.12384 0.25248 0.18245 0.0
C199 C 0.02626 0.15467 0.09698 0.0
C200 C 0.26181 0.46162 0.23128 0.0
C201 C 0.2279 0.40926 0.22062 0.0
C202 C 0.11459 0.3343 0.18937 0.0
C203 C 0.08475 0.21586 0.13329 0.0
C204 C 0.099 0.2533 0.16162 0.0
C205 C 0.17652 0.38538 0.22639 0.0
C206 C 0.14325 0.33589 0.20815 0.0
H207 H 0.13104 0.1607 0.07741 0.0
H208 H 0.15395 0.22479 0.12211 0.0
H209 H 0.07373 0.29504 0.15058 0.0
H210 H 0.17961 0.48734 0.26945 0.0
H211 H 0.11979 0.39531 0.25048 0.0
C212 C 0.88995 0.05966 0.5633 0.0
C213 C 0.92862 0.0668 0.57418 0.0
C214 C 0.86656 0.082 0.5807 0.0
C215 C 0.88733 0.1898 0.63993 0.0
H216 H 0.74322 0.10934 0.65395 0.0
C217 C 0.79528 0.27865 0.72115 0.0
C218 C 0.75408 0.26941 0.71278 0.0
C219 C 0.81243 0.24923 0.70629 0.0
C220 C 0.78356 0.13277 0.64996 0.0
H221 H 0.97325 0.10328 0.61171 0.0
H222 H 0.93256 0.14223 0.64198 0.0
H223 H 0.78198 0.06863 0.62303 0.0
H224 H 0.69768 0.22158 0.68282 0.0
H225 H 0.72858 0.17112 0.6557 0.0
H226 H 0.88974 0.25451 0.66565 0.0
C227 C 0.92036 0.11947 0.61998 0.0
C228 C 0.80577 0.10927 0.63226 0.0
C229 C 0.94343 0.0968 0.60276 0.0
C230 C 0.72888 0.22857 0.69018 0.0
C231 C 0.74688 0.19986 0.67457 0.0
C232 C 0.86531 0.2135 0.65721 0.0
C233 C 0.88169 0.1124 0.60915 0.0
C234 C 0.85787 0.13739 0.62731 0.0
C235 C 0.78989 0.21095 0.68176 0.0
C236 C 0.81299 0.1852 0.66287 0.0
H237 H 0.87761 0.03672 0.54136 0.0
H238 H 0.83724 0.07627 0.57155 0.0
H239 H 0.92769 0.21299 0.63597 0.0
H240 H 0.81565 0.3103 0.73832 0.0
H241 H 0.84442 0.25784 0.71348 0.0
C242 C 0.86615 0.90349 0.10717 0.0
C243 C 0.88638 0.93346 0.07957 0.0
C244 C 0.81851 0.88397 0.12434 0.0
C245 C 0.69866 0.85269 0.11891 0.0
H246 H 0.67706 0.84991 0.212 0.0
C247 C 0.50857 0.78342 0.19536 0.0
C248 C 0.48947 0.75157 0.22187 0.0
C249 C 0.5583 0.81015 0.17999 0.0
C250 C 0.68214 0.84972 0.18605 0.0
H251 H 0.87245 0.96646 0.04801 0.0
H252 H 0.78826 0.93257 0.07851 0.0
H253 H 0.76033 0.88828 0.18038 0.0
H254 H 0.50781 0.72425 0.25409 0.0
H255 H 0.59546 0.77044 0.22674 0.0
H256 H 0.62044 0.8135 0.12447 0.0
C257 C 0.80947 0.92377 0.08663 0.0
C258 C 0.73006 0.87187 0.16781 0.0
C259 C 0.85765 0.94337 0.06921 0.0
C260 C 0.52186 0.74901 0.23385 0.0
C261 C 0.57198 0.77542 0.21807 0.0
C262 C 0.6507 0.83042 0.13714 0.0
C263 C 0.78958 0.89418 0.11465 0.0
C264 C 0.73895 0.87337 0.13398 0.0
C265 C 0.59035 0.805 0.19025 0.0
C266 C 0.64172 0.82868 0.17101 0.0
H267 H 0.88726 0.89495 0.1157 0.0
H268 H 0.80423 0.86026 0.14516 0.0
H269 H 0.70379 0.85225 0.09294 0.0
H270 H 0.48432 0.78621 0.18576 0.0
H271 H 0.57122 0.83394 0.15949 0.0
C272 C 0.90922 0.81931 0.54592 0.0
C273 C 0.92699 0.87114 0.55763 0.0
C274 C 0.88644 0.77836 0.56703 0.0
C275 C 0.87281 0.75215 0.65106 0.0
H276 H 0.7645 0.60856 0.62691 0.0
C277 C 0.81637 0.56741 0.70529 0.0
C278 C 0.76609 0.52155 0.71104 0.0
C279 C 0.83051 0.6115 0.69071 0.0
C280 C 0.79402 0.64849 0.63435 0.0
H281 H 0.93603 0.92141 0.6006 0.0
H282 H 0.8955 0.84939 0.63794 0.0
H283 H 0.79985 0.68306 0.59364 0.0
H284 H 0.6912 0.48611 0.70499 0.0
H285 H 0.71624 0.56395 0.67866 0.0
H286 H 0.86645 0.71771 0.69203 0.0
C287 C 0.8995 0.84044 0.61229 0.0
C288 C 0.81498 0.69121 0.61497 0.0
C289 C 0.92262 0.88171 0.59099 0.0
C290 C 0.72997 0.52129 0.7018 0.0
C291 C 0.74446 0.56558 0.68638 0.0
C292 C 0.85155 0.70956 0.67058 0.0
C293 C 0.88055 0.78803 0.60051 0.0
C294 C 0.85538 0.74345 0.6227 0.0
C295 C 0.7951 0.6111 0.68055 0.0
C296 C 0.8126 0.65701 0.66214 0.0
H297 H 0.91242 0.81008 0.52027 0.0
H298 H 0.87374 0.73908 0.55697 0.0
H299 H 0.90404 0.79159 0.65771 0.0
H300 H 0.84589 0.56863 0.71038 0.0
H301 H 0.86995 0.64489 0.68583 0.0
C302 C 0.08127 0.93686 0.42811 0.0
C303 C 0.08025 0.94799 0.46135 0.0
C304 C 0.10431 0.91392 0.411 0.0
C305 C 0.18961 0.8837 0.41969 0.0
H306 H 0.13937 0.78828 0.34606 0.0
C307 C 0.22041 0.72608 0.37515 0.0
C308 C 0.24907 0.73286 0.34406 0.0
C309 C 0.20111 0.75439 0.38571 0.0
C310 C 0.15402 0.81536 0.36637 0.0
H311 H 0.10142 0.94223 0.50287 0.0
H312 H 0.13882 0.90025 0.47381 0.0
H313 H 0.10247 0.83297 0.37286 0.0
H314 H 0.28009 0.7754 0.29981 0.0
H315 H 0.24309 0.82279 0.31778 0.0
H316 H 0.23861 0.86272 0.41434 0.0
C317 C 0.12419 0.91123 0.46027 0.0
C318 C 0.13312 0.84127 0.38174 0.0
C319 C 0.10216 0.93507 0.47716 0.0
C320 C 0.25665 0.76771 0.32337 0.0
C321 C 0.23612 0.79533 0.33378 0.0
C322 C 0.20946 0.85682 0.40484 0.0
C323 C 0.12609 0.90064 0.42683 0.0
C324 C 0.15015 0.87533 0.40897 0.0
C325 C 0.20916 0.78961 0.36532 0.0
C326 C 0.19156 0.8221 0.37829 0.0
H327 H 0.06456 0.94615 0.41524 0.0
H328 H 0.10538 0.90721 0.38529 0.0
H329 H 0.2052 0.91076 0.43977 0.0
H330 H 0.21384 0.69973 0.39183 0.0
H331 H 0.18033 0.74929 0.4101 0.0
C332 C 0.13603 0.0571 0.92101 0.0
C333 C 0.12658 0.06561 0.95434 0.0
C334 C 0.18486 0.08118 0.90426 0.0
C335 C 0.31633 0.19423 0.91099 0.0
H336 H 0.34396 0.12659 0.83351 0.0
C337 C 0.50203 0.31544 0.82337 0.0
C338 C 0.52606 0.29229 0.80898 0.0
C339 C 0.45287 0.28458 0.8401 0.0
C340 C 0.33715 0.14587 0.85527 0.0
H341 H 0.16032 0.10418 0.99679 0.0
H342 H 0.24613 0.14538 0.96765 0.0
H343 H 0.26064 0.07755 0.86662 0.0
H344 H 0.51626 0.21774 0.7997 0.0
H345 H 0.4297 0.16321 0.82933 0.0
H346 H 0.39324 0.26168 0.90043 0.0
C347 C 0.21585 0.12105 0.95422 0.0
C348 C 0.28905 0.11801 0.87409 0.0
C349 C 0.16672 0.09703 0.97101 0.0
C350 C 0.49865 0.23668 0.81029 0.0
C351 C 0.44912 0.20555 0.8274 0.0
C352 C 0.36452 0.22175 0.89245 0.0
C353 C 0.22558 0.114 0.9205 0.0
C354 C 0.27776 0.14211 0.90193 0.0
C355 C 0.4262 0.22954 0.84332 0.0
C356 C 0.3754 0.19839 0.86398 0.0
H357 H 0.10565 0.03296 0.90762 0.0
H358 H 0.1906 0.0754 0.87834 0.0
H359 H 0.30919 0.2145 0.932 0.0
H360 H 0.52187 0.35811 0.82261 0.0
H361 H 0.4361 0.30428 0.85102 0.0
C362 C 0.06362 0.13403 0.4582 0.0
C363 C 0.09397 0.13879 0.47688 0.0
C364 C 0.08173 0.17686 0.4396 0.0
C365 C 0.18287 0.32436 0.43419 0.0
H366 H 0.14915 0.30724 0.35114 0.0
C367 C 0.29027 0.50593 0.35735 0.0
C368 C 0.26354 0.51227 0.34166 0.0
C369 C 0.26825 0.45708 0.37015 0.0
C370 C 0.15864 0.31269 0.37441 0.0
H371 H 0.16731 0.19082 0.48999 0.0
H372 H 0.19944 0.26368 0.457 0.0
H373 H 0.11232 0.22817 0.38099 0.0
H374 H 0.19336 0.47215 0.326 0.0
H375 H 0.154 0.38588 0.34879 0.0
H376 H 0.22894 0.40831 0.42798 0.0
C377 C 0.16117 0.22826 0.45722 0.0
C378 C 0.13742 0.2673 0.3916 0.0
C379 C 0.14294 0.18607 0.47591 0.0
C380 C 0.21502 0.46786 0.33745 0.0
C381 C 0.19249 0.41865 0.35071 0.0
C382 C 0.20408 0.36934 0.41708 0.0
C383 C 0.13061 0.22501 0.43935 0.0
C384 C 0.15006 0.27256 0.42148 0.0
C385 C 0.21832 0.41333 0.36829 0.0
C386 C 0.19315 0.36432 0.38666 0.0
H387 H 0.02555 0.09814 0.45892 0.0
H388 H 0.05691 0.17282 0.42633 0.0
H389 H 0.19222 0.33049 0.45761 0.0
H390 H 0.32775 0.53967 0.36094 0.0
H391 H 0.29 0.45424 0.38253 0.0
C392 C 0.91132 0.1923 0.90769 0.0
C393 C 0.87971 0.15224 0.93075 0.0
C394 C 0.8938 0.21412 0.89563 0.0
C395 C 0.79758 0.23457 0.91259 0.0
H396 H 0.82176 0.24243 0.81983 0.0
C397 C 0.70215 0.28654 0.85224 0.0
C398 C 0.72896 0.31651 0.8242 0.0
C399 C 0.72112 0.26756 0.86558 0.0
C400 C 0.81531 0.24145 0.8458 0.0
H401 H 0.80488 0.10454 0.95951 0.0
H402 H 0.77487 0.14366 0.93897 0.0
H403 H 0.85458 0.20919 0.84314 0.0
H404 H 0.79734 0.35118 0.78855 0.0
H405 H 0.83103 0.31914 0.81209 0.0
H406 H 0.7592 0.26775 0.91548 0.0
C407 C 0.81322 0.15801 0.93026 0.0
C408 C 0.83403 0.22217 0.85914 0.0
C409 C 0.83054 0.13572 0.94208 0.0
C410 C 0.77546 0.32758 0.80995 0.0
C411 C 0.79467 0.30897 0.82343 0.0
C412 C 0.77937 0.2545 0.8993 0.0
C413 C 0.84446 0.19691 0.90659 0.0
C414 C 0.82524 0.21837 0.89265 0.0
C415 C 0.76768 0.27851 0.85141 0.0
C416 C 0.78779 0.25803 0.86568 0.0
H417 H 0.94978 0.20707 0.89897 0.0
H418 H 0.91898 0.2447 0.87778 0.0
H419 H 0.79064 0.23256 0.93854 0.0
H420 H 0.66606 0.27706 0.86368 0.0
H421 H 0.69872 0.24348 0.88676 0.0
C422 C 0.76087 1.00266 0.43413 0.0
C423 C 0.80867 0.0191 0.41817 0.0
C424 C 0.72983 1.00106 0.41807 0.0
C425 C 0.70789 0.9695 0.33656 0.0
H426 H 0.58987 0.95934 0.37881 0.0
C427 C 0.50937 0.82472 0.29881 0.0
C428 C 0.4773 0.78802 0.3237 0.0
C429 C 0.55688 0.87125 0.30324 0.0
C430 C 0.62317 0.96323 0.36624 0.0
H431 H 0.86386 0.05292 0.37437 0.0
H432 H 0.80964 0.05052 0.34631 0.0
H433 H 0.66594 0.01855 0.40184 0.0
H434 H 0.47041 0.77043 0.3722 0.0
H435 H 0.55205 0.85134 0.37995 0.0
H436 H 0.66355 0.91097 0.30237 0.0
C437 C 0.79588 0.03808 0.37105 0.0
C438 C 0.66655 0.99678 0.37949 0.0
C439 C 0.82702 0.03978 0.3872 0.0
C440 C 0.494 0.798 0.35261 0.0
C441 C 0.54055 0.8445 0.3572 0.0
C442 C 0.66457 0.93626 0.32317 0.0
C443 C 0.74599 0.0158 0.38568 0.0
C444 C 0.70818 0.99736 0.36604 0.0
C445 C 0.57199 0.88193 0.33288 0.0
C446 C 0.62105 0.93038 0.33912 0.0
H447 H 0.74616 0.98737 0.45823 0.0
H448 H 0.69163 0.98351 0.43015 0.0
H449 H 0.73913 0.96872 0.32558 0.0
H450 H 0.49701 0.81874 0.27663 0.0
H451 H 0.58105 0.8995 0.28405 0.0
C452 C 0.95253 0.82857 0.9665 0.0
C453 C 0.95642 0.87141 0.95789 0.0
C454 C 0.94273 0.78658 0.94449 0.0
C455 C 0.89864 0.72674 0.8663 0.0
H456 H 0.94596 0.64672 0.87208 0.0
C457 C 0.8465 0.55005 0.78193 0.0
C458 C 0.81495 0.50332 0.7995 0.0
C459 C 0.87992 0.59905 0.79655 0.0
C460 C 0.93307 0.66918 0.87002 0.0
H461 H 0.95401 0.90474 0.91953 0.0
H462 H 0.93936 0.83308 0.88052 0.0
H463 H 0.97007 0.72548 0.9072 0.0
H464 H 0.79655 0.46956 0.84508 0.0
H465 H 0.85583 0.55505 0.87068 0.0
H466 H 0.8621 0.6707 0.82896 0.0
C467 C 0.94177 0.83032 0.90459 0.0
C468 C 0.94622 0.71391 0.8904 0.0
C469 C 0.95022 0.87158 0.92693 0.0
C470 C 0.82142 0.50511 0.83079 0.0
C471 C 0.85513 0.55408 0.84548 0.0
C472 C 0.88653 0.68294 0.84553 0.0
C473 C 0.938 0.78719 0.91301 0.0
C474 C 0.92808 0.74252 0.88939 0.0
C475 C 0.8821 0.60179 0.82912 0.0
C476 C 0.90269 0.65305 0.84762 0.0
H477 H 0.95709 0.82754 0.99031 0.0
H478 H 0.93868 0.7536 0.95237 0.0
H479 H 0.88297 0.74664 0.86499 0.0
H480 H 0.84134 0.54957 0.75822 0.0
H481 H 0.90055 0.63525 0.78334 0.0
loop_
_geom_bond_atom_site_label_1
_geom_bond_atom_site_label_2
_geom_bond_distance
_geom_bond_site_symmetry_2
_ccdc_geom_bond_type
Tb0 C2 2.809 . S
Tb0 O20 2.484 . S
Tb0 O21 2.440 1_655 S
Tb0 O22 2.658 1_655 S
Tb0 O23 2.409 1_655 S
Tb0 O24 2.378 1_656 S
Tb0 O28 2.325 1_546 S
Tb0 O31 2.341 1_545 S
Tb1 C11 2.809 . S
Tb1 O22 2.325 1_564 S
Tb1 O25 2.341 1_565 S
Tb1 O26 2.484 . S
Tb1 O27 2.440 . S
Tb1 O28 2.658 1_455 S
Tb1 O29 2.409 1_455 S
Tb1 O30 2.378 1_455 S
C2 Tb0 2.809 . S
C2 C3 1.514 . S
C2 O20 1.248 . S
C2 O21 1.266 1_655 S
C3 C2 1.514 . S
C3 C4 1.359 . S
C3 C8 1.348 . S
C4 C3 1.359 . S
C4 C5 1.380 . S
C4 H32 0.929 . S
C5 C4 1.380 . S
C5 C6 1.347 . S
C5 H33 0.931 . S
C6 C5 1.347 . S
C6 C7 1.369 . S
C7 C6 1.369 . S
C7 C8 1.408 . S
C7 H34 0.930 1_655 S
C8 C3 1.348 . S
C8 C7 1.408 . S
C8 H35 0.930 1_655 S
C9 O22 1.281 . S
C9 O23 1.254 . S
C10 O24 1.236 . S
C10 O25 1.266 . S
C11 Tb1 2.809 . S
C11 C12 1.514 . S
C11 O26 1.248 . S
C11 O27 1.266 . S
C12 C11 1.514 . S
C12 C13 1.359 . S
C12 C17 1.348 . S
C13 C12 1.359 . S
C13 C14 1.380 . S
C13 H36 0.929 . S
C14 C13 1.380 . S
C14 C15 1.347 . S
C14 H37 0.931 . S
C15 C14 1.347 . S
C15 C16 1.369 . S
C16 C15 1.369 . S
C16 C17 1.408 . S
C16 H38 0.930 . S
C17 C12 1.348 . S
C17 C16 1.408 . S
C17 H39 0.930 1_455 S
C18 O28 1.281 . S
C18 O29 1.254 . S
C19 O30 1.236 1_556 S
C19 O31 1.266 . S
O20 Tb0 2.484 . S
O20 C2 1.248 . S
O21 Tb0 2.440 1_455 S
O21 C2 1.266 1_455 S
O22 Tb0 2.658 1_455 S
O22 Tb1 2.325 1_546 S
O22 C9 1.281 . S
O23 Tb0 2.409 1_455 S
O23 C9 1.254 . S
O24 Tb0 2.378 1_454 S
O24 C10 1.236 . S
O25 Tb1 2.341 1_545 S
O25 C10 1.266 . S
O26 Tb1 2.484 . S
O26 C11 1.248 . S
O27 Tb1 2.440 . S
O27 C11 1.266 . S
O28 Tb0 2.325 1_564 S
O28 Tb1 2.658 1_655 S
O28 C18 1.281 . S
O29 Tb1 2.409 1_655 S
O29 C18 1.254 . S
O30 Tb1 2.378 1_655 S
O30 C19 1.236 1_554 S
O31 Tb0 2.341 1_565 S
O31 C19 1.266 . S
H32 C4 0.929 . S
H33 C5 0.931 . S
H34 C7 0.930 1_455 S
H35 C8 0.930 1_455 S
H36 C13 0.929 . S
H37 C14 0.931 . S
H38 C16 0.930 . S
H39 C17 0.930 1_655 S
Tb40 C42 2.809 . S
Tb40 O60 2.484 . S
Tb40 O61 2.440 . S
Tb40 O62 2.658 . S
Tb40 O63 2.409 . S
Tb40 O64 2.378 . S
Tb40 O68 2.325 1_545 S
Tb40 O71 2.341 1_455 S
Tb41 C51 2.809 . S
Tb41 O62 2.325 1_665 S
Tb41 O65 2.341 1_655 S
Tb41 O66 2.484 . S
Tb41 O67 2.440 . S
Tb41 O68 2.658 1_655 S
Tb41 O69 2.409 . S
Tb41 O70 2.378 . S
C42 Tb40 2.809 . S
C42 C43 1.514 . S
C42 O60 1.248 . S
C42 O61 1.266 . S
C43 C42 1.514 . S
C43 C44 1.359 . S
C43 C48 1.348 . S
C44 C43 1.359 . S
C44 C45 1.380 . S
C44 H72 0.929 . S
C45 C44 1.380 . S
C45 C46 1.347 . S
C45 H73 0.931 . S
C46 C45 1.347 . S
C46 C47 1.369 . S
C47 C46 1.369 . S
C47 C48 1.408 . S
C47 H74 0.930 . S
C48 C43 1.348 . S
C48 C47 1.408 . S
C48 H75 0.930 . S
C49 O62 1.281 . S
C49 O63 1.254 . S
C50 O64 1.236 1_565 S
C50 O65 1.266 . S
C51 Tb41 2.809 . S
C51 C52 1.514 . S
C51 O66 1.248 . S
C51 O67 1.266 . S
C52 C51 1.514 . S
C52 C53 1.359 . S
C52 C57 1.348 . S
C53 C52 1.359 . S
C53 C54 1.380 . S
C53 H76 0.929 1_565 S
C54 C53 1.380 . S
C54 C55 1.347 . S
C54 H77 0.931 . S
C55 C54 1.347 . S
C55 C56 1.369 . S
C56 C55 1.369 . S
C56 C57 1.408 . S
C56 H78 0.930 . S
C57 C52 1.348 . S
C57 C56 1.408 . S
C57 H79 0.930 . S
C58 O68 1.281 1_655 S
C58 O69 1.254 . S
C59 O70 1.236 1_545 S
C59 O71 1.266 . S
O60 Tb40 2.484 . S
O60 C42 1.248 . S
O61 Tb40 2.440 . S
O61 C42 1.266 . S
O62 Tb40 2.658 . S
O62 Tb41 2.325 1_445 S
O62 C49 1.281 . S
O63 Tb40 2.409 . S
O63 C49 1.254 . S
O64 Tb40 2.378 . S
O64 C50 1.236 1_545 S
O65 Tb41 2.341 1_455 S
O65 C50 1.266 . S
O66 Tb41 2.484 . S
O66 C51 1.248 . S
O67 Tb41 2.440 . S
O67 C51 1.266 . S
O68 Tb40 2.325 1_565 S
O68 Tb41 2.658 1_455 S
O68 C58 1.281 1_455 S
O69 Tb41 2.409 . S
O69 C58 1.254 . S
O70 Tb41 2.378 . S
O70 C59 1.236 1_565 S
O71 Tb40 2.341 1_655 S
O71 C59 1.266 . S
H72 C44 0.929 . S
H73 C45 0.931 . S
H74 C47 0.930 . S
H75 C48 0.930 . S
H76 C53 0.929 1_545 S
H77 C54 0.931 . S
H78 C56 0.930 . S
H79 C57 0.930 . S
Zn80 O86 1.920 . S
Zn80 O92 1.898 . S
Zn80 O95 1.905 . S
Zn81 O89 1.905 . S
Zn81 O90 1.898 . S
Zn81 O98 1.920 . S
Zn82 O85 2.080 . S
Zn82 O88 2.114 . S
Zn82 O91 2.120 . S
Zn82 O93 2.120 . S
Zn82 O94 2.114 . S
Zn82 O97 2.080 . S
C83 O88 1.166 . S
C83 O89 1.182 . S
C84 O90 1.167 . S
C84 O91 1.299 . S
O85 Zn82 2.080 . S
O85 C99 1.305 . S
O86 Zn80 1.920 . S
O86 C99 1.234 . S
C87 O92 1.167 . S
C87 O93 1.299 . S
O88 Zn82 2.114 . S
O88 C83 1.166 . S
O89 Zn81 1.905 . S
O89 C83 1.182 . S
O90 Zn81 1.898 . S
O90 C84 1.167 . S
O91 Zn82 2.120 . S
O91 C84 1.299 . S
O92 Zn80 1.898 . S
O92 C87 1.167 . S
O93 Zn82 2.120 . S
O93 C87 1.299 . S
O94 Zn82 2.114 . S
O94 C96 1.166 . S
O95 Zn80 1.905 . S
O95 C96 1.182 . S
C96 O94 1.166 . S
C96 O95 1.182 . S
O97 Zn82 2.080 . S
O97 C100 1.305 . S
O98 Zn81 1.920 . S
O98 C100 1.234 . S
C99 O85 1.305 . S
C99 O86 1.234 . S
C100 O97 1.305 . S
C100 O98 1.234 . S
Zn101 O107 1.920 . S
Zn101 O113 1.898 . S
Zn101 O116 1.905 . S
Zn102 O110 1.905 . S
Zn102 O111 1.898 . S
Zn102 O119 1.920 . S
Zn103 O106 2.080 . S
Zn103 O109 2.114 . S
Zn103 O112 2.120 . S
Zn103 O114 2.120 . S
Zn103 O115 2.114 . S
Zn103 O118 2.080 . S
C104 O109 1.166 . S
C104 O110 1.182 . S
C105 O111 1.167 . S
C105 O112 1.299 . S
O106 Zn103 2.080 . S
O106 C120 1.305 . S
O107 Zn101 1.920 . S
O107 C120 1.234 . S
C108 O113 1.167 . S
C108 O114 1.299 . S
O109 Zn103 2.114 . S
O109 C104 1.166 . S
O110 Zn102 1.905 . S
O110 C104 1.182 . S
O111 Zn102 1.898 . S
O111 C105 1.167 . S
O112 Zn103 2.120 . S
O112 C105 1.299 . S
O113 Zn101 1.898 . S
O113 C108 1.167 . S
O114 Zn103 2.120 . S
O114 C108 1.299 . S
O115 Zn103 2.114 . S
O115 C117 1.166 . S
O116 Zn101 1.905 . S
O116 C117 1.182 . S
C117 O115 1.166 . S
C117 O116 1.182 . S
O118 Zn103 2.080 . S
O118 C121 1.305 . S
O119 Zn102 1.920 . S
O119 C121 1.234 . S
C120 O106 1.305 . S
C120 O107 1.234 . S
C121 O118 1.305 . S
C121 O119 1.234 . S
C122 C123 1.349 . S
C122 C124 1.327 . S
C122 H147 0.950 . S
C123 C122 1.349 . S
C123 C139 1.349 . S
C124 C122 1.327 . S
C124 C143 1.429 . S
C124 H148 0.950 . S
C125 C142 1.574 . S
C125 C144 1.368 . S
C125 H149 0.949 . S
H126 C130 0.949 . S
C127 C128 1.349 . S
C127 C129 1.327 . S
C127 H150 0.950 . S
C128 C127 1.349 . S
C128 C140 1.349 . S
C129 C127 1.327 . S
C129 C145 1.429 . S
C129 H151 0.950 . S
C130 H126 0.949 . S
C130 C138 1.574 . S
C130 C146 1.368 . S
H131 C139 0.950 . S
H132 C137 0.950 . S
H133 C138 0.949 . S
H134 C140 0.950 . S
H135 C141 0.950 . S
H136 C142 0.949 . S
C137 H132 0.950 . S
C137 C139 1.327 . S
C137 C143 1.429 . S
C138 C130 1.574 . S
C138 H133 0.949 . S
C138 C144 1.368 . S
C139 C123 1.349 . S
C139 H131 0.950 . S
C139 C137 1.327 . S
C140 C128 1.349 . S
C140 H134 0.950 . S
C140 C141 1.327 . S
C141 H135 0.950 . S
C141 C140 1.327 . S
C141 C145 1.429 . S
C142 C125 1.574 . S
C142 H136 0.949 . S
C142 C146 1.368 . S
C143 C124 1.429 . S
C143 C137 1.429 . S
C143 C144 1.523 . S
C144 C125 1.368 . S
C144 C138 1.368 . S
C144 C143 1.523 . S
C145 C129 1.429 . S
C145 C141 1.429 . S
C145 C146 1.523 . S
C146 C130 1.368 . S
C146 C142 1.368 . S
C146 C145 1.523 . S
H147 C122 0.950 . S
H148 C124 0.950 . S
H149 C125 0.949 . S
H150 C127 0.950 . S
H151 C129 0.950 . S
C152 C153 1.349 . S
C152 C154 1.327 . S
C152 H177 0.950 . S
C153 C152 1.349 . S
C153 C169 1.349 . S
C154 C152 1.327 . S
C154 C173 1.429 . S
C154 H178 0.950 . S
C155 C172 1.574 . S
C155 C174 1.368 . S
C155 H179 0.949 . S
H156 C160 0.949 . S
C157 C158 1.349 . S
C157 C159 1.327 . S
C157 H180 0.950 . S
C158 C157 1.349 . S
C158 C170 1.349 . S
C159 C157 1.327 . S
C159 C175 1.429 . S
C159 H181 0.950 . S
C160 H156 0.949 . S
C160 C168 1.574 . S
C160 C176 1.368 . S
H161 C169 0.950 . S
H162 C167 0.950 . S
H163 C168 0.949 . S
H164 C170 0.950 . S
H165 C171 0.950 . S
H166 C172 0.949 . S
C167 H162 0.950 . S
C167 C169 1.327 . S
C167 C173 1.429 . S
C168 C160 1.574 . S
C168 H163 0.949 . S
C168 C174 1.368 . S
C169 C153 1.349 . S
C169 H161 0.950 . S
C169 C167 1.327 . S
C170 C158 1.349 . S
C170 H164 0.950 . S
C170 C171 1.327 . S
C171 H165 0.950 . S
C171 C170 1.327 . S
C171 C175 1.429 . S
C172 C155 1.574 . S
C172 H166 0.949 . S
C172 C176 1.368 . S
C173 C154 1.429 . S
C173 C167 1.429 . S
C173 C174 1.523 . S
C174 C155 1.368 . S
C174 C168 1.368 . S
C174 C173 1.523 . S
C175 C159 1.429 . S
C175 C171 1.429 . S
C175 C176 1.523 . S
C176 C160 1.368 . S
C176 C172 1.368 . S
C176 C175 1.523 . S
H177 C152 0.950 . S
H178 C154 0.950 . S
H179 C155 0.949 . S
H180 C157 0.950 . S
H181 C159 0.950 . S
C182 C183 1.349 . S
C182 C184 1.327 . S
C182 H207 0.950 . S
C183 C182 1.349 . S
C183 C199 1.349 . S
C184 C182 1.327 . S
C184 C203 1.429 . S
C184 H208 0.950 . S
C185 C202 1.574 . S
C185 C204 1.368 . S
C185 H209 0.949 . S
H186 C190 0.949 . S
C187 C188 1.349 . S
C187 C189 1.327 . S
C187 H210 0.950 . S
C188 C187 1.349 . S
C188 C200 1.349 . S
C189 C187 1.327 . S
C189 C205 1.429 . S
C189 H211 0.950 . S
C190 H186 0.949 . S
C190 C198 1.574 . S
C190 C206 1.368 . S
H191 C199 0.950 . S
H192 C197 0.950 . S
H193 C198 0.949 . S
H194 C200 0.950 . S
H195 C201 0.950 . S
H196 C202 0.949 . S
C197 H192 0.950 . S
C197 C199 1.327 . S
C197 C203 1.429 . S
C198 C190 1.574 . S
C198 H193 0.949 . S
C198 C204 1.368 . S
C199 C183 1.349 . S
C199 H191 0.950 . S
C199 C197 1.327 . S
C200 C188 1.349 . S
C200 H194 0.950 . S
C200 C201 1.327 . S
C201 H195 0.950 . S
C201 C200 1.327 . S
C201 C205 1.429 . S
C202 C185 1.574 . S
C202 H196 0.949 . S
C202 C206 1.368 . S
C203 C184 1.429 . S
C203 C197 1.429 . S
C203 C204 1.523 . S
C204 C185 1.368 . S
C204 C198 1.368 . S
C204 C203 1.523 . S
C205 C189 1.429 . S
C205 C201 1.429 . S
C205 C206 1.523 . S
C206 C190 1.368 . S
C206 C202 1.368 . S
C206 C205 1.523 . S
H207 C182 0.950 . S
H208 C184 0.950 . S
H209 C185 0.949 . S
H210 C187 0.950 . S
H211 C189 0.950 . S
C212 C213 1.349 . S
C212 C214 1.327 . S
C212 H237 0.950 . S
C213 C212 1.349 . S
C213 C229 1.349 . S
C214 C212 1.327 . S
C214 C233 1.429 . S
C214 H238 0.950 . S
C215 C232 1.574 . S
C215 C234 1.368 . S
C215 H239 0.949 . S
H216 C220 0.949 . S
C217 C218 1.349 . S
C217 C219 1.327 . S
C217 H240 0.950 . S
C218 C217 1.349 . S
C218 C230 1.349 . S
C219 C217 1.327 . S
C219 C235 1.429 . S
C219 H241 0.950 . S
C220 H216 0.949 . S
C220 C228 1.574 . S
C220 C236 1.368 . S
H221 C229 0.950 . S
H222 C227 0.950 . S
H223 C228 0.949 . S
H224 C230 0.950 . S
H225 C231 0.950 . S
H226 C232 0.949 . S
C227 H222 0.950 . S
C227 C229 1.327 . S
C227 C233 1.429 . S
C228 C220 1.574 . S
C228 H223 0.949 . S
C228 C234 1.368 . S
C229 C213 1.349 . S
C229 H221 0.950 . S
C229 C227 1.327 . S
C230 C218 1.349 . S
C230 H224 0.950 . S
C230 C231 1.327 . S
C231 H225 0.950 . S
C231 C230 1.327 . S
C231 C235 1.429 . S
C232 C215 1.574 . S
C232 H226 0.949 . S
C232 C236 1.368 . S
C233 C214 1.429 . S
C233 C227 1.429 . S
C233 C234 1.523 . S
C234 C215 1.368 . S
C234 C228 1.368 . S
C234 C233 1.523 . S
C235 C219 1.429 . S
C235 C231 1.429 . S
C235 C236 1.523 . S
C236 C220 1.368 . S
C236 C232 1.368 . S
C236 C235 1.523 . S
H237 C212 0.950 . S
H238 C214 0.950 . S
H239 C215 0.949 . S
H240 C217 0.950 . S
H241 C219 0.950 . S
C242 C243 1.349 . S
C242 C244 1.327 . S
C242 H267 0.950 . S
C243 C242 1.349 . S
C243 C259 1.349 . S
C244 C242 1.327 . S
C244 C263 1.429 . S
C244 H268 0.950 . S
C245 C262 1.574 . S
C245 C264 1.368 . S
C245 H269 0.949 . S
H246 C250 0.949 . S
C247 C248 1.349 . S
C247 C249 1.327 . S
C247 H270 0.950 . S
C248 C247 1.349 . S
C248 C260 1.349 . S
C249 C247 1.327 . S
C249 C265 1.429 . S
C249 H271 0.950 . S
C250 H246 0.949 . S
C250 C258 1.574 . S
C250 C266 1.368 . S
H251 C259 0.950 . S
H252 C257 0.950 . S
H253 C258 0.949 . S
H254 C260 0.950 . S
H255 C261 0.950 . S
H256 C262 0.949 . S
C257 H252 0.950 . S
C257 C259 1.327 . S
C257 C263 1.429 . S
C258 C250 1.574 . S
C258 H253 0.949 . S
C258 C264 1.368 . S
C259 C243 1.349 . S
C259 H251 0.950 . S
C259 C257 1.327 . S
C260 C248 1.349 . S
C260 H254 0.950 . S
C260 C261 1.327 . S
C261 H255 0.950 . S
C261 C260 1.327 . S
C261 C265 1.429 . S
C262 C245 1.574 . S
C262 H256 0.949 . S
C262 C266 1.368 . S
C263 C244 1.429 . S
C263 C257 1.429 . S
C263 C264 1.523 . S
C264 C245 1.368 . S
C264 C258 1.368 . S
C264 C263 1.523 . S
C265 C249 1.429 . S
C265 C261 1.429 . S
C265 C266 1.523 . S
C266 C250 1.368 . S
C266 C262 1.368 . S
C266 C265 1.523 . S
H267 C242 0.950 . S
H268 C244 0.950 . S
H269 C245 0.949 . S
H270 C247 0.950 . S
H271 C249 0.950 . S
C272 C273 1.349 . S
C272 C274 1.327 . S
C272 H297 0.950 . S
C273 C272 1.349 . S
C273 C289 1.349 . S
C274 C272 1.327 . S
C274 C293 1.429 . S
C274 H298 0.950 . S
C275 C292 1.574 . S
C275 C294 1.368 . S
C275 H299 0.949 . S
H276 C280 0.949 . S
C277 C278 1.349 . S
C277 C279 1.327 . S
C277 H300 0.950 . S
C278 C277 1.349 . S
C278 C290 1.349 . S
C279 C277 1.327 . S
C279 C295 1.429 . S
C279 H301 0.950 . S
C280 H276 0.949 . S
C280 C288 1.574 . S
C280 C296 1.368 . S
H281 C289 0.950 . S
H282 C287 0.950 . S
H283 C288 0.949 . S
H284 C290 0.950 . S
H285 C291 0.950 . S
H286 C292 0.949 . S
C287 H282 0.950 . S
C287 C289 1.327 . S
C287 C293 1.429 . S
C288 C280 1.574 . S
C288 H283 0.949 . S
C288 C294 1.368 . S
C289 C273 1.349 . S
C289 H281 0.950 . S
C289 C287 1.327 . S
C290 C278 1.349 . S
C290 H284 0.950 . S
C290 C291 1.327 . S
C291 H285 0.950 . S
C291 C290 1.327 . S
C291 C295 1.429 . S
C292 C275 1.574 . S
C292 H286 0.949 . S
C292 C296 1.368 . S
C293 C274 1.429 . S
C293 C287 1.429 . S
C293 C294 1.523 . S
C294 C275 1.368 . S
C294 C288 1.368 . S
C294 C293 1.523 . S
C295 C279 1.429 . S
C295 C291 1.429 . S
C295 C296 1.523 . S
C296 C280 1.368 . S
C296 C292 1.368 . S
C296 C295 1.523 . S
H297 C272 0.950 . S
H298 C274 0.950 . S
H299 C275 0.949 . S
H300 C277 0.950 . S
H301 C279 0.950 . S
C302 C303 1.349 . S
C302 C304 1.327 . S
C302 H327 0.950 . S
C303 C302 1.349 . S
C303 C319 1.349 . S
C304 C302 1.327 . S
C304 C323 1.429 . S
C304 H328 0.950 . S
C305 C322 1.574 . S
C305 C324 1.368 . S
C305 H329 0.949 . S
H306 C310 0.949 . S
C307 C308 1.349 . S
C307 C309 1.327 . S
C307 H330 0.950 . S
C308 C307 1.349 . S
C308 C320 1.349 . S
C309 C307 1.327 . S
C309 C325 1.429 . S
C309 H331 0.950 . S
C310 H306 0.949 . S
C310 C318 1.574 . S
C310 C326 1.368 . S
H311 C319 0.950 . S
H312 C317 0.950 . S
H313 C318 0.949 . S
H314 C320 0.950 . S
H315 C321 0.950 . S
H316 C322 0.949 . S
C317 H312 0.950 . S
C317 C319 1.327 . S
C317 C323 1.429 . S
C318 C310 1.574 . S
C318 H313 0.949 . S
C318 C324 1.368 . S
C319 C303 1.349 . S
C319 H311 0.950 . S
C319 C317 1.327 . S
C320 C308 1.349 . S
C320 H314 0.950 . S
C320 C321 1.327 . S
C321 H315 0.950 . S
C321 C320 1.327 . S
C321 C325 1.429 . S
C322 C305 1.574 . S
C322 H316 0.949 . S
C322 C326 1.368 . S
C323 C304 1.429 . S
C323 C317 1.429 . S
C323 C324 1.523 . S
C324 C305 1.368 . S
C324 C318 1.368 . S
C324 C323 1.523 . S
C325 C309 1.429 . S
C325 C321 1.429 . S
C325 C326 1.523 . S
C326 C310 1.368 . S
C326 C322 1.368 . S
C326 C325 1.523 . S
H327 C302 0.950 . S
H328 C304 0.950 . S
H329 C305 0.949 . S
H330 C307 0.950 . S
H331 C309 0.950 . S
C332 C333 1.349 . S
C332 C334 1.327 . S
C332 H357 0.950 . S
C333 C332 1.349 . S
C333 C349 1.349 . S
C334 C332 1.327 . S
C334 C353 1.429 . S
C334 H358 0.950 . S
C335 C352 1.574 . S
C335 C354 1.368 . S
C335 H359 0.949 . S
H336 C340 0.949 . S
C337 C338 1.349 . S
C337 C339 1.327 . S
C337 H360 0.950 . S
C338 C337 1.349 . S
C338 C350 1.349 . S
C339 C337 1.327 . S
C339 C355 1.429 . S
C339 H361 0.950 . S
C340 H336 0.949 . S
C340 C348 1.574 . S
C340 C356 1.368 . S
H341 C349 0.950 . S
H342 C347 0.950 . S
H343 C348 0.949 . S
H344 C350 0.950 . S
H345 C351 0.950 . S
H346 C352 0.949 . S
C347 H342 0.950 . S
C347 C349 1.327 . S
C347 C353 1.429 . S
C348 C340 1.574 . S
C348 H343 0.949 . S
C348 C354 1.368 . S
C349 C333 1.349 . S
C349 H341 0.950 . S
C349 C347 1.327 . S
C350 C338 1.349 . S
C350 H344 0.950 . S
C350 C351 1.327 . S
C351 H345 0.950 . S
C351 C350 1.327 . S
C351 C355 1.429 . S
C352 C335 1.574 . S
C352 H346 0.949 . S
C352 C356 1.368 . S
C353 C334 1.429 . S
C353 C347 1.429 . S
C353 C354 1.523 . S
C354 C335 1.368 . S
C354 C348 1.368 . S
C354 C353 1.523 . S
C355 C339 1.429 . S
C355 C351 1.429 . S
C355 C356 1.523 . S
C356 C340 1.368 . S
C356 C352 1.368 . S
C356 C355 1.523 . S
H357 C332 0.950 . S
H358 C334 0.950 . S
H359 C335 0.949 . S
H360 C337 0.950 . S
H361 C339 0.950 . S
C362 C363 1.349 . S
C362 C364 1.327 . S
C362 H387 0.950 . S
C363 C362 1.349 . S
C363 C379 1.349 . S
C364 C362 1.327 . S
C364 C383 1.429 . S
C364 H388 0.950 . S
C365 C382 1.574 . S
C365 C384 1.368 . S
C365 H389 0.949 . S
H366 C370 0.949 . S
C367 C368 1.349 . S
C367 C369 1.327 . S
C367 H390 0.950 . S
C368 C367 1.349 . S
C368 C380 1.349 . S
C369 C367 1.327 . S
C369 C385 1.429 . S
C369 H391 0.950 . S
C370 H366 0.949 . S
C370 C378 1.574 . S
C370 C386 1.368 . S
H371 C379 0.950 . S
H372 C377 0.950 . S
H373 C378 0.949 . S
H374 C380 0.950 . S
H375 C381 0.950 . S
H376 C382 0.949 . S
C377 H372 0.950 . S
C377 C379 1.327 . S
C377 C383 1.429 . S
C378 C370 1.574 . S
C378 H373 0.949 . S
C378 C384 1.368 . S
C379 C363 1.349 . S
C379 H371 0.950 . S
C379 C377 1.327 . S
C380 C368 1.349 . S
C380 H374 0.950 . S
C380 C381 1.327 . S
C381 H375 0.950 . S
C381 C380 1.327 . S
C381 C385 1.429 . S
C382 C365 1.574 . S
C382 H376 0.949 . S
C382 C386 1.368 . S
C383 C364 1.429 . S
C383 C377 1.429 . S
C383 C384 1.523 . S
C384 C365 1.368 . S
C384 C378 1.368 . S
C384 C383 1.523 . S
C385 C369 1.429 . S
C385 C381 1.429 . S
C385 C386 1.523 . S
C386 C370 1.368 . S
C386 C382 1.368 . S
C386 C385 1.523 . S
H387 C362 0.950 . S
H388 C364 0.950 . S
H389 C365 0.949 . S
H390 C367 0.950 . S
H391 C369 0.950 . S
C392 C393 1.349 . S
C392 C394 1.327 . S
C392 H417 0.950 . S
C393 C392 1.349 . S
C393 C409 1.349 . S
C394 C392 1.327 . S
C394 C413 1.429 . S
C394 H418 0.950 . S
C395 C412 1.574 . S
C395 C414 1.368 . S
C395 H419 0.949 . S
H396 C400 0.949 . S
C397 C398 1.349 . S
C397 C399 1.327 . S
C397 H420 0.950 . S
C398 C397 1.349 . S
C398 C410 1.349 . S
C399 C397 1.327 . S
C399 C415 1.429 . S
C399 H421 0.950 . S
C400 H396 0.949 . S
C400 C408 1.574 . S
C400 C416 1.368 . S
H401 C409 0.950 . S
H402 C407 0.950 . S
H403 C408 0.949 . S
H404 C410 0.950 . S
H405 C411 0.950 . S
H406 C412 0.949 . S
C407 H402 0.950 . S
C407 C409 1.327 . S
C407 C413 1.429 . S
C408 C400 1.574 . S
C408 H403 0.949 . S
C408 C414 1.368 . S
C409 C393 1.349 . S
C409 H401 0.950 . S
C409 C407 1.327 . S
C410 C398 1.349 . S
C410 H404 0.950 . S
C410 C411 1.327 . S
C411 H405 0.950 . S
C411 C410 1.327 . S
C411 C415 1.429 . S
C412 C395 1.574 . S
C412 H406 0.949 . S
C412 C416 1.368 . S
C413 C394 1.429 . S
C413 C407 1.429 . S
C413 C414 1.523 . S
C414 C395 1.368 . S
C414 C408 1.368 . S
C414 C413 1.523 . S
C415 C399 1.429 . S
C415 C411 1.429 . S
C415 C416 1.523 . S
C416 C400 1.368 . S
C416 C412 1.368 . S
C416 C415 1.523 . S
H417 C392 0.950 . S
H418 C394 0.950 . S
H419 C395 0.949 . S
H420 C397 0.950 . S
H421 C399 0.950 . S
C422 C423 1.349 . S
C422 C424 1.327 . S
C422 H447 0.950 . S
C423 C422 1.349 . S
C423 C439 1.349 . S
C424 C422 1.327 . S
C424 C443 1.429 . S
C424 H448 0.950 . S
C425 C442 1.574 . S
C425 C444 1.368 . S
C425 H449 0.949 . S
H426 C430 0.949 . S
C427 C428 1.349 . S
C427 C429 1.327 . S
C427 H450 0.950 . S
C428 C427 1.349 . S
C428 C440 1.349 . S
C429 C427 1.327 . S
C429 C445 1.429 . S
C429 H451 0.950 . S
C430 H426 0.949 . S
C430 C438 1.574 . S
C430 C446 1.368 . S
H431 C439 0.950 . S
H432 C437 0.950 . S
H433 C438 0.949 . S
H434 C440 0.950 . S
H435 C441 0.950 . S
H436 C442 0.949 . S
C437 H432 0.950 . S
C437 C439 1.327 . S
C437 C443 1.429 . S
C438 C430 1.574 . S
C438 H433 0.949 . S
C438 C444 1.368 . S
C439 C423 1.349 . S
C439 H431 0.950 . S
C439 C437 1.327 . S
C440 C428 1.349 . S
C440 H434 0.950 . S
C440 C441 1.327 . S
C441 H435 0.950 . S
C441 C440 1.327 . S
C441 C445 1.429 . S
C442 C425 1.574 . S
C442 H436 0.949 . S
C442 C446 1.368 . S
C443 C424 1.429 . S
C443 C437 1.429 . S
C443 C444 1.523 . S
C444 C425 1.368 . S
C444 C438 1.368 . S
C444 C443 1.523 . S
C445 C429 1.429 . S
C445 C441 1.429 . S
C445 C446 1.523 . S
C446 C430 1.368 . S
C446 C442 1.368 . S
C446 C445 1.523 . S
H447 C422 0.950 . S
H448 C424 0.950 . S
H449 C425 0.949 . S
H450 C427 0.950 . S
H451 C429 0.950 . S
C452 C453 1.349 . S
C452 C454 1.327 . S
C452 H477 0.950 1_556 S
C453 C452 1.349 . S
C453 C469 1.349 . S
C454 C452 1.327 . S
C454 C473 1.429 . S
C454 H478 0.950 . S
C455 C472 1.574 . S
C455 C474 1.368 . S
C455 H479 0.949 . S
H456 C460 0.949 . S
C457 C458 1.349 . S
C457 C459 1.327 . S
C457 H480 0.950 . S
C458 C457 1.349 . S
C458 C470 1.349 . S
C459 C457 1.327 . S
C459 C475 1.429 . S
C459 H481 0.950 . S
C460 H456 0.949 . S
C460 C468 1.574 . S
C460 C476 1.368 . S
H461 C469 0.950 . S
H462 C467 0.950 . S
H463 C468 0.949 . S
H464 C470 0.950 . S
H465 C471 0.950 . S
H466 C472 0.949 . S
C467 H462 0.950 . S
C467 C469 1.327 . S
C467 C473 1.429 . S
C468 C460 1.574 . S
C468 H463 0.949 . S
C468 C474 1.368 . S
C469 C453 1.349 . S
C469 H461 0.950 . S
C469 C467 1.327 . S
C470 C458 1.349 . S
C470 H464 0.950 . S
C470 C471 1.327 . S
C471 H465 0.950 . S
C471 C470 1.327 . S
C471 C475 1.429 . S
C472 C455 1.574 . S
C472 H466 0.949 . S
C472 C476 1.368 . S
C473 C454 1.429 . S
C473 C467 1.429 . S
C473 C474 1.523 . S
C474 C455 1.368 . S
C474 C468 1.368 . S
C474 C473 1.523 . S
C475 C459 1.429 . S
C475 C471 1.429 . S
C475 C476 1.523 . S
C476 C460 1.368 . S
C476 C472 1.368 . S
C476 C475 1.523 . S
H477 C452 0.950 1_554 S
H478 C454 0.950 . S
H479 C455 0.949 . S
H480 C457 0.950 . S
H481 C459 0.950 . S
C123 C15 1.217 . S
C128 C99 1.133 . S
C153 C46 0.897 . S
C158 C105 0.851 . S
C183 C10 1.183 . S
C188 C96 1.116 . S
C213 C59 2.047 . S
C218 C121 1.924 . S
C243 C18 2.067 . S
C248 C87 1.974 . S
C278 C104 1.892 . S
C273 C58 1.976 . S
C303 C50 1.848 . S
C308 C100 1.745 . S
C338 C117 2.122 . S
C333 C9 2.195 . S
C368 C84 2.099 . S
C363 C49 2.252 . S
C398 C120 1.193 . S
C393 C6 1.301 . S
C428 C83 0.861 . S
C423 C55 0.903 . S
C458 C108 0.937 . S
C453 C19 0.995 . S
