# Generated by pormake.
# Topology gar, (4,6)-cn, num edge types: 1
# Building blocks:
#     Node 0, Type 0, BuildingBlock: AZAVOO_clean_sbu_0, # of connection points: 4
#     Node 1, Type 0, BuildingBlock: AZAVOO_clean_sbu_0, # of connection points: 4
#     Node 2, Type 0, BuildingBlock: AZAVOO_clean_sbu_0, # of connection points: 4
#     Node 3, Type 0, BuildingBlock: AZAVOO_clean_sbu_0, # of connection points: 4
#     Node 4, Type 0, BuildingBlock: AZAVOO_clean_sbu_0, # of connection points: 4
#     Node 5, Type 0, BuildingBlock: AZAVOO_clean_sbu_0, # of connection points: 4
#     Node 6, Type 0, BuildingBlock: AZAVOO_clean_sbu_0, # of connection points: 4
#     Node 7, Type 0, BuildingBlock: AZAVOO_clean_sbu_0, # of connection points: 4
#     Node 8, Type 0, BuildingBlock: AZAVOO_clean_sbu_0, # of connection points: 4
#     Node 9, Type 0, BuildingBlock: AZAVOO_clean_sbu_0, # of connection points: 4
#     Node 10, Type 0, BuildingBlock: AZAVOO_clean_sbu_0, # of connection points: 4
#     Node 11, Type 0, BuildingBlock: AZAVOO_clean_sbu_0, # of connection points: 4
#     Node 12, Type 0, BuildingBlock: AZAVOO_clean_sbu_0, # of connection points: 4
#     Node 13, Type 0, BuildingBlock: AZAVOO_clean_sbu_0, # of connection points: 4
#     Node 14, Type 0, BuildingBlock: AZAVOO_clean_sbu_0, # of connection points: 4
#     Node 15, Type 0, BuildingBlock: AZAVOO_clean_sbu_0, # of connection points: 4
#     Node 16, Type 0, BuildingBlock: AZAVOO_clean_sbu_0, # of connection points: 4
#     Node 17, Type 0, BuildingBlock: AZAVOO_clean_sbu_0, # of connection points: 4
#     Node 18, Type 0, BuildingBlock: AZAVOO_clean_sbu_0, # of connection points: 4
#     Node 19, Type 0, BuildingBlock: AZAVOO_clean_sbu_0, # of connection points: 4
#     Node 20, Type 0, BuildingBlock: AZAVOO_clean_sbu_0, # of connection points: 4
#     Node 21, Type 0, BuildingBlock: AZAVOO_clean_sbu_0, # of connection points: 4
#     Node 22, Type 0, BuildingBlock: AZAVOO_clean_sbu_0, # of connection points: 4
#     Node 23, Type 0, BuildingBlock: AZAVOO_clean_sbu_0, # of connection points: 4
#     Node 24, Type 1, BuildingBlock: CUKXOW_clean_sbu_0, # of connection points: 6
#     Node 25, Type 1, BuildingBlock: CUKXOW_clean_sbu_0, # of connection points: 6
#     Node 26, Type 1, BuildingBlock: CUKXOW_clean_sbu_0, # of connection points: 6
#     Node 27, Type 1, BuildingBlock: CUKXOW_clean_sbu_0, # of connection points: 6
#     Node 28, Type 1, BuildingBlock: CUKXOW_clean_sbu_0, # of connection points: 6
#     Node 29, Type 1, BuildingBlock: CUKXOW_clean_sbu_0, # of connection points: 6
#     Node 30, Type 1, BuildingBlock: CUKXOW_clean_sbu_0, # of connection points: 6
#     Node 31, Type 1, BuildingBlock: CUKXOW_clean_sbu_0, # of connection points: 6
#     Node 32, Type 1, BuildingBlock: CUKXOW_clean_sbu_0, # of connection points: 6
#     Node 33, Type 1, BuildingBlock: CUKXOW_clean_sbu_0, # of connection points: 6
#     Node 34, Type 1, BuildingBlock: CUKXOW_clean_sbu_0, # of connection points: 6
#     Node 35, Type 1, BuildingBlock: CUKXOW_clean_sbu_0, # of connection points: 6
#     Node 36, Type 1, BuildingBlock: CUKXOW_clean_sbu_0, # of connection points: 6
#     Node 37, Type 1, BuildingBlock: CUKXOW_clean_sbu_0, # of connection points: 6
#     Node 38, Type 1, BuildingBlock: CUKXOW_clean_sbu_0, # of connection points: 6
#     Node 39, Type 1, BuildingBlock: CUKXOW_clean_sbu_0, # of connection points: 6
#     Edge 40, Type (0, 1), None
#     Edge 41, Type (0, 1), None
#     Edge 42, Type (0, 1), None
#     Edge 43, Type (0, 1), None
#     Edge 44, Type (0, 1), None
#     Edge 45, Type (0, 1), None
#     Edge 46, Type (0, 1), None
#     Edge 47, Type (0, 1), None
#     Edge 48, Type (0, 1), None
#     Edge 49, Type (0, 1), None
#     Edge 50, Type (0, 1), None
#     Edge 51, Type (0, 1), None
#     Edge 52, Type (0, 1), None
#     Edge 53, Type (0, 1), None
#     Edge 54, Type (0, 1), None
#     Edge 55, Type (0, 1), None
#     Edge 56, Type (0, 1), None
#     Edge 57, Type (0, 1), None
#     Edge 58, Type (0, 1), None
#     Edge 59, Type (0, 1), None
#     Edge 60, Type (0, 1), None
#     Edge 61, Type (0, 1), None
#     Edge 62, Type (0, 1), None
#     Edge 63, Type (0, 1), None
#     Edge 64, Type (0, 1), None
#     Edge 65, Type (0, 1), None
#     Edge 66, Type (0, 1), None
#     Edge 67, Type (0, 1), None
#     Edge 68, Type (0, 1), None
#     Edge 69, Type (0, 1), None
#     Edge 70, Type (0, 1), None
#     Edge 71, Type (0, 1), None
#     Edge 72, Type (0, 1), None
#     Edge 73, Type (0, 1), None
#     Edge 74, Type (0, 1), None
#     Edge 75, Type (0, 1), None
#     Edge 76, Type (0, 1), None
#     Edge 77, Type (0, 1), None
#     Edge 78, Type (0, 1), None
#     Edge 79, Type (0, 1), None
#     Edge 80, Type (0, 1), None
#     Edge 81, Type (0, 1), None
#     Edge 82, Type (0, 1), None
#     Edge 83, Type (0, 1), None
#     Edge 84, Type (0, 1), None
#     Edge 85, Type (0, 1), None
#     Edge 86, Type (0, 1), None
#     Edge 87, Type (0, 1), None
#     Edge 88, Type (0, 1), None
#     Edge 89, Type (0, 1), None
#     Edge 90, Type (0, 1), None
#     Edge 91, Type (0, 1), None
#     Edge 92, Type (0, 1), None
#     Edge 93, Type (0, 1), None
#     Edge 94, Type (0, 1), None
#     Edge 95, Type (0, 1), None
#     Edge 96, Type (0, 1), None
#     Edge 97, Type (0, 1), None
#     Edge 98, Type (0, 1), None
#     Edge 99, Type (0, 1), None
#     Edge 100, Type (0, 1), None
#     Edge 101, Type (0, 1), None
#     Edge 102, Type (0, 1), None
#     Edge 103, Type (0, 1), None
#     Edge 104, Type (0, 1), None
#     Edge 105, Type (0, 1), None
#     Edge 106, Type (0, 1), None
#     Edge 107, Type (0, 1), None
#     Edge 108, Type (0, 1), None
#     Edge 109, Type (0, 1), None
#     Edge 110, Type (0, 1), None
#     Edge 111, Type (0, 1), None
#     Edge 112, Type (0, 1), None
#     Edge 113, Type (0, 1), None
#     Edge 114, Type (0, 1), None
#     Edge 115, Type (0, 1), None
#     Edge 116, Type (0, 1), None
#     Edge 117, Type (0, 1), None
#     Edge 118, Type (0, 1), None
#     Edge 119, Type (0, 1), None
#     Edge 120, Type (0, 1), None
#     Edge 121, Type (0, 1), None
#     Edge 122, Type (0, 1), None
#     Edge 123, Type (0, 1), None
#     Edge 124, Type (0, 1), None
#     Edge 125, Type (0, 1), None
#     Edge 126, Type (0, 1), None
#     Edge 127, Type (0, 1), None
#     Edge 128, Type (0, 1), None
#     Edge 129, Type (0, 1), None
#     Edge 130, Type (0, 1), None
#     Edge 131, Type (0, 1), None
#     Edge 132, Type (0, 1), None
#     Edge 133, Type (0, 1), None
#     Edge 134, Type (0, 1), None
#     Edge 135, Type (0, 1), None
# Relax obj value: 0.177
# Max RMSD: 0.281
# Mean RMSD: 0.175
data_MOF--net-gar--node1-AZAVOO_clean_sbu_0--node2-CUKXOW_clean_sbu_0--edge1-none
_symmetry_space_group_name_H-M    P1
_symmetry_Int_Tables_number       1
_symmetry_cell_setting            triclinic
loop_
_symmetry_equiv_pos_as_xyz
'x, y, z'
_cell_length_a     27.020943
_cell_length_b     23.748662
_cell_length_c     24.679096
_cell_angle_alpha  98.489217
_cell_angle_beta   93.186535
_cell_angle_gamma 97.997344
loop_
_atom_site_label
_atom_site_type_symbol
_atom_site_fract_x
_atom_site_fract_y
_atom_site_fract_z
_atom_type_partial_charge
Mg0 Mg 0.01981 0.24279 0.41577 0.0
O1 O 0.03852 0.33103 0.4751 0.0
O2 O 0.96655 0.33067 0.51539 0.0
Mg3 Mg 0.90853 0.25112 0.48624 0.0
C4 C 0.01053 0.3552 0.50871 0.0
C5 C 0.08838 0.21782 0.33981 0.0
O6 O 0.04417 0.19284 0.31709 0.0
O7 O 0.02835 0.1889 0.48277 0.0
O8 O 0.95699 0.19182 0.52411 0.0
O9 O 0.99456 0.28984 0.35252 0.0
O10 O 0.94651 0.24649 0.40966 0.0
C11 C -0.00073 0.17437 0.51885 0.0
C12 C 0.95129 0.27752 0.37085 0.0
O13 O 0.094 0.24109 0.39009 0.0
Mg14 Mg 0.01314 0.82756 0.65102 0.0
O15 O 0.02016 0.73996 0.59966 0.0
O16 O 0.94772 0.71584 0.55031 0.0
Mg17 Mg 0.89799 0.78207 0.57498 0.0
C18 C 0.99196 0.70681 0.5619 0.0
C19 C 0.08997 0.81361 0.71651 0.0
O20 O 0.06536 0.83737 0.75593 0.0
O21 O 0.02557 0.87141 0.57945 0.0
O22 O 0.9497 0.84624 0.5348 0.0
O23 O 0.98163 0.78614 0.71747 0.0
O24 O 0.93748 0.82399 0.65651 0.0
C25 C 0.99439 0.87323 0.53967 0.0
C26 C 0.9422 0.80695 0.70365 0.0
O27 O 0.09069 0.83091 0.67058 0.0
Mg28 Mg 0.51981 0.74278 0.91578 0.0
O29 O 0.53853 0.83103 0.9751 0.0
O30 O 0.46656 0.83069 0.01539 0.0
Mg31 Mg 0.40853 0.75114 0.98624 0.0
C32 C 0.51054 0.85521 0.0087 0.0
C33 C 0.58839 0.71779 0.83981 0.0
O34 O 0.54418 0.69283 0.81709 0.0
O35 O 0.52834 0.68889 0.98279 0.0
O36 O 0.45697 0.69184 0.02412 0.0
O37 O 0.49457 0.78983 0.85252 0.0
O38 O 0.44651 0.74649 0.90966 0.0
C39 C 0.49925 0.67438 0.01887 0.0
C40 C 0.4513 0.77752 0.87085 0.0
O41 O 0.59401 0.74107 0.89009 0.0
Mg42 Mg 0.51318 0.32761 0.15105 0.0
O43 O 0.5202 0.23999 0.09973 0.0
O44 O 0.44774 0.21584 0.05041 0.0
Mg45 Mg 0.398 0.2821 0.07504 0.0
C46 C 0.49198 0.20681 0.06199 0.0
C47 C 0.58999 0.31364 0.21652 0.0
O48 O 0.56542 0.33741 0.25597 0.0
O49 O 0.52559 0.37143 0.07946 0.0
O50 O 0.44972 0.34623 0.03484 0.0
O51 O 0.48168 0.28621 0.21752 0.0
O52 O 0.43752 0.32401 0.15654 0.0
C53 C 0.4944 0.37323 0.03969 0.0
C54 C 0.44224 0.30698 0.20368 0.0
O55 O 0.59074 0.33099 0.17062 0.0
Mg56 Mg -0.00066 0.78637 0.2106 0.0
O57 O 0.01086 0.69786 0.1635 0.0
O58 O 0.9484 0.67668 0.09844 0.0
Mg59 Mg 0.88483 0.72745 0.12279 0.0
C60 C 0.99095 0.66911 0.11804 0.0
C61 C 0.11378 0.81721 0.27898 0.0
O62 O 0.09267 0.84084 0.32146 0.0
O63 O 0.00456 0.82542 0.12981 0.0
O64 O 0.92798 0.79906 0.08479 0.0
O65 O 0.95468 0.75506 0.27992 0.0
O66 O 0.91802 0.77175 0.20441 0.0
C67 C 0.97203 0.82778 0.09037 0.0
C68 C 0.91334 0.75882 0.25256 0.0
O69 O 0.08687 0.7955 0.23442 0.0
Mg70 Mg 0.51936 0.78662 0.34314 0.0
O71 O 0.5082 0.86755 0.40707 0.0
O72 O 0.4411 0.83099 0.44678 0.0
Mg73 Mg 0.41095 0.73693 0.41484 0.0
C74 C 0.47551 0.87244 0.44255 0.0
C75 C 0.62656 0.78717 0.30271 0.0
O76 O 0.60368 0.734 0.289 0.0
O77 O 0.55384 0.7506 0.41746 0.0
O78 O 0.48355 0.72413 0.45623 0.0
O79 O 0.458 0.80667 0.28029 0.0
O80 O 0.44071 0.74881 0.33856 0.0
C81 C 0.53103 0.73126 0.4565 0.0
C82 C 0.42394 0.77382 0.30052 0.0
O83 O 0.60167 0.82509 0.32553 0.0
Mg84 Mg 0.49916 0.28632 0.71058 0.0
O85 O 0.51084 0.19789 0.66344 0.0
O86 O 0.44853 0.1767 0.59823 0.0
Mg87 Mg 0.38485 0.22727 0.62259 0.0
C88 C 0.49106 0.1692 0.6179 0.0
C89 C 0.61369 0.31714 0.77902 0.0
O90 O 0.59262 0.34078 0.82153 0.0
O91 O 0.50445 0.32547 0.62985 0.0
O92 O 0.42794 0.29896 0.58466 0.0
O93 O 0.45447 0.25476 0.77973 0.0
O94 O 0.41779 0.27169 0.70433 0.0
C95 C 0.47196 0.32777 0.59033 0.0
C96 C 0.41313 0.25861 0.75243 0.0
O97 O 0.58674 0.29545 0.73447 0.0
Mg98 Mg 0.01939 0.2867 0.84319 0.0
O99 O 0.00816 0.36762 0.90717 0.0
O100 O 0.94105 0.33093 0.9468 0.0
Mg101 Mg 0.91098 0.23685 0.91485 0.0
C102 C 0.97542 0.37244 0.94261 0.0
C103 C 0.12667 0.28718 0.80274 0.0
O104 O 0.10384 0.23399 0.78915 0.0
O105 O 0.05389 0.25067 0.91752 0.0
O106 O 0.9836 0.2241 0.95626 0.0
O107 O 0.958 0.30672 0.78031 0.0
O108 O 0.94073 0.24887 0.83859 0.0
C109 C 0.03109 0.23129 0.95654 0.0
C110 C 0.92394 0.27387 0.80054 0.0
O111 O 0.10174 0.32512 0.82551 0.0
Mg112 Mg 0.44177 0.10536 0.28156 0.0
O113 O 0.38144 0.02962 0.28881 0.0
O114 O 0.34479 0.0504 0.36759 0.0
Mg115 Mg 0.37917 0.13928 0.40885 0.0
C116 C 0.34892 0.01767 0.32278 0.0
C117 C 0.50061 0.07463 0.1781 0.0
O118 O 0.53412 0.10839 0.21335 0.0
O119 O 0.37394 0.14956 0.25356 0.0
O120 O 0.33918 0.16378 0.33346 0.0
O121 O 0.49975 0.06946 0.33381 0.0
O122 O 0.44734 0.12389 0.36959 0.0
C123 C 0.33894 0.16609 0.28228 0.0
C124 C 0.48076 0.09152 0.3774 0.0
O125 O 0.45534 0.06629 0.19096 0.0
Mg126 Mg 0.2511 0.10887 0.46607 0.0
O127 O 0.24152 0.16369 0.54487 0.0
O128 O 0.31118 0.22857 0.55754 0.0
Mg129 Mg 0.37344 0.19708 0.51027 0.0
C130 C 0.26652 0.2112 0.56781 0.0
C131 C 0.15121 0.04201 0.47761 0.0
O132 O 0.18205 0.0081 0.49202 0.0
O133 O 0.25498 0.18996 0.42826 0.0
O134 O 0.33498 0.23399 0.44425 0.0
O135 O 0.27488 0.04012 0.50951 0.0
O136 O 0.32419 0.11474 0.48771 0.0
C137 C 0.29053 0.2297 0.42235 0.0
C138 C 0.31851 0.07029 0.51177 0.0
O139 O 0.16729 0.08639 0.45696 0.0
Mg140 Mg 0.14661 0.99978 0.8099 0.0
O141 O 0.17972 0.06526 0.75829 0.0
O142 O 0.21144 0.0885 0.84436 0.0
Mg143 Mg 0.19086 0.01862 0.90241 0.0
C144 C 0.2073 0.10069 0.79554 0.0
C145 C 0.04995 0.96762 0.71813 0.0
O146 O 0.00771 0.93347 0.70135 0.0
O147 O 0.19636 0.93275 0.77833 0.0
O148 O 0.23699 0.95452 0.86012 0.0
O149 O 0.09102 0.04561 0.85176 0.0
O150 O 0.1114 0.96535 0.87584 0.0
C151 C 0.23154 0.92593 0.812 0.0
C152 C 0.08072 0.00244 0.87769 0.0
O153 O 0.07917 0.95355 0.754 0.0
Mg154 Mg 0.23003 0.91331 0.05765 0.0
O155 O 0.21945 0.84983 0.97164 0.0
O156 O 0.29098 0.81323 0.97642 0.0
Mg157 Mg 0.34505 0.84191 0.05301 0.0
C158 C 0.25013 0.81796 0.95 0.0
C159 C 0.12703 0.98004 0.07335 0.0
O160 O 0.12969 0.97546 0.12574 0.0
O161 O 0.22091 0.84197 0.12075 0.0
O162 O 0.29465 0.80842 0.11532 0.0
O163 O 0.27698 0.97844 0.01365 0.0
O164 O 0.30888 0.91846 0.05962 0.0
C165 C 0.25335 0.81105 0.13717 0.0
C166 C 0.31562 0.95726 0.02911 0.0
O167 O 0.15558 0.95437 0.04142 0.0
Mg168 Mg 0.27197 0.45022 0.08865 0.0
O169 O 0.27816 0.38848 0.01196 0.0
O170 O 0.34941 0.35084 0.01808 0.0
Mg171 Mg 0.36817 0.36956 0.1091 0.0
C172 C 0.3092 0.35719 0.99189 0.0
C173 C 0.19471 0.51166 0.0487 0.0
O174 O 0.23042 0.55361 0.06998 0.0
O175 O 0.23616 0.37601 0.12926 0.0
O176 O 0.28707 0.32151 0.09132 0.0
O177 O 0.32329 0.51453 0.05475 0.0
O178 O 0.34841 0.45694 0.11032 0.0
C179 C 0.25072 0.32707 0.12074 0.0
C180 C 0.35951 0.4947 0.07845 0.0
O181 O 0.19915 0.46019 0.05255 0.0
Mg182 Mg 0.81924 0.16082 0.00902 0.0
O183 O 0.77622 0.19689 0.08311 0.0
O184 O 0.84251 0.26203 0.09617 0.0
Mg185 Mg 0.85976 0.19944 0.02392 0.0
C186 C 0.80124 0.24141 0.11262 0.0
C187 C 0.71486 0.05142 0.99864 0.0
O188 O 0.70547 0.99649 0.9782 0.0
O189 O 0.77746 0.20492 0.94044 0.0
O190 O 0.84466 0.26487 0.96516 0.0
O191 O 0.87189 0.103 0.04497 0.0
O192 O 0.88063 0.12238 0.96226 0.0
C193 C 0.8051 0.25079 0.93332 0.0
C194 C 0.89375 0.09363 0.99999 0.0
O195 O 0.75832 0.07865 0.99311 0.0
Mg196 Mg 0.0978 0.45389 0.29354 0.0
O197 O 0.15258 0.5344 0.28111 0.0
O198 O 0.15879 0.58813 0.36251 0.0
Mg199 Mg 0.17306 0.50211 0.37302 0.0
C200 C 0.16773 0.58177 0.31231 0.0
C201 C 0.02723 0.46013 0.18314 0.0
O202 O 0.99279 0.46021 0.21864 0.0
O203 O 0.16822 0.40233 0.28449 0.0
O204 O 0.19528 0.41668 0.3726 0.0
O205 O 0.04067 0.50546 0.3292 0.0
O206 O 0.09238 0.474 0.38665 0.0
C207 C 0.19872 0.39372 0.32356 0.0
C208 C 0.05408 0.49989 0.37873 0.0
O209 O 0.07179 0.45247 0.19887 0.0
Mg210 Mg 0.77199 0.9501 0.58845 0.0
O211 O 0.77814 0.88836 0.51173 0.0
O212 O 0.84937 0.8507 0.51784 0.0
Mg213 Mg 0.86816 0.86941 0.60884 0.0
C214 C 0.80917 0.85708 0.49166 0.0
C215 C 0.6948 0.01166 0.54866 0.0
O216 O 0.73052 0.05357 0.57001 0.0
O217 O 0.73616 0.87593 0.62909 0.0
O218 O 0.78705 0.82136 0.59119 0.0
O219 O 0.82331 0.01441 0.55457 0.0
O220 O 0.84842 0.9568 0.61011 0.0
C221 C 0.75072 0.82698 0.62063 0.0
C222 C 0.85952 0.9946 0.57828 0.0
O223 O 0.69921 0.96016 0.55242 0.0
Mg224 Mg 0.88448 0.07078 0.25107 0.0
O225 O 0.83432 0.97928 0.24531 0.0
O226 O 0.80919 0.9843 0.33053 0.0
Mg227 Mg 0.83373 0.07111 0.38472 0.0
C228 C 0.81125 0.95628 0.28259 0.0
C229 C 0.94344 0.08831 0.16126 0.0
O230 O 0.96612 0.12373 0.20415 0.0
O231 O 0.81882 0.11878 0.24392 0.0
O232 O 0.79303 0.12046 0.32914 0.0
O233 O 0.94722 0.03281 0.28231 0.0
O234 O 0.89454 0.07936 0.33229 0.0
C235 C 0.79041 0.13423 0.28126 0.0
C236 C 0.92984 0.04856 0.32904 0.0
O237 O 0.9003 0.06014 0.16436 0.0
Mg238 Mg 0.31899 0.66071 0.50898 0.0
O239 O 0.27604 0.69688 0.5831 0.0
O240 O 0.34241 0.7619 0.59614 0.0
Mg241 Mg 0.35956 0.69928 0.5239 0.0
C242 C 0.30112 0.74136 0.61261 0.0
C243 C 0.21465 0.55138 0.49859 0.0
O244 O 0.20519 0.49645 0.47815 0.0
O245 O 0.27732 0.70493 0.44042 0.0
O246 O 0.34459 0.76476 0.46516 0.0
O247 O 0.37146 0.60274 0.54493 0.0
O248 O 0.38036 0.6222 0.46226 0.0
C249 C 0.30503 0.75076 0.43332 0.0
C250 C 0.39337 0.59338 0.49998 0.0
O251 O 0.2581 0.57856 0.49299 0.0
Mg252 Mg 0.38447 0.57078 0.75111 0.0
O253 O 0.33435 0.47925 0.74535 0.0
O254 O 0.30922 0.48425 0.83057 0.0
Mg255 Mg 0.33372 0.57108 0.88475 0.0
C256 C 0.31129 0.45623 0.78263 0.0
C257 C 0.44334 0.58836 0.66126 0.0
O258 O 0.46605 0.6238 0.70413 0.0
O259 O 0.31879 0.61876 0.74397 0.0
O260 O 0.293 0.62044 0.82918 0.0
O261 O 0.44722 0.53284 0.78234 0.0
O262 O 0.39453 0.57937 0.83232 0.0
C263 C 0.29038 0.63421 0.7813 0.0
C264 C 0.42983 0.54857 0.82907 0.0
O265 O 0.40024 0.56015 0.66441 0.0
Mg266 Mg 0.59775 0.95386 0.79353 0.0
O267 O 0.65251 0.03436 0.78112 0.0
O268 O 0.65877 0.08815 0.8625 0.0
Mg269 Mg 0.67302 0.00212 0.87303 0.0
C270 C 0.6677 0.08174 0.81228 0.0
C271 C 0.52732 0.96016 0.68307 0.0
O272 O 0.49285 0.96024 0.71852 0.0
O273 O 0.66817 0.90231 0.78448 0.0
O274 O 0.69524 0.91668 0.87259 0.0
O275 O 0.54059 0.00543 0.8292 0.0
O276 O 0.59233 0.97398 0.88663 0.0
C277 C 0.69868 0.89371 0.82355 0.0
C278 C 0.55402 0.99987 0.87874 0.0
O279 O 0.57186 0.95248 0.69884 0.0
Mg280 Mg 0.75096 0.60906 0.96623 0.0
O281 O 0.74129 0.66391 0.04497 0.0
O282 O 0.81101 0.72869 0.0578 0.0
Mg283 Mg 0.87328 0.69726 0.01051 0.0
C284 C 0.76632 0.71137 0.06798 0.0
C285 C 0.6511 0.54207 0.97753 0.0
O286 O 0.68193 0.50806 0.99174 0.0
O287 O 0.75489 0.6901 0.92834 0.0
O288 O 0.83489 0.73413 0.94439 0.0
O289 O 0.77466 0.54036 0.00979 0.0
O290 O 0.82404 0.61492 0.98795 0.0
C291 C 0.79047 0.72981 0.92242 0.0
C292 C 0.81831 0.57049 0.01204 0.0
O293 O 0.66717 0.58656 0.95704 0.0
Mg294 Mg 0.94172 0.60529 0.78169 0.0
O295 O 0.88139 0.52959 0.78893 0.0
O296 O 0.84467 0.55037 0.86766 0.0
Mg297 Mg 0.87902 0.63927 0.90892 0.0
C298 C 0.84885 0.51764 0.82287 0.0
C299 C 0.00039 0.57506 0.67788 0.0
O300 O 0.03376 0.60974 0.71259 0.0
O301 O 0.87392 0.6495 0.7536 0.0
O302 O 0.83912 0.6638 0.83348 0.0
O303 O -0.00037 0.5694 0.83398 0.0
O304 O 0.94722 0.62389 0.86971 0.0
C305 C 0.83892 0.66609 0.7823 0.0
C306 C 0.98061 0.59148 0.87754 0.0
O307 O 0.95531 0.56601 0.69118 0.0
Mg308 Mg 0.73003 0.41329 0.55764 0.0
O309 O 0.71939 0.34982 0.47161 0.0
O310 O 0.79094 0.31326 0.4764 0.0
Mg311 Mg 0.84505 0.34188 0.55296 0.0
C312 C 0.75008 0.31796 0.44997 0.0
C313 C 0.62677 0.47993 0.57316 0.0
O314 O 0.62848 0.4742 0.62528 0.0
O315 O 0.72097 0.34197 0.62077 0.0
O316 O 0.79467 0.30836 0.61529 0.0
O317 O 0.77699 0.47838 0.5136 0.0
O318 O 0.8089 0.41845 0.55959 0.0
C319 C 0.75339 0.311 0.63716 0.0
C320 C 0.81563 0.45723 0.52906 0.0
O321 O 0.65592 0.45499 0.54146 0.0
Mg322 Mg 0.64657 0.49979 0.31 0.0
O323 O 0.6797 0.56524 0.25835 0.0
O324 O 0.71148 0.58849 0.34439 0.0
Mg325 Mg 0.69082 0.51861 0.40242 0.0
C326 C 0.70733 0.60065 0.29556 0.0
C327 C 0.54993 0.46764 0.21816 0.0
O328 O 0.5077 0.43349 0.20139 0.0
O329 O 0.6963 0.43274 0.27839 0.0
O330 O 0.73696 0.4545 0.36016 0.0
O331 O 0.59097 0.54565 0.35185 0.0
O332 O 0.61132 0.46537 0.37593 0.0
C333 C 0.7315 0.42591 0.31204 0.0
C334 C 0.58064 0.50246 0.37775 0.0
O335 O 0.57914 0.45359 0.25408 0.0
Tb336 Tb 0.04053 0.09655 0.0211 0.0
C337 C 0.04494 0.00631 0.92019 0.0
Tb338 Tb 0.98728 0.9735 0.01948 0.0
O339 O 0.11485 0.06861 0.03443 0.0
O340 O 0.05164 0.02561 0.061 0.0
O341 O 0.03304 0.0578 0.9358 0.0
C342 C 0.98199 0.87378 0.05725 0.0
O343 O 0.03277 0.96367 0.94847 0.0
C344 C 0.92508 0.04523 0.99184 0.0
C345 C 0.97138 0.07156 0.11501 0.0
O346 O 0.95235 0.88362 0.01698 0.0
O347 O 0.01447 0.91905 0.07419 0.0
O348 O 0.9114 0.9963 0.00876 0.0
O349 O 0.97174 0.04716 0.98412 0.0
O350 O 0.96515 0.01591 0.09573 0.0
O351 O 4e-05 0.11157 0.09408 0.0
C352 C 0.05641 0.20362 0.99703 0.0
O353 O 0.03017 0.18654 0.03581 0.0
O354 O 0.08048 0.16203 0.97918 0.0
C355 C 0.09688 0.02239 0.05343 0.0
Tb356 Tb 0.28409 0.85189 0.31034 0.0
C357 C 0.36839 0.77543 0.28989 0.0
Tb358 Tb 0.25015 0.72465 0.27251 0.0
O359 O 0.32099 0.83707 0.388 0.0
O360 O 0.2609 0.77891 0.35045 0.0
O361 O 0.35502 0.82603 0.28543 0.0
C362 C 0.19538 0.62893 0.29057 0.0
O363 O 0.33351 0.72946 0.2912 0.0
C364 C 0.24692 0.77888 0.18495 0.0
C365 C 0.16729 0.80908 0.2851 0.0
O366 O 0.2403 0.63107 0.27299 0.0
O367 O 0.18255 0.67929 0.29757 0.0
O368 O 0.2416 0.72286 0.18174 0.0
O369 O 0.25963 0.79853 0.23512 0.0
O370 O 0.17741 0.75573 0.27435 0.0
O371 O 0.20285 0.85434 0.30055 0.0
C372 C 0.31892 0.96124 0.31337 0.0
O373 O 0.28982 0.94124 0.34863 0.0
O374 O 0.32608 0.92032 0.27511 0.0
C375 C 0.29499 0.78731 0.38963 0.0
Tb376 Tb 0.5519 0.03861 0.52835 0.0
C377 C 0.51586 0.97836 0.62873 0.0
Tb378 Tb 0.4496 0.01725 0.53594 0.0
O379 O 0.55104 0.132 0.55393 0.0
O380 O 0.50493 0.07158 0.58774 0.0
O381 O 0.55272 0.98858 0.59689 0.0
C382 C 0.3622 0.05275 0.5353 0.0
O383 O 0.47107 0.99275 0.61624 0.0
C384 C 0.47596 0.92526 0.4829 0.0
C385 C 0.49075 0.07229 0.43165 0.0
O386 O 0.36809 0.99974 0.5376 0.0
O387 O 0.40482 0.08436 0.53571 0.0
O388 O 0.43981 0.92611 0.51534 0.0
O389 O 0.49502 0.97651 0.47791 0.0
O390 O 0.45274 0.06103 0.46203 0.0
O391 O 0.5357 0.06134 0.44691 0.0
C392 C 0.64637 0.02346 0.53098 0.0
O393 O 0.63161 0.07334 0.53983 0.0
O394 O 0.60853 0.98317 0.51804 0.0
C395 C 0.51659 0.12435 0.58777 0.0
Tb396 Tb 0.28586 0.28214 0.83381 0.0
C397 C 0.29456 0.39311 0.77687 0.0
Tb398 Tb 0.24925 0.26777 0.7236 0.0
O399 O 0.36434 0.26913 0.83309 0.0
O400 O 0.32194 0.26398 0.75898 0.0
O401 O 0.29456 0.37168 0.82286 0.0
C402 C 0.24963 0.24053 0.61661 0.0
O403 O 0.28141 0.35934 0.72946 0.0
C404 C 0.17921 0.30068 0.78778 0.0
C405 C 0.23135 0.159 0.7872 0.0
O406 O 0.27936 0.28137 0.64712 0.0
O407 O 0.21711 0.21629 0.6459 0.0
O408 O 0.18615 0.31481 0.73952 0.0
O409 O 0.21063 0.26714 0.79622 0.0
O410 O 0.23179 0.17635 0.73807 0.0
O411 O 0.2485 0.19523 0.83246 0.0
C412 C 0.29714 0.32676 0.93733 0.0
O413 O 0.3139 0.28001 0.91739 0.0
O414 O 0.27107 0.34567 0.90036 0.0
C415 C 0.36547 0.26173 0.7804 0.0
Tb416 Tb 0.98647 0.01393 0.47113 0.0
C417 C 0.91087 0.00953 0.56345 0.0
Tb418 Tb 0.02825 0.03864 0.59227 0.0
O419 O 0.99584 0.92223 0.46052 0.0
O420 O 0.99095 0.96901 0.53645 0.0
O421 O 0.91753 0.02024 0.51286 0.0
C422 C 0.06368 0.01559 0.68903 0.0
O423 O 0.94898 0.00498 0.5982 0.0
C424 C 0.01142 0.12883 0.5487 0.0
C425 C 0.10117 0.03488 0.49541 0.0
O426 O 0.02997 0.04827 0.68153 0.0
O427 O 0.08161 0.00303 0.64183 0.0
O428 O 0.01206 0.12845 0.60136 0.0
O429 O 0.02578 0.08412 0.52619 0.0
O430 O 0.09519 0.02764 0.5473 0.0
O431 O 0.06423 0.0424 0.46131 0.0
C432 C 0.94739 0.03092 0.37817 0.0
O433 O 0.98104 0.99753 0.38208 0.0
O434 O 0.93446 0.05236 0.42565 0.0
C435 C 0.00296 0.92321 0.51315 0.0
Tb436 Tb 0.32469 0.80643 0.79409 0.0
C437 C 0.25054 0.80146 0.88921 0.0
Tb438 Tb 0.21144 0.76246 0.76403 0.0
O439 O 0.31341 0.89532 0.82148 0.0
O440 O 0.26122 0.83962 0.76651 0.0
O441 O 0.29606 0.79956 0.87313 0.0
C442 C 0.12454 0.77732 0.72855 0.0
O443 O 0.21075 0.79499 0.85335 0.0
C444 C 0.25949 0.67736 0.77295 0.0
C445 C 0.28909 0.7607 0.66938 0.0
O446 O 0.1346 0.76799 0.77805 0.0
O447 O 0.16112 0.77157 0.69787 0.0
O448 O 0.21082 0.66921 0.76428 0.0
O449 O 0.27491 0.73014 0.77882 0.0
O450 O 0.24151 0.75205 0.68217 0.0
O451 O 0.32791 0.78035 0.70625 0.0
C452 C 0.40759 0.79186 0.84406 0.0
O453 O 0.40617 0.82485 0.80601 0.0
O454 O 0.36374 0.76639 0.85134 0.0
C455 C 0.26872 0.88809 0.79666 0.0
Tb456 Tb 0.46224 0.01869 0.00714 0.0
C457 C 0.51951 0.91835 0.02698 0.0
Tb458 Tb 0.57424 0.04872 0.04182 0.0
O459 O 0.47544 0.02188 0.91911 0.0
O460 O 0.52998 0.00441 0.97197 0.0
O461 O 0.4778 0.94026 0.0339 0.0
C462 C 0.67397 0.07597 0.027 0.0
O463 O 0.56228 0.95223 0.02147 0.0
C464 C 0.51771 0.04556 0.12643 0.0
C465 C 0.50425 0.14992 0.03966 0.0
O466 O 0.6543 0.05161 0.06647 0.0
O467 O 0.63596 0.08753 0.99797 0.0
O468 O 0.5642 0.036 0.1265 0.0
O469 O 0.50704 0.06017 0.08037 0.0
O470 O 0.55096 0.13658 0.04438 0.0
O471 O 0.46427 0.11009 0.02775 0.0
C472 C 0.36642 0.97624 0.01493 0.0
O473 O 0.38104 0.01565 0.9854 0.0
O474 O 0.40518 0.9606 0.03798 0.0
C475 C 0.52243 0.01562 0.92458 0.0
Tb476 Tb 0.21502 0.2395 0.26433 0.0
C477 C 0.28342 0.26036 0.37717 0.0
Tb478 Tb 0.32106 0.31768 0.28138 0.0
O479 O 0.2484 0.15879 0.26148 0.0
O480 O 0.28904 0.23387 0.25031 0.0
O481 O 0.2384 0.24893 0.3511 0.0
C482 C 0.40955 0.32349 0.24569 0.0
O483 O 0.32365 0.28487 0.35712 0.0
C484 C 0.24383 0.36684 0.31158 0.0
C485 C 0.25283 0.299 0.16816 0.0
O486 O 0.39297 0.28839 0.27824 0.0
O487 O 0.38025 0.36217 0.24162 0.0
O488 O 0.28994 0.38755 0.33172 0.0
O489 O 0.24535 0.32645 0.27334 0.0
O490 O 0.29753 0.31179 0.19553 0.0
O491 O 0.21168 0.27404 0.18757 0.0
C492 C 0.13005 0.22698 0.30723 0.0
O493 O 0.1373 0.19754 0.25964 0.0
O494 O 0.16849 0.26425 0.3271 0.0
C495 C 0.29383 0.18344 0.25643 0.0
Tb496 Tb 0.48639 0.51391 0.97117 0.0
C497 C 0.41085 0.50956 0.06355 0.0
Tb498 Tb 0.52824 0.53864 0.0923 0.0
O499 O 0.4958 0.42223 0.96055 0.0
O500 O 0.49092 0.469 0.03649 0.0
O501 O 0.41747 0.52024 0.01295 0.0
C502 C 0.56367 0.5156 0.18906 0.0
O503 O 0.44897 0.50501 0.09828 0.0
C504 C 0.51138 0.62883 0.04872 0.0
C505 C 0.60109 0.53489 0.99538 0.0
O506 O 0.52997 0.54828 0.18156 0.0
O507 O 0.58159 0.50303 0.14185 0.0
O508 O 0.51206 0.62846 0.10139 0.0
O509 O 0.52572 0.58411 0.02621 0.0
O510 O 0.59515 0.52764 0.04728 0.0
O511 O 0.56413 0.54244 0.96133 0.0
C512 C 0.44735 0.53091 0.8782 0.0
O513 O 0.48101 0.49754 0.88213 0.0
O514 O 0.43438 0.55231 0.92567 0.0
C515 C 0.50295 0.42322 0.01318 0.0
Tb516 Tb 0.82469 0.30645 0.29409 0.0
C517 C 0.75051 0.30146 0.38918 0.0
Tb518 Tb 0.71144 0.26245 0.26398 0.0
O519 O 0.81339 0.39533 0.32148 0.0
O520 O 0.76121 0.33963 0.2665 0.0
O521 O 0.79604 0.29956 0.37312 0.0
C522 C 0.62453 0.27731 0.22852 0.0
O523 O 0.71073 0.29497 0.35331 0.0
C524 C 0.7595 0.17737 0.27291 0.0
C525 C 0.78916 0.26072 0.16938 0.0
O526 O 0.63461 0.26795 0.27801 0.0
O527 O 0.66112 0.27157 0.19783 0.0
O528 O 0.71084 0.1692 0.26422 0.0
O529 O 0.77491 0.23015 0.2788 0.0
O530 O 0.74157 0.25204 0.18213 0.0
O531 O 0.82795 0.28039 0.20627 0.0
C532 C 0.90758 0.29187 0.34407 0.0
O533 O 0.90617 0.32487 0.30602 0.0
O534 O 0.86373 0.2664 0.35134 0.0
C535 C 0.7687 0.3881 0.29666 0.0
Tb536 Tb 0.9622 0.51869 0.50702 0.0
C537 C 0.01946 0.41835 0.52696 0.0
Tb538 Tb 0.07416 0.54872 0.54184 0.0
O539 O 0.97546 0.52187 0.41901 0.0
O540 O 0.02996 0.5044 0.47193 0.0
O541 O 0.97773 0.44024 0.53378 0.0
C542 C 0.17385 0.57599 0.52704 0.0
O543 O 0.06225 0.45224 0.52153 0.0
C544 C 0.01749 0.54569 0.62636 0.0
C545 C 0.00422 0.64993 0.53954 0.0
O546 O 0.15419 0.55158 0.56649 0.0
O547 O 0.13586 0.58762 0.49806 0.0
O548 O 0.064 0.53614 0.62655 0.0
O549 O 0.00693 0.5602 0.58024 0.0
O550 O 0.05092 0.63658 0.54433 0.0
O551 O 0.96424 0.61011 0.52759 0.0
C552 C 0.86641 0.4762 0.51485 0.0
O553 O 0.881 0.51558 0.48526 0.0
O554 O 0.90518 0.46062 0.53793 0.0
C555 C 0.02246 0.51562 0.42454 0.0
Tb556 Tb 0.78589 0.7821 0.33358 0.0
C557 C 0.79453 0.89316 0.27684 0.0
Tb558 Tb 0.74925 0.76782 0.2238 0.0
O559 O 0.86436 0.76913 0.33306 0.0
O560 O 0.82212 0.76401 0.25878 0.0
O561 O 0.79463 0.87169 0.32279 0.0
C562 C 0.74939 0.74066 0.11677 0.0
O563 O 0.78129 0.85939 0.22946 0.0
C564 C 0.67915 0.80065 0.28789 0.0
C565 C 0.7314 0.65895 0.28718 0.0
O566 O 0.77905 0.7816 0.14722 0.0
O567 O 0.71704 0.71628 0.14616 0.0
O568 O 0.68622 0.81494 0.23973 0.0
O569 O 0.71052 0.76706 0.29636 0.0
O570 O 0.73172 0.67634 0.23808 0.0
O571 O 0.74868 0.69516 0.33239 0.0
C572 C 0.79715 0.8267 0.43708 0.0
O573 O 0.81385 0.77991 0.41716 0.0
O574 O 0.77118 0.8457 0.4001 0.0
C575 C 0.8656 0.76179 0.28039 0.0
Tb576 Tb 0.78403 0.35185 0.81033 0.0
C577 C 0.86838 0.27544 0.78989 0.0
Tb578 Tb 0.75013 0.22463 0.77252 0.0
O579 O 0.82097 0.33706 0.88797 0.0
O580 O 0.76086 0.27887 0.85048 0.0
O581 O 0.85499 0.32603 0.78543 0.0
C582 C 0.69538 0.12884 0.79049 0.0
O583 O 0.83351 0.22946 0.79118 0.0
C584 C 0.74695 0.27883 0.68493 0.0
C585 C 0.66722 0.30903 0.78509 0.0
O586 O 0.74049 0.13113 0.77341 0.0
O587 O 0.68232 0.17909 0.79699 0.0
O588 O 0.74168 0.22281 0.68174 0.0
O589 O 0.75962 0.29849 0.73511 0.0
O590 O 0.67736 0.25568 0.77445 0.0
O591 O 0.70278 0.3543 0.80048 0.0
C592 C 0.81885 0.46121 0.81343 0.0
O593 O 0.78973 0.44118 0.84866 0.0
O594 O 0.82605 0.4203 0.77516 0.0
C595 C 0.79499 0.2873 0.88963 0.0
Tb596 Tb 0.71502 0.7395 0.76429 0.0
C597 C 0.7834 0.76041 0.87717 0.0
Tb598 Tb 0.82104 0.8177 0.78137 0.0
O599 O 0.7484 0.65878 0.76142 0.0
O600 O 0.78904 0.73388 0.75032 0.0
O601 O 0.73839 0.74895 0.85107 0.0
C602 C 0.90953 0.82349 0.74567 0.0
O603 O 0.82364 0.78492 0.85713 0.0
C604 C 0.7438 0.86684 0.81156 0.0
C605 C 0.75283 0.799 0.66812 0.0
O606 O 0.89295 0.78839 0.77822 0.0
O607 O 0.88025 0.86218 0.74162 0.0
O608 O 0.7899 0.88755 0.83171 0.0
O609 O 0.74532 0.82646 0.77331 0.0
O610 O 0.79752 0.81188 0.69552 0.0
O611 O 0.71169 0.774 0.68751 0.0
C612 C 0.63006 0.72696 0.80723 0.0
O613 O 0.6373 0.69753 0.75962 0.0
O614 O 0.6685 0.76421 0.8271 0.0
C615 C 0.79383 0.68344 0.75641 0.0
Tb616 Tb 0.54025 0.59645 0.52095 0.0
C617 C 0.54473 0.50625 0.42014 0.0
Tb618 Tb 0.48711 0.47349 0.51949 0.0
O619 O 0.61459 0.56846 0.53412 0.0
O620 O 0.55145 0.52563 0.561 0.0
O621 O 0.53269 0.55768 0.43567 0.0
C622 C 0.48191 0.37378 0.55725 0.0
O623 O 0.53264 0.46366 0.44849 0.0
C624 C 0.42477 0.54505 0.49192 0.0
C625 C 0.47125 0.57159 0.61499 0.0
O626 O 0.45232 0.38355 0.51691 0.0
O627 O 0.51429 0.41912 0.57428 0.0
O628 O 0.41119 0.49617 0.50895 0.0
O629 O 0.47141 0.54704 0.48403 0.0
O630 O 0.46506 0.51592 0.59578 0.0
O631 O 0.49982 0.61159 0.59396 0.0
C632 C 0.55632 0.70354 0.49696 0.0
O633 O 0.53005 0.68648 0.53573 0.0
O634 O 0.58029 0.66188 0.47906 0.0
C635 C 0.59666 0.52238 0.55337 0.0
Tb636 Tb 0.05177 0.53853 0.02844 0.0
C637 C 0.0157 0.47829 0.1288 0.0
Tb638 Tb 0.94932 0.51717 0.03605 0.0
O639 O 0.051 0.63191 0.05416 0.0
O640 O 0.00472 0.57146 0.08775 0.0
O641 O 0.05256 0.48848 0.09695 0.0
C642 C 0.86198 0.55286 0.03555 0.0
O643 O 0.9709 0.49267 0.11633 0.0
C644 C 0.97574 0.42524 0.98296 0.0
C645 C 0.99055 0.57224 0.93178 0.0
O646 O 0.8678 0.49982 0.0378 0.0
O647 O 0.90463 0.5844 0.03592 0.0
O648 O 0.93951 0.42604 0.0153 0.0
O649 O 0.9948 0.47651 0.97805 0.0
O650 O 0.95251 0.56093 0.96213 0.0
O651 O 0.0355 0.56129 0.94704 0.0
C652 C 0.14626 0.52341 0.03101 0.0
O653 O 0.13147 0.57328 0.03988 0.0
O654 O 0.10843 0.48311 0.01808 0.0
C655 C 0.01641 0.62424 0.08784 0.0
loop_
_geom_bond_atom_site_label_1
_geom_bond_atom_site_label_2
_geom_bond_distance
_geom_bond_site_symmetry_2
_ccdc_geom_bond_type
Mg0 O1 2.028 . S
Mg0 O7 1.986 . S
Mg0 O9 2.114 1_455 S
Mg0 O10 2.251 1_455 S
Mg0 O13 2.010 . S
O1 Mg0 2.028 . S
O1 C4 1.250 . S
O2 Mg3 2.028 . S
O2 C4 1.248 1_655 S
Mg3 O2 2.028 . S
Mg3 O8 2.032 . S
Mg3 O10 2.079 . S
C4 O1 1.250 . S
C4 O2 1.248 1_455 S
C5 O6 1.264 . S
C5 O13 1.249 . S
O6 C5 1.264 . S
O7 Mg0 1.986 . S
O7 C11 1.246 . S
O8 Mg3 2.032 . S
O8 C11 1.259 1_655 S
O9 Mg0 2.114 1_655 S
O9 C12 1.252 . S
O10 Mg0 2.251 1_655 S
O10 Mg3 2.079 . S
O10 C12 1.273 . S
C11 O7 1.246 . S
C11 O8 1.259 1_455 S
C12 O9 1.252 . S
C12 O10 1.273 . S
O13 Mg0 2.010 . S
O13 C5 1.249 . S
Mg14 O15 2.028 . S
Mg14 O21 1.986 . S
Mg14 O23 2.114 1_455 S
Mg14 O24 2.251 1_455 S
Mg14 O27 2.010 . S
O15 Mg14 2.028 . S
O15 C18 1.250 1_455 S
O16 Mg17 2.028 . S
O16 C18 1.248 . S
Mg17 O16 2.028 . S
Mg17 O22 2.032 . S
Mg17 O24 2.079 . S
C18 O15 1.250 1_655 S
C18 O16 1.248 . S
C19 O20 1.264 . S
C19 O27 1.249 . S
O20 C19 1.264 . S
O21 Mg14 1.986 . S
O21 C25 1.246 1_455 S
O22 Mg17 2.032 . S
O22 C25 1.259 . S
O23 Mg14 2.114 1_655 S
O23 C26 1.252 . S
O24 Mg14 2.251 1_655 S
O24 Mg17 2.079 . S
O24 C26 1.273 . S
C25 O21 1.246 1_655 S
C25 O22 1.259 . S
C26 O23 1.252 . S
C26 O24 1.273 . S
O27 Mg14 2.010 . S
O27 C19 1.249 . S
Mg28 O29 2.028 . S
Mg28 O35 1.986 . S
Mg28 O37 2.114 . S
Mg28 O38 2.251 . S
Mg28 O41 2.010 . S
O29 Mg28 2.028 . S
O29 C32 1.250 . S
O30 Mg31 2.028 1_554 S
O30 C32 1.248 1_554 S
Mg31 O30 2.028 1_556 S
Mg31 O36 2.032 1_556 S
Mg31 O38 2.079 . S
C32 O29 1.250 . S
C32 O30 1.248 1_556 S
C33 O34 1.264 . S
C33 O41 1.249 . S
O34 C33 1.264 . S
O35 Mg28 1.986 . S
O35 C39 1.246 . S
O36 Mg31 2.032 1_554 S
O36 C39 1.259 1_554 S
O37 Mg28 2.114 . S
O37 C40 1.252 . S
O38 Mg28 2.251 . S
O38 Mg31 2.079 . S
O38 C40 1.273 . S
C39 O35 1.246 . S
C39 O36 1.259 1_556 S
C40 O37 1.252 . S
C40 O38 1.273 . S
O41 Mg28 2.010 . S
O41 C33 1.249 . S
Mg42 O43 2.028 . S
Mg42 O49 1.986 . S
Mg42 O51 2.114 . S
Mg42 O52 2.251 . S
Mg42 O55 2.010 . S
O43 Mg42 2.028 . S
O43 C46 1.250 . S
O44 Mg45 2.028 . S
O44 C46 1.248 . S
Mg45 O44 2.028 . S
Mg45 O50 2.032 . S
Mg45 O52 2.079 . S
C46 O43 1.250 . S
C46 O44 1.248 . S
C47 O48 1.264 . S
C47 O55 1.249 . S
O48 C47 1.264 . S
O49 Mg42 1.986 . S
O49 C53 1.246 . S
O50 Mg45 2.032 . S
O50 C53 1.259 . S
O51 Mg42 2.114 . S
O51 C54 1.252 . S
O52 Mg42 2.251 . S
O52 Mg45 2.079 . S
O52 C54 1.273 . S
C53 O49 1.246 . S
C53 O50 1.259 . S
C54 O51 1.252 . S
C54 O52 1.273 . S
O55 Mg42 2.010 . S
O55 C47 1.249 . S
Mg56 O57 2.028 . S
Mg56 O63 1.986 . S
Mg56 O65 2.114 1_455 S
Mg56 O66 2.251 1_455 S
Mg56 O69 2.010 . S
O57 Mg56 2.028 . S
O57 C60 1.250 1_455 S
O58 Mg59 2.028 . S
O58 C60 1.248 . S
Mg59 O58 2.028 . S
Mg59 O64 2.032 . S
Mg59 O66 2.079 . S
C60 O57 1.250 1_655 S
C60 O58 1.248 . S
C61 O62 1.264 . S
C61 O69 1.249 . S
O62 C61 1.264 . S
O63 Mg56 1.986 . S
O63 C67 1.246 . S
O64 Mg59 2.032 . S
O64 C67 1.259 1_655 S
O65 Mg56 2.114 1_655 S
O65 C68 1.252 . S
O66 Mg56 2.251 1_655 S
O66 Mg59 2.079 . S
O66 C68 1.273 . S
C67 O63 1.246 . S
C67 O64 1.259 1_455 S
C68 O65 1.252 . S
C68 O66 1.273 . S
O69 Mg56 2.010 . S
O69 C61 1.249 . S
Mg70 O71 2.028 . S
Mg70 O77 1.986 . S
Mg70 O79 2.114 . S
Mg70 O80 2.251 . S
Mg70 O83 2.010 . S
O71 Mg70 2.028 . S
O71 C74 1.250 . S
O72 Mg73 2.028 . S
O72 C74 1.248 . S
Mg73 O72 2.028 . S
Mg73 O78 2.032 . S
Mg73 O80 2.079 . S
C74 O71 1.250 . S
C74 O72 1.248 . S
C75 O76 1.264 . S
C75 O83 1.249 . S
O76 C75 1.264 . S
O77 Mg70 1.986 . S
O77 C81 1.246 . S
O78 Mg73 2.032 . S
O78 C81 1.259 . S
O79 Mg70 2.114 . S
O79 C82 1.252 . S
O80 Mg70 2.251 . S
O80 Mg73 2.079 . S
O80 C82 1.273 . S
C81 O77 1.246 . S
C81 O78 1.259 . S
C82 O79 1.252 . S
C82 O80 1.273 . S
O83 Mg70 2.010 . S
O83 C75 1.249 . S
Mg84 O85 2.028 . S
Mg84 O91 1.986 . S
Mg84 O93 2.114 . S
Mg84 O94 2.251 . S
Mg84 O97 2.010 . S
O85 Mg84 2.028 . S
O85 C88 1.250 . S
O86 Mg87 2.028 . S
O86 C88 1.248 . S
Mg87 O86 2.028 . S
Mg87 O92 2.032 . S
Mg87 O94 2.079 . S
C88 O85 1.250 . S
C88 O86 1.248 . S
C89 O90 1.264 . S
C89 O97 1.249 . S
O90 C89 1.264 . S
O91 Mg84 1.986 . S
O91 C95 1.246 . S
O92 Mg87 2.032 . S
O92 C95 1.259 . S
O93 Mg84 2.114 . S
O93 C96 1.252 . S
O94 Mg84 2.251 . S
O94 Mg87 2.079 . S
O94 C96 1.273 . S
C95 O91 1.246 . S
C95 O92 1.259 . S
C96 O93 1.252 . S
C96 O94 1.273 . S
O97 Mg84 2.010 . S
O97 C89 1.249 . S
Mg98 O99 2.028 . S
Mg98 O105 1.986 . S
Mg98 O107 2.114 1_455 S
Mg98 O108 2.251 1_455 S
Mg98 O111 2.010 . S
O99 Mg98 2.028 . S
O99 C102 1.250 . S
O100 Mg101 2.028 . S
O100 C102 1.248 1_655 S
Mg101 O100 2.028 . S
Mg101 O106 2.032 . S
Mg101 O108 2.079 . S
C102 O99 1.250 . S
C102 O100 1.248 1_455 S
C103 O104 1.264 . S
C103 O111 1.249 . S
O104 C103 1.264 . S
O105 Mg98 1.986 . S
O105 C109 1.245 . S
O106 Mg101 2.032 . S
O106 C109 1.260 1_655 S
O107 Mg98 2.114 1_655 S
O107 C110 1.252 . S
O108 Mg98 2.251 1_655 S
O108 Mg101 2.079 . S
O108 C110 1.273 . S
C109 O105 1.245 . S
C109 O106 1.260 1_455 S
C110 O107 1.252 . S
C110 O108 1.273 . S
O111 Mg98 2.010 . S
O111 C103 1.249 . S
Mg112 O113 2.028 . S
Mg112 O119 1.986 . S
Mg112 O121 2.114 . S
Mg112 O122 2.251 . S
Mg112 O125 2.010 . S
O113 Mg112 2.028 . S
O113 C116 1.250 1_545 S
O114 Mg115 2.028 1_565 S
O114 C116 1.248 . S
Mg115 O114 2.028 1_545 S
Mg115 O120 2.032 . S
Mg115 O122 2.079 . S
C116 O113 1.250 1_565 S
C116 O114 1.248 . S
C117 O118 1.264 . S
C117 O125 1.249 . S
O118 C117 1.264 . S
O119 Mg112 1.986 . S
O119 C123 1.246 . S
O120 Mg115 2.032 . S
O120 C123 1.259 . S
O121 Mg112 2.114 . S
O121 C124 1.252 . S
O122 Mg112 2.251 . S
O122 Mg115 2.079 . S
O122 C124 1.273 . S
C123 O119 1.246 . S
C123 O120 1.259 . S
C124 O121 1.252 . S
C124 O122 1.273 . S
O125 Mg112 2.010 . S
O125 C117 1.249 . S
Mg126 O127 2.028 . S
Mg126 O133 1.986 . S
Mg126 O135 2.114 . S
Mg126 O136 2.251 . S
Mg126 O139 2.010 . S
O127 Mg126 2.028 . S
O127 C130 1.250 . S
O128 Mg129 2.028 . S
O128 C130 1.248 . S
Mg129 O128 2.028 . S
Mg129 O134 2.032 . S
Mg129 O136 2.079 . S
C130 O127 1.250 . S
C130 O128 1.248 . S
C131 O132 1.264 . S
C131 O139 1.249 . S
O132 C131 1.264 . S
O133 Mg126 1.986 . S
O133 C137 1.246 . S
O134 Mg129 2.032 . S
O134 C137 1.259 . S
O135 Mg126 2.114 . S
O135 C138 1.252 . S
O136 Mg126 2.251 . S
O136 Mg129 2.079 . S
O136 C138 1.273 . S
C137 O133 1.246 . S
C137 O134 1.259 . S
C138 O135 1.252 . S
C138 O136 1.273 . S
O139 Mg126 2.010 . S
O139 C131 1.249 . S
Mg140 O141 2.028 1_565 S
Mg140 O147 1.986 . S
Mg140 O149 2.114 1_565 S
Mg140 O150 2.251 . S
Mg140 O153 2.010 . S
O141 Mg140 2.028 1_545 S
O141 C144 1.250 . S
O142 Mg143 2.028 . S
O142 C144 1.248 . S
Mg143 O142 2.028 . S
Mg143 O148 2.032 1_545 S
Mg143 O150 2.079 1_545 S
C144 O141 1.250 . S
C144 O142 1.248 . S
C145 O146 1.264 . S
C145 O153 1.249 . S
O146 C145 1.264 . S
O147 Mg140 1.986 . S
O147 C151 1.246 . S
O148 Mg143 2.032 1_565 S
O148 C151 1.259 . S
O149 Mg140 2.114 1_545 S
O149 C152 1.252 . S
O150 Mg140 2.251 . S
O150 Mg143 2.079 1_565 S
O150 C152 1.273 1_565 S
C151 O147 1.246 . S
C151 O148 1.259 . S
C152 O149 1.252 . S
C152 O150 1.273 1_545 S
O153 Mg140 2.010 . S
O153 C145 1.249 . S
Mg154 O155 2.028 1_554 S
Mg154 O161 1.986 . S
Mg154 O163 2.114 . S
Mg154 O164 2.251 . S
Mg154 O167 2.010 . S
O155 Mg154 2.028 1_556 S
O155 C158 1.250 . S
O156 Mg157 2.028 1_556 S
O156 C158 1.248 . S
Mg157 O156 2.028 1_554 S
Mg157 O162 2.032 . S
Mg157 O164 2.079 . S
C158 O155 1.250 . S
C158 O156 1.248 . S
C159 O160 1.264 1_565 S
C159 O167 1.249 . S
O160 C159 1.264 1_545 S
O161 Mg154 1.986 . S
O161 C165 1.246 . S
O162 Mg157 2.032 . S
O162 C165 1.259 . S
O163 Mg154 2.114 . S
O163 C166 1.252 . S
O164 Mg154 2.251 . S
O164 Mg157 2.079 . S
O164 C166 1.273 . S
C165 O161 1.246 . S
C165 O162 1.259 . S
C166 O163 1.252 . S
C166 O164 1.273 . S
O167 Mg154 2.010 . S
O167 C159 1.249 . S
Mg168 O169 2.028 . S
Mg168 O175 1.986 . S
Mg168 O177 2.114 . S
Mg168 O178 2.251 . S
Mg168 O181 2.010 . S
O169 Mg168 2.028 . S
O169 C172 1.250 1_554 S
O170 Mg171 2.028 1_556 S
O170 C172 1.248 . S
Mg171 O170 2.028 1_554 S
Mg171 O176 2.032 . S
Mg171 O178 2.079 . S
C172 O169 1.250 1_556 S
C172 O170 1.248 . S
C173 O174 1.264 . S
C173 O181 1.249 . S
O174 C173 1.264 . S
O175 Mg168 1.986 . S
O175 C179 1.246 . S
O176 Mg171 2.032 . S
O176 C179 1.259 . S
O177 Mg168 2.114 . S
O177 C180 1.252 . S
O178 Mg168 2.251 . S
O178 Mg171 2.079 . S
O178 C180 1.273 . S
C179 O175 1.246 . S
C179 O176 1.259 . S
C180 O177 1.252 . S
C180 O178 1.273 . S
O181 Mg168 2.010 . S
O181 C173 1.249 . S
Mg182 O183 2.028 1_556 S
Mg182 O189 1.986 . S
Mg182 O191 2.114 1_556 S
Mg182 O192 2.251 1_556 S
Mg182 O195 2.010 . S
O183 Mg182 2.028 1_554 S
O183 C186 1.250 . S
O184 Mg185 2.028 . S
O184 C186 1.248 . S
Mg185 O184 2.028 . S
Mg185 O190 2.032 1_554 S
Mg185 O192 2.079 . S
C186 O183 1.250 . S
C186 O184 1.248 . S
C187 O188 1.264 . S
C187 O195 1.249 . S
O188 C187 1.264 . S
O189 Mg182 1.986 . S
O189 C193 1.246 . S
O190 Mg185 2.032 1_556 S
O190 C193 1.259 . S
O191 Mg182 2.114 1_554 S
O191 C194 1.252 . S
O192 Mg182 2.251 1_554 S
O192 Mg185 2.079 . S
O192 C194 1.273 . S
C193 O189 1.246 . S
C193 O190 1.259 . S
C194 O191 1.252 . S
C194 O192 1.273 . S
O195 Mg182 2.010 . S
O195 C187 1.249 . S
Mg196 O197 2.028 . S
Mg196 O203 1.986 . S
Mg196 O205 2.114 . S
Mg196 O206 2.251 . S
Mg196 O209 2.010 . S
O197 Mg196 2.028 . S
O197 C200 1.250 . S
O198 Mg199 2.028 . S
O198 C200 1.248 . S
Mg199 O198 2.028 . S
Mg199 O204 2.032 . S
Mg199 O206 2.079 . S
C200 O197 1.250 . S
C200 O198 1.248 . S
C201 O202 1.264 1_455 S
C201 O209 1.249 . S
O202 C201 1.264 1_655 S
O203 Mg196 1.986 . S
O203 C207 1.246 . S
O204 Mg199 2.032 . S
O204 C207 1.259 . S
O205 Mg196 2.114 . S
O205 C208 1.252 . S
O206 Mg196 2.251 . S
O206 Mg199 2.079 . S
O206 C208 1.273 . S
C207 O203 1.246 . S
C207 O204 1.259 . S
C208 O205 1.252 . S
C208 O206 1.273 . S
O209 Mg196 2.010 . S
O209 C201 1.249 . S
Mg210 O211 2.028 . S
Mg210 O217 1.986 . S
Mg210 O219 2.114 . S
Mg210 O220 2.251 . S
Mg210 O223 2.010 . S
O211 Mg210 2.028 . S
O211 C214 1.250 . S
O212 Mg213 2.028 . S
O212 C214 1.248 . S
Mg213 O212 2.028 . S
Mg213 O218 2.032 . S
Mg213 O220 2.079 . S
C214 O211 1.250 . S
C214 O212 1.248 . S
C215 O216 1.264 1_565 S
C215 O223 1.249 . S
O216 C215 1.264 1_545 S
O217 Mg210 1.986 . S
O217 C221 1.246 . S
O218 Mg213 2.032 . S
O218 C221 1.259 . S
O219 Mg210 2.114 . S
O219 C222 1.252 . S
O220 Mg210 2.251 . S
O220 Mg213 2.079 . S
O220 C222 1.273 . S
C221 O217 1.246 . S
C221 O218 1.259 . S
C222 O219 1.252 . S
C222 O220 1.273 . S
O223 Mg210 2.010 . S
O223 C215 1.249 . S
Mg224 O225 2.017 1_545 S
Mg224 O231 1.986 . S
Mg224 O233 2.114 . S
Mg224 O234 2.251 . S
Mg224 O237 2.010 . S
O225 Mg224 2.017 1_565 S
O225 C228 1.257 . S
O226 Mg227 2.028 1_565 S
O226 C228 1.248 . S
Mg227 O226 2.028 1_545 S
Mg227 O232 2.032 . S
Mg227 O234 2.079 . S
C228 O225 1.257 . S
C228 O226 1.248 . S
C229 O230 1.264 1_655 S
C229 O237 1.249 . S
O230 C229 1.264 1_455 S
O231 Mg224 1.986 . S
O231 C235 1.246 . S
O232 Mg227 2.032 . S
O232 C235 1.259 . S
O233 Mg224 2.114 . S
O233 C236 1.252 . S
O234 Mg224 2.251 . S
O234 Mg227 2.079 . S
O234 C236 1.273 . S
C235 O231 1.246 . S
C235 O232 1.259 . S
C236 O233 1.252 . S
C236 O234 1.273 . S
O237 Mg224 2.010 . S
O237 C229 1.249 . S
Mg238 O239 2.028 . S
Mg238 O245 1.986 . S
Mg238 O247 2.114 . S
Mg238 O248 2.251 . S
Mg238 O251 2.010 . S
O239 Mg238 2.028 . S
O239 C242 1.250 . S
O240 Mg241 2.028 . S
O240 C242 1.248 . S
Mg241 O240 2.028 . S
Mg241 O246 2.032 . S
Mg241 O248 2.079 . S
C242 O239 1.250 . S
C242 O240 1.248 . S
C243 O244 1.264 . S
C243 O251 1.249 . S
O244 C243 1.264 . S
O245 Mg238 1.986 . S
O245 C249 1.246 . S
O246 Mg241 2.032 . S
O246 C249 1.259 . S
O247 Mg238 2.114 . S
O247 C250 1.252 . S
O248 Mg238 2.251 . S
O248 Mg241 2.079 . S
O248 C250 1.273 . S
C249 O245 1.246 . S
C249 O246 1.259 . S
C250 O247 1.252 . S
C250 O248 1.273 . S
O251 Mg238 2.010 . S
O251 C243 1.249 . S
Mg252 O253 2.028 . S
Mg252 O259 1.986 . S
Mg252 O261 2.114 . S
Mg252 O262 2.251 . S
Mg252 O265 2.010 . S
O253 Mg252 2.028 . S
O253 C256 1.250 . S
O254 Mg255 2.028 . S
O254 C256 1.248 . S
Mg255 O254 2.028 . S
Mg255 O260 2.032 . S
Mg255 O262 2.079 . S
C256 O253 1.250 . S
C256 O254 1.248 . S
C257 O258 1.264 . S
C257 O265 1.249 . S
O258 C257 1.264 . S
O259 Mg252 1.986 . S
O259 C263 1.246 . S
O260 Mg255 2.032 . S
O260 C263 1.259 . S
O261 Mg252 2.114 . S
O261 C264 1.252 . S
O262 Mg252 2.251 . S
O262 Mg255 2.079 . S
O262 C264 1.273 . S
C263 O259 1.246 . S
C263 O260 1.259 . S
C264 O261 1.252 . S
C264 O262 1.273 . S
O265 Mg252 2.010 . S
O265 C257 1.249 . S
Mg266 O267 2.028 1_565 S
Mg266 O273 1.986 . S
Mg266 O275 2.114 1_565 S
Mg266 O276 2.251 . S
Mg266 O279 2.010 . S
O267 Mg266 2.028 1_545 S
O267 C270 1.250 . S
O268 Mg269 2.028 . S
O268 C270 1.248 . S
Mg269 O268 2.028 . S
Mg269 O274 2.032 1_545 S
Mg269 O276 2.079 1_545 S
C270 O267 1.250 . S
C270 O268 1.248 . S
C271 O272 1.264 . S
C271 O279 1.249 . S
O272 C271 1.264 . S
O273 Mg266 1.986 . S
O273 C277 1.246 . S
O274 Mg269 2.032 1_565 S
O274 C277 1.259 . S
O275 Mg266 2.114 1_545 S
O275 C278 1.252 . S
O276 Mg266 2.251 . S
O276 Mg269 2.079 1_565 S
O276 C278 1.273 1_565 S
C277 O273 1.246 . S
C277 O274 1.259 . S
C278 O275 1.252 . S
C278 O276 1.273 1_545 S
O279 Mg266 2.010 . S
O279 C271 1.249 . S
Mg280 O281 2.028 1_556 S
Mg280 O287 1.986 . S
Mg280 O289 2.114 1_556 S
Mg280 O290 2.251 . S
Mg280 O293 2.010 . S
O281 Mg280 2.028 1_554 S
O281 C284 1.250 . S
O282 Mg283 2.028 . S
O282 C284 1.248 . S
Mg283 O282 2.028 . S
Mg283 O288 2.032 1_554 S
Mg283 O290 2.079 1_554 S
C284 O281 1.250 . S
C284 O282 1.248 . S
C285 O286 1.264 . S
C285 O293 1.249 . S
O286 C285 1.264 . S
O287 Mg280 1.986 . S
O287 C291 1.246 . S
O288 Mg283 2.032 1_556 S
O288 C291 1.259 . S
O289 Mg280 2.114 1_554 S
O289 C292 1.252 . S
O290 Mg280 2.251 . S
O290 Mg283 2.079 1_556 S
O290 C292 1.273 1_556 S
C291 O287 1.246 . S
C291 O288 1.259 . S
C292 O289 1.252 . S
C292 O290 1.273 1_554 S
O293 Mg280 2.010 . S
O293 C285 1.249 . S
Mg294 O295 2.028 . S
Mg294 O301 1.986 . S
Mg294 O303 2.114 . S
Mg294 O304 2.251 . S
Mg294 O307 2.010 . S
O295 Mg294 2.028 . S
O295 C298 1.250 . S
O296 Mg297 2.028 . S
O296 C298 1.248 . S
Mg297 O296 2.028 . S
Mg297 O302 2.032 . S
Mg297 O304 2.079 . S
C298 O295 1.250 . S
C298 O296 1.248 . S
C299 O300 1.264 1_655 S
C299 O307 1.249 . S
O300 C299 1.264 1_455 S
O301 Mg294 1.986 . S
O301 C305 1.246 . S
O302 Mg297 2.032 . S
O302 C305 1.259 . S
O303 Mg294 2.114 . S
O303 C306 1.252 . S
O304 Mg294 2.251 . S
O304 Mg297 2.079 . S
O304 C306 1.273 . S
C305 O301 1.246 . S
C305 O302 1.259 . S
C306 O303 1.252 . S
C306 O304 1.273 . S
O307 Mg294 2.010 . S
O307 C299 1.249 . S
Mg308 O309 2.028 . S
Mg308 O315 1.986 . S
Mg308 O317 2.114 . S
Mg308 O318 2.251 . S
Mg308 O321 2.010 . S
O309 Mg308 2.028 . S
O309 C312 1.250 . S
O310 Mg311 2.028 . S
O310 C312 1.248 . S
Mg311 O310 2.028 . S
Mg311 O316 2.032 . S
Mg311 O318 2.079 . S
C312 O309 1.250 . S
C312 O310 1.248 . S
C313 O314 1.264 . S
C313 O321 1.249 . S
O314 C313 1.264 . S
O315 Mg308 1.986 . S
O315 C319 1.246 . S
O316 Mg311 2.032 . S
O316 C319 1.259 . S
O317 Mg308 2.114 . S
O317 C320 1.252 . S
O318 Mg308 2.251 . S
O318 Mg311 2.079 . S
O318 C320 1.273 . S
C319 O315 1.246 . S
C319 O316 1.259 . S
C320 O317 1.252 . S
C320 O318 1.273 . S
O321 Mg308 2.010 . S
O321 C313 1.249 . S
Mg322 O323 2.028 . S
Mg322 O329 1.986 . S
Mg322 O331 2.114 . S
Mg322 O332 2.251 . S
Mg322 O335 2.010 . S
O323 Mg322 2.028 . S
O323 C326 1.250 . S
O324 Mg325 2.028 . S
O324 C326 1.248 . S
Mg325 O324 2.028 . S
Mg325 O330 2.032 . S
Mg325 O332 2.079 . S
C326 O323 1.250 . S
C326 O324 1.248 . S
C327 O328 1.264 . S
C327 O335 1.249 . S
O328 C327 1.264 . S
O329 Mg322 1.986 . S
O329 C333 1.246 . S
O330 Mg325 2.032 . S
O330 C333 1.259 . S
O331 Mg322 2.114 . S
O331 C334 1.252 . S
O332 Mg322 2.251 . S
O332 Mg325 2.079 . S
O332 C334 1.273 . S
C333 O329 1.246 . S
C333 O330 1.259 . S
C334 O331 1.252 . S
C334 O332 1.273 . S
O335 Mg322 2.010 . S
O335 C327 1.249 . S
Tb336 O339 2.453 . S
Tb336 O340 2.596 1_545 S
Tb336 O341 2.374 1_554 S
Tb336 O349 2.343 1_455 S
Tb336 O351 2.353 . S
Tb336 O353 2.427 . S
Tb336 O354 2.513 1_554 S
C337 O341 1.251 1_565 S
C337 O343 1.263 . S
Tb338 O340 2.343 1_655 S
Tb338 O343 2.353 1_654 S
Tb338 O346 2.426 1_554 S
Tb338 O347 2.513 . S
Tb338 O348 2.453 1_554 S
Tb338 O349 2.596 1_565 S
Tb338 O350 2.374 1_565 S
O339 Tb336 2.453 . S
O339 C355 1.245 . S
O340 Tb336 2.596 1_565 S
O340 Tb338 2.343 1_455 S
O340 C355 1.259 1_565 S
O341 Tb336 2.374 1_556 S
O341 C337 1.251 1_545 S
C342 O346 1.262 1_554 S
C342 O347 1.257 . S
O343 C337 1.263 . S
O343 Tb338 2.353 1_456 S
C344 O348 1.245 1_545 S
C344 O349 1.259 1_556 S
C345 O350 1.250 . S
C345 O351 1.263 1_655 S
O346 Tb338 2.426 1_556 S
O346 C342 1.262 1_556 S
O347 Tb338 2.513 . S
O347 C342 1.257 . S
O348 Tb338 2.453 1_556 S
O348 C344 1.245 1_565 S
O349 Tb336 2.343 1_655 S
O349 Tb338 2.596 1_545 S
O349 C344 1.259 1_554 S
O350 Tb338 2.374 1_545 S
O350 C345 1.250 . S
O351 Tb336 2.353 . S
O351 C345 1.263 1_455 S
C352 O353 1.275 1_556 S
C352 O354 1.246 . S
O353 Tb336 2.427 . S
O353 C352 1.275 1_554 S
O354 Tb336 2.513 1_556 S
O354 C352 1.246 . S
C355 O339 1.245 . S
C355 O340 1.259 1_545 S
Tb356 O359 2.453 . S
Tb356 O360 2.596 . S
Tb356 O361 2.374 . S
Tb356 O369 2.343 . S
Tb356 O371 2.353 . S
Tb356 O373 2.427 . S
Tb356 O374 2.513 . S
C357 O361 1.251 . S
C357 O363 1.263 . S
Tb358 O360 2.343 . S
Tb358 O363 2.353 . S
Tb358 O366 2.427 . S
Tb358 O367 2.513 . S
Tb358 O368 2.453 . S
Tb358 O369 2.596 . S
Tb358 O370 2.374 . S
O359 Tb356 2.453 . S
O359 C375 1.245 . S
O360 Tb356 2.596 . S
O360 Tb358 2.343 . S
O360 C375 1.259 . S
O361 Tb356 2.374 . S
O361 C357 1.251 . S
C362 O366 1.275 . S
C362 O367 1.246 . S
O363 C357 1.263 . S
O363 Tb358 2.353 . S
C364 O368 1.245 . S
C364 O369 1.259 . S
C365 O370 1.250 . S
C365 O371 1.263 . S
O366 Tb358 2.427 . S
O366 C362 1.275 . S
O367 Tb358 2.513 . S
O367 C362 1.246 . S
O368 Tb358 2.453 . S
O368 C364 1.245 . S
O369 Tb356 2.343 . S
O369 Tb358 2.596 . S
O369 C364 1.259 . S
O370 Tb358 2.374 . S
O370 C365 1.250 . S
O371 Tb356 2.353 . S
O371 C365 1.263 . S
C372 O373 1.275 . S
C372 O374 1.246 . S
O373 Tb356 2.427 . S
O373 C372 1.275 . S
O374 Tb356 2.513 . S
O374 C372 1.246 . S
C375 O359 1.245 . S
C375 O360 1.259 . S
Tb376 O379 2.453 . S
Tb376 O380 2.596 . S
Tb376 O381 2.374 . S
Tb376 O389 2.343 1_545 S
Tb376 O391 2.353 . S
Tb376 O393 2.427 . S
Tb376 O394 2.513 1_545 S
C377 O381 1.251 . S
C377 O383 1.263 1_545 S
Tb378 O380 2.343 . S
Tb378 O383 2.353 1_545 S
Tb378 O386 2.427 . S
Tb378 O387 2.513 . S
Tb378 O388 2.453 1_545 S
Tb378 O389 2.596 1_545 S
Tb378 O390 2.374 . S
O379 Tb376 2.453 . S
O379 C395 1.245 . S
O380 Tb376 2.596 . S
O380 Tb378 2.343 . S
O380 C395 1.259 . S
O381 Tb376 2.374 . S
O381 C377 1.251 . S
C382 O386 1.275 . S
C382 O387 1.246 . S
O383 C377 1.263 1_565 S
O383 Tb378 2.353 1_565 S
C384 O388 1.245 . S
C384 O389 1.259 . S
C385 O390 1.250 . S
C385 O391 1.263 . S
O386 Tb378 2.427 . S
O386 C382 1.275 . S
O387 Tb378 2.513 . S
O387 C382 1.246 . S
O388 Tb378 2.453 1_565 S
O388 C384 1.245 . S
O389 Tb376 2.343 1_565 S
O389 Tb378 2.596 1_565 S
O389 C384 1.259 . S
O390 Tb378 2.374 . S
O390 C385 1.250 . S
O391 Tb376 2.353 . S
O391 C385 1.263 . S
C392 O393 1.275 1_565 S
C392 O394 1.246 . S
O393 Tb376 2.427 . S
O393 C392 1.275 1_545 S
O394 Tb376 2.513 1_565 S
O394 C392 1.246 . S
C395 O379 1.245 . S
C395 O380 1.259 . S
Tb396 O399 2.453 . S
Tb396 O400 2.596 . S
Tb396 O401 2.374 . S
Tb396 O409 2.343 . S
Tb396 O411 2.353 . S
Tb396 O413 2.427 . S
Tb396 O414 2.513 . S
C397 O401 1.251 . S
C397 O403 1.263 . S
Tb398 O400 2.343 . S
Tb398 O403 2.353 . S
Tb398 O406 2.427 . S
Tb398 O407 2.513 . S
Tb398 O408 2.453 . S
Tb398 O409 2.596 . S
Tb398 O410 2.374 . S
O399 Tb396 2.453 . S
O399 C415 1.245 . S
O400 Tb396 2.596 . S
O400 Tb398 2.343 . S
O400 C415 1.259 . S
O401 Tb396 2.374 . S
O401 C397 1.251 . S
C402 O406 1.275 . S
C402 O407 1.246 . S
O403 C397 1.263 . S
O403 Tb398 2.353 . S
C404 O408 1.245 . S
C404 O409 1.259 . S
C405 O410 1.250 . S
C405 O411 1.263 . S
O406 Tb398 2.427 . S
O406 C402 1.275 . S
O407 Tb398 2.513 . S
O407 C402 1.246 . S
O408 Tb398 2.453 . S
O408 C404 1.245 . S
O409 Tb396 2.343 . S
O409 Tb398 2.596 . S
O409 C404 1.259 . S
O410 Tb398 2.374 . S
O410 C405 1.250 . S
O411 Tb396 2.353 . S
O411 C405 1.263 . S
C412 O413 1.275 . S
C412 O414 1.246 . S
O413 Tb396 2.427 . S
O413 C412 1.275 . S
O414 Tb396 2.513 . S
O414 C412 1.246 . S
C415 O399 1.245 . S
C415 O400 1.259 . S
Tb416 O419 2.453 1_655 S
Tb416 O420 2.596 1_655 S
Tb416 O421 2.374 . S
Tb416 O429 2.341 1_565 S
Tb416 O431 2.353 1_665 S
Tb416 O433 2.427 1_665 S
Tb416 O434 2.513 1_565 S
C417 O421 1.251 . S
C417 O423 1.263 1_565 S
Tb418 O420 2.343 1_545 S
Tb418 O423 2.353 1_455 S
Tb418 O426 2.427 . S
Tb418 O427 2.513 . S
Tb418 O428 2.453 . S
Tb418 O429 2.593 1_455 S
Tb418 O430 2.374 . S
O419 Tb416 2.453 1_455 S
O419 C435 1.245 . S
O420 Tb416 2.596 1_455 S
O420 Tb418 2.343 1_565 S
O420 C435 1.259 . S
O421 Tb416 2.374 . S
O421 C417 1.251 . S
C422 O426 1.275 . S
C422 O427 1.246 . S
O423 C417 1.263 1_545 S
O423 Tb418 2.353 1_655 S
C424 O428 1.245 . S
C424 O429 1.262 1_455 S
C425 O430 1.250 . S
C425 O431 1.263 . S
O426 Tb418 2.427 . S
O426 C422 1.275 . S
O427 Tb418 2.513 . S
O427 C422 1.246 . S
O428 Tb418 2.453 . S
O428 C424 1.245 . S
O429 Tb416 2.341 1_545 S
O429 Tb418 2.593 1_655 S
O429 C424 1.262 1_655 S
O430 Tb418 2.374 . S
O430 C425 1.250 . S
O431 Tb416 2.353 1_445 S
O431 C425 1.263 . S
C432 O433 1.275 1_655 S
C432 O434 1.246 . S
O433 Tb416 2.427 1_445 S
O433 C432 1.275 1_455 S
O434 Tb416 2.513 1_545 S
O434 C432 1.246 . S
C435 O419 1.245 . S
C435 O420 1.259 . S
Tb436 O439 2.453 . S
Tb436 O440 2.596 . S
Tb436 O441 2.374 . S
Tb436 O449 2.343 . S
Tb436 O451 2.353 . S
Tb436 O453 2.427 . S
Tb436 O454 2.513 . S
C437 O441 1.251 . S
C437 O443 1.263 . S
Tb438 O440 2.343 . S
Tb438 O443 2.353 . S
Tb438 O446 2.427 . S
Tb438 O447 2.513 . S
Tb438 O448 2.453 . S
Tb438 O449 2.596 . S
Tb438 O450 2.374 . S
O439 Tb436 2.453 . S
O439 C455 1.245 . S
O440 Tb436 2.596 . S
O440 Tb438 2.343 . S
O440 C455 1.259 . S
O441 Tb436 2.374 . S
O441 C437 1.251 . S
C442 O446 1.275 . S
C442 O447 1.246 . S
O443 C437 1.263 . S
O443 Tb438 2.353 . S
C444 O448 1.245 . S
C444 O449 1.259 . S
C445 O450 1.250 . S
C445 O451 1.263 . S
O446 Tb438 2.427 . S
O446 C442 1.275 . S
O447 Tb438 2.513 . S
O447 C442 1.246 . S
O448 Tb438 2.453 . S
O448 C444 1.245 . S
O449 Tb436 2.343 . S
O449 Tb438 2.596 . S
O449 C444 1.259 . S
O450 Tb438 2.374 . S
O450 C445 1.250 . S
O451 Tb436 2.353 . S
O451 C445 1.263 . S
C452 O453 1.275 . S
C452 O454 1.246 . S
O453 Tb436 2.427 . S
O453 C452 1.275 . S
O454 Tb436 2.513 . S
O454 C452 1.246 . S
C455 O439 1.245 . S
C455 O440 1.259 . S
Tb456 O459 2.453 . S
Tb456 O460 2.596 . S
Tb456 O461 2.374 1_545 S
Tb456 O469 2.343 1_556 S
Tb456 O471 2.353 1_556 S
Tb456 O473 2.427 1_556 S
Tb456 O474 2.513 1_546 S
C457 O461 1.250 . S
C457 O463 1.264 1_556 S
Tb458 O460 2.343 1_554 S
Tb458 O463 2.353 1_545 S
Tb458 O466 2.427 . S
Tb458 O467 2.513 . S
Tb458 O468 2.453 . S
Tb458 O469 2.596 . S
Tb458 O470 2.374 . S
O459 Tb456 2.453 . S
O459 C475 1.245 . S
O460 Tb456 2.596 . S
O460 Tb458 2.343 1_556 S
O460 C475 1.259 . S
O461 Tb456 2.374 1_565 S
O461 C457 1.250 . S
C462 O466 1.275 . S
C462 O467 1.246 . S
O463 C457 1.264 1_554 S
O463 Tb458 2.353 1_565 S
C464 O468 1.245 . S
C464 O469 1.259 . S
C465 O470 1.250 . S
C465 O471 1.263 . S
O466 Tb458 2.427 . S
O466 C462 1.275 . S
O467 Tb458 2.513 . S
O467 C462 1.246 . S
O468 Tb458 2.453 . S
O468 C464 1.245 . S
O469 Tb456 2.343 1_554 S
O469 Tb458 2.596 . S
O469 C464 1.259 . S
O470 Tb458 2.374 . S
O470 C465 1.250 . S
O471 Tb456 2.353 1_554 S
O471 C465 1.263 . S
C472 O473 1.275 1_565 S
C472 O474 1.246 . S
O473 Tb456 2.427 1_554 S
O473 C472 1.275 1_545 S
O474 Tb456 2.513 1_564 S
O474 C472 1.246 . S
C475 O459 1.245 . S
C475 O460 1.259 . S
Tb476 O479 2.453 . S
Tb476 O480 2.596 . S
Tb476 O481 2.374 . S
Tb476 O489 2.343 . S
Tb476 O491 2.353 . S
Tb476 O493 2.427 . S
Tb476 O494 2.513 . S
C477 O481 1.251 . S
C477 O483 1.263 . S
Tb478 O480 2.343 . S
Tb478 O483 2.353 . S
Tb478 O486 2.427 . S
Tb478 O487 2.513 . S
Tb478 O488 2.453 . S
Tb478 O489 2.596 . S
Tb478 O490 2.374 . S
O479 Tb476 2.453 . S
O479 C495 1.245 . S
O480 Tb476 2.596 . S
O480 Tb478 2.343 . S
O480 C495 1.259 . S
O481 Tb476 2.374 . S
O481 C477 1.251 . S
C482 O486 1.275 . S
C482 O487 1.246 . S
O483 C477 1.263 . S
O483 Tb478 2.353 . S
C484 O488 1.245 . S
C484 O489 1.259 . S
C485 O490 1.250 . S
C485 O491 1.263 . S
O486 Tb478 2.427 . S
O486 C482 1.275 . S
O487 Tb478 2.513 . S
O487 C482 1.246 . S
O488 Tb478 2.453 . S
O488 C484 1.245 . S
O489 Tb476 2.343 . S
O489 Tb478 2.596 . S
O489 C484 1.259 . S
O490 Tb478 2.374 . S
O490 C485 1.250 . S
O491 Tb476 2.353 . S
O491 C485 1.263 . S
C492 O493 1.275 . S
C492 O494 1.246 . S
O493 Tb476 2.427 . S
O493 C492 1.275 . S
O494 Tb476 2.513 . S
O494 C492 1.246 . S
C495 O479 1.245 . S
C495 O480 1.259 . S
Tb496 O499 2.453 . S
Tb496 O500 2.596 1_556 S
Tb496 O501 2.374 1_556 S
Tb496 O509 2.343 . S
Tb496 O511 2.353 . S
Tb496 O513 2.427 . S
Tb496 O514 2.513 . S
C497 O501 1.251 . S
C497 O503 1.263 . S
Tb498 O500 2.343 . S
Tb498 O503 2.353 . S
Tb498 O506 2.427 . S
Tb498 O507 2.513 . S
Tb498 O508 2.453 . S
Tb498 O509 2.596 1_554 S
Tb498 O510 2.374 . S
O499 Tb496 2.453 . S
O499 C515 1.245 1_556 S
O500 Tb496 2.596 1_554 S
O500 Tb498 2.343 . S
O500 C515 1.259 . S
O501 Tb496 2.374 1_554 S
O501 C497 1.251 . S
C502 O506 1.275 . S
C502 O507 1.246 . S
O503 C497 1.263 . S
O503 Tb498 2.353 . S
C504 O508 1.245 . S
C504 O509 1.259 1_554 S
C505 O510 1.250 . S
C505 O511 1.263 1_554 S
O506 Tb498 2.427 . S
O506 C502 1.275 . S
O507 Tb498 2.513 . S
O507 C502 1.246 . S
O508 Tb498 2.453 . S
O508 C504 1.245 . S
O509 Tb496 2.343 . S
O509 Tb498 2.596 1_556 S
O509 C504 1.259 1_556 S
O510 Tb498 2.374 . S
O510 C505 1.250 . S
O511 Tb496 2.353 . S
O511 C505 1.263 1_556 S
C512 O513 1.275 . S
C512 O514 1.246 . S
O513 Tb496 2.427 . S
O513 C512 1.275 . S
O514 Tb496 2.513 . S
O514 C512 1.246 . S
C515 O499 1.245 1_554 S
C515 O500 1.259 . S
Tb516 O519 2.453 . S
Tb516 O520 2.596 . S
Tb516 O521 2.374 . S
Tb516 O529 2.343 . S
Tb516 O531 2.353 . S
Tb516 O533 2.427 . S
Tb516 O534 2.513 . S
C517 O521 1.251 . S
C517 O523 1.263 . S
Tb518 O520 2.343 . S
Tb518 O523 2.353 . S
Tb518 O526 2.427 . S
Tb518 O527 2.513 . S
Tb518 O528 2.453 . S
Tb518 O529 2.596 . S
Tb518 O530 2.374 . S
O519 Tb516 2.453 . S
O519 C535 1.245 . S
O520 Tb516 2.596 . S
O520 Tb518 2.343 . S
O520 C535 1.259 . S
O521 Tb516 2.374 . S
O521 C517 1.251 . S
C522 O526 1.275 . S
C522 O527 1.246 . S
O523 C517 1.263 . S
O523 Tb518 2.353 . S
C524 O528 1.245 . S
C524 O529 1.259 . S
C525 O530 1.250 . S
C525 O531 1.263 . S
O526 Tb518 2.427 . S
O526 C522 1.275 . S
O527 Tb518 2.513 . S
O527 C522 1.246 . S
O528 Tb518 2.453 . S
O528 C524 1.245 . S
O529 Tb516 2.343 . S
O529 Tb518 2.596 . S
O529 C524 1.259 . S
O530 Tb518 2.374 . S
O530 C525 1.250 . S
O531 Tb516 2.353 . S
O531 C525 1.263 . S
C532 O533 1.275 . S
C532 O534 1.246 . S
O533 Tb516 2.427 . S
O533 C532 1.275 . S
O534 Tb516 2.513 . S
O534 C532 1.246 . S
C535 O519 1.245 . S
C535 O520 1.259 . S
Tb536 O539 2.453 . S
Tb536 O540 2.596 1_655 S
Tb536 O541 2.374 . S
Tb536 O549 2.343 . S
Tb536 O551 2.353 . S
Tb536 O553 2.427 . S
Tb536 O554 2.513 . S
C537 O541 1.251 1_455 S
C537 O543 1.263 . S
Tb538 O540 2.343 . S
Tb538 O543 2.353 . S
Tb538 O546 2.427 . S
Tb538 O547 2.513 . S
Tb538 O548 2.453 . S
Tb538 O549 2.596 1_455 S
Tb538 O550 2.374 . S
O539 Tb536 2.453 . S
O539 C555 1.245 1_655 S
O540 Tb536 2.596 1_455 S
O540 Tb538 2.343 . S
O540 C555 1.259 . S
O541 Tb536 2.374 . S
O541 C537 1.251 1_655 S
C542 O546 1.275 . S
C542 O547 1.246 . S
O543 C537 1.263 . S
O543 Tb538 2.353 . S
C544 O548 1.245 1_655 S
C544 O549 1.259 . S
C545 O550 1.250 . S
C545 O551 1.263 1_455 S
O546 Tb538 2.427 . S
O546 C542 1.275 . S
O547 Tb538 2.513 . S
O547 C542 1.246 . S
O548 Tb538 2.453 . S
O548 C544 1.245 1_455 S
O549 Tb536 2.343 . S
O549 Tb538 2.596 1_655 S
O549 C544 1.259 . S
O550 Tb538 2.374 . S
O550 C545 1.250 . S
O551 Tb536 2.353 . S
O551 C545 1.263 1_655 S
C552 O553 1.275 . S
C552 O554 1.246 . S
O553 Tb536 2.427 . S
O553 C552 1.275 . S
O554 Tb536 2.513 . S
O554 C552 1.246 . S
C555 O539 1.245 1_455 S
C555 O540 1.259 . S
Tb556 O559 2.453 . S
Tb556 O560 2.596 . S
Tb556 O561 2.374 . S
Tb556 O569 2.343 . S
Tb556 O571 2.353 . S
Tb556 O573 2.427 . S
Tb556 O574 2.513 . S
C557 O561 1.251 . S
C557 O563 1.263 . S
Tb558 O560 2.343 . S
Tb558 O563 2.353 . S
Tb558 O566 2.427 . S
Tb558 O567 2.513 . S
Tb558 O568 2.453 . S
Tb558 O569 2.596 . S
Tb558 O570 2.374 . S
O559 Tb556 2.453 . S
O559 C575 1.245 . S
O560 Tb556 2.596 . S
O560 Tb558 2.343 . S
O560 C575 1.259 . S
O561 Tb556 2.374 . S
O561 C557 1.251 . S
C562 O566 1.275 . S
C562 O567 1.246 . S
O563 C557 1.263 . S
O563 Tb558 2.353 . S
C564 O568 1.245 . S
C564 O569 1.259 . S
C565 O570 1.250 . S
C565 O571 1.263 . S
O566 Tb558 2.427 . S
O566 C562 1.275 . S
O567 Tb558 2.513 . S
O567 C562 1.246 . S
O568 Tb558 2.453 . S
O568 C564 1.245 . S
O569 Tb556 2.343 . S
O569 Tb558 2.596 . S
O569 C564 1.259 . S
O570 Tb558 2.374 . S
O570 C565 1.250 . S
O571 Tb556 2.353 . S
O571 C565 1.263 . S
C572 O573 1.275 . S
C572 O574 1.246 . S
O573 Tb556 2.427 . S
O573 C572 1.275 . S
O574 Tb556 2.513 . S
O574 C572 1.246 . S
C575 O559 1.245 . S
C575 O560 1.259 . S
Tb576 O579 2.453 . S
Tb576 O580 2.596 . S
Tb576 O581 2.374 . S
Tb576 O589 2.343 . S
Tb576 O591 2.353 . S
Tb576 O593 2.427 . S
Tb576 O594 2.513 . S
C577 O581 1.251 . S
C577 O583 1.263 . S
Tb578 O580 2.343 . S
Tb578 O583 2.353 . S
Tb578 O586 2.427 . S
Tb578 O587 2.513 . S
Tb578 O588 2.453 . S
Tb578 O589 2.596 . S
Tb578 O590 2.374 . S
O579 Tb576 2.453 . S
O579 C595 1.245 . S
O580 Tb576 2.596 . S
O580 Tb578 2.343 . S
O580 C595 1.259 . S
O581 Tb576 2.374 . S
O581 C577 1.251 . S
C582 O586 1.275 . S
C582 O587 1.246 . S
O583 C577 1.263 . S
O583 Tb578 2.353 . S
C584 O588 1.245 . S
C584 O589 1.259 . S
C585 O590 1.250 . S
C585 O591 1.263 . S
O586 Tb578 2.427 . S
O586 C582 1.275 . S
O587 Tb578 2.513 . S
O587 C582 1.246 . S
O588 Tb578 2.453 . S
O588 C584 1.245 . S
O589 Tb576 2.343 . S
O589 Tb578 2.596 . S
O589 C584 1.259 . S
O590 Tb578 2.374 . S
O590 C585 1.250 . S
O591 Tb576 2.353 . S
O591 C585 1.263 . S
C592 O593 1.275 . S
C592 O594 1.246 . S
O593 Tb576 2.427 . S
O593 C592 1.275 . S
O594 Tb576 2.513 . S
O594 C592 1.246 . S
C595 O579 1.245 . S
C595 O580 1.259 . S
Tb596 O599 2.453 . S
Tb596 O600 2.596 . S
Tb596 O601 2.374 . S
Tb596 O609 2.343 . S
Tb596 O611 2.353 . S
Tb596 O613 2.427 . S
Tb596 O614 2.513 . S
C597 O601 1.251 . S
C597 O603 1.263 . S
Tb598 O600 2.343 . S
Tb598 O603 2.353 . S
Tb598 O606 2.427 . S
Tb598 O607 2.513 . S
Tb598 O608 2.453 . S
Tb598 O609 2.596 . S
Tb598 O610 2.374 . S
O599 Tb596 2.453 . S
O599 C615 1.245 . S
O600 Tb596 2.596 . S
O600 Tb598 2.343 . S
O600 C615 1.259 . S
O601 Tb596 2.374 . S
O601 C597 1.251 . S
C602 O606 1.275 . S
C602 O607 1.246 . S
O603 C597 1.263 . S
O603 Tb598 2.353 . S
C604 O608 1.245 . S
C604 O609 1.259 . S
C605 O610 1.250 . S
C605 O611 1.263 . S
O606 Tb598 2.427 . S
O606 C602 1.275 . S
O607 Tb598 2.513 . S
O607 C602 1.246 . S
O608 Tb598 2.453 . S
O608 C604 1.245 . S
O609 Tb596 2.343 . S
O609 Tb598 2.596 . S
O609 C604 1.259 . S
O610 Tb598 2.374 . S
O610 C605 1.250 . S
O611 Tb596 2.353 . S
O611 C605 1.263 . S
C612 O613 1.275 . S
C612 O614 1.246 . S
O613 Tb596 2.427 . S
O613 C612 1.275 . S
O614 Tb596 2.513 . S
O614 C612 1.246 . S
C615 O599 1.245 . S
C615 O600 1.259 . S
Tb616 O619 2.453 . S
Tb616 O620 2.596 . S
Tb616 O621 2.374 . S
Tb616 O629 2.343 . S
Tb616 O631 2.353 . S
Tb616 O633 2.427 . S
Tb616 O634 2.513 . S
C617 O621 1.251 . S
C617 O623 1.263 . S
Tb618 O620 2.343 . S
Tb618 O623 2.353 . S
Tb618 O626 2.427 . S
Tb618 O627 2.513 . S
Tb618 O628 2.453 . S
Tb618 O629 2.596 . S
Tb618 O630 2.374 . S
O619 Tb616 2.453 . S
O619 C635 1.245 . S
O620 Tb616 2.596 . S
O620 Tb618 2.343 . S
O620 C635 1.259 . S
O621 Tb616 2.374 . S
O621 C617 1.251 . S
C622 O626 1.275 . S
C622 O627 1.246 . S
O623 C617 1.263 . S
O623 Tb618 2.353 . S
C624 O628 1.245 . S
C624 O629 1.259 . S
C625 O630 1.250 . S
C625 O631 1.263 . S
O626 Tb618 2.427 . S
O626 C622 1.275 . S
O627 Tb618 2.513 . S
O627 C622 1.246 . S
O628 Tb618 2.453 . S
O628 C624 1.245 . S
O629 Tb616 2.343 . S
O629 Tb618 2.596 . S
O629 C624 1.259 . S
O630 Tb618 2.374 . S
O630 C625 1.250 . S
O631 Tb616 2.353 . S
O631 C625 1.263 . S
C632 O633 1.275 . S
C632 O634 1.246 . S
O633 Tb616 2.427 . S
O633 C632 1.275 . S
O634 Tb616 2.513 . S
O634 C632 1.246 . S
C635 O619 1.245 . S
C635 O620 1.259 . S
Tb636 O639 2.453 . S
Tb636 O640 2.584 1_455 S
Tb636 O641 2.374 . S
Tb636 O649 2.343 . S
Tb636 O651 2.353 1_554 S
Tb636 O653 2.427 1_554 S
Tb636 O654 2.513 . S
C637 O641 1.251 . S
C637 O643 1.263 1_455 S
Tb638 O640 2.349 . S
Tb638 O643 2.353 . S
Tb638 O646 2.427 . S
Tb638 O647 2.513 . S
Tb638 O648 2.453 1_554 S
Tb638 O649 2.596 1_655 S
Tb638 O650 2.374 1_554 S
O639 Tb636 2.453 . S
O639 C655 1.245 . S
O640 Tb636 2.584 1_655 S
O640 Tb638 2.349 . S
O640 C655 1.256 1_655 S
O641 Tb636 2.374 . S
O641 C637 1.251 . S
C642 O646 1.275 . S
C642 O647 1.246 . S
O643 C637 1.263 1_655 S
O643 Tb638 2.353 . S
C644 O648 1.245 . S
C644 O649 1.259 1_656 S
C645 O650 1.250 . S
C645 O651 1.263 1_655 S
O646 Tb638 2.427 . S
O646 C642 1.275 . S
O647 Tb638 2.513 . S
O647 C642 1.246 . S
O648 Tb638 2.453 1_556 S
O648 C644 1.245 . S
O649 Tb636 2.343 . S
O649 Tb638 2.596 1_455 S
O649 C644 1.259 1_454 S
O650 Tb638 2.374 1_556 S
O650 C645 1.250 . S
O651 Tb636 2.353 1_556 S
O651 C645 1.263 1_455 S
C652 O653 1.275 . S
C652 O654 1.246 1_556 S
O653 Tb636 2.427 1_556 S
O653 C652 1.275 . S
O654 Tb636 2.513 . S
O654 C652 1.246 1_554 S
C655 O639 1.245 . S
C655 O640 1.256 1_455 S
C109 C352 1.295 . S
C61 C365 1.348 . S
C74 C384 1.454 . S
C415 C96 2.163 . S
C25 C435 1.707 1_655 S
C452 C40 0.923 . S
C465 C46 1.628 . S
C5 C492 0.724 . S
C345 C229 0.716 . S
C249 C375 2.244 . S
C377 C271 1.790 1_545 S
C412 C172 0.861 . S
C236 C432 1.187 . S
C445 C242 2.377 . S
C475 C278 1.493 . S
C485 C179 1.333 . S
C355 C159 1.363 1_545 S
C285 C505 1.663 1_556 S
C535 C333 1.890 . S
C552 C320 1.209 . S
C123 C495 2.041 . S
C138 C382 1.729 . S
C326 C565 2.394 . S
C592 C298 1.104 . S
C342 C67 1.397 1_655 S
C577 C110 1.580 . S
C88 C395 1.737 . S
C75 C564 1.757 . S
C424 C11 1.577 . S
C47 C522 1.146 . S
C457 C32 1.349 . S
C602 C26 1.881 . S
C337 C152 1.603 1_565 S
C584 C319 1.849 . S
C124 C385 1.800 . S
C284 C562 1.052 . S
C145 C422 1.370 1_565 S
C517 C312 2.001 . S
C117 C464 1.482 . S
C291 C597 1.137 . S
C194 C344 2.180 1_554 S
C180 C497 1.615 . S
C263 C444 1.435 . S
C243 C542 1.166 . S
C604 C277 2.127 . S
C215 C392 1.936 . S
C397 C256 2.053 . S
C362 C200 1.593 . S
C81 C632 1.295 . S
C585 C89 1.348 . S
C102 C644 1.454 1_455 S
C68 C575 2.163 . S
C53 C515 1.707 . S
C532 C12 0.923 . S
C545 C18 1.628 1_455 S
C612 C33 0.724 . S
C625 C257 0.716 . S
C193 C595 2.244 . S
C637 C201 1.791 . S
C572 C214 0.861 . S
C512 C264 1.187 . S
C186 C525 2.377 . S
C555 C208 1.493 . S
C221 C605 1.333 . S
C635 C313 1.363 . S
C131 C425 1.664 . S
C455 C151 1.889 . S
C472 C166 1.209 . S
C615 C305 2.041 . S
C292 C642 1.727 . S
C405 C144 2.394 . S
C372 C116 1.104 . S
C95 C622 1.397 . S
C357 C82 1.580 . S
C60 C655 1.737 1_655 S
C103 C404 1.757 . S
C39 C504 1.577 1_556 S
C442 C19 1.146 . S
C4 C537 1.350 . S
C54 C482 1.881 . S
C617 C334 1.603 . S
C165 C364 1.849 . S
C645 C306 1.800 . S
C130 C402 1.054 . S
C327 C502 1.370 . S
C437 C158 2.001 . S
C299 C544 1.482 . S
C477 C137 1.135 . S
C624 C250 2.181 . S
C417 C222 1.615 . S
C235 C524 1.435 . S
C462 C187 1.166 1_554 S
C207 C484 2.126 . S
C173 C652 1.935 1_554 S
C557 C228 2.053 . S
C582 C270 1.593 . S
