# Generated by pormake.
# Topology anh, (6,3)-cn, num edge types: 1
# Building blocks:
#     Node 0, Type 0, BuildingBlock: PAMTUU_clean_sbu_0, # of connection points: 6
#     Node 1, Type 0, BuildingBlock: PAMTUU_clean_sbu_0, # of connection points: 6
#     Node 2, Type 0, BuildingBlock: PAMTUU_clean_sbu_0, # of connection points: 6
#     Node 3, Type 1, BuildingBlock: OLANEW_clean_sbu_2, # of connection points: 3
#     Node 4, Type 1, BuildingBlock: OLANEW_clean_sbu_2, # of connection points: 3
#     Node 5, Type 1, BuildingBlock: OLANEW_clean_sbu_2, # of connection points: 3
#     Node 6, Type 1, BuildingBlock: OLANEW_clean_sbu_2, # of connection points: 3
#     Node 7, Type 1, BuildingBlock: OLANEW_clean_sbu_2, # of connection points: 3
#     Node 8, Type 1, BuildingBlock: OLANEW_clean_sbu_2, # of connection points: 3
#     Edge 9, Type (0, 1), BuildingBlock: TEMPAE_clean_linker_10, # of connection points: 2
#     Edge 10, Type (0, 1), BuildingBlock: TEMPAE_clean_linker_10, # of connection points: 2
#     Edge 11, Type (0, 1), BuildingBlock: TEMPAE_clean_linker_10, # of connection points: 2
#     Edge 12, Type (0, 1), BuildingBlock: TEMPAE_clean_linker_10, # of connection points: 2
#     Edge 13, Type (0, 1), BuildingBlock: TEMPAE_clean_linker_10, # of connection points: 2
#     Edge 14, Type (0, 1), BuildingBlock: TEMPAE_clean_linker_10, # of connection points: 2
#     Edge 15, Type (0, 1), BuildingBlock: TEMPAE_clean_linker_10, # of connection points: 2
#     Edge 16, Type (0, 1), BuildingBlock: TEMPAE_clean_linker_10, # of connection points: 2
#     Edge 17, Type (0, 1), BuildingBlock: TEMPAE_clean_linker_10, # of connection points: 2
#     Edge 18, Type (0, 1), BuildingBlock: TEMPAE_clean_linker_10, # of connection points: 2
#     Edge 19, Type (0, 1), BuildingBlock: TEMPAE_clean_linker_10, # of connection points: 2
#     Edge 20, Type (0, 1), BuildingBlock: TEMPAE_clean_linker_10, # of connection points: 2
#     Edge 21, Type (0, 1), BuildingBlock: TEMPAE_clean_linker_10, # of connection points: 2
#     Edge 22, Type (0, 1), BuildingBlock: TEMPAE_clean_linker_10, # of connection points: 2
#     Edge 23, Type (0, 1), BuildingBlock: TEMPAE_clean_linker_10, # of connection points: 2
#     Edge 24, Type (0, 1), BuildingBlock: TEMPAE_clean_linker_10, # of connection points: 2
#     Edge 25, Type (0, 1), BuildingBlock: TEMPAE_clean_linker_10, # of connection points: 2
#     Edge 26, Type (0, 1), BuildingBlock: TEMPAE_clean_linker_10, # of connection points: 2
# Relax obj value: 0.226
# Max RMSD: 0.140
# Mean RMSD: 0.111
data_MOF--net-anh--node1-PAMTUU_clean_sbu_0--node2-OLANEW_clean_sbu_2--edge1-TEMPAE_clean_linker_10
_symmetry_space_group_name_H-M    P1
_symmetry_Int_Tables_number       1
_symmetry_cell_setting            triclinic
loop_
_symmetry_equiv_pos_as_xyz
'x, y, z'
_cell_length_a     36.455462
_cell_length_b     36.461166
_cell_length_c     50.967938
_cell_angle_alpha  92.264525
_cell_angle_beta   92.09444
_cell_angle_gamma 119.39062
loop_
_atom_site_label
_atom_site_type_symbol
_atom_site_fract_x
_atom_site_fract_y
_atom_site_fract_z
_atom_type_partial_charge
Tb0 Tb 0.04639 0.61945 0.16441 0.0
Tb1 Tb 0.09825 0.57068 0.18 0.0
C2 C 0.08471 0.58888 0.12165 0.0
C3 C 0.95326 0.62738 0.15761 0.0
C4 C 0.86561 0.576 0.16075 0.0
C5 C 0.88181 0.61155 0.14554 0.0
C6 C 0.92541 0.6369 0.14382 0.0
C7 C 0.93723 0.59347 0.17394 0.0
C8 C 0.89395 0.56796 0.17542 0.0
C9 C 0.99818 0.64794 0.15251 0.0
O10 O 1.00147 0.55131 0.16017 0.0
O11 O 0.03351 0.52709 0.18856 0.0
O12 O 0.08628 0.59161 0.2178 0.0
O13 O 0.03323 0.60524 0.20479 0.0
O14 O 0.10621 0.51771 0.17433 0.0
O15 O 0.14828 0.57018 0.20129 0.0
O16 O 0.1458 0.63469 0.17202 0.0
O17 O 0.1089 0.66979 0.17917 0.0
O18 O 0.08203 0.62147 0.13087 0.0
O19 O 0.08295 0.5605 0.13745 0.0
C20 C 0.99949 0.5224 0.17566 0.0
O21 O 1.0242 0.66164 0.17339 0.0
O22 O 1.00762 0.62631 0.13582 0.0
C23 C 0.05606 0.60004 0.22311 0.0
C24 C 0.17709 0.5341 0.17866 0.0
C25 C 0.24679 0.53241 0.15798 0.0
C26 C 0.22554 0.50659 0.17831 0.0
C27 C 0.19096 0.50745 0.18854 0.0
C28 C 0.19826 0.56025 0.15854 0.0
C29 C 0.23295 0.55946 0.14829 0.0
C30 C 0.14071 0.53449 0.18963 0.0
C31 C 0.14491 0.66976 0.17778 0.0
H32 H 0.86078 0.61891 0.13425 0.0
H33 H 0.93723 0.66276 0.13098 0.0
H34 H 0.95814 0.58524 0.18454 0.0
H35 H 0.88284 0.5405 0.18689 0.0
H36 H 0.23581 0.48586 0.18641 0.0
H37 H 0.17503 0.48728 0.20418 0.0
H38 H 0.18783 0.58105 0.15073 0.0
H39 H 0.24844 0.5794 0.13248 0.0
Tb40 Tb 0.50284 0.99234 0.49055 0.0
Tb41 Tb 0.60506 0.04371 0.50037 0.0
C42 C 0.56204 0.02355 0.44414 0.0
C43 C 0.3867 0.91602 0.49121 0.0
C44 C 0.31157 0.84472 0.50389 0.0
C45 C 0.3407 0.83995 0.48882 0.0
C46 C 0.37801 0.87529 0.48257 0.0
C47 C 0.35819 0.92061 0.50693 0.0
C48 C 0.32111 0.88534 0.51331 0.0
C49 C 0.42366 0.95422 0.48297 0.0
O50 O 0.52003 0.94226 0.48963 0.0
O51 O 0.59075 0.97897 0.50367 0.0
O52 O 0.57661 0.04285 0.53769 0.0
O53 O 0.51619 0.97998 0.52958 0.0
O54 O 0.66462 0.08522 0.48732 0.0
O55 O 0.65837 0.06317 0.52636 0.0
O56 O 0.58677 0.09084 0.49242 0.0
O57 O 0.51981 0.05614 0.50601 0.0
O58 O 0.52946 0.02253 0.45484 0.0
O59 O 0.59129 0.02144 0.45881 0.0
C60 C 0.55553 0.94336 0.49765 0.0
O61 O 0.44455 0.98415 0.50134 0.0
O62 O 0.44867 0.94939 0.46719 0.0
C63 C 0.5444 1.00935 0.54618 0.0
C64 C 0.70399 0.13497 0.52158 0.0
C65 C 0.74077 0.22233 0.53377 0.0
C66 C 0.76589 0.20439 0.5267 0.0
C67 C 0.74752 0.16101 0.52042 0.0
C68 C 0.67934 0.15226 0.53042 0.0
C69 C 0.69746 0.19553 0.53632 0.0
C70 C 0.68297 0.0911 0.51072 0.0
C71 C 0.55366 0.09138 0.50108 0.0
H72 H 0.33419 0.80893 0.48144 0.0
H73 H 0.39945 0.87071 0.47048 0.0
H74 H 0.36402 0.95167 0.5137 0.0
H75 H 0.299 0.89006 0.52461 0.0
H76 H 0.79948 0.2241 0.525 0.0
H77 H 0.76695 0.14812 0.51365 0.0
H78 H 0.64561 0.13255 0.53151 0.0
H79 H 0.67699 0.20812 0.54131 0.0
Tb80 Tb 0.57333 0.49874 0.82231 0.0
Tb81 Tb 0.62155 0.59838 0.84214 0.0
C82 C 0.60748 0.56771 0.78353 0.0
C83 C 0.55376 0.39697 0.79036 0.0
C84 C 0.57798 0.34166 0.7668 0.0
C85 C 0.5375 0.33627 0.76104 0.0
C86 C 0.52548 0.36362 0.77282 0.0
C87 C 0.59492 0.40389 0.79516 0.0
C88 C 0.60691 0.37634 0.78353 0.0
C89 C 0.53936 0.42327 0.8041 0.0
O90 O 0.63461 0.51118 0.83941 0.0
O91 O 0.672 0.58319 0.8373 0.0
O92 O 0.61492 0.56228 0.87669 0.0
O93 O 0.55487 0.50231 0.86157 0.0
O94 O 0.66605 0.66055 0.83486 0.0
O95 O 0.63265 0.64657 0.87052 0.0
O96 O 0.55553 0.58102 0.84298 0.0
O97 O 0.52291 0.51524 0.82066 0.0
O98 O 0.61149 0.53635 0.79176 0.0
O99 O 0.60079 0.59137 0.80049 0.0
C100 C 0.67064 0.54696 0.84084 0.0
O101 O 0.55392 0.4356 0.8285 0.0
O102 O 0.53978 0.45355 0.79106 0.0
C103 C 0.58106 0.5266 0.88102 0.0
C104 C 0.64243 0.70661 0.85019 0.0
C105 C 0.60748 0.75957 0.84332 0.0
C106 C 0.63632 0.76746 0.86477 0.0
C107 C 0.65376 0.74114 0.86814 0.0
C108 C 0.61401 0.69898 0.82862 0.0
C109 C 0.59688 0.72536 0.82514 0.0
C110 C 0.65644 0.67598 0.85538 0.0
C111 C 0.52179 0.54785 0.832 0.0
H112 H 0.51477 0.31033 0.74785 0.0
H113 H 0.49376 0.35817 0.76867 0.0
H114 H 0.6174 0.42982 0.80847 0.0
H115 H 0.63818 0.3812 0.78851 0.0
H116 H 0.64503 0.79369 0.87902 0.0
H117 H 0.6752 0.74708 0.88509 0.0
H118 H 0.60413 0.67191 0.81485 0.0
H119 H 0.57415 0.71808 0.80871 0.0
O120 O 0.62695 0.13979 0.25065 0.0
Cd121 Cd 0.64534 0.18057 0.20992 0.0
O122 O 0.56811 0.0823 0.23598 0.0
Cd123 Cd 0.50725 0.02036 0.23402 0.0
O124 O 0.4457 0.96232 0.22103 0.0
C125 C 0.42288 0.93391 0.23624 0.0
O126 O 0.43582 0.93839 0.26116 0.0
C127 C 0.59562 0.1037 0.25484 0.0
C128 C 0.72334 0.25674 0.20575 0.0
O129 O 0.69224 0.25713 0.21646 0.0
O130 O 0.71855 0.22058 0.19819 0.0
O131 O 0.57664 0.49187 0.58321 0.0
Cd132 Cd 0.58654 0.46095 0.54128 0.0
O133 O 0.57812 0.54893 0.56871 0.0
Cd134 Cd 0.57534 0.60889 0.56729 0.0
O135 O 0.57047 0.66291 0.55124 0.0
C136 C 0.56181 0.68757 0.56476 0.0
O137 O 0.55554 0.68156 0.58983 0.0
C138 C 0.57576 0.52621 0.58774 0.0
C139 C 0.57619 0.37828 0.538 0.0
O140 O 0.61026 0.40976 0.54837 0.0
O141 O 0.54648 0.38531 0.53023 0.0
O142 O 0.15236 0.56264 0.91995 0.0
Cd143 Cd 0.18389 0.56877 0.87644 0.0
O144 O 0.09138 0.55805 0.9078 0.0
Cd145 Cd 1.0286 0.55583 0.90684 0.0
O146 O 0.96791 0.55245 0.89247 0.0
C147 C 0.94101 0.55342 0.90742 0.0
O148 O 0.94879 0.55655 0.93303 0.0
C149 C 0.11754 0.56028 0.92612 0.0
C150 C 0.2548 0.55705 0.86979 0.0
O151 O 0.25867 0.58991 0.88253 0.0
O152 O 0.21757 0.52889 0.86114 0.0
O153 O 0.95371 0.57815 0.42 0.0
Cd154 Cd 0.93358 0.57449 0.46519 0.0
O155 O 0.89383 0.56523 0.39969 0.0
Cd156 Cd 0.86217 0.55253 0.43656 0.0
O157 O 0.82593 0.50937 0.46596 0.0
C158 C 0.83767 0.5138 0.49022 0.0
O159 O 0.87209 0.54814 0.49928 0.0
C160 C 0.93213 0.57414 0.39888 0.0
C161 C 1.00861 0.62917 0.49379 0.0
O162 O 0.99648 0.58972 0.49057 0.0
O163 O 0.98388 0.64205 0.48486 0.0
O164 O 0.41731 0.94851 0.73413 0.0
Cd165 Cd 0.39066 0.93178 0.77781 0.0
O166 O 0.48022 0.96742 0.75207 0.0
Cd167 Cd 0.54896 1.0027 0.75126 0.0
O168 O 0.59575 0.06911 0.75072 0.0
C169 C 0.59889 0.0871 0.72941 0.0
O170 O 0.57871 0.06366 0.70789 0.0
C171 C 0.45653 0.96271 0.7318 0.0
C172 C 0.43433 0.89731 0.80304 0.0
O173 O 0.4481 0.93716 0.80504 0.0
O174 O 0.39912 0.87376 0.7899 0.0
O175 O 0.52038 0.33345 0.04225 0.0
Cd176 Cd 0.50615 0.29306 0.08139 0.0
O177 O 0.51972 0.38181 0.06855 0.0
Cd178 Cd 0.52263 0.44063 0.08293 0.0
O179 O 0.49577 0.47841 0.09823 0.0
C180 C 0.47071 0.48391 0.08302 0.0
O181 O 0.46407 0.46887 0.05842 0.0
C182 C 0.5246 0.37009 0.04569 0.0
C183 C 0.57449 0.3421 0.11683 0.0
O184 O 0.5416 0.34633 0.11632 0.0
O185 O 0.57396 0.31301 0.10158 0.0
C186 C 0.31953 0.5672 0.14136 0.0
C187 C 0.28266 0.5303 0.14664 0.0
C188 C 0.3537 0.56525 0.13089 0.0
C189 C 0.35075 0.52547 0.12555 0.0
C190 C 0.31351 0.48816 0.13072 0.0
C191 C 0.27996 0.49104 0.14116 0.0
C192 C 0.39295 0.60565 0.12567 0.0
C193 C 0.30905 0.44509 0.12516 0.0
C194 C 0.41634 0.50618 0.07682 0.0
C195 C 0.44477 0.50134 0.09365 0.0
C196 C 0.38711 0.51663 0.0869 0.0
C197 C 0.38627 0.52225 0.11446 0.0
C198 C 0.41663 0.52007 0.13146 0.0
C199 C 0.44561 0.50971 0.12084 0.0
C200 C 0.35551 0.5191 0.06812 0.0
C201 C 0.41684 0.52607 0.16096 0.0
H202 H 0.32189 0.59764 0.14579 0.0
H203 H 0.25128 0.46241 0.14479 0.0
H204 H 0.42048 0.60824 0.13738 0.0
H205 H 0.39968 0.6054 0.10463 0.0
H206 H 0.39004 0.63402 0.13064 0.0
H207 H 0.27806 0.41921 0.13042 0.0
H208 H 0.31261 0.44029 0.10398 0.0
H209 H 0.33438 0.44278 0.13643 0.0
H210 H 0.41579 0.50024 0.05577 0.0
H211 H 0.46767 0.50633 0.13399 0.0
H212 H 0.35362 0.54805 0.0729 0.0
H213 H 0.32373 0.49171 0.07013 0.0
H214 H 0.36351 0.51898 0.0473 0.0
H215 H 0.41524 0.55498 0.16641 0.0
H216 H 0.44539 0.52835 0.1712 0.0
H217 H 0.38858 0.49897 0.1682 0.0
C218 C 0.78574 0.2927 0.51635 0.0
C219 C 0.7582 0.26878 0.53515 0.0
C220 C 0.7979 0.3353 0.51457 0.0
C221 C 0.78192 0.35457 0.53192 0.0
C222 C 0.75574 0.33134 0.5518 0.0
C223 C 0.74416 0.28862 0.5532 0.0
C224 C 0.82602 0.359 0.49307 0.0
C225 C 0.73855 0.35101 0.57082 0.0
C226 C 0.84153 0.47248 0.52711 0.0
C227 C 0.81812 0.47662 0.50612 0.0
C228 C 0.82799 0.43329 0.53779 0.0
C229 C 0.79011 0.39782 0.52731 0.0
C230 C 0.76401 0.40309 0.50834 0.0
C231 C 0.77849 0.44245 0.49784 0.0
C232 C 0.85639 0.42907 0.55829 0.0
C233 C 0.72274 0.36624 0.49723 0.0
H234 H 0.79615 0.27762 0.502 0.0
H235 H 0.72327 0.27048 0.56801 0.0
H236 H 0.80817 0.36729 0.47864 0.0
H237 H 0.8534 0.38888 0.50145 0.0
H238 H 0.83803 0.34028 0.48241 0.0
H239 H 0.72352 0.33064 0.58722 0.0
H240 H 0.76401 0.38217 0.57915 0.0
H241 H 0.71464 0.35641 0.56026 0.0
H242 H 0.87204 0.49888 0.53378 0.0
H243 H 0.75989 0.44577 0.48198 0.0
H244 H 0.87448 0.41575 0.54864 0.0
H245 H 0.83774 0.40726 0.57324 0.0
H246 H 0.87923 0.46008 0.56837 0.0
H247 H 0.72913 0.34483 0.48454 0.0
H248 H 0.70375 0.37655 0.48528 0.0
H249 H 0.7037 0.3478 0.51328 0.0
C250 C 0.56816 0.79379 0.86176 0.0
C251 C 0.58666 0.78541 0.84037 0.0
C252 C 0.54444 0.81432 0.8585 0.0
C253 C 0.5394 0.82685 0.8333 0.0
C254 C 0.55944 0.81993 0.8119 0.0
C255 C 0.58274 0.79918 0.81569 0.0
C256 C 0.52341 0.82106 0.88173 0.0
C257 C 0.55512 0.83319 0.78477 0.0
C258 C 0.44314 0.83545 0.81293 0.0
C259 C 0.45974 0.87928 0.8139 0.0
C260 C 0.46834 0.81792 0.82034 0.0
C261 C 0.51122 0.84492 0.82874 0.0
C262 C 0.52771 0.88913 0.83084 0.0
C263 C 0.5017 0.90582 0.82345 0.0
C264 C 0.44952 0.77055 0.81808 0.0
C265 C 0.5733 0.91887 0.83971 0.0
H266 H 0.57081 0.78278 0.88081 0.0
H267 H 0.59744 0.79312 0.79921 0.0
H268 H 0.53085 0.85444 0.88394 0.0
H269 H 0.48866 0.80139 0.87837 0.0
H270 H 0.53328 0.81269 0.90041 0.0
H271 H 0.57475 0.82778 0.77064 0.0
H272 H 0.52167 0.81518 0.77705 0.0
H273 H 0.5644 0.86712 0.78569 0.0
H274 H 0.41067 0.81476 0.80573 0.0
H275 H 0.51475 0.93974 0.82424 0.0
H276 H 0.45581 0.75937 0.83675 0.0
H277 H 0.46454 0.76156 0.80242 0.0
H278 H 0.41492 0.75392 0.81327 0.0
H279 H 0.58166 0.90936 0.85841 0.0
H280 H 0.58019 0.95207 0.84257 0.0
H281 H 0.59397 0.91732 0.82477 0.0
C282 C 0.79659 0.53329 0.1349 0.0
C283 C 0.81982 0.54468 0.15922 0.0
C284 C 0.75493 0.50005 0.13221 0.0
C285 C 0.73604 0.4773 0.15435 0.0
C286 C 0.75869 0.48939 0.17917 0.0
C287 C 0.8003 0.5231 0.18134 0.0
C288 C 0.73174 0.48816 0.10536 0.0
C289 C 0.73961 0.46586 0.2032 0.0
C290 C 0.61771 0.41109 0.14259 0.0
C291 C 0.61374 0.37311 0.13201 0.0
C292 C 0.65717 0.44458 0.15194 0.0
C293 C 0.69329 0.43973 0.15079 0.0
C294 C 0.68882 0.40017 0.14243 0.0
C295 C 0.64904 0.36732 0.13302 0.0
C296 C 0.66063 0.48615 0.16101 0.0
C297 C 0.72652 0.3935 0.14158 0.0
H298 H 0.81154 0.54912 0.1176 0.0
H299 H 0.81786 0.53201 0.2003 0.0
H300 H 0.72488 0.45601 0.09852 0.0
H301 H 0.70109 0.48752 0.10641 0.0
H302 H 0.75014 0.51039 0.09048 0.0
H303 H 0.75945 0.48219 0.22152 0.0
H304 H 0.70771 0.46192 0.20526 0.0
H305 H 0.73599 0.43384 0.20103 0.0
H306 H 0.5905 0.41572 0.14205 0.0
H307 H 0.64605 0.33782 0.12523 0.0
H308 H 0.67491 0.50899 0.14566 0.0
H309 H 0.6815 0.49964 0.17925 0.0
H310 H 0.62935 0.4829 0.16468 0.0
H311 H 0.7476 0.41295 0.12654 0.0
H312 H 0.71726 0.35997 0.13674 0.0
H313 H 0.74501 0.4038 0.16081 0.0
C314 C 0.24576 0.78081 0.48593 0.0
C315 C 0.2695 0.80823 0.5076 0.0
C316 C 0.20368 0.74978 0.48794 0.0
C317 C 0.18497 0.74586 0.51229 0.0
C318 C 0.20945 0.77186 0.53464 0.0
C319 C 0.25144 0.80302 0.53198 0.0
C320 C 0.17858 0.72278 0.46358 0.0
C321 C 0.19082 0.76807 0.56102 0.0
C322 C 0.0674 0.70302 0.50266 0.0
C323 C 0.05202 0.65964 0.50427 0.0
C324 C 0.11056 0.73192 0.50701 0.0
C325 C 0.1389 0.71709 0.51341 0.0
C326 C 0.12312 0.67384 0.51738 0.0
C327 C 0.07979 0.64552 0.51262 0.0
C328 C 0.12612 0.77785 0.50264 0.0
C329 C 0.15226 0.657 0.52479 0.0
H330 H 0.25941 0.78505 0.46698 0.0
H331 H 0.26991 0.82394 0.54884 0.0
H332 H 0.16332 0.68889 0.46752 0.0
H333 H 0.15314 0.72991 0.45803 0.0
H334 H 0.19846 0.72813 0.44659 0.0
H335 H 0.21543 0.78612 0.57711 0.0
H336 H 0.16832 0.78029 0.56036 0.0
H337 H 0.17294 0.73453 0.56575 0.0
H338 H 0.04613 0.71427 0.49641 0.0
H339 H 0.06808 0.61207 0.51418 0.0
H340 H 0.14373 0.78624 0.48451 0.0
H341 H 0.14816 0.79831 0.51923 0.0
H342 H 0.09985 0.78496 0.50046 0.0
H343 H 0.16945 0.65626 0.50743 0.0
H344 H 0.13476 0.62455 0.53158 0.0
H345 H 0.17615 0.67783 0.54054 0.0
C346 C 0.62865 0.32051 0.74851 0.0
C347 C 0.58858 0.30921 0.75723 0.0
C348 C 0.6393 0.28953 0.7411 0.0
C349 C 0.60922 0.24643 0.74262 0.0
C350 C 0.56849 0.23493 0.75087 0.0
C351 C 0.55877 0.2664 0.75811 0.0
C352 C 0.68292 0.3029 0.73227 0.0
C353 C 0.5354 0.18927 0.75279 0.0
C354 C 0.60619 0.1512 0.70886 0.0
C355 C 0.61426 0.13302 0.73051 0.0
C356 C 0.60884 0.19086 0.71178 0.0
C357 C 0.62001 0.21271 0.7369 0.0
C358 C 0.63334 0.1969 0.75794 0.0
C359 C 0.63032 0.15716 0.75448 0.0
C360 C 0.59513 0.20698 0.68871 0.0
C361 C 0.64619 0.21957 0.78493 0.0
H362 H 0.65171 0.35357 0.7476 0.0
H363 H 0.52805 0.25741 0.76531 0.0
H364 H 0.70077 0.29557 0.74728 0.0
H365 H 0.68105 0.2851 0.71364 0.0
H366 H 0.7009 0.33721 0.72932 0.0
H367 H 0.50483 0.1857 0.75869 0.0
H368 H 0.52989 0.17139 0.73358 0.0
H369 H 0.54658 0.17467 0.76747 0.0
H370 H 0.59449 0.13312 0.69011 0.0
H371 H 0.63748 0.14371 0.77118 0.0
H372 H 0.61529 0.24162 0.68808 0.0
H373 H 0.56224 0.20024 0.69082 0.0
H374 H 0.59612 0.19152 0.66972 0.0
H375 H 0.66699 0.25396 0.78357 0.0
H376 H 0.66279 0.20746 0.7976 0.0
H377 H 0.6176 0.21497 0.79464 0.0
C378 C 0.59316 0.90397 0.51085 0.0
C379 C 0.55542 0.90308 0.50271 0.0
C380 C 0.59346 0.86767 0.51899 0.0
C381 C 0.55511 0.82903 0.51902 0.0
C382 C 0.51707 0.82738 0.50984 0.0
C383 C 0.51764 0.86432 0.50184 0.0
C384 C 0.63482 0.87114 0.52858 0.0
C385 C 0.47547 0.78689 0.50934 0.0
C386 C 0.5632 0.72876 0.52558 0.0
C387 C 0.55899 0.72295 0.55264 0.0
C388 C 0.56105 0.76244 0.51424 0.0
C389 C 0.55477 0.79134 0.53027 0.0
C390 C 0.55008 0.78535 0.55752 0.0
C391 C 0.55214 0.75136 0.56829 0.0
C392 C 0.56601 0.7674 0.48512 0.0
C393 C 0.54359 0.81536 0.57547 0.0
H394 H 0.62267 0.93348 0.51159 0.0
H395 H 0.48823 0.86303 0.4957 0.0
H396 H 0.63414 0.8653 0.5498 0.0
H397 H 0.63965 0.84684 0.51798 0.0
H398 H 0.66219 0.90269 0.52586 0.0
H399 H 0.44931 0.78977 0.49961 0.0
H400 H 0.47777 0.76088 0.49891 0.0
H401 H 0.46751 0.77792 0.52977 0.0
H402 H 0.56833 0.70703 0.51322 0.0
H403 H 0.54877 0.74736 0.58918 0.0
H404 H 0.59467 0.79763 0.48188 0.0
H405 H 0.53868 0.7686 0.47578 0.0
H406 H 0.56864 0.74125 0.47509 0.0
H407 H 0.57121 0.84755 0.5755 0.0
H408 H 0.53923 0.80573 0.59604 0.0
H409 H 0.51552 0.81717 0.56816 0.0
C410 C 0.7108 0.50902 0.8524 0.0
C411 C 0.71084 0.54686 0.84798 0.0
C412 C 0.74806 0.50886 0.86077 0.0
C413 C 0.78657 0.54746 0.86497 0.0
C414 C 0.78699 0.58565 0.86 0.0
C415 C 0.74933 0.5849 0.85159 0.0
C416 C 0.74598 0.46736 0.8657 0.0
C417 C 0.82715 0.62756 0.86417 0.0
C418 C 0.87263 0.55342 0.91313 0.0
C419 C 0.90134 0.55134 0.89629 0.0
C420 C 0.83528 0.55191 0.90321 0.0
C421 C 0.82596 0.54817 0.87567 0.0
C422 C 0.85463 0.54579 0.85852 0.0
C423 C 0.89187 0.54744 0.86899 0.0
C424 C 0.80584 0.55462 0.9223 0.0
C425 C 0.84604 0.5417 0.82906 0.0
H426 H 0.68145 0.47937 0.84968 0.0
H427 H 0.75003 0.61441 0.84829 0.0
H428 H 0.76969 0.46388 0.85444 0.0
H429 H 0.75374 0.46663 0.88686 0.0
H430 H 0.7143 0.43995 0.86011 0.0
H431 H 0.82276 0.65426 0.85834 0.0
H432 H 0.83853 0.63326 0.88521 0.0
H433 H 0.85222 0.62718 0.85265 0.0
H434 H 0.87937 0.55641 0.93423 0.0
H435 H 0.91364 0.54574 0.85572 0.0
H436 H 0.77406 0.52638 0.91912 0.0
H437 H 0.80227 0.58258 0.91881 0.0
H438 H 0.81728 0.55698 0.94314 0.0
H439 H 0.81525 0.51321 0.82337 0.0
H440 H 0.87096 0.53949 0.81835 0.0
H441 H 0.84389 0.56932 0.82258 0.0
C442 C 0.18647 0.74763 0.19174 0.0
C443 C 0.18581 0.71002 0.18356 0.0
C444 C 0.22474 0.78492 0.19905 0.0
C445 C 0.26362 0.78496 0.19823 0.0
C446 C 0.26323 0.74739 0.18939 0.0
C447 C 0.22455 0.71057 0.18223 0.0
C448 C 0.22345 0.82408 0.20831 0.0
C449 C 0.30371 0.74576 0.1881 0.0
C450 C 0.36738 0.89021 0.19968 0.0
C451 C 0.38209 0.89605 0.22623 0.0
C452 C 0.32899 0.85446 0.1903 0.0
C453 C 0.30443 0.82356 0.2078 0.0
C454 C 0.31911 0.82936 0.23461 0.0
C455 C 0.35752 0.86531 0.24344 0.0
C456 C 0.31472 0.84967 0.16159 0.0
C457 C 0.29421 0.79743 0.25405 0.0
H458 H 0.15695 0.74782 0.19293 0.0
H459 H 0.22474 0.68191 0.17597 0.0
H460 H 0.23557 0.83285 0.2292 0.0
H461 H 0.24424 0.85093 0.19673 0.0
H462 H 0.19105 0.81968 0.20656 0.0
H463 H 0.29838 0.71489 0.17957 0.0
H464 H 0.326 0.77104 0.17609 0.0
H465 H 0.31912 0.75145 0.20817 0.0
H466 H 0.38592 0.91359 0.18615 0.0
H467 H 0.36831 0.86924 0.26398 0.0
H468 H 0.28325 0.8474 0.15961 0.0
H469 H 0.3114 0.82001 0.1524 0.0
H470 H 0.33709 0.87647 0.15051 0.0
H471 H 0.26218 0.79373 0.25467 0.0
H472 H 0.30967 0.80658 0.27424 0.0
H473 H 0.29029 0.76619 0.24769 0.0
C474 C 0.58645 0.16914 0.49529 0.0
C475 C 0.55592 0.13298 0.50657 0.0
C476 C 0.58996 0.20895 0.50073 0.0
C477 C 0.56305 0.21321 0.5185 0.0
C478 C 0.53275 0.17695 0.53039 0.0
C479 C 0.52916 0.13727 0.52402 0.0
C480 C 0.62268 0.24645 0.48746 0.0
C481 C 0.50458 0.18022 0.55023 0.0
C482 C 0.59841 0.32456 0.54825 0.0
C483 C 0.57199 0.33557 0.53391 0.0
C484 C 0.59523 0.2846 0.54393 0.0
C485 C 0.5659 0.25531 0.52417 0.0
C486 C 0.53956 0.26653 0.50945 0.0
C487 C 0.54245 0.3061 0.51477 0.0
C488 C 0.6235 0.27391 0.56045 0.0
C489 C 0.509 0.23711 0.48754 0.0
H490 H 0.60755 0.16633 0.48194 0.0
H491 H 0.50601 0.10974 0.53323 0.0
H492 H 0.60878 0.26504 0.47932 0.0
H493 H 0.64861 0.26745 0.50209 0.0
H494 H 0.63649 0.23689 0.47129 0.0
H495 H 0.48402 0.14955 0.55864 0.0
H496 H 0.52411 0.20371 0.56653 0.0
H497 H 0.48429 0.19147 0.54089 0.0
H498 H 0.62143 0.3471 0.56303 0.0
H499 H 0.52229 0.31445 0.50333 0.0
H500 H 0.64837 0.27434 0.54837 0.0
H501 H 0.60528 0.24174 0.56749 0.0
H502 H 0.63908 0.29672 0.57776 0.0
H503 H 0.52639 0.22972 0.47271 0.0
H504 H 0.49132 0.25077 0.47755 0.0
H505 H 0.48602 0.20689 0.4954 0.0
C506 C 0.47705 0.58249 0.83059 0.0
C507 C 0.4806 0.54644 0.8344 0.0
C508 C 0.43942 0.58305 0.83518 0.0
C509 C 0.40497 0.5473 0.84495 0.0
C510 C 0.40853 0.5108 0.84884 0.0
C511 C 0.44597 0.51055 0.84305 0.0
C512 C 0.43677 0.62213 0.82981 0.0
C513 C 0.37344 0.47258 0.86014 0.0
C514 C 0.32739 0.56877 0.88223 0.0
C515 C 0.29241 0.55285 0.86403 0.0
C516 C 0.36358 0.56599 0.8766 0.0
C517 C 0.36575 0.54853 0.85169 0.0
C518 C 0.33061 0.53288 0.83314 0.0
C519 C 0.29414 0.53444 0.83973 0.0
C520 C 0.39951 0.58168 0.89737 0.0
C521 C 0.33196 0.51554 0.80603 0.0
H522 H 0.50383 0.61036 0.82399 0.0
H523 H 0.4489 0.48293 0.84652 0.0
H524 H 0.40807 0.61362 0.81701 0.0
H525 H 0.43416 0.63703 0.84851 0.0
H526 H 0.46481 0.64577 0.82016 0.0
H527 H 0.38107 0.44678 0.86207 0.0
H528 H 0.36724 0.48156 0.87987 0.0
H529 H 0.34387 0.46039 0.84753 0.0
H530 H 0.3262 0.58291 0.90106 0.0
H531 H 0.26743 0.52257 0.82545 0.0
H532 H 0.4279 0.60911 0.89057 0.0
H533 H 0.40781 0.55668 0.90077 0.0
H534 H 0.3917 0.59135 0.91636 0.0
H535 H 0.35882 0.53994 0.79594 0.0
H536 H 0.30242 0.50539 0.79367 0.0
H537 H 0.33722 0.48819 0.80749 0.0
C538 C 0.92135 0.47504 0.16393 0.0
C539 C 0.95782 0.48439 0.17957 0.0
C540 C 0.88207 0.43917 0.16764 0.0
C541 C 0.87871 0.41228 0.18794 0.0
C542 C 0.91518 0.42239 0.20429 0.0
C543 C 0.95412 0.45783 0.19976 0.0
C544 C 0.84431 0.43081 0.14992 0.0
C545 C 0.91305 0.39582 0.22679 0.0
C546 C 0.77042 0.33591 0.21243 0.0
C547 C 0.76294 0.29676 0.20127 0.0
C548 C 0.80751 0.37376 0.20804 0.0
C549 C 0.8378 0.37278 0.19175 0.0
C550 C 0.8298 0.3335 0.17986 0.0
C551 C 0.79291 0.29612 0.18497 0.0
C552 C 0.81436 0.4148 0.22094 0.0
C553 C 0.86016 0.33102 0.16148 0.0
H554 H 0.92345 0.49559 0.14856 0.0
H555 H 0.98171 0.46499 0.21237 0.0
H556 H 0.82211 0.39655 0.14602 0.0
H557 H 0.82719 0.4452 0.15957 0.0
H558 H 0.85399 0.44525 0.1308 0.0
H559 H 0.94349 0.40926 0.23871 0.0
H560 H 0.88819 0.39293 0.23986 0.0
H561 H 0.90437 0.36352 0.21906 0.0
H562 H 0.74741 0.33699 0.22484 0.0
H563 H 0.7873 0.26631 0.17585 0.0
H564 H 0.81512 0.43591 0.20564 0.0
H565 H 0.84527 0.43115 0.23242 0.0
H566 H 0.78916 0.41009 0.23425 0.0
H567 H 0.86572 0.35257 0.14544 0.0
H568 H 0.84835 0.29857 0.15258 0.0
H569 H 0.89102 0.34151 0.17226 0.0
C570 C 0.09329 0.61521 0.07622 0.0
C571 C 0.08794 0.58334 0.09284 0.0
C572 C 0.09584 0.61041 0.04893 0.0
C573 C 0.09269 0.57268 0.03779 0.0
C574 C 0.08678 0.54016 0.05439 0.0
C575 C 0.08467 0.54594 0.08168 0.0
C576 C 0.10263 0.64609 0.03207 0.0
C577 C 0.0831 0.49937 0.04335 0.0
C578 C 0.06952 0.54921 0.96329 0.0
C579 C 0.10997 0.56254 0.95457 0.0
C580 C 0.06323 0.55189 0.99031 0.0
C581 C 0.09821 0.56841 0.00906 0.0
C582 C 0.139 0.58169 1.00034 0.0
C583 C 0.14431 0.57845 0.97336 0.0
C584 C 1.01916 0.53699 0.9988 0.0
C585 C 0.17728 0.59982 0.01951 0.0
H586 H 0.09582 0.64424 0.08453 0.0
H587 H 0.08027 0.52098 0.09425 0.0
H588 H 0.13305 0.65793 0.02266 0.0
H589 H 0.07735 0.63463 0.01605 0.0
H590 H 0.10303 0.67282 0.04357 0.0
H591 H 0.07636 0.47632 0.05861 0.0
H592 H 0.05761 0.48483 0.02742 0.0
H593 H 0.1129 0.50577 0.03456 0.0
H594 H 0.04268 0.53612 0.94913 0.0
H595 H 0.17578 0.58902 0.96695 0.0
H596 H 1.01769 0.56331 0.00947 0.0
H597 H 1.01072 0.51169 0.01263 0.0
H598 H 0.99527 0.52476 0.98188 0.0
H599 H 0.18076 0.62837 0.03048 0.0
H600 H 0.20683 0.60851 0.00959 0.0
H601 H 0.17328 0.57665 0.03418 0.0
C602 C 0.60037 0.0313 0.40253 0.0
C603 C 0.56664 0.03042 0.41549 0.0
C604 C 0.60542 0.03992 0.37574 0.0
C605 C 0.57634 0.0483 0.36162 0.0
C606 C 0.54183 0.04658 0.37449 0.0
C607 C 0.53733 0.03752 0.40109 0.0
C608 C 0.64239 0.04099 0.36269 0.0
C609 C 0.51026 0.05566 0.36039 0.0
C610 C 0.61121 0.11786 0.30357 0.0
C611 C 0.59126 0.08857 0.28192 0.0
C612 C 0.60732 0.10504 0.32945 0.0
C613 C 0.58322 0.06168 0.33399 0.0
C614 C 0.5638 0.03176 0.31221 0.0
C615 C 0.56797 0.04556 0.28646 0.0
C616 C 0.62817 0.13815 0.352 0.0
C617 C 0.53824 0.98521 0.31613 0.0
H618 H 0.6231 0.02571 0.41337 0.0
H619 H 0.51106 0.03691 0.41074 0.0
H620 H 0.63137 0.0205 0.34419 0.0
H621 H 0.66423 0.07356 0.35737 0.0
H622 H 0.6602 0.03052 0.37563 0.0
H623 H 0.4842 0.05132 0.37283 0.0
H624 H 0.52637 0.08862 0.35442 0.0
H625 H 0.49648 0.03468 0.34219 0.0
H626 H 0.62933 0.15118 0.30035 0.0
H627 H 0.55345 0.02256 0.26992 0.0
H628 H 0.64921 0.1311 0.36449 0.0
H629 H 0.60379 0.13773 0.3646 0.0
H630 H 0.64701 0.17041 0.34515 0.0
H631 H 0.55747 0.97491 0.32779 0.0
H632 H 0.52683 0.96581 0.29717 0.0
H633 H 0.51055 0.97891 0.32746 0.0
C634 C 0.62911 0.56069 0.73861 0.0
C635 C 0.60594 0.57253 0.75482 0.0
C636 C 0.62411 0.55938 0.71108 0.0
C637 C 0.5942 0.56891 0.69932 0.0
C638 C 0.57179 0.58242 0.71562 0.0
C639 C 0.57832 0.58458 0.74322 0.0
C640 C 0.64954 0.54587 0.69459 0.0
C641 C 0.53902 0.59203 0.704 0.0
C642 C 0.60039 0.58131 0.62529 0.0
C643 C 0.57423 0.53948 0.61538 0.0
C644 C 0.6058 0.59207 0.65259 0.0
C645 C 0.58376 0.5604 0.67026 0.0
C646 C 0.55484 0.51885 0.66004 0.0
C647 C 0.55096 0.5088 0.63283 0.0
C648 C 0.63744 0.63655 0.66258 0.0
C649 C 0.52973 0.48428 0.67796 0.0
H650 H 0.65068 0.55159 0.74752 0.0
H651 H 0.56003 0.59336 0.75569 0.0
H652 H 0.62845 0.51417 0.68478 0.0
H653 H 0.66416 0.568 0.67894 0.0
H654 H 0.67483 0.54441 0.70655 0.0
H655 H 0.52813 0.60699 0.71891 0.0
H656 H 0.55161 0.61316 0.68765 0.0
H657 H 0.51137 0.56228 0.69568 0.0
H658 H 0.61883 0.60502 0.61189 0.0
H659 H 0.53058 0.47645 0.62523 0.0
H660 H 0.66579 0.63694 0.67165 0.0
H661 H 0.62429 0.64819 0.67802 0.0
H662 H 0.64742 0.65863 0.64655 0.0
H663 H 0.55112 0.47592 0.68899 0.0
H664 H 0.50472 0.45535 0.66688 0.0
H665 H 0.51481 0.49522 0.69261 0.0
C666 C 0.5055 0.96706 0.583 0.0
C667 C 0.53715 1.00537 0.57456 0.0
C668 C 0.4955 0.96276 0.60934 0.0
C669 C 0.5177 0.99762 0.62784 0.0
C670 C 0.55036 0.0362 0.61966 0.0
C671 C 0.55986 0.03959 0.59305 0.0
C672 C 0.46048 0.92104 0.61723 0.0
C673 C 0.5749 0.07391 0.63893 0.0
C674 C 0.4575 0.9916 0.68811 0.0
C675 C 0.47443 0.97478 0.70598 0.0
C676 C 0.47282 1.00123 0.66299 0.0
C677 C 0.50554 0.9934 0.65554 0.0
C678 C 0.5233 0.9772 0.67373 0.0
C679 C 0.50733 0.96784 0.6987 0.0
C680 C 0.45297 1.01834 0.6441 0.0
C681 C 0.55817 0.96839 0.66653 0.0
H682 H 0.488 0.94029 0.56892 0.0
H683 H 0.58438 0.06925 0.58665 0.0
H684 H 0.4724 0.90894 0.63312 0.0
H685 H 0.43479 0.92541 0.62508 0.0
H686 H 0.44694 0.89677 0.6005 0.0
H687 H 0.59717 0.10247 0.62912 0.0
H688 H 0.55304 0.08106 0.64973 0.0
H689 H 0.59316 0.06668 0.65369 0.0
H690 H 0.43201 0.99693 0.69372 0.0
H691 H 0.51971 0.95378 0.71223 0.0
H692 H 0.43612 0.99483 0.6273 0.0
H693 H 0.47768 0.04738 0.63595 0.0
H694 H 0.43019 0.02572 0.65358 0.0
H695 H 0.54588 0.94205 0.65113 0.0
H696 H 0.57135 0.95979 0.6837 0.0
H697 H 0.58407 0.99641 0.65823 0.0
C698 C 0.53449 0.47564 0.9122 0.0
C699 C 0.57344 0.51074 0.90769 0.0
C700 C 0.52779 0.45629 0.93607 0.0
C701 C 0.56077 0.47247 0.95606 0.0
C702 C 0.59944 0.50923 0.95223 0.0
C703 C 0.60539 0.52798 0.92801 0.0
C704 C 0.48584 0.41757 0.93952 0.0
C705 C 0.63479 0.52799 0.97348 0.0
C706 C 0.52575 0.43064 0.02298 0.0
C707 C 0.53559 0.39801 0.0235 0.0
C708 C 0.536 0.45686 1.00187 0.0
C709 C 0.55517 0.44924 0.98025 0.0
C710 C 0.56537 0.41646 0.98067 0.0
C711 C 0.55562 0.3914 1.00231 0.0
C712 C 0.52447 0.49139 1.0024 0.0
C713 C 0.58538 0.40698 0.95786 0.0
H714 H 0.50935 0.46246 0.89676 0.0
H715 H 0.63548 0.5552 0.92471 0.0
H716 H 0.49054 0.39012 0.94243 0.0
H717 H 0.47175 0.42249 0.95731 0.0
H718 H 0.46306 0.40969 0.92231 0.0
H719 H 0.66182 0.55815 0.96813 0.0
H720 H 0.62309 0.53375 0.99215 0.0
H721 H 0.64621 0.5054 0.97722 0.0
H722 H 0.50866 0.43491 0.03852 0.0
H723 H 0.56338 0.36626 1.00252 0.0
H724 H 0.4923 0.47877 0.99293 0.0
H725 H 0.54656 0.51874 0.99165 0.0
H726 H 0.52431 0.50273 0.02291 0.0
H727 H 0.56339 0.39657 0.94004 0.0
H728 H 0.59343 0.38194 0.96184 0.0
H729 H 0.61453 0.43587 0.95333 0.0
C730 C 1.0276 0.62594 0.25835 0.0
C731 C 0.04409 0.60003 0.2504 0.0
C732 C 1.01145 0.6233 0.28315 0.0
C733 C 1.01078 0.5932 0.3001 0.0
C734 C 1.02814 0.56746 0.29237 0.0
C735 C 0.04512 0.57156 0.26764 0.0
C736 C 0.99421 0.65203 0.29092 0.0
C737 C 1.02719 0.53443 0.30972 0.0
C738 C 0.99555 0.60568 0.37252 0.0
C739 C 0.95189 0.57943 0.3735 0.0
C740 C 1.01515 0.61063 0.34873 0.0
C741 C 0.99063 0.58787 0.32554 0.0
C742 C 0.94657 0.56088 0.32649 0.0
C743 C 0.92761 0.55746 0.35043 0.0
C744 C 0.06197 0.6406 0.34835 0.0
C745 C 0.91954 0.53542 0.30225 0.0
H746 H 1.02692 0.64806 0.24499 0.0
H747 H 0.05733 0.55111 0.26131 0.0
H748 H 0.95971 0.63309 0.29287 0.0
H749 H 1.00878 0.66878 0.31036 0.0
H750 H 1.0 0.67581 0.2763 0.0
H751 H 0.04323 0.51795 0.30121 0.0
H752 H 0.04256 0.54904 0.32942 0.0
H753 H 0.99397 0.51068 0.3126 0.0
H754 H 1.01436 0.62289 0.39033 0.0
H755 H 0.89391 0.53682 0.35122 0.0
H756 H 0.0678 0.66532 0.33446 0.0
H757 H 0.07813 0.62343 0.34124 0.0
H758 H 0.07644 0.6562 0.36808 0.0
H759 H 0.92039 0.55684 0.28714 0.0
H760 H 0.88615 0.51441 0.30657 0.0
H761 H 0.93218 0.5158 0.29359 0.0
loop_
_geom_bond_atom_site_label_1
_geom_bond_atom_site_label_2
_geom_bond_distance
_geom_bond_site_symmetry_2
_ccdc_geom_bond_type
Tb0 C9 2.764 . S
Tb0 O10 2.325 . S
Tb0 O13 2.303 1_655 S
Tb0 O17 2.322 1_655 S
Tb0 O18 2.349 1_655 S
Tb0 O21 2.415 . S
Tb0 O22 2.399 . S
Tb1 O11 2.322 1_455 S
Tb1 O12 2.349 . S
Tb1 O14 2.415 . S
Tb1 O15 2.399 . S
Tb1 O16 2.325 . S
Tb1 O19 2.303 . S
Tb1 C30 2.764 . S
C2 O18 1.261 . S
C2 O19 1.257 . S
C3 C6 1.358 . S
C3 C7 1.332 . S
C3 C9 1.504 . S
C4 C5 1.373 . S
C4 C8 1.308 . S
C5 C4 1.373 . S
C5 C6 1.429 . S
C5 H32 0.932 . S
C6 C3 1.358 . S
C6 C5 1.429 . S
C6 H33 0.930 . S
C7 C3 1.332 . S
C7 C8 1.394 . S
C7 H34 0.932 . S
C8 C4 1.308 . S
C8 C7 1.394 . S
C8 H35 0.929 . S
C9 Tb0 2.764 . S
C9 C3 1.504 . S
C9 O21 1.239 . S
C9 O22 1.263 . S
O10 Tb0 2.325 . S
O10 C20 1.236 . S
O11 Tb1 2.322 1_655 S
O11 C20 1.257 . S
O12 Tb1 2.349 . S
O12 C23 1.261 . S
O13 Tb0 2.303 1_455 S
O13 C23 1.257 . S
O14 Tb1 2.415 . S
O14 C30 1.239 . S
O15 Tb1 2.399 . S
O15 C30 1.263 . S
O16 Tb1 2.325 . S
O16 C31 1.236 . S
O17 Tb0 2.322 1_455 S
O17 C31 1.257 . S
O18 Tb0 2.349 1_455 S
O18 C2 1.261 . S
O19 Tb1 2.303 . S
O19 C2 1.257 . S
C20 O10 1.236 . S
C20 O11 1.257 . S
O21 Tb0 2.415 . S
O21 C9 1.239 . S
O22 Tb0 2.399 . S
O22 C9 1.263 . S
C23 O12 1.261 . S
C23 O13 1.257 . S
C24 C27 1.358 . S
C24 C28 1.332 . S
C24 C30 1.504 . S
C25 C26 1.373 . S
C25 C29 1.308 . S
C26 C25 1.373 . S
C26 C27 1.429 . S
C26 H36 0.932 . S
C27 C24 1.358 . S
C27 C26 1.429 . S
C27 H37 0.930 . S
C28 C24 1.332 . S
C28 C29 1.394 . S
C28 H38 0.932 . S
C29 C25 1.308 . S
C29 C28 1.394 . S
C29 H39 0.929 . S
C30 Tb1 2.764 . S
C30 O14 1.239 . S
C30 O15 1.263 . S
C30 C24 1.504 . S
C31 O16 1.236 . S
C31 O17 1.257 . S
H32 C5 0.932 . S
H33 C6 0.930 . S
H34 C7 0.932 . S
H35 C8 0.929 . S
H36 C26 0.932 . S
H37 C27 0.930 . S
H38 C28 0.932 . S
H39 C29 0.929 . S
Tb40 C49 2.746 1_545 S
Tb40 O50 2.298 1_545 S
Tb40 O53 2.303 . S
Tb40 O57 2.350 . S
Tb40 O58 2.351 . S
Tb40 O61 2.397 1_545 S
Tb40 O62 2.384 1_545 S
Tb41 O51 2.322 1_545 S
Tb41 O52 2.349 . S
Tb41 O54 2.415 . S
Tb41 O55 2.399 . S
Tb41 O56 2.325 . S
Tb41 O59 2.303 . S
Tb41 C70 2.764 . S
C42 O58 1.261 . S
C42 O59 1.257 . S
C43 C46 1.358 . S
C43 C47 1.332 . S
C43 C49 1.504 . S
C44 C45 1.373 . S
C44 C48 1.308 . S
C45 C44 1.373 . S
C45 C46 1.429 . S
C45 H72 0.932 . S
C46 C43 1.358 . S
C46 C45 1.429 . S
C46 H73 0.930 . S
C47 C43 1.332 . S
C47 C48 1.394 . S
C47 H74 0.932 . S
C48 C44 1.308 . S
C48 C47 1.394 . S
C48 H75 0.929 . S
C49 Tb40 2.746 1_565 S
C49 C43 1.504 . S
C49 O61 1.239 . S
C49 O62 1.263 . S
O50 Tb40 2.298 1_565 S
O50 C60 1.236 . S
O51 Tb41 2.322 1_565 S
O51 C60 1.257 . S
O52 Tb41 2.349 . S
O52 C63 1.261 . S
O53 Tb40 2.303 . S
O53 C63 1.257 . S
O54 Tb41 2.415 . S
O54 C70 1.239 . S
O55 Tb41 2.399 . S
O55 C70 1.263 . S
O56 Tb41 2.325 . S
O56 C71 1.236 . S
O57 Tb40 2.350 . S
O57 C71 1.257 . S
O58 Tb40 2.351 . S
O58 C42 1.261 . S
O59 Tb41 2.303 . S
O59 C42 1.257 . S
C60 O50 1.236 . S
C60 O51 1.257 . S
O61 Tb40 2.397 1_565 S
O61 C49 1.239 . S
O62 Tb40 2.384 1_565 S
O62 C49 1.263 . S
C63 O52 1.261 . S
C63 O53 1.257 . S
C64 C67 1.358 . S
C64 C68 1.332 . S
C64 C70 1.504 . S
C65 C66 1.373 . S
C65 C69 1.308 . S
C66 C65 1.373 . S
C66 C67 1.429 . S
C66 H76 0.932 . S
C67 C64 1.358 . S
C67 C66 1.429 . S
C67 H77 0.930 . S
C68 C64 1.332 . S
C68 C69 1.394 . S
C68 H78 0.932 . S
C69 C65 1.308 . S
C69 C68 1.394 . S
C69 H79 0.929 . S
C70 Tb41 2.764 . S
C70 O54 1.239 . S
C70 O55 1.263 . S
C70 C64 1.504 . S
C71 O56 1.236 . S
C71 O57 1.257 . S
H72 C45 0.932 . S
H73 C46 0.930 . S
H74 C47 0.932 . S
H75 C48 0.929 . S
H76 C66 0.932 . S
H77 C67 0.930 . S
H78 C68 0.932 . S
H79 C69 0.929 . S
Tb80 C89 2.764 . S
Tb80 O90 2.325 . S
Tb80 O93 2.303 . S
Tb80 O97 2.322 . S
Tb80 O98 2.349 . S
Tb80 O101 2.415 . S
Tb80 O102 2.399 . S
Tb81 O91 2.322 . S
Tb81 O92 2.349 . S
Tb81 O94 2.415 . S
Tb81 O95 2.399 . S
Tb81 O96 2.325 . S
Tb81 O99 2.303 . S
Tb81 C110 2.764 . S
C82 O98 1.261 . S
C82 O99 1.257 . S
C83 C86 1.358 . S
C83 C87 1.332 . S
C83 C89 1.504 . S
C84 C85 1.373 . S
C84 C88 1.308 . S
C85 C84 1.373 . S
C85 C86 1.429 . S
C85 H112 0.932 . S
C86 C83 1.358 . S
C86 C85 1.429 . S
C86 H113 0.930 . S
C87 C83 1.332 . S
C87 C88 1.394 . S
C87 H114 0.932 . S
C88 C84 1.308 . S
C88 C87 1.394 . S
C88 H115 0.929 . S
C89 Tb80 2.764 . S
C89 C83 1.504 . S
C89 O101 1.239 . S
C89 O102 1.263 . S
O90 Tb80 2.325 . S
O90 C100 1.236 . S
O91 Tb81 2.322 . S
O91 C100 1.257 . S
O92 Tb81 2.349 . S
O92 C103 1.261 . S
O93 Tb80 2.303 . S
O93 C103 1.257 . S
O94 Tb81 2.415 . S
O94 C110 1.239 . S
O95 Tb81 2.399 . S
O95 C110 1.263 . S
O96 Tb81 2.325 . S
O96 C111 1.236 . S
O97 Tb80 2.322 . S
O97 C111 1.257 . S
O98 Tb80 2.349 . S
O98 C82 1.261 . S
O99 Tb81 2.303 . S
O99 C82 1.257 . S
C100 O90 1.236 . S
C100 O91 1.257 . S
O101 Tb80 2.415 . S
O101 C89 1.239 . S
O102 Tb80 2.399 . S
O102 C89 1.263 . S
C103 O92 1.261 . S
C103 O93 1.257 . S
C104 C107 1.358 . S
C104 C108 1.332 . S
C104 C110 1.504 . S
C105 C106 1.373 . S
C105 C109 1.308 . S
C106 C105 1.373 . S
C106 C107 1.429 . S
C106 H116 0.932 . S
C107 C104 1.358 . S
C107 C106 1.429 . S
C107 H117 0.930 . S
C108 C104 1.332 . S
C108 C109 1.394 . S
C108 H118 0.932 . S
C109 C105 1.308 . S
C109 C108 1.394 . S
C109 H119 0.929 . S
C110 Tb81 2.764 . S
C110 O94 1.239 . S
C110 O95 1.263 . S
C110 C104 1.504 . S
C111 O96 1.236 . S
C111 O97 1.257 . S
H112 C85 0.932 . S
H113 C86 0.930 . S
H114 C87 0.932 . S
H115 C88 0.929 . S
H116 C106 0.932 . S
H117 C107 0.930 . S
H118 C108 0.932 . S
H119 C109 0.929 . S
O120 Cd121 2.300 . S
O120 C127 1.275 . S
Cd121 O120 2.300 . S
Cd121 O129 2.381 . S
Cd121 O130 2.378 . S
O122 Cd123 2.385 . S
O122 C127 1.255 1_565 S
Cd123 O122 2.385 . S
Cd123 O124 2.317 . S
O124 Cd123 2.317 . S
O124 C125 1.232 . S
C125 O124 1.232 . S
C125 O126 1.218 . S
O126 C125 1.218 . S
C127 O120 1.275 . S
C127 O122 1.255 1_545 S
C128 O129 1.258 . S
C128 O130 1.256 . S
O129 Cd121 2.381 . S
O129 C128 1.258 . S
O130 Cd121 2.378 . S
O130 C128 1.256 . S
O131 Cd132 2.300 . S
O131 C138 1.275 . S
Cd132 O131 2.300 . S
Cd132 O140 2.381 . S
Cd132 O141 2.378 . S
O133 Cd134 2.385 . S
O133 C138 1.255 . S
Cd134 O133 2.385 . S
Cd134 O135 2.317 . S
O135 Cd134 2.317 . S
O135 C136 1.232 . S
C136 O135 1.232 . S
C136 O137 1.218 . S
O137 C136 1.218 . S
C138 O131 1.275 . S
C138 O133 1.255 . S
C139 O140 1.258 . S
C139 O141 1.256 . S
O140 Cd132 2.381 . S
O140 C139 1.258 . S
O141 Cd132 2.378 . S
O141 C139 1.256 . S
O142 Cd143 2.300 . S
O142 C149 1.275 . S
Cd143 O142 2.300 . S
Cd143 O151 2.381 . S
Cd143 O152 2.378 . S
O144 Cd145 2.385 1_455 S
O144 C149 1.255 . S
Cd145 O144 2.385 1_655 S
Cd145 O146 2.317 . S
O146 Cd145 2.317 . S
O146 C147 1.232 . S
C147 O146 1.232 . S
C147 O148 1.218 . S
O148 C147 1.218 . S
C149 O142 1.275 . S
C149 O144 1.255 . S
C150 O151 1.258 . S
C150 O152 1.256 . S
O151 Cd143 2.381 . S
O151 C150 1.258 . S
O152 Cd143 2.378 . S
O152 C150 1.256 . S
O153 Cd154 2.300 . S
O153 C160 1.275 1_455 S
Cd154 O153 2.300 . S
Cd154 O162 2.381 . S
Cd154 O163 2.378 . S
O155 Cd156 2.385 . S
O155 C160 1.255 . S
Cd156 O155 2.385 . S
Cd156 O157 2.317 . S
O157 Cd156 2.317 . S
O157 C158 1.232 . S
C158 O157 1.232 . S
C158 O159 1.218 . S
O159 C158 1.218 . S
C160 O153 1.275 1_655 S
C160 O155 1.255 . S
C161 O162 1.258 . S
C161 O163 1.256 . S
O162 Cd154 2.381 . S
O162 C161 1.258 . S
O163 Cd154 2.378 . S
O163 C161 1.256 . S
O164 Cd165 2.300 . S
O164 C171 1.275 1_565 S
Cd165 O164 2.300 . S
Cd165 O173 2.381 . S
Cd165 O174 2.378 . S
O166 Cd167 2.385 . S
O166 C171 1.255 . S
Cd167 O166 2.385 . S
Cd167 O168 2.317 . S
O168 Cd167 2.317 . S
O168 C169 1.232 . S
C169 O168 1.232 . S
C169 O170 1.218 . S
O170 C169 1.218 . S
C171 O164 1.275 1_545 S
C171 O166 1.255 . S
C172 O173 1.258 . S
C172 O174 1.256 . S
O173 Cd165 2.381 . S
O173 C172 1.258 . S
O174 Cd165 2.378 . S
O174 C172 1.256 . S
O175 Cd176 2.300 . S
O175 C182 1.275 . S
Cd176 O175 2.300 . S
Cd176 O184 2.381 . S
Cd176 O185 2.378 . S
O177 Cd178 2.385 . S
O177 C182 1.255 . S
Cd178 O177 2.385 . S
Cd178 O179 2.317 . S
O179 Cd178 2.317 . S
O179 C180 1.232 . S
C180 O179 1.232 . S
C180 O181 1.218 . S
O181 C180 1.218 . S
C182 O175 1.275 . S
C182 O177 1.255 . S
C183 O184 1.258 . S
C183 O185 1.256 . S
O184 Cd176 2.381 . S
O184 C183 1.258 . S
O185 Cd176 2.378 . S
O185 C183 1.256 . S
C186 C187 1.391 . S
C186 C188 1.394 . S
C186 H202 0.931 . S
C187 C186 1.391 . S
C187 C191 1.376 . S
C188 C186 1.394 . S
C188 C189 1.369 . S
C188 C192 1.531 . S
C189 C188 1.369 . S
C189 C190 1.410 . S
C189 C197 1.503 . S
C190 C189 1.410 . S
C190 C191 1.392 . S
C190 C193 1.511 . S
C191 C187 1.376 . S
C191 C190 1.392 . S
C191 H203 0.929 . S
C192 C188 1.531 . S
C192 H204 0.960 . S
C192 H205 0.962 . S
C192 H206 0.960 . S
C193 C190 1.511 . S
C193 H207 0.961 . S
C193 H208 0.961 . S
C193 H209 0.961 . S
C194 C195 1.370 . S
C194 C196 1.363 . S
C194 H210 0.931 . S
C195 C194 1.370 . S
C195 C199 1.408 . S
C196 C194 1.363 . S
C196 C197 1.370 . S
C196 C200 1.524 . S
C197 C189 1.503 . S
C197 C196 1.370 . S
C197 C198 1.403 . S
C198 C197 1.403 . S
C198 C199 1.404 . S
C198 C201 1.539 . S
C199 C195 1.408 . S
C199 C198 1.404 . S
C199 H211 0.930 . S
C200 C196 1.524 . S
C200 H212 0.956 . S
C200 H213 0.961 . S
C200 H214 0.961 . S
C201 C198 1.539 . S
C201 H215 0.958 . S
C201 H216 0.961 . S
C201 H217 0.960 . S
H202 C186 0.931 . S
H203 C191 0.929 . S
H204 C192 0.960 . S
H205 C192 0.962 . S
H206 C192 0.960 . S
H207 C193 0.961 . S
H208 C193 0.961 . S
H209 C193 0.961 . S
H210 C194 0.931 . S
H211 C199 0.930 . S
H212 C200 0.956 . S
H213 C200 0.961 . S
H214 C200 0.961 . S
H215 C201 0.958 . S
H216 C201 0.961 . S
H217 C201 0.960 . S
C218 C219 1.391 . S
C218 C220 1.394 . S
C218 H234 0.931 . S
C219 C218 1.391 . S
C219 C223 1.376 . S
C220 C218 1.394 . S
C220 C221 1.369 . S
C220 C224 1.531 . S
C221 C220 1.369 . S
C221 C222 1.410 . S
C221 C229 1.503 . S
C222 C221 1.410 . S
C222 C223 1.392 . S
C222 C225 1.511 . S
C223 C219 1.376 . S
C223 C222 1.392 . S
C223 H235 0.929 . S
C224 C220 1.531 . S
C224 H236 0.960 . S
C224 H237 0.962 . S
C224 H238 0.960 . S
C225 C222 1.511 . S
C225 H239 0.961 . S
C225 H240 0.961 . S
C225 H241 0.961 . S
C226 C227 1.370 . S
C226 C228 1.363 . S
C226 H242 0.931 . S
C227 C226 1.370 . S
C227 C231 1.408 . S
C228 C226 1.363 . S
C228 C229 1.370 . S
C228 C232 1.524 . S
C229 C221 1.503 . S
C229 C228 1.370 . S
C229 C230 1.403 . S
C230 C229 1.403 . S
C230 C231 1.404 . S
C230 C233 1.539 . S
C231 C227 1.408 . S
C231 C230 1.404 . S
C231 H243 0.930 . S
C232 C228 1.524 . S
C232 H244 0.956 . S
C232 H245 0.961 . S
C232 H246 0.961 . S
C233 C230 1.539 . S
C233 H247 0.958 . S
C233 H248 0.961 . S
C233 H249 0.960 . S
H234 C218 0.931 . S
H235 C223 0.929 . S
H236 C224 0.960 . S
H237 C224 0.962 . S
H238 C224 0.960 . S
H239 C225 0.961 . S
H240 C225 0.961 . S
H241 C225 0.961 . S
H242 C226 0.931 . S
H243 C231 0.930 . S
H244 C232 0.956 . S
H245 C232 0.961 . S
H246 C232 0.961 . S
H247 C233 0.958 . S
H248 C233 0.961 . S
H249 C233 0.960 . S
C250 C251 1.391 . S
C250 C252 1.394 . S
C250 H266 0.931 . S
C251 C250 1.391 . S
C251 C255 1.376 . S
C252 C250 1.394 . S
C252 C253 1.369 . S
C252 C256 1.531 . S
C253 C252 1.369 . S
C253 C254 1.410 . S
C253 C261 1.503 . S
C254 C253 1.410 . S
C254 C255 1.392 . S
C254 C257 1.511 . S
C255 C251 1.376 . S
C255 C254 1.392 . S
C255 H267 0.929 . S
C256 C252 1.531 . S
C256 H268 0.960 . S
C256 H269 0.962 . S
C256 H270 0.960 . S
C257 C254 1.511 . S
C257 H271 0.961 . S
C257 H272 0.961 . S
C257 H273 0.961 . S
C258 C259 1.370 . S
C258 C260 1.363 . S
C258 H274 0.931 . S
C259 C258 1.370 . S
C259 C263 1.408 . S
C260 C258 1.363 . S
C260 C261 1.370 . S
C260 C264 1.524 . S
C261 C253 1.503 . S
C261 C260 1.370 . S
C261 C262 1.403 . S
C262 C261 1.403 . S
C262 C263 1.404 . S
C262 C265 1.539 . S
C263 C259 1.408 . S
C263 C262 1.404 . S
C263 H275 0.930 . S
C264 C260 1.524 . S
C264 H276 0.956 . S
C264 H277 0.961 . S
C264 H278 0.961 . S
C265 C262 1.539 . S
C265 H279 0.958 . S
C265 H280 0.961 . S
C265 H281 0.960 . S
H266 C250 0.931 . S
H267 C255 0.929 . S
H268 C256 0.960 . S
H269 C256 0.962 . S
H270 C256 0.960 . S
H271 C257 0.961 . S
H272 C257 0.961 . S
H273 C257 0.961 . S
H274 C258 0.931 . S
H275 C263 0.930 . S
H276 C264 0.956 . S
H277 C264 0.961 . S
H278 C264 0.961 . S
H279 C265 0.958 . S
H280 C265 0.961 . S
H281 C265 0.960 . S
C282 C283 1.391 . S
C282 C284 1.394 . S
C282 H298 0.931 . S
C283 C282 1.391 . S
C283 C287 1.376 . S
C284 C282 1.394 . S
C284 C285 1.369 . S
C284 C288 1.531 . S
C285 C284 1.369 . S
C285 C286 1.410 . S
C285 C293 1.503 . S
C286 C285 1.410 . S
C286 C287 1.392 . S
C286 C289 1.511 . S
C287 C283 1.376 . S
C287 C286 1.392 . S
C287 H299 0.929 . S
C288 C284 1.531 . S
C288 H300 0.960 . S
C288 H301 0.962 . S
C288 H302 0.960 . S
C289 C286 1.511 . S
C289 H303 0.961 . S
C289 H304 0.961 . S
C289 H305 0.961 . S
C290 C291 1.370 . S
C290 C292 1.363 . S
C290 H306 0.931 . S
C291 C290 1.370 . S
C291 C295 1.408 . S
C292 C290 1.363 . S
C292 C293 1.370 . S
C292 C296 1.524 . S
C293 C285 1.503 . S
C293 C292 1.370 . S
C293 C294 1.403 . S
C294 C293 1.403 . S
C294 C295 1.404 . S
C294 C297 1.539 . S
C295 C291 1.408 . S
C295 C294 1.404 . S
C295 H307 0.930 . S
C296 C292 1.524 . S
C296 H308 0.956 . S
C296 H309 0.961 . S
C296 H310 0.961 . S
C297 C294 1.539 . S
C297 H311 0.958 . S
C297 H312 0.961 . S
C297 H313 0.960 . S
H298 C282 0.931 . S
H299 C287 0.929 . S
H300 C288 0.960 . S
H301 C288 0.962 . S
H302 C288 0.960 . S
H303 C289 0.961 . S
H304 C289 0.961 . S
H305 C289 0.961 . S
H306 C290 0.931 . S
H307 C295 0.930 . S
H308 C296 0.956 . S
H309 C296 0.961 . S
H310 C296 0.961 . S
H311 C297 0.958 . S
H312 C297 0.961 . S
H313 C297 0.960 . S
C314 C315 1.391 . S
C314 C316 1.394 . S
C314 H330 0.931 . S
C315 C314 1.391 . S
C315 C319 1.376 . S
C316 C314 1.394 . S
C316 C317 1.369 . S
C316 C320 1.531 . S
C317 C316 1.369 . S
C317 C318 1.410 . S
C317 C325 1.503 . S
C318 C317 1.410 . S
C318 C319 1.392 . S
C318 C321 1.511 . S
C319 C315 1.376 . S
C319 C318 1.392 . S
C319 H331 0.929 . S
C320 C316 1.531 . S
C320 H332 0.960 . S
C320 H333 0.962 . S
C320 H334 0.960 . S
C321 C318 1.511 . S
C321 H335 0.961 . S
C321 H336 0.961 . S
C321 H337 0.961 . S
C322 C323 1.370 . S
C322 C324 1.363 . S
C322 H338 0.931 . S
C323 C322 1.370 . S
C323 C327 1.408 . S
C324 C322 1.363 . S
C324 C325 1.370 . S
C324 C328 1.524 . S
C325 C317 1.503 . S
C325 C324 1.370 . S
C325 C326 1.403 . S
C326 C325 1.403 . S
C326 C327 1.404 . S
C326 C329 1.539 . S
C327 C323 1.408 . S
C327 C326 1.404 . S
C327 H339 0.930 . S
C328 C324 1.524 . S
C328 H340 0.956 . S
C328 H341 0.961 . S
C328 H342 0.961 . S
C329 C326 1.539 . S
C329 H343 0.958 . S
C329 H344 0.961 . S
C329 H345 0.960 . S
H330 C314 0.931 . S
H331 C319 0.929 . S
H332 C320 0.960 . S
H333 C320 0.962 . S
H334 C320 0.960 . S
H335 C321 0.961 . S
H336 C321 0.961 . S
H337 C321 0.961 . S
H338 C322 0.931 . S
H339 C327 0.930 . S
H340 C328 0.956 . S
H341 C328 0.961 . S
H342 C328 0.961 . S
H343 C329 0.958 . S
H344 C329 0.961 . S
H345 C329 0.960 . S
C346 C347 1.391 . S
C346 C348 1.394 . S
C346 H362 0.931 . S
C347 C346 1.391 . S
C347 C351 1.376 . S
C348 C346 1.394 . S
C348 C349 1.369 . S
C348 C352 1.531 . S
C349 C348 1.369 . S
C349 C350 1.410 . S
C349 C357 1.503 . S
C350 C349 1.410 . S
C350 C351 1.392 . S
C350 C353 1.511 . S
C351 C347 1.376 . S
C351 C350 1.392 . S
C351 H363 0.929 . S
C352 C348 1.531 . S
C352 H364 0.960 . S
C352 H365 0.962 . S
C352 H366 0.960 . S
C353 C350 1.511 . S
C353 H367 0.961 . S
C353 H368 0.961 . S
C353 H369 0.961 . S
C354 C355 1.370 . S
C354 C356 1.363 . S
C354 H370 0.931 . S
C355 C354 1.370 . S
C355 C359 1.408 . S
C356 C354 1.363 . S
C356 C357 1.370 . S
C356 C360 1.524 . S
C357 C349 1.503 . S
C357 C356 1.370 . S
C357 C358 1.403 . S
C358 C357 1.403 . S
C358 C359 1.404 . S
C358 C361 1.539 . S
C359 C355 1.408 . S
C359 C358 1.404 . S
C359 H371 0.930 . S
C360 C356 1.524 . S
C360 H372 0.956 . S
C360 H373 0.961 . S
C360 H374 0.961 . S
C361 C358 1.539 . S
C361 H375 0.958 . S
C361 H376 0.961 . S
C361 H377 0.960 . S
H362 C346 0.931 . S
H363 C351 0.929 . S
H364 C352 0.960 . S
H365 C352 0.962 . S
H366 C352 0.960 . S
H367 C353 0.961 . S
H368 C353 0.961 . S
H369 C353 0.961 . S
H370 C354 0.931 . S
H371 C359 0.930 . S
H372 C360 0.956 . S
H373 C360 0.961 . S
H374 C360 0.961 . S
H375 C361 0.958 . S
H376 C361 0.961 . S
H377 C361 0.960 . S
C378 C379 1.391 . S
C378 C380 1.394 . S
C378 H394 0.931 . S
C379 C378 1.391 . S
C379 C383 1.376 . S
C380 C378 1.394 . S
C380 C381 1.369 . S
C380 C384 1.531 . S
C381 C380 1.369 . S
C381 C382 1.410 . S
C381 C389 1.503 . S
C382 C381 1.410 . S
C382 C383 1.392 . S
C382 C385 1.511 . S
C383 C379 1.376 . S
C383 C382 1.392 . S
C383 H395 0.929 . S
C384 C380 1.531 . S
C384 H396 0.960 . S
C384 H397 0.962 . S
C384 H398 0.960 . S
C385 C382 1.511 . S
C385 H399 0.961 . S
C385 H400 0.961 . S
C385 H401 0.961 . S
C386 C387 1.370 . S
C386 C388 1.363 . S
C386 H402 0.931 . S
C387 C386 1.370 . S
C387 C391 1.408 . S
C388 C386 1.363 . S
C388 C389 1.370 . S
C388 C392 1.524 . S
C389 C381 1.503 . S
C389 C388 1.370 . S
C389 C390 1.403 . S
C390 C389 1.403 . S
C390 C391 1.404 . S
C390 C393 1.539 . S
C391 C387 1.408 . S
C391 C390 1.404 . S
C391 H403 0.930 . S
C392 C388 1.524 . S
C392 H404 0.956 . S
C392 H405 0.961 . S
C392 H406 0.961 . S
C393 C390 1.539 . S
C393 H407 0.958 . S
C393 H408 0.961 . S
C393 H409 0.960 . S
H394 C378 0.931 . S
H395 C383 0.929 . S
H396 C384 0.960 . S
H397 C384 0.962 . S
H398 C384 0.960 . S
H399 C385 0.961 . S
H400 C385 0.961 . S
H401 C385 0.961 . S
H402 C386 0.931 . S
H403 C391 0.930 . S
H404 C392 0.956 . S
H405 C392 0.961 . S
H406 C392 0.961 . S
H407 C393 0.958 . S
H408 C393 0.961 . S
H409 C393 0.960 . S
C410 C411 1.391 . S
C410 C412 1.394 . S
C410 H426 0.931 . S
C411 C410 1.391 . S
C411 C415 1.376 . S
C412 C410 1.394 . S
C412 C413 1.369 . S
C412 C416 1.531 . S
C413 C412 1.369 . S
C413 C414 1.410 . S
C413 C421 1.503 . S
C414 C413 1.410 . S
C414 C415 1.392 . S
C414 C417 1.511 . S
C415 C411 1.376 . S
C415 C414 1.392 . S
C415 H427 0.929 . S
C416 C412 1.531 . S
C416 H428 0.960 . S
C416 H429 0.962 . S
C416 H430 0.960 . S
C417 C414 1.511 . S
C417 H431 0.961 . S
C417 H432 0.961 . S
C417 H433 0.961 . S
C418 C419 1.370 . S
C418 C420 1.363 . S
C418 H434 0.931 . S
C419 C418 1.370 . S
C419 C423 1.408 . S
C420 C418 1.363 . S
C420 C421 1.370 . S
C420 C424 1.524 . S
C421 C413 1.503 . S
C421 C420 1.370 . S
C421 C422 1.403 . S
C422 C421 1.403 . S
C422 C423 1.404 . S
C422 C425 1.539 . S
C423 C419 1.408 . S
C423 C422 1.404 . S
C423 H435 0.930 . S
C424 C420 1.524 . S
C424 H436 0.956 . S
C424 H437 0.961 . S
C424 H438 0.961 . S
C425 C422 1.539 . S
C425 H439 0.958 . S
C425 H440 0.961 . S
C425 H441 0.960 . S
H426 C410 0.931 . S
H427 C415 0.929 . S
H428 C416 0.960 . S
H429 C416 0.962 . S
H430 C416 0.960 . S
H431 C417 0.961 . S
H432 C417 0.961 . S
H433 C417 0.961 . S
H434 C418 0.931 . S
H435 C423 0.930 . S
H436 C424 0.956 . S
H437 C424 0.961 . S
H438 C424 0.961 . S
H439 C425 0.958 . S
H440 C425 0.961 . S
H441 C425 0.960 . S
C442 C443 1.391 . S
C442 C444 1.394 . S
C442 H458 0.931 . S
C443 C442 1.391 . S
C443 C447 1.376 . S
C444 C442 1.394 . S
C444 C445 1.369 . S
C444 C448 1.531 . S
C445 C444 1.369 . S
C445 C446 1.410 . S
C445 C453 1.503 . S
C446 C445 1.410 . S
C446 C447 1.392 . S
C446 C449 1.511 . S
C447 C443 1.376 . S
C447 C446 1.392 . S
C447 H459 0.929 . S
C448 C444 1.531 . S
C448 H460 0.960 . S
C448 H461 0.962 . S
C448 H462 0.960 . S
C449 C446 1.511 . S
C449 H463 0.961 . S
C449 H464 0.961 . S
C449 H465 0.961 . S
C450 C451 1.370 . S
C450 C452 1.363 . S
C450 H466 0.931 . S
C451 C450 1.370 . S
C451 C455 1.408 . S
C452 C450 1.363 . S
C452 C453 1.370 . S
C452 C456 1.524 . S
C453 C445 1.503 . S
C453 C452 1.370 . S
C453 C454 1.403 . S
C454 C453 1.403 . S
C454 C455 1.404 . S
C454 C457 1.539 . S
C455 C451 1.408 . S
C455 C454 1.404 . S
C455 H467 0.930 . S
C456 C452 1.524 . S
C456 H468 0.956 . S
C456 H469 0.961 . S
C456 H470 0.961 . S
C457 C454 1.539 . S
C457 H471 0.958 . S
C457 H472 0.961 . S
C457 H473 0.960 . S
H458 C442 0.931 . S
H459 C447 0.929 . S
H460 C448 0.960 . S
H461 C448 0.962 . S
H462 C448 0.960 . S
H463 C449 0.961 . S
H464 C449 0.961 . S
H465 C449 0.961 . S
H466 C450 0.931 . S
H467 C455 0.930 . S
H468 C456 0.956 . S
H469 C456 0.961 . S
H470 C456 0.961 . S
H471 C457 0.958 . S
H472 C457 0.961 . S
H473 C457 0.960 . S
C474 C475 1.391 . S
C474 C476 1.394 . S
C474 H490 0.931 . S
C475 C474 1.391 . S
C475 C479 1.376 . S
C476 C474 1.394 . S
C476 C477 1.369 . S
C476 C480 1.531 . S
C477 C476 1.369 . S
C477 C478 1.410 . S
C477 C485 1.503 . S
C478 C477 1.410 . S
C478 C479 1.392 . S
C478 C481 1.511 . S
C479 C475 1.376 . S
C479 C478 1.392 . S
C479 H491 0.929 . S
C480 C476 1.531 . S
C480 H492 0.960 . S
C480 H493 0.962 . S
C480 H494 0.960 . S
C481 C478 1.511 . S
C481 H495 0.961 . S
C481 H496 0.961 . S
C481 H497 0.961 . S
C482 C483 1.370 . S
C482 C484 1.363 . S
C482 H498 0.931 . S
C483 C482 1.370 . S
C483 C487 1.408 . S
C484 C482 1.363 . S
C484 C485 1.370 . S
C484 C488 1.524 . S
C485 C477 1.503 . S
C485 C484 1.370 . S
C485 C486 1.403 . S
C486 C485 1.403 . S
C486 C487 1.404 . S
C486 C489 1.539 . S
C487 C483 1.408 . S
C487 C486 1.404 . S
C487 H499 0.930 . S
C488 C484 1.524 . S
C488 H500 0.956 . S
C488 H501 0.961 . S
C488 H502 0.961 . S
C489 C486 1.539 . S
C489 H503 0.958 . S
C489 H504 0.961 . S
C489 H505 0.960 . S
H490 C474 0.931 . S
H491 C479 0.929 . S
H492 C480 0.960 . S
H493 C480 0.962 . S
H494 C480 0.960 . S
H495 C481 0.961 . S
H496 C481 0.961 . S
H497 C481 0.961 . S
H498 C482 0.931 . S
H499 C487 0.930 . S
H500 C488 0.956 . S
H501 C488 0.961 . S
H502 C488 0.961 . S
H503 C489 0.958 . S
H504 C489 0.961 . S
H505 C489 0.960 . S
C506 C507 1.391 . S
C506 C508 1.394 . S
C506 H522 0.931 . S
C507 C506 1.391 . S
C507 C511 1.376 . S
C508 C506 1.394 . S
C508 C509 1.369 . S
C508 C512 1.531 . S
C509 C508 1.369 . S
C509 C510 1.410 . S
C509 C517 1.503 . S
C510 C509 1.410 . S
C510 C511 1.392 . S
C510 C513 1.511 . S
C511 C507 1.376 . S
C511 C510 1.392 . S
C511 H523 0.929 . S
C512 C508 1.531 . S
C512 H524 0.960 . S
C512 H525 0.962 . S
C512 H526 0.960 . S
C513 C510 1.511 . S
C513 H527 0.961 . S
C513 H528 0.961 . S
C513 H529 0.961 . S
C514 C515 1.370 . S
C514 C516 1.363 . S
C514 H530 0.931 . S
C515 C514 1.370 . S
C515 C519 1.408 . S
C516 C514 1.363 . S
C516 C517 1.370 . S
C516 C520 1.524 . S
C517 C509 1.503 . S
C517 C516 1.370 . S
C517 C518 1.403 . S
C518 C517 1.403 . S
C518 C519 1.404 . S
C518 C521 1.539 . S
C519 C515 1.408 . S
C519 C518 1.404 . S
C519 H531 0.930 . S
C520 C516 1.524 . S
C520 H532 0.956 . S
C520 H533 0.961 . S
C520 H534 0.961 . S
C521 C518 1.539 . S
C521 H535 0.958 . S
C521 H536 0.961 . S
C521 H537 0.960 . S
H522 C506 0.931 . S
H523 C511 0.929 . S
H524 C512 0.960 . S
H525 C512 0.962 . S
H526 C512 0.960 . S
H527 C513 0.961 . S
H528 C513 0.961 . S
H529 C513 0.961 . S
H530 C514 0.931 . S
H531 C519 0.930 . S
H532 C520 0.956 . S
H533 C520 0.961 . S
H534 C520 0.961 . S
H535 C521 0.958 . S
H536 C521 0.961 . S
H537 C521 0.960 . S
C538 C539 1.391 . S
C538 C540 1.394 . S
C538 H554 0.931 . S
C539 C538 1.391 . S
C539 C543 1.376 . S
C540 C538 1.394 . S
C540 C541 1.369 . S
C540 C544 1.531 . S
C541 C540 1.369 . S
C541 C542 1.410 . S
C541 C549 1.503 . S
C542 C541 1.410 . S
C542 C543 1.392 . S
C542 C545 1.511 . S
C543 C539 1.376 . S
C543 C542 1.392 . S
C543 H555 0.929 . S
C544 C540 1.531 . S
C544 H556 0.960 . S
C544 H557 0.962 . S
C544 H558 0.960 . S
C545 C542 1.511 . S
C545 H559 0.961 . S
C545 H560 0.961 . S
C545 H561 0.961 . S
C546 C547 1.370 . S
C546 C548 1.363 . S
C546 H562 0.931 . S
C547 C546 1.370 . S
C547 C551 1.408 . S
C548 C546 1.363 . S
C548 C549 1.370 . S
C548 C552 1.524 . S
C549 C541 1.503 . S
C549 C548 1.370 . S
C549 C550 1.403 . S
C550 C549 1.403 . S
C550 C551 1.404 . S
C550 C553 1.539 . S
C551 C547 1.408 . S
C551 C550 1.404 . S
C551 H563 0.930 . S
C552 C548 1.524 . S
C552 H564 0.956 . S
C552 H565 0.961 . S
C552 H566 0.961 . S
C553 C550 1.539 . S
C553 H567 0.958 . S
C553 H568 0.961 . S
C553 H569 0.960 . S
H554 C538 0.931 . S
H555 C543 0.929 . S
H556 C544 0.960 . S
H557 C544 0.962 . S
H558 C544 0.960 . S
H559 C545 0.961 . S
H560 C545 0.961 . S
H561 C545 0.961 . S
H562 C546 0.931 . S
H563 C551 0.930 . S
H564 C552 0.956 . S
H565 C552 0.961 . S
H566 C552 0.961 . S
H567 C553 0.958 . S
H568 C553 0.961 . S
H569 C553 0.960 . S
C570 C571 1.391 . S
C570 C572 1.394 . S
C570 H586 0.931 . S
C571 C570 1.391 . S
C571 C575 1.376 . S
C572 C570 1.394 . S
C572 C573 1.369 . S
C572 C576 1.531 . S
C573 C572 1.369 . S
C573 C574 1.410 . S
C573 C581 1.503 . S
C574 C573 1.410 . S
C574 C575 1.392 . S
C574 C577 1.511 . S
C575 C571 1.376 . S
C575 C574 1.392 . S
C575 H587 0.929 . S
C576 C572 1.531 . S
C576 H588 0.960 . S
C576 H589 0.962 . S
C576 H590 0.960 . S
C577 C574 1.511 . S
C577 H591 0.961 . S
C577 H592 0.961 . S
C577 H593 0.961 . S
C578 C579 1.370 . S
C578 C580 1.363 . S
C578 H594 0.931 1_455 S
C579 C578 1.370 . S
C579 C583 1.408 . S
C580 C578 1.363 . S
C580 C581 1.370 1_556 S
C580 C584 1.524 1_456 S
C581 C573 1.503 . S
C581 C580 1.370 1_554 S
C581 C582 1.403 1_554 S
C582 C581 1.403 1_556 S
C582 C583 1.404 . S
C582 C585 1.539 1_556 S
C583 C579 1.408 . S
C583 C582 1.404 . S
C583 H595 0.930 . S
C584 C580 1.524 1_654 S
C584 H596 0.956 . S
C584 H597 0.961 . S
C584 H598 0.961 1_554 S
C585 C582 1.539 1_554 S
C585 H599 0.958 . S
C585 H600 0.961 1_554 S
C585 H601 0.960 . S
H586 C570 0.931 . S
H587 C575 0.929 . S
H588 C576 0.960 . S
H589 C576 0.962 . S
H590 C576 0.960 . S
H591 C577 0.961 . S
H592 C577 0.961 . S
H593 C577 0.961 . S
H594 C578 0.931 1_655 S
H595 C583 0.930 . S
H596 C584 0.956 . S
H597 C584 0.961 . S
H598 C584 0.961 1_556 S
H599 C585 0.958 . S
H600 C585 0.961 1_556 S
H601 C585 0.960 . S
C602 C603 1.391 . S
C602 C604 1.394 . S
C602 H618 0.931 . S
C603 C602 1.391 . S
C603 C607 1.376 . S
C604 C602 1.394 . S
C604 C605 1.369 . S
C604 C608 1.531 . S
C605 C604 1.369 . S
C605 C606 1.410 . S
C605 C613 1.503 . S
C606 C605 1.410 . S
C606 C607 1.392 . S
C606 C609 1.511 . S
C607 C603 1.376 . S
C607 C606 1.392 . S
C607 H619 0.929 . S
C608 C604 1.531 . S
C608 H620 0.960 1_545 S
C608 H621 0.962 . S
C608 H622 0.960 1_545 S
C609 C606 1.511 . S
C609 H623 0.961 . S
C609 H624 0.961 . S
C609 H625 0.961 . S
C610 C611 1.370 . S
C610 C612 1.363 . S
C610 H626 0.931 . S
C611 C610 1.370 . S
C611 C615 1.408 1_545 S
C612 C610 1.363 . S
C612 C613 1.370 . S
C612 C616 1.524 . S
C613 C605 1.503 . S
C613 C612 1.370 . S
C613 C614 1.403 1_545 S
C614 C613 1.403 1_565 S
C614 C615 1.404 . S
C614 C617 1.539 . S
C615 C611 1.408 1_565 S
C615 C614 1.404 . S
C615 H627 0.930 . S
C616 C612 1.524 . S
C616 H628 0.956 . S
C616 H629 0.961 . S
C616 H630 0.961 . S
C617 C614 1.539 . S
C617 H631 0.958 . S
C617 H632 0.961 . S
C617 H633 0.960 . S
H618 C602 0.931 . S
H619 C607 0.929 . S
H620 C608 0.960 1_565 S
H621 C608 0.962 . S
H622 C608 0.960 1_565 S
H623 C609 0.961 . S
H624 C609 0.961 . S
H625 C609 0.961 . S
H626 C610 0.931 . S
H627 C615 0.930 . S
H628 C616 0.956 . S
H629 C616 0.961 . S
H630 C616 0.961 . S
H631 C617 0.958 . S
H632 C617 0.961 . S
H633 C617 0.960 . S
C634 C635 1.391 . S
C634 C636 1.394 . S
C634 H650 0.931 . S
C635 C634 1.391 . S
C635 C639 1.376 . S
C636 C634 1.394 . S
C636 C637 1.369 . S
C636 C640 1.531 . S
C637 C636 1.369 . S
C637 C638 1.410 . S
C637 C645 1.503 . S
C638 C637 1.410 . S
C638 C639 1.392 . S
C638 C641 1.511 . S
C639 C635 1.376 . S
C639 C638 1.392 . S
C639 H651 0.929 . S
C640 C636 1.531 . S
C640 H652 0.960 . S
C640 H653 0.962 . S
C640 H654 0.960 . S
C641 C638 1.511 . S
C641 H655 0.961 . S
C641 H656 0.961 . S
C641 H657 0.961 . S
C642 C643 1.370 . S
C642 C644 1.363 . S
C642 H658 0.931 . S
C643 C642 1.370 . S
C643 C647 1.408 . S
C644 C642 1.363 . S
C644 C645 1.370 . S
C644 C648 1.524 . S
C645 C637 1.503 . S
C645 C644 1.370 . S
C645 C646 1.403 . S
C646 C645 1.403 . S
C646 C647 1.404 . S
C646 C649 1.539 . S
C647 C643 1.408 . S
C647 C646 1.404 . S
C647 H659 0.930 . S
C648 C644 1.524 . S
C648 H660 0.956 . S
C648 H661 0.961 . S
C648 H662 0.961 . S
C649 C646 1.539 . S
C649 H663 0.958 . S
C649 H664 0.961 . S
C649 H665 0.960 . S
H650 C634 0.931 . S
H651 C639 0.929 . S
H652 C640 0.960 . S
H653 C640 0.962 . S
H654 C640 0.960 . S
H655 C641 0.961 . S
H656 C641 0.961 . S
H657 C641 0.961 . S
H658 C642 0.931 . S
H659 C647 0.930 . S
H660 C648 0.956 . S
H661 C648 0.961 . S
H662 C648 0.961 . S
H663 C649 0.958 . S
H664 C649 0.961 . S
H665 C649 0.960 . S
C666 C667 1.391 1_565 S
C666 C668 1.394 . S
C666 H682 0.931 . S
C667 C666 1.391 1_545 S
C667 C671 1.376 . S
C668 C666 1.394 . S
C668 C669 1.369 1_565 S
C668 C672 1.531 . S
C669 C668 1.369 1_545 S
C669 C670 1.410 . S
C669 C677 1.503 . S
C670 C669 1.410 . S
C670 C671 1.392 . S
C670 C673 1.511 . S
C671 C667 1.376 . S
C671 C670 1.392 . S
C671 H683 0.929 . S
C672 C668 1.531 . S
C672 H684 0.960 . S
C672 H685 0.962 . S
C672 H686 0.960 . S
C673 C670 1.511 . S
C673 H687 0.961 . S
C673 H688 0.961 . S
C673 H689 0.961 . S
C674 C675 1.370 . S
C674 C676 1.363 . S
C674 H690 0.931 . S
C675 C674 1.370 . S
C675 C679 1.408 1_545 S
C676 C674 1.363 . S
C676 C677 1.370 . S
C676 C680 1.524 . S
C677 C669 1.503 . S
C677 C676 1.370 . S
C677 C678 1.403 1_545 S
C678 C677 1.403 1_565 S
C678 C679 1.404 . S
C678 C681 1.539 . S
C679 C675 1.408 1_565 S
C679 C678 1.404 . S
C679 H691 0.930 . S
C680 C676 1.524 . S
C680 H692 0.956 . S
C680 H693 0.961 . S
C680 H694 0.961 . S
C681 C678 1.539 . S
C681 H695 0.958 . S
C681 H696 0.961 . S
C681 H697 0.960 . S
H682 C666 0.931 . S
H683 C671 0.929 . S
H684 C672 0.960 . S
H685 C672 0.962 . S
H686 C672 0.960 . S
H687 C673 0.961 . S
H688 C673 0.961 . S
H689 C673 0.961 . S
H690 C674 0.931 . S
H691 C679 0.930 . S
H692 C680 0.956 . S
H693 C680 0.961 . S
H694 C680 0.961 . S
H695 C681 0.958 . S
H696 C681 0.961 . S
H697 C681 0.960 . S
C698 C699 1.391 . S
C698 C700 1.394 . S
C698 H714 0.931 . S
C699 C698 1.391 . S
C699 C703 1.376 . S
C700 C698 1.394 . S
C700 C701 1.369 . S
C700 C704 1.531 . S
C701 C700 1.369 . S
C701 C702 1.410 . S
C701 C709 1.503 . S
C702 C701 1.410 . S
C702 C703 1.392 . S
C702 C705 1.511 . S
C703 C699 1.376 . S
C703 C702 1.392 . S
C703 H715 0.929 . S
C704 C700 1.531 . S
C704 H716 0.960 . S
C704 H717 0.962 . S
C704 H718 0.960 . S
C705 C702 1.511 . S
C705 H719 0.961 . S
C705 H720 0.961 . S
C705 H721 0.961 . S
C706 C707 1.370 . S
C706 C708 1.363 . S
C706 H722 0.931 . S
C707 C706 1.370 . S
C707 C711 1.408 . S
C708 C706 1.363 . S
C708 C709 1.370 1_554 S
C708 C712 1.524 1_554 S
C709 C701 1.503 . S
C709 C708 1.370 1_556 S
C709 C710 1.403 . S
C710 C709 1.403 . S
C710 C711 1.404 1_556 S
C710 C713 1.539 . S
C711 C707 1.408 . S
C711 C710 1.404 1_554 S
C711 H723 0.930 . S
C712 C708 1.524 1_556 S
C712 H724 0.956 . S
C712 H725 0.961 . S
C712 H726 0.961 1_556 S
C713 C710 1.539 . S
C713 H727 0.958 . S
C713 H728 0.961 . S
C713 H729 0.960 . S
H714 C698 0.931 . S
H715 C703 0.929 . S
H716 C704 0.960 . S
H717 C704 0.962 . S
H718 C704 0.960 . S
H719 C705 0.961 . S
H720 C705 0.961 . S
H721 C705 0.961 . S
H722 C706 0.931 . S
H723 C711 0.930 . S
H724 C712 0.956 . S
H725 C712 0.961 . S
H726 C712 0.961 1_554 S
H727 C713 0.958 . S
H728 C713 0.961 . S
H729 C713 0.960 . S
C730 C731 1.391 1_655 S
C730 C732 1.394 . S
C730 H746 0.931 . S
C731 C730 1.391 1_455 S
C731 C735 1.376 . S
C732 C730 1.394 . S
C732 C733 1.382 . S
C732 C736 1.531 . S
C733 C732 1.382 . S
C733 C734 1.391 1_655 S
C733 C741 1.507 . S
C734 C733 1.391 1_455 S
C734 C735 1.392 . S
C734 C737 1.511 . S
C735 C731 1.376 . S
C735 C734 1.392 . S
C735 H747 0.929 . S
C736 C732 1.531 . S
C736 H748 0.960 . S
C736 H749 0.962 . S
C736 H750 0.960 . S
C737 C734 1.511 . S
C737 H751 0.961 . S
C737 H752 0.961 . S
C737 H753 0.961 . S
C738 C739 1.370 1_455 S
C738 C740 1.363 . S
C738 H754 0.931 . S
C739 C738 1.370 1_655 S
C739 C743 1.408 . S
C740 C738 1.363 . S
C740 C741 1.370 1_455 S
C740 C744 1.524 . S
C741 C733 1.507 . S
C741 C740 1.370 1_655 S
C741 C742 1.403 . S
C742 C741 1.403 . S
C742 C743 1.404 . S
C742 C745 1.539 . S
C743 C739 1.408 . S
C743 C742 1.404 . S
C743 H755 0.930 . S
C744 C740 1.524 . S
C744 H756 0.956 . S
C744 H757 0.961 . S
C744 H758 0.961 . S
C745 C742 1.539 . S
C745 H759 0.958 . S
C745 H760 0.961 . S
C745 H761 0.960 . S
H746 C730 0.931 . S
H747 C735 0.929 . S
H748 C736 0.960 . S
H749 C736 0.962 . S
H750 C736 0.960 . S
H751 C737 0.961 . S
H752 C737 0.961 . S
H753 C737 0.961 . S
H754 C738 0.931 . S
H755 C743 0.930 . S
H756 C744 0.956 . S
H757 C744 0.961 . S
H758 C744 0.961 . S
H759 C745 0.958 . S
H760 C745 0.961 . S
H761 C745 0.960 . S
C187 C25 0.490 . S
C195 C180 0.729 . S
C219 C65 0.266 . S
C227 C158 0.543 . S
C251 C105 0.398 . S
C259 C172 0.302 . S
C283 C4 0.309 . S
C291 C183 0.400 . S
C323 C161 0.202 . S
C315 C44 0.152 . S
C355 C169 0.705 . S
C347 C84 0.498 . S
C379 C60 3.134 . S
C387 C136 2.799 . S
C411 C100 3.257 . S
C419 C147 2.901 . S
C443 C31 3.235 . S
C451 C125 2.885 . S
C483 C139 2.881 . S
C475 C71 2.954 . S
C515 C150 2.755 . S
C507 C111 2.814 . S
C539 C20 2.825 . S
C547 C128 2.767 . S
C579 C149 1.676 . S
C571 C2 1.704 . S
C603 C42 1.657 . S
C611 C127 1.680 . S
C635 C82 1.716 . S
C643 C138 1.675 . S
C675 C171 1.128 . S
C667 C63 1.175 . S
C707 C182 1.169 . S
C699 C103 1.248 . S
C731 C23 1.230 . S
C739 C160 1.202 . S
