# Generated by pormake.
# Topology tsx, (6,3)-cn, num edge types: 1
# Building blocks:
#     Node 0, Type 0, BuildingBlock: VOLQOD_clean_sbu_1, # of connection points: 6
#     Node 1, Type 0, BuildingBlock: VOLQOD_clean_sbu_1, # of connection points: 6
#     Node 2, Type 1, BuildingBlock: WUSLED_clean_sbu_0, # of connection points: 3
#     Node 3, Type 1, BuildingBlock: WUSLED_clean_sbu_0, # of connection points: 3
#     Node 4, Type 1, BuildingBlock: WUSLED_clean_sbu_0, # of connection points: 3
#     Node 5, Type 1, BuildingBlock: WUSLED_clean_sbu_0, # of connection points: 3
#     Edge 6, Type (0, 1), BuildingBlock: XIVTED_clean_linker_0, # of connection points: 2
#     Edge 7, Type (0, 1), BuildingBlock: XIVTED_clean_linker_0, # of connection points: 2
#     Edge 8, Type (0, 1), BuildingBlock: XIVTED_clean_linker_0, # of connection points: 2
#     Edge 9, Type (0, 1), BuildingBlock: XIVTED_clean_linker_0, # of connection points: 2
#     Edge 10, Type (0, 1), BuildingBlock: XIVTED_clean_linker_0, # of connection points: 2
#     Edge 11, Type (0, 1), BuildingBlock: XIVTED_clean_linker_0, # of connection points: 2
#     Edge 12, Type (0, 1), BuildingBlock: XIVTED_clean_linker_0, # of connection points: 2
#     Edge 13, Type (0, 1), BuildingBlock: XIVTED_clean_linker_0, # of connection points: 2
#     Edge 14, Type (0, 1), BuildingBlock: XIVTED_clean_linker_0, # of connection points: 2
#     Edge 15, Type (0, 1), BuildingBlock: XIVTED_clean_linker_0, # of connection points: 2
#     Edge 16, Type (0, 1), BuildingBlock: XIVTED_clean_linker_0, # of connection points: 2
#     Edge 17, Type (0, 1), BuildingBlock: XIVTED_clean_linker_0, # of connection points: 2
# Relax obj value: 0.070
# Max RMSD: 0.104
# Mean RMSD: 0.078
data_MOF--net-tsx--node1-VOLQOD_clean_sbu_1--node2-WUSLED_clean_sbu_0--edge1-XIVTED_clean_linker_0
_symmetry_space_group_name_H-M    P1
_symmetry_Int_Tables_number       1
_symmetry_cell_setting            triclinic
loop_
_symmetry_equiv_pos_as_xyz
'x, y, z'
_cell_length_a     26.453458
_cell_length_b     27.331077
_cell_length_c     52.082133
_cell_angle_alpha  90.818086
_cell_angle_beta   89.864252
_cell_angle_gamma 90.012326
loop_
_atom_site_label
_atom_site_type_symbol
_atom_site_fract_x
_atom_site_fract_y
_atom_site_fract_z
_atom_type_partial_charge
O0 O 0.05369 0.9998 0.0686 0.0
Zn1 Zn 0.07637 0.99918 0.0314 0.0
O2 O 0.01885 0.00837 0.00844 0.0
Zn3 Zn 0.00764 0.94851 0.98847 0.0
Zn4 Zn 0.95847 0.02335 0.02877 0.0
Zn5 Zn 0.03276 0.06208 0.98507 0.0
O6 O 1.00411 0.96287 0.95062 0.0
O7 O 0.03582 0.03798 0.94814 0.0
O8 O 0.11477 0.93656 0.0227 0.0
O9 O 0.06618 0.90238 0.99273 0.0
O10 O 0.94412 0.91355 0.99982 0.0
O11 O 0.90943 0.96698 0.0271 0.0
O12 O 0.92271 0.08411 0.01615 0.0
O13 O 0.12481 0.05567 0.02805 0.0
O14 O 0.97583 0.11104 0.98645 0.0
O15 O 0.09704 0.09805 0.99486 0.0
C16 C 0.01401 0.01689 0.07944 0.0
C17 C 0.01971 0.99878 0.93739 0.0
C18 C 0.90877 0.92584 0.01529 0.0
C19 C 0.10571 0.90198 0.00665 0.0
C20 C 0.93482 0.11521 0.99918 0.0
C21 C 0.12887 0.09157 0.01284 0.0
O22 O 0.97627 0.03113 0.06631 0.0
O23 O 0.55229 0.50152 0.56997 0.0
Zn24 Zn 0.57553 0.50019 0.5328 0.0
O25 O 0.51792 0.50826 0.50966 0.0
Zn26 Zn 0.50727 0.44806 0.48985 0.0
Zn27 Zn 0.45695 0.52285 0.52959 0.0
Zn28 Zn 0.53162 0.56168 0.48611 0.0
O29 O 0.50446 0.46178 0.45189 0.0
O30 O 0.53556 0.53711 0.44933 0.0
O31 O 0.61412 0.43748 0.52454 0.0
O32 O 0.56595 0.40256 0.49461 0.0
O33 O 0.44381 0.4126 0.50096 0.0
O34 O 0.4079 0.46636 0.52762 0.0
O35 O 0.42133 0.58352 0.51683 0.0
O36 O 0.62428 0.55665 0.52904 0.0
O37 O 0.4744 0.61013 0.48704 0.0
O38 O 0.59531 0.59842 0.49591 0.0
C39 C 0.51192 0.51768 0.58053 0.0
C40 C 0.52005 0.49764 0.43862 0.0
C41 C 0.40784 0.42499 0.51602 0.0
C42 C 0.60531 0.40259 0.50864 0.0
C43 C 0.43337 0.61437 0.49972 0.0
C44 C 0.62769 0.59242 0.51368 0.0
O45 O 0.47404 0.53072 0.56715 0.0
C46 C 0.94613 0.08494 0.44952 0.0
C47 C 0.91415 0.10698 0.43164 0.0
C48 C 0.87163 0.15227 0.46607 0.0
C49 C 0.8772 0.14029 0.43983 0.0
C50 C 0.90417 0.13034 0.48389 0.0
C51 C 0.94107 0.09686 0.47566 0.0
U52 U 0.01518 0.01891 0.39548 0.0
O53 O 0.09558 1.00067 0.39039 0.0
O54 O 0.03886 0.94209 0.39119 0.0
C55 C 0.08723 0.95324 0.39102 0.0
C56 C 0.98472 0.04963 0.44093 0.0
C57 C 0.12057 0.92397 0.40777 0.0
C58 C 0.14143 0.84594 0.42718 0.0
C59 C 0.10788 0.87541 0.4136 0.0
C60 C 0.20093 0.91309 0.42973 0.0
C61 C 0.18871 0.86418 0.43505 0.0
C62 C 0.16735 0.94259 0.41619 0.0
C63 C 0.97817 0.04763 0.32614 0.0
C64 C 0.02987 0.03703 0.28776 0.0
C65 C 0.93896 0.04432 0.28401 0.0
C66 C 0.9349 0.04878 0.31071 0.0
C67 C 0.98655 0.03892 0.27214 0.0
C68 C 0.02571 0.04116 0.31451 0.0
C69 C 0.97276 0.05417 0.35417 0.0
O70 O 0.96708 0.0099 0.42959 0.0
O71 O 0.0235 0.06865 0.42881 0.0
O72 O 0.01069 0.07562 0.3661 0.0
O73 O 0.95451 0.01648 0.36655 0.0
H74 H 0.91778 0.09839 0.41134 0.0
H75 H 0.85333 0.15705 0.42556 0.0
H76 H 0.90058 0.13844 0.50423 0.0
H77 H 0.9655 0.08013 0.48971 0.0
H78 H 0.1311 0.80825 0.4306 0.0
H79 H 0.07254 0.85963 0.40706 0.0
H80 H 0.23681 0.92846 0.43575 0.0
H81 H 0.17865 0.97966 0.41184 0.0
H82 H 0.06716 0.0334 0.27934 0.0
H83 H 0.90468 0.04494 0.2727 0.0
H84 H 0.89784 0.05341 0.31932 0.0
H85 H 0.05969 0.03991 0.32605 0.0
C86 C 0.95058 0.92999 0.56884 0.0
C87 C 0.92859 0.90027 0.58754 0.0
C88 C 0.88506 0.85287 0.55433 0.0
C89 C 0.89615 0.86212 0.58038 0.0
C90 C 0.90729 0.88287 0.53564 0.0
C91 C 0.93981 0.9211 0.54286 0.0
U92 U 0.01516 1.00189 0.62166 0.0
O93 O 0.09183 0.03217 0.62503 0.0
O94 O 0.02611 0.08115 0.62764 0.0
C95 C 0.07564 0.07758 0.62683 0.0
C96 C 0.98425 0.97041 0.57653 0.0
C97 C 0.10215 0.11369 0.611 0.0
C98 C 0.14462 0.13773 0.57165 0.0
C99 C 0.11688 0.10329 0.58557 0.0
C100 C 0.14207 0.19342 0.60824 0.0
C101 C 0.15778 0.18314 0.5829 0.0
C102 C 0.11458 0.15905 0.62209 0.0
C103 C 0.99135 0.96151 0.69083 0.0
C104 C 1.00106 0.01148 0.72952 0.0
C105 C 0.99733 0.9232 0.7325 0.0
C106 C 0.9923 0.91941 0.70584 0.0
C107 C 1.0012 0.96931 0.74475 0.0
C108 C 0.99636 0.00761 0.7028 0.0
C109 C 0.98426 0.9564 0.66287 0.0
O110 O 0.9621 0.00628 0.58931 0.0
O111 O 0.02737 0.95701 0.58677 0.0
O112 O 0.02439 0.94288 0.64966 0.0
O113 O 0.95824 0.99126 0.65185 0.0
H114 H 0.93634 0.9068 0.60773 0.0
H115 H 0.87913 0.84037 0.59531 0.0
H116 H 0.90001 0.87648 0.51542 0.0
H117 H 0.95652 0.9437 0.52817 0.0
H118 H 0.15572 0.12884 0.55211 0.0
H119 H 0.10746 0.06845 0.57663 0.0
H120 H 0.15219 0.22759 0.61768 0.0
H121 H 0.10373 0.16763 0.64173 0.0
H122 H 1.00344 0.0476 0.73825 0.0
H123 H 0.99833 0.88988 0.7435 0.0
H124 H 0.98887 0.88349 0.69693 0.0
H125 H 0.99599 0.04065 0.69156 0.0
C126 C 0.44417 0.57944 0.95025 0.0
C127 C 0.41271 0.60148 0.93213 0.0
C128 C 0.36942 0.6472 0.96616 0.0
C129 C 0.37569 0.63498 0.93999 0.0
C130 C 0.40129 0.62511 0.98425 0.0
C131 C 0.43831 0.59144 0.97634 0.0
U132 U 0.51363 0.51481 0.8962 0.0
O133 O 0.53942 0.43877 0.89139 0.0
O134 O 0.59445 0.49892 0.89029 0.0
C135 C 0.58729 0.45133 0.88984 0.0
C136 C 0.48337 0.54451 0.94185 0.0
C137 C 0.62309 0.42221 0.90484 0.0
C138 C 0.6498 0.38332 0.94429 0.0
C139 C 0.6153 0.41247 0.93095 0.0
C140 C 0.70007 0.37402 0.90558 0.0
C141 C 0.69267 0.36382 0.93172 0.0
C142 C 0.66567 0.4029 0.89233 0.0
C143 C 0.47552 0.54382 0.82728 0.0
C144 C 0.52813 0.5326 0.78928 0.0
C145 C 0.43746 0.54125 0.78488 0.0
C146 C 0.43271 0.5457 0.81155 0.0
C147 C 0.4853 0.53512 0.77334 0.0
C148 C 0.52327 0.5367 0.81599 0.0
C149 C 0.46959 0.54995 0.85529 0.0
O150 O 0.46644 0.50444 0.93055 0.0
O151 O 0.52186 0.56406 0.92972 0.0
O152 O 0.5069 0.57222 0.86732 0.0
O153 O 0.45251 0.51157 0.86751 0.0
H154 H 0.41695 0.59287 0.91186 0.0
H155 H 0.35241 0.65183 0.9255 0.0
H156 H 0.39719 0.63336 0.00455 0.0
H157 H 0.46233 0.57475 0.99059 0.0
H158 H 0.64319 0.37642 0.96444 0.0
H159 H 0.58257 0.42719 0.94093 0.0
H160 H 0.73206 0.35891 0.89516 0.0
H161 H 0.6721 0.4098 0.87215 0.0
H162 H 0.56561 0.52845 0.78114 0.0
H163 H 0.40352 0.54236 0.77333 0.0
H164 H 0.3955 0.55079 0.81992 0.0
H165 H 0.55689 0.53485 0.82777 0.0
C166 C 0.455 0.42601 0.06935 0.0
C167 C 0.45935 0.37924 0.07997 0.0
C168 C 0.38731 0.35042 0.05485 0.0
C169 C 0.42615 0.34183 0.07266 0.0
C170 C 0.38338 0.39726 0.04409 0.0
C171 C 0.41698 0.43458 0.05124 0.0
U172 U 0.51978 0.49853 0.12256 0.0
O173 O 0.59697 0.52766 0.12583 0.0
O174 O 0.53213 0.57767 0.12784 0.0
C175 C 0.58162 0.57343 0.12644 0.0
C176 C 0.48848 0.46647 0.07764 0.0
C177 C 0.60875 0.60774 0.10941 0.0
C178 C 0.68716 0.63369 0.08909 0.0
C179 C 0.65978 0.59941 0.10312 0.0
C180 C 0.61306 0.68538 0.08707 0.0
C181 C 0.66436 0.67741 0.08119 0.0
C182 C 0.5856 0.65101 0.10107 0.0
C183 C 0.49612 0.45922 0.192 0.0
C184 C 0.50493 0.50923 0.23074 0.0
C185 C 0.50257 0.42089 0.23366 0.0
C186 C 0.49771 0.41711 0.20699 0.0
C187 C 0.50563 0.46702 0.24594 0.0
C188 C 0.50039 0.50537 0.20402 0.0
C189 C 0.4888 0.45404 0.16406 0.0
O190 O 0.46611 0.50234 0.09034 0.0
O191 O 0.532 0.45371 0.08773 0.0
O192 O 0.52862 0.43984 0.15078 0.0
O193 O 0.46316 0.48912 0.15299 0.0
H194 H 0.48819 0.37155 0.09408 0.0
H195 H 0.43103 0.3061 0.08102 0.0
H196 H 0.3536 0.40552 0.0306 0.0
H197 H 0.41276 0.47046 0.04291 0.0
H198 H 0.7268 0.62671 0.08529 0.0
H199 H 0.67905 0.56689 0.1096 0.0
H200 H 0.59421 0.71847 0.08108 0.0
H201 H 0.54652 0.65892 0.10578 0.0
H202 H 0.50669 0.54536 0.2395 0.0
H203 H 0.50402 0.38758 0.24463 0.0
H204 H 0.49482 0.38116 0.19806 0.0
H205 H 0.4995 0.53844 0.1928 0.0
H206 H 0.15674 0.16866 0.98242 0.0
H207 H 0.34694 0.28077 0.08638 0.0
H208 H 0.19384 0.09791 0.05355 0.0
H209 H 0.34274 0.33018 0.008 0.0
H210 H 0.287 0.2164 0.07518 0.0
H211 H 0.22101 0.23092 0.99183 0.0
C212 C 0.17851 0.166 0.99993 0.0
C213 C 0.16972 0.12793 0.01723 0.0
C214 C 0.29934 0.24118 0.06038 0.0
C215 C 0.24291 0.19934 0.0282 0.0
C216 C 0.3339 0.2779 0.06673 0.0
C217 C 0.35043 0.31101 0.0481 0.0
C218 C 0.28049 0.23756 0.03526 0.0
C219 C 0.33078 0.30599 0.02312 0.0
C220 C 0.21521 0.20155 0.00527 0.0
C221 C 0.19921 0.12644 0.03961 0.0
N222 N 0.29678 0.27007 0.01745 0.0
N223 N 0.23414 0.16176 0.0445 0.0
H224 H 0.09678 0.8209 0.97555 0.0
H225 H 0.37587 0.72062 1.00276 0.0
H226 H 0.19925 0.89073 0.0291 0.0
H227 H 0.27244 0.65518 0.94829 0.0
H228 H 0.31068 0.78046 0.01469 0.0
H229 H 0.15951 0.75743 0.96739 0.0
C230 C 0.13239 0.82285 0.98573 0.0
C231 C 0.14268 0.86153 1.00299 0.0
C232 C 0.30224 0.75291 1.00018 0.0
C233 C 0.21522 0.78855 0.99356 0.0
C234 C 0.33936 0.71855 0.99345 0.0
C235 C 0.32979 0.68289 0.97436 0.0
C236 C 0.25511 0.75157 0.9878 0.0
C237 C 0.28191 0.68242 0.96277 0.0
C238 C 0.16832 0.78647 0.98102 0.0
C239 C 0.1896 0.86172 0.01562 0.0
N240 N 0.24652 0.71621 0.96963 0.0
N241 N 0.22421 0.82594 0.01056 0.0
H242 H 0.89837 0.83089 0.9979 0.0
H243 H 0.66162 0.77672 0.08925 0.0
H244 H 0.82595 0.93991 0.04623 0.0
H245 H 0.73722 0.66533 0.04385 0.0
H246 H 0.7162 0.83839 0.0702 0.0
H247 H 0.83474 0.77135 0.01112 0.0
C248 C 0.86888 0.8425 0.01109 0.0
C249 C 0.86785 0.8905 0.0211 0.0
C250 C 0.72069 0.80051 0.06426 0.0
C251 C 0.79496 0.82233 0.03641 0.0
C252 C 0.68922 0.76525 0.075 0.0
C253 C 0.69488 0.71563 0.06823 0.0
C254 C 0.75828 0.78622 0.04659 0.0
C255 C 0.73198 0.70302 0.04995 0.0
C256 C 0.8326 0.8084 0.01868 0.0
C257 C 0.82858 0.90332 0.03812 0.0
N258 N 0.76239 0.73802 0.03986 0.0
N259 N 0.79397 0.86941 0.04532 0.0
H260 H 0.83668 0.12906 0.01556 0.0
H261 H 0.79592 0.36465 0.92812 0.0
H262 H 0.95279 0.19389 0.96858 0.0
H263 H 0.67341 0.2909 0.96641 0.0
H264 H 0.85541 0.30774 0.94722 0.0
H265 H 0.77807 0.19327 1.00218 0.0
C266 C 0.85003 0.15697 1.00263 0.0
C267 C 0.89974 0.15578 0.99306 0.0
C268 C 0.81556 0.30405 0.95158 0.0
C269 C 0.83281 0.22931 0.97768 0.0
C270 C 0.78149 0.33648 0.94059 0.0
C271 C 0.72943 0.33222 0.94537 0.0
C272 C 0.79769 0.26684 0.96756 0.0
C273 C 0.71318 0.29567 0.96222 0.0
C274 C 0.81648 0.19353 0.99495 0.0
C275 C 0.91481 0.19297 0.97634 0.0
N276 N 0.74715 0.26413 0.97255 0.0
N277 N 0.8815 0.22798 0.96915 0.0
H278 H 0.64392 0.67748 0.48733 0.0
H279 H 0.87843 0.761 0.57472 0.0
H280 H 0.70483 0.59117 0.54879 0.0
H281 H 0.81183 0.85222 0.51689 0.0
H282 H 0.81833 0.6964 0.56359 0.0
H283 H 0.70867 0.73946 0.49576 0.0
C284 C 0.67105 0.67133 0.50249 0.0
C285 C 0.66867 0.62898 0.51743 0.0
C286 C 0.81691 0.73048 0.55327 0.0
C287 C 0.74293 0.70008 0.52723 0.0
C288 C 0.85109 0.76756 0.55971 0.0
C289 C 0.85009 0.81239 0.54686 0.0
C290 C 0.78126 0.73806 0.53378 0.0
C291 C 0.81439 0.8182 0.52719 0.0
C292 C 0.70798 0.70686 0.50733 0.0
C293 C 0.70496 0.6232 0.53681 0.0
N294 N 0.78131 0.7816 0.52134 0.0
N295 N 0.74039 0.65836 0.54119 0.0
H296 H 0.59603 0.32026 0.47858 0.0
H297 H 0.87831 0.22575 0.50259 0.0
H298 H 0.69981 0.39326 0.53029 0.0
H299 H 0.7739 0.15849 0.44922 0.0
H300 H 0.81241 0.28428 0.51533 0.0
H301 H 0.65947 0.25768 0.47008 0.0
C302 C 0.63208 0.32306 0.4883 0.0
C303 C 0.64256 0.36241 0.5051 0.0
C304 C 0.80392 0.25661 0.50088 0.0
C305 C 0.71592 0.2905 0.49525 0.0
C306 C 0.84145 0.22303 0.49368 0.0
C307 C 0.83176 0.18728 0.47467 0.0
C308 C 0.75628 0.25434 0.48906 0.0
C309 C 0.78341 0.18587 0.46362 0.0
C310 C 0.66842 0.28721 0.48339 0.0
C311 C 0.69002 0.3637 0.51717 0.0
N312 N 0.74763 0.2189 0.47094 0.0
N313 N 0.72506 0.32842 0.5119 0.0
H314 H 0.40177 0.32774 0.50202 0.0
H315 H 0.14748 0.28299 0.58221 0.0
H316 H 0.32018 0.44148 0.54289 0.0
H317 H 0.24011 0.16581 0.55168 0.0
H318 H 0.20453 0.34219 0.56282 0.0
H319 H 0.33703 0.26886 0.51487 0.0
C320 C 0.37004 0.3405 0.51346 0.0
C321 C 0.36671 0.38967 0.52153 0.0
C322 C 0.21227 0.30353 0.56022 0.0
C323 C 0.29251 0.32234 0.53633 0.0
C324 C 0.17977 0.26966 0.57138 0.0
C325 C 0.18927 0.21925 0.56887 0.0
C326 C 0.25476 0.28709 0.54638 0.0
C327 C 0.23111 0.20424 0.55405 0.0
C328 C 0.33317 0.30678 0.52085 0.0
C329 C 0.32465 0.40395 0.53636 0.0
N330 N 0.26251 0.238 0.54354 0.0
N331 N 0.28942 0.37046 0.54335 0.0
H332 H 0.33657 0.63019 0.51756 0.0
H333 H 0.29061 0.85903 0.42605 0.0
H334 H 0.44979 0.69055 0.46722 0.0
H335 H 0.17253 0.79407 0.47165 0.0
H336 H 0.35111 0.80206 0.44426 0.0
H337 H 0.27771 0.69405 0.50415 0.0
C338 C 0.34924 0.65702 0.50386 0.0
C339 C 0.3982 0.65471 0.4934 0.0
C340 C 0.31204 0.80036 0.45043 0.0
C341 C 0.33094 0.72781 0.47793 0.0
C342 C 0.27746 0.83321 0.44016 0.0
C343 C 0.22628 0.83142 0.44729 0.0
C344 C 0.29553 0.76523 0.468 0.0
C345 C 0.21145 0.79641 0.46534 0.0
C346 C 0.31554 0.6934 0.49616 0.0
C347 C 0.4124 0.69056 0.47571 0.0
N348 N 0.24586 0.76462 0.47501 0.0
N349 N 0.37893 0.7254 0.4685 0.0
H350 H 0.08067 0.97982 0.11461 0.0
H351 H 0.93165 0.08911 0.23637 0.0
H352 H 0.94135 0.06132 0.10925 0.0
H353 H 0.05157 0.98277 0.24258 0.0
H354 H 0.93848 0.08361 0.18975 0.0
H355 H 0.07475 0.98519 0.16147 0.0
C356 C 0.04889 0.99892 0.12324 0.0
C357 C 0.01142 0.0201 0.10789 0.0
C358 C 0.96326 0.0614 0.2013 0.0
C359 C 1.00456 0.02647 0.16156 0.0
C360 C 0.95919 0.06428 0.22799 0.0
C361 C 0.99086 0.03614 0.24359 0.0
C362 C 0.99952 0.03041 0.18994 0.0
C363 C 0.02669 1.00559 0.23144 0.0
C364 C 0.04549 1.00184 0.15001 0.0
C365 C 0.97108 0.0443 0.12023 0.0
N366 N 0.03005 1.00356 0.20537 0.0
N367 N 0.96881 0.0469 0.14629 0.0
H368 H 0.05845 0.0629 0.90222 0.0
H369 H 0.95204 0.91388 0.7806 0.0
H370 H 0.97793 0.92595 0.90759 0.0
H371 H 0.05719 0.03401 0.77418 0.0
H372 H 0.95776 0.92052 0.82721 0.0
H373 H 0.05474 0.05592 0.85538 0.0
C374 C 0.04001 0.03136 0.8936 0.0
C375 C 0.01846 0.99496 0.90895 0.0
C376 C 0.97969 0.94537 0.81562 0.0
C377 C 0.01393 0.9869 0.85528 0.0
C378 C 0.9767 0.94143 0.78893 0.0
C379 C 1.00438 0.97326 0.77328 0.0
C380 C 0.01031 0.98165 0.82692 0.0
C381 C 0.03468 0.009 0.78537 0.0
C382 C 0.038 0.02737 0.86683 0.0
C383 C 0.99515 0.95489 0.89661 0.0
N384 N 0.03679 0.01225 0.81144 0.0
N385 N 0.99338 0.95205 0.87056 0.0
H386 H 0.43803 0.56173 0.60963 0.0
H387 H 0.55051 0.47802 0.74442 0.0
H388 H 0.57768 0.48118 0.61633 0.0
H389 H 0.43197 0.58551 0.73701 0.0
H390 H 0.55831 0.47446 0.69764 0.0
H391 H 0.43208 0.56604 0.65635 0.0
C392 C 0.4675 0.54492 0.6209 0.0
C393 C 0.50846 0.52104 0.60895 0.0
C394 C 0.53064 0.49884 0.70629 0.0
C395 C 0.50168 0.52575 0.66264 0.0
C396 C 0.52629 0.5011 0.73304 0.0
C397 C 0.49043 0.53209 0.74483 0.0
C398 C 0.49872 0.52751 0.69113 0.0
C399 C 0.45954 0.56041 0.72891 0.0
C400 C 0.46411 0.54752 0.64762 0.0
C401 C 0.5455 0.50008 0.62466 0.0
N402 N 0.46433 0.55735 0.70295 0.0
N403 N 0.54113 0.50275 0.65068 0.0
H404 H 0.55891 0.5618 0.40353 0.0
H405 H 0.45686 0.41084 0.2816 0.0
H406 H 0.4798 0.42405 0.40875 0.0
H407 H 0.56028 0.53245 0.27558 0.0
H408 H 0.4617 0.41763 0.32823 0.0
H409 H 0.55633 0.5544 0.3567 0.0
C410 C 0.54102 0.52998 0.39487 0.0
C411 C 0.51951 0.49349 0.41018 0.0
C412 C 0.48346 0.44276 0.31672 0.0
C413 C 0.51629 0.48496 0.35652 0.0
C414 C 0.48097 0.43874 0.29002 0.0
C415 C 0.5084 0.47096 0.27448 0.0
C416 C 0.51332 0.47951 0.32814 0.0
C417 C 0.53798 0.50713 0.28668 0.0
C418 C 0.53966 0.52576 0.36811 0.0
C419 C 0.49694 0.45307 0.39781 0.0
N420 N 0.5396 0.51045 0.31276 0.0
N421 N 0.49579 0.45001 0.37175 0.0
loop_
_geom_bond_atom_site_label_1
_geom_bond_atom_site_label_2
_geom_bond_distance
_geom_bond_site_symmetry_2
_ccdc_geom_bond_type
O0 Zn1 1.953 . S
O0 C16 1.225 1_565 S
Zn1 O0 1.953 . S
Zn1 O2 1.949 1_565 S
Zn1 O8 1.919 . S
Zn1 O13 1.924 1_565 S
O2 Zn1 1.949 1_545 S
O2 Zn3 1.923 1_444 S
O2 Zn4 1.950 1_455 S
O2 Zn5 1.945 1_554 S
Zn3 O2 1.923 1_666 S
Zn3 O6 1.933 . S
Zn3 O9 1.941 1_655 S
Zn3 O10 1.965 . S
Zn4 O2 1.950 1_655 S
Zn4 O11 1.938 1_545 S
Zn4 O12 1.906 . S
Zn4 O22 1.953 . S
Zn5 O2 1.945 1_556 S
Zn5 O7 1.932 . S
Zn5 O14 1.977 1_455 S
Zn5 O15 1.910 . S
O6 Zn3 1.933 . S
O6 C17 1.226 1_665 S
O7 Zn5 1.932 . S
O7 C17 1.307 . S
O8 Zn1 1.919 . S
O8 C19 1.253 1_554 S
O9 Zn3 1.941 1_455 S
O9 C19 1.283 . S
O10 Zn3 1.965 . S
O10 C18 1.303 1_556 S
O11 Zn4 1.938 1_565 S
O11 C18 1.247 . S
O12 Zn4 1.906 . S
O12 C20 1.304 1_554 S
O13 Zn1 1.924 1_545 S
O13 C21 1.311 . S
O14 Zn5 1.977 1_655 S
O14 C20 1.272 . S
O15 Zn5 1.910 . S
O15 C21 1.231 1_556 S
C16 O0 1.225 1_545 S
C16 O22 1.298 1_455 S
C17 O6 1.226 1_445 S
C17 O7 1.307 . S
C18 O10 1.303 1_554 S
C18 O11 1.247 . S
C19 O8 1.253 1_556 S
C19 O9 1.283 . S
C20 O12 1.304 1_556 S
C20 O14 1.272 . S
C21 O13 1.311 . S
C21 O15 1.231 1_554 S
O22 Zn4 1.953 . S
O22 C16 1.298 1_655 S
O23 Zn24 1.953 . S
O23 C39 1.225 . S
Zn24 O23 1.953 . S
Zn24 O25 1.949 . S
Zn24 O31 1.919 . S
Zn24 O36 1.924 . S
O25 Zn24 1.949 . S
O25 Zn26 1.923 . S
O25 Zn27 1.950 . S
O25 Zn28 1.945 . S
Zn26 O25 1.923 . S
Zn26 O29 1.933 . S
Zn26 O32 1.941 . S
Zn26 O33 1.965 . S
Zn27 O25 1.950 . S
Zn27 O34 1.938 . S
Zn27 O35 1.906 . S
Zn27 O45 1.953 . S
Zn28 O25 1.945 . S
Zn28 O30 1.932 . S
Zn28 O37 1.977 . S
Zn28 O38 1.910 . S
O29 Zn26 1.933 . S
O29 C40 1.226 . S
O30 Zn28 1.932 . S
O30 C40 1.307 . S
O31 Zn24 1.919 . S
O31 C42 1.253 . S
O32 Zn26 1.941 . S
O32 C42 1.283 . S
O33 Zn26 1.965 . S
O33 C41 1.303 . S
O34 Zn27 1.938 . S
O34 C41 1.247 . S
O35 Zn27 1.906 . S
O35 C43 1.304 . S
O36 Zn24 1.924 . S
O36 C44 1.311 . S
O37 Zn28 1.977 . S
O37 C43 1.272 . S
O38 Zn28 1.910 . S
O38 C44 1.231 . S
C39 O23 1.225 . S
C39 O45 1.298 . S
C40 O29 1.226 . S
C40 O30 1.307 . S
C41 O33 1.303 . S
C41 O34 1.247 . S
C42 O31 1.253 . S
C42 O32 1.283 . S
C43 O35 1.304 . S
C43 O37 1.272 . S
C44 O36 1.311 . S
C44 O38 1.231 . S
O45 Zn27 1.953 . S
O45 C39 1.298 . S
C46 C47 1.264 . S
C46 C51 1.479 . S
C46 C56 1.465 . S
C47 C46 1.264 . S
C47 C49 1.339 . S
C47 H74 0.931 . S
C48 C49 1.395 . S
C48 C50 1.320 . S
C49 C47 1.339 . S
C49 C48 1.395 . S
C49 H75 0.929 . S
C50 C48 1.320 . S
C50 C51 1.405 . S
C50 H76 0.930 . S
C51 C46 1.479 . S
C51 C50 1.405 . S
C51 H77 0.931 . S
U52 O53 2.454 1_545 S
U52 O54 2.458 1_545 S
U52 C55 2.984 1_545 S
U52 C56 2.847 1_455 S
U52 C69 2.882 . S
U52 O70 2.441 1_455 S
U52 O71 2.420 1_455 S
U52 O72 2.455 1_545 S
U52 O73 2.449 . S
O53 U52 2.454 1_565 S
O53 C55 1.353 . S
O54 U52 2.458 1_565 S
O54 C55 1.286 . S
C55 U52 2.984 1_565 S
C55 O53 1.353 . S
C55 O54 1.286 . S
C55 C57 1.363 . S
C56 C46 1.465 . S
C56 U52 2.847 1_655 S
C56 O70 1.249 . S
C56 O71 1.202 . S
C57 C55 1.363 . S
C57 C59 1.408 . S
C57 C62 1.342 . S
C58 C59 1.310 . S
C58 C61 1.461 . S
C58 H78 0.932 . S
C59 C57 1.408 . S
C59 C58 1.310 . S
C59 H79 0.930 . S
C60 C61 1.474 . S
C60 C62 1.285 . S
C60 H80 0.929 . S
C61 C58 1.461 . S
C61 C60 1.474 . S
C62 C57 1.342 . S
C62 C60 1.285 . S
C62 H81 0.930 . S
C63 C66 1.424 1_455 S
C63 C68 1.245 1_545 S
C63 C69 1.428 . S
C64 C67 1.260 1_565 S
C64 C68 1.477 . S
C64 H82 0.932 . S
C65 C66 1.384 . S
C65 C67 1.479 1_655 S
C65 H83 0.929 . S
C66 C63 1.424 1_655 S
C66 C65 1.384 . S
C66 H84 0.928 . S
C67 C64 1.260 1_545 S
C67 C65 1.479 1_455 S
C68 C63 1.245 1_565 S
C68 C64 1.477 . S
C68 H85 0.932 . S
C69 U52 2.882 . S
C69 C63 1.428 . S
C69 O72 1.301 1_545 S
C69 O73 1.282 . S
O70 U52 2.441 1_655 S
O70 C56 1.249 . S
O71 U52 2.420 1_655 S
O71 C56 1.202 . S
O72 U52 2.455 1_565 S
O72 C69 1.301 1_565 S
O73 U52 2.449 . S
O73 C69 1.282 . S
H74 C47 0.931 . S
H75 C49 0.929 . S
H76 C50 0.930 . S
H77 C51 0.931 . S
H78 C58 0.932 . S
H79 C59 0.930 . S
H80 C60 0.929 . S
H81 C62 0.930 . S
H82 C64 0.932 . S
H83 C65 0.929 . S
H84 C66 0.928 . S
H85 C68 0.932 . S
C86 C87 1.264 . S
C86 C91 1.479 . S
C86 C96 1.465 . S
C87 C86 1.264 . S
C87 C89 1.339 . S
C87 H114 0.931 . S
C88 C89 1.395 . S
C88 C90 1.320 . S
C89 C87 1.339 . S
C89 C88 1.395 . S
C89 H115 0.929 . S
C90 C88 1.320 . S
C90 C91 1.405 . S
C90 H116 0.930 . S
C91 C86 1.479 . S
C91 C90 1.405 . S
C91 H117 0.931 . S
U92 O93 2.454 1_565 S
U92 O94 2.458 1_565 S
U92 C95 2.984 1_565 S
U92 C96 2.847 1_455 S
U92 C109 2.882 . S
U92 O110 2.441 1_455 S
U92 O111 2.420 1_455 S
U92 O112 2.455 1_565 S
U92 O113 2.449 . S
O93 U92 2.454 1_545 S
O93 C95 1.353 . S
O94 U92 2.458 1_545 S
O94 C95 1.286 . S
C95 U92 2.984 1_545 S
C95 O93 1.353 . S
C95 O94 1.286 . S
C95 C97 1.363 . S
C96 C86 1.465 . S
C96 U92 2.847 1_655 S
C96 O110 1.249 . S
C96 O111 1.202 . S
C97 C95 1.363 . S
C97 C99 1.408 . S
C97 C102 1.342 . S
C98 C99 1.310 . S
C98 C101 1.461 . S
C98 H118 0.932 . S
C99 C97 1.408 . S
C99 C98 1.310 . S
C99 H119 0.930 . S
C100 C101 1.474 . S
C100 C102 1.285 . S
C100 H120 0.929 . S
C101 C98 1.461 . S
C101 C100 1.474 . S
C102 C97 1.342 . S
C102 C100 1.285 . S
C102 H121 0.930 . S
C103 C106 1.424 1_455 S
C103 C108 1.245 1_565 S
C103 C109 1.428 . S
C104 C107 1.260 1_545 S
C104 C108 1.477 . S
C104 H122 0.932 . S
C105 C106 1.384 . S
C105 C107 1.479 1_655 S
C105 H123 0.929 . S
C106 C103 1.424 1_655 S
C106 C105 1.384 . S
C106 H124 0.928 . S
C107 C104 1.260 1_565 S
C107 C105 1.479 1_455 S
C108 C103 1.245 1_545 S
C108 C104 1.477 . S
C108 H125 0.932 . S
C109 U92 2.882 . S
C109 C103 1.428 . S
C109 O112 1.301 1_565 S
C109 O113 1.282 . S
O110 U92 2.441 1_655 S
O110 C96 1.249 . S
O111 U92 2.420 1_655 S
O111 C96 1.202 . S
O112 U92 2.455 1_545 S
O112 C109 1.301 1_545 S
O113 U92 2.449 . S
O113 C109 1.282 . S
H114 C87 0.931 . S
H115 C89 0.929 . S
H116 C90 0.930 . S
H117 C91 0.931 . S
H118 C98 0.932 . S
H119 C99 0.930 . S
H120 C100 0.929 . S
H121 C102 0.930 . S
H122 C104 0.932 . S
H123 C105 0.929 . S
H124 C106 0.928 . S
H125 C108 0.932 . S
C126 C127 1.264 . S
C126 C131 1.479 . S
C126 C136 1.465 . S
C127 C126 1.264 . S
C127 C129 1.339 . S
C127 H154 0.931 . S
C128 C129 1.395 . S
C128 C130 1.320 . S
C129 C127 1.339 . S
C129 C128 1.395 . S
C129 H155 0.929 . S
C130 C128 1.320 . S
C130 C131 1.405 . S
C130 H156 0.930 . S
C131 C126 1.479 . S
C131 C130 1.405 . S
C131 H157 0.931 . S
U132 O133 2.454 . S
U132 O134 2.458 . S
U132 C135 2.984 . S
U132 C136 2.847 . S
U132 C149 2.882 . S
U132 O150 2.441 . S
U132 O151 2.420 . S
U132 O152 2.455 . S
U132 O153 2.449 . S
O133 U132 2.454 . S
O133 C135 1.353 . S
O134 U132 2.458 . S
O134 C135 1.286 . S
C135 U132 2.984 . S
C135 O133 1.353 . S
C135 O134 1.286 . S
C135 C137 1.363 . S
C136 C126 1.465 . S
C136 U132 2.847 . S
C136 O150 1.249 . S
C136 O151 1.202 . S
C137 C135 1.363 . S
C137 C139 1.408 . S
C137 C142 1.342 . S
C138 C139 1.310 . S
C138 C141 1.461 . S
C138 H158 0.932 . S
C139 C137 1.408 . S
C139 C138 1.310 . S
C139 H159 0.930 . S
C140 C141 1.474 . S
C140 C142 1.285 . S
C140 H160 0.929 . S
C141 C138 1.461 . S
C141 C140 1.474 . S
C142 C137 1.342 . S
C142 C140 1.285 . S
C142 H161 0.930 . S
C143 C146 1.424 . S
C143 C148 1.245 . S
C143 C149 1.428 . S
C144 C147 1.260 . S
C144 C148 1.477 . S
C144 H162 0.932 . S
C145 C146 1.384 . S
C145 C147 1.479 . S
C145 H163 0.929 . S
C146 C143 1.424 . S
C146 C145 1.384 . S
C146 H164 0.928 . S
C147 C144 1.260 . S
C147 C145 1.479 . S
C148 C143 1.245 . S
C148 C144 1.477 . S
C148 H165 0.932 . S
C149 U132 2.882 . S
C149 C143 1.428 . S
C149 O152 1.301 . S
C149 O153 1.282 . S
O150 U132 2.441 . S
O150 C136 1.249 . S
O151 U132 2.420 . S
O151 C136 1.202 . S
O152 U132 2.455 . S
O152 C149 1.301 . S
O153 U132 2.449 . S
O153 C149 1.282 . S
H154 C127 0.931 . S
H155 C129 0.929 . S
H156 C130 0.930 . S
H157 C131 0.931 . S
H158 C138 0.932 . S
H159 C139 0.930 . S
H160 C140 0.929 . S
H161 C142 0.930 . S
H162 C144 0.932 . S
H163 C145 0.929 . S
H164 C146 0.928 . S
H165 C148 0.932 . S
C166 C167 1.264 . S
C166 C171 1.479 . S
C166 C176 1.465 . S
C167 C166 1.264 . S
C167 C169 1.339 . S
C167 H194 0.931 . S
C168 C169 1.395 . S
C168 C170 1.320 . S
C169 C167 1.339 . S
C169 C168 1.395 . S
C169 H195 0.929 . S
C170 C168 1.320 . S
C170 C171 1.405 . S
C170 H196 0.930 . S
C171 C166 1.479 . S
C171 C170 1.405 . S
C171 H197 0.931 . S
U172 O173 2.454 . S
U172 O174 2.458 . S
U172 C175 2.984 . S
U172 C176 2.847 . S
U172 C189 2.882 . S
U172 O190 2.441 . S
U172 O191 2.420 . S
U172 O192 2.455 . S
U172 O193 2.449 . S
O173 U172 2.454 . S
O173 C175 1.353 . S
O174 U172 2.458 . S
O174 C175 1.286 . S
C175 U172 2.984 . S
C175 O173 1.353 . S
C175 O174 1.286 . S
C175 C177 1.363 . S
C176 C166 1.465 . S
C176 U172 2.847 . S
C176 O190 1.249 . S
C176 O191 1.202 . S
C177 C175 1.363 . S
C177 C179 1.408 . S
C177 C182 1.342 . S
C178 C179 1.310 . S
C178 C181 1.461 . S
C178 H198 0.932 . S
C179 C177 1.408 . S
C179 C178 1.310 . S
C179 H199 0.930 . S
C180 C181 1.474 . S
C180 C182 1.285 . S
C180 H200 0.929 . S
C181 C178 1.461 . S
C181 C180 1.474 . S
C182 C177 1.342 . S
C182 C180 1.285 . S
C182 H201 0.930 . S
C183 C186 1.424 . S
C183 C188 1.245 . S
C183 C189 1.428 . S
C184 C187 1.260 . S
C184 C188 1.477 . S
C184 H202 0.932 . S
C185 C186 1.384 . S
C185 C187 1.479 . S
C185 H203 0.929 . S
C186 C183 1.424 . S
C186 C185 1.384 . S
C186 H204 0.928 . S
C187 C184 1.260 . S
C187 C185 1.479 . S
C188 C183 1.245 . S
C188 C184 1.477 . S
C188 H205 0.932 . S
C189 U172 2.882 . S
C189 C183 1.428 . S
C189 O192 1.301 . S
C189 O193 1.282 . S
O190 U172 2.441 . S
O190 C176 1.249 . S
O191 U172 2.420 . S
O191 C176 1.202 . S
O192 U172 2.455 . S
O192 C189 1.301 . S
O193 U172 2.449 . S
O193 C189 1.282 . S
H194 C167 0.931 . S
H195 C169 0.929 . S
H196 C170 0.930 . S
H197 C171 0.931 . S
H198 C178 0.932 . S
H199 C179 0.930 . S
H200 C180 0.929 . S
H201 C182 0.930 . S
H202 C184 0.932 . S
H203 C185 0.929 . S
H204 C186 0.928 . S
H205 C188 0.932 . S
H206 C212 0.930 1_556 S
H207 C216 0.930 . S
H208 C221 0.929 . S
H209 C219 0.929 . S
H210 C214 0.929 . S
H211 C220 0.929 1_556 S
C212 H206 0.930 1_554 S
C212 C213 1.367 . S
C212 C220 1.378 . S
C213 C212 1.367 . S
C213 C221 1.433 . S
C214 H210 0.929 . S
C214 C216 1.378 . S
C214 C218 1.350 . S
C215 C218 1.463 . S
C215 C220 1.350 . S
C215 N223 1.427 . S
C216 H207 0.930 . S
C216 C214 1.378 . S
C216 C217 1.367 . S
C217 C216 1.367 . S
C217 C219 1.433 . S
C218 C214 1.350 . S
C218 C215 1.463 . S
C218 N222 1.427 . S
C219 H209 0.929 . S
C219 C217 1.433 . S
C219 N222 1.384 . S
C220 H211 0.929 1_554 S
C220 C212 1.378 . S
C220 C215 1.350 . S
C221 H208 0.929 . S
C221 C213 1.433 . S
C221 N223 1.384 . S
N222 C218 1.427 . S
N222 C219 1.384 . S
N223 C215 1.427 . S
N223 C221 1.384 . S
H224 C230 0.930 . S
H225 C234 0.930 . S
H226 C239 0.929 . S
H227 C237 0.929 . S
H228 C232 0.929 . S
H229 C238 0.929 . S
C230 H224 0.930 . S
C230 C231 1.367 . S
C230 C238 1.378 . S
C231 C230 1.367 . S
C231 C239 1.433 1_556 S
C232 H228 0.929 . S
C232 C234 1.378 . S
C232 C236 1.350 . S
C233 C236 1.463 . S
C233 C238 1.350 . S
C233 N241 1.427 . S
C234 H225 0.930 . S
C234 C232 1.378 . S
C234 C235 1.367 . S
C235 C234 1.367 . S
C235 C237 1.433 . S
C236 C232 1.350 . S
C236 C233 1.463 . S
C236 N240 1.427 . S
C237 H227 0.929 . S
C237 C235 1.433 . S
C237 N240 1.384 . S
C238 H229 0.929 . S
C238 C230 1.378 . S
C238 C233 1.350 . S
C239 H226 0.929 . S
C239 C231 1.433 1_554 S
C239 N241 1.384 1_554 S
N240 C236 1.427 . S
N240 C237 1.384 . S
N241 C233 1.427 . S
N241 C239 1.384 1_556 S
H242 C248 0.930 1_556 S
H243 C252 0.930 . S
H244 C257 0.929 . S
H245 C255 0.929 . S
H246 C250 0.929 . S
H247 C256 0.929 1_556 S
C248 H242 0.930 1_554 S
C248 C249 1.367 . S
C248 C256 1.378 . S
C249 C248 1.367 . S
C249 C257 1.433 . S
C250 H246 0.929 . S
C250 C252 1.378 . S
C250 C254 1.350 . S
C251 C254 1.463 . S
C251 C256 1.350 . S
C251 N259 1.427 . S
C252 H243 0.930 . S
C252 C250 1.378 . S
C252 C253 1.367 . S
C253 C252 1.367 . S
C253 C255 1.433 . S
C254 C250 1.350 . S
C254 C251 1.463 . S
C254 N258 1.427 . S
C255 H245 0.929 . S
C255 C253 1.433 . S
C255 N258 1.384 . S
C256 H247 0.929 1_554 S
C256 C248 1.378 . S
C256 C251 1.350 . S
C257 H244 0.929 . S
C257 C249 1.433 . S
C257 N259 1.384 . S
N258 C254 1.427 . S
N258 C255 1.384 . S
N259 C251 1.427 . S
N259 C257 1.384 . S
H260 C266 0.930 . S
H261 C270 0.930 . S
H262 C275 0.929 . S
H263 C273 0.929 1_554 S
H264 C268 0.929 . S
H265 C274 0.929 . S
C266 H260 0.930 . S
C266 C267 1.367 1_554 S
C266 C274 1.378 . S
C267 C266 1.367 1_556 S
C267 C275 1.433 . S
C268 H264 0.929 . S
C268 C270 1.378 . S
C268 C272 1.350 . S
C269 C272 1.463 . S
C269 C274 1.350 1_556 S
C269 N277 1.427 . S
C270 H261 0.930 . S
C270 C268 1.378 . S
C270 C271 1.367 . S
C271 C270 1.367 . S
C271 C273 1.433 . S
C272 C268 1.350 . S
C272 C269 1.463 . S
C272 N276 1.427 . S
C273 H263 0.929 1_556 S
C273 C271 1.433 . S
C273 N276 1.384 . S
C274 H265 0.929 . S
C274 C266 1.378 . S
C274 C269 1.350 1_554 S
C275 H262 0.929 . S
C275 C267 1.433 . S
C275 N277 1.384 . S
N276 C272 1.427 . S
N276 C273 1.384 . S
N277 C269 1.427 . S
N277 C275 1.384 . S
H278 C284 0.930 . S
H279 C288 0.930 . S
H280 C293 0.929 . S
H281 C291 0.929 . S
H282 C286 0.929 . S
H283 C292 0.929 . S
C284 H278 0.930 . S
C284 C285 1.367 . S
C284 C292 1.378 . S
C285 C284 1.367 . S
C285 C293 1.433 . S
C286 H282 0.929 . S
C286 C288 1.378 . S
C286 C290 1.350 . S
C287 C290 1.463 . S
C287 C292 1.350 . S
C287 N295 1.427 . S
C288 H279 0.930 . S
C288 C286 1.378 . S
C288 C289 1.367 . S
C289 C288 1.367 . S
C289 C291 1.433 . S
C290 C286 1.350 . S
C290 C287 1.463 . S
C290 N294 1.427 . S
C291 H281 0.929 . S
C291 C289 1.433 . S
C291 N294 1.384 . S
C292 H283 0.929 . S
C292 C284 1.378 . S
C292 C287 1.350 . S
C293 H280 0.929 . S
C293 C285 1.433 . S
C293 N295 1.384 . S
N294 C290 1.427 . S
N294 C291 1.384 . S
N295 C287 1.427 . S
N295 C293 1.384 . S
H296 C302 0.930 . S
H297 C306 0.930 . S
H298 C311 0.929 . S
H299 C309 0.929 . S
H300 C304 0.929 . S
H301 C310 0.929 . S
C302 H296 0.930 . S
C302 C303 1.367 . S
C302 C310 1.378 . S
C303 C302 1.367 . S
C303 C311 1.433 . S
C304 H300 0.929 . S
C304 C306 1.378 . S
C304 C308 1.350 . S
C305 C308 1.463 . S
C305 C310 1.350 . S
C305 N313 1.427 . S
C306 H297 0.930 . S
C306 C304 1.378 . S
C306 C307 1.367 . S
C307 C306 1.367 . S
C307 C309 1.433 . S
C308 C304 1.350 . S
C308 C305 1.463 . S
C308 N312 1.427 . S
C309 H299 0.929 . S
C309 C307 1.433 . S
C309 N312 1.384 . S
C310 H301 0.929 . S
C310 C302 1.378 . S
C310 C305 1.350 . S
C311 H298 0.929 . S
C311 C303 1.433 . S
C311 N313 1.384 . S
N312 C308 1.427 . S
N312 C309 1.384 . S
N313 C305 1.427 . S
N313 C311 1.384 . S
H314 C320 0.930 . S
H315 C324 0.930 . S
H316 C329 0.929 . S
H317 C327 0.929 . S
H318 C322 0.929 . S
H319 C328 0.929 . S
C320 H314 0.930 . S
C320 C321 1.367 . S
C320 C328 1.378 . S
C321 C320 1.367 . S
C321 C329 1.433 . S
C322 H318 0.929 . S
C322 C324 1.378 . S
C322 C326 1.350 . S
C323 C326 1.463 . S
C323 C328 1.350 . S
C323 N331 1.427 . S
C324 H315 0.930 . S
C324 C322 1.378 . S
C324 C325 1.367 . S
C325 C324 1.367 . S
C325 C327 1.433 . S
C326 C322 1.350 . S
C326 C323 1.463 . S
C326 N330 1.427 . S
C327 H317 0.929 . S
C327 C325 1.433 . S
C327 N330 1.384 . S
C328 H319 0.929 . S
C328 C320 1.378 . S
C328 C323 1.350 . S
C329 H316 0.929 . S
C329 C321 1.433 . S
C329 N331 1.384 . S
N330 C326 1.427 . S
N330 C327 1.384 . S
N331 C323 1.427 . S
N331 C329 1.384 . S
H332 C338 0.930 . S
H333 C342 0.930 . S
H334 C347 0.929 . S
H335 C345 0.929 . S
H336 C340 0.929 . S
H337 C346 0.929 . S
C338 H332 0.930 . S
C338 C339 1.367 . S
C338 C346 1.378 . S
C339 C338 1.367 . S
C339 C347 1.433 . S
C340 H336 0.929 . S
C340 C342 1.378 . S
C340 C344 1.350 . S
C341 C344 1.463 . S
C341 C346 1.350 . S
C341 N349 1.427 . S
C342 H333 0.930 . S
C342 C340 1.378 . S
C342 C343 1.367 . S
C343 C342 1.367 . S
C343 C345 1.433 . S
C344 C340 1.350 . S
C344 C341 1.463 . S
C344 N348 1.427 . S
C345 H335 0.929 . S
C345 C343 1.433 . S
C345 N348 1.384 . S
C346 H337 0.929 . S
C346 C338 1.378 . S
C346 C341 1.350 . S
C347 H334 0.929 . S
C347 C339 1.433 . S
C347 N349 1.384 . S
N348 C344 1.427 . S
N348 C345 1.384 . S
N349 C341 1.427 . S
N349 C347 1.384 . S
H350 C356 0.930 . S
H351 C360 0.930 . S
H352 C365 0.929 . S
H353 C363 0.929 . S
H354 C358 0.929 . S
H355 C364 0.929 . S
C356 H350 0.930 . S
C356 C357 1.367 1_565 S
C356 C364 1.378 . S
C357 C356 1.367 1_545 S
C357 C365 1.433 1_455 S
C358 H354 0.929 . S
C358 C360 1.378 . S
C358 C362 1.350 1_655 S
C359 C362 1.463 . S
C359 C364 1.350 1_545 S
C359 N367 1.427 1_455 S
C360 H351 0.930 . S
C360 C358 1.378 . S
C360 C361 1.371 . S
C361 C360 1.371 . S
C361 C363 1.429 1_645 S
C362 C358 1.350 1_455 S
C362 C359 1.463 . S
C362 N366 1.427 1_545 S
C363 H353 0.929 . S
C363 C361 1.429 1_465 S
C363 N366 1.384 . S
C364 H355 0.929 . S
C364 C356 1.378 . S
C364 C359 1.350 1_565 S
C365 H352 0.929 . S
C365 C357 1.433 1_655 S
C365 N367 1.384 . S
N366 C362 1.427 1_565 S
N366 C363 1.384 . S
N367 C359 1.427 1_655 S
N367 C365 1.384 . S
H368 C374 0.930 . S
H369 C378 0.930 . S
H370 C383 0.929 . S
H371 C381 0.929 . S
H372 C376 0.929 . S
H373 C382 0.929 . S
C374 H368 0.930 . S
C374 C375 1.367 . S
C374 C382 1.378 . S
C375 C374 1.367 . S
C375 C383 1.433 1_445 S
C376 H372 0.929 . S
C376 C378 1.378 . S
C376 C380 1.350 1_665 S
C377 C380 1.463 . S
C377 C382 1.350 . S
C377 N385 1.427 1_445 S
C378 H369 0.930 . S
C378 C376 1.378 . S
C378 C379 1.361 1_665 S
C379 C378 1.361 1_445 S
C379 C381 1.439 . S
C380 C376 1.350 1_445 S
C380 C377 1.463 . S
C380 N384 1.427 . S
C381 H371 0.929 . S
C381 C379 1.439 . S
C381 N384 1.384 . S
C382 H373 0.929 . S
C382 C374 1.378 . S
C382 C377 1.350 . S
C383 H370 0.929 . S
C383 C375 1.433 1_665 S
C383 N385 1.384 . S
N384 C380 1.427 . S
N384 C381 1.384 . S
N385 C377 1.427 1_665 S
N385 C383 1.384 . S
H386 C392 0.930 . S
H387 C396 0.930 . S
H388 C401 0.929 . S
H389 C399 0.929 . S
H390 C394 0.929 . S
H391 C400 0.929 . S
C392 H386 0.930 . S
C392 C393 1.367 . S
C392 C400 1.378 . S
C393 C392 1.367 . S
C393 C401 1.433 . S
C394 H390 0.929 . S
C394 C396 1.378 . S
C394 C398 1.350 . S
C395 C398 1.463 . S
C395 C400 1.350 . S
C395 N403 1.427 . S
C396 H387 0.930 . S
C396 C394 1.378 . S
C396 C397 1.367 . S
C397 C396 1.367 . S
C397 C399 1.433 . S
C398 C394 1.350 . S
C398 C395 1.463 . S
C398 N402 1.427 . S
C399 H389 0.929 . S
C399 C397 1.433 . S
C399 N402 1.384 . S
C400 H391 0.929 . S
C400 C392 1.378 . S
C400 C395 1.350 . S
C401 H388 0.929 . S
C401 C393 1.433 . S
C401 N403 1.384 . S
N402 C398 1.427 . S
N402 C399 1.384 . S
N403 C395 1.427 . S
N403 C401 1.384 . S
H404 C410 0.930 . S
H405 C414 0.930 . S
H406 C419 0.929 . S
H407 C417 0.929 . S
H408 C412 0.929 . S
H409 C418 0.929 . S
C410 H404 0.930 . S
C410 C411 1.367 . S
C410 C418 1.378 . S
C411 C410 1.367 . S
C411 C419 1.433 . S
C412 H408 0.929 . S
C412 C414 1.378 . S
C412 C416 1.350 . S
C413 C416 1.463 . S
C413 C418 1.350 . S
C413 N421 1.427 . S
C414 H405 0.930 . S
C414 C412 1.378 . S
C414 C415 1.367 . S
C415 C414 1.367 . S
C415 C417 1.433 . S
C416 C412 1.350 . S
C416 C413 1.463 . S
C416 N420 1.427 . S
C417 H407 0.929 . S
C417 C415 1.433 . S
C417 N420 1.384 . S
C418 H409 0.929 . S
C418 C410 1.378 . S
C418 C413 1.350 . S
C419 H406 0.929 . S
C419 C411 1.433 . S
C419 N421 1.384 . S
N420 C416 1.427 . S
N420 C417 1.384 . S
N421 C413 1.427 . S
N421 C419 1.384 . S
C217 C168 1.468 . S
C213 C21 1.465 . S
C231 C19 1.459 . S
C235 C128 1.459 . S
C249 C18 1.426 . S
C253 C181 1.428 . S
C267 C20 1.451 . S
C271 C141 1.441 . S
C285 C44 1.468 . S
C289 C88 1.467 . S
C303 C42 1.459 . S
C307 C48 1.460 . S
C325 C101 1.432 . S
C321 C41 1.434 . S
C343 C61 1.441 . S
C339 C43 1.450 . S
C357 C16 1.493 . S
C361 C67 1.478 1_655 S
C375 C17 1.457 . S
C379 C107 1.446 1_545 S
C397 C147 1.480 . S
C393 C39 1.494 . S
C411 C40 1.456 . S
C415 C187 1.448 . S
