# Generated by pormake.
# Topology ocu, (6,8)-cn, num edge types: 1
# Building blocks:
#     Node 0, Type 0, BuildingBlock: BETDEL_clean_sbu_0, # of connection points: 6
#     Node 1, Type 0, BuildingBlock: BETDEL_clean_sbu_0, # of connection points: 6
#     Node 2, Type 0, BuildingBlock: BETDEL_clean_sbu_0, # of connection points: 6
#     Node 3, Type 0, BuildingBlock: BETDEL_clean_sbu_0, # of connection points: 6
#     Node 4, Type 0, BuildingBlock: BETDEL_clean_sbu_0, # of connection points: 6
#     Node 5, Type 0, BuildingBlock: BETDEL_clean_sbu_0, # of connection points: 6
#     Node 6, Type 0, BuildingBlock: BETDEL_clean_sbu_0, # of connection points: 6
#     Node 7, Type 0, BuildingBlock: BETDEL_clean_sbu_0, # of connection points: 6
#     Node 8, Type 1, BuildingBlock: VETTIZ_charged_sbu_0, # of connection points: 8
#     Node 9, Type 1, BuildingBlock: VETTIZ_charged_sbu_0, # of connection points: 8
#     Node 10, Type 1, BuildingBlock: VETTIZ_charged_sbu_0, # of connection points: 8
#     Node 11, Type 1, BuildingBlock: VETTIZ_charged_sbu_0, # of connection points: 8
#     Node 12, Type 1, BuildingBlock: VETTIZ_charged_sbu_0, # of connection points: 8
#     Node 13, Type 1, BuildingBlock: VETTIZ_charged_sbu_0, # of connection points: 8
#     Edge 14, Type (0, 1), BuildingBlock: KIFKEQ_clean_linker_1, # of connection points: 2
#     Edge 15, Type (0, 1), BuildingBlock: KIFKEQ_clean_linker_1, # of connection points: 2
#     Edge 16, Type (0, 1), BuildingBlock: KIFKEQ_clean_linker_1, # of connection points: 2
#     Edge 17, Type (0, 1), BuildingBlock: KIFKEQ_clean_linker_1, # of connection points: 2
#     Edge 18, Type (0, 1), BuildingBlock: KIFKEQ_clean_linker_1, # of connection points: 2
#     Edge 19, Type (0, 1), BuildingBlock: KIFKEQ_clean_linker_1, # of connection points: 2
#     Edge 20, Type (0, 1), BuildingBlock: KIFKEQ_clean_linker_1, # of connection points: 2
#     Edge 21, Type (0, 1), BuildingBlock: KIFKEQ_clean_linker_1, # of connection points: 2
#     Edge 22, Type (0, 1), BuildingBlock: KIFKEQ_clean_linker_1, # of connection points: 2
#     Edge 23, Type (0, 1), BuildingBlock: KIFKEQ_clean_linker_1, # of connection points: 2
#     Edge 24, Type (0, 1), BuildingBlock: KIFKEQ_clean_linker_1, # of connection points: 2
#     Edge 25, Type (0, 1), BuildingBlock: KIFKEQ_clean_linker_1, # of connection points: 2
#     Edge 26, Type (0, 1), BuildingBlock: KIFKEQ_clean_linker_1, # of connection points: 2
#     Edge 27, Type (0, 1), BuildingBlock: KIFKEQ_clean_linker_1, # of connection points: 2
#     Edge 28, Type (0, 1), BuildingBlock: KIFKEQ_clean_linker_1, # of connection points: 2
#     Edge 29, Type (0, 1), BuildingBlock: KIFKEQ_clean_linker_1, # of connection points: 2
#     Edge 30, Type (0, 1), BuildingBlock: KIFKEQ_clean_linker_1, # of connection points: 2
#     Edge 31, Type (0, 1), BuildingBlock: KIFKEQ_clean_linker_1, # of connection points: 2
#     Edge 32, Type (0, 1), BuildingBlock: KIFKEQ_clean_linker_1, # of connection points: 2
#     Edge 33, Type (0, 1), BuildingBlock: KIFKEQ_clean_linker_1, # of connection points: 2
#     Edge 34, Type (0, 1), BuildingBlock: KIFKEQ_clean_linker_1, # of connection points: 2
#     Edge 35, Type (0, 1), BuildingBlock: KIFKEQ_clean_linker_1, # of connection points: 2
#     Edge 36, Type (0, 1), BuildingBlock: KIFKEQ_clean_linker_1, # of connection points: 2
#     Edge 37, Type (0, 1), BuildingBlock: KIFKEQ_clean_linker_1, # of connection points: 2
#     Edge 38, Type (0, 1), BuildingBlock: KIFKEQ_clean_linker_1, # of connection points: 2
#     Edge 39, Type (0, 1), BuildingBlock: KIFKEQ_clean_linker_1, # of connection points: 2
#     Edge 40, Type (0, 1), BuildingBlock: KIFKEQ_clean_linker_1, # of connection points: 2
#     Edge 41, Type (0, 1), BuildingBlock: KIFKEQ_clean_linker_1, # of connection points: 2
#     Edge 42, Type (0, 1), BuildingBlock: KIFKEQ_clean_linker_1, # of connection points: 2
#     Edge 43, Type (0, 1), BuildingBlock: KIFKEQ_clean_linker_1, # of connection points: 2
#     Edge 44, Type (0, 1), BuildingBlock: KIFKEQ_clean_linker_1, # of connection points: 2
#     Edge 45, Type (0, 1), BuildingBlock: KIFKEQ_clean_linker_1, # of connection points: 2
#     Edge 46, Type (0, 1), BuildingBlock: KIFKEQ_clean_linker_1, # of connection points: 2
#     Edge 47, Type (0, 1), BuildingBlock: KIFKEQ_clean_linker_1, # of connection points: 2
#     Edge 48, Type (0, 1), BuildingBlock: KIFKEQ_clean_linker_1, # of connection points: 2
#     Edge 49, Type (0, 1), BuildingBlock: KIFKEQ_clean_linker_1, # of connection points: 2
#     Edge 50, Type (0, 1), BuildingBlock: KIFKEQ_clean_linker_1, # of connection points: 2
#     Edge 51, Type (0, 1), BuildingBlock: KIFKEQ_clean_linker_1, # of connection points: 2
#     Edge 52, Type (0, 1), BuildingBlock: KIFKEQ_clean_linker_1, # of connection points: 2
#     Edge 53, Type (0, 1), BuildingBlock: KIFKEQ_clean_linker_1, # of connection points: 2
#     Edge 54, Type (0, 1), BuildingBlock: KIFKEQ_clean_linker_1, # of connection points: 2
#     Edge 55, Type (0, 1), BuildingBlock: KIFKEQ_clean_linker_1, # of connection points: 2
#     Edge 56, Type (0, 1), BuildingBlock: KIFKEQ_clean_linker_1, # of connection points: 2
#     Edge 57, Type (0, 1), BuildingBlock: KIFKEQ_clean_linker_1, # of connection points: 2
#     Edge 58, Type (0, 1), BuildingBlock: KIFKEQ_clean_linker_1, # of connection points: 2
#     Edge 59, Type (0, 1), BuildingBlock: KIFKEQ_clean_linker_1, # of connection points: 2
#     Edge 60, Type (0, 1), BuildingBlock: KIFKEQ_clean_linker_1, # of connection points: 2
#     Edge 61, Type (0, 1), BuildingBlock: KIFKEQ_clean_linker_1, # of connection points: 2
# Relax obj value: 0.088
# Max RMSD: 0.224
# Mean RMSD: 0.135
data_MOF--net-ocu--node1-BETDEL_clean_sbu_0--node2-VETTIZ_charged_sbu_0--edge1-KIFKEQ_clean_linker_1
_symmetry_space_group_name_H-M    P1
_symmetry_Int_Tables_number       1
_symmetry_cell_setting            triclinic
loop_
_symmetry_equiv_pos_as_xyz
'x, y, z'
_cell_length_a     37.879103
_cell_length_b     38.654369
_cell_length_c     37.969283
_cell_angle_alpha  91.488696
_cell_angle_beta   91.041456
_cell_angle_gamma 95.799935
loop_
_atom_site_label
_atom_site_type_symbol
_atom_site_fract_x
_atom_site_fract_y
_atom_site_fract_z
_atom_type_partial_charge
Dy0 Dy 0.28667 0.25079 0.27805 0.0
C1 C 0.20574 0.28895 0.16107 0.0
C2 C 0.31328 0.21247 0.32922 0.0
Dy3 Dy 0.24056 0.2599 0.21426 0.0
O4 O 0.32278 0.24545 0.32507 0.0
O5 O 0.2892 0.20106 0.30591 0.0
O6 O 0.31833 0.30238 0.2727 0.0
O7 O 0.29651 0.27459 0.22763 0.0
C8 C 0.31264 0.30318 0.23875 0.0
C9 C 0.21684 0.20846 0.25694 0.0
O10 O 0.27728 0.22594 0.18648 0.0
O11 O 0.30878 0.21375 0.23685 0.0
O12 O 0.19134 0.26579 0.18198 0.0
O13 O 0.23928 0.29552 0.16864 0.0
O14 O 0.2125 0.20602 0.22279 0.0
O15 O 0.23128 0.23823 0.26555 0.0
O16 O 0.24836 0.28552 0.30369 0.0
O17 O 0.22513 0.30338 0.25119 0.0
C18 C 0.30217 0.20937 0.20213 0.0
C19 C 0.22814 0.30604 0.28622 0.0
Dy20 Dy 0.78908 0.23153 0.26863 0.0
C21 C 0.69676 0.31573 0.20363 0.0
C22 C 0.82415 0.18924 0.30944 0.0
Dy23 Dy 0.74155 0.28182 0.24315 0.0
O24 O 0.79545 0.17978 0.29127 0.0
O25 O 0.83469 0.22168 0.30424 0.0
O26 O 0.77496 0.19794 0.22036 0.0
O27 O 0.73621 0.22558 0.24399 0.0
C28 C 0.74237 0.20557 0.2186 0.0
C29 C 0.78681 0.30862 0.29398 0.0
O30 O 0.70644 0.25634 0.28336 0.0
O31 O 0.75392 0.23919 0.3145 0.0
O32 O 0.71122 0.32736 0.2334 0.0
O33 O 0.70676 0.28553 0.19532 0.0
O34 O 0.75493 0.31766 0.28988 0.0
O35 O 0.79375 0.28818 0.26917 0.0
O36 O 0.82633 0.25488 0.22917 0.0
O37 O 0.78374 0.28445 0.20158 0.0
C38 C 0.7201 0.24467 0.31245 0.0
C39 C 0.81608 0.274 0.20319 0.0
Dy40 Dy 0.75202 0.76982 0.28805 0.0
C41 C 0.83367 0.75185 0.16771 0.0
C42 C 0.72178 0.79115 0.34802 0.0
Dy43 Dy 0.7959 0.76731 0.22486 0.0
O44 O 0.70938 0.76455 0.3284 0.0
O45 O 0.7503 0.80636 0.33455 0.0
O46 O 0.7286 0.71544 0.27892 0.0
O47 O 0.74101 0.74704 0.23531 0.0
C48 C 0.72959 0.71678 0.24478 0.0
C49 C 0.81719 0.81787 0.27244 0.0
O50 O 0.75623 0.79879 0.20054 0.0
O51 O 0.72889 0.81055 0.25285 0.0
O52 O 0.84414 0.77512 0.19181 0.0
O53 O 0.8025 0.73695 0.17493 0.0
O54 O 0.81817 0.82274 0.23878 0.0
O55 O 0.80637 0.7869 0.27817 0.0
O56 O 0.79324 0.7366 0.30938 0.0
O57 O 0.81543 0.72251 0.25519 0.0
C58 C 0.73326 0.81559 0.21833 0.0
C59 C 0.81348 0.71787 0.28973 0.0
Dy60 Dy 0.28184 0.7418 0.2463 0.0
C61 C 0.18109 0.83486 0.28118 0.0
C62 C 0.32107 0.69827 0.21012 0.0
Dy63 Dy 0.22814 0.79068 0.25884 0.0
O64 O 0.29921 0.71792 0.1962 0.0
O65 O 0.32137 0.70181 0.24429 0.0
O66 O 0.31135 0.7574 0.29669 0.0
O67 O 0.28551 0.79464 0.26973 0.0
C68 C 0.3022 0.7889 0.2978 0.0
C69 C 0.2114 0.74303 0.20659 0.0
O70 O 0.25974 0.82405 0.22193 0.0
O71 O 0.29303 0.78044 0.20326 0.0
O72 O 0.17293 0.80637 0.26286 0.0
O73 O 0.21497 0.83901 0.28802 0.0
O74 O 0.20501 0.77528 0.20491 0.0
O75 O 0.22517 0.73772 0.2361 0.0
O76 O 0.24537 0.70921 0.28063 0.0
O77 O 0.22242 0.75669 0.306 0.0
C78 C 0.28268 0.81201 0.20024 0.0
C79 C 0.22755 0.7233 0.30602 0.0
Dy80 Dy 0.28699 0.73841 0.76575 0.0
C81 C 0.20969 0.83155 0.69306 0.0
C82 C 0.32948 0.70801 0.81097 0.0
Dy83 Dy 0.24096 0.78858 0.73638 0.0
O84 O 0.32613 0.70035 0.7775 0.0
O85 O 0.30969 0.73217 0.8197 0.0
O86 O 0.27343 0.69827 0.72263 0.0
O87 O 0.23586 0.73191 0.73762 0.0
C88 C 0.24298 0.70925 0.71504 0.0
C89 C 0.28642 0.81525 0.78748 0.0
O90 O 0.20187 0.76679 0.77512 0.0
O91 O 0.24306 0.73756 0.80531 0.0
O92 O 0.23991 0.83898 0.70925 0.0
O93 O 0.19566 0.8009 0.70149 0.0
O94 O 0.25413 0.82344 0.78417 0.0
O95 O 0.29289 0.79449 0.76292 0.0
O96 O 0.32334 0.76435 0.72656 0.0
O97 O 0.27647 0.77716 0.69196 0.0
C98 C 0.21098 0.74836 0.80212 0.0
C99 C 0.31059 0.77366 0.696 0.0
Dy100 Dy 0.23387 0.25715 0.78274 0.0
C101 C 0.31007 0.23634 0.66054 0.0
C102 C 0.19588 0.27285 0.8397 0.0
Dy103 Dy 0.27874 0.2561 0.72044 0.0
O104 O 0.18588 0.24882 0.81619 0.0
O105 O 0.2267 0.28827 0.83204 0.0
O106 O 0.21233 0.20169 0.76854 0.0
O107 O 0.22444 0.23769 0.7292 0.0
C108 C 0.21385 0.20661 0.7349 0.0
C109 C 0.29966 0.30905 0.76459 0.0
O110 O 0.2385 0.28986 0.69859 0.0
O111 O 0.2127 0.30082 0.75185 0.0
O112 O 0.32302 0.26139 0.68188 0.0
O113 O 0.28045 0.22176 0.67231 0.0
O114 O 0.30077 0.31082 0.73048 0.0
O115 O 0.28877 0.27847 0.77351 0.0
O116 O 0.27367 0.22576 0.80715 0.0
O117 O 0.30166 0.21492 0.755 0.0
C118 C 0.21639 0.30689 0.71769 0.0
C119 C 0.29701 0.2094 0.78937 0.0
Dy120 Dy 0.80418 0.23302 0.74792 0.0
C121 C 0.715 0.3286 0.79822 0.0
C122 C 0.85042 0.18812 0.72555 0.0
Dy123 Dy 0.75077 0.28277 0.76116 0.0
O124 O 0.85886 0.21603 0.74468 0.0
O125 O 0.81668 0.18494 0.71788 0.0
O126 O 0.82852 0.24896 0.80118 0.0
O127 O 0.80756 0.28609 0.76987 0.0
C128 C 0.82205 0.28115 0.79915 0.0
C129 C 0.73004 0.23526 0.71025 0.0
O130 O 0.78464 0.31429 0.72378 0.0
O131 O 0.80993 0.2669 0.70059 0.0
O132 O 0.70512 0.31565 0.76721 0.0
O133 O 0.74431 0.31698 0.80828 0.0
O134 O 0.72161 0.26709 0.71059 0.0
O135 O 0.74668 0.22975 0.73845 0.0
O136 O 0.77275 0.20039 0.78557 0.0
O137 O 0.73989 0.24433 0.80449 0.0
C138 C 0.80344 0.29994 0.69933 0.0
C139 C 0.75021 0.21272 0.80754 0.0
Dy140 Dy 0.78781 0.76221 0.78832 0.0
C141 C 0.71356 0.80426 0.67021 0.0
C142 C 0.8158 0.72653 0.84083 0.0
Dy143 Dy 0.74272 0.77091 0.72381 0.0
O144 O 0.8291 0.75702 0.83087 0.0
O145 O 0.78706 0.7164 0.82282 0.0
O146 O 0.81908 0.81425 0.78063 0.0
O147 O 0.79828 0.78405 0.73693 0.0
C148 C 0.81398 0.81317 0.74654 0.0
C149 C 0.71654 0.71958 0.76439 0.0
O150 O 0.78077 0.73567 0.69851 0.0
O151 O 0.80763 0.72154 0.75073 0.0
O152 O 0.70344 0.77252 0.67893 0.0
O153 O 0.73963 0.81743 0.69055 0.0
O154 O 0.71227 0.71857 0.73023 0.0
O155 O 0.73204 0.74871 0.7745 0.0
O156 O 0.75122 0.7971 0.81525 0.0
O157 O 0.72008 0.80838 0.7643 0.0
C158 C 0.80297 0.71713 0.71597 0.0
C159 C 0.72651 0.81345 0.79901 0.0
Fe160 Fe 0.02306 0.09266 0.49768 0.0
O161 O 1.01193 0.04243 0.48867 0.0
Fe162 Fe 0.05395 0.01186 0.48907 0.0
Fe163 Fe 0.97846 0.01179 0.51743 0.0
O164 O 1.01487 0.04249 0.48725 0.0
O165 O 0.02073 0.98152 0.51842 0.0
O166 O 0.01768 0.98141 0.51973 0.0
Fe167 Fe 1.00915 0.93124 0.50994 0.0
C168 C 0.99867 0.06861 0.57092 0.0
O169 O 0.97123 0.09257 0.48074 0.0
O170 O 0.9412 0.04739 0.51067 0.0
O171 O 0.02889 0.93182 0.45985 0.0
O172 O 0.03481 0.98706 0.44329 0.0
O173 O 0.0837 0.04799 0.45684 0.0
O174 O 0.04752 0.09201 0.44967 0.0
O175 O 0.9587 0.98733 0.47144 0.0
O176 O 0.95875 0.93295 0.48886 0.0
C177 C 0.07455 0.07556 0.44107 0.0
O178 O 0.06117 0.93124 0.52629 0.0
O179 O 0.09104 0.97597 0.49552 0.0
O180 O 1.00285 0.09161 0.54754 0.0
O181 O 0.99692 0.03626 0.56355 0.0
C182 C 0.94266 0.07523 0.49204 0.0
C183 C 0.94805 0.95522 0.46822 0.0
C184 C 0.95796 0.94914 0.56622 0.0
O185 O 0.9483 0.97562 0.54901 0.0
O186 O 0.98513 0.93257 0.55837 0.0
C187 C 0.03297 0.95461 0.43623 0.0
O188 O 0.07448 0.03631 0.53487 0.0
O189 O 0.07331 0.0911 0.51899 0.0
C190 C 0.08965 0.94823 0.51432 0.0
C191 C 0.08467 0.06848 0.53876 0.0
Fe192 Fe 0.50701 0.93214 0.01813 0.0
O193 O 0.51304 0.98288 0.02121 0.0
Fe194 Fe 0.47382 0.01173 0.99617 0.0
Fe195 Fe 0.5577 1.01091 0.00799 0.0
O196 O 0.5086 0.98383 0.0216 0.0
O197 O 0.51843 0.03923 0.98204 0.0
O198 O 0.523 0.03831 0.98174 0.0
Fe199 Fe 0.52404 0.08997 0.98494 0.0
C200 C 0.5762 0.95246 0.06065 0.0
O201 O 0.54981 0.92705 0.98461 0.0
O202 O 0.5653 0.97936 0.96334 0.0
O203 O 0.48766 0.08462 0.94319 0.0
O204 O 0.44414 0.04516 0.96468 0.0
O205 O 0.475 0.98029 0.95137 0.0
O206 O 0.47355 0.92783 0.97487 0.0
O207 O 0.59909 0.04541 0.98927 0.0
O208 O 0.57018 0.08529 0.95765 0.0
C209 C 0.46749 0.94738 0.94949 0.0
O210 O 0.48007 0.09482 0.01671 0.0
O211 O 0.46776 0.0437 0.04117 0.0
O212 O 0.54411 0.93687 0.05939 0.0
O213 O 0.58728 0.97781 0.03981 0.0
C214 C 0.56656 0.94634 0.96228 0.0
C215 C 0.59797 0.06996 0.96645 0.0
C216 C 0.56223 0.07515 0.05462 0.0
O217 O 0.55505 0.0422 0.05263 0.0
O218 O 0.55641 0.09468 0.02911 0.0
C219 C 0.45525 0.06981 0.94299 0.0
O220 O 0.43254 0.97767 0.0159 0.0
O221 O 0.46167 0.93726 0.04661 0.0
C222 C 0.46455 0.07637 0.04038 0.0
C223 C 0.43393 0.95305 0.03864 0.0
Fe224 Fe 0.01727 0.55185 0.00565 0.0
O225 O 0.99154 0.51228 0.03064 0.0
Fe226 Fe 0.08851 0.51614 0.96881 0.0
Fe227 Fe 0.94036 0.50802 0.03938 0.0
O228 O 0.03761 0.51515 0.97719 0.0
O229 O 0.03716 0.51211 0.97702 0.0
O230 O 0.99098 0.50926 0.03033 0.0
Fe231 Fe 1.0111 0.47259 1.0018 0.0
C232 C 0.97265 0.5795 0.06569 0.0
O233 O 0.97665 0.55245 0.96921 0.0
O234 O 0.92999 0.5454 0.00427 0.0
O235 O 0.03571 0.43919 0.96903 0.0
O236 O 0.07302 0.47454 0.93463 0.0
O237 O 0.0779 0.55661 0.9371 0.0
O238 O 0.04679 0.5891 0.97535 0.0
O239 O 0.92511 0.46954 1.00107 0.0
O240 O 0.97068 0.47119 0.96489 0.0
C241 C 0.06534 0.58529 0.94713 0.0
O242 O 0.05116 0.47206 0.03839 0.0
O243 O 0.09866 0.47868 0.00439 0.0
O244 O 0.9927 0.5851 0.0386 0.0
O245 O 0.95615 0.54954 0.07355 0.0
C246 C 0.94463 0.55665 0.97629 0.0
C247 C 0.93828 0.46237 0.97137 0.0
C248 C 0.96324 0.43877 0.06021 0.0
O249 O 0.95122 0.4675 0.07082 0.0
O250 O 0.98148 0.43518 0.03177 0.0
C251 C 0.05622 0.44466 0.94226 0.0
O252 O 0.10355 0.55481 0.0068 0.0
O253 O 0.05778 0.55355 0.04262 0.0
C254 C 0.08308 0.46733 0.03187 0.0
C255 C 0.0902 0.56237 0.03625 0.0
Fe256 Fe 0.51678 0.51412 0.96369 0.0
O257 O 0.54313 0.53735 0.00513 0.0
Fe258 Fe 0.43729 0.48039 1.00135 0.0
Fe259 Fe 0.59474 0.54447 0.00884 0.0
O260 O 0.48942 0.48693 1.00027 0.0
O261 O 0.48907 0.48709 0.00376 0.0
O262 O 0.54278 0.53754 0.00857 0.0
Fe263 Fe 0.51563 0.51037 0.045 0.0
C264 C 0.58428 0.48197 0.95644 0.0
O265 O 0.54996 0.54657 0.93058 0.0
O266 O 0.58761 0.57907 0.97007 0.0
O267 O 0.48151 0.54805 0.04828 0.0
O268 O 0.43064 0.51403 0.04325 0.0
O269 O 0.43064 0.52017 0.96729 0.0
O270 O 0.48325 0.55179 0.96591 0.0
O271 O 0.58602 0.57571 0.05159 0.0
O272 O 0.54765 0.53916 0.08385 0.0
C273 C 0.44986 0.54833 0.96128 0.0
O274 O 0.48312 0.47776 0.07803 0.0
O275 O 0.44506 0.44459 0.03927 0.0
O276 O 0.55092 0.47643 0.96011 0.0
O277 O 0.60226 0.50946 0.96857 0.0
C278 C 0.57458 0.572 0.93858 0.0
C279 C 0.57027 0.56661 0.08046 0.0
C280 C 0.58272 0.47727 0.04904 0.0
O281 O 0.60092 0.50623 0.04438 0.0
O282 O 0.54956 0.47273 0.04285 0.0
C283 C 0.44869 0.54185 0.0543 0.0
O284 O 0.44478 0.45015 0.95737 0.0
O285 O 0.48428 0.48559 0.92499 0.0
C286 C 0.45989 0.45118 0.07017 0.0
C287 C 0.46069 0.45889 0.92846 0.0
Fe288 Fe 0.03812 0.43593 0.50152 0.0
O289 O 0.0373 0.48676 0.50492 0.0
Fe290 Fe 0.01805 0.51145 0.45959 0.0
Fe291 Fe 1.01334 0.51123 0.54404 0.0
O292 O 0.03771 0.48675 0.50044 0.0
O293 O 0.99344 0.53551 0.49869 0.0
O294 O 0.99298 0.5355 0.50331 0.0
Fe295 Fe 0.99301 0.58646 0.50313 0.0
C296 C 0.97099 0.44182 0.5455 0.0
O297 O 0.07148 0.44546 0.54493 0.0
O298 O 0.04079 0.48066 0.58108 0.0
O299 O 0.03425 0.59644 0.46894 0.0
O300 O 0.06139 0.54813 0.46282 0.0
O301 O 0.04904 0.4805 0.42468 0.0
O302 O 0.07556 0.44506 0.46311 0.0
O303 O 0.05669 0.54782 0.548 0.0
O304 O 0.02858 0.59544 0.5452 0.0
C305 C 0.07243 0.45841 0.43235 0.0
O306 O 0.96085 0.57812 0.45883 0.0
O307 O 0.99173 0.5432 0.42261 0.0
O308 O 0.99786 0.42638 0.53694 0.0
O309 O 0.97012 0.47437 0.542 0.0
C310 C 0.06526 0.45922 0.57545 0.0
C311 C 0.05519 0.58 0.55456 0.0
C312 C 0.95859 0.56383 0.57141 0.0
O313 O 0.98264 0.54242 0.57909 0.0
O314 O 0.95483 0.5767 0.54052 0.0
C315 C 0.0609 0.58082 0.46003 0.0
O316 O 0.97489 0.47483 0.45416 0.0
O317 O 1.00119 0.42627 0.46077 0.0
C318 C 0.96829 0.5658 0.42806 0.0
C319 C 0.97542 0.44214 0.44971 0.0
Fe320 Fe 0.51257 0.97249 0.50445 0.0
O321 O 0.49187 1.00928 0.53283 0.0
Fe322 Fe 0.53499 0.0137 0.42645 0.0
Fe323 Fe 0.49372 1.01076 0.5848 0.0
O324 O 0.53549 0.01208 0.47776 0.0
O325 O 0.53667 0.01523 0.47833 0.0
O326 O 0.49318 0.01259 0.53347 0.0
Fe327 Fe 0.51692 0.05217 0.50727 0.0
C328 C 0.46142 0.93914 0.55991 0.0
O329 O 0.55635 0.97618 0.53711 0.0
O330 O 0.53013 0.97461 0.58894 0.0
O331 O 0.54442 0.08923 0.47576 0.0
O332 O 0.57174 0.0565 0.43452 0.0
O333 O 0.56851 0.97538 0.43257 0.0
O334 O 0.53875 0.93923 0.47221 0.0
O335 O 0.53456 0.05036 0.59202 0.0
O336 O 0.56103 0.05655 0.54032 0.0
C337 C 0.56366 0.94656 0.44961 0.0
O338 O 0.47314 0.05022 0.47498 0.0
O339 O 0.49768 0.04905 0.42214 0.0
O340 O 0.48552 0.93541 0.53642 0.0
O341 O 0.45676 0.96813 0.57656 0.0
C342 C 0.55558 0.96798 0.5692 0.0
C343 C 0.56103 0.06131 0.57364 0.0
C344 C 0.46657 0.07867 0.56223 0.0
O345 O 0.46084 0.0497 0.57891 0.0
O346 O 0.49188 0.08568 0.54003 0.0
C347 C 0.568 0.08532 0.45184 0.0
O348 O 0.49473 0.97366 0.41937 0.0
O349 O 0.46855 0.96666 0.47116 0.0
C350 C 0.47291 0.05656 0.4424 0.0
C351 C 0.4685 0.96223 0.43779 0.0
H352 H 0.21732 0.21787 0.32788 0.0
H353 H 0.17814 0.14445 0.24513 0.0
H354 H 0.18537 0.18228 0.3712 0.0
H355 H 0.14607 0.10826 0.28922 0.0
H356 H 0.12131 0.04491 0.39737 0.0
H357 H 0.15809 0.07322 0.3512 0.0
H358 H 0.11607 0.17041 0.37576 0.0
H359 H 0.07949 0.14271 0.42081 0.0
C360 C 0.20219 0.19387 0.31893 0.0
C361 C 0.19995 0.18421 0.28293 0.0
C362 C 0.18389 0.17346 0.34384 0.0
C363 C 0.16305 0.1426 0.33361 0.0
C364 C 0.16208 0.13186 0.29785 0.0
C365 C 0.18025 0.15263 0.27265 0.0
C366 C 0.11994 0.07228 0.39279 0.0
C367 C 0.09733 0.09143 0.41287 0.0
C368 C 0.14082 0.08839 0.36627 0.0
C369 C 0.14002 0.12407 0.36001 0.0
C370 C 0.11745 0.14298 0.38009 0.0
C371 C 0.09632 0.12693 0.40589 0.0
H372 H 0.88143 0.20691 0.35218 0.0
H373 H 0.79463 0.12704 0.33191 0.0
H374 H 0.89862 0.17685 0.40427 0.0
H375 H 0.81107 0.09736 0.38485 0.0
H376 H 0.89627 0.03868 0.44748 0.0
H377 H 0.85919 0.0654 0.40503 0.0
H378 H 0.87857 0.16352 0.46299 0.0
H379 H 0.9172 0.13693 0.50421 0.0
C380 C 0.86617 0.18283 0.35889 0.0
C381 C 0.83699 0.16908 0.33812 0.0
C382 C 0.87549 0.16596 0.38905 0.0
C383 C 0.85555 0.13521 0.3991 0.0
C384 C 0.82673 0.12109 0.37782 0.0
C385 C 0.81755 0.13791 0.34746 0.0
C386 C 0.89102 0.06548 0.45201 0.0
C387 C 0.90956 0.0861 0.47851 0.0
C388 C 0.86995 0.08085 0.42767 0.0
C389 C 0.86713 0.11681 0.43013 0.0
C390 C 0.88133 0.13598 0.45995 0.0
C391 C 0.90294 0.12078 0.48378 0.0
H392 H 0.83095 0.80248 0.33973 0.0
H393 H 0.83849 0.8878 0.26819 0.0
H394 H 0.85862 0.84015 0.38613 0.0
H395 H 0.86504 0.92677 0.31577 0.0
H396 H 0.95333 0.96915 0.39861 0.0
H397 H 0.91805 0.93943 0.35011 0.0
H398 H 0.85049 0.88486 0.42574 0.0
H399 H 0.88743 0.91273 0.47365 0.0
C400 C 0.83806 0.82961 0.33411 0.0
C401 C 0.83262 0.84225 0.30037 0.0
C402 C 0.85365 0.85143 0.36094 0.0
C403 C 0.86372 0.88679 0.35503 0.0
C404 C 0.85786 0.89964 0.32123 0.0
C405 C 0.84256 0.87746 0.29403 0.0
C406 C 0.9305 0.9512 0.40458 0.0
C407 C 0.9231 0.94279 0.43958 0.0
C408 C 0.9102 0.93424 0.37689 0.0
C409 C 0.88178 0.90913 0.3839 0.0
C410 C 0.87288 0.90309 0.41923 0.0
C411 C 0.89373 0.91926 0.44673 0.0
H412 H 0.19446 0.89462 0.32054 0.0
H413 H 0.10978 0.82738 0.26933 0.0
H414 H 0.15096 0.92931 0.34678 0.0
H415 H 0.06613 0.86238 0.29519 0.0
H416 H 0.07149 0.99216 0.3875 0.0
H417 H 0.10296 0.96788 0.33868 0.0
H418 H 0.04932 0.86615 0.35733 0.0
H419 H 0.01772 0.89037 0.40567 0.0
C420 C 0.16655 0.88773 0.31439 0.0
C421 C 0.15532 0.85811 0.29351 0.0
C422 C 0.14165 0.9078 0.32903 0.0
C423 C 0.10512 0.89849 0.32303 0.0
C424 C 0.09409 0.86998 0.30041 0.0
C425 C 0.11902 0.84995 0.28573 0.0
C426 C 0.06544 0.96488 0.3803 0.0
C427 C 0.04288 0.9429 0.40089 0.0
C428 C 0.08363 0.95097 0.35251 0.0
C429 C 0.07916 0.91504 0.34476 0.0
C430 C 0.05336 0.89395 0.36266 0.0
C431 C 0.0354 0.90777 0.39053 0.0
H432 H 0.15058 0.81597 0.65228 0.0
H433 H 0.24216 0.89137 0.66785 0.0
H434 H 0.13322 0.84622 0.60035 0.0
H435 H 0.22523 0.92139 0.61522 0.0
H436 H 0.13849 0.98361 0.55742 0.0
H437 H 0.17665 0.95573 0.59803 0.0
H438 H 0.1524 0.85809 0.54024 0.0
H439 H 0.11301 0.88587 0.50076 0.0
C440 C 0.16689 0.83908 0.64455 0.0
C441 C 0.19744 0.85157 0.66399 0.0
C442 C 0.1574 0.85604 0.61451 0.0
C443 C 0.17842 0.88568 0.60332 0.0
C444 C 0.20875 0.89848 0.62316 0.0
C445 C 0.21822 0.88149 0.65331 0.0
C446 C 0.1429 0.95665 0.55246 0.0
C447 C 0.12286 0.93653 0.52658 0.0
C448 C 0.16459 0.94064 0.57572 0.0
C449 C 0.16641 0.90454 0.57284 0.0
C450 C 0.15054 0.88578 0.54352 0.0
C451 C 0.12843 0.90164 0.52072 0.0
H452 H 0.19272 0.13668 0.73925 0.0
H453 H 0.20102 0.2216 0.66724 0.0
H454 H 0.16678 0.09743 0.69164 0.0
H455 H 0.17394 0.18361 0.62075 0.0
H456 H 0.14555 0.1106 0.53346 0.0
H457 H 0.18221 0.13867 0.58147 0.0
H458 H 0.11411 0.08452 0.65692 0.0
H459 H 0.07911 0.05461 0.60835 0.0
C460 C 0.18896 0.14687 0.71329 0.0
C461 C 0.19891 0.18206 0.70686 0.0
C462 C 0.17399 0.12452 0.68607 0.0
C463 C 0.16849 0.13715 0.65211 0.0
C464 C 0.17863 0.17248 0.64608 0.0
C465 C 0.19388 0.19449 0.67295 0.0
C466 C 0.13911 0.10416 0.56036 0.0
C467 C 0.10967 0.08068 0.56744 0.0
C468 C 0.1598 0.12047 0.58793 0.0
C469 C 0.15065 0.11463 0.62323 0.0
C470 C 0.12217 0.08955 0.63018 0.0
C471 C 0.10203 0.07247 0.60243 0.0
H472 H 0.92141 0.19396 0.73897 0.0
H473 H 0.83669 0.12927 0.6848 0.0
H474 H 0.96486 0.15865 0.71323 0.0
H475 H 0.88002 0.09423 0.65875 0.0
H476 H 0.95912 0.03066 0.61856 0.0
H477 H 0.92736 0.05457 0.66739 0.0
H478 H 0.98239 0.15614 0.65091 0.0
H479 H 1.01427 0.13231 0.60252 0.0
C480 C 0.9121 0.17186 0.72195 0.0
C481 C 0.87589 0.16454 0.71329 0.0
C482 C 0.93691 0.15166 0.70736 0.0
C483 C 0.92583 0.12378 0.68398 0.0
C484 C 0.88933 0.11524 0.6771 0.0
C485 C 0.86454 0.13551 0.69163 0.0
C486 C 0.96543 0.0578 0.62627 0.0
C487 C 0.98848 0.07991 0.60627 0.0
C488 C 0.94708 0.07148 0.65405 0.0
C489 C 0.95188 0.10729 0.66239 0.0
C490 C 0.97812 0.12843 0.6451 0.0
C491 C 0.99623 0.11484 0.61721 0.0
H492 H 0.86408 0.86813 0.76187 0.0
H493 H 0.80674 0.81279 0.6749 0.0
H494 H 0.89776 0.9053 0.72009 0.0
H495 H 0.83929 0.85073 0.63347 0.0
H496 H 0.88567 0.94702 0.57247 0.0
H497 H 0.84886 0.91757 0.61755 0.0
H498 H 0.94318 0.89041 0.6711 0.0
H499 H 0.97983 0.91894 0.62578 0.0
C500 C 0.85824 0.86427 0.73393 0.0
C501 C 0.83256 0.83763 0.72174 0.0
C502 C 0.87754 0.8855 0.71004 0.0
C503 C 0.87101 0.88105 0.67351 0.0
C504 C 0.84459 0.8551 0.66145 0.0
C505 C 0.82593 0.83338 0.68523 0.0
C506 C 0.89853 0.93518 0.59415 0.0
C507 C 0.93566 0.9352 0.59548 0.0
C508 C 0.87746 0.91819 0.61982 0.0
C509 C 0.89315 0.90167 0.64784 0.0
C510 C 0.93034 0.90308 0.64998 0.0
C511 C 0.9513 0.91929 0.62393 0.0
H512 H 0.3511 0.16385 0.22266 0.0
H513 H 0.30581 0.20487 0.12955 0.0
H514 H 0.38906 0.1307 0.18553 0.0
H515 H 0.34359 0.17215 0.09273 0.0
H516 H 0.44313 0.14213 0.03733 0.0
H517 H 0.40474 0.17165 0.07604 0.0
H518 H 0.39238 0.08172 0.14116 0.0
H519 H 0.43112 0.05164 0.10175 0.0
C520 C 0.34899 0.16582 0.19432 0.0
C521 C 0.32495 0.18744 0.17954 0.0
C522 C 0.37083 0.14653 0.17284 0.0
C523 C 0.37004 0.1485 0.13566 0.0
C524 C 0.34576 0.16994 0.12104 0.0
C525 C 0.32367 0.18874 0.14239 0.0
C526 C 0.43244 0.12831 0.05984 0.0
C527 C 0.44078 0.09408 0.0659 0.0
C528 C 0.40992 0.14542 0.08218 0.0
C529 C 0.39475 0.12944 0.11212 0.0
C530 C 0.40341 0.09532 0.11867 0.0
C531 C 0.4257 0.07786 0.09585 0.0
H532 H 0.80411 0.2974 0.13724 0.0
H533 H 0.88796 0.28421 0.21286 0.0
H534 H 0.84683 0.33052 0.10031 0.0
H535 H 0.93044 0.31798 0.17618 0.0
H536 H 0.93877 0.37465 0.03326 0.0
H537 H 0.90734 0.3269 0.06531 0.0
H538 H 0.92883 0.38518 0.16317 0.0
H539 H 0.95926 0.43311 0.13115 0.0
C540 C 0.83177 0.30095 0.14559 0.0
C541 C 0.84266 0.28836 0.178 0.0
C542 C 0.85623 0.31973 0.12438 0.0
C543 C 0.89185 0.32681 0.13551 0.0
C544 C 0.9031 0.31281 0.16706 0.0
C545 C 0.8788 0.2934 0.18793 0.0
C546 C 0.9376 0.37674 0.06172 0.0
C547 C 0.95137 0.40746 0.07984 0.0
C548 C 0.91948 0.34959 0.07996 0.0
C549 C 0.91572 0.35245 0.11664 0.0
C550 C 0.93165 0.3822 0.13494 0.0
C551 C 0.94895 0.40963 0.11666 0.0
H552 H 0.74173 0.83617 0.15004 0.0
H553 H 0.67548 0.85 0.23949 0.0
H554 H 0.70629 0.87204 0.115 0.0
H555 H 0.63994 0.88663 0.20427 0.0
H556 H 0.55908 0.9136 0.11847 0.0
H557 H 0.59717 0.8842 0.15727 0.0
H558 H 0.68907 0.92842 0.10245 0.0
H559 H 0.65041 0.95774 0.06282 0.0
C560 C 0.7197 0.84704 0.16253 0.0
C561 C 0.71169 0.83969 0.19796 0.0
C562 C 0.69935 0.86808 0.14224 0.0
C563 C 0.66985 0.88267 0.15631 0.0
C564 C 0.66206 0.87576 0.19198 0.0
C565 C 0.68267 0.85478 0.21244 0.0
C566 C 0.58744 0.91749 0.11462 0.0
C567 C 0.60129 0.93825 0.08696 0.0
C568 C 0.60953 0.90059 0.13733 0.0
C569 C 0.64661 0.9034 0.13341 0.0
C570 C 0.66071 0.92496 0.10634 0.0
C571 C 0.63849 0.94221 0.08365 0.0
H572 H 0.18787 0.75026 0.13919 0.0
H573 H 0.20258 0.67302 0.21675 0.0
H574 H 0.16149 0.70452 0.09807 0.0
H575 H 0.17551 0.62736 0.17587 0.0
H576 H 0.07939 0.57122 0.10693 0.0
H577 H 0.11162 0.61353 0.14803 0.0
H578 H 0.18064 0.64977 0.06464 0.0
H579 H 0.14892 0.60716 0.02363 0.0
C580 C 0.18558 0.72349 0.14736 0.0
C581 C 0.19717 0.71519 0.18115 0.0
C582 C 0.17062 0.69733 0.12381 0.0
C583 C 0.16637 0.6624 0.13382 0.0
C584 C 0.17827 0.65408 0.16755 0.0
C585 C 0.19387 0.68017 0.19085 0.0
C586 C 0.10173 0.5879 0.09747 0.0
C587 C 0.11163 0.58572 0.06201 0.0
C588 C 0.12022 0.61204 0.12103 0.0
C589 C 0.14855 0.63501 0.10948 0.0
C590 C 0.15879 0.63251 0.0742 0.0
C591 C 0.14077 0.60793 0.05081 0.0
H592 H 0.27947 0.86976 0.83327 0.0
H593 H 0.35673 0.80637 0.79035 0.0
H594 H 0.32647 0.90407 0.86767 0.0
H595 H 0.40377 0.84097 0.82408 0.0
H596 H 0.42204 0.97686 0.90466 0.0
H597 H 0.37953 0.94603 0.86242 0.0
H598 H 0.4225 0.84945 0.88505 0.0
H599 H 0.46504 0.88014 0.92643 0.0
C600 C 0.30651 0.86322 0.83117 0.0
C601 C 0.31444 0.83533 0.80929 0.0
C602 C 0.33349 0.88311 0.85053 0.0
C603 C 0.36894 0.87542 0.84847 0.0
C604 C 0.37675 0.84745 0.8265 0.0
C605 C 0.3498 0.82763 0.80716 0.0
C606 C 0.42297 0.94922 0.89984 0.0
C607 C 0.44677 0.9309 0.91898 0.0
C608 C 0.39833 0.93148 0.87602 0.0
C609 C 0.39732 0.89519 0.87067 0.0
C610 C 0.4226 0.87738 0.88831 0.0
C611 C 0.44695 0.89499 0.91217 0.0
H612 H 0.12505 0.25456 0.84586 0.0
H613 H 0.21261 0.32514 0.88744 0.0
H614 H 0.08307 0.29215 0.87108 0.0
H615 H 0.17072 0.36237 0.91246 0.0
H616 H 0.09786 0.44281 0.88449 0.0
H617 H 0.1278 0.39344 0.86437 0.0
H618 H 0.06747 0.32696 0.93591 0.0
H619 H 0.03715 0.37623 0.95651 0.0
C620 C 0.13523 0.27733 0.86153 0.0
C621 C 0.17186 0.28762 0.86418 0.0
C622 C 0.11128 0.29874 0.87574 0.0
C623 C 0.12407 0.33027 0.89257 0.0
C624 C 0.1606 0.33831 0.89883 0.0
C625 C 0.18444 0.31699 0.88477 0.0
C626 C 0.09022 0.4176 0.89542 0.0
C627 C 0.06598 0.41371 0.92289 0.0
C628 C 0.10746 0.38947 0.88399 0.0
C629 C 0.10043 0.35711 0.8996 0.0
C630 C 0.07341 0.35202 0.92405 0.0
C631 C 0.05615 0.38024 0.93566 0.0
H632 H 0.70751 0.23007 0.86104 0.0
H633 H 0.75801 0.1439 0.81671 0.0
H634 H 0.67879 0.19171 0.90408 0.0
H635 H 0.72944 0.1056 0.86016 0.0
H636 H 0.62269 0.04886 0.90406 0.0
H637 H 0.66686 0.08204 0.86871 0.0
H638 H 0.68926 0.15603 0.95554 0.0
H639 H 0.64466 0.1228 0.99052 0.0
C640 C 0.7128 0.20305 0.8607 0.0
C641 C 0.73477 0.19 0.83522 0.0
C642 C 0.69662 0.18112 0.88562 0.0
C643 C 0.70196 0.14564 0.88555 0.0
C644 C 0.72471 0.13278 0.86071 0.0
C645 C 0.74108 0.15477 0.83588 0.0
C646 C 0.63816 0.07147 0.91587 0.0
C647 C 0.63086 0.08331 0.94986 0.0
C648 C 0.66335 0.09051 0.89573 0.0
C649 C 0.68121 0.12186 0.90926 0.0
C650 C 0.67558 0.1322 0.94432 0.0
C651 C 0.65046 0.11308 0.96445 0.0
H652 H 0.78964 0.6628 0.86116 0.0
H653 H 0.88208 0.73781 0.87129 0.0
H654 H 0.82099 0.62063 0.89224 0.0
H655 H 0.91348 0.69563 0.90345 0.0
H656 H 0.96982 0.59766 0.92245 0.0
H657 H 0.93827 0.63989 0.89093 0.0
H658 H 0.84411 0.61019 0.95004 0.0
H659 H 0.87498 0.56757 0.98066 0.0
C660 C 0.81653 0.67044 0.87064 0.0
C661 C 0.8335 0.7035 0.86396 0.0
C662 C 0.83447 0.64629 0.88846 0.0
C663 C 0.86976 0.65475 0.90011 0.0
C664 C 0.88646 0.68824 0.89427 0.0
C665 C 0.86842 0.71249 0.87633 0.0
C666 C 0.94222 0.59977 0.92827 0.0
C667 C 0.92492 0.57922 0.95404 0.0
C668 C 0.92432 0.62427 0.91057 0.0
C669 C 0.88883 0.62853 0.91826 0.0
C670 C 0.87135 0.60734 0.94333 0.0
C671 C 0.88914 0.58293 0.96094 0.0
H672 H 0.23052 0.32692 0.10596 0.0
H673 H 0.13705 0.30124 0.16702 0.0
H674 H 0.19998 0.36946 0.07412 0.0
H675 H 0.10729 0.34551 0.13762 0.0
H676 H 0.0516 0.40902 0.06034 0.0
H677 H 0.08022 0.36321 0.08822 0.0
H678 H 0.18202 0.42427 0.08041 0.0
H679 H 0.15321 0.46883 0.04981 0.0
C680 C 0.2033 0.33034 0.11231 0.0
C681 C 0.18593 0.31079 0.13859 0.0
C682 C 0.18593 0.3551 0.09456 0.0
C683 C 0.15121 0.36151 0.10354 0.0
C684 C 0.13371 0.3411 0.1294 0.0
C685 C 0.15075 0.31568 0.14638 0.0
C686 C 0.08007 0.41274 0.06502 0.0
C687 C 0.10028 0.44245 0.05321 0.0
C688 C 0.09656 0.38647 0.08108 0.0
C689 C 0.1336 0.38973 0.0866 0.0
C690 C 0.1536 0.42024 0.07582 0.0
C691 C 0.13714 0.44608 0.05877 0.0
H692 H 0.13951 0.73578 0.78998 0.0
H693 H 0.22101 0.72953 0.86994 0.0
H694 H 0.09661 0.70252 0.82676 0.0
H695 H 0.17797 0.69696 0.90686 0.0
H696 H 0.07053 0.58905 0.87609 0.0
H697 H 0.09964 0.63692 0.8431 0.0
H698 H 0.11681 0.69869 0.93937 0.0
H699 H 0.08678 0.65089 0.9724 0.0
C700 C 0.14798 0.72829 0.81585 0.0
C701 C 0.18365 0.73503 0.82703 0.0
C702 C 0.12347 0.70916 0.83678 0.0
C703 C 0.13404 0.69716 0.86956 0.0
C704 C 0.16905 0.70617 0.88184 0.0
C705 C 0.19371 0.72464 0.86063 0.0
C706 C 0.07963 0.61322 0.89002 0.0
C707 C 0.07648 0.61633 0.92672 0.0
C708 C 0.09613 0.64065 0.87115 0.0
C709 C 0.1105 0.67143 0.88874 0.0
C710 C 0.10588 0.6752 0.92524 0.0
C711 C 0.08858 0.64799 0.94404 0.0
H712 H 0.29002 0.1895 0.8581 0.0
H713 H 0.35359 0.17404 0.76701 0.0
H714 H 0.32564 0.15307 0.89233 0.0
H715 H 0.3892 0.13683 0.80134 0.0
H716 H 0.47146 0.10792 0.88446 0.0
H717 H 0.43305 0.13823 0.84688 0.0
H718 H 0.34213 0.09651 0.90472 0.0
H719 H 0.38116 0.06635 0.94317 0.0
C720 C 0.31149 0.17816 0.84509 0.0
C721 C 0.3187 0.18521 0.80944 0.0
C722 C 0.33193 0.1568 0.86491 0.0
C723 C 0.36071 0.14156 0.85008 0.0
C724 C 0.3677 0.14821 0.81422 0.0
C725 C 0.34704 0.16953 0.79426 0.0
C726 C 0.44323 0.10476 0.88923 0.0
C727 C 0.42979 0.08445 0.91737 0.0
C728 C 0.42095 0.12219 0.86723 0.0
C729 C 0.38407 0.12036 0.87235 0.0
C730 C 0.37034 0.09923 0.89991 0.0
C731 C 0.39276 0.08148 0.9219 0.0
H732 H 0.8457 0.2741 0.86652 0.0
H733 H 0.82815 0.35131 0.78974 0.0
H734 H 0.8702 0.32014 0.9082 0.0
H735 H 0.85332 0.39733 0.83123 0.0
H736 H 0.94828 0.45533 0.90046 0.0
H737 H 0.91678 0.41298 0.85898 0.0
H738 H 0.84944 0.37358 0.9424 0.0
H739 H 0.8805 0.41625 0.98385 0.0
C740 C 0.84697 0.30092 0.85864 0.0
C741 C 0.83519 0.30913 0.82488 0.0
C742 C 0.86081 0.32726 0.88253 0.0
C743 C 0.86373 0.36231 0.87292 0.0
C744 C 0.85157 0.37054 0.83925 0.0
C745 C 0.8371 0.34423 0.81559 0.0
C746 C 0.92643 0.43797 0.90985 0.0
C747 C 0.91686 0.43924 0.94545 0.0
C748 C 0.90833 0.41381 0.88607 0.0
C749 C 0.88074 0.38992 0.8975 0.0
C750 C 0.87072 0.39157 0.93292 0.0
C751 C 0.88835 0.41619 0.95656 0.0
H752 H 0.74326 0.85048 0.86164 0.0
H753 H 0.65664 0.82645 0.78707 0.0
H754 H 0.70533 0.88409 0.89831 0.0
H755 H 0.6183 0.85882 0.82454 0.0
H756 H 0.55448 0.88121 0.93017 0.0
H757 H 0.59224 0.85159 0.88979 0.0
H758 H 0.66948 0.94142 0.8943 0.0
H759 H 0.63088 0.97176 0.93361 0.0
C760 C 0.71616 0.85234 0.85289 0.0
C761 C 0.70346 0.83561 0.82091 0.0
C762 C 0.6943 0.8718 0.87404 0.0
C763 C 0.6584 0.87444 0.86474 0.0
C764 C 0.64562 0.85755 0.83287 0.0
C765 C 0.66781 0.83901 0.81116 0.0
C766 C 0.5793 0.89497 0.9223 0.0
C767 C 0.58917 0.92924 0.93536 0.0
C768 C 0.60107 0.87786 0.89896 0.0
C769 C 0.6343 0.89378 0.88852 0.0
C770 C 0.64429 0.92804 0.90163 0.0
C771 C 0.62193 0.94562 0.92412 0.0
H772 H 0.81648 0.69993 0.11963 0.0
H773 H 0.90447 0.76991 0.16133 0.0
H774 H 0.85809 0.66244 0.09455 0.0
H775 H 0.94615 0.73205 0.13612 0.0
H776 H 0.99291 0.64794 0.05246 0.0
H777 H 0.96251 0.69734 0.07254 0.0
H778 H 0.8999 0.63075 0.14228 0.0
H779 H 0.92985 0.58126 0.12263 0.0
C780 C 0.84468 0.7079 0.12229 0.0
C781 C 0.85747 0.73713 0.143 0.0
C782 C 0.86837 0.68643 0.10821 0.0
C783 C 0.90492 0.69419 0.11458 0.0
C784 C 0.91792 0.72566 0.1314 0.0
C785 C 0.89413 0.74721 0.14561 0.0
C786 C 0.97334 0.64392 0.07279 0.0
C787 C 0.96287 0.6104 0.08512 0.0
C788 C 0.95603 0.67221 0.0841 0.0
C789 C 0.92834 0.66712 0.10781 0.0
C790 C 0.9207 0.63469 0.12313 0.0
C791 C 0.93798 0.6065 0.11201 0.0
H792 H 0.27636 0.88129 0.19207 0.0
H793 H 0.32425 0.79429 0.14602 0.0
H794 H 0.30493 0.91944 0.14842 0.0
H795 H 0.3529 0.83246 0.10277 0.0
H796 H 0.38555 0.90117 0.01561 0.0
H797 H 0.34144 0.86863 0.0517 0.0
H798 H 0.36794 0.94179 0.13847 0.0
H799 H 0.41168 0.97429 0.10206 0.0
C800 C 0.29271 0.87023 0.17249 0.0
C801 C 0.29826 0.83479 0.17268 0.0
C802 C 0.30908 0.89212 0.14756 0.0
C803 C 0.33102 0.87893 0.12213 0.0
C804 C 0.33568 0.8433 0.12169 0.0
C805 C 0.31955 0.82149 0.14673 0.0
C806 C 0.38078 0.91089 0.04195 0.0
C807 C 0.40139 0.94022 0.05618 0.0
C808 C 0.35593 0.89215 0.0627 0.0
C809 C 0.35158 0.90244 0.09802 0.0
C810 C 0.37048 0.93339 0.11128 0.0
C811 C 0.39542 0.95203 0.09053 0.0
H812 H 0.67189 0.21435 0.2165 0.0
H813 H 0.74911 0.152 0.17178 0.0
H814 H 0.62478 0.18041 0.18205 0.0
H815 H 0.70208 0.11823 0.13703 0.0
H816 H 0.60666 0.04544 0.10019 0.0
H817 H 0.64868 0.07599 0.14303 0.0
H818 H 0.60673 0.17291 0.11987 0.0
H819 H 0.56474 0.14253 0.07763 0.0
C820 C 0.67879 0.19345 0.1992 0.0
C821 C 0.71416 0.18586 0.19671 0.0
C822 C 0.65182 0.174 0.17949 0.0
C823 C 0.65964 0.14646 0.15697 0.0
C824 C 0.69508 0.13887 0.15459 0.0
C825 C 0.72207 0.15844 0.17418 0.0
C826 C 0.60583 0.0731 0.10498 0.0
C827 C 0.58251 0.09161 0.08542 0.0
C828 C 0.63017 0.09066 0.12917 0.0
C829 C 0.63133 0.12695 0.13453 0.0
C830 C 0.60647 0.14497 0.11653 0.0
C831 C 0.58245 0.12754 0.09221 0.0
H832 H 0.70938 0.72863 0.83486 0.0
H833 H 0.67424 0.65927 0.74742 0.0
H834 H 0.67213 0.69317 0.87414 0.0
H835 H 0.6374 0.62266 0.78733 0.0
H836 H 0.55128 0.5845 0.8704 0.0
H837 H 0.58436 0.61962 0.82612 0.0
H838 H 0.6737 0.63753 0.89891 0.0
H839 H 0.64126 0.60413 0.94237 0.0
C840 C 0.69393 0.70552 0.82408 0.0
C841 C 0.695 0.69656 0.78812 0.0
C842 C 0.67254 0.68509 0.84663 0.0
C843 C 0.65193 0.65479 0.834 0.0
C844 C 0.6527 0.64593 0.79787 0.0
C845 C 0.67406 0.66666 0.77512 0.0
C846 C 0.57791 0.59615 0.87677 0.0
C847 C 0.59313 0.59216 0.91031 0.0
C848 C 0.59692 0.61608 0.85143 0.0
C849 C 0.63147 0.63205 0.85925 0.0
C850 C 0.64682 0.62674 0.89228 0.0
C851 C 0.628 0.60738 0.91733 0.0
H852 H 0.32456 0.70878 0.88212 0.0
H853 H 0.38069 0.66635 0.79562 0.0
H854 H 0.3556 0.674 0.92339 0.0
H855 H 0.41213 0.63223 0.83692 0.0
H856 H 0.48347 0.60166 0.92556 0.0
H857 H 0.45623 0.6454 0.8924 0.0
H858 H 0.35275 0.60387 0.92642 0.0
H859 H 0.37981 0.55954 0.95957 0.0
C860 C 0.34393 0.69243 0.87211 0.0
C861 C 0.35033 0.68992 0.83589 0.0
C862 C 0.36148 0.6726 0.8956 0.0
C863 C 0.38607 0.65073 0.88309 0.0
C864 C 0.3934 0.64925 0.84702 0.0
C865 C 0.37541 0.66855 0.8235 0.0
C866 C 0.45495 0.60212 0.92649 0.0
C867 C 0.43362 0.57697 0.94482 0.0
C868 C 0.43949 0.62709 0.90749 0.0
C869 C 0.40261 0.62766 0.90698 0.0
C870 C 0.38136 0.60384 0.92676 0.0
C871 C 0.39676 0.57845 0.94541 0.0
H872 H 0.31257 0.30551 0.83533 0.0
H873 H 0.33944 0.36762 0.74488 0.0
H874 H 0.35607 0.34258 0.87112 0.0
H875 H 0.38385 0.40382 0.78014 0.0
H876 H 0.43191 0.48194 0.86851 0.0
H877 H 0.3925 0.44648 0.82696 0.0
H878 H 0.41895 0.35349 0.87803 0.0
H879 H 0.45698 0.3892 0.92016 0.0
C880 C 0.32769 0.32717 0.82318 0.0
C881 C 0.32278 0.33357 0.78735 0.0
C882 C 0.35296 0.34816 0.8435 0.0
C883 C 0.37402 0.37581 0.82831 0.0
C884 C 0.36812 0.38285 0.79271 0.0
C885 C 0.34267 0.36204 0.7725 0.0
C886 C 0.4302 0.45385 0.86986 0.0
C887 C 0.44743 0.43814 0.89724 0.0
C888 C 0.40742 0.4335 0.84631 0.0
C889 C 0.40184 0.39716 0.84975 0.0
C890 C 0.42173 0.38145 0.87533 0.0
C891 C 0.44402 0.40177 0.89904 0.0
H892 H 0.73384 0.35338 0.8636 0.0
H893 H 0.65125 0.3534 0.78363 0.0
H894 H 0.70085 0.38833 0.90268 0.0
H895 H 0.61826 0.38946 0.82276 0.0
H896 H 0.55508 0.42445 0.91824 0.0
H897 H 0.58591 0.38663 0.87935 0.0
H898 H 0.68539 0.4475 0.90546 0.0
H899 H 0.65513 0.48454 0.94468 0.0
C900 C 0.70868 0.36115 0.8543 0.0
C901 C 0.6951 0.35095 0.82059 0.0
C902 C 0.68984 0.38125 0.87665 0.0
C903 C 0.65707 0.39175 0.86571 0.0
C904 C 0.64333 0.38143 0.83196 0.0
C905 C 0.66227 0.36114 0.8095 0.0
C906 C 0.58357 0.42949 0.91593 0.0
C907 C 0.60264 0.45746 0.93465 0.0
C908 C 0.60114 0.40806 0.89341 0.0
C909 C 0.63802 0.41416 0.88937 0.0
C910 C 0.65702 0.44187 0.90837 0.0
C911 C 0.63957 0.46319 0.93078 0.0
H912 H 0.68214 0.3819 0.21509 0.0
H913 H 0.66475 0.29492 0.14078 0.0
H914 H 0.65366 0.41833 0.17404 0.0
H915 H 0.63588 0.33164 0.09959 0.0
H916 H 0.55358 0.41132 0.06233 0.0
H917 H 0.57954 0.36879 0.09873 0.0
H918 H 0.67568 0.43841 0.11176 0.0
H919 H 0.65024 0.48089 0.07555 0.0
C920 C 0.6718 0.37052 0.19014 0.0
C921 C 0.67579 0.33588 0.18076 0.0
C922 C 0.65576 0.39134 0.16668 0.0
C923 C 0.64326 0.37769 0.1337 0.0
C924 C 0.64554 0.34254 0.12495 0.0
C925 C 0.66197 0.32171 0.14838 0.0
C926 C 0.58044 0.41735 0.07255 0.0
C927 C 0.59969 0.44966 0.06659 0.0
C928 C 0.59521 0.393 0.0932 0.0
C929 C 0.62919 0.40086 0.10825 0.0
C930 C 0.64914 0.43223 0.10073 0.0
C931 C 0.63459 0.45639 0.07993 0.0
H932 H 0.68875 0.65909 0.26512 0.0
H933 H 0.71767 0.71931 0.1739 0.0
H934 H 0.64442 0.62276 0.22981 0.0
H935 H 0.67423 0.68218 0.13816 0.0
H936 H 0.57375 0.6363 0.08845 0.0
H937 H 0.61105 0.67215 0.13106 0.0
H938 H 0.6366 0.57937 0.1831 0.0
H939 H 0.59796 0.54374 0.14102 0.0
C940 C 0.68596 0.66422 0.23735 0.0
C941 C 0.7064 0.69219 0.22224 0.0
C942 C 0.66057 0.64336 0.21714 0.0
C943 C 0.65529 0.64992 0.18133 0.0
C944 C 0.67688 0.67705 0.16594 0.0
C945 C 0.7021 0.69806 0.18623 0.0
C946 C 0.58635 0.6238 0.10986 0.0
C947 C 0.583 0.58745 0.11176 0.0
C948 C 0.60819 0.64419 0.13386 0.0
C949 C 0.62764 0.62856 0.15982 0.0
C950 C 0.622 0.59225 0.16341 0.0
C951 C 0.59968 0.57182 0.13956 0.0
H952 H 0.33677 0.70483 0.1415 0.0
H953 H 0.35435 0.64283 0.23199 0.0
H954 H 0.37107 0.6678 0.10535 0.0
H955 H 0.38813 0.60503 0.1953 0.0
H956 H 0.3934 0.52546 0.09736 0.0
H957 H 0.36597 0.56434 0.13793 0.0
H958 H 0.43851 0.65054 0.10577 0.0
H959 H 0.46665 0.6115 0.0655 0.0
C960 C 0.3481 0.68328 0.15362 0.0
C961 C 0.34293 0.67644 0.18938 0.0
C962 C 0.36784 0.66233 0.13302 0.0
C963 C 0.38213 0.63379 0.1477 0.0
C964 C 0.37724 0.627 0.18356 0.0
C965 C 0.35807 0.64851 0.20444 0.0
C966 C 0.40347 0.55272 0.0989 0.0
C967 C 0.4319 0.56563 0.0781 0.0
C968 C 0.38804 0.57478 0.12236 0.0
C969 C 0.40036 0.6102 0.12492 0.0
C970 C 0.42872 0.62321 0.10415 0.0
C971 C 0.44469 0.60098 0.08118 0.0
H972 H 0.36406 0.35534 0.25837 0.0
H973 H 0.31082 0.30395 0.16702 0.0
H974 H 0.40376 0.39027 0.22013 0.0
H975 H 0.34896 0.33994 0.12876 0.0
H976 H 0.44088 0.38158 0.06629 0.0
H977 H 0.40709 0.34639 0.10868 0.0
H978 H 0.40957 0.43592 0.17972 0.0
H979 H 0.44498 0.47064 0.13763 0.0
C980 C 0.36047 0.35192 0.23008 0.0
C981 C 0.33431 0.32687 0.21569 0.0
C982 C 0.38318 0.37204 0.20811 0.0
C983 C 0.38004 0.36778 0.1712 0.0
C984 C 0.35298 0.34342 0.15698 0.0
C985 C 0.33064 0.32307 0.17892 0.0
C986 C 0.43483 0.3935 0.09132 0.0
C987 C 0.44559 0.42881 0.09869 0.0
C988 C 0.415 0.37347 0.11548 0.0
C989 C 0.40469 0.38839 0.14742 0.0
C990 C 0.41705 0.42338 0.15554 0.0
C991 C 0.43748 0.44333 0.13149 0.0
H992 H 0.80427 0.70087 0.64423 0.0
H993 H 0.85255 0.67613 0.74285 0.0
H994 H 0.84063 0.66181 0.61309 0.0
H995 H 0.88851 0.6365 0.71188 0.0
H996 H 0.97421 0.5924 0.6391 0.0
H997 H 0.93703 0.62805 0.67454 0.0
H998 H 0.8508 0.60472 0.59907 0.0
H999 H 0.88799 0.57013 0.56391 0.0
C1000 C 0.8224 0.68696 0.65947 0.0
C1001 C 0.82491 0.69206 0.69639 0.0
C1002 C 0.84339 0.66409 0.64149 0.0
C1003 C 0.86797 0.64516 0.65953 0.0
C1004 C 0.87051 0.65042 0.69651 0.0
C1005 C 0.84945 0.67324 0.71449 0.0
C1006 C 0.94695 0.59395 0.63071 0.0
C1007 C 0.93425 0.57762 0.59862 0.0
C1008 C 0.92547 0.61487 0.65094 0.0
C1009 C 0.89052 0.62038 0.6398 0.0
C1010 C 0.87755 0.60245 0.60859 0.0
C1011 C 0.89889 0.58183 0.58851 0.0
H1012 H 0.29227 0.79101 0.62955 0.0
H1013 H 0.38327 0.78473 0.69866 0.0
H1014 H 0.32971 0.82423 0.58838 0.0
H1015 H 0.42072 0.81806 0.65713 0.0
H1016 H 0.4803 0.87326 0.56703 0.0
H1017 H 0.44481 0.82402 0.59311 0.0
H1018 H 0.35688 0.88637 0.60269 0.0
H1019 H 0.39225 0.9353 0.57735 0.0
C1020 C 0.32042 0.79594 0.63558 0.0
C1021 C 0.3347 0.7859 0.66775 0.0
C1022 C 0.34181 0.81495 0.61194 0.0
C1023 C 0.37791 0.8241 0.61988 0.0
C1024 C 0.39294 0.81122 0.65036 0.0
C1025 C 0.37147 0.79226 0.67419 0.0
C1026 C 0.45311 0.87602 0.57406 0.0
C1027 C 0.43893 0.90799 0.5704 0.0
C1028 C 0.43297 0.84801 0.58907 0.0
C1029 C 0.39815 0.85143 0.59977 0.0
C1030 C 0.3835 0.88287 0.59428 0.0
C1031 C 0.40378 0.91094 0.58002 0.0
H1032 H 0.1637 0.34367 0.74584 0.0
H1033 H 0.21851 0.32819 0.64901 0.0
H1034 H 0.12791 0.38434 0.71655 0.0
H1035 H 0.18272 0.36819 0.61978 0.0
H1036 H 0.13694 0.46136 0.57844 0.0
H1037 H 0.17328 0.42736 0.61487 0.0
H1038 H 0.08076 0.39071 0.67315 0.0
H1039 H 0.04439 0.42571 0.63661 0.0
C1040 C 0.16827 0.34889 0.71833 0.0
C1041 C 0.19443 0.33242 0.70006 0.0
C1042 C 0.14746 0.37222 0.70137 0.0
C1043 C 0.15222 0.38022 0.66557 0.0
C1044 C 0.1784 0.36363 0.64745 0.0
C1045 C 0.19898 0.34026 0.66428 0.0
C1046 C 0.12447 0.44699 0.59981 0.0
C1047 C 0.08769 0.44698 0.60482 0.0
C1048 C 0.1453 0.4268 0.62043 0.0
C1049 C 0.13021 0.40527 0.64679 0.0
C1050 C 0.09369 0.40683 0.65332 0.0
C1051 C 0.07273 0.42729 0.63256 0.0
H1052 H 0.69286 0.24311 0.64949 0.0
H1053 H 0.72458 0.16468 0.71894 0.0
H1054 H 0.65651 0.19848 0.61458 0.0
H1055 H 0.68812 0.11985 0.68394 0.0
H1056 H 0.57789 0.06547 0.64403 0.0
H1057 H 0.62312 0.10514 0.67459 0.0
H1058 H 0.65778 0.14627 0.57494 0.0
H1059 H 0.61233 0.10648 0.54419 0.0
C1060 C 0.69241 0.21623 0.65702 0.0
C1061 C 0.71138 0.20745 0.6871 0.0
C1062 C 0.67172 0.1906 0.63689 0.0
C1063 C 0.66922 0.15556 0.64651 0.0
C1064 C 0.68916 0.14663 0.676 0.0
C1065 C 0.7102 0.17227 0.69594 0.0
C1066 C 0.59538 0.08267 0.62852 0.0
C1067 C 0.59126 0.08285 0.59161 0.0
C1068 C 0.62152 0.1053 0.64608 0.0
C1069 C 0.64404 0.12902 0.62728 0.0
C1070 C 0.64066 0.12854 0.59026 0.0
C1071 C 0.61474 0.10556 0.57261 0.0
H1072 H 0.77678 0.35821 0.34395 0.0
H1073 H 0.85723 0.29956 0.29968 0.0
H1074 H 0.82128 0.38975 0.38332 0.0
H1075 H 0.90195 0.33146 0.33864 0.0
H1076 H 0.91821 0.46643 0.41642 0.0
H1077 H 0.87226 0.43328 0.38007 0.0
H1078 H 0.92022 0.33883 0.40033 0.0
H1079 H 0.96644 0.37188 0.43615 0.0
C1080 C 0.80401 0.35206 0.34268 0.0
C1081 C 0.81361 0.32653 0.31871 0.0
C1082 C 0.82954 0.37028 0.36508 0.0
C1083 C 0.86523 0.36329 0.36406 0.0
C1084 C 0.87465 0.33726 0.3404 0.0
C1085 C 0.8491 0.31908 0.31796 0.0
C1086 C 0.91888 0.43857 0.41331 0.0
C1087 C 0.9462 0.42192 0.42915 0.0
C1088 C 0.89242 0.41952 0.39256 0.0
C1089 C 0.89262 0.38339 0.38715 0.0
C1090 C 0.91957 0.36669 0.40348 0.0
C1091 C 0.94599 0.38568 0.42422 0.0
H1092 H 0.65442 0.77174 0.36827 0.0
H1093 H 0.74651 0.84427 0.39264 0.0
H1094 H 0.61818 0.80678 0.40434 0.0
H1095 H 0.71051 0.87884 0.42956 0.0
H1096 H 0.62533 0.95571 0.4139 0.0
H1097 H 0.66684 0.91361 0.40213 0.0
H1098 H 0.60275 0.83691 0.46048 0.0
H1099 H 0.56037 0.87934 0.47224 0.0
C1100 C 0.66712 0.79447 0.38246 0.0
C1101 C 0.70285 0.80603 0.37705 0.0
C1102 C 0.64645 0.81439 0.4033 0.0
C1103 C 0.66146 0.8459 0.419 0.0
C1104 C 0.69822 0.855 0.41706 0.0
C1105 C 0.71877 0.83526 0.39601 0.0
C1106 C 0.61995 0.92998 0.42444 0.0
C1107 C 0.58917 0.92075 0.44352 0.0
C1108 C 0.64414 0.90598 0.41817 0.0
C1109 C 0.63818 0.87211 0.43074 0.0
C1110 C 0.60792 0.86292 0.45058 0.0
C1111 C 0.58367 0.88715 0.45712 0.0
H1112 H 0.21089 0.65273 0.3031 0.0
H1113 H 0.20487 0.7438 0.37018 0.0
H1114 H 0.17511 0.61765 0.3444 0.0
H1115 H 0.17048 0.70862 0.41219 0.0
H1116 H 0.06687 0.65005 0.44669 0.0
H1117 H 0.11155 0.68296 0.41317 0.0
H1118 H 0.16817 0.59188 0.40095 0.0
H1119 H 0.12226 0.55821 0.4338 0.0
C1120 C 0.20259 0.66509 0.32707 0.0
C1121 C 0.21022 0.7011 0.33316 0.0
C1122 C 0.18222 0.64494 0.35088 0.0
C1123 C 0.16941 0.66034 0.38148 0.0
C1124 C 0.17904 0.69601 0.38849 0.0
C1125 C 0.19893 0.71619 0.36448 0.0
C1126 C 0.08894 0.63695 0.43725 0.0
C1127 C 0.09073 0.60134 0.44284 0.0
C1128 C 0.11489 0.65601 0.41815 0.0
C1129 C 0.14365 0.64019 0.40431 0.0
C1130 C 0.14616 0.60481 0.41084 0.0
C1131 C 0.11996 0.58558 0.42989 0.0
H1132 H 0.36585 0.23047 0.37865 0.0
H1133 H 0.30145 0.14242 0.3308 0.0
H1134 H 0.4012 0.19053 0.40979 0.0
H1135 H 0.33709 0.10287 0.36122 0.0
H1136 H 0.44857 0.05856 0.37453 0.0
H1137 H 0.40559 0.09585 0.35141 0.0
H1138 H 0.39256 0.13849 0.45603 0.0
H1139 H 0.43497 0.10082 0.4794 0.0
C1140 C 0.35892 0.20268 0.37532 0.0
C1141 C 0.3312 0.18945 0.35223 0.0
C1142 C 0.37903 0.17992 0.39307 0.0
C1143 C 0.3719 0.14379 0.38746 0.0
C1144 C 0.34318 0.13066 0.36563 0.0
C1145 C 0.3228 0.1533 0.34839 0.0
C1146 C 0.43622 0.07561 0.3926 0.0
C1147 C 0.44502 0.07678 0.42869 0.0
C1148 C 0.41162 0.09678 0.37944 0.0
C1149 C 0.39598 0.11991 0.40206 0.0
C1150 C 0.40443 0.12087 0.43817 0.0
C1151 C 0.42847 0.09919 0.45146 0.0
H1152 H 0.64697 0.78797 0.64297 0.0
H1153 H 0.73566 0.86763 0.64499 0.0
H1154 H 0.6099 0.82791 0.61457 0.0
H1155 H 0.69866 0.90737 0.61615 0.0
H1156 H 0.61883 0.95621 0.53977 0.0
H1157 H 0.65914 0.91405 0.55815 0.0
H1158 H 0.59098 0.88552 0.6448 0.0
H1159 H 0.55095 0.92767 0.62699 0.0
C1160 C 0.65875 0.81365 0.63641 0.0
C1161 C 0.69393 0.82498 0.64636 0.0
C1162 C 0.63755 0.83648 0.62043 0.0
C1163 C 0.65148 0.87068 0.61372 0.0
C1164 C 0.68745 0.88108 0.62111 0.0
C1165 C 0.7085 0.85842 0.63758 0.0
C1166 C 0.61267 0.94118 0.56296 0.0
C1167 C 0.58181 0.94535 0.58206 0.0
C1168 C 0.63563 0.91706 0.57331 0.0
C1169 C 0.62771 0.89637 0.60248 0.0
C1170 C 0.59724 0.90087 0.62184 0.0
C1171 C 0.57461 0.92529 0.61189 0.0
H1172 H 0.64742 0.23735 0.31336 0.0
H1173 H 0.74065 0.22625 0.37785 0.0
H1174 H 0.61051 0.20625 0.35676 0.0
H1175 H 0.7037 0.19544 0.4211 0.0
H1176 H 0.63689 0.08703 0.43421 0.0
H1177 H 0.67356 0.135 0.40892 0.0
H1178 H 0.58855 0.20071 0.42059 0.0
H1179 H 0.55166 0.15231 0.44653 0.0
C1180 C 0.65991 0.22923 0.33724 0.0
C1181 C 0.697 0.23348 0.34179 0.0
C1182 C 0.63874 0.21161 0.36219 0.0
C1183 C 0.6544 0.19804 0.39197 0.0
C1184 C 0.69108 0.20525 0.39809 0.0
C1185 C 0.71219 0.22282 0.37325 0.0
C1186 C 0.6263 0.11193 0.43205 0.0
C1187 C 0.59148 0.11601 0.442 0.0
C1188 C 0.64736 0.13948 0.41786 0.0
C1189 C 0.63385 0.17156 0.41284 0.0
C1190 C 0.5995 0.1762 0.42422 0.0
C1191 C 0.57856 0.14866 0.43913 0.0
H1192 H 0.8335 0.71549 0.35959 0.0
H1193 H 0.84536 0.66306 0.2595 0.0
H1194 H 0.87242 0.67709 0.38759 0.0
H1195 H 0.88386 0.62387 0.28795 0.0
H1196 H 0.92035 0.54002 0.37413 0.0
H1197 H 0.88285 0.57496 0.33807 0.0
H1198 H 0.93873 0.66899 0.38284 0.0
H1199 H 0.97617 0.63457 0.41763 0.0
C1200 C 0.84407 0.69558 0.34349 0.0
C1201 C 0.83607 0.69273 0.30708 0.0
C1202 C 0.86664 0.67352 0.35962 0.0
C1203 C 0.88161 0.64721 0.34017 0.0
C1204 C 0.87286 0.64361 0.30391 0.0
C1205 C 0.85082 0.66627 0.28755 0.0
C1206 C 0.92551 0.5681 0.37512 0.0
C1207 C 0.95185 0.58434 0.39849 0.0
C1208 C 0.90372 0.58823 0.35476 0.0
C1209 C 0.9072 0.62502 0.35787 0.0
C1210 C 0.93469 0.6409 0.37997 0.0
C1211 C 0.95656 0.62103 0.39967 0.0
H1212 H 0.33975 0.78036 0.35812 0.0
H1213 H 0.30599 0.85969 0.29095 0.0
H1214 H 0.37517 0.82478 0.39407 0.0
H1215 H 0.3415 0.90435 0.32703 0.0
H1216 H 0.45088 0.95992 0.36765 0.0
H1217 H 0.40612 0.92031 0.33643 0.0
H1218 H 0.37316 0.87569 0.43509 0.0
H1219 H 0.41822 0.9154 0.46653 0.0
C1220 C 0.33955 0.80739 0.35132 0.0
C1221 C 0.32031 0.8165 0.32155 0.0
C1222 C 0.3597 0.83289 0.37206 0.0
C1223 C 0.36136 0.86817 0.36339 0.0
C1224 C 0.34111 0.87739 0.33424 0.0
C1225 C 0.32063 0.85185 0.31367 0.0
C1226 C 0.43386 0.94194 0.38281 0.0
C1227 C 0.43838 0.94074 0.41962 0.0
C1228 C 0.40798 0.91936 0.36488 0.0
C1229 C 0.38609 0.89468 0.38318 0.0
C1230 C 0.3898 0.89417 0.42014 0.0
C1231 C 0.41548 0.91709 0.43819 0.0
H1232 H 0.18128 0.35012 0.25954 0.0
H1233 H 0.22462 0.31942 0.35832 0.0
H1234 H 0.14538 0.38952 0.29102 0.0
H1235 H 0.18837 0.35825 0.38987 0.0
H1236 H 0.14227 0.44937 0.44153 0.0
H1237 H 0.17952 0.41519 0.40605 0.0
H1238 H 0.09568 0.39777 0.32721 0.0
H1239 H 0.05839 0.433 0.36306 0.0
C1240 C 0.18336 0.35169 0.28803 0.0
C1241 C 0.20651 0.33127 0.30603 0.0
C1242 C 0.16231 0.37437 0.30629 0.0
C1243 C 0.16349 0.37788 0.34347 0.0
C1244 C 0.1867 0.35736 0.36138 0.0
C1245 C 0.20765 0.33463 0.34313 0.0
C1246 C 0.13189 0.43903 0.4162 0.0
C1247 C 0.09712 0.44474 0.40531 0.0
C1248 C 0.15327 0.41865 0.39588 0.0
C1249 C 0.14098 0.40248 0.36357 0.0
C1250 C 0.10671 0.40954 0.35169 0.0
C1251 C 0.08517 0.4302 0.3722 0.0
H1252 H 0.3783 0.25473 0.64246 0.0
H1253 H 0.28515 0.18511 0.61386 0.0
H1254 H 0.41458 0.21934 0.60686 0.0
H1255 H 0.3213 0.15011 0.57756 0.0
H1256 H 0.40404 0.07078 0.59665 0.0
H1257 H 0.36318 0.11392 0.60712 0.0
H1258 H 0.43056 0.18934 0.55042 0.0
H1259 H 0.47216 0.14596 0.53995 0.0
C1260 C 0.36544 0.23263 0.62743 0.0
C1261 C 0.32932 0.22187 0.63155 0.0
C1262 C 0.38613 0.21251 0.60687 0.0
C1263 C 0.37075 0.18161 0.59024 0.0
C1264 C 0.33379 0.17349 0.59078 0.0
C1265 C 0.31317 0.19346 0.61149 0.0
C1266 C 0.41026 0.09646 0.58624 0.0
C1267 C 0.44167 0.10506 0.56797 0.0
C1268 C 0.38648 0.12103 0.59173 0.0
C1269 C 0.39357 0.15482 0.57918 0.0
C1270 C 0.42453 0.16339 0.56023 0.0
C1271 C 0.44834 0.13862 0.55447 0.0
H1272 H 0.81803 0.37072 0.70046 0.0
H1273 H 0.82803 0.27853 0.63623 0.0
H1274 H 0.8542 0.40552 0.6593 0.0
H1275 H 0.86283 0.31341 0.59425 0.0
H1276 H 0.96621 0.3731 0.561 0.0
H1277 H 0.92128 0.34019 0.59423 0.0
H1278 H 0.86254 0.4302 0.60256 0.0
H1279 H 0.9087 0.46391 0.57004 0.0
C1280 C 0.82724 0.35803 0.67709 0.0
C1281 C 0.82062 0.32182 0.67183 0.0
C1282 C 0.84787 0.37803 0.65335 0.0
C1283 C 0.86197 0.36226 0.62363 0.0
C1284 C 0.85328 0.32633 0.61732 0.0
C1285 C 0.83313 0.30632 0.64128 0.0
C1286 C 0.94365 0.38597 0.56956 0.0
C1287 C 0.9413 0.4213 0.56294 0.0
C1288 C 0.91755 0.3669 0.58847 0.0
C1289 C 0.88806 0.3824 0.6011 0.0
C1290 C 0.88508 0.41751 0.59362 0.0
C1291 C 0.91145 0.43677 0.57478 0.0
H1292 H 0.18359 0.73346 0.68783 0.0
H1293 H 0.24297 0.64404 0.68603 0.0
H1294 H 0.13999 0.7038 0.6467 0.0
H1295 H 0.19807 0.6129 0.64723 0.0
H1296 H 0.1261 0.57212 0.55599 0.0
H1297 H 0.1725 0.60468 0.59232 0.0
H1298 H 0.09324 0.66221 0.64126 0.0
H1299 H 0.04781 0.63144 0.60306 0.0
C1300 C 0.18708 0.70729 0.67879 0.0
C1301 C 0.21662 0.69111 0.69003 0.0
C1302 C 0.16185 0.68997 0.65544 0.0
C1303 C 0.16498 0.65556 0.64355 0.0
C1304 C 0.19479 0.63949 0.655 0.0
C1305 C 0.2205 0.65723 0.67759 0.0
C1306 C 0.11886 0.59194 0.57442 0.0
C1307 C 0.08347 0.59943 0.57658 0.0
C1308 C 0.14538 0.6105 0.59554 0.0
C1309 C 0.13697 0.63635 0.62004 0.0
C1310 C 0.10127 0.64335 0.62225 0.0
C1311 C 0.07501 0.62548 0.60049 0.0
loop_
_geom_bond_atom_site_label_1
_geom_bond_atom_site_label_2
_geom_bond_distance
_geom_bond_site_symmetry_2
_ccdc_geom_bond_type
Dy0 O4 2.398 . S
Dy0 O5 2.491 . S
Dy0 O6 2.403 . S
Dy0 O7 2.664 . S
Dy0 O11 2.326 . S
Dy0 O15 2.310 . S
Dy0 O16 2.351 . S
C1 O12 1.185 . S
C1 O13 1.355 . S
C2 O4 1.185 . S
C2 O5 1.355 . S
Dy3 O7 2.310 . S
Dy3 O10 2.351 . S
Dy3 O12 2.398 . S
Dy3 O13 2.491 . S
Dy3 O14 2.403 . S
Dy3 O15 2.664 . S
Dy3 O17 2.326 . S
O4 Dy0 2.398 . S
O4 C2 1.185 . S
O5 Dy0 2.491 . S
O5 C2 1.355 . S
O6 Dy0 2.403 . S
O6 C8 1.254 . S
O7 Dy0 2.664 . S
O7 Dy3 2.310 . S
O7 C8 1.268 . S
C8 O6 1.254 . S
C8 O7 1.268 . S
C9 O14 1.254 . S
C9 O15 1.268 . S
O10 Dy3 2.351 . S
O10 C18 1.249 . S
O11 Dy0 2.326 . S
O11 C18 1.267 . S
O12 C1 1.185 . S
O12 Dy3 2.398 . S
O13 C1 1.355 . S
O13 Dy3 2.491 . S
O14 Dy3 2.403 . S
O14 C9 1.254 . S
O15 Dy0 2.310 . S
O15 Dy3 2.664 . S
O15 C9 1.268 . S
O16 Dy0 2.351 . S
O16 C19 1.249 . S
O17 Dy3 2.326 . S
O17 C19 1.267 . S
C18 O10 1.249 . S
C18 O11 1.267 . S
C19 O16 1.249 . S
C19 O17 1.267 . S
Dy20 O24 2.398 . S
Dy20 O25 2.491 . S
Dy20 O26 2.403 . S
Dy20 O27 2.664 . S
Dy20 O31 2.326 . S
Dy20 O35 2.310 . S
Dy20 O36 2.351 . S
C21 O32 1.185 . S
C21 O33 1.355 . S
C22 O24 1.185 . S
C22 O25 1.355 . S
Dy23 O27 2.310 . S
Dy23 O30 2.351 . S
Dy23 O32 2.398 . S
Dy23 O33 2.491 . S
Dy23 O34 2.403 . S
Dy23 O35 2.664 . S
Dy23 O37 2.326 . S
O24 Dy20 2.398 . S
O24 C22 1.185 . S
O25 Dy20 2.491 . S
O25 C22 1.355 . S
O26 Dy20 2.403 . S
O26 C28 1.254 . S
O27 Dy20 2.664 . S
O27 Dy23 2.310 . S
O27 C28 1.268 . S
C28 O26 1.254 . S
C28 O27 1.268 . S
C29 O34 1.254 . S
C29 O35 1.268 . S
O30 Dy23 2.351 . S
O30 C38 1.249 . S
O31 Dy20 2.326 . S
O31 C38 1.267 . S
O32 C21 1.185 . S
O32 Dy23 2.398 . S
O33 C21 1.355 . S
O33 Dy23 2.491 . S
O34 Dy23 2.403 . S
O34 C29 1.254 . S
O35 Dy20 2.310 . S
O35 Dy23 2.664 . S
O35 C29 1.268 . S
O36 Dy20 2.351 . S
O36 C39 1.249 . S
O37 Dy23 2.326 . S
O37 C39 1.267 . S
C38 O30 1.249 . S
C38 O31 1.267 . S
C39 O36 1.249 . S
C39 O37 1.267 . S
Dy40 O44 2.398 . S
Dy40 O45 2.491 . S
Dy40 O46 2.403 . S
Dy40 O47 2.664 . S
Dy40 O51 2.326 . S
Dy40 O55 2.310 . S
Dy40 O56 2.351 . S
C41 O52 1.185 . S
C41 O53 1.355 . S
C42 O44 1.185 . S
C42 O45 1.355 . S
Dy43 O47 2.310 . S
Dy43 O50 2.351 . S
Dy43 O52 2.398 . S
Dy43 O53 2.491 . S
Dy43 O54 2.403 . S
Dy43 O55 2.664 . S
Dy43 O57 2.326 . S
O44 Dy40 2.398 . S
O44 C42 1.185 . S
O45 Dy40 2.491 . S
O45 C42 1.355 . S
O46 Dy40 2.403 . S
O46 C48 1.254 . S
O47 Dy40 2.664 . S
O47 Dy43 2.310 . S
O47 C48 1.268 . S
C48 O46 1.254 . S
C48 O47 1.268 . S
C49 O54 1.254 . S
C49 O55 1.268 . S
O50 Dy43 2.351 . S
O50 C58 1.249 . S
O51 Dy40 2.326 . S
O51 C58 1.267 . S
O52 C41 1.185 . S
O52 Dy43 2.398 . S
O53 C41 1.355 . S
O53 Dy43 2.491 . S
O54 Dy43 2.403 . S
O54 C49 1.254 . S
O55 Dy40 2.310 . S
O55 Dy43 2.664 . S
O55 C49 1.268 . S
O56 Dy40 2.351 . S
O56 C59 1.249 . S
O57 Dy43 2.326 . S
O57 C59 1.267 . S
C58 O50 1.249 . S
C58 O51 1.267 . S
C59 O56 1.249 . S
C59 O57 1.267 . S
Dy60 O64 2.398 . S
Dy60 O65 2.491 . S
Dy60 O66 2.403 . S
Dy60 O67 2.664 . S
Dy60 O71 2.326 . S
Dy60 O75 2.310 . S
Dy60 O76 2.351 . S
C61 O72 1.185 . S
C61 O73 1.355 . S
C62 O64 1.185 . S
C62 O65 1.355 . S
Dy63 O67 2.310 . S
Dy63 O70 2.351 . S
Dy63 O72 2.398 . S
Dy63 O73 2.491 . S
Dy63 O74 2.403 . S
Dy63 O75 2.664 . S
Dy63 O77 2.326 . S
O64 Dy60 2.398 . S
O64 C62 1.185 . S
O65 Dy60 2.491 . S
O65 C62 1.355 . S
O66 Dy60 2.403 . S
O66 C68 1.254 . S
O67 Dy60 2.664 . S
O67 Dy63 2.310 . S
O67 C68 1.268 . S
C68 O66 1.254 . S
C68 O67 1.268 . S
C69 O74 1.254 . S
C69 O75 1.268 . S
O70 Dy63 2.351 . S
O70 C78 1.249 . S
O71 Dy60 2.326 . S
O71 C78 1.267 . S
O72 C61 1.185 . S
O72 Dy63 2.398 . S
O73 C61 1.355 . S
O73 Dy63 2.491 . S
O74 Dy63 2.403 . S
O74 C69 1.254 . S
O75 Dy60 2.310 . S
O75 Dy63 2.664 . S
O75 C69 1.268 . S
O76 Dy60 2.351 . S
O76 C79 1.249 . S
O77 Dy63 2.326 . S
O77 C79 1.267 . S
C78 O70 1.249 . S
C78 O71 1.267 . S
C79 O76 1.249 . S
C79 O77 1.267 . S
Dy80 O84 2.398 . S
Dy80 O85 2.491 . S
Dy80 O86 2.403 . S
Dy80 O87 2.664 . S
Dy80 O91 2.326 . S
Dy80 O95 2.310 . S
Dy80 O96 2.351 . S
C81 O92 1.185 . S
C81 O93 1.355 . S
C82 O84 1.185 . S
C82 O85 1.355 . S
Dy83 O87 2.310 . S
Dy83 O90 2.351 . S
Dy83 O92 2.398 . S
Dy83 O93 2.491 . S
Dy83 O94 2.403 . S
Dy83 O95 2.664 . S
Dy83 O97 2.326 . S
O84 Dy80 2.398 . S
O84 C82 1.185 . S
O85 Dy80 2.491 . S
O85 C82 1.355 . S
O86 Dy80 2.403 . S
O86 C88 1.254 . S
O87 Dy80 2.664 . S
O87 Dy83 2.310 . S
O87 C88 1.268 . S
C88 O86 1.254 . S
C88 O87 1.268 . S
C89 O94 1.254 . S
C89 O95 1.268 . S
O90 Dy83 2.351 . S
O90 C98 1.249 . S
O91 Dy80 2.326 . S
O91 C98 1.267 . S
O92 C81 1.185 . S
O92 Dy83 2.398 . S
O93 C81 1.355 . S
O93 Dy83 2.491 . S
O94 Dy83 2.403 . S
O94 C89 1.254 . S
O95 Dy80 2.310 . S
O95 Dy83 2.664 . S
O95 C89 1.268 . S
O96 Dy80 2.351 . S
O96 C99 1.249 . S
O97 Dy83 2.326 . S
O97 C99 1.267 . S
C98 O90 1.249 . S
C98 O91 1.267 . S
C99 O96 1.249 . S
C99 O97 1.267 . S
Dy100 O104 2.398 . S
Dy100 O105 2.491 . S
Dy100 O106 2.403 . S
Dy100 O107 2.664 . S
Dy100 O111 2.326 . S
Dy100 O115 2.310 . S
Dy100 O116 2.351 . S
C101 O112 1.185 . S
C101 O113 1.355 . S
C102 O104 1.185 . S
C102 O105 1.355 . S
Dy103 O107 2.310 . S
Dy103 O110 2.351 . S
Dy103 O112 2.398 . S
Dy103 O113 2.491 . S
Dy103 O114 2.403 . S
Dy103 O115 2.664 . S
Dy103 O117 2.326 . S
O104 Dy100 2.398 . S
O104 C102 1.185 . S
O105 Dy100 2.491 . S
O105 C102 1.355 . S
O106 Dy100 2.403 . S
O106 C108 1.254 . S
O107 Dy100 2.664 . S
O107 Dy103 2.310 . S
O107 C108 1.268 . S
C108 O106 1.254 . S
C108 O107 1.268 . S
C109 O114 1.254 . S
C109 O115 1.268 . S
O110 Dy103 2.351 . S
O110 C118 1.249 . S
O111 Dy100 2.326 . S
O111 C118 1.267 . S
O112 C101 1.185 . S
O112 Dy103 2.398 . S
O113 C101 1.355 . S
O113 Dy103 2.491 . S
O114 Dy103 2.403 . S
O114 C109 1.254 . S
O115 Dy100 2.310 . S
O115 Dy103 2.664 . S
O115 C109 1.268 . S
O116 Dy100 2.351 . S
O116 C119 1.249 . S
O117 Dy103 2.326 . S
O117 C119 1.267 . S
C118 O110 1.249 . S
C118 O111 1.267 . S
C119 O116 1.249 . S
C119 O117 1.267 . S
Dy120 O124 2.398 . S
Dy120 O125 2.491 . S
Dy120 O126 2.403 . S
Dy120 O127 2.664 . S
Dy120 O131 2.326 . S
Dy120 O135 2.310 . S
Dy120 O136 2.351 . S
C121 O132 1.185 . S
C121 O133 1.355 . S
C122 O124 1.185 . S
C122 O125 1.355 . S
Dy123 O127 2.310 . S
Dy123 O130 2.351 . S
Dy123 O132 2.398 . S
Dy123 O133 2.491 . S
Dy123 O134 2.403 . S
Dy123 O135 2.664 . S
Dy123 O137 2.326 . S
O124 Dy120 2.398 . S
O124 C122 1.185 . S
O125 Dy120 2.491 . S
O125 C122 1.355 . S
O126 Dy120 2.403 . S
O126 C128 1.254 . S
O127 Dy120 2.664 . S
O127 Dy123 2.310 . S
O127 C128 1.268 . S
C128 O126 1.254 . S
C128 O127 1.268 . S
C129 O134 1.254 . S
C129 O135 1.268 . S
O130 Dy123 2.351 . S
O130 C138 1.249 . S
O131 Dy120 2.326 . S
O131 C138 1.267 . S
O132 C121 1.185 . S
O132 Dy123 2.398 . S
O133 C121 1.355 . S
O133 Dy123 2.491 . S
O134 Dy123 2.403 . S
O134 C129 1.254 . S
O135 Dy120 2.310 . S
O135 Dy123 2.664 . S
O135 C129 1.268 . S
O136 Dy120 2.351 . S
O136 C139 1.249 . S
O137 Dy123 2.326 . S
O137 C139 1.267 . S
C138 O130 1.249 . S
C138 O131 1.267 . S
C139 O136 1.249 . S
C139 O137 1.267 . S
Dy140 O144 2.398 . S
Dy140 O145 2.491 . S
Dy140 O146 2.403 . S
Dy140 O147 2.664 . S
Dy140 O151 2.326 . S
Dy140 O155 2.310 . S
Dy140 O156 2.351 . S
C141 O152 1.185 . S
C141 O153 1.355 . S
C142 O144 1.185 . S
C142 O145 1.355 . S
Dy143 O147 2.310 . S
Dy143 O150 2.351 . S
Dy143 O152 2.398 . S
Dy143 O153 2.491 . S
Dy143 O154 2.403 . S
Dy143 O155 2.664 . S
Dy143 O157 2.326 . S
O144 Dy140 2.398 . S
O144 C142 1.185 . S
O145 Dy140 2.491 . S
O145 C142 1.355 . S
O146 Dy140 2.403 . S
O146 C148 1.254 . S
O147 Dy140 2.664 . S
O147 Dy143 2.310 . S
O147 C148 1.268 . S
C148 O146 1.254 . S
C148 O147 1.268 . S
C149 O154 1.254 . S
C149 O155 1.268 . S
O150 Dy143 2.351 . S
O150 C158 1.249 . S
O151 Dy140 2.326 . S
O151 C158 1.267 . S
O152 C141 1.185 . S
O152 Dy143 2.398 . S
O153 C141 1.355 . S
O153 Dy143 2.491 . S
O154 Dy143 2.403 . S
O154 C149 1.254 . S
O155 Dy140 2.310 . S
O155 Dy143 2.664 . S
O155 C149 1.268 . S
O156 Dy140 2.351 . S
O156 C159 1.249 . S
O157 Dy143 2.326 . S
O157 C159 1.267 . S
C158 O150 1.249 . S
C158 O151 1.267 . S
C159 O156 1.249 . S
C159 O157 1.267 . S
Fe160 O161 1.886 1_455 S
Fe160 O164 1.715 . S
Fe160 O169 2.077 1_455 S
Fe160 O174 1.935 . S
Fe160 O180 2.077 1_455 S
Fe160 O189 1.935 . S
O161 Fe160 1.886 1_655 S
O161 Fe163 1.715 1_545 S
Fe162 O164 1.886 . S
Fe162 O165 1.715 1_545 S
Fe162 O172 1.935 1_545 S
Fe162 O173 2.077 . S
Fe162 O179 1.935 1_545 S
Fe162 O188 2.077 . S
Fe163 O161 1.715 1_565 S
Fe163 O166 1.886 . S
Fe163 O170 1.935 1_565 S
Fe163 O175 2.077 . S
Fe163 O181 1.935 1_565 S
Fe163 O185 2.077 . S
O164 Fe160 1.715 . S
O164 Fe162 1.886 . S
O165 Fe162 1.715 1_565 S
O165 Fe167 1.886 1_455 S
O166 Fe163 1.886 . S
O166 Fe167 1.715 . S
Fe167 O165 1.886 1_655 S
Fe167 O166 1.715 . S
Fe167 O171 2.077 1_655 S
Fe167 O176 1.935 . S
Fe167 O178 2.077 1_655 S
Fe167 O186 1.935 . S
C168 O180 1.381 . S
C168 O181 1.421 . S
O169 Fe160 2.077 1_655 S
O169 C182 1.381 . S
O170 Fe163 1.935 1_545 S
O170 C182 1.421 . S
O171 Fe167 2.077 1_455 S
O171 C187 1.381 . S
O172 Fe162 1.935 1_565 S
O172 C187 1.421 . S
O173 Fe162 2.077 . S
O173 C177 1.381 . S
O174 Fe160 1.935 . S
O174 C177 1.421 . S
O175 Fe163 2.077 . S
O175 C183 1.381 . S
O176 Fe167 1.935 . S
O176 C183 1.421 . S
C177 O173 1.381 . S
C177 O174 1.421 . S
O178 Fe167 2.077 1_455 S
O178 C190 1.381 . S
O179 Fe162 1.935 1_565 S
O179 C190 1.421 . S
O180 Fe160 2.077 1_655 S
O180 C168 1.381 . S
O181 Fe163 1.935 1_545 S
O181 C168 1.421 . S
C182 O169 1.381 . S
C182 O170 1.421 . S
C183 O175 1.381 . S
C183 O176 1.421 . S
C184 O185 1.381 . S
C184 O186 1.421 . S
O185 Fe163 2.077 . S
O185 C184 1.381 . S
O186 Fe167 1.935 . S
O186 C184 1.421 . S
C187 O171 1.381 . S
C187 O172 1.421 . S
O188 Fe162 2.077 . S
O188 C191 1.381 . S
O189 Fe160 1.935 . S
O189 C191 1.421 . S
C190 O178 1.381 . S
C190 O179 1.421 . S
C191 O188 1.381 . S
C191 O189 1.421 . S
Fe192 O193 1.887 1_556 S
Fe192 O196 1.715 . S
Fe192 O201 2.099 . S
Fe192 O206 1.961 . S
Fe192 O212 2.055 1_556 S
Fe192 O221 1.909 1_556 S
O193 Fe192 1.887 1_554 S
O193 Fe195 1.715 1_565 S
Fe194 O196 1.886 . S
Fe194 O197 1.716 1_566 S
Fe194 O204 1.963 1_565 S
Fe194 O205 2.101 . S
Fe194 O211 1.908 1_566 S
Fe194 O220 2.053 1_556 S
Fe195 O193 1.715 1_545 S
Fe195 O198 1.886 . S
Fe195 O202 1.935 1_544 S
Fe195 O207 2.077 1_554 S
Fe195 O213 1.935 1_545 S
Fe195 O217 2.077 . S
O196 Fe192 1.715 . S
O196 Fe194 1.886 . S
O197 Fe194 1.716 1_544 S
O197 Fe199 1.886 . S
O198 Fe195 1.886 . S
O198 Fe199 1.715 . S
Fe199 O197 1.886 . S
Fe199 O198 1.715 . S
Fe199 O203 2.077 1_554 S
Fe199 O208 1.935 1_554 S
Fe199 O210 2.077 . S
Fe199 O218 1.935 . S
C200 O212 1.381 . S
C200 O213 1.421 . S
O201 Fe192 2.099 . S
O201 C214 1.381 . S
O202 Fe195 1.935 1_566 S
O202 C214 1.421 . S
O203 Fe199 2.077 1_556 S
O203 C219 1.381 . S
O204 Fe194 1.963 1_545 S
O204 C219 1.421 . S
O205 Fe194 2.101 . S
O205 C209 1.381 . S
O206 Fe192 1.961 . S
O206 C209 1.421 . S
O207 Fe195 2.077 1_556 S
O207 C215 1.381 . S
O208 Fe199 1.935 1_556 S
O208 C215 1.421 . S
C209 O205 1.381 . S
C209 O206 1.421 . S
O210 Fe199 2.077 . S
O210 C222 1.381 . S
O211 Fe194 1.908 1_544 S
O211 C222 1.421 . S
O212 Fe192 2.055 1_554 S
O212 C200 1.381 . S
O213 Fe195 1.935 1_565 S
O213 C200 1.421 . S
C214 O201 1.381 . S
C214 O202 1.421 . S
C215 O207 1.381 . S
C215 O208 1.421 . S
C216 O217 1.381 . S
C216 O218 1.421 . S
O217 Fe195 2.077 . S
O217 C216 1.381 . S
O218 Fe199 1.935 . S
O218 C216 1.421 . S
C219 O203 1.381 . S
C219 O204 1.421 . S
O220 Fe194 2.053 1_554 S
O220 C223 1.381 . S
O221 Fe192 1.909 1_554 S
O221 C223 1.421 . S
C222 O210 1.381 . S
C222 O211 1.421 . S
C223 O220 1.381 . S
C223 O221 1.421 . S
Fe224 O225 1.886 1_455 S
Fe224 O228 1.715 . S
Fe224 O233 2.077 1_454 S
Fe224 O238 1.935 1_554 S
Fe224 O244 2.077 1_455 S
Fe224 O253 1.935 . S
O225 Fe224 1.886 1_655 S
O225 Fe227 1.716 1_554 S
Fe226 O228 1.886 . S
Fe226 O229 1.715 . S
Fe226 O236 1.935 1_554 S
Fe226 O237 2.077 1_554 S
Fe226 O243 1.935 . S
Fe226 O252 2.077 . S
Fe227 O225 1.716 1_556 S
Fe227 O230 1.886 . S
Fe227 O234 1.963 . S
Fe227 O239 2.101 . S
Fe227 O245 1.908 1_556 S
Fe227 O249 2.053 1_556 S
O228 Fe224 1.715 . S
O228 Fe226 1.886 . S
O229 Fe226 1.715 . S
O229 Fe231 1.887 1_454 S
O230 Fe227 1.886 . S
O230 Fe231 1.715 . S
Fe231 O229 1.887 1_656 S
Fe231 O230 1.715 . S
Fe231 O235 2.099 1_655 S
Fe231 O240 1.961 . S
Fe231 O242 2.055 1_656 S
Fe231 O250 1.909 1_556 S
C232 O244 1.381 . S
C232 O245 1.421 . S
O233 Fe224 2.077 1_656 S
O233 C246 1.381 . S
O234 Fe227 1.963 . S
O234 C246 1.421 . S
O235 Fe231 2.099 1_455 S
O235 C251 1.381 . S
O236 Fe226 1.935 1_556 S
O236 C251 1.421 . S
O237 Fe226 2.077 1_556 S
O237 C241 1.381 . S
O238 Fe224 1.935 1_556 S
O238 C241 1.421 . S
O239 Fe227 2.101 . S
O239 C247 1.381 . S
O240 Fe231 1.961 . S
O240 C247 1.421 . S
C241 O237 1.381 . S
C241 O238 1.421 . S
O242 Fe231 2.055 1_454 S
O242 C254 1.381 . S
O243 Fe226 1.935 . S
O243 C254 1.421 . S
O244 Fe224 2.077 1_655 S
O244 C232 1.381 . S
O245 Fe227 1.908 1_554 S
O245 C232 1.421 . S
C246 O233 1.381 . S
C246 O234 1.421 . S
C247 O239 1.381 . S
C247 O240 1.421 . S
C248 O249 1.381 . S
C248 O250 1.421 . S
O249 Fe227 2.053 1_554 S
O249 C248 1.381 . S
O250 Fe231 1.909 1_554 S
O250 C248 1.421 . S
C251 O235 1.381 . S
C251 O236 1.421 . S
O252 Fe226 2.077 . S
O252 C255 1.381 . S
O253 Fe224 1.935 . S
O253 C255 1.421 . S
C254 O242 1.381 . S
C254 O243 1.421 . S
C255 O252 1.381 . S
C255 O253 1.421 . S
Fe256 O257 1.886 . S
Fe256 O260 1.715 . S
Fe256 O265 2.077 . S
Fe256 O270 1.935 . S
Fe256 O276 2.077 . S
Fe256 O285 1.935 . S
O257 Fe256 1.886 . S
O257 Fe259 1.715 1_556 S
Fe258 O260 1.886 . S
Fe258 O261 1.715 1_556 S
Fe258 O268 1.935 1_556 S
Fe258 O269 2.077 . S
Fe258 O275 1.935 1_556 S
Fe258 O284 2.077 . S
Fe259 O257 1.715 1_554 S
Fe259 O262 1.886 . S
Fe259 O266 1.935 1_554 S
Fe259 O271 2.077 . S
Fe259 O277 1.935 1_554 S
Fe259 O281 2.077 . S
O260 Fe256 1.715 . S
O260 Fe258 1.886 . S
O261 Fe258 1.715 1_554 S
O261 Fe263 1.886 . S
O262 Fe259 1.886 . S
O262 Fe263 1.715 . S
Fe263 O261 1.886 . S
Fe263 O262 1.715 . S
Fe263 O267 2.077 . S
Fe263 O272 1.935 . S
Fe263 O274 2.077 . S
Fe263 O282 1.935 . S
C264 O276 1.381 . S
C264 O277 1.421 . S
O265 Fe256 2.077 . S
O265 C278 1.381 . S
O266 Fe259 1.935 1_556 S
O266 C278 1.421 . S
O267 Fe263 2.077 . S
O267 C283 1.381 . S
O268 Fe258 1.935 1_554 S
O268 C283 1.421 . S
O269 Fe258 2.077 . S
O269 C273 1.381 . S
O270 Fe256 1.935 . S
O270 C273 1.421 . S
O271 Fe259 2.077 . S
O271 C279 1.381 . S
O272 Fe263 1.935 . S
O272 C279 1.421 . S
C273 O269 1.381 . S
C273 O270 1.421 . S
O274 Fe263 2.077 . S
O274 C286 1.381 . S
O275 Fe258 1.935 1_554 S
O275 C286 1.421 . S
O276 Fe256 2.077 . S
O276 C264 1.381 . S
O277 Fe259 1.935 1_556 S
O277 C264 1.421 . S
C278 O265 1.381 . S
C278 O266 1.421 . S
C279 O271 1.381 . S
C279 O272 1.421 . S
C280 O281 1.381 . S
C280 O282 1.421 . S
O281 Fe259 2.077 . S
O281 C280 1.381 . S
O282 Fe263 1.935 . S
O282 C280 1.421 . S
C283 O267 1.381 . S
C283 O268 1.421 . S
O284 Fe258 2.077 . S
O284 C287 1.381 . S
O285 Fe256 1.935 . S
O285 C287 1.421 . S
C286 O274 1.381 . S
C286 O275 1.421 . S
C287 O284 1.381 . S
C287 O285 1.421 . S
Fe288 O289 1.886 . S
Fe288 O292 1.715 . S
Fe288 O297 2.077 1_655 S
Fe288 O302 1.935 1_655 S
Fe288 O308 2.077 . S
Fe288 O317 1.935 . S
O289 Fe288 1.886 . S
O289 Fe291 1.715 1_655 S
Fe290 O292 1.886 . S
Fe290 O293 1.715 1_655 S
Fe290 O300 1.935 1_655 S
Fe290 O301 2.077 1_655 S
Fe290 O307 1.935 . S
Fe290 O316 2.077 . S
Fe291 O289 1.715 1_455 S
Fe291 O294 1.886 . S
Fe291 O298 1.935 . S
Fe291 O303 2.077 . S
Fe291 O309 1.935 1_455 S
Fe291 O313 2.077 1_455 S
O292 Fe288 1.715 . S
O292 Fe290 1.886 . S
O293 Fe290 1.715 1_455 S
O293 Fe295 1.886 . S
O294 Fe291 1.886 . S
O294 Fe295 1.715 . S
Fe295 O293 1.886 . S
Fe295 O294 1.715 . S
Fe295 O299 2.077 . S
Fe295 O304 1.935 . S
Fe295 O306 2.077 1_455 S
Fe295 O314 1.935 1_455 S
C296 O308 1.381 . S
C296 O309 1.421 . S
O297 Fe288 2.077 1_455 S
O297 C310 1.381 . S
O298 Fe291 1.935 . S
O298 C310 1.421 . S
O299 Fe295 2.077 . S
O299 C315 1.381 . S
O300 Fe290 1.935 1_455 S
O300 C315 1.421 . S
O301 Fe290 2.077 1_455 S
O301 C305 1.381 . S
O302 Fe288 1.935 1_455 S
O302 C305 1.421 . S
O303 Fe291 2.077 . S
O303 C311 1.381 . S
O304 Fe295 1.935 . S
O304 C311 1.421 . S
C305 O301 1.381 . S
C305 O302 1.421 . S
O306 Fe295 2.077 1_655 S
O306 C318 1.381 . S
O307 Fe290 1.935 . S
O307 C318 1.421 . S
O308 Fe288 2.077 . S
O308 C296 1.381 . S
O309 Fe291 1.935 1_655 S
O309 C296 1.421 . S
C310 O297 1.381 . S
C310 O298 1.421 . S
C311 O303 1.381 . S
C311 O304 1.421 . S
C312 O313 1.381 . S
C312 O314 1.421 . S
O313 Fe291 2.077 1_655 S
O313 C312 1.381 . S
O314 Fe295 1.935 1_655 S
O314 C312 1.421 . S
C315 O299 1.381 . S
C315 O300 1.421 . S
O316 Fe290 2.077 . S
O316 C319 1.381 . S
O317 Fe288 1.935 . S
O317 C319 1.421 . S
C318 O306 1.381 . S
C318 O307 1.421 . S
C319 O316 1.381 . S
C319 O317 1.421 . S
Fe320 O321 1.886 . S
Fe320 O324 1.715 . S
Fe320 O329 2.077 . S
Fe320 O334 1.935 . S
Fe320 O340 2.077 . S
Fe320 O349 1.935 . S
O321 Fe320 1.886 . S
O321 Fe323 1.715 1_565 S
Fe322 O324 1.886 . S
Fe322 O325 1.715 1_565 S
Fe322 O332 1.935 1_565 S
Fe322 O333 2.077 . S
Fe322 O339 1.935 1_565 S
Fe322 O348 2.077 . S
Fe323 O321 1.715 1_545 S
Fe323 O326 1.886 . S
Fe323 O330 1.935 1_545 S
Fe323 O335 2.077 . S
Fe323 O341 1.935 1_545 S
Fe323 O345 2.077 . S
O324 Fe320 1.715 . S
O324 Fe322 1.886 . S
O325 Fe322 1.715 1_545 S
O325 Fe327 1.886 . S
O326 Fe323 1.886 . S
O326 Fe327 1.715 . S
Fe327 O325 1.886 . S
Fe327 O326 1.715 . S
Fe327 O331 2.077 . S
Fe327 O336 1.935 . S
Fe327 O338 2.077 . S
Fe327 O346 1.935 . S
C328 O340 1.381 . S
C328 O341 1.421 . S
O329 Fe320 2.077 . S
O329 C342 1.381 . S
O330 Fe323 1.935 1_565 S
O330 C342 1.421 . S
O331 Fe327 2.077 . S
O331 C347 1.381 . S
O332 Fe322 1.935 1_545 S
O332 C347 1.421 . S
O333 Fe322 2.077 . S
O333 C337 1.381 . S
O334 Fe320 1.935 . S
O334 C337 1.421 . S
O335 Fe323 2.077 . S
O335 C343 1.381 . S
O336 Fe327 1.935 . S
O336 C343 1.421 . S
C337 O333 1.381 . S
C337 O334 1.421 . S
O338 Fe327 2.077 . S
O338 C350 1.381 . S
O339 Fe322 1.935 1_545 S
O339 C350 1.421 . S
O340 Fe320 2.077 . S
O340 C328 1.381 . S
O341 Fe323 1.935 1_565 S
O341 C328 1.421 . S
C342 O329 1.381 . S
C342 O330 1.421 . S
C343 O335 1.381 . S
C343 O336 1.421 . S
C344 O345 1.381 . S
C344 O346 1.421 . S
O345 Fe323 2.077 . S
O345 C344 1.381 . S
O346 Fe327 1.935 . S
O346 C344 1.421 . S
C347 O331 1.381 . S
C347 O332 1.421 . S
O348 Fe322 2.077 . S
O348 C351 1.381 . S
O349 Fe320 1.935 . S
O349 C351 1.421 . S
C350 O338 1.381 . S
C350 O339 1.421 . S
C351 O348 1.381 . S
C351 O349 1.421 . S
H352 C360 0.950 . S
H353 C365 0.950 . S
H354 C362 0.950 . S
H355 C364 0.950 . S
H356 C366 0.950 . S
H357 C368 0.950 . S
H358 C370 0.950 . S
H359 C371 0.950 . S
C360 H352 0.950 . S
C360 C361 1.386 . S
C360 C362 1.391 . S
C361 C360 1.386 . S
C361 C365 1.393 . S
C362 H354 0.950 . S
C362 C360 1.391 . S
C362 C363 1.400 . S
C363 C362 1.400 . S
C363 C364 1.398 . S
C363 C369 1.491 . S
C364 H355 0.950 . S
C364 C363 1.398 . S
C364 C365 1.391 . S
C365 H353 0.950 . S
C365 C361 1.393 . S
C365 C364 1.391 . S
C366 H356 0.950 . S
C366 C367 1.386 . S
C366 C368 1.391 . S
C367 C366 1.386 . S
C367 C371 1.393 . S
C368 H357 0.950 . S
C368 C366 1.391 . S
C368 C369 1.400 . S
C369 C363 1.491 . S
C369 C368 1.400 . S
C369 C370 1.398 . S
C370 H358 0.950 . S
C370 C369 1.398 . S
C370 C371 1.391 . S
C371 H359 0.950 . S
C371 C367 1.393 . S
C371 C370 1.391 . S
H372 C380 0.950 . S
H373 C385 0.950 . S
H374 C382 0.950 . S
H375 C384 0.950 . S
H376 C386 0.950 . S
H377 C388 0.950 . S
H378 C390 0.950 . S
H379 C391 0.950 . S
C380 H372 0.950 . S
C380 C381 1.386 . S
C380 C382 1.391 . S
C381 C380 1.386 . S
C381 C385 1.393 . S
C382 H374 0.950 . S
C382 C380 1.391 . S
C382 C383 1.400 . S
C383 C382 1.400 . S
C383 C384 1.398 . S
C383 C389 1.491 . S
C384 H375 0.950 . S
C384 C383 1.398 . S
C384 C385 1.391 . S
C385 H373 0.950 . S
C385 C381 1.393 . S
C385 C384 1.391 . S
C386 H376 0.950 . S
C386 C387 1.386 . S
C386 C388 1.391 . S
C387 C386 1.386 . S
C387 C391 1.393 . S
C388 H377 0.950 . S
C388 C386 1.391 . S
C388 C389 1.400 . S
C389 C383 1.491 . S
C389 C388 1.400 . S
C389 C390 1.398 . S
C390 H378 0.950 . S
C390 C389 1.398 . S
C390 C391 1.391 . S
C391 H379 0.950 . S
C391 C387 1.393 . S
C391 C390 1.391 . S
H392 C400 0.950 . S
H393 C405 0.950 . S
H394 C402 0.950 . S
H395 C404 0.950 . S
H396 C406 0.950 . S
H397 C408 0.950 . S
H398 C410 0.950 . S
H399 C411 0.950 . S
C400 H392 0.950 . S
C400 C401 1.386 . S
C400 C402 1.391 . S
C401 C400 1.386 . S
C401 C405 1.393 . S
C402 H394 0.950 . S
C402 C400 1.391 . S
C402 C403 1.400 . S
C403 C402 1.400 . S
C403 C404 1.398 . S
C403 C409 1.491 . S
C404 H395 0.950 . S
C404 C403 1.398 . S
C404 C405 1.391 . S
C405 H393 0.950 . S
C405 C401 1.393 . S
C405 C404 1.391 . S
C406 H396 0.950 . S
C406 C407 1.386 . S
C406 C408 1.391 . S
C407 C406 1.386 . S
C407 C411 1.393 . S
C408 H397 0.950 . S
C408 C406 1.391 . S
C408 C409 1.400 . S
C409 C403 1.491 . S
C409 C408 1.400 . S
C409 C410 1.398 . S
C410 H398 0.950 . S
C410 C409 1.398 . S
C410 C411 1.391 . S
C411 H399 0.950 . S
C411 C407 1.393 . S
C411 C410 1.391 . S
H412 C420 0.950 . S
H413 C425 0.950 . S
H414 C422 0.950 . S
H415 C424 0.950 . S
H416 C426 0.950 . S
H417 C428 0.950 . S
H418 C430 0.950 . S
H419 C431 0.950 . S
C420 H412 0.950 . S
C420 C421 1.386 . S
C420 C422 1.391 . S
C421 C420 1.386 . S
C421 C425 1.393 . S
C422 H414 0.950 . S
C422 C420 1.391 . S
C422 C423 1.400 . S
C423 C422 1.400 . S
C423 C424 1.398 . S
C423 C429 1.491 . S
C424 H415 0.950 . S
C424 C423 1.398 . S
C424 C425 1.391 . S
C425 H413 0.950 . S
C425 C421 1.393 . S
C425 C424 1.391 . S
C426 H416 0.950 . S
C426 C427 1.386 . S
C426 C428 1.391 . S
C427 C426 1.386 . S
C427 C431 1.393 . S
C428 H417 0.950 . S
C428 C426 1.391 . S
C428 C429 1.400 . S
C429 C423 1.491 . S
C429 C428 1.400 . S
C429 C430 1.398 . S
C430 H418 0.950 . S
C430 C429 1.398 . S
C430 C431 1.391 . S
C431 H419 0.950 . S
C431 C427 1.393 . S
C431 C430 1.391 . S
H432 C440 0.950 . S
H433 C445 0.950 . S
H434 C442 0.950 . S
H435 C444 0.950 . S
H436 C446 0.950 . S
H437 C448 0.950 . S
H438 C450 0.950 . S
H439 C451 0.950 . S
C440 H432 0.950 . S
C440 C441 1.386 . S
C440 C442 1.391 . S
C441 C440 1.386 . S
C441 C445 1.393 . S
C442 H434 0.950 . S
C442 C440 1.391 . S
C442 C443 1.400 . S
C443 C442 1.400 . S
C443 C444 1.398 . S
C443 C449 1.491 . S
C444 H435 0.950 . S
C444 C443 1.398 . S
C444 C445 1.391 . S
C445 H433 0.950 . S
C445 C441 1.393 . S
C445 C444 1.391 . S
C446 H436 0.950 . S
C446 C447 1.386 . S
C446 C448 1.391 . S
C447 C446 1.386 . S
C447 C451 1.393 . S
C448 H437 0.950 . S
C448 C446 1.391 . S
C448 C449 1.400 . S
C449 C443 1.491 . S
C449 C448 1.400 . S
C449 C450 1.398 . S
C450 H438 0.950 . S
C450 C449 1.398 . S
C450 C451 1.391 . S
C451 H439 0.950 . S
C451 C447 1.393 . S
C451 C450 1.391 . S
H452 C460 0.950 . S
H453 C465 0.950 . S
H454 C462 0.950 . S
H455 C464 0.950 . S
H456 C466 0.950 . S
H457 C468 0.950 . S
H458 C470 0.950 . S
H459 C471 0.950 . S
C460 H452 0.950 . S
C460 C461 1.386 . S
C460 C462 1.391 . S
C461 C460 1.386 . S
C461 C465 1.393 . S
C462 H454 0.950 . S
C462 C460 1.391 . S
C462 C463 1.400 . S
C463 C462 1.400 . S
C463 C464 1.398 . S
C463 C469 1.491 . S
C464 H455 0.950 . S
C464 C463 1.398 . S
C464 C465 1.391 . S
C465 H453 0.950 . S
C465 C461 1.393 . S
C465 C464 1.391 . S
C466 H456 0.950 . S
C466 C467 1.386 . S
C466 C468 1.391 . S
C467 C466 1.386 . S
C467 C471 1.393 . S
C468 H457 0.950 . S
C468 C466 1.391 . S
C468 C469 1.400 . S
C469 C463 1.491 . S
C469 C468 1.400 . S
C469 C470 1.398 . S
C470 H458 0.950 . S
C470 C469 1.398 . S
C470 C471 1.391 . S
C471 H459 0.950 . S
C471 C467 1.393 . S
C471 C470 1.391 . S
H472 C480 0.950 . S
H473 C485 0.950 . S
H474 C482 0.950 . S
H475 C484 0.950 . S
H476 C486 0.950 . S
H477 C488 0.950 . S
H478 C490 0.950 . S
H479 C491 0.950 . S
C480 H472 0.950 . S
C480 C481 1.386 . S
C480 C482 1.391 . S
C481 C480 1.386 . S
C481 C485 1.393 . S
C482 H474 0.950 . S
C482 C480 1.391 . S
C482 C483 1.400 . S
C483 C482 1.400 . S
C483 C484 1.398 . S
C483 C489 1.491 . S
C484 H475 0.950 . S
C484 C483 1.398 . S
C484 C485 1.391 . S
C485 H473 0.950 . S
C485 C481 1.393 . S
C485 C484 1.391 . S
C486 H476 0.950 . S
C486 C487 1.386 . S
C486 C488 1.391 . S
C487 C486 1.386 . S
C487 C491 1.393 . S
C488 H477 0.950 . S
C488 C486 1.391 . S
C488 C489 1.400 . S
C489 C483 1.491 . S
C489 C488 1.400 . S
C489 C490 1.398 . S
C490 H478 0.950 . S
C490 C489 1.398 . S
C490 C491 1.391 . S
C491 H479 0.950 . S
C491 C487 1.393 . S
C491 C490 1.391 . S
H492 C500 0.950 . S
H493 C505 0.950 . S
H494 C502 0.950 . S
H495 C504 0.950 . S
H496 C506 0.950 . S
H497 C508 0.950 . S
H498 C510 0.950 . S
H499 C511 0.950 . S
C500 H492 0.950 . S
C500 C501 1.386 . S
C500 C502 1.391 . S
C501 C500 1.386 . S
C501 C505 1.393 . S
C502 H494 0.950 . S
C502 C500 1.391 . S
C502 C503 1.400 . S
C503 C502 1.400 . S
C503 C504 1.398 . S
C503 C509 1.491 . S
C504 H495 0.950 . S
C504 C503 1.398 . S
C504 C505 1.391 . S
C505 H493 0.950 . S
C505 C501 1.393 . S
C505 C504 1.391 . S
C506 H496 0.950 . S
C506 C507 1.386 . S
C506 C508 1.391 . S
C507 C506 1.386 . S
C507 C511 1.393 . S
C508 H497 0.950 . S
C508 C506 1.391 . S
C508 C509 1.400 . S
C509 C503 1.491 . S
C509 C508 1.400 . S
C509 C510 1.398 . S
C510 H498 0.950 . S
C510 C509 1.398 . S
C510 C511 1.391 . S
C511 H499 0.950 . S
C511 C507 1.393 . S
C511 C510 1.391 . S
H512 C520 0.950 . S
H513 C525 0.950 . S
H514 C522 0.950 . S
H515 C524 0.950 . S
H516 C526 0.950 . S
H517 C528 0.950 . S
H518 C530 0.950 . S
H519 C531 0.950 . S
C520 H512 0.950 . S
C520 C521 1.386 . S
C520 C522 1.391 . S
C521 C520 1.386 . S
C521 C525 1.393 . S
C522 H514 0.950 . S
C522 C520 1.391 . S
C522 C523 1.400 . S
C523 C522 1.400 . S
C523 C524 1.398 . S
C523 C529 1.491 . S
C524 H515 0.950 . S
C524 C523 1.398 . S
C524 C525 1.391 . S
C525 H513 0.950 . S
C525 C521 1.393 . S
C525 C524 1.391 . S
C526 H516 0.950 . S
C526 C527 1.386 . S
C526 C528 1.391 . S
C527 C526 1.386 . S
C527 C531 1.393 . S
C528 H517 0.950 . S
C528 C526 1.391 . S
C528 C529 1.400 . S
C529 C523 1.491 . S
C529 C528 1.400 . S
C529 C530 1.398 . S
C530 H518 0.950 . S
C530 C529 1.398 . S
C530 C531 1.391 . S
C531 H519 0.950 . S
C531 C527 1.393 . S
C531 C530 1.391 . S
H532 C540 0.950 . S
H533 C545 0.950 . S
H534 C542 0.950 . S
H535 C544 0.950 . S
H536 C546 0.950 . S
H537 C548 0.950 . S
H538 C550 0.950 . S
H539 C551 0.950 . S
C540 H532 0.950 . S
C540 C541 1.386 . S
C540 C542 1.391 . S
C541 C540 1.386 . S
C541 C545 1.393 . S
C542 H534 0.950 . S
C542 C540 1.391 . S
C542 C543 1.400 . S
C543 C542 1.400 . S
C543 C544 1.398 . S
C543 C549 1.491 . S
C544 H535 0.950 . S
C544 C543 1.398 . S
C544 C545 1.391 . S
C545 H533 0.950 . S
C545 C541 1.393 . S
C545 C544 1.391 . S
C546 H536 0.950 . S
C546 C547 1.386 . S
C546 C548 1.391 . S
C547 C546 1.386 . S
C547 C551 1.393 . S
C548 H537 0.950 . S
C548 C546 1.391 . S
C548 C549 1.400 . S
C549 C543 1.491 . S
C549 C548 1.400 . S
C549 C550 1.398 . S
C550 H538 0.950 . S
C550 C549 1.398 . S
C550 C551 1.391 . S
C551 H539 0.950 . S
C551 C547 1.393 . S
C551 C550 1.391 . S
H552 C560 0.950 . S
H553 C565 0.950 . S
H554 C562 0.950 . S
H555 C564 0.950 . S
H556 C566 0.950 . S
H557 C568 0.950 . S
H558 C570 0.950 . S
H559 C571 0.950 . S
C560 H552 0.950 . S
C560 C561 1.386 . S
C560 C562 1.391 . S
C561 C560 1.386 . S
C561 C565 1.393 . S
C562 H554 0.950 . S
C562 C560 1.391 . S
C562 C563 1.400 . S
C563 C562 1.400 . S
C563 C564 1.398 . S
C563 C569 1.491 . S
C564 H555 0.950 . S
C564 C563 1.398 . S
C564 C565 1.391 . S
C565 H553 0.950 . S
C565 C561 1.393 . S
C565 C564 1.391 . S
C566 H556 0.950 . S
C566 C567 1.386 . S
C566 C568 1.391 . S
C567 C566 1.386 . S
C567 C571 1.393 . S
C568 H557 0.950 . S
C568 C566 1.391 . S
C568 C569 1.400 . S
C569 C563 1.491 . S
C569 C568 1.400 . S
C569 C570 1.398 . S
C570 H558 0.950 . S
C570 C569 1.398 . S
C570 C571 1.391 . S
C571 H559 0.950 . S
C571 C567 1.393 . S
C571 C570 1.391 . S
H572 C580 0.950 . S
H573 C585 0.950 . S
H574 C582 0.950 . S
H575 C584 0.950 . S
H576 C586 0.950 . S
H577 C588 0.950 . S
H578 C590 0.950 . S
H579 C591 0.950 . S
C580 H572 0.950 . S
C580 C581 1.386 . S
C580 C582 1.391 . S
C581 C580 1.386 . S
C581 C585 1.393 . S
C582 H574 0.950 . S
C582 C580 1.391 . S
C582 C583 1.400 . S
C583 C582 1.400 . S
C583 C584 1.398 . S
C583 C589 1.491 . S
C584 H575 0.950 . S
C584 C583 1.398 . S
C584 C585 1.391 . S
C585 H573 0.950 . S
C585 C581 1.393 . S
C585 C584 1.391 . S
C586 H576 0.950 . S
C586 C587 1.386 . S
C586 C588 1.391 . S
C587 C586 1.386 . S
C587 C591 1.393 . S
C588 H577 0.950 . S
C588 C586 1.391 . S
C588 C589 1.400 . S
C589 C583 1.491 . S
C589 C588 1.400 . S
C589 C590 1.398 . S
C590 H578 0.950 . S
C590 C589 1.398 . S
C590 C591 1.391 . S
C591 H579 0.950 . S
C591 C587 1.393 . S
C591 C590 1.391 . S
H592 C600 0.950 . S
H593 C605 0.950 . S
H594 C602 0.950 . S
H595 C604 0.950 . S
H596 C606 0.950 . S
H597 C608 0.950 . S
H598 C610 0.950 . S
H599 C611 0.950 . S
C600 H592 0.950 . S
C600 C601 1.386 . S
C600 C602 1.391 . S
C601 C600 1.386 . S
C601 C605 1.393 . S
C602 H594 0.950 . S
C602 C600 1.391 . S
C602 C603 1.400 . S
C603 C602 1.400 . S
C603 C604 1.398 . S
C603 C609 1.491 . S
C604 H595 0.950 . S
C604 C603 1.398 . S
C604 C605 1.391 . S
C605 H593 0.950 . S
C605 C601 1.393 . S
C605 C604 1.391 . S
C606 H596 0.950 . S
C606 C607 1.386 . S
C606 C608 1.391 . S
C607 C606 1.386 . S
C607 C611 1.393 . S
C608 H597 0.950 . S
C608 C606 1.391 . S
C608 C609 1.400 . S
C609 C603 1.491 . S
C609 C608 1.400 . S
C609 C610 1.398 . S
C610 H598 0.950 . S
C610 C609 1.398 . S
C610 C611 1.391 . S
C611 H599 0.950 . S
C611 C607 1.393 . S
C611 C610 1.391 . S
H612 C620 0.950 . S
H613 C625 0.950 . S
H614 C622 0.950 . S
H615 C624 0.950 . S
H616 C626 0.950 . S
H617 C628 0.950 . S
H618 C630 0.950 . S
H619 C631 0.950 . S
C620 H612 0.950 . S
C620 C621 1.386 . S
C620 C622 1.391 . S
C621 C620 1.386 . S
C621 C625 1.393 . S
C622 H614 0.950 . S
C622 C620 1.391 . S
C622 C623 1.400 . S
C623 C622 1.400 . S
C623 C624 1.398 . S
C623 C629 1.491 . S
C624 H615 0.950 . S
C624 C623 1.398 . S
C624 C625 1.391 . S
C625 H613 0.950 . S
C625 C621 1.393 . S
C625 C624 1.391 . S
C626 H616 0.950 . S
C626 C627 1.386 . S
C626 C628 1.391 . S
C627 C626 1.386 . S
C627 C631 1.393 . S
C628 H617 0.950 . S
C628 C626 1.391 . S
C628 C629 1.400 . S
C629 C623 1.491 . S
C629 C628 1.400 . S
C629 C630 1.398 . S
C630 H618 0.950 . S
C630 C629 1.398 . S
C630 C631 1.391 . S
C631 H619 0.950 . S
C631 C627 1.393 . S
C631 C630 1.391 . S
H632 C640 0.950 . S
H633 C645 0.950 . S
H634 C642 0.950 . S
H635 C644 0.950 . S
H636 C646 0.950 . S
H637 C648 0.950 . S
H638 C650 0.950 . S
H639 C651 0.950 . S
C640 H632 0.950 . S
C640 C641 1.386 . S
C640 C642 1.391 . S
C641 C640 1.386 . S
C641 C645 1.393 . S
C642 H634 0.950 . S
C642 C640 1.391 . S
C642 C643 1.400 . S
C643 C642 1.400 . S
C643 C644 1.398 . S
C643 C649 1.491 . S
C644 H635 0.950 . S
C644 C643 1.398 . S
C644 C645 1.391 . S
C645 H633 0.950 . S
C645 C641 1.393 . S
C645 C644 1.391 . S
C646 H636 0.950 . S
C646 C647 1.386 . S
C646 C648 1.391 . S
C647 C646 1.386 . S
C647 C651 1.393 . S
C648 H637 0.950 . S
C648 C646 1.391 . S
C648 C649 1.400 . S
C649 C643 1.491 . S
C649 C648 1.400 . S
C649 C650 1.398 . S
C650 H638 0.950 . S
C650 C649 1.398 . S
C650 C651 1.391 . S
C651 H639 0.950 . S
C651 C647 1.393 . S
C651 C650 1.391 . S
H652 C660 0.950 . S
H653 C665 0.950 . S
H654 C662 0.950 . S
H655 C664 0.950 . S
H656 C666 0.950 . S
H657 C668 0.950 . S
H658 C670 0.950 . S
H659 C671 0.950 . S
C660 H652 0.950 . S
C660 C661 1.386 . S
C660 C662 1.391 . S
C661 C660 1.386 . S
C661 C665 1.393 . S
C662 H654 0.950 . S
C662 C660 1.391 . S
C662 C663 1.400 . S
C663 C662 1.400 . S
C663 C664 1.398 . S
C663 C669 1.491 . S
C664 H655 0.950 . S
C664 C663 1.398 . S
C664 C665 1.391 . S
C665 H653 0.950 . S
C665 C661 1.393 . S
C665 C664 1.391 . S
C666 H656 0.950 . S
C666 C667 1.386 . S
C666 C668 1.391 . S
C667 C666 1.386 . S
C667 C671 1.393 . S
C668 H657 0.950 . S
C668 C666 1.391 . S
C668 C669 1.400 . S
C669 C663 1.491 . S
C669 C668 1.400 . S
C669 C670 1.398 . S
C670 H658 0.950 . S
C670 C669 1.398 . S
C670 C671 1.391 . S
C671 H659 0.950 . S
C671 C667 1.393 . S
C671 C670 1.391 . S
H672 C680 0.950 . S
H673 C685 0.950 . S
H674 C682 0.950 . S
H675 C684 0.950 . S
H676 C686 0.950 . S
H677 C688 0.950 . S
H678 C690 0.950 . S
H679 C691 0.950 . S
C680 H672 0.950 . S
C680 C681 1.386 . S
C680 C682 1.391 . S
C681 C680 1.386 . S
C681 C685 1.393 . S
C682 H674 0.950 . S
C682 C680 1.391 . S
C682 C683 1.400 . S
C683 C682 1.400 . S
C683 C684 1.398 . S
C683 C689 1.491 . S
C684 H675 0.950 . S
C684 C683 1.398 . S
C684 C685 1.391 . S
C685 H673 0.950 . S
C685 C681 1.393 . S
C685 C684 1.391 . S
C686 H676 0.950 . S
C686 C687 1.386 . S
C686 C688 1.391 . S
C687 C686 1.386 . S
C687 C691 1.393 . S
C688 H677 0.950 . S
C688 C686 1.391 . S
C688 C689 1.400 . S
C689 C683 1.491 . S
C689 C688 1.400 . S
C689 C690 1.398 . S
C690 H678 0.950 . S
C690 C689 1.398 . S
C690 C691 1.391 . S
C691 H679 0.950 . S
C691 C687 1.393 . S
C691 C690 1.391 . S
H692 C700 0.950 . S
H693 C705 0.950 . S
H694 C702 0.950 . S
H695 C704 0.950 . S
H696 C706 0.950 . S
H697 C708 0.950 . S
H698 C710 0.950 . S
H699 C711 0.950 . S
C700 H692 0.950 . S
C700 C701 1.386 . S
C700 C702 1.391 . S
C701 C700 1.386 . S
C701 C705 1.393 . S
C702 H694 0.950 . S
C702 C700 1.391 . S
C702 C703 1.400 . S
C703 C702 1.400 . S
C703 C704 1.398 . S
C703 C709 1.491 . S
C704 H695 0.950 . S
C704 C703 1.398 . S
C704 C705 1.391 . S
C705 H693 0.950 . S
C705 C701 1.393 . S
C705 C704 1.391 . S
C706 H696 0.950 . S
C706 C707 1.386 . S
C706 C708 1.391 . S
C707 C706 1.386 . S
C707 C711 1.393 . S
C708 H697 0.950 . S
C708 C706 1.391 . S
C708 C709 1.400 . S
C709 C703 1.491 . S
C709 C708 1.400 . S
C709 C710 1.398 . S
C710 H698 0.950 . S
C710 C709 1.398 . S
C710 C711 1.391 . S
C711 H699 0.950 . S
C711 C707 1.393 . S
C711 C710 1.391 . S
H712 C720 0.950 . S
H713 C725 0.950 . S
H714 C722 0.950 . S
H715 C724 0.950 . S
H716 C726 0.950 . S
H717 C728 0.950 . S
H718 C730 0.950 . S
H719 C731 0.950 . S
C720 H712 0.950 . S
C720 C721 1.386 . S
C720 C722 1.391 . S
C721 C720 1.386 . S
C721 C725 1.393 . S
C722 H714 0.950 . S
C722 C720 1.391 . S
C722 C723 1.400 . S
C723 C722 1.400 . S
C723 C724 1.398 . S
C723 C729 1.491 . S
C724 H715 0.950 . S
C724 C723 1.398 . S
C724 C725 1.391 . S
C725 H713 0.950 . S
C725 C721 1.393 . S
C725 C724 1.391 . S
C726 H716 0.950 . S
C726 C727 1.386 . S
C726 C728 1.391 . S
C727 C726 1.386 . S
C727 C731 1.393 . S
C728 H717 0.950 . S
C728 C726 1.391 . S
C728 C729 1.400 . S
C729 C723 1.491 . S
C729 C728 1.400 . S
C729 C730 1.398 . S
C730 H718 0.950 . S
C730 C729 1.398 . S
C730 C731 1.391 . S
C731 H719 0.950 . S
C731 C727 1.393 . S
C731 C730 1.391 . S
H732 C740 0.950 . S
H733 C745 0.950 . S
H734 C742 0.950 . S
H735 C744 0.950 . S
H736 C746 0.950 . S
H737 C748 0.950 . S
H738 C750 0.950 . S
H739 C751 0.950 . S
C740 H732 0.950 . S
C740 C741 1.386 . S
C740 C742 1.391 . S
C741 C740 1.386 . S
C741 C745 1.393 . S
C742 H734 0.950 . S
C742 C740 1.391 . S
C742 C743 1.400 . S
C743 C742 1.400 . S
C743 C744 1.398 . S
C743 C749 1.491 . S
C744 H735 0.950 . S
C744 C743 1.398 . S
C744 C745 1.391 . S
C745 H733 0.950 . S
C745 C741 1.393 . S
C745 C744 1.391 . S
C746 H736 0.950 . S
C746 C747 1.386 . S
C746 C748 1.391 . S
C747 C746 1.386 . S
C747 C751 1.393 . S
C748 H737 0.950 . S
C748 C746 1.391 . S
C748 C749 1.400 . S
C749 C743 1.491 . S
C749 C748 1.400 . S
C749 C750 1.398 . S
C750 H738 0.950 . S
C750 C749 1.398 . S
C750 C751 1.391 . S
C751 H739 0.950 . S
C751 C747 1.393 . S
C751 C750 1.391 . S
H752 C760 0.950 . S
H753 C765 0.950 . S
H754 C762 0.950 . S
H755 C764 0.950 . S
H756 C766 0.950 . S
H757 C768 0.950 . S
H758 C770 0.950 . S
H759 C771 0.950 . S
C760 H752 0.950 . S
C760 C761 1.386 . S
C760 C762 1.391 . S
C761 C760 1.386 . S
C761 C765 1.393 . S
C762 H754 0.950 . S
C762 C760 1.391 . S
C762 C763 1.400 . S
C763 C762 1.400 . S
C763 C764 1.398 . S
C763 C769 1.491 . S
C764 H755 0.950 . S
C764 C763 1.398 . S
C764 C765 1.391 . S
C765 H753 0.950 . S
C765 C761 1.393 . S
C765 C764 1.391 . S
C766 H756 0.950 . S
C766 C767 1.386 . S
C766 C768 1.391 . S
C767 C766 1.386 . S
C767 C771 1.393 . S
C768 H757 0.950 . S
C768 C766 1.391 . S
C768 C769 1.400 . S
C769 C763 1.491 . S
C769 C768 1.400 . S
C769 C770 1.398 . S
C770 H758 0.950 . S
C770 C769 1.398 . S
C770 C771 1.391 . S
C771 H759 0.950 . S
C771 C767 1.393 . S
C771 C770 1.391 . S
H772 C780 0.950 . S
H773 C785 0.950 . S
H774 C782 0.950 . S
H775 C784 0.950 . S
H776 C786 0.950 . S
H777 C788 0.950 . S
H778 C790 0.950 . S
H779 C791 0.950 . S
C780 H772 0.950 . S
C780 C781 1.386 . S
C780 C782 1.391 . S
C781 C780 1.386 . S
C781 C785 1.393 . S
C782 H774 0.950 . S
C782 C780 1.391 . S
C782 C783 1.400 . S
C783 C782 1.400 . S
C783 C784 1.398 . S
C783 C789 1.491 . S
C784 H775 0.950 . S
C784 C783 1.398 . S
C784 C785 1.391 . S
C785 H773 0.950 . S
C785 C781 1.393 . S
C785 C784 1.391 . S
C786 H776 0.950 . S
C786 C787 1.386 . S
C786 C788 1.391 . S
C787 C786 1.386 . S
C787 C791 1.393 . S
C788 H777 0.950 . S
C788 C786 1.391 . S
C788 C789 1.400 . S
C789 C783 1.491 . S
C789 C788 1.400 . S
C789 C790 1.398 . S
C790 H778 0.950 . S
C790 C789 1.398 . S
C790 C791 1.391 . S
C791 H779 0.950 . S
C791 C787 1.393 . S
C791 C790 1.391 . S
H792 C800 0.950 . S
H793 C805 0.950 . S
H794 C802 0.950 . S
H795 C804 0.950 . S
H796 C806 0.950 . S
H797 C808 0.950 . S
H798 C810 0.950 . S
H799 C811 0.950 . S
C800 H792 0.950 . S
C800 C801 1.386 . S
C800 C802 1.391 . S
C801 C800 1.386 . S
C801 C805 1.393 . S
C802 H794 0.950 . S
C802 C800 1.391 . S
C802 C803 1.400 . S
C803 C802 1.400 . S
C803 C804 1.398 . S
C803 C809 1.491 . S
C804 H795 0.950 . S
C804 C803 1.398 . S
C804 C805 1.391 . S
C805 H793 0.950 . S
C805 C801 1.393 . S
C805 C804 1.391 . S
C806 H796 0.950 . S
C806 C807 1.386 . S
C806 C808 1.391 . S
C807 C806 1.386 . S
C807 C811 1.393 . S
C808 H797 0.950 . S
C808 C806 1.391 . S
C808 C809 1.400 . S
C809 C803 1.491 . S
C809 C808 1.400 . S
C809 C810 1.398 . S
C810 H798 0.950 . S
C810 C809 1.398 . S
C810 C811 1.391 . S
C811 H799 0.950 . S
C811 C807 1.393 . S
C811 C810 1.391 . S
H812 C820 0.950 . S
H813 C825 0.950 . S
H814 C822 0.950 . S
H815 C824 0.950 . S
H816 C826 0.950 . S
H817 C828 0.950 . S
H818 C830 0.950 . S
H819 C831 0.950 . S
C820 H812 0.950 . S
C820 C821 1.386 . S
C820 C822 1.391 . S
C821 C820 1.386 . S
C821 C825 1.393 . S
C822 H814 0.950 . S
C822 C820 1.391 . S
C822 C823 1.400 . S
C823 C822 1.400 . S
C823 C824 1.398 . S
C823 C829 1.491 . S
C824 H815 0.950 . S
C824 C823 1.398 . S
C824 C825 1.391 . S
C825 H813 0.950 . S
C825 C821 1.393 . S
C825 C824 1.391 . S
C826 H816 0.950 . S
C826 C827 1.386 . S
C826 C828 1.391 . S
C827 C826 1.386 . S
C827 C831 1.393 . S
C828 H817 0.950 . S
C828 C826 1.391 . S
C828 C829 1.400 . S
C829 C823 1.491 . S
C829 C828 1.400 . S
C829 C830 1.398 . S
C830 H818 0.950 . S
C830 C829 1.398 . S
C830 C831 1.391 . S
C831 H819 0.950 . S
C831 C827 1.393 . S
C831 C830 1.391 . S
H832 C840 0.950 . S
H833 C845 0.950 . S
H834 C842 0.950 . S
H835 C844 0.950 . S
H836 C846 0.950 . S
H837 C848 0.950 . S
H838 C850 0.950 . S
H839 C851 0.950 . S
C840 H832 0.950 . S
C840 C841 1.386 . S
C840 C842 1.391 . S
C841 C840 1.386 . S
C841 C845 1.393 . S
C842 H834 0.950 . S
C842 C840 1.391 . S
C842 C843 1.400 . S
C843 C842 1.400 . S
C843 C844 1.398 . S
C843 C849 1.491 . S
C844 H835 0.950 . S
C844 C843 1.398 . S
C844 C845 1.391 . S
C845 H833 0.950 . S
C845 C841 1.393 . S
C845 C844 1.391 . S
C846 H836 0.950 . S
C846 C847 1.386 . S
C846 C848 1.391 . S
C847 C846 1.386 . S
C847 C851 1.393 . S
C848 H837 0.950 . S
C848 C846 1.391 . S
C848 C849 1.400 . S
C849 C843 1.491 . S
C849 C848 1.400 . S
C849 C850 1.398 . S
C850 H838 0.950 . S
C850 C849 1.398 . S
C850 C851 1.391 . S
C851 H839 0.950 . S
C851 C847 1.393 . S
C851 C850 1.391 . S
H852 C860 0.950 . S
H853 C865 0.950 . S
H854 C862 0.950 . S
H855 C864 0.950 . S
H856 C866 0.950 . S
H857 C868 0.950 . S
H858 C870 0.950 . S
H859 C871 0.950 . S
C860 H852 0.950 . S
C860 C861 1.386 . S
C860 C862 1.391 . S
C861 C860 1.386 . S
C861 C865 1.393 . S
C862 H854 0.950 . S
C862 C860 1.391 . S
C862 C863 1.400 . S
C863 C862 1.400 . S
C863 C864 1.398 . S
C863 C869 1.491 . S
C864 H855 0.950 . S
C864 C863 1.398 . S
C864 C865 1.391 . S
C865 H853 0.950 . S
C865 C861 1.393 . S
C865 C864 1.391 . S
C866 H856 0.950 . S
C866 C867 1.386 . S
C866 C868 1.391 . S
C867 C866 1.386 . S
C867 C871 1.393 . S
C868 H857 0.950 . S
C868 C866 1.391 . S
C868 C869 1.400 . S
C869 C863 1.491 . S
C869 C868 1.400 . S
C869 C870 1.398 . S
C870 H858 0.950 . S
C870 C869 1.398 . S
C870 C871 1.391 . S
C871 H859 0.950 . S
C871 C867 1.393 . S
C871 C870 1.391 . S
H872 C880 0.950 . S
H873 C885 0.950 . S
H874 C882 0.950 . S
H875 C884 0.950 . S
H876 C886 0.950 . S
H877 C888 0.950 . S
H878 C890 0.950 . S
H879 C891 0.950 . S
C880 H872 0.950 . S
C880 C881 1.386 . S
C880 C882 1.391 . S
C881 C880 1.386 . S
C881 C885 1.393 . S
C882 H874 0.950 . S
C882 C880 1.391 . S
C882 C883 1.400 . S
C883 C882 1.400 . S
C883 C884 1.398 . S
C883 C889 1.491 . S
C884 H875 0.950 . S
C884 C883 1.398 . S
C884 C885 1.391 . S
C885 H873 0.950 . S
C885 C881 1.393 . S
C885 C884 1.391 . S
C886 H876 0.950 . S
C886 C887 1.386 . S
C886 C888 1.391 . S
C887 C886 1.386 . S
C887 C891 1.393 . S
C888 H877 0.950 . S
C888 C886 1.391 . S
C888 C889 1.400 . S
C889 C883 1.491 . S
C889 C888 1.400 . S
C889 C890 1.398 . S
C890 H878 0.950 . S
C890 C889 1.398 . S
C890 C891 1.391 . S
C891 H879 0.950 . S
C891 C887 1.393 . S
C891 C890 1.391 . S
H892 C900 0.950 . S
H893 C905 0.950 . S
H894 C902 0.950 . S
H895 C904 0.950 . S
H896 C906 0.950 . S
H897 C908 0.950 . S
H898 C910 0.950 . S
H899 C911 0.950 . S
C900 H892 0.950 . S
C900 C901 1.386 . S
C900 C902 1.391 . S
C901 C900 1.386 . S
C901 C905 1.393 . S
C902 H894 0.950 . S
C902 C900 1.391 . S
C902 C903 1.400 . S
C903 C902 1.400 . S
C903 C904 1.398 . S
C903 C909 1.491 . S
C904 H895 0.950 . S
C904 C903 1.398 . S
C904 C905 1.391 . S
C905 H893 0.950 . S
C905 C901 1.393 . S
C905 C904 1.391 . S
C906 H896 0.950 . S
C906 C907 1.386 . S
C906 C908 1.391 . S
C907 C906 1.386 . S
C907 C911 1.393 . S
C908 H897 0.950 . S
C908 C906 1.391 . S
C908 C909 1.400 . S
C909 C903 1.491 . S
C909 C908 1.400 . S
C909 C910 1.398 . S
C910 H898 0.950 . S
C910 C909 1.398 . S
C910 C911 1.391 . S
C911 H899 0.950 . S
C911 C907 1.393 . S
C911 C910 1.391 . S
H912 C920 0.950 . S
H913 C925 0.950 . S
H914 C922 0.950 . S
H915 C924 0.950 . S
H916 C926 0.950 . S
H917 C928 0.950 . S
H918 C930 0.950 . S
H919 C931 0.950 . S
C920 H912 0.950 . S
C920 C921 1.386 . S
C920 C922 1.391 . S
C921 C920 1.386 . S
C921 C925 1.393 . S
C922 H914 0.950 . S
C922 C920 1.391 . S
C922 C923 1.400 . S
C923 C922 1.400 . S
C923 C924 1.398 . S
C923 C929 1.491 . S
C924 H915 0.950 . S
C924 C923 1.398 . S
C924 C925 1.391 . S
C925 H913 0.950 . S
C925 C921 1.393 . S
C925 C924 1.391 . S
C926 H916 0.950 . S
C926 C927 1.386 . S
C926 C928 1.391 . S
C927 C926 1.386 . S
C927 C931 1.393 . S
C928 H917 0.950 . S
C928 C926 1.391 . S
C928 C929 1.400 . S
C929 C923 1.491 . S
C929 C928 1.400 . S
C929 C930 1.398 . S
C930 H918 0.950 . S
C930 C929 1.398 . S
C930 C931 1.391 . S
C931 H919 0.950 . S
C931 C927 1.393 . S
C931 C930 1.391 . S
H932 C940 0.950 . S
H933 C945 0.950 . S
H934 C942 0.950 . S
H935 C944 0.950 . S
H936 C946 0.950 . S
H937 C948 0.950 . S
H938 C950 0.950 . S
H939 C951 0.950 . S
C940 H932 0.950 . S
C940 C941 1.386 . S
C940 C942 1.391 . S
C941 C940 1.386 . S
C941 C945 1.393 . S
C942 H934 0.950 . S
C942 C940 1.391 . S
C942 C943 1.400 . S
C943 C942 1.400 . S
C943 C944 1.398 . S
C943 C949 1.491 . S
C944 H935 0.950 . S
C944 C943 1.398 . S
C944 C945 1.391 . S
C945 H933 0.950 . S
C945 C941 1.393 . S
C945 C944 1.391 . S
C946 H936 0.950 . S
C946 C947 1.386 . S
C946 C948 1.391 . S
C947 C946 1.386 . S
C947 C951 1.393 . S
C948 H937 0.950 . S
C948 C946 1.391 . S
C948 C949 1.400 . S
C949 C943 1.491 . S
C949 C948 1.400 . S
C949 C950 1.398 . S
C950 H938 0.950 . S
C950 C949 1.398 . S
C950 C951 1.391 . S
C951 H939 0.950 . S
C951 C947 1.393 . S
C951 C950 1.391 . S
H952 C960 0.950 . S
H953 C965 0.950 . S
H954 C962 0.950 . S
H955 C964 0.950 . S
H956 C966 0.950 . S
H957 C968 0.950 . S
H958 C970 0.950 . S
H959 C971 0.950 . S
C960 H952 0.950 . S
C960 C961 1.386 . S
C960 C962 1.391 . S
C961 C960 1.386 . S
C961 C965 1.393 . S
C962 H954 0.950 . S
C962 C960 1.391 . S
C962 C963 1.400 . S
C963 C962 1.400 . S
C963 C964 1.398 . S
C963 C969 1.491 . S
C964 H955 0.950 . S
C964 C963 1.398 . S
C964 C965 1.391 . S
C965 H953 0.950 . S
C965 C961 1.393 . S
C965 C964 1.391 . S
C966 H956 0.950 . S
C966 C967 1.386 . S
C966 C968 1.391 . S
C967 C966 1.386 . S
C967 C971 1.393 . S
C968 H957 0.950 . S
C968 C966 1.391 . S
C968 C969 1.400 . S
C969 C963 1.491 . S
C969 C968 1.400 . S
C969 C970 1.398 . S
C970 H958 0.950 . S
C970 C969 1.398 . S
C970 C971 1.391 . S
C971 H959 0.950 . S
C971 C967 1.393 . S
C971 C970 1.391 . S
H972 C980 0.950 . S
H973 C985 0.950 . S
H974 C982 0.950 . S
H975 C984 0.950 . S
H976 C986 0.950 . S
H977 C988 0.950 . S
H978 C990 0.950 . S
H979 C991 0.950 . S
C980 H972 0.950 . S
C980 C981 1.386 . S
C980 C982 1.391 . S
C981 C980 1.386 . S
C981 C985 1.393 . S
C982 H974 0.950 . S
C982 C980 1.391 . S
C982 C983 1.400 . S
C983 C982 1.400 . S
C983 C984 1.398 . S
C983 C989 1.491 . S
C984 H975 0.950 . S
C984 C983 1.398 . S
C984 C985 1.391 . S
C985 H973 0.950 . S
C985 C981 1.393 . S
C985 C984 1.391 . S
C986 H976 0.950 . S
C986 C987 1.386 . S
C986 C988 1.391 . S
C987 C986 1.386 . S
C987 C991 1.393 . S
C988 H977 0.950 . S
C988 C986 1.391 . S
C988 C989 1.400 . S
C989 C983 1.491 . S
C989 C988 1.400 . S
C989 C990 1.398 . S
C990 H978 0.950 . S
C990 C989 1.398 . S
C990 C991 1.391 . S
C991 H979 0.950 . S
C991 C987 1.393 . S
C991 C990 1.391 . S
H992 C1000 0.950 . S
H993 C1005 0.950 . S
H994 C1002 0.950 . S
H995 C1004 0.950 . S
H996 C1006 0.950 . S
H997 C1008 0.950 . S
H998 C1010 0.950 . S
H999 C1011 0.950 . S
C1000 H992 0.950 . S
C1000 C1001 1.386 . S
C1000 C1002 1.391 . S
C1001 C1000 1.386 . S
C1001 C1005 1.393 . S
C1002 H994 0.950 . S
C1002 C1000 1.391 . S
C1002 C1003 1.400 . S
C1003 C1002 1.400 . S
C1003 C1004 1.398 . S
C1003 C1009 1.491 . S
C1004 H995 0.950 . S
C1004 C1003 1.398 . S
C1004 C1005 1.391 . S
C1005 H993 0.950 . S
C1005 C1001 1.393 . S
C1005 C1004 1.391 . S
C1006 H996 0.950 . S
C1006 C1007 1.386 . S
C1006 C1008 1.391 . S
C1007 C1006 1.386 . S
C1007 C1011 1.393 . S
C1008 H997 0.950 . S
C1008 C1006 1.391 . S
C1008 C1009 1.400 . S
C1009 C1003 1.491 . S
C1009 C1008 1.400 . S
C1009 C1010 1.398 . S
C1010 H998 0.950 . S
C1010 C1009 1.398 . S
C1010 C1011 1.391 . S
C1011 H999 0.950 . S
C1011 C1007 1.393 . S
C1011 C1010 1.391 . S
H1012 C1020 0.950 . S
H1013 C1025 0.950 . S
H1014 C1022 0.950 . S
H1015 C1024 0.950 . S
H1016 C1026 0.950 . S
H1017 C1028 0.950 . S
H1018 C1030 0.950 . S
H1019 C1031 0.950 . S
C1020 H1012 0.950 . S
C1020 C1021 1.386 . S
C1020 C1022 1.391 . S
C1021 C1020 1.386 . S
C1021 C1025 1.393 . S
C1022 H1014 0.950 . S
C1022 C1020 1.391 . S
C1022 C1023 1.400 . S
C1023 C1022 1.400 . S
C1023 C1024 1.398 . S
C1023 C1029 1.491 . S
C1024 H1015 0.950 . S
C1024 C1023 1.398 . S
C1024 C1025 1.391 . S
C1025 H1013 0.950 . S
C1025 C1021 1.393 . S
C1025 C1024 1.391 . S
C1026 H1016 0.950 . S
C1026 C1027 1.386 . S
C1026 C1028 1.391 . S
C1027 C1026 1.386 . S
C1027 C1031 1.393 . S
C1028 H1017 0.950 . S
C1028 C1026 1.391 . S
C1028 C1029 1.400 . S
C1029 C1023 1.491 . S
C1029 C1028 1.400 . S
C1029 C1030 1.398 . S
C1030 H1018 0.950 . S
C1030 C1029 1.398 . S
C1030 C1031 1.391 . S
C1031 H1019 0.950 . S
C1031 C1027 1.393 . S
C1031 C1030 1.391 . S
H1032 C1040 0.950 . S
H1033 C1045 0.950 . S
H1034 C1042 0.950 . S
H1035 C1044 0.950 . S
H1036 C1046 0.950 . S
H1037 C1048 0.950 . S
H1038 C1050 0.950 . S
H1039 C1051 0.950 . S
C1040 H1032 0.950 . S
C1040 C1041 1.386 . S
C1040 C1042 1.391 . S
C1041 C1040 1.386 . S
C1041 C1045 1.393 . S
C1042 H1034 0.950 . S
C1042 C1040 1.391 . S
C1042 C1043 1.400 . S
C1043 C1042 1.400 . S
C1043 C1044 1.398 . S
C1043 C1049 1.491 . S
C1044 H1035 0.950 . S
C1044 C1043 1.398 . S
C1044 C1045 1.391 . S
C1045 H1033 0.950 . S
C1045 C1041 1.393 . S
C1045 C1044 1.391 . S
C1046 H1036 0.950 . S
C1046 C1047 1.386 . S
C1046 C1048 1.391 . S
C1047 C1046 1.386 . S
C1047 C1051 1.393 . S
C1048 H1037 0.950 . S
C1048 C1046 1.391 . S
C1048 C1049 1.400 . S
C1049 C1043 1.491 . S
C1049 C1048 1.400 . S
C1049 C1050 1.398 . S
C1050 H1038 0.950 . S
C1050 C1049 1.398 . S
C1050 C1051 1.391 . S
C1051 H1039 0.950 . S
C1051 C1047 1.393 . S
C1051 C1050 1.391 . S
H1052 C1060 0.950 . S
H1053 C1065 0.950 . S
H1054 C1062 0.950 . S
H1055 C1064 0.950 . S
H1056 C1066 0.950 . S
H1057 C1068 0.950 . S
H1058 C1070 0.950 . S
H1059 C1071 0.950 . S
C1060 H1052 0.950 . S
C1060 C1061 1.386 . S
C1060 C1062 1.391 . S
C1061 C1060 1.386 . S
C1061 C1065 1.393 . S
C1062 H1054 0.950 . S
C1062 C1060 1.391 . S
C1062 C1063 1.400 . S
C1063 C1062 1.400 . S
C1063 C1064 1.398 . S
C1063 C1069 1.491 . S
C1064 H1055 0.950 . S
C1064 C1063 1.398 . S
C1064 C1065 1.391 . S
C1065 H1053 0.950 . S
C1065 C1061 1.393 . S
C1065 C1064 1.391 . S
C1066 H1056 0.950 . S
C1066 C1067 1.386 . S
C1066 C1068 1.391 . S
C1067 C1066 1.386 . S
C1067 C1071 1.393 . S
C1068 H1057 0.950 . S
C1068 C1066 1.391 . S
C1068 C1069 1.400 . S
C1069 C1063 1.491 . S
C1069 C1068 1.400 . S
C1069 C1070 1.398 . S
C1070 H1058 0.950 . S
C1070 C1069 1.398 . S
C1070 C1071 1.391 . S
C1071 H1059 0.950 . S
C1071 C1067 1.393 . S
C1071 C1070 1.391 . S
H1072 C1080 0.950 . S
H1073 C1085 0.950 . S
H1074 C1082 0.950 . S
H1075 C1084 0.950 . S
H1076 C1086 0.950 . S
H1077 C1088 0.950 . S
H1078 C1090 0.950 . S
H1079 C1091 0.950 . S
C1080 H1072 0.950 . S
C1080 C1081 1.386 . S
C1080 C1082 1.391 . S
C1081 C1080 1.386 . S
C1081 C1085 1.393 . S
C1082 H1074 0.950 . S
C1082 C1080 1.391 . S
C1082 C1083 1.400 . S
C1083 C1082 1.400 . S
C1083 C1084 1.398 . S
C1083 C1089 1.491 . S
C1084 H1075 0.950 . S
C1084 C1083 1.398 . S
C1084 C1085 1.391 . S
C1085 H1073 0.950 . S
C1085 C1081 1.393 . S
C1085 C1084 1.391 . S
C1086 H1076 0.950 . S
C1086 C1087 1.386 . S
C1086 C1088 1.391 . S
C1087 C1086 1.386 . S
C1087 C1091 1.393 . S
C1088 H1077 0.950 . S
C1088 C1086 1.391 . S
C1088 C1089 1.400 . S
C1089 C1083 1.491 . S
C1089 C1088 1.400 . S
C1089 C1090 1.398 . S
C1090 H1078 0.950 . S
C1090 C1089 1.398 . S
C1090 C1091 1.391 . S
C1091 H1079 0.950 . S
C1091 C1087 1.393 . S
C1091 C1090 1.391 . S
H1092 C1100 0.950 . S
H1093 C1105 0.950 . S
H1094 C1102 0.950 . S
H1095 C1104 0.950 . S
H1096 C1106 0.950 . S
H1097 C1108 0.950 . S
H1098 C1110 0.950 . S
H1099 C1111 0.950 . S
C1100 H1092 0.950 . S
C1100 C1101 1.386 . S
C1100 C1102 1.391 . S
C1101 C1100 1.386 . S
C1101 C1105 1.393 . S
C1102 H1094 0.950 . S
C1102 C1100 1.391 . S
C1102 C1103 1.400 . S
C1103 C1102 1.400 . S
C1103 C1104 1.398 . S
C1103 C1109 1.491 . S
C1104 H1095 0.950 . S
C1104 C1103 1.398 . S
C1104 C1105 1.391 . S
C1105 H1093 0.950 . S
C1105 C1101 1.393 . S
C1105 C1104 1.391 . S
C1106 H1096 0.950 . S
C1106 C1107 1.386 . S
C1106 C1108 1.391 . S
C1107 C1106 1.386 . S
C1107 C1111 1.393 . S
C1108 H1097 0.950 . S
C1108 C1106 1.391 . S
C1108 C1109 1.400 . S
C1109 C1103 1.491 . S
C1109 C1108 1.400 . S
C1109 C1110 1.398 . S
C1110 H1098 0.950 . S
C1110 C1109 1.398 . S
C1110 C1111 1.391 . S
C1111 H1099 0.950 . S
C1111 C1107 1.393 . S
C1111 C1110 1.391 . S
H1112 C1120 0.950 . S
H1113 C1125 0.950 . S
H1114 C1122 0.950 . S
H1115 C1124 0.950 . S
H1116 C1126 0.950 . S
H1117 C1128 0.950 . S
H1118 C1130 0.950 . S
H1119 C1131 0.950 . S
C1120 H1112 0.950 . S
C1120 C1121 1.386 . S
C1120 C1122 1.391 . S
C1121 C1120 1.386 . S
C1121 C1125 1.393 . S
C1122 H1114 0.950 . S
C1122 C1120 1.391 . S
C1122 C1123 1.400 . S
C1123 C1122 1.400 . S
C1123 C1124 1.398 . S
C1123 C1129 1.491 . S
C1124 H1115 0.950 . S
C1124 C1123 1.398 . S
C1124 C1125 1.391 . S
C1125 H1113 0.950 . S
C1125 C1121 1.393 . S
C1125 C1124 1.391 . S
C1126 H1116 0.950 . S
C1126 C1127 1.386 . S
C1126 C1128 1.391 . S
C1127 C1126 1.386 . S
C1127 C1131 1.393 . S
C1128 H1117 0.950 . S
C1128 C1126 1.391 . S
C1128 C1129 1.400 . S
C1129 C1123 1.491 . S
C1129 C1128 1.400 . S
C1129 C1130 1.398 . S
C1130 H1118 0.950 . S
C1130 C1129 1.398 . S
C1130 C1131 1.391 . S
C1131 H1119 0.950 . S
C1131 C1127 1.393 . S
C1131 C1130 1.391 . S
H1132 C1140 0.950 . S
H1133 C1145 0.950 . S
H1134 C1142 0.950 . S
H1135 C1144 0.950 . S
H1136 C1146 0.950 . S
H1137 C1148 0.950 . S
H1138 C1150 0.950 . S
H1139 C1151 0.950 . S
C1140 H1132 0.950 . S
C1140 C1141 1.386 . S
C1140 C1142 1.391 . S
C1141 C1140 1.386 . S
C1141 C1145 1.393 . S
C1142 H1134 0.950 . S
C1142 C1140 1.391 . S
C1142 C1143 1.400 . S
C1143 C1142 1.400 . S
C1143 C1144 1.398 . S
C1143 C1149 1.491 . S
C1144 H1135 0.950 . S
C1144 C1143 1.398 . S
C1144 C1145 1.391 . S
C1145 H1133 0.950 . S
C1145 C1141 1.393 . S
C1145 C1144 1.391 . S
C1146 H1136 0.950 . S
C1146 C1147 1.386 . S
C1146 C1148 1.391 . S
C1147 C1146 1.386 . S
C1147 C1151 1.393 . S
C1148 H1137 0.950 . S
C1148 C1146 1.391 . S
C1148 C1149 1.400 . S
C1149 C1143 1.491 . S
C1149 C1148 1.400 . S
C1149 C1150 1.398 . S
C1150 H1138 0.950 . S
C1150 C1149 1.398 . S
C1150 C1151 1.391 . S
C1151 H1139 0.950 . S
C1151 C1147 1.393 . S
C1151 C1150 1.391 . S
H1152 C1160 0.950 . S
H1153 C1165 0.950 . S
H1154 C1162 0.950 . S
H1155 C1164 0.950 . S
H1156 C1166 0.950 . S
H1157 C1168 0.950 . S
H1158 C1170 0.950 . S
H1159 C1171 0.950 . S
C1160 H1152 0.950 . S
C1160 C1161 1.386 . S
C1160 C1162 1.391 . S
C1161 C1160 1.386 . S
C1161 C1165 1.393 . S
C1162 H1154 0.950 . S
C1162 C1160 1.391 . S
C1162 C1163 1.400 . S
C1163 C1162 1.400 . S
C1163 C1164 1.398 . S
C1163 C1169 1.491 . S
C1164 H1155 0.950 . S
C1164 C1163 1.398 . S
C1164 C1165 1.391 . S
C1165 H1153 0.950 . S
C1165 C1161 1.393 . S
C1165 C1164 1.391 . S
C1166 H1156 0.950 . S
C1166 C1167 1.386 . S
C1166 C1168 1.391 . S
C1167 C1166 1.386 . S
C1167 C1171 1.393 . S
C1168 H1157 0.950 . S
C1168 C1166 1.391 . S
C1168 C1169 1.400 . S
C1169 C1163 1.491 . S
C1169 C1168 1.400 . S
C1169 C1170 1.398 . S
C1170 H1158 0.950 . S
C1170 C1169 1.398 . S
C1170 C1171 1.391 . S
C1171 H1159 0.950 . S
C1171 C1167 1.393 . S
C1171 C1170 1.391 . S
H1172 C1180 0.950 . S
H1173 C1185 0.950 . S
H1174 C1182 0.950 . S
H1175 C1184 0.950 . S
H1176 C1186 0.950 . S
H1177 C1188 0.950 . S
H1178 C1190 0.950 . S
H1179 C1191 0.950 . S
C1180 H1172 0.950 . S
C1180 C1181 1.386 . S
C1180 C1182 1.391 . S
C1181 C1180 1.386 . S
C1181 C1185 1.393 . S
C1182 H1174 0.950 . S
C1182 C1180 1.391 . S
C1182 C1183 1.400 . S
C1183 C1182 1.400 . S
C1183 C1184 1.398 . S
C1183 C1189 1.491 . S
C1184 H1175 0.950 . S
C1184 C1183 1.398 . S
C1184 C1185 1.391 . S
C1185 H1173 0.950 . S
C1185 C1181 1.393 . S
C1185 C1184 1.391 . S
C1186 H1176 0.950 . S
C1186 C1187 1.386 . S
C1186 C1188 1.391 . S
C1187 C1186 1.386 . S
C1187 C1191 1.393 . S
C1188 H1177 0.950 . S
C1188 C1186 1.391 . S
C1188 C1189 1.400 . S
C1189 C1183 1.491 . S
C1189 C1188 1.400 . S
C1189 C1190 1.398 . S
C1190 H1178 0.950 . S
C1190 C1189 1.398 . S
C1190 C1191 1.391 . S
C1191 H1179 0.950 . S
C1191 C1187 1.393 . S
C1191 C1190 1.391 . S
H1192 C1200 0.950 . S
H1193 C1205 0.950 . S
H1194 C1202 0.950 . S
H1195 C1204 0.950 . S
H1196 C1206 0.950 . S
H1197 C1208 0.950 . S
H1198 C1210 0.950 . S
H1199 C1211 0.950 . S
C1200 H1192 0.950 . S
C1200 C1201 1.386 . S
C1200 C1202 1.391 . S
C1201 C1200 1.386 . S
C1201 C1205 1.393 . S
C1202 H1194 0.950 . S
C1202 C1200 1.391 . S
C1202 C1203 1.400 . S
C1203 C1202 1.400 . S
C1203 C1204 1.398 . S
C1203 C1209 1.491 . S
C1204 H1195 0.950 . S
C1204 C1203 1.398 . S
C1204 C1205 1.391 . S
C1205 H1193 0.950 . S
C1205 C1201 1.393 . S
C1205 C1204 1.391 . S
C1206 H1196 0.950 . S
C1206 C1207 1.386 . S
C1206 C1208 1.391 . S
C1207 C1206 1.386 . S
C1207 C1211 1.393 . S
C1208 H1197 0.950 . S
C1208 C1206 1.391 . S
C1208 C1209 1.400 . S
C1209 C1203 1.491 . S
C1209 C1208 1.400 . S
C1209 C1210 1.398 . S
C1210 H1198 0.950 . S
C1210 C1209 1.398 . S
C1210 C1211 1.391 . S
C1211 H1199 0.950 . S
C1211 C1207 1.393 . S
C1211 C1210 1.391 . S
H1212 C1220 0.950 . S
H1213 C1225 0.950 . S
H1214 C1222 0.950 . S
H1215 C1224 0.950 . S
H1216 C1226 0.950 . S
H1217 C1228 0.950 . S
H1218 C1230 0.950 . S
H1219 C1231 0.950 . S
C1220 H1212 0.950 . S
C1220 C1221 1.386 . S
C1220 C1222 1.391 . S
C1221 C1220 1.386 . S
C1221 C1225 1.393 . S
C1222 H1214 0.950 . S
C1222 C1220 1.391 . S
C1222 C1223 1.400 . S
C1223 C1222 1.400 . S
C1223 C1224 1.398 . S
C1223 C1229 1.491 . S
C1224 H1215 0.950 . S
C1224 C1223 1.398 . S
C1224 C1225 1.391 . S
C1225 H1213 0.950 . S
C1225 C1221 1.393 . S
C1225 C1224 1.391 . S
C1226 H1216 0.950 . S
C1226 C1227 1.386 . S
C1226 C1228 1.391 . S
C1227 C1226 1.386 . S
C1227 C1231 1.393 . S
C1228 H1217 0.950 . S
C1228 C1226 1.391 . S
C1228 C1229 1.400 . S
C1229 C1223 1.491 . S
C1229 C1228 1.400 . S
C1229 C1230 1.398 . S
C1230 H1218 0.950 . S
C1230 C1229 1.398 . S
C1230 C1231 1.391 . S
C1231 H1219 0.950 . S
C1231 C1227 1.393 . S
C1231 C1230 1.391 . S
H1232 C1240 0.950 . S
H1233 C1245 0.950 . S
H1234 C1242 0.950 . S
H1235 C1244 0.950 . S
H1236 C1246 0.950 . S
H1237 C1248 0.950 . S
H1238 C1250 0.950 . S
H1239 C1251 0.950 . S
C1240 H1232 0.950 . S
C1240 C1241 1.386 . S
C1240 C1242 1.391 . S
C1241 C1240 1.386 . S
C1241 C1245 1.393 . S
C1242 H1234 0.950 . S
C1242 C1240 1.391 . S
C1242 C1243 1.400 . S
C1243 C1242 1.400 . S
C1243 C1244 1.398 . S
C1243 C1249 1.491 . S
C1244 H1235 0.950 . S
C1244 C1243 1.398 . S
C1244 C1245 1.391 . S
C1245 H1233 0.950 . S
C1245 C1241 1.393 . S
C1245 C1244 1.391 . S
C1246 H1236 0.950 . S
C1246 C1247 1.386 . S
C1246 C1248 1.391 . S
C1247 C1246 1.386 . S
C1247 C1251 1.393 . S
C1248 H1237 0.950 . S
C1248 C1246 1.391 . S
C1248 C1249 1.400 . S
C1249 C1243 1.491 . S
C1249 C1248 1.400 . S
C1249 C1250 1.398 . S
C1250 H1238 0.950 . S
C1250 C1249 1.398 . S
C1250 C1251 1.391 . S
C1251 H1239 0.950 . S
C1251 C1247 1.393 . S
C1251 C1250 1.391 . S
H1252 C1260 0.950 . S
H1253 C1265 0.950 . S
H1254 C1262 0.950 . S
H1255 C1264 0.950 . S
H1256 C1266 0.950 . S
H1257 C1268 0.950 . S
H1258 C1270 0.950 . S
H1259 C1271 0.950 . S
C1260 H1252 0.950 . S
C1260 C1261 1.386 . S
C1260 C1262 1.391 . S
C1261 C1260 1.386 . S
C1261 C1265 1.393 . S
C1262 H1254 0.950 . S
C1262 C1260 1.391 . S
C1262 C1263 1.400 . S
C1263 C1262 1.400 . S
C1263 C1264 1.398 . S
C1263 C1269 1.491 . S
C1264 H1255 0.950 . S
C1264 C1263 1.398 . S
C1264 C1265 1.391 . S
C1265 H1253 0.950 . S
C1265 C1261 1.393 . S
C1265 C1264 1.391 . S
C1266 H1256 0.950 . S
C1266 C1267 1.386 . S
C1266 C1268 1.391 . S
C1267 C1266 1.386 . S
C1267 C1271 1.393 . S
C1268 H1257 0.950 . S
C1268 C1266 1.391 . S
C1268 C1269 1.400 . S
C1269 C1263 1.491 . S
C1269 C1268 1.400 . S
C1269 C1270 1.398 . S
C1270 H1258 0.950 . S
C1270 C1269 1.398 . S
C1270 C1271 1.391 . S
C1271 H1259 0.950 . S
C1271 C1267 1.393 . S
C1271 C1270 1.391 . S
H1272 C1280 0.950 . S
H1273 C1285 0.950 . S
H1274 C1282 0.950 . S
H1275 C1284 0.950 . S
H1276 C1286 0.950 . S
H1277 C1288 0.950 . S
H1278 C1290 0.950 . S
H1279 C1291 0.950 . S
C1280 H1272 0.950 . S
C1280 C1281 1.386 . S
C1280 C1282 1.391 . S
C1281 C1280 1.386 . S
C1281 C1285 1.393 . S
C1282 H1274 0.950 . S
C1282 C1280 1.391 . S
C1282 C1283 1.400 . S
C1283 C1282 1.400 . S
C1283 C1284 1.398 . S
C1283 C1289 1.491 . S
C1284 H1275 0.950 . S
C1284 C1283 1.398 . S
C1284 C1285 1.391 . S
C1285 H1273 0.950 . S
C1285 C1281 1.393 . S
C1285 C1284 1.391 . S
C1286 H1276 0.950 . S
C1286 C1287 1.386 . S
C1286 C1288 1.391 . S
C1287 C1286 1.386 . S
C1287 C1291 1.393 . S
C1288 H1277 0.950 . S
C1288 C1286 1.391 . S
C1288 C1289 1.400 . S
C1289 C1283 1.491 . S
C1289 C1288 1.400 . S
C1289 C1290 1.398 . S
C1290 H1278 0.950 . S
C1290 C1289 1.398 . S
C1290 C1291 1.391 . S
C1291 H1279 0.950 . S
C1291 C1287 1.393 . S
C1291 C1290 1.391 . S
H1292 C1300 0.950 . S
H1293 C1305 0.950 . S
H1294 C1302 0.950 . S
H1295 C1304 0.950 . S
H1296 C1306 0.950 . S
H1297 C1308 0.950 . S
H1298 C1310 0.950 . S
H1299 C1311 0.950 . S
C1300 H1292 0.950 . S
C1300 C1301 1.386 . S
C1300 C1302 1.391 . S
C1301 C1300 1.386 . S
C1301 C1305 1.393 . S
C1302 H1294 0.950 . S
C1302 C1300 1.391 . S
C1302 C1303 1.400 . S
C1303 C1302 1.400 . S
C1303 C1304 1.398 . S
C1303 C1309 1.491 . S
C1304 H1295 0.950 . S
C1304 C1303 1.398 . S
C1304 C1305 1.391 . S
C1305 H1293 0.950 . S
C1305 C1301 1.393 . S
C1305 C1304 1.391 . S
C1306 H1296 0.950 . S
C1306 C1307 1.386 . S
C1306 C1308 1.391 . S
C1307 C1306 1.386 . S
C1307 C1311 1.393 . S
C1308 H1297 0.950 . S
C1308 C1306 1.391 . S
C1308 C1309 1.400 . S
C1309 C1303 1.491 . S
C1309 C1308 1.400 . S
C1309 C1310 1.398 . S
C1310 H1298 0.950 . S
C1310 C1309 1.398 . S
C1310 C1311 1.391 . S
C1311 H1299 0.950 . S
C1311 C1307 1.393 . S
C1311 C1310 1.391 . S
C367 C177 1.532 . S
C361 C9 1.552 . S
C387 C182 1.184 . S
C381 C22 1.212 . S
C407 C183 1.200 . S
C401 C49 1.202 . S
C421 C61 1.221 . S
C427 C187 1.227 . S
C441 C81 1.199 . S
C447 C190 1.185 . S
C467 C191 1.182 . S
C461 C108 1.199 . S
C481 C122 1.211 . S
C487 C168 1.205 . S
C501 C148 1.550 . S
C507 C184 1.549 . S
C527 C222 2.060 . S
C521 C18 2.053 . S
C541 C39 1.377 . S
C547 C248 1.365 . S
C567 C200 2.035 . S
C561 C58 2.049 . S
C587 C255 1.126 . S
C581 C69 1.170 . S
C601 C89 1.181 . S
C607 C209 1.148 . S
C627 C251 1.194 . S
C621 C102 1.204 . S
C641 C139 1.400 . S
C647 C215 1.395 . S
C661 C142 1.235 . S
C667 C246 1.203 . S
C681 C1 1.224 . S
C687 C254 1.219 . S
C701 C98 1.372 . S
C707 C241 1.367 . S
C727 C219 2.032 . S
C721 C119 2.057 . S
C747 C247 1.152 . S
C741 C128 1.168 . S
C761 C159 2.060 . S
C767 C214 2.045 . S
C781 C41 1.200 . S
C787 C232 1.200 . S
C807 C223 1.403 . S
C801 C78 1.406 . S
C821 C28 1.178 . S
C827 C216 1.164 . S
C841 C149 1.520 . S
C847 C278 1.475 . S
C861 C82 1.192 . S
C867 C273 1.189 . S
C887 C287 1.136 . S
C881 C109 1.172 . S
C907 C264 1.221 . S
C901 C121 1.189 . S
C921 C21 1.199 . S
C927 C280 1.172 . S
C947 C279 1.160 . S
C941 C48 1.174 . S
C961 C62 1.199 . S
C967 C283 1.207 . S
C981 C8 1.520 . S
C987 C286 1.468 . S
C1001 C158 2.063 . S
C1007 C312 2.101 . S
C1027 C328 1.412 . S
C1021 C99 1.394 . S
C1041 C118 2.066 . S
C1047 C310 2.072 . S
C1061 C129 1.200 . S
C1067 C343 1.141 . S
C1087 C319 1.170 . S
C1081 C29 1.185 . S
C1101 C42 1.222 . S
C1107 C337 1.184 . S
C1127 C315 1.384 . S
C1121 C79 1.397 . S
C1147 C350 1.198 . S
C1141 C2 1.244 . S
C1167 C342 1.203 . S
C1161 C141 1.254 . S
C1181 C38 1.399 . S
C1187 C347 1.403 . S
C1201 C59 2.061 . S
C1207 C318 2.066 . S
C1227 C351 1.165 . S
C1221 C68 1.189 . S
C1241 C19 2.057 . S
C1247 C305 2.092 . S
C1261 C101 1.235 . S
C1267 C344 1.212 . S
C1287 C296 1.409 . S
C1281 C138 1.389 . S
C1307 C311 1.146 . S
C1301 C88 1.167 . S
