# Generated by pormake.
# Topology pyr, (3,6)-cn, num edge types: 1
# Building blocks:
#     Node 0, Type 0, BuildingBlock: OLANEW_clean_sbu_2, # of connection points: 3
#     Node 1, Type 0, BuildingBlock: OLANEW_clean_sbu_2, # of connection points: 3
#     Node 2, Type 0, BuildingBlock: OLANEW_clean_sbu_2, # of connection points: 3
#     Node 3, Type 0, BuildingBlock: OLANEW_clean_sbu_2, # of connection points: 3
#     Node 4, Type 0, BuildingBlock: OLANEW_clean_sbu_2, # of connection points: 3
#     Node 5, Type 0, BuildingBlock: OLANEW_clean_sbu_2, # of connection points: 3
#     Node 6, Type 0, BuildingBlock: OLANEW_clean_sbu_2, # of connection points: 3
#     Node 7, Type 0, BuildingBlock: OLANEW_clean_sbu_2, # of connection points: 3
#     Node 8, Type 1, BuildingBlock: JUFBIX_clean_sbu_0, # of connection points: 6
#     Node 9, Type 1, BuildingBlock: JUFBIX_clean_sbu_0, # of connection points: 6
#     Node 10, Type 1, BuildingBlock: JUFBIX_clean_sbu_0, # of connection points: 6
#     Node 11, Type 1, BuildingBlock: JUFBIX_clean_sbu_0, # of connection points: 6
#     Edge 12, Type (0, 1), BuildingBlock: KIFKEQ_clean_linker_1, # of connection points: 2
#     Edge 13, Type (0, 1), BuildingBlock: KIFKEQ_clean_linker_1, # of connection points: 2
#     Edge 14, Type (0, 1), BuildingBlock: KIFKEQ_clean_linker_1, # of connection points: 2
#     Edge 15, Type (0, 1), BuildingBlock: KIFKEQ_clean_linker_1, # of connection points: 2
#     Edge 16, Type (0, 1), BuildingBlock: KIFKEQ_clean_linker_1, # of connection points: 2
#     Edge 17, Type (0, 1), BuildingBlock: KIFKEQ_clean_linker_1, # of connection points: 2
#     Edge 18, Type (0, 1), BuildingBlock: KIFKEQ_clean_linker_1, # of connection points: 2
#     Edge 19, Type (0, 1), BuildingBlock: KIFKEQ_clean_linker_1, # of connection points: 2
#     Edge 20, Type (0, 1), BuildingBlock: KIFKEQ_clean_linker_1, # of connection points: 2
#     Edge 21, Type (0, 1), BuildingBlock: KIFKEQ_clean_linker_1, # of connection points: 2
#     Edge 22, Type (0, 1), BuildingBlock: KIFKEQ_clean_linker_1, # of connection points: 2
#     Edge 23, Type (0, 1), BuildingBlock: KIFKEQ_clean_linker_1, # of connection points: 2
#     Edge 24, Type (0, 1), BuildingBlock: KIFKEQ_clean_linker_1, # of connection points: 2
#     Edge 25, Type (0, 1), BuildingBlock: KIFKEQ_clean_linker_1, # of connection points: 2
#     Edge 26, Type (0, 1), BuildingBlock: KIFKEQ_clean_linker_1, # of connection points: 2
#     Edge 27, Type (0, 1), BuildingBlock: KIFKEQ_clean_linker_1, # of connection points: 2
#     Edge 28, Type (0, 1), BuildingBlock: KIFKEQ_clean_linker_1, # of connection points: 2
#     Edge 29, Type (0, 1), BuildingBlock: KIFKEQ_clean_linker_1, # of connection points: 2
#     Edge 30, Type (0, 1), BuildingBlock: KIFKEQ_clean_linker_1, # of connection points: 2
#     Edge 31, Type (0, 1), BuildingBlock: KIFKEQ_clean_linker_1, # of connection points: 2
#     Edge 32, Type (0, 1), BuildingBlock: KIFKEQ_clean_linker_1, # of connection points: 2
#     Edge 33, Type (0, 1), BuildingBlock: KIFKEQ_clean_linker_1, # of connection points: 2
#     Edge 34, Type (0, 1), BuildingBlock: KIFKEQ_clean_linker_1, # of connection points: 2
#     Edge 35, Type (0, 1), BuildingBlock: KIFKEQ_clean_linker_1, # of connection points: 2
# Relax obj value: 0.120
# Max RMSD: 0.171
# Mean RMSD: 0.119
data_MOF--net-pyr--node1-OLANEW_clean_sbu_2--node2-JUFBIX_clean_sbu_0--edge1-KIFKEQ_clean_linker_1
_symmetry_space_group_name_H-M    P1
_symmetry_Int_Tables_number       1
_symmetry_cell_setting            triclinic
loop_
_symmetry_equiv_pos_as_xyz
'x, y, z'
_cell_length_a     40.795692
_cell_length_b     38.414137
_cell_length_c     40.044709
_cell_angle_alpha  90.037375
_cell_angle_beta   89.394912
_cell_angle_gamma 96.542738
loop_
_atom_site_label
_atom_site_type_symbol
_atom_site_fract_x
_atom_site_fract_y
_atom_site_fract_z
_atom_type_partial_charge
O0 O 0.2359 0.18111 0.17815 0.0
Cd1 Cd 0.18918 0.21049 0.20094 0.0
O2 O 0.24003 0.14598 0.22141 0.0
Cd3 Cd 0.19809 0.15512 0.25454 0.0
O4 O 0.16548 0.1448 0.29904 0.0
C5 C 0.17425 0.12366 0.32085 0.0
O6 O 0.20181 0.10967 0.31577 0.0
C7 C 0.25042 0.1578 0.19297 0.0
C8 C 0.15867 0.25798 0.16068 0.0
O9 O 0.18629 0.26723 0.17493 0.0
O10 O 0.14599 0.22608 0.16428 0.0
O11 O 0.50584 0.93252 0.70298 0.0
Cd12 Cd 0.50816 0.91929 0.64346 0.0
O13 O 0.45266 0.92248 0.69624 0.0
Cd14 Cd 0.39936 0.9202 0.70484 0.0
O15 O 0.34633 0.92351 0.70405 0.0
C16 C 0.33669 0.95314 0.71025 0.0
O17 O 0.35879 0.9795 0.71784 0.0
C18 C 0.47694 0.93117 0.71543 0.0
C19 C 0.51902 0.85028 0.63083 0.0
O20 O 0.54292 0.87502 0.63005 0.0
O21 O 0.49003 0.85815 0.6378 0.0
O22 O 0.72704 0.47169 0.91564 0.0
Cd23 Cd 0.67247 0.48047 0.8948 0.0
O24 O 0.71166 0.41538 0.91817 0.0
Cd25 Cd 0.71068 0.36036 0.93244 0.0
O26 O 0.68366 0.30984 0.94626 0.0
C27 C 0.65769 0.31127 0.96382 0.0
O28 O 0.64978 0.34213 0.97295 0.0
C29 C 0.7334 0.44115 0.92354 0.0
C30 C 0.66692 0.48708 0.82581 0.0
O31 O 0.67592 0.51381 0.8441 0.0
O32 O 0.6615 0.45707 0.84008 0.0
O33 O 0.07643 0.72463 0.44408 0.0
Cd34 Cd 0.0852 0.66682 0.4225 0.0
O35 O 0.03531 0.69737 0.47269 0.0
Cd36 Cd 0.99006 0.69162 0.50307 0.0
O37 O 0.93887 0.67185 0.51531 0.0
C38 C 0.92614 0.64637 0.49768 0.0
O39 O 0.94443 0.63362 0.47448 0.0
C40 C 0.05283 0.72578 0.46488 0.0
C41 C 0.06399 0.65403 0.3571 0.0
O42 O 0.04365 0.6504 0.3818 0.0
O43 O 0.09433 0.66433 0.3632 0.0
O44 O 0.87317 0.85549 0.85143 0.0
Cd45 Cd 0.85824 0.82284 0.90388 0.0
O46 O 0.83673 0.89437 0.84851 0.0
Cd47 Cd 0.80103 0.88728 0.89089 0.0
O48 O 0.75594 0.90345 0.91572 0.0
C49 C 0.74971 0.90185 0.94698 0.0
O50 O 0.77074 0.88896 0.96685 0.0
C51 C 0.86174 0.88101 0.83675 0.0
C52 C 0.88955 0.76185 0.91625 0.0
O53 O 0.86046 0.7598 0.90407 0.0
O54 O 0.90434 0.79254 0.92177 0.0
O55 O 0.57437 0.05629 0.44806 0.0
Cd56 Cd 0.58744 0.05647 0.50757 0.0
O57 O 0.59057 0.1125 0.44743 0.0
Cd58 Cd 0.59947 0.16667 0.42946 0.0
O59 O 0.60504 0.22387 0.4336 0.0
C60 C 0.58075 0.24059 0.427 0.0
O61 O 0.55343 0.22316 0.41595 0.0
C62 C 0.57935 0.08487 0.43186 0.0
C63 C 0.65369 0.04814 0.51786 0.0
O64 O 0.63166 0.0216 0.51631 0.0
O65 O 0.64436 0.07871 0.51468 0.0
O66 O 0.41738 0.7171 0.19988 0.0
Cd67 Cd 0.40286 0.6555 0.21467 0.0
O68 O 0.37823 0.70746 0.16326 0.0
Cd69 Cd 0.34094 0.71498 0.12587 0.0
O70 O 0.2925 0.69175 0.10872 0.0
C71 C 0.28523 0.68422 0.07857 0.0
O72 O 0.30729 0.69243 0.05489 0.0
C73 C 0.40063 0.72857 0.17658 0.0
C74 C 0.43198 0.63607 0.27337 0.0
O75 O 0.44634 0.63351 0.24498 0.0
O76 O 0.40395 0.64814 0.27399 0.0
O77 O 0.11175 0.52534 0.6455 0.0
Cd78 Cd 0.13161 0.52966 0.58768 0.0
O79 O 0.09434 0.47013 0.6366 0.0
Cd80 Cd 0.0713 0.41626 0.6457 0.0
O81 O 0.05795 0.35923 0.64451 0.0
C82 C 0.02882 0.34484 0.6391 0.0
O83 O 1.00503 0.36472 0.63487 0.0
C84 C 0.09824 0.4961 0.65655 0.0
C85 C 0.19943 0.52537 0.58414 0.0
O86 O 0.17863 0.49773 0.58361 0.0
O87 O 0.18815 0.55512 0.58613 0.0
Co88 Co 0.98651 0.02201 0.56733 0.0
C89 C 0.01927 0.96161 0.56112 0.0
Co90 Co 0.03324 0.0232 0.59493 0.0
C91 C 0.91725 0.02494 0.55303 0.0
C92 C 0.94405 1.00591 0.51191 0.0
N93 N 0.94765 0.0179 0.54346 0.0
N94 N 0.89478 0.01757 0.5287 0.0
C95 C 0.91167 1.00566 0.5028 0.0
H96 H 0.91164 0.03461 0.57759 0.0
H97 H 0.96374 0.99768 0.49655 0.0
C98 C 1.00062 0.08395 0.60058 0.0
N99 N 0.07264 0.02808 0.61836 0.0
C100 C 0.08969 1.00371 0.63234 0.0
C101 C 0.09076 0.059 0.62472 0.0
N102 N 0.11724 0.01849 0.64757 0.0
C103 C 0.11791 0.0532 0.64283 0.0
C104 C 0.04127 0.04894 0.52963 0.0
O105 O 0.97932 0.06811 0.5813 0.0
O106 O 0.02494 0.0685 0.60957 0.0
O107 O 0.05629 0.0433 0.55643 0.0
O108 O 0.0101 0.04155 0.52883 0.0
O109 O 0.04077 0.97776 0.58002 0.0
H110 H 0.08502 0.08431 0.61626 0.0
H111 H 0.08215 0.97578 0.6314 0.0
O112 O 0.99405 0.97624 0.55312 0.0
O113 O 0.9634 1.00217 0.60636 0.0
O114 O 0.0102 1.00294 0.63305 0.0
C115 C 0.97899 0.99552 0.63263 0.0
H116 H 0.90145 0.99762 0.47879 0.0
H117 H 0.13734 0.07287 0.65092 0.0
Co118 Co 0.48748 0.0258 0.04675 0.0
C119 C 0.4779 0.97339 0.09607 0.0
Co120 Co 0.51469 0.03744 0.09353 0.0
C121 C 0.47359 0.01231 0.97705 0.0
C122 C 0.43088 1.0006 0.00835 0.0
N123 N 0.46296 0.0138 0.009 0.0
N124 N 0.44953 0.99818 0.95662 0.0
C125 C 0.4226 0.99083 0.9762 0.0
H126 H 0.49891 0.01969 0.96922 0.0
H127 H 0.4149 0.99702 0.0301 0.0
C128 C 0.52461 0.08969 0.04428 0.0
N129 N 0.53985 0.0497 0.131 0.0
C130 C 0.53193 0.04853 0.16389 0.0
C131 C 0.57158 0.06397 0.1297 0.0
N132 N 0.5576 0.06157 0.18313 0.0
C133 C 0.58248 0.07132 0.16145 0.0
C134 C 0.54965 1.00273 0.04536 0.0
O135 O 0.50566 0.06879 0.02655 0.0
O136 O 0.53074 0.08103 0.07396 0.0
O137 O 0.55116 0.01648 0.0743 0.0
O138 O 0.52332 1.00324 0.02877 0.0
O139 O 0.49843 0.99364 0.11281 0.0
H140 H 0.58578 0.06933 0.10694 0.0
H141 H 0.5078 0.03836 0.17338 0.0
O142 O 0.46969 0.98283 0.06719 0.0
O143 O 0.45182 0.04851 0.06507 0.0
O144 O 0.47797 0.05822 0.11232 0.0
C145 C 0.45246 0.06056 0.09471 0.0
H146 H 0.39885 0.97855 0.96799 0.0
H147 H 0.60672 0.08379 0.16782 0.0
Co148 Co 0.58714 0.55496 0.52975 0.0
C149 C 0.53498 0.55995 0.48551 0.0
Co150 Co 0.5378 0.53402 0.54904 0.0
C151 C 0.65845 0.56811 0.51846 0.0
C152 C 0.63095 0.60246 0.4909 0.0
N153 N 0.62733 0.57522 0.51242 0.0
N154 N 0.68108 0.5896 0.50117 0.0
C155 C 0.66381 0.61114 0.48379 0.0
H156 H 0.66442 0.54765 0.53517 0.0
H157 H 0.61101 0.61577 0.48141 0.0
C158 C 0.58958 0.52911 0.59352 0.0
N159 N 0.49746 0.51449 0.56597 0.0
C160 C 0.46797 0.52707 0.56392 0.0
C161 C 0.49112 0.48362 0.58203 0.0
N162 N 0.44332 0.50519 0.57797 0.0
C163 C 0.45795 0.47782 0.58941 0.0
C164 C 0.57146 0.48512 0.51495 0.0
O165 O 0.60755 0.54365 0.57016 0.0
O166 O 0.55864 0.52265 0.58921 0.0
O167 O 0.54515 0.49012 0.53065 0.0
O168 O 0.59423 0.51047 0.5115 0.0
O169 O 0.51725 0.54547 0.50897 0.0
H170 H 0.50938 0.46616 0.58751 0.0
H171 H 0.46478 0.55184 0.55226 0.0
O172 O 0.56593 0.56602 0.48951 0.0
O173 O 0.57975 0.5991 0.54808 0.0
O174 O 0.53075 0.57825 0.56701 0.0
C175 C 0.55319 0.60379 0.56345 0.0
H176 H 0.67431 0.63238 0.46784 0.0
H177 H 0.44555 0.45471 0.60148 0.0
Co178 Co 0.02451 0.48967 0.99823 0.0
C179 C 0.96002 0.46061 0.01434 0.0
Co180 Co 1.00683 0.5035 0.04846 0.0
C181 C 0.04281 0.49134 0.92669 0.0
C182 C 0.03802 0.44028 0.94878 0.0
N183 N 0.0372 0.47446 0.95625 0.0
N184 N 0.04674 0.46877 0.90134 0.0
C185 C 0.04402 0.43676 0.91538 0.0
H186 H 0.0423 0.51925 0.92349 0.0
H187 H 0.033 0.41878 0.96618 0.0
C188 C 0.07064 0.53396 0.03141 0.0
N189 N 0.99326 0.51595 0.09086 0.0
C190 C 1.00347 0.54442 0.1095 0.0
C191 C 0.97331 0.49511 0.11137 0.0
N192 N 0.99089 0.54198 0.14096 0.0
C193 C 0.97176 0.51094 0.14196 0.0
C194 C 0.04005 0.4443 0.04951 0.0
O195 O 0.06559 0.51772 1.00387 0.0
O196 O 0.04837 0.53076 0.05408 0.0
O197 O 0.02416 0.46381 0.06769 0.0
O198 O 0.043 0.45098 0.0185 0.0
O199 O 0.96551 0.47667 0.04175 0.0
H200 H 0.96191 0.46916 0.10509 0.0
H201 H 0.02062 0.56595 0.10041 0.0
O202 O 0.98295 0.46193 0.99252 0.0
O203 O 1.0063 0.52917 0.97912 0.0
O204 O 0.98947 0.54299 0.02927 0.0
C205 C 0.99168 0.54939 0.99805 0.0
H206 H 0.04551 0.41233 0.90226 0.0
H207 H 0.95902 0.49931 0.16376 0.0
H208 H 0.18792 0.08026 0.37148 0.0
H209 H 0.11481 0.14587 0.33979 0.0
H210 H 0.15546 0.0641 0.42141 0.0
H211 H 0.08235 0.13004 0.39045 0.0
H212 H 0.01748 0.06113 0.46728 0.0
H213 H 0.04898 0.08064 0.41714 0.0
H214 H 0.13908 0.08803 0.47368 0.0
H215 H 0.10777 0.06798 0.5235 0.0
C216 C 0.16496 0.09144 0.37521 0.0
C217 C 0.15407 0.11445 0.3515 0.0
C218 C 0.14639 0.08231 0.40408 0.0
C219 C 0.1163 0.09589 0.41022 0.0
C220 C 0.10526 0.11884 0.38646 0.0
C221 C 0.12396 0.12808 0.35748 0.0
C222 C 0.04401 0.0671 0.46906 0.0
C223 C 0.06007 0.06277 0.49947 0.0
C224 C 0.06207 0.07847 0.4403 0.0
C225 C 0.09666 0.08573 0.44119 0.0
C226 C 0.11257 0.08211 0.47182 0.0
C227 C 0.09455 0.07079 0.50052 0.0
H228 H 0.42217 0.91614 0.75609 0.0
H229 H 0.52218 0.96688 0.75604 0.0
H230 H 0.41459 0.93479 0.81309 0.0
H231 H 0.51574 0.98282 0.81426 0.0
H232 H 0.48577 0.03564 0.90943 0.0
H233 H 0.49165 0.02024 0.85066 0.0
H234 H 0.42816 0.92362 0.86772 0.0
H235 H 0.42124 0.94015 0.92579 0.0
C236 C 0.44241 0.93172 0.76794 0.0
C237 C 0.47238 0.94098 0.75089 0.0
C238 C 0.43837 0.94174 0.80115 0.0
C239 C 0.4645 0.96053 0.81853 0.0
C240 C 0.49475 0.96912 0.80164 0.0
C241 C 0.49858 0.95959 0.76825 0.0
C242 C 0.47308 0.01121 0.90039 0.0
C243 C 0.4529 0.9892 0.92198 0.0
C244 C 0.47655 1.0022 0.86679 0.0
C245 C 0.46039 0.9706 0.8542 0.0
C246 C 0.4404 0.94852 0.87611 0.0
C247 C 0.43648 0.95788 0.90949 0.0
H248 H 0.6794 0.5463 0.78772 0.0
H249 H 0.6404 0.43704 0.78227 0.0
H250 H 0.66379 0.55435 0.7298 0.0
H251 H 0.62498 0.44514 0.72432 0.0
H252 H 0.55971 0.48949 0.64404 0.0
H253 H 0.58222 0.47748 0.69834 0.0
H254 H 0.67474 0.53694 0.67056 0.0
H255 H 0.65216 0.54915 0.61596 0.0
C256 C 0.66791 0.5239 0.77405 0.0
C257 C 0.6609 0.4911 0.78969 0.0
C258 C 0.65913 0.52848 0.74081 0.0
C259 C 0.64295 0.50043 0.72261 0.0
C260 C 0.63705 0.46734 0.73787 0.0
C261 C 0.64604 0.46269 0.77101 0.0
C262 C 0.58493 0.49986 0.64937 0.0
C263 C 0.6041 0.52041 0.62574 0.0
C264 C 0.5979 0.49275 0.68042 0.0
C265 C 0.63026 0.50623 0.68869 0.0
C266 C 0.64964 0.52641 0.66493 0.0
C267 C 0.63676 0.53326 0.63365 0.0
H268 H 0.10177 0.63786 0.30391 0.0
H269 H 1.00133 0.64907 0.33299 0.0
H270 H 0.08295 0.61584 0.24961 0.0
H271 H 0.9825 0.62901 0.27802 0.0
H272 H 0.95638 0.5453 0.19897 0.0
H273 H 0.97397 0.57673 0.24906 0.0
H274 H 0.06099 0.62469 0.19702 0.0
H275 H 0.04454 0.59094 0.14739 0.0
C276 C 0.07571 0.63634 0.29838 0.0
C277 C 0.05298 0.64478 0.32283 0.0
C278 C 0.06487 0.62392 0.26709 0.0
C279 C 0.03106 0.62022 0.25929 0.0
C280 C 1.0086 0.63055 0.28328 0.0
C281 C 0.01939 0.64231 0.31478 0.0
C282 C 0.97938 0.56233 0.19809 0.0
C283 C 0.99927 0.5648 0.16909 0.0
C284 C 0.98928 0.58097 0.22686 0.0
C285 C 0.01912 0.60324 0.22742 0.0
C286 C 0.03819 0.60725 0.19786 0.0
C287 C 0.02848 0.58817 0.16911 0.0
H288 H 0.2896 0.11228 0.22037 0.0
H289 H 0.27899 0.17275 0.13101 0.0
H290 H 0.33822 0.09029 0.19641 0.0
H291 H 0.32816 0.15084 0.10707 0.0
H292 H 0.39579 0.07262 0.06254 0.0
H293 H 0.34764 0.09693 0.08555 0.0
H294 H 0.3953 0.1093 0.18127 0.0
H295 H 0.44333 0.08464 0.15837 0.0
C296 C 0.29762 0.121 0.19558 0.0
C297 C 0.28015 0.14439 0.17769 0.0
C298 C 0.32578 0.10851 0.18191 0.0
C299 C 0.33737 0.11884 0.14981 0.0
C300 C 0.31985 0.14206 0.13175 0.0
C301 C 0.29169 0.15477 0.14554 0.0
C302 C 0.3961 0.08062 0.08849 0.0
C303 C 0.42353 0.07652 0.10858 0.0
C304 C 0.36849 0.09479 0.10164 0.0
C305 C 0.3674 0.10507 0.13534 0.0
C306 C 0.395 0.10127 0.15534 0.0
C307 C 0.42269 0.08729 0.14214 0.0
H308 H 0.28421 0.90446 0.69556 0.0
H309 H 0.30985 0.01459 0.7161 0.0
H310 H 0.22713 0.91503 0.68584 0.0
H311 H 0.25352 0.02529 0.70543 0.0
H312 H 0.1481 0.03768 0.70457 0.0
H313 H 0.19843 0.01704 0.72539 0.0
H314 H 0.19598 0.94221 0.64447 0.0
H315 H 0.1447 0.96221 0.62471 0.0
C316 C 0.27765 0.93087 0.69816 0.0
C317 C 0.3016 0.95872 0.70651 0.0
C318 C 0.24497 0.93694 0.69243 0.0
C319 C 0.23562 0.97099 0.69488 0.0
C320 C 0.25954 0.9986 0.70395 0.0
C321 C 0.29204 0.99252 0.70981 0.0
C322 C 0.15805 0.01628 0.69181 0.0
C323 C 0.14289 1.00169 0.66296 0.0
C324 C 0.18697 1.00462 0.70349 0.0
C325 C 0.20174 0.97852 0.68617 0.0
C326 C 0.18525 0.96225 0.65854 0.0
C327 C 0.15592 0.97364 0.64716 0.0
H328 H 0.77 0.38519 0.92095 0.0
H329 H 0.76787 0.48805 0.96389 0.0
H330 H 0.82385 0.38123 0.94684 0.0
H331 H 0.82104 0.48406 0.9896 0.0
H332 H 0.90408 0.46106 0.05236 0.0
H333 H 0.84728 0.44917 0.03356 0.0
H334 H 0.88177 0.41545 0.9379 0.0
H335 H 0.93877 0.4273 0.9566 0.0
C336 C 0.78072 0.4066 0.93637 0.0
C337 C 0.76473 0.43688 0.9405 0.0
C338 C 0.81155 0.40442 0.95098 0.0
C339 C 0.82647 0.4322 0.97048 0.0
C340 C 0.80995 0.46199 0.97519 0.0
C341 C 0.77962 0.4644 0.9602 0.0
C342 C 0.89962 0.45027 0.02761 0.0
C343 C 0.92602 0.44566 1.0058 0.0
C344 C 0.86706 0.4436 0.01681 0.0
C345 C 0.86015 0.43191 0.98411 0.0
C346 C 0.88635 0.42438 0.96327 0.0
C347 C 0.91902 0.43129 0.97398 0.0
H348 H 0.89058 0.59817 0.45844 0.0
H349 H 0.8817 0.6637 0.54511 0.0
H350 H 0.83158 0.57913 0.46126 0.0
H351 H 0.82244 0.64448 0.54783 0.0
H352 H 0.71924 0.58093 0.55484 0.0
H353 H 0.77983 0.59038 0.55656 0.0
H354 H 0.78285 0.61209 0.4507 0.0
H355 H 0.72276 0.6027 0.44915 0.0
C356 C 0.87613 0.60827 0.47831 0.0
C357 C 0.89082 0.63275 0.50136 0.0
C358 C 0.84231 0.59738 0.47985 0.0
C359 C 0.82241 0.61045 0.50465 0.0
C360 C 0.83724 0.63378 0.52859 0.0
C361 C 0.87111 0.64496 0.52688 0.0
C362 C 0.73303 0.58713 0.53195 0.0
C363 C 0.71646 0.59121 0.50187 0.0
C364 C 0.76756 0.59282 0.53296 0.0
C365 C 0.78602 0.602 0.50377 0.0
C366 C 0.76935 0.60475 0.47354 0.0
C367 C 0.73498 0.59961 0.47266 0.0
H368 H 0.09286 0.25414 0.14646 0.0
H369 H 0.18482 0.32053 0.13323 0.0
H370 H 0.06353 0.29828 0.11904 0.0
H371 H 0.15551 0.3642 0.105 0.0
H372 H 0.09154 0.41263 0.02386 0.0
H373 H 0.1202 0.36696 0.04956 0.0
H374 H 0.05383 0.3641 0.13431 0.0
H375 H 0.02563 0.4105 0.10909 0.0
C376 C 0.10688 0.27795 0.13736 0.0
C377 C 0.14122 0.28378 0.14203 0.0
C378 C 0.09003 0.30329 0.12184 0.0
C379 C 0.10721 0.3347 0.1099 0.0
C380 C 0.14164 0.34017 0.11381 0.0
C381 C 0.15839 0.3152 0.13004 0.0
C382 C 0.08295 0.40219 0.04792 0.0
C383 C 0.05627 0.41525 0.06442 0.0
C384 C 0.09948 0.37616 0.06268 0.0
C385 C 0.08927 0.36195 0.09394 0.0
C386 C 0.06214 0.37442 0.11012 0.0
C387 C 0.04608 0.40105 0.09572 0.0
H388 H 0.66068 0.24406 0.94167 0.0
H389 H 0.6064 0.3056 0.00835 0.0
H390 H 0.62569 0.19102 0.95915 0.0
H391 H 0.5717 0.25273 0.02571 0.0
H392 H 0.55233 0.14557 0.07962 0.0
H393 H 0.5828 0.19926 0.05836 0.0
H394 H 0.5649 0.16347 0.95726 0.0
H395 H 0.53398 0.10934 0.97863 0.0
C396 C 0.64129 0.24629 0.95997 0.0
C397 C 0.63646 0.27902 0.97379 0.0
C398 C 0.62112 0.21599 0.96974 0.0
C399 C 0.59603 0.2178 0.9938 0.0
C400 C 0.59102 0.25054 0.0073 0.0
C401 C 0.61089 0.28082 0.9973 0.0
C402 C 0.55459 0.14921 0.05283 0.0
C403 C 0.54073 0.12324 0.03078 0.0
C404 C 0.57195 0.18004 0.04068 0.0
C405 C 0.57623 0.18552 0.00618 0.0
C406 C 0.56211 0.15977 0.98399 0.0
C407 C 0.54424 0.12899 0.9962 0.0
H408 H 0.0311 0.73887 0.52792 0.0
H409 H 0.06024 0.78931 0.43422 0.0
H410 H 0.02268 0.79591 0.55212 0.0
H411 H 0.05126 0.84613 0.45825 0.0
H412 H 0.99069 0.93038 0.50602 0.0
H413 H 0.99802 0.87279 0.48308 0.0
H414 H 0.06408 0.85543 0.56326 0.0
H415 H 0.05743 0.9136 0.586 0.0
C416 C 0.03516 0.76205 0.51238 0.0
C417 C 0.04595 0.7597 0.47911 0.0
C418 C 0.03069 0.79463 0.52632 0.0
C419 C 0.03632 0.82526 0.50698 0.0
C420 C 0.04662 0.82282 0.47358 0.0
C421 C 0.05179 0.7904 0.4599 0.0
C422 C 1.00676 0.9143 0.51882 0.0
C423 C 0.02354 0.92649 0.54779 0.0
C424 C 0.01099 0.88144 0.50561 0.0
C425 C 0.03154 0.85979 0.52147 0.0
C426 C 0.04795 0.87164 0.55072 0.0
C427 C 0.04428 0.90491 0.56359 0.0
H428 H 0.57022 0.82795 0.59579 0.0
H429 H 0.48031 0.79038 0.64853 0.0
H430 H 0.5782 0.76818 0.58074 0.0
H431 H 0.48918 0.73023 0.63537 0.0
H432 H 0.4949 0.63014 0.57542 0.0
H433 H 0.48689 0.6894 0.59262 0.0
H434 H 0.5927 0.71518 0.59922 0.0
H435 H 0.60047 0.65659 0.57997 0.0
C436 C 0.55243 0.80677 0.60461 0.0
C437 C 0.5246 0.81379 0.62322 0.0
C438 C 0.55709 0.77238 0.5962 0.0
C439 C 0.53439 0.74406 0.60683 0.0
C440 C 0.50687 0.75123 0.62609 0.0
C441 C 0.50186 0.78572 0.63389 0.0
C442 C 0.51638 0.64853 0.58069 0.0
C443 C 0.54829 0.63888 0.57618 0.0
C444 C 0.51184 0.68251 0.59077 0.0
C445 C 0.53914 0.70741 0.59726 0.0
C446 C 0.57106 0.69718 0.59369 0.0
C447 C 0.57557 0.66346 0.5829 0.0
H448 H 0.91861 0.86422 0.80608 0.0
H449 H 0.84242 0.933 0.79704 0.0
H450 H 0.9462 0.89097 0.75645 0.0
H451 H 0.87023 0.95996 0.74786 0.0
H452 H 0.91226 0.97793 0.64163 0.0
H453 H 0.88368 0.94905 0.68979 0.0
H454 H 0.97706 0.94595 0.73886 0.0
H455 H 1.00562 0.97431 0.69065 0.0
C456 C 0.90767 0.88497 0.79354 0.0
C457 C 0.87822 0.89638 0.80577 0.0
C458 C 0.92364 0.9005 0.76515 0.0
C459 C 0.91055 0.92777 0.74808 0.0
C460 C 0.88089 0.93881 0.76005 0.0
C461 C 0.86501 0.92341 0.78848 0.0
C462 C 0.92671 0.97112 0.66269 0.0
C463 C 0.96129 0.97855 0.66218 0.0
C464 C 0.91029 0.95466 0.69042 0.0
C465 C 0.928 0.94504 0.71831 0.0
C466 C 0.96259 0.95247 0.71772 0.0
C467 C 0.97898 0.96904 0.6901 0.0
H468 H 0.61033 0.12775 0.38379 0.0
H469 H 0.53394 0.04143 0.39798 0.0
H470 H 0.60243 0.12404 0.32349 0.0
H471 H 0.52638 0.03737 0.33757 0.0
H472 H 0.50565 0.0623 0.22661 0.0
H473 H 0.50836 0.07043 0.28713 0.0
H474 H 0.61464 0.07832 0.28175 0.0
H475 H 0.61216 0.06931 0.22192 0.0
C476 C 0.59131 0.10858 0.37413 0.0
C477 C 0.57253 0.08514 0.39566 0.0
C478 C 0.58708 0.10613 0.33956 0.0
C479 C 0.56386 0.08032 0.32583 0.0
C480 C 0.54425 0.0577 0.34743 0.0
C481 C 0.54873 0.05991 0.38198 0.0
C482 C 0.52958 0.06543 0.2383 0.0
C483 C 0.55868 0.06542 0.21906 0.0
C484 C 0.53111 0.07025 0.27298 0.0
C485 C 0.56174 0.0755 0.28908 0.0
C486 C 0.5907 0.07517 0.26996 0.0
C487 C 0.58921 0.07001 0.23551 0.0
H488 H 0.40848 0.63988 0.33731 0.0
H489 H 0.48971 0.60706 0.27972 0.0
H490 H 0.43339 0.62134 0.38846 0.0
H491 H 0.51421 0.58781 0.33075 0.0
H492 H 0.56592 0.59318 0.43164 0.0
H493 H 0.54095 0.61182 0.38068 0.0
H494 H 0.44487 0.56848 0.41722 0.0
H495 H 0.46975 0.55051 0.46862 0.0
C496 C 0.4316 0.62861 0.33555 0.0
C497 C 0.44715 0.625 0.30445 0.0
C498 C 0.44576 0.61777 0.36485 0.0
C499 C 0.47577 0.60304 0.3637 0.0
C500 C 0.4913 0.59947 0.33257 0.0
C501 C 0.47717 0.61035 0.30329 0.0
C502 C 0.53946 0.58755 0.4288 0.0
C503 C 0.51982 0.57034 0.45419 0.0
C504 C 0.52518 0.59809 0.39949 0.0
C505 C 0.49092 0.59162 0.39484 0.0
C506 C 0.47128 0.57427 0.42019 0.0
C507 C 0.48557 0.56375 0.44955 0.0
H508 H 0.09454 0.43794 0.69647 0.0
H509 H 0.08097 0.54775 0.69758 0.0
H510 H 0.07966 0.43352 0.75538 0.0
H511 H 0.06626 0.54346 0.7569 0.0
H512 H 0.08013 0.52586 0.87162 0.0
H513 H 0.09111 0.534 0.81156 0.0
H514 H 0.03195 0.43571 0.79179 0.0
H515 H 0.02138 0.42767 0.85124 0.0
C516 C 0.08747 0.4609 0.70902 0.0
C517 C 0.08803 0.49292 0.69209 0.0
C518 C 0.07922 0.45849 0.74294 0.0
C519 C 0.07147 0.4881 0.76081 0.0
C520 C 0.07229 0.52023 0.74393 0.0
C521 C 0.08054 0.52262 0.70994 0.0
C522 C 0.06921 0.50635 0.85428 0.0
C523 C 0.05044 0.47586 0.86611 0.0
C524 C 0.07545 0.51094 0.81995 0.0
C525 C 0.06286 0.48516 0.79695 0.0
C526 C 0.04277 0.45558 0.80885 0.0
C527 C 0.03669 0.451 0.84295 0.0
H528 H 0.70309 0.93475 0.91399 0.0
H529 H 0.72794 0.89977 0.01202 0.0
H530 H 0.65496 0.9586 0.93755 0.0
H531 H 0.67942 0.92273 0.03544 0.0
H532 H 0.61071 1.00076 0.07278 0.0
H533 H 0.65822 0.97628 0.04884 0.0
H534 H 0.60131 0.94375 0.96158 0.0
H535 H 0.55402 0.96911 0.98521 0.0
C536 C 0.69818 0.93188 0.94054 0.0
C537 C 0.71957 0.91537 0.96106 0.0
C538 C 0.67039 0.94542 0.95407 0.0
C539 C 0.66312 0.94278 0.98853 0.0
C540 C 0.68438 0.92589 0.00893 0.0
C541 C 0.71219 0.91245 0.99541 0.0
C542 C 0.60826 0.98833 0.0485 0.0
C543 C 0.57843 0.98694 0.03099 0.0
C544 C 0.63554 0.97406 0.0348 0.0
C545 C 0.63381 0.95785 1.00319 0.0
C546 C 0.60387 0.95638 0.98574 0.0
C547 C 0.57659 0.97075 0.99942 0.0
H548 H 0.68091 0.98676 0.52427 0.0
H549 H 0.70617 0.0991 0.52213 0.0
H550 H 0.73904 0.97896 0.52985 0.0
H551 H 0.76444 0.09122 0.52721 0.0
H552 H 0.86408 0.06402 0.56536 0.0
H553 H 0.80522 0.07102 0.56568 0.0
H554 H 0.78809 0.98687 0.49415 0.0
H555 H 0.84643 0.97925 0.49462 0.0
C556 C 0.69885 0.00981 0.52505 0.0
C557 C 0.6889 0.04355 0.52257 0.0
C558 C 0.73219 1.00532 0.5281 0.0
C559 C 0.75639 0.03446 0.5288 0.0
C560 C 0.74639 0.06824 0.52707 0.0
C561 C 0.71301 0.07274 0.52395 0.0
C562 C 0.84765 0.04677 0.55005 0.0
C563 C 0.85998 0.02118 0.52985 0.0
C564 C 0.81401 0.051 0.54998 0.0
C565 C 0.79198 0.02953 0.52991 0.0
C566 C 0.8043 1.00361 0.51015 0.0
C567 C 0.83785 0.99952 0.51011 0.0
H568 H 0.25822 0.66926 0.01703 0.0
H569 H 0.23961 0.65292 0.12258 0.0
H570 H 0.20597 0.63429 1.00467 0.0
H571 H 0.18832 0.61701 0.11033 0.0
H572 H 0.08367 0.58143 0.08147 0.0
H573 H 0.13437 0.61939 0.09141 0.0
H574 H 0.1794 0.57574 1.00509 0.0
H575 H 0.12792 0.53865 0.99436 0.0
C576 C 0.24302 0.65817 0.03758 0.0
C577 C 0.25306 0.66401 0.07079 0.0
C578 C 0.21316 0.63788 0.0305 0.0
C579 C 0.19279 0.62273 0.05647 0.0
C580 C 0.20293 0.62873 0.08966 0.0
C581 C 0.23253 0.64924 0.09671 0.0
C582 C 0.10435 0.57992 0.06455 0.0
C583 C 0.10178 0.55688 0.03719 0.0
C584 C 0.13358 0.6016 0.07037 0.0
C585 C 0.16122 0.60056 0.04923 0.0
C586 C 0.15855 0.57765 0.02167 0.0
C587 C 0.1291 0.55617 0.01563 0.0
H588 H 0.24947 0.57896 0.57844 0.0
H589 H 0.23076 0.46629 0.58693 0.0
H590 H 0.30879 0.57484 0.57719 0.0
H591 H 0.28999 0.46224 0.58552 0.0
H592 H 0.39722 0.47342 0.62082 0.0
H593 H 0.33837 0.47865 0.62191 0.0
H594 H 0.35111 0.55204 0.53995 0.0
H595 H 0.40998 0.54643 0.53832 0.0
C596 C 0.25799 0.55332 0.57997 0.0
C597 C 0.23539 0.52295 0.58283 0.0
C598 C 0.29196 0.55097 0.57909 0.0
C599 C 0.30404 0.51823 0.58134 0.0
C600 C 0.28143 0.48788 0.58413 0.0
C601 C 0.24749 0.49019 0.58474 0.0
C602 C 0.38759 0.49045 0.60279 0.0
C603 C 0.40856 0.50935 0.57937 0.0
C604 C 0.35378 0.49347 0.60347 0.0
C605 C 0.34009 0.51564 0.58093 0.0
C606 C 0.36101 0.535 0.55787 0.0
C607 C 0.39483 0.53181 0.55701 0.0
H608 H 0.95521 0.75531 0.92493 0.0
H609 H 0.8588 0.69589 0.92808 0.0
H610 H 0.98008 0.7031 0.9424 0.0
H611 H 0.88363 0.64412 0.94645 0.0
H612 H 0.9412 0.58173 0.02447 0.0
H613 H 0.91662 0.63198 1.00228 0.0
H614 H 0.98438 0.63719 0.91857 0.0
H615 H 1.0085 0.58604 0.94026 0.0
C616 C 0.93934 0.73111 0.92922 0.0
C617 C 0.905 0.7298 0.92509 0.0
C618 C 0.95361 0.70121 0.9391 0.0
C619 C 0.93378 0.66957 0.94586 0.0
C620 C 0.8995 0.66818 0.94153 0.0
C621 C 0.88532 0.69781 0.93088 0.0
C622 C 0.95084 0.59348 1.00127 0.0
C623 C 0.97684 0.57986 0.98414 0.0
C624 C 0.93663 0.62216 0.98851 0.0
C625 C 0.94857 0.6385 0.95871 0.0
C626 C 0.97476 0.62516 0.94165 0.0
C627 C 0.98846 0.59584 0.954 0.0
H628 H 0.42439 0.78428 0.21438 0.0
H629 H 0.39335 0.75597 0.11437 0.0
H630 H 0.44002 0.84441 0.19644 0.0
H631 H 0.41047 0.81575 0.09575 0.0
H632 H 0.42299 0.93219 0.0753 0.0
H633 H 0.40107 0.87454 0.09601 0.0
H634 H 0.48109 0.87802 0.16641 0.0
H635 H 0.50182 0.9364 0.1468 0.0
C636 C 0.42089 0.79101 0.18849 0.0
C637 C 0.40752 0.7655 0.1658 0.0
C638 C 0.43015 0.82546 0.17808 0.0
C639 C 0.42694 0.83514 0.14448 0.0
C640 C 0.41289 0.8096 0.12192 0.0
C641 C 0.40306 0.77523 0.13253 0.0
C642 C 0.43574 0.92067 0.09538 0.0
C643 C 0.46414 0.93883 0.10944 0.0
C644 C 0.4233 0.88745 0.10712 0.0
C645 C 0.43926 0.87128 0.13289 0.0
C646 C 0.46763 0.88971 0.14702 0.0
C647 C 0.47973 0.92318 0.13564 0.0
H648 H 0.9694 0.3051 0.62936 0.0
H649 H 0.07329 0.29692 0.64199 0.0
H650 H 0.95907 0.24151 0.62324 0.0
H651 H 0.06317 0.23383 0.63503 0.0
H652 H 0.03497 0.11958 0.65014 0.0
H653 H 0.03891 0.1819 0.66219 0.0
H654 H 0.96851 0.19504 0.58461 0.0
H655 H 0.96381 0.13211 0.57322 0.0
C656 C 0.99003 0.28977 0.63085 0.0
C657 C 0.02218 0.30615 0.63623 0.0
C658 C 0.98412 0.25332 0.62715 0.0
C659 C 0.01023 0.23243 0.62875 0.0
C660 C 0.04232 0.24891 0.63429 0.0
C661 C 0.0482 0.28523 0.63807 0.0
C662 C 0.01996 0.13565 0.63591 0.0
C663 C 0.99927 0.12093 0.61051 0.0
C664 C 0.02243 0.17149 0.64266 0.0
C665 C 1.00451 0.19371 0.62398 0.0
C666 C 0.98257 0.17872 0.59961 0.0
C667 C 0.9799 0.14266 0.59301 0.0
H668 H 0.63167 0.28359 0.45458 0.0
H669 H 0.5323 0.2831 0.41806 0.0
H670 H 0.63087 0.3439 0.47367 0.0
H671 H 0.53176 0.34339 0.43667 0.0
H672 H 0.52568 0.42777 0.51608 0.0
H673 H 0.52975 0.37051 0.4918 0.0
H674 H 0.6282 0.4056 0.45596 0.0
H675 H 0.62431 0.46334 0.48075 0.0
C676 C 0.60984 0.29648 0.45019 0.0
C677 C 0.5819 0.27836 0.43513 0.0
C678 C 0.60946 0.3311 0.461 0.0
C679 C 0.58111 0.34827 0.45704 0.0
C680 C 0.55375 0.33064 0.44066 0.0
C681 C 0.55414 0.29612 0.42983 0.0
C682 C 0.54826 0.42343 0.50304 0.0
C683 C 0.57468 0.45021 0.50034 0.0
C684 C 0.55047 0.3906 0.48887 0.0
C685 C 0.57917 0.38358 0.47166 0.0
C686 C 0.6058 0.41019 0.46918 0.0
C687 C 0.60354 0.44325 0.48329 0.0
loop_
_geom_bond_atom_site_label_1
_geom_bond_atom_site_label_2
_geom_bond_distance
_geom_bond_site_symmetry_2
_ccdc_geom_bond_type
O0 Cd1 2.300 . S
O0 C7 1.275 . S
Cd1 O0 2.300 . S
Cd1 O9 2.381 . S
Cd1 O10 2.378 . S
O2 Cd3 2.385 . S
O2 C7 1.255 . S
Cd3 O2 2.385 . S
Cd3 O4 2.317 . S
O4 Cd3 2.317 . S
O4 C5 1.232 . S
C5 O4 1.232 . S
C5 O6 1.218 . S
O6 C5 1.218 . S
C7 O0 1.275 . S
C7 O2 1.255 . S
C8 O9 1.258 . S
C8 O10 1.256 . S
O9 Cd1 2.381 . S
O9 C8 1.258 . S
O10 Cd1 2.378 . S
O10 C8 1.256 . S
O11 Cd12 2.300 . S
O11 C18 1.275 . S
Cd12 O11 2.300 . S
Cd12 O20 2.381 . S
Cd12 O21 2.378 . S
O13 Cd14 2.385 . S
O13 C18 1.255 . S
Cd14 O13 2.385 . S
Cd14 O15 2.317 . S
O15 Cd14 2.317 . S
O15 C16 1.232 . S
C16 O15 1.232 . S
C16 O17 1.218 . S
O17 C16 1.218 . S
C18 O11 1.275 . S
C18 O13 1.255 . S
C19 O20 1.258 . S
C19 O21 1.256 . S
O20 Cd12 2.381 . S
O20 C19 1.258 . S
O21 Cd12 2.378 . S
O21 C19 1.256 . S
O22 Cd23 2.300 . S
O22 C29 1.275 . S
Cd23 O22 2.300 . S
Cd23 O31 2.381 . S
Cd23 O32 2.378 . S
O24 Cd25 2.385 . S
O24 C29 1.255 . S
Cd25 O24 2.385 . S
Cd25 O26 2.317 . S
O26 Cd25 2.317 . S
O26 C27 1.232 . S
C27 O26 1.232 . S
C27 O28 1.218 . S
O28 C27 1.218 . S
C29 O22 1.275 . S
C29 O24 1.255 . S
C30 O31 1.258 . S
C30 O32 1.256 . S
O31 Cd23 2.381 . S
O31 C30 1.258 . S
O32 Cd23 2.378 . S
O32 C30 1.256 . S
O33 Cd34 2.300 . S
O33 C40 1.275 . S
Cd34 O33 2.300 . S
Cd34 O42 2.381 . S
Cd34 O43 2.378 . S
O35 Cd36 2.385 . S
O35 C40 1.255 . S
Cd36 O35 2.385 . S
Cd36 O37 2.317 . S
O37 Cd36 2.317 . S
O37 C38 1.232 . S
C38 O37 1.232 . S
C38 O39 1.218 . S
O39 C38 1.218 . S
C40 O33 1.275 . S
C40 O35 1.255 . S
C41 O42 1.258 . S
C41 O43 1.256 . S
O42 Cd34 2.381 . S
O42 C41 1.258 . S
O43 Cd34 2.378 . S
O43 C41 1.256 . S
O44 Cd45 2.300 . S
O44 C51 1.275 . S
Cd45 O44 2.300 . S
Cd45 O53 2.381 . S
Cd45 O54 2.378 . S
O46 Cd47 2.385 . S
O46 C51 1.255 . S
Cd47 O46 2.385 . S
Cd47 O48 2.317 . S
O48 Cd47 2.317 . S
O48 C49 1.232 . S
C49 O48 1.232 . S
C49 O50 1.218 . S
O50 C49 1.218 . S
C51 O44 1.275 . S
C51 O46 1.255 . S
C52 O53 1.258 . S
C52 O54 1.256 . S
O53 Cd45 2.381 . S
O53 C52 1.258 . S
O54 Cd45 2.378 . S
O54 C52 1.256 . S
O55 Cd56 2.300 . S
O55 C62 1.275 . S
Cd56 O55 2.300 . S
Cd56 O64 2.381 . S
Cd56 O65 2.378 . S
O57 Cd58 2.385 . S
O57 C62 1.255 . S
Cd58 O57 2.385 . S
Cd58 O59 2.317 . S
O59 Cd58 2.317 . S
O59 C60 1.232 . S
C60 O59 1.232 . S
C60 O61 1.218 . S
O61 C60 1.218 . S
C62 O55 1.275 . S
C62 O57 1.255 . S
C63 O64 1.258 . S
C63 O65 1.256 . S
O64 Cd56 2.381 . S
O64 C63 1.258 . S
O65 Cd56 2.378 . S
O65 C63 1.256 . S
O66 Cd67 2.300 . S
O66 C73 1.275 . S
Cd67 O66 2.300 . S
Cd67 O75 2.381 . S
Cd67 O76 2.378 . S
O68 Cd69 2.385 . S
O68 C73 1.255 . S
Cd69 O68 2.385 . S
Cd69 O70 2.317 . S
O70 Cd69 2.317 . S
O70 C71 1.232 . S
C71 O70 1.232 . S
C71 O72 1.218 . S
O72 C71 1.218 . S
C73 O66 1.275 . S
C73 O68 1.255 . S
C74 O75 1.258 . S
C74 O76 1.256 . S
O75 Cd67 2.381 . S
O75 C74 1.258 . S
O76 Cd67 2.378 . S
O76 C74 1.256 . S
O77 Cd78 2.300 . S
O77 C84 1.275 . S
Cd78 O77 2.300 . S
Cd78 O86 2.381 . S
Cd78 O87 2.378 . S
O79 Cd80 2.385 . S
O79 C84 1.255 . S
Cd80 O79 2.385 . S
Cd80 O81 2.317 . S
O81 Cd80 2.317 . S
O81 C82 1.232 . S
C82 O81 1.232 . S
C82 O83 1.218 . S
O83 C82 1.218 . S
C84 O77 1.275 . S
C84 O79 1.255 . S
C85 O86 1.258 . S
C85 O87 1.256 . S
O86 Cd78 2.381 . S
O86 C85 1.258 . S
O87 Cd78 2.378 . S
O87 C85 1.256 . S
Co88 N93 2.057 . S
Co88 O105 2.021 . S
Co88 O108 2.062 . S
Co88 O112 2.117 1_545 S
Co88 O113 2.015 1_545 S
C89 O109 1.259 1_655 S
C89 O112 1.258 . S
Co90 N99 2.057 . S
Co90 O106 2.117 1_565 S
Co90 O107 2.020 1_565 S
Co90 O109 2.021 . S
Co90 O114 2.062 . S
C91 N93 1.316 . S
C91 N94 1.347 . S
C91 H96 0.931 . S
C92 N93 1.375 1_565 S
C92 C95 1.350 1_565 S
C92 H97 0.930 . S
N93 Co88 2.057 . S
N93 C91 1.316 . S
N93 C92 1.375 1_545 S
N94 C91 1.347 . S
N94 C95 1.373 . S
C95 C92 1.350 1_545 S
C95 N94 1.373 . S
C95 H116 0.931 1_545 S
H96 C91 0.931 . S
H97 C92 0.930 . S
C98 O105 1.259 1_455 S
C98 O106 1.258 . S
N99 Co90 2.057 . S
N99 C100 1.316 . S
N99 C101 1.375 1_565 S
C100 N99 1.316 . S
C100 N102 1.347 . S
C100 H111 0.931 . S
C101 N99 1.375 1_545 S
C101 C103 1.350 . S
C101 H110 0.930 . S
N102 C100 1.347 . S
N102 C103 1.373 1_565 S
C103 C101 1.350 . S
C103 N102 1.373 1_545 S
C103 H117 0.931 . S
C104 O107 1.256 . S
C104 O108 1.255 1_455 S
O105 Co88 2.021 . S
O105 C98 1.259 1_655 S
O106 Co90 2.117 1_545 S
O106 C98 1.258 . S
O107 Co90 2.020 1_545 S
O107 C104 1.256 . S
O108 Co88 2.062 . S
O108 C104 1.255 1_655 S
O109 C89 1.259 1_455 S
O109 Co90 2.021 . S
H110 C101 0.930 . S
H111 C100 0.931 . S
O112 Co88 2.117 1_565 S
O112 C89 1.258 . S
O113 Co88 2.015 1_565 S
O113 C115 1.263 . S
O114 Co90 2.062 . S
O114 C115 1.255 1_455 S
C115 O113 1.263 . S
C115 O114 1.255 1_655 S
H116 C95 0.931 1_565 S
H117 C103 0.931 . S
Co118 N123 2.057 1_544 S
Co118 O135 2.021 . S
Co118 O138 2.062 . S
Co118 O142 2.117 1_545 S
Co118 O143 2.020 . S
C119 O139 1.259 . S
C119 O142 1.258 . S
Co120 N129 2.057 . S
Co120 O136 2.117 . S
Co120 O137 2.020 . S
Co120 O139 2.021 1_545 S
Co120 O144 2.062 . S
C121 N123 1.316 1_545 S
C121 N124 1.347 1_545 S
C121 H126 0.931 . S
C122 N123 1.375 . S
C122 C125 1.350 . S
C122 H127 0.930 . S
N123 Co118 2.057 1_566 S
N123 C121 1.316 1_565 S
N123 C122 1.375 . S
N124 C121 1.347 1_565 S
N124 C125 1.373 . S
C125 C122 1.350 . S
C125 N124 1.373 . S
C125 H146 0.931 . S
H126 C121 0.931 . S
H127 C122 0.930 . S
C128 O135 1.259 . S
C128 O136 1.258 . S
N129 Co120 2.057 . S
N129 C130 1.316 . S
N129 C131 1.375 . S
C130 N129 1.316 . S
C130 N132 1.347 . S
C130 H141 0.931 . S
C131 N129 1.375 . S
C131 C133 1.350 . S
C131 H140 0.930 . S
N132 C130 1.347 . S
N132 C133 1.373 . S
C133 C131 1.350 . S
C133 N132 1.373 . S
C133 H147 0.931 . S
C134 O137 1.256 . S
C134 O138 1.255 . S
O135 Co118 2.021 . S
O135 C128 1.259 . S
O136 Co120 2.117 . S
O136 C128 1.258 . S
O137 Co120 2.020 . S
O137 C134 1.256 . S
O138 Co118 2.062 . S
O138 C134 1.255 . S
O139 C119 1.259 . S
O139 Co120 2.021 1_565 S
H140 C131 0.930 . S
H141 C130 0.931 . S
O142 Co118 2.117 1_565 S
O142 C119 1.258 . S
O143 Co118 2.020 . S
O143 C145 1.256 . S
O144 Co120 2.062 . S
O144 C145 1.255 . S
C145 O143 1.256 . S
C145 O144 1.255 . S
H146 C125 0.931 . S
H147 C133 0.931 . S
Co148 N153 2.057 . S
Co148 O165 2.021 . S
Co148 O168 2.062 . S
Co148 O172 2.117 . S
Co148 O173 2.020 . S
C149 O169 1.259 . S
C149 O172 1.258 . S
Co150 N159 2.057 . S
Co150 O166 2.117 . S
Co150 O167 2.020 . S
Co150 O169 2.021 . S
Co150 O174 2.062 . S
C151 N153 1.316 . S
C151 N154 1.347 . S
C151 H156 0.931 . S
C152 N153 1.375 . S
C152 C155 1.350 . S
C152 H157 0.930 . S
N153 Co148 2.057 . S
N153 C151 1.316 . S
N153 C152 1.375 . S
N154 C151 1.347 . S
N154 C155 1.373 . S
C155 C152 1.350 . S
C155 N154 1.373 . S
C155 H176 0.931 . S
H156 C151 0.931 . S
H157 C152 0.930 . S
C158 O165 1.259 . S
C158 O166 1.258 . S
N159 Co150 2.057 . S
N159 C160 1.316 . S
N159 C161 1.375 . S
C160 N159 1.316 . S
C160 N162 1.347 . S
C160 H171 0.931 . S
C161 N159 1.375 . S
C161 C163 1.350 . S
C161 H170 0.930 . S
N162 C160 1.347 . S
N162 C163 1.373 . S
C163 C161 1.350 . S
C163 N162 1.373 . S
C163 H177 0.931 . S
C164 O167 1.256 . S
C164 O168 1.255 . S
O165 Co148 2.021 . S
O165 C158 1.259 . S
O166 Co150 2.117 . S
O166 C158 1.258 . S
O167 Co150 2.020 . S
O167 C164 1.256 . S
O168 Co148 2.062 . S
O168 C164 1.255 . S
O169 C149 1.259 . S
O169 Co150 2.021 . S
H170 C161 0.930 . S
H171 C160 0.931 . S
O172 Co148 2.117 . S
O172 C149 1.258 . S
O173 Co148 2.020 . S
O173 C175 1.256 . S
O174 Co150 2.062 . S
O174 C175 1.255 . S
C175 O173 1.256 . S
C175 O174 1.255 . S
H176 C155 0.931 . S
H177 C163 0.931 . S
Co178 N183 2.057 . S
Co178 O195 2.021 1_556 S
Co178 O198 2.062 1_556 S
Co178 O202 2.117 1_455 S
Co178 O203 2.020 . S
C179 O199 1.259 . S
C179 O202 1.258 1_554 S
Co180 N189 2.057 . S
Co180 O196 2.117 . S
Co180 O197 2.020 . S
Co180 O199 2.021 1_455 S
Co180 O204 2.062 . S
C181 N183 1.316 . S
C181 N184 1.347 . S
C181 H186 0.931 . S
C182 N183 1.375 . S
C182 C185 1.350 . S
C182 H187 0.930 1_455 S
N183 Co178 2.057 . S
N183 C181 1.316 . S
N183 C182 1.375 . S
N184 C181 1.347 . S
N184 C185 1.373 . S
C185 C182 1.350 . S
C185 N184 1.373 . S
C185 H206 0.931 . S
H186 C181 0.931 . S
H187 C182 0.930 1_655 S
C188 O195 1.259 . S
C188 O196 1.258 . S
N189 Co180 2.057 . S
N189 C190 1.316 1_455 S
N189 C191 1.375 . S
C190 N189 1.316 1_655 S
C190 N192 1.347 . S
C190 H201 0.931 . S
C191 N189 1.375 . S
C191 C193 1.350 . S
C191 H200 0.930 . S
N192 C190 1.347 . S
N192 C193 1.373 1_655 S
C193 C191 1.350 . S
C193 N192 1.373 1_455 S
C193 H207 0.931 . S
C194 O197 1.256 . S
C194 O198 1.255 . S
O195 Co178 2.021 1_554 S
O195 C188 1.259 . S
O196 Co180 2.117 . S
O196 C188 1.258 . S
O197 Co180 2.020 . S
O197 C194 1.256 . S
O198 Co178 2.062 1_554 S
O198 C194 1.255 . S
O199 C179 1.259 . S
O199 Co180 2.021 1_655 S
H200 C191 0.930 . S
H201 C190 0.931 . S
O202 Co178 2.117 1_655 S
O202 C179 1.258 1_556 S
O203 Co178 2.020 . S
O203 C205 1.256 1_556 S
O204 Co180 2.062 . S
O204 C205 1.255 . S
C205 O203 1.256 1_554 S
C205 O204 1.255 . S
H206 C185 0.931 . S
H207 C193 0.931 . S
H208 C216 0.950 . S
H209 C221 0.950 . S
H210 C218 0.950 . S
H211 C220 0.950 . S
H212 C222 0.950 . S
H213 C224 0.950 . S
H214 C226 0.950 . S
H215 C227 0.950 . S
C216 H208 0.950 . S
C216 C217 1.386 . S
C216 C218 1.391 . S
C217 C216 1.386 . S
C217 C221 1.393 . S
C218 H210 0.950 . S
C218 C216 1.391 . S
C218 C219 1.400 . S
C219 C218 1.400 . S
C219 C220 1.398 . S
C219 C225 1.491 . S
C220 H211 0.950 . S
C220 C219 1.398 . S
C220 C221 1.391 . S
C221 H209 0.950 . S
C221 C217 1.393 . S
C221 C220 1.391 . S
C222 H212 0.950 . S
C222 C223 1.386 . S
C222 C224 1.391 . S
C223 C222 1.386 . S
C223 C227 1.393 . S
C224 H213 0.950 . S
C224 C222 1.391 . S
C224 C225 1.400 . S
C225 C219 1.491 . S
C225 C224 1.400 . S
C225 C226 1.398 . S
C226 H214 0.950 . S
C226 C225 1.398 . S
C226 C227 1.391 . S
C227 H215 0.950 . S
C227 C223 1.393 . S
C227 C226 1.391 . S
H228 C236 0.950 . S
H229 C241 0.950 . S
H230 C238 0.950 . S
H231 C240 0.950 . S
H232 C242 0.950 . S
H233 C244 0.950 1_545 S
H234 C246 0.950 . S
H235 C247 0.950 . S
C236 H228 0.950 . S
C236 C237 1.386 . S
C236 C238 1.391 . S
C237 C236 1.386 . S
C237 C241 1.393 . S
C238 H230 0.950 . S
C238 C236 1.391 . S
C238 C239 1.400 . S
C239 C238 1.400 . S
C239 C240 1.398 . S
C239 C245 1.491 . S
C240 H231 0.950 . S
C240 C239 1.398 . S
C240 C241 1.391 . S
C241 H229 0.950 . S
C241 C237 1.393 . S
C241 C240 1.391 . S
C242 H232 0.950 . S
C242 C243 1.386 1_545 S
C242 C244 1.391 1_545 S
C243 C242 1.386 1_565 S
C243 C247 1.393 . S
C244 H233 0.950 1_565 S
C244 C242 1.391 1_565 S
C244 C245 1.400 . S
C245 C239 1.491 . S
C245 C244 1.400 . S
C245 C246 1.398 . S
C246 H234 0.950 . S
C246 C245 1.398 . S
C246 C247 1.391 . S
C247 H235 0.950 . S
C247 C243 1.393 . S
C247 C246 1.391 . S
H248 C256 0.950 . S
H249 C261 0.950 . S
H250 C258 0.950 . S
H251 C260 0.950 . S
H252 C262 0.950 . S
H253 C264 0.950 . S
H254 C266 0.950 . S
H255 C267 0.950 . S
C256 H248 0.950 . S
C256 C257 1.386 . S
C256 C258 1.391 . S
C257 C256 1.386 . S
C257 C261 1.393 . S
C258 H250 0.950 . S
C258 C256 1.391 . S
C258 C259 1.400 . S
C259 C258 1.400 . S
C259 C260 1.398 . S
C259 C265 1.491 . S
C260 H251 0.950 . S
C260 C259 1.398 . S
C260 C261 1.391 . S
C261 H249 0.950 . S
C261 C257 1.393 . S
C261 C260 1.391 . S
C262 H252 0.950 . S
C262 C263 1.386 . S
C262 C264 1.391 . S
C263 C262 1.386 . S
C263 C267 1.393 . S
C264 H253 0.950 . S
C264 C262 1.391 . S
C264 C265 1.400 . S
C265 C259 1.491 . S
C265 C264 1.400 . S
C265 C266 1.398 . S
C266 H254 0.950 . S
C266 C265 1.398 . S
C266 C267 1.391 . S
C267 H255 0.950 . S
C267 C263 1.393 . S
C267 C266 1.391 . S
H268 C276 0.961 . S
H269 C281 0.950 . S
H270 C278 0.935 1_455 S
H271 C280 0.950 . S
H272 C282 0.950 . S
H273 C284 0.950 . S
H274 C286 0.950 1_455 S
H275 C287 0.950 1_455 S
C276 H268 0.961 . S
C276 C277 1.375 1_455 S
C276 C278 1.393 1_455 S
C277 C276 1.375 1_655 S
C277 C281 1.393 . S
C278 H270 0.935 1_655 S
C278 C276 1.393 1_655 S
C278 C279 1.415 . S
C279 C278 1.415 . S
C279 C280 1.398 . S
C279 C285 1.491 . S
C280 H271 0.950 . S
C280 C279 1.398 . S
C280 C281 1.391 . S
C281 H269 0.950 . S
C281 C277 1.393 . S
C281 C280 1.391 . S
C282 H272 0.950 . S
C282 C283 1.386 . S
C282 C284 1.391 . S
C283 C282 1.386 . S
C283 C287 1.393 . S
C284 H273 0.950 . S
C284 C282 1.391 . S
C284 C285 1.400 . S
C285 C279 1.491 . S
C285 C284 1.400 . S
C285 C286 1.398 . S
C286 H274 0.950 1_655 S
C286 C285 1.398 . S
C286 C287 1.391 . S
C287 H275 0.950 1_655 S
C287 C283 1.393 . S
C287 C286 1.391 . S
H288 C296 0.950 . S
H289 C301 0.950 . S
H290 C298 0.950 . S
H291 C300 0.950 . S
H292 C302 0.950 . S
H293 C304 0.950 . S
H294 C306 0.950 . S
H295 C307 0.950 . S
C296 H288 0.950 . S
C296 C297 1.386 . S
C296 C298 1.391 . S
C297 C296 1.386 . S
C297 C301 1.393 . S
C298 H290 0.950 . S
C298 C296 1.391 . S
C298 C299 1.400 . S
C299 C298 1.400 . S
C299 C300 1.398 . S
C299 C305 1.491 . S
C300 H291 0.950 . S
C300 C299 1.398 . S
C300 C301 1.391 . S
C301 H289 0.950 . S
C301 C297 1.393 . S
C301 C300 1.391 . S
C302 H292 0.950 . S
C302 C303 1.386 . S
C302 C304 1.391 . S
C303 C302 1.386 . S
C303 C307 1.393 . S
C304 H293 0.950 . S
C304 C302 1.391 . S
C304 C305 1.400 . S
C305 C299 1.491 . S
C305 C304 1.400 . S
C305 C306 1.398 . S
C306 H294 0.950 . S
C306 C305 1.398 . S
C306 C307 1.391 . S
C307 H295 0.950 . S
C307 C303 1.393 . S
C307 C306 1.391 . S
H308 C316 0.950 . S
H309 C321 0.950 . S
H310 C318 0.950 . S
H311 C320 0.950 . S
H312 C322 0.950 1_545 S
H313 C324 0.950 . S
H314 C326 0.950 . S
H315 C327 0.950 . S
C316 H308 0.950 . S
C316 C317 1.386 . S
C316 C318 1.391 . S
C317 C316 1.386 . S
C317 C321 1.393 . S
C318 H310 0.950 . S
C318 C316 1.391 . S
C318 C319 1.400 . S
C319 C318 1.400 . S
C319 C320 1.398 . S
C319 C325 1.491 . S
C320 H311 0.950 . S
C320 C319 1.398 . S
C320 C321 1.391 . S
C321 H309 0.950 . S
C321 C317 1.393 . S
C321 C320 1.391 . S
C322 H312 0.950 1_565 S
C322 C323 1.386 . S
C322 C324 1.391 . S
C323 C322 1.386 . S
C323 C327 1.393 . S
C324 H313 0.950 . S
C324 C322 1.391 . S
C324 C325 1.400 . S
C325 C319 1.491 . S
C325 C324 1.400 . S
C325 C326 1.398 . S
C326 H314 0.950 . S
C326 C325 1.398 . S
C326 C327 1.391 . S
C327 H315 0.950 . S
C327 C323 1.393 . S
C327 C326 1.391 . S
H328 C336 0.950 . S
H329 C341 0.950 . S
H330 C338 0.950 . S
H331 C340 0.950 . S
H332 C342 0.950 1_554 S
H333 C344 0.950 . S
H334 C346 0.950 . S
H335 C347 0.950 . S
C336 H328 0.950 . S
C336 C337 1.386 . S
C336 C338 1.391 . S
C337 C336 1.386 . S
C337 C341 1.393 . S
C338 H330 0.950 . S
C338 C336 1.391 . S
C338 C339 1.400 . S
C339 C338 1.400 . S
C339 C340 1.398 . S
C339 C345 1.491 . S
C340 H331 0.950 . S
C340 C339 1.398 . S
C340 C341 1.391 . S
C341 H329 0.950 . S
C341 C337 1.393 . S
C341 C340 1.391 . S
C342 H332 0.950 1_556 S
C342 C343 1.386 . S
C342 C344 1.391 . S
C343 C342 1.386 . S
C343 C347 1.393 . S
C344 H333 0.950 . S
C344 C342 1.391 . S
C344 C345 1.400 . S
C345 C339 1.491 . S
C345 C344 1.400 . S
C345 C346 1.398 . S
C346 H334 0.950 . S
C346 C345 1.398 . S
C346 C347 1.391 . S
C347 H335 0.950 . S
C347 C343 1.393 . S
C347 C346 1.391 . S
H348 C356 0.950 . S
H349 C361 0.950 . S
H350 C358 0.950 . S
H351 C360 0.950 . S
H352 C362 0.950 . S
H353 C364 0.950 . S
H354 C366 0.950 . S
H355 C367 0.950 . S
C356 H348 0.950 . S
C356 C357 1.386 . S
C356 C358 1.391 . S
C357 C356 1.386 . S
C357 C361 1.393 . S
C358 H350 0.950 . S
C358 C356 1.391 . S
C358 C359 1.400 . S
C359 C358 1.400 . S
C359 C360 1.398 . S
C359 C365 1.491 . S
C360 H351 0.950 . S
C360 C359 1.398 . S
C360 C361 1.391 . S
C361 H349 0.950 . S
C361 C357 1.393 . S
C361 C360 1.391 . S
C362 H352 0.950 . S
C362 C363 1.386 . S
C362 C364 1.391 . S
C363 C362 1.386 . S
C363 C367 1.393 . S
C364 H353 0.950 . S
C364 C362 1.391 . S
C364 C365 1.400 . S
C365 C359 1.491 . S
C365 C364 1.400 . S
C365 C366 1.398 . S
C366 H354 0.950 . S
C366 C365 1.398 . S
C366 C367 1.391 . S
C367 H355 0.950 . S
C367 C363 1.393 . S
C367 C366 1.391 . S
H368 C376 0.950 . S
H369 C381 0.950 . S
H370 C378 0.950 . S
H371 C380 0.950 . S
H372 C382 0.950 . S
H373 C384 0.950 . S
H374 C386 0.950 . S
H375 C387 0.950 . S
C376 H368 0.950 . S
C376 C377 1.386 . S
C376 C378 1.391 . S
C377 C376 1.386 . S
C377 C381 1.393 . S
C378 H370 0.950 . S
C378 C376 1.391 . S
C378 C379 1.400 . S
C379 C378 1.400 . S
C379 C380 1.398 . S
C379 C385 1.491 . S
C380 H371 0.950 . S
C380 C379 1.398 . S
C380 C381 1.391 . S
C381 H369 0.950 . S
C381 C377 1.393 . S
C381 C380 1.391 . S
C382 H372 0.950 . S
C382 C383 1.386 . S
C382 C384 1.391 . S
C383 C382 1.386 . S
C383 C387 1.393 . S
C384 H373 0.950 . S
C384 C382 1.391 . S
C384 C385 1.400 . S
C385 C379 1.491 . S
C385 C384 1.400 . S
C385 C386 1.398 . S
C386 H374 0.950 . S
C386 C385 1.398 . S
C386 C387 1.391 . S
C387 H375 0.950 . S
C387 C383 1.393 . S
C387 C386 1.391 . S
H388 C396 0.950 . S
H389 C401 0.950 . S
H390 C398 0.950 . S
H391 C400 0.950 . S
H392 C402 0.950 . S
H393 C404 0.950 . S
H394 C406 0.950 . S
H395 C407 0.950 . S
C396 H388 0.950 . S
C396 C397 1.386 . S
C396 C398 1.391 . S
C397 C396 1.386 . S
C397 C401 1.393 1_556 S
C398 H390 0.950 . S
C398 C396 1.391 . S
C398 C399 1.400 . S
C399 C398 1.400 . S
C399 C400 1.398 1_556 S
C399 C405 1.491 1_556 S
C400 H391 0.950 . S
C400 C399 1.398 1_554 S
C400 C401 1.391 . S
C401 H389 0.950 . S
C401 C397 1.393 1_554 S
C401 C400 1.391 . S
C402 H392 0.950 . S
C402 C403 1.386 . S
C402 C404 1.391 . S
C403 C402 1.386 . S
C403 C407 1.393 1_554 S
C404 H393 0.950 . S
C404 C402 1.391 . S
C404 C405 1.400 . S
C405 C399 1.491 1_554 S
C405 C404 1.400 . S
C405 C406 1.398 1_554 S
C406 H394 0.950 . S
C406 C405 1.398 1_556 S
C406 C407 1.391 . S
C407 H395 0.950 . S
C407 C403 1.393 1_556 S
C407 C406 1.391 . S
H408 C416 0.950 . S
H409 C421 0.950 . S
H410 C418 0.950 . S
H411 C420 0.950 . S
H412 C422 0.950 . S
H413 C424 0.950 . S
H414 C426 0.950 . S
H415 C427 0.950 1_455 S
C416 H408 0.950 . S
C416 C417 1.386 . S
C416 C418 1.391 . S
C417 C416 1.386 . S
C417 C421 1.393 . S
C418 H410 0.950 . S
C418 C416 1.391 . S
C418 C419 1.400 . S
C419 C418 1.400 . S
C419 C420 1.398 . S
C419 C425 1.491 . S
C420 H411 0.950 . S
C420 C419 1.398 . S
C420 C421 1.391 . S
C421 H409 0.950 . S
C421 C417 1.393 . S
C421 C420 1.391 . S
C422 H412 0.950 . S
C422 C423 1.386 . S
C422 C424 1.391 . S
C423 C422 1.386 . S
C423 C427 1.393 . S
C424 H413 0.950 . S
C424 C422 1.391 . S
C424 C425 1.400 . S
C425 C419 1.491 . S
C425 C424 1.400 . S
C425 C426 1.398 . S
C426 H414 0.950 . S
C426 C425 1.398 . S
C426 C427 1.391 . S
C427 H415 0.950 1_655 S
C427 C423 1.393 . S
C427 C426 1.391 . S
H428 C436 0.950 . S
H429 C441 0.950 . S
H430 C438 0.950 . S
H431 C440 0.950 . S
H432 C442 0.950 . S
H433 C444 0.950 . S
H434 C446 0.950 . S
H435 C447 0.950 . S
C436 H428 0.950 . S
C436 C437 1.386 . S
C436 C438 1.391 . S
C437 C436 1.386 . S
C437 C441 1.393 . S
C438 H430 0.950 . S
C438 C436 1.391 . S
C438 C439 1.400 . S
C439 C438 1.400 . S
C439 C440 1.398 . S
C439 C445 1.491 . S
C440 H431 0.950 . S
C440 C439 1.398 . S
C440 C441 1.391 . S
C441 H429 0.950 . S
C441 C437 1.393 . S
C441 C440 1.391 . S
C442 H432 0.950 . S
C442 C443 1.386 . S
C442 C444 1.391 . S
C443 C442 1.386 . S
C443 C447 1.393 . S
C444 H433 0.950 . S
C444 C442 1.391 . S
C444 C445 1.400 . S
C445 C439 1.491 . S
C445 C444 1.400 . S
C445 C446 1.398 . S
C446 H434 0.950 . S
C446 C445 1.398 . S
C446 C447 1.391 . S
C447 H435 0.950 . S
C447 C443 1.393 . S
C447 C446 1.391 . S
H448 C456 0.950 . S
H449 C461 0.950 . S
H450 C458 0.950 . S
H451 C460 0.950 . S
H452 C462 0.950 . S
H453 C464 0.950 . S
H454 C466 0.950 . S
H455 C467 0.950 1_455 S
C456 H448 0.950 . S
C456 C457 1.386 . S
C456 C458 1.391 . S
C457 C456 1.386 . S
C457 C461 1.393 . S
C458 H450 0.950 . S
C458 C456 1.391 . S
C458 C459 1.400 . S
C459 C458 1.400 . S
C459 C460 1.398 . S
C459 C465 1.491 . S
C460 H451 0.950 . S
C460 C459 1.398 . S
C460 C461 1.391 . S
C461 H449 0.950 . S
C461 C457 1.393 . S
C461 C460 1.391 . S
C462 H452 0.950 . S
C462 C463 1.386 . S
C462 C464 1.391 . S
C463 C462 1.386 . S
C463 C467 1.393 . S
C464 H453 0.950 . S
C464 C462 1.391 . S
C464 C465 1.400 . S
C465 C459 1.491 . S
C465 C464 1.400 . S
C465 C466 1.398 . S
C466 H454 0.950 . S
C466 C465 1.398 . S
C466 C467 1.391 . S
C467 H455 0.950 1_655 S
C467 C463 1.393 . S
C467 C466 1.391 . S
H468 C476 0.950 . S
H469 C481 0.950 . S
H470 C478 0.950 . S
H471 C480 0.950 . S
H472 C482 0.950 . S
H473 C484 0.950 . S
H474 C486 0.950 . S
H475 C487 0.950 . S
C476 H468 0.950 . S
C476 C477 1.386 . S
C476 C478 1.391 . S
C477 C476 1.386 . S
C477 C481 1.393 . S
C478 H470 0.950 . S
C478 C476 1.391 . S
C478 C479 1.400 . S
C479 C478 1.400 . S
C479 C480 1.398 . S
C479 C485 1.491 . S
C480 H471 0.950 . S
C480 C479 1.398 . S
C480 C481 1.391 . S
C481 H469 0.950 . S
C481 C477 1.393 . S
C481 C480 1.391 . S
C482 H472 0.950 . S
C482 C483 1.386 . S
C482 C484 1.391 . S
C483 C482 1.386 . S
C483 C487 1.393 . S
C484 H473 0.950 . S
C484 C482 1.391 . S
C484 C485 1.400 . S
C485 C479 1.491 . S
C485 C484 1.400 . S
C485 C486 1.398 . S
C486 H474 0.950 . S
C486 C485 1.398 . S
C486 C487 1.391 . S
C487 H475 0.950 . S
C487 C483 1.393 . S
C487 C486 1.391 . S
H488 C496 0.950 . S
H489 C501 0.950 . S
H490 C498 0.950 . S
H491 C500 0.950 . S
H492 C502 0.950 . S
H493 C504 0.950 . S
H494 C506 0.950 . S
H495 C507 0.950 . S
C496 H488 0.950 . S
C496 C497 1.386 . S
C496 C498 1.391 . S
C497 C496 1.386 . S
C497 C501 1.393 . S
C498 H490 0.950 . S
C498 C496 1.391 . S
C498 C499 1.400 . S
C499 C498 1.400 . S
C499 C500 1.398 . S
C499 C505 1.491 . S
C500 H491 0.950 . S
C500 C499 1.398 . S
C500 C501 1.391 . S
C501 H489 0.950 . S
C501 C497 1.393 . S
C501 C500 1.391 . S
C502 H492 0.950 . S
C502 C503 1.386 . S
C502 C504 1.391 . S
C503 C502 1.386 . S
C503 C507 1.393 . S
C504 H493 0.950 . S
C504 C502 1.391 . S
C504 C505 1.400 . S
C505 C499 1.491 . S
C505 C504 1.400 . S
C505 C506 1.398 . S
C506 H494 0.950 . S
C506 C505 1.398 . S
C506 C507 1.391 . S
C507 H495 0.950 . S
C507 C503 1.393 . S
C507 C506 1.391 . S
H508 C516 0.950 . S
H509 C521 0.950 . S
H510 C518 0.950 . S
H511 C520 0.950 . S
H512 C522 0.950 . S
H513 C524 0.950 . S
H514 C526 0.950 . S
H515 C527 0.950 . S
C516 H508 0.950 . S
C516 C517 1.386 . S
C516 C518 1.391 . S
C517 C516 1.386 . S
C517 C521 1.393 . S
C518 H510 0.950 . S
C518 C516 1.391 . S
C518 C519 1.400 . S
C519 C518 1.400 . S
C519 C520 1.398 . S
C519 C525 1.491 . S
C520 H511 0.950 . S
C520 C519 1.398 . S
C520 C521 1.391 . S
C521 H509 0.950 . S
C521 C517 1.393 . S
C521 C520 1.391 . S
C522 H512 0.950 . S
C522 C523 1.386 . S
C522 C524 1.391 . S
C523 C522 1.386 . S
C523 C527 1.393 . S
C524 H513 0.950 . S
C524 C522 1.391 . S
C524 C525 1.400 . S
C525 C519 1.491 . S
C525 C524 1.400 . S
C525 C526 1.398 . S
C526 H514 0.950 . S
C526 C525 1.398 . S
C526 C527 1.391 . S
C527 H515 0.950 . S
C527 C523 1.393 . S
C527 C526 1.391 . S
H528 C536 0.950 . S
H529 C541 0.950 . S
H530 C538 0.950 . S
H531 C540 0.950 . S
H532 C542 0.950 1_545 S
H533 C544 0.950 . S
H534 C546 0.950 . S
H535 C547 0.950 . S
C536 H528 0.950 . S
C536 C537 1.386 . S
C536 C538 1.391 . S
C537 C536 1.386 . S
C537 C541 1.393 1_556 S
C538 H530 0.950 . S
C538 C536 1.391 . S
C538 C539 1.400 . S
C539 C538 1.400 . S
C539 C540 1.398 1_556 S
C539 C545 1.484 1_556 S
C540 H531 0.950 . S
C540 C539 1.398 1_554 S
C540 C541 1.391 . S
C541 H529 0.950 . S
C541 C537 1.393 1_554 S
C541 C540 1.391 . S
C542 H532 0.950 1_565 S
C542 C543 1.386 . S
C542 C544 1.391 . S
C543 C542 1.386 . S
C543 C547 1.393 1_554 S
C544 H533 0.950 . S
C544 C542 1.391 . S
C544 C545 1.423 . S
C545 C539 1.484 1_554 S
C545 C544 1.423 . S
C545 C546 1.383 1_554 S
C546 H534 0.950 . S
C546 C545 1.383 1_556 S
C546 C547 1.391 . S
C547 H535 0.950 . S
C547 C543 1.393 1_556 S
C547 C546 1.391 . S
H548 C556 0.950 . S
H549 C561 0.950 . S
H550 C558 0.950 . S
H551 C560 0.950 . S
H552 C562 0.950 . S
H553 C564 0.950 . S
H554 C566 0.950 . S
H555 C567 0.950 . S
C556 H548 0.950 . S
C556 C557 1.386 . S
C556 C558 1.391 . S
C557 C556 1.386 . S
C557 C561 1.393 . S
C558 H550 0.950 . S
C558 C556 1.391 . S
C558 C559 1.400 . S
C559 C558 1.400 . S
C559 C560 1.398 . S
C559 C565 1.491 . S
C560 H551 0.950 . S
C560 C559 1.398 . S
C560 C561 1.391 . S
C561 H549 0.950 . S
C561 C557 1.393 . S
C561 C560 1.391 . S
C562 H552 0.950 . S
C562 C563 1.386 . S
C562 C564 1.391 . S
C563 C562 1.386 . S
C563 C567 1.393 . S
C564 H553 0.950 . S
C564 C562 1.391 . S
C564 C565 1.400 . S
C565 C559 1.491 . S
C565 C564 1.400 . S
C565 C566 1.398 . S
C566 H554 0.950 . S
C566 C565 1.398 . S
C566 C567 1.391 . S
C567 H555 0.950 . S
C567 C563 1.393 . S
C567 C566 1.391 . S
H568 C576 0.950 . S
H569 C581 0.950 . S
H570 C578 0.950 . S
H571 C580 0.950 . S
H572 C582 0.950 . S
H573 C584 0.950 . S
H574 C586 0.950 . S
H575 C587 0.950 . S
C576 H568 0.950 . S
C576 C577 1.386 . S
C576 C578 1.391 . S
C577 C576 1.386 . S
C577 C581 1.393 . S
C578 H570 0.950 . S
C578 C576 1.391 . S
C578 C579 1.400 . S
C579 C578 1.400 . S
C579 C580 1.398 . S
C579 C585 1.491 . S
C580 H571 0.950 . S
C580 C579 1.398 . S
C580 C581 1.391 . S
C581 H569 0.950 . S
C581 C577 1.393 . S
C581 C580 1.391 . S
C582 H572 0.950 . S
C582 C583 1.386 . S
C582 C584 1.391 . S
C583 C582 1.386 . S
C583 C587 1.393 . S
C584 H573 0.950 . S
C584 C582 1.391 . S
C584 C585 1.400 . S
C585 C579 1.491 . S
C585 C584 1.400 . S
C585 C586 1.398 . S
C586 H574 0.950 . S
C586 C585 1.398 . S
C586 C587 1.391 . S
C587 H575 0.950 . S
C587 C583 1.393 . S
C587 C586 1.391 . S
H588 C596 0.950 . S
H589 C601 0.950 . S
H590 C598 0.950 . S
H591 C600 0.950 . S
H592 C602 0.950 . S
H593 C604 0.950 . S
H594 C606 0.950 . S
H595 C607 0.950 . S
C596 H588 0.950 . S
C596 C597 1.386 . S
C596 C598 1.391 . S
C597 C596 1.386 . S
C597 C601 1.393 . S
C598 H590 0.950 . S
C598 C596 1.391 . S
C598 C599 1.400 . S
C599 C598 1.400 . S
C599 C600 1.398 . S
C599 C605 1.491 . S
C600 H591 0.950 . S
C600 C599 1.398 . S
C600 C601 1.391 . S
C601 H589 0.950 . S
C601 C597 1.393 . S
C601 C600 1.391 . S
C602 H592 0.950 . S
C602 C603 1.386 . S
C602 C604 1.391 . S
C603 C602 1.386 . S
C603 C607 1.393 . S
C604 H593 0.950 . S
C604 C602 1.391 . S
C604 C605 1.400 . S
C605 C599 1.491 . S
C605 C604 1.400 . S
C605 C606 1.398 . S
C606 H594 0.950 . S
C606 C605 1.398 . S
C606 C607 1.391 . S
C607 H595 0.950 . S
C607 C603 1.393 . S
C607 C606 1.391 . S
H608 C616 0.950 . S
H609 C621 0.950 1_554 S
H610 C618 0.945 1_455 S
H611 C620 0.950 1_554 S
H612 C622 0.950 . S
H613 C624 0.950 . S
H614 C626 0.950 . S
H615 C627 0.950 . S
C616 H608 0.950 . S
C616 C617 1.386 . S
C616 C618 1.391 . S
C617 C616 1.386 . S
C617 C621 1.393 . S
C618 H610 0.945 1_655 S
C618 C616 1.391 . S
C618 C619 1.400 . S
C619 C618 1.400 . S
C619 C620 1.398 . S
C619 C625 1.491 . S
C620 H611 0.950 1_556 S
C620 C619 1.398 . S
C620 C621 1.391 . S
C621 H609 0.950 1_556 S
C621 C617 1.393 . S
C621 C620 1.391 . S
C622 H612 0.950 . S
C622 C623 1.386 1_554 S
C622 C624 1.391 . S
C623 C622 1.386 1_556 S
C623 C627 1.393 1_655 S
C624 H613 0.950 . S
C624 C622 1.391 . S
C624 C625 1.400 1_554 S
C625 C619 1.491 . S
C625 C624 1.400 1_556 S
C625 C626 1.398 1_655 S
C626 H614 0.950 . S
C626 C625 1.398 1_455 S
C626 C627 1.391 . S
C627 H615 0.950 . S
C627 C623 1.393 1_455 S
C627 C626 1.391 . S
H628 C636 0.950 . S
H629 C641 0.950 . S
H630 C638 0.950 . S
H631 C640 0.950 . S
H632 C642 0.950 . S
H633 C644 0.950 . S
H634 C646 0.950 . S
H635 C647 0.950 . S
C636 H628 0.950 . S
C636 C637 1.386 . S
C636 C638 1.391 . S
C637 C636 1.386 . S
C637 C641 1.393 . S
C638 H630 0.950 . S
C638 C636 1.391 . S
C638 C639 1.400 . S
C639 C638 1.400 . S
C639 C640 1.398 . S
C639 C645 1.491 . S
C640 H631 0.950 . S
C640 C639 1.398 . S
C640 C641 1.391 . S
C641 H629 0.950 . S
C641 C637 1.393 . S
C641 C640 1.391 . S
C642 H632 0.950 . S
C642 C643 1.386 . S
C642 C644 1.391 . S
C643 C642 1.386 . S
C643 C647 1.393 . S
C644 H633 0.950 . S
C644 C642 1.391 . S
C644 C645 1.400 . S
C645 C639 1.491 . S
C645 C644 1.400 . S
C645 C646 1.398 . S
C646 H634 0.950 . S
C646 C645 1.398 . S
C646 C647 1.391 . S
C647 H635 0.950 . S
C647 C643 1.393 . S
C647 C646 1.391 . S
H648 C656 0.950 . S
H649 C661 0.950 . S
H650 C658 0.950 . S
H651 C660 0.950 . S
H652 C662 0.950 . S
H653 C664 0.950 . S
H654 C666 0.950 1_655 S
H655 C667 0.950 1_655 S
C656 H648 0.950 . S
C656 C657 1.386 . S
C656 C658 1.391 . S
C657 C656 1.386 . S
C657 C661 1.393 . S
C658 H650 0.950 . S
C658 C656 1.391 . S
C658 C659 1.400 . S
C659 C658 1.400 . S
C659 C660 1.398 . S
C659 C665 1.491 . S
C660 H651 0.950 . S
C660 C659 1.398 . S
C660 C661 1.391 . S
C661 H649 0.950 . S
C661 C657 1.393 . S
C661 C660 1.391 . S
C662 H652 0.950 . S
C662 C663 1.386 . S
C662 C664 1.391 . S
C663 C662 1.386 . S
C663 C667 1.393 . S
C664 H653 0.950 . S
C664 C662 1.391 . S
C664 C665 1.400 . S
C665 C659 1.491 . S
C665 C664 1.400 . S
C665 C666 1.398 . S
C666 H654 0.950 1_455 S
C666 C665 1.398 . S
C666 C667 1.391 . S
C667 H655 0.950 1_455 S
C667 C663 1.393 . S
C667 C666 1.391 . S
H668 C676 0.950 . S
H669 C681 0.950 . S
H670 C678 0.950 . S
H671 C680 0.950 . S
H672 C682 0.950 . S
H673 C684 0.950 . S
H674 C686 0.950 . S
H675 C687 0.950 . S
C676 H668 0.950 . S
C676 C677 1.386 . S
C676 C678 1.391 . S
C677 C676 1.386 . S
C677 C681 1.393 . S
C678 H670 0.950 . S
C678 C676 1.391 . S
C678 C679 1.400 . S
C679 C678 1.400 . S
C679 C680 1.398 . S
C679 C685 1.491 . S
C680 H671 0.950 . S
C680 C679 1.398 . S
C680 C681 1.391 . S
C681 H669 0.950 . S
C681 C677 1.393 . S
C681 C680 1.391 . S
C682 H672 0.950 . S
C682 C683 1.386 . S
C682 C684 1.391 . S
C683 C682 1.386 . S
C683 C687 1.393 . S
C684 H673 0.950 . S
C684 C682 1.391 . S
C684 C685 1.400 . S
C685 C679 1.491 . S
C685 C684 1.400 . S
C685 C686 1.398 . S
C686 H674 0.950 . S
C686 C685 1.398 . S
C686 C687 1.391 . S
C687 H675 0.950 . S
C687 C683 1.393 . S
C687 C686 1.391 . S
C217 C5 2.375 . S
C223 C104 2.497 . S
C237 C18 1.120 . S
C243 N124 1.147 . S
C263 C158 1.763 . S
C257 C30 1.715 . S
C277 C41 1.119 . S
C283 N192 1.072 . S
C303 C145 2.627 . S
C297 C7 2.571 . S
C323 N102 1.324 . S
C317 C16 1.090 . S
C343 C179 2.054 1_556 S
C337 C29 1.929 . S
C363 N154 0.710 . S
C357 C38 0.705 . S
C377 C8 1.929 . S
C383 C194 1.931 . S
C403 C128 1.844 . S
C397 C27 1.515 . S
C417 C40 1.387 . S
C423 C89 1.395 . S
C437 C19 1.035 . S
C443 C175 1.053 . S
C463 C115 2.231 . S
C457 C51 2.146 . S
C477 C62 1.180 . S
C483 N132 1.239 . S
C497 C74 1.822 . S
C503 C149 1.861 . S
C517 C84 1.084 . S
C523 N184 1.141 . S
C537 C49 2.512 . S
C543 C134 2.655 1_565 S
C563 N94 1.076 . S
C557 C63 1.078 . S
C583 C188 1.881 . S
C577 C71 1.566 . S
C603 N162 0.776 . S
C597 C85 0.792 . S
C617 C52 1.865 . S
C623 C205 1.863 1_656 S
C643 C119 1.943 . S
C637 C73 1.815 . S
C663 C98 1.236 . S
C657 C82 1.000 . S
C677 C60 1.268 . S
C683 C164 1.600 . S
