# Generated by pormake.
# Topology nia, (6,6)-cn, num edge types: 1
# Building blocks:
#     Node 0, Type 0, BuildingBlock: LEVNOQ01_clean_sbu_1, # of connection points: 6
#     Node 1, Type 0, BuildingBlock: LEVNOQ01_clean_sbu_1, # of connection points: 6
#     Node 2, Type 1, BuildingBlock: MIDCAF_clean_sbu_0, # of connection points: 6
#     Node 3, Type 1, BuildingBlock: MIDCAF_clean_sbu_0, # of connection points: 6
#     Edge 4, Type (0, 1), BuildingBlock: XIVTED_clean_linker_0, # of connection points: 2
#     Edge 5, Type (0, 1), BuildingBlock: XIVTED_clean_linker_0, # of connection points: 2
#     Edge 6, Type (0, 1), BuildingBlock: XIVTED_clean_linker_0, # of connection points: 2
#     Edge 7, Type (0, 1), BuildingBlock: XIVTED_clean_linker_0, # of connection points: 2
#     Edge 8, Type (0, 1), BuildingBlock: XIVTED_clean_linker_0, # of connection points: 2
#     Edge 9, Type (0, 1), BuildingBlock: XIVTED_clean_linker_0, # of connection points: 2
#     Edge 10, Type (0, 1), BuildingBlock: XIVTED_clean_linker_0, # of connection points: 2
#     Edge 11, Type (0, 1), BuildingBlock: XIVTED_clean_linker_0, # of connection points: 2
#     Edge 12, Type (0, 1), BuildingBlock: XIVTED_clean_linker_0, # of connection points: 2
#     Edge 13, Type (0, 1), BuildingBlock: XIVTED_clean_linker_0, # of connection points: 2
#     Edge 14, Type (0, 1), BuildingBlock: XIVTED_clean_linker_0, # of connection points: 2
#     Edge 15, Type (0, 1), BuildingBlock: XIVTED_clean_linker_0, # of connection points: 2
# Relax obj value: 0.122
# Max RMSD: 0.238
# Mean RMSD: 0.156
data_MOF--net-nia--node1-LEVNOQ01_clean_sbu_1--node2-MIDCAF_clean_sbu_0--edge1-XIVTED_clean_linker_0
_symmetry_space_group_name_H-M    P1
_symmetry_Int_Tables_number       1
_symmetry_cell_setting            triclinic
loop_
_symmetry_equiv_pos_as_xyz
'x, y, z'
_cell_length_a     24.546918
_cell_length_b     24.566621
_cell_length_c     33.51542
_cell_angle_alpha  90.3657
_cell_angle_beta   89.578828
_cell_angle_gamma 128.75539
loop_
_atom_site_label
_atom_site_type_symbol
_atom_site_fract_x
_atom_site_fract_y
_atom_site_fract_z
_atom_type_partial_charge
O0 O 0.01871 0.15056 0.95227 0.0
Mg1 Mg 0.08441 0.14367 0.9873 0.0
O2 O 0.92708 0.04346 0.96879 0.0
Mg3 Mg -0.03219 -0.00089 0.01079 0.0
O4 O 0.07383 0.05535 0.97653 0.0
O5 O 0.16595 0.16337 0.95717 0.0
O6 O 0.00706 0.95336 0.05216 0.0
O7 O 0.92923 0.91378 0.96117 0.0
Mg8 Mg 0.84336 0.8476 0.03951 0.0
O9 O 0.86258 0.94102 0.04364 0.0
O10 O 0.91526 0.85147 0.07625 0.0
O11 O 0.82972 0.81342 0.98011 0.0
O12 O 0.76489 0.84119 0.06654 0.0
C13 C 0.05963 0.14397 0.07119 0.0
C14 C 0.95416 0.09991 0.94947 0.0
C15 C 0.13408 0.09723 0.9587 0.0
C16 C -0.01934 0.9005 0.07485 0.0
C17 C 0.87647 0.85049 0.95396 0.0
C18 C 0.80319 0.90789 0.06211 0.0
O19 O 0.10763 0.18051 0.04578 0.0
O20 O 0.00496 0.08257 0.06229 0.0
O21 O 0.84583 0.9566 0.59209 0.0
Mg22 Mg 0.81866 0.86955 0.56005 0.0
O23 O 0.93562 0.03747 0.55379 0.0
Mg24 Mg -0.03582 0.98082 0.51143 0.0
O25 O 0.90861 0.88553 0.5509 0.0
O26 O 0.82296 0.79769 0.58773 0.0
O27 O -0.00678 0.92378 0.47082 0.0
O28 O 0.05282 0.01546 0.55971 0.0
Mg29 Mg 0.08768 0.07459 0.49662 0.0
O30 O 0.01823 0.07979 0.46687 0.0
O31 O 0.10492 0.00159 0.48278 0.0
O32 O 0.12514 0.12794 0.55145 0.0
O33 O 0.13243 0.14318 0.45167 0.0
C34 C 0.79929 0.88437 0.4724 0.0
C35 C 0.89359 0.02002 0.58303 0.0
C36 C 0.88525 0.83242 0.57326 0.0
C37 C 0.05476 0.94264 0.46891 0.0
C38 C 0.10322 0.07587 0.57283 0.0
C39 C 0.07262 0.12816 0.44573 0.0
O40 O 0.77148 0.84985 0.50437 0.0
O41 O 0.86531 0.93436 0.46978 0.0
Zn42 Zn 0.26819 0.66129 0.18593 0.0
Zn43 Zn 0.28635 0.69359 0.38232 0.0
Zn44 Zn 0.28079 0.68678 0.25795 0.0
C45 C 0.39626 0.7593 0.31134 0.0
C46 C 0.21124 0.5591 0.33343 0.0
O47 O 0.22608 0.72617 0.23386 0.0
O48 O 0.21212 0.68979 0.17167 0.0
C49 C 0.41018 0.76398 0.19643 0.0
O50 O 0.39191 0.7567 0.27346 0.0
O51 O 0.33902 0.73056 0.32968 0.0
O52 O 0.22716 0.59056 0.36723 0.0
O53 O 0.22966 0.59055 0.29884 0.0
O54 O 0.36677 0.72928 0.16874 0.0
O55 O 0.38917 0.75317 0.23299 0.0
O56 O 0.22457 0.57349 0.25426 0.0
O57 O 0.2228 0.56097 0.18883 0.0
C58 C 0.20804 0.53486 0.22331 0.0
O59 O 0.22981 0.73079 0.27586 0.0
O60 O 0.27008 0.71901 0.32879 0.0
C61 C 0.20493 0.72184 0.19798 0.0
C62 C 0.23471 0.73503 0.31375 0.0
Zn63 Zn 0.69035 0.33704 0.82605 0.0
Zn64 Zn 0.64493 0.28882 0.68053 0.0
Zn65 Zn 0.66653 0.31518 0.75454 0.0
C66 C 0.73588 0.43346 0.68776 0.0
C67 C 0.51413 0.22078 0.71008 0.0
O68 O 0.71103 0.26417 0.77613 0.0
O69 O 0.70493 0.27044 0.84157 0.0
C70 C 0.76834 0.46689 0.79853 0.0
O71 O 0.72938 0.41822 0.72509 0.0
O72 O 0.69941 0.38582 0.66221 0.0
O73 O 0.54254 0.22524 0.67746 0.0
O74 O 0.55177 0.25175 0.74153 0.0
O75 O 0.76967 0.43754 0.82877 0.0
O76 O 0.73069 0.4298 0.76813 0.0
O77 O 0.56264 0.26106 0.78328 0.0
O78 O 0.59918 0.30889 0.84291 0.0
C79 C 0.54946 0.26944 0.81908 0.0
O80 O 0.71608 0.26791 0.73461 0.0
O81 O 0.69542 0.25307 0.66968 0.0
C82 C 0.71666 0.24804 0.81159 0.0
C83 C 0.72406 0.25066 0.69986 0.0
H84 H 0.11102 0.94412 0.05598 0.0
H85 H 0.16857 0.78984 0.2435 0.0
H86 H 0.95274 0.83994 0.14792 0.0
H87 H 0.18371 0.74135 0.1219 0.0
H88 H 0.12218 0.84785 0.21841 0.0
H89 H 0.17555 0.91294 0.09118 0.0
C90 C 0.09084 0.9163 0.08404 0.0
C91 C 0.02612 0.89352 0.09883 0.0
C92 C 0.13607 0.82441 0.19757 0.0
C93 C 0.09985 0.85934 0.13928 0.0
C94 C 0.16154 0.79061 0.21184 0.0
C95 C 0.17772 0.75838 0.18504 0.0
C96 C 0.12995 0.82836 0.15627 0.0
C97 C 0.17064 0.76396 0.14395 0.0
C98 C 0.12744 0.89849 0.10396 0.0
C99 C 0.00206 0.85744 0.1353 0.0
N100 N 0.14767 0.79841 0.13089 0.0
N101 N 0.03879 0.84101 0.15428 0.0
H102 H 0.10976 0.97918 0.60722 0.0
H103 H 0.44651 0.27067 0.73485 0.0
H104 H 0.19043 0.19303 0.61817 0.0
H105 H 0.41183 0.09113 0.68184 0.0
H106 H 0.32851 0.22433 0.71413 0.0
H107 H 0.1962 0.00282 0.65606 0.0
C108 C 0.14442 0.03058 0.62064 0.0
C109 C 0.14397 0.08468 0.60808 0.0
C110 C 0.34608 0.19415 0.70814 0.0
C111 C 0.2423 0.11175 0.66399 0.0
C112 C 0.41297 0.22023 0.72024 0.0
C113 C 0.43858 0.18467 0.70971 0.0
C114 C 0.30486 0.13197 0.6858 0.0
C115 C 0.39375 0.12007 0.69028 0.0
C116 C 0.19381 0.04405 0.64839 0.0
C117 C 0.18994 0.15023 0.62653 0.0
N118 N 0.3293 0.09609 0.67855 0.0
N119 N 0.2378 0.16218 0.65323 0.0
H120 H 0.96249 0.14285 0.11331 0.0
H121 H 0.27172 0.47737 0.2321 0.0
H122 H 0.17572 0.22027 0.11666 0.0
H123 H 0.07035 0.4253 0.21499 0.0
H124 H 0.22387 0.36009 0.21009 0.0
H125 H -0.01163 0.22256 0.16841 0.0
C126 C 0.01401 0.17493 0.12657 0.0
C127 C 0.06744 0.17601 0.11025 0.0
C128 C 0.18931 0.37327 0.21232 0.0
C129 C 0.09744 0.26691 0.17274 0.0
C130 C 0.21649 0.43993 0.22545 0.0
C131 C 0.17449 0.46028 0.22592 0.0
C132 C 0.12028 0.32762 0.19819 0.0
C133 C 0.10393 0.41086 0.21558 0.0
C134 C 0.02891 0.22064 0.1578 0.0
C135 C 0.13343 0.21874 0.12816 0.0
N136 N 0.07925 0.34714 0.20134 0.0
N137 N 0.14677 0.263 0.15806 0.0
H138 H 0.93888 0.15029 0.5604 0.0
H139 H 0.72156 0.14978 0.73657 0.0
H140 H 0.85418 0.00849 0.66015 0.0
H141 H 0.8287 0.30921 0.64629 0.0
H142 H 0.78696 0.10952 0.71558 0.0
H143 H 0.91749 0.22221 0.59708 0.0
C144 C 0.91736 0.13525 0.59031 0.0
C145 C 0.89664 0.0726 0.60689 0.0
C146 C 0.79739 0.15431 0.70086 0.0
C147 C 0.87125 0.15349 0.64872 0.0
C148 C 0.7605 0.17751 0.71319 0.0
C149 C 0.77044 0.23291 0.69328 0.0
C150 C 0.84304 0.18589 0.66781 0.0
C151 C 0.8197 0.26598 0.66223 0.0
C152 C 0.90482 0.17601 0.61122 0.0
C153 C 0.86924 0.05555 0.64585 0.0
N154 N 0.85354 0.24143 0.65006 0.0
N155 N 0.85631 0.09505 0.66514 0.0
H156 H 0.83623 0.96292 0.13631 0.0
H157 H 0.52733 0.79626 0.23239 0.0
H158 H 0.71185 0.92494 0.03392 0.0
H159 H 0.45931 0.85381 0.1349 0.0
H160 H 0.64621 0.8728 0.20547 0.0
H161 H 0.75305 0.95975 0.17913 0.0
C162 C 0.7931 0.95743 0.12269 0.0
C163 C 0.77999 0.94341 0.08179 0.0
C164 C 0.6062 0.87124 0.19073 0.0
C165 C 0.68279 0.93513 0.13038 0.0
C166 C 0.5382 0.82718 0.20616 0.0
C167 C 0.48386 0.81853 0.18557 0.0
C168 C 0.61921 0.90622 0.15436 0.0
C169 C 0.49991 0.85831 0.15119 0.0
C170 C 0.7447 0.95384 0.14722 0.0
C171 C 0.72337 0.93578 0.06544 0.0
N172 N 0.56583 0.89944 0.13628 0.0
N173 N 0.67581 0.93013 0.08994 0.0
H174 H 0.94956 0.85726 0.64347 0.0
H175 H 0.80445 0.46968 0.61705 0.0
H176 H 0.90704 0.75351 0.53059 0.0
H177 H 0.792 0.55917 0.72402 0.0
H178 H 0.88739 0.58643 0.5891 0.0
H179 H 0.94618 0.76631 0.67571 0.0
C180 C 0.94382 0.81748 0.6251 0.0
C181 C 0.92681 0.81136 0.58465 0.0
C182 C 0.86778 0.58071 0.61911 0.0
C183 C 0.91986 0.70633 0.62123 0.0
C184 C 0.81978 0.51411 0.63496 0.0
C185 C 0.79049 0.50483 0.67293 0.0
C186 C 0.88614 0.63861 0.64118 0.0
C187 C 0.81358 0.56412 0.69505 0.0
C188 C 0.94067 0.76495 0.6436 0.0
C189 C 0.91946 0.75915 0.56204 0.0
N190 N 0.85921 0.6286 0.67862 0.0
N191 N 0.9136 0.70694 0.58088 0.0
H192 H -0.01932 0.84181 0.41029 0.0
H193 H 0.27391 0.79306 0.38766 0.0
H194 H 0.16498 0.94518 0.48331 0.0
H195 H 0.1159 0.72059 0.29866 0.0
H196 H 0.22241 0.83322 0.42838 0.0
H197 H 0.0178 0.78218 0.37411 0.0
C198 C 0.02828 0.85115 0.41908 0.0
C199 C 0.07015 0.89903 0.4496 0.0
C200 C 0.19893 0.80876 0.39988 0.0
C201 C 0.11271 0.83123 0.40858 0.0
C202 C 0.22823 0.78558 0.37667 0.0
C203 C 0.20037 0.75534 0.33916 0.0
C204 C 0.14082 0.80133 0.38574 0.0
C205 C 0.14072 0.74635 0.32662 0.0
C206 C 0.04964 0.8175 0.3983 0.0
C207 C 0.13147 0.90939 0.45967 0.0
N208 N 0.11306 0.76961 0.34975 0.0
N209 N 0.15086 0.87605 0.43923 0.0
H210 H 0.12029 0.05974 0.8811 0.0
H211 H 0.51018 0.29976 0.88551 0.0
H212 H 0.22947 0.0883 0.98905 0.0
H213 H 0.42575 0.14813 0.79022 0.0
H214 H 0.39756 0.2273 0.91877 0.0
H215 H 0.21885 0.08533 0.8419 0.0
C216 C 0.16314 0.06703 0.89647 0.0
C217 C 0.16738 0.07223 0.93823 0.0
C218 C 0.40368 0.20981 0.89056 0.0
C219 C 0.28025 0.10438 0.89405 0.0
C220 C 0.46772 0.25146 0.87126 0.0
C221 C 0.47759 0.23006 0.8349 0.0
C222 C 0.34812 0.14659 0.87326 0.0
C223 C 0.42005 0.16715 0.8178 0.0
C224 C 0.21954 0.08237 0.8741 0.0
C225 C 0.22447 0.08367 0.95688 0.0
N226 N 0.35706 0.12745 0.83707 0.0
N227 N 0.27993 0.10174 0.93465 0.0
H228 H 0.14848 0.18512 0.37775 0.0
H229 H 0.08449 0.46411 0.36799 0.0
H230 H -0.00776 0.17084 0.44811 0.0
H231 H 0.25067 0.48362 0.30684 0.0
H232 H 0.0314 0.34315 0.38497 0.0
H233 H 0.16577 0.27804 0.33853 0.0
C234 C 0.11677 0.20076 0.38442 0.0
C235 C 0.06967 0.17114 0.41662 0.0
C236 C 0.07838 0.37309 0.36687 0.0
C237 C 0.09043 0.2789 0.37237 0.0
C238 C 0.10844 0.44189 0.35704 0.0
C239 C 0.17114 0.48298 0.33532 0.0
C240 C 0.11214 0.34575 0.35549 0.0
C241 C 0.20117 0.45274 0.32256 0.0
C242 C 0.12682 0.254 0.36206 0.0
C243 C 0.02932 0.19262 0.42364 0.0
N244 N 0.1718 0.38615 0.33317 0.0
N245 N 0.04167 0.24636 0.4022 0.0
H246 H 0.81073 0.0214 0.94655 0.0
H247 H 0.83525 0.27352 0.78382 0.0
H248 H 0.00133 0.1947 0.88999 0.0
H249 H 0.65474 0.13402 0.85836 0.0
H250 H 0.8876 0.22278 0.81012 0.0
H251 H 0.74467 0.04203 0.90343 0.0
C252 C 0.83855 0.06327 0.92491 0.0
C253 C 0.9117 0.10718 0.92239 0.0
C254 C 0.83587 0.20218 0.82012 0.0
C255 C 0.83682 0.13042 0.87283 0.0
C256 C 0.80584 0.23061 0.80476 0.0
C257 C 0.7407 0.20733 0.81884 0.0
C258 C 0.80069 0.15098 0.85013 0.0
C259 C 0.70514 0.15294 0.84676 0.0
C260 C 0.80093 0.07498 0.90031 0.0
C261 C 0.9451 0.16034 0.89356 0.0
N262 N 0.73588 0.127 0.86186 0.0
N263 N 0.90752 0.17066 0.87015 0.0
H264 H 0.67895 0.75671 0.45599 0.0
H265 H 0.53263 0.86351 0.28941 0.0
H266 H 0.80704 0.96972 0.41468 0.0
H267 H 0.4064 0.70902 0.38033 0.0
H268 H 0.6385 0.89546 0.32278 0.0
H269 H 0.58456 0.7286 0.41352 0.0
C270 C 0.68768 0.79746 0.43737 0.0
C271 C 0.75071 0.86596 0.43932 0.0
C272 C 0.58753 0.85476 0.3353 0.0
C273 C 0.64188 0.83391 0.39072 0.0
C274 C 0.52731 0.83627 0.31626 0.0
C275 C 0.46084 0.78325 0.33205 0.0
C276 C 0.58067 0.81877 0.36979 0.0
C277 C 0.45659 0.75037 0.36726 0.0
C278 C 0.63348 0.78137 0.41334 0.0
C279 C 0.75924 0.91629 0.41406 0.0
N280 N 0.51555 0.76816 0.38466 0.0
N281 N 0.70489 0.89944 0.39097 0.0
H282 H 0.76071 0.7635 0.90897 0.0
H283 H 0.89902 0.57482 0.82405 0.0
H284 H -0.02121 0.85736 0.9147 0.0
H285 H 0.70465 0.52413 0.78625 0.0
H286 H 0.93607 0.68711 0.84947 0.0
H287 H 0.74441 0.68529 0.85646 0.0
C288 C 0.80553 0.76862 0.89836 0.0
C289 C 0.87101 0.8164 0.91621 0.0
C290 C 0.88625 0.65253 0.83447 0.0
C291 C 0.85248 0.72553 0.8571 0.0
C292 C 0.86529 0.58862 0.81985 0.0
C293 C 0.79914 0.54079 0.80269 0.0
C294 C 0.83967 0.66755 0.83303 0.0
C295 C 0.75649 0.56013 0.79881 0.0
C296 C 0.79629 0.72397 0.8684 0.0
C297 C 0.92749 0.82114 0.90154 0.0
N298 N 0.77698 0.62152 0.8145 0.0
N299 N 0.91659 0.77495 0.87345 0.0
loop_
_geom_bond_atom_site_label_1
_geom_bond_atom_site_label_2
_geom_bond_distance
_geom_bond_site_symmetry_2
_ccdc_geom_bond_type
O0 Mg1 1.990 . S
O0 C14 1.253 1_455 S
Mg1 O0 1.990 . S
Mg1 O4 2.180 . S
Mg1 O5 2.117 . S
Mg1 O19 2.030 1_556 S
O2 Mg3 2.072 1_656 S
O2 C14 1.260 . S
Mg3 O2 2.072 1_454 S
Mg3 O4 2.099 1_554 S
Mg3 O6 2.079 1_545 S
Mg3 O7 2.072 1_444 S
Mg3 O9 2.099 1_445 S
Mg3 O20 2.079 . S
O4 Mg1 2.180 . S
O4 Mg3 2.099 1_556 S
O4 C15 1.279 . S
O5 Mg1 2.117 . S
O5 C15 1.250 . S
O6 Mg3 2.079 1_565 S
O6 C16 1.264 . S
O7 Mg3 2.072 1_666 S
O7 C17 1.260 . S
Mg8 O9 2.180 . S
Mg8 O10 2.030 . S
Mg8 O11 1.990 1_554 S
Mg8 O12 2.117 . S
O9 Mg3 2.099 1_665 S
O9 Mg8 2.180 . S
O9 C18 1.279 . S
O10 Mg8 2.030 . S
O10 C16 1.248 1_655 S
O11 Mg8 1.990 1_556 S
O11 C17 1.253 . S
O12 Mg8 2.117 . S
O12 C18 1.250 . S
C13 O19 1.248 . S
C13 O20 1.264 . S
C14 O0 1.253 1_655 S
C14 O2 1.260 . S
C15 O4 1.279 . S
C15 O5 1.250 . S
C16 O6 1.264 . S
C16 O10 1.248 1_455 S
C17 O7 1.260 . S
C17 O11 1.253 . S
C18 O9 1.279 . S
C18 O12 1.250 . S
O19 Mg1 2.030 1_554 S
O19 C13 1.248 . S
O20 Mg3 2.079 . S
O20 C13 1.264 . S
O21 Mg22 1.990 . S
O21 C35 1.253 1_565 S
Mg22 O21 1.990 . S
Mg22 O25 2.180 . S
Mg22 O26 2.117 . S
Mg22 O40 2.030 . S
O23 Mg24 2.057 1_645 S
O23 C35 1.260 . S
Mg24 O23 2.057 1_465 S
Mg24 O25 2.109 1_455 S
Mg24 O27 2.093 . S
Mg24 O28 2.076 1_565 S
Mg24 O30 2.089 1_565 S
Mg24 O41 2.077 1_455 S
O25 Mg22 2.180 . S
O25 Mg24 2.109 1_655 S
O25 C36 1.279 . S
O26 Mg22 2.117 . S
O26 C36 1.250 . S
O27 Mg24 2.093 . S
O27 C37 1.264 . S
O28 Mg24 2.076 1_545 S
O28 C38 1.260 . S
Mg29 O30 2.180 . S
Mg29 O31 2.030 . S
Mg29 O32 1.990 . S
Mg29 O33 2.117 . S
O30 Mg24 2.089 1_545 S
O30 Mg29 2.180 . S
O30 C39 1.279 . S
O31 Mg29 2.030 . S
O31 C37 1.248 1_545 S
O32 Mg29 1.990 . S
O32 C38 1.253 . S
O33 Mg29 2.117 . S
O33 C39 1.250 . S
C34 O40 1.248 . S
C34 O41 1.264 . S
C35 O21 1.253 1_545 S
C35 O23 1.260 . S
C36 O25 1.279 . S
C36 O26 1.250 . S
C37 O27 1.264 . S
C37 O31 1.248 1_565 S
C38 O28 1.260 . S
C38 O32 1.253 . S
C39 O30 1.279 . S
C39 O33 1.250 . S
O40 Mg22 2.030 . S
O40 C34 1.248 . S
O41 Mg24 2.077 1_655 S
O41 C34 1.264 . S
Zn42 O48 1.920 . S
Zn42 O54 1.898 . S
Zn42 O57 1.905 . S
Zn43 O51 1.905 . S
Zn43 O52 1.898 . S
Zn43 O60 1.920 . S
Zn44 O47 2.080 . S
Zn44 O50 2.114 . S
Zn44 O53 2.120 . S
Zn44 O55 2.120 . S
Zn44 O56 2.114 . S
Zn44 O59 2.080 . S
C45 O50 1.166 . S
C45 O51 1.182 . S
C46 O52 1.167 . S
C46 O53 1.299 . S
O47 Zn44 2.080 . S
O47 C61 1.305 . S
O48 Zn42 1.920 . S
O48 C61 1.234 . S
C49 O54 1.167 . S
C49 O55 1.299 . S
O50 Zn44 2.114 . S
O50 C45 1.166 . S
O51 Zn43 1.905 . S
O51 C45 1.182 . S
O52 Zn43 1.898 . S
O52 C46 1.167 . S
O53 Zn44 2.120 . S
O53 C46 1.299 . S
O54 Zn42 1.898 . S
O54 C49 1.167 . S
O55 Zn44 2.120 . S
O55 C49 1.299 . S
O56 Zn44 2.114 . S
O56 C58 1.166 . S
O57 Zn42 1.905 . S
O57 C58 1.182 . S
C58 O56 1.166 . S
C58 O57 1.182 . S
O59 Zn44 2.080 . S
O59 C62 1.305 . S
O60 Zn43 1.920 . S
O60 C62 1.234 . S
C61 O47 1.305 . S
C61 O48 1.234 . S
C62 O59 1.305 . S
C62 O60 1.234 . S
Zn63 O69 1.920 . S
Zn63 O75 1.898 . S
Zn63 O78 1.905 . S
Zn64 O72 1.905 . S
Zn64 O73 1.898 . S
Zn64 O81 1.920 . S
Zn65 O68 2.080 . S
Zn65 O71 2.114 . S
Zn65 O74 2.120 . S
Zn65 O76 2.120 . S
Zn65 O77 2.114 . S
Zn65 O80 2.080 . S
C66 O71 1.166 . S
C66 O72 1.182 . S
C67 O73 1.167 . S
C67 O74 1.299 . S
O68 Zn65 2.080 . S
O68 C82 1.305 . S
O69 Zn63 1.920 . S
O69 C82 1.234 . S
C70 O75 1.167 . S
C70 O76 1.299 . S
O71 Zn65 2.114 . S
O71 C66 1.166 . S
O72 Zn64 1.905 . S
O72 C66 1.182 . S
O73 Zn64 1.898 . S
O73 C67 1.167 . S
O74 Zn65 2.120 . S
O74 C67 1.299 . S
O75 Zn63 1.898 . S
O75 C70 1.167 . S
O76 Zn65 2.120 . S
O76 C70 1.299 . S
O77 Zn65 2.114 . S
O77 C79 1.166 . S
O78 Zn63 1.905 . S
O78 C79 1.182 . S
C79 O77 1.166 . S
C79 O78 1.182 . S
O80 Zn65 2.080 . S
O80 C83 1.305 . S
O81 Zn64 1.920 . S
O81 C83 1.234 . S
C82 O68 1.305 . S
C82 O69 1.234 . S
C83 O80 1.305 . S
C83 O81 1.234 . S
H84 C90 0.930 . S
H85 C94 0.930 . S
H86 C99 0.929 . S
H87 C97 0.929 . S
H88 C92 0.929 . S
H89 C98 0.929 . S
C90 H84 0.930 . S
C90 C91 1.367 . S
C90 C98 1.378 . S
C91 C90 1.367 . S
C91 C99 1.433 . S
C92 H88 0.929 . S
C92 C94 1.378 . S
C92 C96 1.350 . S
C93 C96 1.463 . S
C93 C98 1.350 . S
C93 N101 1.427 . S
C94 H85 0.930 . S
C94 C92 1.378 . S
C94 C95 1.367 . S
C95 C94 1.367 . S
C95 C97 1.433 . S
C96 C92 1.350 . S
C96 C93 1.463 . S
C96 N100 1.427 . S
C97 H87 0.929 . S
C97 C95 1.433 . S
C97 N100 1.384 . S
C98 H89 0.929 . S
C98 C90 1.378 . S
C98 C93 1.350 . S
C99 H86 0.929 . S
C99 C91 1.433 . S
C99 N101 1.384 . S
N100 C96 1.427 . S
N100 C97 1.384 . S
N101 C93 1.427 . S
N101 C99 1.384 . S
H102 C108 0.930 1_565 S
H103 C112 0.930 . S
H104 C117 0.929 . S
H105 C115 0.929 . S
H106 C110 0.929 . S
H107 C116 0.929 . S
C108 H102 0.930 1_545 S
C108 C109 1.367 . S
C108 C116 1.378 . S
C109 C108 1.367 . S
C109 C117 1.433 . S
C110 H106 0.929 . S
C110 C112 1.378 . S
C110 C114 1.350 . S
C111 C114 1.463 . S
C111 C116 1.350 . S
C111 N119 1.427 . S
C112 H103 0.930 . S
C112 C110 1.378 . S
C112 C113 1.367 . S
C113 C112 1.367 . S
C113 C115 1.433 . S
C114 C110 1.350 . S
C114 C111 1.463 . S
C114 N118 1.427 . S
C115 H105 0.929 . S
C115 C113 1.433 . S
C115 N118 1.384 . S
C116 H107 0.929 . S
C116 C108 1.378 . S
C116 C111 1.350 . S
C117 H104 0.929 . S
C117 C109 1.433 . S
C117 N119 1.384 . S
N118 C114 1.427 . S
N118 C115 1.384 . S
N119 C111 1.427 . S
N119 C117 1.384 . S
H120 C126 0.930 . S
H121 C130 0.930 . S
H122 C135 0.929 . S
H123 C133 0.929 . S
H124 C128 0.929 . S
H125 C134 0.929 . S
C126 H120 0.930 . S
C126 C127 1.367 . S
C126 C134 1.378 . S
C127 C126 1.367 . S
C127 C135 1.433 . S
C128 H124 0.929 . S
C128 C130 1.378 . S
C128 C132 1.350 . S
C129 C132 1.463 . S
C129 C134 1.350 . S
C129 N137 1.427 . S
C130 H121 0.930 . S
C130 C128 1.378 . S
C130 C131 1.367 . S
C131 C130 1.367 . S
C131 C133 1.433 . S
C132 C128 1.350 . S
C132 C129 1.463 . S
C132 N136 1.427 . S
C133 H123 0.929 . S
C133 C131 1.433 . S
C133 N136 1.384 . S
C134 H125 0.929 . S
C134 C126 1.378 . S
C134 C129 1.350 . S
C135 H122 0.929 . S
C135 C127 1.433 . S
C135 N137 1.384 . S
N136 C132 1.427 . S
N136 C133 1.384 . S
N137 C129 1.427 . S
N137 C135 1.384 . S
H138 C144 0.930 . S
H139 C148 0.930 . S
H140 C153 0.929 . S
H141 C151 0.929 . S
H142 C146 0.929 . S
H143 C152 0.929 . S
C144 H138 0.930 . S
C144 C145 1.367 . S
C144 C152 1.378 . S
C145 C144 1.367 . S
C145 C153 1.433 . S
C146 H142 0.929 . S
C146 C148 1.378 . S
C146 C150 1.350 . S
C147 C150 1.463 . S
C147 C152 1.350 . S
C147 N155 1.427 . S
C148 H139 0.930 . S
C148 C146 1.378 . S
C148 C149 1.367 . S
C149 C148 1.367 . S
C149 C151 1.433 . S
C150 C146 1.350 . S
C150 C147 1.463 . S
C150 N154 1.427 . S
C151 H141 0.929 . S
C151 C149 1.433 . S
C151 N154 1.384 . S
C152 H143 0.929 . S
C152 C144 1.378 . S
C152 C147 1.350 . S
C153 H140 0.929 . S
C153 C145 1.433 . S
C153 N155 1.384 . S
N154 C150 1.427 . S
N154 C151 1.384 . S
N155 C147 1.427 . S
N155 C153 1.384 . S
H156 C162 0.930 1_545 S
H157 C166 0.930 . S
H158 C171 0.929 . S
H159 C169 0.929 . S
H160 C164 0.929 . S
H161 C170 0.929 . S
C162 H156 0.930 1_565 S
C162 C163 1.367 . S
C162 C170 1.378 . S
C163 C162 1.367 . S
C163 C171 1.433 . S
C164 H160 0.929 . S
C164 C166 1.378 . S
C164 C168 1.350 . S
C165 C168 1.463 . S
C165 C170 1.350 . S
C165 N173 1.427 . S
C166 H157 0.930 . S
C166 C164 1.378 . S
C166 C167 1.367 . S
C167 C166 1.367 . S
C167 C169 1.433 . S
C168 C164 1.350 . S
C168 C165 1.463 . S
C168 N172 1.427 . S
C169 H159 0.929 . S
C169 C167 1.433 . S
C169 N172 1.384 . S
C170 H161 0.929 . S
C170 C162 1.378 . S
C170 C165 1.350 . S
C171 H158 0.929 . S
C171 C163 1.433 . S
C171 N173 1.384 . S
N172 C168 1.427 . S
N172 C169 1.384 . S
N173 C165 1.427 . S
N173 C171 1.384 . S
H174 C180 0.930 . S
H175 C184 0.930 . S
H176 C189 0.929 . S
H177 C187 0.929 . S
H178 C182 0.929 . S
H179 C188 0.929 . S
C180 H174 0.930 . S
C180 C181 1.367 . S
C180 C188 1.378 . S
C181 C180 1.367 . S
C181 C189 1.433 . S
C182 H178 0.929 . S
C182 C184 1.378 . S
C182 C186 1.350 . S
C183 C186 1.463 . S
C183 C188 1.350 . S
C183 N191 1.427 . S
C184 H175 0.930 . S
C184 C182 1.378 . S
C184 C185 1.367 . S
C185 C184 1.367 . S
C185 C187 1.433 . S
C186 C182 1.350 . S
C186 C183 1.463 . S
C186 N190 1.427 . S
C187 H177 0.929 . S
C187 C185 1.433 . S
C187 N190 1.384 . S
C188 H179 0.929 . S
C188 C180 1.378 . S
C188 C183 1.350 . S
C189 H176 0.929 . S
C189 C181 1.433 . S
C189 N191 1.384 . S
N190 C186 1.427 . S
N190 C187 1.384 . S
N191 C183 1.427 . S
N191 C189 1.384 . S
H192 C198 0.930 . S
H193 C202 0.930 . S
H194 C207 0.929 . S
H195 C205 0.929 . S
H196 C200 0.929 . S
H197 C206 0.929 . S
C198 H192 0.930 . S
C198 C199 1.367 . S
C198 C206 1.378 . S
C199 C198 1.367 . S
C199 C207 1.433 . S
C200 H196 0.929 . S
C200 C202 1.378 . S
C200 C204 1.350 . S
C201 C204 1.463 . S
C201 C206 1.350 . S
C201 N209 1.427 . S
C202 H193 0.930 . S
C202 C200 1.378 . S
C202 C203 1.367 . S
C203 C202 1.367 . S
C203 C205 1.433 . S
C204 C200 1.350 . S
C204 C201 1.463 . S
C204 N208 1.427 . S
C205 H195 0.929 . S
C205 C203 1.433 . S
C205 N208 1.384 . S
C206 H197 0.929 . S
C206 C198 1.378 . S
C206 C201 1.350 . S
C207 H194 0.929 . S
C207 C199 1.433 . S
C207 N209 1.384 . S
N208 C204 1.427 . S
N208 C205 1.384 . S
N209 C201 1.427 . S
N209 C207 1.384 . S
H210 C216 0.919 1_565 S
H211 C220 0.930 . S
H212 C225 0.929 . S
H213 C223 0.929 . S
H214 C218 0.929 . S
H215 C224 0.929 . S
C216 H210 0.919 1_545 S
C216 C217 1.367 . S
C216 C224 1.378 . S
C217 C216 1.367 . S
C217 C225 1.433 . S
C218 H214 0.929 . S
C218 C220 1.378 . S
C218 C222 1.350 . S
C219 C222 1.463 . S
C219 C224 1.350 . S
C219 N227 1.427 . S
C220 H211 0.930 . S
C220 C218 1.378 . S
C220 C221 1.367 . S
C221 C220 1.367 . S
C221 C223 1.433 . S
C222 C218 1.350 . S
C222 C219 1.463 . S
C222 N226 1.427 . S
C223 H213 0.929 . S
C223 C221 1.433 . S
C223 N226 1.384 . S
C224 H215 0.929 . S
C224 C216 1.378 . S
C224 C219 1.350 . S
C225 H212 0.929 . S
C225 C217 1.433 . S
C225 N227 1.384 . S
N226 C222 1.427 . S
N226 C223 1.384 . S
N227 C219 1.427 . S
N227 C225 1.384 . S
H228 C234 0.930 . S
H229 C238 0.930 . S
H230 C243 0.929 1_655 S
H231 C241 0.929 . S
H232 C236 0.929 . S
H233 C242 0.929 . S
C234 H228 0.930 . S
C234 C235 1.367 . S
C234 C242 1.378 . S
C235 C234 1.367 . S
C235 C243 1.433 . S
C236 H232 0.929 . S
C236 C238 1.378 . S
C236 C240 1.350 . S
C237 C240 1.463 . S
C237 C242 1.350 . S
C237 N245 1.427 . S
C238 H229 0.930 . S
C238 C236 1.378 . S
C238 C239 1.367 . S
C239 C238 1.367 . S
C239 C241 1.433 . S
C240 C236 1.350 . S
C240 C237 1.463 . S
C240 N244 1.427 . S
C241 H231 0.929 . S
C241 C239 1.433 . S
C241 N244 1.384 . S
C242 H233 0.929 . S
C242 C234 1.378 . S
C242 C237 1.350 . S
C243 H230 0.929 1_455 S
C243 C235 1.433 . S
C243 N245 1.384 . S
N244 C240 1.427 . S
N244 C241 1.384 . S
N245 C237 1.427 . S
N245 C243 1.384 . S
H246 C252 0.930 . S
H247 C256 0.930 . S
H248 C261 0.929 1_455 S
H249 C259 0.929 . S
H250 C254 0.929 . S
H251 C260 0.929 . S
C252 H246 0.930 . S
C252 C253 1.367 . S
C252 C260 1.378 . S
C253 C252 1.367 . S
C253 C261 1.433 . S
C254 H250 0.929 . S
C254 C256 1.378 . S
C254 C258 1.350 . S
C255 C258 1.463 . S
C255 C260 1.350 . S
C255 N263 1.427 . S
C256 H247 0.930 . S
C256 C254 1.378 . S
C256 C257 1.367 . S
C257 C256 1.367 . S
C257 C259 1.433 . S
C258 C254 1.350 . S
C258 C255 1.463 . S
C258 N262 1.427 . S
C259 H249 0.929 . S
C259 C257 1.433 . S
C259 N262 1.384 . S
C260 H251 0.929 . S
C260 C252 1.378 . S
C260 C255 1.350 . S
C261 H248 0.929 1_655 S
C261 C253 1.433 . S
C261 N263 1.384 . S
N262 C258 1.427 . S
N262 C259 1.384 . S
N263 C255 1.427 . S
N263 C261 1.384 . S
H264 C270 0.930 . S
H265 C274 0.930 . S
H266 C279 0.929 . S
H267 C277 0.929 . S
H268 C272 0.929 . S
H269 C278 0.929 . S
C270 H264 0.930 . S
C270 C271 1.367 . S
C270 C278 1.378 . S
C271 C270 1.367 . S
C271 C279 1.433 . S
C272 H268 0.929 . S
C272 C274 1.378 . S
C272 C276 1.350 . S
C273 C276 1.463 . S
C273 C278 1.350 . S
C273 N281 1.427 . S
C274 H265 0.930 . S
C274 C272 1.378 . S
C274 C275 1.367 . S
C275 C274 1.367 . S
C275 C277 1.433 . S
C276 C272 1.350 . S
C276 C273 1.463 . S
C276 N280 1.427 . S
C277 H267 0.929 . S
C277 C275 1.433 . S
C277 N280 1.384 . S
C278 H269 0.929 . S
C278 C270 1.378 . S
C278 C273 1.350 . S
C279 H266 0.929 . S
C279 C271 1.433 . S
C279 N281 1.384 . S
N280 C276 1.427 . S
N280 C277 1.384 . S
N281 C273 1.427 . S
N281 C279 1.384 . S
H282 C288 0.930 . S
H283 C292 0.930 . S
H284 C297 0.929 1_455 S
H285 C295 0.929 . S
H286 C290 0.929 . S
H287 C296 0.929 . S
C288 H282 0.930 . S
C288 C289 1.367 . S
C288 C296 1.378 . S
C289 C288 1.367 . S
C289 C297 1.433 . S
C290 H286 0.929 . S
C290 C292 1.378 . S
C290 C294 1.350 . S
C291 C294 1.463 . S
C291 C296 1.350 . S
C291 N299 1.427 . S
C292 H283 0.930 . S
C292 C290 1.378 . S
C292 C293 1.367 . S
C293 C292 1.367 . S
C293 C295 1.433 . S
C294 C290 1.350 . S
C294 C291 1.463 . S
C294 N298 1.427 . S
C295 H285 0.929 . S
C295 C293 1.433 . S
C295 N298 1.384 . S
C296 H287 0.929 . S
C296 C288 1.378 . S
C296 C291 1.350 . S
C297 H284 0.929 1_655 S
C297 C289 1.433 . S
C297 N299 1.384 . S
N298 C294 1.427 . S
N298 C295 1.384 . S
N299 C291 1.427 . S
N299 C297 1.384 . S
C91 C16 1.365 . S
C95 C61 1.295 . S
C109 C38 1.500 . S
C113 C67 1.383 . S
C127 C13 1.328 . S
C131 C58 1.270 . S
C145 C35 1.547 . S
C149 C83 1.426 . S
C163 C18 1.400 . S
C167 C49 1.380 . S
C185 C66 1.391 . S
C181 C36 1.274 . S
C199 C37 1.365 . S
C203 C62 1.278 . S
C221 C79 1.399 . S
C217 C15 1.290 . S
C239 C46 1.401 . S
C235 C39 1.380 . S
C257 C82 1.424 . S
C253 C14 1.547 . S
C275 C45 1.270 . S
C271 C34 1.325 . S
C293 C70 1.397 . S
C289 C17 1.491 . S
