# Generated by pormake.
# Topology fgl, (4,4)-cn, num edge types: 1
# Building blocks:
#     Node 0, Type 0, BuildingBlock: ESEHIV_clean_sbu_0, # of connection points: 4
#     Node 1, Type 0, BuildingBlock: ESEHIV_clean_sbu_0, # of connection points: 4
#     Node 2, Type 0, BuildingBlock: ESEHIV_clean_sbu_0, # of connection points: 4
#     Node 3, Type 0, BuildingBlock: ESEHIV_clean_sbu_0, # of connection points: 4
#     Node 4, Type 0, BuildingBlock: ESEHIV_clean_sbu_0, # of connection points: 4
#     Node 5, Type 0, BuildingBlock: ESEHIV_clean_sbu_0, # of connection points: 4
#     Node 6, Type 0, BuildingBlock: ESEHIV_clean_sbu_0, # of connection points: 4
#     Node 7, Type 0, BuildingBlock: ESEHIV_clean_sbu_0, # of connection points: 4
#     Node 8, Type 0, BuildingBlock: ESEHIV_clean_sbu_0, # of connection points: 4
#     Node 9, Type 0, BuildingBlock: ESEHIV_clean_sbu_0, # of connection points: 4
#     Node 10, Type 0, BuildingBlock: ESEHIV_clean_sbu_0, # of connection points: 4
#     Node 11, Type 0, BuildingBlock: ESEHIV_clean_sbu_0, # of connection points: 4
#     Node 12, Type 0, BuildingBlock: ESEHIV_clean_sbu_0, # of connection points: 4
#     Node 13, Type 0, BuildingBlock: ESEHIV_clean_sbu_0, # of connection points: 4
#     Node 14, Type 0, BuildingBlock: ESEHIV_clean_sbu_0, # of connection points: 4
#     Node 15, Type 0, BuildingBlock: ESEHIV_clean_sbu_0, # of connection points: 4
#     Node 16, Type 0, BuildingBlock: ESEHIV_clean_sbu_0, # of connection points: 4
#     Node 17, Type 0, BuildingBlock: ESEHIV_clean_sbu_0, # of connection points: 4
#     Node 18, Type 1, BuildingBlock: NAHDIM_clean_sbu_0, # of connection points: 4
#     Node 19, Type 1, BuildingBlock: NAHDIM_clean_sbu_0, # of connection points: 4
#     Node 20, Type 1, BuildingBlock: NAHDIM_clean_sbu_0, # of connection points: 4
#     Node 21, Type 1, BuildingBlock: NAHDIM_clean_sbu_0, # of connection points: 4
#     Node 22, Type 1, BuildingBlock: NAHDIM_clean_sbu_0, # of connection points: 4
#     Node 23, Type 1, BuildingBlock: NAHDIM_clean_sbu_0, # of connection points: 4
#     Node 24, Type 1, BuildingBlock: NAHDIM_clean_sbu_0, # of connection points: 4
#     Node 25, Type 1, BuildingBlock: NAHDIM_clean_sbu_0, # of connection points: 4
#     Node 26, Type 1, BuildingBlock: NAHDIM_clean_sbu_0, # of connection points: 4
#     Node 27, Type 1, BuildingBlock: NAHDIM_clean_sbu_0, # of connection points: 4
#     Node 28, Type 1, BuildingBlock: NAHDIM_clean_sbu_0, # of connection points: 4
#     Node 29, Type 1, BuildingBlock: NAHDIM_clean_sbu_0, # of connection points: 4
#     Node 30, Type 1, BuildingBlock: NAHDIM_clean_sbu_0, # of connection points: 4
#     Node 31, Type 1, BuildingBlock: NAHDIM_clean_sbu_0, # of connection points: 4
#     Node 32, Type 1, BuildingBlock: NAHDIM_clean_sbu_0, # of connection points: 4
#     Node 33, Type 1, BuildingBlock: NAHDIM_clean_sbu_0, # of connection points: 4
#     Node 34, Type 1, BuildingBlock: NAHDIM_clean_sbu_0, # of connection points: 4
#     Node 35, Type 1, BuildingBlock: NAHDIM_clean_sbu_0, # of connection points: 4
#     Edge 36, Type (0, 1), BuildingBlock: CIFDUS_clean_linker_0, # of connection points: 2
#     Edge 37, Type (0, 1), BuildingBlock: CIFDUS_clean_linker_0, # of connection points: 2
#     Edge 38, Type (0, 1), BuildingBlock: CIFDUS_clean_linker_0, # of connection points: 2
#     Edge 39, Type (0, 1), BuildingBlock: CIFDUS_clean_linker_0, # of connection points: 2
#     Edge 40, Type (0, 1), BuildingBlock: CIFDUS_clean_linker_0, # of connection points: 2
#     Edge 41, Type (0, 1), BuildingBlock: CIFDUS_clean_linker_0, # of connection points: 2
#     Edge 42, Type (0, 1), BuildingBlock: CIFDUS_clean_linker_0, # of connection points: 2
#     Edge 43, Type (0, 1), BuildingBlock: CIFDUS_clean_linker_0, # of connection points: 2
#     Edge 44, Type (0, 1), BuildingBlock: CIFDUS_clean_linker_0, # of connection points: 2
#     Edge 45, Type (0, 1), BuildingBlock: CIFDUS_clean_linker_0, # of connection points: 2
#     Edge 46, Type (0, 1), BuildingBlock: CIFDUS_clean_linker_0, # of connection points: 2
#     Edge 47, Type (0, 1), BuildingBlock: CIFDUS_clean_linker_0, # of connection points: 2
#     Edge 48, Type (0, 1), BuildingBlock: CIFDUS_clean_linker_0, # of connection points: 2
#     Edge 49, Type (0, 1), BuildingBlock: CIFDUS_clean_linker_0, # of connection points: 2
#     Edge 50, Type (0, 1), BuildingBlock: CIFDUS_clean_linker_0, # of connection points: 2
#     Edge 51, Type (0, 1), BuildingBlock: CIFDUS_clean_linker_0, # of connection points: 2
#     Edge 52, Type (0, 1), BuildingBlock: CIFDUS_clean_linker_0, # of connection points: 2
#     Edge 53, Type (0, 1), BuildingBlock: CIFDUS_clean_linker_0, # of connection points: 2
#     Edge 54, Type (0, 1), BuildingBlock: CIFDUS_clean_linker_0, # of connection points: 2
#     Edge 55, Type (0, 1), BuildingBlock: CIFDUS_clean_linker_0, # of connection points: 2
#     Edge 56, Type (0, 1), BuildingBlock: CIFDUS_clean_linker_0, # of connection points: 2
#     Edge 57, Type (0, 1), BuildingBlock: CIFDUS_clean_linker_0, # of connection points: 2
#     Edge 58, Type (0, 1), BuildingBlock: CIFDUS_clean_linker_0, # of connection points: 2
#     Edge 59, Type (0, 1), BuildingBlock: CIFDUS_clean_linker_0, # of connection points: 2
#     Edge 60, Type (0, 1), BuildingBlock: CIFDUS_clean_linker_0, # of connection points: 2
#     Edge 61, Type (0, 1), BuildingBlock: CIFDUS_clean_linker_0, # of connection points: 2
#     Edge 62, Type (0, 1), BuildingBlock: CIFDUS_clean_linker_0, # of connection points: 2
#     Edge 63, Type (0, 1), BuildingBlock: CIFDUS_clean_linker_0, # of connection points: 2
#     Edge 64, Type (0, 1), BuildingBlock: CIFDUS_clean_linker_0, # of connection points: 2
#     Edge 65, Type (0, 1), BuildingBlock: CIFDUS_clean_linker_0, # of connection points: 2
#     Edge 66, Type (0, 1), BuildingBlock: CIFDUS_clean_linker_0, # of connection points: 2
#     Edge 67, Type (0, 1), BuildingBlock: CIFDUS_clean_linker_0, # of connection points: 2
#     Edge 68, Type (0, 1), BuildingBlock: CIFDUS_clean_linker_0, # of connection points: 2
#     Edge 69, Type (0, 1), BuildingBlock: CIFDUS_clean_linker_0, # of connection points: 2
#     Edge 70, Type (0, 1), BuildingBlock: CIFDUS_clean_linker_0, # of connection points: 2
#     Edge 71, Type (0, 1), BuildingBlock: CIFDUS_clean_linker_0, # of connection points: 2
#     Edge 72, Type (0, 1), BuildingBlock: CIFDUS_clean_linker_0, # of connection points: 2
#     Edge 73, Type (0, 1), BuildingBlock: CIFDUS_clean_linker_0, # of connection points: 2
#     Edge 74, Type (0, 1), BuildingBlock: CIFDUS_clean_linker_0, # of connection points: 2
#     Edge 75, Type (0, 1), BuildingBlock: CIFDUS_clean_linker_0, # of connection points: 2
#     Edge 76, Type (0, 1), BuildingBlock: CIFDUS_clean_linker_0, # of connection points: 2
#     Edge 77, Type (0, 1), BuildingBlock: CIFDUS_clean_linker_0, # of connection points: 2
#     Edge 78, Type (0, 1), BuildingBlock: CIFDUS_clean_linker_0, # of connection points: 2
#     Edge 79, Type (0, 1), BuildingBlock: CIFDUS_clean_linker_0, # of connection points: 2
#     Edge 80, Type (0, 1), BuildingBlock: CIFDUS_clean_linker_0, # of connection points: 2
#     Edge 81, Type (0, 1), BuildingBlock: CIFDUS_clean_linker_0, # of connection points: 2
#     Edge 82, Type (0, 1), BuildingBlock: CIFDUS_clean_linker_0, # of connection points: 2
#     Edge 83, Type (0, 1), BuildingBlock: CIFDUS_clean_linker_0, # of connection points: 2
#     Edge 84, Type (0, 1), BuildingBlock: CIFDUS_clean_linker_0, # of connection points: 2
#     Edge 85, Type (0, 1), BuildingBlock: CIFDUS_clean_linker_0, # of connection points: 2
#     Edge 86, Type (0, 1), BuildingBlock: CIFDUS_clean_linker_0, # of connection points: 2
#     Edge 87, Type (0, 1), BuildingBlock: CIFDUS_clean_linker_0, # of connection points: 2
#     Edge 88, Type (0, 1), BuildingBlock: CIFDUS_clean_linker_0, # of connection points: 2
#     Edge 89, Type (0, 1), BuildingBlock: CIFDUS_clean_linker_0, # of connection points: 2
#     Edge 90, Type (0, 1), BuildingBlock: CIFDUS_clean_linker_0, # of connection points: 2
#     Edge 91, Type (0, 1), BuildingBlock: CIFDUS_clean_linker_0, # of connection points: 2
#     Edge 92, Type (0, 1), BuildingBlock: CIFDUS_clean_linker_0, # of connection points: 2
#     Edge 93, Type (0, 1), BuildingBlock: CIFDUS_clean_linker_0, # of connection points: 2
#     Edge 94, Type (0, 1), BuildingBlock: CIFDUS_clean_linker_0, # of connection points: 2
#     Edge 95, Type (0, 1), BuildingBlock: CIFDUS_clean_linker_0, # of connection points: 2
#     Edge 96, Type (0, 1), BuildingBlock: CIFDUS_clean_linker_0, # of connection points: 2
#     Edge 97, Type (0, 1), BuildingBlock: CIFDUS_clean_linker_0, # of connection points: 2
#     Edge 98, Type (0, 1), BuildingBlock: CIFDUS_clean_linker_0, # of connection points: 2
#     Edge 99, Type (0, 1), BuildingBlock: CIFDUS_clean_linker_0, # of connection points: 2
#     Edge 100, Type (0, 1), BuildingBlock: CIFDUS_clean_linker_0, # of connection points: 2
#     Edge 101, Type (0, 1), BuildingBlock: CIFDUS_clean_linker_0, # of connection points: 2
#     Edge 102, Type (0, 1), BuildingBlock: CIFDUS_clean_linker_0, # of connection points: 2
#     Edge 103, Type (0, 1), BuildingBlock: CIFDUS_clean_linker_0, # of connection points: 2
#     Edge 104, Type (0, 1), BuildingBlock: CIFDUS_clean_linker_0, # of connection points: 2
#     Edge 105, Type (0, 1), BuildingBlock: CIFDUS_clean_linker_0, # of connection points: 2
#     Edge 106, Type (0, 1), BuildingBlock: CIFDUS_clean_linker_0, # of connection points: 2
#     Edge 107, Type (0, 1), BuildingBlock: CIFDUS_clean_linker_0, # of connection points: 2
# Relax obj value: 0.037
# Max RMSD: 0.155
# Mean RMSD: 0.109
data_MOF--net-fgl--node1-ESEHIV_clean_sbu_0--node2-NAHDIM_clean_sbu_0--edge1-CIFDUS_clean_linker_0
_symmetry_space_group_name_H-M    P1
_symmetry_Int_Tables_number       1
_symmetry_cell_setting            triclinic
loop_
_symmetry_equiv_pos_as_xyz
'x, y, z'
_cell_length_a     65.872814
_cell_length_b     67.159059
_cell_length_c     45.185012
_cell_angle_alpha  88.532031
_cell_angle_beta   90.559938
_cell_angle_gamma 119.69221
loop_
_atom_site_label
_atom_site_type_symbol
_atom_site_fract_x
_atom_site_fract_y
_atom_site_fract_z
_atom_type_partial_charge
Cu0 Cu 0.02243 0.54578 1.00252 0.0
N1 N 1.00584 0.54783 0.03488 0.0
N2 N 0.99921 0.56537 0.07216 0.0
C3 C 0.00857 0.56779 0.04492 0.0
C4 C 0.99 0.54291 0.07946 0.0
C5 C 0.99406 0.53213 0.05641 0.0
O6 O 0.03286 0.57399 0.97976 0.0
C7 C 0.05428 0.54341 0.04378 0.0
O8 O 0.04713 0.55328 0.06252 0.0
H9 H 0.01883 0.58413 0.03345 0.0
H10 H 0.99016 0.51448 0.05626 0.0
N11 N 1.00551 0.52023 0.97866 0.0
N12 N 1.00064 0.4938 0.94561 0.0
C13 C 0.01606 0.51239 0.96069 0.0
C14 C 0.98244 0.50613 0.97498 0.0
C15 C 0.97939 0.48984 0.95449 0.0
C16 C 0.02365 0.57497 0.95527 0.0
O17 O 0.00944 0.55591 0.94187 0.0
H18 H 0.03485 0.52053 0.9585 0.0
H19 H 0.96886 0.50755 0.98636 0.0
O20 O 0.04806 0.54188 0.01684 0.0
H21 H 0.98168 0.53502 0.10038 0.0
H22 H 0.96281 0.476 0.94711 0.0
Cu23 Cu 0.51154 0.55057 0.01896 0.0
N24 N 0.51554 0.55929 0.97684 0.0
N25 N 0.5329 0.57367 0.93311 0.0
C26 C 0.53521 0.56679 0.96069 0.0
C27 C 0.51086 0.57019 0.93196 0.0
C28 C 0.5002 0.56132 0.95899 0.0
O29 O 0.5341 0.58425 0.02925 0.0
C30 C 0.48624 0.5038 0.99008 0.0
O31 O 0.50392 0.51086 0.97166 0.0
H32 H 0.55115 0.56801 0.96934 0.0
H33 H 0.48275 0.55719 0.96544 0.0
N34 N 0.50818 0.54203 0.06113 0.0
N35 N 0.49281 0.52508 0.10477 0.0
C36 C 0.48835 0.52833 0.07629 0.0
C37 C 0.5257 0.54752 0.08048 0.0
C38 C 0.51629 0.53719 0.10741 0.0
C39 C 0.55627 0.59349 0.03099 0.0
O40 O 0.56618 0.58117 0.02528 0.0
H41 H 0.4711 0.52071 0.06657 0.0
H42 H 0.54408 0.55777 0.07525 0.0
O43 O 0.48659 0.51723 0.00986 0.0
H44 H 0.50304 0.574 0.91305 0.0
H45 H 0.52607 0.53783 0.12709 0.0
Cu46 Cu 0.5268 0.05789 0.99616 0.0
N47 N 0.51925 0.07439 0.96884 0.0
N48 N 0.49816 0.08038 0.93456 0.0
C49 C 0.49791 0.06668 0.95701 0.0
C50 C 0.52051 0.09748 0.93219 0.0
C51 C 0.5335 0.0938 0.95355 0.0
O52 O 0.49695 0.0316 0.00925 0.0
C53 C 0.57016 0.06691 0.97604 0.0
O54 O 0.57511 0.08707 0.98578 0.0
H55 H 0.48282 0.05048 0.96338 0.0
H56 H 0.55216 0.10397 0.9567 0.0
N57 N 0.54202 0.07547 0.02886 0.0
N58 N 0.56295 0.08537 0.07039 0.0
C59 C 0.55191 0.06894 0.05027 0.0
C60 C 0.54687 0.09679 0.0355 0.0
C61 C 0.55985 0.10298 0.06121 0.0
C62 C 0.48638 0.03427 0.03105 0.0
O63 O 0.49669 0.05368 0.04513 0.0
H64 H 0.55163 0.05269 0.05039 0.0
H65 H 0.54164 0.10717 0.02235 0.0
O66 O 0.54904 0.0505 0.97759 0.0
H67 H 0.52709 0.11115 0.91557 0.0
H68 H 0.56647 0.11915 0.07222 0.0
Cu69 Cu 0.50411 0.03959 0.49577 0.0
N70 N 0.50713 0.0327 0.45702 0.0
N71 N 0.52526 0.03437 0.41482 0.0
C72 C 0.5273 0.04329 0.44181 0.0
C73 C 0.50276 0.01752 0.41298 0.0
C74 C 0.4916 0.01649 0.43916 0.0
O75 O 0.53315 0.04515 0.51561 0.0
C76 C 0.48398 0.06634 0.47573 0.0
O77 O 0.47954 0.05379 0.45219 0.0
H78 H 0.54318 0.05727 0.45057 0.0
H79 H 0.47356 1.00466 0.44482 0.0
N80 N 0.47925 0.01499 0.51523 0.0
N81 N 0.45215 0.99753 0.5504 0.0
C82 C 0.46935 0.01766 0.53946 0.0
C83 C 0.46798 0.99229 0.51045 0.0
C84 C 0.45124 0.98141 0.53231 0.0
C85 C 0.5364 0.02788 0.51728 0.0
O86 O 0.52011 0.00829 0.50692 0.0
H87 H 0.47522 0.03414 0.54934 0.0
H88 H 0.47188 0.98418 0.49273 0.0
O89 O 0.4963 0.0644 0.49647 0.0
H90 H 0.49502 1.00636 0.39442 0.0
H91 H 0.4394 0.96315 0.53471 0.0
Cu92 Cu 0.02344 0.55321 0.5157 0.0
N93 N 0.0393 0.5437 0.54236 0.0
N94 N 0.04119 0.52013 0.57715 0.0
C95 C 0.02723 0.5254 0.56059 0.0
C96 C 0.06317 0.53606 0.5691 0.0
C97 C 0.06196 0.55053 0.54752 0.0
O98 O 0.99969 0.52389 0.50006 0.0
C99 C 0.02338 0.58278 0.55914 0.0
O100 O 0.03689 0.5767 0.57364 0.0
H101 H 1.00834 0.51613 0.56154 0.0
H102 H 0.07652 0.56476 0.53628 0.0
N103 N 0.04007 0.57181 0.48293 0.0
N104 N 0.04485 0.59262 0.44117 0.0
C105 C 0.02978 0.57875 0.46237 0.0
C106 C 0.06262 0.58165 0.47463 0.0
C107 C 0.06561 0.59448 0.44888 0.0
C108 C 0.00923 0.51488 0.48498 0.0
O109 O 0.03182 0.52707 0.47989 0.0
H110 H 0.01153 0.57402 0.4635 0.0
H111 H 0.07594 0.57974 0.48641 0.0
O112 O 0.01311 0.57217 0.53575 0.0
H113 H 0.07898 0.5369 0.5776 0.0
H114 H 0.08182 0.60423 0.43674 0.0
Cu115 Cu 0.52675 0.55447 0.52747 0.0
N116 N 0.5417 0.5812 0.50455 0.0
N117 N 0.57156 0.61138 0.48234 0.0
C118 C 0.56497 0.5933 0.50111 0.0
C119 C 0.55156 0.61084 0.47393 0.0
C120 C 0.53306 0.59205 0.48767 0.0
O121 O 0.54826 0.55801 0.55949 0.0
C122 C 0.52528 0.52869 0.47701 0.0
O123 O 0.54399 0.54748 0.46787 0.0
H124 H 0.57679 0.5887 0.51211 0.0
H125 H 0.51468 0.58648 0.48518 0.0
N126 N 0.49916 0.55087 0.54305 0.0
N127 N 0.46252 0.53155 0.55984 0.0
C128 C 0.47973 0.53038 0.54556 0.0
C129 C 0.49427 0.5658 0.5561 0.0
C130 C 0.47154 0.55383 0.56662 0.0
C131 C 0.54185 0.55249 0.58636 0.0
O132 O 0.51945 0.54043 0.59257 0.0
H133 H 0.47874 0.51468 0.53834 0.0
H134 H 0.50652 0.58386 0.55854 0.0
O135 O 0.51717 0.5279 0.50274 0.0
H136 H 0.55034 0.62272 0.45837 0.0
H137 H 0.46254 0.56091 0.57863 0.0
Cu138 Cu 0.69691 0.89519 0.32779 0.0
N139 N 0.70792 0.92322 0.30775 0.0
N140 N 0.7081 0.95461 0.2902 0.0
C141 C 0.69588 0.93446 0.30507 0.0
C142 C 0.72866 0.95608 0.28312 0.0
C143 C 0.72855 0.93668 0.29416 0.0
O144 O 0.68412 0.8984 0.36619 0.0
C145 C 0.68689 0.8716 0.27496 0.0
O146 O 0.7078 0.88914 0.26981 0.0
H147 H 0.67845 0.92789 0.31392 0.0
H148 H 0.74255 0.93274 0.29256 0.0
N149 N 0.72135 0.8895 0.33607 0.0
N150 N 0.73882 0.86848 0.34123 0.0
C151 C 0.71889 0.8685 0.33458 0.0
C152 C 0.74376 0.90341 0.3439 0.0
C153 C 0.75456 0.89035 0.34743 0.0
C154 C 0.6988 0.91527 0.38165 0.0
O155 O 0.71991 0.92822 0.3708 0.0
H156 H 0.70259 0.85337 0.32915 0.0
H157 H 0.75174 0.9217 0.34671 0.0
O158 O 0.67707 0.87058 0.29983 0.0
H159 H 0.74293 0.97037 0.27147 0.0
H160 H 0.77255 0.89642 0.35374 0.0
Cu161 Cu 0.1923 0.89257 0.35358 0.0
N162 N 0.16423 0.87737 0.33234 0.0
N163 N 0.1341 0.84778 0.31041 0.0
C164 C 0.15552 0.85588 0.32247 0.0
C165 C 0.12917 0.86497 0.31268 0.0
C166 C 0.14784 0.88324 0.32611 0.0
O167 O 0.1877 0.87237 0.38813 0.0
C168 C 0.21788 0.91123 0.30352 0.0
O169 O 0.20241 0.91818 0.30279 0.0
H170 H 0.16434 0.84599 0.32538 0.0
H171 H 0.14905 0.89936 0.33166 0.0
N172 N 0.19967 0.92166 0.36737 0.0
N173 N 0.22245 0.958 0.38146 0.0
C174 C 0.22169 0.9393 0.36978 0.0
C175 C 0.18592 0.92946 0.37795 0.0
C176 C 0.19992 0.95184 0.38671 0.0
C177 C 0.16929 0.86734 0.40302 0.0
O178 O 0.15673 0.87672 0.39461 0.0
H179 H 0.23693 0.93823 0.36353 0.0
H180 H 0.16708 0.9196 0.37941 0.0
O181 O 0.21712 0.89834 0.32529 0.0
H182 H 0.11312 0.86428 0.30551 0.0
H183 H 0.19394 0.96277 0.39587 0.0
Cu184 Cu 0.20523 0.42135 0.36137 0.0
N185 N 0.20171 0.43921 0.33203 0.0
N186 N 0.18406 0.44764 0.2955 0.0
C187 C 0.18234 0.43171 0.31558 0.0
C188 C 0.20548 0.46596 0.29942 0.0
C189 C 0.21634 0.46073 0.32214 0.0
O190 O 0.17353 0.3982 0.37331 0.0
C191 C 0.24637 0.42439 0.34292 0.0
O192 O 0.25273 0.446 0.34695 0.0
H193 H 0.16753 0.41455 0.31778 0.0
H194 H 0.23369 0.47175 0.33061 0.0
N195 N 0.22049 0.43862 0.3941 0.0
N196 N 0.23836 0.44583 0.43781 0.0
C197 C 0.22633 0.42988 0.41746 0.0
C198 C 0.22882 0.46091 0.39972 0.0
C199 C 0.23988 0.46543 0.42685 0.0
C200 C 0.16294 0.40478 0.39064 0.0
O201 O 0.17417 0.42579 0.4004 0.0
H202 H 0.22172 0.41204 0.41928 0.0
H203 H 0.22723 0.47305 0.38508 0.0
O204 O 0.22493 0.40937 0.34699 0.0
H205 H 0.21279 0.48193 0.28675 0.0
H206 H 0.2488 0.48193 0.43726 0.0
Cu207 Cu 0.18393 0.36428 0.87244 0.0
N208 N 0.21218 0.38626 0.85632 0.0
N209 N 0.24004 0.40537 0.82253 0.0
C210 C 0.21719 0.39023 0.82737 0.0
C211 C 0.24953 0.41154 0.84972 0.0
C212 C 0.23224 0.39973 0.87055 0.0
O213 O 0.17878 0.3332 0.86774 0.0
C214 C 0.13729 0.35356 0.86222 0.0
O215 O 0.13368 0.33788 0.88269 0.0
H216 H 0.20442 0.38134 0.81035 0.0
H217 H 0.23438 0.4 0.89433 0.0
N218 N 0.18371 0.36976 0.91231 0.0
N219 N 0.17515 0.38128 0.95374 0.0
C220 C 0.17502 0.38218 0.92394 0.0
C221 C 0.18981 0.36085 0.93541 0.0
C222 C 0.18442 0.36787 0.96115 0.0
C223 C 0.19021 0.32261 0.87265 0.0
O224 O 0.17922 0.30035 0.86896 0.0
H225 H 0.16754 0.39063 0.91079 0.0
H226 H 0.19689 0.34943 0.93365 0.0
O227 O 0.15824 0.367 0.85364 0.0
H228 H 0.26789 0.42262 0.85431 0.0
H229 H 0.1866 0.36304 0.9835 0.0
Cu230 Cu 0.69398 0.87415 0.8196 0.0
N231 N 0.70691 0.85674 0.80552 0.0
N232 N 0.71047 0.82604 0.79579 0.0
C233 C 0.70476 0.83683 0.81624 0.0
C234 C 0.71732 0.84015 0.77169 0.0
C235 C 0.71513 0.85899 0.77778 0.0
O236 O 0.67622 0.86043 0.85664 0.0
C237 C 0.66954 0.89191 0.77982 0.0
O238 O 0.66487 0.90093 0.80242 0.0
H239 H 0.6977 0.82956 0.83781 0.0
H240 H 0.71761 0.87255 0.76225 0.0
N241 N 0.71778 0.90258 0.8322 0.0
N242 N 0.72976 0.93749 0.85022 0.0
C243 C 0.71752 0.92242 0.82889 0.0
C244 C 0.73158 0.90551 0.85573 0.0
C245 C 0.73907 0.92701 0.8668 0.0
C246 C 0.66482 0.83947 0.86536 0.0
O247 O 0.65838 0.82317 0.84602 0.0
H248 H 0.70688 0.92497 0.8127 0.0
H249 H 0.7336 0.89197 0.86634 0.0
O250 O 0.67893 0.87939 0.78431 0.0
H251 H 0.72232 0.83656 0.75061 0.0
H252 H 0.74835 0.93324 0.88741 0.0
Cu253 Cu 0.19474 0.88112 0.83973 0.0
N254 N 0.17887 0.88362 0.80649 0.0
N255 N 0.15751 0.87374 0.76498 0.0
C256 C 0.16473 0.8663 0.78876 0.0
C257 C 0.16735 0.89664 0.76818 0.0
C258 C 0.18054 0.90267 0.79372 0.0
O259 O 0.17426 0.85207 0.85941 0.0
C260 C 0.22942 0.88203 0.80126 0.0
O261 O 0.21302 0.87391 0.78103 0.0
H262 H 0.16029 0.84867 0.79298 0.0
H263 H 0.19117 0.9198 0.80192 0.0
N264 N 0.20322 0.905 0.86625 0.0
N265 N 0.22338 0.9293 0.90214 0.0
C266 C 0.22213 0.91314 0.8839 0.0
C267 C 0.19227 0.91669 0.87326 0.0
C268 C 0.20458 0.93156 0.89566 0.0
C269 C 0.1565 0.85028 0.87277 0.0
O270 O 0.15356 0.86822 0.87348 0.0
H271 H 0.23443 0.90686 0.88394 0.0
H272 H 0.17629 0.91432 0.86317 0.0
O273 O 0.22413 0.88381 0.82767 0.0
H274 H 0.16588 0.90838 0.75264 0.0
H275 H 0.20013 0.94317 0.90627 0.0
Cu276 Cu 0.33039 0.20325 0.70503 0.0
N277 N 0.30402 0.2057 0.69638 0.0
N278 N 0.28415 0.2241 0.68718 0.0
C279 C 0.30025 0.22274 0.70442 0.0
C280 C 0.27698 0.20679 0.66807 0.0
C281 C 0.2892 0.19539 0.67391 0.0
O282 O 0.34838 0.2261 0.73526 0.0
C283 C 0.35998 0.20049 0.65777 0.0
O284 O 0.374 0.19952 0.67789 0.0
H285 H 0.3109 0.23553 0.72025 0.0
H286 H 0.2891 0.18212 0.66072 0.0
N287 N 0.32052 0.17464 0.723 0.0
N288 N 0.31886 0.14167 0.73659 0.0
C289 C 0.32743 0.15941 0.71685 0.0
C290 C 0.30694 0.16619 0.74727 0.0
C291 C 0.30591 0.14585 0.75577 0.0
C292 C 0.35565 0.24761 0.73389 0.0
O293 O 0.35569 0.25723 0.70818 0.0
H294 H 0.33937 0.16176 0.69914 0.0
H295 H 0.29903 0.17467 0.75855 0.0
O296 O 0.34348 0.20399 0.66568 0.0
H297 H 0.26535 0.20391 0.64957 0.0
H298 H 0.29675 0.13522 0.77488 0.0
Cu299 Cu 0.85557 0.19585 0.65731 0.0
N300 N 0.87586 0.20052 0.6258 0.0
N301 N 0.89898 0.22011 0.58743 0.0
C302 C 0.88147 0.21736 0.60535 0.0
C303 C 0.90434 0.20399 0.59669 0.0
C304 C 0.89012 0.19199 0.62057 0.0
O305 O 0.86639 0.22715 0.67206 0.0
C306 C 0.81961 0.15828 0.63044 0.0
O307 O 0.83748 0.15501 0.62671 0.0
H308 H 0.87343 0.22803 0.60455 0.0
H309 H 0.89092 0.17883 0.63401 0.0
N310 N 0.85731 0.17856 0.68934 0.0
N311 N 0.84311 0.15691 0.73049 0.0
C312 C 0.83804 0.16288 0.70396 0.0
C313 C 0.87534 0.18245 0.70723 0.0
C314 C 0.86657 0.16917 0.7328 0.0
C315 C 0.88863 0.23894 0.6753 0.0
O316 O 0.90121 0.22925 0.66964 0.0
H317 H 0.82044 0.15761 0.6966 0.0
H318 H 0.89337 0.19517 0.70313 0.0
O319 O 0.8233 0.1768 0.64269 0.0
H320 H 0.91836 0.20185 0.58794 0.0
H321 H 0.87649 0.16941 0.75216 0.0
Cu322 Cu 0.86668 0.72757 0.67984 0.0
N323 N 0.86065 0.74746 0.65687 0.0
N324 N 0.84561 0.75894 0.62023 0.0
C325 C 0.84692 0.74119 0.63281 0.0
C326 C 0.85903 0.77713 0.63713 0.0
C327 C 0.86837 0.77 0.65971 0.0
O328 O 0.83599 0.70121 0.68915 0.0
C329 C 0.90605 0.73879 0.64732 0.0
O330 O 0.90797 0.75901 0.65082 0.0
H331 H 0.83784 0.7238 0.62497 0.0
H332 H 0.88021 0.78059 0.67666 0.0
N333 N 0.88222 0.74137 0.71444 0.0
N334 N 0.90481 0.74754 0.75419 0.0
C335 C 0.89707 0.73619 0.72865 0.0
C336 C 0.8804 0.75658 0.73137 0.0
C337 C 0.8944 0.7605 0.75589 0.0
C338 C 0.8288 0.69409 0.7155 0.0
O339 O 0.84374 0.7019 0.73744 0.0
H340 H 0.90115 0.72346 0.72092 0.0
H341 H 0.86918 0.76377 0.72669 0.0
O342 O 0.8881 0.72111 0.65792 0.0
H343 H 0.86218 0.7944 0.63318 0.0
H344 H 0.89637 0.77175 0.77373 0.0
Cu345 Cu 0.83577 0.70724 0.16261 0.0
N346 N 0.84068 0.6975 0.12662 0.0
N347 N 0.86351 0.69666 0.09098 0.0
C348 C 0.86084 0.70938 0.1116 0.0
C349 C 0.84382 0.67598 0.09283 0.0
C350 C 0.82983 0.67651 0.11501 0.0
O351 O 0.86513 0.71633 0.18391 0.0
C352 C 0.81114 0.72714 0.13599 0.0
O353 O 0.80542 0.71019 0.11787 0.0
H354 H 0.87392 0.72659 0.1173 0.0
H355 H 0.81393 0.66211 0.12363 0.0
N356 N 0.81197 0.68348 0.18451 0.0
N357 N 0.79129 0.66683 0.22549 0.0
C358 C 0.81243 0.68173 0.21415 0.0
C359 C 0.78974 0.66909 0.17664 0.0
C360 C 0.77685 0.65882 0.20201 0.0
C361 C 0.86904 0.69974 0.18951 0.0
O362 O 0.85299 0.67895 0.18232 0.0
H363 H 0.8274 0.69301 0.22733 0.0
H364 H 0.78299 0.66768 0.15442 0.0
O365 O 0.82584 0.7303 0.15657 0.0
H366 H 0.84048 0.66097 0.08071 0.0
H367 H 0.7581 0.64771 0.20329 0.0
Cu368 Cu 0.36374 0.22239 0.19162 0.0
N369 N 0.37235 0.20211 0.1757 0.0
N370 N 0.36707 0.16901 0.15795 0.0
C371 C 0.35773 0.18274 0.16158 0.0
C372 C 0.38874 0.18058 0.1696 0.0
C373 C 0.3919 0.20092 0.18064 0.0
O374 O 0.34958 0.20973 0.23086 0.0
C375 C 0.35783 0.23775 0.13656 0.0
O376 O 0.3779 0.23823 0.13363 0.0
H377 H 0.33999 0.17822 0.15584 0.0
H378 H 0.40674 0.21318 0.19316 0.0
N379 N 0.38935 0.25065 0.20074 0.0
N380 N 0.40729 0.28595 0.21894 0.0
C381 C 0.38753 0.26543 0.21854 0.0
C382 C 0.41112 0.26209 0.18942 0.0
C383 C 0.42225 0.28396 0.20062 0.0
C384 C 0.33914 0.18845 0.2382 0.0
O385 O 0.3323 0.17323 0.21732 0.0
H386 H 0.37143 0.26158 0.22958 0.0
H387 H 0.41803 0.2554 0.17326 0.0
O388 O 0.34673 0.22996 0.16109 0.0
H389 H 0.40079 0.17409 0.17202 0.0
H390 H 0.43973 0.29749 0.1951 0.0
Cu391 Cu 0.86123 0.24503 0.16417 0.0
N392 N 0.84435 0.24304 0.12982 0.0
N393 N 0.82267 0.22759 0.0895 0.0
C394 C 0.83347 0.22427 0.11313 0.0
C395 C 0.82693 0.24938 0.09162 0.0
C396 C 0.84026 0.25883 0.11651 0.0
O397 O 0.84269 0.21666 0.1863 0.0
C398 C 0.90213 0.25963 0.13001 0.0
O399 O 0.88898 0.259 0.10764 0.0
H400 H 0.83333 0.20842 0.11855 0.0
H401 H 0.84655 0.276 0.12423 0.0
N402 N 0.86599 0.26921 0.18804 0.0
N403 N 0.87777 0.28983 0.22905 0.0
C404 C 0.8677 0.26868 0.21773 0.0
C405 C 0.87534 0.29152 0.18025 0.0
C406 C 0.88258 0.30431 0.20556 0.0
C407 C 0.82379 0.21434 0.19691 0.0
O408 O 0.81913 0.23112 0.19288 0.0
H409 H 0.8639 0.25332 0.23044 0.0
H410 H 0.87867 0.29819 0.15772 0.0
O411 O 0.89267 0.25145 0.15511 0.0
H412 H 0.82115 0.25808 0.07612 0.0
H413 H 0.89202 0.32283 0.20645 0.0
C414 C 0.01169 0.65504 0.19422 0.0
O415 O 1.00274 0.66771 0.1848 0.0
O416 O 0.98297 0.67381 0.24923 0.0
Zn417 Zn 0.01474 0.67505 0.25425 0.0
O418 O 0.01692 0.65952 0.29319 0.0
C419 C 0.03577 0.7198 0.276 0.0
O420 O 0.01656 0.70848 0.29182 0.0
O421 O 0.01858 0.65666 0.221 0.0
C422 C 0.03751 0.66454 0.30128 0.0
O423 O 0.05523 0.67923 0.28484 0.0
C424 C 0.98135 0.68996 0.23583 0.0
O425 O 1.00035 0.70757 0.2249 0.0
O426 O 0.04009 0.70903 0.25643 0.0
C427 C 0.42667 0.44067 0.36961 0.0
O428 O 0.40409 0.42827 0.37466 0.0
O429 O 0.3824 0.43151 0.31463 0.0
Zn430 Zn 0.41308 0.43204 0.30699 0.0
O431 O 0.42999 0.45523 0.27413 0.0
C432 C 0.40105 0.38326 0.30874 0.0
O433 O 0.39287 0.38238 0.33543 0.0
O434 O 0.43409 0.44373 0.34307 0.0
C435 C 0.4235 0.45182 0.24725 0.0
O436 O 0.40466 0.43263 0.24038 0.0
C437 C 0.36129 0.41541 0.31259 0.0
O438 O 0.3569 0.39496 0.30476 0.0
O439 O 0.40955 0.40191 0.29365 0.0
C440 C 0.65815 0.04052 0.28353 0.0
O441 O 0.65078 0.0473 0.30599 0.0
O442 O 0.63232 0.07437 0.28502 0.0
Zn443 Zn 0.65625 0.0779 0.25487 0.0
O444 O 0.6872 0.10655 0.26018 0.0
C445 C 0.6465 0.09906 0.20553 0.0
O446 O 0.65891 0.11738 0.22128 0.0
O447 O 0.66119 0.0507 0.25851 0.0
C448 C 0.70548 0.10689 0.25064 0.0
O449 O 0.70361 0.08821 0.23939 0.0
C450 C 0.61093 0.06167 0.27831 0.0
O451 O 0.60564 0.05228 0.25218 0.0
O452 O 0.64369 0.07984 0.21488 0.0
C453 C 0.01751 0.42518 0.81485 0.0
O454 O 0.03936 0.42982 0.81384 0.0
O455 O 0.02658 0.42583 0.72755 0.0
Zn456 Zn 0.01455 0.40086 0.76057 0.0
O457 O 0.04211 0.39627 0.7741 0.0
C458 C 0.99017 0.3631 0.72082 0.0
O459 O 0.01047 0.37497 0.70737 0.0
O460 O 1.00348 0.41271 0.79487 0.0
C461 C 0.04011 0.38048 0.79217 0.0
O462 O 0.01931 0.36593 0.80282 0.0
C463 C 0.01342 0.42725 0.70771 0.0
O464 O 0.99107 0.4119 0.70793 0.0
O465 O 0.98716 0.37054 0.74509 0.0
C466 C 0.61271 0.6143 0.73195 0.0
O467 O 0.60436 0.61174 0.7589 0.0
O468 O 0.63833 0.63481 0.79993 0.0
Zn469 Zn 0.6555 0.64779 0.76076 0.0
O470 O 0.68619 0.64769 0.75677 0.0
C471 C 0.6714 0.6939 0.77959 0.0
O472 O 0.67384 0.68497 0.80465 0.0
O473 O 0.63405 0.62911 0.72705 0.0
C474 C 0.70074 0.65153 0.77755 0.0
O475 O 0.69536 0.65431 0.80447 0.0
C476 C 0.63651 0.61785 0.81526 0.0
O477 O 0.64798 0.60753 0.80703 0.0
O478 O 0.66336 0.68113 0.75719 0.0
C479 C 0.39562 0.00754 0.69934 0.0
O480 O 0.38742 0.98898 0.71632 0.0
O481 O 0.40928 0.03942 0.77769 0.0
Zn482 Zn 0.38282 0.02619 0.7485 0.0
O483 O 0.36862 0.04677 0.74543 0.0
C484 C 0.35849 0.9826 0.7826 0.0
O485 O 0.37687 0.99119 0.79992 0.0
O486 O 0.39558 0.02518 0.7088 0.0
C487 C 0.3622 0.05116 0.72065 0.0
O488 O 0.36463 0.0419 0.69665 0.0
C489 C 0.40653 0.04429 0.8038 0.0
O490 O 0.38573 0.0401 0.81231 0.0
O491 O 0.35775 0.99436 0.76054 0.0
C492 C 0.66061 0.95841 0.52519 0.0
O493 O 0.63997 0.95594 0.53105 0.0
O494 O 0.64543 0.99278 0.57005 0.0
Zn495 Zn 0.67437 0.98897 0.57745 0.0
O496 O 0.67018 0.97182 0.61808 0.0
C497 C 0.70627 0.03689 0.59757 0.0
O498 O 0.6887 0.03304 0.61485 0.0
O499 O 0.67774 0.97113 0.54197 0.0
C500 C 0.6711 0.9535 0.62346 0.0
O501 O 0.67482 0.94333 0.60139 0.0
C502 C 0.64532 0.01093 0.5611 0.0
O503 O 0.66527 0.0297 0.55575 0.0
O504 O 0.70401 0.02108 0.58035 0.0
C505 C 0.09006 0.79049 0.63169 0.0
O506 O 0.07887 0.79865 0.61583 0.0
O507 O 0.0363 0.75205 0.59526 0.0
Zn508 Zn 0.06853 0.75593 0.5881 0.0
O509 O 0.08348 0.77597 0.55104 0.0
C510 C 0.0498 0.71241 0.5614 0.0
O511 O 0.04208 0.72283 0.54338 0.0
O512 O 0.08868 0.7717 0.62413 0.0
C513 C 0.10367 0.78179 0.5407 0.0
O514 O 0.11641 0.7742 0.55403 0.0
C515 C 0.02884 0.76414 0.58215 0.0
O516 O 0.04249 0.78015 0.56296 0.0
O517 O 0.06294 0.72356 0.58281 0.0
C518 C 0.29791 0.34494 0.64383 0.0
O519 O 0.29797 0.35599 0.66743 0.0
O520 O 0.28737 0.38968 0.64981 0.0
Zn521 Zn 0.30368 0.38591 0.61536 0.0
O522 O 0.33681 0.41135 0.61177 0.0
C523 C 0.2868 0.40658 0.57533 0.0
O524 O 0.2954 0.42215 0.59586 0.0
O525 O 0.30096 0.35473 0.6185 0.0
C526 C 0.34679 0.41236 0.58742 0.0
O527 O 0.33582 0.39586 0.56846 0.0
C528 C 0.29563 0.4061 0.6677 0.0
O529 O 0.31705 0.42317 0.66403 0.0
O530 O 0.2877 0.38823 0.57898 0.0
C531 C 0.66489 0.78535 0.1422 0.0
O532 O 0.65238 0.76376 0.15076 0.0
O533 O 0.67325 0.78083 0.04113 0.0
Zn534 Zn 0.67499 0.76901 0.08359 0.0
O535 O 0.7055 0.76741 0.08702 0.0
C536 C 0.65299 0.72303 0.06734 0.0
O537 O 0.6726 0.73322 0.05215 0.0
O538 O 0.67435 0.79015 0.11645 0.0
C539 C 0.71743 0.76901 0.11019 0.0
O540 O 0.71134 0.77384 0.13545 0.0
C541 C 0.67105 0.79792 0.03242 0.0
O542 O 0.67042 0.8116 0.05221 0.0
O543 O 0.6485 0.73512 0.08466 0.0
C544 C 0.30374 0.98707 0.04231 0.0
O545 O 0.32558 1.00152 0.03519 0.0
O546 O 0.30092 0.98046 0.14253 0.0
Zn547 Zn 0.31995 0.99527 0.10483 0.0
O548 O 0.34915 0.99217 0.1018 0.0
C549 C 0.32099 0.03893 0.11597 0.0
O550 O 0.29902 0.02578 0.12377 0.0
O551 O 0.29806 0.98228 0.0695 0.0
C552 C 0.35497 0.98275 0.08198 0.0
O553 O 0.3399 0.97095 0.06133 0.0
C554 C 0.30169 0.96659 0.16171 0.0
O555 O 0.31705 0.95971 0.15866 0.0
O556 O 0.33249 0.02966 0.10677 0.0
C557 C 0.09975 0.40646 0.06663 0.0
O558 O 0.101 0.42637 0.06141 0.0
O559 O 0.08918 0.4117 0.15331 0.0
Zn560 Zn 0.0699 0.40217 0.11647 0.0
O561 O 0.06732 0.42931 0.10149 0.0
C562 C 0.03208 0.36215 0.14678 0.0
O563 O 0.04643 0.36841 0.16941 0.0
O564 O 0.08728 0.39375 0.08795 0.0
C565 C 0.0641 0.44115 0.12045 0.0
O566 O 0.06116 0.43438 0.14839 0.0
C567 C 0.10929 0.42935 0.15053 0.0
O568 O 0.11569 0.43992 0.12459 0.0
O569 O 0.03824 0.37428 0.12303 0.0
C570 C 0.35016 0.29374 0.895 0.0
O571 O 0.34261 0.28131 0.91955 0.0
O572 O 0.32027 0.32829 0.93366 0.0
Zn573 Zn 0.35209 0.32912 0.93436 0.0
O574 O 0.35452 0.3107 0.97067 0.0
C575 C 0.38268 0.37543 0.95846 0.0
O576 O 0.36779 0.36734 0.98066 0.0
O577 O 0.35539 0.31475 0.89556 0.0
C578 C 0.34155 0.30297 0.99376 0.0
O579 O 0.32377 0.30654 0.99637 0.0
C580 C 0.31546 0.34047 0.91588 0.0
O581 O 0.33168 0.35482 0.89737 0.0
O582 O 0.37935 0.36255 0.93651 0.0
C583 C 0.76084 0.12976 0.97032 0.0
O584 O 0.74732 0.13411 0.95293 0.0
O585 O 0.71021 0.08712 0.93832 0.0
Zn586 Zn 0.74334 0.09278 0.9313 0.0
O587 O 0.75941 0.11189 0.89448 0.0
C588 C 0.72884 0.04564 0.91724 0.0
O589 O 0.70954 0.04558 0.90967 0.0
O590 O 0.76241 0.11193 0.96576 0.0
C591 C 0.75819 0.10326 0.86933 0.0
O592 O 0.74355 0.08136 0.86572 0.0
C593 C 0.69159 0.07976 0.92306 0.0
O594 O 0.69129 0.07378 0.89554 0.0
O595 O 0.74526 0.06345 0.92889 0.0
C596 C 1.00788 0.68449 0.94955 0.0
O597 O 0.01307 0.69964 0.97027 0.0
O598 O 0.96474 0.70286 0.96032 0.0
Zn599 Zn 0.9889 0.71073 0.92858 0.0
O600 O 0.01913 0.74007 0.93478 0.0
C601 C 0.96869 0.73058 0.89465 0.0
O602 O 0.97277 0.74088 0.92013 0.0
O603 O 0.9962 0.68503 0.92726 0.0
C604 C 0.03596 0.74213 0.91893 0.0
O605 O 0.03233 0.72541 0.90133 0.0
C606 C 0.96609 0.71471 0.98246 0.0
O607 O 0.98555 0.73394 0.98724 0.0
O608 O 0.97479 0.71552 0.8913 0.0
C609 C 0.37757 0.15598 0.50112 0.0
O610 O 0.39739 0.16018 0.489 0.0
O611 O 0.35552 0.14185 0.41132 0.0
Zn612 Zn 0.35774 0.12551 0.44976 0.0
O613 O 0.38605 0.12019 0.44783 0.0
C614 C 0.32638 0.08086 0.42772 0.0
O615 O 0.34346 0.08837 0.40827 0.0
O616 O 0.35849 0.14246 0.48812 0.0
C617 C 0.39372 0.11354 0.46981 0.0
O618 O 0.38374 0.1105 0.49583 0.0
C619 C 0.36452 0.16327 0.40561 0.0
O620 O 0.37739 0.17788 0.42587 0.0
O621 O 0.32834 0.09375 0.44908 0.0
C622 C 0.94711 0.32866 0.38069 0.0
O623 O 0.93395 0.31819 0.40395 0.0
O624 O 0.96782 0.32558 0.45506 0.0
Zn625 Zn 0.98546 0.35023 0.42354 0.0
O626 O 0.01778 0.354 0.41811 0.0
C627 C 0.97628 0.3871 0.44582 0.0
O628 O 0.95511 0.37116 0.45359 0.0
O629 O 0.96886 0.34224 0.38417 0.0
C630 C 0.03183 0.36153 0.4398 0.0
O631 O 0.0244 0.36553 0.46464 0.0
C632 C 0.96719 0.30641 0.45299 0.0
O633 O 0.97759 0.30329 0.43036 0.0
O634 O 0.99023 0.3814 0.43444 0.0
C635 C 0.76022 0.69623 0.37987 0.0
O636 O 0.77176 0.69401 0.4024 0.0
O637 O 0.76801 0.72266 0.45211 0.0
Zn638 Zn 0.7463 0.72147 0.41982 0.0
O639 O 0.75304 0.75345 0.41015 0.0
C640 C 0.70625 0.68158 0.43985 0.0
O641 O 0.7211 0.67399 0.43762 0.0
O642 O 0.74929 0.7072 0.38285 0.0
C643 C 0.74644 0.75797 0.38566 0.0
O644 O 0.73521 0.74145 0.36682 0.0
C645 C 0.77085 0.73584 0.47335 0.0
O646 O 0.75968 0.74751 0.47279 0.0
O647 O 0.71321 0.70255 0.43378 0.0
H648 H 0.05367 0.52879 0.10051 0.0
H649 H 0.07368 0.52305 0.01181 0.0
H650 H 0.07959 0.49136 0.02813 0.0
H651 H 0.07501 0.46273 0.06634 0.0
H652 H 0.05363 0.46776 0.15458 0.0
H653 H 0.05218 0.50217 0.13958 0.0
C654 C 0.05986 0.52099 0.08486 0.0
C655 C 0.06309 0.52821 0.05495 0.0
C656 C 0.06249 0.5023 0.09417 0.0
C657 C 0.071 0.51779 0.03496 0.0
C658 C 0.0742 0.49953 0.04422 0.0
C659 C 0.0701 0.47139 0.08232 0.0
C660 C 0.06411 0.46248 0.11142 0.0
C661 C 0.06924 0.49117 0.07354 0.0
C662 C 0.05812 0.47411 0.13195 0.0
C663 C 0.05734 0.49385 0.12343 0.0
H664 H 0.6037 0.61839 0.03541 0.0
H665 H 0.54159 0.62352 0.04739 0.0
H666 H 0.56554 0.66343 0.06206 0.0
H667 H 0.60471 0.69775 0.06984 0.0
H668 H 0.66625 0.69198 0.05582 0.0
H669 H 0.64208 0.65171 0.0441 0.0
C670 C 0.59532 0.62816 0.04128 0.0
C671 C 0.5708 0.61783 0.04013 0.0
C672 C 0.6092 0.65116 0.04954 0.0
C673 C 0.5604 0.63094 0.0479 0.0
C674 C 0.57412 0.65382 0.05638 0.0
C675 C 0.61274 0.68754 0.06465 0.0
C676 C 0.63731 0.69794 0.06379 0.0
C677 C 0.59861 0.66423 0.05716 0.0
C678 C 0.64743 0.6845 0.05658 0.0
C679 C 0.6336 0.66142 0.04979 0.0
H680 H 0.46442 0.02972 0.08286 0.0
H681 H 0.45249 1.00241 0.99511 0.0
H682 H 0.41023 0.98153 1.00446 0.0
H683 H 0.37664 0.97529 0.03546 0.0
H684 H 0.3895 1.00402 0.12263 0.0
H685 H 0.43136 0.0199 0.11566 0.0
C686 C 0.45261 0.01888 0.06592 0.0
C687 C 0.46157 0.01781 0.03823 0.0
C688 C 0.42844 0.00737 0.07126 0.0
C689 C 0.44606 1.00349 0.01664 0.0
C690 C 0.42187 0.99171 0.02192 0.0
C691 C 0.38856 0.98465 0.05316 0.0
C692 C 0.37985 0.98869 0.07941 0.0
C693 C 0.41282 0.99413 0.04883 0.0
C694 C 0.39563 1.00082 0.10209 0.0
C695 C 0.41963 0.00997 0.09812 0.0
H696 H 0.46449 0.08048 0.43277 0.0
H697 H 0.47424 0.08082 0.52732 0.0
H698 H 0.44793 0.09638 0.53378 0.0
H699 H 0.41962 0.10698 0.51273 0.0
H700 H 0.41055 0.10703 0.418 0.0
H701 H 0.43908 0.0943 0.41151 0.0
C702 C 0.46113 0.08425 0.4548 0.0
C703 C 0.47132 0.07937 0.47954 0.0
C704 C 0.44586 0.09306 0.45834 0.0
C705 C 0.46683 0.08452 0.50787 0.0
C706 C 0.45159 0.09325 0.51158 0.0
C707 C 0.424 0.10437 0.49063 0.0
C708 C 0.41269 0.10778 0.4659 0.0
C709 C 0.4406 0.09712 0.48702 0.0
C710 C 0.41886 0.10454 0.43745 0.0
C711 C 0.43517 0.09719 0.43371 0.0
H712 H 0.02551 0.49468 0.4491 0.0
H713 H 0.96598 0.47971 0.50359 0.0
H714 H 0.94979 0.43852 0.49538 0.0
H715 H 0.9543 0.40666 0.47529 0.0
H716 H 0.01565 0.42333 0.42326 0.0
H717 H 0.02946 0.46393 0.42836 0.0
C718 C 0.00886 0.4825 0.45909 0.0
C719 C 0.99703 0.49032 0.47705 0.0
C720 C 1.00015 0.45906 0.45503 0.0
C721 C 0.97541 0.4742 0.48953 0.0
C722 C 0.96627 0.45064 0.48504 0.0
C723 C 0.97064 0.41919 0.465 0.0
C724 C 0.98396 0.41181 0.44906 0.0
C725 C 0.97875 0.44282 0.46828 0.0
C726 C 1.00509 0.42836 0.43586 0.0
C727 C 0.01301 0.45166 0.43866 0.0
H728 H 0.60658 0.60209 0.47767 0.0
H729 H 0.58943 0.65588 0.46472 0.0
H730 H 0.62992 0.68269 0.45015 0.0
H731 H 0.67038 0.69085 0.44235 0.0
H732 H 0.6869 0.63658 0.45629 0.0
H733 H 0.64644 0.61001 0.46985 0.0
C734 C 0.61171 0.61974 0.47202 0.0
C735 C 0.59507 0.62705 0.47263 0.0
C736 C 0.63491 0.63497 0.46401 0.0
C737 C 0.60189 0.64981 0.46432 0.0
C738 C 0.62505 0.66516 0.45617 0.0
C739 C 0.66514 0.67323 0.44843 0.0
C740 C 0.68169 0.66575 0.44841 0.0
C741 C 0.64175 0.65794 0.45615 0.0
C742 C 0.67457 0.64282 0.45617 0.0
C743 C 0.65141 0.62758 0.46389 0.0
H744 H 0.04041 0.61387 0.98664 0.0
H745 H 1.00702 0.58408 0.90402 0.0
H746 H 1.00043 0.61635 0.89389 0.0
H747 H 1.00048 0.65087 0.91111 0.0
H748 H 0.03247 0.67934 0.99491 0.0
H749 H 0.04309 0.64962 1.00199 0.0
C750 C 0.03209 0.6146 0.96612 0.0
C751 C 0.02404 0.59648 0.94624 0.0
C752 C 0.02771 0.63278 0.96089 0.0
C753 C 0.01328 0.59775 0.91978 0.0
C754 C 0.00938 0.61613 0.91406 0.0
C755 C 0.00991 0.65065 0.93081 0.0
C756 C 0.0154 0.66714 0.95259 0.0
C757 C 0.01585 0.63336 0.93491 0.0
C758 C 0.02781 0.66674 0.97788 0.0
C759 C 0.03397 0.64977 0.98196 0.0
H760 H 0.47593 0.47211 0.94671 0.0
H761 H 0.44982 0.48209 0.02904 0.0
H762 H 0.41588 0.4438 0.02641 0.0
H763 H 0.39337 0.40729 1.00104 0.0
H764 H 0.41879 0.39701 0.91842 0.0
H765 H 0.45297 0.43541 0.92089 0.0
C766 C 0.46285 0.46592 0.96411 0.0
C767 C 0.46561 0.48017 0.98806 0.0
C768 C 0.4431 0.44373 0.96241 0.0
C769 C 0.4483 0.47172 0.01029 0.0
C770 C 0.4288 0.44972 0.00883 0.0
C771 C 0.40634 0.41339 0.98349 0.0
C772 C 0.40336 0.39908 0.95957 0.0
C773 C 0.42598 0.43556 0.98502 0.0
C774 C 0.42047 0.4075 0.9371 0.0
C775 C 0.4401 0.42952 0.93852 0.0
H776 H 0.61507 0.09026 0.99248 0.0
H777 H 0.5688 0.0375 0.93349 0.0
H778 H 0.60244 0.03682 0.91137 0.0
H779 H 0.64552 0.05277 0.90766 0.0
H780 H 0.69059 0.10443 0.96897 0.0
H781 H 0.6569 0.10407 0.99119 0.0
C782 C 0.61229 0.07851 0.97483 0.0
C783 C 0.58953 0.06411 0.96441 0.0
C784 C 0.63155 0.07817 0.96251 0.0
C785 C 0.58617 0.04872 0.94192 0.0
C786 C 0.60541 0.04846 0.92918 0.0
C787 C 0.64791 0.06393 0.92587 0.0
C788 C 0.67061 0.07876 0.93645 0.0
C789 C 0.62827 0.06337 0.93904 0.0
C790 C 0.67338 0.09287 0.96036 0.0
C791 C 0.65411 0.0927 0.9731 0.0
H792 H 0.54316 0.99263 0.53408 0.0
H793 H 0.57941 0.0664 0.52522 0.0
H794 H 0.61628 0.06774 0.53859 0.0
H795 H 0.63848 0.04759 0.55036 0.0
H796 H 0.60138 0.97375 0.55968 0.0
H797 H 0.56463 0.97286 0.54852 0.0
C798 C 0.55908 0.00908 0.53523 0.0
C799 C 0.55848 0.0294 0.52846 0.0
C800 C 0.58013 0.00967 0.54283 0.0
C801 C 0.5793 0.05051 0.53039 0.0
C802 C 0.60041 0.05125 0.53788 0.0
C803 C 0.62235 0.0313 0.55005 0.0
C804 C 0.62283 0.01073 0.55568 0.0
C805 C 0.6011 0.03089 0.54374 0.0
C806 C 0.60165 0.98983 0.55543 0.0
C807 C 0.58058 0.9893 0.54899 0.0
H808 H 0.01412 0.61042 0.52268 0.0
H809 H 0.03781 0.60588 0.61065 0.0
H810 H 0.04813 0.64551 0.61928 0.0
H811 H 0.05297 0.68242 0.60071 0.0
H812 H 0.02939 0.687 0.51267 0.0
H813 H 0.01675 0.64666 0.50522 0.0
C814 C 0.02105 0.61793 0.54397 0.0
C815 C 0.02515 0.60511 0.56598 0.0
C816 C 0.02743 0.64097 0.54862 0.0
C817 C 0.03445 0.61529 0.5933 0.0
C818 C 0.04052 0.63805 0.59821 0.0
C819 C 0.0451 0.6746 0.57988 0.0
C820 C 0.04238 0.68785 0.55721 0.0
C821 C 0.03762 0.65124 0.57579 0.0
C822 C 0.03183 0.6773 0.5305 0.0
C823 C 0.02451 0.65416 0.52621 0.0
H824 H 0.43904 0.49216 0.5308 0.0
H825 H 0.43566 0.52749 0.60735 0.0
H826 H 0.39943 0.49335 0.62314 0.0
H827 H 0.36945 0.45301 0.61584 0.0
H828 H 0.37392 0.41792 0.53951 0.0
H829 H 0.40948 0.45231 0.52346 0.0
C830 C 0.43052 0.49238 0.55108 0.0
C831 C 0.44019 0.51229 0.568 0.0
C832 C 0.41007 0.47264 0.56026 0.0
C833 C 0.42851 0.51246 0.59379 0.0
C834 C 0.40793 0.49287 0.60297 0.0
C835 C 0.37831 0.45284 0.59583 0.0
C836 C 0.36911 0.43287 0.57899 0.0
C837 C 0.3987 0.47277 0.58654 0.0
C838 C 0.38065 0.43301 0.55293 0.0
C839 C 0.40095 0.45269 0.54366 0.0
H840 H 0.76275 0.85882 0.38208 0.0
H841 H 0.72074 0.83348 0.30369 0.0
H842 H 0.72088 0.79726 0.30929 0.0
H843 H 0.73021 0.77181 0.3387 0.0
H844 H 0.77079 0.79633 0.41857 0.0
H845 H 0.77414 0.8339 0.41011 0.0
C846 C 0.75406 0.84548 0.366 0.0
C847 C 0.74166 0.84863 0.34263 0.0
C848 C 0.75375 0.82452 0.3698 0.0
C849 C 0.73017 0.83122 0.32202 0.0
C850 C 0.73025 0.81056 0.32522 0.0
C851 C 0.73997 0.78542 0.35413 0.0
C852 C 0.75004 0.7812 0.37934 0.0
C853 C 0.74151 0.80683 0.34941 0.0
C854 C 0.76269 0.79906 0.39908 0.0
C855 C 0.76464 0.82057 0.39427 0.0
H856 H 0.22868 0.98849 0.42382 0.0
H857 H 0.26295 0.97718 0.35054 0.0
H858 H 0.29806 0.01381 0.35888 0.0
H859 H 0.31909 0.04925 0.38645 0.0
H860 H 0.28551 0.06116 0.46001 0.0
H861 H 0.25018 0.02425 0.45206 0.0
C862 C 0.24377 0.99412 0.40958 0.0
C863 C 0.24308 0.97994 0.38659 0.0
C864 C 0.2641 0.01534 0.41457 0.0
C865 C 0.263 0.98747 0.36861 0.0
C866 C 0.2831 0.00853 0.37328 0.0
C867 C 0.30409 0.04384 0.40084 0.0
C868 C 0.30504 0.0581 0.4238 0.0
C869 C 0.28387 0.0226 0.39617 0.0
C870 C 0.28536 0.0506 0.4422 0.0
C871 C 0.2651 0.02948 0.43761 0.0
H872 H 0.14131 0.40576 0.4402 0.0
H873 H 0.12808 0.37259 0.35622 0.0
H874 H 0.0858 0.35498 0.36459 0.0
H875 H 0.05278 0.35223 0.394 0.0
H876 H 0.06712 0.38545 0.47831 0.0
H877 H 0.1087 0.39973 0.47161 0.0
C878 C 0.12916 0.39438 0.42392 0.0
C879 C 0.13775 0.39057 0.39758 0.0
C880 C 0.10505 0.38453 0.42882 0.0
C881 C 0.12186 0.37564 0.37678 0.0
C882 C 0.0977 0.36577 0.38146 0.0
C883 C 0.065 0.36241 0.411 0.0
C884 C 0.05677 0.36798 0.43646 0.0
C885 C 0.0891 0.37059 0.40709 0.0
C886 C 0.07286 0.38097 0.45843 0.0
C887 C 0.09672 0.38921 0.45462 0.0
H888 H 0.13736 0.38575 0.82262 0.0
H889 H 0.09133 0.32594 0.87565 0.0
H890 H 0.05779 0.3289 0.85868 0.0
H891 H 0.04108 0.34843 0.8295 0.0
H892 H 0.08623 0.4083 0.77622 0.0
H893 H 0.12022 0.40529 0.79247 0.0
C894 C 0.11999 0.37332 0.83037 0.0
C895 C 0.11708 0.35563 0.8505 0.0
C896 C 0.10046 0.37512 0.82051 0.0
C897 C 0.09432 0.33976 0.86025 0.0
C898 C 0.07499 0.34142 0.85055 0.0
C899 C 0.05832 0.36086 0.82134 0.0
C900 C 0.06094 0.37859 0.80162 0.0
C901 C 0.07782 0.35904 0.83079 0.0
C902 C 0.08356 0.39445 0.79138 0.0
C903 C 0.10307 0.39274 0.80071 0.0
H904 H 0.69711 0.79644 0.75084 0.0
H905 H 0.71196 0.80238 0.84436 0.0
H906 H 0.7012 0.76188 0.84764 0.0
H907 H 0.68698 0.72469 0.82403 0.0
H908 H 0.67157 0.71878 0.73052 0.0
H909 H 0.68331 0.75944 0.72713 0.0
C910 C 0.69839 0.78902 0.77186 0.0
C911 C 0.70553 0.80254 0.79731 0.0
C912 C 0.69193 0.76568 0.7736 0.0
C913 C 0.70647 0.79238 0.82449 0.0
C914 C 0.70034 0.76923 0.82635 0.0
C915 C 0.6862 0.73226 0.80287 0.0
C916 C 0.67836 0.7186 0.77756 0.0
C917 C 0.69289 0.75567 0.80108 0.0
C918 C 0.67746 0.72879 0.75038 0.0
C919 C 0.68421 0.75209 0.7484 0.0
H920 H 0.26752 0.90054 0.8371 0.0
H921 H 0.24723 0.89298 0.7451 0.0
H922 H 0.2867 0.92225 0.73085 0.0
H923 H 0.32499 0.95392 0.7452 0.0
H924 H 0.34535 0.96168 0.83706 0.0
H925 H 0.30783 0.92832 0.85068 0.0
C926 C 0.27185 0.90491 0.81387 0.0
C927 C 0.2543 0.89491 0.79227 0.0
C928 C 0.29447 0.92207 0.80585 0.0
C929 C 0.2603 0.90053 0.76224 0.0
C930 C 0.28285 0.91741 0.75406 0.0
C931 C 0.32131 0.94809 0.76815 0.0
C932 C 0.33765 0.96045 0.79018 0.0
C933 C 0.29974 0.92896 0.77578 0.0
C934 C 0.33294 0.9525 0.81974 0.0
C935 C 0.31148 0.93349 0.82754 0.0
H936 H 0.68004 0.96285 0.32421 0.0
H937 H 0.72001 0.98404 0.24314 0.0
H938 H 0.70728 0.01217 0.23314 0.0
H939 H 0.68497 0.03083 0.24783 0.0
H940 H 0.64573 0.00985 0.32964 0.0
H941 H 0.65765 0.98116 0.33871 0.0
C942 C 0.68574 0.97343 0.30418 0.0
C943 C 0.70082 0.97129 0.28435 0.0
C944 C 0.67841 0.9895 0.29868 0.0
C945 C 0.70854 0.98551 0.25884 0.0
C946 C 0.70116 1.00147 0.25304 0.0
C947 C 0.67887 0.01984 0.26751 0.0
C948 C 0.66443 0.0224 0.28799 0.0
C949 C 0.6861 1.00362 0.27284 0.0
C950 C 0.65688 0.00823 0.31356 0.0
C951 C 0.6637 0.99184 0.31878 0.0
H952 H 0.08712 0.82327 0.31414 0.0
H953 H 0.14731 0.82049 0.28328 0.0
H954 H 0.12221 0.78092 0.26795 0.0
H955 H 0.08295 0.74627 0.26524 0.0
H956 H 0.02334 0.74917 0.29858 0.0
H957 H 0.0482 0.78934 0.31056 0.0
C958 C 0.0947 0.81412 0.30368 0.0
C959 C 0.11907 0.82488 0.29986 0.0
C960 C 0.08019 0.79124 0.29539 0.0
C961 C 0.12863 0.81257 0.28673 0.0
C962 C 0.11426 0.78994 0.27788 0.0
C963 C 0.07543 0.7558 0.27483 0.0
C964 C 0.0513 0.74467 0.28101 0.0
C965 C 0.09 0.77896 0.28237 0.0
C966 C 0.04186 0.75722 0.29375 0.0
C967 C 0.05607 0.78025 0.30062 0.0
H968 H 0.29292 0.45312 0.33941 0.0
H969 H 0.2409 0.38188 0.33074 0.0
H970 H 0.27181 0.37266 0.32032 0.0
H971 H 0.31396 0.38511 0.31419 0.0
H972 H 0.36506 0.45663 0.32427 0.0
H973 H 0.33408 0.46535 0.33369 0.0
C974 C 0.28818 0.43553 0.33515 0.0
C975 C 0.26454 0.41823 0.33578 0.0
C976 C 0.30596 0.43038 0.32952 0.0
C977 C 0.25893 0.39555 0.33035 0.0
C978 C 0.27662 0.39028 0.32443 0.0
C979 C 0.3183 0.40259 0.31844 0.0
C980 C 0.34192 0.42017 0.31849 0.0
C981 C 0.30025 0.40758 0.32404 0.0
C982 C 0.34715 0.44272 0.32411 0.0
C983 C 0.3294 0.44777 0.32948 0.0
H984 H 0.20783 0.31037 0.91917 0.0
H985 H 0.22824 0.35687 0.84402 0.0
H986 H 0.26933 0.36852 0.85271 0.0
H987 H 0.2989 0.36174 0.87809 0.0
H988 H 0.27767 0.31255 0.95086 0.0
H989 H 0.23764 0.30543 0.94654 0.0
C990 C 0.22141 0.3236 0.9053 0.0
C991 C 0.21508 0.33367 0.88185 0.0
C992 C 0.24486 0.32918 0.90955 0.0
C993 C 0.23273 0.35007 0.86334 0.0
C994 C 0.25621 0.35621 0.86788 0.0
C995 C 0.2856 0.34963 0.89324 0.0
C996 C 0.29143 0.33756 0.91466 0.0
C997 C 0.26242 0.3454 0.89043 0.0
C998 C 0.27382 0.32199 0.93406 0.0
C999 C 0.25086 0.31791 0.93162 0.0
H1000 H 0.75885 0.97248 0.88529 0.0
H1001 H 0.69502 0.94651 0.83472 0.0
H1002 H 0.68935 0.97728 0.85144 0.0
H1003 H 0.70138 0.0109 0.88131 0.0
H1004 H 0.76482 0.03773 0.93243 0.0
H1005 H 0.77134 1.00702 0.91521 0.0
C1006 C 0.7437 0.97354 0.87792 0.0
C1007 C 0.72756 0.95703 0.85852 0.0
C1008 C 0.7402 0.99129 0.88807 0.0
C1009 C 0.70813 0.95896 0.84906 0.0
C1010 C 0.70463 0.97652 0.85893 0.0
C1011 C 0.71659 0.01002 0.88891 0.0
C1012 C 0.73248 0.02651 0.90834 0.0
C1013 C 0.72039 0.99261 0.87862 0.0
C1014 C 0.75223 0.02518 0.9176 0.0
C1015 C 0.75601 0.00767 0.90766 0.0
H1016 H 0.12056 0.84258 0.90865 0.0
H1017 H 0.15029 0.80773 0.86198 0.0
H1018 H 0.11615 0.77075 0.87467 0.0
H1019 H 0.07631 0.74883 0.8946 0.0
H1020 H 0.04639 0.78373 0.94076 0.0
H1021 H 0.08236 0.82028 0.9329 0.0
C1022 C 0.11969 0.82688 0.90152 0.0
C1023 C 0.13776 0.82789 0.88405 0.0
C1024 C 0.09995 0.80575 0.90862 0.0
C1025 C 0.13657 0.80741 0.87536 0.0
C1026 C 0.11701 0.78627 0.88248 0.0
C1027 C 0.07773 0.7644 0.9032 0.0
C1028 C 0.0586 0.76365 0.91784 0.0
C1029 C 0.09834 0.78532 0.8984 0.0
C1030 C 0.06082 0.78389 0.92927 0.0
C1031 C 0.08135 0.80479 0.9247 0.0
H1032 H 0.32833 0.1224 0.69122 0.0
H1033 H 0.32253 0.12038 0.78634 0.0
H1034 H 0.33487 0.09158 0.78984 0.0
H1035 H 0.34895 0.06821 0.76596 0.0
H1036 H 0.35454 0.07013 0.67068 0.0
H1037 H 0.34082 0.09784 0.66718 0.0
C1038 C 0.3298 0.11566 0.71269 0.0
C1039 C 0.32462 0.1236 0.73846 0.0
C1040 C 0.33699 0.09918 0.71452 0.0
C1041 C 0.3262 0.11441 0.76614 0.0
C1042 C 0.33342 0.09806 0.76817 0.0
C1043 C 0.34712 0.07465 0.74442 0.0
C1044 C 0.35292 0.06721 0.71865 0.0
C1045 C 0.3391 0.09051 0.74253 0.0
C1046 C 0.35023 0.07557 0.6909 0.0
C1047 C 0.34241 0.09145 0.68885 0.0
H1048 H 0.92886 0.27161 0.65208 0.0
H1049 H 0.87798 0.26075 0.71885 0.0
H1050 H 0.90467 0.29885 0.73884 0.0
H1051 H 0.94444 0.33399 0.73964 0.0
H1052 H 0.99429 0.34299 0.6718 0.0
H1053 H 0.96619 0.30699 0.65023 0.0
C1054 C 0.92341 0.27772 0.67075 0.0
C1055 C 0.90149 0.26337 0.68397 0.0
C1056 C 0.93892 0.29926 0.68227 0.0
C1057 C 0.89464 0.27156 0.70804 0.0
C1058 C 0.91006 0.29324 0.71966 0.0
C1059 C 0.94908 0.3281 0.72007 0.0
C1060 C 0.97174 0.34129 0.70769 0.0
C1061 C 0.93257 0.30705 0.70741 0.0
C1062 C 0.97723 0.33336 0.6821 0.0
C1063 C 0.9611 0.31268 0.6696 0.0
H1064 H 0.80775 0.68191 0.76961 0.0
H1065 H 0.79237 0.67743 0.67613 0.0
H1066 H 0.75092 0.66185 0.6872 0.0
H1067 H 0.71968 0.65322 0.72333 0.0
H1068 H 0.73562 0.65926 0.81669 0.0
H1069 H 0.77611 0.67039 0.80569 0.0
C1070 C 0.79534 0.67721 0.75159 0.0
C1071 C 0.80331 0.68104 0.72205 0.0
C1072 C 0.77158 0.66875 0.7581 0.0
C1073 C 0.78683 0.67476 0.69908 0.0
C1074 C 0.76309 0.66594 0.7054 0.0
C1075 C 0.73192 0.65668 0.74132 0.0
C1076 C 0.72457 0.65559 0.77082 0.0
C1077 C 0.75536 0.66345 0.73482 0.0
C1078 C 0.74074 0.6601 0.79378 0.0
C1079 C 0.76395 0.6665 0.78751 0.0
H1080 H 0.78547 0.72937 0.08995 0.0
H1081 H 0.80659 0.7532 0.17872 0.0
H1082 H 0.7803 0.76927 0.17816 0.0
H1083 H 0.749 0.77395 0.15365 0.0
H1084 H 0.72859 0.7502 0.06459 0.0
H1085 H 0.75689 0.73682 0.06413 0.0
C1086 C 0.78456 0.73831 0.10911 0.0
C1087 C 0.79795 0.73991 0.13443 0.0
C1088 C 0.76933 0.74739 0.10867 0.0
C1089 C 0.7966 0.75174 0.1589 0.0
C1090 C 0.78142 0.76081 0.15865 0.0
C1091 C 0.75087 0.76603 0.13403 0.0
C1092 C 0.73642 0.76299 0.10925 0.0
C1093 C 0.76733 0.75833 0.13385 0.0
C1094 C 0.73933 0.75281 0.084 0.0
C1095 C 0.75552 0.74507 0.08373 0.0
H1096 H 0.38621 0.14551 0.13419 0.0
H1097 H 0.32056 0.1388 0.1619 0.0
H1098 H 0.30042 0.09836 0.14994 0.0
H1099 H 0.30153 0.06422 0.13403 0.0
H1100 H 0.36713 0.07051 0.10683 0.0
H1101 H 0.38706 0.11154 0.11628 0.0
C1102 C 0.3675 0.1352 0.13758 0.0
C1103 C 0.35503 0.14536 0.14892 0.0
C1104 C 0.35595 0.11174 0.1309 0.0
C1105 C 0.33068 0.13171 0.15282 0.0
C1106 C 0.31911 0.10843 0.1462 0.0
C1107 C 0.32017 0.07456 0.13 0.0
C1108 C 0.33277 0.06416 0.11988 0.0
C1109 C 0.33159 0.09819 0.13554 0.0
C1110 C 0.35693 0.07795 0.11467 0.0
C1111 C 0.36839 0.10146 0.12012 0.0
H1112 H 0.93333 0.27651 0.17535 0.0
H1113 H 0.92833 0.2781 0.08005 0.0
H1114 H 0.96858 0.30951 0.07685 0.0
H1115 H 1.00375 0.33887 0.10123 0.0
H1116 H 0.00882 0.33771 0.19649 0.0
H1117 H 0.96991 0.30383 0.19956 0.0
C1118 C 0.94118 0.28337 0.15383 0.0
C1119 C 0.92774 0.27505 0.12797 0.0
C1120 C 0.96419 0.3018 0.15216 0.0
C1121 C 0.93822 0.28424 0.1003 0.0
C1122 C 0.9612 0.30231 0.09845 0.0
C1123 C 0.99638 0.33118 0.12268 0.0
C1124 C 0.00902 0.341 0.14862 0.0
C1125 C 0.97408 0.31168 0.12426 0.0
C1126 C 0.99939 0.33058 0.17619 0.0
C1127 C 0.97715 0.31119 0.17796 0.0
H1128 H 0.28417 0.24537 0.6361 0.0
H1129 H 0.28065 0.24869 0.73084 0.0
H1130 H 0.28379 0.28653 0.72575 0.0
H1131 H 0.29037 0.31958 0.69448 0.0
H1132 H 0.29558 0.31682 0.59964 0.0
H1133 H 0.28896 0.27776 0.6046 0.0
C1134 C 0.28345 0.25414 0.65553 0.0
C1135 C 0.28193 0.24426 0.68381 0.0
C1136 C 0.28599 0.27609 0.65242 0.0
C1137 C 0.28167 0.25602 0.7089 0.0
C1138 C 0.28362 0.27765 0.70598 0.0
C1139 C 0.29 0.31044 0.67486 0.0
C1140 C 0.29364 0.32119 0.64675 0.0
C1141 C 0.28632 0.28805 0.67787 0.0
C1142 C 0.29299 0.30902 0.62156 0.0
C1143 C 0.28913 0.28665 0.62436 0.0
H1144 H 0.80875 0.12233 0.59526 0.0
H1145 H 0.7768 0.15021 0.65129 0.0
H1146 H 0.73876 0.11536 0.64543 0.0
H1147 H 0.71513 0.0758 0.62682 0.0
H1148 H 0.7479 0.04861 0.57081 0.0
H1149 H 0.78501 0.0843 0.57439 0.0
C1150 C 0.79345 0.12096 0.60602 0.0
C1151 C 0.79575 0.13896 0.6238 0.0
C1152 C 0.77177 0.10082 0.60278 0.0
C1153 C 0.77561 0.1368 0.63733 0.0
C1154 C 0.75387 0.11675 0.63415 0.0
C1155 C 0.73036 0.07769 0.61528 0.0
C1156 C 0.72861 0.05928 0.59872 0.0
C1157 C 0.75181 0.09845 0.61735 0.0
C1158 C 0.74859 0.06228 0.58376 0.0
C1159 C 0.76989 0.08275 0.58581 0.0
H1160 H 0.93838 0.76994 0.60989 0.0
H1161 H 0.91839 0.7054 0.65483 0.0
H1162 H 0.95451 0.70711 0.63781 0.0
H1163 H 0.99315 0.72858 0.613 0.0
H1164 H 0.01212 0.7929 0.56777 0.0
H1165 H 0.97502 0.78964 0.58213 0.0
C1166 C 0.94179 0.7561 0.61575 0.0
C1167 C 0.92583 0.73765 0.63378 0.0
C1168 C 0.96254 0.75729 0.60606 0.0
C1169 C 0.93036 0.71974 0.64088 0.0
C1170 C 0.9511 0.72082 0.63133 0.0
C1171 C 0.9891 0.74182 0.60619 0.0
C1172 C 1.00556 0.7611 0.58957 0.0
C1173 C 0.96755 0.73977 0.6144 0.0
C1174 C 0.99989 0.77794 0.58062 0.0
C1175 C 0.97865 0.77611 0.58885 0.0
H1176 H 0.87716 0.66773 0.21572 0.0
H1177 H 0.91198 0.73915 0.18883 0.0
H1178 H 0.94985 0.74258 0.20178 0.0
H1179 H 0.97313 0.72445 0.21757 0.0
H1180 H 0.93773 0.65299 0.24472 0.0
H1181 H 0.9 0.65043 0.23479 0.0
C1182 C 0.89301 0.68415 0.21293 0.0
C1183 C 0.89172 0.70315 0.20114 0.0
C1184 C 0.91462 0.6859 0.22022 0.0
C1185 C 0.91243 0.7243 0.19798 0.0
C1186 C 0.93409 0.7262 0.20518 0.0
C1187 C 0.95716 0.70832 0.22144 0.0
C1188 C 0.95835 0.68885 0.23163 0.0
C1189 C 0.93543 0.70699 0.21579 0.0
C1190 C 0.93742 0.66821 0.23684 0.0
C1191 C 0.91581 0.66673 0.23112 0.0
H1192 H 0.38716 0.28754 0.26975 0.0
H1193 H 0.434 0.33012 0.20009 0.0
H1194 H 0.43644 0.36414 0.22201 0.0
H1195 H 0.42394 0.38158 0.2598 0.0
H1196 H 0.37729 0.33897 0.32974 0.0
H1197 H 0.37589 0.30516 0.30868 0.0
C1198 C 0.39788 0.30427 0.25936 0.0
C1199 C 0.41027 0.30623 0.2332 0.0
C1200 C 0.39909 0.32373 0.27201 0.0
C1201 C 0.42445 0.3281 0.22033 0.0
C1202 C 0.4257 0.34755 0.23274 0.0
C1203 C 0.41345 0.3649 0.27046 0.0
C1204 C 0.40059 0.36282 0.29622 0.0
C1205 C 0.41288 0.34553 0.25837 0.0
C1206 C 0.38732 0.34109 0.30989 0.0
C1207 C 0.3865 0.32173 0.29785 0.0
H1208 H 0.78715 0.20773 0.23029 0.0
H1209 H 0.82028 0.17202 0.19426 0.0
H1210 H 0.78722 0.1353 0.21072 0.0
H1211 H 0.74714 0.11341 0.23037 0.0
H1212 H 0.71397 0.14953 0.26527 0.0
H1213 H 0.74901 0.1861 0.25444 0.0
C1214 C 0.78728 0.19192 0.22631 0.0
C1215 C 0.80594 0.19252 0.21071 0.0
C1216 C 0.76816 0.17098 0.23545 0.0
C1217 C 0.80606 0.17198 0.20615 0.0
C1218 C 0.78712 0.15099 0.21541 0.0
C1219 C 0.74767 0.12927 0.23597 0.0
C1220 C 0.72782 0.12873 0.24821 0.0
C1221 C 0.76778 0.15028 0.22932 0.0
C1222 C 0.72891 0.14943 0.25563 0.0
C1223 C 0.74893 0.17037 0.24936 0.0
H1224 H 0.97359 0.46742 0.9007 0.0
H1225 H 0.04034 0.49116 0.94337 0.0
H1226 H 0.05111 0.47191 0.90707 0.0
H1227 H 0.04231 0.44911 0.86254 0.0
H1228 H 0.97549 0.42432 0.81981 0.0
H1229 H 0.964 0.44284 0.85692 0.0
C1230 C 0.99039 0.46821 0.90226 0.0
C1231 C 1.00619 0.48113 0.92471 0.0
C1232 C 0.99653 0.45686 0.88123 0.0
C1233 C 0.02795 0.48192 0.92611 0.0
C1234 C 0.03412 0.47073 0.9054 0.0
C1235 C 0.02517 0.44765 0.86131 0.0
C1236 C 0.00987 0.43537 0.83822 0.0
C1237 C 0.01868 0.45835 0.88271 0.0
C1238 C 0.98768 0.43363 0.83726 0.0
C1239 C 0.9811 0.44428 0.85849 0.0
H1240 H 0.56872 0.56576 0.92345 0.0
H1241 H 0.5373 0.60531 0.89159 0.0
H1242 H 0.56714 0.6231 0.85311 0.0
H1243 H 0.60184 0.62715 0.82799 0.0
H1244 H 0.6329 0.58692 0.85852 0.0
H1245 H 0.60379 0.56995 0.89822 0.0
C1246 C 0.56852 0.57839 0.90822 0.0
C1247 C 0.55069 0.5841 0.91042 0.0
C1248 C 0.58574 0.58851 0.88594 0.0
C1249 C 0.55055 0.60031 0.89021 0.0
C1250 C 0.56773 0.61062 0.86828 0.0
C1251 C 0.6024 0.61481 0.84346 0.0
C1252 C 0.61964 0.60841 0.84031 0.0
C1253 C 0.58536 0.60481 0.86587 0.0
C1254 C 0.61986 0.59217 0.8604 0.0
C1255 C 0.60319 0.58244 0.8831 0.0
H1256 H 0.50093 0.08522 0.87541 0.0
H1257 H 0.45291 0.06339 0.94888 0.0
H1258 H 0.41999 0.05134 0.91468 0.0
H1259 H 0.40485 0.04522 0.8638 0.0
H1260 H 0.45291 0.0648 0.79033 0.0
H1261 H 0.48587 0.0796 0.82451 0.0
C1262 C 0.48328 0.0782 0.88383 0.0
C1263 C 0.47925 0.07532 0.9145 0.0
C1264 C 0.46448 0.07073 0.86404 0.0
C1265 C 0.4563 0.06572 0.92528 0.0
C1266 C 0.43754 0.05882 0.90577 0.0
C1267 C 0.42255 0.05288 0.85527 0.0
C1268 C 0.42643 0.05389 0.82459 0.0
C1269 C 0.4414 0.06094 0.87508 0.0
C1270 C 0.44945 0.0637 0.81388 0.0
C1271 C 0.46831 0.07221 0.8334 0.0
H1272 H 0.44098 0.02754 0.57246 0.0
H1273 H 0.43316 0.96047 0.5879 0.0
H1274 H 0.41376 0.95705 0.63522 0.0
H1275 H 0.40137 0.97435 0.67355 0.0
H1276 H 0.41086 0.04221 0.65804 0.0
H1277 H 0.42766 0.04423 0.60956 0.0
C1278 C 0.43516 0.01221 0.58623 0.0
C1279 C 0.43879 0.99443 0.57686 0.0
C1280 C 0.42451 0.0106 0.61351 0.0
C1281 C 0.4305 0.97438 0.59455 0.0
C1282 C 0.41958 0.9725 0.6217 0.0
C1283 C 0.40703 0.98954 0.65952 0.0
C1284 C 0.40502 0.00817 0.66955 0.0
C1285 C 0.41685 0.99069 0.63162 0.0
C1286 C 0.41236 0.02768 0.65102 0.0
C1287 C 0.42194 0.02886 0.62324 0.0
H1288 H 0.06547 0.5159 0.62379 0.0
H1289 H 0.99969 0.48046 0.57765 0.0
H1290 H 0.98556 0.44906 0.61379 0.0
H1291 H 0.99118 0.43157 0.65899 0.0
H1292 H 0.05703 0.46564 0.70497 0.0
H1293 H 0.07179 0.49726 0.66835 0.0
C1294 C 0.04814 0.50124 0.62147 0.0
C1295 C 0.03362 0.50097 0.59807 0.0
C1296 C 0.04003 0.48284 0.64239 0.0
C1297 C 0.01115 0.48167 0.59566 0.0
C1298 C 1.00303 0.46349 0.61629 0.0
C1299 C 0.00879 0.44587 0.66107 0.0
C1300 C 0.02287 0.44618 0.68491 0.0
C1301 C 0.0172 0.46396 0.63988 0.0
C1302 C 0.04573 0.46487 0.68693 0.0
C1303 C 0.0542 0.48302 0.66597 0.0
H1304 H 0.53312 0.54839 0.64549 0.0
H1305 H 0.58923 0.58123 0.58174 0.0
H1306 H 0.61637 0.60285 0.62116 0.0
H1307 H 0.62362 0.61425 0.67349 0.0
H1308 H 0.56686 0.58161 0.73649 0.0
H1309 H 0.54067 0.55829 0.69762 0.0
C1310 C 0.55134 0.56005 0.64018 0.0
C1311 C 0.55903 0.56318 0.61061 0.0
C1312 C 0.56676 0.57274 0.66285 0.0
C1313 C 0.58276 0.57842 0.60428 0.0
C1314 C 0.5983 0.59092 0.62682 0.0
C1315 C 0.60554 0.602 0.67872 0.0
C1316 C 0.59725 0.5999 0.70792 0.0
C1317 C 0.5904 0.58855 0.65613 0.0
C1318 C 0.57377 0.58378 0.71426 0.0
C1319 C 0.55872 0.57035 0.69202 0.0
H1320 H 1.00683 0.56935 0.13116 0.0
H1321 H 0.99639 0.60263 0.05449 0.0
H1322 H 0.99971 0.63363 0.08523 0.0
H1323 H 1.005 0.65105 0.13424 0.0
H1324 H 0.01748 0.61864 0.2105 0.0
H1325 H 0.01409 0.58776 0.17974 0.0
C1326 C 1.00512 0.58331 0.12127 0.0
C1327 C 1.00107 0.58352 0.0906 0.0
C1328 C 1.00754 0.60135 0.13904 0.0
C1329 C 0.99946 0.60204 0.078 0.0
C1330 C 1.00134 0.61976 0.0956 0.0
C1331 C 1.00709 0.6373 0.14413 0.0
C1332 C 0.01141 0.63724 0.17478 0.0
C1333 C 1.00534 0.6196 0.12619 0.0
C1334 C 0.01423 0.61928 0.18705 0.0
C1335 C 0.01218 0.6015 0.16946 0.0
H1336 H 0.49765 0.53046 0.16366 0.0
H1337 H 0.45095 0.48671 0.0966 0.0
H1338 H 0.42459 0.4606 0.13493 0.0
H1339 H 0.41595 0.44913 0.18758 0.0
H1340 H 0.46342 0.49278 0.25433 0.0
H1341 H 0.4884 0.51983 0.21603 0.0
C1342 C 0.48176 0.51518 0.1574 0.0
C1343 C 0.47641 0.5105 0.12727 0.0
C1344 C 0.46686 0.50013 0.17953 0.0
C1345 C 0.45544 0.49086 0.11959 0.0
C1346 C 0.44043 0.47582 0.14152 0.0
C1347 C 0.43169 0.46462 0.19378 0.0
C1348 C 0.43783 0.46879 0.22384 0.0
C1349 C 0.44612 0.48013 0.17157 0.0
C1350 C 0.45827 0.48902 0.23141 0.0
C1351 C 0.47261 0.50454 0.2095 0.0
H1352 H 0.59948 0.1209 0.09659 0.0
H1353 H 0.55588 0.04729 0.10089 0.0
H1354 H 0.57883 0.04497 0.14203 0.0
H1355 H 0.61087 0.06376 0.17724 0.0
H1356 H 0.65374 0.13748 0.17455 0.0
H1357 H 0.63144 0.13985 0.13238 0.0
C1358 C 0.59485 0.1044 0.10672 0.0
C1359 C 0.57603 0.08431 0.09553 0.0
C1360 C 0.60805 0.10318 0.13058 0.0
C1361 C 0.57048 0.063 0.10871 0.0
C1362 C 0.58354 0.06165 0.13235 0.0
C1363 C 0.61548 0.08034 0.16728 0.0
C1364 C 0.63398 0.1004 0.17893 0.0
C1365 C 0.60239 0.08161 0.1434 0.0
C1366 C 0.63956 0.12177 0.16598 0.0
C1367 C 0.62679 0.12315 0.14191 0.0
H1368 H 0.52024 0.02892 0.35573 0.0
H1369 H 0.57187 0.05495 0.42513 0.0
H1370 H 0.60299 0.06688 0.38877 0.0
H1371 H 0.61568 0.06916 0.33741 0.0
H1372 H 0.56411 0.04164 0.2681 0.0
H1373 H 0.5329 0.03092 0.3043 0.0
C1374 C 0.53826 0.03702 0.36295 0.0
C1375 C 0.5436 0.04111 0.39317 0.0
C1376 C 0.55615 0.0436 0.34192 0.0
C1377 C 0.56716 0.05193 0.40202 0.0
C1378 C 0.58503 0.05865 0.38124 0.0
C1379 C 0.59763 0.06096 0.33019 0.0
C1380 C 0.59224 0.05624 0.30013 0.0
C1381 C 0.57974 0.05456 0.35115 0.0
C1382 C 0.56874 0.04543 0.29116 0.0
C1383 C 0.55087 0.03927 0.31183 0.0
H1384 H 0.07526 0.63058 0.40953 0.0
H1385 H 1.00248 0.57874 0.41553 0.0
H1386 H 0.99343 0.5968 0.37396 0.0
H1387 H 1.00619 0.62712 0.3348 0.0
H1388 H 0.07927 0.67807 0.3282 0.0
H1389 H 0.08801 0.66054 0.37061 0.0
C1390 C 0.05744 0.62306 0.40168 0.0
C1391 C 0.03966 0.60326 0.41602 0.0
C1392 C 0.0523 0.63345 0.37743 0.0
C1393 C 0.0166 0.5941 0.40548 0.0
C1394 C 0.01136 0.60439 0.38146 0.0
C1395 C 0.024 0.63445 0.34275 0.0
C1396 C 0.042 0.65394 0.32815 0.0
C1397 C 0.02906 0.62409 0.3672 0.0
C1398 C 0.065 0.66307 0.33879 0.0
C1399 C 0.07008 0.65303 0.36313 0.0
H1400 H 0.48061 0.49328 0.48382 0.0
H1401 H 0.53793 0.52371 0.42146 0.0
H1402 H 0.51289 0.49791 0.38331 0.0
H1403 H 0.47387 0.46922 0.36633 0.0
H1404 H 0.41626 0.43966 0.42828 0.0
H1405 H 0.44228 0.46253 0.4678 0.0
C1406 C 0.48778 0.49403 0.46205 0.0
C1407 C 0.51116 0.51055 0.45555 0.0
C1408 C 0.47313 0.47945 0.43996 0.0
C1409 C 0.52003 0.51126 0.42712 0.0
C1410 C 0.50567 0.49655 0.40521 0.0
C1411 C 0.46702 0.46758 0.38853 0.0
C1412 C 0.44303 0.45284 0.39417 0.0
C1413 C 0.48205 0.48099 0.41116 0.0
C1414 C 0.43457 0.45091 0.42317 0.0
C1415 C 0.44946 0.46402 0.44584 0.0
H1416 H 0.6995 0.87491 0.2174 0.0
H1417 H 0.6526 0.82603 0.28241 0.0
H1418 H 0.64106 0.79511 0.24689 0.0
H1419 H 0.64627 0.78168 0.19801 0.0
H1420 H 0.69352 0.83151 0.13384 0.0
H1421 H 0.70291 0.86216 0.16838 0.0
C1422 C 0.68656 0.85752 0.22387 0.0
C1423 C 0.677 0.8529 0.25276 0.0
C1424 C 0.68021 0.83989 0.20343 0.0
C1425 C 0.66015 0.83022 0.2604 0.0
C1426 C 0.65369 0.81249 0.24009 0.0
C1427 C 0.65853 0.79926 0.19147 0.0
C1428 C 0.66925 0.80408 0.16314 0.0
C1429 C 0.6639 0.81705 0.21164 0.0
C1430 C 0.68498 0.82708 0.15528 0.0
C1431 C 0.69041 0.8447 0.17511 0.0
H1432 H 0.22344 0.94048 0.25824 0.0
H1433 H 0.25246 0.89994 0.29443 0.0
H1434 H 0.28116 0.91351 0.25383 0.0
H1435 H 0.29774 0.93696 0.20758 0.0
H1436 H 0.26774 0.97723 0.17301 0.0
H1437 H 0.23973 0.96363 0.21353 0.0
C1438 C 0.23598 0.93449 0.25742 0.0
C1439 C 0.23568 0.9191 0.27943 0.0
C1440 C 0.25231 0.94236 0.2342 0.0
C1441 C 0.25223 0.91174 0.27782 0.0
C1442 C 0.26864 0.91951 0.25458 0.0
C1443 C 0.28509 0.94276 0.20894 0.0
C1444 C 0.28494 0.95813 0.18706 0.0
C1445 C 0.26882 0.93483 0.23256 0.0
C1446 C 0.26838 0.96545 0.18933 0.0
C1447 C 0.25228 0.95766 0.21256 0.0
H1448 H 0.19259 0.46751 0.24113 0.0
H1449 H 0.13723 0.42049 0.29962 0.0
H1450 H 0.10882 0.41126 0.25995 0.0
H1451 H 0.10014 0.41468 0.20787 0.0
H1452 H 0.15542 0.46195 0.14933 0.0
H1453 H 0.18336 0.4732 0.18993 0.0
C1454 C 0.17426 0.45559 0.24533 0.0
C1455 C 0.1671 0.44448 0.27314 0.0
C1456 C 0.15802 0.45029 0.22238 0.0
C1457 C 0.14327 0.42892 0.2782 0.0
C1458 C 0.12699 0.42368 0.25558 0.0
C1459 C 0.11827 0.42753 0.20403 0.0
C1460 C 0.12574 0.43727 0.17559 0.0
C1461 C 0.13426 0.43389 0.22742 0.0
C1462 C 0.14923 0.45409 0.17102 0.0
C1463 C 0.16525 0.46053 0.19421 0.0
H1464 H 0.15144 0.3613 1.00377 0.0
H1465 H 0.17426 0.42081 0.94633 0.0
H1466 H 0.15304 0.43427 0.97657 0.0
H1467 H 0.12693 0.42831 0.01841 0.0
H1468 H 0.10341 0.36803 0.075 0.0
H1469 H 0.12602 0.3557 0.04606 0.0
C1470 C 0.15207 0.37739 0.99822 0.0
C1471 C 0.16441 0.3901 0.973 0.0
C1472 C 0.13954 0.38476 0.01537 0.0
C1473 C 0.16473 0.41071 0.96561 0.0
C1474 C 0.15262 0.41838 0.98286 0.0
C1475 C 0.12677 0.41249 0.02443 0.0
C1476 C 0.11343 0.39911 0.04877 0.0
C1477 C 0.13973 0.40539 1.0076 0.0
C1478 C 0.11343 0.37865 0.05628 0.0
C1479 C 0.12641 0.37158 0.0398 0.0
H1480 H 0.66023 0.80055 0.89253 0.0
H1481 H 0.66712 0.86625 0.91141 0.0
H1482 H 0.66914 0.85909 0.96443 0.0
H1483 H 0.67064 0.83487 1.00555 0.0
H1484 H 0.66569 0.77 0.98628 0.0
H1485 H 0.66137 0.77621 0.93364 0.0
C1486 C 0.66177 0.81316 0.90824 0.0
C1487 C 0.66324 0.83384 0.89781 0.0
C1488 C 0.6636 0.8092 0.93878 0.0
C1489 C 0.66577 0.85013 0.91865 0.0
C1490 C 0.66705 0.84608 0.94905 0.0
C1491 C 0.66857 0.82204 0.98989 0.0
C1492 C 0.66856 0.80197 1.00015 0.0
C1493 C 0.66629 0.82581 0.95939 0.0
C1494 C 0.6659 0.78564 0.97927 0.0
C1495 C 0.66335 0.78915 0.94904 0.0
H1496 H 0.21627 0.93861 0.9574 0.0
H1497 H 0.26975 0.94606 0.89677 0.0
H1498 H 0.2997 0.96547 0.93453 0.0
H1499 H 0.31057 0.97983 0.98517 0.0
H1500 H 0.25666 0.96976 0.04704 0.0
H1501 H 0.22703 0.95194 0.00862 0.0
C1502 C 0.23452 0.94468 0.95251 0.0
C1503 C 0.24088 0.9411 0.92435 0.0
C1504 C 0.25153 0.95528 0.9746 0.0
C1505 C 0.26451 0.94861 0.91834 0.0
C1506 C 0.2816 0.95973 0.9399 0.0
C1507 C 0.29234 0.97381 0.99019 0.0
C1508 C 0.28586 0.97623 0.01889 0.0
C1509 C 0.27531 0.96308 0.96816 0.0
C1510 C 0.26212 0.96806 0.02516 0.0
C1511 C 0.24516 0.95791 1.00317 0.0
H1512 H 0.65679 0.90885 0.40466 0.0
H1513 H 0.72967 0.93594 0.42562 0.0
H1514 H 0.72461 0.95102 0.47161 0.0
H1515 H 0.70025 0.95878 0.50519 0.0
H1516 H 0.6274 0.93232 0.48464 0.0
H1517 H 0.63172 0.91506 0.44001 0.0
C1518 C 0.67143 0.91769 0.41954 0.0
C1519 C 0.69361 0.92118 0.41139 0.0
C1520 C 0.66852 0.92683 0.44621 0.0
C1521 C 0.7124 0.93301 0.43101 0.0
C1522 C 0.70957 0.94175 0.45746 0.0
C1523 C 0.68527 0.94915 0.49108 0.0
C1524 C 0.66357 0.9471 0.49854 0.0
C1525 C 0.68783 0.93918 0.46513 0.0
C1526 C 0.64441 0.93439 0.47972 0.0
C1527 C 0.64683 0.92442 0.45401 0.0
H1528 H 0.12829 0.85099 0.43215 0.0
H1529 H 0.19119 0.84612 0.43147 0.0
H1530 H 0.17641 0.81903 0.47393 0.0
H1531 H 0.14546 0.79699 0.51158 0.0
H1532 H 0.08276 0.80237 0.51052 0.0
H1533 H 0.09772 0.829 0.46832 0.0
C1534 C 0.13893 0.84411 0.44119 0.0
C1535 C 0.16095 0.85075 0.42861 0.0
C1536 C 0.13029 0.82857 0.46534 0.0
C1537 C 0.17423 0.84139 0.44068 0.0
C1538 C 0.16576 0.82589 0.46497 0.0
C1539 C 0.13505 0.80396 0.50209 0.0
C1540 C 0.11295 0.79761 0.51441 0.0
C1541 C 0.14379 0.81938 0.47755 0.0
C1542 C 0.09975 0.80684 0.50167 0.0
C1543 C 0.10832 0.82213 0.47748 0.0
H1544 H 0.24932 0.41279 0.44929 0.0
H1545 H 0.24952 0.47117 0.48743 0.0
H1546 H 0.26497 0.46434 0.53365 0.0
H1547 H 0.27752 0.44115 0.5634 0.0
H1548 H 0.27513 0.38171 0.5252 0.0
H1549 H 0.26068 0.38928 0.47887 0.0
C1550 C 0.25232 0.42387 0.46776 0.0
C1551 C 0.248 0.44234 0.46489 0.0
C1552 C 0.26065 0.41955 0.4943 0.0
C1553 C 0.25282 0.45691 0.48891 0.0
C1554 C 0.2615 0.45293 0.51541 0.0
C1555 C 0.2738 0.42984 0.54494 0.0
C1556 C 0.27737 0.41089 0.54773 0.0
C1557 C 0.26535 0.43421 0.51838 0.0
C1558 C 0.27242 0.39635 0.52367 0.0
C1559 C 0.26424 0.4007 0.49714 0.0
H1560 H 0.22583 0.37995 0.77361 0.0
H1561 H 0.28227 0.44223 0.80857 0.0
H1562 H 0.30442 0.44881 0.76277 0.0
H1563 H 0.30838 0.43555 0.71375 0.0
H1564 H 0.25094 0.3733 0.67986 0.0
H1565 H 0.22831 0.36843 0.72421 0.0
C1566 C 0.2427 0.39529 0.7712 0.0
C1567 C 0.25231 0.41052 0.79468 0.0
C1568 C 0.25523 0.39896 0.74495 0.0
C1569 C 0.27454 0.43002 0.79104 0.0
C1570 C 0.28719 0.43385 0.76481 0.0
C1571 C 0.29084 0.42105 0.71598 0.0
C1572 C 0.2815 0.40472 0.69363 0.0
C1573 C 0.27783 0.41821 0.74177 0.0
C1574 C 0.25868 0.38607 0.69679 0.0
C1575 C 0.24568 0.38322 0.72217 0.0
H1576 H 0.66255 0.92738 0.76111 0.0
H1577 H 0.67259 0.8731 0.7282 0.0
H1578 H 0.6733 0.88684 0.67747 0.0
H1579 H 0.67289 0.91524 0.64223 0.0
H1580 H 0.66377 0.97014 0.67485 0.0
H1581 H 0.66093 0.95524 0.72552 0.0
C1582 C 0.66457 0.91834 0.74286 0.0
C1583 C 0.66742 0.89908 0.74875 0.0
C1584 C 0.66537 0.92661 0.71349 0.0
C1585 C 0.67031 0.88788 0.72459 0.0
C1586 C 0.6708 0.8958 0.69545 0.0
C1587 C 0.67018 0.92396 0.66035 0.0
C1588 C 0.66863 0.94393 0.65444 0.0
C1589 C 0.66867 0.91533 0.68961 0.0
C1590 C 0.66509 0.95482 0.67848 0.0
C1591 C 0.66345 0.94627 0.70758 0.0
H1592 H 0.15305 0.83398 0.74492 0.0
H1593 H 0.1302 0.88346 0.72926 0.0
H1594 H 0.10754 0.86214 0.68671 0.0
H1595 H 0.09435 0.8297 0.65367 0.0
H1596 H 0.11661 0.77975 0.66907 0.0
H1597 H 0.13913 0.80087 0.71211 0.0
C1598 C 0.14292 0.83999 0.73244 0.0
C1599 C 0.14347 0.86044 0.74041 0.0
C1600 C 0.12982 0.82755 0.70787 0.0
C1601 C 0.13043 0.86803 0.72354 0.0
C1602 C 0.11735 0.85576 0.69922 0.0
C1603 C 0.10411 0.82336 0.66638 0.0
C1604 C 0.10376 0.80313 0.65799 0.0
C1605 C 0.117 0.83557 0.69109 0.0
C1606 C 0.11653 0.79525 0.67492 0.0
C1607 C 0.12943 0.80733 0.69957 0.0
H1608 H 0.39457 0.1961 0.63046 0.0
H1609 H 0.3268 0.18944 0.61468 0.0
H1610 H 0.32587 0.17491 0.56544 0.0
H1611 H 0.3437 0.16267 0.52691 0.0
H1612 H 0.41231 0.17125 0.54202 0.0
H1613 H 0.4134 0.18623 0.59094 0.0
C1614 C 0.37967 0.19167 0.61618 0.0
C1615 C 0.36079 0.1939 0.62656 0.0
C1616 C 0.37928 0.18342 0.58758 0.0
C1617 C 0.34169 0.18807 0.60748 0.0
C1618 C 0.34106 0.17961 0.57923 0.0
C1619 C 0.35888 0.16785 0.54091 0.0
C1620 C 0.37783 0.16565 0.53067 0.0
C1621 C 0.35963 0.17695 0.56909 0.0
C1622 C 0.39746 0.17273 0.54912 0.0
C1623 C 0.39811 0.18131 0.57724 0.0
H1624 H 0.92087 0.21853 0.53804 0.0
H1625 H 0.90433 0.26277 0.58751 0.0
H1626 H 0.92359 0.2932 0.55017 0.0
H1627 H 0.94521 0.30748 0.50334 0.0
H1628 H 0.96233 0.26358 0.45393 0.0
H1629 H 0.94301 0.23305 0.49129 0.0
C1630 C 0.92162 0.23488 0.54069 0.0
C1631 C 0.9109 0.23818 0.56542 0.0
C1632 C 0.93286 0.25246 0.51909 0.0
C1633 C 0.91193 0.25948 0.56843 0.0
C1634 C 0.92311 0.27701 0.54715 0.0
C1635 C 0.94471 0.29124 0.5007 0.0
C1636 C 0.95522 0.2879 0.47578 0.0
C1637 C 0.93356 0.27369 0.52232 0.0
C1638 C 0.9544 0.2667 0.47283 0.0
C1639 C 0.94335 0.24918 0.49423 0.0
H1640 H 0.83543 0.7311 0.57401 0.0
H1641 H 0.82614 0.78546 0.60814 0.0
H1642 H 0.80248 0.78342 0.5651 0.0
H1643 H 0.78352 0.76539 0.51866 0.0
H1644 H 0.7927 0.71087 0.48459 0.0
H1645 H 0.81718 0.71362 0.52699 0.0
C1646 C 0.82809 0.74239 0.57214 0.0
C1647 C 0.83241 0.7583 0.59434 0.0
C1648 C 0.81445 0.74103 0.54743 0.0
C1649 C 0.82323 0.77318 0.59125 0.0
C1650 C 0.80959 0.77193 0.56675 0.0
C1651 C 0.79087 0.7541 0.52046 0.0
C1652 C 0.78618 0.73787 0.49856 0.0
C1653 C 0.80496 0.75581 0.54483 0.0
C1654 C 0.796 0.7235 0.50115 0.0
C1655 C 0.80999 0.72504 0.5254 0.0
H1656 H 0.75482 0.66938 0.24657 0.0
H1657 H 0.81463 0.66341 0.27266 0.0
H1658 H 0.8089 0.66977 0.32435 0.0
H1659 H 0.78954 0.68148 0.36079 0.0
H1660 H 0.73133 0.69009 0.33334 0.0
H1661 H 0.73362 0.67812 0.28362 0.0
C1662 C 0.76612 0.66879 0.26376 0.0
C1663 C 0.78502 0.66583 0.25605 0.0
C1664 C 0.76324 0.67335 0.29307 0.0
C1665 C 0.79994 0.66563 0.27832 0.0
C1666 C 0.79675 0.6694 0.30774 0.0
C1667 C 0.77718 0.68045 0.34402 0.0
C1668 C 0.76048 0.68691 0.35068 0.0
C1669 C 0.7789 0.67401 0.31521 0.0
C1670 C 0.74457 0.68548 0.32871 0.0
C1671 C 0.74581 0.67859 0.30025 0.0
H1672 H 0.36295 0.21446 0.28592 0.0
H1673 H 0.3148 0.14491 0.26139 0.0
H1674 H 0.31796 0.13105 0.3107 0.0
H1675 H 0.33609 0.1382 0.36013 0.0
H1676 H 0.3845 0.20765 0.3847 0.0
H1677 H 0.37955 0.22181 0.33639 0.0
C1678 C 0.35282 0.19631 0.29148 0.0
C1679 C 0.33862 0.18081 0.26973 0.0
C1680 C 0.35499 0.1883 0.31995 0.0
C1681 C 0.32587 0.15731 0.27749 0.0
C1682 C 0.32774 0.14931 0.30575 0.0
C1683 C 0.34553 0.15645 0.355 0.0
C1684 C 0.36079 0.17175 0.3762 0.0
C1685 C 0.34258 0.16457 0.32702 0.0
C1686 C 0.37269 0.19537 0.36899 0.0
C1687 C 0.36986 0.20354 0.34126 0.0
H1688 H 0.91916 0.32472 0.24593 0.0
H1689 H 0.85549 0.26711 0.27903 0.0
H1690 H 0.871 0.27442 0.32952 0.0
H1691 H 0.90339 0.29631 0.36383 0.0
H1692 H 0.96776 0.35293 0.32992 0.0
H1693 H 0.95128 0.34695 0.28024 0.0
C1694 C 0.90856 0.31406 0.2643 0.0
C1695 C 0.88615 0.29553 0.2589 0.0
C1696 C 0.91782 0.31805 0.29306 0.0
C1697 C 0.87278 0.28147 0.28277 0.0
C1698 C 0.88166 0.28563 0.31156 0.0
C1699 C 0.91378 0.3074 0.3456 0.0
C1700 C 0.9368 0.32501 0.35065 0.0
C1701 C 0.90428 0.30371 0.31693 0.0
C1702 C 0.95004 0.33916 0.3267 0.0
C1703 C 0.94061 0.3358 0.29825 0.0
H1704 H 0.34838 0.23099 0.79113 0.0
H1705 H 0.36987 0.29329 0.73969 0.0
H1706 H 0.37073 0.31333 0.78452 0.0
H1707 H 0.36335 0.31275 0.83849 0.0
H1708 H 0.34118 0.24987 0.88902 0.0
H1709 H 0.34261 0.23079 0.84473 0.0
C1710 C 0.35358 0.24904 0.78967 0.0
C1711 C 0.3591 0.26051 0.76181 0.0
C1712 C 0.35368 0.26045 0.81557 0.0
C1713 C 0.36559 0.28391 0.76066 0.0
C1714 C 0.36598 0.29542 0.78637 0.0
C1715 C 0.35893 0.29491 0.83985 0.0
C1716 C 0.35204 0.28287 0.86733 0.0
C1717 C 0.35971 0.28379 0.81397 0.0
C1718 C 0.34644 0.25971 0.8684 0.0
C1719 C 0.34728 0.24868 0.84297 0.0
H1720 H 0.84365 0.16902 0.78677 0.0
H1721 H 0.80444 0.11601 0.72454 0.0
H1722 H 0.77406 0.09467 0.76194 0.0
H1723 H 0.75867 0.09136 0.81228 0.0
H1724 H 0.79697 0.14562 0.87377 0.0
H1725 H 0.8275 0.16638 0.83672 0.0
C1726 C 0.82858 0.15264 0.78169 0.0
C1727 C 0.82635 0.14379 0.75326 0.0
C1728 C 0.81091 0.1409 0.80301 0.0
C1729 C 0.80649 0.12291 0.74646 0.0
C1730 C 0.78914 0.11082 0.76776 0.0
C1731 C 0.77361 0.10779 0.81754 0.0
C1732 C 0.77549 0.11685 0.84583 0.0
C1733 C 0.7911 0.11971 0.79607 0.0
C1734 C 0.79497 0.13824 0.85216 0.0
C1735 C 0.81255 0.15009 0.83104 0.0
H1736 H 0.90832 0.75766 0.81219 0.0
H1737 H 0.9341 0.73048 0.74584 0.0
H1738 H 0.95581 0.72232 0.78351 0.0
H1739 H 0.96692 0.72211 0.83571 0.0
H1740 H 0.94264 0.75127 0.90117 0.0
H1741 H 0.92123 0.7597 0.86332 0.0
C1742 C 0.91891 0.75028 0.80573 0.0
C1743 C 0.9192 0.74448 0.77611 0.0
C1744 C 0.93166 0.7459 0.82743 0.0
C1745 C 0.93301 0.73471 0.76849 0.0
C1746 C 0.94559 0.73012 0.79003 0.0
C1747 C 0.95693 0.73031 0.84162 0.0
C1748 C 0.95626 0.73593 0.87119 0.0
C1749 C 0.94484 0.73541 0.81964 0.0
C1750 C 0.94348 0.74678 0.87853 0.0
C1751 C 0.93118 0.75159 0.85692 0.0
H1752 H 0.86703 0.67609 0.04214 0.0
H1753 H 0.90781 0.73109 0.10184 0.0
H1754 H 0.94289 0.74137 0.07369 0.0
H1755 H 0.96244 0.73493 0.03211 0.0
H1756 H 0.92212 0.67896 0.97364 0.0
H1757 H 0.88677 0.66868 1.00175 0.0
C1758 C 0.88356 0.6902 0.04921 0.0
C1759 C 0.88442 0.70282 0.07405 0.0
C1760 C 0.90398 0.69584 0.03323 0.0
C1761 C 0.90618 0.72124 0.08254 0.0
C1762 C 0.92647 0.72708 0.06657 0.0
C1763 C 0.94595 0.72042 0.02558 0.0
C1764 C 0.945 0.70781 1.00076 0.0
C1765 C 0.9256 0.71453 0.04186 0.0
C1766 C 0.92344 0.689 0.99268 0.0
C1767 C 0.90314 0.68312 0.00869 0.0
H1768 H 0.37831 0.25355 0.08278 0.0
H1769 H 0.32001 0.24517 0.13506 0.0
H1770 H 0.3096 0.26424 0.09548 0.0
H1771 H 0.31793 0.28444 0.04634 0.0
H1772 H 0.37679 0.29264 0.99526 0.0
H1773 H 0.38605 0.27259 0.03412 0.0
C1774 C 0.36321 0.25574 0.08566 0.0
C1775 C 0.35 0.24786 0.11211 0.0
C1776 C 0.35749 0.26686 0.06296 0.0
C1777 C 0.3305 0.25093 0.11506 0.0
C1778 C 0.32459 0.26194 0.09241 0.0
C1779 C 0.33277 0.28181 0.04364 0.0
C1780 C 0.34667 0.29023 0.01769 0.0
C1781 C 0.33809 0.27017 0.06631 0.0
C1782 C 0.36577 0.28652 0.0148 0.0
C1783 C 0.3711 0.275 0.03709 0.0
H1784 H 0.82554 0.19029 0.07395 0.0
H1785 H 0.78953 0.22797 0.05372 0.0
H1786 H 0.76747 0.20109 0.01514 0.0
H1787 H 0.75825 0.16696 0.98707 0.0
H1788 H 0.79328 0.12846 1.00773 0.0
H1789 H 0.81555 0.1554 0.04657 0.0
C1790 C 0.81272 0.19255 0.0614 0.0
C1791 C 0.80939 0.21134 0.06688 0.0
C1792 C 0.79983 0.17682 0.03931 0.0
C1793 C 0.79285 0.21401 0.04986 0.0
C1794 C 0.78006 0.19851 0.02784 0.0
C1795 C 0.77074 0.1644 1.00004 0.0
C1796 C 0.7741 0.14571 0.99438 0.0
C1797 C 0.78344 0.17991 0.02233 0.0
C1798 C 0.79032 0.14267 0.01157 0.0
C1799 C 0.80309 0.1581 0.03378 0.0
loop_
_geom_bond_atom_site_label_1
_geom_bond_atom_site_label_2
_geom_bond_distance
_geom_bond_site_symmetry_2
_ccdc_geom_bond_type
Cu0 N1 2.005 . S
Cu0 O6 1.972 1_554 S
Cu0 N11 1.979 1_554 S
Cu0 O20 1.961 . S
N1 Cu0 2.005 . S
N1 C3 1.263 . S
N1 C5 1.389 . S
N2 C3 1.358 . S
N2 C4 1.400 . S
C3 N1 1.263 . S
C3 N2 1.358 . S
C3 H9 0.930 . S
C4 N2 1.400 . S
C4 C5 1.351 . S
C4 H21 0.930 . S
C5 N1 1.389 . S
C5 C4 1.351 . S
C5 H10 0.930 . S
O6 Cu0 1.972 1_556 S
O6 C16 1.282 . S
C7 O8 1.261 . S
C7 O20 1.251 . S
O8 C7 1.261 . S
H9 C3 0.930 . S
H10 C5 0.930 . S
N11 Cu0 1.979 1_556 S
N11 C13 1.335 . S
N11 C14 1.390 . S
N12 C13 1.345 . S
N12 C15 1.336 . S
C13 N11 1.335 . S
C13 N12 1.345 . S
C13 H18 0.930 . S
C14 N11 1.390 . S
C14 C15 1.346 . S
C14 H19 0.930 . S
C15 N12 1.336 . S
C15 C14 1.346 . S
C15 H22 0.929 . S
C16 O6 1.282 . S
C16 O17 1.216 . S
O17 C16 1.216 . S
H18 C13 0.930 . S
H19 C14 0.930 . S
O20 Cu0 1.961 . S
O20 C7 1.251 . S
H21 C4 0.930 . S
H22 C15 0.929 . S
Cu23 N24 1.999 1_554 S
Cu23 O29 1.974 . S
Cu23 N34 1.985 . S
Cu23 O43 1.959 1_554 S
N24 Cu23 1.999 1_556 S
N24 C26 1.263 . S
N24 C28 1.389 . S
N25 C26 1.358 . S
N25 C27 1.400 . S
C26 N24 1.263 . S
C26 N25 1.358 . S
C26 H32 0.930 . S
C27 N25 1.400 . S
C27 C28 1.351 . S
C27 H44 0.930 . S
C28 N24 1.389 . S
C28 C27 1.351 . S
C28 H33 0.930 . S
O29 Cu23 1.974 . S
O29 C39 1.282 . S
C30 O31 1.261 . S
C30 O43 1.251 . S
O31 C30 1.261 . S
H32 C26 0.930 . S
H33 C28 0.930 . S
N34 Cu23 1.985 . S
N34 C36 1.335 . S
N34 C37 1.390 . S
N35 C36 1.345 . S
N35 C38 1.336 . S
C36 N34 1.335 . S
C36 N35 1.345 . S
C36 H41 0.930 . S
C37 N34 1.390 . S
C37 C38 1.346 . S
C37 H42 0.930 . S
C38 N35 1.336 . S
C38 C37 1.346 . S
C38 H45 0.929 . S
C39 O29 1.282 . S
C39 O40 1.216 . S
O40 C39 1.216 . S
H41 C36 0.930 . S
H42 C37 0.930 . S
O43 Cu23 1.959 1_556 S
O43 C30 1.251 . S
H44 C27 0.930 . S
H45 C38 0.929 . S
Cu46 N47 2.000 1_544 S
Cu46 O52 1.974 1_545 S
Cu46 N57 1.985 . S
Cu46 O66 1.959 1_554 S
N47 Cu46 2.000 1_566 S
N47 C49 1.258 1_565 S
N47 C51 1.393 . S
N48 C49 1.358 1_565 S
N48 C50 1.403 . S
C49 N47 1.258 1_545 S
C49 N48 1.358 1_545 S
C49 H55 0.930 . S
C50 N48 1.403 . S
C50 C51 1.351 . S
C50 H67 0.930 . S
C51 N47 1.393 . S
C51 C50 1.351 . S
C51 H56 0.930 . S
O52 Cu46 1.974 1_565 S
O52 C62 1.282 1_565 S
C53 O54 1.261 . S
C53 O66 1.251 . S
O54 C53 1.261 . S
H55 C49 0.930 . S
H56 C51 0.930 . S
N57 Cu46 1.985 . S
N57 C59 1.335 . S
N57 C60 1.390 . S
N58 C59 1.345 . S
N58 C61 1.336 . S
C59 N57 1.335 . S
C59 N58 1.345 . S
C59 H64 0.930 . S
C60 N57 1.390 . S
C60 C61 1.346 . S
C60 H65 0.930 . S
C61 N58 1.336 . S
C61 C60 1.346 . S
C61 H68 0.929 . S
C62 O52 1.282 1_545 S
C62 O63 1.216 . S
O63 C62 1.216 . S
H64 C59 0.930 . S
H65 C60 0.930 . S
O66 Cu46 1.959 1_556 S
O66 C53 1.251 . S
H67 C50 0.930 . S
H68 C61 0.929 . S
Cu69 N70 1.999 . S
Cu69 O75 1.974 . S
Cu69 N80 1.985 . S
Cu69 O89 1.959 . S
N70 Cu69 1.999 . S
N70 C72 1.263 . S
N70 C74 1.389 . S
N71 C72 1.358 . S
N71 C73 1.400 . S
C72 N70 1.263 . S
C72 N71 1.358 . S
C72 H78 0.930 . S
C73 N71 1.400 . S
C73 C74 1.351 . S
C73 H90 0.930 . S
C74 N70 1.389 . S
C74 C73 1.351 . S
C74 H79 0.930 . S
O75 Cu69 1.974 . S
O75 C85 1.282 . S
C76 O77 1.261 . S
C76 O89 1.251 . S
O77 C76 1.261 . S
H78 C72 0.930 . S
H79 C74 0.930 . S
N80 Cu69 1.985 . S
N80 C82 1.335 . S
N80 C83 1.390 . S
N81 C82 1.345 . S
N81 C84 1.336 . S
C82 N80 1.335 . S
C82 N81 1.345 . S
C82 H87 0.930 . S
C83 N80 1.390 . S
C83 C84 1.346 . S
C83 H88 0.930 . S
C84 N81 1.336 . S
C84 C83 1.346 . S
C84 H91 0.929 . S
C85 O75 1.282 . S
C85 O86 1.216 . S
O86 C85 1.216 . S
H87 C82 0.930 . S
H88 C83 0.930 . S
O89 Cu69 1.959 . S
O89 C76 1.251 . S
H90 C73 0.930 . S
H91 C84 0.929 . S
Cu92 N93 1.999 . S
Cu92 O98 1.974 . S
Cu92 N103 1.985 . S
Cu92 O112 1.959 . S
N93 Cu92 1.999 . S
N93 C95 1.263 . S
N93 C97 1.389 . S
N94 C95 1.358 . S
N94 C96 1.400 . S
C95 N93 1.263 . S
C95 N94 1.358 . S
C95 H101 0.930 . S
C96 N94 1.400 . S
C96 C97 1.351 . S
C96 H113 0.930 . S
C97 N93 1.389 . S
C97 C96 1.351 . S
C97 H102 0.930 . S
O98 Cu92 1.974 . S
O98 C108 1.282 . S
C99 O100 1.261 . S
C99 O112 1.251 . S
O100 C99 1.261 . S
H101 C95 0.930 . S
H102 C97 0.930 . S
N103 Cu92 1.985 . S
N103 C105 1.335 . S
N103 C106 1.390 . S
N104 C105 1.345 . S
N104 C107 1.336 . S
C105 N103 1.335 . S
C105 N104 1.345 . S
C105 H110 0.930 . S
C106 N103 1.390 . S
C106 C107 1.346 . S
C106 H111 0.930 . S
C107 N104 1.336 . S
C107 C106 1.346 . S
C107 H114 0.929 . S
C108 O98 1.282 . S
C108 O109 1.216 . S
O109 C108 1.216 . S
H110 C105 0.930 . S
H111 C106 0.930 . S
O112 Cu92 1.959 . S
O112 C99 1.251 . S
H113 C96 0.930 . S
H114 C107 0.929 . S
Cu115 N116 1.999 . S
Cu115 O121 1.974 . S
Cu115 N126 1.985 . S
Cu115 O135 1.959 . S
N116 Cu115 1.999 . S
N116 C118 1.263 . S
N116 C120 1.389 . S
N117 C118 1.358 . S
N117 C119 1.400 . S
C118 N116 1.263 . S
C118 N117 1.358 . S
C118 H124 0.930 . S
C119 N117 1.400 . S
C119 C120 1.351 . S
C119 H136 0.930 . S
C120 N116 1.389 . S
C120 C119 1.351 . S
C120 H125 0.930 . S
O121 Cu115 1.974 . S
O121 C131 1.282 . S
C122 O123 1.261 . S
C122 O135 1.251 . S
O123 C122 1.261 . S
H124 C118 0.930 . S
H125 C120 0.930 . S
N126 Cu115 1.985 . S
N126 C128 1.335 . S
N126 C129 1.390 . S
N127 C128 1.345 . S
N127 C130 1.336 . S
C128 N126 1.335 . S
C128 N127 1.345 . S
C128 H133 0.930 . S
C129 N126 1.390 . S
C129 C130 1.346 . S
C129 H134 0.930 . S
C130 N127 1.336 . S
C130 C129 1.346 . S
C130 H137 0.929 . S
C131 O121 1.282 . S
C131 O132 1.216 . S
O132 C131 1.216 . S
H133 C128 0.930 . S
H134 C129 0.930 . S
O135 Cu115 1.959 . S
O135 C122 1.251 . S
H136 C119 0.930 . S
H137 C130 0.929 . S
Cu138 N139 1.999 . S
Cu138 O144 1.974 . S
Cu138 N149 1.985 . S
Cu138 O158 1.959 . S
N139 Cu138 1.999 . S
N139 C141 1.263 . S
N139 C143 1.389 . S
N140 C141 1.358 . S
N140 C142 1.400 . S
C141 N139 1.263 . S
C141 N140 1.358 . S
C141 H147 0.930 . S
C142 N140 1.400 . S
C142 C143 1.351 . S
C142 H159 0.930 . S
C143 N139 1.389 . S
C143 C142 1.351 . S
C143 H148 0.930 . S
O144 Cu138 1.974 . S
O144 C154 1.282 . S
C145 O146 1.261 . S
C145 O158 1.251 . S
O146 C145 1.261 . S
H147 C141 0.930 . S
H148 C143 0.930 . S
N149 Cu138 1.985 . S
N149 C151 1.335 . S
N149 C152 1.390 . S
N150 C151 1.345 . S
N150 C153 1.336 . S
C151 N149 1.335 . S
C151 N150 1.345 . S
C151 H156 0.930 . S
C152 N149 1.390 . S
C152 C153 1.346 . S
C152 H157 0.930 . S
C153 N150 1.336 . S
C153 C152 1.346 . S
C153 H160 0.929 . S
C154 O144 1.282 . S
C154 O155 1.216 . S
O155 C154 1.216 . S
H156 C151 0.930 . S
H157 C152 0.930 . S
O158 Cu138 1.959 . S
O158 C145 1.251 . S
H159 C142 0.930 . S
H160 C153 0.929 . S
Cu161 N162 1.999 . S
Cu161 O167 1.974 . S
Cu161 N172 1.985 . S
Cu161 O181 1.959 . S
N162 Cu161 1.999 . S
N162 C164 1.263 . S
N162 C166 1.389 . S
N163 C164 1.358 . S
N163 C165 1.400 . S
C164 N162 1.263 . S
C164 N163 1.358 . S
C164 H170 0.930 . S
C165 N163 1.400 . S
C165 C166 1.351 . S
C165 H182 0.930 . S
C166 N162 1.389 . S
C166 C165 1.351 . S
C166 H171 0.930 . S
O167 Cu161 1.974 . S
O167 C177 1.282 . S
C168 O169 1.261 . S
C168 O181 1.251 . S
O169 C168 1.261 . S
H170 C164 0.930 . S
H171 C166 0.930 . S
N172 Cu161 1.985 . S
N172 C174 1.335 . S
N172 C175 1.390 . S
N173 C174 1.345 . S
N173 C176 1.336 . S
C174 N172 1.335 . S
C174 N173 1.345 . S
C174 H179 0.930 . S
C175 N172 1.390 . S
C175 C176 1.346 . S
C175 H180 0.930 . S
C176 N173 1.336 . S
C176 C175 1.346 . S
C176 H183 0.929 . S
C177 O167 1.282 . S
C177 O178 1.216 . S
O178 C177 1.216 . S
H179 C174 0.930 . S
H180 C175 0.930 . S
O181 Cu161 1.959 . S
O181 C168 1.251 . S
H182 C165 0.930 . S
H183 C176 0.929 . S
Cu184 N185 1.999 . S
Cu184 O190 1.974 . S
Cu184 N195 1.985 . S
Cu184 O204 1.959 . S
N185 Cu184 1.999 . S
N185 C187 1.263 . S
N185 C189 1.389 . S
N186 C187 1.358 . S
N186 C188 1.400 . S
C187 N185 1.263 . S
C187 N186 1.358 . S
C187 H193 0.930 . S
C188 N186 1.400 . S
C188 C189 1.351 . S
C188 H205 0.930 . S
C189 N185 1.389 . S
C189 C188 1.351 . S
C189 H194 0.930 . S
O190 Cu184 1.974 . S
O190 C200 1.282 . S
C191 O192 1.261 . S
C191 O204 1.251 . S
O192 C191 1.261 . S
H193 C187 0.930 . S
H194 C189 0.930 . S
N195 Cu184 1.985 . S
N195 C197 1.335 . S
N195 C198 1.390 . S
N196 C197 1.345 . S
N196 C199 1.336 . S
C197 N195 1.335 . S
C197 N196 1.345 . S
C197 H202 0.930 . S
C198 N195 1.390 . S
C198 C199 1.346 . S
C198 H203 0.930 . S
C199 N196 1.336 . S
C199 C198 1.346 . S
C199 H206 0.929 . S
C200 O190 1.282 . S
C200 O201 1.216 . S
O201 C200 1.216 . S
H202 C197 0.930 . S
H203 C198 0.930 . S
O204 Cu184 1.959 . S
O204 C191 1.251 . S
H205 C188 0.930 . S
H206 C199 0.929 . S
Cu207 N208 1.999 . S
Cu207 O213 1.974 . S
Cu207 N218 1.985 . S
Cu207 O227 1.959 . S
N208 Cu207 1.999 . S
N208 C210 1.263 . S
N208 C212 1.389 . S
N209 C210 1.358 . S
N209 C211 1.400 . S
C210 N208 1.263 . S
C210 N209 1.358 . S
C210 H216 0.930 . S
C211 N209 1.400 . S
C211 C212 1.351 . S
C211 H228 0.930 . S
C212 N208 1.389 . S
C212 C211 1.351 . S
C212 H217 0.930 . S
O213 Cu207 1.974 . S
O213 C223 1.282 . S
C214 O215 1.261 . S
C214 O227 1.251 . S
O215 C214 1.261 . S
H216 C210 0.930 . S
H217 C212 0.930 . S
N218 Cu207 1.985 . S
N218 C220 1.335 . S
N218 C221 1.390 . S
N219 C220 1.345 . S
N219 C222 1.336 . S
C220 N218 1.335 . S
C220 N219 1.345 . S
C220 H225 0.930 . S
C221 N218 1.390 . S
C221 C222 1.346 . S
C221 H226 0.930 . S
C222 N219 1.336 . S
C222 C221 1.346 . S
C222 H229 0.929 . S
C223 O213 1.282 . S
C223 O224 1.216 . S
O224 C223 1.216 . S
H225 C220 0.930 . S
H226 C221 0.930 . S
O227 Cu207 1.959 . S
O227 C214 1.251 . S
H228 C211 0.930 . S
H229 C222 0.929 . S
Cu230 N231 1.999 . S
Cu230 O236 1.974 . S
Cu230 N241 1.985 . S
Cu230 O250 1.959 . S
N231 Cu230 1.999 . S
N231 C233 1.263 . S
N231 C235 1.389 . S
N232 C233 1.358 . S
N232 C234 1.400 . S
C233 N231 1.263 . S
C233 N232 1.358 . S
C233 H239 0.930 . S
C234 N232 1.400 . S
C234 C235 1.351 . S
C234 H251 0.930 . S
C235 N231 1.389 . S
C235 C234 1.351 . S
C235 H240 0.930 . S
O236 Cu230 1.974 . S
O236 C246 1.282 . S
C237 O238 1.261 . S
C237 O250 1.251 . S
O238 C237 1.261 . S
H239 C233 0.930 . S
H240 C235 0.930 . S
N241 Cu230 1.985 . S
N241 C243 1.335 . S
N241 C244 1.390 . S
N242 C243 1.345 . S
N242 C245 1.336 . S
C243 N241 1.335 . S
C243 N242 1.345 . S
C243 H248 0.930 . S
C244 N241 1.390 . S
C244 C245 1.346 . S
C244 H249 0.930 . S
C245 N242 1.336 . S
C245 C244 1.346 . S
C245 H252 0.929 . S
C246 O236 1.282 . S
C246 O247 1.216 . S
O247 C246 1.216 . S
H248 C243 0.930 . S
H249 C244 0.930 . S
O250 Cu230 1.959 . S
O250 C237 1.251 . S
H251 C234 0.930 . S
H252 C245 0.929 . S
Cu253 N254 1.999 . S
Cu253 O259 1.974 . S
Cu253 N264 1.985 . S
Cu253 O273 1.959 . S
N254 Cu253 1.999 . S
N254 C256 1.263 . S
N254 C258 1.389 . S
N255 C256 1.358 . S
N255 C257 1.400 . S
C256 N254 1.263 . S
C256 N255 1.358 . S
C256 H262 0.930 . S
C257 N255 1.400 . S
C257 C258 1.351 . S
C257 H274 0.930 . S
C258 N254 1.389 . S
C258 C257 1.351 . S
C258 H263 0.930 . S
O259 Cu253 1.974 . S
O259 C269 1.282 . S
C260 O261 1.261 . S
C260 O273 1.251 . S
O261 C260 1.261 . S
H262 C256 0.930 . S
H263 C258 0.930 . S
N264 Cu253 1.985 . S
N264 C266 1.335 . S
N264 C267 1.390 . S
N265 C266 1.345 . S
N265 C268 1.336 . S
C266 N264 1.335 . S
C266 N265 1.345 . S
C266 H271 0.930 . S
C267 N264 1.390 . S
C267 C268 1.346 . S
C267 H272 0.930 . S
C268 N265 1.336 . S
C268 C267 1.346 . S
C268 H275 0.929 . S
C269 O259 1.282 . S
C269 O270 1.216 . S
O270 C269 1.216 . S
H271 C266 0.930 . S
H272 C267 0.930 . S
O273 Cu253 1.959 . S
O273 C260 1.251 . S
H274 C257 0.930 . S
H275 C268 0.929 . S
Cu276 N277 1.999 . S
Cu276 O282 1.974 . S
Cu276 N287 1.985 . S
Cu276 O296 1.959 . S
N277 Cu276 1.999 . S
N277 C279 1.263 . S
N277 C281 1.389 . S
N278 C279 1.358 . S
N278 C280 1.400 . S
C279 N277 1.263 . S
C279 N278 1.358 . S
C279 H285 0.930 . S
C280 N278 1.400 . S
C280 C281 1.351 . S
C280 H297 0.930 . S
C281 N277 1.389 . S
C281 C280 1.351 . S
C281 H286 0.930 . S
O282 Cu276 1.974 . S
O282 C292 1.282 . S
C283 O284 1.261 . S
C283 O296 1.251 . S
O284 C283 1.261 . S
H285 C279 0.930 . S
H286 C281 0.930 . S
N287 Cu276 1.985 . S
N287 C289 1.335 . S
N287 C290 1.390 . S
N288 C289 1.345 . S
N288 C291 1.336 . S
C289 N287 1.335 . S
C289 N288 1.345 . S
C289 H294 0.930 . S
C290 N287 1.390 . S
C290 C291 1.346 . S
C290 H295 0.930 . S
C291 N288 1.336 . S
C291 C290 1.346 . S
C291 H298 0.929 . S
C292 O282 1.282 . S
C292 O293 1.216 . S
O293 C292 1.216 . S
H294 C289 0.930 . S
H295 C290 0.930 . S
O296 Cu276 1.959 . S
O296 C283 1.251 . S
H297 C280 0.930 . S
H298 C291 0.929 . S
Cu299 N300 1.999 . S
Cu299 O305 1.974 . S
Cu299 N310 1.985 . S
Cu299 O319 1.959 . S
N300 Cu299 1.999 . S
N300 C302 1.263 . S
N300 C304 1.389 . S
N301 C302 1.358 . S
N301 C303 1.400 . S
C302 N300 1.263 . S
C302 N301 1.358 . S
C302 H308 0.930 . S
C303 N301 1.400 . S
C303 C304 1.351 . S
C303 H320 0.930 . S
C304 N300 1.389 . S
C304 C303 1.351 . S
C304 H309 0.930 . S
O305 Cu299 1.974 . S
O305 C315 1.282 . S
C306 O307 1.261 . S
C306 O319 1.251 . S
O307 C306 1.261 . S
H308 C302 0.930 . S
H309 C304 0.930 . S
N310 Cu299 1.985 . S
N310 C312 1.335 . S
N310 C313 1.390 . S
N311 C312 1.345 . S
N311 C314 1.336 . S
C312 N310 1.335 . S
C312 N311 1.345 . S
C312 H317 0.930 . S
C313 N310 1.390 . S
C313 C314 1.346 . S
C313 H318 0.930 . S
C314 N311 1.336 . S
C314 C313 1.346 . S
C314 H321 0.929 . S
C315 O305 1.282 . S
C315 O316 1.216 . S
O316 C315 1.216 . S
H317 C312 0.930 . S
H318 C313 0.930 . S
O319 Cu299 1.959 . S
O319 C306 1.251 . S
H320 C303 0.930 . S
H321 C314 0.929 . S
Cu322 N323 1.999 . S
Cu322 O328 1.974 . S
Cu322 N333 1.985 . S
Cu322 O342 1.959 . S
N323 Cu322 1.999 . S
N323 C325 1.263 . S
N323 C327 1.389 . S
N324 C325 1.358 . S
N324 C326 1.400 . S
C325 N323 1.263 . S
C325 N324 1.358 . S
C325 H331 0.930 . S
C326 N324 1.400 . S
C326 C327 1.351 . S
C326 H343 0.930 . S
C327 N323 1.389 . S
C327 C326 1.351 . S
C327 H332 0.930 . S
O328 Cu322 1.974 . S
O328 C338 1.282 . S
C329 O330 1.261 . S
C329 O342 1.251 . S
O330 C329 1.261 . S
H331 C325 0.930 . S
H332 C327 0.930 . S
N333 Cu322 1.985 . S
N333 C335 1.335 . S
N333 C336 1.390 . S
N334 C335 1.345 . S
N334 C337 1.336 . S
C335 N333 1.335 . S
C335 N334 1.345 . S
C335 H340 0.930 . S
C336 N333 1.390 . S
C336 C337 1.346 . S
C336 H341 0.930 . S
C337 N334 1.336 . S
C337 C336 1.346 . S
C337 H344 0.929 . S
C338 O328 1.282 . S
C338 O339 1.216 . S
O339 C338 1.216 . S
H340 C335 0.930 . S
H341 C336 0.930 . S
O342 Cu322 1.959 . S
O342 C329 1.251 . S
H343 C326 0.930 . S
H344 C337 0.929 . S
Cu345 N346 1.999 . S
Cu345 O351 1.974 . S
Cu345 N356 1.985 . S
Cu345 O365 1.959 . S
N346 Cu345 1.999 . S
N346 C348 1.263 . S
N346 C350 1.389 . S
N347 C348 1.358 . S
N347 C349 1.400 . S
C348 N346 1.263 . S
C348 N347 1.358 . S
C348 H354 0.930 . S
C349 N347 1.400 . S
C349 C350 1.351 . S
C349 H366 0.930 . S
C350 N346 1.389 . S
C350 C349 1.351 . S
C350 H355 0.930 . S
O351 Cu345 1.974 . S
O351 C361 1.282 . S
C352 O353 1.261 . S
C352 O365 1.251 . S
O353 C352 1.261 . S
H354 C348 0.930 . S
H355 C350 0.930 . S
N356 Cu345 1.985 . S
N356 C358 1.335 . S
N356 C359 1.390 . S
N357 C358 1.345 . S
N357 C360 1.336 . S
C358 N356 1.335 . S
C358 N357 1.345 . S
C358 H363 0.930 . S
C359 N356 1.390 . S
C359 C360 1.346 . S
C359 H364 0.930 . S
C360 N357 1.336 . S
C360 C359 1.346 . S
C360 H367 0.929 . S
C361 O351 1.282 . S
C361 O362 1.216 . S
O362 C361 1.216 . S
H363 C358 0.930 . S
H364 C359 0.930 . S
O365 Cu345 1.959 . S
O365 C352 1.251 . S
H366 C349 0.930 . S
H367 C360 0.929 . S
Cu368 N369 1.999 . S
Cu368 O374 1.974 . S
Cu368 N379 1.985 . S
Cu368 O388 1.959 . S
N369 Cu368 1.999 . S
N369 C371 1.263 . S
N369 C373 1.389 . S
N370 C371 1.358 . S
N370 C372 1.400 . S
C371 N369 1.263 . S
C371 N370 1.358 . S
C371 H377 0.930 . S
C372 N370 1.400 . S
C372 C373 1.351 . S
C372 H389 0.930 . S
C373 N369 1.389 . S
C373 C372 1.351 . S
C373 H378 0.930 . S
O374 Cu368 1.974 . S
O374 C384 1.282 . S
C375 O376 1.261 . S
C375 O388 1.251 . S
O376 C375 1.261 . S
H377 C371 0.930 . S
H378 C373 0.930 . S
N379 Cu368 1.985 . S
N379 C381 1.335 . S
N379 C382 1.390 . S
N380 C381 1.345 . S
N380 C383 1.336 . S
C381 N379 1.335 . S
C381 N380 1.345 . S
C381 H386 0.930 . S
C382 N379 1.390 . S
C382 C383 1.346 . S
C382 H387 0.930 . S
C383 N380 1.336 . S
C383 C382 1.346 . S
C383 H390 0.929 . S
C384 O374 1.282 . S
C384 O385 1.216 . S
O385 C384 1.216 . S
H386 C381 0.930 . S
H387 C382 0.930 . S
O388 Cu368 1.959 . S
O388 C375 1.251 . S
H389 C372 0.930 . S
H390 C383 0.929 . S
Cu391 N392 1.999 . S
Cu391 O397 1.974 . S
Cu391 N402 1.985 . S
Cu391 O411 1.959 . S
N392 Cu391 1.999 . S
N392 C394 1.263 . S
N392 C396 1.389 . S
N393 C394 1.358 . S
N393 C395 1.400 . S
C394 N392 1.263 . S
C394 N393 1.358 . S
C394 H400 0.930 . S
C395 N393 1.400 . S
C395 C396 1.351 . S
C395 H412 0.930 . S
C396 N392 1.389 . S
C396 C395 1.351 . S
C396 H401 0.930 . S
O397 Cu391 1.974 . S
O397 C407 1.282 . S
C398 O399 1.261 . S
C398 O411 1.251 . S
O399 C398 1.261 . S
H400 C394 0.930 . S
H401 C396 0.930 . S
N402 Cu391 1.985 . S
N402 C404 1.335 . S
N402 C405 1.390 . S
N403 C404 1.345 . S
N403 C406 1.336 . S
C404 N402 1.335 . S
C404 N403 1.345 . S
C404 H409 0.930 . S
C405 N402 1.390 . S
C405 C406 1.346 . S
C405 H410 0.930 . S
C406 N403 1.336 . S
C406 C405 1.346 . S
C406 H413 0.929 . S
C407 O397 1.282 . S
C407 O408 1.216 . S
O408 C407 1.216 . S
H409 C404 0.930 . S
H410 C405 0.930 . S
O411 Cu391 1.959 . S
O411 C398 1.251 . S
H412 C395 0.930 . S
H413 C406 0.929 . S
C414 O415 1.160 1_455 S
C414 O421 1.185 . S
O415 C414 1.160 1_655 S
O416 Zn417 1.899 1_655 S
O416 C424 1.284 . S
Zn417 O416 1.899 1_455 S
Zn417 O418 2.032 . S
Zn417 O421 2.086 . S
Zn417 O426 1.977 . S
O418 Zn417 2.032 . S
O418 C422 1.278 . S
C419 O420 1.203 . S
C419 O426 1.267 . S
O420 C419 1.203 . S
O421 C414 1.185 . S
O421 Zn417 2.086 . S
C422 O418 1.278 . S
C422 O423 1.211 . S
O423 C422 1.211 . S
C424 O416 1.284 . S
C424 O425 1.273 . S
O425 C424 1.273 . S
O426 Zn417 1.977 . S
O426 C419 1.267 . S
C427 O428 1.160 . S
C427 O434 1.185 . S
O428 C427 1.160 . S
O429 Zn430 1.899 . S
O429 C437 1.284 . S
Zn430 O429 1.899 . S
Zn430 O431 2.032 . S
Zn430 O434 2.086 . S
Zn430 O439 1.977 . S
O431 Zn430 2.032 . S
O431 C435 1.278 . S
C432 O433 1.203 . S
C432 O439 1.267 . S
O433 C432 1.203 . S
O434 C427 1.185 . S
O434 Zn430 2.086 . S
C435 O431 1.278 . S
C435 O436 1.211 . S
O436 C435 1.211 . S
C437 O429 1.284 . S
C437 O438 1.273 . S
O438 C437 1.273 . S
O439 Zn430 1.977 . S
O439 C432 1.267 . S
C440 O441 1.160 . S
C440 O447 1.185 . S
O441 C440 1.160 . S
O442 Zn443 1.899 . S
O442 C450 1.284 . S
Zn443 O442 1.899 . S
Zn443 O444 2.032 . S
Zn443 O447 2.086 . S
Zn443 O452 1.977 . S
O444 Zn443 2.032 . S
O444 C448 1.278 . S
C445 O446 1.203 . S
C445 O452 1.267 . S
O446 C445 1.203 . S
O447 C440 1.185 . S
O447 Zn443 2.086 . S
C448 O444 1.278 . S
C448 O449 1.211 . S
O449 C448 1.211 . S
C450 O442 1.284 . S
C450 O451 1.273 . S
O451 C450 1.273 . S
O452 Zn443 1.977 . S
O452 C445 1.267 . S
C453 O454 1.160 . S
C453 O460 1.185 . S
O454 C453 1.160 . S
O455 Zn456 1.899 . S
O455 C463 1.284 . S
Zn456 O455 1.899 . S
Zn456 O457 2.032 . S
Zn456 O460 2.086 . S
Zn456 O465 1.977 1_455 S
O457 Zn456 2.032 . S
O457 C461 1.278 . S
C458 O459 1.203 . S
C458 O465 1.267 . S
O459 C458 1.203 . S
O460 C453 1.185 . S
O460 Zn456 2.086 . S
C461 O457 1.278 . S
C461 O462 1.211 . S
O462 C461 1.211 . S
C463 O455 1.284 . S
C463 O464 1.273 . S
O464 C463 1.273 . S
O465 Zn456 1.977 1_655 S
O465 C458 1.267 . S
C466 O467 1.160 . S
C466 O473 1.185 . S
O467 C466 1.160 . S
O468 Zn469 1.899 . S
O468 C476 1.284 . S
Zn469 O468 1.899 . S
Zn469 O470 2.032 . S
Zn469 O473 2.086 . S
Zn469 O478 1.977 . S
O470 Zn469 2.032 . S
O470 C474 1.278 . S
C471 O472 1.203 . S
C471 O478 1.267 . S
O472 C471 1.203 . S
O473 C466 1.185 . S
O473 Zn469 2.086 . S
C474 O470 1.278 . S
C474 O475 1.211 . S
O475 C474 1.211 . S
C476 O468 1.284 . S
C476 O477 1.273 . S
O477 C476 1.273 . S
O478 Zn469 1.977 . S
O478 C471 1.267 . S
C479 O480 1.160 . S
C479 O486 1.185 . S
O480 C479 1.160 . S
O481 Zn482 1.899 . S
O481 C489 1.284 . S
Zn482 O481 1.899 . S
Zn482 O483 2.032 . S
Zn482 O486 2.086 . S
Zn482 O491 1.977 1_545 S
O483 Zn482 2.032 . S
O483 C487 1.278 . S
C484 O485 1.203 . S
C484 O491 1.267 . S
O485 C484 1.203 . S
O486 C479 1.185 . S
O486 Zn482 2.086 . S
C487 O483 1.278 . S
C487 O488 1.211 . S
O488 C487 1.211 . S
C489 O481 1.284 . S
C489 O490 1.273 . S
O490 C489 1.273 . S
O491 Zn482 1.977 1_565 S
O491 C484 1.267 . S
C492 O493 1.160 . S
C492 O499 1.185 . S
O493 C492 1.160 . S
O494 Zn495 1.899 . S
O494 C502 1.287 1_545 S
Zn495 O494 1.899 . S
Zn495 O496 2.032 1_545 S
Zn495 O499 2.086 1_545 S
Zn495 O504 1.977 . S
O496 Zn495 2.032 1_565 S
O496 C500 1.278 . S
C497 O498 1.203 . S
C497 O504 1.267 . S
O498 C497 1.203 . S
O499 C492 1.185 . S
O499 Zn495 2.086 1_565 S
C500 O496 1.278 . S
C500 O501 1.211 . S
O501 C500 1.211 . S
C502 O494 1.287 1_565 S
C502 O503 1.279 . S
O503 C502 1.279 . S
O504 Zn495 1.977 . S
O504 C497 1.267 . S
C505 O506 1.160 . S
C505 O512 1.185 . S
O506 C505 1.160 . S
O507 Zn508 1.899 . S
O507 C515 1.284 . S
Zn508 O507 1.899 . S
Zn508 O509 2.032 . S
Zn508 O512 2.086 . S
Zn508 O517 1.977 . S
O509 Zn508 2.032 . S
O509 C513 1.278 . S
C510 O511 1.203 . S
C510 O517 1.267 . S
O511 C510 1.203 . S
O512 C505 1.185 . S
O512 Zn508 2.086 . S
C513 O509 1.278 . S
C513 O514 1.211 . S
O514 C513 1.211 . S
C515 O507 1.284 . S
C515 O516 1.273 . S
O516 C515 1.273 . S
O517 Zn508 1.977 . S
O517 C510 1.267 . S
C518 O519 1.160 . S
C518 O525 1.185 . S
O519 C518 1.160 . S
O520 Zn521 1.899 . S
O520 C528 1.284 . S
Zn521 O520 1.899 . S
Zn521 O522 2.032 . S
Zn521 O525 2.086 . S
Zn521 O530 1.977 . S
O522 Zn521 2.032 . S
O522 C526 1.278 . S
C523 O524 1.203 . S
C523 O530 1.267 . S
O524 C523 1.203 . S
O525 C518 1.185 . S
O525 Zn521 2.086 . S
C526 O522 1.278 . S
C526 O527 1.211 . S
O527 C526 1.211 . S
C528 O520 1.284 . S
C528 O529 1.273 . S
O529 C528 1.273 . S
O530 Zn521 1.977 . S
O530 C523 1.267 . S
C531 O532 1.160 . S
C531 O538 1.185 . S
O532 C531 1.160 . S
O533 Zn534 1.899 . S
O533 C541 1.284 . S
Zn534 O533 1.899 . S
Zn534 O535 2.032 . S
Zn534 O538 2.086 . S
Zn534 O543 1.977 . S
O535 Zn534 2.032 . S
O535 C539 1.278 . S
C536 O537 1.203 . S
C536 O543 1.267 . S
O537 C536 1.203 . S
O538 C531 1.185 . S
O538 Zn534 2.086 . S
C539 O535 1.278 . S
C539 O540 1.211 . S
O540 C539 1.211 . S
C541 O533 1.284 . S
C541 O542 1.273 . S
O542 C541 1.273 . S
O543 Zn534 1.977 . S
O543 C536 1.267 . S
C544 O545 1.160 . S
C544 O551 1.185 . S
O545 C544 1.160 . S
O546 Zn547 1.899 . S
O546 C554 1.284 . S
Zn547 O546 1.899 . S
Zn547 O548 2.032 . S
Zn547 O551 2.086 . S
Zn547 O556 1.977 1_565 S
O548 Zn547 2.032 . S
O548 C552 1.278 . S
C549 O550 1.203 . S
C549 O556 1.267 . S
O550 C549 1.203 . S
O551 C544 1.185 . S
O551 Zn547 2.086 . S
C552 O548 1.278 . S
C552 O553 1.211 1_565 S
O553 C552 1.211 1_545 S
C554 O546 1.284 . S
C554 O555 1.273 . S
O555 C554 1.273 . S
O556 Zn547 1.977 1_545 S
O556 C549 1.267 . S
C557 O558 1.160 . S
C557 O564 1.185 . S
O558 C557 1.160 . S
O559 Zn560 1.899 . S
O559 C567 1.284 . S
Zn560 O559 1.899 . S
Zn560 O561 2.032 . S
Zn560 O564 2.086 . S
Zn560 O569 1.977 . S
O561 Zn560 2.032 . S
O561 C565 1.278 . S
C562 O563 1.203 . S
C562 O569 1.267 . S
O563 C562 1.203 . S
O564 C557 1.185 . S
O564 Zn560 2.086 . S
C565 O561 1.278 . S
C565 O566 1.211 . S
O566 C565 1.211 . S
C567 O559 1.284 . S
C567 O568 1.273 . S
O568 C567 1.273 . S
O569 Zn560 1.977 . S
O569 C562 1.267 . S
C570 O571 1.160 . S
C570 O577 1.185 . S
O571 C570 1.160 . S
O572 Zn573 1.899 . S
O572 C580 1.284 . S
Zn573 O572 1.899 . S
Zn573 O574 2.032 . S
Zn573 O577 2.086 . S
Zn573 O582 1.977 . S
O574 Zn573 2.032 . S
O574 C578 1.278 . S
C575 O576 1.203 . S
C575 O582 1.267 . S
O576 C575 1.203 . S
O577 C570 1.185 . S
O577 Zn573 2.086 . S
C578 O574 1.278 . S
C578 O579 1.211 . S
O579 C578 1.211 . S
C580 O572 1.284 . S
C580 O581 1.273 . S
O581 C580 1.273 . S
O582 Zn573 1.977 . S
O582 C575 1.267 . S
C583 O584 1.160 . S
C583 O590 1.185 . S
O584 C583 1.160 . S
O585 Zn586 1.899 . S
O585 C593 1.284 . S
Zn586 O585 1.899 . S
Zn586 O587 2.032 . S
Zn586 O590 2.086 . S
Zn586 O595 1.977 . S
O587 Zn586 2.032 . S
O587 C591 1.278 . S
C588 O589 1.203 . S
C588 O595 1.267 . S
O589 C588 1.203 . S
O590 C583 1.185 . S
O590 Zn586 2.086 . S
C591 O587 1.278 . S
C591 O592 1.211 . S
O592 C591 1.211 . S
C593 O585 1.284 . S
C593 O594 1.273 . S
O594 C593 1.273 . S
O595 Zn586 1.977 . S
O595 C588 1.267 . S
C596 O597 1.160 . S
C596 O603 1.185 . S
O597 C596 1.160 . S
O598 Zn599 1.899 . S
O598 C606 1.284 . S
Zn599 O598 1.899 . S
Zn599 O600 2.032 1_655 S
Zn599 O603 2.086 . S
Zn599 O608 1.977 . S
O600 Zn599 2.032 1_455 S
O600 C604 1.278 . S
C601 O602 1.203 . S
C601 O608 1.267 . S
O602 C601 1.203 . S
O603 C596 1.185 . S
O603 Zn599 2.086 . S
C604 O600 1.278 . S
C604 O605 1.204 1_455 S
O605 C604 1.204 1_655 S
C606 O598 1.284 . S
C606 O607 1.273 . S
O607 C606 1.273 . S
O608 Zn599 1.977 . S
O608 C601 1.267 . S
C609 O610 1.160 . S
C609 O616 1.185 . S
O610 C609 1.160 . S
O611 Zn612 1.899 . S
O611 C619 1.284 . S
Zn612 O611 1.899 . S
Zn612 O613 2.032 . S
Zn612 O616 2.086 . S
Zn612 O621 1.977 . S
O613 Zn612 2.032 . S
O613 C617 1.278 . S
C614 O615 1.203 . S
C614 O621 1.267 . S
O615 C614 1.203 . S
O616 C609 1.185 . S
O616 Zn612 2.086 . S
C617 O613 1.278 . S
C617 O618 1.211 . S
O618 C617 1.211 . S
C619 O611 1.284 . S
C619 O620 1.273 . S
O620 C619 1.273 . S
O621 Zn612 1.977 . S
O621 C614 1.267 . S
C622 O623 1.160 . S
C622 O629 1.185 . S
O623 C622 1.160 . S
O624 Zn625 1.899 . S
O624 C632 1.284 . S
Zn625 O624 1.899 . S
Zn625 O626 2.032 . S
Zn625 O629 2.086 . S
Zn625 O634 1.977 . S
O626 Zn625 2.032 . S
O626 C630 1.278 1_655 S
C627 O628 1.203 . S
C627 O634 1.267 . S
O628 C627 1.203 . S
O629 C622 1.185 . S
O629 Zn625 2.086 . S
C630 O626 1.278 1_455 S
C630 O631 1.211 . S
O631 C630 1.211 . S
C632 O624 1.284 . S
C632 O633 1.273 . S
O633 C632 1.273 . S
O634 Zn625 1.977 . S
O634 C627 1.267 . S
C635 O636 1.160 . S
C635 O642 1.185 . S
O636 C635 1.160 . S
O637 Zn638 1.899 . S
O637 C645 1.284 . S
Zn638 O637 1.899 . S
Zn638 O639 2.032 . S
Zn638 O642 2.086 . S
Zn638 O647 1.977 . S
O639 Zn638 2.032 . S
O639 C643 1.278 . S
C640 O641 1.203 . S
C640 O647 1.267 . S
O641 C640 1.203 . S
O642 C635 1.185 . S
O642 Zn638 2.086 . S
C643 O639 1.278 . S
C643 O644 1.211 . S
O644 C643 1.211 . S
C645 O637 1.284 . S
C645 O646 1.273 . S
O646 C645 1.273 . S
O647 Zn638 1.977 . S
O647 C640 1.267 . S
H648 C654 0.930 . S
H649 C657 0.930 . S
H650 C658 0.930 . S
H651 C659 0.930 . S
H652 C662 0.930 . S
H653 C663 0.930 . S
C654 H648 0.930 . S
C654 C655 1.355 . S
C654 C656 1.415 . S
C655 C654 1.355 . S
C655 C657 1.419 . S
C656 C654 1.415 . S
C656 C661 1.425 . S
C656 C663 1.409 . S
C657 H649 0.930 . S
C657 C655 1.419 . S
C657 C658 1.362 . S
C658 H650 0.930 . S
C658 C657 1.362 . S
C658 C661 1.409 . S
C659 H651 0.930 . S
C659 C660 1.355 . S
C659 C661 1.415 . S
C660 C659 1.355 . S
C660 C662 1.419 . S
C661 C656 1.425 . S
C661 C658 1.409 . S
C661 C659 1.415 . S
C662 H652 0.930 . S
C662 C660 1.419 . S
C662 C663 1.362 . S
C663 H653 0.930 . S
C663 C656 1.409 . S
C663 C662 1.362 . S
H664 C670 0.930 . S
H665 C673 0.930 . S
H666 C674 0.930 . S
H667 C675 0.930 . S
H668 C678 0.930 . S
H669 C679 0.930 . S
C670 H664 0.930 . S
C670 C671 1.355 . S
C670 C672 1.415 . S
C671 C670 1.355 . S
C671 C673 1.419 . S
C672 C670 1.415 . S
C672 C677 1.425 . S
C672 C679 1.409 . S
C673 H665 0.930 . S
C673 C671 1.419 . S
C673 C674 1.362 . S
C674 H666 0.930 . S
C674 C673 1.362 . S
C674 C677 1.409 . S
C675 H667 0.930 . S
C675 C676 1.355 . S
C675 C677 1.415 . S
C676 C675 1.355 . S
C676 C678 1.419 . S
C677 C672 1.425 . S
C677 C674 1.409 . S
C677 C675 1.415 . S
C678 H668 0.930 . S
C678 C676 1.419 . S
C678 C679 1.362 . S
C679 H669 0.930 . S
C679 C672 1.409 . S
C679 C678 1.362 . S
H680 C686 0.930 . S
H681 C689 0.930 . S
H682 C690 0.930 . S
H683 C691 0.930 . S
H684 C694 0.930 . S
H685 C695 0.930 . S
C686 H680 0.930 . S
C686 C687 1.355 . S
C686 C688 1.415 . S
C687 C686 1.355 . S
C687 C689 1.419 1_545 S
C688 C686 1.415 . S
C688 C693 1.425 1_545 S
C688 C695 1.409 . S
C689 H681 0.930 . S
C689 C687 1.419 1_565 S
C689 C690 1.362 . S
C690 H682 0.930 . S
C690 C689 1.362 . S
C690 C693 1.409 . S
C691 H683 0.930 . S
C691 C692 1.355 . S
C691 C693 1.415 . S
C692 C691 1.355 . S
C692 C694 1.419 1_565 S
C693 C688 1.425 1_565 S
C693 C690 1.409 . S
C693 C691 1.415 . S
C694 H684 0.930 . S
C694 C692 1.419 1_545 S
C694 C695 1.362 . S
C695 H685 0.930 . S
C695 C688 1.409 . S
C695 C694 1.362 . S
H696 C702 0.930 . S
H697 C705 0.930 . S
H698 C706 0.930 . S
H699 C707 0.930 . S
H700 C710 0.930 . S
H701 C711 0.930 . S
C702 H696 0.930 . S
C702 C703 1.355 . S
C702 C704 1.415 . S
C703 C702 1.355 . S
C703 C705 1.419 . S
C704 C702 1.415 . S
C704 C709 1.425 . S
C704 C711 1.409 . S
C705 H697 0.930 . S
C705 C703 1.419 . S
C705 C706 1.362 . S
C706 H698 0.930 . S
C706 C705 1.362 . S
C706 C709 1.409 . S
C707 H699 0.930 . S
C707 C708 1.355 . S
C707 C709 1.415 . S
C708 C707 1.355 . S
C708 C710 1.419 . S
C709 C704 1.425 . S
C709 C706 1.409 . S
C709 C707 1.415 . S
C710 H700 0.930 . S
C710 C708 1.419 . S
C710 C711 1.362 . S
C711 H701 0.930 . S
C711 C704 1.409 . S
C711 C710 1.362 . S
H712 C718 0.930 1_655 S
H713 C721 0.930 . S
H714 C722 0.930 . S
H715 C723 0.930 . S
H716 C726 0.930 . S
H717 C727 0.930 . S
C718 H712 0.930 1_455 S
C718 C719 1.355 . S
C718 C720 1.415 1_455 S
C719 C718 1.355 . S
C719 C721 1.419 . S
C720 C718 1.415 1_655 S
C720 C725 1.425 1_655 S
C720 C727 1.409 . S
C721 H713 0.930 . S
C721 C719 1.419 . S
C721 C722 1.362 . S
C722 H714 0.930 . S
C722 C721 1.362 . S
C722 C725 1.409 . S
C723 H715 0.930 . S
C723 C724 1.355 1_455 S
C723 C725 1.415 . S
C724 C723 1.355 1_655 S
C724 C726 1.419 . S
C725 C720 1.425 1_455 S
C725 C722 1.409 . S
C725 C723 1.415 . S
C726 H716 0.930 . S
C726 C724 1.419 . S
C726 C727 1.362 . S
C727 H717 0.930 . S
C727 C720 1.409 . S
C727 C726 1.362 . S
H728 C734 0.930 . S
H729 C737 0.930 . S
H730 C738 0.930 . S
H731 C739 0.930 . S
H732 C742 0.930 . S
H733 C743 0.930 . S
C734 H728 0.930 . S
C734 C735 1.355 . S
C734 C736 1.415 . S
C735 C734 1.355 . S
C735 C737 1.419 . S
C736 C734 1.415 . S
C736 C741 1.425 . S
C736 C743 1.409 . S
C737 H729 0.930 . S
C737 C735 1.419 . S
C737 C738 1.362 . S
C738 H730 0.930 . S
C738 C737 1.362 . S
C738 C741 1.409 . S
C739 H731 0.930 . S
C739 C740 1.355 . S
C739 C741 1.415 . S
C740 C739 1.355 . S
C740 C742 1.419 . S
C741 C736 1.425 . S
C741 C738 1.409 . S
C741 C739 1.415 . S
C742 H732 0.930 . S
C742 C740 1.419 . S
C742 C743 1.362 . S
C743 H733 0.930 . S
C743 C736 1.409 . S
C743 C742 1.362 . S
H744 C750 0.930 . S
H745 C753 0.932 1_655 S
H746 C754 0.930 . S
H747 C755 0.930 . S
H748 C758 0.930 . S
H749 C759 0.930 . S
C750 H744 0.930 . S
C750 C751 1.355 . S
C750 C752 1.415 . S
C751 C750 1.355 . S
C751 C753 1.419 . S
C752 C750 1.415 . S
C752 C757 1.425 . S
C752 C759 1.409 . S
C753 H745 0.932 1_455 S
C753 C751 1.419 . S
C753 C754 1.362 1_455 S
C754 H746 0.930 . S
C754 C753 1.362 1_655 S
C754 C757 1.409 1_655 S
C755 H747 0.930 . S
C755 C756 1.358 1_655 S
C755 C757 1.415 1_655 S
C756 C755 1.358 1_455 S
C756 C758 1.434 . S
C757 C752 1.425 . S
C757 C754 1.409 1_455 S
C757 C755 1.415 1_455 S
C758 H748 0.930 . S
C758 C756 1.434 . S
C758 C759 1.362 . S
C759 H749 0.930 . S
C759 C752 1.409 . S
C759 C758 1.362 . S
H760 C766 0.930 . S
H761 C769 0.930 . S
H762 C770 0.930 1_554 S
H763 C771 0.930 . S
H764 C774 0.930 . S
H765 C775 0.930 . S
C766 H760 0.930 . S
C766 C767 1.355 . S
C766 C768 1.415 . S
C767 C766 1.355 . S
C767 C769 1.419 1_556 S
C768 C766 1.415 . S
C768 C773 1.425 . S
C768 C775 1.409 . S
C769 H761 0.930 . S
C769 C767 1.419 1_554 S
C769 C770 1.362 1_554 S
C770 H762 0.930 1_556 S
C770 C769 1.362 1_556 S
C770 C773 1.409 . S
C771 H763 0.930 . S
C771 C772 1.355 . S
C771 C773 1.415 . S
C772 C771 1.355 . S
C772 C774 1.419 . S
C773 C768 1.425 . S
C773 C770 1.409 . S
C773 C771 1.415 . S
C774 H764 0.930 . S
C774 C772 1.419 . S
C774 C775 1.362 . S
C775 H765 0.930 . S
C775 C768 1.409 . S
C775 C774 1.362 . S
H776 C782 0.930 1_554 S
H777 C785 0.930 . S
H778 C786 0.930 . S
H779 C787 0.930 . S
H780 C790 0.930 . S
H781 C791 0.930 . S
C782 H776 0.930 1_556 S
C782 C783 1.355 . S
C782 C784 1.415 . S
C783 C782 1.355 . S
C783 C785 1.419 . S
C784 C782 1.415 . S
C784 C789 1.425 . S
C784 C791 1.409 . S
C785 H777 0.930 . S
C785 C783 1.419 . S
C785 C786 1.362 . S
C786 H778 0.930 . S
C786 C785 1.362 . S
C786 C789 1.409 . S
C787 H779 0.930 . S
C787 C788 1.355 . S
C787 C789 1.415 . S
C788 C787 1.355 . S
C788 C790 1.419 . S
C789 C784 1.425 . S
C789 C786 1.409 . S
C789 C787 1.415 . S
C790 H780 0.930 . S
C790 C788 1.419 . S
C790 C791 1.362 . S
C791 H781 0.930 . S
C791 C784 1.409 . S
C791 C790 1.362 . S
H792 C798 0.930 . S
H793 C801 0.930 . S
H794 C802 0.930 1_565 S
H795 C803 0.930 1_565 S
H796 C806 0.930 . S
H797 C807 0.930 . S
C798 H792 0.930 . S
C798 C799 1.355 . S
C798 C800 1.415 . S
C799 C798 1.355 . S
C799 C801 1.419 . S
C800 C798 1.415 . S
C800 C805 1.425 . S
C800 C807 1.409 . S
C801 H793 0.930 . S
C801 C799 1.419 . S
C801 C802 1.362 . S
C802 H794 0.930 1_545 S
C802 C801 1.362 . S
C802 C805 1.409 . S
C803 H795 0.930 1_545 S
C803 C804 1.355 . S
C803 C805 1.415 . S
C804 C803 1.355 . S
C804 C806 1.419 . S
C805 C800 1.425 . S
C805 C802 1.409 . S
C805 C803 1.415 . S
C806 H796 0.930 . S
C806 C804 1.419 . S
C806 C807 1.362 . S
C807 H797 0.930 . S
C807 C800 1.409 . S
C807 C806 1.362 . S
H808 C814 0.930 . S
H809 C817 0.930 . S
H810 C818 0.930 . S
H811 C819 0.930 . S
H812 C822 0.930 . S
H813 C823 0.930 . S
C814 H808 0.930 . S
C814 C815 1.355 . S
C814 C816 1.415 . S
C815 C814 1.355 . S
C815 C817 1.419 . S
C816 C814 1.415 . S
C816 C821 1.425 . S
C816 C823 1.409 . S
C817 H809 0.930 . S
C817 C815 1.419 . S
C817 C818 1.362 . S
C818 H810 0.930 . S
C818 C817 1.362 . S
C818 C821 1.409 . S
C819 H811 0.930 . S
C819 C820 1.355 . S
C819 C821 1.415 . S
C820 C819 1.355 . S
C820 C822 1.419 . S
C821 C816 1.425 . S
C821 C818 1.409 . S
C821 C819 1.415 . S
C822 H812 0.930 . S
C822 C820 1.419 . S
C822 C823 1.362 . S
C823 H813 0.930 . S
C823 C816 1.409 . S
C823 C822 1.362 . S
H824 C830 0.930 . S
H825 C833 0.930 . S
H826 C834 0.930 . S
H827 C835 0.930 . S
H828 C838 0.930 . S
H829 C839 0.930 . S
C830 H824 0.930 . S
C830 C831 1.355 . S
C830 C832 1.415 . S
C831 C830 1.355 . S
C831 C833 1.419 . S
C832 C830 1.415 . S
C832 C837 1.425 . S
C832 C839 1.409 . S
C833 H825 0.930 . S
C833 C831 1.419 . S
C833 C834 1.362 . S
C834 H826 0.930 . S
C834 C833 1.362 . S
C834 C837 1.409 . S
C835 H827 0.930 . S
C835 C836 1.355 . S
C835 C837 1.415 . S
C836 C835 1.355 . S
C836 C838 1.419 . S
C837 C832 1.425 . S
C837 C834 1.409 . S
C837 C835 1.415 . S
C838 H828 0.930 . S
C838 C836 1.419 . S
C838 C839 1.362 . S
C839 H829 0.930 . S
C839 C832 1.409 . S
C839 C838 1.362 . S
H840 C846 0.930 . S
H841 C849 0.930 . S
H842 C850 0.930 . S
H843 C851 0.930 . S
H844 C854 0.930 . S
H845 C855 0.930 . S
C846 H840 0.930 . S
C846 C847 1.355 . S
C846 C848 1.415 . S
C847 C846 1.355 . S
C847 C849 1.419 . S
C848 C846 1.415 . S
C848 C853 1.425 . S
C848 C855 1.409 . S
C849 H841 0.930 . S
C849 C847 1.419 . S
C849 C850 1.362 . S
C850 H842 0.930 . S
C850 C849 1.362 . S
C850 C853 1.409 . S
C851 H843 0.930 . S
C851 C852 1.355 . S
C851 C853 1.415 . S
C852 C851 1.355 . S
C852 C854 1.419 . S
C853 C848 1.425 . S
C853 C850 1.409 . S
C853 C851 1.415 . S
C854 H844 0.930 . S
C854 C852 1.419 . S
C854 C855 1.362 . S
C855 H845 0.930 . S
C855 C848 1.409 . S
C855 C854 1.362 . S
H856 C862 0.930 . S
H857 C865 0.930 . S
H858 C866 0.930 . S
H859 C867 0.930 . S
H860 C870 0.930 . S
H861 C871 0.930 . S
C862 H856 0.930 . S
C862 C863 1.355 . S
C862 C864 1.415 1_565 S
C863 C862 1.355 . S
C863 C865 1.419 . S
C864 C862 1.415 1_545 S
C864 C869 1.425 . S
C864 C871 1.409 . S
C865 H857 0.930 . S
C865 C863 1.419 . S
C865 C866 1.362 . S
C866 H858 0.930 . S
C866 C865 1.362 . S
C866 C869 1.409 1_565 S
C867 H859 0.930 . S
C867 C868 1.355 . S
C867 C869 1.415 . S
C868 C867 1.355 . S
C868 C870 1.419 . S
C869 C864 1.425 . S
C869 C866 1.409 1_545 S
C869 C867 1.415 . S
C870 H860 0.930 . S
C870 C868 1.419 . S
C870 C871 1.362 . S
C871 H861 0.930 . S
C871 C864 1.409 . S
C871 C870 1.362 . S
H872 C878 0.930 . S
H873 C881 0.930 . S
H874 C882 0.930 . S
H875 C883 0.930 . S
H876 C886 0.930 . S
H877 C887 0.930 . S
C878 H872 0.930 . S
C878 C879 1.355 . S
C878 C880 1.415 . S
C879 C878 1.355 . S
C879 C881 1.419 . S
C880 C878 1.415 . S
C880 C885 1.425 . S
C880 C887 1.409 . S
C881 H873 0.930 . S
C881 C879 1.419 . S
C881 C882 1.362 . S
C882 H874 0.930 . S
C882 C881 1.362 . S
C882 C885 1.409 . S
C883 H875 0.930 . S
C883 C884 1.355 . S
C883 C885 1.415 . S
C884 C883 1.355 . S
C884 C886 1.419 . S
C885 C880 1.425 . S
C885 C882 1.409 . S
C885 C883 1.415 . S
C886 H876 0.930 . S
C886 C884 1.419 . S
C886 C887 1.362 . S
C887 H877 0.930 . S
C887 C880 1.409 . S
C887 C886 1.362 . S
H888 C894 0.930 . S
H889 C897 0.930 . S
H890 C898 0.930 . S
H891 C899 0.930 . S
H892 C902 0.930 . S
H893 C903 0.930 . S
C894 H888 0.930 . S
C894 C895 1.355 . S
C894 C896 1.415 . S
C895 C894 1.355 . S
C895 C897 1.419 . S
C896 C894 1.415 . S
C896 C901 1.425 . S
C896 C903 1.409 . S
C897 H889 0.930 . S
C897 C895 1.419 . S
C897 C898 1.362 . S
C898 H890 0.930 . S
C898 C897 1.362 . S
C898 C901 1.409 . S
C899 H891 0.930 . S
C899 C900 1.355 . S
C899 C901 1.415 . S
C900 C899 1.355 . S
C900 C902 1.419 . S
C901 C896 1.425 . S
C901 C898 1.409 . S
C901 C899 1.415 . S
C902 H892 0.930 . S
C902 C900 1.419 . S
C902 C903 1.362 . S
C903 H893 0.930 . S
C903 C896 1.409 . S
C903 C902 1.362 . S
H904 C910 0.930 . S
H905 C913 0.930 . S
H906 C914 0.930 . S
H907 C915 0.930 . S
H908 C918 0.930 . S
H909 C919 0.930 . S
C910 H904 0.930 . S
C910 C911 1.355 . S
C910 C912 1.415 . S
C911 C910 1.355 . S
C911 C913 1.419 . S
C912 C910 1.415 . S
C912 C917 1.425 . S
C912 C919 1.409 . S
C913 H905 0.930 . S
C913 C911 1.419 . S
C913 C914 1.362 . S
C914 H906 0.930 . S
C914 C913 1.362 . S
C914 C917 1.409 . S
C915 H907 0.930 . S
C915 C916 1.355 . S
C915 C917 1.415 . S
C916 C915 1.355 . S
C916 C918 1.419 . S
C917 C912 1.425 . S
C917 C914 1.409 . S
C917 C915 1.415 . S
C918 H908 0.930 . S
C918 C916 1.419 . S
C918 C919 1.362 . S
C919 H909 0.930 . S
C919 C912 1.409 . S
C919 C918 1.362 . S
H920 C926 0.930 . S
H921 C929 0.930 . S
H922 C930 0.930 . S
H923 C931 0.930 . S
H924 C934 0.930 . S
H925 C935 0.930 . S
C926 H920 0.930 . S
C926 C927 1.355 . S
C926 C928 1.415 . S
C927 C926 1.355 . S
C927 C929 1.419 . S
C928 C926 1.415 . S
C928 C933 1.425 . S
C928 C935 1.409 . S
C929 H921 0.930 . S
C929 C927 1.419 . S
C929 C930 1.362 . S
C930 H922 0.930 . S
C930 C929 1.362 . S
C930 C933 1.409 . S
C931 H923 0.930 . S
C931 C932 1.355 . S
C931 C933 1.415 . S
C932 C931 1.355 . S
C932 C934 1.419 . S
C933 C928 1.425 . S
C933 C930 1.409 . S
C933 C931 1.415 . S
C934 H924 0.930 . S
C934 C932 1.419 . S
C934 C935 1.362 . S
C935 H925 0.930 . S
C935 C928 1.409 . S
C935 C934 1.362 . S
H936 C942 0.930 . S
H937 C945 0.930 . S
H938 C946 0.930 . S
H939 C947 0.930 . S
H940 C950 0.930 . S
H941 C951 0.930 . S
C942 H936 0.930 . S
C942 C943 1.355 . S
C942 C944 1.415 . S
C943 C942 1.355 . S
C943 C945 1.419 . S
C944 C942 1.415 . S
C944 C949 1.425 . S
C944 C951 1.409 . S
C945 H937 0.930 . S
C945 C943 1.419 . S
C945 C946 1.362 . S
C946 H938 0.930 . S
C946 C945 1.362 . S
C946 C949 1.409 . S
C947 H939 0.930 . S
C947 C948 1.355 . S
C947 C949 1.415 1_545 S
C948 C947 1.355 . S
C948 C950 1.419 . S
C949 C944 1.425 . S
C949 C946 1.409 . S
C949 C947 1.415 1_565 S
C950 H940 0.930 . S
C950 C948 1.419 . S
C950 C951 1.362 1_545 S
C951 H941 0.930 . S
C951 C944 1.409 . S
C951 C950 1.362 1_565 S
H952 C958 0.930 . S
H953 C961 0.930 . S
H954 C962 0.930 . S
H955 C963 0.930 . S
H956 C966 0.930 . S
H957 C967 0.930 . S
C958 H952 0.930 . S
C958 C959 1.355 . S
C958 C960 1.415 . S
C959 C958 1.355 . S
C959 C961 1.419 . S
C960 C958 1.415 . S
C960 C965 1.425 . S
C960 C967 1.409 . S
C961 H953 0.930 . S
C961 C959 1.419 . S
C961 C962 1.362 . S
C962 H954 0.930 . S
C962 C961 1.362 . S
C962 C965 1.409 . S
C963 H955 0.930 . S
C963 C964 1.355 . S
C963 C965 1.415 . S
C964 C963 1.355 . S
C964 C966 1.419 . S
C965 C960 1.425 . S
C965 C962 1.409 . S
C965 C963 1.415 . S
C966 H956 0.930 . S
C966 C964 1.419 . S
C966 C967 1.362 . S
C967 H957 0.930 . S
C967 C960 1.409 . S
C967 C966 1.362 . S
H968 C974 0.930 . S
H969 C977 0.930 . S
H970 C978 0.930 . S
H971 C979 0.930 . S
H972 C982 0.930 . S
H973 C983 0.930 . S
C974 H968 0.930 . S
C974 C975 1.355 . S
C974 C976 1.415 . S
C975 C974 1.355 . S
C975 C977 1.419 . S
C976 C974 1.415 . S
C976 C981 1.425 . S
C976 C983 1.409 . S
C977 H969 0.930 . S
C977 C975 1.419 . S
C977 C978 1.362 . S
C978 H970 0.930 . S
C978 C977 1.362 . S
C978 C981 1.409 . S
C979 H971 0.930 . S
C979 C980 1.355 . S
C979 C981 1.415 . S
C980 C979 1.355 . S
C980 C982 1.419 . S
C981 C976 1.425 . S
C981 C978 1.409 . S
C981 C979 1.415 . S
C982 H972 0.930 . S
C982 C980 1.419 . S
C982 C983 1.362 . S
C983 H973 0.930 . S
C983 C976 1.409 . S
C983 C982 1.362 . S
H984 C990 0.930 . S
H985 C993 0.930 . S
H986 C994 0.930 . S
H987 C995 0.930 . S
H988 C998 0.930 . S
H989 C999 0.930 . S
C990 H984 0.930 . S
C990 C991 1.355 . S
C990 C992 1.415 . S
C991 C990 1.355 . S
C991 C993 1.419 . S
C992 C990 1.415 . S
C992 C997 1.425 . S
C992 C999 1.409 . S
C993 H985 0.930 . S
C993 C991 1.419 . S
C993 C994 1.362 . S
C994 H986 0.930 . S
C994 C993 1.362 . S
C994 C997 1.409 . S
C995 H987 0.930 . S
C995 C996 1.355 . S
C995 C997 1.415 . S
C996 C995 1.355 . S
C996 C998 1.419 . S
C997 C992 1.425 . S
C997 C994 1.409 . S
C997 C995 1.415 . S
C998 H988 0.930 . S
C998 C996 1.419 . S
C998 C999 1.362 . S
C999 H989 0.930 . S
C999 C992 1.409 . S
C999 C998 1.362 . S
H1000 C1006 0.930 . S
H1001 C1009 0.930 . S
H1002 C1010 0.930 . S
H1003 C1011 0.930 . S
H1004 C1014 0.930 . S
H1005 C1015 0.930 . S
C1006 H1000 0.930 . S
C1006 C1007 1.355 . S
C1006 C1008 1.415 1_565 S
C1007 C1006 1.355 . S
C1007 C1009 1.419 . S
C1008 C1006 1.415 1_545 S
C1008 C1013 1.425 1_545 S
C1008 C1015 1.409 . S
C1009 H1001 0.930 . S
C1009 C1007 1.419 . S
C1009 C1010 1.362 . S
C1010 H1002 0.930 . S
C1010 C1009 1.362 . S
C1010 C1013 1.409 . S
C1011 H1003 0.930 . S
C1011 C1012 1.355 . S
C1011 C1013 1.415 1_545 S
C1012 C1011 1.355 . S
C1012 C1014 1.419 . S
C1013 C1008 1.425 1_565 S
C1013 C1010 1.409 . S
C1013 C1011 1.415 1_565 S
C1014 H1004 0.930 . S
C1014 C1012 1.419 . S
C1014 C1015 1.362 . S
C1015 H1005 0.930 . S
C1015 C1008 1.409 . S
C1015 C1014 1.362 . S
H1016 C1022 0.930 . S
H1017 C1025 0.930 . S
H1018 C1026 0.930 . S
H1019 C1027 0.930 . S
H1020 C1030 0.930 . S
H1021 C1031 0.930 . S
C1022 H1016 0.930 . S
C1022 C1023 1.355 . S
C1022 C1024 1.415 . S
C1023 C1022 1.355 . S
C1023 C1025 1.419 . S
C1024 C1022 1.415 . S
C1024 C1029 1.425 . S
C1024 C1031 1.409 . S
C1025 H1017 0.930 . S
C1025 C1023 1.419 . S
C1025 C1026 1.362 . S
C1026 H1018 0.930 . S
C1026 C1025 1.362 . S
C1026 C1029 1.409 . S
C1027 H1019 0.930 . S
C1027 C1028 1.355 . S
C1027 C1029 1.415 . S
C1028 C1027 1.355 . S
C1028 C1030 1.419 . S
C1029 C1024 1.425 . S
C1029 C1026 1.409 . S
C1029 C1027 1.415 . S
C1030 H1020 0.930 . S
C1030 C1028 1.419 . S
C1030 C1031 1.362 . S
C1031 H1021 0.930 . S
C1031 C1024 1.409 . S
C1031 C1030 1.362 . S
H1032 C1038 0.930 . S
H1033 C1041 0.930 . S
H1034 C1042 0.930 . S
H1035 C1043 0.930 . S
H1036 C1046 0.930 . S
H1037 C1047 0.930 . S
C1038 H1032 0.930 . S
C1038 C1039 1.355 . S
C1038 C1040 1.415 . S
C1039 C1038 1.355 . S
C1039 C1041 1.419 . S
C1040 C1038 1.415 . S
C1040 C1045 1.425 . S
C1040 C1047 1.409 . S
C1041 H1033 0.930 . S
C1041 C1039 1.419 . S
C1041 C1042 1.362 . S
C1042 H1034 0.930 . S
C1042 C1041 1.362 . S
C1042 C1045 1.409 . S
C1043 H1035 0.930 . S
C1043 C1044 1.355 . S
C1043 C1045 1.415 . S
C1044 C1043 1.355 . S
C1044 C1046 1.419 . S
C1045 C1040 1.425 . S
C1045 C1042 1.409 . S
C1045 C1043 1.415 . S
C1046 H1036 0.930 . S
C1046 C1044 1.419 . S
C1046 C1047 1.362 . S
C1047 H1037 0.930 . S
C1047 C1040 1.409 . S
C1047 C1046 1.362 . S
H1048 C1054 0.930 . S
H1049 C1057 0.930 . S
H1050 C1058 0.930 . S
H1051 C1059 0.930 . S
H1052 C1062 0.930 . S
H1053 C1063 0.930 . S
C1054 H1048 0.930 . S
C1054 C1055 1.355 . S
C1054 C1056 1.415 . S
C1055 C1054 1.355 . S
C1055 C1057 1.419 . S
C1056 C1054 1.415 . S
C1056 C1061 1.425 . S
C1056 C1063 1.409 . S
C1057 H1049 0.930 . S
C1057 C1055 1.419 . S
C1057 C1058 1.362 . S
C1058 H1050 0.930 . S
C1058 C1057 1.362 . S
C1058 C1061 1.409 . S
C1059 H1051 0.930 . S
C1059 C1060 1.355 . S
C1059 C1061 1.415 . S
C1060 C1059 1.355 . S
C1060 C1062 1.419 . S
C1061 C1056 1.425 . S
C1061 C1058 1.409 . S
C1061 C1059 1.415 . S
C1062 H1052 0.930 . S
C1062 C1060 1.419 . S
C1062 C1063 1.362 . S
C1063 H1053 0.930 . S
C1063 C1056 1.409 . S
C1063 C1062 1.362 . S
H1064 C1070 0.930 . S
H1065 C1073 0.930 . S
H1066 C1074 0.930 . S
H1067 C1075 0.930 . S
H1068 C1078 0.930 . S
H1069 C1079 0.930 . S
C1070 H1064 0.930 . S
C1070 C1071 1.355 . S
C1070 C1072 1.415 . S
C1071 C1070 1.355 . S
C1071 C1073 1.419 . S
C1072 C1070 1.415 . S
C1072 C1077 1.425 . S
C1072 C1079 1.409 . S
C1073 H1065 0.930 . S
C1073 C1071 1.419 . S
C1073 C1074 1.362 . S
C1074 H1066 0.930 . S
C1074 C1073 1.362 . S
C1074 C1077 1.409 . S
C1075 H1067 0.930 . S
C1075 C1076 1.355 . S
C1075 C1077 1.415 . S
C1076 C1075 1.355 . S
C1076 C1078 1.419 . S
C1077 C1072 1.425 . S
C1077 C1074 1.409 . S
C1077 C1075 1.415 . S
C1078 H1068 0.930 . S
C1078 C1076 1.419 . S
C1078 C1079 1.362 . S
C1079 H1069 0.930 . S
C1079 C1072 1.409 . S
C1079 C1078 1.362 . S
H1080 C1086 0.930 . S
H1081 C1089 0.930 . S
H1082 C1090 0.930 . S
H1083 C1091 0.930 . S
H1084 C1094 0.930 . S
H1085 C1095 0.930 . S
C1086 H1080 0.930 . S
C1086 C1087 1.355 . S
C1086 C1088 1.415 . S
C1087 C1086 1.355 . S
C1087 C1089 1.419 . S
C1088 C1086 1.415 . S
C1088 C1093 1.425 . S
C1088 C1095 1.409 . S
C1089 H1081 0.930 . S
C1089 C1087 1.419 . S
C1089 C1090 1.362 . S
C1090 H1082 0.930 . S
C1090 C1089 1.362 . S
C1090 C1093 1.409 . S
C1091 H1083 0.930 . S
C1091 C1092 1.355 . S
C1091 C1093 1.415 . S
C1092 C1091 1.355 . S
C1092 C1094 1.419 . S
C1093 C1088 1.425 . S
C1093 C1090 1.409 . S
C1093 C1091 1.415 . S
C1094 H1084 0.930 . S
C1094 C1092 1.419 . S
C1094 C1095 1.362 . S
C1095 H1085 0.930 . S
C1095 C1088 1.409 . S
C1095 C1094 1.362 . S
H1096 C1102 0.930 . S
H1097 C1105 0.930 . S
H1098 C1106 0.930 . S
H1099 C1107 0.930 . S
H1100 C1110 0.930 . S
H1101 C1111 0.930 . S
C1102 H1096 0.930 . S
C1102 C1103 1.355 . S
C1102 C1104 1.415 . S
C1103 C1102 1.355 . S
C1103 C1105 1.419 . S
C1104 C1102 1.415 . S
C1104 C1109 1.425 . S
C1104 C1111 1.409 . S
C1105 H1097 0.930 . S
C1105 C1103 1.419 . S
C1105 C1106 1.362 . S
C1106 H1098 0.930 . S
C1106 C1105 1.362 . S
C1106 C1109 1.409 . S
C1107 H1099 0.930 . S
C1107 C1108 1.355 . S
C1107 C1109 1.415 . S
C1108 C1107 1.355 . S
C1108 C1110 1.419 . S
C1109 C1104 1.425 . S
C1109 C1106 1.409 . S
C1109 C1107 1.415 . S
C1110 H1100 0.930 . S
C1110 C1108 1.419 . S
C1110 C1111 1.362 . S
C1111 H1101 0.930 . S
C1111 C1104 1.409 . S
C1111 C1110 1.362 . S
H1112 C1118 0.930 . S
H1113 C1121 0.930 . S
H1114 C1122 0.930 . S
H1115 C1123 0.930 . S
H1116 C1126 0.930 . S
H1117 C1127 0.930 . S
C1118 H1112 0.930 . S
C1118 C1119 1.355 . S
C1118 C1120 1.415 . S
C1119 C1118 1.355 . S
C1119 C1121 1.419 . S
C1120 C1118 1.415 . S
C1120 C1125 1.425 . S
C1120 C1127 1.409 . S
C1121 H1113 0.930 . S
C1121 C1119 1.419 . S
C1121 C1122 1.362 . S
C1122 H1114 0.930 . S
C1122 C1121 1.362 . S
C1122 C1125 1.409 . S
C1123 H1115 0.930 . S
C1123 C1124 1.355 . S
C1123 C1125 1.415 . S
C1124 C1123 1.355 . S
C1124 C1126 1.419 . S
C1125 C1120 1.425 . S
C1125 C1122 1.409 . S
C1125 C1123 1.415 . S
C1126 H1116 0.930 . S
C1126 C1124 1.419 . S
C1126 C1127 1.362 . S
C1127 H1117 0.930 . S
C1127 C1120 1.409 . S
C1127 C1126 1.362 . S
H1128 C1134 0.930 . S
H1129 C1137 0.930 . S
H1130 C1138 0.930 . S
H1131 C1139 0.930 . S
H1132 C1142 0.930 . S
H1133 C1143 0.930 . S
C1134 H1128 0.930 . S
C1134 C1135 1.355 . S
C1134 C1136 1.415 . S
C1135 C1134 1.355 . S
C1135 C1137 1.419 . S
C1136 C1134 1.415 . S
C1136 C1141 1.425 . S
C1136 C1143 1.409 . S
C1137 H1129 0.930 . S
C1137 C1135 1.419 . S
C1137 C1138 1.362 . S
C1138 H1130 0.930 . S
C1138 C1137 1.362 . S
C1138 C1141 1.409 . S
C1139 H1131 0.930 . S
C1139 C1140 1.355 . S
C1139 C1141 1.415 . S
C1140 C1139 1.355 . S
C1140 C1142 1.419 . S
C1141 C1136 1.425 . S
C1141 C1138 1.409 . S
C1141 C1139 1.415 . S
C1142 H1132 0.930 . S
C1142 C1140 1.419 . S
C1142 C1143 1.362 . S
C1143 H1133 0.930 . S
C1143 C1136 1.409 . S
C1143 C1142 1.362 . S
H1144 C1150 0.930 . S
H1145 C1153 0.930 . S
H1146 C1154 0.930 . S
H1147 C1155 0.930 . S
H1148 C1158 0.930 . S
H1149 C1159 0.930 . S
C1150 H1144 0.930 . S
C1150 C1151 1.355 . S
C1150 C1152 1.415 . S
C1151 C1150 1.355 . S
C1151 C1153 1.419 . S
C1152 C1150 1.415 . S
C1152 C1157 1.425 . S
C1152 C1159 1.409 . S
C1153 H1145 0.930 . S
C1153 C1151 1.419 . S
C1153 C1154 1.362 . S
C1154 H1146 0.930 . S
C1154 C1153 1.362 . S
C1154 C1157 1.409 . S
C1155 H1147 0.930 . S
C1155 C1156 1.355 . S
C1155 C1157 1.415 . S
C1156 C1155 1.355 . S
C1156 C1158 1.419 . S
C1157 C1152 1.425 . S
C1157 C1154 1.409 . S
C1157 C1155 1.415 . S
C1158 H1148 0.930 . S
C1158 C1156 1.419 . S
C1158 C1159 1.362 . S
C1159 H1149 0.930 . S
C1159 C1152 1.409 . S
C1159 C1158 1.362 . S
H1160 C1166 0.930 . S
H1161 C1169 0.930 . S
H1162 C1170 0.930 . S
H1163 C1171 0.930 . S
H1164 C1174 0.930 . S
H1165 C1175 0.930 . S
C1166 H1160 0.930 . S
C1166 C1167 1.355 . S
C1166 C1168 1.415 . S
C1167 C1166 1.355 . S
C1167 C1169 1.419 . S
C1168 C1166 1.415 . S
C1168 C1173 1.425 . S
C1168 C1175 1.409 . S
C1169 H1161 0.930 . S
C1169 C1167 1.419 . S
C1169 C1170 1.362 . S
C1170 H1162 0.930 . S
C1170 C1169 1.362 . S
C1170 C1173 1.409 . S
C1171 H1163 0.930 . S
C1171 C1172 1.355 . S
C1171 C1173 1.415 . S
C1172 C1171 1.355 . S
C1172 C1174 1.419 . S
C1173 C1168 1.425 . S
C1173 C1170 1.409 . S
C1173 C1171 1.415 . S
C1174 H1164 0.930 . S
C1174 C1172 1.419 . S
C1174 C1175 1.362 . S
C1175 H1165 0.930 . S
C1175 C1168 1.409 . S
C1175 C1174 1.362 . S
H1176 C1182 0.930 . S
H1177 C1185 0.930 . S
H1178 C1186 0.930 . S
H1179 C1187 0.930 . S
H1180 C1190 0.930 . S
H1181 C1191 0.930 . S
C1182 H1176 0.930 . S
C1182 C1183 1.355 . S
C1182 C1184 1.415 . S
C1183 C1182 1.355 . S
C1183 C1185 1.419 . S
C1184 C1182 1.415 . S
C1184 C1189 1.425 . S
C1184 C1191 1.409 . S
C1185 H1177 0.930 . S
C1185 C1183 1.419 . S
C1185 C1186 1.362 . S
C1186 H1178 0.930 . S
C1186 C1185 1.362 . S
C1186 C1189 1.409 . S
C1187 H1179 0.930 . S
C1187 C1188 1.355 . S
C1187 C1189 1.415 . S
C1188 C1187 1.355 . S
C1188 C1190 1.419 . S
C1189 C1184 1.425 . S
C1189 C1186 1.409 . S
C1189 C1187 1.415 . S
C1190 H1180 0.930 . S
C1190 C1188 1.419 . S
C1190 C1191 1.362 . S
C1191 H1181 0.930 . S
C1191 C1184 1.409 . S
C1191 C1190 1.362 . S
H1192 C1198 0.930 . S
H1193 C1201 0.930 . S
H1194 C1202 0.930 . S
H1195 C1203 0.930 . S
H1196 C1206 0.930 . S
H1197 C1207 0.930 . S
C1198 H1192 0.930 . S
C1198 C1199 1.355 . S
C1198 C1200 1.415 . S
C1199 C1198 1.355 . S
C1199 C1201 1.419 . S
C1200 C1198 1.415 . S
C1200 C1205 1.425 . S
C1200 C1207 1.409 . S
C1201 H1193 0.930 . S
C1201 C1199 1.419 . S
C1201 C1202 1.362 . S
C1202 H1194 0.930 . S
C1202 C1201 1.362 . S
C1202 C1205 1.409 . S
C1203 H1195 0.930 . S
C1203 C1204 1.355 . S
C1203 C1205 1.415 . S
C1204 C1203 1.355 . S
C1204 C1206 1.419 . S
C1205 C1200 1.425 . S
C1205 C1202 1.409 . S
C1205 C1203 1.415 . S
C1206 H1196 0.930 . S
C1206 C1204 1.419 . S
C1206 C1207 1.362 . S
C1207 H1197 0.930 . S
C1207 C1200 1.409 . S
C1207 C1206 1.362 . S
H1208 C1214 0.930 . S
H1209 C1217 0.930 . S
H1210 C1218 0.930 . S
H1211 C1219 0.930 . S
H1212 C1222 0.930 . S
H1213 C1223 0.930 . S
C1214 H1208 0.930 . S
C1214 C1215 1.355 . S
C1214 C1216 1.415 . S
C1215 C1214 1.355 . S
C1215 C1217 1.419 . S
C1216 C1214 1.415 . S
C1216 C1221 1.425 . S
C1216 C1223 1.409 . S
C1217 H1209 0.930 . S
C1217 C1215 1.419 . S
C1217 C1218 1.362 . S
C1218 H1210 0.930 . S
C1218 C1217 1.362 . S
C1218 C1221 1.409 . S
C1219 H1211 0.930 . S
C1219 C1220 1.355 . S
C1219 C1221 1.415 . S
C1220 C1219 1.355 . S
C1220 C1222 1.419 . S
C1221 C1216 1.425 . S
C1221 C1218 1.409 . S
C1221 C1219 1.415 . S
C1222 H1212 0.930 . S
C1222 C1220 1.419 . S
C1222 C1223 1.362 . S
C1223 H1213 0.930 . S
C1223 C1216 1.409 . S
C1223 C1222 1.362 . S
H1224 C1230 0.930 . S
H1225 C1233 0.930 . S
H1226 C1234 0.930 . S
H1227 C1235 0.930 . S
H1228 C1238 0.930 1_655 S
H1229 C1239 0.930 1_655 S
C1230 H1224 0.930 . S
C1230 C1231 1.355 . S
C1230 C1232 1.415 . S
C1231 C1230 1.355 . S
C1231 C1233 1.419 . S
C1232 C1230 1.415 . S
C1232 C1237 1.425 . S
C1232 C1239 1.409 . S
C1233 H1225 0.930 . S
C1233 C1231 1.419 . S
C1233 C1234 1.362 . S
C1234 H1226 0.930 . S
C1234 C1233 1.362 . S
C1234 C1237 1.409 . S
C1235 H1227 0.930 . S
C1235 C1236 1.355 . S
C1235 C1237 1.415 . S
C1236 C1235 1.355 . S
C1236 C1238 1.419 . S
C1237 C1232 1.425 . S
C1237 C1234 1.409 . S
C1237 C1235 1.415 . S
C1238 H1228 0.930 1_455 S
C1238 C1236 1.419 . S
C1238 C1239 1.362 . S
C1239 H1229 0.930 1_455 S
C1239 C1232 1.409 . S
C1239 C1238 1.362 . S
H1240 C1246 0.930 . S
H1241 C1249 0.930 . S
H1242 C1250 0.930 . S
H1243 C1251 0.930 . S
H1244 C1254 0.930 . S
H1245 C1255 0.930 . S
C1246 H1240 0.930 . S
C1246 C1247 1.355 . S
C1246 C1248 1.415 . S
C1247 C1246 1.355 . S
C1247 C1249 1.419 . S
C1248 C1246 1.415 . S
C1248 C1253 1.425 . S
C1248 C1255 1.409 . S
C1249 H1241 0.930 . S
C1249 C1247 1.419 . S
C1249 C1250 1.362 . S
C1250 H1242 0.930 . S
C1250 C1249 1.362 . S
C1250 C1253 1.409 . S
C1251 H1243 0.930 . S
C1251 C1252 1.355 . S
C1251 C1253 1.415 . S
C1252 C1251 1.355 . S
C1252 C1254 1.419 . S
C1253 C1248 1.425 . S
C1253 C1250 1.409 . S
C1253 C1251 1.415 . S
C1254 H1244 0.930 . S
C1254 C1252 1.419 . S
C1254 C1255 1.362 . S
C1255 H1245 0.930 . S
C1255 C1248 1.409 . S
C1255 C1254 1.362 . S
H1256 C1262 0.930 . S
H1257 C1265 0.930 . S
H1258 C1266 0.930 . S
H1259 C1267 0.930 . S
H1260 C1270 0.918 1_565 S
H1261 C1271 0.930 . S
C1262 H1256 0.930 . S
C1262 C1263 1.355 1_565 S
C1262 C1264 1.415 1_565 S
C1263 C1262 1.355 1_545 S
C1263 C1265 1.419 . S
C1264 C1262 1.415 1_545 S
C1264 C1269 1.425 . S
C1264 C1271 1.409 1_545 S
C1265 H1257 0.930 . S
C1265 C1263 1.419 . S
C1265 C1266 1.362 . S
C1266 H1258 0.930 . S
C1266 C1265 1.362 . S
C1266 C1269 1.409 . S
C1267 H1259 0.930 . S
C1267 C1268 1.355 . S
C1267 C1269 1.415 . S
C1268 C1267 1.355 . S
C1268 C1270 1.419 . S
C1269 C1264 1.425 . S
C1269 C1266 1.409 . S
C1269 C1267 1.415 . S
C1270 H1260 0.918 1_545 S
C1270 C1268 1.419 . S
C1270 C1271 1.362 1_545 S
C1271 H1261 0.930 . S
C1271 C1264 1.409 1_565 S
C1271 C1270 1.362 1_565 S
H1272 C1278 0.930 . S
H1273 C1281 0.930 . S
H1274 C1282 0.930 . S
H1275 C1283 0.930 . S
H1276 C1286 0.930 1_565 S
H1277 C1287 0.930 . S
C1278 H1272 0.930 . S
C1278 C1279 1.355 . S
C1278 C1280 1.415 . S
C1279 C1278 1.355 . S
C1279 C1281 1.419 . S
C1280 C1278 1.415 . S
C1280 C1285 1.425 . S
C1280 C1287 1.409 . S
C1281 H1273 0.930 . S
C1281 C1279 1.419 . S
C1281 C1282 1.362 . S
C1282 H1274 0.930 . S
C1282 C1281 1.362 . S
C1282 C1285 1.409 . S
C1283 H1275 0.930 . S
C1283 C1284 1.355 . S
C1283 C1285 1.415 . S
C1284 C1283 1.355 . S
C1284 C1286 1.419 . S
C1285 C1280 1.425 . S
C1285 C1282 1.409 . S
C1285 C1283 1.415 . S
C1286 H1276 0.930 1_545 S
C1286 C1284 1.419 . S
C1286 C1287 1.362 . S
C1287 H1277 0.930 . S
C1287 C1280 1.409 . S
C1287 C1286 1.362 . S
H1288 C1294 0.930 . S
H1289 C1297 0.930 . S
H1290 C1298 0.930 . S
H1291 C1299 0.930 . S
H1292 C1302 0.930 . S
H1293 C1303 0.930 1_655 S
C1294 H1288 0.930 . S
C1294 C1295 1.355 . S
C1294 C1296 1.415 . S
C1295 C1294 1.355 . S
C1295 C1297 1.419 . S
C1296 C1294 1.415 . S
C1296 C1301 1.425 . S
C1296 C1303 1.409 . S
C1297 H1289 0.930 . S
C1297 C1295 1.419 . S
C1297 C1298 1.362 . S
C1298 H1290 0.930 . S
C1298 C1297 1.362 . S
C1298 C1301 1.409 . S
C1299 H1291 0.930 . S
C1299 C1300 1.355 . S
C1299 C1301 1.415 . S
C1300 C1299 1.355 . S
C1300 C1302 1.419 . S
C1301 C1296 1.425 . S
C1301 C1298 1.409 . S
C1301 C1299 1.415 . S
C1302 H1292 0.930 . S
C1302 C1300 1.419 . S
C1302 C1303 1.362 . S
C1303 H1293 0.930 1_455 S
C1303 C1296 1.409 . S
C1303 C1302 1.362 . S
H1304 C1310 0.930 . S
H1305 C1313 0.930 . S
H1306 C1314 0.930 . S
H1307 C1315 0.930 . S
H1308 C1318 0.930 . S
H1309 C1319 0.930 . S
C1310 H1304 0.930 . S
C1310 C1311 1.355 . S
C1310 C1312 1.415 . S
C1311 C1310 1.355 . S
C1311 C1313 1.419 . S
C1312 C1310 1.415 . S
C1312 C1317 1.425 . S
C1312 C1319 1.409 . S
C1313 H1305 0.930 . S
C1313 C1311 1.419 . S
C1313 C1314 1.362 . S
C1314 H1306 0.930 . S
C1314 C1313 1.362 . S
C1314 C1317 1.409 . S
C1315 H1307 0.930 . S
C1315 C1316 1.355 . S
C1315 C1317 1.415 . S
C1316 C1315 1.355 . S
C1316 C1318 1.419 . S
C1317 C1312 1.425 . S
C1317 C1314 1.409 . S
C1317 C1315 1.415 . S
C1318 H1308 0.930 . S
C1318 C1316 1.419 . S
C1318 C1319 1.362 . S
C1319 H1309 0.930 . S
C1319 C1312 1.409 . S
C1319 C1318 1.362 . S
H1320 C1326 0.930 . S
H1321 C1329 0.930 . S
H1322 C1330 0.930 . S
H1323 C1331 0.930 . S
H1324 C1334 0.930 . S
H1325 C1335 0.930 . S
C1326 H1320 0.930 . S
C1326 C1327 1.355 . S
C1326 C1328 1.415 . S
C1327 C1326 1.355 . S
C1327 C1329 1.419 . S
C1328 C1326 1.415 . S
C1328 C1333 1.425 . S
C1328 C1335 1.409 . S
C1329 H1321 0.930 . S
C1329 C1327 1.419 . S
C1329 C1330 1.362 . S
C1330 H1322 0.930 . S
C1330 C1329 1.362 . S
C1330 C1333 1.409 . S
C1331 H1323 0.930 . S
C1331 C1332 1.355 . S
C1331 C1333 1.415 . S
C1332 C1331 1.355 . S
C1332 C1334 1.419 . S
C1333 C1328 1.425 . S
C1333 C1330 1.409 . S
C1333 C1331 1.415 . S
C1334 H1324 0.930 . S
C1334 C1332 1.419 . S
C1334 C1335 1.362 . S
C1335 H1325 0.930 . S
C1335 C1328 1.409 . S
C1335 C1334 1.362 . S
H1336 C1342 0.930 . S
H1337 C1345 0.930 . S
H1338 C1346 0.930 . S
H1339 C1347 0.930 . S
H1340 C1350 0.930 . S
H1341 C1351 0.930 . S
C1342 H1336 0.930 . S
C1342 C1343 1.355 . S
C1342 C1344 1.415 . S
C1343 C1342 1.355 . S
C1343 C1345 1.419 . S
C1344 C1342 1.415 . S
C1344 C1349 1.425 . S
C1344 C1351 1.409 . S
C1345 H1337 0.930 . S
C1345 C1343 1.419 . S
C1345 C1346 1.362 . S
C1346 H1338 0.930 . S
C1346 C1345 1.362 . S
C1346 C1349 1.409 . S
C1347 H1339 0.930 . S
C1347 C1348 1.355 . S
C1347 C1349 1.415 . S
C1348 C1347 1.355 . S
C1348 C1350 1.419 . S
C1349 C1344 1.425 . S
C1349 C1346 1.409 . S
C1349 C1347 1.415 . S
C1350 H1340 0.930 . S
C1350 C1348 1.419 . S
C1350 C1351 1.362 . S
C1351 H1341 0.930 . S
C1351 C1344 1.409 . S
C1351 C1350 1.362 . S
H1352 C1358 0.930 . S
H1353 C1361 0.930 1_565 S
H1354 C1362 0.930 . S
H1355 C1363 0.930 . S
H1356 C1366 0.930 . S
H1357 C1367 0.930 . S
C1358 H1352 0.930 . S
C1358 C1359 1.355 . S
C1358 C1360 1.415 . S
C1359 C1358 1.355 . S
C1359 C1361 1.419 . S
C1360 C1358 1.415 . S
C1360 C1365 1.425 . S
C1360 C1367 1.409 . S
C1361 H1353 0.930 1_545 S
C1361 C1359 1.419 . S
C1361 C1362 1.362 . S
C1362 H1354 0.930 . S
C1362 C1361 1.362 . S
C1362 C1365 1.409 . S
C1363 H1355 0.930 . S
C1363 C1364 1.355 . S
C1363 C1365 1.415 . S
C1364 C1363 1.355 . S
C1364 C1366 1.419 . S
C1365 C1360 1.425 . S
C1365 C1362 1.409 . S
C1365 C1363 1.415 . S
C1366 H1356 0.930 . S
C1366 C1364 1.419 . S
C1366 C1367 1.362 . S
C1367 H1357 0.930 . S
C1367 C1360 1.409 . S
C1367 C1366 1.362 . S
H1368 C1374 0.930 . S
H1369 C1377 0.930 . S
H1370 C1378 0.930 . S
H1371 C1379 0.930 . S
H1372 C1382 0.930 . S
H1373 C1383 0.930 . S
C1374 H1368 0.930 . S
C1374 C1375 1.355 . S
C1374 C1376 1.415 . S
C1375 C1374 1.355 . S
C1375 C1377 1.419 . S
C1376 C1374 1.415 . S
C1376 C1381 1.425 . S
C1376 C1383 1.409 . S
C1377 H1369 0.930 . S
C1377 C1375 1.419 . S
C1377 C1378 1.362 . S
C1378 H1370 0.930 . S
C1378 C1377 1.362 . S
C1378 C1381 1.409 . S
C1379 H1371 0.930 . S
C1379 C1380 1.355 . S
C1379 C1381 1.415 . S
C1380 C1379 1.355 . S
C1380 C1382 1.419 . S
C1381 C1376 1.425 . S
C1381 C1378 1.409 . S
C1381 C1379 1.415 . S
C1382 H1372 0.930 . S
C1382 C1380 1.419 . S
C1382 C1383 1.362 . S
C1383 H1373 0.930 . S
C1383 C1376 1.409 . S
C1383 C1382 1.362 . S
H1384 C1390 0.930 . S
H1385 C1393 0.930 . S
H1386 C1394 0.930 . S
H1387 C1395 0.930 . S
H1388 C1398 0.930 . S
H1389 C1399 0.930 . S
C1390 H1384 0.930 . S
C1390 C1391 1.355 . S
C1390 C1392 1.415 . S
C1391 C1390 1.355 . S
C1391 C1393 1.419 1_455 S
C1392 C1390 1.415 . S
C1392 C1397 1.425 . S
C1392 C1399 1.409 . S
C1393 H1385 0.930 . S
C1393 C1391 1.419 1_655 S
C1393 C1394 1.362 . S
C1394 H1386 0.930 . S
C1394 C1393 1.362 . S
C1394 C1397 1.409 1_655 S
C1395 H1387 0.930 . S
C1395 C1396 1.355 1_655 S
C1395 C1397 1.415 1_655 S
C1396 C1395 1.355 1_455 S
C1396 C1398 1.419 . S
C1397 C1392 1.425 . S
C1397 C1394 1.409 1_455 S
C1397 C1395 1.415 1_455 S
C1398 H1388 0.930 . S
C1398 C1396 1.419 . S
C1398 C1399 1.362 . S
C1399 H1389 0.930 . S
C1399 C1392 1.409 . S
C1399 C1398 1.362 . S
H1400 C1406 0.930 . S
H1401 C1409 0.930 . S
H1402 C1410 0.930 . S
H1403 C1411 0.930 . S
H1404 C1414 0.930 . S
H1405 C1415 0.930 . S
C1406 H1400 0.930 . S
C1406 C1407 1.355 . S
C1406 C1408 1.415 . S
C1407 C1406 1.355 . S
C1407 C1409 1.419 . S
C1408 C1406 1.415 . S
C1408 C1413 1.425 . S
C1408 C1415 1.409 . S
C1409 H1401 0.930 . S
C1409 C1407 1.419 . S
C1409 C1410 1.362 . S
C1410 H1402 0.930 . S
C1410 C1409 1.362 . S
C1410 C1413 1.409 . S
C1411 H1403 0.930 . S
C1411 C1412 1.355 . S
C1411 C1413 1.415 . S
C1412 C1411 1.355 . S
C1412 C1414 1.419 . S
C1413 C1408 1.425 . S
C1413 C1410 1.409 . S
C1413 C1411 1.415 . S
C1414 H1404 0.930 . S
C1414 C1412 1.419 . S
C1414 C1415 1.362 . S
C1415 H1405 0.930 . S
C1415 C1408 1.409 . S
C1415 C1414 1.362 . S
H1416 C1422 0.930 . S
H1417 C1425 0.930 . S
H1418 C1426 0.930 . S
H1419 C1427 0.930 . S
H1420 C1430 0.930 . S
H1421 C1431 0.930 . S
C1422 H1416 0.930 . S
C1422 C1423 1.355 . S
C1422 C1424 1.415 . S
C1423 C1422 1.355 . S
C1423 C1425 1.419 . S
C1424 C1422 1.415 . S
C1424 C1429 1.425 . S
C1424 C1431 1.409 . S
C1425 H1417 0.930 . S
C1425 C1423 1.419 . S
C1425 C1426 1.362 . S
C1426 H1418 0.930 . S
C1426 C1425 1.362 . S
C1426 C1429 1.409 . S
C1427 H1419 0.930 . S
C1427 C1428 1.355 . S
C1427 C1429 1.415 . S
C1428 C1427 1.355 . S
C1428 C1430 1.419 . S
C1429 C1424 1.425 . S
C1429 C1426 1.409 . S
C1429 C1427 1.415 . S
C1430 H1420 0.930 . S
C1430 C1428 1.419 . S
C1430 C1431 1.362 . S
C1431 H1421 0.930 . S
C1431 C1424 1.409 . S
C1431 C1430 1.362 . S
H1432 C1438 0.930 . S
H1433 C1441 0.930 . S
H1434 C1442 0.930 . S
H1435 C1443 0.930 . S
H1436 C1446 0.930 . S
H1437 C1447 0.930 . S
C1438 H1432 0.930 . S
C1438 C1439 1.355 . S
C1438 C1440 1.415 . S
C1439 C1438 1.355 . S
C1439 C1441 1.419 . S
C1440 C1438 1.415 . S
C1440 C1445 1.425 . S
C1440 C1447 1.409 . S
C1441 H1433 0.930 . S
C1441 C1439 1.419 . S
C1441 C1442 1.362 . S
C1442 H1434 0.930 . S
C1442 C1441 1.362 . S
C1442 C1445 1.409 . S
C1443 H1435 0.930 . S
C1443 C1444 1.355 . S
C1443 C1445 1.415 . S
C1444 C1443 1.355 . S
C1444 C1446 1.419 . S
C1445 C1440 1.425 . S
C1445 C1442 1.409 . S
C1445 C1443 1.415 . S
C1446 H1436 0.930 . S
C1446 C1444 1.419 . S
C1446 C1447 1.362 . S
C1447 H1437 0.930 . S
C1447 C1440 1.409 . S
C1447 C1446 1.362 . S
H1448 C1454 0.930 . S
H1449 C1457 0.930 . S
H1450 C1458 0.930 . S
H1451 C1459 0.930 . S
H1452 C1462 0.930 . S
H1453 C1463 0.930 . S
C1454 H1448 0.930 . S
C1454 C1455 1.355 . S
C1454 C1456 1.415 . S
C1455 C1454 1.355 . S
C1455 C1457 1.419 . S
C1456 C1454 1.415 . S
C1456 C1461 1.425 . S
C1456 C1463 1.409 . S
C1457 H1449 0.930 . S
C1457 C1455 1.419 . S
C1457 C1458 1.362 . S
C1458 H1450 0.930 . S
C1458 C1457 1.362 . S
C1458 C1461 1.409 . S
C1459 H1451 0.930 . S
C1459 C1460 1.355 . S
C1459 C1461 1.415 . S
C1460 C1459 1.355 . S
C1460 C1462 1.419 . S
C1461 C1456 1.425 . S
C1461 C1458 1.409 . S
C1461 C1459 1.415 . S
C1462 H1452 0.930 . S
C1462 C1460 1.419 . S
C1462 C1463 1.362 . S
C1463 H1453 0.930 . S
C1463 C1456 1.409 . S
C1463 C1462 1.362 . S
H1464 C1470 0.930 . S
H1465 C1473 0.930 . S
H1466 C1474 0.930 . S
H1467 C1475 0.930 . S
H1468 C1478 0.930 . S
H1469 C1479 0.930 . S
C1470 H1464 0.930 . S
C1470 C1471 1.355 . S
C1470 C1472 1.415 . S
C1471 C1470 1.355 . S
C1471 C1473 1.419 . S
C1472 C1470 1.415 . S
C1472 C1477 1.425 . S
C1472 C1479 1.409 1_556 S
C1473 H1465 0.930 . S
C1473 C1471 1.419 . S
C1473 C1474 1.362 . S
C1474 H1466 0.930 . S
C1474 C1473 1.362 . S
C1474 C1477 1.409 . S
C1475 H1467 0.930 . S
C1475 C1476 1.355 1_556 S
C1475 C1477 1.415 . S
C1476 C1475 1.355 1_554 S
C1476 C1478 1.419 . S
C1477 C1472 1.425 . S
C1477 C1474 1.409 . S
C1477 C1475 1.415 . S
C1478 H1468 0.930 . S
C1478 C1476 1.419 . S
C1478 C1479 1.362 . S
C1479 H1469 0.930 . S
C1479 C1472 1.409 1_554 S
C1479 C1478 1.362 . S
H1480 C1486 0.930 . S
H1481 C1489 0.930 . S
H1482 C1490 0.930 . S
H1483 C1491 0.930 . S
H1484 C1494 0.930 . S
H1485 C1495 0.930 . S
C1486 H1480 0.930 . S
C1486 C1487 1.355 . S
C1486 C1488 1.415 . S
C1487 C1486 1.355 . S
C1487 C1489 1.419 . S
C1488 C1486 1.415 . S
C1488 C1493 1.425 . S
C1488 C1495 1.409 . S
C1489 H1481 0.930 . S
C1489 C1487 1.419 . S
C1489 C1490 1.362 . S
C1490 H1482 0.930 . S
C1490 C1489 1.362 . S
C1490 C1493 1.409 . S
C1491 H1483 0.930 . S
C1491 C1492 1.355 1_556 S
C1491 C1493 1.415 . S
C1492 C1491 1.355 1_554 S
C1492 C1494 1.419 1_554 S
C1493 C1488 1.425 . S
C1493 C1490 1.409 . S
C1493 C1491 1.415 . S
C1494 H1484 0.930 . S
C1494 C1492 1.419 1_556 S
C1494 C1495 1.362 . S
C1495 H1485 0.930 . S
C1495 C1488 1.409 . S
C1495 C1494 1.362 . S
H1496 C1502 0.930 . S
H1497 C1505 0.930 . S
H1498 C1506 0.930 . S
H1499 C1507 0.930 . S
H1500 C1510 0.930 . S
H1501 C1511 0.930 . S
C1502 H1496 0.930 . S
C1502 C1503 1.355 . S
C1502 C1504 1.415 . S
C1503 C1502 1.355 . S
C1503 C1505 1.419 . S
C1504 C1502 1.415 . S
C1504 C1509 1.425 . S
C1504 C1511 1.409 1_556 S
C1505 H1497 0.930 . S
C1505 C1503 1.419 . S
C1505 C1506 1.362 . S
C1506 H1498 0.930 . S
C1506 C1505 1.362 . S
C1506 C1509 1.409 . S
C1507 H1499 0.930 . S
C1507 C1508 1.355 . S
C1507 C1509 1.415 1_554 S
C1508 C1507 1.355 . S
C1508 C1510 1.419 . S
C1509 C1504 1.425 . S
C1509 C1506 1.409 . S
C1509 C1507 1.415 1_556 S
C1510 H1500 0.930 . S
C1510 C1508 1.419 . S
C1510 C1511 1.362 . S
C1511 H1501 0.930 . S
C1511 C1504 1.409 1_554 S
C1511 C1510 1.362 . S
H1512 C1518 0.930 . S
H1513 C1521 0.930 . S
H1514 C1522 0.930 . S
H1515 C1523 0.930 . S
H1516 C1526 0.930 . S
H1517 C1527 0.930 . S
C1518 H1512 0.930 . S
C1518 C1519 1.355 . S
C1518 C1520 1.415 . S
C1519 C1518 1.355 . S
C1519 C1521 1.419 . S
C1520 C1518 1.415 . S
C1520 C1525 1.425 . S
C1520 C1527 1.409 . S
C1521 H1513 0.930 . S
C1521 C1519 1.419 . S
C1521 C1522 1.362 . S
C1522 H1514 0.930 . S
C1522 C1521 1.362 . S
C1522 C1525 1.409 . S
C1523 H1515 0.930 . S
C1523 C1524 1.355 . S
C1523 C1525 1.415 . S
C1524 C1523 1.355 . S
C1524 C1526 1.419 . S
C1525 C1520 1.425 . S
C1525 C1522 1.409 . S
C1525 C1523 1.415 . S
C1526 H1516 0.930 . S
C1526 C1524 1.419 . S
C1526 C1527 1.362 . S
C1527 H1517 0.930 . S
C1527 C1520 1.409 . S
C1527 C1526 1.362 . S
H1528 C1534 0.930 . S
H1529 C1537 0.930 . S
H1530 C1538 0.930 . S
H1531 C1539 0.930 . S
H1532 C1542 0.930 . S
H1533 C1543 0.930 . S
C1534 H1528 0.930 . S
C1534 C1535 1.355 . S
C1534 C1536 1.415 . S
C1535 C1534 1.355 . S
C1535 C1537 1.419 . S
C1536 C1534 1.415 . S
C1536 C1541 1.425 . S
C1536 C1543 1.409 . S
C1537 H1529 0.930 . S
C1537 C1535 1.419 . S
C1537 C1538 1.362 . S
C1538 H1530 0.930 . S
C1538 C1537 1.362 . S
C1538 C1541 1.409 . S
C1539 H1531 0.930 . S
C1539 C1540 1.355 . S
C1539 C1541 1.415 . S
C1540 C1539 1.355 . S
C1540 C1542 1.419 . S
C1541 C1536 1.425 . S
C1541 C1538 1.409 . S
C1541 C1539 1.415 . S
C1542 H1532 0.930 . S
C1542 C1540 1.419 . S
C1542 C1543 1.362 . S
C1543 H1533 0.930 . S
C1543 C1536 1.409 . S
C1543 C1542 1.362 . S
H1544 C1550 0.930 . S
H1545 C1553 0.930 . S
H1546 C1554 0.930 . S
H1547 C1555 0.930 . S
H1548 C1558 0.930 . S
H1549 C1559 0.930 . S
C1550 H1544 0.930 . S
C1550 C1551 1.355 . S
C1550 C1552 1.415 . S
C1551 C1550 1.355 . S
C1551 C1553 1.419 . S
C1552 C1550 1.415 . S
C1552 C1557 1.425 . S
C1552 C1559 1.409 . S
C1553 H1545 0.930 . S
C1553 C1551 1.419 . S
C1553 C1554 1.362 . S
C1554 H1546 0.930 . S
C1554 C1553 1.362 . S
C1554 C1557 1.409 . S
C1555 H1547 0.930 . S
C1555 C1556 1.355 . S
C1555 C1557 1.415 . S
C1556 C1555 1.355 . S
C1556 C1558 1.419 . S
C1557 C1552 1.425 . S
C1557 C1554 1.409 . S
C1557 C1555 1.415 . S
C1558 H1548 0.930 . S
C1558 C1556 1.419 . S
C1558 C1559 1.362 . S
C1559 H1549 0.930 . S
C1559 C1552 1.409 . S
C1559 C1558 1.362 . S
H1560 C1566 0.930 . S
H1561 C1569 0.930 . S
H1562 C1570 0.930 . S
H1563 C1571 0.930 . S
H1564 C1574 0.930 . S
H1565 C1575 0.930 . S
C1566 H1560 0.930 . S
C1566 C1567 1.355 . S
C1566 C1568 1.415 . S
C1567 C1566 1.355 . S
C1567 C1569 1.419 . S
C1568 C1566 1.415 . S
C1568 C1573 1.425 . S
C1568 C1575 1.409 . S
C1569 H1561 0.930 . S
C1569 C1567 1.419 . S
C1569 C1570 1.362 . S
C1570 H1562 0.930 . S
C1570 C1569 1.362 . S
C1570 C1573 1.409 . S
C1571 H1563 0.930 . S
C1571 C1572 1.355 . S
C1571 C1573 1.415 . S
C1572 C1571 1.355 . S
C1572 C1574 1.419 . S
C1573 C1568 1.425 . S
C1573 C1570 1.409 . S
C1573 C1571 1.415 . S
C1574 H1564 0.930 . S
C1574 C1572 1.419 . S
C1574 C1575 1.362 . S
C1575 H1565 0.930 . S
C1575 C1568 1.409 . S
C1575 C1574 1.362 . S
H1576 C1582 0.930 . S
H1577 C1585 0.930 . S
H1578 C1586 0.930 . S
H1579 C1587 0.930 . S
H1580 C1590 0.930 . S
H1581 C1591 0.930 . S
C1582 H1576 0.930 . S
C1582 C1583 1.355 . S
C1582 C1584 1.415 . S
C1583 C1582 1.355 . S
C1583 C1585 1.419 . S
C1584 C1582 1.415 . S
C1584 C1589 1.425 . S
C1584 C1591 1.409 . S
C1585 H1577 0.930 . S
C1585 C1583 1.419 . S
C1585 C1586 1.362 . S
C1586 H1578 0.930 . S
C1586 C1585 1.362 . S
C1586 C1589 1.409 . S
C1587 H1579 0.930 . S
C1587 C1588 1.355 . S
C1587 C1589 1.415 . S
C1588 C1587 1.355 . S
C1588 C1590 1.419 . S
C1589 C1584 1.425 . S
C1589 C1586 1.409 . S
C1589 C1587 1.415 . S
C1590 H1580 0.930 . S
C1590 C1588 1.419 . S
C1590 C1591 1.362 . S
C1591 H1581 0.930 . S
C1591 C1584 1.409 . S
C1591 C1590 1.362 . S
H1592 C1598 0.930 . S
H1593 C1601 0.930 . S
H1594 C1602 0.930 . S
H1595 C1603 0.930 . S
H1596 C1606 0.930 . S
H1597 C1607 0.930 . S
C1598 H1592 0.930 . S
C1598 C1599 1.355 . S
C1598 C1600 1.415 . S
C1599 C1598 1.355 . S
C1599 C1601 1.419 . S
C1600 C1598 1.415 . S
C1600 C1605 1.425 . S
C1600 C1607 1.409 . S
C1601 H1593 0.930 . S
C1601 C1599 1.419 . S
C1601 C1602 1.362 . S
C1602 H1594 0.930 . S
C1602 C1601 1.362 . S
C1602 C1605 1.409 . S
C1603 H1595 0.930 . S
C1603 C1604 1.355 . S
C1603 C1605 1.415 . S
C1604 C1603 1.355 . S
C1604 C1606 1.419 . S
C1605 C1600 1.425 . S
C1605 C1602 1.409 . S
C1605 C1603 1.415 . S
C1606 H1596 0.930 . S
C1606 C1604 1.419 . S
C1606 C1607 1.362 . S
C1607 H1597 0.930 . S
C1607 C1600 1.409 . S
C1607 C1606 1.362 . S
H1608 C1614 0.930 . S
H1609 C1617 0.930 . S
H1610 C1618 0.930 . S
H1611 C1619 0.930 . S
H1612 C1622 0.930 . S
H1613 C1623 0.930 . S
C1614 H1608 0.930 . S
C1614 C1615 1.355 . S
C1614 C1616 1.415 . S
C1615 C1614 1.355 . S
C1615 C1617 1.419 . S
C1616 C1614 1.415 . S
C1616 C1621 1.425 . S
C1616 C1623 1.409 . S
C1617 H1609 0.930 . S
C1617 C1615 1.419 . S
C1617 C1618 1.362 . S
C1618 H1610 0.930 . S
C1618 C1617 1.362 . S
C1618 C1621 1.409 . S
C1619 H1611 0.930 . S
C1619 C1620 1.355 . S
C1619 C1621 1.415 . S
C1620 C1619 1.355 . S
C1620 C1622 1.419 . S
C1621 C1616 1.425 . S
C1621 C1618 1.409 . S
C1621 C1619 1.415 . S
C1622 H1612 0.930 . S
C1622 C1620 1.419 . S
C1622 C1623 1.362 . S
C1623 H1613 0.930 . S
C1623 C1616 1.409 . S
C1623 C1622 1.362 . S
H1624 C1630 0.930 . S
H1625 C1633 0.930 . S
H1626 C1634 0.930 . S
H1627 C1635 0.930 . S
H1628 C1638 0.930 . S
H1629 C1639 0.930 . S
C1630 H1624 0.930 . S
C1630 C1631 1.355 . S
C1630 C1632 1.415 . S
C1631 C1630 1.355 . S
C1631 C1633 1.419 . S
C1632 C1630 1.415 . S
C1632 C1637 1.425 . S
C1632 C1639 1.409 . S
C1633 H1625 0.930 . S
C1633 C1631 1.419 . S
C1633 C1634 1.362 . S
C1634 H1626 0.930 . S
C1634 C1633 1.362 . S
C1634 C1637 1.409 . S
C1635 H1627 0.930 . S
C1635 C1636 1.355 . S
C1635 C1637 1.415 . S
C1636 C1635 1.355 . S
C1636 C1638 1.419 . S
C1637 C1632 1.425 . S
C1637 C1634 1.409 . S
C1637 C1635 1.415 . S
C1638 H1628 0.930 . S
C1638 C1636 1.419 . S
C1638 C1639 1.362 . S
C1639 H1629 0.930 . S
C1639 C1632 1.409 . S
C1639 C1638 1.362 . S
H1640 C1646 0.930 . S
H1641 C1649 0.930 . S
H1642 C1650 0.930 . S
H1643 C1651 0.930 . S
H1644 C1654 0.930 . S
H1645 C1655 0.930 . S
C1646 H1640 0.930 . S
C1646 C1647 1.355 . S
C1646 C1648 1.415 . S
C1647 C1646 1.355 . S
C1647 C1649 1.419 . S
C1648 C1646 1.415 . S
C1648 C1653 1.425 . S
C1648 C1655 1.409 . S
C1649 H1641 0.930 . S
C1649 C1647 1.419 . S
C1649 C1650 1.362 . S
C1650 H1642 0.930 . S
C1650 C1649 1.362 . S
C1650 C1653 1.409 . S
C1651 H1643 0.930 . S
C1651 C1652 1.355 . S
C1651 C1653 1.415 . S
C1652 C1651 1.355 . S
C1652 C1654 1.419 . S
C1653 C1648 1.425 . S
C1653 C1650 1.409 . S
C1653 C1651 1.415 . S
C1654 H1644 0.930 . S
C1654 C1652 1.419 . S
C1654 C1655 1.362 . S
C1655 H1645 0.930 . S
C1655 C1648 1.409 . S
C1655 C1654 1.362 . S
H1656 C1662 0.930 . S
H1657 C1665 0.930 . S
H1658 C1666 0.930 . S
H1659 C1667 0.930 . S
H1660 C1670 0.930 . S
H1661 C1671 0.930 . S
C1662 H1656 0.930 . S
C1662 C1663 1.355 . S
C1662 C1664 1.415 . S
C1663 C1662 1.355 . S
C1663 C1665 1.419 . S
C1664 C1662 1.415 . S
C1664 C1669 1.425 . S
C1664 C1671 1.409 . S
C1665 H1657 0.930 . S
C1665 C1663 1.419 . S
C1665 C1666 1.362 . S
C1666 H1658 0.930 . S
C1666 C1665 1.362 . S
C1666 C1669 1.409 . S
C1667 H1659 0.930 . S
C1667 C1668 1.355 . S
C1667 C1669 1.415 . S
C1668 C1667 1.355 . S
C1668 C1670 1.419 . S
C1669 C1664 1.425 . S
C1669 C1666 1.409 . S
C1669 C1667 1.415 . S
C1670 H1660 0.930 . S
C1670 C1668 1.419 . S
C1670 C1671 1.362 . S
C1671 H1661 0.930 . S
C1671 C1664 1.409 . S
C1671 C1670 1.362 . S
H1672 C1678 0.930 . S
H1673 C1681 0.930 . S
H1674 C1682 0.930 . S
H1675 C1683 0.930 . S
H1676 C1686 0.930 . S
H1677 C1687 0.930 . S
C1678 H1672 0.930 . S
C1678 C1679 1.355 . S
C1678 C1680 1.415 . S
C1679 C1678 1.355 . S
C1679 C1681 1.419 . S
C1680 C1678 1.415 . S
C1680 C1685 1.425 . S
C1680 C1687 1.409 . S
C1681 H1673 0.930 . S
C1681 C1679 1.419 . S
C1681 C1682 1.362 . S
C1682 H1674 0.930 . S
C1682 C1681 1.362 . S
C1682 C1685 1.409 . S
C1683 H1675 0.930 . S
C1683 C1684 1.355 . S
C1683 C1685 1.415 . S
C1684 C1683 1.355 . S
C1684 C1686 1.419 . S
C1685 C1680 1.425 . S
C1685 C1682 1.409 . S
C1685 C1683 1.415 . S
C1686 H1676 0.930 . S
C1686 C1684 1.419 . S
C1686 C1687 1.362 . S
C1687 H1677 0.930 . S
C1687 C1680 1.409 . S
C1687 C1686 1.362 . S
H1688 C1694 0.930 . S
H1689 C1697 0.930 . S
H1690 C1698 0.930 . S
H1691 C1699 0.930 . S
H1692 C1702 0.930 . S
H1693 C1703 0.930 . S
C1694 H1688 0.930 . S
C1694 C1695 1.355 . S
C1694 C1696 1.415 . S
C1695 C1694 1.355 . S
C1695 C1697 1.419 . S
C1696 C1694 1.415 . S
C1696 C1701 1.425 . S
C1696 C1703 1.409 . S
C1697 H1689 0.930 . S
C1697 C1695 1.419 . S
C1697 C1698 1.362 . S
C1698 H1690 0.930 . S
C1698 C1697 1.362 . S
C1698 C1701 1.409 . S
C1699 H1691 0.930 . S
C1699 C1700 1.355 . S
C1699 C1701 1.415 . S
C1700 C1699 1.355 . S
C1700 C1702 1.419 . S
C1701 C1696 1.425 . S
C1701 C1698 1.409 . S
C1701 C1699 1.415 . S
C1702 H1692 0.930 . S
C1702 C1700 1.419 . S
C1702 C1703 1.362 . S
C1703 H1693 0.930 . S
C1703 C1696 1.409 . S
C1703 C1702 1.362 . S
H1704 C1710 0.930 . S
H1705 C1713 0.930 . S
H1706 C1714 0.930 . S
H1707 C1715 0.930 . S
H1708 C1718 0.930 . S
H1709 C1719 0.930 . S
C1710 H1704 0.930 . S
C1710 C1711 1.355 . S
C1710 C1712 1.415 . S
C1711 C1710 1.355 . S
C1711 C1713 1.419 . S
C1712 C1710 1.415 . S
C1712 C1717 1.425 . S
C1712 C1719 1.409 . S
C1713 H1705 0.930 . S
C1713 C1711 1.419 . S
C1713 C1714 1.362 . S
C1714 H1706 0.930 . S
C1714 C1713 1.362 . S
C1714 C1717 1.409 . S
C1715 H1707 0.930 . S
C1715 C1716 1.355 . S
C1715 C1717 1.415 . S
C1716 C1715 1.355 . S
C1716 C1718 1.419 . S
C1717 C1712 1.425 . S
C1717 C1714 1.409 . S
C1717 C1715 1.415 . S
C1718 H1708 0.930 . S
C1718 C1716 1.419 . S
C1718 C1719 1.362 . S
C1719 H1709 0.930 . S
C1719 C1712 1.409 . S
C1719 C1718 1.362 . S
H1720 C1726 0.930 . S
H1721 C1729 0.930 . S
H1722 C1730 0.930 . S
H1723 C1731 0.930 . S
H1724 C1734 0.930 . S
H1725 C1735 0.930 . S
C1726 H1720 0.930 . S
C1726 C1727 1.355 . S
C1726 C1728 1.415 . S
C1727 C1726 1.355 . S
C1727 C1729 1.419 . S
C1728 C1726 1.415 . S
C1728 C1733 1.425 . S
C1728 C1735 1.409 . S
C1729 H1721 0.930 . S
C1729 C1727 1.419 . S
C1729 C1730 1.362 . S
C1730 H1722 0.930 . S
C1730 C1729 1.362 . S
C1730 C1733 1.409 . S
C1731 H1723 0.930 . S
C1731 C1732 1.355 . S
C1731 C1733 1.415 . S
C1732 C1731 1.355 . S
C1732 C1734 1.419 . S
C1733 C1728 1.425 . S
C1733 C1730 1.409 . S
C1733 C1731 1.415 . S
C1734 H1724 0.930 . S
C1734 C1732 1.419 . S
C1734 C1735 1.362 . S
C1735 H1725 0.930 . S
C1735 C1728 1.409 . S
C1735 C1734 1.362 . S
H1736 C1742 0.930 . S
H1737 C1745 0.930 . S
H1738 C1746 0.930 . S
H1739 C1747 0.930 . S
H1740 C1750 0.930 . S
H1741 C1751 0.930 . S
C1742 H1736 0.930 . S
C1742 C1743 1.355 . S
C1742 C1744 1.415 . S
C1743 C1742 1.355 . S
C1743 C1745 1.419 . S
C1744 C1742 1.415 . S
C1744 C1749 1.425 . S
C1744 C1751 1.409 . S
C1745 H1737 0.930 . S
C1745 C1743 1.419 . S
C1745 C1746 1.362 . S
C1746 H1738 0.930 . S
C1746 C1745 1.362 . S
C1746 C1749 1.409 . S
C1747 H1739 0.930 . S
C1747 C1748 1.355 . S
C1747 C1749 1.415 . S
C1748 C1747 1.355 . S
C1748 C1750 1.419 . S
C1749 C1744 1.425 . S
C1749 C1746 1.409 . S
C1749 C1747 1.415 . S
C1750 H1740 0.930 . S
C1750 C1748 1.419 . S
C1750 C1751 1.362 . S
C1751 H1741 0.930 . S
C1751 C1744 1.409 . S
C1751 C1750 1.362 . S
H1752 C1758 0.930 . S
H1753 C1761 0.930 . S
H1754 C1762 0.930 . S
H1755 C1763 0.930 . S
H1756 C1766 0.930 . S
H1757 C1767 0.930 . S
C1758 H1752 0.930 . S
C1758 C1759 1.355 . S
C1758 C1760 1.415 . S
C1759 C1758 1.355 . S
C1759 C1761 1.419 . S
C1760 C1758 1.415 . S
C1760 C1765 1.425 . S
C1760 C1767 1.409 1_554 S
C1761 H1753 0.930 . S
C1761 C1759 1.419 . S
C1761 C1762 1.362 . S
C1762 H1754 0.930 . S
C1762 C1761 1.362 . S
C1762 C1765 1.409 . S
C1763 H1755 0.930 . S
C1763 C1764 1.355 1_554 S
C1763 C1765 1.415 . S
C1764 C1763 1.355 1_556 S
C1764 C1766 1.419 . S
C1765 C1760 1.425 . S
C1765 C1762 1.409 . S
C1765 C1763 1.415 . S
C1766 H1756 0.930 . S
C1766 C1764 1.419 . S
C1766 C1767 1.362 . S
C1767 H1757 0.930 . S
C1767 C1760 1.409 1_556 S
C1767 C1766 1.362 . S
H1768 C1774 0.930 . S
H1769 C1777 0.930 . S
H1770 C1778 0.930 . S
H1771 C1779 0.930 . S
H1772 C1782 0.930 . S
H1773 C1783 0.930 . S
C1774 H1768 0.930 . S
C1774 C1775 1.355 . S
C1774 C1776 1.415 . S
C1775 C1774 1.355 . S
C1775 C1777 1.419 . S
C1776 C1774 1.415 . S
C1776 C1781 1.425 . S
C1776 C1783 1.409 . S
C1777 H1769 0.930 . S
C1777 C1775 1.419 . S
C1777 C1778 1.362 . S
C1778 H1770 0.930 . S
C1778 C1777 1.362 . S
C1778 C1781 1.409 . S
C1779 H1771 0.930 . S
C1779 C1780 1.355 . S
C1779 C1781 1.415 . S
C1780 C1779 1.355 . S
C1780 C1782 1.419 . S
C1781 C1776 1.425 . S
C1781 C1778 1.409 . S
C1781 C1779 1.415 . S
C1782 H1772 0.930 . S
C1782 C1780 1.419 . S
C1782 C1783 1.362 . S
C1783 H1773 0.930 . S
C1783 C1776 1.409 . S
C1783 C1782 1.362 . S
H1784 C1790 0.930 . S
H1785 C1793 0.930 . S
H1786 C1794 0.930 . S
H1787 C1795 0.930 . S
H1788 C1798 0.930 . S
H1789 C1799 0.930 . S
C1790 H1784 0.930 . S
C1790 C1791 1.355 . S
C1790 C1792 1.415 . S
C1791 C1790 1.355 . S
C1791 C1793 1.419 . S
C1792 C1790 1.415 . S
C1792 C1797 1.425 . S
C1792 C1799 1.409 1_554 S
C1793 H1785 0.930 . S
C1793 C1791 1.419 . S
C1793 C1794 1.362 . S
C1794 H1786 0.930 . S
C1794 C1793 1.362 . S
C1794 C1797 1.409 . S
C1795 H1787 0.930 . S
C1795 C1796 1.355 1_554 S
C1795 C1797 1.415 . S
C1796 C1795 1.355 1_556 S
C1796 C1798 1.419 . S
C1797 C1792 1.425 . S
C1797 C1794 1.409 . S
C1797 C1795 1.415 . S
C1798 H1788 0.930 . S
C1798 C1796 1.419 . S
C1798 C1799 1.362 . S
C1799 H1789 0.930 . S
C1799 C1792 1.409 1_556 S
C1799 C1798 1.362 . S
C655 C7 1.363 . S
C660 C565 1.300 . S
C676 C536 1.686 . S
C671 C39 1.754 . S
C692 C552 1.485 . S
C687 C62 1.537 . S
C703 C76 1.727 . S
C708 C617 1.675 . S
C719 C108 1.358 . S
C724 C627 1.353 . S
C735 N117 1.238 . S
C740 C640 1.227 . S
C756 C596 1.330 1_455 S
C751 C16 1.333 . S
C767 C30 1.818 . S
C772 C575 1.789 . S
C788 C593 1.511 . S
C783 C53 1.490 . S
C799 C85 1.771 . S
C804 C502 1.774 1_545 S
C820 C510 1.552 . S
C815 C99 1.612 . S
C831 N127 1.156 . S
C836 C526 1.159 . S
C847 N150 1.131 . S
C852 C643 1.123 . S
C868 C614 1.508 . S
C863 N173 1.519 . S
C884 C630 1.356 . S
C879 C200 1.407 . S
C895 C214 1.540 . S
C900 C461 1.516 . S
C911 N232 1.437 . S
C916 C471 1.422 . S
C927 C260 1.376 . S
C932 C484 1.316 . S
C948 C440 1.170 . S
C943 N140 1.169 . S
C959 N163 1.213 . S
C964 C419 1.234 . S
C980 C437 1.605 . S
C975 C191 1.598 . S
C996 C580 1.864 . S
C991 C223 1.862 . S
C1012 C588 1.376 . S
C1007 N242 1.305 . S
C1028 C604 1.393 . S
C1023 C269 1.430 . S
C1039 N288 1.240 . S
C1044 C487 1.234 . S
C1055 C315 1.486 . S
C1060 C458 1.431 . S
C1071 C338 1.613 . S
C1076 C474 1.564 . S
C1087 C352 1.714 . S
C1092 C539 1.647 . S
C1108 C549 1.424 . S
C1103 N370 1.464 . S
C1124 C562 1.375 1_655 S
C1119 C398 1.421 . S
C1140 C518 1.204 . S
C1135 N278 1.161 . S
C1151 C306 1.711 . S
C1156 C497 1.643 . S
C1167 C329 1.606 . S
C1172 C515 1.602 1_655 S
C1188 C424 1.520 . S
C1183 C361 1.499 . S
C1199 N380 1.428 . S
C1204 C432 1.425 . S
C1220 C448 1.379 . S
C1215 C407 1.395 . S
C1236 C453 1.390 . S
C1231 N12 1.410 . S
C1247 N25 1.526 . S
C1252 C476 1.553 . S
C1268 C489 1.279 . S
C1263 N48 1.269 1_545 S
C1284 C479 1.305 . S
C1279 N81 1.285 . S
C1300 C463 1.503 . S
C1295 N94 1.506 . S
C1316 C466 1.417 . S
C1311 C131 1.474 . S
C1332 C414 1.334 . S
C1327 N2 1.346 . S
C1343 N35 1.466 . S
C1348 C435 1.441 . S
C1359 N58 1.269 . S
C1364 C445 1.230 . S
C1380 C450 1.258 . S
C1375 N71 1.268 . S
C1396 C422 1.260 . S
C1391 N104 1.314 . S
C1412 C427 1.440 . S
C1407 C122 1.499 . S
C1423 C145 1.988 . S
C1428 C531 1.935 . S
C1439 C168 1.688 . S
C1444 C554 1.705 . S
C1455 N186 1.376 . S
C1460 C567 1.373 . S
C1476 C557 1.192 . S
C1471 N219 1.262 . S
C1492 C541 1.750 . S
C1487 C246 1.752 . S
C1508 C544 1.356 . S
C1503 N265 1.404 . S
C1524 C492 1.803 . S
C1519 C154 1.861 . S
C1535 C177 1.764 . S
C1540 C513 1.734 . S
C1551 N196 1.220 . S
C1556 C523 1.178 . S
C1567 N209 1.033 . S
C1572 C528 1.111 . S
C1583 C237 1.796 . S
C1588 C500 1.722 . S
C1604 C505 1.362 . S
C1599 N255 1.370 . S
C1615 C283 1.708 . S
C1620 C609 1.691 . S
C1631 N301 1.416 . S
C1636 C632 1.419 . S
C1647 N324 1.263 . S
C1652 C645 1.266 . S
C1668 C635 1.132 . S
C1663 N357 1.061 . S
C1684 C619 1.758 . S
C1679 C384 1.754 . S
C1695 N403 1.226 . S
C1700 C622 1.225 . S
C1711 C292 1.810 . S
C1716 C570 1.778 . S
C1732 C591 1.286 . S
C1727 N311 1.342 . S
C1743 N334 1.353 . S
C1748 C601 1.314 . S
C1759 N347 1.305 . S
C1764 C606 1.299 . S
C1780 C578 1.796 1_554 S
C1775 C375 1.857 . S
C1791 N393 1.300 . S
C1796 C583 1.310 . S
