# Generated by pormake.
# Topology zzz, (3,6)-cn, num edge types: 1
# Building blocks:
#     Node 0, Type 0, BuildingBlock: OLANEW_clean_sbu_2, # of connection points: 3
#     Node 1, Type 0, BuildingBlock: OLANEW_clean_sbu_2, # of connection points: 3
#     Node 2, Type 0, BuildingBlock: OLANEW_clean_sbu_2, # of connection points: 3
#     Node 3, Type 0, BuildingBlock: OLANEW_clean_sbu_2, # of connection points: 3
#     Node 4, Type 0, BuildingBlock: OLANEW_clean_sbu_2, # of connection points: 3
#     Node 5, Type 0, BuildingBlock: OLANEW_clean_sbu_2, # of connection points: 3
#     Node 6, Type 0, BuildingBlock: OLANEW_clean_sbu_2, # of connection points: 3
#     Node 7, Type 0, BuildingBlock: OLANEW_clean_sbu_2, # of connection points: 3
#     Node 8, Type 1, BuildingBlock: BETGAK_clean_sbu_0, # of connection points: 6
#     Node 9, Type 1, BuildingBlock: BETGAK_clean_sbu_0, # of connection points: 6
#     Node 10, Type 1, BuildingBlock: BETGAK_clean_sbu_0, # of connection points: 6
#     Node 11, Type 1, BuildingBlock: BETGAK_clean_sbu_0, # of connection points: 6
#     Edge 12, Type (0, 1), BuildingBlock: MIFKUJ_clean_linker_0, # of connection points: 2
#     Edge 13, Type (0, 1), BuildingBlock: MIFKUJ_clean_linker_0, # of connection points: 2
#     Edge 14, Type (0, 1), BuildingBlock: MIFKUJ_clean_linker_0, # of connection points: 2
#     Edge 15, Type (0, 1), BuildingBlock: MIFKUJ_clean_linker_0, # of connection points: 2
#     Edge 16, Type (0, 1), BuildingBlock: MIFKUJ_clean_linker_0, # of connection points: 2
#     Edge 17, Type (0, 1), BuildingBlock: MIFKUJ_clean_linker_0, # of connection points: 2
#     Edge 18, Type (0, 1), BuildingBlock: MIFKUJ_clean_linker_0, # of connection points: 2
#     Edge 19, Type (0, 1), BuildingBlock: MIFKUJ_clean_linker_0, # of connection points: 2
#     Edge 20, Type (0, 1), BuildingBlock: MIFKUJ_clean_linker_0, # of connection points: 2
#     Edge 21, Type (0, 1), BuildingBlock: MIFKUJ_clean_linker_0, # of connection points: 2
#     Edge 22, Type (0, 1), BuildingBlock: MIFKUJ_clean_linker_0, # of connection points: 2
#     Edge 23, Type (0, 1), BuildingBlock: MIFKUJ_clean_linker_0, # of connection points: 2
#     Edge 24, Type (0, 1), BuildingBlock: MIFKUJ_clean_linker_0, # of connection points: 2
#     Edge 25, Type (0, 1), BuildingBlock: MIFKUJ_clean_linker_0, # of connection points: 2
#     Edge 26, Type (0, 1), BuildingBlock: MIFKUJ_clean_linker_0, # of connection points: 2
#     Edge 27, Type (0, 1), BuildingBlock: MIFKUJ_clean_linker_0, # of connection points: 2
#     Edge 28, Type (0, 1), BuildingBlock: MIFKUJ_clean_linker_0, # of connection points: 2
#     Edge 29, Type (0, 1), BuildingBlock: MIFKUJ_clean_linker_0, # of connection points: 2
#     Edge 30, Type (0, 1), BuildingBlock: MIFKUJ_clean_linker_0, # of connection points: 2
#     Edge 31, Type (0, 1), BuildingBlock: MIFKUJ_clean_linker_0, # of connection points: 2
#     Edge 32, Type (0, 1), BuildingBlock: MIFKUJ_clean_linker_0, # of connection points: 2
#     Edge 33, Type (0, 1), BuildingBlock: MIFKUJ_clean_linker_0, # of connection points: 2
#     Edge 34, Type (0, 1), BuildingBlock: MIFKUJ_clean_linker_0, # of connection points: 2
#     Edge 35, Type (0, 1), BuildingBlock: MIFKUJ_clean_linker_0, # of connection points: 2
# Relax obj value: 0.224
# Max RMSD: 0.181
# Mean RMSD: 0.168
data_MOF--net-zzz--node1-OLANEW_clean_sbu_2--node2-BETGAK_clean_sbu_0--edge1-MIFKUJ_clean_linker_0
_symmetry_space_group_name_H-M    P1
_symmetry_Int_Tables_number       1
_symmetry_cell_setting            triclinic
loop_
_symmetry_equiv_pos_as_xyz
'x, y, z'
_cell_length_a     71.916646
_cell_length_b     71.805775
_cell_length_c     19.495648
_cell_angle_alpha  89.841337
_cell_angle_beta   89.847491
_cell_angle_gamma 89.927248
loop_
_atom_site_label
_atom_site_type_symbol
_atom_site_fract_x
_atom_site_fract_y
_atom_site_fract_z
_atom_type_partial_charge
O0 O 0.73878 0.54634 0.17971 0.0
Cd1 Cd 0.71083 0.55926 0.23282 0.0
O2 O 0.73952 0.52554 0.26215 0.0
Cd3 Cd 0.75276 0.50266 0.31757 0.0
O4 O 0.77935 0.49424 0.36 0.0
C5 C 0.78244 0.49161 0.42336 0.0
O6 O 0.76851 0.49187 0.46705 0.0
C7 C 0.74685 0.53273 0.20879 0.0
C8 C 0.67943 0.55117 0.15608 0.0
O9 O 0.68946 0.56548 0.14261 0.0
O10 O 0.68419 0.54072 0.2065 0.0
O11 O 0.97 0.74092 0.18317 0.0
Cd12 Cd 0.95678 0.7147 0.24625 0.0
O13 O 0.99377 0.73945 0.25247 0.0
Cd14 Cd 0.0168 0.75116 0.30988 0.0
O15 O 0.02037 0.77269 0.38632 0.0
C16 C 0.00544 0.77682 0.41785 0.0
O17 O 0.99032 0.76723 0.40456 0.0
C18 C 0.98542 0.74754 0.20321 0.0
C19 C 0.96339 0.68126 0.17954 0.0
O20 O 0.94898 0.69111 0.16582 0.0
O21 O 0.97466 0.68723 0.2253 0.0
O22 O 0.77153 0.98148 0.17462 0.0
Cd23 Cd 0.79942 0.97893 0.24525 0.0
O24 O 0.76266 0.99829 0.2617 0.0
Cd25 Cd 0.74207 0.01209 0.32576 0.0
O26 O 0.71527 0.01678 0.37353 0.0
C27 C 0.71354 0.01841 0.43803 0.0
O28 O 0.72848 0.01821 0.47669 0.0
C29 C 0.75913 0.9914 0.2031 0.0
C30 C 0.83131 0.9848 0.16812 0.0
O31 O 0.82571 0.96825 0.18172 0.0
O32 O 0.82188 0.99856 0.19152 0.0
O33 O 0.53496 0.75733 0.25118 0.0
Cd34 Cd 0.54385 0.78603 0.31002 0.0
O35 O 0.51544 0.75098 0.33407 0.0
Cd36 Cd 0.49502 0.73701 0.40015 0.0
O37 O 0.47672 0.7421 0.49467 0.0
C38 C 0.47674 0.73318 0.55178 0.0
O39 O 0.47627 0.74262 0.49461 0.0
C40 C 0.52277 0.74655 0.27693 0.0
C41 C 0.53697 0.81786 0.23129 0.0
O42 O 0.55239 0.809 0.22619 0.0
O43 O 0.52476 0.81165 0.27351 0.0
O44 O 0.27133 0.53289 0.10606 0.0
Cd45 Cd 0.30194 0.53707 0.05507 0.0
O46 O 0.27193 0.50338 0.07832 0.0
Cd47 Cd 0.25897 0.47663 0.05616 0.0
O48 O 0.23563 0.46537 -0.00041 0.0
C49 C 0.23067 0.4762 0.95136 0.0
O50 O 0.24041 0.49139 0.94029 0.0
C51 C 0.26343 0.51709 0.10545 0.0
C52 C 0.32904 0.52732 0.14951 0.0
O53 O 0.32142 0.54345 0.15023 0.0
O54 O 0.32403 0.51573 0.10325 0.0
O55 O 0.96912 0.27548 0.15905 0.0
Cd56 Cd 0.96269 0.30242 0.08633 0.0
O57 O 0.99334 0.27156 0.09293 0.0
Cd58 Cd 0.01524 0.25511 0.04511 0.0
O59 O 0.02415 0.23216 0.98068 0.0
C60 C 0.01156 0.22575 0.94177 0.0
O61 O 0.99508 0.23366 0.94242 0.0
C62 C 0.98345 0.26608 0.14327 0.0
C63 C 0.97341 0.33482 0.15252 0.0
O64 O 0.95683 0.32846 0.15833 0.0
O65 O 0.98491 0.32596 0.11426 0.0
O66 O 0.24198 0.97816 0.05341 0.0
Cd67 Cd 0.21064 0.9822 0.00796 0.0
O68 O 0.24594 0.0072 0.02345 0.0
Cd69 Cd 0.25946 0.03412 0.00727 0.0
O70 O 0.26237 0.06504 0.98318 0.0
C71 C 0.27487 0.0718 0.94353 0.0
O72 O 0.26186 0.06562 0.98433 0.0
C73 C 0.25234 0.99247 0.0511 0.0
C74 C 0.18485 0.98767 0.11312 0.0
O75 O 0.18715 0.97156 0.08626 0.0
O76 O 0.1947 1.0012 0.09022 0.0
O77 O 0.52396 0.23072 0.14838 0.0
Cd78 Cd 0.52294 0.19976 0.09693 0.0
O79 O 0.50054 0.23587 0.07991 0.0
Cd80 Cd 0.47848 0.25146 0.0284 0.0
O81 O 0.47055 0.27446 0.9617 0.0
C82 C 0.48216 0.27811 0.91431 0.0
O83 O 0.49679 0.26728 0.90723 0.0
C84 C 0.51192 0.24194 0.12455 0.0
C85 C 0.51432 0.17192 0.19112 0.0
O86 O 0.53124 0.17519 0.17416 0.0
O87 O 0.50151 0.18187 0.16378 0.0
La88 La 0.01948 0.99786 0.7287 0.0
La89 La 0.00595 0.00867 0.58681 0.0
C90 C 0.02266 0.98387 0.84706 0.0
C91 C 0.02382 0.96508 0.87775 0.0
C92 C 0.03774 0.95233 0.85873 0.0
C93 C 0.03795 0.93436 0.88671 0.0
C94 C 0.02411 0.92869 0.93344 0.0
C95 C 0.01052 0.94168 0.9537 0.0
C96 C 0.01043 0.95967 0.92631 0.0
C97 C 0.04538 0.00268 0.63477 0.0
C98 C 0.00684 0.96667 0.62062 0.0
C99 C 0.00334 0.02409 0.47125 0.0
C100 C 0.00275 0.0438 0.45068 0.0
C101 C 0.99588 0.05744 0.4957 0.0
C102 C 0.99612 0.07623 0.47679 0.0
C103 C 0.00353 0.08169 0.41313 0.0
C104 C 0.01049 0.06804 0.36836 0.0
C105 C 0.00992 0.04921 0.38687 0.0
C106 C 0.97979 0.00394 0.67929 0.0
C107 C 0.01765 0.03989 0.6956 0.0
O108 O 0.03677 0.98963 0.81013 0.0
O109 O 0.00673 0.98811 0.81879 0.0
O110 O 0.04758 0.00683 0.69892 0.0
O111 O 0.0298 0.99518 0.62668 0.0
O112 O 0.0099 0.97129 0.6854 0.0
O113 O 0.00721 0.97891 0.56987 0.0
O114 O 0.98902 0.01802 0.50631 0.0
O115 O 0.01912 0.01847 0.49743 0.0
O116 O 0.97768 1.00033 0.61466 0.0
O117 O 0.99545 0.01121 0.68869 0.0
O118 O 0.01586 0.03508 0.63045 0.0
O119 O 0.01678 0.02751 0.74574 0.0
H120 H 0.04828 0.95609 0.82143 0.0
H121 H 0.04861 0.92476 0.8699 0.0
H122 H 0.99985 0.93789 0.99044 0.0
H123 H 0.99966 0.96932 0.94225 0.0
H124 H 0.99041 0.05359 0.54558 0.0
H125 H 0.99077 0.08652 0.51227 0.0
H126 H 0.01612 0.07192 0.31875 0.0
H127 H 0.01514 0.03881 0.35164 0.0
La128 La 0.49694 0.00854 0.79785 0.0
La129 La 0.48635 0.98826 0.6679 0.0
C130 C 0.51332 0.01725 0.90674 0.0
C131 C 0.53287 0.01504 0.9281 0.0
C132 C 0.54234 0.03015 0.9568 0.0
C133 C 0.56119 0.02866 0.97338 0.0
C134 C 0.571 0.01192 0.96206 0.0
C135 C 0.56141 0.99688 0.93237 0.0
C136 C 0.54259 0.9984 0.91572 0.0
C137 C 0.48679 0.02991 0.69454 0.0
C138 C 0.52823 0.99565 0.69078 0.0
C139 C 0.47227 0.9785 0.55539 0.0
C140 C 0.45446 0.98023 0.51813 0.0
C141 C 0.4446 0.96408 0.5008 0.0
C142 C 0.42841 0.96521 0.46149 0.0
C143 C 0.42179 0.98253 0.43779 0.0
C144 C 0.43149 0.99873 0.45681 0.0
C145 C 0.44764 0.99761 0.49637 0.0
C146 C 0.49792 0.96718 0.76934 0.0
C147 C 0.45514 0.00279 0.7739 0.0
O148 O 0.51056 0.02893 0.85616 0.0
O149 O 0.50366 1.0019 0.89968 0.0
O150 O 0.48363 0.03394 0.75843 0.0
O151 O 0.49627 0.01525 0.69155 0.0
O152 O 0.52377 0.99973 0.7549 0.0
O153 O 0.51544 0.99244 0.64379 0.0
O154 O 0.47229 0.96796 0.61037 0.0
O155 O 0.48205 0.99371 0.56358 0.0
O156 O 0.50109 0.96356 0.70525 0.0
O157 O 0.48762 0.98128 0.77407 0.0
O158 O 0.45955 0.99801 0.71007 0.0
O159 O 0.46786 0.00561 0.82143 0.0
H160 H 0.5352 0.04324 0.96553 0.0
H161 H 0.56809 0.04078 0.99411 0.0
H162 H 0.5683 0.98376 0.92261 0.0
H163 H 0.53572 0.98657 0.89256 0.0
H164 H 0.44955 0.95051 0.51698 0.0
H165 H 0.42112 0.95243 0.44972 0.0
H166 H 0.42687 0.01229 0.43983 0.0
H167 H 0.45492 0.01037 0.5088 0.0
La168 La 0.50257 0.50677 0.72854 0.0
La169 La 0.51304 0.49818 0.58049 0.0
C170 C 0.50236 0.52004 0.84775 0.0
C171 C 0.5007 0.53923 0.87304 0.0
C172 C 0.49044 0.5526 0.8363 0.0
C173 C 0.48982 0.57107 0.85858 0.0
C174 C 0.49972 0.5765 0.91712 0.0
C175 C 0.51006 0.56314 0.95357 0.0
C176 C 0.51049 0.54461 0.93176 0.0
C177 C 0.47497 0.50545 0.64063 0.0
C178 C 0.51436 0.53974 0.62488 0.0
C179 C 0.5133 0.48567 0.45971 0.0
C180 C 0.51105 0.46715 0.42843 0.0
C181 C 0.52098 0.46279 0.3687 0.0
C182 C 0.51979 0.445 0.3401 0.0
C183 C 0.50871 0.43116 0.37101 0.0
C184 C 0.49854 0.4357 0.43047 0.0
C185 C 0.49965 0.45354 0.45874 0.0
C186 C 0.54073 0.50055 0.66714 0.0
C187 C 0.50127 0.46569 0.68631 0.0
O188 O 0.48761 0.51306 0.8181 0.0
O189 O 0.51758 0.51653 0.8133 0.0
O190 O 0.47336 0.50044 0.7043 0.0
O191 O 0.49087 0.51196 0.63053 0.0
O192 O 0.51241 0.53366 0.68877 0.0
O193 O 0.51281 0.52844 0.57147 0.0
O194 O 0.5283 0.48794 0.49656 0.0
O195 O 0.49858 0.49281 0.48934 0.0
O196 O 0.5418 0.50589 0.60363 0.0
O197 O 0.52509 0.49339 0.67831 0.0
O198 O 0.50191 0.47168 0.62181 0.0
O199 O 0.50433 0.47693 0.73857 0.0
H200 H 0.48308 0.54881 0.78998 0.0
H201 H 0.4819 0.58118 0.8294 0.0
H202 H 0.51776 0.56703 -0.001 0.0
H203 H 0.5187 0.53455 0.96009 0.0
H204 H 0.5298 0.47312 0.34444 0.0
H205 H 0.52757 0.4421 0.29369 0.0
H206 H 0.49004 0.42535 0.45615 0.0
H207 H 0.49177 0.45661 0.50466 0.0
La208 La 1.00132 0.49151 0.7652 0.0
La209 La 0.01322 0.5087 0.62858 0.0
C210 C 0.98555 0.48613 0.8791 0.0
C211 C 0.96612 0.48695 0.90305 0.0
C212 C 0.96015 0.47502 0.95563 0.0
C213 C 0.94172 0.47558 0.97865 0.0
C214 C 0.92886 0.48804 0.94915 0.0
C215 C 0.93486 0.49967 0.89526 0.0
C216 C 0.95333 0.49928 0.87302 0.0
C217 C 0.00906 0.46811 0.66601 0.0
C218 C 0.9709 0.50506 0.65471 0.0
C219 C 0.0281 0.51545 0.51388 0.0
C220 C 0.04652 0.51355 0.48156 0.0
C221 C 0.05048 0.52388 0.42232 0.0
C222 C 0.06808 0.52295 0.39198 0.0
C223 C 0.08215 0.51172 0.42058 0.0
C224 C 0.07797 0.50109 0.47949 0.0
C225 C 0.06031 0.50201 0.5097 0.0
C226 C 0.0049 0.53204 0.72709 0.0
C227 C 0.04321 0.49309 0.73612 0.0
O228 O 0.98944 0.47278 0.83582 0.0
O229 O 0.99307 0.502 0.86084 0.0
O230 O 0.0115 0.46427 0.73046 0.0
O231 O 1.00085 0.48344 0.6605 0.0
O232 O 0.97503 0.50081 0.71914 0.0
O233 O 0.98381 0.507 0.60682 0.0
O234 O 0.02691 0.52761 0.5636 0.0
O235 O 0.01927 0.49996 0.52829 0.0
O236 O 1.00145 0.53523 0.66287 0.0
O237 O 0.01358 0.51695 0.73329 0.0
O238 O 0.03889 0.49678 0.67141 0.0
O239 O 0.03071 0.493 0.78583 0.0
H240 H 0.96978 0.46529 0.97907 0.0
H241 H 0.93754 0.46617 0.01936 0.0
H242 H 0.92546 0.50959 0.87172 0.0
H243 H 0.95762 0.50877 0.8328 0.0
H244 H 0.03997 0.53279 0.39968 0.0
H245 H 0.07063 0.53102 0.34591 0.0
H246 H 0.08843 0.49236 0.50318 0.0
H247 H 0.05749 0.49385 0.55525 0.0
H248 H 0.18397 0.0158 0.20712 0.0
H249 H 0.16095 0.02069 0.29854 0.0
H250 H 0.13149 0.97153 0.2342 0.0
H251 H 0.1547 0.96621 0.14403 0.0
H252 H 0.11044 0.00925 0.253 0.0
H253 H 0.15204 0.96423 0.36206 0.0
H254 H 0.18285 0.9536 0.4013 0.0
H255 H 0.18825 0.0026 0.52539 0.0
H256 H 0.15756 0.01365 0.486 0.0
H257 H 0.0443 0.98782 0.50697 0.0
H258 H 0.06832 0.98904 0.41858 0.0
H259 H 0.10272 0.02235 0.55147 0.0
H260 H 0.07868 0.02085 0.64092 0.0
H261 H 0.12282 0.99636 0.49878 0.0
H262 H 0.08196 0.04097 0.40455 0.0
H263 H 0.05391 0.05637 0.35909 0.0
H264 H 0.04861 0.01386 0.20599 0.0
H265 H 0.07648 0.99804 0.25103 0.0
C266 C 0.17262 0.00601 0.21264 0.0
C267 C 0.17111 0.99062 0.16853 0.0
C268 C 0.15954 0.0088 0.26485 0.0
C269 C 0.14462 0.99645 0.27286 0.0
C270 C 0.14298 0.98118 0.22864 0.0
C271 C 0.15625 0.97814 0.17741 0.0
C272 C 0.13045 0.99961 0.32656 0.0
C273 C 0.11295 0.00624 0.30675 0.0
C274 C 0.13423 0.99655 0.39669 0.0
C275 C 0.15263 0.98988 0.42039 0.0
C276 C 0.15989 0.97283 0.39709 0.0
C277 C 0.17731 0.96671 0.41951 0.0
C278 C 0.18754 0.97745 0.46562 0.0
C279 C 0.18034 0.99431 0.48956 0.0
C280 C 0.16293 1.00051 0.46724 0.0
C281 C 0.05689 0.99559 0.51706 0.0
C282 C 0.05965 0.00428 0.58066 0.0
C283 C 0.07059 0.99638 0.46629 0.0
C284 C 0.08727 0.00601 0.47783 0.0
C285 C 0.08996 0.01488 0.54126 0.0
C286 C 0.07625 0.01402 0.59229 0.0
C287 C 0.10232 0.0056 0.42542 0.0
C288 C 0.12011 0.99952 0.44528 0.0
C289 C 0.09891 0.00961 0.35533 0.0
C290 C 0.08129 0.01825 0.33148 0.0
C291 C 0.07466 0.03473 0.36187 0.0
C292 C 0.05884 0.04359 0.33593 0.0
C293 C 0.04956 0.03615 0.27943 0.0
C294 C 0.05587 0.01965 0.24955 0.0
C295 C 0.07167 0.01073 0.27527 0.0
H296 H 0.0375 0.04318 0.25865 0.0
H297 H 0.20102 0.97268 0.48294 0.0
H298 H 0.48285 0.16859 0.26852 0.0
H299 H 0.4754 0.14402 0.35178 0.0
H300 H 0.52752 0.11687 0.30706 0.0
H301 H 0.53534 0.14165 0.22514 0.0
H302 H 0.4916 0.09364 0.30808 0.0
H303 H 0.52908 0.13686 0.4404 0.0
H304 H 0.53674 0.16808 0.4844 0.0
H305 H 0.48307 0.17165 0.58059 0.0
H306 H 0.47499 0.14053 0.53622 0.0
H307 H 0.50437 0.0281 0.57157 0.0
H308 H 0.50534 0.05178 0.48231 0.0
H309 H 0.46645 0.08542 0.59726 0.0
H310 H 0.46621 0.06193 0.68893 0.0
H311 H 0.49276 0.10632 0.55811 0.0
H312 H 0.45433 0.06444 0.43196 0.0
H313 H 0.44372 0.03487 0.38191 0.0
H314 H 0.49544 0.02926 0.27352 0.0
H315 H 0.5062 0.05912 0.32161 0.0
C316 C 0.49271 0.15738 0.27643 0.0
C317 C 0.5097 0.15703 0.24061 0.0
C318 C 0.48844 0.14341 0.32391 0.0
C319 C 0.50093 0.12872 0.33524 0.0
C320 C 0.51773 0.12813 0.29871 0.0
C321 C 0.5222 0.14231 0.25232 0.0
C322 C 0.49659 0.1141 0.38617 0.0
C323 C 0.49199 0.09628 0.36284 0.0
C324 C 0.49646 0.11787 0.45718 0.0
C325 C 0.50135 0.13649 0.48431 0.0
C326 C 0.51884 0.14438 0.47035 0.0
C327 C 0.52328 0.16204 0.49548 0.0
C328 C 0.51038 0.17187 0.53508 0.0
C329 C 0.49304 0.16403 0.54981 0.0
C330 C 0.48853 0.14639 0.52472 0.0
C331 C 0.49579 0.04041 0.57739 0.0
C332 C 0.48528 0.04325 0.63725 0.0
C333 C 0.49622 0.05392 0.5259 0.0
C334 C 0.48576 0.07036 0.53224 0.0
C335 C 0.47466 0.07288 0.59106 0.0
C336 C 0.47449 0.05946 0.64332 0.0
C337 C 0.48783 0.08551 0.48052 0.0
C338 C 0.49209 0.10355 0.50351 0.0
C339 C 0.48732 0.082 0.40902 0.0
C340 C 0.48113 0.0639 0.38091 0.0
C341 C 0.46349 0.05683 0.39786 0.0
C342 C 0.45743 0.04003 0.36973 0.0
C343 C 0.46897 0.03004 0.32527 0.0
C344 C 0.48653 0.03697 0.30817 0.0
C345 C 0.49257 0.0539 0.33545 0.0
H346 H 0.46424 0.017 0.30377 0.0
H347 H 0.51384 0.18554 0.5545 0.0
H348 H 0.3335 0.54224 0.2761 0.0
H349 H 0.35799 0.5355 0.35884 0.0
H350 H 0.3817 0.49509 0.22016 0.0
H351 H 0.35653 0.50115 0.13842 0.0
H352 H 0.38584 0.48298 0.3447 0.0
H353 H 0.39919 0.53994 0.23098 0.0
H354 H 0.39344 0.57155 0.18608 0.0
H355 H 0.38476 0.59165 0.39092 0.0
H356 H 0.39021 0.56008 0.43701 0.0
H357 H 0.47602 0.52219 0.51639 0.0
H358 H 0.45186 0.52282 0.42924 0.0
H359 H 0.41582 0.49082 0.56198 0.0
H360 H 0.44046 0.48956 0.64901 0.0
H361 H 0.41972 0.53814 0.43229 0.0
H362 H 0.38675 0.46419 0.46169 0.0
H363 H 0.39696 0.43236 0.49137 0.0
H364 H 0.45265 0.44557 0.42801 0.0
H365 H 0.44272 0.47734 0.39684 0.0
C366 C 0.34386 0.53183 0.26347 0.0
C367 C 0.3433 0.5224 0.20056 0.0
C368 C 0.35787 0.528 0.31069 0.0
C369 C 0.37196 0.51512 0.29501 0.0
C370 C 0.37103 0.50514 0.23325 0.0
C371 C 0.35671 0.50867 0.18651 0.0
C372 C 0.38809 0.51292 0.34159 0.0
C373 C 0.39325 0.49502 0.36393 0.0
C374 C 0.39822 0.52857 0.36479 0.0
C375 C 0.39494 0.54761 0.33738 0.0
C376 C 0.39593 0.55107 0.26641 0.0
C377 C 0.39274 0.56899 0.24076 0.0
C378 C 0.38869 0.58359 0.28561 0.0
C379 C 0.38787 0.58032 0.35624 0.0
C380 C 0.39102 0.56242 0.38217 0.0
C381 C 0.46305 0.51504 0.52669 0.0
C382 C 0.46012 0.50566 0.58903 0.0
C383 C 0.44922 0.51552 0.477 0.0
C384 C 0.43209 0.50678 0.48888 0.0
C385 C 0.42906 0.49742 0.55137 0.0
C386 C 0.44303 0.49682 0.60115 0.0
C387 C 0.41722 0.50826 0.43677 0.0
C388 C 0.41231 0.52606 0.41326 0.0
C389 C 0.40799 0.49246 0.41021 0.0
C390 C 0.414 0.47323 0.42769 0.0
C391 C 0.40115 0.46028 0.4538 0.0
C392 C 0.4069 0.44224 0.4709 0.0
C393 C 0.42545 0.43696 0.46181 0.0
C394 C 0.43829 0.44969 0.43528 0.0
C395 C 0.43261 0.46772 0.41796 0.0
H396 H 0.42987 0.42301 0.47519 0.0
H397 H 0.38623 0.59746 0.26564 0.0
H398 H 0.95214 0.35619 0.23725 0.0
H399 H 0.96224 0.38188 0.30924 0.0
H400 H 0.01792 0.37692 0.22823 0.0
H401 H 0.00794 0.35085 0.15643 0.0
H402 H 0.01855 0.37844 0.36382 0.0
H403 H 0.99146 0.41514 0.1891 0.0
H404 H 0.96821 0.42557 0.10456 0.0
H405 H 0.92905 0.43598 0.2666 0.0
H406 H 0.95196 0.42538 0.35213 0.0
H407 H 0.03772 0.45732 0.58443 0.0
H408 H 0.03571 0.4371 0.48284 0.0
H409 H 0.97723 0.42867 0.52306 0.0
H410 H 0.97925 0.44906 0.62319 0.0
H411 H 0.98366 0.43763 0.39046 0.0
H412 H 0.01027 0.39518 0.56094 0.0
H413 H 0.03442 0.38567 0.64363 0.0
H414 H 0.07567 0.38744 0.48407 0.0
H415 H 0.05177 0.39717 0.4006 0.0
C416 C 0.96649 0.36068 0.23401 0.0
C417 C 0.97925 0.35145 0.1913 0.0
C418 C 0.97223 0.37547 0.27489 0.0
C419 C 0.99079 0.38147 0.2735 0.0
C420 C 0.00351 0.37255 0.22983 0.0
C421 C 0.99778 0.35769 0.18883 0.0
C422 C 0.997 0.39602 0.322 0.0
C423 C 0.01121 0.39159 0.36861 0.0
C424 C 0.98741 0.41314 0.32839 0.0
C425 C 0.97344 0.41936 0.27708 0.0
C426 C 0.97784 0.4195 0.20672 0.0
C427 C 0.96473 0.42548 0.1586 0.0
C428 C 0.94716 0.43141 0.18018 0.0
C429 C 0.94267 0.43138 0.24995 0.0
C430 C 0.95573 0.42542 0.29829 0.0
C431 C 0.0246 0.45078 0.57186 0.0
C432 C 0.0087 0.45426 0.61151 0.0
C433 C 0.02342 0.43937 0.51397 0.0
C434 C 0.00632 0.43135 0.49565 0.0
C435 C 0.99053 0.43476 0.53621 0.0
C436 C 0.9917 0.44619 0.59357 0.0
C437 C 0.0045 0.41959 0.43387 0.0
C438 C 0.99121 0.42463 0.38463 0.0
C439 C 0.01502 0.40313 0.42473 0.0
C440 C 0.0293 0.39709 0.47477 0.0
C441 C 0.02452 0.39365 0.54363 0.0
C442 C 0.03815 0.38821 0.5906 0.0
C443 C 0.05658 0.38601 0.56916 0.0
C444 C 0.0614 0.38918 0.50063 0.0
C445 C 0.04782 0.39465 0.45347 0.0
H446 H 0.06712 0.38181 0.60561 0.0
H447 H 0.93704 0.43606 0.14285 0.0
H448 H 0.83967 0.01577 0.09331 0.0
H449 H 0.86547 0.01984 0.01283 0.0
H450 H 0.88643 0.9654 0.06715 0.0
H451 H 0.86008 0.96089 0.14485 0.0
H452 H 0.90073 0.02178 0.01646 0.0
H453 H 0.90592 0.94426 0.93361 0.0
H454 H 0.88555 0.91677 0.92344 0.0
H455 H 0.83795 0.95243 0.90158 0.0
H456 H 0.85806 0.98011 0.9107 0.0
H457 H 0.98178 0.01305 0.81486 0.0
H458 H 0.95751 0.00962 0.90152 0.0
H459 H 0.91916 0.99157 0.74502 0.0
H460 H 0.94408 0.99293 0.65994 0.0
H461 H 0.91285 0.97209 0.84583 0.0
H462 H 0.92027 0.03804 0.82268 0.0
H463 H 0.93735 0.06781 0.82039 0.0
H464 H 0.95339 0.05987 0.03045 0.0
H465 H 0.9366 0.02993 0.03373 0.0
C466 C 0.84984 0.00471 0.08821 0.0
C467 C 0.84778 0.98792 0.1245 0.0
C468 C 0.86461 0.00707 0.04239 0.0
C469 C 0.87771 0.99279 0.03285 0.0
C470 C 0.87621 0.97642 0.07212 0.0
C471 C 0.86121 0.97387 0.11672 0.0
C472 C 0.89247 0.99474 0.97998 0.0
C473 C 0.90338 0.01094 0.97905 0.0
C474 C 0.89565 0.98081 0.93003 0.0
C475 C 0.88348 0.96424 0.92358 0.0
C476 C 0.89112 0.94622 0.92637 0.0
C477 C 0.87962 0.93061 0.92083 0.0
C478 C 0.86046 0.93286 0.91211 0.0
C479 C 0.85278 0.95071 0.9086 0.0
C480 C 0.86422 0.96636 0.914 0.0
C481 C 0.9683 0.0079 0.7994 0.0
C482 C 0.96492 0.00281 0.73113 0.0
C483 C 0.95428 0.00633 0.84873 0.0
C484 C 0.93631 1.00062 0.82994 0.0
C485 C 0.93288 0.9959 0.76118 0.0
C486 C 0.9471 0.99679 0.71242 0.0
C487 C 0.92116 0.99922 0.88177 0.0
C488 C 0.91022 0.98303 0.88289 0.0
C489 C 0.9174 0.01355 0.92977 0.0
C490 C 0.92731 0.03167 0.92824 0.0
C491 C 0.92752 0.0426 0.86827 0.0
C492 C 0.93715 0.0595 0.86681 0.0
C493 C 0.94649 0.0657 0.92518 0.0
C494 C 0.94617 0.05504 0.98525 0.0
C495 C 0.93658 0.03812 0.98696 0.0
H496 H 0.95396 0.07878 0.92391 0.0
H497 H 0.85158 0.92076 0.90792 0.0
H498 H 0.50709 0.84142 0.23864 0.0
H499 H 0.50121 0.86923 0.16938 0.0
H500 H 0.55263 0.86021 0.05981 0.0
H501 H 0.55882 0.83264 0.12997 0.0
H502 H 0.54877 0.89598 0.08886 0.0
H503 H 0.50996 0.84869 0.99039 0.0
H504 H 0.48598 0.82418 0.98968 0.0
H505 H 0.4452 0.86351 0.06007 0.0
H506 H 0.46901 0.88821 0.06208 0.0
H507 H 0.52655 0.94254 0.77108 0.0
H508 H 0.53466 0.92064 0.86305 0.0
H509 H 0.49042 0.94282 0.98837 0.0
H510 H 0.4826 0.96515 0.89718 0.0
H511 H 0.48994 0.90237 0.9586 0.0
H512 H 0.52878 0.94981 0.05356 0.0
H513 H 0.55318 0.97384 0.05894 0.0
H514 H 0.59387 0.93412 0.99091 0.0
H515 H 0.5697 0.90977 0.98567 0.0
C516 C 0.51716 0.84535 0.19983 0.0
C517 C 0.53339 0.83476 0.1896 0.0
C518 C 0.51375 0.86123 0.16011 0.0
C519 C 0.52637 0.86669 0.10876 0.0
C520 C 0.54269 0.85628 0.0991 0.0
C521 C 0.54618 0.84047 0.1391 0.0
C522 C 0.52252 0.88315 0.06464 0.0
C523 C 0.53599 0.89726 0.05979 0.0
C524 C 0.50564 0.8851 0.02803 0.0
C525 C 0.49132 0.87025 0.02717 0.0
C526 C 0.49592 0.85207 0.00631 0.0
C527 C 0.48235 0.83815 0.00556 0.0
C528 C 0.46409 0.84227 0.02503 0.0
C529 C 0.45935 0.86033 0.04514 0.0
C530 C 0.47288 0.8743 0.04606 0.0
C531 C 0.51877 0.94292 0.81872 0.0
C532 C 0.50386 0.95535 0.82706 0.0
C533 C 0.52348 0.93052 0.87125 0.0
C534 C 0.51315 0.93018 0.93237 0.0
C535 C 0.4986 0.94297 0.94161 0.0
C536 C 0.49414 0.95566 0.88961 0.0
C537 C 0.51622 0.91504 0.98267 0.0
C538 C 0.50264 0.90112 0.98822 0.0
C539 C 0.53303 0.91322 0.01939 0.0
C540 C 0.5474 0.92801 0.01866 0.0
C541 C 0.54288 0.94624 0.03897 0.0
C542 C 0.5567 0.95989 0.0425 0.0
C543 C 0.57507 0.9555 0.02533 0.0
C544 C 0.57964 0.93748 0.00434 0.0
C545 C 0.5659 0.92374 0.00134 0.0
H546 H 0.58575 0.96607 0.02829 0.0
H547 H 0.4536 0.83148 0.02437 0.0
H548 H 0.6516 0.52633 0.18419 0.0
H549 H 0.62547 0.51795 0.11036 0.0
H550 H 0.6449 0.55678 0.95678 0.0
H551 H 0.67055 0.56572 0.03127 0.0
H552 H 0.60876 0.55854 0.96471 0.0
H553 H 0.65391 0.50831 0.95091 0.0
H554 H 0.67366 0.48325 -0.00208 0.0
H555 H 0.62533 0.45569 0.07855 0.0
H556 H 0.60532 0.48072 0.03269 0.0
H557 H 0.56981 0.52458 0.65845 0.0
H558 H 0.59142 0.53307 0.74999 0.0
H559 H 0.56386 0.49476 0.88756 0.0
H560 H 0.54252 0.4859 0.79554 0.0
H561 H 0.60097 0.49237 0.8983 0.0
H562 H 0.55546 0.54105 0.89414 0.0
H563 H 0.5365 0.56576 0.84078 0.0
H564 H 0.58586 0.59651 0.79123 0.0
H565 H 0.60519 0.57176 0.84184 0.0
C566 C 0.65021 0.53315 0.13484 0.0
C567 C 0.66318 0.54659 0.11327 0.0
C568 C 0.63532 0.52831 0.09262 0.0
C569 C 0.6334 0.53651 0.02751 0.0
C570 C 0.64609 0.55027 0.00677 0.0
C571 C 0.66079 0.55531 0.04932 0.0
C572 C 0.6186 0.53047 0.97966 0.0
C573 C 0.60714 0.54409 0.94978 0.0
C574 C 0.61612 0.51154 0.96167 0.0
C575 C 0.62815 0.49649 0.98907 0.0
C576 C 0.64752 0.49697 0.97909 0.0
C577 C 0.65875 0.48277 0.00545 0.0
C578 C 0.65076 0.46792 0.04138 0.0
C579 C 0.63151 0.46722 0.05084 0.0
C580 C 0.62021 0.4814 0.02465 0.0
C581 C 0.5685 0.51788 0.70808 0.0
C582 C 0.55445 0.50476 0.72047 0.0
C583 C 0.58072 0.52284 0.76041 0.0
C584 C 0.57897 0.51481 0.82589 0.0
C585 C 0.56532 0.50122 0.83755 0.0
C586 C 0.55315 0.49621 0.78514 0.0
C587 C 0.59153 0.5205 0.88198 0.0
C588 C 0.60247 0.5068 0.91368 0.0
C589 C 0.59357 0.53938 0.90127 0.0
C590 C 0.58183 0.55443 0.87147 0.0
C591 C 0.56231 0.553 0.87135 0.0
C592 C 0.55147 0.56703 0.84157 0.0
C593 C 0.55993 0.58269 0.81264 0.0
C594 C 0.57928 0.58436 0.81342 0.0
C595 C 0.5902 0.57032 0.84259 0.0
H596 H 0.5515 0.59353 0.78972 0.0
H597 H 0.65948 0.45693 0.06174 0.0
H598 H 0.99073 0.65564 0.20476 0.0
H599 H 0.99726 0.62712 0.1407 0.0
H600 H 0.95116 0.63894 0.00612 0.0
H601 H 0.94427 0.66717 0.07084 0.0
H602 H 0.9519 0.603 0.03839 0.0
H603 H 0.9967 0.64867 0.96064 0.0
H604 H 0.02193 0.67156 0.97478 0.0
H605 H 0.05701 0.62919 0.06124 0.0
H606 H 0.03188 0.60609 0.04842 0.0
H607 H 0.9775 0.55803 0.72715 0.0
H608 H 0.96929 0.57947 0.82006 0.0
H609 H 0.01183 0.55507 0.94755 0.0
H610 H 0.01985 0.53333 0.85503 0.0
H611 H 0.01398 0.59443 0.93142 0.0
H612 H 0.97014 0.54865 0.00624 0.0
H613 H 0.94461 0.52588 0.00014 0.0
H614 H 0.90829 0.56794 0.91868 0.0
H615 H 0.93355 0.59108 0.92567 0.0
C616 C 0.98194 0.65212 0.1617 0.0
C617 C 0.96705 0.66371 0.14257 0.0
C618 C 0.98572 0.63585 0.12505 0.0
C619 C 0.97484 0.63105 0.06809 0.0
C620 C 0.95973 0.64239 0.04991 0.0
C621 C 0.95585 0.65855 0.08681 0.0
C622 C 0.97939 0.61448 0.0261 0.0
C623 C 0.96543 0.60121 0.01454 0.0
C624 C 0.99722 0.61184 -0.00325 0.0
C625 C 0.01234 0.62571 0.00431 0.0
C626 C 0.00974 0.64427 0.98316 0.0
C627 C 0.02403 0.65728 0.99085 0.0
C628 C 0.04104 0.65185 0.01909 0.0
C629 C 0.04382 0.63338 0.03951 0.0
C630 C 0.02956 0.62033 0.03201 0.0
C631 C 0.98494 0.55715 0.7753 0.0
C632 C 0.99934 0.54418 0.78413 0.0
C633 C 0.98016 0.56926 0.82839 0.0
C634 C 0.98989 0.56873 0.89065 0.0
C635 C 0.0041 0.55557 0.89995 0.0
C636 C 0.00867 0.54323 0.84722 0.0
C637 C 0.9864 0.5832 0.94285 0.0
C638 C 1.00054 0.59611 0.95605 0.0
C639 C 0.96875 0.58554 0.97353 0.0
C640 C 0.95378 0.57153 0.96578 0.0
C641 C 0.95677 0.55299 0.98624 0.0
C642 C 0.94231 0.54003 0.9829 0.0
C643 C 0.92487 0.54539 0.95824 0.0
C644 C 0.92183 0.56377 0.93735 0.0
C645 C 0.93617 0.57684 0.94142 0.0
H646 H 0.91367 0.53535 0.95591 0.0
H647 H 0.05209 0.66193 0.02499 0.0
H648 H 0.95885 0.24274 0.20578 0.0
H649 H 0.96536 0.21306 0.26257 0.0
H650 H 0.02394 0.22016 0.22194 0.0
H651 H 0.01749 0.25 0.16587 0.0
H652 H 0.01328 0.1863 0.18723 0.0
H653 H 0.00668 0.22425 0.38389 0.0
H654 H 0.99249 0.24704 0.46259 0.0
H655 H 0.94532 0.21119 0.49049 0.0
H656 H 0.95908 0.1883 0.41105 0.0
H657 H 0.0331 0.10247 0.37018 0.0
H658 H 0.03307 0.13533 0.33565 0.0
H659 H 0.97394 0.1381 0.37349 0.0
H660 H 0.97421 0.1056 0.41138 0.0
H661 H 0.98911 0.16844 0.41662 0.0
H662 H 0.99617 0.13204 0.2046 0.0
H663 H 0.01271 0.1097 0.13009 0.0
H664 H 0.06171 0.14377 0.1367 0.0
H665 H 0.04552 0.16618 0.21172 0.0
C666 C 0.97313 0.23803 0.20934 0.0
C667 C 0.98761 0.24846 0.17975 0.0
C668 C 0.97685 0.2211 0.24211 0.0
C669 C 0.99516 0.21439 0.24678 0.0
C670 C 0.00969 0.22499 0.21851 0.0
C671 C 0.00597 0.24193 0.1857 0.0
C672 C 0.99894 0.19583 0.27771 0.0
C673 C 0.00822 0.18249 0.23785 0.0
C674 C 0.99231 0.1908 0.34364 0.0
C675 C 0.98384 0.20464 0.39082 0.0
C676 C 0.99318 0.22131 0.40616 0.0
C677 C 0.98523 0.23423 0.45104 0.0
C678 C 0.96798 0.23059 0.48132 0.0
C679 C 0.95866 0.21401 0.46687 0.0
C680 C 0.96654 0.20105 0.42193 0.0
C681 C 0.02015 0.11019 0.37114 0.0
C682 C 0.00364 0.10156 0.39293 0.0
C683 C 0.02011 0.12891 0.35115 0.0
C684 C 0.00342 0.13916 0.35045 0.0
C685 C 0.98699 0.13055 0.3734 0.0
C686 C 0.98712 0.11197 0.39486 0.0
C687 C 0.0028 0.15872 0.32501 0.0
C688 C 0.99419 0.17229 0.36608 0.0
C689 C 0.01022 0.16403 0.26042 0.0
C690 C 0.01971 0.15066 0.21431 0.0
C691 C 0.01049 0.13471 0.19034 0.0
C692 C 0.0198 0.12204 0.14801 0.0
C693 C 0.03828 0.12529 0.12899 0.0
C694 C 0.04742 0.14126 0.15167 0.0
C695 C 0.03819 0.15394 0.194 0.0
H696 H 0.04557 0.11545 0.09679 0.0
H697 H 0.96186 0.2406 0.51616 0.0
H698 H 0.2743 0.96198 0.06821 0.0
H699 H 0.30444 0.96019 0.12522 0.0
H700 H 0.30271 0.01938 0.16226 0.0
H701 H 0.27254 0.02119 0.10594 0.0
H702 H 0.33678 0.0096 0.1286 0.0
H703 H 0.29098 0.98726 0.2877 0.0
H704 H 0.26496 0.96767 0.3277 0.0
H705 H 0.2982 0.91858 0.2989 0.0
H706 H 0.32435 0.93788 0.25783 0.0
H707 H 0.39507 0.0101 0.43187 0.0
H708 H 0.36831 0.01199 0.35526 0.0
H709 H 0.38316 0.95917 0.26634 0.0
H710 H 0.41066 0.95759 0.33919 0.0
H711 H 0.34364 0.96512 0.32224 0.0
H712 H 0.39037 0.98978 0.16858 0.0
H713 H 0.41566 0.01101 0.13415 0.0
H714 H 0.37949 0.05802 0.16205 0.0
H715 H 0.35405 0.03707 0.19773 0.0
C716 C 0.28041 0.97464 0.08808 0.0
C717 C 0.27116 0.99179 0.08138 0.0
C718 C 0.29761 0.97359 0.12085 0.0
C719 C 0.30577 0.98962 0.14871 0.0
C720 C 0.29677 0.00684 0.14068 0.0
C721 C 0.27957 0.0079 0.1077 0.0
C722 C 0.32325 0.98832 0.18883 0.0
C723 C 0.33819 1.0 0.17137 0.0
C724 C 0.32522 0.97564 0.24417 0.0
C725 C 0.30955 0.96399 0.26902 0.0
C726 C 0.29269 0.97228 0.28942 0.0
C727 C 0.27793 0.96123 0.31236 0.0
C728 C 0.27991 0.94189 0.31566 0.0
C729 C 0.29668 0.93356 0.2962 0.0
C730 C 0.31148 0.94454 0.27314 0.0
C731 C 0.39296 0.99902 0.39519 0.0
C732 C 0.40516 0.98366 0.39219 0.0
C733 C 0.37756 1.00011 0.3517 0.0
C734 C 0.37388 0.98576 0.30518 0.0
C735 C 0.38583 0.97037 0.30209 0.0
C736 C 0.40144 0.96943 0.34447 0.0
C737 C 0.35701 0.9864 0.26207 0.0
C738 C 0.34219 0.97463 0.27922 0.0
C739 C 0.35505 0.99925 0.20749 0.0
C740 C 0.37038 0.01187 0.18675 0.0
C741 C 0.38788 0.00466 0.16826 0.0
C742 C 0.40222 0.01664 0.14827 0.0
C743 C 0.39921 0.03586 0.14615 0.0
C744 C 0.38182 0.04313 0.16387 0.0
C745 C 0.36743 0.03121 0.18394 0.0
H746 H 0.41033 0.04511 0.13059 0.0
H747 H 0.26846 0.93335 0.33344 0.0
H748 H 0.52344 0.25541 0.24804 0.0
H749 H 0.52254 0.28762 0.28835 0.0
H750 H 0.49801 0.30476 0.09636 0.0
H751 H 0.50076 0.27309 0.05389 0.0
H752 H 0.5208 0.32908 0.12867 0.0
H753 H 0.47254 0.29869 0.25603 0.0
H754 H 0.45875 0.27503 0.33268 0.0
H755 H 0.49512 0.29201 0.4952 0.0
H756 H 0.5093 0.3156 0.41921 0.0
H757 H 0.47862 0.40782 0.3601 0.0
H758 H 0.4781 0.37599 0.31574 0.0
H759 H 0.53687 0.37922 0.27287 0.0
H760 H 0.53758 0.41089 0.3178 0.0
H761 H 0.49487 0.34515 0.35691 0.0
H762 H 0.54653 0.35411 0.12588 0.0
H763 H 0.55463 0.3776 0.03823 0.0
H764 H 0.50173 0.40426 0.06702 0.0
H765 H 0.49324 0.38089 0.1543 0.0
C766 C 0.51787 0.26607 0.21446 0.0
C767 C 0.51133 0.26149 0.14873 0.0
C768 C 0.51718 0.28448 0.23783 0.0
C769 C 0.50964 0.29864 0.1964 0.0
C770 C 0.5036 0.29412 0.13002 0.0
C771 C 0.50469 0.27583 0.10621 0.0
C772 C 0.5084 0.31823 0.22119 0.0
C773 C 0.51504 0.33256 0.17849 0.0
C774 C 0.50064 0.32292 0.28583 0.0
C775 C 0.49211 0.30877 0.33168 0.0
C776 C 0.47769 0.29728 0.30796 0.0
C777 C 0.46979 0.2839 0.35131 0.0
C778 C 0.4761 0.28198 0.4187 0.0
C779 C 0.49028 0.29348 0.44294 0.0
C780 C 0.49824 0.30687 0.39977 0.0
C781 C 0.49145 0.40174 0.34144 0.0
C782 C 0.50813 0.41198 0.34226 0.0
C783 C 0.49112 0.38356 0.31595 0.0
C784 C 0.50741 0.37527 0.29039 0.0
C785 C 0.52406 0.38544 0.29117 0.0
C786 C 0.52442 0.40359 0.31668 0.0
C787 C 0.50714 0.35588 0.26405 0.0
C788 C 0.50044 0.34163 0.30682 0.0
C789 C 0.51406 0.35132 0.19817 0.0
C790 C 0.51936 0.36585 0.14738 0.0
C791 C 0.53664 0.36501 0.11364 0.0
C792 C 0.54129 0.3783 0.06396 0.0
C793 C 0.52873 0.39246 0.04726 0.0
C794 C 0.5115 0.39337 0.08031 0.0
C795 C 0.5068 0.38015 0.13014 0.0
H796 H 0.53233 0.40269 0.00859 0.0
H797 H 0.46996 0.27161 0.45217 0.0
H798 H 0.24694 0.48622 0.16269 0.0
H799 H 0.2156 0.4838 0.21062 0.0
H800 H 0.20634 0.54206 0.16798 0.0
H801 H 0.23721 0.54425 0.1162 0.0
H802 H 0.2013 0.50105 0.31903 0.0
H803 H 0.15819 0.5497 0.14215 0.0
H804 H 0.15833 0.56132 0.02316 0.0
H805 H 0.18903 0.5132 0.95887 0.0
H806 H 0.18868 0.50093 0.07667 0.0
H807 H 0.10155 0.54107 0.36622 0.0
H808 H 0.13231 0.54074 0.31323 0.0
H809 H 0.13712 0.48192 0.35459 0.0
H810 H 0.10599 0.48195 0.40575 0.0
H811 H 0.14378 0.52142 0.20081 0.0
H812 H 0.18271 0.47299 0.39008 0.0
H813 H 0.18544 0.46675 0.51431 0.0
H814 H 0.1655 0.52183 0.55843 0.0
H815 H 0.16242 0.52828 0.43461 0.0
C816 C 0.23799 0.49831 0.16099 0.0
C817 C 0.24435 0.51525 0.13341 0.0
C818 C 0.22018 0.49701 0.18963 0.0
C819 C 0.20846 0.51266 0.19183 0.0
C820 C 0.21492 0.52967 0.16542 0.0
C821 C 0.23264 0.53093 0.13623 0.0
C822 C 0.18979 0.5114 0.22438 0.0
C823 C 0.18868 0.50515 0.29259 0.0
C824 C 0.17339 0.51749 0.19081 0.0
C825 C 0.17348 0.52442 0.11881 0.0
C826 C 0.16484 0.54147 0.10256 0.0
C827 C 0.16495 0.54817 0.03518 0.0
C828 C 0.17368 0.53797 0.98341 0.0
C829 C 0.18227 0.52104 -0.00107 0.0
C830 C 0.1821 0.51419 0.06609 0.0
C831 C 0.10899 0.52797 0.36334 0.0
C832 C 0.10113 0.51148 0.38966 0.0
C833 C 0.12667 0.52786 0.33352 0.0
C834 C 0.13703 0.51133 0.33012 0.0
C835 C 0.12943 0.49488 0.35727 0.0
C836 C 0.11162 0.49493 0.38651 0.0
C837 C 0.15541 0.51123 0.29532 0.0
C838 C 0.15642 0.51713 0.22671 0.0
C839 C 0.1718 0.50535 0.32888 0.0
C840 C 0.17216 0.50102 0.4032 0.0
C841 C 0.17875 0.48369 0.42638 0.0
C842 C 0.18039 0.48013 0.49668 0.0
C843 C 0.17572 0.49391 0.54421 0.0
C844 C 0.16916 0.51119 0.52155 0.0
C845 C 0.16727 0.51473 0.45136 0.0
H846 H 0.17708 0.49117 0.59859 0.0
H847 H 0.1738 0.54318 0.93126 0.0
H848 H 0.0216 0.75966 0.19089 0.0
H849 H 0.03246 0.78893 0.1396 0.0
H850 H 0.97575 0.80417 0.09428 0.0
H851 H 0.96489 0.7751 0.14526 0.0
H852 H 0.99725 0.81065 0.98663 0.0
H853 H 1.00107 0.82167 0.23023 0.0
H854 H 0.01166 0.81887 0.34901 0.0
H855 H 0.06807 0.82829 0.28491 0.0
H856 H 0.05763 0.83161 0.16502 0.0
H857 H 0.99311 0.90712 0.94719 0.0
H858 H 0.99115 0.8747 0.9834 0.0
H859 H 0.05073 0.87279 0.00756 0.0
H860 H 0.05276 0.9056 0.97286 0.0
H861 H 0.03359 0.85755 0.11555 0.0
H862 H 0.0318 0.84477 0.87488 0.0
H863 H 0.02257 0.84793 0.75383 0.0
H864 H 0.96515 0.84199 0.81033 0.0
H865 H 0.97415 0.83788 0.93166 0.0
C866 C 0.01145 0.76942 0.17119 0.0
C867 C 0.99236 0.76521 0.17327 0.0
C868 C 0.01768 0.78609 0.1414 0.0
C869 C 0.00492 0.79885 0.11346 0.0
C870 C 0.98589 0.79454 0.1152 0.0
C871 C 0.97969 0.77792 0.14454 0.0
C872 C 0.01109 0.8167 0.08194 0.0
C873 C 0.00512 0.82091 0.01513 0.0
C874 C 0.02213 0.82984 0.11748 0.0
C875 C 0.02857 0.82673 0.18864 0.0
C876 C 0.01575 0.82298 0.24129 0.0
C877 C 0.02175 0.82133 0.30899 0.0
C878 C 0.0406 0.82322 0.32478 0.0
C879 C 0.05348 0.82679 0.27266 0.0
C880 C 0.04751 0.82863 0.20483 0.0
C881 C 0.00581 0.89992 0.96097 0.0
C882 C 0.02309 0.90903 0.95764 0.0
C883 C 0.0047 0.88124 0.98041 0.0
C884 C 0.02083 0.87118 -0.00306 0.0
C885 C 0.03812 0.88023 0.99436 0.0
C886 C 0.03925 0.89897 0.97456 0.0
C887 C 0.01924 0.85164 0.02144 0.0
C888 C 0.02606 0.84711 0.08668 0.0
C889 C 0.00926 0.83808 0.98426 0.0
C890 C 0.00363 0.8412 0.91218 0.0
C891 C 0.0172 0.84425 0.86148 0.0
C892 C 0.01202 0.84612 0.7928 0.0
C893 C 0.99327 0.84545 0.77439 0.0
C894 C 0.97967 0.84259 0.82465 0.0
C895 C 0.98481 0.84029 0.89329 0.0
H896 H 0.9893 0.84704 0.72118 0.0
H897 H 0.04526 0.82207 0.3773 0.0
H898 H 0.74139 0.96781 0.11507 0.0
H899 H 0.71007 0.97132 0.06663 0.0
H900 H 0.70407 0.0241 0.1692 0.0
H901 H 0.73565 0.02127 0.21387 0.0
H902 H 0.67431 0.99568 0.19199 0.0
H903 H 0.70984 0.0268 0.0135 0.0
H904 H 0.73432 0.0286 0.92496 0.0
H905 H 0.70961 0.98272 0.8179 0.0
H906 H 0.68514 0.98045 0.90647 0.0
H907 H 0.58905 0.02867 0.06987 0.0
H908 H 0.62138 0.02558 0.10314 0.0
H909 H 0.63049 0.98646 0.93899 0.0
H910 H 0.59863 0.991 0.90033 0.0
H911 H 0.65918 0.00598 0.94671 0.0
H912 H 0.62359 0.97412 0.11588 0.0
H913 H 0.59941 0.96934 0.204 0.0
H914 H 0.62426 0.01154 0.32938 0.0
H915 H 0.64831 0.01694 0.2414 0.0
C916 C 0.73344 0.98023 0.12677 0.0
C917 C 0.74069 0.99392 0.1707 0.0
C918 C 0.71558 0.98219 0.09917 0.0
C919 C 0.70472 0.99784 0.11523 0.0
C920 C 0.71214 0.01177 0.15724 0.0
C921 C 0.73007 0.00997 0.18375 0.0
C922 C 0.68536 0.99949 0.0904 0.0
C923 C 0.67092 0.99814 0.13851 0.0
C924 C 0.68108 1.00193 0.02028 0.0
C925 C 0.6958 0.0033 0.96712 0.0
C926 C 0.70975 0.01696 0.97152 0.0
C927 C 0.72359 0.01809 0.92122 0.0
C928 C 0.72356 0.00574 0.86597 0.0
C929 C 0.70965 0.99225 0.86081 0.0
C930 C 0.69579 0.99104 0.91103 0.0
C931 C 0.59793 0.01971 0.03951 0.0
C932 C 0.59096 0.01005 0.9823 0.0
C933 C 0.61644 0.01767 0.05963 0.0
C934 C 0.62835 0.00536 0.02484 0.0
C935 C 0.62158 0.99592 0.96711 0.0
C936 C 0.60319 0.99834 0.94567 0.0
C937 C 0.64784 1.00242 0.04853 0.0
C938 C 0.66238 0.00345 0.00027 0.0
C939 C 0.65221 0.99919 0.11852 0.0
C940 C 0.63766 0.99607 0.17156 0.0
C941 C 0.6238 0.98252 0.16193 0.0
C942 C 0.6101 0.97971 0.21191 0.0
C943 C 0.61025 0.9902 0.27218 0.0
C944 C 0.6241 0.0035 0.2826 0.0
C945 C 0.63777 0.00645 0.23265 0.0
H946 H 0.59966 0.98797 0.3109 0.0
H947 H 0.73429 0.00665 0.82705 0.0
H948 H 0.48879 0.72917 0.27192 0.0
H949 H 0.48018 0.70256 0.20019 0.0
H950 H 0.53686 0.69855 0.12786 0.0
H951 H 0.54514 0.72562 0.1963 0.0
H952 H 0.51586 0.69447 0.02494 0.0
H953 H 0.51559 0.66395 0.25225 0.0
H954 H 0.50552 0.66014 0.37226 0.0
H955 H 0.44831 0.66134 0.30923 0.0
H956 H 0.45818 0.66458 0.18825 0.0
H957 H 0.52918 0.5991 0.94329 0.0
H958 H 0.52842 0.63073 0.99042 0.0
H959 H 0.46845 0.62931 0.9921 0.0
H960 H 0.46918 0.59774 0.94395 0.0
H961 H 0.48445 0.63843 0.11848 0.0
H962 H 0.48757 0.65719 0.88735 0.0
H963 H 0.49857 0.65888 0.76782 0.0
H964 H 0.55114 0.68016 0.83574 0.0
H965 H 0.54074 0.67793 0.95605 0.0
C966 C 0.49941 0.72241 0.24135 0.0
C967 C 0.51765 0.72937 0.23994 0.0
C968 C 0.49451 0.70717 0.20034 0.0
C969 C 0.50789 0.69833 0.15874 0.0
C970 C 0.52619 0.70514 0.15878 0.0
C971 C 0.53096 0.72056 0.19835 0.0
C972 C 0.50313 0.68213 0.11438 0.0
C973 C 0.50915 0.68215 0.04563 0.0
C974 C 0.49355 0.66634 0.13976 0.0
C975 C 0.48758 0.66477 0.21188 0.0
C976 C 0.50087 0.6635 0.26422 0.0
C977 C 0.49519 0.66138 0.33227 0.0
C978 C 0.47625 0.66075 0.34843 0.0
C979 C 0.46295 0.66193 0.29653 0.0
C980 C 0.46858 0.66378 0.22823 0.0
C981 C 0.51587 0.60566 0.9531 0.0
C982 C 0.49924 0.59605 0.94056 0.0
C983 C 0.51543 0.62373 0.97942 0.0
C984 C 0.49837 0.63236 0.99434 0.0
C985 C 0.48173 0.6229 0.98053 0.0
C986 C 0.48216 0.60494 0.95307 0.0
C987 C 0.4981 0.65045 0.03056 0.0
C988 C 0.49097 0.65083 0.09745 0.0
C989 C 0.50679 0.6665 0.00334 0.0
C990 C 0.51337 0.66731 0.93103 0.0
C991 C 0.50158 0.66198 0.87704 0.0
C992 C 0.5077 0.66308 0.80905 0.0
C993 C 0.52548 0.66978 0.79421 0.0
C994 C 0.53732 0.67507 0.84736 0.0
C995 C 0.53134 0.67384 0.9155 0.0
H996 H 0.5301 0.67093 0.74153 0.0
H997 H 0.47185 0.65935 0.40107 0.0
H998 H 0.75737 0.5283 0.07529 0.0
H999 H 0.78782 0.51828 0.03193 0.0
H1000 H 0.80755 0.51258 0.23965 0.0
H1001 H 0.77757 0.52373 0.28258 0.0
H1002 H 0.83248 0.52873 0.17008 0.0
H1003 H 0.79644 0.47385 0.13337 0.0
H1004 H 0.77026 0.45503 0.09086 0.0
H1005 H 0.78434 0.46962 0.8834 0.0
H1006 H 0.81048 0.48873 0.92473 0.0
H1007 H 0.91729 0.48569 0.08305 0.0
H1008 H 0.88595 0.48988 0.12818 0.0
H1009 H 0.8653 0.49875 0.92336 0.0
H1010 H 0.89652 0.49374 0.87707 0.0
H1011 H 0.8409 0.47954 0.99454 0.0
H1012 H 0.87637 0.53615 0.03752 0.0
H1013 H 0.90295 0.55363 0.08463 0.0
H1014 H 0.89007 0.53347 0.28681 0.0
H1015 H 0.86343 0.51588 0.24094 0.0
C1016 C 0.76821 0.52475 0.11154 0.0
C1017 C 0.76492 0.52603 0.18242 0.0
C1018 C 0.78554 0.51888 0.08682 0.0
C1019 C 0.79989 0.51415 0.13262 0.0
C1020 C 0.79664 0.51578 0.20339 0.0
C1021 C 0.77939 0.5218 0.22797 0.0
C1022 C 0.81858 0.50842 0.10714 0.0
C1023 C 0.83427 0.51777 0.13242 0.0
C1024 C 0.82105 0.49431 0.05726 0.0
C1025 C 0.80531 0.48288 0.03221 0.0
C1026 C 0.79386 0.47317 0.07872 0.0
C1027 C 0.77905 0.46243 0.05482 0.0
C1028 C 0.77561 0.46117 0.98448 0.0
C1029 C 0.787 0.47063 0.93787 0.0
C1030 C 0.80183 0.4814 0.9615 0.0
C1031 C 0.90607 0.48821 0.04726 0.0
C1032 C 0.90953 0.48954 0.97633 0.0
C1033 C 0.88815 0.49083 0.07335 0.0
C1034 C 0.87334 0.4952 0.02935 0.0
C1035 C 0.87658 0.49575 0.95836 0.0
C1036 C 0.89448 0.49301 0.93207 0.0
C1037 C 0.85465 0.49994 0.05724 0.0
C1038 C 0.83901 0.49044 0.03238 0.0
C1039 C 0.8522 0.51376 0.10815 0.0
C1040 C 0.868 0.52463 0.13576 0.0
C1041 C 0.87924 0.53543 0.09199 0.0
C1042 C 0.89431 0.54535 0.11845 0.0
C1043 C 0.89823 0.54461 0.18858 0.0
C1044 C 0.88703 0.53403 0.2325 0.0
C1045 C 0.87191 0.52413 0.20635 0.0
H1046 H 0.90993 0.55227 0.20891 0.0
H1047 H 0.76413 0.45284 0.96609 0.0
H1048 H 0.04411 0.20643 0.92587 0.0
H1049 H 0.04853 0.17668 0.86731 0.0
H1050 H 0.99065 0.17658 0.80944 0.0
H1051 H 0.98624 0.20645 0.86622 0.0
H1052 H 0.03375 0.14526 0.90121 0.0
H1053 H 0.98385 0.15061 0.66477 0.0
H1054 H 0.9742 0.17372 0.57798 0.0
H1055 H 0.02427 0.20478 0.61215 0.0
H1056 H 0.03442 0.1817 0.69811 0.0
H1057 H 0.00453 0.0567 0.81025 0.0
H1058 H 0.00541 0.08975 0.83795 0.0
H1059 H 0.03441 0.10098 0.64808 0.0
H1060 H 0.03243 0.06789 0.61804 0.0
H1061 H 0.01093 0.12752 0.67046 0.0
H1062 H 0.05914 0.10001 0.80841 0.0
H1063 H 0.07124 0.07555 0.88555 0.0
H1064 H 0.02954 0.08918 0.03521 0.0
H1065 H 0.01748 0.11405 0.95968 0.0
C1066 C 0.0324 0.20021 0.89972 0.0
C1067 C 0.0148 0.20873 0.90103 0.0
C1068 C 0.03495 0.18321 0.8663 0.0
C1069 C 0.01995 0.17444 0.83365 0.0
C1070 C 0.00251 0.18322 0.83313 0.0
C1071 C 0.99999 0.20026 0.86612 0.0
C1072 C 0.02202 0.15532 0.80623 0.0
C1073 C 0.02895 0.14149 0.8504 0.0
C1074 C 0.01594 0.15034 0.73966 0.0
C1075 C 0.00981 0.16447 0.68856 0.0
C1076 C 0.99284 0.16234 0.65371 0.0
C1077 C 0.98728 0.17544 0.60459 0.0
C1078 C 0.99859 0.19073 0.58976 0.0
C1079 C 0.01549 0.19296 0.62392 0.0
C1080 C 0.02114 0.17988 0.67294 0.0
C1081 C 0.01119 0.0662 0.77463 0.0
C1082 C 0.01874 0.05977 0.71269 0.0
C1083 C 0.01174 0.08509 0.79054 0.0
C1084 C 0.02051 0.09778 0.74612 0.0
C1085 C 0.02773 0.09142 0.68341 0.0
C1086 C 0.0267 0.07254 0.66652 0.0
C1087 C 0.02227 0.11762 0.76597 0.0
C1088 C 0.016 0.13148 0.7207 0.0
C1089 C 0.02941 0.12279 0.83071 0.0
C1090 C 0.03744 0.10886 0.87847 0.0
C1091 C 0.05269 0.0979 0.85811 0.0
C1092 C 0.05955 0.084 0.90157 0.0
C1093 C 0.05122 0.08088 0.96539 0.0
C1094 C 0.03609 0.09175 0.98605 0.0
C1095 C 0.02933 0.10585 0.94322 0.0
H1096 H 0.05644 0.07001 -0.00125 0.0
H1097 H 0.99429 0.20084 0.55173 0.0
H1098 H 0.29313 0.07422 0.82429 0.0
H1099 H 0.32173 0.05827 0.79035 0.0
H1100 H 0.32274 0.02966 0.98558 0.0
H1101 H 0.29351 0.04483 0.01762 0.0
H1102 H 0.35364 0.06184 0.83856 0.0
H1103 H 0.35015 0.99115 0.97983 0.0
H1104 H 0.32728 0.96753 0.01594 0.0
H1105 H 0.29043 0.98495 0.85506 0.0
H1106 H 0.3133 0.00838 0.81684 0.0
H1107 H 0.44162 0.02092 0.88612 0.0
H1108 H 0.40932 0.02879 0.9116 0.0
H1109 H 0.3916 1.00016 0.7291 0.0
H1110 H 0.42407 0.99242 0.70217 0.0
H1111 H 0.36885 0.99472 0.86235 0.0
H1112 H 0.39294 0.04053 0.70339 0.0
H1113 H 0.41676 0.06268 0.66283 0.0
H1114 H 0.41099 0.09413 0.84871 0.0
H1115 H 0.38739 0.07192 0.89096 0.0
C1116 C 0.29927 0.06417 0.85911 0.0
C1117 C 0.29101 0.06049 0.92277 0.0
C1118 C 0.31566 0.05513 0.83996 0.0
C1119 C 0.32443 0.04261 0.88502 0.0
C1120 C 0.31607 0.03883 0.94892 0.0
C1121 C 0.29936 0.04753 0.96733 0.0
C1122 C 0.34297 0.03476 0.86674 0.0
C1123 C 0.35678 0.04712 0.84337 0.0
C1124 C 0.34733 0.01555 0.87321 0.0
C1125 C 0.3334 1.00159 0.89575 0.0
C1126 C 0.3372 0.98988 0.95194 0.0
C1127 C 0.32424 0.97653 0.97278 0.0
C1128 C 0.30739 0.97476 0.93788 0.0
C1129 C 0.30347 0.98636 0.88208 0.0
C1130 C 0.31644 0.99967 0.86076 0.0
C1131 C 0.43089 0.01607 0.85169 0.0
C1132 C 0.43543 0.00613 0.79184 0.0
C1133 C 0.41244 0.02056 0.86648 0.0
C1134 C 0.39817 0.01503 0.82224 0.0
C1135 C 0.40249 0.00444 0.76396 0.0
C1136 C 0.42102 1.00016 0.74848 0.0
C1137 C 0.37904 0.02181 0.83412 0.0
C1138 C 0.36537 0.00936 0.85695 0.0
C1139 C 0.37465 0.04086 0.8264 0.0
C1140 C 0.38854 0.05446 0.8006 0.0
C1141 C 0.39687 0.05208 0.73585 0.0
C1142 C 0.41031 0.06465 0.71252 0.0
C1143 C 0.41542 0.07978 0.75324 0.0
C1144 C 0.40704 0.08239 0.81727 0.0
C1145 C 0.39362 0.06982 0.84093 0.0
H1146 H 0.42584 0.08949 0.73511 0.0
H1147 H 0.29739 0.96437 0.9539 0.0
H1148 H 0.50791 0.29272 0.82671 0.0
H1149 H 0.50793 0.3237 0.77549 0.0
H1150 H 0.45324 0.33401 0.85887 0.0
H1151 H 0.45337 0.30314 0.91233 0.0
H1152 H 0.48907 0.34375 0.6883 0.0
H1153 H 0.45185 0.37891 0.91934 0.0
H1154 H 0.44654 0.37296 0.04265 0.0
H1155 H 0.49585 0.3393 0.05034 0.0
H1156 H 0.50182 0.34556 0.92815 0.0
H1157 H 0.48073 0.44098 0.61157 0.0
H1158 H 0.47455 0.40825 0.63934 0.0
H1159 H 0.50912 0.41294 0.81935 0.0
H1160 H 0.5145 0.44569 0.79351 0.0
H1161 H 0.48078 0.39542 0.85395 0.0
H1162 H 0.52267 0.39054 0.66404 0.0
H1163 H 0.53469 0.39489 0.54651 0.0
H1164 H 0.48685 0.36699 0.46514 0.0
H1165 H 0.47436 0.36276 0.5822 0.0
C1166 C 0.49575 0.30145 0.83341 0.0
C1167 C 0.48076 0.2956 0.87455 0.0
C1168 C 0.49575 0.31914 0.80372 0.0
C1169 C 0.48073 0.33129 0.81427 0.0
C1170 C 0.46513 0.32498 0.8511 0.0
C1171 C 0.46521 0.30733 0.88153 0.0
C1172 C 0.48228 0.35103 0.79247 0.0
C1173 C 0.4871 0.3551 0.72423 0.0
C1174 C 0.48024 0.36579 0.83994 0.0
C1175 C 0.47707 0.36243 0.91423 0.0
C1176 C 0.4616 0.37032 0.94752 0.0
C1177 C 0.45851 0.36693 0.01732 0.0
C1178 C 0.4708 0.35568 0.05432 0.0
C1179 C 0.48631 0.34797 0.02176 0.0
C1180 C 0.48958 0.35147 0.95228 0.0
C1181 C 0.48705 0.43492 0.65678 0.0
C1182 C 0.49806 0.44581 0.70048 0.0
C1183 C 0.48357 0.41622 0.67256 0.0
C1184 C 0.49146 0.40803 0.73128 0.0
C1185 C 0.50271 0.41893 0.77414 0.0
C1186 C 0.50583 0.43765 0.75926 0.0
C1187 C 0.48785 0.38827 0.74967 0.0
C1188 C 0.48251 0.38417 0.81743 0.0
C1189 C 0.49031 0.37348 0.70248 0.0
C1190 C 0.49747 0.37653 0.63188 0.0
C1191 C 0.51459 0.38554 0.62106 0.0
C1192 C 0.52151 0.38795 0.55455 0.0
C1193 C 0.51154 0.38122 0.49848 0.0
C1194 C 0.49455 0.3722 0.50867 0.0
C1195 C 0.48753 0.36981 0.57508 0.0
H1196 H 0.51706 0.38287 0.44723 0.0
H1197 H 0.46837 0.35301 0.10827 0.0
H1198 H 0.21366 0.50019 0.86374 0.0
H1199 H 0.18235 0.49813 0.81865 0.0
H1200 H 0.17667 0.44302 0.90559 0.0
H1201 H 0.20772 0.44567 0.95561 0.0
H1202 H 0.16342 0.48055 0.73701 0.0
H1203 H 0.13364 0.43377 0.94905 0.0
H1204 H 0.13888 0.42532 0.07036 0.0
H1205 H 0.16349 0.47878 0.10691 0.0
H1206 H 0.15846 0.48751 0.98546 0.0
H1207 H 0.06778 0.47387 0.65752 0.0
H1208 H 0.09982 0.46558 0.68607 0.0
H1209 H 0.09434 0.49434 0.87948 0.0
H1210 H 0.06192 0.50155 0.85271 0.0
H1211 H 0.11287 0.46519 0.90118 0.0
H1212 H 0.11994 0.51497 0.73501 0.0
H1213 H 0.11379 0.53084 0.62486 0.0
H1214 H 0.13311 0.48272 0.51536 0.0
H1215 H 0.13969 0.46671 0.62501 0.0
C1216 C 0.20584 0.48755 0.87297 0.0
C1217 C 0.21299 0.47329 0.91466 0.0
C1218 C 0.18789 0.48633 0.8467 0.0
C1219 C 0.17685 0.47061 0.86008 0.0
C1220 C 0.18461 0.4556 0.89665 0.0
C1221 C 0.20243 0.45705 0.9247 0.0
C1222 C 0.15698 0.47073 0.83917 0.0
C1223 C 0.15242 0.47704 0.77297 0.0
C1224 C 0.14245 0.4664 0.88585 0.0
C1225 C 0.14594 0.46116 0.95822 0.0
C1226 C 0.14025 0.44367 0.98296 0.0
C1227 C 0.1432 0.43884 0.05161 0.0
C1228 C 0.15164 0.45148 0.09611 0.0
C1229 C 0.15714 0.46898 0.07208 0.0
C1230 C 0.1543 0.47385 0.00337 0.0
C1231 C 0.0735 0.47843 0.706 0.0
C1232 C 0.06256 0.48848 0.75277 0.0
C1233 C 0.0918 0.47375 0.72222 0.0
C1234 C 0.09965 0.47962 0.78442 0.0
C1235 C 0.0886 0.48958 0.83129 0.0
C1236 C 0.07014 0.49379 0.8159 0.0
C1237 C 0.11944 0.47577 0.80048 0.0
C1238 C 0.12393 0.46848 0.86518 0.0
C1239 C 0.13391 0.48014 0.75391 0.0
C1240 C 0.13023 0.48967 0.68793 0.0
C1241 C 0.12287 0.5078 0.68735 0.0
C1242 C 0.11936 0.51683 0.62512 0.0
C1243 C 0.12309 0.5078 0.56324 0.0
C1244 C 0.13022 0.48968 0.56339 0.0
C1245 C 0.134 0.48069 0.62553 0.0
H1246 H 0.12059 0.51493 0.51528 0.0
H1247 H 0.15385 0.44774 0.14929 0.0
H1248 H 0.97407 0.7946 0.46194 0.0
H1249 H 0.97199 0.82586 0.50991 0.0
H1250 H 0.03187 0.82974 0.51022 0.0
H1251 H 0.03405 0.79804 0.46585 0.0
H1252 H 0.01895 0.84639 0.61657 0.0
H1253 H 0.00419 0.85707 0.36648 0.0
H1254 H 0.98666 0.85079 0.26008 0.0
H1255 H 0.93535 0.85229 0.37283 0.0
H1256 H 0.95253 0.85941 0.47918 0.0
H1257 H 0.03467 0.94304 0.58976 0.0
H1258 H 0.03223 0.90954 0.56717 0.0
H1259 H 0.9727 0.91261 0.59453 0.0
H1260 H 0.97522 0.94625 0.61663 0.0
H1261 H 0.98222 0.89225 0.48246 0.0
H1262 H 0.99911 0.89404 0.7183 0.0
H1263 H 0.01702 0.90222 0.8205 0.0
H1264 H 0.06565 0.87625 0.73517 0.0
H1265 H 0.04803 0.86834 0.63081 0.0
C1266 C 0.98681 0.80196 0.47351 0.0
C1267 C 0.00425 0.79407 0.45854 0.0
C1268 C 0.98558 0.81997 0.49984 0.0
C1269 C 0.00174 0.83047 0.51071 0.0
C1270 C 0.01918 0.82203 0.50113 0.0
C1271 C 0.02043 0.80391 0.47575 0.0
C1272 C 1.0006 0.85034 0.53064 0.0
C1273 C 0.01106 0.85644 0.58683 0.0
C1274 C 0.98988 0.86342 0.4933 0.0
C1275 C 0.97961 0.85838 0.43059 0.0
C1276 C 0.98918 0.85587 0.36847 0.0
C1277 C 0.97932 0.85225 0.30824 0.0
C1278 C 0.95995 0.8508 0.30992 0.0
C1279 C 0.95036 0.85328 0.37167 0.0
C1280 C 0.96012 0.85726 0.43178 0.0
C1281 C 0.02111 0.93647 0.59055 0.0
C1282 C 0.0051 0.94693 0.60443 0.0
C1283 C 0.01972 0.91741 0.57818 0.0
C1284 C 0.00231 0.90858 0.58006 0.0
C1285 C 0.98625 0.91917 0.59306 0.0
C1286 C 0.98766 0.93828 0.60556 0.0
C1287 C 1.00093 0.88833 0.56734 0.0
C1288 C 0.99 0.88219 0.51256 0.0
C1289 C 0.01137 0.87525 0.60563 0.0
C1290 C 0.02228 0.88073 0.6666 0.0
C1291 C 0.01369 0.89032 0.7208 0.0
C1292 C 0.02381 0.89484 0.77936 0.0
C1293 C 0.04249 0.88968 0.78477 0.0
C1294 C 0.05117 0.88021 0.731 0.0
C1295 C 0.04113 0.87575 0.67201 0.0
H1296 H 0.05026 0.89294 0.83057 0.0
H1297 H 0.95237 0.84793 0.26326 0.0
H1298 H 0.68029 0.01499 0.3725 0.0
H1299 H 0.64953 0.01278 0.42401 0.0
H1300 H 0.67331 0.02037 0.625 0.0
H1301 H 0.70439 0.02213 0.57379 0.0
H1302 H 0.64955 0.99234 0.62616 0.0
H1303 H 0.64816 0.05486 0.54667 0.0
H1304 H 0.65184 0.08079 0.46466 0.0
H1305 H 0.60997 0.05701 0.33516 0.0
H1306 H 0.60614 0.03085 0.41608 0.0
H1307 H 0.55831 1.00185 0.77312 0.0
H1308 H 0.59049 0.00666 0.73746 0.0
H1309 H 0.57517 0.99635 0.52715 0.0
H1310 H 0.54288 0.99169 0.56215 0.0
H1311 H 0.59524 0.02826 0.54167 0.0
H1312 H 0.59869 0.96452 0.62043 0.0
H1313 H 0.5951 0.93918 0.70497 0.0
H1314 H 0.6335 0.96638 0.83965 0.0
H1315 H 0.63689 0.99223 0.75692 0.0
C1316 C 0.67902 0.01639 0.42763 0.0
C1317 C 0.6948 0.01873 0.46912 0.0
C1318 C 0.66138 0.0152 0.45698 0.0
C1319 C 0.65909 0.01663 0.52828 0.0
C1320 C 0.67477 0.01927 0.56984 0.0
C1321 C 0.6925 0.02033 0.5405 0.0
C1322 C 0.64039 0.01443 0.55914 0.0
C1323 C 0.63773 1.00044 0.60866 0.0
C1324 C 0.62494 0.02486 0.5356 0.0
C1325 C 0.62703 0.04074 0.48713 0.0
C1326 C 0.63983 0.05507 0.50046 0.0
C1327 C 0.64192 0.06984 0.45422 0.0
C1328 C 0.63119 0.07052 0.39463 0.0
C1329 C 0.61829 0.05646 0.38131 0.0
C1330 C 0.61613 0.04168 0.42743 0.0
C1331 C 0.56179 1.00038 0.71936 0.0
C1332 C 0.548 0.99643 0.67041 0.0
C1333 C 0.58021 0.00312 0.69914 0.0
C1334 C 0.58517 1.00186 0.6297 0.0
C1335 C 0.57156 0.99744 0.58098 0.0
C1336 C 0.55314 0.99469 0.60114 0.0
C1337 C 0.60439 0.00587 0.60711 0.0
C1338 C 0.60713 0.02029 0.55946 0.0
C1339 C 0.6199 0.99597 0.63288 0.0
C1340 C 0.61786 0.98044 0.68277 0.0
C1341 C 0.60619 0.96524 0.66845 0.0
C1342 C 0.60418 0.95079 0.7161 0.0
C1343 C 0.61395 0.95126 0.77791 0.0
C1344 C 0.62581 0.96615 0.79207 0.0
C1345 C 0.62777 0.9807 0.74484 0.0
H1346 H 0.61241 0.94004 0.81468 0.0
H1347 H 0.63284 0.08195 0.35886 0.0
H1348 H 0.48352 0.70696 0.4512 0.0
H1349 H 0.49414 0.67497 0.46983 0.0
H1350 H 0.49986 0.68548 0.68559 0.0
H1351 H 0.48907 0.71756 0.66811 0.0
H1352 H 0.53019 0.66211 0.61338 0.0
H1353 H 0.46531 0.66759 0.65726 0.0
H1354 H 0.43279 0.67657 0.63593 0.0
H1355 H 0.43135 0.6411 0.45911 0.0
H1356 H 0.46401 0.63219 0.47854 0.0
H1357 H 0.52354 0.56593 0.71983 0.0
H1358 H 0.52133 0.59972 0.70825 0.0
H1359 H 0.50565 0.59357 0.49615 0.0
H1360 H 0.50784 0.55964 0.50724 0.0
H1361 H 0.48083 0.61504 0.57532 0.0
H1362 H 0.54711 0.61243 0.52821 0.0
H1363 H 0.57922 0.60261 0.55447 0.0
H1364 H 0.57622 0.63057 0.74862 0.0
H1365 H 0.544 0.64016 0.72401 0.0
C1366 C 0.48753 0.70266 0.50233 0.0
C1367 C 0.48567 0.71478 0.55834 0.0
C1368 C 0.49341 0.68432 0.51281 0.0
C1369 C 0.49761 0.67783 0.57884 0.0
C1370 C 0.49674 0.6902 0.63421 0.0
C1371 C 0.49054 0.70848 0.62411 0.0
C1372 C 0.50126 0.65774 0.59003 0.0
C1373 C 0.51935 0.65182 0.60599 0.0
C1374 C 0.4871 0.64433 0.57993 0.0
C1375 C 0.46738 0.64968 0.56811 0.0
C1376 C 0.45823 0.66201 0.61292 0.0
C1377 C 0.4397 0.667 0.60145 0.0
C1378 C 0.43005 0.65955 0.54585 0.0
C1379 C 0.43887 0.64696 0.50197 0.0
C1380 C 0.45739 0.64192 0.51327 0.0
C1381 C 0.51995 0.57175 0.67031 0.0
C1382 C 0.5158 0.5601 0.61445 0.0
C1383 C 0.51876 0.59108 0.66379 0.0
C1384 C 0.51334 0.59912 0.60135 0.0
C1385 C 0.50986 0.58759 0.54476 0.0
C1386 C 0.51122 0.56823 0.55107 0.0
C1387 C 0.50981 0.61941 0.59668 0.0
C1388 C 0.49166 0.62536 0.58254 0.0
C1389 C 0.52379 0.63276 0.60948 0.0
C1390 C 0.5432 0.62711 0.62415 0.0
C1391 C 0.55331 0.61643 0.57656 0.0
C1392 C 0.57151 0.61087 0.59118 0.0
C1393 C 0.57978 0.616 0.6531 0.0
C1394 C 0.56984 0.62668 0.70054 0.0
C1395 C 0.55162 0.63221 0.68624 0.0
H1396 H 0.59386 0.61167 0.66437 0.0
H1397 H 0.4157 0.66342 0.53704 0.0
H1398 H 0.81303 0.50348 0.35435 0.0
H1399 H 0.84457 0.50626 0.39666 0.0
H1400 H 0.82771 0.48207 0.59001 0.0
H1401 H 0.79558 0.48013 0.54855 0.0
H1402 H 0.84912 0.51101 0.61136 0.0
H1403 H 0.85393 0.45722 0.4628 0.0
H1404 H 0.85005 0.44021 0.35398 0.0
H1405 H 0.88428 0.48039 0.25021 0.0
H1406 H 0.88817 0.49775 0.35808 0.0
H1407 H 0.9409 0.49336 0.72913 0.0
H1408 H 0.90862 0.49199 0.69226 0.0
H1409 H 0.92376 0.5171 0.49864 0.0
H1410 H 0.95625 0.51821 0.53478 0.0
H1411 H 0.90319 0.48752 0.47872 0.0
H1412 H 0.9 0.54063 0.62385 0.0
H1413 H 0.90427 0.55869 0.72995 0.0
H1414 H 0.86683 0.52222 0.83675 0.0
H1415 H 0.86291 0.50341 0.73216 0.0
C1416 C 0.81601 0.4985 0.40554 0.0
C1417 C 0.80184 0.49143 0.44791 0.0
C1418 C 0.83413 0.50006 0.42969 0.0
C1419 C 0.83864 0.49402 0.49606 0.0
C1420 C 0.82456 0.48674 0.53846 0.0
C1421 C 0.80625 0.48555 0.51468 0.0
C1422 C 0.85794 0.49592 0.52154 0.0
C1423 C 0.86095 0.50558 0.58308 0.0
C1424 C 0.87339 0.48944 0.48324 0.0
C1425 C 0.87126 0.47882 0.41849 0.0
C1426 C 0.86056 0.46246 0.41669 0.0
C1427 C 0.85836 0.45276 0.35515 0.0
C1428 C 0.86688 0.45923 0.29516 0.0
C1429 C 0.87767 0.47539 0.29663 0.0
C1430 C 0.87991 0.48514 0.35799 0.0
C1431 C 0.93735 0.49889 0.67915 0.0
C1432 C 0.95114 0.50592 0.63485 0.0
C1433 C 0.91886 0.4981 0.65816 0.0
C1434 C 0.91376 0.50456 0.59288 0.0
C1435 C 0.92742 0.51201 0.5492 0.0
C1436 C 0.94596 0.51267 0.56996 0.0
C1437 C 0.89439 0.50255 0.56865 0.0
C1438 C 0.89138 0.49288 0.50729 0.0
C1439 C 0.87899 0.50917 0.60687 0.0
C1440 C 0.88134 0.52044 0.67015 0.0
C1441 C 0.89288 0.53627 0.67018 0.0
C1442 C 0.89526 0.54662 0.73015 0.0
C1443 C 0.88596 0.54148 0.79024 0.0
C1444 C 0.8742 0.52602 0.7904 0.0
C1445 C 0.87191 0.51549 0.7308 0.0
H1446 H 0.88775 0.54954 0.83655 0.0
H1447 H 0.86514 0.45172 0.24755 0.0
loop_
_geom_bond_atom_site_label_1
_geom_bond_atom_site_label_2
_geom_bond_distance
_geom_bond_site_symmetry_2
_ccdc_geom_bond_type
O0 Cd1 2.300 . S
O0 C7 1.275 . S
Cd1 O0 2.300 . S
Cd1 O9 2.381 . S
Cd1 O10 2.378 . S
O2 Cd3 2.385 . S
O2 C7 1.255 . S
Cd3 O2 2.385 . S
Cd3 O4 2.317 . S
O4 Cd3 2.317 . S
O4 C5 1.232 . S
C5 O4 1.232 . S
C5 O6 1.218 . S
O6 C5 1.218 . S
C7 O0 1.275 . S
C7 O2 1.255 . S
C8 O9 1.258 . S
C8 O10 1.256 . S
O9 Cd1 2.381 . S
O9 C8 1.258 . S
O10 Cd1 2.378 . S
O10 C8 1.256 . S
O11 Cd12 2.300 1_655 S
O11 C18 1.275 1_655 S
Cd12 O11 2.300 1_455 S
Cd12 O20 2.381 1_455 S
Cd12 O21 2.378 . S
O13 Cd14 2.385 . S
O13 C18 1.255 . S
Cd14 O13 2.385 . S
Cd14 O15 2.317 . S
O15 Cd14 2.317 . S
O15 C16 1.232 . S
C16 O15 1.232 . S
C16 O17 1.218 . S
O17 C16 1.218 . S
C18 O11 1.275 1_455 S
C18 O13 1.255 . S
C19 O20 1.236 1_455 S
C19 O21 1.287 . S
O20 Cd12 2.381 1_655 S
O20 C19 1.236 1_655 S
O21 Cd12 2.378 . S
O21 C19 1.287 . S
O22 Cd23 2.300 1_565 S
O22 C29 1.275 1_565 S
Cd23 O22 2.300 1_545 S
Cd23 O31 2.381 1_545 S
Cd23 O32 2.378 . S
O24 Cd25 2.385 . S
O24 C29 1.255 . S
Cd25 O24 2.385 . S
Cd25 O26 2.317 . S
O26 Cd25 2.317 . S
O26 C27 1.232 . S
C27 O26 1.232 . S
C27 O28 1.218 . S
O28 C27 1.218 . S
C29 O22 1.275 1_545 S
C29 O24 1.255 . S
C30 O31 1.248 1_545 S
C30 O32 1.270 . S
O31 Cd23 2.381 1_565 S
O31 C30 1.248 1_565 S
O32 Cd23 2.378 . S
O32 C30 1.270 . S
O33 Cd34 2.300 . S
O33 C40 1.275 . S
Cd34 O33 2.300 . S
Cd34 O42 2.381 . S
Cd34 O43 2.378 . S
O35 Cd36 2.385 . S
O35 C40 1.255 . S
Cd36 O35 2.385 . S
Cd36 O37 2.317 . S
O37 Cd36 2.317 . S
O37 C38 1.232 . S
C38 O37 1.232 . S
C38 O39 1.218 . S
O39 C38 1.218 . S
C40 O33 1.275 . S
C40 O35 1.255 . S
C41 O42 1.258 . S
C41 O43 1.256 . S
O42 Cd34 2.381 . S
O42 C41 1.258 . S
O43 Cd34 2.378 . S
O43 C41 1.256 . S
O44 Cd45 2.300 . S
O44 C51 1.275 . S
Cd45 O44 2.300 . S
Cd45 O53 2.381 . S
Cd45 O54 2.378 . S
O46 Cd47 2.374 1_554 S
O46 C51 1.255 . S
Cd47 O46 2.374 1_556 S
Cd47 O48 2.326 . S
O48 Cd47 2.326 . S
O48 C49 1.232 . S
C49 O48 1.232 . S
C49 O50 1.218 . S
O50 C49 1.218 . S
C51 O44 1.275 . S
C51 O46 1.255 . S
C52 O53 1.258 . S
C52 O54 1.256 . S
O53 Cd45 2.381 . S
O53 C52 1.258 . S
O54 Cd45 2.378 . S
O54 C52 1.256 . S
O55 Cd56 2.323 . S
O55 C62 1.294 . S
Cd56 O55 2.323 . S
Cd56 O64 2.381 1_455 S
Cd56 O65 2.378 . S
O57 Cd58 2.375 1_554 S
O57 C62 1.255 . S
Cd58 O57 2.375 1_556 S
Cd58 O59 2.325 . S
O59 Cd58 2.325 . S
O59 C60 1.232 . S
C60 O59 1.232 . S
C60 O61 1.218 . S
O61 C60 1.218 . S
C62 O55 1.294 . S
C62 O57 1.255 . S
C63 O64 1.258 1_455 S
C63 O65 1.256 . S
O64 Cd56 2.381 1_655 S
O64 C63 1.258 1_655 S
O65 Cd56 2.378 . S
O65 C63 1.256 . S
O66 Cd67 2.305 . S
O66 C73 1.279 . S
Cd67 O66 2.305 . S
Cd67 O75 2.381 1_545 S
Cd67 O76 2.378 . S
O68 Cd69 2.375 1_554 S
O68 C73 1.255 . S
Cd69 O68 2.375 1_556 S
Cd69 O70 2.325 . S
O70 Cd69 2.325 . S
O70 C71 1.232 . S
C71 O70 1.232 . S
C71 O72 1.218 . S
O72 C71 1.218 . S
C73 O66 1.279 . S
C73 O68 1.255 . S
C74 O75 1.258 1_545 S
C74 O76 1.256 . S
O75 Cd67 2.381 1_565 S
O75 C74 1.258 1_565 S
O76 Cd67 2.378 . S
O76 C74 1.256 . S
O77 Cd78 2.300 . S
O77 C84 1.275 . S
Cd78 O77 2.300 . S
Cd78 O86 2.381 . S
Cd78 O87 2.378 . S
O79 Cd80 2.375 1_554 S
O79 C84 1.255 . S
Cd80 O79 2.375 1_556 S
Cd80 O81 2.325 . S
O81 Cd80 2.325 . S
O81 C82 1.232 . S
C82 O81 1.232 . S
C82 O83 1.218 . S
O83 C82 1.218 . S
C84 O77 1.275 . S
C84 O79 1.255 . S
C85 O86 1.258 . S
C85 O87 1.256 . S
O86 Cd78 2.381 . S
O86 C85 1.258 . S
O87 Cd78 2.378 . S
O87 C85 1.256 . S
La88 C90 2.928 . S
La88 O108 2.521 . S
La88 O109 2.628 . S
La88 O110 2.554 . S
La88 O111 2.757 1_565 S
La88 O112 2.470 . S
La88 O117 2.482 1_455 S
La88 O119 2.503 1_565 S
La89 C99 2.928 . S
La89 O111 2.482 1_655 S
La89 O113 2.503 1_545 S
La89 O114 2.521 . S
La89 O115 2.628 1_655 S
La89 O116 2.554 . S
La89 O117 2.757 1_545 S
La89 O118 2.470 . S
C90 La88 2.928 . S
C90 C91 1.503 . S
C90 O108 1.261 . S
C90 O109 1.243 . S
C91 C90 1.503 . S
C91 C92 1.394 . S
C91 C96 1.373 . S
C92 C91 1.394 . S
C92 C93 1.380 . S
C92 H120 0.930 . S
C93 C92 1.380 . S
C93 C94 1.376 . S
C93 H121 0.930 . S
C94 C93 1.376 . S
C94 C95 1.370 . S
C95 C94 1.370 . S
C95 C96 1.396 . S
C95 H122 0.929 1_455 S
C96 C91 1.373 . S
C96 C95 1.396 . S
C96 H123 0.929 1_455 S
C97 O110 1.230 1_545 S
C97 O111 1.296 . S
C98 O112 1.258 1_655 S
C98 O113 1.256 . S
C99 La89 2.928 . S
C99 C100 1.503 . S
C99 O114 1.261 . S
C99 O115 1.243 1_655 S
C100 C99 1.503 . S
C100 C101 1.394 . S
C100 C105 1.422 . S
C101 C100 1.394 . S
C101 C102 1.380 . S
C101 H124 0.930 . S
C102 C101 1.380 . S
C102 C103 1.376 . S
C102 H125 0.930 . S
C103 C102 1.376 . S
C103 C104 1.370 . S
C104 C103 1.370 . S
C104 C105 1.403 . S
C104 H126 0.929 1_655 S
C105 C100 1.422 . S
C105 C104 1.403 . S
C105 H127 0.874 1_655 S
C106 O116 1.240 . S
C106 O117 1.289 1_545 S
C107 O118 1.258 1_455 S
C107 O119 1.256 . S
O108 La88 2.521 . S
O108 C90 1.261 . S
O109 La88 2.628 . S
O109 C90 1.243 . S
O110 La88 2.554 . S
O110 C97 1.230 1_565 S
O111 La88 2.757 1_545 S
O111 La89 2.482 1_455 S
O111 C97 1.296 . S
O112 La88 2.470 . S
O112 C98 1.258 1_455 S
O113 La89 2.503 1_565 S
O113 C98 1.256 . S
O114 La89 2.521 . S
O114 C99 1.261 . S
O115 La89 2.628 1_455 S
O115 C99 1.243 1_455 S
O116 La89 2.554 . S
O116 C106 1.240 . S
O117 La88 2.482 1_655 S
O117 La89 2.757 1_565 S
O117 C106 1.289 1_565 S
O118 La89 2.470 . S
O118 C107 1.258 1_655 S
O119 La88 2.503 1_545 S
O119 C107 1.256 . S
H120 C92 0.930 . S
H121 C93 0.930 . S
H122 C95 0.929 1_655 S
H123 C96 0.929 1_655 S
H124 C101 0.930 . S
H125 C102 0.930 . S
H126 C104 0.929 1_455 S
H127 C105 0.874 1_455 S
La128 C130 2.928 . S
La128 O148 2.521 . S
La128 O149 2.646 . S
La128 O150 2.554 . S
La128 O151 2.757 . S
La128 O152 2.470 . S
La128 O157 2.482 1_545 S
La128 O159 2.503 . S
La129 C139 2.928 . S
La129 O151 2.482 1_565 S
La129 O153 2.503 . S
La129 O154 2.521 . S
La129 O155 2.628 1_565 S
La129 O156 2.554 . S
La129 O157 2.757 . S
La129 O158 2.470 . S
C130 La128 2.928 . S
C130 C131 1.503 . S
C130 O148 1.261 . S
C130 O149 1.286 . S
C131 C130 1.503 . S
C131 C132 1.394 . S
C131 C136 1.373 . S
C132 C131 1.394 . S
C132 C133 1.380 . S
C132 H160 0.930 . S
C133 C132 1.380 . S
C133 C134 1.376 . S
C133 H161 0.930 . S
C134 C133 1.376 . S
C134 C135 1.370 . S
C135 C134 1.370 . S
C135 C136 1.396 . S
C135 H162 0.929 1_545 S
C136 C131 1.373 . S
C136 C135 1.396 . S
C136 H163 0.929 1_545 S
C137 O150 1.240 . S
C137 O151 1.289 . S
C138 O152 1.258 1_565 S
C138 O153 1.256 . S
C139 La129 2.928 . S
C139 C140 1.503 . S
C139 O154 1.261 . S
C139 O155 1.243 1_565 S
C140 C139 1.503 . S
C140 C141 1.394 . S
C140 C145 1.373 . S
C141 C140 1.394 . S
C141 C142 1.380 . S
C141 H164 0.930 . S
C142 C141 1.380 . S
C142 C143 1.376 . S
C142 H165 0.930 . S
C143 C142 1.376 . S
C143 C144 1.370 . S
C144 C143 1.370 . S
C144 C145 1.396 . S
C144 H166 0.929 1_565 S
C145 C140 1.373 . S
C145 C144 1.396 . S
C145 H167 0.929 1_565 S
C146 O156 1.240 . S
C146 O157 1.289 . S
C147 O158 1.258 1_545 S
C147 O159 1.256 . S
O148 La128 2.521 . S
O148 C130 1.261 . S
O149 La128 2.646 . S
O149 C130 1.286 . S
O150 La128 2.554 . S
O150 C137 1.240 . S
O151 La128 2.757 . S
O151 La129 2.482 1_545 S
O151 C137 1.289 . S
O152 La128 2.470 . S
O152 C138 1.258 1_545 S
O153 La129 2.503 . S
O153 C138 1.256 . S
O154 La129 2.521 . S
O154 C139 1.261 . S
O155 La129 2.628 1_545 S
O155 C139 1.243 1_545 S
O156 La129 2.554 . S
O156 C146 1.240 . S
O157 La128 2.482 1_565 S
O157 La129 2.757 . S
O157 C146 1.289 . S
O158 La129 2.470 . S
O158 C147 1.258 1_565 S
O159 La128 2.503 . S
O159 C147 1.256 . S
H160 C132 0.930 . S
H161 C133 0.930 . S
H162 C135 0.929 1_565 S
H163 C136 0.929 1_565 S
H164 C141 0.930 . S
H165 C142 0.930 . S
H166 C144 0.929 1_545 S
H167 C145 0.929 1_545 S
La168 C170 2.928 . S
La168 O188 2.521 . S
La168 O189 2.628 . S
La168 O190 2.554 . S
La168 O191 2.757 . S
La168 O192 2.470 . S
La168 O197 2.482 . S
La168 O199 2.503 . S
La169 C179 2.928 . S
La169 O191 2.482 . S
La169 O193 2.503 . S
La169 O194 2.521 . S
La169 O195 2.628 . S
La169 O196 2.554 . S
La169 O197 2.757 . S
La169 O198 2.470 . S
C170 La168 2.928 . S
C170 C171 1.503 . S
C170 O188 1.261 . S
C170 O189 1.243 . S
C171 C170 1.503 . S
C171 C172 1.394 . S
C171 C176 1.373 . S
C172 C171 1.394 . S
C172 C173 1.380 . S
C172 H200 0.930 . S
C173 C172 1.380 . S
C173 C174 1.376 . S
C173 H201 0.930 . S
C174 C173 1.376 . S
C174 C175 1.370 . S
C175 C174 1.370 . S
C175 C176 1.396 . S
C175 H202 0.929 . S
C176 C171 1.373 . S
C176 C175 1.396 . S
C176 H203 0.929 . S
C177 O190 1.240 . S
C177 O191 1.289 . S
C178 O192 1.258 . S
C178 O193 1.256 . S
C179 La169 2.928 . S
C179 C180 1.503 . S
C179 O194 1.261 . S
C179 O195 1.243 . S
C180 C179 1.503 . S
C180 C181 1.394 . S
C180 C185 1.373 . S
C181 C180 1.394 . S
C181 C182 1.380 . S
C181 H204 0.930 . S
C182 C181 1.380 . S
C182 C183 1.376 . S
C182 H205 0.930 . S
C183 C182 1.376 . S
C183 C184 1.370 . S
C184 C183 1.370 . S
C184 C185 1.396 . S
C184 H206 0.929 . S
C185 C180 1.373 . S
C185 C184 1.396 . S
C185 H207 0.929 . S
C186 O196 1.240 . S
C186 O197 1.289 . S
C187 O198 1.258 . S
C187 O199 1.256 . S
O188 La168 2.521 . S
O188 C170 1.261 . S
O189 La168 2.628 . S
O189 C170 1.243 . S
O190 La168 2.554 . S
O190 C177 1.240 . S
O191 La168 2.757 . S
O191 La169 2.482 . S
O191 C177 1.289 . S
O192 La168 2.470 . S
O192 C178 1.258 . S
O193 La169 2.503 . S
O193 C178 1.256 . S
O194 La169 2.521 . S
O194 C179 1.261 . S
O195 La169 2.628 . S
O195 C179 1.243 . S
O196 La169 2.554 . S
O196 C186 1.240 . S
O197 La168 2.482 . S
O197 La169 2.757 . S
O197 C186 1.289 . S
O198 La169 2.470 . S
O198 C187 1.258 . S
O199 La168 2.503 . S
O199 C187 1.256 . S
H200 C172 0.930 . S
H201 C173 0.930 . S
H202 C175 0.929 . S
H203 C176 0.929 . S
H204 C181 0.930 . S
H205 C182 0.930 . S
H206 C184 0.929 . S
H207 C185 0.929 . S
La208 C210 2.928 . S
La208 O228 2.521 . S
La208 O229 2.628 . S
La208 O230 2.554 . S
La208 O231 2.757 1_655 S
La208 O232 2.470 . S
La208 O237 2.482 . S
La208 O239 2.503 1_655 S
La209 C219 2.928 . S
La209 O231 2.482 . S
La209 O233 2.503 1_455 S
La209 O234 2.521 . S
La209 O235 2.628 . S
La209 O236 2.554 . S
La209 O237 2.757 1_455 S
La209 O238 2.470 . S
C210 La208 2.928 . S
C210 C211 1.503 . S
C210 O228 1.261 . S
C210 O229 1.243 . S
C211 C210 1.503 . S
C211 C212 1.394 . S
C211 C216 1.373 . S
C212 C211 1.394 . S
C212 C213 1.380 . S
C212 H240 0.930 . S
C213 C212 1.380 . S
C213 C214 1.376 . S
C213 H241 0.930 . S
C214 C213 1.376 . S
C214 C215 1.370 . S
C215 C214 1.370 . S
C215 C216 1.396 . S
C215 H242 0.929 . S
C216 C211 1.373 . S
C216 C215 1.396 . S
C216 H243 0.929 . S
C217 O230 1.214 1_455 S
C217 O231 1.308 . S
C218 O232 1.258 . S
C218 O233 1.256 . S
C219 La209 2.928 . S
C219 C220 1.503 . S
C219 O234 1.261 . S
C219 O235 1.243 . S
C220 C219 1.503 . S
C220 C221 1.394 . S
C220 C225 1.373 . S
C221 C220 1.394 . S
C221 C222 1.380 . S
C221 H244 0.930 . S
C222 C221 1.380 . S
C222 C223 1.376 . S
C222 H245 0.930 . S
C223 C222 1.376 . S
C223 C224 1.370 . S
C224 C223 1.370 . S
C224 C225 1.396 . S
C224 H246 0.929 . S
C225 C220 1.373 . S
C225 C224 1.396 . S
C225 H247 0.929 . S
C226 O236 1.240 . S
C226 O237 1.289 1_455 S
C227 O238 1.258 . S
C227 O239 1.256 . S
O228 La208 2.521 . S
O228 C210 1.261 . S
O229 La208 2.628 . S
O229 C210 1.243 . S
O230 La208 2.554 . S
O230 C217 1.214 1_655 S
O231 La208 2.757 1_455 S
O231 La209 2.482 . S
O231 C217 1.308 . S
O232 La208 2.470 . S
O232 C218 1.258 . S
O233 La209 2.503 1_655 S
O233 C218 1.256 . S
O234 La209 2.521 . S
O234 C219 1.261 . S
O235 La209 2.628 . S
O235 C219 1.243 . S
O236 La209 2.554 . S
O236 C226 1.240 . S
O237 La208 2.482 . S
O237 La209 2.757 1_655 S
O237 C226 1.289 1_655 S
O238 La209 2.470 . S
O238 C227 1.258 . S
O239 La208 2.503 1_455 S
O239 C227 1.256 . S
H240 C212 0.930 . S
H241 C213 0.930 . S
H242 C215 0.929 . S
H243 C216 0.929 . S
H244 C221 0.930 . S
H245 C222 0.930 . S
H246 C224 0.929 . S
H247 C225 0.929 . S
H248 C266 0.951 . S
H249 C268 0.951 . S
H250 C270 0.950 . S
H251 C271 0.950 . S
H252 C273 0.950 . S
H253 C276 0.950 . S
H254 C277 0.950 . S
H255 C279 0.950 . S
H256 C280 0.904 1_545 S
H257 C281 0.951 . S
H258 C283 0.951 . S
H259 C285 0.950 . S
H260 C286 0.950 . S
H261 C288 0.955 . S
H262 C291 0.950 . S
H263 C292 0.950 . S
H264 C294 0.950 . S
H265 C295 0.950 1_565 S
C266 H248 0.951 . S
C266 C267 1.366 . S
C266 C268 1.388 . S
C267 C266 1.366 . S
C267 C271 1.385 1_545 S
C268 H249 0.951 . S
C268 C266 1.388 . S
C268 C269 1.366 . S
C269 C268 1.366 . S
C269 C270 1.414 1_545 S
C269 C272 1.499 . S
C270 H250 0.950 . S
C270 C269 1.414 1_565 S
C270 C271 1.374 . S
C271 H251 0.950 . S
C271 C267 1.385 1_565 S
C271 C270 1.374 . S
C272 C269 1.499 . S
C272 C273 1.373 . S
C272 C274 1.389 1_545 S
C273 H252 0.950 . S
C273 C272 1.373 . S
C273 C289 1.377 . S
C274 C272 1.389 1_565 S
C274 C275 1.524 . S
C274 C288 1.378 . S
C275 C274 1.524 . S
C275 C276 1.397 . S
C275 C280 1.389 . S
C276 H253 0.950 . S
C276 C275 1.397 . S
C276 C277 1.334 . S
C277 H254 0.950 . S
C277 C276 1.334 . S
C277 C278 1.287 . S
C278 C277 1.287 . S
C278 C279 1.524 . S
C278 H297 0.913 . S
C279 H255 0.950 . S
C279 C278 1.524 . S
C279 C280 1.438 . S
C280 H256 0.904 1_565 S
C280 C275 1.389 . S
C280 C279 1.438 . S
C281 H257 0.951 . S
C281 C282 1.366 1_565 S
C281 C283 1.388 . S
C282 C281 1.366 1_545 S
C282 C286 1.385 . S
C283 H258 0.951 . S
C283 C281 1.388 . S
C283 C284 1.366 1_565 S
C284 C283 1.366 1_545 S
C284 C285 1.414 . S
C284 C287 1.499 . S
C285 H259 0.950 . S
C285 C284 1.414 . S
C285 C286 1.374 . S
C286 H260 0.950 . S
C286 C282 1.385 . S
C286 C285 1.374 . S
C287 C284 1.499 . S
C287 C288 1.368 1_545 S
C287 C289 1.389 . S
C288 H261 0.955 . S
C288 C274 1.378 . S
C288 C287 1.368 1_565 S
C289 C273 1.377 . S
C289 C287 1.389 . S
C289 C290 1.524 . S
C290 C289 1.524 . S
C290 C291 1.397 . S
C290 C295 1.363 . S
C291 H262 0.950 . S
C291 C290 1.397 . S
C291 C292 1.334 . S
C292 H263 0.950 . S
C292 C291 1.334 . S
C292 C293 1.287 . S
C293 C292 1.287 . S
C293 C294 1.524 . S
C293 H296 0.999 . S
C294 H264 0.950 . S
C294 C293 1.524 . S
C294 C295 1.415 . S
C295 H265 0.950 1_545 S
C295 C290 1.363 . S
C295 C294 1.415 . S
H296 C293 0.999 . S
H297 C278 0.913 . S
H298 C316 0.951 . S
H299 C318 0.951 . S
H300 C320 0.950 . S
H301 C321 0.950 . S
H302 C323 0.950 . S
H303 C326 0.950 . S
H304 C327 0.950 . S
H305 C329 0.950 . S
H306 C330 0.950 . S
H307 C331 0.951 . S
H308 C333 0.951 . S
H309 C335 0.950 . S
H310 C336 0.950 . S
H311 C338 0.950 . S
H312 C341 0.950 . S
H313 C342 0.950 . S
H314 C344 0.950 . S
H315 C345 0.950 . S
C316 H298 0.951 . S
C316 C317 1.366 . S
C316 C318 1.388 . S
C317 C316 1.366 . S
C317 C321 1.385 . S
C318 H299 0.951 . S
C318 C316 1.388 . S
C318 C319 1.366 . S
C319 C318 1.366 . S
C319 C320 1.414 . S
C319 C322 1.499 . S
C320 H300 0.950 . S
C320 C319 1.414 . S
C320 C321 1.374 . S
C321 H301 0.950 . S
C321 C317 1.385 . S
C321 C320 1.374 . S
C322 C319 1.499 . S
C322 C323 1.373 . S
C322 C324 1.389 . S
C323 H302 0.950 . S
C323 C322 1.373 . S
C323 C339 1.377 . S
C324 C322 1.389 . S
C324 C325 1.524 . S
C324 C338 1.377 . S
C325 C324 1.524 . S
C325 C326 1.397 . S
C325 C330 1.363 . S
C326 H303 0.950 . S
C326 C325 1.397 . S
C326 C327 1.334 . S
C327 H304 0.950 . S
C327 C326 1.334 . S
C327 C328 1.287 . S
C328 C327 1.287 . S
C328 C329 1.524 . S
C328 H347 0.913 . S
C329 H305 0.950 . S
C329 C328 1.524 . S
C329 C330 1.415 . S
C330 H306 0.950 . S
C330 C325 1.363 . S
C330 C329 1.415 . S
C331 H307 0.951 . S
C331 C332 1.366 . S
C331 C333 1.388 . S
C332 C331 1.366 . S
C332 C336 1.385 . S
C333 H308 0.951 . S
C333 C331 1.388 . S
C333 C334 1.366 . S
C334 C333 1.366 . S
C334 C335 1.414 . S
C334 C337 1.499 . S
C335 H309 0.950 . S
C335 C334 1.414 . S
C335 C336 1.374 . S
C336 H310 0.950 . S
C336 C332 1.385 . S
C336 C335 1.374 . S
C337 C334 1.499 . S
C337 C338 1.373 . S
C337 C339 1.389 . S
C338 H311 0.950 . S
C338 C324 1.377 . S
C338 C337 1.373 . S
C339 C323 1.377 . S
C339 C337 1.389 . S
C339 C340 1.524 . S
C340 C339 1.524 . S
C340 C341 1.397 . S
C340 C345 1.363 . S
C341 H312 0.950 . S
C341 C340 1.397 . S
C341 C342 1.334 . S
C342 H313 0.950 . S
C342 C341 1.334 . S
C342 C343 1.287 . S
C343 C342 1.287 . S
C343 C344 1.524 . S
C343 H346 0.999 . S
C344 H314 0.950 . S
C344 C343 1.524 . S
C344 C345 1.415 . S
C345 H315 0.950 . S
C345 C340 1.363 . S
C345 C344 1.415 . S
H346 C343 0.999 . S
H347 C328 0.913 . S
H348 C366 0.951 . S
H349 C368 0.951 . S
H350 C370 0.950 . S
H351 C371 0.950 . S
H352 C373 0.950 . S
H353 C376 0.950 . S
H354 C377 0.950 . S
H355 C379 0.950 . S
H356 C380 0.950 . S
H357 C381 0.951 . S
H358 C383 0.951 . S
H359 C385 0.950 . S
H360 C386 0.950 . S
H361 C388 0.950 . S
H362 C391 0.950 . S
H363 C392 0.950 . S
H364 C394 0.950 . S
H365 C395 0.950 . S
C366 H348 0.951 . S
C366 C367 1.366 . S
C366 C368 1.388 . S
C367 C366 1.366 . S
C367 C371 1.385 . S
C368 H349 0.951 . S
C368 C366 1.388 . S
C368 C369 1.366 . S
C369 C368 1.366 . S
C369 C370 1.414 . S
C369 C372 1.499 . S
C370 H350 0.950 . S
C370 C369 1.414 . S
C370 C371 1.374 . S
C371 H351 0.950 . S
C371 C367 1.385 . S
C371 C370 1.374 . S
C372 C369 1.499 . S
C372 C373 1.373 . S
C372 C374 1.389 . S
C373 H352 0.950 . S
C373 C372 1.373 . S
C373 C389 1.377 . S
C374 C372 1.389 . S
C374 C375 1.524 . S
C374 C388 1.377 . S
C375 C374 1.524 . S
C375 C376 1.397 . S
C375 C380 1.363 . S
C376 H353 0.950 . S
C376 C375 1.397 . S
C376 C377 1.334 . S
C377 H354 0.950 . S
C377 C376 1.334 . S
C377 C378 1.287 . S
C378 C377 1.287 . S
C378 C379 1.524 . S
C378 H397 0.913 . S
C379 H355 0.950 . S
C379 C378 1.524 . S
C379 C380 1.415 . S
C380 H356 0.950 . S
C380 C375 1.363 . S
C380 C379 1.415 . S
C381 H357 0.951 . S
C381 C382 1.366 . S
C381 C383 1.388 . S
C382 C381 1.366 . S
C382 C386 1.385 . S
C383 H358 0.951 . S
C383 C381 1.388 . S
C383 C384 1.366 . S
C384 C383 1.366 . S
C384 C385 1.414 . S
C384 C387 1.499 . S
C385 H359 0.950 . S
C385 C384 1.414 . S
C385 C386 1.374 . S
C386 H360 0.950 . S
C386 C382 1.385 . S
C386 C385 1.374 . S
C387 C384 1.499 . S
C387 C388 1.373 . S
C387 C389 1.389 . S
C388 H361 0.950 . S
C388 C374 1.377 . S
C388 C387 1.373 . S
C389 C373 1.377 . S
C389 C387 1.389 . S
C389 C390 1.524 . S
C390 C389 1.524 . S
C390 C391 1.397 . S
C390 C395 1.363 . S
C391 H362 0.950 . S
C391 C390 1.397 . S
C391 C392 1.334 . S
C392 H363 0.950 . S
C392 C391 1.334 . S
C392 C393 1.287 . S
C393 C392 1.287 . S
C393 C394 1.524 . S
C393 H396 0.999 . S
C394 H364 0.950 . S
C394 C393 1.524 . S
C394 C395 1.415 . S
C395 H365 0.950 . S
C395 C390 1.363 . S
C395 C394 1.415 . S
H396 C393 0.999 . S
H397 C378 0.913 . S
H398 C416 0.951 . S
H399 C418 0.951 . S
H400 C420 0.950 . S
H401 C421 0.950 . S
H402 C423 0.950 . S
H403 C426 0.950 . S
H404 C427 0.950 . S
H405 C429 0.950 . S
H406 C430 0.950 . S
H407 C431 0.951 . S
H408 C433 0.951 . S
H409 C435 0.950 . S
H410 C436 0.950 . S
H411 C438 0.950 . S
H412 C441 0.950 . S
H413 C442 0.950 . S
H414 C444 0.950 . S
H415 C445 0.950 . S
C416 H398 0.951 . S
C416 C417 1.366 1_655 S
C416 C418 1.388 . S
C417 C416 1.366 1_455 S
C417 C421 1.385 . S
C418 H399 0.951 . S
C418 C416 1.388 . S
C418 C419 1.366 1_655 S
C419 C418 1.366 1_455 S
C419 C420 1.414 . S
C419 C422 1.499 . S
C420 H400 0.950 . S
C420 C419 1.414 . S
C420 C421 1.374 . S
C421 H401 0.950 . S
C421 C417 1.385 . S
C421 C420 1.374 . S
C422 C419 1.499 . S
C422 C423 1.373 . S
C422 C424 1.389 1_455 S
C423 H402 0.950 . S
C423 C422 1.373 . S
C423 C439 1.377 . S
C424 C422 1.389 1_655 S
C424 C425 1.524 . S
C424 C438 1.377 . S
C425 C424 1.524 . S
C425 C426 1.397 . S
C425 C430 1.363 . S
C426 H403 0.950 . S
C426 C425 1.397 . S
C426 C427 1.334 . S
C427 H404 0.950 . S
C427 C426 1.334 . S
C427 C428 1.287 . S
C428 C427 1.287 . S
C428 C429 1.524 . S
C428 H447 0.913 . S
C429 H405 0.950 . S
C429 C428 1.524 . S
C429 C430 1.415 . S
C430 H406 0.950 . S
C430 C425 1.363 . S
C430 C429 1.415 . S
C431 H407 0.951 . S
C431 C432 1.366 . S
C431 C433 1.388 . S
C432 C431 1.366 . S
C432 C436 1.385 1_455 S
C433 H408 0.951 . S
C433 C431 1.388 . S
C433 C434 1.366 . S
C434 C433 1.366 . S
C434 C435 1.414 1_455 S
C434 C437 1.499 . S
C435 H409 0.950 . S
C435 C434 1.414 1_655 S
C435 C436 1.374 . S
C436 H410 0.950 . S
C436 C432 1.385 1_655 S
C436 C435 1.374 . S
C437 C434 1.499 . S
C437 C438 1.373 1_455 S
C437 C439 1.389 . S
C438 H411 0.950 . S
C438 C424 1.377 . S
C438 C437 1.373 1_655 S
C439 C423 1.377 . S
C439 C437 1.389 . S
C439 C440 1.524 . S
C440 C439 1.524 . S
C440 C441 1.397 . S
C440 C445 1.363 . S
C441 H412 0.950 . S
C441 C440 1.397 . S
C441 C442 1.334 . S
C442 H413 0.950 . S
C442 C441 1.334 . S
C442 C443 1.287 . S
C443 C442 1.287 . S
C443 C444 1.524 . S
C443 H446 0.999 . S
C444 H414 0.950 . S
C444 C443 1.524 . S
C444 C445 1.415 . S
C445 H415 0.950 . S
C445 C440 1.363 . S
C445 C444 1.415 . S
H446 C443 0.999 . S
H447 C428 0.913 . S
H448 C466 0.951 . S
H449 C468 0.951 . S
H450 C470 0.950 . S
H451 C471 0.950 . S
H452 C473 0.950 . S
H453 C476 0.950 . S
H454 C477 0.950 1_554 S
H455 C479 0.950 . S
H456 C480 0.950 . S
H457 C481 0.951 . S
H458 C483 0.951 . S
H459 C485 0.950 . S
H460 C486 0.950 . S
H461 C488 0.950 . S
H462 C491 0.950 . S
H463 C492 0.950 . S
H464 C494 0.950 . S
H465 C495 0.950 . S
C466 H448 0.951 . S
C466 C467 1.366 1_545 S
C466 C468 1.388 . S
C467 C466 1.366 1_565 S
C467 C471 1.385 . S
C468 H449 0.951 . S
C468 C466 1.388 . S
C468 C469 1.366 1_545 S
C469 C468 1.366 1_565 S
C469 C470 1.414 . S
C469 C472 1.499 . S
C470 H450 0.950 . S
C470 C469 1.414 . S
C470 C471 1.374 . S
C471 H451 0.950 . S
C471 C467 1.385 . S
C471 C470 1.374 . S
C472 C469 1.499 . S
C472 C473 1.373 1_565 S
C472 C474 1.389 1_554 S
C473 H452 0.950 . S
C473 C472 1.373 1_545 S
C473 C489 1.377 . S
C474 C472 1.389 1_556 S
C474 C475 1.524 . S
C474 C488 1.377 . S
C475 C474 1.524 . S
C475 C476 1.397 1_556 S
C475 C480 1.363 . S
C476 H453 0.950 . S
C476 C475 1.397 1_554 S
C476 C477 1.334 1_554 S
C477 H454 0.950 1_556 S
C477 C476 1.334 1_556 S
C477 C478 1.287 . S
C478 C477 1.287 . S
C478 C479 1.524 . S
C478 H497 0.913 . S
C479 H455 0.950 . S
C479 C478 1.524 . S
C479 C480 1.415 . S
C480 H456 0.950 . S
C480 C475 1.363 . S
C480 C479 1.415 . S
C481 H457 0.951 . S
C481 C482 1.371 . S
C481 C483 1.388 . S
C482 C481 1.371 . S
C482 C486 1.379 1_565 S
C483 H458 0.951 . S
C483 C481 1.388 . S
C483 C484 1.362 1_565 S
C484 C483 1.362 1_545 S
C484 C485 1.417 . S
C484 C487 1.499 . S
C485 H459 0.950 . S
C485 C484 1.417 . S
C485 C486 1.374 . S
C486 H460 0.950 . S
C486 C482 1.379 1_545 S
C486 C485 1.374 . S
C487 C484 1.499 . S
C487 C488 1.365 1_545 S
C487 C489 1.397 1_556 S
C488 H461 0.950 . S
C488 C474 1.377 . S
C488 C487 1.365 1_565 S
C489 C473 1.377 . S
C489 C487 1.397 1_554 S
C489 C490 1.524 . S
C490 C489 1.524 . S
C490 C491 1.397 1_554 S
C490 C495 1.363 . S
C491 H462 0.950 . S
C491 C490 1.397 1_556 S
C491 C492 1.334 . S
C492 H463 0.950 . S
C492 C491 1.334 . S
C492 C493 1.287 1_556 S
C493 C492 1.287 1_554 S
C493 C494 1.524 . S
C493 H496 0.999 . S
C494 H464 0.950 . S
C494 C493 1.524 . S
C494 C495 1.415 . S
C495 H465 0.950 . S
C495 C490 1.363 . S
C495 C494 1.415 . S
H496 C493 0.999 . S
H497 C478 0.913 . S
H498 C516 0.951 . S
H499 C518 0.951 . S
H500 C520 0.950 . S
H501 C521 0.950 . S
H502 C523 0.950 . S
H503 C526 0.950 . S
H504 C527 0.950 . S
H505 C529 0.950 . S
H506 C530 0.950 . S
H507 C531 0.951 . S
H508 C533 0.951 . S
H509 C535 0.950 . S
H510 C536 0.950 . S
H511 C538 0.950 . S
H512 C541 0.950 . S
H513 C542 0.950 . S
H514 C544 0.950 . S
H515 C545 0.950 . S
C516 H498 0.951 . S
C516 C517 1.366 . S
C516 C518 1.388 . S
C517 C516 1.366 . S
C517 C521 1.385 . S
C518 H499 0.951 . S
C518 C516 1.388 . S
C518 C519 1.366 . S
C519 C518 1.366 . S
C519 C520 1.414 . S
C519 C522 1.499 . S
C520 H500 0.950 . S
C520 C519 1.414 . S
C520 C521 1.374 . S
C521 H501 0.950 . S
C521 C517 1.385 . S
C521 C520 1.374 . S
C522 C519 1.499 . S
C522 C523 1.373 . S
C522 C524 1.389 1_554 S
C523 H502 0.950 . S
C523 C522 1.373 . S
C523 C539 1.377 1_554 S
C524 C522 1.389 1_556 S
C524 C525 1.524 . S
C524 C538 1.377 . S
C525 C524 1.524 . S
C525 C526 1.397 . S
C525 C530 1.363 . S
C526 H503 0.950 . S
C526 C525 1.397 . S
C526 C527 1.334 . S
C527 H504 0.950 . S
C527 C526 1.334 . S
C527 C528 1.287 . S
C528 C527 1.287 . S
C528 C529 1.524 . S
C528 H547 0.913 . S
C529 H505 0.950 . S
C529 C528 1.524 . S
C529 C530 1.415 . S
C530 H506 0.950 . S
C530 C525 1.363 . S
C530 C529 1.415 . S
C531 H507 0.951 . S
C531 C532 1.366 . S
C531 C533 1.388 . S
C532 C531 1.366 . S
C532 C536 1.385 . S
C533 H508 0.951 . S
C533 C531 1.388 . S
C533 C534 1.366 . S
C534 C533 1.366 . S
C534 C535 1.414 . S
C534 C537 1.499 . S
C535 H509 0.950 . S
C535 C534 1.414 . S
C535 C536 1.374 . S
C536 H510 0.950 . S
C536 C532 1.385 . S
C536 C535 1.374 . S
C537 C534 1.499 . S
C537 C538 1.373 . S
C537 C539 1.389 . S
C538 H511 0.950 . S
C538 C524 1.377 . S
C538 C537 1.373 . S
C539 C523 1.377 1_556 S
C539 C537 1.389 . S
C539 C540 1.524 1_556 S
C540 C539 1.524 1_554 S
C540 C541 1.397 . S
C540 C545 1.363 . S
C541 H512 0.950 . S
C541 C540 1.397 . S
C541 C542 1.334 . S
C542 H513 0.950 . S
C542 C541 1.334 . S
C542 C543 1.287 . S
C543 C542 1.287 . S
C543 C544 1.524 . S
C543 H546 0.999 . S
C544 H514 0.950 . S
C544 C543 1.524 . S
C544 C545 1.415 . S
C545 H515 0.950 . S
C545 C540 1.363 . S
C545 C544 1.415 . S
H546 C543 0.999 . S
H547 C528 0.913 . S
H548 C566 0.951 . S
H549 C568 0.951 . S
H550 C570 0.950 . S
H551 C571 0.950 . S
H552 C573 0.950 . S
H553 C576 0.950 . S
H554 C577 0.950 . S
H555 C579 0.950 . S
H556 C580 0.950 . S
H557 C581 0.951 . S
H558 C583 0.951 . S
H559 C585 0.950 . S
H560 C586 0.950 . S
H561 C588 0.950 1_554 S
H562 C591 0.950 . S
H563 C592 0.950 . S
H564 C594 0.950 . S
H565 C595 0.950 . S
C566 H548 0.951 . S
C566 C567 1.366 . S
C566 C568 1.388 . S
C567 C566 1.366 . S
C567 C571 1.385 . S
C568 H549 0.951 . S
C568 C566 1.388 . S
C568 C569 1.366 . S
C569 C568 1.366 . S
C569 C570 1.414 . S
C569 C572 1.499 . S
C570 H550 0.950 . S
C570 C569 1.414 . S
C570 C571 1.374 . S
C571 H551 0.950 . S
C571 C567 1.385 . S
C571 C570 1.374 . S
C572 C569 1.499 . S
C572 C573 1.373 1_554 S
C572 C574 1.389 . S
C573 H552 0.950 . S
C573 C572 1.373 1_556 S
C573 C589 1.377 . S
C574 C572 1.389 . S
C574 C575 1.524 . S
C574 C588 1.377 1_554 S
C575 C574 1.524 . S
C575 C576 1.397 . S
C575 C580 1.363 . S
C576 H553 0.950 . S
C576 C575 1.397 . S
C576 C577 1.334 . S
C577 H554 0.950 . S
C577 C576 1.334 . S
C577 C578 1.287 . S
C578 C577 1.287 . S
C578 C579 1.524 . S
C578 H597 0.913 . S
C579 H555 0.950 . S
C579 C578 1.524 . S
C579 C580 1.415 . S
C580 H556 0.950 . S
C580 C575 1.363 . S
C580 C579 1.415 . S
C581 H557 0.951 . S
C581 C582 1.366 . S
C581 C583 1.388 . S
C582 C581 1.366 . S
C582 C586 1.385 . S
C583 H558 0.951 . S
C583 C581 1.388 . S
C583 C584 1.366 . S
C584 C583 1.366 . S
C584 C585 1.414 . S
C584 C587 1.499 . S
C585 H559 0.950 . S
C585 C584 1.414 . S
C585 C586 1.374 . S
C586 H560 0.950 . S
C586 C582 1.385 . S
C586 C585 1.374 . S
C587 C584 1.499 . S
C587 C588 1.373 . S
C587 C589 1.389 . S
C588 H561 0.950 1_556 S
C588 C574 1.377 1_556 S
C588 C587 1.373 . S
C589 C573 1.377 . S
C589 C587 1.389 . S
C589 C590 1.524 . S
C590 C589 1.524 . S
C590 C591 1.397 . S
C590 C595 1.363 . S
C591 H562 0.950 . S
C591 C590 1.397 . S
C591 C592 1.334 . S
C592 H563 0.950 . S
C592 C591 1.334 . S
C592 C593 1.287 . S
C593 C592 1.287 . S
C593 C594 1.524 . S
C593 H596 0.999 . S
C594 H564 0.950 . S
C594 C593 1.524 . S
C594 C595 1.415 . S
C595 H565 0.950 . S
C595 C590 1.363 . S
C595 C594 1.415 . S
H596 C593 0.999 . S
H597 C578 0.913 . S
H598 C616 0.951 . S
H599 C618 0.951 . S
H600 C620 0.950 . S
H601 C621 0.950 . S
H602 C623 0.950 . S
H603 C626 0.953 . S
H604 C627 0.950 . S
H605 C629 0.950 . S
H606 C630 0.950 . S
H607 C631 0.951 . S
H608 C633 0.951 . S
H609 C635 0.950 . S
H610 C636 0.950 . S
H611 C638 0.950 . S
H612 C641 0.950 . S
H613 C642 0.950 . S
H614 C644 0.950 . S
H615 C645 0.950 . S
C616 H598 0.951 . S
C616 C617 1.366 1_455 S
C616 C618 1.388 . S
C617 C616 1.366 1_655 S
C617 C621 1.385 . S
C618 H599 0.951 . S
C618 C616 1.388 . S
C618 C619 1.355 1_455 S
C619 C618 1.355 1_655 S
C619 C620 1.426 . S
C619 C622 1.499 . S
C620 H600 0.950 . S
C620 C619 1.426 . S
C620 C621 1.374 . S
C621 H601 0.950 . S
C621 C617 1.385 . S
C621 C620 1.374 . S
C622 C619 1.499 . S
C622 C623 1.399 . S
C622 C624 1.364 1_655 S
C623 H602 0.950 . S
C623 C622 1.399 . S
C623 C639 1.377 1_554 S
C624 C622 1.364 1_455 S
C624 C625 1.524 . S
C624 C638 1.377 1_554 S
C625 C624 1.524 . S
C625 C626 1.397 . S
C625 C630 1.363 . S
C626 H603 0.953 . S
C626 C625 1.397 . S
C626 C627 1.334 . S
C627 H604 0.950 . S
C627 C626 1.334 . S
C627 C628 1.287 . S
C628 C627 1.287 . S
C628 C629 1.524 . S
C628 H647 0.913 . S
C629 H605 0.950 . S
C629 C628 1.524 . S
C629 C630 1.415 . S
C630 H606 0.950 . S
C630 C625 1.363 . S
C630 C629 1.415 . S
C631 H607 0.951 . S
C631 C632 1.368 1_655 S
C631 C633 1.388 . S
C632 C631 1.368 1_455 S
C632 C636 1.383 . S
C633 H608 0.951 . S
C633 C631 1.388 . S
C633 C634 1.404 . S
C634 C633 1.404 . S
C634 C635 1.375 1_655 S
C634 C637 1.499 . S
C635 H609 0.950 . S
C635 C634 1.375 1_455 S
C635 C636 1.374 . S
C636 H610 0.950 . S
C636 C632 1.383 . S
C636 C635 1.374 . S
C637 C634 1.499 . S
C637 C638 1.329 1_655 S
C637 C639 1.433 . S
C638 H611 0.950 . S
C638 C624 1.377 1_556 S
C638 C637 1.329 1_455 S
C639 C623 1.377 1_556 S
C639 C637 1.433 . S
C639 C640 1.524 . S
C640 C639 1.524 . S
C640 C641 1.397 . S
C640 C645 1.363 . S
C641 H612 0.950 . S
C641 C640 1.397 . S
C641 C642 1.334 . S
C642 H613 0.950 . S
C642 C641 1.334 . S
C642 C643 1.287 . S
C643 C642 1.287 . S
C643 C644 1.524 . S
C643 H646 0.999 . S
C644 H614 0.950 . S
C644 C643 1.524 . S
C644 C645 1.415 . S
C645 H615 0.950 . S
C645 C640 1.363 . S
C645 C644 1.415 . S
H646 C643 0.999 . S
H647 C628 0.913 . S
H648 C666 0.951 . S
H649 C668 0.951 . S
H650 C670 0.950 . S
H651 C671 0.950 . S
H652 C673 0.950 . S
H653 C676 0.950 . S
H654 C677 0.950 . S
H655 C679 0.950 . S
H656 C680 0.950 . S
H657 C681 0.951 1_455 S
H658 C683 0.951 1_455 S
H659 C685 0.950 . S
H660 C686 0.950 . S
H661 C688 0.950 . S
H662 C691 0.949 1_655 S
H663 C692 0.961 . S
H664 C694 0.950 . S
H665 C695 0.950 . S
C666 H648 0.951 . S
C666 C667 1.366 1_655 S
C666 C668 1.388 . S
C667 C666 1.366 1_455 S
C667 C671 1.385 . S
C668 H649 0.951 . S
C668 C666 1.388 . S
C668 C669 1.366 . S
C669 C668 1.366 . S
C669 C670 1.414 1_655 S
C669 C672 1.499 . S
C670 H650 0.950 . S
C670 C669 1.414 1_455 S
C670 C671 1.374 . S
C671 H651 0.950 . S
C671 C667 1.385 . S
C671 C670 1.374 . S
C672 C669 1.499 . S
C672 C673 1.373 1_655 S
C672 C674 1.389 . S
C673 H652 0.950 . S
C673 C672 1.373 1_455 S
C673 C689 1.389 . S
C674 C672 1.389 . S
C674 C675 1.524 . S
C674 C688 1.377 . S
C675 C674 1.524 . S
C675 C676 1.397 . S
C675 C680 1.363 . S
C676 H653 0.950 . S
C676 C675 1.397 . S
C676 C677 1.334 . S
C677 H654 0.950 . S
C677 C676 1.334 . S
C677 C678 1.287 . S
C678 C677 1.287 . S
C678 C679 1.524 . S
C678 H697 0.913 . S
C679 H655 0.950 . S
C679 C678 1.524 . S
C679 C680 1.415 . S
C680 H656 0.950 . S
C680 C675 1.363 . S
C680 C679 1.415 . S
C681 H657 0.951 1_655 S
C681 C682 1.366 . S
C681 C683 1.388 . S
C682 C681 1.366 . S
C682 C686 1.385 . S
C683 H658 0.951 1_655 S
C683 C681 1.388 . S
C683 C684 1.366 . S
C684 C683 1.366 . S
C684 C685 1.414 . S
C684 C687 1.499 . S
C685 H659 0.950 . S
C685 C684 1.414 . S
C685 C686 1.374 . S
C686 H660 0.950 . S
C686 C682 1.385 . S
C686 C685 1.374 . S
C687 C684 1.499 . S
C687 C688 1.373 . S
C687 C689 1.353 1_655 S
C688 H661 0.950 . S
C688 C674 1.377 . S
C688 C687 1.373 . S
C689 C673 1.389 . S
C689 C687 1.353 1_455 S
C689 C690 1.550 . S
C690 C689 1.550 . S
C690 C691 1.397 . S
C690 C695 1.363 . S
C691 H662 0.949 1_455 S
C691 C690 1.397 . S
C691 C692 1.334 . S
C692 H663 0.961 . S
C692 C691 1.334 . S
C692 C693 1.287 . S
C693 C692 1.287 . S
C693 C694 1.524 . S
C693 H696 0.999 . S
C694 H664 0.950 . S
C694 C693 1.524 . S
C694 C695 1.415 . S
C695 H665 0.950 . S
C695 C690 1.363 . S
C695 C694 1.415 . S
H696 C693 0.999 . S
H697 C678 0.913 . S
H698 C716 0.951 . S
H699 C718 0.951 . S
H700 C720 0.950 . S
H701 C721 0.950 . S
H702 C723 0.950 . S
H703 C726 0.950 . S
H704 C727 0.950 . S
H705 C729 0.950 . S
H706 C730 0.950 . S
H707 C731 0.951 1_545 S
H708 C733 0.951 1_545 S
H709 C735 0.950 . S
H710 C736 0.950 . S
H711 C738 0.950 . S
H712 C741 0.913 1_565 S
H713 C742 0.950 . S
H714 C744 0.950 . S
H715 C745 0.950 . S
C716 H698 0.951 . S
C716 C717 1.366 1_565 S
C716 C718 1.388 . S
C717 C716 1.366 1_545 S
C717 C721 1.385 . S
C718 H699 0.951 . S
C718 C716 1.388 . S
C718 C719 1.366 . S
C719 C718 1.366 . S
C719 C720 1.414 1_565 S
C719 C722 1.499 . S
C720 H700 0.950 . S
C720 C719 1.414 1_545 S
C720 C721 1.374 . S
C721 H701 0.950 . S
C721 C717 1.385 . S
C721 C720 1.374 . S
C722 C719 1.499 . S
C722 C723 1.373 1_565 S
C722 C724 1.389 . S
C723 H702 0.950 . S
C723 C722 1.373 1_545 S
C723 C739 1.377 . S
C724 C722 1.389 . S
C724 C725 1.524 . S
C724 C738 1.377 . S
C725 C724 1.524 . S
C725 C726 1.397 . S
C725 C730 1.363 . S
C726 H703 0.950 . S
C726 C725 1.397 . S
C726 C727 1.334 . S
C727 H704 0.950 . S
C727 C726 1.334 . S
C727 C728 1.287 . S
C728 C727 1.287 . S
C728 C729 1.524 . S
C728 H747 0.913 . S
C729 H705 0.950 . S
C729 C728 1.524 . S
C729 C730 1.415 . S
C730 H706 0.950 . S
C730 C725 1.363 . S
C730 C729 1.415 . S
C731 H707 0.951 1_565 S
C731 C732 1.366 . S
C731 C733 1.388 . S
C732 C731 1.366 . S
C732 C736 1.385 . S
C733 H708 0.951 1_565 S
C733 C731 1.388 . S
C733 C734 1.366 . S
C734 C733 1.366 . S
C734 C735 1.414 . S
C734 C737 1.499 . S
C735 H709 0.950 . S
C735 C734 1.414 . S
C735 C736 1.374 . S
C736 H710 0.950 . S
C736 C732 1.385 . S
C736 C735 1.374 . S
C737 C734 1.499 . S
C737 C738 1.373 . S
C737 C739 1.389 1_565 S
C738 H711 0.950 . S
C738 C724 1.377 . S
C738 C737 1.373 . S
C739 C723 1.377 . S
C739 C737 1.389 1_545 S
C739 C740 1.524 . S
C740 C739 1.524 . S
C740 C741 1.397 . S
C740 C745 1.363 . S
C741 H712 0.913 1_545 S
C741 C740 1.397 . S
C741 C742 1.334 . S
C742 H713 0.950 . S
C742 C741 1.334 . S
C742 C743 1.287 . S
C743 C742 1.287 . S
C743 C744 1.524 . S
C743 H746 0.999 . S
C744 H714 0.950 . S
C744 C743 1.524 . S
C744 C745 1.415 . S
C745 H715 0.950 . S
C745 C740 1.363 . S
C745 C744 1.415 . S
H746 C743 0.999 . S
H747 C728 0.913 . S
H748 C766 0.951 . S
H749 C768 0.951 . S
H750 C770 0.950 . S
H751 C771 0.950 . S
H752 C773 0.950 . S
H753 C776 0.950 . S
H754 C777 0.950 . S
H755 C779 0.950 . S
H756 C780 0.950 . S
H757 C781 0.951 . S
H758 C783 0.951 . S
H759 C785 0.950 . S
H760 C786 0.950 . S
H761 C788 0.950 . S
H762 C791 0.950 . S
H763 C792 0.950 . S
H764 C794 0.950 . S
H765 C795 0.950 . S
C766 H748 0.951 . S
C766 C767 1.366 . S
C766 C768 1.388 . S
C767 C766 1.366 . S
C767 C771 1.385 . S
C768 H749 0.951 . S
C768 C766 1.388 . S
C768 C769 1.366 . S
C769 C768 1.366 . S
C769 C770 1.414 . S
C769 C772 1.499 . S
C770 H750 0.950 . S
C770 C769 1.414 . S
C770 C771 1.374 . S
C771 H751 0.950 . S
C771 C767 1.385 . S
C771 C770 1.374 . S
C772 C769 1.499 . S
C772 C773 1.373 . S
C772 C774 1.389 . S
C773 H752 0.950 . S
C773 C772 1.373 . S
C773 C789 1.377 . S
C774 C772 1.389 . S
C774 C775 1.524 . S
C774 C788 1.377 . S
C775 C774 1.524 . S
C775 C776 1.397 . S
C775 C780 1.363 . S
C776 H753 0.950 . S
C776 C775 1.397 . S
C776 C777 1.334 . S
C777 H754 0.950 . S
C777 C776 1.334 . S
C777 C778 1.287 . S
C778 C777 1.287 . S
C778 C779 1.524 . S
C778 H797 0.913 . S
C779 H755 0.950 . S
C779 C778 1.524 . S
C779 C780 1.415 . S
C780 H756 0.950 . S
C780 C775 1.363 . S
C780 C779 1.415 . S
C781 H757 0.951 . S
C781 C782 1.366 . S
C781 C783 1.388 . S
C782 C781 1.366 . S
C782 C786 1.385 . S
C783 H758 0.951 . S
C783 C781 1.388 . S
C783 C784 1.366 . S
C784 C783 1.366 . S
C784 C785 1.414 . S
C784 C787 1.499 . S
C785 H759 0.950 . S
C785 C784 1.414 . S
C785 C786 1.374 . S
C786 H760 0.950 . S
C786 C782 1.385 . S
C786 C785 1.374 . S
C787 C784 1.499 . S
C787 C788 1.373 . S
C787 C789 1.389 . S
C788 H761 0.950 . S
C788 C774 1.377 . S
C788 C787 1.373 . S
C789 C773 1.377 . S
C789 C787 1.389 . S
C789 C790 1.524 . S
C790 C789 1.524 . S
C790 C791 1.397 . S
C790 C795 1.363 . S
C791 H762 0.950 . S
C791 C790 1.397 . S
C791 C792 1.334 . S
C792 H763 0.950 . S
C792 C791 1.334 . S
C792 C793 1.287 . S
C793 C792 1.287 . S
C793 C794 1.524 . S
C793 H796 0.999 . S
C794 H764 0.950 . S
C794 C793 1.524 . S
C794 C795 1.415 . S
C795 H765 0.950 . S
C795 C790 1.363 . S
C795 C794 1.415 . S
H796 C793 0.999 . S
H797 C778 0.913 . S
H798 C816 0.951 . S
H799 C818 0.951 . S
H800 C820 0.950 . S
H801 C821 0.950 . S
H802 C823 0.950 . S
H803 C826 0.950 . S
H804 C827 0.950 . S
H805 C829 0.950 . S
H806 C830 0.950 . S
H807 C831 0.951 . S
H808 C833 0.951 . S
H809 C835 0.950 . S
H810 C836 0.950 . S
H811 C838 0.950 . S
H812 C841 0.950 . S
H813 C842 0.950 . S
H814 C844 0.950 . S
H815 C845 0.950 . S
C816 H798 0.951 . S
C816 C817 1.366 . S
C816 C818 1.388 . S
C817 C816 1.366 . S
C817 C821 1.385 . S
C818 H799 0.951 . S
C818 C816 1.388 . S
C818 C819 1.366 . S
C819 C818 1.366 . S
C819 C820 1.414 . S
C819 C822 1.499 . S
C820 H800 0.950 . S
C820 C819 1.414 . S
C820 C821 1.374 . S
C821 H801 0.950 . S
C821 C817 1.385 . S
C821 C820 1.374 . S
C822 C819 1.499 . S
C822 C823 1.373 . S
C822 C824 1.389 . S
C823 H802 0.950 . S
C823 C822 1.373 . S
C823 C839 1.377 . S
C824 C822 1.389 . S
C824 C825 1.524 . S
C824 C838 1.377 . S
C825 C824 1.524 . S
C825 C826 1.397 . S
C825 C830 1.363 . S
C826 H803 0.950 . S
C826 C825 1.397 . S
C826 C827 1.334 . S
C827 H804 0.950 . S
C827 C826 1.334 . S
C827 C828 1.287 . S
C828 C827 1.287 . S
C828 C829 1.524 . S
C828 H847 0.913 1_554 S
C829 H805 0.950 . S
C829 C828 1.524 . S
C829 C830 1.415 . S
C830 H806 0.950 . S
C830 C825 1.363 . S
C830 C829 1.415 . S
C831 H807 0.951 . S
C831 C832 1.366 . S
C831 C833 1.388 . S
C832 C831 1.366 . S
C832 C836 1.385 . S
C833 H808 0.951 . S
C833 C831 1.388 . S
C833 C834 1.366 . S
C834 C833 1.366 . S
C834 C835 1.414 . S
C834 C837 1.499 . S
C835 H809 0.950 . S
C835 C834 1.414 . S
C835 C836 1.374 . S
C836 H810 0.950 . S
C836 C832 1.385 . S
C836 C835 1.374 . S
C837 C834 1.499 . S
C837 C838 1.373 . S
C837 C839 1.389 . S
C838 H811 0.950 . S
C838 C824 1.377 . S
C838 C837 1.373 . S
C839 C823 1.377 . S
C839 C837 1.389 . S
C839 C840 1.524 . S
C840 C839 1.524 . S
C840 C841 1.397 . S
C840 C845 1.363 . S
C841 H812 0.950 . S
C841 C840 1.397 . S
C841 C842 1.334 . S
C842 H813 0.950 . S
C842 C841 1.334 . S
C842 C843 1.287 . S
C843 C842 1.287 . S
C843 C844 1.524 . S
C843 H846 0.999 . S
C844 H814 0.950 . S
C844 C843 1.524 . S
C844 C845 1.415 . S
C845 H815 0.950 . S
C845 C840 1.363 . S
C845 C844 1.415 . S
H846 C843 0.999 . S
H847 C828 0.913 1_556 S
H848 C866 0.951 . S
H849 C868 0.951 . S
H850 C870 0.950 . S
H851 C871 0.950 . S
H852 C873 0.950 1_655 S
H853 C876 0.950 1_655 S
H854 C877 0.950 . S
H855 C879 0.950 . S
H856 C880 0.950 . S
H857 C881 0.951 1_655 S
H858 C883 0.951 1_655 S
H859 C885 0.950 1_554 S
H860 C886 0.950 . S
H861 C888 0.950 . S
H862 C891 0.950 . S
H863 C892 0.950 . S
H864 C894 0.950 . S
H865 C895 0.950 . S
C866 H848 0.951 . S
C866 C867 1.366 1_455 S
C866 C868 1.388 . S
C867 C866 1.366 1_655 S
C867 C871 1.385 . S
C868 H849 0.951 . S
C868 C866 1.388 . S
C868 C869 1.366 . S
C869 C868 1.366 . S
C869 C870 1.414 1_455 S
C869 C872 1.499 . S
C870 H850 0.950 . S
C870 C869 1.414 1_655 S
C870 C871 1.374 . S
C871 H851 0.950 . S
C871 C867 1.385 . S
C871 C870 1.374 . S
C872 C869 1.499 . S
C872 C873 1.373 . S
C872 C874 1.389 . S
C873 H852 0.950 1_455 S
C873 C872 1.373 . S
C873 C889 1.377 . S
C874 C872 1.389 . S
C874 C875 1.524 . S
C874 C888 1.377 . S
C875 C874 1.524 . S
C875 C876 1.397 . S
C875 C880 1.363 . S
C876 H853 0.950 1_455 S
C876 C875 1.397 . S
C876 C877 1.334 . S
C877 H854 0.950 . S
C877 C876 1.334 . S
C877 C878 1.287 . S
C878 C877 1.287 . S
C878 C879 1.524 . S
C878 H897 0.913 . S
C879 H855 0.950 . S
C879 C878 1.524 . S
C879 C880 1.415 . S
C880 H856 0.950 . S
C880 C875 1.363 . S
C880 C879 1.415 . S
C881 H857 0.951 1_455 S
C881 C882 1.366 . S
C881 C883 1.388 . S
C882 C881 1.366 . S
C882 C886 1.385 . S
C883 H858 0.951 1_455 S
C883 C881 1.388 . S
C883 C884 1.366 . S
C884 C883 1.366 . S
C884 C885 1.414 . S
C884 C887 1.499 1_556 S
C885 H859 0.950 1_556 S
C885 C884 1.414 . S
C885 C886 1.374 . S
C886 H860 0.950 . S
C886 C882 1.385 . S
C886 C885 1.374 . S
C887 C884 1.499 1_554 S
C887 C888 1.373 . S
C887 C889 1.389 . S
C888 H861 0.950 . S
C888 C874 1.377 . S
C888 C887 1.373 . S
C889 C873 1.377 . S
C889 C887 1.389 . S
C889 C890 1.530 1_554 S
C890 C889 1.530 1_556 S
C890 C891 1.411 . S
C890 C895 1.344 1_455 S
C891 H862 0.950 . S
C891 C890 1.411 . S
C891 C892 1.334 . S
C892 H863 0.950 . S
C892 C891 1.334 . S
C892 C893 1.287 1_455 S
C893 C892 1.287 1_655 S
C893 C894 1.524 . S
C893 H896 0.999 . S
C894 H864 0.950 . S
C894 C893 1.524 . S
C894 C895 1.415 . S
C895 H865 0.950 . S
C895 C890 1.344 1_655 S
C895 C894 1.415 . S
H896 C893 0.999 . S
H897 C878 0.913 . S
H898 C916 0.951 . S
H899 C918 0.951 . S
H900 C920 0.950 . S
H901 C921 0.950 . S
H902 C923 0.950 . S
H903 C926 0.950 . S
H904 C927 0.950 . S
H905 C929 0.950 . S
H906 C930 0.950 . S
H907 C931 0.951 . S
H908 C933 0.951 . S
H909 C935 0.950 1_565 S
H910 C936 0.950 . S
H911 C938 0.950 1_556 S
H912 C941 0.950 1_565 S
H913 C942 0.950 1_565 S
H914 C944 0.950 . S
H915 C945 0.950 . S
C916 H898 0.951 . S
C916 C917 1.366 . S
C916 C918 1.388 . S
C917 C916 1.366 . S
C917 C921 1.385 1_565 S
C918 H899 0.951 . S
C918 C916 1.388 . S
C918 C919 1.366 1_565 S
C919 C918 1.366 1_545 S
C919 C920 1.414 . S
C919 C922 1.499 . S
C920 H900 0.950 . S
C920 C919 1.414 . S
C920 C921 1.374 . S
C921 H901 0.950 . S
C921 C917 1.385 1_545 S
C921 C920 1.374 . S
C922 C919 1.499 . S
C922 C923 1.373 . S
C922 C924 1.389 . S
C923 H902 0.950 . S
C923 C922 1.373 . S
C923 C939 1.377 . S
C924 C922 1.389 . S
C924 C925 1.524 1_554 S
C924 C938 1.377 . S
C925 C924 1.524 1_556 S
C925 C926 1.397 1_556 S
C925 C930 1.363 1_545 S
C926 H903 0.950 . S
C926 C925 1.397 1_554 S
C926 C927 1.334 1_554 S
C927 H904 0.950 . S
C927 C926 1.334 1_556 S
C927 C928 1.287 . S
C928 C927 1.287 . S
C928 C929 1.524 1_545 S
C928 H947 0.913 . S
C929 H905 0.950 . S
C929 C928 1.524 1_565 S
C929 C930 1.415 . S
C930 H906 0.950 . S
C930 C925 1.363 1_565 S
C930 C929 1.415 . S
C931 H907 0.951 . S
C931 C932 1.366 . S
C931 C933 1.388 1_556 S
C932 C931 1.366 . S
C932 C936 1.385 . S
C933 H908 0.951 . S
C933 C931 1.388 1_554 S
C933 C934 1.366 . S
C934 C933 1.366 . S
C934 C935 1.411 1_554 S
C934 C937 1.500 . S
C935 H909 0.950 1_545 S
C935 C934 1.411 1_556 S
C935 C936 1.374 . S
C936 H910 0.950 . S
C936 C932 1.385 . S
C936 C935 1.374 . S
C937 C934 1.500 . S
C937 C938 1.373 . S
C937 C939 1.389 . S
C938 H911 0.950 1_554 S
C938 C924 1.377 . S
C938 C937 1.373 . S
C939 C923 1.377 . S
C939 C937 1.389 . S
C939 C940 1.524 . S
C940 C939 1.524 . S
C940 C941 1.397 . S
C940 C945 1.363 . S
C941 H912 0.950 1_545 S
C941 C940 1.397 . S
C941 C942 1.334 . S
C942 H913 0.950 1_545 S
C942 C941 1.334 . S
C942 C943 1.287 . S
C943 C942 1.287 . S
C943 C944 1.524 . S
C943 H946 0.999 . S
C944 H914 0.950 . S
C944 C943 1.524 . S
C944 C945 1.415 . S
C945 H915 0.950 . S
C945 C940 1.363 . S
C945 C944 1.415 . S
H946 C943 0.999 . S
H947 C928 0.913 . S
H948 C966 0.951 . S
H949 C968 0.951 . S
H950 C970 0.950 . S
H951 C971 0.950 . S
H952 C973 0.950 . S
H953 C976 0.950 . S
H954 C977 0.950 . S
H955 C979 0.950 . S
H956 C980 0.950 . S
H957 C981 0.951 . S
H958 C983 0.951 . S
H959 C985 0.950 1_554 S
H960 C986 0.950 . S
H961 C988 0.950 . S
H962 C991 0.950 . S
H963 C992 0.950 . S
H964 C994 0.950 . S
H965 C995 0.950 . S
C966 H948 0.951 . S
C966 C967 1.366 . S
C966 C968 1.388 . S
C967 C966 1.366 . S
C967 C971 1.385 . S
C968 H949 0.951 . S
C968 C966 1.388 . S
C968 C969 1.366 . S
C969 C968 1.366 . S
C969 C970 1.414 . S
C969 C972 1.499 . S
C970 H950 0.950 . S
C970 C969 1.414 . S
C970 C971 1.374 . S
C971 H951 0.950 . S
C971 C967 1.385 . S
C971 C970 1.374 . S
C972 C969 1.499 . S
C972 C973 1.373 . S
C972 C974 1.389 . S
C973 H952 0.950 . S
C973 C972 1.373 . S
C973 C989 1.377 . S
C974 C972 1.389 . S
C974 C975 1.524 . S
C974 C988 1.377 . S
C975 C974 1.524 . S
C975 C976 1.397 . S
C975 C980 1.363 . S
C976 H953 0.950 . S
C976 C975 1.397 . S
C976 C977 1.334 . S
C977 H954 0.950 . S
C977 C976 1.334 . S
C977 C978 1.287 . S
C978 C977 1.287 . S
C978 C979 1.524 . S
C978 H997 0.913 . S
C979 H955 0.950 . S
C979 C978 1.524 . S
C979 C980 1.415 . S
C980 H956 0.950 . S
C980 C975 1.363 . S
C980 C979 1.415 . S
C981 H957 0.951 . S
C981 C982 1.366 . S
C981 C983 1.388 . S
C982 C981 1.366 . S
C982 C986 1.385 . S
C983 H958 0.951 . S
C983 C981 1.388 . S
C983 C984 1.366 . S
C984 C983 1.366 . S
C984 C985 1.414 . S
C984 C987 1.499 1_556 S
C985 H959 0.950 1_556 S
C985 C984 1.414 . S
C985 C986 1.374 . S
C986 H960 0.950 . S
C986 C982 1.385 . S
C986 C985 1.374 . S
C987 C984 1.499 1_554 S
C987 C988 1.373 . S
C987 C989 1.389 . S
C988 H961 0.950 . S
C988 C974 1.377 . S
C988 C987 1.373 . S
C989 C973 1.377 . S
C989 C987 1.389 . S
C989 C990 1.524 1_554 S
C990 C989 1.524 1_556 S
C990 C991 1.397 . S
C990 C995 1.363 . S
C991 H962 0.950 . S
C991 C990 1.397 . S
C991 C992 1.334 . S
C992 H963 0.950 . S
C992 C991 1.334 . S
C992 C993 1.287 . S
C993 C992 1.287 . S
C993 C994 1.524 . S
C993 H996 0.999 . S
C994 H964 0.950 . S
C994 C993 1.524 . S
C994 C995 1.415 . S
C995 H965 0.950 . S
C995 C990 1.363 . S
C995 C994 1.415 . S
H996 C993 0.999 . S
H997 C978 0.913 . S
H998 C1016 0.951 . S
H999 C1018 0.951 . S
H1000 C1020 0.950 . S
H1001 C1021 0.950 . S
H1002 C1023 0.950 . S
H1003 C1026 0.950 . S
H1004 C1027 0.950 . S
H1005 C1029 0.950 . S
H1006 C1030 0.950 . S
H1007 C1031 0.951 1_554 S
H1008 C1033 0.951 . S
H1009 C1035 0.950 . S
H1010 C1036 0.950 . S
H1011 C1038 0.950 1_556 S
H1012 C1041 0.950 . S
H1013 C1042 0.950 . S
H1014 C1044 0.950 . S
H1015 C1045 0.950 . S
C1016 H998 0.951 . S
C1016 C1017 1.366 . S
C1016 C1018 1.388 . S
C1017 C1016 1.366 . S
C1017 C1021 1.385 . S
C1018 H999 0.951 . S
C1018 C1016 1.388 . S
C1018 C1019 1.366 . S
C1019 C1018 1.366 . S
C1019 C1020 1.414 . S
C1019 C1022 1.499 . S
C1020 H1000 0.950 . S
C1020 C1019 1.414 . S
C1020 C1021 1.374 . S
C1021 H1001 0.950 . S
C1021 C1017 1.385 . S
C1021 C1020 1.374 . S
C1022 C1019 1.499 . S
C1022 C1023 1.373 . S
C1022 C1024 1.389 . S
C1023 H1002 0.950 . S
C1023 C1022 1.373 . S
C1023 C1039 1.377 . S
C1024 C1022 1.389 . S
C1024 C1025 1.524 . S
C1024 C1038 1.377 . S
C1025 C1024 1.524 . S
C1025 C1026 1.397 . S
C1025 C1030 1.363 1_554 S
C1026 H1003 0.950 . S
C1026 C1025 1.397 . S
C1026 C1027 1.334 . S
C1027 H1004 0.950 . S
C1027 C1026 1.334 . S
C1027 C1028 1.287 1_554 S
C1028 C1027 1.287 1_556 S
C1028 C1029 1.524 . S
C1028 H1047 0.913 . S
C1029 H1005 0.950 . S
C1029 C1028 1.524 . S
C1029 C1030 1.415 . S
C1030 H1006 0.950 . S
C1030 C1025 1.363 1_556 S
C1030 C1029 1.415 . S
C1031 H1007 0.951 1_556 S
C1031 C1032 1.366 . S
C1031 C1033 1.388 1_556 S
C1032 C1031 1.366 . S
C1032 C1036 1.385 . S
C1033 H1008 0.951 . S
C1033 C1031 1.388 1_554 S
C1033 C1034 1.366 1_554 S
C1034 C1033 1.366 1_556 S
C1034 C1035 1.414 . S
C1034 C1037 1.499 1_556 S
C1035 H1009 0.950 . S
C1035 C1034 1.414 . S
C1035 C1036 1.374 . S
C1036 H1010 0.950 . S
C1036 C1032 1.385 . S
C1036 C1035 1.374 . S
C1037 C1034 1.499 1_554 S
C1037 C1038 1.373 . S
C1037 C1039 1.389 . S
C1038 H1011 0.950 1_554 S
C1038 C1024 1.377 . S
C1038 C1037 1.373 . S
C1039 C1023 1.377 . S
C1039 C1037 1.389 . S
C1039 C1040 1.524 . S
C1040 C1039 1.524 . S
C1040 C1041 1.397 . S
C1040 C1045 1.363 . S
C1041 H1012 0.950 . S
C1041 C1040 1.397 . S
C1041 C1042 1.334 . S
C1042 H1013 0.950 . S
C1042 C1041 1.334 . S
C1042 C1043 1.287 . S
C1043 C1042 1.287 . S
C1043 C1044 1.524 . S
C1043 H1046 0.999 . S
C1044 H1014 0.950 . S
C1044 C1043 1.524 . S
C1044 C1045 1.415 . S
C1045 H1015 0.950 . S
C1045 C1040 1.363 . S
C1045 C1044 1.415 . S
H1046 C1043 0.999 . S
H1047 C1028 0.913 . S
H1048 C1066 0.951 . S
H1049 C1068 0.951 . S
H1050 C1070 0.950 . S
H1051 C1071 0.950 . S
H1052 C1073 0.950 . S
H1053 C1076 0.950 . S
H1054 C1077 0.950 . S
H1055 C1079 0.950 . S
H1056 C1080 0.970 . S
H1057 C1081 0.951 1_655 S
H1058 C1083 0.951 1_655 S
H1059 C1085 0.950 . S
H1060 C1086 0.950 . S
H1061 C1088 0.965 . S
H1062 C1091 0.950 . S
H1063 C1092 0.950 . S
H1064 C1094 0.950 . S
H1065 C1095 0.950 . S
C1066 H1048 0.951 . S
C1066 C1067 1.366 . S
C1066 C1068 1.388 . S
C1067 C1066 1.366 . S
C1067 C1071 1.385 1_455 S
C1068 H1049 0.951 . S
C1068 C1066 1.388 . S
C1068 C1069 1.366 . S
C1069 C1068 1.366 . S
C1069 C1070 1.414 1_455 S
C1069 C1072 1.499 . S
C1070 H1050 0.950 . S
C1070 C1069 1.414 1_655 S
C1070 C1071 1.374 . S
C1071 H1051 0.950 . S
C1071 C1067 1.385 1_655 S
C1071 C1070 1.374 . S
C1072 C1069 1.499 . S
C1072 C1073 1.373 . S
C1072 C1074 1.389 . S
C1073 H1052 0.950 . S
C1073 C1072 1.373 . S
C1073 C1089 1.377 . S
C1074 C1072 1.389 . S
C1074 C1075 1.524 1_455 S
C1074 C1088 1.377 . S
C1075 C1074 1.524 1_655 S
C1075 C1076 1.397 . S
C1075 C1080 1.354 1_655 S
C1076 H1053 0.950 . S
C1076 C1075 1.397 . S
C1076 C1077 1.334 . S
C1077 H1054 0.950 . S
C1077 C1076 1.334 . S
C1077 C1078 1.287 . S
C1078 C1077 1.287 . S
C1078 C1079 1.524 . S
C1078 H1097 0.913 . S
C1079 H1055 0.950 . S
C1079 C1078 1.524 . S
C1079 C1080 1.405 1_655 S
C1080 H1056 0.970 . S
C1080 C1075 1.354 1_455 S
C1080 C1079 1.405 1_455 S
C1081 H1057 0.951 1_455 S
C1081 C1082 1.366 . S
C1081 C1083 1.388 . S
C1082 C1081 1.366 . S
C1082 C1086 1.385 . S
C1083 H1058 0.951 1_455 S
C1083 C1081 1.388 . S
C1083 C1084 1.366 . S
C1084 C1083 1.366 . S
C1084 C1085 1.414 . S
C1084 C1087 1.499 . S
C1085 H1059 0.950 . S
C1085 C1084 1.414 . S
C1085 C1086 1.374 . S
C1086 H1060 0.950 . S
C1086 C1082 1.385 . S
C1086 C1085 1.374 . S
C1087 C1084 1.499 . S
C1087 C1088 1.373 . S
C1087 C1089 1.389 . S
C1088 H1061 0.965 . S
C1088 C1074 1.377 . S
C1088 C1087 1.373 . S
C1089 C1073 1.377 . S
C1089 C1087 1.389 . S
C1089 C1090 1.524 . S
C1090 C1089 1.524 . S
C1090 C1091 1.397 . S
C1090 C1095 1.363 . S
C1091 H1062 0.950 . S
C1091 C1090 1.397 . S
C1091 C1092 1.334 . S
C1092 H1063 0.950 . S
C1092 C1091 1.334 . S
C1092 C1093 1.287 1_556 S
C1093 C1092 1.287 1_554 S
C1093 C1094 1.524 . S
C1093 H1096 0.999 . S
C1094 H1064 0.950 . S
C1094 C1093 1.524 . S
C1094 C1095 1.415 1_554 S
C1095 H1065 0.950 . S
C1095 C1090 1.363 . S
C1095 C1094 1.415 1_556 S
H1096 C1093 0.999 . S
H1097 C1078 0.913 . S
H1098 C1116 0.951 . S
H1099 C1118 0.951 . S
H1100 C1120 0.950 . S
H1101 C1121 0.950 . S
H1102 C1123 0.950 . S
H1103 C1126 0.950 . S
H1104 C1127 0.950 . S
H1105 C1129 0.950 . S
H1106 C1130 0.950 . S
H1107 C1131 0.951 . S
H1108 C1133 0.951 . S
H1109 C1135 0.950 . S
H1110 C1136 0.950 . S
H1111 C1138 0.950 . S
H1112 C1141 0.950 . S
H1113 C1142 0.950 . S
H1114 C1144 0.950 . S
H1115 C1145 0.950 . S
C1116 H1098 0.951 . S
C1116 C1117 1.366 1_565 S
C1116 C1118 1.388 . S
C1117 C1116 1.366 1_545 S
C1117 C1121 1.385 . S
C1118 H1099 0.951 . S
C1118 C1116 1.388 . S
C1118 C1119 1.366 1_565 S
C1119 C1118 1.366 1_545 S
C1119 C1120 1.414 . S
C1119 C1122 1.499 . S
C1120 H1100 0.950 . S
C1120 C1119 1.414 . S
C1120 C1121 1.374 . S
C1121 H1101 0.950 . S
C1121 C1117 1.385 . S
C1121 C1120 1.374 . S
C1122 C1119 1.499 . S
C1122 C1123 1.373 . S
C1122 C1124 1.389 1_545 S
C1123 H1102 0.950 . S
C1123 C1122 1.373 . S
C1123 C1139 1.377 . S
C1124 C1122 1.389 1_565 S
C1124 C1125 1.524 . S
C1124 C1138 1.377 . S
C1125 C1124 1.524 . S
C1125 C1126 1.397 . S
C1125 C1130 1.363 . S
C1126 H1103 0.950 . S
C1126 C1125 1.397 . S
C1126 C1127 1.334 . S
C1127 H1104 0.950 . S
C1127 C1126 1.334 . S
C1127 C1128 1.287 . S
C1128 C1127 1.287 . S
C1128 C1129 1.524 . S
C1128 H1147 0.913 . S
C1129 H1105 0.950 . S
C1129 C1128 1.524 . S
C1129 C1130 1.415 . S
C1130 H1106 0.950 . S
C1130 C1125 1.363 . S
C1130 C1129 1.415 . S
C1131 H1107 0.951 . S
C1131 C1132 1.366 . S
C1131 C1133 1.388 . S
C1132 C1131 1.366 . S
C1132 C1136 1.385 1_545 S
C1133 H1108 0.951 . S
C1133 C1131 1.388 . S
C1133 C1134 1.366 . S
C1134 C1133 1.366 . S
C1134 C1135 1.414 1_545 S
C1134 C1137 1.499 . S
C1135 H1109 0.950 . S
C1135 C1134 1.414 1_565 S
C1135 C1136 1.374 . S
C1136 H1110 0.950 . S
C1136 C1132 1.385 1_565 S
C1136 C1135 1.374 . S
C1137 C1134 1.499 . S
C1137 C1138 1.373 1_545 S
C1137 C1139 1.389 . S
C1138 H1111 0.950 . S
C1138 C1124 1.377 . S
C1138 C1137 1.373 1_565 S
C1139 C1123 1.377 . S
C1139 C1137 1.389 . S
C1139 C1140 1.524 . S
C1140 C1139 1.524 . S
C1140 C1141 1.397 . S
C1140 C1145 1.363 . S
C1141 H1112 0.950 . S
C1141 C1140 1.397 . S
C1141 C1142 1.334 . S
C1142 H1113 0.950 . S
C1142 C1141 1.334 . S
C1142 C1143 1.287 . S
C1143 C1142 1.287 . S
C1143 C1144 1.524 . S
C1143 H1146 0.999 . S
C1144 H1114 0.950 . S
C1144 C1143 1.524 . S
C1144 C1145 1.415 . S
C1145 H1115 0.950 . S
C1145 C1140 1.363 . S
C1145 C1144 1.415 . S
H1146 C1143 0.999 . S
H1147 C1128 0.913 . S
H1148 C1166 0.951 . S
H1149 C1168 0.951 . S
H1150 C1170 0.950 . S
H1151 C1171 0.950 . S
H1152 C1173 0.950 . S
H1153 C1176 0.950 . S
H1154 C1177 0.950 . S
H1155 C1179 0.950 . S
H1156 C1180 0.950 1_556 S
H1157 C1181 0.951 . S
H1158 C1183 0.951 . S
H1159 C1185 0.950 . S
H1160 C1186 0.950 . S
H1161 C1188 0.950 . S
H1162 C1191 0.950 . S
H1163 C1192 0.950 . S
H1164 C1194 0.950 . S
H1165 C1195 0.950 . S
C1166 H1148 0.951 . S
C1166 C1167 1.366 . S
C1166 C1168 1.388 . S
C1167 C1166 1.366 . S
C1167 C1171 1.385 . S
C1168 H1149 0.951 . S
C1168 C1166 1.388 . S
C1168 C1169 1.366 . S
C1169 C1168 1.366 . S
C1169 C1170 1.414 . S
C1169 C1172 1.499 . S
C1170 H1150 0.950 . S
C1170 C1169 1.414 . S
C1170 C1171 1.374 . S
C1171 H1151 0.950 . S
C1171 C1167 1.385 . S
C1171 C1170 1.374 . S
C1172 C1169 1.499 . S
C1172 C1173 1.373 . S
C1172 C1174 1.389 . S
C1173 H1152 0.950 . S
C1173 C1172 1.373 . S
C1173 C1189 1.377 . S
C1174 C1172 1.389 . S
C1174 C1175 1.524 . S
C1174 C1188 1.377 . S
C1175 C1174 1.524 . S
C1175 C1176 1.397 . S
C1175 C1180 1.363 1_556 S
C1176 H1153 0.950 . S
C1176 C1175 1.397 . S
C1176 C1177 1.334 1_556 S
C1177 H1154 0.950 . S
C1177 C1176 1.334 1_554 S
C1177 C1178 1.287 . S
C1178 C1177 1.287 . S
C1178 C1179 1.524 . S
C1178 H1197 0.913 . S
C1179 H1155 0.950 . S
C1179 C1178 1.524 . S
C1179 C1180 1.415 . S
C1180 H1156 0.950 1_554 S
C1180 C1175 1.363 1_554 S
C1180 C1179 1.415 . S
C1181 H1157 0.951 . S
C1181 C1182 1.366 . S
C1181 C1183 1.388 . S
C1182 C1181 1.366 . S
C1182 C1186 1.385 . S
C1183 H1158 0.951 . S
C1183 C1181 1.388 . S
C1183 C1184 1.366 . S
C1184 C1183 1.366 . S
C1184 C1185 1.414 . S
C1184 C1187 1.499 . S
C1185 H1159 0.950 . S
C1185 C1184 1.414 . S
C1185 C1186 1.374 . S
C1186 H1160 0.950 . S
C1186 C1182 1.385 . S
C1186 C1185 1.374 . S
C1187 C1184 1.499 . S
C1187 C1188 1.373 . S
C1187 C1189 1.389 . S
C1188 H1161 0.950 . S
C1188 C1174 1.377 . S
C1188 C1187 1.373 . S
C1189 C1173 1.377 . S
C1189 C1187 1.389 . S
C1189 C1190 1.524 . S
C1190 C1189 1.524 . S
C1190 C1191 1.397 . S
C1190 C1195 1.363 . S
C1191 H1162 0.950 . S
C1191 C1190 1.397 . S
C1191 C1192 1.334 . S
C1192 H1163 0.950 . S
C1192 C1191 1.334 . S
C1192 C1193 1.287 . S
C1193 C1192 1.287 . S
C1193 C1194 1.524 . S
C1193 H1196 0.999 . S
C1194 H1164 0.950 . S
C1194 C1193 1.524 . S
C1194 C1195 1.415 . S
C1195 H1165 0.950 . S
C1195 C1190 1.363 . S
C1195 C1194 1.415 . S
H1196 C1193 0.999 . S
H1197 C1178 0.913 . S
H1198 C1216 0.951 . S
H1199 C1218 0.951 . S
H1200 C1220 0.950 . S
H1201 C1221 0.950 . S
H1202 C1223 0.950 . S
H1203 C1226 0.950 . S
H1204 C1227 0.950 . S
H1205 C1229 0.950 . S
H1206 C1230 0.950 1_556 S
H1207 C1231 0.951 . S
H1208 C1233 0.951 . S
H1209 C1235 0.950 . S
H1210 C1236 0.950 . S
H1211 C1238 0.950 . S
H1212 C1241 0.950 . S
H1213 C1242 0.950 . S
H1214 C1244 0.950 . S
H1215 C1245 0.950 . S
C1216 H1198 0.951 . S
C1216 C1217 1.366 . S
C1216 C1218 1.388 . S
C1217 C1216 1.366 . S
C1217 C1221 1.385 . S
C1218 H1199 0.951 . S
C1218 C1216 1.388 . S
C1218 C1219 1.366 . S
C1219 C1218 1.366 . S
C1219 C1220 1.414 . S
C1219 C1222 1.499 . S
C1220 H1200 0.950 . S
C1220 C1219 1.414 . S
C1220 C1221 1.374 . S
C1221 H1201 0.950 . S
C1221 C1217 1.385 . S
C1221 C1220 1.374 . S
C1222 C1219 1.499 . S
C1222 C1223 1.373 . S
C1222 C1224 1.389 . S
C1223 H1202 0.950 . S
C1223 C1222 1.373 . S
C1223 C1239 1.377 . S
C1224 C1222 1.389 . S
C1224 C1225 1.524 . S
C1224 C1238 1.377 . S
C1225 C1224 1.524 . S
C1225 C1226 1.397 . S
C1225 C1230 1.363 1_556 S
C1226 H1203 0.950 . S
C1226 C1225 1.397 . S
C1226 C1227 1.334 1_556 S
C1227 H1204 0.950 . S
C1227 C1226 1.334 1_554 S
C1227 C1228 1.287 . S
C1228 C1227 1.287 . S
C1228 C1229 1.524 . S
C1228 H1247 0.913 . S
C1229 H1205 0.950 . S
C1229 C1228 1.524 . S
C1229 C1230 1.415 . S
C1230 H1206 0.950 1_554 S
C1230 C1225 1.363 1_554 S
C1230 C1229 1.415 . S
C1231 H1207 0.951 . S
C1231 C1232 1.366 . S
C1231 C1233 1.388 . S
C1232 C1231 1.366 . S
C1232 C1236 1.385 . S
C1233 H1208 0.951 . S
C1233 C1231 1.388 . S
C1233 C1234 1.366 . S
C1234 C1233 1.366 . S
C1234 C1235 1.414 . S
C1234 C1237 1.499 . S
C1235 H1209 0.950 . S
C1235 C1234 1.414 . S
C1235 C1236 1.374 . S
C1236 H1210 0.950 . S
C1236 C1232 1.385 . S
C1236 C1235 1.374 . S
C1237 C1234 1.499 . S
C1237 C1238 1.373 . S
C1237 C1239 1.389 . S
C1238 H1211 0.950 . S
C1238 C1224 1.377 . S
C1238 C1237 1.373 . S
C1239 C1223 1.377 . S
C1239 C1237 1.389 . S
C1239 C1240 1.524 . S
C1240 C1239 1.524 . S
C1240 C1241 1.397 . S
C1240 C1245 1.363 . S
C1241 H1212 0.950 . S
C1241 C1240 1.397 . S
C1241 C1242 1.334 . S
C1242 H1213 0.950 . S
C1242 C1241 1.334 . S
C1242 C1243 1.287 . S
C1243 C1242 1.287 . S
C1243 C1244 1.524 . S
C1243 H1246 0.999 . S
C1244 H1214 0.950 . S
C1244 C1243 1.524 . S
C1244 C1245 1.415 . S
C1245 H1215 0.950 . S
C1245 C1240 1.363 . S
C1245 C1244 1.415 . S
H1246 C1243 0.999 . S
H1247 C1228 0.913 . S
H1248 C1266 0.951 . S
H1249 C1268 0.951 . S
H1250 C1270 0.950 . S
H1251 C1271 0.950 . S
H1252 C1273 0.950 . S
H1253 C1276 0.950 1_455 S
H1254 C1277 0.950 . S
H1255 C1279 0.950 . S
H1256 C1280 0.950 . S
H1257 C1281 0.951 . S
H1258 C1283 0.951 . S
H1259 C1285 0.950 . S
H1260 C1286 0.950 . S
H1261 C1288 0.950 . S
H1262 C1291 0.950 . S
H1263 C1292 0.950 1_655 S
H1264 C1294 0.950 . S
H1265 C1295 0.950 . S
C1266 H1248 0.951 . S
C1266 C1267 1.366 . S
C1266 C1268 1.388 . S
C1267 C1266 1.366 . S
C1267 C1271 1.385 1_655 S
C1268 H1249 0.951 . S
C1268 C1266 1.388 . S
C1268 C1269 1.366 . S
C1269 C1268 1.366 . S
C1269 C1270 1.414 1_655 S
C1269 C1272 1.499 . S
C1270 H1250 0.950 . S
C1270 C1269 1.414 1_455 S
C1270 C1271 1.374 . S
C1271 H1251 0.950 . S
C1271 C1267 1.385 1_455 S
C1271 C1270 1.374 . S
C1272 C1269 1.499 . S
C1272 C1273 1.373 1_655 S
C1272 C1274 1.389 . S
C1273 H1252 0.950 . S
C1273 C1272 1.373 1_455 S
C1273 C1289 1.377 . S
C1274 C1272 1.389 . S
C1274 C1275 1.524 . S
C1274 C1288 1.377 . S
C1275 C1274 1.524 . S
C1275 C1276 1.397 . S
C1275 C1280 1.363 . S
C1276 H1253 0.950 1_655 S
C1276 C1275 1.397 . S
C1276 C1277 1.334 . S
C1277 H1254 0.950 . S
C1277 C1276 1.334 . S
C1277 C1278 1.287 . S
C1278 C1277 1.287 . S
C1278 C1279 1.524 . S
C1278 H1297 0.913 . S
C1279 H1255 0.950 . S
C1279 C1278 1.524 . S
C1279 C1280 1.415 . S
C1280 H1256 0.950 . S
C1280 C1275 1.363 . S
C1280 C1279 1.415 . S
C1281 H1257 0.951 . S
C1281 C1282 1.366 1_455 S
C1281 C1283 1.388 . S
C1282 C1281 1.366 1_655 S
C1282 C1286 1.385 . S
C1283 H1258 0.951 . S
C1283 C1281 1.388 . S
C1283 C1284 1.366 1_455 S
C1284 C1283 1.366 1_655 S
C1284 C1285 1.414 . S
C1284 C1287 1.499 . S
C1285 H1259 0.950 . S
C1285 C1284 1.414 . S
C1285 C1286 1.374 . S
C1286 H1260 0.950 . S
C1286 C1282 1.385 . S
C1286 C1285 1.374 . S
C1287 C1284 1.499 . S
C1287 C1288 1.373 . S
C1287 C1289 1.389 1_655 S
C1288 H1261 0.950 . S
C1288 C1274 1.377 . S
C1288 C1287 1.373 . S
C1289 C1273 1.377 . S
C1289 C1287 1.389 1_455 S
C1289 C1290 1.524 . S
C1290 C1289 1.524 . S
C1290 C1291 1.397 1_455 S
C1290 C1295 1.363 . S
C1291 H1262 0.950 . S
C1291 C1290 1.397 1_655 S
C1291 C1292 1.334 1_655 S
C1292 H1263 0.950 1_455 S
C1292 C1291 1.334 1_455 S
C1292 C1293 1.287 . S
C1293 C1292 1.287 . S
C1293 C1294 1.524 . S
C1293 H1296 0.999 . S
C1294 H1264 0.950 . S
C1294 C1293 1.524 . S
C1294 C1295 1.415 . S
C1295 H1265 0.950 . S
C1295 C1290 1.363 . S
C1295 C1294 1.415 . S
H1296 C1293 0.999 . S
H1297 C1278 0.913 . S
H1298 C1316 0.951 . S
H1299 C1318 0.951 . S
H1300 C1320 0.950 . S
H1301 C1321 0.950 . S
H1302 C1323 0.950 . S
H1303 C1326 0.950 . S
H1304 C1327 0.950 . S
H1305 C1329 0.950 . S
H1306 C1330 0.950 . S
H1307 C1331 0.951 . S
H1308 C1333 0.951 . S
H1309 C1335 0.950 . S
H1310 C1336 0.950 . S
H1311 C1338 0.950 . S
H1312 C1341 0.950 . S
H1313 C1342 0.950 . S
H1314 C1344 0.950 . S
H1315 C1345 0.950 . S
C1316 H1298 0.951 . S
C1316 C1317 1.366 . S
C1316 C1318 1.388 . S
C1317 C1316 1.366 . S
C1317 C1321 1.385 . S
C1318 H1299 0.951 . S
C1318 C1316 1.388 . S
C1318 C1319 1.366 . S
C1319 C1318 1.366 . S
C1319 C1320 1.414 . S
C1319 C1322 1.499 . S
C1320 H1300 0.950 . S
C1320 C1319 1.414 . S
C1320 C1321 1.374 . S
C1321 H1301 0.950 . S
C1321 C1317 1.385 . S
C1321 C1320 1.374 . S
C1322 C1319 1.499 . S
C1322 C1323 1.373 . S
C1322 C1324 1.389 1_565 S
C1323 H1302 0.950 . S
C1323 C1322 1.373 . S
C1323 C1339 1.377 . S
C1324 C1322 1.389 1_545 S
C1324 C1325 1.524 . S
C1324 C1338 1.377 . S
C1325 C1324 1.524 . S
C1325 C1326 1.397 . S
C1325 C1330 1.363 . S
C1326 H1303 0.950 . S
C1326 C1325 1.397 . S
C1326 C1327 1.334 . S
C1327 H1304 0.950 . S
C1327 C1326 1.334 . S
C1327 C1328 1.287 . S
C1328 C1327 1.287 . S
C1328 C1329 1.524 . S
C1328 H1347 0.913 . S
C1329 H1305 0.950 . S
C1329 C1328 1.524 . S
C1329 C1330 1.415 . S
C1330 H1306 0.950 . S
C1330 C1325 1.363 . S
C1330 C1329 1.415 . S
C1331 H1307 0.951 . S
C1331 C1332 1.366 . S
C1331 C1333 1.388 . S
C1332 C1331 1.366 . S
C1332 C1336 1.385 . S
C1333 H1308 0.951 . S
C1333 C1331 1.388 . S
C1333 C1334 1.366 . S
C1334 C1333 1.366 . S
C1334 C1335 1.414 . S
C1334 C1337 1.499 . S
C1335 H1309 0.950 . S
C1335 C1334 1.414 . S
C1335 C1336 1.374 . S
C1336 H1310 0.950 . S
C1336 C1332 1.385 . S
C1336 C1335 1.374 . S
C1337 C1334 1.499 . S
C1337 C1338 1.373 1_565 S
C1337 C1339 1.389 . S
C1338 H1311 0.950 . S
C1338 C1324 1.377 . S
C1338 C1337 1.373 1_545 S
C1339 C1323 1.377 . S
C1339 C1337 1.389 . S
C1339 C1340 1.524 . S
C1340 C1339 1.524 . S
C1340 C1341 1.397 . S
C1340 C1345 1.363 . S
C1341 H1312 0.950 . S
C1341 C1340 1.397 . S
C1341 C1342 1.334 . S
C1342 H1313 0.950 . S
C1342 C1341 1.334 . S
C1342 C1343 1.287 . S
C1343 C1342 1.287 . S
C1343 C1344 1.524 . S
C1343 H1346 0.999 . S
C1344 H1314 0.950 . S
C1344 C1343 1.524 . S
C1344 C1345 1.415 . S
C1345 H1315 0.950 . S
C1345 C1340 1.363 . S
C1345 C1344 1.415 . S
H1346 C1343 0.999 . S
H1347 C1328 0.913 . S
H1348 C1366 0.951 . S
H1349 C1368 0.951 . S
H1350 C1370 0.950 . S
H1351 C1371 0.950 . S
H1352 C1373 0.950 . S
H1353 C1376 0.950 . S
H1354 C1377 0.950 . S
H1355 C1379 0.950 . S
H1356 C1380 0.950 . S
H1357 C1381 0.951 . S
H1358 C1383 0.951 . S
H1359 C1385 0.950 . S
H1360 C1386 0.950 . S
H1361 C1388 0.950 . S
H1362 C1391 0.950 . S
H1363 C1392 0.950 . S
H1364 C1394 0.950 . S
H1365 C1395 0.950 . S
C1366 H1348 0.951 . S
C1366 C1367 1.366 . S
C1366 C1368 1.388 . S
C1367 C1366 1.366 . S
C1367 C1371 1.385 . S
C1368 H1349 0.951 . S
C1368 C1366 1.388 . S
C1368 C1369 1.366 . S
C1369 C1368 1.366 . S
C1369 C1370 1.414 . S
C1369 C1372 1.499 . S
C1370 H1350 0.950 . S
C1370 C1369 1.414 . S
C1370 C1371 1.374 . S
C1371 H1351 0.950 . S
C1371 C1367 1.385 . S
C1371 C1370 1.374 . S
C1372 C1369 1.499 . S
C1372 C1373 1.373 . S
C1372 C1374 1.389 . S
C1373 H1352 0.950 . S
C1373 C1372 1.373 . S
C1373 C1389 1.377 . S
C1374 C1372 1.389 . S
C1374 C1375 1.524 . S
C1374 C1388 1.377 . S
C1375 C1374 1.524 . S
C1375 C1376 1.397 . S
C1375 C1380 1.363 . S
C1376 H1353 0.950 . S
C1376 C1375 1.397 . S
C1376 C1377 1.334 . S
C1377 H1354 0.950 . S
C1377 C1376 1.334 . S
C1377 C1378 1.287 . S
C1378 C1377 1.287 . S
C1378 C1379 1.524 . S
C1378 H1397 0.913 . S
C1379 H1355 0.950 . S
C1379 C1378 1.524 . S
C1379 C1380 1.415 . S
C1380 H1356 0.950 . S
C1380 C1375 1.363 . S
C1380 C1379 1.415 . S
C1381 H1357 0.951 . S
C1381 C1382 1.366 . S
C1381 C1383 1.388 . S
C1382 C1381 1.366 . S
C1382 C1386 1.385 . S
C1383 H1358 0.951 . S
C1383 C1381 1.388 . S
C1383 C1384 1.366 . S
C1384 C1383 1.366 . S
C1384 C1385 1.414 . S
C1384 C1387 1.499 . S
C1385 H1359 0.950 . S
C1385 C1384 1.414 . S
C1385 C1386 1.374 . S
C1386 H1360 0.950 . S
C1386 C1382 1.385 . S
C1386 C1385 1.374 . S
C1387 C1384 1.499 . S
C1387 C1388 1.373 . S
C1387 C1389 1.389 . S
C1388 H1361 0.950 . S
C1388 C1374 1.377 . S
C1388 C1387 1.373 . S
C1389 C1373 1.377 . S
C1389 C1387 1.389 . S
C1389 C1390 1.524 . S
C1390 C1389 1.524 . S
C1390 C1391 1.397 . S
C1390 C1395 1.363 . S
C1391 H1362 0.950 . S
C1391 C1390 1.397 . S
C1391 C1392 1.334 . S
C1392 H1363 0.950 . S
C1392 C1391 1.334 . S
C1392 C1393 1.287 . S
C1393 C1392 1.287 . S
C1393 C1394 1.524 . S
C1393 H1396 0.999 . S
C1394 H1364 0.950 . S
C1394 C1393 1.524 . S
C1394 C1395 1.415 . S
C1395 H1365 0.950 . S
C1395 C1390 1.363 . S
C1395 C1394 1.415 . S
H1396 C1393 0.999 . S
H1397 C1378 0.913 . S
H1398 C1416 0.951 . S
H1399 C1418 0.951 . S
H1400 C1420 0.950 . S
H1401 C1421 0.950 . S
H1402 C1423 0.950 . S
H1403 C1426 0.950 . S
H1404 C1427 0.950 . S
H1405 C1429 0.950 . S
H1406 C1430 0.950 . S
H1407 C1431 0.951 . S
H1408 C1433 0.951 . S
H1409 C1435 0.950 . S
H1410 C1436 0.950 . S
H1411 C1438 0.950 . S
H1412 C1441 0.950 . S
H1413 C1442 0.950 . S
H1414 C1444 0.950 . S
H1415 C1445 0.950 . S
C1416 H1398 0.951 . S
C1416 C1417 1.366 . S
C1416 C1418 1.388 . S
C1417 C1416 1.366 . S
C1417 C1421 1.385 . S
C1418 H1399 0.951 . S
C1418 C1416 1.388 . S
C1418 C1419 1.366 . S
C1419 C1418 1.366 . S
C1419 C1420 1.414 . S
C1419 C1422 1.499 . S
C1420 H1400 0.950 . S
C1420 C1419 1.414 . S
C1420 C1421 1.374 . S
C1421 H1401 0.950 . S
C1421 C1417 1.385 . S
C1421 C1420 1.374 . S
C1422 C1419 1.499 . S
C1422 C1423 1.373 . S
C1422 C1424 1.389 . S
C1423 H1402 0.950 . S
C1423 C1422 1.373 . S
C1423 C1439 1.377 . S
C1424 C1422 1.389 . S
C1424 C1425 1.524 . S
C1424 C1438 1.377 . S
C1425 C1424 1.524 . S
C1425 C1426 1.397 . S
C1425 C1430 1.363 . S
C1426 H1403 0.950 . S
C1426 C1425 1.397 . S
C1426 C1427 1.334 . S
C1427 H1404 0.950 . S
C1427 C1426 1.334 . S
C1427 C1428 1.287 . S
C1428 C1427 1.287 . S
C1428 C1429 1.524 . S
C1428 H1447 0.913 . S
C1429 H1405 0.950 . S
C1429 C1428 1.524 . S
C1429 C1430 1.415 . S
C1430 H1406 0.950 . S
C1430 C1425 1.363 . S
C1430 C1429 1.415 . S
C1431 H1407 0.951 . S
C1431 C1432 1.366 . S
C1431 C1433 1.388 . S
C1432 C1431 1.366 . S
C1432 C1436 1.385 . S
C1433 H1408 0.951 . S
C1433 C1431 1.388 . S
C1433 C1434 1.366 . S
C1434 C1433 1.366 . S
C1434 C1435 1.414 . S
C1434 C1437 1.499 . S
C1435 H1409 0.950 . S
C1435 C1434 1.414 . S
C1435 C1436 1.374 . S
C1436 H1410 0.950 . S
C1436 C1432 1.385 . S
C1436 C1435 1.374 . S
C1437 C1434 1.499 . S
C1437 C1438 1.373 . S
C1437 C1439 1.389 . S
C1438 H1411 0.950 . S
C1438 C1424 1.377 . S
C1438 C1437 1.373 . S
C1439 C1423 1.377 . S
C1439 C1437 1.389 . S
C1439 C1440 1.524 . S
C1440 C1439 1.524 . S
C1440 C1441 1.397 . S
C1440 C1445 1.363 . S
C1441 H1412 0.950 . S
C1441 C1440 1.397 . S
C1441 C1442 1.334 . S
C1442 H1413 0.950 . S
C1442 C1441 1.334 . S
C1442 C1443 1.287 . S
C1443 C1442 1.287 . S
C1443 C1444 1.524 . S
C1443 H1446 0.999 . S
C1444 H1414 0.950 . S
C1444 C1443 1.524 . S
C1444 C1445 1.415 . S
C1445 H1415 0.950 . S
C1445 C1440 1.363 . S
C1445 C1444 1.415 . S
H1446 C1443 0.999 . S
H1447 C1428 0.913 . S
C267 C74 1.674 . S
C282 C97 1.730 . S
C332 C137 1.729 . S
C317 C85 1.675 . S
C382 C177 1.729 . S
C367 C52 1.674 . S
C432 C217 1.734 . S
C417 C63 1.674 . S
C482 C106 1.727 1_565 S
C467 C30 1.671 1_565 S
C517 C41 1.673 . S
C532 C146 1.728 . S
C567 C8 1.673 . S
C582 C186 1.729 . S
C617 C19 1.670 1_655 S
C632 C226 1.729 . S
C682 C103 0.412 . S
C667 C62 0.391 . S
C732 C143 0.412 . S
C717 C73 0.391 . S
C782 C183 0.411 . S
C767 C84 0.392 . S
C817 C51 0.390 . S
C832 C223 0.411 . S
C867 C18 0.468 1_655 S
C882 C94 0.411 . S
C932 C134 0.412 . S
C917 C29 0.469 1_565 S
C982 C174 0.411 . S
C967 C40 0.468 . S
C1017 C7 0.470 . S
C1032 C214 0.412 . S
C1067 C60 1.579 . S
C1082 C107 2.020 . S
C1117 C71 1.579 . S
C1132 C147 2.019 . S
C1182 C187 2.020 . S
C1167 C82 1.581 . S
C1232 C227 2.020 . S
C1217 C49 1.581 . S
C1267 C16 1.614 1_655 S
C1282 C98 2.020 . S
C1332 C138 2.019 . S
C1317 C27 1.615 1_565 S
C1382 C178 2.019 . S
C1367 C38 1.614 . S
C1417 C5 1.614 . S
C1432 C218 2.019 . S
