# Generated by pormake.
# Topology iac, (4,6)-cn, num edge types: 1
# Building blocks:
#     Node 0, Type 0, BuildingBlock: QUQFOY_clean_sbu_1, # of connection points: 4
#     Node 1, Type 0, BuildingBlock: QUQFOY_clean_sbu_1, # of connection points: 4
#     Node 2, Type 0, BuildingBlock: QUQFOY_clean_sbu_1, # of connection points: 4
#     Node 3, Type 0, BuildingBlock: QUQFOY_clean_sbu_1, # of connection points: 4
#     Node 4, Type 0, BuildingBlock: QUQFOY_clean_sbu_1, # of connection points: 4
#     Node 5, Type 0, BuildingBlock: QUQFOY_clean_sbu_1, # of connection points: 4
#     Node 6, Type 0, BuildingBlock: QUQFOY_clean_sbu_1, # of connection points: 4
#     Node 7, Type 0, BuildingBlock: QUQFOY_clean_sbu_1, # of connection points: 4
#     Node 8, Type 0, BuildingBlock: QUQFOY_clean_sbu_1, # of connection points: 4
#     Node 9, Type 0, BuildingBlock: QUQFOY_clean_sbu_1, # of connection points: 4
#     Node 10, Type 0, BuildingBlock: QUQFOY_clean_sbu_1, # of connection points: 4
#     Node 11, Type 0, BuildingBlock: QUQFOY_clean_sbu_1, # of connection points: 4
#     Node 12, Type 0, BuildingBlock: QUQFOY_clean_sbu_1, # of connection points: 4
#     Node 13, Type 0, BuildingBlock: QUQFOY_clean_sbu_1, # of connection points: 4
#     Node 14, Type 0, BuildingBlock: QUQFOY_clean_sbu_1, # of connection points: 4
#     Node 15, Type 0, BuildingBlock: QUQFOY_clean_sbu_1, # of connection points: 4
#     Node 16, Type 0, BuildingBlock: QUQFOY_clean_sbu_1, # of connection points: 4
#     Node 17, Type 0, BuildingBlock: QUQFOY_clean_sbu_1, # of connection points: 4
#     Node 18, Type 0, BuildingBlock: QUQFOY_clean_sbu_1, # of connection points: 4
#     Node 19, Type 0, BuildingBlock: QUQFOY_clean_sbu_1, # of connection points: 4
#     Node 20, Type 0, BuildingBlock: QUQFOY_clean_sbu_1, # of connection points: 4
#     Node 21, Type 0, BuildingBlock: QUQFOY_clean_sbu_1, # of connection points: 4
#     Node 22, Type 0, BuildingBlock: QUQFOY_clean_sbu_1, # of connection points: 4
#     Node 23, Type 0, BuildingBlock: QUQFOY_clean_sbu_1, # of connection points: 4
#     Node 24, Type 1, BuildingBlock: LEVNOQ01_clean_sbu_1, # of connection points: 6
#     Node 25, Type 1, BuildingBlock: LEVNOQ01_clean_sbu_1, # of connection points: 6
#     Node 26, Type 1, BuildingBlock: LEVNOQ01_clean_sbu_1, # of connection points: 6
#     Node 27, Type 1, BuildingBlock: LEVNOQ01_clean_sbu_1, # of connection points: 6
#     Node 28, Type 1, BuildingBlock: LEVNOQ01_clean_sbu_1, # of connection points: 6
#     Node 29, Type 1, BuildingBlock: LEVNOQ01_clean_sbu_1, # of connection points: 6
#     Node 30, Type 1, BuildingBlock: LEVNOQ01_clean_sbu_1, # of connection points: 6
#     Node 31, Type 1, BuildingBlock: LEVNOQ01_clean_sbu_1, # of connection points: 6
#     Node 32, Type 1, BuildingBlock: LEVNOQ01_clean_sbu_1, # of connection points: 6
#     Node 33, Type 1, BuildingBlock: LEVNOQ01_clean_sbu_1, # of connection points: 6
#     Node 34, Type 1, BuildingBlock: LEVNOQ01_clean_sbu_1, # of connection points: 6
#     Node 35, Type 1, BuildingBlock: LEVNOQ01_clean_sbu_1, # of connection points: 6
#     Node 36, Type 1, BuildingBlock: LEVNOQ01_clean_sbu_1, # of connection points: 6
#     Node 37, Type 1, BuildingBlock: LEVNOQ01_clean_sbu_1, # of connection points: 6
#     Node 38, Type 1, BuildingBlock: LEVNOQ01_clean_sbu_1, # of connection points: 6
#     Node 39, Type 1, BuildingBlock: LEVNOQ01_clean_sbu_1, # of connection points: 6
#     Edge 40, Type (0, 1), BuildingBlock: KIFKEQ_clean_linker_1, # of connection points: 2
#     Edge 41, Type (0, 1), BuildingBlock: KIFKEQ_clean_linker_1, # of connection points: 2
#     Edge 42, Type (0, 1), BuildingBlock: KIFKEQ_clean_linker_1, # of connection points: 2
#     Edge 43, Type (0, 1), BuildingBlock: KIFKEQ_clean_linker_1, # of connection points: 2
#     Edge 44, Type (0, 1), BuildingBlock: KIFKEQ_clean_linker_1, # of connection points: 2
#     Edge 45, Type (0, 1), BuildingBlock: KIFKEQ_clean_linker_1, # of connection points: 2
#     Edge 46, Type (0, 1), BuildingBlock: KIFKEQ_clean_linker_1, # of connection points: 2
#     Edge 47, Type (0, 1), BuildingBlock: KIFKEQ_clean_linker_1, # of connection points: 2
#     Edge 48, Type (0, 1), BuildingBlock: KIFKEQ_clean_linker_1, # of connection points: 2
#     Edge 49, Type (0, 1), BuildingBlock: KIFKEQ_clean_linker_1, # of connection points: 2
#     Edge 50, Type (0, 1), BuildingBlock: KIFKEQ_clean_linker_1, # of connection points: 2
#     Edge 51, Type (0, 1), BuildingBlock: KIFKEQ_clean_linker_1, # of connection points: 2
#     Edge 52, Type (0, 1), BuildingBlock: KIFKEQ_clean_linker_1, # of connection points: 2
#     Edge 53, Type (0, 1), BuildingBlock: KIFKEQ_clean_linker_1, # of connection points: 2
#     Edge 54, Type (0, 1), BuildingBlock: KIFKEQ_clean_linker_1, # of connection points: 2
#     Edge 55, Type (0, 1), BuildingBlock: KIFKEQ_clean_linker_1, # of connection points: 2
#     Edge 56, Type (0, 1), BuildingBlock: KIFKEQ_clean_linker_1, # of connection points: 2
#     Edge 57, Type (0, 1), BuildingBlock: KIFKEQ_clean_linker_1, # of connection points: 2
#     Edge 58, Type (0, 1), BuildingBlock: KIFKEQ_clean_linker_1, # of connection points: 2
#     Edge 59, Type (0, 1), BuildingBlock: KIFKEQ_clean_linker_1, # of connection points: 2
#     Edge 60, Type (0, 1), BuildingBlock: KIFKEQ_clean_linker_1, # of connection points: 2
#     Edge 61, Type (0, 1), BuildingBlock: KIFKEQ_clean_linker_1, # of connection points: 2
#     Edge 62, Type (0, 1), BuildingBlock: KIFKEQ_clean_linker_1, # of connection points: 2
#     Edge 63, Type (0, 1), BuildingBlock: KIFKEQ_clean_linker_1, # of connection points: 2
#     Edge 64, Type (0, 1), BuildingBlock: KIFKEQ_clean_linker_1, # of connection points: 2
#     Edge 65, Type (0, 1), BuildingBlock: KIFKEQ_clean_linker_1, # of connection points: 2
#     Edge 66, Type (0, 1), BuildingBlock: KIFKEQ_clean_linker_1, # of connection points: 2
#     Edge 67, Type (0, 1), BuildingBlock: KIFKEQ_clean_linker_1, # of connection points: 2
#     Edge 68, Type (0, 1), BuildingBlock: KIFKEQ_clean_linker_1, # of connection points: 2
#     Edge 69, Type (0, 1), BuildingBlock: KIFKEQ_clean_linker_1, # of connection points: 2
#     Edge 70, Type (0, 1), BuildingBlock: KIFKEQ_clean_linker_1, # of connection points: 2
#     Edge 71, Type (0, 1), BuildingBlock: KIFKEQ_clean_linker_1, # of connection points: 2
#     Edge 72, Type (0, 1), BuildingBlock: KIFKEQ_clean_linker_1, # of connection points: 2
#     Edge 73, Type (0, 1), BuildingBlock: KIFKEQ_clean_linker_1, # of connection points: 2
#     Edge 74, Type (0, 1), BuildingBlock: KIFKEQ_clean_linker_1, # of connection points: 2
#     Edge 75, Type (0, 1), BuildingBlock: KIFKEQ_clean_linker_1, # of connection points: 2
#     Edge 76, Type (0, 1), BuildingBlock: KIFKEQ_clean_linker_1, # of connection points: 2
#     Edge 77, Type (0, 1), BuildingBlock: KIFKEQ_clean_linker_1, # of connection points: 2
#     Edge 78, Type (0, 1), BuildingBlock: KIFKEQ_clean_linker_1, # of connection points: 2
#     Edge 79, Type (0, 1), BuildingBlock: KIFKEQ_clean_linker_1, # of connection points: 2
#     Edge 80, Type (0, 1), BuildingBlock: KIFKEQ_clean_linker_1, # of connection points: 2
#     Edge 81, Type (0, 1), BuildingBlock: KIFKEQ_clean_linker_1, # of connection points: 2
#     Edge 82, Type (0, 1), BuildingBlock: KIFKEQ_clean_linker_1, # of connection points: 2
#     Edge 83, Type (0, 1), BuildingBlock: KIFKEQ_clean_linker_1, # of connection points: 2
#     Edge 84, Type (0, 1), BuildingBlock: KIFKEQ_clean_linker_1, # of connection points: 2
#     Edge 85, Type (0, 1), BuildingBlock: KIFKEQ_clean_linker_1, # of connection points: 2
#     Edge 86, Type (0, 1), BuildingBlock: KIFKEQ_clean_linker_1, # of connection points: 2
#     Edge 87, Type (0, 1), BuildingBlock: KIFKEQ_clean_linker_1, # of connection points: 2
#     Edge 88, Type (0, 1), BuildingBlock: KIFKEQ_clean_linker_1, # of connection points: 2
#     Edge 89, Type (0, 1), BuildingBlock: KIFKEQ_clean_linker_1, # of connection points: 2
#     Edge 90, Type (0, 1), BuildingBlock: KIFKEQ_clean_linker_1, # of connection points: 2
#     Edge 91, Type (0, 1), BuildingBlock: KIFKEQ_clean_linker_1, # of connection points: 2
#     Edge 92, Type (0, 1), BuildingBlock: KIFKEQ_clean_linker_1, # of connection points: 2
#     Edge 93, Type (0, 1), BuildingBlock: KIFKEQ_clean_linker_1, # of connection points: 2
#     Edge 94, Type (0, 1), BuildingBlock: KIFKEQ_clean_linker_1, # of connection points: 2
#     Edge 95, Type (0, 1), BuildingBlock: KIFKEQ_clean_linker_1, # of connection points: 2
#     Edge 96, Type (0, 1), BuildingBlock: KIFKEQ_clean_linker_1, # of connection points: 2
#     Edge 97, Type (0, 1), BuildingBlock: KIFKEQ_clean_linker_1, # of connection points: 2
#     Edge 98, Type (0, 1), BuildingBlock: KIFKEQ_clean_linker_1, # of connection points: 2
#     Edge 99, Type (0, 1), BuildingBlock: KIFKEQ_clean_linker_1, # of connection points: 2
#     Edge 100, Type (0, 1), BuildingBlock: KIFKEQ_clean_linker_1, # of connection points: 2
#     Edge 101, Type (0, 1), BuildingBlock: KIFKEQ_clean_linker_1, # of connection points: 2
#     Edge 102, Type (0, 1), BuildingBlock: KIFKEQ_clean_linker_1, # of connection points: 2
#     Edge 103, Type (0, 1), BuildingBlock: KIFKEQ_clean_linker_1, # of connection points: 2
#     Edge 104, Type (0, 1), BuildingBlock: KIFKEQ_clean_linker_1, # of connection points: 2
#     Edge 105, Type (0, 1), BuildingBlock: KIFKEQ_clean_linker_1, # of connection points: 2
#     Edge 106, Type (0, 1), BuildingBlock: KIFKEQ_clean_linker_1, # of connection points: 2
#     Edge 107, Type (0, 1), BuildingBlock: KIFKEQ_clean_linker_1, # of connection points: 2
#     Edge 108, Type (0, 1), BuildingBlock: KIFKEQ_clean_linker_1, # of connection points: 2
#     Edge 109, Type (0, 1), BuildingBlock: KIFKEQ_clean_linker_1, # of connection points: 2
#     Edge 110, Type (0, 1), BuildingBlock: KIFKEQ_clean_linker_1, # of connection points: 2
#     Edge 111, Type (0, 1), BuildingBlock: KIFKEQ_clean_linker_1, # of connection points: 2
#     Edge 112, Type (0, 1), BuildingBlock: KIFKEQ_clean_linker_1, # of connection points: 2
#     Edge 113, Type (0, 1), BuildingBlock: KIFKEQ_clean_linker_1, # of connection points: 2
#     Edge 114, Type (0, 1), BuildingBlock: KIFKEQ_clean_linker_1, # of connection points: 2
#     Edge 115, Type (0, 1), BuildingBlock: KIFKEQ_clean_linker_1, # of connection points: 2
#     Edge 116, Type (0, 1), BuildingBlock: KIFKEQ_clean_linker_1, # of connection points: 2
#     Edge 117, Type (0, 1), BuildingBlock: KIFKEQ_clean_linker_1, # of connection points: 2
#     Edge 118, Type (0, 1), BuildingBlock: KIFKEQ_clean_linker_1, # of connection points: 2
#     Edge 119, Type (0, 1), BuildingBlock: KIFKEQ_clean_linker_1, # of connection points: 2
#     Edge 120, Type (0, 1), BuildingBlock: KIFKEQ_clean_linker_1, # of connection points: 2
#     Edge 121, Type (0, 1), BuildingBlock: KIFKEQ_clean_linker_1, # of connection points: 2
#     Edge 122, Type (0, 1), BuildingBlock: KIFKEQ_clean_linker_1, # of connection points: 2
#     Edge 123, Type (0, 1), BuildingBlock: KIFKEQ_clean_linker_1, # of connection points: 2
#     Edge 124, Type (0, 1), BuildingBlock: KIFKEQ_clean_linker_1, # of connection points: 2
#     Edge 125, Type (0, 1), BuildingBlock: KIFKEQ_clean_linker_1, # of connection points: 2
#     Edge 126, Type (0, 1), BuildingBlock: KIFKEQ_clean_linker_1, # of connection points: 2
#     Edge 127, Type (0, 1), BuildingBlock: KIFKEQ_clean_linker_1, # of connection points: 2
#     Edge 128, Type (0, 1), BuildingBlock: KIFKEQ_clean_linker_1, # of connection points: 2
#     Edge 129, Type (0, 1), BuildingBlock: KIFKEQ_clean_linker_1, # of connection points: 2
#     Edge 130, Type (0, 1), BuildingBlock: KIFKEQ_clean_linker_1, # of connection points: 2
#     Edge 131, Type (0, 1), BuildingBlock: KIFKEQ_clean_linker_1, # of connection points: 2
#     Edge 132, Type (0, 1), BuildingBlock: KIFKEQ_clean_linker_1, # of connection points: 2
#     Edge 133, Type (0, 1), BuildingBlock: KIFKEQ_clean_linker_1, # of connection points: 2
#     Edge 134, Type (0, 1), BuildingBlock: KIFKEQ_clean_linker_1, # of connection points: 2
#     Edge 135, Type (0, 1), BuildingBlock: KIFKEQ_clean_linker_1, # of connection points: 2
# Relax obj value: 0.119
# Max RMSD: 0.181
# Mean RMSD: 0.148
data_MOF--net-iac--node1-QUQFOY_clean_sbu_1--node2-LEVNOQ01_clean_sbu_1--edge1-KIFKEQ_clean_linker_1
_symmetry_space_group_name_H-M    P1
_symmetry_Int_Tables_number       1
_symmetry_cell_setting            triclinic
loop_
_symmetry_equiv_pos_as_xyz
'x, y, z'
_cell_length_a     56.494547
_cell_length_b     56.274857
_cell_length_c     56.571842
_cell_angle_alpha  91.115304
_cell_angle_beta   90.32172
_cell_angle_gamma 93.027677
loop_
_atom_site_label
_atom_site_type_symbol
_atom_site_fract_x
_atom_site_fract_y
_atom_site_fract_z
_atom_type_partial_charge
O0 O -0.00387 0.2055 0.12384 0.0
Cd1 Cd 0.99261 0.23586 0.14391 0.0
Cd2 Cd 0.01061 0.25664 0.10574 0.0
O3 O 0.0042 0.22339 0.09022 0.0
O4 O 0.96599 0.23011 0.16642 0.0
O5 O 0.96591 0.25689 0.1381 0.0
C6 C 0.9553 0.24636 0.1554 0.0
C7 C -0.00131 0.29144 0.08824 0.0
C8 C 0.00041 0.20445 0.10184 0.0
C9 C 0.04116 0.25582 0.14997 0.0
O10 O 0.03983 0.25987 0.12794 0.0
O11 O 0.02306 0.2478 0.16108 0.0
O12 O 0.01605 0.28004 0.07973 0.0
O13 O 0.98769 0.28269 0.10623 0.0
O14 O 0.03145 0.74499 0.35896 0.0
Cd15 Cd 0.00555 0.7491 0.38395 0.0
Cd16 Cd 0.98884 0.77077 0.3468 0.0
O17 O 0.01546 0.75807 0.32648 0.0
O18 O 0.01977 0.73145 0.4099 0.0
O19 O 0.98512 0.72036 0.39371 0.0
C20 C 0.00182 0.71645 0.40857 0.0
C21 C 0.94927 0.76153 0.34143 0.0
C22 C 0.03238 0.7485 0.33687 0.0
C23 C -0.00184 0.80135 0.38842 0.0
O24 O -0.00444 0.80123 0.36618 0.0
O25 O 0.00082 0.78205 0.39915 0.0
O26 O 0.96038 0.77704 0.32844 0.0
O27 O 0.96108 0.74983 0.35653 0.0
O28 O 0.48505 0.72095 0.61723 0.0
Cd29 Cd 0.48359 0.75254 0.63644 0.0
Cd30 Cd 0.50637 0.76921 0.59918 0.0
O31 O 0.50065 0.7359 0.5847 0.0
O32 O 0.46032 0.74593 0.66218 0.0
O33 O 0.45501 0.7725 0.63469 0.0
C34 C 0.4474 0.76177 0.65333 0.0
C35 C 0.49215 0.80307 0.5825 0.0
C36 C 0.49283 0.71814 0.59636 0.0
C37 C 0.53411 0.76913 0.64391 0.0
O38 O 0.53504 0.77185 0.62169 0.0
O39 O 0.51459 0.7635 0.65392 0.0
O40 O 0.5101 0.79287 0.57354 0.0
O41 O 0.48205 0.7937 0.60076 0.0
O42 O 0.53741 0.25167 0.86642 0.0
Cd43 Cd 0.50805 0.25317 0.8881 0.0
Cd44 Cd 0.48924 0.26906 0.8491 0.0
O45 O 0.51835 0.25645 0.83294 0.0
O46 O 0.51608 0.23551 0.91697 0.0
O47 O 0.48848 0.22257 0.89114 0.0
C48 C 0.50051 0.21921 0.91017 0.0
C49 C 0.45127 0.25739 0.83729 0.0
C50 C 0.53711 0.25184 0.84394 0.0
C51 C 0.49315 0.30355 0.88804 0.0
O52 O 0.49231 0.30169 0.86568 0.0
O53 O 0.49693 0.2855 0.9004 0.0
O54 O 0.46466 0.27114 0.82445 0.0
O55 O 0.4599 0.24927 0.85655 0.0
O56 O 0.12669 0.97747 0.21297 0.0
Cd57 Cd 0.14989 0.98122 0.24107 0.0
Cd58 Cd 0.11489 -0.00056 0.26413 0.0
O59 O 0.09655 0.98964 0.23364 0.0
O60 O 0.17419 0.95707 0.23878 0.0
O61 O 0.14711 0.9575 0.26706 0.0
C62 C 0.16478 0.94749 0.2573 0.0
C63 C 0.09407 -0.00614 0.2994 0.0
C64 C 0.10497 0.98216 0.21429 0.0
C65 C 0.15659 0.03252 0.25249 0.0
O66 O 0.1362 0.03022 0.2618 0.0
O67 O 0.16646 0.01449 0.24407 0.0
O68 O 0.08854 0.00949 0.28433 0.0
O69 O 0.11189 0.9812 0.29469 0.0
O70 O 0.24212 0.87558 0.54043 0.0
Cd71 Cd 0.24229 0.89786 0.51225 0.0
Cd72 Cd 0.24984 0.85977 0.48841 0.0
O73 O 0.23573 0.84354 0.51786 0.0
O74 O 0.22318 0.92554 0.52 0.0
O75 O 0.21224 0.89721 0.49358 0.0
C76 C 0.20761 0.91638 0.50521 0.0
C77 C 0.23854 0.84691 0.45075 0.0
C78 C 0.23699 0.85341 0.53822 0.0
C79 C 0.2903 0.89521 0.494 0.0
O80 O 0.28437 0.87341 0.49013 0.0
O81 O 0.27493 0.90957 0.50058 0.0
O82 O 0.25053 0.8339 0.46441 0.0
O83 O 0.23186 0.86705 0.45891 0.0
O84 O 0.38226 0.01793 0.71233 0.0
Cd85 Cd 0.36102 0.01678 0.74188 0.0
Cd86 Cd 0.39968 -0.00033 0.75718 0.0
O87 O 0.41706 0.01447 0.72917 0.0
O88 O 0.33296 0.03354 0.73116 0.0
O89 O 0.35697 0.04723 0.75994 0.0
C90 C 0.33886 0.05011 0.74643 0.0
C91 C 0.40959 0.00437 0.7961 0.0
C92 C 0.40474 0.01862 0.71107 0.0
C93 C 0.35926 0.96619 0.75443 0.0
O94 O 0.38148 0.96782 0.75166 0.0
O95 O 0.34746 0.98474 0.75397 0.0
O96 O 0.42198 0.9918 0.78197 0.0
O97 O 0.39291 0.0166 0.78755 0.0
O98 O 0.26637 0.12308 0.02766 0.0
Cd99 Cd 0.2653 0.10735 -0.00555 0.0
Cd100 Cd 0.24772 0.14769 0.98169 0.0
O101 O 0.25912 0.15885 0.0152 0.0
O102 O 0.28651 0.08033 -0.00382 0.0
O103 O 0.29421 0.11173 0.97401 0.0
C104 C 0.3006 0.09166 0.98195 0.0
C105 C 0.25863 0.16834 0.94773 0.0
C106 C 0.26444 0.14513 0.03184 0.0
C107 C 0.21459 0.10462 0.97959 0.0
O108 O 0.21627 0.12723 0.97938 0.0
O109 O 0.23287 0.09295 0.98327 0.0
O110 O 0.2434 0.17641 0.96235 0.0
O111 O 0.26845 0.14886 0.95292 0.0
O112 O 0.74289 0.37235 0.03778 0.0
Cd113 Cd 0.74749 0.39722 0.01192 0.0
Cd114 Cd 0.75692 0.35948 0.9876 0.0
O115 O 0.74365 0.34002 0.01525 0.0
O116 O 0.73003 0.42504 0.02278 0.0
O117 O 0.71934 0.40261 0.99147 0.0
C118 C 0.7151 0.41999 0.00584 0.0
C119 C 0.74801 0.3513 0.94856 0.0
C120 C 0.74069 0.34984 0.03533 0.0
C121 C 0.79694 0.39478 -0.00299 0.0
O122 O 0.79072 0.37358 0.99104 0.0
O123 O 0.78173 0.40888 0.00453 0.0
O124 O 0.76094 0.33767 0.96061 0.0
O125 O 0.7382 0.36866 0.95929 0.0
O126 O 0.8825 0.50998 0.21208 0.0
Cd127 Cd 0.85726 0.50741 0.238 0.0
Cd128 Cd 0.89531 0.49459 0.26033 0.0
O129 O 0.91527 0.50662 0.23264 0.0
O130 O 0.83143 0.52348 0.22221 0.0
O131 O 0.84841 0.53703 0.25559 0.0
C132 C 0.83359 0.53972 0.23851 0.0
C133 C 0.90506 0.50221 0.29904 0.0
C134 C 0.90497 0.51052 0.21325 0.0
C135 C 0.85625 0.45774 0.25243 0.0
O136 O 0.87808 0.46208 0.2567 0.0
O137 O 0.84327 0.47423 0.2461 0.0
O138 O 0.91698 0.48803 0.28618 0.0
O139 O 0.88866 0.51394 0.28932 0.0
O140 O 0.76137 0.62161 0.52659 0.0
Cd141 Cd 0.75971 0.60426 0.49415 0.0
Cd142 Cd 0.74673 0.64487 0.47787 0.0
O143 O 0.75967 0.65683 0.51053 0.0
O144 O 0.78095 0.57713 0.49542 0.0
O145 O 0.78848 0.60906 0.47385 0.0
C146 C 0.79509 0.589 0.48158 0.0
C147 C 0.75922 0.66304 0.44298 0.0
C148 C 0.76266 0.64415 0.5286 0.0
C149 C 0.70941 0.60536 0.47841 0.0
O150 O 0.71337 0.62774 0.47707 0.0
O151 O 0.7264 0.59207 0.48269 0.0
O152 O 0.74522 0.67331 0.45743 0.0
O153 O 0.7667 0.64264 0.44869 0.0
O154 O 0.61719 0.48696 0.71732 0.0
Cd155 Cd 0.6412 0.48822 0.74496 0.0
Cd156 Cd 0.60515 0.50367 0.76772 0.0
O157 O 0.58545 0.49111 0.73907 0.0
O158 O 0.66608 0.46632 0.73548 0.0
O159 O 0.64326 0.46048 0.76672 0.0
C160 C 0.65973 0.45319 0.75303 0.0
C161 C 0.59151 0.49451 0.80549 0.0
C162 C 0.59483 0.48755 0.71909 0.0
C163 C 0.64504 0.53911 0.75619 0.0
O164 O 0.62354 0.53595 0.76248 0.0
O165 O 0.6572 0.52137 0.75112 0.0
O166 O 0.58112 0.50936 0.79242 0.0
O167 O 0.61001 0.4848 0.79718 0.0
O168 O 0.04253 0.74806 0.87548 0.0
Cd169 Cd 0.01308 0.74712 0.89595 0.0
Cd170 Cd -0.00636 0.76456 0.85512 0.0
O171 O 0.02544 0.75416 0.8412 0.0
O172 O 0.02328 0.72627 0.9215 0.0
O173 O -0.00584 0.71606 0.89626 0.0
C174 C 0.00817 0.71028 0.91313 0.0
C175 C 0.95916 0.75765 0.83262 0.0
C176 C 0.04358 0.74921 0.85319 0.0
C177 C -0.00324 0.7961 0.89947 0.0
O178 O -0.00678 0.79416 0.8773 0.0
O179 O 0.0034 0.77854 0.91115 0.0
O180 O 0.97469 0.7743 0.8275 0.0
O181 O 0.96351 0.74432 0.8503 0.0
O182 O 0.99085 0.20971 0.63004 0.0
Cd183 Cd 0.99303 0.24299 0.64585 0.0
Cd184 Cd 0.0033 0.25442 0.60253 0.0
O185 O 0.98652 0.22231 0.59373 0.0
O186 O 0.9729 0.24195 0.67491 0.0
O187 O 0.96434 0.26186 0.64281 0.0
C188 C 0.95835 0.25463 0.66358 0.0
C189 C -0.00557 0.29063 0.58676 0.0
C190 C 0.9866 0.20534 0.60825 0.0
C191 C 0.04297 0.25493 0.63693 0.0
O192 O 0.0369 0.25183 0.61543 0.0
O193 O 0.02731 0.25628 0.65293 0.0
O194 O 0.0056 0.27531 0.57442 0.0
O195 O 0.98752 0.28484 0.6077 0.0
O196 O 0.5019 0.21129 0.37152 0.0
Cd197 Cd 0.50824 0.24319 0.35501 0.0
Cd198 Cd 0.48917 0.25714 0.39261 0.0
O199 O 0.50364 0.22777 0.40705 0.0
O200 O 0.53039 0.23517 0.32962 0.0
O201 O 0.54053 0.25874 0.36036 0.0
C202 C 0.54652 0.2475 0.34135 0.0
C203 C 0.49426 0.29529 0.40809 0.0
C204 C 0.50427 0.20942 0.3937 0.0
C205 C 0.4606 0.25559 0.34871 0.0
O206 O 0.46005 0.25146 0.37069 0.0
O207 O 0.48037 0.25789 0.33833 0.0
O208 O 0.47931 0.28001 0.41726 0.0
O209 O 0.50734 0.28841 0.39083 0.0
O210 O 0.49273 0.71421 0.13084 0.0
Cd211 Cd 0.49289 0.74848 0.14388 0.0
Cd212 Cd 0.50315 0.75639 0.09938 0.0
O213 O 0.48956 0.72201 0.09295 0.0
O214 O 0.47327 0.74665 0.17317 0.0
O215 O 0.46319 0.76602 0.14124 0.0
C216 C 0.45791 0.7586 0.16213 0.0
C217 C 0.49222 0.79083 0.08092 0.0
C218 C 0.4898 0.70705 0.10955 0.0
C219 C 0.54226 0.76245 0.13544 0.0
O220 O 0.53657 0.75808 0.11398 0.0
O221 O 0.5263 0.76342 0.15116 0.0
O222 O 0.50539 0.77599 0.07022 0.0
O223 O 0.4841 0.78527 0.10151 0.0
O224 O 0.8693 0.0064 0.70601 0.0
Cd225 Cd 0.84973 0.00758 0.73621 0.0
Cd226 Cd 0.89111 0.99266 0.75546 0.0
O227 O 0.9039 0.00571 0.72398 0.0
O228 O 0.8243 0.02839 0.72671 0.0
O229 O 0.85181 0.03876 0.75371 0.0
C230 C 0.83424 0.04447 0.74058 0.0
C231 C 0.91398 -0.00123 0.78946 0.0
C232 C 0.89172 0.00854 0.70542 0.0
C233 C 0.8473 0.95939 0.75598 0.0
O234 O 0.86978 0.96186 0.75666 0.0
O235 O 0.83503 0.97661 0.74999 0.0
O236 O 0.91993 0.98411 0.77305 0.0
O237 O 0.89548 0.01087 0.78605 0.0
O238 O 0.74721 0.11799 0.53438 0.0
Cd239 Cd 0.74929 0.1029 0.50125 0.0
Cd240 Cd 0.74107 0.14658 0.48998 0.0
O241 O 0.75291 0.1553 0.52377 0.0
O242 O 0.76698 0.07363 0.5061 0.0
O243 O 0.7809 0.10435 0.48536 0.0
C244 C 0.78406 0.08385 0.49441 0.0
C245 C 0.75395 0.16524 0.45584 0.0
C246 C 0.7509 0.13985 0.53984 0.0
C247 C 0.70125 0.10952 0.48495 0.0
O248 O 0.70719 0.13146 0.48784 0.0
O249 O 0.71685 0.09407 0.48599 0.0
O250 O 0.74041 0.17571 0.47062 0.0
O251 O 0.76142 0.14472 0.46135 0.0
O252 O 0.63042 -0.00144 0.21054 0.0
Cd253 Cd 0.64698 -0.00259 0.24286 0.0
Cd254 Cd 0.60475 0.00791 0.25741 0.0
O255 O 0.59391 -0.0031 0.22418 0.0
O256 O 0.67486 0.97786 0.23829 0.0
O257 O 0.64426 0.96748 0.26101 0.0
C258 C 0.66435 0.96244 0.2518 0.0
C259 C 0.58266 -0.00064 0.29076 0.0
C260 C 0.60819 -0.00315 0.2069 0.0
C261 C 0.64403 0.04595 0.25954 0.0
O262 O 0.62192 0.04084 0.25895 0.0
O263 O 0.65854 0.02969 0.25674 0.0
O264 O 0.57589 0.01447 0.27568 0.0
O265 O 0.60139 0.98792 0.28628 0.0
O266 O 0.73911 0.87567 0.04028 0.0
Cd267 Cd 0.74138 0.89683 0.01135 0.0
Cd268 Cd 0.75493 0.85812 0.99065 0.0
O269 O 0.74067 0.84184 0.02025 0.0
O270 O 0.72232 0.92423 0.02001 0.0
O271 O 0.71143 0.8969 0.99262 0.0
C272 C 0.70653 0.91527 0.0054 0.0
C273 C 0.74572 0.84453 0.95222 0.0
C274 C 0.73727 0.85311 0.03954 0.0
C275 C 0.79174 0.89715 -0.00128 0.0
O276 O 0.7879 0.87491 -0.00466 0.0
O277 O 0.77452 0.91038 0.00232 0.0
O278 O 0.75903 0.833 0.96606 0.0
O279 O 0.73685 0.86367 0.9605 0.0
O280 O 0.25778 0.62389 0.03643 0.0
Cd281 Cd 0.25854 0.60607 0.00458 0.0
Cd282 Cd 0.24403 0.64797 0.98999 0.0
O283 O 0.2518 0.65995 0.02379 0.0
O284 O 0.27717 0.5784 0.01277 0.0
O285 O 0.28845 0.6045 0.98572 0.0
C286 C 0.29281 0.58599 -0.00215 0.0
C287 C 0.2525 0.67049 0.95672 0.0
C288 C 0.25541 0.64584 0.04053 0.0
C289 C 0.20877 0.606 0.98929 0.0
O290 O 0.21263 0.62831 0.98772 0.0
O291 O 0.22573 0.59269 -0.00646 0.0
O292 O 0.23677 0.67654 0.97176 0.0
O293 O 0.26454 0.65221 0.9613 0.0
O294 O 0.12938 0.50327 0.71322 0.0
Cd295 Cd 0.14692 0.50304 0.74493 0.0
Cd296 Cd 0.10507 0.51273 0.75995 0.0
O297 O 0.09329 0.49964 0.72759 0.0
O298 O 0.1748 0.48392 0.73816 0.0
O299 O 0.14678 0.47349 0.76388 0.0
C300 C 0.16587 0.46859 0.75274 0.0
C301 C 0.0892 0.50059 0.7955 0.0
C302 C 0.1072 0.50018 0.71003 0.0
C303 C 0.14246 0.55214 0.76034 0.0
O304 O 0.12039 0.54656 0.76006 0.0
O305 O 0.15739 0.53616 0.75782 0.0
O306 O 0.07753 0.51364 0.78154 0.0
O307 O 0.10949 0.49353 0.78864 0.0
O308 O 0.22768 0.36463 0.53992 0.0
Cd309 Cd 0.23345 0.39046 0.51559 0.0
Cd310 Cd 0.25366 0.35518 0.49229 0.0
O311 O 0.24242 0.33444 0.52063 0.0
O312 O 0.21063 0.4145 0.5253 0.0
O313 O 0.20809 0.39453 0.49121 0.0
C314 C 0.19911 0.40931 0.50598 0.0
C315 C 0.24567 0.34381 0.45305 0.0
C316 C 0.23232 0.34284 0.53881 0.0
C317 C 0.28549 0.39716 0.50811 0.0
O318 O 0.28385 0.37687 0.49786 0.0
O319 O 0.26713 0.4067 0.51602 0.0
O320 O 0.26197 0.33426 0.46513 0.0
O321 O 0.23308 0.35931 0.46354 0.0
O322 O 0.36784 0.49608 0.20765 0.0
Cd323 Cd 0.35013 0.49994 0.239 0.0
Cd324 Cd 0.39229 0.49025 0.2572 0.0
O325 O 0.40306 0.50235 0.22434 0.0
O326 O 0.32262 0.51939 0.23223 0.0
O327 O 0.35387 0.53244 0.25372 0.0
C328 C 0.3339 0.53653 0.2437 0.0
C329 C 0.41405 0.49996 0.29136 0.0
C330 C 0.38996 0.5009 0.20594 0.0
C331 C 0.35175 0.45368 0.26144 0.0
O332 O 0.37404 0.45759 0.26008 0.0
O333 O 0.33799 0.46994 0.25624 0.0
O334 O 0.42115 0.48461 0.27614 0.0
O335 O 0.39528 0.51113 0.28647 0.0
O336 O 0.96324 0.01768 0.96181 0.0
Mg337 Mg 0.96004 0.02777 -0.00244 0.0
O338 O -0.00594 -0.00524 0.96513 0.0
Mg339 Mg 0.00508 -0.00464 0.00511 0.0
O340 O 0.99276 0.03272 0.0117 0.0
O341 O 0.96781 0.06191 0.00996 0.0
O342 O 0.01579 -0.00443 0.04573 0.0
O343 O 0.04107 0.01417 -0.00453 0.0
Mg344 Mg 0.04614 0.96234 0.02123 0.0
O345 O 0.01766 0.95822 -0.00098 0.0
O346 O 0.02818 0.95974 0.05345 0.0
O347 O 0.06621 -0.00492 0.01746 0.0
O348 O 0.05027 0.9399 0.99198 0.0
C349 C 0.94772 0.98207 0.02062 0.0
C350 C 0.97803 0.00398 0.95279 0.0
C351 C 0.98791 0.05443 0.01667 0.0
C352 C 0.02095 0.9796 0.0605 0.0
C353 C 0.06156 0.01246 0.00459 0.0
C354 C 0.02975 0.94563 0.98473 0.0
O355 O 0.94127 0.00318 0.01863 0.0
O356 O 0.96855 0.97638 0.01479 0.0
O357 O 0.25687 0.7477 0.3098 0.0
Mg358 Mg 0.2424 0.71608 0.2938 0.0
O359 O 0.24854 0.76817 0.27808 0.0
Mg360 Mg 0.24128 0.74326 0.24541 0.0
O361 O 0.25679 0.70995 0.26145 0.0
O362 O 0.26205 0.68666 0.29239 0.0
O363 O 0.23288 0.71883 0.2122 0.0
O364 O 0.27897 0.75276 0.23067 0.0
Mg365 Mg 0.23566 0.77186 0.19602 0.0
O366 O 0.22635 0.77601 0.22998 0.0
O367 O 0.21734 0.74047 0.18424 0.0
O368 O 0.2734 0.77057 0.19633 0.0
O369 O 0.21726 0.80236 0.20347 0.0
C370 C 0.19314 0.7224 0.27529 0.0
C371 C 0.25488 0.76736 0.29967 0.0
C372 C 0.26554 0.69122 0.27038 0.0
C373 C 0.2223 0.72046 0.19231 0.0
C374 C 0.28703 0.76219 0.21174 0.0
C375 C 0.21664 0.79554 0.22507 0.0
O376 O 0.20496 0.71229 0.291 0.0
O377 O 0.20339 0.73416 0.25887 0.0
O378 O 0.54508 0.98971 0.47333 0.0
Mg379 Mg 0.54243 0.98915 0.51109 0.0
O380 O 0.5092 0.00203 0.46492 0.0
Mg381 Mg 0.49324 0.01193 0.50085 0.0
O382 O 0.5083 0.9799 0.51849 0.0
O383 O 0.53773 0.95794 0.52963 0.0
O384 O 0.47807 0.02202 0.53716 0.0
O385 O 0.46065 0.98622 0.49258 0.0
Mg386 Mg 0.4436 0.03991 0.49529 0.0
O387 O 0.47727 0.04314 0.48352 0.0
O388 O 0.44654 0.04367 0.53273 0.0
O389 O 0.42977 0.00672 0.48196 0.0
O390 O 0.45076 0.06859 0.47322 0.0
C391 C 0.54466 0.03953 0.52072 0.0
C392 C 0.5293 -0.00506 0.45843 0.0
C393 C 0.51533 0.96122 0.52881 0.0
C394 C 0.46159 0.03408 0.54582 0.0
C395 C 0.43954 0.98714 0.48463 0.0
C396 C 0.4722 0.0619 0.47229 0.0
O397 O 0.55203 0.02084 0.52967 0.0
O398 O 0.52579 0.03856 0.50817 0.0
O399 O 0.30263 0.28754 0.75273 0.0
Mg400 Mg 0.2957 0.26757 0.72107 0.0
O401 O 0.2756 0.26369 0.76911 0.0
Mg402 Mg 0.24399 0.25544 0.74357 0.0
O403 O 0.26167 0.27169 0.71151 0.0
O404 O 0.2912 0.28384 0.68852 0.0
O405 O 0.21224 0.24587 0.71803 0.0
O406 O 0.22839 0.29172 0.75197 0.0
Mg407 Mg 0.19231 0.24631 0.76923 0.0
O408 O 0.22643 0.23933 0.77552 0.0
O409 O 0.18256 0.22796 0.73749 0.0
O410 O 0.19242 0.28441 0.76722 0.0
O411 O 0.19852 0.22815 0.80061 0.0
C412 C 0.28116 0.21409 0.72987 0.0
C413 C 0.29458 0.27687 0.77072 0.0
C414 C 0.26873 0.28116 0.69206 0.0
C415 C 0.19216 0.23435 0.71824 0.0
C416 C 0.20884 0.29885 0.75998 0.0
C417 C 0.22062 0.22936 0.79509 0.0
O418 O 0.2973 0.22974 0.7245 0.0
O419 O 0.26025 0.21964 0.73551 0.0
O420 O 0.98057 0.93403 0.51601 0.0
Mg421 Mg -0.00397 0.95297 0.54517 0.0
O422 O 0.98609 0.96279 0.48978 0.0
Mg423 Mg -0.00393 -0.00132 0.50894 0.0
O424 O 0.98289 0.9855 0.54395 0.0
O425 O 0.97637 0.96241 0.57463 0.0
O426 O 0.00494 0.03359 0.53202 0.0
O427 O 0.95765 0.01033 0.50194 0.0
Mg428 Mg 0.00281 0.03961 0.48886 0.0
O429 O 0.01063 0.00936 0.47071 0.0
O430 O 0.02917 0.05548 0.51088 0.0
O431 O 0.96705 0.04783 0.49465 0.0
O432 O 0.01143 0.04596 0.45536 0.0
C433 C 0.04472 0.97208 0.52924 0.0
C434 C 0.98011 0.94129 0.49489 0.0
C435 C 0.97351 0.9823 0.56438 0.0
C436 C 0.01943 0.05161 0.53046 0.0
C437 C 0.95143 0.03142 0.49847 0.0
C438 C 0.01521 0.02363 0.45321 0.0
O439 O 0.0334 0.95849 0.54345 0.0
O440 O 0.03408 0.98635 0.51602 0.0
O441 O 0.26672 0.71564 0.7789 0.0
Mg442 Mg 0.26719 0.71355 0.74126 0.0
O443 O 0.2467 0.74863 0.78292 0.0
Mg444 Mg 0.23893 0.76159 0.74508 0.0
O445 O 0.27305 0.74724 0.73027 0.0
O446 O 0.29841 0.71919 0.72295 0.0
O447 O 0.23091 0.77308 0.70687 0.0
O448 O 0.26128 0.79652 0.7523 0.0
Mg449 Mg 0.20443 0.80713 0.74134 0.0
O450 O 0.20588 0.77686 0.75955 0.0
O451 O 0.20045 0.79648 0.70548 0.0
O452 O 0.23671 0.82616 0.74908 0.0
O453 O 0.17732 0.80156 0.76573 0.0
C454 C 0.21678 0.707 0.7283 0.0
C455 C 0.25719 0.73125 0.79172 0.0
C456 C 0.29287 0.74103 0.72134 0.0
C457 C 0.21565 0.78412 0.6952 0.0
C458 C 0.25724 0.81861 0.75252 0.0
C459 C 0.18659 0.78169 0.77015 0.0
O460 O 0.23672 0.69871 0.72387 0.0
O461 O 0.21525 0.72753 0.73782 0.0
O462 O 0.47477 0.97636 0.05133 0.0
Mg463 Mg 0.47395 0.01439 0.05237 0.0
O464 O 0.49413 0.97134 0.01751 0.0
Mg465 Mg 0.50334 0.00931 0.00316 0.0
O466 O 0.47002 0.02397 0.01834 0.0
O467 O 0.44352 0.03267 0.04531 0.0
O468 O 0.51171 0.04773 0.98938 0.0
O469 O 0.48098 -5e-05 0.96935 0.0
Mg470 Mg 0.53538 0.00921 0.95598 0.0
O471 O 0.53735 -0.00504 0.9884 0.0
O472 O 0.53651 0.04669 0.95915 0.0
O473 O 0.50523 0.99332 0.93936 0.0
O474 O 0.56475 0.98987 0.96092 0.0
C475 C 0.52469 0.0267 0.05753 0.0
C476 C 0.48391 0.96287 0.0359 0.0
C477 C 0.45036 0.03337 0.02364 0.0
C478 C 0.52409 0.0583 0.97349 0.0
C479 C 0.48458 -0.00661 0.948 0.0
C480 C 0.5569 0.98588 0.98191 0.0
O481 O 0.50503 0.03229 0.06612 0.0
O482 O 0.52579 0.01727 0.03694 0.0
O483 O 0.27252 0.25192 0.17855 0.0
Mg484 Mg 0.25722 0.28094 0.19543 0.0
O485 O 0.2646 0.22596 0.20701 0.0
Mg486 Mg 0.25475 0.24665 0.24204 0.0
O487 O 0.26936 0.28208 0.22893 0.0
O488 O 0.27745 0.3117 0.20464 0.0
O489 O 0.2448 0.26756 0.27705 0.0
O490 O 0.29302 0.24241 0.25587 0.0
Mg491 Mg 0.25554 0.21459 0.28746 0.0
O492 O 0.24079 0.20998 0.25474 0.0
O493 O 0.23948 0.24192 0.30612 0.0
O494 O 0.2928 0.21641 0.28485 0.0
O495 O 0.23725 0.18265 0.2828 0.0
C496 C 0.20737 0.2654 0.21216 0.0
C497 C 0.27174 0.23082 0.18612 0.0
C498 C 0.27939 0.30278 0.22532 0.0
C499 C 0.23873 0.2628 0.29829 0.0
C500 C 0.30391 0.23032 0.27089 0.0
C501 C 0.2328 0.18925 0.2616 0.0
O502 O 0.21998 0.27867 0.19871 0.0
O503 O 0.21661 0.25225 0.22755 0.0
O504 O 0.47414 0.55265 0.98936 0.0
Mg505 Mg 0.51191 0.55299 0.98702 0.0
O506 O 0.46668 0.51627 0.0036 0.0
Mg507 Mg 0.50341 0.50159 0.01106 0.0
O508 O 0.51972 0.51913 0.97886 0.0
O509 O 0.5301 0.54887 0.95541 0.0
O510 O 0.54045 0.48761 0.01725 0.0
O511 O 0.4937 0.46875 0.98672 0.0
Mg512 Mg 0.50252 0.45169 0.04105 0.0
O513 O 0.4884 0.48398 0.04371 0.0
O514 O 0.54025 0.45713 0.04169 0.0
O515 O 0.48798 0.43681 0.00922 0.0
O516 O 0.48146 0.45671 0.07073 0.0
C517 C 0.52271 0.55443 0.03709 0.0
C518 C 0.45971 0.53605 -0.00384 0.0
C519 C 0.52982 0.52646 0.95974 0.0
C520 C 0.55128 0.47227 0.02885 0.0
C521 C 0.48756 0.44677 0.98926 0.0
C522 C 0.47824 0.47773 0.06312 0.0
O523 O 0.53032 0.56381 0.01824 0.0
O524 O 0.51169 0.53404 0.03651 0.0
O525 O 0.76955 0.19674 0.27147 0.0
Mg526 Mg 0.77268 0.19689 0.23385 0.0
O527 O 0.755 0.23237 0.27804 0.0
Mg528 Mg 0.74838 0.24795 0.24101 0.0
O529 O 0.7804 0.23108 0.22595 0.0
O530 O 0.80487 0.20313 0.21649 0.0
O531 O 0.74256 0.26196 0.20317 0.0
O532 O 0.77395 0.28012 0.24994 0.0
Mg533 Mg 0.72027 0.29608 0.23906 0.0
O534 O 0.71654 0.26558 0.2573 0.0
O535 O 0.71532 0.28889 0.2027 0.0
O536 O 0.75298 0.31258 0.2492 0.0
O537 O 0.69235 0.29533 0.26199 0.0
C538 C 0.72236 0.19612 0.22044 0.0
C539 C 0.76231 0.21272 0.28553 0.0
C540 C 0.79991 0.22521 0.21637 0.0
C541 C 0.72896 0.27524 0.19197 0.0
C542 C 0.77228 0.30252 0.25232 0.0
C543 C 0.69828 0.27427 0.26734 0.0
O544 O 0.74161 0.18704 0.21465 0.0
O545 O 0.72232 0.21592 0.23181 0.0
O546 O 0.96434 0.47119 0.55398 0.0
Mg547 Mg 0.96377 0.50879 0.55935 0.0
O548 O 0.98866 0.47027 0.52303 0.0
Mg549 Mg -0.00445 0.50898 0.51014 0.0
O550 O 0.96186 0.52139 0.52632 0.0
O551 O 0.93392 0.52819 0.55224 0.0
O552 O -0.00169 0.54945 0.49944 0.0
O553 O 0.97348 0.49962 0.47693 0.0
Mg554 Mg 0.02407 0.52358 0.4762 0.0
O555 O 0.03161 0.49404 0.49469 0.0
O556 O 0.03513 0.55733 0.48999 0.0
O557 O -0.00474 0.521 0.45209 0.0
O558 O 0.05148 0.50706 0.46265 0.0
C559 C 0.0153 0.52362 0.56546 0.0
C560 C 0.97635 0.45974 0.53901 0.0
C561 C 0.94197 0.53052 0.53111 0.0
C562 C 0.01506 0.56467 0.49496 0.0
C563 C 0.97663 0.50857 0.4567 0.0
C564 C 0.04907 0.49237 0.47979 0.0
O565 O -0.0049 0.52465 0.57504 0.0
O566 O 0.01758 0.51743 0.54384 0.0
O567 O 0.69812 0.77965 0.26011 0.0
Mg568 Mg 0.69761 0.7419 0.26304 0.0
O569 O 0.73453 0.7872 0.24602 0.0
Mg570 Mg 0.74663 0.74945 0.23675 0.0
O571 O 0.73134 0.73406 0.27072 0.0
O572 O 0.70156 0.7251 0.29496 0.0
O573 O 0.75784 0.71149 0.22831 0.0
O574 O 0.78174 0.75596 0.25801 0.0
Mg575 Mg 0.79262 0.74676 0.20079 0.0
O576 O 0.76214 0.76372 0.20297 0.0
O577 O 0.78306 0.70971 0.19835 0.0
O578 O 0.81144 0.75607 0.23216 0.0
O579 O 0.78671 0.76997 0.17327 0.0
C580 C 0.69258 0.73157 0.214 0.0
C581 C 0.71468 0.7942 0.25346 0.0
C582 C 0.72387 0.72502 0.29031 0.0
C583 C 0.76996 0.69962 0.21377 0.0
C584 C 0.80385 0.75741 0.25324 0.0
C585 C 0.76672 0.77376 0.18313 0.0
O586 O 0.68481 0.72253 0.23292 0.0
O587 O 0.71255 0.74317 0.21386 0.0
O588 O 0.74365 0.24571 0.80974 0.0
Mg589 Mg 0.73777 0.21261 0.79207 0.0
O590 O 0.74614 0.26946 0.77862 0.0
Mg591 Mg 0.74134 0.24591 0.74484 0.0
O592 O 0.7563 0.21399 0.76178 0.0
O593 O 0.76249 0.18671 0.78842 0.0
O594 O 0.73598 0.22149 0.71116 0.0
O595 O 0.77975 0.25608 0.73271 0.0
Mg596 Mg 0.73794 0.27285 0.6952 0.0
O597 O 0.72699 0.2788 0.72862 0.0
O598 O 0.71986 0.24159 0.68248 0.0
O599 O 0.77571 0.27124 0.69683 0.0
O600 O 0.71987 0.30384 0.70008 0.0
C601 C 0.69123 0.22008 0.76903 0.0
C602 C 0.74573 0.26629 0.80088 0.0
C603 C 0.76689 0.19532 0.76787 0.0
C604 C 0.72604 0.22213 0.69087 0.0
C605 C 0.78862 0.26431 0.71361 0.0
C606 C 0.71797 0.2982 0.72198 0.0
O607 O 0.70205 0.206 0.78205 0.0
O608 O 0.70254 0.23555 0.7565 0.0
O609 O 0.75278 0.76312 0.6718 0.0
Mg610 Mg 0.74226 0.79169 0.69315 0.0
O611 O 0.7534 0.73536 0.6993 0.0
Mg612 Mg 0.74601 0.75347 0.73636 0.0
O613 O 0.75893 0.78987 0.72454 0.0
O614 O 0.76414 0.82141 0.70203 0.0
O615 O 0.73804 0.7722 0.77316 0.0
O616 O 0.78601 0.74939 0.74721 0.0
Mg617 Mg 0.75231 0.71929 0.77694 0.0
O618 O 0.73215 0.71549 0.74711 0.0
O619 O 0.7395 0.7446 0.80045 0.0
O620 O 0.78877 0.71908 0.77116 0.0
O621 O 0.73404 0.68762 0.77488 0.0
C622 C 0.69528 0.77434 0.71324 0.0
C623 C 0.75513 0.74172 0.67774 0.0
C624 C 0.76826 0.81097 0.72159 0.0
C625 C 0.73572 0.76567 0.7946 0.0
C626 C 0.79849 0.73544 0.75901 0.0
C627 C 0.72576 0.69459 0.75503 0.0
O628 O 0.70594 0.79037 0.70119 0.0
O629 O 0.70657 0.75927 0.72499 0.0
O630 O 0.55799 0.50432 0.51845 0.0
Mg631 Mg 0.53621 0.47278 0.51968 0.0
O632 O 0.53174 0.52406 0.49914 0.0
Mg633 Mg 0.4965 0.50305 0.50969 0.0
O634 O 0.50738 0.46589 0.49789 0.0
O635 O 0.54261 0.45118 0.49116 0.0
O636 O 0.46048 0.48207 0.5199 0.0
O637 O 0.4837 0.50644 0.47056 0.0
Mg638 Mg 0.45136 0.53318 0.50812 0.0
O639 O 0.48491 0.54002 0.52033 0.0
O640 O 0.43383 0.50807 0.5291 0.0
O641 O 0.45071 0.52631 0.47128 0.0
O642 O 0.45715 0.56685 0.52164 0.0
C643 C 0.51572 0.48251 0.56275 0.0
C644 C 0.55272 0.52236 0.50703 0.0
C645 C 0.521 0.45358 0.48466 0.0
C646 C 0.44018 0.48687 0.52817 0.0
C647 C 0.46616 0.51516 0.46005 0.0
C648 C 0.4784 0.56098 0.52638 0.0
O649 O 0.52413 0.46427 0.5532 0.0
O650 O 0.50859 0.49937 0.54998 0.0
O651 O 0.05325 0.47599 0.97845 0.0
Mg652 Mg 0.05166 0.4773 0.01618 0.0
O653 O 0.01978 0.49398 0.97193 0.0
Mg654 Mg 0.00354 0.50317 0.00787 0.0
O655 O 0.01748 0.47013 0.02528 0.0
O656 O 0.04635 0.44687 0.03548 0.0
O657 O 0.98827 0.51276 0.04441 0.0
O658 O 0.97092 0.47799 -0.00155 0.0
Mg659 Mg 0.95582 0.53121 0.00288 0.0
O660 O 0.98906 0.53561 0.98983 0.0
O661 O 0.95791 0.53581 0.04001 0.0
O662 O 0.94036 0.49926 0.98897 0.0
O663 O 0.96037 0.55984 0.98129 0.0
C664 C 0.05606 0.52829 0.02751 0.0
C665 C 0.0382 0.48419 0.96436 0.0
C666 C 0.02414 0.45111 0.03536 0.0
C667 C 0.97234 0.5255 0.05312 0.0
C668 C 0.94984 0.47946 0.99068 0.0
C669 C 0.98209 0.55418 0.97917 0.0
O670 O 0.06433 0.50879 0.03346 0.0
O671 O 0.03623 0.52867 0.01671 0.0
H672 H 0.01384 0.16405 0.12254 0.0
H673 H -0.00565 0.1924 0.0552 0.0
H674 H 0.02082 0.12587 0.10347 0.0
H675 H 0.00013 0.15397 0.03624 0.0
H676 H 0.98974 0.05662 0.06402 0.0
H677 H -0.00184 0.09337 0.08652 0.0
H678 H 0.02788 0.12612 0.02401 0.0
H679 H 0.01817 0.08946 0.0014 0.0
C680 C 0.01077 0.16199 0.10367 0.0
C681 C 0.00334 0.18109 0.09033 0.0
C682 C 0.01489 0.14015 0.09274 0.0
C683 C 0.01129 0.13683 0.06827 0.0
C684 C 0.0038 0.15603 0.05499 0.0
C685 C 0.00011 0.17798 0.06587 0.0
C686 C -0.00078 0.07132 0.0555 0.0
C687 C 0.00336 0.07043 0.03113 0.0
C688 C 0.00392 0.0925 0.06832 0.0
C689 C 0.01297 0.11298 0.05685 0.0
C690 C 0.02017 0.11089 0.03316 0.0
C691 C 0.01511 0.0898 0.0203 0.0
H692 H 0.06964 0.72604 0.35454 0.0
H693 H 0.04376 0.75617 0.2902 0.0
H694 H 0.10615 0.71729 0.33517 0.0
H695 H 0.08065 0.74663 0.27032 0.0
H696 H 0.16388 0.75634 0.26068 0.0
H697 H 0.12258 0.7602 0.27191 0.0
H698 H 0.12262 0.6921 0.30597 0.0
H699 H 0.16411 0.68881 0.29567 0.0
C700 C 0.07159 0.73052 0.33609 0.0
C701 C 0.05376 0.74187 0.32393 0.0
C702 C 0.09253 0.72524 0.32488 0.0
C703 C 0.09623 0.73099 0.3011 0.0
C704 C 0.0783 0.74203 0.28869 0.0
C705 C 0.05718 0.74739 0.30002 0.0
C706 C 0.15485 0.74197 0.27011 0.0
C707 C 0.16722 0.72244 0.27766 0.0
C708 C 0.13117 0.74415 0.27646 0.0
C709 C 0.11947 0.72666 0.29021 0.0
C710 C 0.13135 0.70617 0.29591 0.0
C711 C 0.15505 0.70421 0.28994 0.0
H712 H 0.46745 0.83687 0.60542 0.0
H713 H 0.5004 0.82085 0.53869 0.0
H714 H 0.4621 0.87758 0.59267 0.0
H715 H 0.49468 0.86127 0.52586 0.0
H716 H 0.4816 0.93399 0.50493 0.0
H717 H 0.46571 0.8948 0.51751 0.0
H718 H 0.49757 0.90775 0.58644 0.0
H719 H 0.51378 0.94634 0.57365 0.0
C720 C 0.47288 0.84182 0.58778 0.0
C721 C 0.4847 0.82586 0.57317 0.0
C722 C 0.46977 0.86507 0.58049 0.0
C723 C 0.47797 0.87255 0.5583 0.0
C724 C 0.48793 0.85593 0.54295 0.0
C725 C 0.49144 0.83286 0.55039 0.0
C726 C 0.48419 0.9288 0.52307 0.0
C727 C 0.49885 0.94295 0.53841 0.0
C728 C 0.47527 0.90639 0.53021 0.0
C729 C 0.48061 0.89819 0.55287 0.0
C730 C 0.49299 0.91365 0.56896 0.0
C731 C 0.50229 0.93573 0.56168 0.0
H732 H 0.4138 0.25344 0.86727 0.0
H733 H 0.43225 0.25351 0.79328 0.0
H734 H 0.37172 0.25549 0.8565 0.0
H735 H 0.39029 0.25479 0.78266 0.0
H736 H 0.30801 0.23323 0.78088 0.0
H737 H 0.34469 0.22371 0.80088 0.0
H738 H 0.35793 0.29779 0.81999 0.0
H739 H 0.32163 0.30761 0.79892 0.0
C740 C 0.40876 0.25307 0.84876 0.0
C741 C 0.42611 0.25334 0.83104 0.0
C742 C 0.38483 0.25438 0.84268 0.0
C743 C 0.37811 0.25533 0.81886 0.0
C744 C 0.39527 0.25401 0.80115 0.0
C745 C 0.41915 0.25326 0.8072 0.0
C746 C 0.3182 0.24734 0.79027 0.0
C747 C 0.31197 0.27114 0.78875 0.0
C748 C 0.33915 0.24186 0.80157 0.0
C749 C 0.35373 0.26002 0.81206 0.0
C750 C 0.3466 0.28355 0.8122 0.0
C751 C 0.32595 0.28916 0.80028 0.0
H752 H 0.98375 0.84377 0.37233 0.0
H753 H 0.00696 0.80914 0.43535 0.0
H754 H 0.97549 0.87911 0.39598 0.0
H755 H -0.00095 0.84451 0.45875 0.0
H756 H 0.95922 0.89696 0.49861 0.0
H757 H 0.96242 0.86394 0.4707 0.0
H758 H -0.0035 0.91137 0.42064 0.0
H759 H 0.99304 0.94467 0.44851 0.0
C760 C 0.9874 0.84382 0.39115 0.0
C761 C -0.00417 0.82363 0.40206 0.0
C762 C 0.98262 0.86402 0.40463 0.0
C763 C 0.98619 0.86429 0.42918 0.0
C764 C -0.00447 0.84448 0.4399 0.0
C765 C 0.00025 0.82432 0.42649 0.0
C766 C 0.96688 0.90048 0.48144 0.0
C767 C 0.97629 0.92328 0.47589 0.0
C768 C 0.96887 0.88155 0.46556 0.0
C769 C 0.98032 0.88506 0.44387 0.0
C770 C 0.98773 0.90822 0.43735 0.0
C771 C 0.98568 0.92726 0.45327 0.0
H772 H 0.41192 0.78745 0.63486 0.0
H773 H 0.43076 0.74748 0.696 0.0
H774 H 0.37246 0.7925 0.65153 0.0
H775 H 0.39172 0.75255 0.7125 0.0
H776 H 0.32572 0.76883 0.74482 0.0
H777 H 0.364 0.78219 0.72841 0.0
H778 H 0.33848 0.76205 0.65836 0.0
H779 H 0.30032 0.74872 0.67494 0.0
C780 C 0.40778 0.78007 0.65198 0.0
C781 C 0.42436 0.76689 0.66404 0.0
C782 C 0.38524 0.78299 0.6615 0.0
C783 C 0.37907 0.77311 0.68339 0.0
C784 C 0.39605 0.7608 0.69582 0.0
C785 C 0.41837 0.75765 0.68622 0.0
C786 C 0.32794 0.76856 0.7258 0.0
C787 C 0.3102 0.75799 0.71104 0.0
C788 C 0.3499 0.7759 0.71643 0.0
C789 C 0.35435 0.77274 0.69216 0.0
C790 C 0.33557 0.7648 0.6771 0.0
C791 C 0.31368 0.75726 0.68653 0.0
H792 H 0.48939 0.17543 0.89093 0.0
H793 H 0.50824 0.21153 0.95697 0.0
H794 H 0.4942 0.13705 0.90949 0.0
H795 H 0.51232 0.17295 0.9757 0.0
H796 H 0.4936 0.08865 -0.00515 0.0
H797 H 0.48453 0.12856 0.98174 0.0
H798 H 0.53824 0.12493 0.92813 0.0
H799 H 0.54782 0.0857 0.94128 0.0
C800 C 0.49381 0.17512 0.90958 0.0
C801 C 0.49858 0.19638 0.92252 0.0
C802 C 0.49666 0.15322 0.92013 0.0
C803 C 0.50374 0.15223 0.94391 0.0
C804 C 0.50682 0.17337 0.95734 0.0
C805 C 0.50453 0.19534 0.94663 0.0
C806 C 0.50386 0.09661 0.98065 0.0
C807 C 0.52133 0.08387 0.96901 0.0
C808 C 0.49854 0.11932 0.9731 0.0
C809 C 0.51041 0.1294 0.95369 0.0
C810 C 0.5286 0.11725 0.94289 0.0
C811 C 0.53414 0.09484 0.95057 0.0
H812 H 0.05254 0.24306 0.19508 0.0
H813 H 0.08263 0.27407 0.1319 0.0
H814 H 0.09184 0.2455 0.21376 0.0
H815 H 0.12155 0.27618 0.15039 0.0
H816 H 0.18223 0.30104 0.19555 0.0
H817 H 0.1409 0.29931 0.18349 0.0
H818 H 0.13232 0.22727 0.20826 0.0
H819 H 0.17411 0.22911 0.22083 0.0
C820 C 0.06744 0.25059 0.18527 0.0
C821 C 0.06441 0.25864 0.16209 0.0
C822 C 0.08992 0.25176 0.1959 0.0
C823 C 0.10965 0.26121 0.1836 0.0
C824 C 0.10657 0.26922 0.16047 0.0
C825 C 0.08424 0.26797 0.14985 0.0
C826 C 0.1715 0.2849 0.19875 0.0
C827 C 0.18145 0.26508 0.2088 0.0
C828 C 0.14785 0.28391 0.19176 0.0
C829 C 0.13357 0.26301 0.19449 0.0
C830 C 0.143 0.24361 0.20596 0.0
C831 C 0.16684 0.24465 0.21314 0.0
H832 H 0.057 0.98601 0.21143 0.0
H833 H 0.11924 0.97801 0.16842 0.0
H834 H 0.033 0.98943 0.17564 0.0
H835 H 0.0952 0.98176 0.13283 0.0
H836 H 0.05119 0.01494 0.07654 0.0
H837 H 0.07031 0.01688 0.11554 0.0
H838 H 0.02268 0.95965 0.13878 0.0
H839 H 0.00414 0.95717 0.09946 0.0
C840 C 0.06553 0.98479 0.19438 0.0
C841 C 0.09002 0.98164 0.19275 0.0
C842 C 0.05179 0.98686 0.17397 0.0
C843 C 0.06238 0.98622 0.15164 0.0
C844 C 0.08675 0.98273 0.14994 0.0
C845 C 0.10042 0.98029 0.17029 0.0
C846 C 0.04417 0.00352 0.09033 0.0
C847 C 0.02606 0.98611 0.08527 0.0
C848 C 0.0553 0.00439 0.11246 0.0
C849 C 0.04806 0.98823 0.12994 0.0
C850 C 0.0285 0.9723 0.12554 0.0
C851 C 0.0178 0.971 0.1032 0.0
H852 H 0.23671 0.87556 0.41243 0.0
H853 H 0.2335 0.80197 0.43313 0.0
H854 H 0.24022 0.86283 0.37076 0.0
H855 H 0.23672 0.78947 0.39176 0.0
H856 H 0.21727 0.79422 0.30533 0.0
H857 H 0.20979 0.81924 0.34016 0.0
H858 H 0.28148 0.81147 0.36422 0.0
H859 H 0.28882 0.78601 0.32969 0.0
C860 C 0.23593 0.85673 0.40798 0.0
C861 C 0.23497 0.83968 0.42586 0.0
C862 C 0.23806 0.84953 0.38428 0.0
C863 C 0.23895 0.82529 0.37843 0.0
C864 C 0.23622 0.80829 0.3961 0.0
C865 C 0.23434 0.81542 0.41966 0.0
C866 C 0.2318 0.79902 0.31739 0.0
C867 C 0.25372 0.78856 0.31487 0.0
C868 C 0.22745 0.81318 0.33729 0.0
C869 C 0.24513 0.81718 0.35457 0.0
C870 C 0.26773 0.80865 0.35086 0.0
C871 C 0.27196 0.79422 0.33119 0.0
H872 H 0.45192 0.01731 0.69981 0.0
H873 H 0.38312 0.03056 0.67039 0.0
H874 H 0.46985 0.02407 0.66099 0.0
H875 H 0.40085 0.03688 0.63204 0.0
H876 H 0.43785 0.06687 0.57083 0.0
H877 H 0.42778 0.06596 0.61257 0.0
H878 H 0.46823 0.00358 0.62089 0.0
H879 H 0.47887 0.00481 0.5791 0.0
C880 C 0.44069 0.02181 0.68516 0.0
C881 C 0.41613 0.02351 0.68817 0.0
C882 C 0.45093 0.02557 0.66299 0.0
C883 C 0.43677 0.03128 0.64363 0.0
C884 C 0.41229 0.03305 0.64677 0.0
C885 C 0.40211 0.02924 0.66875 0.0
C886 C 0.44491 0.05318 0.58164 0.0
C887 C 0.45876 0.03566 0.57166 0.0
C888 C 0.43913 0.05265 0.6055 0.0
C889 C 0.44686 0.03444 0.6198 0.0
C890 C 0.4621 0.01786 0.61026 0.0
C891 C 0.46808 0.01852 0.58634 0.0
H892 H 0.28113 0.15079 0.90885 0.0
H893 H 0.24523 0.212 0.9345 0.0
H894 H 0.28136 0.16691 0.86897 0.0
H895 H 0.24549 0.22801 0.89485 0.0
H896 H 0.25075 0.2564 0.82321 0.0
H897 H 0.26883 0.24332 0.85996 0.0
H898 H 0.24602 0.17063 0.84229 0.0
H899 H 0.22778 0.18388 0.80597 0.0
C900 C 0.27383 0.16794 0.90612 0.0
C901 C 0.26289 0.17997 0.92476 0.0
C902 C 0.27394 0.17714 0.88328 0.0
C903 C 0.26338 0.19867 0.87874 0.0
C904 C 0.25403 0.21151 0.89777 0.0
C905 C 0.2537 0.20222 0.9205 0.0
C906 C 0.25059 0.23755 0.8268 0.0
C907 C 0.23807 0.22104 0.81189 0.0
C908 C 0.26071 0.23008 0.84787 0.0
C909 C 0.25862 0.20597 0.85413 0.0
C910 C 0.24811 0.18927 0.83792 0.0
C911 C 0.23767 0.1968 0.81712 0.0
H912 H 0.04984 0.008 0.30726 0.0
H913 H 0.10754 0.97432 0.34137 0.0
H914 H 0.02923 0.01019 0.3447 0.0
H915 H 0.08679 0.97698 0.37939 0.0
H916 H 0.0284 0.9783 0.44096 0.0
H917 H 0.04647 0.96581 0.40344 0.0
H918 H 0.044 0.03763 0.37841 0.0
H919 H 0.02612 0.04994 0.41491 0.0
C920 C 0.058 0.00078 0.32274 0.0
C921 C 0.08051 0.99144 0.32151 0.0
C922 C 0.04615 0.00198 0.34416 0.0
C923 C 0.05661 -0.00589 0.36495 0.0
C924 C 0.07835 0.98312 0.36356 0.0
C925 C 0.09024 0.98173 0.34189 0.0
C926 C 0.03162 0.99129 0.42732 0.0
C927 C 0.02557 0.01505 0.43085 0.0
C928 C 0.04204 0.98418 0.40599 0.0
C929 C 0.04628 0.00072 0.38798 0.0
C930 C 0.04047 0.02438 0.39177 0.0
C931 C 0.03024 0.03144 0.41283 0.0
H932 H 0.20949 0.8124 0.54297 0.0
H933 H 0.25761 0.86185 0.58105 0.0
H934 H 0.20406 0.78896 0.57895 0.0
H935 H 0.25271 0.83813 0.6165 0.0
H936 H 0.25528 0.7794 0.66882 0.0
H937 H 0.26077 0.79163 0.62791 0.0
H938 H 0.18635 0.80453 0.6225 0.0
H939 H 0.1808 0.79283 0.66357 0.0
C940 C 0.21904 0.81807 0.55893 0.0
C941 C 0.23381 0.83897 0.55941 0.0
C942 C 0.21598 0.80469 0.57935 0.0
C943 C 0.22824 0.8117 0.60017 0.0
C944 C 0.24338 0.83227 0.60046 0.0
C945 C 0.24596 0.84593 0.58031 0.0
C946 C 0.23995 0.78411 0.65868 0.0
C947 C 0.21767 0.78549 0.66937 0.0
C948 C 0.24313 0.79113 0.63536 0.0
C949 C 0.22398 0.79906 0.62234 0.0
C950 C 0.20129 0.79832 0.63227 0.0
C951 C 0.19818 0.79176 0.65574 0.0
H952 H 0.41492 0.03898 0.83077 0.0
H953 H 0.40948 0.96302 0.81835 0.0
H954 H 0.42519 0.03261 0.87228 0.0
H955 H 0.41816 0.95646 0.8598 0.0
H956 H 0.4817 0.96105 0.91229 0.0
H957 H 0.45588 0.96194 0.87812 0.0
H958 H 0.41712 0.01749 0.91175 0.0
H959 H 0.44394 0.01705 0.94582 0.0
C960 C 0.41535 0.02099 0.83717 0.0
C961 C 0.41225 0.00147 0.82155 0.0
C962 C 0.4209 0.01727 0.8609 0.0
C963 C 0.42286 -0.00602 0.86919 0.0
C964 C 0.41738 0.97458 0.85382 0.0
C965 C 0.4125 0.97831 0.83014 0.0
C966 C 0.46711 0.97282 0.91271 0.0
C967 C 0.46467 0.98893 0.93159 0.0
C968 C 0.45219 0.97331 0.89317 0.0
C969 C 0.43451 0.98995 0.89214 0.0
C970 C 0.43073 0.00465 0.91199 0.0
C971 C 0.44576 0.00412 0.93165 0.0
H972 H 0.27143 0.19164 0.0456 0.0
H973 H 0.2652 0.12056 0.07325 0.0
H974 H 0.27677 0.20787 0.08554 0.0
H975 H 0.27053 0.13699 0.11351 0.0
H976 H 0.24739 0.18787 0.17883 0.0
H977 H 0.24796 0.16367 0.14226 0.0
H978 H 0.30743 0.20753 0.11755 0.0
H979 H 0.30653 0.23179 0.15362 0.0
C980 C 0.2713 0.17946 0.06019 0.0
C981 C 0.26804 0.15482 0.05621 0.0
C982 C 0.27453 0.18874 0.08309 0.0
C983 C 0.27439 0.17366 0.10263 0.0
C984 C 0.27082 0.149 0.09877 0.0
C985 C 0.26788 0.13964 0.07573 0.0
C986 C 0.26112 0.19169 0.16594 0.0
C987 C 0.27674 0.21183 0.16882 0.0
C988 C 0.26139 0.17794 0.14498 0.0
C989 C 0.27735 0.18417 0.12682 0.0
C990 C 0.29455 0.20272 0.13098 0.0
C991 C 0.29417 0.21646 0.1517 0.0
H992 H 0.20392 0.05852 0.99059 0.0
H993 H 0.17185 0.12192 0.96659 0.0
H994 H 0.16487 0.03906 -0.00495 0.0
H995 H 0.1324 0.10202 0.97097 0.0
H996 H 0.0696 0.03867 0.9646 0.0
H997 H 0.10592 0.06286 0.95555 0.0
H998 H 0.1329 0.05049 0.02554 0.0
H999 H 0.09716 0.02644 0.03444 0.0
C1000 C 0.18858 0.06818 0.98582 0.0
C1001 C 0.19101 0.09188 0.97848 0.0
C1002 C 0.16619 0.05705 0.98853 0.0
C1003 C 0.14571 0.06922 0.98372 0.0
C1004 C 0.14799 0.09235 0.97488 0.0
C1005 C 0.17052 0.1037 0.97244 0.0
C1006 C 0.08314 0.04161 0.97812 0.0
C1007 C 0.08088 0.03036 3e-05 0.0
C1008 C 0.10384 0.05536 0.97296 0.0
C1009 C 0.12232 0.058 0.9897 0.0
C1010 C 0.11914 0.04821 0.01214 0.0
C1011 C 0.09869 0.03449 0.01723 0.0
H1012 H 0.70443 0.46126 0.02834 0.0
H1013 H 0.67482 0.40578 0.98138 0.0
H1014 H 0.66539 0.47753 0.03218 0.0
H1015 H 0.63576 0.42203 0.9854 0.0
H1016 H 0.57169 0.46868 0.98609 0.0
H1017 H 0.61255 0.45903 0.9775 0.0
H1018 H 0.6282 0.45971 0.05235 0.0
H1019 H 0.58705 0.46864 0.06089 0.0
C1020 C 0.68967 0.45276 0.01856 0.0
C1021 C 0.69263 0.43215 0.0047 0.0
C1022 C 0.66734 0.46202 0.02085 0.0
C1023 C 0.64758 0.45088 0.0093 0.0
C1024 C 0.65076 0.43108 -0.00565 0.0
C1025 C 0.67312 0.42179 0.99205 0.0
C1026 C 0.58405 0.46716 0.00064 0.0
C1027 C 0.57648 0.46949 0.02413 0.0
C1028 C 0.6073 0.4615 -0.00427 0.0
C1029 C 0.62349 0.4587 0.01425 0.0
C1030 C 0.61609 0.46198 0.03775 0.0
C1031 C 0.59264 0.46699 0.04267 0.0
H1032 H 0.87461 0.4221 0.27728 0.0
H1033 H 0.81576 0.43823 0.23212 0.0
H1034 H 0.8596 0.38055 0.27867 0.0
H1035 H 0.80114 0.39661 0.23331 0.0
H1036 H 0.79916 0.31846 0.21689 0.0
H1037 H 0.82326 0.35585 0.21803 0.0
H1038 H 0.81527 0.36026 0.29381 0.0
H1039 H 0.79051 0.32305 0.29252 0.0
C1040 C 0.85852 0.41675 0.26764 0.0
C1041 C 0.8464 0.43324 0.25439 0.0
C1042 C 0.85003 0.39309 0.26849 0.0
C1043 C 0.82962 0.38563 0.25575 0.0
C1044 C 0.81722 0.40212 0.24291 0.0
C1045 C 0.82545 0.42585 0.24238 0.0
C1046 C 0.80363 0.32684 0.23387 0.0
C1047 C 0.79347 0.31806 0.25468 0.0
C1048 C 0.8171 0.34824 0.23448 0.0
C1049 C 0.82072 0.36075 0.25596 0.0
C1050 C 0.81265 0.35068 0.27712 0.0
C1051 C 0.79876 0.32944 0.27644 0.0
H1052 H 0.83489 0.61668 0.47222 0.0
H1053 H 0.80989 0.54377 0.48227 0.0
H1054 H 0.87589 0.60491 0.47516 0.0
H1055 H 0.85073 0.53198 0.48476 0.0
H1056 H 0.92516 0.51364 0.48852 0.0
H1057 H 0.89209 0.5295 0.46649 0.0
H1058 H 0.8939 0.59083 0.5137 0.0
H1059 H 0.92645 0.57477 0.53569 0.0
C1060 C 0.83816 0.59802 0.47416 0.0
C1061 C 0.81925 0.58115 0.47731 0.0
C1062 C 0.86161 0.59132 0.47589 0.0
C1063 C 0.86649 0.56756 0.48028 0.0
C1064 C 0.84755 0.55038 0.48115 0.0
C1065 C 0.82415 0.55715 0.4799 0.0
C1066 C 0.91908 0.53097 0.49344 0.0
C1067 C 0.92819 0.54307 0.51368 0.0
C1068 C 0.9001 0.53996 0.481 0.0
C1069 C 0.89032 0.5613 0.4885 0.0
C1070 C 0.90118 0.57448 0.50732 0.0
C1071 C 0.91976 0.56529 0.51997 0.0
H1072 H 0.1472 0.07333 0.27653 0.0
H1073 H 0.18984 0.04623 0.21996 0.0
H1074 H 0.16335 0.11338 0.26941 0.0
H1075 H 0.20529 0.08655 0.21201 0.0
H1076 H 0.25216 0.15389 0.23742 0.0
H1077 H 0.23172 0.1155 0.22955 0.0
H1078 H 0.16468 0.14638 0.24407 0.0
H1079 H 0.18565 0.18462 0.25296 0.0
C1080 C 0.15995 0.07598 0.26247 0.0
C1081 C 0.16751 0.05661 0.24906 0.0
C1082 C 0.16893 0.09903 0.25806 0.0
C1083 C 0.18541 0.10333 0.23985 0.0
C1084 C 0.19277 0.08391 0.22626 0.0
C1085 C 0.18403 0.06078 0.23092 0.0
C1086 C 0.23295 0.15268 0.23764 0.0
C1087 C 0.22038 0.17198 0.24577 0.0
C1088 C 0.22116 0.13061 0.23329 0.0
C1089 C 0.19659 0.12762 0.23701 0.0
C1090 C 0.18372 0.14791 0.24183 0.0
C1091 C 0.1956 0.16994 0.24642 0.0
H1092 H 0.32461 0.87616 0.46672 0.0
H1093 H 0.31209 0.93343 0.51639 0.0
H1094 H 0.36581 0.89176 0.46224 0.0
H1095 H 0.35319 0.94836 0.51234 0.0
H1096 H 0.43478 0.95073 0.51512 0.0
H1097 H 0.40066 0.922 0.51663 0.0
H1098 H 0.37593 0.94636 0.44949 0.0
H1099 H 0.40948 0.97564 0.44834 0.0
C1100 C 0.33075 0.89183 0.47687 0.0
C1101 C 0.3152 0.90376 0.49174 0.0
C1102 C 0.35421 0.90059 0.47437 0.0
C1103 C 0.36243 0.92091 0.48724 0.0
C1104 C 0.34712 0.93242 0.50255 0.0
C1105 C 0.32364 0.92403 0.50465 0.0
C1106 C 0.42265 0.94913 0.5002 0.0
C1107 C 0.42454 0.96528 0.48163 0.0
C1108 C 0.4032 0.9328 0.50111 0.0
C1109 C 0.38599 0.93212 0.48311 0.0
C1110 C 0.38927 0.9465 0.46335 0.0
C1111 C 0.40834 0.9632 0.46272 0.0
H1112 H 0.8279 0.56342 0.19839 0.0
H1113 H 0.8122 0.56583 0.27286 0.0
H1114 H 0.80985 0.60094 0.1932 0.0
H1115 H 0.79173 0.60253 0.26756 0.0
H1116 H 0.78235 0.68144 0.25525 0.0
H1117 H 0.796 0.64204 0.26208 0.0
H1118 H 0.77719 0.62151 0.18984 0.0
H1119 H 0.76605 0.66201 0.18268 0.0
C1120 C 0.81994 0.57183 0.21357 0.0
C1121 C 0.82125 0.56182 0.23597 0.0
C1122 C 0.80928 0.5933 0.21059 0.0
C1123 C 0.79883 0.60493 0.22984 0.0
C1124 C 0.79984 0.5945 0.25231 0.0
C1125 C 0.81136 0.57335 0.25541 0.0
C1126 C 0.78086 0.66826 0.24101 0.0
C1127 C 0.77321 0.67452 0.21847 0.0
C1128 C 0.78858 0.64554 0.24491 0.0
C1129 C 0.7881 0.62833 0.22648 0.0
C1130 C 0.77874 0.63436 0.20431 0.0
C1131 C 0.77193 0.65742 0.2002 0.0
H1132 H 0.65198 0.42141 0.78896 0.0
H1133 H 0.68993 0.43148 0.72343 0.0
H1134 H 0.66515 0.38043 0.79046 0.0
H1135 H 0.70288 0.39098 0.72519 0.0
H1136 H 0.67261 0.31039 0.72112 0.0
H1137 H 0.6582 0.34763 0.73705 0.0
H1138 H 0.72489 0.3622 0.77327 0.0
H1139 H 0.73912 0.32441 0.75782 0.0
C1140 C 0.6634 0.41508 0.77515 0.0
C1141 C 0.66983 0.42967 0.75602 0.0
C1142 C 0.67093 0.39174 0.77609 0.0
C1143 C 0.68509 0.38287 0.75802 0.0
C1144 C 0.69222 0.39769 0.73946 0.0
C1145 C 0.68474 0.42084 0.73848 0.0
C1146 C 0.68364 0.32089 0.73358 0.0
C1147 C 0.70685 0.31465 0.7384 0.0
C1148 C 0.67543 0.34215 0.74265 0.0
C1149 C 0.69048 0.35758 0.75634 0.0
C1150 C 0.71291 0.35031 0.76302 0.0
C1151 C 0.721 0.32875 0.75425 0.0
H1152 H 0.97206 0.83386 0.88502 0.0
H1153 H 0.01918 0.81174 0.93993 0.0
H1154 H 0.97469 0.87461 0.9017 0.0
H1155 H 0.02195 0.85232 0.95611 0.0
H1156 H 0.05119 0.92914 0.94578 0.0
H1157 H 0.03772 0.8941 0.92236 0.0
H1158 H 0.97015 0.89314 0.95747 0.0
H1159 H 0.98358 0.92847 0.98107 0.0
C1160 C 0.98267 0.83762 0.90079 0.0
C1161 C -0.00452 0.81966 0.91117 0.0
C1162 C 0.98408 0.86082 0.91027 0.0
C1163 C -0.00147 0.86632 0.93002 0.0
C1164 C 0.01061 0.84827 0.94088 0.0
C1165 C 0.00895 0.8251 0.93167 0.0
C1166 C 0.03309 0.9221 0.94776 0.0
C1167 C 0.01852 0.93119 0.96541 0.0
C1168 C 0.02545 0.90209 0.93442 0.0
C1169 C 0.0031 0.89099 0.93846 0.0
C1170 C 0.98744 0.9016 0.95412 0.0
C1171 C -0.00491 0.92181 0.96749 0.0
H1172 H 0.91971 0.26707 0.6389 0.0
H1173 H 0.94293 0.25079 0.70936 0.0
H1174 H 0.8793 0.26943 0.65295 0.0
H1175 H 0.90215 0.25321 0.72354 0.0
H1176 H 0.82665 0.28232 0.74014 0.0
H1177 H 0.86884 0.28119 0.72956 0.0
H1178 H 0.84933 0.23976 0.66667 0.0
H1179 H 0.80762 0.24168 0.67682 0.0
C1180 C 0.91625 0.26437 0.6575 0.0
C1181 C 0.93451 0.25875 0.67302 0.0
C1182 C 0.89303 0.26549 0.66551 0.0
C1183 C 0.88748 0.26123 0.68931 0.0
C1184 C 0.90589 0.25659 0.70511 0.0
C1185 C 0.92919 0.25515 0.69699 0.0
C1186 C 0.83158 0.27293 0.72417 0.0
C1187 C 0.81407 0.26247 0.70901 0.0
C1188 C 0.85562 0.2722 0.71814 0.0
C1189 C 0.86236 0.26077 0.69704 0.0
C1190 C 0.84471 0.24933 0.68265 0.0
C1191 C 0.82086 0.25035 0.68847 0.0
H1192 H 0.53289 0.19704 0.42996 0.0
H1193 H 0.48064 0.16873 0.37961 0.0
H1194 H 0.53559 0.15751 0.4467 0.0
H1195 H 0.48174 0.1299 0.39714 0.0
H1196 H 0.48357 0.06092 0.42595 0.0
H1197 H 0.49984 0.09516 0.40444 0.0
H1198 H 0.51337 0.13288 0.47101 0.0
H1199 H 0.49863 0.09805 0.49205 0.0
C1200 C 0.52191 0.1823 0.42263 0.0
C1201 C 0.50643 0.18578 0.40371 0.0
C1202 C 0.52341 0.15967 0.43216 0.0
C1203 C 0.5089 0.14031 0.42338 0.0
C1204 C 0.49375 0.14399 0.40407 0.0
C1205 C 0.4928 0.16638 0.39416 0.0
C1206 C 0.49133 0.07612 0.43582 0.0
C1207 C 0.49002 0.07706 0.4605 0.0
C1208 C 0.50021 0.09594 0.42358 0.0
C1209 C 0.50709 0.11724 0.4359 0.0
C1210 C 0.50826 0.11697 0.46077 0.0
C1211 C 0.49983 0.09697 0.47295 0.0
H1212 H 0.57789 0.7433 0.11062 0.0
H1213 H 0.5633 0.78019 0.1763 0.0
H1214 H 0.61774 0.73617 0.12487 0.0
H1215 H 0.60362 0.7735 0.19011 0.0
H1216 H 0.68909 0.77098 0.18763 0.0
H1217 H 0.65438 0.78139 0.16472 0.0
H1218 H 0.62234 0.71113 0.17498 0.0
H1219 H 0.65666 0.70083 0.19869 0.0
C1220 C 0.5834 0.75053 0.12779 0.0
C1221 C 0.56745 0.76228 0.14242 0.0
C1222 C 0.60615 0.74635 0.13587 0.0
C1223 C 0.61347 0.75438 0.15841 0.0
C1224 C 0.59817 0.76734 0.17255 0.0
C1225 C 0.5752 0.77111 0.16468 0.0
C1226 C 0.67502 0.75746 0.1843 0.0
C1227 C 0.67547 0.73505 0.19487 0.0
C1228 C 0.65517 0.76353 0.17139 0.0
C1229 C 0.63592 0.74704 0.16837 0.0
C1230 C 0.63716 0.72403 0.1772 0.0
C1231 C 0.65674 0.71812 0.1906 0.0
H1232 H 0.99026 0.16483 0.63374 0.0
H1233 H 0.98381 0.18987 0.56227 0.0
H1234 H -5e-05 0.12571 0.61824 0.0
H1235 H -0.00645 0.15086 0.54703 0.0
H1236 H 0.04424 0.09449 0.5296 0.0
H1237 H 0.03403 0.13064 0.55062 0.0
H1238 H 0.98205 0.09031 0.59123 0.0
H1239 H 0.99178 0.05414 0.56975 0.0
C1240 C 0.99037 0.16187 0.61476 0.0
C1241 C 0.98662 0.18057 0.59922 0.0
C1242 C -0.00399 0.13952 0.60597 0.0
C1243 C -0.00189 0.13564 0.58154 0.0
C1244 C 0.99262 0.15372 0.56599 0.0
C1245 C 0.98681 0.17595 0.57473 0.0
C1246 C 0.03108 0.09315 0.54343 0.0
C1247 C 0.01862 0.07143 0.54786 0.0
C1248 C 0.0251 0.11388 0.55528 0.0
C1249 C 0.00686 0.11321 0.57203 0.0
C1250 C -0.00394 0.09123 0.57823 0.0
C1251 C 0.00182 0.07049 0.56611 0.0
H1252 H 0.56227 0.23978 0.29695 0.0
H1253 H 0.58643 0.2542 0.36859 0.0
H1254 H 0.60296 0.23866 0.28384 0.0
H1255 H 0.62751 0.2519 0.35573 0.0
H1256 H 0.68939 0.2883 0.31187 0.0
H1257 H 0.6543 0.27616 0.33401 0.0
H1258 H 0.63877 0.21901 0.28306 0.0
H1259 H 0.67332 0.23256 0.26022 0.0
C1260 C 0.57638 0.24244 0.30993 0.0
C1261 C 0.5713 0.24745 0.33367 0.0
C1262 C 0.59975 0.24137 0.30252 0.0
C1263 C 0.61861 0.24487 0.31877 0.0
C1264 C 0.61344 0.24931 0.34272 0.0
C1265 C 0.58997 0.2508 0.35006 0.0
C1266 C 0.67897 0.27251 0.30607 0.0
C1267 C 0.68392 0.26114 0.28455 0.0
C1268 C 0.65885 0.26547 0.31876 0.0
C1269 C 0.64332 0.247 0.30998 0.0
C1270 C 0.65008 0.2337 0.28999 0.0
C1271 C 0.67015 0.24096 0.27718 0.0
H1272 H 0.51652 0.81319 0.04524 0.0
H1273 H 0.45937 0.82212 0.09442 0.0
H1274 H 0.51376 0.85424 0.03286 0.0
H1275 H 0.45578 0.86269 0.08135 0.0
H1276 H 0.47581 0.9411 0.07776 0.0
H1277 H 0.47684 0.89926 0.08645 0.0
H1278 H 0.49252 0.88358 0.01326 0.0
H1279 H 0.4925 0.92607 0.00474 0.0
C1280 C 0.50299 0.82376 0.05302 0.0
C1281 C 0.48826 0.81445 0.07094 0.0
C1282 C 0.50135 0.84732 0.04586 0.0
C1283 C 0.48476 0.86203 0.0563 0.0
C1284 C 0.46923 0.85219 0.07334 0.0
C1285 C 0.4711 0.8288 0.08071 0.0
C1286 C 0.47929 0.92878 0.0634 0.0
C1287 C 0.48381 0.93697 0.04047 0.0
C1288 C 0.47974 0.90463 0.06838 0.0
C1289 C 0.48437 0.88781 0.05052 0.0
C1290 C 0.489 0.89598 0.02752 0.0
C1291 C 0.48885 0.92032 0.02257 0.0
H1292 H 0.92583 0.72069 0.83413 0.0
H1293 H 0.94183 0.78777 0.80033 0.0
H1294 H 0.88855 0.71624 0.81225 0.0
H1295 H 0.90474 0.78313 0.77808 0.0
H1296 H 0.82227 0.77803 0.76775 0.0
H1297 H 0.8625 0.7838 0.78376 0.0
H1298 H 0.87265 0.70871 0.77336 0.0
H1299 H 0.83211 0.70294 0.75847 0.0
C1300 C 0.92146 0.73439 0.82189 0.0
C1301 C 0.93682 0.7545 0.81888 0.0
C1302 C 0.90018 0.73177 0.80917 0.0
C1303 C 0.89372 0.74923 0.79319 0.0
C1304 C 0.9091 0.76939 0.79026 0.0
C1305 C 0.93044 0.77195 0.80291 0.0
C1306 C 0.83344 0.76296 0.76821 0.0
C1307 C 0.82422 0.74005 0.76191 0.0
C1308 C 0.85645 0.7662 0.77748 0.0
C1309 C 0.87067 0.7466 0.78028 0.0
C1310 C 0.86196 0.72405 0.77209 0.0
C1311 C 0.83889 0.72078 0.76324 0.0
H1312 H 0.95756 0.98224 0.7993 0.0
H1313 H 0.89911 0.01738 0.83119 0.0
H1314 H 0.97653 0.98006 0.83825 0.0
H1315 H 0.91792 0.01492 0.86988 0.0
H1316 H 0.93945 0.98004 0.93577 0.0
H1317 H 0.92632 0.9775 0.89462 0.0
H1318 H -0.00673 0.01043 0.87294 0.0
H1319 H 0.00649 0.01292 0.91456 0.0
C1320 C 0.94891 0.98972 0.81456 0.0
C1321 C 0.92684 -3e-05 0.81225 0.0
C1322 C 0.95978 0.98846 0.83676 0.0
C1323 C 0.9485 -0.00297 0.85696 0.0
C1324 C 0.92681 0.0079 0.85453 0.0
C1325 C 0.91615 0.00949 0.83238 0.0
C1326 C 0.95162 0.98604 0.9221 0.0
C1327 C 0.97389 -0.00331 0.92809 0.0
C1328 C 0.94406 0.98477 0.89867 0.0
C1329 C 0.95862 -0.00575 0.8808 0.0
C1330 C 0.98175 0.00307 0.88651 0.0
C1331 C 0.98936 0.00437 0.91017 0.0
H1332 H 0.77034 0.18058 0.56079 0.0
H1333 H 0.7281 0.11622 0.57515 0.0
H1334 H 0.76412 0.19462 0.60152 0.0
H1335 H 0.72146 0.1307 0.61549 0.0
H1336 H 0.69397 0.20855 0.65673 0.0
H1337 H 0.70161 0.18354 0.622 0.0
H1338 H 0.76916 0.167 0.65157 0.0
H1339 H 0.76133 0.19144 0.68673 0.0
C1340 C 0.76006 0.16934 0.57271 0.0
C1341 C 0.74975 0.14734 0.56487 0.0
C1342 C 0.75661 0.17729 0.59591 0.0
C1343 C 0.7425 0.16352 0.61137 0.0
C1344 C 0.73265 0.14134 0.60381 0.0
C1345 C 0.73649 0.13315 0.5808 0.0
C1346 C 0.70996 0.19874 0.65625 0.0
C1347 C 0.72703 0.2018 0.67433 0.0
C1348 C 0.71435 0.1846 0.63642 0.0
C1349 C 0.73599 0.1737 0.63432 0.0
C1350 C 0.75234 0.17529 0.65306 0.0
C1351 C 0.74774 0.18905 0.67317 0.0
H1352 H 0.57174 0.03596 0.31917 0.0
H1353 H 0.56833 0.95921 0.31427 0.0
H1354 H 0.55651 0.0341 0.3596 0.0
H1355 H 0.55211 0.95742 0.3546 0.0
H1356 H 0.49881 0.98788 0.42083 0.0
H1357 H 0.50907 0.98795 0.37861 0.0
H1358 H 0.58276 0.00175 0.39694 0.0
H1359 H 0.57284 0.00116 0.43892 0.0
C1360 C 0.56711 0.01873 0.32658 0.0
C1361 C 0.57107 -0.0023 0.31381 0.0
C1362 C 0.55845 0.01771 0.34958 0.0
C1363 C 0.55305 -0.00436 0.35982 0.0
C1364 C 0.55609 0.97458 0.34678 0.0
C1365 C 0.56539 0.97559 0.32393 0.0
C1366 C 0.51719 0.99075 0.41579 0.0
C1367 C 0.53508 -0.00573 0.43308 0.0
C1368 C 0.52299 0.99074 0.39177 0.0
C1369 C 0.54664 -0.00528 0.38488 0.0
C1370 C 0.56444 -0.00155 0.40207 0.0
C1371 C 0.55875 -0.00198 0.42598 0.0
H1372 H 0.74872 0.80802 0.04975 0.0
H1373 H 0.71591 0.86942 0.07933 0.0
H1374 H 0.74609 0.7889 0.08799 0.0
H1375 H 0.71301 0.85008 0.11765 0.0
H1376 H 0.76222 0.82129 0.18035 0.0
H1377 H 0.74631 0.84058 0.1458 0.0
H1378 H 0.71809 0.77236 0.11913 0.0
H1379 H 0.73381 0.75328 0.1539 0.0
C1380 C 0.74033 0.81712 0.06425 0.0
C1381 C 0.73264 0.84021 0.06162 0.0
C1382 C 0.73869 0.80614 0.08613 0.0
C1383 C 0.72917 0.81797 0.10575 0.0
C1384 C 0.72047 0.84063 0.10283 0.0
C1385 C 0.72219 0.85166 0.08095 0.0
C1386 C 0.75142 0.81073 0.16775 0.0
C1387 C 0.74905 0.78595 0.16966 0.0
C1388 C 0.74242 0.82168 0.1479 0.0
C1389 C 0.73142 0.80784 0.12957 0.0
C1390 C 0.72674 0.78337 0.13289 0.0
C1391 C 0.73546 0.77251 0.15288 0.0
H1392 H 0.87167 0.02371 0.66468 0.0
H1393 H 0.93874 0.0069 0.69561 0.0
H1394 H 0.89093 0.02996 0.62667 0.0
H1395 H 0.95774 0.01223 0.65772 0.0
H1396 H 0.99205 0.01743 0.59276 0.0
H1397 H 0.97101 0.03547 0.6255 0.0
H1398 H 0.90519 0.00211 0.59881 0.0
H1399 H 0.92623 0.98556 0.56552 0.0
C1400 C 0.89055 0.02148 0.66339 0.0
C1401 C 0.90364 0.0143 0.68298 0.0
C1402 C 0.90158 0.02516 0.64164 0.0
C1403 C 0.92585 0.0215 0.63903 0.0
C1404 C 0.93911 0.01567 0.65905 0.0
C1405 C 0.92815 0.01222 0.68079 0.0
C1406 C 0.97288 0.01538 0.59318 0.0
C1407 C 0.96058 0.00043 0.57673 0.0
C1408 C 0.96086 0.02532 0.6121 0.0
C1409 C 0.93656 0.01955 0.61523 0.0
C1410 C 0.92388 0.00699 0.59704 0.0
C1411 C 0.93589 -0.00255 0.5779 0.0
H1412 H 0.78108 0.14728 0.42068 0.0
H1413 H 0.73702 0.20569 0.43748 0.0
H1414 H 0.7843 0.16063 0.38014 0.0
H1415 H 0.73963 0.21865 0.39665 0.0
H1416 H 0.7638 0.24442 0.32317 0.0
H1417 H 0.76411 0.23499 0.36529 0.0
H1418 H 0.75798 0.15995 0.34707 0.0
H1419 H 0.75859 0.16932 0.30543 0.0
C1420 C 0.77229 0.16313 0.4158 0.0
C1421 C 0.75869 0.17532 0.43227 0.0
C1422 C 0.77393 0.17066 0.39247 0.0
C1423 C 0.76187 0.19048 0.38501 0.0
C1424 C 0.74922 0.20338 0.40179 0.0
C1425 C 0.74767 0.1959 0.4252 0.0
C1426 C 0.76258 0.22595 0.32828 0.0
C1427 C 0.76158 0.20761 0.31104 0.0
C1428 C 0.76268 0.22053 0.35236 0.0
C1429 C 0.76151 0.19669 0.35958 0.0
C1430 C 0.75972 0.17848 0.34221 0.0
C1431 C 0.75994 0.18386 0.31829 0.0
H1432 H 0.56282 0.98687 0.19183 0.0
H1433 H 0.63256 0.00969 0.16717 0.0
H1434 H 0.54658 0.99306 0.15252 0.0
H1435 H 0.61602 0.0162 0.12788 0.0
H1436 H 0.55757 0.05716 0.07989 0.0
H1437 H 0.58173 0.04738 0.11447 0.0
H1438 H 0.5544 0.97436 0.1091 0.0
H1439 H 0.53116 0.9839 0.07438 0.0
C1440 C 0.57471 0.99289 0.17797 0.0
C1441 C 0.59894 -0.00228 0.18256 0.0
C1442 C 0.56543 -0.00358 0.15553 0.0
C1443 C 0.58015 0.00512 0.13739 0.0
C1444 C 0.60442 0.00955 0.14173 0.0
C1445 C 0.61382 0.00565 0.16411 0.0
C1446 C 0.55752 0.03895 0.08573 0.0
C1447 C 0.54293 0.02117 0.07459 0.0
C1448 C 0.57119 0.03335 0.10538 0.0
C1449 C 0.56968 0.01017 0.1143 0.0
C1450 C 0.55583 0.9923 0.10243 0.0
C1451 C 0.54272 -0.00227 0.08258 0.0
H1452 H 0.75763 0.80242 0.93273 0.0
H1453 H 0.72437 0.86744 0.91573 0.0
H1454 H 0.75104 0.78779 0.89241 0.0
H1455 H 0.718 0.85255 0.8748 0.0
H1456 H 0.75088 0.81275 0.80057 0.0
H1457 H 0.75025 0.83578 0.83805 0.0
H1458 H 0.70806 0.77878 0.86954 0.0
H1459 H 0.70859 0.75602 0.83254 0.0
C1460 C 0.74889 0.81363 0.92041 0.0
C1461 C 0.74132 0.83601 0.92755 0.0
C1462 C 0.74514 0.80522 0.89731 0.0
C1463 C 0.73392 0.81902 0.88064 0.0
C1464 C 0.72671 0.84164 0.88741 0.0
C1465 C 0.73023 0.85003 0.9108 0.0
C1466 C 0.74068 0.80566 0.81523 0.0
C1467 C 0.73 0.78253 0.8138 0.0
C1468 C 0.74039 0.81877 0.83663 0.0
C1469 C 0.72935 0.80881 0.85664 0.0
C1470 C 0.71683 0.78671 0.85439 0.0
C1471 C 0.71714 0.77372 0.83322 0.0
H1472 H 0.80666 0.94399 0.00092 0.0
H1473 H 0.83227 0.873 0.00309 0.0
H1474 H 0.84626 0.96056 0.01033 0.0
H1475 H 0.87195 0.88969 0.01307 0.0
H1476 H 0.94291 0.93745 0.00097 0.0
H1477 H 0.90543 0.91402 -0.00343 0.0
H1478 H 0.87235 0.96226 0.04501 0.0
H1479 H 0.90956 0.98591 0.04887 0.0
C1480 C 0.82076 0.93192 0.00333 0.0
C1481 C 0.81629 0.9072 0.0014 0.0
C1482 C 0.8434 0.94139 0.00901 0.0
C1483 C 0.86207 0.92637 0.01305 0.0
C1484 C 0.85788 0.90167 0.01017 0.0
C1485 C 0.83518 0.89217 0.00438 0.0
C1486 C 0.92787 0.94244 0.0114 0.0
C1487 C 0.92893 0.96364 0.02496 0.0
C1488 C 0.90636 0.92913 0.00875 0.0
C1489 C 0.88581 0.93683 0.01981 0.0
C1490 C 0.88774 0.95638 0.03565 0.0
C1491 C 0.90909 0.96973 0.03812 0.0
H1492 H 0.31493 0.56299 0.0326 0.0
H1493 H 0.32284 0.58482 0.96014 0.0
H1494 H 0.35497 0.54836 0.03202 0.0
H1495 H 0.3628 0.56948 0.95952 0.0
H1496 H 0.42232 0.50708 0.98041 0.0
H1497 H 0.38022 0.51666 0.9797 0.0
H1498 H 0.39848 0.5847 0.01322 0.0
H1499 H 0.4404 0.57557 0.01329 0.0
C1500 C 0.325 0.56412 0.01639 0.0
C1501 C 0.31584 0.57498 -0.00363 0.0
C1502 C 0.34782 0.55577 0.01611 0.0
C1503 C 0.36157 0.55767 -0.00433 0.0
C1504 C 0.35223 0.56773 0.97537 0.0
C1505 C 0.32954 0.57654 0.97577 0.0
C1506 C 0.41721 0.52399 0.98767 0.0
C1507 C 0.4344 0.54071 -0.00327 0.0
C1508 C 0.39331 0.52945 0.9872 0.0
C1509 C 0.38647 0.5514 -0.00369 0.0
C1510 C 0.40357 0.56776 0.00597 0.0
C1511 C 0.4274 0.56256 0.00597 0.0
H1512 H 0.18678 0.57024 0.75035 0.0
H1513 H 0.11599 0.59112 0.76673 0.0
H1514 H 0.19783 0.61084 0.73955 0.0
H1515 H 0.12735 0.63207 0.75586 0.0
H1516 H 0.18196 0.70334 0.76095 0.0
H1517 H 0.15882 0.66665 0.76926 0.0
H1518 H 0.18313 0.6353 0.70411 0.0
H1519 H 0.20638 0.67192 0.69587 0.0
C1520 C 0.17369 0.58354 0.75206 0.0
C1521 C 0.15042 0.57741 0.75907 0.0
C1522 C 0.17992 0.6067 0.74554 0.0
C1523 C 0.16311 0.6242 0.74611 0.0
C1524 C 0.1404 0.61866 0.75487 0.0
C1525 C 0.13402 0.59533 0.7612 0.0
C1526 C 0.18125 0.68911 0.74776 0.0
C1527 C 0.19613 0.69017 0.72795 0.0
C1528 C 0.16818 0.66806 0.75264 0.0
C1529 C 0.16994 0.64811 0.73766 0.0
C1530 C 0.18206 0.65041 0.71616 0.0
C1531 C 0.19517 0.67134 0.71136 0.0
H1532 H 0.1738 0.43621 0.53631 0.0
H1533 H 0.17087 0.40345 0.46656 0.0
H1534 H 0.13483 0.45155 0.53 0.0
H1535 H 0.13162 0.41856 0.46037 0.0
H1536 H 0.08252 0.48066 0.44803 0.0
H1537 H 0.11681 0.45758 0.45444 0.0
H1538 H 0.0922 0.44103 0.5247 0.0
H1539 H 0.05767 0.46487 0.51842 0.0
C1540 C 0.16483 0.43227 0.51961 0.0
C1541 C 0.1756 0.41892 0.50178 0.0
C1542 C 0.14232 0.44078 0.51614 0.0
C1543 C 0.13007 0.43624 0.49472 0.0
C1544 C 0.14068 0.42254 0.47702 0.0
C1545 C 0.16319 0.41393 0.48053 0.0
C1546 C 0.08414 0.47187 0.46478 0.0
C1547 C 0.06749 0.4749 0.48285 0.0
C1548 C 0.10379 0.45843 0.46837 0.0
C1549 C 0.10737 0.44759 0.49013 0.0
C1550 C 0.09008 0.44948 0.50784 0.0
C1551 C 0.07024 0.46297 0.5042 0.0
H1552 H 0.86814 0.91975 0.77142 0.0
H1553 H 0.80015 0.9458 0.75221 0.0
H1554 H 0.85009 0.87963 0.77433 0.0
H1555 H 0.78226 0.90567 0.7548 0.0
H1556 H 0.7513 0.83459 0.75914 0.0
H1557 H 0.77146 0.86975 0.77775 0.0
H1558 H 0.83588 0.85363 0.74128 0.0
H1559 H 0.81564 0.81866 0.72298 0.0
C1560 C 0.84928 0.917 0.76814 0.0
C1561 C 0.83567 0.93588 0.76104 0.0
C1562 C 0.83896 0.89402 0.76992 0.0
C1563 C 0.81483 0.88944 0.76466 0.0
C1564 C 0.80087 0.90863 0.75926 0.0
C1565 C 0.81118 0.93162 0.75749 0.0
C1566 C 0.77013 0.83791 0.7563 0.0
C1567 C 0.78211 0.82407 0.73986 0.0
C1568 C 0.78158 0.85816 0.76666 0.0
C1569 C 0.8051 0.86471 0.7606 0.0
C1570 C 0.8178 0.84905 0.74643 0.0
C1571 C 0.80629 0.82895 0.73597 0.0
H1572 H 0.66323 0.13715 0.47904 0.0
H1573 H 0.68179 0.06497 0.49222 0.0
H1574 H 0.62188 0.12637 0.48888 0.0
H1575 H 0.64075 0.05454 0.5022 0.0
H1576 H 0.58062 0.05208 0.55115 0.0
H1577 H 0.61762 0.07292 0.53998 0.0
H1578 H 0.58586 0.09295 0.47427 0.0
H1579 H 0.54863 0.07193 0.48531 0.0
C1580 C 0.65842 0.11891 0.48353 0.0
C1581 C 0.67583 0.10195 0.48513 0.0
C1582 C 0.63483 0.11286 0.48923 0.0
C1583 C 0.62848 0.08989 0.49687 0.0
C1584 C 0.64547 0.07255 0.49682 0.0
C1585 C 0.66889 0.07846 0.49085 0.0
C1586 C 0.58118 0.06175 0.53476 0.0
C1587 C 0.56199 0.05988 0.51885 0.0
C1588 C 0.60239 0.07348 0.52831 0.0
C1589 C 0.60461 0.08375 0.50599 0.0
C1590 C 0.58451 0.08487 0.49147 0.0
C1591 C 0.56319 0.073 0.49791 0.0
H1592 H 0.18694 0.44321 0.71829 0.0
H1593 H 0.16655 0.44092 0.79171 0.0
H1594 H 0.19932 0.40216 0.7203 0.0
H1595 H 0.17949 0.39998 0.79374 0.0
H1596 H 0.24052 0.33658 0.76809 0.0
H1597 H 0.23257 0.37915 0.76694 0.0
H1598 H 0.15961 0.36093 0.74853 0.0
H1599 H 0.16727 0.31854 0.75009 0.0
C1600 C 0.18572 0.43414 0.73499 0.0
C1601 C 0.17593 0.44515 0.75491 0.0
C1602 C 0.19273 0.41075 0.73608 0.0
C1603 C 0.19043 0.39828 0.75721 0.0
C1604 C 0.18142 0.40948 0.77733 0.0
C1605 C 0.17404 0.43275 0.77615 0.0
C1606 C 0.22282 0.34174 0.76383 0.0
C1607 C 0.20442 0.32439 0.75945 0.0
C1608 C 0.21832 0.36594 0.76318 0.0
C1609 C 0.19552 0.37297 0.75775 0.0
C1610 C 0.17726 0.35571 0.75297 0.0
C1611 C 0.18163 0.33159 0.75397 0.0
H1612 H 0.288 0.54868 0.24628 0.0
H1613 H 0.35962 0.57832 0.24028 0.0
H1614 H 0.27317 0.58862 0.2459 0.0
H1615 H 0.34491 0.61822 0.23826 0.0
H1616 H 0.31151 0.68262 0.27524 0.0
H1617 H 0.32931 0.64572 0.26433 0.0
H1618 H 0.26614 0.62335 0.22448 0.0
H1619 H 0.24823 0.66047 0.23616 0.0
C1620 C 0.3005 0.56382 0.24464 0.0
C1621 C 0.32492 0.5606 0.2438 0.0
C1622 C 0.29203 0.58669 0.24403 0.0
C1623 C 0.30782 0.60678 0.24196 0.0
C1624 C 0.33225 0.60329 0.24033 0.0
C1625 C 0.34072 0.58047 0.24157 0.0
C1626 C 0.30192 0.67022 0.2633 0.0
C1627 C 0.2787 0.67431 0.25635 0.0
C1628 C 0.31205 0.64896 0.25705 0.0
C1629 C 0.29902 0.63123 0.24387 0.0
C1630 C 0.2765 0.63638 0.23507 0.0
C1631 C 0.26638 0.65779 0.24132 0.0
H1632 H 0.52426 0.70436 0.5632 0.0
H1633 H 0.46837 0.6772 0.60866 0.0
H1634 H 0.53095 0.66407 0.54929 0.0
H1635 H 0.47418 0.63702 0.59395 0.0
H1636 H 0.48863 0.56576 0.57296 0.0
H1637 H 0.49887 0.60405 0.59258 0.0
H1638 H 0.51122 0.63555 0.52428 0.0
H1639 H 0.50179 0.59722 0.50516 0.0
C1640 C 0.51316 0.68977 0.56996 0.0
C1641 C 0.49554 0.69391 0.58676 0.0
C1642 C 0.51712 0.66667 0.56211 0.0
C1643 C 0.50325 0.64723 0.57058 0.0
C1644 C 0.48566 0.65145 0.58748 0.0
C1645 C 0.482 0.67452 0.59563 0.0
C1646 C 0.49492 0.58065 0.5624 0.0
C1647 C 0.49451 0.57883 0.53769 0.0
C1648 C 0.50033 0.60265 0.57353 0.0
C1649 C 0.50504 0.62306 0.55996 0.0
C1650 C 0.50762 0.62032 0.53535 0.0
C1651 C 0.50235 0.59832 0.52431 0.0
H1652 H 0.54488 0.25771 0.79673 0.0
H1653 H 0.57778 0.23385 0.86063 0.0
H1654 H 0.58006 0.24808 0.77428 0.0
H1655 H 0.61281 0.22426 0.83813 0.0
H1656 H 0.66124 0.18733 0.78971 0.0
H1657 H 0.62226 0.19426 0.80566 0.0
H1658 H 0.62387 0.26311 0.7732 0.0
H1659 H 0.66309 0.25632 0.75719 0.0
C1660 C 0.55958 0.25038 0.80597 0.0
C1661 C 0.55853 0.24644 0.83045 0.0
C1662 C 0.57969 0.24495 0.79311 0.0
C1663 C 0.59896 0.23519 0.80443 0.0
C1664 C 0.59798 0.23138 0.8289 0.0
C1665 C 0.57801 0.23704 0.8418 0.0
C1666 C 0.65309 0.20372 0.78544 0.0
C1667 C 0.66544 0.22144 0.7725 0.0
C1668 C 0.63084 0.20772 0.79473 0.0
C1669 C 0.62039 0.22942 0.7911 0.0
C1670 C 0.63164 0.24625 0.77631 0.0
C1671 C 0.65404 0.2423 0.76706 0.0
H1672 H 0.01061 0.30995 0.0454 0.0
H1673 H 0.97411 0.32587 0.11024 0.0
H1674 H 0.00643 0.35073 0.03268 0.0
H1675 H 0.97034 0.36685 0.09763 0.0
H1676 H 0.0212 0.43681 0.08042 0.0
H1677 H 0.00592 0.39767 0.09277 0.0
H1678 H 0.97678 0.38364 0.02286 0.0
H1679 H 0.99165 0.42331 0.01074 0.0
C1680 C 0.00128 0.32202 0.05671 0.0
C1681 C 0.99289 0.3148 0.07889 0.0
C1682 C -0.00132 0.34531 0.04933 0.0
C1683 C 0.988 0.36191 0.06417 0.0
C1684 C 0.97855 0.35436 0.08584 0.0
C1685 C 0.98075 0.33093 0.09303 0.0
C1686 C 0.01037 0.42586 0.06814 0.0
C1687 C 0.00737 0.43298 0.04476 0.0
C1688 C 0.0017 0.40343 0.07515 0.0
C1689 C 0.99041 0.38756 0.05867 0.0
C1690 C 0.9855 0.39555 0.03585 0.0
C1691 C -0.00624 0.41828 0.029 0.0
H1692 H 0.92302 0.71966 0.33675 0.0
H1693 H 0.91795 0.79586 0.3408 0.0
H1694 H 0.88171 0.71534 0.32291 0.0
H1695 H 0.87666 0.79155 0.32773 0.0
H1696 H 0.80066 0.77221 0.29995 0.0
H1697 H 0.83145 0.76946 0.33079 0.0
H1698 H 0.87628 0.7355 0.28021 0.0
H1699 H 0.84658 0.73878 0.24979 0.0
C1700 C 0.91273 0.73531 0.33564 0.0
C1701 C 0.92351 0.75809 0.33918 0.0
C1702 C 0.88916 0.73286 0.32795 0.0
C1703 C 0.8762 0.75316 0.32426 0.0
C1704 C 0.88625 0.77568 0.33065 0.0
C1705 C 0.9099 0.77815 0.33777 0.0
C1706 C 0.81712 0.76417 0.2956 0.0
C1707 C 0.82149 0.75627 0.27239 0.0
C1708 C 0.83449 0.76236 0.3132 0.0
C1709 C 0.8559 0.75184 0.30784 0.0
C1710 C 0.8597 0.74318 0.2849 0.0
C1711 C 0.84283 0.74553 0.26737 0.0
H1712 H 0.48046 0.31096 0.93367 0.0
H1713 H 0.49648 0.34793 0.86897 0.0
H1714 H 0.47457 0.34865 0.95374 0.0
H1715 H 0.49034 0.38597 0.88918 0.0
H1716 H 0.51312 0.44385 0.94898 0.0
H1717 H 0.51107 0.41045 0.92063 0.0
H1718 H 0.44821 0.38141 0.95518 0.0
H1719 H 0.45092 0.41433 0.98394 0.0
C1720 C 0.48264 0.32717 0.92372 0.0
C1721 C 0.48909 0.32653 0.89982 0.0
C1722 C 0.47895 0.34877 0.93513 0.0
C1723 C 0.48175 0.37027 0.92295 0.0
C1724 C 0.48804 0.36967 0.89897 0.0
C1725 C 0.49151 0.34794 0.88744 0.0
C1726 C 0.49838 0.43079 0.94984 0.0
C1727 C 0.48223 0.43142 0.96854 0.0
C1728 C 0.49721 0.41164 0.93369 0.0
C1729 C 0.47974 0.39309 0.93603 0.0
C1730 C 0.46218 0.39517 0.95333 0.0
C1731 C 0.46358 0.41405 0.96963 0.0
H1732 H 0.91659 0.21967 0.14233 0.0
H1733 H 0.93925 0.28363 0.18109 0.0
H1734 H 0.87575 0.22487 0.15413 0.0
H1735 H 0.89806 0.289 0.19329 0.0
H1736 H 0.83485 0.25117 0.23909 0.0
H1737 H 0.87201 0.2648 0.22071 0.0
H1738 H 0.84103 0.24977 0.15168 0.0
H1739 H 0.80407 0.2357 0.17029 0.0
C1740 C 0.91261 0.23506 0.15312 0.0
C1741 C 0.93076 0.25115 0.16104 0.0
C1742 C 0.88924 0.23825 0.15967 0.0
C1743 C 0.88364 0.25749 0.17451 0.0
C1744 C 0.90186 0.27408 0.1818 0.0
C1745 C 0.92531 0.27101 0.17493 0.0
C1746 C 0.83567 0.25205 0.21999 0.0
C1747 C 0.81684 0.24247 0.20599 0.0
C1748 C 0.85694 0.25979 0.20943 0.0
C1749 C 0.85956 0.25781 0.18477 0.0
C1750 C 0.83959 0.2511 0.17075 0.0
C1751 C 0.8184 0.24329 0.18133 0.0
H1752 H 0.03962 0.69233 0.42092 0.0
H1753 H 0.96358 0.69173 0.42772 0.0
H1754 H 0.04064 0.65692 0.44433 0.0
H1755 H 0.96453 0.65687 0.45293 0.0
H1756 H 0.97486 0.57889 0.47422 0.0
H1757 H 0.97 0.61631 0.45441 0.0
H1758 H 0.03812 0.64307 0.482 0.0
H1759 H 0.04361 0.60486 0.5001 0.0
C1760 C 0.02311 0.68476 0.42788 0.0
C1761 C 0.00156 0.69483 0.42279 0.0
C1762 C 0.02368 0.66455 0.44158 0.0
C1763 C 0.00275 0.6542 0.4512 0.0
C1764 C 0.98103 0.66422 0.44583 0.0
C1765 C 0.98042 0.68422 0.43149 0.0
C1766 C 0.98854 0.59302 0.47644 0.0
C1767 C 0.00971 0.58902 0.48853 0.0
C1768 C 0.98576 0.61454 0.46506 0.0
C1769 C 0.0039 0.63267 0.46604 0.0
C1770 C 0.02413 0.62926 0.48002 0.0
C1771 C 0.02719 0.60752 0.49077 0.0
H1772 H 0.54361 0.79012 0.6871 0.0
H1773 H 0.57396 0.7477 0.63181 0.0
H1774 H 0.58093 0.78966 0.70971 0.0
H1775 H 0.61072 0.74644 0.65469 0.0
H1776 H 0.66652 0.73375 0.71069 0.0
H1777 H 0.62498 0.73093 0.69736 0.0
H1778 H 0.62435 0.80758 0.69723 0.0
H1779 H 0.66574 0.81042 0.70997 0.0
C1780 C 0.55822 0.78061 0.67994 0.0
C1781 C 0.55624 0.76931 0.65765 0.0
C1782 C 0.57939 0.78021 0.69286 0.0
C1783 C 0.59846 0.76777 0.684 0.0
C1784 C 0.59614 0.75589 0.66201 0.0
C1785 C 0.5753 0.7569 0.64881 0.0
C1786 C 0.65722 0.74993 0.70855 0.0
C1787 C 0.66925 0.7723 0.71129 0.0
C1788 C 0.6336 0.74832 0.70079 0.0
C1789 C 0.62163 0.76907 0.69627 0.0
C1790 C 0.63314 0.79137 0.70082 0.0
C1791 C 0.6568 0.79297 0.70805 0.0
H1792 H 0.54789 0.47344 0.71448 0.0
H1793 H 0.60827 0.50133 0.6753 0.0
H1794 H 0.52322 0.47463 0.67866 0.0
H1795 H 0.58355 0.50312 0.63995 0.0
H1796 H 0.52847 0.52351 0.58707 0.0
H1797 H 0.54469 0.52626 0.62738 0.0
H1798 H 0.52726 0.45141 0.63637 0.0
H1799 H 0.51162 0.44849 0.59598 0.0
C1800 C 0.55583 0.47982 0.69826 0.0
C1801 C 0.58002 0.487 0.69754 0.0
C1802 C 0.54174 0.48063 0.6779 0.0
C1803 C 0.55149 0.4893 0.65677 0.0
C1804 C 0.57557 0.49671 0.65616 0.0
C1805 C 0.58976 0.49536 0.67628 0.0
C1806 C 0.52735 0.50787 0.59797 0.0
C1807 C 0.51892 0.48576 0.58848 0.0
C1808 C 0.53677 0.50941 0.6209 0.0
C1809 C 0.53732 0.48898 0.63476 0.0
C1810 C 0.5269 0.46739 0.62602 0.0
C1811 C 0.51799 0.46574 0.60296 0.0
H1812 H 0.70945 0.35586 0.91975 0.0
H1813 H 0.78329 0.33963 0.91978 0.0
H1814 H 0.70646 0.34406 0.87769 0.0
H1815 H 0.78053 0.32853 0.87808 0.0
H1816 H 0.77203 0.30875 0.80292 0.0
H1817 H 0.77033 0.33933 0.83458 0.0
H1818 H 0.71098 0.29979 0.86545 0.0
H1819 H 0.71308 0.26945 0.83458 0.0
C1820 C 0.7251 0.35041 0.91057 0.0
C1821 C 0.7464 0.34796 0.92288 0.0
C1822 C 0.72348 0.34389 0.8866 0.0
C1823 C 0.74331 0.3355 0.87473 0.0
C1824 C 0.76508 0.33523 0.8867 0.0
C1825 C 0.76654 0.34117 0.91063 0.0
C1826 C 0.75842 0.30704 0.81628 0.0
C1827 C 0.74317 0.28662 0.81697 0.0
C1828 C 0.7573 0.3245 0.83416 0.0
C1829 C 0.7405 0.32184 0.85235 0.0
C1830 C 0.72389 0.30245 0.85152 0.0
C1831 C 0.72537 0.28489 0.83412 0.0
H1832 H 0.88789 0.52478 0.17136 0.0
H1833 H 0.95275 0.50664 0.20608 0.0
H1834 H 0.90919 0.53107 0.13491 0.0
H1835 H 0.97435 0.51328 0.16903 0.0
H1836 H 0.98609 0.49422 0.08632 0.0
H1837 H 0.97374 0.49321 0.1277 0.0
H1838 H 0.94003 0.55968 0.1193 0.0
H1839 H 0.95177 0.56044 0.078 0.0
C1840 C 0.90678 0.52236 0.17129 0.0
C1841 C 0.91866 0.51529 0.19163 0.0
C1842 C 0.91903 0.52616 0.15041 0.0
C1843 C 0.94347 0.52302 0.14929 0.0
C1844 C 0.9555 0.51592 0.16955 0.0
C1845 C 0.94319 0.51222 0.19067 0.0
C1846 C 0.97652 0.50887 0.09352 0.0
C1847 C 0.96936 0.52713 0.0789 0.0
C1848 C 0.96958 0.50834 0.11719 0.0
C1849 C 0.95558 0.52615 0.12645 0.0
C1850 C 0.9504 0.54549 0.11237 0.0
C1851 C 0.95709 0.5459 0.08877 0.0
H1852 H 0.75397 0.70871 0.42939 0.0
H1853 H 0.77608 0.64062 0.40374 0.0
H1854 H 0.75504 0.72358 0.38919 0.0
H1855 H 0.77691 0.65551 0.3634 0.0
H1856 H 0.72109 0.68002 0.30528 0.0
H1857 H 0.7392 0.66518 0.34089 0.0
H1858 H 0.77889 0.73239 0.35089 0.0
H1859 H 0.76095 0.74703 0.31458 0.0
C1860 C 0.75963 0.69711 0.41524 0.0
C1861 C 0.76457 0.67339 0.41965 0.0
C1862 C 0.76046 0.70571 0.39224 0.0
C1863 C 0.76594 0.69065 0.37317 0.0
C1864 C 0.77258 0.66746 0.3778 0.0
C1865 C 0.77209 0.65896 0.40088 0.0
C1866 C 0.73444 0.69121 0.31457 0.0
C1867 C 0.73976 0.71453 0.30733 0.0
C1868 C 0.74486 0.68274 0.33491 0.0
C1869 C 0.76037 0.69768 0.34872 0.0
C1870 C 0.76698 0.72054 0.34055 0.0
C1871 C 0.75688 0.72885 0.31978 0.0
H1872 H 0.61601 0.47863 0.84355 0.0
H1873 H 0.54691 0.49949 0.82158 0.0
H1874 H 0.60223 0.47658 0.88457 0.0
H1875 H 0.53317 0.49714 0.86218 0.0
H1876 H 0.50947 0.48872 0.93492 0.0
H1877 H 0.52537 0.47145 0.89849 0.0
H1878 H 0.5914 0.51234 0.91024 0.0
H1879 H 0.57536 0.52966 0.94616 0.0
C1880 C 0.59775 0.48218 0.84739 0.0
C1881 C 0.58261 0.48956 0.82949 0.0
C1882 C 0.58988 0.48096 0.87081 0.0
C1883 C 0.56661 0.48662 0.87654 0.0
C1884 C 0.55107 0.49233 0.85829 0.0
C1885 C 0.55904 0.49397 0.83507 0.0
C1886 C 0.5277 0.49312 0.93014 0.0
C1887 C 0.54126 0.51049 0.94309 0.0
C1888 C 0.53675 0.4834 0.90929 0.0
C1889 C 0.55953 0.49076 0.90142 0.0
C1890 C 0.57388 0.50618 0.9159 0.0
C1891 C 0.5647 0.51617 0.93642 0.0
H1892 H 0.72766 0.36536 0.07878 0.0
H1893 H 0.74461 0.30166 0.03976 0.0
H1894 H 0.72613 0.34308 0.11511 0.0
H1895 H 0.74293 0.27926 0.07661 0.0
H1896 H 0.70779 0.2538 0.15283 0.0
H1897 H 0.71046 0.26886 0.1122 0.0
H1898 H 0.76225 0.32346 0.13594 0.0
H1899 H 0.75976 0.30834 0.17602 0.0
C1900 C 0.73083 0.34654 0.0779 0.0
C1901 C 0.73654 0.33532 0.05646 0.0
C1902 C 0.73001 0.33384 0.09871 0.0
C1903 C 0.73481 0.30964 0.09855 0.0
C1904 C 0.73923 0.29795 0.07703 0.0
C1905 C 0.74015 0.31075 0.05605 0.0
C1906 C 0.7202 0.26854 0.14899 0.0
C1907 C 0.73363 0.28003 0.16717 0.0
C1908 C 0.72171 0.27711 0.12594 0.0
C1909 C 0.7363 0.29744 0.12123 0.0
C1910 C 0.75074 0.30788 0.13927 0.0
C1911 C 0.74943 0.29921 0.16206 0.0
H1912 H 0.91059 0.5409 0.32884 0.0
H1913 H 0.90707 0.46414 0.32637 0.0
H1914 H 0.92226 0.5404 0.37055 0.0
H1915 H 0.91698 0.46336 0.36821 0.0
H1916 H 0.9763 0.47342 0.4241 0.0
H1917 H 0.95316 0.47088 0.38773 0.0
H1918 H 0.91495 0.53183 0.4108 0.0
H1919 H 0.93955 0.53499 0.44659 0.0
C1920 C 0.91175 0.52399 0.3375 0.0
C1921 C 0.90863 0.5026 0.3246 0.0
C1922 C 0.91817 0.52361 0.36137 0.0
C1923 C 0.92094 0.50178 0.37263 0.0
C1924 C 0.91572 0.48044 0.35994 0.0
C1925 C 0.91 0.48086 0.33605 0.0
C1926 C 0.96246 0.48577 0.42155 0.0
C1927 C 0.95919 0.50408 0.438 0.0
C1928 C 0.94908 0.48433 0.40082 0.0
C1929 C 0.93212 0.50118 0.39632 0.0
C1930 C 0.92803 0.51876 0.41361 0.0
C1931 C 0.94173 0.52036 0.43422 0.0
H1932 H 0.75901 0.62404 0.57253 0.0
H1933 H 0.77385 0.69093 0.53789 0.0
H1934 H 0.75881 0.64516 0.61094 0.0
H1935 H 0.77403 0.71165 0.57592 0.0
H1936 H 0.73409 0.74321 0.63529 0.0
H1937 H 0.73826 0.71718 0.60125 0.0
H1938 H 0.78382 0.67352 0.6414 0.0
H1939 H 0.7792 0.69988 0.67639 0.0
C1940 C 0.76269 0.64313 0.57313 0.0
C1941 C 0.76601 0.6559 0.55212 0.0
C1942 C 0.76266 0.65515 0.59512 0.0
C1943 C 0.76599 0.68005 0.59632 0.0
C1944 C 0.77094 0.69248 0.57546 0.0
C1945 C 0.77085 0.68059 0.55365 0.0
C1946 C 0.74508 0.72812 0.63699 0.0
C1947 C 0.75686 0.72395 0.65831 0.0
C1948 C 0.74746 0.7132 0.61744 0.0
C1949 C 0.76192 0.69376 0.61846 0.0
C1950 C 0.77275 0.68858 0.64013 0.0
C1951 C 0.77016 0.70361 0.66005 0.0
H1952 H 0.69467 0.55936 0.48633 0.0
H1953 H 0.6681 0.6278 0.46974 0.0
H1954 H 0.65433 0.54343 0.492 0.0
H1955 H 0.62736 0.61143 0.47531 0.0
H1956 H 0.55969 0.55029 0.46783 0.0
H1957 H 0.59658 0.57334 0.45801 0.0
H1958 H 0.62552 0.55797 0.52643 0.0
H1959 H 0.58923 0.53519 0.53615 0.0
C1960 C 0.68025 0.57093 0.48346 0.0
C1961 C 0.6847 0.59496 0.47786 0.0
C1962 C 0.65713 0.56179 0.48681 0.0
C1963 C 0.63785 0.57632 0.48441 0.0
C1964 C 0.64199 0.59992 0.4773 0.0
C1965 C 0.66528 0.60923 0.47417 0.0
C1966 C 0.57374 0.55246 0.48093 0.0
C1967 C 0.57186 0.5406 0.50255 0.0
C1968 C 0.59478 0.56555 0.47531 0.0
C1969 C 0.61398 0.56687 0.4913 0.0
C1970 C 0.61114 0.55676 0.51363 0.0
C1971 C 0.59036 0.54377 0.51917 0.0
H1972 H 0.19659 0.96246 0.49929 0.0
H1973 H 0.16583 0.8917 0.50991 0.0
H1974 H 0.15727 0.97875 0.50386 0.0
H1975 H 0.12686 0.90796 0.51538 0.0
H1976 H 0.0742 0.9497 0.55869 0.0
H1977 H 0.11397 0.93737 0.5501 0.0
H1978 H 0.113 0.97384 0.48375 0.0
H1979 H 0.07285 0.98615 0.49212 0.0
C1980 C 0.18132 0.95045 0.50224 0.0
C1981 C 0.18399 0.92591 0.50412 0.0
C1982 C 0.15896 0.95972 0.50487 0.0
C1983 C 0.13925 0.94459 0.51022 0.0
C1984 C 0.14188 0.91996 0.51137 0.0
C1985 C 0.16404 0.91066 0.50805 0.0
C1986 C 0.0825 0.95539 0.54239 0.0
C1987 C 0.07028 0.96873 0.52599 0.0
C1988 C 0.1052 0.94822 0.53745 0.0
C1989 C 0.11623 0.95436 0.51612 0.0
C1990 C 0.10474 0.9689 0.50031 0.0
C1991 C 0.08186 0.97601 0.50518 0.0
H1992 H 0.37875 0.92263 0.75546 0.0
H1993 H 0.31223 0.957 0.76169 0.0
H1994 H 0.35735 0.88363 0.75722 0.0
H1995 H 0.29128 0.91826 0.76355 0.0
H1996 H 0.26387 0.85372 0.72209 0.0
H1997 H 0.29211 0.8877 0.72524 0.0
H1998 H 0.3232 0.85815 0.78731 0.0
H1999 H 0.29465 0.82336 0.78393 0.0
C2000 C 0.35968 0.92188 0.75751 0.0
C2001 C 0.34705 0.94281 0.75788 0.0
C2002 C 0.34758 0.89964 0.75874 0.0
C2003 C 0.32284 0.89824 0.76032 0.0
C2004 C 0.31043 0.91912 0.76217 0.0
C2005 C 0.32242 0.94122 0.76097 0.0
C2006 C 0.27694 0.8543 0.73623 0.0
C2007 C 0.27694 0.83642 0.75311 0.0
C2008 C 0.29303 0.87364 0.73799 0.0
C2009 C 0.30928 0.87555 0.75677 0.0
C2010 C 0.3106 0.85688 0.77277 0.0
C2011 C 0.29441 0.83718 0.77088 0.0
H2012 H 0.31456 0.04652 0.98664 0.0
H2013 H 0.34019 0.11692 0.96671 0.0
H2014 H 0.3549 0.03356 0.98681 0.0
H2015 H 0.38087 0.10388 0.96692 0.0
H2016 H 0.43852 0.07908 0.02284 0.0
H2017 H 0.40421 0.09399 0.00272 0.0
H2018 H 0.39265 0.02623 0.9661 0.0
H2019 H 0.42712 0.01138 0.98658 0.0
C2020 C 0.32879 0.05906 0.98167 0.0
C2021 C 0.32426 0.0828 0.97696 0.0
C2022 C 0.35194 0.05157 0.98155 0.0
C2023 C 0.37113 0.06772 0.97698 0.0
C2024 C 0.36644 0.09107 0.9706 0.0
C2025 C 0.34317 0.0985 0.97042 0.0
C2026 C 0.42922 0.0678 0.0097 0.0
C2027 C 0.43536 0.04421 0.00606 0.0
C2028 C 0.4096 0.07631 -0.0019 0.0
C2029 C 0.39553 0.06118 0.98302 0.0
C2030 C 0.40306 0.03822 0.97777 0.0
C2031 C 0.42287 0.02979 0.98926 0.0
H2032 H 0.6917 0.55412 0.75301 0.0
H2033 H 0.62075 0.57886 0.74874 0.0
H2034 H 0.70784 0.59391 0.74426 0.0
H2035 H 0.63677 0.61843 0.7389 0.0
H2036 H 0.67914 0.68874 0.76318 0.0
H2037 H 0.65693 0.65079 0.75857 0.0
H2038 H 0.71325 0.62415 0.71567 0.0
H2039 H 0.73573 0.66217 0.7212 0.0
C2040 C 0.67956 0.56806 0.75007 0.0
C2041 C 0.65499 0.56346 0.75197 0.0
C2042 C 0.68877 0.59081 0.74464 0.0
C2043 C 0.6736 0.60942 0.74061 0.0
C2044 C 0.64899 0.60464 0.74212 0.0
C2045 C 0.63981 0.58198 0.74791 0.0
C2046 C 0.6861 0.67517 0.7517 0.0
C2047 C 0.70897 0.67823 0.74246 0.0
C2048 C 0.67348 0.65328 0.74917 0.0
C2049 C 0.68363 0.63411 0.73735 0.0
C2050 C 0.70524 0.63833 0.72547 0.0
C2051 C 0.71791 0.66023 0.72816 0.0
H2052 H 0.82076 0.42975 0.02283 0.0
H2053 H 0.82951 0.37745 0.96699 0.0
H2054 H 0.86268 0.44264 0.01957 0.0
H2055 H 0.87127 0.39096 0.96338 0.0
H2056 H 0.92094 0.4691 0.95335 0.0
H2057 H 0.88581 0.44181 0.95391 0.0
H2058 H 0.90739 0.41643 0.02179 0.0
H2059 H 0.94312 0.4431 0.02082 0.0
C2060 C 0.83165 0.42103 0.00994 0.0
C2061 C 0.82201 0.4027 -0.00485 0.0
C2062 C 0.85556 0.42817 0.00828 0.0
C2063 C 0.86996 0.41738 0.99152 0.0
C2064 C 0.86041 0.39913 0.97665 0.0
C2065 C 0.83661 0.39159 0.97868 0.0
C2066 C 0.91876 0.45676 0.96774 0.0
C2067 C 0.93449 0.45804 0.98703 0.0
C2068 C 0.89875 0.44125 0.96808 0.0
C2069 C 0.89409 0.42737 0.98797 0.0
C2070 C 0.9109 0.42702 0.00628 0.0
C2071 C 0.93129 0.44209 0.00564 0.0
H2072 H 0.3454 0.08766 0.77752 0.0
H2073 H 0.30458 0.06339 0.71599 0.0
H2074 H 0.32897 0.12676 0.77463 0.0
H2075 H 0.28847 0.10257 0.71298 0.0
H2076 H 0.25204 0.17354 0.72741 0.0
H2077 H 0.26328 0.1326 0.73362 0.0
H2078 H 0.3361 0.15809 0.74429 0.0
H2079 H 0.32502 0.19864 0.73806 0.0
C2080 C 0.33272 0.09057 0.76358 0.0
C2081 C 0.32647 0.07254 0.74686 0.0
C2082 C 0.3234 0.11296 0.76187 0.0
C2083 C 0.3077 0.11772 0.74341 0.0
C2084 C 0.30044 0.09933 0.72746 0.0
C2085 C 0.30974 0.07693 0.72918 0.0
C2086 C 0.27043 0.17029 0.73098 0.0
C2087 C 0.28768 0.18921 0.73206 0.0
C2088 C 0.27684 0.14694 0.73453 0.0
C2089 C 0.3005 0.14227 0.7397 0.0
C2090 C 0.31767 0.16122 0.7407 0.0
C2091 C 0.31137 0.1844 0.7368 0.0
H2092 H 0.20909 0.93124 0.25447 0.0
H2093 H 0.13823 0.91164 0.27777 0.0
H2094 H 0.22017 0.89031 0.25886 0.0
H2095 H 0.1492 0.87033 0.28168 0.0
H2096 H 0.1719 0.80951 0.22501 0.0
H2097 H 0.15827 0.84496 0.2449 0.0
H2098 H 0.2243 0.8528 0.28382 0.0
H2099 H 0.23779 0.81684 0.2639 0.0
C2100 C 0.19609 0.91827 0.2612 0.0
C2101 C 0.17275 0.92447 0.26546 0.0
C2102 C 0.20249 0.89486 0.26395 0.0
C2103 C 0.1855 0.87709 0.27051 0.0
C2104 C 0.16264 0.88369 0.27664 0.0
C2105 C 0.15638 0.9073 0.27439 0.0
C2106 C 0.18296 0.81814 0.23871 0.0
C2107 C 0.20582 0.81064 0.24298 0.0
C2108 C 0.17516 0.83841 0.25018 0.0
C2109 C 0.19035 0.85182 0.2657 0.0
C2110 C 0.21231 0.84284 0.27183 0.0
C2111 C 0.21996 0.82224 0.26058 0.0
H2112 H 0.45945 0.31918 0.42947 0.0
H2113 H 0.53159 0.32776 0.4051 0.0
H2114 H 0.46088 0.36058 0.44274 0.0
H2115 H 0.53385 0.36864 0.41989 0.0
H2116 H 0.48488 0.42202 0.49382 0.0
H2117 H 0.47577 0.38483 0.47254 0.0
H2118 H 0.52388 0.4074 0.41697 0.0
H2119 H 0.53443 0.44376 0.43973 0.0
C2120 C 0.47574 0.32992 0.42723 0.0
C2121 C 0.4955 0.32026 0.41649 0.0
C2122 C 0.4766 0.35368 0.43488 0.0
C2123 C 0.4975 0.36818 0.43254 0.0
C2124 C 0.51721 0.35839 0.42156 0.0
C2125 C 0.5161 0.3348 0.41334 0.0
C2126 C 0.49296 0.41921 0.47673 0.0
C2127 C 0.51047 0.43543 0.46839 0.0
C2128 C 0.48774 0.39786 0.46441 0.0
C2129 C 0.49952 0.39265 0.44318 0.0
C2130 C 0.51515 0.41028 0.43368 0.0
C2131 C 0.52095 0.43129 0.44644 0.0
H2132 H 0.4228 0.7845 0.14417 0.0
H2133 H 0.439 0.73953 0.20249 0.0
H2134 H 0.38226 0.78616 0.15792 0.0
H2135 H 0.39805 0.74048 0.21586 0.0
H2136 H 0.32493 0.76268 0.24265 0.0
H2137 H 0.36713 0.76343 0.23249 0.0
H2138 H 0.34833 0.75988 0.15827 0.0
H2139 H 0.30675 0.76022 0.16838 0.0
C2140 C 0.41775 0.7751 0.16004 0.0
C2141 C 0.43412 0.76183 0.17217 0.0
C2142 C 0.3944 0.77584 0.16783 0.0
C2143 C 0.38671 0.76312 0.18781 0.0
C2144 C 0.40334 0.75059 0.2005 0.0
C2145 C 0.42682 0.75 0.19278 0.0
C2146 C 0.32996 0.76218 0.22421 0.0
C2147 C 0.3126 0.76192 0.20631 0.0
C2148 C 0.35409 0.76249 0.21836 0.0
C2149 C 0.36121 0.7622 0.19452 0.0
C2150 C 0.34364 0.76101 0.17678 0.0
C2151 C 0.31973 0.76109 0.18259 0.0
H2152 H 0.04295 0.69041 0.93838 0.0
H2153 H 0.97478 0.67408 0.90528 0.0
H2154 H 0.0449 0.64909 0.94991 0.0
H2155 H 0.97617 0.63302 0.91765 0.0
H2156 H 0.98215 0.5593 0.93199 0.0
H2157 H -0.00582 0.59621 0.91243 0.0
H2158 H 0.02667 0.62318 0.97769 0.0
H2159 H 0.01552 0.58578 -0.00339 0.0
C2160 C 0.02823 0.67803 0.93381 0.0
C2161 C 0.00853 0.68553 0.9212 0.0
C2162 C 0.02942 0.65431 0.94034 0.0
C2163 C 0.0108 0.63762 0.93462 0.0
C2164 C 0.99115 0.64519 0.92187 0.0
C2165 C 0.99012 0.66884 0.91509 0.0
C2166 C 0.99307 0.57267 0.94162 0.0
C2167 C -0.00196 0.5699 0.96566 0.0
C2168 C -0.00045 0.59398 0.93063 0.0
C2169 C 0.01057 0.61301 0.94374 0.0
C2170 C 0.01812 0.60899 0.96703 0.0
C2171 C 0.01191 0.58749 0.9779 0.0
H2172 H 0.0737 0.22506 0.61764 0.0
H2173 H 0.06826 0.28034 0.67107 0.0
H2174 H 0.11419 0.21861 0.6308 0.0
H2175 H 0.10925 0.2745 0.68354 0.0
H2176 H 0.18999 0.26827 0.68495 0.0
H2177 H 0.15556 0.27421 0.65968 0.0
H2178 H 0.12489 0.20564 0.67927 0.0
H2179 H 0.15882 0.19997 0.70521 0.0
C2180 C 0.08144 0.23626 0.63178 0.0
C2181 C 0.06802 0.25325 0.64339 0.0
C2182 C 0.10451 0.23254 0.63921 0.0
C2183 C 0.11471 0.2463 0.65785 0.0
C2184 C 0.10169 0.26396 0.66885 0.0
C2185 C 0.07833 0.2672 0.66189 0.0
C2186 C 0.17638 0.25403 0.68308 0.0
C2187 C 0.17687 0.23373 0.69712 0.0
C2188 C 0.15666 0.25756 0.66881 0.0
C2189 C 0.13769 0.24047 0.6679 0.0
C2190 C 0.13944 0.21899 0.67977 0.0
C2191 C 0.15883 0.21572 0.69449 0.0
H2192 H 0.47435 0.68281 0.06938 0.0
H2193 H 0.50765 0.67333 0.13732 0.0
H2194 H 0.48148 0.64133 0.05864 0.0
H2195 H 0.51528 0.63231 0.12612 0.0
H2196 H 0.55357 0.58968 0.05361 0.0
H2197 H 0.54259 0.62456 0.07682 0.0
H2198 H 0.47272 0.592 0.08718 0.0
H2199 H 0.48385 0.55668 0.06478 0.0
C2200 C 0.48275 0.6718 0.08212 0.0
C2201 C 0.49047 0.68133 0.10413 0.0
C2202 C 0.48674 0.64816 0.07603 0.0
C2203 C 0.49882 0.63391 0.09169 0.0
C2204 C 0.50573 0.64303 0.11397 0.0
C2205 C 0.50132 0.66647 0.12028 0.0
C2206 C 0.5363 0.5895 0.06185 0.0
C2207 C 0.5196 0.57055 0.05746 0.0
C2208 C 0.52998 0.60944 0.07493 0.0
C2209 C 0.50681 0.6108 0.08339 0.0
C2210 C 0.4907 0.59113 0.08077 0.0
C2211 C 0.49719 0.57091 0.06818 0.0
H2212 H 0.05377 0.75137 0.80598 0.0
H2213 H 0.08489 0.73737 0.87401 0.0
H2214 H 0.09252 0.7489 0.7877 0.0
H2215 H 0.12353 0.73472 0.85562 0.0
H2216 H 0.18159 0.78564 0.81728 0.0
H2217 H 0.14803 0.76847 0.83908 0.0
H2218 H 0.12742 0.7246 0.77806 0.0
H2219 H 0.1612 0.74205 0.75633 0.0
C2220 C 0.06876 0.74736 0.81695 0.0
C2221 C 0.06634 0.74511 0.84149 0.0
C2222 C 0.09091 0.74562 0.80645 0.0
C2223 C 0.11103 0.74163 0.8203 0.0
C2224 C 0.10833 0.73793 0.84458 0.0
C2225 C 0.0862 0.7396 0.85508 0.0
C2226 C 0.17062 0.77135 0.80909 0.0
C2227 C 0.17387 0.76488 0.78538 0.0
C2228 C 0.15136 0.76154 0.82148 0.0
C2229 C 0.13491 0.74549 0.81008 0.0
C2230 C 0.13974 0.73711 0.78714 0.0
C2231 C 0.15918 0.74681 0.77483 0.0
H2232 H 0.00573 0.30809 0.54314 0.0
H2233 H 0.97497 0.32749 0.6101 0.0
H2234 H 0.00034 0.34818 0.52888 0.0
H2235 H 0.97024 0.36751 0.59619 0.0
H2236 H 0.94348 0.43002 0.55961 0.0
H2237 H 0.94692 0.38837 0.56892 0.0
H2238 H 0.0153 0.3892 0.53495 0.0
H2239 H 0.01144 0.4309 0.52492 0.0
C2240 C -0.00224 0.32088 0.55477 0.0
C2241 C 0.99055 0.31456 0.57766 0.0
C2242 C -0.00516 0.34388 0.54666 0.0
C2243 C 0.98467 0.361 0.5613 0.0
C2244 C 0.97761 0.35462 0.58423 0.0
C2245 C 0.98043 0.33168 0.59227 0.0
C2246 C 0.95911 0.42124 0.55385 0.0
C2247 C 0.97725 0.43375 0.54167 0.0
C2248 C 0.96117 0.3974 0.55933 0.0
C2249 C 0.98156 0.38555 0.55305 0.0
C2250 C -0.00072 0.39776 0.53992 0.0
C2251 C -0.00291 0.42164 0.53418 0.0
H2252 H 0.45113 0.27758 0.30713 0.0
H2253 H 0.42045 0.2299 0.35894 0.0
H2254 H 0.41488 0.27197 0.28292 0.0
H2255 H 0.38481 0.22413 0.3349 0.0
H2256 H 0.33541 0.19714 0.28008 0.0
H2257 H 0.37566 0.20446 0.29532 0.0
H2258 H 0.36999 0.27999 0.28625 0.0
H2259 H 0.3298 0.27253 0.27022 0.0
C2260 C 0.43663 0.26601 0.31332 0.0
C2261 C 0.43848 0.25418 0.33485 0.0
C2262 C 0.416 0.26282 0.29952 0.0
C2263 C 0.39732 0.24728 0.30687 0.0
C2264 C 0.39914 0.23586 0.32861 0.0
C2265 C 0.41942 0.23939 0.34251 0.0
C2266 C 0.34305 0.21522 0.28071 0.0
C2267 C 0.32959 0.23429 0.27427 0.0
C2268 C 0.36597 0.21943 0.28952 0.0
C2269 C 0.37562 0.24282 0.29244 0.0
C2270 C 0.36292 0.2618 0.28412 0.0
C2271 C 0.34 0.25753 0.27495 0.0
H2272 H 0.42284 0.54055 0.31815 0.0
H2273 H 0.43016 0.46457 0.31754 0.0
H2274 H 0.43925 0.54327 0.3586 0.0
H2275 H 0.44549 0.46722 0.35813 0.0
H2276 H 0.42849 0.49143 0.44 0.0
H2277 H 0.41882 0.48733 0.39779 0.0
H2278 H 0.48419 0.52624 0.3809 0.0
H2279 H 0.49434 0.5296 0.42337 0.0
C2280 C 0.42817 0.52455 0.3266 0.0
C2281 C 0.42549 0.50241 0.31478 0.0
C2282 C 0.43759 0.52611 0.34957 0.0
C2283 C 0.44373 0.50545 0.36118 0.0
C2284 C 0.44113 0.48337 0.34933 0.0
C2285 C 0.43243 0.4819 0.32618 0.0
C2286 C 0.44096 0.49872 0.4272 0.0
C2287 C 0.46217 0.5107 0.43468 0.0
C2288 C 0.43543 0.49641 0.40318 0.0
C2289 C 0.45075 0.50659 0.38633 0.0
C2290 C 0.47216 0.51832 0.39373 0.0
C2291 C 0.478 0.5201 0.41784 0.0
H2292 H 0.2118 0.64644 0.05776 0.0
H2293 H 0.2853 0.65938 0.07717 0.0
H2294 H 0.19992 0.65563 0.09808 0.0
H2295 H 0.27357 0.67006 0.11755 0.0
H2296 H 0.25013 0.68214 0.19026 0.0
H2297 H 0.25651 0.65809 0.15465 0.0
H2298 H 0.19808 0.69068 0.12042 0.0
H2299 H 0.19127 0.71368 0.15596 0.0
C2300 C 0.22535 0.65163 0.07078 0.0
C2301 C 0.24933 0.65292 0.06456 0.0
C2302 C 0.21861 0.65679 0.09384 0.0
C2303 C 0.23574 0.66376 0.11106 0.0
C2304 C 0.25992 0.66443 0.10482 0.0
C2305 C 0.26668 0.65882 0.08171 0.0
C2306 C 0.23801 0.68326 0.17546 0.0
C2307 C 0.22052 0.7001 0.1756 0.0
C2308 C 0.24191 0.66981 0.15494 0.0
C2309 C 0.2283 0.673 0.13444 0.0
C2310 C 0.20897 0.6877 0.13577 0.0
C2311 C 0.20505 0.70098 0.1562 0.0
H2312 H 0.04386 0.50278 0.81138 0.0
H2313 H 0.11462 0.48734 0.8335 0.0
H2314 H 0.02971 0.49658 0.85155 0.0
H2315 H 0.10088 0.48234 0.8738 0.0
H2316 H 0.0677 0.45568 0.94034 0.0
H2317 H 0.07831 0.45738 0.89878 0.0
H2318 H 0.03151 0.51493 0.88945 0.0
H2319 H 0.02009 0.51241 0.93077 0.0
C2320 C 0.05635 0.498 0.82485 0.0
C2321 C 0.08027 0.49531 0.81933 0.0
C2322 C 0.04831 0.49465 0.84791 0.0
C2323 C 0.06412 0.48892 0.86597 0.0
C2324 C 0.08805 0.48617 0.86029 0.0
C2325 C 0.09599 0.48912 0.83718 0.0
C2326 C 0.05949 0.4685 0.92931 0.0
C2327 C 0.0431 0.48391 0.93879 0.0
C2328 C 0.0657 0.46962 0.90553 0.0
C2329 C 0.05597 0.48645 0.89076 0.0
C2330 C 0.03912 0.50151 0.90017 0.0
C2331 C 0.03263 0.50013 0.9239 0.0
H2332 H 0.25076 0.30016 0.54967 0.0
H2333 H 0.20495 0.35338 0.57661 0.0
H2334 H 0.25113 0.28208 0.58859 0.0
H2335 H 0.20528 0.33528 0.61529 0.0
H2336 H 0.25685 0.32517 0.68045 0.0
H2337 H 0.23999 0.3365 0.64278 0.0
H2338 H 0.22912 0.26229 0.62249 0.0
H2339 H 0.24588 0.25108 0.66059 0.0
C2340 C 0.24018 0.30754 0.56364 0.0
C2341 C 0.22821 0.32844 0.56016 0.0
C2342 C 0.24032 0.29714 0.58593 0.0
C2343 C 0.22847 0.30749 0.60506 0.0
C2344 C 0.21483 0.32714 0.60098 0.0
C2345 C 0.21467 0.33747 0.57878 0.0
C2346 C 0.24988 0.31135 0.66832 0.0
C2347 C 0.25232 0.28735 0.67332 0.0
C2348 C 0.24027 0.31777 0.64674 0.0
C2349 C 0.23339 0.30025 0.6296 0.0
C2350 C 0.2344 0.27612 0.63532 0.0
C2351 C 0.24373 0.26972 0.65713 0.0
H2352 H 0.377 0.47829 0.1647 0.0
H2353 H 0.42623 0.53219 0.19429 0.0
H2354 H 0.39658 0.48145 0.1267 0.0
H2355 H 0.44494 0.53687 0.15577 0.0
H2356 H 0.4947 0.50312 0.10082 0.0
H2357 H 0.47086 0.51564 0.13378 0.0
H2358 H 0.40724 0.50021 0.09201 0.0
H2359 H 0.43161 0.4865 0.0594 0.0
C2360 C 0.39173 0.49123 0.16283 0.0
C2361 C 0.40048 0.50462 0.18245 0.0
C2362 C 0.40282 0.49334 0.14093 0.0
C2363 C 0.42259 0.50935 0.13799 0.0
C2364 C 0.43023 0.5239 0.15741 0.0
C2365 C 0.41953 0.52127 0.17949 0.0
C2366 C 0.47567 0.50343 0.09843 0.0
C2367 C 0.46489 0.49394 0.07777 0.0
C2368 C 0.46186 0.51059 0.11737 0.0
C2369 C 0.43693 0.50836 0.11594 0.0
C2370 C 0.42633 0.50149 0.09406 0.0
C2371 C 0.44023 0.49406 0.07519 0.0
H2372 H 0.28597 0.66481 0.92257 0.0
H2373 H 0.22442 0.70412 0.93949 0.0
H2374 H 0.28742 0.68255 0.88359 0.0
H2375 H 0.22612 0.7222 0.90079 0.0
H2376 H 0.21876 0.72324 0.8193 0.0
H2377 H 0.21851 0.71043 0.86037 0.0
H2378 H 0.29506 0.7186 0.86248 0.0
H2379 H 0.29511 0.73012 0.821 0.0
C2380 C 0.27298 0.6775 0.9181 0.0
C2381 C 0.25511 0.68305 0.93411 0.0
C2382 C 0.27386 0.68779 0.8958 0.0
C2383 C 0.25684 0.70379 0.88902 0.0
C2384 C 0.23933 0.70975 0.90531 0.0
C2385 C 0.2385 0.69954 0.9276 0.0
C2386 C 0.23542 0.72274 0.82883 0.0
C2387 C 0.25695 0.72779 0.81732 0.0
C2388 C 0.23534 0.71543 0.8523 0.0
C2389 C 0.2568 0.7134 0.86473 0.0
C2390 C 0.27827 0.71952 0.85331 0.0
C2391 C 0.27833 0.72637 0.82972 0.0
H2392 H 0.06426 0.48188 0.69393 0.0
H2393 H 0.1282 0.5208 0.67201 0.0
H2394 H 0.04662 0.48782 0.65492 0.0
H2395 H 0.11016 0.52722 0.6334 0.0
H2396 H 0.03346 0.55748 0.59663 0.0
H2397 H 0.06044 0.55029 0.62973 0.0
H2398 H 0.06687 0.47809 0.60451 0.0
H2399 H 0.04098 0.48556 0.57091 0.0
C2400 C 0.0746 0.49138 0.68071 0.0
C2401 C 0.09756 0.50081 0.6859 0.0
C2402 C 0.06457 0.49475 0.65852 0.0
C2403 C 0.0772 0.50797 0.64152 0.0
C2404 C 0.10029 0.51691 0.64639 0.0
C2405 C 0.11055 0.51311 0.66837 0.0
C2406 C 0.04151 0.54048 0.59771 0.0
C2407 C 0.03563 0.52218 0.58125 0.0
C2408 C 0.05674 0.53634 0.61655 0.0
C2409 C 0.06546 0.51367 0.61938 0.0
C2410 C 0.06043 0.49573 0.60235 0.0
C2411 C 0.04585 0.50008 0.58317 0.0
H2412 H 0.20462 0.34338 0.42684 0.0
H2413 H 0.27902 0.33006 0.42223 0.0
H2414 H 0.19902 0.32969 0.38553 0.0
H2415 H 0.2736 0.31712 0.38109 0.0
H2416 H 0.26179 0.30631 0.30414 0.0
H2417 H 0.26086 0.33195 0.3396 0.0
H2418 H 0.20406 0.28671 0.36754 0.0
H2419 H 0.20515 0.26109 0.33228 0.0
C2420 C 0.2198 0.33791 0.41688 0.0
C2421 C 0.24219 0.33746 0.42776 0.0
C2422 C 0.21661 0.33016 0.39331 0.0
C2423 C 0.23592 0.32255 0.38009 0.0
C2424 C 0.25847 0.3232 0.39073 0.0
C2425 C 0.26151 0.33033 0.41436 0.0
C2426 C 0.24841 0.30252 0.31736 0.0
C2427 C 0.2335 0.28182 0.31548 0.0
C2428 C 0.24804 0.31702 0.33775 0.0
C2429 C 0.23249 0.31118 0.35636 0.0
C2430 C 0.21607 0.29174 0.35341 0.0
C2431 C 0.21673 0.27706 0.33326 0.0
H2432 H 0.30055 0.41908 0.54887 0.0
H2433 H 0.32403 0.39908 0.47924 0.0
H2434 H 0.34037 0.43452 0.55897 0.0
H2435 H 0.3636 0.41643 0.48836 0.0
H2436 H 0.43616 0.44122 0.50969 0.0
H2437 H 0.39972 0.41578 0.50784 0.0
H2438 H 0.36532 0.46634 0.55297 0.0
H2439 H 0.40174 0.49038 0.55597 0.0
C2440 C 0.31422 0.41854 0.53553 0.0
C2441 C 0.30921 0.40832 0.51317 0.0
C2442 C 0.33713 0.4274 0.54128 0.0
C2443 C 0.35545 0.42704 0.52448 0.0
C2444 C 0.35027 0.41668 0.50202 0.0
C2445 C 0.32748 0.40709 0.49657 0.0
C2446 C 0.42103 0.44626 0.51996 0.0
C2447 C 0.42166 0.46799 0.53264 0.0
C2448 C 0.39995 0.43195 0.51855 0.0
C2449 C 0.37913 0.43923 0.52964 0.0
C2450 C 0.38072 0.45984 0.54416 0.0
C2451 C 0.40173 0.47385 0.54582 0.0
H2452 H 0.80379 0.05293 0.46318 0.0
H2453 H 0.81713 0.09346 0.52775 0.0
H2454 H 0.84402 0.03815 0.46524 0.0
H2455 H 0.85701 0.07876 0.53004 0.0
H2456 H 0.93426 0.07492 0.50626 0.0
H2457 H 0.89326 0.08589 0.50566 0.0
H2458 H 0.87021 0.01264 0.49122 0.0
H2459 H 0.9117 0.00148 0.49192 0.0
C2460 C 0.81537 0.05854 0.47779 0.0
C2461 C 0.80775 0.07443 0.49518 0.0
C2462 C 0.83821 0.05 0.47911 0.0
C2463 C 0.85366 0.0574 0.49776 0.0
C2464 C 0.84563 0.07298 0.51533 0.0
C2465 C 0.82288 0.08138 0.51404 0.0
C2466 C 0.92051 0.06108 0.50298 0.0
C2467 C 0.92623 0.03734 0.49901 0.0
C2468 C 0.89698 0.06737 0.50279 0.0
C2469 C 0.87853 0.05013 0.49838 0.0
C2470 C 0.88413 0.02631 0.4945 0.0
C2471 C 0.9078 0.01991 0.49505 0.0
H2472 H 0.68935 0.06336 0.25293 0.0
H2473 H 0.61756 0.08525 0.26176 0.0
H2474 H 0.70131 0.10296 0.23954 0.0
H2475 H 0.62984 0.12506 0.24835 0.0
H2476 H 0.68615 0.19572 0.25172 0.0
H2477 H 0.66176 0.16049 0.26161 0.0
H2478 H 0.68755 0.12389 0.19997 0.0
H2479 H 0.7116 0.1594 0.18969 0.0
C2480 C 0.67623 0.0767 0.25249 0.0
C2481 C 0.65244 0.07105 0.25797 0.0
C2482 C 0.683 0.09923 0.24449 0.0
C2483 C 0.66618 0.11652 0.24209 0.0
C2484 C 0.6429 0.11171 0.24961 0.0
C2485 C 0.63602 0.08904 0.25745 0.0
C2486 C 0.6854 0.1808 0.23939 0.0
C2487 C 0.70098 0.18015 0.22013 0.0
C2488 C 0.67166 0.16051 0.24526 0.0
C2489 C 0.67353 0.13949 0.23191 0.0
C2490 C 0.68633 0.13992 0.21073 0.0
C2491 C 0.69993 0.16023 0.20479 0.0
H2492 H 0.69407 0.96124 0.0077 0.0
H2493 H 0.66534 0.88871 0.00544 0.0
H2494 H 0.65414 0.97545 0.01045 0.0
H2495 H 0.62547 0.90254 0.01014 0.0
H2496 H 0.56218 0.93923 0.97645 0.0
H2497 H 0.59763 0.91975 0.98742 0.0
H2498 H 0.6195 0.98047 0.03201 0.0
H2499 H 0.58402 0.0003 0.01985 0.0
C2500 C 0.6791 0.94839 0.00795 0.0
C2501 C 0.68254 0.924 0.00572 0.0
C2502 C 0.65623 0.95644 0.01003 0.0
C2503 C 0.6364 0.94017 0.01068 0.0
C2504 C 0.64015 0.91565 0.00923 0.0
C2505 C 0.66295 0.90768 0.0064 0.0
C2506 C 0.57403 0.94784 0.98951 0.0
C2507 C 0.57063 0.97117 -0.00276 0.0
C2508 C 0.59452 0.93674 -0.0042 0.0
C2509 C 0.61197 0.94885 0.01 0.0
C2510 C 0.60683 0.97097 0.02037 0.0
C2511 C 0.5863 0.98215 0.01387 0.0
H2512 H 0.30519 0.43786 0.26205 0.0
H2513 H 0.37604 0.41486 0.27367 0.0
H2514 H 0.28962 0.39697 0.2642 0.0
H2515 H 0.36032 0.37383 0.27642 0.0
H2516 H 0.32625 0.31325 0.22551 0.0
H2517 H 0.34553 0.34817 0.2446 0.0
H2518 H 0.28158 0.35968 0.28395 0.0
H2519 H 0.26221 0.32473 0.2641 0.0
C2520 C 0.31739 0.42415 0.26567 0.0
C2521 C 0.34191 0.42957 0.2671 0.0
C2522 C 0.30842 0.40065 0.26721 0.0
C2523 C 0.32376 0.38203 0.27029 0.0
C2524 C 0.34808 0.38772 0.27371 0.0
C2525 C 0.35707 0.41124 0.2721 0.0
C2526 C 0.31679 0.32259 0.23915 0.0
C2527 C 0.2929 0.31647 0.2435 0.0
C2528 C 0.3278 0.34264 0.25014 0.0
C2529 C 0.31493 0.35705 0.26546 0.0
C2530 C 0.29183 0.34916 0.27192 0.0
C2531 C 0.28083 0.329 0.26088 0.0
H2532 H 0.16836 0.62979 0.9826 0.0
H2533 H 0.19322 0.56106 0.00095 0.0
H2534 H 0.12843 0.61704 -0.00497 0.0
H2535 H 0.15337 0.54844 0.01309 0.0
H2536 H 0.09232 0.53902 0.05815 0.0
H2537 H 0.12861 0.56167 0.04789 0.0
H2538 H 0.09475 0.58611 0.98488 0.0
H2539 H 0.05827 0.56367 -0.00471 0.0
C2540 C 0.16523 0.61181 0.98879 0.0
C2541 C 0.18403 0.5965 0.99106 0.0
C2542 C 0.14241 0.60464 -0.00397 0.0
C2543 C 0.13811 0.58212 0.00572 0.0
C2544 C 0.15648 0.56624 0.00639 0.0
C2545 C 0.17921 0.57332 -0.00092 0.0
C2546 C 0.09231 0.55007 0.04267 0.0
C2547 C 0.07277 0.54917 0.0272 0.0
C2548 C 0.11312 0.56277 0.03665 0.0
C2549 C 0.11463 0.57473 0.01512 0.0
C2550 C 0.09407 0.57671 0.00142 0.0
C2551 C 0.07313 0.56403 0.0075 0.0
H2552 H 0.64249 0.92338 0.27136 0.0
H2553 H 0.70809 0.94824 0.23895 0.0
H2554 H 0.65655 0.88331 0.27225 0.0
H2555 H 0.72203 0.90789 0.23946 0.0
H2556 H 0.74468 0.83326 0.26319 0.0
H2557 H 0.73409 0.87508 0.26454 0.0
H2558 H 0.66282 0.85339 0.24204 0.0
H2559 H 0.67313 0.81205 0.24157 0.0
C2560 C 0.66004 0.92035 0.2647 0.0
C2561 C 0.67412 0.93891 0.25497 0.0
C2562 C 0.66802 0.89734 0.265 0.0
C2563 C 0.69026 0.89238 0.25559 0.0
C2564 C 0.70484 0.91116 0.24687 0.0
C2565 C 0.6968 0.93423 0.24649 0.0
C2566 C 0.72682 0.83761 0.25851 0.0
C2567 C 0.70957 0.81954 0.25276 0.0
C2568 C 0.72076 0.86145 0.25923 0.0
C2569 C 0.69747 0.86745 0.25389 0.0
C2570 C 0.68067 0.84931 0.24704 0.0
C2571 C 0.6866 0.82565 0.24667 0.0
H2572 H 0.84306 0.0799 0.7735 0.0
H2573 H 0.80975 0.06503 0.70556 0.0
H2574 H 0.8312 0.1207 0.7721 0.0
H2575 H 0.79896 0.10625 0.70338 0.0
H2576 H 0.75163 0.16619 0.73221 0.0
H2577 H 0.77157 0.13077 0.72023 0.0
H2578 H 0.83541 0.15845 0.75602 0.0
H2579 H 0.81454 0.1931 0.76929 0.0
C2580 C 0.83339 0.08547 0.75816 0.0
C2581 C 0.82693 0.06921 0.7399 0.0
C2582 C 0.82691 0.10902 0.75709 0.0
C2583 C 0.81421 0.11699 0.73749 0.0
C2584 C 0.80841 0.10076 0.71888 0.0
C2585 C 0.81452 0.07709 0.72017 0.0
C2586 C 0.77027 0.16514 0.73648 0.0
C2587 C 0.78161 0.18207 0.75173 0.0
C2588 C 0.78177 0.14475 0.72973 0.0
C2589 C 0.80488 0.14125 0.73798 0.0
C2590 C 0.81729 0.16011 0.7502 0.0
C2591 C 0.80558 0.18021 0.75739 0.0
loop_
_geom_bond_atom_site_label_1
_geom_bond_atom_site_label_2
_geom_bond_distance
_geom_bond_site_symmetry_2
_ccdc_geom_bond_type
O0 Cd1 2.223 . S
O0 C8 1.315 . S
Cd1 O0 2.223 . S
Cd1 O4 2.297 1_455 S
Cd1 O5 2.439 1_455 S
Cd1 O11 2.240 . S
Cd2 O3 2.240 . S
Cd2 O10 2.223 . S
Cd2 O12 2.297 . S
Cd2 O13 2.439 . S
O3 Cd2 2.240 . S
O3 C8 1.279 . S
O4 Cd1 2.297 1_655 S
O4 C6 1.247 . S
O5 Cd1 2.439 1_655 S
O5 C6 1.208 . S
C6 O4 1.247 . S
C6 O5 1.208 . S
C7 O12 1.247 . S
C7 O13 1.208 . S
C8 O0 1.315 . S
C8 O3 1.279 . S
C9 O10 1.315 . S
C9 O11 1.279 . S
O10 Cd2 2.223 . S
O10 C9 1.315 . S
O11 Cd1 2.240 . S
O11 C9 1.279 . S
O12 Cd2 2.297 . S
O12 C7 1.247 . S
O13 Cd2 2.439 . S
O13 C7 1.208 . S
O14 Cd15 2.223 . S
O14 C22 1.315 . S
Cd15 O14 2.223 . S
Cd15 O18 2.297 . S
Cd15 O19 2.439 1_455 S
Cd15 O25 2.240 1_455 S
Cd16 O17 2.240 1_655 S
Cd16 O24 2.223 1_655 S
Cd16 O26 2.297 . S
Cd16 O27 2.439 . S
O17 Cd16 2.240 1_455 S
O17 C22 1.279 . S
O18 Cd15 2.297 . S
O18 C20 1.247 . S
O19 Cd15 2.439 1_655 S
O19 C20 1.208 1_655 S
C20 O18 1.247 . S
C20 O19 1.208 1_455 S
C21 O26 1.247 . S
C21 O27 1.208 . S
C22 O14 1.315 . S
C22 O17 1.279 . S
C23 O24 1.315 . S
C23 O25 1.279 1_455 S
O24 Cd16 2.223 1_455 S
O24 C23 1.315 . S
O25 Cd15 2.240 1_655 S
O25 C23 1.279 1_655 S
O26 Cd16 2.297 . S
O26 C21 1.247 . S
O27 Cd16 2.439 . S
O27 C21 1.208 . S
O28 Cd29 2.223 . S
O28 C36 1.315 . S
Cd29 O28 2.223 . S
Cd29 O32 2.297 . S
Cd29 O33 2.439 . S
Cd29 O39 2.240 . S
Cd30 O31 2.240 . S
Cd30 O38 2.223 . S
Cd30 O40 2.297 . S
Cd30 O41 2.439 . S
O31 Cd30 2.240 . S
O31 C36 1.279 . S
O32 Cd29 2.297 . S
O32 C34 1.247 . S
O33 Cd29 2.439 . S
O33 C34 1.208 . S
C34 O32 1.247 . S
C34 O33 1.208 . S
C35 O40 1.247 . S
C35 O41 1.208 . S
C36 O28 1.315 . S
C36 O31 1.279 . S
C37 O38 1.315 . S
C37 O39 1.279 . S
O38 Cd30 2.223 . S
O38 C37 1.315 . S
O39 Cd29 2.240 . S
O39 C37 1.279 . S
O40 Cd30 2.297 . S
O40 C35 1.247 . S
O41 Cd30 2.439 . S
O41 C35 1.208 . S
O42 Cd43 2.223 . S
O42 C50 1.315 . S
Cd43 O42 2.223 . S
Cd43 O46 2.297 . S
Cd43 O47 2.439 . S
Cd43 O53 2.240 . S
Cd44 O45 2.240 . S
Cd44 O52 2.223 . S
Cd44 O54 2.297 . S
Cd44 O55 2.439 . S
O45 Cd44 2.240 . S
O45 C50 1.279 . S
O46 Cd43 2.297 . S
O46 C48 1.247 . S
O47 Cd43 2.439 . S
O47 C48 1.208 . S
C48 O46 1.247 . S
C48 O47 1.208 . S
C49 O54 1.247 . S
C49 O55 1.208 . S
C50 O42 1.315 . S
C50 O45 1.279 . S
C51 O52 1.315 . S
C51 O53 1.279 . S
O52 Cd44 2.223 . S
O52 C51 1.315 . S
O53 Cd43 2.240 . S
O53 C51 1.279 . S
O54 Cd44 2.297 . S
O54 C49 1.247 . S
O55 Cd44 2.439 . S
O55 C49 1.208 . S
O56 Cd57 2.223 1_545 S
O56 C64 1.318 . S
Cd57 O56 2.223 1_565 S
Cd57 O60 2.297 . S
Cd57 O61 2.439 . S
Cd57 O67 2.240 1_565 S
Cd58 O59 2.240 1_545 S
Cd58 O66 2.223 . S
Cd58 O68 2.297 . S
Cd58 O69 2.439 1_545 S
O59 Cd58 2.240 1_565 S
O59 C64 1.264 1_565 S
O60 Cd57 2.297 . S
O60 C62 1.247 . S
O61 Cd57 2.439 . S
O61 C62 1.208 . S
C62 O60 1.247 . S
C62 O61 1.208 . S
C63 O68 1.247 . S
C63 O69 1.208 1_545 S
C64 O56 1.318 . S
C64 O59 1.264 1_545 S
C65 O66 1.315 . S
C65 O67 1.279 . S
O66 Cd58 2.223 . S
O66 C65 1.315 . S
O67 Cd57 2.240 1_545 S
O67 C65 1.279 . S
O68 Cd58 2.297 . S
O68 C63 1.247 . S
O69 Cd58 2.439 1_565 S
O69 C63 1.208 1_565 S
O70 Cd71 2.223 . S
O70 C78 1.315 . S
Cd71 O70 2.223 . S
Cd71 O74 2.297 . S
Cd71 O75 2.439 . S
Cd71 O81 2.240 . S
Cd72 O73 2.240 . S
Cd72 O80 2.223 . S
Cd72 O82 2.297 . S
Cd72 O83 2.439 . S
O73 Cd72 2.240 . S
O73 C78 1.279 . S
O74 Cd71 2.297 . S
O74 C76 1.247 . S
O75 Cd71 2.439 . S
O75 C76 1.208 . S
C76 O74 1.247 . S
C76 O75 1.208 . S
C77 O82 1.247 . S
C77 O83 1.208 . S
C78 O70 1.315 . S
C78 O73 1.279 . S
C79 O80 1.315 . S
C79 O81 1.279 . S
O80 Cd72 2.223 . S
O80 C79 1.315 . S
O81 Cd71 2.240 . S
O81 C79 1.279 . S
O82 Cd72 2.297 . S
O82 C77 1.247 . S
O83 Cd72 2.439 . S
O83 C77 1.208 . S
O84 Cd85 2.223 . S
O84 C92 1.315 . S
Cd85 O84 2.223 . S
Cd85 O88 2.297 . S
Cd85 O89 2.439 . S
Cd85 O95 2.240 1_545 S
Cd86 O87 2.240 . S
Cd86 O94 2.223 1_545 S
Cd86 O96 2.297 1_545 S
Cd86 O97 2.439 . S
O87 Cd86 2.240 . S
O87 C92 1.279 . S
O88 Cd85 2.297 . S
O88 C90 1.247 . S
O89 Cd85 2.439 . S
O89 C90 1.208 . S
C90 O88 1.247 . S
C90 O89 1.208 . S
C91 O96 1.247 1_545 S
C91 O97 1.208 . S
C92 O84 1.315 . S
C92 O87 1.279 . S
C93 O94 1.315 . S
C93 O95 1.279 . S
O94 Cd86 2.223 1_565 S
O94 C93 1.315 . S
O95 Cd85 2.240 1_565 S
O95 C93 1.279 . S
O96 Cd86 2.297 1_565 S
O96 C91 1.247 1_565 S
O97 Cd86 2.439 . S
O97 C91 1.208 . S
O98 Cd99 2.223 . S
O98 C106 1.315 . S
Cd99 O98 2.223 . S
Cd99 O102 2.297 . S
Cd99 O103 2.439 1_554 S
Cd99 O109 2.240 1_554 S
Cd100 O101 2.240 1_556 S
Cd100 O108 2.223 1_556 S
Cd100 O110 2.297 . S
Cd100 O111 2.439 . S
O101 Cd100 2.240 1_554 S
O101 C106 1.279 . S
O102 Cd99 2.297 . S
O102 C104 1.247 . S
O103 Cd99 2.439 1_556 S
O103 C104 1.208 1_556 S
C104 O102 1.247 . S
C104 O103 1.208 1_554 S
C105 O110 1.247 . S
C105 O111 1.208 . S
C106 O98 1.315 . S
C106 O101 1.279 . S
C107 O108 1.315 . S
C107 O109 1.279 1_554 S
O108 Cd100 2.223 1_554 S
O108 C107 1.315 . S
O109 Cd99 2.240 1_556 S
O109 C107 1.279 1_556 S
O110 Cd100 2.297 . S
O110 C105 1.247 . S
O111 Cd100 2.439 . S
O111 C105 1.208 . S
O112 Cd113 2.223 . S
O112 C120 1.315 . S
Cd113 O112 2.223 . S
Cd113 O116 2.297 . S
Cd113 O117 2.439 . S
Cd113 O123 2.240 . S
Cd114 O115 2.213 1_556 S
Cd114 O122 2.214 1_556 S
Cd114 O124 2.329 . S
Cd114 O125 2.467 . S
O115 Cd114 2.213 1_554 S
O115 C120 1.279 . S
O116 Cd113 2.297 . S
O116 C118 1.247 . S
O117 Cd113 2.439 . S
O117 C118 1.208 . S
C118 O116 1.247 . S
C118 O117 1.208 . S
C119 O124 1.247 . S
C119 O125 1.208 . S
C120 O112 1.315 . S
C120 O115 1.279 . S
C121 O122 1.315 . S
C121 O123 1.279 . S
O122 Cd114 2.214 1_554 S
O122 C121 1.315 . S
O123 Cd113 2.240 . S
O123 C121 1.279 . S
O124 Cd114 2.329 . S
O124 C119 1.247 . S
O125 Cd114 2.467 . S
O125 C119 1.208 . S
O126 Cd127 2.223 . S
O126 C134 1.315 . S
Cd127 O126 2.223 . S
Cd127 O130 2.297 . S
Cd127 O131 2.439 . S
Cd127 O137 2.240 . S
Cd128 O129 2.240 . S
Cd128 O136 2.223 . S
Cd128 O138 2.297 . S
Cd128 O139 2.439 . S
O129 Cd128 2.240 . S
O129 C134 1.279 . S
O130 Cd127 2.297 . S
O130 C132 1.247 . S
O131 Cd127 2.439 . S
O131 C132 1.208 . S
C132 O130 1.247 . S
C132 O131 1.208 . S
C133 O138 1.247 . S
C133 O139 1.208 . S
C134 O126 1.315 . S
C134 O129 1.279 . S
C135 O136 1.315 . S
C135 O137 1.279 . S
O136 Cd128 2.223 . S
O136 C135 1.315 . S
O137 Cd127 2.240 . S
O137 C135 1.279 . S
O138 Cd128 2.297 . S
O138 C133 1.247 . S
O139 Cd128 2.439 . S
O139 C133 1.208 . S
O140 Cd141 2.223 . S
O140 C148 1.315 . S
Cd141 O140 2.223 . S
Cd141 O144 2.297 . S
Cd141 O145 2.439 . S
Cd141 O151 2.240 . S
Cd142 O143 2.240 . S
Cd142 O150 2.223 . S
Cd142 O152 2.297 . S
Cd142 O153 2.439 . S
O143 Cd142 2.240 . S
O143 C148 1.279 . S
O144 Cd141 2.297 . S
O144 C146 1.247 . S
O145 Cd141 2.439 . S
O145 C146 1.208 . S
C146 O144 1.247 . S
C146 O145 1.208 . S
C147 O152 1.247 . S
C147 O153 1.208 . S
C148 O140 1.315 . S
C148 O143 1.279 . S
C149 O150 1.315 . S
C149 O151 1.279 . S
O150 Cd142 2.223 . S
O150 C149 1.315 . S
O151 Cd141 2.240 . S
O151 C149 1.279 . S
O152 Cd142 2.297 . S
O152 C147 1.247 . S
O153 Cd142 2.439 . S
O153 C147 1.208 . S
O154 Cd155 2.223 . S
O154 C162 1.315 . S
Cd155 O154 2.223 . S
Cd155 O158 2.297 . S
Cd155 O159 2.439 . S
Cd155 O165 2.240 . S
Cd156 O157 2.240 . S
Cd156 O164 2.223 . S
Cd156 O166 2.297 . S
Cd156 O167 2.439 . S
O157 Cd156 2.240 . S
O157 C162 1.279 . S
O158 Cd155 2.297 . S
O158 C160 1.247 . S
O159 Cd155 2.439 . S
O159 C160 1.208 . S
C160 O158 1.247 . S
C160 O159 1.208 . S
C161 O166 1.247 . S
C161 O167 1.208 . S
C162 O154 1.315 . S
C162 O157 1.279 . S
C163 O164 1.315 . S
C163 O165 1.279 . S
O164 Cd156 2.223 . S
O164 C163 1.315 . S
O165 Cd155 2.240 . S
O165 C163 1.279 . S
O166 Cd156 2.297 . S
O166 C161 1.247 . S
O167 Cd156 2.439 . S
O167 C161 1.208 . S
O168 Cd169 2.223 . S
O168 C176 1.315 . S
Cd169 O168 2.223 . S
Cd169 O172 2.297 . S
Cd169 O173 2.427 1_455 S
Cd169 O179 2.233 1_455 S
Cd170 O171 2.240 1_655 S
Cd170 O178 2.223 1_655 S
Cd170 O180 2.297 . S
Cd170 O181 2.439 . S
O171 Cd170 2.240 1_455 S
O171 C176 1.279 . S
O172 Cd169 2.297 . S
O172 C174 1.247 . S
O173 Cd169 2.427 1_655 S
O173 C174 1.188 1_655 S
C174 O172 1.247 . S
C174 O173 1.188 1_455 S
C175 O180 1.247 . S
C175 O181 1.208 . S
C176 O168 1.315 . S
C176 O171 1.279 . S
C177 O178 1.315 . S
C177 O179 1.275 1_455 S
O178 Cd170 2.223 1_455 S
O178 C177 1.315 . S
O179 Cd169 2.233 1_655 S
O179 C177 1.275 1_655 S
O180 Cd170 2.297 . S
O180 C175 1.247 . S
O181 Cd170 2.439 . S
O181 C175 1.208 . S
O182 Cd183 2.223 1_455 S
O182 C190 1.320 . S
Cd183 O182 2.223 1_655 S
Cd183 O186 2.297 . S
Cd183 O187 2.439 . S
Cd183 O193 2.240 1_655 S
Cd184 O185 2.240 1_455 S
Cd184 O192 2.223 . S
Cd184 O194 2.297 . S
Cd184 O195 2.439 1_455 S
O185 Cd184 2.240 1_655 S
O185 C190 1.264 1_655 S
O186 Cd183 2.297 . S
O186 C188 1.247 . S
O187 Cd183 2.439 . S
O187 C188 1.208 . S
C188 O186 1.247 . S
C188 O187 1.208 . S
C189 O194 1.247 . S
C189 O195 1.208 1_455 S
C190 O182 1.320 . S
C190 O185 1.264 1_455 S
C191 O192 1.315 . S
C191 O193 1.279 . S
O192 Cd184 2.223 . S
O192 C191 1.315 . S
O193 Cd183 2.240 1_455 S
O193 C191 1.279 . S
O194 Cd184 2.297 . S
O194 C189 1.247 . S
O195 Cd184 2.439 1_655 S
O195 C189 1.208 1_655 S
O196 Cd197 2.223 . S
O196 C204 1.315 . S
Cd197 O196 2.223 . S
Cd197 O200 2.297 . S
Cd197 O201 2.439 . S
Cd197 O207 2.240 . S
Cd198 O199 2.240 . S
Cd198 O206 2.223 . S
Cd198 O208 2.297 . S
Cd198 O209 2.439 . S
O199 Cd198 2.240 . S
O199 C204 1.279 . S
O200 Cd197 2.297 . S
O200 C202 1.247 . S
O201 Cd197 2.439 . S
O201 C202 1.208 . S
C202 O200 1.247 . S
C202 O201 1.208 . S
C203 O208 1.247 . S
C203 O209 1.208 . S
C204 O196 1.315 . S
C204 O199 1.279 . S
C205 O206 1.315 . S
C205 O207 1.279 . S
O206 Cd198 2.223 . S
O206 C205 1.315 . S
O207 Cd197 2.240 . S
O207 C205 1.279 . S
O208 Cd198 2.297 . S
O208 C203 1.247 . S
O209 Cd198 2.439 . S
O209 C203 1.208 . S
O210 Cd211 2.223 . S
O210 C218 1.315 . S
Cd211 O210 2.223 . S
Cd211 O214 2.297 . S
Cd211 O215 2.439 . S
Cd211 O221 2.240 . S
Cd212 O213 2.240 . S
Cd212 O220 2.223 . S
Cd212 O222 2.297 . S
Cd212 O223 2.439 . S
O213 Cd212 2.240 . S
O213 C218 1.279 . S
O214 Cd211 2.297 . S
O214 C216 1.247 . S
O215 Cd211 2.439 . S
O215 C216 1.208 . S
C216 O214 1.247 . S
C216 O215 1.208 . S
C217 O222 1.247 . S
C217 O223 1.208 . S
C218 O210 1.315 . S
C218 O213 1.279 . S
C219 O220 1.315 . S
C219 O221 1.279 . S
O220 Cd212 2.223 . S
O220 C219 1.315 . S
O221 Cd211 2.240 . S
O221 C219 1.279 . S
O222 Cd212 2.297 . S
O222 C217 1.247 . S
O223 Cd212 2.439 . S
O223 C217 1.208 . S
O224 Cd225 2.228 . S
O224 C232 1.316 . S
Cd225 O224 2.228 . S
Cd225 O228 2.297 . S
Cd225 O229 2.439 . S
Cd225 O235 2.240 1_545 S
Cd226 O227 2.240 1_565 S
Cd226 O234 2.223 . S
Cd226 O236 2.297 . S
Cd226 O237 2.439 1_565 S
O227 Cd226 2.240 1_545 S
O227 C232 1.279 . S
O228 Cd225 2.297 . S
O228 C230 1.247 . S
O229 Cd225 2.439 . S
O229 C230 1.208 . S
C230 O228 1.247 . S
C230 O229 1.208 . S
C231 O236 1.247 . S
C231 O237 1.208 1_565 S
C232 O224 1.316 . S
C232 O227 1.279 . S
C233 O234 1.315 . S
C233 O235 1.279 . S
O234 Cd226 2.223 . S
O234 C233 1.315 . S
O235 Cd225 2.240 1_565 S
O235 C233 1.279 . S
O236 Cd226 2.297 . S
O236 C231 1.247 . S
O237 Cd226 2.439 1_545 S
O237 C231 1.208 1_545 S
O238 Cd239 2.223 . S
O238 C246 1.315 . S
Cd239 O238 2.223 . S
Cd239 O242 2.297 . S
Cd239 O243 2.439 . S
Cd239 O249 2.240 . S
Cd240 O241 2.240 . S
Cd240 O248 2.223 . S
Cd240 O250 2.297 . S
Cd240 O251 2.439 . S
O241 Cd240 2.240 . S
O241 C246 1.279 . S
O242 Cd239 2.297 . S
O242 C244 1.247 . S
O243 Cd239 2.439 . S
O243 C244 1.208 . S
C244 O242 1.247 . S
C244 O243 1.208 . S
C245 O250 1.247 . S
C245 O251 1.208 . S
C246 O238 1.315 . S
C246 O241 1.279 . S
C247 O248 1.315 . S
C247 O249 1.279 . S
O248 Cd240 2.223 . S
O248 C247 1.315 . S
O249 Cd239 2.240 . S
O249 C247 1.279 . S
O250 Cd240 2.297 . S
O250 C245 1.247 . S
O251 Cd240 2.439 . S
O251 C245 1.208 . S
O252 Cd253 2.223 . S
O252 C260 1.315 . S
Cd253 O252 2.223 . S
Cd253 O256 2.297 1_545 S
Cd253 O257 2.439 1_545 S
Cd253 O263 2.240 . S
Cd254 O255 2.240 . S
Cd254 O262 2.223 . S
Cd254 O264 2.297 . S
Cd254 O265 2.439 . S
O255 Cd254 2.240 . S
O255 C260 1.279 . S
O256 Cd253 2.297 1_565 S
O256 C258 1.247 . S
O257 Cd253 2.439 1_565 S
O257 C258 1.208 . S
C258 O256 1.247 . S
C258 O257 1.208 . S
C259 O264 1.247 . S
C259 O265 1.208 . S
C260 O252 1.315 . S
C260 O255 1.279 . S
C261 O262 1.315 . S
C261 O263 1.279 . S
O262 Cd254 2.223 . S
O262 C261 1.315 . S
O263 Cd253 2.240 . S
O263 C261 1.279 . S
O264 Cd254 2.297 . S
O264 C259 1.247 . S
O265 Cd254 2.439 . S
O265 C259 1.208 . S
O266 Cd267 2.223 . S
O266 C274 1.315 . S
Cd267 O266 2.223 . S
Cd267 O270 2.297 . S
Cd267 O271 2.439 1_554 S
Cd267 O277 2.240 1_554 S
Cd268 O269 2.240 1_556 S
Cd268 O276 2.223 1_556 S
Cd268 O278 2.297 . S
Cd268 O279 2.439 . S
O269 Cd268 2.240 1_554 S
O269 C274 1.279 . S
O270 Cd267 2.297 . S
O270 C272 1.247 . S
O271 Cd267 2.439 1_556 S
O271 C272 1.208 1_556 S
C272 O270 1.247 . S
C272 O271 1.208 1_554 S
C273 O278 1.247 . S
C273 O279 1.208 . S
C274 O266 1.315 . S
C274 O269 1.279 . S
C275 O276 1.315 . S
C275 O277 1.279 1_554 S
O276 Cd268 2.223 1_554 S
O276 C275 1.315 . S
O277 Cd267 2.240 1_556 S
O277 C275 1.279 1_556 S
O278 Cd268 2.297 . S
O278 C273 1.247 . S
O279 Cd268 2.439 . S
O279 C273 1.208 . S
O280 Cd281 2.223 . S
O280 C288 1.315 . S
Cd281 O280 2.223 . S
Cd281 O284 2.297 . S
Cd281 O285 2.439 1_554 S
Cd281 O291 2.240 1_554 S
Cd282 O283 2.240 1_556 S
Cd282 O290 2.223 1_556 S
Cd282 O292 2.297 . S
Cd282 O293 2.439 . S
O283 Cd282 2.240 1_554 S
O283 C288 1.279 . S
O284 Cd281 2.297 . S
O284 C286 1.247 . S
O285 Cd281 2.439 1_556 S
O285 C286 1.208 1_556 S
C286 O284 1.247 . S
C286 O285 1.208 1_554 S
C287 O292 1.247 . S
C287 O293 1.208 . S
C288 O280 1.315 . S
C288 O283 1.279 . S
C289 O290 1.315 . S
C289 O291 1.279 1_554 S
O290 Cd282 2.223 1_554 S
O290 C289 1.315 . S
O291 Cd281 2.240 1_556 S
O291 C289 1.279 1_556 S
O292 Cd282 2.297 . S
O292 C287 1.247 . S
O293 Cd282 2.439 . S
O293 C287 1.208 . S
O294 Cd295 2.223 . S
O294 C302 1.315 . S
Cd295 O294 2.223 . S
Cd295 O298 2.297 . S
Cd295 O299 2.439 . S
Cd295 O305 2.240 . S
Cd296 O297 2.240 . S
Cd296 O304 2.223 . S
Cd296 O306 2.297 . S
Cd296 O307 2.439 . S
O297 Cd296 2.240 . S
O297 C302 1.279 . S
O298 Cd295 2.297 . S
O298 C300 1.247 . S
O299 Cd295 2.439 . S
O299 C300 1.208 . S
C300 O298 1.247 . S
C300 O299 1.208 . S
C301 O306 1.247 . S
C301 O307 1.208 . S
C302 O294 1.315 . S
C302 O297 1.279 . S
C303 O304 1.315 . S
C303 O305 1.279 . S
O304 Cd296 2.223 . S
O304 C303 1.315 . S
O305 Cd295 2.240 . S
O305 C303 1.279 . S
O306 Cd296 2.297 . S
O306 C301 1.247 . S
O307 Cd296 2.439 . S
O307 C301 1.208 . S
O308 Cd309 2.223 . S
O308 C316 1.315 . S
Cd309 O308 2.223 . S
Cd309 O312 2.297 . S
Cd309 O313 2.439 . S
Cd309 O319 2.240 . S
Cd310 O311 2.240 . S
Cd310 O318 2.223 . S
Cd310 O320 2.297 . S
Cd310 O321 2.439 . S
O311 Cd310 2.240 . S
O311 C316 1.279 . S
O312 Cd309 2.297 . S
O312 C314 1.247 . S
O313 Cd309 2.439 . S
O313 C314 1.208 . S
C314 O312 1.247 . S
C314 O313 1.208 . S
C315 O320 1.247 . S
C315 O321 1.208 . S
C316 O308 1.315 . S
C316 O311 1.279 . S
C317 O318 1.315 . S
C317 O319 1.279 . S
O318 Cd310 2.223 . S
O318 C317 1.315 . S
O319 Cd309 2.240 . S
O319 C317 1.279 . S
O320 Cd310 2.297 . S
O320 C315 1.247 . S
O321 Cd310 2.439 . S
O321 C315 1.208 . S
O322 Cd323 2.223 . S
O322 C330 1.315 . S
Cd323 O322 2.223 . S
Cd323 O326 2.297 . S
Cd323 O327 2.439 . S
Cd323 O333 2.240 . S
Cd324 O325 2.240 . S
Cd324 O332 2.223 . S
Cd324 O334 2.297 . S
Cd324 O335 2.439 . S
O325 Cd324 2.240 . S
O325 C330 1.279 . S
O326 Cd323 2.297 . S
O326 C328 1.247 . S
O327 Cd323 2.439 . S
O327 C328 1.208 . S
C328 O326 1.247 . S
C328 O327 1.208 . S
C329 O334 1.247 . S
C329 O335 1.208 . S
C330 O322 1.315 . S
C330 O325 1.279 . S
C331 O332 1.315 . S
C331 O333 1.279 . S
O332 Cd324 2.223 . S
O332 C331 1.315 . S
O333 Cd323 2.240 . S
O333 C331 1.279 . S
O334 Cd324 2.297 . S
O334 C329 1.247 . S
O335 Cd324 2.439 . S
O335 C329 1.208 . S
O336 Mg337 1.990 1_556 S
O336 C350 1.253 . S
Mg337 O336 1.990 1_554 S
Mg337 O340 2.180 . S
Mg337 O341 2.117 . S
Mg337 O355 2.030 . S
O338 Mg339 2.070 1_546 S
O338 C350 1.288 1_455 S
Mg339 O338 2.070 1_564 S
Mg339 O340 2.101 1_465 S
Mg339 O342 2.078 . S
Mg339 O343 2.074 1_565 S
Mg339 O345 2.096 . S
Mg339 O356 2.078 1_455 S
O340 Mg337 2.180 . S
O340 Mg339 2.101 1_645 S
O340 C351 1.280 . S
O341 Mg337 2.117 . S
O341 C351 1.259 . S
O342 Mg339 2.078 . S
O342 C352 1.264 . S
O343 Mg339 2.074 1_545 S
O343 C353 1.260 . S
Mg344 O345 2.180 . S
Mg344 O346 2.030 . S
Mg344 O347 1.990 . S
Mg344 O348 2.117 1_554 S
O345 Mg339 2.096 . S
O345 Mg344 2.180 . S
O345 C354 1.279 1_554 S
O346 Mg344 2.030 . S
O346 C352 1.248 . S
O347 Mg344 1.990 . S
O347 C353 1.253 1_565 S
O348 Mg344 2.117 1_556 S
O348 C354 1.250 . S
C349 O355 1.248 1_565 S
C349 O356 1.264 . S
C350 O336 1.253 . S
C350 O338 1.288 1_655 S
C351 O340 1.280 . S
C351 O341 1.259 . S
C352 O342 1.264 . S
C352 O346 1.248 . S
C353 O343 1.260 . S
C353 O347 1.253 1_545 S
C354 O345 1.279 1_556 S
C354 O348 1.250 . S
O355 Mg337 2.030 . S
O355 C349 1.248 1_545 S
O356 Mg339 2.078 1_655 S
O356 C349 1.264 . S
O357 Mg358 1.990 . S
O357 C371 1.253 . S
Mg358 O357 1.990 . S
Mg358 O361 2.180 . S
Mg358 O362 2.117 . S
Mg358 O376 2.030 . S
O359 Mg360 2.072 . S
O359 C371 1.260 . S
Mg360 O359 2.072 . S
Mg360 O361 2.099 . S
Mg360 O363 2.079 . S
Mg360 O364 2.072 . S
Mg360 O366 2.099 . S
Mg360 O377 2.079 . S
O361 Mg358 2.180 . S
O361 Mg360 2.099 . S
O361 C372 1.279 . S
O362 Mg358 2.117 . S
O362 C372 1.250 . S
O363 Mg360 2.079 . S
O363 C373 1.264 . S
O364 Mg360 2.072 . S
O364 C374 1.260 . S
Mg365 O366 2.180 . S
Mg365 O367 2.030 . S
Mg365 O368 1.990 . S
Mg365 O369 2.117 . S
O366 Mg360 2.099 . S
O366 Mg365 2.180 . S
O366 C375 1.279 . S
O367 Mg365 2.030 . S
O367 C373 1.248 . S
O368 Mg365 1.990 . S
O368 C374 1.253 . S
O369 Mg365 2.117 . S
O369 C375 1.250 . S
C370 O376 1.248 . S
C370 O377 1.264 . S
C371 O357 1.253 . S
C371 O359 1.260 . S
C372 O361 1.279 . S
C372 O362 1.250 . S
C373 O363 1.264 . S
C373 O367 1.248 . S
C374 O364 1.260 . S
C374 O368 1.253 . S
C375 O366 1.279 . S
C375 O369 1.250 . S
O376 Mg358 2.030 . S
O376 C370 1.248 . S
O377 Mg360 2.079 . S
O377 C370 1.264 . S
O378 Mg379 1.990 . S
O378 C392 1.253 1_565 S
Mg379 O378 1.990 . S
Mg379 O382 2.180 . S
Mg379 O383 2.117 . S
Mg379 O397 2.030 1_565 S
O380 Mg381 2.072 . S
O380 C392 1.260 . S
Mg381 O380 2.072 . S
Mg381 O382 2.099 1_545 S
Mg381 O384 2.079 . S
Mg381 O385 2.074 . S
Mg381 O387 2.099 . S
Mg381 O398 2.079 . S
O382 Mg379 2.180 . S
O382 Mg381 2.099 1_565 S
O382 C393 1.279 . S
O383 Mg379 2.117 . S
O383 C393 1.250 . S
O384 Mg381 2.079 . S
O384 C394 1.264 . S
O385 Mg381 2.074 . S
O385 C395 1.261 . S
Mg386 O387 2.180 . S
Mg386 O388 2.030 . S
Mg386 O389 1.990 . S
Mg386 O390 2.117 . S
O387 Mg381 2.099 . S
O387 Mg386 2.180 . S
O387 C396 1.279 . S
O388 Mg386 2.030 . S
O388 C394 1.248 . S
O389 Mg386 1.990 . S
O389 C395 1.253 . S
O390 Mg386 2.117 . S
O390 C396 1.250 . S
C391 O397 1.248 . S
C391 O398 1.264 . S
C392 O378 1.253 1_545 S
C392 O380 1.260 . S
C393 O382 1.279 . S
C393 O383 1.250 . S
C394 O384 1.264 . S
C394 O388 1.248 . S
C395 O385 1.261 . S
C395 O389 1.253 . S
C396 O387 1.279 . S
C396 O390 1.250 . S
O397 Mg379 2.030 1_545 S
O397 C391 1.248 . S
O398 Mg381 2.079 . S
O398 C391 1.264 . S
O399 Mg400 1.990 . S
O399 C413 1.253 . S
Mg400 O399 1.990 . S
Mg400 O403 2.180 . S
Mg400 O404 2.117 . S
Mg400 O418 2.030 . S
O401 Mg402 2.072 . S
O401 C413 1.260 . S
Mg402 O401 2.072 . S
Mg402 O403 2.099 . S
Mg402 O405 2.079 . S
Mg402 O406 2.072 . S
Mg402 O408 2.099 . S
Mg402 O419 2.079 . S
O403 Mg400 2.180 . S
O403 Mg402 2.099 . S
O403 C414 1.279 . S
O404 Mg400 2.117 . S
O404 C414 1.250 . S
O405 Mg402 2.079 . S
O405 C415 1.264 . S
O406 Mg402 2.072 . S
O406 C416 1.260 . S
Mg407 O408 2.180 . S
Mg407 O409 2.030 . S
Mg407 O410 1.990 . S
Mg407 O411 2.117 . S
O408 Mg402 2.099 . S
O408 Mg407 2.180 . S
O408 C417 1.279 . S
O409 Mg407 2.030 . S
O409 C415 1.248 . S
O410 Mg407 1.990 . S
O410 C416 1.253 . S
O411 Mg407 2.117 . S
O411 C417 1.250 . S
C412 O418 1.248 . S
C412 O419 1.264 . S
C413 O399 1.253 . S
C413 O401 1.260 . S
C414 O403 1.279 . S
C414 O404 1.250 . S
C415 O405 1.264 . S
C415 O409 1.248 . S
C416 O406 1.260 . S
C416 O410 1.253 . S
C417 O408 1.279 . S
C417 O411 1.250 . S
O418 Mg400 2.030 . S
O418 C412 1.248 . S
O419 Mg402 2.079 . S
O419 C412 1.264 . S
O420 Mg421 1.990 1_655 S
O420 C434 1.253 . S
Mg421 O420 1.990 1_455 S
Mg421 O424 2.180 1_455 S
Mg421 O425 2.117 1_455 S
Mg421 O439 2.030 . S
O422 Mg423 2.068 1_665 S
O422 C434 1.263 . S
Mg423 O422 2.068 1_445 S
Mg423 O424 2.099 1_445 S
Mg423 O426 2.079 . S
Mg423 O427 2.072 1_455 S
Mg423 O429 2.099 . S
Mg423 O440 2.083 . S
O424 Mg421 2.180 1_655 S
O424 Mg423 2.099 1_665 S
O424 C435 1.279 . S
O425 Mg421 2.117 1_655 S
O425 C435 1.250 . S
O426 Mg423 2.079 . S
O426 C436 1.264 . S
O427 Mg423 2.072 1_655 S
O427 C437 1.260 . S
Mg428 O429 2.180 1_655 S
Mg428 O430 2.030 1_655 S
Mg428 O431 1.990 . S
Mg428 O432 2.117 1_655 S
O429 Mg423 2.099 . S
O429 Mg428 2.180 1_455 S
O429 C438 1.279 . S
O430 Mg428 2.030 1_455 S
O430 C436 1.248 . S
O431 Mg428 1.990 . S
O431 C437 1.253 . S
O432 Mg428 2.117 1_455 S
O432 C438 1.250 . S
C433 O439 1.248 . S
C433 O440 1.251 1_565 S
C434 O420 1.253 . S
C434 O422 1.263 . S
C435 O424 1.279 . S
C435 O425 1.250 . S
C436 O426 1.264 . S
C436 O430 1.248 . S
C437 O427 1.260 . S
C437 O431 1.253 . S
C438 O429 1.279 . S
C438 O432 1.250 . S
O439 Mg421 2.030 . S
O439 C433 1.248 . S
O440 Mg423 2.083 . S
O440 C433 1.251 1_545 S
O441 Mg442 1.990 . S
O441 C455 1.253 . S
Mg442 O441 1.990 . S
Mg442 O445 2.180 . S
Mg442 O446 2.117 . S
Mg442 O460 2.030 . S
O443 Mg444 2.072 . S
O443 C455 1.260 . S
Mg444 O443 2.072 . S
Mg444 O445 2.099 . S
Mg444 O447 2.079 . S
Mg444 O448 2.072 . S
Mg444 O450 2.099 . S
Mg444 O461 2.079 . S
O445 Mg442 2.180 . S
O445 Mg444 2.099 . S
O445 C456 1.279 . S
O446 Mg442 2.117 . S
O446 C456 1.250 . S
O447 Mg444 2.079 . S
O447 C457 1.264 . S
O448 Mg444 2.072 . S
O448 C458 1.260 . S
Mg449 O450 2.180 . S
Mg449 O451 2.030 . S
Mg449 O452 1.990 . S
Mg449 O453 2.117 . S
O450 Mg444 2.099 . S
O450 Mg449 2.180 . S
O450 C459 1.279 . S
O451 Mg449 2.030 . S
O451 C457 1.248 . S
O452 Mg449 1.990 . S
O452 C458 1.253 . S
O453 Mg449 2.117 . S
O453 C459 1.250 . S
C454 O460 1.248 . S
C454 O461 1.264 . S
C455 O441 1.253 . S
C455 O443 1.260 . S
C456 O445 1.279 . S
C456 O446 1.250 . S
C457 O447 1.264 . S
C457 O451 1.248 . S
C458 O448 1.260 . S
C458 O452 1.253 . S
C459 O450 1.279 . S
C459 O453 1.250 . S
O460 Mg442 2.030 . S
O460 C454 1.248 . S
O461 Mg444 2.079 . S
O461 C454 1.264 . S
O462 Mg463 1.990 1_565 S
O462 C476 1.253 . S
Mg463 O462 1.990 1_545 S
Mg463 O466 2.180 . S
Mg463 O467 2.117 . S
Mg463 O481 2.030 . S
O464 Mg465 2.072 1_565 S
O464 C476 1.260 . S
Mg465 O464 2.072 1_545 S
Mg465 O466 2.099 . S
Mg465 O468 2.079 . S
Mg465 O469 2.072 1_554 S
Mg465 O471 2.099 1_554 S
Mg465 O482 2.079 . S
O466 Mg463 2.180 . S
O466 Mg465 2.099 . S
O466 C477 1.279 . S
O467 Mg463 2.117 . S
O467 C477 1.250 . S
O468 Mg465 2.079 . S
O468 C478 1.264 1_554 S
O469 Mg465 2.072 1_556 S
O469 C479 1.260 . S
Mg470 O471 2.180 . S
Mg470 O472 2.030 . S
Mg470 O473 1.990 . S
Mg470 O474 2.117 1_545 S
O471 Mg465 2.099 1_556 S
O471 Mg470 2.180 . S
O471 C480 1.279 1_545 S
O472 Mg470 2.030 . S
O472 C478 1.248 . S
O473 Mg470 1.990 . S
O473 C479 1.253 . S
O474 Mg470 2.117 1_565 S
O474 C480 1.250 . S
C475 O481 1.248 . S
C475 O482 1.264 . S
C476 O462 1.253 . S
C476 O464 1.260 . S
C477 O466 1.279 . S
C477 O467 1.250 . S
C478 O468 1.264 1_556 S
C478 O472 1.248 . S
C479 O469 1.260 . S
C479 O473 1.253 . S
C480 O471 1.279 1_565 S
C480 O474 1.250 . S
O481 Mg463 2.030 . S
O481 C475 1.248 . S
O482 Mg465 2.079 . S
O482 C475 1.264 . S
O483 Mg484 1.990 . S
O483 C497 1.253 . S
Mg484 O483 1.990 . S
Mg484 O487 2.180 . S
Mg484 O488 2.117 . S
Mg484 O502 2.030 . S
O485 Mg486 2.072 . S
O485 C497 1.260 . S
Mg486 O485 2.072 . S
Mg486 O487 2.099 . S
Mg486 O489 2.079 . S
Mg486 O490 2.072 . S
Mg486 O492 2.099 . S
Mg486 O503 2.079 . S
O487 Mg484 2.180 . S
O487 Mg486 2.099 . S
O487 C498 1.279 . S
O488 Mg484 2.117 . S
O488 C498 1.250 . S
O489 Mg486 2.079 . S
O489 C499 1.264 . S
O490 Mg486 2.072 . S
O490 C500 1.260 . S
Mg491 O492 2.180 . S
Mg491 O493 2.030 . S
Mg491 O494 1.990 . S
Mg491 O495 2.117 . S
O492 Mg486 2.099 . S
O492 Mg491 2.180 . S
O492 C501 1.279 . S
O493 Mg491 2.030 . S
O493 C499 1.248 . S
O494 Mg491 1.990 . S
O494 C500 1.253 . S
O495 Mg491 2.117 . S
O495 C501 1.250 . S
C496 O502 1.248 . S
C496 O503 1.264 . S
C497 O483 1.253 . S
C497 O485 1.260 . S
C498 O487 1.279 . S
C498 O488 1.250 . S
C499 O489 1.264 . S
C499 O493 1.248 . S
C500 O490 1.260 . S
C500 O494 1.253 . S
C501 O492 1.279 . S
C501 O495 1.250 . S
O502 Mg484 2.030 . S
O502 C496 1.248 . S
O503 Mg486 2.079 . S
O503 C496 1.264 . S
O504 Mg505 1.990 . S
O504 C518 1.253 1_556 S
Mg505 O504 1.990 . S
Mg505 O508 2.180 . S
Mg505 O509 2.117 . S
Mg505 O523 2.030 1_556 S
O506 Mg507 2.072 . S
O506 C518 1.260 . S
Mg507 O506 2.072 . S
Mg507 O508 2.099 1_554 S
Mg507 O510 2.079 . S
Mg507 O511 2.088 . S
Mg507 O513 2.099 . S
Mg507 O524 2.079 . S
O508 Mg505 2.180 . S
O508 Mg507 2.099 1_556 S
O508 C519 1.279 . S
O509 Mg505 2.117 . S
O509 C519 1.250 . S
O510 Mg507 2.079 . S
O510 C520 1.264 . S
O511 Mg507 2.088 . S
O511 C521 1.266 . S
Mg512 O513 2.180 . S
Mg512 O514 2.030 . S
Mg512 O515 1.990 . S
Mg512 O516 2.117 . S
O513 Mg507 2.099 . S
O513 Mg512 2.180 . S
O513 C522 1.279 . S
O514 Mg512 2.030 . S
O514 C520 1.248 . S
O515 Mg512 1.990 . S
O515 C521 1.253 . S
O516 Mg512 2.117 . S
O516 C522 1.250 . S
C517 O523 1.248 . S
C517 O524 1.264 . S
C518 O504 1.253 1_554 S
C518 O506 1.260 . S
C519 O508 1.279 . S
C519 O509 1.250 . S
C520 O510 1.264 . S
C520 O514 1.248 . S
C521 O511 1.266 . S
C521 O515 1.253 . S
C522 O513 1.279 . S
C522 O516 1.250 . S
O523 Mg505 2.030 1_554 S
O523 C517 1.248 . S
O524 Mg507 2.079 . S
O524 C517 1.264 . S
O525 Mg526 1.990 . S
O525 C539 1.253 . S
Mg526 O525 1.990 . S
Mg526 O529 2.180 . S
Mg526 O530 2.117 . S
Mg526 O544 2.030 . S
O527 Mg528 2.072 . S
O527 C539 1.260 . S
Mg528 O527 2.072 . S
Mg528 O529 2.099 . S
Mg528 O531 2.079 . S
Mg528 O532 2.072 . S
Mg528 O534 2.099 . S
Mg528 O545 2.079 . S
O529 Mg526 2.180 . S
O529 Mg528 2.099 . S
O529 C540 1.279 . S
O530 Mg526 2.117 . S
O530 C540 1.250 . S
O531 Mg528 2.079 . S
O531 C541 1.264 . S
O532 Mg528 2.072 . S
O532 C542 1.260 . S
Mg533 O534 2.180 . S
Mg533 O535 2.030 . S
Mg533 O536 1.990 . S
Mg533 O537 2.117 . S
O534 Mg528 2.099 . S
O534 Mg533 2.180 . S
O534 C543 1.279 . S
O535 Mg533 2.030 . S
O535 C541 1.248 . S
O536 Mg533 1.990 . S
O536 C542 1.253 . S
O537 Mg533 2.117 . S
O537 C543 1.250 . S
C538 O544 1.248 . S
C538 O545 1.264 . S
C539 O525 1.253 . S
C539 O527 1.260 . S
C540 O529 1.279 . S
C540 O530 1.250 . S
C541 O531 1.264 . S
C541 O535 1.248 . S
C542 O532 1.260 . S
C542 O536 1.253 . S
C543 O534 1.279 . S
C543 O537 1.250 . S
O544 Mg526 2.030 . S
O544 C538 1.248 . S
O545 Mg528 2.079 . S
O545 C538 1.264 . S
O546 Mg547 1.990 . S
O546 C560 1.253 . S
Mg547 O546 1.990 . S
Mg547 O550 2.180 . S
Mg547 O551 2.117 . S
Mg547 O565 2.030 1_655 S
O548 Mg549 2.072 . S
O548 C560 1.260 1_455 S
Mg549 O548 2.072 . S
Mg549 O550 2.099 1_455 S
Mg549 O552 2.079 . S
Mg549 O553 2.072 1_455 S
Mg549 O555 2.099 . S
Mg549 O566 2.079 . S
O550 Mg547 2.180 . S
O550 Mg549 2.099 1_655 S
O550 C561 1.279 . S
O551 Mg547 2.117 . S
O551 C561 1.250 . S
O552 Mg549 2.079 . S
O552 C562 1.264 . S
O553 Mg549 2.072 1_655 S
O553 C563 1.260 . S
Mg554 O555 2.180 . S
Mg554 O556 2.030 . S
Mg554 O557 1.990 . S
Mg554 O558 2.117 . S
O555 Mg549 2.099 . S
O555 Mg554 2.180 . S
O555 C564 1.279 . S
O556 Mg554 2.030 . S
O556 C562 1.248 . S
O557 Mg554 1.990 . S
O557 C563 1.253 1_455 S
O558 Mg554 2.117 . S
O558 C564 1.250 . S
C559 O565 1.248 . S
C559 O566 1.264 . S
C560 O546 1.253 . S
C560 O548 1.260 1_655 S
C561 O550 1.279 . S
C561 O551 1.250 . S
C562 O552 1.264 . S
C562 O556 1.248 . S
C563 O553 1.260 . S
C563 O557 1.253 1_655 S
C564 O555 1.279 . S
C564 O558 1.250 . S
O565 Mg547 2.030 1_455 S
O565 C559 1.248 . S
O566 Mg549 2.079 . S
O566 C559 1.264 . S
O567 Mg568 1.990 . S
O567 C581 1.253 . S
Mg568 O567 1.990 . S
Mg568 O571 2.180 . S
Mg568 O572 2.117 . S
Mg568 O586 2.030 . S
O569 Mg570 2.072 . S
O569 C581 1.260 . S
Mg570 O569 2.072 . S
Mg570 O571 2.099 . S
Mg570 O573 2.079 . S
Mg570 O574 2.072 . S
Mg570 O576 2.099 . S
Mg570 O587 2.079 . S
O571 Mg568 2.180 . S
O571 Mg570 2.099 . S
O571 C582 1.279 . S
O572 Mg568 2.117 . S
O572 C582 1.250 . S
O573 Mg570 2.079 . S
O573 C583 1.264 . S
O574 Mg570 2.072 . S
O574 C584 1.260 . S
Mg575 O576 2.180 . S
Mg575 O577 2.030 . S
Mg575 O578 1.990 . S
Mg575 O579 2.117 . S
O576 Mg570 2.099 . S
O576 Mg575 2.180 . S
O576 C585 1.279 . S
O577 Mg575 2.030 . S
O577 C583 1.248 . S
O578 Mg575 1.990 . S
O578 C584 1.253 . S
O579 Mg575 2.117 . S
O579 C585 1.250 . S
C580 O586 1.248 . S
C580 O587 1.264 . S
C581 O567 1.253 . S
C581 O569 1.260 . S
C582 O571 1.279 . S
C582 O572 1.250 . S
C583 O573 1.264 . S
C583 O577 1.248 . S
C584 O574 1.260 . S
C584 O578 1.253 . S
C585 O576 1.279 . S
C585 O579 1.250 . S
O586 Mg568 2.030 . S
O586 C580 1.248 . S
O587 Mg570 2.079 . S
O587 C580 1.264 . S
O588 Mg589 1.990 . S
O588 C602 1.253 . S
Mg589 O588 1.990 . S
Mg589 O592 2.180 . S
Mg589 O593 2.117 . S
Mg589 O607 2.030 . S
O590 Mg591 2.072 . S
O590 C602 1.260 . S
Mg591 O590 2.072 . S
Mg591 O592 2.099 . S
Mg591 O594 2.079 . S
Mg591 O595 2.072 . S
Mg591 O597 2.099 . S
Mg591 O608 2.079 . S
O592 Mg589 2.180 . S
O592 Mg591 2.099 . S
O592 C603 1.279 . S
O593 Mg589 2.117 . S
O593 C603 1.250 . S
O594 Mg591 2.079 . S
O594 C604 1.264 . S
O595 Mg591 2.072 . S
O595 C605 1.260 . S
Mg596 O597 2.180 . S
Mg596 O598 2.030 . S
Mg596 O599 1.990 . S
Mg596 O600 2.117 . S
O597 Mg591 2.099 . S
O597 Mg596 2.180 . S
O597 C606 1.279 . S
O598 Mg596 2.030 . S
O598 C604 1.248 . S
O599 Mg596 1.990 . S
O599 C605 1.253 . S
O600 Mg596 2.117 . S
O600 C606 1.250 . S
C601 O607 1.248 . S
C601 O608 1.264 . S
C602 O588 1.253 . S
C602 O590 1.260 . S
C603 O592 1.279 . S
C603 O593 1.250 . S
C604 O594 1.264 . S
C604 O598 1.248 . S
C605 O595 1.260 . S
C605 O599 1.253 . S
C606 O597 1.279 . S
C606 O600 1.250 . S
O607 Mg589 2.030 . S
O607 C601 1.248 . S
O608 Mg591 2.079 . S
O608 C601 1.264 . S
O609 Mg610 1.990 . S
O609 C623 1.253 . S
Mg610 O609 1.990 . S
Mg610 O613 2.180 . S
Mg610 O614 2.117 . S
Mg610 O628 2.030 . S
O611 Mg612 2.072 . S
O611 C623 1.260 . S
Mg612 O611 2.072 . S
Mg612 O613 2.099 . S
Mg612 O615 2.079 . S
Mg612 O616 2.072 . S
Mg612 O618 2.099 . S
Mg612 O629 2.079 . S
O613 Mg610 2.180 . S
O613 Mg612 2.099 . S
O613 C624 1.279 . S
O614 Mg610 2.117 . S
O614 C624 1.250 . S
O615 Mg612 2.079 . S
O615 C625 1.264 . S
O616 Mg612 2.072 . S
O616 C626 1.260 . S
Mg617 O618 2.180 . S
Mg617 O619 2.030 . S
Mg617 O620 1.990 . S
Mg617 O621 2.117 . S
O618 Mg612 2.099 . S
O618 Mg617 2.180 . S
O618 C627 1.279 . S
O619 Mg617 2.030 . S
O619 C625 1.248 . S
O620 Mg617 1.990 . S
O620 C626 1.253 . S
O621 Mg617 2.117 . S
O621 C627 1.250 . S
C622 O628 1.248 . S
C622 O629 1.264 . S
C623 O609 1.253 . S
C623 O611 1.260 . S
C624 O613 1.279 . S
C624 O614 1.250 . S
C625 O615 1.264 . S
C625 O619 1.248 . S
C626 O616 1.260 . S
C626 O620 1.253 . S
C627 O618 1.279 . S
C627 O621 1.250 . S
O628 Mg610 2.030 . S
O628 C622 1.248 . S
O629 Mg612 2.079 . S
O629 C622 1.264 . S
O630 Mg631 1.990 . S
O630 C644 1.253 . S
Mg631 O630 1.990 . S
Mg631 O634 2.180 . S
Mg631 O635 2.117 . S
Mg631 O649 2.030 . S
O632 Mg633 2.072 . S
O632 C644 1.260 . S
Mg633 O632 2.072 . S
Mg633 O634 2.099 . S
Mg633 O636 2.079 . S
Mg633 O637 2.072 . S
Mg633 O639 2.099 . S
Mg633 O650 2.079 . S
O634 Mg631 2.180 . S
O634 Mg633 2.099 . S
O634 C645 1.279 . S
O635 Mg631 2.117 . S
O635 C645 1.250 . S
O636 Mg633 2.079 . S
O636 C646 1.264 . S
O637 Mg633 2.072 . S
O637 C647 1.260 . S
Mg638 O639 2.180 . S
Mg638 O640 2.030 . S
Mg638 O641 1.990 . S
Mg638 O642 2.117 . S
O639 Mg633 2.099 . S
O639 Mg638 2.180 . S
O639 C648 1.279 . S
O640 Mg638 2.030 . S
O640 C646 1.248 . S
O641 Mg638 1.990 . S
O641 C647 1.253 . S
O642 Mg638 2.117 . S
O642 C648 1.250 . S
C643 O649 1.248 . S
C643 O650 1.264 . S
C644 O630 1.253 . S
C644 O632 1.260 . S
C645 O634 1.279 . S
C645 O635 1.250 . S
C646 O636 1.264 . S
C646 O640 1.248 . S
C647 O637 1.260 . S
C647 O641 1.253 . S
C648 O639 1.279 . S
C648 O642 1.250 . S
O649 Mg631 2.030 . S
O649 C643 1.248 . S
O650 Mg633 2.079 . S
O650 C643 1.264 . S
O651 Mg652 1.990 1_556 S
O651 C665 1.253 . S
Mg652 O651 1.990 1_554 S
Mg652 O655 2.180 . S
Mg652 O656 2.117 . S
Mg652 O670 2.030 . S
O653 Mg654 2.072 1_556 S
O653 C665 1.260 . S
Mg654 O653 2.072 1_554 S
Mg654 O655 2.099 . S
Mg654 O657 2.079 . S
Mg654 O658 2.072 1_455 S
Mg654 O660 2.099 1_455 S
Mg654 O671 2.079 . S
O655 Mg652 2.180 . S
O655 Mg654 2.099 . S
O655 C666 1.279 . S
O656 Mg652 2.117 . S
O656 C666 1.250 . S
O657 Mg654 2.079 . S
O657 C667 1.264 1_455 S
O658 Mg654 2.072 1_655 S
O658 C668 1.260 . S
Mg659 O660 2.180 . S
Mg659 O661 2.030 . S
Mg659 O662 1.990 . S
Mg659 O663 2.117 1_554 S
O660 Mg654 2.099 1_655 S
O660 Mg659 2.180 . S
O660 C669 1.279 1_554 S
O661 Mg659 2.030 . S
O661 C667 1.248 . S
O662 Mg659 1.990 . S
O662 C668 1.253 . S
O663 Mg659 2.117 1_556 S
O663 C669 1.250 . S
C664 O670 1.248 . S
C664 O671 1.264 . S
C665 O651 1.253 . S
C665 O653 1.260 . S
C666 O655 1.279 . S
C666 O656 1.250 . S
C667 O657 1.264 1_655 S
C667 O661 1.248 . S
C668 O658 1.260 . S
C668 O662 1.253 . S
C669 O660 1.279 1_556 S
C669 O663 1.250 . S
O670 Mg652 2.030 . S
O670 C664 1.248 . S
O671 Mg654 2.079 . S
O671 C664 1.264 . S
H672 C680 0.950 . S
H673 C685 0.950 . S
H674 C682 0.950 . S
H675 C684 0.950 . S
H676 C686 0.950 . S
H677 C688 0.950 . S
H678 C690 0.950 . S
H679 C691 0.950 . S
C680 H672 0.950 . S
C680 C681 1.386 . S
C680 C682 1.391 . S
C681 C680 1.386 . S
C681 C685 1.393 1_455 S
C682 H674 0.950 . S
C682 C680 1.391 . S
C682 C683 1.400 . S
C683 C682 1.400 . S
C683 C684 1.398 1_455 S
C683 C689 1.491 . S
C684 H675 0.950 . S
C684 C683 1.398 1_655 S
C684 C685 1.391 . S
C685 H673 0.950 . S
C685 C681 1.393 1_655 S
C685 C684 1.391 . S
C686 H676 0.950 . S
C686 C687 1.386 1_655 S
C686 C688 1.391 . S
C687 C686 1.386 1_455 S
C687 C691 1.393 . S
C688 H677 0.950 . S
C688 C686 1.391 . S
C688 C689 1.400 1_655 S
C689 C683 1.491 . S
C689 C688 1.400 1_455 S
C689 C690 1.398 . S
C690 H678 0.950 . S
C690 C689 1.398 . S
C690 C691 1.391 . S
C691 H679 0.950 . S
C691 C687 1.393 . S
C691 C690 1.391 . S
H692 C700 0.950 . S
H693 C705 0.950 . S
H694 C702 0.950 . S
H695 C704 0.950 . S
H696 C706 0.950 . S
H697 C708 0.950 . S
H698 C710 0.950 . S
H699 C711 0.950 . S
C700 H692 0.950 . S
C700 C701 1.386 . S
C700 C702 1.391 . S
C701 C700 1.386 . S
C701 C705 1.393 . S
C702 H694 0.950 . S
C702 C700 1.391 . S
C702 C703 1.400 . S
C703 C702 1.400 . S
C703 C704 1.398 . S
C703 C709 1.491 . S
C704 H695 0.950 . S
C704 C703 1.398 . S
C704 C705 1.391 . S
C705 H693 0.950 . S
C705 C701 1.393 . S
C705 C704 1.391 . S
C706 H696 0.950 . S
C706 C707 1.386 . S
C706 C708 1.391 . S
C707 C706 1.386 . S
C707 C711 1.393 . S
C708 H697 0.950 . S
C708 C706 1.391 . S
C708 C709 1.400 . S
C709 C703 1.491 . S
C709 C708 1.400 . S
C709 C710 1.398 . S
C710 H698 0.950 . S
C710 C709 1.398 . S
C710 C711 1.391 . S
C711 H699 0.950 . S
C711 C707 1.393 . S
C711 C710 1.391 . S
H712 C720 0.950 . S
H713 C725 0.950 . S
H714 C722 0.950 . S
H715 C724 0.950 . S
H716 C726 0.950 . S
H717 C728 0.950 . S
H718 C730 0.950 . S
H719 C731 0.950 . S
C720 H712 0.950 . S
C720 C721 1.386 . S
C720 C722 1.391 . S
C721 C720 1.386 . S
C721 C725 1.393 . S
C722 H714 0.950 . S
C722 C720 1.391 . S
C722 C723 1.400 . S
C723 C722 1.400 . S
C723 C724 1.398 . S
C723 C729 1.491 . S
C724 H715 0.950 . S
C724 C723 1.398 . S
C724 C725 1.391 . S
C725 H713 0.950 . S
C725 C721 1.393 . S
C725 C724 1.391 . S
C726 H716 0.950 . S
C726 C727 1.386 . S
C726 C728 1.391 . S
C727 C726 1.386 . S
C727 C731 1.393 . S
C728 H717 0.950 . S
C728 C726 1.391 . S
C728 C729 1.400 . S
C729 C723 1.491 . S
C729 C728 1.400 . S
C729 C730 1.398 . S
C730 H718 0.950 . S
C730 C729 1.398 . S
C730 C731 1.391 . S
C731 H719 0.950 . S
C731 C727 1.393 . S
C731 C730 1.391 . S
H732 C740 0.950 . S
H733 C745 0.950 . S
H734 C742 0.950 . S
H735 C744 0.950 . S
H736 C746 0.950 . S
H737 C748 0.950 . S
H738 C750 0.950 . S
H739 C751 0.950 . S
C740 H732 0.950 . S
C740 C741 1.386 . S
C740 C742 1.391 . S
C741 C740 1.386 . S
C741 C745 1.393 . S
C742 H734 0.950 . S
C742 C740 1.391 . S
C742 C743 1.400 . S
C743 C742 1.400 . S
C743 C744 1.398 . S
C743 C749 1.491 . S
C744 H735 0.950 . S
C744 C743 1.398 . S
C744 C745 1.391 . S
C745 H733 0.950 . S
C745 C741 1.393 . S
C745 C744 1.391 . S
C746 H736 0.950 . S
C746 C747 1.386 . S
C746 C748 1.391 . S
C747 C746 1.386 . S
C747 C751 1.393 . S
C748 H737 0.950 . S
C748 C746 1.391 . S
C748 C749 1.400 . S
C749 C743 1.491 . S
C749 C748 1.400 . S
C749 C750 1.398 . S
C750 H738 0.950 . S
C750 C749 1.398 . S
C750 C751 1.391 . S
C751 H739 0.950 . S
C751 C747 1.393 . S
C751 C750 1.391 . S
H752 C760 0.950 . S
H753 C765 0.950 . S
H754 C762 0.955 . S
H755 C764 0.950 . S
H756 C766 0.949 1_455 S
H757 C768 0.950 . S
H758 C770 0.950 1_455 S
H759 C771 0.950 . S
C760 H752 0.950 . S
C760 C761 1.386 . S
C760 C762 1.391 . S
C761 C760 1.386 . S
C761 C765 1.393 . S
C762 H754 0.955 . S
C762 C760 1.391 . S
C762 C763 1.400 . S
C763 C762 1.400 . S
C763 C764 1.398 . S
C763 C769 1.491 . S
C764 H755 0.950 . S
C764 C763 1.398 . S
C764 C765 1.391 . S
C765 H753 0.950 . S
C765 C761 1.393 . S
C765 C764 1.391 . S
C766 H756 0.949 1_655 S
C766 C767 1.387 . S
C766 C768 1.390 1_655 S
C767 C766 1.387 . S
C767 C771 1.393 . S
C768 H757 0.950 . S
C768 C766 1.390 1_455 S
C768 C769 1.400 . S
C769 C763 1.491 . S
C769 C768 1.400 . S
C769 C770 1.397 1_455 S
C770 H758 0.950 1_655 S
C770 C769 1.397 1_655 S
C770 C771 1.393 . S
C771 H759 0.950 . S
C771 C767 1.393 . S
C771 C770 1.393 . S
H772 C780 0.950 . S
H773 C785 0.950 . S
H774 C782 0.950 . S
H775 C784 0.950 . S
H776 C786 0.950 . S
H777 C788 0.950 . S
H778 C790 0.950 . S
H779 C791 0.950 . S
C780 H772 0.950 . S
C780 C781 1.386 . S
C780 C782 1.391 . S
C781 C780 1.386 . S
C781 C785 1.393 . S
C782 H774 0.950 . S
C782 C780 1.391 . S
C782 C783 1.400 . S
C783 C782 1.400 . S
C783 C784 1.398 . S
C783 C789 1.491 . S
C784 H775 0.950 . S
C784 C783 1.398 . S
C784 C785 1.391 . S
C785 H773 0.950 . S
C785 C781 1.393 . S
C785 C784 1.391 . S
C786 H776 0.950 . S
C786 C787 1.386 . S
C786 C788 1.391 . S
C787 C786 1.386 . S
C787 C791 1.393 . S
C788 H777 0.950 . S
C788 C786 1.391 . S
C788 C789 1.400 . S
C789 C783 1.491 . S
C789 C788 1.400 . S
C789 C790 1.398 . S
C790 H778 0.950 . S
C790 C789 1.398 . S
C790 C791 1.391 . S
C791 H779 0.950 . S
C791 C787 1.393 . S
C791 C790 1.391 . S
H792 C800 0.950 . S
H793 C805 0.950 . S
H794 C802 0.950 . S
H795 C804 0.950 . S
H796 C806 0.950 1_554 S
H797 C808 0.950 . S
H798 C810 0.950 . S
H799 C811 0.950 . S
C800 H792 0.950 . S
C800 C801 1.386 . S
C800 C802 1.391 . S
C801 C800 1.386 . S
C801 C805 1.393 . S
C802 H794 0.950 . S
C802 C800 1.391 . S
C802 C803 1.400 . S
C803 C802 1.400 . S
C803 C804 1.398 . S
C803 C809 1.491 . S
C804 H795 0.950 . S
C804 C803 1.398 . S
C804 C805 1.391 . S
C805 H793 0.950 . S
C805 C801 1.393 . S
C805 C804 1.391 . S
C806 H796 0.950 1_556 S
C806 C807 1.386 . S
C806 C808 1.391 . S
C807 C806 1.386 . S
C807 C811 1.393 . S
C808 H797 0.950 . S
C808 C806 1.391 . S
C808 C809 1.400 . S
C809 C803 1.491 . S
C809 C808 1.400 . S
C809 C810 1.398 . S
C810 H798 0.950 . S
C810 C809 1.398 . S
C810 C811 1.391 . S
C811 H799 0.950 . S
C811 C807 1.393 . S
C811 C810 1.391 . S
H812 C820 0.950 . S
H813 C825 0.950 . S
H814 C822 0.950 . S
H815 C824 0.950 . S
H816 C826 0.950 . S
H817 C828 0.950 . S
H818 C830 0.950 . S
H819 C831 0.950 . S
C820 H812 0.950 . S
C820 C821 1.386 . S
C820 C822 1.391 . S
C821 C820 1.386 . S
C821 C825 1.393 . S
C822 H814 0.950 . S
C822 C820 1.391 . S
C822 C823 1.400 . S
C823 C822 1.400 . S
C823 C824 1.398 . S
C823 C829 1.491 . S
C824 H815 0.950 . S
C824 C823 1.398 . S
C824 C825 1.391 . S
C825 H813 0.950 . S
C825 C821 1.393 . S
C825 C824 1.391 . S
C826 H816 0.950 . S
C826 C827 1.386 . S
C826 C828 1.391 . S
C827 C826 1.386 . S
C827 C831 1.393 . S
C828 H817 0.950 . S
C828 C826 1.391 . S
C828 C829 1.400 . S
C829 C823 1.491 . S
C829 C828 1.400 . S
C829 C830 1.398 . S
C830 H818 0.950 . S
C830 C829 1.398 . S
C830 C831 1.391 . S
C831 H819 0.950 . S
C831 C827 1.393 . S
C831 C830 1.391 . S
H832 C840 0.950 . S
H833 C845 0.950 . S
H834 C842 0.950 . S
H835 C844 0.949 . S
H836 C846 0.950 . S
H837 C848 0.950 . S
H838 C850 0.950 . S
H839 C851 0.950 . S
C840 H832 0.950 . S
C840 C841 1.386 . S
C840 C842 1.391 . S
C841 C840 1.386 . S
C841 C845 1.393 . S
C842 H834 0.950 . S
C842 C840 1.391 . S
C842 C843 1.397 1_545 S
C843 C842 1.397 1_565 S
C843 C844 1.400 . S
C843 C849 1.493 . S
C844 H835 0.949 . S
C844 C843 1.400 . S
C844 C845 1.391 1_565 S
C845 H833 0.950 . S
C845 C841 1.393 . S
C845 C844 1.391 1_545 S
C846 H836 0.950 . S
C846 C847 1.386 . S
C846 C848 1.391 . S
C847 C846 1.386 . S
C847 C851 1.393 . S
C848 H837 0.950 . S
C848 C846 1.391 . S
C848 C849 1.400 . S
C849 C843 1.493 . S
C849 C848 1.400 . S
C849 C850 1.398 . S
C850 H838 0.950 . S
C850 C849 1.398 . S
C850 C851 1.391 . S
C851 H839 0.950 . S
C851 C847 1.393 . S
C851 C850 1.391 . S
H852 C860 0.950 . S
H853 C865 0.950 . S
H854 C862 0.950 . S
H855 C864 0.950 . S
H856 C866 0.950 . S
H857 C868 0.950 . S
H858 C870 0.950 . S
H859 C871 0.950 . S
C860 H852 0.950 . S
C860 C861 1.386 . S
C860 C862 1.391 . S
C861 C860 1.386 . S
C861 C865 1.393 . S
C862 H854 0.950 . S
C862 C860 1.391 . S
C862 C863 1.400 . S
C863 C862 1.400 . S
C863 C864 1.398 . S
C863 C869 1.491 . S
C864 H855 0.950 . S
C864 C863 1.398 . S
C864 C865 1.391 . S
C865 H853 0.950 . S
C865 C861 1.393 . S
C865 C864 1.391 . S
C866 H856 0.950 . S
C866 C867 1.386 . S
C866 C868 1.391 . S
C867 C866 1.386 . S
C867 C871 1.393 . S
C868 H857 0.950 . S
C868 C866 1.391 . S
C868 C869 1.400 . S
C869 C863 1.491 . S
C869 C868 1.400 . S
C869 C870 1.398 . S
C870 H858 0.950 . S
C870 C869 1.398 . S
C870 C871 1.391 . S
C871 H859 0.950 . S
C871 C867 1.393 . S
C871 C870 1.391 . S
H872 C880 0.950 1_565 S
H873 C885 0.950 . S
H874 C882 0.950 1_565 S
H875 C884 0.950 . S
H876 C886 0.950 . S
H877 C888 0.950 . S
H878 C890 0.950 . S
H879 C891 0.950 . S
C880 H872 0.950 1_545 S
C880 C881 1.386 . S
C880 C882 1.391 . S
C881 C880 1.386 . S
C881 C885 1.393 . S
C882 H874 0.950 1_545 S
C882 C880 1.391 . S
C882 C883 1.400 . S
C883 C882 1.400 . S
C883 C884 1.398 . S
C883 C889 1.491 . S
C884 H875 0.950 . S
C884 C883 1.398 . S
C884 C885 1.391 . S
C885 H873 0.950 . S
C885 C881 1.393 . S
C885 C884 1.391 . S
C886 H876 0.950 . S
C886 C887 1.386 . S
C886 C888 1.391 . S
C887 C886 1.386 . S
C887 C891 1.393 . S
C888 H877 0.950 . S
C888 C886 1.391 . S
C888 C889 1.400 . S
C889 C883 1.491 . S
C889 C888 1.400 . S
C889 C890 1.398 . S
C890 H878 0.950 . S
C890 C889 1.398 . S
C890 C891 1.391 . S
C891 H879 0.950 . S
C891 C887 1.393 . S
C891 C890 1.391 . S
H892 C900 0.950 . S
H893 C905 0.950 . S
H894 C902 0.950 . S
H895 C904 0.950 . S
H896 C906 0.950 . S
H897 C908 0.950 . S
H898 C910 0.950 . S
H899 C911 0.950 . S
C900 H892 0.950 . S
C900 C901 1.386 . S
C900 C902 1.391 . S
C901 C900 1.386 . S
C901 C905 1.393 . S
C902 H894 0.950 . S
C902 C900 1.391 . S
C902 C903 1.400 . S
C903 C902 1.400 . S
C903 C904 1.398 . S
C903 C909 1.491 . S
C904 H895 0.950 . S
C904 C903 1.398 . S
C904 C905 1.391 . S
C905 H893 0.950 . S
C905 C901 1.393 . S
C905 C904 1.391 . S
C906 H896 0.950 . S
C906 C907 1.386 . S
C906 C908 1.391 . S
C907 C906 1.386 . S
C907 C911 1.393 . S
C908 H897 0.950 . S
C908 C906 1.391 . S
C908 C909 1.400 . S
C909 C903 1.491 . S
C909 C908 1.400 . S
C909 C910 1.398 . S
C910 H898 0.950 . S
C910 C909 1.398 . S
C910 C911 1.391 . S
C911 H899 0.950 . S
C911 C907 1.393 . S
C911 C910 1.391 . S
H912 C920 0.950 . S
H913 C925 0.950 . S
H914 C922 0.950 . S
H915 C924 0.950 . S
H916 C926 0.976 . S
H917 C928 0.950 . S
H918 C930 0.950 . S
H919 C931 0.950 . S
C920 H912 0.950 . S
C920 C921 1.386 . S
C920 C922 1.391 . S
C921 C920 1.386 . S
C921 C925 1.393 1_545 S
C922 H914 0.950 . S
C922 C920 1.391 . S
C922 C923 1.400 . S
C923 C922 1.400 . S
C923 C924 1.398 1_545 S
C923 C929 1.491 . S
C924 H915 0.950 . S
C924 C923 1.398 1_565 S
C924 C925 1.391 . S
C925 H913 0.950 . S
C925 C921 1.393 1_565 S
C925 C924 1.391 . S
C926 H916 0.976 . S
C926 C927 1.358 1_565 S
C926 C928 1.394 . S
C927 C926 1.358 1_545 S
C927 C931 1.393 . S
C928 H917 0.950 . S
C928 C926 1.394 . S
C928 C929 1.400 1_565 S
C929 C923 1.491 . S
C929 C928 1.400 1_545 S
C929 C930 1.398 . S
C930 H918 0.950 . S
C930 C929 1.398 . S
C930 C931 1.391 . S
C931 H919 0.950 . S
C931 C927 1.393 . S
C931 C930 1.391 . S
H932 C940 0.950 . S
H933 C945 0.950 . S
H934 C942 0.950 . S
H935 C944 0.950 . S
H936 C946 0.950 . S
H937 C948 0.950 . S
H938 C950 0.950 . S
H939 C951 0.950 . S
C940 H932 0.950 . S
C940 C941 1.386 . S
C940 C942 1.391 . S
C941 C940 1.386 . S
C941 C945 1.393 . S
C942 H934 0.950 . S
C942 C940 1.391 . S
C942 C943 1.400 . S
C943 C942 1.400 . S
C943 C944 1.398 . S
C943 C949 1.491 . S
C944 H935 0.950 . S
C944 C943 1.398 . S
C944 C945 1.391 . S
C945 H933 0.950 . S
C945 C941 1.393 . S
C945 C944 1.391 . S
C946 H936 0.950 . S
C946 C947 1.386 . S
C946 C948 1.391 . S
C947 C946 1.386 . S
C947 C951 1.393 . S
C948 H937 0.950 . S
C948 C946 1.391 . S
C948 C949 1.400 . S
C949 C943 1.491 . S
C949 C948 1.400 . S
C949 C950 1.398 . S
C950 H938 0.950 . S
C950 C949 1.398 . S
C950 C951 1.391 . S
C951 H939 0.950 . S
C951 C947 1.393 . S
C951 C950 1.391 . S
H952 C960 0.950 . S
H953 C965 0.950 . S
H954 C962 0.950 . S
H955 C964 0.950 . S
H956 C966 0.950 . S
H957 C968 0.950 . S
H958 C970 0.950 . S
H959 C971 0.950 . S
C960 H952 0.950 . S
C960 C961 1.386 . S
C960 C962 1.391 . S
C961 C960 1.386 . S
C961 C965 1.393 1_545 S
C962 H954 0.950 . S
C962 C960 1.391 . S
C962 C963 1.400 . S
C963 C962 1.400 . S
C963 C964 1.398 1_545 S
C963 C969 1.491 . S
C964 H955 0.950 . S
C964 C963 1.398 1_565 S
C964 C965 1.391 . S
C965 H953 0.950 . S
C965 C961 1.393 1_565 S
C965 C964 1.391 . S
C966 H956 0.950 . S
C966 C967 1.386 1_565 S
C966 C968 1.391 . S
C967 C966 1.386 1_545 S
C967 C971 1.393 . S
C968 H957 0.950 . S
C968 C966 1.391 . S
C968 C969 1.400 1_565 S
C969 C963 1.491 . S
C969 C968 1.400 1_545 S
C969 C970 1.398 . S
C970 H958 0.950 . S
C970 C969 1.398 . S
C970 C971 1.391 . S
C971 H959 0.950 . S
C971 C967 1.393 . S
C971 C970 1.391 . S
H972 C980 0.950 . S
H973 C985 0.950 . S
H974 C982 0.950 . S
H975 C984 0.950 . S
H976 C986 0.950 . S
H977 C988 0.950 . S
H978 C990 0.950 . S
H979 C991 0.950 . S
C980 H972 0.950 . S
C980 C981 1.386 . S
C980 C982 1.391 . S
C981 C980 1.386 . S
C981 C985 1.393 . S
C982 H974 0.950 . S
C982 C980 1.391 . S
C982 C983 1.400 . S
C983 C982 1.400 . S
C983 C984 1.398 . S
C983 C989 1.491 . S
C984 H975 0.950 . S
C984 C983 1.398 . S
C984 C985 1.391 . S
C985 H973 0.950 . S
C985 C981 1.393 . S
C985 C984 1.391 . S
C986 H976 0.950 . S
C986 C987 1.386 . S
C986 C988 1.391 . S
C987 C986 1.386 . S
C987 C991 1.393 . S
C988 H977 0.950 . S
C988 C986 1.391 . S
C988 C989 1.400 . S
C989 C983 1.491 . S
C989 C988 1.400 . S
C989 C990 1.398 . S
C990 H978 0.950 . S
C990 C989 1.398 . S
C990 C991 1.391 . S
C991 H979 0.950 . S
C991 C987 1.393 . S
C991 C990 1.391 . S
H992 C1000 0.950 . S
H993 C1005 0.950 . S
H994 C1002 0.950 . S
H995 C1004 0.950 . S
H996 C1006 0.950 . S
H997 C1008 0.950 . S
H998 C1010 0.950 . S
H999 C1011 0.950 . S
C1000 H992 0.950 . S
C1000 C1001 1.386 . S
C1000 C1002 1.391 . S
C1001 C1000 1.386 . S
C1001 C1005 1.393 1_554 S
C1002 H994 0.950 . S
C1002 C1000 1.391 . S
C1002 C1003 1.400 . S
C1003 C1002 1.400 . S
C1003 C1004 1.398 1_554 S
C1003 C1009 1.491 . S
C1004 H995 0.950 . S
C1004 C1003 1.398 1_556 S
C1004 C1005 1.391 . S
C1005 H993 0.950 . S
C1005 C1001 1.393 1_556 S
C1005 C1004 1.391 . S
C1006 H996 0.950 . S
C1006 C1007 1.386 1_556 S
C1006 C1008 1.391 . S
C1007 C1006 1.386 1_554 S
C1007 C1011 1.393 . S
C1008 H997 0.950 . S
C1008 C1006 1.391 . S
C1008 C1009 1.400 1_556 S
C1009 C1003 1.491 . S
C1009 C1008 1.400 1_554 S
C1009 C1010 1.398 . S
C1010 H998 0.950 . S
C1010 C1009 1.398 . S
C1010 C1011 1.391 . S
C1011 H999 0.950 . S
C1011 C1007 1.393 . S
C1011 C1010 1.391 . S
H1012 C1020 0.950 . S
H1013 C1025 0.950 . S
H1014 C1022 0.950 . S
H1015 C1024 0.950 . S
H1016 C1026 0.950 . S
H1017 C1028 0.950 . S
H1018 C1030 0.950 . S
H1019 C1031 0.950 . S
C1020 H1012 0.950 . S
C1020 C1021 1.386 . S
C1020 C1022 1.391 . S
C1021 C1020 1.386 . S
C1021 C1025 1.393 . S
C1022 H1014 0.950 . S
C1022 C1020 1.391 . S
C1022 C1023 1.400 . S
C1023 C1022 1.400 . S
C1023 C1024 1.398 . S
C1023 C1029 1.491 . S
C1024 H1015 0.950 . S
C1024 C1023 1.398 . S
C1024 C1025 1.391 . S
C1025 H1013 0.950 . S
C1025 C1021 1.393 . S
C1025 C1024 1.391 . S
C1026 H1016 0.950 . S
C1026 C1027 1.386 . S
C1026 C1028 1.391 . S
C1027 C1026 1.386 . S
C1027 C1031 1.393 . S
C1028 H1017 0.950 . S
C1028 C1026 1.391 . S
C1028 C1029 1.400 . S
C1029 C1023 1.491 . S
C1029 C1028 1.400 . S
C1029 C1030 1.398 . S
C1030 H1018 0.950 . S
C1030 C1029 1.398 . S
C1030 C1031 1.391 . S
C1031 H1019 0.950 . S
C1031 C1027 1.393 . S
C1031 C1030 1.391 . S
H1032 C1040 0.950 . S
H1033 C1045 0.950 . S
H1034 C1042 0.950 . S
H1035 C1044 0.950 . S
H1036 C1046 0.950 . S
H1037 C1048 0.950 . S
H1038 C1050 0.950 . S
H1039 C1051 0.950 . S
C1040 H1032 0.950 . S
C1040 C1041 1.386 . S
C1040 C1042 1.391 . S
C1041 C1040 1.386 . S
C1041 C1045 1.393 . S
C1042 H1034 0.950 . S
C1042 C1040 1.391 . S
C1042 C1043 1.400 . S
C1043 C1042 1.400 . S
C1043 C1044 1.398 . S
C1043 C1049 1.491 . S
C1044 H1035 0.950 . S
C1044 C1043 1.398 . S
C1044 C1045 1.391 . S
C1045 H1033 0.950 . S
C1045 C1041 1.393 . S
C1045 C1044 1.391 . S
C1046 H1036 0.950 . S
C1046 C1047 1.386 . S
C1046 C1048 1.391 . S
C1047 C1046 1.386 . S
C1047 C1051 1.393 . S
C1048 H1037 0.950 . S
C1048 C1046 1.391 . S
C1048 C1049 1.400 . S
C1049 C1043 1.491 . S
C1049 C1048 1.400 . S
C1049 C1050 1.398 . S
C1050 H1038 0.950 . S
C1050 C1049 1.398 . S
C1050 C1051 1.391 . S
C1051 H1039 0.950 . S
C1051 C1047 1.393 . S
C1051 C1050 1.391 . S
H1052 C1060 0.950 . S
H1053 C1065 0.950 . S
H1054 C1062 0.950 . S
H1055 C1064 0.950 . S
H1056 C1066 0.950 . S
H1057 C1068 0.950 . S
H1058 C1070 0.950 . S
H1059 C1071 0.950 . S
C1060 H1052 0.950 . S
C1060 C1061 1.386 . S
C1060 C1062 1.391 . S
C1061 C1060 1.386 . S
C1061 C1065 1.393 . S
C1062 H1054 0.950 . S
C1062 C1060 1.391 . S
C1062 C1063 1.400 . S
C1063 C1062 1.400 . S
C1063 C1064 1.398 . S
C1063 C1069 1.491 . S
C1064 H1055 0.950 . S
C1064 C1063 1.398 . S
C1064 C1065 1.391 . S
C1065 H1053 0.950 . S
C1065 C1061 1.393 . S
C1065 C1064 1.391 . S
C1066 H1056 0.950 . S
C1066 C1067 1.386 . S
C1066 C1068 1.391 . S
C1067 C1066 1.386 . S
C1067 C1071 1.393 . S
C1068 H1057 0.950 . S
C1068 C1066 1.391 . S
C1068 C1069 1.400 . S
C1069 C1063 1.491 . S
C1069 C1068 1.400 . S
C1069 C1070 1.398 . S
C1070 H1058 0.950 . S
C1070 C1069 1.398 . S
C1070 C1071 1.391 . S
C1071 H1059 0.950 . S
C1071 C1067 1.393 . S
C1071 C1070 1.391 . S
H1072 C1080 0.950 . S
H1073 C1085 0.950 . S
H1074 C1082 0.950 . S
H1075 C1084 0.950 . S
H1076 C1086 0.950 . S
H1077 C1088 0.950 . S
H1078 C1090 0.950 . S
H1079 C1091 0.950 . S
C1080 H1072 0.950 . S
C1080 C1081 1.386 . S
C1080 C1082 1.391 . S
C1081 C1080 1.386 . S
C1081 C1085 1.393 . S
C1082 H1074 0.950 . S
C1082 C1080 1.391 . S
C1082 C1083 1.400 . S
C1083 C1082 1.400 . S
C1083 C1084 1.398 . S
C1083 C1089 1.491 . S
C1084 H1075 0.950 . S
C1084 C1083 1.398 . S
C1084 C1085 1.391 . S
C1085 H1073 0.950 . S
C1085 C1081 1.393 . S
C1085 C1084 1.391 . S
C1086 H1076 0.950 . S
C1086 C1087 1.386 . S
C1086 C1088 1.391 . S
C1087 C1086 1.386 . S
C1087 C1091 1.393 . S
C1088 H1077 0.950 . S
C1088 C1086 1.391 . S
C1088 C1089 1.400 . S
C1089 C1083 1.491 . S
C1089 C1088 1.400 . S
C1089 C1090 1.398 . S
C1090 H1078 0.950 . S
C1090 C1089 1.398 . S
C1090 C1091 1.391 . S
C1091 H1079 0.950 . S
C1091 C1087 1.393 . S
C1091 C1090 1.391 . S
H1092 C1100 0.950 . S
H1093 C1105 0.950 . S
H1094 C1102 0.950 . S
H1095 C1104 0.950 . S
H1096 C1106 0.950 . S
H1097 C1108 0.950 . S
H1098 C1110 0.950 . S
H1099 C1111 0.950 . S
C1100 H1092 0.950 . S
C1100 C1101 1.386 . S
C1100 C1102 1.391 . S
C1101 C1100 1.386 . S
C1101 C1105 1.393 . S
C1102 H1094 0.950 . S
C1102 C1100 1.391 . S
C1102 C1103 1.400 . S
C1103 C1102 1.400 . S
C1103 C1104 1.398 . S
C1103 C1109 1.491 . S
C1104 H1095 0.950 . S
C1104 C1103 1.398 . S
C1104 C1105 1.391 . S
C1105 H1093 0.950 . S
C1105 C1101 1.393 . S
C1105 C1104 1.391 . S
C1106 H1096 0.950 . S
C1106 C1107 1.386 . S
C1106 C1108 1.391 . S
C1107 C1106 1.386 . S
C1107 C1111 1.393 . S
C1108 H1097 0.950 . S
C1108 C1106 1.391 . S
C1108 C1109 1.400 . S
C1109 C1103 1.491 . S
C1109 C1108 1.400 . S
C1109 C1110 1.398 . S
C1110 H1098 0.950 . S
C1110 C1109 1.398 . S
C1110 C1111 1.391 . S
C1111 H1099 0.950 . S
C1111 C1107 1.393 . S
C1111 C1110 1.391 . S
H1112 C1120 0.950 . S
H1113 C1125 0.950 . S
H1114 C1122 0.950 . S
H1115 C1124 0.950 . S
H1116 C1126 0.950 . S
H1117 C1128 0.950 . S
H1118 C1130 0.950 . S
H1119 C1131 0.950 . S
C1120 H1112 0.950 . S
C1120 C1121 1.386 . S
C1120 C1122 1.391 . S
C1121 C1120 1.386 . S
C1121 C1125 1.393 . S
C1122 H1114 0.950 . S
C1122 C1120 1.391 . S
C1122 C1123 1.400 . S
C1123 C1122 1.400 . S
C1123 C1124 1.398 . S
C1123 C1129 1.491 . S
C1124 H1115 0.950 . S
C1124 C1123 1.398 . S
C1124 C1125 1.391 . S
C1125 H1113 0.950 . S
C1125 C1121 1.393 . S
C1125 C1124 1.391 . S
C1126 H1116 0.950 . S
C1126 C1127 1.386 . S
C1126 C1128 1.391 . S
C1127 C1126 1.386 . S
C1127 C1131 1.393 . S
C1128 H1117 0.950 . S
C1128 C1126 1.391 . S
C1128 C1129 1.400 . S
C1129 C1123 1.491 . S
C1129 C1128 1.400 . S
C1129 C1130 1.398 . S
C1130 H1118 0.950 . S
C1130 C1129 1.398 . S
C1130 C1131 1.391 . S
C1131 H1119 0.950 . S
C1131 C1127 1.393 . S
C1131 C1130 1.391 . S
H1132 C1140 0.950 . S
H1133 C1145 0.950 . S
H1134 C1142 0.950 . S
H1135 C1144 0.950 . S
H1136 C1146 0.950 . S
H1137 C1148 0.950 . S
H1138 C1150 0.950 . S
H1139 C1151 0.950 . S
C1140 H1132 0.950 . S
C1140 C1141 1.386 . S
C1140 C1142 1.391 . S
C1141 C1140 1.386 . S
C1141 C1145 1.393 . S
C1142 H1134 0.950 . S
C1142 C1140 1.391 . S
C1142 C1143 1.400 . S
C1143 C1142 1.400 . S
C1143 C1144 1.398 . S
C1143 C1149 1.491 . S
C1144 H1135 0.950 . S
C1144 C1143 1.398 . S
C1144 C1145 1.391 . S
C1145 H1133 0.950 . S
C1145 C1141 1.393 . S
C1145 C1144 1.391 . S
C1146 H1136 0.950 . S
C1146 C1147 1.386 . S
C1146 C1148 1.391 . S
C1147 C1146 1.386 . S
C1147 C1151 1.393 . S
C1148 H1137 0.950 . S
C1148 C1146 1.391 . S
C1148 C1149 1.400 . S
C1149 C1143 1.491 . S
C1149 C1148 1.400 . S
C1149 C1150 1.398 . S
C1150 H1138 0.950 . S
C1150 C1149 1.398 . S
C1150 C1151 1.391 . S
C1151 H1139 0.950 . S
C1151 C1147 1.393 . S
C1151 C1150 1.391 . S
H1152 C1160 0.950 . S
H1153 C1165 0.950 . S
H1154 C1162 0.950 . S
H1155 C1164 0.950 . S
H1156 C1166 0.950 . S
H1157 C1168 0.950 . S
H1158 C1170 0.950 . S
H1159 C1171 0.973 . S
C1160 H1152 0.950 . S
C1160 C1161 1.386 1_655 S
C1160 C1162 1.391 . S
C1161 C1160 1.386 1_455 S
C1161 C1165 1.393 . S
C1162 H1154 0.950 . S
C1162 C1160 1.391 . S
C1162 C1163 1.400 1_655 S
C1163 C1162 1.400 1_455 S
C1163 C1164 1.398 . S
C1163 C1169 1.491 . S
C1164 H1155 0.950 . S
C1164 C1163 1.398 . S
C1164 C1165 1.391 . S
C1165 H1153 0.950 . S
C1165 C1161 1.393 . S
C1165 C1164 1.391 . S
C1166 H1156 0.950 . S
C1166 C1167 1.386 . S
C1166 C1168 1.391 . S
C1167 C1166 1.386 . S
C1167 C1171 1.370 1_455 S
C1168 H1157 0.950 . S
C1168 C1166 1.391 . S
C1168 C1169 1.400 . S
C1169 C1163 1.491 . S
C1169 C1168 1.400 . S
C1169 C1170 1.398 1_455 S
C1170 H1158 0.950 . S
C1170 C1169 1.398 1_655 S
C1170 C1171 1.391 . S
C1171 H1159 0.973 . S
C1171 C1167 1.370 1_655 S
C1171 C1170 1.391 . S
H1172 C1180 0.950 . S
H1173 C1185 0.950 . S
H1174 C1182 0.950 . S
H1175 C1184 0.950 . S
H1176 C1186 0.950 . S
H1177 C1188 0.950 . S
H1178 C1190 0.950 . S
H1179 C1191 0.950 . S
C1180 H1172 0.950 . S
C1180 C1181 1.386 . S
C1180 C1182 1.391 . S
C1181 C1180 1.386 . S
C1181 C1185 1.393 . S
C1182 H1174 0.950 . S
C1182 C1180 1.391 . S
C1182 C1183 1.400 . S
C1183 C1182 1.400 . S
C1183 C1184 1.398 . S
C1183 C1189 1.491 . S
C1184 H1175 0.950 . S
C1184 C1183 1.398 . S
C1184 C1185 1.391 . S
C1185 H1173 0.950 . S
C1185 C1181 1.393 . S
C1185 C1184 1.391 . S
C1186 H1176 0.950 . S
C1186 C1187 1.386 . S
C1186 C1188 1.391 . S
C1187 C1186 1.386 . S
C1187 C1191 1.393 . S
C1188 H1177 0.950 . S
C1188 C1186 1.391 . S
C1188 C1189 1.400 . S
C1189 C1183 1.491 . S
C1189 C1188 1.400 . S
C1189 C1190 1.398 . S
C1190 H1178 0.950 . S
C1190 C1189 1.398 . S
C1190 C1191 1.391 . S
C1191 H1179 0.950 . S
C1191 C1187 1.393 . S
C1191 C1190 1.391 . S
H1192 C1200 0.950 . S
H1193 C1205 0.950 . S
H1194 C1202 0.950 . S
H1195 C1204 0.950 . S
H1196 C1206 0.950 . S
H1197 C1208 0.950 . S
H1198 C1210 0.950 . S
H1199 C1211 0.950 . S
C1200 H1192 0.950 . S
C1200 C1201 1.386 . S
C1200 C1202 1.391 . S
C1201 C1200 1.386 . S
C1201 C1205 1.393 . S
C1202 H1194 0.950 . S
C1202 C1200 1.391 . S
C1202 C1203 1.400 . S
C1203 C1202 1.400 . S
C1203 C1204 1.398 . S
C1203 C1209 1.491 . S
C1204 H1195 0.950 . S
C1204 C1203 1.398 . S
C1204 C1205 1.391 . S
C1205 H1193 0.950 . S
C1205 C1201 1.393 . S
C1205 C1204 1.391 . S
C1206 H1196 0.950 . S
C1206 C1207 1.386 . S
C1206 C1208 1.391 . S
C1207 C1206 1.386 . S
C1207 C1211 1.393 . S
C1208 H1197 0.950 . S
C1208 C1206 1.391 . S
C1208 C1209 1.400 . S
C1209 C1203 1.491 . S
C1209 C1208 1.400 . S
C1209 C1210 1.398 . S
C1210 H1198 0.950 . S
C1210 C1209 1.398 . S
C1210 C1211 1.391 . S
C1211 H1199 0.950 . S
C1211 C1207 1.393 . S
C1211 C1210 1.391 . S
H1212 C1220 0.950 . S
H1213 C1225 0.950 . S
H1214 C1222 0.950 . S
H1215 C1224 0.950 . S
H1216 C1226 0.950 . S
H1217 C1228 0.950 . S
H1218 C1230 0.950 . S
H1219 C1231 0.950 . S
C1220 H1212 0.950 . S
C1220 C1221 1.386 . S
C1220 C1222 1.391 . S
C1221 C1220 1.386 . S
C1221 C1225 1.393 . S
C1222 H1214 0.950 . S
C1222 C1220 1.391 . S
C1222 C1223 1.400 . S
C1223 C1222 1.400 . S
C1223 C1224 1.398 . S
C1223 C1229 1.491 . S
C1224 H1215 0.950 . S
C1224 C1223 1.398 . S
C1224 C1225 1.391 . S
C1225 H1213 0.950 . S
C1225 C1221 1.393 . S
C1225 C1224 1.391 . S
C1226 H1216 0.950 . S
C1226 C1227 1.386 . S
C1226 C1228 1.391 . S
C1227 C1226 1.386 . S
C1227 C1231 1.393 . S
C1228 H1217 0.950 . S
C1228 C1226 1.391 . S
C1228 C1229 1.400 . S
C1229 C1223 1.491 . S
C1229 C1228 1.400 . S
C1229 C1230 1.398 . S
C1230 H1218 0.950 . S
C1230 C1229 1.398 . S
C1230 C1231 1.391 . S
C1231 H1219 0.950 . S
C1231 C1227 1.393 . S
C1231 C1230 1.391 . S
H1232 C1240 0.950 . S
H1233 C1245 0.950 . S
H1234 C1242 0.950 . S
H1235 C1244 0.950 . S
H1236 C1246 0.950 . S
H1237 C1248 0.950 . S
H1238 C1250 0.950 . S
H1239 C1251 0.950 . S
C1240 H1232 0.950 . S
C1240 C1241 1.386 . S
C1240 C1242 1.391 . S
C1241 C1240 1.386 . S
C1241 C1245 1.393 . S
C1242 H1234 0.950 . S
C1242 C1240 1.391 . S
C1242 C1243 1.400 . S
C1243 C1242 1.400 . S
C1243 C1244 1.398 . S
C1243 C1249 1.491 . S
C1244 H1235 0.950 . S
C1244 C1243 1.398 . S
C1244 C1245 1.391 . S
C1245 H1233 0.950 . S
C1245 C1241 1.393 . S
C1245 C1244 1.391 . S
C1246 H1236 0.950 . S
C1246 C1247 1.386 . S
C1246 C1248 1.391 . S
C1247 C1246 1.386 . S
C1247 C1251 1.393 . S
C1248 H1237 0.950 . S
C1248 C1246 1.391 . S
C1248 C1249 1.400 . S
C1249 C1243 1.491 . S
C1249 C1248 1.400 . S
C1249 C1250 1.398 . S
C1250 H1238 0.950 . S
C1250 C1249 1.398 . S
C1250 C1251 1.391 . S
C1251 H1239 0.950 . S
C1251 C1247 1.393 . S
C1251 C1250 1.391 . S
H1252 C1260 0.950 . S
H1253 C1265 0.950 . S
H1254 C1262 0.950 . S
H1255 C1264 0.950 . S
H1256 C1266 0.950 . S
H1257 C1268 0.950 . S
H1258 C1270 0.950 . S
H1259 C1271 0.950 . S
C1260 H1252 0.950 . S
C1260 C1261 1.386 . S
C1260 C1262 1.391 . S
C1261 C1260 1.386 . S
C1261 C1265 1.393 . S
C1262 H1254 0.950 . S
C1262 C1260 1.391 . S
C1262 C1263 1.400 . S
C1263 C1262 1.400 . S
C1263 C1264 1.398 . S
C1263 C1269 1.491 . S
C1264 H1255 0.950 . S
C1264 C1263 1.398 . S
C1264 C1265 1.391 . S
C1265 H1253 0.950 . S
C1265 C1261 1.393 . S
C1265 C1264 1.391 . S
C1266 H1256 0.950 . S
C1266 C1267 1.386 . S
C1266 C1268 1.391 . S
C1267 C1266 1.386 . S
C1267 C1271 1.393 . S
C1268 H1257 0.950 . S
C1268 C1266 1.391 . S
C1268 C1269 1.400 . S
C1269 C1263 1.491 . S
C1269 C1268 1.400 . S
C1269 C1270 1.398 . S
C1270 H1258 0.950 . S
C1270 C1269 1.398 . S
C1270 C1271 1.391 . S
C1271 H1259 0.950 . S
C1271 C1267 1.393 . S
C1271 C1270 1.391 . S
H1272 C1280 0.950 . S
H1273 C1285 0.950 . S
H1274 C1282 0.950 . S
H1275 C1284 0.950 . S
H1276 C1286 0.950 . S
H1277 C1288 0.950 . S
H1278 C1290 0.950 . S
H1279 C1291 0.950 . S
C1280 H1272 0.950 . S
C1280 C1281 1.386 . S
C1280 C1282 1.391 . S
C1281 C1280 1.386 . S
C1281 C1285 1.393 . S
C1282 H1274 0.950 . S
C1282 C1280 1.391 . S
C1282 C1283 1.400 . S
C1283 C1282 1.400 . S
C1283 C1284 1.398 . S
C1283 C1289 1.491 . S
C1284 H1275 0.950 . S
C1284 C1283 1.398 . S
C1284 C1285 1.391 . S
C1285 H1273 0.950 . S
C1285 C1281 1.393 . S
C1285 C1284 1.391 . S
C1286 H1276 0.950 . S
C1286 C1287 1.386 . S
C1286 C1288 1.391 . S
C1287 C1286 1.386 . S
C1287 C1291 1.393 . S
C1288 H1277 0.950 . S
C1288 C1286 1.391 . S
C1288 C1289 1.400 . S
C1289 C1283 1.491 . S
C1289 C1288 1.400 . S
C1289 C1290 1.398 . S
C1290 H1278 0.950 . S
C1290 C1289 1.398 . S
C1290 C1291 1.391 . S
C1291 H1279 0.950 . S
C1291 C1287 1.393 . S
C1291 C1290 1.391 . S
H1292 C1300 0.950 . S
H1293 C1305 0.950 . S
H1294 C1302 0.950 . S
H1295 C1304 0.950 . S
H1296 C1306 0.950 . S
H1297 C1308 0.950 . S
H1298 C1310 0.950 . S
H1299 C1311 0.950 . S
C1300 H1292 0.950 . S
C1300 C1301 1.386 . S
C1300 C1302 1.391 . S
C1301 C1300 1.386 . S
C1301 C1305 1.393 . S
C1302 H1294 0.950 . S
C1302 C1300 1.391 . S
C1302 C1303 1.400 . S
C1303 C1302 1.400 . S
C1303 C1304 1.398 . S
C1303 C1309 1.491 . S
C1304 H1295 0.950 . S
C1304 C1303 1.398 . S
C1304 C1305 1.391 . S
C1305 H1293 0.950 . S
C1305 C1301 1.393 . S
C1305 C1304 1.391 . S
C1306 H1296 0.950 . S
C1306 C1307 1.386 . S
C1306 C1308 1.391 . S
C1307 C1306 1.386 . S
C1307 C1311 1.393 . S
C1308 H1297 0.950 . S
C1308 C1306 1.391 . S
C1308 C1309 1.400 . S
C1309 C1303 1.491 . S
C1309 C1308 1.400 . S
C1309 C1310 1.398 . S
C1310 H1298 0.950 . S
C1310 C1309 1.398 . S
C1310 C1311 1.391 . S
C1311 H1299 0.950 . S
C1311 C1307 1.393 . S
C1311 C1310 1.391 . S
H1312 C1320 0.950 . S
H1313 C1325 0.950 . S
H1314 C1322 0.950 . S
H1315 C1324 0.950 . S
H1316 C1326 0.950 . S
H1317 C1328 0.950 . S
H1318 C1330 0.950 . S
H1319 C1331 0.950 1_455 S
C1320 H1312 0.950 . S
C1320 C1321 1.386 1_545 S
C1320 C1322 1.392 . S
C1321 C1320 1.386 1_565 S
C1321 C1325 1.393 . S
C1322 H1314 0.950 . S
C1322 C1320 1.392 . S
C1322 C1323 1.400 . S
C1323 C1322 1.400 . S
C1323 C1324 1.398 . S
C1323 C1329 1.491 . S
C1324 H1315 0.950 . S
C1324 C1323 1.398 . S
C1324 C1325 1.390 1_545 S
C1325 H1313 0.950 . S
C1325 C1321 1.393 . S
C1325 C1324 1.390 1_565 S
C1326 H1316 0.950 . S
C1326 C1327 1.386 . S
C1326 C1328 1.391 . S
C1327 C1326 1.386 . S
C1327 C1331 1.393 . S
C1328 H1317 0.950 . S
C1328 C1326 1.391 . S
C1328 C1329 1.400 . S
C1329 C1323 1.491 . S
C1329 C1328 1.400 . S
C1329 C1330 1.398 . S
C1330 H1318 0.950 . S
C1330 C1329 1.398 . S
C1330 C1331 1.391 . S
C1331 H1319 0.950 1_655 S
C1331 C1327 1.393 . S
C1331 C1330 1.391 . S
H1332 C1340 0.950 . S
H1333 C1345 0.950 . S
H1334 C1342 0.950 . S
H1335 C1344 0.950 . S
H1336 C1346 0.950 . S
H1337 C1348 0.950 . S
H1338 C1350 0.950 . S
H1339 C1351 0.950 . S
C1340 H1332 0.950 . S
C1340 C1341 1.386 . S
C1340 C1342 1.391 . S
C1341 C1340 1.386 . S
C1341 C1345 1.393 . S
C1342 H1334 0.950 . S
C1342 C1340 1.391 . S
C1342 C1343 1.400 . S
C1343 C1342 1.400 . S
C1343 C1344 1.398 . S
C1343 C1349 1.491 . S
C1344 H1335 0.950 . S
C1344 C1343 1.398 . S
C1344 C1345 1.391 . S
C1345 H1333 0.950 . S
C1345 C1341 1.393 . S
C1345 C1344 1.391 . S
C1346 H1336 0.950 . S
C1346 C1347 1.386 . S
C1346 C1348 1.391 . S
C1347 C1346 1.386 . S
C1347 C1351 1.393 . S
C1348 H1337 0.950 . S
C1348 C1346 1.391 . S
C1348 C1349 1.400 . S
C1349 C1343 1.491 . S
C1349 C1348 1.400 . S
C1349 C1350 1.398 . S
C1350 H1338 0.950 . S
C1350 C1349 1.398 . S
C1350 C1351 1.391 . S
C1351 H1339 0.950 . S
C1351 C1347 1.393 . S
C1351 C1350 1.391 . S
H1352 C1360 0.950 . S
H1353 C1365 0.950 1_565 S
H1354 C1362 0.950 . S
H1355 C1364 0.950 1_565 S
H1356 C1366 0.950 . S
H1357 C1368 0.950 . S
H1358 C1370 0.950 . S
H1359 C1371 0.950 . S
C1360 H1352 0.950 . S
C1360 C1361 1.386 . S
C1360 C1362 1.391 . S
C1361 C1360 1.386 . S
C1361 C1365 1.393 . S
C1362 H1354 0.950 . S
C1362 C1360 1.391 . S
C1362 C1363 1.400 . S
C1363 C1362 1.400 . S
C1363 C1364 1.398 . S
C1363 C1369 1.491 . S
C1364 H1355 0.950 1_545 S
C1364 C1363 1.398 . S
C1364 C1365 1.391 . S
C1365 H1353 0.950 1_545 S
C1365 C1361 1.393 . S
C1365 C1364 1.391 . S
C1366 H1356 0.950 . S
C1366 C1367 1.386 1_565 S
C1366 C1368 1.391 . S
C1367 C1366 1.386 1_545 S
C1367 C1371 1.393 . S
C1368 H1357 0.950 . S
C1368 C1366 1.391 . S
C1368 C1369 1.400 1_565 S
C1369 C1363 1.491 . S
C1369 C1368 1.400 1_545 S
C1369 C1370 1.398 . S
C1370 H1358 0.950 . S
C1370 C1369 1.398 . S
C1370 C1371 1.391 . S
C1371 H1359 0.950 . S
C1371 C1367 1.393 . S
C1371 C1370 1.391 . S
H1372 C1380 0.950 . S
H1373 C1385 0.950 . S
H1374 C1382 0.950 . S
H1375 C1384 0.950 . S
H1376 C1386 0.950 . S
H1377 C1388 0.950 . S
H1378 C1390 0.950 . S
H1379 C1391 0.950 . S
C1380 H1372 0.950 . S
C1380 C1381 1.386 . S
C1380 C1382 1.391 . S
C1381 C1380 1.386 . S
C1381 C1385 1.393 . S
C1382 H1374 0.950 . S
C1382 C1380 1.391 . S
C1382 C1383 1.400 . S
C1383 C1382 1.400 . S
C1383 C1384 1.398 . S
C1383 C1389 1.491 . S
C1384 H1375 0.950 . S
C1384 C1383 1.398 . S
C1384 C1385 1.391 . S
C1385 H1373 0.950 . S
C1385 C1381 1.393 . S
C1385 C1384 1.391 . S
C1386 H1376 0.950 . S
C1386 C1387 1.386 . S
C1386 C1388 1.391 . S
C1387 C1386 1.386 . S
C1387 C1391 1.393 . S
C1388 H1377 0.950 . S
C1388 C1386 1.391 . S
C1388 C1389 1.400 . S
C1389 C1383 1.491 . S
C1389 C1388 1.400 . S
C1389 C1390 1.398 . S
C1390 H1378 0.950 . S
C1390 C1389 1.398 . S
C1390 C1391 1.391 . S
C1391 H1379 0.950 . S
C1391 C1387 1.393 . S
C1391 C1390 1.391 . S
H1392 C1400 0.950 . S
H1393 C1405 0.950 . S
H1394 C1402 0.950 . S
H1395 C1404 0.950 . S
H1396 C1406 0.950 . S
H1397 C1408 0.950 . S
H1398 C1410 0.942 1_545 S
H1399 C1411 0.949 1_545 S
C1400 H1392 0.950 . S
C1400 C1401 1.386 . S
C1400 C1402 1.391 . S
C1401 C1400 1.386 . S
C1401 C1405 1.393 1_545 S
C1402 H1394 0.950 . S
C1402 C1400 1.391 . S
C1402 C1403 1.398 1_545 S
C1403 C1402 1.398 1_565 S
C1403 C1404 1.399 . S
C1403 C1409 1.491 . S
C1404 H1395 0.950 . S
C1404 C1403 1.399 . S
C1404 C1405 1.391 . S
C1405 H1393 0.950 . S
C1405 C1401 1.393 1_565 S
C1405 C1404 1.391 . S
C1406 H1396 0.950 . S
C1406 C1407 1.386 . S
C1406 C1408 1.391 . S
C1407 C1406 1.386 . S
C1407 C1411 1.393 . S
C1408 H1397 0.950 . S
C1408 C1406 1.391 . S
C1408 C1409 1.400 . S
C1409 C1403 1.491 . S
C1409 C1408 1.400 . S
C1409 C1410 1.402 . S
C1410 H1398 0.942 1_565 S
C1410 C1409 1.402 . S
C1410 C1411 1.392 . S
C1411 H1399 0.949 1_565 S
C1411 C1407 1.393 . S
C1411 C1410 1.392 . S
H1412 C1420 0.950 . S
H1413 C1425 0.950 . S
H1414 C1422 0.950 . S
H1415 C1424 0.950 . S
H1416 C1426 0.950 . S
H1417 C1428 0.950 . S
H1418 C1430 0.950 . S
H1419 C1431 0.950 . S
C1420 H1412 0.950 . S
C1420 C1421 1.386 . S
C1420 C1422 1.391 . S
C1421 C1420 1.386 . S
C1421 C1425 1.393 . S
C1422 H1414 0.950 . S
C1422 C1420 1.391 . S
C1422 C1423 1.400 . S
C1423 C1422 1.400 . S
C1423 C1424 1.398 . S
C1423 C1429 1.491 . S
C1424 H1415 0.950 . S
C1424 C1423 1.398 . S
C1424 C1425 1.391 . S
C1425 H1413 0.950 . S
C1425 C1421 1.393 . S
C1425 C1424 1.391 . S
C1426 H1416 0.950 . S
C1426 C1427 1.386 . S
C1426 C1428 1.391 . S
C1427 C1426 1.386 . S
C1427 C1431 1.393 . S
C1428 H1417 0.950 . S
C1428 C1426 1.391 . S
C1428 C1429 1.400 . S
C1429 C1423 1.491 . S
C1429 C1428 1.400 . S
C1429 C1430 1.398 . S
C1430 H1418 0.950 . S
C1430 C1429 1.398 . S
C1430 C1431 1.391 . S
C1431 H1419 0.950 . S
C1431 C1427 1.393 . S
C1431 C1430 1.391 . S
H1432 C1440 0.950 1_565 S
H1433 C1445 0.950 . S
H1434 C1442 0.956 . S
H1435 C1444 0.950 . S
H1436 C1446 0.950 . S
H1437 C1448 0.950 . S
H1438 C1450 0.950 . S
H1439 C1451 0.950 . S
C1440 H1432 0.950 1_545 S
C1440 C1441 1.386 . S
C1440 C1442 1.391 . S
C1441 C1440 1.386 . S
C1441 C1445 1.393 . S
C1442 H1434 0.956 . S
C1442 C1440 1.391 . S
C1442 C1443 1.400 . S
C1443 C1442 1.400 . S
C1443 C1444 1.398 . S
C1443 C1449 1.491 . S
C1444 H1435 0.950 . S
C1444 C1443 1.398 . S
C1444 C1445 1.391 . S
C1445 H1433 0.950 . S
C1445 C1441 1.393 . S
C1445 C1444 1.391 . S
C1446 H1436 0.950 . S
C1446 C1447 1.386 . S
C1446 C1448 1.391 . S
C1447 C1446 1.386 . S
C1447 C1451 1.393 . S
C1448 H1437 0.950 . S
C1448 C1446 1.391 . S
C1448 C1449 1.400 . S
C1449 C1443 1.491 . S
C1449 C1448 1.400 . S
C1449 C1450 1.398 . S
C1450 H1438 0.950 . S
C1450 C1449 1.398 . S
C1450 C1451 1.391 . S
C1451 H1439 0.950 . S
C1451 C1447 1.393 . S
C1451 C1450 1.391 . S
H1452 C1460 0.950 . S
H1453 C1465 0.950 . S
H1454 C1462 0.950 . S
H1455 C1464 0.950 . S
H1456 C1466 0.950 . S
H1457 C1468 0.950 . S
H1458 C1470 0.950 . S
H1459 C1471 0.950 . S
C1460 H1452 0.950 . S
C1460 C1461 1.386 . S
C1460 C1462 1.391 . S
C1461 C1460 1.386 . S
C1461 C1465 1.393 . S
C1462 H1454 0.950 . S
C1462 C1460 1.391 . S
C1462 C1463 1.400 . S
C1463 C1462 1.400 . S
C1463 C1464 1.398 . S
C1463 C1469 1.491 . S
C1464 H1455 0.950 . S
C1464 C1463 1.398 . S
C1464 C1465 1.391 . S
C1465 H1453 0.950 . S
C1465 C1461 1.393 . S
C1465 C1464 1.391 . S
C1466 H1456 0.950 . S
C1466 C1467 1.386 . S
C1466 C1468 1.391 . S
C1467 C1466 1.386 . S
C1467 C1471 1.393 . S
C1468 H1457 0.950 . S
C1468 C1466 1.391 . S
C1468 C1469 1.400 . S
C1469 C1463 1.491 . S
C1469 C1468 1.400 . S
C1469 C1470 1.398 . S
C1470 H1458 0.950 . S
C1470 C1469 1.398 . S
C1470 C1471 1.391 . S
C1471 H1459 0.950 . S
C1471 C1467 1.393 . S
C1471 C1470 1.391 . S
H1472 C1480 0.950 . S
H1473 C1485 0.950 . S
H1474 C1482 0.950 . S
H1475 C1484 0.950 . S
H1476 C1486 0.950 . S
H1477 C1488 0.950 . S
H1478 C1490 0.950 . S
H1479 C1491 0.950 . S
C1480 H1472 0.950 . S
C1480 C1481 1.386 . S
C1480 C1482 1.391 . S
C1481 C1480 1.386 . S
C1481 C1485 1.393 . S
C1482 H1474 0.950 . S
C1482 C1480 1.391 . S
C1482 C1483 1.400 . S
C1483 C1482 1.400 . S
C1483 C1484 1.398 . S
C1483 C1489 1.491 . S
C1484 H1475 0.950 . S
C1484 C1483 1.398 . S
C1484 C1485 1.391 . S
C1485 H1473 0.950 . S
C1485 C1481 1.393 . S
C1485 C1484 1.391 . S
C1486 H1476 0.950 . S
C1486 C1487 1.386 . S
C1486 C1488 1.391 . S
C1487 C1486 1.386 . S
C1487 C1491 1.393 . S
C1488 H1477 0.950 . S
C1488 C1486 1.391 . S
C1488 C1489 1.400 . S
C1489 C1483 1.491 . S
C1489 C1488 1.400 . S
C1489 C1490 1.398 . S
C1490 H1478 0.950 . S
C1490 C1489 1.398 . S
C1490 C1491 1.391 . S
C1491 H1479 0.950 . S
C1491 C1487 1.393 . S
C1491 C1490 1.391 . S
H1492 C1500 0.950 . S
H1493 C1505 0.950 . S
H1494 C1502 0.950 . S
H1495 C1504 0.950 . S
H1496 C1506 0.950 . S
H1497 C1508 0.950 . S
H1498 C1510 0.950 . S
H1499 C1511 0.950 . S
C1500 H1492 0.950 . S
C1500 C1501 1.386 . S
C1500 C1502 1.391 . S
C1501 C1500 1.386 . S
C1501 C1505 1.393 1_554 S
C1502 H1494 0.950 . S
C1502 C1500 1.391 . S
C1502 C1503 1.400 . S
C1503 C1502 1.400 . S
C1503 C1504 1.398 1_554 S
C1503 C1509 1.491 . S
C1504 H1495 0.950 . S
C1504 C1503 1.398 1_556 S
C1504 C1505 1.391 . S
C1505 H1493 0.950 . S
C1505 C1501 1.393 1_556 S
C1505 C1504 1.391 . S
C1506 H1496 0.950 . S
C1506 C1507 1.386 1_556 S
C1506 C1508 1.391 . S
C1507 C1506 1.386 1_554 S
C1507 C1511 1.393 . S
C1508 H1497 0.950 . S
C1508 C1506 1.391 . S
C1508 C1509 1.400 1_556 S
C1509 C1503 1.491 . S
C1509 C1508 1.400 1_554 S
C1509 C1510 1.398 . S
C1510 H1498 0.950 . S
C1510 C1509 1.398 . S
C1510 C1511 1.391 . S
C1511 H1499 0.950 . S
C1511 C1507 1.393 . S
C1511 C1510 1.391 . S
H1512 C1520 0.950 . S
H1513 C1525 0.950 . S
H1514 C1522 0.950 . S
H1515 C1524 0.950 . S
H1516 C1526 0.950 . S
H1517 C1528 0.950 . S
H1518 C1530 0.950 . S
H1519 C1531 0.950 . S
C1520 H1512 0.950 . S
C1520 C1521 1.386 . S
C1520 C1522 1.391 . S
C1521 C1520 1.386 . S
C1521 C1525 1.393 . S
C1522 H1514 0.950 . S
C1522 C1520 1.391 . S
C1522 C1523 1.400 . S
C1523 C1522 1.400 . S
C1523 C1524 1.398 . S
C1523 C1529 1.491 . S
C1524 H1515 0.950 . S
C1524 C1523 1.398 . S
C1524 C1525 1.391 . S
C1525 H1513 0.950 . S
C1525 C1521 1.393 . S
C1525 C1524 1.391 . S
C1526 H1516 0.950 . S
C1526 C1527 1.386 . S
C1526 C1528 1.391 . S
C1527 C1526 1.386 . S
C1527 C1531 1.393 . S
C1528 H1517 0.950 . S
C1528 C1526 1.391 . S
C1528 C1529 1.400 . S
C1529 C1523 1.491 . S
C1529 C1528 1.400 . S
C1529 C1530 1.398 . S
C1530 H1518 0.950 . S
C1530 C1529 1.398 . S
C1530 C1531 1.391 . S
C1531 H1519 0.950 . S
C1531 C1527 1.393 . S
C1531 C1530 1.391 . S
H1532 C1540 0.950 . S
H1533 C1545 0.950 . S
H1534 C1542 0.950 . S
H1535 C1544 0.950 . S
H1536 C1546 0.950 . S
H1537 C1548 0.950 . S
H1538 C1550 0.950 . S
H1539 C1551 0.950 . S
C1540 H1532 0.950 . S
C1540 C1541 1.386 . S
C1540 C1542 1.391 . S
C1541 C1540 1.386 . S
C1541 C1545 1.393 . S
C1542 H1534 0.950 . S
C1542 C1540 1.391 . S
C1542 C1543 1.400 . S
C1543 C1542 1.400 . S
C1543 C1544 1.398 . S
C1543 C1549 1.491 . S
C1544 H1535 0.950 . S
C1544 C1543 1.398 . S
C1544 C1545 1.391 . S
C1545 H1533 0.950 . S
C1545 C1541 1.393 . S
C1545 C1544 1.391 . S
C1546 H1536 0.950 . S
C1546 C1547 1.386 . S
C1546 C1548 1.391 . S
C1547 C1546 1.386 . S
C1547 C1551 1.393 . S
C1548 H1537 0.950 . S
C1548 C1546 1.391 . S
C1548 C1549 1.400 . S
C1549 C1543 1.491 . S
C1549 C1548 1.400 . S
C1549 C1550 1.398 . S
C1550 H1538 0.950 . S
C1550 C1549 1.398 . S
C1550 C1551 1.391 . S
C1551 H1539 0.950 . S
C1551 C1547 1.393 . S
C1551 C1550 1.391 . S
H1552 C1560 0.950 . S
H1553 C1565 0.950 . S
H1554 C1562 0.950 . S
H1555 C1564 0.950 . S
H1556 C1566 0.950 . S
H1557 C1568 0.950 . S
H1558 C1570 0.950 . S
H1559 C1571 0.950 . S
C1560 H1552 0.950 . S
C1560 C1561 1.386 . S
C1560 C1562 1.391 . S
C1561 C1560 1.386 . S
C1561 C1565 1.393 . S
C1562 H1554 0.950 . S
C1562 C1560 1.391 . S
C1562 C1563 1.400 . S
C1563 C1562 1.400 . S
C1563 C1564 1.398 . S
C1563 C1569 1.491 . S
C1564 H1555 0.950 . S
C1564 C1563 1.398 . S
C1564 C1565 1.391 . S
C1565 H1553 0.950 . S
C1565 C1561 1.393 . S
C1565 C1564 1.391 . S
C1566 H1556 0.950 . S
C1566 C1567 1.386 . S
C1566 C1568 1.391 . S
C1567 C1566 1.386 . S
C1567 C1571 1.393 . S
C1568 H1557 0.950 . S
C1568 C1566 1.391 . S
C1568 C1569 1.400 . S
C1569 C1563 1.491 . S
C1569 C1568 1.400 . S
C1569 C1570 1.398 . S
C1570 H1558 0.950 . S
C1570 C1569 1.398 . S
C1570 C1571 1.391 . S
C1571 H1559 0.950 . S
C1571 C1567 1.393 . S
C1571 C1570 1.391 . S
H1572 C1580 0.950 . S
H1573 C1585 0.950 . S
H1574 C1582 0.950 . S
H1575 C1584 0.950 . S
H1576 C1586 0.950 . S
H1577 C1588 0.950 . S
H1578 C1590 0.950 . S
H1579 C1591 0.950 . S
C1580 H1572 0.950 . S
C1580 C1581 1.386 . S
C1580 C1582 1.391 . S
C1581 C1580 1.386 . S
C1581 C1585 1.393 . S
C1582 H1574 0.950 . S
C1582 C1580 1.391 . S
C1582 C1583 1.400 . S
C1583 C1582 1.400 . S
C1583 C1584 1.398 . S
C1583 C1589 1.491 . S
C1584 H1575 0.950 . S
C1584 C1583 1.398 . S
C1584 C1585 1.391 . S
C1585 H1573 0.950 . S
C1585 C1581 1.393 . S
C1585 C1584 1.391 . S
C1586 H1576 0.950 . S
C1586 C1587 1.386 . S
C1586 C1588 1.391 . S
C1587 C1586 1.386 . S
C1587 C1591 1.393 . S
C1588 H1577 0.950 . S
C1588 C1586 1.391 . S
C1588 C1589 1.400 . S
C1589 C1583 1.491 . S
C1589 C1588 1.400 . S
C1589 C1590 1.398 . S
C1590 H1578 0.950 . S
C1590 C1589 1.398 . S
C1590 C1591 1.391 . S
C1591 H1579 0.950 . S
C1591 C1587 1.393 . S
C1591 C1590 1.391 . S
H1592 C1600 0.950 . S
H1593 C1605 0.950 . S
H1594 C1602 0.950 . S
H1595 C1604 0.950 . S
H1596 C1606 0.950 . S
H1597 C1608 0.950 . S
H1598 C1610 0.950 . S
H1599 C1611 0.950 . S
C1600 H1592 0.950 . S
C1600 C1601 1.386 . S
C1600 C1602 1.391 . S
C1601 C1600 1.386 . S
C1601 C1605 1.393 . S
C1602 H1594 0.950 . S
C1602 C1600 1.391 . S
C1602 C1603 1.400 . S
C1603 C1602 1.400 . S
C1603 C1604 1.398 . S
C1603 C1609 1.491 . S
C1604 H1595 0.950 . S
C1604 C1603 1.398 . S
C1604 C1605 1.391 . S
C1605 H1593 0.950 . S
C1605 C1601 1.393 . S
C1605 C1604 1.391 . S
C1606 H1596 0.950 . S
C1606 C1607 1.386 . S
C1606 C1608 1.391 . S
C1607 C1606 1.386 . S
C1607 C1611 1.393 . S
C1608 H1597 0.950 . S
C1608 C1606 1.391 . S
C1608 C1609 1.400 . S
C1609 C1603 1.491 . S
C1609 C1608 1.400 . S
C1609 C1610 1.398 . S
C1610 H1598 0.950 . S
C1610 C1609 1.398 . S
C1610 C1611 1.391 . S
C1611 H1599 0.950 . S
C1611 C1607 1.393 . S
C1611 C1610 1.391 . S
H1612 C1620 0.950 . S
H1613 C1625 0.950 . S
H1614 C1622 0.950 . S
H1615 C1624 0.950 . S
H1616 C1626 0.950 . S
H1617 C1628 0.950 . S
H1618 C1630 0.950 . S
H1619 C1631 0.950 . S
C1620 H1612 0.950 . S
C1620 C1621 1.386 . S
C1620 C1622 1.391 . S
C1621 C1620 1.386 . S
C1621 C1625 1.393 . S
C1622 H1614 0.950 . S
C1622 C1620 1.391 . S
C1622 C1623 1.400 . S
C1623 C1622 1.400 . S
C1623 C1624 1.398 . S
C1623 C1629 1.491 . S
C1624 H1615 0.950 . S
C1624 C1623 1.398 . S
C1624 C1625 1.391 . S
C1625 H1613 0.950 . S
C1625 C1621 1.393 . S
C1625 C1624 1.391 . S
C1626 H1616 0.950 . S
C1626 C1627 1.386 . S
C1626 C1628 1.391 . S
C1627 C1626 1.386 . S
C1627 C1631 1.393 . S
C1628 H1617 0.950 . S
C1628 C1626 1.391 . S
C1628 C1629 1.400 . S
C1629 C1623 1.491 . S
C1629 C1628 1.400 . S
C1629 C1630 1.398 . S
C1630 H1618 0.950 . S
C1630 C1629 1.398 . S
C1630 C1631 1.391 . S
C1631 H1619 0.950 . S
C1631 C1627 1.393 . S
C1631 C1630 1.391 . S
H1632 C1640 0.950 . S
H1633 C1645 0.950 . S
H1634 C1642 0.950 . S
H1635 C1644 0.950 . S
H1636 C1646 0.950 . S
H1637 C1648 0.950 . S
H1638 C1650 0.950 . S
H1639 C1651 0.950 . S
C1640 H1632 0.950 . S
C1640 C1641 1.386 . S
C1640 C1642 1.391 . S
C1641 C1640 1.386 . S
C1641 C1645 1.393 . S
C1642 H1634 0.950 . S
C1642 C1640 1.391 . S
C1642 C1643 1.400 . S
C1643 C1642 1.400 . S
C1643 C1644 1.398 . S
C1643 C1649 1.491 . S
C1644 H1635 0.950 . S
C1644 C1643 1.398 . S
C1644 C1645 1.391 . S
C1645 H1633 0.950 . S
C1645 C1641 1.393 . S
C1645 C1644 1.391 . S
C1646 H1636 0.950 . S
C1646 C1647 1.386 . S
C1646 C1648 1.391 . S
C1647 C1646 1.386 . S
C1647 C1651 1.393 . S
C1648 H1637 0.950 . S
C1648 C1646 1.391 . S
C1648 C1649 1.400 . S
C1649 C1643 1.491 . S
C1649 C1648 1.400 . S
C1649 C1650 1.398 . S
C1650 H1638 0.950 . S
C1650 C1649 1.398 . S
C1650 C1651 1.391 . S
C1651 H1639 0.950 . S
C1651 C1647 1.393 . S
C1651 C1650 1.391 . S
H1652 C1660 0.950 . S
H1653 C1665 0.950 . S
H1654 C1662 0.950 . S
H1655 C1664 0.950 . S
H1656 C1666 0.950 . S
H1657 C1668 0.950 . S
H1658 C1670 0.950 . S
H1659 C1671 0.950 . S
C1660 H1652 0.950 . S
C1660 C1661 1.386 . S
C1660 C1662 1.391 . S
C1661 C1660 1.386 . S
C1661 C1665 1.393 . S
C1662 H1654 0.950 . S
C1662 C1660 1.391 . S
C1662 C1663 1.400 . S
C1663 C1662 1.400 . S
C1663 C1664 1.398 . S
C1663 C1669 1.491 . S
C1664 H1655 0.950 . S
C1664 C1663 1.398 . S
C1664 C1665 1.391 . S
C1665 H1653 0.950 . S
C1665 C1661 1.393 . S
C1665 C1664 1.391 . S
C1666 H1656 0.950 . S
C1666 C1667 1.386 . S
C1666 C1668 1.391 . S
C1667 C1666 1.386 . S
C1667 C1671 1.393 . S
C1668 H1657 0.950 . S
C1668 C1666 1.391 . S
C1668 C1669 1.400 . S
C1669 C1663 1.491 . S
C1669 C1668 1.400 . S
C1669 C1670 1.398 . S
C1670 H1658 0.950 . S
C1670 C1669 1.398 . S
C1670 C1671 1.391 . S
C1671 H1659 0.950 . S
C1671 C1667 1.393 . S
C1671 C1670 1.391 . S
H1672 C1680 0.950 . S
H1673 C1685 0.950 . S
H1674 C1682 0.950 . S
H1675 C1684 0.950 . S
H1676 C1686 0.950 . S
H1677 C1688 0.950 . S
H1678 C1690 0.950 . S
H1679 C1691 0.950 . S
C1680 H1672 0.950 . S
C1680 C1681 1.386 . S
C1680 C1682 1.391 . S
C1681 C1680 1.386 . S
C1681 C1685 1.393 . S
C1682 H1674 0.950 . S
C1682 C1680 1.391 . S
C1682 C1683 1.400 . S
C1683 C1682 1.400 . S
C1683 C1684 1.398 . S
C1683 C1689 1.491 . S
C1684 H1675 0.950 . S
C1684 C1683 1.398 . S
C1684 C1685 1.391 . S
C1685 H1673 0.950 . S
C1685 C1681 1.393 . S
C1685 C1684 1.391 . S
C1686 H1676 0.950 . S
C1686 C1687 1.386 . S
C1686 C1688 1.391 . S
C1687 C1686 1.386 . S
C1687 C1691 1.393 . S
C1688 H1677 0.950 . S
C1688 C1686 1.391 . S
C1688 C1689 1.400 . S
C1689 C1683 1.491 . S
C1689 C1688 1.400 . S
C1689 C1690 1.398 . S
C1690 H1678 0.950 . S
C1690 C1689 1.398 . S
C1690 C1691 1.391 . S
C1691 H1679 0.950 . S
C1691 C1687 1.393 . S
C1691 C1690 1.391 . S
H1692 C1700 0.950 . S
H1693 C1705 0.950 . S
H1694 C1702 0.950 . S
H1695 C1704 0.950 . S
H1696 C1706 0.950 . S
H1697 C1708 0.950 . S
H1698 C1710 0.950 . S
H1699 C1711 0.950 . S
C1700 H1692 0.950 . S
C1700 C1701 1.386 . S
C1700 C1702 1.391 . S
C1701 C1700 1.386 . S
C1701 C1705 1.393 . S
C1702 H1694 0.950 . S
C1702 C1700 1.391 . S
C1702 C1703 1.400 . S
C1703 C1702 1.400 . S
C1703 C1704 1.398 . S
C1703 C1709 1.491 . S
C1704 H1695 0.950 . S
C1704 C1703 1.398 . S
C1704 C1705 1.391 . S
C1705 H1693 0.950 . S
C1705 C1701 1.393 . S
C1705 C1704 1.391 . S
C1706 H1696 0.950 . S
C1706 C1707 1.386 . S
C1706 C1708 1.391 . S
C1707 C1706 1.386 . S
C1707 C1711 1.393 . S
C1708 H1697 0.950 . S
C1708 C1706 1.391 . S
C1708 C1709 1.400 . S
C1709 C1703 1.491 . S
C1709 C1708 1.400 . S
C1709 C1710 1.398 . S
C1710 H1698 0.950 . S
C1710 C1709 1.398 . S
C1710 C1711 1.391 . S
C1711 H1699 0.950 . S
C1711 C1707 1.393 . S
C1711 C1710 1.391 . S
H1712 C1720 0.950 . S
H1713 C1725 0.950 . S
H1714 C1722 0.950 . S
H1715 C1724 0.950 . S
H1716 C1726 0.950 . S
H1717 C1728 0.950 . S
H1718 C1730 0.950 . S
H1719 C1731 0.950 . S
C1720 H1712 0.950 . S
C1720 C1721 1.386 . S
C1720 C1722 1.391 . S
C1721 C1720 1.386 . S
C1721 C1725 1.393 . S
C1722 H1714 0.950 . S
C1722 C1720 1.391 . S
C1722 C1723 1.400 . S
C1723 C1722 1.400 . S
C1723 C1724 1.398 . S
C1723 C1729 1.491 . S
C1724 H1715 0.950 . S
C1724 C1723 1.398 . S
C1724 C1725 1.391 . S
C1725 H1713 0.950 . S
C1725 C1721 1.393 . S
C1725 C1724 1.391 . S
C1726 H1716 0.950 . S
C1726 C1727 1.386 . S
C1726 C1728 1.391 . S
C1727 C1726 1.386 . S
C1727 C1731 1.393 . S
C1728 H1717 0.950 . S
C1728 C1726 1.391 . S
C1728 C1729 1.400 . S
C1729 C1723 1.491 . S
C1729 C1728 1.400 . S
C1729 C1730 1.398 . S
C1730 H1718 0.950 . S
C1730 C1729 1.398 . S
C1730 C1731 1.391 . S
C1731 H1719 0.950 . S
C1731 C1727 1.393 . S
C1731 C1730 1.391 . S
H1732 C1740 0.950 . S
H1733 C1745 0.950 . S
H1734 C1742 0.950 . S
H1735 C1744 0.950 . S
H1736 C1746 0.950 . S
H1737 C1748 0.950 . S
H1738 C1750 0.950 . S
H1739 C1751 0.950 . S
C1740 H1732 0.950 . S
C1740 C1741 1.386 . S
C1740 C1742 1.391 . S
C1741 C1740 1.386 . S
C1741 C1745 1.393 . S
C1742 H1734 0.950 . S
C1742 C1740 1.391 . S
C1742 C1743 1.400 . S
C1743 C1742 1.400 . S
C1743 C1744 1.398 . S
C1743 C1749 1.491 . S
C1744 H1735 0.950 . S
C1744 C1743 1.398 . S
C1744 C1745 1.391 . S
C1745 H1733 0.950 . S
C1745 C1741 1.393 . S
C1745 C1744 1.391 . S
C1746 H1736 0.950 . S
C1746 C1747 1.386 . S
C1746 C1748 1.391 . S
C1747 C1746 1.386 . S
C1747 C1751 1.393 . S
C1748 H1737 0.950 . S
C1748 C1746 1.391 . S
C1748 C1749 1.400 . S
C1749 C1743 1.491 . S
C1749 C1748 1.400 . S
C1749 C1750 1.398 . S
C1750 H1738 0.950 . S
C1750 C1749 1.398 . S
C1750 C1751 1.391 . S
C1751 H1739 0.950 . S
C1751 C1747 1.393 . S
C1751 C1750 1.391 . S
H1752 C1760 0.950 . S
H1753 C1765 0.950 . S
H1754 C1762 0.950 . S
H1755 C1764 0.950 . S
H1756 C1766 0.950 1_655 S
H1757 C1768 0.950 . S
H1758 C1770 0.950 . S
H1759 C1771 0.950 . S
C1760 H1752 0.950 . S
C1760 C1761 1.386 . S
C1760 C1762 1.391 . S
C1761 C1760 1.386 . S
C1761 C1765 1.393 1_455 S
C1762 H1754 0.950 . S
C1762 C1760 1.391 . S
C1762 C1763 1.400 . S
C1763 C1762 1.400 . S
C1763 C1764 1.398 1_455 S
C1763 C1769 1.491 . S
C1764 H1755 0.950 . S
C1764 C1763 1.398 1_655 S
C1764 C1765 1.391 . S
C1765 H1753 0.950 . S
C1765 C1761 1.393 1_655 S
C1765 C1764 1.391 . S
C1766 H1756 0.950 1_455 S
C1766 C1767 1.386 . S
C1766 C1768 1.391 1_455 S
C1767 C1766 1.386 . S
C1767 C1771 1.393 . S
C1768 H1757 0.950 . S
C1768 C1766 1.391 1_655 S
C1768 C1769 1.400 1_655 S
C1769 C1763 1.491 . S
C1769 C1768 1.400 1_455 S
C1769 C1770 1.398 . S
C1770 H1758 0.950 . S
C1770 C1769 1.398 . S
C1770 C1771 1.391 . S
C1771 H1759 0.950 . S
C1771 C1767 1.393 . S
C1771 C1770 1.391 . S
H1772 C1780 0.950 . S
H1773 C1785 0.950 . S
H1774 C1782 0.950 . S
H1775 C1784 0.950 . S
H1776 C1786 0.950 . S
H1777 C1788 0.950 . S
H1778 C1790 0.950 . S
H1779 C1791 0.950 . S
C1780 H1772 0.950 . S
C1780 C1781 1.386 . S
C1780 C1782 1.391 . S
C1781 C1780 1.386 . S
C1781 C1785 1.393 . S
C1782 H1774 0.950 . S
C1782 C1780 1.391 . S
C1782 C1783 1.400 . S
C1783 C1782 1.400 . S
C1783 C1784 1.398 . S
C1783 C1789 1.491 . S
C1784 H1775 0.950 . S
C1784 C1783 1.398 . S
C1784 C1785 1.391 . S
C1785 H1773 0.950 . S
C1785 C1781 1.393 . S
C1785 C1784 1.391 . S
C1786 H1776 0.950 . S
C1786 C1787 1.386 . S
C1786 C1788 1.391 . S
C1787 C1786 1.386 . S
C1787 C1791 1.393 . S
C1788 H1777 0.950 . S
C1788 C1786 1.391 . S
C1788 C1789 1.400 . S
C1789 C1783 1.491 . S
C1789 C1788 1.400 . S
C1789 C1790 1.398 . S
C1790 H1778 0.950 . S
C1790 C1789 1.398 . S
C1790 C1791 1.391 . S
C1791 H1779 0.950 . S
C1791 C1787 1.393 . S
C1791 C1790 1.391 . S
H1792 C1800 0.950 . S
H1793 C1805 0.950 . S
H1794 C1802 0.950 . S
H1795 C1804 0.950 . S
H1796 C1806 0.950 . S
H1797 C1808 0.950 . S
H1798 C1810 0.950 . S
H1799 C1811 0.950 . S
C1800 H1792 0.950 . S
C1800 C1801 1.386 . S
C1800 C1802 1.391 . S
C1801 C1800 1.386 . S
C1801 C1805 1.393 . S
C1802 H1794 0.950 . S
C1802 C1800 1.391 . S
C1802 C1803 1.400 . S
C1803 C1802 1.400 . S
C1803 C1804 1.398 . S
C1803 C1809 1.491 . S
C1804 H1795 0.950 . S
C1804 C1803 1.398 . S
C1804 C1805 1.391 . S
C1805 H1793 0.950 . S
C1805 C1801 1.393 . S
C1805 C1804 1.391 . S
C1806 H1796 0.950 . S
C1806 C1807 1.386 . S
C1806 C1808 1.391 . S
C1807 C1806 1.386 . S
C1807 C1811 1.393 . S
C1808 H1797 0.950 . S
C1808 C1806 1.391 . S
C1808 C1809 1.400 . S
C1809 C1803 1.491 . S
C1809 C1808 1.400 . S
C1809 C1810 1.398 . S
C1810 H1798 0.950 . S
C1810 C1809 1.398 . S
C1810 C1811 1.391 . S
C1811 H1799 0.950 . S
C1811 C1807 1.393 . S
C1811 C1810 1.391 . S
H1812 C1820 0.950 . S
H1813 C1825 0.950 . S
H1814 C1822 0.950 . S
H1815 C1824 0.950 . S
H1816 C1826 0.950 . S
H1817 C1828 0.950 . S
H1818 C1830 0.950 . S
H1819 C1831 0.950 . S
C1820 H1812 0.950 . S
C1820 C1821 1.386 . S
C1820 C1822 1.391 . S
C1821 C1820 1.386 . S
C1821 C1825 1.393 . S
C1822 H1814 0.950 . S
C1822 C1820 1.391 . S
C1822 C1823 1.400 . S
C1823 C1822 1.400 . S
C1823 C1824 1.398 . S
C1823 C1829 1.491 . S
C1824 H1815 0.950 . S
C1824 C1823 1.398 . S
C1824 C1825 1.391 . S
C1825 H1813 0.950 . S
C1825 C1821 1.393 . S
C1825 C1824 1.391 . S
C1826 H1816 0.950 . S
C1826 C1827 1.386 . S
C1826 C1828 1.391 . S
C1827 C1826 1.386 . S
C1827 C1831 1.393 . S
C1828 H1817 0.950 . S
C1828 C1826 1.391 . S
C1828 C1829 1.400 . S
C1829 C1823 1.491 . S
C1829 C1828 1.400 . S
C1829 C1830 1.398 . S
C1830 H1818 0.950 . S
C1830 C1829 1.398 . S
C1830 C1831 1.391 . S
C1831 H1819 0.950 . S
C1831 C1827 1.393 . S
C1831 C1830 1.391 . S
H1832 C1840 0.950 . S
H1833 C1845 0.950 . S
H1834 C1842 0.950 . S
H1835 C1844 0.950 . S
H1836 C1846 0.950 . S
H1837 C1848 0.950 . S
H1838 C1850 0.950 . S
H1839 C1851 0.950 . S
C1840 H1832 0.950 . S
C1840 C1841 1.386 . S
C1840 C1842 1.391 . S
C1841 C1840 1.386 . S
C1841 C1845 1.393 . S
C1842 H1834 0.950 . S
C1842 C1840 1.391 . S
C1842 C1843 1.400 . S
C1843 C1842 1.400 . S
C1843 C1844 1.398 . S
C1843 C1849 1.491 . S
C1844 H1835 0.950 . S
C1844 C1843 1.398 . S
C1844 C1845 1.391 . S
C1845 H1833 0.950 . S
C1845 C1841 1.393 . S
C1845 C1844 1.391 . S
C1846 H1836 0.950 . S
C1846 C1847 1.386 . S
C1846 C1848 1.391 . S
C1847 C1846 1.386 . S
C1847 C1851 1.393 . S
C1848 H1837 0.950 . S
C1848 C1846 1.391 . S
C1848 C1849 1.400 . S
C1849 C1843 1.491 . S
C1849 C1848 1.400 . S
C1849 C1850 1.398 . S
C1850 H1838 0.950 . S
C1850 C1849 1.398 . S
C1850 C1851 1.391 . S
C1851 H1839 0.950 . S
C1851 C1847 1.393 . S
C1851 C1850 1.391 . S
H1852 C1860 0.950 . S
H1853 C1865 0.950 . S
H1854 C1862 0.950 . S
H1855 C1864 0.950 . S
H1856 C1866 0.950 . S
H1857 C1868 0.950 . S
H1858 C1870 0.950 . S
H1859 C1871 0.950 . S
C1860 H1852 0.950 . S
C1860 C1861 1.386 . S
C1860 C1862 1.391 . S
C1861 C1860 1.386 . S
C1861 C1865 1.393 . S
C1862 H1854 0.950 . S
C1862 C1860 1.391 . S
C1862 C1863 1.400 . S
C1863 C1862 1.400 . S
C1863 C1864 1.398 . S
C1863 C1869 1.491 . S
C1864 H1855 0.950 . S
C1864 C1863 1.398 . S
C1864 C1865 1.391 . S
C1865 H1853 0.950 . S
C1865 C1861 1.393 . S
C1865 C1864 1.391 . S
C1866 H1856 0.950 . S
C1866 C1867 1.386 . S
C1866 C1868 1.391 . S
C1867 C1866 1.386 . S
C1867 C1871 1.393 . S
C1868 H1857 0.950 . S
C1868 C1866 1.391 . S
C1868 C1869 1.400 . S
C1869 C1863 1.491 . S
C1869 C1868 1.400 . S
C1869 C1870 1.398 . S
C1870 H1858 0.950 . S
C1870 C1869 1.398 . S
C1870 C1871 1.391 . S
C1871 H1859 0.950 . S
C1871 C1867 1.393 . S
C1871 C1870 1.391 . S
H1872 C1880 0.950 . S
H1873 C1885 0.950 . S
H1874 C1882 0.950 . S
H1875 C1884 0.950 . S
H1876 C1886 0.950 . S
H1877 C1888 0.950 . S
H1878 C1890 0.950 . S
H1879 C1891 0.950 . S
C1880 H1872 0.950 . S
C1880 C1881 1.386 . S
C1880 C1882 1.391 . S
C1881 C1880 1.386 . S
C1881 C1885 1.393 . S
C1882 H1874 0.950 . S
C1882 C1880 1.391 . S
C1882 C1883 1.400 . S
C1883 C1882 1.400 . S
C1883 C1884 1.398 . S
C1883 C1889 1.491 . S
C1884 H1875 0.950 . S
C1884 C1883 1.398 . S
C1884 C1885 1.391 . S
C1885 H1873 0.950 . S
C1885 C1881 1.393 . S
C1885 C1884 1.391 . S
C1886 H1876 0.950 . S
C1886 C1887 1.386 . S
C1886 C1888 1.391 . S
C1887 C1886 1.386 . S
C1887 C1891 1.393 . S
C1888 H1877 0.950 . S
C1888 C1886 1.391 . S
C1888 C1889 1.400 . S
C1889 C1883 1.491 . S
C1889 C1888 1.400 . S
C1889 C1890 1.398 . S
C1890 H1878 0.950 . S
C1890 C1889 1.398 . S
C1890 C1891 1.391 . S
C1891 H1879 0.950 . S
C1891 C1887 1.393 . S
C1891 C1890 1.391 . S
H1892 C1900 0.950 . S
H1893 C1905 0.950 . S
H1894 C1902 0.950 . S
H1895 C1904 0.950 . S
H1896 C1906 0.950 . S
H1897 C1908 0.950 . S
H1898 C1910 0.950 . S
H1899 C1911 0.950 . S
C1900 H1892 0.950 . S
C1900 C1901 1.386 . S
C1900 C1902 1.391 . S
C1901 C1900 1.386 . S
C1901 C1905 1.393 . S
C1902 H1894 0.950 . S
C1902 C1900 1.391 . S
C1902 C1903 1.400 . S
C1903 C1902 1.400 . S
C1903 C1904 1.398 . S
C1903 C1909 1.491 . S
C1904 H1895 0.950 . S
C1904 C1903 1.398 . S
C1904 C1905 1.391 . S
C1905 H1893 0.950 . S
C1905 C1901 1.393 . S
C1905 C1904 1.391 . S
C1906 H1896 0.950 . S
C1906 C1907 1.386 . S
C1906 C1908 1.391 . S
C1907 C1906 1.386 . S
C1907 C1911 1.393 . S
C1908 H1897 0.950 . S
C1908 C1906 1.391 . S
C1908 C1909 1.400 . S
C1909 C1903 1.491 . S
C1909 C1908 1.400 . S
C1909 C1910 1.398 . S
C1910 H1898 0.950 . S
C1910 C1909 1.398 . S
C1910 C1911 1.391 . S
C1911 H1899 0.950 . S
C1911 C1907 1.393 . S
C1911 C1910 1.391 . S
H1912 C1920 0.950 . S
H1913 C1925 0.950 . S
H1914 C1922 0.950 . S
H1915 C1924 0.950 . S
H1916 C1926 0.950 . S
H1917 C1928 0.950 . S
H1918 C1930 0.950 . S
H1919 C1931 0.950 . S
C1920 H1912 0.950 . S
C1920 C1921 1.386 . S
C1920 C1922 1.391 . S
C1921 C1920 1.386 . S
C1921 C1925 1.393 . S
C1922 H1914 0.950 . S
C1922 C1920 1.391 . S
C1922 C1923 1.400 . S
C1923 C1922 1.400 . S
C1923 C1924 1.398 . S
C1923 C1929 1.491 . S
C1924 H1915 0.950 . S
C1924 C1923 1.398 . S
C1924 C1925 1.391 . S
C1925 H1913 0.950 . S
C1925 C1921 1.393 . S
C1925 C1924 1.391 . S
C1926 H1916 0.950 . S
C1926 C1927 1.386 . S
C1926 C1928 1.391 . S
C1927 C1926 1.386 . S
C1927 C1931 1.393 . S
C1928 H1917 0.950 . S
C1928 C1926 1.391 . S
C1928 C1929 1.400 . S
C1929 C1923 1.491 . S
C1929 C1928 1.400 . S
C1929 C1930 1.398 . S
C1930 H1918 0.950 . S
C1930 C1929 1.398 . S
C1930 C1931 1.391 . S
C1931 H1919 0.950 . S
C1931 C1927 1.393 . S
C1931 C1930 1.391 . S
H1932 C1940 0.950 . S
H1933 C1945 0.950 . S
H1934 C1942 0.950 . S
H1935 C1944 0.950 . S
H1936 C1946 0.950 . S
H1937 C1948 0.950 . S
H1938 C1950 0.950 . S
H1939 C1951 0.950 . S
C1940 H1932 0.950 . S
C1940 C1941 1.386 . S
C1940 C1942 1.391 . S
C1941 C1940 1.386 . S
C1941 C1945 1.393 . S
C1942 H1934 0.950 . S
C1942 C1940 1.391 . S
C1942 C1943 1.400 . S
C1943 C1942 1.400 . S
C1943 C1944 1.398 . S
C1943 C1949 1.491 . S
C1944 H1935 0.950 . S
C1944 C1943 1.398 . S
C1944 C1945 1.391 . S
C1945 H1933 0.950 . S
C1945 C1941 1.393 . S
C1945 C1944 1.391 . S
C1946 H1936 0.950 . S
C1946 C1947 1.386 . S
C1946 C1948 1.391 . S
C1947 C1946 1.386 . S
C1947 C1951 1.393 . S
C1948 H1937 0.950 . S
C1948 C1946 1.391 . S
C1948 C1949 1.400 . S
C1949 C1943 1.491 . S
C1949 C1948 1.400 . S
C1949 C1950 1.398 . S
C1950 H1938 0.950 . S
C1950 C1949 1.398 . S
C1950 C1951 1.391 . S
C1951 H1939 0.950 . S
C1951 C1947 1.393 . S
C1951 C1950 1.391 . S
H1952 C1960 0.950 . S
H1953 C1965 0.950 . S
H1954 C1962 0.950 . S
H1955 C1964 0.950 . S
H1956 C1966 0.950 . S
H1957 C1968 0.950 . S
H1958 C1970 0.950 . S
H1959 C1971 0.950 . S
C1960 H1952 0.950 . S
C1960 C1961 1.386 . S
C1960 C1962 1.391 . S
C1961 C1960 1.386 . S
C1961 C1965 1.393 . S
C1962 H1954 0.950 . S
C1962 C1960 1.391 . S
C1962 C1963 1.400 . S
C1963 C1962 1.400 . S
C1963 C1964 1.398 . S
C1963 C1969 1.491 . S
C1964 H1955 0.950 . S
C1964 C1963 1.398 . S
C1964 C1965 1.391 . S
C1965 H1953 0.950 . S
C1965 C1961 1.393 . S
C1965 C1964 1.391 . S
C1966 H1956 0.950 . S
C1966 C1967 1.386 . S
C1966 C1968 1.391 . S
C1967 C1966 1.386 . S
C1967 C1971 1.393 . S
C1968 H1957 0.950 . S
C1968 C1966 1.391 . S
C1968 C1969 1.400 . S
C1969 C1963 1.491 . S
C1969 C1968 1.400 . S
C1969 C1970 1.398 . S
C1970 H1958 0.950 . S
C1970 C1969 1.398 . S
C1970 C1971 1.391 . S
C1971 H1959 0.950 . S
C1971 C1967 1.393 . S
C1971 C1970 1.391 . S
H1972 C1980 0.950 . S
H1973 C1985 0.950 . S
H1974 C1982 0.950 . S
H1975 C1984 0.950 . S
H1976 C1986 0.950 . S
H1977 C1988 0.950 . S
H1978 C1990 0.950 . S
H1979 C1991 0.950 . S
C1980 H1972 0.950 . S
C1980 C1981 1.386 . S
C1980 C1982 1.391 . S
C1981 C1980 1.386 . S
C1981 C1985 1.393 . S
C1982 H1974 0.950 . S
C1982 C1980 1.391 . S
C1982 C1983 1.400 . S
C1983 C1982 1.400 . S
C1983 C1984 1.398 . S
C1983 C1989 1.491 . S
C1984 H1975 0.950 . S
C1984 C1983 1.398 . S
C1984 C1985 1.391 . S
C1985 H1973 0.950 . S
C1985 C1981 1.393 . S
C1985 C1984 1.391 . S
C1986 H1976 0.950 . S
C1986 C1987 1.386 . S
C1986 C1988 1.391 . S
C1987 C1986 1.386 . S
C1987 C1991 1.393 . S
C1988 H1977 0.950 . S
C1988 C1986 1.391 . S
C1988 C1989 1.400 . S
C1989 C1983 1.491 . S
C1989 C1988 1.400 . S
C1989 C1990 1.398 . S
C1990 H1978 0.950 . S
C1990 C1989 1.398 . S
C1990 C1991 1.391 . S
C1991 H1979 0.950 . S
C1991 C1987 1.393 . S
C1991 C1990 1.391 . S
H1992 C2000 0.950 . S
H1993 C2005 0.950 . S
H1994 C2002 0.950 . S
H1995 C2004 0.950 . S
H1996 C2006 0.950 . S
H1997 C2008 0.950 . S
H1998 C2010 0.950 . S
H1999 C2011 0.950 . S
C2000 H1992 0.950 . S
C2000 C2001 1.386 . S
C2000 C2002 1.391 . S
C2001 C2000 1.386 . S
C2001 C2005 1.393 . S
C2002 H1994 0.950 . S
C2002 C2000 1.391 . S
C2002 C2003 1.400 . S
C2003 C2002 1.400 . S
C2003 C2004 1.398 . S
C2003 C2009 1.491 . S
C2004 H1995 0.950 . S
C2004 C2003 1.398 . S
C2004 C2005 1.391 . S
C2005 H1993 0.950 . S
C2005 C2001 1.393 . S
C2005 C2004 1.391 . S
C2006 H1996 0.950 . S
C2006 C2007 1.386 . S
C2006 C2008 1.391 . S
C2007 C2006 1.386 . S
C2007 C2011 1.393 . S
C2008 H1997 0.950 . S
C2008 C2006 1.391 . S
C2008 C2009 1.400 . S
C2009 C2003 1.491 . S
C2009 C2008 1.400 . S
C2009 C2010 1.398 . S
C2010 H1998 0.950 . S
C2010 C2009 1.398 . S
C2010 C2011 1.391 . S
C2011 H1999 0.950 . S
C2011 C2007 1.393 . S
C2011 C2010 1.391 . S
H2012 C2020 0.950 . S
H2013 C2025 0.950 . S
H2014 C2022 0.950 . S
H2015 C2024 0.950 . S
H2016 C2026 0.950 . S
H2017 C2028 0.950 . S
H2018 C2030 0.950 . S
H2019 C2031 0.950 . S
C2020 H2012 0.950 . S
C2020 C2021 1.386 . S
C2020 C2022 1.391 . S
C2021 C2020 1.386 . S
C2021 C2025 1.393 . S
C2022 H2014 0.950 . S
C2022 C2020 1.391 . S
C2022 C2023 1.400 . S
C2023 C2022 1.400 . S
C2023 C2024 1.398 . S
C2023 C2029 1.491 . S
C2024 H2015 0.950 . S
C2024 C2023 1.398 . S
C2024 C2025 1.391 . S
C2025 H2013 0.950 . S
C2025 C2021 1.393 . S
C2025 C2024 1.391 . S
C2026 H2016 0.950 . S
C2026 C2027 1.386 . S
C2026 C2028 1.391 . S
C2027 C2026 1.386 . S
C2027 C2031 1.393 . S
C2028 H2017 0.950 . S
C2028 C2026 1.391 . S
C2028 C2029 1.400 . S
C2029 C2023 1.491 . S
C2029 C2028 1.400 . S
C2029 C2030 1.398 . S
C2030 H2018 0.950 . S
C2030 C2029 1.398 . S
C2030 C2031 1.391 . S
C2031 H2019 0.950 . S
C2031 C2027 1.393 . S
C2031 C2030 1.391 . S
H2032 C2040 0.950 . S
H2033 C2045 0.950 . S
H2034 C2042 0.950 . S
H2035 C2044 0.950 . S
H2036 C2046 0.950 . S
H2037 C2048 0.950 . S
H2038 C2050 0.950 . S
H2039 C2051 0.950 . S
C2040 H2032 0.950 . S
C2040 C2041 1.386 . S
C2040 C2042 1.391 . S
C2041 C2040 1.386 . S
C2041 C2045 1.393 . S
C2042 H2034 0.950 . S
C2042 C2040 1.391 . S
C2042 C2043 1.400 . S
C2043 C2042 1.400 . S
C2043 C2044 1.398 . S
C2043 C2049 1.491 . S
C2044 H2035 0.950 . S
C2044 C2043 1.398 . S
C2044 C2045 1.391 . S
C2045 H2033 0.950 . S
C2045 C2041 1.393 . S
C2045 C2044 1.391 . S
C2046 H2036 0.950 . S
C2046 C2047 1.386 . S
C2046 C2048 1.391 . S
C2047 C2046 1.386 . S
C2047 C2051 1.393 . S
C2048 H2037 0.950 . S
C2048 C2046 1.391 . S
C2048 C2049 1.400 . S
C2049 C2043 1.491 . S
C2049 C2048 1.400 . S
C2049 C2050 1.398 . S
C2050 H2038 0.950 . S
C2050 C2049 1.398 . S
C2050 C2051 1.391 . S
C2051 H2039 0.950 . S
C2051 C2047 1.393 . S
C2051 C2050 1.391 . S
H2052 C2060 0.950 . S
H2053 C2065 0.950 . S
H2054 C2062 0.950 . S
H2055 C2064 0.950 . S
H2056 C2066 0.950 . S
H2057 C2068 0.950 . S
H2058 C2070 0.950 . S
H2059 C2071 0.950 . S
C2060 H2052 0.950 . S
C2060 C2061 1.386 . S
C2060 C2062 1.391 . S
C2061 C2060 1.386 . S
C2061 C2065 1.393 1_554 S
C2062 H2054 0.950 . S
C2062 C2060 1.391 . S
C2062 C2063 1.400 . S
C2063 C2062 1.400 . S
C2063 C2064 1.398 1_554 S
C2063 C2069 1.491 . S
C2064 H2055 0.950 . S
C2064 C2063 1.398 1_556 S
C2064 C2065 1.391 . S
C2065 H2053 0.950 . S
C2065 C2061 1.393 1_556 S
C2065 C2064 1.391 . S
C2066 H2056 0.950 . S
C2066 C2067 1.386 1_556 S
C2066 C2068 1.391 . S
C2067 C2066 1.386 1_554 S
C2067 C2071 1.393 . S
C2068 H2057 0.950 . S
C2068 C2066 1.391 . S
C2068 C2069 1.400 1_556 S
C2069 C2063 1.491 . S
C2069 C2068 1.400 1_554 S
C2069 C2070 1.398 . S
C2070 H2058 0.950 . S
C2070 C2069 1.398 . S
C2070 C2071 1.391 . S
C2071 H2059 0.950 . S
C2071 C2067 1.393 . S
C2071 C2070 1.391 . S
H2072 C2080 0.950 . S
H2073 C2085 0.950 . S
H2074 C2082 0.950 . S
H2075 C2084 0.950 . S
H2076 C2086 0.950 . S
H2077 C2088 0.950 . S
H2078 C2090 0.950 . S
H2079 C2091 0.950 . S
C2080 H2072 0.950 . S
C2080 C2081 1.386 . S
C2080 C2082 1.391 . S
C2081 C2080 1.386 . S
C2081 C2085 1.393 . S
C2082 H2074 0.950 . S
C2082 C2080 1.391 . S
C2082 C2083 1.400 . S
C2083 C2082 1.400 . S
C2083 C2084 1.398 . S
C2083 C2089 1.491 . S
C2084 H2075 0.950 . S
C2084 C2083 1.398 . S
C2084 C2085 1.391 . S
C2085 H2073 0.950 . S
C2085 C2081 1.393 . S
C2085 C2084 1.391 . S
C2086 H2076 0.950 . S
C2086 C2087 1.386 . S
C2086 C2088 1.391 . S
C2087 C2086 1.386 . S
C2087 C2091 1.393 . S
C2088 H2077 0.950 . S
C2088 C2086 1.391 . S
C2088 C2089 1.400 . S
C2089 C2083 1.491 . S
C2089 C2088 1.400 . S
C2089 C2090 1.398 . S
C2090 H2078 0.950 . S
C2090 C2089 1.398 . S
C2090 C2091 1.391 . S
C2091 H2079 0.950 . S
C2091 C2087 1.393 . S
C2091 C2090 1.391 . S
H2092 C2100 0.950 . S
H2093 C2105 0.950 . S
H2094 C2102 0.950 . S
H2095 C2104 0.950 . S
H2096 C2106 0.950 . S
H2097 C2108 0.950 . S
H2098 C2110 0.950 . S
H2099 C2111 0.950 . S
C2100 H2092 0.950 . S
C2100 C2101 1.386 . S
C2100 C2102 1.391 . S
C2101 C2100 1.386 . S
C2101 C2105 1.393 . S
C2102 H2094 0.950 . S
C2102 C2100 1.391 . S
C2102 C2103 1.400 . S
C2103 C2102 1.400 . S
C2103 C2104 1.398 . S
C2103 C2109 1.491 . S
C2104 H2095 0.950 . S
C2104 C2103 1.398 . S
C2104 C2105 1.391 . S
C2105 H2093 0.950 . S
C2105 C2101 1.393 . S
C2105 C2104 1.391 . S
C2106 H2096 0.950 . S
C2106 C2107 1.386 . S
C2106 C2108 1.391 . S
C2107 C2106 1.386 . S
C2107 C2111 1.393 . S
C2108 H2097 0.950 . S
C2108 C2106 1.391 . S
C2108 C2109 1.400 . S
C2109 C2103 1.491 . S
C2109 C2108 1.400 . S
C2109 C2110 1.398 . S
C2110 H2098 0.950 . S
C2110 C2109 1.398 . S
C2110 C2111 1.391 . S
C2111 H2099 0.950 . S
C2111 C2107 1.393 . S
C2111 C2110 1.391 . S
H2112 C2120 0.950 . S
H2113 C2125 0.950 . S
H2114 C2122 0.950 . S
H2115 C2124 0.950 . S
H2116 C2126 0.950 . S
H2117 C2128 0.950 . S
H2118 C2130 0.950 . S
H2119 C2131 0.950 . S
C2120 H2112 0.950 . S
C2120 C2121 1.386 . S
C2120 C2122 1.391 . S
C2121 C2120 1.386 . S
C2121 C2125 1.393 . S
C2122 H2114 0.950 . S
C2122 C2120 1.391 . S
C2122 C2123 1.400 . S
C2123 C2122 1.400 . S
C2123 C2124 1.398 . S
C2123 C2129 1.491 . S
C2124 H2115 0.950 . S
C2124 C2123 1.398 . S
C2124 C2125 1.391 . S
C2125 H2113 0.950 . S
C2125 C2121 1.393 . S
C2125 C2124 1.391 . S
C2126 H2116 0.950 . S
C2126 C2127 1.386 . S
C2126 C2128 1.391 . S
C2127 C2126 1.386 . S
C2127 C2131 1.393 . S
C2128 H2117 0.950 . S
C2128 C2126 1.391 . S
C2128 C2129 1.400 . S
C2129 C2123 1.491 . S
C2129 C2128 1.400 . S
C2129 C2130 1.398 . S
C2130 H2118 0.950 . S
C2130 C2129 1.398 . S
C2130 C2131 1.391 . S
C2131 H2119 0.950 . S
C2131 C2127 1.393 . S
C2131 C2130 1.391 . S
H2132 C2140 0.950 . S
H2133 C2145 0.950 . S
H2134 C2142 0.950 . S
H2135 C2144 0.950 . S
H2136 C2146 0.950 . S
H2137 C2148 0.950 . S
H2138 C2150 0.950 . S
H2139 C2151 0.950 . S
C2140 H2132 0.950 . S
C2140 C2141 1.386 . S
C2140 C2142 1.391 . S
C2141 C2140 1.386 . S
C2141 C2145 1.393 . S
C2142 H2134 0.950 . S
C2142 C2140 1.391 . S
C2142 C2143 1.400 . S
C2143 C2142 1.400 . S
C2143 C2144 1.398 . S
C2143 C2149 1.491 . S
C2144 H2135 0.950 . S
C2144 C2143 1.398 . S
C2144 C2145 1.391 . S
C2145 H2133 0.950 . S
C2145 C2141 1.393 . S
C2145 C2144 1.391 . S
C2146 H2136 0.950 . S
C2146 C2147 1.386 . S
C2146 C2148 1.391 . S
C2147 C2146 1.386 . S
C2147 C2151 1.393 . S
C2148 H2137 0.950 . S
C2148 C2146 1.391 . S
C2148 C2149 1.400 . S
C2149 C2143 1.491 . S
C2149 C2148 1.400 . S
C2149 C2150 1.398 . S
C2150 H2138 0.950 . S
C2150 C2149 1.398 . S
C2150 C2151 1.391 . S
C2151 H2139 0.950 . S
C2151 C2147 1.393 . S
C2151 C2150 1.391 . S
H2152 C2160 0.950 . S
H2153 C2165 0.950 . S
H2154 C2162 0.950 . S
H2155 C2164 0.950 . S
H2156 C2166 0.950 . S
H2157 C2168 0.950 . S
H2158 C2170 0.950 . S
H2159 C2171 0.950 . S
C2160 H2152 0.950 . S
C2160 C2161 1.386 . S
C2160 C2162 1.391 . S
C2161 C2160 1.386 . S
C2161 C2165 1.393 1_455 S
C2162 H2154 0.950 . S
C2162 C2160 1.391 . S
C2162 C2163 1.400 . S
C2163 C2162 1.400 . S
C2163 C2164 1.398 1_455 S
C2163 C2169 1.491 . S
C2164 H2155 0.950 . S
C2164 C2163 1.398 1_655 S
C2164 C2165 1.391 . S
C2165 H2153 0.950 . S
C2165 C2161 1.393 1_655 S
C2165 C2164 1.391 . S
C2166 H2156 0.950 . S
C2166 C2167 1.355 1_655 S
C2166 C2168 1.391 . S
C2167 C2166 1.355 1_455 S
C2167 C2171 1.426 . S
C2168 H2157 0.950 . S
C2168 C2166 1.391 . S
C2168 C2169 1.400 1_655 S
C2169 C2163 1.491 . S
C2169 C2168 1.400 1_455 S
C2169 C2170 1.398 . S
C2170 H2158 0.950 . S
C2170 C2169 1.398 . S
C2170 C2171 1.391 . S
C2171 H2159 0.950 . S
C2171 C2167 1.426 . S
C2171 C2170 1.391 . S
H2172 C2180 0.950 . S
H2173 C2185 0.950 . S
H2174 C2182 0.950 . S
H2175 C2184 0.950 . S
H2176 C2186 0.950 . S
H2177 C2188 0.950 . S
H2178 C2190 0.950 . S
H2179 C2191 0.950 . S
C2180 H2172 0.950 . S
C2180 C2181 1.386 . S
C2180 C2182 1.391 . S
C2181 C2180 1.386 . S
C2181 C2185 1.393 . S
C2182 H2174 0.950 . S
C2182 C2180 1.391 . S
C2182 C2183 1.400 . S
C2183 C2182 1.400 . S
C2183 C2184 1.398 . S
C2183 C2189 1.491 . S
C2184 H2175 0.950 . S
C2184 C2183 1.398 . S
C2184 C2185 1.391 . S
C2185 H2173 0.950 . S
C2185 C2181 1.393 . S
C2185 C2184 1.391 . S
C2186 H2176 0.950 . S
C2186 C2187 1.386 . S
C2186 C2188 1.391 . S
C2187 C2186 1.386 . S
C2187 C2191 1.393 . S
C2188 H2177 0.950 . S
C2188 C2186 1.391 . S
C2188 C2189 1.400 . S
C2189 C2183 1.491 . S
C2189 C2188 1.400 . S
C2189 C2190 1.398 . S
C2190 H2178 0.950 . S
C2190 C2189 1.398 . S
C2190 C2191 1.391 . S
C2191 H2179 0.950 . S
C2191 C2187 1.393 . S
C2191 C2190 1.391 . S
H2192 C2200 0.950 . S
H2193 C2205 0.950 . S
H2194 C2202 0.950 . S
H2195 C2204 0.950 . S
H2196 C2206 0.950 . S
H2197 C2208 0.950 . S
H2198 C2210 0.950 . S
H2199 C2211 0.950 . S
C2200 H2192 0.950 . S
C2200 C2201 1.386 . S
C2200 C2202 1.391 . S
C2201 C2200 1.386 . S
C2201 C2205 1.393 . S
C2202 H2194 0.950 . S
C2202 C2200 1.391 . S
C2202 C2203 1.400 . S
C2203 C2202 1.400 . S
C2203 C2204 1.398 . S
C2203 C2209 1.491 . S
C2204 H2195 0.950 . S
C2204 C2203 1.398 . S
C2204 C2205 1.391 . S
C2205 H2193 0.950 . S
C2205 C2201 1.393 . S
C2205 C2204 1.391 . S
C2206 H2196 0.950 . S
C2206 C2207 1.386 . S
C2206 C2208 1.391 . S
C2207 C2206 1.386 . S
C2207 C2211 1.393 . S
C2208 H2197 0.950 . S
C2208 C2206 1.391 . S
C2208 C2209 1.400 . S
C2209 C2203 1.491 . S
C2209 C2208 1.400 . S
C2209 C2210 1.398 . S
C2210 H2198 0.950 . S
C2210 C2209 1.398 . S
C2210 C2211 1.391 . S
C2211 H2199 0.950 . S
C2211 C2207 1.393 . S
C2211 C2210 1.391 . S
H2212 C2220 0.950 . S
H2213 C2225 0.950 . S
H2214 C2222 0.950 . S
H2215 C2224 0.950 . S
H2216 C2226 0.950 . S
H2217 C2228 0.950 . S
H2218 C2230 0.950 . S
H2219 C2231 0.950 . S
C2220 H2212 0.950 . S
C2220 C2221 1.386 . S
C2220 C2222 1.391 . S
C2221 C2220 1.386 . S
C2221 C2225 1.393 . S
C2222 H2214 0.950 . S
C2222 C2220 1.391 . S
C2222 C2223 1.400 . S
C2223 C2222 1.400 . S
C2223 C2224 1.398 . S
C2223 C2229 1.491 . S
C2224 H2215 0.950 . S
C2224 C2223 1.398 . S
C2224 C2225 1.391 . S
C2225 H2213 0.950 . S
C2225 C2221 1.393 . S
C2225 C2224 1.391 . S
C2226 H2216 0.950 . S
C2226 C2227 1.386 . S
C2226 C2228 1.391 . S
C2227 C2226 1.386 . S
C2227 C2231 1.393 . S
C2228 H2217 0.950 . S
C2228 C2226 1.391 . S
C2228 C2229 1.400 . S
C2229 C2223 1.491 . S
C2229 C2228 1.400 . S
C2229 C2230 1.398 . S
C2230 H2218 0.950 . S
C2230 C2229 1.398 . S
C2230 C2231 1.391 . S
C2231 H2219 0.950 . S
C2231 C2227 1.393 . S
C2231 C2230 1.391 . S
H2232 C2240 0.950 . S
H2233 C2245 0.950 . S
H2234 C2242 0.950 . S
H2235 C2244 0.950 . S
H2236 C2246 0.950 . S
H2237 C2248 0.950 . S
H2238 C2250 0.950 . S
H2239 C2251 0.950 . S
C2240 H2232 0.950 . S
C2240 C2241 1.386 . S
C2240 C2242 1.391 . S
C2241 C2240 1.386 . S
C2241 C2245 1.393 1_455 S
C2242 H2234 0.950 . S
C2242 C2240 1.391 . S
C2242 C2243 1.400 . S
C2243 C2242 1.400 . S
C2243 C2244 1.398 1_455 S
C2243 C2249 1.491 . S
C2244 H2235 0.950 . S
C2244 C2243 1.398 1_655 S
C2244 C2245 1.391 . S
C2245 H2233 0.950 . S
C2245 C2241 1.393 1_655 S
C2245 C2244 1.391 . S
C2246 H2236 0.950 . S
C2246 C2247 1.386 1_655 S
C2246 C2248 1.391 . S
C2247 C2246 1.386 1_455 S
C2247 C2251 1.393 . S
C2248 H2237 0.950 . S
C2248 C2246 1.391 . S
C2248 C2249 1.400 1_655 S
C2249 C2243 1.491 . S
C2249 C2248 1.400 1_455 S
C2249 C2250 1.398 . S
C2250 H2238 0.950 . S
C2250 C2249 1.398 . S
C2250 C2251 1.391 . S
C2251 H2239 0.950 . S
C2251 C2247 1.393 . S
C2251 C2250 1.391 . S
H2252 C2260 0.950 . S
H2253 C2265 0.950 . S
H2254 C2262 0.950 . S
H2255 C2264 0.950 . S
H2256 C2266 0.950 . S
H2257 C2268 0.950 . S
H2258 C2270 0.950 . S
H2259 C2271 0.950 . S
C2260 H2252 0.950 . S
C2260 C2261 1.386 . S
C2260 C2262 1.391 . S
C2261 C2260 1.386 . S
C2261 C2265 1.393 . S
C2262 H2254 0.950 . S
C2262 C2260 1.391 . S
C2262 C2263 1.400 . S
C2263 C2262 1.400 . S
C2263 C2264 1.398 . S
C2263 C2269 1.491 . S
C2264 H2255 0.950 . S
C2264 C2263 1.398 . S
C2264 C2265 1.391 . S
C2265 H2253 0.950 . S
C2265 C2261 1.393 . S
C2265 C2264 1.391 . S
C2266 H2256 0.950 . S
C2266 C2267 1.386 . S
C2266 C2268 1.391 . S
C2267 C2266 1.386 . S
C2267 C2271 1.393 . S
C2268 H2257 0.950 . S
C2268 C2266 1.391 . S
C2268 C2269 1.400 . S
C2269 C2263 1.491 . S
C2269 C2268 1.400 . S
C2269 C2270 1.398 . S
C2270 H2258 0.950 . S
C2270 C2269 1.398 . S
C2270 C2271 1.391 . S
C2271 H2259 0.950 . S
C2271 C2267 1.393 . S
C2271 C2270 1.391 . S
H2272 C2280 0.950 . S
H2273 C2285 0.950 . S
H2274 C2282 0.950 . S
H2275 C2284 0.950 . S
H2276 C2286 0.950 . S
H2277 C2288 0.950 . S
H2278 C2290 0.950 . S
H2279 C2291 0.950 . S
C2280 H2272 0.950 . S
C2280 C2281 1.386 . S
C2280 C2282 1.391 . S
C2281 C2280 1.386 . S
C2281 C2285 1.393 . S
C2282 H2274 0.950 . S
C2282 C2280 1.391 . S
C2282 C2283 1.400 . S
C2283 C2282 1.400 . S
C2283 C2284 1.398 . S
C2283 C2289 1.491 . S
C2284 H2275 0.950 . S
C2284 C2283 1.398 . S
C2284 C2285 1.391 . S
C2285 H2273 0.950 . S
C2285 C2281 1.393 . S
C2285 C2284 1.391 . S
C2286 H2276 0.950 . S
C2286 C2287 1.386 . S
C2286 C2288 1.391 . S
C2287 C2286 1.386 . S
C2287 C2291 1.393 . S
C2288 H2277 0.950 . S
C2288 C2286 1.391 . S
C2288 C2289 1.400 . S
C2289 C2283 1.491 . S
C2289 C2288 1.400 . S
C2289 C2290 1.398 . S
C2290 H2278 0.950 . S
C2290 C2289 1.398 . S
C2290 C2291 1.391 . S
C2291 H2279 0.950 . S
C2291 C2287 1.393 . S
C2291 C2290 1.391 . S
H2292 C2300 0.950 . S
H2293 C2305 0.950 . S
H2294 C2302 0.950 . S
H2295 C2304 0.950 . S
H2296 C2306 0.950 . S
H2297 C2308 0.950 . S
H2298 C2310 0.950 . S
H2299 C2311 0.950 . S
C2300 H2292 0.950 . S
C2300 C2301 1.386 . S
C2300 C2302 1.391 . S
C2301 C2300 1.386 . S
C2301 C2305 1.393 . S
C2302 H2294 0.950 . S
C2302 C2300 1.391 . S
C2302 C2303 1.400 . S
C2303 C2302 1.400 . S
C2303 C2304 1.398 . S
C2303 C2309 1.491 . S
C2304 H2295 0.950 . S
C2304 C2303 1.398 . S
C2304 C2305 1.391 . S
C2305 H2293 0.950 . S
C2305 C2301 1.393 . S
C2305 C2304 1.391 . S
C2306 H2296 0.950 . S
C2306 C2307 1.386 . S
C2306 C2308 1.391 . S
C2307 C2306 1.386 . S
C2307 C2311 1.393 . S
C2308 H2297 0.950 . S
C2308 C2306 1.391 . S
C2308 C2309 1.400 . S
C2309 C2303 1.491 . S
C2309 C2308 1.400 . S
C2309 C2310 1.398 . S
C2310 H2298 0.950 . S
C2310 C2309 1.398 . S
C2310 C2311 1.391 . S
C2311 H2299 0.950 . S
C2311 C2307 1.393 . S
C2311 C2310 1.391 . S
H2312 C2320 0.950 . S
H2313 C2325 0.950 . S
H2314 C2322 0.950 . S
H2315 C2324 0.950 . S
H2316 C2326 0.950 . S
H2317 C2328 0.950 . S
H2318 C2330 0.950 . S
H2319 C2331 0.950 . S
C2320 H2312 0.950 . S
C2320 C2321 1.386 . S
C2320 C2322 1.391 . S
C2321 C2320 1.386 . S
C2321 C2325 1.393 . S
C2322 H2314 0.950 . S
C2322 C2320 1.391 . S
C2322 C2323 1.400 . S
C2323 C2322 1.400 . S
C2323 C2324 1.398 . S
C2323 C2329 1.491 . S
C2324 H2315 0.950 . S
C2324 C2323 1.398 . S
C2324 C2325 1.391 . S
C2325 H2313 0.950 . S
C2325 C2321 1.393 . S
C2325 C2324 1.391 . S
C2326 H2316 0.950 . S
C2326 C2327 1.386 . S
C2326 C2328 1.391 . S
C2327 C2326 1.386 . S
C2327 C2331 1.393 . S
C2328 H2317 0.950 . S
C2328 C2326 1.391 . S
C2328 C2329 1.400 . S
C2329 C2323 1.491 . S
C2329 C2328 1.400 . S
C2329 C2330 1.398 . S
C2330 H2318 0.950 . S
C2330 C2329 1.398 . S
C2330 C2331 1.391 . S
C2331 H2319 0.950 . S
C2331 C2327 1.393 . S
C2331 C2330 1.391 . S
H2332 C2340 0.950 . S
H2333 C2345 0.950 . S
H2334 C2342 0.950 . S
H2335 C2344 0.950 . S
H2336 C2346 0.950 . S
H2337 C2348 0.950 . S
H2338 C2350 0.950 . S
H2339 C2351 0.950 . S
C2340 H2332 0.950 . S
C2340 C2341 1.386 . S
C2340 C2342 1.391 . S
C2341 C2340 1.386 . S
C2341 C2345 1.393 . S
C2342 H2334 0.950 . S
C2342 C2340 1.391 . S
C2342 C2343 1.400 . S
C2343 C2342 1.400 . S
C2343 C2344 1.398 . S
C2343 C2349 1.491 . S
C2344 H2335 0.950 . S
C2344 C2343 1.398 . S
C2344 C2345 1.391 . S
C2345 H2333 0.950 . S
C2345 C2341 1.393 . S
C2345 C2344 1.391 . S
C2346 H2336 0.950 . S
C2346 C2347 1.386 . S
C2346 C2348 1.391 . S
C2347 C2346 1.386 . S
C2347 C2351 1.393 . S
C2348 H2337 0.950 . S
C2348 C2346 1.391 . S
C2348 C2349 1.400 . S
C2349 C2343 1.491 . S
C2349 C2348 1.400 . S
C2349 C2350 1.398 . S
C2350 H2338 0.950 . S
C2350 C2349 1.398 . S
C2350 C2351 1.391 . S
C2351 H2339 0.950 . S
C2351 C2347 1.393 . S
C2351 C2350 1.391 . S
H2352 C2360 0.950 . S
H2353 C2365 0.950 . S
H2354 C2362 0.950 . S
H2355 C2364 0.950 . S
H2356 C2366 0.950 . S
H2357 C2368 0.950 . S
H2358 C2370 0.950 . S
H2359 C2371 0.950 . S
C2360 H2352 0.950 . S
C2360 C2361 1.386 . S
C2360 C2362 1.391 . S
C2361 C2360 1.386 . S
C2361 C2365 1.393 . S
C2362 H2354 0.950 . S
C2362 C2360 1.391 . S
C2362 C2363 1.400 . S
C2363 C2362 1.400 . S
C2363 C2364 1.398 . S
C2363 C2369 1.491 . S
C2364 H2355 0.950 . S
C2364 C2363 1.398 . S
C2364 C2365 1.391 . S
C2365 H2353 0.950 . S
C2365 C2361 1.393 . S
C2365 C2364 1.391 . S
C2366 H2356 0.950 . S
C2366 C2367 1.386 . S
C2366 C2368 1.391 . S
C2367 C2366 1.386 . S
C2367 C2371 1.393 . S
C2368 H2357 0.950 . S
C2368 C2366 1.391 . S
C2368 C2369 1.400 . S
C2369 C2363 1.491 . S
C2369 C2368 1.400 . S
C2369 C2370 1.398 . S
C2370 H2358 0.950 . S
C2370 C2369 1.398 . S
C2370 C2371 1.391 . S
C2371 H2359 0.950 . S
C2371 C2367 1.393 . S
C2371 C2370 1.391 . S
H2372 C2380 0.950 . S
H2373 C2385 0.950 . S
H2374 C2382 0.950 . S
H2375 C2384 0.950 . S
H2376 C2386 0.950 . S
H2377 C2388 0.950 . S
H2378 C2390 0.950 . S
H2379 C2391 0.950 . S
C2380 H2372 0.950 . S
C2380 C2381 1.386 . S
C2380 C2382 1.391 . S
C2381 C2380 1.386 . S
C2381 C2385 1.393 . S
C2382 H2374 0.950 . S
C2382 C2380 1.391 . S
C2382 C2383 1.400 . S
C2383 C2382 1.400 . S
C2383 C2384 1.398 . S
C2383 C2389 1.491 . S
C2384 H2375 0.950 . S
C2384 C2383 1.398 . S
C2384 C2385 1.391 . S
C2385 H2373 0.950 . S
C2385 C2381 1.393 . S
C2385 C2384 1.391 . S
C2386 H2376 0.950 . S
C2386 C2387 1.386 . S
C2386 C2388 1.391 . S
C2387 C2386 1.386 . S
C2387 C2391 1.393 . S
C2388 H2377 0.950 . S
C2388 C2386 1.391 . S
C2388 C2389 1.400 . S
C2389 C2383 1.491 . S
C2389 C2388 1.400 . S
C2389 C2390 1.398 . S
C2390 H2378 0.950 . S
C2390 C2389 1.398 . S
C2390 C2391 1.391 . S
C2391 H2379 0.950 . S
C2391 C2387 1.393 . S
C2391 C2390 1.391 . S
H2392 C2400 0.950 . S
H2393 C2405 0.950 . S
H2394 C2402 0.950 . S
H2395 C2404 0.950 . S
H2396 C2406 0.950 . S
H2397 C2408 0.950 . S
H2398 C2410 0.950 . S
H2399 C2411 0.950 . S
C2400 H2392 0.950 . S
C2400 C2401 1.386 . S
C2400 C2402 1.391 . S
C2401 C2400 1.386 . S
C2401 C2405 1.393 . S
C2402 H2394 0.950 . S
C2402 C2400 1.391 . S
C2402 C2403 1.400 . S
C2403 C2402 1.400 . S
C2403 C2404 1.398 . S
C2403 C2409 1.491 . S
C2404 H2395 0.950 . S
C2404 C2403 1.398 . S
C2404 C2405 1.391 . S
C2405 H2393 0.950 . S
C2405 C2401 1.393 . S
C2405 C2404 1.391 . S
C2406 H2396 0.950 . S
C2406 C2407 1.386 . S
C2406 C2408 1.391 . S
C2407 C2406 1.386 . S
C2407 C2411 1.393 . S
C2408 H2397 0.950 . S
C2408 C2406 1.391 . S
C2408 C2409 1.400 . S
C2409 C2403 1.491 . S
C2409 C2408 1.400 . S
C2409 C2410 1.398 . S
C2410 H2398 0.950 . S
C2410 C2409 1.398 . S
C2410 C2411 1.391 . S
C2411 H2399 0.950 . S
C2411 C2407 1.393 . S
C2411 C2410 1.391 . S
H2412 C2420 0.950 . S
H2413 C2425 0.950 . S
H2414 C2422 0.950 . S
H2415 C2424 0.950 . S
H2416 C2426 0.950 . S
H2417 C2428 0.950 . S
H2418 C2430 0.950 . S
H2419 C2431 0.950 . S
C2420 H2412 0.950 . S
C2420 C2421 1.386 . S
C2420 C2422 1.391 . S
C2421 C2420 1.386 . S
C2421 C2425 1.393 . S
C2422 H2414 0.950 . S
C2422 C2420 1.391 . S
C2422 C2423 1.400 . S
C2423 C2422 1.400 . S
C2423 C2424 1.398 . S
C2423 C2429 1.491 . S
C2424 H2415 0.950 . S
C2424 C2423 1.398 . S
C2424 C2425 1.391 . S
C2425 H2413 0.950 . S
C2425 C2421 1.393 . S
C2425 C2424 1.391 . S
C2426 H2416 0.950 . S
C2426 C2427 1.386 . S
C2426 C2428 1.391 . S
C2427 C2426 1.386 . S
C2427 C2431 1.393 . S
C2428 H2417 0.950 . S
C2428 C2426 1.391 . S
C2428 C2429 1.400 . S
C2429 C2423 1.491 . S
C2429 C2428 1.400 . S
C2429 C2430 1.398 . S
C2430 H2418 0.950 . S
C2430 C2429 1.398 . S
C2430 C2431 1.391 . S
C2431 H2419 0.950 . S
C2431 C2427 1.393 . S
C2431 C2430 1.391 . S
H2432 C2440 0.950 . S
H2433 C2445 0.950 . S
H2434 C2442 0.950 . S
H2435 C2444 0.950 . S
H2436 C2446 0.950 . S
H2437 C2448 0.950 . S
H2438 C2450 0.950 . S
H2439 C2451 0.950 . S
C2440 H2432 0.950 . S
C2440 C2441 1.386 . S
C2440 C2442 1.391 . S
C2441 C2440 1.386 . S
C2441 C2445 1.393 . S
C2442 H2434 0.950 . S
C2442 C2440 1.391 . S
C2442 C2443 1.400 . S
C2443 C2442 1.400 . S
C2443 C2444 1.398 . S
C2443 C2449 1.491 . S
C2444 H2435 0.950 . S
C2444 C2443 1.398 . S
C2444 C2445 1.391 . S
C2445 H2433 0.950 . S
C2445 C2441 1.393 . S
C2445 C2444 1.391 . S
C2446 H2436 0.950 . S
C2446 C2447 1.386 . S
C2446 C2448 1.391 . S
C2447 C2446 1.386 . S
C2447 C2451 1.393 . S
C2448 H2437 0.950 . S
C2448 C2446 1.391 . S
C2448 C2449 1.400 . S
C2449 C2443 1.491 . S
C2449 C2448 1.400 . S
C2449 C2450 1.398 . S
C2450 H2438 0.950 . S
C2450 C2449 1.398 . S
C2450 C2451 1.391 . S
C2451 H2439 0.950 . S
C2451 C2447 1.393 . S
C2451 C2450 1.391 . S
H2452 C2460 0.950 . S
H2453 C2465 0.950 . S
H2454 C2462 0.950 . S
H2455 C2464 0.950 . S
H2456 C2466 0.950 . S
H2457 C2468 0.950 . S
H2458 C2470 0.950 . S
H2459 C2471 0.950 . S
C2460 H2452 0.950 . S
C2460 C2461 1.386 . S
C2460 C2462 1.391 . S
C2461 C2460 1.386 . S
C2461 C2465 1.393 . S
C2462 H2454 0.950 . S
C2462 C2460 1.391 . S
C2462 C2463 1.400 . S
C2463 C2462 1.400 . S
C2463 C2464 1.398 . S
C2463 C2469 1.491 . S
C2464 H2455 0.950 . S
C2464 C2463 1.398 . S
C2464 C2465 1.391 . S
C2465 H2453 0.950 . S
C2465 C2461 1.393 . S
C2465 C2464 1.391 . S
C2466 H2456 0.950 . S
C2466 C2467 1.386 . S
C2466 C2468 1.391 . S
C2467 C2466 1.386 . S
C2467 C2471 1.393 . S
C2468 H2457 0.950 . S
C2468 C2466 1.391 . S
C2468 C2469 1.400 . S
C2469 C2463 1.491 . S
C2469 C2468 1.400 . S
C2469 C2470 1.398 . S
C2470 H2458 0.950 . S
C2470 C2469 1.398 . S
C2470 C2471 1.391 . S
C2471 H2459 0.950 . S
C2471 C2467 1.393 . S
C2471 C2470 1.391 . S
H2472 C2480 0.950 . S
H2473 C2485 0.950 . S
H2474 C2482 0.950 . S
H2475 C2484 0.950 . S
H2476 C2486 0.950 . S
H2477 C2488 0.950 . S
H2478 C2490 0.950 . S
H2479 C2491 0.950 . S
C2480 H2472 0.950 . S
C2480 C2481 1.386 . S
C2480 C2482 1.391 . S
C2481 C2480 1.386 . S
C2481 C2485 1.393 . S
C2482 H2474 0.950 . S
C2482 C2480 1.391 . S
C2482 C2483 1.400 . S
C2483 C2482 1.400 . S
C2483 C2484 1.398 . S
C2483 C2489 1.491 . S
C2484 H2475 0.950 . S
C2484 C2483 1.398 . S
C2484 C2485 1.391 . S
C2485 H2473 0.950 . S
C2485 C2481 1.393 . S
C2485 C2484 1.391 . S
C2486 H2476 0.950 . S
C2486 C2487 1.386 . S
C2486 C2488 1.391 . S
C2487 C2486 1.386 . S
C2487 C2491 1.393 . S
C2488 H2477 0.950 . S
C2488 C2486 1.391 . S
C2488 C2489 1.400 . S
C2489 C2483 1.491 . S
C2489 C2488 1.400 . S
C2489 C2490 1.398 . S
C2490 H2478 0.950 . S
C2490 C2489 1.398 . S
C2490 C2491 1.391 . S
C2491 H2479 0.950 . S
C2491 C2487 1.393 . S
C2491 C2490 1.391 . S
H2492 C2500 0.944 1_556 S
H2493 C2505 0.950 . S
H2494 C2502 0.950 . S
H2495 C2504 0.950 . S
H2496 C2506 0.950 . S
H2497 C2508 0.950 . S
H2498 C2510 0.950 . S
H2499 C2511 0.950 1_545 S
C2500 H2492 0.944 1_554 S
C2500 C2501 1.392 . S
C2500 C2502 1.390 1_554 S
C2501 C2500 1.392 . S
C2501 C2505 1.393 . S
C2502 H2494 0.950 . S
C2502 C2500 1.390 1_556 S
C2502 C2503 1.400 1_556 S
C2503 C2502 1.400 1_554 S
C2503 C2504 1.398 . S
C2503 C2509 1.491 . S
C2504 H2495 0.950 . S
C2504 C2503 1.398 . S
C2504 C2505 1.391 . S
C2505 H2493 0.950 . S
C2505 C2501 1.393 . S
C2505 C2504 1.391 . S
C2506 H2496 0.950 . S
C2506 C2507 1.386 . S
C2506 C2508 1.391 . S
C2507 C2506 1.386 . S
C2507 C2511 1.393 1_554 S
C2508 H2497 0.950 . S
C2508 C2506 1.391 . S
C2508 C2509 1.400 . S
C2509 C2503 1.491 . S
C2509 C2508 1.400 . S
C2509 C2510 1.398 1_554 S
C2510 H2498 0.950 . S
C2510 C2509 1.398 1_556 S
C2510 C2511 1.391 . S
C2511 H2499 0.950 1_565 S
C2511 C2507 1.393 1_556 S
C2511 C2510 1.391 . S
H2512 C2520 0.950 . S
H2513 C2525 0.950 . S
H2514 C2522 0.950 . S
H2515 C2524 0.950 . S
H2516 C2526 0.950 . S
H2517 C2528 0.950 . S
H2518 C2530 0.950 . S
H2519 C2531 0.950 . S
C2520 H2512 0.950 . S
C2520 C2521 1.386 . S
C2520 C2522 1.391 . S
C2521 C2520 1.386 . S
C2521 C2525 1.393 . S
C2522 H2514 0.950 . S
C2522 C2520 1.391 . S
C2522 C2523 1.400 . S
C2523 C2522 1.400 . S
C2523 C2524 1.398 . S
C2523 C2529 1.491 . S
C2524 H2515 0.950 . S
C2524 C2523 1.398 . S
C2524 C2525 1.391 . S
C2525 H2513 0.950 . S
C2525 C2521 1.393 . S
C2525 C2524 1.391 . S
C2526 H2516 0.950 . S
C2526 C2527 1.386 . S
C2526 C2528 1.391 . S
C2527 C2526 1.386 . S
C2527 C2531 1.393 . S
C2528 H2517 0.950 . S
C2528 C2526 1.391 . S
C2528 C2529 1.400 . S
C2529 C2523 1.491 . S
C2529 C2528 1.400 . S
C2529 C2530 1.398 . S
C2530 H2518 0.950 . S
C2530 C2529 1.398 . S
C2530 C2531 1.391 . S
C2531 H2519 0.950 . S
C2531 C2527 1.393 . S
C2531 C2530 1.391 . S
H2532 C2540 0.950 . S
H2533 C2545 0.950 . S
H2534 C2542 0.950 . S
H2535 C2544 0.950 . S
H2536 C2546 0.950 . S
H2537 C2548 0.950 . S
H2538 C2550 0.950 1_556 S
H2539 C2551 0.938 1_556 S
C2540 H2532 0.950 . S
C2540 C2541 1.386 1_556 S
C2540 C2542 1.391 . S
C2541 C2540 1.386 1_554 S
C2541 C2545 1.393 . S
C2542 H2534 0.950 . S
C2542 C2540 1.391 . S
C2542 C2543 1.400 1_556 S
C2543 C2542 1.400 1_554 S
C2543 C2544 1.398 . S
C2543 C2549 1.491 . S
C2544 H2535 0.950 . S
C2544 C2543 1.398 . S
C2544 C2545 1.391 . S
C2545 H2533 0.950 . S
C2545 C2541 1.393 . S
C2545 C2544 1.391 . S
C2546 H2536 0.950 . S
C2546 C2547 1.386 . S
C2546 C2548 1.391 . S
C2547 C2546 1.386 . S
C2547 C2551 1.393 . S
C2548 H2537 0.950 . S
C2548 C2546 1.391 . S
C2548 C2549 1.400 . S
C2549 C2543 1.491 . S
C2549 C2548 1.400 . S
C2549 C2550 1.398 . S
C2550 H2538 0.950 1_554 S
C2550 C2549 1.398 . S
C2550 C2551 1.391 . S
C2551 H2539 0.938 1_554 S
C2551 C2547 1.393 . S
C2551 C2550 1.391 . S
H2552 C2560 0.950 . S
H2553 C2565 0.950 . S
H2554 C2562 0.950 . S
H2555 C2564 0.950 . S
H2556 C2566 0.950 . S
H2557 C2568 0.950 . S
H2558 C2570 0.950 . S
H2559 C2571 0.950 . S
C2560 H2552 0.950 . S
C2560 C2561 1.386 . S
C2560 C2562 1.391 . S
C2561 C2560 1.386 . S
C2561 C2565 1.393 . S
C2562 H2554 0.950 . S
C2562 C2560 1.391 . S
C2562 C2563 1.400 . S
C2563 C2562 1.400 . S
C2563 C2564 1.398 . S
C2563 C2569 1.491 . S
C2564 H2555 0.950 . S
C2564 C2563 1.398 . S
C2564 C2565 1.391 . S
C2565 H2553 0.950 . S
C2565 C2561 1.393 . S
C2565 C2564 1.391 . S
C2566 H2556 0.950 . S
C2566 C2567 1.386 . S
C2566 C2568 1.391 . S
C2567 C2566 1.386 . S
C2567 C2571 1.393 . S
C2568 H2557 0.950 . S
C2568 C2566 1.391 . S
C2568 C2569 1.400 . S
C2569 C2563 1.491 . S
C2569 C2568 1.400 . S
C2569 C2570 1.398 . S
C2570 H2558 0.950 . S
C2570 C2569 1.398 . S
C2570 C2571 1.391 . S
C2571 H2559 0.950 . S
C2571 C2567 1.393 . S
C2571 C2570 1.391 . S
H2572 C2580 0.950 . S
H2573 C2585 0.950 . S
H2574 C2582 0.950 . S
H2575 C2584 0.950 . S
H2576 C2586 0.950 . S
H2577 C2588 0.950 . S
H2578 C2590 0.950 . S
H2579 C2591 0.950 . S
C2580 H2572 0.950 . S
C2580 C2581 1.386 . S
C2580 C2582 1.391 . S
C2581 C2580 1.386 . S
C2581 C2585 1.393 . S
C2582 H2574 0.950 . S
C2582 C2580 1.391 . S
C2582 C2583 1.400 . S
C2583 C2582 1.400 . S
C2583 C2584 1.398 . S
C2583 C2589 1.491 . S
C2584 H2575 0.950 . S
C2584 C2583 1.398 . S
C2584 C2585 1.391 . S
C2585 H2573 0.950 . S
C2585 C2581 1.393 . S
C2585 C2584 1.391 . S
C2586 H2576 0.950 . S
C2586 C2587 1.386 . S
C2586 C2588 1.391 . S
C2587 C2586 1.386 . S
C2587 C2591 1.393 . S
C2588 H2577 0.950 . S
C2588 C2586 1.391 . S
C2588 C2589 1.400 . S
C2589 C2583 1.491 . S
C2589 C2588 1.400 . S
C2589 C2590 1.398 . S
C2590 H2578 0.950 . S
C2590 C2589 1.398 . S
C2590 C2591 1.391 . S
C2591 H2579 0.950 . S
C2591 C2587 1.393 . S
C2591 C2590 1.391 . S
C687 C351 1.358 1_455 S
C681 C8 1.488 . S
C701 C22 1.484 . S
C707 C370 1.432 . S
C721 C35 1.198 . S
C727 C393 1.132 . S
C747 C413 1.326 . S
C741 C49 1.291 . S
C761 C23 1.691 . S
C767 C434 1.692 . S
C787 C456 1.176 . S
C781 C34 1.252 . S
C807 C478 1.052 . S
C801 C48 1.057 . S
C821 C9 1.507 . S
C827 C496 1.472 . S
C841 C64 1.442 . S
C847 C352 1.394 . S
C861 C77 1.260 . S
C867 C371 1.287 . S
C887 C394 1.389 . S
C881 C92 1.415 . S
C907 C417 1.410 . S
C901 C105 1.471 . S
C921 C63 1.351 . S
C927 C438 1.276 . S
C947 C457 1.351 . S
C941 C78 1.403 . S
C967 C479 1.364 . S
C961 C91 1.367 . S
C987 C497 1.382 . S
C981 C106 1.400 . S
C1007 C353 1.424 . S
C1001 C107 1.444 . S
C1027 C520 1.065 . S
C1021 C118 1.084 . S
C1041 C135 1.599 . S
C1047 C542 1.584 . S
C1067 C561 1.370 . S
C1061 C146 1.400 . S
C1081 C65 1.457 . S
C1087 C501 1.347 . S
C1107 C395 1.570 1_565 S
C1101 C79 1.573 . S
C1121 C132 1.180 . S
C1127 C583 1.160 . S
C1147 C606 1.192 . S
C1141 C160 1.281 . S
C1161 C177 1.430 . S
C1167 C354 1.332 . S
C1187 C605 1.109 . S
C1181 C188 1.123 . S
C1201 C204 1.579 . S
C1207 C396 1.473 . S
C1221 C219 1.272 . S
C1227 C580 1.236 . S
C1247 C436 1.305 . S
C1241 C190 1.338 . S
C1267 C543 1.229 . S
C1261 C202 1.278 . S
C1287 C476 1.194 . S
C1281 C217 1.194 . S
C1307 C626 1.290 . S
C1301 C175 1.293 . S
C1327 C350 1.315 . S
C1321 C231 1.314 . S
C1341 C246 1.359 . S
C1347 C604 1.317 . S
C1367 C392 1.146 . S
C1361 C259 1.158 . S
C1381 C274 1.449 . S
C1387 C585 1.340 . S
C1401 C232 1.480 . S
C1407 C435 1.352 . S
C1421 C245 1.204 . S
C1427 C539 1.195 . S
C1447 C475 1.178 . S
C1441 C260 1.224 . S
C1461 C273 1.140 . S
C1467 C625 1.121 . S
C1481 C275 1.405 . S
C1487 C349 1.350 . S
C1501 C286 1.259 . S
C1507 C518 1.248 . S
C1521 C303 1.318 . S
C1527 C454 1.268 . S
C1541 C314 1.191 . S
C1547 C564 1.152 . S
C1567 C624 1.266 . S
C1561 C233 1.370 . S
C1587 C391 1.309 . S
C1581 C247 1.339 . S
C1607 C416 1.171 . S
C1601 C300 1.184 . S
C1627 C372 1.263 . S
C1621 C328 1.324 . S
C1641 C36 1.483 . S
C1647 C648 1.338 . S
C1667 C601 1.454 . S
C1661 C50 1.489 . S
C1687 C666 1.074 . S
C1681 C7 1.195 . S
C1701 C21 1.316 . S
C1707 C584 1.325 . S
C1721 C51 1.704 . S
C1727 C521 1.704 1_556 S
C1747 C540 1.170 . S
C1741 C6 1.228 . S
C1767 C562 1.044 . S
C1761 C20 1.060 . S
C1787 C622 1.450 . S
C1781 C37 1.504 . S
C1807 C643 1.307 . S
C1801 C162 1.378 . S
C1821 C119 1.275 . S
C1827 C602 1.263 . S
C1841 C134 1.351 . S
C1847 C667 1.293 . S
C1867 C582 1.362 . S
C1861 C147 1.463 . S
C1887 C519 1.297 . S
C1881 C161 1.342 . S
C1901 C120 1.333 . S
C1907 C541 1.287 . S
C1927 C563 1.353 . S
C1921 C133 1.362 . S
C1941 C148 1.332 . S
C1947 C623 1.324 . S
C1967 C644 1.464 . S
C1961 C149 1.496 . S
C1987 C433 1.028 . S
C1981 C76 1.035 . S
C2007 C458 1.543 . S
C2001 C93 1.548 . S
C2021 C104 1.354 . S
C2027 C477 1.275 . S
C2047 C627 1.337 . S
C2041 C163 1.510 . S
C2061 C121 1.614 . S
C2067 C668 1.587 . S
C2087 C412 1.133 . S
C2081 C90 1.135 . S
C2107 C375 1.122 . S
C2101 C62 1.222 . S
C2121 C203 1.165 . S
C2127 C645 1.125 . S
C2147 C374 1.158 . S
C2141 C216 1.171 . S
C2167 C669 1.257 1_455 S
C2161 C174 1.310 . S
C2181 C191 1.323 . S
C2187 C415 1.277 . S
C2201 C218 1.291 . S
C2207 C517 1.246 . S
C2221 C176 1.532 . S
C2227 C459 1.430 . S
C2241 C189 1.144 . S
C2247 C560 1.146 1_455 S
C2261 C205 1.544 . S
C2267 C500 1.485 . S
C2287 C647 1.303 . S
C2281 C329 1.300 . S
C2301 C288 1.289 . S
C2307 C373 1.235 . S
C2327 C665 1.143 . S
C2321 C301 1.139 . S
C2341 C316 1.386 . S
C2347 C414 1.291 . S
C2361 C330 1.543 . S
C2367 C522 1.411 . S
C2387 C455 1.241 . S
C2381 C287 1.249 . S
C2401 C302 1.289 . S
C2407 C559 1.251 . S
C2427 C499 1.162 . S
C2421 C315 1.185 . S
C2447 C646 1.286 . S
C2441 C317 1.337 . S
C2467 C437 1.269 . S
C2461 C244 1.276 . S
C2481 C261 1.255 . S
C2487 C538 1.205 . S
C2507 C480 1.153 1_554 S
C2501 C272 1.204 . S
C2527 C498 1.352 . S
C2521 C331 1.443 . S
C2541 C289 1.268 . S
C2547 C664 1.242 . S
C2567 C581 1.179 . S
C2561 C258 1.190 . S
C2587 C603 1.244 . S
C2581 C230 1.333 . S
