# Generated by pormake.
# Topology pto, (3,4)-cn, num edge types: 1
# Building blocks:
#     Node 0, Type 0, BuildingBlock: OLANEW_clean_sbu_2, # of connection points: 3
#     Node 1, Type 0, BuildingBlock: OLANEW_clean_sbu_2, # of connection points: 3
#     Node 2, Type 0, BuildingBlock: OLANEW_clean_sbu_2, # of connection points: 3
#     Node 3, Type 0, BuildingBlock: OLANEW_clean_sbu_2, # of connection points: 3
#     Node 4, Type 0, BuildingBlock: OLANEW_clean_sbu_2, # of connection points: 3
#     Node 5, Type 0, BuildingBlock: OLANEW_clean_sbu_2, # of connection points: 3
#     Node 6, Type 0, BuildingBlock: OLANEW_clean_sbu_2, # of connection points: 3
#     Node 7, Type 0, BuildingBlock: OLANEW_clean_sbu_2, # of connection points: 3
#     Node 8, Type 1, BuildingBlock: KOZSID_clean_sbu_0, # of connection points: 4
#     Node 9, Type 1, BuildingBlock: KOZSID_clean_sbu_0, # of connection points: 4
#     Node 10, Type 1, BuildingBlock: KOZSID_clean_sbu_0, # of connection points: 4
#     Node 11, Type 1, BuildingBlock: KOZSID_clean_sbu_0, # of connection points: 4
#     Node 12, Type 1, BuildingBlock: KOZSID_clean_sbu_0, # of connection points: 4
#     Node 13, Type 1, BuildingBlock: KOZSID_clean_sbu_0, # of connection points: 4
#     Edge 14, Type (0, 1), BuildingBlock: AJUNOK_clean_linker_0, # of connection points: 2
#     Edge 15, Type (0, 1), BuildingBlock: AJUNOK_clean_linker_0, # of connection points: 2
#     Edge 16, Type (0, 1), BuildingBlock: AJUNOK_clean_linker_0, # of connection points: 2
#     Edge 17, Type (0, 1), BuildingBlock: AJUNOK_clean_linker_0, # of connection points: 2
#     Edge 18, Type (0, 1), BuildingBlock: AJUNOK_clean_linker_0, # of connection points: 2
#     Edge 19, Type (0, 1), BuildingBlock: AJUNOK_clean_linker_0, # of connection points: 2
#     Edge 20, Type (0, 1), BuildingBlock: AJUNOK_clean_linker_0, # of connection points: 2
#     Edge 21, Type (0, 1), BuildingBlock: AJUNOK_clean_linker_0, # of connection points: 2
#     Edge 22, Type (0, 1), BuildingBlock: AJUNOK_clean_linker_0, # of connection points: 2
#     Edge 23, Type (0, 1), BuildingBlock: AJUNOK_clean_linker_0, # of connection points: 2
#     Edge 24, Type (0, 1), BuildingBlock: AJUNOK_clean_linker_0, # of connection points: 2
#     Edge 25, Type (0, 1), BuildingBlock: AJUNOK_clean_linker_0, # of connection points: 2
#     Edge 26, Type (0, 1), BuildingBlock: AJUNOK_clean_linker_0, # of connection points: 2
#     Edge 27, Type (0, 1), BuildingBlock: AJUNOK_clean_linker_0, # of connection points: 2
#     Edge 28, Type (0, 1), BuildingBlock: AJUNOK_clean_linker_0, # of connection points: 2
#     Edge 29, Type (0, 1), BuildingBlock: AJUNOK_clean_linker_0, # of connection points: 2
#     Edge 30, Type (0, 1), BuildingBlock: AJUNOK_clean_linker_0, # of connection points: 2
#     Edge 31, Type (0, 1), BuildingBlock: AJUNOK_clean_linker_0, # of connection points: 2
#     Edge 32, Type (0, 1), BuildingBlock: AJUNOK_clean_linker_0, # of connection points: 2
#     Edge 33, Type (0, 1), BuildingBlock: AJUNOK_clean_linker_0, # of connection points: 2
#     Edge 34, Type (0, 1), BuildingBlock: AJUNOK_clean_linker_0, # of connection points: 2
#     Edge 35, Type (0, 1), BuildingBlock: AJUNOK_clean_linker_0, # of connection points: 2
#     Edge 36, Type (0, 1), BuildingBlock: AJUNOK_clean_linker_0, # of connection points: 2
#     Edge 37, Type (0, 1), BuildingBlock: AJUNOK_clean_linker_0, # of connection points: 2
# Relax obj value: 0.009
# Max RMSD: 0.123
# Mean RMSD: 0.050
data_MOF--net-pto--node1-OLANEW_clean_sbu_2--node2-KOZSID_clean_sbu_0--edge1-AJUNOK_clean_linker_0
_symmetry_space_group_name_H-M    P1
_symmetry_Int_Tables_number       1
_symmetry_cell_setting            triclinic
loop_
_symmetry_equiv_pos_as_xyz
'x, y, z'
_cell_length_a     30.585368
_cell_length_b     42.960947
_cell_length_c     36.149647
_cell_angle_alpha  90.116224
_cell_angle_beta   86.258809
_cell_angle_gamma 110.12627
loop_
_atom_site_label
_atom_site_type_symbol
_atom_site_fract_x
_atom_site_fract_y
_atom_site_fract_z
_atom_type_partial_charge
O0 O 0.41028 0.36047 0.28737 0.0
Cd1 Cd 0.36628 0.35042 0.34795 0.0
O2 O 0.37258 0.3921 0.26828 0.0
Cd3 Cd 0.33202 0.39331 0.31988 0.0
O4 O 0.28255 0.41413 0.34668 0.0
C5 C 0.24075 0.40297 0.33729 0.0
O6 O 0.22894 0.37776 0.31485 0.0
C7 C 0.40227 0.37776 0.26186 0.0
C8 C 0.36407 0.29192 0.38321 0.0
O9 O 0.33648 0.29143 0.35786 0.0
O10 O 0.39289 0.32007 0.39202 0.0
O11 O 0.3341 0.909 0.81305 0.0
Cd12 Cd 0.27092 0.90984 0.7752 0.0
O13 O 0.33229 0.86009 0.79321 0.0
Cd14 Cd 0.27122 0.84761 0.76039 0.0
O15 O 0.21515 0.80428 0.74184 0.0
C16 C 0.22321 0.77733 0.74515 0.0
O17 O 0.26308 0.77862 0.75786 0.0
C18 C 0.35031 0.8854 0.81269 0.0
C19 C 0.29776 0.96052 0.72081 0.0
O20 O 0.28253 0.96529 0.75344 0.0
O21 O 0.30085 0.93199 0.71424 0.0
O22 O 0.86189 0.82971 0.35677 0.0
Cd23 Cd 0.85322 0.7927 0.30404 0.0
O24 O 0.78574 0.81424 0.36788 0.0
Cd25 Cd 0.76979 0.79109 0.31416 0.0
O26 O 0.74449 0.79226 0.25905 0.0
C27 C 0.73479 0.81797 0.25163 0.0
O28 O 0.74096 0.84089 0.27686 0.0
C29 C 0.82671 0.83035 0.37713 0.0
C30 C 0.88503 0.74007 0.3164 0.0
O31 O 0.91199 0.76743 0.30113 0.0
O32 O 0.84294 0.73768 0.3262 0.0
O33 O 0.79579 0.35521 0.62272 0.0
Cd34 Cd 0.74748 0.29959 0.60417 0.0
O35 O 0.76977 0.34476 0.68105 0.0
Cd36 Cd 0.76293 0.36017 0.73819 0.0
O37 O 0.74112 0.36973 0.79461 0.0
C38 C 0.70286 0.37509 0.80004 0.0
O39 O 0.67871 0.37542 0.77139 0.0
C40 C 0.79482 0.36483 0.65592 0.0
C41 C 0.77974 0.24671 0.61419 0.0
O42 O 0.79348 0.26603 0.58555 0.0
O43 O 0.75206 0.25311 0.63879 0.0
O44 O 0.76977 0.80174 0.6073 0.0
Cd45 Cd 0.75379 0.74185 0.6009 0.0
O46 O 0.76337 0.80082 0.66803 0.0
Cd47 Cd 0.76389 0.81898 0.72484 0.0
O48 O 0.74675 0.83078 0.78163 0.0
C49 C 0.70415 0.82595 0.79119 0.0
O50 O 0.67298 0.81439 0.76663 0.0
C51 C 0.76929 0.81693 0.63747 0.0
C52 C 0.81215 0.7118 0.63053 0.0
O53 O 0.82279 0.72686 0.59887 0.0
O54 O 0.7752 0.71242 0.64896 0.0
O55 O 0.90711 0.31073 0.37122 0.0
Cd56 Cd 0.8796 0.25304 0.35119 0.0
O57 O 0.85434 0.31112 0.33365 0.0
Cd58 Cd 0.81763 0.33333 0.2981 0.0
O59 O 0.77531 0.34452 0.25758 0.0
C60 C 0.79416 0.36328 0.22959 0.0
O61 O 0.83986 0.37681 0.22604 0.0
C62 C 0.88531 0.32671 0.35529 0.0
C63 C 0.87553 0.20303 0.40166 0.0
O64 O 0.91112 0.21541 0.37867 0.0
O65 O 0.84263 0.21514 0.40163 0.0
O66 O 0.3033 0.3785 0.81948 0.0
Cd67 Cd 0.25791 0.36934 0.76467 0.0
O68 O 0.36751 0.37982 0.78725 0.0
Cd69 Cd 0.33404 0.36093 0.73628 0.0
O70 O 0.32355 0.32271 0.69435 0.0
C71 C 0.34206 0.3011 0.70085 0.0
O72 O 0.36447 0.30368 0.73115 0.0
C73 C 0.34662 0.38272 0.81795 0.0
C74 C 0.21311 0.41567 0.75683 0.0
O75 O 0.19343 0.38867 0.77573 0.0
O76 O 0.25424 0.42087 0.74187 0.0
O77 O 0.38194 0.8626 0.24976 0.0
Cd78 Cd 0.33185 0.8507 0.30724 0.0
O79 O 0.32239 0.84628 0.21475 0.0
Cd80 Cd 0.27155 0.82414 0.26094 0.0
O81 O 0.22393 0.77949 0.28972 0.0
C82 C 0.24089 0.75769 0.299 0.0
O83 O 0.28601 0.76421 0.29291 0.0
C84 C 0.36615 0.85894 0.21774 0.0
C85 C 0.34162 0.90772 0.34814 0.0
O86 O 0.36721 0.89011 0.35301 0.0
O87 O 0.31143 0.89836 0.3237 0.0
C88 C 0.0984 0.61005 0.37189 0.0
C89 C 0.11453 0.62665 0.40396 0.0
C90 C 0.08736 0.60794 0.43293 0.0
C91 C 0.05629 0.58113 0.41695 0.0
N92 N 0.06251 0.58127 0.37953 0.0
Co93 Co 0.02329 0.54832 0.34496 0.0
N94 N 0.98201 0.52163 0.3874 0.0
C95 C 0.98425 0.52861 0.42386 0.0
C96 C 0.95407 0.50381 0.44647 0.0
C97 C 0.93229 0.4791 0.4231 0.0
C98 C 0.95051 0.49044 0.38757 0.0
N99 N 0.98382 0.5155 0.31046 0.0
C100 C 0.95132 0.48529 0.31835 0.0
C101 C 0.93381 0.46891 0.28654 0.0
C102 C 0.95723 0.48919 0.2573 0.0
C103 C 0.98752 0.51664 0.27295 0.0
N104 N 0.0649 0.57453 0.3024 0.0
C105 C 0.06155 0.56769 0.26588 0.0
C106 C 0.09461 0.5907 0.24323 0.0
C107 C 0.12015 0.61389 0.26657 0.0
C108 C 0.10097 0.60367 0.30226 0.0
N109 N 0.06368 0.52104 0.34814 0.0
C110 C 0.11844 0.48041 0.35229 0.0
C111 C 0.10369 0.48707 0.31844 0.0
C112 C 0.07674 0.50734 0.31697 0.0
C113 C 0.10545 0.49445 0.38414 0.0
C114 C 0.07819 0.51456 0.38146 0.0
N115 N 0.98318 0.57609 0.34168 0.0
C116 C 0.95507 0.61077 0.30409 0.0
C117 C 0.94422 0.62625 0.33547 0.0
C118 C 0.94919 0.61432 0.37022 0.0
C119 C 0.96852 0.58927 0.37269 0.0
C120 C 0.97377 0.58567 0.30783 0.0
H121 H 0.97272 0.58186 0.39989 0.0
H122 H 0.98182 0.57531 0.28275 0.0
H123 H 0.0667 0.51145 0.2903 0.0
H124 H 0.06894 0.5244 0.40668 0.0
C125 C 0.0195 0.55635 0.43612 0.0
C126 C 0.11641 0.62347 0.33481 0.0
C127 C 0.94018 0.46985 0.35512 0.0
C128 C 0.02472 0.54094 0.25357 0.0
H129 H 0.14227 0.65027 0.40611 0.0
H130 H 0.08915 0.61369 0.46208 0.0
H131 H 0.95052 0.50292 0.47648 0.0
H132 H 0.90746 0.45493 0.43128 0.0
H133 H 0.90861 0.44415 0.28471 0.0
H134 H 0.95481 0.48355 0.22814 0.0
H135 H 0.09866 0.59116 0.21324 0.0
H136 H 0.14881 0.63629 0.25822 0.0
H137 H 0.11334 0.47694 0.29299 0.0
H138 H 0.11574 0.48961 0.41104 0.0
H139 H 0.95027 0.61861 0.27664 0.0
H140 H 0.94022 0.62529 0.39531 0.0
C141 C 0.06374 0.62701 0.74983 0.0
C142 C 0.06885 0.6376 0.78612 0.0
C143 C 0.04159 0.61144 0.80839 0.0
C144 C 0.02144 0.58645 0.78456 0.0
N145 N 0.03424 0.59528 0.7487 0.0
Co146 Co 0.0132 0.56697 0.70526 0.0
N147 N 0.95904 0.53567 0.7351 0.0
C148 C 0.95299 0.5341 0.77241 0.0
C149 C 0.91169 0.51064 0.7854 0.0
C150 C 0.89076 0.49607 0.7544 0.0
C151 C 0.92091 0.51121 0.72409 0.0
N152 N 0.99279 0.5385 0.6617 0.0
C153 C 0.95272 0.51285 0.6571 0.0
C154 C 0.95491 0.49839 0.62285 0.0
C155 C 0.99774 0.51535 0.60575 0.0
C156 C 0.01949 0.53904 0.63033 0.0
N157 N 0.06724 0.59843 0.67561 0.0
C158 C 0.08589 0.59244 0.64281 0.0
C159 C 0.12296 0.61908 0.62884 0.0
C160 C 0.12806 0.64332 0.65458 0.0
C161 C 0.09369 0.62997 0.68288 0.0
N162 N 0.05168 0.5408 0.71793 0.0
C163 C 0.10723 0.50307 0.73355 0.0
C164 C 0.12492 0.53774 0.73519 0.0
C165 C 0.09661 0.55613 0.72729 0.0
C166 C 0.06098 0.48774 0.72462 0.0
C167 C 0.03392 0.50694 0.71696 0.0
N168 N 0.97488 0.59317 0.69261 0.0
C169 C 0.9484 0.62237 0.64727 0.0
C170 C 0.92206 0.63242 0.67492 0.0
C171 C 0.92314 0.62253 0.71167 0.0
C172 C 0.94922 0.60267 0.71983 0.0
C173 C 0.97463 0.60293 0.65668 0.0
H174 H 0.94895 0.59532 0.74832 0.0
H175 H 0.99487 0.59591 0.63486 0.0
H176 H 0.11119 0.58277 0.7286 0.0
H177 H 0.99871 0.4942 0.70989 0.0
C178 C 0.984 0.55744 0.79403 0.0
C179 C 0.08932 0.64695 0.71736 0.0
C180 C 0.91503 0.49861 0.68619 0.0
C181 C 0.06291 0.56399 0.62345 0.0
H182 H 0.08988 0.66173 0.79549 0.0
H183 H 0.03543 0.61125 0.83823 0.0
H184 H 0.89803 0.50515 0.81393 0.0
H185 H 0.85772 0.47588 0.75421 0.0
H186 H 0.9291 0.47704 0.6117 0.0
H187 H 0.0113 0.51096 0.57859 0.0
H188 H 0.14273 0.62111 0.60246 0.0
H189 H 0.15417 0.66792 0.65282 0.0
H190 H 0.16024 0.55057 0.7427 0.0
H191 H 0.04594 0.46101 0.72292 0.0
H192 H 0.94853 0.62928 0.61845 0.0
H193 H 0.90444 0.63037 0.73416 0.0
C194 C 0.37792 0.07859 0.5859 0.0
C195 C 0.41901 0.07617 0.59764 0.0
C196 C 0.45336 0.09089 0.57048 0.0
C197 C 0.43156 0.10166 0.54386 0.0
N198 N 0.38575 0.09507 0.55284 0.0
Co199 Co 0.34157 0.106 0.52179 0.0
N200 N 0.39333 0.13824 0.49108 0.0
C201 C 0.43802 0.13964 0.48794 0.0
C202 C 0.46579 0.1649 0.46457 0.0
C203 C 0.43661 0.18025 0.45232 0.0
C204 C 0.39263 0.16346 0.46908 0.0
N205 N 0.29774 0.11698 0.49052 0.0
C206 C 0.30499 0.14431 0.46907 0.0
C207 C 0.2642 0.14318 0.45345 0.0
C208 C 0.23067 0.11374 0.46509 0.0
C209 C 0.2526 0.09873 0.48739 0.0
N210 N 0.28952 0.07361 0.55229 0.0
C211 C 0.24519 0.05994 0.54269 0.0
C212 C 0.21696 0.03753 0.56867 0.0
C213 C 0.24539 0.03667 0.59609 0.0
C214 C 0.28965 0.05872 0.58527 0.0
N215 N 0.34011 0.14128 0.55543 0.0
C216 C 0.33857 0.19334 0.60147 0.0
C217 C 0.29707 0.17079 0.58953 0.0
C218 C 0.29859 0.14492 0.56659 0.0
C219 C 0.38078 0.18905 0.59025 0.0
C220 C 0.3808 0.16296 0.5672 0.0
N221 N 0.34311 0.07067 0.48801 0.0
C222 C 0.34857 0.05083 0.42612 0.0
C223 C 0.34695 0.02013 0.44037 0.0
C224 C 0.3426 0.01509 0.47883 0.0
C225 C 0.34076 0.04057 0.50206 0.0
C226 C 0.3468 0.07584 0.45042 0.0
H227 H 0.3374 0.03579 0.53145 0.0
H228 H 0.34856 0.09938 0.4388 0.0
H229 H 0.26615 0.12795 0.55776 0.0
H230 H 0.41384 0.1605 0.55866 0.0
C231 C 0.45379 0.12147 0.51265 0.0
C232 C 0.33163 0.06144 0.60454 0.0
C233 C 0.35047 0.17071 0.46204 0.0
C234 C 0.23022 0.07182 0.51165 0.0
H235 H 0.42344 0.06419 0.62272 0.0
H236 H 0.48997 0.09389 0.57051 0.0
H237 H 0.50314 0.17232 0.45854 0.0
H238 H 0.44651 0.20138 0.43335 0.0
H239 H 0.25892 0.16173 0.43586 0.0
H240 H 0.19407 0.10527 0.45969 0.0
H241 H 0.17996 0.02385 0.56808 0.0
H242 H 0.23496 0.02091 0.62075 0.0
H243 H 0.26363 0.17288 0.59819 0.0
H244 H 0.41363 0.20598 0.5989 0.0
H245 H 0.35173 0.0556 0.39648 0.0
H246 H 0.34011 0.99145 0.49096 0.0
C247 C 0.52856 0.89445 0.07281 0.0
C248 C 0.53773 0.92616 0.08634 0.0
C249 C 0.57738 0.94607 0.06718 0.0
C250 C 0.59005 0.92547 0.04312 0.0
N251 N 0.56066 0.89363 0.04548 0.0
Co252 Co 0.56685 0.85526 0.01654 0.0
N253 N 0.62484 0.88467 0.98796 0.0
C254 C 0.64625 0.91768 0.99166 0.0
C255 C 0.68322 0.9315 0.96627 0.0
C256 C 0.68503 0.90592 0.94452 0.0
C257 C 0.64906 0.87785 0.95815 0.0
N258 N 0.57356 0.81681 0.98819 0.0
C259 C 0.60374 0.81639 0.95926 0.0
C260 C 0.59659 0.78441 0.94726 0.0
C261 C 0.55973 0.76392 0.96886 0.0
C262 C 0.54673 0.78447 0.99279 0.0
N263 N 0.50814 0.82592 0.04423 0.0
C264 C 0.48682 0.79288 0.04037 0.0
C265 C 0.44718 0.77948 0.06322 0.0
C266 C 0.44289 0.80544 0.08299 0.0
C267 C 0.48035 0.83335 0.07095 0.0
N268 N 0.52903 0.86355 0.97767 0.0
C269 C 0.47704 0.87467 0.92082 0.0
C270 C 0.47015 0.84259 0.93368 0.0
C271 C 0.49629 0.83764 0.96183 0.0
C272 C 0.50972 0.90119 0.9374 0.0
C273 C 0.53532 0.89512 0.9655 0.0
N274 N 0.60471 0.84692 0.05568 0.0
C275 C 0.61666 0.8104 0.10188 0.0
C276 C 0.65344 0.83627 0.11533 0.0
C277 C 0.66628 0.86735 0.09779 0.0
C278 C 0.64181 0.87207 0.06821 0.0
C279 C 0.59324 0.81618 0.07218 0.0
H280 H 0.65314 0.8964 0.05641 0.0
H281 H 0.56535 0.7954 0.06369 0.0
H282 H 0.48947 0.81257 0.97028 0.0
H283 H 0.56015 0.91629 0.97681 0.0
C284 C 0.6289 0.93535 0.01766 0.0
C285 C 0.48907 0.86598 0.08695 0.0
C286 C 0.63749 0.84568 0.94069 0.0
C287 C 0.50643 0.77473 0.0167 0.0
H288 H 0.51785 0.93404 0.10793 0.0
H289 H 0.59492 0.9724 0.07042 0.0
H290 H 0.70516 0.95731 0.96309 0.0
H291 H 0.70925 0.90791 0.92071 0.0
H292 H 0.61514 0.77688 0.92444 0.0
H293 H 0.54307 0.7374 0.96631 0.0
H294 H 0.42468 0.75376 0.0658 0.0
H295 H 0.41571 0.8038 0.1044 0.0
H296 H 0.44431 0.82132 0.92228 0.0
H297 H 0.51599 0.92649 0.92837 0.0
H298 H 0.60487 0.78599 0.11493 0.0
H299 H 0.69488 0.88813 0.1071 0.0
C300 C 0.83532 0.98187 0.62047 0.0
C301 C 0.86988 0.97957 0.64212 0.0
C302 C 0.90986 0.00474 0.63045 0.0
C303 C 0.89729 0.02083 0.60248 0.0
N304 N 0.85142 0.00813 0.59651 0.0
Co305 Co 0.81856 0.02126 0.55649 0.0
N306 N 0.87885 0.05282 0.53321 0.0
C307 C 0.92212 0.05857 0.54473 0.0
C308 C 0.95625 0.08357 0.52523 0.0
C309 C 0.93338 0.09498 0.50031 0.0
C310 C 0.88635 0.07601 0.50585 0.0
N311 N 0.78538 0.03444 0.51668 0.0
C312 C 0.80213 0.05851 0.49008 0.0
C313 C 0.76719 0.06016 0.46832 0.0
C314 C 0.72652 0.03731 0.48279 0.0
C315 C 0.73898 0.02288 0.51219 0.0
N316 N 0.75842 0.98923 0.57954 0.0
C317 C 0.71487 0.98373 0.56876 0.0
C318 C 0.68144 0.95728 0.58676 0.0
C319 C 0.70517 0.94439 0.60943 0.0
C320 C 0.75189 0.96404 0.60424 0.0
N321 N 0.81127 0.0581 0.58696 0.0
C322 C 0.80643 0.11939 0.61066 0.0
C323 C 0.76642 0.09373 0.60141 0.0
C324 C 0.76952 0.06343 0.59007 0.0
C325 C 0.8478 0.11259 0.61189 0.0
C326 C 0.84924 0.08177 0.60052 0.0
N327 N 0.82592 0.9849 0.5256 0.0
C328 C 0.79185 0.9378 0.48727 0.0
C329 C 0.83319 0.9308 0.48475 0.0
C330 C 0.87144 0.95187 0.50222 0.0
C331 C 0.86702 0.97858 0.52255 0.0
C332 C 0.78899 0.96463 0.50761 0.0
H333 H 0.89703 0.99358 0.53586 0.0
H334 H 0.75635 0.96833 0.50848 0.0
H335 H 0.73808 0.04539 0.5822 0.0
H336 H 0.88197 0.07828 0.60136 0.0
C337 C 0.92864 0.04357 0.57722 0.0
C338 C 0.78963 0.95612 0.62003 0.0
C339 C 0.84952 0.08259 0.48694 0.0
C340 C 0.70778 0.99981 0.53729 0.0
H341 H 0.86695 0.96039 0.66248 0.0
H342 H 0.94459 0.00911 0.63926 0.0
H343 H 0.99298 0.09371 0.53011 0.0
H344 H 0.94954 0.11593 0.48154 0.0
H345 H 0.77049 0.07721 0.44543 0.0
H346 H 0.69179 0.03267 0.47383 0.0
H347 H 0.64476 0.94692 0.58175 0.0
H348 H 0.68988 0.92192 0.62604 0.0
H349 H 0.7333 0.09761 0.60078 0.0
H350 H 0.87928 0.13131 0.62041 0.0
H351 H 0.76174 0.92282 0.47316 0.0
H352 H 0.90435 0.94752 0.50061 0.0
C353 C 0.52501 0.41688 0.09666 0.0
C354 C 0.52898 0.44765 0.11105 0.0
C355 C 0.55998 0.47084 0.08757 0.0
C356 C 0.57329 0.45304 0.06035 0.0
N357 N 0.55224 0.41983 0.06478 0.0
Co358 Co 0.56318 0.38465 0.03274 0.0
N359 N 0.6133 0.41864 0.00102 0.0
C360 C 0.62948 0.45186 0.00544 0.0
C361 C 0.66336 0.46878 0.97887 0.0
C362 C 0.66884 0.44499 0.95584 0.0
C363 C 0.63779 0.41486 0.96977 0.0
N364 N 0.57347 0.34946 0.00035 0.0
C365 C 0.60137 0.35241 0.96891 0.0
C366 C 0.59667 0.32175 0.9539 0.0
C367 C 0.56411 0.29857 0.97638 0.0
C368 C 0.55085 0.31633 0.00366 0.0
N369 N 0.51388 0.35058 0.06496 0.0
C370 C 0.49831 0.31728 0.06096 0.0
C371 C 0.46541 0.30025 0.08806 0.0
C372 C 0.4602 0.32398 0.11124 0.0
C373 C 0.49053 0.35424 0.09688 0.0
N374 N 0.51554 0.38788 0.99948 0.0
C375 C 0.45431 0.3915 0.94614 0.0
C376 C 0.44945 0.36134 0.96328 0.0
C377 C 0.48025 0.36008 0.98962 0.0
C378 C 0.48905 0.42002 0.95701 0.0
C379 C 0.51862 0.41774 0.98395 0.0
N380 N 0.61083 0.3815 0.0658 0.0
C381 C 0.64329 0.34845 0.1018 0.0
C382 C 0.67459 0.37691 0.11639 0.0
C383 C 0.67411 0.40772 0.10478 0.0
C384 C 0.64228 0.40944 0.07959 0.0
C385 C 0.61212 0.35129 0.0766 0.0
H386 H 0.64329 0.43363 0.0722 0.0
H387 H 0.58902 0.32869 0.06661 0.0
H388 H 0.47546 0.3362 0.00085 0.0
H389 H 0.54427 0.44039 0.99112 0.0
C390 C 0.60923 0.46658 0.03287 0.0
C391 C 0.49691 0.38558 0.11523 0.0
C392 C 0.63105 0.38361 0.95125 0.0
C393 C 0.51643 0.30268 0.03213 0.0
H394 H 0.51231 0.45281 0.13649 0.0
H395 H 0.57284 0.49745 0.09085 0.0
H396 H 0.68084 0.49533 0.97588 0.0
H397 H 0.69215 0.44934 0.93105 0.0
H398 H 0.61431 0.31674 0.92887 0.0
H399 H 0.55099 0.27199 0.97284 0.0
H400 H 0.44801 0.27369 0.09104 0.0
H401 H 0.43727 0.31948 0.13625 0.0
H402 H 0.42312 0.33858 0.95536 0.0
H403 H 0.49371 0.44394 0.94448 0.0
H404 H 0.64274 0.32405 0.10992 0.0
H405 H 0.69735 0.43042 0.1158 0.0
C406 C 0.16346 0.40984 0.33221 0.0
C407 C 0.20786 0.42095 0.34652 0.0
C408 C 0.13403 0.42861 0.33558 0.0
C409 C 0.14761 0.45914 0.3536 0.0
H410 H 0.15182 0.387 0.31706 0.0
H411 H 0.10078 0.41952 0.32314 0.0
S412 S 0.25834 0.49835 0.39867 0.0
N413 N 0.26249 0.46365 0.38178 0.0
N414 N 0.20704 0.49893 0.38777 0.0
C415 C 0.19073 0.46983 0.36975 0.0
C416 C 0.22088 0.45074 0.36628 0.0
C417 C 0.19947 0.71573 0.74095 0.0
C418 C 0.18839 0.74471 0.73641 0.0
C419 C 0.16736 0.68434 0.73436 0.0
C420 C 0.12295 0.68067 0.72296 0.0
H421 H 0.23315 0.71714 0.74999 0.0
H422 H 0.17711 0.66268 0.73849 0.0
S423 S 0.07611 0.74769 0.70599 0.0
N424 N 0.12934 0.76721 0.71897 0.0
N425 N 0.06912 0.7078 0.70669 0.0
C426 C 0.11125 0.70906 0.71782 0.0
C427 C 0.14395 0.7412 0.7245 0.0
C428 C 0.8732 0.68352 0.34289 0.0
C429 C 0.9016 0.71179 0.32201 0.0
C430 C 0.88743 0.6561 0.3478 0.0
C431 C 0.93024 0.65576 0.33157 0.0
H432 H 0.83959 0.68246 0.35549 0.0
H433 H 0.86442 0.63477 0.36377 0.0
S434 S 0.01873 0.72366 0.27609 0.0
N435 N 0.97574 0.73788 0.28627 0.0
N436 N 0.00189 0.68622 0.29535 0.0
C437 C 0.95929 0.68389 0.31119 0.0
C438 C 0.94514 0.71192 0.30646 0.0
C439 C 0.85498 0.40495 0.6922 0.0
C440 C 0.82249 0.39912 0.66503 0.0
C441 C 0.88418 0.43726 0.69933 0.0
C442 C 0.88064 0.46488 0.68049 0.0
H443 H 0.85903 0.38433 0.70704 0.0
H444 H 0.91037 0.44063 0.71921 0.0
S445 S 0.79887 0.46276 0.60859 0.0
N446 N 0.78755 0.42334 0.61979 0.0
N447 N 0.84068 0.48431 0.63482 0.0
C448 C 0.84706 0.45937 0.65426 0.0
C449 C 0.81839 0.42641 0.64613 0.0
C450 C 0.37245 0.26139 0.43974 0.0
C451 C 0.36195 0.26094 0.40234 0.0
C452 C 0.36859 0.23205 0.45888 0.0
C453 C 0.35464 0.20143 0.44112 0.0
H454 H 0.38271 0.28446 0.45456 0.0
H455 H 0.37617 0.23323 0.48783 0.0
S456 S 0.329 0.18729 0.34251 0.0
N457 N 0.34009 0.22744 0.34771 0.0
N458 N 0.33475 0.17264 0.38341 0.0
C459 C 0.34606 0.20079 0.40342 0.0
C460 C 0.34909 0.23047 0.38412 0.0
C461 C 0.39459 0.90522 0.86926 0.0
C462 C 0.38745 0.88571 0.83734 0.0
C463 C 0.42495 0.90245 0.89556 0.0
C464 C 0.44933 0.88013 0.89084 0.0
H465 H 0.3751 0.92173 0.87483 0.0
H466 H 0.42789 0.91688 0.92048 0.0
S467 S 0.44894 0.82746 0.80938 0.0
N468 N 0.41146 0.84602 0.80067 0.0
N469 N 0.46869 0.84117 0.8499 0.0
C470 C 0.44468 0.86199 0.85806 0.0
C471 C 0.41375 0.8647 0.83137 0.0
C472 C 0.87037 0.88316 0.40782 0.0
C473 C 0.83279 0.85284 0.40897 0.0
C474 C 0.87195 0.9077 0.43393 0.0
C475 C 0.83619 0.9026 0.4622 0.0
H476 H 0.89722 0.88884 0.38528 0.0
H477 H 0.89983 0.93149 0.43062 0.0
S478 S 0.73561 0.82497 0.4819 0.0
N479 N 0.76261 0.81739 0.44372 0.0
N480 N 0.76625 0.86315 0.49325 0.0
C481 C 0.80071 0.87133 0.46552 0.0
C482 C 0.79882 0.84654 0.43878 0.0
C483 C 0.711 0.37817 0.86869 0.0
C484 C 0.68483 0.37922 0.83827 0.0
C485 C 0.6939 0.38031 0.90521 0.0
C486 C 0.65017 0.38364 0.91253 0.0
H487 H 0.74471 0.37521 0.8644 0.0
H488 H 0.71461 0.37885 0.92791 0.0
S489 S 0.56814 0.38859 0.8439 0.0
N490 N 0.61288 0.38465 0.81867 0.0
N491 N 0.58128 0.38857 0.88748 0.0
C492 C 0.62394 0.38532 0.88278 0.0
C493 C 0.64116 0.38316 0.84558 0.0
C494 C 0.30415 0.01752 0.69891 0.0
C495 C 0.3098 0.98683 0.69132 0.0
C496 C 0.31252 0.04202 0.67103 0.0
C497 C 0.32708 0.03676 0.63469 0.0
H498 H 0.29233 0.02251 0.72644 0.0
H499 H 0.30676 0.06496 0.67773 0.0
S500 S 0.34787 0.96156 0.59985 0.0
N501 N 0.33186 0.95321 0.64428 0.0
N502 N 0.34707 0.99921 0.59223 0.0
C503 C 0.33355 0.00661 0.62671 0.0
C504 C 0.32512 0.98168 0.65494 0.0
C505 C 0.70153 0.84965 0.21054 0.0
C506 C 0.71564 0.82213 0.21593 0.0
C507 C 0.68227 0.85421 0.17777 0.0
C508 C 0.67625 0.83146 0.14889 0.0
H509 H 0.70479 0.86779 0.23201 0.0
H510 H 0.67105 0.87541 0.17538 0.0
S511 S 0.7101 0.75639 0.14762 0.0
N512 N 0.72384 0.77238 0.18866 0.0
N513 N 0.68802 0.78125 0.12686 0.0
C514 C 0.69093 0.80413 0.15346 0.0
C515 C 0.71056 0.79942 0.18695 0.0
C516 C 0.76281 0.18924 0.63944 0.0
C517 C 0.79186 0.21618 0.6171 0.0
C518 C 0.76906 0.15838 0.63858 0.0
C519 C 0.80514 0.15341 0.61592 0.0
H520 H 0.73354 0.19145 0.65641 0.0
H521 H 0.74461 0.13795 0.655 0.0
S522 S 0.89365 0.21673 0.55488 0.0
N523 N 0.8601 0.23642 0.57353 0.0
N524 N 0.87227 0.17862 0.57246 0.0
C525 C 0.83617 0.18066 0.59515 0.0
C526 C 0.82936 0.21195 0.59554 0.0
C527 C 0.46648 0.37149 0.21884 0.0
C528 C 0.42673 0.38089 0.22439 0.0
C529 C 0.4896 0.37374 0.18359 0.0
C530 C 0.47369 0.38531 0.15268 0.0
H531 H 0.47987 0.36231 0.24186 0.0
H532 H 0.51985 0.36607 0.18033 0.0
S533 S 0.37093 0.41194 0.15131 0.0
N534 N 0.37239 0.40187 0.19516 0.0
N535 N 0.41579 0.40544 0.1291 0.0
C536 C 0.43418 0.39465 0.15757 0.0
C537 C 0.41075 0.39265 0.19339 0.0
C538 C 0.88645 0.69925 0.62943 0.0
C539 C 0.84036 0.69268 0.64423 0.0
C540 C 0.91274 0.68003 0.63991 0.0
C541 C 0.89389 0.65318 0.66532 0.0
H542 H 0.90237 0.71936 0.60943 0.0
H543 H 0.94818 0.68626 0.62793 0.0
S544 S 0.77392 0.62452 0.71079 0.0
N545 N 0.77673 0.65709 0.68533 0.0
N546 N 0.82552 0.62038 0.70406 0.0
C547 C 0.84781 0.64635 0.68036 0.0
C548 C 0.82124 0.6662 0.67005 0.0
C549 C 0.94566 0.38313 0.35793 0.0
C550 C 0.89829 0.36296 0.35917 0.0
C551 C 0.95893 0.41783 0.35758 0.0
C552 C 0.92521 0.4333 0.35894 0.0
H553 H 0.97265 0.37208 0.3558 0.0
H554 H 0.99574 0.43268 0.35537 0.0
S555 S 0.797 0.39191 0.36688 0.0
N556 N 0.81775 0.3611 0.36528 0.0
N557 N 0.84299 0.42638 0.36404 0.0
C558 C 0.87791 0.41355 0.36176 0.0
C559 C 0.86436 0.3783 0.36204 0.0
C560 C 0.14385 0.43344 0.76989 0.0
C561 C 0.18834 0.43957 0.75186 0.0
C562 C 0.11844 0.45448 0.76442 0.0
C563 C 0.13644 0.4826 0.74078 0.0
H564 H 0.12811 0.41197 0.78814 0.0
H565 H 0.08421 0.44855 0.77871 0.0
S566 S 0.25111 0.51005 0.68687 0.0
N567 N 0.24949 0.4763 0.70953 0.0
N568 N 0.20135 0.51554 0.69907 0.0
C569 C 0.18112 0.48942 0.723 0.0
C570 C 0.2071 0.46798 0.72855 0.0
C571 C 0.16086 0.71543 0.31129 0.0
C572 C 0.20966 0.72416 0.31214 0.0
C573 C 0.13079 0.68298 0.31975 0.0
C574 C 0.1484 0.65826 0.32964 0.0
H575 H 0.14573 0.73348 0.30293 0.0
H576 H 0.09359 0.67696 0.31772 0.0
S577 S 0.27211 0.66791 0.3386 0.0
N578 N 0.27355 0.70514 0.32571 0.0
N579 N 0.21648 0.64424 0.34147 0.0
C580 C 0.19656 0.66661 0.3319 0.0
C581 C 0.22734 0.69957 0.32323 0.0
C582 C 0.80413 0.87258 0.60625 0.0
C583 C 0.77582 0.85283 0.63576 0.0
C584 C 0.80881 0.906 0.60184 0.0
C585 C 0.78538 0.92101 0.62675 0.0
H586 H 0.82256 0.86204 0.58609 0.0
H587 H 0.8304 0.92012 0.57843 0.0
S588 S 0.70599 0.88067 0.70783 0.0
N589 N 0.72173 0.85075 0.68896 0.0
N590 N 0.73409 0.91438 0.68243 0.0
C591 C 0.75776 0.90199 0.65673 0.0
C592 C 0.75203 0.86767 0.66079 0.0
C593 C 0.71639 0.3503 0.2033 0.0
C594 C 0.76475 0.36811 0.20057 0.0
C595 C 0.6877 0.35324 0.1759 0.0
C596 C 0.70608 0.37428 0.14474 0.0
H597 H 0.70038 0.33366 0.2267 0.0
H598 H 0.65068 0.33913 0.1793 0.0
S599 S 0.83008 0.42626 0.12378 0.0
N600 N 0.82966 0.40765 0.16379 0.0
N601 N 0.77544 0.41298 0.11225 0.0
C602 C 0.75419 0.39241 0.14159 0.0
C603 C 0.78358 0.38935 0.16947 0.0
C604 C 0.36272 0.25145 0.6827 0.0
C605 C 0.33962 0.27373 0.67492 0.0
C606 C 0.36208 0.22561 0.65884 0.0
C607 C 0.33809 0.22079 0.62629 0.0
H608 H 0.38175 0.25395 0.70741 0.0
H609 H 0.38028 0.20909 0.6661 0.0
S610 S 0.27273 0.27222 0.59236 0.0
N611 N 0.29231 0.28924 0.63176 0.0
N612 N 0.29135 0.24059 0.58691 0.0
C613 C 0.31472 0.24269 0.61805 0.0
C614 C 0.31548 0.26918 0.64232 0.0
C615 C 0.44566 0.86881 0.18697 0.0
C616 C 0.39869 0.86595 0.18402 0.0
C617 C 0.47541 0.8703 0.15532 0.0
C618 C 0.45935 0.86933 0.11973 0.0
H619 H 0.45905 0.86831 0.21389 0.0
H620 H 0.51066 0.87094 0.15868 0.0
S621 S 0.34202 0.86619 0.09623 0.0
N622 N 0.33916 0.86525 0.14202 0.0
N623 N 0.39563 0.86831 0.08275 0.0
C624 C 0.41365 0.86849 0.11616 0.0
C625 C 0.38317 0.86674 0.14827 0.0
C626 C 0.89542 0.15259 0.41478 0.0
C627 C 0.87112 0.17401 0.4256 0.0
C628 C 0.88869 0.12323 0.43485 0.0
C629 C 0.85863 0.1148 0.46714 0.0
H630 H 0.91851 0.15785 0.38979 0.0
H631 H 0.90648 0.10671 0.42469 0.0
S632 S 0.78737 0.16243 0.50783 0.0
N633 N 0.81556 0.18454 0.4708 0.0
N634 N 0.8048 0.13013 0.50945 0.0
C635 C 0.83495 0.1363 0.4788 0.0
C636 C 0.84083 0.16576 0.45788 0.0
C637 C 0.42164 0.40249 0.8491 0.0
C638 C 0.37256 0.38853 0.85203 0.0
C639 C 0.44767 0.40476 0.88011 0.0
C640 C 0.42565 0.39264 0.91509 0.0
H641 H 0.44026 0.41112 0.82246 0.0
H642 H 0.48541 0.41483 0.87641 0.0
S643 S 0.29829 0.35584 0.93848 0.0
N644 N 0.30294 0.36417 0.8935 0.0
N645 N 0.35223 0.36798 0.9516 0.0
C646 C 0.3767 0.37966 0.9188 0.0
C647 C 0.35005 0.3778 0.88733 0.0
C648 C 0.31621 0.95581 0.36517 0.0
C649 C 0.34578 0.93752 0.3706 0.0
C650 C 0.3177 0.98308 0.38712 0.0
C651 C 0.34863 0.99301 0.41547 0.0
H652 H 0.29109 0.94876 0.34418 0.0
H653 H 0.29352 0.9959 0.38256 0.0
S654 S 0.43618 0.95563 0.43925 0.0
N655 N 0.40899 0.93281 0.4053 0.0
N656 N 0.41165 0.98406 0.44631 0.0
C657 C 0.37934 0.97567 0.42054 0.0
C658 C 0.37798 0.94797 0.39816 0.0
C659 C 0.64341 0.83258 0.83714 0.0
C660 C 0.68922 0.83266 0.82938 0.0
C661 C 0.62742 0.83758 0.87308 0.0
C662 C 0.65659 0.84282 0.90256 0.0
H663 H 0.61947 0.82843 0.81535 0.0
H664 H 0.59178 0.83695 0.878 0.0
S665 S 0.77883 0.84503 0.8979 0.0
N666 N 0.76349 0.83856 0.85479 0.0
N667 N 0.73271 0.8475 0.92243 0.0
C668 C 0.70233 0.84317 0.89547 0.0
C669 C 0.71887 0.83826 0.85883 0.0
loop_
_geom_bond_atom_site_label_1
_geom_bond_atom_site_label_2
_geom_bond_distance
_geom_bond_site_symmetry_2
_ccdc_geom_bond_type
O0 Cd1 2.300 . S
O0 C7 1.275 . S
Cd1 O0 2.300 . S
Cd1 O9 2.381 . S
Cd1 O10 2.378 . S
O2 Cd3 2.385 . S
O2 C7 1.255 . S
Cd3 O2 2.385 . S
Cd3 O4 2.317 . S
O4 Cd3 2.317 . S
O4 C5 1.232 . S
C5 O4 1.232 . S
C5 O6 1.218 . S
O6 C5 1.218 . S
C7 O0 1.275 . S
C7 O2 1.255 . S
C8 O9 1.258 . S
C8 O10 1.256 . S
O9 Cd1 2.381 . S
O9 C8 1.258 . S
O10 Cd1 2.378 . S
O10 C8 1.256 . S
O11 Cd12 2.300 . S
O11 C18 1.275 . S
Cd12 O11 2.300 . S
Cd12 O20 2.381 . S
Cd12 O21 2.378 . S
O13 Cd14 2.385 . S
O13 C18 1.255 . S
Cd14 O13 2.385 . S
Cd14 O15 2.317 . S
O15 Cd14 2.317 . S
O15 C16 1.232 . S
C16 O15 1.232 . S
C16 O17 1.218 . S
O17 C16 1.218 . S
C18 O11 1.275 . S
C18 O13 1.255 . S
C19 O20 1.258 . S
C19 O21 1.256 . S
O20 Cd12 2.381 . S
O20 C19 1.258 . S
O21 Cd12 2.378 . S
O21 C19 1.256 . S
O22 Cd23 2.300 . S
O22 C29 1.275 . S
Cd23 O22 2.300 . S
Cd23 O31 2.381 . S
Cd23 O32 2.378 . S
O24 Cd25 2.385 . S
O24 C29 1.255 . S
Cd25 O24 2.385 . S
Cd25 O26 2.317 . S
O26 Cd25 2.317 . S
O26 C27 1.232 . S
C27 O26 1.232 . S
C27 O28 1.218 . S
O28 C27 1.218 . S
C29 O22 1.275 . S
C29 O24 1.255 . S
C30 O31 1.258 . S
C30 O32 1.256 . S
O31 Cd23 2.381 . S
O31 C30 1.258 . S
O32 Cd23 2.378 . S
O32 C30 1.256 . S
O33 Cd34 2.300 . S
O33 C40 1.275 . S
Cd34 O33 2.300 . S
Cd34 O42 2.381 . S
Cd34 O43 2.378 . S
O35 Cd36 2.385 . S
O35 C40 1.255 . S
Cd36 O35 2.385 . S
Cd36 O37 2.317 . S
O37 Cd36 2.317 . S
O37 C38 1.232 . S
C38 O37 1.232 . S
C38 O39 1.218 . S
O39 C38 1.218 . S
C40 O33 1.275 . S
C40 O35 1.255 . S
C41 O42 1.258 . S
C41 O43 1.256 . S
O42 Cd34 2.381 . S
O42 C41 1.258 . S
O43 Cd34 2.378 . S
O43 C41 1.256 . S
O44 Cd45 2.300 . S
O44 C51 1.275 . S
Cd45 O44 2.300 . S
Cd45 O53 2.381 . S
Cd45 O54 2.378 . S
O46 Cd47 2.385 . S
O46 C51 1.255 . S
Cd47 O46 2.385 . S
Cd47 O48 2.317 . S
O48 Cd47 2.317 . S
O48 C49 1.232 . S
C49 O48 1.232 . S
C49 O50 1.218 . S
O50 C49 1.218 . S
C51 O44 1.275 . S
C51 O46 1.255 . S
C52 O53 1.258 . S
C52 O54 1.256 . S
O53 Cd45 2.381 . S
O53 C52 1.258 . S
O54 Cd45 2.378 . S
O54 C52 1.256 . S
O55 Cd56 2.300 . S
O55 C62 1.275 . S
Cd56 O55 2.300 . S
Cd56 O64 2.381 . S
Cd56 O65 2.378 . S
O57 Cd58 2.385 . S
O57 C62 1.255 . S
Cd58 O57 2.385 . S
Cd58 O59 2.317 . S
O59 Cd58 2.317 . S
O59 C60 1.232 . S
C60 O59 1.232 . S
C60 O61 1.218 . S
O61 C60 1.218 . S
C62 O55 1.275 . S
C62 O57 1.255 . S
C63 O64 1.258 . S
C63 O65 1.256 . S
O64 Cd56 2.381 . S
O64 C63 1.258 . S
O65 Cd56 2.378 . S
O65 C63 1.256 . S
O66 Cd67 2.300 . S
O66 C73 1.275 . S
Cd67 O66 2.300 . S
Cd67 O75 2.381 . S
Cd67 O76 2.378 . S
O68 Cd69 2.385 . S
O68 C73 1.255 . S
Cd69 O68 2.385 . S
Cd69 O70 2.317 . S
O70 Cd69 2.317 . S
O70 C71 1.232 . S
C71 O70 1.232 . S
C71 O72 1.218 . S
O72 C71 1.218 . S
C73 O66 1.275 . S
C73 O68 1.255 . S
C74 O75 1.258 . S
C74 O76 1.256 . S
O75 Cd67 2.381 . S
O75 C74 1.258 . S
O76 Cd67 2.378 . S
O76 C74 1.256 . S
O77 Cd78 2.300 . S
O77 C84 1.275 . S
Cd78 O77 2.300 . S
Cd78 O86 2.381 . S
Cd78 O87 2.378 . S
O79 Cd80 2.385 . S
O79 C84 1.255 . S
Cd80 O79 2.385 . S
Cd80 O81 2.317 . S
O81 Cd80 2.317 . S
O81 C82 1.232 . S
C82 O81 1.232 . S
C82 O83 1.218 . S
O83 C82 1.218 . S
C84 O77 1.275 . S
C84 O79 1.255 . S
C85 O86 1.258 . S
C85 O87 1.256 . S
O86 Cd78 2.381 . S
O86 C85 1.258 . S
O87 Cd78 2.378 . S
O87 C85 1.256 . S
C88 C89 1.443 . S
C88 N92 1.376 . S
C88 C126 1.389 . S
C89 C88 1.443 . S
C89 C90 1.340 . S
C89 H129 0.951 . S
C90 C89 1.340 . S
C90 C91 1.439 . S
C90 H130 0.950 . S
C91 C90 1.439 . S
C91 N92 1.374 . S
C91 C125 1.395 . S
N92 C88 1.376 . S
N92 C91 1.374 . S
N92 Co93 2.008 . S
Co93 N92 2.008 . S
Co93 N94 1.995 . S
Co93 N99 2.008 . S
Co93 N104 1.995 . S
Co93 N109 2.282 . S
Co93 N115 2.282 . S
N94 Co93 1.995 . S
N94 C95 1.376 . S
N94 C98 1.383 1_455 S
C95 N94 1.376 . S
C95 C96 1.446 1_455 S
C95 C125 1.391 . S
C96 C95 1.446 1_655 S
C96 C97 1.339 . S
C96 H131 0.949 . S
C97 C96 1.339 . S
C97 C98 1.439 . S
C97 H132 0.950 . S
C98 N94 1.383 1_655 S
C98 C97 1.439 . S
C98 C127 1.392 . S
N99 Co93 2.008 . S
N99 C100 1.376 . S
N99 C103 1.374 . S
C100 N99 1.376 . S
C100 C101 1.443 . S
C100 C127 1.389 1_455 S
C101 C100 1.443 . S
C101 C102 1.340 . S
C101 H133 0.951 1_455 S
C102 C101 1.340 . S
C102 C103 1.439 . S
C102 H134 0.950 . S
C103 N99 1.374 . S
C103 C102 1.439 . S
C103 C128 1.395 . S
N104 Co93 1.995 . S
N104 C105 1.376 . S
N104 C108 1.383 . S
C105 N104 1.376 . S
C105 C106 1.446 . S
C105 C128 1.391 . S
C106 C105 1.446 . S
C106 C107 1.339 . S
C106 H135 0.949 . S
C107 C106 1.339 . S
C107 C108 1.439 . S
C107 H136 0.950 . S
C108 N104 1.383 . S
C108 C107 1.439 . S
C108 C126 1.392 . S
N109 Co93 2.282 . S
N109 C112 1.332 . S
N109 C114 1.332 . S
C110 C111 1.386 . S
C110 C113 1.388 . S
C111 C110 1.386 . S
C111 C112 1.382 . S
C111 H137 0.950 . S
C112 N109 1.332 . S
C112 C111 1.382 . S
C112 H123 0.952 . S
C113 C110 1.388 . S
C113 C114 1.382 . S
C113 H138 0.950 . S
C114 N109 1.332 . S
C114 C113 1.382 . S
C114 H124 0.948 . S
N115 Co93 2.282 . S
N115 C119 1.332 1_455 S
N115 C120 1.332 . S
C116 C117 1.388 . S
C116 C120 1.382 1_655 S
C116 H139 0.950 . S
C117 C116 1.388 . S
C117 C118 1.386 . S
C118 C117 1.386 . S
C118 C119 1.382 . S
C118 H140 0.950 . S
C119 N115 1.332 1_655 S
C119 C118 1.382 . S
C119 H121 0.952 . S
C120 N115 1.332 . S
C120 C116 1.382 1_455 S
C120 H122 0.948 . S
H121 C119 0.952 . S
H122 C120 0.948 . S
H123 C112 0.952 . S
H124 C114 0.948 . S
C125 C91 1.395 . S
C125 C95 1.391 . S
C126 C88 1.389 . S
C126 C108 1.392 . S
C127 C98 1.392 . S
C127 C100 1.389 1_655 S
C128 C103 1.395 . S
C128 C105 1.391 . S
H129 C89 0.951 . S
H130 C90 0.950 . S
H131 C96 0.949 . S
H132 C97 0.950 . S
H133 C101 0.951 1_655 S
H134 C102 0.950 . S
H135 C106 0.949 . S
H136 C107 0.950 . S
H137 C111 0.950 . S
H138 C113 0.950 . S
H139 C116 0.950 . S
H140 C118 0.950 . S
C141 C142 1.443 . S
C141 N145 1.376 . S
C141 C179 1.389 . S
C142 C141 1.443 . S
C142 C143 1.340 . S
C142 H182 0.951 . S
C143 C142 1.340 . S
C143 C144 1.439 . S
C143 H183 0.950 . S
C144 C143 1.439 . S
C144 N145 1.374 . S
C144 C178 1.395 1_455 S
N145 C141 1.376 . S
N145 C144 1.374 . S
N145 Co146 2.008 . S
Co146 N145 2.008 . S
Co146 N147 1.995 1_455 S
Co146 N152 2.008 1_455 S
Co146 N157 1.995 . S
Co146 N162 2.282 . S
Co146 N168 2.282 1_455 S
N147 Co146 1.995 1_655 S
N147 C148 1.376 . S
N147 C151 1.383 . S
C148 N147 1.376 . S
C148 C149 1.446 . S
C148 C178 1.391 . S
C149 C148 1.446 . S
C149 C150 1.339 . S
C149 H184 0.949 . S
C150 C149 1.339 . S
C150 C151 1.439 . S
C150 H185 0.950 . S
C151 N147 1.383 . S
C151 C150 1.439 . S
C151 C180 1.392 . S
N152 Co146 2.008 1_655 S
N152 C153 1.376 . S
N152 C156 1.373 . S
C153 N152 1.376 . S
C153 C154 1.443 . S
C153 C180 1.389 . S
C154 C153 1.443 . S
C154 C155 1.340 . S
C154 H186 0.951 . S
C155 C154 1.340 . S
C155 C156 1.438 . S
C155 H187 0.950 . S
C156 N152 1.373 . S
C156 C155 1.438 . S
C156 C181 1.396 1_655 S
N157 Co146 1.995 . S
N157 C158 1.376 . S
N157 C161 1.383 . S
C158 N157 1.376 . S
C158 C159 1.446 . S
C158 C181 1.391 . S
C159 C158 1.446 . S
C159 C160 1.339 . S
C159 H188 0.949 . S
C160 C159 1.339 . S
C160 C161 1.439 . S
C160 H189 0.950 . S
C161 N157 1.383 . S
C161 C160 1.439 . S
C161 C179 1.392 . S
N162 Co146 2.282 . S
N162 C165 1.332 . S
N162 C167 1.332 . S
C163 C164 1.386 . S
C163 C166 1.388 . S
C164 C163 1.386 . S
C164 C165 1.382 . S
C164 H190 0.950 . S
C165 N162 1.332 . S
C165 C164 1.382 . S
C165 H176 0.952 . S
C166 C163 1.388 . S
C166 C167 1.382 . S
C166 H191 0.950 . S
C167 N162 1.332 . S
C167 C166 1.382 . S
C167 H177 0.948 . S
N168 Co146 2.282 1_655 S
N168 C172 1.332 . S
N168 C173 1.332 . S
C169 C170 1.388 . S
C169 C173 1.382 . S
C169 H192 0.950 . S
C170 C169 1.388 . S
C170 C171 1.386 . S
C171 C170 1.386 . S
C171 C172 1.382 . S
C171 H193 0.950 . S
C172 N168 1.332 . S
C172 C171 1.382 . S
C172 H174 0.952 . S
C173 N168 1.332 . S
C173 C169 1.382 . S
C173 H175 0.948 . S
H174 C172 0.952 . S
H175 C173 0.948 . S
H176 C165 0.952 . S
H177 C167 0.948 . S
C178 C144 1.395 1_655 S
C178 C148 1.391 . S
C179 C141 1.389 . S
C179 C161 1.392 . S
C180 C151 1.392 . S
C180 C153 1.389 . S
C181 C156 1.396 1_455 S
C181 C158 1.391 . S
H182 C142 0.951 . S
H183 C143 0.950 . S
H184 C149 0.949 . S
H185 C150 0.950 . S
H186 C154 0.951 . S
H187 C155 0.950 . S
H188 C159 0.949 . S
H189 C160 0.950 . S
H190 C164 0.950 . S
H191 C166 0.950 . S
H192 C169 0.950 . S
H193 C171 0.950 . S
C194 C195 1.443 . S
C194 N198 1.376 . S
C194 C232 1.389 . S
C195 C194 1.443 . S
C195 C196 1.340 . S
C195 H235 0.951 . S
C196 C195 1.340 . S
C196 C197 1.439 . S
C196 H236 0.950 . S
C197 C196 1.439 . S
C197 N198 1.374 . S
C197 C231 1.395 . S
N198 C194 1.376 . S
N198 C197 1.374 . S
N198 Co199 2.008 . S
Co199 N198 2.008 . S
Co199 N200 1.995 . S
Co199 N205 2.008 . S
Co199 N210 1.995 . S
Co199 N215 2.282 . S
Co199 N221 2.282 . S
N200 Co199 1.995 . S
N200 C201 1.376 . S
N200 C204 1.383 . S
C201 N200 1.376 . S
C201 C202 1.446 . S
C201 C231 1.391 . S
C202 C201 1.446 . S
C202 C203 1.339 . S
C202 H237 0.949 . S
C203 C202 1.339 . S
C203 C204 1.439 . S
C203 H238 0.950 . S
C204 N200 1.383 . S
C204 C203 1.439 . S
C204 C233 1.392 . S
N205 Co199 2.008 . S
N205 C206 1.376 . S
N205 C209 1.374 . S
C206 N205 1.376 . S
C206 C207 1.443 . S
C206 C233 1.389 . S
C207 C206 1.443 . S
C207 C208 1.340 . S
C207 H239 0.951 . S
C208 C207 1.340 . S
C208 C209 1.439 . S
C208 H240 0.950 . S
C209 N205 1.374 . S
C209 C208 1.439 . S
C209 C234 1.395 . S
N210 Co199 1.995 . S
N210 C211 1.376 . S
N210 C214 1.383 . S
C211 N210 1.376 . S
C211 C212 1.446 . S
C211 C234 1.391 . S
C212 C211 1.446 . S
C212 C213 1.339 . S
C212 H241 0.949 . S
C213 C212 1.339 . S
C213 C214 1.439 . S
C213 H242 0.950 . S
C214 N210 1.383 . S
C214 C213 1.439 . S
C214 C232 1.392 . S
N215 Co199 2.282 . S
N215 C218 1.332 . S
N215 C220 1.332 . S
C216 C217 1.386 . S
C216 C219 1.388 . S
C217 C216 1.386 . S
C217 C218 1.382 . S
C217 H243 0.950 . S
C218 N215 1.332 . S
C218 C217 1.382 . S
C218 H229 0.952 . S
C219 C216 1.388 . S
C219 C220 1.382 . S
C219 H244 0.950 . S
C220 N215 1.332 . S
C220 C219 1.382 . S
C220 H230 0.948 . S
N221 Co199 2.282 . S
N221 C225 1.332 . S
N221 C226 1.332 . S
C222 C223 1.388 . S
C222 C226 1.382 . S
C222 H245 0.950 . S
C223 C222 1.388 . S
C223 C224 1.386 . S
C224 C223 1.386 . S
C224 C225 1.382 . S
C224 H246 0.950 . S
C225 N221 1.332 . S
C225 C224 1.382 . S
C225 H227 0.952 . S
C226 N221 1.332 . S
C226 C222 1.382 . S
C226 H228 0.948 . S
H227 C225 0.952 . S
H228 C226 0.948 . S
H229 C218 0.952 . S
H230 C220 0.948 . S
C231 C197 1.395 . S
C231 C201 1.391 . S
C232 C194 1.389 . S
C232 C214 1.392 . S
C233 C204 1.392 . S
C233 C206 1.389 . S
C234 C209 1.395 . S
C234 C211 1.391 . S
H235 C195 0.951 . S
H236 C196 0.950 . S
H237 C202 0.949 . S
H238 C203 0.950 . S
H239 C207 0.951 . S
H240 C208 0.950 . S
H241 C212 0.949 . S
H242 C213 0.950 . S
H243 C217 0.950 . S
H244 C219 0.950 . S
H245 C222 0.950 . S
H246 C224 0.950 . S
C247 C248 1.443 . S
C247 N251 1.376 . S
C247 C285 1.389 . S
C248 C247 1.443 . S
C248 C249 1.340 . S
C248 H288 0.951 . S
C249 C248 1.340 . S
C249 C250 1.439 . S
C249 H289 0.950 . S
C250 C249 1.439 . S
C250 N251 1.374 . S
C250 C284 1.395 . S
N251 C247 1.376 . S
N251 C250 1.374 . S
N251 Co252 2.008 . S
Co252 N251 2.008 . S
Co252 N253 1.995 1_554 S
Co252 N258 2.008 1_554 S
Co252 N263 1.995 . S
Co252 N268 2.282 1_554 S
Co252 N274 2.282 . S
N253 Co252 1.995 1_556 S
N253 C254 1.376 . S
N253 C257 1.383 . S
C254 N253 1.376 . S
C254 C255 1.446 . S
C254 C284 1.391 1_556 S
C255 C254 1.446 . S
C255 C256 1.339 . S
C255 H290 0.949 . S
C256 C255 1.339 . S
C256 C257 1.439 . S
C256 H291 0.950 . S
C257 N253 1.383 . S
C257 C256 1.439 . S
C257 C286 1.392 . S
N258 Co252 2.008 1_556 S
N258 C259 1.376 . S
N258 C262 1.374 . S
C259 N258 1.376 . S
C259 C260 1.443 . S
C259 C286 1.389 . S
C260 C259 1.443 . S
C260 C261 1.340 . S
C260 H292 0.951 . S
C261 C260 1.340 . S
C261 C262 1.439 . S
C261 H293 0.950 . S
C262 N258 1.374 . S
C262 C261 1.439 . S
C262 C287 1.395 1_556 S
N263 Co252 1.995 . S
N263 C264 1.376 . S
N263 C267 1.383 . S
C264 N263 1.376 . S
C264 C265 1.446 . S
C264 C287 1.391 . S
C265 C264 1.446 . S
C265 C266 1.339 . S
C265 H294 0.949 . S
C266 C265 1.339 . S
C266 C267 1.439 . S
C266 H295 0.950 . S
C267 N263 1.383 . S
C267 C266 1.439 . S
C267 C285 1.392 . S
N268 Co252 2.282 1_556 S
N268 C271 1.332 . S
N268 C273 1.332 . S
C269 C270 1.386 . S
C269 C272 1.388 . S
C270 C269 1.386 . S
C270 C271 1.382 . S
C270 H296 0.950 . S
C271 N268 1.332 . S
C271 C270 1.382 . S
C271 H282 0.952 . S
C272 C269 1.388 . S
C272 C273 1.382 . S
C272 H297 0.950 . S
C273 N268 1.332 . S
C273 C272 1.382 . S
C273 H283 0.948 . S
N274 Co252 2.282 . S
N274 C278 1.332 . S
N274 C279 1.332 . S
C275 C276 1.388 . S
C275 C279 1.382 . S
C275 H298 0.950 . S
C276 C275 1.388 . S
C276 C277 1.386 . S
C277 C276 1.386 . S
C277 C278 1.382 . S
C277 H299 0.950 . S
C278 N274 1.332 . S
C278 C277 1.382 . S
C278 H280 0.952 . S
C279 N274 1.332 . S
C279 C275 1.382 . S
C279 H281 0.948 . S
H280 C278 0.952 . S
H281 C279 0.948 . S
H282 C271 0.952 . S
H283 C273 0.948 . S
C284 C250 1.395 . S
C284 C254 1.391 1_554 S
C285 C247 1.389 . S
C285 C267 1.392 . S
C286 C257 1.392 . S
C286 C259 1.389 . S
C287 C262 1.395 1_554 S
C287 C264 1.391 . S
H288 C248 0.951 . S
H289 C249 0.950 . S
H290 C255 0.949 . S
H291 C256 0.950 . S
H292 C260 0.951 . S
H293 C261 0.950 . S
H294 C265 0.949 . S
H295 C266 0.950 . S
H296 C270 0.950 . S
H297 C272 0.950 . S
H298 C275 0.950 . S
H299 C277 0.950 . S
C300 C301 1.443 . S
C300 N304 1.376 1_565 S
C300 C338 1.389 . S
C301 C300 1.443 . S
C301 C302 1.340 1_565 S
C301 H341 0.951 . S
C302 C301 1.340 1_545 S
C302 C303 1.439 . S
C302 H342 0.950 . S
C303 C302 1.439 . S
C303 N304 1.374 . S
C303 C337 1.395 . S
N304 C300 1.376 1_545 S
N304 C303 1.374 . S
N304 Co305 2.008 . S
Co305 N304 2.008 . S
Co305 N306 1.995 . S
Co305 N311 2.008 . S
Co305 N316 1.995 1_545 S
Co305 N321 2.282 . S
Co305 N327 2.282 1_545 S
N306 Co305 1.995 . S
N306 C307 1.376 . S
N306 C310 1.383 . S
C307 N306 1.376 . S
C307 C308 1.446 . S
C307 C337 1.391 . S
C308 C307 1.446 . S
C308 C309 1.339 . S
C308 H343 0.949 . S
C309 C308 1.339 . S
C309 C310 1.439 . S
C309 H344 0.950 . S
C310 N306 1.383 . S
C310 C309 1.439 . S
C310 C339 1.392 . S
N311 Co305 2.008 . S
N311 C312 1.376 . S
N311 C315 1.374 . S
C312 N311 1.376 . S
C312 C313 1.443 . S
C312 C339 1.389 . S
C313 C312 1.443 . S
C313 C314 1.340 . S
C313 H345 0.951 . S
C314 C313 1.340 . S
C314 C315 1.439 . S
C314 H346 0.950 . S
C315 N311 1.374 . S
C315 C314 1.439 . S
C315 C340 1.395 . S
N316 Co305 1.995 1_565 S
N316 C317 1.376 . S
N316 C320 1.383 . S
C317 N316 1.376 . S
C317 C318 1.446 . S
C317 C340 1.391 1_565 S
C318 C317 1.446 . S
C318 C319 1.339 . S
C318 H347 0.949 . S
C319 C318 1.339 . S
C319 C320 1.439 . S
C319 H348 0.950 . S
C320 N316 1.383 . S
C320 C319 1.439 . S
C320 C338 1.392 . S
N321 Co305 2.282 . S
N321 C324 1.332 . S
N321 C326 1.332 . S
C322 C323 1.386 . S
C322 C325 1.388 . S
C323 C322 1.386 . S
C323 C324 1.382 . S
C323 H349 0.950 . S
C324 N321 1.332 . S
C324 C323 1.382 . S
C324 H335 0.952 . S
C325 C322 1.388 . S
C325 C326 1.382 . S
C325 H350 0.950 . S
C326 N321 1.332 . S
C326 C325 1.382 . S
C326 H336 0.948 . S
N327 Co305 2.282 1_565 S
N327 C331 1.332 . S
N327 C332 1.332 . S
C328 C329 1.388 . S
C328 C332 1.382 . S
C328 H351 0.950 . S
C329 C328 1.388 . S
C329 C330 1.386 . S
C330 C329 1.386 . S
C330 C331 1.382 . S
C330 H352 0.950 . S
C331 N327 1.332 . S
C331 C330 1.382 . S
C331 H333 0.952 1_565 S
C332 N327 1.332 . S
C332 C328 1.382 . S
C332 H334 0.948 . S
H333 C331 0.952 1_545 S
H334 C332 0.948 . S
H335 C324 0.952 . S
H336 C326 0.948 . S
C337 C303 1.395 . S
C337 C307 1.391 . S
C338 C300 1.389 . S
C338 C320 1.392 . S
C339 C310 1.392 . S
C339 C312 1.389 . S
C340 C315 1.395 . S
C340 C317 1.391 1_545 S
H341 C301 0.951 . S
H342 C302 0.950 . S
H343 C308 0.949 . S
H344 C309 0.950 . S
H345 C313 0.951 . S
H346 C314 0.950 . S
H347 C318 0.949 . S
H348 C319 0.950 . S
H349 C323 0.950 . S
H350 C325 0.950 . S
H351 C328 0.950 . S
H352 C330 0.950 . S
C353 C354 1.443 . S
C353 N357 1.376 . S
C353 C391 1.389 . S
C354 C353 1.443 . S
C354 C355 1.340 . S
C354 H394 0.951 . S
C355 C354 1.340 . S
C355 C356 1.439 . S
C355 H395 0.950 . S
C356 C355 1.439 . S
C356 N357 1.374 . S
C356 C390 1.395 . S
N357 C353 1.376 . S
N357 C356 1.374 . S
N357 Co358 2.008 . S
Co358 N357 2.008 . S
Co358 N359 1.995 . S
Co358 N364 2.008 . S
Co358 N369 1.995 . S
Co358 N374 2.282 1_554 S
Co358 N380 2.282 . S
N359 Co358 1.995 . S
N359 C360 1.376 . S
N359 C363 1.383 1_554 S
C360 N359 1.376 . S
C360 C361 1.446 1_554 S
C360 C390 1.391 . S
C361 C360 1.446 1_556 S
C361 C362 1.339 . S
C361 H396 0.949 . S
C362 C361 1.339 . S
C362 C363 1.439 . S
C362 H397 0.950 . S
C363 N359 1.383 1_556 S
C363 C362 1.439 . S
C363 C392 1.392 . S
N364 Co358 2.008 . S
N364 C365 1.376 1_554 S
N364 C368 1.374 . S
C365 N364 1.376 1_556 S
C365 C366 1.443 . S
C365 C392 1.389 . S
C366 C365 1.443 . S
C366 C367 1.340 . S
C366 H398 0.951 . S
C367 C366 1.340 . S
C367 C368 1.439 1_556 S
C367 H399 0.950 . S
C368 N364 1.374 . S
C368 C367 1.439 1_554 S
C368 C393 1.395 . S
N369 Co358 1.995 . S
N369 C370 1.376 . S
N369 C373 1.383 . S
C370 N369 1.376 . S
C370 C371 1.446 . S
C370 C393 1.391 . S
C371 C370 1.446 . S
C371 C372 1.339 . S
C371 H400 0.949 . S
C372 C371 1.339 . S
C372 C373 1.439 . S
C372 H401 0.950 . S
C373 N369 1.383 . S
C373 C372 1.439 . S
C373 C391 1.392 . S
N374 Co358 2.282 1_556 S
N374 C377 1.332 . S
N374 C379 1.332 . S
C375 C376 1.386 . S
C375 C378 1.388 . S
C376 C375 1.386 . S
C376 C377 1.382 . S
C376 H402 0.950 . S
C377 N374 1.332 . S
C377 C376 1.382 . S
C377 H388 0.952 1_556 S
C378 C375 1.388 . S
C378 C379 1.382 . S
C378 H403 0.950 . S
C379 N374 1.332 . S
C379 C378 1.382 . S
C379 H389 0.948 . S
N380 Co358 2.282 . S
N380 C384 1.332 . S
N380 C385 1.332 . S
C381 C382 1.388 . S
C381 C385 1.382 . S
C381 H404 0.950 . S
C382 C381 1.388 . S
C382 C383 1.386 . S
C383 C382 1.386 . S
C383 C384 1.382 . S
C383 H405 0.950 . S
C384 N380 1.332 . S
C384 C383 1.382 . S
C384 H386 0.952 . S
C385 N380 1.332 . S
C385 C381 1.382 . S
C385 H387 0.948 . S
H386 C384 0.952 . S
H387 C385 0.948 . S
H388 C377 0.952 1_554 S
H389 C379 0.948 . S
C390 C356 1.395 . S
C390 C360 1.391 . S
C391 C353 1.389 . S
C391 C373 1.392 . S
C392 C363 1.392 . S
C392 C365 1.389 . S
C393 C368 1.395 . S
C393 C370 1.391 . S
H394 C354 0.951 . S
H395 C355 0.950 . S
H396 C361 0.949 . S
H397 C362 0.950 . S
H398 C366 0.951 . S
H399 C367 0.950 . S
H400 C371 0.949 . S
H401 C372 0.950 . S
H402 C376 0.950 . S
H403 C378 0.950 . S
H404 C381 0.950 . S
H405 C383 0.950 . S
C406 C407 1.369 . S
C406 C408 1.419 . S
C406 H410 0.930 . S
C407 C406 1.369 . S
C407 C416 1.429 . S
C408 C406 1.419 . S
C408 C409 1.363 . S
C408 H411 0.929 . S
C409 C408 1.363 . S
C409 C415 1.428 . S
H410 C406 0.930 . S
H411 C408 0.929 . S
S412 N413 1.613 . S
S412 N414 1.610 . S
N413 S412 1.613 . S
N413 C416 1.350 . S
N414 S412 1.610 . S
N414 C415 1.351 . S
C415 C409 1.428 . S
C415 N414 1.351 . S
C415 C416 1.434 . S
C416 C407 1.429 . S
C416 N413 1.350 . S
C416 C415 1.434 . S
C417 C418 1.369 . S
C417 C419 1.419 . S
C417 H421 0.930 . S
C418 C417 1.369 . S
C418 C427 1.429 . S
C419 C417 1.419 . S
C419 C420 1.363 . S
C419 H422 0.929 . S
C420 C419 1.363 . S
C420 C426 1.428 . S
H421 C417 0.930 . S
H422 C419 0.929 . S
S423 N424 1.613 . S
S423 N425 1.610 . S
N424 S423 1.613 . S
N424 C427 1.350 . S
N425 S423 1.610 . S
N425 C426 1.351 . S
C426 C420 1.428 . S
C426 N425 1.351 . S
C426 C427 1.434 . S
C427 C418 1.429 . S
C427 N424 1.350 . S
C427 C426 1.434 . S
C428 C429 1.369 . S
C428 C430 1.419 . S
C428 H432 0.930 . S
C429 C428 1.369 . S
C429 C438 1.429 . S
C430 C428 1.419 . S
C430 C431 1.363 . S
C430 H433 0.929 . S
C431 C430 1.363 . S
C431 C437 1.428 . S
H432 C428 0.930 . S
H433 C430 0.929 . S
S434 N435 1.613 . S
S434 N436 1.610 . S
N435 S434 1.613 . S
N435 C438 1.350 . S
N436 S434 1.610 . S
N436 C437 1.351 . S
C437 C431 1.428 . S
C437 N436 1.351 . S
C437 C438 1.434 . S
C438 C429 1.429 . S
C438 N435 1.350 . S
C438 C437 1.434 . S
C439 C440 1.369 . S
C439 C441 1.419 . S
C439 H443 0.930 . S
C440 C439 1.369 . S
C440 C449 1.429 . S
C441 C439 1.419 . S
C441 C442 1.363 . S
C441 H444 0.929 . S
C442 C441 1.363 . S
C442 C448 1.428 . S
H443 C439 0.930 . S
H444 C441 0.929 . S
S445 N446 1.613 . S
S445 N447 1.610 . S
N446 S445 1.613 . S
N446 C449 1.350 . S
N447 S445 1.610 . S
N447 C448 1.351 . S
C448 C442 1.428 . S
C448 N447 1.351 . S
C448 C449 1.434 . S
C449 C440 1.429 . S
C449 N446 1.350 . S
C449 C448 1.434 . S
C450 C451 1.369 . S
C450 C452 1.419 . S
C450 H454 0.930 . S
C451 C450 1.369 . S
C451 C460 1.429 . S
C452 C450 1.419 . S
C452 C453 1.363 . S
C452 H455 0.929 . S
C453 C452 1.363 . S
C453 C459 1.428 . S
H454 C450 0.930 . S
H455 C452 0.929 . S
S456 N457 1.613 . S
S456 N458 1.610 . S
N457 S456 1.613 . S
N457 C460 1.350 . S
N458 S456 1.610 . S
N458 C459 1.351 . S
C459 C453 1.428 . S
C459 N458 1.351 . S
C459 C460 1.434 . S
C460 C451 1.429 . S
C460 N457 1.350 . S
C460 C459 1.434 . S
C461 C462 1.369 . S
C461 C463 1.419 . S
C461 H465 0.930 . S
C462 C461 1.369 . S
C462 C471 1.429 . S
C463 C461 1.419 . S
C463 C464 1.363 . S
C463 H466 0.929 . S
C464 C463 1.363 . S
C464 C470 1.428 . S
H465 C461 0.930 . S
H466 C463 0.929 . S
S467 N468 1.613 . S
S467 N469 1.610 . S
N468 S467 1.613 . S
N468 C471 1.350 . S
N469 S467 1.610 . S
N469 C470 1.351 . S
C470 C464 1.428 . S
C470 N469 1.351 . S
C470 C471 1.434 . S
C471 C462 1.429 . S
C471 N468 1.350 . S
C471 C470 1.434 . S
C472 C473 1.369 . S
C472 C474 1.419 . S
C472 H476 0.930 . S
C473 C472 1.369 . S
C473 C482 1.429 . S
C474 C472 1.419 . S
C474 C475 1.363 . S
C474 H477 0.929 . S
C475 C474 1.363 . S
C475 C481 1.428 . S
H476 C472 0.930 . S
H477 C474 0.929 . S
S478 N479 1.613 . S
S478 N480 1.610 . S
N479 S478 1.613 . S
N479 C482 1.350 . S
N480 S478 1.610 . S
N480 C481 1.351 . S
C481 C475 1.428 . S
C481 N480 1.351 . S
C481 C482 1.434 . S
C482 C473 1.429 . S
C482 N479 1.350 . S
C482 C481 1.434 . S
C483 C484 1.369 . S
C483 C485 1.419 . S
C483 H487 0.930 . S
C484 C483 1.369 . S
C484 C493 1.429 . S
C485 C483 1.419 . S
C485 C486 1.363 . S
C485 H488 0.929 . S
C486 C485 1.363 . S
C486 C492 1.428 . S
H487 C483 0.930 . S
H488 C485 0.929 . S
S489 N490 1.613 . S
S489 N491 1.610 . S
N490 S489 1.613 . S
N490 C493 1.350 . S
N491 S489 1.610 . S
N491 C492 1.351 . S
C492 C486 1.428 . S
C492 N491 1.351 . S
C492 C493 1.434 . S
C493 C484 1.429 . S
C493 N490 1.350 . S
C493 C492 1.434 . S
C494 C495 1.369 1_545 S
C494 C496 1.419 . S
C494 H498 0.930 . S
C495 C494 1.369 1_565 S
C495 C504 1.429 . S
C496 C494 1.419 . S
C496 C497 1.363 . S
C496 H499 0.929 . S
C497 C496 1.363 . S
C497 C503 1.428 . S
H498 C494 0.930 . S
H499 C496 0.929 . S
S500 N501 1.613 . S
S500 N502 1.610 . S
N501 S500 1.613 . S
N501 C504 1.350 . S
N502 S500 1.610 . S
N502 C503 1.351 1_565 S
C503 C497 1.428 . S
C503 N502 1.351 1_545 S
C503 C504 1.434 1_545 S
C504 C495 1.429 . S
C504 N501 1.350 . S
C504 C503 1.434 1_565 S
C505 C506 1.369 . S
C505 C507 1.419 . S
C505 H509 0.930 . S
C506 C505 1.369 . S
C506 C515 1.429 . S
C507 C505 1.419 . S
C507 C508 1.363 . S
C507 H510 0.929 . S
C508 C507 1.363 . S
C508 C514 1.428 . S
H509 C505 0.930 . S
H510 C507 0.929 . S
S511 N512 1.613 . S
S511 N513 1.610 . S
N512 S511 1.613 . S
N512 C515 1.350 . S
N513 S511 1.610 . S
N513 C514 1.351 . S
C514 C508 1.428 . S
C514 N513 1.351 . S
C514 C515 1.434 . S
C515 C506 1.429 . S
C515 N512 1.350 . S
C515 C514 1.434 . S
C516 C517 1.369 . S
C516 C518 1.419 . S
C516 H520 0.930 . S
C517 C516 1.369 . S
C517 C526 1.429 . S
C518 C516 1.419 . S
C518 C519 1.363 . S
C518 H521 0.929 . S
C519 C518 1.363 . S
C519 C525 1.428 . S
H520 C516 0.930 . S
H521 C518 0.929 . S
S522 N523 1.613 . S
S522 N524 1.610 . S
N523 S522 1.613 . S
N523 C526 1.350 . S
N524 S522 1.610 . S
N524 C525 1.351 . S
C525 C519 1.428 . S
C525 N524 1.351 . S
C525 C526 1.434 . S
C526 C517 1.429 . S
C526 N523 1.350 . S
C526 C525 1.434 . S
C527 C528 1.369 . S
C527 C529 1.419 . S
C527 H531 0.930 . S
C528 C527 1.369 . S
C528 C537 1.429 . S
C529 C527 1.419 . S
C529 C530 1.363 . S
C529 H532 0.929 . S
C530 C529 1.363 . S
C530 C536 1.428 . S
H531 C527 0.930 . S
H532 C529 0.929 . S
S533 N534 1.613 . S
S533 N535 1.610 . S
N534 S533 1.613 . S
N534 C537 1.350 . S
N535 S533 1.610 . S
N535 C536 1.351 . S
C536 C530 1.428 . S
C536 N535 1.351 . S
C536 C537 1.434 . S
C537 C528 1.429 . S
C537 N534 1.350 . S
C537 C536 1.434 . S
C538 C539 1.369 . S
C538 C540 1.419 . S
C538 H542 0.930 . S
C539 C538 1.369 . S
C539 C548 1.429 . S
C540 C538 1.419 . S
C540 C541 1.363 . S
C540 H543 0.929 . S
C541 C540 1.363 . S
C541 C547 1.428 . S
H542 C538 0.930 . S
H543 C540 0.929 . S
S544 N545 1.613 . S
S544 N546 1.610 . S
N545 S544 1.613 . S
N545 C548 1.350 . S
N546 S544 1.610 . S
N546 C547 1.351 . S
C547 C541 1.428 . S
C547 N546 1.351 . S
C547 C548 1.434 . S
C548 C539 1.429 . S
C548 N545 1.350 . S
C548 C547 1.434 . S
C549 C550 1.369 . S
C549 C551 1.419 . S
C549 H553 0.930 . S
C550 C549 1.369 . S
C550 C559 1.429 . S
C551 C549 1.419 . S
C551 C552 1.363 . S
C551 H554 0.929 1_655 S
C552 C551 1.363 . S
C552 C558 1.428 . S
H553 C549 0.930 . S
H554 C551 0.929 1_455 S
S555 N556 1.613 . S
S555 N557 1.610 . S
N556 S555 1.613 . S
N556 C559 1.350 . S
N557 S555 1.610 . S
N557 C558 1.351 . S
C558 C552 1.428 . S
C558 N557 1.351 . S
C558 C559 1.434 . S
C559 C550 1.429 . S
C559 N556 1.350 . S
C559 C558 1.434 . S
C560 C561 1.369 . S
C560 C562 1.419 . S
C560 H564 0.930 . S
C561 C560 1.369 . S
C561 C570 1.429 . S
C562 C560 1.419 . S
C562 C563 1.363 . S
C562 H565 0.929 . S
C563 C562 1.363 . S
C563 C569 1.428 . S
H564 C560 0.930 . S
H565 C562 0.929 . S
S566 N567 1.613 . S
S566 N568 1.610 . S
N567 S566 1.613 . S
N567 C570 1.350 . S
N568 S566 1.610 . S
N568 C569 1.351 . S
C569 C563 1.428 . S
C569 N568 1.351 . S
C569 C570 1.434 . S
C570 C561 1.429 . S
C570 N567 1.350 . S
C570 C569 1.434 . S
C571 C572 1.369 . S
C571 C573 1.419 . S
C571 H575 0.930 . S
C572 C571 1.369 . S
C572 C581 1.429 . S
C573 C571 1.419 . S
C573 C574 1.363 . S
C573 H576 0.929 . S
C574 C573 1.363 . S
C574 C580 1.428 . S
H575 C571 0.930 . S
H576 C573 0.929 . S
S577 N578 1.613 . S
S577 N579 1.610 . S
N578 S577 1.613 . S
N578 C581 1.350 . S
N579 S577 1.610 . S
N579 C580 1.351 . S
C580 C574 1.428 . S
C580 N579 1.351 . S
C580 C581 1.434 . S
C581 C572 1.429 . S
C581 N578 1.350 . S
C581 C580 1.434 . S
C582 C583 1.369 . S
C582 C584 1.419 . S
C582 H586 0.930 . S
C583 C582 1.369 . S
C583 C592 1.429 . S
C584 C582 1.419 . S
C584 C585 1.363 . S
C584 H587 0.929 . S
C585 C584 1.363 . S
C585 C591 1.428 . S
H586 C582 0.930 . S
H587 C584 0.929 . S
S588 N589 1.613 . S
S588 N590 1.610 . S
N589 S588 1.613 . S
N589 C592 1.350 . S
N590 S588 1.610 . S
N590 C591 1.351 . S
C591 C585 1.428 . S
C591 N590 1.351 . S
C591 C592 1.434 . S
C592 C583 1.429 . S
C592 N589 1.350 . S
C592 C591 1.434 . S
C593 C594 1.369 . S
C593 C595 1.419 . S
C593 H597 0.930 . S
C594 C593 1.369 . S
C594 C603 1.429 . S
C595 C593 1.419 . S
C595 C596 1.363 . S
C595 H598 0.929 . S
C596 C595 1.363 . S
C596 C602 1.428 . S
H597 C593 0.930 . S
H598 C595 0.929 . S
S599 N600 1.613 . S
S599 N601 1.610 . S
N600 S599 1.613 . S
N600 C603 1.350 . S
N601 S599 1.610 . S
N601 C602 1.351 . S
C602 C596 1.428 . S
C602 N601 1.351 . S
C602 C603 1.434 . S
C603 C594 1.429 . S
C603 N600 1.350 . S
C603 C602 1.434 . S
C604 C605 1.369 . S
C604 C606 1.419 . S
C604 H608 0.930 . S
C605 C604 1.369 . S
C605 C614 1.429 . S
C606 C604 1.419 . S
C606 C607 1.363 . S
C606 H609 0.929 . S
C607 C606 1.363 . S
C607 C613 1.428 . S
H608 C604 0.930 . S
H609 C606 0.929 . S
S610 N611 1.613 . S
S610 N612 1.610 . S
N611 S610 1.613 . S
N611 C614 1.350 . S
N612 S610 1.610 . S
N612 C613 1.351 . S
C613 C607 1.428 . S
C613 N612 1.351 . S
C613 C614 1.434 . S
C614 C605 1.429 . S
C614 N611 1.350 . S
C614 C613 1.434 . S
C615 C616 1.369 . S
C615 C617 1.419 . S
C615 H619 0.930 . S
C616 C615 1.369 . S
C616 C625 1.429 . S
C617 C615 1.419 . S
C617 C618 1.363 . S
C617 H620 0.929 . S
C618 C617 1.363 . S
C618 C624 1.428 . S
H619 C615 0.930 . S
H620 C617 0.929 . S
S621 N622 1.613 . S
S621 N623 1.610 . S
N622 S621 1.613 . S
N622 C625 1.350 . S
N623 S621 1.610 . S
N623 C624 1.351 . S
C624 C618 1.428 . S
C624 N623 1.351 . S
C624 C625 1.434 . S
C625 C616 1.429 . S
C625 N622 1.350 . S
C625 C624 1.434 . S
C626 C627 1.369 . S
C626 C628 1.419 . S
C626 H630 0.930 . S
C627 C626 1.369 . S
C627 C636 1.429 . S
C628 C626 1.419 . S
C628 C629 1.363 . S
C628 H631 0.929 . S
C629 C628 1.363 . S
C629 C635 1.428 . S
H630 C626 0.930 . S
H631 C628 0.929 . S
S632 N633 1.613 . S
S632 N634 1.610 . S
N633 S632 1.613 . S
N633 C636 1.350 . S
N634 S632 1.610 . S
N634 C635 1.351 . S
C635 C629 1.428 . S
C635 N634 1.351 . S
C635 C636 1.434 . S
C636 C627 1.429 . S
C636 N633 1.350 . S
C636 C635 1.434 . S
C637 C638 1.369 . S
C637 C639 1.419 . S
C637 H641 0.930 . S
C638 C637 1.369 . S
C638 C647 1.429 . S
C639 C637 1.419 . S
C639 C640 1.363 . S
C639 H642 0.929 . S
C640 C639 1.363 . S
C640 C646 1.428 . S
H641 C637 0.930 . S
H642 C639 0.929 . S
S643 N644 1.613 . S
S643 N645 1.610 . S
N644 S643 1.613 . S
N644 C647 1.350 . S
N645 S643 1.610 . S
N645 C646 1.351 . S
C646 C640 1.428 . S
C646 N645 1.351 . S
C646 C647 1.434 . S
C647 C638 1.429 . S
C647 N644 1.350 . S
C647 C646 1.434 . S
C648 C649 1.369 . S
C648 C650 1.419 . S
C648 H652 0.930 . S
C649 C648 1.369 . S
C649 C658 1.429 . S
C650 C648 1.419 . S
C650 C651 1.363 1_565 S
C650 H653 0.929 . S
C651 C650 1.363 1_545 S
C651 C657 1.428 . S
H652 C648 0.930 . S
H653 C650 0.929 . S
S654 N655 1.613 1_545 S
S654 N656 1.610 . S
N655 S654 1.613 1_565 S
N655 C658 1.350 . S
N656 S654 1.610 . S
N656 C657 1.351 . S
C657 C651 1.428 . S
C657 N656 1.351 . S
C657 C658 1.434 1_545 S
C658 C649 1.429 . S
C658 N655 1.350 . S
C658 C657 1.434 1_565 S
C659 C660 1.369 . S
C659 C661 1.419 . S
C659 H663 0.930 . S
C660 C659 1.369 . S
C660 C669 1.429 . S
C661 C659 1.419 . S
C661 C662 1.363 . S
C661 H664 0.929 . S
C662 C661 1.363 . S
C662 C668 1.428 . S
H663 C659 0.930 . S
H664 C661 0.929 . S
S665 N666 1.613 . S
S665 N667 1.610 . S
N666 S665 1.613 . S
N666 C669 1.350 . S
N667 S665 1.610 . S
N667 C668 1.351 . S
C668 C662 1.428 . S
C668 N667 1.351 . S
C668 C669 1.434 . S
C669 C660 1.429 . S
C669 N666 1.350 . S
C669 C668 1.434 . S
C409 C110 1.542 . S
C407 C5 1.400 . S
C420 C179 1.495 . S
C418 C16 1.257 . S
C431 C117 1.673 . S
C429 C30 1.674 . S
C442 C180 1.615 . S
C440 C40 1.552 . S
C453 C233 1.489 . S
C451 C8 1.490 . S
C464 C269 1.515 . S
C462 C18 1.433 . S
C473 C29 1.718 . S
C475 C329 1.732 . S
C486 C392 1.541 . S
C484 C38 1.275 . S
C497 C232 1.468 . S
C495 C19 1.446 . S
C506 C27 1.509 . S
C508 C276 1.622 . S
C519 C322 1.606 . S
C517 C41 1.572 . S
C530 C391 1.547 . S
C528 C7 1.505 . S
C539 C52 1.532 . S
C541 C170 1.568 . S
C552 C127 1.600 . S
C550 C62 1.561 . S
C561 C74 1.420 . S
C563 C163 1.431 . S
C572 C82 1.223 . S
C574 C126 1.412 . S
C585 C338 1.784 . S
C583 C51 1.669 . S
C596 C382 1.588 . S
C594 C60 1.312 . S
C607 C216 1.549 . S
C605 C71 1.269 . S
C616 C84 1.429 . S
C618 C285 1.492 . S
C629 C339 1.635 . S
C627 C63 1.629 . S
C640 C375 1.515 . S
C638 C73 1.456 . S
C651 C223 1.550 . S
C649 C85 1.578 . S
C660 C49 1.334 . S
C662 C286 1.658 . S
