# Generated by pormake.
# Topology gar, (4,6)-cn, num edge types: 1
# Building blocks:
#     Node 0, Type 0, BuildingBlock: QUQFOY_clean_sbu_1, # of connection points: 4
#     Node 1, Type 0, BuildingBlock: QUQFOY_clean_sbu_1, # of connection points: 4
#     Node 2, Type 0, BuildingBlock: QUQFOY_clean_sbu_1, # of connection points: 4
#     Node 3, Type 0, BuildingBlock: QUQFOY_clean_sbu_1, # of connection points: 4
#     Node 4, Type 0, BuildingBlock: QUQFOY_clean_sbu_1, # of connection points: 4
#     Node 5, Type 0, BuildingBlock: QUQFOY_clean_sbu_1, # of connection points: 4
#     Node 6, Type 0, BuildingBlock: QUQFOY_clean_sbu_1, # of connection points: 4
#     Node 7, Type 0, BuildingBlock: QUQFOY_clean_sbu_1, # of connection points: 4
#     Node 8, Type 0, BuildingBlock: QUQFOY_clean_sbu_1, # of connection points: 4
#     Node 9, Type 0, BuildingBlock: QUQFOY_clean_sbu_1, # of connection points: 4
#     Node 10, Type 0, BuildingBlock: QUQFOY_clean_sbu_1, # of connection points: 4
#     Node 11, Type 0, BuildingBlock: QUQFOY_clean_sbu_1, # of connection points: 4
#     Node 12, Type 0, BuildingBlock: QUQFOY_clean_sbu_1, # of connection points: 4
#     Node 13, Type 0, BuildingBlock: QUQFOY_clean_sbu_1, # of connection points: 4
#     Node 14, Type 0, BuildingBlock: QUQFOY_clean_sbu_1, # of connection points: 4
#     Node 15, Type 0, BuildingBlock: QUQFOY_clean_sbu_1, # of connection points: 4
#     Node 16, Type 0, BuildingBlock: QUQFOY_clean_sbu_1, # of connection points: 4
#     Node 17, Type 0, BuildingBlock: QUQFOY_clean_sbu_1, # of connection points: 4
#     Node 18, Type 0, BuildingBlock: QUQFOY_clean_sbu_1, # of connection points: 4
#     Node 19, Type 0, BuildingBlock: QUQFOY_clean_sbu_1, # of connection points: 4
#     Node 20, Type 0, BuildingBlock: QUQFOY_clean_sbu_1, # of connection points: 4
#     Node 21, Type 0, BuildingBlock: QUQFOY_clean_sbu_1, # of connection points: 4
#     Node 22, Type 0, BuildingBlock: QUQFOY_clean_sbu_1, # of connection points: 4
#     Node 23, Type 0, BuildingBlock: QUQFOY_clean_sbu_1, # of connection points: 4
#     Node 24, Type 1, BuildingBlock: KUMBUR_clean_sbu_0, # of connection points: 6
#     Node 25, Type 1, BuildingBlock: KUMBUR_clean_sbu_0, # of connection points: 6
#     Node 26, Type 1, BuildingBlock: KUMBUR_clean_sbu_0, # of connection points: 6
#     Node 27, Type 1, BuildingBlock: KUMBUR_clean_sbu_0, # of connection points: 6
#     Node 28, Type 1, BuildingBlock: KUMBUR_clean_sbu_0, # of connection points: 6
#     Node 29, Type 1, BuildingBlock: KUMBUR_clean_sbu_0, # of connection points: 6
#     Node 30, Type 1, BuildingBlock: KUMBUR_clean_sbu_0, # of connection points: 6
#     Node 31, Type 1, BuildingBlock: KUMBUR_clean_sbu_0, # of connection points: 6
#     Node 32, Type 1, BuildingBlock: KUMBUR_clean_sbu_0, # of connection points: 6
#     Node 33, Type 1, BuildingBlock: KUMBUR_clean_sbu_0, # of connection points: 6
#     Node 34, Type 1, BuildingBlock: KUMBUR_clean_sbu_0, # of connection points: 6
#     Node 35, Type 1, BuildingBlock: KUMBUR_clean_sbu_0, # of connection points: 6
#     Node 36, Type 1, BuildingBlock: KUMBUR_clean_sbu_0, # of connection points: 6
#     Node 37, Type 1, BuildingBlock: KUMBUR_clean_sbu_0, # of connection points: 6
#     Node 38, Type 1, BuildingBlock: KUMBUR_clean_sbu_0, # of connection points: 6
#     Node 39, Type 1, BuildingBlock: KUMBUR_clean_sbu_0, # of connection points: 6
#     Edge 40, Type (0, 1), BuildingBlock: KIFKEQ_clean_linker_1, # of connection points: 2
#     Edge 41, Type (0, 1), BuildingBlock: KIFKEQ_clean_linker_1, # of connection points: 2
#     Edge 42, Type (0, 1), BuildingBlock: KIFKEQ_clean_linker_1, # of connection points: 2
#     Edge 43, Type (0, 1), BuildingBlock: KIFKEQ_clean_linker_1, # of connection points: 2
#     Edge 44, Type (0, 1), BuildingBlock: KIFKEQ_clean_linker_1, # of connection points: 2
#     Edge 45, Type (0, 1), BuildingBlock: KIFKEQ_clean_linker_1, # of connection points: 2
#     Edge 46, Type (0, 1), BuildingBlock: KIFKEQ_clean_linker_1, # of connection points: 2
#     Edge 47, Type (0, 1), BuildingBlock: KIFKEQ_clean_linker_1, # of connection points: 2
#     Edge 48, Type (0, 1), BuildingBlock: KIFKEQ_clean_linker_1, # of connection points: 2
#     Edge 49, Type (0, 1), BuildingBlock: KIFKEQ_clean_linker_1, # of connection points: 2
#     Edge 50, Type (0, 1), BuildingBlock: KIFKEQ_clean_linker_1, # of connection points: 2
#     Edge 51, Type (0, 1), BuildingBlock: KIFKEQ_clean_linker_1, # of connection points: 2
#     Edge 52, Type (0, 1), BuildingBlock: KIFKEQ_clean_linker_1, # of connection points: 2
#     Edge 53, Type (0, 1), BuildingBlock: KIFKEQ_clean_linker_1, # of connection points: 2
#     Edge 54, Type (0, 1), BuildingBlock: KIFKEQ_clean_linker_1, # of connection points: 2
#     Edge 55, Type (0, 1), BuildingBlock: KIFKEQ_clean_linker_1, # of connection points: 2
#     Edge 56, Type (0, 1), BuildingBlock: KIFKEQ_clean_linker_1, # of connection points: 2
#     Edge 57, Type (0, 1), BuildingBlock: KIFKEQ_clean_linker_1, # of connection points: 2
#     Edge 58, Type (0, 1), BuildingBlock: KIFKEQ_clean_linker_1, # of connection points: 2
#     Edge 59, Type (0, 1), BuildingBlock: KIFKEQ_clean_linker_1, # of connection points: 2
#     Edge 60, Type (0, 1), BuildingBlock: KIFKEQ_clean_linker_1, # of connection points: 2
#     Edge 61, Type (0, 1), BuildingBlock: KIFKEQ_clean_linker_1, # of connection points: 2
#     Edge 62, Type (0, 1), BuildingBlock: KIFKEQ_clean_linker_1, # of connection points: 2
#     Edge 63, Type (0, 1), BuildingBlock: KIFKEQ_clean_linker_1, # of connection points: 2
#     Edge 64, Type (0, 1), BuildingBlock: KIFKEQ_clean_linker_1, # of connection points: 2
#     Edge 65, Type (0, 1), BuildingBlock: KIFKEQ_clean_linker_1, # of connection points: 2
#     Edge 66, Type (0, 1), BuildingBlock: KIFKEQ_clean_linker_1, # of connection points: 2
#     Edge 67, Type (0, 1), BuildingBlock: KIFKEQ_clean_linker_1, # of connection points: 2
#     Edge 68, Type (0, 1), BuildingBlock: KIFKEQ_clean_linker_1, # of connection points: 2
#     Edge 69, Type (0, 1), BuildingBlock: KIFKEQ_clean_linker_1, # of connection points: 2
#     Edge 70, Type (0, 1), BuildingBlock: KIFKEQ_clean_linker_1, # of connection points: 2
#     Edge 71, Type (0, 1), BuildingBlock: KIFKEQ_clean_linker_1, # of connection points: 2
#     Edge 72, Type (0, 1), BuildingBlock: KIFKEQ_clean_linker_1, # of connection points: 2
#     Edge 73, Type (0, 1), BuildingBlock: KIFKEQ_clean_linker_1, # of connection points: 2
#     Edge 74, Type (0, 1), BuildingBlock: KIFKEQ_clean_linker_1, # of connection points: 2
#     Edge 75, Type (0, 1), BuildingBlock: KIFKEQ_clean_linker_1, # of connection points: 2
#     Edge 76, Type (0, 1), BuildingBlock: KIFKEQ_clean_linker_1, # of connection points: 2
#     Edge 77, Type (0, 1), BuildingBlock: KIFKEQ_clean_linker_1, # of connection points: 2
#     Edge 78, Type (0, 1), BuildingBlock: KIFKEQ_clean_linker_1, # of connection points: 2
#     Edge 79, Type (0, 1), BuildingBlock: KIFKEQ_clean_linker_1, # of connection points: 2
#     Edge 80, Type (0, 1), BuildingBlock: KIFKEQ_clean_linker_1, # of connection points: 2
#     Edge 81, Type (0, 1), BuildingBlock: KIFKEQ_clean_linker_1, # of connection points: 2
#     Edge 82, Type (0, 1), BuildingBlock: KIFKEQ_clean_linker_1, # of connection points: 2
#     Edge 83, Type (0, 1), BuildingBlock: KIFKEQ_clean_linker_1, # of connection points: 2
#     Edge 84, Type (0, 1), BuildingBlock: KIFKEQ_clean_linker_1, # of connection points: 2
#     Edge 85, Type (0, 1), BuildingBlock: KIFKEQ_clean_linker_1, # of connection points: 2
#     Edge 86, Type (0, 1), BuildingBlock: KIFKEQ_clean_linker_1, # of connection points: 2
#     Edge 87, Type (0, 1), BuildingBlock: KIFKEQ_clean_linker_1, # of connection points: 2
#     Edge 88, Type (0, 1), BuildingBlock: KIFKEQ_clean_linker_1, # of connection points: 2
#     Edge 89, Type (0, 1), BuildingBlock: KIFKEQ_clean_linker_1, # of connection points: 2
#     Edge 90, Type (0, 1), BuildingBlock: KIFKEQ_clean_linker_1, # of connection points: 2
#     Edge 91, Type (0, 1), BuildingBlock: KIFKEQ_clean_linker_1, # of connection points: 2
#     Edge 92, Type (0, 1), BuildingBlock: KIFKEQ_clean_linker_1, # of connection points: 2
#     Edge 93, Type (0, 1), BuildingBlock: KIFKEQ_clean_linker_1, # of connection points: 2
#     Edge 94, Type (0, 1), BuildingBlock: KIFKEQ_clean_linker_1, # of connection points: 2
#     Edge 95, Type (0, 1), BuildingBlock: KIFKEQ_clean_linker_1, # of connection points: 2
#     Edge 96, Type (0, 1), BuildingBlock: KIFKEQ_clean_linker_1, # of connection points: 2
#     Edge 97, Type (0, 1), BuildingBlock: KIFKEQ_clean_linker_1, # of connection points: 2
#     Edge 98, Type (0, 1), BuildingBlock: KIFKEQ_clean_linker_1, # of connection points: 2
#     Edge 99, Type (0, 1), BuildingBlock: KIFKEQ_clean_linker_1, # of connection points: 2
#     Edge 100, Type (0, 1), BuildingBlock: KIFKEQ_clean_linker_1, # of connection points: 2
#     Edge 101, Type (0, 1), BuildingBlock: KIFKEQ_clean_linker_1, # of connection points: 2
#     Edge 102, Type (0, 1), BuildingBlock: KIFKEQ_clean_linker_1, # of connection points: 2
#     Edge 103, Type (0, 1), BuildingBlock: KIFKEQ_clean_linker_1, # of connection points: 2
#     Edge 104, Type (0, 1), BuildingBlock: KIFKEQ_clean_linker_1, # of connection points: 2
#     Edge 105, Type (0, 1), BuildingBlock: KIFKEQ_clean_linker_1, # of connection points: 2
#     Edge 106, Type (0, 1), BuildingBlock: KIFKEQ_clean_linker_1, # of connection points: 2
#     Edge 107, Type (0, 1), BuildingBlock: KIFKEQ_clean_linker_1, # of connection points: 2
#     Edge 108, Type (0, 1), BuildingBlock: KIFKEQ_clean_linker_1, # of connection points: 2
#     Edge 109, Type (0, 1), BuildingBlock: KIFKEQ_clean_linker_1, # of connection points: 2
#     Edge 110, Type (0, 1), BuildingBlock: KIFKEQ_clean_linker_1, # of connection points: 2
#     Edge 111, Type (0, 1), BuildingBlock: KIFKEQ_clean_linker_1, # of connection points: 2
#     Edge 112, Type (0, 1), BuildingBlock: KIFKEQ_clean_linker_1, # of connection points: 2
#     Edge 113, Type (0, 1), BuildingBlock: KIFKEQ_clean_linker_1, # of connection points: 2
#     Edge 114, Type (0, 1), BuildingBlock: KIFKEQ_clean_linker_1, # of connection points: 2
#     Edge 115, Type (0, 1), BuildingBlock: KIFKEQ_clean_linker_1, # of connection points: 2
#     Edge 116, Type (0, 1), BuildingBlock: KIFKEQ_clean_linker_1, # of connection points: 2
#     Edge 117, Type (0, 1), BuildingBlock: KIFKEQ_clean_linker_1, # of connection points: 2
#     Edge 118, Type (0, 1), BuildingBlock: KIFKEQ_clean_linker_1, # of connection points: 2
#     Edge 119, Type (0, 1), BuildingBlock: KIFKEQ_clean_linker_1, # of connection points: 2
#     Edge 120, Type (0, 1), BuildingBlock: KIFKEQ_clean_linker_1, # of connection points: 2
#     Edge 121, Type (0, 1), BuildingBlock: KIFKEQ_clean_linker_1, # of connection points: 2
#     Edge 122, Type (0, 1), BuildingBlock: KIFKEQ_clean_linker_1, # of connection points: 2
#     Edge 123, Type (0, 1), BuildingBlock: KIFKEQ_clean_linker_1, # of connection points: 2
#     Edge 124, Type (0, 1), BuildingBlock: KIFKEQ_clean_linker_1, # of connection points: 2
#     Edge 125, Type (0, 1), BuildingBlock: KIFKEQ_clean_linker_1, # of connection points: 2
#     Edge 126, Type (0, 1), BuildingBlock: KIFKEQ_clean_linker_1, # of connection points: 2
#     Edge 127, Type (0, 1), BuildingBlock: KIFKEQ_clean_linker_1, # of connection points: 2
#     Edge 128, Type (0, 1), BuildingBlock: KIFKEQ_clean_linker_1, # of connection points: 2
#     Edge 129, Type (0, 1), BuildingBlock: KIFKEQ_clean_linker_1, # of connection points: 2
#     Edge 130, Type (0, 1), BuildingBlock: KIFKEQ_clean_linker_1, # of connection points: 2
#     Edge 131, Type (0, 1), BuildingBlock: KIFKEQ_clean_linker_1, # of connection points: 2
#     Edge 132, Type (0, 1), BuildingBlock: KIFKEQ_clean_linker_1, # of connection points: 2
#     Edge 133, Type (0, 1), BuildingBlock: KIFKEQ_clean_linker_1, # of connection points: 2
#     Edge 134, Type (0, 1), BuildingBlock: KIFKEQ_clean_linker_1, # of connection points: 2
#     Edge 135, Type (0, 1), BuildingBlock: KIFKEQ_clean_linker_1, # of connection points: 2
# Relax obj value: 0.135
# Max RMSD: 0.333
# Mean RMSD: 0.178
data_MOF--net-gar--node1-QUQFOY_clean_sbu_1--node2-KUMBUR_clean_sbu_0--edge1-KIFKEQ_clean_linker_1
_symmetry_space_group_name_H-M    P1
_symmetry_Int_Tables_number       1
_symmetry_cell_setting            triclinic
loop_
_symmetry_equiv_pos_as_xyz
'x, y, z'
_cell_length_a     63.35923
_cell_length_b     57.443666
_cell_length_c     57.637594
_cell_angle_alpha  100.06667
_cell_angle_beta   93.897556
_cell_angle_gamma 104.26235
loop_
_atom_site_label
_atom_site_type_symbol
_atom_site_fract_x
_atom_site_fract_y
_atom_site_fract_z
_atom_type_partial_charge
O0 O 0.12568 0.30144 0.40459 0.0
Cd1 Cd 0.12743 0.32364 0.38034 0.0
Cd2 Cd 0.12577 0.35738 0.41642 0.0
O3 O 0.13212 0.33226 0.435 0.0
O4 O 0.14175 0.3092 0.35466 0.0
O5 O 0.15614 0.34615 0.3776 0.0
C6 C 0.15764 0.32884 0.36066 0.0
C7 C 0.13815 0.3981 0.43527 0.0
C8 C 0.12923 0.30962 0.42676 0.0
C9 C 0.08712 0.33903 0.37876 0.0
O10 O 0.09458 0.35046 0.39973 0.0
O11 O 0.09866 0.32792 0.36621 0.0
O12 O 0.12425 0.38248 0.44378 0.0
O13 O 0.14601 0.39062 0.41616 0.0
O14 O 0.9978 0.72584 0.67293 0.0
Cd15 Cd 1.00768 0.75986 0.69406 0.0
Cd16 Cd 0.01508 0.77386 0.6558 0.0
O17 O 0.99415 0.74055 0.64074 0.0
O18 O 0.99061 0.76007 0.721 0.0
O19 O 0.9887 0.78211 0.6929 0.0
C20 C 0.98198 0.77502 0.7118 0.0
C21 C 0.01372 0.80675 0.63872 0.0
C22 C 0.99185 0.72235 0.65088 0.0
C23 C 0.0534 0.77475 0.68931 0.0
O24 O 0.04652 0.77417 0.66797 0.0
O25 O 0.04012 0.77225 0.70472 0.0
O26 O 0.01985 0.78854 0.62767 0.0
O27 O 1.00767 0.80622 0.65955 0.0
O28 O 0.66043 0.83485 0.88689 0.0
Cd29 Cd 0.63657 0.83532 0.90913 0.0
Cd30 Cd 0.62378 0.85669 0.87645 0.0
O31 O 0.64301 0.84165 0.85542 0.0
O32 O 0.64659 0.82159 0.93543 0.0
O33 O 0.61641 0.80303 0.91053 0.0
C34 C 0.62952 0.80338 0.92884 0.0
C35 C 0.58676 0.8488 0.86715 0.0
C36 C 0.65885 0.83551 0.86496 0.0
C37 C 0.63528 0.8871 0.92141 0.0
O38 O 0.63808 0.88832 0.90015 0.0
O39 O 0.63078 0.86652 0.92756 0.0
O40 O 0.60023 0.864 0.85752 0.0
O41 O 0.59434 0.83704 0.88149 0.0
O42 O 0.50239 0.21796 0.17759 0.0
Cd43 Cd 0.51028 0.25076 0.20071 0.0
Cd44 Cd 0.51777 0.26589 0.16257 0.0
O45 O 0.4925 0.23544 0.1497 0.0
O46 O 0.49116 0.25112 0.22544 0.0
O47 O 0.49252 0.27365 0.19727 0.0
C48 C 0.48394 0.26663 0.21547 0.0
C49 C 0.52321 0.29592 0.14046 0.0
C50 C 0.49396 0.21613 0.15659 0.0
C51 C 0.55513 0.26441 0.19696 0.0
O52 O 0.54779 0.26243 0.17549 0.0
O53 O 0.54227 0.26407 0.21284 0.0
O54 O 0.52639 0.27482 0.13282 0.0
O55 O 0.51542 0.29969 0.16049 0.0
O56 O 0.09774 0.78648 0.11634 0.0
Cd57 Cd 0.09959 0.81889 0.1391 0.0
Cd58 Cd 0.12163 0.83822 0.10413 0.0
O59 O 0.11273 0.80023 0.08616 0.0
O60 O 0.07819 0.8066 0.16109 0.0
O61 O 0.07431 0.83509 0.14128 0.0
C62 C 0.06675 0.82088 0.15552 0.0
C63 C 0.1117 0.87225 0.08963 0.0
C64 C 0.10393 0.78228 0.0959 0.0
C65 C 0.14815 0.84057 0.15206 0.0
O66 O 0.14855 0.84504 0.13104 0.0
O67 O 0.12983 0.83209 0.15942 0.0
O68 O 0.12799 0.86408 0.08275 0.0
O69 O 0.10061 0.86094 0.10426 0.0
O70 O 0.57274 0.78289 0.43189 0.0
Cd71 Cd 0.55427 0.78226 0.46079 0.0
Cd72 Cd 0.52493 0.79584 0.41588 0.0
O73 O 0.55299 0.78942 0.40115 0.0
O74 O 0.5705 0.76772 0.48474 0.0
O75 O 0.53815 0.74783 0.466 0.0
C76 C 0.55481 0.74778 0.48023 0.0
C77 C 0.49118 0.79287 0.39146 0.0
C78 C 0.57053 0.78559 0.41037 0.0
C79 C 0.54191 0.83213 0.46587 0.0
O80 O 0.53265 0.82492 0.44457 0.0
O81 O 0.55016 0.81782 0.47639 0.0
O82 O 0.50871 0.81015 0.3922 0.0
O83 O 0.49276 0.77643 0.40366 0.0
O84 O 0.60295 0.28041 0.61529 0.0
Cd85 Cd 0.60711 0.31115 0.64126 0.0
Cd86 Cd 0.63079 0.33449 0.60912 0.0
O87 O 0.62309 0.29705 0.58956 0.0
O88 O 0.58503 0.29815 0.66229 0.0
O89 O 0.5831 0.32905 0.64507 0.0
C90 C 0.57453 0.31375 0.65796 0.0
C91 C 0.61964 0.36833 0.59515 0.0
C92 C 0.6115 0.27806 0.59604 0.0
C93 C 0.65611 0.33285 0.65639 0.0
O94 O 0.65696 0.34116 0.63711 0.0
O95 O 0.63767 0.3213 0.66157 0.0
O96 O 0.6369 0.36173 0.58905 0.0
O97 O 0.60841 0.35573 0.60883 0.0
O98 O 0.03494 0.24016 0.93667 0.0
Cd99 Cd 0.03529 0.26415 0.9132 0.0
Cd100 Cd 0.02205 0.29203 0.95658 0.0
O101 O 0.03032 0.26202 0.97061 0.0
O102 O 0.05313 0.25223 0.88799 0.0
O103 O 0.06473 0.28824 0.91202 0.0
C104 C 0.06854 0.27213 0.89532 0.0
C105 C 0.03314 0.33405 0.97732 0.0
C106 C 0.03414 0.24252 0.95899 0.0
C107 C 0.99156 0.27819 0.90781 0.0
O108 O 0.99516 0.28698 0.93014 0.0
O109 O 1.00541 0.26841 0.89745 0.0
O110 O 0.01749 0.31804 0.98345 0.0
O111 O 0.04363 0.32598 0.96057 0.0
O112 O 0.43846 0.06271 0.28412 0.0
Cd113 Cd 0.42507 0.06871 0.31602 0.0
Cd114 Cd 0.45651 0.05738 0.32874 0.0
O115 O 0.47132 0.07236 0.30337 0.0
O116 O 0.40048 0.08112 0.30798 0.0
O117 O 0.42997 0.10347 0.33258 0.0
C118 C 0.41101 0.10153 0.32157 0.0
C119 C 0.46927 0.07139 0.36676 0.0
C120 C 0.45914 0.06831 0.28404 0.0
C121 C 0.41624 0.02114 0.32364 0.0
O122 O 0.43556 0.02361 0.31824 0.0
O123 O 0.4096 0.03992 0.3301 0.0
O124 O 0.47799 0.05663 0.35349 0.0
O125 O 0.453 0.07837 0.35825 0.0
O126 O 0.3231 0.21656 0.55815 0.0
Cd127 Cd 0.31903 0.18991 0.5277 0.0
Cd128 Cd 0.30211 0.22382 0.50935 0.0
O129 O 0.31089 0.2448 0.54402 0.0
O130 O 0.33553 0.16681 0.53713 0.0
O131 O 0.34526 0.1884 0.50957 0.0
C132 C 0.34889 0.17291 0.52206 0.0
C133 C 0.31031 0.23795 0.47398 0.0
C134 C 0.3188 0.23732 0.56142 0.0
C135 C 0.27089 0.1745 0.50902 0.0
O136 O 0.27352 0.19611 0.50521 0.0
O137 O 0.28722 0.16776 0.51691 0.0
O138 O 0.29599 0.24471 0.48656 0.0
O139 O 0.3212 0.22428 0.48224 0.0
O140 O 0.18264 1.01759 0.73158 0.0
Cd141 Cd 0.21034 1.01679 0.75697 0.0
Cd142 Cd 0.17338 0.04342 0.78932 0.0
O143 O 0.15894 0.03451 0.75171 0.0
O144 O 0.23092 0.99449 0.74168 0.0
O145 O 0.21617 0.98749 0.77326 0.0
C146 C 0.22873 0.98127 0.75784 0.0
C147 C 0.15446 0.04223 0.82711 0.0
C148 C 0.16529 0.02595 0.7317 0.0
C149 C 0.22208 0.0738 0.78252 0.0
O150 O 0.20347 0.07084 0.7909 0.0
O151 O 0.22769 0.05534 0.77065 0.0
O152 O 0.15509 0.05907 0.81474 0.0
O153 O 0.16355 0.02545 0.81802 0.0
O154 O 0.33733 0.96282 0.05269 0.0
Cd155 Cd 0.33757 0.97896 0.02337 0.0
Cd156 Cd 0.33852 0.93795 1.00561 0.0
O157 O 0.3182 0.92855 0.02998 0.0
O158 O 0.32407 1.0061 0.02867 0.0
O159 O 0.30892 0.9705 1.0036 0.0
C160 C 0.30784 0.99202 0.01384 0.0
C161 C 0.33613 0.91511 0.96863 0.0
C162 C 0.32539 0.9411 0.05059 0.0
C163 C 0.37886 0.97542 0.01276 0.0
O164 O 0.3706 0.95452 0.01721 0.0
O165 O 0.36654 0.98917 1.00968 0.0
O166 O 0.34174 0.90731 0.98714 0.0
O167 O 0.32968 0.93499 0.97135 0.0
O168 O 0.32913 0.40139 0.08134 0.0
Cd169 Cd 0.33338 0.42576 0.05858 0.0
Cd170 Cd 0.34546 0.38421 0.03143 0.0
O171 O 0.33267 0.36729 0.05914 0.0
O172 O 0.31695 0.44991 0.07214 0.0
O173 O 0.30757 0.42676 0.0363 0.0
C174 C 0.30359 0.44289 0.05285 0.0
C175 C 0.33861 0.36459 0.99087 0.0
C176 C 0.32843 0.37875 0.07861 0.0
C177 C 0.38026 0.43425 0.04817 0.0
O178 O 0.37521 0.41138 0.03924 0.0
O179 O 0.36565 0.44437 0.05598 0.0
O180 O 0.35218 0.35934 1.00552 0.0
O181 O 0.32789 0.37997 0.99932 0.0
O182 O 0.79943 0.15336 0.07776 0.0
Cd183 Cd 0.79946 0.13116 0.04632 0.0
Cd184 Cd 0.80392 0.17103 0.03384 0.0
O185 O 0.82266 0.18271 0.06608 0.0
O186 O 0.81566 0.10725 0.05073 0.0
O187 O 0.82616 0.13775 0.03097 0.0
C188 C 0.82992 0.11955 0.03932 0.0
C189 C 0.81398 0.188 1.00174 0.0
C190 C 0.81314 0.17416 0.08257 0.0
C191 C 0.76012 0.13563 0.02861 0.0
O192 O 0.7707 0.15805 0.03467 0.0
O193 O 0.77033 0.11914 0.02608 0.0
O194 O 0.80799 0.20049 0.01973 0.0
O195 O 0.81491 0.16591 1.00224 0.0
O196 O 0.20756 0.55384 0.21478 0.0
Cd197 Cd 0.23432 0.55601 0.23644 0.0
Cd198 Cd 0.20903 0.5647 0.26904 0.0
O199 O 0.18607 0.54415 0.24189 0.0
O200 O 0.24734 0.53011 0.22383 0.0
O201 O 0.23135 0.53268 0.25742 0.0
C202 C 0.24085 0.52097 0.24192 0.0
C203 C 0.19592 0.57124 0.30539 0.0
C204 C 0.18868 0.54555 0.22055 0.0
C205 C 0.24682 0.60427 0.25752 0.0
O206 O 0.22841 0.59746 0.26503 0.0
O207 O 0.2556 0.58877 0.24668 0.0
O208 O 0.18934 0.57953 0.28775 0.0
O209 O 0.20936 0.55769 0.30216 0.0
O210 O 0.8328 0.90364 0.58567 0.0
Cd211 Cd 0.83665 0.92473 0.56024 0.0
Cd212 Cd 0.84895 0.88404 0.53647 0.0
O213 O 0.83652 0.8689 0.56511 0.0
O214 O 0.82164 0.95091 0.57064 0.0
O215 O 0.80951 0.92203 0.53835 0.0
C216 C 0.80705 0.9409 0.55266 0.0
C217 C 0.83859 0.86451 0.49632 0.0
C218 C 0.83216 0.88112 0.58406 0.0
C219 C 0.88334 0.93349 0.54966 0.0
O220 O 0.87905 0.9104 0.54225 0.0
O221 O 0.86833 0.94331 0.55655 0.0
O222 O 0.852 0.85762 0.5098 0.0
O223 O 0.83004 0.88154 0.50602 0.0
O224 O 0.95849 0.08454 0.23633 0.0
Cd225 Cd 0.93065 0.08483 0.25748 0.0
Cd226 Cd 0.97213 0.06101 0.28845 0.0
O227 O 0.98408 0.07048 0.25466 0.0
O228 O 0.90782 0.10175 0.24213 0.0
O229 O 0.92542 0.11836 0.2768 0.0
C230 C 0.91134 0.11977 0.2601 0.0
C231 C 0.9935 0.06292 0.32785 0.0
C232 C 0.97692 0.07839 0.23655 0.0
C233 C 0.92117 0.03086 0.27316 0.0
O234 O 0.94101 0.03458 0.28251 0.0
O235 O 0.91495 0.0475 0.26382 0.0
O236 O 0.99323 0.04677 0.30908 0.0
O237 O 0.98294 0.07887 0.32443 0.0
O238 O 0.30963 0.66462 0.57569 0.0
Cd239 Cd 0.30612 0.63412 0.55067 0.0
Cd240 Cd 0.30193 0.66352 0.52153 0.0
O241 O 0.31491 0.69001 0.55094 0.0
O242 O 0.32588 0.61568 0.56117 0.0
O243 O 0.32842 0.63243 0.52884 0.0
C244 C 0.33595 0.62051 0.5431 0.0
C245 C 0.30381 0.67842 0.4866 0.0
C246 C 0.31404 0.68625 0.57189 0.0
C247 C 0.26227 0.62435 0.53024 0.0
O248 O 0.27041 0.64343 0.52228 0.0
O249 O 0.27463 0.61438 0.54101 0.0
O250 O 0.2923 0.68506 0.50263 0.0
O251 O 0.31539 0.66365 0.49048 0.0
O252 O 0.46051 0.58694 0.74106 0.0
Cd253 Cd 0.43177 0.58792 0.76076 0.0
Cd254 Cd 0.47379 0.56336 0.793 0.0
O255 O 0.48655 0.5741 0.76029 0.0
O256 O 0.4099 0.60479 0.74318 0.0
O257 O 0.42499 0.62138 0.77878 0.0
C258 C 0.41213 0.62279 0.76094 0.0
C259 C 0.49456 0.56383 0.83259 0.0
C260 C 0.47925 0.58143 0.7419 0.0
C261 C 0.42286 0.53323 0.77513 0.0
O262 O 0.44276 0.53682 0.78432 0.0
O263 O 0.41624 0.55033 0.76693 0.0
O264 O 0.4945 0.54824 0.81343 0.0
O265 O 0.48405 0.57991 0.82945 0.0
O266 O 0.71042 0.0568 0.71018 0.0
Cd267 Cd 0.73394 0.05585 0.73466 0.0
Cd268 Cd 0.70701 0.06637 0.76695 0.0
O269 O 0.68644 0.05434 0.73621 0.0
O270 O 0.74569 0.0276 0.72503 0.0
O271 O 0.72497 0.03191 0.75456 0.0
C272 C 0.7353 0.01886 0.74151 0.0
C273 C 0.68943 0.05959 0.80012 0.0
C274 C 0.69091 0.05391 0.71508 0.0
C275 C 0.74901 0.10403 0.7626 0.0
O276 O 0.73046 0.09875 0.77033 0.0
O277 O 0.75548 0.08799 0.74907 0.0
O278 O 0.68567 0.0752 0.78799 0.0
O279 O 0.70381 0.048 0.79388 0.0
O280 O 0.82025 0.72092 0.06516 0.0
Cd281 Cd 0.81745 0.69438 0.03503 0.0
Cd282 Cd 0.7989 0.727 0.01524 0.0
O283 O 0.80638 0.74765 0.05018 0.0
O284 O 0.83385 0.6717 0.0455 0.0
O285 O 0.84468 0.69362 0.01849 0.0
C286 C 0.8479 0.67814 0.03119 0.0
C287 C 0.80814 0.74217 0.98044 0.0
C288 C 0.81472 0.74098 0.06791 0.0
C289 C 0.76952 0.67652 0.01481 0.0
O290 O 0.77122 0.69772 1.01019 0.0
O291 O 0.78623 0.67119 0.02377 0.0
O292 O 0.7929 0.74791 0.99217 0.0
O293 O 0.81912 0.72884 0.98917 0.0
O294 O 0.93487 0.57034 0.78364 0.0
Cd295 Cd 0.92346 0.57321 0.81697 0.0
Cd296 Cd 0.95947 0.56984 0.82682 0.0
O297 O 0.96812 0.58803 0.80078 0.0
O298 O 0.92578 0.60636 0.83574 0.0
O299 O 0.89572 0.58161 0.81364 0.0
C300 C 0.90535 0.60205 0.8278 0.0
C301 C 0.97602 0.58372 0.86407 0.0
C302 C 0.95479 0.58066 0.78209 0.0
C303 C 0.92464 0.52716 0.82496 0.0
O304 O 0.94315 0.53333 0.81746 0.0
O305 O 0.91508 0.54341 0.83206 0.0
O306 O 0.98585 0.5737 0.84778 0.0
O307 O 0.95673 0.58649 0.85891 0.0
O308 O 0.84239 0.46288 0.56052 0.0
Cd309 Cd 0.84116 0.47734 0.53029 0.0
Cd310 Cd 0.84222 0.43483 0.51431 0.0
O311 O 0.82109 0.42945 0.53901 0.0
O312 O 0.82532 0.50249 0.53356 0.0
O313 O 0.81261 0.4653 0.51023 0.0
C314 C 0.80979 0.48639 0.51934 0.0
C315 C 0.83806 0.40857 0.47891 0.0
C316 C 0.83011 0.44152 0.55924 0.0
C317 C 0.88247 0.47391 0.52012 0.0
O318 O 0.87436 0.45296 0.52468 0.0
O319 O 0.87 0.48736 0.51638 0.0
O320 O 0.84398 0.40234 0.49827 0.0
O321 O 0.83293 0.42917 0.48009 0.0
O322 O 0.68492 0.5157 0.2367 0.0
Cd323 Cd 0.712 0.5159 0.26331 0.0
Cd324 Cd 0.67419 0.54109 0.29422 0.0
O325 O 0.66016 0.531 0.25642 0.0
O326 O 0.73469 0.49527 0.2503 0.0
O327 O 0.71556 0.48479 0.27813 0.0
C328 C 0.73017 0.48018 0.26464 0.0
C329 C 0.65592 0.53949 0.33226 0.0
C330 C 0.66705 0.52308 0.23653 0.0
C331 C 0.72188 0.57336 0.28826 0.0
O332 O 0.70286 0.57001 0.29567 0.0
O333 O 0.72843 0.55498 0.2776 0.0
O334 O 0.65286 0.55356 0.31783 0.0
O335 O 0.66833 0.52552 0.32504 0.0
Tb336 Tb 0.04747 0.04519 0.02064 0.0
C337 C 0.12075 0.1314 0.0796 0.0
C338 C 0.13159 0.15824 0.05211 0.0
C339 C 0.14173 0.17373 0.09437 0.0
C340 C 0.1209 0.13508 0.05669 0.0
C341 C 0.13135 0.1506 0.09876 0.0
C342 C 0.14186 0.17753 0.07106 0.0
C343 C 0.12254 0.12216 0.12505 0.0
N344 N 0.11119 0.10864 0.08305 0.0
C345 C 0.1127 0.10364 0.10545 0.0
C346 C 0.13184 0.1458 0.12171 0.0
Tb347 Tb 0.09815 0.07823 0.04982 0.0
N348 N 0.11113 0.11582 0.03886 0.0
C349 C 0.11204 0.11888 0.01577 0.0
C350 C 0.13207 0.16126 0.02864 0.0
C351 C 0.12224 0.14147 1.01041 0.0
H352 H 0.10629 0.0852 0.10823 0.0
H353 H 0.12255 0.14352 0.9921 0.0
H354 H 0.1502 0.19536 0.06785 0.0
H355 H 0.12332 0.11806 0.14266 0.0
H356 H 0.10458 0.10441 1.00089 0.0
H357 H 0.02241 0.9848 0.08266 0.0
H358 H 0.14014 0.1787 0.0244 0.0
H359 H 0.04196 0.03407 0.9618 0.0
H360 H 0.04186 0.0223 0.07163 0.0
H361 H 0.02447 0.99968 0.92884 0.0
H362 H 0.15002 0.18865 0.10883 0.0
H363 H 1.00261 0.949 0.05197 0.0
H364 H 0.99148 0.93032 1.00898 0.0
H365 H 0.13983 0.16005 0.13686 0.0
H366 H 0.99258 0.93406 0.96721 0.0
N367 N 0.03379 1.00915 0.03398 0.0
C368 C 0.03341 1.00744 0.05746 0.0
C369 C 0.0113 0.96566 0.04675 0.0
C370 C 0.01162 0.96723 0.02288 0.0
C371 C 0.0224 0.98582 0.06408 0.0
C372 C 0.02318 0.98939 0.017 0.0
H373 H 1.00528 0.95955 0.9372 0.0
N374 N 0.03484 1.0131 0.9888 0.0
C375 C 0.02438 0.99697 0.94696 0.0
C376 C 0.02399 0.99136 0.99361 0.0
C377 C 0.03453 1.01633 0.96573 0.0
C378 C 0.01355 0.97439 0.95174 0.0
C379 C 0.01299 0.97144 0.97528 0.0
O380 O 0.02505 0.05497 0.99837 0.0
O381 O 0.06759 0.08286 0.03407 0.0
O382 O 0.07546 0.085 0.07713 0.0
O383 O 0.04265 0.05798 0.0588 0.0
O384 O 0.05604 0.07264 0.99901 0.0
O385 O 0.01728 0.0475 0.03267 0.0
O386 O 0.12126 0.06625 0.06901 0.0
O387 O 0.07791 0.04088 0.03614 0.0
O388 O 0.07084 0.03612 0.99499 0.0
O389 O 0.10164 0.06739 1.01094 0.0
O390 O 0.09047 0.04979 0.0708 0.0
O391 O 0.12807 0.0776 0.03601 0.0
C392 C 0.06521 0.09147 0.01526 0.0
C393 C 0.98779 0.04203 1.00317 0.0
C394 C 0.95053 0.04557 1.00178 0.0
C395 C 0.97215 0.05298 0.01254 0.0
C396 C 0.94435 0.0262 0.98197 0.0
C397 C 0.98163 0.02279 0.9833 0.0
C398 C 0.9599 1.01476 0.97289 0.0
C399 C 0.05461 0.07326 0.07798 0.0
C400 C 1.01051 0.05329 0.01317 0.0
C401 C 1.00129 0.94946 0.98101 0.0
C402 C 1.00061 0.94736 1.00478 0.0
C403 C 0.08046 0.0315 0.05433 0.0
C404 C 0.15827 0.07832 0.06303 0.0
C405 C 0.17253 0.06586 0.0525 0.0
C406 C 0.19417 0.07087 0.06264 0.0
C407 C 0.20179 0.08881 0.08335 0.0
C408 C 0.16589 0.0966 0.08354 0.0
C409 C 0.18768 0.10186 0.0936 0.0
C410 C 0.09055 0.05 0.9927 0.0
C411 C 0.13517 0.0692 0.05367 0.0
H412 H 0.97703 0.0679 0.02788 0.0
H413 H 0.92773 0.0204 0.97316 0.0
H414 H 0.99348 1.01435 0.97546 0.0
H415 H 0.95523 1.0001 0.95741 0.0
H416 H 0.16657 0.05148 0.03683 0.0
H417 H 0.21857 0.09277 0.09139 0.0
H418 H 0.15502 0.10632 0.09204 0.0
H419 H 0.19353 0.11577 0.10954 0.0
Tb420 Tb 0.32691 0.8057 0.25175 0.0
C421 C 0.30586 0.88312 0.32873 0.0
C422 C 0.34143 0.90448 0.35016 0.0
C423 C 0.31189 0.92444 0.35201 0.0
C424 C 0.32718 0.88322 0.33559 0.0
C425 C 0.29792 0.90367 0.33715 0.0
C426 C 0.3336 0.92484 0.35851 0.0
C427 C 0.26216 0.88093 0.31788 0.0
N428 N 0.29267 0.86272 0.31443 0.0
C429 C 0.27067 0.86106 0.31037 0.0
C430 C 0.27593 0.90251 0.3311 0.0
Tb431 Tb 0.30666 0.82898 0.30619 0.0
N432 N 0.33417 0.86301 0.32734 0.0
C433 C 0.35617 0.86446 0.33179 0.0
C434 C 0.3633 0.905 0.35565 0.0
C435 C 0.37075 0.88505 0.34608 0.0
H436 H 0.25915 0.84399 0.30229 0.0
H437 H 0.38795 0.88571 0.3492 0.0
H438 H 0.34428 0.94111 0.36988 0.0
H439 H 0.24482 0.87925 0.31414 0.0
H440 H 0.36358 0.85097 0.32315 0.0
H441 H 0.25442 0.7388 0.20369 0.0
H442 H 0.37472 0.92102 0.36657 0.0
H443 H 0.37861 0.8043 0.25705 0.0
H444 H 0.27474 0.7779 0.22831 0.0
H445 H 0.40039 0.77466 0.2461 0.0
H446 H 0.30602 0.94025 0.35868 0.0
H447 H 0.27275 0.7058 0.19277 0.0
H448 H 0.30721 0.69177 0.19431 0.0
H449 H 0.26924 0.91781 0.33733 0.0
H450 H 0.34691 0.70131 0.20635 0.0
N451 N 0.30523 0.76827 0.23156 0.0
C452 C 0.2835 0.76428 0.22357 0.0
C453 C 0.28199 0.7232 0.20358 0.0
C454 C 0.30422 0.72739 0.21132 0.0
C455 C 0.27164 0.7418 0.20962 0.0
C456 C 0.3155 0.75041 0.22533 0.0
H457 H 0.38182 0.73218 0.22564 0.0
N458 N 0.34784 0.77834 0.24475 0.0
C459 C 0.3827 0.76893 0.24236 0.0
C460 C 0.33761 0.7556 0.23231 0.0
C461 C 0.3703 0.7856 0.24869 0.0
C462 C 0.37217 0.74498 0.23084 0.0
C463 C 0.34939 0.73818 0.22522 0.0
O464 O 0.35115 0.82718 0.23577 0.0
O465 O 0.32325 0.83686 0.27646 0.0
O466 O 0.28545 0.83394 0.27573 0.0
O467 O 0.29746 0.81695 0.24082 0.0
O468 O 0.35426 0.83648 0.26758 0.0
O469 O 0.31991 0.80755 0.21587 0.0
O470 O 0.27437 0.81251 0.31136 0.0
O471 O 0.30325 0.79962 0.27623 0.0
O472 O 0.34502 0.7957 0.28143 0.0
O473 O 0.33591 0.81659 0.31694 0.0
O474 O 0.30287 0.79116 0.30985 0.0
O475 O 0.29919 0.83031 0.34127 0.0
C476 C 0.3427 0.84931 0.27863 0.0
C477 C 0.35018 0.81943 0.19445 0.0
C478 C 0.35793 0.83438 0.1584 0.0
C479 C 0.34588 0.83279 0.17771 0.0
C480 C 0.37473 0.82244 0.15593 0.0
C481 C 0.36668 0.80706 0.1919 0.0
C482 C 0.37891 0.80858 0.17259 0.0
C483 C 0.28361 0.82749 0.25212 0.0
C484 C 0.33907 0.82225 0.21566 0.0
C485 C 0.33818 0.71497 0.2119 0.0
C486 C 0.31561 0.70957 0.20499 0.0
C487 C 0.30085 0.78254 0.2875 0.0
C488 C 0.26774 0.80081 0.34783 0.0
C489 C 0.27847 0.78526 0.35712 0.0
C490 C 0.2671 0.76822 0.36961 0.0
C491 C 0.24517 0.7672 0.37314 0.0
C492 C 0.24586 0.79961 0.35145 0.0
C493 C 0.23466 0.78291 0.36414 0.0
C494 C 0.34822 0.80378 0.30497 0.0
C495 C 0.27864 0.81865 0.33438 0.0
H496 H 0.33355 0.84294 0.18027 0.0
H497 H 0.38437 0.82367 0.14117 0.0
H498 H 0.37046 0.79684 0.20492 0.0
H499 H 0.39181 0.79929 0.17072 0.0
H500 H 0.29542 0.7862 0.35449 0.0
H501 H 0.23627 0.75444 0.38312 0.0
H502 H 0.23747 0.81167 0.34447 0.0
H503 H 0.21782 0.78216 0.36702 0.0
Tb504 Tb 0.60279 0.05788 0.5298 0.0
C505 C 0.52263 1.01534 0.57724 0.0
C506 C 0.50111 0.98086 0.54776 0.0
C507 C 0.4994 0.98037 0.58969 0.0
C508 C 0.51641 1.00403 0.5538 0.0
C509 C 0.51394 1.0039 0.5955 0.0
C510 C 0.493 0.96886 0.56584 0.0
C511 C 0.53336 0.04054 0.62367 0.0
N512 N 0.53672 0.03804 0.58208 0.0
C513 C 0.54147 0.05116 0.60491 0.0
C514 C 0.51974 1.01669 0.61898 0.0
Tb515 Tb 0.5496 0.05353 0.55013 0.0
N516 N 0.52447 1.01635 0.53692 0.0
C517 C 0.51657 1.00718 0.51356 0.0
C518 C 0.49393 0.97082 0.52379 0.0
C519 C 0.50141 0.98425 0.50665 0.0
H520 H 0.5518 0.06967 0.60873 0.0
H521 H 0.49559 0.97691 0.48808 0.0
H522 H 0.48138 0.95095 0.56156 0.0
H523 H 0.53755 0.0508 0.64172 0.0
H524 H 0.52211 1.0172 0.49998 0.0
H525 H 0.65617 0.12979 0.59745 0.0
H526 H 0.48219 0.95306 0.51839 0.0
H527 H 0.60158 0.04695 0.47135 0.0
H528 H 0.62927 0.09049 0.5825 0.0
H529 H 0.61751 0.06874 0.44066 0.0
H530 H 0.49266 0.97116 0.60346 0.0
H531 H 0.67107 0.15636 0.5698 0.0
H532 H 0.67324 0.16227 0.52777 0.0
H533 H 0.5134 1.00855 0.63354 0.0
H534 H 0.66285 0.1456 0.48503 0.0
N535 N 0.62814 0.09425 0.54617 0.0
C536 C 0.6354 0.10155 0.56991 0.0
C537 C 0.65913 0.13898 0.56298 0.0
C538 C 0.65245 0.13098 0.53866 0.0
C539 C 0.65082 0.124 0.57863 0.0
C540 C 0.63686 0.10819 0.53073 0.0
H541 H 0.64232 0.11057 0.45236 0.0
N542 N 0.61671 0.07647 0.50006 0.0
C543 C 0.62134 0.07751 0.4592 0.0
C544 C 0.63103 0.09893 0.50681 0.0
C545 C 0.61238 0.06521 0.47661 0.0
C546 C 0.63531 0.10113 0.46587 0.0
C547 C 0.64057 0.11201 0.48995 0.0
O548 O 0.61552 0.03002 0.51231 0.0
O549 O 0.57175 0.03362 0.53406 0.0
O550 O 0.56629 0.03565 0.57241 0.0
O551 O 0.60227 0.05423 0.56693 0.0
O552 O 0.58444 0.02552 0.50331 0.0
O553 O 0.63035 0.05059 0.54687 0.0
O554 O 0.5372 0.08292 0.56457 0.0
O555 O 0.58068 0.07734 0.54574 0.0
O556 O 0.5854 0.07606 0.50812 0.0
O557 O 0.54988 0.05497 0.51247 0.0
O558 O 0.56799 0.08692 0.57578 0.0
O559 O 0.52087 0.05803 0.53258 0.0
C560 C 0.56857 1.0176 0.5151 0.0
C561 C 0.6533 0.03452 0.52126 0.0
C562 C 0.68684 0.02089 0.52235 0.0
C563 C 0.6663 0.02072 0.53029 0.0
C564 C 0.69412 0.03462 0.50518 0.0
C565 C 0.66093 0.04816 0.50413 0.0
C566 C 0.68118 0.04809 0.49609 0.0
C567 C 0.58754 0.04206 0.57865 0.0
C568 C 0.63151 0.03371 0.52906 0.0
C569 C 0.65545 0.13515 0.49769 0.0
C570 C 0.66136 0.14464 0.52202 0.0
C571 C 0.58414 0.09409 0.56408 0.0
C572 C 0.49907 0.07707 0.55755 0.0
C573 C 0.48513 0.08929 0.54747 0.0
C574 C 0.46532 0.09058 0.55677 0.0
C575 C 0.46001 0.08 0.57659 0.0
C576 C 0.49309 0.0663 0.577 0.0
C577 C 0.47377 0.06791 0.58653 0.0
C578 C 0.56422 0.06823 0.50113 0.0
C579 C 0.52029 0.07684 0.54857 0.0
H580 H 0.66055 1.01006 0.54348 0.0
H581 H 0.70985 0.03485 0.49879 0.0
H582 H 0.65125 0.05871 0.49679 0.0
H583 H 0.68686 0.05854 0.48277 0.0
H584 H 0.48961 0.09754 0.53236 0.0
H585 H 0.44521 0.08117 0.58455 0.0
H586 H 0.50342 0.05693 0.58511 0.0
H587 H 0.46948 0.05982 0.60175 0.0
Tb588 Tb 0.29593 0.30813 0.7729 0.0
C589 C 0.36952 0.27538 0.81841 0.0
C590 C 0.3844 0.30886 0.85166 0.0
C591 C 0.38653 0.2678 0.85446 0.0
C592 C 0.37327 0.29973 0.82855 0.0
C593 C 0.37699 0.25929 0.8308 0.0
C594 C 0.3902 0.29259 0.86491 0.0
C595 C 0.36872 0.22912 0.79433 0.0
N596 N 0.36088 0.26815 0.79537 0.0
C597 C 0.36164 0.24583 0.78282 0.0
C598 C 0.37591 0.23566 0.81859 0.0
Tb599 Tb 0.3492 0.29643 0.77785 0.0
N600 N 0.36801 0.31485 0.81484 0.0
C601 C 0.37549 0.33975 0.82257 0.0
C602 C 0.39048 0.33417 0.86022 0.0
C603 C 0.38649 0.34969 0.84537 0.0
H604 H 0.35594 0.2406 0.76407 0.0
H605 H 0.39176 0.36936 0.8515 0.0
H606 H 0.39848 0.29921 0.8828 0.0
H607 H 0.36856 0.2112 0.7845 0.0
H608 H 0.3726 0.35236 0.81175 0.0
H609 H 0.2569 0.23108 0.70125 0.0
H610 H 0.39906 0.34193 0.87785 0.0
H611 H 0.29148 0.36512 0.78261 0.0
H612 H 0.27778 0.2507 0.73948 0.0
H613 H 0.27744 0.39244 0.76049 0.0
H614 H 0.39208 0.25565 0.86443 0.0
H615 H 0.24324 0.25564 0.67555 0.0
H616 H 0.23882 0.29647 0.66996 0.0
H617 H 0.38154 0.22276 0.82744 0.0
H618 H 0.24471 0.34047 0.68587 0.0
N619 N 0.27731 0.28726 0.73634 0.0
C620 C 0.27224 0.26224 0.72902 0.0
C621 C 0.25272 0.26466 0.69251 0.0
C622 C 0.25694 0.28996 0.70036 0.0
C623 C 0.26031 0.25074 0.70699 0.0
C624 C 0.26944 0.30085 0.72259 0.0
H625 H 0.25926 0.37643 0.71945 0.0
N626 N 0.28387 0.33493 0.7534 0.0
C627 C 0.27632 0.37377 0.75194 0.0
C628 C 0.27293 0.32556 0.73139 0.0
C629 C 0.28459 0.35841 0.76427 0.0
C630 C 0.26607 0.36466 0.72881 0.0
C631 C 0.26378 0.34014 0.71845 0.0
O632 O 0.27924 0.32098 0.8009 0.0
O633 O 0.32288 0.3053 0.79659 0.0
O634 O 0.32687 0.26325 0.78662 0.0
O635 O 0.29245 0.26951 0.77756 0.0
O636 O 0.3103 0.33514 0.80495 0.0
O637 O 0.26376 0.28784 0.77664 0.0
O638 O 0.3662 0.28336 0.75026 0.0
O639 O 0.32242 0.29953 0.75377 0.0
O640 O 0.31882 0.34174 0.76541 0.0
O641 O 0.35327 0.33567 0.7747 0.0
O642 O 0.33449 0.26932 0.7463 0.0
O643 O 0.38039 0.31786 0.77334 0.0
C644 C 0.32424 0.3243 0.81225 0.0
C645 C 0.24035 0.3101 0.79633 0.0
C646 C 0.20499 0.30866 0.81253 0.0
C647 C 0.22423 0.30016 0.81056 0.0
C648 C 0.203 0.32799 0.80128 0.0
C649 C 0.23669 0.32814 0.78427 0.0
C650 C 0.21857 0.33743 0.78717 0.0
C651 C 0.30503 0.25528 0.78311 0.0
C652 C 0.26155 0.30313 0.79522 0.0
C653 C 0.25186 0.32957 0.69606 0.0
C654 C 0.24847 0.30452 0.68702 0.0
C655 C 0.32124 0.28047 0.73816 0.0
C656 C 0.40484 0.29633 0.7561 0.0
C657 C 0.4186 0.30191 0.73842 0.0
C658 C 0.43884 0.29579 0.73845 0.0
C659 C 0.44497 0.28374 0.75593 0.0
C660 C 0.41169 0.28491 0.77375 0.0
C661 C 0.43148 0.27839 0.77347 0.0
C662 C 0.34064 0.34992 0.76935 0.0
C663 C 0.38327 0.30197 0.75566 0.0
H664 H 0.22649 0.28582 0.81968 0.0
H665 H 0.18909 0.33572 0.80314 0.0
H666 H 0.24788 0.3353 0.77263 0.0
H667 H 0.21649 0.35195 0.77826 0.0
H668 H 0.41365 0.31098 0.72481 0.0
H669 H 0.46039 0.27875 0.75616 0.0
H670 H 0.40185 0.28106 0.78782 0.0
H671 H 0.43647 0.26932 0.78703 0.0
Tb672 Tb 0.07403 0.08299 0.54565 0.0
C673 C 0.09409 1.00707 0.46997 0.0
C674 C 0.06082 0.99493 0.44271 0.0
C675 C 0.09513 0.99104 0.42824 0.0
C676 C 0.07197 1.00471 0.46575 0.0
C677 C 0.10584 0.99949 0.45145 0.0
C678 C 0.07264 0.98882 0.42387 0.0
C679 C 0.13703 1.00625 0.48063 0.0
N680 N 0.10374 1.01498 0.49263 0.0
C681 C 0.12465 1.01356 0.49836 0.0
C682 C 0.12771 0.99963 0.45699 0.0
Tb683 Tb 0.08248 0.02668 0.52068 0.0
N684 N 0.06112 1.01026 0.48456 0.0
C685 C 0.0386 1.00442 0.48157 0.0
C686 C 0.03803 0.99063 0.43946 0.0
C687 C 0.02686 0.99499 0.45906 0.0
H688 H 0.13207 0.0189 0.51659 0.0
H689 H 1.00916 0.99118 0.45688 0.0
H690 H 0.0644 0.98154 0.40602 0.0
H691 H 0.15376 1.00583 0.48521 0.0
H692 H 0.02926 1.00767 0.49611 0.0
H693 H 0.14515 0.11731 0.61216 0.0
H694 H 0.02887 0.98322 0.42206 0.0
H695 H 0.02416 0.09059 0.54697 0.0
H696 H 0.1261 0.09961 0.57252 0.0
H697 H 1.00156 0.10508 0.57666 0.0
H698 H 0.10392 0.9854 0.41371 0.0
H699 H 0.12453 0.12831 0.6454 0.0
H700 H 0.08877 0.13251 0.65925 0.0
H701 H 0.13729 0.99388 0.44329 0.0
H702 H 0.04958 0.12921 0.64963 0.0
N703 N 0.09398 0.09882 0.58252 0.0
C704 C 0.1164 0.10384 0.5865 0.0
C705 C 0.11583 0.1201 0.6279 0.0
C706 C 0.09317 0.11645 0.62358 0.0
C707 C 0.12751 0.11401 0.60919 0.0
C708 C 0.08261 0.10567 0.60044 0.0
H709 H 0.01697 0.11921 0.61884 0.0
N710 N 0.05163 0.09491 0.57229 0.0
C711 C 0.0181 0.10459 0.58215 0.0
C712 C 0.06065 0.1037 0.59511 0.0
C713 C 0.03093 0.09633 0.5654 0.0
C714 C 0.02683 0.11248 0.60594 0.0
C715 C 0.0485 0.11261 0.61262 0.0
O716 O 0.06157 0.10645 0.52779 0.0
O717 O 0.07278 0.05806 0.5118 0.0
O718 O 0.10822 0.05306 0.50819 0.0
O719 O 0.10724 0.08802 0.53476 0.0
O720 O 0.04645 0.07174 0.51709 0.0
O721 O 0.09391 0.11864 0.54701 0.0
O722 O 0.0967 1.00268 0.53573 0.0
O723 O 0.0839 0.05135 0.55485 0.0
O724 O 0.04728 0.05712 0.5573 0.0
O725 O 0.04968 0.02154 0.53258 0.0
O726 O 0.11036 0.03815 0.54869 0.0
O727 O 0.06235 0.99205 0.52194 0.0
C728 C 0.05452 0.05883 0.50127 0.0
C729 C 0.07586 0.14878 0.54032 0.0
C730 C 0.07979 0.18864 0.52996 0.0
C731 C 0.08378 0.16547 0.52603 0.0
C732 C 0.06758 0.19498 0.54839 0.0
C733 C 0.0639 0.15527 0.55887 0.0
C734 C 0.05968 0.17831 0.56277 0.0
C735 C 0.11685 0.0762 0.51869 0.0
C736 C 0.07915 0.12433 0.53395 0.0
C737 C 0.05865 0.12236 0.63591 0.0
C738 C 0.08096 0.12425 0.64139 0.0
C739 C 0.10232 0.05038 0.56508 0.0
C740 C 0.07953 0.96059 0.52504 0.0
C741 C 0.0709 0.94474 0.53965 0.0
C742 C 0.07297 0.92079 0.53581 0.0
C743 C 0.08316 0.91243 0.51629 0.0
C744 C 0.08982 0.95246 0.50561 0.0
C745 C 0.0915 0.92827 0.50121 0.0
C746 C 0.03928 0.0337 0.54745 0.0
C747 C 0.07838 0.9857 0.53215 0.0
H748 H 0.09319 0.16039 0.51183 0.0
H749 H 0.06407 0.21273 0.55157 0.0
H750 H 0.05774 0.14268 0.57017 0.0
H751 H 0.05024 0.18322 0.57691 0.0
H752 H 0.06263 0.95129 0.55435 0.0
H753 H 0.08494 0.8939 0.51293 0.0
H754 H 0.09659 0.96466 0.4941 0.0
H755 H 0.09949 0.92188 0.48629 0.0
Tb756 Tb 0.34696 0.82221 0.75694 0.0
C757 C 0.28767 0.74699 0.80048 0.0
C758 C 0.29411 0.70932 0.78018 0.0
C759 C 0.28268 0.7119 0.81972 0.0
C760 C 0.294 0.734 0.78107 0.0
C761 C 0.28109 0.73585 0.81968 0.0
C762 C 0.2892 0.69863 0.79996 0.0
C763 C 0.268 0.77093 0.83494 0.0
N764 N 0.28546 0.7696 0.7992 0.0
C765 C 0.27434 0.78086 0.8152 0.0
C766 C 0.27183 0.74853 0.83747 0.0
Tb767 Tb 0.2972 0.78534 0.76705 0.0
N768 N 0.29779 0.74477 0.76209 0.0
C769 C 0.29998 0.73097 0.74087 0.0
C770 C 0.29797 0.69577 0.75903 0.0
C771 C 0.3005 0.70654 0.73916 0.0
H772 H 0.27065 0.79776 0.81296 0.0
H773 H 0.30285 0.69604 0.72248 0.0
H774 H 0.28943 0.67979 0.79972 0.0
H775 H 0.2599 0.78038 0.84799 0.0
H776 H 0.30192 0.7387 0.72517 0.0
H777 H 0.34279 0.91252 0.80028 0.0
H778 H 0.29818 0.67678 0.75759 0.0
H779 H 0.36731 0.80458 0.7073 0.0
H780 H 0.34181 0.86947 0.79804 0.0
H781 H 0.37987 0.82193 0.67295 0.0
H782 H 0.27794 0.70309 0.83442 0.0
H783 H 0.35029 0.93174 0.7655 0.0
H784 H 0.36049 0.92813 0.72395 0.0
H785 H 0.26655 0.74064 0.85253 0.0
H786 H 0.37075 0.90353 0.68926 0.0
N787 N 0.34788 0.8631 0.76167 0.0
C788 C 0.34504 0.87711 0.78246 0.0
C789 C 0.34974 0.91255 0.76426 0.0
C790 C 0.35391 0.89864 0.7435 0.0
C791 C 0.34558 0.9018 0.78393 0.0
C792 C 0.35293 0.87371 0.7428 0.0
H793 H 0.37846 0.86405 0.67029 0.0
N794 N 0.35836 0.83637 0.72393 0.0
C795 C 0.37378 0.83277 0.68692 0.0
C796 C 0.35852 0.85991 0.72329 0.0
C797 C 0.36661 0.82299 0.70648 0.0
C798 C 0.37289 0.85652 0.68545 0.0
C799 C 0.3655 0.87055 0.70393 0.0
O800 O 0.37747 0.81422 0.75572 0.0
O801 O 0.33209 0.78629 0.76597 0.0
O802 O 0.31587 0.79611 0.80184 0.0
O803 O 0.34286 0.82875 0.79454 0.0
O804 O 0.35152 0.78663 0.73954 0.0
O805 O 0.37323 0.84368 0.78223 0.0
O806 O 0.26642 0.79295 0.76644 0.0
O807 O 0.31233 0.82126 0.75892 0.0
O808 O 0.32581 0.81602 0.7239 0.0
O809 O 0.30242 0.78038 0.72967 0.0
O810 O 0.29125 0.82061 0.78363 0.0
O811 O 0.27164 0.76298 0.74159 0.0
C812 C 0.34121 0.7723 0.75226 0.0
C813 C 0.40895 0.84576 0.77145 0.0
C814 C 0.4479 0.85586 0.78508 0.0
C815 C 0.42605 0.84477 0.78757 0.0
C816 C 0.45235 0.86832 0.76626 0.0
C817 C 0.41356 0.85834 0.75286 0.0
C818 C 0.43523 0.86961 0.75034 0.0
C819 C 0.33214 0.81601 0.80898 0.0
C820 C 0.38682 0.8317 0.77361 0.0
C821 C 0.36563 0.89506 0.70406 0.0
C822 C 0.35979 0.90907 0.7238 0.0
C823 C 0.30284 0.83529 0.77199 0.0
C824 C 0.23598 0.75989 0.75203 0.0
C825 C 0.21784 0.76342 0.73942 0.0
C826 C 0.19665 0.75052 0.7421 0.0
C827 C 0.19376 0.73402 0.75773 0.0
C828 C 0.23305 0.74324 0.7674 0.0
C829 C 0.21193 0.73043 0.77031 0.0
C830 C 0.30989 0.79596 0.71598 0.0
C831 C 0.25756 0.77463 0.74921 0.0
H832 H 0.42229 0.83512 0.80198 0.0
H833 H 0.46906 0.87669 0.76358 0.0
H834 H 0.40059 0.85918 0.74018 0.0
H835 H 0.4388 0.87908 0.73582 0.0
H836 H 0.22026 0.77621 0.72742 0.0
H837 H 0.17748 0.72418 0.76046 0.0
H838 H 0.24691 0.74014 0.77711 0.0
H839 H 0.20964 0.71778 0.78237 0.0
Tb840 Tb 0.5793 0.05019 0.06558 0.0
C841 C 0.51413 0.06247 0.98951 0.0
C842 C 0.49844 0.02143 0.9665 0.0
C843 C 0.47706 0.05128 0.96897 0.0
C844 C 0.51615 0.03905 0.98105 0.0
C845 C 0.49476 0.06896 0.98286 0.0
C846 C 0.47887 0.02757 0.96086 0.0
C847 C 0.51254 0.11077 1.00151 0.0
N848 N 0.53139 0.07921 1.00321 0.0
C849 C 0.5313 0.10356 1.00763 0.0
C850 C 0.49399 0.09329 0.98953 0.0
Tb851 Tb 0.5624 0.06586 1.00943 0.0
N852 N 0.53531 0.03352 0.98696 0.0
C853 C 0.53741 1.01037 0.97862 0.0
C854 C 0.50078 0.99804 0.95802 0.0
C855 C 0.52032 0.99251 0.96412 0.0
H856 H 0.54552 0.11758 0.01682 0.0
H857 H 0.52219 0.97431 0.95788 0.0
H858 H 0.4651 1.01416 0.94996 0.0
H859 H 0.51247 0.12985 1.00597 0.0
H860 H 0.55173 1.00464 0.98321 0.0
H861 H 0.62802 0.14145 0.10964 0.0
H862 H 0.48754 0.98405 0.94692 0.0
H863 H 0.59078 0.99577 0.06053 0.0
H864 H 0.59691 0.11244 0.08485 0.0
H865 H 0.62125 0.97957 0.07232 0.0
H866 H 0.46202 0.0559 0.96398 0.0
H867 H 0.6595 0.12773 0.12424 0.0
H868 H 0.67732 0.09375 0.12569 0.0
H869 H 0.47946 0.09894 0.98469 0.0
H870 H 0.67595 0.05009 0.11461 0.0
N871 N 0.60886 0.08077 0.08632 0.0
C872 C 0.60957 0.10523 0.09179 0.0
C873 C 0.64545 0.11446 0.11366 0.0
C874 C 0.64511 0.08976 0.1076 0.0
C875 C 0.62767 0.12223 0.10558 0.0
C876 C 0.62644 0.07317 0.09368 0.0
H877 H 0.65543 1.00763 0.09443 0.0
N878 N 0.60799 0.03338 0.07314 0.0
C879 C 0.62304 0.99914 0.07616 0.0
C880 C 0.626 0.04875 0.08683 0.0
C881 C 0.60588 1.00856 0.06909 0.0
C882 C 0.64221 1.015 0.08871 0.0
C883 C 0.64375 0.04005 0.09459 0.0
O884 O 0.56457 1.01714 0.0762 0.0
O885 O 0.55644 0.04091 0.03331 0.0
O886 O 0.54908 0.08501 0.03912 0.0
O887 O 0.56587 0.08111 0.07529 0.0
O888 O 0.54395 0.03714 0.0649 0.0
O889 O 0.57448 0.05281 0.10136 0.0
O890 O 0.57428 0.10047 1.00125 0.0
O891 O 0.58541 0.07495 0.04145 0.0
O892 O 0.58968 0.02779 0.03611 0.0
O893 O 0.57948 0.03776 0.99959 0.0
O894 O 0.59763 0.07882 1.00964 0.0
O895 O 0.56393 0.06753 0.9735 0.0
C896 C 0.53914 0.03422 0.04256 0.0
C897 C 0.55698 1.01744 0.11696 0.0
C898 C 0.53358 1.01666 0.14847 0.0
C899 C 0.54542 0.02923 0.13281 0.0
C900 C 0.53397 0.99239 0.14882 0.0
C901 C 0.55741 0.99322 0.11738 0.0
C902 C 0.54609 0.98083 0.13347 0.0
C903 C 0.55307 0.09034 0.06259 0.0
C904 C 0.56542 0.02916 0.09779 0.0
C905 C 0.66221 0.05646 0.10853 0.0
C906 C 0.66293 0.08127 0.11494 0.0
C907 C 0.60266 0.08121 0.03193 0.0
C908 C 0.58996 0.10219 0.96547 0.0
C909 C 0.60135 0.08792 0.95155 0.0
C910 C 0.6174 0.09902 0.93835 0.0
C911 C 0.62194 0.12442 0.93925 0.0
C912 C 0.5947 0.12749 0.96606 0.0
C913 C 0.61065 0.13852 0.95305 0.0
C914 C 0.58876 0.02537 0.01272 0.0
C915 C 0.57219 0.09137 0.97853 0.0
H916 H 0.54459 0.04775 0.13208 0.0
H917 H 0.52503 0.9825 0.16103 0.0
H918 H 0.56606 0.98376 0.10494 0.0
H919 H 0.54635 0.96211 0.13374 0.0
H920 H 0.59768 0.06833 0.95082 0.0
H921 H 0.63383 0.13329 0.92874 0.0
H922 H 0.58583 0.13868 0.97641 0.0
H923 H 0.61403 0.158 0.95339 0.0
Tb924 Tb 0.33022 0.32578 0.28173 0.0
C925 C 0.24951 0.24838 0.22938 0.0
C926 C 0.22414 0.24793 0.25908 0.0
C927 C 0.21021 0.23297 0.21741 0.0
C928 C 0.24574 0.25359 0.25289 0.0
C929 C 0.23178 0.23748 0.21144 0.0
C930 C 0.20641 0.23817 0.24118 0.0
C931 C 0.25797 0.23257 0.18365 0.0
N932 N 0.27057 0.25165 0.22442 0.0
C933 C 0.27496 0.24272 0.20216 0.0
C934 C 0.23627 0.23015 0.18826 0.0
Tb935 Tb 0.29687 0.26559 0.2564 0.0
N936 N 0.2633 0.26177 0.26983 0.0
C937 C 0.26033 0.26313 0.29326 0.0
C938 C 0.22106 0.25091 0.28311 0.0
C939 C 0.23925 0.25828 0.30026 0.0
H940 H 0.29163 0.24356 0.19865 0.0
H941 H 0.23708 0.25999 0.31889 0.0
H942 H 0.18973 0.2337 0.24561 0.0
H943 H 0.26159 0.2261 0.16596 0.0
H944 H 0.27407 0.26834 0.30679 0.0
H945 H 0.37485 0.35757 0.20965 0.0
H946 H 0.20475 0.24672 0.28859 0.0
H947 H 0.35122 0.32303 0.33674 0.0
H948 H 0.34343 0.34841 0.2304 0.0
H949 H 0.38617 0.32646 0.35772 0.0
H950 H 0.1964 0.22459 0.20388 0.0
H951 H 0.41121 0.35787 0.22782 0.0
H952 H 0.43434 0.35474 0.26292 0.0
H953 H 0.2231 0.22169 0.174 0.0
H954 H 0.43749 0.34669 0.30319 0.0
N955 N 0.35937 0.33741 0.25953 0.0
C956 C 0.35807 0.34555 0.23845 0.0
C957 C 0.39692 0.35229 0.23688 0.0
C958 C 0.39887 0.34653 0.25927 0.0
C959 C 0.37645 0.35199 0.22654 0.0
C960 C 0.37965 0.33884 0.27023 0.0
H961 H 0.41981 0.33596 0.33831 0.0
N962 N 0.36281 0.32569 0.30267 0.0
C963 C 0.38511 0.32759 0.33914 0.0
C964 C 0.38143 0.33322 0.29254 0.0
C965 C 0.3648 0.32459 0.3264 0.0
C966 C 0.40402 0.33318 0.32822 0.0
C967 C 0.40244 0.33656 0.30487 0.0
O968 O 0.32748 0.34545 0.31519 0.0
O969 O 0.29829 0.30039 0.27897 0.0
O970 O 0.29359 0.28705 0.22876 0.0
O971 O 0.31634 0.32643 0.24557 0.0
O972 O 0.29975 0.33524 0.27361 0.0
O973 O 0.3434 0.36379 0.28904 0.0
O974 O 0.31416 0.23861 0.25173 0.0
O975 O 0.32968 0.28932 0.26558 0.0
O976 O 0.32178 0.30529 0.31004 0.0
O977 O 0.309 0.26428 0.2925 0.0
O978 O 0.32096 0.26847 0.23126 0.0
O979 O 0.28088 0.22967 0.25979 0.0
C980 C 0.28656 0.31458 0.27515 0.0
C981 C 0.32773 0.38638 0.31755 0.0
C982 C 0.30742 0.41407 0.30735 0.0
C983 C 0.31517 0.3936 0.30079 0.0
C984 C 0.31168 0.42725 0.3308 0.0
C985 C 0.33188 0.39922 0.34115 0.0
C986 C 0.32376 0.41963 0.34777 0.0
C987 C 0.30336 0.31011 0.22769 0.0
C988 C 0.33746 0.3663 0.31034 0.0
C989 C 0.42135 0.34409 0.29395 0.0
C990 C 0.41956 0.34879 0.2711 0.0
C991 C 0.33654 0.28408 0.2458 0.0
C992 C 0.2949 0.19732 0.2411 0.0
C993 C 0.30979 0.18486 0.24754 0.0
C994 C 0.30931 0.16175 0.23485 0.0
C995 C 0.29297 0.15031 0.21584 0.0
C996 C 0.27863 0.18633 0.22188 0.0
C997 C 0.27767 0.16273 0.20933 0.0
C998 C 0.31708 0.28185 0.31117 0.0
C999 C 0.29786 0.22166 0.25543 0.0
H1000 H 0.31201 0.38387 0.28247 0.0
H1001 H 0.30574 0.44335 0.33586 0.0
H1002 H 0.34162 0.39367 0.35429 0.0
H1003 H 0.32708 0.4297 0.36591 0.0
H1004 H 0.32215 0.19341 0.26268 0.0
H1005 H 0.29224 0.13219 0.20602 0.0
H1006 H 0.26682 0.19577 0.2167 0.0
H1007 H 0.26514 0.15411 0.19451 0.0
Tb1008 Tb 0.57537 0.57813 0.04958 0.0
C1009 C 0.59617 0.5004 0.97499 0.0
C1010 C 0.5634 0.48696 0.94685 0.0
C1011 C 0.59787 0.48109 0.93433 0.0
C1012 C 0.57411 0.49811 0.96985 0.0
C1013 C 0.60823 0.49139 0.95746 0.0
C1014 C 0.57549 0.47891 0.92903 0.0
C1015 C 0.63911 0.50064 0.98757 0.0
N1016 N 0.60546 0.50985 0.99764 0.0
C1017 C 0.62637 0.50902 1.00437 0.0
C1018 C 0.63009 0.49206 0.96393 0.0
Tb1019 Tb 0.58314 0.52175 0.02436 0.0
N1020 N 0.5629 0.50552 0.98772 0.0
C1021 C 0.5405 0.50087 0.98381 0.0
C1022 C 0.54076 0.48347 0.94262 0.0
C1023 C 0.52924 0.49025 0.96125 0.0
H1024 H 0.63341 0.51531 0.02268 0.0
H1025 H 0.51164 0.48723 0.95831 0.0
H1026 H 0.56756 0.47038 0.91127 0.0
H1027 H 0.65581 0.50063 0.99292 0.0
H1028 H 0.53094 0.50576 0.99768 0.0
H1029 H 0.64878 0.61086 0.11327 0.0
H1030 H 0.53195 0.47502 0.92521 0.0
H1031 H 0.5264 0.58757 0.05373 0.0
H1032 H 0.62833 0.59403 0.07424 0.0
H1033 H 0.50505 0.60166 0.08504 0.0
H1034 H 0.60688 0.47415 0.9206 0.0
H1035 H 0.62961 0.62147 0.1479 0.0
H1036 H 0.59464 0.62575 0.1638 0.0
H1037 H 0.63989 0.48529 0.951 0.0
H1038 H 0.55537 0.62318 0.15617 0.0
N1039 N 0.59677 0.59359 0.0858 0.0
C1040 C 0.61922 0.59826 0.08875 0.0
C1041 C 0.62028 0.61374 0.13062 0.0
C1042 C 0.59761 0.61045 0.12741 0.0
C1043 C 0.63115 0.60789 0.11113 0.0
C1044 C 0.58622 0.60027 0.10452 0.0
H1045 H 0.52186 0.61443 0.12682 0.0
N1046 N 0.55442 0.59053 0.07773 0.0
C1047 C 0.52162 0.60068 0.08965 0.0
C1048 C 0.56423 0.59869 0.10032 0.0
C1049 C 0.53371 0.5926 0.07199 0.0
C1050 C 0.53114 0.60782 0.1132 0.0
C1051 C 0.55287 0.60743 0.11873 0.0
O1052 O 0.56203 0.60223 0.03358 0.0
O1053 O 0.57377 0.55343 0.01542 0.0
O1054 O 0.60917 0.5477 0.01164 0.0
O1055 O 0.60805 0.58307 0.03751 0.0
O1056 O 0.54783 0.56764 0.02119 0.0
O1057 O 0.59563 0.61318 0.04948 0.0
O1058 O 0.59611 0.49798 0.04112 0.0
O1059 O 0.58454 0.54614 0.05884 0.0
O1060 O 0.54779 0.55235 0.06005 0.0
O1061 O 0.54989 0.5166 0.03535 0.0
O1062 O 0.61097 0.53298 0.05235 0.0
O1063 O 0.56309 0.48627 0.02317 0.0
C1064 C 0.55563 0.55484 1.005 0.0
C1065 C 0.57834 0.64437 0.0448 0.0
C1066 C 0.58308 0.68409 0.03423 0.0
C1067 C 0.58527 0.66023 0.02945 0.0
C1068 C 0.57379 0.69221 0.05449 0.0
C1069 C 0.56897 0.65234 0.06507 0.0
C1070 C 0.56665 0.67626 0.06982 0.0
C1071 C 0.6177 0.57099 0.02173 0.0
C1072 C 0.5802 0.61942 0.03801 0.0
C1073 C 0.56384 0.61652 0.14177 0.0
C1074 C 0.58619 0.61799 0.14611 0.0
C1075 C 0.60298 0.54499 0.06895 0.0
C1076 C 0.58114 0.4558 0.02851 0.0
C1077 C 0.57285 0.43939 0.04279 0.0
C1078 C 0.57764 0.41675 0.04006 0.0
C1079 C 0.59061 0.41024 0.02252 0.0
C1080 C 0.59374 0.44925 1.0106 0.0
C1081 C 0.5984 0.42641 1.0076 0.0
C1082 C 0.53945 0.52907 0.04989 0.0
C1083 C 0.57832 0.48032 0.03529 0.0
H1084 H 0.59243 0.654 0.0137 0.0
H1085 H 0.57199 0.71072 0.0583 0.0
H1086 H 0.56341 0.64021 0.07705 0.0
H1087 H 0.55932 0.68244 0.08536 0.0
H1088 H 0.56347 0.44474 0.05694 0.0
H1089 H 0.59459 0.39275 0.02036 0.0
H1090 H 0.60028 0.46174 0.99933 0.0
H1091 H 0.60835 0.4214 0.99401 0.0
Tb1092 Tb 0.84814 0.32039 0.2666 0.0
C1093 C 0.78943 0.24528 0.31017 0.0
C1094 C 0.79204 0.20638 0.28811 0.0
C1095 C 0.78285 0.20956 0.32859 0.0
C1096 C 0.79354 0.23154 0.28967 0.0
C1097 C 0.78349 0.23434 0.32967 0.0
C1098 C 0.78715 0.19561 0.30784 0.0
C1099 C 0.77653 0.27226 0.34859 0.0
N1100 N 0.78955 0.26896 0.31027 0.0
C1101 C 0.78219 0.28214 0.32867 0.0
C1102 C 0.77744 0.24834 0.34924 0.0
Tb1103 Tb 0.79859 0.28336 0.27664 0.0
N1104 N 0.79748 0.24241 0.27075 0.0
C1105 C 0.79893 0.22862 0.24925 0.0
C1106 C 0.79466 0.19258 0.2665 0.0
C1107 C 0.79786 0.20371 0.24692 0.0
H1108 H 0.78084 0.30038 0.32805 0.0
H1109 H 0.79947 0.19311 0.22997 0.0
H1110 H 0.78601 0.17634 0.307 0.0
H1111 H 0.77119 0.28298 0.3633 0.0
H1112 H 0.80132 0.23665 0.23377 0.0
H1113 H 0.84503 0.41071 0.31119 0.0
H1114 H 0.79364 0.17322 0.26457 0.0
H1115 H 0.8705 0.30356 0.21831 0.0
H1116 H 0.84058 0.36692 0.30712 0.0
H1117 H 0.88629 0.32182 0.18586 0.0
H1118 H 0.77842 0.20084 0.34342 0.0
H1119 H 0.85763 0.43167 0.27876 0.0
H1120 H 0.87096 0.42928 0.23871 0.0
H1121 H 0.77273 0.24059 0.36455 0.0
H1122 H 0.88177 0.40497 0.20426 0.0
N1123 N 0.84971 0.36157 0.27178 0.0
C1124 C 0.84582 0.37511 0.29236 0.0
C1125 C 0.85539 0.41206 0.27658 0.0
C1126 C 0.86006 0.39848 0.25592 0.0
C1127 C 0.84836 0.40032 0.29493 0.0
C1128 C 0.85699 0.37298 0.25403 0.0
H1129 H 0.88765 0.36493 0.18445 0.0
N1130 N 0.86154 0.33546 0.23472 0.0
C1131 C 0.87964 0.33257 0.19938 0.0
C1132 C 0.8629 0.35937 0.23466 0.0
C1133 C 0.87057 0.32226 0.21789 0.0
C1134 C 0.88028 0.35685 0.19859 0.0
C1135 C 0.87232 0.37076 0.21664 0.0
O1136 O 0.87866 0.31207 0.26718 0.0
O1137 O 0.83299 0.28407 0.2743 0.0
O1138 O 0.82042 0.29014 0.30914 0.0
O1139 O 0.84162 0.32678 0.30353 0.0
O1140 O 0.85294 0.28506 0.24854 0.0
O1141 O 0.87328 0.34058 0.29369 0.0
O1142 O 0.76753 0.28925 0.28024 0.0
O1143 O 0.81312 0.31931 0.26759 0.0
O1144 O 0.82834 0.31266 0.23243 0.0
O1145 O 0.80266 0.27868 0.2391 0.0
O1146 O 0.79266 0.31854 0.29276 0.0
O1147 O 0.77225 0.26211 0.25147 0.0
C1148 C 0.84174 0.27018 0.26016 0.0
C1149 C 0.90947 0.34388 0.28444 0.0
C1150 C 0.9485 0.35392 0.29736 0.0
C1151 C 0.92699 0.34046 0.29836 0.0
C1152 C 0.95236 0.37069 0.28206 0.0
C1153 C 0.91353 0.36074 0.26934 0.0
C1154 C 0.93491 0.374 0.26809 0.0
C1155 C 0.83436 0.31148 0.31742 0.0
C1156 C 0.88734 0.32906 0.28564 0.0
C1157 C 0.8746 0.3959 0.21793 0.0
C1158 C 0.8685 0.40975 0.23756 0.0
C1159 C 0.80326 0.33317 0.28045 0.0
C1160 C 0.73731 0.25589 0.26484 0.0
C1161 C 0.71922 0.25441 0.24894 0.0
C1162 C 0.69812 0.24202 0.25265 0.0
C1163 C 0.69552 0.22999 0.27198 0.0
C1164 C 0.73455 0.24388 0.28404 0.0
C1165 C 0.71372 0.23075 0.28742 0.0
C1166 C 0.81201 0.2928 0.22488 0.0
C1167 C 0.75823 0.27213 0.26199 0.0
H1168 H 0.92385 0.32747 0.31012 0.0
H1169 H 0.96888 0.38101 0.28075 0.0
H1170 H 0.90034 0.3637 0.25855 0.0
H1171 H 0.93795 0.38686 0.25626 0.0
H1172 H 0.72157 0.26372 0.23411 0.0
H1173 H 0.67941 0.22077 0.27572 0.0
H1174 H 0.74821 0.24502 0.29668 0.0
H1175 H 0.7116 0.22178 0.30245 0.0
Tb1176 Tb 0.08389 0.55891 0.57934 0.0
C1177 C 0.02507 0.58428 0.50272 0.0
C1178 C 0.99628 0.54763 0.48555 0.0
C1179 C 0.99022 0.5876 0.48488 0.0
C1180 C 0.01742 0.55902 0.49777 0.0
C1181 C 0.01168 0.59882 0.49582 0.0
C1182 C 0.98254 0.56205 0.47974 0.0
C1183 C 0.04236 0.63435 0.50861 0.0
N1184 N 0.0461 0.59453 0.51291 0.0
C1185 C 0.05511 0.61924 0.5149 0.0
C1186 C 0.02048 0.62416 0.4993 0.0
Tb1187 Tb 0.06573 0.56745 0.52113 0.0
N1188 N 0.03126 0.54559 0.50329 0.0
C1189 C 0.02537 0.52067 0.49529 0.0
C1190 C 0.98989 0.52213 0.47854 0.0
C1191 C 1.00467 0.50866 0.48303 0.0
H1192 H 0.07201 0.62768 0.52179 0.0
H1193 H 1.00013 0.48895 0.47712 0.0
H1194 H 0.96621 0.5536 0.47057 0.0
H1195 H 0.04949 0.65388 0.51078 0.0
H1196 H 0.03641 0.50966 0.49816 0.0
H1197 H 0.12529 0.65527 0.61798 0.0
H1198 H 0.97385 0.51274 0.46906 0.0
H1199 H 0.10293 0.50859 0.57528 0.0
H1200 H 0.09564 0.62272 0.59588 0.0
H1201 H 0.13647 0.49846 0.58807 0.0
H1202 H 0.97968 0.5985 0.47963 0.0
H1203 H 0.15944 0.64695 0.63299 0.0
H1204 H 0.1814 0.61712 0.63623 0.0
H1205 H 1.01073 0.63592 0.49421 0.0
H1206 H 0.18475 0.57495 0.62751 0.0
N1207 N 0.11099 0.59355 0.59889 0.0
C1208 C 0.10951 0.61742 0.60275 0.0
C1209 C 0.14607 0.63192 0.62349 0.0
C1210 C 0.14808 0.60798 0.61904 0.0
C1211 C 0.12679 0.63665 0.61514 0.0
C1212 C 0.13019 0.58895 0.60648 0.0
H1213 H 0.16835 0.53096 0.60947 0.0
N1214 N 0.11541 0.54734 0.58827 0.0
C1215 C 0.13567 0.51734 0.5917 0.0
C1216 C 0.13239 0.56521 0.60109 0.0
C1217 C 0.1166 0.52336 0.58445 0.0
C1218 C 0.15356 0.5357 0.60379 0.0
C1219 C 0.15205 0.55989 0.60881 0.0
O1220 O 0.07235 0.52404 0.58714 0.0
O1221 O 0.05927 0.54656 0.54869 0.0
O1222 O 0.05183 0.59015 0.54693 0.0
O1223 O 0.06789 0.58906 0.58498 0.0
O1224 O 0.04867 0.5506 0.58198 0.0
O1225 O 0.08293 0.55665 0.61521 0.0
O1226 O 0.09278 0.57482 0.50156 0.0
O1227 O 0.09216 0.5735 0.54877 0.0
O1228 O 0.09686 0.53785 0.5507 0.0
O1229 O 0.0697 0.53058 0.52007 0.0
O1230 O 0.09243 0.60144 0.53178 0.0
O1231 O 0.06132 0.554 0.48428 0.0
C1232 C 0.0426 0.54373 0.55962 0.0
C1233 C 0.05705 0.5218 0.62301 0.0
C1234 C 0.02753 0.52397 0.64764 0.0
C1235 C 0.04353 0.53517 0.63436 0.0
C1236 C 0.02526 0.49931 0.64924 0.0
C1237 C 0.05438 0.49724 0.62476 0.0
C1238 C 0.03853 0.48606 0.63777 0.0
C1239 C 0.05566 0.59757 0.57036 0.0
C1240 C 0.07468 0.53282 0.60992 0.0
C1241 C 0.16958 0.57874 0.62151 0.0
C1242 C 0.16763 0.60272 0.62654 0.0
C1243 C 0.1031 0.59475 0.54812 0.0
C1244 C 0.08359 0.58005 0.4634 0.0
C1245 C 0.1021 0.58166 0.45149 0.0
C1246 C 0.10543 0.59566 0.4339 0.0
C1247 C 0.0904 0.60895 0.42883 0.0
C1248 C 0.06833 0.59295 0.45803 0.0
C1249 C 0.07188 0.60756 0.44093 0.0
C1250 C 0.08743 0.52607 0.5294 0.0
C1251 C 0.08107 0.56497 0.48146 0.0
H1252 H 0.04553 0.55415 0.63297 0.0
H1253 H 0.0136 0.49036 0.6599 0.0
H1254 H 0.06479 0.48676 0.61622 0.0
H1255 H 0.03676 0.46717 0.63927 0.0
H1256 H 0.11386 0.57168 0.45576 0.0
H1257 H 0.0926 0.61971 0.41508 0.0
H1258 H 0.05369 0.59167 0.46683 0.0
H1259 H 0.0601 0.61748 0.43678 0.0
Tb1260 Tb 0.79168 0.80878 0.27852 0.0
C1261 C 0.86715 0.77731 0.32216 0.0
C1262 C 0.88237 0.81132 0.35489 0.0
C1263 C 0.88573 0.7707 0.3578 0.0
C1264 C 0.87075 0.80173 0.33205 0.0
C1265 C 0.87542 0.76168 0.33447 0.0
C1266 C 0.88914 0.79551 0.36803 0.0
C1267 C 0.866 0.73076 0.29851 0.0
N1268 N 0.85763 0.76952 0.29944 0.0
C1269 C 0.85811 0.74702 0.28706 0.0
C1270 C 0.87423 0.73792 0.32249 0.0
Tb1271 Tb 0.84513 0.79729 0.28194 0.0
N1272 N 0.86448 0.81644 0.31848 0.0
C1273 C 0.87114 0.84139 0.32613 0.0
C1274 C 0.88773 0.83662 0.36337 0.0
C1275 C 0.88247 0.85175 0.34871 0.0
H1276 H 0.85163 0.74132 0.26853 0.0
H1277 H 0.88705 0.87143 0.35482 0.0
H1278 H 0.89784 0.80247 0.38571 0.0
H1279 H 0.86567 0.71272 0.28884 0.0
H1280 H 0.86723 0.85369 0.31547 0.0
H1281 H 0.74943 0.7324 0.20757 0.0
H1282 H 0.89659 0.84471 0.38082 0.0
H1283 H 0.78508 0.86489 0.28905 0.0
H1284 H 0.76929 0.75144 0.24646 0.0
H1285 H 0.77258 0.89288 0.2666 0.0
H1286 H 0.89193 0.7589 0.36769 0.0
H1287 H 0.74056 0.75788 0.17992 0.0
H1288 H 0.74032 0.79965 0.17279 0.0
H1289 H 0.88047 0.72537 0.33129 0.0
H1290 H 0.74686 0.84375 0.18885 0.0
N1291 N 0.77255 0.78841 0.24199 0.0
C1292 C 0.76572 0.76334 0.23522 0.0
C1293 C 0.74946 0.7666 0.19723 0.0
C1294 C 0.75528 0.79206 0.2046 0.0
C1295 C 0.75432 0.75218 0.21282 0.0
C1296 C 0.76678 0.80247 0.2274 0.0
H1297 H 0.75852 0.87865 0.22403 0.0
N1298 N 0.77951 0.83561 0.25912 0.0
C1299 C 0.77208 0.87448 0.25777 0.0
C1300 C 0.77053 0.82709 0.23628 0.0
C1301 C 0.77909 0.85856 0.27042 0.0
C1302 C 0.76427 0.86642 0.23373 0.0
C1303 C 0.76279 0.84223 0.22286 0.0
O1304 O 0.77397 0.8231 0.30476 0.0
O1305 O 0.81915 0.80605 0.30155 0.0
O1306 O 0.82339 0.7642 0.29136 0.0
O1307 O 0.78876 0.76998 0.28258 0.0
O1308 O 0.80626 0.83552 0.31051 0.0
O1309 O 0.76172 0.78651 0.28537 0.0
O1310 O 0.862 0.78366 0.25452 0.0
O1311 O 0.81782 0.80051 0.25912 0.0
O1312 O 0.81423 0.84275 0.27135 0.0
O1313 O 0.84896 0.83623 0.27794 0.0
O1314 O 0.82999 0.77074 0.24974 0.0
O1315 O 0.87568 0.81915 0.27631 0.0
C1316 C 0.82048 0.82488 0.31738 0.0
C1317 C 0.73543 0.8071 0.2994 0.0
C1318 C 0.70078 0.80815 0.31599 0.0
C1319 C 0.72163 0.8032 0.31754 0.0
C1320 C 0.69404 0.81673 0.29608 0.0
C1321 C 0.72789 0.81522 0.27964 0.0
C1322 C 0.70741 0.82007 0.27807 0.0
C1323 C 0.80159 0.75596 0.28803 0.0
C1324 C 0.75784 0.80347 0.3013 0.0
C1325 C 0.7527 0.83237 0.19956 0.0
C1326 C 0.74895 0.80727 0.19042 0.0
C1327 C 0.81617 0.78193 0.24295 0.0
C1328 C 0.90063 0.79816 0.25956 0.0
C1329 C 0.9142 0.80443 0.24193 0.0
C1330 C 0.93518 0.80013 0.24245 0.0
C1331 C 0.9422 0.78903 0.26029 0.0
C1332 C 0.90823 0.7875 0.27743 0.0
C1333 C 0.92876 0.7827 0.27761 0.0
C1334 C 0.83607 0.85056 0.27363 0.0
C1335 C 0.87868 0.8028 0.25909 0.0
H1336 H 0.72722 0.79686 0.33289 0.0
H1337 H 0.67817 0.82059 0.29432 0.0
H1338 H 0.73783 0.81788 0.26539 0.0
H1339 H 0.70187 0.8265 0.26278 0.0
H1340 H 0.90862 0.8129 0.22813 0.0
H1341 H 0.9582 0.7854 0.26087 0.0
H1342 H 0.89845 0.783 0.29137 0.0
H1343 H 0.93437 0.77426 0.29137 0.0
Tb1344 Tb 0.83844 0.30872 0.76004 0.0
C1345 C 0.81337 0.38047 0.83691 0.0
C1346 C 0.84751 0.40071 0.86177 0.0
C1347 C 0.81844 0.42122 0.86115 0.0
C1348 C 0.834 0.37996 0.84573 0.0
C1349 C 0.80526 0.40103 0.84485 0.0
C1350 C 0.83957 0.42114 0.86947 0.0
C1351 C 0.77088 0.37976 0.82159 0.0
N1352 N 0.80101 0.36072 0.82101 0.0
C1353 C 0.77948 0.35989 0.81439 0.0
C1354 C 0.78389 0.40056 0.83672 0.0
Tb1355 Tb 0.81484 0.32664 0.81352 0.0
N1356 N 0.84113 0.35969 0.83809 0.0
C1357 C 0.86256 0.36043 0.8453 0.0
C1358 C 0.86879 0.40067 0.86946 0.0
C1359 C 0.8764 0.38057 0.86092 0.0
H1360 H 0.76812 0.34359 0.80425 0.0
H1361 H 0.8932 0.38069 0.86604 0.0
H1362 H 0.84969 0.437 0.88187 0.0
H1363 H 0.75396 0.37869 0.81594 0.0
H1364 H 0.87037 0.34668 0.83841 0.0
H1365 H 0.7672 0.24252 0.70882 0.0
H1366 H 0.87964 0.41629 0.88152 0.0
H1367 H 0.89038 0.30769 0.76618 0.0
H1368 H 0.78701 0.2812 0.73454 0.0
H1369 H 0.91251 0.27842 0.75533 0.0
H1370 H 0.81241 0.43701 0.86745 0.0
H1371 H 0.7859 0.20991 0.69757 0.0
H1372 H 0.82051 0.19614 0.69944 0.0
H1373 H 0.77708 0.41585 0.84259 0.0
H1374 H 0.86003 0.2057 0.71254 0.0
N1375 N 0.8175 0.27172 0.73814 0.0
C1376 C 0.7959 0.26776 0.7297 0.0
C1377 C 0.7949 0.22713 0.70887 0.0
C1378 C 0.81704 0.23134 0.71705 0.0
C1379 C 0.78434 0.24551 0.7151 0.0
C1380 C 0.82799 0.25412 0.73169 0.0
H1381 H 0.89449 0.23633 0.73341 0.0
N1382 N 0.85985 0.28186 0.75232 0.0
C1383 C 0.89489 0.27268 0.75091 0.0
C1384 C 0.84997 0.25933 0.73922 0.0
C1385 C 0.88227 0.28915 0.75716 0.0
C1386 C 0.88466 0.24896 0.73855 0.0
C1387 C 0.86198 0.24216 0.73212 0.0
O1388 O 0.86332 0.3315 0.74578 0.0
O1389 O 0.83338 0.33828 0.78616 0.0
O1390 O 0.79339 0.32937 0.78243 0.0
O1391 O 0.80977 0.32083 0.74815 0.0
O1392 O 0.86506 0.33847 0.77917 0.0
O1393 O 0.83228 0.31325 0.725 0.0
O1394 O 0.78169 0.31054 0.81535 0.0
O1395 O 0.81363 0.29917 0.78256 0.0
O1396 O 0.8565 0.29805 0.78929 0.0
O1397 O 0.84342 0.31302 0.82493 0.0
O1398 O 0.8119 0.28847 0.81522 0.0
O1399 O 0.80453 0.32519 0.84726 0.0
C1400 C 0.85304 0.35051 0.79041 0.0
C1401 C 0.86284 0.32499 0.70452 0.0
C1402 C 0.87254 0.34008 0.66903 0.0
C1403 C 0.86191 0.34121 0.68944 0.0
C1404 C 0.88439 0.32251 0.66376 0.0
C1405 C 0.87472 0.30746 0.69942 0.0
C1406 C 0.88558 0.30636 0.67908 0.0
C1407 C 0.79369 0.32705 0.75913 0.0
C1408 C 0.85161 0.32788 0.72558 0.0
C1409 C 0.85112 0.21918 0.71811 0.0
C1410 C 0.82865 0.21376 0.71061 0.0
C1411 C 0.81136 0.28121 0.79273 0.0
C1412 C 0.77277 0.29312 0.84835 0.0
C1413 C 0.78404 0.28183 0.86279 0.0
C1414 C 0.77239 0.26276 0.87274 0.0
C1415 C 0.74948 0.25476 0.86817 0.0
C1416 C 0.7498 0.28508 0.84387 0.0
C1417 C 0.73823 0.26592 0.85372 0.0
C1418 C 0.85751 0.30291 0.81293 0.0
C1419 C 0.78433 0.31379 0.83836 0.0
H1420 H 0.85239 0.35447 0.69335 0.0
H1421 H 0.89259 0.32129 0.64787 0.0
H1422 H 0.87557 0.29473 0.71095 0.0
H1423 H 0.89477 0.29286 0.67508 0.0
H1424 H 0.80175 0.28801 0.86661 0.0
H1425 H 0.74034 0.24024 0.87615 0.0
H1426 H 0.74083 0.29379 0.83291 0.0
H1427 H 0.72052 0.25994 0.85037 0.0
Tb1428 Tb 0.83131 0.82971 0.78765 0.0
C1429 C 0.74607 0.75805 0.74421 0.0
C1430 C 0.72543 0.75117 0.77735 0.0
C1431 C 0.70613 0.74338 0.7379 0.0
C1432 C 0.74575 0.75779 0.76811 0.0
C1433 C 0.72618 0.75045 0.72881 0.0
C1434 C 0.70575 0.74386 0.76214 0.0
C1435 C 0.7471 0.75492 0.69591 0.0
N1436 N 0.76577 0.76483 0.73588 0.0
C1437 C 0.76629 0.76196 0.71166 0.0
C1438 C 0.72692 0.74933 0.70452 0.0
Tb1439 Tb 0.79646 0.76979 0.76266 0.0
N1440 N 0.76516 0.76453 0.78237 0.0
C1441 C 0.76472 0.7666 0.80645 0.0
C1442 C 0.72533 0.75236 0.80169 0.0
C1443 C 0.74505 0.76048 0.81631 0.0
H1444 H 0.78152 0.76426 0.70389 0.0
H1445 H 0.74517 0.76234 0.83534 0.0
H1446 H 0.69012 0.73852 0.76896 0.0
H1447 H 0.74796 0.75308 0.677 0.0
H1448 H 0.77902 0.77393 0.81888 0.0
H1449 H 0.87931 0.83739 0.71242 0.0
H1450 H 0.71011 0.74764 0.80943 0.0
H1451 H 0.84865 0.83355 0.8456 0.0
H1452 H 0.84668 0.82346 0.73048 0.0
H1453 H 0.88299 0.84566 0.87107 0.0
H1454 H 0.69081 0.73739 0.7263 0.0
H1455 H 0.91495 0.85493 0.73705 0.0
H1456 H 0.9364 0.86549 0.77694 0.0
H1457 H 0.71205 0.74339 0.6922 0.0
H1458 H 0.93753 0.86624 0.8197 0.0
N1459 N 0.86166 0.83509 0.76646 0.0
C1460 C 0.86116 0.83239 0.74225 0.0
C1461 C 0.90022 0.84938 0.74543 0.0
C1462 C 0.90115 0.85081 0.76988 0.0
C1463 C 0.88016 0.83968 0.73153 0.0
C1464 C 0.88145 0.84313 0.77996 0.0
H1465 H 0.91796 0.85813 0.85458 0.0
N1466 N 0.86301 0.83471 0.81287 0.0
C1467 C 0.88311 0.84439 0.85212 0.0
C1468 C 0.88216 0.84278 0.80387 0.0
C1469 C 0.86344 0.83662 0.8371 0.0
C1470 C 0.90275 0.8516 0.84279 0.0
C1471 C 0.90248 0.85118 0.81851 0.0
O1472 O 0.8271 0.85146 0.81923 0.0
O1473 O 0.79911 0.80461 0.78483 0.0
O1474 O 0.80036 0.79408 0.73644 0.0
O1475 O 0.81957 0.83468 0.75289 0.0
O1476 O 0.80065 0.83944 0.7806 0.0
O1477 O 0.84387 0.86786 0.79219 0.0
O1478 O 0.80271 0.7484 0.73189 0.0
O1479 O 0.82867 0.79482 0.76587 0.0
O1480 O 0.82667 0.80577 0.81424 0.0
O1481 O 0.80721 0.76511 0.79814 0.0
O1482 O 0.82701 0.75988 0.77039 0.0
O1483 O 0.78319 0.73172 0.75707 0.0
C1484 C 0.78743 0.8186 0.78093 0.0
C1485 C 0.82861 0.89259 0.81986 0.0
C1486 C 0.80325 0.91621 0.81203 0.0
C1487 C 0.81249 0.89688 0.8047 0.0
C1488 C 0.81048 0.9317 0.83429 0.0
C1489 C 0.83596 0.90814 0.84207 0.0
C1490 C 0.82696 0.92774 0.84921 0.0
C1491 C 0.80781 0.81746 0.73514 0.0
C1492 C 0.83761 0.87169 0.81335 0.0
C1493 C 0.9219 0.85955 0.80867 0.0
C1494 C 0.92124 0.85928 0.78438 0.0
C1495 C 0.84017 0.78087 0.77035 0.0
C1496 C 0.80019 0.70701 0.73137 0.0
C1497 C 0.81188 0.69995 0.74905 0.0
C1498 C 0.82004 0.67938 0.74357 0.0
C1499 C 0.81647 0.66592 0.72015 0.0
C1500 C 0.79671 0.6936 0.70802 0.0
C1501 C 0.80486 0.6731 0.70245 0.0
C1502 C 0.81869 0.78253 0.816 0.0
C1503 C 0.79122 0.72811 0.73682 0.0
H1504 H 0.80706 0.88529 0.78731 0.0
H1505 H 0.80365 0.94703 0.83988 0.0
H1506 H 0.84857 0.90503 0.8539 0.0
H1507 H 0.83273 0.93981 0.86629 0.0
H1508 H 0.8142 0.71015 0.76715 0.0
H1509 H 0.82275 0.65 0.71554 0.0
H1510 H 0.78763 0.69896 0.69416 0.0
H1511 H 0.80212 0.66274 0.68443 0.0
Tb1512 Tb 0.54927 0.54093 0.52865 0.0
C1513 C 0.61979 0.62542 0.58543 0.0
C1514 C 0.62646 0.65301 0.55791 0.0
C1515 C 0.63626 0.66898 0.60018 0.0
C1516 C 0.61866 0.62925 0.56257 0.0
C1517 C 0.62907 0.64514 0.60455 0.0
C1518 C 0.63492 0.67291 0.57687 0.0
C1519 C 0.62603 0.61592 0.63037 0.0
N1520 N 0.61335 0.60206 0.58875 0.0
C1521 C 0.61732 0.59698 0.61075 0.0
C1522 C 0.63173 0.64016 0.6273 0.0
Tb1523 Tb 0.60155 0.57171 0.55549 0.0
N1524 N 0.61101 0.60943 0.54478 0.0
C1525 C 0.61149 0.61221 0.52166 0.0
C1526 C 0.62614 0.65595 0.53433 0.0
C1527 C 0.61872 0.63541 0.51613 0.0
H1528 H 0.61345 0.57822 0.61318 0.0
H1529 H 0.61859 0.63738 0.49779 0.0
H1530 H 0.64098 0.69129 0.57366 0.0
H1531 H 0.62863 0.61177 0.64778 0.0
H1532 H 0.60574 0.5968 0.50721 0.0
H1533 H 0.52984 0.48655 0.59805 0.0
H1534 H 0.63192 0.67388 0.53 0.0
H1535 H 0.54194 0.52211 0.46914 0.0
H1536 H 0.54595 0.52276 0.58385 0.0
H1537 H 0.52836 0.48425 0.44022 0.0
H1538 H 0.6434 0.68438 0.61462 0.0
H1539 H 0.51344 0.4475 0.57022 0.0
H1540 H 0.50469 0.42421 0.52881 0.0
H1541 H 0.63883 0.65478 0.64245 0.0
H1542 H 0.50537 0.42327 0.48621 0.0
N1543 N 0.53777 0.5068 0.54649 0.0
C1544 C 0.53803 0.507 0.57049 0.0
C1545 C 0.52021 0.46387 0.56341 0.0
C1546 C 0.52041 0.46311 0.53915 0.0
C1547 C 0.52929 0.48586 0.57912 0.0
C1548 C 0.52954 0.48498 0.53108 0.0
H1549 H 0.51454 0.44521 0.45327 0.0
N1550 N 0.53927 0.50539 0.49973 0.0
C1551 C 0.52926 0.48381 0.45896 0.0
C1552 C 0.53045 0.48425 0.50708 0.0
C1553 C 0.53763 0.50538 0.47578 0.0
C1554 C 0.52138 0.4619 0.46638 0.0
C1555 C 0.52151 0.46194 0.4906 0.0
O1556 O 0.53392 0.55166 0.50028 0.0
O1557 O 0.5745 0.57517 0.5332 0.0
O1558 O 0.57902 0.5788 0.58372 0.0
O1559 O 0.54449 0.55443 0.56616 0.0
O1560 O 0.54429 0.57744 0.54098 0.0
O1561 O 0.51486 0.5334 0.52567 0.0
O1562 O 0.62529 0.55749 0.5712 0.0
O1563 O 0.58013 0.53459 0.54184 0.0
O1564 O 0.57084 0.54193 0.49906 0.0
O1565 O 0.60619 0.5582 0.51773 0.0
O1566 O 0.59348 0.54389 0.57669 0.0
O1567 O 0.63277 0.57792 0.54368 0.0
C1568 C 0.56344 0.59057 0.53918 0.0
C1569 C 0.49457 0.54459 0.4942 0.0
C1570 C 0.45985 0.55497 0.49479 0.0
C1571 C 0.47901 0.55307 0.5069 0.0
C1572 C 0.45623 0.54826 0.46993 0.0
C1573 C 0.49111 0.53833 0.46935 0.0
C1574 C 0.47188 0.54005 0.45728 0.0
C1575 C 0.55764 0.56889 0.58507 0.0
C1576 C 0.51475 0.54324 0.50689 0.0
C1577 C 0.51232 0.44043 0.49863 0.0
C1578 C 0.51183 0.441 0.52285 0.0
C1579 C 0.58322 0.52562 0.5603 0.0
C1580 C 0.66242 0.57532 0.56912 0.0
C1581 C 0.6769 0.56163 0.56181 0.0
C1582 C 0.6988 0.5689 0.5717 0.0
C1583 C 0.70622 0.59045 0.58914 0.0
C1584 C 0.66972 0.5968 0.58649 0.0
C1585 C 0.69165 0.60429 0.59651 0.0
C1586 C 0.5924 0.54844 0.498 0.0
C1587 C 0.6399 0.56583 0.55803 0.0
H1588 H 0.48184 0.55829 0.52611 0.0
H1589 H 0.44144 0.54971 0.46035 0.0
H1590 H 0.50319 0.53201 0.45935 0.0
H1591 H 0.46914 0.53511 0.43812 0.0
H1592 H 0.67108 0.54534 0.54793 0.0
H1593 H 0.72314 0.59647 0.59706 0.0
H1594 H 0.65868 0.60772 0.59219 0.0
H1595 H 0.69738 0.62086 0.60995 0.0
Tb1596 Tb 0.09869 0.55976 0.0404 0.0
C1597 C 0.02015 0.51769 0.08809 0.0
C1598 C 1.00087 0.48226 0.05821 0.0
C1599 C 0.99746 0.48201 0.09994 0.0
C1600 C 0.01509 0.50605 0.06458 0.0
C1601 C 1.01106 0.50605 0.10605 0.0
C1602 C 0.9924 0.47012 0.07606 0.0
C1603 C 0.02804 0.5435 0.1344 0.0
N1604 N 0.03333 0.54089 0.09323 0.0
C1605 C 0.03657 0.55432 0.11592 0.0
C1606 C 0.01544 0.51916 0.12949 0.0
Tb1607 Tb 0.04597 0.55689 0.06153 0.0
N1608 N 0.02337 0.5185 0.04788 0.0
C1609 C 0.01712 0.50868 0.02432 0.0
C1610 C 0.99517 0.47168 0.0341 0.0
C1611 C 1.00313 0.48508 0.01708 0.0
H1612 H 0.04617 0.57321 0.11973 0.0
H1613 H 0.99861 0.47721 0.99839 0.0
H1614 H 0.98156 0.45177 0.07155 0.0
H1615 H 0.03109 0.55397 0.15238 0.0
H1616 H 0.02336 0.51868 1.01099 0.0
H1617 H 0.14947 0.6345 0.10869 0.0
H1618 H 0.98433 0.45341 0.02846 0.0
H1619 H 0.10224 0.55092 0.98149 0.0
H1620 H 0.12864 0.5926 0.09312 0.0
H1621 H 0.11479 0.57608 0.95224 0.0
H1622 H 0.99041 0.47265 0.11349 0.0
H1623 H 0.15691 0.6644 0.08236 0.0
H1624 H 0.1549 0.67265 0.04127 0.0
H1625 H 1.00873 0.51088 0.14381 0.0
H1626 H 0.14537 0.65674 0.99842 0.0
N1627 N 0.12172 0.59791 0.05759 0.0
C1628 C 0.13066 0.60499 0.08097 0.0
C1629 C 0.14723 0.64582 0.07522 0.0
C1630 C 0.13984 0.63811 0.05106 0.0
C1631 C 0.14304 0.62901 0.09011 0.0
C1632 C 0.12714 0.61372 0.04263 0.0
H1633 H 0.13111 0.62065 0.9651 0.0
N1634 N 0.11036 0.58104 1.01106 0.0
C1635 C 0.1164 0.58459 0.9708 0.0
C1636 C 0.12129 0.60498 0.01858 0.0
C1637 C 0.10921 0.57043 0.98755 0.0
C1638 C 0.12554 0.6097 0.97811 0.0
C1639 C 0.12864 0.62011 1.00229 0.0
O1640 O 0.11126 0.53452 0.0182 0.0
O1641 O 0.06534 0.53661 0.04017 0.0
O1642 O 0.06425 0.5434 0.08632 0.0
O1643 O 0.09986 0.56025 0.07845 0.0
O1644 O 0.091 0.52212 0.04584 0.0
O1645 O 0.12972 0.55528 0.05142 0.0
O1646 O 0.03299 0.58611 0.07528 0.0
O1647 O 0.07606 0.58066 0.0536 0.0
O1648 O 0.07526 0.55708 1.00908 0.0
O1649 O 0.0441 0.5627 0.02602 0.0
O1650 O 0.06506 0.59053 0.08546 0.0
O1651 O 0.01481 0.55765 0.04664 0.0
C1652 C 0.07012 0.5171 0.04367 0.0
C1653 C 0.14986 0.53802 0.02239 0.0
C1654 C 0.1839 0.52463 0.02152 0.0
C1655 C 0.16473 0.5265 0.0322 0.0
C1656 C 0.1875 0.5339 1.00066 0.0
C1657 C 0.15442 0.54754 1.00197 0.0
C1658 C 0.17298 0.54534 0.99113 0.0
C1659 C 0.08552 0.55014 0.09176 0.0
C1660 C 0.1291 0.53849 0.03274 0.0
C1661 C 0.13998 0.64477 1.01067 0.0
C1662 C 0.14547 0.6538 0.03505 0.0
C1663 C 0.07944 0.59785 0.07171 0.0
C1664 C 0.99467 0.58003 0.07066 0.0
C1665 C 0.98209 0.59392 0.06115 0.0
C1666 C 0.96373 0.59834 0.07175 0.0
C1667 C 0.95797 0.58847 0.0918 0.0
C1668 C 0.98835 0.56987 0.09033 0.0
C1669 C 0.97011 0.57414 0.10087 0.0
C1670 C 0.05535 0.56069 1.00788 0.0
C1671 C 0.01506 0.57802 0.06073 0.0
H1672 H 0.16141 0.51912 0.04804 0.0
H1673 H 0.20154 0.53212 0.99146 0.0
H1674 H 0.14359 0.55639 0.99405 0.0
H1675 H 0.17606 0.5524 0.97511 0.0
H1676 H 0.98692 0.60184 0.04595 0.0
H1677 H 0.94387 0.59158 0.10024 0.0
H1678 H 0.99758 0.55891 0.09773 0.0
H1679 H 0.96544 0.56645 0.1162 0.0
H1680 H 0.03349 0.19618 0.93719 0.0
H1681 H 0.04457 0.24135 1.00724 0.0
H1682 H 0.04139 0.16297 0.95334 0.0
H1683 H 0.05194 0.20698 0.02402 0.0
H1684 H 0.08072 0.14102 0.04209 0.0
H1685 H 0.07417 0.17825 0.03045 0.0
H1686 H 0.02702 0.13283 0.97266 0.0
H1687 H 0.03518 0.09704 0.98226 0.0
C1688 C 0.0374 0.19909 0.95624 0.0
C1689 C 0.03807 0.22183 0.97068 0.0
C1690 C 0.0418 0.17961 0.96573 0.0
C1691 C 0.04696 0.18147 0.99035 0.0
C1692 C 0.04799 0.20438 1.00502 0.0
C1693 C 0.04352 0.22416 0.99537 0.0
C1694 C 0.0694 0.139 0.02657 0.0
C1695 C 0.05955 0.11543 0.01259 0.0
C1696 C 0.06532 0.16054 0.02 0.0
C1697 C 0.0506 0.15916 0.99976 0.0
C1698 C 0.0394 0.13543 0.98745 0.0
C1699 C 0.04399 0.1144 0.99338 0.0
H1700 H 0.15216 0.827 0.195 0.0
H1701 H 0.19154 0.85629 0.14332 0.0
H1702 H 0.18467 0.82434 0.21775 0.0
H1703 H 0.22466 0.85461 0.1669 0.0
H1704 H 0.27741 0.82441 0.20349 0.0
H1705 H 0.24592 0.82909 0.17948 0.0
H1706 H 0.21564 0.84525 0.24311 0.0
H1707 H 0.24604 0.8392 0.26637 0.0
C1708 C 0.16784 0.83343 0.18866 0.0
C1709 C 0.16897 0.8421 0.16724 0.0
C1710 C 0.18673 0.83199 0.20191 0.0
C1711 C 0.2077 0.83942 0.19453 0.0
C1712 C 0.20894 0.84844 0.17323 0.0
C1713 C 0.18989 0.8497 0.15977 0.0
C1714 C 0.26404 0.829 0.2124 0.0
C1715 C 0.26477 0.8317 0.23731 0.0
C1716 C 0.24593 0.83188 0.19854 0.0
C1717 C 0.22783 0.8375 0.20909 0.0
C1718 C 0.22883 0.84053 0.23397 0.0
C1719 C 0.24677 0.8375 0.24766 0.0
H1720 H 0.54812 0.85727 0.51364 0.0
H1721 H 0.5435 0.86862 0.44167 0.0
H1722 H 0.55154 0.9012 0.52808 0.0
H1723 H 0.54834 0.91147 0.45548 0.0
H1724 H 0.54339 0.98614 0.47732 0.0
H1725 H 0.53437 0.94187 0.46853 0.0
H1726 H 0.56907 0.94273 0.5361 0.0
H1727 H 0.57572 0.98746 0.54578 0.0
C1728 C 0.5479 0.86902 0.50089 0.0
C1729 C 0.54501 0.85895 0.47639 0.0
C1730 C 0.54996 0.89441 0.50915 0.0
C1731 C 0.5496 0.91057 0.49315 0.0
C1732 C 0.5476 0.90024 0.46877 0.0
C1733 C 0.54507 0.8752 0.46067 0.0
C1734 C 0.54842 0.97681 0.49066 0.0
C1735 C 0.55973 0.99044 0.51248 0.0
C1736 C 0.54378 0.95115 0.4854 0.0
C1737 C 0.55167 0.93794 0.50105 0.0
C1738 C 0.56254 0.95166 0.52336 0.0
C1739 C 0.56634 0.9775 0.52905 0.0
H1740 H 0.54644 0.27477 0.66957 0.0
H1741 H 0.55336 0.35053 0.66539 0.0
H1742 H 0.51108 0.27254 0.68432 0.0
H1743 H 0.51774 0.34839 0.68061 0.0
H1744 H 0.47165 0.3373 0.74265 0.0
H1745 H 0.50294 0.34337 0.71957 0.0
H1746 H 0.473 0.27376 0.67281 0.0
H1747 H 0.44186 0.26774 0.69618 0.0
C1748 C 0.54039 0.291 0.67183 0.0
C1749 C 0.55283 0.31291 0.66656 0.0
C1750 C 0.51995 0.28963 0.68003 0.0
C1751 C 0.51148 0.31025 0.68356 0.0
C1752 C 0.52382 0.33219 0.67811 0.0
C1753 C 0.54419 0.33342 0.66941 0.0
C1754 C 0.47147 0.32377 0.72692 0.0
C1755 C 0.45434 0.30218 0.72102 0.0
C1756 C 0.48938 0.32719 0.71372 0.0
C1757 C 0.49061 0.30893 0.6945 0.0
C1758 C 0.4727 0.28804 0.68771 0.0
C1759 C 0.45477 0.28467 0.70089 0.0
H1760 H 0.98991 0.81386 0.60118 0.0
H1761 H 0.04633 0.84736 0.65307 0.0
H1762 H 1.00278 0.84468 0.57734 0.0
H1763 H 0.06017 0.87707 0.62881 0.0
H1764 H 0.07705 0.9335 0.58394 0.0
H1765 H 0.0583 0.91015 0.61116 0.0
H1766 H 0.03136 0.84886 0.55283 0.0
H1767 H 0.04876 0.87314 0.52529 0.0
C1768 C 1.00469 0.8284 0.60775 0.0
C1769 C 0.01708 0.82876 0.62889 0.0
C1770 C 0.0123 0.8457 0.594 0.0
C1771 C 0.03276 0.86294 0.6009 0.0
C1772 C 0.04426 0.86425 0.62304 0.0
C1773 C 0.03634 0.84734 0.63703 0.0
C1774 C 0.06695 0.91508 0.57692 0.0
C1775 C 0.06418 0.90513 0.55247 0.0
C1776 C 0.05632 0.90166 0.59255 0.0
C1777 C 0.04312 0.87775 0.58416 0.0
C1778 C 0.04094 0.8675 0.55979 0.0
C1779 C 0.05129 0.88113 0.54406 0.0
H1780 H 0.56585 0.8829 0.88208 0.0
H1781 H 0.55571 0.8098 0.84134 0.0
H1782 H 0.52886 0.88326 0.86758 0.0
H1783 H 0.519 0.81036 0.8257 0.0
H1784 H 0.45151 0.81594 0.80358 0.0
H1785 H 0.48196 0.81254 0.82986 0.0
H1786 H 0.51588 0.88762 0.82938 0.0
H1787 H 0.48504 0.89141 0.80439 0.0
C1788 C 0.55538 0.86672 0.87036 0.0
C1789 C 0.56334 0.84637 0.86261 0.0
C1790 C 0.53435 0.86696 0.8619 0.0
C1791 C 0.52119 0.84709 0.84503 0.0
C1792 C 0.52866 0.82593 0.83874 0.0
C1793 C 0.54964 0.82556 0.84758 0.0
C1794 C 0.46528 0.83188 0.80954 0.0
C1795 C 0.46595 0.85394 0.80177 0.0
C1796 C 0.4828 0.82984 0.82442 0.0
C1797 C 0.50136 0.84977 0.83173 0.0
C1798 C 0.50171 0.87199 0.82445 0.0
C1799 C 0.48418 0.87406 0.80973 0.0
H1800 H 0.46826 0.17014 0.13605 0.0
H1801 H 0.53174 0.2208 0.13897 0.0
H1802 H 0.48117 0.13793 0.11133 0.0
H1803 H 0.54464 0.18898 0.11507 0.0
H1804 H 0.56653 0.11838 0.10671 0.0
H1805 H 0.54963 0.14831 0.12768 0.0
H1806 H 0.49828 0.1309 0.06931 0.0
H1807 H 0.5149 0.10075 0.04837 0.0
C1808 C 0.48474 0.17434 0.13103 0.0
C1809 C 0.49913 0.19757 0.13913 0.0
C1810 C 0.49209 0.15613 0.11708 0.0
C1811 C 0.51391 0.16117 0.11185 0.0
C1812 C 0.52785 0.18476 0.11921 0.0
C1813 C 0.52045 0.20287 0.13266 0.0
C1814 C 0.55165 0.12087 0.0983 0.0
C1815 C 0.5424 0.10769 0.07554 0.0
C1816 C 0.54202 0.13794 0.1103 0.0
C1817 C 0.52285 0.14181 0.09985 0.0
C1818 C 0.5131 0.1281 0.07756 0.0
C1819 C 0.52286 0.11117 0.06546 0.0
H1820 H 0.18763 0.3055 0.37061 0.0
H1821 H 0.17201 0.3534 0.3261 0.0
H1822 H 0.21897 0.30169 0.34928 0.0
H1823 H 0.2037 0.34995 0.30467 0.0
H1824 H 0.24552 0.31171 0.25553 0.0
H1825 H 0.21427 0.31679 0.27714 0.0
H1826 H 0.25464 0.32705 0.34362 0.0
H1827 H 0.28529 0.32144 0.32204 0.0
C1828 C 0.19129 0.31554 0.35647 0.0
C1829 C 0.17785 0.32988 0.34994 0.0
C1830 C 0.20912 0.31339 0.34429 0.0
C1831 C 0.21363 0.32545 0.32528 0.0
C1832 C 0.20036 0.34026 0.31909 0.0
C1833 C 0.18251 0.34251 0.33144 0.0
C1834 C 0.24742 0.31486 0.27473 0.0
C1835 C 0.26737 0.31575 0.28729 0.0
C1836 C 0.22977 0.31798 0.28706 0.0
C1837 C 0.23214 0.32235 0.31202 0.0
C1838 C 0.2523 0.32341 0.32441 0.0
C1839 C 0.26979 0.32022 0.31213 0.0
H1840 H 0.96969 0.09785 0.19621 0.0
H1841 H 0.01327 0.06033 0.22444 0.0
H1842 H 0.98798 0.09789 0.16049 0.0
H1843 H 0.03138 0.05952 0.18837 0.0
H1844 H 0.06863 0.06478 0.12208 0.0
H1845 H 0.05156 0.06643 0.15887 0.0
H1846 H 0.99889 0.08874 0.1252 0.0
H1847 H 0.01617 0.08675 0.0886 0.0
C1848 C 0.98324 0.08949 0.19499 0.0
C1849 C 0.9896 0.0792 0.21416 0.0
C1850 C 0.99395 0.08929 0.17386 0.0
C1851 C 0.01176 0.07852 0.17007 0.0
C1852 C 0.01818 0.06835 0.18947 0.0
C1853 C 1.00754 0.06875 0.21073 0.0
C1854 C 0.05353 0.07038 0.12255 0.0
C1855 C 0.04427 0.07591 0.10175 0.0
C1856 C 0.04331 0.07113 0.14405 0.0
C1857 C 0.02318 0.07781 0.14643 0.0
C1858 C 0.01417 0.0836 0.12544 0.0
C1859 C 0.02422 0.08241 0.10384 0.0
H1860 H 0.33642 0.69611 0.46019 0.0
H1861 H 0.26649 0.67913 0.46304 0.0
H1862 H 0.33181 0.71509 0.42556 0.0
H1863 H 0.26185 0.69753 0.42899 0.0
H1864 H 0.25301 0.71886 0.36271 0.0
H1865 H 0.26625 0.69236 0.38563 0.0
H1866 H 0.31835 0.75418 0.42256 0.0
H1867 H 0.30529 0.78063 0.39913 0.0
C1868 C 0.32012 0.69587 0.45297 0.0
C1869 C 0.30177 0.68625 0.46399 0.0
C1870 C 0.31749 0.70675 0.43338 0.0
C1871 C 0.29646 0.70744 0.4245 0.0
C1872 C 0.27818 0.69677 0.43509 0.0
C1873 C 0.28084 0.68642 0.45468 0.0
C1874 C 0.26766 0.72656 0.37524 0.0
C1875 C 0.27795 0.75171 0.37958 0.0
C1876 C 0.27529 0.71145 0.38823 0.0
C1877 C 0.29312 0.72135 0.406 0.0
C1878 C 0.30468 0.74609 0.40881 0.0
C1879 C 0.29715 0.76122 0.39557 0.0
H1880 H 0.64908 0.05565 0.72023 0.0
H1881 H 0.69309 0.04383 0.66768 0.0
H1882 H 0.61929 0.04857 0.68866 0.0
H1883 H 0.66331 0.03705 0.6363 0.0
H1884 H 0.60366 1.00484 0.58614 0.0
H1885 H 0.62663 1.00483 0.62205 0.0
H1886 H 0.61359 0.07237 0.65602 0.0
H1887 H 0.59066 0.07215 0.62019 0.0
C1888 C 0.65231 0.05135 0.70197 0.0
C1889 C 0.67322 0.04996 0.69626 0.0
C1890 C 0.63533 0.04735 0.68406 0.0
C1891 C 0.63912 0.04176 0.66038 0.0
C1892 C 0.66004 0.04067 0.65462 0.0
C1893 C 0.67704 0.04479 0.67249 0.0
C1894 C 0.60505 0.01896 0.60176 0.0
C1895 C 0.5954 0.03822 0.60112 0.0
C1896 C 0.61819 0.0191 0.62203 0.0
C1897 C 0.62173 0.03864 0.64145 0.0
C1898 C 0.6107 0.05697 0.64128 0.0
C1899 C 0.59759 0.05681 0.621 0.0
H1900 H 0.37049 0.37779 0.96328 0.0
H1901 H 0.30487 0.33202 0.96004 0.0
H1902 H 0.36926 0.36586 0.92012 0.0
H1903 H 0.30386 0.31932 0.91673 0.0
H1904 H 0.32231 0.28928 0.84015 0.0
H1905 H 0.32656 0.29676 0.88395 0.0
H1906 H 0.34307 0.37468 0.88633 0.0
H1907 H 0.33811 0.36723 0.84305 0.0
C1908 C 0.35592 0.36489 0.95331 0.0
C1909 C 0.33775 0.35589 0.96493 0.0
C1910 C 0.35522 0.35804 0.92864 0.0
C1911 C 0.33653 0.34153 0.91504 0.0
C1912 C 0.31857 0.33187 0.92677 0.0
C1913 C 0.31907 0.33924 0.95148 0.0
C1914 C 0.32722 0.30795 0.85012 0.0
C1915 C 0.33024 0.32772 0.83823 0.0
C1916 C 0.32946 0.31224 0.87513 0.0
C1917 C 0.33514 0.33634 0.88858 0.0
C1918 C 0.33881 0.35595 0.87653 0.0
C1919 C 0.336 0.35168 0.85175 0.0
H1920 H 0.97333 0.04092 0.36243 0.0
H1921 H 0.03675 0.08177 0.35026 0.0
H1922 H 0.98836 0.03815 0.40174 0.0
H1923 H 0.05202 0.07967 0.3901 0.0
H1924 H 0.07822 0.05922 0.46071 0.0
H1925 H 0.06464 0.05967 0.4196 0.0
H1926 H 1.00012 0.05627 0.44069 0.0
H1927 H 0.01356 0.05544 0.4809 0.0
C1928 C 0.99055 0.04954 0.36816 0.0
C1929 C 1.00353 0.06169 0.35265 0.0
C1930 C 0.99936 0.04811 0.39114 0.0
C1931 C 0.02176 0.05884 0.40019 0.0
C1932 C 0.03484 0.07084 0.38445 0.0
C1933 C 0.02596 0.07222 0.36133 0.0
C1934 C 0.06107 0.0582 0.4565 0.0
C1935 C 0.04711 0.05696 0.4747 0.0
C1936 C 0.05315 0.05873 0.43268 0.0
C1937 C 0.03088 0.05794 0.42581 0.0
C1938 C 0.01715 0.05649 0.4442 0.0
C1939 C 0.02503 0.05615 0.46777 0.0
H1940 H 0.30989 0.68375 0.61794 0.0
H1941 H 0.31681 0.73398 0.5693 0.0
H1942 H 0.30276 0.7147 0.64831 0.0
H1943 H 0.30941 0.76513 0.60005 0.0
H1944 H 0.32825 0.81496 0.67916 0.0
H1945 H 0.32717 0.7902 0.63994 0.0
H1946 H 0.27256 0.73516 0.65483 0.0
H1947 H 0.27487 0.75886 0.69447 0.0
C1948 C 0.31012 0.7015 0.6138 0.0
C1949 C 0.31387 0.70644 0.59124 0.0
C1950 C 0.30563 0.71907 0.63105 0.0
C1951 C 0.30484 0.74196 0.62614 0.0
C1952 C 0.30962 0.74744 0.60402 0.0
C1953 C 0.31407 0.72973 0.58661 0.0
C1954 C 0.31604 0.79765 0.67397 0.0
C1955 C 0.30311 0.78766 0.69043 0.0
C1956 C 0.31508 0.78373 0.65136 0.0
C1957 C 0.30053 0.76028 0.64505 0.0
C1958 C 0.28457 0.75278 0.65983 0.0
C1959 C 0.28592 0.76637 0.68251 0.0
H1960 H 0.64774 0.0612 0.80477 0.0
H1961 H 0.70481 0.04992 0.84179 0.0
H1962 H 0.62981 0.0619 0.84082 0.0
H1963 H 0.68693 0.05112 0.87833 0.0
H1964 H 0.66099 0.10811 0.93403 0.0
H1965 H 0.67797 0.08969 0.90145 0.0
H1966 H 0.61558 0.03848 0.87323 0.0
H1967 H 0.5985 0.05709 0.90584 0.0
C1968 C 0.65623 0.05836 0.82058 0.0
C1969 C 0.67767 0.05577 0.82074 0.0
C1970 C 0.6459 0.05851 0.84113 0.0
C1971 C 0.65702 0.05654 0.86231 0.0
C1972 C 0.67804 0.05258 0.86215 0.0
C1973 C 0.68822 0.0519 0.84135 0.0
C1974 C 0.65106 0.09248 0.92122 0.0
C1975 C 0.62842 0.08424 0.92217 0.0
C1976 C 0.66081 0.08178 0.90273 0.0
C1977 C 0.64802 0.06278 0.88482 0.0
C1978 C 0.62573 0.05317 0.88685 0.0
C1979 C 0.616 0.06376 0.9055 0.0
H1980 H 0.30595 0.33084 0.07893 0.0
H1981 H 0.33976 0.39945 0.12504 0.0
H1982 H 0.29596 0.31313 0.11374 0.0
H1983 H 0.3312 0.38179 0.15947 0.0
H1984 H 0.3013 0.35508 0.21989 0.0
H1985 H 0.30471 0.37007 0.183 0.0
H1986 H 0.30677 0.29831 0.14646 0.0
H1987 H 0.30212 0.28323 0.18327 0.0
C1988 C 0.31151 0.342 0.09649 0.0
C1989 C 0.32351 0.3666 0.09919 0.0
C1990 C 0.30582 0.33189 0.11654 0.0
C1991 C 0.31237 0.34602 0.13976 0.0
C1992 C 0.32501 0.37038 0.14215 0.0
C1993 C 0.33022 0.38053 0.12227 0.0
C1994 C 0.30198 0.34241 0.20383 0.0
C1995 C 0.30143 0.31797 0.20455 0.0
C1996 C 0.30429 0.35106 0.18262 0.0
C1997 C 0.3067 0.33569 0.16154 0.0
C1998 C 0.30492 0.31083 0.16208 0.0
C1999 C 0.30218 0.30208 0.18327 0.0
H2000 H 0.26626 0.96461 0.01322 0.0
H2001 H 0.30472 0.03704 1.00984 0.0
H2002 H 0.23442 0.98085 0.02061 0.0
H2003 H 0.27299 0.05308 0.01658 0.0
H2004 H 0.209 0.07308 0.02017 0.0
H2005 H 0.23255 0.04948 1.00075 0.0
H2006 H 0.23335 1.01258 0.05989 0.0
H2007 H 0.21 0.0365 0.07938 0.0
C2008 C 0.26755 0.98374 0.01301 0.0
C2009 C 0.28772 0.99973 1.01104 0.0
C2010 C 0.24949 0.993 0.01741 0.0
C2011 C 0.25145 1.01815 0.01923 0.0
C2012 C 0.2711 0.03359 0.01503 0.0
C2013 C 0.2892 0.02447 0.01121 0.0
C2014 C 0.21429 0.05989 0.02888 0.0
C2015 C 0.2084 0.05686 0.05137 0.0
C2016 C 0.22746 0.0463 0.01775 0.0
C2017 C 0.23454 0.02924 0.02883 0.0
C2018 C 0.22782 0.02547 0.05092 0.0
C2019 C 0.21489 0.03935 0.06223 0.0
H2020 H 0.75793 0.63272 0.02983 0.0
H2021 H 0.73106 0.68008 0.99283 0.0
H2022 H 0.72113 0.60611 0.02854 0.0
H2023 H 0.69439 0.65325 0.99117 0.0
H2024 H 0.63199 0.62007 0.02361 0.0
H2025 H 0.66845 0.64387 0.0193 0.0
H2026 H 0.68936 0.57732 1.00339 0.0
H2027 H 0.65283 0.55355 1.00806 0.0
C2028 C 0.74425 0.63725 0.02104 0.0
C2029 C 0.74752 0.65868 0.01156 0.0
C2030 C 0.7231 0.62191 0.02024 0.0
C2031 C 0.70469 0.62758 1.0099 0.0
C2032 C 0.7081 0.64851 0.99964 0.0
C2033 C 0.7292 0.66385 1.00047 0.0
C2034 C 0.64427 0.61041 0.01897 0.0
C2035 C 0.63933 0.58475 0.01616 0.0
C2036 C 0.66521 0.62411 0.01634 0.0
C2037 C 0.68196 0.61259 1.011 0.0
C2038 C 0.67694 0.58686 1.00768 0.0
C2039 C 0.65584 0.57312 1.01008 0.0
H2040 H 0.76716 0.46982 0.24423 0.0
H2041 H 0.71874 0.44015 0.28735 0.0
H2042 H 0.78459 0.43648 0.24673 0.0
H2043 H 0.73524 0.4065 0.28923 0.0
H2044 H 0.7722 0.35079 0.30318 0.0
H2045 H 0.75568 0.38344 0.29902 0.0
H2046 H 0.79511 0.40054 0.24308 0.0
H2047 H 0.81135 0.36639 0.24696 0.0
C2048 C 0.75998 0.45618 0.25424 0.0
C2049 C 0.74119 0.4586 0.26568 0.0
C2050 C 0.77014 0.43652 0.25566 0.0
C2051 C 0.76215 0.41762 0.26846 0.0
C2052 C 0.74306 0.42005 0.27952 0.0
C2053 C 0.73313 0.4398 0.27833 0.0
C2054 C 0.77766 0.3613 0.28983 0.0
C2055 C 0.79396 0.35523 0.2759 0.0
C2056 C 0.76775 0.38063 0.28725 0.0
C2057 C 0.77335 0.39603 0.27059 0.0
C2058 C 0.78977 0.39003 0.25643 0.0
C2059 C 0.79949 0.37008 0.25875 0.0
H2060 H 0.91263 0.45523 0.54009 0.0
H2061 H 0.90589 0.51311 0.50349 0.0
H2062 H 0.9519 0.47188 0.54619 0.0
H2063 H 0.94583 0.52941 0.50881 0.0
H2064 H 0.01119 0.56792 0.55758 0.0
H2065 H 0.97249 0.55021 0.5434 0.0
H2066 H 0.98441 0.47841 0.52715 0.0
H2067 H 0.02318 0.49653 0.54165 0.0
C2068 C 0.91962 0.47126 0.53289 0.0
C2069 C 0.90628 0.48305 0.5215 0.0
C2070 C 0.94217 0.48068 0.53622 0.0
C2071 C 0.95187 0.50188 0.52793 0.0
C2072 C 0.93864 0.51319 0.51564 0.0
C2073 C 0.9159 0.50389 0.51256 0.0
C2074 C 1.00551 0.54853 0.55047 0.0
C2075 C 0.01994 0.53359 0.54967 0.0
C2076 C 0.98344 0.53836 0.5423 0.0
C2077 C 0.97553 0.51298 0.53394 0.0
C2078 C 0.99009 0.49803 0.53359 0.0
C2079 C 0.01216 0.50829 0.5417 0.0
H2080 H 0.37594 0.11265 0.34012 0.0
H2081 H 0.42683 0.13503 0.29653 0.0
H2082 H 0.35151 0.12969 0.31771 0.0
H2083 H 0.40226 0.14992 0.27267 0.0
H2084 H 0.35266 0.17969 0.23578 0.0
H2085 H 0.38013 0.17337 0.26352 0.0
H2086 H 0.33179 0.11279 0.28037 0.0
H2087 H 0.30382 0.12098 0.25403 0.0
C2088 C 0.3822 0.12246 0.32653 0.0
C2089 C 0.40303 0.12267 0.31983 0.0
C2090 C 0.36805 0.13144 0.31315 0.0
C2091 C 0.37454 0.14001 0.29263 0.0
C2092 C 0.39655 0.14337 0.28822 0.0
C2093 C 0.41085 0.13517 0.30213 0.0
C2094 C 0.34819 0.16449 0.24486 0.0
C2095 C 0.32629 0.1507 0.2428 0.0
C2096 C 0.36385 0.16101 0.26098 0.0
C2097 C 0.35809 0.14302 0.27472 0.0
C2098 C 0.33659 0.12751 0.27078 0.0
C2099 C 0.32071 0.13153 0.2551 0.0
H2100 H 0.34889 0.12699 0.50094 0.0
H2101 H 0.39134 0.19538 0.5396 0.0
H2102 H 0.37883 0.1074 0.50373 0.0
H2103 H 0.42119 0.17567 0.54367 0.0
H2104 H 0.47431 0.13476 0.54183 0.0
H2105 H 0.44776 0.15548 0.52794 0.0
H2106 H 0.39479 0.0942 0.53504 0.0
H2107 H 0.42106 0.0734 0.54767 0.0
C2108 C 0.36482 0.13788 0.50969 0.0
C2109 C 0.36795 0.16262 0.51995 0.0
C2110 C 0.38194 0.12666 0.51156 0.0
C2111 C 0.4024 0.13977 0.52436 0.0
C2112 C 0.40579 0.16499 0.53353 0.0
C2113 C 0.38871 0.17631 0.53127 0.0
C2114 C 0.45698 0.12559 0.53989 0.0
C2115 C 0.44977 0.10252 0.54607 0.0
C2116 C 0.44175 0.13755 0.53217 0.0
C2117 C 0.41903 0.12659 0.53033 0.0
C2118 C 0.41205 0.10315 0.53577 0.0
C2119 C 0.42716 0.0913 0.54339 0.0
H2120 H 0.76541 0.59268 0.27937 0.0
H2121 H 0.70853 0.61562 0.30039 0.0
H2122 H 0.78464 0.63559 0.27985 0.0
H2123 H 0.72746 0.65791 0.30102 0.0
H2124 H 0.7574 0.73095 0.27986 0.0
H2125 H 0.73973 0.68827 0.27989 0.0
H2126 H 0.80249 0.67644 0.30001 0.0
H2127 H 0.82016 0.71931 0.29971 0.0
C2128 C 0.75696 0.60672 0.2843 0.0
C2129 C 0.73519 0.60001 0.28998 0.0
C2130 C 0.76809 0.63165 0.28463 0.0
C2131 C 0.75788 0.65102 0.29029 0.0
C2132 C 0.73619 0.64413 0.29612 0.0
C2133 C 0.72523 0.61945 0.29603 0.0
C2134 C 0.76763 0.71944 0.28434 0.0
C2135 C 0.79059 0.72929 0.28952 0.0
C2136 C 0.75732 0.69457 0.28452 0.0
C2137 C 0.76934 0.67802 0.28997 0.0
C2138 C 0.79232 0.68791 0.29532 0.0
C2139 C 0.80263 0.71289 0.2952 0.0
H2140 H 0.89532 0.50509 0.85188 0.0
H2141 H 0.92447 0.49298 0.78665 0.0
H2142 H 0.87294 0.46232 0.8425 0.0
H2143 H 0.90183 0.45075 0.77716 0.0
H2144 H 0.89438 0.37658 0.80354 0.0
H2145 H 0.90841 0.4209 0.81112 0.0
H2146 H 0.84261 0.42852 0.79933 0.0
H2147 H 0.82843 0.38357 0.79047 0.0
C2148 C 0.8968 0.49326 0.83558 0.0
C2149 C 0.91203 0.5017 0.82033 0.0
C2150 C 0.8838 0.46921 0.83007 0.0
C2151 C 0.88582 0.45382 0.80915 0.0
C2152 C 0.90021 0.46263 0.79339 0.0
C2153 C 0.91339 0.48643 0.79903 0.0
C2154 C 0.88291 0.38772 0.80272 0.0
C2155 C 0.8604 0.37702 0.79703 0.0
C2156 C 0.89088 0.41288 0.80704 0.0
C2157 C 0.87644 0.42761 0.80578 0.0
C2158 C 0.85382 0.41714 0.80046 0.0
C2159 C 0.84581 0.39171 0.79564 0.0
H2160 H 0.13884 0.90916 0.07224 0.0
H2161 H 0.07255 0.8859 0.08885 0.0
H2162 H 0.13107 0.94586 0.06116 0.0
H2163 H 0.06458 0.92223 0.07678 0.0
H2164 H 0.06358 0.98418 0.02448 0.0
H2165 H 0.06903 0.94486 0.03177 0.0
H2166 H 0.11626 0.98349 0.09185 0.0
H2167 H 0.10917 0.02191 0.08643 0.0
C2168 C 0.12248 0.91157 0.07321 0.0
C2169 C 0.1064 0.89424 0.08155 0.0
C2170 C 0.11801 0.93271 0.06677 0.0
C2171 C 0.09706 0.93703 0.06767 0.0
C2172 C 0.08079 0.91946 0.07546 0.0
C2173 C 0.08544 0.89862 0.08255 0.0
C2174 C 0.07452 0.98434 0.0397 0.0
C2175 C 0.08495 1.00669 0.0554 0.0
C2176 C 0.07793 0.96168 0.04372 0.0
C2177 C 0.09296 0.96079 0.06268 0.0
C2178 C 0.10437 0.9832 0.0773 0.0
C2179 C 0.1002 1.00545 0.07403 0.0
H2180 H 0.97632 0.31912 0.90961 0.0
H2181 H 0.96139 0.24366 0.87368 0.0
H2182 H 0.94447 0.32449 0.88651 0.0
H2183 H 0.92877 0.2487 0.8513 0.0
H2184 H 0.85847 0.26591 0.83788 0.0
H2185 H 0.89047 0.25902 0.8599 0.0
H2186 H 0.932 0.32319 0.84163 0.0
H2187 H 0.90029 0.32935 0.81891 0.0
C2188 C 0.96612 0.30356 0.89692 0.0
C2189 C 0.97159 0.28093 0.89364 0.0
C2190 C 0.94782 0.30667 0.88356 0.0
C2191 C 0.93377 0.28705 0.86695 0.0
C2192 C 0.93902 0.26426 0.86394 0.0
C2193 C 0.95783 0.26137 0.87674 0.0
C2194 C 0.87445 0.27847 0.83853 0.0
C2195 C 0.87669 0.29831 0.82673 0.0
C2196 C 0.89287 0.27449 0.85109 0.0
C2197 C 0.91402 0.29059 0.85279 0.0
C2198 C 0.9161 0.31046 0.841 0.0
C2199 C 0.89787 0.314 0.82792 0.0
H2200 H 0.57444 0.24235 0.57599 0.0
H2201 H 0.64428 0.25484 0.59089 0.0
H2202 H 0.57037 0.19802 0.56527 0.0
H2203 H 0.64013 0.21035 0.58117 0.0
H2204 H 0.60797 0.12973 0.60097 0.0
H2205 H 0.61691 0.17444 0.60433 0.0
H2206 H 0.5852 0.16443 0.53343 0.0
H2207 H 0.57748 0.11977 0.52985 0.0
C2208 C 0.58902 0.2357 0.57619 0.0
C2209 C 0.60978 0.25234 0.58356 0.0
C2210 C 0.58667 0.21023 0.57025 0.0
C2211 C 0.60491 0.2005 0.57238 0.0
C2212 C 0.62573 0.21715 0.57926 0.0
C2213 C 0.62816 0.2427 0.58451 0.0
C2214 C 0.60362 0.13708 0.5858 0.0
C2215 C 0.59272 0.12106 0.56472 0.0
C2216 C 0.60864 0.16274 0.58776 0.0
C2217 C 0.60189 0.17318 0.56912 0.0
C2218 C 0.59089 0.15714 0.54806 0.0
C2219 C 0.58665 0.13151 0.54584 0.0
H2220 H 0.60505 0.76523 0.41671 0.0
H2221 H 0.58009 0.80865 0.37313 0.0
H2222 H 0.63823 0.77016 0.39644 0.0
H2223 H 0.61322 0.81379 0.35318 0.0
H2224 H 0.68334 0.84237 0.34043 0.0
H2225 H 0.65259 0.83578 0.36398 0.0
H2226 H 0.65176 0.75946 0.35625 0.0
H2227 H 0.68287 0.76624 0.33263 0.0
C2228 C 0.60654 0.77567 0.40269 0.0
C2229 C 0.58978 0.78648 0.39653 0.0
C2230 C 0.62558 0.77846 0.39105 0.0
C2231 C 0.62859 0.79261 0.37332 0.0
C2232 C 0.61165 0.80305 0.36696 0.0
C2233 C 0.59249 0.79988 0.37824 0.0
C2234 C 0.67686 0.82427 0.34412 0.0
C2235 C 0.6855 0.80482 0.33456 0.0
C2236 C 0.65908 0.82042 0.35743 0.0
C2237 C 0.64929 0.79696 0.36159 0.0
C2238 C 0.65883 0.77776 0.35337 0.0
C2239 C 0.67674 0.78164 0.33995 0.0
H2240 H 0.1156 0.31701 0.47006 0.0
H2241 H 0.13521 0.26347 0.41973 0.0
H2242 H 0.10499 0.28723 0.49482 0.0
H2243 H 0.12572 0.23366 0.44545 0.0
H2244 H 0.07837 0.18018 0.48169 0.0
H2245 H 0.0935 0.20941 0.45722 0.0
H2246 H 0.11792 0.26533 0.52056 0.0
H2247 H 0.10208 0.23633 0.54478 0.0
C2248 C 0.11833 0.29904 0.4647 0.0
C2249 C 0.12635 0.29252 0.44311 0.0
C2250 C 0.11228 0.28194 0.47895 0.0
C2251 C 0.11462 0.25808 0.47221 0.0
C2252 C 0.12345 0.2518 0.45097 0.0
C2253 C 0.12908 0.26886 0.43638 0.0
C2254 C 0.087 0.19876 0.49029 0.0
C2255 C 0.08883 0.20621 0.51506 0.0
C2256 C 0.09584 0.21542 0.47632 0.0
C2257 C 0.10682 0.23975 0.48694 0.0
C2258 C 0.10913 0.24689 0.51178 0.0
C2259 C 0.10006 0.23034 0.52568 0.0
H2260 H 0.5886 0.27079 0.1692 0.0
H2261 H 0.57242 0.25541 0.2377 0.0
H2262 H 0.62486 0.26392 0.1775 0.0
H2263 H 0.60822 0.2482 0.24551 0.0
H2264 H 0.65975 0.20659 0.23713 0.0
H2265 H 0.62568 0.21239 0.21966 0.0
H2266 H 0.65883 0.28675 0.21648 0.0
H2267 H 0.69263 0.28169 0.23501 0.0
C2268 C 0.59284 0.26615 0.18603 0.0
C2269 C 0.57774 0.26353 0.20281 0.0
C2270 C 0.61342 0.26214 0.19064 0.0
C2271 C 0.61879 0.25505 0.21183 0.0
C2272 C 0.60404 0.25321 0.22885 0.0
C2273 C 0.58371 0.25759 0.22447 0.0
C2274 C 0.65986 0.2241 0.23252 0.0
C2275 C 0.67878 0.24378 0.23789 0.0
C2276 C 0.64049 0.22727 0.22232 0.0
C2277 C 0.63992 0.25001 0.21699 0.0
C2278 C 0.65914 0.26903 0.22035 0.0
C2279 C 0.67844 0.26603 0.23092 0.0
H2280 H 0.66152 0.93379 0.93362 0.0
H2281 H 0.59928 0.88688 0.94272 0.0
H2282 H 0.65252 0.96884 0.95803 0.0
H2283 H 0.58963 0.92158 0.96551 0.0
H2284 H 0.5834 0.98013 0.02166 0.0
H2285 H 0.59878 0.9481 1.00279 0.0
H2286 H 0.62726 0.99434 0.95507 0.0
H2287 H 0.61331 0.02748 0.97585 0.0
C2288 C 0.64601 0.93113 0.94095 0.0
C2289 C 0.63118 0.90792 0.93687 0.0
C2290 C 0.64078 0.95104 0.95466 0.0
C2291 C 0.62047 0.94785 0.9638 0.0
C2292 C 0.60568 0.92449 0.95936 0.0
C2293 C 0.61112 0.90465 0.94628 0.0
C2294 C 0.59369 0.98377 1.00782 0.0
C2295 C 0.59772 1.00627 1.00051 0.0
C2296 C 0.60211 0.96529 0.99665 0.0
C2297 C 0.61409 0.96869 0.97736 0.0
C2298 C 0.61829 0.99136 0.97009 0.0
C2299 C 0.61009 1.01011 0.98165 0.0
H2300 H 0.97647 0.81513 0.74145 0.0
H2301 H 0.94275 0.74409 0.69947 0.0
H2302 H 0.94162 0.81954 0.75604 0.0
H2303 H 0.90832 0.74833 0.71372 0.0
H2304 H 0.848 0.77425 0.72524 0.0
H2305 H 0.88348 0.77707 0.71023 0.0
H2306 H 0.91521 0.793 0.78212 0.0
H2307 H 0.87934 0.78979 0.79712 0.0
C2308 C 0.96153 0.80071 0.7353 0.0
C2309 C 0.96182 0.7793 0.71957 0.0
C2310 C 0.94183 0.80314 0.74359 0.0
C2311 C 0.92254 0.78425 0.73587 0.0
C2312 C 0.923 0.7632 0.71966 0.0
C2313 C 0.94257 0.76072 0.71162 0.0
C2314 C 0.86264 0.77838 0.73772 0.0
C2315 C 0.86143 0.78228 0.76217 0.0
C2316 C 0.88279 0.78014 0.72923 0.0
C2317 C 0.90188 0.78552 0.74513 0.0
C2318 C 0.90063 0.78926 0.76967 0.0
C2319 C 0.8803 0.7872 0.77818 0.0
H2320 H 0.1498 0.08203 0.86013 0.0
H2321 H 0.13619 1.00357 0.84972 0.0
H2322 H 0.13526 0.08327 0.89862 0.0
H2323 H 0.12089 1.00465 0.88792 0.0
H2324 H 0.07642 1.01408 0.95053 0.0
H2325 H 0.09089 1.01188 0.91192 0.0
H2326 H 0.14124 0.0784 0.93995 0.0
H2327 H 0.12703 0.08038 0.97846 0.0
C2328 C 0.14358 0.06488 0.86581 0.0
C2329 C 0.14448 0.04269 0.85109 0.0
C2330 C 0.13521 0.06559 0.88831 0.0
C2331 C 0.1266 0.04409 0.89727 0.0
C2332 C 0.12708 0.02181 0.88227 0.0
C2333 C 0.13606 0.02117 0.86006 0.0
C2334 C 0.09061 0.02832 0.94869 0.0
C2335 C 0.10013 0.04754 0.96844 0.0
C2336 C 0.09912 0.02699 0.9262 0.0
C2337 C 0.11748 0.04502 0.92189 0.0
C2338 C 0.12701 0.06415 0.9417 0.0
C2339 C 0.11875 0.06523 0.96424 0.0
H2340 H 0.82497 0.4469 0.60662 0.0
H2341 H 0.84946 0.40547 0.54966 0.0
H2342 H 0.83628 0.42259 0.63401 0.0
H2343 H 0.86174 0.38243 0.57667 0.0
H2344 H 0.85734 0.32618 0.62253 0.0
H2345 H 0.84596 0.35135 0.59687 0.0
H2346 H 0.86848 0.41519 0.65344 0.0
H2347 H 0.87911 0.38956 0.67938 0.0
C2348 C 0.8327 0.43258 0.6001 0.0
C2349 C 0.83583 0.42738 0.57615 0.0
C2350 C 0.83936 0.4189 0.61565 0.0
C2351 C 0.84961 0.40037 0.60734 0.0
C2352 C 0.85326 0.39597 0.58346 0.0
C2353 C 0.84626 0.40916 0.568 0.0
C2354 C 0.86028 0.34568 0.62921 0.0
C2355 C 0.86935 0.3561 0.65264 0.0
C2356 C 0.85369 0.36009 0.61465 0.0
C2357 C 0.8564 0.38528 0.62315 0.0
C2358 C 0.86594 0.3958 0.64651 0.0
C2359 C 0.87229 0.38127 0.66119 0.0
H2360 H 0.50134 0.11185 0.38465 0.0
H2361 H 0.45854 0.04789 0.40202 0.0
H2362 H 0.5273 0.11501 0.4191 0.0
H2363 H 0.48404 0.05127 0.43684 0.0
H2364 H 0.54546 0.03522 0.46228 0.0
H2365 H 0.51988 0.04132 0.43183 0.0
H2366 H 0.53619 0.11867 0.46284 0.0
H2367 H 0.56261 0.11261 0.49246 0.0
C2368 C 0.49698 0.09946 0.39677 0.0
C2369 C 0.47823 0.07976 0.39121 0.0
C2370 C 0.51182 0.1011 0.41625 0.0
C2371 C 0.50779 0.08292 0.42993 0.0
C2372 C 0.48758 0.06512 0.42604 0.0
C2373 C 0.47287 0.06342 0.40652 0.0
C2374 C 0.54409 0.05361 0.46188 0.0
C2375 C 0.55561 0.07346 0.47948 0.0
C2376 C 0.52924 0.05704 0.44494 0.0
C2377 C 0.52556 0.08029 0.44587 0.0
C2378 C 0.53862 0.10056 0.46216 0.0
C2379 C 0.55379 0.09714 0.47893 0.0
H2380 H 0.84661 0.74773 0.10438 0.0
H2381 H 0.7851 0.76404 0.08751 0.0
H2382 H 0.84506 0.76222 0.14664 0.0
H2383 H 0.78347 0.77825 0.13006 0.0
H2384 H 0.80105 0.74083 0.20969 0.0
H2385 H 0.80046 0.73634 0.16665 0.0
H2386 H 0.82261 0.81478 0.17436 0.0
H2387 H 0.82264 0.81939 0.2178 0.0
C2388 C 0.83305 0.75502 0.10965 0.0
C2389 C 0.81603 0.75484 0.09257 0.0
C2390 C 0.83218 0.7633 0.13383 0.0
C2391 C 0.81421 0.77144 0.14155 0.0
C2392 C 0.79768 0.77246 0.1245 0.0
C2393 C 0.79867 0.76439 0.10018 0.0
C2394 C 0.80513 0.75717 0.20216 0.0
C2395 C 0.81142 0.78045 0.21706 0.0
C2396 C 0.80489 0.75459 0.17758 0.0
C2397 C 0.81145 0.77519 0.16724 0.0
C2398 C 0.81717 0.79863 0.18192 0.0
C2399 C 0.81707 0.80127 0.2067 0.0
H2400 H 0.17582 1.01431 0.68545 0.0
H2401 H 0.12833 0.04379 0.72207 0.0
H2402 H 0.16014 0.02077 0.64813 0.0
H2403 H 0.11259 0.05068 0.68445 0.0
H2404 H 0.07891 0.04686 0.60616 0.0
H2405 H 0.09236 0.04061 0.64538 0.0
H2406 H 0.15658 0.04624 0.6228 0.0
H2407 H 0.14315 0.05191 0.58435 0.0
C2408 C 0.1619 0.02209 0.68577 0.0
C2409 C 0.15369 0.02825 0.70767 0.0
C2410 C 0.15283 0.0262 0.66392 0.0
C2411 C 0.13485 0.03683 0.66224 0.0
C2412 C 0.12624 0.04247 0.68409 0.0
C2413 C 0.13543 0.03844 0.70608 0.0
C2414 C 0.09596 0.04703 0.60962 0.0
C2415 C 0.10971 0.04995 0.59131 0.0
C2416 C 0.10385 0.04331 0.63243 0.0
C2417 C 0.12585 0.04215 0.63812 0.0
C2418 C 0.13948 0.04599 0.61988 0.0
C2419 C 0.13168 0.04965 0.59741 0.0
H2420 H 0.84318 0.3621 0.47027 0.0
H2421 H 0.83538 0.42116 0.43592 0.0
H2422 H 0.84393 0.33689 0.43161 0.0
H2423 H 0.83694 0.39646 0.39772 0.0
H2424 H 0.80866 0.33887 0.33462 0.0
H2425 H 0.81039 0.36069 0.37473 0.0
H2426 H 0.86497 0.33325 0.39589 0.0
H2427 H 0.86208 0.30969 0.35513 0.0
C2428 C 0.84166 0.36967 0.45448 0.0
C2429 C 0.83857 0.39327 0.45592 0.0
C2430 C 0.84236 0.35537 0.43249 0.0
C2431 C 0.84012 0.36464 0.41178 0.0
C2432 C 0.83812 0.38867 0.41343 0.0
C2433 C 0.83716 0.40278 0.43526 0.0
C2434 C 0.82057 0.33686 0.34794 0.0
C2435 C 0.83488 0.32228 0.3422 0.0
C2436 C 0.82185 0.34971 0.37082 0.0
C2437 C 0.83806 0.34897 0.38825 0.0
C2438 C 0.85227 0.33397 0.38269 0.0
C2439 C 0.85066 0.32059 0.35959 0.0
H2440 H 0.50076 0.06656 0.27921 0.0
H2441 H 0.44005 0.06473 0.2388 0.0
H2442 H 0.51697 0.05871 0.24303 0.0
H2443 H 0.45683 0.05713 0.20192 0.0
H2444 H 0.49016 1.00129 0.15301 0.0
H2445 H 0.47026 0.01971 0.18297 0.0
H2446 H 0.52867 0.07857 0.20887 0.0
H2447 H 0.5485 0.06003 0.17917 0.0
C2448 C 0.49103 0.06518 0.26258 0.0
C2449 C 0.46917 0.06646 0.26182 0.0
C2450 C 0.50041 0.06079 0.24182 0.0
C2451 C 0.48825 0.05777 0.21978 0.0
C2452 C 0.4665 0.05955 0.21882 0.0
C2453 C 0.45697 0.0639 0.2398 0.0
C2454 C 0.49854 1.01831 0.16501 0.0
C2455 C 0.52087 0.02903 0.1644 0.0
C2456 C 0.48713 0.02902 0.1818 0.0
C2457 C 0.49807 0.05037 0.19826 0.0
C2458 C 0.51997 0.062 0.1964 0.0
C2459 C 0.5313 0.0514 0.17955 0.0
H2460 H 0.83939 0.73401 0.95111 0.0
H2461 H 0.78477 0.76637 0.95628 0.0
H2462 H 0.8435 0.74399 0.91169 0.0
H2463 H 0.78867 0.77596 0.91706 0.0
H2464 H 0.81395 0.8116 0.8567 0.0
H2465 H 0.8133 0.80285 0.89651 0.0
H2466 H 0.82376 0.73188 0.87039 0.0
H2467 H 0.82453 0.74088 0.83021 0.0
C2468 C 0.82832 0.74332 0.94394 0.0
C2469 C 0.8118 0.74945 0.95704 0.0
C2470 C 0.83058 0.74889 0.92124 0.0
C2471 C 0.81643 0.7608 0.91109 0.0
C2472 C 0.8001 0.76712 0.92435 0.0
C2473 C 0.79782 0.76154 0.94692 0.0
C2474 C 0.81656 0.7943 0.85949 0.0
C2475 C 0.81962 0.77707 0.84033 0.0
C2476 C 0.8159 0.78914 0.88232 0.0
C2477 C 0.81841 0.7666 0.88679 0.0
C2478 C 0.82192 0.74949 0.86768 0.0
C2479 C 0.82225 0.75455 0.84464 0.0
H2480 H 0.84897 0.11504 0.999 0.0
H2481 H 0.8566 0.11053 0.07301 0.0
H2482 H 0.88196 0.10064 0.99311 0.0
H2483 H 0.88984 0.09653 0.06715 0.0
H2484 H 0.95767 0.0951 0.01442 0.0
H2485 H 0.93096 0.1176 0.0272 0.0
H2486 H 0.88175 0.04927 0.02124 0.0
H2487 H 0.90835 0.02651 1.00884 0.0
C2488 C 0.85804 0.11144 0.014 0.0
C2489 C 0.85039 0.11324 0.03628 0.0
C2490 C 0.8768 0.10348 1.01071 0.0
C2491 C 0.88805 0.09778 0.02979 0.0
C2492 C 0.88115 0.10096 0.05237 0.0
C2493 C 0.86222 0.10861 0.0556 0.0
C2494 C 0.94125 0.08487 0.01626 0.0
C2495 C 0.93489 0.05908 1.01055 0.0
C2496 C 0.92614 0.09774 0.02349 0.0
C2497 C 0.90471 0.08487 0.02511 0.0
C2498 C 0.89844 0.05924 0.02013 0.0
C2499 C 0.91348 0.04636 0.01285 0.0
H2500 H 0.39948 0.48204 0.07111 0.0
H2501 H 0.4141 0.41975 0.0282 0.0
H2502 H 0.43779 0.50512 0.07393 0.0
H2503 H 0.45193 0.44293 0.03005 0.0
H2504 H 0.52319 0.48078 0.05131 0.0
H2505 H 0.48537 0.45863 0.05268 0.0
H2506 H 0.46569 0.52584 0.05501 0.0
H2507 H 0.5037 0.54794 0.05475 0.0
C2508 C 0.4108 0.4733 0.06212 0.0
C2509 C 0.40356 0.44892 0.0495 0.0
C2510 C 0.43287 0.48662 0.06361 0.0
C2511 C 0.44836 0.47605 0.05237 0.0
C2512 C 0.44091 0.45173 0.03952 0.0
C2513 C 0.41898 0.43839 0.03824 0.0
C2514 C 0.51081 0.49088 0.05247 0.0
C2515 C 0.51664 0.51627 0.05322 0.0
C2516 C 0.48895 0.4781 0.05298 0.0
C2517 C 0.47204 0.49018 0.05367 0.0
C2518 C 0.47803 0.51574 0.05487 0.0
C2519 C 0.5 0.52858 0.05478 0.0
H2520 H 0.40659 0.6593 0.79835 0.0
H2521 H 0.39093 0.63611 0.7228 0.0
H2522 H 0.38896 0.69288 0.79747 0.0
H2523 H 0.37345 0.66943 0.72174 0.0
H2524 H 0.35819 0.74356 0.71961 0.0
H2525 H 0.37406 0.70956 0.72209 0.0
H2526 H 0.35972 0.71264 0.79437 0.0
H2527 H 0.34399 0.74764 0.79181 0.0
C2528 C 0.39946 0.66116 0.78139 0.0
C2529 C 0.40068 0.64418 0.76064 0.0
C2530 C 0.38902 0.68075 0.78087 0.0
C2531 C 0.37935 0.68507 0.7595 0.0
C2532 C 0.38061 0.66794 0.73881 0.0
C2533 C 0.39074 0.64822 0.73939 0.0
C2534 C 0.3581 0.73708 0.73616 0.0
C2535 C 0.34917 0.74904 0.7553 0.0
C2536 C 0.36734 0.71697 0.73759 0.0
C2537 C 0.36862 0.7071 0.75843 0.0
C2538 C 0.35962 0.71903 0.7778 0.0
C2539 C 0.35019 0.73934 0.7763 0.0
H2540 H 0.23074 0.6377 0.50505 0.0
H2541 H 0.24076 0.59789 0.56018 0.0
H2542 H 0.19298 0.63413 0.51359 0.0
H2543 H 0.20352 0.59524 0.56928 0.0
H2544 H 0.13017 0.56556 0.55245 0.0
H2545 H 0.16825 0.57356 0.54969 0.0
H2546 H 0.17045 0.64821 0.54435 0.0
H2547 H 0.13079 0.63961 0.54753 0.0
C2548 C 0.22478 0.62794 0.51879 0.0
C2549 C 0.23859 0.61782 0.5318 0.0
C2550 C 0.20337 0.6264 0.52399 0.0
C2551 C 0.19548 0.6148 0.54234 0.0
C2552 C 0.20916 0.60422 0.55496 0.0
C2553 C 0.23041 0.60547 0.54956 0.0
C2554 C 0.13847 0.58389 0.55175 0.0
C2555 C 0.12727 0.60194 0.55095 0.0
C2556 C 0.16065 0.58856 0.55 0.0
C2557 C 0.17244 0.61154 0.54692 0.0
C2558 C 0.16163 0.63021 0.54665 0.0
C2559 C 0.13909 0.6254 0.54868 0.0
H2560 H 0.74547 0.98182 0.71197 0.0
H2561 H 0.72666 1.00221 0.78179 0.0
H2562 H 0.75351 0.94556 0.72302 0.0
H2563 H 0.73582 0.96722 0.79332 0.0
H2564 H 0.76046 0.91223 0.81732 0.0
H2565 H 0.73475 0.92634 0.79317 0.0
H2566 H 0.7849 0.94628 0.74737 0.0
H2567 H 0.80964 0.93071 0.77062 0.0
C2568 C 0.7428 0.97831 0.72955 0.0
C2569 C 0.7362 0.99504 0.74634 0.0
C2570 C 0.74732 0.95759 0.73586 0.0
C2571 C 0.74588 0.95384 0.75922 0.0
C2572 C 0.73703 0.96934 0.77512 0.0
C2573 C 0.73206 0.98968 0.76864 0.0
C2574 C 0.76552 0.91905 0.80164 0.0
C2575 C 0.78689 0.92104 0.79585 0.0
C2576 C 0.75093 0.92706 0.78784 0.0
C2577 C 0.75789 0.93787 0.76863 0.0
C2578 C 0.7788 0.93782 0.76182 0.0
C2579 C 0.79315 0.92928 0.77529 0.0
H2580 H 0.80836 0.98663 0.5464 0.0
H2581 H 0.76363 0.91814 0.55103 0.0
H2582 H 0.77774 1.00457 0.54151 0.0
H2583 H 0.73268 0.93645 0.54783 0.0
H2584 H 0.68223 0.97151 0.51362 0.0
H2585 H 0.71047 0.95079 0.52226 0.0
H2586 H 0.75222 0.01978 0.56165 0.0
H2587 H 0.72444 0.04029 0.55176 0.0
C2588 C 0.79186 0.97552 0.54652 0.0
C2589 C 0.78822 0.95105 0.5488 0.0
C2590 C 0.77426 0.98584 0.54407 0.0
C2591 C 0.75258 0.97216 0.54463 0.0
C2592 C 0.74903 0.94752 0.54701 0.0
C2593 C 0.7667 0.937 0.54886 0.0
C2594 C 0.69734 0.98198 0.52449 0.0
C2595 C 0.70135 1.00743 0.53195 0.0
C2596 C 0.71355 0.97018 0.52949 0.0
C2597 C 0.73399 0.98366 0.54216 0.0
C2598 C 0.73709 1.00886 0.55112 0.0
C2599 C 0.72107 0.02063 0.54581 0.0
H2600 H 0.42456 0.49182 0.744 0.0
H2601 H 0.38888 0.51434 0.80081 0.0
H2602 H 0.40496 0.44895 0.74186 0.0
H2603 H 0.36948 0.47129 0.79927 0.0
H2604 H 0.32534 0.39159 0.78107 0.0
H2605 H 0.3433 0.43443 0.78149 0.0
H2606 H 0.40046 0.41359 0.75818 0.0
H2607 H 0.38216 0.37058 0.75757 0.0
C2608 C 0.41226 0.4877 0.75591 0.0
C2609 C 0.40811 0.5071 0.77215 0.0
C2610 C 0.40108 0.46276 0.75493 0.0
C2611 C 0.38528 0.45571 0.77041 0.0
C2612 C 0.38104 0.47528 0.7866 0.0
C2613 C 0.39221 0.50031 0.7875 0.0
C2614 C 0.34153 0.39587 0.77553 0.0
C2615 C 0.35177 0.37684 0.76877 0.0
C2616 C 0.35219 0.42091 0.77615 0.0
C2617 C 0.37368 0.42842 0.76979 0.0
C2618 C 0.38391 0.40928 0.76294 0.0
C2619 C 0.37334 0.38425 0.76268 0.0
H2620 H 0.28249 0.62641 0.23778 0.0
H2621 H 0.23228 0.64082 0.28142 0.0
H2622 H 0.29615 0.67045 0.23901 0.0
H2623 H 0.24592 0.68411 0.28265 0.0
H2624 H 0.26104 0.757 0.26759 0.0
H2625 H 0.24848 0.71262 0.25406 0.0
H2626 H 0.31371 0.7065 0.27383 0.0
H2627 H 0.32623 0.75096 0.28693 0.0
C2628 C 0.27451 0.63894 0.24768 0.0
C2629 C 0.25641 0.63037 0.25952 0.0
C2630 C 0.28218 0.6639 0.24819 0.0
C2631 C 0.27171 0.68023 0.26049 0.0
C2632 C 0.25382 0.67164 0.2725 0.0
C2633 C 0.24624 0.64691 0.27205 0.0
C2634 C 0.27266 0.74603 0.26843 0.0
C2635 C 0.29454 0.75684 0.27754 0.0
C2636 C 0.2656 0.72092 0.2607 0.0
C2637 C 0.28027 0.70651 0.26291 0.0
C2638 C 0.30234 0.71748 0.27158 0.0
C2639 C 0.30941 0.74269 0.27925 0.0
H2640 H 0.52817 0.70052 0.4675 0.0
H2641 H 0.58557 0.74335 0.51468 0.0
H2642 H 0.53183 0.66368 0.48145 0.0
H2643 H 0.58912 0.70646 0.52884 0.0
H2644 H 0.57257 0.63747 0.56567 0.0
H2645 H 0.57147 0.67546 0.55206 0.0
H2646 H 0.55532 0.63504 0.47991 0.0
H2647 H 0.55706 0.59738 0.49358 0.0
C2648 C 0.54153 0.70221 0.48098 0.0
C2649 C 0.55647 0.72526 0.48991 0.0
C2650 C 0.54375 0.6809 0.48891 0.0
C2651 C 0.56085 0.68172 0.50635 0.0
C2652 C 0.57563 0.70485 0.51556 0.0
C2653 C 0.57359 0.72614 0.50736 0.0
C2654 C 0.56918 0.63682 0.54686 0.0
C2655 C 0.56531 0.61434 0.53072 0.0
C2656 C 0.5685 0.65866 0.53899 0.0
C2657 C 0.56311 0.65864 0.51477 0.0
C2658 C 0.55929 0.63603 0.49869 0.0
C2659 C 0.56045 0.61435 0.50651 0.0
H2660 H 0.6608 0.30533 0.68968 0.0
H2661 H 0.69865 0.3623 0.65807 0.0
H2662 H 0.69361 0.30439 0.71322 0.0
H2663 H 0.7318 0.36224 0.68271 0.0
H2664 H 0.79152 0.33968 0.71494 0.0
H2665 H 0.75925 0.34217 0.69049 0.0
H2666 H 0.71915 0.32293 0.74547 0.0
H2667 H 0.75096 0.31927 0.76899 0.0
C2668 C 0.67609 0.31812 0.68805 0.0
C2669 C 0.67674 0.33411 0.67196 0.0
C2670 C 0.69514 0.31765 0.7018 0.0
C2671 C 0.71578 0.33343 0.70043 0.0
C2672 C 0.71647 0.34955 0.68434 0.0
C2673 C 0.69732 0.34978 0.67025 0.0
C2674 C 0.77579 0.33606 0.72182 0.0
C2675 C 0.77416 0.32981 0.74436 0.0
C2676 C 0.75718 0.33765 0.7078 0.0
C2677 C 0.73616 0.33279 0.71568 0.0
C2678 C 0.73471 0.32659 0.7383 0.0
C2679 C 0.75325 0.325 0.75223 0.0
H2680 H 0.0168 0.35608 0.01591 0.0
H2681 H 0.05949 0.37332 0.96264 0.0
H2682 H 0.0222 0.39981 0.03154 0.0
H2683 H 0.06505 0.41702 0.97831 0.0
H2684 H 0.05756 0.4943 0.99738 0.0
H2685 H 0.04758 0.45008 0.9815 0.0
H2686 H 0.04846 0.43657 0.05289 0.0
H2687 H 0.05815 0.4808 0.0685 0.0
C2688 C 0.02748 0.36917 1.00759 0.0
C2689 C 0.03775 0.36093 0.98798 0.0
C2690 C 0.03062 0.39438 0.01662 0.0
C2691 C 0.04395 0.4123 1.0062 0.0
C2692 C 0.05435 0.404 0.98668 0.0
C2693 C 0.05136 0.3788 0.9778 0.0
C2694 C 0.05476 0.4818 1.0096 0.0
C2695 C 0.05784 0.49108 0.03419 0.0
C2696 C 0.04947 0.45639 1.00054 0.0
C2697 C 0.04738 0.43941 0.0158 0.0
C2698 C 0.04964 0.4488 0.04044 0.0
C2699 C 0.05506 0.47423 0.04946 0.0
H2700 H 0.03783 0.78081 0.16384 0.0
H2701 H 0.04707 0.85835 0.1673 0.0
H2702 H 1.00315 0.77834 0.18046 0.0
H2703 H 0.01236 0.85604 0.18471 0.0
H2704 H 0.9708 0.83907 0.24981 0.0
H2705 H 1.00066 0.84628 0.22494 0.0
H2706 H 0.96466 0.78374 0.17188 0.0
H2707 H 0.93467 0.77676 0.19684 0.0
C2708 C 0.03237 0.79734 0.16812 0.0
C2709 C 0.04522 0.81981 0.16447 0.0
C2710 C 0.01239 0.79588 0.17742 0.0
C2711 C 1.00496 0.81697 0.18385 0.0
C2712 C 0.01766 0.83947 0.17989 0.0
C2713 C 0.03748 0.84081 0.16994 0.0
C2714 C 0.96901 0.82742 0.23246 0.0
C2715 C 0.95045 0.8075 0.2251 0.0
C2716 C 0.98607 0.83153 0.21822 0.0
C2717 C 0.98508 0.8155 0.19651 0.0
C2718 C 0.96593 0.79631 0.18859 0.0
C2719 C 0.94872 0.7924 0.20274 0.0
H2720 H 0.55259 0.29738 0.10896 0.0
H2721 H 0.51072 0.33873 0.14303 0.0
H2722 H 0.5663 0.32968 0.08776 0.0
H2723 H 0.52468 0.37157 0.12134 0.0
H2724 H 0.53572 0.40047 0.04897 0.0
H2725 H 0.52252 0.37436 0.07707 0.0
H2726 H 0.58909 0.37327 0.09768 0.0
H2727 H 0.60217 0.39894 0.0692 0.0
C2728 C 0.54622 0.31339 0.11182 0.0
C2729 C 0.53048 0.31557 0.12745 0.0
C2730 C 0.55432 0.33201 0.09992 0.0
C2731 C 0.54673 0.35312 0.10323 0.0
C2732 C 0.5308 0.35539 0.11869 0.0
C2733 C 0.52285 0.33673 0.13098 0.0
C2734 C 0.54742 0.39453 0.05955 0.0
C2735 C 0.56979 0.40084 0.05659 0.0
C2736 C 0.53995 0.38001 0.07579 0.0
C2737 C 0.55483 0.37181 0.08929 0.0
C2738 C 0.57734 0.37915 0.08711 0.0
C2739 C 0.58477 0.39349 0.07074 0.0
H2740 H 0.06455 0.31349 0.33624 0.0
H2741 H 0.05991 0.36458 0.39923 0.0
H2742 H 0.02892 0.31542 0.31914 0.0
H2743 H 0.02422 0.36629 0.38208 0.0
H2744 H 0.9816 0.38923 0.32497 0.0
H2745 H 0.01361 0.38373 0.34715 0.0
H2746 H 0.98871 0.30517 0.3255 0.0
H2747 H 0.95674 0.31071 0.30299 0.0
C2748 C 0.05585 0.32494 0.34651 0.0
C2749 C 0.06509 0.33905 0.36896 0.0
C2750 C 0.0354 0.32587 0.33681 0.0
C2751 C 0.02394 0.34102 0.34934 0.0
C2752 C 0.03288 0.35462 0.37204 0.0
C2753 C 0.05326 0.35359 0.38182 0.0
C2754 C 0.98297 0.37082 0.32504 0.0
C2755 C 0.96694 0.35041 0.31212 0.0
C2756 C 1.00111 0.36766 0.33791 0.0
C2757 C 1.00356 0.34403 0.33791 0.0
C2758 C 0.98719 0.32356 0.32558 0.0
C2759 C 0.96893 0.32672 0.31285 0.0
H2760 H 0.98927 0.71005 0.60268 0.0
H2761 H 0.98883 0.67933 0.66607 0.0
H2762 H 1.0016 0.67641 0.58184 0.0
H2763 H 1.00046 0.64504 0.64481 0.0
H2764 H 0.05991 0.62163 0.61658 0.0
H2765 H 0.03715 0.64686 0.63417 0.0
H2766 H 0.99879 0.63459 0.5661 0.0
H2767 H 0.02178 0.6103 0.54847 0.0
C2768 C 0.99081 0.69553 0.61188 0.0
C2769 C 0.98896 0.69782 0.63629 0.0
C2770 C 0.99795 0.6762 0.59989 0.0
C2771 C 1.00286 0.65866 0.61204 0.0
C2772 C 0.99761 0.65889 0.63534 0.0
C2773 C 0.99064 0.67834 0.6474 0.0
C2774 C 0.0467 0.62442 0.60536 0.0
C2775 C 0.04287 0.61406 0.58105 0.0
C2776 C 0.03343 0.63856 0.61549 0.0
C2777 C 0.01593 0.64237 0.60156 0.0
C2778 C 0.01218 0.6321 0.57728 0.0
C2779 C 0.02557 0.61828 0.56714 0.0
H2780 H 0.66672 0.84583 0.82158 0.0
H2781 H 0.68901 0.81185 0.87644 0.0
H2782 H 0.69685 0.8391 0.79965 0.0
H2783 H 0.71845 0.80399 0.85396 0.0
H2784 H 0.78423 0.82774 0.82716 0.0
H2785 H 0.75153 0.8295 0.84629 0.0
H2786 H 0.71292 0.81016 0.77744 0.0
H2787 H 0.74642 0.8103 0.75837 0.0
C2788 C 0.67785 0.83654 0.82871 0.0
C2789 C 0.67579 0.82964 0.85079 0.0
C2790 C 0.69496 0.83248 0.81606 0.0
C2791 C 0.71006 0.82119 0.8252 0.0
C2792 C 0.70731 0.81322 0.84676 0.0
C2793 C 0.69044 0.81764 0.85957 0.0
C2794 C 0.76867 0.82388 0.81625 0.0
C2795 C 0.76737 0.81835 0.79152 0.0
C2796 C 0.74995 0.82458 0.82712 0.0
C2797 C 0.72961 0.81955 0.81335 0.0
C2798 C 0.72843 0.81424 0.78845 0.0
C2799 C 0.74739 0.81411 0.77755 0.0
H2800 H 0.46477 0.5828 0.69542 0.0
H2801 H 0.52305 0.58005 0.73654 0.0
H2802 H 0.48346 0.581 0.65973 0.0
H2803 H 0.54202 0.57848 0.70065 0.0
H2804 H 0.57679 0.5926 0.6321 0.0
H2805 H 0.55938 0.59636 0.66901 0.0
H2806 H 0.49679 0.5574 0.62947 0.0
H2807 H 0.51403 0.55375 0.59304 0.0
C2808 C 0.48169 0.58202 0.69712 0.0
C2809 C 0.49199 0.5817 0.71967 0.0
C2810 C 0.49258 0.58073 0.6762 0.0
C2811 C 0.51469 0.5794 0.67635 0.0
C2812 C 0.5252 0.57959 0.69904 0.0
C2813 C 0.51413 0.58044 0.71997 0.0
C2814 C 0.55929 0.58492 0.63108 0.0
C2815 C 0.54721 0.57296 0.60871 0.0
C2816 C 0.54912 0.58694 0.65263 0.0
C2817 C 0.52619 0.57736 0.65312 0.0
C2818 C 0.51424 0.56558 0.63067 0.0
C2819 C 0.52438 0.56337 0.60932 0.0
H2820 H 0.83567 0.23383 0.99781 0.0
H2821 H 0.79689 0.16412 0.95748 0.0
H2822 H 0.83213 0.25254 0.96336 0.0
H2823 H 0.79162 0.1829 0.92371 0.0
H2824 H 0.78434 0.22019 0.86393 0.0
H2825 H 0.80212 0.20222 0.89265 0.0
H2826 H 0.80285 0.26447 0.94767 0.0
H2827 H 0.78643 0.28267 0.91856 0.0
C2828 C 0.82677 0.22249 0.98133 0.0
C2829 C 0.81651 0.1977 0.98006 0.0
C2830 C 0.82448 0.23318 0.96172 0.0
C2831 C 0.81112 0.2194 0.94091 0.0
C2832 C 0.80225 0.19408 0.93925 0.0
C2833 C 0.80518 0.18326 0.95862 0.0
C2834 C 0.78873 0.22998 0.88216 0.0
C2835 C 0.78404 0.25252 0.88939 0.0
C2836 C 0.7988 0.21977 0.8986 0.0
C2837 C 0.80389 0.2318 0.92255 0.0
C2838 C 0.79967 0.25484 0.92937 0.0
C2839 C 0.78999 0.26518 0.91285 0.0
H2840 H 0.18925 0.53942 0.17318 0.0
H2841 H 0.1458 0.53951 0.22804 0.0
H2842 H 0.15885 0.53545 0.14369 0.0
H2843 H 0.11509 0.53532 0.19803 0.0
H2844 H 0.08906 0.57455 0.13679 0.0
H2845 H 0.1102 0.56733 0.17089 0.0
H2846 H 0.12195 0.50388 0.12657 0.0
H2847 H 0.10125 0.51148 0.09264 0.0
C2848 C 0.1731 0.53805 0.17884 0.0
C2849 C 0.16976 0.5397 0.20278 0.0
C2850 C 0.15572 0.53561 0.16197 0.0
C2851 C 0.13479 0.53473 0.16881 0.0
C2852 C 0.1312 0.53575 0.1926 0.0
C2853 C 0.14865 0.53803 0.20958 0.0
C2854 C 0.0957 0.55873 0.1348 0.0
C2855 C 0.09411 0.54362 0.11261 0.0
C2856 C 0.10749 0.55447 0.15413 0.0
C2857 C 0.11753 0.53509 0.15102 0.0
C2858 C 0.11424 0.51887 0.12912 0.0
C2859 C 0.10263 0.52324 0.10988 0.0
H2860 H 0.85696 0.83149 0.46994 0.0
H2861 H 0.81155 0.87568 0.46337 0.0
H2862 H 0.85391 0.81976 0.4266 0.0
H2863 H 0.80839 0.8638 0.42032 0.0
H2864 H 0.8305 0.86745 0.34841 0.0
H2865 H 0.83452 0.8745 0.39148 0.0
H2866 H 0.82771 0.79737 0.38865 0.0
H2867 H 0.82352 0.79027 0.34489 0.0
C2868 C 0.84606 0.83841 0.45931 0.0
C2869 C 0.83464 0.85474 0.47021 0.0
C2870 C 0.8443 0.83161 0.43446 0.0
C2871 C 0.83118 0.84112 0.41996 0.0
C2872 C 0.81901 0.85652 0.43093 0.0
C2873 C 0.82071 0.86323 0.45567 0.0
C2874 C 0.83015 0.852 0.35695 0.0
C2875 C 0.82682 0.82836 0.34329 0.0
C2876 C 0.83227 0.85601 0.38166 0.0
C2877 C 0.83097 0.83645 0.39357 0.0
C2878 C 0.8287 0.81282 0.38 0.0
C2879 C 0.82642 0.80875 0.35499 0.0
H2880 H 0.51935 0.5325 0.84533 0.0
H2881 H 0.4947 0.59251 0.87707 0.0
H2882 H 0.53507 0.52996 0.88481 0.0
H2883 H 0.51021 0.58998 0.91631 0.0
H2884 H 0.51829 0.56379 0.98666 0.0
H2885 H 0.50549 0.56627 0.94675 0.0
H2886 H 0.5628 0.54771 0.9214 0.0
H2887 H 0.57633 0.54634 0.96234 0.0
C2888 C 0.51728 0.54534 0.86059 0.0
C2889 C 0.5054 0.56275 0.85727 0.0
C2890 C 0.52649 0.54391 0.88356 0.0
C2891 C 0.52411 0.55958 0.90463 0.0
C2892 C 0.51243 0.57712 0.90115 0.0
C2893 C 0.50347 0.57872 0.87825 0.0
C2894 C 0.52845 0.56021 0.97279 0.0
C2895 C 0.54847 0.5545 0.97855 0.0
C2896 C 0.52098 0.5618 0.94946 0.0
C2897 C 0.53281 0.55739 0.92995 0.0
C2898 C 0.5528 0.55121 0.93543 0.0
C2899 C 0.56064 0.55023 0.95919 0.0
H2900 H 0.84618 0.20447 0.11457 0.0
H2901 H 0.77599 0.18316 0.09597 0.0
H2902 H 0.84259 0.23731 0.14622 0.0
H2903 H 0.77239 0.21672 0.12622 0.0
H2904 H 0.77623 0.25668 0.2039 0.0
H2905 H 0.77533 0.22808 0.1677 0.0
H2906 H 0.83366 0.27662 0.15097 0.0
H2907 H 0.83462 0.30533 0.1878 0.0
C2908 C 0.83006 0.20688 0.11745 0.0
C2909 C 0.81135 0.19137 0.10344 0.0
C2910 C 0.82798 0.22582 0.13511 0.0
C2911 C 0.80723 0.22984 0.13828 0.0
C2912 C 0.78854 0.21398 0.12428 0.0
C2913 C 0.79057 0.19471 0.10715 0.0
C2914 C 0.78863 0.26161 0.19229 0.0
C2915 C 0.80654 0.28234 0.19946 0.0
C2916 C 0.78804 0.24518 0.17142 0.0
C2917 C 0.80503 0.24965 0.15711 0.0
C2918 C 0.82094 0.27229 0.16237 0.0
C2919 C 0.82151 0.28874 0.18339 0.0
H2920 H 0.19979 0.55142 0.34496 0.0
H2921 H 0.17527 0.60656 0.31788 0.0
H2922 H 0.18378 0.5609 0.38187 0.0
H2923 H 0.15915 0.61554 0.35401 0.0
H2924 H 0.13532 0.63382 0.42244 0.0
H2925 H 0.1641 0.63103 0.39659 0.0
H2926 H 0.14482 0.55208 0.38789 0.0
H2927 H 0.11657 0.55494 0.41377 0.0
C2928 C 0.19125 0.5657 0.34702 0.0
C2929 C 0.18834 0.57789 0.32847 0.0
C2930 C 0.18217 0.57115 0.36806 0.0
C2931 C 0.17023 0.58893 0.37073 0.0
C2932 C 0.16853 0.60204 0.35266 0.0
C2933 C 0.17748 0.59656 0.33176 0.0
C2934 C 0.13752 0.61598 0.41513 0.0
C2935 C 0.12374 0.5946 0.4198 0.0
C2936 C 0.154 0.61437 0.40056 0.0
C2937 C 0.15665 0.59133 0.39029 0.0
C2938 C 0.14348 0.57009 0.39593 0.0
C2939 C 0.12716 0.57172 0.41055 0.0
H2940 H 0.8191 0.83199 0.5864 0.0
H2941 H 0.8325 0.90474 0.62922 0.0
H2942 H 0.80906 0.81454 0.62118 0.0
H2943 H 0.824 0.88775 0.66382 0.0
H2944 H 0.79626 0.85677 0.72297 0.0
H2945 H 0.79835 0.86967 0.68491 0.0
H2946 H 0.82093 0.80632 0.65664 0.0
H2947 H 0.8168 0.7926 0.6941 0.0
C2948 C 0.82007 0.84424 0.60324 0.0
C2949 C 0.82654 0.86977 0.60493 0.0
C2950 C 0.8144 0.83427 0.6233 0.0
C2951 C 0.81542 0.84961 0.6456 0.0
C2952 C 0.82219 0.87512 0.64708 0.0
C2953 C 0.82741 0.88498 0.6271 0.0
C2954 C 0.80119 0.84544 0.70836 0.0
C2955 C 0.80634 0.82376 0.7114 0.0
C2956 C 0.80273 0.85294 0.68656 0.0
C2957 C 0.81043 0.83949 0.66755 0.0
C2958 C 0.81474 0.81719 0.6705 0.0
C2959 C 0.81243 0.80929 0.69206 0.0
H2960 H 0.79678 0.51844 0.49618 0.0
H2961 H 0.77572 0.46558 0.54015 0.0
H2962 H 0.7659 0.53565 0.50505 0.0
H2963 H 0.74586 0.48358 0.5505 0.0
H2964 H 0.69087 0.51914 0.56263 0.0
H2965 H 0.71312 0.49476 0.54252 0.0
H2966 H 0.76278 0.56125 0.54101 0.0
H2967 H 0.7398 0.58556 0.55964 0.0
C2968 C 0.78501 0.51005 0.50707 0.0
C2969 C 0.78824 0.49078 0.51743 0.0
C2970 C 0.76762 0.52007 0.51249 0.0
C2971 C 0.75388 0.51146 0.52906 0.0
C2972 C 0.75604 0.49059 0.5376 0.0
C2973 C 0.77307 0.4802 0.53165 0.0
C2974 C 0.70651 0.5285 0.55783 0.0
C2975 C 0.71365 0.55424 0.56261 0.0
C2976 C 0.71925 0.51454 0.54638 0.0
C2977 C 0.73954 0.52606 0.53981 0.0
C2978 C 0.74692 0.5518 0.5452 0.0
C2979 C 0.73405 0.56576 0.55641 0.0
H2980 H 0.25765 0.12857 0.51962 0.0
H2981 H 0.23272 0.18318 0.49217 0.0
H2982 H 0.22008 0.10404 0.51923 0.0
H2983 H 0.19535 0.15864 0.49169 0.0
H2984 H 0.13488 0.12573 0.52789 0.0
H2985 H 0.17169 0.14801 0.52274 0.0
H2986 H 0.18576 0.07992 0.49291 0.0
H2987 H 0.14882 0.05768 0.4978 0.0
C2988 C 0.24422 0.13519 0.51316 0.0
C2989 C 0.24829 0.15799 0.50612 0.0
C2990 C 0.22266 0.12109 0.51289 0.0
C2991 C 0.20468 0.1295 0.50566 0.0
C2992 C 0.20879 0.15182 0.49775 0.0
C2993 C 0.23028 0.16583 0.49792 0.0
C2994 C 0.1457 0.11542 0.52007 0.0
C2995 C 0.13876 0.08969 0.51348 0.0
C2996 C 0.16683 0.12827 0.517 0.0
C2997 C 0.18176 0.11576 0.50751 0.0
C2998 C 0.17476 0.09011 0.50051 0.0
C2999 C 0.15346 0.0773 0.50323 0.0
H3000 H 0.24692 0.95399 0.72239 0.0
H3001 H 0.23761 0.95957 0.79603 0.0
H3002 H 0.26511 0.9213 0.72463 0.0
H3003 H 0.25573 0.92744 0.79872 0.0
H3004 H 0.29091 0.86822 0.80525 0.0
H3005 H 0.2748 0.9016 0.80205 0.0
H3006 H 0.27922 0.88921 0.72667 0.0
H3007 H 0.29615 0.85561 0.73052 0.0
C3008 C 0.24877 0.94846 0.73927 0.0
C3009 C 0.24037 0.96023 0.75899 0.0
C3010 C 0.25943 0.92919 0.74065 0.0
C3011 C 0.26279 0.92045 0.76198 0.0
C3012 C 0.25429 0.93251 0.78165 0.0
C3013 C 0.24345 0.95147 0.78015 0.0
C3014 C 0.28879 0.87266 0.78788 0.0
C3015 C 0.29546 0.85862 0.76836 0.0
C3016 C 0.27903 0.89225 0.78585 0.0
C3017 C 0.27465 0.89931 0.7639 0.0
C3018 C 0.28175 0.88539 0.74419 0.0
C3019 C 0.29184 0.86574 0.74635 0.0
H3020 H 0.40182 1.01641 0.99863 0.0
H3021 H 0.40904 0.95219 0.02464 0.0
H3022 H 0.44165 0.03038 0.99962 0.0
H3023 H 0.44841 0.96636 0.02616 0.0
H3024 H 0.51833 0.98984 0.01695 0.0
H3025 H 0.47909 0.97484 1.00323 0.0
H3026 H 0.47025 0.04554 0.03419 0.0
H3027 H 0.50926 0.05996 0.04771 0.0
C3028 C 0.41189 1.00527 1.00441 0.0
C3029 C 0.40248 0.98343 0.01184 0.0
C3030 C 0.43456 1.01319 1.00489 0.0
C3031 C 0.44796 0.99937 0.01289 0.0
C3032 C 0.43842 0.97711 0.01946 0.0
C3033 C 0.41588 0.96916 0.01885 0.0
C3034 C 0.50797 1.00229 0.01983 0.0
C3035 C 0.51671 0.02657 0.03162 0.0
C3036 C 0.48563 0.99373 0.01231 0.0
C3037 C 0.47181 1.00926 0.01721 0.0
C3038 C 0.48067 0.0335 0.02935 0.0
C3039 C 0.50294 0.04187 0.03697 0.0
H3040 H 0.92103 0.64893 0.82388 0.0
H3041 H 0.86361 0.59702 0.83754 0.0
H3042 H 0.89808 0.673 0.80996 0.0
H3043 H 0.84053 0.6218 0.82491 0.0
H3044 H 0.81436 0.63337 0.75199 0.0
H3045 H 0.83404 0.62054 0.78291 0.0
H3046 H 0.87082 0.69577 0.80993 0.0
H3047 H 0.85175 0.70843 0.77808 0.0
C3048 C 0.90361 0.64364 0.82542 0.0
C3049 C 0.89386 0.62111 0.83122 0.0
C3050 C 0.89041 0.65737 0.8174 0.0
C3051 C 0.86746 0.64875 0.81565 0.0
C3052 C 0.85815 0.62839 0.82545 0.0
C3053 C 0.87131 0.61439 0.83292 0.0
C3054 C 0.8267 0.64711 0.76449 0.0
C3055 C 0.83173 0.67178 0.76259 0.0
C3056 C 0.83762 0.6399 0.78255 0.0
C3057 C 0.85371 0.65728 0.79912 0.0
C3058 C 0.85841 0.68206 0.79749 0.0
C3059 C 0.84753 0.68926 0.77932 0.0
H3060 H 0.8905 0.70378 0.0441 0.0
H3061 H 0.84884 0.63086 0.01808 0.0
H3062 H 0.92185 0.68671 0.05067 0.0
H3063 H 0.88013 0.61377 0.02396 0.0
H3064 H 0.94397 0.59113 0.02655 0.0
H3065 H 0.91831 0.6126 0.01203 0.0
H3066 H 0.92811 0.66031 0.08081 0.0
H3067 H 0.95343 0.63865 0.0953 0.0
C3068 C 0.88828 0.68417 0.03907 0.0
C3069 C 0.86741 0.66856 0.03047 0.0
C3070 C 0.90612 0.67441 0.04296 0.0
C3071 C 0.90342 0.64891 0.03784 0.0
C3072 C 0.88277 0.63349 0.02785 0.0
C3073 C 0.86487 0.64321 0.02453 0.0
C3074 C 0.94086 0.60647 0.03837 0.0
C3075 C 0.95046 0.61315 0.06207 0.0
C3076 C 0.92617 0.61869 0.03011 0.0
C3077 C 0.92119 0.6381 0.0453 0.0
C3078 C 0.93176 0.64557 0.06864 0.0
C3079 C 0.9461 0.63308 0.07699 0.0
H3080 H 0.21302 0.1171 0.80258 0.0
H3081 H 0.26272 0.0915 0.7662 0.0
H3082 H 0.23272 0.15928 0.80308 0.0
H3083 H 0.28263 0.13414 0.76667 0.0
H3084 H 0.32296 0.21628 0.78862 0.0
H3085 H 0.30446 0.17364 0.78871 0.0
H3086 H 0.24193 0.19012 0.78025 0.0
H3087 H 0.26051 0.23267 0.78007 0.0
C3088 C 0.2283 0.12029 0.7948 0.0
C3089 C 0.23605 0.10019 0.7845 0.0
C3090 C 0.23964 0.14487 0.79487 0.0
C3091 C 0.25952 0.15087 0.78479 0.0
C3092 C 0.26759 0.13081 0.77487 0.0
C3093 C 0.25607 0.10607 0.77459 0.0
C3094 C 0.30532 0.21104 0.78681 0.0
C3095 C 0.29362 0.22869 0.78442 0.0
C3096 C 0.29452 0.18618 0.78671 0.0
C3097 C 0.27138 0.17769 0.78455 0.0
C3098 C 0.25967 0.19542 0.78233 0.0
C3099 C 0.27048 0.22017 0.78215 0.0
H3100 H 0.3853 0.99666 0.3475 0.0
H3101 H 0.41059 0.99521 0.27964 0.0
H3102 H 0.36045 0.95569 0.33225 0.0
H3103 H 0.38549 0.95493 0.2644 0.0
H3104 H 0.3839 0.87707 0.28504 0.0
H3105 H 0.39601 0.92152 0.2926 0.0
H3106 H 0.32869 0.92552 0.28874 0.0
H3107 H 0.31637 0.88049 0.27972 0.0
C3108 C 0.38509 0.98772 0.32927 0.0
C3109 C 0.40016 0.9981 0.31487 0.0
C3110 C 0.37071 0.96478 0.32049 0.0
C3111 C 0.37129 0.95272 0.29731 0.0
C3112 C 0.38489 0.96428 0.2823 0.0
C3113 C 0.39945 0.98684 0.29114 0.0
C3114 C 0.37172 0.88743 0.28555 0.0
C3115 C 0.34933 0.87578 0.28264 0.0
C3116 C 0.37858 0.91265 0.28982 0.0
C3117 C 0.36311 0.92638 0.29119 0.0
C3118 C 0.34067 0.91489 0.28771 0.0
C3119 C 0.33375 0.88943 0.28286 0.0
H3120 H 0.57849 0.37691 0.58901 0.0
H3121 H 0.64643 0.40938 0.58339 0.0
H3122 H 0.56873 0.41248 0.57712 0.0
H3123 H 0.63674 0.44529 0.57256 0.0
H3124 H 0.60487 0.51444 0.59738 0.0
H3125 H 0.61315 0.47661 0.60262 0.0
H3126 H 0.57836 0.44041 0.53401 0.0
H3127 H 0.57153 0.47958 0.52753 0.0
C3128 C 0.59139 0.39152 0.58518 0.0
C3129 C 0.61334 0.38993 0.5872 0.0
C3130 C 0.58572 0.41192 0.57816 0.0
C3131 C 0.60184 0.43182 0.57347 0.0
C3132 C 0.62377 0.43028 0.57561 0.0
C3133 C 0.62935 0.4096 0.58194 0.0
C3134 C 0.59886 0.49866 0.58307 0.0
C3135 C 0.58697 0.50059 0.56205 0.0
C3136 C 0.60372 0.47673 0.58627 0.0
C3137 C 0.59635 0.45515 0.56898 0.0
C3138 C 0.58423 0.45659 0.5479 0.0
C3139 C 0.58005 0.47909 0.54425 0.0
H3140 H 0.47862 0.83207 0.37973 0.0
H3141 H 0.45523 0.7538 0.37305 0.0
H3142 H 0.44357 0.83297 0.35971 0.0
H3143 H 0.42029 0.75463 0.35215 0.0
H3144 H 0.37196 0.76996 0.29158 0.0
H3145 H 0.406 0.7664 0.31179 0.0
H3146 H 0.40244 0.82313 0.36997 0.0
H3147 H 0.36817 0.82613 0.35034 0.0
C3148 C 0.46609 0.81497 0.37379 0.0
C3149 C 0.46989 0.79286 0.37812 0.0
C3150 C 0.44589 0.81552 0.36239 0.0
C3151 C 0.42897 0.79389 0.35431 0.0
C3152 C 0.43292 0.77164 0.35807 0.0
C3153 C 0.45295 0.77118 0.37012 0.0
C3154 C 0.37839 0.78178 0.30862 0.0
C3155 C 0.36745 0.79905 0.31868 0.0
C3156 C 0.39791 0.77957 0.32034 0.0
C3157 C 0.40731 0.79481 0.34238 0.0
C3158 C 0.39598 0.81141 0.35283 0.0
C3159 C 0.37621 0.81315 0.34143 0.0
H3160 H 0.07942 0.7481 0.05694 0.0
H3161 H 0.12862 0.75732 0.11551 0.0
H3162 H 0.07561 0.70358 0.0489 0.0
H3163 H 0.1255 0.71355 0.10735 0.0
H3164 H 0.09347 0.63416 0.11031 0.0
H3165 H 0.10094 0.67819 0.11318 0.0
H3166 H 0.08906 0.66749 0.03689 0.0
H3167 H 0.08081 0.62285 0.03428 0.0
C3168 C 0.08994 0.74075 0.06758 0.0
C3169 C 0.10455 0.7564 0.08669 0.0
C3170 C 0.08773 0.71514 0.06308 0.0
C3171 C 0.09996 0.70449 0.07768 0.0
C3172 C 0.11532 0.72057 0.09596 0.0
C3173 C 0.1174 0.7459 0.10047 0.0
C3174 C 0.09281 0.64118 0.09408 0.0
C3175 C 0.08707 0.62486 0.07207 0.0
C3176 C 0.09721 0.66663 0.09567 0.0
C3177 C 0.0959 0.67693 0.07527 0.0
C3178 C 0.09019 0.66053 0.05308 0.0
C3179 C 0.08574 0.63487 0.05151 0.0
H3180 H 0.08686 0.23719 0.87275 0.0
H3181 H 0.09908 0.3155 0.8953 0.0
H3182 H 0.12151 0.24315 0.85509 0.0
H3183 H 0.1336 0.32132 0.87725 0.0
H3184 H 0.16153 0.29595 0.7967 0.0
H3185 H 0.13037 0.28634 0.81917 0.0
H3186 H 0.17393 0.28738 0.88027 0.0
H3187 H 0.2057 0.29764 0.85776 0.0
C3188 C 0.09694 0.25567 0.874 0.0
C3189 C 0.09002 0.27589 0.88527 0.0
C3190 C 0.11688 0.25902 0.86408 0.0
C3191 C 0.13037 0.28266 0.86509 0.0
C3192 C 0.12371 0.30287 0.87664 0.0
C3193 C 0.10387 0.29953 0.88681 0.0
C3194 C 0.16461 0.29393 0.81487 0.0
C3195 C 0.18627 0.29795 0.82546 0.0
C3196 C 0.14668 0.28841 0.8277 0.0
C3197 C 0.14974 0.28643 0.85149 0.0
C3198 C 0.17117 0.28903 0.86195 0.0
C3199 C 0.18932 0.29467 0.84901 0.0
H3200 H 0.6114 0.75438 0.91323 0.0
H3201 H 0.63654 0.8101 0.97627 0.0
H3202 H 0.60269 0.7233 0.93774 0.0
H3203 H 0.62648 0.77989 1.00082 0.0
H3204 H 0.62014 0.72081 0.04157 0.0
H3205 H 0.63429 0.74716 0.01418 0.0
H3206 H 0.57737 0.70992 0.96322 0.0
H3207 H 0.5643 0.68259 0.99023 0.0
C3208 C 0.61488 0.75988 0.93235 0.0
C3209 C 0.62457 0.78442 0.94301 0.0
C3210 C 0.60984 0.74221 0.9464 0.0
C3211 C 0.61385 0.74905 0.97132 0.0
C3212 C 0.62367 0.77374 0.98175 0.0
C3213 C 0.62926 0.79115 0.96771 0.0
C3214 C 0.61078 0.71847 0.02448 0.0
C3215 C 0.59096 0.7004 0.01804 0.0
C3216 C 0.61878 0.73349 1.0088 0.0
C3217 C 0.60676 0.73103 0.98663 0.0
C3218 C 0.58715 0.71229 0.98002 0.0
C3219 C 0.57944 0.69691 0.99556 0.0
H3220 H 0.06737 0.75243 0.72228 0.0
H3221 H 0.08989 0.79455 0.66927 0.0
H3222 H 0.10369 0.74661 0.72979 0.0
H3223 H 0.12688 0.78912 0.6774 0.0
H3224 H 0.18988 0.79443 0.73638 0.0
H3225 H 0.15631 0.80148 0.71884 0.0
H3226 H 0.12713 0.72342 0.70102 0.0
H3227 H 0.16071 0.71623 0.71819 0.0
C3228 C 0.08023 0.76083 0.71255 0.0
C3229 C 0.07599 0.77408 0.69535 0.0
C3230 C 0.10088 0.75722 0.71662 0.0
C3231 C 0.11775 0.76714 0.70387 0.0
C3232 C 0.11389 0.78117 0.68721 0.0
C3233 C 0.09292 0.78433 0.68269 0.0
C3234 C 0.1765 0.77877 0.72815 0.0
C3235 C 0.1776 0.75477 0.72905 0.0
C3236 C 0.15743 0.78284 0.71805 0.0
C3237 C 0.13933 0.76297 0.70889 0.0
C3238 C 0.14098 0.73896 0.70824 0.0
C3239 C 0.16 0.73489 0.71824 0.0
H3240 H 0.15747 0.42198 0.47899 0.0
H3241 H 0.12366 0.4307 0.41492 0.0
H3242 H 0.14838 0.45774 0.5011 0.0
H3243 H 0.11433 0.46647 0.43692 0.0
H3244 H 0.06893 0.49019 0.49099 0.0
H3245 H 0.08726 0.46465 0.46578 0.0
H3246 H 0.14897 0.50124 0.50888 0.0
H3247 H 0.13049 0.526 0.53466 0.0
C3248 C 0.14912 0.43244 0.46947 0.0
C3249 C 0.14145 0.42398 0.44536 0.0
C3250 C 0.14376 0.45278 0.4821 0.0
C3251 C 0.13026 0.46453 0.47078 0.0
C3252 C 0.12452 0.45751 0.4461 0.0
C3253 C 0.13019 0.43737 0.43343 0.0
C3254 C 0.0864 0.49276 0.49504 0.0
C3255 C 0.09825 0.50996 0.5148 0.0
C3256 C 0.09696 0.47841 0.48044 0.0
C3257 C 0.11963 0.48128 0.48516 0.0
C3258 C 0.13149 0.49863 0.50487 0.0
C3259 C 0.12087 0.51273 0.51966 0.0
H3260 H 0.45824 0.24839 0.24698 0.0
H3261 H 0.46648 0.30158 0.20137 0.0
H3262 H 0.4234 0.25549 0.25529 0.0
H3263 H 0.43176 0.30991 0.21093 0.0
H3264 H 0.35614 0.2888 0.20616 0.0
H3265 H 0.39402 0.28839 0.20081 0.0
H3266 H 0.4052 0.28218 0.2742 0.0
H3267 H 0.36697 0.27997 0.27846 0.0
C3268 C 0.45287 0.26216 0.23927 0.0
C3269 C 0.46491 0.27432 0.22342 0.0
C3270 C 0.43292 0.26639 0.24418 0.0
C3271 C 0.42484 0.28326 0.23374 0.0
C3272 C 0.43747 0.29649 0.21889 0.0
C3273 C 0.45737 0.29191 0.21361 0.0
C3274 C 0.3669 0.28734 0.22097 0.0
C3275 C 0.35924 0.2852 0.24289 0.0
C3276 C 0.38854 0.28746 0.21809 0.0
C3277 C 0.40262 0.28548 0.23718 0.0
C3278 C 0.39469 0.28337 0.25908 0.0
C3279 C 0.37296 0.28245 0.26166 0.0
H3280 H 0.62036 0.55656 0.34754 0.0
H3281 H 0.6692 0.52373 0.3729 0.0
H3282 H 0.6055 0.55802 0.38584 0.0
H3283 H 0.65466 0.52556 0.41141 0.0
H3284 H 0.63551 0.55172 0.48731 0.0
H3285 H 0.65017 0.54919 0.44888 0.0
H3286 H 0.58528 0.53789 0.41361 0.0
H3287 H 0.57083 0.54079 0.45191 0.0
C3288 C 0.62806 0.54959 0.3612 0.0
C3289 C 0.64621 0.53993 0.35636 0.0
C3290 C 0.61935 0.55033 0.38351 0.0
C3291 C 0.62855 0.54198 0.40266 0.0
C3292 C 0.64684 0.53248 0.39781 0.0
C3293 C 0.65523 0.53125 0.3753 0.0
C3294 C 0.62418 0.54853 0.47144 0.0
C3295 C 0.60158 0.54608 0.47354 0.0
C3296 C 0.63271 0.54695 0.44899 0.0
C3297 C 0.61925 0.54323 0.42719 0.0
C3298 C 0.59667 0.54095 0.42938 0.0
C3299 C 0.58814 0.54227 0.45178 0.0
H3300 H 0.34944 0.95757 0.09423 0.0
H3301 H 0.30187 0.89495 0.05111 0.0
H3302 H 0.35678 0.93195 0.12179 0.0
H3303 H 0.30984 0.86939 0.07782 0.0
H3304 H 0.3178 0.83171 0.1377 0.0
H3305 H 0.3074 0.86043 0.11599 0.0
H3306 H 0.37569 0.89935 0.11942 0.0
H3307 H 0.38598 0.87117 0.14273 0.0
C3308 C 0.34015 0.93854 0.09097 0.0
C3309 C 0.32525 0.92817 0.07041 0.0
C3310 C 0.34462 0.92382 0.10651 0.0
C3311 C 0.3342 0.89862 0.10168 0.0
C3312 C 0.31806 0.88878 0.08213 0.0
C3313 C 0.31349 0.90346 0.06678 0.0
C3314 C 0.33059 0.84633 0.13367 0.0
C3315 C 0.35267 0.84924 0.14166 0.0
C3316 C 0.32465 0.86277 0.12126 0.0
C3317 C 0.34071 0.88215 0.11606 0.0
C3318 C 0.36293 0.88477 0.12354 0.0
C3319 C 0.36889 0.8684 0.13634 0.0
H3320 H 0.0149 0.61361 0.88554 0.0
H3321 H 0.95778 0.55903 0.8956 0.0
H3322 H 0.03431 0.60884 0.92183 0.0
H3323 H 0.97741 0.55217 0.93007 0.0
H3324 H 0.01173 0.5541 0.99917 0.0
H3325 H 0.99235 0.5653 0.96801 0.0
H3326 H 0.05123 0.57999 0.93305 0.0
H3327 H 0.07157 0.57133 0.96639 0.0
C3328 C 1.00643 0.60111 0.89602 0.0
C3329 C 0.98496 0.58696 0.88844 0.0
C3330 C 0.0176 0.59791 0.91635 0.0
C3331 C 1.0076 0.57978 0.92858 0.0
C3332 C 0.98557 0.56664 0.92145 0.0
C3333 C 0.97421 0.57058 0.90176 0.0
C3334 C 0.02085 0.55988 0.98504 0.0
C3335 C 0.04358 0.56241 0.98568 0.0
C3336 C 1.00948 0.56606 0.96687 0.0
C3337 C 0.02018 0.57373 0.94804 0.0
C3338 C 0.04262 0.57481 0.94772 0.0
C3339 C 0.05428 0.56936 0.96657 0.0
H3340 H 0.29238 0.2646 0.58227 0.0
H3341 H 0.35032 0.24054 0.59706 0.0
H3342 H 0.29208 0.27881 0.62509 0.0
H3343 H 0.35027 0.25503 0.63942 0.0
H3344 H 0.32051 0.24016 0.70648 0.0
H3345 H 0.32159 0.23507 0.66405 0.0
H3346 H 0.31467 0.30825 0.66629 0.0
H3347 H 0.31474 0.31396 0.70989 0.0
C3348 C 0.30547 0.26313 0.59457 0.0
C3349 C 0.32129 0.25125 0.58627 0.0
C3350 C 0.30527 0.27123 0.6191 0.0
C3351 C 0.32093 0.2677 0.63573 0.0
C3352 C 0.33771 0.25762 0.62716 0.0
C3353 C 0.3378 0.24939 0.60284 0.0
C3354 C 0.319 0.25523 0.69808 0.0
C3355 C 0.31747 0.27747 0.71175 0.0
C3356 C 0.31978 0.25232 0.67365 0.0
C3357 C 0.3186 0.27135 0.66174 0.0
C3358 C 0.31578 0.29327 0.675 0.0
C3359 C 0.31559 0.29647 0.6999 0.0
H3360 H 0.67514 0.50715 0.18995 0.0
H3361 H 0.63222 0.54409 0.22694 0.0
H3362 H 0.65914 0.51263 0.15233 0.0
H3363 H 0.61639 0.55027 0.1891 0.0
H3364 H 0.58143 0.5467 0.11179 0.0
H3365 H 0.59518 0.54115 0.15116 0.0
H3366 H 0.65622 0.53566 0.12489 0.0
H3367 H 0.64258 0.54093 0.08649 0.0
C3368 C 0.6622 0.51646 0.1903 0.0
C3369 C 0.65531 0.52491 0.21238 0.0
C3370 C 0.65296 0.52 0.16824 0.0
C3371 C 0.63622 0.53247 0.16655 0.0
C3372 C 0.62898 0.54051 0.18867 0.0
C3373 C 0.63824 0.53689 0.21082 0.0
C3374 C 0.59785 0.54449 0.11443 0.0
C3375 C 0.6106 0.5443 0.0951 0.0
C3376 C 0.60593 0.54119 0.13735 0.0
C3377 C 0.62709 0.53721 0.14218 0.0
C3378 C 0.63974 0.53774 0.12282 0.0
C3379 C 0.63181 0.54112 0.1003 0.0
H3380 H 0.36023 0.88242 0.95836 0.0
H3381 H 0.3183 0.91985 0.92594 0.0
H3382 H 0.36315 0.85965 0.9193 0.0
H3383 H 0.3212 0.89684 0.8869 0.0
H3384 H 0.3008 0.82232 0.83657 0.0
H3385 H 0.30505 0.84833 0.87515 0.0
H3386 H 0.37538 0.86688 0.87531 0.0
H3387 H 0.37092 0.83975 0.83613 0.0
C3388 C 0.35168 0.88579 0.94287 0.0
C3389 C 0.33848 0.9023 0.94508 0.0
C3390 C 0.35367 0.87306 0.92062 0.0
C3391 C 0.34228 0.87653 0.90043 0.0
C3392 C 0.33 0.89393 0.90246 0.0
C3393 C 0.32822 0.90688 0.92468 0.0
C3394 C 0.31713 0.83074 0.8452 0.0
C3395 C 0.33547 0.82809 0.8339 0.0
C3396 C 0.31958 0.84629 0.86699 0.0
C3397 C 0.34049 0.85965 0.87783 0.0
C3398 C 0.35909 0.85662 0.86706 0.0
C3399 C 0.35656 0.84106 0.84494 0.0
H3400 H 0.93222 0.56583 0.73734 0.0
H3401 H 0.99759 0.59233 0.775 0.0
H3402 H 0.94793 0.55788 0.70006 0.0
H3403 H 0.01301 0.58324 0.7386 0.0
H3404 H 0.04075 0.57114 0.67297 0.0
H3405 H 0.02088 0.59116 0.7013 0.0
H3406 H 0.96493 0.52783 0.683 0.0
H3407 H 0.98418 0.50875 0.65343 0.0
C3408 C 0.94989 0.57037 0.7376 0.0
C3409 C 0.96363 0.57972 0.75907 0.0
C3410 C 0.9589 0.56564 0.71632 0.0
C3411 C 0.98176 0.56989 0.71627 0.0
C3412 C 0.9954 0.5803 0.7377 0.0
C3413 C 0.98647 0.58535 0.75875 0.0
C3414 C 0.02392 0.56189 0.67435 0.0
C3415 C 0.01421 0.5381 0.66134 0.0
C3416 C 0.0126 0.57323 0.69083 0.0
C3417 C 0.99149 0.56086 0.6949 0.0
C3418 C 0.98112 0.53798 0.68039 0.0
C3419 C 0.99231 0.52683 0.66367 0.0
H3420 H 0.34172 0.23132 0.44418 0.0
H3421 H 0.28423 0.25874 0.44943 0.0
H3422 H 0.34462 0.24149 0.40462 0.0
H3423 H 0.28688 0.26833 0.41017 0.0
H3424 H 0.31104 0.3087 0.35267 0.0
H3425 H 0.31095 0.29804 0.39169 0.0
H3426 H 0.32482 0.2295 0.36285 0.0
H3427 H 0.32484 0.2403 0.32341 0.0
C3428 C 0.32975 0.23953 0.43697 0.0
C3429 C 0.31292 0.24453 0.45021 0.0
C3430 C 0.33132 0.2452 0.41423 0.0
C3431 C 0.3161 0.25596 0.40427 0.0
C3432 C 0.29918 0.26059 0.41745 0.0
C3433 C 0.29766 0.25504 0.44004 0.0
C3434 C 0.31422 0.29142 0.35463 0.0
C3435 C 0.31785 0.2753 0.33494 0.0
C3436 C 0.31403 0.28521 0.37701 0.0
C3437 C 0.3177 0.26281 0.38045 0.0
C3438 C 0.32197 0.24691 0.36086 0.0
C3439 C 0.32182 0.253 0.33826 0.0
H3440 H 0.34617 0.60057 0.5009 0.0
H3441 H 0.36967 0.62246 0.5756 0.0
H3442 H 0.37802 0.58463 0.49368 0.0
H3443 H 0.4021 0.60714 0.56822 0.0
H3444 H 0.46519 0.60011 0.5223 0.0
H3445 H 0.43588 0.6173 0.53796 0.0
H3446 H 0.38897 0.54732 0.51202 0.0
H3447 H 0.41807 0.53031 0.49627 0.0
C3448 C 0.35833 0.60217 0.51566 0.0
C3449 C 0.35559 0.61236 0.53876 0.0
C3450 C 0.3764 0.59305 0.51159 0.0
C3451 C 0.39216 0.59455 0.5305 0.0
C3452 C 0.38995 0.60571 0.55351 0.0
C3453 C 0.37151 0.61429 0.55768 0.0
C3454 C 0.44867 0.58838 0.52055 0.0
C3455 C 0.44354 0.56411 0.50784 0.0
C3456 C 0.43206 0.59813 0.5295 0.0
C3457 C 0.41036 0.58357 0.52579 0.0
C3458 C 0.40564 0.55883 0.51472 0.0
C3459 C 0.42215 0.54917 0.50573 0.0
H3460 H 0.9028 0.97882 0.57734 0.0
H3461 H 0.91529 0.92323 0.52335 0.0
H3462 H 0.94058 1.00329 0.57932 0.0
H3463 H 0.95251 0.94806 0.52423 0.0
H3464 H 0.02376 0.98441 0.5437 0.0
H3465 H 0.9867 0.96101 0.54573 0.0
H3466 H 0.96661 0.02821 0.56115 0.0
H3467 H 1.00408 0.05157 0.56012 0.0
C3468 C 0.91357 0.97195 0.5657 0.0
C3469 C 0.90607 0.94896 0.55032 0.0
C3470 C 0.93526 0.98606 0.56673 0.0
C3471 C 0.94995 0.97772 0.55212 0.0
C3472 C 0.94211 0.95494 0.53634 0.0
C3473 C 0.92061 0.94068 0.53565 0.0
C3474 C 0.01153 0.99428 0.54779 0.0
C3475 C 0.01707 0.02002 0.55166 0.0
C3476 C 0.99007 0.98077 0.5487 0.0
C3477 C 0.97326 0.99251 0.55313 0.0
C3478 C 0.97897 0.01835 0.55784 0.0
C3479 C 1.0006 0.03189 0.55725 0.0
H3480 H 0.88176 0.1285 0.22628 0.0
H3481 H 0.9142 0.1607 0.29667 0.0
H3482 H 0.86399 0.16189 0.22748 0.0
H3483 H 0.89649 0.19445 0.29795 0.0
H3484 H 0.85034 0.24859 0.30005 0.0
H3485 H 0.86609 0.21332 0.30087 0.0
H3486 H 0.86563 0.2022 0.22494 0.0
H3487 H 0.85029 0.23703 0.22438 0.0
C3488 C 0.88528 0.14267 0.24216 0.0
C3489 C 0.89987 0.14114 0.26129 0.0
C3490 C 0.87498 0.16234 0.24285 0.0
C3491 C 0.8784 0.18194 0.2628 0.0
C3492 C 0.89281 0.18022 0.28213 0.0
C3493 C 0.90326 0.16056 0.28135 0.0
C3494 C 0.85321 0.2384 0.28345 0.0
C3495 C 0.84844 0.24613 0.26205 0.0
C3496 C 0.86264 0.218 0.28388 0.0
C3497 C 0.86759 0.20391 0.26293 0.0
C3498 C 0.86222 0.21155 0.24167 0.0
C3499 C 0.85324 0.23198 0.24132 0.0
H3500 H 0.72978 0.09458 1.0055 0.0
H3501 H 0.73886 0.16017 0.05902 0.0
H3502 H 0.69209 0.08063 0.01377 0.0
H3503 H 0.70176 0.1456 0.06855 0.0
H3504 H 0.62643 0.12695 0.04806 0.0
H3505 H 0.6661 0.14068 0.05154 0.0
H3506 H 0.66953 0.06526 0.04121 0.0
H3507 H 0.62981 0.0518 0.03564 0.0
C3508 C 0.72359 0.10596 0.01897 0.0
C3509 C 0.73686 0.12858 0.03125 0.0
C3510 C 0.70223 0.0978 0.02413 0.0
C3511 C 0.69405 0.11188 0.0421 0.0
C3512 C 0.7075 0.13448 0.05445 0.0
C3513 C 0.72864 0.14292 0.04885 0.0
C3514 C 0.63583 0.11347 0.04748 0.0
C3515 C 0.62529 0.08845 0.0423 0.0
C3516 C 0.65853 0.12126 0.04952 0.0
C3517 C 0.67093 0.104 0.04621 0.0
C3518 C 0.66034 0.07895 0.04322 0.0
C3519 C 0.6376 0.0712 0.04046 0.0
H3520 H 0.24217 0.50473 0.28305 0.0
H3521 H 0.24915 0.48594 0.2084 0.0
H3522 H 0.25492 0.46966 0.28999 0.0
H3523 H 0.26238 0.45089 0.21571 0.0
H3524 H 0.26526 0.39467 0.28867 0.0
H3525 H 0.24401 0.41288 0.2631 0.0
H3526 H 0.3028 0.4685 0.25916 0.0
H3527 H 0.32382 0.45083 0.28525 0.0
C3528 C 0.24577 0.49267 0.26806 0.0
C3529 C 0.24507 0.49803 0.24529 0.0
C3530 C 0.25286 0.47261 0.27199 0.0
C3531 C 0.2592 0.45782 0.25321 0.0
C3532 C 0.25724 0.46215 0.23018 0.0
C3533 C 0.24998 0.48221 0.22618 0.0
C3534 C 0.27354 0.41044 0.28176 0.0
C3535 C 0.29569 0.42216 0.28923 0.0
C3536 C 0.2616 0.42042 0.26693 0.0
C3537 C 0.27204 0.44171 0.25931 0.0
C3538 C 0.29473 0.45174 0.26467 0.0
C3539 C 0.30655 0.44205 0.27984 0.0
H3540 H 0.28093 0.46055 0.08759 0.0
H3541 H 0.28256 0.44792 0.01175 0.0
H3542 H 0.25004 0.47886 0.08301 0.0
H3543 H 0.2522 0.46692 1.00738 0.0
H3544 H 0.22845 0.54074 0.02509 0.0
H3545 H 0.25549 0.51886 0.03379 0.0
H3546 H 0.20464 0.46071 0.04977 0.0
H3547 H 0.17699 0.48221 0.04002 0.0
C3548 C 0.27467 0.46165 0.06996 0.0
C3549 C 0.2843 0.45298 0.05001 0.0
C3550 C 0.25691 0.47192 0.06737 0.0
C3551 C 0.24875 0.47418 0.04485 0.0
C3552 C 0.25813 0.4652 0.02491 0.0
C3553 C 0.27551 0.4544 0.02742 0.0
C3554 C 0.22288 0.52329 0.03044 0.0
C3555 C 0.20039 0.51301 0.03127 0.0
C3556 C 0.23844 0.51085 0.03551 0.0
C3557 C 0.23209 0.48801 0.04209 0.0
C3558 C 0.20989 0.4783 0.0446 0.0
C3559 C 0.19412 0.49068 0.03916 0.0
H3560 H 0.89886 0.99473 0.23448 0.0
H3561 H 0.90948 1.00816 0.31068 0.0
H3562 H 0.87859 0.95199 0.23388 0.0
H3563 H 0.88838 0.96592 0.31019 0.0
H3564 H 0.82887 0.89343 0.29808 0.0
H3565 H 0.84802 0.93631 0.29807 0.0
H3566 H 0.88724 0.91169 0.24574 0.0
H3567 H 0.86888 0.86879 0.24676 0.0
C3568 C 0.89641 0.98888 0.2512 0.0
C3569 C 0.90561 1.00558 0.27267 0.0
C3570 C 0.8849 0.96409 0.25086 0.0
C3571 C 0.88151 0.95494 0.272 0.0
C3572 C 0.89027 0.97187 0.29346 0.0
C3573 C 0.90238 0.99636 0.29375 0.0
C3574 C 0.84149 0.89707 0.28644 0.0
C3575 C 0.84699 0.87719 0.27228 0.0
C3576 C 0.85266 0.92186 0.28652 0.0
C3577 C 0.86935 0.92806 0.27179 0.0
C3578 C 0.87451 0.90812 0.25725 0.0
C3579 C 0.86391 0.88331 0.25785 0.0
H3580 H 0.73886 0.14259 0.78925 0.0
H3581 H 0.78587 0.1236 0.74317 0.0
H3582 H 0.75499 0.18557 0.79015 0.0
H3583 H 0.80203 0.16715 0.74418 0.0
H3584 H 0.83593 0.24879 0.79037 0.0
H3585 H 0.82201 0.20422 0.7781 0.0
H3586 H 0.75745 0.21268 0.75932 0.0
H3587 H 0.77138 0.25706 0.77196 0.0
C3588 C 0.75278 0.14759 0.77952 0.0
C3589 C 0.76114 0.12978 0.76616 0.0
C3590 C 0.76176 0.17214 0.77974 0.0
C3591 C 0.77931 0.17931 0.76676 0.0
C3592 C 0.78832 0.16175 0.75411 0.0
C3593 C 0.77923 0.13701 0.75376 0.0
C3594 C 0.81896 0.24095 0.78297 0.0
C3595 C 0.80462 0.25576 0.78153 0.0
C3596 C 0.81108 0.21569 0.77581 0.0
C3597 C 0.78875 0.20537 0.76796 0.0
C3598 C 0.77473 0.22045 0.76544 0.0
C3599 C 0.7826 0.2456 0.7726 0.0
loop_
_geom_bond_atom_site_label_1
_geom_bond_atom_site_label_2
_geom_bond_distance
_geom_bond_site_symmetry_2
_ccdc_geom_bond_type
O0 Cd1 2.223 . S
O0 C8 1.315 . S
Cd1 O0 2.223 . S
Cd1 O4 2.297 . S
Cd1 O5 2.439 . S
Cd1 O11 2.240 . S
Cd2 O3 2.240 . S
Cd2 O10 2.223 . S
Cd2 O12 2.297 . S
Cd2 O13 2.439 . S
O3 Cd2 2.240 . S
O3 C8 1.279 . S
O4 Cd1 2.297 . S
O4 C6 1.247 . S
O5 Cd1 2.439 . S
O5 C6 1.208 . S
C6 O4 1.247 . S
C6 O5 1.208 . S
C7 O12 1.247 . S
C7 O13 1.208 . S
C8 O0 1.315 . S
C8 O3 1.279 . S
C9 O10 1.315 . S
C9 O11 1.279 . S
O10 Cd2 2.223 . S
O10 C9 1.315 . S
O11 Cd1 2.240 . S
O11 C9 1.279 . S
O12 Cd2 2.297 . S
O12 C7 1.247 . S
O13 Cd2 2.439 . S
O13 C7 1.208 . S
O14 Cd15 2.223 . S
O14 C22 1.315 . S
Cd15 O14 2.223 . S
Cd15 O18 2.297 . S
Cd15 O19 2.439 . S
Cd15 O25 2.240 1_655 S
Cd16 O17 2.240 1_455 S
Cd16 O24 2.223 . S
Cd16 O26 2.297 . S
Cd16 O27 2.456 . S
O17 Cd16 2.240 1_655 S
O17 C22 1.279 . S
O18 Cd15 2.297 . S
O18 C20 1.247 . S
O19 Cd15 2.439 . S
O19 C20 1.208 . S
C20 O18 1.247 . S
C20 O19 1.208 . S
C21 O26 1.247 . S
C21 O27 1.228 . S
C22 O14 1.315 . S
C22 O17 1.279 . S
C23 O24 1.315 . S
C23 O25 1.279 . S
O24 Cd16 2.223 . S
O24 C23 1.315 . S
O25 Cd15 2.240 1_455 S
O25 C23 1.279 . S
O26 Cd16 2.297 . S
O26 C21 1.247 . S
O27 Cd16 2.456 . S
O27 C21 1.228 . S
O28 Cd29 2.223 . S
O28 C36 1.315 . S
Cd29 O28 2.223 . S
Cd29 O32 2.297 . S
Cd29 O33 2.439 . S
Cd29 O39 2.240 . S
Cd30 O31 2.240 . S
Cd30 O38 2.223 . S
Cd30 O40 2.297 . S
Cd30 O41 2.439 . S
O31 Cd30 2.240 . S
O31 C36 1.279 . S
O32 Cd29 2.297 . S
O32 C34 1.247 . S
O33 Cd29 2.439 . S
O33 C34 1.208 . S
C34 O32 1.247 . S
C34 O33 1.208 . S
C35 O40 1.247 . S
C35 O41 1.208 . S
C36 O28 1.315 . S
C36 O31 1.279 . S
C37 O38 1.315 . S
C37 O39 1.279 . S
O38 Cd30 2.223 . S
O38 C37 1.315 . S
O39 Cd29 2.240 . S
O39 C37 1.279 . S
O40 Cd30 2.297 . S
O40 C35 1.247 . S
O41 Cd30 2.439 . S
O41 C35 1.208 . S
O42 Cd43 2.223 . S
O42 C50 1.315 . S
Cd43 O42 2.223 . S
Cd43 O46 2.297 . S
Cd43 O47 2.439 . S
Cd43 O53 2.240 . S
Cd44 O45 2.240 . S
Cd44 O52 2.223 . S
Cd44 O54 2.297 . S
Cd44 O55 2.439 . S
O45 Cd44 2.240 . S
O45 C50 1.279 . S
O46 Cd43 2.297 . S
O46 C48 1.247 . S
O47 Cd43 2.439 . S
O47 C48 1.208 . S
C48 O46 1.247 . S
C48 O47 1.208 . S
C49 O54 1.247 . S
C49 O55 1.208 . S
C50 O42 1.315 . S
C50 O45 1.279 . S
C51 O52 1.315 . S
C51 O53 1.279 . S
O52 Cd44 2.223 . S
O52 C51 1.315 . S
O53 Cd43 2.240 . S
O53 C51 1.279 . S
O54 Cd44 2.297 . S
O54 C49 1.247 . S
O55 Cd44 2.439 . S
O55 C49 1.208 . S
O56 Cd57 2.223 . S
O56 C64 1.315 . S
Cd57 O56 2.223 . S
Cd57 O60 2.297 . S
Cd57 O61 2.439 . S
Cd57 O67 2.240 . S
Cd58 O59 2.240 . S
Cd58 O66 2.223 . S
Cd58 O68 2.297 . S
Cd58 O69 2.439 . S
O59 Cd58 2.240 . S
O59 C64 1.279 . S
O60 Cd57 2.297 . S
O60 C62 1.247 . S
O61 Cd57 2.439 . S
O61 C62 1.208 . S
C62 O60 1.247 . S
C62 O61 1.208 . S
C63 O68 1.247 . S
C63 O69 1.208 . S
C64 O56 1.315 . S
C64 O59 1.279 . S
C65 O66 1.315 . S
C65 O67 1.279 . S
O66 Cd58 2.223 . S
O66 C65 1.315 . S
O67 Cd57 2.240 . S
O67 C65 1.279 . S
O68 Cd58 2.297 . S
O68 C63 1.247 . S
O69 Cd58 2.439 . S
O69 C63 1.208 . S
O70 Cd71 2.223 . S
O70 C78 1.315 . S
Cd71 O70 2.223 . S
Cd71 O74 2.297 . S
Cd71 O75 2.439 . S
Cd71 O81 2.240 . S
Cd72 O73 2.240 . S
Cd72 O80 2.223 . S
Cd72 O82 2.297 . S
Cd72 O83 2.439 . S
O73 Cd72 2.240 . S
O73 C78 1.279 . S
O74 Cd71 2.297 . S
O74 C76 1.247 . S
O75 Cd71 2.439 . S
O75 C76 1.208 . S
C76 O74 1.247 . S
C76 O75 1.208 . S
C77 O82 1.247 . S
C77 O83 1.208 . S
C78 O70 1.315 . S
C78 O73 1.279 . S
C79 O80 1.315 . S
C79 O81 1.279 . S
O80 Cd72 2.223 . S
O80 C79 1.315 . S
O81 Cd71 2.240 . S
O81 C79 1.279 . S
O82 Cd72 2.297 . S
O82 C77 1.247 . S
O83 Cd72 2.439 . S
O83 C77 1.208 . S
O84 Cd85 2.223 . S
O84 C92 1.315 . S
Cd85 O84 2.223 . S
Cd85 O88 2.297 . S
Cd85 O89 2.439 . S
Cd85 O95 2.240 . S
Cd86 O87 2.240 . S
Cd86 O94 2.223 . S
Cd86 O96 2.297 . S
Cd86 O97 2.439 . S
O87 Cd86 2.240 . S
O87 C92 1.279 . S
O88 Cd85 2.297 . S
O88 C90 1.247 . S
O89 Cd85 2.439 . S
O89 C90 1.208 . S
C90 O88 1.247 . S
C90 O89 1.208 . S
C91 O96 1.247 . S
C91 O97 1.208 . S
C92 O84 1.315 . S
C92 O87 1.279 . S
C93 O94 1.315 . S
C93 O95 1.279 . S
O94 Cd86 2.223 . S
O94 C93 1.315 . S
O95 Cd85 2.240 . S
O95 C93 1.279 . S
O96 Cd86 2.297 . S
O96 C91 1.247 . S
O97 Cd86 2.439 . S
O97 C91 1.208 . S
O98 Cd99 2.223 . S
O98 C106 1.315 . S
Cd99 O98 2.223 . S
Cd99 O102 2.297 . S
Cd99 O103 2.439 . S
Cd99 O109 2.240 . S
Cd100 O101 2.240 . S
Cd100 O108 2.223 1_455 S
Cd100 O110 2.297 . S
Cd100 O111 2.439 . S
O101 Cd100 2.240 . S
O101 C106 1.279 . S
O102 Cd99 2.297 . S
O102 C104 1.247 . S
O103 Cd99 2.439 . S
O103 C104 1.208 . S
C104 O102 1.247 . S
C104 O103 1.208 . S
C105 O110 1.247 . S
C105 O111 1.208 . S
C106 O98 1.315 . S
C106 O101 1.279 . S
C107 O108 1.315 . S
C107 O109 1.279 1_655 S
O108 Cd100 2.223 1_655 S
O108 C107 1.315 . S
O109 Cd99 2.240 . S
O109 C107 1.279 1_455 S
O110 Cd100 2.297 . S
O110 C105 1.247 . S
O111 Cd100 2.439 . S
O111 C105 1.208 . S
O112 Cd113 2.223 . S
O112 C120 1.315 . S
Cd113 O112 2.223 . S
Cd113 O116 2.297 . S
Cd113 O117 2.439 . S
Cd113 O123 2.240 . S
Cd114 O115 2.240 . S
Cd114 O122 2.223 1_545 S
Cd114 O124 2.297 . S
Cd114 O125 2.439 . S
O115 Cd114 2.240 . S
O115 C120 1.279 . S
O116 Cd113 2.297 . S
O116 C118 1.247 . S
O117 Cd113 2.439 . S
O117 C118 1.208 . S
C118 O116 1.247 . S
C118 O117 1.208 . S
C119 O124 1.247 . S
C119 O125 1.208 . S
C120 O112 1.315 . S
C120 O115 1.279 . S
C121 O122 1.315 . S
C121 O123 1.279 1_565 S
O122 Cd114 2.223 1_565 S
O122 C121 1.315 . S
O123 Cd113 2.240 . S
O123 C121 1.279 1_545 S
O124 Cd114 2.297 . S
O124 C119 1.247 . S
O125 Cd114 2.439 . S
O125 C119 1.208 . S
O126 Cd127 2.223 . S
O126 C134 1.315 . S
Cd127 O126 2.223 . S
Cd127 O130 2.297 . S
Cd127 O131 2.439 . S
Cd127 O137 2.240 . S
Cd128 O129 2.240 . S
Cd128 O136 2.223 . S
Cd128 O138 2.297 . S
Cd128 O139 2.439 . S
O129 Cd128 2.240 . S
O129 C134 1.279 . S
O130 Cd127 2.297 . S
O130 C132 1.247 . S
O131 Cd127 2.439 . S
O131 C132 1.208 . S
C132 O130 1.247 . S
C132 O131 1.208 . S
C133 O138 1.247 . S
C133 O139 1.208 . S
C134 O126 1.315 . S
C134 O129 1.279 . S
C135 O136 1.315 . S
C135 O137 1.279 . S
O136 Cd128 2.223 . S
O136 C135 1.315 . S
O137 Cd127 2.240 . S
O137 C135 1.279 . S
O138 Cd128 2.297 . S
O138 C133 1.247 . S
O139 Cd128 2.439 . S
O139 C133 1.208 . S
O140 Cd141 2.223 1_545 S
O140 C148 1.315 1_545 S
Cd141 O140 2.223 1_565 S
Cd141 O144 2.297 . S
Cd141 O145 2.439 . S
Cd141 O151 2.240 1_565 S
Cd142 O143 2.240 1_545 S
Cd142 O150 2.223 . S
Cd142 O152 2.297 . S
Cd142 O153 2.439 1_545 S
O143 Cd142 2.240 1_565 S
O143 C148 1.279 . S
O144 Cd141 2.297 . S
O144 C146 1.247 . S
O145 Cd141 2.439 . S
O145 C146 1.208 . S
C146 O144 1.247 . S
C146 O145 1.208 . S
C147 O152 1.247 . S
C147 O153 1.208 1_545 S
C148 O140 1.315 1_565 S
C148 O143 1.279 . S
C149 O150 1.315 . S
C149 O151 1.279 . S
O150 Cd142 2.223 . S
O150 C149 1.315 . S
O151 Cd141 2.240 1_545 S
O151 C149 1.279 . S
O152 Cd142 2.297 . S
O152 C147 1.247 . S
O153 Cd142 2.439 1_565 S
O153 C147 1.208 1_565 S
O154 Cd155 2.223 . S
O154 C162 1.315 . S
Cd155 O154 2.223 . S
Cd155 O158 2.297 . S
Cd155 O159 2.439 1_554 S
Cd155 O165 2.249 . S
Cd156 O157 2.240 1_556 S
Cd156 O164 2.223 1_556 S
Cd156 O166 2.297 . S
Cd156 O167 2.439 . S
O157 Cd156 2.240 1_554 S
O157 C162 1.279 . S
O158 Cd155 2.297 . S
O158 C160 1.247 . S
O159 Cd155 2.439 1_556 S
O159 C160 1.208 1_556 S
C160 O158 1.247 . S
C160 O159 1.208 1_554 S
C161 O166 1.247 . S
C161 O167 1.208 . S
C162 O154 1.315 . S
C162 O157 1.279 . S
C163 O164 1.315 . S
C163 O165 1.285 . S
O164 Cd156 2.223 1_554 S
O164 C163 1.315 . S
O165 Cd155 2.249 . S
O165 C163 1.285 . S
O166 Cd156 2.297 . S
O166 C161 1.247 . S
O167 Cd156 2.439 . S
O167 C161 1.208 . S
O168 Cd169 2.223 . S
O168 C176 1.315 . S
Cd169 O168 2.223 . S
Cd169 O172 2.297 . S
Cd169 O173 2.439 . S
Cd169 O179 2.240 . S
Cd170 O171 2.240 . S
Cd170 O178 2.223 . S
Cd170 O180 2.297 1_554 S
Cd170 O181 2.439 1_554 S
O171 Cd170 2.240 . S
O171 C176 1.279 . S
O172 Cd169 2.297 . S
O172 C174 1.247 . S
O173 Cd169 2.439 . S
O173 C174 1.208 . S
C174 O172 1.247 . S
C174 O173 1.208 . S
C175 O180 1.247 . S
C175 O181 1.208 . S
C176 O168 1.315 . S
C176 O171 1.279 . S
C177 O178 1.315 . S
C177 O179 1.279 . S
O178 Cd170 2.223 . S
O178 C177 1.315 . S
O179 Cd169 2.240 . S
O179 C177 1.279 . S
O180 Cd170 2.297 1_556 S
O180 C175 1.247 . S
O181 Cd170 2.439 1_556 S
O181 C175 1.208 . S
O182 Cd183 2.223 . S
O182 C190 1.315 . S
Cd183 O182 2.223 . S
Cd183 O186 2.297 . S
Cd183 O187 2.439 . S
Cd183 O193 2.240 . S
Cd184 O185 2.240 . S
Cd184 O192 2.223 . S
Cd184 O194 2.297 1_554 S
Cd184 O195 2.439 1_554 S
O185 Cd184 2.240 . S
O185 C190 1.279 . S
O186 Cd183 2.297 . S
O186 C188 1.247 . S
O187 Cd183 2.439 . S
O187 C188 1.208 . S
C188 O186 1.247 . S
C188 O187 1.208 . S
C189 O194 1.247 . S
C189 O195 1.208 . S
C190 O182 1.315 . S
C190 O185 1.279 . S
C191 O192 1.315 . S
C191 O193 1.279 . S
O192 Cd184 2.223 . S
O192 C191 1.315 . S
O193 Cd183 2.240 . S
O193 C191 1.279 . S
O194 Cd184 2.297 1_556 S
O194 C189 1.247 . S
O195 Cd184 2.439 1_556 S
O195 C189 1.208 . S
O196 Cd197 2.223 . S
O196 C204 1.315 . S
Cd197 O196 2.223 . S
Cd197 O200 2.297 . S
Cd197 O201 2.439 . S
Cd197 O207 2.240 . S
Cd198 O199 2.240 . S
Cd198 O206 2.223 . S
Cd198 O208 2.297 . S
Cd198 O209 2.439 . S
O199 Cd198 2.240 . S
O199 C204 1.279 . S
O200 Cd197 2.297 . S
O200 C202 1.247 . S
O201 Cd197 2.439 . S
O201 C202 1.208 . S
C202 O200 1.247 . S
C202 O201 1.208 . S
C203 O208 1.247 . S
C203 O209 1.208 . S
C204 O196 1.315 . S
C204 O199 1.279 . S
C205 O206 1.315 . S
C205 O207 1.279 . S
O206 Cd198 2.223 . S
O206 C205 1.315 . S
O207 Cd197 2.240 . S
O207 C205 1.279 . S
O208 Cd198 2.297 . S
O208 C203 1.247 . S
O209 Cd198 2.439 . S
O209 C203 1.208 . S
O210 Cd211 2.223 . S
O210 C218 1.315 . S
Cd211 O210 2.223 . S
Cd211 O214 2.297 . S
Cd211 O215 2.439 . S
Cd211 O221 2.240 . S
Cd212 O213 2.240 . S
Cd212 O220 2.223 . S
Cd212 O222 2.297 . S
Cd212 O223 2.439 . S
O213 Cd212 2.240 . S
O213 C218 1.279 . S
O214 Cd211 2.297 . S
O214 C216 1.247 . S
O215 Cd211 2.439 . S
O215 C216 1.208 . S
C216 O214 1.247 . S
C216 O215 1.208 . S
C217 O222 1.247 . S
C217 O223 1.208 . S
C218 O210 1.315 . S
C218 O213 1.279 . S
C219 O220 1.315 . S
C219 O221 1.279 . S
O220 Cd212 2.223 . S
O220 C219 1.315 . S
O221 Cd211 2.240 . S
O221 C219 1.279 . S
O222 Cd212 2.297 . S
O222 C217 1.247 . S
O223 Cd212 2.439 . S
O223 C217 1.208 . S
O224 Cd225 2.223 . S
O224 C232 1.315 . S
Cd225 O224 2.223 . S
Cd225 O228 2.297 . S
Cd225 O229 2.439 . S
Cd225 O235 2.240 . S
Cd226 O227 2.240 . S
Cd226 O234 2.223 . S
Cd226 O236 2.297 . S
Cd226 O237 2.439 . S
O227 Cd226 2.240 . S
O227 C232 1.279 . S
O228 Cd225 2.297 . S
O228 C230 1.247 . S
O229 Cd225 2.439 . S
O229 C230 1.208 . S
C230 O228 1.247 . S
C230 O229 1.208 . S
C231 O236 1.247 . S
C231 O237 1.208 . S
C232 O224 1.315 . S
C232 O227 1.279 . S
C233 O234 1.315 . S
C233 O235 1.279 . S
O234 Cd226 2.223 . S
O234 C233 1.315 . S
O235 Cd225 2.240 . S
O235 C233 1.279 . S
O236 Cd226 2.297 . S
O236 C231 1.247 . S
O237 Cd226 2.439 . S
O237 C231 1.208 . S
O238 Cd239 2.223 . S
O238 C246 1.315 . S
Cd239 O238 2.223 . S
Cd239 O242 2.297 . S
Cd239 O243 2.439 . S
Cd239 O249 2.240 . S
Cd240 O241 2.240 . S
Cd240 O248 2.223 . S
Cd240 O250 2.297 . S
Cd240 O251 2.439 . S
O241 Cd240 2.240 . S
O241 C246 1.279 . S
O242 Cd239 2.297 . S
O242 C244 1.247 . S
O243 Cd239 2.439 . S
O243 C244 1.208 . S
C244 O242 1.247 . S
C244 O243 1.208 . S
C245 O250 1.247 . S
C245 O251 1.208 . S
C246 O238 1.315 . S
C246 O241 1.279 . S
C247 O248 1.315 . S
C247 O249 1.279 . S
O248 Cd240 2.223 . S
O248 C247 1.315 . S
O249 Cd239 2.240 . S
O249 C247 1.279 . S
O250 Cd240 2.297 . S
O250 C245 1.247 . S
O251 Cd240 2.439 . S
O251 C245 1.208 . S
O252 Cd253 2.223 . S
O252 C260 1.315 . S
Cd253 O252 2.223 . S
Cd253 O256 2.297 . S
Cd253 O257 2.439 . S
Cd253 O263 2.240 . S
Cd254 O255 2.240 . S
Cd254 O262 2.223 . S
Cd254 O264 2.297 . S
Cd254 O265 2.439 . S
O255 Cd254 2.240 . S
O255 C260 1.279 . S
O256 Cd253 2.297 . S
O256 C258 1.247 . S
O257 Cd253 2.439 . S
O257 C258 1.208 . S
C258 O256 1.247 . S
C258 O257 1.208 . S
C259 O264 1.247 . S
C259 O265 1.208 . S
C260 O252 1.315 . S
C260 O255 1.279 . S
C261 O262 1.315 . S
C261 O263 1.279 . S
O262 Cd254 2.223 . S
O262 C261 1.315 . S
O263 Cd253 2.240 . S
O263 C261 1.279 . S
O264 Cd254 2.297 . S
O264 C259 1.247 . S
O265 Cd254 2.439 . S
O265 C259 1.208 . S
O266 Cd267 2.223 . S
O266 C274 1.315 . S
Cd267 O266 2.223 . S
Cd267 O270 2.297 . S
Cd267 O271 2.439 . S
Cd267 O277 2.240 . S
Cd268 O269 2.240 . S
Cd268 O276 2.223 . S
Cd268 O278 2.297 . S
Cd268 O279 2.439 . S
O269 Cd268 2.240 . S
O269 C274 1.279 . S
O270 Cd267 2.297 . S
O270 C272 1.247 . S
O271 Cd267 2.439 . S
O271 C272 1.208 . S
C272 O270 1.247 . S
C272 O271 1.208 . S
C273 O278 1.247 . S
C273 O279 1.208 . S
C274 O266 1.315 . S
C274 O269 1.279 . S
C275 O276 1.315 . S
C275 O277 1.279 . S
O276 Cd268 2.223 . S
O276 C275 1.315 . S
O277 Cd267 2.240 . S
O277 C275 1.279 . S
O278 Cd268 2.297 . S
O278 C273 1.247 . S
O279 Cd268 2.439 . S
O279 C273 1.208 . S
O280 Cd281 2.223 . S
O280 C288 1.315 . S
Cd281 O280 2.223 . S
Cd281 O284 2.297 . S
Cd281 O285 2.418 1_554 S
Cd281 O291 2.240 1_554 S
Cd282 O283 2.227 1_556 S
Cd282 O290 2.218 1_556 S
Cd282 O292 2.312 . S
Cd282 O293 2.452 . S
O283 Cd282 2.227 1_554 S
O283 C288 1.279 . S
O284 Cd281 2.297 . S
O284 C286 1.247 . S
O285 Cd281 2.418 1_556 S
O285 C286 1.178 1_556 S
C286 O284 1.247 . S
C286 O285 1.178 1_554 S
C287 O292 1.247 . S
C287 O293 1.208 . S
C288 O280 1.315 . S
C288 O283 1.279 . S
C289 O290 1.315 . S
C289 O291 1.279 1_554 S
O290 Cd282 2.218 1_554 S
O290 C289 1.315 . S
O291 Cd281 2.240 1_556 S
O291 C289 1.279 1_556 S
O292 Cd282 2.312 . S
O292 C287 1.247 . S
O293 Cd282 2.452 . S
O293 C287 1.208 . S
O294 Cd295 2.223 . S
O294 C302 1.315 . S
Cd295 O294 2.223 . S
Cd295 O298 2.297 . S
Cd295 O299 2.439 . S
Cd295 O305 2.240 . S
Cd296 O297 2.240 . S
Cd296 O304 2.223 . S
Cd296 O306 2.297 . S
Cd296 O307 2.439 . S
O297 Cd296 2.240 . S
O297 C302 1.279 . S
O298 Cd295 2.297 . S
O298 C300 1.247 . S
O299 Cd295 2.439 . S
O299 C300 1.208 . S
C300 O298 1.247 . S
C300 O299 1.208 . S
C301 O306 1.247 . S
C301 O307 1.208 . S
C302 O294 1.315 . S
C302 O297 1.279 . S
C303 O304 1.315 . S
C303 O305 1.279 . S
O304 Cd296 2.223 . S
O304 C303 1.315 . S
O305 Cd295 2.240 . S
O305 C303 1.279 . S
O306 Cd296 2.297 . S
O306 C301 1.247 . S
O307 Cd296 2.439 . S
O307 C301 1.208 . S
O308 Cd309 2.223 . S
O308 C316 1.315 . S
Cd309 O308 2.223 . S
Cd309 O312 2.297 . S
Cd309 O313 2.439 . S
Cd309 O319 2.240 . S
Cd310 O311 2.240 . S
Cd310 O318 2.223 . S
Cd310 O320 2.297 . S
Cd310 O321 2.439 . S
O311 Cd310 2.240 . S
O311 C316 1.279 . S
O312 Cd309 2.297 . S
O312 C314 1.247 . S
O313 Cd309 2.439 . S
O313 C314 1.208 . S
C314 O312 1.247 . S
C314 O313 1.208 . S
C315 O320 1.247 . S
C315 O321 1.208 . S
C316 O308 1.315 . S
C316 O311 1.279 . S
C317 O318 1.315 . S
C317 O319 1.279 . S
O318 Cd310 2.223 . S
O318 C317 1.315 . S
O319 Cd309 2.240 . S
O319 C317 1.279 . S
O320 Cd310 2.297 . S
O320 C315 1.247 . S
O321 Cd310 2.439 . S
O321 C315 1.208 . S
O322 Cd323 2.223 . S
O322 C330 1.315 . S
Cd323 O322 2.223 . S
Cd323 O326 2.297 . S
Cd323 O327 2.439 . S
Cd323 O333 2.240 . S
Cd324 O325 2.240 . S
Cd324 O332 2.223 . S
Cd324 O334 2.297 . S
Cd324 O335 2.439 . S
O325 Cd324 2.240 . S
O325 C330 1.279 . S
O326 Cd323 2.297 . S
O326 C328 1.247 . S
O327 Cd323 2.439 . S
O327 C328 1.208 . S
C328 O326 1.247 . S
C328 O327 1.208 . S
C329 O334 1.247 . S
C329 O335 1.208 . S
C330 O322 1.315 . S
C330 O325 1.279 . S
C331 O332 1.315 . S
C331 O333 1.279 . S
O332 Cd324 2.223 . S
O332 C331 1.315 . S
O333 Cd323 2.240 . S
O333 C331 1.279 . S
O334 Cd324 2.297 . S
O334 C329 1.247 . S
O335 Cd324 2.439 . S
O335 C329 1.208 . S
Tb336 N367 2.660 1_545 S
Tb336 N374 2.600 1_544 S
Tb336 O380 2.586 1_554 S
Tb336 O381 2.610 . S
Tb336 O383 2.320 . S
Tb336 O384 2.552 . S
Tb336 O385 2.413 1_455 S
Tb336 O387 2.362 . S
Tb336 O388 2.421 1_554 S
Tb336 C400 2.833 1_454 S
C337 C340 1.432 . S
C337 C341 1.414 . S
C337 N344 1.359 . S
C338 C340 1.417 . S
C338 C342 1.432 . S
C338 C350 1.410 . S
C339 C341 1.444 . S
C339 C342 1.317 . S
C339 H362 0.929 . S
C340 C337 1.432 . S
C340 C338 1.417 . S
C340 N348 1.360 . S
C341 C337 1.414 . S
C341 C339 1.444 . S
C341 C346 1.385 . S
C342 C338 1.432 . S
C342 C339 1.317 . S
C342 H354 0.930 . S
C343 C345 1.392 . S
C343 C346 1.370 . S
C343 H355 0.931 . S
N344 C337 1.359 . S
N344 C345 1.327 . S
N344 Tb347 2.600 . S
C345 C343 1.392 . S
C345 N344 1.327 . S
C345 H352 0.930 . S
C346 C341 1.385 . S
C346 C343 1.370 . S
C346 H365 0.930 . S
Tb347 N344 2.600 . S
Tb347 N348 2.660 . S
Tb347 O381 2.362 . S
Tb347 O382 2.421 . S
Tb347 O386 2.546 . S
Tb347 O387 2.610 . S
Tb347 O389 2.344 . S
Tb347 O390 2.552 . S
Tb347 O391 2.413 . S
Tb347 C411 2.833 . S
N348 C340 1.360 . S
N348 Tb347 2.660 . S
N348 C349 1.351 . S
C349 N348 1.351 . S
C349 C351 1.380 1_554 S
C349 H356 0.912 1_554 S
C350 C338 1.410 . S
C350 C351 1.345 1_554 S
C350 H358 0.914 1_554 S
C351 C349 1.380 1_556 S
C351 C350 1.345 1_556 S
C351 H353 0.930 . S
H352 C345 0.930 . S
H353 C351 0.930 . S
H354 C342 0.930 . S
H355 C343 0.931 . S
H356 C349 0.912 1_556 S
H357 C371 0.930 . S
H358 C350 0.914 1_556 S
H359 C377 0.930 1_545 S
H360 C368 0.930 1_545 S
H361 C375 0.931 . S
H362 C339 0.929 . S
H363 C369 0.930 . S
H364 C402 0.930 . S
H365 C346 0.930 . S
H366 C401 0.929 . S
N367 Tb336 2.660 1_565 S
N367 C368 1.305 . S
N367 C372 1.360 . S
C368 H360 0.930 1_565 S
C368 N367 1.305 . S
C368 C371 1.407 . S
C369 H363 0.930 . S
C369 C370 1.410 . S
C369 C371 1.345 1_655 S
C370 C369 1.410 . S
C370 C372 1.417 1_655 S
C370 C402 1.432 . S
C371 H357 0.930 . S
C371 C368 1.407 . S
C371 C369 1.345 1_455 S
C372 N367 1.360 . S
C372 C370 1.417 1_455 S
C372 C376 1.432 1_554 S
H373 C378 0.930 . S
N374 Tb336 2.600 1_566 S
N374 C376 1.359 . S
N374 C377 1.327 . S
C375 H361 0.931 . S
C375 C377 1.392 . S
C375 C378 1.370 1_455 S
C376 C372 1.432 1_556 S
C376 N374 1.359 . S
C376 C379 1.414 1_455 S
C377 H359 0.930 1_565 S
C377 N374 1.327 . S
C377 C375 1.392 . S
C378 H373 0.930 . S
C378 C375 1.370 1_655 S
C378 C379 1.385 . S
C379 C376 1.414 1_655 S
C379 C378 1.385 . S
C379 C401 1.444 . S
O380 Tb336 2.586 1_556 S
O380 C400 1.215 1_455 S
O381 Tb336 2.610 . S
O381 Tb347 2.362 . S
O381 C392 1.283 . S
O382 Tb347 2.421 . S
O382 C399 1.262 . S
O383 Tb336 2.320 . S
O383 C399 1.260 . S
O384 Tb336 2.552 . S
O384 C392 1.243 . S
O385 Tb336 2.413 1_655 S
O385 C400 1.256 1_554 S
O386 Tb347 2.546 . S
O386 C411 1.251 . S
O387 Tb336 2.362 . S
O387 Tb347 2.610 . S
O387 C403 1.283 . S
O388 Tb336 2.421 1_556 S
O388 C410 1.262 . S
O389 Tb347 2.344 . S
O389 C410 1.244 1_554 S
O390 Tb347 2.552 . S
O390 C403 1.243 . S
O391 Tb347 2.413 . S
O391 C411 1.256 . S
C392 O381 1.283 . S
C392 O384 1.243 . S
C393 C395 1.382 1_556 S
C393 C397 1.393 . S
C393 C400 1.500 . S
C394 C395 1.400 . S
C394 C396 1.384 1_554 S
C395 C393 1.382 1_554 S
C395 C394 1.400 . S
C395 H412 0.930 . S
C396 C394 1.384 1_556 S
C396 C398 1.392 . S
C396 H413 0.931 . S
C397 C393 1.393 . S
C397 C398 1.401 . S
C397 H414 0.930 . S
C398 C396 1.392 . S
C398 C397 1.401 . S
C398 H415 0.930 . S
C399 O382 1.262 . S
C399 O383 1.260 . S
C400 Tb336 2.833 1_656 S
C400 O380 1.215 1_655 S
C400 O385 1.256 1_556 S
C400 C393 1.500 . S
C401 H366 0.929 . S
C401 C379 1.444 . S
C401 C402 1.317 1_556 S
C402 H364 0.930 . S
C402 C370 1.432 . S
C402 C401 1.317 1_554 S
C403 O387 1.283 . S
C403 O390 1.243 . S
C404 C405 1.382 . S
C404 C408 1.393 . S
C404 C411 1.500 . S
C405 C404 1.382 . S
C405 C406 1.400 . S
C405 H416 0.930 . S
C406 C405 1.400 . S
C406 C407 1.384 . S
C407 C406 1.384 . S
C407 C409 1.392 . S
C407 H417 0.931 . S
C408 C404 1.393 . S
C408 C409 1.401 . S
C408 H418 0.930 . S
C409 C407 1.392 . S
C409 C408 1.401 . S
C409 H419 0.930 . S
C410 O388 1.262 . S
C410 O389 1.244 1_556 S
C411 Tb347 2.833 . S
C411 O386 1.251 . S
C411 O391 1.256 . S
C411 C404 1.500 . S
H412 C395 0.930 . S
H413 C396 0.931 . S
H414 C397 0.930 . S
H415 C398 0.930 . S
H416 C405 0.930 . S
H417 C407 0.931 . S
H418 C408 0.930 . S
H419 C409 0.930 . S
Tb420 N451 2.660 . S
Tb420 N458 2.600 . S
Tb420 O464 2.546 . S
Tb420 O465 2.610 . S
Tb420 O467 2.320 . S
Tb420 O468 2.552 . S
Tb420 O469 2.413 . S
Tb420 O471 2.362 . S
Tb420 O472 2.421 . S
Tb420 C484 2.833 . S
C421 C424 1.432 . S
C421 C425 1.414 . S
C421 N428 1.359 . S
C422 C424 1.417 . S
C422 C426 1.432 . S
C422 C434 1.410 . S
C423 C425 1.444 . S
C423 C426 1.317 . S
C423 H446 0.929 . S
C424 C421 1.432 . S
C424 C422 1.417 . S
C424 N432 1.360 . S
C425 C421 1.414 . S
C425 C423 1.444 . S
C425 C430 1.385 . S
C426 C422 1.432 . S
C426 C423 1.317 . S
C426 H438 0.930 . S
C427 C429 1.392 . S
C427 C430 1.370 . S
C427 H439 0.931 . S
N428 C421 1.359 . S
N428 C429 1.327 . S
N428 Tb431 2.600 . S
C429 C427 1.392 . S
C429 N428 1.327 . S
C429 H436 0.930 . S
C430 C425 1.385 . S
C430 C427 1.370 . S
C430 H449 0.930 . S
Tb431 N428 2.600 . S
Tb431 N432 2.660 . S
Tb431 O465 2.362 . S
Tb431 O466 2.421 . S
Tb431 O470 2.546 . S
Tb431 O471 2.610 . S
Tb431 O473 2.320 . S
Tb431 O474 2.552 . S
Tb431 O475 2.413 . S
Tb431 C495 2.833 . S
N432 C424 1.360 . S
N432 Tb431 2.660 . S
N432 C433 1.305 . S
C433 N432 1.305 . S
C433 C435 1.407 . S
C433 H440 0.930 . S
C434 C422 1.410 . S
C434 C435 1.345 . S
C434 H442 0.930 . S
C435 C433 1.407 . S
C435 C434 1.345 . S
C435 H437 0.930 . S
H436 C429 0.930 . S
H437 C435 0.930 . S
H438 C426 0.930 . S
H439 C427 0.931 . S
H440 C433 0.930 . S
H441 C455 0.930 . S
H442 C434 0.930 . S
H443 C461 0.930 . S
H444 C452 0.930 . S
H445 C459 0.931 . S
H446 C423 0.929 . S
H447 C453 0.930 . S
H448 C486 0.930 . S
H449 C430 0.930 . S
H450 C485 0.929 . S
N451 Tb420 2.660 . S
N451 C452 1.305 . S
N451 C456 1.360 . S
C452 H444 0.930 . S
C452 N451 1.305 . S
C452 C455 1.407 . S
C453 H447 0.930 . S
C453 C454 1.410 . S
C453 C455 1.345 . S
C454 C453 1.410 . S
C454 C456 1.417 . S
C454 C486 1.432 . S
C455 H441 0.930 . S
C455 C452 1.407 . S
C455 C453 1.345 . S
C456 N451 1.360 . S
C456 C454 1.417 . S
C456 C460 1.432 . S
H457 C462 0.930 . S
N458 Tb420 2.600 . S
N458 C460 1.359 . S
N458 C461 1.327 . S
C459 H445 0.931 . S
C459 C461 1.392 . S
C459 C462 1.370 . S
C460 C456 1.432 . S
C460 N458 1.359 . S
C460 C463 1.414 . S
C461 H443 0.930 . S
C461 N458 1.327 . S
C461 C459 1.392 . S
C462 H457 0.930 . S
C462 C459 1.370 . S
C462 C463 1.385 . S
C463 C460 1.414 . S
C463 C462 1.385 . S
C463 C485 1.444 . S
O464 Tb420 2.546 . S
O464 C484 1.251 . S
O465 Tb420 2.610 . S
O465 Tb431 2.362 . S
O465 C476 1.283 . S
O466 Tb431 2.421 . S
O466 C483 1.262 . S
O467 Tb420 2.320 . S
O467 C483 1.260 . S
O468 Tb420 2.552 . S
O468 C476 1.243 . S
O469 Tb420 2.413 . S
O469 C484 1.256 . S
O470 Tb431 2.546 . S
O470 C495 1.251 . S
O471 Tb420 2.362 . S
O471 Tb431 2.610 . S
O471 C487 1.283 . S
O472 Tb420 2.421 . S
O472 C494 1.262 . S
O473 Tb431 2.320 . S
O473 C494 1.260 . S
O474 Tb431 2.552 . S
O474 C487 1.243 . S
O475 Tb431 2.413 . S
O475 C495 1.256 . S
C476 O465 1.283 . S
C476 O468 1.243 . S
C477 C479 1.382 . S
C477 C481 1.393 . S
C477 C484 1.500 . S
C478 C479 1.400 . S
C478 C480 1.384 . S
C479 C477 1.382 . S
C479 C478 1.400 . S
C479 H496 0.930 . S
C480 C478 1.384 . S
C480 C482 1.392 . S
C480 H497 0.931 . S
C481 C477 1.393 . S
C481 C482 1.401 . S
C481 H498 0.930 . S
C482 C480 1.392 . S
C482 C481 1.401 . S
C482 H499 0.930 . S
C483 O466 1.262 . S
C483 O467 1.260 . S
C484 Tb420 2.833 . S
C484 O464 1.251 . S
C484 O469 1.256 . S
C484 C477 1.500 . S
C485 H450 0.929 . S
C485 C463 1.444 . S
C485 C486 1.317 . S
C486 H448 0.930 . S
C486 C454 1.432 . S
C486 C485 1.317 . S
C487 O471 1.283 . S
C487 O474 1.243 . S
C488 C489 1.382 . S
C488 C492 1.393 . S
C488 C495 1.500 . S
C489 C488 1.382 . S
C489 C490 1.400 . S
C489 H500 0.930 . S
C490 C489 1.400 . S
C490 C491 1.384 . S
C491 C490 1.384 . S
C491 C493 1.392 . S
C491 H501 0.931 . S
C492 C488 1.393 . S
C492 C493 1.401 . S
C492 H502 0.930 . S
C493 C491 1.392 . S
C493 C492 1.401 . S
C493 H503 0.930 . S
C494 O472 1.262 . S
C494 O473 1.260 . S
C495 Tb431 2.833 . S
C495 O470 1.251 . S
C495 O475 1.256 . S
C495 C488 1.500 . S
H496 C479 0.930 . S
H497 C480 0.931 . S
H498 C481 0.930 . S
H499 C482 0.930 . S
H500 C489 0.930 . S
H501 C491 0.931 . S
H502 C492 0.930 . S
H503 C493 0.930 . S
Tb504 N535 2.660 . S
Tb504 N542 2.600 . S
Tb504 O548 2.546 . S
Tb504 O549 2.610 . S
Tb504 O551 2.320 . S
Tb504 O552 2.552 1_545 S
Tb504 O553 2.413 . S
Tb504 O555 2.362 . S
Tb504 O556 2.421 . S
Tb504 C568 2.833 . S
C505 C508 1.432 . S
C505 C509 1.414 . S
C505 N512 1.359 1_565 S
C506 C508 1.417 . S
C506 C510 1.432 . S
C506 C518 1.410 . S
C507 C509 1.444 . S
C507 C510 1.317 . S
C507 H530 0.929 . S
C508 C505 1.432 . S
C508 C506 1.417 . S
C508 N516 1.360 . S
C509 C505 1.414 . S
C509 C507 1.444 . S
C509 C514 1.385 . S
C510 C506 1.432 . S
C510 C507 1.317 . S
C510 H522 0.930 . S
C511 C513 1.392 . S
C511 C514 1.370 1_545 S
C511 H523 0.931 . S
N512 C505 1.359 1_545 S
N512 C513 1.327 . S
N512 Tb515 2.600 . S
C513 C511 1.392 . S
C513 N512 1.327 . S
C513 H520 0.930 . S
C514 C509 1.385 . S
C514 C511 1.370 1_565 S
C514 H533 0.930 . S
Tb515 N512 2.600 . S
Tb515 N516 2.660 1_545 S
Tb515 O549 2.362 . S
Tb515 O550 2.421 . S
Tb515 O554 2.546 . S
Tb515 O555 2.610 . S
Tb515 O557 2.320 . S
Tb515 O558 2.552 . S
Tb515 O559 2.413 . S
Tb515 C579 2.833 . S
N516 C508 1.360 . S
N516 Tb515 2.660 1_565 S
N516 C517 1.305 . S
C517 N516 1.305 . S
C517 C519 1.407 . S
C517 H524 0.930 . S
C518 C506 1.410 . S
C518 C519 1.345 . S
C518 H526 0.930 . S
C519 C517 1.407 . S
C519 C518 1.345 . S
C519 H521 0.930 . S
H520 C513 0.930 . S
H521 C519 0.930 . S
H522 C510 0.930 . S
H523 C511 0.931 . S
H524 C517 0.930 . S
H525 C539 0.930 . S
H526 C518 0.930 . S
H527 C545 0.930 . S
H528 C536 0.930 . S
H529 C543 0.931 . S
H530 C507 0.929 . S
H531 C537 0.930 . S
H532 C570 0.930 . S
H533 C514 0.930 . S
H534 C569 0.929 . S
N535 Tb504 2.660 . S
N535 C536 1.305 . S
N535 C540 1.360 . S
C536 H528 0.930 . S
C536 N535 1.305 . S
C536 C539 1.407 . S
C537 H531 0.930 . S
C537 C538 1.410 . S
C537 C539 1.345 . S
C538 C537 1.410 . S
C538 C540 1.417 . S
C538 C570 1.432 . S
C539 H525 0.930 . S
C539 C536 1.407 . S
C539 C537 1.345 . S
C540 N535 1.360 . S
C540 C538 1.417 . S
C540 C544 1.432 . S
H541 C546 0.930 . S
N542 Tb504 2.600 . S
N542 C544 1.359 . S
N542 C545 1.327 . S
C543 H529 0.931 . S
C543 C545 1.392 . S
C543 C546 1.370 . S
C544 C540 1.432 . S
C544 N542 1.359 . S
C544 C547 1.414 . S
C545 H527 0.930 . S
C545 N542 1.327 . S
C545 C543 1.392 . S
C546 H541 0.930 . S
C546 C543 1.370 . S
C546 C547 1.385 . S
C547 C544 1.414 . S
C547 C546 1.385 . S
C547 C569 1.444 . S
O548 Tb504 2.546 . S
O548 C568 1.251 . S
O549 Tb504 2.610 . S
O549 Tb515 2.362 . S
O549 C560 1.283 1_545 S
O550 Tb515 2.421 . S
O550 C567 1.262 . S
O551 Tb504 2.320 . S
O551 C567 1.260 . S
O552 Tb504 2.552 1_565 S
O552 C560 1.243 . S
O553 Tb504 2.413 . S
O553 C568 1.256 . S
O554 Tb515 2.546 . S
O554 C579 1.251 . S
O555 Tb504 2.362 . S
O555 Tb515 2.610 . S
O555 C571 1.283 . S
O556 Tb504 2.421 . S
O556 C578 1.262 . S
O557 Tb515 2.320 . S
O557 C578 1.260 . S
O558 Tb515 2.552 . S
O558 C571 1.243 . S
O559 Tb515 2.413 . S
O559 C579 1.256 . S
C560 O549 1.283 1_565 S
C560 O552 1.243 . S
C561 C563 1.382 . S
C561 C565 1.393 . S
C561 C568 1.500 . S
C562 C563 1.400 1_565 S
C562 C564 1.384 . S
C563 C561 1.382 . S
C563 C562 1.400 1_545 S
C563 H580 0.930 . S
C564 C562 1.384 . S
C564 C566 1.392 1_565 S
C564 H581 0.931 . S
C565 C561 1.393 . S
C565 C566 1.401 . S
C565 H582 0.930 . S
C566 C564 1.392 1_545 S
C566 C565 1.401 . S
C566 H583 0.930 . S
C567 O550 1.262 . S
C567 O551 1.260 . S
C568 Tb504 2.833 . S
C568 O548 1.251 . S
C568 O553 1.256 . S
C568 C561 1.500 . S
C569 H534 0.929 . S
C569 C547 1.444 . S
C569 C570 1.317 . S
C570 H532 0.930 . S
C570 C538 1.432 . S
C570 C569 1.317 . S
C571 O555 1.283 . S
C571 O558 1.243 . S
C572 C573 1.382 . S
C572 C576 1.393 . S
C572 C579 1.500 . S
C573 C572 1.382 . S
C573 C574 1.400 . S
C573 H584 0.930 . S
C574 C573 1.400 . S
C574 C575 1.384 . S
C575 C574 1.384 . S
C575 C577 1.392 . S
C575 H585 0.931 . S
C576 C572 1.393 . S
C576 C577 1.401 . S
C576 H586 0.930 . S
C577 C575 1.392 . S
C577 C576 1.401 . S
C577 H587 0.930 . S
C578 O556 1.262 . S
C578 O557 1.260 . S
C579 Tb515 2.833 . S
C579 O554 1.251 . S
C579 O559 1.256 . S
C579 C572 1.500 . S
H580 C563 0.930 . S
H581 C564 0.931 . S
H582 C565 0.930 . S
H583 C566 0.930 . S
H584 C573 0.930 . S
H585 C575 0.931 . S
H586 C576 0.930 . S
H587 C577 0.930 . S
Tb588 N619 2.660 . S
Tb588 N626 2.600 . S
Tb588 O632 2.546 . S
Tb588 O633 2.610 . S
Tb588 O635 2.320 . S
Tb588 O636 2.552 . S
Tb588 O637 2.413 . S
Tb588 O639 2.362 . S
Tb588 O640 2.421 . S
Tb588 C652 2.833 . S
C589 C592 1.432 . S
C589 C593 1.414 . S
C589 N596 1.359 . S
C590 C592 1.417 . S
C590 C594 1.432 . S
C590 C602 1.410 . S
C591 C593 1.444 . S
C591 C594 1.317 . S
C591 H614 0.929 . S
C592 C589 1.432 . S
C592 C590 1.417 . S
C592 N600 1.360 . S
C593 C589 1.414 . S
C593 C591 1.444 . S
C593 C598 1.385 . S
C594 C590 1.432 . S
C594 C591 1.317 . S
C594 H606 0.930 . S
C595 C597 1.392 . S
C595 C598 1.370 . S
C595 H607 0.931 . S
N596 C589 1.359 . S
N596 C597 1.327 . S
N596 Tb599 2.600 . S
C597 C595 1.392 . S
C597 N596 1.327 . S
C597 H604 0.930 . S
C598 C593 1.385 . S
C598 C595 1.370 . S
C598 H617 0.930 . S
Tb599 N596 2.600 . S
Tb599 N600 2.660 . S
Tb599 O633 2.362 . S
Tb599 O634 2.421 . S
Tb599 O638 2.546 . S
Tb599 O639 2.610 . S
Tb599 O641 2.320 . S
Tb599 O642 2.552 . S
Tb599 O643 2.413 . S
Tb599 C663 2.833 . S
N600 C592 1.360 . S
N600 Tb599 2.660 . S
N600 C601 1.305 . S
C601 N600 1.305 . S
C601 C603 1.407 . S
C601 H608 0.930 . S
C602 C590 1.410 . S
C602 C603 1.345 . S
C602 H610 0.930 . S
C603 C601 1.407 . S
C603 C602 1.345 . S
C603 H605 0.930 . S
H604 C597 0.930 . S
H605 C603 0.930 . S
H606 C594 0.930 . S
H607 C595 0.931 . S
H608 C601 0.930 . S
H609 C623 0.930 . S
H610 C602 0.930 . S
H611 C629 0.930 . S
H612 C620 0.930 . S
H613 C627 0.931 . S
H614 C591 0.929 . S
H615 C621 0.930 . S
H616 C654 0.930 . S
H617 C598 0.930 . S
H618 C653 0.929 . S
N619 Tb588 2.660 . S
N619 C620 1.305 . S
N619 C624 1.360 . S
C620 H612 0.930 . S
C620 N619 1.305 . S
C620 C623 1.407 . S
C621 H615 0.930 . S
C621 C622 1.410 . S
C621 C623 1.345 . S
C622 C621 1.410 . S
C622 C624 1.417 . S
C622 C654 1.432 . S
C623 H609 0.930 . S
C623 C620 1.407 . S
C623 C621 1.345 . S
C624 N619 1.360 . S
C624 C622 1.417 . S
C624 C628 1.432 . S
H625 C630 0.930 . S
N626 Tb588 2.600 . S
N626 C628 1.359 . S
N626 C629 1.327 . S
C627 H613 0.931 . S
C627 C629 1.392 . S
C627 C630 1.370 . S
C628 C624 1.432 . S
C628 N626 1.359 . S
C628 C631 1.414 . S
C629 H611 0.930 . S
C629 N626 1.327 . S
C629 C627 1.392 . S
C630 H625 0.930 . S
C630 C627 1.370 . S
C630 C631 1.385 . S
C631 C628 1.414 . S
C631 C630 1.385 . S
C631 C653 1.444 . S
O632 Tb588 2.546 . S
O632 C652 1.251 . S
O633 Tb588 2.610 . S
O633 Tb599 2.362 . S
O633 C644 1.283 . S
O634 Tb599 2.421 . S
O634 C651 1.262 . S
O635 Tb588 2.320 . S
O635 C651 1.260 . S
O636 Tb588 2.552 . S
O636 C644 1.243 . S
O637 Tb588 2.413 . S
O637 C652 1.256 . S
O638 Tb599 2.546 . S
O638 C663 1.251 . S
O639 Tb588 2.362 . S
O639 Tb599 2.610 . S
O639 C655 1.283 . S
O640 Tb588 2.421 . S
O640 C662 1.262 . S
O641 Tb599 2.320 . S
O641 C662 1.260 . S
O642 Tb599 2.552 . S
O642 C655 1.243 . S
O643 Tb599 2.413 . S
O643 C663 1.256 . S
C644 O633 1.283 . S
C644 O636 1.243 . S
C645 C647 1.382 . S
C645 C649 1.393 . S
C645 C652 1.500 . S
C646 C647 1.400 . S
C646 C648 1.384 . S
C647 C645 1.382 . S
C647 C646 1.400 . S
C647 H664 0.930 . S
C648 C646 1.384 . S
C648 C650 1.392 . S
C648 H665 0.931 . S
C649 C645 1.393 . S
C649 C650 1.401 . S
C649 H666 0.930 . S
C650 C648 1.392 . S
C650 C649 1.401 . S
C650 H667 0.930 . S
C651 O634 1.262 . S
C651 O635 1.260 . S
C652 Tb588 2.833 . S
C652 O632 1.251 . S
C652 O637 1.256 . S
C652 C645 1.500 . S
C653 H618 0.929 . S
C653 C631 1.444 . S
C653 C654 1.317 . S
C654 H616 0.930 . S
C654 C622 1.432 . S
C654 C653 1.317 . S
C655 O639 1.283 . S
C655 O642 1.243 . S
C656 C657 1.382 . S
C656 C660 1.393 . S
C656 C663 1.500 . S
C657 C656 1.382 . S
C657 C658 1.400 . S
C657 H668 0.930 . S
C658 C657 1.400 . S
C658 C659 1.384 . S
C659 C658 1.384 . S
C659 C661 1.392 . S
C659 H669 0.931 . S
C660 C656 1.393 . S
C660 C661 1.401 . S
C660 H670 0.930 . S
C661 C659 1.392 . S
C661 C660 1.401 . S
C661 H671 0.930 . S
C662 O640 1.262 . S
C662 O641 1.260 . S
C663 Tb599 2.833 . S
C663 O638 1.251 . S
C663 O643 1.256 . S
C663 C656 1.500 . S
H664 C647 0.930 . S
H665 C648 0.931 . S
H666 C649 0.930 . S
H667 C650 0.930 . S
H668 C657 0.930 . S
H669 C659 0.931 . S
H670 C660 0.930 . S
H671 C661 0.930 . S
Tb672 N703 2.660 . S
Tb672 N710 2.600 . S
Tb672 O716 2.546 . S
Tb672 O717 2.610 . S
Tb672 O719 2.320 . S
Tb672 O720 2.552 . S
Tb672 O721 2.413 . S
Tb672 O723 2.362 . S
Tb672 O724 2.421 . S
Tb672 C736 2.833 . S
C673 C676 1.432 . S
C673 C677 1.414 . S
C673 N680 1.359 . S
C674 C676 1.417 . S
C674 C678 1.432 . S
C674 C686 1.410 . S
C675 C677 1.444 . S
C675 C678 1.317 . S
C675 H698 0.929 . S
C676 C673 1.432 . S
C676 C674 1.417 . S
C676 N684 1.360 . S
C677 C673 1.414 . S
C677 C675 1.444 . S
C677 C682 1.385 . S
C678 C674 1.432 . S
C678 C675 1.317 . S
C678 H690 0.930 . S
C679 C681 1.392 . S
C679 C682 1.370 . S
C679 H691 0.931 . S
N680 C673 1.359 . S
N680 C681 1.327 . S
N680 Tb683 2.600 1_565 S
C681 C679 1.392 . S
C681 N680 1.327 . S
C681 H688 0.930 1_565 S
C682 C677 1.385 . S
C682 C679 1.370 . S
C682 H701 0.930 . S
Tb683 N680 2.600 1_545 S
Tb683 N684 2.660 1_545 S
Tb683 O717 2.362 . S
Tb683 O718 2.421 . S
Tb683 O722 2.546 1_545 S
Tb683 O723 2.610 . S
Tb683 O725 2.320 . S
Tb683 O726 2.552 . S
Tb683 O727 2.413 1_545 S
Tb683 C747 2.833 1_545 S
N684 C676 1.360 . S
N684 Tb683 2.660 1_565 S
N684 C685 1.305 . S
C685 N684 1.305 . S
C685 C687 1.407 . S
C685 H692 0.930 . S
C686 C674 1.410 . S
C686 C687 1.345 . S
C686 H694 0.930 . S
C687 C685 1.407 . S
C687 C686 1.345 . S
C687 H689 0.930 1_455 S
H688 C681 0.930 1_545 S
H689 C687 0.930 1_655 S
H690 C678 0.930 . S
H691 C679 0.931 . S
H692 C685 0.930 . S
H693 C707 0.930 . S
H694 C686 0.930 . S
H695 C713 0.930 . S
H696 C704 0.930 . S
H697 C711 0.881 1_655 S
H698 C675 0.929 . S
H699 C705 0.930 . S
H700 C738 0.930 . S
H701 C682 0.930 . S
H702 C737 0.929 . S
N703 Tb672 2.660 . S
N703 C704 1.305 . S
N703 C708 1.360 . S
C704 H696 0.930 . S
C704 N703 1.305 . S
C704 C707 1.407 . S
C705 H699 0.930 . S
C705 C706 1.410 . S
C705 C707 1.345 . S
C706 C705 1.410 . S
C706 C708 1.417 . S
C706 C738 1.432 . S
C707 H693 0.930 . S
C707 C704 1.407 . S
C707 C705 1.345 . S
C708 N703 1.360 . S
C708 C706 1.417 . S
C708 C712 1.432 . S
H709 C714 0.930 . S
N710 Tb672 2.600 . S
N710 C712 1.359 . S
N710 C713 1.327 . S
C711 H697 0.881 1_455 S
C711 C713 1.392 . S
C711 C714 1.370 . S
C712 C708 1.432 . S
C712 N710 1.359 . S
C712 C715 1.414 . S
C713 H695 0.930 . S
C713 N710 1.327 . S
C713 C711 1.392 . S
C714 H709 0.930 . S
C714 C711 1.370 . S
C714 C715 1.385 . S
C715 C712 1.414 . S
C715 C714 1.385 . S
C715 C737 1.444 . S
O716 Tb672 2.546 . S
O716 C736 1.251 . S
O717 Tb672 2.610 . S
O717 Tb683 2.362 . S
O717 C728 1.283 . S
O718 Tb683 2.421 . S
O718 C735 1.262 . S
O719 Tb672 2.320 . S
O719 C735 1.260 . S
O720 Tb672 2.552 . S
O720 C728 1.243 . S
O721 Tb672 2.413 . S
O721 C736 1.256 . S
O722 Tb683 2.546 1_565 S
O722 C747 1.251 . S
O723 Tb672 2.362 . S
O723 Tb683 2.610 . S
O723 C739 1.283 . S
O724 Tb672 2.421 . S
O724 C746 1.262 . S
O725 Tb683 2.320 . S
O725 C746 1.260 . S
O726 Tb683 2.552 . S
O726 C739 1.243 . S
O727 Tb683 2.413 1_565 S
O727 C747 1.256 . S
C728 O717 1.283 . S
C728 O720 1.243 . S
C729 C731 1.382 . S
C729 C733 1.393 . S
C729 C736 1.500 . S
C730 C731 1.400 . S
C730 C732 1.384 . S
C731 C729 1.382 . S
C731 C730 1.400 . S
C731 H748 0.930 . S
C732 C730 1.384 . S
C732 C734 1.392 . S
C732 H749 0.931 . S
C733 C729 1.393 . S
C733 C734 1.401 . S
C733 H750 0.930 . S
C734 C732 1.392 . S
C734 C733 1.401 . S
C734 H751 0.930 . S
C735 O718 1.262 . S
C735 O719 1.260 . S
C736 Tb672 2.833 . S
C736 O716 1.251 . S
C736 O721 1.256 . S
C736 C729 1.500 . S
C737 H702 0.929 . S
C737 C715 1.444 . S
C737 C738 1.317 . S
C738 H700 0.930 . S
C738 C706 1.432 . S
C738 C737 1.317 . S
C739 O723 1.283 . S
C739 O726 1.243 . S
C740 C741 1.382 . S
C740 C744 1.393 . S
C740 C747 1.500 . S
C741 C740 1.382 . S
C741 C742 1.400 . S
C741 H752 0.930 . S
C742 C741 1.400 . S
C742 C743 1.384 . S
C743 C742 1.384 . S
C743 C745 1.392 . S
C743 H753 0.931 . S
C744 C740 1.393 . S
C744 C745 1.401 . S
C744 H754 0.930 . S
C745 C743 1.392 . S
C745 C744 1.401 . S
C745 H755 0.930 . S
C746 O724 1.262 . S
C746 O725 1.260 . S
C747 Tb683 2.833 1_565 S
C747 O722 1.251 . S
C747 O727 1.256 . S
C747 C740 1.500 . S
H748 C731 0.930 . S
H749 C732 0.931 . S
H750 C733 0.930 . S
H751 C734 0.930 . S
H752 C741 0.930 . S
H753 C743 0.931 . S
H754 C744 0.930 . S
H755 C745 0.930 . S
Tb756 N787 2.660 . S
Tb756 N794 2.600 . S
Tb756 O800 2.546 . S
Tb756 O801 2.610 . S
Tb756 O803 2.320 . S
Tb756 O804 2.552 . S
Tb756 O805 2.413 . S
Tb756 O807 2.362 . S
Tb756 O808 2.421 . S
Tb756 C820 2.833 . S
C757 C760 1.432 . S
C757 C761 1.414 . S
C757 N764 1.359 . S
C758 C760 1.417 . S
C758 C762 1.432 . S
C758 C770 1.410 . S
C759 C761 1.444 . S
C759 C762 1.317 . S
C759 H782 0.929 . S
C760 C757 1.432 . S
C760 C758 1.417 . S
C760 N768 1.360 . S
C761 C757 1.414 . S
C761 C759 1.444 . S
C761 C766 1.385 . S
C762 C758 1.432 . S
C762 C759 1.317 . S
C762 H774 0.930 . S
C763 C765 1.392 . S
C763 C766 1.370 . S
C763 H775 0.931 . S
N764 C757 1.359 . S
N764 C765 1.327 . S
N764 Tb767 2.600 . S
C765 C763 1.392 . S
C765 N764 1.327 . S
C765 H772 0.930 . S
C766 C761 1.385 . S
C766 C763 1.370 . S
C766 H785 0.930 . S
Tb767 N764 2.600 . S
Tb767 N768 2.660 . S
Tb767 O801 2.362 . S
Tb767 O802 2.421 . S
Tb767 O806 2.546 . S
Tb767 O807 2.610 . S
Tb767 O809 2.320 . S
Tb767 O810 2.552 . S
Tb767 O811 2.413 . S
Tb767 C831 2.833 . S
N768 C760 1.360 . S
N768 Tb767 2.660 . S
N768 C769 1.305 . S
C769 N768 1.305 . S
C769 C771 1.407 . S
C769 H776 0.930 . S
C770 C758 1.410 . S
C770 C771 1.345 . S
C770 H778 0.930 . S
C771 C769 1.407 . S
C771 C770 1.345 . S
C771 H773 0.930 . S
H772 C765 0.930 . S
H773 C771 0.930 . S
H774 C762 0.930 . S
H775 C763 0.931 . S
H776 C769 0.930 . S
H777 C791 0.930 . S
H778 C770 0.930 . S
H779 C797 0.930 . S
H780 C788 0.930 . S
H781 C795 0.931 . S
H782 C759 0.929 . S
H783 C789 0.930 . S
H784 C822 0.930 . S
H785 C766 0.930 . S
H786 C821 0.929 . S
N787 Tb756 2.660 . S
N787 C788 1.305 . S
N787 C792 1.360 . S
C788 H780 0.930 . S
C788 N787 1.305 . S
C788 C791 1.407 . S
C789 H783 0.930 . S
C789 C790 1.410 . S
C789 C791 1.345 . S
C790 C789 1.410 . S
C790 C792 1.417 . S
C790 C822 1.432 . S
C791 H777 0.930 . S
C791 C788 1.407 . S
C791 C789 1.345 . S
C792 N787 1.360 . S
C792 C790 1.417 . S
C792 C796 1.432 . S
H793 C798 0.930 . S
N794 Tb756 2.600 . S
N794 C796 1.359 . S
N794 C797 1.327 . S
C795 H781 0.931 . S
C795 C797 1.392 . S
C795 C798 1.370 . S
C796 C792 1.432 . S
C796 N794 1.359 . S
C796 C799 1.414 . S
C797 H779 0.930 . S
C797 N794 1.327 . S
C797 C795 1.392 . S
C798 H793 0.930 . S
C798 C795 1.370 . S
C798 C799 1.385 . S
C799 C796 1.414 . S
C799 C798 1.385 . S
C799 C821 1.444 . S
O800 Tb756 2.546 . S
O800 C820 1.251 . S
O801 Tb756 2.610 . S
O801 Tb767 2.362 . S
O801 C812 1.283 . S
O802 Tb767 2.421 . S
O802 C819 1.262 . S
O803 Tb756 2.320 . S
O803 C819 1.260 . S
O804 Tb756 2.552 . S
O804 C812 1.243 . S
O805 Tb756 2.413 . S
O805 C820 1.256 . S
O806 Tb767 2.546 . S
O806 C831 1.251 . S
O807 Tb756 2.362 . S
O807 Tb767 2.610 . S
O807 C823 1.283 . S
O808 Tb756 2.421 . S
O808 C830 1.262 . S
O809 Tb767 2.320 . S
O809 C830 1.260 . S
O810 Tb767 2.552 . S
O810 C823 1.243 . S
O811 Tb767 2.413 . S
O811 C831 1.256 . S
C812 O801 1.283 . S
C812 O804 1.243 . S
C813 C815 1.382 . S
C813 C817 1.393 . S
C813 C820 1.500 . S
C814 C815 1.400 . S
C814 C816 1.384 . S
C815 C813 1.382 . S
C815 C814 1.400 . S
C815 H832 0.930 . S
C816 C814 1.384 . S
C816 C818 1.392 . S
C816 H833 0.931 . S
C817 C813 1.393 . S
C817 C818 1.401 . S
C817 H834 0.930 . S
C818 C816 1.392 . S
C818 C817 1.401 . S
C818 H835 0.930 . S
C819 O802 1.262 . S
C819 O803 1.260 . S
C820 Tb756 2.833 . S
C820 O800 1.251 . S
C820 O805 1.256 . S
C820 C813 1.500 . S
C821 H786 0.929 . S
C821 C799 1.444 . S
C821 C822 1.317 . S
C822 H784 0.930 . S
C822 C790 1.432 . S
C822 C821 1.317 . S
C823 O807 1.283 . S
C823 O810 1.243 . S
C824 C825 1.382 . S
C824 C828 1.393 . S
C824 C831 1.500 . S
C825 C824 1.382 . S
C825 C826 1.400 . S
C825 H836 0.930 . S
C826 C825 1.400 . S
C826 C827 1.384 . S
C827 C826 1.384 . S
C827 C829 1.392 . S
C827 H837 0.931 . S
C828 C824 1.393 . S
C828 C829 1.401 . S
C828 H838 0.930 . S
C829 C827 1.392 . S
C829 C828 1.401 . S
C829 H839 0.930 . S
C830 O808 1.262 . S
C830 O809 1.260 . S
C831 Tb767 2.833 . S
C831 O806 1.251 . S
C831 O811 1.256 . S
C831 C824 1.500 . S
H832 C815 0.930 . S
H833 C816 0.931 . S
H834 C817 0.930 . S
H835 C818 0.930 . S
H836 C825 0.930 . S
H837 C827 0.931 . S
H838 C828 0.930 . S
H839 C829 0.930 . S
Tb840 N871 2.660 . S
Tb840 N878 2.600 . S
Tb840 O884 2.564 . S
Tb840 O885 2.610 . S
Tb840 O887 2.320 . S
Tb840 O888 2.552 . S
Tb840 O889 2.413 . S
Tb840 O891 2.362 . S
Tb840 O892 2.421 1_545 S
Tb840 C904 2.833 . S
C841 C844 1.432 . S
C841 C845 1.414 . S
C841 N848 1.359 . S
C842 C844 1.417 . S
C842 C846 1.432 . S
C842 C854 1.410 1_545 S
C843 C845 1.444 . S
C843 C846 1.317 . S
C843 H866 0.929 . S
C844 C841 1.432 . S
C844 C842 1.417 . S
C844 N852 1.360 . S
C845 C841 1.414 . S
C845 C843 1.444 . S
C845 C850 1.385 . S
C846 C842 1.432 . S
C846 C843 1.317 . S
C846 H858 0.930 . S
C847 C849 1.392 . S
C847 C850 1.370 . S
C847 H859 0.931 . S
N848 C841 1.359 . S
N848 C849 1.327 . S
N848 Tb851 2.600 . S
C849 C847 1.392 . S
C849 N848 1.327 . S
C849 H856 0.930 . S
C850 C845 1.385 . S
C850 C847 1.370 . S
C850 H869 0.930 . S
Tb851 N848 2.600 . S
Tb851 N852 2.660 . S
Tb851 O885 2.362 1_556 S
Tb851 O886 2.421 1_556 S
Tb851 O890 2.546 . S
Tb851 O891 2.610 1_556 S
Tb851 O893 2.320 . S
Tb851 O894 2.552 1_556 S
Tb851 O895 2.413 . S
Tb851 C915 2.833 . S
N852 C844 1.360 . S
N852 Tb851 2.660 . S
N852 C853 1.305 1_545 S
C853 N852 1.305 1_565 S
C853 C855 1.407 . S
C853 H860 0.930 . S
C854 C842 1.410 1_565 S
C854 C855 1.345 . S
C854 H862 0.930 . S
C855 C853 1.407 . S
C855 C854 1.345 . S
C855 H857 0.930 . S
H856 C849 0.930 . S
H857 C855 0.930 . S
H858 C846 0.930 . S
H859 C847 0.931 . S
H860 C853 0.930 . S
H861 C875 0.930 . S
H862 C854 0.930 . S
H863 C881 0.930 . S
H864 C872 0.930 . S
H865 C879 0.931 . S
H866 C843 0.929 . S
H867 C873 0.930 . S
H868 C906 0.930 . S
H869 C850 0.930 . S
H870 C905 0.929 . S
N871 Tb840 2.660 . S
N871 C872 1.305 . S
N871 C876 1.360 . S
C872 H864 0.930 . S
C872 N871 1.305 . S
C872 C875 1.407 . S
C873 H867 0.930 . S
C873 C874 1.410 . S
C873 C875 1.345 . S
C874 C873 1.410 . S
C874 C876 1.417 . S
C874 C906 1.432 . S
C875 H861 0.930 . S
C875 C872 1.407 . S
C875 C873 1.345 . S
C876 N871 1.360 . S
C876 C874 1.417 . S
C876 C880 1.432 . S
H877 C882 0.930 . S
N878 Tb840 2.600 . S
N878 C880 1.359 . S
N878 C881 1.327 1_545 S
C879 H865 0.931 . S
C879 C881 1.392 . S
C879 C882 1.370 . S
C880 C876 1.432 . S
C880 N878 1.359 . S
C880 C883 1.414 . S
C881 H863 0.930 . S
C881 N878 1.327 1_565 S
C881 C879 1.392 . S
C882 H877 0.930 . S
C882 C879 1.370 . S
C882 C883 1.385 1_565 S
C883 C880 1.414 . S
C883 C882 1.385 1_545 S
C883 C905 1.444 . S
O884 Tb840 2.564 . S
O884 C904 1.268 . S
O885 Tb840 2.610 . S
O885 Tb851 2.362 1_554 S
O885 C896 1.283 . S
O886 Tb851 2.421 1_554 S
O886 C903 1.262 . S
O887 Tb840 2.320 . S
O887 C903 1.260 . S
O888 Tb840 2.552 . S
O888 C896 1.243 . S
O889 Tb840 2.413 . S
O889 C904 1.256 . S
O890 Tb851 2.546 . S
O890 C915 1.251 . S
O891 Tb840 2.362 . S
O891 Tb851 2.610 1_554 S
O891 C907 1.283 . S
O892 Tb840 2.421 1_565 S
O892 C914 1.255 1_565 S
O893 Tb851 2.320 . S
O893 C914 1.290 1_556 S
O894 Tb851 2.552 1_554 S
O894 C907 1.243 . S
O895 Tb851 2.413 . S
O895 C915 1.256 . S
C896 O885 1.283 . S
C896 O888 1.243 . S
C897 C899 1.382 . S
C897 C901 1.393 1_545 S
C897 C904 1.500 . S
C898 C899 1.400 . S
C898 C900 1.340 1_545 S
C899 C897 1.382 . S
C899 C898 1.400 . S
C899 H916 0.930 . S
C900 C898 1.340 1_565 S
C900 C902 1.423 . S
C900 H917 0.946 . S
C901 C897 1.393 1_565 S
C901 C902 1.401 . S
C901 H918 0.930 . S
C902 C900 1.423 . S
C902 C901 1.401 . S
C902 H919 0.930 . S
C903 O886 1.262 . S
C903 O887 1.260 . S
C904 Tb840 2.833 . S
C904 O884 1.268 . S
C904 O889 1.256 . S
C904 C897 1.500 . S
C905 H870 0.929 . S
C905 C883 1.444 . S
C905 C906 1.317 . S
C906 H868 0.930 . S
C906 C874 1.432 . S
C906 C905 1.317 . S
C907 O891 1.283 . S
C907 O894 1.243 . S
C908 C909 1.382 . S
C908 C912 1.393 . S
C908 C915 1.500 . S
C909 C908 1.382 . S
C909 C910 1.400 . S
C909 H920 0.930 . S
C910 C909 1.400 . S
C910 C911 1.384 . S
C911 C910 1.384 . S
C911 C913 1.392 . S
C911 H921 0.931 . S
C912 C908 1.393 . S
C912 C913 1.401 . S
C912 H922 0.930 . S
C913 C911 1.392 . S
C913 C912 1.401 . S
C913 H923 0.930 . S
C914 O892 1.255 1_545 S
C914 O893 1.290 1_554 S
C915 Tb851 2.833 . S
C915 O890 1.251 . S
C915 O895 1.256 . S
C915 C908 1.500 . S
H916 C899 0.930 . S
H917 C900 0.946 . S
H918 C901 0.930 . S
H919 C902 0.930 . S
H920 C909 0.930 . S
H921 C911 0.931 . S
H922 C912 0.930 . S
H923 C913 0.930 . S
Tb924 N955 2.660 . S
Tb924 N962 2.600 . S
Tb924 O968 2.546 . S
Tb924 O969 2.610 . S
Tb924 O971 2.320 . S
Tb924 O972 2.552 . S
Tb924 O973 2.413 . S
Tb924 O975 2.362 . S
Tb924 O976 2.421 . S
Tb924 C988 2.833 . S
C925 C928 1.432 . S
C925 C929 1.414 . S
C925 N932 1.359 . S
C926 C928 1.417 . S
C926 C930 1.432 . S
C926 C938 1.410 . S
C927 C929 1.444 . S
C927 C930 1.317 . S
C927 H950 0.929 . S
C928 C925 1.432 . S
C928 C926 1.417 . S
C928 N936 1.360 . S
C929 C925 1.414 . S
C929 C927 1.444 . S
C929 C934 1.385 . S
C930 C926 1.432 . S
C930 C927 1.317 . S
C930 H942 0.930 . S
C931 C933 1.392 . S
C931 C934 1.370 . S
C931 H943 0.931 . S
N932 C925 1.359 . S
N932 C933 1.327 . S
N932 Tb935 2.600 . S
C933 C931 1.392 . S
C933 N932 1.327 . S
C933 H940 0.930 . S
C934 C929 1.385 . S
C934 C931 1.370 . S
C934 H953 0.930 . S
Tb935 N932 2.600 . S
Tb935 N936 2.660 . S
Tb935 O969 2.362 . S
Tb935 O970 2.421 . S
Tb935 O974 2.546 . S
Tb935 O975 2.610 . S
Tb935 O977 2.320 . S
Tb935 O978 2.552 . S
Tb935 O979 2.413 . S
Tb935 C999 2.833 . S
N936 C928 1.360 . S
N936 Tb935 2.660 . S
N936 C937 1.305 . S
C937 N936 1.305 . S
C937 C939 1.407 . S
C937 H944 0.930 . S
C938 C926 1.410 . S
C938 C939 1.345 . S
C938 H946 0.930 . S
C939 C937 1.407 . S
C939 C938 1.345 . S
C939 H941 0.930 . S
H940 C933 0.930 . S
H941 C939 0.930 . S
H942 C930 0.930 . S
H943 C931 0.931 . S
H944 C937 0.930 . S
H945 C959 0.930 . S
H946 C938 0.930 . S
H947 C965 0.930 . S
H948 C956 0.930 . S
H949 C963 0.931 . S
H950 C927 0.929 . S
H951 C957 0.930 . S
H952 C990 0.930 . S
H953 C934 0.930 . S
H954 C989 0.929 . S
N955 Tb924 2.660 . S
N955 C956 1.305 . S
N955 C960 1.360 . S
C956 H948 0.930 . S
C956 N955 1.305 . S
C956 C959 1.407 . S
C957 H951 0.930 . S
C957 C958 1.410 . S
C957 C959 1.345 . S
C958 C957 1.410 . S
C958 C960 1.417 . S
C958 C990 1.432 . S
C959 H945 0.930 . S
C959 C956 1.407 . S
C959 C957 1.345 . S
C960 N955 1.360 . S
C960 C958 1.417 . S
C960 C964 1.432 . S
H961 C966 0.930 . S
N962 Tb924 2.600 . S
N962 C964 1.359 . S
N962 C965 1.327 . S
C963 H949 0.931 . S
C963 C965 1.392 . S
C963 C966 1.370 . S
C964 C960 1.432 . S
C964 N962 1.359 . S
C964 C967 1.414 . S
C965 H947 0.930 . S
C965 N962 1.327 . S
C965 C963 1.392 . S
C966 H961 0.930 . S
C966 C963 1.370 . S
C966 C967 1.385 . S
C967 C964 1.414 . S
C967 C966 1.385 . S
C967 C989 1.444 . S
O968 Tb924 2.546 . S
O968 C988 1.251 . S
O969 Tb924 2.610 . S
O969 Tb935 2.362 . S
O969 C980 1.283 . S
O970 Tb935 2.421 . S
O970 C987 1.262 . S
O971 Tb924 2.320 . S
O971 C987 1.260 . S
O972 Tb924 2.552 . S
O972 C980 1.243 . S
O973 Tb924 2.413 . S
O973 C988 1.256 . S
O974 Tb935 2.546 . S
O974 C999 1.251 . S
O975 Tb924 2.362 . S
O975 Tb935 2.610 . S
O975 C991 1.283 . S
O976 Tb924 2.421 . S
O976 C998 1.262 . S
O977 Tb935 2.320 . S
O977 C998 1.260 . S
O978 Tb935 2.552 . S
O978 C991 1.243 . S
O979 Tb935 2.413 . S
O979 C999 1.256 . S
C980 O969 1.283 . S
C980 O972 1.243 . S
C981 C983 1.382 . S
C981 C985 1.393 . S
C981 C988 1.500 . S
C982 C983 1.400 . S
C982 C984 1.384 . S
C983 C981 1.382 . S
C983 C982 1.400 . S
C983 H1000 0.930 . S
C984 C982 1.384 . S
C984 C986 1.392 . S
C984 H1001 0.931 . S
C985 C981 1.393 . S
C985 C986 1.401 . S
C985 H1002 0.930 . S
C986 C984 1.392 . S
C986 C985 1.401 . S
C986 H1003 0.930 . S
C987 O970 1.262 . S
C987 O971 1.260 . S
C988 Tb924 2.833 . S
C988 O968 1.251 . S
C988 O973 1.256 . S
C988 C981 1.500 . S
C989 H954 0.929 . S
C989 C967 1.444 . S
C989 C990 1.317 . S
C990 H952 0.930 . S
C990 C958 1.432 . S
C990 C989 1.317 . S
C991 O975 1.283 . S
C991 O978 1.243 . S
C992 C993 1.382 . S
C992 C996 1.393 . S
C992 C999 1.500 . S
C993 C992 1.382 . S
C993 C994 1.400 . S
C993 H1004 0.930 . S
C994 C993 1.400 . S
C994 C995 1.384 . S
C995 C994 1.384 . S
C995 C997 1.392 . S
C995 H1005 0.931 . S
C996 C992 1.393 . S
C996 C997 1.401 . S
C996 H1006 0.930 . S
C997 C995 1.392 . S
C997 C996 1.401 . S
C997 H1007 0.930 . S
C998 O976 1.262 . S
C998 O977 1.260 . S
C999 Tb935 2.833 . S
C999 O974 1.251 . S
C999 O979 1.256 . S
C999 C992 1.500 . S
H1000 C983 0.930 . S
H1001 C984 0.931 . S
H1002 C985 0.930 . S
H1003 C986 0.930 . S
H1004 C993 0.930 . S
H1005 C995 0.931 . S
H1006 C996 0.930 . S
H1007 C997 0.930 . S
Tb1008 N1039 2.660 . S
Tb1008 N1046 2.600 . S
Tb1008 O1052 2.546 . S
Tb1008 O1053 2.586 1_554 S
Tb1008 O1055 2.320 . S
Tb1008 O1056 2.552 1_554 S
Tb1008 O1057 2.413 . S
Tb1008 O1059 2.362 . S
Tb1008 O1060 2.421 . S
Tb1008 C1072 2.833 . S
C1009 C1012 1.432 . S
C1009 C1013 1.414 . S
C1009 N1016 1.359 . S
C1010 C1012 1.417 . S
C1010 C1014 1.432 . S
C1010 C1022 1.410 . S
C1011 C1013 1.444 . S
C1011 C1014 1.317 . S
C1011 H1034 0.929 . S
C1012 C1009 1.432 . S
C1012 C1010 1.417 . S
C1012 N1020 1.360 . S
C1013 C1009 1.414 . S
C1013 C1011 1.444 . S
C1013 C1018 1.385 . S
C1014 C1010 1.432 . S
C1014 C1011 1.317 . S
C1014 H1026 0.930 . S
C1015 C1017 1.392 . S
C1015 C1018 1.370 . S
C1015 H1027 0.931 . S
N1016 C1009 1.359 . S
N1016 C1017 1.327 . S
N1016 Tb1019 2.600 1_556 S
C1017 C1015 1.392 . S
C1017 N1016 1.327 . S
C1017 H1024 0.930 . S
C1018 C1013 1.385 . S
C1018 C1015 1.370 . S
C1018 H1037 0.930 . S
Tb1019 N1016 2.600 1_554 S
Tb1019 N1020 2.660 1_554 S
Tb1019 O1053 2.344 1_554 S
Tb1019 O1054 2.421 . S
Tb1019 O1058 2.546 . S
Tb1019 O1059 2.610 . S
Tb1019 O1061 2.320 . S
Tb1019 O1062 2.552 . S
Tb1019 O1063 2.413 . S
Tb1019 C1083 2.833 . S
N1020 C1012 1.360 . S
N1020 Tb1019 2.660 1_556 S
N1020 C1021 1.305 . S
C1021 N1020 1.305 . S
C1021 C1023 1.407 . S
C1021 H1028 0.930 . S
C1022 C1010 1.410 . S
C1022 C1023 1.345 . S
C1022 H1030 0.930 . S
C1023 C1021 1.407 . S
C1023 C1022 1.345 . S
C1023 H1025 0.930 . S
H1024 C1017 0.930 . S
H1025 C1023 0.930 . S
H1026 C1014 0.930 . S
H1027 C1015 0.931 . S
H1028 C1021 0.930 . S
H1029 C1043 0.930 . S
H1030 C1022 0.930 . S
H1031 C1049 0.930 . S
H1032 C1040 0.930 . S
H1033 C1047 0.931 . S
H1034 C1011 0.929 . S
H1035 C1041 0.930 . S
H1036 C1074 0.930 . S
H1037 C1018 0.930 . S
H1038 C1073 0.929 . S
N1039 Tb1008 2.660 . S
N1039 C1040 1.305 . S
N1039 C1044 1.360 . S
C1040 H1032 0.930 . S
C1040 N1039 1.305 . S
C1040 C1043 1.407 . S
C1041 H1035 0.930 . S
C1041 C1042 1.410 . S
C1041 C1043 1.345 . S
C1042 C1041 1.410 . S
C1042 C1044 1.417 . S
C1042 C1074 1.432 . S
C1043 H1029 0.930 . S
C1043 C1040 1.407 . S
C1043 C1041 1.345 . S
C1044 N1039 1.360 . S
C1044 C1042 1.417 . S
C1044 C1048 1.432 . S
H1045 C1050 0.930 . S
N1046 Tb1008 2.600 . S
N1046 C1048 1.359 . S
N1046 C1049 1.327 . S
C1047 H1033 0.931 . S
C1047 C1049 1.392 . S
C1047 C1050 1.370 . S
C1048 C1044 1.432 . S
C1048 N1046 1.359 . S
C1048 C1051 1.414 . S
C1049 H1031 0.930 . S
C1049 N1046 1.327 . S
C1049 C1047 1.392 . S
C1050 H1045 0.930 . S
C1050 C1047 1.370 . S
C1050 C1051 1.385 . S
C1051 C1048 1.414 . S
C1051 C1050 1.385 . S
C1051 C1073 1.444 . S
O1052 Tb1008 2.546 . S
O1052 C1072 1.251 . S
O1053 Tb1008 2.586 1_556 S
O1053 Tb1019 2.344 1_556 S
O1053 C1064 1.310 . S
O1054 Tb1019 2.421 . S
O1054 C1071 1.262 . S
O1055 Tb1008 2.320 . S
O1055 C1071 1.260 . S
O1056 Tb1008 2.552 1_556 S
O1056 C1064 1.243 . S
O1057 Tb1008 2.413 . S
O1057 C1072 1.256 . S
O1058 Tb1019 2.546 . S
O1058 C1083 1.251 . S
O1059 Tb1008 2.362 . S
O1059 Tb1019 2.610 . S
O1059 C1075 1.283 . S
O1060 Tb1008 2.421 . S
O1060 C1082 1.262 . S
O1061 Tb1019 2.320 . S
O1061 C1082 1.260 . S
O1062 Tb1019 2.552 . S
O1062 C1075 1.243 . S
O1063 Tb1019 2.413 . S
O1063 C1083 1.256 . S
C1064 O1053 1.310 . S
C1064 O1056 1.243 . S
C1065 C1067 1.382 . S
C1065 C1069 1.393 . S
C1065 C1072 1.500 . S
C1066 C1067 1.400 . S
C1066 C1068 1.384 . S
C1067 C1065 1.382 . S
C1067 C1066 1.400 . S
C1067 H1084 0.930 . S
C1068 C1066 1.384 . S
C1068 C1070 1.392 . S
C1068 H1085 0.931 . S
C1069 C1065 1.393 . S
C1069 C1070 1.401 . S
C1069 H1086 0.930 . S
C1070 C1068 1.392 . S
C1070 C1069 1.401 . S
C1070 H1087 0.930 . S
C1071 O1054 1.262 . S
C1071 O1055 1.260 . S
C1072 Tb1008 2.833 . S
C1072 O1052 1.251 . S
C1072 O1057 1.256 . S
C1072 C1065 1.500 . S
C1073 H1038 0.929 . S
C1073 C1051 1.444 . S
C1073 C1074 1.317 . S
C1074 H1036 0.930 . S
C1074 C1042 1.432 . S
C1074 C1073 1.317 . S
C1075 O1059 1.283 . S
C1075 O1062 1.243 . S
C1076 C1077 1.382 . S
C1076 C1080 1.393 . S
C1076 C1083 1.500 . S
C1077 C1076 1.382 . S
C1077 C1078 1.400 . S
C1077 H1088 0.930 . S
C1078 C1077 1.400 . S
C1078 C1079 1.384 . S
C1079 C1078 1.384 . S
C1079 C1081 1.392 . S
C1079 H1089 0.931 . S
C1080 C1076 1.393 . S
C1080 C1081 1.401 . S
C1080 H1090 0.930 . S
C1081 C1079 1.392 . S
C1081 C1080 1.401 . S
C1081 H1091 0.930 . S
C1082 O1060 1.262 . S
C1082 O1061 1.260 . S
C1083 Tb1019 2.833 . S
C1083 O1058 1.251 . S
C1083 O1063 1.256 . S
C1083 C1076 1.500 . S
H1084 C1067 0.930 . S
H1085 C1068 0.931 . S
H1086 C1069 0.930 . S
H1087 C1070 0.930 . S
H1088 C1077 0.930 . S
H1089 C1079 0.931 . S
H1090 C1080 0.930 . S
H1091 C1081 0.930 . S
Tb1092 N1123 2.660 . S
Tb1092 N1130 2.600 . S
Tb1092 O1136 2.546 . S
Tb1092 O1137 2.610 . S
Tb1092 O1139 2.320 . S
Tb1092 O1140 2.552 . S
Tb1092 O1141 2.413 . S
Tb1092 O1143 2.362 . S
Tb1092 O1144 2.421 . S
Tb1092 C1156 2.833 . S
C1093 C1096 1.432 . S
C1093 C1097 1.414 . S
C1093 N1100 1.359 . S
C1094 C1096 1.417 . S
C1094 C1098 1.432 . S
C1094 C1106 1.410 . S
C1095 C1097 1.444 . S
C1095 C1098 1.317 . S
C1095 H1118 0.929 . S
C1096 C1093 1.432 . S
C1096 C1094 1.417 . S
C1096 N1104 1.360 . S
C1097 C1093 1.414 . S
C1097 C1095 1.444 . S
C1097 C1102 1.385 . S
C1098 C1094 1.432 . S
C1098 C1095 1.317 . S
C1098 H1110 0.930 . S
C1099 C1101 1.392 . S
C1099 C1102 1.370 . S
C1099 H1111 0.931 . S
N1100 C1093 1.359 . S
N1100 C1101 1.327 . S
N1100 Tb1103 2.600 . S
C1101 C1099 1.392 . S
C1101 N1100 1.327 . S
C1101 H1108 0.930 . S
C1102 C1097 1.385 . S
C1102 C1099 1.370 . S
C1102 H1121 0.930 . S
Tb1103 N1100 2.600 . S
Tb1103 N1104 2.660 . S
Tb1103 O1137 2.362 . S
Tb1103 O1138 2.421 . S
Tb1103 O1142 2.546 . S
Tb1103 O1143 2.610 . S
Tb1103 O1145 2.320 . S
Tb1103 O1146 2.552 . S
Tb1103 O1147 2.413 . S
Tb1103 C1167 2.833 . S
N1104 C1096 1.360 . S
N1104 Tb1103 2.660 . S
N1104 C1105 1.305 . S
C1105 N1104 1.305 . S
C1105 C1107 1.407 . S
C1105 H1112 0.930 . S
C1106 C1094 1.410 . S
C1106 C1107 1.345 . S
C1106 H1114 0.930 . S
C1107 C1105 1.407 . S
C1107 C1106 1.345 . S
C1107 H1109 0.930 . S
H1108 C1101 0.930 . S
H1109 C1107 0.930 . S
H1110 C1098 0.930 . S
H1111 C1099 0.931 . S
H1112 C1105 0.930 . S
H1113 C1127 0.930 . S
H1114 C1106 0.930 . S
H1115 C1133 0.930 . S
H1116 C1124 0.930 . S
H1117 C1131 0.931 . S
H1118 C1095 0.929 . S
H1119 C1125 0.930 . S
H1120 C1158 0.930 . S
H1121 C1102 0.930 . S
H1122 C1157 0.929 . S
N1123 Tb1092 2.660 . S
N1123 C1124 1.305 . S
N1123 C1128 1.360 . S
C1124 H1116 0.930 . S
C1124 N1123 1.305 . S
C1124 C1127 1.407 . S
C1125 H1119 0.930 . S
C1125 C1126 1.410 . S
C1125 C1127 1.345 . S
C1126 C1125 1.410 . S
C1126 C1128 1.417 . S
C1126 C1158 1.432 . S
C1127 H1113 0.930 . S
C1127 C1124 1.407 . S
C1127 C1125 1.345 . S
C1128 N1123 1.360 . S
C1128 C1126 1.417 . S
C1128 C1132 1.432 . S
H1129 C1134 0.930 . S
N1130 Tb1092 2.600 . S
N1130 C1132 1.359 . S
N1130 C1133 1.327 . S
C1131 H1117 0.931 . S
C1131 C1133 1.392 . S
C1131 C1134 1.370 . S
C1132 C1128 1.432 . S
C1132 N1130 1.359 . S
C1132 C1135 1.414 . S
C1133 H1115 0.930 . S
C1133 N1130 1.327 . S
C1133 C1131 1.392 . S
C1134 H1129 0.930 . S
C1134 C1131 1.370 . S
C1134 C1135 1.385 . S
C1135 C1132 1.414 . S
C1135 C1134 1.385 . S
C1135 C1157 1.444 . S
O1136 Tb1092 2.546 . S
O1136 C1156 1.251 . S
O1137 Tb1092 2.610 . S
O1137 Tb1103 2.362 . S
O1137 C1148 1.283 . S
O1138 Tb1103 2.421 . S
O1138 C1155 1.262 . S
O1139 Tb1092 2.320 . S
O1139 C1155 1.260 . S
O1140 Tb1092 2.552 . S
O1140 C1148 1.243 . S
O1141 Tb1092 2.413 . S
O1141 C1156 1.256 . S
O1142 Tb1103 2.546 . S
O1142 C1167 1.251 . S
O1143 Tb1092 2.362 . S
O1143 Tb1103 2.610 . S
O1143 C1159 1.283 . S
O1144 Tb1092 2.421 . S
O1144 C1166 1.262 . S
O1145 Tb1103 2.320 . S
O1145 C1166 1.260 . S
O1146 Tb1103 2.552 . S
O1146 C1159 1.243 . S
O1147 Tb1103 2.413 . S
O1147 C1167 1.256 . S
C1148 O1137 1.283 . S
C1148 O1140 1.243 . S
C1149 C1151 1.382 . S
C1149 C1153 1.393 . S
C1149 C1156 1.500 . S
C1150 C1151 1.400 . S
C1150 C1152 1.384 . S
C1151 C1149 1.382 . S
C1151 C1150 1.400 . S
C1151 H1168 0.930 . S
C1152 C1150 1.384 . S
C1152 C1154 1.392 . S
C1152 H1169 0.931 . S
C1153 C1149 1.393 . S
C1153 C1154 1.401 . S
C1153 H1170 0.930 . S
C1154 C1152 1.392 . S
C1154 C1153 1.401 . S
C1154 H1171 0.930 . S
C1155 O1138 1.262 . S
C1155 O1139 1.260 . S
C1156 Tb1092 2.833 . S
C1156 O1136 1.251 . S
C1156 O1141 1.256 . S
C1156 C1149 1.500 . S
C1157 H1122 0.929 . S
C1157 C1135 1.444 . S
C1157 C1158 1.317 . S
C1158 H1120 0.930 . S
C1158 C1126 1.432 . S
C1158 C1157 1.317 . S
C1159 O1143 1.283 . S
C1159 O1146 1.243 . S
C1160 C1161 1.382 . S
C1160 C1164 1.393 . S
C1160 C1167 1.500 . S
C1161 C1160 1.382 . S
C1161 C1162 1.400 . S
C1161 H1172 0.930 . S
C1162 C1161 1.400 . S
C1162 C1163 1.384 . S
C1163 C1162 1.384 . S
C1163 C1165 1.392 . S
C1163 H1173 0.931 . S
C1164 C1160 1.393 . S
C1164 C1165 1.401 . S
C1164 H1174 0.930 . S
C1165 C1163 1.392 . S
C1165 C1164 1.401 . S
C1165 H1175 0.930 . S
C1166 O1144 1.262 . S
C1166 O1145 1.260 . S
C1167 Tb1103 2.833 . S
C1167 O1142 1.251 . S
C1167 O1147 1.256 . S
C1167 C1160 1.500 . S
H1168 C1151 0.930 . S
H1169 C1152 0.931 . S
H1170 C1153 0.930 . S
H1171 C1154 0.930 . S
H1172 C1161 0.930 . S
H1173 C1163 0.931 . S
H1174 C1164 0.930 . S
H1175 C1165 0.930 . S
Tb1176 N1207 2.660 . S
Tb1176 N1214 2.600 . S
Tb1176 O1220 2.546 . S
Tb1176 O1221 2.610 . S
Tb1176 O1223 2.320 . S
Tb1176 O1224 2.552 . S
Tb1176 O1225 2.413 . S
Tb1176 O1227 2.362 . S
Tb1176 O1228 2.421 . S
Tb1176 C1240 2.833 . S
C1177 C1180 1.432 . S
C1177 C1181 1.414 1_455 S
C1177 N1184 1.359 . S
C1178 C1180 1.417 1_655 S
C1178 C1182 1.432 . S
C1178 C1190 1.410 . S
C1179 C1181 1.444 . S
C1179 C1182 1.317 . S
C1179 H1202 0.929 . S
C1180 C1177 1.432 . S
C1180 C1178 1.417 1_455 S
C1180 N1188 1.360 . S
C1181 C1177 1.414 1_655 S
C1181 C1179 1.444 . S
C1181 C1186 1.385 . S
C1182 C1178 1.432 . S
C1182 C1179 1.317 . S
C1182 H1194 0.930 . S
C1183 C1185 1.392 . S
C1183 C1186 1.370 1_455 S
C1183 H1195 0.931 . S
N1184 C1177 1.359 . S
N1184 C1185 1.327 . S
N1184 Tb1187 2.600 . S
C1185 C1183 1.392 . S
C1185 N1184 1.327 . S
C1185 H1192 0.930 . S
C1186 C1181 1.385 . S
C1186 C1183 1.370 1_655 S
C1186 H1205 0.930 . S
Tb1187 N1184 2.600 . S
Tb1187 N1188 2.660 . S
Tb1187 O1221 2.362 . S
Tb1187 O1222 2.421 . S
Tb1187 O1226 2.546 . S
Tb1187 O1227 2.610 . S
Tb1187 O1229 2.320 . S
Tb1187 O1230 2.552 . S
Tb1187 O1231 2.413 . S
Tb1187 C1251 2.833 . S
N1188 C1180 1.360 . S
N1188 Tb1187 2.660 . S
N1188 C1189 1.305 . S
C1189 N1188 1.305 . S
C1189 C1191 1.423 . S
C1189 H1196 0.930 . S
C1190 C1178 1.410 . S
C1190 C1191 1.325 1_655 S
C1190 H1198 0.930 . S
C1191 C1189 1.423 . S
C1191 C1190 1.325 1_455 S
C1191 H1193 0.944 1_455 S
H1192 C1185 0.930 . S
H1193 C1191 0.944 1_655 S
H1194 C1182 0.930 . S
H1195 C1183 0.931 . S
H1196 C1189 0.930 . S
H1197 C1211 0.930 . S
H1198 C1190 0.930 . S
H1199 C1217 0.930 . S
H1200 C1208 0.930 . S
H1201 C1215 0.931 . S
H1202 C1179 0.929 . S
H1203 C1209 0.930 . S
H1204 C1242 0.930 . S
H1205 C1186 0.930 . S
H1206 C1241 0.929 . S
N1207 Tb1176 2.660 . S
N1207 C1208 1.305 . S
N1207 C1212 1.360 . S
C1208 H1200 0.930 . S
C1208 N1207 1.305 . S
C1208 C1211 1.407 . S
C1209 H1203 0.930 . S
C1209 C1210 1.410 . S
C1209 C1211 1.345 . S
C1210 C1209 1.410 . S
C1210 C1212 1.417 . S
C1210 C1242 1.432 . S
C1211 H1197 0.930 . S
C1211 C1208 1.407 . S
C1211 C1209 1.345 . S
C1212 N1207 1.360 . S
C1212 C1210 1.417 . S
C1212 C1216 1.432 . S
H1213 C1218 0.930 . S
N1214 Tb1176 2.600 . S
N1214 C1216 1.359 . S
N1214 C1217 1.327 . S
C1215 H1201 0.931 . S
C1215 C1217 1.392 . S
C1215 C1218 1.370 . S
C1216 C1212 1.432 . S
C1216 N1214 1.359 . S
C1216 C1219 1.414 . S
C1217 H1199 0.930 . S
C1217 N1214 1.327 . S
C1217 C1215 1.392 . S
C1218 H1213 0.930 . S
C1218 C1215 1.370 . S
C1218 C1219 1.385 . S
C1219 C1216 1.414 . S
C1219 C1218 1.385 . S
C1219 C1241 1.444 . S
O1220 Tb1176 2.546 . S
O1220 C1240 1.251 . S
O1221 Tb1176 2.610 . S
O1221 Tb1187 2.362 . S
O1221 C1232 1.283 . S
O1222 Tb1187 2.421 . S
O1222 C1239 1.262 . S
O1223 Tb1176 2.320 . S
O1223 C1239 1.260 . S
O1224 Tb1176 2.552 . S
O1224 C1232 1.243 . S
O1225 Tb1176 2.413 . S
O1225 C1240 1.256 . S
O1226 Tb1187 2.546 . S
O1226 C1251 1.251 . S
O1227 Tb1176 2.362 . S
O1227 Tb1187 2.610 . S
O1227 C1243 1.283 . S
O1228 Tb1176 2.421 . S
O1228 C1250 1.262 . S
O1229 Tb1187 2.320 . S
O1229 C1250 1.260 . S
O1230 Tb1187 2.552 . S
O1230 C1243 1.243 . S
O1231 Tb1187 2.413 . S
O1231 C1251 1.256 . S
C1232 O1221 1.283 . S
C1232 O1224 1.243 . S
C1233 C1235 1.382 . S
C1233 C1237 1.393 . S
C1233 C1240 1.500 . S
C1234 C1235 1.400 . S
C1234 C1236 1.384 . S
C1235 C1233 1.382 . S
C1235 C1234 1.400 . S
C1235 H1252 0.930 . S
C1236 C1234 1.384 . S
C1236 C1238 1.392 . S
C1236 H1253 0.931 . S
C1237 C1233 1.393 . S
C1237 C1238 1.401 . S
C1237 H1254 0.930 . S
C1238 C1236 1.392 . S
C1238 C1237 1.401 . S
C1238 H1255 0.930 . S
C1239 O1222 1.262 . S
C1239 O1223 1.260 . S
C1240 Tb1176 2.833 . S
C1240 O1220 1.251 . S
C1240 O1225 1.256 . S
C1240 C1233 1.500 . S
C1241 H1206 0.929 . S
C1241 C1219 1.444 . S
C1241 C1242 1.317 . S
C1242 H1204 0.930 . S
C1242 C1210 1.432 . S
C1242 C1241 1.317 . S
C1243 O1227 1.283 . S
C1243 O1230 1.243 . S
C1244 C1245 1.382 . S
C1244 C1248 1.393 . S
C1244 C1251 1.500 . S
C1245 C1244 1.382 . S
C1245 C1246 1.400 . S
C1245 H1256 0.930 . S
C1246 C1245 1.400 . S
C1246 C1247 1.384 . S
C1247 C1246 1.384 . S
C1247 C1249 1.392 . S
C1247 H1257 0.931 . S
C1248 C1244 1.393 . S
C1248 C1249 1.401 . S
C1248 H1258 0.930 . S
C1249 C1247 1.392 . S
C1249 C1248 1.401 . S
C1249 H1259 0.930 . S
C1250 O1228 1.262 . S
C1250 O1229 1.260 . S
C1251 Tb1187 2.833 . S
C1251 O1226 1.251 . S
C1251 O1231 1.256 . S
C1251 C1244 1.500 . S
H1252 C1235 0.930 . S
H1253 C1236 0.931 . S
H1254 C1237 0.930 . S
H1255 C1238 0.930 . S
H1256 C1245 0.930 . S
H1257 C1247 0.931 . S
H1258 C1248 0.930 . S
H1259 C1249 0.930 . S
Tb1260 N1291 2.660 . S
Tb1260 N1298 2.600 . S
Tb1260 O1304 2.546 . S
Tb1260 O1305 2.610 . S
Tb1260 O1307 2.320 . S
Tb1260 O1308 2.552 . S
Tb1260 O1309 2.413 . S
Tb1260 O1311 2.362 . S
Tb1260 O1312 2.421 . S
Tb1260 C1324 2.833 . S
C1261 C1264 1.432 . S
C1261 C1265 1.414 . S
C1261 N1268 1.359 . S
C1262 C1264 1.417 . S
C1262 C1266 1.432 . S
C1262 C1274 1.410 . S
C1263 C1265 1.444 . S
C1263 C1266 1.317 . S
C1263 H1286 0.929 . S
C1264 C1261 1.432 . S
C1264 C1262 1.417 . S
C1264 N1272 1.360 . S
C1265 C1261 1.414 . S
C1265 C1263 1.444 . S
C1265 C1270 1.385 . S
C1266 C1262 1.432 . S
C1266 C1263 1.317 . S
C1266 H1278 0.930 . S
C1267 C1269 1.392 . S
C1267 C1270 1.370 . S
C1267 H1279 0.931 . S
N1268 C1261 1.359 . S
N1268 C1269 1.327 . S
N1268 Tb1271 2.600 . S
C1269 C1267 1.392 . S
C1269 N1268 1.327 . S
C1269 H1276 0.930 . S
C1270 C1265 1.385 . S
C1270 C1267 1.370 . S
C1270 H1289 0.930 . S
Tb1271 N1268 2.600 . S
Tb1271 N1272 2.660 . S
Tb1271 O1305 2.362 . S
Tb1271 O1306 2.421 . S
Tb1271 O1310 2.546 . S
Tb1271 O1311 2.610 . S
Tb1271 O1313 2.320 . S
Tb1271 O1314 2.552 . S
Tb1271 O1315 2.413 . S
Tb1271 C1335 2.833 . S
N1272 C1264 1.360 . S
N1272 Tb1271 2.660 . S
N1272 C1273 1.305 . S
C1273 N1272 1.305 . S
C1273 C1275 1.407 . S
C1273 H1280 0.930 . S
C1274 C1262 1.410 . S
C1274 C1275 1.345 . S
C1274 H1282 0.930 . S
C1275 C1273 1.407 . S
C1275 C1274 1.345 . S
C1275 H1277 0.930 . S
H1276 C1269 0.930 . S
H1277 C1275 0.930 . S
H1278 C1266 0.930 . S
H1279 C1267 0.931 . S
H1280 C1273 0.930 . S
H1281 C1295 0.930 . S
H1282 C1274 0.930 . S
H1283 C1301 0.930 . S
H1284 C1292 0.930 . S
H1285 C1299 0.931 . S
H1286 C1263 0.929 . S
H1287 C1293 0.930 . S
H1288 C1326 0.930 . S
H1289 C1270 0.930 . S
H1290 C1325 0.929 . S
N1291 Tb1260 2.660 . S
N1291 C1292 1.305 . S
N1291 C1296 1.360 . S
C1292 H1284 0.930 . S
C1292 N1291 1.305 . S
C1292 C1295 1.407 . S
C1293 H1287 0.930 . S
C1293 C1294 1.410 . S
C1293 C1295 1.345 . S
C1294 C1293 1.410 . S
C1294 C1296 1.417 . S
C1294 C1326 1.432 . S
C1295 H1281 0.930 . S
C1295 C1292 1.407 . S
C1295 C1293 1.345 . S
C1296 N1291 1.360 . S
C1296 C1294 1.417 . S
C1296 C1300 1.432 . S
H1297 C1302 0.930 . S
N1298 Tb1260 2.600 . S
N1298 C1300 1.359 . S
N1298 C1301 1.327 . S
C1299 H1285 0.931 . S
C1299 C1301 1.392 . S
C1299 C1302 1.370 . S
C1300 C1296 1.432 . S
C1300 N1298 1.359 . S
C1300 C1303 1.414 . S
C1301 H1283 0.930 . S
C1301 N1298 1.327 . S
C1301 C1299 1.392 . S
C1302 H1297 0.930 . S
C1302 C1299 1.370 . S
C1302 C1303 1.385 . S
C1303 C1300 1.414 . S
C1303 C1302 1.385 . S
C1303 C1325 1.444 . S
O1304 Tb1260 2.546 . S
O1304 C1324 1.251 . S
O1305 Tb1260 2.610 . S
O1305 Tb1271 2.362 . S
O1305 C1316 1.283 . S
O1306 Tb1271 2.421 . S
O1306 C1323 1.262 . S
O1307 Tb1260 2.320 . S
O1307 C1323 1.260 . S
O1308 Tb1260 2.552 . S
O1308 C1316 1.243 . S
O1309 Tb1260 2.413 . S
O1309 C1324 1.256 . S
O1310 Tb1271 2.546 . S
O1310 C1335 1.251 . S
O1311 Tb1260 2.362 . S
O1311 Tb1271 2.610 . S
O1311 C1327 1.283 . S
O1312 Tb1260 2.421 . S
O1312 C1334 1.262 . S
O1313 Tb1271 2.320 . S
O1313 C1334 1.260 . S
O1314 Tb1271 2.552 . S
O1314 C1327 1.243 . S
O1315 Tb1271 2.413 . S
O1315 C1335 1.256 . S
C1316 O1305 1.283 . S
C1316 O1308 1.243 . S
C1317 C1319 1.382 . S
C1317 C1321 1.393 . S
C1317 C1324 1.500 . S
C1318 C1319 1.400 . S
C1318 C1320 1.384 . S
C1319 C1317 1.382 . S
C1319 C1318 1.400 . S
C1319 H1336 0.930 . S
C1320 C1318 1.384 . S
C1320 C1322 1.392 . S
C1320 H1337 0.931 . S
C1321 C1317 1.393 . S
C1321 C1322 1.401 . S
C1321 H1338 0.930 . S
C1322 C1320 1.392 . S
C1322 C1321 1.401 . S
C1322 H1339 0.930 . S
C1323 O1306 1.262 . S
C1323 O1307 1.260 . S
C1324 Tb1260 2.833 . S
C1324 O1304 1.251 . S
C1324 O1309 1.256 . S
C1324 C1317 1.500 . S
C1325 H1290 0.929 . S
C1325 C1303 1.444 . S
C1325 C1326 1.317 . S
C1326 H1288 0.930 . S
C1326 C1294 1.432 . S
C1326 C1325 1.317 . S
C1327 O1311 1.283 . S
C1327 O1314 1.243 . S
C1328 C1329 1.382 . S
C1328 C1332 1.393 . S
C1328 C1335 1.500 . S
C1329 C1328 1.382 . S
C1329 C1330 1.400 . S
C1329 H1340 0.930 . S
C1330 C1329 1.400 . S
C1330 C1331 1.384 . S
C1331 C1330 1.384 . S
C1331 C1333 1.392 . S
C1331 H1341 0.931 . S
C1332 C1328 1.393 . S
C1332 C1333 1.401 . S
C1332 H1342 0.930 . S
C1333 C1331 1.392 . S
C1333 C1332 1.401 . S
C1333 H1343 0.930 . S
C1334 O1312 1.262 . S
C1334 O1313 1.260 . S
C1335 Tb1271 2.833 . S
C1335 O1310 1.251 . S
C1335 O1315 1.256 . S
C1335 C1328 1.500 . S
H1336 C1319 0.930 . S
H1337 C1320 0.931 . S
H1338 C1321 0.930 . S
H1339 C1322 0.930 . S
H1340 C1329 0.930 . S
H1341 C1331 0.931 . S
H1342 C1332 0.930 . S
H1343 C1333 0.930 . S
Tb1344 N1375 2.660 . S
Tb1344 N1382 2.600 . S
Tb1344 O1388 2.546 . S
Tb1344 O1389 2.610 . S
Tb1344 O1391 2.320 . S
Tb1344 O1392 2.552 . S
Tb1344 O1393 2.413 . S
Tb1344 O1395 2.362 . S
Tb1344 O1396 2.421 . S
Tb1344 C1408 2.833 . S
C1345 C1348 1.432 . S
C1345 C1349 1.414 . S
C1345 N1352 1.359 . S
C1346 C1348 1.417 . S
C1346 C1350 1.432 . S
C1346 C1358 1.410 . S
C1347 C1349 1.444 . S
C1347 C1350 1.317 . S
C1347 H1370 0.929 . S
C1348 C1345 1.432 . S
C1348 C1346 1.417 . S
C1348 N1356 1.360 . S
C1349 C1345 1.414 . S
C1349 C1347 1.444 . S
C1349 C1354 1.385 . S
C1350 C1346 1.432 . S
C1350 C1347 1.317 . S
C1350 H1362 0.930 . S
C1351 C1353 1.392 . S
C1351 C1354 1.370 . S
C1351 H1363 0.931 . S
N1352 C1345 1.359 . S
N1352 C1353 1.327 . S
N1352 Tb1355 2.600 . S
C1353 C1351 1.392 . S
C1353 N1352 1.327 . S
C1353 H1360 0.930 . S
C1354 C1349 1.385 . S
C1354 C1351 1.370 . S
C1354 H1373 0.930 . S
Tb1355 N1352 2.600 . S
Tb1355 N1356 2.660 . S
Tb1355 O1389 2.362 . S
Tb1355 O1390 2.421 . S
Tb1355 O1394 2.546 . S
Tb1355 O1395 2.610 . S
Tb1355 O1397 2.320 . S
Tb1355 O1398 2.552 . S
Tb1355 O1399 2.413 . S
Tb1355 C1419 2.833 . S
N1356 C1348 1.360 . S
N1356 Tb1355 2.660 . S
N1356 C1357 1.305 . S
C1357 N1356 1.305 . S
C1357 C1359 1.407 . S
C1357 H1364 0.930 . S
C1358 C1346 1.410 . S
C1358 C1359 1.345 . S
C1358 H1366 0.930 . S
C1359 C1357 1.407 . S
C1359 C1358 1.345 . S
C1359 H1361 0.930 . S
H1360 C1353 0.930 . S
H1361 C1359 0.930 . S
H1362 C1350 0.930 . S
H1363 C1351 0.931 . S
H1364 C1357 0.930 . S
H1365 C1379 0.930 . S
H1366 C1358 0.930 . S
H1367 C1385 0.930 . S
H1368 C1376 0.930 . S
H1369 C1383 0.931 . S
H1370 C1347 0.929 . S
H1371 C1377 0.930 . S
H1372 C1410 0.930 . S
H1373 C1354 0.930 . S
H1374 C1409 0.929 . S
N1375 Tb1344 2.660 . S
N1375 C1376 1.305 . S
N1375 C1380 1.360 . S
C1376 H1368 0.930 . S
C1376 N1375 1.305 . S
C1376 C1379 1.407 . S
C1377 H1371 0.930 . S
C1377 C1378 1.410 . S
C1377 C1379 1.345 . S
C1378 C1377 1.410 . S
C1378 C1380 1.417 . S
C1378 C1410 1.432 . S
C1379 H1365 0.930 . S
C1379 C1376 1.407 . S
C1379 C1377 1.345 . S
C1380 N1375 1.360 . S
C1380 C1378 1.417 . S
C1380 C1384 1.432 . S
H1381 C1386 0.930 . S
N1382 Tb1344 2.600 . S
N1382 C1384 1.359 . S
N1382 C1385 1.327 . S
C1383 H1369 0.931 . S
C1383 C1385 1.392 . S
C1383 C1386 1.370 . S
C1384 C1380 1.432 . S
C1384 N1382 1.359 . S
C1384 C1387 1.414 . S
C1385 H1367 0.930 . S
C1385 N1382 1.327 . S
C1385 C1383 1.392 . S
C1386 H1381 0.930 . S
C1386 C1383 1.370 . S
C1386 C1387 1.385 . S
C1387 C1384 1.414 . S
C1387 C1386 1.385 . S
C1387 C1409 1.444 . S
O1388 Tb1344 2.546 . S
O1388 C1408 1.251 . S
O1389 Tb1344 2.610 . S
O1389 Tb1355 2.362 . S
O1389 C1400 1.283 . S
O1390 Tb1355 2.421 . S
O1390 C1407 1.262 . S
O1391 Tb1344 2.320 . S
O1391 C1407 1.260 . S
O1392 Tb1344 2.552 . S
O1392 C1400 1.243 . S
O1393 Tb1344 2.413 . S
O1393 C1408 1.256 . S
O1394 Tb1355 2.546 . S
O1394 C1419 1.251 . S
O1395 Tb1344 2.362 . S
O1395 Tb1355 2.610 . S
O1395 C1411 1.283 . S
O1396 Tb1344 2.421 . S
O1396 C1418 1.262 . S
O1397 Tb1355 2.320 . S
O1397 C1418 1.260 . S
O1398 Tb1355 2.552 . S
O1398 C1411 1.243 . S
O1399 Tb1355 2.413 . S
O1399 C1419 1.256 . S
C1400 O1389 1.283 . S
C1400 O1392 1.243 . S
C1401 C1403 1.382 . S
C1401 C1405 1.393 . S
C1401 C1408 1.500 . S
C1402 C1403 1.400 . S
C1402 C1404 1.384 . S
C1403 C1401 1.382 . S
C1403 C1402 1.400 . S
C1403 H1420 0.930 . S
C1404 C1402 1.384 . S
C1404 C1406 1.392 . S
C1404 H1421 0.931 . S
C1405 C1401 1.393 . S
C1405 C1406 1.401 . S
C1405 H1422 0.930 . S
C1406 C1404 1.392 . S
C1406 C1405 1.401 . S
C1406 H1423 0.930 . S
C1407 O1390 1.262 . S
C1407 O1391 1.260 . S
C1408 Tb1344 2.833 . S
C1408 O1388 1.251 . S
C1408 O1393 1.256 . S
C1408 C1401 1.500 . S
C1409 H1374 0.929 . S
C1409 C1387 1.444 . S
C1409 C1410 1.317 . S
C1410 H1372 0.930 . S
C1410 C1378 1.432 . S
C1410 C1409 1.317 . S
C1411 O1395 1.283 . S
C1411 O1398 1.243 . S
C1412 C1413 1.382 . S
C1412 C1416 1.393 . S
C1412 C1419 1.500 . S
C1413 C1412 1.382 . S
C1413 C1414 1.400 . S
C1413 H1424 0.930 . S
C1414 C1413 1.400 . S
C1414 C1415 1.384 . S
C1415 C1414 1.384 . S
C1415 C1417 1.392 . S
C1415 H1425 0.931 . S
C1416 C1412 1.393 . S
C1416 C1417 1.401 . S
C1416 H1426 0.930 . S
C1417 C1415 1.392 . S
C1417 C1416 1.401 . S
C1417 H1427 0.930 . S
C1418 O1396 1.262 . S
C1418 O1397 1.260 . S
C1419 Tb1355 2.833 . S
C1419 O1394 1.251 . S
C1419 O1399 1.256 . S
C1419 C1412 1.500 . S
H1420 C1403 0.930 . S
H1421 C1404 0.931 . S
H1422 C1405 0.930 . S
H1423 C1406 0.930 . S
H1424 C1413 0.930 . S
H1425 C1415 0.931 . S
H1426 C1416 0.930 . S
H1427 C1417 0.930 . S
Tb1428 N1459 2.660 . S
Tb1428 N1466 2.600 . S
Tb1428 O1472 2.546 . S
Tb1428 O1473 2.610 . S
Tb1428 O1475 2.320 . S
Tb1428 O1476 2.552 . S
Tb1428 O1477 2.413 . S
Tb1428 O1479 2.362 . S
Tb1428 O1480 2.421 . S
Tb1428 C1492 2.833 . S
C1429 C1432 1.432 . S
C1429 C1433 1.414 . S
C1429 N1436 1.359 . S
C1430 C1432 1.417 . S
C1430 C1434 1.432 . S
C1430 C1442 1.410 . S
C1431 C1433 1.444 . S
C1431 C1434 1.317 . S
C1431 H1454 0.929 . S
C1432 C1429 1.432 . S
C1432 C1430 1.417 . S
C1432 N1440 1.360 . S
C1433 C1429 1.414 . S
C1433 C1431 1.444 . S
C1433 C1438 1.385 . S
C1434 C1430 1.432 . S
C1434 C1431 1.317 . S
C1434 H1446 0.930 . S
C1435 C1437 1.392 . S
C1435 C1438 1.370 . S
C1435 H1447 0.931 . S
N1436 C1429 1.359 . S
N1436 C1437 1.327 . S
N1436 Tb1439 2.600 . S
C1437 C1435 1.392 . S
C1437 N1436 1.327 . S
C1437 H1444 0.930 . S
C1438 C1433 1.385 . S
C1438 C1435 1.370 . S
C1438 H1457 0.930 . S
Tb1439 N1436 2.600 . S
Tb1439 N1440 2.660 . S
Tb1439 O1473 2.362 . S
Tb1439 O1474 2.421 . S
Tb1439 O1478 2.546 . S
Tb1439 O1479 2.610 . S
Tb1439 O1481 2.320 . S
Tb1439 O1482 2.552 . S
Tb1439 O1483 2.413 . S
Tb1439 C1503 2.833 . S
N1440 C1432 1.360 . S
N1440 Tb1439 2.660 . S
N1440 C1441 1.305 . S
C1441 N1440 1.305 . S
C1441 C1443 1.407 . S
C1441 H1448 0.930 . S
C1442 C1430 1.410 . S
C1442 C1443 1.345 . S
C1442 H1450 0.930 . S
C1443 C1441 1.407 . S
C1443 C1442 1.345 . S
C1443 H1445 0.930 . S
H1444 C1437 0.930 . S
H1445 C1443 0.930 . S
H1446 C1434 0.930 . S
H1447 C1435 0.931 . S
H1448 C1441 0.930 . S
H1449 C1463 0.930 . S
H1450 C1442 0.930 . S
H1451 C1469 0.930 . S
H1452 C1460 0.930 . S
H1453 C1467 0.931 . S
H1454 C1431 0.929 . S
H1455 C1461 0.930 . S
H1456 C1494 0.930 . S
H1457 C1438 0.930 . S
H1458 C1493 0.929 . S
N1459 Tb1428 2.660 . S
N1459 C1460 1.305 . S
N1459 C1464 1.360 . S
C1460 H1452 0.930 . S
C1460 N1459 1.305 . S
C1460 C1463 1.407 . S
C1461 H1455 0.930 . S
C1461 C1462 1.410 . S
C1461 C1463 1.345 . S
C1462 C1461 1.410 . S
C1462 C1464 1.417 . S
C1462 C1494 1.432 . S
C1463 H1449 0.930 . S
C1463 C1460 1.407 . S
C1463 C1461 1.345 . S
C1464 N1459 1.360 . S
C1464 C1462 1.417 . S
C1464 C1468 1.432 . S
H1465 C1470 0.930 . S
N1466 Tb1428 2.600 . S
N1466 C1468 1.359 . S
N1466 C1469 1.327 . S
C1467 H1453 0.931 . S
C1467 C1469 1.392 . S
C1467 C1470 1.370 . S
C1468 C1464 1.432 . S
C1468 N1466 1.359 . S
C1468 C1471 1.414 . S
C1469 H1451 0.930 . S
C1469 N1466 1.327 . S
C1469 C1467 1.392 . S
C1470 H1465 0.930 . S
C1470 C1467 1.370 . S
C1470 C1471 1.385 . S
C1471 C1468 1.414 . S
C1471 C1470 1.385 . S
C1471 C1493 1.444 . S
O1472 Tb1428 2.546 . S
O1472 C1492 1.251 . S
O1473 Tb1428 2.610 . S
O1473 Tb1439 2.362 . S
O1473 C1484 1.283 . S
O1474 Tb1439 2.421 . S
O1474 C1491 1.262 . S
O1475 Tb1428 2.320 . S
O1475 C1491 1.260 . S
O1476 Tb1428 2.552 . S
O1476 C1484 1.243 . S
O1477 Tb1428 2.413 . S
O1477 C1492 1.256 . S
O1478 Tb1439 2.546 . S
O1478 C1503 1.251 . S
O1479 Tb1428 2.362 . S
O1479 Tb1439 2.610 . S
O1479 C1495 1.283 . S
O1480 Tb1428 2.421 . S
O1480 C1502 1.262 . S
O1481 Tb1439 2.320 . S
O1481 C1502 1.260 . S
O1482 Tb1439 2.552 . S
O1482 C1495 1.243 . S
O1483 Tb1439 2.413 . S
O1483 C1503 1.256 . S
C1484 O1473 1.283 . S
C1484 O1476 1.243 . S
C1485 C1487 1.382 . S
C1485 C1489 1.393 . S
C1485 C1492 1.500 . S
C1486 C1487 1.400 . S
C1486 C1488 1.384 . S
C1487 C1485 1.382 . S
C1487 C1486 1.400 . S
C1487 H1504 0.930 . S
C1488 C1486 1.384 . S
C1488 C1490 1.392 . S
C1488 H1505 0.931 . S
C1489 C1485 1.393 . S
C1489 C1490 1.401 . S
C1489 H1506 0.930 . S
C1490 C1488 1.392 . S
C1490 C1489 1.401 . S
C1490 H1507 0.930 . S
C1491 O1474 1.262 . S
C1491 O1475 1.260 . S
C1492 Tb1428 2.833 . S
C1492 O1472 1.251 . S
C1492 O1477 1.256 . S
C1492 C1485 1.500 . S
C1493 H1458 0.929 . S
C1493 C1471 1.444 . S
C1493 C1494 1.317 . S
C1494 H1456 0.930 . S
C1494 C1462 1.432 . S
C1494 C1493 1.317 . S
C1495 O1479 1.283 . S
C1495 O1482 1.243 . S
C1496 C1497 1.382 . S
C1496 C1500 1.393 . S
C1496 C1503 1.500 . S
C1497 C1496 1.382 . S
C1497 C1498 1.400 . S
C1497 H1508 0.930 . S
C1498 C1497 1.400 . S
C1498 C1499 1.384 . S
C1499 C1498 1.384 . S
C1499 C1501 1.392 . S
C1499 H1509 0.931 . S
C1500 C1496 1.393 . S
C1500 C1501 1.401 . S
C1500 H1510 0.930 . S
C1501 C1499 1.392 . S
C1501 C1500 1.401 . S
C1501 H1511 0.930 . S
C1502 O1480 1.262 . S
C1502 O1481 1.260 . S
C1503 Tb1439 2.833 . S
C1503 O1478 1.251 . S
C1503 O1483 1.256 . S
C1503 C1496 1.500 . S
H1504 C1487 0.930 . S
H1505 C1488 0.931 . S
H1506 C1489 0.930 . S
H1507 C1490 0.930 . S
H1508 C1497 0.930 . S
H1509 C1499 0.931 . S
H1510 C1500 0.930 . S
H1511 C1501 0.930 . S
Tb1512 N1543 2.660 . S
Tb1512 N1550 2.600 . S
Tb1512 O1556 2.546 . S
Tb1512 O1557 2.610 . S
Tb1512 O1559 2.320 . S
Tb1512 O1560 2.552 . S
Tb1512 O1561 2.413 . S
Tb1512 O1563 2.362 . S
Tb1512 O1564 2.421 . S
Tb1512 C1576 2.833 . S
C1513 C1516 1.432 . S
C1513 C1517 1.414 . S
C1513 N1520 1.359 . S
C1514 C1516 1.417 . S
C1514 C1518 1.432 . S
C1514 C1526 1.410 . S
C1515 C1517 1.444 . S
C1515 C1518 1.317 . S
C1515 H1538 0.929 . S
C1516 C1513 1.432 . S
C1516 C1514 1.417 . S
C1516 N1524 1.360 . S
C1517 C1513 1.414 . S
C1517 C1515 1.444 . S
C1517 C1522 1.385 . S
C1518 C1514 1.432 . S
C1518 C1515 1.317 . S
C1518 H1530 0.930 . S
C1519 C1521 1.392 . S
C1519 C1522 1.370 . S
C1519 H1531 0.931 . S
N1520 C1513 1.359 . S
N1520 C1521 1.327 . S
N1520 Tb1523 2.600 . S
C1521 C1519 1.392 . S
C1521 N1520 1.327 . S
C1521 H1528 0.930 . S
C1522 C1517 1.385 . S
C1522 C1519 1.370 . S
C1522 H1541 0.930 . S
Tb1523 N1520 2.600 . S
Tb1523 N1524 2.660 . S
Tb1523 O1557 2.362 . S
Tb1523 O1558 2.421 . S
Tb1523 O1562 2.546 . S
Tb1523 O1563 2.610 . S
Tb1523 O1565 2.320 . S
Tb1523 O1566 2.552 . S
Tb1523 O1567 2.413 . S
Tb1523 C1587 2.833 . S
N1524 C1516 1.360 . S
N1524 Tb1523 2.660 . S
N1524 C1525 1.305 . S
C1525 N1524 1.305 . S
C1525 C1527 1.407 . S
C1525 H1532 0.930 . S
C1526 C1514 1.410 . S
C1526 C1527 1.345 . S
C1526 H1534 0.930 . S
C1527 C1525 1.407 . S
C1527 C1526 1.345 . S
C1527 H1529 0.930 . S
H1528 C1521 0.930 . S
H1529 C1527 0.930 . S
H1530 C1518 0.930 . S
H1531 C1519 0.931 . S
H1532 C1525 0.930 . S
H1533 C1547 0.930 . S
H1534 C1526 0.930 . S
H1535 C1553 0.930 . S
H1536 C1544 0.930 . S
H1537 C1551 0.931 . S
H1538 C1515 0.929 . S
H1539 C1545 0.930 . S
H1540 C1578 0.930 . S
H1541 C1522 0.930 . S
H1542 C1577 0.929 . S
N1543 Tb1512 2.660 . S
N1543 C1544 1.305 . S
N1543 C1548 1.360 . S
C1544 H1536 0.930 . S
C1544 N1543 1.305 . S
C1544 C1547 1.407 . S
C1545 H1539 0.930 . S
C1545 C1546 1.410 . S
C1545 C1547 1.345 . S
C1546 C1545 1.410 . S
C1546 C1548 1.417 . S
C1546 C1578 1.432 . S
C1547 H1533 0.930 . S
C1547 C1544 1.407 . S
C1547 C1545 1.345 . S
C1548 N1543 1.360 . S
C1548 C1546 1.417 . S
C1548 C1552 1.432 . S
H1549 C1554 0.930 . S
N1550 Tb1512 2.600 . S
N1550 C1552 1.359 . S
N1550 C1553 1.327 . S
C1551 H1537 0.931 . S
C1551 C1553 1.392 . S
C1551 C1554 1.370 . S
C1552 C1548 1.432 . S
C1552 N1550 1.359 . S
C1552 C1555 1.414 . S
C1553 H1535 0.930 . S
C1553 N1550 1.327 . S
C1553 C1551 1.392 . S
C1554 H1549 0.930 . S
C1554 C1551 1.370 . S
C1554 C1555 1.385 . S
C1555 C1552 1.414 . S
C1555 C1554 1.385 . S
C1555 C1577 1.444 . S
O1556 Tb1512 2.546 . S
O1556 C1576 1.251 . S
O1557 Tb1512 2.610 . S
O1557 Tb1523 2.362 . S
O1557 C1568 1.283 . S
O1558 Tb1523 2.421 . S
O1558 C1575 1.262 . S
O1559 Tb1512 2.320 . S
O1559 C1575 1.260 . S
O1560 Tb1512 2.552 . S
O1560 C1568 1.243 . S
O1561 Tb1512 2.413 . S
O1561 C1576 1.256 . S
O1562 Tb1523 2.546 . S
O1562 C1587 1.251 . S
O1563 Tb1512 2.362 . S
O1563 Tb1523 2.610 . S
O1563 C1579 1.283 . S
O1564 Tb1512 2.421 . S
O1564 C1586 1.262 . S
O1565 Tb1523 2.320 . S
O1565 C1586 1.260 . S
O1566 Tb1523 2.552 . S
O1566 C1579 1.243 . S
O1567 Tb1523 2.413 . S
O1567 C1587 1.256 . S
C1568 O1557 1.283 . S
C1568 O1560 1.243 . S
C1569 C1571 1.382 . S
C1569 C1573 1.393 . S
C1569 C1576 1.500 . S
C1570 C1571 1.400 . S
C1570 C1572 1.384 . S
C1571 C1569 1.382 . S
C1571 C1570 1.400 . S
C1571 H1588 0.930 . S
C1572 C1570 1.384 . S
C1572 C1574 1.392 . S
C1572 H1589 0.931 . S
C1573 C1569 1.393 . S
C1573 C1574 1.401 . S
C1573 H1590 0.930 . S
C1574 C1572 1.392 . S
C1574 C1573 1.401 . S
C1574 H1591 0.930 . S
C1575 O1558 1.262 . S
C1575 O1559 1.260 . S
C1576 Tb1512 2.833 . S
C1576 O1556 1.251 . S
C1576 O1561 1.256 . S
C1576 C1569 1.500 . S
C1577 H1542 0.929 . S
C1577 C1555 1.444 . S
C1577 C1578 1.317 . S
C1578 H1540 0.930 . S
C1578 C1546 1.432 . S
C1578 C1577 1.317 . S
C1579 O1563 1.283 . S
C1579 O1566 1.243 . S
C1580 C1581 1.382 . S
C1580 C1584 1.393 . S
C1580 C1587 1.500 . S
C1581 C1580 1.382 . S
C1581 C1582 1.400 . S
C1581 H1592 0.930 . S
C1582 C1581 1.400 . S
C1582 C1583 1.384 . S
C1583 C1582 1.384 . S
C1583 C1585 1.392 . S
C1583 H1593 0.931 . S
C1584 C1580 1.393 . S
C1584 C1585 1.401 . S
C1584 H1594 0.930 . S
C1585 C1583 1.392 . S
C1585 C1584 1.401 . S
C1585 H1595 0.930 . S
C1586 O1564 1.262 . S
C1586 O1565 1.260 . S
C1587 Tb1523 2.833 . S
C1587 O1562 1.251 . S
C1587 O1567 1.256 . S
C1587 C1580 1.500 . S
H1588 C1571 0.930 . S
H1589 C1572 0.931 . S
H1590 C1573 0.930 . S
H1591 C1574 0.930 . S
H1592 C1581 0.930 . S
H1593 C1583 0.931 . S
H1594 C1584 0.930 . S
H1595 C1585 0.930 . S
Tb1596 N1627 2.660 . S
Tb1596 N1634 2.600 . S
Tb1596 O1640 2.569 . S
Tb1596 O1641 2.610 . S
Tb1596 O1643 2.320 . S
Tb1596 O1644 2.552 . S
Tb1596 O1645 2.413 . S
Tb1596 O1647 2.362 . S
Tb1596 O1648 2.413 1_554 S
Tb1596 C1660 2.833 . S
C1597 C1600 1.431 1_455 S
C1597 C1601 1.410 1_455 S
C1597 N1604 1.364 . S
C1598 C1600 1.417 . S
C1598 C1602 1.432 . S
C1598 C1610 1.410 . S
C1599 C1601 1.444 . S
C1599 C1602 1.317 . S
C1599 H1622 0.929 . S
C1600 C1597 1.431 1_655 S
C1600 C1598 1.417 . S
C1600 N1608 1.360 1_655 S
C1601 C1597 1.410 1_655 S
C1601 C1599 1.444 . S
C1601 C1606 1.385 . S
C1602 C1598 1.432 . S
C1602 C1599 1.317 . S
C1602 H1614 0.930 . S
C1603 C1605 1.392 . S
C1603 C1606 1.370 1_455 S
C1603 H1615 0.931 . S
N1604 C1597 1.364 . S
N1604 C1605 1.327 . S
N1604 Tb1607 2.600 . S
C1605 C1603 1.392 . S
C1605 N1604 1.327 . S
C1605 H1612 0.930 . S
C1606 C1601 1.385 . S
C1606 C1603 1.370 1_655 S
C1606 H1625 0.930 . S
Tb1607 N1604 2.600 . S
Tb1607 N1608 2.660 . S
Tb1607 O1641 2.362 . S
Tb1607 O1642 2.421 . S
Tb1607 O1646 2.546 . S
Tb1607 O1647 2.610 . S
Tb1607 O1649 2.320 . S
Tb1607 O1650 2.552 . S
Tb1607 O1651 2.413 1_455 S
Tb1607 C1671 2.833 1_455 S
N1608 C1600 1.360 1_455 S
N1608 Tb1607 2.660 . S
N1608 C1609 1.305 . S
C1609 N1608 1.305 . S
C1609 C1611 1.407 1_455 S
C1609 H1616 0.930 . S
C1610 C1598 1.410 . S
C1610 C1611 1.345 . S
C1610 H1618 0.930 . S
C1611 C1609 1.407 1_655 S
C1611 C1610 1.345 . S
C1611 H1613 0.930 1_554 S
H1612 C1605 0.930 . S
H1613 C1611 0.930 1_556 S
H1614 C1602 0.930 . S
H1615 C1603 0.931 . S
H1616 C1609 0.930 . S
H1617 C1631 0.930 . S
H1618 C1610 0.930 . S
H1619 C1637 0.930 . S
H1620 C1628 0.930 . S
H1621 C1635 0.931 . S
H1622 C1599 0.929 . S
H1623 C1629 0.930 . S
H1624 C1662 0.930 . S
H1625 C1606 0.930 . S
H1626 C1661 0.946 . S
N1627 Tb1596 2.660 . S
N1627 C1628 1.305 . S
N1627 C1632 1.360 . S
C1628 H1620 0.930 . S
C1628 N1627 1.305 . S
C1628 C1631 1.407 . S
C1629 H1623 0.930 . S
C1629 C1630 1.410 . S
C1629 C1631 1.345 . S
C1630 C1629 1.410 . S
C1630 C1632 1.417 . S
C1630 C1662 1.432 . S
C1631 H1617 0.930 . S
C1631 C1628 1.407 . S
C1631 C1629 1.345 . S
C1632 N1627 1.360 . S
C1632 C1630 1.417 . S
C1632 C1636 1.432 . S
H1633 C1638 0.930 . S
N1634 Tb1596 2.600 . S
N1634 C1636 1.359 . S
N1634 C1637 1.327 1_554 S
C1635 H1621 0.931 . S
C1635 C1637 1.392 . S
C1635 C1638 1.370 . S
C1636 C1632 1.432 . S
C1636 N1634 1.359 . S
C1636 C1639 1.414 1_554 S
C1637 H1619 0.930 . S
C1637 N1634 1.327 1_556 S
C1637 C1635 1.392 . S
C1638 H1633 0.930 . S
C1638 C1635 1.370 . S
C1638 C1639 1.385 . S
C1639 C1636 1.414 1_556 S
C1639 C1638 1.385 . S
C1639 C1661 1.444 1_556 S
O1640 Tb1596 2.569 . S
O1640 C1660 1.277 . S
O1641 Tb1596 2.610 . S
O1641 Tb1607 2.362 . S
O1641 C1652 1.283 . S
O1642 Tb1607 2.421 . S
O1642 C1659 1.262 . S
O1643 Tb1596 2.320 . S
O1643 C1659 1.260 . S
O1644 Tb1596 2.552 . S
O1644 C1652 1.243 . S
O1645 Tb1596 2.413 . S
O1645 C1660 1.256 . S
O1646 Tb1607 2.546 . S
O1646 C1671 1.251 1_455 S
O1647 Tb1596 2.362 . S
O1647 Tb1607 2.610 . S
O1647 C1663 1.283 . S
O1648 Tb1596 2.413 1_556 S
O1648 C1670 1.260 1_556 S
O1649 Tb1607 2.320 . S
O1649 C1670 1.260 . S
O1650 Tb1607 2.552 . S
O1650 C1663 1.243 . S
O1651 Tb1607 2.413 1_655 S
O1651 C1671 1.256 . S
C1652 O1641 1.283 . S
C1652 O1644 1.243 . S
C1653 C1655 1.382 . S
C1653 C1657 1.393 1_554 S
C1653 C1660 1.500 . S
C1654 C1655 1.400 . S
C1654 C1656 1.384 . S
C1655 C1653 1.382 . S
C1655 C1654 1.400 . S
C1655 H1672 0.930 . S
C1656 C1654 1.384 . S
C1656 C1658 1.392 1_554 S
C1656 H1673 0.931 1_554 S
C1657 C1653 1.393 1_556 S
C1657 C1658 1.401 . S
C1657 H1674 0.930 . S
C1658 C1656 1.392 1_556 S
C1658 C1657 1.401 . S
C1658 H1675 0.930 . S
C1659 O1642 1.262 . S
C1659 O1643 1.260 . S
C1660 Tb1596 2.833 . S
C1660 O1640 1.277 . S
C1660 O1645 1.256 . S
C1660 C1653 1.500 . S
C1661 H1626 0.946 . S
C1661 C1639 1.444 1_554 S
C1661 C1662 1.317 . S
C1662 H1624 0.930 . S
C1662 C1630 1.432 . S
C1662 C1661 1.317 . S
C1663 O1647 1.283 . S
C1663 O1650 1.243 . S
C1664 C1665 1.382 . S
C1664 C1668 1.393 . S
C1664 C1671 1.500 . S
C1665 C1664 1.382 . S
C1665 C1666 1.400 . S
C1665 H1676 0.930 . S
C1666 C1665 1.400 . S
C1666 C1667 1.384 . S
C1667 C1666 1.384 . S
C1667 C1669 1.392 . S
C1667 H1677 0.931 . S
C1668 C1664 1.393 . S
C1668 C1669 1.401 . S
C1668 H1678 0.930 . S
C1669 C1667 1.392 . S
C1669 C1668 1.401 . S
C1669 H1679 0.930 . S
C1670 O1648 1.260 1_554 S
C1670 O1649 1.260 . S
C1671 Tb1607 2.833 1_655 S
C1671 O1646 1.251 1_655 S
C1671 O1651 1.256 . S
C1671 C1664 1.500 . S
H1672 C1655 0.930 . S
H1673 C1656 0.931 1_556 S
H1674 C1657 0.930 . S
H1675 C1658 0.930 . S
H1676 C1665 0.930 . S
H1677 C1667 0.931 . S
H1678 C1668 0.930 . S
H1679 C1669 0.930 . S
H1680 C1688 0.950 1_655 S
H1681 C1693 0.950 . S
H1682 C1690 0.950 . S
H1683 C1692 0.950 . S
H1684 C1694 0.950 . S
H1685 C1696 0.950 . S
H1686 C1698 0.950 . S
H1687 C1699 0.950 . S
C1688 H1680 0.950 1_455 S
C1688 C1689 1.386 . S
C1688 C1690 1.391 . S
C1689 C1688 1.386 . S
C1689 C1693 1.393 . S
C1690 H1682 0.950 . S
C1690 C1688 1.391 . S
C1690 C1691 1.400 . S
C1691 C1690 1.400 . S
C1691 C1692 1.398 . S
C1691 C1697 1.491 . S
C1692 H1683 0.950 . S
C1692 C1691 1.398 . S
C1692 C1693 1.391 . S
C1693 H1681 0.950 . S
C1693 C1689 1.393 . S
C1693 C1692 1.391 . S
C1694 H1684 0.950 . S
C1694 C1695 1.386 . S
C1694 C1696 1.391 . S
C1695 C1694 1.386 . S
C1695 C1699 1.393 1_554 S
C1696 H1685 0.950 . S
C1696 C1694 1.391 . S
C1696 C1697 1.400 1_554 S
C1697 C1691 1.491 . S
C1697 C1696 1.400 1_556 S
C1697 C1698 1.398 . S
C1698 H1686 0.950 . S
C1698 C1697 1.398 . S
C1698 C1699 1.391 . S
C1699 H1687 0.950 . S
C1699 C1695 1.393 1_556 S
C1699 C1698 1.391 . S
H1700 C1708 0.950 . S
H1701 C1713 0.950 . S
H1702 C1710 0.950 . S
H1703 C1712 0.950 . S
H1704 C1714 0.950 . S
H1705 C1716 0.950 . S
H1706 C1718 0.950 . S
H1707 C1719 0.950 . S
C1708 H1700 0.950 . S
C1708 C1709 1.386 . S
C1708 C1710 1.391 . S
C1709 C1708 1.386 . S
C1709 C1713 1.393 . S
C1710 H1702 0.950 . S
C1710 C1708 1.391 . S
C1710 C1711 1.400 . S
C1711 C1710 1.400 . S
C1711 C1712 1.398 . S
C1711 C1717 1.491 . S
C1712 H1703 0.950 . S
C1712 C1711 1.398 . S
C1712 C1713 1.391 . S
C1713 H1701 0.950 . S
C1713 C1709 1.393 . S
C1713 C1712 1.391 . S
C1714 H1704 0.950 . S
C1714 C1715 1.386 . S
C1714 C1716 1.391 . S
C1715 C1714 1.386 . S
C1715 C1719 1.393 . S
C1716 H1705 0.950 . S
C1716 C1714 1.391 . S
C1716 C1717 1.400 . S
C1717 C1711 1.491 . S
C1717 C1716 1.400 . S
C1717 C1718 1.398 . S
C1718 H1706 0.950 . S
C1718 C1717 1.398 . S
C1718 C1719 1.391 . S
C1719 H1707 0.950 . S
C1719 C1715 1.393 . S
C1719 C1718 1.391 . S
H1720 C1728 0.950 . S
H1721 C1733 0.950 . S
H1722 C1730 0.950 . S
H1723 C1732 0.950 . S
H1724 C1734 0.950 . S
H1725 C1736 0.950 . S
H1726 C1738 0.950 . S
H1727 C1739 0.950 . S
C1728 H1720 0.950 . S
C1728 C1729 1.386 . S
C1728 C1730 1.391 . S
C1729 C1728 1.386 . S
C1729 C1733 1.393 . S
C1730 H1722 0.950 . S
C1730 C1728 1.391 . S
C1730 C1731 1.400 . S
C1731 C1730 1.400 . S
C1731 C1732 1.398 . S
C1731 C1737 1.491 . S
C1732 H1723 0.950 . S
C1732 C1731 1.398 . S
C1732 C1733 1.391 . S
C1733 H1721 0.950 . S
C1733 C1729 1.393 . S
C1733 C1732 1.391 . S
C1734 H1724 0.950 . S
C1734 C1735 1.386 . S
C1734 C1736 1.391 . S
C1735 C1734 1.386 . S
C1735 C1739 1.393 . S
C1736 H1725 0.950 . S
C1736 C1734 1.391 . S
C1736 C1737 1.400 . S
C1737 C1731 1.491 . S
C1737 C1736 1.400 . S
C1737 C1738 1.398 . S
C1738 H1726 0.950 . S
C1738 C1737 1.398 . S
C1738 C1739 1.391 . S
C1739 H1727 0.950 . S
C1739 C1735 1.393 . S
C1739 C1738 1.391 . S
H1740 C1748 0.950 . S
H1741 C1753 0.950 . S
H1742 C1750 0.950 . S
H1743 C1752 0.950 . S
H1744 C1754 0.950 . S
H1745 C1756 0.950 . S
H1746 C1758 0.950 . S
H1747 C1759 0.950 . S
C1748 H1740 0.950 . S
C1748 C1749 1.386 . S
C1748 C1750 1.391 . S
C1749 C1748 1.386 . S
C1749 C1753 1.393 . S
C1750 H1742 0.950 . S
C1750 C1748 1.391 . S
C1750 C1751 1.400 . S
C1751 C1750 1.400 . S
C1751 C1752 1.398 . S
C1751 C1757 1.491 . S
C1752 H1743 0.950 . S
C1752 C1751 1.398 . S
C1752 C1753 1.391 . S
C1753 H1741 0.950 . S
C1753 C1749 1.393 . S
C1753 C1752 1.391 . S
C1754 H1744 0.950 . S
C1754 C1755 1.386 . S
C1754 C1756 1.391 . S
C1755 C1754 1.386 . S
C1755 C1759 1.393 . S
C1756 H1745 0.950 . S
C1756 C1754 1.391 . S
C1756 C1757 1.400 . S
C1757 C1751 1.491 . S
C1757 C1756 1.400 . S
C1757 C1758 1.398 . S
C1758 H1746 0.950 . S
C1758 C1757 1.398 . S
C1758 C1759 1.391 . S
C1759 H1747 0.950 . S
C1759 C1755 1.393 . S
C1759 C1758 1.391 . S
H1760 C1768 0.950 1_655 S
H1761 C1773 0.950 . S
H1762 C1770 0.950 . S
H1763 C1772 0.950 . S
H1764 C1774 0.950 . S
H1765 C1776 0.950 . S
H1766 C1778 0.950 . S
H1767 C1779 0.950 . S
C1768 H1760 0.950 1_455 S
C1768 C1769 1.386 . S
C1768 C1770 1.391 . S
C1769 C1768 1.386 . S
C1769 C1773 1.393 . S
C1770 H1762 0.950 . S
C1770 C1768 1.391 . S
C1770 C1771 1.400 . S
C1771 C1770 1.400 . S
C1771 C1772 1.398 . S
C1771 C1777 1.491 . S
C1772 H1763 0.950 . S
C1772 C1771 1.398 . S
C1772 C1773 1.391 . S
C1773 H1761 0.950 . S
C1773 C1769 1.393 . S
C1773 C1772 1.391 . S
C1774 H1764 0.950 . S
C1774 C1775 1.386 . S
C1774 C1776 1.391 . S
C1775 C1774 1.386 . S
C1775 C1779 1.393 . S
C1776 H1765 0.950 . S
C1776 C1774 1.391 . S
C1776 C1777 1.400 . S
C1777 C1771 1.491 . S
C1777 C1776 1.400 . S
C1777 C1778 1.398 . S
C1778 H1766 0.950 . S
C1778 C1777 1.398 . S
C1778 C1779 1.391 . S
C1779 H1767 0.950 . S
C1779 C1775 1.393 . S
C1779 C1778 1.391 . S
H1780 C1788 0.950 . S
H1781 C1793 0.950 . S
H1782 C1790 0.950 . S
H1783 C1792 0.950 . S
H1784 C1794 0.950 . S
H1785 C1796 0.950 . S
H1786 C1798 0.950 . S
H1787 C1799 0.950 . S
C1788 H1780 0.950 . S
C1788 C1789 1.386 . S
C1788 C1790 1.391 . S
C1789 C1788 1.386 . S
C1789 C1793 1.393 . S
C1790 H1782 0.950 . S
C1790 C1788 1.391 . S
C1790 C1791 1.400 . S
C1791 C1790 1.400 . S
C1791 C1792 1.398 . S
C1791 C1797 1.491 . S
C1792 H1783 0.950 . S
C1792 C1791 1.398 . S
C1792 C1793 1.391 . S
C1793 H1781 0.950 . S
C1793 C1789 1.393 . S
C1793 C1792 1.391 . S
C1794 H1784 0.950 . S
C1794 C1795 1.386 . S
C1794 C1796 1.391 . S
C1795 C1794 1.386 . S
C1795 C1799 1.393 . S
C1796 H1785 0.950 . S
C1796 C1794 1.391 . S
C1796 C1797 1.400 . S
C1797 C1791 1.491 . S
C1797 C1796 1.400 . S
C1797 C1798 1.398 . S
C1798 H1786 0.950 . S
C1798 C1797 1.398 . S
C1798 C1799 1.391 . S
C1799 H1787 0.950 . S
C1799 C1795 1.393 . S
C1799 C1798 1.391 . S
H1800 C1808 0.950 . S
H1801 C1813 0.950 . S
H1802 C1810 0.950 . S
H1803 C1812 0.950 . S
H1804 C1814 0.950 . S
H1805 C1816 0.950 . S
H1806 C1818 0.950 . S
H1807 C1819 0.950 . S
C1808 H1800 0.950 . S
C1808 C1809 1.386 . S
C1808 C1810 1.391 . S
C1809 C1808 1.386 . S
C1809 C1813 1.393 . S
C1810 H1802 0.950 . S
C1810 C1808 1.391 . S
C1810 C1811 1.400 . S
C1811 C1810 1.400 . S
C1811 C1812 1.398 . S
C1811 C1817 1.491 . S
C1812 H1803 0.950 . S
C1812 C1811 1.398 . S
C1812 C1813 1.391 . S
C1813 H1801 0.950 . S
C1813 C1809 1.393 . S
C1813 C1812 1.391 . S
C1814 H1804 0.950 . S
C1814 C1815 1.386 . S
C1814 C1816 1.391 . S
C1815 C1814 1.386 . S
C1815 C1819 1.393 . S
C1816 H1805 0.950 . S
C1816 C1814 1.391 . S
C1816 C1817 1.400 . S
C1817 C1811 1.491 . S
C1817 C1816 1.400 . S
C1817 C1818 1.398 . S
C1818 H1806 0.950 . S
C1818 C1817 1.398 . S
C1818 C1819 1.391 . S
C1819 H1807 0.950 . S
C1819 C1815 1.393 . S
C1819 C1818 1.391 . S
H1820 C1828 0.950 . S
H1821 C1833 0.950 . S
H1822 C1830 0.950 . S
H1823 C1832 0.950 . S
H1824 C1834 0.950 . S
H1825 C1836 0.950 . S
H1826 C1838 0.950 . S
H1827 C1839 0.950 . S
C1828 H1820 0.950 . S
C1828 C1829 1.386 . S
C1828 C1830 1.391 . S
C1829 C1828 1.386 . S
C1829 C1833 1.393 . S
C1830 H1822 0.950 . S
C1830 C1828 1.391 . S
C1830 C1831 1.400 . S
C1831 C1830 1.400 . S
C1831 C1832 1.398 . S
C1831 C1837 1.491 . S
C1832 H1823 0.950 . S
C1832 C1831 1.398 . S
C1832 C1833 1.391 . S
C1833 H1821 0.950 . S
C1833 C1829 1.393 . S
C1833 C1832 1.391 . S
C1834 H1824 0.950 . S
C1834 C1835 1.386 . S
C1834 C1836 1.391 . S
C1835 C1834 1.386 . S
C1835 C1839 1.393 . S
C1836 H1825 0.950 . S
C1836 C1834 1.391 . S
C1836 C1837 1.400 . S
C1837 C1831 1.491 . S
C1837 C1836 1.400 . S
C1837 C1838 1.398 . S
C1838 H1826 0.950 . S
C1838 C1837 1.398 . S
C1838 C1839 1.391 . S
C1839 H1827 0.950 . S
C1839 C1835 1.393 . S
C1839 C1838 1.391 . S
H1840 C1848 0.950 . S
H1841 C1853 0.950 . S
H1842 C1850 0.950 . S
H1843 C1852 0.950 1_455 S
H1844 C1854 0.950 . S
H1845 C1856 0.950 . S
H1846 C1858 0.950 . S
H1847 C1859 0.950 . S
C1848 H1840 0.950 . S
C1848 C1849 1.386 . S
C1848 C1850 1.391 . S
C1849 C1848 1.386 . S
C1849 C1853 1.393 . S
C1850 H1842 0.950 . S
C1850 C1848 1.391 . S
C1850 C1851 1.400 . S
C1851 C1850 1.400 . S
C1851 C1852 1.398 . S
C1851 C1857 1.491 1_655 S
C1852 H1843 0.950 1_655 S
C1852 C1851 1.398 . S
C1852 C1853 1.391 . S
C1853 H1841 0.950 . S
C1853 C1849 1.393 . S
C1853 C1852 1.391 . S
C1854 H1844 0.950 . S
C1854 C1855 1.386 . S
C1854 C1856 1.391 . S
C1855 C1854 1.386 . S
C1855 C1859 1.393 . S
C1856 H1845 0.950 . S
C1856 C1854 1.391 . S
C1856 C1857 1.400 . S
C1857 C1851 1.491 1_455 S
C1857 C1856 1.400 . S
C1857 C1858 1.398 . S
C1858 H1846 0.950 . S
C1858 C1857 1.398 . S
C1858 C1859 1.391 . S
C1859 H1847 0.950 . S
C1859 C1855 1.393 . S
C1859 C1858 1.391 . S
H1860 C1868 0.950 . S
H1861 C1873 0.950 . S
H1862 C1870 0.950 . S
H1863 C1872 0.950 . S
H1864 C1874 0.950 . S
H1865 C1876 0.950 . S
H1866 C1878 0.950 . S
H1867 C1879 0.950 . S
C1868 H1860 0.950 . S
C1868 C1869 1.386 . S
C1868 C1870 1.391 . S
C1869 C1868 1.386 . S
C1869 C1873 1.393 . S
C1870 H1862 0.950 . S
C1870 C1868 1.391 . S
C1870 C1871 1.400 . S
C1871 C1870 1.400 . S
C1871 C1872 1.398 . S
C1871 C1877 1.491 . S
C1872 H1863 0.950 . S
C1872 C1871 1.398 . S
C1872 C1873 1.391 . S
C1873 H1861 0.950 . S
C1873 C1869 1.393 . S
C1873 C1872 1.391 . S
C1874 H1864 0.950 . S
C1874 C1875 1.386 . S
C1874 C1876 1.391 . S
C1875 C1874 1.386 . S
C1875 C1879 1.393 . S
C1876 H1865 0.950 . S
C1876 C1874 1.391 . S
C1876 C1877 1.400 . S
C1877 C1871 1.491 . S
C1877 C1876 1.400 . S
C1877 C1878 1.398 . S
C1878 H1866 0.950 . S
C1878 C1877 1.398 . S
C1878 C1879 1.391 . S
C1879 H1867 0.950 . S
C1879 C1875 1.393 . S
C1879 C1878 1.391 . S
H1880 C1888 0.950 . S
H1881 C1893 0.950 . S
H1882 C1890 0.950 . S
H1883 C1892 0.950 . S
H1884 C1894 0.950 . S
H1885 C1896 0.950 . S
H1886 C1898 0.950 . S
H1887 C1899 0.950 . S
C1888 H1880 0.950 . S
C1888 C1889 1.386 . S
C1888 C1890 1.391 . S
C1889 C1888 1.386 . S
C1889 C1893 1.393 . S
C1890 H1882 0.950 . S
C1890 C1888 1.391 . S
C1890 C1891 1.400 . S
C1891 C1890 1.400 . S
C1891 C1892 1.398 . S
C1891 C1897 1.491 . S
C1892 H1883 0.950 . S
C1892 C1891 1.398 . S
C1892 C1893 1.391 . S
C1893 H1881 0.950 . S
C1893 C1889 1.393 . S
C1893 C1892 1.391 . S
C1894 H1884 0.950 . S
C1894 C1895 1.386 . S
C1894 C1896 1.391 . S
C1895 C1894 1.386 . S
C1895 C1899 1.393 . S
C1896 H1885 0.950 . S
C1896 C1894 1.391 . S
C1896 C1897 1.400 . S
C1897 C1891 1.491 . S
C1897 C1896 1.400 . S
C1897 C1898 1.398 . S
C1898 H1886 0.950 . S
C1898 C1897 1.398 . S
C1898 C1899 1.391 . S
C1899 H1887 0.950 . S
C1899 C1895 1.393 . S
C1899 C1898 1.391 . S
H1900 C1908 0.950 . S
H1901 C1913 0.950 . S
H1902 C1910 0.950 . S
H1903 C1912 0.950 . S
H1904 C1914 0.950 . S
H1905 C1916 0.950 . S
H1906 C1918 0.950 . S
H1907 C1919 0.950 . S
C1908 H1900 0.950 . S
C1908 C1909 1.386 . S
C1908 C1910 1.391 . S
C1909 C1908 1.386 . S
C1909 C1913 1.393 . S
C1910 H1902 0.950 . S
C1910 C1908 1.391 . S
C1910 C1911 1.400 . S
C1911 C1910 1.400 . S
C1911 C1912 1.398 . S
C1911 C1917 1.491 . S
C1912 H1903 0.950 . S
C1912 C1911 1.398 . S
C1912 C1913 1.391 . S
C1913 H1901 0.950 . S
C1913 C1909 1.393 . S
C1913 C1912 1.391 . S
C1914 H1904 0.950 . S
C1914 C1915 1.386 . S
C1914 C1916 1.391 . S
C1915 C1914 1.386 . S
C1915 C1919 1.393 . S
C1916 H1905 0.950 . S
C1916 C1914 1.391 . S
C1916 C1917 1.400 . S
C1917 C1911 1.491 . S
C1917 C1916 1.400 . S
C1917 C1918 1.398 . S
C1918 H1906 0.950 . S
C1918 C1917 1.398 . S
C1918 C1919 1.391 . S
C1919 H1907 0.950 . S
C1919 C1915 1.393 . S
C1919 C1918 1.391 . S
H1920 C1928 0.950 . S
H1921 C1933 0.950 . S
H1922 C1930 0.950 . S
H1923 C1932 0.950 . S
H1924 C1934 0.950 . S
H1925 C1936 0.950 . S
H1926 C1938 0.950 1_655 S
H1927 C1939 0.950 . S
C1928 H1920 0.950 . S
C1928 C1929 1.386 . S
C1928 C1930 1.391 . S
C1929 C1928 1.386 . S
C1929 C1933 1.393 1_655 S
C1930 H1922 0.950 . S
C1930 C1928 1.391 . S
C1930 C1931 1.400 1_655 S
C1931 C1930 1.400 1_455 S
C1931 C1932 1.398 . S
C1931 C1937 1.491 . S
C1932 H1923 0.950 . S
C1932 C1931 1.398 . S
C1932 C1933 1.391 . S
C1933 H1921 0.950 . S
C1933 C1929 1.393 1_455 S
C1933 C1932 1.391 . S
C1934 H1924 0.950 . S
C1934 C1935 1.386 . S
C1934 C1936 1.391 . S
C1935 C1934 1.386 . S
C1935 C1939 1.393 . S
C1936 H1925 0.950 . S
C1936 C1934 1.391 . S
C1936 C1937 1.400 . S
C1937 C1931 1.491 . S
C1937 C1936 1.400 . S
C1937 C1938 1.398 . S
C1938 H1926 0.950 1_455 S
C1938 C1937 1.398 . S
C1938 C1939 1.391 . S
C1939 H1927 0.950 . S
C1939 C1935 1.393 . S
C1939 C1938 1.391 . S
H1940 C1948 0.950 . S
H1941 C1953 0.950 . S
H1942 C1950 0.950 . S
H1943 C1952 0.950 . S
H1944 C1954 0.950 . S
H1945 C1956 0.950 . S
H1946 C1958 0.950 . S
H1947 C1959 0.950 . S
C1948 H1940 0.950 . S
C1948 C1949 1.386 . S
C1948 C1950 1.391 . S
C1949 C1948 1.386 . S
C1949 C1953 1.393 . S
C1950 H1942 0.950 . S
C1950 C1948 1.391 . S
C1950 C1951 1.400 . S
C1951 C1950 1.400 . S
C1951 C1952 1.398 . S
C1951 C1957 1.491 . S
C1952 H1943 0.950 . S
C1952 C1951 1.398 . S
C1952 C1953 1.391 . S
C1953 H1941 0.950 . S
C1953 C1949 1.393 . S
C1953 C1952 1.391 . S
C1954 H1944 0.950 . S
C1954 C1955 1.386 . S
C1954 C1956 1.391 . S
C1955 C1954 1.386 . S
C1955 C1959 1.393 . S
C1956 H1945 0.950 . S
C1956 C1954 1.391 . S
C1956 C1957 1.400 . S
C1957 C1951 1.491 . S
C1957 C1956 1.400 . S
C1957 C1958 1.398 . S
C1958 H1946 0.950 . S
C1958 C1957 1.398 . S
C1958 C1959 1.391 . S
C1959 H1947 0.950 . S
C1959 C1955 1.393 . S
C1959 C1958 1.391 . S
H1960 C1968 0.950 . S
H1961 C1973 0.950 . S
H1962 C1970 0.950 . S
H1963 C1972 0.950 . S
H1964 C1974 0.950 . S
H1965 C1976 0.950 . S
H1966 C1978 0.950 . S
H1967 C1979 0.950 . S
C1968 H1960 0.950 . S
C1968 C1969 1.386 . S
C1968 C1970 1.391 . S
C1969 C1968 1.386 . S
C1969 C1973 1.393 . S
C1970 H1962 0.950 . S
C1970 C1968 1.391 . S
C1970 C1971 1.400 . S
C1971 C1970 1.400 . S
C1971 C1972 1.398 . S
C1971 C1977 1.491 . S
C1972 H1963 0.950 . S
C1972 C1971 1.398 . S
C1972 C1973 1.391 . S
C1973 H1961 0.950 . S
C1973 C1969 1.393 . S
C1973 C1972 1.391 . S
C1974 H1964 0.950 . S
C1974 C1975 1.386 . S
C1974 C1976 1.391 . S
C1975 C1974 1.386 . S
C1975 C1979 1.393 . S
C1976 H1965 0.950 . S
C1976 C1974 1.391 . S
C1976 C1977 1.400 . S
C1977 C1971 1.491 . S
C1977 C1976 1.400 . S
C1977 C1978 1.398 . S
C1978 H1966 0.950 . S
C1978 C1977 1.398 . S
C1978 C1979 1.391 . S
C1979 H1967 0.950 . S
C1979 C1975 1.393 . S
C1979 C1978 1.391 . S
H1980 C1988 0.950 . S
H1981 C1993 0.950 . S
H1982 C1990 0.950 . S
H1983 C1992 0.950 . S
H1984 C1994 0.950 . S
H1985 C1996 0.950 . S
H1986 C1998 0.950 . S
H1987 C1999 0.950 . S
C1988 H1980 0.950 . S
C1988 C1989 1.386 . S
C1988 C1990 1.391 . S
C1989 C1988 1.386 . S
C1989 C1993 1.393 . S
C1990 H1982 0.950 . S
C1990 C1988 1.391 . S
C1990 C1991 1.400 . S
C1991 C1990 1.400 . S
C1991 C1992 1.398 . S
C1991 C1997 1.491 . S
C1992 H1983 0.950 . S
C1992 C1991 1.398 . S
C1992 C1993 1.391 . S
C1993 H1981 0.950 . S
C1993 C1989 1.393 . S
C1993 C1992 1.391 . S
C1994 H1984 0.950 . S
C1994 C1995 1.386 . S
C1994 C1996 1.391 . S
C1995 C1994 1.386 . S
C1995 C1999 1.393 . S
C1996 H1985 0.950 . S
C1996 C1994 1.391 . S
C1996 C1997 1.400 . S
C1997 C1991 1.491 . S
C1997 C1996 1.400 . S
C1997 C1998 1.398 . S
C1998 H1986 0.950 . S
C1998 C1997 1.398 . S
C1998 C1999 1.391 . S
C1999 H1987 0.950 . S
C1999 C1995 1.393 . S
C1999 C1998 1.391 . S
H2000 C2008 0.950 . S
H2001 C2013 0.950 1_556 S
H2002 C2010 0.950 . S
H2003 C2012 0.950 1_545 S
H2004 C2014 0.950 . S
H2005 C2016 0.950 . S
H2006 C2018 0.950 . S
H2007 C2019 0.950 . S
C2008 H2000 0.950 . S
C2008 C2009 1.386 . S
C2008 C2010 1.391 . S
C2009 C2008 1.386 . S
C2009 C2013 1.393 . S
C2010 H2002 0.950 . S
C2010 C2008 1.391 . S
C2010 C2011 1.400 . S
C2011 C2010 1.400 . S
C2011 C2012 1.398 . S
C2011 C2017 1.491 . S
C2012 H2003 0.950 1_565 S
C2012 C2011 1.398 . S
C2012 C2013 1.391 . S
C2013 H2001 0.950 1_554 S
C2013 C2009 1.393 . S
C2013 C2012 1.391 . S
C2014 H2004 0.950 . S
C2014 C2015 1.386 . S
C2014 C2016 1.391 . S
C2015 C2014 1.386 . S
C2015 C2019 1.393 1_545 S
C2016 H2005 0.950 . S
C2016 C2014 1.391 . S
C2016 C2017 1.400 1_545 S
C2017 C2011 1.491 . S
C2017 C2016 1.400 1_565 S
C2017 C2018 1.398 . S
C2018 H2006 0.950 . S
C2018 C2017 1.398 . S
C2018 C2019 1.391 . S
C2019 H2007 0.950 . S
C2019 C2015 1.393 1_565 S
C2019 C2018 1.391 . S
H2020 C2028 0.950 . S
H2021 C2033 0.950 . S
H2022 C2030 0.950 . S
H2023 C2032 0.950 . S
H2024 C2034 0.950 . S
H2025 C2036 0.950 . S
H2026 C2038 0.950 . S
H2027 C2039 0.950 . S
C2028 H2020 0.950 . S
C2028 C2029 1.386 . S
C2028 C2030 1.391 . S
C2029 C2028 1.386 . S
C2029 C2033 1.393 1_554 S
C2030 H2022 0.950 . S
C2030 C2028 1.391 . S
C2030 C2031 1.400 . S
C2031 C2030 1.400 . S
C2031 C2032 1.398 1_554 S
C2031 C2037 1.491 . S
C2032 H2023 0.950 . S
C2032 C2031 1.398 1_556 S
C2032 C2033 1.391 . S
C2033 H2021 0.950 . S
C2033 C2029 1.393 1_556 S
C2033 C2032 1.391 . S
C2034 H2024 0.950 . S
C2034 C2035 1.386 1_556 S
C2034 C2036 1.391 . S
C2035 C2034 1.386 1_554 S
C2035 C2039 1.393 . S
C2036 H2025 0.950 . S
C2036 C2034 1.391 . S
C2036 C2037 1.400 1_556 S
C2037 C2031 1.491 . S
C2037 C2036 1.400 1_554 S
C2037 C2038 1.398 . S
C2038 H2026 0.950 . S
C2038 C2037 1.398 . S
C2038 C2039 1.391 . S
C2039 H2027 0.950 . S
C2039 C2035 1.393 . S
C2039 C2038 1.391 . S
H2040 C2048 0.950 . S
H2041 C2053 0.950 . S
H2042 C2050 0.950 . S
H2043 C2052 0.950 . S
H2044 C2054 0.950 . S
H2045 C2056 0.950 . S
H2046 C2058 0.950 . S
H2047 C2059 0.950 . S
C2048 H2040 0.950 . S
C2048 C2049 1.386 . S
C2048 C2050 1.391 . S
C2049 C2048 1.386 . S
C2049 C2053 1.393 . S
C2050 H2042 0.950 . S
C2050 C2048 1.391 . S
C2050 C2051 1.400 . S
C2051 C2050 1.400 . S
C2051 C2052 1.398 . S
C2051 C2057 1.491 . S
C2052 H2043 0.950 . S
C2052 C2051 1.398 . S
C2052 C2053 1.391 . S
C2053 H2041 0.950 . S
C2053 C2049 1.393 . S
C2053 C2052 1.391 . S
C2054 H2044 0.950 . S
C2054 C2055 1.386 . S
C2054 C2056 1.391 . S
C2055 C2054 1.386 . S
C2055 C2059 1.393 . S
C2056 H2045 0.950 . S
C2056 C2054 1.391 . S
C2056 C2057 1.400 . S
C2057 C2051 1.491 . S
C2057 C2056 1.400 . S
C2057 C2058 1.398 . S
C2058 H2046 0.950 . S
C2058 C2057 1.398 . S
C2058 C2059 1.391 . S
C2059 H2047 0.950 . S
C2059 C2055 1.393 . S
C2059 C2058 1.391 . S
H2060 C2068 0.950 . S
H2061 C2073 0.950 . S
H2062 C2070 0.950 . S
H2063 C2072 0.950 . S
H2064 C2074 0.950 . S
H2065 C2076 0.950 . S
H2066 C2078 0.950 . S
H2067 C2079 0.950 . S
C2068 H2060 0.950 . S
C2068 C2069 1.386 . S
C2068 C2070 1.391 . S
C2069 C2068 1.386 . S
C2069 C2073 1.393 . S
C2070 H2062 0.950 . S
C2070 C2068 1.391 . S
C2070 C2071 1.400 . S
C2071 C2070 1.400 . S
C2071 C2072 1.398 . S
C2071 C2077 1.491 . S
C2072 H2063 0.950 . S
C2072 C2071 1.398 . S
C2072 C2073 1.391 . S
C2073 H2061 0.950 . S
C2073 C2069 1.393 . S
C2073 C2072 1.391 . S
C2074 H2064 0.950 . S
C2074 C2075 1.386 1_655 S
C2074 C2076 1.391 . S
C2075 C2074 1.386 1_455 S
C2075 C2079 1.393 . S
C2076 H2065 0.950 . S
C2076 C2074 1.391 . S
C2076 C2077 1.400 . S
C2077 C2071 1.491 . S
C2077 C2076 1.400 . S
C2077 C2078 1.398 . S
C2078 H2066 0.950 . S
C2078 C2077 1.398 . S
C2078 C2079 1.391 1_655 S
C2079 H2067 0.950 . S
C2079 C2075 1.393 . S
C2079 C2078 1.391 1_455 S
H2080 C2088 0.950 . S
H2081 C2093 0.950 . S
H2082 C2090 0.950 . S
H2083 C2092 0.950 . S
H2084 C2094 0.950 . S
H2085 C2096 0.950 . S
H2086 C2098 0.950 . S
H2087 C2099 0.950 . S
C2088 H2080 0.950 . S
C2088 C2089 1.386 . S
C2088 C2090 1.391 . S
C2089 C2088 1.386 . S
C2089 C2093 1.393 . S
C2090 H2082 0.950 . S
C2090 C2088 1.391 . S
C2090 C2091 1.400 . S
C2091 C2090 1.400 . S
C2091 C2092 1.398 . S
C2091 C2097 1.491 . S
C2092 H2083 0.950 . S
C2092 C2091 1.398 . S
C2092 C2093 1.391 . S
C2093 H2081 0.950 . S
C2093 C2089 1.393 . S
C2093 C2092 1.391 . S
C2094 H2084 0.950 . S
C2094 C2095 1.386 . S
C2094 C2096 1.391 . S
C2095 C2094 1.386 . S
C2095 C2099 1.393 . S
C2096 H2085 0.950 . S
C2096 C2094 1.391 . S
C2096 C2097 1.400 . S
C2097 C2091 1.491 . S
C2097 C2096 1.400 . S
C2097 C2098 1.398 . S
C2098 H2086 0.950 . S
C2098 C2097 1.398 . S
C2098 C2099 1.391 . S
C2099 H2087 0.950 . S
C2099 C2095 1.393 . S
C2099 C2098 1.391 . S
H2100 C2108 0.950 . S
H2101 C2113 0.950 . S
H2102 C2110 0.950 . S
H2103 C2112 0.950 . S
H2104 C2114 0.950 . S
H2105 C2116 0.950 . S
H2106 C2118 0.950 . S
H2107 C2119 0.950 . S
C2108 H2100 0.950 . S
C2108 C2109 1.386 . S
C2108 C2110 1.391 . S
C2109 C2108 1.386 . S
C2109 C2113 1.393 . S
C2110 H2102 0.950 . S
C2110 C2108 1.391 . S
C2110 C2111 1.400 . S
C2111 C2110 1.400 . S
C2111 C2112 1.398 . S
C2111 C2117 1.491 . S
C2112 H2103 0.950 . S
C2112 C2111 1.398 . S
C2112 C2113 1.391 . S
C2113 H2101 0.950 . S
C2113 C2109 1.393 . S
C2113 C2112 1.391 . S
C2114 H2104 0.950 . S
C2114 C2115 1.386 . S
C2114 C2116 1.391 . S
C2115 C2114 1.386 . S
C2115 C2119 1.393 . S
C2116 H2105 0.950 . S
C2116 C2114 1.391 . S
C2116 C2117 1.400 . S
C2117 C2111 1.491 . S
C2117 C2116 1.400 . S
C2117 C2118 1.398 . S
C2118 H2106 0.950 . S
C2118 C2117 1.398 . S
C2118 C2119 1.391 . S
C2119 H2107 0.950 . S
C2119 C2115 1.393 . S
C2119 C2118 1.391 . S
H2120 C2128 0.950 . S
H2121 C2133 0.950 . S
H2122 C2130 0.950 . S
H2123 C2132 0.950 . S
H2124 C2134 0.950 . S
H2125 C2136 0.950 . S
H2126 C2138 0.950 . S
H2127 C2139 0.950 . S
C2128 H2120 0.950 . S
C2128 C2129 1.386 . S
C2128 C2130 1.391 . S
C2129 C2128 1.386 . S
C2129 C2133 1.393 . S
C2130 H2122 0.950 . S
C2130 C2128 1.391 . S
C2130 C2131 1.400 . S
C2131 C2130 1.400 . S
C2131 C2132 1.398 . S
C2131 C2137 1.491 . S
C2132 H2123 0.950 . S
C2132 C2131 1.398 . S
C2132 C2133 1.391 . S
C2133 H2121 0.950 . S
C2133 C2129 1.393 . S
C2133 C2132 1.391 . S
C2134 H2124 0.950 . S
C2134 C2135 1.386 . S
C2134 C2136 1.391 . S
C2135 C2134 1.386 . S
C2135 C2139 1.393 . S
C2136 H2125 0.950 . S
C2136 C2134 1.391 . S
C2136 C2137 1.400 . S
C2137 C2131 1.491 . S
C2137 C2136 1.400 . S
C2137 C2138 1.398 . S
C2138 H2126 0.950 . S
C2138 C2137 1.398 . S
C2138 C2139 1.391 . S
C2139 H2127 0.950 . S
C2139 C2135 1.393 . S
C2139 C2138 1.391 . S
H2140 C2148 0.950 . S
H2141 C2153 0.950 . S
H2142 C2150 0.950 . S
H2143 C2152 0.950 . S
H2144 C2154 0.950 . S
H2145 C2156 0.950 . S
H2146 C2158 0.950 . S
H2147 C2159 0.950 . S
C2148 H2140 0.950 . S
C2148 C2149 1.386 . S
C2148 C2150 1.391 . S
C2149 C2148 1.386 . S
C2149 C2153 1.393 . S
C2150 H2142 0.950 . S
C2150 C2148 1.391 . S
C2150 C2151 1.400 . S
C2151 C2150 1.400 . S
C2151 C2152 1.398 . S
C2151 C2157 1.491 . S
C2152 H2143 0.950 . S
C2152 C2151 1.398 . S
C2152 C2153 1.391 . S
C2153 H2141 0.950 . S
C2153 C2149 1.393 . S
C2153 C2152 1.391 . S
C2154 H2144 0.950 . S
C2154 C2155 1.386 . S
C2154 C2156 1.391 . S
C2155 C2154 1.386 . S
C2155 C2159 1.393 . S
C2156 H2145 0.950 . S
C2156 C2154 1.391 . S
C2156 C2157 1.400 . S
C2157 C2151 1.491 . S
C2157 C2156 1.400 . S
C2157 C2158 1.398 . S
C2158 H2146 0.950 . S
C2158 C2157 1.398 . S
C2158 C2159 1.391 . S
C2159 H2147 0.950 . S
C2159 C2155 1.393 . S
C2159 C2158 1.391 . S
H2160 C2168 0.950 . S
H2161 C2173 0.950 . S
H2162 C2170 0.950 . S
H2163 C2172 0.950 . S
H2164 C2174 0.950 . S
H2165 C2176 0.950 . S
H2166 C2178 0.950 . S
H2167 C2179 0.950 . S
C2168 H2160 0.950 . S
C2168 C2169 1.386 . S
C2168 C2170 1.391 . S
C2169 C2168 1.386 . S
C2169 C2173 1.393 . S
C2170 H2162 0.950 . S
C2170 C2168 1.391 . S
C2170 C2171 1.400 . S
C2171 C2170 1.400 . S
C2171 C2172 1.398 . S
C2171 C2177 1.491 . S
C2172 H2163 0.950 . S
C2172 C2171 1.398 . S
C2172 C2173 1.391 . S
C2173 H2161 0.950 . S
C2173 C2169 1.393 . S
C2173 C2172 1.391 . S
C2174 H2164 0.950 . S
C2174 C2175 1.386 . S
C2174 C2176 1.391 . S
C2175 C2174 1.386 . S
C2175 C2179 1.393 . S
C2176 H2165 0.950 . S
C2176 C2174 1.391 . S
C2176 C2177 1.400 . S
C2177 C2171 1.491 . S
C2177 C2176 1.400 . S
C2177 C2178 1.398 . S
C2178 H2166 0.950 . S
C2178 C2177 1.398 . S
C2178 C2179 1.391 . S
C2179 H2167 0.950 . S
C2179 C2175 1.393 . S
C2179 C2178 1.391 . S
H2180 C2188 0.950 . S
H2181 C2193 0.950 . S
H2182 C2190 0.950 . S
H2183 C2192 0.950 . S
H2184 C2194 0.950 . S
H2185 C2196 0.950 . S
H2186 C2198 0.950 . S
H2187 C2199 0.950 . S
C2188 H2180 0.950 . S
C2188 C2189 1.386 . S
C2188 C2190 1.391 . S
C2189 C2188 1.386 . S
C2189 C2193 1.393 . S
C2190 H2182 0.950 . S
C2190 C2188 1.391 . S
C2190 C2191 1.400 . S
C2191 C2190 1.400 . S
C2191 C2192 1.398 . S
C2191 C2197 1.491 . S
C2192 H2183 0.950 . S
C2192 C2191 1.398 . S
C2192 C2193 1.391 . S
C2193 H2181 0.950 . S
C2193 C2189 1.393 . S
C2193 C2192 1.391 . S
C2194 H2184 0.950 . S
C2194 C2195 1.386 . S
C2194 C2196 1.391 . S
C2195 C2194 1.386 . S
C2195 C2199 1.393 . S
C2196 H2185 0.950 . S
C2196 C2194 1.391 . S
C2196 C2197 1.400 . S
C2197 C2191 1.491 . S
C2197 C2196 1.400 . S
C2197 C2198 1.398 . S
C2198 H2186 0.950 . S
C2198 C2197 1.398 . S
C2198 C2199 1.391 . S
C2199 H2187 0.950 . S
C2199 C2195 1.393 . S
C2199 C2198 1.391 . S
H2200 C2208 0.950 . S
H2201 C2213 0.950 . S
H2202 C2210 0.950 . S
H2203 C2212 0.950 . S
H2204 C2214 0.950 . S
H2205 C2216 0.950 . S
H2206 C2218 0.950 . S
H2207 C2219 0.950 . S
C2208 H2200 0.950 . S
C2208 C2209 1.386 . S
C2208 C2210 1.391 . S
C2209 C2208 1.386 . S
C2209 C2213 1.393 . S
C2210 H2202 0.950 . S
C2210 C2208 1.391 . S
C2210 C2211 1.400 . S
C2211 C2210 1.400 . S
C2211 C2212 1.398 . S
C2211 C2217 1.491 . S
C2212 H2203 0.950 . S
C2212 C2211 1.398 . S
C2212 C2213 1.391 . S
C2213 H2201 0.950 . S
C2213 C2209 1.393 . S
C2213 C2212 1.391 . S
C2214 H2204 0.950 . S
C2214 C2215 1.386 . S
C2214 C2216 1.391 . S
C2215 C2214 1.386 . S
C2215 C2219 1.393 . S
C2216 H2205 0.950 . S
C2216 C2214 1.391 . S
C2216 C2217 1.400 . S
C2217 C2211 1.491 . S
C2217 C2216 1.400 . S
C2217 C2218 1.398 . S
C2218 H2206 0.950 . S
C2218 C2217 1.398 . S
C2218 C2219 1.391 . S
C2219 H2207 0.950 . S
C2219 C2215 1.393 . S
C2219 C2218 1.391 . S
H2220 C2228 0.950 . S
H2221 C2233 0.950 . S
H2222 C2230 0.950 . S
H2223 C2232 0.950 . S
H2224 C2234 0.950 . S
H2225 C2236 0.950 . S
H2226 C2238 0.950 . S
H2227 C2239 0.950 . S
C2228 H2220 0.950 . S
C2228 C2229 1.386 . S
C2228 C2230 1.391 . S
C2229 C2228 1.386 . S
C2229 C2233 1.393 . S
C2230 H2222 0.950 . S
C2230 C2228 1.391 . S
C2230 C2231 1.400 . S
C2231 C2230 1.400 . S
C2231 C2232 1.398 . S
C2231 C2237 1.491 . S
C2232 H2223 0.950 . S
C2232 C2231 1.398 . S
C2232 C2233 1.391 . S
C2233 H2221 0.950 . S
C2233 C2229 1.393 . S
C2233 C2232 1.391 . S
C2234 H2224 0.950 . S
C2234 C2235 1.386 . S
C2234 C2236 1.391 . S
C2235 C2234 1.386 . S
C2235 C2239 1.393 . S
C2236 H2225 0.950 . S
C2236 C2234 1.391 . S
C2236 C2237 1.400 . S
C2237 C2231 1.491 . S
C2237 C2236 1.400 . S
C2237 C2238 1.398 . S
C2238 H2226 0.950 . S
C2238 C2237 1.398 . S
C2238 C2239 1.391 . S
C2239 H2227 0.950 . S
C2239 C2235 1.393 . S
C2239 C2238 1.391 . S
H2240 C2248 0.950 . S
H2241 C2253 0.950 . S
H2242 C2250 0.950 . S
H2243 C2252 0.950 . S
H2244 C2254 0.950 . S
H2245 C2256 0.950 . S
H2246 C2258 0.950 . S
H2247 C2259 0.950 . S
C2248 H2240 0.950 . S
C2248 C2249 1.386 . S
C2248 C2250 1.391 . S
C2249 C2248 1.386 . S
C2249 C2253 1.393 . S
C2250 H2242 0.950 . S
C2250 C2248 1.391 . S
C2250 C2251 1.400 . S
C2251 C2250 1.400 . S
C2251 C2252 1.398 . S
C2251 C2257 1.491 . S
C2252 H2243 0.950 . S
C2252 C2251 1.398 . S
C2252 C2253 1.391 . S
C2253 H2241 0.950 . S
C2253 C2249 1.393 . S
C2253 C2252 1.391 . S
C2254 H2244 0.950 . S
C2254 C2255 1.386 . S
C2254 C2256 1.391 . S
C2255 C2254 1.386 . S
C2255 C2259 1.393 . S
C2256 H2245 0.950 . S
C2256 C2254 1.391 . S
C2256 C2257 1.400 . S
C2257 C2251 1.491 . S
C2257 C2256 1.400 . S
C2257 C2258 1.398 . S
C2258 H2246 0.950 . S
C2258 C2257 1.398 . S
C2258 C2259 1.391 . S
C2259 H2247 0.950 . S
C2259 C2255 1.393 . S
C2259 C2258 1.391 . S
H2260 C2268 0.950 . S
H2261 C2273 0.950 . S
H2262 C2270 0.950 . S
H2263 C2272 0.950 . S
H2264 C2274 0.950 . S
H2265 C2276 0.950 . S
H2266 C2278 0.950 . S
H2267 C2279 0.950 . S
C2268 H2260 0.950 . S
C2268 C2269 1.386 . S
C2268 C2270 1.391 . S
C2269 C2268 1.386 . S
C2269 C2273 1.393 . S
C2270 H2262 0.950 . S
C2270 C2268 1.391 . S
C2270 C2271 1.400 . S
C2271 C2270 1.400 . S
C2271 C2272 1.398 . S
C2271 C2277 1.491 . S
C2272 H2263 0.950 . S
C2272 C2271 1.398 . S
C2272 C2273 1.391 . S
C2273 H2261 0.950 . S
C2273 C2269 1.393 . S
C2273 C2272 1.391 . S
C2274 H2264 0.950 . S
C2274 C2275 1.386 . S
C2274 C2276 1.391 . S
C2275 C2274 1.386 . S
C2275 C2279 1.393 . S
C2276 H2265 0.950 . S
C2276 C2274 1.391 . S
C2276 C2277 1.400 . S
C2277 C2271 1.491 . S
C2277 C2276 1.400 . S
C2277 C2278 1.398 . S
C2278 H2266 0.950 . S
C2278 C2277 1.398 . S
C2278 C2279 1.391 . S
C2279 H2267 0.950 . S
C2279 C2275 1.393 . S
C2279 C2278 1.391 . S
H2280 C2288 0.950 . S
H2281 C2293 0.950 . S
H2282 C2290 0.950 . S
H2283 C2292 0.950 . S
H2284 C2294 0.950 . S
H2285 C2296 0.950 . S
H2286 C2298 0.950 . S
H2287 C2299 0.950 1_545 S
C2288 H2280 0.950 . S
C2288 C2289 1.386 . S
C2288 C2290 1.391 . S
C2289 C2288 1.386 . S
C2289 C2293 1.393 . S
C2290 H2282 0.950 . S
C2290 C2288 1.391 . S
C2290 C2291 1.400 . S
C2291 C2290 1.400 . S
C2291 C2292 1.398 . S
C2291 C2297 1.491 . S
C2292 H2283 0.950 . S
C2292 C2291 1.398 . S
C2292 C2293 1.391 . S
C2293 H2281 0.950 . S
C2293 C2289 1.393 . S
C2293 C2292 1.391 . S
C2294 H2284 0.950 . S
C2294 C2295 1.386 . S
C2294 C2296 1.391 . S
C2295 C2294 1.386 . S
C2295 C2299 1.393 . S
C2296 H2285 0.950 . S
C2296 C2294 1.391 . S
C2296 C2297 1.400 . S
C2297 C2291 1.491 . S
C2297 C2296 1.400 . S
C2297 C2298 1.398 . S
C2298 H2286 0.950 . S
C2298 C2297 1.398 . S
C2298 C2299 1.391 . S
C2299 H2287 0.950 1_565 S
C2299 C2295 1.393 . S
C2299 C2298 1.391 . S
H2300 C2308 0.950 . S
H2301 C2313 0.950 . S
H2302 C2310 0.950 . S
H2303 C2312 0.950 . S
H2304 C2314 0.950 . S
H2305 C2316 0.950 . S
H2306 C2318 0.950 . S
H2307 C2319 0.950 . S
C2308 H2300 0.950 . S
C2308 C2309 1.386 . S
C2308 C2310 1.391 . S
C2309 C2308 1.386 . S
C2309 C2313 1.393 . S
C2310 H2302 0.950 . S
C2310 C2308 1.391 . S
C2310 C2311 1.400 . S
C2311 C2310 1.400 . S
C2311 C2312 1.398 . S
C2311 C2317 1.491 . S
C2312 H2303 0.950 . S
C2312 C2311 1.398 . S
C2312 C2313 1.391 . S
C2313 H2301 0.950 . S
C2313 C2309 1.393 . S
C2313 C2312 1.391 . S
C2314 H2304 0.950 . S
C2314 C2315 1.386 . S
C2314 C2316 1.391 . S
C2315 C2314 1.386 . S
C2315 C2319 1.393 . S
C2316 H2305 0.950 . S
C2316 C2314 1.391 . S
C2316 C2317 1.400 . S
C2317 C2311 1.491 . S
C2317 C2316 1.400 . S
C2317 C2318 1.398 . S
C2318 H2306 0.950 . S
C2318 C2317 1.398 . S
C2318 C2319 1.391 . S
C2319 H2307 0.950 . S
C2319 C2315 1.393 . S
C2319 C2318 1.391 . S
H2320 C2328 0.950 . S
H2321 C2333 0.950 . S
H2322 C2330 0.950 . S
H2323 C2332 0.950 . S
H2324 C2334 0.950 1_565 S
H2325 C2336 0.958 . S
H2326 C2338 0.950 . S
H2327 C2339 0.950 . S
C2328 H2320 0.950 . S
C2328 C2329 1.386 . S
C2328 C2330 1.391 . S
C2329 C2328 1.386 . S
C2329 C2333 1.393 1_545 S
C2330 H2322 0.950 . S
C2330 C2328 1.391 . S
C2330 C2331 1.400 . S
C2331 C2330 1.400 . S
C2331 C2332 1.398 1_545 S
C2331 C2337 1.491 . S
C2332 H2323 0.950 . S
C2332 C2331 1.398 1_565 S
C2332 C2333 1.391 . S
C2333 H2321 0.950 . S
C2333 C2329 1.393 1_565 S
C2333 C2332 1.391 . S
C2334 H2324 0.950 1_545 S
C2334 C2335 1.386 . S
C2334 C2336 1.391 1_545 S
C2335 C2334 1.386 . S
C2335 C2339 1.393 . S
C2336 H2325 0.958 . S
C2336 C2334 1.391 1_565 S
C2336 C2337 1.392 1_565 S
C2337 C2331 1.491 . S
C2337 C2336 1.392 1_545 S
C2337 C2338 1.398 . S
C2338 H2326 0.950 . S
C2338 C2337 1.398 . S
C2338 C2339 1.391 . S
C2339 H2327 0.950 . S
C2339 C2335 1.393 . S
C2339 C2338 1.391 . S
H2340 C2348 0.950 . S
H2341 C2353 0.950 . S
H2342 C2350 0.950 . S
H2343 C2352 0.950 . S
H2344 C2354 0.950 . S
H2345 C2356 0.950 . S
H2346 C2358 0.950 . S
H2347 C2359 0.950 . S
C2348 H2340 0.950 . S
C2348 C2349 1.386 . S
C2348 C2350 1.391 . S
C2349 C2348 1.386 . S
C2349 C2353 1.393 . S
C2350 H2342 0.950 . S
C2350 C2348 1.391 . S
C2350 C2351 1.400 . S
C2351 C2350 1.400 . S
C2351 C2352 1.398 . S
C2351 C2357 1.491 . S
C2352 H2343 0.950 . S
C2352 C2351 1.398 . S
C2352 C2353 1.391 . S
C2353 H2341 0.950 . S
C2353 C2349 1.393 . S
C2353 C2352 1.391 . S
C2354 H2344 0.950 . S
C2354 C2355 1.386 . S
C2354 C2356 1.391 . S
C2355 C2354 1.386 . S
C2355 C2359 1.393 . S
C2356 H2345 0.950 . S
C2356 C2354 1.391 . S
C2356 C2357 1.400 . S
C2357 C2351 1.491 . S
C2357 C2356 1.400 . S
C2357 C2358 1.398 . S
C2358 H2346 0.950 . S
C2358 C2357 1.398 . S
C2358 C2359 1.391 . S
C2359 H2347 0.950 . S
C2359 C2355 1.393 . S
C2359 C2358 1.391 . S
H2360 C2368 0.950 . S
H2361 C2373 0.950 1_565 S
H2362 C2370 0.950 . S
H2363 C2372 0.950 . S
H2364 C2374 0.950 . S
H2365 C2376 0.950 . S
H2366 C2378 0.950 . S
H2367 C2379 0.950 . S
C2368 H2360 0.950 . S
C2368 C2369 1.386 . S
C2368 C2370 1.391 . S
C2369 C2368 1.386 . S
C2369 C2373 1.393 . S
C2370 H2362 0.950 . S
C2370 C2368 1.391 . S
C2370 C2371 1.400 . S
C2371 C2370 1.400 . S
C2371 C2372 1.398 . S
C2371 C2377 1.491 . S
C2372 H2363 0.950 . S
C2372 C2371 1.398 . S
C2372 C2373 1.391 . S
C2373 H2361 0.950 1_545 S
C2373 C2369 1.393 . S
C2373 C2372 1.391 . S
C2374 H2364 0.950 . S
C2374 C2375 1.386 . S
C2374 C2376 1.391 . S
C2375 C2374 1.386 . S
C2375 C2379 1.393 . S
C2376 H2365 0.950 . S
C2376 C2374 1.391 . S
C2376 C2377 1.400 . S
C2377 C2371 1.491 . S
C2377 C2376 1.400 . S
C2377 C2378 1.398 . S
C2378 H2366 0.950 . S
C2378 C2377 1.398 . S
C2378 C2379 1.391 . S
C2379 H2367 0.950 . S
C2379 C2375 1.393 . S
C2379 C2378 1.391 . S
H2380 C2388 0.950 . S
H2381 C2393 0.950 . S
H2382 C2390 0.950 . S
H2383 C2392 0.950 . S
H2384 C2394 0.950 . S
H2385 C2396 0.950 . S
H2386 C2398 0.950 . S
H2387 C2399 0.950 . S
C2388 H2380 0.950 . S
C2388 C2389 1.386 . S
C2388 C2390 1.391 . S
C2389 C2388 1.386 . S
C2389 C2393 1.393 . S
C2390 H2382 0.950 . S
C2390 C2388 1.391 . S
C2390 C2391 1.400 . S
C2391 C2390 1.400 . S
C2391 C2392 1.398 . S
C2391 C2397 1.491 . S
C2392 H2383 0.950 . S
C2392 C2391 1.398 . S
C2392 C2393 1.391 . S
C2393 H2381 0.950 . S
C2393 C2389 1.393 . S
C2393 C2392 1.391 . S
C2394 H2384 0.950 . S
C2394 C2395 1.386 . S
C2394 C2396 1.391 . S
C2395 C2394 1.386 . S
C2395 C2399 1.393 . S
C2396 H2385 0.950 . S
C2396 C2394 1.391 . S
C2396 C2397 1.400 . S
C2397 C2391 1.491 . S
C2397 C2396 1.400 . S
C2397 C2398 1.398 . S
C2398 H2386 0.950 . S
C2398 C2397 1.398 . S
C2398 C2399 1.391 . S
C2399 H2387 0.950 . S
C2399 C2395 1.393 . S
C2399 C2398 1.391 . S
H2400 C2408 0.950 . S
H2401 C2413 0.949 . S
H2402 C2410 0.950 . S
H2403 C2412 0.950 . S
H2404 C2414 0.950 . S
H2405 C2416 0.950 . S
H2406 C2418 0.950 . S
H2407 C2419 0.950 . S
C2408 H2400 0.950 . S
C2408 C2409 1.386 . S
C2408 C2410 1.391 . S
C2409 C2408 1.386 . S
C2409 C2413 1.393 . S
C2410 H2402 0.950 . S
C2410 C2408 1.391 . S
C2410 C2411 1.400 . S
C2411 C2410 1.400 . S
C2411 C2412 1.398 . S
C2411 C2417 1.491 . S
C2412 H2403 0.950 . S
C2412 C2411 1.398 . S
C2412 C2413 1.391 . S
C2413 H2401 0.949 . S
C2413 C2409 1.393 . S
C2413 C2412 1.391 . S
C2414 H2404 0.950 . S
C2414 C2415 1.386 . S
C2414 C2416 1.391 . S
C2415 C2414 1.386 . S
C2415 C2419 1.393 . S
C2416 H2405 0.950 . S
C2416 C2414 1.391 . S
C2416 C2417 1.400 . S
C2417 C2411 1.491 . S
C2417 C2416 1.400 . S
C2417 C2418 1.398 . S
C2418 H2406 0.950 . S
C2418 C2417 1.398 . S
C2418 C2419 1.391 . S
C2419 H2407 0.950 . S
C2419 C2415 1.393 . S
C2419 C2418 1.391 . S
H2420 C2428 0.950 . S
H2421 C2433 0.950 . S
H2422 C2430 0.950 . S
H2423 C2432 0.950 . S
H2424 C2434 0.950 . S
H2425 C2436 0.950 . S
H2426 C2438 0.950 . S
H2427 C2439 0.950 . S
C2428 H2420 0.950 . S
C2428 C2429 1.386 . S
C2428 C2430 1.391 . S
C2429 C2428 1.386 . S
C2429 C2433 1.393 . S
C2430 H2422 0.950 . S
C2430 C2428 1.391 . S
C2430 C2431 1.400 . S
C2431 C2430 1.400 . S
C2431 C2432 1.398 . S
C2431 C2437 1.491 . S
C2432 H2423 0.950 . S
C2432 C2431 1.398 . S
C2432 C2433 1.391 . S
C2433 H2421 0.950 . S
C2433 C2429 1.393 . S
C2433 C2432 1.391 . S
C2434 H2424 0.950 . S
C2434 C2435 1.386 . S
C2434 C2436 1.391 . S
C2435 C2434 1.386 . S
C2435 C2439 1.393 . S
C2436 H2425 0.950 . S
C2436 C2434 1.391 . S
C2436 C2437 1.400 . S
C2437 C2431 1.491 . S
C2437 C2436 1.400 . S
C2437 C2438 1.398 . S
C2438 H2426 0.950 . S
C2438 C2437 1.398 . S
C2438 C2439 1.391 . S
C2439 H2427 0.950 . S
C2439 C2435 1.393 . S
C2439 C2438 1.391 . S
H2440 C2448 0.950 . S
H2441 C2453 0.950 . S
H2442 C2450 0.950 . S
H2443 C2452 0.950 . S
H2444 C2454 0.950 . S
H2445 C2456 0.950 . S
H2446 C2458 0.950 . S
H2447 C2459 0.950 . S
C2448 H2440 0.950 . S
C2448 C2449 1.386 . S
C2448 C2450 1.391 . S
C2449 C2448 1.386 . S
C2449 C2453 1.393 . S
C2450 H2442 0.950 . S
C2450 C2448 1.391 . S
C2450 C2451 1.400 . S
C2451 C2450 1.400 . S
C2451 C2452 1.398 . S
C2451 C2457 1.491 . S
C2452 H2443 0.950 . S
C2452 C2451 1.398 . S
C2452 C2453 1.391 . S
C2453 H2441 0.950 . S
C2453 C2449 1.393 . S
C2453 C2452 1.391 . S
C2454 H2444 0.950 . S
C2454 C2455 1.386 . S
C2454 C2456 1.391 . S
C2455 C2454 1.386 . S
C2455 C2459 1.393 . S
C2456 H2445 0.950 . S
C2456 C2454 1.391 . S
C2456 C2457 1.400 . S
C2457 C2451 1.491 . S
C2457 C2456 1.400 . S
C2457 C2458 1.398 . S
C2458 H2446 0.950 . S
C2458 C2457 1.398 . S
C2458 C2459 1.391 . S
C2459 H2447 0.950 . S
C2459 C2455 1.393 . S
C2459 C2458 1.391 . S
H2460 C2468 0.950 . S
H2461 C2473 0.950 . S
H2462 C2470 0.950 . S
H2463 C2472 0.950 . S
H2464 C2474 0.950 . S
H2465 C2476 0.950 . S
H2466 C2478 0.950 . S
H2467 C2479 0.950 . S
C2468 H2460 0.950 . S
C2468 C2469 1.386 . S
C2468 C2470 1.391 . S
C2469 C2468 1.386 . S
C2469 C2473 1.393 . S
C2470 H2462 0.950 . S
C2470 C2468 1.391 . S
C2470 C2471 1.400 . S
C2471 C2470 1.400 . S
C2471 C2472 1.398 . S
C2471 C2477 1.491 . S
C2472 H2463 0.950 . S
C2472 C2471 1.398 . S
C2472 C2473 1.391 . S
C2473 H2461 0.950 . S
C2473 C2469 1.393 . S
C2473 C2472 1.391 . S
C2474 H2464 0.950 . S
C2474 C2475 1.386 . S
C2474 C2476 1.391 . S
C2475 C2474 1.386 . S
C2475 C2479 1.393 . S
C2476 H2465 0.950 . S
C2476 C2474 1.391 . S
C2476 C2477 1.400 . S
C2477 C2471 1.491 . S
C2477 C2476 1.400 . S
C2477 C2478 1.398 . S
C2478 H2466 0.950 . S
C2478 C2477 1.398 . S
C2478 C2479 1.391 . S
C2479 H2467 0.950 . S
C2479 C2475 1.393 . S
C2479 C2478 1.391 . S
H2480 C2488 0.950 . S
H2481 C2493 0.950 . S
H2482 C2490 0.950 1_556 S
H2483 C2492 0.950 . S
H2484 C2494 0.950 . S
H2485 C2496 0.950 . S
H2486 C2498 0.950 1_556 S
H2487 C2499 0.947 . S
C2488 H2480 0.950 . S
C2488 C2489 1.386 . S
C2488 C2490 1.391 . S
C2489 C2488 1.386 . S
C2489 C2493 1.393 . S
C2490 H2482 0.950 1_554 S
C2490 C2488 1.391 . S
C2490 C2491 1.400 . S
C2491 C2490 1.400 . S
C2491 C2492 1.398 . S
C2491 C2497 1.491 . S
C2492 H2483 0.950 . S
C2492 C2491 1.398 . S
C2492 C2493 1.391 . S
C2493 H2481 0.950 . S
C2493 C2489 1.393 . S
C2493 C2492 1.391 . S
C2494 H2484 0.950 . S
C2494 C2495 1.386 . S
C2494 C2496 1.391 . S
C2495 C2494 1.386 . S
C2495 C2499 1.395 1_554 S
C2496 H2485 0.950 . S
C2496 C2494 1.391 . S
C2496 C2497 1.400 . S
C2497 C2491 1.491 . S
C2497 C2496 1.400 . S
C2497 C2498 1.398 . S
C2498 H2486 0.950 1_554 S
C2498 C2497 1.398 . S
C2498 C2499 1.391 1_554 S
C2499 H2487 0.947 . S
C2499 C2495 1.395 1_556 S
C2499 C2498 1.391 1_556 S
H2500 C2508 0.950 . S
H2501 C2513 0.950 . S
H2502 C2510 0.950 . S
H2503 C2512 0.950 . S
H2504 C2514 0.950 . S
H2505 C2516 0.950 . S
H2506 C2518 0.950 . S
H2507 C2519 0.950 . S
C2508 H2500 0.950 . S
C2508 C2509 1.386 . S
C2508 C2510 1.391 . S
C2509 C2508 1.386 . S
C2509 C2513 1.393 . S
C2510 H2502 0.950 . S
C2510 C2508 1.391 . S
C2510 C2511 1.400 . S
C2511 C2510 1.400 . S
C2511 C2512 1.398 . S
C2511 C2517 1.491 . S
C2512 H2503 0.950 . S
C2512 C2511 1.398 . S
C2512 C2513 1.391 . S
C2513 H2501 0.950 . S
C2513 C2509 1.393 . S
C2513 C2512 1.391 . S
C2514 H2504 0.950 . S
C2514 C2515 1.386 . S
C2514 C2516 1.391 . S
C2515 C2514 1.386 . S
C2515 C2519 1.393 . S
C2516 H2505 0.950 . S
C2516 C2514 1.391 . S
C2516 C2517 1.400 . S
C2517 C2511 1.491 . S
C2517 C2516 1.400 . S
C2517 C2518 1.398 . S
C2518 H2506 0.950 . S
C2518 C2517 1.398 . S
C2518 C2519 1.391 . S
C2519 H2507 0.950 . S
C2519 C2515 1.393 . S
C2519 C2518 1.391 . S
H2520 C2528 0.950 . S
H2521 C2533 0.950 . S
H2522 C2530 0.950 . S
H2523 C2532 0.950 . S
H2524 C2534 0.950 . S
H2525 C2536 0.950 . S
H2526 C2538 0.950 . S
H2527 C2539 0.950 . S
C2528 H2520 0.950 . S
C2528 C2529 1.386 . S
C2528 C2530 1.391 . S
C2529 C2528 1.386 . S
C2529 C2533 1.393 . S
C2530 H2522 0.950 . S
C2530 C2528 1.391 . S
C2530 C2531 1.400 . S
C2531 C2530 1.400 . S
C2531 C2532 1.398 . S
C2531 C2537 1.491 . S
C2532 H2523 0.950 . S
C2532 C2531 1.398 . S
C2532 C2533 1.391 . S
C2533 H2521 0.950 . S
C2533 C2529 1.393 . S
C2533 C2532 1.391 . S
C2534 H2524 0.950 . S
C2534 C2535 1.386 . S
C2534 C2536 1.391 . S
C2535 C2534 1.386 . S
C2535 C2539 1.393 . S
C2536 H2525 0.950 . S
C2536 C2534 1.391 . S
C2536 C2537 1.400 . S
C2537 C2531 1.491 . S
C2537 C2536 1.400 . S
C2537 C2538 1.398 . S
C2538 H2526 0.950 . S
C2538 C2537 1.398 . S
C2538 C2539 1.391 . S
C2539 H2527 0.950 . S
C2539 C2535 1.393 . S
C2539 C2538 1.391 . S
H2540 C2548 0.950 . S
H2541 C2553 0.950 . S
H2542 C2550 0.950 . S
H2543 C2552 0.950 . S
H2544 C2554 0.950 . S
H2545 C2556 0.950 . S
H2546 C2558 0.950 . S
H2547 C2559 0.950 . S
C2548 H2540 0.950 . S
C2548 C2549 1.386 . S
C2548 C2550 1.391 . S
C2549 C2548 1.386 . S
C2549 C2553 1.393 . S
C2550 H2542 0.950 . S
C2550 C2548 1.391 . S
C2550 C2551 1.400 . S
C2551 C2550 1.400 . S
C2551 C2552 1.398 . S
C2551 C2557 1.491 . S
C2552 H2543 0.950 . S
C2552 C2551 1.398 . S
C2552 C2553 1.391 . S
C2553 H2541 0.950 . S
C2553 C2549 1.393 . S
C2553 C2552 1.391 . S
C2554 H2544 0.950 . S
C2554 C2555 1.386 . S
C2554 C2556 1.391 . S
C2555 C2554 1.386 . S
C2555 C2559 1.393 . S
C2556 H2545 0.950 . S
C2556 C2554 1.391 . S
C2556 C2557 1.400 . S
C2557 C2551 1.491 . S
C2557 C2556 1.400 . S
C2557 C2558 1.398 . S
C2558 H2546 0.950 . S
C2558 C2557 1.398 . S
C2558 C2559 1.391 . S
C2559 H2547 0.950 . S
C2559 C2555 1.393 . S
C2559 C2558 1.391 . S
H2560 C2568 0.950 . S
H2561 C2573 0.950 1_545 S
H2562 C2570 0.950 . S
H2563 C2572 0.950 . S
H2564 C2574 0.950 . S
H2565 C2576 0.950 . S
H2566 C2578 0.950 . S
H2567 C2579 0.950 . S
C2568 H2560 0.950 . S
C2568 C2569 1.386 . S
C2568 C2570 1.391 . S
C2569 C2568 1.386 . S
C2569 C2573 1.393 . S
C2570 H2562 0.950 . S
C2570 C2568 1.391 . S
C2570 C2571 1.400 . S
C2571 C2570 1.400 . S
C2571 C2572 1.398 . S
C2571 C2577 1.491 . S
C2572 H2563 0.950 . S
C2572 C2571 1.398 . S
C2572 C2573 1.391 . S
C2573 H2561 0.950 1_565 S
C2573 C2569 1.393 . S
C2573 C2572 1.391 . S
C2574 H2564 0.950 . S
C2574 C2575 1.386 . S
C2574 C2576 1.391 . S
C2575 C2574 1.386 . S
C2575 C2579 1.393 . S
C2576 H2565 0.950 . S
C2576 C2574 1.391 . S
C2576 C2577 1.400 . S
C2577 C2571 1.491 . S
C2577 C2576 1.400 . S
C2577 C2578 1.398 . S
C2578 H2566 0.950 . S
C2578 C2577 1.398 . S
C2578 C2579 1.391 . S
C2579 H2567 0.950 . S
C2579 C2575 1.393 . S
C2579 C2578 1.391 . S
H2580 C2588 0.950 . S
H2581 C2593 0.950 . S
H2582 C2590 0.950 . S
H2583 C2592 0.950 . S
H2584 C2594 0.950 . S
H2585 C2596 0.950 . S
H2586 C2598 0.950 . S
H2587 C2599 0.950 1_545 S
C2588 H2580 0.950 . S
C2588 C2589 1.386 . S
C2588 C2590 1.391 . S
C2589 C2588 1.386 . S
C2589 C2593 1.393 . S
C2590 H2582 0.950 . S
C2590 C2588 1.391 . S
C2590 C2591 1.400 . S
C2591 C2590 1.400 . S
C2591 C2592 1.398 . S
C2591 C2597 1.491 . S
C2592 H2583 0.950 . S
C2592 C2591 1.398 . S
C2592 C2593 1.391 . S
C2593 H2581 0.950 . S
C2593 C2589 1.393 . S
C2593 C2592 1.391 . S
C2594 H2584 0.950 . S
C2594 C2595 1.386 . S
C2594 C2596 1.391 . S
C2595 C2594 1.386 . S
C2595 C2599 1.393 . S
C2596 H2585 0.950 . S
C2596 C2594 1.391 . S
C2596 C2597 1.400 . S
C2597 C2591 1.491 . S
C2597 C2596 1.400 . S
C2597 C2598 1.398 . S
C2598 H2586 0.950 . S
C2598 C2597 1.398 . S
C2598 C2599 1.391 . S
C2599 H2587 0.950 1_565 S
C2599 C2595 1.393 . S
C2599 C2598 1.391 . S
H2600 C2608 0.950 . S
H2601 C2613 0.950 . S
H2602 C2610 0.950 . S
H2603 C2612 0.950 . S
H2604 C2614 0.950 . S
H2605 C2616 0.950 . S
H2606 C2618 0.950 . S
H2607 C2619 0.950 . S
C2608 H2600 0.950 . S
C2608 C2609 1.386 . S
C2608 C2610 1.391 . S
C2609 C2608 1.386 . S
C2609 C2613 1.393 . S
C2610 H2602 0.950 . S
C2610 C2608 1.391 . S
C2610 C2611 1.400 . S
C2611 C2610 1.400 . S
C2611 C2612 1.398 . S
C2611 C2617 1.491 . S
C2612 H2603 0.950 . S
C2612 C2611 1.398 . S
C2612 C2613 1.391 . S
C2613 H2601 0.950 . S
C2613 C2609 1.393 . S
C2613 C2612 1.391 . S
C2614 H2604 0.950 . S
C2614 C2615 1.386 . S
C2614 C2616 1.391 . S
C2615 C2614 1.386 . S
C2615 C2619 1.393 . S
C2616 H2605 0.950 . S
C2616 C2614 1.391 . S
C2616 C2617 1.400 . S
C2617 C2611 1.491 . S
C2617 C2616 1.400 . S
C2617 C2618 1.398 . S
C2618 H2606 0.950 . S
C2618 C2617 1.398 . S
C2618 C2619 1.391 . S
C2619 H2607 0.950 . S
C2619 C2615 1.393 . S
C2619 C2618 1.391 . S
H2620 C2628 0.950 . S
H2621 C2633 0.950 . S
H2622 C2630 0.950 . S
H2623 C2632 0.950 . S
H2624 C2634 0.950 . S
H2625 C2636 0.950 . S
H2626 C2638 0.950 . S
H2627 C2639 0.950 . S
C2628 H2620 0.950 . S
C2628 C2629 1.386 . S
C2628 C2630 1.391 . S
C2629 C2628 1.386 . S
C2629 C2633 1.393 . S
C2630 H2622 0.950 . S
C2630 C2628 1.391 . S
C2630 C2631 1.400 . S
C2631 C2630 1.400 . S
C2631 C2632 1.398 . S
C2631 C2637 1.491 . S
C2632 H2623 0.950 . S
C2632 C2631 1.398 . S
C2632 C2633 1.391 . S
C2633 H2621 0.950 . S
C2633 C2629 1.393 . S
C2633 C2632 1.391 . S
C2634 H2624 0.950 . S
C2634 C2635 1.386 . S
C2634 C2636 1.391 . S
C2635 C2634 1.386 . S
C2635 C2639 1.393 . S
C2636 H2625 0.950 . S
C2636 C2634 1.391 . S
C2636 C2637 1.400 . S
C2637 C2631 1.491 . S
C2637 C2636 1.400 . S
C2637 C2638 1.398 . S
C2638 H2626 0.950 . S
C2638 C2637 1.398 . S
C2638 C2639 1.391 . S
C2639 H2627 0.950 . S
C2639 C2635 1.393 . S
C2639 C2638 1.391 . S
H2640 C2648 0.950 . S
H2641 C2653 0.950 . S
H2642 C2650 0.950 . S
H2643 C2652 0.950 . S
H2644 C2654 0.950 . S
H2645 C2656 0.950 . S
H2646 C2658 0.950 . S
H2647 C2659 0.950 . S
C2648 H2640 0.950 . S
C2648 C2649 1.386 . S
C2648 C2650 1.391 . S
C2649 C2648 1.386 . S
C2649 C2653 1.393 . S
C2650 H2642 0.950 . S
C2650 C2648 1.391 . S
C2650 C2651 1.400 . S
C2651 C2650 1.400 . S
C2651 C2652 1.398 . S
C2651 C2657 1.491 . S
C2652 H2643 0.950 . S
C2652 C2651 1.398 . S
C2652 C2653 1.391 . S
C2653 H2641 0.950 . S
C2653 C2649 1.393 . S
C2653 C2652 1.391 . S
C2654 H2644 0.950 . S
C2654 C2655 1.386 . S
C2654 C2656 1.391 . S
C2655 C2654 1.386 . S
C2655 C2659 1.393 . S
C2656 H2645 0.950 . S
C2656 C2654 1.391 . S
C2656 C2657 1.400 . S
C2657 C2651 1.491 . S
C2657 C2656 1.400 . S
C2657 C2658 1.398 . S
C2658 H2646 0.950 . S
C2658 C2657 1.398 . S
C2658 C2659 1.391 . S
C2659 H2647 0.950 . S
C2659 C2655 1.393 . S
C2659 C2658 1.391 . S
H2660 C2668 0.950 . S
H2661 C2673 0.950 . S
H2662 C2670 0.950 . S
H2663 C2672 0.950 . S
H2664 C2674 0.950 . S
H2665 C2676 0.950 . S
H2666 C2678 0.950 . S
H2667 C2679 0.950 . S
C2668 H2660 0.950 . S
C2668 C2669 1.386 . S
C2668 C2670 1.391 . S
C2669 C2668 1.386 . S
C2669 C2673 1.393 . S
C2670 H2662 0.950 . S
C2670 C2668 1.391 . S
C2670 C2671 1.400 . S
C2671 C2670 1.400 . S
C2671 C2672 1.398 . S
C2671 C2677 1.491 . S
C2672 H2663 0.950 . S
C2672 C2671 1.398 . S
C2672 C2673 1.391 . S
C2673 H2661 0.950 . S
C2673 C2669 1.393 . S
C2673 C2672 1.391 . S
C2674 H2664 0.950 . S
C2674 C2675 1.386 . S
C2674 C2676 1.391 . S
C2675 C2674 1.386 . S
C2675 C2679 1.393 . S
C2676 H2665 0.950 . S
C2676 C2674 1.391 . S
C2676 C2677 1.400 . S
C2677 C2671 1.491 . S
C2677 C2676 1.400 . S
C2677 C2678 1.398 . S
C2678 H2666 0.950 . S
C2678 C2677 1.398 . S
C2678 C2679 1.391 . S
C2679 H2667 0.950 . S
C2679 C2675 1.393 . S
C2679 C2678 1.391 . S
H2680 C2688 0.950 1_554 S
H2681 C2693 0.950 . S
H2682 C2690 0.950 . S
H2683 C2692 0.950 . S
H2684 C2694 0.950 1_556 S
H2685 C2696 0.950 . S
H2686 C2698 0.950 . S
H2687 C2699 0.950 . S
C2688 H2680 0.950 1_556 S
C2688 C2689 1.386 . S
C2688 C2690 1.391 1_556 S
C2689 C2688 1.386 . S
C2689 C2693 1.393 . S
C2690 H2682 0.950 . S
C2690 C2688 1.391 1_554 S
C2690 C2691 1.400 1_554 S
C2691 C2690 1.400 1_556 S
C2691 C2692 1.398 . S
C2691 C2697 1.491 1_556 S
C2692 H2683 0.950 . S
C2692 C2691 1.398 . S
C2692 C2693 1.391 . S
C2693 H2681 0.950 . S
C2693 C2689 1.393 . S
C2693 C2692 1.391 . S
C2694 H2684 0.950 1_554 S
C2694 C2695 1.386 . S
C2694 C2696 1.391 1_554 S
C2695 C2694 1.386 . S
C2695 C2699 1.393 . S
C2696 H2685 0.950 . S
C2696 C2694 1.391 1_556 S
C2696 C2697 1.400 1_556 S
C2697 C2691 1.491 1_554 S
C2697 C2696 1.400 1_554 S
C2697 C2698 1.398 . S
C2698 H2686 0.950 . S
C2698 C2697 1.398 . S
C2698 C2699 1.391 . S
C2699 H2687 0.950 . S
C2699 C2695 1.393 . S
C2699 C2698 1.391 . S
H2700 C2708 0.950 . S
H2701 C2713 0.950 . S
H2702 C2710 0.950 . S
H2703 C2712 0.950 . S
H2704 C2714 0.950 . S
H2705 C2716 0.950 . S
H2706 C2718 0.950 . S
H2707 C2719 0.950 . S
C2708 H2700 0.950 . S
C2708 C2709 1.386 . S
C2708 C2710 1.391 1_455 S
C2709 C2708 1.386 . S
C2709 C2713 1.393 . S
C2710 H2702 0.950 . S
C2710 C2708 1.391 1_655 S
C2710 C2711 1.400 . S
C2711 C2710 1.400 . S
C2711 C2712 1.398 1_655 S
C2711 C2717 1.491 . S
C2712 H2703 0.950 . S
C2712 C2711 1.398 1_455 S
C2712 C2713 1.391 . S
C2713 H2701 0.950 . S
C2713 C2709 1.393 . S
C2713 C2712 1.391 . S
C2714 H2704 0.950 . S
C2714 C2715 1.386 . S
C2714 C2716 1.391 . S
C2715 C2714 1.386 . S
C2715 C2719 1.393 . S
C2716 H2705 0.950 . S
C2716 C2714 1.391 . S
C2716 C2717 1.400 . S
C2717 C2711 1.491 . S
C2717 C2716 1.400 . S
C2717 C2718 1.398 . S
C2718 H2706 0.950 . S
C2718 C2717 1.398 . S
C2718 C2719 1.391 . S
C2719 H2707 0.950 . S
C2719 C2715 1.393 . S
C2719 C2718 1.391 . S
H2720 C2728 0.950 . S
H2721 C2733 0.950 . S
H2722 C2730 0.950 . S
H2723 C2732 0.950 . S
H2724 C2734 0.950 . S
H2725 C2736 0.950 . S
H2726 C2738 0.950 . S
H2727 C2739 0.950 . S
C2728 H2720 0.950 . S
C2728 C2729 1.386 . S
C2728 C2730 1.391 . S
C2729 C2728 1.386 . S
C2729 C2733 1.393 . S
C2730 H2722 0.950 . S
C2730 C2728 1.391 . S
C2730 C2731 1.400 . S
C2731 C2730 1.400 . S
C2731 C2732 1.398 . S
C2731 C2737 1.491 . S
C2732 H2723 0.950 . S
C2732 C2731 1.398 . S
C2732 C2733 1.391 . S
C2733 H2721 0.950 . S
C2733 C2729 1.393 . S
C2733 C2732 1.391 . S
C2734 H2724 0.950 . S
C2734 C2735 1.386 . S
C2734 C2736 1.391 . S
C2735 C2734 1.386 . S
C2735 C2739 1.393 . S
C2736 H2725 0.950 . S
C2736 C2734 1.391 . S
C2736 C2737 1.400 . S
C2737 C2731 1.491 . S
C2737 C2736 1.400 . S
C2737 C2738 1.398 . S
C2738 H2726 0.950 . S
C2738 C2737 1.398 . S
C2738 C2739 1.391 . S
C2739 H2727 0.950 . S
C2739 C2735 1.393 . S
C2739 C2738 1.391 . S
H2740 C2748 0.950 . S
H2741 C2753 0.950 . S
H2742 C2750 0.950 . S
H2743 C2752 0.950 . S
H2744 C2754 0.950 . S
H2745 C2756 0.950 . S
H2746 C2758 0.950 . S
H2747 C2759 0.950 . S
C2748 H2740 0.950 . S
C2748 C2749 1.386 . S
C2748 C2750 1.391 . S
C2749 C2748 1.386 . S
C2749 C2753 1.393 . S
C2750 H2742 0.950 . S
C2750 C2748 1.391 . S
C2750 C2751 1.400 . S
C2751 C2750 1.400 . S
C2751 C2752 1.398 . S
C2751 C2757 1.491 1_455 S
C2752 H2743 0.950 . S
C2752 C2751 1.398 . S
C2752 C2753 1.391 . S
C2753 H2741 0.950 . S
C2753 C2749 1.393 . S
C2753 C2752 1.391 . S
C2754 H2744 0.950 . S
C2754 C2755 1.386 . S
C2754 C2756 1.391 . S
C2755 C2754 1.386 . S
C2755 C2759 1.393 . S
C2756 H2745 0.950 . S
C2756 C2754 1.391 . S
C2756 C2757 1.400 . S
C2757 C2751 1.491 1_655 S
C2757 C2756 1.400 . S
C2757 C2758 1.398 . S
C2758 H2746 0.950 . S
C2758 C2757 1.398 . S
C2758 C2759 1.391 . S
C2759 H2747 0.950 . S
C2759 C2755 1.393 . S
C2759 C2758 1.391 . S
H2760 C2768 0.950 . S
H2761 C2773 0.950 . S
H2762 C2770 0.952 . S
H2763 C2772 0.950 . S
H2764 C2774 0.950 . S
H2765 C2776 0.950 . S
H2766 C2778 0.950 . S
H2767 C2779 0.950 . S
C2768 H2760 0.950 . S
C2768 C2769 1.386 . S
C2768 C2770 1.391 1_655 S
C2769 C2768 1.386 . S
C2769 C2773 1.393 1_655 S
C2770 H2762 0.952 . S
C2770 C2768 1.391 1_455 S
C2770 C2771 1.400 . S
C2771 C2770 1.400 . S
C2771 C2772 1.398 . S
C2771 C2777 1.491 . S
C2772 H2763 0.950 . S
C2772 C2771 1.398 . S
C2772 C2773 1.391 . S
C2773 H2761 0.950 . S
C2773 C2769 1.393 1_455 S
C2773 C2772 1.391 . S
C2774 H2764 0.950 . S
C2774 C2775 1.386 . S
C2774 C2776 1.391 . S
C2775 C2774 1.386 . S
C2775 C2779 1.393 . S
C2776 H2765 0.950 . S
C2776 C2774 1.391 . S
C2776 C2777 1.400 . S
C2777 C2771 1.491 . S
C2777 C2776 1.400 . S
C2777 C2778 1.398 . S
C2778 H2766 0.950 . S
C2778 C2777 1.398 . S
C2778 C2779 1.391 . S
C2779 H2767 0.950 . S
C2779 C2775 1.393 . S
C2779 C2778 1.391 . S
H2780 C2788 0.950 . S
H2781 C2793 0.950 . S
H2782 C2790 0.950 . S
H2783 C2792 0.950 . S
H2784 C2794 0.950 . S
H2785 C2796 0.950 . S
H2786 C2798 0.950 . S
H2787 C2799 0.950 . S
C2788 H2780 0.950 . S
C2788 C2789 1.386 . S
C2788 C2790 1.391 . S
C2789 C2788 1.386 . S
C2789 C2793 1.393 . S
C2790 H2782 0.950 . S
C2790 C2788 1.391 . S
C2790 C2791 1.400 . S
C2791 C2790 1.400 . S
C2791 C2792 1.398 . S
C2791 C2797 1.491 . S
C2792 H2783 0.950 . S
C2792 C2791 1.398 . S
C2792 C2793 1.391 . S
C2793 H2781 0.950 . S
C2793 C2789 1.393 . S
C2793 C2792 1.391 . S
C2794 H2784 0.950 . S
C2794 C2795 1.386 . S
C2794 C2796 1.391 . S
C2795 C2794 1.386 . S
C2795 C2799 1.393 . S
C2796 H2785 0.950 . S
C2796 C2794 1.391 . S
C2796 C2797 1.400 . S
C2797 C2791 1.491 . S
C2797 C2796 1.400 . S
C2797 C2798 1.398 . S
C2798 H2786 0.950 . S
C2798 C2797 1.398 . S
C2798 C2799 1.391 . S
C2799 H2787 0.950 . S
C2799 C2795 1.393 . S
C2799 C2798 1.391 . S
H2800 C2808 0.950 . S
H2801 C2813 0.950 . S
H2802 C2810 0.950 . S
H2803 C2812 0.950 . S
H2804 C2814 0.950 . S
H2805 C2816 0.950 . S
H2806 C2818 0.950 . S
H2807 C2819 0.950 . S
C2808 H2800 0.950 . S
C2808 C2809 1.386 . S
C2808 C2810 1.391 . S
C2809 C2808 1.386 . S
C2809 C2813 1.393 . S
C2810 H2802 0.950 . S
C2810 C2808 1.391 . S
C2810 C2811 1.400 . S
C2811 C2810 1.400 . S
C2811 C2812 1.398 . S
C2811 C2817 1.491 . S
C2812 H2803 0.950 . S
C2812 C2811 1.398 . S
C2812 C2813 1.391 . S
C2813 H2801 0.950 . S
C2813 C2809 1.393 . S
C2813 C2812 1.391 . S
C2814 H2804 0.950 . S
C2814 C2815 1.386 . S
C2814 C2816 1.391 . S
C2815 C2814 1.386 . S
C2815 C2819 1.393 . S
C2816 H2805 0.950 . S
C2816 C2814 1.391 . S
C2816 C2817 1.400 . S
C2817 C2811 1.491 . S
C2817 C2816 1.400 . S
C2817 C2818 1.398 . S
C2818 H2806 0.950 . S
C2818 C2817 1.398 . S
C2818 C2819 1.391 . S
C2819 H2807 0.950 . S
C2819 C2815 1.393 . S
C2819 C2818 1.391 . S
H2820 C2828 0.950 . S
H2821 C2833 0.950 . S
H2822 C2830 0.950 . S
H2823 C2832 0.950 . S
H2824 C2834 0.950 . S
H2825 C2836 0.950 . S
H2826 C2838 0.950 . S
H2827 C2839 0.950 . S
C2828 H2820 0.950 . S
C2828 C2829 1.386 . S
C2828 C2830 1.391 . S
C2829 C2828 1.386 . S
C2829 C2833 1.393 . S
C2830 H2822 0.950 . S
C2830 C2828 1.391 . S
C2830 C2831 1.400 . S
C2831 C2830 1.400 . S
C2831 C2832 1.398 . S
C2831 C2837 1.491 . S
C2832 H2823 0.950 . S
C2832 C2831 1.398 . S
C2832 C2833 1.391 . S
C2833 H2821 0.950 . S
C2833 C2829 1.393 . S
C2833 C2832 1.391 . S
C2834 H2824 0.950 . S
C2834 C2835 1.386 . S
C2834 C2836 1.391 . S
C2835 C2834 1.386 . S
C2835 C2839 1.393 . S
C2836 H2825 0.950 . S
C2836 C2834 1.391 . S
C2836 C2837 1.400 . S
C2837 C2831 1.491 . S
C2837 C2836 1.400 . S
C2837 C2838 1.398 . S
C2838 H2826 0.950 . S
C2838 C2837 1.398 . S
C2838 C2839 1.391 . S
C2839 H2827 0.950 . S
C2839 C2835 1.393 . S
C2839 C2838 1.391 . S
H2840 C2848 0.950 . S
H2841 C2853 0.950 . S
H2842 C2850 0.950 . S
H2843 C2852 0.950 . S
H2844 C2854 0.950 . S
H2845 C2856 0.950 . S
H2846 C2858 0.950 . S
H2847 C2859 0.950 . S
C2848 H2840 0.950 . S
C2848 C2849 1.386 . S
C2848 C2850 1.391 . S
C2849 C2848 1.386 . S
C2849 C2853 1.393 . S
C2850 H2842 0.950 . S
C2850 C2848 1.391 . S
C2850 C2851 1.400 . S
C2851 C2850 1.400 . S
C2851 C2852 1.398 . S
C2851 C2857 1.491 . S
C2852 H2843 0.950 . S
C2852 C2851 1.398 . S
C2852 C2853 1.391 . S
C2853 H2841 0.950 . S
C2853 C2849 1.393 . S
C2853 C2852 1.391 . S
C2854 H2844 0.950 . S
C2854 C2855 1.386 . S
C2854 C2856 1.391 . S
C2855 C2854 1.386 . S
C2855 C2859 1.393 . S
C2856 H2845 0.950 . S
C2856 C2854 1.391 . S
C2856 C2857 1.400 . S
C2857 C2851 1.491 . S
C2857 C2856 1.400 . S
C2857 C2858 1.398 . S
C2858 H2846 0.950 . S
C2858 C2857 1.398 . S
C2858 C2859 1.391 . S
C2859 H2847 0.950 . S
C2859 C2855 1.393 . S
C2859 C2858 1.391 . S
H2860 C2868 0.950 . S
H2861 C2873 0.950 . S
H2862 C2870 0.950 . S
H2863 C2872 0.950 . S
H2864 C2874 0.950 . S
H2865 C2876 0.950 . S
H2866 C2878 0.950 . S
H2867 C2879 0.950 . S
C2868 H2860 0.950 . S
C2868 C2869 1.386 . S
C2868 C2870 1.391 . S
C2869 C2868 1.386 . S
C2869 C2873 1.393 . S
C2870 H2862 0.950 . S
C2870 C2868 1.391 . S
C2870 C2871 1.400 . S
C2871 C2870 1.400 . S
C2871 C2872 1.398 . S
C2871 C2877 1.491 . S
C2872 H2863 0.950 . S
C2872 C2871 1.398 . S
C2872 C2873 1.391 . S
C2873 H2861 0.950 . S
C2873 C2869 1.393 . S
C2873 C2872 1.391 . S
C2874 H2864 0.950 . S
C2874 C2875 1.386 . S
C2874 C2876 1.391 . S
C2875 C2874 1.386 . S
C2875 C2879 1.393 . S
C2876 H2865 0.950 . S
C2876 C2874 1.391 . S
C2876 C2877 1.400 . S
C2877 C2871 1.491 . S
C2877 C2876 1.400 . S
C2877 C2878 1.398 . S
C2878 H2866 0.950 . S
C2878 C2877 1.398 . S
C2878 C2879 1.391 . S
C2879 H2867 0.950 . S
C2879 C2875 1.393 . S
C2879 C2878 1.391 . S
H2880 C2888 0.950 . S
H2881 C2893 0.950 . S
H2882 C2890 0.950 . S
H2883 C2892 0.950 . S
H2884 C2894 0.950 . S
H2885 C2896 0.950 . S
H2886 C2898 0.950 . S
H2887 C2899 0.950 . S
C2888 H2880 0.950 . S
C2888 C2889 1.386 . S
C2888 C2890 1.391 . S
C2889 C2888 1.386 . S
C2889 C2893 1.393 . S
C2890 H2882 0.950 . S
C2890 C2888 1.391 . S
C2890 C2891 1.400 . S
C2891 C2890 1.400 . S
C2891 C2892 1.398 . S
C2891 C2897 1.491 . S
C2892 H2883 0.950 . S
C2892 C2891 1.398 . S
C2892 C2893 1.391 . S
C2893 H2881 0.950 . S
C2893 C2889 1.393 . S
C2893 C2892 1.391 . S
C2894 H2884 0.950 . S
C2894 C2895 1.386 . S
C2894 C2896 1.391 . S
C2895 C2894 1.386 . S
C2895 C2899 1.393 . S
C2896 H2885 0.950 . S
C2896 C2894 1.391 . S
C2896 C2897 1.400 . S
C2897 C2891 1.491 . S
C2897 C2896 1.400 . S
C2897 C2898 1.398 . S
C2898 H2886 0.950 . S
C2898 C2897 1.398 . S
C2898 C2899 1.391 . S
C2899 H2887 0.950 . S
C2899 C2895 1.393 . S
C2899 C2898 1.391 . S
H2900 C2908 0.950 . S
H2901 C2913 0.950 . S
H2902 C2910 0.950 . S
H2903 C2912 0.950 . S
H2904 C2914 0.950 . S
H2905 C2916 0.950 . S
H2906 C2918 0.950 . S
H2907 C2919 0.950 . S
C2908 H2900 0.950 . S
C2908 C2909 1.386 . S
C2908 C2910 1.391 . S
C2909 C2908 1.386 . S
C2909 C2913 1.393 . S
C2910 H2902 0.950 . S
C2910 C2908 1.391 . S
C2910 C2911 1.400 . S
C2911 C2910 1.400 . S
C2911 C2912 1.398 . S
C2911 C2917 1.491 . S
C2912 H2903 0.950 . S
C2912 C2911 1.398 . S
C2912 C2913 1.391 . S
C2913 H2901 0.950 . S
C2913 C2909 1.393 . S
C2913 C2912 1.391 . S
C2914 H2904 0.950 . S
C2914 C2915 1.386 . S
C2914 C2916 1.391 . S
C2915 C2914 1.386 . S
C2915 C2919 1.393 . S
C2916 H2905 0.950 . S
C2916 C2914 1.391 . S
C2916 C2917 1.400 . S
C2917 C2911 1.491 . S
C2917 C2916 1.400 . S
C2917 C2918 1.398 . S
C2918 H2906 0.950 . S
C2918 C2917 1.398 . S
C2918 C2919 1.391 . S
C2919 H2907 0.950 . S
C2919 C2915 1.393 . S
C2919 C2918 1.391 . S
H2920 C2928 0.950 . S
H2921 C2933 0.950 . S
H2922 C2930 0.950 . S
H2923 C2932 0.950 . S
H2924 C2934 0.950 . S
H2925 C2936 0.950 . S
H2926 C2938 0.950 . S
H2927 C2939 0.950 . S
C2928 H2920 0.950 . S
C2928 C2929 1.386 . S
C2928 C2930 1.391 . S
C2929 C2928 1.386 . S
C2929 C2933 1.393 . S
C2930 H2922 0.950 . S
C2930 C2928 1.391 . S
C2930 C2931 1.400 . S
C2931 C2930 1.400 . S
C2931 C2932 1.398 . S
C2931 C2937 1.491 . S
C2932 H2923 0.950 . S
C2932 C2931 1.398 . S
C2932 C2933 1.391 . S
C2933 H2921 0.950 . S
C2933 C2929 1.393 . S
C2933 C2932 1.391 . S
C2934 H2924 0.950 . S
C2934 C2935 1.386 . S
C2934 C2936 1.391 . S
C2935 C2934 1.386 . S
C2935 C2939 1.393 . S
C2936 H2925 0.950 . S
C2936 C2934 1.391 . S
C2936 C2937 1.400 . S
C2937 C2931 1.491 . S
C2937 C2936 1.400 . S
C2937 C2938 1.398 . S
C2938 H2926 0.950 . S
C2938 C2937 1.398 . S
C2938 C2939 1.391 . S
C2939 H2927 0.950 . S
C2939 C2935 1.393 . S
C2939 C2938 1.391 . S
H2940 C2948 0.950 . S
H2941 C2953 0.950 . S
H2942 C2950 0.950 . S
H2943 C2952 0.950 . S
H2944 C2954 0.950 . S
H2945 C2956 0.950 . S
H2946 C2958 0.950 . S
H2947 C2959 0.950 . S
C2948 H2940 0.950 . S
C2948 C2949 1.386 . S
C2948 C2950 1.391 . S
C2949 C2948 1.386 . S
C2949 C2953 1.393 . S
C2950 H2942 0.950 . S
C2950 C2948 1.391 . S
C2950 C2951 1.400 . S
C2951 C2950 1.400 . S
C2951 C2952 1.398 . S
C2951 C2957 1.491 . S
C2952 H2943 0.950 . S
C2952 C2951 1.398 . S
C2952 C2953 1.391 . S
C2953 H2941 0.950 . S
C2953 C2949 1.393 . S
C2953 C2952 1.391 . S
C2954 H2944 0.950 . S
C2954 C2955 1.386 . S
C2954 C2956 1.391 . S
C2955 C2954 1.386 . S
C2955 C2959 1.393 . S
C2956 H2945 0.950 . S
C2956 C2954 1.391 . S
C2956 C2957 1.400 . S
C2957 C2951 1.491 . S
C2957 C2956 1.400 . S
C2957 C2958 1.398 . S
C2958 H2946 0.950 . S
C2958 C2957 1.398 . S
C2958 C2959 1.391 . S
C2959 H2947 0.950 . S
C2959 C2955 1.393 . S
C2959 C2958 1.391 . S
H2960 C2968 0.950 . S
H2961 C2973 0.950 . S
H2962 C2970 0.950 . S
H2963 C2972 0.950 . S
H2964 C2974 0.950 . S
H2965 C2976 0.950 . S
H2966 C2978 0.950 . S
H2967 C2979 0.950 . S
C2968 H2960 0.950 . S
C2968 C2969 1.386 . S
C2968 C2970 1.391 . S
C2969 C2968 1.386 . S
C2969 C2973 1.393 . S
C2970 H2962 0.950 . S
C2970 C2968 1.391 . S
C2970 C2971 1.400 . S
C2971 C2970 1.400 . S
C2971 C2972 1.398 . S
C2971 C2977 1.491 . S
C2972 H2963 0.950 . S
C2972 C2971 1.398 . S
C2972 C2973 1.391 . S
C2973 H2961 0.950 . S
C2973 C2969 1.393 . S
C2973 C2972 1.391 . S
C2974 H2964 0.950 . S
C2974 C2975 1.386 . S
C2974 C2976 1.391 . S
C2975 C2974 1.386 . S
C2975 C2979 1.393 . S
C2976 H2965 0.950 . S
C2976 C2974 1.391 . S
C2976 C2977 1.400 . S
C2977 C2971 1.491 . S
C2977 C2976 1.400 . S
C2977 C2978 1.398 . S
C2978 H2966 0.950 . S
C2978 C2977 1.398 . S
C2978 C2979 1.391 . S
C2979 H2967 0.950 . S
C2979 C2975 1.393 . S
C2979 C2978 1.391 . S
H2980 C2988 0.950 . S
H2981 C2993 0.950 . S
H2982 C2990 0.950 . S
H2983 C2992 0.950 . S
H2984 C2994 0.950 . S
H2985 C2996 0.950 . S
H2986 C2998 0.950 . S
H2987 C2999 0.950 . S
C2988 H2980 0.950 . S
C2988 C2989 1.386 . S
C2988 C2990 1.391 . S
C2989 C2988 1.386 . S
C2989 C2993 1.393 . S
C2990 H2982 0.950 . S
C2990 C2988 1.391 . S
C2990 C2991 1.400 . S
C2991 C2990 1.400 . S
C2991 C2992 1.398 . S
C2991 C2997 1.491 . S
C2992 H2983 0.950 . S
C2992 C2991 1.398 . S
C2992 C2993 1.391 . S
C2993 H2981 0.950 . S
C2993 C2989 1.393 . S
C2993 C2992 1.391 . S
C2994 H2984 0.950 . S
C2994 C2995 1.386 . S
C2994 C2996 1.391 . S
C2995 C2994 1.386 . S
C2995 C2999 1.393 . S
C2996 H2985 0.950 . S
C2996 C2994 1.391 . S
C2996 C2997 1.400 . S
C2997 C2991 1.491 . S
C2997 C2996 1.400 . S
C2997 C2998 1.398 . S
C2998 H2986 0.950 . S
C2998 C2997 1.398 . S
C2998 C2999 1.391 . S
C2999 H2987 0.950 . S
C2999 C2995 1.393 . S
C2999 C2998 1.391 . S
H3000 C3008 0.950 . S
H3001 C3013 0.950 . S
H3002 C3010 0.950 . S
H3003 C3012 0.950 . S
H3004 C3014 0.950 . S
H3005 C3016 0.950 . S
H3006 C3018 0.950 . S
H3007 C3019 0.950 . S
C3008 H3000 0.950 . S
C3008 C3009 1.386 . S
C3008 C3010 1.391 . S
C3009 C3008 1.386 . S
C3009 C3013 1.393 . S
C3010 H3002 0.950 . S
C3010 C3008 1.391 . S
C3010 C3011 1.400 . S
C3011 C3010 1.400 . S
C3011 C3012 1.398 . S
C3011 C3017 1.491 . S
C3012 H3003 0.950 . S
C3012 C3011 1.398 . S
C3012 C3013 1.391 . S
C3013 H3001 0.950 . S
C3013 C3009 1.393 . S
C3013 C3012 1.391 . S
C3014 H3004 0.950 . S
C3014 C3015 1.386 . S
C3014 C3016 1.391 . S
C3015 C3014 1.386 . S
C3015 C3019 1.393 . S
C3016 H3005 0.950 . S
C3016 C3014 1.391 . S
C3016 C3017 1.400 . S
C3017 C3011 1.491 . S
C3017 C3016 1.400 . S
C3017 C3018 1.398 . S
C3018 H3006 0.950 . S
C3018 C3017 1.398 . S
C3018 C3019 1.391 . S
C3019 H3007 0.950 . S
C3019 C3015 1.393 . S
C3019 C3018 1.391 . S
H3020 C3028 0.950 . S
H3021 C3033 0.950 . S
H3022 C3030 0.950 1_545 S
H3023 C3032 0.950 . S
H3024 C3034 0.950 . S
H3025 C3036 0.950 . S
H3026 C3038 0.950 . S
H3027 C3039 0.950 . S
C3028 H3020 0.950 . S
C3028 C3029 1.386 . S
C3028 C3030 1.391 . S
C3029 C3028 1.386 . S
C3029 C3033 1.393 . S
C3030 H3022 0.950 1_565 S
C3030 C3028 1.391 . S
C3030 C3031 1.400 . S
C3031 C3030 1.400 . S
C3031 C3032 1.398 . S
C3031 C3037 1.491 . S
C3032 H3023 0.950 . S
C3032 C3031 1.398 . S
C3032 C3033 1.391 . S
C3033 H3021 0.950 . S
C3033 C3029 1.393 . S
C3033 C3032 1.391 . S
C3034 H3024 0.950 . S
C3034 C3035 1.386 1_565 S
C3034 C3036 1.391 . S
C3035 C3034 1.386 1_545 S
C3035 C3039 1.393 . S
C3036 H3025 0.950 . S
C3036 C3034 1.391 . S
C3036 C3037 1.400 . S
C3037 C3031 1.491 . S
C3037 C3036 1.400 . S
C3037 C3038 1.398 1_565 S
C3038 H3026 0.950 . S
C3038 C3037 1.398 1_545 S
C3038 C3039 1.391 . S
C3039 H3027 0.950 . S
C3039 C3035 1.393 . S
C3039 C3038 1.391 . S
H3040 C3048 0.950 . S
H3041 C3053 0.950 . S
H3042 C3050 0.950 . S
H3043 C3052 0.950 . S
H3044 C3054 0.950 . S
H3045 C3056 0.950 . S
H3046 C3058 0.950 . S
H3047 C3059 0.950 . S
C3048 H3040 0.950 . S
C3048 C3049 1.386 . S
C3048 C3050 1.391 . S
C3049 C3048 1.386 . S
C3049 C3053 1.393 . S
C3050 H3042 0.950 . S
C3050 C3048 1.391 . S
C3050 C3051 1.400 . S
C3051 C3050 1.400 . S
C3051 C3052 1.398 . S
C3051 C3057 1.491 . S
C3052 H3043 0.950 . S
C3052 C3051 1.398 . S
C3052 C3053 1.391 . S
C3053 H3041 0.950 . S
C3053 C3049 1.393 . S
C3053 C3052 1.391 . S
C3054 H3044 0.950 . S
C3054 C3055 1.386 . S
C3054 C3056 1.391 . S
C3055 C3054 1.386 . S
C3055 C3059 1.393 . S
C3056 H3045 0.950 . S
C3056 C3054 1.391 . S
C3056 C3057 1.400 . S
C3057 C3051 1.491 . S
C3057 C3056 1.400 . S
C3057 C3058 1.398 . S
C3058 H3046 0.950 . S
C3058 C3057 1.398 . S
C3058 C3059 1.391 . S
C3059 H3047 0.950 . S
C3059 C3055 1.393 . S
C3059 C3058 1.391 . S
H3060 C3068 0.950 . S
H3061 C3073 0.950 1_556 S
H3062 C3070 0.950 . S
H3063 C3072 0.950 . S
H3064 C3074 0.950 . S
H3065 C3076 0.950 . S
H3066 C3078 0.950 . S
H3067 C3079 0.950 . S
C3068 H3060 0.950 . S
C3068 C3069 1.386 . S
C3068 C3070 1.391 . S
C3069 C3068 1.386 . S
C3069 C3073 1.393 . S
C3070 H3062 0.950 . S
C3070 C3068 1.391 . S
C3070 C3071 1.400 . S
C3071 C3070 1.400 . S
C3071 C3072 1.398 . S
C3071 C3077 1.491 . S
C3072 H3063 0.950 . S
C3072 C3071 1.398 . S
C3072 C3073 1.391 . S
C3073 H3061 0.950 1_554 S
C3073 C3069 1.393 . S
C3073 C3072 1.391 . S
C3074 H3064 0.950 . S
C3074 C3075 1.386 . S
C3074 C3076 1.391 . S
C3075 C3074 1.386 . S
C3075 C3079 1.393 . S
C3076 H3065 0.950 . S
C3076 C3074 1.391 . S
C3076 C3077 1.400 . S
C3077 C3071 1.491 . S
C3077 C3076 1.400 . S
C3077 C3078 1.398 . S
C3078 H3066 0.950 . S
C3078 C3077 1.398 . S
C3078 C3079 1.391 . S
C3079 H3067 0.950 . S
C3079 C3075 1.393 . S
C3079 C3078 1.391 . S
H3080 C3088 0.950 . S
H3081 C3093 0.950 . S
H3082 C3090 0.950 . S
H3083 C3092 0.950 . S
H3084 C3094 0.950 . S
H3085 C3096 0.950 . S
H3086 C3098 0.950 . S
H3087 C3099 0.950 . S
C3088 H3080 0.950 . S
C3088 C3089 1.386 . S
C3088 C3090 1.391 . S
C3089 C3088 1.386 . S
C3089 C3093 1.393 . S
C3090 H3082 0.950 . S
C3090 C3088 1.391 . S
C3090 C3091 1.400 . S
C3091 C3090 1.400 . S
C3091 C3092 1.398 . S
C3091 C3097 1.491 . S
C3092 H3083 0.950 . S
C3092 C3091 1.398 . S
C3092 C3093 1.391 . S
C3093 H3081 0.950 . S
C3093 C3089 1.393 . S
C3093 C3092 1.391 . S
C3094 H3084 0.950 . S
C3094 C3095 1.386 . S
C3094 C3096 1.391 . S
C3095 C3094 1.386 . S
C3095 C3099 1.393 . S
C3096 H3085 0.950 . S
C3096 C3094 1.391 . S
C3096 C3097 1.400 . S
C3097 C3091 1.491 . S
C3097 C3096 1.400 . S
C3097 C3098 1.398 . S
C3098 H3086 0.950 . S
C3098 C3097 1.398 . S
C3098 C3099 1.391 . S
C3099 H3087 0.950 . S
C3099 C3095 1.393 . S
C3099 C3098 1.391 . S
H3100 C3108 0.950 . S
H3101 C3113 0.950 . S
H3102 C3110 0.950 . S
H3103 C3112 0.950 . S
H3104 C3114 0.950 . S
H3105 C3116 0.950 . S
H3106 C3118 0.950 . S
H3107 C3119 0.950 . S
C3108 H3100 0.950 . S
C3108 C3109 1.386 . S
C3108 C3110 1.391 . S
C3109 C3108 1.386 . S
C3109 C3113 1.393 . S
C3110 H3102 0.950 . S
C3110 C3108 1.391 . S
C3110 C3111 1.400 . S
C3111 C3110 1.400 . S
C3111 C3112 1.398 . S
C3111 C3117 1.491 . S
C3112 H3103 0.950 . S
C3112 C3111 1.398 . S
C3112 C3113 1.391 . S
C3113 H3101 0.950 . S
C3113 C3109 1.393 . S
C3113 C3112 1.391 . S
C3114 H3104 0.950 . S
C3114 C3115 1.386 . S
C3114 C3116 1.391 . S
C3115 C3114 1.386 . S
C3115 C3119 1.393 . S
C3116 H3105 0.950 . S
C3116 C3114 1.391 . S
C3116 C3117 1.400 . S
C3117 C3111 1.491 . S
C3117 C3116 1.400 . S
C3117 C3118 1.398 . S
C3118 H3106 0.950 . S
C3118 C3117 1.398 . S
C3118 C3119 1.391 . S
C3119 H3107 0.950 . S
C3119 C3115 1.393 . S
C3119 C3118 1.391 . S
H3120 C3128 0.950 . S
H3121 C3133 0.950 . S
H3122 C3130 0.950 . S
H3123 C3132 0.950 . S
H3124 C3134 0.950 . S
H3125 C3136 0.950 . S
H3126 C3138 0.950 . S
H3127 C3139 0.950 . S
C3128 H3120 0.950 . S
C3128 C3129 1.386 . S
C3128 C3130 1.391 . S
C3129 C3128 1.386 . S
C3129 C3133 1.393 . S
C3130 H3122 0.950 . S
C3130 C3128 1.391 . S
C3130 C3131 1.400 . S
C3131 C3130 1.400 . S
C3131 C3132 1.398 . S
C3131 C3137 1.491 . S
C3132 H3123 0.950 . S
C3132 C3131 1.398 . S
C3132 C3133 1.391 . S
C3133 H3121 0.950 . S
C3133 C3129 1.393 . S
C3133 C3132 1.391 . S
C3134 H3124 0.950 . S
C3134 C3135 1.386 . S
C3134 C3136 1.391 . S
C3135 C3134 1.386 . S
C3135 C3139 1.393 . S
C3136 H3125 0.950 . S
C3136 C3134 1.391 . S
C3136 C3137 1.400 . S
C3137 C3131 1.491 . S
C3137 C3136 1.400 . S
C3137 C3138 1.398 . S
C3138 H3126 0.950 . S
C3138 C3137 1.398 . S
C3138 C3139 1.391 . S
C3139 H3127 0.950 . S
C3139 C3135 1.393 . S
C3139 C3138 1.391 . S
H3140 C3148 0.950 . S
H3141 C3153 0.950 . S
H3142 C3150 0.950 . S
H3143 C3152 0.950 . S
H3144 C3154 0.950 . S
H3145 C3156 0.950 . S
H3146 C3158 0.950 . S
H3147 C3159 0.950 . S
C3148 H3140 0.950 . S
C3148 C3149 1.386 . S
C3148 C3150 1.391 . S
C3149 C3148 1.386 . S
C3149 C3153 1.393 . S
C3150 H3142 0.950 . S
C3150 C3148 1.391 . S
C3150 C3151 1.400 . S
C3151 C3150 1.400 . S
C3151 C3152 1.398 . S
C3151 C3157 1.491 . S
C3152 H3143 0.950 . S
C3152 C3151 1.398 . S
C3152 C3153 1.391 . S
C3153 H3141 0.950 . S
C3153 C3149 1.393 . S
C3153 C3152 1.391 . S
C3154 H3144 0.950 . S
C3154 C3155 1.386 . S
C3154 C3156 1.391 . S
C3155 C3154 1.386 . S
C3155 C3159 1.393 . S
C3156 H3145 0.950 . S
C3156 C3154 1.391 . S
C3156 C3157 1.400 . S
C3157 C3151 1.491 . S
C3157 C3156 1.400 . S
C3157 C3158 1.398 . S
C3158 H3146 0.950 . S
C3158 C3157 1.398 . S
C3158 C3159 1.391 . S
C3159 H3147 0.950 . S
C3159 C3155 1.393 . S
C3159 C3158 1.391 . S
H3160 C3168 0.950 . S
H3161 C3173 0.950 . S
H3162 C3170 0.950 . S
H3163 C3172 0.950 . S
H3164 C3174 0.950 . S
H3165 C3176 0.950 . S
H3166 C3178 0.950 . S
H3167 C3179 0.950 . S
C3168 H3160 0.950 . S
C3168 C3169 1.386 . S
C3168 C3170 1.391 . S
C3169 C3168 1.386 . S
C3169 C3173 1.393 . S
C3170 H3162 0.950 . S
C3170 C3168 1.391 . S
C3170 C3171 1.400 . S
C3171 C3170 1.400 . S
C3171 C3172 1.398 . S
C3171 C3177 1.491 . S
C3172 H3163 0.950 . S
C3172 C3171 1.398 . S
C3172 C3173 1.391 . S
C3173 H3161 0.950 . S
C3173 C3169 1.393 . S
C3173 C3172 1.391 . S
C3174 H3164 0.950 . S
C3174 C3175 1.386 . S
C3174 C3176 1.391 . S
C3175 C3174 1.386 . S
C3175 C3179 1.393 . S
C3176 H3165 0.950 . S
C3176 C3174 1.391 . S
C3176 C3177 1.400 . S
C3177 C3171 1.491 . S
C3177 C3176 1.400 . S
C3177 C3178 1.398 . S
C3178 H3166 0.950 . S
C3178 C3177 1.398 . S
C3178 C3179 1.391 . S
C3179 H3167 0.950 . S
C3179 C3175 1.393 . S
C3179 C3178 1.391 . S
H3180 C3188 0.950 . S
H3181 C3193 0.950 . S
H3182 C3190 0.950 . S
H3183 C3192 0.950 . S
H3184 C3194 0.950 . S
H3185 C3196 0.950 . S
H3186 C3198 0.950 . S
H3187 C3199 0.950 . S
C3188 H3180 0.950 . S
C3188 C3189 1.386 . S
C3188 C3190 1.391 . S
C3189 C3188 1.386 . S
C3189 C3193 1.393 . S
C3190 H3182 0.950 . S
C3190 C3188 1.391 . S
C3190 C3191 1.400 . S
C3191 C3190 1.400 . S
C3191 C3192 1.398 . S
C3191 C3197 1.491 . S
C3192 H3183 0.950 . S
C3192 C3191 1.398 . S
C3192 C3193 1.391 . S
C3193 H3181 0.950 . S
C3193 C3189 1.393 . S
C3193 C3192 1.391 . S
C3194 H3184 0.950 . S
C3194 C3195 1.386 . S
C3194 C3196 1.391 . S
C3195 C3194 1.386 . S
C3195 C3199 1.393 . S
C3196 H3185 0.950 . S
C3196 C3194 1.391 . S
C3196 C3197 1.400 . S
C3197 C3191 1.491 . S
C3197 C3196 1.400 . S
C3197 C3198 1.398 . S
C3198 H3186 0.950 . S
C3198 C3197 1.398 . S
C3198 C3199 1.391 . S
C3199 H3187 0.950 . S
C3199 C3195 1.393 . S
C3199 C3198 1.391 . S
H3200 C3208 0.950 . S
H3201 C3213 0.950 . S
H3202 C3210 0.950 . S
H3203 C3212 0.950 . S
H3204 C3214 0.947 . S
H3205 C3216 0.950 . S
H3206 C3218 0.950 . S
H3207 C3219 0.950 . S
C3208 H3200 0.950 . S
C3208 C3209 1.386 . S
C3208 C3210 1.391 . S
C3209 C3208 1.386 . S
C3209 C3213 1.393 . S
C3210 H3202 0.950 . S
C3210 C3208 1.391 . S
C3210 C3211 1.400 . S
C3211 C3210 1.400 . S
C3211 C3212 1.398 . S
C3211 C3217 1.491 . S
C3212 H3203 0.950 . S
C3212 C3211 1.398 . S
C3212 C3213 1.391 . S
C3213 H3201 0.950 . S
C3213 C3209 1.393 . S
C3213 C3212 1.391 . S
C3214 H3204 0.947 . S
C3214 C3215 1.386 1_554 S
C3214 C3216 1.393 1_554 S
C3215 C3214 1.386 1_556 S
C3215 C3219 1.393 . S
C3216 H3205 0.950 . S
C3216 C3214 1.393 1_556 S
C3216 C3217 1.400 . S
C3217 C3211 1.491 . S
C3217 C3216 1.400 . S
C3217 C3218 1.398 . S
C3218 H3206 0.950 . S
C3218 C3217 1.398 . S
C3218 C3219 1.391 . S
C3219 H3207 0.950 . S
C3219 C3215 1.393 . S
C3219 C3218 1.391 . S
H3220 C3228 0.950 . S
H3221 C3233 0.950 . S
H3222 C3230 0.950 . S
H3223 C3232 0.950 . S
H3224 C3234 0.950 . S
H3225 C3236 0.950 . S
H3226 C3238 0.950 . S
H3227 C3239 0.950 . S
C3228 H3220 0.950 . S
C3228 C3229 1.386 . S
C3228 C3230 1.391 . S
C3229 C3228 1.386 . S
C3229 C3233 1.393 . S
C3230 H3222 0.950 . S
C3230 C3228 1.391 . S
C3230 C3231 1.400 . S
C3231 C3230 1.400 . S
C3231 C3232 1.398 . S
C3231 C3237 1.491 . S
C3232 H3223 0.950 . S
C3232 C3231 1.398 . S
C3232 C3233 1.391 . S
C3233 H3221 0.950 . S
C3233 C3229 1.393 . S
C3233 C3232 1.391 . S
C3234 H3224 0.950 . S
C3234 C3235 1.386 . S
C3234 C3236 1.391 . S
C3235 C3234 1.386 . S
C3235 C3239 1.393 . S
C3236 H3225 0.950 . S
C3236 C3234 1.391 . S
C3236 C3237 1.400 . S
C3237 C3231 1.491 . S
C3237 C3236 1.400 . S
C3237 C3238 1.398 . S
C3238 H3226 0.950 . S
C3238 C3237 1.398 . S
C3238 C3239 1.391 . S
C3239 H3227 0.950 . S
C3239 C3235 1.393 . S
C3239 C3238 1.391 . S
H3240 C3248 0.950 . S
H3241 C3253 0.950 . S
H3242 C3250 0.950 . S
H3243 C3252 0.950 . S
H3244 C3254 0.950 . S
H3245 C3256 0.950 . S
H3246 C3258 0.950 . S
H3247 C3259 0.950 . S
C3248 H3240 0.950 . S
C3248 C3249 1.386 . S
C3248 C3250 1.391 . S
C3249 C3248 1.386 . S
C3249 C3253 1.393 . S
C3250 H3242 0.950 . S
C3250 C3248 1.391 . S
C3250 C3251 1.400 . S
C3251 C3250 1.400 . S
C3251 C3252 1.398 . S
C3251 C3257 1.491 . S
C3252 H3243 0.950 . S
C3252 C3251 1.398 . S
C3252 C3253 1.391 . S
C3253 H3241 0.950 . S
C3253 C3249 1.393 . S
C3253 C3252 1.391 . S
C3254 H3244 0.950 . S
C3254 C3255 1.386 . S
C3254 C3256 1.391 . S
C3255 C3254 1.386 . S
C3255 C3259 1.393 . S
C3256 H3245 0.950 . S
C3256 C3254 1.391 . S
C3256 C3257 1.400 . S
C3257 C3251 1.491 . S
C3257 C3256 1.400 . S
C3257 C3258 1.398 . S
C3258 H3246 0.950 . S
C3258 C3257 1.398 . S
C3258 C3259 1.391 . S
C3259 H3247 0.950 . S
C3259 C3255 1.393 . S
C3259 C3258 1.391 . S
H3260 C3268 0.950 . S
H3261 C3273 0.950 . S
H3262 C3270 0.950 . S
H3263 C3272 0.950 . S
H3264 C3274 0.950 . S
H3265 C3276 0.950 . S
H3266 C3278 0.950 . S
H3267 C3279 0.950 . S
C3268 H3260 0.950 . S
C3268 C3269 1.386 . S
C3268 C3270 1.391 . S
C3269 C3268 1.386 . S
C3269 C3273 1.393 . S
C3270 H3262 0.950 . S
C3270 C3268 1.391 . S
C3270 C3271 1.400 . S
C3271 C3270 1.400 . S
C3271 C3272 1.398 . S
C3271 C3277 1.491 . S
C3272 H3263 0.950 . S
C3272 C3271 1.398 . S
C3272 C3273 1.391 . S
C3273 H3261 0.950 . S
C3273 C3269 1.393 . S
C3273 C3272 1.391 . S
C3274 H3264 0.950 . S
C3274 C3275 1.386 . S
C3274 C3276 1.391 . S
C3275 C3274 1.386 . S
C3275 C3279 1.393 . S
C3276 H3265 0.950 . S
C3276 C3274 1.391 . S
C3276 C3277 1.400 . S
C3277 C3271 1.491 . S
C3277 C3276 1.400 . S
C3277 C3278 1.398 . S
C3278 H3266 0.950 . S
C3278 C3277 1.398 . S
C3278 C3279 1.391 . S
C3279 H3267 0.950 . S
C3279 C3275 1.393 . S
C3279 C3278 1.391 . S
H3280 C3288 0.950 . S
H3281 C3293 0.950 . S
H3282 C3290 0.950 . S
H3283 C3292 0.950 . S
H3284 C3294 0.950 . S
H3285 C3296 0.950 . S
H3286 C3298 0.950 . S
H3287 C3299 0.950 . S
C3288 H3280 0.950 . S
C3288 C3289 1.386 . S
C3288 C3290 1.391 . S
C3289 C3288 1.386 . S
C3289 C3293 1.393 . S
C3290 H3282 0.950 . S
C3290 C3288 1.391 . S
C3290 C3291 1.400 . S
C3291 C3290 1.400 . S
C3291 C3292 1.398 . S
C3291 C3297 1.491 . S
C3292 H3283 0.950 . S
C3292 C3291 1.398 . S
C3292 C3293 1.391 . S
C3293 H3281 0.950 . S
C3293 C3289 1.393 . S
C3293 C3292 1.391 . S
C3294 H3284 0.950 . S
C3294 C3295 1.386 . S
C3294 C3296 1.391 . S
C3295 C3294 1.386 . S
C3295 C3299 1.393 . S
C3296 H3285 0.950 . S
C3296 C3294 1.391 . S
C3296 C3297 1.400 . S
C3297 C3291 1.491 . S
C3297 C3296 1.400 . S
C3297 C3298 1.398 . S
C3298 H3286 0.950 . S
C3298 C3297 1.398 . S
C3298 C3299 1.391 . S
C3299 H3287 0.950 . S
C3299 C3295 1.393 . S
C3299 C3298 1.391 . S
H3300 C3308 0.950 . S
H3301 C3313 0.950 . S
H3302 C3310 0.950 . S
H3303 C3312 0.950 . S
H3304 C3314 0.950 . S
H3305 C3316 0.950 . S
H3306 C3318 0.950 . S
H3307 C3319 0.950 . S
C3308 H3300 0.950 . S
C3308 C3309 1.386 . S
C3308 C3310 1.391 . S
C3309 C3308 1.386 . S
C3309 C3313 1.393 . S
C3310 H3302 0.950 . S
C3310 C3308 1.391 . S
C3310 C3311 1.400 . S
C3311 C3310 1.400 . S
C3311 C3312 1.398 . S
C3311 C3317 1.491 . S
C3312 H3303 0.950 . S
C3312 C3311 1.398 . S
C3312 C3313 1.391 . S
C3313 H3301 0.950 . S
C3313 C3309 1.393 . S
C3313 C3312 1.391 . S
C3314 H3304 0.950 . S
C3314 C3315 1.386 . S
C3314 C3316 1.391 . S
C3315 C3314 1.386 . S
C3315 C3319 1.393 . S
C3316 H3305 0.950 . S
C3316 C3314 1.391 . S
C3316 C3317 1.400 . S
C3317 C3311 1.491 . S
C3317 C3316 1.400 . S
C3317 C3318 1.398 . S
C3318 H3306 0.950 . S
C3318 C3317 1.398 . S
C3318 C3319 1.391 . S
C3319 H3307 0.950 . S
C3319 C3315 1.393 . S
C3319 C3318 1.391 . S
H3320 C3328 0.950 . S
H3321 C3333 0.950 . S
H3322 C3330 0.950 1_455 S
H3323 C3332 0.950 . S
H3324 C3334 0.950 . S
H3325 C3336 0.950 . S
H3326 C3338 0.950 . S
H3327 C3339 0.950 . S
C3328 H3320 0.950 . S
C3328 C3329 1.386 . S
C3328 C3330 1.391 . S
C3329 C3328 1.386 . S
C3329 C3333 1.393 . S
C3330 H3322 0.950 1_655 S
C3330 C3328 1.391 . S
C3330 C3331 1.400 . S
C3331 C3330 1.400 . S
C3331 C3332 1.398 . S
C3331 C3337 1.491 1_655 S
C3332 H3323 0.950 . S
C3332 C3331 1.398 . S
C3332 C3333 1.391 . S
C3333 H3321 0.950 . S
C3333 C3329 1.393 . S
C3333 C3332 1.391 . S
C3334 H3324 0.950 . S
C3334 C3335 1.386 . S
C3334 C3336 1.391 1_455 S
C3335 C3334 1.386 . S
C3335 C3339 1.393 . S
C3336 H3325 0.950 . S
C3336 C3334 1.391 1_655 S
C3336 C3337 1.400 1_655 S
C3337 C3331 1.491 1_455 S
C3337 C3336 1.400 1_455 S
C3337 C3338 1.398 . S
C3338 H3326 0.950 . S
C3338 C3337 1.398 . S
C3338 C3339 1.391 . S
C3339 H3327 0.950 . S
C3339 C3335 1.393 . S
C3339 C3338 1.391 . S
H3340 C3348 0.950 . S
H3341 C3353 0.950 . S
H3342 C3350 0.950 . S
H3343 C3352 0.950 . S
H3344 C3354 0.950 . S
H3345 C3356 0.950 . S
H3346 C3358 0.950 . S
H3347 C3359 0.950 . S
C3348 H3340 0.950 . S
C3348 C3349 1.386 . S
C3348 C3350 1.391 . S
C3349 C3348 1.386 . S
C3349 C3353 1.393 . S
C3350 H3342 0.950 . S
C3350 C3348 1.391 . S
C3350 C3351 1.400 . S
C3351 C3350 1.400 . S
C3351 C3352 1.398 . S
C3351 C3357 1.491 . S
C3352 H3343 0.950 . S
C3352 C3351 1.398 . S
C3352 C3353 1.391 . S
C3353 H3341 0.950 . S
C3353 C3349 1.393 . S
C3353 C3352 1.391 . S
C3354 H3344 0.950 . S
C3354 C3355 1.386 . S
C3354 C3356 1.391 . S
C3355 C3354 1.386 . S
C3355 C3359 1.393 . S
C3356 H3345 0.950 . S
C3356 C3354 1.391 . S
C3356 C3357 1.400 . S
C3357 C3351 1.491 . S
C3357 C3356 1.400 . S
C3357 C3358 1.398 . S
C3358 H3346 0.950 . S
C3358 C3357 1.398 . S
C3358 C3359 1.391 . S
C3359 H3347 0.950 . S
C3359 C3355 1.393 . S
C3359 C3358 1.391 . S
H3360 C3368 0.950 . S
H3361 C3373 0.950 . S
H3362 C3370 0.950 . S
H3363 C3372 0.950 . S
H3364 C3374 0.950 . S
H3365 C3376 0.950 . S
H3366 C3378 0.950 . S
H3367 C3379 0.950 . S
C3368 H3360 0.950 . S
C3368 C3369 1.386 . S
C3368 C3370 1.391 . S
C3369 C3368 1.386 . S
C3369 C3373 1.393 . S
C3370 H3362 0.950 . S
C3370 C3368 1.391 . S
C3370 C3371 1.400 . S
C3371 C3370 1.400 . S
C3371 C3372 1.398 . S
C3371 C3377 1.491 . S
C3372 H3363 0.950 . S
C3372 C3371 1.398 . S
C3372 C3373 1.391 . S
C3373 H3361 0.950 . S
C3373 C3369 1.393 . S
C3373 C3372 1.391 . S
C3374 H3364 0.950 . S
C3374 C3375 1.386 . S
C3374 C3376 1.391 . S
C3375 C3374 1.386 . S
C3375 C3379 1.393 . S
C3376 H3365 0.950 . S
C3376 C3374 1.391 . S
C3376 C3377 1.400 . S
C3377 C3371 1.491 . S
C3377 C3376 1.400 . S
C3377 C3378 1.398 . S
C3378 H3366 0.950 . S
C3378 C3377 1.398 . S
C3378 C3379 1.391 . S
C3379 H3367 0.950 . S
C3379 C3375 1.393 . S
C3379 C3378 1.391 . S
H3380 C3388 0.950 . S
H3381 C3393 0.950 . S
H3382 C3390 0.950 . S
H3383 C3392 0.950 . S
H3384 C3394 0.950 . S
H3385 C3396 0.950 . S
H3386 C3398 0.950 . S
H3387 C3399 0.950 . S
C3388 H3380 0.950 . S
C3388 C3389 1.386 . S
C3388 C3390 1.391 . S
C3389 C3388 1.386 . S
C3389 C3393 1.393 . S
C3390 H3382 0.950 . S
C3390 C3388 1.391 . S
C3390 C3391 1.400 . S
C3391 C3390 1.400 . S
C3391 C3392 1.398 . S
C3391 C3397 1.491 . S
C3392 H3383 0.950 . S
C3392 C3391 1.398 . S
C3392 C3393 1.391 . S
C3393 H3381 0.950 . S
C3393 C3389 1.393 . S
C3393 C3392 1.391 . S
C3394 H3384 0.950 . S
C3394 C3395 1.386 . S
C3394 C3396 1.391 . S
C3395 C3394 1.386 . S
C3395 C3399 1.393 . S
C3396 H3385 0.950 . S
C3396 C3394 1.391 . S
C3396 C3397 1.400 . S
C3397 C3391 1.491 . S
C3397 C3396 1.400 . S
C3397 C3398 1.398 . S
C3398 H3386 0.950 . S
C3398 C3397 1.398 . S
C3398 C3399 1.391 . S
C3399 H3387 0.950 . S
C3399 C3395 1.393 . S
C3399 C3398 1.391 . S
H3400 C3408 0.950 . S
H3401 C3413 0.950 . S
H3402 C3410 0.950 . S
H3403 C3412 0.950 . S
H3404 C3414 0.950 . S
H3405 C3416 0.950 . S
H3406 C3418 0.950 . S
H3407 C3419 0.950 . S
C3408 H3400 0.950 . S
C3408 C3409 1.386 . S
C3408 C3410 1.391 . S
C3409 C3408 1.386 . S
C3409 C3413 1.393 . S
C3410 H3402 0.950 . S
C3410 C3408 1.391 . S
C3410 C3411 1.400 . S
C3411 C3410 1.400 . S
C3411 C3412 1.398 . S
C3411 C3417 1.491 . S
C3412 H3403 0.950 . S
C3412 C3411 1.398 . S
C3412 C3413 1.391 . S
C3413 H3401 0.950 . S
C3413 C3409 1.393 . S
C3413 C3412 1.391 . S
C3414 H3404 0.950 . S
C3414 C3415 1.386 . S
C3414 C3416 1.391 . S
C3415 C3414 1.386 . S
C3415 C3419 1.393 1_455 S
C3416 H3405 0.950 . S
C3416 C3414 1.391 . S
C3416 C3417 1.400 1_455 S
C3417 C3411 1.491 . S
C3417 C3416 1.400 1_655 S
C3417 C3418 1.398 . S
C3418 H3406 0.950 . S
C3418 C3417 1.398 . S
C3418 C3419 1.391 . S
C3419 H3407 0.950 . S
C3419 C3415 1.393 1_655 S
C3419 C3418 1.391 . S
H3420 C3428 0.950 . S
H3421 C3433 0.950 . S
H3422 C3430 0.950 . S
H3423 C3432 0.950 . S
H3424 C3434 0.950 . S
H3425 C3436 0.950 . S
H3426 C3438 0.950 . S
H3427 C3439 0.950 . S
C3428 H3420 0.950 . S
C3428 C3429 1.386 . S
C3428 C3430 1.391 . S
C3429 C3428 1.386 . S
C3429 C3433 1.393 . S
C3430 H3422 0.950 . S
C3430 C3428 1.391 . S
C3430 C3431 1.400 . S
C3431 C3430 1.400 . S
C3431 C3432 1.398 . S
C3431 C3437 1.491 . S
C3432 H3423 0.950 . S
C3432 C3431 1.398 . S
C3432 C3433 1.391 . S
C3433 H3421 0.950 . S
C3433 C3429 1.393 . S
C3433 C3432 1.391 . S
C3434 H3424 0.950 . S
C3434 C3435 1.386 . S
C3434 C3436 1.391 . S
C3435 C3434 1.386 . S
C3435 C3439 1.393 . S
C3436 H3425 0.950 . S
C3436 C3434 1.391 . S
C3436 C3437 1.400 . S
C3437 C3431 1.491 . S
C3437 C3436 1.400 . S
C3437 C3438 1.398 . S
C3438 H3426 0.950 . S
C3438 C3437 1.398 . S
C3438 C3439 1.391 . S
C3439 H3427 0.950 . S
C3439 C3435 1.393 . S
C3439 C3438 1.391 . S
H3440 C3448 0.950 . S
H3441 C3453 0.950 . S
H3442 C3450 0.950 . S
H3443 C3452 0.950 . S
H3444 C3454 0.950 . S
H3445 C3456 0.950 . S
H3446 C3458 0.950 . S
H3447 C3459 0.950 . S
C3448 H3440 0.950 . S
C3448 C3449 1.386 . S
C3448 C3450 1.391 . S
C3449 C3448 1.386 . S
C3449 C3453 1.393 . S
C3450 H3442 0.950 . S
C3450 C3448 1.391 . S
C3450 C3451 1.400 . S
C3451 C3450 1.400 . S
C3451 C3452 1.398 . S
C3451 C3457 1.491 . S
C3452 H3443 0.950 . S
C3452 C3451 1.398 . S
C3452 C3453 1.391 . S
C3453 H3441 0.950 . S
C3453 C3449 1.393 . S
C3453 C3452 1.391 . S
C3454 H3444 0.950 . S
C3454 C3455 1.386 . S
C3454 C3456 1.391 . S
C3455 C3454 1.386 . S
C3455 C3459 1.393 . S
C3456 H3445 0.950 . S
C3456 C3454 1.391 . S
C3456 C3457 1.400 . S
C3457 C3451 1.491 . S
C3457 C3456 1.400 . S
C3457 C3458 1.398 . S
C3458 H3446 0.950 . S
C3458 C3457 1.398 . S
C3458 C3459 1.391 . S
C3459 H3447 0.950 . S
C3459 C3455 1.393 . S
C3459 C3458 1.391 . S
H3460 C3468 0.950 . S
H3461 C3473 0.950 . S
H3462 C3470 0.950 . S
H3463 C3472 0.950 . S
H3464 C3474 0.950 . S
H3465 C3476 0.950 . S
H3466 C3478 0.950 . S
H3467 C3479 0.950 . S
C3468 H3460 0.950 . S
C3468 C3469 1.386 . S
C3468 C3470 1.391 . S
C3469 C3468 1.386 . S
C3469 C3473 1.393 . S
C3470 H3462 0.950 . S
C3470 C3468 1.391 . S
C3470 C3471 1.400 . S
C3471 C3470 1.400 . S
C3471 C3472 1.398 . S
C3471 C3477 1.491 . S
C3472 H3463 0.950 . S
C3472 C3471 1.398 . S
C3472 C3473 1.391 . S
C3473 H3461 0.950 . S
C3473 C3469 1.393 . S
C3473 C3472 1.391 . S
C3474 H3464 0.950 . S
C3474 C3475 1.386 . S
C3474 C3476 1.391 . S
C3475 C3474 1.386 . S
C3475 C3479 1.393 1_565 S
C3476 H3465 0.950 . S
C3476 C3474 1.391 . S
C3476 C3477 1.400 . S
C3477 C3471 1.491 . S
C3477 C3476 1.400 . S
C3477 C3478 1.398 . S
C3478 H3466 0.950 . S
C3478 C3477 1.398 . S
C3478 C3479 1.391 1_565 S
C3479 H3467 0.950 . S
C3479 C3475 1.393 1_545 S
C3479 C3478 1.391 1_545 S
H3480 C3488 0.950 . S
H3481 C3493 0.950 . S
H3482 C3490 0.950 . S
H3483 C3492 0.950 . S
H3484 C3494 0.950 . S
H3485 C3496 0.950 . S
H3486 C3498 0.950 . S
H3487 C3499 0.950 . S
C3488 H3480 0.950 . S
C3488 C3489 1.386 . S
C3488 C3490 1.391 . S
C3489 C3488 1.386 . S
C3489 C3493 1.393 . S
C3490 H3482 0.950 . S
C3490 C3488 1.391 . S
C3490 C3491 1.400 . S
C3491 C3490 1.400 . S
C3491 C3492 1.398 . S
C3491 C3497 1.491 . S
C3492 H3483 0.950 . S
C3492 C3491 1.398 . S
C3492 C3493 1.391 . S
C3493 H3481 0.950 . S
C3493 C3489 1.393 . S
C3493 C3492 1.391 . S
C3494 H3484 0.950 . S
C3494 C3495 1.386 . S
C3494 C3496 1.391 . S
C3495 C3494 1.386 . S
C3495 C3499 1.393 . S
C3496 H3485 0.950 . S
C3496 C3494 1.391 . S
C3496 C3497 1.400 . S
C3497 C3491 1.491 . S
C3497 C3496 1.400 . S
C3497 C3498 1.398 . S
C3498 H3486 0.950 . S
C3498 C3497 1.398 . S
C3498 C3499 1.391 . S
C3499 H3487 0.950 . S
C3499 C3495 1.393 . S
C3499 C3498 1.391 . S
H3500 C3508 0.950 . S
H3501 C3513 0.950 . S
H3502 C3510 0.950 . S
H3503 C3512 0.950 . S
H3504 C3514 0.950 . S
H3505 C3516 0.950 . S
H3506 C3518 0.950 . S
H3507 C3519 0.950 . S
C3508 H3500 0.950 . S
C3508 C3509 1.386 . S
C3508 C3510 1.391 . S
C3509 C3508 1.386 . S
C3509 C3513 1.393 . S
C3510 H3502 0.950 . S
C3510 C3508 1.391 . S
C3510 C3511 1.400 . S
C3511 C3510 1.400 . S
C3511 C3512 1.398 . S
C3511 C3517 1.491 . S
C3512 H3503 0.950 . S
C3512 C3511 1.398 . S
C3512 C3513 1.391 . S
C3513 H3501 0.950 . S
C3513 C3509 1.393 . S
C3513 C3512 1.391 . S
C3514 H3504 0.950 . S
C3514 C3515 1.386 . S
C3514 C3516 1.391 . S
C3515 C3514 1.386 . S
C3515 C3519 1.393 . S
C3516 H3505 0.950 . S
C3516 C3514 1.391 . S
C3516 C3517 1.400 . S
C3517 C3511 1.491 . S
C3517 C3516 1.400 . S
C3517 C3518 1.398 . S
C3518 H3506 0.950 . S
C3518 C3517 1.398 . S
C3518 C3519 1.391 . S
C3519 H3507 0.950 . S
C3519 C3515 1.393 . S
C3519 C3518 1.391 . S
H3520 C3528 0.950 . S
H3521 C3533 0.950 . S
H3522 C3530 0.950 . S
H3523 C3532 0.950 . S
H3524 C3534 0.950 . S
H3525 C3536 0.950 . S
H3526 C3538 0.950 . S
H3527 C3539 0.950 . S
C3528 H3520 0.950 . S
C3528 C3529 1.386 . S
C3528 C3530 1.391 . S
C3529 C3528 1.386 . S
C3529 C3533 1.393 . S
C3530 H3522 0.950 . S
C3530 C3528 1.391 . S
C3530 C3531 1.400 . S
C3531 C3530 1.400 . S
C3531 C3532 1.398 . S
C3531 C3537 1.491 . S
C3532 H3523 0.950 . S
C3532 C3531 1.398 . S
C3532 C3533 1.391 . S
C3533 H3521 0.950 . S
C3533 C3529 1.393 . S
C3533 C3532 1.391 . S
C3534 H3524 0.950 . S
C3534 C3535 1.386 . S
C3534 C3536 1.391 . S
C3535 C3534 1.386 . S
C3535 C3539 1.393 . S
C3536 H3525 0.950 . S
C3536 C3534 1.391 . S
C3536 C3537 1.400 . S
C3537 C3531 1.491 . S
C3537 C3536 1.400 . S
C3537 C3538 1.398 . S
C3538 H3526 0.950 . S
C3538 C3537 1.398 . S
C3538 C3539 1.391 . S
C3539 H3527 0.950 . S
C3539 C3535 1.393 . S
C3539 C3538 1.391 . S
H3540 C3548 0.950 . S
H3541 C3553 0.950 . S
H3542 C3550 0.950 . S
H3543 C3552 0.950 . S
H3544 C3554 0.950 . S
H3545 C3556 0.950 . S
H3546 C3558 0.950 . S
H3547 C3559 0.950 . S
C3548 H3540 0.950 . S
C3548 C3549 1.386 . S
C3548 C3550 1.391 . S
C3549 C3548 1.386 . S
C3549 C3553 1.393 . S
C3550 H3542 0.950 . S
C3550 C3548 1.391 . S
C3550 C3551 1.400 . S
C3551 C3550 1.400 . S
C3551 C3552 1.398 . S
C3551 C3557 1.491 . S
C3552 H3543 0.950 . S
C3552 C3551 1.398 . S
C3552 C3553 1.391 . S
C3553 H3541 0.950 . S
C3553 C3549 1.393 . S
C3553 C3552 1.391 . S
C3554 H3544 0.950 . S
C3554 C3555 1.386 . S
C3554 C3556 1.391 . S
C3555 C3554 1.386 . S
C3555 C3559 1.393 . S
C3556 H3545 0.950 . S
C3556 C3554 1.391 . S
C3556 C3557 1.400 . S
C3557 C3551 1.491 . S
C3557 C3556 1.400 . S
C3557 C3558 1.398 . S
C3558 H3546 0.950 . S
C3558 C3557 1.398 . S
C3558 C3559 1.391 . S
C3559 H3547 0.950 . S
C3559 C3555 1.393 . S
C3559 C3558 1.391 . S
H3560 C3568 0.950 . S
H3561 C3573 0.950 . S
H3562 C3570 0.950 . S
H3563 C3572 0.950 . S
H3564 C3574 0.950 . S
H3565 C3576 0.950 . S
H3566 C3578 0.950 . S
H3567 C3579 0.950 . S
C3568 H3560 0.950 . S
C3568 C3569 1.386 . S
C3568 C3570 1.391 . S
C3569 C3568 1.386 . S
C3569 C3573 1.393 . S
C3570 H3562 0.950 . S
C3570 C3568 1.391 . S
C3570 C3571 1.400 . S
C3571 C3570 1.400 . S
C3571 C3572 1.398 . S
C3571 C3577 1.491 . S
C3572 H3563 0.950 . S
C3572 C3571 1.398 . S
C3572 C3573 1.391 . S
C3573 H3561 0.950 . S
C3573 C3569 1.393 . S
C3573 C3572 1.391 . S
C3574 H3564 0.950 . S
C3574 C3575 1.386 . S
C3574 C3576 1.391 . S
C3575 C3574 1.386 . S
C3575 C3579 1.393 . S
C3576 H3565 0.950 . S
C3576 C3574 1.391 . S
C3576 C3577 1.400 . S
C3577 C3571 1.491 . S
C3577 C3576 1.400 . S
C3577 C3578 1.398 . S
C3578 H3566 0.950 . S
C3578 C3577 1.398 . S
C3578 C3579 1.391 . S
C3579 H3567 0.950 . S
C3579 C3575 1.393 . S
C3579 C3578 1.391 . S
H3580 C3588 0.950 . S
H3581 C3593 0.950 . S
H3582 C3590 0.950 . S
H3583 C3592 0.950 . S
H3584 C3594 0.950 . S
H3585 C3596 0.950 . S
H3586 C3598 0.950 . S
H3587 C3599 0.950 . S
C3588 H3580 0.950 . S
C3588 C3589 1.386 . S
C3588 C3590 1.391 . S
C3589 C3588 1.386 . S
C3589 C3593 1.393 . S
C3590 H3582 0.950 . S
C3590 C3588 1.391 . S
C3590 C3591 1.400 . S
C3591 C3590 1.400 . S
C3591 C3592 1.398 . S
C3591 C3597 1.491 . S
C3592 H3583 0.950 . S
C3592 C3591 1.398 . S
C3592 C3593 1.391 . S
C3593 H3581 0.950 . S
C3593 C3589 1.393 . S
C3593 C3592 1.391 . S
C3594 H3584 0.950 . S
C3594 C3595 1.386 . S
C3594 C3596 1.391 . S
C3595 C3594 1.386 . S
C3595 C3599 1.393 . S
C3596 H3585 0.950 . S
C3596 C3594 1.391 . S
C3596 C3597 1.400 . S
C3597 C3591 1.491 . S
C3597 C3596 1.400 . S
C3597 C3598 1.398 . S
C3598 H3586 0.950 . S
C3598 C3597 1.398 . S
C3598 C3599 1.391 . S
C3599 H3587 0.950 . S
C3599 C3595 1.393 . S
C3599 C3598 1.391 . S
C1689 C106 2.108 . S
C1695 C392 1.976 . S
C1709 C65 2.231 . S
C1715 C483 2.160 . S
C1729 C79 1.841 . S
C1735 C560 1.730 . S
C1755 C658 1.280 . S
C1749 C90 1.329 . S
C1769 C21 1.321 . S
C1775 C742 1.302 . S
C1795 C814 0.960 . S
C1789 C35 0.937 . S
C1815 C903 0.887 . S
C1809 C50 0.876 . S
C1829 C6 1.517 . S
C1835 C980 1.381 . S
C1855 C399 2.194 . S
C1849 C232 2.310 . S
C1869 C245 0.765 . S
C1875 C490 0.712 . S
C1895 C567 1.250 . S
C1889 C274 1.305 . S
C1915 C644 1.511 . S
C1909 C175 1.609 . S
C1929 C231 1.824 . S
C1935 C728 1.731 . S
C1955 C830 1.095 . S
C1949 C246 1.181 . S
C1975 C910 0.676 . S
C1969 C273 0.702 . S
C1995 C987 1.643 . S
C1989 C176 1.771 . S
C2015 C406 1.462 . S
C2009 C160 1.466 . S
C2029 C289 1.948 . S
C2035 C1071 1.878 . S
C2055 C1159 2.274 . S
C2049 C328 2.383 . S
C2075 C1232 0.694 . S
C2069 C317 0.677 . S
C2089 C118 1.087 . S
C2095 C994 1.175 . S
C2109 C132 1.439 . S
C2115 C574 1.448 . S
C2129 C331 2.333 . S
C2135 C1323 2.257 . S
C2155 C1400 0.948 . S
C2149 C303 1.030 . S
C2175 C403 1.611 1_565 S
C2169 C63 1.749 . S
C2195 C1418 2.581 . S
C2189 C107 2.577 . S
C2209 C92 1.683 . S
C2215 C571 1.617 . S
C2229 C78 1.930 . S
C2235 C1318 1.758 . S
C2255 C730 1.741 . S
C2249 C8 1.832 . S
C2269 C51 1.221 . S
C2275 C1162 1.135 . S
C2295 C914 1.376 1_566 S
C2289 C37 1.310 . S
C2315 C1495 1.328 . S
C2309 C20 1.458 . S
C2335 C410 2.077 . S
C2329 C147 2.121 . S
C2355 C1402 0.814 . S
C2349 C316 0.847 . S
C2369 C119 1.176 . S
C2375 C578 1.177 . S
C2389 C288 1.775 . S
C2395 C1327 1.669 . S
C2409 C148 2.327 1_545 S
C2415 C739 2.135 . S
C2435 C1155 1.144 . S
C2429 C315 1.183 . S
C2449 C120 0.964 . S
C2455 C898 0.922 . S
C2469 C287 1.644 . S
C2475 C1502 1.538 . S
C2489 C188 1.372 . S
C2495 C394 1.298 . S
C2509 C177 2.266 . S
C2515 C1082 2.197 . S
C2529 C258 2.512 . S
C2535 C812 2.405 . S
C2549 C247 0.667 . S
C2555 C1243 0.705 . S
C2575 C1486 0.823 . S
C2569 C272 0.780 1_565 S
C2589 C216 1.331 . S
C2595 C562 1.335 . S
C2615 C662 2.471 . S
C2609 C261 2.530 . S
C2635 C487 0.878 . S
C2629 C205 0.932 . S
C2649 C76 1.711 . S
C2655 C1568 1.603 . S
C2675 C1407 2.233 . S
C2669 C93 2.316 . S
C2689 C105 1.498 . S
C2695 C1652 1.401 . S
C2709 C62 1.368 . S
C2715 C1330 1.320 . S
C2729 C49 1.271 . S
C2735 C1078 1.305 . S
C2755 C1150 1.212 . S
C2749 C9 1.293 . S
C2775 C1239 0.831 . S
C2769 C22 0.801 . S
C2795 C1484 1.757 . S
C2789 C36 1.972 . S
C2815 C1575 2.111 . S
C2809 C260 2.225 . S
C2829 C189 0.663 . S
C2835 C1414 0.624 . S
C2855 C1659 1.146 . S
C2849 C204 1.218 . S
C2875 C1316 1.391 . S
C2869 C217 1.466 . S
C2895 C1064 1.994 . S
C2889 C259 2.092 . S
C2909 C190 1.247 . S
C2915 C1166 1.132 . S
C2935 C1246 0.784 . S
C2929 C203 0.813 . S
C2949 C218 1.860 . S
C2955 C1491 1.725 . S
C2975 C1582 1.406 . S
C2969 C314 1.451 . S
C2989 C135 2.045 . S
C2995 C735 1.971 . S
C3015 C823 2.141 . S
C3009 C146 2.278 . S
C3035 C896 0.735 . S
C3029 C163 0.714 . S
C3055 C1498 1.162 . S
C3049 C300 1.035 . S
C3069 C286 1.384 . S
C3075 C1666 1.474 . S
C3095 C651 2.147 . S
C3089 C149 2.231 . S
C3115 C476 0.888 . S
C3109 C121 0.966 . S
C3129 C91 1.738 . S
C3135 C1579 1.616 . S
C3155 C494 2.179 . S
C3149 C77 2.098 . S
C3169 C64 1.649 . S
C3175 C1663 1.608 . S
C3189 C104 1.554 . S
C3195 C646 1.488 . S
C3209 C34 1.459 . S
C3215 C1066 1.444 1_556 S
C3235 C826 1.063 . S
C3229 C23 1.189 . S
C3249 C7 1.006 . S
C3255 C1250 1.066 . S
C3269 C48 1.409 . S
C3275 C991 1.282 . S
C3295 C1586 2.026 . S
C3289 C329 2.103 . S
C3309 C162 0.873 . S
C3315 C478 0.821 . S
C3335 C1670 1.150 1_556 S
C3329 C301 1.161 . S
C3349 C134 1.782 . S
C3355 C655 1.719 . S
C3369 C330 2.294 . S
C3375 C1075 2.105 . S
C3395 C819 1.120 . S
C3389 C161 1.161 . S
C3409 C302 0.986 . S
C3415 C1234 0.915 . S
C3435 C998 1.520 . S
C3429 C133 1.628 . S
C3455 C1570 1.461 . S
C3449 C244 1.547 . S
C3475 C746 2.143 1_665 S
C3469 C219 2.190 . S
C3489 C230 2.192 . S
C3495 C1148 2.065 . S
C3515 C907 0.648 . S
C3509 C191 0.655 . S
C3529 C202 0.949 . S
C3535 C982 0.955 . S
C3549 C174 1.504 . S
C3555 C1654 1.482 . S
C3575 C1334 2.440 . S
C3569 C233 2.488 1_565 S
C3595 C1411 0.895 . S
C3589 C275 0.921 . S
