# Generated by pormake.
# Topology tsx, (6,3)-cn, num edge types: 1
# Building blocks:
#     Node 0, Type 0, BuildingBlock: JUFBIX_clean_sbu_0, # of connection points: 6
#     Node 1, Type 0, BuildingBlock: JUFBIX_clean_sbu_0, # of connection points: 6
#     Node 2, Type 1, BuildingBlock: WUSLED_clean_sbu_0, # of connection points: 3
#     Node 3, Type 1, BuildingBlock: WUSLED_clean_sbu_0, # of connection points: 3
#     Node 4, Type 1, BuildingBlock: WUSLED_clean_sbu_0, # of connection points: 3
#     Node 5, Type 1, BuildingBlock: WUSLED_clean_sbu_0, # of connection points: 3
#     Edge 6, Type (0, 1), BuildingBlock: MIFKUJ_clean_linker_0, # of connection points: 2
#     Edge 7, Type (0, 1), BuildingBlock: MIFKUJ_clean_linker_0, # of connection points: 2
#     Edge 8, Type (0, 1), BuildingBlock: MIFKUJ_clean_linker_0, # of connection points: 2
#     Edge 9, Type (0, 1), BuildingBlock: MIFKUJ_clean_linker_0, # of connection points: 2
#     Edge 10, Type (0, 1), BuildingBlock: MIFKUJ_clean_linker_0, # of connection points: 2
#     Edge 11, Type (0, 1), BuildingBlock: MIFKUJ_clean_linker_0, # of connection points: 2
#     Edge 12, Type (0, 1), BuildingBlock: MIFKUJ_clean_linker_0, # of connection points: 2
#     Edge 13, Type (0, 1), BuildingBlock: MIFKUJ_clean_linker_0, # of connection points: 2
#     Edge 14, Type (0, 1), BuildingBlock: MIFKUJ_clean_linker_0, # of connection points: 2
#     Edge 15, Type (0, 1), BuildingBlock: MIFKUJ_clean_linker_0, # of connection points: 2
#     Edge 16, Type (0, 1), BuildingBlock: MIFKUJ_clean_linker_0, # of connection points: 2
#     Edge 17, Type (0, 1), BuildingBlock: MIFKUJ_clean_linker_0, # of connection points: 2
# Relax obj value: 0.150
# Max RMSD: 0.161
# Mean RMSD: 0.126
data_MOF--net-tsx--node1-JUFBIX_clean_sbu_0--node2-WUSLED_clean_sbu_0--edge1-MIFKUJ_clean_linker_0
_symmetry_space_group_name_H-M    P1
_symmetry_Int_Tables_number       1
_symmetry_cell_setting            triclinic
loop_
_symmetry_equiv_pos_as_xyz
'x, y, z'
_cell_length_a     30.918074
_cell_length_b     36.406799
_cell_length_c     56.799079
_cell_angle_alpha  92.875691
_cell_angle_beta   89.627523
_cell_angle_gamma 96.226374
loop_
_atom_site_label
_atom_site_type_symbol
_atom_site_fract_x
_atom_site_fract_y
_atom_site_fract_z
_atom_type_partial_charge
Co0 Co 0.04582 1.00223 0.01214 0.0
C1 C 1.00664 0.02327 0.97114 0.0
Co2 Co 0.99229 0.03765 0.01817 0.0
C3 C 0.10383 0.94273 0.01215 0.0
C4 C 0.12389 0.98641 0.98928 0.0
N5 N 0.09266 0.97532 0.00487 0.0
N6 N 0.14109 0.93351 1.00181 0.0
C7 C 0.15348 0.96103 0.98741 0.0
H8 H 0.08517 0.92626 0.0248 0.0
H9 H 0.12481 0.0113 0.97958 0.0
C10 C 0.0316 0.01664 0.05919 0.0
N11 N 0.94592 0.06516 0.02488 0.0
C12 C 0.93346 0.09428 0.01374 0.0
C13 C 0.91738 0.06004 0.04278 0.0
N14 N 0.89852 0.10764 0.02416 0.0
C15 C 0.88842 0.08613 0.04245 0.0
C16 C 0.96653 0.96095 0.01574 0.0
O17 O 0.05548 0.9995 0.04506 0.0
O18 O 1.00256 0.03462 0.05093 0.0
O19 O 0.95366 0.99299 0.01834 0.0
O20 O 1.00683 0.95813 0.01243 0.0
O21 O 0.98304 0.04056 0.98527 0.0
H22 H 0.9176 0.03863 0.05531 0.0
H23 H 0.95009 0.1058 0.99852 0.0
O24 O 0.03538 1.00499 0.97933 0.0
O25 O 0.08435 0.04726 0.01215 0.0
O26 O 0.03107 0.0817 0.01822 0.0
C27 C 0.07142 0.07915 0.01527 0.0
H28 H 0.18147 0.96234 0.97582 0.0
H29 H 0.86156 0.08871 0.05452 0.0
Co30 Co 0.54671 0.50232 0.51418 0.0
C31 C 0.51186 0.52211 0.47158 0.0
Co32 Co 0.49135 0.5362 0.5179 0.0
C33 C 0.60486 0.44318 0.51538 0.0
C34 C 0.6294 0.48933 0.49546 0.0
N35 N 0.59532 0.4767 0.50884 0.0
N36 N 0.64381 0.43489 0.50675 0.0
C37 C 0.65908 0.46398 0.49422 0.0
H38 H 0.58362 0.42523 0.52611 0.0
H39 H 0.63211 0.51509 0.4866 0.0
C40 C 0.52616 0.51644 0.5605 0.0
N41 N 0.44302 0.56199 0.52265 0.0
C42 C 0.43138 0.59162 0.51174 0.0
C43 C 0.41048 0.55334 0.53799 0.0
N44 N 0.39266 0.60154 0.51958 0.0
C45 C 0.3796 0.57747 0.53614 0.0
C46 C 0.4683 0.45909 0.51516 0.0
O47 O 0.5527 0.50035 0.54742 0.0
O48 O 0.49733 0.53328 0.55101 0.0
O49 O 0.45431 0.49072 0.51669 0.0
O50 O 0.50909 0.45714 0.51366 0.0
O51 O 0.48616 0.53883 0.48478 0.0
H52 H 0.40913 0.53065 0.54965 0.0
H53 H 0.45046 0.60506 0.49794 0.0
O54 O 0.54009 0.50452 0.48095 0.0
O55 O 0.58358 0.5482 0.51509 0.0
O56 O 0.52867 0.58131 0.51922 0.0
C57 C 0.56944 0.5797 0.51755 0.0
H58 H 0.689 0.46626 0.48414 0.0
H59 H 0.3499 0.57737 0.54634 0.0
C60 C 0.94726 0.06935 0.46947 0.0
C61 C 0.94618 0.0986 0.45435 0.0
C62 C 0.89183 0.12516 0.47924 0.0
C63 C 0.91897 0.1263 0.45926 0.0
C64 C 0.89251 0.09552 0.49419 0.0
C65 C 0.92012 0.06793 0.48938 0.0
U66 U 1.00782 0.01476 0.4244 0.0
O67 O 0.0737 0.99726 0.42379 0.0
O68 O 0.01687 0.95557 0.42011 0.0
C69 C 0.05946 0.96185 0.42196 0.0
C70 C 0.9758 0.03998 0.46417 0.0
C71 C 0.08168 0.93628 0.43605 0.0
C72 C 0.14285 0.92359 0.46013 0.0
C73 C 0.11788 0.94885 0.4503 0.0
C74 C 0.0951 0.87281 0.4424 0.0
C75 C 0.1323 0.88524 0.45589 0.0
C76 C 0.07023 0.89801 0.43256 0.0
C77 C 0.99606 0.03866 0.35993 0.0
C78 C 0.04268 0.02066 0.32767 0.0
C79 C 0.97443 0.0444 0.31939 0.0
C80 C 0.96616 0.04833 0.34354 0.0
C81 C 0.01298 0.03084 0.31112 0.0
C82 C 0.03424 0.02447 0.35188 0.0
C83 C 0.98669 0.04376 0.38524 0.0
O84 O 0.9575 1.01067 0.45213 0.0
O85 O 0.01492 0.05139 0.45643 0.0
O86 O 0.01956 0.05778 0.3986 0.0
O87 O 0.9629 0.01611 0.3946 0.0
H88 H 0.96637 0.10001 0.43869 0.0
H89 H 0.91874 0.14839 0.44719 0.0
H90 H 0.87216 0.09397 0.50978 0.0
H91 H 0.92027 0.04547 0.50118 0.0
H92 H 0.17094 0.93413 0.4707 0.0
H93 H 0.12786 0.97815 0.45323 0.0
H94 H 0.08626 0.84355 0.43846 0.0
H95 H 0.04301 0.88748 0.42134 0.0
H96 H 0.07282 1.0104 0.32195 0.0
H97 H 0.9504 0.05178 0.3072 0.0
H98 H 0.93635 0.05904 0.34944 0.0
H99 H 0.05765 0.01664 0.36429 0.0
C100 C 0.94243 0.96522 0.5582 0.0
C101 C 0.9095 0.95517 0.57453 0.0
C102 C 0.87896 0.90483 0.54769 0.0
C103 C 0.87797 0.92541 0.56928 0.0
C104 C 0.91197 0.91507 0.53134 0.0
C105 C 0.94338 0.94507 0.53654 0.0
U106 U 1.00452 0.02479 0.60533 0.0
O107 O 0.07451 0.04263 0.61007 0.0
O108 O 0.02796 0.08401 0.6086 0.0
C109 C 0.06903 0.07792 0.60988 0.0
C110 C 0.977 0.99527 0.56434 0.0
C111 C 0.10067 0.10132 0.59603 0.0
C112 C 0.11935 0.14122 0.56351 0.0
C113 C 0.0894 0.11623 0.57485 0.0
C114 C 0.17237 0.13578 0.59398 0.0
C115 C 0.16107 0.15165 0.5731 0.0
C116 C 0.1425 0.11095 0.60527 0.0
C117 C 0.97047 1.00495 0.66895 0.0
C118 C 0.99988 0.04117 0.70345 0.0
C119 C 0.9539 0.9837 0.70813 0.0
C120 C 0.94955 0.97887 0.68369 0.0
C121 C 0.97927 0.0148 0.71831 0.0
C122 C 0.99565 0.0362 0.67892 0.0
C123 C 0.96616 0.99852 0.6433 0.0
O124 O 0.96361 0.02575 0.57385 0.0
O125 O 1.0105 0.98485 0.57537 0.0
O126 O 0.99864 0.98395 0.63274 0.0
O127 O 0.95235 0.02546 0.63182 0.0
H128 H 0.90853 0.97003 0.5915 0.0
H129 H 0.85345 0.91793 0.58241 0.0
H130 H 0.91345 0.89993 0.51449 0.0
H131 H 0.96869 0.95227 0.52378 0.0
H132 H 0.10973 0.15259 0.54733 0.0
H133 H 0.05729 0.10914 0.56734 0.0
H134 H 0.20382 0.14354 0.60212 0.0
H135 H 0.15175 0.09997 0.62167 0.0
H136 H 0.01993 0.06523 0.71076 0.0
H137 H 0.93713 0.96318 0.71909 0.0
H138 H 0.92995 0.95462 0.67626 0.0
H139 H 0.01223 0.05652 0.66774 0.0
C140 C 0.45212 0.57206 0.97242 0.0
C141 C 0.44851 0.5999 0.95653 0.0
C142 C 0.39544 0.62698 0.98203 0.0
C143 C 0.42069 0.62714 0.96133 0.0
C144 C 0.39851 0.59866 0.99775 0.0
C145 C 0.42677 0.5715 0.99301 0.0
U146 U 0.51188 0.51858 0.92683 0.0
O147 O 0.57935 0.50449 0.92451 0.0
O148 O 0.52476 0.46032 0.9226 0.0
C149 C 0.56725 0.46872 0.92273 0.0
C150 C 0.48159 0.54337 0.96714 0.0
C151 C 0.59392 0.44468 0.93528 0.0
C152 C 0.60294 0.39773 0.96343 0.0
C153 C 0.57786 0.42351 0.95411 0.0
C154 C 0.66048 0.41478 0.93564 0.0
C155 C 0.64414 0.39252 0.95389 0.0
C156 C 0.63566 0.44051 0.92649 0.0
C157 C 0.49468 0.54215 0.86275 0.0
C158 C 0.51337 0.50516 0.82807 0.0
C159 C 0.49623 0.56794 0.82413 0.0
C160 C 0.4897 0.57163 0.84846 0.0
C161 C 0.5077 0.53454 0.81357 0.0
C162 C 0.507 0.50897 0.85247 0.0
C163 C 0.48645 0.54663 0.88822 0.0
O164 O 0.46377 0.51329 0.95567 0.0
O165 O 0.51988 0.55558 0.95867 0.0
O166 O 0.51953 0.56191 0.90095 0.0
O167 O 0.4648 0.51822 0.89798 0.0
H168 H 0.46724 0.60058 0.94033 0.0
H169 H 0.41855 0.64815 0.94867 0.0
H170 H 0.37958 0.59786 0.01386 0.0
H171 H 0.42886 0.55011 0.00542 0.0
H172 H 0.58945 0.38093 0.97746 0.0
H173 H 0.54565 0.42616 0.96116 0.0
H174 H 0.69235 0.41192 0.92818 0.0
H175 H 0.64868 0.4565 0.91195 0.0
H176 H 0.52185 0.47898 0.82053 0.0
H177 H 0.49246 0.59139 0.81362 0.0
H178 H 0.48055 0.59755 0.85611 0.0
H179 H 0.51124 0.48592 0.86327 0.0
C180 C 0.44815 0.46125 0.05786 0.0
C181 C 0.41703 0.44898 0.07463 0.0
C182 C 0.385 0.40096 0.04661 0.0
C183 C 0.38567 0.41926 0.06904 0.0
C184 C 0.4163 0.41335 0.02984 0.0
C185 C 0.44755 0.44332 0.03542 0.0
U186 U 0.51011 0.5199 0.10541 0.0
O187 O 0.53163 0.57943 0.10955 0.0
O188 O 0.57979 0.53921 0.10983 0.0
C189 C 0.57304 0.57428 0.11048 0.0
C190 C 0.48219 0.49161 0.0642 0.0
C191 C 0.60401 0.59935 0.09733 0.0
C192 C 0.62112 0.64387 0.06711 0.0
C193 C 0.5918 0.61708 0.07737 0.0
C194 C 0.67532 0.63457 0.09619 0.0
C195 C 0.66292 0.65347 0.07676 0.0
C196 C 0.64618 0.60789 0.10634 0.0
C197 C 0.47983 0.49779 0.16907 0.0
C198 C 0.49569 0.53842 0.20396 0.0
C199 C 0.47885 0.47243 0.20784 0.0
C200 C 0.47388 0.46744 0.18342 0.0
C201 C 0.48967 0.50798 0.21839 0.0
C202 C 0.49106 0.53335 0.17947 0.0
C203 C 0.4743 0.49156 0.14339 0.0
O204 O 0.46815 0.52133 0.0744 0.0
O205 O 0.51636 0.48139 0.07472 0.0
O206 O 0.50678 0.478 0.13219 0.0
O207 O 0.45852 0.51799 0.13228 0.0
H208 H 0.41729 0.46215 0.09217 0.0
H209 H 0.36253 0.41007 0.08248 0.0
H210 H 0.41646 0.4 0.01237 0.0
H211 H 0.47145 0.4523 0.02228 0.0
H212 H 0.61056 0.65799 0.0522 0.0
H213 H 0.55938 0.61096 0.07009 0.0
H214 H 0.7075 0.64077 0.10377 0.0
H215 H 0.65628 0.59454 0.12171 0.0
H216 H 0.50447 0.56607 0.21157 0.0
H217 H 0.47354 0.44851 0.21851 0.0
H218 H 0.46524 0.4398 0.17571 0.0
H219 H 0.49622 0.55716 0.1687 0.0
H220 H 0.05732 0.14966 0.02978 0.0
H221 H 0.1106 0.2043 0.03329 0.0
H222 H 0.21061 0.13961 0.00624 0.0
H223 H 0.15771 0.08454 0.00342 0.0
H224 H 0.24101 0.18123 0.04223 0.0
H225 H 0.16406 0.20357 0.97238 0.0
H226 H 0.09943 0.20968 0.94827 0.0
H227 H 0.06595 0.29875 0.99491 0.0
H228 H 0.13018 0.29291 0.01947 0.0
H229 H 0.3979 0.33504 0.0236 0.0
H230 H 0.34461 0.28089 0.01623 0.0
H231 H 0.24515 0.33923 0.05011 0.0
H232 H 0.29807 0.39367 0.05718 0.0
H233 H 0.21554 0.30084 0.00948 0.0
H234 H 0.29273 0.27701 0.07952 0.0
H235 H 0.35773 0.27036 0.1032 0.0
H236 H 0.39143 0.18324 0.05504 0.0
H237 H 0.3269 0.18973 0.03088 0.0
C238 C 0.09059 0.14709 0.02443 0.0
C239 C 0.10323 0.11274 0.01627 0.0
C240 C 0.12105 0.17844 0.02635 0.0
C241 C 0.16463 0.17631 0.01973 0.0
C242 C 0.17723 0.14203 0.01146 0.0
C243 C 0.1469 0.11057 0.00978 0.0
C244 C 0.1973 0.20954 0.02203 0.0
C245 C 0.23569 0.20718 0.03471 0.0
C246 C 0.19014 0.24375 0.01269 0.0
C247 C 0.15174 0.2476 0.99786 0.0
C248 C 0.14278 0.22432 0.97757 0.0
C249 C 0.10626 0.22776 0.96381 0.0
C250 C 0.0786 0.25455 0.97008 0.0
C251 C 0.08744 0.27802 0.99009 0.0
C252 C 0.12393 0.27469 0.00391 0.0
C253 C 0.36456 0.3365 0.02922 0.0
C254 C 0.35227 0.36863 0.04107 0.0
C255 C 0.33422 0.30543 0.02516 0.0
C256 C 0.29098 0.30586 0.03285 0.0
C257 C 0.27835 0.33822 0.04409 0.0
C258 C 0.3087 0.36921 0.04827 0.0
C259 C 0.25909 0.27238 0.02961 0.0
C260 C 0.22086 0.27476 0.01684 0.0
C261 C 0.2665 0.23813 0.03872 0.0
C262 C 0.30525 0.23414 0.05326 0.0
C263 C 0.3142 0.25665 0.07387 0.0
C264 C 0.35092 0.25287 0.0874 0.0
C265 C 0.37876 0.22647 0.0806 0.0
C266 C 0.36987 0.20372 0.06027 0.0
C267 C 0.33322 0.20742 0.04666 0.0
H268 H 0.40717 0.22357 0.0911 0.0
H269 H 0.05041 0.25719 0.9594 0.0
H270 H 0.10563 0.8642 0.012 0.0
H271 H 0.14352 0.80808 0.01153 0.0
H272 H 0.26454 0.87335 0.9966 0.0
H273 H 0.22733 0.92898 0.99738 0.0
H274 H 0.24816 0.81394 0.96544 0.0
H275 H 0.24514 0.83876 0.05011 0.0
H276 H 0.20896 0.84833 0.08841 0.0
H277 H 0.13772 0.74053 0.07985 0.0
H278 H 0.17309 0.73052 0.04133 0.0
H279 H 0.41431 0.70128 0.97759 0.0
H280 H 0.36583 0.74958 0.98337 0.0
H281 H 0.26195 0.66814 0.00327 0.0
H282 H 0.31084 0.61953 0.99784 0.0
H283 H 0.26038 0.72987 0.03058 0.0
H284 H 0.26551 0.70232 0.94788 0.0
H285 H 0.29925 0.6916 0.90905 0.0
H286 H 0.36217 0.80282 0.91257 0.0
H287 H 0.32931 0.81407 0.9516 0.0
C288 C 0.14042 0.86658 0.00907 0.0
C289 C 0.16333 0.90101 0.00439 0.0
C290 C 0.16203 0.83451 0.00873 0.0
C291 C 0.20687 0.83646 0.00383 0.0
C292 C 0.22989 0.87104 1.00013 0.0
C293 C 0.20848 0.90286 1.00051 0.0
C294 C 0.23005 0.8027 1.00123 0.0
C295 C 0.25112 0.79574 0.97976 0.0
C296 C 0.23251 0.77808 0.01957 0.0
C297 C 0.21137 0.78407 0.04272 0.0
C298 C 0.22147 0.81723 0.0563 0.0
C299 C 0.20117 0.82271 0.07807 0.0
C300 C 0.17095 0.7951 0.08652 0.0
C301 C 0.16107 0.76191 0.07326 0.0
C302 C 0.18125 0.75632 0.05147 0.0
C303 C 0.38113 0.6936 0.98316 0.0
C304 C 0.3663 0.65648 0.98699 0.0
C305 C 0.35338 0.72126 0.98645 0.0
C306 C 0.30985 0.71248 0.99327 0.0
C307 C 0.29529 0.67562 0.9979 0.0
C308 C 0.32327 0.64787 0.99481 0.0
C309 C 0.27974 0.74188 0.99501 0.0
C310 C 0.25716 0.74788 0.01619 0.0
C311 C 0.27543 0.76553 0.9763 0.0
C312 C 0.29518 0.75893 0.95277 0.0
C313 C 0.28678 0.72442 0.94046 0.0
C314 C 0.30572 0.71826 0.9184 0.0
C315 C 0.33291 0.74649 0.90837 0.0
C316 C 0.34113 0.78097 0.92037 0.0
C317 C 0.32232 0.78726 0.94245 0.0
H318 H 0.34753 0.74166 0.89128 0.0
H319 H 0.15528 0.79939 0.10338 0.0
H320 H 0.98083 0.88832 0.00772 0.0
H321 H 0.9293 0.83331 0.01283 0.0
H322 H 0.83015 0.90287 0.03428 0.0
H323 H 0.88093 0.95778 0.02857 0.0
H324 H 0.89121 0.80802 0.05019 0.0
H325 H 0.73002 0.86189 0.02161 0.0
H326 H 0.70532 0.90363 0.99281 0.0
H327 H 0.81506 0.88611 0.94855 0.0
H328 H 0.84009 0.84388 0.9769 0.0
H329 H 0.71231 0.70819 0.10198 0.0
H330 H 0.76388 0.7572 0.08722 0.0
H331 H 0.73353 0.7176 0.01575 0.0
H332 H 0.68136 0.66832 0.03051 0.0
H333 H 0.74032 0.79137 0.01917 0.0
H334 H 0.82781 0.69923 0.04162 0.0
H335 H 0.85444 0.65436 0.06763 0.0
H336 H 0.89637 0.74233 0.11828 0.0
H337 H 0.86942 0.78769 0.09272 0.0
C338 C 0.94789 0.89189 0.01326 0.0
C339 C 0.93499 0.92748 0.01765 0.0
C340 C 0.91848 0.8604 0.01624 0.0
C341 C 0.87559 0.86382 0.0237 0.0
C342 C 0.86268 0.89937 0.028 0.0
C343 C 0.8919 0.93082 0.02484 0.0
C344 C 0.84499 0.83036 0.02819 0.0
C345 C 0.85832 0.80435 0.04328 0.0
C346 C 0.80224 0.82498 0.01884 0.0
C347 C 0.78709 0.84993 1.0015 0.0
C348 C 0.74875 0.86679 0.00567 0.0
C349 C 0.73473 0.89057 0.98944 0.0
C350 C 0.75867 0.89759 0.9689 0.0
C351 C 0.79662 0.88075 0.9645 0.0
C352 C 0.81077 0.85692 0.98067 0.0
C353 C 0.7168 0.70967 0.08311 0.0
C354 C 0.69314 0.684 0.06742 0.0
C355 C 0.7463 0.73777 0.07469 0.0
C356 C 0.75328 0.74071 0.05038 0.0
C357 C 0.72885 0.71579 0.03459 0.0
C358 C 0.69903 0.68768 0.04304 0.0
C359 C 0.78626 0.7698 0.04168 0.0
C360 C 0.77336 0.79495 0.02586 0.0
C361 C 0.82974 0.77398 0.04993 0.0
C362 C 0.84631 0.74683 0.06531 0.0
C363 C 0.84246 0.70899 0.05837 0.0
C364 C 0.85764 0.68347 0.07303 0.0
C365 C 0.87702 0.69548 0.09461 0.0
C366 C 0.88134 0.73306 0.10156 0.0
C367 C 0.86616 0.7587 0.08698 0.0
H368 H 0.88875 0.67568 0.10594 0.0
H369 H 0.74777 0.91604 0.95636 0.0
H370 H 0.8857 0.12848 0.97981 0.0
H371 H 0.84347 0.17784 0.96827 0.0
H372 H 0.81881 0.20555 0.04156 0.0
H373 H 0.8598 0.15554 0.053 0.0
H374 H 0.74725 0.20469 0.01849 0.0
H375 H 0.89426 0.25942 0.00514 0.0
H376 H 0.96808 0.26293 0.988 0.0
H377 H 0.91396 0.25613 0.91829 0.0
H378 H 0.83987 0.2521 0.93498 0.0
H379 H 0.66006 0.37489 0.99932 0.0
H380 H 0.70434 0.32757 0.01209 0.0
H381 H 0.72909 0.29596 0.93942 0.0
H382 H 0.6857 0.34343 0.92667 0.0
H383 H 0.80144 0.30004 0.96295 0.0
H384 H 0.65567 0.24344 0.97533 0.0
H385 H 0.58112 0.23943 0.99143 0.0
H386 H 0.63203 0.24869 0.06189 0.0
H387 H 0.70693 0.25325 0.0462 0.0
C388 C 0.87164 0.14541 0.99341 0.0
C389 C 0.87601 0.13812 0.0173 0.0
C390 C 0.84756 0.1737 0.98683 0.0
C391 C 0.82823 0.19589 0.00404 0.0
C392 C 0.83317 0.18886 0.02791 0.0
C393 C 0.85663 0.16026 0.03445 0.0
C394 C 0.80165 0.22557 0.99728 0.0
C395 C 0.75945 0.22586 0.00662 0.0
C396 C 0.81687 0.25276 0.9813 0.0
C397 C 0.8615 0.25516 0.97132 0.0
C398 C 0.8981 0.25842 0.98616 0.0
C399 C 0.93999 0.26054 0.97652 0.0
C400 C 0.94566 0.25969 0.95207 0.0
C401 C 0.9095 0.25676 0.93722 0.0
C402 C 0.86758 0.25459 0.94675 0.0
C403 C 0.67472 0.35763 0.98611 0.0
C404 C 0.66955 0.36304 0.96199 0.0
C405 C 0.7 0.33055 0.99341 0.0
C406 C 0.71993 0.3079 0.97673 0.0
C407 C 0.71437 0.31314 0.95266 0.0
C408 C 0.68954 0.34035 0.94539 0.0
C409 C 0.74711 0.27907 0.98414 0.0
C410 C 0.78938 0.27895 0.97492 0.0
C411 C 0.73191 0.25194 1.00013 0.0
C412 C 0.6869 0.24907 0.00959 0.0
C413 C 0.65097 0.2449 0.99426 0.0
C414 C 0.60865 0.24248 0.00331 0.0
C415 C 0.60185 0.24391 0.02767 0.0
C416 C 0.63735 0.24765 0.04303 0.0
C417 C 0.67974 0.25012 0.03406 0.0
H418 H 0.56906 0.24203 0.03464 0.0
H419 H 0.97802 0.26141 0.9446 0.0
H420 H 0.5521 0.6506 0.52928 0.0
H421 H 0.604 0.70625 0.53315 0.0
H422 H 0.70852 0.64187 0.51259 0.0
H423 H 0.65705 0.58603 0.50934 0.0
H424 H 0.73305 0.68619 0.54866 0.0
H425 H 0.66522 0.70142 0.47466 0.0
H426 H 0.60388 0.70497 0.44764 0.0
H427 H 0.56494 0.7978 0.489 0.0
H428 H 0.62575 0.79448 0.51647 0.0
H429 H 0.89297 0.83667 0.52834 0.0
H430 H 0.83973 0.78228 0.52182 0.0
H431 H 0.73814 0.8445 0.54954 0.0
H432 H 0.7911 0.89917 0.55578 0.0
H433 H 0.71222 0.80183 0.50957 0.0
H434 H 0.78083 0.7857 0.58354 0.0
H435 H 0.84267 0.78163 0.61013 0.0
H436 H 0.88102 0.68966 0.56771 0.0
H437 H 0.81973 0.69353 0.54066 0.0
C438 C 0.5861 0.64833 0.52547 0.0
C439 C 0.60039 0.61385 0.51897 0.0
C440 C 0.61577 0.68023 0.52759 0.0
C441 C 0.66023 0.67844 0.5229 0.0
C442 C 0.67446 0.64404 0.51632 0.0
C443 C 0.64492 0.61211 0.5144 0.0
C444 C 0.69214 0.71215 0.52541 0.0
C445 C 0.72876 0.71126 0.5398 0.0
C446 C 0.68622 0.74526 0.51431 0.0
C447 C 0.6498 0.74748 0.49774 0.0
C448 C 0.6434 0.72243 0.47809 0.0
C449 C 0.60875 0.72442 0.46268 0.0
C450 C 0.58046 0.75153 0.46664 0.0
C451 C 0.58684 0.77678 0.48598 0.0
C452 C 0.62142 0.77488 0.50146 0.0
C453 C 0.8592 0.83892 0.53278 0.0
C454 C 0.8463 0.87224 0.54266 0.0
C455 C 0.82887 0.80772 0.52922 0.0
C456 C 0.78501 0.8092 0.53543 0.0
C457 C 0.77181 0.84268 0.54469 0.0
C458 C 0.80217 0.87382 0.5484 0.0
C459 C 0.75306 0.77566 0.53268 0.0
C460 C 0.71647 0.77665 0.51832 0.0
C461 C 0.75911 0.74255 0.54368 0.0
C462 C 0.79596 0.74017 0.55994 0.0
C463 C 0.80267 0.76482 0.57977 0.0
C464 C 0.83758 0.76251 0.59494 0.0
C465 C 0.86583 0.73547 0.59058 0.0
C466 C 0.85916 0.71063 0.57105 0.0
C467 C 0.82432 0.71285 0.5558 0.0
H468 H 0.89283 0.73372 0.60235 0.0
H469 H 0.55365 0.75303 0.45469 0.0
H470 H 0.73014 0.42951 0.50682 0.0
H471 H 0.76601 0.37306 0.50428 0.0
H472 H 0.64164 0.30765 0.5088 0.0
H473 H 0.60516 0.36459 0.51107 0.0
H474 H 0.71082 0.2808 0.53517 0.0
H475 H 0.68222 0.31547 0.45696 0.0
H476 H 0.68175 0.35864 0.4249 0.0
H477 H 0.82119 0.37784 0.4273 0.0
H478 H 0.82246 0.33521 0.45965 0.0
H479 H 0.80605 0.11804 0.49287 0.0
H480 H 0.75857 0.16727 0.49959 0.0
H481 H 0.8656 0.24878 0.48414 0.0
H482 H 0.91277 0.19975 0.47704 0.0
H483 H 0.79665 0.26343 0.4621 0.0
H484 H 0.826 0.2332 0.54172 0.0
H485 H 0.82796 0.19194 0.57475 0.0
H486 H 0.68937 0.16557 0.57047 0.0
H487 H 0.68667 0.20634 0.5372 0.0
C488 C 0.71031 0.40317 0.50736 0.0
C489 C 0.6647 0.40155 0.50872 0.0
C490 C 0.73091 0.3709 0.506 0.0
C491 C 0.70648 0.33613 0.50593 0.0
C492 C 0.66109 0.33424 0.50873 0.0
C493 C 0.6403 0.36675 0.51008 0.0
C494 C 0.72871 0.30222 0.50144 0.0
C495 C 0.72898 0.27655 0.51904 0.0
C496 C 0.75299 0.29705 0.48054 0.0
C497 C 0.7524 0.32233 0.46085 0.0
C498 C 0.71277 0.32908 0.45076 0.0
C499 C 0.71236 0.35344 0.43252 0.0
C500 C 0.75141 0.37102 0.4241 0.0
C501 C 0.79096 0.36421 0.43385 0.0
C502 C 0.79155 0.33992 0.45212 0.0
C503 C 0.81951 0.14651 0.49114 0.0
C504 C 0.86317 0.15497 0.48437 0.0
C505 C 0.79234 0.17466 0.49501 0.0
C506 C 0.80847 0.21191 0.49256 0.0
C507 C 0.85221 0.22033 0.48604 0.0
C508 C 0.87919 0.19224 0.48196 0.0
C509 C 0.77989 0.24225 0.4961 0.0
C510 C 0.77827 0.26731 0.4782 0.0
C511 C 0.75463 0.24686 0.51677 0.0
C512 C 0.7562 0.22249 0.53682 0.0
C513 C 0.79599 0.21838 0.54771 0.0
C514 C 0.79723 0.19513 0.56649 0.0
C515 C 0.75883 0.17606 0.57466 0.0
C516 C 0.71909 0.18031 0.5641 0.0
C517 C 0.71768 0.2035 0.5453 0.0
H518 H 0.75986 0.15807 0.5892 0.0
H519 H 0.75103 0.38988 0.40998 0.0
H520 H 0.48604 0.38819 0.52222 0.0
H521 H 0.43366 0.33408 0.52833 0.0
H522 H 0.32784 0.39937 0.51715 0.0
H523 H 0.37985 0.45364 0.51174 0.0
H524 H 0.31228 0.36218 0.5546 0.0
H525 H 0.35774 0.33104 0.47578 0.0
H526 H 0.41061 0.31993 0.44423 0.0
H527 H 0.45506 0.23221 0.48226 0.0
H528 H 0.40282 0.24311 0.5142 0.0
H529 H 0.14294 0.21592 0.55387 0.0
H530 H 0.19457 0.26568 0.53977 0.0
H531 H 0.3011 0.2032 0.55474 0.0
H532 H 0.24957 0.1527 0.56803 0.0
H533 H 0.31573 0.2384 0.51439 0.0
H534 H 0.27232 0.27112 0.59357 0.0
H535 H 0.22004 0.28243 0.6254 0.0
H536 H 0.17229 0.36779 0.58652 0.0
H537 H 0.22392 0.35662 0.5543 0.0
C538 C 0.45162 0.39088 0.52077 0.0
C539 C 0.43715 0.42526 0.51652 0.0
C540 C 0.42165 0.35987 0.52419 0.0
C541 C 0.37665 0.36246 0.52304 0.0
C542 C 0.3623 0.3966 0.51821 0.0
C543 C 0.39215 0.42763 0.51504 0.0
C544 C 0.34438 0.33034 0.52812 0.0
C545 C 0.31266 0.33531 0.54547 0.0
C546 C 0.34542 0.2949 0.51675 0.0
C547 C 0.37662 0.28812 0.49748 0.0
C548 C 0.37899 0.30955 0.47749 0.0
C549 C 0.40882 0.30326 0.45952 0.0
C550 C 0.43625 0.27544 0.46126 0.0
C551 C 0.43382 0.25377 0.48095 0.0
C552 C 0.40407 0.25996 0.49898 0.0
C553 C 0.17726 0.21236 0.55371 0.0
C554 C 0.19206 0.18037 0.56231 0.0
C555 C 0.20682 0.24104 0.54585 0.0
C556 C 0.25182 0.23851 0.5466 0.0
C557 C 0.26658 0.20593 0.55413 0.0
C558 C 0.23705 0.17719 0.56193 0.0
C559 C 0.28357 0.27047 0.54066 0.0
C560 C 0.31525 0.2654 0.52331 0.0
C561 C 0.28257 0.3059 0.55202 0.0
C562 C 0.25167 0.31277 0.57142 0.0
C563 C 0.25045 0.29211 0.59173 0.0
C564 C 0.22097 0.29852 0.60985 0.0
C565 C 0.19278 0.32574 0.60795 0.0
C566 C 0.1941 0.34668 0.58795 0.0
C567 C 0.22348 0.34033 0.56976 0.0
H568 H 0.16998 0.33067 0.622 0.0
H569 H 0.45933 0.27063 0.44734 0.0
H570 H 0.30534 0.60296 0.51934 0.0
H571 H 0.26522 0.65311 0.50762 0.0
H572 H 0.38569 0.71693 0.48985 0.0
H573 H 0.42635 0.66674 0.50206 0.0
H574 H 0.33092 0.75868 0.51544 0.0
H575 H 0.3212 0.67773 0.44664 0.0
H576 H 0.30716 0.61838 0.42369 0.0
H577 H 0.17345 0.60911 0.44567 0.0
H578 H 0.18682 0.66817 0.46904 0.0
H579 H 0.22154 0.89156 0.45616 0.0
H580 H 0.26875 0.84537 0.46685 0.0
H581 H 0.15612 0.7712 0.4844 0.0
H582 H 0.10867 0.81738 0.47395 0.0
H583 H 0.21146 0.73635 0.45685 0.0
H584 H 0.22257 0.81606 0.52722 0.0
H585 H 0.23704 0.87537 0.55019 0.0
H586 H 0.36872 0.88718 0.52486 0.0
H587 H 0.35486 0.82814 0.50147 0.0
C588 C 0.32343 0.62769 0.51307 0.0
C589 C 0.36913 0.63085 0.51173 0.0
C590 C 0.30037 0.65626 0.50617 0.0
C591 C 0.32237 0.6887 0.49767 0.0
C592 C 0.36802 0.69209 0.4963 0.0
C593 C 0.39119 0.66331 0.50311 0.0
C594 C 0.29734 0.71906 0.49062 0.0
C595 C 0.30531 0.75401 0.50232 0.0
C596 C 0.26335 0.71279 0.47383 0.0
C597 C 0.25512 0.67725 0.45977 0.0
C598 C 0.28888 0.6629 0.44674 0.0
C599 C 0.28103 0.62933 0.43363 0.0
C600 C 0.23946 0.60995 0.43326 0.0
C601 C 0.20564 0.62414 0.44598 0.0
C602 C 0.21332 0.65769 0.45915 0.0
C603 C 0.20678 0.86572 0.46273 0.0
C604 C 0.1612 0.85826 0.46419 0.0
C605 C 0.23387 0.83925 0.46876 0.0
C606 C 0.21605 0.8048 0.47652 0.0
C607 C 0.17064 0.79749 0.47835 0.0
C608 C 0.14354 0.82393 0.47233 0.0
C609 C 0.24451 0.77584 0.48195 0.0
C610 C 0.23723 0.74112 0.46988 0.0
C611 C 0.27915 0.78239 0.49835 0.0
C612 C 0.28753 0.81788 0.51239 0.0
C613 C 0.25451 0.83146 0.52638 0.0
C614 C 0.26262 0.865 0.53951 0.0
C615 C 0.30373 0.88509 0.53893 0.0
C616 C 0.33687 0.87162 0.52526 0.0
C617 C 0.32891 0.83811 0.51208 0.0
H618 H 0.30996 0.91104 0.54911 0.0
H619 H 0.23345 0.58397 0.42309 0.0
H620 H 0.99918 0.06214 0.09271 0.0
H621 H 1.00649 0.06129 0.13539 0.0
H622 H 0.08277 0.96908 0.12723 0.0
H623 H 0.076 0.96996 0.08414 0.0
H624 H 0.01361 0.96087 0.16156 0.0
H625 H 0.13511 0.04692 0.14263 0.0
H626 H 0.17262 0.10073 0.12343 0.0
H627 H 0.09117 0.1724 0.16072 0.0
H628 H 0.05268 0.11893 0.17988 0.0
H629 H 0.05002 0.97567 0.28599 0.0
H630 H 0.06325 0.97061 0.24348 0.0
H631 H 1.00834 0.07323 0.23536 0.0
H632 H 0.99698 0.07937 0.2778 0.0
H633 H 0.07782 0.07149 0.20885 0.0
H634 H 0.95013 0.98689 0.22316 0.0
H635 H 0.90816 0.9341 0.24132 0.0
H636 H 0.99684 0.86097 0.2121 0.0
H637 H 0.03969 0.91347 0.19401 0.0
C638 C 0.01766 0.0417 0.09991 0.0
C639 C 0.03709 0.01613 0.08503 0.0
C640 C 0.02191 0.04135 0.12432 0.0
C641 C 0.04541 0.01531 0.13443 0.0
C642 C 0.06462 0.98947 0.11971 0.0
C643 C 0.06085 0.9901 0.09516 0.0
C644 C 0.04885 0.01508 0.16043 0.0
C645 C 0.02852 0.98467 0.17196 0.0
C646 C 0.06745 0.04651 0.17389 0.0
C647 C 0.09081 0.07884 0.16258 0.0
C648 C 0.12497 0.07411 0.14662 0.0
C649 C 0.14645 0.10457 0.13576 0.0
C650 C 0.13424 0.13996 0.14082 0.0
C651 C 0.10059 0.14497 0.15681 0.0
C652 C 0.07897 0.1146 0.1677 0.0
C653 C 0.0413 0.99741 0.2752 0.0
C654 C 0.02207 0.02779 0.28534 0.0
C655 C 0.0485 0.99429 0.25085 0.0
C656 C 0.03625 0.02128 0.23614 0.0
C657 C 0.01796 0.05197 0.2463 0.0
C658 C 0.011 0.05523 0.27059 0.0
C659 C 0.04162 0.0176 0.21012 0.0
C660 C 0.0636 0.04734 0.19854 0.0
C661 C 0.02409 0.98571 0.19662 0.0
C662 C 0.99841 0.95416 0.2075 0.0
C663 C 0.96089 0.9596 0.22078 0.0
C664 C 0.93691 0.92973 0.23103 0.0
C665 C 0.94991 0.89423 0.22794 0.0
C666 C 0.98687 0.88851 0.21453 0.0
C667 C 0.011 0.9183 0.20427 0.0
H668 H 0.93129 0.87113 0.23587 0.0
H669 H 0.1509 0.1635 0.13239 0.0
H670 H 0.02234 0.9702 0.93792 0.0
H671 H 0.01741 0.97274 0.89521 0.0
H672 H 0.97723 0.08263 0.90339 0.0
H673 H 0.97949 0.07908 0.94638 0.0
H674 H 0.93425 0.04858 0.86933 0.0
H675 H 0.08568 0.06427 0.88753 0.0
H676 H 0.1536 0.04947 0.90559 0.0
H677 H 0.14439 0.94562 0.86565 0.0
H678 H 0.07606 0.95956 0.84759 0.0
H679 H 0.97577 0.07762 0.74674 0.0
H680 H 0.98206 0.08383 0.78982 0.0
H681 H 1.00009 0.96817 0.79162 0.0
H682 H 0.99464 0.96194 0.74868 0.0
H683 H 0.05762 0.0122 0.82039 0.0
H684 H 0.90223 0.99767 0.80435 0.0
H685 H 0.83555 0.0153 0.78638 0.0
H686 H 0.85595 0.12241 0.82224 0.0
H687 H 0.92309 0.10556 0.84018 0.0
C688 C 0.01224 0.99482 0.93059 0.0
C689 C 1.00161 0.02456 0.9454 0.0
C690 C 1.00978 0.99641 0.90615 0.0
C691 C 0.99827 0.02835 0.89594 0.0
C692 C 0.98652 0.05777 0.91077 0.0
C693 C 0.98784 0.05576 0.93532 0.0
C694 C 0.99854 0.03082 0.86983 0.0
C695 C 0.96161 0.04125 0.85871 0.0
C696 C 0.03406 0.02109 0.85579 0.0
C697 C 0.07558 0.01288 0.86632 0.0
C698 C 0.09803 0.03821 0.88268 0.0
C699 C 0.13661 0.02997 0.89291 0.0
C700 C 0.15326 0.9966 0.8868 0.0
C701 C 0.13144 0.97146 0.87037 0.0
C702 C 0.09282 0.97953 0.86011 0.0
C703 C 0.98149 0.05362 0.75633 0.0
C704 C 0.98442 0.01922 0.74433 0.0
C705 C 0.98476 0.05715 0.78093 0.0
C706 C 0.9911 0.02636 0.79393 0.0
C707 C 0.99506 0.99225 0.78194 0.0
C708 C 0.99159 0.98867 0.75742 0.0
C709 C 0.99314 0.02923 0.82006 0.0
C710 C 0.03056 0.01989 0.83113 0.0
C711 C 0.95844 0.04055 0.83403 0.0
C712 C 0.91789 0.05049 0.82341 0.0
C713 C 0.89265 0.02507 0.80826 0.0
C714 C 0.85475 0.0349 0.79811 0.0
C715 C 0.84158 0.06999 0.80311 0.0
C716 C 0.86622 0.09527 0.81835 0.0
C717 C 0.90417 0.08558 0.82853 0.0
H718 H 0.81224 0.07756 0.79523 0.0
H719 H 0.1831 0.99026 0.89477 0.0
H720 H 0.47332 0.54771 0.59246 0.0
H721 H 0.47702 0.54853 0.63527 0.0
H722 H 0.58748 0.48562 0.63077 0.0
H723 H 0.58375 0.48427 0.58755 0.0
H724 H 0.52865 0.46036 0.66433 0.0
H725 H 0.60361 0.57624 0.64492 0.0
H726 H 0.61478 0.63537 0.62524 0.0
H727 H 0.50238 0.67158 0.66037 0.0
H728 H 0.49012 0.61242 0.68001 0.0
H729 H 0.56904 0.4994 0.78848 0.0
H730 H 0.57774 0.49378 0.74559 0.0
H731 H 0.46757 0.55503 0.7369 0.0
H732 H 0.45814 0.56019 0.77956 0.0
H733 H 0.53647 0.58066 0.71007 0.0
H734 H 0.45841 0.4625 0.72662 0.0
H735 H 0.44674 0.403 0.74587 0.0
H736 H 0.56597 0.37124 0.71608 0.0
H737 H 0.57866 0.43082 0.6969 0.0
C738 C 0.49849 0.534 0.60048 0.0
C739 C 0.52846 0.51612 0.58654 0.0
C740 C 0.50062 0.53462 0.62501 0.0
C741 C 0.53294 0.51764 0.63623 0.0
C742 C 0.56241 0.49905 0.62244 0.0
C743 C 0.56031 0.4984 0.59778 0.0
C744 C 0.53554 0.51964 0.66236 0.0
C745 C 0.53123 0.48666 0.67436 0.0
C746 C 0.53832 0.55396 0.67543 0.0
C747 C 0.54578 0.58975 0.66382 0.0
C748 C 0.58109 0.5967 0.64834 0.0
C749 C 0.58764 0.63024 0.6372 0.0
C750 C 0.55927 0.65719 0.64152 0.0
C751 C 0.52433 0.65067 0.65704 0.0
C752 C 0.5176 0.61716 0.6682 0.0
C753 C 0.54635 0.51131 0.77744 0.0
C754 C 0.51299 0.5304 0.78752 0.0
C755 C 0.55147 0.50816 0.75293 0.0
C756 C 0.52326 0.52395 0.73805 0.0
C757 C 0.4899 0.54286 0.74805 0.0
C758 C 0.48469 0.54592 0.77248 0.0
C759 C 0.52852 0.5214 0.71204 0.0
C760 C 0.53444 0.55435 0.70006 0.0
C761 C 0.52733 0.48708 0.69905 0.0
C762 C 0.51975 0.4513 0.71057 0.0
C763 C 0.48235 0.44298 0.72436 0.0
C764 C 0.4755 0.40921 0.73522 0.0
C765 C 0.50567 0.38341 0.73227 0.0
C766 C 0.54268 0.39129 0.71839 0.0
C767 C 0.54971 0.42504 0.70752 0.0
H768 H 0.5003 0.35727 0.74068 0.0
H769 H 0.56439 0.68313 0.63288 0.0
H770 H 0.55313 0.48103 0.43879 0.0
H771 H 0.54974 0.48272 0.39599 0.0
H772 H 0.46271 0.56767 0.40261 0.0
H773 H 0.4649 0.56531 0.4456 0.0
H774 H 0.43542 0.51888 0.36893 0.0
H775 H 0.57197 0.58761 0.38806 0.0
H776 H 0.64426 0.59973 0.40669 0.0
H777 H 0.68683 0.50624 0.36754 0.0
H778 H 0.61457 0.49322 0.34892 0.0
H779 H 0.45729 0.56049 0.24765 0.0
H780 H 0.46227 0.5671 0.29073 0.0
H781 H 0.53672 0.47356 0.29092 0.0
H782 H 0.5323 0.46706 0.24788 0.0
H783 H 0.57054 0.53187 0.32104 0.0
H784 H 0.43141 0.46212 0.30378 0.0
H785 H 0.35892 0.45122 0.28528 0.0
H786 H 0.32163 0.54965 0.32107 0.0
H787 H 0.39417 0.56143 0.33953 0.0
C788 C 0.53326 0.50012 0.43117 0.0
C789 C 0.50941 0.52315 0.44561 0.0
C790 C 0.53155 0.50121 0.40667 0.0
C791 C 0.50662 0.52583 0.39604 0.0
C792 C 0.48232 0.54856 0.4104 0.0
C793 C 0.48365 0.54721 0.43497 0.0
C794 C 0.50548 0.52729 0.36993 0.0
C795 C 0.46498 0.52239 0.35851 0.0
C796 C 0.54404 0.53133 0.35624 0.0
C797 C 0.58771 0.53928 0.36723 0.0
C798 C 0.59665 0.56949 0.38353 0.0
C799 C 0.63764 0.57654 0.39408 0.0
C800 C 0.67009 0.55373 0.38833 0.0
C801 C 0.66165 0.52387 0.37198 0.0
C802 C 0.6207 0.51667 0.3614 0.0
C803 C 0.47512 0.5416 0.25687 0.0
C804 C 0.49422 0.51313 0.2444 0.0
C805 C 0.4777 0.54527 0.28146 0.0
C806 C 0.49953 0.5206 0.29402 0.0
C807 C 0.51963 0.49281 0.28157 0.0
C808 C 0.51681 0.48897 0.25701 0.0
C809 C 0.50059 0.52308 0.32016 0.0
C810 C 0.54106 0.52871 0.33154 0.0
C811 C 0.46204 0.52004 0.33382 0.0
C812 C 0.41836 0.51287 0.32283 0.0
C813 C 0.40787 0.48161 0.30755 0.0
C814 C 0.36676 0.47524 0.2971 0.0
C815 C 0.33573 0.49978 0.30194 0.0
C816 C 0.34572 0.5307 0.3173 0.0
C817 C 0.38682 0.53722 0.32778 0.0
H818 H 0.30391 0.4948 0.29384 0.0
H819 H 0.70179 0.55922 0.39653 0.0
loop_
_geom_bond_atom_site_label_1
_geom_bond_atom_site_label_2
_geom_bond_distance
_geom_bond_site_symmetry_2
_ccdc_geom_bond_type
Co0 N5 2.057 . S
Co0 O17 2.021 . S
Co0 O20 2.062 1_455 S
Co0 O24 2.117 1_554 S
Co0 O25 2.020 1_565 S
C1 O21 1.259 1_455 S
C1 O24 1.258 1_545 S
Co2 N11 2.057 . S
Co2 O18 2.117 . S
Co2 O19 2.020 1_545 S
Co2 O21 2.021 1_554 S
Co2 O26 2.062 1_655 S
C3 N5 1.316 . S
C3 N6 1.347 . S
C3 H8 0.931 . S
C4 N5 1.375 1_556 S
C4 C7 1.350 . S
C4 H9 0.930 . S
N5 Co0 2.057 . S
N5 C3 1.316 . S
N5 C4 1.375 1_554 S
N6 C3 1.347 . S
N6 C7 1.373 1_554 S
C7 C4 1.350 . S
C7 N6 1.373 1_556 S
C7 H28 0.931 . S
H8 C3 0.931 . S
H9 C4 0.930 . S
C10 O17 1.259 1_545 S
C10 O18 1.258 1_455 S
N11 Co2 2.057 . S
N11 C12 1.316 . S
N11 C13 1.375 . S
C12 N11 1.316 . S
C12 N14 1.347 . S
C12 H23 0.931 1_554 S
C13 N11 1.375 . S
C13 C15 1.350 . S
C13 H22 0.930 . S
N14 C12 1.347 . S
N14 C15 1.373 . S
C15 C13 1.350 . S
C15 N14 1.373 . S
C15 H29 0.931 . S
C16 O19 1.256 . S
C16 O20 1.255 . S
O17 Co0 2.021 . S
O17 C10 1.259 1_565 S
O18 Co2 2.117 . S
O18 C10 1.258 1_655 S
O19 Co2 2.020 1_565 S
O19 C16 1.256 . S
O20 Co0 2.062 1_655 S
O20 C16 1.255 . S
O21 C1 1.259 1_655 S
O21 Co2 2.021 1_556 S
H22 C13 0.930 . S
H23 C12 0.931 1_556 S
O24 Co0 2.117 1_556 S
O24 C1 1.258 1_565 S
O25 Co0 2.020 1_545 S
O25 C27 1.256 . S
O26 Co2 2.062 1_455 S
O26 C27 1.255 . S
C27 O25 1.256 . S
C27 O26 1.255 . S
H28 C7 0.931 . S
H29 C15 0.931 . S
Co30 N35 2.057 . S
Co30 O47 2.021 . S
Co30 O50 2.062 . S
Co30 O54 2.117 . S
Co30 O55 2.020 . S
C31 O51 1.259 . S
C31 O54 1.258 . S
Co32 N41 2.057 . S
Co32 O48 2.117 . S
Co32 O49 2.020 . S
Co32 O51 2.021 . S
Co32 O56 2.062 . S
C33 N35 1.316 . S
C33 N36 1.347 . S
C33 H38 0.931 . S
C34 N35 1.375 . S
C34 C37 1.350 . S
C34 H39 0.930 . S
N35 Co30 2.057 . S
N35 C33 1.316 . S
N35 C34 1.375 . S
N36 C33 1.347 . S
N36 C37 1.373 . S
C37 C34 1.350 . S
C37 N36 1.373 . S
C37 H58 0.931 . S
H38 C33 0.931 . S
H39 C34 0.930 . S
C40 O47 1.259 . S
C40 O48 1.258 . S
N41 Co32 2.057 . S
N41 C42 1.316 . S
N41 C43 1.375 . S
C42 N41 1.316 . S
C42 N44 1.347 . S
C42 H53 0.931 . S
C43 N41 1.375 . S
C43 C45 1.350 . S
C43 H52 0.930 . S
N44 C42 1.347 . S
N44 C45 1.373 . S
C45 C43 1.350 . S
C45 N44 1.373 . S
C45 H59 0.931 . S
C46 O49 1.256 . S
C46 O50 1.255 . S
O47 Co30 2.021 . S
O47 C40 1.259 . S
O48 Co32 2.117 . S
O48 C40 1.258 . S
O49 Co32 2.020 . S
O49 C46 1.256 . S
O50 Co30 2.062 . S
O50 C46 1.255 . S
O51 C31 1.259 . S
O51 Co32 2.021 . S
H52 C43 0.930 . S
H53 C42 0.931 . S
O54 Co30 2.117 . S
O54 C31 1.258 . S
O55 Co30 2.020 . S
O55 C57 1.256 . S
O56 Co32 2.062 . S
O56 C57 1.255 . S
C57 O55 1.256 . S
C57 O56 1.255 . S
H58 C37 0.931 . S
H59 C45 0.931 . S
C60 C61 1.264 . S
C60 C65 1.479 . S
C60 C70 1.465 . S
C61 C60 1.264 . S
C61 C63 1.339 . S
C61 H88 0.931 . S
C62 C63 1.395 . S
C62 C64 1.320 . S
C63 C61 1.339 . S
C63 C62 1.395 . S
C63 H89 0.929 . S
C64 C62 1.320 . S
C64 C65 1.405 . S
C64 H90 0.930 . S
C65 C60 1.479 . S
C65 C64 1.405 . S
C65 H91 0.931 . S
U66 O67 2.454 1_545 S
U66 O68 2.458 1_545 S
U66 C69 2.984 1_545 S
U66 C70 2.847 1_455 S
U66 C83 2.882 . S
U66 O84 2.441 1_455 S
U66 O85 2.420 1_455 S
U66 O86 2.455 1_545 S
U66 O87 2.449 . S
O67 U66 2.454 1_565 S
O67 C69 1.353 . S
O68 U66 2.458 1_565 S
O68 C69 1.286 . S
C69 U66 2.984 1_565 S
C69 O67 1.353 . S
C69 O68 1.286 . S
C69 C71 1.363 . S
C70 C60 1.465 . S
C70 U66 2.847 1_655 S
C70 O84 1.249 . S
C70 O85 1.202 . S
C71 C69 1.363 . S
C71 C73 1.408 . S
C71 C76 1.342 . S
C72 C73 1.310 . S
C72 C75 1.461 . S
C72 H92 0.932 . S
C73 C71 1.408 . S
C73 C72 1.310 . S
C73 H93 0.930 . S
C74 C75 1.474 . S
C74 C76 1.285 . S
C74 H94 0.929 . S
C75 C72 1.461 . S
C75 C74 1.474 . S
C76 C71 1.342 . S
C76 C74 1.285 . S
C76 H95 0.930 . S
C77 C80 1.424 1_455 S
C77 C82 1.245 1_545 S
C77 C83 1.428 . S
C78 C81 1.260 1_565 S
C78 C82 1.477 . S
C78 H96 0.932 . S
C79 C80 1.384 . S
C79 C81 1.479 1_655 S
C79 H97 0.929 . S
C80 C77 1.424 1_655 S
C80 C79 1.384 . S
C80 H98 0.928 . S
C81 C78 1.260 1_545 S
C81 C79 1.479 1_455 S
C82 C77 1.245 1_565 S
C82 C78 1.477 . S
C82 H99 0.932 . S
C83 U66 2.882 . S
C83 C77 1.428 . S
C83 O86 1.301 1_545 S
C83 O87 1.282 . S
O84 U66 2.441 1_655 S
O84 C70 1.249 . S
O85 U66 2.420 1_655 S
O85 C70 1.202 . S
O86 U66 2.455 1_565 S
O86 C83 1.301 1_565 S
O87 U66 2.449 . S
O87 C83 1.282 . S
H88 C61 0.931 . S
H89 C63 0.929 . S
H90 C64 0.930 . S
H91 C65 0.931 . S
H92 C72 0.932 . S
H93 C73 0.930 . S
H94 C74 0.929 . S
H95 C76 0.930 . S
H96 C78 0.932 . S
H97 C79 0.929 . S
H98 C80 0.928 . S
H99 C82 0.932 . S
C100 C101 1.264 . S
C100 C105 1.479 . S
C100 C110 1.465 . S
C101 C100 1.264 . S
C101 C103 1.339 . S
C101 H128 0.931 . S
C102 C103 1.395 . S
C102 C104 1.320 . S
C103 C101 1.339 . S
C103 C102 1.395 . S
C103 H129 0.929 . S
C104 C102 1.320 . S
C104 C105 1.405 . S
C104 H130 0.930 . S
C105 C100 1.479 . S
C105 C104 1.405 . S
C105 H131 0.931 . S
U106 O107 2.454 . S
U106 O108 2.458 . S
U106 C109 2.984 . S
U106 C110 2.847 1_445 S
U106 C123 2.882 . S
U106 O124 2.441 1_445 S
U106 O125 2.420 1_445 S
U106 O126 2.455 . S
U106 O127 2.449 1_545 S
O107 U106 2.454 . S
O107 C109 1.353 . S
O108 U106 2.458 . S
O108 C109 1.286 . S
C109 U106 2.984 . S
C109 O107 1.353 . S
C109 O108 1.286 . S
C109 C111 1.363 . S
C110 C100 1.465 . S
C110 U106 2.847 1_665 S
C110 O124 1.249 . S
C110 O125 1.202 . S
C111 C109 1.363 . S
C111 C113 1.408 . S
C111 C116 1.342 . S
C112 C113 1.310 . S
C112 C115 1.461 . S
C112 H132 0.932 . S
C113 C111 1.408 . S
C113 C112 1.310 . S
C113 H133 0.930 . S
C114 C115 1.474 . S
C114 C116 1.285 . S
C114 H134 0.929 . S
C115 C112 1.461 . S
C115 C114 1.474 . S
C116 C111 1.342 . S
C116 C114 1.285 . S
C116 H135 0.930 . S
C117 C120 1.424 1_445 S
C117 C122 1.245 . S
C117 C123 1.428 . S
C118 C121 1.260 . S
C118 C122 1.477 . S
C118 H136 0.932 . S
C119 C120 1.384 . S
C119 C121 1.479 1_665 S
C119 H137 0.929 . S
C120 C117 1.424 1_665 S
C120 C119 1.384 . S
C120 H138 0.928 . S
C121 C118 1.260 . S
C121 C119 1.479 1_445 S
C122 C117 1.245 . S
C122 C118 1.477 . S
C122 H139 0.932 . S
C123 U106 2.882 . S
C123 C117 1.428 . S
C123 O126 1.301 . S
C123 O127 1.282 1_545 S
O124 U106 2.441 1_665 S
O124 C110 1.249 . S
O125 U106 2.420 1_665 S
O125 C110 1.202 . S
O126 U106 2.455 . S
O126 C123 1.301 . S
O127 U106 2.449 1_565 S
O127 C123 1.282 1_565 S
H128 C101 0.931 . S
H129 C103 0.929 . S
H130 C104 0.930 . S
H131 C105 0.931 . S
H132 C112 0.932 . S
H133 C113 0.930 . S
H134 C114 0.929 . S
H135 C116 0.930 . S
H136 C118 0.932 . S
H137 C119 0.929 . S
H138 C120 0.928 . S
H139 C122 0.932 . S
C140 C141 1.264 . S
C140 C145 1.479 . S
C140 C150 1.465 . S
C141 C140 1.264 . S
C141 C143 1.339 . S
C141 H168 0.931 . S
C142 C143 1.395 . S
C142 C144 1.309 1_556 S
C143 C141 1.339 . S
C143 C142 1.395 . S
C143 H169 0.929 . S
C144 C142 1.309 1_554 S
C144 C145 1.397 1_554 S
C144 H170 0.950 . S
C145 C140 1.479 . S
C145 C144 1.397 1_556 S
C145 H171 0.936 . S
U146 O147 2.454 . S
U146 O148 2.458 . S
U146 C149 2.984 . S
U146 C150 2.847 . S
U146 C163 2.882 . S
U146 O164 2.441 . S
U146 O165 2.420 . S
U146 O166 2.455 . S
U146 O167 2.449 . S
O147 U146 2.454 . S
O147 C149 1.353 . S
O148 U146 2.458 . S
O148 C149 1.286 . S
C149 U146 2.984 . S
C149 O147 1.353 . S
C149 O148 1.286 . S
C149 C151 1.363 . S
C150 C140 1.465 . S
C150 U146 2.847 . S
C150 O164 1.249 . S
C150 O165 1.202 . S
C151 C149 1.363 . S
C151 C153 1.408 . S
C151 C156 1.342 . S
C152 C153 1.310 . S
C152 C155 1.461 . S
C152 H172 0.932 1_556 S
C153 C151 1.408 . S
C153 C152 1.310 . S
C153 H173 0.930 . S
C154 C155 1.474 . S
C154 C156 1.285 . S
C154 H174 0.929 . S
C155 C152 1.461 . S
C155 C154 1.474 . S
C156 C151 1.342 . S
C156 C154 1.285 . S
C156 H175 0.930 . S
C157 C160 1.424 . S
C157 C162 1.245 . S
C157 C163 1.428 . S
C158 C161 1.260 . S
C158 C162 1.477 . S
C158 H176 0.932 . S
C159 C160 1.384 . S
C159 C161 1.479 . S
C159 H177 0.929 . S
C160 C157 1.424 . S
C160 C159 1.384 . S
C160 H178 0.928 . S
C161 C158 1.260 . S
C161 C159 1.479 . S
C162 C157 1.245 . S
C162 C158 1.477 . S
C162 H179 0.932 . S
C163 U146 2.882 . S
C163 C157 1.428 . S
C163 O166 1.301 . S
C163 O167 1.282 . S
O164 U146 2.441 . S
O164 C150 1.249 . S
O165 U146 2.420 . S
O165 C150 1.202 . S
O166 U146 2.455 . S
O166 C163 1.301 . S
O167 U146 2.449 . S
O167 C163 1.282 . S
H168 C141 0.931 . S
H169 C143 0.929 . S
H170 C144 0.950 . S
H171 C145 0.936 . S
H172 C152 0.932 1_554 S
H173 C153 0.930 . S
H174 C154 0.929 . S
H175 C156 0.930 . S
H176 C158 0.932 . S
H177 C159 0.929 . S
H178 C160 0.928 . S
H179 C162 0.932 . S
C180 C181 1.264 . S
C180 C185 1.479 . S
C180 C190 1.465 . S
C181 C180 1.264 . S
C181 C183 1.339 . S
C181 H208 0.931 . S
C182 C183 1.395 . S
C182 C184 1.320 . S
C183 C181 1.339 . S
C183 C182 1.395 . S
C183 H209 0.929 . S
C184 C182 1.320 . S
C184 C185 1.405 . S
C184 H210 0.930 . S
C185 C180 1.479 . S
C185 C184 1.405 . S
C185 H211 0.931 . S
U186 O187 2.454 . S
U186 O188 2.458 . S
U186 C189 2.984 . S
U186 C190 2.847 . S
U186 C203 2.882 . S
U186 O204 2.441 . S
U186 O205 2.420 . S
U186 O206 2.455 . S
U186 O207 2.449 . S
O187 U186 2.454 . S
O187 C189 1.353 . S
O188 U186 2.458 . S
O188 C189 1.286 . S
C189 U186 2.984 . S
C189 O187 1.353 . S
C189 O188 1.286 . S
C189 C191 1.363 . S
C190 C180 1.465 . S
C190 U186 2.847 . S
C190 O204 1.249 . S
C190 O205 1.202 . S
C191 C189 1.363 . S
C191 C193 1.408 . S
C191 C196 1.342 . S
C192 C193 1.310 . S
C192 C195 1.461 . S
C192 H212 0.932 . S
C193 C191 1.408 . S
C193 C192 1.310 . S
C193 H213 0.930 . S
C194 C195 1.474 . S
C194 C196 1.285 . S
C194 H214 0.929 . S
C195 C192 1.461 . S
C195 C194 1.474 . S
C196 C191 1.342 . S
C196 C194 1.285 . S
C196 H215 0.930 . S
C197 C200 1.424 . S
C197 C202 1.245 . S
C197 C203 1.428 . S
C198 C201 1.260 . S
C198 C202 1.477 . S
C198 H216 0.932 . S
C199 C200 1.384 . S
C199 C201 1.479 . S
C199 H217 0.929 . S
C200 C197 1.424 . S
C200 C199 1.384 . S
C200 H218 0.928 . S
C201 C198 1.260 . S
C201 C199 1.479 . S
C202 C197 1.245 . S
C202 C198 1.477 . S
C202 H219 0.932 . S
C203 U186 2.882 . S
C203 C197 1.428 . S
C203 O206 1.301 . S
C203 O207 1.282 . S
O204 U186 2.441 . S
O204 C190 1.249 . S
O205 U186 2.420 . S
O205 C190 1.202 . S
O206 U186 2.455 . S
O206 C203 1.301 . S
O207 U186 2.449 . S
O207 C203 1.282 . S
H208 C181 0.931 . S
H209 C183 0.929 . S
H210 C184 0.930 . S
H211 C185 0.931 . S
H212 C192 0.932 . S
H213 C193 0.930 . S
H214 C194 0.929 . S
H215 C196 0.930 . S
H216 C198 0.932 . S
H217 C199 0.929 . S
H218 C200 0.928 . S
H219 C202 0.932 . S
H220 C238 0.951 . S
H221 C240 0.951 . S
H222 C242 0.950 1_556 S
H223 C243 0.950 1_556 S
H224 C245 0.950 . S
H225 C248 0.950 . S
H226 C249 0.950 . S
H227 C251 0.950 1_554 S
H228 C252 0.950 . S
H229 C253 0.951 . S
H230 C255 0.951 . S
H231 C257 0.950 . S
H232 C258 0.950 . S
H233 C260 0.950 . S
H234 C263 0.950 . S
H235 C264 0.950 . S
H236 C266 0.950 . S
H237 C267 0.950 . S
C238 H220 0.951 . S
C238 C239 1.366 . S
C238 C240 1.388 . S
C239 C238 1.366 . S
C239 C243 1.385 . S
C240 H221 0.951 . S
C240 C238 1.388 . S
C240 C241 1.366 . S
C241 C240 1.366 . S
C241 C242 1.414 . S
C241 C244 1.499 . S
C242 H222 0.950 1_554 S
C242 C241 1.414 . S
C242 C243 1.374 . S
C243 H223 0.950 1_554 S
C243 C239 1.385 . S
C243 C242 1.374 . S
C244 C241 1.499 . S
C244 C245 1.373 . S
C244 C246 1.389 . S
C245 H224 0.950 . S
C245 C244 1.373 . S
C245 C261 1.377 . S
C246 C244 1.389 . S
C246 C247 1.530 . S
C246 C260 1.377 . S
C247 C246 1.530 . S
C247 C248 1.386 1_554 S
C247 C252 1.367 . S
C248 H225 0.950 . S
C248 C247 1.386 1_556 S
C248 C249 1.334 . S
C249 H226 0.950 . S
C249 C248 1.334 . S
C249 C250 1.287 . S
C250 C249 1.287 . S
C250 C251 1.524 . S
C250 H269 0.913 . S
C251 H227 0.950 1_556 S
C251 C250 1.524 . S
C251 C252 1.415 1_556 S
C252 H228 0.950 . S
C252 C247 1.367 . S
C252 C251 1.415 1_554 S
C253 H229 0.951 . S
C253 C254 1.366 . S
C253 C255 1.388 . S
C254 C253 1.366 . S
C254 C258 1.385 . S
C255 H230 0.951 . S
C255 C253 1.388 . S
C255 C256 1.366 . S
C256 C255 1.366 . S
C256 C257 1.414 . S
C256 C259 1.499 . S
C257 H231 0.950 . S
C257 C256 1.414 . S
C257 C258 1.374 . S
C258 H232 0.950 . S
C258 C254 1.385 . S
C258 C257 1.374 . S
C259 C256 1.499 . S
C259 C260 1.373 . S
C259 C261 1.389 . S
C260 H233 0.950 . S
C260 C246 1.377 . S
C260 C259 1.373 . S
C261 C245 1.377 . S
C261 C259 1.389 . S
C261 C262 1.524 . S
C262 C261 1.524 . S
C262 C263 1.397 . S
C262 C267 1.363 . S
C263 H234 0.950 . S
C263 C262 1.397 . S
C263 C264 1.334 . S
C264 H235 0.950 . S
C264 C263 1.334 . S
C264 C265 1.287 . S
C265 C264 1.287 . S
C265 C266 1.524 . S
C265 H268 0.999 . S
C266 H236 0.950 . S
C266 C265 1.524 . S
C266 C267 1.415 . S
C267 H237 0.950 . S
C267 C262 1.363 . S
C267 C266 1.415 . S
H268 C265 0.999 . S
H269 C250 0.913 . S
H270 C288 0.951 . S
H271 C290 0.951 . S
H272 C292 0.950 . S
H273 C293 0.950 . S
H274 C295 0.950 . S
H275 C298 0.950 . S
H276 C299 0.950 . S
H277 C301 0.950 . S
H278 C302 0.950 . S
H279 C303 0.951 . S
H280 C305 0.951 . S
H281 C307 0.951 1_554 S
H282 C308 0.951 . S
H283 C310 0.950 . S
H284 C313 0.950 . S
H285 C314 0.950 . S
H286 C316 0.950 . S
H287 C317 0.950 . S
C288 H270 0.951 . S
C288 C289 1.366 . S
C288 C290 1.388 . S
C289 C288 1.366 . S
C289 C293 1.385 . S
C290 H271 0.951 . S
C290 C288 1.388 . S
C290 C291 1.366 . S
C291 C290 1.366 . S
C291 C292 1.414 . S
C291 C294 1.499 . S
C292 H272 0.950 . S
C292 C291 1.414 . S
C292 C293 1.374 . S
C293 H273 0.950 . S
C293 C289 1.385 . S
C293 C292 1.374 . S
C294 C291 1.499 . S
C294 C295 1.373 1_554 S
C294 C296 1.389 . S
C295 H274 0.950 . S
C295 C294 1.373 1_556 S
C295 C311 1.377 . S
C296 C294 1.389 . S
C296 C297 1.524 . S
C296 C310 1.377 . S
C297 C296 1.524 . S
C297 C298 1.397 . S
C297 C302 1.363 . S
C298 H275 0.950 . S
C298 C297 1.397 . S
C298 C299 1.334 . S
C299 H276 0.950 . S
C299 C298 1.334 . S
C299 C300 1.287 . S
C300 C299 1.287 . S
C300 C301 1.524 . S
C300 H319 0.913 . S
C301 H277 0.950 . S
C301 C300 1.524 . S
C301 C302 1.415 . S
C302 H278 0.950 . S
C302 C297 1.363 . S
C302 C301 1.415 . S
C303 H279 0.951 . S
C303 C304 1.366 . S
C303 C305 1.388 . S
C304 C303 1.366 . S
C304 C308 1.385 . S
C305 H280 0.951 . S
C305 C303 1.388 . S
C305 C306 1.366 . S
C306 C305 1.366 . S
C306 C307 1.414 . S
C306 C309 1.502 . S
C307 H281 0.951 1_556 S
C307 C306 1.414 . S
C307 C308 1.374 . S
C308 H282 0.951 . S
C308 C304 1.385 . S
C308 C307 1.374 . S
C309 C306 1.502 . S
C309 C310 1.338 1_556 S
C309 C311 1.420 . S
C310 H283 0.950 . S
C310 C296 1.377 . S
C310 C309 1.338 1_554 S
C311 C295 1.377 . S
C311 C309 1.420 . S
C311 C312 1.524 . S
C312 C311 1.524 . S
C312 C313 1.397 . S
C312 C317 1.363 . S
C313 H284 0.950 . S
C313 C312 1.397 . S
C313 C314 1.334 . S
C314 H285 0.950 . S
C314 C313 1.334 . S
C314 C315 1.287 . S
C315 C314 1.287 . S
C315 C316 1.524 . S
C315 H318 0.999 . S
C316 H286 0.950 . S
C316 C315 1.524 . S
C316 C317 1.415 . S
C317 H287 0.950 . S
C317 C312 1.363 . S
C317 C316 1.415 . S
H318 C315 0.999 . S
H319 C300 0.913 . S
H320 C338 0.951 . S
H321 C340 0.951 . S
H322 C342 0.950 . S
H323 C343 0.950 . S
H324 C345 0.950 . S
H325 C348 0.950 1_554 S
H326 C349 0.950 . S
H327 C351 0.950 . S
H328 C352 0.950 . S
H329 C353 0.951 . S
H330 C355 0.951 . S
H331 C357 0.950 1_556 S
H332 C358 0.950 1_556 S
H333 C360 0.950 1_556 S
H334 C363 0.950 . S
H335 C364 0.950 . S
H336 C366 0.950 . S
H337 C367 0.950 . S
C338 H320 0.951 . S
C338 C339 1.366 1_556 S
C338 C340 1.388 . S
C339 C338 1.366 1_554 S
C339 C343 1.385 . S
C340 H321 0.951 . S
C340 C338 1.388 . S
C340 C341 1.366 1_556 S
C341 C340 1.366 1_554 S
C341 C342 1.414 . S
C341 C344 1.499 . S
C342 H322 0.950 . S
C342 C341 1.414 . S
C342 C343 1.374 . S
C343 H323 0.950 . S
C343 C339 1.385 . S
C343 C342 1.374 . S
C344 C341 1.499 . S
C344 C345 1.373 . S
C344 C346 1.389 . S
C345 H324 0.950 . S
C345 C344 1.373 . S
C345 C361 1.377 . S
C346 C344 1.389 . S
C346 C347 1.524 1_554 S
C346 C360 1.377 . S
C347 C346 1.524 1_556 S
C347 C348 1.397 . S
C347 C352 1.363 . S
C348 H325 0.950 1_556 S
C348 C347 1.397 . S
C348 C349 1.334 . S
C349 H326 0.950 . S
C349 C348 1.334 . S
C349 C350 1.287 . S
C350 C349 1.287 . S
C350 C351 1.524 . S
C350 H369 0.913 . S
C351 H327 0.950 . S
C351 C350 1.524 . S
C351 C352 1.415 . S
C352 H328 0.950 . S
C352 C347 1.363 . S
C352 C351 1.415 . S
C353 H329 0.951 . S
C353 C354 1.366 . S
C353 C355 1.388 . S
C354 C353 1.366 . S
C354 C358 1.385 . S
C355 H330 0.951 . S
C355 C353 1.388 . S
C355 C356 1.366 . S
C356 C355 1.366 . S
C356 C357 1.414 . S
C356 C359 1.499 . S
C357 H331 0.950 1_554 S
C357 C356 1.414 . S
C357 C358 1.374 . S
C358 H332 0.950 1_554 S
C358 C354 1.385 . S
C358 C357 1.374 . S
C359 C356 1.499 . S
C359 C360 1.373 . S
C359 C361 1.389 . S
C360 H333 0.950 1_554 S
C360 C346 1.377 . S
C360 C359 1.373 . S
C361 C345 1.377 . S
C361 C359 1.389 . S
C361 C362 1.524 . S
C362 C361 1.524 . S
C362 C363 1.397 . S
C362 C367 1.363 . S
C363 H334 0.950 . S
C363 C362 1.397 . S
C363 C364 1.334 . S
C364 H335 0.950 . S
C364 C363 1.334 . S
C364 C365 1.287 . S
C365 C364 1.287 . S
C365 C366 1.524 . S
C365 H368 0.999 . S
C366 H336 0.950 . S
C366 C365 1.524 . S
C366 C367 1.415 . S
C367 H337 0.950 . S
C367 C362 1.363 . S
C367 C366 1.415 . S
H368 C365 0.999 . S
H369 C350 0.913 . S
H370 C388 0.951 . S
H371 C390 0.951 . S
H372 C392 0.950 . S
H373 C393 0.950 . S
H374 C395 0.950 . S
H375 C398 0.950 . S
H376 C399 0.950 . S
H377 C401 0.950 . S
H378 C402 0.950 . S
H379 C403 0.951 . S
H380 C405 0.951 . S
H381 C407 0.950 . S
H382 C408 0.950 . S
H383 C410 0.950 . S
H384 C413 0.950 . S
H385 C414 0.950 . S
H386 C416 0.950 . S
H387 C417 0.950 . S
C388 H370 0.951 . S
C388 C389 1.366 1_556 S
C388 C390 1.388 . S
C389 C388 1.366 1_554 S
C389 C393 1.385 . S
C390 H371 0.951 . S
C390 C388 1.388 . S
C390 C391 1.366 1_556 S
C391 C390 1.366 1_554 S
C391 C392 1.414 . S
C391 C394 1.499 . S
C392 H372 0.950 . S
C392 C391 1.414 . S
C392 C393 1.374 . S
C393 H373 0.950 . S
C393 C389 1.385 . S
C393 C392 1.374 . S
C394 C391 1.499 . S
C394 C395 1.373 . S
C394 C396 1.389 1_554 S
C395 H374 0.950 . S
C395 C394 1.373 . S
C395 C411 1.377 . S
C396 C394 1.389 1_556 S
C396 C397 1.524 . S
C396 C410 1.377 . S
C397 C396 1.524 . S
C397 C398 1.397 . S
C397 C402 1.363 . S
C398 H375 0.950 . S
C398 C397 1.397 . S
C398 C399 1.334 . S
C399 H376 0.950 . S
C399 C398 1.334 . S
C399 C400 1.287 . S
C400 C399 1.287 . S
C400 C401 1.524 . S
C400 H419 0.913 . S
C401 H377 0.950 . S
C401 C400 1.524 . S
C401 C402 1.415 . S
C402 H378 0.950 . S
C402 C397 1.363 . S
C402 C401 1.415 . S
C403 H379 0.951 . S
C403 C404 1.366 1_554 S
C403 C405 1.388 . S
C404 C403 1.366 1_556 S
C404 C408 1.385 . S
C405 H380 0.951 . S
C405 C403 1.388 . S
C405 C406 1.366 1_554 S
C406 C405 1.366 1_556 S
C406 C407 1.414 . S
C406 C409 1.499 . S
C407 H381 0.950 . S
C407 C406 1.414 . S
C407 C408 1.374 . S
C408 H382 0.950 . S
C408 C404 1.385 . S
C408 C407 1.374 . S
C409 C406 1.499 . S
C409 C410 1.374 . S
C409 C411 1.389 1_556 S
C410 H383 0.950 . S
C410 C396 1.377 . S
C410 C409 1.374 . S
C411 C395 1.377 . S
C411 C409 1.389 1_554 S
C411 C412 1.524 . S
C412 C411 1.524 . S
C412 C413 1.397 . S
C412 C417 1.363 . S
C413 H384 0.950 . S
C413 C412 1.397 . S
C413 C414 1.334 . S
C414 H385 0.950 . S
C414 C413 1.334 . S
C414 C415 1.287 . S
C415 C414 1.287 . S
C415 C416 1.524 . S
C415 H418 0.999 . S
C416 H386 0.950 . S
C416 C415 1.524 . S
C416 C417 1.415 . S
C417 H387 0.950 . S
C417 C412 1.363 . S
C417 C416 1.415 . S
H418 C415 0.999 . S
H419 C400 0.913 . S
H420 C438 0.951 . S
H421 C440 0.951 . S
H422 C442 0.950 . S
H423 C443 0.950 . S
H424 C445 0.950 . S
H425 C448 0.950 . S
H426 C449 0.950 . S
H427 C451 0.950 . S
H428 C452 0.950 . S
H429 C453 0.951 . S
H430 C455 0.951 . S
H431 C457 0.950 . S
H432 C458 0.950 . S
H433 C460 0.950 . S
H434 C463 0.950 . S
H435 C464 0.950 . S
H436 C466 0.950 . S
H437 C467 0.950 . S
C438 H420 0.951 . S
C438 C439 1.366 . S
C438 C440 1.388 . S
C439 C438 1.366 . S
C439 C443 1.385 . S
C440 H421 0.951 . S
C440 C438 1.388 . S
C440 C441 1.366 . S
C441 C440 1.366 . S
C441 C442 1.414 . S
C441 C444 1.499 . S
C442 H422 0.950 . S
C442 C441 1.414 . S
C442 C443 1.374 . S
C443 H423 0.950 . S
C443 C439 1.385 . S
C443 C442 1.374 . S
C444 C441 1.499 . S
C444 C445 1.373 . S
C444 C446 1.389 . S
C445 H424 0.950 . S
C445 C444 1.373 . S
C445 C461 1.377 . S
C446 C444 1.389 . S
C446 C447 1.524 . S
C446 C460 1.377 . S
C447 C446 1.524 . S
C447 C448 1.397 . S
C447 C452 1.363 . S
C448 H425 0.950 . S
C448 C447 1.397 . S
C448 C449 1.334 . S
C449 H426 0.950 . S
C449 C448 1.334 . S
C449 C450 1.287 . S
C450 C449 1.287 . S
C450 C451 1.524 . S
C450 H469 0.913 . S
C451 H427 0.950 . S
C451 C450 1.524 . S
C451 C452 1.415 . S
C452 H428 0.950 . S
C452 C447 1.363 . S
C452 C451 1.415 . S
C453 H429 0.951 . S
C453 C454 1.366 . S
C453 C455 1.388 . S
C454 C453 1.366 . S
C454 C458 1.385 . S
C455 H430 0.951 . S
C455 C453 1.388 . S
C455 C456 1.366 . S
C456 C455 1.366 . S
C456 C457 1.414 . S
C456 C459 1.499 . S
C457 H431 0.950 . S
C457 C456 1.414 . S
C457 C458 1.374 . S
C458 H432 0.950 . S
C458 C454 1.385 . S
C458 C457 1.374 . S
C459 C456 1.499 . S
C459 C460 1.373 . S
C459 C461 1.389 . S
C460 H433 0.950 . S
C460 C446 1.377 . S
C460 C459 1.373 . S
C461 C445 1.377 . S
C461 C459 1.389 . S
C461 C462 1.524 . S
C462 C461 1.524 . S
C462 C463 1.397 . S
C462 C467 1.363 . S
C463 H434 0.950 . S
C463 C462 1.397 . S
C463 C464 1.334 . S
C464 H435 0.950 . S
C464 C463 1.334 . S
C464 C465 1.287 . S
C465 C464 1.287 . S
C465 C466 1.524 . S
C465 H468 0.999 . S
C466 H436 0.950 . S
C466 C465 1.524 . S
C466 C467 1.415 . S
C467 H437 0.950 . S
C467 C462 1.363 . S
C467 C466 1.415 . S
H468 C465 0.999 . S
H469 C450 0.913 . S
H470 C488 0.951 . S
H471 C490 0.951 . S
H472 C492 0.950 . S
H473 C493 0.950 . S
H474 C495 0.950 . S
H475 C498 0.950 . S
H476 C499 0.950 . S
H477 C501 0.950 . S
H478 C502 0.950 . S
H479 C503 0.951 . S
H480 C505 0.951 . S
H481 C507 0.950 . S
H482 C508 0.950 . S
H483 C510 0.950 . S
H484 C513 0.950 . S
H485 C514 0.950 . S
H486 C516 0.950 . S
H487 C517 0.950 . S
C488 H470 0.951 . S
C488 C489 1.366 . S
C488 C490 1.388 . S
C489 C488 1.366 . S
C489 C493 1.385 . S
C490 H471 0.951 . S
C490 C488 1.388 . S
C490 C491 1.366 . S
C491 C490 1.366 . S
C491 C492 1.414 . S
C491 C494 1.499 . S
C492 H472 0.950 . S
C492 C491 1.414 . S
C492 C493 1.374 . S
C493 H473 0.950 . S
C493 C489 1.385 . S
C493 C492 1.374 . S
C494 C491 1.499 . S
C494 C495 1.373 . S
C494 C496 1.389 . S
C495 H474 0.950 . S
C495 C494 1.373 . S
C495 C511 1.377 . S
C496 C494 1.389 . S
C496 C497 1.524 . S
C496 C510 1.377 . S
C497 C496 1.524 . S
C497 C498 1.397 . S
C497 C502 1.363 . S
C498 H475 0.950 . S
C498 C497 1.397 . S
C498 C499 1.334 . S
C499 H476 0.950 . S
C499 C498 1.334 . S
C499 C500 1.287 . S
C500 C499 1.287 . S
C500 C501 1.524 . S
C500 H519 0.913 . S
C501 H477 0.950 . S
C501 C500 1.524 . S
C501 C502 1.415 . S
C502 H478 0.950 . S
C502 C497 1.363 . S
C502 C501 1.415 . S
C503 H479 0.951 . S
C503 C504 1.366 . S
C503 C505 1.388 . S
C504 C503 1.366 . S
C504 C508 1.385 . S
C505 H480 0.951 . S
C505 C503 1.388 . S
C505 C506 1.366 . S
C506 C505 1.366 . S
C506 C507 1.414 . S
C506 C509 1.499 . S
C507 H481 0.950 . S
C507 C506 1.414 . S
C507 C508 1.374 . S
C508 H482 0.950 . S
C508 C504 1.385 . S
C508 C507 1.374 . S
C509 C506 1.499 . S
C509 C510 1.373 . S
C509 C511 1.389 . S
C510 H483 0.950 . S
C510 C496 1.377 . S
C510 C509 1.373 . S
C511 C495 1.377 . S
C511 C509 1.389 . S
C511 C512 1.524 . S
C512 C511 1.524 . S
C512 C513 1.397 . S
C512 C517 1.363 . S
C513 H484 0.950 . S
C513 C512 1.397 . S
C513 C514 1.334 . S
C514 H485 0.950 . S
C514 C513 1.334 . S
C514 C515 1.287 . S
C515 C514 1.287 . S
C515 C516 1.524 . S
C515 H518 0.999 . S
C516 H486 0.950 . S
C516 C515 1.524 . S
C516 C517 1.415 . S
C517 H487 0.950 . S
C517 C512 1.363 . S
C517 C516 1.415 . S
H518 C515 0.999 . S
H519 C500 0.913 . S
H520 C538 0.951 . S
H521 C540 0.951 . S
H522 C542 0.950 . S
H523 C543 0.950 . S
H524 C545 0.950 . S
H525 C548 0.950 . S
H526 C549 0.950 . S
H527 C551 0.950 . S
H528 C552 0.950 . S
H529 C553 0.951 . S
H530 C555 0.951 . S
H531 C557 0.950 . S
H532 C558 0.950 . S
H533 C560 0.950 . S
H534 C563 0.950 . S
H535 C564 0.950 . S
H536 C566 0.950 . S
H537 C567 0.950 . S
C538 H520 0.951 . S
C538 C539 1.366 . S
C538 C540 1.388 . S
C539 C538 1.366 . S
C539 C543 1.385 . S
C540 H521 0.951 . S
C540 C538 1.388 . S
C540 C541 1.366 . S
C541 C540 1.366 . S
C541 C542 1.414 . S
C541 C544 1.499 . S
C542 H522 0.950 . S
C542 C541 1.414 . S
C542 C543 1.374 . S
C543 H523 0.950 . S
C543 C539 1.385 . S
C543 C542 1.374 . S
C544 C541 1.499 . S
C544 C545 1.373 . S
C544 C546 1.389 . S
C545 H524 0.950 . S
C545 C544 1.373 . S
C545 C561 1.377 . S
C546 C544 1.389 . S
C546 C547 1.524 . S
C546 C560 1.377 . S
C547 C546 1.524 . S
C547 C548 1.397 . S
C547 C552 1.363 . S
C548 H525 0.950 . S
C548 C547 1.397 . S
C548 C549 1.334 . S
C549 H526 0.950 . S
C549 C548 1.334 . S
C549 C550 1.287 . S
C550 C549 1.287 . S
C550 C551 1.524 . S
C550 H569 0.913 . S
C551 H527 0.950 . S
C551 C550 1.524 . S
C551 C552 1.415 . S
C552 H528 0.950 . S
C552 C547 1.363 . S
C552 C551 1.415 . S
C553 H529 0.951 . S
C553 C554 1.366 . S
C553 C555 1.388 . S
C554 C553 1.366 . S
C554 C558 1.385 . S
C555 H530 0.951 . S
C555 C553 1.388 . S
C555 C556 1.366 . S
C556 C555 1.366 . S
C556 C557 1.414 . S
C556 C559 1.499 . S
C557 H531 0.950 . S
C557 C556 1.414 . S
C557 C558 1.374 . S
C558 H532 0.950 . S
C558 C554 1.385 . S
C558 C557 1.374 . S
C559 C556 1.499 . S
C559 C560 1.373 . S
C559 C561 1.389 . S
C560 H533 0.950 . S
C560 C546 1.377 . S
C560 C559 1.373 . S
C561 C545 1.377 . S
C561 C559 1.389 . S
C561 C562 1.524 . S
C562 C561 1.524 . S
C562 C563 1.397 . S
C562 C567 1.363 . S
C563 H534 0.950 . S
C563 C562 1.397 . S
C563 C564 1.334 . S
C564 H535 0.950 . S
C564 C563 1.334 . S
C564 C565 1.287 . S
C565 C564 1.287 . S
C565 C566 1.524 . S
C565 H568 0.999 . S
C566 H536 0.950 . S
C566 C565 1.524 . S
C566 C567 1.415 . S
C567 H537 0.950 . S
C567 C562 1.363 . S
C567 C566 1.415 . S
H568 C565 0.999 . S
H569 C550 0.913 . S
H570 C588 0.951 . S
H571 C590 0.951 . S
H572 C592 0.950 . S
H573 C593 0.950 . S
H574 C595 0.950 . S
H575 C598 0.950 . S
H576 C599 0.950 . S
H577 C601 0.950 . S
H578 C602 0.950 . S
H579 C603 0.951 . S
H580 C605 0.951 . S
H581 C607 0.950 . S
H582 C608 0.950 . S
H583 C610 0.950 . S
H584 C613 0.950 . S
H585 C614 0.950 . S
H586 C616 0.950 . S
H587 C617 0.950 . S
C588 H570 0.951 . S
C588 C589 1.366 . S
C588 C590 1.388 . S
C589 C588 1.366 . S
C589 C593 1.385 . S
C590 H571 0.951 . S
C590 C588 1.388 . S
C590 C591 1.366 . S
C591 C590 1.366 . S
C591 C592 1.414 . S
C591 C594 1.499 . S
C592 H572 0.950 . S
C592 C591 1.414 . S
C592 C593 1.374 . S
C593 H573 0.950 . S
C593 C589 1.385 . S
C593 C592 1.374 . S
C594 C591 1.499 . S
C594 C595 1.373 . S
C594 C596 1.389 . S
C595 H574 0.950 . S
C595 C594 1.373 . S
C595 C611 1.377 . S
C596 C594 1.389 . S
C596 C597 1.524 . S
C596 C610 1.377 . S
C597 C596 1.524 . S
C597 C598 1.397 . S
C597 C602 1.363 . S
C598 H575 0.950 . S
C598 C597 1.397 . S
C598 C599 1.334 . S
C599 H576 0.950 . S
C599 C598 1.334 . S
C599 C600 1.287 . S
C600 C599 1.287 . S
C600 C601 1.524 . S
C600 H619 0.913 . S
C601 H577 0.950 . S
C601 C600 1.524 . S
C601 C602 1.415 . S
C602 H578 0.950 . S
C602 C597 1.363 . S
C602 C601 1.415 . S
C603 H579 0.951 . S
C603 C604 1.366 . S
C603 C605 1.388 . S
C604 C603 1.366 . S
C604 C608 1.385 . S
C605 H580 0.951 . S
C605 C603 1.388 . S
C605 C606 1.366 . S
C606 C605 1.366 . S
C606 C607 1.414 . S
C606 C609 1.499 . S
C607 H581 0.950 . S
C607 C606 1.414 . S
C607 C608 1.374 . S
C608 H582 0.950 . S
C608 C604 1.385 . S
C608 C607 1.374 . S
C609 C606 1.499 . S
C609 C610 1.373 . S
C609 C611 1.389 . S
C610 H583 0.950 . S
C610 C596 1.377 . S
C610 C609 1.373 . S
C611 C595 1.377 . S
C611 C609 1.389 . S
C611 C612 1.524 . S
C612 C611 1.524 . S
C612 C613 1.397 . S
C612 C617 1.363 . S
C613 H584 0.950 . S
C613 C612 1.397 . S
C613 C614 1.334 . S
C614 H585 0.950 . S
C614 C613 1.334 . S
C614 C615 1.287 . S
C615 C614 1.287 . S
C615 C616 1.524 . S
C615 H618 0.999 . S
C616 H586 0.950 . S
C616 C615 1.524 . S
C616 C617 1.415 . S
C617 H587 0.950 . S
C617 C612 1.363 . S
C617 C616 1.415 . S
H618 C615 0.999 . S
H619 C600 0.913 . S
H620 C638 0.951 . S
H621 C640 0.951 . S
H622 C642 0.950 1_655 S
H623 C643 0.950 1_655 S
H624 C645 0.950 . S
H625 C648 0.979 . S
H626 C649 0.950 . S
H627 C651 0.950 . S
H628 C652 0.950 . S
H629 C653 0.951 . S
H630 C655 0.951 . S
H631 C657 0.950 . S
H632 C658 0.950 . S
H633 C660 0.950 . S
H634 C663 0.950 1_545 S
H635 C664 0.950 . S
H636 C666 0.950 . S
H637 C667 0.950 . S
C638 H620 0.951 . S
C638 C639 1.366 . S
C638 C640 1.388 . S
C639 C638 1.366 . S
C639 C643 1.385 1_545 S
C640 H621 0.951 . S
C640 C638 1.388 . S
C640 C641 1.366 . S
C641 C640 1.366 . S
C641 C642 1.414 1_545 S
C641 C644 1.499 . S
C642 H622 0.950 1_455 S
C642 C641 1.414 1_565 S
C642 C643 1.374 . S
C643 H623 0.950 1_455 S
C643 C639 1.385 1_565 S
C643 C642 1.374 . S
C644 C641 1.499 . S
C644 C645 1.373 1_445 S
C644 C646 1.389 . S
C645 H624 0.950 . S
C645 C644 1.373 1_665 S
C645 C661 1.377 . S
C646 C644 1.389 . S
C646 C647 1.524 . S
C646 C660 1.377 . S
C647 C646 1.524 . S
C647 C648 1.397 . S
C647 C652 1.363 . S
C648 H625 0.979 . S
C648 C647 1.397 . S
C648 C649 1.334 . S
C649 H626 0.950 . S
C649 C648 1.334 . S
C649 C650 1.287 . S
C650 C649 1.287 . S
C650 C651 1.524 . S
C650 H669 0.913 . S
C651 H627 0.950 . S
C651 C650 1.524 . S
C651 C652 1.415 . S
C652 H628 0.950 . S
C652 C647 1.363 . S
C652 C651 1.415 . S
C653 H629 0.951 . S
C653 C654 1.365 1_665 S
C653 C655 1.388 . S
C654 C653 1.365 1_445 S
C654 C658 1.385 . S
C655 H630 0.951 . S
C655 C653 1.388 . S
C655 C656 1.366 1_665 S
C656 C655 1.366 1_445 S
C656 C657 1.415 . S
C656 C659 1.499 . S
C657 H631 0.950 . S
C657 C656 1.415 . S
C657 C658 1.374 . S
C658 H632 0.950 . S
C658 C654 1.385 . S
C658 C657 1.374 . S
C659 C656 1.499 . S
C659 C660 1.373 . S
C659 C661 1.389 1_445 S
C660 H633 0.950 . S
C660 C646 1.377 . S
C660 C659 1.373 . S
C661 C645 1.377 . S
C661 C659 1.389 1_665 S
C661 C662 1.524 . S
C662 C661 1.524 . S
C662 C663 1.397 . S
C662 C667 1.363 . S
C663 H634 0.950 1_565 S
C663 C662 1.397 . S
C663 C664 1.334 . S
C664 H635 0.950 . S
C664 C663 1.334 . S
C664 C665 1.287 . S
C665 C664 1.287 . S
C665 C666 1.524 . S
C665 H668 0.999 . S
C666 H636 0.950 . S
C666 C665 1.524 . S
C666 C667 1.415 . S
C667 H637 0.950 . S
C667 C662 1.363 . S
C667 C666 1.415 . S
H668 C665 0.999 . S
H669 C650 0.913 . S
H670 C688 0.951 . S
H671 C690 0.951 . S
H672 C692 0.950 . S
H673 C693 0.950 . S
H674 C695 0.950 . S
H675 C698 0.950 . S
H676 C699 0.950 . S
H677 C701 0.950 1_655 S
H678 C702 0.950 . S
H679 C703 0.951 . S
H680 C705 0.951 . S
H681 C707 0.950 . S
H682 C708 0.950 . S
H683 C710 0.950 . S
H684 C713 0.950 . S
H685 C714 0.950 . S
H686 C716 0.950 . S
H687 C717 0.950 . S
C688 H670 0.951 . S
C688 C689 1.366 1_665 S
C688 C690 1.388 . S
C689 C688 1.366 1_445 S
C689 C693 1.385 . S
C690 H671 0.951 . S
C690 C688 1.388 . S
C690 C691 1.366 1_665 S
C691 C690 1.366 1_445 S
C691 C692 1.414 . S
C691 C694 1.499 . S
C692 H672 0.950 . S
C692 C691 1.414 . S
C692 C693 1.374 . S
C693 H673 0.950 . S
C693 C689 1.385 . S
C693 C692 1.374 . S
C694 C691 1.499 . S
C694 C695 1.373 . S
C694 C696 1.389 1_545 S
C695 H674 0.950 . S
C695 C694 1.373 . S
C695 C711 1.376 1_455 S
C696 C694 1.389 1_565 S
C696 C697 1.524 . S
C696 C710 1.377 . S
C697 C696 1.524 . S
C697 C698 1.397 . S
C697 C702 1.363 1_455 S
C698 H675 0.950 . S
C698 C697 1.397 . S
C698 C699 1.334 . S
C699 H676 0.950 . S
C699 C698 1.334 . S
C699 C700 1.287 . S
C700 C699 1.287 . S
C700 C701 1.524 . S
C700 H719 0.913 . S
C701 H677 0.950 1_455 S
C701 C700 1.524 . S
C701 C702 1.415 1_455 S
C702 H678 0.950 . S
C702 C697 1.363 1_655 S
C702 C701 1.415 1_655 S
C703 H679 0.951 . S
C703 C704 1.366 . S
C703 C705 1.388 . S
C704 C703 1.366 . S
C704 C708 1.385 1_445 S
C705 H680 0.951 . S
C705 C703 1.388 . S
C705 C706 1.366 . S
C706 C705 1.366 . S
C706 C707 1.414 1_445 S
C706 C709 1.499 . S
C707 H681 0.950 . S
C707 C706 1.414 1_665 S
C707 C708 1.374 . S
C708 H682 0.950 . S
C708 C704 1.385 1_665 S
C708 C707 1.374 . S
C709 C706 1.499 . S
C709 C710 1.373 1_545 S
C709 C711 1.389 1_455 S
C710 H683 0.950 . S
C710 C696 1.377 . S
C710 C709 1.373 1_565 S
C711 C695 1.376 1_655 S
C711 C709 1.389 1_655 S
C711 C712 1.525 . S
C712 C711 1.525 . S
C712 C713 1.397 . S
C712 C717 1.363 1_655 S
C713 H684 0.950 . S
C713 C712 1.397 . S
C713 C714 1.334 . S
C714 H685 0.950 . S
C714 C713 1.334 . S
C714 C715 1.287 . S
C715 C714 1.287 . S
C715 C716 1.524 1_655 S
C715 H718 0.999 . S
C716 H686 0.950 . S
C716 C715 1.524 1_455 S
C716 C717 1.415 . S
C717 H687 0.950 . S
C717 C712 1.363 1_455 S
C717 C716 1.415 . S
H718 C715 0.999 . S
H719 C700 0.913 . S
H720 C738 0.951 . S
H721 C740 0.951 . S
H722 C742 0.950 . S
H723 C743 0.950 . S
H724 C745 0.950 . S
H725 C748 0.950 . S
H726 C749 0.950 . S
H727 C751 0.950 . S
H728 C752 0.950 . S
H729 C753 0.951 . S
H730 C755 0.951 . S
H731 C757 0.950 . S
H732 C758 0.950 . S
H733 C760 0.950 . S
H734 C763 0.950 . S
H735 C764 0.950 . S
H736 C766 0.950 . S
H737 C767 0.950 . S
C738 H720 0.951 . S
C738 C739 1.366 . S
C738 C740 1.388 . S
C739 C738 1.366 . S
C739 C743 1.385 . S
C740 H721 0.951 . S
C740 C738 1.388 . S
C740 C741 1.366 . S
C741 C740 1.366 . S
C741 C742 1.414 . S
C741 C744 1.499 . S
C742 H722 0.950 . S
C742 C741 1.414 . S
C742 C743 1.374 . S
C743 H723 0.950 . S
C743 C739 1.385 . S
C743 C742 1.374 . S
C744 C741 1.499 . S
C744 C745 1.373 . S
C744 C746 1.389 . S
C745 H724 0.950 . S
C745 C744 1.373 . S
C745 C761 1.377 . S
C746 C744 1.389 . S
C746 C747 1.524 . S
C746 C760 1.377 . S
C747 C746 1.524 . S
C747 C748 1.397 . S
C747 C752 1.363 . S
C748 H725 0.950 . S
C748 C747 1.397 . S
C748 C749 1.334 . S
C749 H726 0.950 . S
C749 C748 1.334 . S
C749 C750 1.287 . S
C750 C749 1.287 . S
C750 C751 1.524 . S
C750 H769 0.913 . S
C751 H727 0.950 . S
C751 C750 1.524 . S
C751 C752 1.415 . S
C752 H728 0.950 . S
C752 C747 1.363 . S
C752 C751 1.415 . S
C753 H729 0.951 . S
C753 C754 1.366 . S
C753 C755 1.388 . S
C754 C753 1.366 . S
C754 C758 1.385 . S
C755 H730 0.951 . S
C755 C753 1.388 . S
C755 C756 1.366 . S
C756 C755 1.366 . S
C756 C757 1.414 . S
C756 C759 1.499 . S
C757 H731 0.950 . S
C757 C756 1.414 . S
C757 C758 1.374 . S
C758 H732 0.950 . S
C758 C754 1.385 . S
C758 C757 1.374 . S
C759 C756 1.499 . S
C759 C760 1.373 . S
C759 C761 1.389 . S
C760 H733 0.950 . S
C760 C746 1.377 . S
C760 C759 1.373 . S
C761 C745 1.377 . S
C761 C759 1.389 . S
C761 C762 1.524 . S
C762 C761 1.524 . S
C762 C763 1.397 . S
C762 C767 1.363 . S
C763 H734 0.950 . S
C763 C762 1.397 . S
C763 C764 1.334 . S
C764 H735 0.950 . S
C764 C763 1.334 . S
C764 C765 1.287 . S
C765 C764 1.287 . S
C765 C766 1.524 . S
C765 H768 0.999 . S
C766 H736 0.950 . S
C766 C765 1.524 . S
C766 C767 1.415 . S
C767 H737 0.950 . S
C767 C762 1.363 . S
C767 C766 1.415 . S
H768 C765 0.999 . S
H769 C750 0.913 . S
H770 C788 0.951 . S
H771 C790 0.951 . S
H772 C792 0.950 . S
H773 C793 0.950 . S
H774 C795 0.950 . S
H775 C798 0.950 . S
H776 C799 0.950 . S
H777 C801 0.950 . S
H778 C802 0.950 . S
H779 C803 0.951 . S
H780 C805 0.951 . S
H781 C807 0.950 . S
H782 C808 0.950 . S
H783 C810 0.950 . S
H784 C813 0.950 . S
H785 C814 0.950 . S
H786 C816 0.950 . S
H787 C817 0.950 . S
C788 H770 0.951 . S
C788 C789 1.366 . S
C788 C790 1.388 . S
C789 C788 1.366 . S
C789 C793 1.385 . S
C790 H771 0.951 . S
C790 C788 1.388 . S
C790 C791 1.366 . S
C791 C790 1.366 . S
C791 C792 1.414 . S
C791 C794 1.499 . S
C792 H772 0.950 . S
C792 C791 1.414 . S
C792 C793 1.374 . S
C793 H773 0.950 . S
C793 C789 1.385 . S
C793 C792 1.374 . S
C794 C791 1.499 . S
C794 C795 1.373 . S
C794 C796 1.389 . S
C795 H774 0.950 . S
C795 C794 1.373 . S
C795 C811 1.377 . S
C796 C794 1.389 . S
C796 C797 1.524 . S
C796 C810 1.377 . S
C797 C796 1.524 . S
C797 C798 1.397 . S
C797 C802 1.363 . S
C798 H775 0.950 . S
C798 C797 1.397 . S
C798 C799 1.334 . S
C799 H776 0.950 . S
C799 C798 1.334 . S
C799 C800 1.287 . S
C800 C799 1.287 . S
C800 C801 1.524 . S
C800 H819 0.913 . S
C801 H777 0.950 . S
C801 C800 1.524 . S
C801 C802 1.415 . S
C802 H778 0.950 . S
C802 C797 1.363 . S
C802 C801 1.415 . S
C803 H779 0.951 . S
C803 C804 1.366 . S
C803 C805 1.388 . S
C804 C803 1.366 . S
C804 C808 1.385 . S
C805 H780 0.951 . S
C805 C803 1.388 . S
C805 C806 1.366 . S
C806 C805 1.366 . S
C806 C807 1.414 . S
C806 C809 1.499 . S
C807 H781 0.950 . S
C807 C806 1.414 . S
C807 C808 1.374 . S
C808 H782 0.950 . S
C808 C804 1.385 . S
C808 C807 1.374 . S
C809 C806 1.499 . S
C809 C810 1.373 . S
C809 C811 1.389 . S
C810 H783 0.950 . S
C810 C796 1.377 . S
C810 C809 1.373 . S
C811 C795 1.377 . S
C811 C809 1.389 . S
C811 C812 1.524 . S
C812 C811 1.524 . S
C812 C813 1.397 . S
C812 C817 1.363 . S
C813 H784 0.950 . S
C813 C812 1.397 . S
C813 C814 1.334 . S
C814 H785 0.950 . S
C814 C813 1.334 . S
C814 C815 1.287 . S
C815 C814 1.287 . S
C815 C816 1.524 . S
C815 H818 0.999 . S
C816 H786 0.950 . S
C816 C815 1.524 . S
C816 C817 1.415 . S
C817 H787 0.950 . S
C817 C812 1.363 . S
C817 C816 1.415 . S
H818 C815 0.999 . S
H819 C800 0.913 . S
C254 C182 1.427 . S
C239 C27 1.455 . S
C289 N6 1.362 . S
C304 C142 1.381 . S
C339 C16 1.439 . S
C354 C195 1.409 . S
C389 N14 1.372 . S
C404 C155 1.367 . S
C439 C57 1.455 . S
C454 C102 1.427 . S
C489 N36 1.363 . S
C504 C62 1.380 . S
C554 C115 1.408 . S
C539 C46 1.439 . S
C604 C75 1.367 . S
C589 N44 1.372 . S
C639 C10 1.388 . S
C654 C81 1.378 . S
C689 C1 1.522 . S
C704 C121 1.513 . S
C754 C161 1.378 . S
C739 C40 1.388 . S
C789 C31 1.522 . S
C804 C201 1.513 . S
