# Generated by pormake.
# Topology bcu-b, (8,8)-cn, num edge types: 1
# Building blocks:
#     Node 0, Type 0, BuildingBlock: VETTIZ_charged_sbu_0, # of connection points: 8
#     Node 1, Type 1, BuildingBlock: TAGTUT_clean_sbu_3, # of connection points: 8
#     Edge 2, Type (0, 1), BuildingBlock: ZUJKAS_clean_linker_0, # of connection points: 2
#     Edge 3, Type (0, 1), BuildingBlock: ZUJKAS_clean_linker_0, # of connection points: 2
#     Edge 4, Type (0, 1), BuildingBlock: ZUJKAS_clean_linker_0, # of connection points: 2
#     Edge 5, Type (0, 1), BuildingBlock: ZUJKAS_clean_linker_0, # of connection points: 2
#     Edge 6, Type (0, 1), BuildingBlock: ZUJKAS_clean_linker_0, # of connection points: 2
#     Edge 7, Type (0, 1), BuildingBlock: ZUJKAS_clean_linker_0, # of connection points: 2
#     Edge 8, Type (0, 1), BuildingBlock: ZUJKAS_clean_linker_0, # of connection points: 2
#     Edge 9, Type (0, 1), BuildingBlock: ZUJKAS_clean_linker_0, # of connection points: 2
# Relax obj value: 0.021
# Max RMSD: 0.104
# Mean RMSD: 0.073
data_MOF--net-bcu-b--node1-VETTIZ_charged_sbu_0--node2-TAGTUT_clean_sbu_3--edge1-ZUJKAS_clean_linker_0
_symmetry_space_group_name_H-M    P1
_symmetry_Int_Tables_number       1
_symmetry_cell_setting            triclinic
loop_
_symmetry_equiv_pos_as_xyz
'x, y, z'
_cell_length_a     24.517761
_cell_length_b     24.330767
_cell_length_c     26.260016
_cell_angle_alpha  90.632291
_cell_angle_beta   89.472507
_cell_angle_gamma 98.09619
loop_
_atom_site_label
_atom_site_type_symbol
_atom_site_fract_x
_atom_site_fract_y
_atom_site_fract_z
_atom_type_partial_charge
Fe0 Fe 0.04338 0.90209 -0.00822 0.0
O1 O 0.04295 0.98218 -0.00283 0.0
Fe2 Fe 0.01458 0.0239 0.93545 0.0
Fe3 Fe 1.00491 0.01781 0.05344 0.0
O4 O 0.04392 0.98278 -0.00785 0.0
O5 O 0.97648 0.05976 -0.00825 0.0
O6 O 0.97494 0.05878 -0.0031 0.0
Fe7 Fe 0.97753 0.14015 -0.00145 0.0
C8 C 0.93866 0.90514 0.05595 0.0
O9 O 0.09415 0.91809 0.05396 0.0
O10 O 0.04446 0.97118 0.1053 0.0
O11 O 0.0422 0.1595 0.94841 0.0
O12 O 0.08279 0.08358 0.93891 0.0
O13 O 0.05914 0.97958 0.88368 0.0
O14 O 0.10126 0.9221 0.93546 0.0
O15 O 0.0726 0.07706 0.05923 0.0
O16 O 0.03253 0.15328 0.05854 0.0
C17 C 0.09561 0.94669 0.89266 0.0
O18 O 0.92916 0.12729 0.93448 0.0
O19 O 0.97752 0.07262 0.88355 0.0
O20 O 0.98085 0.88272 0.04387 0.0
O21 O 0.93735 0.95692 0.05078 0.0
C22 C 0.08382 0.94098 0.09736 0.0
C23 C 0.0726 0.12789 0.07027 0.0
C24 C 0.92113 0.09252 0.09487 0.0
O25 O 0.95872 0.06113 0.10496 0.0
O26 O 0.91772 0.11934 0.05283 0.0
C27 C 0.08285 0.13561 0.93431 0.0
O28 O 0.9468 0.96463 0.92844 0.0
O29 O 0.9857 0.88729 0.93416 0.0
C30 C 0.94125 0.10654 0.89062 0.0
C31 C 0.94639 0.91295 0.92037 0.0
C32 C 0.60543 0.59674 0.55607 0.0
C33 C 0.67053 0.39718 0.52728 0.0
C34 C 0.58708 0.39735 0.3886 0.0
Mg35 Mg 0.49593 0.64091 0.51333 0.0
Mg36 Mg 0.38365 0.55368 0.49086 0.0
O37 O 0.45875 0.57322 0.47657 0.0
Mg38 Mg 0.51034 0.51935 0.49274 0.0
O39 O 0.56653 0.4704 0.50894 0.0
Mg40 Mg 0.63094 0.50683 0.46773 0.0
Mg41 Mg 0.5473 0.3943 0.49708 0.0
C42 C 0.40855 0.44619 0.42952 0.0
O43 O 0.45362 0.4714 0.55398 0.0
O44 O 0.43304 0.68935 0.47196 0.0
O45 O 0.47173 0.38374 0.54147 0.0
O46 O 0.43573 0.63114 0.58165 0.0
O47 O 0.35819 0.626 0.4576 0.0
O48 O 0.36742 0.56156 0.57084 0.0
O49 O 0.57035 0.56111 0.43189 0.0
O50 O 0.5553 0.64853 0.44585 0.0
C51 C 0.58027 0.61315 0.42186 0.0
C52 C 0.38385 0.6756 0.45483 0.0
O53 O 0.46098 0.45801 0.43592 0.0
O54 O 0.68272 0.44676 0.5098 0.0
O55 O 0.37361 0.4742 0.45073 0.0
O56 O 0.61871 0.44133 0.40226 0.0
O57 O 0.62167 0.37036 0.5261 0.0
O58 O 0.54824 0.37533 0.41754 0.0
O59 O 0.55351 0.5836 0.54898 0.0
O60 O 0.64088 0.572 0.53201 0.0
C61 C 0.39218 0.60113 0.59786 0.0
C62 C 0.44397 0.41886 0.56275 0.0
H63 H 0.08696 0.23561 0.10504 0.0
H64 H 0.15972 0.28061 0.16052 0.0
H65 H 0.23559 0.13111 0.1604 0.0
H66 H 0.16264 0.08537 0.10556 0.0
H67 H 0.22294 0.17133 0.25603 0.0
H68 H 0.32023 0.34047 0.13226 0.0
H69 H 0.24703 0.33925 0.13706 0.0
H70 H 0.27446 0.28157 0.10788 0.0
C71 C 0.11943 0.21243 0.11627 0.0
C72 C 0.1188 0.15683 0.10079 0.0
C73 C 0.16128 0.23839 0.14771 0.0
C74 C 0.20359 0.2095 0.16396 0.0
C75 C 0.20357 0.1543 0.14801 0.0
H76 H 0.46274 0.39951 0.35159 0.0
H77 H 0.42165 0.33298 0.28688 0.0
C78 C 0.16176 0.12826 0.11661 0.0
C79 C 0.24521 0.23561 0.20076 0.0
H80 H 0.33618 0.353 0.22247 0.0
C81 C 0.24842 0.21058 0.24836 0.0
C82 C 0.27931 0.28622 0.19047 0.0
C83 C 0.28059 0.31315 0.13892 0.0
C84 C 0.28208 0.23665 0.28704 0.0
C85 C 0.31265 0.28944 0.2781 0.0
C86 C 0.3123 0.31273 0.22945 0.0
C87 C 0.33977 0.32396 0.32004 0.0
C88 C 0.28358 0.20803 0.33758 0.0
C89 C 0.30752 0.34038 0.36027 0.0
C90 C 0.33068 0.37818 0.39699 0.0
C91 C 0.38669 0.40065 0.39425 0.0
C92 C 0.41959 0.38261 0.35499 0.0
C93 C 0.39615 0.34485 0.31789 0.0
H94 H 0.27396 0.16223 0.33314 0.0
H95 H 0.32449 0.21821 0.35581 0.0
H96 H 0.25204 0.22194 0.36341 0.0
H97 H 0.26374 0.32565 0.36217 0.0
H98 H 0.3042 0.39102 0.42677 0.0
H99 H 0.937 0.13582 0.19085 0.0
H100 H 0.86798 0.17671 0.24172 0.0
H101 H 0.74245 0.11258 0.13403 0.0
H102 H 0.81138 0.07299 0.08293 0.0
H103 H 0.75194 0.22486 0.14544 0.0
H104 H 0.73659 0.12478 0.33477 0.0
H105 H 0.80597 0.14933 0.31493 0.0
H106 H 0.76595 0.09418 0.2798 0.0
C107 C 0.89421 0.12848 0.17948 0.0
C108 C 0.87917 0.10105 0.13338 0.0
C109 C 0.85481 0.15198 0.20837 0.0
C110 C 0.79997 0.14768 0.19166 0.0
C111 C 0.78442 0.11646 0.14763 0.0
H112 H 0.54457 0.29146 0.35951 0.0
H113 H 0.59037 0.2291 0.30561 0.0
C114 C 0.82369 0.09354 0.11868 0.0
C115 C 0.76076 0.18172 0.21552 0.0
H116 H 0.69834 0.20946 0.32775 0.0
C117 C 0.73977 0.22105 0.18521 0.0
C118 C 0.74461 0.17654 0.26724 0.0
C119 C 0.764 0.13359 0.30104 0.0
C120 C 0.70424 0.25628 0.2055 0.0
C121 C 0.68983 0.25261 0.25766 0.0
C122 C 0.70955 0.21228 0.28772 0.0
C123 C 0.65693 0.29212 0.28263 0.0
C124 C 0.68251 0.29719 0.17095 0.0
C125 C 0.67789 0.34876 0.28579 0.0
C126 C 0.65176 0.38465 0.31644 0.0
C127 C 0.6044 0.36443 0.34493 0.0
C128 C 0.58101 0.30856 0.33829 0.0
C129 C 0.60735 0.27265 0.30777 0.0
H130 H 0.68427 0.28429 0.13031 0.0
H131 H 0.63931 0.30194 0.18098 0.0
H132 H 0.70817 0.33833 0.17523 0.0
H133 H 0.71636 0.3646 0.26707 0.0
H134 H 0.67095 0.42737 0.32052 0.0
H135 H 0.86032 0.93801 0.12054 0.0
H136 H 0.79562 0.87782 0.17451 0.0
H137 H 0.84921 0.73312 0.10472 0.0
H138 H 0.91427 0.79264 0.05136 0.0
H139 H 0.70925 0.79059 0.15429 0.0
H140 H 0.88195 0.71474 0.25572 0.0
H141 H 0.89223 0.7741 0.21437 0.0
H142 H 0.88212 0.70506 0.18783 0.0
C143 C 0.85763 0.89339 0.11611 0.0
C144 C 0.89298 0.87008 0.08227 0.0
C145 C 0.82082 0.85905 0.14706 0.0
C146 C 0.81873 0.80106 0.14448 0.0
C147 C 0.85126 0.77776 0.10828 0.0
H148 H 0.63117 0.5541 0.34919 0.0
H149 H 0.68887 0.59294 0.27722 0.0
C150 C 0.88821 0.8119 0.07766 0.0
C151 C 0.7844 0.76513 0.18117 0.0
H152 H 0.79195 0.67744 0.28095 0.0
C153 C 0.72727 0.76554 0.18171 0.0
C154 C 0.80806 0.73223 0.21679 0.0
C155 C 0.86948 0.73164 0.21915 0.0
C156 C 0.69325 0.73477 0.21758 0.0
C157 C 0.7171 0.70334 0.25414 0.0
C158 C 0.7739 0.70127 0.25254 0.0
C159 C 0.68471 0.67856 0.29806 0.0
C160 C 0.63207 0.73695 0.21684 0.0
C161 C 0.66517 0.71388 0.33415 0.0
C162 C 0.63293 0.69214 0.37498 0.0
C163 C 0.61933 0.63436 0.38084 0.0
C164 C 0.64075 0.59874 0.34567 0.0
C165 C 0.67346 0.6208 0.30453 0.0
H166 H 0.61853 0.74998 0.17912 0.0
H167 H 0.60849 0.69591 0.22634 0.0
H168 H 0.62185 0.76757 0.24577 0.0
H169 H 0.67444 0.75854 0.33039 0.0
H170 H 0.6179 0.72101 0.40155 0.0
H171 H 0.18434 0.90574 0.0928 0.0
H172 H 0.23706 0.87552 0.16276 0.0
H173 H 0.11618 0.91944 0.27031 0.0
H174 H 0.0626 0.95033 0.2001 0.0
H175 H 0.24055 0.94494 0.29823 0.0
H176 H 0.16369 0.72845 0.2373 0.0
H177 H 0.19282 0.77401 0.18762 0.0
H178 H 0.13046 0.78687 0.21912 0.0
C179 C 0.16898 0.9096 0.1313 0.0
C180 C 0.1186 0.92948 0.14076 0.0
C181 C 0.19945 0.89258 0.17124 0.0
C182 C 0.18017 0.8948 0.22145 0.0
C183 C 0.13163 0.91753 0.23164 0.0
H184 H 0.27356 0.67617 0.45052 0.0
H185 H 0.22414 0.73686 0.40074 0.0
C186 C 0.10105 0.93496 0.19152 0.0
C187 C 0.20788 0.86768 0.26197 0.0
H188 H 0.23389 0.74019 0.29896 0.0
C189 C 0.23888 0.90018 0.29888 0.0
C190 C 0.20515 0.80931 0.26269 0.0
C191 C 0.17093 0.7724 0.22487 0.0
C192 C 0.26834 0.87554 0.33608 0.0
C193 C 0.26697 0.81718 0.33569 0.0
C194 C 0.23506 0.78493 0.2992 0.0
C195 C 0.29756 0.78766 0.37264 0.0
C196 C 0.30016 0.91196 0.37563 0.0
C197 C 0.35543 0.797 0.3746 0.0
C198 C 0.38399 0.76243 0.4036 0.0
C199 C 0.35499 0.7175 0.43016 0.0
C200 C 0.29709 0.71 0.42989 0.0
C201 C 0.26874 0.74479 0.40161 0.0
H202 H 0.28544 0.95301 0.37909 0.0
H203 H 0.29686 0.89177 0.41347 0.0
H204 H 0.34431 0.91916 0.36441 0.0
H205 H 0.37859 0.82914 0.35177 0.0
H206 H 0.42861 0.769 0.40299 0.0
H207 H 0.05924 0.89461 0.80493 0.0
H208 H 0.11094 0.83413 0.75371 0.0
H209 H 0.25844 0.89481 0.83696 0.0
H210 H 0.20646 0.95368 0.88912 0.0
H211 H 0.20589 0.84158 0.69346 0.0
H212 H 0.2322 0.73081 0.87315 0.0
H213 H 0.18696 0.78289 0.86835 0.0
H214 H 0.25996 0.80306 0.8758 0.0
C215 C 0.1032 0.8967 0.81065 0.0
C216 C 0.12911 0.92874 0.85067 0.0
C217 C 0.13256 0.86172 0.78185 0.0
C218 C 0.18807 0.8587 0.79275 0.0
C219 C 0.21527 0.89537 0.82894 0.0
H220 H 0.43462 0.67621 0.67042 0.0
H221 H 0.38179 0.73395 0.72278 0.0
C222 C 0.18584 0.92961 0.85813 0.0
C223 C 0.21615 0.81406 0.76993 0.0
H224 H 0.28112 0.70343 0.80064 0.0
C225 C 0.22204 0.81121 0.71683 0.0
C226 C 0.23654 0.77389 0.80054 0.0
C227 C 0.22816 0.77232 0.85757 0.0
C228 C 0.24939 0.77038 0.69367 0.0
C229 C 0.27105 0.73139 0.72444 0.0
C230 C 0.26452 0.7336 0.77736 0.0
C231 C 0.30245 0.68949 0.70183 0.0
C232 C 0.25603 0.76963 0.6365 0.0
C233 C 0.27522 0.64336 0.67548 0.0
C234 C 0.30527 0.60976 0.64598 0.0
C235 C 0.36297 0.62246 0.64188 0.0
C236 C 0.39024 0.6655 0.67246 0.0
C237 C 0.36015 0.69874 0.70222 0.0
H238 H 0.24163 0.80603 0.61846 0.0
H239 H 0.29993 0.76905 0.62599 0.0
H240 H 0.23198 0.73127 0.62068 0.0
H241 H 0.23062 0.6354 0.67525 0.0
H242 H 0.28287 0.57703 0.62297 0.0
H243 H 0.10873 0.24838 0.93285 0.0
H244 H 0.17059 0.30352 0.87323 0.0
H245 H 0.21882 0.1537 0.80895 0.0
H246 H 0.15706 0.09794 0.8685 0.0
H247 H 0.29162 0.30293 0.84844 0.0
H248 H 0.14552 0.23766 0.69112 0.0
H249 H 0.12531 0.23279 0.75743 0.0
H250 H 0.1646 0.18294 0.72984 0.0
C251 C 0.13321 0.22712 0.90664 0.0
C252 C 0.1276 0.16872 0.90509 0.0
C253 C 0.16852 0.25874 0.87268 0.0
C254 C 0.19847 0.23254 0.83637 0.0
C255 C 0.1955 0.17451 0.83653 0.0
H256 H 0.39927 0.31115 0.57598 0.0
H257 H 0.33703 0.27256 0.64313 0.0
C258 C 0.16049 0.14278 0.87078 0.0
C259 C 0.2299 0.26558 0.79615 0.0
H260 H 0.23104 0.28954 0.66837 0.0
C261 C 0.27838 0.30046 0.80908 0.0
C262 C 0.21187 0.26254 0.74512 0.0
C263 C 0.15876 0.22735 0.72981 0.0
C264 C 0.31089 0.33058 0.77163 0.0
C265 C 0.29359 0.32639 0.72026 0.0
C266 C 0.24412 0.29277 0.70778 0.0
C267 C 0.3288 0.35186 0.67819 0.0
C268 C 0.36456 0.36466 0.78696 0.0
C269 C 0.3438 0.40963 0.67475 0.0
C270 C 0.37986 0.43211 0.63616 0.0
C271 C 0.40124 0.39704 0.60047 0.0
C272 C 0.38415 0.33944 0.60306 0.0
C273 C 0.34837 0.3172 0.64141 0.0
H274 H 0.37678 0.35509 0.82617 0.0
H275 H 0.39816 0.35733 0.76018 0.0
H276 H 0.36014 0.40939 0.7857 0.0
H277 H 0.32825 0.4372 0.70223 0.0
H278 H 0.39222 0.47659 0.63527 0.0
H279 H 0.96641 0.09393 0.78887 0.0
H280 H 0.92815 0.13812 0.71636 0.0
H281 H 0.81974 0.21224 0.81832 0.0
H282 H 0.85609 0.16758 0.89016 0.0
H283 H 0.76724 0.16955 0.73428 0.0
H284 H 0.96237 0.30269 0.68131 0.0
H285 H 0.96534 0.22931 0.68196 0.0
H286 H 0.95396 0.26515 0.74042 0.0
C287 C 0.93394 0.11908 0.79574 0.0
C288 C 0.91472 0.12744 0.84553 0.0
C289 C 0.91261 0.14483 0.75431 0.0
C290 C 0.87196 0.17948 0.76211 0.0
C291 C 0.8514 0.18607 0.81143 0.0
H292 H 0.75042 0.43917 0.59511 0.0
H293 H 0.80583 0.38457 0.64713 0.0
C294 C 0.87238 0.16039 0.85257 0.0
C295 C 0.8499 0.20912 0.71954 0.0
H296 H 0.88403 0.31141 0.63189 0.0
C297 C 0.79285 0.20023 0.71159 0.0
C298 C 0.88335 0.24978 0.69059 0.0
C299 C 0.94461 0.26285 0.69909 0.0
C300 C 0.76804 0.2315 0.67634 0.0
C301 C 0.80145 0.2717 0.64684 0.0
C302 C 0.85866 0.28023 0.65421 0.0
C303 C 0.7768 0.3063 0.60966 0.0
C304 C 0.70596 0.22265 0.67262 0.0
C305 C 0.74456 0.28089 0.56982 0.0
C306 C 0.71247 0.31164 0.54096 0.0
C307 C 0.71318 0.36867 0.55046 0.0
C308 C 0.74937 0.39527 0.58705 0.0
C309 C 0.78086 0.36412 0.61674 0.0
H310 H 0.68621 0.20147 0.70674 0.0
H311 H 0.6898 0.26271 0.66818 0.0
H312 H 0.69349 0.19612 0.6389 0.0
H313 H 0.74193 0.23663 0.56284 0.0
H314 H 0.68529 0.29036 0.51249 0.0
H315 H 0.91188 0.80112 0.91735 0.0
H316 H 0.8423 0.75064 0.86147 0.0
H317 H 0.81008 0.90543 0.79776 0.0
H318 H 0.87799 0.95628 0.85486 0.0
H319 H 0.71598 0.83404 0.80754 0.0
H320 H 0.87607 0.7275 0.71365 0.0
H321 H 0.8698 0.71419 0.78062 0.0
H322 H 0.89285 0.78354 0.75874 0.0
C323 C 0.88964 0.8244 0.89171 0.0
C324 C 0.90097 0.88261 0.89002 0.0
C325 C 0.85003 0.79551 0.85967 0.0
C326 C 0.82199 0.82415 0.82445 0.0
C327 C 0.83139 0.88241 0.82439 0.0
H328 H 0.69413 0.67503 0.54442 0.0
H329 H 0.74022 0.73597 0.61003 0.0
C330 C 0.87033 0.91141 0.85702 0.0
C331 C 0.78538 0.79349 0.7857 0.0
H332 H 0.78407 0.69825 0.68931 0.0
C333 C 0.73079 0.80439 0.78156 0.0
C334 C 0.80502 0.75554 0.75122 0.0
C335 C 0.86426 0.74486 0.75082 0.0
C336 C 0.6953 0.77821 0.74397 0.0
C337 C 0.71461 0.7391 0.71048 0.0
C338 C 0.7691 0.72813 0.71497 0.0
C339 C 0.6804 0.70981 0.66926 0.0
C340 C 0.63818 0.79393 0.73965 0.0
C341 C 0.63 0.67643 0.67994 0.0
C342 C 0.60275 0.64249 0.64184 0.0
C343 C 0.62639 0.64045 0.59306 0.0
C344 C 0.67525 0.67573 0.58186 0.0
C345 C 0.70166 0.71041 0.61939 0.0
H346 H 0.63559 0.83523 0.75725 0.0
H347 H 0.62538 0.79474 0.69925 0.0
H348 H 0.60854 0.76286 0.75996 0.0
H349 H 0.61323 0.67426 0.71826 0.0
H350 H 0.56537 0.61514 0.65143 0.0
loop_
_geom_bond_atom_site_label_1
_geom_bond_atom_site_label_2
_geom_bond_distance
_geom_bond_site_symmetry_2
_ccdc_geom_bond_type
Fe0 O1 1.896 . S
Fe0 O4 1.703 1_554 S
Fe0 O9 2.088 1_655 S
Fe0 O14 1.926 1_654 S
Fe0 O20 2.088 . S
Fe0 O29 1.926 1_554 S
O1 Fe0 1.896 . S
O1 Fe3 1.716 1_665 S
Fe2 O4 1.886 1_445 S
Fe2 O5 1.715 . S
Fe2 O12 1.935 . S
Fe2 O13 2.077 1_545 S
Fe2 O19 1.935 1_455 S
Fe2 O28 2.077 1_445 S
Fe3 O1 1.716 1_445 S
Fe3 O6 1.886 . S
Fe3 O10 1.935 1_545 S
Fe3 O15 2.077 . S
Fe3 O21 1.935 1_445 S
Fe3 O25 2.077 1_455 S
O4 Fe0 1.703 1_556 S
O4 Fe2 1.886 1_665 S
O5 Fe2 1.715 . S
O5 Fe7 1.893 . S
O6 Fe3 1.886 . S
O6 Fe7 1.708 1_554 S
Fe7 O5 1.893 . S
Fe7 O6 1.708 1_556 S
Fe7 O11 2.083 . S
Fe7 O16 1.930 1_556 S
Fe7 O18 2.083 1_455 S
Fe7 O26 1.930 1_456 S
C8 O20 1.381 . S
C8 O21 1.421 . S
O9 Fe0 2.088 1_455 S
O9 C22 1.381 . S
O10 Fe3 1.935 1_565 S
O10 C22 1.421 . S
O11 Fe7 2.083 . S
O11 C27 1.381 . S
O12 Fe2 1.935 . S
O12 C27 1.421 . S
O13 Fe2 2.077 1_565 S
O13 C17 1.381 . S
O14 Fe0 1.926 1_456 S
O14 C17 1.421 . S
O15 Fe3 2.077 . S
O15 C23 1.381 . S
O16 Fe7 1.930 1_554 S
O16 C23 1.421 . S
C17 O13 1.381 . S
C17 O14 1.421 . S
O18 Fe7 2.083 1_655 S
O18 C30 1.381 . S
O19 Fe2 1.935 1_655 S
O19 C30 1.421 . S
O20 Fe0 2.088 . S
O20 C8 1.381 . S
O21 Fe3 1.935 1_665 S
O21 C8 1.421 . S
C22 O9 1.381 . S
C22 O10 1.421 . S
C23 O15 1.381 . S
C23 O16 1.421 . S
C24 O25 1.381 . S
C24 O26 1.421 . S
O25 Fe3 2.077 1_655 S
O25 C24 1.381 . S
O26 Fe7 1.930 1_654 S
O26 C24 1.421 . S
C27 O11 1.381 . S
C27 O12 1.421 . S
O28 Fe2 2.077 1_665 S
O28 C31 1.381 . S
O29 Fe0 1.926 1_556 S
O29 C31 1.421 . S
C30 O18 1.381 . S
C30 O19 1.421 . S
C31 O28 1.381 . S
C31 O29 1.421 . S
C32 O59 1.312 . S
C32 O60 1.208 . S
C33 O54 1.331 . S
C33 O57 1.244 . S
C34 O56 1.264 . S
C34 O58 1.273 . S
Mg35 O37 1.936 . S
Mg35 O44 2.081 . S
Mg35 O46 2.023 . S
Mg35 O50 2.031 . S
Mg35 O59 2.291 . S
Mg36 O37 1.963 . S
Mg36 O47 1.942 . S
Mg36 O48 1.955 . S
Mg36 O55 1.986 . S
O37 Mg35 1.936 . S
O37 Mg36 1.963 . S
O37 Mg38 1.915 . S
Mg38 O37 1.915 . S
Mg38 O39 1.915 . S
Mg38 O43 2.013 . S
Mg38 O49 2.114 . S
Mg38 O53 2.013 . S
Mg38 O59 2.114 . S
O39 Mg38 1.915 . S
O39 Mg40 1.936 . S
O39 Mg41 1.963 . S
Mg40 O39 1.936 . S
Mg40 O49 2.291 . S
Mg40 O54 2.081 . S
Mg40 O56 2.023 . S
Mg40 O60 2.031 . S
Mg41 O39 1.963 . S
Mg41 O45 1.986 . S
Mg41 O57 1.942 . S
Mg41 O58 1.955 . S
C42 O53 1.191 . S
C42 O55 1.307 . S
O43 Mg38 2.013 . S
O43 C62 1.191 . S
O44 Mg35 2.081 . S
O44 C52 1.331 . S
O45 Mg41 1.986 . S
O45 C62 1.307 . S
O46 Mg35 2.023 . S
O46 C61 1.264 . S
O47 Mg36 1.942 . S
O47 C52 1.244 . S
O48 Mg36 1.955 . S
O48 C61 1.273 . S
O49 Mg38 2.114 . S
O49 Mg40 2.291 . S
O49 C51 1.312 . S
O50 Mg35 2.031 . S
O50 C51 1.208 . S
C51 O49 1.312 . S
C51 O50 1.208 . S
C52 O44 1.331 . S
C52 O47 1.244 . S
O53 Mg38 2.013 . S
O53 C42 1.191 . S
O54 C33 1.331 . S
O54 Mg40 2.081 . S
O55 Mg36 1.986 . S
O55 C42 1.307 . S
O56 C34 1.264 . S
O56 Mg40 2.023 . S
O57 C33 1.244 . S
O57 Mg41 1.942 . S
O58 C34 1.273 . S
O58 Mg41 1.955 . S
O59 C32 1.312 . S
O59 Mg35 2.291 . S
O59 Mg38 2.114 . S
O60 C32 1.208 . S
O60 Mg40 2.031 . S
C61 O46 1.264 . S
C61 O48 1.273 . S
C62 O43 1.191 . S
C62 O45 1.307 . S
H63 C71 0.929 . S
H64 C73 0.930 . S
H65 C75 0.930 . S
H66 C78 0.929 . S
H67 C81 0.930 . S
H68 C83 0.960 . S
H69 C83 0.960 . S
H70 C83 0.960 . S
C71 H63 0.929 . S
C71 C72 1.377 . S
C71 C73 1.384 . S
C72 C71 1.377 . S
C72 C78 1.390 . S
C73 H64 0.930 . S
C73 C71 1.384 . S
C73 C74 1.372 . S
C74 C73 1.372 . S
C74 C75 1.400 . S
C74 C79 1.490 . S
C75 H65 0.930 . S
C75 C74 1.400 . S
C75 C78 1.386 . S
H76 C92 0.930 . S
H77 C93 0.931 . S
C78 H66 0.929 . S
C78 C72 1.390 . S
C78 C75 1.386 . S
C79 C74 1.490 . S
C79 C81 1.395 . S
C79 C82 1.403 . S
H80 C86 0.930 . S
C81 H67 0.930 . S
C81 C79 1.395 . S
C81 C84 1.403 . S
C82 C79 1.403 . S
C82 C83 1.524 . S
C82 C86 1.400 . S
C83 H68 0.960 . S
C83 H69 0.960 . S
C83 H70 0.960 . S
C83 C82 1.524 . S
C84 C81 1.403 . S
C84 C85 1.392 . S
C84 C88 1.495 . S
C85 C84 1.392 . S
C85 C86 1.385 . S
C85 C87 1.478 . S
C86 H80 0.930 . S
C86 C82 1.400 . S
C86 C85 1.385 . S
C87 C85 1.478 . S
C87 C89 1.381 . S
C87 C93 1.383 . S
C88 C84 1.495 . S
C88 H94 0.959 . S
C88 H95 0.961 . S
C88 H96 0.960 . S
C89 C87 1.381 . S
C89 C90 1.394 . S
C89 H97 0.930 . S
C90 C89 1.394 . S
C90 C91 1.383 . S
C90 H98 0.929 . S
C91 C90 1.383 . S
C91 C92 1.377 . S
C92 H76 0.930 . S
C92 C91 1.377 . S
C92 C93 1.379 . S
C93 H77 0.931 . S
C93 C87 1.383 . S
C93 C92 1.379 . S
H94 C88 0.959 . S
H95 C88 0.961 . S
H96 C88 0.960 . S
H97 C89 0.930 . S
H98 C90 0.929 . S
H99 C107 0.929 . S
H100 C109 0.930 . S
H101 C111 0.930 . S
H102 C114 0.929 . S
H103 C117 0.930 . S
H104 C119 0.960 . S
H105 C119 0.960 . S
H106 C119 0.960 . S
C107 H99 0.929 . S
C107 C108 1.377 . S
C107 C109 1.384 . S
C108 C107 1.377 . S
C108 C114 1.390 . S
C109 H100 0.930 . S
C109 C107 1.384 . S
C109 C110 1.372 . S
C110 C109 1.372 . S
C110 C111 1.400 . S
C110 C115 1.490 . S
C111 H101 0.930 . S
C111 C110 1.400 . S
C111 C114 1.386 . S
H112 C128 0.930 . S
H113 C129 0.931 . S
C114 H102 0.929 . S
C114 C108 1.390 . S
C114 C111 1.386 . S
C115 C110 1.490 . S
C115 C117 1.395 . S
C115 C118 1.403 . S
H116 C122 0.930 . S
C117 H103 0.930 . S
C117 C115 1.395 . S
C117 C120 1.403 . S
C118 C115 1.403 . S
C118 C119 1.524 . S
C118 C122 1.400 . S
C119 H104 0.960 . S
C119 H105 0.960 . S
C119 H106 0.960 . S
C119 C118 1.524 . S
C120 C117 1.403 . S
C120 C121 1.392 . S
C120 C124 1.495 . S
C121 C120 1.392 . S
C121 C122 1.385 . S
C121 C123 1.478 . S
C122 H116 0.930 . S
C122 C118 1.400 . S
C122 C121 1.385 . S
C123 C121 1.478 . S
C123 C125 1.381 . S
C123 C129 1.383 . S
C124 C120 1.495 . S
C124 H130 0.959 . S
C124 H131 0.961 . S
C124 H132 0.960 . S
C125 C123 1.381 . S
C125 C126 1.394 . S
C125 H133 0.930 . S
C126 C125 1.394 . S
C126 C127 1.383 . S
C126 H134 0.929 . S
C127 C126 1.383 . S
C127 C128 1.377 . S
C128 H112 0.930 . S
C128 C127 1.377 . S
C128 C129 1.379 . S
C129 H113 0.931 . S
C129 C123 1.383 . S
C129 C128 1.379 . S
H130 C124 0.959 . S
H131 C124 0.961 . S
H132 C124 0.960 . S
H133 C125 0.930 . S
H134 C126 0.929 . S
H135 C143 0.929 . S
H136 C145 0.930 . S
H137 C147 0.930 . S
H138 C150 0.929 . S
H139 C153 0.930 . S
H140 C155 0.960 . S
H141 C155 0.960 . S
H142 C155 0.960 . S
C143 H135 0.929 . S
C143 C144 1.377 . S
C143 C145 1.384 . S
C144 C143 1.377 . S
C144 C150 1.390 . S
C145 H136 0.930 . S
C145 C143 1.384 . S
C145 C146 1.372 . S
C146 C145 1.372 . S
C146 C147 1.400 . S
C146 C151 1.490 . S
C147 H137 0.930 . S
C147 C146 1.400 . S
C147 C150 1.386 . S
H148 C164 0.930 . S
H149 C165 0.931 . S
C150 H138 0.929 . S
C150 C144 1.390 . S
C150 C147 1.386 . S
C151 C146 1.490 . S
C151 C153 1.395 . S
C151 C154 1.403 . S
H152 C158 0.930 . S
C153 H139 0.930 . S
C153 C151 1.395 . S
C153 C156 1.403 . S
C154 C151 1.403 . S
C154 C155 1.524 . S
C154 C158 1.400 . S
C155 H140 0.960 . S
C155 H141 0.960 . S
C155 H142 0.960 . S
C155 C154 1.524 . S
C156 C153 1.403 . S
C156 C157 1.392 . S
C156 C160 1.495 . S
C157 C156 1.392 . S
C157 C158 1.385 . S
C157 C159 1.478 . S
C158 H152 0.930 . S
C158 C154 1.400 . S
C158 C157 1.385 . S
C159 C157 1.478 . S
C159 C161 1.381 . S
C159 C165 1.383 . S
C160 C156 1.495 . S
C160 H166 0.959 . S
C160 H167 0.961 . S
C160 H168 0.960 . S
C161 C159 1.381 . S
C161 C162 1.394 . S
C161 H169 0.930 . S
C162 C161 1.394 . S
C162 C163 1.383 . S
C162 H170 0.929 . S
C163 C162 1.383 . S
C163 C164 1.377 . S
C164 H148 0.930 . S
C164 C163 1.377 . S
C164 C165 1.379 . S
C165 H149 0.931 . S
C165 C159 1.383 . S
C165 C164 1.379 . S
H166 C160 0.959 . S
H167 C160 0.961 . S
H168 C160 0.960 . S
H169 C161 0.930 . S
H170 C162 0.929 . S
H171 C179 0.929 . S
H172 C181 0.930 . S
H173 C183 0.930 . S
H174 C186 0.929 . S
H175 C189 0.930 . S
H176 C191 0.960 . S
H177 C191 0.960 . S
H178 C191 0.960 . S
C179 H171 0.929 . S
C179 C180 1.377 . S
C179 C181 1.384 . S
C180 C179 1.377 . S
C180 C186 1.390 . S
C181 H172 0.930 . S
C181 C179 1.384 . S
C181 C182 1.372 . S
C182 C181 1.372 . S
C182 C183 1.400 . S
C182 C187 1.490 . S
C183 H173 0.930 . S
C183 C182 1.400 . S
C183 C186 1.386 . S
H184 C200 0.930 . S
H185 C201 0.931 . S
C186 H174 0.929 . S
C186 C180 1.390 . S
C186 C183 1.386 . S
C187 C182 1.490 . S
C187 C189 1.395 . S
C187 C190 1.403 . S
H188 C194 0.930 . S
C189 H175 0.930 . S
C189 C187 1.395 . S
C189 C192 1.403 . S
C190 C187 1.403 . S
C190 C191 1.524 . S
C190 C194 1.400 . S
C191 H176 0.960 . S
C191 H177 0.960 . S
C191 H178 0.960 . S
C191 C190 1.524 . S
C192 C189 1.403 . S
C192 C193 1.392 . S
C192 C196 1.495 . S
C193 C192 1.392 . S
C193 C194 1.385 . S
C193 C195 1.478 . S
C194 H188 0.930 . S
C194 C190 1.400 . S
C194 C193 1.385 . S
C195 C193 1.478 . S
C195 C197 1.381 . S
C195 C201 1.383 . S
C196 C192 1.495 . S
C196 H202 0.959 . S
C196 H203 0.961 . S
C196 H204 0.960 . S
C197 C195 1.381 . S
C197 C198 1.394 . S
C197 H205 0.930 . S
C198 C197 1.394 . S
C198 C199 1.383 . S
C198 H206 0.929 . S
C199 C198 1.383 . S
C199 C200 1.377 . S
C200 H184 0.930 . S
C200 C199 1.377 . S
C200 C201 1.379 . S
C201 H185 0.931 . S
C201 C195 1.383 . S
C201 C200 1.379 . S
H202 C196 0.959 . S
H203 C196 0.961 . S
H204 C196 0.960 . S
H205 C197 0.930 . S
H206 C198 0.929 . S
H207 C215 0.929 . S
H208 C217 0.930 . S
H209 C219 0.930 . S
H210 C222 0.929 . S
H211 C225 0.930 . S
H212 C227 0.960 . S
H213 C227 0.960 . S
H214 C227 0.960 . S
C215 H207 0.929 . S
C215 C216 1.377 . S
C215 C217 1.384 . S
C216 C215 1.377 . S
C216 C222 1.390 . S
C217 H208 0.930 . S
C217 C215 1.384 . S
C217 C218 1.372 . S
C218 C217 1.372 . S
C218 C219 1.400 . S
C218 C223 1.490 . S
C219 H209 0.930 . S
C219 C218 1.400 . S
C219 C222 1.386 . S
H220 C236 0.930 . S
H221 C237 0.931 . S
C222 H210 0.929 . S
C222 C216 1.390 . S
C222 C219 1.386 . S
C223 C218 1.490 . S
C223 C225 1.395 . S
C223 C226 1.403 . S
H224 C230 0.930 . S
C225 H211 0.930 . S
C225 C223 1.395 . S
C225 C228 1.403 . S
C226 C223 1.403 . S
C226 C227 1.524 . S
C226 C230 1.400 . S
C227 H212 0.960 . S
C227 H213 0.960 . S
C227 H214 0.960 . S
C227 C226 1.524 . S
C228 C225 1.403 . S
C228 C229 1.392 . S
C228 C232 1.495 . S
C229 C228 1.392 . S
C229 C230 1.385 . S
C229 C231 1.478 . S
C230 H224 0.930 . S
C230 C226 1.400 . S
C230 C229 1.385 . S
C231 C229 1.478 . S
C231 C233 1.381 . S
C231 C237 1.383 . S
C232 C228 1.495 . S
C232 H238 0.959 . S
C232 H239 0.961 . S
C232 H240 0.960 . S
C233 C231 1.381 . S
C233 C234 1.394 . S
C233 H241 0.930 . S
C234 C233 1.394 . S
C234 C235 1.383 . S
C234 H242 0.929 . S
C235 C234 1.383 . S
C235 C236 1.377 . S
C236 H220 0.930 . S
C236 C235 1.377 . S
C236 C237 1.379 . S
C237 H221 0.931 . S
C237 C231 1.383 . S
C237 C236 1.379 . S
H238 C232 0.959 . S
H239 C232 0.961 . S
H240 C232 0.960 . S
H241 C233 0.930 . S
H242 C234 0.929 . S
H243 C251 0.929 . S
H244 C253 0.930 . S
H245 C255 0.930 . S
H246 C258 0.929 . S
H247 C261 0.930 . S
H248 C263 0.960 . S
H249 C263 0.960 . S
H250 C263 0.960 . S
C251 H243 0.929 . S
C251 C252 1.377 . S
C251 C253 1.384 . S
C252 C251 1.377 . S
C252 C258 1.390 . S
C253 H244 0.930 . S
C253 C251 1.384 . S
C253 C254 1.372 . S
C254 C253 1.372 . S
C254 C255 1.400 . S
C254 C259 1.490 . S
C255 H245 0.930 . S
C255 C254 1.400 . S
C255 C258 1.386 . S
H256 C272 0.930 . S
H257 C273 0.931 . S
C258 H246 0.929 . S
C258 C252 1.390 . S
C258 C255 1.386 . S
C259 C254 1.490 . S
C259 C261 1.395 . S
C259 C262 1.403 . S
H260 C266 0.930 . S
C261 H247 0.930 . S
C261 C259 1.395 . S
C261 C264 1.403 . S
C262 C259 1.403 . S
C262 C263 1.524 . S
C262 C266 1.400 . S
C263 H248 0.960 . S
C263 H249 0.960 . S
C263 H250 0.960 . S
C263 C262 1.524 . S
C264 C261 1.403 . S
C264 C265 1.392 . S
C264 C268 1.495 . S
C265 C264 1.392 . S
C265 C266 1.385 . S
C265 C267 1.478 . S
C266 H260 0.930 . S
C266 C262 1.400 . S
C266 C265 1.385 . S
C267 C265 1.478 . S
C267 C269 1.381 . S
C267 C273 1.383 . S
C268 C264 1.495 . S
C268 H274 0.959 . S
C268 H275 0.961 . S
C268 H276 0.960 . S
C269 C267 1.381 . S
C269 C270 1.394 . S
C269 H277 0.930 . S
C270 C269 1.394 . S
C270 C271 1.383 . S
C270 H278 0.929 . S
C271 C270 1.383 . S
C271 C272 1.377 . S
C272 H256 0.930 . S
C272 C271 1.377 . S
C272 C273 1.379 . S
C273 H257 0.931 . S
C273 C267 1.383 . S
C273 C272 1.379 . S
H274 C268 0.959 . S
H275 C268 0.961 . S
H276 C268 0.960 . S
H277 C269 0.930 . S
H278 C270 0.929 . S
H279 C287 0.929 . S
H280 C289 0.930 . S
H281 C291 0.930 . S
H282 C294 0.929 . S
H283 C297 0.930 . S
H284 C299 0.960 . S
H285 C299 0.960 . S
H286 C299 0.960 . S
C287 H279 0.929 . S
C287 C288 1.377 . S
C287 C289 1.384 . S
C288 C287 1.377 . S
C288 C294 1.390 . S
C289 H280 0.930 . S
C289 C287 1.384 . S
C289 C290 1.372 . S
C290 C289 1.372 . S
C290 C291 1.400 . S
C290 C295 1.490 . S
C291 H281 0.930 . S
C291 C290 1.400 . S
C291 C294 1.386 . S
H292 C308 0.930 . S
H293 C309 0.931 . S
C294 H282 0.929 . S
C294 C288 1.390 . S
C294 C291 1.386 . S
C295 C290 1.490 . S
C295 C297 1.395 . S
C295 C298 1.403 . S
H296 C302 0.930 . S
C297 H283 0.930 . S
C297 C295 1.395 . S
C297 C300 1.403 . S
C298 C295 1.403 . S
C298 C299 1.524 . S
C298 C302 1.400 . S
C299 H284 0.960 . S
C299 H285 0.960 . S
C299 H286 0.960 . S
C299 C298 1.524 . S
C300 C297 1.403 . S
C300 C301 1.392 . S
C300 C304 1.495 . S
C301 C300 1.392 . S
C301 C302 1.385 . S
C301 C303 1.478 . S
C302 H296 0.930 . S
C302 C298 1.400 . S
C302 C301 1.385 . S
C303 C301 1.478 . S
C303 C305 1.381 . S
C303 C309 1.383 . S
C304 C300 1.495 . S
C304 H310 0.959 . S
C304 H311 0.961 . S
C304 H312 0.960 . S
C305 C303 1.381 . S
C305 C306 1.394 . S
C305 H313 0.930 . S
C306 C305 1.394 . S
C306 C307 1.383 . S
C306 H314 0.929 . S
C307 C306 1.383 . S
C307 C308 1.377 . S
C308 H292 0.930 . S
C308 C307 1.377 . S
C308 C309 1.379 . S
C309 H293 0.931 . S
C309 C303 1.383 . S
C309 C308 1.379 . S
H310 C304 0.959 . S
H311 C304 0.961 . S
H312 C304 0.960 . S
H313 C305 0.930 . S
H314 C306 0.929 . S
H315 C323 0.929 . S
H316 C325 0.930 . S
H317 C327 0.930 . S
H318 C330 0.929 . S
H319 C333 0.930 . S
H320 C335 0.960 . S
H321 C335 0.960 . S
H322 C335 0.960 . S
C323 H315 0.929 . S
C323 C324 1.377 . S
C323 C325 1.384 . S
C324 C323 1.377 . S
C324 C330 1.390 . S
C325 H316 0.930 . S
C325 C323 1.384 . S
C325 C326 1.372 . S
C326 C325 1.372 . S
C326 C327 1.400 . S
C326 C331 1.490 . S
C327 H317 0.930 . S
C327 C326 1.400 . S
C327 C330 1.386 . S
H328 C344 0.930 . S
H329 C345 0.931 . S
C330 H318 0.929 . S
C330 C324 1.390 . S
C330 C327 1.386 . S
C331 C326 1.490 . S
C331 C333 1.395 . S
C331 C334 1.403 . S
H332 C338 0.930 . S
C333 H319 0.930 . S
C333 C331 1.395 . S
C333 C336 1.403 . S
C334 C331 1.403 . S
C334 C335 1.524 . S
C334 C338 1.400 . S
C335 H320 0.960 . S
C335 H321 0.960 . S
C335 H322 0.960 . S
C335 C334 1.524 . S
C336 C333 1.403 . S
C336 C337 1.392 . S
C336 C340 1.495 . S
C337 C336 1.392 . S
C337 C338 1.385 . S
C337 C339 1.478 . S
C338 H332 0.930 . S
C338 C334 1.400 . S
C338 C337 1.385 . S
C339 C337 1.478 . S
C339 C341 1.381 . S
C339 C345 1.383 . S
C340 C336 1.495 . S
C340 H346 0.959 . S
C340 H347 0.961 . S
C340 H348 0.960 . S
C341 C339 1.381 . S
C341 C342 1.394 . S
C341 H349 0.930 . S
C342 C341 1.394 . S
C342 C343 1.383 . S
C342 H350 0.929 . S
C343 C342 1.383 . S
C343 C344 1.377 . S
C344 H328 0.930 . S
C344 C343 1.377 . S
C344 C345 1.379 . S
C345 H329 0.931 . S
C345 C339 1.383 . S
C345 C344 1.379 . S
H346 C340 0.959 . S
H347 C340 0.961 . S
H348 C340 0.960 . S
H349 C341 0.930 . S
H350 C342 0.929 . S
C72 C23 1.259 . S
C91 C42 1.266 . S
C108 C24 1.629 . S
C127 C34 1.647 . S
C144 C8 1.306 . S
C163 C51 1.277 . S
C180 C22 1.561 . S
C199 C52 1.580 . S
C216 C17 1.626 . S
C235 C61 1.637 . S
C271 C62 1.272 . S
C252 C27 1.258 . S
C288 C30 1.551 . S
C307 C33 1.579 . S
C343 C32 1.330 . S
C324 C31 1.314 . S
