# Generated by pormake.
# Topology zzz, (3,6)-cn, num edge types: 1
# Building blocks:
#     Node 0, Type 0, BuildingBlock: WUSLED_clean_sbu_0, # of connection points: 3
#     Node 1, Type 0, BuildingBlock: WUSLED_clean_sbu_0, # of connection points: 3
#     Node 2, Type 0, BuildingBlock: WUSLED_clean_sbu_0, # of connection points: 3
#     Node 3, Type 0, BuildingBlock: WUSLED_clean_sbu_0, # of connection points: 3
#     Node 4, Type 0, BuildingBlock: WUSLED_clean_sbu_0, # of connection points: 3
#     Node 5, Type 0, BuildingBlock: WUSLED_clean_sbu_0, # of connection points: 3
#     Node 6, Type 0, BuildingBlock: WUSLED_clean_sbu_0, # of connection points: 3
#     Node 7, Type 0, BuildingBlock: WUSLED_clean_sbu_0, # of connection points: 3
#     Node 8, Type 1, BuildingBlock: BETGAK_clean_sbu_0, # of connection points: 6
#     Node 9, Type 1, BuildingBlock: BETGAK_clean_sbu_0, # of connection points: 6
#     Node 10, Type 1, BuildingBlock: BETGAK_clean_sbu_0, # of connection points: 6
#     Node 11, Type 1, BuildingBlock: BETGAK_clean_sbu_0, # of connection points: 6
#     Edge 12, Type (0, 1), BuildingBlock: CIFDUS_clean_linker_0, # of connection points: 2
#     Edge 13, Type (0, 1), BuildingBlock: CIFDUS_clean_linker_0, # of connection points: 2
#     Edge 14, Type (0, 1), BuildingBlock: CIFDUS_clean_linker_0, # of connection points: 2
#     Edge 15, Type (0, 1), BuildingBlock: CIFDUS_clean_linker_0, # of connection points: 2
#     Edge 16, Type (0, 1), BuildingBlock: CIFDUS_clean_linker_0, # of connection points: 2
#     Edge 17, Type (0, 1), BuildingBlock: CIFDUS_clean_linker_0, # of connection points: 2
#     Edge 18, Type (0, 1), BuildingBlock: CIFDUS_clean_linker_0, # of connection points: 2
#     Edge 19, Type (0, 1), BuildingBlock: CIFDUS_clean_linker_0, # of connection points: 2
#     Edge 20, Type (0, 1), BuildingBlock: CIFDUS_clean_linker_0, # of connection points: 2
#     Edge 21, Type (0, 1), BuildingBlock: CIFDUS_clean_linker_0, # of connection points: 2
#     Edge 22, Type (0, 1), BuildingBlock: CIFDUS_clean_linker_0, # of connection points: 2
#     Edge 23, Type (0, 1), BuildingBlock: CIFDUS_clean_linker_0, # of connection points: 2
#     Edge 24, Type (0, 1), BuildingBlock: CIFDUS_clean_linker_0, # of connection points: 2
#     Edge 25, Type (0, 1), BuildingBlock: CIFDUS_clean_linker_0, # of connection points: 2
#     Edge 26, Type (0, 1), BuildingBlock: CIFDUS_clean_linker_0, # of connection points: 2
#     Edge 27, Type (0, 1), BuildingBlock: CIFDUS_clean_linker_0, # of connection points: 2
#     Edge 28, Type (0, 1), BuildingBlock: CIFDUS_clean_linker_0, # of connection points: 2
#     Edge 29, Type (0, 1), BuildingBlock: CIFDUS_clean_linker_0, # of connection points: 2
#     Edge 30, Type (0, 1), BuildingBlock: CIFDUS_clean_linker_0, # of connection points: 2
#     Edge 31, Type (0, 1), BuildingBlock: CIFDUS_clean_linker_0, # of connection points: 2
#     Edge 32, Type (0, 1), BuildingBlock: CIFDUS_clean_linker_0, # of connection points: 2
#     Edge 33, Type (0, 1), BuildingBlock: CIFDUS_clean_linker_0, # of connection points: 2
#     Edge 34, Type (0, 1), BuildingBlock: CIFDUS_clean_linker_0, # of connection points: 2
#     Edge 35, Type (0, 1), BuildingBlock: CIFDUS_clean_linker_0, # of connection points: 2
# Relax obj value: 0.438
# Max RMSD: 0.262
# Mean RMSD: 0.248
data_MOF--net-zzz--node1-WUSLED_clean_sbu_0--node2-BETGAK_clean_sbu_0--edge1-CIFDUS_clean_linker_0
_symmetry_space_group_name_H-M    P1
_symmetry_Int_Tables_number       1
_symmetry_cell_setting            triclinic
loop_
_symmetry_equiv_pos_as_xyz
'x, y, z'
_cell_length_a     57.371489
_cell_length_b     57.165726
_cell_length_c     17.663041
_cell_angle_alpha  89.934649
_cell_angle_beta   89.862579
_cell_angle_gamma 90.181989
loop_
_atom_site_label
_atom_site_type_symbol
_atom_site_fract_x
_atom_site_fract_y
_atom_site_fract_z
_atom_type_partial_charge
C0 C 0.79304 0.5354 0.49239 0.0
C1 C 0.80659 0.51584 0.47246 0.0
C2 C 0.83894 0.52997 0.55006 0.0
C3 C 0.82942 0.51333 0.50011 0.0
C4 C 0.82518 0.54927 0.57084 0.0
C5 C 0.80262 0.55202 0.54192 0.0
U6 U 0.74719 0.53298 0.33277 0.0
O7 O 0.70964 0.52429 0.33471 0.0
O8 O 0.72111 0.55945 0.3018 0.0
C9 C 0.70356 0.54463 0.30593 0.0
C10 C 0.76912 0.53911 0.46229 0.0
C11 C 0.68709 0.54444 0.24041 0.0
C12 C 0.66866 0.56483 0.13473 0.0
C13 C 0.6846 0.56445 0.1947 0.0
C14 C 0.65673 0.52534 0.16514 0.0
C15 C 0.65454 0.54526 0.11873 0.0
C16 C 0.67277 0.52494 0.22521 0.0
C17 C 0.79688 0.50684 0.22525 0.0
C18 C 0.82725 0.48182 0.17585 0.0
C19 C 0.83516 0.50685 0.28352 0.0
C20 C 0.81242 0.51534 0.27989 0.0
C21 C 0.84295 0.49007 0.23117 0.0
C22 C 0.80436 0.48999 0.17343 0.0
C23 C 0.77258 0.51461 0.22519 0.0
O24 O 0.76707 0.55557 0.41077 0.0
O25 O 0.75667 0.52036 0.44669 0.0
O26 O 0.75864 0.50214 0.26855 0.0
O27 O 0.76961 0.53729 0.2327 0.0
H28 H 0.7996 0.50257 0.43508 0.0
H29 H 0.83949 0.49818 0.4835 0.0
H30 H 0.83201 0.56244 0.60891 0.0
H31 H 0.79258 0.56722 0.55839 0.0
H32 H 0.6672 0.58066 0.10137 0.0
H33 H 0.69489 0.58001 0.20549 0.0
H34 H 0.6463 0.50988 0.15439 0.0
H35 H 0.67389 0.50933 0.25979 0.0
H36 H 0.83272 0.46941 0.13316 0.0
H37 H 0.84658 0.51348 0.32728 0.0
H38 H 0.8069 0.52853 0.31996 0.0
H39 H 0.79254 0.48325 0.13089 0.0
C40 C 1.00989 0.79715 0.46904 0.0
C41 C 1.01448 0.8165 0.4219 0.0
C42 C 1.01531 0.84291 0.53141 0.0
C43 C 1.01724 0.83904 0.45268 0.0
C44 C 1.01107 0.82336 0.57826 0.0
C45 C 1.00842 0.80088 0.5475 0.0
U46 U 0.02097 0.7435 0.33681 0.0
O47 O 1.01862 0.70539 0.35891 0.0
O48 O 0.9942 0.72214 0.28077 0.0
C49 C 1.0023 0.70232 0.3076 0.0
C50 C 1.00495 0.77332 0.43833 0.0
C51 C 1.0059 0.68317 0.25146 0.0
C52 C 1.00959 0.64143 0.22387 0.0
C53 C 1.00787 0.65987 0.27616 0.0
C54 C 1.00759 0.6692 0.12082 0.0
C55 C 1.00914 0.64581 0.14536 0.0
C56 C 1.00606 0.68762 0.17303 0.0
C57 C 0.06943 0.77957 0.25076 0.0
C58 C 0.08934 0.80756 0.17029 0.0
C59 C 0.07225 0.82017 0.2891 0.0
C60 C 0.06538 0.79719 0.3043 0.0
C61 C 0.08331 0.82571 0.22024 0.0
C62 C 0.08231 0.78462 0.18534 0.0
C63 C 0.05674 0.7574 0.2558 0.0
O64 O 0.99714 0.77203 0.36851 0.0
O65 O 1.01997 0.75672 0.45451 0.0
O66 O 0.05897 0.7457 0.31949 0.0
O67 O 0.03507 0.75881 0.23249 0.0
H68 H 1.01566 0.8143 0.36112 0.0
H69 H 1.02087 0.85344 0.41453 0.0
H70 H 1.00909 0.82548 0.63883 0.0
H71 H 1.00466 0.78637 0.5852 0.0
H72 H 1.01064 0.62367 0.24501 0.0
H73 H 1.00768 0.65586 0.33613 0.0
H74 H 1.00761 0.67334 0.06096 0.0
H75 H 1.00471 0.70533 0.15173 0.0
H76 H 0.09765 0.81135 0.1165 0.0
H77 H 0.06755 0.83382 0.32876 0.0
H78 H 0.0555 0.79347 0.35523 0.0
H79 H 0.08544 0.77119 0.14333 0.0
C80 C 0.74676 0.03417 0.47428 0.0
C81 C 0.72706 0.03716 0.4279 0.0
C82 C 0.70091 0.03085 0.53595 0.0
C83 C 0.70445 0.03546 0.45828 0.0
C84 C 0.7207 0.02745 0.58173 0.0
C85 C 0.74326 0.02913 0.55132 0.0
U86 U 0.79784 1.02167 0.33556 0.0
O87 O 0.83566 1.01811 0.35484 0.0
O88 O 0.8224 0.04735 0.28716 0.0
C89 C 0.84086 0.03598 0.31076 0.0
C90 C 0.77096 0.03753 0.44523 0.0
C91 C 0.85941 0.03251 0.25324 0.0
C92 C 0.89166 0.04894 0.18033 0.0
C93 C 0.87429 0.05126 0.23561 0.0
C94 C 0.87975 1.00886 0.15915 0.0
C95 C 0.89472 0.02771 0.14115 0.0
C96 C 0.86225 1.01125 0.21445 0.0
C97 C 0.75406 0.98314 0.23998 0.0
C98 C 0.72164 0.97198 0.16019 0.0
C99 C 0.71447 0.98642 0.28715 0.0
C100 C 0.73845 0.98828 0.29888 0.0
C101 C 0.70586 0.9793 0.2164 0.0
C102 C 0.74563 0.97404 0.17182 0.0
C103 C 0.77813 0.99159 0.24406 0.0
O104 O 0.78542 1.01993 0.45404 0.0
O105 O 0.77334 0.048 0.37931 0.0
O106 O 0.79003 0.98518 0.30412 0.0
O107 O 0.7802 1.01397 0.22847 0.0
H108 H 0.72906 0.0411 0.36825 0.0
H109 H 0.68977 0.03839 0.42111 0.0
H110 H 0.71881 0.02347 0.64137 0.0
H111 H 0.75806 0.02678 0.58851 0.0
H112 H 0.9024 0.06403 0.16735 0.0
H113 H 0.87232 0.06789 0.26427 0.0
H114 H 0.88164 0.99216 0.13096 0.0
H115 H 0.85091 0.99652 0.22668 0.0
H116 H 0.7155 0.96666 0.10486 0.0
H117 H 0.70267 0.99204 0.33149 0.0
H118 H 0.74476 0.99533 0.35191 0.0
H119 H 0.75747 0.97019 0.12563 0.0
C120 C 0.54388 0.74595 0.4235 0.0
C121 C 0.52324 0.73946 0.46156 0.0
C122 C 0.53776 0.69955 0.47851 0.0
C123 C 0.52026 0.7165 0.489 0.0
C124 C 0.55834 0.70624 0.44068 0.0
C125 C 0.56136 0.72908 0.41382 0.0
U126 U 0.5296 0.80117 0.30335 0.0
O127 O 0.53498 0.83911 0.32228 0.0
O128 O 0.55532 0.82065 0.23606 0.0
C129 C 0.54946 0.841 0.26467 0.0
C130 C 0.54829 0.7701 0.39508 0.0
C131 C 0.54426 0.85922 0.20754 0.0
C132 C 0.5523 0.89765 0.15315 0.0
C133 C 0.55477 0.88139 0.21226 0.0
C134 C 0.52825 0.86998 0.08485 0.0
C135 C 0.53951 0.89187 0.08785 0.0
C136 C 0.5305 0.85389 0.14414 0.0
C137 C 0.47555 0.7685 0.24048 0.0
C138 C 0.44242 0.74708 0.19104 0.0
C139 C 0.47216 0.72684 0.26293 0.0
C140 C 0.48393 0.74794 0.27376 0.0
C141 C 0.45176 0.72601 0.21878 0.0
C142 C 0.45435 0.76818 0.20147 0.0
C143 C 0.49011 0.78955 0.23912 0.0
O144 O 0.55357 0.77181 0.32287 0.0
O145 O 0.53454 0.78702 0.41867 0.0
O146 O 0.4912 0.80132 0.30288 0.0
O147 O 0.51054 0.78665 0.20675 0.0
H148 H 0.50941 0.75204 0.47 0.0
H149 H 0.50412 0.71192 0.51735 0.0
H150 H 0.57235 0.69383 0.43251 0.0
H151 H 0.57753 0.73361 0.3855 0.0
H152 H 0.56124 0.91432 0.15702 0.0
H153 H 0.56552 0.88584 0.26051 0.0
H154 H 0.51803 0.86512 0.0358 0.0
H155 H 0.52214 0.83694 0.13928 0.0
H156 H 0.42656 0.74708 0.15792 0.0
H157 H 0.48005 0.711 0.28446 0.0
H158 H 0.50031 0.74797 0.30416 0.0
H159 H 0.44761 0.78401 0.17592 0.0
C160 C 0.24152 0.50995 0.98248 0.0
C161 C 0.22146 0.49913 1.01281 0.0
C162 C 0.19677 0.51718 0.91632 0.0
C163 C 0.19945 0.50273 0.98038 0.0
C164 C 0.2168 0.52825 0.88668 0.0
C165 C 0.23882 0.52463 0.91909 0.0
U166 U 0.29125 0.52069 0.12556 0.0
O167 O 0.31301 0.49472 0.18358 0.0
O168 O 0.32966 0.5217 0.11356 0.0
C169 C 0.3327 0.50457 0.16234 0.0
C170 C 0.2652 0.50496 1.01389 0.0
C171 C 0.34992 0.50861 0.22357 0.0
C172 C 0.38955 0.50439 0.27173 0.0
C173 C 0.37344 0.50277 0.21219 0.0
C174 C 0.35898 0.51828 0.35465 0.0
C175 C 0.38244 0.51171 0.34426 0.0
C176 C 0.34294 0.5168 0.29503 0.0
C177 C 0.24878 0.56458 0.1998 0.0
C178 C 0.21704 0.58545 0.25938 0.0
C179 C 0.21108 0.56664 0.1379 0.0
C180 C 0.23429 0.55935 0.1381 0.0
C181 C 0.20204 0.57926 0.19954 0.0
C182 C 0.24022 0.5781 0.25951 0.0
C183 C 0.27184 0.55384 0.20558 0.0
O184 O 0.28129 0.5212 1.00484 0.0
O185 O 0.26598 0.49511 0.08115 0.0
O186 O 0.27134 0.5317 0.22558 0.0
O187 O 0.28606 0.55812 0.14874 0.0
H188 H 0.22277 0.4875 0.06103 0.0
H189 H 0.18462 0.49358 1.00438 0.0
H190 H 0.2155 0.53976 0.83815 0.0
H191 H 0.25382 0.53316 0.89381 0.0
H192 H 0.40739 0.49905 0.26168 0.0
H193 H 0.37923 0.49636 0.15762 0.0
H194 H 0.35293 0.52436 0.40931 0.0
H195 H 0.32494 0.52156 0.30526 0.0
H196 H 0.21054 0.59478 0.30835 0.0
H197 H 0.20002 0.56172 0.09087 0.0
H198 H 0.2407 0.54886 0.09155 0.0
H199 H 0.25115 0.5821 0.30777 0.0
C200 C 1.01951 0.24989 0.96467 0.0
C201 C 0.04119 0.23859 0.95767 0.0
C202 C 0.02215 0.20246 0.91597 0.0
C203 C 0.04245 0.21507 0.93487 0.0
C204 C 1.00056 0.21394 0.92112 0.0
C205 C 0.99926 0.23727 0.94564 0.0
U206 U 0.02973 0.30186 0.10333 0.0
O207 O 1.00476 0.32927 0.13514 0.0
O208 O 0.03791 0.33913 0.08204 0.0
C209 C 1.01888 0.34646 0.11614 0.0
C210 C 1.01747 0.27488 0.9887 0.0
C211 C 0.02182 0.36514 0.17366 0.0
C212 C 1.02023 0.40651 0.20696 0.0
C213 C 1.01902 0.38864 0.15267 0.0
C214 C 0.02743 0.37768 0.30441 0.0
C215 C 0.0242 0.40132 0.28393 0.0
C216 C 0.02628 0.35983 0.24994 0.0
C217 C 0.05939 0.25656 0.22192 0.0
C218 C 0.06397 0.22323 0.30519 0.0
C219 C 0.06065 0.21736 0.16968 0.0
C220 C 0.05926 0.24149 0.1594 0.0
C221 C 0.06213 0.20796 0.24298 0.0
C222 C 0.0625 0.24741 0.29467 0.0
C223 C 0.05269 0.28106 0.21212 0.0
O224 O 1.0039 0.27902 0.0472 0.0
O225 O 0.0366 0.28765 0.98928 0.0
O226 O 0.06306 0.29222 0.15619 0.0
O227 O 0.03006 0.28445 0.21418 0.0
H228 H 0.05723 0.24786 0.96975 0.0
H229 H 0.05938 0.20683 0.93078 0.0
H230 H 0.9846 0.20474 0.90732 0.0
H231 H 0.98233 0.24554 0.94945 0.0
H232 H 1.01802 0.42442 0.18842 0.0
H233 H 1.01558 0.3932 0.0942 0.0
H234 H 0.03022 0.37284 0.36296 0.0
H235 H 0.02844 0.34181 0.26764 0.0
H236 H 0.06481 0.21647 0.36244 0.0
H237 H 0.05934 0.20602 0.12074 0.0
H238 H 0.05675 0.24839 0.10312 0.0
H239 H 0.06241 0.25882 0.34361 0.0
C240 C 0.30251 0.05135 1.0142 0.0
C241 C 0.3193 0.06905 0.02321 0.0
C242 C 0.34873 0.04567 0.95803 0.0
C243 C 0.34202 0.06626 0.99575 0.0
C244 C 0.33187 0.02791 0.94844 0.0
C245 C 0.30902 0.03068 0.97637 0.0
U246 U 0.24661 0.03709 0.13249 0.0
O247 O 0.20897 0.04326 0.11221 0.0
O248 O 0.22758 0.06306 0.19945 0.0
C249 C 0.20726 0.05765 0.17008 0.0
C250 C 0.27842 0.05569 0.04249 0.0
C251 C 0.18824 0.05323 0.22574 0.0
C252 C 0.14709 0.05589 0.26062 0.0
C253 C 0.16489 0.05743 0.20597 0.0
C254 C 0.17561 0.04547 0.35536 0.0
C255 C 0.15235 0.05046 0.33639 0.0
C256 C 0.19329 0.04668 0.30072 0.0
C257 C 0.2775 0.98201 0.19508 0.0
C258 C 0.29823 0.94873 0.24637 0.0
C259 C 0.31884 0.97774 0.17131 0.0
C260 C 0.29806 0.98985 0.16039 0.0
C261 C 0.31934 0.95755 0.21707 0.0
C262 C 0.27745 0.96098 0.23576 0.0
C263 C 0.25689 0.997 0.19614 0.0
O264 O 0.26142 0.04217 0.01792 0.0
O265 O 0.27657 0.06066 0.11485 0.0
O266 O 0.26019 1.01733 0.22915 0.0
O267 O 0.24546 0.99857 0.13196 0.0
H268 H 0.31476 0.08526 0.05127 0.0
H269 H 0.3543 0.0805 1.00323 0.0
H270 H 0.33643 1.01174 0.92025 0.0
H271 H 0.2965 1.01669 0.96838 0.0
H272 H 0.12935 0.05988 0.24429 0.0
H273 H 0.16051 0.06256 0.1487 0.0
H274 H 0.18019 0.04091 0.41298 0.0
H275 H 0.21105 0.04311 0.31783 0.0
H276 H 0.29798 0.93305 0.28086 0.0
H277 H 0.33474 0.98525 0.1486 0.0
H278 H 0.29832 1.0061 0.12878 0.0
H279 H 0.26161 0.95467 0.26247 0.0
C280 C 0.50543 0.29854 0.94596 0.0
C281 C 0.51118 0.31717 0.99447 0.0
C282 C 0.51408 0.34408 0.88681 0.0
C283 C 0.51552 0.33963 0.96525 0.0
C284 C 0.50889 0.3252 0.83844 0.0
C285 C 0.50461 0.30276 0.8677 0.0
U286 U 0.51089 0.24595 0.08396 0.0
O287 O 0.4817 0.22669 0.13591 0.0
O288 O 0.50727 0.20783 0.06684 0.0
C289 C 0.48963 0.20621 0.11448 0.0
C290 C 0.49867 0.2751 0.97547 0.0
C291 C 0.49106 0.18842 0.17579 0.0
C292 C 0.47202 0.16799 0.28035 0.0
C293 C 0.47106 0.18347 0.21901 0.0
C294 C 0.5129 0.16122 0.25513 0.0
C295 C 0.49299 0.15683 0.29975 0.0
C296 C 0.512 0.17695 0.19404 0.0
C297 C 0.55831 0.28116 0.17931 0.0
C298 C 0.57495 0.31021 0.26285 0.0
C299 C 0.56666 0.32016 0.13219 0.0
C300 C 0.55891 0.29731 0.1195 0.0
C301 C 0.57374 0.32712 0.205 0.0
C302 C 0.56725 0.28741 0.25001 0.0
C303 C 0.54475 0.25955 0.17294 0.0
O304 O 0.51359 0.25796 0.9651 0.0
O305 O 0.4888 0.27459 0.0427 0.0
O306 O 0.5226 0.26218 0.18958 0.0
O307 O 0.54829 0.24693 0.11182 0.0
H308 H 0.51196 0.31449 0.05513 0.0
H309 H 0.51986 0.35355 1.00432 0.0
H310 H 0.50735 0.32788 0.77797 0.0
H311 H 0.50006 0.28876 0.82911 0.0
H312 H 0.45629 0.1648 0.31288 0.0
H313 H 0.45467 0.19194 0.20607 0.0
H314 H 0.52936 0.15304 0.2689 0.0
H315 H 0.52777 0.18042 0.16209 0.0
H316 H 0.58 0.31497 0.31984 0.0
H317 H 0.5658 0.3327 0.08625 0.0
H318 H 0.55205 0.29268 0.06441 0.0
H319 H 0.56672 0.27515 0.29685 0.0
La320 La 0.02738 1.02013 0.76074 0.0
La321 La 0.99439 0.03081 0.6418 0.0
C322 C 0.0492 1.0061 0.87598 0.0
C323 C 0.05199 0.98506 0.92217 0.0
C324 C 0.07168 0.98306 0.96842 0.0
C325 C 0.07426 0.96372 1.01588 0.0
C326 C 0.05708 0.94618 0.01793 0.0
C327 C 0.03748 0.94812 0.97064 0.0
C328 C 0.03497 0.96742 0.92286 0.0
C329 C 0.04775 0.03649 0.63571 0.0
C330 C 1.01072 0.97949 0.65079 0.0
C331 C 0.97312 0.04661 0.5277 0.0
C332 C 0.98167 0.05957 0.46143 0.0
C333 C 0.96826 0.07759 0.43037 0.0
C334 C 0.97796 0.09256 0.37611 0.0
C335 C 1.00125 0.08972 0.35266 0.0
C336 C 1.01409 0.07071 0.38045 0.0
C337 C 1.00437 0.05582 0.43451 0.0
C338 C 0.97407 1.01515 0.76812 0.0
C339 C 1.01481 0.07244 0.74043 0.0
O340 O 0.05762 1.00528 0.80728 0.0
O341 O 0.0287 1.01599 0.87838 0.0
O342 O 0.05432 0.04109 0.70412 0.0
O343 O 0.0307 1.02256 0.63909 0.0
O344 O 1.01718 0.98458 0.72104 0.0
O345 O 1.00487 0.99644 0.60406 0.0
O346 O 0.97478 0.05775 0.59187 0.0
O347 O 0.98027 0.02507 0.53383 0.0
O348 O 0.96689 1.01111 0.70026 0.0
O349 O 0.99114 0.02892 0.76319 0.0
O350 O 1.00728 0.0659 0.67285 0.0
O351 O 0.02158 0.05665 0.7901 0.0
H352 H 0.08492 0.99662 0.9685 0.0
H353 H 0.08946 0.96271 0.052 0.0
H354 H 0.02416 0.93465 0.9703 0.0
H355 H 1.0197 0.96869 0.88712 0.0
H356 H 0.95075 0.08081 0.45084 0.0
H357 H 0.96775 0.10724 0.35635 0.0
H358 H 0.03199 0.068 0.36297 0.0
H359 H 1.01496 0.04201 0.45783 0.0
La360 La 0.52612 0.04278 0.75991 0.0
La361 La 0.51261 1.01005 0.63771 0.0
C362 C 0.5436 0.06081 0.87721 0.0
C363 C 0.56222 0.05372 0.929 0.0
C364 C 0.56201 0.06161 1.00407 0.0
C365 C 0.57835 0.05318 0.0559 0.0
C366 C 0.59509 0.03665 0.03328 0.0
C367 C 0.59531 0.029 0.95761 0.0
C368 C 0.57895 0.03736 0.90614 0.0
C369 C 0.51203 0.06364 0.63418 0.0
C370 C 0.56485 1.02227 0.64953 0.0
C371 C 0.49619 0.9901 0.52226 0.0
C372 C 0.47496 0.97739 0.50106 0.0
C373 C 0.47599 0.96035 0.44421 0.0
C374 C 0.45563 0.9493 0.41945 0.0
C375 C 0.43393 0.95523 0.45119 0.0
C376 C 0.43321 0.97163 0.51054 0.0
C377 C 0.45356 0.98254 0.53532 0.0
C378 C 0.52741 0.98927 0.76315 0.0
C379 C 0.47295 0.03006 0.74899 0.0
O380 O 0.5498 0.06662 0.80832 0.0
O381 O 0.5255 0.04696 0.87763 0.0
O382 O 0.50888 0.0719 0.7017 0.0
O383 O 0.52424 0.04546 0.63908 0.0
O384 O 0.55995 0.02848 0.72017 0.0
O385 O 0.54783 1.01804 0.60137 0.0
O386 O 0.50961 0.97972 0.57146 0.0
O387 O 0.49383 1.01247 0.53643 0.0
O388 O 0.53059 0.98135 0.69535 0.0
O389 O 0.51488 1.00726 0.75879 0.0
O390 O 0.47803 1.01833 0.68623 0.0
O391 O 0.48938 0.04022 0.78971 0.0
H392 H 0.54894 0.07395 0.02292 0.0
H393 H 0.57764 0.05929 0.11387 0.0
H394 H 0.60825 1.01667 0.93786 0.0
H395 H 0.57927 0.03081 0.8488 0.0
H396 H 0.49247 0.956 0.4177 0.0
H397 H 0.45679 0.93657 0.37425 0.0
H398 H 0.4168 0.97694 0.53546 0.0
H399 H 0.45249 0.99557 0.57946 0.0
La400 La 0.50228 0.53359 0.79038 0.0
La401 La 0.53551 0.52156 0.67153 0.0
C402 C 0.48097 0.54904 0.90496 0.0
C403 C 0.46841 0.57019 0.92758 0.0
C404 C 0.45238 0.56907 0.98741 0.0
C405 C 0.44176 0.58944 1.01402 0.0
C406 C 0.44715 0.61125 0.98129 0.0
C407 C 0.46246 0.61203 0.91887 0.0
C408 C 0.47291 0.59165 0.89214 0.0
C409 C 0.48225 0.52006 0.66233 0.0
C410 C 0.52189 0.57433 0.68239 0.0
C411 C 0.55782 0.50642 0.55864 0.0
C412 C 0.56394 0.48447 0.52049 0.0
C413 C 0.58715 0.48081 0.49837 0.0
C414 C 0.59325 0.46091 0.45715 0.0
C415 C 0.57612 0.44455 0.43673 0.0
C416 C 0.55296 0.44799 0.46027 0.0
C417 C 0.54691 0.46775 0.50212 0.0
C418 C 0.55501 0.53562 0.79991 0.0
C419 C 0.51564 0.4812 0.77817 0.0
O420 O 0.47113 0.53639 0.85244 0.0
O421 O 0.50344 0.55134 0.89405 0.0
O422 O 0.47459 0.51528 0.72947 0.0
O423 O 0.50008 0.53288 0.66865 0.0
O424 O 0.51118 0.56884 0.74672 0.0
O425 O 0.53106 0.55795 0.63909 0.0
O426 O 0.56721 0.51003 0.6249 0.0
O427 O 0.53597 0.51286 0.55644 0.0
O428 O 0.5623 0.54119 0.73287 0.0
O429 O 0.53762 0.52226 0.79311 0.0
O430 O 0.52386 0.48635 0.7098 0.0
O431 O 0.50965 0.49806 0.82517 0.0
H432 H 0.44855 0.55254 1.01486 0.0
H433 H 0.42982 0.5882 0.06147 0.0
H434 H 0.46732 0.62851 0.89294 0.0
H435 H 0.4851 0.59277 0.84554 0.0
H436 H 0.6005 0.49358 0.51189 0.0
H437 H 0.6112 0.45862 0.43956 0.0
H438 H 0.53952 0.43538 0.44624 0.0
H439 H 0.5289 0.4701 0.51901 0.0
La440 La 1.01365 0.50477 0.77154 0.0
La441 La 0.02434 0.53905 0.66681 0.0
C442 C 0.9982 0.4785 0.87548 0.0
C443 C 0.99192 0.48161 0.95527 0.0
C444 C 0.99111 0.46219 1.00359 0.0
C445 C 0.98081 0.4641 0.07511 0.0
C446 C 0.97075 0.48537 0.09827 0.0
C447 C 0.97403 0.50535 0.05258 0.0
C448 C 0.98463 0.50349 0.98178 0.0
C449 C 0.03255 0.48647 0.64527 0.0
C450 C 0.97473 0.52031 0.6589 0.0
C451 C 0.04092 0.56549 0.56473 0.0
C452 C 0.0502 0.56354 0.48755 0.0
C453 C 0.04947 0.58309 0.43975 0.0
C454 C 0.06208 0.58324 0.37201 0.0
C455 C 0.07584 0.5639 0.3517 0.0
C456 C 0.07471 0.54353 0.39657 0.0
C457 C 0.06192 0.54334 0.46391 0.0
C458 C 1.00495 0.55752 0.79157 0.0
C459 C 0.06267 0.52387 0.78223 0.0
O460 O 0.98508 0.48949 0.82686 0.0
O461 O 1.02021 0.48055 0.85882 0.0
O462 O 0.03647 0.47972 0.71345 0.0
O463 O 1.01782 0.50259 0.64888 0.0
O464 O 0.9788 0.51512 0.73049 0.0
O465 O 0.99256 0.52566 0.6151 0.0
O466 O 0.05325 0.55577 0.61799 0.0
O467 O 1.01876 0.56149 0.57378 0.0
O468 O 1.00134 0.56411 0.72306 0.0
O469 O 1.01982 0.54144 0.78935 0.0
O470 O 0.05908 0.52824 0.70969 0.0
O471 O 0.04447 0.51915 0.82488 0.0
H472 H 0.99716 0.44527 0.98439 0.0
H473 H 0.97919 0.44853 0.10975 0.0
H474 H 0.96653 0.52205 0.06792 0.0
H475 H 0.98558 0.5188 0.94561 0.0
H476 H 0.04022 0.59873 0.4568 0.0
H477 H 0.06222 0.59901 0.33793 0.0
H478 H 0.08517 0.52835 0.38308 0.0
H479 H 0.06242 0.52795 0.49977 0.0
H480 H 0.10909 0.02978 0.33696 0.0
H481 H 0.15466 0.07297 0.47162 0.0
H482 H 0.12583 0.07376 0.57351 0.0
H483 H 0.08823 0.06111 0.62683 0.0
H484 H 0.04375 1.01542 0.49725 0.0
H485 H 0.07113 1.01705 0.39088 0.0
C486 C 0.11259 0.03948 0.38843 0.0
C487 C 0.13409 0.05121 0.39672 0.0
C488 C 0.09601 0.03953 0.44771 0.0
C489 C 0.13841 0.06357 0.46408 0.0
C490 C 0.12188 0.0641 0.52233 0.0
C491 C 0.08445 0.05165 0.57507 0.0
C492 C 0.06371 0.03854 0.56953 0.0
C493 C 0.10071 0.05197 0.51517 0.0
C494 C 0.05925 0.02615 0.50238 0.0
C495 C 0.07506 0.02688 0.44174 0.0
H496 H 0.51335 0.11371 0.3138 0.0
H497 H 0.47517 0.16561 0.44004 0.0
H498 H 0.47695 0.14119 0.55333 0.0
H499 H 0.49006 0.10541 0.61801 0.0
H500 H 0.52775 0.05311 0.49223 0.0
H501 H 0.52541 0.07718 0.37783 0.0
C502 C 0.5055 0.11968 0.3662 0.0
C503 C 0.49414 0.1415 0.36821 0.0
C504 C 0.50646 0.10542 0.4314 0.0
C505 C 0.48382 0.14882 0.4365 0.0
C506 C 0.4849 0.13489 0.50152 0.0
C507 C 0.49765 0.09925 0.56544 0.0
C508 C 0.50916 0.07755 0.56379 0.0
C509 C 0.49622 0.11319 0.49978 0.0
C510 C 0.51882 0.06975 0.49512 0.0
C511 C 0.51754 0.08355 0.42966 0.0
H512 H 0.4283 0.52615 0.34922 0.0
H513 H 0.37383 0.49593 0.4874 0.0
H514 H 0.4 0.495 0.59583 0.0
H515 H 0.4381 0.50319 0.65287 0.0
H516 H 0.49263 0.53437 0.51775 0.0
H517 H 0.46696 0.53412 0.40686 0.0
C518 C 0.42221 0.51925 0.40295 0.0
C519 C 0.39895 0.5113 0.40989 0.0
C520 C 0.43744 0.51882 0.46576 0.0
C521 C 0.39141 0.50256 0.48037 0.0
C522 C 0.40645 0.50186 0.54249 0.0
C523 C 0.44445 0.50982 0.59906 0.0
C524 C 0.46731 0.51872 0.59366 0.0
C525 C 0.42945 0.51002 0.53603 0.0
C526 C 0.47517 0.52733 0.52347 0.0
C527 C 0.46044 0.52726 0.46008 0.0
H528 H 0.05177 0.40527 0.41043 0.0
H529 H 0.99653 0.44048 0.29055 0.0
H530 H 0.99556 0.47084 0.38737 0.0
H531 H 1.00889 0.48656 0.51046 0.0
H532 H 0.0628 0.4503 0.63271 0.0
H533 H 0.06568 0.42137 0.53131 0.0
C534 C 0.03939 0.41947 0.40548 0.0
C535 C 0.02424 0.42034 0.34267 0.0
C536 C 0.03865 0.43683 0.46222 0.0
C537 C 1.00867 0.4393 0.33724 0.0
C538 C 1.00797 0.4567 0.39308 0.0
C539 C 0.02144 0.47247 0.51444 0.0
C540 C 0.0356 0.47059 0.5793 0.0
C541 C 0.02272 0.45556 0.45626 0.0
C542 C 0.05168 0.45214 0.5836 0.0
C543 C 0.05329 0.43553 0.52565 0.0
H544 H 0.89251 1.0039 1.00641 0.0
H545 H 0.93881 0.04676 0.14008 0.0
H546 H 0.96779 0.04593 0.03884 0.0
H547 H 0.97952 0.03447 0.90912 0.0
H548 H 0.93341 0.99097 0.77739 0.0
H549 H 0.9053 0.99016 0.88136 0.0
C550 C 0.90907 1.01275 1.01422 0.0
C551 C 0.91316 0.0256 0.08105 0.0
C552 C 0.92585 1.01209 0.95576 0.0
C553 C 0.93477 0.03715 0.08896 0.0
C554 C 0.95151 0.03656 0.03111 0.0
C555 C 0.96343 0.02462 0.9036 0.0
C556 C 0.95852 1.01294 0.83524 0.0
C557 C 0.94715 0.02434 0.96375 0.0
C558 C 0.93759 1.00022 0.82912 0.0
C559 C 0.92145 0.99979 0.88858 0.0
H560 H 0.53067 0.93907 0.08362 0.0
H561 H 0.54774 0.88031 0.94113 0.0
H562 H 0.54679 0.90541 0.8294 0.0
H563 H 0.54014 0.94374 0.77111 0.0
H564 H 0.52093 1.00235 0.91087 0.0
H565 H 0.52403 0.9779 0.02439 0.0
C566 C 0.53429 0.93184 0.0281 0.0
C567 C 0.53912 0.90777 0.02079 0.0
C568 C 0.5334 0.9464 0.96351 0.0
C569 C 0.54365 0.89866 0.94833 0.0
C570 C 0.54322 0.91304 0.88436 0.0
C571 C 0.53676 0.95121 0.82645 0.0
C572 C 0.5304 0.97489 0.8325 0.0
C573 C 0.53796 0.93688 0.89113 0.0
C574 C 0.52594 0.98423 0.90463 0.0
C575 C 0.52763 0.9702 0.96957 0.0
H576 H 0.60985 0.52765 0.11055 0.0
H577 H 0.66206 0.56374 0.97791 0.0
H578 H 0.63562 0.56509 0.87028 0.0
H579 H 0.59802 0.55532 0.81181 0.0
H580 H 0.54585 0.51846 0.94173 0.0
H581 H 0.57179 0.51813 0.05184 0.0
C582 C 0.61551 0.53568 0.05798 0.0
C583 C 0.63802 0.54566 0.05299 0.0
C584 C 0.60015 0.53632 0.99556 0.0
C585 C 0.64482 0.55623 0.9843 0.0
C586 C 0.62971 0.55691 0.92232 0.0
C587 C 0.59225 0.54734 0.86437 0.0
C588 C 0.57 0.53691 0.86843 0.0
C589 C 0.60736 0.547 0.92716 0.0
C590 C 0.56286 0.52662 0.93703 0.0
C591 C 0.57774 0.52637 0.99997 0.0
H592 H 0.98369 0.64082 1.01583 0.0
H593 H 0.03645 0.6063 0.14838 0.0
H594 H 0.03871 0.57494 0.05437 0.0
H595 H 0.02707 0.55821 0.93003 0.0
H596 H 0.97468 0.59358 0.79821 0.0
H597 H 0.97091 0.62345 0.89595 0.0
C598 C 0.9958 0.62652 0.02412 0.0
C599 C 1.01002 0.62616 0.08911 0.0
C600 C 0.99706 0.60855 0.96966 0.0
C601 C 0.02519 0.6071 0.09931 0.0
C602 C 0.02657 0.58915 0.04528 0.0
C603 C 1.01465 0.57232 0.92324 0.0
C604 C 1.00126 0.5737 0.85648 0.0
C605 C 1.01274 0.58976 0.97972 0.0
C606 C 0.98527 0.59213 0.84868 0.0
C607 C 0.98314 0.60929 0.90455 0.0
H608 H 0.02885 0.18106 0.1787 0.0
H609 H 0.08561 0.17861 0.33833 0.0
H610 H 0.07336 0.1395 0.37863 0.0
H611 H 0.04323 0.10916 0.38164 0.0
H612 H 0.98525 0.11259 0.22691 0.0
H613 H 1.0015 0.14822 0.17041 0.0
C614 C 0.03898 0.17168 0.22066 0.0
C615 C 0.05801 0.18271 0.25597 0.0
C616 C 0.03142 0.14959 0.24496 0.0
C617 C 0.07076 0.17051 0.31103 0.0
C618 C 0.06373 0.14821 0.3341 0.0
C619 C 0.03449 0.1173 0.33404 0.0
C620 C 1.013 0.1084 0.30869 0.0
C621 C 0.04358 0.13802 0.30346 0.0
C622 C 1.00168 0.11933 0.24783 0.0
C623 C 1.01095 0.13966 0.21565 0.0
H624 H 0.33 0.94349 0.35946 0.0
H625 H 0.35998 0.95198 0.13665 0.0
H626 H 0.39905 0.94818 0.18981 0.0
H627 H 0.42412 0.95005 0.30174 0.0
H628 H 0.39397 0.94163 0.52433 0.0
H629 H 0.35534 0.93735 0.46845 0.0
C630 C 0.34497 0.94361 0.32184 0.0
C631 C 0.34207 0.94853 0.24434 0.0
C632 C 0.36733 0.94184 0.35291 0.0
C633 C 0.36177 0.94878 0.1968 0.0
C634 C 0.3841 0.94662 0.22716 0.0
C635 C 0.40926 0.94646 0.33802 0.0
C636 C 0.41185 0.94672 0.41723 0.0
C637 C 0.38708 0.94434 0.3056 0.0
C638 C 0.39234 0.94213 0.46326 0.0
C639 C 0.37026 0.93964 0.43136 0.0
H640 H 0.60535 0.34766 0.29944 0.0
H641 H 0.54639 0.36299 0.15628 0.0
H642 H 0.54374 0.402 0.21014 0.0
H643 H 0.55429 0.42948 0.3107 0.0
H644 H 0.61164 0.4137 0.45933 0.0
H645 H 0.61869 0.37711 0.39115 0.0
C646 C 0.59212 0.35967 0.27939 0.0
C647 C 0.57594 0.35225 0.22463 0.0
C648 C 0.5901 0.38183 0.31266 0.0
C649 C 0.55922 0.3682 0.19792 0.0
C650 C 0.55746 0.39046 0.22945 0.0
C651 C 0.56842 0.41805 0.3277 0.0
C652 C 0.58216 0.42392 0.39054 0.0
C653 C 0.57216 0.39706 0.28892 0.0
C654 C 0.60078 0.40939 0.4112 0.0
C655 C 0.60476 0.38848 0.37243 0.0
H656 H 0.16694 0.54891 0.16693 0.0
H657 H 0.18009 0.61864 0.25042 0.0
H658 H 0.13968 0.62159 0.29281 0.0
H659 H 0.10367 0.60152 0.32761 0.0
H660 H 0.09054 0.53143 0.24729 0.0
H661 H 0.12787 0.5317 0.18026 0.0
C662 C 0.16079 0.56507 0.19203 0.0
C663 C 0.17662 0.58335 0.20705 0.0
C664 C 0.13767 0.56645 0.21766 0.0
C665 C 0.16836 0.60412 0.23989 0.0
C666 C 0.14527 0.60582 0.26407 0.0
C667 C 0.10847 0.58659 0.29317 0.0
C668 C 0.09451 0.56629 0.29376 0.0
C669 C 0.13015 0.58665 0.25657 0.0
C670 C 0.10121 0.54708 0.24914 0.0
C671 C 0.12257 0.54721 0.21095 0.0
H672 H 0.04882 0.85739 0.22595 0.0
H673 H 0.11986 0.84836 0.15148 0.0
H674 H 0.11853 0.88619 0.08626 0.0
H675 H 0.09565 0.9196 0.03974 0.0
H676 H 0.02405 0.9273 0.11057 0.0
H677 H 0.02709 0.89208 0.18822 0.0
C678 C 0.06425 0.864 0.19731 0.0
C679 C 0.08445 0.85022 0.19368 0.0
C680 C 0.06308 0.88527 0.15826 0.0
C681 C 0.10413 0.85873 0.15486 0.0
C682 C 0.10332 0.88026 0.11738 0.0
C683 C 0.08085 0.91374 0.07316 0.0
C684 C 0.05959 0.92583 0.06898 0.0
C685 C 0.08265 0.89333 0.11691 0.0
C686 C 0.04047 0.918 0.11196 0.0
C687 C 0.04223 0.89797 0.15662 0.0
H688 H 0.68158 1.01879 0.24164 0.0
H689 H 0.67567 0.95023 0.14171 0.0
H690 H 0.63864 0.96131 0.08326 0.0
H691 H 0.61097 0.99208 0.04775 0.0
H692 H 0.61911 0.06155 0.13979 0.0
H693 H 0.65189 0.04832 0.21616 0.0
C694 C 0.67183 1.00603 0.209 0.0
C695 C 0.6813 0.98375 0.19573 0.0
C696 C 0.65111 1.0128 0.17357 0.0
C697 C 0.66871 0.96752 0.15227 0.0
C698 C 0.64764 0.97389 0.11867 0.0
C699 C 0.61988 1.0043 0.08471 0.0
C700 C 0.61284 0.02786 0.0871 0.0
C701 C 0.63919 0.99677 0.12657 0.0
C702 C 0.62412 0.04332 0.13691 0.0
C703 C 0.64298 0.03581 0.18022 0.0
H704 H 0.43657 0.71538 0.07757 0.0
H705 H 0.44757 0.68487 0.29829 0.0
H706 H 0.44352 0.64575 0.2444 0.0
H707 H 0.44412 0.62087 0.13165 0.0
H708 H 0.43286 0.65151 0.91124 0.0
H709 H 0.42934 0.69013 0.96871 0.0
C710 C 0.43721 0.70028 0.11469 0.0
C711 C 0.44287 0.70308 0.19166 0.0
C712 C 0.43523 0.67789 0.08319 0.0
C713 C 0.4438 0.68319 0.23849 0.0
C714 C 0.44149 0.66082 0.20772 0.0
C715 C 0.44009 0.63582 0.09626 0.0
C716 C 0.4393 0.63336 0.01702 0.0
C717 C 0.43833 0.658 0.12956 0.0
C718 C 0.43418 0.65302 0.97221 0.0
C719 C 0.43211 0.6751 1.00502 0.0
H720 H 0.88167 0.51618 0.26381 0.0
H721 H 0.86028 0.44667 0.1968 0.0
H722 H 0.90042 0.43714 0.16463 0.0
H723 H 0.93905 0.45144 0.13075 0.0
H724 H 0.961 0.52045 0.20052 0.0
H725 H 0.92308 0.52681 0.25998 0.0
C726 C 0.88576 0.49865 0.24473 0.0
C727 C 0.86774 0.48249 0.22986 0.0
C728 C 0.90892 0.49322 0.22647 0.0
C729 C 0.87362 0.45983 0.20558 0.0
C730 C 0.89662 0.45427 0.18774 0.0
C731 C 0.93609 0.46754 0.16164 0.0
C732 C 0.9526 0.4858 0.1585 0.0
C733 C 0.91414 0.47127 0.1941 0.0
C734 C 0.94829 0.5064 0.19968 0.0
C735 C 0.92657 0.51009 0.23346 0.0
H736 H 1.00208 0.18175 0.79238 0.0
H737 H 0.04529 0.16673 0.98559 0.0
H738 H 0.04709 0.1255 0.94869 0.0
H739 H 0.0359 0.09339 0.8623 0.0
H740 H 0.99399 0.1088 0.66604 0.0
H741 H 0.99228 0.14993 0.70298 0.0
C742 C 1.01186 0.16942 0.82642 0.0
C743 C 0.02348 0.17738 0.89187 0.0
C744 C 1.0131 0.14571 0.80414 0.0
C745 C 0.03631 0.16117 0.93477 0.0
C746 C 0.03728 0.13754 0.91377 0.0
C747 C 0.02645 0.10573 0.82737 0.0
C748 C 1.01503 0.0978 0.7614 0.0
C749 C 0.02571 0.12956 0.84862 0.0
C750 C 1.00301 0.11424 0.71688 0.0
C751 C 1.00195 0.13784 0.73816 0.0
H752 H 0.36418 0.02735 0.82257 0.0
H753 H 0.3889 0.058 0.03073 0.0
H754 H 0.4289 0.0562 0.98449 0.0
H755 H 0.4571 0.04653 0.88485 0.0
H756 H 0.43297 1.01561 0.67651 0.0
H757 H 0.39285 1.01676 0.723 0.0
C758 C 0.37833 0.03341 0.85814 0.0
C759 C 0.37331 0.043 0.93002 0.0
C760 C 0.40154 0.03235 0.83103 0.0
C761 C 0.39202 0.05092 0.97479 0.0
C762 C 0.41501 0.04981 0.94847 0.0
C763 C 0.44312 0.04006 0.84926 0.0
C764 C 0.44829 0.03099 0.77688 0.0
C765 C 0.41999 0.04076 0.87648 0.0
C766 C 0.42975 1.02261 0.73235 0.0
C767 C 0.40668 0.02329 0.75899 0.0
H768 H 0.49851 0.38504 0.94777 0.0
H769 H 0.53603 0.35804 0.75506 0.0
H770 H 0.53946 0.39757 0.7028 0.0
H771 H 0.53185 0.44036 0.71209 0.0
H772 H 0.49471 0.46634 0.90758 0.0
H773 H 0.49142 0.42699 0.95794 0.0
C774 C 0.50774 0.38774 0.89482 0.0
C775 C 0.51702 0.36839 0.85584 0.0
C776 C 0.50972 0.41054 0.8651 0.0
C777 C 0.52846 0.37243 0.7863 0.0
C778 C 0.53053 0.39512 0.75637 0.0
C779 C 0.523 0.43738 0.76557 0.0
C780 C 0.51362 0.45653 0.80568 0.0
C781 C 0.52116 0.41439 0.79514 0.0
C782 C 0.50225 0.45218 0.87513 0.0
C783 C 0.5003 0.42956 0.90432 0.0
H784 H 0.15378 0.52062 0.98402 0.0
H785 H 0.1868 0.51998 0.76426 0.0
H786 H 0.14881 0.52327 0.7033 0.0
H787 H 0.10564 0.52471 0.71169 0.0
H788 H 0.07308 0.52384 0.93224 0.0
H789 H 0.11114 0.52252 0.99262 0.0
C790 C 0.15275 0.52102 0.92275 0.0
C791 C 0.17337 0.52 0.87924 0.0
C792 C 0.13072 0.52256 0.88772 0.0
C793 C 0.17143 0.52104 0.79975 0.0
C794 C 0.1496 0.52275 0.76458 0.0
C795 C 0.10689 0.52437 0.77292 0.0
C796 C 0.08637 0.52429 0.81703 0.0
C797 C 0.12905 0.52335 0.80787 0.0
C798 C 0.08845 0.52378 0.89647 0.0
C799 C 0.11029 0.52303 0.93133 0.0
H800 H 0.99924 0.88409 0.47154 0.0
H801 H 0.03502 0.85672 0.66686 0.0
H802 H 0.03632 0.89582 0.72261 0.0
H803 H 0.02735 0.93847 0.716 0.0
H804 H 0.9924 0.96493 0.51734 0.0
H805 H 0.9911 0.92596 0.46359 0.0
C806 C 1.00764 0.8866 0.52585 0.0
C807 C 1.01698 0.86717 0.56446 0.0
C808 C 1.0085 0.90924 0.5576 0.0
C809 C 0.02735 0.87107 0.63573 0.0
C810 C 0.02822 0.89356 0.66773 0.0
C811 C 1.01942 0.93569 0.66108 0.0
C812 C 1.01003 0.95491 0.62124 0.0
C813 C 1.01878 0.91287 0.62937 0.0
C814 C 0.99989 0.95075 0.54982 0.0
C815 C 0.99909 0.92832 0.51862 0.0
H816 H 0.66083 1.01297 0.47372 0.0
H817 H 0.68643 0.04738 0.67445 0.0
H818 H 0.64733 0.04675 0.72918 0.0
H819 H 0.60519 0.03755 0.71886 0.0
H820 H 0.5799 1.00421 0.51566 0.0
H821 H 0.61919 1.00359 0.46369 0.0
C822 C 0.65791 1.02052 0.52921 0.0
C823 C 0.67681 0.03017 0.56954 0.0
C824 C 0.63522 1.02036 0.56029 0.0
C825 C 0.67248 0.03948 0.64211 0.0
C826 C 0.64999 0.03928 0.67347 0.0
C827 C 0.6083 0.03 0.66347 0.0
C828 C 0.58941 1.02099 0.6215 0.0
C829 C 0.63115 0.02985 0.63304 0.0
C830 C 0.59392 1.01139 0.54951 0.0
C831 C 0.61648 1.01101 0.51946 0.0
H832 H 0.52028 0.68377 0.61479 0.0
H833 H 0.54858 0.65954 0.40242 0.0
H834 H 0.54626 0.61919 0.44658 0.0
H835 H 0.53697 0.59064 0.54561 0.0
H836 H 0.50875 0.61418 0.75881 0.0
H837 H 0.5101 0.65467 0.71413 0.0
C838 C 0.52571 0.66964 0.57793 0.0
C839 C 0.53478 0.67484 0.50542 0.0
C840 C 0.52442 0.64625 0.60392 0.0
C841 C 0.54189 0.65621 0.45883 0.0
C842 C 0.5405 0.63305 0.48396 0.0
C843 C 0.53111 0.60456 0.58262 0.0
C844 C 0.52273 0.59916 0.65575 0.0
C845 C 0.532 0.62786 0.55658 0.0
C846 C 0.51516 0.61762 0.70226 0.0
C847 C 0.51598 0.64088 0.67669 0.0
H848 H 0.8798 0.52151 0.47414 0.0
H849 H 0.85192 0.53239 0.69813 0.0
H850 H 0.89101 0.52922 0.75207 0.0
H851 H 0.93348 0.52446 0.73569 0.0
H852 H 0.96174 0.51607 0.51096 0.0
H853 H 0.92245 0.51704 0.45761 0.0
C854 C 0.8823 0.52301 0.53479 0.0
C855 C 0.8629 0.52716 0.58202 0.0
C856 C 0.90501 0.52167 0.56542 0.0
C857 C 0.86652 0.52934 0.66045 0.0
C858 C 0.88889 0.52748 0.69138 0.0
C859 C 0.93102 0.52269 0.67511 0.0
C860 C 0.95061 0.52013 0.62756 0.0
C861 C 0.90832 0.52381 0.64447 0.0
C862 C 0.94705 0.51813 0.549 0.0
C863 C 0.92454 0.51867 0.51836 0.0
loop_
_geom_bond_atom_site_label_1
_geom_bond_atom_site_label_2
_geom_bond_distance
_geom_bond_site_symmetry_2
_ccdc_geom_bond_type
C0 C1 1.264 . S
C0 C5 1.479 . S
C0 C10 1.465 . S
C1 C0 1.264 . S
C1 C3 1.339 . S
C1 H28 0.931 . S
C2 C3 1.395 . S
C2 C4 1.320 . S
C3 C1 1.339 . S
C3 C2 1.395 . S
C3 H29 0.929 . S
C4 C2 1.320 . S
C4 C5 1.405 . S
C4 H30 0.930 . S
C5 C0 1.479 . S
C5 C4 1.405 . S
C5 H31 0.931 . S
U6 O7 2.454 . S
U6 O8 2.458 . S
U6 C9 2.984 . S
U6 C10 2.847 . S
U6 C23 2.882 . S
U6 O24 2.441 . S
U6 O25 2.420 . S
U6 O26 2.455 . S
U6 O27 2.449 . S
O7 U6 2.454 . S
O7 C9 1.353 . S
O8 U6 2.458 . S
O8 C9 1.286 . S
C9 U6 2.984 . S
C9 O7 1.353 . S
C9 O8 1.286 . S
C9 C11 1.363 . S
C10 C0 1.465 . S
C10 U6 2.847 . S
C10 O24 1.249 . S
C10 O25 1.202 . S
C11 C9 1.363 . S
C11 C13 1.408 . S
C11 C16 1.342 . S
C12 C13 1.310 . S
C12 C15 1.461 . S
C12 H32 0.932 . S
C13 C11 1.408 . S
C13 C12 1.310 . S
C13 H33 0.930 . S
C14 C15 1.474 . S
C14 C16 1.285 . S
C14 H34 0.929 . S
C15 C12 1.461 . S
C15 C14 1.474 . S
C16 C11 1.342 . S
C16 C14 1.285 . S
C16 H35 0.930 . S
C17 C20 1.424 . S
C17 C22 1.245 . S
C17 C23 1.428 . S
C18 C21 1.260 . S
C18 C22 1.477 . S
C18 H36 0.932 . S
C19 C20 1.384 . S
C19 C21 1.479 . S
C19 H37 0.929 . S
C20 C17 1.424 . S
C20 C19 1.384 . S
C20 H38 0.928 . S
C21 C18 1.260 . S
C21 C19 1.479 . S
C22 C17 1.245 . S
C22 C18 1.477 . S
C22 H39 0.932 . S
C23 U6 2.882 . S
C23 C17 1.428 . S
C23 O26 1.301 . S
C23 O27 1.282 . S
O24 U6 2.441 . S
O24 C10 1.249 . S
O25 U6 2.420 . S
O25 C10 1.202 . S
O26 U6 2.455 . S
O26 C23 1.301 . S
O27 U6 2.449 . S
O27 C23 1.282 . S
H28 C1 0.931 . S
H29 C3 0.929 . S
H30 C4 0.930 . S
H31 C5 0.931 . S
H32 C12 0.932 . S
H33 C13 0.930 . S
H34 C14 0.929 . S
H35 C16 0.930 . S
H36 C18 0.932 . S
H37 C19 0.929 . S
H38 C20 0.928 . S
H39 C22 0.932 . S
C40 C41 1.264 . S
C40 C45 1.479 . S
C40 C50 1.465 . S
C41 C40 1.264 . S
C41 C43 1.339 . S
C41 H68 0.931 . S
C42 C43 1.395 . S
C42 C44 1.320 . S
C43 C41 1.339 . S
C43 C42 1.395 . S
C43 H69 0.929 . S
C44 C42 1.320 . S
C44 C45 1.405 . S
C44 H70 0.921 1_455 S
C45 C40 1.479 . S
C45 C44 1.405 . S
C45 H71 0.931 . S
U46 O47 2.454 . S
U46 O48 2.458 . S
U46 C49 2.984 . S
U46 C50 2.847 . S
U46 C63 2.882 . S
U46 O64 2.441 . S
U46 O65 2.420 . S
U46 O66 2.455 . S
U46 O67 2.449 . S
O47 U46 2.454 . S
O47 C49 1.353 . S
O48 U46 2.458 . S
O48 C49 1.286 . S
C49 U46 2.984 . S
C49 O47 1.353 . S
C49 O48 1.286 . S
C49 C51 1.363 . S
C50 C40 1.465 . S
C50 U46 2.847 . S
C50 O64 1.249 . S
C50 O65 1.202 . S
C51 C49 1.363 . S
C51 C53 1.408 . S
C51 C56 1.342 . S
C52 C53 1.310 . S
C52 C55 1.461 . S
C52 H72 0.932 . S
C53 C51 1.408 . S
C53 C52 1.310 . S
C53 H73 0.930 . S
C54 C55 1.474 1_655 S
C54 C56 1.285 1_655 S
C54 H74 0.930 . S
C55 C52 1.461 . S
C55 C54 1.474 1_455 S
C56 C51 1.342 . S
C56 C54 1.285 1_455 S
C56 H75 0.933 . S
C57 C60 1.424 . S
C57 C62 1.245 . S
C57 C63 1.428 . S
C58 C61 1.260 . S
C58 C62 1.477 . S
C58 H76 0.932 . S
C59 C60 1.384 . S
C59 C61 1.479 . S
C59 H77 0.929 . S
C60 C57 1.424 . S
C60 C59 1.384 . S
C60 H78 0.928 . S
C61 C58 1.260 . S
C61 C59 1.479 . S
C62 C57 1.245 . S
C62 C58 1.477 . S
C62 H79 0.932 . S
C63 U46 2.882 . S
C63 C57 1.428 . S
C63 O66 1.301 . S
C63 O67 1.282 . S
O64 U46 2.441 . S
O64 C50 1.249 . S
O65 U46 2.420 . S
O65 C50 1.202 . S
O66 U46 2.455 . S
O66 C63 1.301 . S
O67 U46 2.449 . S
O67 C63 1.282 . S
H68 C41 0.931 . S
H69 C43 0.929 . S
H70 C44 0.921 1_655 S
H71 C45 0.931 . S
H72 C52 0.932 . S
H73 C53 0.930 . S
H74 C54 0.930 . S
H75 C56 0.933 . S
H76 C58 0.932 . S
H77 C59 0.929 . S
H78 C60 0.928 . S
H79 C62 0.932 . S
C80 C81 1.264 . S
C80 C85 1.479 . S
C80 C90 1.465 . S
C81 C80 1.264 . S
C81 C83 1.339 . S
C81 H108 0.931 . S
C82 C83 1.395 . S
C82 C84 1.320 . S
C83 C81 1.339 . S
C83 C82 1.395 . S
C83 H109 0.929 . S
C84 C82 1.320 . S
C84 C85 1.405 . S
C84 H110 0.921 1_545 S
C85 C80 1.479 . S
C85 C84 1.405 . S
C85 H111 0.931 . S
U86 O87 2.454 . S
U86 O88 2.458 . S
U86 C89 2.984 . S
U86 C90 2.847 . S
U86 C103 2.882 . S
U86 O104 2.441 . S
U86 O105 2.420 . S
U86 O106 2.455 . S
U86 O107 2.449 . S
O87 U86 2.454 . S
O87 C89 1.353 . S
O88 U86 2.458 . S
O88 C89 1.286 . S
C89 U86 2.984 . S
C89 O87 1.353 . S
C89 O88 1.286 . S
C89 C91 1.363 . S
C90 C80 1.465 . S
C90 U86 2.847 . S
C90 O104 1.249 . S
C90 O105 1.202 . S
C91 C89 1.363 . S
C91 C93 1.408 . S
C91 C96 1.342 . S
C92 C93 1.310 . S
C92 C95 1.461 . S
C92 H112 0.932 . S
C93 C91 1.408 . S
C93 C92 1.310 . S
C93 H113 0.930 . S
C94 C95 1.474 1_565 S
C94 C96 1.285 1_565 S
C94 H114 0.930 . S
C95 C92 1.461 . S
C95 C94 1.474 1_545 S
C96 C91 1.342 . S
C96 C94 1.285 1_545 S
C96 H115 0.933 . S
C97 C100 1.424 . S
C97 C102 1.245 . S
C97 C103 1.428 . S
C98 C101 1.260 . S
C98 C102 1.477 . S
C98 H116 0.932 . S
C99 C100 1.384 . S
C99 C101 1.479 . S
C99 H117 0.929 . S
C100 C97 1.424 . S
C100 C99 1.384 . S
C100 H118 0.928 . S
C101 C98 1.260 . S
C101 C99 1.479 . S
C102 C97 1.245 . S
C102 C98 1.477 . S
C102 H119 0.932 . S
C103 U86 2.882 . S
C103 C97 1.428 . S
C103 O106 1.301 . S
C103 O107 1.282 . S
O104 U86 2.441 . S
O104 C90 1.249 . S
O105 U86 2.420 . S
O105 C90 1.202 . S
O106 U86 2.455 . S
O106 C103 1.301 . S
O107 U86 2.449 . S
O107 C103 1.282 . S
H108 C81 0.931 . S
H109 C83 0.929 . S
H110 C84 0.921 1_565 S
H111 C85 0.931 . S
H112 C92 0.932 . S
H113 C93 0.930 . S
H114 C94 0.930 . S
H115 C96 0.933 . S
H116 C98 0.932 . S
H117 C99 0.929 . S
H118 C100 0.928 . S
H119 C102 0.932 . S
C120 C121 1.264 . S
C120 C125 1.479 . S
C120 C130 1.465 . S
C121 C120 1.264 . S
C121 C123 1.339 . S
C121 H148 0.931 . S
C122 C123 1.395 . S
C122 C124 1.320 . S
C123 C121 1.339 . S
C123 C122 1.395 . S
C123 H149 0.929 . S
C124 C122 1.320 . S
C124 C125 1.405 . S
C124 H150 0.930 . S
C125 C120 1.479 . S
C125 C124 1.405 . S
C125 H151 0.931 . S
U126 O127 2.454 . S
U126 O128 2.458 . S
U126 C129 2.984 . S
U126 C130 2.847 . S
U126 C143 2.882 . S
U126 O144 2.441 . S
U126 O145 2.420 . S
U126 O146 2.455 . S
U126 O147 2.449 . S
O127 U126 2.454 . S
O127 C129 1.353 . S
O128 U126 2.458 . S
O128 C129 1.286 . S
C129 U126 2.984 . S
C129 O127 1.353 . S
C129 O128 1.286 . S
C129 C131 1.363 . S
C130 C120 1.465 . S
C130 U126 2.847 . S
C130 O144 1.249 . S
C130 O145 1.202 . S
C131 C129 1.363 . S
C131 C133 1.408 . S
C131 C136 1.342 . S
C132 C133 1.310 . S
C132 C135 1.461 . S
C132 H152 0.932 . S
C133 C131 1.408 . S
C133 C132 1.310 . S
C133 H153 0.930 . S
C134 C135 1.474 . S
C134 C136 1.285 . S
C134 H154 0.929 . S
C135 C132 1.461 . S
C135 C134 1.474 . S
C136 C131 1.342 . S
C136 C134 1.285 . S
C136 H155 0.930 . S
C137 C140 1.424 . S
C137 C142 1.245 . S
C137 C143 1.428 . S
C138 C141 1.260 . S
C138 C142 1.477 . S
C138 H156 0.932 . S
C139 C140 1.384 . S
C139 C141 1.479 . S
C139 H157 0.929 . S
C140 C137 1.424 . S
C140 C139 1.384 . S
C140 H158 0.928 . S
C141 C138 1.260 . S
C141 C139 1.479 . S
C142 C137 1.245 . S
C142 C138 1.477 . S
C142 H159 0.932 . S
C143 U126 2.882 . S
C143 C137 1.428 . S
C143 O146 1.301 . S
C143 O147 1.282 . S
O144 U126 2.441 . S
O144 C130 1.249 . S
O145 U126 2.420 . S
O145 C130 1.202 . S
O146 U126 2.455 . S
O146 C143 1.301 . S
O147 U126 2.449 . S
O147 C143 1.282 . S
H148 C121 0.931 . S
H149 C123 0.929 . S
H150 C124 0.930 . S
H151 C125 0.931 . S
H152 C132 0.932 . S
H153 C133 0.930 . S
H154 C134 0.929 . S
H155 C136 0.930 . S
H156 C138 0.932 . S
H157 C139 0.929 . S
H158 C140 0.928 . S
H159 C142 0.932 . S
C160 C161 1.264 . S
C160 C165 1.479 . S
C160 C170 1.465 . S
C161 C160 1.264 . S
C161 C163 1.339 . S
C161 H188 0.931 . S
C162 C163 1.395 . S
C162 C164 1.320 . S
C163 C161 1.339 . S
C163 C162 1.395 . S
C163 H189 0.929 . S
C164 C162 1.320 . S
C164 C165 1.405 . S
C164 H190 0.930 . S
C165 C160 1.479 . S
C165 C164 1.405 . S
C165 H191 0.931 . S
U166 O167 2.454 . S
U166 O168 2.458 . S
U166 C169 2.984 . S
U166 C170 2.847 1_554 S
U166 C183 2.882 . S
U166 O184 2.441 1_554 S
U166 O185 2.420 1_554 S
U166 O186 2.455 . S
U166 O187 2.449 . S
O167 U166 2.454 . S
O167 C169 1.353 . S
O168 U166 2.458 . S
O168 C169 1.286 . S
C169 U166 2.984 . S
C169 O167 1.353 . S
C169 O168 1.286 . S
C169 C171 1.363 . S
C170 C160 1.465 . S
C170 U166 2.847 1_556 S
C170 O184 1.249 . S
C170 O185 1.202 . S
C171 C169 1.363 . S
C171 C173 1.408 . S
C171 C176 1.342 . S
C172 C173 1.310 . S
C172 C175 1.461 . S
C172 H192 0.932 . S
C173 C171 1.408 . S
C173 C172 1.310 . S
C173 H193 0.930 1_554 S
C174 C175 1.474 . S
C174 C176 1.285 . S
C174 H194 0.929 . S
C175 C172 1.461 . S
C175 C174 1.474 . S
C176 C171 1.342 . S
C176 C174 1.285 . S
C176 H195 0.930 . S
C177 C180 1.424 . S
C177 C182 1.245 . S
C177 C183 1.428 . S
C178 C181 1.260 . S
C178 C182 1.477 . S
C178 H196 0.932 . S
C179 C180 1.384 . S
C179 C181 1.479 . S
C179 H197 0.929 . S
C180 C177 1.424 . S
C180 C179 1.384 . S
C180 H198 0.928 . S
C181 C178 1.260 . S
C181 C179 1.479 . S
C182 C177 1.245 . S
C182 C178 1.477 . S
C182 H199 0.932 . S
C183 U166 2.882 . S
C183 C177 1.428 . S
C183 O186 1.301 . S
C183 O187 1.282 . S
O184 U166 2.441 1_556 S
O184 C170 1.249 . S
O185 U166 2.420 1_556 S
O185 C170 1.202 . S
O186 U166 2.455 . S
O186 C183 1.301 . S
O187 U166 2.449 . S
O187 C183 1.282 . S
H188 C161 0.931 . S
H189 C163 0.929 . S
H190 C164 0.930 . S
H191 C165 0.931 . S
H192 C172 0.932 . S
H193 C173 0.930 1_556 S
H194 C174 0.929 . S
H195 C176 0.930 . S
H196 C178 0.932 . S
H197 C179 0.929 . S
H198 C180 0.928 . S
H199 C182 0.932 . S
C200 C201 1.264 . S
C200 C205 1.479 . S
C200 C210 1.465 . S
C201 C200 1.264 . S
C201 C203 1.339 . S
C201 H228 0.931 . S
C202 C203 1.395 . S
C202 C204 1.320 . S
C203 C201 1.339 . S
C203 C202 1.395 . S
C203 H229 0.929 . S
C204 C202 1.320 . S
C204 C205 1.405 . S
C204 H230 0.923 1_455 S
C205 C200 1.479 . S
C205 C204 1.405 . S
C205 H231 0.931 . S
U206 O207 2.454 . S
U206 O208 2.458 . S
U206 C209 2.984 . S
U206 C210 2.847 1_554 S
U206 C223 2.882 . S
U206 O224 2.441 1_554 S
U206 O225 2.420 1_554 S
U206 O226 2.455 . S
U206 O227 2.449 . S
O207 U206 2.454 . S
O207 C209 1.353 . S
O208 U206 2.458 . S
O208 C209 1.286 . S
C209 U206 2.984 . S
C209 O207 1.353 . S
C209 O208 1.286 . S
C209 C211 1.363 . S
C210 C200 1.465 . S
C210 U206 2.847 1_556 S
C210 O224 1.249 . S
C210 O225 1.202 . S
C211 C209 1.363 . S
C211 C213 1.408 . S
C211 C216 1.342 . S
C212 C213 1.310 . S
C212 C215 1.462 . S
C212 H232 0.932 . S
C213 C211 1.408 . S
C213 C212 1.310 . S
C213 H233 0.930 1_554 S
C214 C215 1.474 1_655 S
C214 C216 1.286 1_655 S
C214 H234 0.929 . S
C215 C212 1.462 . S
C215 C214 1.474 1_455 S
C216 C211 1.342 . S
C216 C214 1.286 1_455 S
C216 H235 0.933 . S
C217 C220 1.424 . S
C217 C222 1.245 . S
C217 C223 1.428 . S
C218 C221 1.260 . S
C218 C222 1.477 . S
C218 H236 0.932 . S
C219 C220 1.384 . S
C219 C221 1.479 . S
C219 H237 0.929 . S
C220 C217 1.424 . S
C220 C219 1.384 . S
C220 H238 0.928 . S
C221 C218 1.260 . S
C221 C219 1.479 . S
C222 C217 1.245 . S
C222 C218 1.477 . S
C222 H239 0.932 . S
C223 U206 2.882 . S
C223 C217 1.428 . S
C223 O226 1.301 . S
C223 O227 1.282 . S
O224 U206 2.441 1_556 S
O224 C210 1.249 . S
O225 U206 2.420 1_556 S
O225 C210 1.202 . S
O226 U206 2.455 . S
O226 C223 1.301 . S
O227 U206 2.449 . S
O227 C223 1.282 . S
H228 C201 0.931 . S
H229 C203 0.929 . S
H230 C204 0.923 1_655 S
H231 C205 0.931 . S
H232 C212 0.932 . S
H233 C213 0.930 1_556 S
H234 C214 0.929 . S
H235 C216 0.933 . S
H236 C218 0.932 . S
H237 C219 0.929 . S
H238 C220 0.928 . S
H239 C222 0.932 . S
C240 C241 1.264 . S
C240 C245 1.479 . S
C240 C250 1.465 . S
C241 C240 1.264 . S
C241 C243 1.339 . S
C241 H268 0.931 . S
C242 C243 1.395 . S
C242 C244 1.320 . S
C243 C241 1.339 . S
C243 C242 1.395 . S
C243 H269 0.929 . S
C244 C242 1.320 . S
C244 C245 1.405 . S
C244 H270 0.923 1_545 S
C245 C240 1.479 . S
C245 C244 1.405 . S
C245 H271 0.931 . S
U246 O247 2.454 . S
U246 O248 2.458 . S
U246 C249 2.984 . S
U246 C250 2.847 1_554 S
U246 C263 2.882 . S
U246 O264 2.441 1_554 S
U246 O265 2.420 1_554 S
U246 O266 2.455 . S
U246 O267 2.449 . S
O247 U246 2.454 . S
O247 C249 1.353 . S
O248 U246 2.458 . S
O248 C249 1.286 . S
C249 U246 2.984 . S
C249 O247 1.353 . S
C249 O248 1.286 . S
C249 C251 1.363 . S
C250 C240 1.465 . S
C250 U246 2.847 1_556 S
C250 O264 1.249 . S
C250 O265 1.202 . S
C251 C249 1.363 . S
C251 C253 1.408 . S
C251 C256 1.342 . S
C252 C253 1.310 . S
C252 C255 1.462 . S
C252 H272 0.932 . S
C253 C251 1.408 . S
C253 C252 1.310 . S
C253 H273 0.930 1_554 S
C254 C255 1.474 1_565 S
C254 C256 1.286 1_565 S
C254 H274 0.929 . S
C255 C252 1.462 . S
C255 C254 1.474 1_545 S
C256 C251 1.342 . S
C256 C254 1.286 1_545 S
C256 H275 0.933 . S
C257 C260 1.424 . S
C257 C262 1.245 . S
C257 C263 1.428 . S
C258 C261 1.260 . S
C258 C262 1.477 . S
C258 H276 0.932 . S
C259 C260 1.384 . S
C259 C261 1.479 . S
C259 H277 0.929 . S
C260 C257 1.424 . S
C260 C259 1.384 . S
C260 H278 0.928 . S
C261 C258 1.260 . S
C261 C259 1.479 . S
C262 C257 1.245 . S
C262 C258 1.477 . S
C262 H279 0.932 . S
C263 U246 2.882 . S
C263 C257 1.428 . S
C263 O266 1.301 . S
C263 O267 1.282 . S
O264 U246 2.441 1_556 S
O264 C250 1.249 . S
O265 U246 2.420 1_556 S
O265 C250 1.202 . S
O266 U246 2.455 . S
O266 C263 1.301 . S
O267 U246 2.449 . S
O267 C263 1.282 . S
H268 C241 0.931 . S
H269 C243 0.929 . S
H270 C244 0.923 1_565 S
H271 C245 0.931 . S
H272 C252 0.932 . S
H273 C253 0.930 1_556 S
H274 C254 0.929 . S
H275 C256 0.933 . S
H276 C258 0.932 . S
H277 C259 0.929 . S
H278 C260 0.928 . S
H279 C262 0.932 . S
C280 C281 1.264 . S
C280 C285 1.479 . S
C280 C290 1.465 . S
C281 C280 1.264 . S
C281 C283 1.339 . S
C281 H308 0.931 . S
C282 C283 1.395 . S
C282 C284 1.320 . S
C283 C281 1.339 . S
C283 C282 1.395 . S
C283 H309 0.929 . S
C284 C282 1.320 . S
C284 C285 1.405 . S
C284 H310 0.930 . S
C285 C280 1.479 . S
C285 C284 1.405 . S
C285 H311 0.931 . S
U286 O287 2.454 . S
U286 O288 2.458 . S
U286 C289 2.984 . S
U286 C290 2.847 1_554 S
U286 C303 2.882 . S
U286 O304 2.441 1_554 S
U286 O305 2.420 1_554 S
U286 O306 2.455 . S
U286 O307 2.449 . S
O287 U286 2.454 . S
O287 C289 1.353 . S
O288 U286 2.458 . S
O288 C289 1.286 . S
C289 U286 2.984 . S
C289 O287 1.353 . S
C289 O288 1.286 . S
C289 C291 1.363 . S
C290 C280 1.465 . S
C290 U286 2.847 1_556 S
C290 O304 1.249 . S
C290 O305 1.202 . S
C291 C289 1.363 . S
C291 C293 1.408 . S
C291 C296 1.342 . S
C292 C293 1.310 . S
C292 C295 1.461 . S
C292 H312 0.932 . S
C293 C291 1.408 . S
C293 C292 1.310 . S
C293 H313 0.930 1_554 S
C294 C295 1.474 . S
C294 C296 1.285 . S
C294 H314 0.929 . S
C295 C292 1.461 . S
C295 C294 1.474 . S
C296 C291 1.342 . S
C296 C294 1.285 . S
C296 H315 0.930 . S
C297 C300 1.424 . S
C297 C302 1.245 . S
C297 C303 1.428 . S
C298 C301 1.260 . S
C298 C302 1.477 . S
C298 H316 0.932 . S
C299 C300 1.384 . S
C299 C301 1.479 . S
C299 H317 0.929 . S
C300 C297 1.424 . S
C300 C299 1.384 . S
C300 H318 0.928 . S
C301 C298 1.260 . S
C301 C299 1.479 . S
C302 C297 1.245 . S
C302 C298 1.477 . S
C302 H319 0.932 . S
C303 U286 2.882 . S
C303 C297 1.428 . S
C303 O306 1.301 . S
C303 O307 1.282 . S
O304 U286 2.441 1_556 S
O304 C290 1.249 . S
O305 U286 2.420 1_556 S
O305 C290 1.202 . S
O306 U286 2.455 . S
O306 C303 1.301 . S
O307 U286 2.449 . S
O307 C303 1.282 . S
H308 C281 0.931 . S
H309 C283 0.929 . S
H310 C284 0.930 . S
H311 C285 0.931 . S
H312 C292 0.932 . S
H313 C293 0.930 1_556 S
H314 C294 0.929 . S
H315 C296 0.930 . S
H316 C298 0.932 . S
H317 C299 0.929 . S
H318 C300 0.928 . S
H319 C302 0.932 . S
La320 C322 2.928 . S
La320 O340 2.521 . S
La320 O341 2.628 . S
La320 O342 2.554 . S
La320 O343 2.757 1_565 S
La320 O344 2.470 . S
La320 O349 2.482 1_455 S
La320 O351 2.503 1_565 S
La321 C331 2.928 . S
La321 O343 2.482 1_655 S
La321 O345 2.503 1_545 S
La321 O346 2.521 . S
La321 O347 2.628 . S
La321 O348 2.554 . S
La321 O349 2.757 1_545 S
La321 O350 2.470 . S
C322 La320 2.928 . S
C322 C323 1.503 . S
C322 O340 1.261 . S
C322 O341 1.243 . S
C323 C322 1.503 . S
C323 C324 1.394 . S
C323 C328 1.373 . S
C324 C323 1.394 . S
C324 C325 1.380 . S
C324 H352 0.930 . S
C325 C324 1.380 . S
C325 C326 1.376 . S
C325 H353 0.930 . S
C326 C325 1.376 . S
C326 C327 1.370 . S
C327 C326 1.370 . S
C327 C328 1.396 . S
C327 H354 0.929 1_455 S
C328 C323 1.373 . S
C328 C327 1.396 . S
C328 H355 0.929 1_455 S
C329 O342 1.240 . S
C329 O343 1.289 1_565 S
C330 O344 1.258 1_655 S
C330 O345 1.256 . S
C331 La321 2.928 . S
C331 C332 1.503 . S
C331 O346 1.261 . S
C331 O347 1.243 . S
C332 C331 1.503 . S
C332 C333 1.394 . S
C332 C337 1.373 . S
C333 C332 1.394 . S
C333 C334 1.380 . S
C333 H356 0.930 . S
C334 C333 1.380 . S
C334 C335 1.376 . S
C334 H357 0.930 . S
C335 C334 1.376 . S
C335 C336 1.370 . S
C336 C335 1.370 . S
C336 C337 1.396 . S
C336 H358 0.919 1_655 S
C337 C332 1.373 . S
C337 C336 1.396 . S
C337 H359 0.929 1_655 S
C338 O348 1.240 . S
C338 O349 1.289 1_545 S
C339 O350 1.258 1_455 S
C339 O351 1.256 . S
O340 La320 2.521 . S
O340 C322 1.261 . S
O341 La320 2.628 . S
O341 C322 1.243 . S
O342 La320 2.554 . S
O342 C329 1.240 . S
O343 La320 2.757 1_545 S
O343 La321 2.482 1_455 S
O343 C329 1.289 1_545 S
O344 La320 2.470 . S
O344 C330 1.258 1_455 S
O345 La321 2.503 1_565 S
O345 C330 1.256 . S
O346 La321 2.521 . S
O346 C331 1.261 . S
O347 La321 2.628 . S
O347 C331 1.243 . S
O348 La321 2.554 . S
O348 C338 1.240 . S
O349 La320 2.482 1_655 S
O349 La321 2.757 1_565 S
O349 C338 1.289 1_565 S
O350 La321 2.470 . S
O350 C339 1.258 1_655 S
O351 La320 2.503 1_545 S
O351 C339 1.256 . S
H352 C324 0.930 . S
H353 C325 0.930 . S
H354 C327 0.929 1_655 S
H355 C328 0.929 1_655 S
H356 C333 0.930 . S
H357 C334 0.930 . S
H358 C336 0.919 1_455 S
H359 C337 0.929 1_455 S
La360 C362 2.928 . S
La360 O380 2.521 . S
La360 O381 2.628 . S
La360 O382 2.554 . S
La360 O383 2.757 . S
La360 O384 2.470 . S
La360 O389 2.482 1_545 S
La360 O391 2.503 . S
La361 C371 2.928 . S
La361 O383 2.482 1_565 S
La361 O385 2.503 . S
La361 O386 2.521 . S
La361 O387 2.628 . S
La361 O388 2.554 . S
La361 O389 2.757 . S
La361 O390 2.470 . S
C362 La360 2.928 . S
C362 C363 1.503 . S
C362 O380 1.261 . S
C362 O381 1.243 . S
C363 C362 1.503 . S
C363 C364 1.394 . S
C363 C368 1.373 . S
C364 C363 1.394 . S
C364 C365 1.380 . S
C364 H392 0.930 . S
C365 C364 1.380 . S
C365 C366 1.376 . S
C365 H393 0.930 . S
C366 C365 1.376 . S
C366 C367 1.370 . S
C367 C366 1.370 . S
C367 C368 1.396 . S
C367 H394 0.909 1_545 S
C368 C363 1.373 . S
C368 C367 1.396 . S
C368 H395 0.929 1_545 S
C369 O382 1.240 . S
C369 O383 1.289 . S
C370 O384 1.258 1_565 S
C370 O385 1.256 . S
C371 La361 2.928 . S
C371 C372 1.503 . S
C371 O386 1.261 . S
C371 O387 1.243 . S
C372 C371 1.503 . S
C372 C373 1.394 . S
C372 C377 1.373 . S
C373 C372 1.394 . S
C373 C374 1.380 . S
C373 H396 0.930 . S
C374 C373 1.380 . S
C374 C375 1.376 . S
C374 H397 0.930 . S
C375 C374 1.376 . S
C375 C376 1.370 . S
C376 C375 1.370 . S
C376 C377 1.396 . S
C376 H398 0.900 1_565 S
C377 C372 1.373 . S
C377 C376 1.396 . S
C377 H399 0.929 1_565 S
C378 O388 1.240 . S
C378 O389 1.289 . S
C379 O390 1.258 1_545 S
C379 O391 1.256 . S
O380 La360 2.521 . S
O380 C362 1.261 . S
O381 La360 2.628 . S
O381 C362 1.243 . S
O382 La360 2.554 . S
O382 C369 1.240 . S
O383 La360 2.757 . S
O383 La361 2.482 1_545 S
O383 C369 1.289 . S
O384 La360 2.470 . S
O384 C370 1.258 1_545 S
O385 La361 2.503 . S
O385 C370 1.256 . S
O386 La361 2.521 . S
O386 C371 1.261 . S
O387 La361 2.628 . S
O387 C371 1.243 . S
O388 La361 2.554 . S
O388 C378 1.240 . S
O389 La360 2.482 1_565 S
O389 La361 2.757 . S
O389 C378 1.289 . S
O390 La361 2.470 . S
O390 C379 1.258 1_565 S
O391 La360 2.503 . S
O391 C379 1.256 . S
H392 C364 0.930 . S
H393 C365 0.930 . S
H394 C367 0.909 1_565 S
H395 C368 0.929 1_565 S
H396 C373 0.930 . S
H397 C374 0.930 . S
H398 C376 0.900 1_545 S
H399 C377 0.929 1_545 S
La400 C402 2.928 . S
La400 O420 2.521 . S
La400 O421 2.628 . S
La400 O422 2.554 . S
La400 O423 2.757 . S
La400 O424 2.470 . S
La400 O429 2.482 . S
La400 O431 2.503 . S
La401 C411 2.928 . S
La401 O423 2.482 . S
La401 O425 2.503 . S
La401 O426 2.521 . S
La401 O427 2.628 . S
La401 O428 2.554 . S
La401 O429 2.757 . S
La401 O430 2.470 . S
C402 La400 2.928 . S
C402 C403 1.503 . S
C402 O420 1.261 . S
C402 O421 1.243 . S
C403 C402 1.503 . S
C403 C404 1.394 . S
C403 C408 1.373 . S
C404 C403 1.394 . S
C404 C405 1.380 . S
C404 H432 0.930 . S
C405 C404 1.380 . S
C405 C406 1.376 . S
C405 H433 0.930 . S
C406 C405 1.376 . S
C406 C407 1.370 . S
C407 C406 1.370 . S
C407 C408 1.396 . S
C407 H434 0.929 . S
C408 C403 1.373 . S
C408 C407 1.396 . S
C408 H435 0.929 . S
C409 O422 1.240 . S
C409 O423 1.289 . S
C410 O424 1.258 . S
C410 O425 1.256 . S
C411 La401 2.928 . S
C411 C412 1.503 . S
C411 O426 1.261 . S
C411 O427 1.243 . S
C412 C411 1.503 . S
C412 C413 1.394 . S
C412 C417 1.373 . S
C413 C412 1.394 . S
C413 C414 1.380 . S
C413 H436 0.930 . S
C414 C413 1.380 . S
C414 C415 1.376 . S
C414 H437 0.930 . S
C415 C414 1.376 . S
C415 C416 1.370 . S
C416 C415 1.370 . S
C416 C417 1.396 . S
C416 H438 0.929 . S
C417 C412 1.373 . S
C417 C416 1.396 . S
C417 H439 0.929 . S
C418 O428 1.240 . S
C418 O429 1.289 . S
C419 O430 1.258 . S
C419 O431 1.256 . S
O420 La400 2.521 . S
O420 C402 1.261 . S
O421 La400 2.628 . S
O421 C402 1.243 . S
O422 La400 2.554 . S
O422 C409 1.240 . S
O423 La400 2.757 . S
O423 La401 2.482 . S
O423 C409 1.289 . S
O424 La400 2.470 . S
O424 C410 1.258 . S
O425 La401 2.503 . S
O425 C410 1.256 . S
O426 La401 2.521 . S
O426 C411 1.261 . S
O427 La401 2.628 . S
O427 C411 1.243 . S
O428 La401 2.554 . S
O428 C418 1.240 . S
O429 La400 2.482 . S
O429 La401 2.757 . S
O429 C418 1.289 . S
O430 La401 2.470 . S
O430 C419 1.258 . S
O431 La400 2.503 . S
O431 C419 1.256 . S
H432 C404 0.930 . S
H433 C405 0.930 . S
H434 C407 0.929 . S
H435 C408 0.929 . S
H436 C413 0.930 . S
H437 C414 0.930 . S
H438 C416 0.929 . S
H439 C417 0.929 . S
La440 C442 2.928 . S
La440 O460 2.521 . S
La440 O461 2.628 . S
La440 O462 2.554 . S
La440 O463 2.757 1_655 S
La440 O464 2.470 . S
La440 O469 2.482 . S
La440 O471 2.503 1_655 S
La441 C451 2.928 . S
La441 O463 2.482 . S
La441 O465 2.503 1_455 S
La441 O466 2.521 . S
La441 O467 2.628 . S
La441 O468 2.554 . S
La441 O469 2.757 1_455 S
La441 O470 2.470 . S
C442 La440 2.928 . S
C442 C443 1.503 . S
C442 O460 1.261 . S
C442 O461 1.243 . S
C443 C442 1.503 . S
C443 C444 1.394 . S
C443 C448 1.373 . S
C444 C443 1.394 . S
C444 C445 1.380 . S
C444 H472 0.930 . S
C445 C444 1.380 . S
C445 C446 1.376 . S
C445 H473 0.930 . S
C446 C445 1.376 . S
C446 C447 1.370 . S
C447 C446 1.370 . S
C447 C448 1.396 . S
C447 H474 0.929 . S
C448 C443 1.373 . S
C448 C447 1.396 . S
C448 H475 0.929 . S
C449 O462 1.257 . S
C449 O463 1.279 1_655 S
C450 O464 1.258 . S
C450 O465 1.256 . S
C451 La441 2.928 . S
C451 C452 1.503 . S
C451 O466 1.261 . S
C451 O467 1.243 . S
C452 C451 1.503 . S
C452 C453 1.394 . S
C452 C457 1.373 . S
C453 C452 1.394 . S
C453 C454 1.380 . S
C453 H476 0.930 . S
C454 C453 1.380 . S
C454 C455 1.376 . S
C454 H477 0.930 . S
C455 C454 1.376 . S
C455 C456 1.370 . S
C456 C455 1.370 . S
C456 C457 1.396 . S
C456 H478 0.929 . S
C457 C452 1.373 . S
C457 C456 1.396 . S
C457 H479 0.929 . S
C458 O468 1.264 . S
C458 O469 1.275 1_455 S
C459 O470 1.258 . S
C459 O471 1.256 . S
O460 La440 2.521 . S
O460 C442 1.261 . S
O461 La440 2.628 . S
O461 C442 1.243 . S
O462 La440 2.554 . S
O462 C449 1.257 . S
O463 La440 2.757 1_455 S
O463 La441 2.482 . S
O463 C449 1.279 1_455 S
O464 La440 2.470 . S
O464 C450 1.258 . S
O465 La441 2.503 1_655 S
O465 C450 1.256 . S
O466 La441 2.521 . S
O466 C451 1.261 . S
O467 La441 2.628 . S
O467 C451 1.243 . S
O468 La441 2.554 . S
O468 C458 1.264 . S
O469 La440 2.482 . S
O469 La441 2.757 1_655 S
O469 C458 1.275 1_655 S
O470 La441 2.470 . S
O470 C459 1.258 . S
O471 La440 2.503 1_455 S
O471 C459 1.256 . S
H472 C444 0.930 . S
H473 C445 0.930 . S
H474 C447 0.929 . S
H475 C448 0.929 . S
H476 C453 0.930 . S
H477 C454 0.930 . S
H478 C456 0.929 . S
H479 C457 0.929 . S
H480 C486 0.930 . S
H481 C489 0.930 . S
H482 C490 0.930 . S
H483 C491 0.930 . S
H484 C494 0.930 . S
H485 C495 0.930 . S
C486 H480 0.930 . S
C486 C487 1.355 1_565 S
C486 C488 1.415 . S
C487 C486 1.355 1_545 S
C487 C489 1.419 . S
C488 C486 1.415 . S
C488 C493 1.425 1_565 S
C488 C495 1.409 . S
C489 H481 0.930 . S
C489 C487 1.419 . S
C489 C490 1.362 . S
C490 H482 0.930 . S
C490 C489 1.362 . S
C490 C493 1.409 . S
C491 H483 0.930 . S
C491 C492 1.355 1_545 S
C491 C493 1.415 . S
C492 C491 1.355 1_565 S
C492 C494 1.418 . S
C493 C488 1.425 1_545 S
C493 C490 1.409 . S
C493 C491 1.415 . S
C494 H484 0.930 . S
C494 C492 1.418 . S
C494 C495 1.362 . S
C495 H485 0.930 . S
C495 C488 1.409 . S
C495 C494 1.362 . S
H496 C502 0.930 . S
H497 C505 0.930 . S
H498 C506 0.930 . S
H499 C507 0.930 . S
H500 C510 0.930 . S
H501 C511 0.930 . S
C502 H496 0.930 . S
C502 C503 1.355 . S
C502 C504 1.415 . S
C503 C502 1.355 . S
C503 C505 1.419 . S
C504 C502 1.415 . S
C504 C509 1.425 . S
C504 C511 1.409 . S
C505 H497 0.930 . S
C505 C503 1.419 . S
C505 C506 1.362 . S
C506 H498 0.930 . S
C506 C505 1.362 . S
C506 C509 1.409 . S
C507 H499 0.930 . S
C507 C508 1.355 . S
C507 C509 1.415 . S
C508 C507 1.355 . S
C508 C510 1.419 . S
C509 C504 1.425 . S
C509 C506 1.409 . S
C509 C507 1.415 . S
C510 H500 0.930 . S
C510 C508 1.419 . S
C510 C511 1.362 . S
C511 H501 0.930 . S
C511 C504 1.409 . S
C511 C510 1.362 . S
H512 C518 0.930 . S
H513 C521 0.930 . S
H514 C522 0.930 . S
H515 C523 0.930 . S
H516 C526 0.930 . S
H517 C527 0.930 . S
C518 H512 0.930 . S
C518 C519 1.355 . S
C518 C520 1.415 . S
C519 C518 1.355 . S
C519 C521 1.419 . S
C520 C518 1.415 . S
C520 C525 1.425 . S
C520 C527 1.409 . S
C521 H513 0.930 . S
C521 C519 1.419 . S
C521 C522 1.362 . S
C522 H514 0.930 . S
C522 C521 1.362 . S
C522 C525 1.409 . S
C523 H515 0.930 . S
C523 C524 1.355 . S
C523 C525 1.415 . S
C524 C523 1.355 . S
C524 C526 1.419 . S
C525 C520 1.425 . S
C525 C522 1.409 . S
C525 C523 1.415 . S
C526 H516 0.930 . S
C526 C524 1.419 . S
C526 C527 1.362 . S
C527 H517 0.930 . S
C527 C520 1.409 . S
C527 C526 1.362 . S
H528 C534 0.930 . S
H529 C537 0.930 . S
H530 C538 0.930 . S
H531 C539 0.930 . S
H532 C542 0.930 . S
H533 C543 0.930 . S
C534 H528 0.930 . S
C534 C535 1.355 1_455 S
C534 C536 1.415 . S
C535 C534 1.355 1_655 S
C535 C537 1.419 . S
C536 C534 1.415 . S
C536 C541 1.425 1_455 S
C536 C543 1.409 . S
C537 H529 0.930 . S
C537 C535 1.419 . S
C537 C538 1.362 . S
C538 H530 0.930 . S
C538 C537 1.362 . S
C538 C541 1.409 . S
C539 H531 0.930 . S
C539 C540 1.355 1_655 S
C539 C541 1.415 . S
C540 C539 1.355 1_455 S
C540 C542 1.419 . S
C541 C536 1.425 1_655 S
C541 C538 1.409 . S
C541 C539 1.415 . S
C542 H532 0.930 . S
C542 C540 1.419 . S
C542 C543 1.362 . S
C543 H533 0.930 . S
C543 C536 1.409 . S
C543 C542 1.362 . S
H544 C550 0.930 . S
H545 C553 0.930 . S
H546 C554 0.930 . S
H547 C555 0.930 . S
H548 C558 0.930 . S
H549 C559 0.930 . S
C550 H544 0.930 . S
C550 C551 1.355 1_545 S
C550 C552 1.415 . S
C551 C550 1.355 1_565 S
C551 C553 1.419 . S
C552 C550 1.415 . S
C552 C557 1.425 1_545 S
C552 C559 1.409 1_554 S
C553 H545 0.930 . S
C553 C551 1.419 . S
C553 C554 1.362 . S
C554 H546 0.930 . S
C554 C553 1.362 . S
C554 C557 1.409 . S
C555 H547 0.930 . S
C555 C556 1.346 1_565 S
C555 C557 1.415 1_556 S
C556 C555 1.346 1_545 S
C556 C558 1.431 . S
C557 C552 1.425 1_565 S
C557 C554 1.409 . S
C557 C555 1.415 1_554 S
C558 H548 0.930 . S
C558 C556 1.431 . S
C558 C559 1.362 . S
C559 H549 0.930 . S
C559 C552 1.409 1_556 S
C559 C558 1.362 . S
H560 C566 0.930 . S
H561 C569 0.930 . S
H562 C570 0.930 . S
H563 C571 0.930 . S
H564 C574 0.930 . S
H565 C575 0.930 1_554 S
C566 H560 0.930 . S
C566 C567 1.355 . S
C566 C568 1.415 . S
C567 C566 1.355 . S
C567 C569 1.419 . S
C568 C566 1.415 . S
C568 C573 1.425 . S
C568 C575 1.409 1_554 S
C569 H561 0.930 . S
C569 C567 1.419 . S
C569 C570 1.362 . S
C570 H562 0.930 . S
C570 C569 1.362 . S
C570 C573 1.409 . S
C571 H563 0.930 . S
C571 C572 1.355 . S
C571 C573 1.415 1_556 S
C572 C571 1.355 . S
C572 C574 1.419 . S
C573 C568 1.425 . S
C573 C570 1.409 . S
C573 C571 1.415 1_554 S
C574 H564 0.930 . S
C574 C572 1.419 . S
C574 C575 1.362 . S
C575 H565 0.930 1_556 S
C575 C568 1.409 1_556 S
C575 C574 1.362 . S
H576 C582 0.930 . S
H577 C585 0.930 . S
H578 C586 0.930 . S
H579 C587 0.930 . S
H580 C590 0.930 . S
H581 C591 0.930 . S
C582 H576 0.930 . S
C582 C583 1.355 . S
C582 C584 1.415 . S
C583 C582 1.355 . S
C583 C585 1.419 . S
C584 C582 1.415 . S
C584 C589 1.425 . S
C584 C591 1.409 1_554 S
C585 H577 0.930 . S
C585 C583 1.419 . S
C585 C586 1.362 . S
C586 H578 0.930 . S
C586 C585 1.362 . S
C586 C589 1.409 . S
C587 H579 0.930 . S
C587 C588 1.355 . S
C587 C589 1.415 1_556 S
C588 C587 1.355 . S
C588 C590 1.419 . S
C589 C584 1.425 . S
C589 C586 1.409 . S
C589 C587 1.415 1_554 S
C590 H580 0.930 . S
C590 C588 1.419 . S
C590 C591 1.362 . S
C591 H581 0.930 . S
C591 C584 1.409 1_556 S
C591 C590 1.362 . S
H592 C598 0.930 . S
H593 C601 0.930 . S
H594 C602 0.930 . S
H595 C603 0.930 . S
H596 C606 0.930 . S
H597 C607 0.930 . S
C598 H592 0.930 . S
C598 C599 1.355 1_655 S
C598 C600 1.415 . S
C599 C598 1.355 1_455 S
C599 C601 1.419 . S
C600 C598 1.415 . S
C600 C605 1.425 1_655 S
C600 C607 1.409 1_554 S
C601 H593 0.930 . S
C601 C599 1.419 . S
C601 C602 1.362 . S
C602 H594 0.930 . S
C602 C601 1.362 . S
C602 C605 1.409 . S
C603 H595 0.930 . S
C603 C604 1.355 1_455 S
C603 C605 1.415 1_556 S
C604 C603 1.355 1_655 S
C604 C606 1.419 . S
C605 C600 1.425 1_455 S
C605 C602 1.409 . S
C605 C603 1.415 1_554 S
C606 H596 0.930 . S
C606 C604 1.419 . S
C606 C607 1.362 . S
C607 H597 0.930 . S
C607 C600 1.409 1_556 S
C607 C606 1.362 . S
H608 C614 0.930 . S
H609 C617 0.930 . S
H610 C618 0.930 . S
H611 C619 0.930 . S
H612 C622 0.930 . S
H613 C623 0.930 . S
C614 H608 0.930 . S
C614 C615 1.355 1_655 S
C614 C616 1.415 . S
C615 C614 1.355 1_455 S
C615 C617 1.419 . S
C616 C614 1.415 . S
C616 C621 1.425 . S
C616 C623 1.409 . S
C617 H609 0.930 . S
C617 C615 1.419 . S
C617 C618 1.362 1_455 S
C618 H610 0.930 . S
C618 C617 1.362 1_655 S
C618 C621 1.409 . S
C619 H611 0.930 . S
C619 C620 1.355 . S
C619 C621 1.415 . S
C620 C619 1.355 . S
C620 C622 1.419 . S
C621 C616 1.425 . S
C621 C618 1.409 . S
C621 C619 1.415 . S
C622 H612 0.930 . S
C622 C620 1.419 . S
C622 C623 1.362 . S
C623 H613 0.930 . S
C623 C616 1.409 . S
C623 C622 1.362 . S
H624 C630 0.930 . S
H625 C633 0.930 . S
H626 C634 0.930 . S
H627 C635 0.930 . S
H628 C638 0.930 . S
H629 C639 0.930 . S
C630 H624 0.930 . S
C630 C631 1.359 . S
C630 C632 1.415 1_545 S
C631 C630 1.359 . S
C631 C633 1.408 1_545 S
C632 C630 1.415 1_565 S
C632 C637 1.425 . S
C632 C639 1.409 1_565 S
C633 H625 0.930 . S
C633 C631 1.408 1_565 S
C633 C634 1.362 . S
C634 H626 0.930 . S
C634 C633 1.362 . S
C634 C637 1.409 . S
C635 H627 0.930 . S
C635 C636 1.355 . S
C635 C637 1.415 . S
C636 C635 1.355 . S
C636 C638 1.419 . S
C637 C632 1.425 . S
C637 C634 1.409 . S
C637 C635 1.415 . S
C638 H628 0.930 . S
C638 C636 1.419 . S
C638 C639 1.362 1_565 S
C639 H629 0.930 . S
C639 C632 1.409 1_545 S
C639 C638 1.362 1_545 S
H640 C646 0.930 . S
H641 C649 0.930 . S
H642 C650 0.930 . S
H643 C651 0.930 . S
H644 C654 0.930 . S
H645 C655 0.930 . S
C646 H640 0.930 . S
C646 C647 1.355 . S
C646 C648 1.415 . S
C647 C646 1.355 . S
C647 C649 1.419 . S
C648 C646 1.415 . S
C648 C653 1.425 . S
C648 C655 1.409 . S
C649 H641 0.930 . S
C649 C647 1.419 . S
C649 C650 1.362 . S
C650 H642 0.930 . S
C650 C649 1.362 . S
C650 C653 1.409 . S
C651 H643 0.930 . S
C651 C652 1.355 . S
C651 C653 1.415 . S
C652 C651 1.355 . S
C652 C654 1.419 . S
C653 C648 1.425 . S
C653 C650 1.409 . S
C653 C651 1.415 . S
C654 H644 0.930 . S
C654 C652 1.419 . S
C654 C655 1.362 . S
C655 H645 0.930 . S
C655 C648 1.409 . S
C655 C654 1.362 . S
H656 C662 0.930 . S
H657 C665 0.930 . S
H658 C666 0.930 . S
H659 C667 0.930 . S
H660 C670 0.930 . S
H661 C671 0.930 . S
C662 H656 0.930 . S
C662 C663 1.355 . S
C662 C664 1.415 . S
C663 C662 1.355 . S
C663 C665 1.419 . S
C664 C662 1.415 . S
C664 C669 1.425 . S
C664 C671 1.409 . S
C665 H657 0.930 . S
C665 C663 1.419 . S
C665 C666 1.362 . S
C666 H658 0.930 . S
C666 C665 1.362 . S
C666 C669 1.409 . S
C667 H659 0.930 . S
C667 C668 1.355 . S
C667 C669 1.415 . S
C668 C667 1.355 . S
C668 C670 1.419 . S
C669 C664 1.425 . S
C669 C666 1.409 . S
C669 C667 1.415 . S
C670 H660 0.930 . S
C670 C668 1.419 . S
C670 C671 1.362 . S
C671 H661 0.930 . S
C671 C664 1.409 . S
C671 C670 1.362 . S
H672 C678 0.930 . S
H673 C681 0.930 . S
H674 C682 0.930 . S
H675 C683 0.930 1_554 S
H676 C686 0.930 . S
H677 C687 0.930 . S
C678 H672 0.930 . S
C678 C679 1.357 . S
C678 C680 1.415 1_655 S
C679 C678 1.357 . S
C679 C681 1.413 1_655 S
C680 C678 1.415 1_455 S
C680 C685 1.425 . S
C680 C687 1.409 1_454 S
C681 H673 0.930 . S
C681 C679 1.413 1_455 S
C681 C682 1.362 . S
C682 H674 0.930 . S
C682 C681 1.362 . S
C682 C685 1.409 . S
C683 H675 0.930 1_556 S
C683 C684 1.355 . S
C683 C685 1.415 1_556 S
C684 C683 1.355 . S
C684 C686 1.419 . S
C685 C680 1.425 . S
C685 C682 1.409 . S
C685 C683 1.415 1_554 S
C686 H676 0.930 . S
C686 C684 1.419 . S
C686 C687 1.362 1_455 S
C687 H677 0.930 . S
C687 C680 1.409 1_656 S
C687 C686 1.362 1_655 S
H688 C694 0.930 1_556 S
H689 C697 0.930 . S
H690 C698 0.930 1_565 S
H691 C699 0.930 . S
H692 C702 0.930 . S
H693 C703 0.930 . S
C694 H688 0.930 1_554 S
C694 C695 1.355 1_545 S
C694 C696 1.415 1_554 S
C695 C694 1.355 1_565 S
C695 C697 1.419 . S
C696 C694 1.415 1_556 S
C696 C701 1.425 1_556 S
C696 C703 1.409 . S
C697 H689 0.930 . S
C697 C695 1.419 . S
C697 C698 1.362 1_565 S
C698 H690 0.930 1_545 S
C698 C697 1.362 1_545 S
C698 C701 1.409 . S
C699 H691 0.930 . S
C699 C700 1.355 1_554 S
C699 C701 1.415 . S
C700 C699 1.355 1_556 S
C700 C702 1.419 . S
C701 C696 1.425 1_554 S
C701 C698 1.409 . S
C701 C699 1.415 . S
C702 H692 0.930 . S
C702 C700 1.419 . S
C702 C703 1.362 . S
C703 H693 0.930 . S
C703 C696 1.409 . S
C703 C702 1.362 . S
H704 C710 0.930 . S
H705 C713 0.930 . S
H706 C714 0.930 . S
H707 C715 0.930 . S
H708 C718 0.930 . S
H709 C719 0.930 . S
C710 H704 0.930 . S
C710 C711 1.355 . S
C710 C712 1.415 . S
C711 C710 1.355 . S
C711 C713 1.419 . S
C712 C710 1.415 . S
C712 C717 1.425 . S
C712 C719 1.409 1_554 S
C713 H705 0.930 . S
C713 C711 1.419 . S
C713 C714 1.362 . S
C714 H706 0.930 . S
C714 C713 1.362 . S
C714 C717 1.409 . S
C715 H707 0.930 . S
C715 C716 1.355 1_554 S
C715 C717 1.415 . S
C716 C715 1.355 1_556 S
C716 C718 1.419 . S
C717 C712 1.425 . S
C717 C714 1.409 . S
C717 C715 1.415 . S
C718 H708 0.930 . S
C718 C716 1.419 . S
C718 C719 1.362 . S
C719 H709 0.930 . S
C719 C712 1.409 1_556 S
C719 C718 1.362 . S
H720 C726 0.930 . S
H721 C729 0.930 . S
H722 C730 0.930 . S
H723 C731 0.930 . S
H724 C734 0.930 . S
H725 C735 0.930 . S
C726 H720 0.930 . S
C726 C727 1.355 . S
C726 C728 1.415 . S
C727 C726 1.355 . S
C727 C729 1.419 . S
C728 C726 1.415 . S
C728 C733 1.425 . S
C728 C735 1.409 1_554 S
C729 H721 0.930 . S
C729 C727 1.419 . S
C729 C730 1.362 . S
C730 H722 0.930 . S
C730 C729 1.362 . S
C730 C733 1.409 . S
C731 H723 0.930 . S
C731 C732 1.355 . S
C731 C733 1.415 1_556 S
C732 C731 1.355 . S
C732 C734 1.419 . S
C733 C728 1.425 . S
C733 C730 1.409 . S
C733 C731 1.415 1_554 S
C734 H724 0.930 . S
C734 C732 1.419 . S
C734 C735 1.362 . S
C735 H725 0.930 . S
C735 C728 1.409 1_556 S
C735 C734 1.362 . S
H736 C742 0.930 . S
H737 C745 0.930 . S
H738 C746 0.930 . S
H739 C747 0.930 . S
H740 C750 0.930 1_655 S
H741 C751 0.930 . S
C742 H736 0.930 . S
C742 C743 1.355 1_655 S
C742 C744 1.415 1_655 S
C743 C742 1.355 1_455 S
C743 C745 1.419 . S
C744 C742 1.415 1_455 S
C744 C749 1.425 . S
C744 C751 1.409 1_455 S
C745 H737 0.930 . S
C745 C743 1.419 . S
C745 C746 1.362 . S
C746 H738 0.930 . S
C746 C745 1.362 . S
C746 C749 1.409 . S
C747 H739 0.930 . S
C747 C748 1.355 . S
C747 C749 1.415 . S
C748 C747 1.355 . S
C748 C750 1.419 . S
C749 C744 1.425 . S
C749 C746 1.409 . S
C749 C747 1.415 . S
C750 H740 0.930 1_455 S
C750 C748 1.419 . S
C750 C751 1.362 1_455 S
C751 H741 0.930 . S
C751 C744 1.409 1_655 S
C751 C750 1.362 1_655 S
H752 C758 0.930 . S
H753 C761 0.930 . S
H754 C762 0.930 . S
H755 C763 0.933 1_565 S
H756 C766 0.930 . S
H757 C767 0.930 . S
C758 H752 0.930 . S
C758 C759 1.355 . S
C758 C760 1.415 . S
C759 C758 1.355 . S
C759 C761 1.419 1_545 S
C760 C758 1.415 . S
C760 C765 1.425 . S
C760 C767 1.409 . S
C761 H753 0.930 . S
C761 C759 1.419 1_565 S
C761 C762 1.362 . S
C762 H754 0.930 . S
C762 C761 1.362 . S
C762 C765 1.409 1_565 S
C763 H755 0.933 1_545 S
C763 C764 1.352 . S
C763 C765 1.415 . S
C764 C763 1.352 . S
C764 C766 1.419 . S
C765 C760 1.425 . S
C765 C762 1.409 1_545 S
C765 C763 1.415 . S
C766 H756 0.930 . S
C766 C764 1.419 . S
C766 C767 1.362 . S
C767 H757 0.930 . S
C767 C760 1.409 . S
C767 C766 1.362 . S
H768 C774 0.930 . S
H769 C777 0.930 . S
H770 C778 0.930 . S
H771 C779 0.930 . S
H772 C782 0.930 . S
H773 C783 0.930 . S
C774 H768 0.930 . S
C774 C775 1.355 . S
C774 C776 1.415 . S
C775 C774 1.355 . S
C775 C777 1.419 . S
C776 C774 1.415 . S
C776 C781 1.425 . S
C776 C783 1.409 . S
C777 H769 0.930 . S
C777 C775 1.419 . S
C777 C778 1.362 . S
C778 H770 0.930 . S
C778 C777 1.362 . S
C778 C781 1.409 . S
C779 H771 0.930 . S
C779 C780 1.355 . S
C779 C781 1.415 . S
C780 C779 1.355 . S
C780 C782 1.419 . S
C781 C776 1.425 . S
C781 C778 1.409 . S
C781 C779 1.415 . S
C782 H772 0.930 . S
C782 C780 1.419 . S
C782 C783 1.362 . S
C783 H773 0.930 . S
C783 C776 1.409 . S
C783 C782 1.362 . S
H784 C790 0.930 . S
H785 C793 0.930 . S
H786 C794 0.930 . S
H787 C795 0.930 . S
H788 C798 0.930 . S
H789 C799 0.930 . S
C790 H784 0.930 . S
C790 C791 1.355 . S
C790 C792 1.415 . S
C791 C790 1.355 . S
C791 C793 1.419 . S
C792 C790 1.415 . S
C792 C797 1.425 . S
C792 C799 1.409 . S
C793 H785 0.930 . S
C793 C791 1.419 . S
C793 C794 1.362 . S
C794 H786 0.930 . S
C794 C793 1.362 . S
C794 C797 1.409 . S
C795 H787 0.930 . S
C795 C796 1.355 . S
C795 C797 1.415 . S
C796 C795 1.355 . S
C796 C798 1.419 . S
C797 C792 1.425 . S
C797 C794 1.409 . S
C797 C795 1.415 . S
C798 H788 0.930 . S
C798 C796 1.419 . S
C798 C799 1.362 . S
C799 H789 0.930 . S
C799 C792 1.409 . S
C799 C798 1.362 . S
H800 C806 0.930 . S
H801 C809 0.930 . S
H802 C810 0.930 . S
H803 C811 0.930 . S
H804 C814 0.930 . S
H805 C815 0.930 . S
C806 H800 0.930 . S
C806 C807 1.355 . S
C806 C808 1.415 . S
C807 C806 1.355 . S
C807 C809 1.419 1_655 S
C808 C806 1.415 . S
C808 C813 1.425 1_655 S
C808 C815 1.409 . S
C809 H801 0.930 . S
C809 C807 1.419 1_455 S
C809 C810 1.362 . S
C810 H802 0.930 . S
C810 C809 1.362 . S
C810 C813 1.409 . S
C811 H803 0.930 . S
C811 C812 1.355 1_455 S
C811 C813 1.415 . S
C812 C811 1.355 1_655 S
C812 C814 1.419 . S
C813 C808 1.425 1_455 S
C813 C810 1.409 . S
C813 C811 1.415 . S
C814 H804 0.930 . S
C814 C812 1.419 . S
C814 C815 1.362 . S
C815 H805 0.930 . S
C815 C808 1.409 . S
C815 C814 1.362 . S
H816 C822 0.923 1_545 S
H817 C825 0.930 . S
H818 C826 0.930 . S
H819 C827 0.930 . S
H820 C830 0.930 . S
H821 C831 0.930 1_545 S
C822 H816 0.923 1_565 S
C822 C823 1.358 . S
C822 C824 1.419 . S
C823 C822 1.358 . S
C823 C825 1.419 . S
C824 C822 1.419 . S
C824 C829 1.425 . S
C824 C831 1.409 . S
C825 H817 0.930 . S
C825 C823 1.419 . S
C825 C826 1.362 . S
C826 H818 0.930 . S
C826 C825 1.362 . S
C826 C829 1.409 . S
C827 H819 0.930 . S
C827 C828 1.355 . S
C827 C829 1.415 . S
C828 C827 1.355 . S
C828 C830 1.419 . S
C829 C824 1.425 . S
C829 C826 1.409 . S
C829 C827 1.415 . S
C830 H820 0.930 . S
C830 C828 1.419 . S
C830 C831 1.362 . S
C831 H821 0.930 1_565 S
C831 C824 1.409 . S
C831 C830 1.362 . S
H832 C838 0.930 . S
H833 C841 0.930 . S
H834 C842 0.930 . S
H835 C843 0.930 . S
H836 C846 0.930 . S
H837 C847 0.930 . S
C838 H832 0.930 . S
C838 C839 1.355 . S
C838 C840 1.415 . S
C839 C838 1.355 . S
C839 C841 1.419 . S
C840 C838 1.415 . S
C840 C845 1.425 . S
C840 C847 1.409 . S
C841 H833 0.930 . S
C841 C839 1.419 . S
C841 C842 1.362 . S
C842 H834 0.930 . S
C842 C841 1.362 . S
C842 C845 1.409 . S
C843 H835 0.930 . S
C843 C844 1.355 . S
C843 C845 1.415 . S
C844 C843 1.355 . S
C844 C846 1.419 . S
C845 C840 1.425 . S
C845 C842 1.409 . S
C845 C843 1.415 . S
C846 H836 0.930 . S
C846 C844 1.419 . S
C846 C847 1.362 . S
C847 H837 0.930 . S
C847 C840 1.409 . S
C847 C846 1.362 . S
H848 C854 0.930 . S
H849 C857 0.930 . S
H850 C858 0.930 . S
H851 C859 0.930 . S
H852 C862 0.930 . S
H853 C863 0.930 . S
C854 H848 0.930 . S
C854 C855 1.355 . S
C854 C856 1.415 . S
C855 C854 1.355 . S
C855 C857 1.419 . S
C856 C854 1.415 . S
C856 C861 1.425 . S
C856 C863 1.409 . S
C857 H849 0.930 . S
C857 C855 1.419 . S
C857 C858 1.362 . S
C858 H850 0.930 . S
C858 C857 1.362 . S
C858 C861 1.409 . S
C859 H851 0.930 . S
C859 C860 1.355 . S
C859 C861 1.415 . S
C860 C859 1.355 . S
C860 C862 1.419 . S
C861 C856 1.425 . S
C861 C858 1.409 . S
C861 C859 1.415 . S
C862 H852 0.930 . S
C862 C860 1.419 . S
C862 C863 1.362 . S
C863 H853 0.930 . S
C863 C856 1.409 . S
C863 C862 1.362 . S
C487 C255 2.374 . S
C492 C329 2.652 . S
C508 C369 2.670 . S
C503 C295 2.423 . S
C524 C409 2.664 . S
C519 C175 2.381 . S
C540 C449 2.677 1_455 S
C535 C215 2.435 1_655 S
C556 C338 2.668 . S
C551 C95 2.436 1_565 S
C567 C135 2.401 . S
C572 C378 2.665 . S
C583 C15 2.434 . S
C588 C418 2.672 . S
C599 C55 2.435 . S
C604 C458 2.677 1_655 S
C620 C335 0.610 . S
C615 C221 0.637 . S
C636 C375 0.479 . S
C631 C261 0.494 . S
C652 C415 0.659 . S
C647 C301 0.542 . S
C663 C181 0.582 . S
C668 C455 0.511 . S
C679 C61 0.562 1_655 S
C684 C326 0.497 . S
C700 C366 0.580 . S
C695 C101 0.564 1_565 S
C716 C406 0.471 . S
C711 C141 0.523 . S
C727 C21 0.564 . S
C732 C446 0.497 . S
C743 C202 3.313 . S
C748 C339 3.734 . S
C759 C242 3.318 . S
C764 C379 3.739 . S
C780 C419 3.736 . S
C775 C282 3.350 . S
C796 C459 3.743 . S
C791 C162 3.354 . S
C807 C42 3.354 1_655 S
C812 C330 3.763 . S
C828 C370 3.739 . S
C823 C82 3.375 1_565 S
C844 C410 3.720 . S
C839 C122 3.367 . S
C855 C2 3.390 . S
C860 C450 3.749 . S
