# Generated by pormake.
# Topology anh, (6,3)-cn, num edge types: 1
# Building blocks:
#     Node 0, Type 0, BuildingBlock: CUWYAW_clean_sbu_0, # of connection points: 6
#     Node 1, Type 0, BuildingBlock: CUWYAW_clean_sbu_0, # of connection points: 6
#     Node 2, Type 0, BuildingBlock: CUWYAW_clean_sbu_0, # of connection points: 6
#     Node 3, Type 1, BuildingBlock: OLANEW_clean_sbu_2, # of connection points: 3
#     Node 4, Type 1, BuildingBlock: OLANEW_clean_sbu_2, # of connection points: 3
#     Node 5, Type 1, BuildingBlock: OLANEW_clean_sbu_2, # of connection points: 3
#     Node 6, Type 1, BuildingBlock: OLANEW_clean_sbu_2, # of connection points: 3
#     Node 7, Type 1, BuildingBlock: OLANEW_clean_sbu_2, # of connection points: 3
#     Node 8, Type 1, BuildingBlock: OLANEW_clean_sbu_2, # of connection points: 3
#     Edge 9, Type (0, 1), BuildingBlock: KIFKEQ_clean_linker_1, # of connection points: 2
#     Edge 10, Type (0, 1), BuildingBlock: KIFKEQ_clean_linker_1, # of connection points: 2
#     Edge 11, Type (0, 1), BuildingBlock: KIFKEQ_clean_linker_1, # of connection points: 2
#     Edge 12, Type (0, 1), BuildingBlock: KIFKEQ_clean_linker_1, # of connection points: 2
#     Edge 13, Type (0, 1), BuildingBlock: KIFKEQ_clean_linker_1, # of connection points: 2
#     Edge 14, Type (0, 1), BuildingBlock: KIFKEQ_clean_linker_1, # of connection points: 2
#     Edge 15, Type (0, 1), BuildingBlock: KIFKEQ_clean_linker_1, # of connection points: 2
#     Edge 16, Type (0, 1), BuildingBlock: KIFKEQ_clean_linker_1, # of connection points: 2
#     Edge 17, Type (0, 1), BuildingBlock: KIFKEQ_clean_linker_1, # of connection points: 2
#     Edge 18, Type (0, 1), BuildingBlock: KIFKEQ_clean_linker_1, # of connection points: 2
#     Edge 19, Type (0, 1), BuildingBlock: KIFKEQ_clean_linker_1, # of connection points: 2
#     Edge 20, Type (0, 1), BuildingBlock: KIFKEQ_clean_linker_1, # of connection points: 2
#     Edge 21, Type (0, 1), BuildingBlock: KIFKEQ_clean_linker_1, # of connection points: 2
#     Edge 22, Type (0, 1), BuildingBlock: KIFKEQ_clean_linker_1, # of connection points: 2
#     Edge 23, Type (0, 1), BuildingBlock: KIFKEQ_clean_linker_1, # of connection points: 2
#     Edge 24, Type (0, 1), BuildingBlock: KIFKEQ_clean_linker_1, # of connection points: 2
#     Edge 25, Type (0, 1), BuildingBlock: KIFKEQ_clean_linker_1, # of connection points: 2
#     Edge 26, Type (0, 1), BuildingBlock: KIFKEQ_clean_linker_1, # of connection points: 2
# Relax obj value: 0.224
# Max RMSD: 0.127
# Mean RMSD: 0.112
data_MOF--net-anh--node1-CUWYAW_clean_sbu_0--node2-OLANEW_clean_sbu_2--edge1-KIFKEQ_clean_linker_1
_symmetry_space_group_name_H-M    P1
_symmetry_Int_Tables_number       1
_symmetry_cell_setting            triclinic
loop_
_symmetry_equiv_pos_as_xyz
'x, y, z'
_cell_length_a     36.782318
_cell_length_b     36.651743
_cell_length_c     50.02414
_cell_angle_alpha  90.776083
_cell_angle_beta   87.493261
_cell_angle_gamma 120.01631
loop_
_atom_site_label
_atom_site_type_symbol
_atom_site_fract_x
_atom_site_fract_y
_atom_site_fract_z
_atom_type_partial_charge
C0 C 0.99621 0.40665 0.15587 0.0
Eu1 Eu 0.03903 0.47834 0.17924 0.0
C2 C 0.95165 0.37413 0.16005 0.0
C3 C 0.93454 0.35969 0.18598 0.0
C4 C 0.89111 0.33824 0.19089 0.0
C5 C 0.86397 0.33124 0.17006 0.0
C6 C 0.88096 0.34245 0.14376 0.0
C7 C 0.9245 0.3637 0.13881 0.0
C8 C 0.03782 0.49432 0.23296 0.0
C9 C 0.98537 0.52829 0.18556 0.0
C10 C 0.12957 0.65339 0.20999 0.0
Eu11 Eu 0.08571 0.57798 0.19091 0.0
C12 C 0.17242 0.68185 0.21839 0.0
C13 C 0.20607 0.67644 0.20938 0.0
C14 C 0.24725 0.70634 0.21541 0.0
C15 C 0.25533 0.74213 0.23049 0.0
C16 C 0.22118 0.74645 0.24021 0.0
C17 C 0.18012 0.71653 0.23422 0.0
C18 C 0.06744 0.55343 0.13986 0.0
C19 C 0.14102 0.5297 0.18107 0.0
O20 O 1.00193 0.44222 0.14602 0.0
O21 O 1.02142 0.41223 0.17532 0.0
O22 O 1.0204 0.45652 0.2233 0.0
O23 O 0.05359 0.51958 0.21365 0.0
O24 O 0.98813 0.49584 0.17583 0.0
O25 O 1.01765 0.56145 0.19618 0.0
O26 O 0.10613 0.62017 0.22513 0.0
O27 O 0.12565 0.64525 0.18437 0.0
O28 O 0.06676 0.58607 0.14982 0.0
O29 O 0.0798 0.53729 0.15672 0.0
O30 O 0.13971 0.56365 0.18961 0.0
O31 O 0.10687 0.49431 0.17442 0.0
H32 H 0.95459 0.36728 0.20281 0.0
H33 H 0.87885 0.32916 0.21128 0.0
H34 H 0.86088 0.33762 0.1273 0.0
H35 H 0.93702 0.37477 0.11867 0.0
H36 H 0.20059 0.64979 0.19708 0.0
H37 H 0.27277 0.70186 0.20785 0.0
H38 H 0.22621 0.77392 0.25147 0.0
H39 H 0.15447 0.72123 0.24122 0.0
C40 C 0.48183 0.1349 0.50432 0.0
Eu41 Eu 0.50977 0.08509 0.51705 0.0
C42 C 0.50356 0.1803 0.49783 0.0
C43 C 0.49506 0.20707 0.51381 0.0
C44 C 0.52034 0.25074 0.51124 0.0
C45 C 0.5545 0.26853 0.49244 0.0
C46 C 0.56117 0.24159 0.47521 0.0
C47 C 0.53611 0.1979 0.47796 0.0
C48 C 0.51865 0.06648 0.56767 0.0
C49 C 0.61335 0.14086 0.51357 0.0
C50 C 0.59196 0.99626 0.53762 0.0
Eu51 Eu 0.56089 0.04187 0.52166 0.0
C52 C 0.57745 0.95156 0.54214 0.0
C53 C 0.54019 0.91997 0.53136 0.0
C54 C 0.52735 0.87747 0.53557 0.0
C55 C 0.55159 0.86608 0.55066 0.0
C56 C 0.58866 0.89806 0.56161 0.0
C57 C 0.60138 0.9404 0.55741 0.0
C58 C 0.55217 0.06066 0.4712 0.0
C59 C 0.45755 0.98474 0.5171 0.0
O60 O 0.48703 0.11056 0.48708 0.0
O61 O 0.48443 0.12564 0.52907 0.0
O62 O 0.48383 0.06187 0.55904 0.0
O63 O 0.54737 0.08134 0.54948 0.0
O64 O 0.5772 0.13762 0.50736 0.0
O65 O 0.61473 0.10849 0.52366 0.0
O66 O 0.57587 1.01309 0.55402 0.0
O67 O 0.59446 1.00807 0.51272 0.0
O68 O 0.58649 0.06297 0.47901 0.0
O69 O 0.5242 0.04644 0.48968 0.0
O70 O 0.4928 0.9865 0.52423 0.0
O71 O 0.45678 1.01923 0.51076 0.0
H72 H 0.47021 0.1942 0.5293 0.0
H73 H 0.5145 0.27038 0.52508 0.0
H74 H 0.58674 0.25421 0.46022 0.0
H75 H 0.54347 0.17805 0.46529 0.0
H76 H 0.52131 0.92817 0.51953 0.0
H77 H 0.49854 0.8536 0.52702 0.0
H78 H 0.6085 0.89044 0.57288 0.0
H79 H 0.63024 0.96446 0.56583 0.0
C80 C 0.6951 0.5902 0.84768 0.0
Eu81 Eu 0.61485 0.5623 0.85291 0.0
C82 C 0.7192 0.57164 0.83567 0.0
C83 C 0.75834 0.58242 0.84548 0.0
C84 C 0.77801 0.55949 0.83779 0.0
C85 C 0.75885 0.52545 0.82002 0.0
C86 C 0.72077 0.5165 0.80903 0.0
C87 C 0.70092 0.53903 0.81705 0.0
C88 C 0.57518 0.55673 0.90132 0.0
C89 C 0.56717 0.45968 0.8484 0.0
C90 C 0.43991 0.46931 0.86247 0.0
Eu91 Eu 0.52041 0.51441 0.85246 0.0
C92 C 0.40135 0.46995 0.85709 0.0
C93 C 0.36415 0.43165 0.85397 0.0
C94 C 0.3266 0.43109 0.84992 0.0
C95 C 0.32556 0.4689 0.84906 0.0
C96 C 0.36327 0.50741 0.85144 0.0
C97 C 0.40094 0.50793 0.85537 0.0
C98 C 0.55909 0.5422 0.80355 0.0
C99 C 0.56848 0.61537 0.84674 0.0
O100 O 0.67494 0.60063 0.83124 0.0
O101 O 0.67233 0.57052 0.86913 0.0
O102 O 0.60766 0.59064 0.89191 0.0
O103 O 0.56484 0.52736 0.88468 0.0
O104 O 0.603 0.49576 0.84588 0.0
O105 O 0.53121 0.45884 0.85335 0.0
O106 O 0.46576 0.49798 0.87881 0.0
O107 O 0.45913 0.46301 0.84183 0.0
O108 O 0.52361 0.53998 0.81046 0.0
O109 O 0.57036 0.52727 0.82179 0.0
O110 O 0.53475 0.58209 0.85742 0.0
O111 O 0.60245 0.61348 0.83926 0.0
H112 H 0.77263 0.60708 0.86017 0.0
H113 H 0.80694 0.56691 0.84706 0.0
H114 H 0.70535 0.49089 0.79509 0.0
H115 H 0.67028 0.5294 0.80968 0.0
H116 H 0.36405 0.40208 0.85498 0.0
H117 H 0.29829 0.40096 0.84765 0.0
H118 H 0.36347 0.53704 0.85107 0.0
H119 H 0.42952 0.53789 0.85751 0.0
O120 O 0.50537 0.20692 0.30068 0.0
Cd121 Cd 0.49504 0.22862 0.25703 0.0
O122 O 0.52057 0.16482 0.27759 0.0
Cd123 Cd 0.52942 0.11035 0.27284 0.0
O124 O 0.50851 0.04364 0.26823 0.0
C125 C 0.49862 0.02784 0.24511 0.0
O126 O 0.50466 0.05296 0.22482 0.0
C127 C 0.51652 0.17921 0.30012 0.0
C128 C 0.56796 0.25189 0.22591 0.0
O129 O 0.56305 0.27917 0.23946 0.0
O130 O 0.53755 0.21372 0.22622 0.0
O131 O 0.75376 0.61722 0.62423 0.0
Cd132 Cd 0.79325 0.63211 0.58142 0.0
O133 O 0.69942 0.60726 0.60214 0.0
Cd134 Cd 0.6344 0.59214 0.59895 0.0
O135 O 0.58638 0.60872 0.59247 0.0
C136 C 0.58291 0.61815 0.56875 0.0
O137 O 0.60548 0.61364 0.54929 0.0
C138 C 0.71563 0.60828 0.62425 0.0
C139 C 0.75268 0.56118 0.54966 0.0
O140 O 0.78143 0.56576 0.56522 0.0
O141 O 0.74397 0.59088 0.54852 0.0
O142 O 0.98881 0.47175 0.9349 0.0
Cd143 Cd 0.97952 0.4612 0.88678 0.0
O144 O 0.97719 0.40878 0.94643 0.0
Cd145 Cd 0.95651 0.38429 0.90665 0.0
O146 O 0.92397 0.38161 0.87078 0.0
C147 C 0.88411 0.3622 0.87243 0.0
O148 O 0.86484 0.34018 0.89423 0.0
C149 C 0.98742 0.44642 0.95264 0.0
C150 C 0.05124 0.46423 0.86368 0.0
O151 O 0.04964 0.4981 0.86726 0.0
O152 O 1.01851 0.4291 0.87016 0.0
O153 O 0.0947 0.59581 0.43605 0.0
Cd154 Cd 0.12198 0.6221 0.48113 0.0
O155 O 0.03804 0.53693 0.44947 0.0
Cd156 Cd 0.97716 0.47608 0.44922 0.0
O157 O 0.91812 0.4175 0.46225 0.0
C158 C 0.88316 0.40436 0.4512 0.0
O159 O 0.88171 0.42574 0.4308 0.0
C160 C 0.06157 0.56143 0.43046 0.0
C161 C 0.19576 0.70178 0.48557 0.0
O162 O 0.19784 0.66826 0.48143 0.0
O163 O 0.15914 0.69803 0.48667 0.0
O164 O 0.55491 0.98826 0.76681 0.0
Cd165 Cd 0.56188 0.96284 0.81107 0.0
O166 O 0.5662 0.05074 0.77975 0.0
Cd167 Cd 0.57109 0.11397 0.77946 0.0
O168 O 0.57857 0.17632 0.79121 0.0
C169 C 0.54897 0.18456 0.78927 0.0
O170 O 0.51346 0.1557 0.77943 0.0
C171 C 0.55807 1.02371 0.76123 0.0
C172 C 0.56297 0.88618 0.814 0.0
O173 O 0.52826 0.88653 0.81463 0.0
O174 O 0.59706 0.92169 0.81106 0.0
O175 O 0.61139 0.53182 0.10531 0.0
Cd176 Cd 0.64086 0.53651 0.15 0.0
O177 O 0.55617 0.53686 0.11894 0.0
Cd178 Cd 0.49546 0.5368 0.11824 0.0
O179 O 0.43265 0.52996 0.12875 0.0
C180 C 0.42684 0.5614 0.13104 0.0
O181 O 0.45892 0.59941 0.12644 0.0
C182 C 0.5784 0.53316 0.09991 0.0
C183 C 0.71607 0.53339 0.15408 0.0
O184 O 0.67993 0.49979 0.15536 0.0
O185 O 0.71698 0.56828 0.14987 0.0
H186 H 0.1583 0.47275 0.15591 0.0
H187 H 0.21888 0.59332 0.1952 0.0
H188 H 0.22653 0.47983 0.14467 0.0
H189 H 0.28725 0.59997 0.18452 0.0
H190 H 0.40359 0.62161 0.13443 0.0
H191 H 0.33533 0.61304 0.14777 0.0
H192 H 0.28635 0.47988 0.16064 0.0
H193 H 0.35456 0.48837 0.14648 0.0
C194 C 0.18611 0.50059 0.16252 0.0
C195 C 0.1828 0.53258 0.17639 0.0
C196 C 0.22546 0.50458 0.15612 0.0
C197 C 0.2628 0.54061 0.16349 0.0
C198 C 0.25941 0.57211 0.17799 0.0
C199 C 0.22003 0.56819 0.1843 0.0
C200 C 0.3783 0.59044 0.14008 0.0
C201 C 0.38475 0.55568 0.13927 0.0
C202 C 0.33906 0.58555 0.14798 0.0
C203 C 0.30498 0.54575 0.15547 0.0
C204 C 0.31149 0.51096 0.15472 0.0
C205 C 0.35078 0.51584 0.14669 0.0
H206 H 0.69449 0.15703 0.51722 0.0
H207 H 0.62322 0.21541 0.49477 0.0
H208 H 0.75945 0.22029 0.50294 0.0
H209 H 0.68813 0.27891 0.48108 0.0
H210 H 0.80508 0.36677 0.43042 0.0
H211 H 0.7412 0.30442 0.44661 0.0
H212 H 0.80814 0.29256 0.5117 0.0
H213 H 0.87258 0.35457 0.49497 0.0
C214 C 0.69262 0.18352 0.50958 0.0
C215 C 0.65337 0.18084 0.5071 0.0
C216 C 0.73004 0.22001 0.50145 0.0
C217 C 0.72934 0.25494 0.49063 0.0
C218 C 0.69008 0.25253 0.48881 0.0
C219 C 0.65271 0.21607 0.49687 0.0
C220 C 0.80632 0.35092 0.44819 0.0
C221 C 0.8442 0.36589 0.46133 0.0
C222 C 0.76941 0.31518 0.45765 0.0
C223 C 0.76908 0.29324 0.48065 0.0
C224 C 0.80706 0.30816 0.49378 0.0
C225 C 0.84409 0.34394 0.48424 0.0
H226 H 0.62652 0.68563 0.81859 0.0
H227 H 0.50862 0.63528 0.86413 0.0
H228 H 0.62465 0.74973 0.80974 0.0
H229 H 0.50741 0.70015 0.85611 0.0
H230 H 0.49634 0.80516 0.81615 0.0
H231 H 0.49753 0.74014 0.82357 0.0
H232 H 0.63254 0.81198 0.82889 0.0
H233 H 0.63134 0.87663 0.8205 0.0
C234 C 0.60035 0.68836 0.82699 0.0
C235 C 0.56778 0.65515 0.84216 0.0
C236 C 0.59937 0.7254 0.822 0.0
C237 C 0.56593 0.73057 0.8322 0.0
C238 C 0.53341 0.69732 0.8475 0.0
C239 C 0.53424 0.6601 0.85232 0.0
C240 C 0.52631 0.80704 0.81874 0.0
C241 C 0.56375 0.84624 0.81762 0.0
C242 C 0.527 0.76968 0.82324 0.0
C243 C 0.56513 0.77043 0.82697 0.0
C244 C 0.60257 0.80975 0.82571 0.0
C245 C 0.6019 0.84704 0.82101 0.0
H246 H 0.91312 0.46696 0.16368 0.0
H247 H 0.96578 0.58931 0.20057 0.0
H248 H 0.84902 0.46825 0.15599 0.0
H249 H 0.90091 0.59007 0.19352 0.0
H250 H 0.79758 0.59883 0.15096 0.0
H251 H 0.86159 0.59718 0.1593 0.0
H252 H 0.78754 0.4637 0.17645 0.0
H253 H 0.72375 0.46523 0.16737 0.0
C254 C 0.91097 0.49405 0.17045 0.0
C255 C 0.94497 0.52811 0.18274 0.0
C256 C 0.87388 0.49467 0.16613 0.0
C257 C 0.86946 0.52932 0.17401 0.0
C258 C 0.90322 0.56311 0.18673 0.0
C259 C 0.94042 0.56252 0.19101 0.0
C260 C 0.79495 0.56907 0.15638 0.0
C261 C 0.75537 0.53214 0.15836 0.0
C262 C 0.83174 0.56817 0.16142 0.0
C263 C 0.83008 0.53033 0.16869 0.0
C264 C 0.7904 0.49337 0.17057 0.0
C265 C 0.75364 0.49426 0.16544 0.0
H266 H 0.3836 0.96882 0.49614 0.0
H267 H 0.44352 0.90576 0.53031 0.0
H268 H 0.32167 0.9012 0.48828 0.0
H269 H 0.38073 0.83772 0.52314 0.0
H270 H 0.27831 0.72123 0.4814 0.0
H271 H 0.34102 0.78882 0.48954 0.0
H272 H 0.26285 0.84337 0.50906 0.0
H273 H 0.2005 0.77632 0.50008 0.0
C274 C 0.38346 0.94054 0.50231 0.0
C275 C 0.4188 0.943 0.5139 0.0
C276 C 0.34764 0.90153 0.49788 0.0
C277 C 0.34579 0.8636 0.50506 0.0
C278 C 0.38102 0.86606 0.51693 0.0
C279 C 0.41704 0.9052 0.52125 0.0
C280 C 0.27453 0.74773 0.4873 0.0
C281 C 0.23424 0.74326 0.48992 0.0
C282 C 0.31057 0.78652 0.49222 0.0
C283 C 0.30735 0.82192 0.50002 0.0
C284 C 0.26693 0.81726 0.50267 0.0
C285 C 0.23097 0.77859 0.49761 0.0
H286 H 0.50035 0.37923 0.8534 0.0
H287 H 0.63258 0.44818 0.83049 0.0
H288 H 0.49756 0.31367 0.84054 0.0
H289 H 0.62955 0.38258 0.81683 0.0
H290 H 0.61563 0.25017 0.81406 0.0
H291 H 0.62131 0.31603 0.8303 0.0
H292 H 0.49863 0.27781 0.80104 0.0
H293 H 0.49262 0.21201 0.78554 0.0
C294 C 0.52894 0.38049 0.84569 0.0
C295 C 0.56663 0.41926 0.84289 0.0
C296 C 0.52726 0.34276 0.83806 0.0
C297 C 0.56316 0.34256 0.8272 0.0
C298 C 0.60125 0.38122 0.82522 0.0
C299 C 0.60296 0.41902 0.83299 0.0
C300 C 0.58989 0.25586 0.81111 0.0
C301 C 0.55359 0.22553 0.79855 0.0
C302 C 0.5932 0.29379 0.82034 0.0
C303 C 0.56029 0.30239 0.81726 0.0
C304 C 0.52429 0.27216 0.80438 0.0
C305 C 0.52096 0.23436 0.79525 0.0
H306 H 0.55556 0.82717 0.59569 0.0
H307 H 0.52151 0.80377 0.51309 0.0
H308 H 0.54946 0.75835 0.59897 0.0
H309 H 0.51312 0.73364 0.51675 0.0
H310 H 0.58481 0.6588 0.52299 0.0
H311 H 0.5635 0.71117 0.51858 0.0
H312 H 0.50936 0.68356 0.59932 0.0
H313 H 0.53223 0.63207 0.60407 0.0
C314 C 0.54596 0.80693 0.57836 0.0
C315 C 0.53994 0.8213 0.55398 0.0
C316 C 0.5418 0.76709 0.58035 0.0
C317 C 0.53119 0.74049 0.55802 0.0
C318 C 0.52202 0.75362 0.53419 0.0
C319 C 0.52643 0.79367 0.53217 0.0
C320 C 0.56754 0.66317 0.53962 0.0
C321 C 0.56112 0.64203 0.5641 0.0
C322 C 0.55499 0.69309 0.53703 0.0
C323 C 0.53538 0.70221 0.55878 0.0
C324 C 0.52535 0.67806 0.5824 0.0
C325 C 0.53826 0.64839 0.58508 0.0
H326 H 0.84143 0.54556 0.81482 0.0
H327 H 0.71477 0.43939 0.81589 0.0
H328 H 0.86855 0.49769 0.81846 0.0
H329 H 0.74209 0.39143 0.81748 0.0
H330 H 0.80142 0.33998 0.87618 0.0
H331 H 0.76919 0.37405 0.85383 0.0
H332 H 0.88185 0.44372 0.80351 0.0
H333 H 0.91485 0.41059 0.82682 0.0
C334 C 0.81942 0.51198 0.81516 0.0
C335 C 0.77589 0.49651 0.81573 0.0
C336 C 0.83502 0.48436 0.81679 0.0
C337 C 0.80745 0.44056 0.81872 0.0
C338 C 0.76417 0.42499 0.81662 0.0
C339 C 0.74853 0.45262 0.81535 0.0
C340 C 0.819 0.36172 0.85989 0.0
C341 C 0.86108 0.37344 0.85379 0.0
C342 C 0.80035 0.38117 0.84685 0.0
C343 C 0.82325 0.41244 0.8272 0.0
C344 C 0.86375 0.42063 0.81906 0.0
C345 C 0.88256 0.40142 0.8323 0.0
H346 H 0.2875 0.78945 0.27526 0.0
H347 H 0.322 0.77363 0.19405 0.0
H348 H 0.35421 0.85447 0.27841 0.0
H349 H 0.38987 0.83753 0.19771 0.0
H350 H 0.46085 0.98425 0.20039 0.0
H351 H 0.40914 0.90997 0.1976 0.0
H352 H 0.42896 0.89176 0.27975 0.0
H353 H 0.47989 0.96674 0.28281 0.0
C354 C 0.3097 0.79942 0.25825 0.0
C355 C 0.29903 0.77676 0.23424 0.0
C356 C 0.3483 0.83646 0.26017 0.0
C357 C 0.37732 0.85159 0.23818 0.0
C358 C 0.36794 0.82719 0.21486 0.0
C359 C 0.32918 0.79024 0.21288 0.0
C360 C 0.45482 0.96432 0.21773 0.0
C361 C 0.47388 0.98158 0.24198 0.0
C362 C 0.4253 0.9215 0.21608 0.0
C363 C 0.41439 0.89487 0.23858 0.0
C364 C 0.43595 0.91156 0.26222 0.0
C365 C 0.46531 0.9545 0.26393 0.0
H366 H 0.64005 0.30711 0.48599 0.0
H367 H 0.53916 0.334 0.5005 0.0
H368 H 0.69121 0.38064 0.49323 0.0
H369 H 0.59032 0.4071 0.50945 0.0
H370 H 0.69116 0.54228 0.5142 0.0
H371 H 0.64602 0.4742 0.49382 0.0
H372 H 0.7131 0.42217 0.53249 0.0
H373 H 0.75882 0.49023 0.55203 0.0
C374 C 0.62871 0.3288 0.49023 0.0
C375 C 0.58539 0.31444 0.49292 0.0
C376 C 0.65812 0.37094 0.49478 0.0
C377 C 0.64494 0.39971 0.50238 0.0
C378 C 0.60168 0.38593 0.50351 0.0
C379 C 0.57227 0.34382 0.49873 0.0
C380 C 0.69664 0.51642 0.51797 0.0
C381 C 0.72837 0.52155 0.53488 0.0
C382 C 0.67063 0.47736 0.50641 0.0
C383 C 0.6757 0.44258 0.51163 0.0
C384 C 0.70859 0.44832 0.52768 0.0
C385 C 0.7347 0.48736 0.53909 0.0
H386 H 0.30848 0.521 0.81967 0.0
H387 H 0.25081 0.41483 0.87447 0.0
H388 H 0.24156 0.52001 0.81811 0.0
H389 H 0.18445 0.4137 0.87275 0.0
H390 H 0.06221 0.39784 0.85072 0.0
H391 H 0.12845 0.39887 0.84259 0.0
H392 H 0.1959 0.53454 0.84888 0.0
H393 H 0.12945 0.53364 0.85647 0.0
C394 C 0.28158 0.49748 0.83134 0.0
C395 C 0.2849 0.46785 0.84708 0.0
C396 C 0.2433 0.49686 0.83039 0.0
C397 C 0.20766 0.46654 0.84511 0.0
C398 C 0.21103 0.43683 0.86067 0.0
C399 C 0.24914 0.43751 0.86166 0.0
C400 C 0.0911 0.42797 0.84992 0.0
C401 C 0.09066 0.46562 0.8546 0.0
C402 C 0.12906 0.42853 0.84539 0.0
C403 C 0.16741 0.46672 0.84556 0.0
C404 C 0.16685 0.50463 0.84854 0.0
C405 C 0.12879 0.50409 0.85299 0.0
H406 H 0.83217 0.35824 0.21067 0.0
H407 H 0.79461 0.27432 0.14309 0.0
H408 H 0.75954 0.33879 0.22054 0.0
H409 H 0.72132 0.25571 0.15255 0.0
H410 H 0.59312 0.19936 0.20318 0.0
H411 H 0.66401 0.21804 0.18706 0.0
H412 H 0.70579 0.3494 0.20148 0.0
H413 H 0.63536 0.33074 0.21812 0.0
C414 C 0.80829 0.33527 0.19804 0.0
C415 C 0.81909 0.31742 0.17628 0.0
C416 C 0.76669 0.32468 0.20343 0.0
C417 C 0.73473 0.29607 0.18715 0.0
C418 C 0.7453 0.2778 0.16548 0.0
C419 C 0.78719 0.28856 0.16 0.0
C420 C 0.61731 0.23229 0.2025 0.0
C421 C 0.60881 0.26355 0.21226 0.0
C422 C 0.65787 0.24297 0.19319 0.0
C423 C 0.6906 0.2851 0.19342 0.0
C424 C 0.68141 0.31654 0.20164 0.0
C425 C 0.641 0.30588 0.21103 0.0
H426 H 1.02649 0.5752 0.10516 0.0
H427 H 0.07951 0.49446 0.11384 0.0
H428 H 1.00521 0.54789 0.0603 0.0
H429 H 0.05922 0.46776 0.06876 0.0
H430 H 0.98122 0.40005 0.9969 0.0
H431 H 0.9988 0.42494 0.04257 0.0
H432 H 0.03651 0.55141 0.01656 0.0
H433 H 1.01791 0.52644 0.97121 0.0
C434 C 0.03373 0.55174 0.09736 0.0
C435 C 0.05458 0.53689 0.11285 0.0
C436 C 1.02173 0.5362 0.07166 0.0
C437 C 1.03061 0.5057 0.06089 0.0
C438 C 0.05137 0.49078 0.07656 0.0
C439 C 0.06322 0.50623 0.1023 0.0
C440 C 0.99318 0.43314 1.00096 0.0
C441 C 0.9981 0.46123 0.9804 0.0
C442 C 1.00346 0.44745 0.02711 0.0
C443 C 1.01903 0.49017 0.03323 0.0
C444 C 1.02394 0.51818 1.01264 0.0
C445 C 1.01351 0.50388 0.98657 0.0
H446 H 0.61432 0.11089 0.43486 0.0
H447 H 0.47999 0.04771 0.45014 0.0
H448 H 0.60682 0.14127 0.39366 0.0
H449 H 0.47223 0.07729 0.40887 0.0
H450 H 0.4775 0.17223 0.3489 0.0
H451 H 0.48737 0.1444 0.39036 0.0
H452 H 0.57994 0.12166 0.34935 0.0
H453 H 0.57159 0.1515 0.30842 0.0
C454 C 0.58319 0.1032 0.42922 0.0
C455 C 0.54775 0.07711 0.44561 0.0
C456 C 0.57884 0.1205 0.40565 0.0
C457 C 0.53892 0.11186 0.39803 0.0
C458 C 0.50348 0.08522 0.41438 0.0
C459 C 0.50787 0.06805 0.43792 0.0
C460 C 0.5 0.16135 0.34883 0.0
C461 C 0.52285 0.16282 0.32524 0.0
C462 C 0.50544 0.14512 0.37249 0.0
C463 C 0.53405 0.13028 0.37309 0.0
C464 C 0.55766 0.1328 0.3496 0.0
C465 C 0.55225 0.1491 0.32599 0.0
H466 H 0.63797 0.56021 0.79081 0.0
H467 H 0.5291 0.55219 0.75634 0.0
H468 H 0.67493 0.57779 0.74761 0.0
H469 H 0.56514 0.56756 0.712 0.0
H470 H 0.65967 0.63355 0.64043 0.0
H471 H 0.62037 0.61879 0.6834 0.0
H472 H 0.67565 0.54508 0.70775 0.0
H473 H 0.71588 0.56144 0.6654 0.0
C474 C 0.62194 0.56206 0.77385 0.0
C475 C 0.58082 0.55467 0.77695 0.0
C476 C 0.6429 0.57169 0.74889 0.0
C477 C 0.62284 0.57328 0.72603 0.0
C478 C 0.58171 0.5668 0.72915 0.0
C479 C 0.56095 0.55783 0.75448 0.0
C480 C 0.66291 0.61383 0.65495 0.0
C481 C 0.69059 0.59843 0.64966 0.0
C482 C 0.64041 0.60534 0.67957 0.0
C483 C 0.64498 0.581 0.69925 0.0
C484 C 0.67206 0.56487 0.69347 0.0
C485 C 0.69498 0.57396 0.66912 0.0
H486 H 0.45833 0.02494 0.60672 0.0
H487 H 0.59294 0.09544 0.59264 0.0
H488 H 0.46775 1.01629 0.65385 0.0
H489 H 0.60237 0.08736 0.64007 0.0
H490 H 0.59393 0.09938 0.73389 0.0
H491 H 0.58502 0.11076 0.6869 0.0
H492 H 0.49873 0.97759 0.67884 0.0
H493 H 0.50786 0.96616 0.72542 0.0
C494 C 0.48994 0.03864 0.61373 0.0
C495 C 0.52489 0.06078 0.59602 0.0
C496 C 0.49531 0.03365 0.64069 0.0
C497 C 0.53578 0.05131 0.65066 0.0
C498 C 0.57082 0.07378 0.63299 0.0
C499 C 0.56543 0.07813 0.60585 0.0
C500 C 0.57268 0.07269 0.72216 0.0
C501 C 0.55135 0.03193 0.73342 0.0
C502 C 0.56794 0.07913 0.69522 0.0
C503 C 0.54116 0.04504 0.67923 0.0
C504 C 0.51935 1.00449 0.69069 0.0
C505 C 0.5247 0.99796 0.71735 0.0
H506 H 0.59233 0.6166 0.93919 0.0
H507 H 0.53393 0.48201 0.92915 0.0
H508 H 0.58407 0.60692 0.98781 0.0
H509 H 0.52616 0.47235 0.97785 0.0
H510 H 0.59274 0.49073 0.05978 0.0
H511 H 0.58269 0.49303 1.01209 0.0
H512 H 0.53068 0.57423 0.02767 0.0
H513 H 0.54042 0.57157 0.0757 0.0
C514 C 0.57705 0.58489 0.94739 0.0
C515 C 0.56407 0.5501 0.93038 0.0
C516 C 0.57216 0.57934 0.97523 0.0
C517 C 0.55472 0.53889 0.98668 0.0
C518 C 0.54 0.50392 0.96961 0.0
C519 C 0.54428 0.50944 0.94174 0.0
C520 C 0.57848 0.50849 0.05311 0.0
C521 C 0.56722 0.53083 0.07153 0.0
C522 C 0.5725 0.50961 0.02578 0.0
C523 C 0.55585 0.53377 0.01609 0.0
C524 C 0.54361 0.55536 0.03456 0.0
C525 C 0.54886 0.55356 0.06206 0.0
H526 H 0.98068 0.44764 0.27246 0.0
H527 H 0.09745 0.56349 0.25827 0.0
H528 H 0.98199 0.46364 0.32007 0.0
H529 H 0.10006 0.57922 0.30585 0.0
H530 H 0.0812 0.61583 0.38882 0.0
H531 H 0.07221 0.60003 0.34141 0.0
H532 H 1.01437 0.46706 0.35985 0.0
H533 H 1.02181 0.48316 0.40747 0.0
C534 C 1.00665 0.47664 0.27961 0.0
C535 C 0.03855 0.50482 0.26165 0.0
C536 C 1.00763 0.48573 0.30696 0.0
C537 C 0.04104 0.52291 0.31711 0.0
C538 C 0.07314 0.55086 0.29893 0.0
C539 C 0.07175 0.54199 0.27154 0.0
C540 C 0.06607 0.58317 0.38274 0.0
C541 C 0.05203 0.55074 0.40193 0.0
C542 C 0.06127 0.57405 0.35545 0.0
C543 C 0.04304 0.53222 0.34647 0.0
C544 C 1.02804 0.49965 0.36582 0.0
C545 C 1.03225 0.50881 0.39323 0.0
loop_
_geom_bond_atom_site_label_1
_geom_bond_atom_site_label_2
_geom_bond_distance
_geom_bond_site_symmetry_2
_ccdc_geom_bond_type
C0 Eu1 2.835 . S
C0 C2 1.500 . S
C0 O20 1.257 . S
C0 O21 1.260 . S
Eu1 C0 2.835 . S
Eu1 O20 2.473 . S
Eu1 O21 2.480 . S
Eu1 O22 2.430 . S
Eu1 O23 2.670 1_655 S
Eu1 O24 2.394 . S
Eu1 O29 2.355 1_655 S
Eu1 O31 2.374 1_655 S
C2 C0 1.500 . S
C2 C3 1.377 . S
C2 C7 1.377 . S
C3 C2 1.377 . S
C3 C4 1.395 . S
C3 H32 0.931 . S
C4 C3 1.395 . S
C4 C5 1.383 . S
C4 H33 0.931 . S
C5 C4 1.383 . S
C5 C6 1.394 . S
C6 C5 1.394 . S
C6 C7 1.378 . S
C6 H34 0.931 . S
C7 C2 1.377 . S
C7 C6 1.378 . S
C7 H35 0.931 . S
C8 O22 1.259 1_455 S
C8 O23 1.270 . S
C9 O24 1.251 . S
C9 O25 1.251 . S
C10 Eu11 2.835 . S
C10 C12 1.500 . S
C10 O26 1.257 . S
C10 O27 1.260 . S
Eu11 C10 2.835 . S
Eu11 O23 2.355 . S
Eu11 O25 2.374 1_455 S
Eu11 O26 2.473 . S
Eu11 O27 2.480 . S
Eu11 O28 2.430 . S
Eu11 O29 2.670 . S
Eu11 O30 2.394 . S
C12 C10 1.500 . S
C12 C13 1.377 . S
C12 C17 1.377 . S
C13 C12 1.377 . S
C13 C14 1.395 . S
C13 H36 0.931 . S
C14 C13 1.395 . S
C14 C15 1.383 . S
C14 H37 0.931 . S
C15 C14 1.383 . S
C15 C16 1.394 . S
C16 C15 1.394 . S
C16 C17 1.378 . S
C16 H38 0.931 . S
C17 C12 1.377 . S
C17 C16 1.378 . S
C17 H39 0.931 . S
C18 O28 1.259 . S
C18 O29 1.270 . S
C19 O30 1.251 . S
C19 O31 1.251 . S
O20 C0 1.257 . S
O20 Eu1 2.473 . S
O21 C0 1.260 . S
O21 Eu1 2.480 . S
O22 Eu1 2.430 . S
O22 C8 1.259 1_655 S
O23 Eu1 2.670 1_455 S
O23 C8 1.270 . S
O23 Eu11 2.355 . S
O24 Eu1 2.394 . S
O24 C9 1.251 . S
O25 C9 1.251 . S
O25 Eu11 2.374 1_655 S
O26 C10 1.257 . S
O26 Eu11 2.473 . S
O27 C10 1.260 . S
O27 Eu11 2.480 . S
O28 Eu11 2.430 . S
O28 C18 1.259 . S
O29 Eu1 2.355 1_455 S
O29 Eu11 2.670 . S
O29 C18 1.270 . S
O30 Eu11 2.394 . S
O30 C19 1.251 . S
O31 Eu1 2.374 1_455 S
O31 C19 1.251 . S
H32 C3 0.931 . S
H33 C4 0.931 . S
H34 C6 0.931 . S
H35 C7 0.931 . S
H36 C13 0.931 . S
H37 C14 0.931 . S
H38 C16 0.931 . S
H39 C17 0.931 . S
C40 Eu41 2.835 . S
C40 C42 1.500 . S
C40 O60 1.257 . S
C40 O61 1.260 . S
Eu41 C40 2.835 . S
Eu41 O60 2.473 . S
Eu41 O61 2.480 . S
Eu41 O62 2.430 . S
Eu41 O63 2.670 . S
Eu41 O64 2.394 . S
Eu41 O69 2.355 . S
Eu41 O71 2.374 1_545 S
C42 C40 1.500 . S
C42 C43 1.377 . S
C42 C47 1.377 . S
C43 C42 1.377 . S
C43 C44 1.395 . S
C43 H72 0.931 . S
C44 C43 1.395 . S
C44 C45 1.383 . S
C44 H73 0.931 . S
C45 C44 1.383 . S
C45 C46 1.394 . S
C46 C45 1.394 . S
C46 C47 1.378 . S
C46 H74 0.931 . S
C47 C42 1.377 . S
C47 C46 1.378 . S
C47 H75 0.931 . S
C48 O62 1.259 . S
C48 O63 1.270 . S
C49 O64 1.251 . S
C49 O65 1.251 . S
C50 Eu51 2.835 . S
C50 C52 1.500 . S
C50 O66 1.257 . S
C50 O67 1.260 . S
Eu51 C50 2.835 . S
Eu51 O63 2.355 1_565 S
Eu51 O65 2.374 1_565 S
Eu51 O66 2.473 . S
Eu51 O67 2.480 . S
Eu51 O68 2.430 1_565 S
Eu51 O69 2.670 1_565 S
Eu51 O70 2.394 . S
C52 C50 1.500 . S
C52 C53 1.377 . S
C52 C57 1.377 . S
C53 C52 1.377 . S
C53 C54 1.395 . S
C53 H76 0.931 . S
C54 C53 1.395 . S
C54 C55 1.383 . S
C54 H77 0.931 . S
C55 C54 1.383 . S
C55 C56 1.394 . S
C56 C55 1.394 . S
C56 C57 1.378 . S
C56 H78 0.931 . S
C57 C52 1.377 . S
C57 C56 1.378 . S
C57 H79 0.931 . S
C58 O68 1.259 . S
C58 O69 1.270 . S
C59 O70 1.251 . S
C59 O71 1.251 . S
O60 C40 1.257 . S
O60 Eu41 2.473 . S
O61 C40 1.260 . S
O61 Eu41 2.480 . S
O62 Eu41 2.430 . S
O62 C48 1.259 . S
O63 Eu41 2.670 . S
O63 C48 1.270 . S
O63 Eu51 2.355 1_545 S
O64 Eu41 2.394 . S
O64 C49 1.251 . S
O65 C49 1.251 . S
O65 Eu51 2.374 1_545 S
O66 C50 1.257 . S
O66 Eu51 2.473 . S
O67 C50 1.260 . S
O67 Eu51 2.480 . S
O68 Eu51 2.430 1_545 S
O68 C58 1.259 . S
O69 Eu41 2.355 . S
O69 Eu51 2.670 1_545 S
O69 C58 1.270 . S
O70 Eu51 2.394 . S
O70 C59 1.251 . S
O71 Eu41 2.374 1_565 S
O71 C59 1.251 . S
H72 C43 0.931 . S
H73 C44 0.931 . S
H74 C46 0.931 . S
H75 C47 0.931 . S
H76 C53 0.931 . S
H77 C54 0.931 . S
H78 C56 0.931 . S
H79 C57 0.931 . S
C80 Eu81 2.835 . S
C80 C82 1.500 . S
C80 O100 1.257 . S
C80 O101 1.260 . S
Eu81 C80 2.835 . S
Eu81 O100 2.473 . S
Eu81 O101 2.480 . S
Eu81 O102 2.430 . S
Eu81 O103 2.670 . S
Eu81 O104 2.394 . S
Eu81 O109 2.355 . S
Eu81 O111 2.374 . S
C82 C80 1.500 . S
C82 C83 1.377 . S
C82 C87 1.377 . S
C83 C82 1.377 . S
C83 C84 1.395 . S
C83 H112 0.931 . S
C84 C83 1.395 . S
C84 C85 1.383 . S
C84 H113 0.931 . S
C85 C84 1.383 . S
C85 C86 1.394 . S
C86 C85 1.394 . S
C86 C87 1.378 . S
C86 H114 0.931 . S
C87 C82 1.377 . S
C87 C86 1.378 . S
C87 H115 0.931 . S
C88 O102 1.259 . S
C88 O103 1.270 . S
C89 O104 1.251 . S
C89 O105 1.251 . S
C90 Eu91 2.835 . S
C90 C92 1.500 . S
C90 O106 1.257 . S
C90 O107 1.260 . S
Eu91 C90 2.835 . S
Eu91 O103 2.355 . S
Eu91 O105 2.374 . S
Eu91 O106 2.473 . S
Eu91 O107 2.480 . S
Eu91 O108 2.430 . S
Eu91 O109 2.670 . S
Eu91 O110 2.394 . S
C92 C90 1.500 . S
C92 C93 1.377 . S
C92 C97 1.377 . S
C93 C92 1.377 . S
C93 C94 1.395 . S
C93 H116 0.931 . S
C94 C93 1.395 . S
C94 C95 1.383 . S
C94 H117 0.931 . S
C95 C94 1.383 . S
C95 C96 1.394 . S
C96 C95 1.394 . S
C96 C97 1.378 . S
C96 H118 0.931 . S
C97 C92 1.377 . S
C97 C96 1.378 . S
C97 H119 0.931 . S
C98 O108 1.259 . S
C98 O109 1.270 . S
C99 O110 1.251 . S
C99 O111 1.251 . S
O100 C80 1.257 . S
O100 Eu81 2.473 . S
O101 C80 1.260 . S
O101 Eu81 2.480 . S
O102 Eu81 2.430 . S
O102 C88 1.259 . S
O103 Eu81 2.670 . S
O103 C88 1.270 . S
O103 Eu91 2.355 . S
O104 Eu81 2.394 . S
O104 C89 1.251 . S
O105 C89 1.251 . S
O105 Eu91 2.374 . S
O106 C90 1.257 . S
O106 Eu91 2.473 . S
O107 C90 1.260 . S
O107 Eu91 2.480 . S
O108 Eu91 2.430 . S
O108 C98 1.259 . S
O109 Eu81 2.355 . S
O109 Eu91 2.670 . S
O109 C98 1.270 . S
O110 Eu91 2.394 . S
O110 C99 1.251 . S
O111 Eu81 2.374 . S
O111 C99 1.251 . S
H112 C83 0.931 . S
H113 C84 0.931 . S
H114 C86 0.931 . S
H115 C87 0.931 . S
H116 C93 0.931 . S
H117 C94 0.931 . S
H118 C96 0.931 . S
H119 C97 0.931 . S
O120 Cd121 2.300 . S
O120 C127 1.275 . S
Cd121 O120 2.300 . S
Cd121 O129 2.381 . S
Cd121 O130 2.378 . S
O122 Cd123 2.385 1_545 S
O122 C127 1.255 . S
Cd123 O122 2.385 1_565 S
Cd123 O124 2.317 . S
O124 Cd123 2.317 . S
O124 C125 1.232 . S
C125 O124 1.232 . S
C125 O126 1.218 . S
O126 C125 1.218 . S
C127 O120 1.275 . S
C127 O122 1.255 . S
C128 O129 1.258 . S
C128 O130 1.256 . S
O129 Cd121 2.381 . S
O129 C128 1.258 . S
O130 Cd121 2.378 . S
O130 C128 1.256 . S
O131 Cd132 2.300 . S
O131 C138 1.275 . S
Cd132 O131 2.300 . S
Cd132 O140 2.381 . S
Cd132 O141 2.378 . S
O133 Cd134 2.385 . S
O133 C138 1.255 . S
Cd134 O133 2.385 . S
Cd134 O135 2.317 . S
O135 Cd134 2.317 . S
O135 C136 1.232 . S
C136 O135 1.232 . S
C136 O137 1.218 . S
O137 C136 1.218 . S
C138 O131 1.275 . S
C138 O133 1.255 . S
C139 O140 1.258 . S
C139 O141 1.256 . S
O140 Cd132 2.381 . S
O140 C139 1.258 . S
O141 Cd132 2.378 . S
O141 C139 1.256 . S
O142 Cd143 2.300 . S
O142 C149 1.275 1_455 S
Cd143 O142 2.300 . S
Cd143 O151 2.381 . S
Cd143 O152 2.378 . S
O144 Cd145 2.385 . S
O144 C149 1.255 . S
Cd145 O144 2.385 . S
Cd145 O146 2.317 . S
O146 Cd145 2.317 . S
O146 C147 1.232 . S
C147 O146 1.232 . S
C147 O148 1.218 . S
O148 C147 1.218 . S
C149 O142 1.275 1_655 S
C149 O144 1.255 . S
C150 O151 1.258 . S
C150 O152 1.256 . S
O151 Cd143 2.381 . S
O151 C150 1.258 . S
O152 Cd143 2.378 . S
O152 C150 1.256 . S
O153 Cd154 2.300 . S
O153 C160 1.275 . S
Cd154 O153 2.300 . S
Cd154 O162 2.381 . S
Cd154 O163 2.378 . S
O155 Cd156 2.386 . S
O155 C160 1.254 1_655 S
Cd156 O155 2.386 . S
Cd156 O157 2.317 . S
O157 Cd156 2.317 . S
O157 C158 1.232 . S
C158 O157 1.232 . S
C158 O159 1.218 . S
O159 C158 1.218 . S
C160 O153 1.275 . S
C160 O155 1.254 1_455 S
C161 O162 1.258 . S
C161 O163 1.256 . S
O162 Cd154 2.381 . S
O162 C161 1.258 . S
O163 Cd154 2.378 . S
O163 C161 1.256 . S
O164 Cd165 2.300 . S
O164 C171 1.275 1_565 S
Cd165 O164 2.300 . S
Cd165 O173 2.381 . S
Cd165 O174 2.378 . S
O166 Cd167 2.385 . S
O166 C171 1.255 . S
Cd167 O166 2.385 . S
Cd167 O168 2.317 . S
O168 Cd167 2.317 . S
O168 C169 1.232 . S
C169 O168 1.232 . S
C169 O170 1.218 . S
O170 C169 1.218 . S
C171 O164 1.275 1_545 S
C171 O166 1.255 . S
C172 O173 1.258 . S
C172 O174 1.256 . S
O173 Cd165 2.381 . S
O173 C172 1.258 . S
O174 Cd165 2.378 . S
O174 C172 1.256 . S
O175 Cd176 2.300 . S
O175 C182 1.275 . S
Cd176 O175 2.300 . S
Cd176 O184 2.381 . S
Cd176 O185 2.378 . S
O177 Cd178 2.385 . S
O177 C182 1.255 . S
Cd178 O177 2.385 . S
Cd178 O179 2.317 . S
O179 Cd178 2.317 . S
O179 C180 1.232 . S
C180 O179 1.232 . S
C180 O181 1.218 . S
O181 C180 1.218 . S
C182 O175 1.275 . S
C182 O177 1.255 . S
C183 O184 1.258 . S
C183 O185 1.256 . S
O184 Cd176 2.381 . S
O184 C183 1.258 . S
O185 Cd176 2.378 . S
O185 C183 1.256 . S
H186 C194 0.950 . S
H187 C199 0.950 . S
H188 C196 0.950 . S
H189 C198 0.950 . S
H190 C200 0.950 . S
H191 C202 0.950 . S
H192 C204 0.950 . S
H193 C205 0.950 . S
C194 H186 0.950 . S
C194 C195 1.386 . S
C194 C196 1.391 . S
C195 C194 1.386 . S
C195 C199 1.393 . S
C196 H188 0.950 . S
C196 C194 1.391 . S
C196 C197 1.400 . S
C197 C196 1.400 . S
C197 C198 1.398 . S
C197 C203 1.491 . S
C198 H189 0.950 . S
C198 C197 1.398 . S
C198 C199 1.391 . S
C199 H187 0.950 . S
C199 C195 1.393 . S
C199 C198 1.391 . S
C200 H190 0.950 . S
C200 C201 1.386 . S
C200 C202 1.391 . S
C201 C200 1.386 . S
C201 C205 1.393 . S
C202 H191 0.950 . S
C202 C200 1.391 . S
C202 C203 1.400 . S
C203 C197 1.491 . S
C203 C202 1.400 . S
C203 C204 1.398 . S
C204 H192 0.950 . S
C204 C203 1.398 . S
C204 C205 1.391 . S
C205 H193 0.950 . S
C205 C201 1.393 . S
C205 C204 1.391 . S
H206 C214 0.950 . S
H207 C219 0.950 . S
H208 C216 0.950 . S
H209 C218 0.950 . S
H210 C220 0.950 . S
H211 C222 0.950 . S
H212 C224 0.950 . S
H213 C225 0.950 . S
C214 H206 0.950 . S
C214 C215 1.386 . S
C214 C216 1.391 . S
C215 C214 1.386 . S
C215 C219 1.393 . S
C216 H208 0.950 . S
C216 C214 1.391 . S
C216 C217 1.400 . S
C217 C216 1.400 . S
C217 C218 1.398 . S
C217 C223 1.491 . S
C218 H209 0.950 . S
C218 C217 1.398 . S
C218 C219 1.391 . S
C219 H207 0.950 . S
C219 C215 1.393 . S
C219 C218 1.391 . S
C220 H210 0.950 . S
C220 C221 1.386 . S
C220 C222 1.391 . S
C221 C220 1.386 . S
C221 C225 1.393 . S
C222 H211 0.950 . S
C222 C220 1.391 . S
C222 C223 1.400 . S
C223 C217 1.491 . S
C223 C222 1.400 . S
C223 C224 1.398 . S
C224 H212 0.950 . S
C224 C223 1.398 . S
C224 C225 1.391 . S
C225 H213 0.950 . S
C225 C221 1.393 . S
C225 C224 1.391 . S
H226 C234 0.950 . S
H227 C239 0.950 . S
H228 C236 0.950 . S
H229 C238 0.950 . S
H230 C240 0.950 . S
H231 C242 0.950 . S
H232 C244 0.950 . S
H233 C245 0.950 . S
C234 H226 0.950 . S
C234 C235 1.386 . S
C234 C236 1.391 . S
C235 C234 1.386 . S
C235 C239 1.393 . S
C236 H228 0.950 . S
C236 C234 1.391 . S
C236 C237 1.400 . S
C237 C236 1.400 . S
C237 C238 1.398 . S
C237 C243 1.491 . S
C238 H229 0.950 . S
C238 C237 1.398 . S
C238 C239 1.391 . S
C239 H227 0.950 . S
C239 C235 1.393 . S
C239 C238 1.391 . S
C240 H230 0.950 . S
C240 C241 1.386 . S
C240 C242 1.391 . S
C241 C240 1.386 . S
C241 C245 1.393 . S
C242 H231 0.950 . S
C242 C240 1.391 . S
C242 C243 1.400 . S
C243 C237 1.491 . S
C243 C242 1.400 . S
C243 C244 1.398 . S
C244 H232 0.950 . S
C244 C243 1.398 . S
C244 C245 1.391 . S
C245 H233 0.950 . S
C245 C241 1.393 . S
C245 C244 1.391 . S
H246 C254 0.950 . S
H247 C259 0.950 . S
H248 C256 0.950 . S
H249 C258 0.950 . S
H250 C260 0.950 . S
H251 C262 0.950 . S
H252 C264 0.950 . S
H253 C265 0.950 . S
C254 H246 0.950 . S
C254 C255 1.386 . S
C254 C256 1.391 . S
C255 C254 1.386 . S
C255 C259 1.393 . S
C256 H248 0.950 . S
C256 C254 1.391 . S
C256 C257 1.400 . S
C257 C256 1.400 . S
C257 C258 1.398 . S
C257 C263 1.491 . S
C258 H249 0.950 . S
C258 C257 1.398 . S
C258 C259 1.391 . S
C259 H247 0.950 . S
C259 C255 1.393 . S
C259 C258 1.391 . S
C260 H250 0.950 . S
C260 C261 1.386 . S
C260 C262 1.391 . S
C261 C260 1.386 . S
C261 C265 1.393 . S
C262 H251 0.950 . S
C262 C260 1.391 . S
C262 C263 1.400 . S
C263 C257 1.491 . S
C263 C262 1.400 . S
C263 C264 1.398 . S
C264 H252 0.950 . S
C264 C263 1.398 . S
C264 C265 1.391 . S
C265 H253 0.950 . S
C265 C261 1.393 . S
C265 C264 1.391 . S
H266 C274 0.950 . S
H267 C279 0.950 . S
H268 C276 0.950 . S
H269 C278 0.950 . S
H270 C280 0.950 . S
H271 C282 0.950 . S
H272 C284 0.950 . S
H273 C285 0.950 . S
C274 H266 0.950 . S
C274 C275 1.386 . S
C274 C276 1.391 . S
C275 C274 1.386 . S
C275 C279 1.393 . S
C276 H268 0.950 . S
C276 C274 1.391 . S
C276 C277 1.400 . S
C277 C276 1.400 . S
C277 C278 1.398 . S
C277 C283 1.491 . S
C278 H269 0.950 . S
C278 C277 1.398 . S
C278 C279 1.391 . S
C279 H267 0.950 . S
C279 C275 1.393 . S
C279 C278 1.391 . S
C280 H270 0.950 . S
C280 C281 1.386 . S
C280 C282 1.391 . S
C281 C280 1.386 . S
C281 C285 1.393 . S
C282 H271 0.950 . S
C282 C280 1.391 . S
C282 C283 1.400 . S
C283 C277 1.491 . S
C283 C282 1.400 . S
C283 C284 1.398 . S
C284 H272 0.950 . S
C284 C283 1.398 . S
C284 C285 1.391 . S
C285 H273 0.950 . S
C285 C281 1.393 . S
C285 C284 1.391 . S
H286 C294 0.950 . S
H287 C299 0.950 . S
H288 C296 0.950 . S
H289 C298 0.950 . S
H290 C300 0.950 . S
H291 C302 0.950 . S
H292 C304 0.950 . S
H293 C305 0.950 . S
C294 H286 0.950 . S
C294 C295 1.386 . S
C294 C296 1.391 . S
C295 C294 1.386 . S
C295 C299 1.393 . S
C296 H288 0.950 . S
C296 C294 1.391 . S
C296 C297 1.400 . S
C297 C296 1.400 . S
C297 C298 1.398 . S
C297 C303 1.491 . S
C298 H289 0.950 . S
C298 C297 1.398 . S
C298 C299 1.391 . S
C299 H287 0.950 . S
C299 C295 1.393 . S
C299 C298 1.391 . S
C300 H290 0.950 . S
C300 C301 1.386 . S
C300 C302 1.391 . S
C301 C300 1.386 . S
C301 C305 1.393 . S
C302 H291 0.950 . S
C302 C300 1.391 . S
C302 C303 1.400 . S
C303 C297 1.491 . S
C303 C302 1.400 . S
C303 C304 1.398 . S
C304 H292 0.950 . S
C304 C303 1.398 . S
C304 C305 1.391 . S
C305 H293 0.950 . S
C305 C301 1.393 . S
C305 C304 1.391 . S
H306 C314 0.950 . S
H307 C319 0.950 . S
H308 C316 0.950 . S
H309 C318 0.950 . S
H310 C320 0.950 . S
H311 C322 0.950 . S
H312 C324 0.950 . S
H313 C325 0.950 . S
C314 H306 0.950 . S
C314 C315 1.386 . S
C314 C316 1.391 . S
C315 C314 1.386 . S
C315 C319 1.393 . S
C316 H308 0.950 . S
C316 C314 1.391 . S
C316 C317 1.400 . S
C317 C316 1.400 . S
C317 C318 1.398 . S
C317 C323 1.491 . S
C318 H309 0.950 . S
C318 C317 1.398 . S
C318 C319 1.391 . S
C319 H307 0.950 . S
C319 C315 1.393 . S
C319 C318 1.391 . S
C320 H310 0.950 . S
C320 C321 1.386 . S
C320 C322 1.391 . S
C321 C320 1.386 . S
C321 C325 1.393 . S
C322 H311 0.950 . S
C322 C320 1.391 . S
C322 C323 1.400 . S
C323 C317 1.491 . S
C323 C322 1.400 . S
C323 C324 1.398 . S
C324 H312 0.950 . S
C324 C323 1.398 . S
C324 C325 1.391 . S
C325 H313 0.950 . S
C325 C321 1.393 . S
C325 C324 1.391 . S
H326 C334 0.950 . S
H327 C339 0.950 . S
H328 C336 0.950 . S
H329 C338 0.950 . S
H330 C340 0.950 . S
H331 C342 0.950 . S
H332 C344 0.950 . S
H333 C345 0.950 . S
C334 H326 0.950 . S
C334 C335 1.386 . S
C334 C336 1.391 . S
C335 C334 1.386 . S
C335 C339 1.393 . S
C336 H328 0.950 . S
C336 C334 1.391 . S
C336 C337 1.400 . S
C337 C336 1.400 . S
C337 C338 1.398 . S
C337 C343 1.491 . S
C338 H329 0.950 . S
C338 C337 1.398 . S
C338 C339 1.391 . S
C339 H327 0.950 . S
C339 C335 1.393 . S
C339 C338 1.391 . S
C340 H330 0.950 . S
C340 C341 1.386 . S
C340 C342 1.391 . S
C341 C340 1.386 . S
C341 C345 1.393 . S
C342 H331 0.950 . S
C342 C340 1.391 . S
C342 C343 1.400 . S
C343 C337 1.491 . S
C343 C342 1.400 . S
C343 C344 1.398 . S
C344 H332 0.950 . S
C344 C343 1.398 . S
C344 C345 1.391 . S
C345 H333 0.950 . S
C345 C341 1.393 . S
C345 C344 1.391 . S
H346 C354 0.950 . S
H347 C359 0.950 . S
H348 C356 0.950 . S
H349 C358 0.950 . S
H350 C360 0.950 . S
H351 C362 0.950 . S
H352 C364 0.950 . S
H353 C365 0.950 . S
C354 H346 0.950 . S
C354 C355 1.386 . S
C354 C356 1.391 . S
C355 C354 1.386 . S
C355 C359 1.393 . S
C356 H348 0.950 . S
C356 C354 1.391 . S
C356 C357 1.400 . S
C357 C356 1.400 . S
C357 C358 1.398 . S
C357 C363 1.491 . S
C358 H349 0.950 . S
C358 C357 1.398 . S
C358 C359 1.391 . S
C359 H347 0.950 . S
C359 C355 1.393 . S
C359 C358 1.391 . S
C360 H350 0.950 . S
C360 C361 1.386 . S
C360 C362 1.391 . S
C361 C360 1.386 . S
C361 C365 1.393 . S
C362 H351 0.950 . S
C362 C360 1.391 . S
C362 C363 1.400 . S
C363 C357 1.491 . S
C363 C362 1.400 . S
C363 C364 1.398 . S
C364 H352 0.950 . S
C364 C363 1.398 . S
C364 C365 1.391 . S
C365 H353 0.950 . S
C365 C361 1.393 . S
C365 C364 1.391 . S
H366 C374 0.950 . S
H367 C379 0.950 . S
H368 C376 0.950 . S
H369 C378 0.950 . S
H370 C380 0.950 . S
H371 C382 0.950 . S
H372 C384 0.950 . S
H373 C385 0.950 . S
C374 H366 0.950 . S
C374 C375 1.386 . S
C374 C376 1.391 . S
C375 C374 1.386 . S
C375 C379 1.393 . S
C376 H368 0.950 . S
C376 C374 1.391 . S
C376 C377 1.400 . S
C377 C376 1.400 . S
C377 C378 1.398 . S
C377 C383 1.491 . S
C378 H369 0.950 . S
C378 C377 1.398 . S
C378 C379 1.391 . S
C379 H367 0.950 . S
C379 C375 1.393 . S
C379 C378 1.391 . S
C380 H370 0.950 . S
C380 C381 1.386 . S
C380 C382 1.391 . S
C381 C380 1.386 . S
C381 C385 1.393 . S
C382 H371 0.950 . S
C382 C380 1.391 . S
C382 C383 1.400 . S
C383 C377 1.491 . S
C383 C382 1.400 . S
C383 C384 1.398 . S
C384 H372 0.950 . S
C384 C383 1.398 . S
C384 C385 1.391 . S
C385 H373 0.950 . S
C385 C381 1.393 . S
C385 C384 1.391 . S
H386 C394 0.950 . S
H387 C399 0.950 . S
H388 C396 0.950 . S
H389 C398 0.950 . S
H390 C400 0.950 . S
H391 C402 0.950 . S
H392 C404 0.950 . S
H393 C405 0.950 . S
C394 H386 0.950 . S
C394 C395 1.386 . S
C394 C396 1.391 . S
C395 C394 1.386 . S
C395 C399 1.393 . S
C396 H388 0.950 . S
C396 C394 1.391 . S
C396 C397 1.400 . S
C397 C396 1.400 . S
C397 C398 1.398 . S
C397 C403 1.491 . S
C398 H389 0.950 . S
C398 C397 1.398 . S
C398 C399 1.391 . S
C399 H387 0.950 . S
C399 C395 1.393 . S
C399 C398 1.391 . S
C400 H390 0.950 . S
C400 C401 1.386 . S
C400 C402 1.391 . S
C401 C400 1.386 . S
C401 C405 1.393 . S
C402 H391 0.950 . S
C402 C400 1.391 . S
C402 C403 1.400 . S
C403 C397 1.491 . S
C403 C402 1.400 . S
C403 C404 1.398 . S
C404 H392 0.950 . S
C404 C403 1.398 . S
C404 C405 1.391 . S
C405 H393 0.950 . S
C405 C401 1.393 . S
C405 C404 1.391 . S
H406 C414 0.950 . S
H407 C419 0.950 . S
H408 C416 0.950 . S
H409 C418 0.950 . S
H410 C420 0.950 . S
H411 C422 0.950 . S
H412 C424 0.950 . S
H413 C425 0.950 . S
C414 H406 0.950 . S
C414 C415 1.386 . S
C414 C416 1.391 . S
C415 C414 1.386 . S
C415 C419 1.393 . S
C416 H408 0.950 . S
C416 C414 1.391 . S
C416 C417 1.400 . S
C417 C416 1.400 . S
C417 C418 1.398 . S
C417 C423 1.491 . S
C418 H409 0.950 . S
C418 C417 1.398 . S
C418 C419 1.391 . S
C419 H407 0.950 . S
C419 C415 1.393 . S
C419 C418 1.391 . S
C420 H410 0.950 . S
C420 C421 1.386 . S
C420 C422 1.391 . S
C421 C420 1.386 . S
C421 C425 1.393 . S
C422 H411 0.950 . S
C422 C420 1.391 . S
C422 C423 1.400 . S
C423 C417 1.491 . S
C423 C422 1.400 . S
C423 C424 1.398 . S
C424 H412 0.950 . S
C424 C423 1.398 . S
C424 C425 1.391 . S
C425 H413 0.950 . S
C425 C421 1.393 . S
C425 C424 1.391 . S
H426 C434 0.950 . S
H427 C439 0.950 . S
H428 C436 0.950 . S
H429 C438 0.950 . S
H430 C440 0.950 . S
H431 C442 0.940 1_554 S
H432 C444 0.959 . S
H433 C445 0.950 . S
C434 H426 0.950 . S
C434 C435 1.386 . S
C434 C436 1.391 . S
C435 C434 1.386 . S
C435 C439 1.393 1_455 S
C436 H428 0.950 . S
C436 C434 1.391 . S
C436 C437 1.400 . S
C437 C436 1.400 . S
C437 C438 1.398 1_455 S
C437 C443 1.492 . S
C438 H429 0.950 . S
C438 C437 1.398 1_655 S
C438 C439 1.391 . S
C439 H427 0.950 . S
C439 C435 1.393 1_655 S
C439 C438 1.391 . S
C440 H430 0.950 . S
C440 C441 1.386 . S
C440 C442 1.408 . S
C441 C440 1.386 . S
C441 C445 1.393 1_655 S
C442 H431 0.940 1_556 S
C442 C440 1.408 . S
C442 C443 1.389 1_656 S
C443 C437 1.492 . S
C443 C442 1.389 1_454 S
C443 C444 1.403 1_554 S
C444 H432 0.959 . S
C444 C443 1.403 1_556 S
C444 C445 1.391 . S
C445 H433 0.950 . S
C445 C441 1.393 1_455 S
C445 C444 1.391 . S
H446 C454 0.950 . S
H447 C459 0.950 . S
H448 C456 0.950 . S
H449 C458 0.950 . S
H450 C460 0.950 . S
H451 C462 0.950 . S
H452 C464 0.950 . S
H453 C465 0.950 . S
C454 H446 0.950 . S
C454 C455 1.386 . S
C454 C456 1.391 . S
C455 C454 1.386 . S
C455 C459 1.393 . S
C456 H448 0.950 . S
C456 C454 1.391 . S
C456 C457 1.400 . S
C457 C456 1.400 . S
C457 C458 1.398 . S
C457 C463 1.491 . S
C458 H449 0.950 . S
C458 C457 1.398 . S
C458 C459 1.391 . S
C459 H447 0.950 . S
C459 C455 1.393 . S
C459 C458 1.391 . S
C460 H450 0.950 . S
C460 C461 1.386 . S
C460 C462 1.391 . S
C461 C460 1.386 . S
C461 C465 1.393 . S
C462 H451 0.950 . S
C462 C460 1.391 . S
C462 C463 1.400 . S
C463 C457 1.491 . S
C463 C462 1.400 . S
C463 C464 1.398 . S
C464 H452 0.950 . S
C464 C463 1.398 . S
C464 C465 1.391 . S
C465 H453 0.950 . S
C465 C461 1.393 . S
C465 C464 1.391 . S
H466 C474 0.950 . S
H467 C479 0.950 . S
H468 C476 0.950 . S
H469 C478 0.950 . S
H470 C480 0.950 . S
H471 C482 0.950 . S
H472 C484 0.950 . S
H473 C485 0.950 . S
C474 H466 0.950 . S
C474 C475 1.386 . S
C474 C476 1.391 . S
C475 C474 1.386 . S
C475 C479 1.393 . S
C476 H468 0.950 . S
C476 C474 1.391 . S
C476 C477 1.400 . S
C477 C476 1.400 . S
C477 C478 1.398 . S
C477 C483 1.491 . S
C478 H469 0.950 . S
C478 C477 1.398 . S
C478 C479 1.391 . S
C479 H467 0.950 . S
C479 C475 1.393 . S
C479 C478 1.391 . S
C480 H470 0.950 . S
C480 C481 1.386 . S
C480 C482 1.391 . S
C481 C480 1.386 . S
C481 C485 1.393 . S
C482 H471 0.950 . S
C482 C480 1.391 . S
C482 C483 1.400 . S
C483 C477 1.491 . S
C483 C482 1.400 . S
C483 C484 1.398 . S
C484 H472 0.950 . S
C484 C483 1.398 . S
C484 C485 1.391 . S
C485 H473 0.950 . S
C485 C481 1.393 . S
C485 C484 1.391 . S
H486 C494 0.950 . S
H487 C499 0.950 . S
H488 C496 0.950 . S
H489 C498 0.950 . S
H490 C500 0.950 . S
H491 C502 0.950 . S
H492 C504 0.950 . S
H493 C505 0.950 . S
C494 H486 0.950 . S
C494 C495 1.386 1_565 S
C494 C496 1.391 . S
C495 C494 1.386 1_545 S
C495 C499 1.393 . S
C496 H488 0.950 . S
C496 C494 1.391 . S
C496 C497 1.400 1_565 S
C497 C496 1.400 1_545 S
C497 C498 1.398 . S
C497 C503 1.491 . S
C498 H489 0.950 . S
C498 C497 1.398 . S
C498 C499 1.391 . S
C499 H487 0.950 . S
C499 C495 1.393 . S
C499 C498 1.391 . S
C500 H490 0.950 . S
C500 C501 1.386 . S
C500 C502 1.391 . S
C501 C500 1.386 . S
C501 C505 1.393 1_545 S
C502 H491 0.950 . S
C502 C500 1.391 . S
C502 C503 1.400 . S
C503 C497 1.491 . S
C503 C502 1.400 . S
C503 C504 1.398 1_545 S
C504 H492 0.950 . S
C504 C503 1.398 1_565 S
C504 C505 1.391 . S
C505 H493 0.950 . S
C505 C501 1.393 1_565 S
C505 C504 1.391 . S
H506 C514 0.950 . S
H507 C519 0.950 . S
H508 C516 0.950 . S
H509 C518 0.950 . S
H510 C520 0.950 . S
H511 C522 0.950 . S
H512 C524 0.950 1_556 S
H513 C525 0.950 . S
C514 H506 0.950 . S
C514 C515 1.386 . S
C514 C516 1.391 . S
C515 C514 1.386 . S
C515 C519 1.393 . S
C516 H508 0.950 . S
C516 C514 1.391 . S
C516 C517 1.400 . S
C517 C516 1.400 . S
C517 C518 1.398 . S
C517 C523 1.491 . S
C518 H509 0.950 . S
C518 C517 1.398 . S
C518 C519 1.391 . S
C519 H507 0.950 . S
C519 C515 1.393 . S
C519 C518 1.391 . S
C520 H510 0.950 . S
C520 C521 1.386 . S
C520 C522 1.391 . S
C521 C520 1.386 . S
C521 C525 1.393 . S
C522 H511 0.950 . S
C522 C520 1.391 . S
C522 C523 1.400 1_554 S
C523 C517 1.491 . S
C523 C522 1.400 1_556 S
C523 C524 1.398 1_556 S
C524 H512 0.950 1_554 S
C524 C523 1.398 1_554 S
C524 C525 1.391 . S
C525 H513 0.950 . S
C525 C521 1.393 . S
C525 C524 1.391 . S
H526 C534 0.950 . S
H527 C539 0.950 . S
H528 C536 0.950 . S
H529 C538 0.950 . S
H530 C540 0.950 . S
H531 C542 0.950 . S
H532 C544 0.950 . S
H533 C545 0.950 . S
C534 H526 0.950 . S
C534 C535 1.386 1_655 S
C534 C536 1.391 . S
C535 C534 1.386 1_455 S
C535 C539 1.393 . S
C536 H528 0.950 . S
C536 C534 1.391 . S
C536 C537 1.400 1_655 S
C537 C536 1.400 1_455 S
C537 C538 1.398 . S
C537 C543 1.491 . S
C538 H529 0.950 . S
C538 C537 1.398 . S
C538 C539 1.391 . S
C539 H527 0.950 . S
C539 C535 1.393 . S
C539 C538 1.391 . S
C540 H530 0.950 . S
C540 C541 1.386 . S
C540 C542 1.391 . S
C541 C540 1.386 . S
C541 C545 1.393 1_455 S
C542 H531 0.950 . S
C542 C540 1.391 . S
C542 C543 1.400 . S
C543 C537 1.491 . S
C543 C542 1.400 . S
C543 C544 1.398 1_455 S
C544 H532 0.950 . S
C544 C543 1.398 1_655 S
C544 C545 1.391 . S
C545 H533 0.950 . S
C545 C541 1.393 1_655 S
C545 C544 1.391 . S
C195 C19 3.157 . S
C201 C180 2.814 . S
C215 C49 3.238 . S
C221 C158 2.889 . S
C235 C99 2.867 . S
C241 C172 2.819 . S
C255 C9 2.939 . S
C261 C183 2.868 . S
C281 C161 2.815 . S
C275 C59 2.867 . S
C301 C169 2.906 . S
C295 C89 3.239 . S
C315 C55 0.494 . S
C321 C136 0.704 . S
C335 C85 0.420 . S
C341 C147 0.583 . S
C355 C15 0.469 . S
C361 C125 0.684 . S
C381 C139 0.285 . S
C375 C45 0.347 . S
C401 C150 0.231 . S
C395 C95 0.255 . S
C415 C5 0.347 . S
C421 C128 0.288 . S
C441 C149 1.201 . S
C435 C18 1.204 . S
C455 C58 1.216 . S
C461 C127 1.168 . S
C475 C98 1.207 . S
C481 C138 1.197 . S
C501 C171 1.680 . S
C495 C48 1.670 . S
C521 C182 1.664 . S
C515 C88 1.700 . S
C535 C8 1.646 . S
C541 C160 1.662 . S
