# Generated by pormake.
# Topology gar, (4,6)-cn, num edge types: 1
# Building blocks:
#     Node 0, Type 0, BuildingBlock: CEKHIL_clean_sbu_0, # of connection points: 4
#     Node 1, Type 0, BuildingBlock: CEKHIL_clean_sbu_0, # of connection points: 4
#     Node 2, Type 0, BuildingBlock: CEKHIL_clean_sbu_0, # of connection points: 4
#     Node 3, Type 0, BuildingBlock: CEKHIL_clean_sbu_0, # of connection points: 4
#     Node 4, Type 0, BuildingBlock: CEKHIL_clean_sbu_0, # of connection points: 4
#     Node 5, Type 0, BuildingBlock: CEKHIL_clean_sbu_0, # of connection points: 4
#     Node 6, Type 0, BuildingBlock: CEKHIL_clean_sbu_0, # of connection points: 4
#     Node 7, Type 0, BuildingBlock: CEKHIL_clean_sbu_0, # of connection points: 4
#     Node 8, Type 0, BuildingBlock: CEKHIL_clean_sbu_0, # of connection points: 4
#     Node 9, Type 0, BuildingBlock: CEKHIL_clean_sbu_0, # of connection points: 4
#     Node 10, Type 0, BuildingBlock: CEKHIL_clean_sbu_0, # of connection points: 4
#     Node 11, Type 0, BuildingBlock: CEKHIL_clean_sbu_0, # of connection points: 4
#     Node 12, Type 0, BuildingBlock: CEKHIL_clean_sbu_0, # of connection points: 4
#     Node 13, Type 0, BuildingBlock: CEKHIL_clean_sbu_0, # of connection points: 4
#     Node 14, Type 0, BuildingBlock: CEKHIL_clean_sbu_0, # of connection points: 4
#     Node 15, Type 0, BuildingBlock: CEKHIL_clean_sbu_0, # of connection points: 4
#     Node 16, Type 0, BuildingBlock: CEKHIL_clean_sbu_0, # of connection points: 4
#     Node 17, Type 0, BuildingBlock: CEKHIL_clean_sbu_0, # of connection points: 4
#     Node 18, Type 0, BuildingBlock: CEKHIL_clean_sbu_0, # of connection points: 4
#     Node 19, Type 0, BuildingBlock: CEKHIL_clean_sbu_0, # of connection points: 4
#     Node 20, Type 0, BuildingBlock: CEKHIL_clean_sbu_0, # of connection points: 4
#     Node 21, Type 0, BuildingBlock: CEKHIL_clean_sbu_0, # of connection points: 4
#     Node 22, Type 0, BuildingBlock: CEKHIL_clean_sbu_0, # of connection points: 4
#     Node 23, Type 0, BuildingBlock: CEKHIL_clean_sbu_0, # of connection points: 4
#     Node 24, Type 1, BuildingBlock: BETDEL_clean_sbu_0, # of connection points: 6
#     Node 25, Type 1, BuildingBlock: BETDEL_clean_sbu_0, # of connection points: 6
#     Node 26, Type 1, BuildingBlock: BETDEL_clean_sbu_0, # of connection points: 6
#     Node 27, Type 1, BuildingBlock: BETDEL_clean_sbu_0, # of connection points: 6
#     Node 28, Type 1, BuildingBlock: BETDEL_clean_sbu_0, # of connection points: 6
#     Node 29, Type 1, BuildingBlock: BETDEL_clean_sbu_0, # of connection points: 6
#     Node 30, Type 1, BuildingBlock: BETDEL_clean_sbu_0, # of connection points: 6
#     Node 31, Type 1, BuildingBlock: BETDEL_clean_sbu_0, # of connection points: 6
#     Node 32, Type 1, BuildingBlock: BETDEL_clean_sbu_0, # of connection points: 6
#     Node 33, Type 1, BuildingBlock: BETDEL_clean_sbu_0, # of connection points: 6
#     Node 34, Type 1, BuildingBlock: BETDEL_clean_sbu_0, # of connection points: 6
#     Node 35, Type 1, BuildingBlock: BETDEL_clean_sbu_0, # of connection points: 6
#     Node 36, Type 1, BuildingBlock: BETDEL_clean_sbu_0, # of connection points: 6
#     Node 37, Type 1, BuildingBlock: BETDEL_clean_sbu_0, # of connection points: 6
#     Node 38, Type 1, BuildingBlock: BETDEL_clean_sbu_0, # of connection points: 6
#     Node 39, Type 1, BuildingBlock: BETDEL_clean_sbu_0, # of connection points: 6
#     Edge 40, Type (0, 1), BuildingBlock: MIFKUJ_clean_linker_0, # of connection points: 2
#     Edge 41, Type (0, 1), BuildingBlock: MIFKUJ_clean_linker_0, # of connection points: 2
#     Edge 42, Type (0, 1), BuildingBlock: MIFKUJ_clean_linker_0, # of connection points: 2
#     Edge 43, Type (0, 1), BuildingBlock: MIFKUJ_clean_linker_0, # of connection points: 2
#     Edge 44, Type (0, 1), BuildingBlock: MIFKUJ_clean_linker_0, # of connection points: 2
#     Edge 45, Type (0, 1), BuildingBlock: MIFKUJ_clean_linker_0, # of connection points: 2
#     Edge 46, Type (0, 1), BuildingBlock: MIFKUJ_clean_linker_0, # of connection points: 2
#     Edge 47, Type (0, 1), BuildingBlock: MIFKUJ_clean_linker_0, # of connection points: 2
#     Edge 48, Type (0, 1), BuildingBlock: MIFKUJ_clean_linker_0, # of connection points: 2
#     Edge 49, Type (0, 1), BuildingBlock: MIFKUJ_clean_linker_0, # of connection points: 2
#     Edge 50, Type (0, 1), BuildingBlock: MIFKUJ_clean_linker_0, # of connection points: 2
#     Edge 51, Type (0, 1), BuildingBlock: MIFKUJ_clean_linker_0, # of connection points: 2
#     Edge 52, Type (0, 1), BuildingBlock: MIFKUJ_clean_linker_0, # of connection points: 2
#     Edge 53, Type (0, 1), BuildingBlock: MIFKUJ_clean_linker_0, # of connection points: 2
#     Edge 54, Type (0, 1), BuildingBlock: MIFKUJ_clean_linker_0, # of connection points: 2
#     Edge 55, Type (0, 1), BuildingBlock: MIFKUJ_clean_linker_0, # of connection points: 2
#     Edge 56, Type (0, 1), BuildingBlock: MIFKUJ_clean_linker_0, # of connection points: 2
#     Edge 57, Type (0, 1), BuildingBlock: MIFKUJ_clean_linker_0, # of connection points: 2
#     Edge 58, Type (0, 1), BuildingBlock: MIFKUJ_clean_linker_0, # of connection points: 2
#     Edge 59, Type (0, 1), BuildingBlock: MIFKUJ_clean_linker_0, # of connection points: 2
#     Edge 60, Type (0, 1), BuildingBlock: MIFKUJ_clean_linker_0, # of connection points: 2
#     Edge 61, Type (0, 1), BuildingBlock: MIFKUJ_clean_linker_0, # of connection points: 2
#     Edge 62, Type (0, 1), BuildingBlock: MIFKUJ_clean_linker_0, # of connection points: 2
#     Edge 63, Type (0, 1), BuildingBlock: MIFKUJ_clean_linker_0, # of connection points: 2
#     Edge 64, Type (0, 1), BuildingBlock: MIFKUJ_clean_linker_0, # of connection points: 2
#     Edge 65, Type (0, 1), BuildingBlock: MIFKUJ_clean_linker_0, # of connection points: 2
#     Edge 66, Type (0, 1), BuildingBlock: MIFKUJ_clean_linker_0, # of connection points: 2
#     Edge 67, Type (0, 1), BuildingBlock: MIFKUJ_clean_linker_0, # of connection points: 2
#     Edge 68, Type (0, 1), BuildingBlock: MIFKUJ_clean_linker_0, # of connection points: 2
#     Edge 69, Type (0, 1), BuildingBlock: MIFKUJ_clean_linker_0, # of connection points: 2
#     Edge 70, Type (0, 1), BuildingBlock: MIFKUJ_clean_linker_0, # of connection points: 2
#     Edge 71, Type (0, 1), BuildingBlock: MIFKUJ_clean_linker_0, # of connection points: 2
#     Edge 72, Type (0, 1), BuildingBlock: MIFKUJ_clean_linker_0, # of connection points: 2
#     Edge 73, Type (0, 1), BuildingBlock: MIFKUJ_clean_linker_0, # of connection points: 2
#     Edge 74, Type (0, 1), BuildingBlock: MIFKUJ_clean_linker_0, # of connection points: 2
#     Edge 75, Type (0, 1), BuildingBlock: MIFKUJ_clean_linker_0, # of connection points: 2
#     Edge 76, Type (0, 1), BuildingBlock: MIFKUJ_clean_linker_0, # of connection points: 2
#     Edge 77, Type (0, 1), BuildingBlock: MIFKUJ_clean_linker_0, # of connection points: 2
#     Edge 78, Type (0, 1), BuildingBlock: MIFKUJ_clean_linker_0, # of connection points: 2
#     Edge 79, Type (0, 1), BuildingBlock: MIFKUJ_clean_linker_0, # of connection points: 2
#     Edge 80, Type (0, 1), BuildingBlock: MIFKUJ_clean_linker_0, # of connection points: 2
#     Edge 81, Type (0, 1), BuildingBlock: MIFKUJ_clean_linker_0, # of connection points: 2
#     Edge 82, Type (0, 1), BuildingBlock: MIFKUJ_clean_linker_0, # of connection points: 2
#     Edge 83, Type (0, 1), BuildingBlock: MIFKUJ_clean_linker_0, # of connection points: 2
#     Edge 84, Type (0, 1), BuildingBlock: MIFKUJ_clean_linker_0, # of connection points: 2
#     Edge 85, Type (0, 1), BuildingBlock: MIFKUJ_clean_linker_0, # of connection points: 2
#     Edge 86, Type (0, 1), BuildingBlock: MIFKUJ_clean_linker_0, # of connection points: 2
#     Edge 87, Type (0, 1), BuildingBlock: MIFKUJ_clean_linker_0, # of connection points: 2
#     Edge 88, Type (0, 1), BuildingBlock: MIFKUJ_clean_linker_0, # of connection points: 2
#     Edge 89, Type (0, 1), BuildingBlock: MIFKUJ_clean_linker_0, # of connection points: 2
#     Edge 90, Type (0, 1), BuildingBlock: MIFKUJ_clean_linker_0, # of connection points: 2
#     Edge 91, Type (0, 1), BuildingBlock: MIFKUJ_clean_linker_0, # of connection points: 2
#     Edge 92, Type (0, 1), BuildingBlock: MIFKUJ_clean_linker_0, # of connection points: 2
#     Edge 93, Type (0, 1), BuildingBlock: MIFKUJ_clean_linker_0, # of connection points: 2
#     Edge 94, Type (0, 1), BuildingBlock: MIFKUJ_clean_linker_0, # of connection points: 2
#     Edge 95, Type (0, 1), BuildingBlock: MIFKUJ_clean_linker_0, # of connection points: 2
#     Edge 96, Type (0, 1), BuildingBlock: MIFKUJ_clean_linker_0, # of connection points: 2
#     Edge 97, Type (0, 1), BuildingBlock: MIFKUJ_clean_linker_0, # of connection points: 2
#     Edge 98, Type (0, 1), BuildingBlock: MIFKUJ_clean_linker_0, # of connection points: 2
#     Edge 99, Type (0, 1), BuildingBlock: MIFKUJ_clean_linker_0, # of connection points: 2
#     Edge 100, Type (0, 1), BuildingBlock: MIFKUJ_clean_linker_0, # of connection points: 2
#     Edge 101, Type (0, 1), BuildingBlock: MIFKUJ_clean_linker_0, # of connection points: 2
#     Edge 102, Type (0, 1), BuildingBlock: MIFKUJ_clean_linker_0, # of connection points: 2
#     Edge 103, Type (0, 1), BuildingBlock: MIFKUJ_clean_linker_0, # of connection points: 2
#     Edge 104, Type (0, 1), BuildingBlock: MIFKUJ_clean_linker_0, # of connection points: 2
#     Edge 105, Type (0, 1), BuildingBlock: MIFKUJ_clean_linker_0, # of connection points: 2
#     Edge 106, Type (0, 1), BuildingBlock: MIFKUJ_clean_linker_0, # of connection points: 2
#     Edge 107, Type (0, 1), BuildingBlock: MIFKUJ_clean_linker_0, # of connection points: 2
#     Edge 108, Type (0, 1), BuildingBlock: MIFKUJ_clean_linker_0, # of connection points: 2
#     Edge 109, Type (0, 1), BuildingBlock: MIFKUJ_clean_linker_0, # of connection points: 2
#     Edge 110, Type (0, 1), BuildingBlock: MIFKUJ_clean_linker_0, # of connection points: 2
#     Edge 111, Type (0, 1), BuildingBlock: MIFKUJ_clean_linker_0, # of connection points: 2
#     Edge 112, Type (0, 1), BuildingBlock: MIFKUJ_clean_linker_0, # of connection points: 2
#     Edge 113, Type (0, 1), BuildingBlock: MIFKUJ_clean_linker_0, # of connection points: 2
#     Edge 114, Type (0, 1), BuildingBlock: MIFKUJ_clean_linker_0, # of connection points: 2
#     Edge 115, Type (0, 1), BuildingBlock: MIFKUJ_clean_linker_0, # of connection points: 2
#     Edge 116, Type (0, 1), BuildingBlock: MIFKUJ_clean_linker_0, # of connection points: 2
#     Edge 117, Type (0, 1), BuildingBlock: MIFKUJ_clean_linker_0, # of connection points: 2
#     Edge 118, Type (0, 1), BuildingBlock: MIFKUJ_clean_linker_0, # of connection points: 2
#     Edge 119, Type (0, 1), BuildingBlock: MIFKUJ_clean_linker_0, # of connection points: 2
#     Edge 120, Type (0, 1), BuildingBlock: MIFKUJ_clean_linker_0, # of connection points: 2
#     Edge 121, Type (0, 1), BuildingBlock: MIFKUJ_clean_linker_0, # of connection points: 2
#     Edge 122, Type (0, 1), BuildingBlock: MIFKUJ_clean_linker_0, # of connection points: 2
#     Edge 123, Type (0, 1), BuildingBlock: MIFKUJ_clean_linker_0, # of connection points: 2
#     Edge 124, Type (0, 1), BuildingBlock: MIFKUJ_clean_linker_0, # of connection points: 2
#     Edge 125, Type (0, 1), BuildingBlock: MIFKUJ_clean_linker_0, # of connection points: 2
#     Edge 126, Type (0, 1), BuildingBlock: MIFKUJ_clean_linker_0, # of connection points: 2
#     Edge 127, Type (0, 1), BuildingBlock: MIFKUJ_clean_linker_0, # of connection points: 2
#     Edge 128, Type (0, 1), BuildingBlock: MIFKUJ_clean_linker_0, # of connection points: 2
#     Edge 129, Type (0, 1), BuildingBlock: MIFKUJ_clean_linker_0, # of connection points: 2
#     Edge 130, Type (0, 1), BuildingBlock: MIFKUJ_clean_linker_0, # of connection points: 2
#     Edge 131, Type (0, 1), BuildingBlock: MIFKUJ_clean_linker_0, # of connection points: 2
#     Edge 132, Type (0, 1), BuildingBlock: MIFKUJ_clean_linker_0, # of connection points: 2
#     Edge 133, Type (0, 1), BuildingBlock: MIFKUJ_clean_linker_0, # of connection points: 2
#     Edge 134, Type (0, 1), BuildingBlock: MIFKUJ_clean_linker_0, # of connection points: 2
#     Edge 135, Type (0, 1), BuildingBlock: MIFKUJ_clean_linker_0, # of connection points: 2
# Relax obj value: 0.138
# Max RMSD: 0.261
# Mean RMSD: 0.140
data_MOF--net-gar--node1-CEKHIL_clean_sbu_0--node2-BETDEL_clean_sbu_0--edge1-MIFKUJ_clean_linker_0
_symmetry_space_group_name_H-M    P1
_symmetry_Int_Tables_number       1
_symmetry_cell_setting            triclinic
loop_
_symmetry_equiv_pos_as_xyz
'x, y, z'
_cell_length_a     72.224986
_cell_length_b     68.628939
_cell_length_c     69.325455
_cell_angle_alpha  95.016528
_cell_angle_beta   92.683804
_cell_angle_gamma 100.09716
loop_
_atom_site_label
_atom_site_type_symbol
_atom_site_fract_x
_atom_site_fract_y
_atom_site_fract_z
_atom_type_partial_charge
Co0 Co 0.03352 0.27842 0.38804 0.0
O1 O 0.06019 0.27821 0.3878 0.0
O2 O 0.0392 0.26534 0.36374 0.0
C3 C 0.03594 0.31062 0.39946 0.0
O4 O 0.00528 0.27686 0.38219 0.0
Co5 Co 0.01418 0.28713 0.42618 0.0
O6 O 0.99209 0.28849 0.40857 0.0
C7 C 0.02741 0.24908 0.41843 0.0
C8 C 0.05673 0.26926 0.37037 0.0
C9 C 0.99125 0.28238 0.3906 0.0
O10 O 0.02962 0.25245 0.40057 0.0
O11 O 0.02313 0.26192 0.43117 0.0
O12 O 0.03751 0.30586 0.38112 0.0
O13 O 0.03472 0.29616 0.4103 0.0
Co14 Co 0.99413 0.78166 0.63647 0.0
O15 O 0.96741 0.78127 0.63621 0.0
O16 O 0.98471 0.77519 0.66137 0.0
C17 C 1.00083 0.8105 0.62254 0.0
O18 O 0.02212 0.78137 0.64238 0.0
Co19 Co 0.01454 0.78035 0.59793 0.0
O20 O 0.03784 0.78446 0.61523 0.0
C21 C 0.99031 0.74431 0.60898 0.0
C22 C 0.96827 0.77714 0.65409 0.0
C23 C 0.03752 0.78305 0.63344 0.0
O24 O 0.98966 0.75261 0.62627 0.0
O25 O 0.99762 0.75361 0.59517 0.0
O26 O 0.99883 0.81079 0.6411 0.0
O27 O 0.99755 0.79311 0.61309 0.0
Co28 Co 0.5335 0.77679 0.88704 0.0
O29 O 0.55985 0.77506 0.88643 0.0
O30 O 0.53829 0.76281 0.86275 0.0
C31 C 0.53772 0.80938 0.89793 0.0
O32 O 0.50531 0.77687 0.88181 0.0
Co33 Co 0.51581 0.78747 0.92572 0.0
O34 O 0.49487 0.79205 0.90815 0.0
C35 C 0.52592 0.7478 0.91786 0.0
C36 C 0.5559 0.76598 0.86913 0.0
C37 C 0.49267 0.78498 0.89039 0.0
O38 O 0.52848 0.75103 0.90001 0.0
O39 O 0.52242 0.76111 0.93061 0.0
O40 O 0.53882 0.80406 0.87962 0.0
O41 O 0.53599 0.7951 0.90902 0.0
Co42 Co 0.49525 0.27817 0.13641 0.0
O43 O 0.46845 0.27742 0.13641 0.0
O44 O 0.48641 0.27282 0.16175 0.0
C45 C 0.50122 0.30626 0.12106 0.0
O46 O 0.52328 0.27861 0.14243 0.0
Co47 Co 0.5157 0.27531 0.0982 0.0
O48 O 0.53917 0.28081 0.11539 0.0
C49 C 0.49268 0.23944 0.11107 0.0
C50 C 0.46979 0.27425 0.15456 0.0
C51 C 0.53875 0.28018 0.13369 0.0
O52 O 0.49129 0.24876 0.12773 0.0
O53 O 0.50006 0.24789 0.09681 0.0
O54 O 0.49949 0.3073 0.13968 0.0
O55 O 0.49822 0.28853 0.11229 0.0
Co56 Co 0.02912 0.79654 0.15144 0.0
O57 O 0.00203 0.78985 0.14735 0.0
O58 O 0.0182 0.78637 0.17433 0.0
C59 C 0.03116 0.82628 0.13907 0.0
O60 O 0.05667 0.80247 0.16197 0.0
Co61 Co 0.05617 0.80455 0.11851 0.0
O62 O 0.07613 0.81363 0.13949 0.0
C63 C 0.03965 0.76304 0.12507 0.0
C64 C 0.0019 0.7851 0.16507 0.0
C65 C 0.07321 0.80955 0.15677 0.0
O66 O 0.03188 0.76899 0.14035 0.0
O67 O 0.04872 0.77491 0.11408 0.0
O68 O 0.02708 0.82456 0.15698 0.0
O69 O 0.03316 0.81007 0.12915 0.0
Co70 Co 0.50848 0.76643 0.3741 0.0
O71 O 0.53565 0.77139 0.37615 0.0
O72 O 0.51804 0.75723 0.34997 0.0
C73 C 0.50494 0.79648 0.38781 0.0
O74 O 0.48035 0.76001 0.36602 0.0
Co75 Co 0.48522 0.76671 0.41072 0.0
O76 O 0.46335 0.76492 0.39181 0.0
C77 C 0.50689 0.73498 0.40183 0.0
C78 C 0.53478 0.76355 0.35832 0.0
C79 C 0.46456 0.76108 0.37363 0.0
O80 O 0.50811 0.73964 0.38428 0.0
O81 O 0.50023 0.74536 0.41514 0.0
O82 O 0.50853 0.79428 0.36961 0.0
O83 O 0.5053 0.78116 0.39723 0.0
Co84 Co 0.52777 0.29536 0.64804 0.0
O85 O 0.5007 0.29 0.6435 0.0
O86 O 0.51607 0.28566 0.67069 0.0
C87 C 0.53154 0.32528 0.63607 0.0
O88 O 0.55507 0.29996 0.65901 0.0
Co89 Co 0.55578 0.3023 0.61585 0.0
O90 O 0.57519 0.31167 0.63731 0.0
C91 C 0.53792 0.2612 0.62234 0.0
C92 C 0.50002 0.2853 0.66123 0.0
C93 C 0.57177 0.30719 0.65437 0.0
O94 O 0.52943 0.26755 0.63691 0.0
O95 O 0.54823 0.27263 0.61189 0.0
O96 O 0.52702 0.32357 0.65385 0.0
O97 O 0.5329 0.30895 0.62594 0.0
Co98 Co 0.00872 0.26856 0.87846 0.0
O99 O 0.03586 0.27166 0.88133 0.0
O100 O 0.01843 0.26018 0.85424 0.0
C101 C 0.00661 0.29858 0.89345 0.0
O102 O 0.98082 0.26399 0.86919 0.0
Co103 Co 0.98335 0.26921 0.91345 0.0
O104 O 0.96391 0.27296 0.89374 0.0
C105 C 1.00016 0.23369 0.90278 0.0
C106 C 0.03506 0.26498 0.86312 0.0
C107 C 0.9654 0.26804 0.87581 0.0
O108 O 0.00642 0.24091 0.88729 0.0
O109 O 0.99162 0.24307 0.91528 0.0
O110 O 0.01065 0.29695 0.87536 0.0
O111 O 0.00546 0.28257 0.9021 0.0
Co112 Co 0.39953 0.0509 0.28703 0.0
O113 O 0.39724 0.0769 0.27976 0.0
O114 O 0.37548 0.04965 0.27344 0.0
C115 C 0.41082 0.06082 0.31769 0.0
O116 O 0.39575 0.02204 0.29249 0.0
Co117 Co 0.43705 0.03864 0.29996 0.0
O118 O 0.42122 0.01385 0.30712 0.0
C119 C 0.42877 0.04414 0.25882 0.0
C120 C 0.38055 0.06861 0.27233 0.0
C121 C 0.40396 0.00966 0.30093 0.0
O122 O 0.41151 0.04487 0.2621 0.0
O123 O 0.44142 0.0436 0.27225 0.0
O124 O 0.39277 0.058 0.31336 0.0
O125 O 0.42137 0.0588 0.30341 0.0
Co126 Co 0.27431 0.14742 0.49026 0.0
O127 O 0.30143 0.14943 0.49311 0.0
O128 O 0.2808 0.12232 0.49652 0.0
C129 C 0.27384 0.16238 0.46219 0.0
O130 O 0.24562 0.13894 0.4879 0.0
Co131 Co 0.2554 0.18461 0.4908 0.0
O132 O 0.23137 0.16534 0.48571 0.0
C133 C 0.2717 0.17386 0.5273 0.0
C134 C 0.29835 0.13086 0.49652 0.0
C135 C 0.23069 0.14668 0.48602 0.0
O136 O 0.27363 0.15687 0.51885 0.0
O137 O 0.26669 0.18768 0.51814 0.0
O138 O 0.27483 0.14363 0.46186 0.0
O139 O 0.27454 0.17167 0.47929 0.0
Co140 Co 0.14212 0.00718 0.78675 0.0
O141 O 0.13957 0.97844 0.78243 0.0
O142 O 0.16527 0.99991 0.77812 0.0
C143 C 0.12887 0.00765 0.81593 0.0
O144 O 0.1513 0.03721 0.79024 0.0
Co145 Co 0.1086 0.02968 0.7913 0.0
O146 O 0.128 0.05414 0.79649 0.0
C147 C 0.11661 0.01301 0.7523 0.0
C148 C 0.15709 0.98147 0.77802 0.0
C149 C 0.14529 0.05361 0.79409 0.0
O150 O 0.13232 0.00884 0.759 0.0
O151 O 0.1047 0.01942 0.7632 0.0
O152 O 0.14639 0.00575 0.81481 0.0
O153 O 0.11975 0.00791 0.79955 0.0
Co154 Co 0.23555 0.89433 0.9956 0.0
O155 O 0.20981 0.89696 0.99918 0.0
O156 O 0.23459 0.92151 0.00412 0.0
C157 C 0.23055 0.87615 0.96669 0.0
O158 O 0.26373 0.89798 0.99304 0.0
Co159 Co 0.24878 0.85357 0.99286 0.0
O160 O 0.27401 0.86896 0.98857 0.0
C161 C 0.23664 0.87042 0.02963 0.0
C162 C 0.21651 0.91566 0.00424 0.0
C163 C 0.27687 0.8879 0.99 0.0
O164 O 0.23824 0.88759 0.02317 0.0
O165 O 0.23806 0.85457 0.01904 0.0
O166 O 0.23196 0.89538 0.96765 0.0
O167 O 0.23057 0.86858 0.98307 0.0
Co168 Co 0.25459 0.40195 0.02193 0.0
O169 O 0.22741 0.39959 0.02081 0.0
O170 O 0.24756 0.42678 0.03191 0.0
C171 C 0.25644 0.38804 0.99126 0.0
O172 O 0.28334 0.41067 0.02453 0.0
Co173 Co 0.27392 0.36495 0.01766 0.0
O174 O 0.29684 0.3848 0.01436 0.0
C175 C 0.2555 0.37411 0.05367 0.0
C176 C 0.23015 0.41812 0.02778 0.0
C177 C 0.29786 0.40325 0.01962 0.0
O178 O 0.25422 0.39154 0.04863 0.0
O179 O 0.26117 0.3608 0.04249 0.0
O180 O 0.25489 0.4066 0.99439 0.0
O181 O 0.25518 0.37822 0.00635 0.0
Co182 Co 0.77311 0.13401 0.0156 0.0
O183 O 0.79983 0.13492 0.01567 0.0
O184 O 0.77946 0.11097 0.0266 0.0
C185 C 0.7694 0.14175 0.985 0.0
O186 O 0.7447 0.12737 0.01711 0.0
Co187 Co 0.75524 0.17137 0.00968 0.0
O188 O 0.73104 0.15227 0.00763 0.0
C189 C 0.77679 0.16863 0.04619 0.0
C190 C 0.79676 0.11797 0.02304 0.0
C191 C 0.73001 0.13474 0.01273 0.0
O192 O 0.77621 0.14989 0.04181 0.0
O193 O 0.77113 0.18004 0.03443 0.0
O194 O 0.77031 0.12355 0.9882 0.0
O195 O 0.7723 0.15461 1e-05 0.0
Co196 Co 0.13432 0.50821 0.25022 0.0
O197 O 0.13599 0.48064 0.25144 0.0
O198 O 0.15812 0.50341 0.24128 0.0
C199 C 0.12329 0.51279 0.27976 0.0
O200 O 0.13859 0.53794 0.24785 0.0
Co201 Co 0.0968 0.5243 0.2525 0.0
O202 O 0.11286 0.55107 0.25406 0.0
C203 C 0.10431 0.49975 0.21751 0.0
C204 C 0.15268 0.48513 0.24502 0.0
C205 C 0.13021 0.55292 0.25055 0.0
O206 O 0.12186 0.50187 0.22318 0.0
O207 O 0.09199 0.50584 0.22807 0.0
O208 O 0.14129 0.51375 0.27807 0.0
O209 O 0.11274 0.50791 0.26398 0.0
Co210 Co 0.75948 0.90153 0.52325 0.0
O211 O 0.73224 0.89867 0.52211 0.0
O212 O 0.75196 0.92617 0.53311 0.0
C213 C 0.76143 0.88736 0.49278 0.0
O214 O 0.7882 0.91089 0.52569 0.0
Co215 Co 0.77966 0.86508 0.51927 0.0
O216 O 0.80295 0.88511 0.51855 0.0
C217 C 0.75992 0.87338 0.55452 0.0
C218 C 0.73464 0.91721 0.52903 0.0
C219 C 0.80326 0.90365 0.52262 0.0
O220 O 0.75917 0.89111 0.54996 0.0
O221 O 0.76564 0.86027 0.54315 0.0
O222 O 0.75965 0.9059 0.49563 0.0
O223 O 0.76046 0.87781 0.50801 0.0
Co224 Co 0.88435 0.045 0.24974 0.0
O225 O 0.88673 0.07362 0.25269 0.0
O226 O 0.86162 0.05294 0.23933 0.0
C227 C 0.89516 0.0418 0.28035 0.0
O228 O 0.8762 0.01469 0.24531 0.0
Co229 Co 0.91962 0.02494 0.25384 0.0
O230 O 0.9004 0.00075 0.25556 0.0
C231 C 0.91296 0.0447 0.21874 0.0
C232 C 0.86968 0.07117 0.24493 0.0
C233 C 0.88314 0.99947 0.24987 0.0
O234 O 0.89615 0.04607 0.2236 0.0
O235 O 0.92499 0.03858 0.22977 0.0
O236 O 0.87781 0.04385 0.27684 0.0
O237 O 0.90566 0.04378 0.26583 0.0
Co238 Co 0.27542 0.63834 0.50926 0.0
O239 O 0.3025 0.64312 0.51312 0.0
O240 O 0.28313 0.61816 0.52373 0.0
C241 C 0.27468 0.64306 0.4776 0.0
O242 O 0.24731 0.62753 0.50774 0.0
Co243 Co 0.25237 0.66959 0.49591 0.0
O244 O 0.2305 0.64745 0.49346 0.0
C245 C 0.26735 0.67224 0.5368 0.0
C246 C 0.30031 0.6269 0.52181 0.0
C247 C 0.23162 0.63138 0.50097 0.0
O248 O 0.2733 0.65567 0.53378 0.0
O249 O 0.25985 0.68063 0.52342 0.0
O250 O 0.27734 0.62607 0.48301 0.0
O251 O 0.27381 0.65682 0.49125 0.0
Co252 Co 0.3834 0.54303 0.7472 0.0
O253 O 0.3858 0.57161 0.75095 0.0
O254 O 0.36053 0.5511 0.73759 0.0
C255 C 0.3947 0.5389 0.7773 0.0
O256 O 0.37516 0.51286 0.74196 0.0
Co257 Co 0.41854 0.52264 0.74968 0.0
O258 O 0.39941 0.49814 0.75039 0.0
C259 C 0.4115 0.54406 0.71584 0.0
C260 C 0.36864 0.56924 0.74348 0.0
C261 C 0.38207 0.49728 0.7453 0.0
O262 O 0.39468 0.54491 0.72095 0.0
O263 O 0.42373 0.53766 0.72638 0.0
O264 O 0.37731 0.54105 0.7743 0.0
O265 O 0.40497 0.54131 0.76265 0.0
Co266 Co 0.63135 0.00703 0.75934 0.0
O267 O 0.63217 0.97942 0.7615 0.0
O268 O 0.65629 0.00206 0.75476 0.0
C269 C 0.61611 0.0118 0.78646 0.0
O270 O 0.63646 0.03672 0.75674 0.0
Co271 Co 0.59384 0.02287 0.7547 0.0
O272 O 0.60997 0.04967 0.75679 0.0
C273 C 0.60621 0.99784 0.72282 0.0
C274 C 0.64986 0.98381 0.75799 0.0
C275 C 0.62783 0.05159 0.75656 0.0
O276 O 0.62299 0.00078 0.73095 0.0
O277 O 0.59226 0.0034 0.73108 0.0
O278 O 0.63424 0.0125 0.7876 0.0
O279 O 0.60781 0.00691 0.76941 0.0
Co280 Co 0.76973 0.64736 0.99206 0.0
O281 O 0.79692 0.65107 0.9959 0.0
O282 O 0.77724 0.62407 0.00175 0.0
C283 C 0.76962 0.65894 0.96228 0.0
O284 O 0.7413 0.63709 0.98949 0.0
Co285 Co 0.74774 0.68154 0.98608 0.0
O286 O 0.72552 0.66012 0.97941 0.0
C287 C 0.76358 0.67683 0.02538 0.0
C288 C 0.79456 0.63323 0.00142 0.0
C289 C 0.72593 0.64254 0.98376 0.0
O290 O 0.76791 0.65995 0.01936 0.0
O291 O 0.757 0.68807 0.01402 0.0
O292 O 0.77134 0.64062 0.96404 0.0
O293 O 0.76894 0.66968 0.97835 0.0
Co294 Co 0.89805 0.5445 0.78182 0.0
O295 O 0.89754 0.56998 0.77214 0.0
O296 O 0.8733 0.54498 0.77065 0.0
C297 C 0.91307 0.55627 0.81067 0.0
O298 O 0.89221 0.51674 0.79066 0.0
Co299 Co 0.93452 0.52886 0.79272 0.0
O300 O 0.9177 0.50744 0.80416 0.0
C301 C 0.92161 0.5282 0.7514 0.0
C302 C 0.87984 0.56312 0.76721 0.0
C303 C 0.90003 0.50459 0.79994 0.0
O304 O 0.90629 0.534 0.75616 0.0
O305 O 0.93484 0.52648 0.76374 0.0
O306 O 0.89499 0.55546 0.80812 0.0
O307 O 0.92164 0.55139 0.79557 0.0
Co308 Co 0.74526 0.40471 0.50186 0.0
O309 O 0.71983 0.40562 0.50843 0.0
O310 O 0.74368 0.4311 0.5127 0.0
C311 C 0.73774 0.38805 0.47242 0.0
O312 O 0.77289 0.41031 0.4961 0.0
Co313 Co 0.76079 0.36562 0.49315 0.0
O314 O 0.78258 0.38289 0.4834 0.0
C315 C 0.75668 0.38092 0.53375 0.0
C316 C 0.72586 0.42434 0.514 0.0
C317 C 0.78526 0.4016 0.48791 0.0
O318 O 0.75147 0.39668 0.5283 0.0
O319 O 0.76013 0.3667 0.52205 0.0
O320 O 0.7385 0.40719 0.47469 0.0
O321 O 0.74023 0.37957 0.48798 0.0
Co322 Co 0.63998 0.50652 0.28484 0.0
O323 O 0.63744 0.47789 0.27965 0.0
O324 O 0.6633 0.49946 0.27618 0.0
C325 C 0.62616 0.50573 0.31372 0.0
O326 O 0.64897 0.53668 0.28956 0.0
Co327 Co 0.60607 0.52844 0.2899 0.0
O328 O 0.6253 0.55261 0.29731 0.0
C329 C 0.61507 0.51374 0.25044 0.0
C330 C 0.655 0.48099 0.27542 0.0
C331 C 0.64265 0.55267 0.29474 0.0
O332 O 0.63053 0.509 0.25712 0.0
O333 O 0.60309 0.51988 0.26143 0.0
O334 O 0.64378 0.50413 0.31283 0.0
O335 O 0.61739 0.50651 0.29728 0.0
Dy336 Dy 0.99401 0.02201 0.00799 0.0
C337 C 0.07355 0.02994 0.02823 0.0
C338 C 0.95805 0.0287 0.00694 0.0
Dy339 Dy 0.03632 0.03147 0.02213 0.0
O340 O 0.96258 0.01141 0.00215 0.0
O341 O 0.973 0.04187 0.01211 0.0
O342 O 0.99913 0.00285 0.98127 0.0
O343 O 0.02051 0.02528 0.99416 0.0
C344 C 0.0171 0.01026 0.98192 0.0
C345 C 0.01218 0.04324 0.0472 0.0
O346 O 0.03567 0.05894 0.00723 0.0
O347 O 0.00303 0.05384 0.00183 0.0
O348 O 0.06123 0.02796 0.0413 0.0
O349 O 0.06557 0.03314 0.01193 0.0
O350 O 0.02951 0.05251 0.04679 0.0
O351 O 0.00969 0.02766 0.03577 0.0
O352 O 0.99612 0.99715 0.02636 0.0
O353 O 0.02799 0.99829 0.02275 0.0
C354 C 0.02002 0.06489 0.00132 0.0
C355 C 0.01143 0.98902 0.02763 0.0
Dy356 Dy 0.2664 0.78889 0.24817 0.0
C357 C 0.27134 0.76181 0.32471 0.0
C358 C 0.25944 0.80274 0.21343 0.0
Dy359 Dy 0.26526 0.77593 0.2899 0.0
O360 O 0.24781 0.78943 0.22118 0.0
O361 O 0.27486 0.80797 0.22437 0.0
O362 O 0.29689 0.78612 0.2464 0.0
O363 O 0.27991 0.76867 0.26424 0.0
C364 C 0.29662 0.77414 0.25989 0.0
C365 C 0.23506 0.79026 0.27693 0.0
O366 O 0.28463 0.8054 0.29514 0.0
O367 O 0.2758 0.81781 0.26669 0.0
O368 O 0.25493 0.7623 0.31655 0.0
O369 O 0.28449 0.76982 0.31424 0.0
O370 O 0.2342 0.77735 0.28961 0.0
O371 O 0.25197 0.79616 0.27367 0.0
O372 O 0.24623 0.75951 0.24391 0.0
O373 O 0.25645 0.747 0.27178 0.0
C374 C 0.28515 0.82015 0.28394 0.0
C375 C 0.24648 0.74467 0.25494 0.0
Dy376 Dy 0.53704 0.02371 0.51574 0.0
C377 C 0.45696 0.02949 0.51552 0.0
C378 C 0.57097 0.01184 0.52217 0.0
Dy379 Dy 0.49259 0.02071 0.51904 0.0
O380 O 0.56866 0.02719 0.51304 0.0
O381 O 0.5549 0.00341 0.52783 0.0
O382 O 0.53644 0.04174 0.49003 0.0
O383 O 0.51247 0.02174 0.49641 0.0
C384 C 0.51842 0.03538 0.48608 0.0
C385 C 0.5123 0.00945 0.54842 0.0
O386 O 0.49191 0.99097 0.50269 0.0
O387 O 0.52454 0.99206 0.50441 0.0
O388 O 0.46535 0.02613 0.5316 0.0
O389 O 0.46784 0.02746 0.50138 0.0
O390 O 0.49462 0.00167 0.544 0.0
O391 O 0.5174 0.02338 0.53823 0.0
O392 O 0.53655 0.0525 0.53344 0.0
O393 O 0.50491 0.05331 0.52564 0.0
C394 C 0.50695 0.98262 0.49968 0.0
C395 C 0.522 0.06202 0.53303 0.0
Dy396 Dy 0.24543 0.27158 0.76055 0.0
C397 C 0.32551 0.28077 0.75368 0.0
C398 C 0.20893 0.26367 0.77058 0.0
Dy399 Dy 0.28885 0.27265 0.76328 0.0
O400 O 0.21446 0.27274 0.75555 0.0
O401 O 0.22324 0.25874 0.77971 0.0
O402 O 0.24913 0.29855 0.74363 0.0
O403 O 0.27053 0.29454 0.76347 0.0
C404 C 0.26649 0.30489 0.75033 0.0
C405 C 0.26778 0.23929 0.77341 0.0
O406 O 0.28642 0.29005 0.79191 0.0
O407 O 0.25379 0.28149 0.79208 0.0
O408 O 0.31964 0.27059 0.7679 0.0
O409 O 0.31145 0.28676 0.74514 0.0
O410 O 0.28523 0.24538 0.77988 0.0
O411 O 0.26378 0.24981 0.76043 0.0
O412 O 0.24787 0.25311 0.73263 0.0
O413 O 0.28027 0.26314 0.73154 0.0
C414 C 0.27046 0.28953 0.80089 0.0
C415 C 0.26358 0.25438 0.72319 0.0
Dy416 Dy 0.00767 0.01403 0.48884 0.0
C417 C 0.05144 0.04433 0.56201 0.0
C418 C 0.98094 0.00187 0.459 0.0
Dy419 Dy 0.02871 0.03178 0.52883 0.0
O420 O 0.99781 0.99758 0.45947 0.0
O421 O 0.97858 0.01193 0.47513 0.0
O422 O 0.03267 0.0255 0.47252 0.0
O423 O 0.03683 0.0189 0.50124 0.0
C424 C 0.0448 0.02682 0.48723 0.0
C425 C 0.99135 0.01818 0.52895 0.0
O426 O 0.03012 0.05962 0.51358 0.0
O427 O 0.00827 0.0465 0.48775 0.0
O428 O 0.03409 0.04684 0.5594 0.0
O429 O 0.05653 0.0359 0.54614 0.0
O430 O 0.00323 0.01747 0.54337 0.0
O431 O 0.99984 0.02733 0.51604 0.0
O432 O 0.00723 0.98645 0.50436 0.0
O433 O 0.03117 0.9998 0.52795 0.0
C434 C 0.01979 0.06158 0.4977 0.0
C435 C 0.01919 0.9845 0.51894 0.0
Dy436 Dy 0.28732 0.78933 0.76485 0.0
C437 C 0.21157 0.75759 0.72951 0.0
C438 C 0.3181 0.80192 0.78997 0.0
Dy439 Dy 0.2465 0.76684 0.74852 0.0
O440 O 0.31571 0.80876 0.77319 0.0
O441 O 0.30332 0.78908 0.79317 0.0
O442 O 0.30011 0.77921 0.73774 0.0
O443 O 0.27175 0.78242 0.73677 0.0
C444 C 0.28428 0.77604 0.7273 0.0
C445 C 0.25408 0.77012 0.78712 0.0
O446 O 0.26232 0.74165 0.7454 0.0
O447 O 0.28712 0.75674 0.76748 0.0
O448 O 0.21493 0.76196 0.74807 0.0
O449 O 0.22739 0.75754 0.72126 0.0
O450 O 0.24243 0.75518 0.77795 0.0
O451 O 0.25961 0.78237 0.77535 0.0
O452 O 0.273 0.81601 0.76387 0.0
O453 O 0.24407 0.79909 0.74907 0.0
C454 C 0.27776 0.741 0.75632 0.0
C455 C 0.25549 0.81568 0.75656 0.0
Dy456 Dy 0.50283 0.01287 0.03216 0.0
C457 C 0.50715 0.02648 0.95184 0.0
C458 C 0.49735 0.01242 0.07067 0.0
Dy459 Dy 0.50054 0.02361 0.98987 0.0
O460 O 0.49141 0.9976 0.05763 0.0
O461 O 0.50665 0.02727 0.06275 0.0
O462 O 0.51797 0.9877 0.02346 0.0
O463 O 0.49857 0.99634 0.00382 0.0
C464 C 0.51078 0.98551 0.00563 0.0
C465 C 0.49234 0.0508 0.01655 0.0
O466 O 0.47092 0.00818 0.99066 0.0
O467 O 0.47163 0.00858 0.02434 0.0
O468 O 0.50994 0.04132 0.96524 0.0
O469 O 0.50014 0.01019 0.95912 0.0
O470 O 0.48482 0.04809 0.99886 0.0
O471 O 0.50485 0.04027 0.0183 0.0
O472 O 0.53289 0.02658 0.03066 0.0
O473 O 0.53165 0.02623 0.99706 0.0
C474 C 0.46248 0.00513 0.00696 0.0
C475 C 0.5412 0.02886 0.01419 0.0
Dy476 Dy 0.2628 0.29188 0.26323 0.0
C477 C 0.26194 0.20823 0.24627 0.0
C478 C 0.25481 0.32846 0.25875 0.0
Dy479 Dy 0.25791 0.24714 0.25021 0.0
O480 O 0.2672 0.32506 0.27178 0.0
O481 O 0.24708 0.31207 0.24863 0.0
O482 O 0.27653 0.28869 0.2923 0.0
O483 O 0.25715 0.26488 0.27781 0.0
C484 C 0.26909 0.26989 0.29208 0.0
C485 C 0.25197 0.27092 0.22253 0.0
O486 O 0.22884 0.2468 0.26013 0.0
O487 O 0.23152 0.28121 0.26501 0.0
O488 O 0.26162 0.21935 0.23208 0.0
O489 O 0.25968 0.21828 0.26243 0.0
O490 O 0.24253 0.2529 0.22251 0.0
O491 O 0.2644 0.27432 0.23628 0.0
O492 O 0.29123 0.29083 0.25206 0.0
O493 O 0.28952 0.25699 0.25397 0.0
C494 C 0.22144 0.26294 0.26424 0.0
C495 C 0.29929 0.27485 0.25178 0.0
Dy496 Dy 0.50394 0.51048 0.98751 0.0
C497 C 0.54957 0.54113 0.05937 0.0
C498 C 0.4787 0.49811 0.95642 0.0
Dy499 Dy 0.52393 0.52966 0.02841 0.0
O500 O 0.49542 0.49349 0.95813 0.0
O501 O 0.47567 0.50877 0.97196 0.0
O502 O 0.52991 0.52225 0.97267 0.0
O503 O 0.53231 0.51572 0.00157 0.0
C504 C 0.54118 0.52357 0.98809 0.0
C505 C 0.48641 0.51743 0.02772 0.0
O506 O 0.52524 0.55699 0.01239 0.0
O507 O 0.50445 0.54299 0.98586 0.0
O508 O 0.53279 0.54567 0.05813 0.0
O509 O 0.55253 0.53133 0.04327 0.0
O510 O 0.49726 0.51981 0.04355 0.0
O511 O 0.49578 0.52433 0.01418 0.0
O512 O 0.50295 0.48311 0.00354 0.0
O513 O 0.52277 0.49728 0.0307 0.0
C514 C 0.51534 0.55844 0.99603 0.0
C515 C 0.51224 0.48181 0.02028 0.0
Dy516 Dy 0.78462 0.28894 0.26751 0.0
C517 C 0.71049 0.25462 0.23323 0.0
C518 C 0.81785 0.29971 0.28945 0.0
Dy519 Dy 0.7438 0.26602 0.25492 0.0
O520 O 0.81526 0.3036 0.27157 0.0
O521 O 0.80214 0.29063 0.2954 0.0
O522 O 0.79 0.29338 0.23618 0.0
O523 O 0.77129 0.26873 0.24338 0.0
C524 C 0.7776 0.2778 0.22948 0.0
C525 C 0.75143 0.27594 0.29292 0.0
O526 O 0.75807 0.23952 0.25571 0.0
O527 O 0.7861 0.25673 0.27166 0.0
O528 O 0.71275 0.25324 0.25177 0.0
O529 O 0.72658 0.26154 0.22651 0.0
O530 O 0.739 0.26046 0.28604 0.0
O531 O 0.75724 0.28585 0.27933 0.0
O532 O 0.76988 0.31525 0.26718 0.0
O533 O 0.74241 0.29805 0.25021 0.0
C534 C 0.77488 0.2398 0.26459 0.0
C535 C 0.75332 0.31496 0.25776 0.0
Dy536 Dy 0.00467 0.52248 0.5265 0.0
C537 C 0.02443 0.53984 0.44981 0.0
C538 C 0.99307 0.52072 0.5632 0.0
Dy539 Dy 0.01053 0.53374 0.48504 0.0
O540 O 0.99136 0.50558 0.55023 0.0
O541 O 1.0014 0.53666 0.55624 0.0
O542 O 0.01797 0.49557 0.52089 0.0
O543 O 0.00329 0.50588 0.49804 0.0
C544 C 0.01363 0.49365 0.5023 0.0
C545 C 1.00132 0.56211 0.50975 0.0
O546 O 0.98022 0.52 0.48082 0.0
O547 O 0.97527 0.52183 0.51377 0.0
O548 O 0.0293 0.5515 0.46563 0.0
O549 O 0.01152 0.52495 0.45306 0.0
O550 O 0.99639 0.56012 0.49132 0.0
O551 O 0.01206 0.55016 0.51347 0.0
O552 O 0.03564 0.53385 0.52968 0.0
O553 O 0.03917 0.53035 0.49656 0.0
C554 C 0.96886 0.51855 0.49528 0.0
C555 C 0.04638 0.53355 0.51472 0.0
Dy556 Dy 0.74879 0.77265 0.26352 0.0
C557 C 0.82766 0.77369 0.25799 0.0
C558 C 0.71161 0.77164 0.2704 0.0
Dy559 Dy 0.79073 0.76894 0.26678 0.0
O560 O 0.72509 0.78674 0.27494 0.0
O561 O 0.71835 0.75716 0.26165 0.0
O562 O 0.75545 0.79788 0.24493 0.0
O563 O 0.77549 0.79363 0.2663 0.0
C564 C 0.77264 0.80359 0.25234 0.0
C565 C 0.76703 0.73786 0.2779 0.0
O566 O 0.789 0.78682 0.29495 0.0
O567 O 0.75678 0.77628 0.29566 0.0
O568 O 0.82024 0.76239 0.27079 0.0
O569 O 0.81504 0.78264 0.25053 0.0
O570 O 0.78449 0.74294 0.28473 0.0
O571 O 0.76411 0.74813 0.26424 0.0
O572 O 0.74983 0.75705 0.23389 0.0
O573 O 0.78234 0.75872 0.23538 0.0
C574 C 0.7733 0.78503 0.30435 0.0
C575 C 0.76557 0.75423 0.22579 0.0
Dy576 Dy 0.76587 0.28527 0.74985 0.0
C577 C 0.7664 0.25287 0.8242 0.0
C578 C 0.76426 0.30272 0.71634 0.0
Dy579 Dy 0.76065 0.27371 0.79386 0.0
O580 O 0.77977 0.30119 0.72593 0.0
O581 O 0.74971 0.29437 0.72482 0.0
O582 O 0.78895 0.26682 0.74799 0.0
O583 O 0.78336 0.28066 0.77468 0.0
C584 C 0.79293 0.26899 0.7667 0.0
C585 C 0.72972 0.28424 0.77754 0.0
O586 O 0.77674 0.30479 0.79977 0.0
O587 O 0.77279 0.31458 0.7684 0.0
O588 O 0.75911 0.26903 0.82549 0.0
O589 O 0.77109 0.24878 0.80666 0.0
O590 O 0.73008 0.27858 0.795 0.0
O591 O 0.74542 0.28347 0.77105 0.0
O592 O 0.74703 0.25561 0.74421 0.0
O593 O 0.75227 0.24504 0.77484 0.0
C594 C 0.77819 0.31856 0.78723 0.0
C595 C 0.74557 0.24172 0.75648 0.0
Dy596 Dy 0.75887 0.78609 0.76367 0.0
C597 C 0.7642 0.70537 0.73865 0.0
C598 C 0.74901 0.82263 0.76516 0.0
Dy599 Dy 0.75658 0.74258 0.74773 0.0
O600 O 0.76334 0.81859 0.77522 0.0
O601 O 0.74053 0.80692 0.75444 0.0
O602 O 0.77351 0.78175 0.79192 0.0
O603 O 0.75516 0.75784 0.77647 0.0
C604 C 0.7672 0.76265 0.79065 0.0
C605 C 0.74816 0.76732 0.72191 0.0
O606 O 0.72724 0.73935 0.75782 0.0
O607 O 0.72793 0.77338 0.76389 0.0
O608 O 0.76686 0.71984 0.72769 0.0
O609 O 0.75686 0.71105 0.75446 0.0
O610 O 0.74023 0.74867 0.72086 0.0
O611 O 0.76078 0.77095 0.73546 0.0
O612 O 0.78669 0.78762 0.75047 0.0
O613 O 0.78772 0.75456 0.75356 0.0
C614 C 0.71882 0.75469 0.76236 0.0
C615 C 0.79614 0.77272 0.75055 0.0
Dy616 Dy 0.49272 0.52159 0.50763 0.0
C617 C 0.57204 0.52436 0.52131 0.0
C618 C 0.4582 0.53105 0.51205 0.0
Dy619 Dy 0.53602 0.53095 0.52022 0.0
O620 O 0.46114 0.51558 0.50099 0.0
O621 O 0.47395 0.54102 0.52016 0.0
O622 O 0.49752 0.50228 0.48073 0.0
O623 O 0.51869 0.52534 0.49335 0.0
C624 C 0.51531 0.51058 0.48081 0.0
C625 C 0.51276 0.54094 0.547 0.0
O626 O 0.53484 0.55732 0.50345 0.0
O627 O 0.50205 0.55244 0.49856 0.0
O628 O 0.56652 0.53878 0.53173 0.0
O629 O 0.55807 0.51414 0.51031 0.0
O630 O 0.53021 0.55004 0.54701 0.0
O631 O 0.51003 0.52631 0.53441 0.0
O632 O 0.49442 0.49499 0.52365 0.0
O633 O 0.52721 0.49858 0.52518 0.0
C634 C 0.51914 0.56314 0.4973 0.0
C635 C 0.5102 0.48813 0.52714 0.0
Dy636 Dy 0.03335 0.52527 0.01628 0.0
C637 C 0.95591 0.53686 0.01826 0.0
C638 C 0.06912 0.51667 0.01821 0.0
Dy639 Dy 0.98923 0.52311 0.021 0.0
O640 O 0.05778 0.51397 0.00269 0.0
O641 O 0.06115 0.52474 0.0325 0.0
O642 O 0.03222 0.54662 0.9933 0.0
O643 O 0.00843 0.5257 0.99786 0.0
C644 C 0.01424 0.54052 0.98898 0.0
C645 C 0.00703 0.50606 0.04739 0.0
O646 O 0.98883 0.4959 0.00045 0.0
O647 O 0.02004 0.49324 0.00824 0.0
O648 O 0.95782 0.51999 0.02476 0.0
O649 O 0.97194 0.54558 0.0127 0.0
O650 O 0.98875 0.50193 0.04419 0.0
O651 O 0.01377 0.52104 0.03899 0.0
O652 O 0.03484 0.55405 0.03454 0.0
O653 O 0.00239 0.55313 0.03594 0.0
C654 C 0.00295 0.48574 6e-05 0.0
C655 C 0.0202 0.56207 0.03988 0.0
H656 H 0.03258 0.21839 0.89959 0.0
H657 H 0.03995 0.18941 0.91488 0.0
H658 H 0.98267 0.17602 0.93176 0.0
H659 H 0.97558 0.20516 0.91722 0.0
H660 H 0.00614 0.17898 0.96204 0.0
H661 H 0.00191 0.14671 0.89663 0.0
H662 H 0.01049 0.14273 0.86268 0.0
H663 H 0.06748 0.14099 0.88205 0.0
H664 H 0.0593 0.14526 0.91613 0.0
H665 H 0.99108 0.08351 0.99164 0.0
H666 H 0.99219 0.11268 0.97394 0.0
H667 H 0.05249 0.11848 0.97227 0.0
H668 H 0.05154 0.08871 0.98977 0.0
H669 H 0.03387 0.12172 0.93588 0.0
H670 H 0.03682 0.15072 0.00133 0.0
H671 H 0.02754 0.15356 0.0351 0.0
H672 H 0.97219 0.16081 0.01518 0.0
H673 H 0.98105 0.15772 0.98127 0.0
C674 C 0.02149 0.20887 0.90609 0.0
C675 C 0.00355 0.21399 0.90736 0.0
C676 C 0.02571 0.19236 0.91486 0.0
C677 C 0.01191 0.18062 0.92464 0.0
C678 C 0.99362 0.18497 0.92452 0.0
C679 C 0.98953 0.20155 0.91612 0.0
C680 C 0.01661 0.16508 0.93671 0.0
C681 C 0.01206 0.16639 0.95621 0.0
C682 C 0.02514 0.14909 0.92942 0.0
C683 C 0.03005 0.1466 0.90893 0.0
C684 C 0.01632 0.14569 0.89365 0.0
C685 C 0.0211 0.14334 0.87439 0.0
C686 C 0.03954 0.14169 0.87021 0.0
C687 C 0.05321 0.14233 0.8853 0.0
C688 C 0.04851 0.14471 0.9046 0.0
C689 C 0.00465 0.09095 0.98764 0.0
C690 C 0.02124 0.08375 0.99217 0.0
C691 C 0.00524 0.10768 0.97752 0.0
C692 C 0.02242 0.11773 0.9718 0.0
C693 C 0.03909 0.11081 0.97647 0.0
C694 C 0.03853 0.09396 0.98663 0.0
C695 C 0.02257 0.13531 0.9608 0.0
C696 C 0.02817 0.13448 0.94166 0.0
C697 C 0.01492 0.15177 0.96833 0.0
C698 C 0.00959 0.15389 0.98874 0.0
C699 C 0.02264 0.1528 0.00414 0.0
C700 C 0.01746 0.15448 0.02331 0.0
C701 C 0.99928 0.15735 0.02728 0.0
C702 C 0.98627 0.1586 0.01209 0.0
C703 C 0.99137 0.15692 0.99289 0.0
H704 H 0.99529 0.15862 0.04213 0.0
H705 H 0.04321 0.13986 0.85529 0.0
H706 H 0.11039 0.82223 0.15066 0.0
H707 H 0.13773 0.82118 0.17217 0.0
H708 H 0.10142 0.79933 0.21606 0.0
H709 H 0.07375 0.80037 0.19463 0.0
H710 H 0.13161 0.82663 0.23177 0.0
H711 H 0.12025 0.76896 0.18671 0.0
H712 H 0.11539 0.74921 0.1549 0.0
H713 H 0.17144 0.77404 0.14112 0.0
H714 H 0.1766 0.79411 0.17276 0.0
H715 H 0.19786 0.77782 0.2823 0.0
H716 H 0.17062 0.78436 0.26305 0.0
H717 H 0.20793 0.81962 0.22746 0.0
H718 H 0.2352 0.81397 0.24729 0.0
H719 H 0.17776 0.78596 0.20782 0.0
H720 H 0.18769 0.84502 0.25267 0.0
H721 H 0.1923 0.86351 0.28517 0.0
H722 H 0.13856 0.83293 0.3001 0.0
H723 H 0.13376 0.81402 0.26776 0.0
C724 C 0.10811 0.81739 0.16495 0.0
C725 C 0.08977 0.81121 0.1708 0.0
C726 C 0.12384 0.81673 0.17722 0.0
C727 C 0.12169 0.80986 0.19558 0.0
C728 C 0.10344 0.8046 0.20189 0.0
C729 C 0.08763 0.80519 0.1896 0.0
C730 C 0.13846 0.8075 0.20786 0.0
C731 C 0.14157 0.81757 0.22657 0.0
C732 C 0.15165 0.79584 0.201 0.0
C733 C 0.14861 0.78358 0.18195 0.0
C734 C 0.13145 0.7705 0.1768 0.0
C735 C 0.12867 0.75914 0.15881 0.0
C736 C 0.14303 0.76049 0.14592 0.0
C737 C 0.16026 0.7731 0.15105 0.0
C738 C 0.16311 0.78449 0.16902 0.0
C739 C 0.20023 0.78716 0.27052 0.0
C740 C 0.21863 0.79519 0.26611 0.0
C741 C 0.18469 0.79087 0.25955 0.0
C742 C 0.18731 0.80241 0.24383 0.0
C743 C 0.20566 0.81063 0.23951 0.0
C744 C 0.22119 0.80732 0.25078 0.0
C745 C 0.17086 0.80522 0.23148 0.0
C746 C 0.16779 0.79512 0.21285 0.0
C747 C 0.15764 0.81662 0.23844 0.0
C748 C 0.16047 0.82794 0.25788 0.0
C749 C 0.17695 0.84208 0.26296 0.0
C750 C 0.17957 0.85268 0.28133 0.0
C751 C 0.16576 0.84935 0.29471 0.0
C752 C 0.14926 0.83546 0.28973 0.0
C753 C 0.14658 0.82481 0.27137 0.0
H754 H 0.16781 0.85758 0.30893 0.0
H755 H 0.14085 0.75168 0.13201 0.0
H756 H 0.51009 0.83339 0.37444 0.0
H757 H 0.50743 0.86495 0.39279 0.0
H758 H 0.48828 0.83325 0.44129 0.0
H759 H 0.49132 0.80194 0.42334 0.0
H760 H 0.48024 0.88144 0.41065 0.0
H761 H 0.5097 0.85801 0.48263 0.0
H762 H 0.53048 0.83566 0.49361 0.0
H763 H 0.55872 0.83915 0.44054 0.0
H764 H 0.5383 0.86173 0.42938 0.0
H765 H 0.474 0.95692 0.48707 0.0
H766 H 0.47086 0.92476 0.46762 0.0
H767 H 0.53142 0.93159 0.46785 0.0
H768 H 0.53469 0.96305 0.48761 0.0
H769 H 0.51811 0.89579 0.47351 0.0
H770 H 0.50332 0.94075 0.42819 0.0
H771 H 0.486 0.9653 0.41542 0.0
H772 H 0.43446 0.92269 0.41178 0.0
H773 H 0.45144 0.89797 0.42479 0.0
C774 C 0.50509 0.83318 0.38892 0.0
C775 C 0.50118 0.81526 0.39757 0.0
C776 C 0.50352 0.85118 0.39935 0.0
C777 C 0.49796 0.85146 0.41852 0.0
C778 C 0.49292 0.83342 0.42665 0.0
C779 C 0.49466 0.81553 0.41635 0.0
C780 C 0.49884 0.87056 0.43063 0.0
C781 C 0.48847 0.8846 0.42442 0.0
C782 C 0.50986 0.87482 0.44842 0.0
C783 C 0.52232 0.86137 0.45509 0.0
C784 C 0.52038 0.85405 0.47334 0.0
C785 C 0.5321 0.84134 0.47959 0.0
C786 C 0.54587 0.83593 0.46775 0.0
C787 C 0.548 0.84328 0.44967 0.0
C788 C 0.53635 0.85601 0.44336 0.0
C789 C 0.48663 0.95147 0.48309 0.0
C790 C 0.50458 0.96263 0.48891 0.0
C791 C 0.48482 0.93315 0.47186 0.0
C792 C 0.50091 0.92586 0.46605 0.0
C793 C 0.51879 0.93685 0.47215 0.0
C794 C 0.52061 0.95494 0.48347 0.0
C795 C 0.49945 0.90679 0.45366 0.0
C796 C 0.50973 0.89266 0.45983 0.0
C797 C 0.48882 0.90279 0.43559 0.0
C798 C 0.47861 0.91759 0.42766 0.0
C799 C 0.48827 0.93667 0.4248 0.0
C800 C 0.47852 0.95061 0.4175 0.0
C801 C 0.45913 0.94558 0.41284 0.0
C802 C 0.44947 0.92657 0.41542 0.0
C803 C 0.45915 0.91259 0.42275 0.0
H804 H 0.4516 0.95639 0.40719 0.0
H805 H 0.55491 0.82608 0.47262 0.0
H806 H 0.46516 0.28852 0.64629 0.0
H807 H 0.43627 0.28747 0.66348 0.0
H808 H 0.46515 0.27409 0.71519 0.0
H809 H 0.49418 0.2751 0.69807 0.0
H810 H 0.42856 0.25186 0.70817 0.0
H811 H 0.45965 0.32043 0.7113 0.0
H812 H 0.47467 0.35054 0.6971 0.0
H813 H 0.42329 0.35116 0.66359 0.0
H814 H 0.40804 0.32088 0.67738 0.0
H815 H 0.3572 0.27076 0.77048 0.0
H816 H 0.38799 0.27202 0.75663 0.0
H817 H 0.36706 0.29596 0.70609 0.0
H818 H 0.33673 0.29554 0.72026 0.0
H819 H 0.4011 0.31336 0.71412 0.0
H820 H 0.37033 0.24493 0.7076 0.0
H821 H 0.35441 0.21357 0.71893 0.0
H822 H 0.40348 0.21131 0.75553 0.0
H823 H 0.4196 0.24281 0.74459 0.0
C824 C 0.46533 0.28507 0.66123 0.0
C825 C 0.482 0.28199 0.67084 0.0
C826 C 0.44882 0.28458 0.67107 0.0
C827 C 0.44865 0.28102 0.6907 0.0
C828 C 0.46501 0.27697 0.70007 0.0
C829 C 0.48158 0.27755 0.69026 0.0
C830 C 0.43161 0.28228 0.7016 0.0
C831 C 0.42268 0.26538 0.70974 0.0
C832 C 0.42372 0.29979 0.70322 0.0
C833 C 0.43275 0.31828 0.69525 0.0
C834 C 0.45159 0.32692 0.70082 0.0
C835 C 0.46014 0.34403 0.69285 0.0
C836 C 0.44995 0.35273 0.67941 0.0
C837 C 0.43117 0.3444 0.67399 0.0
C838 C 0.42256 0.32727 0.68189 0.0
C839 C 0.35931 0.27651 0.75653 0.0
C840 C 0.34459 0.28297 0.7464 0.0
C841 C 0.37685 0.27709 0.74854 0.0
C842 C 0.3798 0.28369 0.73007 0.0
C843 C 0.36521 0.29075 0.7203 0.0
C844 C 0.34783 0.29047 0.72841 0.0
C845 C 0.39779 0.28282 0.72059 0.0
C846 C 0.40697 0.29984 0.7127 0.0
C847 C 0.40571 0.26529 0.71889 0.0
C848 C 0.39609 0.24633 0.72544 0.0
C849 C 0.37767 0.23781 0.71817 0.0
C850 C 0.36862 0.22001 0.7245 0.0
C851 C 0.37791 0.21048 0.73798 0.0
C852 C 0.39629 0.21872 0.74511 0.0
C853 C 0.4054 0.23654 0.73884 0.0
H854 H 0.37088 0.1967 0.74287 0.0
H855 H 0.45661 0.36594 0.67322 0.0
H856 H 0.00946 0.81285 0.58497 0.0
H857 H 0.01356 0.84221 0.56705 0.0
H858 H 0.00527 0.87854 0.6188 0.0
H859 H 1.00112 0.84905 0.63692 0.0
H860 H 0.98406 0.88569 0.58695 0.0
H861 H 0.04822 0.88167 0.60329 0.0
H862 H 0.07598 0.86541 0.6057 0.0
H863 H 0.07358 0.85393 0.54366 0.0
H864 H 0.04562 0.86987 0.5409 0.0
H865 H 0.04452 0.97441 0.54487 0.0
H866 H 0.04161 0.94442 0.56148 0.0
H867 H 0.98953 0.92021 0.52801 0.0
H868 H 0.9921 0.95067 0.51145 0.0
H869 H 0.0409 0.90708 0.55125 0.0
H870 H 0.96014 0.89113 0.55832 0.0
H871 H 0.93313 0.90869 0.55958 0.0
H872 H 0.97038 0.96342 0.57931 0.0
H873 H 0.99756 0.94614 0.5784 0.0
C874 C 0.00869 0.82711 0.59262 0.0
C875 C 0.00499 0.82867 0.61237 0.0
C876 C 0.01105 0.84388 0.58234 0.0
C877 C 0.00975 0.86256 0.59159 0.0
C878 C 0.00629 0.86424 0.61139 0.0
C879 C 0.00405 0.84743 0.62175 0.0
C880 C 0.01162 0.88018 0.58039 0.0
C881 C 0.99646 0.8904 0.57911 0.0
C882 C 0.02787 0.88635 0.57031 0.0
C883 C 0.04471 0.87679 0.5719 0.0
C884 C 0.05351 0.87552 0.59017 0.0
C885 C 0.0693 0.86639 0.5916 0.0
C886 C 0.07651 0.85859 0.57484 0.0
C887 C 0.06797 0.85995 0.55662 0.0
C888 C 0.05215 0.86905 0.55512 0.0
C889 C 0.03249 0.96269 0.54082 0.0
C890 C 0.01849 0.96501 0.52683 0.0
C891 C 0.03088 0.94548 0.55036 0.0
C892 C 0.01525 0.93015 0.54621 0.0
C893 C 0.00159 0.93199 0.53166 0.0
C894 C 0.00317 0.94932 0.52207 0.0
C895 C 0.01326 0.91264 0.55764 0.0
C896 C 0.0284 0.90235 0.55894 0.0
C897 C 0.99709 0.90664 0.568 0.0
C898 C 0.98092 0.91735 0.56814 0.0
C899 C 0.96257 0.90691 0.56293 0.0
C900 C 0.94722 0.91681 0.5636 0.0
C901 C 0.95003 0.93714 0.56956 0.0
C902 C 0.96822 0.94766 0.57471 0.0
C903 C 0.98361 0.93783 0.57409 0.0
H904 H 0.93811 0.94472 0.57021 0.0
H905 H 0.08874 0.85153 0.57598 0.0
H906 H 0.46316 0.80095 0.90398 0.0
H907 H 0.43466 0.80542 0.88609 0.0
H908 H 0.45291 0.77752 0.83395 0.0
H909 H 0.48182 0.77314 0.8518 0.0
H910 H 0.42979 0.8263 0.85503 0.0
H911 H 0.41167 0.7512 0.80805 0.0
H912 H 0.41655 0.71654 0.80855 0.0
H913 H 0.4214 0.72366 0.87085 0.0
H914 H 0.41626 0.75824 0.87071 0.0
H915 H 0.35261 0.82319 0.78277 0.0
H916 H 0.38315 0.82221 0.79958 0.0
H917 H 0.35487 0.78441 0.83975 0.0
H918 H 0.32451 0.78548 0.82324 0.0
H919 H 0.38382 0.76896 0.82319 0.0
H920 H 0.37316 0.83101 0.85491 0.0
H921 H 0.36691 0.86528 0.85635 0.0
H922 H 0.41768 0.88377 0.82788 0.0
H923 H 0.42411 0.84952 0.82603 0.0
C924 C 0.46123 0.79576 0.8887 0.0
C925 C 0.47491 0.78671 0.87936 0.0
C926 C 0.44489 0.79841 0.87846 0.0
C927 C 0.44161 0.79185 0.85867 0.0
C928 C 0.4551 0.78264 0.84925 0.0
C929 C 0.47161 0.78011 0.85949 0.0
C930 C 0.4239 0.7945 0.84817 0.0
C931 C 0.41981 0.81377 0.84792 0.0
C932 C 0.41077 0.77817 0.83905 0.0
C933 C 0.41384 0.75739 0.83935 0.0
C934 C 0.41376 0.74535 0.82185 0.0
C935 C 0.41655 0.72572 0.82207 0.0
C936 C 0.41936 0.71793 0.83972 0.0
C937 C 0.41931 0.72974 0.85718 0.0
C938 C 0.41649 0.74937 0.85704 0.0
C939 C 0.35292 0.81505 0.79544 0.0
C940 C 0.33619 0.80441 0.80168 0.0
C941 C 0.37037 0.81442 0.80498 0.0
C942 C 0.3713 0.80308 0.82082 0.0
C943 C 0.35451 0.79311 0.82747 0.0
C944 C 0.33715 0.79385 0.81808 0.0
C945 C 0.38971 0.80075 0.83005 0.0
C946 C 0.39393 0.78152 0.83003 0.0
C947 C 0.40286 0.81709 0.83907 0.0
C948 C 0.39899 0.83766 0.84012 0.0
C949 C 0.3829 0.84234 0.84878 0.0
C950 C 0.37934 0.86177 0.84971 0.0
C951 C 0.39186 0.87668 0.84215 0.0
C952 C 0.40798 0.87219 0.83369 0.0
C953 C 0.41159 0.85278 0.83271 0.0
H954 H 0.38908 0.89171 0.84289 0.0
H955 H 0.42152 0.70273 0.83986 0.0
H956 H 0.4686 0.21722 0.08312 0.0
H957 H 0.46544 0.18134 0.07421 0.0
H958 H 0.50359 0.1771 0.12274 0.0
H959 H 0.50611 0.2129 0.13222 0.0
H960 H 0.51274 0.16672 0.07921 0.0
H961 H 0.47014 0.15099 0.12836 0.0
H962 H 0.44242 0.15356 0.14722 0.0
H963 H 0.40589 0.13457 0.09586 0.0
H964 H 0.43344 0.1322 0.07662 0.0
H965 H 0.5146 0.06562 0.04928 0.0
H966 H 0.51224 0.09497 0.07122 0.0
H967 H 0.46238 0.10244 0.03803 0.0
H968 H 0.46473 0.07314 0.01599 0.0
H969 H 0.45978 0.10975 0.07832 0.0
H970 H 0.50155 0.12815 0.02892 0.0
H971 H 0.52873 0.12849 0.00868 0.0
H972 H 0.56662 0.14472 0.05938 0.0
H973 H 0.53963 0.14391 0.08003 0.0
C974 C 0.47569 0.20844 0.0923 0.0
C975 C 0.48742 0.21764 0.10844 0.0
C976 C 0.4739 0.18801 0.08721 0.0
C977 C 0.48421 0.17663 0.09789 0.0
C978 C 0.49534 0.18563 0.11451 0.0
C979 C 0.4967 0.206 0.11993 0.0
C980 C 0.4856 0.15633 0.08975 0.0
C981 C 0.50144 0.15405 0.07947 0.0
C982 C 0.4705 0.14017 0.08958 0.0
C983 C 0.45387 0.14167 0.101 0.0
C984 C 0.45621 0.14761 0.12103 0.0
C985 C 0.44053 0.14896 0.13181 0.0
C986 C 0.42241 0.14431 0.12273 0.0
C987 C 0.41994 0.13822 0.10287 0.0
C988 C 0.43559 0.13685 0.09202 0.0
C989 C 0.50299 0.07335 0.04684 0.0
C990 C 0.48991 0.06724 0.03087 0.0
C991 C 0.50168 0.09012 0.05935 0.0
C992 C 0.48722 0.10095 0.05614 0.0
C993 C 0.47363 0.09427 0.04076 0.0
C994 C 0.47504 0.07763 0.02813 0.0
C995 C 0.48707 0.12004 0.06787 0.0
C996 C 0.47134 0.12222 0.0785 0.0
C997 C 0.5023 0.13621 0.06832 0.0
C998 C 0.51855 0.13563 0.05607 0.0
C999 C 0.51566 0.13141 0.03582 0.0
C1000 C 0.53104 0.13176 0.02425 0.0
C1001 C 0.54938 0.1366 0.03274 0.0
C1002 C 0.55239 0.14093 0.05283 0.0
C1003 C 0.53706 0.14045 0.06448 0.0
H1004 H 0.56127 0.13699 0.02375 0.0
H1005 H 0.41028 0.14536 0.1311 0.0
H1006 H 0.09358 0.27067 0.38209 0.0
H1007 H 0.1197 0.26687 0.36178 0.0
H1008 H 0.08124 0.25531 0.31088 0.0
H1009 H 0.05492 0.25846 0.33126 0.0
H1010 H 0.10693 0.23275 0.30698 0.0
H1011 H 0.10816 0.30194 0.32388 0.0
H1012 H 0.1084 0.33236 0.34571 0.0
H1013 H 0.16064 0.32516 0.37393 0.0
H1014 H 0.16058 0.29453 0.35243 0.0
H1015 H 0.19821 0.29023 0.26385 0.0
H1016 H 0.16798 0.28886 0.27849 0.0
H1017 H 0.17097 0.23025 0.29503 0.0
H1018 H 0.20091 0.23127 0.27973 0.0
H1019 H 0.16146 0.28851 0.314 0.0
H1020 H 0.1276 0.20467 0.30209 0.0
H1021 H 0.12557 0.17627 0.2772 0.0
H1022 H 0.13564 0.21638 0.23309 0.0
H1023 H 0.13748 0.245 0.25766 0.0
C1024 C 0.09064 0.2671 0.3666 0.0
C1025 C 0.0722 0.26504 0.35827 0.0
C1026 C 0.10561 0.26501 0.35498 0.0
C1027 C 0.10254 0.26123 0.33472 0.0
C1028 C 0.08401 0.25831 0.32645 0.0
C1029 C 0.06897 0.26015 0.33812 0.0
C1030 C 0.11875 0.26127 0.32217 0.0
C1031 C 0.11887 0.24493 0.30851 0.0
C1032 C 0.13413 0.27739 0.32374 0.0
C1033 C 0.13427 0.29585 0.33666 0.0
C1034 C 0.11963 0.30677 0.33483 0.0
C1035 C 0.11974 0.32406 0.34713 0.0
C1036 C 0.1345 0.33066 0.36123 0.0
C1037 C 0.1492 0.32001 0.36302 0.0
C1038 C 0.14914 0.3027 0.35077 0.0
C1039 C 0.19225 0.27688 0.27027 0.0
C1040 C 0.20196 0.26086 0.27063 0.0
C1041 C 0.17498 0.27614 0.27872 0.0
C1042 C 0.16709 0.25946 0.28792 0.0
C1043 C 0.17651 0.24316 0.28776 0.0
C1044 C 0.19368 0.24377 0.27901 0.0
C1045 C 0.14986 0.25984 0.2989 0.0
C1046 C 0.14955 0.2763 0.31237 0.0
C1047 C 0.1341 0.24411 0.29669 0.0
C1048 C 0.13286 0.22698 0.28177 0.0
C1049 C 0.12931 0.20742 0.28707 0.0
C1050 C 0.12821 0.19129 0.27302 0.0
C1051 C 0.13054 0.19452 0.25359 0.0
C1052 C 0.13392 0.2139 0.24816 0.0
C1053 C 0.13502 0.23008 0.26215 0.0
H1054 H 0.12969 0.18201 0.24273 0.0
H1055 H 0.13456 0.34405 0.37074 0.0
H1056 H 0.94729 0.06331 0.20981 0.0
H1057 H 0.95925 0.0665 0.17762 0.0
H1058 H 0.90469 0.03871 0.15125 0.0
H1059 H 0.89244 0.03592 0.18369 0.0
H1060 H 0.93667 0.02071 0.13911 0.0
H1061 H 0.91756 0.08416 0.1443 0.0
H1062 H 0.91513 0.11703 0.16035 0.0
H1063 H 0.97536 0.13426 0.16316 0.0
H1064 H 0.97818 0.10137 0.14737 0.0
H1065 H 0.97527 0.02626 0.04776 0.0
H1066 H 0.95397 0.03 0.07362 0.0
H1067 H 0.99823 0.07139 0.10706 0.0
H1068 H 0.01926 0.0685 0.08061 0.0
H1069 H 0.96662 0.08287 0.11307 0.0
H1070 H 0.98715 0.02008 0.1135 0.0
H1071 H 0.99194 0.98705 0.09987 0.0
H1072 H 0.93214 0.96817 0.08953 0.0
H1073 H 0.927 0.00113 0.10297 0.0
C1074 C 0.93771 0.05828 0.19715 0.0
C1075 C 0.91892 0.04942 0.19925 0.0
C1076 C 0.94456 0.06013 0.17877 0.0
C1077 C 0.93288 0.05286 0.16203 0.0
C1078 C 0.91392 0.04448 0.164 0.0
C1079 C 0.90691 0.04302 0.18249 0.0
C1080 C 0.94113 0.05267 0.14276 0.0
C1081 C 0.94281 0.03428 0.13311 0.0
C1082 C 0.94972 0.07039 0.13535 0.0
C1083 C 0.94808 0.09023 0.14475 0.0
C1084 C 0.9303 0.09489 0.14847 0.0
C1085 C 0.92885 0.11355 0.1575 0.0
C1086 C 0.94508 0.12771 0.1628 0.0
C1087 C 0.9628 0.12327 0.15904 0.0
C1088 C 0.96433 0.10463 0.15003 0.0
C1089 C 0.98035 0.03645 0.06047 0.0
C1090 C 0.99896 0.04705 0.0622 0.0
C1091 C 0.96819 0.03844 0.07536 0.0
C1092 C 0.97456 0.05061 0.09259 0.0
C1093 C 0.99294 0.06184 0.09398 0.0
C1094 C 0.005 0.06015 0.07889 0.0
C1095 C 0.9625 0.05087 0.10952 0.0
C1096 C 0.96018 0.06926 0.11879 0.0
C1097 C 0.95367 0.03312 0.11687 0.0
C1098 C 0.95671 0.0132 0.10894 0.0
C1099 C 0.97503 0.00893 0.10818 0.0
C1100 C 0.97781 0.99021 0.10052 0.0
C1101 C 0.96236 0.97555 0.09375 0.0
C1102 C 0.94409 0.97956 0.09471 0.0
C1103 C 0.94124 0.99827 0.10235 0.0
H1104 H 0.96451 0.96106 0.08782 0.0
H1105 H 0.94393 0.14214 0.16979 0.0
H1106 H 0.24888 0.66096 0.46036 0.0
H1107 H 0.25057 0.67454 0.42895 0.0
H1108 H 0.30055 0.64989 0.41832 0.0
H1109 H 0.29844 0.63553 0.44968 0.0
H1110 H 0.30352 0.69348 0.4186 0.0
H1111 H 0.26816 0.63333 0.38796 0.0
H1112 H 0.24269 0.60402 0.38307 0.0
H1113 H 0.20173 0.64196 0.37779 0.0
H1114 H 0.22691 0.67154 0.38299 0.0
H1115 H 0.30349 0.74869 0.33503 0.0
H1116 H 0.3066 0.72323 0.35697 0.0
H1117 H 0.24885 0.72149 0.37148 0.0
H1118 H 0.2455 0.74621 0.34888 0.0
H1119 H 0.25482 0.68543 0.36422 0.0
H1120 H 0.28881 0.74463 0.40319 0.0
H1121 H 0.31357 0.77458 0.40915 0.0
H1122 H 0.35615 0.73888 0.39957 0.0
H1123 H 0.3316 0.70873 0.39343 0.0
C1124 C 0.25984 0.65788 0.45102 0.0
C1125 C 0.27349 0.6472 0.45725 0.0
C1126 C 0.26079 0.6656 0.43311 0.0
C1127 C 0.27567 0.66317 0.42138 0.0
C1128 C 0.2889 0.65174 0.42717 0.0
C1129 C 0.28763 0.6435 0.44495 0.0
C1130 C 0.27848 0.67496 0.40461 0.0
C1131 C 0.29318 0.69146 0.40637 0.0
C1132 C 0.26475 0.67244 0.38899 0.0
C1133 C 0.24946 0.6547 0.38601 0.0
C1134 C 0.25371 0.63546 0.38596 0.0
C1135 C 0.23932 0.61878 0.38309 0.0
C1136 C 0.2206 0.62112 0.38015 0.0
C1137 C 0.21624 0.64016 0.38007 0.0
C1138 C 0.23058 0.6569 0.38296 0.0
C1139 C 0.2916 0.7431 0.3432 0.0
C1140 C 0.27429 0.74944 0.34042 0.0
C1141 C 0.29337 0.72854 0.3557 0.0
C1142 C 0.27797 0.72047 0.36594 0.0
C1143 C 0.26089 0.72739 0.36364 0.0
C1144 C 0.25903 0.74166 0.35091 0.0
C1145 C 0.2793 0.70451 0.37876 0.0
C1146 C 0.2654 0.68724 0.37618 0.0
C1147 C 0.29364 0.70643 0.39379 0.0
C1148 C 0.30839 0.72449 0.39768 0.0
C1149 C 0.30345 0.7432 0.40227 0.0
C1150 C 0.31744 0.7602 0.4057 0.0
C1151 C 0.33642 0.75864 0.4047 0.0
C1152 C 0.34144 0.74007 0.40033 0.0
C1153 C 0.3275 0.72302 0.39691 0.0
H1154 H 0.34723 0.77183 0.40734 0.0
H1155 H 0.20948 0.60819 0.37791 0.0
H1156 H 0.62917 0.0049 0.69306 0.0
H1157 H 0.61896 0.99987 0.65845 0.0
H1158 H 0.56501 0.9679 0.67205 0.0
H1159 H 0.57503 0.97306 0.70652 0.0
H1160 H 0.578 0.95569 0.63334 0.0
H1161 H 0.56871 0.0151 0.67605 0.0
H1162 H 0.58205 0.04434 0.69893 0.0
H1163 H 0.62023 0.06619 0.65682 0.0
H1164 H 0.60724 0.03694 0.63381 0.0
H1165 H 0.50488 0.97927 0.57212 0.0
H1166 H 0.52607 0.97176 0.59814 0.0
H1167 H 0.56928 0.01945 0.58416 0.0
H1168 H 0.54801 0.02759 0.5592 0.0
H1169 H 0.56681 0.02278 0.62027 0.0
H1170 H 0.57336 0.96963 0.57481 0.0
H1171 H 0.56359 0.94069 0.5506 0.0
H1172 H 0.53575 0.90743 0.59396 0.0
H1173 H 0.54518 0.93628 0.61841 0.0
C1174 C 0.61547 0.99605 0.68855 0.0
C1175 C 0.60274 0.98965 0.70237 0.0
C1176 C 0.60966 0.99317 0.66881 0.0
C1177 C 0.59116 0.98371 0.66279 0.0
C1178 C 0.57933 0.97518 0.67642 0.0
C1179 C 0.58502 0.97828 0.6961 0.0
C1180 C 0.58262 0.98674 0.64376 0.0
C1181 C 0.57555 0.97031 0.63033 0.0
C1182 C 0.57988 0.0059 0.63973 0.0
C1183 C 0.58713 0.02381 0.65331 0.0
C1184 C 0.57998 0.02613 0.67171 0.0
C1185 C 0.58747 0.0427 0.6847 0.0
C1186 C 0.602 0.05712 0.67935 0.0
C1187 C 0.60899 0.05503 0.66096 0.0
C1188 C 0.60156 0.03848 0.64794 0.0
C1189 C 0.51892 0.98804 0.57464 0.0
C1190 C 0.52482 0.00393 0.56362 0.0
C1191 C 0.5311 0.98364 0.58934 0.0
C1192 C 0.54939 0.99492 0.59299 0.0
C1193 C 0.55528 0.01054 0.58168 0.0
C1194 C 0.54308 0.01513 0.56734 0.0
C1195 C 0.56188 0.99167 0.60959 0.0
C1196 C 0.56954 0.00813 0.62278 0.0
C1197 C 0.56558 0.97262 0.613 0.0
C1198 C 0.55983 0.95519 0.59841 0.0
C1199 C 0.56502 0.9562 0.57916 0.0
C1200 C 0.55957 0.9398 0.56539 0.0
C1201 C 0.54901 0.92225 0.57073 0.0
C1202 C 0.54392 0.92105 0.58985 0.0
C1203 C 0.54934 0.93741 0.60368 0.0
H1204 H 0.54479 0.90957 0.56005 0.0
H1205 H 0.60783 0.06991 0.68943 0.0
H1206 H 0.25727 0.40449 0.95659 0.0
H1207 H 0.26118 0.38837 0.92444 0.0
H1208 H 0.26768 0.33471 0.95007 0.0
H1209 H 0.26334 0.35056 0.98208 0.0
H1210 H 0.28778 0.37273 0.90732 0.0
H1211 H 0.24756 0.29437 0.92037 0.0
H1212 H 0.22163 0.27941 0.93937 0.0
H1213 H 0.19902 0.33334 0.94134 0.0
H1214 H 0.22465 0.34852 0.92214 0.0
H1215 H 0.30071 0.30394 0.82723 0.0
H1216 H 0.29999 0.32105 0.85974 0.0
H1217 H 0.2397 0.3161 0.85135 0.0
H1218 H 0.24021 0.29854 0.81952 0.0
H1219 H 0.24664 0.30808 0.88539 0.0
H1220 H 0.27223 0.36064 0.84804 0.0
H1221 H 0.29444 0.37798 0.8265 0.0
H1222 H 0.34012 0.38001 0.86899 0.0
H1223 H 0.31822 0.36243 0.89069 0.0
C1224 C 0.25958 0.38927 0.95537 0.0
C1225 C 0.25981 0.37875 0.97188 0.0
C1226 C 0.2619 0.38009 0.93698 0.0
C1227 C 0.26448 0.3602 0.93472 0.0
C1228 C 0.26536 0.34993 0.95132 0.0
C1229 C 0.26292 0.35905 0.96965 0.0
C1230 C 0.2656 0.34995 0.91501 0.0
C1231 C 0.27882 0.35856 0.90254 0.0
C1232 C 0.25364 0.33168 0.90849 0.0
C1233 C 0.23816 0.32265 0.92003 0.0
C1234 C 0.23703 0.30302 0.92483 0.0
C1235 C 0.22239 0.2945 0.93563 0.0
C1236 C 0.20873 0.30544 0.94163 0.0
C1237 C 0.20965 0.32491 0.93677 0.0
C1238 C 0.22425 0.33349 0.92595 0.0
C1239 C 0.28732 0.30646 0.83237 0.0
C1240 C 0.27054 0.29977 0.82073 0.0
C1241 C 0.28692 0.31636 0.85093 0.0
C1242 C 0.26979 0.32008 0.85805 0.0
C1243 C 0.2531 0.31337 0.84637 0.0
C1244 C 0.25345 0.3033 0.82805 0.0
C1245 C 0.26894 0.33072 0.87765 0.0
C1246 C 0.25574 0.32217 0.89016 0.0
C1247 C 0.28044 0.34937 0.88386 0.0
C1248 C 0.29362 0.36004 0.8709 0.0
C1249 C 0.28703 0.36466 0.85274 0.0
C1250 C 0.29956 0.37455 0.84051 0.0
C1251 C 0.31868 0.38004 0.84635 0.0
C1252 C 0.32531 0.37571 0.86447 0.0
C1253 C 0.31284 0.3658 0.87674 0.0
H1254 H 0.32836 0.38769 0.83686 0.0
H1255 H 0.19741 0.29882 0.94999 0.0
H1256 H 0.87878 0.04341 0.31513 0.0
H1257 H 0.89061 0.03409 0.34619 0.0
H1258 H 0.93856 0.01722 0.31879 0.0
H1259 H 0.92713 0.02694 0.28793 0.0
H1260 H 0.9197 0.98873 0.34352 0.0
H1261 H 0.94554 0.05867 0.34371 0.0
H1262 H 0.94448 0.09419 0.34203 0.0
H1263 H 0.91031 0.09379 0.3911 0.0
H1264 H 0.91087 0.05815 0.39283 0.0
H1265 H 0.98627 0.98681 0.42224 0.0
H1266 H 0.9682 0.99042 0.39239 0.0
H1267 H 0.9292 0.01774 0.42614 0.0
H1268 H 0.94743 0.01452 0.45592 0.0
H1269 H 0.94082 0.03997 0.39881 0.0
H1270 H 0.91614 0.97152 0.40089 0.0
H1271 H 0.91698 0.93617 0.40385 0.0
H1272 H 0.94726 0.93318 0.35214 0.0
H1273 H 0.9469 0.96865 0.34904 0.0
C1274 C 0.89183 0.0377 0.31575 0.0
C1275 C 0.90204 0.03596 0.29909 0.0
C1276 C 0.89857 0.0324 0.33348 0.0
C1277 C 0.91546 0.02496 0.33477 0.0
C1278 C 0.92547 0.02286 0.31809 0.0
C1279 C 0.91895 0.02851 0.30048 0.0
C1280 C 0.92299 0.01979 0.35358 0.0
C1281 C 0.92446 0.99991 0.35559 0.0
C1282 C 0.92865 0.03431 0.3695 0.0
C1283 C 0.92799 0.05565 0.36819 0.0
C1284 C 0.93757 0.06607 0.35396 0.0
C1285 C 0.93711 0.08625 0.35304 0.0
C1286 C 0.92726 0.09622 0.3664 0.0
C1287 C 0.91788 0.08604 0.38072 0.0
C1288 C 0.91825 0.06584 0.38166 0.0
C1289 C 0.97361 0.99316 0.42328 0.0
C1290 C 0.96827 0.0004 0.44137 0.0
C1291 C 0.96326 0.99521 0.40622 0.0
C1292 C 0.9473 0.00437 0.40697 0.0
C1293 C 0.9415 0.01074 0.42514 0.0
C1294 C 0.95189 0.0088 0.44216 0.0
C1295 C 0.93767 0.00885 0.38884 0.0
C1296 C 0.93585 0.02865 0.38689 0.0
C1297 C 0.93148 0.9942 0.37311 0.0
C1298 C 0.93163 0.97281 0.37482 0.0
C1299 C 0.92311 0.96338 0.39022 0.0
C1300 C 0.92348 0.9433 0.39192 0.0
C1301 C 0.9322 0.93244 0.37821 0.0
C1302 C 0.94053 0.94162 0.36276 0.0
C1303 C 0.94023 0.96171 0.36101 0.0
H1304 H 0.93247 0.9169 0.37955 0.0
H1305 H 0.92696 0.11186 0.36569 0.0
H1306 H 0.29209 0.66919 0.56711 0.0
H1307 H 0.29436 0.68654 0.59977 0.0
H1308 H 0.24715 0.71409 0.58418 0.0
H1309 H 0.24536 0.69754 0.55144 0.0
H1310 H 0.27276 0.74051 0.60327 0.0
H1311 H 0.24279 0.67373 0.61461 0.0
H1312 H 0.23999 0.63725 0.61307 0.0
H1313 H 0.29402 0.64407 0.64399 0.0
H1314 H 0.2972 0.68059 0.64554 0.0
H1315 H 0.25537 0.77472 0.70006 0.0
H1316 H 0.25114 0.75614 0.66774 0.0
H1317 H 0.3025 0.73388 0.67903 0.0
H1318 H 0.30665 0.75221 0.71124 0.0
H1319 H 0.27346 0.70474 0.66231 0.0
H1320 H 0.30312 0.77157 0.65202 0.0
H1321 H 0.30557 0.808 0.65407 0.0
H1322 H 0.2526 0.80109 0.6211 0.0
H1323 H 0.24972 0.76459 0.61907 0.0
C1324 C 0.28219 0.6789 0.57071 0.0
C1325 C 0.2686 0.68205 0.55673 0.0
C1326 C 0.28342 0.68874 0.58939 0.0
C1327 C 0.27075 0.70143 0.59451 0.0
C1328 C 0.25711 0.70444 0.58056 0.0
C1329 C 0.2561 0.69494 0.56185 0.0
C1330 C 0.27181 0.71191 0.61427 0.0
C1331 C 0.27273 0.73262 0.61617 0.0
C1332 C 0.2721 0.70174 0.63113 0.0
C1333 C 0.27024 0.67983 0.63014 0.0
C1334 C 0.2541 0.66742 0.621 0.0
C1335 C 0.25244 0.64675 0.62013 0.0
C1336 C 0.26682 0.63835 0.62841 0.0
C1337 C 0.28291 0.65059 0.63755 0.0
C1338 C 0.28464 0.67127 0.63843 0.0
C1339 C 0.26562 0.76571 0.69564 0.0
C1340 C 0.28133 0.76487 0.70801 0.0
C1341 C 0.26327 0.75522 0.6772 0.0
C1342 C 0.2766 0.74377 0.671 0.0
C1343 C 0.29208 0.74264 0.68356 0.0
C1344 C 0.29449 0.75321 0.70187 0.0
C1345 C 0.27476 0.73323 0.65129 0.0
C1346 C 0.27362 0.71255 0.6494 0.0
C1347 C 0.27433 0.74343 0.63448 0.0
C1348 C 0.27611 0.76536 0.63557 0.0
C1349 C 0.29192 0.77782 0.64533 0.0
C1350 C 0.29341 0.79848 0.64647 0.0
C1351 C 0.27923 0.80685 0.63777 0.0
C1352 C 0.26356 0.79458 0.62786 0.0
C1353 C 0.262 0.77391 0.6267 0.0
H1354 H 0.2804 0.82285 0.63866 0.0
H1355 H 0.2655 0.62234 0.62776 0.0
H1356 H 0.62864 0.01809 0.82483 0.0
H1357 H 0.60964 0.02256 0.85281 0.0
H1358 H 0.56033 0.01885 0.81409 0.0
H1359 H 0.5791 0.01455 0.78628 0.0
H1360 H 0.56191 0.04803 0.84262 0.0
H1361 H 0.5691 0.97938 0.83604 0.0
H1362 H 0.58586 0.951 0.83493 0.0
H1363 H 0.6097 0.96972 0.8929 0.0
H1364 H 0.59343 0.99849 0.8942 0.0
H1365 H 0.50348 0.99627 0.92307 0.0
H1366 H 0.52077 0.99573 0.8936 0.0
H1367 H 0.54689 0.05707 0.90885 0.0
H1368 H 0.52913 0.05784 0.93796 0.0
H1369 H 0.55693 0.99947 0.89188 0.0
H1370 H 0.56093 0.07895 0.86876 0.0
H1371 H 0.54166 0.10531 0.86914 0.0
H1372 H 0.49126 0.06145 0.86857 0.0
H1373 H 0.5102 0.03482 0.86794 0.0
C1374 C 0.61379 0.01842 0.82234 0.0
C1375 C 0.60532 0.01589 0.80341 0.0
C1376 C 0.60296 0.02089 0.83829 0.0
C1377 C 0.58356 0.02086 0.83548 0.0
C1378 C 0.57527 0.01893 0.81657 0.0
C1379 C 0.58603 0.01641 0.80069 0.0
C1380 C 0.57159 0.02226 0.85211 0.0
C1381 C 0.56088 0.03748 0.85347 0.0
C1382 C 0.57008 0.00831 0.86608 0.0
C1383 C 0.5803 0.99131 0.86508 0.0
C1384 C 0.57815 0.97763 0.84844 0.0
C1385 C 0.58753 0.96144 0.8478 0.0
C1386 C 0.59892 0.95861 0.86379 0.0
C1387 C 0.60095 0.97197 0.88048 0.0
C1388 C 0.59168 0.98825 0.88116 0.0
C1389 C 0.51252 0.00978 0.91982 0.0
C1390 C 0.51493 0.02713 0.93266 0.0
C1391 C 0.52249 0.00942 0.90309 0.0
C1392 C 0.53509 0.02637 0.89899 0.0
C1393 C 0.53701 0.04392 0.91152 0.0
C1394 C 0.52688 0.04434 0.92815 0.0
C1395 C 0.54719 0.02521 0.88241 0.0
C1396 C 0.55802 0.0101 0.88112 0.0
C1397 C 0.54858 0.03906 0.86836 0.0
C1398 C 0.53701 0.05492 0.86849 0.0
C1399 C 0.54573 0.07493 0.86864 0.0
C1400 C 0.53487 0.08992 0.86891 0.0
C1401 C 0.51525 0.08506 0.86894 0.0
C1402 C 0.50646 0.0652 0.86863 0.0
C1403 C 0.51725 0.05015 0.86833 0.0
H1404 H 0.50687 0.09669 0.86917 0.0
H1405 H 0.60611 0.94602 0.86329 0.0
H1406 H 0.26689 0.39568 0.0888 0.0
H1407 H 0.26409 0.38334 0.12109 0.0
H1408 H 0.23111 0.32803 0.09499 0.0
H1409 H 0.23437 0.33999 0.06287 0.0
H1410 H 0.21849 0.34446 0.13277 0.0
H1411 H 0.27424 0.32803 0.10116 0.0
H1412 H 0.30437 0.33758 0.08611 0.0
H1413 H 0.32675 0.37518 0.1377 0.0
H1414 H 0.29661 0.36605 0.15294 0.0
H1415 H 0.22656 0.26608 0.19097 0.0
H1416 H 0.22494 0.28878 0.16574 0.0
H1417 H 0.27165 0.3301 0.19536 0.0
H1418 H 0.27364 0.30725 0.22017 0.0
H1419 H 0.27767 0.32665 0.15922 0.0
H1420 H 0.22622 0.34049 0.19366 0.0
H1421 H 0.19672 0.33424 0.21046 0.0
H1422 H 0.16678 0.30668 0.15733 0.0
H1423 H 0.19615 0.31246 0.14023 0.0
C1424 C 0.25865 0.38111 0.09007 0.0
C1425 C 0.25083 0.36878 0.07336 0.0
C1426 C 0.25711 0.37405 0.10848 0.0
C1427 C 0.2474 0.35474 0.11044 0.0
C1428 C 0.23857 0.34299 0.09386 0.0
C1429 C 0.24048 0.34982 0.07551 0.0
C1430 C 0.24808 0.34574 0.12919 0.0
C1431 C 0.23138 0.34047 0.13857 0.0
C1432 C 0.26503 0.34124 0.13719 0.0
C1433 C 0.28314 0.34655 0.12808 0.0
C1434 C 0.28554 0.33846 0.10922 0.0
C1435 C 0.30262 0.34377 0.10067 0.0
C1436 C 0.31745 0.35703 0.11091 0.0
C1437 C 0.31524 0.36495 0.12976 0.0
C1438 C 0.29817 0.35971 0.13836 0.0
C1439 C 0.2364 0.28005 0.19212 0.0
C1440 C 0.2502 0.28485 0.20756 0.0
C1441 C 0.23539 0.29313 0.17777 0.0
C1442 C 0.24807 0.31135 0.17865 0.0
C1443 C 0.26171 0.3162 0.19425 0.0
C1444 C 0.26279 0.30311 0.20848 0.0
C1445 C 0.24789 0.32471 0.16271 0.0
C1446 C 0.26473 0.33081 0.15377 0.0
C1447 C 0.23114 0.33041 0.15547 0.0
C1448 C 0.21344 0.32674 0.16569 0.0
C1449 C 0.21339 0.33292 0.18559 0.0
C1450 C 0.19669 0.32952 0.19516 0.0
C1451 C 0.17991 0.32005 0.18498 0.0
C1452 C 0.1798 0.314 0.1652 0.0
C1453 C 0.19646 0.31735 0.15555 0.0
H1454 H 0.16699 0.31743 0.19243 0.0
H1455 H 0.33066 0.36112 0.10427 0.0
H1456 H 0.18655 0.9094 0.02645 0.0
H1457 H 0.16552 0.93259 0.03529 0.0
H1458 H 0.19688 0.97611 0.00207 0.0
H1459 H 0.21889 0.95349 0.99473 0.0
H1460 H 0.18639 0.99505 0.03094 0.0
H1461 H 0.15188 0.94421 0.98365 0.0
H1462 H 0.13913 0.90982 0.96981 0.0
H1463 H 0.10934 0.89894 0.02111 0.0
H1464 H 0.12226 0.9332 0.03533 0.0
H1465 H 0.10057 0.03315 0.00204 0.0
H1466 H 0.12892 0.01805 0.00266 0.0
H1467 H 0.11674 0.99898 0.05905 0.0
H1468 H 0.08861 0.0144 0.05874 0.0
H1469 H 0.11779 0.96894 0.02036 0.0
H1470 H 0.15125 0.02427 0.0645 0.0
H1471 H 0.16314 0.0599 0.07399 0.0
H1472 H 0.19452 0.06367 0.02293 0.0
H1473 H 0.18256 0.0281 0.01298 0.0
C1474 C 0.18894 0.92399 0.02118 0.0
C1475 C 0.20409 0.92969 0.00977 0.0
C1476 C 0.17688 0.93718 0.0261 0.0
C1477 C 0.1792 0.95592 0.01884 0.0
C1478 C 0.1947 0.96175 0.0078 0.0
C1479 C 0.2072 0.94882 0.00351 0.0
C1480 C 0.16514 0.96908 0.02217 0.0
C1481 C 0.17141 0.98932 0.02848 0.0
C1482 C 0.14554 0.96175 0.01902 0.0
C1483 C 0.13791 0.94119 0.0105 0.0
C1484 C 0.14264 0.93444 0.99197 0.0
C1485 C 0.13543 0.91498 0.98407 0.0
C1486 C 0.12341 0.90221 0.99456 0.0
C1487 C 0.1186 0.90886 0.01297 0.0
C1488 C 0.12581 0.92829 0.02093 0.0
C1489 C 0.10429 0.0263 0.01482 0.0
C1490 C 0.09241 0.02479 0.03029 0.0
C1491 C 0.12045 0.01773 0.01516 0.0
C1492 C 0.1248 0.00747 0.03089 0.0
C1493 C 0.11357 0.00696 0.04685 0.0
C1494 C 0.09756 0.01576 0.04665 0.0
C1495 C 0.1391 0.99465 0.02922 0.0
C1496 C 0.1328 0.97452 0.023 0.0
C1497 C 0.15858 0.00225 0.03187 0.0
C1498 C 0.16584 0.02358 0.03789 0.0
C1499 C 0.16051 0.03274 0.05519 0.0
C1500 C 0.16731 0.05292 0.06068 0.0
C1501 C 0.17953 0.06406 0.04904 0.0
C1502 C 0.18503 0.05503 0.03192 0.0
C1503 C 0.17826 0.03486 0.02636 0.0
H1504 H 0.18478 0.07967 0.05332 0.0
H1505 H 0.11785 0.88715 0.98843 0.0
H1506 H 0.6924 0.64403 0.96439 0.0
H1507 H 0.66196 0.62263 0.96659 0.0
H1508 H 0.68755 0.58825 0.00595 0.0
H1509 H 0.71828 0.60918 0.00318 0.0
H1510 H 0.66221 0.5642 0.98279 0.0
H1511 H 0.66043 0.62437 0.02362 0.0
H1512 H 0.66436 0.66072 0.03133 0.0
H1513 H 0.62459 0.66391 0.98418 0.0
H1514 H 0.62062 0.62761 0.9761 0.0
H1515 H 0.57113 0.51995 0.01268 0.0
H1516 H 0.60332 0.53944 0.01424 0.0
H1517 H 0.5866 0.57326 0.96894 0.0
H1518 H 0.55466 0.55397 0.96739 0.0
H1519 H 0.60821 0.59708 0.99897 0.0
H1520 H 0.61011 0.53617 0.9584 0.0
H1521 H 0.60626 0.49976 0.95162 0.0
H1522 H 0.6462 0.49787 0.99899 0.0
H1523 H 0.65009 0.53427 0.00621 0.0
C1524 C 0.69161 0.63183 0.97341 0.0
C1525 C 0.70779 0.62844 0.98372 0.0
C1526 C 0.67413 0.61966 0.97477 0.0
C1527 C 0.67228 0.60412 0.98688 0.0
C1528 C 0.68853 0.60021 0.99662 0.0
C1529 C 0.70612 0.6122 0.99501 0.0
C1530 C 0.65333 0.59227 0.9896 0.0
C1531 C 0.65048 0.57141 0.98658 0.0
C1532 C 0.63789 0.60154 0.99445 0.0
C1533 C 0.64019 0.62332 0.9993 0.0
C1534 C 0.65257 0.63286 0.01489 0.0
C1535 C 0.65481 0.65344 0.01932 0.0
C1536 C 0.64473 0.66462 0.00826 0.0
C1537 C 0.6324 0.65524 0.99274 0.0
C1538 C 0.6301 0.63466 0.98827 0.0
C1539 C 0.57434 0.53171 0.00326 0.0
C1540 C 0.56045 0.53547 0.98993 0.0
C1541 C 0.59273 0.54272 0.00405 0.0
C1542 C 0.59741 0.55774 0.99161 0.0
C1543 C 0.58336 0.56177 0.97866 0.0
C1544 C 0.56513 0.55065 0.97772 0.0
C1545 C 0.61697 0.56911 0.99157 0.0
C1546 C 0.61995 0.5899 0.9952 0.0
C1547 C 0.63249 0.55974 0.98738 0.0
C1548 C 0.63023 0.5379 0.98298 0.0
C1549 C 0.61795 0.52797 0.96747 0.0
C1550 C 0.61579 0.50734 0.96353 0.0
C1551 C 0.62593 0.4965 0.97491 0.0
C1552 C 0.63832 0.50628 0.99022 0.0
C1553 C 0.64052 0.52691 0.99423 0.0
H1554 H 0.62424 0.48053 0.97183 0.0
H1555 H 0.64647 0.68055 0.01171 0.0
H1556 H 0.64383 0.44175 0.28094 0.0
H1557 H 0.66201 0.41486 0.27673 0.0
H1558 H 0.70787 0.45547 0.25653 0.0
H1559 H 0.68986 0.48253 0.26095 0.0
H1560 H 0.70018 0.41811 0.23422 0.0
H1561 H 0.71102 0.44475 0.30105 0.0
H1562 H 0.70215 0.45487 0.33384 0.0
H1563 H 0.67493 0.39493 0.33931 0.0
H1564 H 0.68336 0.38451 0.3064 0.0
H1565 H 0.76595 0.3511 0.27892 0.0
H1566 H 0.75105 0.38062 0.28038 0.0
H1567 H 0.70752 0.35041 0.23806 0.0
H1568 H 0.72229 0.32098 0.23642 0.0
H1569 H 0.71651 0.38477 0.29165 0.0
H1570 H 0.69172 0.38401 0.21117 0.0
H1571 H 0.70167 0.37415 0.17873 0.0
H1572 H 0.75925 0.38343 0.20131 0.0
H1573 H 0.74968 0.39358 0.23382 0.0
C1574 C 0.65772 0.44494 0.27543 0.0
C1575 C 0.66539 0.46432 0.27132 0.0
C1576 C 0.66813 0.42956 0.27311 0.0
C1577 C 0.68638 0.43315 0.26644 0.0
C1578 C 0.69383 0.45233 0.2617 0.0
C1579 C 0.68352 0.46779 0.26427 0.0
C1580 C 0.69787 0.41706 0.26498 0.0
C1581 C 0.70372 0.41079 0.24678 0.0
C1582 C 0.70276 0.40764 0.28138 0.0
C1583 C 0.6976 0.41391 0.30114 0.0
C1584 C 0.70296 0.43377 0.30915 0.0
C1585 C 0.69805 0.43955 0.32778 0.0
C1586 C 0.68792 0.42557 0.33862 0.0
C1587 C 0.68273 0.40576 0.33088 0.0
C1588 C 0.68757 0.39991 0.31223 0.0
C1589 C 0.75338 0.35083 0.26968 0.0
C1590 C 0.74544 0.33364 0.25745 0.0
C1591 C 0.74479 0.3677 0.27062 0.0
C1592 C 0.72819 0.36785 0.25924 0.0
C1593 C 0.72042 0.35081 0.24682 0.0
C1594 C 0.72891 0.33394 0.24594 0.0
C1595 C 0.71854 0.38545 0.26086 0.0
C1596 C 0.71299 0.39202 0.27908 0.0
C1597 C 0.71398 0.39514 0.24451 0.0
C1598 C 0.71994 0.38941 0.22495 0.0
C1599 C 0.70651 0.38405 0.20918 0.0
C1600 C 0.71208 0.37838 0.19079 0.0
C1601 C 0.73107 0.37812 0.18797 0.0
C1602 C 0.74454 0.38358 0.20353 0.0
C1603 C 0.73904 0.38926 0.22194 0.0
H1604 H 0.73535 0.37371 0.17373 0.0
H1605 H 0.68415 0.43008 0.35305 0.0
H1606 H 0.79426 0.44209 0.48983 0.0
H1607 H 0.82511 0.46236 0.4868 0.0
H1608 H 0.84875 0.40928 0.47556 0.0
H1609 H 0.81788 0.38878 0.47856 0.0
H1610 H 0.8691 0.43585 0.50423 0.0
H1611 H 0.84353 0.4365 0.43948 0.0
H1612 H 0.81985 0.44094 0.41423 0.0
H1613 H 0.82532 0.50253 0.43532 0.0
H1614 H 0.84884 0.49839 0.46089 0.0
H1615 H 0.9512 0.50032 0.46096 0.0
H1616 H 0.919 0.48153 0.45609 0.0
H1617 H 0.90853 0.50008 0.51503 0.0
H1618 H 0.94069 0.51864 0.52014 0.0
H1619 H 0.88263 0.48862 0.45957 0.0
H1620 H 0.88715 0.46057 0.53509 0.0
H1621 H 0.91149 0.45593 0.5596 0.0
H1622 H 0.94897 0.4469 0.5147 0.0
H1623 H 0.92478 0.45126 0.48991 0.0
C1624 C 0.80597 0.43468 0.48656 0.0
C1625 C 0.80363 0.4138 0.48455 0.0
C1626 C 0.82356 0.44631 0.48473 0.0
C1627 C 0.83915 0.43729 0.48089 0.0
C1628 C 0.83684 0.41648 0.47851 0.0
C1629 C 0.81919 0.40481 0.48018 0.0
C1630 C 0.85806 0.44966 0.48054 0.0
C1631 C 0.87208 0.44731 0.49439 0.0
C1632 C 0.86194 0.46452 0.46763 0.0
C1633 C 0.84785 0.46709 0.45221 0.0
C1634 C 0.83958 0.45096 0.43884 0.0
C1635 C 0.8262 0.45342 0.42445 0.0
C1636 C 0.82106 0.47199 0.4232 0.0
C1637 C 0.82931 0.48815 0.43631 0.0
C1638 C 0.84269 0.48575 0.45075 0.0
C1639 C 0.94192 0.50077 0.47275 0.0
C1640 C 0.94858 0.51069 0.49103 0.0
C1641 C 0.92353 0.49003 0.46993 0.0
C1642 C 0.91159 0.48911 0.48533 0.0
C1643 C 0.9177 0.50033 0.50308 0.0
C1644 C 0.93607 0.51094 0.50596 0.0
C1645 C 0.89345 0.47503 0.48349 0.0
C1646 C 0.87962 0.47708 0.4693 0.0
C1647 C 0.88977 0.45972 0.49595 0.0
C1648 C 0.90418 0.45636 0.51067 0.0
C1649 C 0.90053 0.45745 0.53044 0.0
C1650 C 0.91432 0.45492 0.54439 0.0
C1651 C 0.93178 0.45117 0.53871 0.0
C1652 C 0.93546 0.44985 0.51907 0.0
C1653 C 0.92172 0.45236 0.50508 0.0
H1654 H 0.94245 0.44927 0.54953 0.0
H1655 H 0.8107 0.47387 0.41204 0.0
H1656 H 0.38874 0.10625 0.26131 0.0
H1657 H 0.36631 0.12706 0.25171 0.0
H1658 H 0.32021 0.07872 0.25653 0.0
H1659 H 0.34259 0.05762 0.26529 0.0
H1660 H 0.31165 0.09897 0.22806 0.0
H1661 H 0.33589 0.11528 0.29468 0.0
H1662 H 0.36043 0.12544 0.32137 0.0
H1663 H 0.37927 0.18019 0.29671 0.0
H1664 H 0.35499 0.17022 0.26973 0.0
H1665 H 0.26376 0.18446 0.27527 0.0
H1666 H 0.28033 0.15638 0.2756 0.0
H1667 H 0.29186 0.16101 0.21551 0.0
H1668 H 0.27491 0.18896 0.21498 0.0
H1669 H 0.3171 0.16193 0.27054 0.0
H1670 H 0.3006 0.11448 0.19647 0.0
H1671 H 0.2738 0.10307 0.17236 0.0
H1672 H 0.235 0.10827 0.2168 0.0
H1673 H 0.26154 0.11944 0.2412 0.0
C1674 C 0.37384 0.09998 0.26001 0.0
C1675 C 0.36738 0.08043 0.2643 0.0
C1676 C 0.36103 0.11188 0.25456 0.0
C1677 C 0.34155 0.10458 0.25384 0.0
C1678 C 0.33516 0.08469 0.25704 0.0
C1679 C 0.34797 0.07267 0.26213 0.0
C1680 C 0.32783 0.11809 0.25156 0.0
C1681 C 0.31284 0.11277 0.23733 0.0
C1682 C 0.32915 0.13591 0.26389 0.0
C1683 C 0.34378 0.1419 0.28008 0.0
C1684 C 0.34536 0.12941 0.29488 0.0
C1685 C 0.35921 0.13515 0.31007 0.0
C1686 C 0.37144 0.15342 0.31071 0.0
C1687 C 0.36981 0.16602 0.29618 0.0
C1688 C 0.35602 0.16034 0.28094 0.0
C1689 C 0.26934 0.17912 0.26197 0.0
C1690 C 0.26821 0.18892 0.24513 0.0
C1691 C 0.27886 0.16315 0.2622 0.0
C1692 C 0.28745 0.15674 0.24564 0.0
C1693 C 0.28521 0.16562 0.2284 0.0
C1694 C 0.27557 0.18159 0.22812 0.0
C1695 C 0.30075 0.14276 0.24731 0.0
C1696 C 0.31583 0.14812 0.26133 0.0
C1697 C 0.29915 0.12482 0.23516 0.0
C1698 C 0.28308 0.11802 0.22061 0.0
C1699 C 0.28635 0.11314 0.2011 0.0
C1700 C 0.2712 0.10672 0.18739 0.0
C1701 C 0.25271 0.10502 0.19304 0.0
C1702 C 0.24933 0.10969 0.21243 0.0
C1703 C 0.26442 0.1161 0.22619 0.0
H1704 H 0.24101 0.10004 0.1824 0.0
H1705 H 0.38214 0.15783 0.32248 0.0
H1706 H 0.29696 0.09056 0.49364 0.0
H1707 H 0.32319 0.07265 0.49713 0.0
H1708 H 0.36157 0.12846 0.51055 0.0
H1709 H 0.3355 0.14638 0.50604 0.0
H1710 H 0.37814 0.10699 0.48896 0.0
H1711 H 0.34541 0.09465 0.54597 0.0
H1712 H 0.31826 0.08416 0.56532 0.0
H1713 H 0.31107 0.02489 0.537 0.0
H1714 H 0.33804 0.03509 0.5173 0.0
H1715 H 0.43597 0.04097 0.54483 0.0
H1716 H 0.40856 0.05738 0.54223 0.0
H1717 H 0.40999 0.05169 0.47984 0.0
H1718 H 0.43777 0.0359 0.48248 0.0
H1719 H 0.37425 0.04904 0.52757 0.0
H1720 H 0.39662 0.09285 0.46138 0.0
H1721 H 0.42592 0.10605 0.44629 0.0
H1722 H 0.4575 0.1083 0.50067 0.0
H1723 H 0.42838 0.09563 0.5162 0.0
C1724 C 0.31098 0.099 0.49743 0.0
C1725 C 0.31412 0.1199 0.49963 0.0
C1726 C 0.32602 0.08873 0.49953 0.0
C1727 C 0.34449 0.09908 0.50444 0.0
C1728 C 0.34756 0.12 0.50673 0.0
C1729 C 0.3326 0.13027 0.50424 0.0
C1730 C 0.36064 0.08821 0.50683 0.0
C1731 C 0.37722 0.09432 0.49741 0.0
C1732 C 0.35983 0.0719 0.5182 0.0
C1733 C 0.34363 0.06569 0.53004 0.0
C1734 C 0.33795 0.07941 0.54378 0.0
C1735 C 0.32261 0.07352 0.55482 0.0
C1736 C 0.31291 0.05389 0.55236 0.0
C1737 C 0.31857 0.0401 0.53888 0.0
C1738 C 0.3339 0.04592 0.52778 0.0
C1739 C 0.43031 0.04305 0.53056 0.0
C1740 C 0.43907 0.03724 0.51387 0.0
C1741 C 0.4146 0.05242 0.52907 0.0
C1742 C 0.40728 0.05613 0.51085 0.0
C1743 C 0.41553 0.04943 0.49411 0.0
C1744 C 0.43135 0.04027 0.49561 0.0
C1745 C 0.39155 0.06764 0.50946 0.0
C1746 C 0.3751 0.06168 0.51907 0.0
C1747 C 0.39277 0.08457 0.49888 0.0
C1748 C 0.41033 0.09286 0.48983 0.0
C1749 C 0.40981 0.09617 0.4701 0.0
C1750 C 0.42639 0.10356 0.46148 0.0
C1751 C 0.44358 0.10778 0.47245 0.0
C1752 C 0.4442 0.10488 0.49214 0.0
C1753 C 0.42765 0.0976 0.50087 0.0
H1754 H 0.4564 0.11342 0.46571 0.0
H1755 H 0.30104 0.04935 0.56092 0.0
H1756 H 0.6335 0.58963 0.2942 0.0
H1757 H 0.6548 0.62149 0.29406 0.0
H1758 H 0.70265 0.59216 0.29901 0.0
H1759 H 0.68141 0.55997 0.29874 0.0
H1760 H 0.7012 0.63318 0.32508 0.0
H1761 H 0.69566 0.59973 0.25831 0.0
H1762 H 0.67654 0.58306 0.22919 0.0
H1763 H 0.64946 0.63371 0.22567 0.0
H1764 H 0.66827 0.65054 0.25497 0.0
H1765 H 0.77415 0.70924 0.30091 0.0
H1766 H 0.75301 0.67847 0.30624 0.0
H1767 H 0.70892 0.69567 0.27082 0.0
H1768 H 0.73059 0.72539 0.26417 0.0
H1769 H 0.70759 0.6604 0.26127 0.0
H1770 H 0.70935 0.69525 0.32335 0.0
H1771 H 0.7231 0.71482 0.35377 0.0
H1772 H 0.75018 0.66676 0.3687 0.0
H1773 H 0.73677 0.64698 0.33822 0.0
C1774 C 0.64855 0.5899 0.2955 0.0
C1775 C 0.65573 0.57217 0.29642 0.0
C1776 C 0.66069 0.60816 0.29542 0.0
C1777 C 0.68026 0.60915 0.29655 0.0
C1778 C 0.68756 0.59167 0.29821 0.0
C1779 C 0.6754 0.5733 0.29796 0.0
C1780 C 0.69298 0.62826 0.2946 0.0
C1781 C 0.7029 0.63909 0.31113 0.0
C1782 C 0.69433 0.63639 0.27659 0.0
C1783 C 0.68322 0.62629 0.2589 0.0
C1784 C 0.68551 0.60722 0.25141 0.0
C1785 C 0.67474 0.59776 0.23485 0.0
C1786 C 0.66174 0.6073 0.22559 0.0
C1787 C 0.65951 0.62633 0.23286 0.0
C1788 C 0.67023 0.63584 0.24942 0.0
C1789 C 0.75991 0.70645 0.29435 0.0
C1790 C 0.75394 0.71986 0.28228 0.0
C1791 C 0.74773 0.68891 0.29755 0.0
C1792 C 0.72913 0.68471 0.28923 0.0
C1793 C 0.72314 0.69838 0.27745 0.0
C1794 C 0.73547 0.71558 0.27383 0.0
C1795 C 0.71625 0.66563 0.2918 0.0
C1796 C 0.70614 0.65472 0.27534 0.0
C1797 C 0.7141 0.65792 0.31007 0.0
C1798 C 0.72224 0.66972 0.3284 0.0
C1799 C 0.71837 0.68892 0.33304 0.0
C1800 C 0.72607 0.70003 0.35031 0.0
C1801 C 0.73756 0.69206 0.36313 0.0
C1802 C 0.74131 0.67293 0.35874 0.0
C1803 C 0.73365 0.66175 0.34148 0.0
H1804 H 0.74351 0.70069 0.37649 0.0
H1805 H 0.65339 0.60002 0.21277 0.0
H1806 H 0.86162 0.49633 0.79956 0.0
H1807 H 0.84169 0.46478 0.80435 0.0
H1808 H 0.89108 0.4393 0.81598 0.0
H1809 H 0.91123 0.47089 0.81119 0.0
H1810 H 0.86683 0.41671 0.78824 0.0
H1811 H 0.86349 0.44678 0.85204 0.0
H1812 H 0.85901 0.47303 0.87708 0.0
H1813 H 0.80165 0.46862 0.85526 0.0
H1814 H 0.80585 0.44254 0.82988 0.0
H1815 H 0.79627 0.33259 0.82284 0.0
H1816 H 0.81704 0.3648 0.83132 0.0
H1817 H 0.80364 0.38273 0.77504 0.0
H1818 H 0.78288 0.35087 0.76642 0.0
H1819 H 0.81308 0.40677 0.83063 0.0
H1820 H 0.84604 0.39866 0.75681 0.0
H1821 H 0.85023 0.37179 0.73224 0.0
H1822 H 0.84997 0.33157 0.77638 0.0
H1823 H 0.84623 0.35829 0.80122 0.0
C1824 C 0.86829 0.48411 0.80337 0.0
C1825 C 0.88804 0.4861 0.80484 0.0
C1826 C 0.85685 0.46612 0.80624 0.0
C1827 C 0.86491 0.44974 0.81062 0.0
C1828 C 0.8846 0.4518 0.81266 0.0
C1829 C 0.89608 0.46987 0.80995 0.0
C1830 C 0.85273 0.43007 0.81125 0.0
C1831 C 0.85522 0.4145 0.79767 0.0
C1832 C 0.83768 0.42714 0.82368 0.0
C1833 C 0.83503 0.44277 0.83897 0.0
C1834 C 0.84995 0.4515 0.85248 0.0
C1835 C 0.84746 0.46634 0.86676 0.0
C1836 C 0.83006 0.47251 0.86775 0.0
C1837 C 0.81512 0.46383 0.85448 0.0
C1838 C 0.81754 0.44899 0.84016 0.0
C1839 C 0.79741 0.34354 0.81241 0.0
C1840 C 0.78811 0.339 0.79383 0.0
C1841 C 0.80925 0.36194 0.81733 0.0
C1842 C 0.81202 0.37595 0.80369 0.0
C1843 C 0.80179 0.37198 0.78567 0.0
C1844 C 0.78995 0.35371 0.78078 0.0
C1845 C 0.82694 0.39382 0.80726 0.0
C1846 C 0.8249 0.40898 0.82148 0.0
C1847 C 0.84257 0.39638 0.79559 0.0
C1848 C 0.8457 0.38045 0.78085 0.0
C1849 C 0.84706 0.38413 0.76128 0.0
C1850 C 0.84934 0.36891 0.7473 0.0
C1851 C 0.85033 0.34997 0.75272 0.0
C1852 C 0.84919 0.34623 0.77216 0.0
C1853 C 0.84699 0.36141 0.7862 0.0
H1854 H 0.852 0.3382 0.74185 0.0
H1855 H 0.82816 0.484 0.87881 0.0
H1856 H 0.01812 0.85981 0.15263 0.0
H1857 H 0.01469 0.88842 0.13469 0.0
H1858 H 0.04049 0.86276 0.08614 0.0
H1859 H 0.04398 0.83432 0.10389 0.0
H1860 H 0.05318 0.90261 0.093 0.0
H1861 H 0.99341 0.85748 0.08628 0.0
H1862 H 0.96532 0.83748 0.09833 0.0
H1863 H 0.9507 0.89029 0.12683 0.0
H1864 H 0.97888 0.91058 0.11517 0.0
H1865 H 0.02919 0.95792 0.01842 0.0
H1866 H 0.03152 0.92998 0.03748 0.0
H1867 H 0.99673 0.95285 0.07979 0.0
H1868 H 0.99307 0.9798 0.0598 0.0
H1869 H 0.98882 0.91545 0.07793 0.0
H1870 H 0.04903 0.96087 0.08457 0.0
H1871 H 0.07697 0.98049 0.07178 0.0
H1872 H 0.09041 0.92715 0.04312 0.0
H1873 H 0.06273 0.90729 0.05581 0.0
C1874 C 0.02333 0.86046 0.13826 0.0
C1875 C 0.03125 0.84479 0.12963 0.0
C1876 C 0.02124 0.87672 0.12798 0.0
C1877 C 0.02711 0.87758 0.10897 0.0
C1878 C 0.03581 0.86239 0.10074 0.0
C1879 C 0.03777 0.84612 0.11092 0.0
C1880 C 0.02368 0.89385 0.09725 0.0
C1881 C 0.0391 0.90539 0.08964 0.0
C1882 C 0.00534 0.89768 0.09311 0.0
C1883 C 0.98837 0.88551 0.10006 0.0
C1884 C 0.9843 0.8648 0.09526 0.0
C1885 C 0.96834 0.85342 0.10199 0.0
C1886 C 0.95627 0.8626 0.11339 0.0
C1887 C 0.96009 0.88319 0.11803 0.0
C1888 C 0.97605 0.89464 0.11136 0.0
C1889 C 0.02176 0.95669 0.0316 0.0
C1890 C 0.01097 0.97093 0.03769 0.0
C1891 C 0.02329 0.94089 0.04265 0.0
C1892 C 0.01488 0.93964 0.06052 0.0
C1893 C 0.00346 0.95349 0.06617 0.0
C1894 C 1.00136 0.96887 0.05474 0.0
C1895 C 0.01836 0.92431 0.07357 0.0
C1896 C 0.00295 0.91292 0.08145 0.0
C1897 C 0.03674 0.92066 0.07807 0.0
C1898 C 0.05379 0.93262 0.07108 0.0
C1899 C 0.05801 0.95336 0.07558 0.0
C1900 C 0.07382 0.96453 0.06835 0.0
C1901 C 0.08552 0.9551 0.05665 0.0
C1902 C 0.08147 0.93448 0.05226 0.0
C1903 C 0.06577 0.92324 0.05952 0.0
H1904 H 0.0977 0.96373 0.05098 0.0
H1905 H 0.94392 0.85376 0.11859 0.0
H1906 H 0.93347 0.28291 0.88256 0.0
H1907 H 0.90482 0.2788 0.86159 0.0
H1908 H 0.92968 0.24482 0.81784 0.0
H1909 H 0.95883 0.2493 0.83871 0.0
H1910 H 0.90991 0.27035 0.80185 0.0
H1911 H 0.89606 0.21955 0.84543 0.0
H1912 H 0.89554 0.20673 0.87761 0.0
H1913 H 0.86155 0.24897 0.89746 0.0
H1914 H 0.86185 0.262 0.86537 0.0
H1915 H 0.81875 0.24795 0.75133 0.0
H1916 H 0.84818 0.24264 0.76762 0.0
H1917 H 0.83447 0.27376 0.82038 0.0
H1918 H 0.80508 0.27852 0.80446 0.0
H1919 H 0.84937 0.24372 0.8292 0.0
H1920 H 0.86507 0.29611 0.78642 0.0
H1921 H 0.86658 0.3099 0.75471 0.0
H1922 H 0.89813 0.26587 0.73361 0.0
H1923 H 0.89662 0.25163 0.76511 0.0
C1924 C 0.93293 0.27455 0.86849 0.0
C1925 C 0.94841 0.26623 0.86243 0.0
C1926 C 0.91647 0.27214 0.85652 0.0
C1927 C 0.91491 0.26107 0.83833 0.0
C1928 C 0.93052 0.25327 0.8319 0.0
C1929 C 0.94715 0.25584 0.84385 0.0
C1930 C 0.89684 0.25771 0.82629 0.0
C1931 C 0.89669 0.26415 0.80764 0.0
C1932 C 0.87958 0.2498 0.83389 0.0
C1933 C 0.87898 0.24172 0.85303 0.0
C1934 C 0.88848 0.22608 0.85668 0.0
C1935 C 0.88821 0.21878 0.87488 0.0
C1936 C 0.87852 0.22703 0.88957 0.0
C1937 C 0.86906 0.24259 0.88607 0.0
C1938 C 0.86919 0.24988 0.86785 0.0
C1939 C 0.82196 0.25338 0.76648 0.0
C1940 C 0.80969 0.26373 0.77659 0.0
C1941 C 0.83882 0.25047 0.77574 0.0
C1942 C 0.84375 0.25811 0.79517 0.0
C1943 C 0.83107 0.26774 0.80541 0.0
C1944 C 0.81425 0.27049 0.79625 0.0
C1945 C 0.8623 0.25694 0.80489 0.0
C1946 C 0.86257 0.24959 0.82317 0.0
C1947 C 0.87965 0.26408 0.79692 0.0
C1948 C 0.88053 0.27266 0.77802 0.0
C1949 C 0.87221 0.28928 0.77497 0.0
C1950 C 0.87308 0.29719 0.75705 0.0
C1951 C 0.88238 0.28874 0.74215 0.0
C1952 C 0.89089 0.27237 0.74515 0.0
C1953 C 0.89003 0.26438 0.76303 0.0
H1954 H 0.88304 0.2949 0.7283 0.0
H1955 H 0.87834 0.22137 0.90366 0.0
H1956 H 0.50589 0.2329 0.61798 0.0
H1957 H 0.5032 0.19819 0.60447 0.0
H1958 H 0.56374 0.20651 0.60233 0.0
H1959 H 0.56621 0.24136 0.61457 0.0
H1960 H 0.54975 0.18945 0.57027 0.0
H1961 H 0.53648 0.17714 0.63581 0.0
H1962 H 0.52012 0.17945 0.66613 0.0
H1963 H 0.46768 0.1521 0.63548 0.0
H1964 H 0.48369 0.14984 0.60492 0.0
H1965 H 0.55448 0.08661 0.54842 0.0
H1966 H 0.55739 0.11997 0.56538 0.0
H1967 H 0.49744 0.11702 0.55641 0.0
H1968 H 0.49434 0.08387 0.53947 0.0
H1969 H 0.51123 0.13054 0.59448 0.0
H1970 H 0.52549 0.14369 0.52894 0.0
H1971 H 0.54266 0.14084 0.4992 0.0
H1972 H 0.59479 0.16621 0.53146 0.0
H1973 H 0.57794 0.16896 0.56146 0.0
C1974 C 0.51857 0.22712 0.61489 0.0
C1975 C 0.53623 0.23968 0.61723 0.0
C1976 C 0.51708 0.20728 0.60724 0.0
C1977 C 0.5333 0.19958 0.60245 0.0
C1978 C 0.551 0.21204 0.60572 0.0
C1979 C 0.55243 0.23192 0.61281 0.0
C1980 C 0.53192 0.17908 0.59279 0.0
C1981 C 0.54158 0.17658 0.57585 0.0
C1982 C 0.52091 0.16222 0.59966 0.0
C1983 C 0.51127 0.16349 0.61804 0.0
C1984 C 0.52144 0.17174 0.63551 0.0
C1985 C 0.51223 0.17302 0.65275 0.0
C1986 C 0.49287 0.16597 0.65273 0.0
C1987 C 0.48268 0.15757 0.63547 0.0
C1988 C 0.49182 0.15627 0.61819 0.0
C1989 C 0.54193 0.09309 0.54997 0.0
C1990 C 0.5242 0.08255 0.54253 0.0
C1991 C 0.54362 0.11214 0.55967 0.0
C1992 C 0.52762 0.12092 0.56213 0.0
C1993 C 0.50994 0.11046 0.55473 0.0
C1994 C 0.50825 0.09153 0.54493 0.0
C1995 C 0.52922 0.1411 0.57229 0.0
C1996 C 0.51952 0.1435 0.58916 0.0
C1997 C 0.54037 0.15785 0.56553 0.0
C1998 C 0.55048 0.15634 0.54747 0.0
C1999 C 0.54063 0.14851 0.52972 0.0
C2000 C 0.5503 0.14694 0.51281 0.0
C2001 C 0.56981 0.15329 0.51345 0.0
C2002 C 0.57968 0.16128 0.53099 0.0
C2003 C 0.57008 0.16286 0.54795 0.0
H2004 H 0.57727 0.15206 0.50034 0.0
H2005 H 0.48576 0.16698 0.66608 0.0
H2006 H 0.57034 0.78337 0.36893 0.0
H2007 H 0.59885 0.78276 0.35137 0.0
H2008 H 0.56722 0.74038 0.30702 0.0
H2009 H 0.53839 0.74122 0.32435 0.0
H2010 H 0.6055 0.73264 0.32262 0.0
H2011 H 0.5751 0.78171 0.29406 0.0
H2012 H 0.55967 0.81109 0.2954 0.0
H2013 H 0.60929 0.84675 0.32517 0.0
H2014 H 0.62491 0.81748 0.32427 0.0
H2015 H 0.68117 0.74226 0.25975 0.0
H2016 H 0.64955 0.73934 0.27191 0.0
H2017 H 0.6672 0.79466 0.30802 0.0
H2018 H 0.69841 0.79801 0.29524 0.0
H2019 H 0.63379 0.79393 0.294 0.0
H2020 H 0.66394 0.74695 0.32533 0.0
H2021 H 0.68067 0.71862 0.32642 0.0
H2022 H 0.6336 0.68011 0.29499 0.0
H2023 H 0.61669 0.70829 0.29349 0.0
C2024 C 0.56943 0.77383 0.35549 0.0
C2025 C 0.5521 0.7624 0.34798 0.0
C2026 C 0.58574 0.7735 0.34549 0.0
C2027 C 0.58511 0.76154 0.32792 0.0
C2028 C 0.56797 0.74967 0.3206 0.0
C2029 C 0.55153 0.75025 0.33046 0.0
C2030 C 0.6023 0.76224 0.31693 0.0
C2031 C 0.61157 0.74587 0.31603 0.0
C2032 C 0.6104 0.77971 0.30885 0.0
C2033 C 0.6011 0.79736 0.30924 0.0
C2034 C 0.58266 0.79577 0.30104 0.0
C2035 C 0.57389 0.81241 0.30169 0.0
C2036 C 0.58348 0.83077 0.3104 0.0
C2037 C 0.60187 0.83252 0.31844 0.0
C2038 C 0.61069 0.81592 0.31784 0.0
C2039 C 0.67817 0.75388 0.27012 0.0
C2040 C 0.69219 0.77036 0.27657 0.0
C2041 C 0.66016 0.75213 0.27719 0.0
C2042 C 0.65602 0.7666 0.29119 0.0
C2043 C 0.66997 0.78328 0.29725 0.0
C2044 C 0.68783 0.78518 0.28995 0.0
C2045 C 0.63733 0.7644 0.29981 0.0
C2046 C 0.62773 0.78054 0.30034 0.0
C2047 C 0.62916 0.74684 0.30789 0.0
C2048 C 0.63913 0.72978 0.30911 0.0
C2049 C 0.6572 0.73246 0.31856 0.0
C2050 C 0.66671 0.71643 0.31926 0.0
C2051 C 0.65823 0.69759 0.31072 0.0
C2052 C 0.64017 0.69472 0.30156 0.0
C2053 C 0.63061 0.71072 0.3008 0.0
H2054 H 0.66564 0.68521 0.31124 0.0
H2055 H 0.57667 0.84363 0.31089 0.0
H2056 H 0.03332 0.24042 0.4555 0.0
H2057 H 0.03434 0.20819 0.46707 0.0
H2058 H 0.02714 0.1808 0.40816 0.0
H2059 H 0.02602 0.21335 0.3963 0.0
H2060 H 0.00288 0.1609 0.43226 0.0
H2061 H 0.06876 0.1847 0.43267 0.0
H2062 H 0.0987 0.20835 0.43954 0.0
H2063 H 0.09208 0.20784 0.50073 0.0
H2064 H 0.06194 0.1844 0.49424 0.0
H2065 H 0.01611 0.06761 0.45981 0.0
H2066 H 0.01921 0.09901 0.44544 0.0
H2067 H 0.03091 0.13095 0.50237 0.0
H2068 H 0.02863 0.09922 0.51688 0.0
H2069 H 0.05363 0.14799 0.47754 0.0
H2070 H 0.98674 0.12469 0.47638 0.0
H2071 H 0.95705 0.10073 0.46888 0.0
H2072 H 0.96591 0.09987 0.40803 0.0
H2073 H 0.99582 0.1236 0.41517 0.0
C2074 C 0.03206 0.22762 0.4449 0.0
C2075 C 0.02947 0.22948 0.42493 0.0
C2076 C 0.03279 0.20918 0.45158 0.0
C2077 C 0.03096 0.1921 0.4385 0.0
C2078 C 0.02864 0.19384 0.4185 0.0
C2079 C 0.02807 0.21243 0.41175 0.0
C2080 C 0.03042 0.17241 0.44603 0.0
C2081 C 0.01414 0.15788 0.44184 0.0
C2082 C 0.0449 0.16872 0.45895 0.0
C2083 C 0.06298 0.18293 0.46295 0.0
C2084 C 0.07359 0.18977 0.44759 0.0
C2085 C 0.09062 0.20311 0.45142 0.0
C2086 C 0.09727 0.20963 0.47055 0.0
C2087 C 0.0869 0.2028 0.48591 0.0
C2088 C 0.06985 0.18947 0.48217 0.0
C2089 C 0.01924 0.08131 0.46933 0.0
C2090 C 0.02184 0.08097 0.48952 0.0
C2091 C 0.02093 0.09927 0.46107 0.0
C2092 C 0.02479 0.11738 0.47282 0.0
C2093 C 0.02774 0.11715 0.49301 0.0
C2094 C 0.02643 0.09906 0.5013 0.0
C2095 C 0.02603 0.13646 0.46388 0.0
C2096 C 0.04241 0.15091 0.46786 0.0
C2097 C 0.01167 0.14002 0.45066 0.0
C2098 C 0.99363 0.12579 0.44634 0.0
C2099 C 0.98244 0.11928 0.46141 0.0
C2100 C 0.96556 0.10575 0.45722 0.0
C2101 C 0.95963 0.09874 0.43799 0.0
C2102 C 0.97054 0.10529 0.42291 0.0
C2103 C 0.98746 0.11879 0.42703 0.0
H2104 H 0.94656 0.08827 0.43478 0.0
H2105 H 0.11046 0.21995 0.47348 0.0
H2106 H 0.57429 0.28334 0.12061 0.0
H2107 H 0.60289 0.2783 0.13811 0.0
H2108 H 0.57255 0.26991 0.18973 0.0
H2109 H 0.5438 0.27514 0.17238 0.0
H2110 H 0.60797 0.29188 0.1981 0.0
H2111 H 0.58039 0.23019 0.16153 0.0
H2112 H 0.56694 0.20855 0.13213 0.0
H2113 H 0.6191 0.22322 0.1049 0.0
H2114 H 0.63277 0.24519 0.13404 0.0
H2115 H 0.67554 0.2478 0.24732 0.0
H2116 H 0.64568 0.25082 0.23058 0.0
H2117 H 0.67419 0.26138 0.17815 0.0
H2118 H 0.70407 0.25845 0.19487 0.0
H2119 H 0.63908 0.23749 0.17086 0.0
H2120 H 0.66642 0.29971 0.20675 0.0
H2121 H 0.68022 0.32132 0.23601 0.0
H2122 H 0.62881 0.30591 0.26434 0.0
H2123 H 0.6148 0.28387 0.23534 0.0
C2124 C 0.57367 0.28063 0.13574 0.0
C2125 C 0.55661 0.27947 0.145 0.0
C2126 C 0.59006 0.27766 0.14571 0.0
C2127 C 0.58979 0.27334 0.16513 0.0
C2128 C 0.57307 0.27311 0.17472 0.0
C2129 C 0.55662 0.2761 0.16475 0.0
C2130 C 0.60678 0.26835 0.17513 0.0
C2131 C 0.6146 0.27981 0.1923 0.0
C2132 C 0.61567 0.25282 0.16738 0.0
C2133 C 0.60755 0.23947 0.1499 0.0
C2134 C 0.58895 0.22891 0.14922 0.0
C2135 C 0.58129 0.21657 0.13261 0.0
C2136 C 0.59215 0.21454 0.11664 0.0
C2137 C 0.6107 0.22482 0.11727 0.0
C2138 C 0.61842 0.2372 0.13384 0.0
C2139 C 0.67535 0.25037 0.23212 0.0
C2140 C 0.6921 0.25295 0.22238 0.0
C2141 C 0.65832 0.25221 0.22261 0.0
C2142 C 0.65777 0.25665 0.20321 0.0
C2143 C 0.6743 0.25804 0.19314 0.0
C2144 C 0.69135 0.25633 0.20269 0.0
C2145 C 0.64026 0.26104 0.19377 0.0
C2146 C 0.63237 0.2495 0.1767 0.0
C2147 C 0.63134 0.27651 0.20159 0.0
C2148 C 0.63962 0.28997 0.21895 0.0
C2149 C 0.6581 0.30081 0.21927 0.0
C2150 C 0.66596 0.31315 0.2358 0.0
C2151 C 0.65542 0.31497 0.25204 0.0
C2152 C 0.63697 0.30447 0.25176 0.0
C2153 C 0.62906 0.29205 0.23528 0.0
H2154 H 0.66154 0.32454 0.26482 0.0
H2155 H 0.58619 0.20499 0.10379 0.0
H2156 H 0.53244 0.82259 0.935 0.0
H2157 H 0.52777 0.85557 0.94737 0.0
H2158 H 0.53455 0.87566 0.89047 0.0
H2159 H 0.53921 0.84236 0.87782 0.0
H2160 H 0.55318 0.90372 0.92027 0.0
H2161 H 0.49193 0.86806 0.90324 0.0
H2162 H 0.46535 0.83985 0.9005 0.0
H2163 H 0.46427 0.84321 0.96257 0.0
H2164 H 0.49091 0.87149 0.96568 0.0
H2165 H 0.48953 0.97214 0.97212 0.0
H2166 H 0.49438 0.94599 0.94751 0.0
H2167 H 0.54502 0.93926 0.97979 0.0
H2168 H 0.54011 0.96532 0.00461 0.0
H2169 H 0.49476 0.90745 0.95432 0.0
H2170 H 0.57637 0.92694 0.94438 0.0
H2171 H 0.60031 0.95681 0.94167 0.0
H2172 H 0.55691 0.98898 0.92583 0.0
H2173 H 0.53276 0.95922 0.92789 0.0
C2174 C 0.53302 0.83399 0.92507 0.0
C2175 C 0.53605 0.82982 0.90539 0.0
C2176 C 0.53032 0.85285 0.93217 0.0
C2177 C 0.53061 0.86799 0.91979 0.0
C2178 C 0.53424 0.86414 0.90024 0.0
C2179 C 0.53685 0.84513 0.89305 0.0
C2180 C 0.52651 0.88752 0.92751 0.0
C2181 C 0.54041 0.90464 0.92767 0.0
C2182 C 0.50947 0.88885 0.93636 0.0
C2183 C 0.49349 0.87181 0.93469 0.0
C2184 C 0.48611 0.8627 0.91631 0.0
C2185 C 0.47101 0.84672 0.91469 0.0
C2186 C 0.46317 0.83967 0.93136 0.0
C2187 C 0.47037 0.84867 0.94968 0.0
C2188 C 0.48543 0.86473 0.95138 0.0
C2189 C 0.50182 0.96524 0.97385 0.0
C2190 C 0.51441 0.97062 0.9903 0.0
C2191 C 0.50456 0.95032 0.95979 0.0
C2192 C 0.5201 0.94078 0.96178 0.0
C2193 C 0.53304 0.9466 0.97789 0.0
C2194 C 0.53016 0.96134 0.99211 0.0
C2195 C 0.52189 0.92347 0.94809 0.0
C2196 C 0.5075 0.9067 0.9468 0.0
C2197 C 0.53817 0.92277 0.93763 0.0
C2198 C 0.5527 0.94083 0.93654 0.0
C2199 C 0.57192 0.94035 0.94024 0.0
C2200 C 0.58554 0.95728 0.93878 0.0
C2201 C 0.58014 0.97479 0.9336 0.0
C2202 C 0.56109 0.97542 0.92985 0.0
C2203 C 0.54742 0.95852 0.93121 0.0
H2204 H 0.59071 0.98786 0.93247 0.0
H2205 H 0.45148 0.82728 0.93007 0.0
H2206 H 0.96391 0.76493 0.69067 0.0
H2207 H 0.936 0.76427 0.70978 0.0
H2208 H 0.9069 0.7861 0.66279 0.0
H2209 H 0.93443 0.7866 0.64366 0.0
H2210 H 0.90473 0.80708 0.69869 0.0
H2211 H 0.89634 0.73888 0.67031 0.0
H2212 H 0.90502 0.70586 0.66376 0.0
H2213 H 0.90776 0.69927 0.7248 0.0
H2214 H 0.89946 0.73244 0.73174 0.0
H2215 H 0.80967 0.79367 0.7213 0.0
H2216 H 0.8401 0.7945 0.70728 0.0
H2217 H 0.857 0.75925 0.75129 0.0
H2218 H 0.8257 0.75681 0.76423 0.0
H2219 H 0.86772 0.74574 0.72011 0.0
H2220 H 0.87498 0.81269 0.74926 0.0
H2221 H 0.86592 0.84543 0.75659 0.0
H2222 H 0.866 0.85486 0.69617 0.0
H2223 H 0.87488 0.82208 0.68845 0.0
C2224 C 0.95151 0.76946 0.6844 0.0
C2225 C 0.95139 0.7758 0.66564 0.0
C2226 C 0.93558 0.76906 0.69531 0.0
C2227 C 0.91937 0.77515 0.6877 0.0
C2228 C 0.91926 0.78139 0.66897 0.0
C2229 C 0.93501 0.78159 0.65802 0.0
C2230 C 0.90253 0.77545 0.69918 0.0
C2231 C 0.89656 0.79367 0.70332 0.0
C2232 C 0.89223 0.75806 0.70574 0.0
C2233 C 0.89754 0.73827 0.70156 0.0
C2234 C 0.89904 0.73051 0.68235 0.0
C2235 C 0.90384 0.71174 0.67857 0.0
C2236 C 0.90702 0.70051 0.69386 0.0
C2237 C 0.90537 0.70802 0.71297 0.0
C2238 C 0.90063 0.72681 0.71684 0.0
C2239 C 0.82 0.78636 0.72816 0.0
C2240 C 0.81548 0.77541 0.744 0.0
C2241 C 0.83749 0.78693 0.7202 0.0
C2242 C 0.85118 0.77733 0.72844 0.0
C2243 C 0.84675 0.76675 0.74461 0.0
C2244 C 0.82895 0.76552 0.75212 0.0
C2245 C 0.86966 0.77743 0.71956 0.0
C2246 C 0.87598 0.75928 0.71585 0.0
C2247 C 0.88045 0.79496 0.71362 0.0
C2248 C 0.87551 0.81488 0.71827 0.0
C2249 C 0.87302 0.82172 0.73753 0.0
C2250 C 0.86792 0.84029 0.74176 0.0
C2251 C 0.86537 0.85221 0.72686 0.0
C2252 C 0.86802 0.84562 0.70771 0.0
C2253 C 0.87312 0.82707 0.7034 0.0
H2254 H 0.86138 0.86655 0.73015 0.0
H2255 H 0.9107 0.68597 0.69089 0.0
H2256 H 0.13988 0.99659 0.85121 0.0
H2257 H 0.12274 0.99677 0.88104 0.0
H2258 H 0.07987 0.02245 0.85239 0.0
H2259 H 0.09664 0.02193 0.82259 0.0
H2260 H 0.09069 0.04046 0.8903 0.0
H2261 H 0.07073 0.97562 0.85637 0.0
H2262 H 0.07496 0.94347 0.84003 0.0
H2263 H 0.10124 0.92923 0.89255 0.0
H2264 H 0.09741 0.96148 0.90913 0.0
H2265 H 0.00892 0.01325 0.94377 0.0
H2266 H 0.03039 0.013 0.91729 0.0
H2267 H 0.07395 0.00128 0.957 0.0
H2268 H 0.05268 0.00226 0.98369 0.0
H2269 H 0.06502 0.9764 0.91562 0.0
H2270 H 0.08291 0.04158 0.94998 0.0
H2271 H 0.07733 0.07357 0.96546 0.0
H2272 H 0.05388 0.08712 0.91123 0.0
H2273 H 0.05889 0.05493 0.89551 0.0
C2274 C 0.12689 0.00244 0.85136 0.0
C2275 C 0.11959 0.0092 0.83453 0.0
C2276 C 0.11708 0.00247 0.86837 0.0
C2277 C 0.09996 0.00955 0.86893 0.0
C2278 C 0.09304 0.01694 0.85233 0.0
C2279 C 0.10263 0.01658 0.83527 0.0
C2280 C 0.08884 0.00868 0.88649 0.0
C2281 C 0.08504 0.02644 0.89578 0.0
C2282 C 0.08163 0.99042 0.89383 0.0
C2283 C 0.08403 0.97108 0.88391 0.0
C2284 C 0.0776 0.96573 0.86437 0.0
C2285 C 0.07989 0.94747 0.85508 0.0
C2286 C 0.08843 0.93435 0.86522 0.0
C2287 C 0.09467 0.93944 0.8847 0.0
C2288 C 0.09245 0.95771 0.89405 0.0
C2289 C 0.023 0.01036 0.94675 0.0
C2290 C 0.02919 0.00769 0.96566 0.0
C2291 C 0.03525 0.01032 0.93168 0.0
C2292 C 0.05375 0.00717 0.93522 0.0
C2293 C 0.05973 0.00374 0.95399 0.0
C2294 C 0.04762 0.00432 0.96918 0.0
C2295 C 0.06692 0.00816 0.91936 0.0
C2296 C 0.07095 0.99042 0.91031 0.0
C2297 C 0.07427 0.02643 0.91218 0.0
C2298 C 0.07102 0.04569 0.92163 0.0
C2299 C 0.07628 0.05122 0.94141 0.0
C2300 C 0.07328 0.06942 0.95022 0.0
C2301 C 0.06521 0.08234 0.93934 0.0
C2302 C 0.06009 0.07706 0.91964 0.0
C2303 C 0.06299 0.05883 0.91078 0.0
H2304 H 0.06304 0.09649 0.94611 0.0
H2305 H 0.09017 0.9202 0.85801 0.0
H2306 H 0.73209 0.38711 0.56132 0.0
H2307 H 0.7331 0.37714 0.59444 0.0
H2308 H 0.78718 0.36014 0.58584 0.0
H2309 H 0.78558 0.36897 0.55254 0.0
H2310 H 0.76548 0.3314 0.59835 0.0
H2311 H 0.78 0.40191 0.61769 0.0
H2312 H 0.77489 0.4366 0.61903 0.0
H2313 H 0.72195 0.41988 0.64426 0.0
H2314 H 0.72663 0.38504 0.64285 0.0
H2315 H 0.79274 0.31465 0.69341 0.0
H2316 H 0.7908 0.33139 0.66377 0.0
H2317 H 0.73175 0.33145 0.67065 0.0
H2318 H 0.7336 0.3146 0.7003 0.0
H2319 H 0.75373 0.36862 0.65983 0.0
H2320 H 0.73996 0.29822 0.64058 0.0
H2321 H 0.74585 0.26387 0.63996 0.0
H2322 H 0.79868 0.2813 0.61471 0.0
H2323 H 0.79324 0.31586 0.6155 0.0
C2324 C 0.74432 0.38162 0.56675 0.0
C2325 C 0.75871 0.37864 0.55453 0.0
C2326 C 0.74494 0.37599 0.58565 0.0
C2327 C 0.76024 0.36789 0.59266 0.0
C2328 C 0.77516 0.36617 0.58072 0.0
C2329 C 0.77429 0.37127 0.56175 0.0
C2330 C 0.76004 0.35934 0.61158 0.0
C2331 C 0.7632 0.33974 0.6118 0.0
C2332 C 0.75638 0.36988 0.62906 0.0
C2333 C 0.75359 0.39083 0.62998 0.0
C2334 C 0.7672 0.40561 0.62339 0.0
C2335 C 0.7644 0.4253 0.62419 0.0
C2336 C 0.74808 0.43043 0.63168 0.0
C2337 C 0.73457 0.41588 0.63844 0.0
C2338 C 0.7373 0.39616 0.63766 0.0
C2339 C 0.77939 0.31831 0.68861 0.0
C2340 C 0.76325 0.31315 0.69886 0.0
C2341 C 0.77831 0.32787 0.67177 0.0
C2342 C 0.76112 0.33254 0.6651 0.0
C2343 C 0.74512 0.32797 0.67566 0.0
C2344 C 0.74615 0.3182 0.69241 0.0
C2345 C 0.75973 0.34111 0.64644 0.0
C2346 C 0.75608 0.3605 0.64629 0.0
C2347 C 0.76307 0.33049 0.62898 0.0
C2348 C 0.76626 0.30966 0.62826 0.0
C2349 C 0.7529 0.29476 0.63504 0.0
C2350 C 0.75615 0.27525 0.63463 0.0
C2351 C 0.77265 0.27041 0.62733 0.0
C2352 C 0.78592 0.28508 0.62038 0.0
C2353 C 0.78275 0.30463 0.62079 0.0
H2354 H 0.77515 0.25529 0.62703 0.0
H2355 H 0.74593 0.44568 0.63228 0.0
H2356 H 0.39749 0.04264 0.34899 0.0
H2357 H 0.41464 0.04339 0.3805 0.0
H2358 H 0.45963 0.08708 0.36275 0.0
H2359 H 0.44304 0.0853 0.33096 0.0
H2360 H 0.47386 0.05946 0.37525 0.0
H2361 H 0.42778 0.09593 0.39932 0.0
H2362 H 0.3959 0.10256 0.40479 0.0
H2363 H 0.38435 0.0511 0.4363 0.0
H2364 H 0.41601 0.04388 0.43068 0.0
H2365 H 0.52665 0.06816 0.46616 0.0
H2366 H 0.50697 0.07787 0.44003 0.0
H2367 H 0.46444 0.02631 0.44528 0.0
H2368 H 0.48422 0.01624 0.47074 0.0
H2369 H 0.44961 0.06186 0.44101 0.0
H2370 H 0.49263 0.02272 0.41164 0.0
H2371 H 0.52409 0.01496 0.40577 0.0
H2372 H 0.5407 0.07194 0.38446 0.0
H2373 H 0.50939 0.08012 0.39046 0.0
C2374 C 0.41084 0.0527 0.35209 0.0
C2375 C 0.41904 0.0639 0.33771 0.0
C2376 C 0.42061 0.05321 0.3701 0.0
C2377 C 0.43843 0.0654 0.37411 0.0
C2378 C 0.44599 0.07748 0.36001 0.0
C2379 C 0.4365 0.07653 0.3419 0.0
C2380 C 0.45019 0.06401 0.39194 0.0
C2381 C 0.4686 0.06049 0.38964 0.0
C2382 C 0.44326 0.06476 0.41075 0.0
C2383 C 0.42425 0.06922 0.41435 0.0
C2384 C 0.41838 0.08588 0.40722 0.0
C2385 C 0.40034 0.08975 0.41035 0.0
C2386 C 0.38806 0.07717 0.42075 0.0
C2387 C 0.39384 0.06075 0.42813 0.0
C2388 C 0.41185 0.05679 0.425 0.0
C2389 C 0.51308 0.05899 0.46172 0.0
C2390 C 0.5068 0.04162 0.47058 0.0
C2391 C 0.50183 0.06459 0.44695 0.0
C2392 C 0.4842 0.05288 0.44091 0.0
C2393 C 0.47785 0.0357 0.44996 0.0
C2394 C 0.48916 0.02999 0.46451 0.0
C2395 C 0.473 0.05743 0.42406 0.0
C2396 C 0.45478 0.06134 0.42657 0.0
C2397 C 0.48 0.05706 0.40539 0.0
C2398 C 0.49878 0.05213 0.40172 0.0
C2399 C 0.50306 0.03366 0.40586 0.0
C2400 C 0.52084 0.02917 0.40248 0.0
C2401 C 0.53441 0.04298 0.39481 0.0
C2402 C 0.53019 0.06128 0.39044 0.0
C2403 C 0.51243 0.06585 0.39382 0.0
H2404 H 0.54817 0.03948 0.39219 0.0
H2405 H 0.37411 0.08023 0.42321 0.0
H2406 H 0.76898 0.65549 0.05657 0.0
H2407 H 0.76964 0.66715 0.0912 0.0
H2408 H 0.76272 0.72524 0.07621 0.0
H2409 H 0.7623 0.71397 0.042 0.0
H2410 H 0.78831 0.72875 0.10522 0.0
H2411 H 0.72556 0.69205 0.08913 0.0
H2412 H 0.70186 0.66258 0.07699 0.0
H2413 H 0.72175 0.62961 0.12102 0.0
H2414 H 0.74575 0.65883 0.13326 0.0
H2415 H 0.73529 0.74565 0.19876 0.0
H2416 H 0.73495 0.73108 0.16508 0.0
H2417 H 0.79351 0.72655 0.17369 0.0
H2418 H 0.79412 0.74133 0.20691 0.0
H2419 H 0.74166 0.69599 0.14796 0.0
H2420 H 0.81609 0.73688 0.13367 0.0
H2421 H 0.83788 0.76808 0.14505 0.0
H2422 H 0.79102 0.79596 0.15996 0.0
H2423 H 0.76896 0.76503 0.14843 0.0
C2424 C 0.76779 0.67079 0.06069 0.0
C2425 C 0.76549 0.68373 0.04644 0.0
C2426 C 0.76804 0.6774 0.08047 0.0
C2427 C 0.76603 0.69704 0.08631 0.0
C2428 C 0.76428 0.71004 0.07211 0.0
C2429 C 0.76398 0.70349 0.05247 0.0
C2430 C 0.76549 0.70429 0.1071 0.0
C2431 C 0.77819 0.72148 0.11458 0.0
C2432 C 0.75204 0.69509 0.11926 0.0
C2433 C 0.73758 0.67755 0.11197 0.0
C2434 C 0.72498 0.67846 0.09612 0.0
C2435 C 0.71147 0.66182 0.08924 0.0
C2436 C 0.71034 0.64421 0.09819 0.0
C2437 C 0.72267 0.64324 0.11408 0.0
C2438 C 0.73622 0.65984 0.121 0.0
C2439 C 0.74808 0.74154 0.19347 0.0
C2440 C 0.76477 0.74493 0.20552 0.0
C2441 C 0.74784 0.73313 0.17425 0.0
C2442 C 0.76428 0.72796 0.16677 0.0
C2443 C 0.78075 0.73074 0.17899 0.0
C2444 C 0.78104 0.73923 0.19805 0.0
C2445 C 0.76458 0.72034 0.14604 0.0
C2446 C 0.75187 0.70313 0.13862 0.0
C2447 C 0.77777 0.72975 0.13375 0.0
C2448 C 0.7909 0.74857 0.14035 0.0
C2449 C 0.81044 0.7497 0.13929 0.0
C2450 C 0.82284 0.76733 0.14578 0.0
C2451 C 0.81584 0.78397 0.15328 0.0
C2452 C 0.79642 0.78304 0.15421 0.0
C2453 C 0.78397 0.76546 0.14772 0.0
H2454 H 0.82546 0.79759 0.15833 0.0
H2455 H 0.69987 0.63134 0.09285 0.0
H2456 H 0.14084 0.01351 0.72251 0.0
H2457 H 0.13328 0.01753 0.68829 0.0
H2458 H 0.07491 0.01543 0.70025 0.0
H2459 H 0.08218 0.01088 0.73389 0.0
H2460 H 0.07631 0.99659 0.66663 0.0
H2461 H 0.1072 0.06012 0.699 0.0
H2462 H 0.13337 0.08331 0.71733 0.0
H2463 H 0.16997 0.07376 0.67173 0.0
H2464 H 0.14406 0.0503 0.65324 0.0
H2465 H 0.03791 0.04972 0.59777 0.0
H2466 H 0.05261 0.04393 0.62881 0.0
H2467 H 0.10268 0.0346 0.60054 0.0
H2468 H 0.0879 0.04006 0.56933 0.0
H2469 H 0.10889 0.05714 0.63969 0.0
H2470 H 0.07531 0.99583 0.60601 0.0
H2471 H 0.04773 0.97438 0.58823 0.0
H2472 H 0.01477 0.98131 0.63749 0.0
H2473 H 0.04206 0.00315 0.65545 0.0
C2474 C 0.12635 0.01346 0.7177 0.0
C2475 C 0.11217 0.01206 0.73103 0.0
C2476 C 0.12206 0.01597 0.69818 0.0
C2477 C 0.10355 0.01719 0.6917 0.0
C2478 C 0.0893 0.01464 0.70479 0.0
C2479 C 0.09353 0.0121 0.72414 0.0
C2480 C 0.09879 0.022 0.67168 0.0
C2481 C 0.08346 0.00987 0.66082 0.0
C2482 C 0.10822 0.03915 0.66381 0.0
C2483 C 0.12377 0.05328 0.67486 0.0
C2484 C 0.12087 0.06286 0.69296 0.0
C2485 C 0.13564 0.07606 0.70336 0.0
C2486 C 0.15334 0.07995 0.69573 0.0
C2487 C 0.15627 0.07069 0.67764 0.0
C2488 C 0.14155 0.05744 0.6672 0.0
C2489 C 0.05223 0.04696 0.59824 0.0
C2490 C 0.06174 0.04529 0.58113 0.0
C2491 C 0.06058 0.04355 0.61597 0.0
C2492 C 0.07866 0.03863 0.61693 0.0
C2493 C 0.08872 0.03837 0.60011 0.0
C2494 C 0.08027 0.04151 0.58231 0.0
C2495 C 0.0862 0.032 0.63508 0.0
C2496 C 0.10199 0.04374 0.64547 0.0
C2497 C 0.07706 0.01463 0.64268 0.0
C2498 C 0.0607 0.00127 0.63201 0.0
C2499 C 0.06214 0.99292 0.613 0.0
C2500 C 0.04657 0.98067 0.60289 0.0
C2501 C 0.02951 0.97651 0.61172 0.0
C2502 C 0.028 0.98456 0.63068 0.0
C2503 C 0.04352 0.99687 0.64083 0.0
H2504 H 0.01747 0.96703 0.6039 0.0
H2505 H 0.16476 0.09019 0.7038 0.0
H2506 H 0.7261 0.34855 0.46387 0.0
H2507 H 0.72863 0.32881 0.43343 0.0
H2508 H 0.75149 0.38223 0.40772 0.0
H2509 H 0.74827 0.4022 0.43812 0.0
H2510 H 0.72918 0.35741 0.38187 0.0
H2511 H 0.78025 0.35268 0.42586 0.0
H2512 H 0.79578 0.34711 0.45681 0.0
H2513 H 0.76718 0.28632 0.45074 0.0
H2514 H 0.7512 0.29162 0.41989 0.0
H2515 H 0.77292 0.31097 0.30742 0.0
H2516 H 0.77173 0.32864 0.33928 0.0
H2517 H 0.73298 0.27868 0.35613 0.0
H2518 H 0.73396 0.26079 0.32398 0.0
H2519 H 0.76429 0.30165 0.38617 0.0
H2520 H 0.71207 0.30956 0.34137 0.0
H2521 H 0.70043 0.3166 0.30914 0.0
H2522 H 0.7365 0.37392 0.31607 0.0
H2523 H 0.74841 0.36712 0.34824 0.0
C2524 C 0.73141 0.3561 0.45163 0.0
C2525 C 0.73714 0.37683 0.4533 0.0
C2526 C 0.73296 0.34481 0.4343 0.0
C2527 C 0.74072 0.354 0.4185 0.0
C2528 C 0.74558 0.37484 0.41981 0.0
C2529 C 0.74372 0.38622 0.43712 0.0
C2530 C 0.7444 0.3417 0.40097 0.0
C2531 C 0.73699 0.34536 0.38285 0.0
C2532 C 0.75464 0.32594 0.4022 0.0
C2533 C 0.76439 0.3226 0.42064 0.0
C2534 C 0.77716 0.33815 0.43119 0.0
C2535 C 0.78606 0.33505 0.44871 0.0
C2536 C 0.78243 0.31638 0.45576 0.0
C2537 C 0.76995 0.30078 0.44527 0.0
C2538 C 0.76098 0.30382 0.42776 0.0
C2539 C 0.76445 0.30353 0.31802 0.0
C2540 C 0.75331 0.28463 0.31321 0.0
C2541 C 0.76383 0.31364 0.3362 0.0
C2542 C 0.75214 0.30498 0.34984 0.0
C2543 C 0.74209 0.28552 0.34567 0.0
C2544 C 0.74261 0.27538 0.32736 0.0
C2545 C 0.74878 0.31723 0.36739 0.0
C2546 C 0.75636 0.31364 0.38539 0.0
C2547 C 0.73909 0.3333 0.36603 0.0
C2548 C 0.73119 0.3378 0.34714 0.0
C2549 C 0.71751 0.32365 0.33599 0.0
C2550 C 0.71086 0.3276 0.31773 0.0
C2551 C 0.7177 0.34569 0.31053 0.0
C2552 C 0.73113 0.35993 0.32164 0.0
C2553 C 0.73781 0.35606 0.33991 0.0
H2554 H 0.71259 0.34863 0.29635 0.0
H2555 H 0.78933 0.314 0.46933 0.0
H2556 H 0.40664 0.0294 0.22587 0.0
H2557 H 0.41701 0.02477 0.19283 0.0
H2558 H 0.47371 0.05214 0.21322 0.0
H2559 H 0.4636 0.05648 0.24624 0.0
H2560 H 0.45923 0.06432 0.17627 0.0
H2561 H 0.46605 0.0059 0.20958 0.0
H2562 H 0.45371 0.9776 0.22778 0.0
H2563 H 0.41252 0.95442 0.18099 0.0
H2564 H 0.42445 0.98277 0.16264 0.0
H2565 H 0.51446 0.03712 0.10156 0.0
H2566 H 0.50197 0.04258 0.1334 0.0
H2567 H 0.45285 0.99785 0.11538 0.0
H2568 H 0.46601 0.99145 0.0841 0.0
H2569 H 0.46093 0.99493 0.15045 0.0
H2570 H 0.45464 0.0506 0.11529 0.0
H2571 H 0.46527 0.07896 0.0965 0.0
H2572 H 0.50203 0.10794 0.14494 0.0
H2573 H 0.49194 0.07959 0.16389 0.0
C2574 C 0.42125 0.03466 0.22324 0.0
C2575 C 0.43436 0.04314 0.23862 0.0
C2576 C 0.42713 0.03199 0.20441 0.0
C2577 C 0.4461 0.03807 0.20072 0.0
C2578 C 0.459 0.0474 0.21586 0.0
C2579 C 0.45323 0.04974 0.23469 0.0
C2580 C 0.4529 0.03348 0.1814 0.0
C2581 C 0.45973 0.0492 0.17056 0.0
C2582 C 0.453 0.0137 0.17391 0.0
C2583 C 0.446 0.99656 0.18485 0.0
C2584 C 0.45426 0.99486 0.20325 0.0
C2585 C 0.44736 0.9788 0.21358 0.0
C2586 C 0.4323 0.96426 0.20558 0.0
C2587 C 0.42416 0.96571 0.18719 0.0
C2588 C 0.43099 0.98176 0.17682 0.0
C2589 C 0.50118 0.02823 0.10462 0.0
C2590 C 0.49116 0.01389 0.09051 0.0
C2591 C 0.49392 0.03151 0.12269 0.0
C2592 C 0.47616 0.02108 0.12661 0.0
C2593 C 0.46651 0.00618 0.1127 0.0
C2594 C 0.47405 0.00249 0.09485 0.0
C2595 C 0.46752 0.02582 0.14507 0.0
C2596 C 0.46031 0.01011 0.15585 0.0
C2597 C 0.46674 0.04564 0.15229 0.0
C2598 C 0.47264 0.06286 0.14097 0.0
C2599 C 0.46508 0.06297 0.1219 0.0
C2600 C 0.47101 0.07905 0.11122 0.0
C2601 C 0.48434 0.09522 0.11951 0.0
C2602 C 0.49172 0.09539 0.13853 0.0
C2603 C 0.48591 0.07932 0.14924 0.0
H2604 H 0.48898 0.10763 0.11125 0.0
H2605 H 0.42698 0.95184 0.2136 0.0
H2606 H 0.77296 0.69796 0.95655 0.0
H2607 H 0.77223 0.71287 0.92606 0.0
H2608 H 0.76318 0.65462 0.89449 0.0
H2609 H 0.76471 0.63953 0.92531 0.0
H2610 H 0.7867 0.67874 0.8764 0.0
H2611 H 0.72684 0.68255 0.90018 0.0
H2612 H 0.70391 0.68972 0.92386 0.0
H2613 H 0.72798 0.75187 0.92813 0.0
H2614 H 0.75126 0.74505 0.90469 0.0
H2615 H 0.75411 0.72279 0.79104 0.0
H2616 H 0.75512 0.70267 0.81854 0.0
H2617 H 0.78381 0.75443 0.8547 0.0
H2618 H 0.78352 0.77443 0.82709 0.0
H2619 H 0.74797 0.7308 0.86829 0.0
H2620 H 0.80923 0.72481 0.84505 0.0
H2621 H 0.83153 0.71589 0.82137 0.0
H2622 H 0.80188 0.65552 0.8145 0.0
H2623 H 0.77924 0.66413 0.83798 0.0
C2624 C 0.77074 0.68824 0.94316 0.0
C2625 C 0.76874 0.66751 0.94339 0.0
C2626 C 0.77021 0.69682 0.92566 0.0
C2627 C 0.76719 0.68492 0.90786 0.0
C2628 C 0.76541 0.66417 0.90799 0.0
C2629 C 0.76622 0.65553 0.92561 0.0
C2630 C 0.76625 0.69439 0.8893 0.0
C2631 C 0.77794 0.68984 0.87452 0.0
C2632 C 0.75494 0.70904 0.88673 0.0
C2633 C 0.74089 0.71326 0.90077 0.0
C2634 C 0.72733 0.69773 0.90627 0.0
C2635 C 0.71426 0.70173 0.91964 0.0
C2636 C 0.71451 0.72123 0.92752 0.0
C2637 C 0.72781 0.73677 0.92202 0.0
C2638 C 0.74093 0.73285 0.90867 0.0
C2639 C 0.76096 0.72978 0.80473 0.0
C2640 C 0.76882 0.75017 0.80686 0.0
C2641 C 0.76149 0.71828 0.82044 0.0
C2642 C 0.76956 0.72707 0.83864 0.0
C2643 C 0.77755 0.74737 0.84075 0.0
C2644 C 0.7774 0.75876 0.82496 0.0
C2645 C 0.76869 0.71543 0.85578 0.0
C2646 C 0.75656 0.71955 0.87019 0.0
C2647 C 0.77928 0.70016 0.8578 0.0
C2648 C 0.79242 0.69517 0.84311 0.0
C2649 C 0.80729 0.7097 0.83828 0.0
C2650 C 0.82005 0.70468 0.82497 0.0
C2651 C 0.81814 0.68515 0.81648 0.0
C2652 C 0.80335 0.67063 0.82112 0.0
C2653 C 0.79056 0.67557 0.83444 0.0
H2654 H 0.82819 0.68122 0.80641 0.0
H2655 H 0.70438 0.7243 0.93787 0.0
H2656 H 0.83408 0.13025 0.0188 0.0
H2657 H 0.85848 0.10983 0.01718 0.0
H2658 H 0.81848 0.05897 0.03017 0.0
H2659 H 0.79383 0.07945 0.03198 0.0
H2660 H 0.85607 0.0622 0.04846 0.0
H2661 H 0.82553 0.06186 0.98526 0.0
H2662 H 0.81269 0.07745 0.95812 0.0
H2663 H 0.86768 0.11083 0.95115 0.0
H2664 H 0.8808 0.09569 0.97846 0.0
H2665 H 0.92454 0.00377 0.011 0.0
H2666 H 0.89352 0.01372 0.01449 0.0
H2667 H 0.91828 0.0742 0.00659 0.0
H2668 H 0.94899 0.06455 0.00361 0.0
H2669 H 0.88361 0.05894 0.98422 0.0
H2670 H 0.9128 0.06525 0.04947 0.0
H2671 H 0.92684 0.05315 0.07822 0.0
H2672 H 0.87604 0.01087 0.08199 0.0
H2673 H 0.86178 0.02258 0.05309 0.0
C2674 C 0.8305 0.11482 0.02165 0.0
C2675 C 0.81199 0.10639 0.02528 0.0
C2676 C 0.84446 0.10316 0.02069 0.0
C2677 C 0.84015 0.08284 0.0232 0.0
C2678 C 0.82201 0.07462 0.0281 0.0
C2679 C 0.80797 0.08633 0.02911 0.0
C2680 C 0.85434 0.07015 0.01913 0.0
C2681 C 0.8618 0.06102 0.03431 0.0
C2682 C 0.8619 0.06886 0.00069 0.0
C2683 C 0.85413 0.07769 0.98398 0.0
C2684 C 0.83487 0.0726 0.97801 0.0
C2685 C 0.82754 0.08135 0.96259 0.0
C2686 C 0.83936 0.09513 0.95293 0.0
C2687 C 0.85854 0.10015 0.95864 0.0
C2688 C 0.86593 0.09146 0.97407 0.0
C2689 C 0.92318 0.01909 0.00979 0.0
C2690 C 0.93902 0.03343 0.00703 0.0
C2691 C 0.90559 0.02476 0.01188 0.0
C2692 C 0.90373 0.04468 0.01082 0.0
C2693 C 0.91946 0.05876 0.00741 0.0
C2694 C 0.93697 0.05323 0.00573 0.0
C2695 C 0.88566 0.05144 0.01365 0.0
C2696 C 0.87748 0.05951 0.99821 0.0
C2697 C 0.87763 0.05193 0.03187 0.0
C2698 C 0.88633 0.04458 0.04896 0.0
C2699 C 0.90472 0.05318 0.05627 0.0
C2700 C 0.9127 0.04645 0.07263 0.0
C2701 C 0.90236 0.03122 0.08189 0.0
C2702 C 0.88404 0.02264 0.07478 0.0
C2703 C 0.876 0.02933 0.05841 0.0
H2704 H 0.90849 0.02616 0.09465 0.0
H2705 H 0.83365 0.10191 0.94101 0.0
H2706 H 0.32903 0.39579 0.00156 0.0
H2707 H 0.36019 0.4165 0.00316 0.0
H2708 H 0.34102 0.46103 0.04116 0.0
H2709 H 0.3094 0.44054 0.03903 0.0
H2710 H 0.36306 0.47891 0.01711 0.0
H2711 H 0.36897 0.42795 0.05808 0.0
H2712 H 0.36635 0.39387 0.0677 0.0
H2713 H 0.4027 0.37988 0.02324 0.0
H2714 H 0.40531 0.41379 0.01316 0.0
H2715 H 0.45943 0.52286 0.05264 0.0
H2716 H 0.42662 0.5051 0.05112 0.0
H2717 H 0.43608 0.47073 0.99862 0.0
H2718 H 0.46864 0.48862 -3e-05 0.0
H2719 H 0.41918 0.44887 0.03177 0.0
H2720 H 0.41187 0.50117 0.99101 0.0
H2721 H 0.41515 0.53615 0.98395 0.0
H2722 H 0.38201 0.54846 0.03187 0.0
H2723 H 0.37877 0.51358 0.0394 0.0
C2724 C 0.33138 0.40998 0.01029 0.0
C2725 C 0.31669 0.41638 0.02033 0.0
C2726 C 0.3493 0.42181 0.01127 0.0
C2727 C 0.35321 0.44019 0.02267 0.0
C2728 C 0.33846 0.44687 0.03235 0.0
C2729 C 0.32037 0.43512 0.03115 0.0
C2730 C 0.37268 0.45228 0.02437 0.0
C2731 C 0.37526 0.47235 0.0206 0.0
C2732 C 0.38878 0.44383 0.02879 0.0
C2733 C 0.38719 0.42337 0.03474 0.0
C2734 C 0.37628 0.41756 0.05024 0.0
C2735 C 0.37482 0.39828 0.0558 0.0
C2736 C 0.38432 0.3847 0.04605 0.0
C2737 C 0.39533 0.3904 0.03076 0.0
C2738 C 0.39681 0.40966 0.02512 0.0
C2739 C 0.45438 0.5117 0.04064 0.0
C2740 C 0.46643 0.50747 0.02613 0.0
C2741 C 0.43568 0.50159 0.03979 0.0
C2742 C 0.42889 0.4867 0.02468 0.0
C2743 C 0.44099 0.48229 0.0103 0.0
C2744 C 0.45954 0.49271 0.01093 0.0
C2745 C 0.4094 0.47521 0.02423 0.0
C2746 C 0.40688 0.45531 0.02833 0.0
C2747 C 0.3934 0.4839 0.02047 0.0
C2748 C 0.39527 0.50483 0.01591 0.0
C2749 C 0.40544 0.51138 0.00017 0.0
C2750 C 0.40726 0.53118 0.99605 0.0
C2751 C 0.39884 0.54454 0.00749 0.0
C2752 C 0.38855 0.53811 0.02304 0.0
C2753 C 0.38671 0.51832 0.02723 0.0
H2754 H 0.40026 0.55987 0.00428 0.0
H2755 H 0.38318 0.36979 0.05039 0.0
H2756 H 0.38325 0.60872 0.7518 0.0
H2757 H 0.36632 0.6366 0.75371 0.0
H2758 H 0.31409 0.5963 0.73682 0.0
H2759 H 0.33109 0.56833 0.7344 0.0
H2760 H 0.31506 0.62936 0.7195 0.0
H2761 H 0.32649 0.61489 0.78494 0.0
H2762 H 0.34559 0.60903 0.81357 0.0
H2763 H 0.37828 0.66781 0.81469 0.0
H2764 H 0.35953 0.67393 0.7859 0.0
H2765 H 0.2594 0.70274 0.7453 0.0
H2766 H 0.27284 0.67229 0.74383 0.0
H2767 H 0.32735 0.70681 0.76347 0.0
H2768 H 0.31382 0.73697 0.76589 0.0
H2769 H 0.32301 0.67474 0.78024 0.0
H2770 H 0.31333 0.68812 0.71332 0.0
H2771 H 0.29332 0.69488 0.6859 0.0
H2772 H 0.25707 0.63844 0.68802 0.0
H2773 H 0.27688 0.63143 0.71567 0.0
C2774 C 0.36817 0.60578 0.74834 0.0
C2775 C 0.35851 0.58627 0.74305 0.0
C2776 C 0.35847 0.62175 0.74956 0.0
C2777 C 0.33882 0.61857 0.74584 0.0
C2778 C 0.32922 0.59917 0.73989 0.0
C2779 C 0.33896 0.58318 0.73851 0.0
C2780 C 0.32835 0.63545 0.7484 0.0
C2781 C 0.31663 0.63912 0.73289 0.0
C2782 C 0.33048 0.64841 0.76576 0.0
C2783 C 0.3417 0.6448 0.78316 0.0
C2784 C 0.33783 0.62652 0.79121 0.0
C2785 C 0.34858 0.62316 0.80748 0.0
C2786 C 0.36316 0.63802 0.81592 0.0
C2787 C 0.36699 0.6563 0.80813 0.0
C2788 C 0.35629 0.65973 0.79185 0.0
C2789 C 0.27422 0.70379 0.74938 0.0
C2790 C 0.28551 0.7223 0.7557 0.0
C2791 C 0.28195 0.68637 0.74843 0.0
C2792 C 0.30127 0.68717 0.75319 0.0
C2793 C 0.31244 0.70566 0.75972 0.0
C2794 C 0.30466 0.72297 0.76107 0.0
C2795 C 0.31006 0.66896 0.7512 0.0
C2796 C 0.32142 0.66498 0.76686 0.0
C2797 C 0.30764 0.65575 0.73399 0.0
C2798 C 0.29643 0.65937 0.71667 0.0
C2799 C 0.30109 0.67716 0.70792 0.0
C2800 C 0.28974 0.68105 0.69237 0.0
C2801 C 0.27377 0.66719 0.68534 0.0
C2802 C 0.26937 0.64922 0.69358 0.0
C2803 C 0.28067 0.64526 0.70917 0.0
H2804 H 0.2648 0.67032 0.67351 0.0
H2805 H 0.37147 0.63539 0.82851 0.0
H2806 H 0.19549 0.63454 0.48982 0.0
H2807 H 0.16643 0.61354 0.49748 0.0
H2808 H 0.19858 0.57597 0.52632 0.0
H2809 H 0.22782 0.59675 0.51853 0.0
H2810 H 0.16875 0.55423 0.50511 0.0
H2811 H 0.17948 0.60876 0.55333 0.0
H2812 H 0.18704 0.64393 0.56665 0.0
H2813 H 0.13718 0.65541 0.53686 0.0
H2814 H 0.12947 0.62037 0.5231 0.0
H2815 H 0.06784 0.54589 0.54887 0.0
H2816 H 0.10213 0.55687 0.55257 0.0
H2817 H 0.10567 0.54254 0.49113 0.0
H2818 H 0.07193 0.5311 0.48744 0.0
H2819 H 0.1211 0.58704 0.53788 0.0
H2820 H 0.14645 0.53239 0.47939 0.0
H2821 H 0.13959 0.4966 0.46829 0.0
H2822 H 0.11878 0.4836 0.52362 0.0
H2823 H 0.12576 0.51928 0.53517 0.0
C2824 C 0.19645 0.62173 0.49763 0.0
C2825 C 0.21403 0.61746 0.50369 0.0
C2826 C 0.1798 0.60981 0.50211 0.0
C2827 C 0.18039 0.59347 0.51283 0.0
C2828 C 0.19785 0.58862 0.51817 0.0
C2829 C 0.21454 0.60053 0.51368 0.0
C2830 C 0.16267 0.58169 0.51854 0.0
C2831 C 0.15834 0.56131 0.51241 0.0
C2832 C 0.14946 0.59083 0.52877 0.0
C2833 C 0.15395 0.61193 0.5371 0.0
C2834 C 0.17019 0.61881 0.54951 0.0
C2835 C 0.1745 0.63872 0.55715 0.0
C2836 C 0.16261 0.6519 0.55258 0.0
C2837 C 0.14637 0.64518 0.54039 0.0
C2838 C 0.14201 0.62528 0.53268 0.0
C2839 C 0.07602 0.54465 0.53627 0.0
C2840 C 0.06713 0.53775 0.51786 0.0
C2841 C 0.09559 0.55096 0.53839 0.0
C2842 C 0.10652 0.55035 0.52216 0.0
C2843 C 0.09767 0.54274 0.50396 0.0
C2844 C 0.07825 0.53638 0.50185 0.0
C2845 C 0.1267 0.55975 0.52348 0.0
C2846 C 0.13157 0.57976 0.53097 0.0
C2847 C 0.14053 0.55013 0.51488 0.0
C2848 C 0.13659 0.52857 0.50813 0.0
C2849 C 0.14055 0.5219 0.48925 0.0
C2850 C 0.1366 0.50162 0.48286 0.0
C2851 C 0.12873 0.48784 0.49523 0.0
C2852 C 0.12483 0.4943 0.51403 0.0
C2853 C 0.12876 0.51456 0.5205 0.0
H2854 H 0.12566 0.47216 0.49025 0.0
H2855 H 0.16597 0.66731 0.55852 0.0
H2856 H 0.68826 0.99056 0.76253 0.0
H2857 H 0.70857 0.96598 0.7665 0.0
H2858 H 0.65977 0.91898 0.75868 0.0
H2859 H 0.63941 0.94358 0.75561 0.0
H2860 H 0.68065 0.9124 0.7872 0.0
H2861 H 0.69257 0.92981 0.72261 0.0
H2862 H 0.70186 0.95221 0.69741 0.0
H2863 H 0.75672 0.97079 0.72656 0.0
H2864 H 0.74767 0.94866 0.75207 0.0
H2865 H 0.71548 0.82847 0.75053 0.0
H2866 H 0.7026 0.85902 0.7528 0.0
H2867 H 0.75356 0.89028 0.78436 0.0
H2868 H 0.76657 0.85924 0.78253 0.0
H2869 H 0.73616 0.90794 0.7486 0.0
H2870 H 0.72304 0.88453 0.811 0.0
H2871 H 0.71197 0.859 0.83282 0.0
H2872 H 0.65684 0.84854 0.80374 0.0
H2873 H 0.66766 0.87379 0.78152 0.0
C2874 C 0.68191 0.97496 0.7615 0.0
C2875 C 0.66227 0.96894 0.75874 0.0
C2876 C 0.69353 0.96092 0.76373 0.0
C2877 C 0.68574 0.94058 0.76275 0.0
C2878 C 0.66613 0.93458 0.75962 0.0
C2879 C 0.6545 0.94863 0.75776 0.0
C2880 C 0.69782 0.92545 0.76536 0.0
C2881 C 0.69275 0.91145 0.77869 0.0
C2882 C 0.71392 0.92441 0.75464 0.0
C2883 C 0.71936 0.93778 0.73937 0.0
C2884 C 0.70656 0.93881 0.72373 0.0
C2885 C 0.71179 0.95143 0.70938 0.0
C2886 C 0.72985 0.96297 0.71042 0.0
C2887 C 0.74273 0.96187 0.7258 0.0
C2888 C 0.73756 0.94929 0.7402 0.0
C2889 C 0.72401 0.84182 0.75796 0.0
C2890 C 0.74201 0.84154 0.7664 0.0
C2891 C 0.7166 0.85923 0.75926 0.0
C2892 C 0.72711 0.87677 0.76882 0.0
C2893 C 0.74529 0.87677 0.77697 0.0
C2894 C 0.75265 0.85913 0.77595 0.0
C2895 C 0.71866 0.89486 0.77005 0.0
C2896 C 0.72434 0.90931 0.75741 0.0
C2897 C 0.70284 0.89605 0.78103 0.0
C2898 C 0.69622 0.88098 0.7945 0.0
C2899 C 0.7086 0.87667 0.80915 0.0
C2900 C 0.70236 0.86227 0.8216 0.0
C2901 C 0.68372 0.85213 0.81964 0.0
C2902 C 0.67127 0.85641 0.80523 0.0
C2903 C 0.67745 0.87079 0.79272 0.0
H2904 H 0.67892 0.84098 0.82929 0.0
H2905 H 0.73388 0.97272 0.69929 0.0
H2906 H 0.73489 0.95712 0.52912 0.0
H2907 H 0.70786 0.97413 0.52897 0.0
H2908 H 0.67071 0.91836 0.53356 0.0
H2909 H 0.69765 0.9012 0.53243 0.0
H2910 H 0.6545 0.93563 0.50987 0.0
H2911 H 0.68376 0.95893 0.5727 0.0
H2912 H 0.7093 0.9741 0.59713 0.0
H2913 H 0.7156 0.02884 0.57045 0.0
H2914 H 0.69024 0.01391 0.54571 0.0
H2915 H 0.57519 0.97762 0.53735 0.0
H2916 H 0.60356 0.96287 0.53984 0.0
H2917 H 0.63524 0.01302 0.51536 0.0
H2918 H 0.60664 0.02783 0.51259 0.0
H2919 H 0.6539 0.99944 0.54919 0.0
H2920 H 0.62226 0.97348 0.48656 0.0
H2921 H 0.59451 0.9571 0.46538 0.0
H2922 H 0.59061 0.90512 0.4963 0.0
H2923 H 0.61819 0.92133 0.51785 0.0
C2924 C 0.72097 0.94853 0.5303 0.0
C2925 C 0.71843 0.92782 0.53087 0.0
C2926 C 0.70545 0.95831 0.53032 0.0
C2927 C 0.68705 0.94771 0.53158 0.0
C2928 C 0.68463 0.92701 0.53252 0.0
C2929 C 0.70008 0.91718 0.53199 0.0
C2930 C 0.67029 0.95797 0.53114 0.0
C2931 C 0.65441 0.94943 0.51873 0.0
C2932 C 0.66995 0.97621 0.54241 0.0
C2933 C 0.68523 0.98523 0.55723 0.0
C2934 C 0.69069 0.97415 0.57196 0.0
C2935 C 0.70512 0.98271 0.58587 0.0
C2936 C 0.7141 0.0024 0.58531 0.0
C2937 C 0.70864 0.01358 0.57085 0.0
C2938 C 0.69423 0.00509 0.55689 0.0
C2939 C 0.58821 0.9856 0.53258 0.0
C2940 C 0.58866 0.00386 0.52467 0.0
C2941 C 0.60442 0.97711 0.534 0.0
C2942 C 0.62152 0.98675 0.52766 0.0
C2943 C 0.62219 0.00532 0.52033 0.0
C2944 C 0.60586 0.01374 0.51871 0.0
C2945 C 0.63841 0.97699 0.52806 0.0
C2946 C 0.65421 0.98564 0.5404 0.0
C2947 C 0.63851 0.9586 0.51716 0.0
C2948 C 0.6222 0.94868 0.50391 0.0
C2949 C 0.61542 0.95861 0.48891 0.0
C2950 C 0.59973 0.94935 0.47683 0.0
C2951 C 0.59077 0.9301 0.47952 0.0
C2952 C 0.59755 0.92004 0.49424 0.0
C2953 C 0.61322 0.92924 0.50638 0.0
H2954 H 0.57861 0.92297 0.47017 0.0
H2955 H 0.72527 0.009 0.5961 0.0
H2956 H 0.3906 0.46205 0.75525 0.0
H2957 H 0.37009 0.4297 0.75302 0.0
H2958 H 0.3245 0.45475 0.72874 0.0
H2959 H 0.34492 0.48752 0.73135 0.0
H2960 H 0.31205 0.43112 0.75524 0.0
H2961 H 0.34885 0.42464 0.70049 0.0
H2962 H 0.3777 0.42623 0.6826 0.0
H2963 H 0.39634 0.38356 0.71716 0.0
H2964 H 0.36774 0.38195 0.7355 0.0
H2965 H 0.25645 0.33378 0.72929 0.0
H2966 H 0.27526 0.36661 0.72569 0.0
H2967 H 0.32141 0.3521 0.76 0.0
H2968 H 0.30255 0.31964 0.76413 0.0
H2969 H 0.33194 0.3704 0.7252 0.0
H2970 H 0.29667 0.37972 0.78175 0.0
H2971 H 0.26764 0.37774 0.79939 0.0
H2972 H 0.24595 0.41482 0.76039 0.0
H2973 H 0.27476 0.41674 0.74231 0.0
C2974 C 0.37626 0.46076 0.74931 0.0
C2975 C 0.36949 0.47747 0.74338 0.0
C2976 C 0.36453 0.44214 0.74796 0.0
C2977 C 0.34581 0.43963 0.74039 0.0
C2978 C 0.33892 0.45627 0.73455 0.0
C2979 C 0.35064 0.475 0.73601 0.0
C2980 C 0.33338 0.41973 0.73921 0.0
C2981 C 0.31626 0.41792 0.74832 0.0
C2982 C 0.33895 0.40237 0.73048 0.0
C2983 C 0.3562 0.40331 0.71949 0.0
C2984 C 0.35917 0.41572 0.70439 0.0
C2985 C 0.37547 0.41661 0.69415 0.0
C2986 C 0.38886 0.40504 0.69877 0.0
C2987 C 0.38596 0.39253 0.71362 0.0
C2988 C 0.3697 0.39162 0.72393 0.0
C2989 C 0.27065 0.33757 0.73594 0.0
C2990 C 0.27807 0.32414 0.74693 0.0
C2991 C 0.28135 0.35631 0.7339 0.0
C2992 C 0.29971 0.36176 0.7426 0.0
C2993 C 0.30731 0.34814 0.75311 0.0
C2994 C 0.29652 0.3296 0.75543 0.0
C2995 C 0.31086 0.3819 0.74136 0.0
C2996 C 0.3277 0.38369 0.73186 0.0
C2997 C 0.30503 0.39923 0.74964 0.0
C2998 C 0.28776 0.39817 0.76054 0.0
C2999 C 0.28564 0.38729 0.77682 0.0
C3000 C 0.26924 0.38622 0.78693 0.0
C3001 C 0.25494 0.39611 0.78098 0.0
C3002 C 0.25703 0.40714 0.76495 0.0
C3003 C 0.27339 0.40823 0.75478 0.0
H3004 H 0.24226 0.39526 0.78882 0.0
H3005 H 0.40147 0.40574 0.69081 0.0
H3006 H 0.11725 0.5873 0.24453 0.0
H3007 H 0.13608 0.62051 0.24306 0.0
H3008 H 0.18698 0.59727 0.25353 0.0
H3009 H 0.1684 0.56409 0.25475 0.0
H3010 H 0.18407 0.6331 0.27735 0.0
H3011 H 0.17709 0.60539 0.21011 0.0
H3012 H 0.15843 0.58984 0.18027 0.0
H3013 H 0.13063 0.64016 0.17904 0.0
H3014 H 0.14891 0.65588 0.20908 0.0
H3015 H 0.25599 0.70903 0.26022 0.0
H3016 H 0.23519 0.67665 0.25656 0.0
H3017 H 0.18989 0.70351 0.23424 0.0
H3018 H 0.21108 0.73596 0.23711 0.0
H3019 H 0.18741 0.66703 0.21689 0.0
H3020 H 0.19482 0.69602 0.28244 0.0
H3021 H 0.21207 0.71194 0.31292 0.0
H3022 H 0.23682 0.66012 0.31883 0.0
H3023 H 0.22003 0.64402 0.28816 0.0
C3024 C 0.13245 0.58927 0.24652 0.0
C3025 C 0.14134 0.57306 0.24969 0.0
C3026 C 0.14317 0.60821 0.24562 0.0
C3027 C 0.16289 0.61126 0.24814 0.0
C3028 C 0.17176 0.59518 0.25155 0.0
C3029 C 0.16112 0.57622 0.25215 0.0
C3030 C 0.17441 0.6312 0.2473 0.0
C3031 C 0.18497 0.64048 0.26411 0.0
C3032 C 0.17499 0.641 0.23017 0.0
C3033 C 0.16422 0.63171 0.21196 0.0
C3034 C 0.16688 0.61307 0.20357 0.0
C3035 C 0.1564 0.60423 0.18661 0.0
C3036 C 0.14331 0.61398 0.1778 0.0
C3037 C 0.14075 0.63262 0.1859 0.0
C3038 C 0.15117 0.6415 0.20289 0.0
C3039 C 0.24171 0.70793 0.25411 0.0
C3040 C 0.23504 0.72493 0.24905 0.0
C3041 C 0.2298 0.68947 0.25215 0.0
C3042 C 0.21081 0.68777 0.24573 0.0
C3043 C 0.20445 0.70451 0.2394 0.0
C3044 C 0.21655 0.723 0.24097 0.0
C3045 C 0.1975 0.66885 0.24688 0.0
C3046 C 0.18649 0.65977 0.23019 0.0
C3047 C 0.19628 0.65932 0.26426 0.0
C3048 C 0.20627 0.66887 0.28287 0.0
C3049 C 0.20404 0.68806 0.29016 0.0
C3050 C 0.21374 0.69712 0.30747 0.0
C3051 C 0.22557 0.68707 0.31777 0.0
C3052 C 0.22768 0.6679 0.31081 0.0
C3053 C 0.21807 0.6588 0.29345 0.0
H3054 H 0.23307 0.69411 0.33117 0.0
H3055 H 0.1352 0.60711 0.16468 0.0
H3056 H 0.52726 0.73064 0.43434 0.0
H3057 H 0.5333 0.69955 0.44604 0.0
H3058 H 0.50494 0.66678 0.3939 0.0
H3059 H 0.49948 0.6981 0.38173 0.0
H3060 H 0.49108 0.65925 0.4359 0.0
H3061 H 0.54327 0.66139 0.39484 0.0
H3062 H 0.57274 0.6772 0.38174 0.0
H3063 H 0.60062 0.68499 0.43869 0.0
H3064 H 0.57121 0.66951 0.4522 0.0
H3065 H 0.49662 0.56608 0.46592 0.0
H3066 H 0.49803 0.59367 0.44596 0.0
H3067 H 0.5459 0.6262 0.48181 0.0
H3068 H 0.54513 0.59785 0.50137 0.0
H3069 H 0.55034 0.63307 0.44554 0.0
H3070 H 0.50003 0.63476 0.48775 0.0
H3071 H 0.47118 0.62137 0.50342 0.0
H3072 H 0.44029 0.60986 0.44795 0.0
H3073 H 0.46904 0.62292 0.43191 0.0
C3074 C 0.52275 0.71684 0.42517 0.0
C3075 C 0.51289 0.71665 0.40718 0.0
C3076 C 0.52625 0.69916 0.43183 0.0
C3077 C 0.51961 0.68099 0.42078 0.0
C3078 C 0.51031 0.68076 0.4025 0.0
C3079 C 0.50723 0.69857 0.39557 0.0
C3080 C 0.52028 0.66233 0.42966 0.0
C3081 C 0.5039 0.6532 0.43765 0.0
C3082 C 0.53727 0.65517 0.43264 0.0
C3083 C 0.55497 0.66449 0.42457 0.0
C3084 C 0.55562 0.66668 0.40461 0.0
C3085 C 0.57233 0.67553 0.3971 0.0
C3086 C 0.58853 0.68215 0.40938 0.0
C3087 C 0.58805 0.67988 0.4292 0.0
C3088 C 0.57137 0.67105 0.43679 0.0
C3089 C 0.50742 0.57914 0.46963 0.0
C3090 C 0.52049 0.5801 0.48549 0.0
C3091 C 0.50821 0.59491 0.45818 0.0
C3092 C 0.5217 0.61227 0.46272 0.0
C3093 C 0.53526 0.61301 0.47814 0.0
C3094 C 0.53475 0.59692 0.48937 0.0
C3095 C 0.52105 0.62982 0.45177 0.0
C3096 C 0.53742 0.63889 0.44359 0.0
C3097 C 0.50412 0.63731 0.44899 0.0
C3098 C 0.48674 0.62964 0.45861 0.0
C3099 C 0.48712 0.62926 0.47888 0.0
C3100 C 0.47078 0.62174 0.48783 0.0
C3101 C 0.45392 0.61472 0.47669 0.0
C3102 C 0.45336 0.61527 0.45657 0.0
C3103 C 0.46967 0.62274 0.44754 0.0
H3104 H 0.44129 0.6089 0.48364 0.0
H3105 H 0.60146 0.68899 0.40353 0.0
H3106 H 0.57164 0.29227 0.68976 0.0
H3107 H 0.59872 0.2914 0.71184 0.0
H3108 H 0.63547 0.32439 0.67405 0.0
H3109 H 0.60851 0.3249 0.65161 0.0
H3110 H 0.64972 0.29396 0.68384 0.0
H3111 H 0.62483 0.34558 0.71867 0.0
H3112 H 0.6006 0.36159 0.73423 0.0
H3113 H 0.59236 0.31655 0.77382 0.0
H3114 H 0.61637 0.3001 0.75832 0.0
H3115 H 0.73059 0.30937 0.74943 0.0
H3116 H 0.7039 0.31576 0.72933 0.0
H3117 H 0.66562 0.27822 0.7623 0.0
H3118 H 0.69246 0.27156 0.78218 0.0
H3119 H 0.65288 0.31234 0.7549 0.0
H3120 H 0.67885 0.26115 0.71915 0.0
H3121 H 0.70395 0.24665 0.70353 0.0
H3122 H 0.71081 0.29263 0.66491 0.0
H3123 H 0.68618 0.30781 0.6807 0.0
C3124 C 0.58543 0.2996 0.68624 0.0
C3125 C 0.58787 0.30863 0.66885 0.0
C3126 C 0.60093 0.29913 0.69894 0.0
C3127 C 0.61915 0.30795 0.6947 0.0
C3128 C 0.62156 0.31743 0.67761 0.0
C3129 C 0.6061 0.31777 0.66482 0.0
C3130 C 0.63578 0.30635 0.70754 0.0
C3131 C 0.65055 0.29831 0.69933 0.0
C3132 C 0.63672 0.31165 0.72782 0.0
C3133 C 0.62229 0.32151 0.73721 0.0
C3134 C 0.61775 0.339 0.73059 0.0
C3135 C 0.60407 0.34817 0.73942 0.0
C3136 C 0.59491 0.34006 0.75497 0.0
C3137 C 0.59945 0.3228 0.76176 0.0
C3138 C 0.61311 0.31355 0.75297 0.0
C3139 C 0.71649 0.30223 0.75209 0.0
C3140 C 0.71353 0.28947 0.76682 0.0
C3141 C 0.70126 0.30605 0.74079 0.0
C3142 C 0.6828 0.29714 0.74408 0.0
C3143 C 0.67977 0.28513 0.75945 0.0
C3144 C 0.69505 0.28134 0.77077 0.0
C3145 C 0.66671 0.29993 0.73118 0.0
C3146 C 0.65206 0.30813 0.73938 0.0
C3147 C 0.66597 0.29497 0.71085 0.0
C3148 C 0.68078 0.28577 0.70129 0.0
C3149 C 0.68585 0.26832 0.70749 0.0
C3150 C 0.70001 0.25999 0.6986 0.0
C3151 C 0.70904 0.26878 0.68331 0.0
C3152 C 0.70386 0.28588 0.67681 0.0
C3153 C 0.68983 0.29439 0.68576 0.0
H3154 H 0.72 0.26231 0.67645 0.0
H3155 H 0.58432 0.34719 0.76179 0.0
H3156 H 0.991 0.3029 0.92813 0.0
H3157 H 0.98552 0.33343 0.94574 0.0
H3158 H 0.00829 0.36694 0.8997 0.0
H3159 H 0.01317 0.33613 0.88159 0.0
H3160 H 0.00932 0.3633 0.9608 0.0
H3161 H 0.99042 0.40945 0.89855 0.0
H3162 H 0.97372 0.40379 0.86614 0.0
H3163 H 0.94115 0.34944 0.88152 0.0
H3164 H 0.95744 0.35491 0.91411 0.0
H3165 H 0.03017 0.46425 0.99103 0.0
H3166 H 0.02656 0.43178 0.97301 0.0
H3167 H 0.96639 0.42882 0.96671 0.0
H3168 H 0.96994 0.46199 0.98446 0.0
H3169 H 0.97904 0.41532 0.9336 0.0
H3170 H 0.98604 0.40251 0.99966 0.0
H3171 H 1.00048 0.40734 0.03307 0.0
H3172 H 0.05168 0.3922 0.0122 0.0
H3173 H 0.03768 0.38764 0.97862 0.0
C3174 C 0.99465 0.31672 0.92161 0.0
C3175 C 0.00255 0.31713 0.90347 0.0
C3176 C 0.99153 0.3342 0.93174 0.0
C3177 C 0.99639 0.35252 0.92406 0.0
C3178 C 0.00409 0.35296 0.9058 0.0
C3179 C 0.00699 0.33537 0.8955 0.0
C3180 C 0.99448 0.3712 0.93577 0.0
C3181 C 0.0026 0.3746 0.95484 0.0
C3182 C 0.98535 0.38582 0.92822 0.0
C3183 C 0.97529 0.38252 0.90872 0.0
C3184 C 0.97963 0.39634 0.89505 0.0
C3185 C 0.97025 0.39315 0.87664 0.0
C3186 C 0.95642 0.37624 0.87175 0.0
C3187 C 0.95191 0.3625 0.8853 0.0
C3188 C 0.96123 0.36563 0.90373 0.0
C3189 C 0.01609 0.45677 0.98594 0.0
C3190 C 1.00029 0.4657 0.98937 0.0
C3191 C 0.01407 0.4381 0.97564 0.0
C3192 C 0.99618 0.42767 0.96881 0.0
C3193 C 0.98033 0.43658 0.97195 0.0
C3194 C 0.98237 0.45548 0.98214 0.0
C3195 C 0.99431 0.40752 0.95836 0.0
C3196 C 0.98554 0.40388 0.93957 0.0
C3197 C 0.00244 0.39243 0.96632 0.0
C3198 C 0.01083 0.39486 0.98657 0.0
C3199 C 1.00042 0.40033 0.00217 0.0
C3200 C 0.00853 0.40302 0.02115 0.0
C3201 C 0.027 0.40013 0.02474 0.0
C3202 C 0.03737 0.39445 0.00938 0.0
C3203 C 0.02935 0.3918 0.99038 0.0
H3204 H 0.03328 0.40224 0.03943 0.0
H3205 H 0.94918 0.37379 0.85749 0.0
H3206 H 0.99613 0.76827 0.19925 0.0
H3207 H 0.96715 0.76416 0.21684 0.0
H3208 H 0.93881 0.78857 0.17109 0.0
H3209 H 0.96744 0.79225 0.15324 0.0
H3210 H 0.93785 0.80721 0.21142 0.0
H3211 H 0.92622 0.74346 0.17253 0.0
H3212 H 0.93405 0.71117 0.16059 0.0
H3213 H 0.9363 0.69456 0.21884 0.0
H3214 H 0.92875 0.72691 0.23115 0.0
H3215 H 0.8424 0.79413 0.22893 0.0
H3216 H 0.87294 0.79418 0.21544 0.0
H3217 H 0.88689 0.75542 0.25753 0.0
H3218 H 0.85582 0.75489 0.27082 0.0
H3219 H 0.89734 0.74345 0.22265 0.0
H3220 H 0.9077 0.80472 0.26222 0.0
H3221 H 0.90025 0.83663 0.27585 0.0
H3222 H 0.90205 0.85795 0.21942 0.0
H3223 H 0.90937 0.8261 0.20543 0.0
C3224 C 0.98363 0.77247 0.19282 0.0
C3225 C 0.98406 0.78056 0.17485 0.0
C3226 C 0.96712 0.77012 0.20288 0.0
C3227 C 0.9509 0.77613 0.19527 0.0
C3228 C 0.9512 0.78387 0.17719 0.0
C3229 C 0.96755 0.78586 0.16698 0.0
C3230 C 0.93384 0.77531 0.20648 0.0
C3231 C 0.9289 0.79329 0.21376 0.0
C3232 C 0.92263 0.75713 0.21018 0.0
C3233 C 0.92717 0.7377 0.20278 0.0
C3234 C 0.92859 0.73302 0.18281 0.0
C3235 C 0.93293 0.71468 0.17597 0.0
C3236 C 0.93574 0.70085 0.18896 0.0
C3237 C 0.93416 0.7053 0.2088 0.0
C3238 C 0.92984 0.72363 0.21572 0.0
C3239 C 0.85201 0.78574 0.23544 0.0
C3240 C 0.8468 0.77463 0.25103 0.0
C3241 C 0.86952 0.78581 0.22774 0.0
C3242 C 0.88239 0.77505 0.23563 0.0
C3243 C 0.87723 0.7639 0.25123 0.0
C3244 C 0.85956 0.7637 0.25889 0.0
C3245 C 0.90105 0.77541 0.22725 0.0
C3246 C 0.90637 0.7574 0.22054 0.0
C3247 C 0.91286 0.79357 0.22438 0.0
C3248 C 0.90897 0.81298 0.23276 0.0
C3249 C 0.90645 0.8162 0.25271 0.0
C3250 C 0.90226 0.83427 0.26051 0.0
C3251 C 0.90065 0.8493 0.24852 0.0
C3252 C 0.90333 0.84632 0.22871 0.0
C3253 C 0.90755 0.82827 0.22084 0.0
H3254 H 0.89735 0.86323 0.25462 0.0
H3255 H 0.93909 0.68666 0.18363 0.0
H3256 H 0.50179 0.34502 0.13474 0.0
H3257 H 0.50353 0.37374 0.11582 0.0
H3258 H 0.50881 0.33637 0.06376 0.0
H3259 H 0.50716 0.30764 0.08258 0.0
H3260 H 0.53242 0.3721 0.06497 0.0
H3261 H 0.46719 0.34875 0.07249 0.0
H3262 H 0.43878 0.33812 0.08999 0.0
H3263 H 0.44639 0.3958 0.12181 0.0
H3264 H 0.47503 0.4067 0.1047 0.0
H3265 H 0.5073 0.44391 0.00163 0.0
H3266 H 0.50536 0.41258 0.01702 0.0
H3267 H 0.50995 0.44539 0.0735 0.0
H3268 H 0.5124 0.47647 0.05843 0.0
H3269 H 0.48008 0.41028 0.06738 0.0
H3270 H 0.54675 0.43233 0.0612 0.0
H3271 H 0.57477 0.44285 0.04309 0.0
H3272 H 0.56353 0.38701 0.00771 0.0
H3273 H 0.53523 0.37628 0.02545 0.0
C3274 C 0.50353 0.34297 0.1193 0.0
C3275 C 0.50423 0.32405 0.11014 0.0
C3276 C 0.50441 0.35936 0.10848 0.0
C3277 C 0.50601 0.35714 0.08831 0.0
C3278 C 0.5075 0.33842 0.07927 0.0
C3279 C 0.50652 0.32201 0.09006 0.0
C3280 C 0.5056 0.37423 0.07659 0.0
C3281 C 0.52083 0.38024 0.06527 0.0
C3282 C 0.49055 0.38498 0.07706 0.0
C3283 C 0.47338 0.37847 0.08745 0.0
C3284 C 0.46291 0.35912 0.08335 0.0
C3285 C 0.44675 0.35305 0.09317 0.0
C3286 C 0.44081 0.36626 0.10704 0.0
C3287 C 0.45102 0.38558 0.11109 0.0
C3288 C 0.46722 0.39171 0.10132 0.0
C3289 C 0.50785 0.44435 0.01731 0.0
C3290 C 0.51019 0.46261 0.02883 0.0
C3291 C 0.50678 0.42652 0.02606 0.0
C3292 C 0.50757 0.42675 0.04639 0.0
C3293 C 0.50933 0.44491 0.05781 0.0
C3294 C 0.51084 0.46265 0.04915 0.0
C3295 C 0.50697 0.40822 0.05604 0.0
C3296 C 0.49155 0.40196 0.06696 0.0
C3297 C 0.52177 0.39721 0.05513 0.0
C3298 C 0.53874 0.40362 0.04446 0.0
C3299 C 0.55013 0.42238 0.04941 0.0
C3300 C 0.56608 0.42836 0.03925 0.0
C3301 C 0.57088 0.41563 0.0242 0.0
C3302 C 0.55976 0.39687 0.01933 0.0
C3303 C 0.54377 0.39083 0.02944 0.0
H3304 H 0.58325 0.42028 0.01636 0.0
H3305 H 0.42828 0.36154 0.11462 0.0
H3306 H 0.98708 0.2869 0.35191 0.0
H3307 H 0.95818 0.29027 0.33341 0.0
H3308 H 0.92672 0.28136 0.38422 0.0
H3309 H 0.95557 0.27848 0.40293 0.0
H3310 H 0.90975 0.25882 0.34658 0.0
H3311 H 0.93726 0.32505 0.37634 0.0
H3312 H 0.96335 0.35363 0.38312 0.0
H3313 H 0.96579 0.3598 0.32213 0.0
H3314 H 0.93991 0.331 0.31498 0.0
H3315 H 0.82459 0.28984 0.32587 0.0
H3316 H 0.85496 0.28751 0.34169 0.0
H3317 H 0.88333 0.31026 0.29274 0.0
H3318 H 0.85284 0.31276 0.27684 0.0
H3319 H 0.90317 0.32524 0.32687 0.0
H3320 H 0.87587 0.26187 0.29595 0.0
H3321 H 0.85143 0.23228 0.2867 0.0
H3322 H 0.85016 0.21914 0.34611 0.0
H3323 H 0.87443 0.24891 0.35579 0.0
C3324 C 0.97396 0.28542 0.35907 0.0
C3325 C 0.97359 0.28245 0.37888 0.0
C3326 C 0.95751 0.28743 0.34851 0.0
C3327 C 0.94038 0.28613 0.3575 0.0
C3328 C 0.93982 0.2824 0.37705 0.0
C3329 C 0.95631 0.28081 0.38771 0.0
C3330 C 0.92312 0.28942 0.34679 0.0
C3331 C 0.90819 0.27336 0.34244 0.0
C3332 C 0.92145 0.30825 0.3408 0.0
C3333 C 0.93681 0.32573 0.34511 0.0
C3334 C 0.94348 0.33238 0.36436 0.0
C3335 C 0.95821 0.34864 0.36828 0.0
C3336 C 0.96627 0.35849 0.35306 0.0
C3337 C 0.95956 0.35213 0.3339 0.0
C3338 C 0.94486 0.33585 0.32991 0.0
C3339 C 0.83731 0.29467 0.31861 0.0
C3340 C 0.83636 0.30139 0.30009 0.0
C3341 C 0.85466 0.29321 0.32761 0.0
C3342 C 0.8714 0.29835 0.31824 0.0
C3343 C 0.87059 0.30612 0.30019 0.0
C3344 C 0.85318 0.30757 0.29114 0.0
C3345 C 0.88952 0.2947 0.327 0.0
C3346 C 0.90467 0.31066 0.33093 0.0
C3347 C 0.89154 0.27565 0.33229 0.0
C3348 C 0.87684 0.25776 0.32663 0.0
C3349 C 0.87025 0.25279 0.30709 0.0
C3350 C 0.85644 0.23596 0.30176 0.0
C3351 C 0.84919 0.22385 0.31581 0.0
C3352 C 0.85576 0.22856 0.33524 0.0
C3353 C 0.86956 0.24541 0.34066 0.0
H3354 H 0.83852 0.21079 0.31165 0.0
H3355 H 0.97767 0.37107 0.35612 0.0
H3356 H 0.97226 0.72453 0.57598 0.0
H3357 H 0.96882 0.689 0.56598 0.0
H3358 H 0.99242 0.67974 0.62204 0.0
H3359 H 0.99553 0.71543 0.6323 0.0
H3360 H 0.0123 0.66808 0.59 0.0
H3361 H 0.94974 0.65684 0.61023 0.0
H3362 H 0.91735 0.66299 0.61333 0.0
H3363 H 0.90649 0.65203 0.55156 0.0
H3364 H 0.93891 0.64611 0.54804 0.0
H3365 H 0.01506 0.57138 0.54738 0.0
H3366 H 0.00821 0.59773 0.57052 0.0
H3367 H 0.97266 0.61608 0.52631 0.0
H3368 H 0.97837 0.58874 0.50362 0.0
H3369 H 0.95743 0.61981 0.55923 0.0
H3370 H 0.02043 0.63864 0.53812 0.0
H3371 H 0.05328 0.63483 0.53328 0.0
H3372 H 0.06368 0.63413 0.59469 0.0
H3373 H 0.0308 0.63767 0.59986 0.0
C3374 C 0.97612 0.71481 0.58639 0.0
C3375 C 0.98418 0.72265 0.60488 0.0
C3376 C 0.97411 0.69452 0.58069 0.0
C3377 C 0.98036 0.68177 0.59328 0.0
C3378 C 0.98742 0.68936 0.61218 0.0
C3379 C 0.98909 0.70968 0.61804 0.0
C3380 C 0.98208 0.66143 0.58549 0.0
C3381 C 1.00027 0.65724 0.58375 0.0
C3382 C 0.9664 0.64765 0.57685 0.0
C3383 C 0.94683 0.65112 0.57887 0.0
C3384 C 0.9405 0.65588 0.59729 0.0
C3385 C 0.92212 0.6593 0.59912 0.0
C3386 C 0.90987 0.65792 0.58265 0.0
C3387 C 0.91598 0.65308 0.56431 0.0
C3388 C 0.93436 0.64966 0.56239 0.0
C3389 C 0.00538 0.58069 0.54279 0.0
C3390 C 0.99707 0.57789 0.52379 0.0
C3391 C 0.00167 0.59594 0.55594 0.0
C3392 C 0.99013 0.60913 0.55011 0.0
C3393 C 0.98158 0.6061 0.5312 0.0
C3394 C 0.98496 0.59058 0.51818 0.0
C3395 C 0.98772 0.62671 0.56323 0.0
C3396 C 0.96943 0.6304 0.5659 0.0
C3397 C 0.00335 0.64028 0.57245 0.0
C3398 C 0.0231 0.63814 0.56935 0.0
C3399 C 0.02969 0.63751 0.55057 0.0
C3400 C 0.04831 0.63543 0.54777 0.0
C3401 C 0.06054 0.63417 0.56366 0.0
C3402 C 0.05418 0.63505 0.58239 0.0
C3403 C 0.03555 0.63709 0.58527 0.0
H3404 H 0.07495 0.63256 0.56146 0.0
H3405 H 0.89565 0.66058 0.58411 0.0
H3406 H 0.59318 0.76902 0.87991 0.0
H3407 H 0.61873 0.76392 0.85928 0.0
H3408 H 0.57875 0.74687 0.80993 0.0
H3409 H 0.55297 0.75162 0.83065 0.0
H3410 H 0.60539 0.72422 0.80839 0.0
H3411 H 0.60433 0.7937 0.81748 0.0
H3412 H 0.60452 0.82652 0.83516 0.0
H3413 H 0.65867 0.82518 0.8628 0.0
H3414 H 0.65867 0.79219 0.84553 0.0
H3415 H 0.69336 0.77891 0.75787 0.0
H3416 H 0.66309 0.77731 0.77238 0.0
H3417 H 0.66999 0.72255 0.79571 0.0
H3418 H 0.70011 0.72376 0.78049 0.0
H3419 H 0.65822 0.78112 0.80823 0.0
H3420 H 0.6273 0.69693 0.80687 0.0
H3421 H 0.62574 0.66597 0.78542 0.0
H3422 H 0.63284 0.69955 0.73601 0.0
H3423 H 0.63419 0.73067 0.75711 0.0
C3424 C 0.58976 0.76398 0.86471 0.0
C3425 C 0.57104 0.76088 0.8569 0.0
C3426 C 0.60442 0.76114 0.8529 0.0
C3427 C 0.60074 0.75535 0.83296 0.0
C3428 C 0.58196 0.7514 0.82526 0.0
C3429 C 0.56724 0.75416 0.83712 0.0
C3430 C 0.61659 0.75433 0.82009 0.0
C3431 C 0.61696 0.73665 0.80835 0.0
C3432 C 0.63151 0.77068 0.81964 0.0
C3433 C 0.63139 0.79035 0.83038 0.0
C3434 C 0.61618 0.8003 0.82749 0.0
C3435 C 0.61628 0.81895 0.83741 0.0
C3436 C 0.63157 0.8279 0.85013 0.0
C3437 C 0.64681 0.81821 0.85297 0.0
C3438 C 0.64677 0.79953 0.84313 0.0
C3439 C 0.6882 0.76626 0.76569 0.0
C3440 C 0.6991 0.75146 0.76806 0.0
C3441 C 0.67092 0.7654 0.77408 0.0
C3442 C 0.66419 0.74988 0.78528 0.0
C3443 C 0.67466 0.73455 0.78693 0.0
C3444 C 0.69189 0.73524 0.77822 0.0
C3445 C 0.64725 0.75091 0.79661 0.0
C3446 C 0.64669 0.76863 0.80819 0.0
C3447 C 0.63199 0.7348 0.79646 0.0
C3448 C 0.63104 0.71614 0.78362 0.0
C3449 C 0.62846 0.6977 0.79142 0.0
C3450 C 0.62763 0.68012 0.77932 0.0
C3451 C 0.62925 0.68079 0.75938 0.0
C3452 C 0.63166 0.69905 0.75147 0.0
C3453 C 0.63249 0.71666 0.7635 0.0
H3454 H 0.6286 0.66717 0.75004 0.0
H3455 H 0.63164 0.84237 0.85776 0.0
H3456 H 0.39157 0.53359 0.68079 0.0
H3457 H 0.40413 0.5366 0.64855 0.0
H3458 H 0.45676 0.56953 0.67527 0.0
H3459 H 0.44454 0.566 0.70738 0.0
H3460 H 0.44139 0.58256 0.63663 0.0
H3461 H 0.45718 0.52526 0.66901 0.0
H3462 H 0.44742 0.49448 0.68468 0.0
H3463 H 0.41156 0.46925 0.63425 0.0
H3464 H 0.42093 0.50004 0.61842 0.0
H3465 H 0.51666 0.57041 0.57715 0.0
H3466 H 0.49465 0.57414 0.60258 0.0
H3467 H 0.45612 0.52284 0.57529 0.0
H3468 H 0.47829 0.51864 0.5505 0.0
H3469 H 0.45926 0.519 0.6113 0.0
H3470 H 0.4456 0.57013 0.57569 0.0
H3471 H 0.45099 0.59975 0.55758 0.0
H3472 H 0.47636 0.63545 0.60917 0.0
H3473 H 0.4714 0.60597 0.62756 0.0
C3474 C 0.4056 0.54197 0.6797 0.0
C3475 C 0.41712 0.54954 0.69652 0.0
C3476 C 0.41276 0.54365 0.66132 0.0
C3477 C 0.43137 0.5533 0.65958 0.0
C3478 C 0.44233 0.56216 0.67631 0.0
C3479 C 0.43537 0.56007 0.69462 0.0
C3480 C 0.44045 0.55174 0.64088 0.0
C3481 C 0.44543 0.56875 0.63107 0.0
C3482 C 0.44496 0.53351 0.63322 0.0
C3483 C 0.43959 0.51497 0.64264 0.0
C3484 C 0.44711 0.51319 0.66134 0.0
C3485 C 0.44167 0.49575 0.67024 0.0
C3486 C 0.42884 0.47994 0.66049 0.0
C3487 C 0.42147 0.48152 0.6418 0.0
C3488 C 0.42684 0.49895 0.63286 0.0
C3489 C 0.50344 0.56004 0.57656 0.0
C3490 C 0.49921 0.54428 0.56181 0.0
C3491 C 0.49077 0.56226 0.591 0.0
C3492 C 0.47358 0.54885 0.59083 0.0
C3493 C 0.46925 0.53336 0.57583 0.0
C3494 C 0.48194 0.53103 0.56158 0.0
C3495 C 0.46082 0.55002 0.60705 0.0
C3496 C 0.45513 0.53288 0.61652 0.0
C3497 C 0.45513 0.56799 0.61393 0.0
C3498 C 0.4583 0.58578 0.60297 0.0
C3499 C 0.4525 0.58425 0.58314 0.0
C3500 C 0.45543 0.60102 0.57283 0.0
C3501 C 0.46404 0.61945 0.58221 0.0
C3502 C 0.46971 0.62115 0.60193 0.0
C3503 C 0.46683 0.60442 0.61231 0.0
H3504 H 0.4663 0.63243 0.5742 0.0
H3505 H 0.42464 0.46644 0.66739 0.0
H3506 H 0.75696 0.17528 0.97699 0.0
H3507 H 0.75286 0.18739 0.94548 0.0
H3508 H 0.76845 0.13445 0.9176 0.0
H3509 H 0.77246 0.12198 0.94951 0.0
H3510 H 0.78903 0.17003 0.90695 0.0
H3511 H 0.72507 0.1404 0.90926 0.0
H3512 H 0.69457 0.13142 0.9237 0.0
H3513 H 0.68953 0.19298 0.93147 0.0
H3514 H 0.72016 0.2024 0.91737 0.0
H3515 H 0.77612 0.21647 0.82035 0.0
H3516 H 0.77337 0.19186 0.84391 0.0
H3517 H 0.75363 0.23313 0.88521 0.0
H3518 H 0.75582 0.25769 0.86136 0.0
H3519 H 0.73283 0.19608 0.88401 0.0
H3520 H 0.79908 0.22549 0.88644 0.0
H3521 H 0.82901 0.23464 0.87112 0.0
H3522 H 0.82996 0.173 0.85492 0.0
H3523 H 0.79954 0.1635 0.8695 0.0
C3524 C 0.75925 0.16602 0.96419 0.0
C3525 C 0.76508 0.14772 0.96567 0.0
C3526 C 0.75678 0.17292 0.94616 0.0
C3527 C 0.7602 0.16173 0.92924 0.0
C3528 C 0.76564 0.1432 0.93055 0.0
C3529 C 0.76787 0.13611 0.9487 0.0
C3530 C 0.75967 0.17061 0.91063 0.0
C3531 C 0.77662 0.17528 0.90157 0.0
C3532 C 0.74352 0.17767 0.9039 0.0
C3533 C 0.72499 0.17211 0.91231 0.0
C3534 C 0.71754 0.15205 0.91417 0.0
C3535 C 0.70021 0.14687 0.92228 0.0
C3536 C 0.69013 0.16162 0.92852 0.0
C3537 C 0.69735 0.18157 0.92662 0.0
C3538 C 0.71469 0.18684 0.91854 0.0
C3539 C 0.77136 0.22037 0.83453 0.0
C3540 C 0.76637 0.23903 0.83919 0.0
C3541 C 0.76975 0.20627 0.84793 0.0
C3542 C 0.76344 0.21074 0.86633 0.0
C3543 C 0.75849 0.22941 0.87103 0.0
C3544 C 0.75992 0.24348 0.85754 0.0
C3545 C 0.76236 0.19615 0.88089 0.0
C3546 C 0.74511 0.19044 0.88913 0.0
C3547 C 0.77824 0.18815 0.88688 0.0
C3548 C 0.79691 0.1938 0.87885 0.0
C3549 C 0.8056 0.21388 0.87951 0.0
C3550 C 0.82266 0.21913 0.87094 0.0
C3551 C 0.83142 0.20441 0.86205 0.0
C3552 C 0.82314 0.18439 0.86178 0.0
C3553 C 0.80595 0.17907 0.87013 0.0
H3554 H 0.8446 0.20849 0.85536 0.0
H3555 H 0.67672 0.15758 0.9348 0.0
H3556 H 0.12546 0.49408 0.18609 0.0
H3557 H 0.11342 0.48453 0.15225 0.0
H3558 H 0.05645 0.47652 0.17041 0.0
H3559 H 0.06823 0.48539 0.20388 0.0
H3560 H 0.05832 0.45043 0.14077 0.0
H3561 H 0.07997 0.52195 0.15742 0.0
H3562 H 0.10402 0.55167 0.16801 0.0
H3563 H 0.13727 0.53746 0.12076 0.0
H3564 H 0.11347 0.50753 0.11003 0.0
H3565 H 0.9975 0.49382 0.08241 0.0
H3566 H 0.01804 0.48217 0.10638 0.0
H3567 H 0.06175 0.48452 0.06581 0.0
H3568 H 0.0408 0.49531 0.0417 0.0
H3569 H 0.07327 0.50688 0.10066 0.0
H3570 H 0.04359 0.44083 0.07924 0.0
H3571 H 0.01699 0.41346 0.06938 0.0
H3572 H 0.99633 0.41905 0.12628 0.0
H3573 H 0.02261 0.4467 0.13643 0.0
C3574 C 0.1104 0.48981 0.18286 0.0
C3575 C 0.09779 0.49094 0.1976 0.0
C3576 C 0.10354 0.48439 0.16354 0.0
C3577 C 0.08402 0.48016 0.15877 0.0
C3578 C 0.07156 0.47976 0.17369 0.0
C3579 C 0.07835 0.48507 0.19286 0.0
C3580 C 0.07614 0.4787 0.13846 0.0
C3581 C 0.06167 0.46267 0.13188 0.0
C3582 C 0.08082 0.49445 0.12667 0.0
C3583 C 0.09512 0.51238 0.13312 0.0
C3584 C 0.09248 0.52511 0.14939 0.0
C3585 C 0.10605 0.54199 0.1554 0.0
C3586 C 0.1222 0.54641 0.14511 0.0
C3587 C 0.12478 0.53398 0.12876 0.0
C3588 C 0.11127 0.51705 0.12271 0.0
C3589 C 0.01134 0.49143 0.07855 0.0
C3590 C 0.01805 0.49628 0.06062 0.0
C3591 C 0.02304 0.48473 0.09216 0.0
C3592 C 0.04147 0.48263 0.08789 0.0
C3593 C 0.04767 0.48627 0.06947 0.0
C3594 C 0.03592 0.49283 0.05588 0.0
C3595 C 0.05484 0.4791 0.10345 0.0
C3596 C 0.07036 0.49422 0.10911 0.0
C3597 C 0.05084 0.46272 0.11454 0.0
C3598 C 0.03509 0.44591 0.10859 0.0
C3599 C 0.03333 0.43632 0.08963 0.0
C3600 C 0.0183 0.42074 0.08399 0.0
C3601 C 0.00499 0.41452 0.09719 0.0
C3602 C 0.00668 0.42387 0.11608 0.0
C3603 C 0.02166 0.43948 0.1218 0.0
H3604 H 0.99336 0.40246 0.09278 0.0
H3605 H 0.13268 0.55949 0.14978 0.0
H3606 H 0.76509 0.90389 0.45818 0.0
H3607 H 0.76902 0.88703 0.42634 0.0
H3608 H 0.76825 0.83196 0.45217 0.0
H3609 H 0.76472 0.84874 0.48393 0.0
H3610 H 0.79417 0.83555 0.42676 0.0
H3611 H 0.72898 0.84206 0.42729 0.0
H3612 H 0.70238 0.86001 0.43071 0.0
H3613 H 0.72098 0.89437 0.38409 0.0
H3614 H 0.74784 0.87679 0.38056 0.0
H3615 H 0.74453 0.78195 0.3288 0.0
H3616 H 0.74422 0.79927 0.36099 0.0
H3617 H 0.80225 0.82706 0.35782 0.0
H3618 H 0.80279 0.80947 0.32564 0.0
H3619 H 0.74816 0.83742 0.37184 0.0
H3620 H 0.82346 0.83663 0.40381 0.0
H3621 H 0.84777 0.81551 0.40143 0.0
H3622 H 0.80502 0.76412 0.3848 0.0
H3623 H 0.78045 0.78488 0.38732 0.0
C3624 C 0.76587 0.88822 0.45706 0.0
C3625 C 0.7645 0.87763 0.47355 0.0
C3626 C 0.76805 0.87857 0.43885 0.0
C3627 C 0.76873 0.85814 0.43678 0.0
C3628 C 0.7678 0.84771 0.45335 0.0
C3629 C 0.7657 0.85733 0.47151 0.0
C3630 C 0.76987 0.84737 0.41738 0.0
C3631 C 0.78416 0.83606 0.41472 0.0
C3632 C 0.75665 0.84769 0.40172 0.0
C3633 C 0.74052 0.85827 0.4038 0.0
C3634 C 0.72747 0.85355 0.41787 0.0
C3635 C 0.71234 0.86364 0.41981 0.0
C3636 C 0.71002 0.87836 0.40766 0.0
C3637 C 0.72281 0.88299 0.39351 0.0
C3638 C 0.73798 0.87296 0.39153 0.0
C3639 C 0.75732 0.79158 0.33498 0.0
C3640 C 0.77371 0.79428 0.32459 0.0
C3641 C 0.75708 0.80156 0.35339 0.0
C3642 C 0.7732 0.81447 0.3619 0.0
C3643 C 0.78969 0.817 0.3517 0.0
C3644 C 0.78997 0.80693 0.33327 0.0
C3645 C 0.77248 0.82562 0.38119 0.0
C3646 C 0.75828 0.83705 0.38381 0.0
C3647 C 0.78551 0.82502 0.39694 0.0
C3648 C 0.80015 0.81236 0.39554 0.0
C3649 C 0.81925 0.82081 0.3997 0.0
C3650 C 0.83308 0.8089 0.39832 0.0
C3651 C 0.82795 0.7885 0.3929 0.0
C3652 C 0.80898 0.77994 0.38891 0.0
C3653 C 0.7951 0.79178 0.39029 0.0
H3654 H 0.83867 0.77931 0.39183 0.0
H3655 H 0.6983 0.88615 0.40919 0.0
H3656 H 0.3782 0.53837 0.812 0.0
H3657 H 0.3905 0.52844 0.84252 0.0
H3658 H 0.43949 0.51506 0.81456 0.0
H3659 H 0.42748 0.52526 0.78414 0.0
H3660 H 0.42301 0.48531 0.83804 0.0
H3661 H 0.44473 0.55599 0.84174 0.0
H3662 H 0.44164 0.59112 0.84092 0.0
H3663 H 0.405 0.58633 0.88796 0.0
H3664 H 0.40766 0.55105 0.88887 0.0
H3665 H 0.48715 0.48525 0.91998 0.0
H3666 H 0.47014 0.48851 0.88936 0.0
H3667 H 0.42659 0.50999 0.92114 0.0
H3668 H 0.44372 0.50707 0.95171 0.0
H3669 H 0.43876 0.53467 0.8957 0.0
H3670 H 0.41835 0.46445 0.89351 0.0
H3671 H 0.42168 0.42943 0.89465 0.0
H3672 H 0.45547 0.43298 0.84531 0.0
H3673 H 0.45256 0.46813 0.84402 0.0
C3674 C 0.39158 0.53329 0.81236 0.0
C3675 C 0.4019 0.53266 0.79569 0.0
C3676 C 0.39858 0.52764 0.82979 0.0
C3677 C 0.41592 0.52105 0.83078 0.0
C3678 C 0.42607 0.52005 0.81407 0.0
C3679 C 0.41921 0.52598 0.79673 0.0
C3680 C 0.42372 0.51567 0.84937 0.0
C3681 C 0.42662 0.49611 0.85063 0.0
C3682 C 0.42802 0.52967 0.86588 0.0
C3683 C 0.4262 0.55081 0.8652 0.0
C3684 C 0.43584 0.56236 0.85176 0.0
C3685 C 0.43421 0.58232 0.85131 0.0
C3686 C 0.42308 0.59094 0.86433 0.0
C3687 C 0.41358 0.57962 0.87785 0.0
C3688 C 0.41515 0.55964 0.87834 0.0
C3689 C 0.47371 0.49016 0.9204 0.0
C3690 C 0.46678 0.49596 0.93819 0.0
C3691 C 0.46397 0.49202 0.90289 0.0
C3692 C 0.44706 0.49953 0.90291 0.0
C3693 C 0.43964 0.50426 0.92073 0.0
C3694 C 0.44939 0.50249 0.9382 0.0
C3695 C 0.43804 0.5042 0.88453 0.0
C3696 C 0.43498 0.52373 0.88324 0.0
C3697 C 0.43356 0.49013 0.86805 0.0
C3698 C 0.43538 0.469 0.86879 0.0
C3699 C 0.42663 0.45782 0.883 0.0
C3700 C 0.42841 0.43793 0.88365 0.0
C3701 C 0.43882 0.429 0.87009 0.0
C3702 C 0.44743 0.43993 0.85582 0.0
C3703 C 0.4457 0.45983 0.85511 0.0
H3704 H 0.44018 0.41359 0.87062 0.0
H3705 H 0.42187 0.6064 0.86399 0.0
H3706 H 0.79417 0.20652 0.05728 0.0
H3707 H 0.79809 0.22332 0.0901 0.0
H3708 H 0.77599 0.16803 0.11289 0.0
H3709 H 0.7722 0.15097 0.07992 0.0
H3710 H 0.75601 0.19933 0.12156 0.0
H3711 H 0.81971 0.18828 0.12561 0.0
H3712 H 0.85165 0.18866 0.1144 0.0
H3713 H 0.86018 0.25221 0.11484 0.0
H3714 H 0.82817 0.2522 0.12579 0.0
H3715 H 0.7611 0.23983 0.21798 0.0
H3716 H 0.76417 0.22045 0.18782 0.0
H3717 H 0.7962 0.27231 0.16617 0.0
H3718 H 0.79423 0.29173 0.19733 0.0
H3719 H 0.81201 0.24137 0.15755 0.0
H3720 H 0.74884 0.25337 0.1501 0.0
H3721 H 0.71663 0.25458 0.15985 0.0
H3722 H 0.70662 0.19154 0.16369 0.0
H3723 H 0.73885 0.18998 0.15411 0.0
C3724 C 0.7906 0.19783 0.06933 0.0
C3725 C 0.78273 0.1775 0.06611 0.0
C3726 C 0.79294 0.20743 0.08806 0.0
C3727 C 0.78731 0.19689 0.10385 0.0
C3728 C 0.78046 0.17634 0.10082 0.0
C3729 C 0.77838 0.16663 0.08205 0.0
C3730 C 0.78622 0.20794 0.12288 0.0
C3731 C 0.76828 0.20821 0.12968 0.0
C3732 C 0.80218 0.22015 0.13289 0.0
C3733 C 0.82147 0.22021 0.12638 0.0
C3734 C 0.82833 0.20232 0.12316 0.0
C3735 C 0.84647 0.20247 0.11689 0.0
C3736 C 0.85792 0.22044 0.11387 0.0
C3737 C 0.85128 0.2383 0.11717 0.0
C3738 C 0.83316 0.23823 0.12344 0.0
C3739 C 0.7687 0.24725 0.20682 0.0
C3740 C 0.77743 0.26734 0.21 0.0
C3741 C 0.77035 0.23612 0.18948 0.0
C3742 C 0.78013 0.24498 0.17458 0.0
C3743 C 0.78855 0.26519 0.1775 0.0
C3744 C 0.78728 0.2763 0.19517 0.0
C3745 C 0.78176 0.23285 0.15621 0.0
C3746 C 0.79974 0.23241 0.14951 0.0
C3747 C 0.76579 0.22075 0.14601 0.0
C3748 C 0.7463 0.22158 0.15151 0.0
C3749 C 0.7398 0.23978 0.15311 0.0
C3750 C 0.72153 0.24053 0.1586 0.0
C3751 C 0.7096 0.22315 0.16244 0.0
C3752 C 0.71588 0.20498 0.16072 0.0
C3753 C 0.73413 0.20415 0.15521 0.0
H3754 H 0.69548 0.22377 0.16673 0.0
H3755 H 0.87196 0.22053 0.109 0.0
H3756 H 0.1413 0.53187 0.31384 0.0
H3757 H 0.12647 0.5409 0.34374 0.0
H3758 H 0.07196 0.51336 0.31682 0.0
H3759 H 0.08649 0.50499 0.28705 0.0
H3760 H 0.06928 0.54724 0.33471 0.0
H3761 H 0.09683 0.49092 0.35052 0.0
H3762 H 0.1225 0.472 0.35511 0.0
H3763 H 0.15102 0.51806 0.39762 0.0
H3764 H 0.1256 0.53736 0.39311 0.0
H3765 H 0.01409 0.5193 0.41439 0.0
H3766 H 0.03287 0.51966 0.38576 0.0
H3767 H 0.07662 0.56356 0.41686 0.0
H3768 H 0.05775 0.56368 0.44531 0.0
H3769 H 0.08757 0.52659 0.39864 0.0
H3770 H 0.05616 0.58037 0.38468 0.0
H3771 H 0.02864 0.59669 0.38032 0.0
H3772 H 0.00539 0.55211 0.33407 0.0
H3773 H 0.03265 0.53535 0.33835 0.0
C3774 C 0.12617 0.52776 0.31441 0.0
C3775 C 0.11503 0.51779 0.29816 0.0
C3776 C 0.11773 0.53286 0.33147 0.0
C3777 C 0.09809 0.52774 0.33253 0.0
C3778 C 0.08709 0.51763 0.31631 0.0
C3779 C 0.09544 0.51278 0.29931 0.0
C3780 C 0.08869 0.5328 0.35036 0.0
C3781 C 0.07326 0.54263 0.34866 0.0
C3782 C 0.09411 0.5272 0.36867 0.0
C3783 C 0.10946 0.5157 0.37128 0.0
C3784 C 0.10867 0.49709 0.36071 0.0
C3785 C 0.12315 0.48629 0.36332 0.0
C3786 C 0.13842 0.49386 0.37659 0.0
C3787 C 0.13921 0.51224 0.38731 0.0
C3788 C 0.12477 0.52312 0.38473 0.0
C3789 C 0.02755 0.52927 0.41495 0.0
C3790 C 0.03449 0.54149 0.43194 0.0
C3791 C 0.03824 0.52945 0.39867 0.0
C3792 C 0.05608 0.54163 0.39933 0.0
C3793 C 0.06287 0.5541 0.41616 0.0
C3794 C 0.05204 0.55421 0.4323 0.0
C3795 C 0.06799 0.54047 0.38273 0.0
C3796 C 0.08385 0.53143 0.38471 0.0
C3797 C 0.06278 0.54644 0.36461 0.0
C3798 C 0.04638 0.55651 0.36196 0.0
C3799 C 0.0451 0.57394 0.3737 0.0
C3800 C 0.02957 0.5833 0.37121 0.0
C3801 C 0.01526 0.57542 0.35696 0.0
C3802 C 0.01648 0.55819 0.34512 0.0
C3803 C 0.03198 0.54877 0.34756 0.0
H3804 H 0.00324 0.58268 0.35505 0.0
H3805 H 0.14961 0.48547 0.3786 0.0
H3806 H 0.74041 0.83779 0.56179 0.0
H3807 H 0.73558 0.82477 0.59312 0.0
H3808 H 0.76294 0.8813 0.62223 0.0
H3809 H 0.76764 0.8946 0.59053 0.0
H3810 H 0.77769 0.84854 0.6344 0.0
H3811 H 0.71761 0.86735 0.62725 0.0
H3812 H 0.68746 0.87007 0.61044 0.0
H3813 H 0.67138 0.80646 0.60405 0.0
H3814 H 0.70156 0.80333 0.62057 0.0
H3815 H 0.76352 0.80662 0.72349 0.0
H3816 H 0.76246 0.82899 0.6981 0.0
H3817 H 0.72844 0.7813 0.66053 0.0
H3818 H 0.72871 0.75909 0.68637 0.0
H3819 H 0.71664 0.81454 0.65549 0.0
H3820 H 0.77796 0.79553 0.65862 0.0
H3821 H 0.80817 0.79218 0.67497 0.0
H3822 H 0.82221 0.85553 0.68802 0.0
H3823 H 0.79192 0.85925 0.67205 0.0
C3824 C 0.74506 0.84762 0.57486 0.0
C3825 C 0.75437 0.86724 0.57371 0.0
C3826 C 0.74225 0.84015 0.59279 0.0
C3827 C 0.74884 0.85203 0.61007 0.0
C3828 C 0.75769 0.87188 0.60907 0.0
C3829 C 0.76023 0.87951 0.591 0.0
C3830 C 0.74756 0.84296 0.62884 0.0
C3831 C 0.76431 0.84151 0.63929 0.0
C3832 C 0.73015 0.83333 0.63496 0.0
C3833 C 0.71193 0.83511 0.62505 0.0
C3834 C 0.70772 0.85393 0.62213 0.0
C3835 C 0.6906 0.85554 0.61268 0.0
C3836 C 0.67753 0.83845 0.60615 0.0
C3837 C 0.68153 0.81969 0.60911 0.0
C3838 C 0.69863 0.81799 0.61854 0.0
C3839 C 0.75558 0.80096 0.70992 0.0
C3840 C 0.74624 0.78106 0.70689 0.0
C3841 C 0.75511 0.81375 0.69533 0.0
C3842 C 0.74574 0.80678 0.67715 0.0
C3843 C 0.73585 0.78706 0.67436 0.0
C3844 C 0.73604 0.77434 0.68911 0.0
C3845 C 0.74679 0.81974 0.66085 0.0
C3846 C 0.73001 0.82184 0.65081 0.0
C3847 C 0.76421 0.82985 0.65503 0.0
C3848 C 0.78258 0.82765 0.66432 0.0
C3849 C 0.78744 0.80874 0.66508 0.0
C3850 C 0.80457 0.80678 0.67427 0.0
C3851 C 0.81707 0.82363 0.68256 0.0
C3852 C 0.81249 0.84249 0.68162 0.0
C3853 C 0.79534 0.84454 0.6725 0.0
H3854 H 0.83032 0.82209 0.68966 0.0
H3855 H 0.66429 0.83973 0.59884 0.0
H3856 H 0.68757 0.41551 0.51211 0.0
H3857 H 0.6658 0.4387 0.51713 0.0
H3858 H 0.71247 0.4865 0.53407 0.0
H3859 H 0.73454 0.46339 0.52881 0.0
H3860 H 0.67527 0.48309 0.55689 0.0
H3861 H 0.70074 0.48914 0.49388 0.0
H3862 H 0.71032 0.47567 0.46249 0.0
H3863 H 0.65367 0.4449 0.44786 0.0
H3864 H 0.64383 0.4579 0.47932 0.0
H3865 H 0.60463 0.54475 0.54113 0.0
H3866 H 0.63539 0.53389 0.54301 0.0
H3867 H 0.61144 0.47993 0.50708 0.0
H3868 H 0.58136 0.49089 0.50466 0.0
H3869 H 0.64376 0.49472 0.49487 0.0
H3870 H 0.61917 0.48264 0.558 0.0
H3871 H 0.60799 0.49286 0.58974 0.0
H3872 H 0.66083 0.53226 0.60445 0.0
H3873 H 0.67218 0.52238 0.57263 0.0
C3874 C 0.69323 0.43086 0.51724 0.0
C3875 C 0.71276 0.43769 0.51988 0.0
C3876 C 0.68078 0.44407 0.52012 0.0
C3877 C 0.68762 0.46425 0.52585 0.0
C3878 C 0.70701 0.47094 0.52968 0.0
C3879 C 0.71955 0.45774 0.52659 0.0
C3880 C 0.67444 0.47839 0.52574 0.0
C3881 C 0.66862 0.48609 0.54338 0.0
C3882 C 0.66576 0.48204 0.50807 0.0
C3883 C 0.6716 0.47439 0.48902 0.0
C3884 C 0.69037 0.47937 0.48404 0.0
C3885 C 0.69584 0.47183 0.46622 0.0
C3886 C 0.68262 0.4594 0.45321 0.0
C3887 C 0.6639 0.45452 0.45796 0.0
C3888 C 0.65837 0.46198 0.47578 0.0
C3889 C 0.60611 0.53066 0.53358 0.0
C3890 C 0.59074 0.51871 0.52264 0.0
C3891 C 0.62359 0.52443 0.53473 0.0
C3892 C 0.62571 0.50608 0.52519 0.0
C3893 C 0.61024 0.49423 0.51439 0.0
C3894 C 0.59301 0.50051 0.51305 0.0
C3895 C 0.6438 0.49872 0.52607 0.0
C3896 C 0.65068 0.49231 0.50847 0.0
C3897 C 0.65319 0.49604 0.54379 0.0
C3898 C 0.64639 0.50198 0.56286 0.0
C3899 C 0.62831 0.4936 0.56794 0.0
C3900 C 0.62196 0.49931 0.58595 0.0
C3901 C 0.63367 0.51327 0.59908 0.0
C3902 C 0.65176 0.52149 0.59424 0.0
C3903 C 0.65815 0.51584 0.57622 0.0
H3904 H 0.62874 0.51767 0.61303 0.0
H3905 H 0.68688 0.45359 0.43942 0.0
H3906 H 0.19737 0.15735 0.49552 0.0
H3907 H 0.16674 0.136 0.49634 0.0
H3908 H 0.19031 0.08523 0.47505 0.0
H3909 H 0.22134 0.10648 0.47523 0.0
H3910 H 0.14298 0.11619 0.47209 0.0
H3911 H 0.16664 0.04251 0.4891 0.0
H3912 H 0.19289 0.03149 0.50663 0.0
H3913 H 0.20404 0.08678 0.5429 0.0
H3914 H 0.17772 0.09801 0.52576 0.0
H3915 H 0.06217 0.04271 0.45689 0.0
H3916 H 0.09419 0.06102 0.45635 0.0
H3917 H 0.10436 0.05312 0.51679 0.0
H3918 H 0.07284 0.03286 0.51658 0.0
H3919 H 0.13468 0.05218 0.50156 0.0
H3920 H 0.09276 0.09867 0.49863 0.0
H3921 H 0.06568 0.11222 0.48608 0.0
H3922 H 0.08982 0.11653 0.43085 0.0
H3923 H 0.11704 0.10286 0.44304 0.0
C3924 C 0.19607 0.14163 0.49098 0.0
C3925 C 0.21186 0.13363 0.48535 0.0
C3926 C 0.17847 0.12939 0.49143 0.0
C3927 C 0.17608 0.10884 0.486 0.0
C3928 C 0.19176 0.1009 0.47982 0.0
C3929 C 0.2095 0.1131 0.47978 0.0
C3930 C 0.15715 0.09596 0.48669 0.0
C3931 C 0.14124 0.10221 0.47857 0.0
C3932 C 0.15458 0.07786 0.49549 0.0
C3933 C 0.17034 0.07117 0.50599 0.0
C3934 C 0.17466 0.05228 0.50085 0.0
C3935 C 0.18955 0.04601 0.51072 0.0
C3936 C 0.20016 0.05846 0.52582 0.0
C3937 C 0.19586 0.07718 0.53115 0.0
C3938 C 0.18097 0.08352 0.52135 0.0
C3939 C 0.07127 0.04472 0.47005 0.0
C3940 C 0.06472 0.0369 0.48706 0.0
C3941 C 0.08958 0.05544 0.46979 0.0
C3942 C 0.10162 0.0593 0.48674 0.0
C3943 C 0.09535 0.05074 0.50355 0.0
C3944 C 0.07718 0.03943 0.50359 0.0
C3945 C 0.12055 0.07242 0.48693 0.0
C3946 C 0.13645 0.06619 0.49513 0.0
C3947 C 0.12303 0.091 0.47898 0.0
C3948 C 0.10685 0.09956 0.47169 0.0
C3949 C 0.09226 0.10243 0.48378 0.0
C3950 C 0.07687 0.11013 0.47672 0.0
C3951 C 0.07595 0.11513 0.45763 0.0
C3952 C 0.09052 0.1126 0.44562 0.0
C3953 C 0.10595 0.10492 0.4526 0.0
H3954 H 0.06399 0.12097 0.45214 0.0
H3955 H 0.2117 0.05358 0.53343 0.0
H3956 H 0.14448 0.9415 0.77921 0.0
H3957 H 0.16274 0.91465 0.77563 0.0
H3958 H 0.21211 0.95712 0.7658 0.0
H3959 H 0.19387 0.98394 0.76908 0.0
H3960 H 0.21022 0.92488 0.7416 0.0
H3961 H 0.20593 0.93772 0.80982 0.0
H3962 H 0.19102 0.94196 0.84081 0.0
H3963 H 0.16113 0.88174 0.8316 0.0
H3964 H 0.17561 0.87722 0.80038 0.0
H3965 H 0.27343 0.85512 0.76071 0.0
H3966 H 0.2584 0.88478 0.76394 0.0
H3967 H 0.20371 0.8471 0.76022 0.0
H3968 H 0.21829 0.81776 0.75648 0.0
H3969 H 0.21087 0.87842 0.79246 0.0
H3970 H 0.2137 0.86707 0.72292 0.0
H3971 H 0.22995 0.86269 0.69277 0.0
H3972 H 0.26418 0.92059 0.70595 0.0
H3973 H 0.24829 0.92518 0.73636 0.0
C3974 C 0.15919 0.94511 0.77614 0.0
C3975 C 0.1677 0.9649 0.77447 0.0
C3976 C 0.16967 0.92975 0.77424 0.0
C3977 C 0.18894 0.93384 0.77076 0.0
C3978 C 0.19732 0.95353 0.76856 0.0
C3979 C 0.18685 0.96888 0.77045 0.0
C3980 C 0.20035 0.91763 0.76944 0.0
C3981 C 0.21056 0.91495 0.7529 0.0
C3982 C 0.20076 0.90443 0.78404 0.0
C3983 C 0.19169 0.90722 0.80262 0.0
C3984 C 0.196 0.92545 0.81428 0.0
C3985 C 0.18766 0.92789 0.83191 0.0
C3986 C 0.17508 0.91216 0.83813 0.0
C3987 C 0.17082 0.89394 0.82673 0.0
C3988 C 0.1791 0.89143 0.80907 0.0
C3989 C 0.25821 0.85321 0.76047 0.0
C3990 C 0.24712 0.83404 0.75819 0.0
C3991 C 0.24965 0.87013 0.76231 0.0
C3992 C 0.22992 0.8681 0.76233 0.0
C3993 C 0.21892 0.84901 0.76025 0.0
C3994 C 0.22736 0.83224 0.758 0.0
C3995 C 0.22044 0.88567 0.76462 0.0
C3996 C 0.2106 0.88854 0.78131 0.0
C3997 C 0.22046 0.89908 0.75027 0.0
C3998 C 0.23 0.89635 0.73203 0.0
C3999 C 0.22484 0.87878 0.7195 0.0
C4000 C 0.23394 0.87628 0.70234 0.0
C4001 C 0.24814 0.89132 0.69748 0.0
C4002 C 0.25321 0.90893 0.70975 0.0
C4003 C 0.24416 0.91149 0.72695 0.0
H4004 H 0.25516 0.88937 0.68419 0.0
H4005 H 0.16868 0.91405 0.85182 0.0
H4006 H 0.2872 0.9241 0.97674 0.0
H4007 H 0.31889 0.94425 0.97825 0.0
H4008 H 0.34159 0.89764 0.00366 0.0
H4009 H 0.30996 0.87709 0.00169 0.0
H4010 H 0.34857 0.94193 0.02401 0.0
H4011 H 0.35371 0.89987 0.96464 0.0
H4012 H 0.34275 0.88507 0.93149 0.0
H4013 H 0.346 0.94337 0.91239 0.0
H4014 H 0.35671 0.95851 0.94553 0.0
H4015 H 0.4458 0.97866 0.03035 0.0
H4016 H 0.41399 0.95939 0.02642 0.0
H4017 H 0.40204 0.99071 0.97719 0.0
H4018 H 0.43457 0.00902 0.98029 0.0
H4019 H 0.38822 0.95498 0.96839 0.0
H4020 H 0.3836 0.99826 0.02469 0.0
H4021 H 0.39262 0.01573 0.05728 0.0
H4022 H 0.3856 0.95984 0.08193 0.0
H4023 H 0.37678 0.942 0.04945 0.0
C4024 C 0.29899 0.91804 0.9824 0.0
C4025 C 0.29617 0.89905 0.9891 0.0
C4026 C 0.31702 0.92954 0.98323 0.0
C4027 C 0.33244 0.92237 0.99109 0.0
C4028 C 0.32978 0.90332 0.99752 0.0
C4029 C 0.31178 0.8916 0.99629 0.0
C4030 C 0.35117 0.93527 0.99348 0.0
C4031 C 0.35744 0.94464 0.01197 0.0
C4032 C 0.36213 0.93942 0.97753 0.0
C4033 C 0.3558 0.93031 0.95761 0.0
C4034 C 0.35189 0.90953 0.95342 0.0
C4035 C 0.34578 0.90108 0.93462 0.0
C4036 C 0.34362 0.91327 0.91985 0.0
C4037 C 0.34764 0.93394 0.92385 0.0
C4038 C 0.35375 0.94246 0.94263 0.0
C4039 C 0.4363 0.98164 0.01886 0.0
C4040 C 0.44254 0.99543 0.00572 0.0
C4041 C 0.41804 0.97067 0.01667 0.0
C4042 C 0.40535 0.97383 0.00176 0.0
C4043 C 0.4115 0.98797 0.98883 0.0
C4044 C 0.43002 0.99851 0.99066 0.0
C4045 C 0.38605 0.96166 0.99915 0.0
C4046 C 0.3795 0.95245 0.98057 0.0
C4047 C 0.37457 0.9581 0.01498 0.0
C4048 C 0.37967 0.96879 0.0346 0.0
C4049 C 0.38408 0.98968 0.03705 0.0
C4050 C 0.38915 0.99965 0.0555 0.0
C4051 C 0.38972 0.9889 0.07166 0.0
C4052 C 0.38516 0.96815 0.0694 0.0
C4053 C 0.3801 0.9581 0.05097 0.0
H4054 H 0.39367 0.99664 0.08594 0.0
H4055 H 0.33889 0.9067 0.9053 0.0
H4056 H 0.84203 0.55909 0.76959 0.0
H4057 H 0.82154 0.58137 0.75929 0.0
H4058 H 0.86873 0.61749 0.73585 0.0
H4059 H 0.88957 0.59581 0.74745 0.0
H4060 H 0.85117 0.64077 0.75305 0.0
H4061 H 0.83003 0.58605 0.70659 0.0
H4062 H 0.81898 0.5512 0.69337 0.0
H4063 H 0.7692 0.54898 0.72522 0.0
H4064 H 0.78006 0.58374 0.73887 0.0
H4065 H 0.78852 0.69725 0.71167 0.0
H4066 H 0.80685 0.67041 0.71072 0.0
H4067 H 0.77673 0.64576 0.7578 0.0
H4068 H 0.75865 0.67293 0.75921 0.0
H4069 H 0.78626 0.61715 0.7236 0.0
H4070 H 0.81216 0.67392 0.7711 0.0
H4071 H 0.82402 0.70969 0.77974 0.0
H4072 H 0.86687 0.70836 0.73902 0.0
H4073 H 0.85496 0.67265 0.72978 0.0
C4074 C 0.84799 0.57166 0.76205 0.0
C4075 C 0.86736 0.57572 0.75927 0.0
C4076 C 0.83622 0.58434 0.75599 0.0
C4077 C 0.84342 0.60098 0.74637 0.0
C4078 C 0.86277 0.60478 0.74321 0.0
C4079 C 0.87467 0.59237 0.74977 0.0
C4080 C 0.83097 0.61507 0.74094 0.0
C4081 C 0.83715 0.63551 0.74623 0.0
C4082 C 0.81258 0.60844 0.73201 0.0
C4083 C 0.80594 0.58749 0.72387 0.0
C4084 C 0.81679 0.5781 0.7109 0.0
C4085 C 0.81054 0.55836 0.7033 0.0
C4086 C 0.79341 0.54787 0.70848 0.0
C4087 C 0.78247 0.55712 0.72123 0.0
C4088 C 0.78865 0.57686 0.72888 0.0
C4089 C 0.78547 0.68583 0.7215 0.0
C4090 C 0.77227 0.68716 0.7356 0.0
C4091 C 0.79595 0.67054 0.72092 0.0
C4092 C 0.79314 0.65623 0.73423 0.0
C4093 C 0.77898 0.65667 0.74737 0.0
C4094 C 0.76873 0.67218 0.74819 0.0
C4095 C 0.80648 0.64239 0.73611 0.0
C4096 C 0.80043 0.62216 0.73015 0.0
C4097 C 0.82519 0.64925 0.74378 0.0
C4098 C 0.83253 0.67065 0.7496 0.0
C4099 C 0.82398 0.68129 0.76383 0.0
C4100 C 0.83073 0.70155 0.76886 0.0
C4101 C 0.84619 0.71128 0.75995 0.0
C4102 C 0.8549 0.70079 0.74592 0.0
C4103 C 0.84815 0.68054 0.74078 0.0
H4104 H 0.85147 0.72691 0.76398 0.0
H4105 H 0.7886 0.53259 0.70258 0.0
H4106 H 0.83204 0.64973 0.00435 0.0
H4107 H 0.85886 0.63316 0.00991 0.0
H4108 H 0.82086 0.57793 0.01411 0.0
H4109 H 0.79392 0.59458 0.00904 0.0
H4110 H 0.8497 0.58147 0.04015 0.0
H4111 H 0.84335 0.58778 0.97216 0.0
H4112 H 0.84056 0.60492 0.94263 0.0
H4113 H 0.89466 0.64174 0.95772 0.0
H4114 H 0.89765 0.62501 0.9875 0.0
H4115 H 0.91905 0.51915 0.02159 0.0
H4116 H 0.89124 0.53535 0.02185 0.0
H4117 H 0.92705 0.59208 0.01819 0.0
H4118 H 0.95455 0.5759 0.01718 0.0
H4119 H 0.89877 0.58726 0.99228 0.0
H4120 H 0.90492 0.57958 0.06024 0.0
H4121 H 0.90745 0.56139 0.08911 0.0
H4122 H 0.85332 0.52511 0.07289 0.0
H4123 H 0.85057 0.54292 0.04376 0.0
C4124 C 0.82936 0.63409 0.0066 0.0
C4125 C 0.81081 0.62346 0.00611 0.0
C4126 C 0.84474 0.62459 0.0097 0.0
C4127 C 0.84196 0.60415 0.01208 0.0
C4128 C 0.82343 0.59366 0.01225 0.0
C4129 C 0.80802 0.60321 0.0093 0.0
C4130 C 0.85837 0.59367 0.01373 0.0
C4131 C 0.86028 0.58246 0.02951 0.0
C4132 C 0.8724 0.59515 5e-05 0.0
C4133 C 0.87063 0.60529 0.98218 0.0
C4134 C 0.85458 0.59965 0.96927 0.0
C4135 C 0.85298 0.60927 0.95247 0.0
C4136 C 0.8674 0.62445 0.94833 0.0
C4137 C 0.88348 0.63001 0.96097 0.0
C4138 C 0.88514 0.62046 0.9778 0.0
C4139 C 0.92092 0.53507 0.02089 0.0
C4140 C 0.93892 0.54622 0.01908 0.0
C4141 C 0.90505 0.54437 0.02123 0.0
C4142 C 0.90698 0.56504 0.02016 0.0
C4143 C 0.9251 0.57617 0.01901 0.0
C4144 C 0.94083 0.56686 0.01834 0.0
C4145 C 0.89018 0.57494 0.01868 0.0
C4146 C 0.88817 0.58608 0.00289 0.0
C4147 C 0.87602 0.57317 0.03222 0.0
C4148 C 0.87763 0.56245 0.04971 0.0
C4149 C 0.89363 0.56761 0.06274 0.0
C4150 C 0.89509 0.55739 0.07916 0.0
C4151 C 0.88058 0.54207 0.0828 0.0
C4152 C 0.86456 0.53696 0.07004 0.0
C4153 C 0.86303 0.54713 0.05358 0.0
H4154 H 0.88173 0.53418 0.09553 0.0
H4155 H 0.86613 0.63187 0.93531 0.0
H4156 H 0.18395 0.05979 0.79727 0.0
H4157 H 0.2059 0.09091 0.79471 0.0
H4158 H 0.15909 0.12146 0.78765 0.0
H4159 H 0.13706 0.09059 0.79047 0.0
H4160 H 0.18736 0.12731 0.75893 0.0
H4161 H 0.18237 0.1293 0.82897 0.0
H4162 H 0.18469 0.11542 0.86045 0.0
H4163 H 0.24308 0.11328 0.85343 0.0
H4164 H 0.24103 0.12691 0.82178 0.0
H4165 H 0.23066 0.22675 0.76279 0.0
H4166 H 0.21083 0.19549 0.76823 0.0
H4167 H 0.2589 0.17613 0.7948 0.0
H4168 H 0.27831 0.20857 0.79132 0.0
H4169 H 0.23152 0.1626 0.81287 0.0
H4170 H 0.23915 0.16094 0.74501 0.0
H4171 H 0.23903 0.17332 0.71266 0.0
H4172 H 0.17934 0.1716 0.71295 0.0
H4173 H 0.17913 0.15956 0.74545 0.0
C4174 C 0.17832 0.07316 0.79536 0.0
C4175 C 0.15872 0.07268 0.79414 0.0
C4176 C 0.19089 0.09092 0.79389 0.0
C4177 C 0.1841 0.10845 0.79095 0.0
C4178 C 0.1646 0.10807 0.78987 0.0
C4179 C 0.15204 0.09042 0.79163 0.0
C4180 C 0.19725 0.12719 0.78866 0.0
C4181 C 0.19692 0.13519 0.77073 0.0
C4182 C 0.21025 0.13692 0.80382 0.0
C4183 C 0.2115 0.12894 0.82293 0.0
C4184 C 0.19566 0.12573 0.83407 0.0
C4185 C 0.19694 0.11793 0.85196 0.0
C4186 C 0.21401 0.11342 0.85891 0.0
C4187 C 0.22986 0.11676 0.84802 0.0
C4188 C 0.22866 0.12454 0.83012 0.0
C4189 C 0.23689 0.21605 0.77024 0.0
C4190 C 0.25595 0.22022 0.77688 0.0
C4191 C 0.22562 0.19792 0.77298 0.0
C4192 C 0.23339 0.18302 0.7814 0.0
C4193 C 0.25249 0.18725 0.78819 0.0
C4194 C 0.26361 0.20577 0.78614 0.0
C4195 C 0.22157 0.16314 0.78311 0.0
C4196 C 0.22214 0.1548 0.8009 0.0
C4197 C 0.20918 0.15275 0.76758 0.0
C4198 C 0.20916 0.15947 0.74776 0.0
C4199 C 0.226 0.16327 0.73821 0.0
C4200 C 0.226 0.17024 0.71985 0.0
C4201 C 0.2092 0.17328 0.71077 0.0
C4202 C 0.19235 0.16926 0.72 0.0
C4203 C 0.19228 0.16234 0.73839 0.0
H4204 H 0.20924 0.17873 0.69658 0.0
H4205 H 0.21497 0.10738 0.87276 0.0
H4206 H 0.41376 0.9796 0.32103 0.0
H4207 H 0.39448 0.94688 0.32392 0.0
H4208 H 0.34979 0.9621 0.28792 0.0
H4209 H 0.36855 0.99459 0.28532 0.0
H4210 H 0.33556 0.94514 0.3174 0.0
H4211 H 0.38076 0.93241 0.27095 0.0
H4212 H 0.41225 0.93141 0.25906 0.0
H4213 H 0.42314 0.89351 0.30278 0.0
H4214 H 0.39181 0.89457 0.31515 0.0
H4215 H 0.28413 0.85551 0.26906 0.0
H4216 H 0.30489 0.88739 0.27841 0.0
H4217 H 0.33287 0.86132 0.32319 0.0
H4218 H 0.31209 0.82924 0.31402 0.0
H4219 H 0.35708 0.88239 0.29608 0.0
H4220 H 0.30855 0.89194 0.33867 0.0
H4221 H 0.27579 0.8918 0.34727 0.0
H4222 H 0.27008 0.93487 0.30707 0.0
H4223 H 0.30273 0.93506 0.298 0.0
C4224 C 0.39982 0.97595 0.31377 0.0
C4225 C 0.39273 0.98976 0.30295 0.0
C4226 C 0.38883 0.95724 0.3154 0.0
C4227 C 0.3707 0.95201 0.30608 0.0
C4228 C 0.36367 0.96582 0.29536 0.0
C4229 C 0.3745 0.98444 0.29384 0.0
C4230 C 0.35884 0.93219 0.30709 0.0
C4231 C 0.3403 0.93143 0.31272 0.0
C4232 C 0.36512 0.91423 0.30143 0.0
C4233 C 0.38408 0.91389 0.29422 0.0
C4234 C 0.38996 0.92409 0.2782 0.0
C4235 C 0.40776 0.92346 0.27134 0.0
C4236 C 0.41973 0.91249 0.28023 0.0
C4237 C 0.4139 0.90208 0.29597 0.0
C4238 C 0.39613 0.90271 0.30293 0.0
C4239 C 0.29456 0.85655 0.28103 0.0
C4240 C 0.2965 0.83982 0.29076 0.0
C4241 C 0.30636 0.87479 0.28638 0.0
C4242 C 0.32038 0.87661 0.30145 0.0
C4243 C 0.32213 0.86011 0.3115 0.0
C4244 C 0.31018 0.84186 0.30629 0.0
C4245 C 0.3338 0.89554 0.30581 0.0
C4246 C 0.35257 0.8961 0.3012 0.0
C4247 C 0.32767 0.91334 0.31204 0.0
C4248 C 0.30807 0.91342 0.31758 0.0
C4249 C 0.30027 0.90128 0.33156 0.0
C4250 C 0.28172 0.90121 0.33653 0.0
C4251 C 0.27085 0.9133 0.3277 0.0
C4252 C 0.27852 0.92552 0.3139 0.0
C4253 C 0.29706 0.92563 0.30886 0.0
H4254 H 0.2565 0.91322 0.33157 0.0
H4255 H 0.43349 0.91199 0.27486 0.0
H4256 H 0.52313 0.36053 0.65162 0.0
H4257 H 0.5207 0.3899 0.63456 0.0
H4258 H 0.53958 0.36156 0.58294 0.0
H4259 H 0.54227 0.3324 0.5999 0.0
H4260 H 0.55441 0.40124 0.58826 0.0
H4261 H 0.49288 0.35887 0.58905 0.0
H4262 H 0.46674 0.34086 0.60584 0.0
H4263 H 0.45925 0.39569 0.63669 0.0
H4264 H 0.48551 0.41399 0.62022 0.0
H4265 H 0.52481 0.45546 0.51574 0.0
H4266 H 0.52783 0.42763 0.5348 0.0
H4267 H 0.499 0.45382 0.58081 0.0
H4268 H 0.49455 0.48064 0.56093 0.0
H4269 H 0.49003 0.41673 0.58056 0.0
H4270 H 0.55028 0.45992 0.57893 0.0
H4271 H 0.57626 0.47827 0.56212 0.0
H4272 H 0.58694 0.42329 0.53432 0.0
H4273 H 0.56091 0.40464 0.55076 0.0
C4274 C 0.5271 0.36074 0.63676 0.0
C4275 C 0.5327 0.34411 0.62702 0.0
C4276 C 0.52563 0.37747 0.62701 0.0
C4277 C 0.52966 0.37775 0.60739 0.0
C4278 C 0.53633 0.36163 0.59805 0.0
C4279 C 0.5378 0.34495 0.60776 0.0
C4280 C 0.52569 0.39405 0.59606 0.0
C4281 C 0.54034 0.40463 0.5865 0.0
C4282 C 0.50739 0.39869 0.59409 0.0
C4283 C 0.49125 0.38776 0.60354 0.0
C4284 C 0.48569 0.36706 0.59946 0.0
C4285 C 0.47086 0.35681 0.60892 0.0
C4286 C 0.46137 0.36711 0.62237 0.0
C4287 C 0.46663 0.38772 0.62629 0.0
C4288 C 0.48147 0.39805 0.61688 0.0
C4289 C 0.5187 0.45487 0.52971 0.0
C4290 C 0.50939 0.46996 0.53693 0.0
C4291 C 0.52067 0.43918 0.54073 0.0
C4292 C 0.51429 0.43897 0.5596 0.0
C4293 C 0.50418 0.45366 0.56639 0.0
C4294 C 0.5016 0.46894 0.55504 0.0
C4295 C 0.51876 0.42399 0.57254 0.0
C4296 C 0.50419 0.41362 0.58244 0.0
C4297 C 0.53722 0.41973 0.57501 0.0
C4298 C 0.55354 0.43089 0.56596 0.0
C4299 C 0.55818 0.45175 0.56925 0.0
C4300 C 0.57289 0.4622 0.55975 0.0
C4301 C 0.58315 0.45194 0.54708 0.0
C4302 C 0.57893 0.43121 0.5441 0.0
C4303 C 0.56423 0.42069 0.55352 0.0
H4304 H 0.59435 0.46003 0.53952 0.0
H4305 H 0.44993 0.35914 0.62972 0.0
H4306 H 0.42797 0.75352 0.38376 0.0
H4307 H 0.39937 0.75237 0.36302 0.0
H4308 H 0.43293 0.76246 0.31383 0.0
H4309 H 0.46165 0.76344 0.33439 0.0
H4310 H 0.40669 0.78901 0.32089 0.0
H4311 H 0.40775 0.71791 0.31577 0.0
H4312 H 0.40859 0.68618 0.32971 0.0
H4313 H 0.35768 0.69095 0.35795 0.0
H4314 H 0.35666 0.72281 0.34436 0.0
H4315 H 0.33299 0.78546 0.25115 0.0
H4316 H 0.36136 0.77967 0.26846 0.0
H4317 H 0.32707 0.74684 0.30844 0.0
H4318 H 0.29874 0.75024 0.28925 0.0
H4319 H 0.35432 0.7315 0.30674 0.0
H4320 H 0.35183 0.80055 0.31694 0.0
H4321 H 0.34992 0.83448 0.30907 0.0
H4322 H 0.40085 0.83725 0.27914 0.0
H4323 H 0.40303 0.80321 0.28669 0.0
C4324 C 0.42929 0.75528 0.36848 0.0
C4325 C 0.44713 0.75862 0.36075 0.0
C4326 C 0.41291 0.75454 0.35665 0.0
C4327 C 0.41405 0.75727 0.33689 0.0
C4328 C 0.43177 0.76026 0.32904 0.0
C4329 C 0.44816 0.76075 0.34081 0.0
C4330 C 0.39687 0.75826 0.32469 0.0
C4331 C 0.39531 0.77639 0.31749 0.0
C4332 C 0.38168 0.74207 0.3212 0.0
C4333 C 0.38221 0.7228 0.32914 0.0
C4334 C 0.39681 0.71224 0.32505 0.0
C4335 C 0.3973 0.69423 0.33287 0.0
C4336 C 0.38321 0.68657 0.34473 0.0
C4337 C 0.36858 0.69689 0.34876 0.0
C4338 C 0.36802 0.71491 0.34097 0.0
C4339 C 0.33153 0.77681 0.26351 0.0
C4340 C 0.31364 0.76908 0.26946 0.0
C4341 C 0.34781 0.77376 0.27364 0.0
C4342 C 0.34658 0.76374 0.29053 0.0
C4343 C 0.32861 0.75505 0.29579 0.0
C4344 C 0.31234 0.75733 0.28508 0.0
C4345 C 0.36393 0.76241 0.30267 0.0
C4346 C 0.36558 0.74424 0.30998 0.0
C4347 C 0.3789 0.77889 0.30705 0.0
C4348 C 0.37748 0.79924 0.3022 0.0
C4349 C 0.36254 0.80832 0.30854 0.0
C4350 C 0.36142 0.8276 0.30415 0.0
C4351 C 0.37519 0.838 0.29355 0.0
C4352 C 0.39016 0.82916 0.28732 0.0
C4353 C 0.39137 0.80988 0.29166 0.0
H4354 H 0.3743 0.85294 0.2902 0.0
H4355 H 0.38363 0.67263 0.35078 0.0
H4356 H 0.0641 0.74548 0.10417 0.0
H4357 H 0.06132 0.71058 0.09249 0.0
H4358 H 0.00967 0.69669 0.12134 0.0
H4359 H 0.01266 0.7319 0.13366 0.0
H4360 H 0.03054 0.66794 0.12409 0.0
H4361 H 0.00849 0.70174 0.07283 0.0
H4362 H 0.00948 0.72784 0.05042 0.0
H4363 H 0.05884 0.71118 0.02643 0.0
H4364 H 0.05831 0.68515 0.04889 0.0
H4365 H 0.99595 0.57793 0.06291 0.0
H4366 H 1.00057 0.61116 0.08014 0.0
H4367 H 0.05631 0.62443 0.05938 0.0
H4368 H 0.05191 0.59097 0.0422 0.0
H4369 H 0.03272 0.653 0.05295 0.0
H4370 H 0.0535 0.61813 0.10467 0.0
H4371 H 0.05077 0.59152 0.12663 0.0
H4372 H 1.00129 0.60955 0.14899 0.0
H4373 H 0.00356 0.6361 0.12694 0.0
C4374 C 0.05216 0.73503 0.10814 0.0
C4375 C 0.03842 0.7415 0.11959 0.0
C4376 C 0.05059 0.71506 0.10141 0.0
C4377 C 0.03504 0.70109 0.10561 0.0
C4378 C 0.02171 0.70727 0.1178 0.0
C4379 C 0.02341 0.72735 0.12481 0.0
C4380 C 0.03257 0.68029 0.09658 0.0
C4381 C 0.03075 0.66465 0.10851 0.0
C4382 C 0.0331 0.676 0.07626 0.0
C4383 C 0.03345 0.69161 0.06267 0.0
C4384 C 0.01964 0.70374 0.06288 0.0
C4385 C 0.02011 0.71851 0.05015 0.0
C4386 C 0.03424 0.7212 0.03704 0.0
C4387 C 0.04791 0.70909 0.0366 0.0
C4388 C 0.04753 0.69432 0.04932 0.0
C4389 C 0.00927 0.58784 0.06209 0.0
C4390 C 0.02356 0.58184 0.05112 0.0
C4391 C 0.0119 0.60678 0.07204 0.0
C4392 C 0.0288 0.62017 0.07109 0.0
C4393 C 0.04319 0.61423 0.06032 0.0
C4394 C 0.04067 0.59512 0.05057 0.0
C4395 C 0.03094 0.64074 0.08046 0.0
C4396 C 0.03257 0.65633 0.06853 0.0
C4397 C 0.02996 0.64489 0.1007 0.0
C4398 C 0.02859 0.62898 0.11401 0.0
C4399 C 0.04193 0.61631 0.11414 0.0
C4400 C 0.04049 0.60126 0.12663 0.0
C4401 C 0.02584 0.59881 0.13916 0.0
C4402 C 0.01262 0.61145 0.13926 0.0
C4403 C 0.01399 0.62651 0.12678 0.0
H4404 H 0.02475 0.58716 0.14882 0.0
H4405 H 0.03458 0.73264 0.0272 0.0
H4406 H 0.0394 0.26483 0.82427 0.0
H4407 H 0.06822 0.26387 0.8074 0.0
H4408 H 0.0983 0.25982 0.8618 0.0
H4409 H 0.0697 0.26201 0.87883 0.0
H4410 H 0.11962 0.28331 0.84343 0.0
H4411 H 0.08345 0.2187 0.82477 0.0
H4412 H 0.05582 0.19384 0.81173 0.0
H4413 H 0.05912 0.2176 0.75647 0.0
H4414 H 0.08664 0.24279 0.76926 0.0
H4415 H 0.19806 0.24916 0.80418 0.0
H4416 H 0.16763 0.2483 0.81836 0.0
H4417 H 0.14626 0.27203 0.76801 0.0
H4418 H 0.17696 0.27319 0.75374 0.0
H4419 H 0.12079 0.23879 0.78328 0.0
H4420 H 0.15928 0.30311 0.8044 0.0
H4421 H 0.18851 0.3246 0.81881 0.0
H4422 H 0.182 0.29692 0.87188 0.0
H4423 H 0.15287 0.27504 0.85767 0.0
C4424 C 0.05216 0.26364 0.8326 0.0
C4425 C 0.05231 0.26343 0.85285 0.0
C4426 C 0.06863 0.26296 0.82292 0.0
C4427 C 0.08548 0.26139 0.83321 0.0
C4428 C 0.08556 0.26105 0.85347 0.0
C4429 C 0.06919 0.26223 0.86321 0.0
C4430 C 0.10312 0.26064 0.82297 0.0
C4431 C 0.11982 0.27335 0.83043 0.0
C4432 C 0.10354 0.24789 0.80579 0.0
C4433 C 0.08699 0.23276 0.79804 0.0
C4434 C 0.0782 0.21872 0.80988 0.0
C4435 C 0.06257 0.20455 0.80253 0.0
C4436 C 0.05568 0.20418 0.7833 0.0
C4437 C 0.06445 0.21794 0.77137 0.0
C4438 C 0.08008 0.23215 0.77865 0.0
C4439 C 0.18684 0.25401 0.79601 0.0
C4440 C 0.18987 0.26134 0.7779 0.0
C4441 C 0.16948 0.25353 0.80415 0.0
C4442 C 0.15478 0.26026 0.7943 0.0
C4443 C 0.15747 0.2668 0.77582 0.0
C4444 C 0.17497 0.26748 0.76772 0.0
C4445 C 0.137 0.26133 0.80385 0.0
C4446 C 0.12038 0.24872 0.79626 0.0
C4447 C 0.13674 0.27378 0.82117 0.0
C4448 C 0.15397 0.28732 0.82991 0.0
C4449 C 0.16414 0.30152 0.8191 0.0
C4450 C 0.18069 0.31378 0.82724 0.0
C4451 C 0.18714 0.31209 0.84623 0.0
C4452 C 0.177 0.2982 0.85716 0.0
C4453 C 0.16046 0.28588 0.84908 0.0
H4454 H 0.19997 0.32156 0.85249 0.0
H4455 H 0.04358 0.1932 0.77763 0.0
H4456 H 0.52433 0.71197 0.89569 0.0
H4457 H 0.52402 0.67914 0.90745 0.0
H4458 H 0.52917 0.70592 0.96653 0.0
H4459 H 0.52953 0.73845 0.95507 0.0
H4460 H 0.55217 0.67847 0.96124 0.0
H4461 H 0.48692 0.68322 0.94559 0.0
H4462 H 0.46013 0.68737 0.92389 0.0
H4463 H 0.46768 0.63653 0.8864 0.0
H4464 H 0.49473 0.63228 0.90773 0.0
H4465 H 0.52491 0.59604 0.01512 0.0
H4466 H 0.52739 0.6278 0.00087 0.0
H4467 H 0.513 0.59625 0.94402 0.0
H4468 H 0.50963 0.56473 0.95825 0.0
H4469 H 0.49584 0.62551 0.94625 0.0
H4470 H 0.55951 0.61898 0.96114 0.0
H4471 H 0.5855 0.61284 0.98264 0.0
H4472 H 0.58223 0.66551 0.01965 0.0
H4473 H 0.55583 0.67173 0.99854 0.0
C4474 C 0.52553 0.71086 0.91117 0.0
C4475 C 0.52678 0.72787 0.9244 0.0
C4476 C 0.52529 0.69209 0.91788 0.0
C4477 C 0.52643 0.69005 0.9379 0.0
C4478 C 0.52827 0.70709 0.95104 0.0
C4479 C 0.52836 0.72572 0.94441 0.0
C4480 C 0.52511 0.67025 0.94546 0.0
C4481 C 0.53982 0.66691 0.95804 0.0
C4482 C 0.50921 0.65496 0.94095 0.0
C4483 C 0.49299 0.65759 0.92812 0.0
C4484 C 0.48298 0.67304 0.93262 0.0
C4485 C 0.46773 0.6754 0.92041 0.0
C4486 C 0.46225 0.66227 0.90374 0.0
C4487 C 0.47198 0.64673 0.89928 0.0
C4488 C 0.48727 0.64434 0.91142 0.0
C4489 C 0.52224 0.59594 0.99961 0.0
C4490 C 0.517 0.57788 0.98786 0.0
C4491 C 0.52375 0.61409 0.99142 0.0
C4492 C 0.52066 0.61452 0.97125 0.0
C4493 C 0.5154 0.59643 0.95958 0.0
C4494 C 0.5135 0.57837 0.96778 0.0
C4495 C 0.52287 0.63368 0.96218 0.0
C4496 C 0.50832 0.63693 0.94933 0.0
C4497 C 0.53905 0.64875 0.96619 0.0
C4498 C 0.55555 0.64569 0.97837 0.0
C4499 C 0.56429 0.62923 0.97389 0.0
C4500 C 0.57907 0.62571 0.98605 0.0
C4501 C 0.58545 0.6387 0.0026 0.0
C4502 C 0.5772 0.6554 0.00688 0.0
C4503 C 0.56232 0.65894 0.99482 0.0
H4504 H 0.5968 0.63587 0.01209 0.0
H4505 H 0.45043 0.6641 0.89432 0.0
H4506 H 0.07193 0.78224 0.61876 0.0
H4507 H 0.10079 0.77726 0.63571 0.0
H4508 H 0.07322 0.77589 0.68952 0.0
H4509 H 0.04404 0.78084 0.67263 0.0
H4510 H 0.11012 0.79828 0.69324 0.0
H4511 H 0.07831 0.73352 0.66664 0.0
H4512 H 0.06219 0.7084 0.64088 0.0
H4513 H 0.11192 0.71562 0.60871 0.0
H4514 H 0.12825 0.74102 0.63416 0.0
H4515 H 0.17828 0.75864 0.74586 0.0
H4516 H 0.14837 0.76221 0.72981 0.0
H4517 H 0.17294 0.7593 0.67433 0.0
H4518 H 0.20296 0.75547 0.69039 0.0
H4519 H 0.13712 0.73884 0.67184 0.0
H4520 H 0.16898 0.80366 0.69778 0.0
H4521 H 0.18527 0.82939 0.72294 0.0
H4522 H 0.13592 0.82282 0.75569 0.0
H4523 H 0.11943 0.7968 0.73089 0.0
C4524 C 0.07193 0.78105 0.63424 0.0
C4525 C 0.05552 0.78184 0.64428 0.0
C4526 C 0.08849 0.77811 0.64389 0.0
C4527 C 0.0891 0.77592 0.66382 0.0
C4528 C 0.07303 0.77746 0.6741 0.0
C4529 C 0.05635 0.78027 0.66441 0.0
C4530 C 0.10643 0.77156 0.67369 0.0
C4531 C 0.11588 0.78514 0.68878 0.0
C4532 C 0.1142 0.75466 0.66752 0.0
C4533 C 0.10444 0.73932 0.65222 0.0
C4534 C 0.08576 0.72988 0.654 0.0
C4535 C 0.07659 0.71557 0.63946 0.0
C4536 C 0.08601 0.71045 0.62315 0.0
C4537 C 0.10464 0.71961 0.62135 0.0
C4538 C 0.11386 0.73396 0.63583 0.0
C4539 C 0.17724 0.75845 0.73021 0.0
C4540 C 0.19295 0.75683 0.71936 0.0
C4541 C 0.16017 0.76064 0.72106 0.0
C4542 C 0.1585 0.76143 0.7009 0.0
C4543 C 0.17393 0.75884 0.68992 0.0
C4544 C 0.19104 0.75661 0.69908 0.0
C4545 C 0.14086 0.76556 0.69143 0.0
C4546 C 0.13135 0.75196 0.67637 0.0
C4547 C 0.1331 0.78251 0.69757 0.0
C4548 C 0.14302 0.79813 0.71255 0.0
C4549 C 0.16165 0.80757 0.71043 0.0
C4550 C 0.17091 0.82223 0.72462 0.0
C4551 C 0.16164 0.82771 0.74092 0.0
C4552 C 0.14309 0.81854 0.74307 0.0
C4553 C 0.13378 0.80384 0.72895 0.0
H4554 H 0.16878 0.8391 0.75185 0.0
H4555 H 0.0789 0.69936 0.61192 0.0
H4556 H 0.02958 0.342 0.37961 0.0
H4557 H 0.02475 0.37474 0.39354 0.0
H4558 H 0.03315 0.35722 0.45115 0.0
H4559 H 0.03742 0.32455 0.43739 0.0
H4560 H 0.00376 0.37448 0.44948 0.0
H4561 H 0.06747 0.38878 0.42872 0.0
H4562 H 0.092 0.39025 0.40504 0.0
H4563 H 0.06368 0.42764 0.37201 0.0
H4564 H 0.03884 0.42616 0.39537 0.0
H4565 H 0.0294 0.46226 0.51143 0.0
H4566 H 0.03232 0.43282 0.49004 0.0
H4567 H 0.00809 0.45742 0.44175 0.0
H4568 H 0.00472 0.48684 0.46325 0.0
H4569 H 0.04207 0.43819 0.4347 0.0
H4570 H 0.9798 0.42595 0.45747 0.0
H4571 H 0.95658 0.42566 0.48245 0.0
H4572 H 0.98323 0.3848 0.51248 0.0
H4573 H 0.0068 0.38509 0.48781 0.0
C4574 C 0.03048 0.34523 0.39523 0.0
C4575 C 0.03389 0.33075 0.40742 0.0
C4576 C 0.02776 0.36393 0.40317 0.0
C4577 C 0.02869 0.3685 0.42341 0.0
C4578 C 0.03226 0.35404 0.43551 0.0
C4579 C 0.03478 0.33538 0.42762 0.0
C4580 C 0.02568 0.38811 0.43229 0.0
C4581 C 0.01222 0.38837 0.44626 0.0
C4582 C 0.03629 0.40634 0.42773 0.0
C4583 C 0.05118 0.40715 0.41365 0.0
C4584 C 0.06639 0.39716 0.41631 0.0
C4585 C 0.08036 0.39802 0.40296 0.0
C4586 C 0.07937 0.40897 0.38699 0.0
C4587 C 0.06441 0.41912 0.38436 0.0
C4588 C 0.05038 0.41828 0.39765 0.0
C4589 C 0.02483 0.46149 0.49623 0.0
C4590 C 0.01674 0.47675 0.48899 0.0
C4591 C 0.02652 0.44469 0.48405 0.0
C4592 C 0.02034 0.44298 0.46439 0.0
C4593 C 0.01296 0.45855 0.45689 0.0
C4594 C 0.01102 0.47528 0.46917 0.0
C4595 C 0.02064 0.4243 0.45215 0.0
C4596 C 0.03347 0.42426 0.4376 0.0
C4597 C 0.00953 0.40622 0.4562 0.0
C4598 C 0.99516 0.40567 0.47086 0.0
C4599 C 0.98079 0.41701 0.46947 0.0
C4600 C 0.96755 0.41684 0.48356 0.0
C4601 C 0.96846 0.40526 0.49907 0.0
C4602 C 0.98256 0.39378 0.50046 0.0
C4603 C 0.99585 0.39392 0.48641 0.0
H4604 H 0.95821 0.40517 0.50998 0.0
H4605 H 0.09021 0.40963 0.37668 0.0
H4606 H 0.4646 0.25835 0.18933 0.0
H4607 H 0.43722 0.25806 0.20923 0.0
H4608 H 0.41096 0.28896 0.16716 0.0
H4609 H 0.43784 0.28878 0.14701 0.0
H4610 H 0.41359 0.305 0.2103 0.0
H4611 H 0.3939 0.24578 0.16438 0.0
H4612 H 0.39798 0.21325 0.14876 0.0
H4613 H 0.39895 0.19015 0.20433 0.0
H4614 H 0.39517 0.22268 0.2203 0.0
H4615 H 0.31877 0.30223 0.23055 0.0
H4616 H 0.34949 0.302 0.21755 0.0
H4617 H 0.35539 0.25069 0.24762 0.0
H4618 H 0.32403 0.25023 0.25974 0.0
H4619 H 0.36586 0.2442 0.21421 0.0
H4620 H 0.38246 0.30016 0.26076 0.0
H4621 H 0.38022 0.33223 0.27868 0.0
H4622 H 0.38778 0.36121 0.22643 0.0
H4623 H 0.38981 0.32926 0.20813 0.0
C4624 C 0.45293 0.26498 0.18432 0.0
C4625 C 0.45331 0.27351 0.16658 0.0
C4626 C 0.43735 0.26482 0.19568 0.0
C4627 C 0.42214 0.27354 0.18965 0.0
C4628 C 0.42259 0.2822 0.17206 0.0
C4629 C 0.43791 0.28197 0.16052 0.0
C4630 C 0.40563 0.2737 0.20153 0.0
C4631 C 0.40305 0.29178 0.21113 0.0
C4632 C 0.39235 0.25628 0.20318 0.0
C4633 C 0.39452 0.23673 0.19355 0.0
C4634 C 0.39519 0.23383 0.17328 0.0
C4635 C 0.3974 0.21538 0.16436 0.0
C4636 C 0.3988 0.19966 0.17555 0.0
C4637 C 0.39792 0.20235 0.19568 0.0
C4638 C 0.39574 0.22079 0.20467 0.0
C4639 C 0.32675 0.29111 0.23468 0.0
C4640 C 0.31901 0.27631 0.24626 0.0
C4641 C 0.34442 0.29103 0.22729 0.0
C4642 C 0.35507 0.27652 0.23179 0.0
C4643 C 0.34754 0.26206 0.24386 0.0
C4644 C 0.32965 0.26186 0.25089 0.0
C4645 C 0.37341 0.27572 0.22289 0.0
C4646 C 0.37641 0.25749 0.21377 0.0
C4647 C 0.38732 0.29297 0.2221 0.0
C4648 C 0.38615 0.31226 0.23304 0.0
C4649 C 0.38352 0.31334 0.25306 0.0
C4650 C 0.3823 0.33151 0.26329 0.0
C4651 C 0.38382 0.34874 0.25369 0.0
C4652 C 0.38659 0.34785 0.23385 0.0
C4653 C 0.38781 0.32972 0.22354 0.0
H4654 H 0.38287 0.36279 0.26164 0.0
H4655 H 0.4005 0.18538 0.16862 0.0
H4656 H 0.63902 0.49977 0.35043 0.0
H4657 H 0.62163 0.49993 0.3801 0.0
H4658 H 0.57393 0.51403 0.34796 0.0
H4659 H 0.59107 0.5139 0.31851 0.0
H4660 H 0.58071 0.53628 0.38261 0.0
H4661 H 0.57462 0.4668 0.35862 0.0
H4662 H 0.58683 0.4364 0.34833 0.0
H4663 H 0.61538 0.43882 0.40448 0.0
H4664 H 0.60351 0.46939 0.41501 0.0
H4665 H 0.50912 0.48323 0.44865 0.0
H4666 H 0.52945 0.48128 0.42128 0.0
H4667 H 0.5705 0.52937 0.45035 0.0
H4668 H 0.55034 0.53155 0.47738 0.0
H4669 H 0.56715 0.47574 0.41753 0.0
H4670 H 0.58637 0.56054 0.41623 0.0
H4671 H 0.57376 0.5906 0.42697 0.0
H4672 H 0.51748 0.5569 0.42067 0.0
H4673 H 0.5297 0.52674 0.40953 0.0
C4674 C 0.62487 0.50303 0.34976 0.0
C4675 C 0.61643 0.50679 0.33209 0.0
C4676 C 0.61492 0.50304 0.36669 0.0
C4677 C 0.59639 0.50686 0.36625 0.0
C4678 C 0.58818 0.51106 0.34871 0.0
C4679 C 0.59803 0.51093 0.33184 0.0
C4680 C 0.58524 0.50619 0.38383 0.0
C4681 C 0.57784 0.52306 0.39028 0.0
C4682 C 0.58132 0.48892 0.39381 0.0
C4683 C 0.58833 0.47048 0.38753 0.0
C4684 C 0.58361 0.46092 0.36872 0.0
C4685 C 0.59045 0.44365 0.36285 0.0
C4686 C 0.60191 0.43571 0.37573 0.0
C4687 C 0.60651 0.445 0.39451 0.0
C4688 C 0.59972 0.46229 0.40044 0.0
C4689 C 0.52258 0.4932 0.44926 0.0
C4690 C 0.52807 0.5076 0.46511 0.0
C4691 C 0.5342 0.49204 0.43367 0.0
C4692 C 0.5514 0.50535 0.43368 0.0
C4693 C 0.55722 0.51911 0.44991 0.0
C4694 C 0.54567 0.52027 0.46541 0.0
C4695 C 0.56273 0.50583 0.41629 0.0
C4696 C 0.57014 0.48897 0.40991 0.0
C4697 C 0.56663 0.52311 0.40631 0.0
C4698 C 0.559 0.54133 0.41221 0.0
C4699 C 0.57129 0.55958 0.41699 0.0
C4700 C 0.56421 0.57663 0.42317 0.0
C4701 C 0.54484 0.57565 0.42455 0.0
C4702 C 0.53249 0.55763 0.41964 0.0
C4703 C 0.53948 0.54055 0.41338 0.0
H4704 H 0.53941 0.58885 0.42938 0.0
H4705 H 0.6072 0.42234 0.37116 0.0
H4706 H 0.25162 0.89716 0.06027 0.0
H4707 H 0.25238 0.89098 0.09465 0.0
H4708 H 0.21688 0.83368 0.07991 0.0
H4709 H 0.21644 0.83953 0.04563 0.0
H4710 H 0.21012 0.85625 0.11722 0.0
H4711 H 0.25946 0.83251 0.07965 0.0
H4712 H 0.28598 0.83826 0.05845 0.0
H4713 H 0.316 0.88355 0.10086 0.0
H4714 H 0.28948 0.87824 0.12218 0.0
H4715 H 0.22963 0.79135 0.18665 0.0
H4716 H 0.22322 0.80757 0.15752 0.0
H4717 H 0.27306 0.85223 0.17257 0.0
H4718 H 0.27991 0.83557 0.201 0.0
H4719 H 0.27264 0.84118 0.13691 0.0
H4720 H 0.227 0.85998 0.17808 0.0
H4721 H 0.20066 0.85599 0.19958 0.0
H4722 H 0.16371 0.82441 0.15237 0.0
H4723 H 0.18994 0.82734 0.13088 0.0
C4724 C 0.24359 0.8835 0.06448 0.0
C4725 C 0.23419 0.86869 0.05038 0.0
C4726 C 0.244 0.88002 0.08405 0.0
C4727 C 0.23473 0.86186 0.08968 0.0
C4728 C 0.22404 0.8478 0.0758 0.0
C4729 C 0.22393 0.85109 0.05625 0.0
C4730 C 0.23848 0.85603 0.10925 0.0
C4731 C 0.22373 0.8529 0.12168 0.0
C4732 C 0.2564 0.85223 0.11503 0.0
C4733 C 0.27243 0.85514 0.10238 0.0
C4734 C 0.27166 0.84379 0.08437 0.0
C4735 C 0.28669 0.84696 0.07235 0.0
C4736 C 0.30264 0.86131 0.07827 0.0
C4737 C 0.30362 0.87247 0.09627 0.0
C4738 C 0.2886 0.86938 0.10833 0.0
C4739 C 0.2392 0.80458 0.18361 0.0
C4740 C 0.25532 0.81215 0.19588 0.0
C4741 C 0.23545 0.81396 0.16712 0.0
C4742 C 0.24755 0.83129 0.16297 0.0
C4743 C 0.26355 0.83888 0.17541 0.0
C4744 C 0.26746 0.82934 0.19165 0.0
C4745 C 0.24415 0.84102 0.14518 0.0
C4746 C 0.25903 0.84481 0.1329 0.0
C4747 C 0.22639 0.84573 0.1398 0.0
C4748 C 0.21055 0.84372 0.15286 0.0
C4749 C 0.21332 0.85192 0.17234 0.0
C4750 C 0.19839 0.84983 0.18457 0.0
C4751 C 0.18051 0.83991 0.17741 0.0
C4752 C 0.17754 0.83207 0.15799 0.0
C4753 C 0.19247 0.83384 0.14579 0.0
H4754 H 0.16898 0.83834 0.18691 0.0
H4755 H 0.31426 0.86374 0.06894 0.0
H4756 H 0.94725 0.57847 0.82209 0.0
H4757 H 0.9646 0.58012 0.85357 0.0
H4758 H 0.91863 0.53882 0.87313 0.0
H4759 H 0.90075 0.53865 0.84229 0.0
H4760 H 0.93043 0.56255 0.90105 0.0
H4761 H 0.9627 0.5263 0.85596 0.0
H4762 H 0.97945 0.51994 0.82652 0.0
H4763 H 0.02319 0.56978 0.84547 0.0
H4764 H 0.00655 0.57659 0.87492 0.0
H4765 H 0.97921 0.52282 0.97465 0.0
H4766 H 0.96222 0.52918 0.94545 0.0
H4767 H 0.00723 0.57733 0.93666 0.0
H4768 H 0.02483 0.57035 0.96571 0.0
H4769 H 0.99711 0.55362 0.90399 0.0
H4770 H 0.96037 0.58485 0.95265 0.0
H4771 H 0.94057 0.58473 0.98073 0.0
H4772 H 0.90271 0.53347 0.95327 0.0
H4773 H 0.92214 0.53343 0.92499 0.0
C4774 C 0.94082 0.57007 0.83334 0.0
C4775 C 0.9227 0.55859 0.83002 0.0
C4776 C 0.95081 0.57078 0.8512 0.0
C4777 C 0.94319 0.55922 0.86567 0.0
C4778 C 0.92487 0.54795 0.86232 0.0
C4779 C 0.91462 0.54785 0.84472 0.0
C4780 C 0.95414 0.55873 0.8843 0.0
C4781 C 0.94498 0.56042 0.90158 0.0
C4782 C 0.97321 0.55615 0.8852 0.0
C4783 C 0.98327 0.5521 0.86752 0.0
C4784 C 0.97582 0.53599 0.85378 0.0
C4785 C 0.9853 0.53229 0.8371 0.0
C4786 C 0.00235 0.54449 0.8341 0.0
C4787 C 0.00997 0.56037 0.8478 0.0
C4788 C 1.00052 0.56416 0.86449 0.0
C4789 C 0.98544 0.53493 0.96665 0.0
C4790 C 0.00336 0.5461 0.97243 0.0
C4791 C 0.9756 0.53867 0.95 0.0
C4792 C 0.98323 0.55401 0.939 0.0
C4793 C 1.001 0.5655 0.94499 0.0
C4794 C 0.01101 0.56156 0.96158 0.0
C4795 C 0.97322 0.55706 0.9206 0.0
C4796 C 0.98263 0.55597 0.90337 0.0
C4797 C 0.95405 0.5591 0.91958 0.0
C4798 C 0.94272 0.55911 0.9368 0.0
C4799 C 0.94788 0.57352 0.95268 0.0
C4800 C 0.93669 0.57348 0.9686 0.0
C4801 C 0.92045 0.55901 0.96878 0.0
C4802 C 0.9153 0.54463 0.95308 0.0
C4803 C 0.92632 0.54469 0.93709 0.0
H4804 H 0.91175 0.55887 0.98098 0.0
H4805 H 0.00967 0.5416 0.82118 0.0
H4806 H 0.28845 0.20804 0.54841 0.0
H4807 H 0.28763 0.21664 0.58333 0.0
H4808 H 0.25781 0.15756 0.58944 0.0
H4809 H 0.25912 0.14864 0.55437 0.0
H4810 H 0.24046 0.19184 0.60516 0.0
H4811 H 0.29764 0.16605 0.60926 0.0
H4812 H 0.32951 0.16199 0.60046 0.0
H4813 H 0.35001 0.22412 0.61678 0.0
H4814 H 0.31818 0.22863 0.62539 0.0
H4815 H 0.23996 0.22046 0.70727 0.0
H4816 H 0.24164 0.20213 0.67562 0.0
H4817 H 0.2878 0.24727 0.66271 0.0
H4818 H 0.2868 0.26489 0.69467 0.0
H4819 H 0.29604 0.21406 0.65161 0.0
H4820 H 0.23916 0.24142 0.64245 0.0
H4821 H 0.20741 0.24709 0.65016 0.0
H4822 H 0.18654 0.18418 0.64233 0.0
H4823 H 0.21823 0.17814 0.63473 0.0
C4824 C 0.28212 0.19673 0.55727 0.0
C4825 C 0.27397 0.17764 0.54872 0.0
C4826 C 0.28162 0.20167 0.5772 0.0
C4827 C 0.27261 0.18777 0.58897 0.0
C4828 C 0.26484 0.16849 0.5806 0.0
C4829 C 0.26575 0.16337 0.56064 0.0
C4830 C 0.27046 0.19405 0.6097 0.0
C4831 C 0.25254 0.19632 0.61549 0.0
C4832 C 0.28627 0.20034 0.62297 0.0
C4833 C 0.30546 0.19771 0.61782 0.0
C4834 C 0.30889 0.17889 0.6108 0.0
C4835 C 0.32697 0.1765 0.60588 0.0
C4836 C 0.34177 0.19279 0.60802 0.0
C4837 C 0.33853 0.21151 0.61512 0.0
C4838 C 0.32047 0.21399 0.62004 0.0
C4839 C 0.25031 0.22654 0.69755 0.0
C4840 C 0.26317 0.24419 0.70338 0.0
C4841 C 0.25126 0.21607 0.67941 0.0
C4842 C 0.26473 0.22336 0.6665 0.0
C4843 C 0.27734 0.24118 0.67232 0.0
C4844 C 0.27668 0.25135 0.69057 0.0
C4845 C 0.26604 0.21251 0.64706 0.0
C4846 C 0.28386 0.20938 0.64146 0.0
C4847 C 0.25014 0.2057 0.63386 0.0
C4848 C 0.23108 0.20932 0.63822 0.0
C4849 C 0.22781 0.2288 0.64247 0.0
C4850 C 0.20983 0.23208 0.6468 0.0
C4851 C 0.19498 0.216 0.64679 0.0
C4852 C 0.19806 0.19661 0.64236 0.0
C4853 C 0.21602 0.19325 0.63802 0.0
H4854 H 0.18107 0.21857 0.65016 0.0
H4855 H 0.35575 0.19091 0.60421 0.0
H4856 H 0.63525 0.50169 0.2197 0.0
H4857 H 0.62783 0.50322 0.18486 0.0
H4858 H 0.5782 0.52732 0.19858 0.0
H4859 H 0.58496 0.52526 0.23263 0.0
H4860 H 0.5699 0.50086 0.16891 0.0
H4861 H 0.62354 0.55508 0.18878 0.0
H4862 H 0.65667 0.56719 0.20038 0.0
H4863 H 0.67514 0.53493 0.1513 0.0
H4864 H 0.64207 0.52202 0.1397 0.0
H4865 H 0.54142 0.55369 0.09592 0.0
H4866 H 0.55657 0.54725 0.12646 0.0
H4867 H 0.59818 0.52203 0.0949 0.0
H4868 H 0.58314 0.52857 0.06427 0.0
H4869 H 0.61355 0.5429 0.12978 0.0
H4870 H 0.56267 0.49118 0.10776 0.0
H4871 H 0.53045 0.47633 0.09481 0.0
H4872 H 0.50795 0.50065 0.14593 0.0
H4873 H 0.54005 0.51594 0.15906 0.0
C4874 C 0.62268 0.50713 0.21521 0.0
C4875 C 0.61079 0.51336 0.22912 0.0
C4876 C 0.6185 0.5081 0.1953 0.0
C4877 C 0.6025 0.51558 0.18902 0.0
C4878 C 0.59057 0.52142 0.20291 0.0
C4879 C 0.59457 0.52027 0.22255 0.0
C4880 C 0.59786 0.51796 0.16823 0.0
C4881 C 0.57947 0.51013 0.16044 0.0
C4882 C 0.61053 0.52928 0.15666 0.0
C4883 C 0.63034 0.5374 0.16351 0.0
C4884 C 0.63466 0.55046 0.18053 0.0
C4885 C 0.65343 0.55748 0.1871 0.0
C4886 C 0.66801 0.5519 0.17659 0.0
C4887 C 0.66384 0.53924 0.15945 0.0
C4888 C 0.64509 0.53201 0.1529 0.0
C4889 C 0.55409 0.54728 0.09551 0.0
C4890 C 0.56102 0.54152 0.07771 0.0
C4891 C 0.56267 0.54347 0.11296 0.0
C4892 C 0.57829 0.53379 0.11294 0.0
C4893 C 0.5861 0.52941 0.09527 0.0
C4894 C 0.57749 0.53318 0.07778 0.0
C4895 C 0.58532 0.52682 0.13117 0.0
C4896 C 0.60409 0.53353 0.13826 0.0
C4897 C 0.57313 0.51418 0.14203 0.0
C4898 C 0.55377 0.50484 0.13433 0.0
C4899 C 0.55084 0.49349 0.11619 0.0
C4900 C 0.5326 0.48497 0.10881 0.0
C4901 C 0.51715 0.48757 0.11952 0.0
C4902 C 0.51993 0.49866 0.13764 0.0
C4903 C 0.53815 0.50724 0.14507 0.0
H4904 H 0.50303 0.48096 0.11379 0.0
H4905 H 0.68253 0.55739 0.18172 0.0
H4906 H 0.24038 0.88834 0.93148 0.0
H4907 H 0.24319 0.86722 0.90183 0.0
H4908 H 0.22405 0.81492 0.93091 0.0
H4909 H 0.22189 0.83593 0.9607 0.0
H4910 H 0.253 0.80957 0.91218 0.0
H4911 H 0.19589 0.8321 0.8961 0.0
H4912 H 0.17465 0.85602 0.89158 0.0
H4913 H 0.20965 0.8823 0.8489 0.0
H4914 H 0.23134 0.85878 0.85343 0.0
H4915 H 0.23469 0.75078 0.81522 0.0
H4916 H 0.2303 0.76557 0.84802 0.0
H4917 H 0.26854 0.8189 0.83801 0.0
H4918 H 0.27324 0.80434 0.80577 0.0
H4919 H 0.22699 0.82031 0.84726 0.0
H4920 H 0.28572 0.79972 0.86707 0.0
H4921 H 0.30596 0.77474 0.87104 0.0
H4922 H 0.26552 0.74337 0.90609 0.0
H4923 H 0.24489 0.76804 0.90205 0.0
C4924 C 0.23661 0.87235 0.93145 0.0
C4925 C 0.23093 0.86375 0.94834 0.0
C4926 C 0.23814 0.86029 0.9145 0.0
C4927 C 0.23363 0.83946 0.91408 0.0
C4928 C 0.22764 0.83092 0.93089 0.0
C4929 C 0.22636 0.84295 0.94788 0.0
C4930 C 0.23596 0.82656 0.8964 0.0
C4931 C 0.247 0.81173 0.89805 0.0
C4932 C 0.22829 0.82944 0.87791 0.0
C4933 C 0.21537 0.84377 0.87526 0.0
C4934 C 0.19918 0.8431 0.88589 0.0
C4935 C 0.18704 0.85658 0.88331 0.0
C4936 C 0.19084 0.87071 0.87001 0.0
C4937 C 0.20676 0.87137 0.85923 0.0
C4938 C 0.21899 0.85797 0.86181 0.0
C4939 C 0.24256 0.7654 0.8203 0.0
C4940 C 0.25422 0.77646 0.80797 0.0
C4941 C 0.24 0.77382 0.83893 0.0
C4942 C 0.24902 0.79333 0.84519 0.0
C4943 C 0.26147 0.80384 0.83332 0.0
C4944 C 0.26419 0.79543 0.81495 0.0
C4945 C 0.24417 0.80378 0.86318 0.0
C4946 C 0.23267 0.81809 0.86152 0.0
C4947 C 0.25127 0.80036 0.88161 0.0
C4948 C 0.26364 0.78554 0.88401 0.0
C4949 C 0.28103 0.78736 0.87541 0.0
C4950 C 0.29261 0.77329 0.87773 0.0
C4951 C 0.287 0.75742 0.88874 0.0
C4952 C 0.26982 0.75563 0.89751 0.0
C4953 C 0.25819 0.76966 0.89522 0.0
H4954 H 0.29598 0.74656 0.89053 0.0
H4955 H 0.18141 0.88111 0.86804 0.0
H4956 H 0.94459 0.50435 0.73607 0.0
H4957 H 0.95352 0.50094 0.70265 0.0
H4958 H 0.91507 0.53908 0.68639 0.0
H4959 H 0.90571 0.54229 0.71995 0.0
H4960 H 0.91702 0.50852 0.65726 0.0
H4961 H 0.9592 0.55963 0.69775 0.0
H4962 H 0.98 0.57315 0.72683 0.0
H4963 H 0.01575 0.53064 0.71341 0.0
H4964 H 0.99501 0.51668 0.68438 0.0
H4965 H 0.9944 0.55195 0.59033 0.0
H4966 H 0.97958 0.55199 0.62131 0.0
H4967 H 0.95904 0.48885 0.6101 0.0
H4968 H 0.97362 0.48881 0.57886 0.0
H4969 H 0.9853 0.53353 0.65247 0.0
H4970 H 0.91632 0.47792 0.6297 0.0
H4971 H 0.89575 0.46606 0.60005 0.0
H4972 H 0.91327 0.52193 0.57694 0.0
H4973 H 0.93373 0.53422 0.60654 0.0
C4974 C 0.9378 0.51179 0.72535 0.0
C4975 C 0.9247 0.52389 0.73068 0.0
C4976 C 0.94289 0.50978 0.70626 0.0
C4977 C 0.93522 0.52008 0.69219 0.0
C4978 C 0.92117 0.53107 0.6971 0.0
C4979 C 0.91589 0.53293 0.71625 0.0
C4980 C 0.94342 0.521 0.67308 0.0
C4981 C 0.93193 0.51397 0.65615 0.0
C4982 C 0.96282 0.52846 0.67169 0.0
C4983 C 0.97547 0.53702 0.68898 0.0
C4984 C 0.97144 0.5531 0.70106 0.0
C4985 C 0.98322 0.56084 0.71753 0.0
C4986 C 0.99917 0.55274 0.72199 0.0
C4987 C 0.00339 0.5369 0.70995 0.0
C4988 C 0.99164 0.52907 0.69348 0.0
C4989 C 0.98679 0.53807 0.59453 0.0
C4990 C 0.98513 0.52037 0.5823 0.0
C4991 C 0.97834 0.53812 0.6122 0.0
C4992 C 0.96805 0.52048 0.61788 0.0
C4993 C 0.96667 0.50268 0.60582 0.0
C4994 C 0.9751 0.50264 0.58809 0.0
C4995 C 0.95901 0.52077 0.63658 0.0
C4996 C 0.97038 0.52805 0.65349 0.0
C4997 C 0.93948 0.51389 0.63784 0.0
C4998 C 0.92668 0.50691 0.62028 0.0
C4999 C 0.91568 0.48772 0.61835 0.0
C5000 C 0.90406 0.48091 0.60153 0.0
C5001 C 0.90324 0.49322 0.5866 0.0
C5002 C 0.91396 0.5124 0.58849 0.0
C5003 C 0.92558 0.51928 0.60528 0.0
H5004 H 0.89429 0.48789 0.57357 0.0
H5005 H 0.00826 0.55875 0.73475 0.0
H5006 H 0.28119 0.20228 0.45924 0.0
H5007 H 0.28033 0.21958 0.43005 0.0
H5008 H 0.26221 0.16341 0.39551 0.0
H5009 H 0.26409 0.14594 0.42474 0.0
H5010 H 0.28572 0.1847 0.37645 0.0
H5011 H 0.2316 0.19835 0.40815 0.0
H5012 H 0.21345 0.20926 0.43503 0.0
H5013 H 0.24653 0.26803 0.43831 0.0
H5014 H 0.26506 0.25741 0.41161 0.0
H5015 H 0.25094 0.232 0.29578 0.0
H5016 H 0.25223 0.21286 0.32391 0.0
H5017 H 0.28944 0.26258 0.35543 0.0
H5018 H 0.28897 0.28145 0.32697 0.0
H5019 H 0.25516 0.24393 0.37494 0.0
H5020 H 0.30912 0.22853 0.34233 0.0
H5021 H 0.3257 0.21653 0.31467 0.0
H5022 H 0.28991 0.15925 0.31199 0.0
H5023 H 0.2728 0.17106 0.33938 0.0
C5024 C 0.27695 0.19359 0.44544 0.0
C5025 C 0.2726 0.17273 0.44434 0.0
C5026 C 0.27633 0.20354 0.4287 0.0
C5027 C 0.27078 0.19295 0.41044 0.0
C5028 C 0.26649 0.17204 0.40933 0.0
C5029 C 0.26749 0.16203 0.42607 0.0
C5030 C 0.26985 0.20369 0.39258 0.0
C5031 C 0.27874 0.19743 0.3761 0.0
C5032 C 0.26098 0.22055 0.39196 0.0
C5033 C 0.24982 0.22703 0.40798 0.0
C5034 C 0.23509 0.21357 0.41469 0.0
C5035 C 0.22472 0.2197 0.42988 0.0
C5036 C 0.22886 0.23931 0.4384 0.0
C5037 C 0.24335 0.25284 0.43171 0.0
C5038 C 0.25378 0.24677 0.41653 0.0
C5039 C 0.25974 0.23869 0.30852 0.0
C5040 C 0.27011 0.25813 0.309 0.0
C5041 C 0.26034 0.22779 0.32465 0.0
C5042 C 0.27097 0.23627 0.34175 0.0
C5043 C 0.28117 0.25574 0.34236 0.0
C5044 C 0.28091 0.26649 0.32608 0.0
C5045 C 0.27111 0.22497 0.35913 0.0
C5046 C 0.26203 0.23111 0.37541 0.0
C5047 C 0.27946 0.20782 0.35942 0.0
C5048 C 0.28952 0.20077 0.34276 0.0
C5049 C 0.30459 0.21347 0.33567 0.0
C5050 C 0.31411 0.20669 0.32007 0.0
C5051 C 0.30881 0.18717 0.31154 0.0
C5052 C 0.29395 0.1744 0.31857 0.0
C5053 C 0.28433 0.18113 0.33413 0.0
H5054 H 0.31631 0.18195 0.29959 0.0
H5055 H 0.22082 0.24403 0.45017 0.0
H5056 H 0.33722 0.63904 0.51485 0.0
H5057 H 0.36248 0.6197 0.51696 0.0
H5058 H 0.32515 0.57346 0.54146 0.0
H5059 H 0.29976 0.59274 0.53946 0.0
H5060 H 0.36283 0.57957 0.55759 0.0
H5061 H 0.32843 0.56775 0.49547 0.0
H5062 H 0.31407 0.57779 0.46579 0.0
H5063 H 0.36849 0.60642 0.45073 0.0
H5064 H 0.38314 0.59683 0.4805 0.0
H5065 H 0.42316 0.51449 0.49501 0.0
H5066 H 0.3935 0.52668 0.50023 0.0
H5067 H 0.42322 0.57385 0.54146 0.0
H5068 H 0.4524 0.56162 0.5367 0.0
H5069 H 0.38513 0.56149 0.49288 0.0
H5070 H 0.39625 0.58742 0.57551 0.0
H5071 H 0.41014 0.57662 0.60506 0.0
H5072 H 0.40082 0.51645 0.57876 0.0
H5073 H 0.38657 0.52678 0.54918 0.0
C5074 C 0.33449 0.62499 0.52112 0.0
C5075 C 0.31644 0.61729 0.52676 0.0
C5076 C 0.34892 0.61393 0.52226 0.0
C5077 C 0.34553 0.59503 0.52905 0.0
C5078 C 0.32798 0.58799 0.53611 0.0
C5079 C 0.3135 0.59901 0.53491 0.0
C5080 C 0.35967 0.58191 0.52689 0.0
C5081 C 0.36771 0.57553 0.54348 0.0
C5082 C 0.36557 0.5762 0.50839 0.0
C5083 C 0.35685 0.5817 0.49029 0.0
C5084 C 0.33732 0.57629 0.48589 0.0
C5085 C 0.32913 0.58189 0.46905 0.0
C5086 C 0.34036 0.59277 0.4564 0.0
C5087 C 0.35981 0.59801 0.46055 0.0
C5088 C 0.36806 0.59248 0.47739 0.0
C5089 C 0.4232 0.52729 0.50533 0.0
C5090 C 0.44 0.53715 0.51539 0.0
C5091 C 0.40633 0.53424 0.5083 0.0
C5092 C 0.40613 0.55102 0.52145 0.0
C5093 C 0.42293 0.56065 0.5316 0.0
C5094 C 0.43965 0.55372 0.5287 0.0
C5095 C 0.38882 0.5596 0.52364 0.0
C5096 C 0.38013 0.56521 0.50701 0.0
C5097 C 0.38223 0.56436 0.5421 0.0
C5098 C 0.39035 0.55791 0.56008 0.0
C5099 C 0.39699 0.57185 0.57608 0.0
C5100 C 0.40495 0.56581 0.59284 0.0
C5101 C 0.40633 0.54586 0.59378 0.0
C5102 C 0.39975 0.5319 0.57799 0.0
C5103 C 0.39173 0.53784 0.56123 0.0
H5104 H 0.41245 0.54118 0.60675 0.0
H5105 H 0.33399 0.59711 0.44338 0.0
H5106 H 0.83774 0.8948 0.53188 0.0
H5107 H 0.86863 0.9163 0.53227 0.0
H5108 H 0.84214 0.96428 0.51531 0.0
H5109 H 0.81095 0.94295 0.51542 0.0
H5110 H 0.87724 0.95054 0.49282 0.0
H5111 H 0.85547 0.9744 0.55469 0.0
H5112 H 0.84202 0.96929 0.5863 0.0
H5113 H 0.88714 0.93968 0.60281 0.0
H5114 H 0.90069 0.94434 0.57115 0.0
H5115 H 0.96168 0.02477 0.50573 0.0
H5116 H 0.92911 0.00642 0.50326 0.0
H5117 H 0.94435 0.9684 0.54541 0.0
H5118 H 0.97669 0.98675 0.54803 0.0
H5119 H 0.91342 0.97862 0.55454 0.0
H5120 H 0.93594 0.9531 0.49625 0.0
H5121 H 0.94966 0.952 0.46437 0.0
H5122 H 0.90512 0.97833 0.44046 0.0
H5123 H 0.8913 0.97998 0.47234 0.0
C5124 C 0.83843 0.90996 0.52832 0.0
C5125 C 0.82185 0.91717 0.52366 0.0
C5126 C 0.85611 0.9222 0.52852 0.0
C5127 C 0.85767 0.94183 0.52373 0.0
C5128 C 0.84121 0.94914 0.519 0.0
C5129 C 0.82342 0.937 0.51921 0.0
C5130 C 0.8766 0.95455 0.52386 0.0
C5131 C 0.88507 0.95714 0.50623 0.0
C5132 C 0.88704 0.96226 0.54143 0.0
C5133 C 0.87897 0.95954 0.56048 0.0
C5134 C 0.86241 0.96662 0.56498 0.0
C5135 C 0.85479 0.96384 0.58292 0.0
C5136 C 0.86369 0.95411 0.59653 0.0
C5137 C 0.88025 0.94719 0.59225 0.0
C5138 C 0.88791 0.9499 0.57431 0.0
C5139 C 0.95807 0.01232 0.51426 0.0
C5140 C 0.97172 0.00711 0.52698 0.0
C5141 C 0.93945 0.00184 0.51286 0.0
C5142 C 0.93419 0.98587 0.52409 0.0
C5143 C 0.94795 0.98068 0.5367 0.0
C5144 C 0.96645 0.99119 0.53818 0.0
C5145 C 0.91431 0.97495 0.52338 0.0
C5146 C 0.90563 0.97247 0.54098 0.0
C5147 C 0.90391 0.9669 0.50574 0.0
C5148 C 0.91268 0.96687 0.48678 0.0
C5149 C 0.9292 0.95893 0.48429 0.0
C5150 C 0.93695 0.95812 0.46619 0.0
C5151 C 0.9282 0.96497 0.45039 0.0
C5152 C 0.91182 0.97293 0.45271 0.0
C5153 C 0.90405 0.97385 0.4708 0.0
H5154 H 0.93414 0.96418 0.43636 0.0
H5155 H 0.85778 0.95199 0.61042 0.0
H5156 H 0.88341 0.11037 0.25625 0.0
H5157 H 0.86616 0.13798 0.2583 0.0
H5158 H 0.81566 0.09852 0.2343 0.0
H5159 H 0.83294 0.07069 0.23207 0.0
H5160 H 0.82005 0.13596 0.21977 0.0
H5161 H 0.82209 0.10998 0.28225 0.0
H5162 H 0.83775 0.0997 0.31106 0.0
H5163 H 0.86955 0.15884 0.32376 0.0
H5164 H 0.85429 0.16941 0.29485 0.0
H5165 H 0.75849 0.20234 0.24834 0.0
H5166 H 0.77317 0.17281 0.2443 0.0
H5167 H 0.82417 0.20564 0.27456 0.0
H5168 H 0.80953 0.23496 0.27916 0.0
H5169 H 0.81811 0.17026 0.2855 0.0
H5170 H 0.81859 0.19691 0.22402 0.0
H5171 H 0.80458 0.20899 0.19522 0.0
H5172 H 0.77053 0.15132 0.18018 0.0
H5173 H 0.7841 0.13897 0.20907 0.0
C5174 C 0.86869 0.10754 0.25119 0.0
C5175 C 0.85955 0.08824 0.24412 0.0
C5176 C 0.85881 0.12338 0.25243 0.0
C5177 C 0.83951 0.12032 0.24674 0.0
C5178 C 0.83052 0.10126 0.23884 0.0
C5179 C 0.84042 0.08535 0.2376 0.0
C5180 C 0.82863 0.13679 0.25005 0.0
C5181 C 0.81938 0.14328 0.23417 0.0
C5182 C 0.82812 0.14673 0.26877 0.0
C5183 C 0.83718 0.14042 0.28626 0.0
C5184 C 0.83253 0.12075 0.2911 0.0
C5185 C 0.84132 0.11488 0.30746 0.0
C5186 C 0.85468 0.1286 0.3192 0.0
C5187 C 0.85922 0.14823 0.31464 0.0
C5188 C 0.8505 0.15417 0.29827 0.0
C5189 C 0.77275 0.20322 0.25439 0.0
C5190 C 0.7828 0.22113 0.26403 0.0
C5191 C 0.7812 0.18634 0.2519 0.0
C5192 C 0.79997 0.18705 0.25879 0.0
C5193 C 0.80974 0.20469 0.26904 0.0
C5194 C 0.80129 0.2215 0.27165 0.0
C5195 C 0.80961 0.16962 0.25522 0.0
C5196 C 0.81866 0.16293 0.27108 0.0
C5197 C 0.81019 0.15978 0.23644 0.0
C5198 C 0.80223 0.16706 0.21884 0.0
C5199 C 0.80802 0.18683 0.21464 0.0
C5200 C 0.80017 0.19373 0.1983 0.0
C5201 C 0.78664 0.18095 0.18591 0.0
C5202 C 0.78099 0.16121 0.1898 0.0
C5203 C 0.78876 0.15425 0.20616 0.0
H5204 H 0.78057 0.18632 0.17327 0.0
H5205 H 0.86147 0.12402 0.33186 0.0
H5206 H 0.7217 0.09668 0.0231 0.0
H5207 H 0.69056 0.07638 0.02475 0.0
H5208 H 0.66455 0.12428 0.00651 0.0
H5209 H 0.69556 0.1448 0.00499 0.0
H5210 H 0.64704 0.10765 0.03622 0.0
H5211 H 0.66821 0.08545 0.9746 0.0
H5212 H 0.69023 0.0724 0.95289 0.0
H5213 H 0.68533 0.01954 0.98256 0.0
H5214 H 0.66346 0.03241 0.00462 0.0
H5215 H 0.56288 0.03727 0.9837 0.0
H5216 H 0.59618 0.05198 0.98501 0.0
H5217 H 0.59993 0.04973 0.04704 0.0
H5218 H 0.56638 0.03537 0.04597 0.0
H5219 H 0.62916 0.04256 0.99667 0.0
H5220 H 0.62845 0.09402 0.06693 0.0
H5221 H 0.60515 0.1071 0.08693 0.0
H5222 H 0.56732 0.10292 0.03649 0.0
H5223 H 0.59069 0.09075 0.01608 0.0
C5224 C 0.70937 0.10295 0.01945 0.0
C5225 C 0.71117 0.12238 0.01385 0.0
C5226 C 0.69159 0.09128 0.02038 0.0
C5227 C 0.67528 0.09879 0.01563 0.0
C5228 C 0.67698 0.11823 0.01027 0.0
C5229 C 0.69474 0.12991 0.00934 0.0
C5230 C 0.65638 0.08633 0.01597 0.0
C5231 C 0.64315 0.09337 0.02766 0.0
C5232 C 0.6513 0.06778 0.00468 0.0
C5233 C 0.66436 0.05998 0.99138 0.0
C5234 C 0.67194 0.07111 0.97658 0.0
C5235 C 0.68437 0.06374 0.9642 0.0
C5236 C 0.68922 0.04518 0.96638 0.0
C5237 C 0.68159 0.03392 0.98091 0.0
C5238 C 0.66917 0.04124 0.99335 0.0
C5239 C 0.57077 0.03968 0.99763 0.0
C5240 C 0.56186 0.03546 0.01479 0.0
C5241 C 0.58987 0.04798 0.99832 0.0
C5242 C 0.60045 0.05221 0.01614 0.0
C5243 C 0.59192 0.04684 0.03316 0.0
C5244 C 0.57275 0.03865 0.03252 0.0
C5245 C 0.61983 0.06385 0.01694 0.0
C5246 C 0.63313 0.0567 0.00545 0.0
C5247 C 0.62488 0.08248 0.02815 0.0
C5248 C 0.61123 0.09118 0.04004 0.0
C5249 C 0.61525 0.09615 0.06008 0.0
C5250 C 0.60205 0.10347 0.07148 0.0
C5251 C 0.58475 0.10586 0.063 0.0
C5252 C 0.58075 0.10121 0.04305 0.0
C5253 C 0.59399 0.09416 0.03154 0.0
H5254 H 0.57446 0.11128 0.07189 0.0
H5255 H 0.69884 0.03949 0.95678 0.0
H5256 H 0.1456 0.4467 0.25381 0.0
H5257 H 0.16763 0.4235 0.25432 0.0
H5258 H 0.21055 0.46707 0.23334 0.0
H5259 H 0.18851 0.49044 0.23269 0.0
H5260 H 0.20955 0.42803 0.21602 0.0
H5261 H 0.21259 0.4627 0.27968 0.0
H5262 H 0.19917 0.47568 0.30916 0.0
H5263 H 0.17473 0.41625 0.31992 0.0
H5264 H 0.18778 0.40293 0.29034 0.0
H5265 H 0.26801 0.36513 0.27865 0.0
H5266 H 0.25624 0.39615 0.27432 0.0
H5267 H 0.21636 0.36506 0.22878 0.0
H5268 H 0.22839 0.33467 0.2325 0.0
H5269 H 0.22248 0.4038 0.27983 0.0
H5270 H 0.20464 0.39292 0.1967 0.0
H5271 H 0.21742 0.37835 0.16752 0.0
H5272 H 0.27287 0.39046 0.19597 0.0
H5273 H 0.26049 0.40532 0.22524 0.0
C5274 C 0.15965 0.4513 0.24909 0.0
C5275 C 0.16537 0.47045 0.24337 0.0
C5276 C 0.17223 0.43804 0.24944 0.0
C5277 C 0.19078 0.44371 0.24413 0.0
C5278 C 0.19631 0.46247 0.23755 0.0
C5279 C 0.18371 0.4758 0.23723 0.0
C5280 C 0.20452 0.4303 0.24644 0.0
C5281 C 0.21256 0.42284 0.22997 0.0
C5282 C 0.20869 0.42388 0.26474 0.0
C5283 C 0.2011 0.43183 0.28273 0.0
C5284 C 0.20428 0.4524 0.28828 0.0
C5285 C 0.19674 0.45982 0.30501 0.0
C5286 C 0.18609 0.4468 0.31639 0.0
C5287 C 0.18299 0.42632 0.31109 0.0
C5288 C 0.19048 0.41883 0.29436 0.0
C5289 C 0.25696 0.36513 0.26753 0.0
C5290 C 0.24909 0.34759 0.25592 0.0
C5291 C 0.25024 0.38277 0.26507 0.0
C5292 C 0.23563 0.383 0.25098 0.0
C5293 C 0.22797 0.36544 0.23934 0.0
C5294 C 0.23476 0.348 0.24164 0.0
C5295 C 0.22711 0.40096 0.24931 0.0
C5296 C 0.21993 0.40929 0.26592 0.0
C5297 C 0.22384 0.4082 0.23114 0.0
C5298 C 0.23161 0.40027 0.21319 0.0
C5299 C 0.2196 0.39272 0.19666 0.0
C5300 C 0.22677 0.38435 0.18012 0.0
C5301 C 0.24595 0.3835 0.17989 0.0
C5302 C 0.25801 0.39111 0.19617 0.0
C5303 C 0.25093 0.39951 0.21274 0.0
H5304 H 0.25146 0.37694 0.16711 0.0
H5305 H 0.18025 0.45258 0.32933 0.0
H5306 H 0.23031 0.45713 0.02275 0.0
H5307 H 0.20349 0.4744 0.02219 0.0
H5308 H 0.16731 0.42144 0.03695 0.0
H5309 H 0.19393 0.40374 0.03587 0.0
H5310 H 0.14857 0.43503 0.01309 0.0
H5311 H 0.18464 0.46768 0.0701 0.0
H5312 H 0.21278 0.48584 0.08969 0.0
H5313 H 0.21569 0.53411 0.05384 0.0
H5314 H 0.18769 0.51613 0.0339 0.0
H5315 H 0.09077 0.51529 0.05129 0.0
H5316 H 0.11832 0.4992 0.05471 0.0
H5317 H 0.11523 0.48422 0.99274 0.0
H5318 H 0.08743 0.49988 0.98936 0.0
H5319 H 0.15251 0.50412 0.04288 0.0
H5320 H 0.12753 0.4395 0.98207 0.0
H5321 H 0.09755 0.42023 0.96684 0.0
H5322 H 0.06954 0.433 0.01849 0.0
H5323 H 0.09939 0.45205 0.03415 0.0
C5324 C 0.21666 0.44926 0.02607 0.0
C5325 C 0.21424 0.42913 0.0295 0.0
C5326 C 0.20127 0.4592 0.02588 0.0
C5327 C 0.1832 0.4495 0.02994 0.0
C5328 C 0.18095 0.42941 0.03371 0.0
C5329 C 0.19622 0.41928 0.03324 0.0
C5330 C 0.16658 0.45997 0.02952 0.0
C5331 C 0.14954 0.45011 0.0197 0.0
C5332 C 0.16739 0.47959 0.0384 0.0
C5333 C 0.18416 0.49048 0.05042 0.0
C5334 C 0.19134 0.48212 0.06634 0.0
C5335 C 0.20726 0.49238 0.07751 0.0
C5336 C 0.21604 0.5111 0.07299 0.0
C5337 C 0.20888 0.51961 0.05732 0.0
C5338 C 0.19298 0.5094 0.04609 0.0
C5339 C 0.09611 0.50875 0.03838 0.0
C5340 C 0.08694 0.50884 0.02005 0.0
C5341 C 0.11187 0.49954 0.04035 0.0
C5342 C 0.11878 0.49019 0.02403 0.0
C5343 C 0.11001 0.49096 0.00562 0.0
C5344 C 0.09418 0.50004 0.00367 0.0
C5345 C 0.13482 0.47924 0.02627 0.0
C5346 C 0.15166 0.48901 0.03638 0.0
C5347 C 0.13361 0.45928 0.01834 0.0
C5348 C 0.11568 0.4474 0.00919 0.0
C5349 C 0.115 0.43811 0.99021 0.0
C5350 C 0.09802 0.42723 0.9815 0.0
C5351 C 0.08164 0.42547 0.99166 0.0
C5352 C 0.08222 0.43444 0.01061 0.0
C5353 C 0.09917 0.44529 0.0194 0.0
H5354 H 0.06851 0.41713 0.98484 0.0
H5355 H 0.22836 0.51901 0.08164 0.0
H5356 H 0.89082 0.96636 0.26533 0.0
H5357 H 0.87143 0.93345 0.2632 0.0
H5358 H 0.82829 0.95376 0.22924 0.0
H5359 H 0.84758 0.98724 0.23177 0.0
H5360 H 0.81278 0.9304 0.25519 0.0
H5361 H 0.85656 0.92307 0.20658 0.0
H5362 H 0.88814 0.92747 0.1937 0.0
H5363 H 0.90719 0.89376 0.23749 0.0
H5364 H 0.8756 0.88891 0.2505 0.0
H5365 H 0.76442 0.83118 0.22878 0.0
H5366 H 0.78287 0.86421 0.22585 0.0
H5367 H 0.82621 0.85246 0.26583 0.0
H5368 H 0.80772 0.81944 0.26896 0.0
H5369 H 0.84065 0.8715 0.23392 0.0
H5370 H 0.79565 0.87929 0.28215 0.0
H5371 H 0.76382 0.87575 0.29434 0.0
H5372 H 0.7466 0.90982 0.24987 0.0
H5373 H 0.77828 0.91333 0.23724 0.0
C5374 C 0.87725 0.96393 0.25731 0.0
C5375 C 0.87088 0.9795 0.24853 0.0
C5376 C 0.86617 0.94498 0.25604 0.0
C5377 C 0.84855 0.94091 0.24567 0.0
C5378 C 0.8419 0.95648 0.2372 0.0
C5379 C 0.85296 0.97561 0.23863 0.0
C5380 C 0.83718 0.9204 0.24399 0.0
C5381 C 0.81875 0.91756 0.25017 0.0
C5382 C 0.84499 0.90355 0.23771 0.0
C5383 C 0.86376 0.90566 0.22951 0.0
C5384 C 0.86747 0.91653 0.21341 0.0
C5385 C 0.88534 0.91905 0.20607 0.0
C5386 C 0.89963 0.91081 0.21474 0.0
C5387 C 0.89604 0.89995 0.23071 0.0
C5388 C 0.87813 0.89722 0.23801 0.0
C5389 C 0.77796 0.83556 0.23681 0.0
C5390 C 0.78459 0.82277 0.24918 0.0
C5391 C 0.78846 0.85446 0.23516 0.0
C5392 C 0.80583 0.8609 0.24578 0.0
C5393 C 0.81283 0.84782 0.25753 0.0
C5394 C 0.80225 0.82898 0.25932 0.0
C5395 C 0.81632 0.88153 0.24525 0.0
C5396 C 0.83461 0.88436 0.2387 0.0
C5397 C 0.80827 0.89837 0.25097 0.0
C5398 C 0.78926 0.89638 0.25862 0.0
C5399 C 0.78503 0.88589 0.27487 0.0
C5400 C 0.76702 0.88391 0.28188 0.0
C5401 C 0.75318 0.89251 0.27285 0.0
C5402 C 0.75733 0.90315 0.25683 0.0
C5403 C 0.77531 0.90514 0.24975 0.0
H5404 H 0.73925 0.89096 0.2783 0.0
H5405 H 0.91349 0.91288 0.20911 0.0
H5406 H 0.61572 0.08547 0.74701 0.0
H5407 H 0.635 0.11824 0.74471 0.0
H5408 H 0.68484 0.09582 0.76183 0.0
H5409 H 0.66579 0.0631 0.76411 0.0
H5410 H 0.682 0.13271 0.78167 0.0
H5411 H 0.67551 0.10064 0.71566 0.0
H5412 H 0.65697 0.08409 0.6861 0.0
H5413 H 0.63161 0.13563 0.6808 0.0
H5414 H 0.64973 0.15234 0.71054 0.0
H5415 H 0.7551 0.20667 0.76397 0.0
H5416 H 0.73445 0.17417 0.76064 0.0
H5417 H 0.69032 0.1996 0.73378 0.0
H5418 H 0.71143 0.23206 0.73627 0.0
H5419 H 0.68788 0.16241 0.71897 0.0
H5420 H 0.69269 0.19517 0.78272 0.0
H5421 H 0.70862 0.21308 0.81304 0.0
H5422 H 0.7336 0.16248 0.82404 0.0
H5423 H 0.71805 0.14434 0.79358 0.0
C5424 C 0.63077 0.08754 0.75037 0.0
C5425 C 0.63922 0.07164 0.7557 0.0
C5426 C 0.64176 0.10623 0.74896 0.0
C5427 C 0.66134 0.10937 0.75298 0.0
C5428 C 0.66975 0.09367 0.75865 0.0
C5429 C 0.65883 0.07496 0.75987 0.0
C5430 C 0.67323 0.12897 0.75127 0.0
C5431 C 0.68347 0.13913 0.76793 0.0
C5432 C 0.6745 0.13765 0.73348 0.0
C5433 C 0.66384 0.12767 0.71544 0.0
C5434 C 0.66587 0.10838 0.70828 0.0
C5435 C 0.65545 0.09898 0.69148 0.0
C5436 C 0.64309 0.10879 0.68161 0.0
C5437 C 0.64116 0.12804 0.68848 0.0
C5438 C 0.65151 0.13748 0.7053 0.0
C5439 C 0.74118 0.20514 0.75683 0.0
C5440 C 0.73478 0.22175 0.75039 0.0
C5441 C 0.72933 0.18664 0.75508 0.0
C5442 C 0.71063 0.18459 0.74754 0.0
C5443 C 0.70464 0.20087 0.73979 0.0
C5444 C 0.71671 0.21936 0.74112 0.0
C5445 C 0.69707 0.16596 0.7493 0.0
C5446 C 0.68643 0.15605 0.73272 0.0
C5447 C 0.69505 0.15769 0.7673 0.0
C5448 C 0.7043 0.16844 0.78577 0.0
C5449 C 0.70167 0.18789 0.79153 0.0
C5450 C 0.71063 0.19808 0.80875 0.0
C5451 C 0.72211 0.18892 0.82045 0.0
C5452 C 0.72468 0.16954 0.81495 0.0
C5453 C 0.71579 0.15929 0.79772 0.0
H5454 H 0.72895 0.19681 0.83381 0.0
H5455 H 0.63506 0.10152 0.66859 0.0
loop_
_geom_bond_atom_site_label_1
_geom_bond_atom_site_label_2
_geom_bond_distance
_geom_bond_site_symmetry_2
_ccdc_geom_bond_type
Co0 O1 2.216 . S
Co0 O2 2.091 . S
Co0 O4 2.004 1_455 S
Co0 O10 2.021 . S
Co0 O12 2.137 . S
Co0 O13 2.244 . S
O1 Co0 2.216 . S
O1 C8 1.247 . S
O2 Co0 2.091 . S
O2 C8 1.261 . S
C3 O12 1.247 . S
C3 O13 1.272 . S
O4 Co0 2.004 1_655 S
O4 C9 1.259 . S
Co5 O6 2.061 . S
Co5 O11 2.052 1_655 S
Co5 O13 2.135 1_655 S
O6 Co5 2.061 . S
O6 C9 1.235 . S
C7 O10 1.238 . S
C7 O11 1.241 . S
C8 O1 1.247 . S
C8 O2 1.261 . S
C9 O4 1.259 . S
C9 O6 1.235 . S
O10 Co0 2.021 . S
O10 C7 1.238 . S
O11 Co5 2.052 1_455 S
O11 C7 1.241 . S
O12 Co0 2.137 . S
O12 C3 1.247 . S
O13 Co0 2.244 . S
O13 C3 1.272 . S
O13 Co5 2.135 1_455 S
Co14 O15 2.216 1_455 S
Co14 O16 2.091 1_455 S
Co14 O18 2.004 . S
Co14 O24 2.021 . S
Co14 O26 2.137 . S
Co14 O27 2.244 . S
O15 Co14 2.216 1_655 S
O15 C22 1.247 . S
O16 Co14 2.091 1_655 S
O16 C22 1.261 . S
C17 O26 1.247 . S
C17 O27 1.272 . S
O18 Co14 2.004 . S
O18 C23 1.259 . S
Co19 O20 2.061 . S
Co19 O25 2.052 . S
Co19 O27 2.135 . S
O20 Co19 2.061 . S
O20 C23 1.235 . S
C21 O24 1.238 . S
C21 O25 1.241 . S
C22 O15 1.247 . S
C22 O16 1.261 . S
C23 O18 1.259 . S
C23 O20 1.235 . S
O24 Co14 2.021 . S
O24 C21 1.238 . S
O25 Co19 2.052 . S
O25 C21 1.241 . S
O26 Co14 2.137 . S
O26 C17 1.247 . S
O27 Co14 2.244 . S
O27 C17 1.272 . S
O27 Co19 2.135 . S
Co28 O29 2.216 . S
Co28 O30 2.091 . S
Co28 O32 2.004 . S
Co28 O38 2.021 . S
Co28 O40 2.137 . S
Co28 O41 2.244 . S
O29 Co28 2.216 . S
O29 C36 1.247 . S
O30 Co28 2.091 . S
O30 C36 1.261 . S
C31 O40 1.247 . S
C31 O41 1.272 . S
O32 Co28 2.004 . S
O32 C37 1.259 . S
Co33 O34 2.061 . S
Co33 O39 2.052 . S
Co33 O41 2.135 . S
O34 Co33 2.061 . S
O34 C37 1.235 . S
C35 O38 1.238 . S
C35 O39 1.241 . S
C36 O29 1.247 . S
C36 O30 1.261 . S
C37 O32 1.259 . S
C37 O34 1.235 . S
O38 Co28 2.021 . S
O38 C35 1.238 . S
O39 Co33 2.052 . S
O39 C35 1.241 . S
O40 Co28 2.137 . S
O40 C31 1.247 . S
O41 Co28 2.244 . S
O41 C31 1.272 . S
O41 Co33 2.135 . S
Co42 O43 2.216 . S
Co42 O44 2.091 . S
Co42 O46 2.004 . S
Co42 O52 2.021 . S
Co42 O54 2.137 . S
Co42 O55 2.244 . S
O43 Co42 2.216 . S
O43 C50 1.247 . S
O44 Co42 2.091 . S
O44 C50 1.261 . S
C45 O54 1.247 . S
C45 O55 1.272 . S
O46 Co42 2.004 . S
O46 C51 1.259 . S
Co47 O48 2.061 . S
Co47 O53 2.052 . S
Co47 O55 2.135 . S
O48 Co47 2.061 . S
O48 C51 1.235 . S
C49 O52 1.238 . S
C49 O53 1.241 . S
C50 O43 1.247 . S
C50 O44 1.261 . S
C51 O46 1.259 . S
C51 O48 1.235 . S
O52 Co42 2.021 . S
O52 C49 1.238 . S
O53 Co47 2.052 . S
O53 C49 1.241 . S
O54 Co42 2.137 . S
O54 C45 1.247 . S
O55 Co42 2.244 . S
O55 C45 1.272 . S
O55 Co47 2.135 . S
Co56 O57 2.216 1_455 S
Co56 O58 2.091 1_455 S
Co56 O60 2.004 . S
Co56 O66 2.021 . S
Co56 O68 2.137 . S
Co56 O69 2.244 . S
O57 Co56 2.216 1_655 S
O57 C64 1.247 . S
O58 Co56 2.091 1_655 S
O58 C64 1.261 . S
C59 O68 1.247 . S
C59 O69 1.272 . S
O60 Co56 2.004 . S
O60 C65 1.259 . S
Co61 O62 2.061 . S
Co61 O67 2.052 . S
Co61 O69 2.135 . S
O62 Co61 2.061 . S
O62 C65 1.235 . S
C63 O66 1.238 . S
C63 O67 1.241 . S
C64 O57 1.247 . S
C64 O58 1.261 . S
C65 O60 1.259 . S
C65 O62 1.235 . S
O66 Co56 2.021 . S
O66 C63 1.238 . S
O67 Co61 2.052 . S
O67 C63 1.241 . S
O68 Co56 2.137 . S
O68 C59 1.247 . S
O69 Co56 2.244 . S
O69 C59 1.272 . S
O69 Co61 2.135 . S
Co70 O71 2.216 . S
Co70 O72 2.091 . S
Co70 O74 2.004 . S
Co70 O80 2.021 . S
Co70 O82 2.137 . S
Co70 O83 2.244 . S
O71 Co70 2.216 . S
O71 C78 1.247 . S
O72 Co70 2.091 . S
O72 C78 1.261 . S
C73 O82 1.247 . S
C73 O83 1.272 . S
O74 Co70 2.004 . S
O74 C79 1.259 . S
Co75 O76 2.061 . S
Co75 O81 2.052 . S
Co75 O83 2.135 . S
O76 Co75 2.061 . S
O76 C79 1.235 . S
C77 O80 1.238 . S
C77 O81 1.241 . S
C78 O71 1.247 . S
C78 O72 1.261 . S
C79 O74 1.259 . S
C79 O76 1.235 . S
O80 Co70 2.021 . S
O80 C77 1.238 . S
O81 Co75 2.052 . S
O81 C77 1.241 . S
O82 Co70 2.137 . S
O82 C73 1.247 . S
O83 Co70 2.244 . S
O83 C73 1.272 . S
O83 Co75 2.135 . S
Co84 O85 2.216 . S
Co84 O86 2.091 . S
Co84 O88 2.004 . S
Co84 O94 2.021 . S
Co84 O96 2.137 . S
Co84 O97 2.244 . S
O85 Co84 2.216 . S
O85 C92 1.247 . S
O86 Co84 2.091 . S
O86 C92 1.261 . S
C87 O96 1.247 . S
C87 O97 1.272 . S
O88 Co84 2.004 . S
O88 C93 1.259 . S
Co89 O90 2.061 . S
Co89 O95 2.052 . S
Co89 O97 2.135 . S
O90 Co89 2.061 . S
O90 C93 1.235 . S
C91 O94 1.238 . S
C91 O95 1.241 . S
C92 O85 1.247 . S
C92 O86 1.261 . S
C93 O88 1.259 . S
C93 O90 1.235 . S
O94 Co84 2.021 . S
O94 C91 1.238 . S
O95 Co89 2.052 . S
O95 C91 1.241 . S
O96 Co84 2.137 . S
O96 C87 1.247 . S
O97 Co84 2.244 . S
O97 C87 1.272 . S
O97 Co89 2.135 . S
Co98 O99 2.216 . S
Co98 O100 2.091 . S
Co98 O102 2.004 1_455 S
Co98 O108 2.021 . S
Co98 O110 2.137 . S
Co98 O111 2.263 . S
O99 Co98 2.216 . S
O99 C106 1.247 . S
O100 Co98 2.091 . S
O100 C106 1.261 . S
C101 O110 1.247 . S
C101 O111 1.284 . S
O102 Co98 2.004 1_655 S
O102 C107 1.259 . S
Co103 O104 2.061 . S
Co103 O109 2.052 . S
Co103 O111 2.095 1_655 S
O104 Co103 2.061 . S
O104 C107 1.235 . S
C105 O108 1.238 1_655 S
C105 O109 1.241 . S
C106 O99 1.247 . S
C106 O100 1.261 . S
C107 O102 1.259 . S
C107 O104 1.235 . S
O108 Co98 2.021 . S
O108 C105 1.238 1_455 S
O109 Co103 2.052 . S
O109 C105 1.241 . S
O110 Co98 2.137 . S
O110 C101 1.247 . S
O111 Co98 2.263 . S
O111 C101 1.284 . S
O111 Co103 2.095 1_455 S
Co112 O113 2.216 . S
Co112 O114 2.091 . S
Co112 O116 1.984 1_545 S
Co112 O122 2.021 . S
Co112 O124 2.137 . S
Co112 O125 2.244 . S
O113 Co112 2.216 . S
O113 C120 1.247 . S
O114 Co112 2.091 . S
O114 C120 1.261 . S
C115 O124 1.247 . S
C115 O125 1.272 . S
O116 Co112 1.984 1_565 S
O116 C121 1.282 . S
Co117 O118 2.061 . S
Co117 O123 2.052 1_565 S
Co117 O125 2.135 1_565 S
O118 Co117 2.061 . S
O118 C121 1.235 . S
C119 O122 1.238 . S
C119 O123 1.241 . S
C120 O113 1.247 . S
C120 O114 1.261 . S
C121 O116 1.282 . S
C121 O118 1.235 . S
O122 Co112 2.021 . S
O122 C119 1.238 . S
O123 Co117 2.052 1_545 S
O123 C119 1.241 . S
O124 Co112 2.137 . S
O124 C115 1.247 . S
O125 Co112 2.244 . S
O125 C115 1.272 . S
O125 Co117 2.135 1_545 S
Co126 O127 2.216 . S
Co126 O128 2.091 . S
Co126 O130 2.004 . S
Co126 O136 2.021 . S
Co126 O138 2.137 . S
Co126 O139 2.244 . S
O127 Co126 2.216 . S
O127 C134 1.247 . S
O128 Co126 2.091 . S
O128 C134 1.261 . S
C129 O138 1.247 . S
C129 O139 1.272 . S
O130 Co126 2.004 . S
O130 C135 1.259 . S
Co131 O132 2.061 . S
Co131 O137 2.052 . S
Co131 O139 2.135 . S
O132 Co131 2.061 . S
O132 C135 1.235 . S
C133 O136 1.238 . S
C133 O137 1.241 . S
C134 O127 1.247 . S
C134 O128 1.261 . S
C135 O130 1.259 . S
C135 O132 1.235 . S
O136 Co126 2.021 . S
O136 C133 1.238 . S
O137 Co131 2.052 . S
O137 C133 1.241 . S
O138 Co126 2.137 . S
O138 C129 1.247 . S
O139 Co126 2.244 . S
O139 C129 1.272 . S
O139 Co131 2.135 . S
Co140 O141 2.216 . S
Co140 O142 2.091 . S
Co140 O144 2.004 1_565 S
Co140 O150 2.021 . S
Co140 O152 2.137 . S
Co140 O153 2.244 1_565 S
O141 Co140 2.216 . S
O141 C148 1.247 . S
O142 Co140 2.091 . S
O142 C148 1.261 . S
C143 O152 1.235 1_545 S
C143 O153 1.282 . S
O144 Co140 2.004 1_545 S
O144 C149 1.259 . S
Co145 O146 2.061 . S
Co145 O151 2.052 . S
Co145 O153 2.135 . S
O146 Co145 2.061 . S
O146 C149 1.235 . S
C147 O150 1.245 . S
C147 O151 1.231 1_565 S
C148 O141 1.247 . S
C148 O142 1.261 . S
C149 O144 1.259 . S
C149 O146 1.235 . S
O150 Co140 2.021 . S
O150 C147 1.245 . S
O151 Co145 2.052 . S
O151 C147 1.231 1_545 S
O152 Co140 2.137 . S
O152 C143 1.235 1_565 S
O153 Co140 2.244 1_545 S
O153 C143 1.282 . S
O153 Co145 2.135 . S
Co154 O155 2.216 . S
Co154 O156 2.091 . S
Co154 O158 2.004 . S
Co154 O164 2.021 . S
Co154 O166 2.137 1_554 S
Co154 O167 2.244 . S
O155 Co154 2.216 . S
O155 C162 1.247 . S
O156 Co154 2.091 . S
O156 C162 1.261 . S
C157 O166 1.247 . S
C157 O167 1.272 1_556 S
O158 Co154 2.004 . S
O158 C163 1.259 . S
Co159 O160 2.061 . S
Co159 O165 2.052 . S
Co159 O167 2.135 . S
O160 Co159 2.061 . S
O160 C163 1.235 . S
C161 O164 1.238 . S
C161 O165 1.241 . S
C162 O155 1.247 . S
C162 O156 1.261 . S
C163 O158 1.259 . S
C163 O160 1.235 . S
O164 Co154 2.021 . S
O164 C161 1.238 . S
O165 Co159 2.052 . S
O165 C161 1.241 . S
O166 Co154 2.137 1_556 S
O166 C157 1.247 . S
O167 Co154 2.244 . S
O167 C157 1.272 1_554 S
O167 Co159 2.135 . S
Co168 O169 2.216 . S
Co168 O170 2.091 . S
Co168 O172 2.004 . S
Co168 O178 2.021 . S
Co168 O180 2.137 1_554 S
Co168 O181 2.244 1_554 S
O169 Co168 2.216 . S
O169 C176 1.247 . S
O170 Co168 2.091 . S
O170 C176 1.261 . S
C171 O180 1.247 . S
C171 O181 1.272 . S
O172 Co168 2.004 . S
O172 C177 1.259 . S
Co173 O174 2.061 . S
Co173 O179 2.052 . S
Co173 O181 2.135 1_554 S
O174 Co173 2.061 . S
O174 C177 1.235 . S
C175 O178 1.238 . S
C175 O179 1.241 . S
C176 O169 1.247 . S
C176 O170 1.261 . S
C177 O172 1.259 . S
C177 O174 1.235 . S
O178 Co168 2.021 . S
O178 C175 1.238 . S
O179 Co173 2.052 . S
O179 C175 1.241 . S
O180 Co168 2.137 1_556 S
O180 C171 1.247 . S
O181 Co168 2.244 1_556 S
O181 C171 1.272 . S
O181 Co173 2.135 1_556 S
Co182 O183 2.217 . S
Co182 O184 2.099 . S
Co182 O186 2.004 . S
Co182 O192 2.021 1_556 S
Co182 O194 2.137 . S
Co182 O195 2.244 . S
O183 Co182 2.217 . S
O183 C190 1.243 . S
O184 Co182 2.099 . S
O184 C190 1.266 . S
C185 O194 1.247 . S
C185 O195 1.272 . S
O186 Co182 2.004 . S
O186 C191 1.259 . S
Co187 O188 2.060 . S
Co187 O193 2.052 . S
Co187 O195 2.135 1_554 S
O188 Co187 2.060 . S
O188 C191 1.234 1_554 S
C189 O192 1.238 . S
C189 O193 1.241 . S
C190 O183 1.243 . S
C190 O184 1.266 . S
C191 O186 1.259 . S
C191 O188 1.234 1_556 S
O192 Co182 2.021 1_554 S
O192 C189 1.238 . S
O193 Co187 2.052 . S
O193 C189 1.241 . S
O194 Co182 2.137 . S
O194 C185 1.247 . S
O195 Co182 2.244 . S
O195 C185 1.272 . S
O195 Co187 2.135 1_556 S
Co196 O197 2.216 . S
Co196 O198 2.091 . S
Co196 O200 2.004 . S
Co196 O206 2.021 . S
Co196 O208 2.137 . S
Co196 O209 2.244 . S
O197 Co196 2.216 . S
O197 C204 1.247 . S
O198 Co196 2.091 . S
O198 C204 1.261 . S
C199 O208 1.247 . S
C199 O209 1.272 . S
O200 Co196 2.004 . S
O200 C205 1.259 . S
Co201 O202 2.061 . S
Co201 O207 2.052 . S
Co201 O209 2.135 . S
O202 Co201 2.061 . S
O202 C205 1.235 . S
C203 O206 1.238 . S
C203 O207 1.241 . S
C204 O197 1.247 . S
C204 O198 1.261 . S
C205 O200 1.259 . S
C205 O202 1.235 . S
O206 Co196 2.021 . S
O206 C203 1.238 . S
O207 Co201 2.052 . S
O207 C203 1.241 . S
O208 Co196 2.137 . S
O208 C199 1.247 . S
O209 Co196 2.244 . S
O209 C199 1.272 . S
O209 Co201 2.135 . S
Co210 O211 2.216 . S
Co210 O212 2.091 . S
Co210 O214 2.004 . S
Co210 O220 2.021 . S
Co210 O222 2.137 . S
Co210 O223 2.244 . S
O211 Co210 2.216 . S
O211 C218 1.247 . S
O212 Co210 2.091 . S
O212 C218 1.261 . S
C213 O222 1.247 . S
C213 O223 1.272 . S
O214 Co210 2.004 . S
O214 C219 1.259 . S
Co215 O216 2.061 . S
Co215 O221 2.052 . S
Co215 O223 2.135 . S
O216 Co215 2.061 . S
O216 C219 1.235 . S
C217 O220 1.238 . S
C217 O221 1.241 . S
C218 O211 1.247 . S
C218 O212 1.261 . S
C219 O214 1.259 . S
C219 O216 1.235 . S
O220 Co210 2.021 . S
O220 C217 1.238 . S
O221 Co215 2.052 . S
O221 C217 1.241 . S
O222 Co210 2.137 . S
O222 C213 1.247 . S
O223 Co210 2.244 . S
O223 C213 1.272 . S
O223 Co215 2.135 . S
Co224 O225 2.216 . S
Co224 O226 2.091 . S
Co224 O228 2.004 . S
Co224 O234 2.021 . S
Co224 O236 2.137 . S
Co224 O237 2.244 . S
O225 Co224 2.216 . S
O225 C232 1.247 . S
O226 Co224 2.091 . S
O226 C232 1.261 . S
C227 O236 1.247 . S
C227 O237 1.272 . S
O228 Co224 2.004 . S
O228 C233 1.259 . S
Co229 O230 2.061 . S
Co229 O235 2.052 . S
Co229 O237 2.135 . S
O230 Co229 2.061 . S
O230 C233 1.235 . S
C231 O234 1.238 . S
C231 O235 1.241 . S
C232 O225 1.247 . S
C232 O226 1.261 . S
C233 O228 1.259 . S
C233 O230 1.235 . S
O234 Co224 2.021 . S
O234 C231 1.238 . S
O235 Co229 2.052 . S
O235 C231 1.241 . S
O236 Co224 2.137 . S
O236 C227 1.247 . S
O237 Co224 2.244 . S
O237 C227 1.272 . S
O237 Co229 2.135 . S
Co238 O239 2.216 . S
Co238 O240 2.091 . S
Co238 O242 2.004 . S
Co238 O248 2.021 . S
Co238 O250 2.137 . S
Co238 O251 2.244 . S
O239 Co238 2.216 . S
O239 C246 1.247 . S
O240 Co238 2.091 . S
O240 C246 1.261 . S
C241 O250 1.247 . S
C241 O251 1.272 . S
O242 Co238 2.004 . S
O242 C247 1.259 . S
Co243 O244 2.061 . S
Co243 O249 2.052 . S
Co243 O251 2.135 . S
O244 Co243 2.061 . S
O244 C247 1.235 . S
C245 O248 1.238 . S
C245 O249 1.241 . S
C246 O239 1.247 . S
C246 O240 1.261 . S
C247 O242 1.259 . S
C247 O244 1.235 . S
O248 Co238 2.021 . S
O248 C245 1.238 . S
O249 Co243 2.052 . S
O249 C245 1.241 . S
O250 Co238 2.137 . S
O250 C241 1.247 . S
O251 Co238 2.244 . S
O251 C241 1.272 . S
O251 Co243 2.135 . S
Co252 O253 2.216 . S
Co252 O254 2.091 . S
Co252 O256 2.004 . S
Co252 O262 2.021 . S
Co252 O264 2.137 . S
Co252 O265 2.244 . S
O253 Co252 2.216 . S
O253 C260 1.247 . S
O254 Co252 2.091 . S
O254 C260 1.261 . S
C255 O264 1.247 . S
C255 O265 1.272 . S
O256 Co252 2.004 . S
O256 C261 1.259 . S
Co257 O258 2.061 . S
Co257 O263 2.052 . S
Co257 O265 2.135 . S
O258 Co257 2.061 . S
O258 C261 1.235 . S
C259 O262 1.238 . S
C259 O263 1.241 . S
C260 O253 1.247 . S
C260 O254 1.261 . S
C261 O256 1.259 . S
C261 O258 1.235 . S
O262 Co252 2.021 . S
O262 C259 1.238 . S
O263 Co257 2.052 . S
O263 C259 1.241 . S
O264 Co252 2.137 . S
O264 C255 1.247 . S
O265 Co252 2.244 . S
O265 C255 1.272 . S
O265 Co257 2.135 . S
Co266 O267 2.216 1_545 S
Co266 O268 2.091 . S
Co266 O270 2.004 . S
Co266 O276 2.021 . S
Co266 O278 2.137 . S
Co266 O279 2.244 . S
O267 Co266 2.216 1_565 S
O267 C274 1.247 . S
O268 Co266 2.091 . S
O268 C274 1.261 1_545 S
C269 O278 1.247 . S
C269 O279 1.272 . S
O270 Co266 2.004 . S
O270 C275 1.259 . S
Co271 O272 2.061 . S
Co271 O277 2.052 . S
Co271 O279 2.135 . S
O272 Co271 2.061 . S
O272 C275 1.235 . S
C273 O276 1.238 . S
C273 O277 1.241 . S
C274 O267 1.247 . S
C274 O268 1.261 1_565 S
C275 O270 1.259 . S
C275 O272 1.235 . S
O276 Co266 2.021 . S
O276 C273 1.238 . S
O277 Co271 2.052 . S
O277 C273 1.241 . S
O278 Co266 2.137 . S
O278 C269 1.247 . S
O279 Co266 2.244 . S
O279 C269 1.272 . S
O279 Co271 2.135 . S
Co280 O281 2.216 . S
Co280 O282 2.091 . S
Co280 O284 2.004 . S
Co280 O290 2.021 . S
Co280 O292 2.137 1_554 S
Co280 O293 2.244 1_554 S
O281 Co280 2.216 . S
O281 C288 1.247 . S
O282 Co280 2.091 . S
O282 C288 1.261 . S
C283 O292 1.247 . S
C283 O293 1.272 . S
O284 Co280 2.004 . S
O284 C289 1.259 . S
Co285 O286 2.061 . S
Co285 O291 2.052 . S
Co285 O293 2.135 1_554 S
O286 Co285 2.061 . S
O286 C289 1.235 . S
C287 O290 1.238 . S
C287 O291 1.241 . S
C288 O281 1.247 . S
C288 O282 1.261 . S
C289 O284 1.259 . S
C289 O286 1.235 . S
O290 Co280 2.021 . S
O290 C287 1.238 . S
O291 Co285 2.052 . S
O291 C287 1.241 . S
O292 Co280 2.137 1_556 S
O292 C283 1.247 . S
O293 Co280 2.244 1_556 S
O293 C283 1.272 . S
O293 Co285 2.135 1_556 S
Co294 O295 2.216 . S
Co294 O296 2.091 . S
Co294 O298 2.004 . S
Co294 O304 2.021 . S
Co294 O306 2.137 . S
Co294 O307 2.244 . S
O295 Co294 2.216 . S
O295 C302 1.247 . S
O296 Co294 2.091 . S
O296 C302 1.261 . S
C297 O306 1.247 . S
C297 O307 1.272 . S
O298 Co294 2.004 . S
O298 C303 1.259 . S
Co299 O300 2.061 . S
Co299 O305 2.052 . S
Co299 O307 2.135 . S
O300 Co299 2.061 . S
O300 C303 1.235 . S
C301 O304 1.238 . S
C301 O305 1.241 . S
C302 O295 1.247 . S
C302 O296 1.261 . S
C303 O298 1.259 . S
C303 O300 1.235 . S
O304 Co294 2.021 . S
O304 C301 1.238 . S
O305 Co299 2.052 . S
O305 C301 1.241 . S
O306 Co294 2.137 . S
O306 C297 1.247 . S
O307 Co294 2.244 . S
O307 C297 1.272 . S
O307 Co299 2.135 . S
Co308 O309 2.216 . S
Co308 O310 2.091 . S
Co308 O312 2.004 . S
Co308 O318 2.021 . S
Co308 O320 2.137 . S
Co308 O321 2.244 . S
O309 Co308 2.216 . S
O309 C316 1.247 . S
O310 Co308 2.091 . S
O310 C316 1.261 . S
C311 O320 1.247 . S
C311 O321 1.272 . S
O312 Co308 2.004 . S
O312 C317 1.259 . S
Co313 O314 2.061 . S
Co313 O319 2.052 . S
Co313 O321 2.135 . S
O314 Co313 2.061 . S
O314 C317 1.235 . S
C315 O318 1.238 . S
C315 O319 1.241 . S
C316 O309 1.247 . S
C316 O310 1.261 . S
C317 O312 1.259 . S
C317 O314 1.235 . S
O318 Co308 2.021 . S
O318 C315 1.238 . S
O319 Co313 2.052 . S
O319 C315 1.241 . S
O320 Co308 2.137 . S
O320 C311 1.247 . S
O321 Co308 2.244 . S
O321 C311 1.272 . S
O321 Co313 2.135 . S
Co322 O323 2.216 . S
Co322 O324 2.091 . S
Co322 O326 2.004 . S
Co322 O332 2.021 . S
Co322 O334 2.137 . S
Co322 O335 2.244 . S
O323 Co322 2.216 . S
O323 C330 1.247 . S
O324 Co322 2.091 . S
O324 C330 1.261 . S
C325 O334 1.247 . S
C325 O335 1.272 . S
O326 Co322 2.004 . S
O326 C331 1.259 . S
Co327 O328 2.061 . S
Co327 O333 2.052 . S
Co327 O335 2.135 . S
O328 Co327 2.061 . S
O328 C331 1.235 . S
C329 O332 1.238 . S
C329 O333 1.241 . S
C330 O323 1.247 . S
C330 O324 1.261 . S
C331 O326 1.259 . S
C331 O328 1.235 . S
O332 Co322 2.021 . S
O332 C329 1.238 . S
O333 Co327 2.052 . S
O333 C329 1.241 . S
O334 Co322 2.137 . S
O334 C325 1.247 . S
O335 Co322 2.244 . S
O335 C325 1.272 . S
O335 Co327 2.135 . S
Dy336 O340 2.398 1_554 S
Dy336 O341 2.491 . S
Dy336 O342 2.404 1_654 S
Dy336 O343 2.664 1_654 S
Dy336 O347 2.326 1_654 S
Dy336 O351 2.310 1_655 S
Dy336 O352 2.351 1_545 S
C337 O348 1.185 . S
C337 O349 1.355 . S
C338 O340 1.185 . S
C338 O341 1.355 1_556 S
Dy339 O343 2.310 1_554 S
Dy339 O346 2.351 . S
Dy339 O348 2.398 . S
Dy339 O349 2.491 . S
Dy339 O350 2.403 . S
Dy339 O351 2.664 . S
Dy339 O353 2.326 . S
O340 Dy336 2.398 1_556 S
O340 C338 1.185 . S
O341 Dy336 2.491 . S
O341 C338 1.355 1_554 S
O342 Dy336 2.404 1_456 S
O342 C344 1.252 . S
O343 Dy336 2.664 1_456 S
O343 Dy339 2.310 1_556 S
O343 C344 1.268 . S
C344 O342 1.252 . S
C344 O343 1.268 . S
C345 O350 1.254 . S
C345 O351 1.268 . S
O346 Dy339 2.351 . S
O346 C354 1.249 . S
O347 Dy336 2.326 1_456 S
O347 C354 1.267 1_556 S
O348 C337 1.185 . S
O348 Dy339 2.398 . S
O349 C337 1.355 . S
O349 Dy339 2.491 . S
O350 Dy339 2.403 . S
O350 C345 1.254 . S
O351 Dy336 2.310 1_455 S
O351 Dy339 2.664 . S
O351 C345 1.268 . S
O352 Dy336 2.351 1_565 S
O352 C355 1.249 1_655 S
O353 Dy339 2.326 . S
O353 C355 1.267 1_545 S
C354 O346 1.249 . S
C354 O347 1.267 1_554 S
C355 O352 1.249 1_455 S
C355 O353 1.267 1_565 S
Dy356 O360 2.398 . S
Dy356 O361 2.491 . S
Dy356 O362 2.403 . S
Dy356 O363 2.664 . S
Dy356 O367 2.326 . S
Dy356 O371 2.310 . S
Dy356 O372 2.351 . S
C357 O368 1.185 . S
C357 O369 1.355 . S
C358 O360 1.185 . S
C358 O361 1.355 . S
Dy359 O363 2.310 . S
Dy359 O366 2.351 . S
Dy359 O368 2.398 . S
Dy359 O369 2.491 . S
Dy359 O370 2.403 . S
Dy359 O371 2.664 . S
Dy359 O373 2.326 . S
O360 Dy356 2.398 . S
O360 C358 1.185 . S
O361 Dy356 2.491 . S
O361 C358 1.355 . S
O362 Dy356 2.403 . S
O362 C364 1.254 . S
O363 Dy356 2.664 . S
O363 Dy359 2.310 . S
O363 C364 1.268 . S
C364 O362 1.254 . S
C364 O363 1.268 . S
C365 O370 1.254 . S
C365 O371 1.268 . S
O366 Dy359 2.351 . S
O366 C374 1.249 . S
O367 Dy356 2.326 . S
O367 C374 1.267 . S
O368 C357 1.185 . S
O368 Dy359 2.398 . S
O369 C357 1.355 . S
O369 Dy359 2.491 . S
O370 Dy359 2.403 . S
O370 C365 1.254 . S
O371 Dy356 2.310 . S
O371 Dy359 2.664 . S
O371 C365 1.268 . S
O372 Dy356 2.351 . S
O372 C375 1.249 . S
O373 Dy359 2.326 . S
O373 C375 1.267 . S
C374 O366 1.249 . S
C374 O367 1.267 . S
C375 O372 1.249 . S
C375 O373 1.267 . S
Dy376 O380 2.398 . S
Dy376 O381 2.491 . S
Dy376 O382 2.403 . S
Dy376 O383 2.664 . S
Dy376 O387 2.326 1_545 S
Dy376 O391 2.310 . S
Dy376 O392 2.351 . S
C377 O388 1.185 . S
C377 O389 1.355 . S
C378 O380 1.209 . S
C378 O381 1.357 . S
Dy379 O383 2.310 . S
Dy379 O386 2.351 1_545 S
Dy379 O388 2.398 . S
Dy379 O389 2.491 . S
Dy379 O390 2.403 . S
Dy379 O391 2.664 . S
Dy379 O393 2.326 . S
O380 Dy376 2.398 . S
O380 C378 1.209 . S
O381 Dy376 2.491 . S
O381 C378 1.357 . S
O382 Dy376 2.403 . S
O382 C384 1.254 . S
O383 Dy376 2.664 . S
O383 Dy379 2.310 . S
O383 C384 1.268 . S
C384 O382 1.254 . S
C384 O383 1.268 . S
C385 O390 1.254 . S
C385 O391 1.268 . S
O386 Dy379 2.351 1_565 S
O386 C394 1.249 . S
O387 Dy376 2.326 1_565 S
O387 C394 1.267 . S
O388 C377 1.185 . S
O388 Dy379 2.398 . S
O389 C377 1.355 . S
O389 Dy379 2.491 . S
O390 Dy379 2.403 . S
O390 C385 1.254 . S
O391 Dy376 2.310 . S
O391 Dy379 2.664 . S
O391 C385 1.268 . S
O392 Dy376 2.351 . S
O392 C395 1.249 . S
O393 Dy379 2.326 . S
O393 C395 1.267 . S
C394 O386 1.249 . S
C394 O387 1.267 . S
C395 O392 1.249 . S
C395 O393 1.267 . S
Dy396 O400 2.398 . S
Dy396 O401 2.491 . S
Dy396 O402 2.403 . S
Dy396 O403 2.664 . S
Dy396 O407 2.326 . S
Dy396 O411 2.310 . S
Dy396 O412 2.351 . S
C397 O408 1.185 . S
C397 O409 1.355 . S
C398 O400 1.185 . S
C398 O401 1.355 . S
Dy399 O403 2.310 . S
Dy399 O406 2.351 . S
Dy399 O408 2.398 . S
Dy399 O409 2.491 . S
Dy399 O410 2.403 . S
Dy399 O411 2.664 . S
Dy399 O413 2.326 . S
O400 Dy396 2.398 . S
O400 C398 1.185 . S
O401 Dy396 2.491 . S
O401 C398 1.355 . S
O402 Dy396 2.403 . S
O402 C404 1.254 . S
O403 Dy396 2.664 . S
O403 Dy399 2.310 . S
O403 C404 1.268 . S
C404 O402 1.254 . S
C404 O403 1.268 . S
C405 O410 1.254 . S
C405 O411 1.268 . S
O406 Dy399 2.351 . S
O406 C414 1.249 . S
O407 Dy396 2.326 . S
O407 C414 1.267 . S
O408 C397 1.185 . S
O408 Dy399 2.398 . S
O409 C397 1.355 . S
O409 Dy399 2.491 . S
O410 Dy399 2.403 . S
O410 C405 1.254 . S
O411 Dy396 2.310 . S
O411 Dy399 2.664 . S
O411 C405 1.268 . S
O412 Dy396 2.351 . S
O412 C415 1.249 . S
O413 Dy399 2.326 . S
O413 C415 1.267 . S
C414 O406 1.249 . S
C414 O407 1.267 . S
C415 O412 1.249 . S
C415 O413 1.267 . S
Dy416 O420 2.398 . S
Dy416 O421 2.491 1_455 S
Dy416 O422 2.403 . S
Dy416 O423 2.664 . S
Dy416 O427 2.326 . S
Dy416 O431 2.310 1_455 S
Dy416 O432 2.351 1_545 S
C417 O428 1.185 . S
C417 O429 1.355 . S
C418 O420 1.185 1_655 S
C418 O421 1.355 . S
Dy419 O423 2.310 . S
Dy419 O426 2.351 . S
Dy419 O428 2.398 . S
Dy419 O429 2.491 . S
Dy419 O430 2.403 1_455 S
Dy419 O431 2.664 1_455 S
Dy419 O433 2.329 1_545 S
O420 Dy416 2.398 . S
O420 C418 1.185 1_455 S
O421 Dy416 2.491 1_655 S
O421 C418 1.355 . S
O422 Dy416 2.403 . S
O422 C424 1.254 . S
O423 Dy416 2.664 . S
O423 Dy419 2.310 . S
O423 C424 1.268 . S
C424 O422 1.254 . S
C424 O423 1.268 . S
C425 O430 1.254 . S
C425 O431 1.268 . S
O426 Dy419 2.351 . S
O426 C434 1.249 . S
O427 Dy416 2.326 . S
O427 C434 1.267 . S
O428 C417 1.185 . S
O428 Dy419 2.398 . S
O429 C417 1.355 . S
O429 Dy419 2.491 . S
O430 Dy419 2.403 1_655 S
O430 C425 1.254 . S
O431 Dy416 2.310 1_655 S
O431 Dy419 2.664 1_655 S
O431 C425 1.268 . S
O432 Dy416 2.351 1_565 S
O432 C435 1.249 . S
O433 Dy419 2.329 1_565 S
O433 C435 1.265 . S
C434 O426 1.249 . S
C434 O427 1.267 . S
C435 O432 1.249 . S
C435 O433 1.265 . S
Dy436 O440 2.398 . S
Dy436 O441 2.491 . S
Dy436 O442 2.403 . S
Dy436 O443 2.664 . S
Dy436 O447 2.326 . S
Dy436 O451 2.310 . S
Dy436 O452 2.351 . S
C437 O448 1.185 . S
C437 O449 1.355 . S
C438 O440 1.185 . S
C438 O441 1.355 . S
Dy439 O443 2.310 . S
Dy439 O446 2.351 . S
Dy439 O448 2.398 . S
Dy439 O449 2.491 . S
Dy439 O450 2.403 . S
Dy439 O451 2.664 . S
Dy439 O453 2.326 . S
O440 Dy436 2.398 . S
O440 C438 1.185 . S
O441 Dy436 2.491 . S
O441 C438 1.355 . S
O442 Dy436 2.403 . S
O442 C444 1.254 . S
O443 Dy436 2.664 . S
O443 Dy439 2.310 . S
O443 C444 1.268 . S
C444 O442 1.254 . S
C444 O443 1.268 . S
C445 O450 1.254 . S
C445 O451 1.268 . S
O446 Dy439 2.351 . S
O446 C454 1.249 . S
O447 Dy436 2.326 . S
O447 C454 1.267 . S
O448 C437 1.185 . S
O448 Dy439 2.398 . S
O449 C437 1.355 . S
O449 Dy439 2.491 . S
O450 Dy439 2.403 . S
O450 C445 1.254 . S
O451 Dy436 2.310 . S
O451 Dy439 2.664 . S
O451 C445 1.268 . S
O452 Dy436 2.351 . S
O452 C455 1.249 . S
O453 Dy439 2.326 . S
O453 C455 1.267 . S
C454 O446 1.249 . S
C454 O447 1.267 . S
C455 O452 1.249 . S
C455 O453 1.267 . S
Dy456 O460 2.398 1_545 S
Dy456 O461 2.491 . S
Dy456 O462 2.403 1_545 S
Dy456 O463 2.709 . S
Dy456 O467 2.326 . S
Dy456 O471 2.310 . S
Dy456 O472 2.351 . S
C457 O468 1.185 . S
C457 O469 1.355 . S
C458 O460 1.185 1_545 S
C458 O461 1.355 . S
Dy459 O463 2.284 1_556 S
Dy459 O466 2.351 . S
Dy459 O468 2.398 . S
Dy459 O469 2.491 . S
Dy459 O470 2.413 . S
Dy459 O471 2.664 1_556 S
Dy459 O473 2.326 . S
O460 Dy456 2.398 1_565 S
O460 C458 1.185 1_565 S
O461 Dy456 2.491 . S
O461 C458 1.355 . S
O462 Dy456 2.403 1_565 S
O462 C464 1.254 . S
O463 Dy456 2.709 . S
O463 Dy459 2.284 1_554 S
O463 C464 1.285 1_545 S
C464 O462 1.254 . S
C464 O463 1.285 1_565 S
C465 O470 1.228 1_554 S
C465 O471 1.268 . S
O466 Dy459 2.351 . S
O466 C474 1.249 1_556 S
O467 Dy456 2.326 . S
O467 C474 1.267 . S
O468 C457 1.185 . S
O468 Dy459 2.398 . S
O469 C457 1.355 . S
O469 Dy459 2.491 . S
O470 Dy459 2.413 . S
O470 C465 1.228 1_556 S
O471 Dy456 2.310 . S
O471 Dy459 2.664 1_554 S
O471 C465 1.268 . S
O472 Dy456 2.351 . S
O472 C475 1.249 . S
O473 Dy459 2.326 . S
O473 C475 1.267 1_556 S
C474 O466 1.249 1_554 S
C474 O467 1.267 . S
C475 O472 1.249 . S
C475 O473 1.267 1_554 S
Dy476 O480 2.398 . S
Dy476 O481 2.491 . S
Dy476 O482 2.403 . S
Dy476 O483 2.664 . S
Dy476 O487 2.326 . S
Dy476 O491 2.310 . S
Dy476 O492 2.351 . S
C477 O488 1.185 . S
C477 O489 1.355 . S
C478 O480 1.185 . S
C478 O481 1.355 . S
Dy479 O483 2.310 . S
Dy479 O486 2.351 . S
Dy479 O488 2.398 . S
Dy479 O489 2.491 . S
Dy479 O490 2.403 . S
Dy479 O491 2.664 . S
Dy479 O493 2.326 . S
O480 Dy476 2.398 . S
O480 C478 1.185 . S
O481 Dy476 2.491 . S
O481 C478 1.355 . S
O482 Dy476 2.403 . S
O482 C484 1.254 . S
O483 Dy476 2.664 . S
O483 Dy479 2.310 . S
O483 C484 1.268 . S
C484 O482 1.254 . S
C484 O483 1.268 . S
C485 O490 1.254 . S
C485 O491 1.268 . S
O486 Dy479 2.351 . S
O486 C494 1.249 . S
O487 Dy476 2.326 . S
O487 C494 1.267 . S
O488 C477 1.185 . S
O488 Dy479 2.398 . S
O489 C477 1.355 . S
O489 Dy479 2.491 . S
O490 Dy479 2.403 . S
O490 C485 1.254 . S
O491 Dy476 2.310 . S
O491 Dy479 2.664 . S
O491 C485 1.268 . S
O492 Dy476 2.351 . S
O492 C495 1.249 . S
O493 Dy479 2.326 . S
O493 C495 1.267 . S
C494 O486 1.249 . S
C494 O487 1.267 . S
C495 O492 1.249 . S
C495 O493 1.267 . S
Dy496 O500 2.398 . S
Dy496 O501 2.491 . S
Dy496 O502 2.403 . S
Dy496 O503 2.664 1_556 S
Dy496 O507 2.326 . S
Dy496 O511 2.310 1_556 S
Dy496 O512 2.351 1_556 S
C497 O508 1.185 . S
C497 O509 1.355 . S
C498 O500 1.185 . S
C498 O501 1.355 . S
Dy499 O503 2.310 . S
Dy499 O506 2.351 . S
Dy499 O508 2.398 . S
Dy499 O509 2.491 . S
Dy499 O510 2.403 . S
Dy499 O511 2.664 . S
Dy499 O513 2.326 . S
O500 Dy496 2.398 . S
O500 C498 1.185 . S
O501 Dy496 2.491 . S
O501 C498 1.355 . S
O502 Dy496 2.403 . S
O502 C504 1.254 1_556 S
O503 Dy496 2.664 1_554 S
O503 Dy499 2.310 . S
O503 C504 1.268 . S
C504 O502 1.254 1_554 S
C504 O503 1.268 . S
C505 O510 1.254 . S
C505 O511 1.268 . S
O506 Dy499 2.351 . S
O506 C514 1.249 1_554 S
O507 Dy496 2.326 . S
O507 C514 1.267 . S
O508 C497 1.185 . S
O508 Dy499 2.398 . S
O509 C497 1.355 . S
O509 Dy499 2.491 . S
O510 Dy499 2.403 . S
O510 C505 1.254 . S
O511 Dy496 2.310 1_554 S
O511 Dy499 2.664 . S
O511 C505 1.268 . S
O512 Dy496 2.351 1_554 S
O512 C515 1.249 . S
O513 Dy499 2.326 . S
O513 C515 1.267 . S
C514 O506 1.249 1_556 S
C514 O507 1.267 . S
C515 O512 1.249 . S
C515 O513 1.267 . S
Dy516 O520 2.398 . S
Dy516 O521 2.491 . S
Dy516 O522 2.403 . S
Dy516 O523 2.664 . S
Dy516 O527 2.326 . S
Dy516 O531 2.310 . S
Dy516 O532 2.351 . S
C517 O528 1.185 . S
C517 O529 1.355 . S
C518 O520 1.185 . S
C518 O521 1.355 . S
Dy519 O523 2.310 . S
Dy519 O526 2.351 . S
Dy519 O528 2.398 . S
Dy519 O529 2.491 . S
Dy519 O530 2.403 . S
Dy519 O531 2.664 . S
Dy519 O533 2.326 . S
O520 Dy516 2.398 . S
O520 C518 1.185 . S
O521 Dy516 2.491 . S
O521 C518 1.355 . S
O522 Dy516 2.403 . S
O522 C524 1.254 . S
O523 Dy516 2.664 . S
O523 Dy519 2.310 . S
O523 C524 1.268 . S
C524 O522 1.254 . S
C524 O523 1.268 . S
C525 O530 1.254 . S
C525 O531 1.268 . S
O526 Dy519 2.351 . S
O526 C534 1.249 . S
O527 Dy516 2.326 . S
O527 C534 1.267 . S
O528 C517 1.185 . S
O528 Dy519 2.398 . S
O529 C517 1.355 . S
O529 Dy519 2.491 . S
O530 Dy519 2.403 . S
O530 C525 1.254 . S
O531 Dy516 2.310 . S
O531 Dy519 2.664 . S
O531 C525 1.268 . S
O532 Dy516 2.351 . S
O532 C535 1.249 . S
O533 Dy519 2.326 . S
O533 C535 1.267 . S
C534 O526 1.249 . S
C534 O527 1.267 . S
C535 O532 1.249 . S
C535 O533 1.267 . S
Dy536 O540 2.398 1_455 S
Dy536 O541 2.491 1_455 S
Dy536 O542 2.403 . S
Dy536 O543 2.664 . S
Dy536 O547 2.326 1_455 S
Dy536 O551 2.310 . S
Dy536 O552 2.351 . S
C537 O548 1.185 . S
C537 O549 1.355 . S
C538 O540 1.185 . S
C538 O541 1.355 . S
Dy539 O543 2.310 . S
Dy539 O546 2.351 1_455 S
Dy539 O548 2.398 . S
Dy539 O549 2.491 . S
Dy539 O550 2.403 . S
Dy539 O551 2.664 . S
Dy539 O553 2.326 . S
O540 Dy536 2.398 1_655 S
O540 C538 1.185 . S
O541 Dy536 2.491 1_655 S
O541 C538 1.355 . S
O542 Dy536 2.403 . S
O542 C544 1.254 . S
O543 Dy536 2.664 . S
O543 Dy539 2.310 . S
O543 C544 1.268 . S
C544 O542 1.254 . S
C544 O543 1.268 . S
C545 O550 1.254 . S
C545 O551 1.268 . S
O546 Dy539 2.351 1_655 S
O546 C554 1.249 . S
O547 Dy536 2.326 1_655 S
O547 C554 1.267 . S
O548 C537 1.185 . S
O548 Dy539 2.398 . S
O549 C537 1.355 . S
O549 Dy539 2.491 . S
O550 Dy539 2.403 . S
O550 C545 1.254 . S
O551 Dy536 2.310 . S
O551 Dy539 2.664 . S
O551 C545 1.268 . S
O552 Dy536 2.351 . S
O552 C555 1.249 . S
O553 Dy539 2.326 . S
O553 C555 1.267 . S
C554 O546 1.249 . S
C554 O547 1.267 . S
C555 O552 1.249 . S
C555 O553 1.267 . S
Dy556 O560 2.398 . S
Dy556 O561 2.491 . S
Dy556 O562 2.403 . S
Dy556 O563 2.664 . S
Dy556 O567 2.326 . S
Dy556 O571 2.310 . S
Dy556 O572 2.351 . S
C557 O568 1.185 . S
C557 O569 1.355 . S
C558 O560 1.185 . S
C558 O561 1.355 . S
Dy559 O563 2.310 . S
Dy559 O566 2.351 . S
Dy559 O568 2.398 . S
Dy559 O569 2.491 . S
Dy559 O570 2.403 . S
Dy559 O571 2.664 . S
Dy559 O573 2.326 . S
O560 Dy556 2.398 . S
O560 C558 1.185 . S
O561 Dy556 2.491 . S
O561 C558 1.355 . S
O562 Dy556 2.403 . S
O562 C564 1.254 . S
O563 Dy556 2.664 . S
O563 Dy559 2.310 . S
O563 C564 1.268 . S
C564 O562 1.254 . S
C564 O563 1.268 . S
C565 O570 1.254 . S
C565 O571 1.268 . S
O566 Dy559 2.351 . S
O566 C574 1.249 . S
O567 Dy556 2.326 . S
O567 C574 1.267 . S
O568 C557 1.185 . S
O568 Dy559 2.398 . S
O569 C557 1.355 . S
O569 Dy559 2.491 . S
O570 Dy559 2.403 . S
O570 C565 1.254 . S
O571 Dy556 2.310 . S
O571 Dy559 2.664 . S
O571 C565 1.268 . S
O572 Dy556 2.351 . S
O572 C575 1.249 . S
O573 Dy559 2.326 . S
O573 C575 1.267 . S
C574 O566 1.249 . S
C574 O567 1.267 . S
C575 O572 1.249 . S
C575 O573 1.267 . S
Dy576 O580 2.398 . S
Dy576 O581 2.491 . S
Dy576 O582 2.403 . S
Dy576 O583 2.664 . S
Dy576 O587 2.326 . S
Dy576 O591 2.310 . S
Dy576 O592 2.351 . S
C577 O588 1.185 . S
C577 O589 1.355 . S
C578 O580 1.185 . S
C578 O581 1.355 . S
Dy579 O583 2.310 . S
Dy579 O586 2.351 . S
Dy579 O588 2.398 . S
Dy579 O589 2.491 . S
Dy579 O590 2.403 . S
Dy579 O591 2.664 . S
Dy579 O593 2.326 . S
O580 Dy576 2.398 . S
O580 C578 1.185 . S
O581 Dy576 2.491 . S
O581 C578 1.355 . S
O582 Dy576 2.403 . S
O582 C584 1.254 . S
O583 Dy576 2.664 . S
O583 Dy579 2.310 . S
O583 C584 1.268 . S
C584 O582 1.254 . S
C584 O583 1.268 . S
C585 O590 1.254 . S
C585 O591 1.268 . S
O586 Dy579 2.351 . S
O586 C594 1.249 . S
O587 Dy576 2.326 . S
O587 C594 1.267 . S
O588 C577 1.185 . S
O588 Dy579 2.398 . S
O589 C577 1.355 . S
O589 Dy579 2.491 . S
O590 Dy579 2.403 . S
O590 C585 1.254 . S
O591 Dy576 2.310 . S
O591 Dy579 2.664 . S
O591 C585 1.268 . S
O592 Dy576 2.351 . S
O592 C595 1.249 . S
O593 Dy579 2.326 . S
O593 C595 1.267 . S
C594 O586 1.249 . S
C594 O587 1.267 . S
C595 O592 1.249 . S
C595 O593 1.267 . S
Dy596 O600 2.398 . S
Dy596 O601 2.491 . S
Dy596 O602 2.403 . S
Dy596 O603 2.664 . S
Dy596 O607 2.326 . S
Dy596 O611 2.310 . S
Dy596 O612 2.351 . S
C597 O608 1.185 . S
C597 O609 1.355 . S
C598 O600 1.185 . S
C598 O601 1.355 . S
Dy599 O603 2.310 . S
Dy599 O606 2.351 . S
Dy599 O608 2.398 . S
Dy599 O609 2.491 . S
Dy599 O610 2.403 . S
Dy599 O611 2.664 . S
Dy599 O613 2.326 . S
O600 Dy596 2.398 . S
O600 C598 1.185 . S
O601 Dy596 2.491 . S
O601 C598 1.355 . S
O602 Dy596 2.403 . S
O602 C604 1.254 . S
O603 Dy596 2.664 . S
O603 Dy599 2.310 . S
O603 C604 1.268 . S
C604 O602 1.254 . S
C604 O603 1.268 . S
C605 O610 1.254 . S
C605 O611 1.268 . S
O606 Dy599 2.351 . S
O606 C614 1.249 . S
O607 Dy596 2.326 . S
O607 C614 1.267 . S
O608 C597 1.185 . S
O608 Dy599 2.398 . S
O609 C597 1.355 . S
O609 Dy599 2.491 . S
O610 Dy599 2.403 . S
O610 C605 1.254 . S
O611 Dy596 2.310 . S
O611 Dy599 2.664 . S
O611 C605 1.268 . S
O612 Dy596 2.351 . S
O612 C615 1.249 . S
O613 Dy599 2.326 . S
O613 C615 1.267 . S
C614 O606 1.249 . S
C614 O607 1.267 . S
C615 O612 1.249 . S
C615 O613 1.267 . S
Dy616 O620 2.398 . S
Dy616 O621 2.491 . S
Dy616 O622 2.403 . S
Dy616 O623 2.664 . S
Dy616 O627 2.326 . S
Dy616 O631 2.310 . S
Dy616 O632 2.351 . S
C617 O628 1.185 . S
C617 O629 1.355 . S
C618 O620 1.185 . S
C618 O621 1.355 . S
Dy619 O623 2.310 . S
Dy619 O626 2.351 . S
Dy619 O628 2.398 . S
Dy619 O629 2.491 . S
Dy619 O630 2.403 . S
Dy619 O631 2.664 . S
Dy619 O633 2.326 . S
O620 Dy616 2.398 . S
O620 C618 1.185 . S
O621 Dy616 2.491 . S
O621 C618 1.355 . S
O622 Dy616 2.403 . S
O622 C624 1.254 . S
O623 Dy616 2.664 . S
O623 Dy619 2.310 . S
O623 C624 1.268 . S
C624 O622 1.254 . S
C624 O623 1.268 . S
C625 O630 1.254 . S
C625 O631 1.268 . S
O626 Dy619 2.351 . S
O626 C634 1.249 . S
O627 Dy616 2.326 . S
O627 C634 1.267 . S
O628 C617 1.185 . S
O628 Dy619 2.398 . S
O629 C617 1.355 . S
O629 Dy619 2.491 . S
O630 Dy619 2.403 . S
O630 C625 1.254 . S
O631 Dy616 2.310 . S
O631 Dy619 2.664 . S
O631 C625 1.268 . S
O632 Dy616 2.351 . S
O632 C635 1.249 . S
O633 Dy619 2.326 . S
O633 C635 1.267 . S
C634 O626 1.249 . S
C634 O627 1.267 . S
C635 O632 1.249 . S
C635 O633 1.267 . S
Dy636 O640 2.398 1_554 S
Dy636 O641 2.491 . S
Dy636 O642 2.403 1_554 S
Dy636 O643 2.664 1_554 S
Dy636 O647 2.326 1_554 S
Dy636 O651 2.310 . S
Dy636 O652 2.351 . S
C637 O648 1.185 . S
C637 O649 1.355 . S
C638 O640 1.209 . S
C638 O641 1.324 1_556 S
Dy639 O643 2.310 1_654 S
Dy639 O646 2.351 . S
Dy639 O648 2.398 . S
Dy639 O649 2.491 . S
Dy639 O650 2.403 . S
Dy639 O651 2.664 1_655 S
Dy639 O653 2.311 1_655 S
O640 Dy636 2.398 1_556 S
O640 C638 1.209 . S
O641 Dy636 2.491 . S
O641 C638 1.324 1_554 S
O642 Dy636 2.403 1_556 S
O642 C644 1.254 . S
O643 Dy636 2.664 1_556 S
O643 Dy639 2.310 1_456 S
O643 C644 1.268 . S
C644 O642 1.254 . S
C644 O643 1.268 . S
C645 O650 1.254 1_455 S
C645 O651 1.268 . S
O646 Dy639 2.351 . S
O646 C654 1.249 1_655 S
O647 Dy636 2.326 1_556 S
O647 C654 1.267 1_556 S
O648 C637 1.185 . S
O648 Dy639 2.398 . S
O649 C637 1.355 . S
O649 Dy639 2.491 . S
O650 Dy639 2.403 . S
O650 C645 1.254 1_655 S
O651 Dy636 2.310 . S
O651 Dy639 2.664 1_455 S
O651 C645 1.268 . S
O652 Dy636 2.351 . S
O652 C655 1.249 . S
O653 Dy639 2.311 1_455 S
O653 C655 1.299 . S
C654 O646 1.249 1_455 S
C654 O647 1.267 1_554 S
C655 O652 1.249 . S
C655 O653 1.299 . S
H656 C674 0.951 . S
H657 C676 0.951 . S
H658 C678 0.950 . S
H659 C679 0.950 . S
H660 C681 0.950 . S
H661 C684 0.950 . S
H662 C685 0.950 . S
H663 C687 0.950 . S
H664 C688 0.950 . S
H665 C689 0.951 . S
H666 C691 0.951 . S
H667 C693 0.950 . S
H668 C694 0.950 . S
H669 C696 0.950 . S
H670 C699 0.950 . S
H671 C700 0.950 . S
H672 C702 0.950 . S
H673 C703 0.950 . S
C674 H656 0.951 . S
C674 C675 1.366 . S
C674 C676 1.388 . S
C675 C674 1.366 . S
C675 C679 1.385 1_455 S
C676 H657 0.951 . S
C676 C674 1.388 . S
C676 C677 1.366 . S
C677 C676 1.366 . S
C677 C678 1.414 1_455 S
C677 C680 1.499 . S
C678 H658 0.950 . S
C678 C677 1.414 1_655 S
C678 C679 1.374 . S
C679 H659 0.950 . S
C679 C675 1.385 1_655 S
C679 C678 1.374 . S
C680 C677 1.499 . S
C680 C681 1.373 1_455 S
C680 C682 1.389 . S
C681 H660 0.950 . S
C681 C680 1.373 1_655 S
C681 C697 1.377 . S
C682 C680 1.389 . S
C682 C683 1.524 . S
C682 C696 1.377 . S
C683 C682 1.524 . S
C683 C684 1.397 . S
C683 C688 1.363 . S
C684 H661 0.950 . S
C684 C683 1.397 . S
C684 C685 1.334 . S
C685 H662 0.950 . S
C685 C684 1.334 . S
C685 C686 1.287 . S
C686 C685 1.287 . S
C686 C687 1.524 . S
C686 H705 0.913 . S
C687 H663 0.950 . S
C687 C686 1.524 . S
C687 C688 1.415 . S
C688 H664 0.950 . S
C688 C683 1.363 . S
C688 C687 1.415 . S
C689 H665 0.951 . S
C689 C690 1.345 1_656 S
C689 C691 1.388 . S
C690 C689 1.345 1_454 S
C690 C694 1.385 . S
C691 H666 0.951 . S
C691 C689 1.388 . S
C691 C692 1.366 1_655 S
C692 C691 1.366 1_455 S
C692 C693 1.414 . S
C692 C695 1.499 . S
C693 H667 0.950 . S
C693 C692 1.414 . S
C693 C694 1.374 1_556 S
C694 H668 0.950 . S
C694 C690 1.385 . S
C694 C693 1.374 1_554 S
C695 C692 1.499 . S
C695 C696 1.373 . S
C695 C697 1.389 1_455 S
C696 H669 0.950 . S
C696 C682 1.377 . S
C696 C695 1.373 . S
C697 C681 1.377 . S
C697 C695 1.389 1_655 S
C697 C698 1.524 . S
C698 C697 1.524 . S
C698 C699 1.397 1_556 S
C698 C703 1.363 . S
C699 H670 0.950 . S
C699 C698 1.397 1_554 S
C699 C700 1.334 . S
C700 H671 0.950 . S
C700 C699 1.334 . S
C700 C701 1.287 . S
C701 C700 1.287 . S
C701 C702 1.524 1_554 S
C701 H704 0.999 . S
C702 H672 0.950 . S
C702 C701 1.524 1_556 S
C702 C703 1.415 . S
C703 H673 0.950 . S
C703 C698 1.363 . S
C703 C702 1.415 . S
H704 C701 0.999 . S
H705 C686 0.913 . S
H706 C724 0.951 . S
H707 C726 0.951 . S
H708 C728 0.950 . S
H709 C729 0.950 . S
H710 C731 0.950 . S
H711 C734 0.950 . S
H712 C735 0.950 . S
H713 C737 0.950 . S
H714 C738 0.950 . S
H715 C739 0.951 . S
H716 C741 0.951 . S
H717 C743 0.950 . S
H718 C744 0.950 . S
H719 C746 0.950 . S
H720 C749 0.950 . S
H721 C750 0.950 . S
H722 C752 0.950 . S
H723 C753 0.950 . S
C724 H706 0.951 . S
C724 C725 1.366 . S
C724 C726 1.388 . S
C725 C724 1.366 . S
C725 C729 1.385 . S
C726 H707 0.951 . S
C726 C724 1.388 . S
C726 C727 1.366 . S
C727 C726 1.366 . S
C727 C728 1.414 . S
C727 C730 1.499 . S
C728 H708 0.950 . S
C728 C727 1.414 . S
C728 C729 1.374 . S
C729 H709 0.950 . S
C729 C725 1.385 . S
C729 C728 1.374 . S
C730 C727 1.499 . S
C730 C731 1.373 . S
C730 C732 1.389 . S
C731 H710 0.950 . S
C731 C730 1.373 . S
C731 C747 1.377 . S
C732 C730 1.389 . S
C732 C733 1.524 . S
C732 C746 1.377 . S
C733 C732 1.524 . S
C733 C734 1.397 . S
C733 C738 1.363 . S
C734 H711 0.950 . S
C734 C733 1.397 . S
C734 C735 1.334 . S
C735 H712 0.950 . S
C735 C734 1.334 . S
C735 C736 1.287 . S
C736 C735 1.287 . S
C736 C737 1.524 . S
C736 H755 0.913 . S
C737 H713 0.950 . S
C737 C736 1.524 . S
C737 C738 1.415 . S
C738 H714 0.950 . S
C738 C733 1.363 . S
C738 C737 1.415 . S
C739 H715 0.951 . S
C739 C740 1.366 . S
C739 C741 1.388 . S
C740 C739 1.366 . S
C740 C744 1.385 . S
C741 H716 0.951 . S
C741 C739 1.388 . S
C741 C742 1.366 . S
C742 C741 1.366 . S
C742 C743 1.414 . S
C742 C745 1.499 . S
C743 H717 0.950 . S
C743 C742 1.414 . S
C743 C744 1.374 . S
C744 H718 0.950 . S
C744 C740 1.385 . S
C744 C743 1.374 . S
C745 C742 1.499 . S
C745 C746 1.373 . S
C745 C747 1.389 . S
C746 H719 0.950 . S
C746 C732 1.377 . S
C746 C745 1.373 . S
C747 C731 1.377 . S
C747 C745 1.389 . S
C747 C748 1.524 . S
C748 C747 1.524 . S
C748 C749 1.397 . S
C748 C753 1.363 . S
C749 H720 0.950 . S
C749 C748 1.397 . S
C749 C750 1.334 . S
C750 H721 0.950 . S
C750 C749 1.334 . S
C750 C751 1.287 . S
C751 C750 1.287 . S
C751 C752 1.524 . S
C751 H754 0.999 . S
C752 H722 0.950 . S
C752 C751 1.524 . S
C752 C753 1.415 . S
C753 H723 0.950 . S
C753 C748 1.363 . S
C753 C752 1.415 . S
H754 C751 0.999 . S
H755 C736 0.913 . S
H756 C774 0.951 . S
H757 C776 0.951 . S
H758 C778 0.950 . S
H759 C779 0.950 . S
H760 C781 0.950 . S
H761 C784 0.950 . S
H762 C785 0.950 . S
H763 C787 0.950 . S
H764 C788 0.950 . S
H765 C789 0.951 . S
H766 C791 0.951 . S
H767 C793 0.950 . S
H768 C794 0.950 . S
H769 C796 0.950 . S
H770 C799 0.950 . S
H771 C800 0.950 . S
H772 C802 0.950 . S
H773 C803 0.950 . S
C774 H756 0.951 . S
C774 C775 1.366 . S
C774 C776 1.388 . S
C775 C774 1.366 . S
C775 C779 1.385 . S
C776 H757 0.951 . S
C776 C774 1.388 . S
C776 C777 1.366 . S
C777 C776 1.366 . S
C777 C778 1.414 . S
C777 C780 1.499 . S
C778 H758 0.950 . S
C778 C777 1.414 . S
C778 C779 1.374 . S
C779 H759 0.950 . S
C779 C775 1.385 . S
C779 C778 1.374 . S
C780 C777 1.499 . S
C780 C781 1.373 . S
C780 C782 1.389 . S
C781 H760 0.950 . S
C781 C780 1.373 . S
C781 C797 1.377 . S
C782 C780 1.389 . S
C782 C783 1.524 . S
C782 C796 1.377 . S
C783 C782 1.524 . S
C783 C784 1.397 . S
C783 C788 1.363 . S
C784 H761 0.950 . S
C784 C783 1.397 . S
C784 C785 1.334 . S
C785 H762 0.950 . S
C785 C784 1.334 . S
C785 C786 1.287 . S
C786 C785 1.287 . S
C786 C787 1.524 . S
C786 H805 0.913 . S
C787 H763 0.950 . S
C787 C786 1.524 . S
C787 C788 1.415 . S
C788 H764 0.950 . S
C788 C783 1.363 . S
C788 C787 1.415 . S
C789 H765 0.951 . S
C789 C790 1.366 . S
C789 C791 1.388 . S
C790 C789 1.366 . S
C790 C794 1.385 . S
C791 H766 0.951 . S
C791 C789 1.388 . S
C791 C792 1.366 . S
C792 C791 1.366 . S
C792 C793 1.414 . S
C792 C795 1.499 . S
C793 H767 0.950 . S
C793 C792 1.414 . S
C793 C794 1.374 . S
C794 H768 0.950 . S
C794 C790 1.385 . S
C794 C793 1.374 . S
C795 C792 1.499 . S
C795 C796 1.373 . S
C795 C797 1.389 . S
C796 H769 0.950 . S
C796 C782 1.377 . S
C796 C795 1.373 . S
C797 C781 1.377 . S
C797 C795 1.389 . S
C797 C798 1.524 . S
C798 C797 1.524 . S
C798 C799 1.397 . S
C798 C803 1.363 . S
C799 H770 0.950 . S
C799 C798 1.397 . S
C799 C800 1.334 . S
C800 H771 0.950 . S
C800 C799 1.334 . S
C800 C801 1.287 . S
C801 C800 1.287 . S
C801 C802 1.524 . S
C801 H804 0.999 . S
C802 H772 0.950 . S
C802 C801 1.524 . S
C802 C803 1.415 . S
C803 H773 0.950 . S
C803 C798 1.363 . S
C803 C802 1.415 . S
H804 C801 0.999 . S
H805 C786 0.913 . S
H806 C824 0.951 . S
H807 C826 0.951 . S
H808 C828 0.950 . S
H809 C829 0.950 . S
H810 C831 0.950 . S
H811 C834 0.950 . S
H812 C835 0.950 . S
H813 C837 0.950 . S
H814 C838 0.950 . S
H815 C839 0.951 . S
H816 C841 0.951 . S
H817 C843 0.950 . S
H818 C844 0.950 . S
H819 C846 0.950 . S
H820 C849 0.950 . S
H821 C850 0.950 . S
H822 C852 0.950 . S
H823 C853 0.950 . S
C824 H806 0.951 . S
C824 C825 1.366 . S
C824 C826 1.388 . S
C825 C824 1.366 . S
C825 C829 1.385 . S
C826 H807 0.951 . S
C826 C824 1.388 . S
C826 C827 1.366 . S
C827 C826 1.366 . S
C827 C828 1.414 . S
C827 C830 1.499 . S
C828 H808 0.950 . S
C828 C827 1.414 . S
C828 C829 1.374 . S
C829 H809 0.950 . S
C829 C825 1.385 . S
C829 C828 1.374 . S
C830 C827 1.499 . S
C830 C831 1.373 . S
C830 C832 1.389 . S
C831 H810 0.950 . S
C831 C830 1.373 . S
C831 C847 1.377 . S
C832 C830 1.389 . S
C832 C833 1.524 . S
C832 C846 1.377 . S
C833 C832 1.524 . S
C833 C834 1.397 . S
C833 C838 1.363 . S
C834 H811 0.950 . S
C834 C833 1.397 . S
C834 C835 1.334 . S
C835 H812 0.950 . S
C835 C834 1.334 . S
C835 C836 1.287 . S
C836 C835 1.287 . S
C836 C837 1.524 . S
C836 H855 0.913 . S
C837 H813 0.950 . S
C837 C836 1.524 . S
C837 C838 1.415 . S
C838 H814 0.950 . S
C838 C833 1.363 . S
C838 C837 1.415 . S
C839 H815 0.951 . S
C839 C840 1.366 . S
C839 C841 1.388 . S
C840 C839 1.366 . S
C840 C844 1.385 . S
C841 H816 0.951 . S
C841 C839 1.388 . S
C841 C842 1.366 . S
C842 C841 1.366 . S
C842 C843 1.414 . S
C842 C845 1.499 . S
C843 H817 0.950 . S
C843 C842 1.414 . S
C843 C844 1.374 . S
C844 H818 0.950 . S
C844 C840 1.385 . S
C844 C843 1.374 . S
C845 C842 1.499 . S
C845 C846 1.373 . S
C845 C847 1.389 . S
C846 H819 0.950 . S
C846 C832 1.377 . S
C846 C845 1.373 . S
C847 C831 1.377 . S
C847 C845 1.389 . S
C847 C848 1.524 . S
C848 C847 1.524 . S
C848 C849 1.397 . S
C848 C853 1.363 . S
C849 H820 0.950 . S
C849 C848 1.397 . S
C849 C850 1.334 . S
C850 H821 0.950 . S
C850 C849 1.334 . S
C850 C851 1.287 . S
C851 C850 1.287 . S
C851 C852 1.524 . S
C851 H854 0.999 . S
C852 H822 0.950 . S
C852 C851 1.524 . S
C852 C853 1.415 . S
C853 H823 0.950 . S
C853 C848 1.363 . S
C853 C852 1.415 . S
H854 C851 0.999 . S
H855 C836 0.913 . S
H856 C874 0.951 . S
H857 C876 0.951 . S
H858 C878 0.950 . S
H859 C879 0.950 . S
H860 C881 0.950 1_655 S
H861 C884 0.950 . S
H862 C885 0.950 . S
H863 C887 0.950 . S
H864 C888 0.950 . S
H865 C889 0.951 1_655 S
H866 C891 0.951 1_655 S
H867 C893 0.950 . S
H868 C894 0.950 . S
H869 C896 0.950 . S
H870 C899 0.950 1_455 S
H871 C900 0.950 . S
H872 C902 0.950 . S
H873 C903 0.950 . S
C874 H856 0.951 . S
C874 C875 1.366 . S
C874 C876 1.388 . S
C875 C874 1.366 . S
C875 C879 1.385 1_455 S
C876 H857 0.951 . S
C876 C874 1.388 . S
C876 C877 1.366 . S
C877 C876 1.366 . S
C877 C878 1.414 1_455 S
C877 C880 1.499 . S
C878 H858 0.950 . S
C878 C877 1.414 1_655 S
C878 C879 1.374 . S
C879 H859 0.950 . S
C879 C875 1.385 1_655 S
C879 C878 1.374 . S
C880 C877 1.499 . S
C880 C881 1.373 . S
C880 C882 1.389 . S
C881 H860 0.950 1_455 S
C881 C880 1.373 . S
C881 C897 1.377 . S
C882 C880 1.389 . S
C882 C883 1.524 . S
C882 C896 1.377 . S
C883 C882 1.524 . S
C883 C884 1.397 . S
C883 C888 1.363 . S
C884 H861 0.950 . S
C884 C883 1.397 . S
C884 C885 1.334 . S
C885 H862 0.950 . S
C885 C884 1.334 . S
C885 C886 1.287 . S
C886 C885 1.287 . S
C886 C887 1.524 . S
C886 H905 0.913 . S
C887 H863 0.950 . S
C887 C886 1.524 . S
C887 C888 1.415 . S
C888 H864 0.950 . S
C888 C883 1.363 . S
C888 C887 1.415 . S
C889 H865 0.951 1_455 S
C889 C890 1.366 . S
C889 C891 1.388 . S
C890 C889 1.366 . S
C890 C894 1.385 . S
C891 H866 0.951 1_455 S
C891 C889 1.388 . S
C891 C892 1.366 . S
C892 C891 1.366 . S
C892 C893 1.414 . S
C892 C895 1.499 . S
C893 H867 0.950 . S
C893 C892 1.414 . S
C893 C894 1.374 . S
C894 H868 0.950 . S
C894 C890 1.385 . S
C894 C893 1.374 . S
C895 C892 1.499 . S
C895 C896 1.373 . S
C895 C897 1.389 . S
C896 H869 0.950 . S
C896 C882 1.377 . S
C896 C895 1.373 . S
C897 C881 1.377 . S
C897 C895 1.389 . S
C897 C898 1.524 1_455 S
C898 C897 1.524 1_655 S
C898 C899 1.397 . S
C898 C903 1.363 . S
C899 H870 0.950 1_655 S
C899 C898 1.397 . S
C899 C900 1.334 . S
C900 H871 0.950 . S
C900 C899 1.334 . S
C900 C901 1.287 . S
C901 C900 1.287 . S
C901 C902 1.524 . S
C901 H904 0.999 . S
C902 H872 0.950 . S
C902 C901 1.524 . S
C902 C903 1.415 . S
C903 H873 0.950 . S
C903 C898 1.363 . S
C903 C902 1.415 . S
H904 C901 0.999 . S
H905 C886 0.913 . S
H906 C924 0.951 . S
H907 C926 0.951 . S
H908 C928 0.950 . S
H909 C929 0.950 . S
H910 C931 0.950 . S
H911 C934 0.950 . S
H912 C935 0.950 . S
H913 C937 0.950 . S
H914 C938 0.950 . S
H915 C939 0.951 . S
H916 C941 0.951 . S
H917 C943 0.950 . S
H918 C944 0.950 . S
H919 C946 0.950 . S
H920 C949 0.950 . S
H921 C950 0.950 . S
H922 C952 0.950 . S
H923 C953 0.950 . S
C924 H906 0.951 . S
C924 C925 1.366 . S
C924 C926 1.388 . S
C925 C924 1.366 . S
C925 C929 1.385 . S
C926 H907 0.951 . S
C926 C924 1.388 . S
C926 C927 1.366 . S
C927 C926 1.366 . S
C927 C928 1.414 . S
C927 C930 1.499 . S
C928 H908 0.950 . S
C928 C927 1.414 . S
C928 C929 1.374 . S
C929 H909 0.950 . S
C929 C925 1.385 . S
C929 C928 1.374 . S
C930 C927 1.499 . S
C930 C931 1.373 . S
C930 C932 1.389 . S
C931 H910 0.950 . S
C931 C930 1.373 . S
C931 C947 1.377 . S
C932 C930 1.389 . S
C932 C933 1.524 . S
C932 C946 1.377 . S
C933 C932 1.524 . S
C933 C934 1.397 . S
C933 C938 1.363 . S
C934 H911 0.950 . S
C934 C933 1.397 . S
C934 C935 1.334 . S
C935 H912 0.950 . S
C935 C934 1.334 . S
C935 C936 1.287 . S
C936 C935 1.287 . S
C936 C937 1.524 . S
C936 H955 0.913 . S
C937 H913 0.950 . S
C937 C936 1.524 . S
C937 C938 1.415 . S
C938 H914 0.950 . S
C938 C933 1.363 . S
C938 C937 1.415 . S
C939 H915 0.951 . S
C939 C940 1.366 . S
C939 C941 1.388 . S
C940 C939 1.366 . S
C940 C944 1.385 . S
C941 H916 0.951 . S
C941 C939 1.388 . S
C941 C942 1.366 . S
C942 C941 1.366 . S
C942 C943 1.414 . S
C942 C945 1.499 . S
C943 H917 0.950 . S
C943 C942 1.414 . S
C943 C944 1.374 . S
C944 H918 0.950 . S
C944 C940 1.385 . S
C944 C943 1.374 . S
C945 C942 1.499 . S
C945 C946 1.373 . S
C945 C947 1.389 . S
C946 H919 0.950 . S
C946 C932 1.377 . S
C946 C945 1.373 . S
C947 C931 1.377 . S
C947 C945 1.389 . S
C947 C948 1.524 . S
C948 C947 1.524 . S
C948 C949 1.397 . S
C948 C953 1.363 . S
C949 H920 0.950 . S
C949 C948 1.397 . S
C949 C950 1.334 . S
C950 H921 0.950 . S
C950 C949 1.334 . S
C950 C951 1.287 . S
C951 C950 1.287 . S
C951 C952 1.524 . S
C951 H954 0.999 . S
C952 H922 0.950 . S
C952 C951 1.524 . S
C952 C953 1.415 . S
C953 H923 0.950 . S
C953 C948 1.363 . S
C953 C952 1.415 . S
H954 C951 0.999 . S
H955 C936 0.913 . S
H956 C974 0.951 . S
H957 C976 0.951 . S
H958 C978 0.950 . S
H959 C979 0.950 . S
H960 C981 0.950 . S
H961 C984 0.950 . S
H962 C985 0.950 . S
H963 C987 0.950 . S
H964 C988 0.950 . S
H965 C989 0.951 . S
H966 C991 0.951 . S
H967 C993 0.950 . S
H968 C994 0.950 . S
H969 C996 0.950 . S
H970 C999 0.950 . S
H971 C1000 0.950 1_556 S
H972 C1002 0.950 . S
H973 C1003 0.950 . S
C974 H956 0.951 . S
C974 C975 1.366 . S
C974 C976 1.388 . S
C975 C974 1.366 . S
C975 C979 1.385 . S
C976 H957 0.951 . S
C976 C974 1.388 . S
C976 C977 1.366 . S
C977 C976 1.366 . S
C977 C978 1.414 . S
C977 C980 1.499 . S
C978 H958 0.950 . S
C978 C977 1.414 . S
C978 C979 1.374 . S
C979 H959 0.950 . S
C979 C975 1.385 . S
C979 C978 1.374 . S
C980 C977 1.499 . S
C980 C981 1.373 . S
C980 C982 1.389 . S
C981 H960 0.950 . S
C981 C980 1.373 . S
C981 C997 1.377 . S
C982 C980 1.389 . S
C982 C983 1.524 . S
C982 C996 1.377 . S
C983 C982 1.524 . S
C983 C984 1.397 . S
C983 C988 1.363 . S
C984 H961 0.950 . S
C984 C983 1.397 . S
C984 C985 1.334 . S
C985 H962 0.950 . S
C985 C984 1.334 . S
C985 C986 1.287 . S
C986 C985 1.287 . S
C986 C987 1.524 . S
C986 H1005 0.913 . S
C987 H963 0.950 . S
C987 C986 1.524 . S
C987 C988 1.415 . S
C988 H964 0.950 . S
C988 C983 1.363 . S
C988 C987 1.415 . S
C989 H965 0.951 . S
C989 C990 1.366 . S
C989 C991 1.388 . S
C990 C989 1.366 . S
C990 C994 1.385 . S
C991 H966 0.951 . S
C991 C989 1.388 . S
C991 C992 1.366 . S
C992 C991 1.366 . S
C992 C993 1.414 . S
C992 C995 1.499 . S
C993 H967 0.950 . S
C993 C992 1.414 . S
C993 C994 1.374 . S
C994 H968 0.950 . S
C994 C990 1.385 . S
C994 C993 1.374 . S
C995 C992 1.499 . S
C995 C996 1.373 . S
C995 C997 1.389 . S
C996 H969 0.950 . S
C996 C982 1.377 . S
C996 C995 1.373 . S
C997 C981 1.377 . S
C997 C995 1.389 . S
C997 C998 1.524 . S
C998 C997 1.524 . S
C998 C999 1.397 . S
C998 C1003 1.363 . S
C999 H970 0.950 . S
C999 C998 1.397 . S
C999 C1000 1.334 . S
C1000 H971 0.950 1_554 S
C1000 C999 1.334 . S
C1000 C1001 1.287 . S
C1001 C1000 1.287 . S
C1001 C1002 1.524 . S
C1001 H1004 0.999 1_554 S
C1002 H972 0.950 . S
C1002 C1001 1.524 . S
C1002 C1003 1.415 . S
C1003 H973 0.950 . S
C1003 C998 1.363 . S
C1003 C1002 1.415 . S
H1004 C1001 0.999 1_556 S
H1005 C986 0.913 . S
H1006 C1024 0.951 . S
H1007 C1026 0.951 . S
H1008 C1028 0.950 . S
H1009 C1029 0.950 . S
H1010 C1031 0.950 . S
H1011 C1034 0.950 . S
H1012 C1035 0.950 . S
H1013 C1037 0.950 . S
H1014 C1038 0.950 . S
H1015 C1039 0.951 . S
H1016 C1041 0.951 . S
H1017 C1043 0.950 . S
H1018 C1044 0.950 . S
H1019 C1046 0.950 . S
H1020 C1049 0.950 . S
H1021 C1050 0.950 . S
H1022 C1052 0.950 . S
H1023 C1053 0.950 . S
C1024 H1006 0.951 . S
C1024 C1025 1.366 . S
C1024 C1026 1.388 . S
C1025 C1024 1.366 . S
C1025 C1029 1.385 . S
C1026 H1007 0.951 . S
C1026 C1024 1.388 . S
C1026 C1027 1.366 . S
C1027 C1026 1.366 . S
C1027 C1028 1.414 . S
C1027 C1030 1.499 . S
C1028 H1008 0.950 . S
C1028 C1027 1.414 . S
C1028 C1029 1.374 . S
C1029 H1009 0.950 . S
C1029 C1025 1.385 . S
C1029 C1028 1.374 . S
C1030 C1027 1.499 . S
C1030 C1031 1.373 . S
C1030 C1032 1.389 . S
C1031 H1010 0.950 . S
C1031 C1030 1.373 . S
C1031 C1047 1.377 . S
C1032 C1030 1.389 . S
C1032 C1033 1.524 . S
C1032 C1046 1.377 . S
C1033 C1032 1.524 . S
C1033 C1034 1.397 . S
C1033 C1038 1.363 . S
C1034 H1011 0.950 . S
C1034 C1033 1.397 . S
C1034 C1035 1.334 . S
C1035 H1012 0.950 . S
C1035 C1034 1.334 . S
C1035 C1036 1.287 . S
C1036 C1035 1.287 . S
C1036 C1037 1.524 . S
C1036 H1055 0.913 . S
C1037 H1013 0.950 . S
C1037 C1036 1.524 . S
C1037 C1038 1.415 . S
C1038 H1014 0.950 . S
C1038 C1033 1.363 . S
C1038 C1037 1.415 . S
C1039 H1015 0.951 . S
C1039 C1040 1.366 . S
C1039 C1041 1.388 . S
C1040 C1039 1.366 . S
C1040 C1044 1.385 . S
C1041 H1016 0.951 . S
C1041 C1039 1.388 . S
C1041 C1042 1.366 . S
C1042 C1041 1.366 . S
C1042 C1043 1.414 . S
C1042 C1045 1.499 . S
C1043 H1017 0.950 . S
C1043 C1042 1.414 . S
C1043 C1044 1.374 . S
C1044 H1018 0.950 . S
C1044 C1040 1.385 . S
C1044 C1043 1.374 . S
C1045 C1042 1.499 . S
C1045 C1046 1.373 . S
C1045 C1047 1.389 . S
C1046 H1019 0.950 . S
C1046 C1032 1.377 . S
C1046 C1045 1.373 . S
C1047 C1031 1.377 . S
C1047 C1045 1.389 . S
C1047 C1048 1.524 . S
C1048 C1047 1.524 . S
C1048 C1049 1.397 . S
C1048 C1053 1.363 . S
C1049 H1020 0.950 . S
C1049 C1048 1.397 . S
C1049 C1050 1.334 . S
C1050 H1021 0.950 . S
C1050 C1049 1.334 . S
C1050 C1051 1.287 . S
C1051 C1050 1.287 . S
C1051 C1052 1.524 . S
C1051 H1054 0.999 . S
C1052 H1022 0.950 . S
C1052 C1051 1.524 . S
C1052 C1053 1.415 . S
C1053 H1023 0.950 . S
C1053 C1048 1.363 . S
C1053 C1052 1.415 . S
H1054 C1051 0.999 . S
H1055 C1036 0.913 . S
H1056 C1074 0.951 . S
H1057 C1076 0.951 . S
H1058 C1078 0.950 . S
H1059 C1079 0.950 . S
H1060 C1081 0.950 . S
H1061 C1084 0.950 . S
H1062 C1085 0.950 . S
H1063 C1087 0.950 . S
H1064 C1088 0.928 1_455 S
H1065 C1089 0.951 . S
H1066 C1091 0.951 . S
H1067 C1093 0.950 1_455 S
H1068 C1094 0.950 . S
H1069 C1096 0.950 . S
H1070 C1099 0.950 . S
H1071 C1100 0.950 . S
H1072 C1102 0.950 . S
H1073 C1103 0.950 . S
C1074 H1056 0.951 . S
C1074 C1075 1.366 . S
C1074 C1076 1.388 . S
C1075 C1074 1.366 . S
C1075 C1079 1.385 . S
C1076 H1057 0.951 . S
C1076 C1074 1.388 . S
C1076 C1077 1.366 . S
C1077 C1076 1.366 . S
C1077 C1078 1.414 . S
C1077 C1080 1.499 . S
C1078 H1058 0.950 . S
C1078 C1077 1.414 . S
C1078 C1079 1.374 . S
C1079 H1059 0.950 . S
C1079 C1075 1.385 . S
C1079 C1078 1.374 . S
C1080 C1077 1.499 . S
C1080 C1081 1.373 . S
C1080 C1082 1.389 . S
C1081 H1060 0.950 . S
C1081 C1080 1.373 . S
C1081 C1097 1.377 . S
C1082 C1080 1.389 . S
C1082 C1083 1.524 . S
C1082 C1096 1.377 . S
C1083 C1082 1.524 . S
C1083 C1084 1.397 . S
C1083 C1088 1.363 . S
C1084 H1061 0.950 . S
C1084 C1083 1.397 . S
C1084 C1085 1.334 . S
C1085 H1062 0.950 . S
C1085 C1084 1.334 . S
C1085 C1086 1.287 . S
C1086 C1085 1.287 . S
C1086 C1087 1.524 1_655 S
C1086 H1105 0.913 . S
C1087 H1063 0.950 . S
C1087 C1086 1.524 1_455 S
C1087 C1088 1.415 1_455 S
C1088 H1064 0.928 1_655 S
C1088 C1083 1.363 . S
C1088 C1087 1.415 1_655 S
C1089 H1065 0.951 . S
C1089 C1090 1.366 . S
C1089 C1091 1.388 . S
C1090 C1089 1.366 . S
C1090 C1094 1.385 1_655 S
C1091 H1066 0.951 . S
C1091 C1089 1.388 . S
C1091 C1092 1.366 . S
C1092 C1091 1.366 . S
C1092 C1093 1.414 . S
C1092 C1095 1.499 . S
C1093 H1067 0.950 1_655 S
C1093 C1092 1.414 . S
C1093 C1094 1.374 1_655 S
C1094 H1068 0.950 . S
C1094 C1090 1.385 1_455 S
C1094 C1093 1.374 1_455 S
C1095 C1092 1.499 . S
C1095 C1096 1.373 . S
C1095 C1097 1.389 . S
C1096 H1069 0.950 . S
C1096 C1082 1.377 . S
C1096 C1095 1.373 . S
C1097 C1081 1.377 . S
C1097 C1095 1.389 . S
C1097 C1098 1.524 . S
C1098 C1097 1.524 . S
C1098 C1099 1.397 1_545 S
C1098 C1103 1.363 . S
C1099 H1070 0.950 . S
C1099 C1098 1.397 1_565 S
C1099 C1100 1.334 . S
C1100 H1071 0.950 . S
C1100 C1099 1.334 . S
C1100 C1101 1.287 . S
C1101 C1100 1.287 . S
C1101 C1102 1.524 . S
C1101 H1104 0.999 . S
C1102 H1072 0.950 . S
C1102 C1101 1.524 . S
C1102 C1103 1.415 1_565 S
C1103 H1073 0.950 . S
C1103 C1098 1.363 . S
C1103 C1102 1.415 1_545 S
H1104 C1101 0.999 . S
H1105 C1086 0.913 . S
H1106 C1124 0.951 . S
H1107 C1126 0.951 . S
H1108 C1128 0.950 . S
H1109 C1129 0.950 . S
H1110 C1131 0.950 . S
H1111 C1134 0.950 . S
H1112 C1135 0.950 . S
H1113 C1137 0.950 . S
H1114 C1138 0.950 . S
H1115 C1139 0.951 . S
H1116 C1141 0.951 . S
H1117 C1143 0.950 . S
H1118 C1144 0.950 . S
H1119 C1146 0.950 . S
H1120 C1149 0.950 . S
H1121 C1150 0.950 . S
H1122 C1152 0.950 . S
H1123 C1153 0.950 . S
C1124 H1106 0.951 . S
C1124 C1125 1.366 . S
C1124 C1126 1.388 . S
C1125 C1124 1.366 . S
C1125 C1129 1.385 . S
C1126 H1107 0.951 . S
C1126 C1124 1.388 . S
C1126 C1127 1.366 . S
C1127 C1126 1.366 . S
C1127 C1128 1.414 . S
C1127 C1130 1.499 . S
C1128 H1108 0.950 . S
C1128 C1127 1.414 . S
C1128 C1129 1.374 . S
C1129 H1109 0.950 . S
C1129 C1125 1.385 . S
C1129 C1128 1.374 . S
C1130 C1127 1.499 . S
C1130 C1131 1.373 . S
C1130 C1132 1.389 . S
C1131 H1110 0.950 . S
C1131 C1130 1.373 . S
C1131 C1147 1.377 . S
C1132 C1130 1.389 . S
C1132 C1133 1.524 . S
C1132 C1146 1.377 . S
C1133 C1132 1.524 . S
C1133 C1134 1.397 . S
C1133 C1138 1.363 . S
C1134 H1111 0.950 . S
C1134 C1133 1.397 . S
C1134 C1135 1.334 . S
C1135 H1112 0.950 . S
C1135 C1134 1.334 . S
C1135 C1136 1.287 . S
C1136 C1135 1.287 . S
C1136 C1137 1.524 . S
C1136 H1155 0.913 . S
C1137 H1113 0.950 . S
C1137 C1136 1.524 . S
C1137 C1138 1.415 . S
C1138 H1114 0.950 . S
C1138 C1133 1.363 . S
C1138 C1137 1.415 . S
C1139 H1115 0.951 . S
C1139 C1140 1.366 . S
C1139 C1141 1.388 . S
C1140 C1139 1.366 . S
C1140 C1144 1.385 . S
C1141 H1116 0.951 . S
C1141 C1139 1.388 . S
C1141 C1142 1.366 . S
C1142 C1141 1.366 . S
C1142 C1143 1.414 . S
C1142 C1145 1.499 . S
C1143 H1117 0.950 . S
C1143 C1142 1.414 . S
C1143 C1144 1.374 . S
C1144 H1118 0.950 . S
C1144 C1140 1.385 . S
C1144 C1143 1.374 . S
C1145 C1142 1.499 . S
C1145 C1146 1.373 . S
C1145 C1147 1.389 . S
C1146 H1119 0.950 . S
C1146 C1132 1.377 . S
C1146 C1145 1.373 . S
C1147 C1131 1.377 . S
C1147 C1145 1.389 . S
C1147 C1148 1.524 . S
C1148 C1147 1.524 . S
C1148 C1149 1.397 . S
C1148 C1153 1.363 . S
C1149 H1120 0.950 . S
C1149 C1148 1.397 . S
C1149 C1150 1.334 . S
C1150 H1121 0.950 . S
C1150 C1149 1.334 . S
C1150 C1151 1.287 . S
C1151 C1150 1.287 . S
C1151 C1152 1.524 . S
C1151 H1154 0.999 . S
C1152 H1122 0.950 . S
C1152 C1151 1.524 . S
C1152 C1153 1.415 . S
C1153 H1123 0.950 . S
C1153 C1148 1.363 . S
C1153 C1152 1.415 . S
H1154 C1151 0.999 . S
H1155 C1136 0.913 . S
H1156 C1174 0.951 . S
H1157 C1176 0.951 . S
H1158 C1178 0.950 1_565 S
H1159 C1179 0.950 1_565 S
H1160 C1181 0.927 1_565 S
H1161 C1184 0.950 . S
H1162 C1185 0.950 . S
H1163 C1187 0.950 . S
H1164 C1188 0.950 . S
H1165 C1189 0.951 1_565 S
H1166 C1191 0.951 1_565 S
H1167 C1193 0.950 . S
H1168 C1194 0.950 . S
H1169 C1196 0.950 . S
H1170 C1199 0.950 . S
H1171 C1200 0.950 . S
H1172 C1202 0.950 . S
H1173 C1203 0.950 . S
C1174 H1156 0.951 . S
C1174 C1175 1.366 . S
C1174 C1176 1.388 . S
C1175 C1174 1.366 . S
C1175 C1179 1.385 . S
C1176 H1157 0.951 . S
C1176 C1174 1.388 . S
C1176 C1177 1.366 . S
C1177 C1176 1.366 . S
C1177 C1178 1.414 . S
C1177 C1180 1.499 . S
C1178 H1158 0.950 1_545 S
C1178 C1177 1.414 . S
C1178 C1179 1.374 . S
C1179 H1159 0.950 1_545 S
C1179 C1175 1.385 . S
C1179 C1178 1.374 . S
C1180 C1177 1.499 . S
C1180 C1181 1.393 . S
C1180 C1182 1.389 . S
C1181 H1160 0.927 1_545 S
C1181 C1180 1.393 . S
C1181 C1197 1.381 1_545 S
C1182 C1180 1.389 . S
C1182 C1183 1.524 . S
C1182 C1196 1.377 . S
C1183 C1182 1.524 . S
C1183 C1184 1.397 . S
C1183 C1188 1.363 . S
C1184 H1161 0.950 . S
C1184 C1183 1.397 . S
C1184 C1185 1.334 . S
C1185 H1162 0.950 . S
C1185 C1184 1.334 . S
C1185 C1186 1.287 . S
C1186 C1185 1.287 . S
C1186 C1187 1.524 . S
C1186 H1205 0.913 . S
C1187 H1163 0.950 . S
C1187 C1186 1.524 . S
C1187 C1188 1.415 . S
C1188 H1164 0.950 . S
C1188 C1183 1.363 . S
C1188 C1187 1.415 . S
C1189 H1165 0.951 1_545 S
C1189 C1190 1.366 . S
C1189 C1191 1.388 . S
C1190 C1189 1.366 . S
C1190 C1194 1.385 . S
C1191 H1166 0.951 1_545 S
C1191 C1189 1.388 . S
C1191 C1192 1.366 . S
C1192 C1191 1.366 . S
C1192 C1193 1.414 . S
C1192 C1195 1.499 . S
C1193 H1167 0.950 . S
C1193 C1192 1.414 . S
C1193 C1194 1.374 . S
C1194 H1168 0.950 . S
C1194 C1190 1.385 . S
C1194 C1193 1.374 . S
C1195 C1192 1.499 . S
C1195 C1196 1.373 . S
C1195 C1197 1.383 1_545 S
C1196 H1169 0.950 . S
C1196 C1182 1.377 . S
C1196 C1195 1.373 . S
C1197 C1181 1.381 1_565 S
C1197 C1195 1.383 1_565 S
C1197 C1198 1.530 . S
C1198 C1197 1.530 . S
C1198 C1199 1.397 . S
C1198 C1203 1.363 . S
C1199 H1170 0.950 . S
C1199 C1198 1.397 . S
C1199 C1200 1.334 . S
C1200 H1171 0.950 . S
C1200 C1199 1.334 . S
C1200 C1201 1.287 . S
C1201 C1200 1.287 . S
C1201 C1202 1.524 . S
C1201 H1204 0.999 . S
C1202 H1172 0.950 . S
C1202 C1201 1.524 . S
C1202 C1203 1.415 . S
C1203 H1173 0.950 . S
C1203 C1198 1.363 . S
C1203 C1202 1.415 . S
H1204 C1201 0.999 . S
H1205 C1186 0.913 . S
H1206 C1224 0.951 . S
H1207 C1226 0.951 . S
H1208 C1228 0.950 . S
H1209 C1229 0.950 . S
H1210 C1231 0.950 . S
H1211 C1234 0.950 . S
H1212 C1235 0.950 . S
H1213 C1237 0.950 . S
H1214 C1238 0.950 . S
H1215 C1239 0.951 . S
H1216 C1241 0.951 . S
H1217 C1243 0.950 . S
H1218 C1244 0.950 . S
H1219 C1246 0.950 . S
H1220 C1249 0.950 . S
H1221 C1250 0.950 . S
H1222 C1252 0.950 . S
H1223 C1253 0.950 . S
C1224 H1206 0.951 . S
C1224 C1225 1.366 . S
C1224 C1226 1.388 . S
C1225 C1224 1.366 . S
C1225 C1229 1.385 . S
C1226 H1207 0.951 . S
C1226 C1224 1.388 . S
C1226 C1227 1.366 . S
C1227 C1226 1.366 . S
C1227 C1228 1.414 . S
C1227 C1230 1.499 . S
C1228 H1208 0.950 . S
C1228 C1227 1.414 . S
C1228 C1229 1.374 . S
C1229 H1209 0.950 . S
C1229 C1225 1.385 . S
C1229 C1228 1.374 . S
C1230 C1227 1.499 . S
C1230 C1231 1.373 . S
C1230 C1232 1.389 . S
C1231 H1210 0.950 . S
C1231 C1230 1.373 . S
C1231 C1247 1.377 . S
C1232 C1230 1.389 . S
C1232 C1233 1.524 . S
C1232 C1246 1.377 . S
C1233 C1232 1.524 . S
C1233 C1234 1.397 . S
C1233 C1238 1.363 . S
C1234 H1211 0.950 . S
C1234 C1233 1.397 . S
C1234 C1235 1.334 . S
C1235 H1212 0.950 . S
C1235 C1234 1.334 . S
C1235 C1236 1.287 . S
C1236 C1235 1.287 . S
C1236 C1237 1.524 . S
C1236 H1255 0.913 . S
C1237 H1213 0.950 . S
C1237 C1236 1.524 . S
C1237 C1238 1.415 . S
C1238 H1214 0.950 . S
C1238 C1233 1.363 . S
C1238 C1237 1.415 . S
C1239 H1215 0.951 . S
C1239 C1240 1.366 . S
C1239 C1241 1.388 . S
C1240 C1239 1.366 . S
C1240 C1244 1.385 . S
C1241 H1216 0.951 . S
C1241 C1239 1.388 . S
C1241 C1242 1.366 . S
C1242 C1241 1.366 . S
C1242 C1243 1.414 . S
C1242 C1245 1.499 . S
C1243 H1217 0.950 . S
C1243 C1242 1.414 . S
C1243 C1244 1.374 . S
C1244 H1218 0.950 . S
C1244 C1240 1.385 . S
C1244 C1243 1.374 . S
C1245 C1242 1.499 . S
C1245 C1246 1.373 . S
C1245 C1247 1.389 . S
C1246 H1219 0.950 . S
C1246 C1232 1.377 . S
C1246 C1245 1.373 . S
C1247 C1231 1.377 . S
C1247 C1245 1.389 . S
C1247 C1248 1.524 . S
C1248 C1247 1.524 . S
C1248 C1249 1.397 . S
C1248 C1253 1.363 . S
C1249 H1220 0.950 . S
C1249 C1248 1.397 . S
C1249 C1250 1.334 . S
C1250 H1221 0.950 . S
C1250 C1249 1.334 . S
C1250 C1251 1.287 . S
C1251 C1250 1.287 . S
C1251 C1252 1.524 . S
C1251 H1254 0.999 . S
C1252 H1222 0.950 . S
C1252 C1251 1.524 . S
C1252 C1253 1.415 . S
C1253 H1223 0.950 . S
C1253 C1248 1.363 . S
C1253 C1252 1.415 . S
H1254 C1251 0.999 . S
H1255 C1236 0.913 . S
H1256 C1274 0.951 . S
H1257 C1276 0.951 . S
H1258 C1278 0.950 . S
H1259 C1279 0.950 . S
H1260 C1281 0.950 . S
H1261 C1284 0.950 . S
H1262 C1285 0.950 . S
H1263 C1287 0.950 . S
H1264 C1288 0.950 . S
H1265 C1289 0.951 1_455 S
H1266 C1291 0.951 . S
H1267 C1293 0.950 . S
H1268 C1294 0.950 . S
H1269 C1296 0.950 . S
H1270 C1299 0.941 1_545 S
H1271 C1300 0.950 . S
H1272 C1302 0.950 . S
H1273 C1303 0.950 . S
C1274 H1256 0.951 . S
C1274 C1275 1.366 . S
C1274 C1276 1.388 . S
C1275 C1274 1.366 . S
C1275 C1279 1.385 . S
C1276 H1257 0.951 . S
C1276 C1274 1.388 . S
C1276 C1277 1.366 . S
C1277 C1276 1.366 . S
C1277 C1278 1.414 . S
C1277 C1280 1.499 . S
C1278 H1258 0.950 . S
C1278 C1277 1.414 . S
C1278 C1279 1.374 . S
C1279 H1259 0.950 . S
C1279 C1275 1.385 . S
C1279 C1278 1.374 . S
C1280 C1277 1.499 . S
C1280 C1281 1.373 . S
C1280 C1282 1.389 . S
C1281 H1260 0.950 . S
C1281 C1280 1.373 . S
C1281 C1297 1.377 . S
C1282 C1280 1.389 . S
C1282 C1283 1.524 . S
C1282 C1296 1.377 . S
C1283 C1282 1.524 . S
C1283 C1284 1.397 . S
C1283 C1288 1.363 . S
C1284 H1261 0.950 . S
C1284 C1283 1.397 . S
C1284 C1285 1.334 . S
C1285 H1262 0.950 . S
C1285 C1284 1.334 . S
C1285 C1286 1.287 . S
C1286 C1285 1.287 . S
C1286 C1287 1.524 . S
C1286 H1305 0.913 . S
C1287 H1263 0.950 . S
C1287 C1286 1.524 . S
C1287 C1288 1.415 . S
C1288 H1264 0.950 . S
C1288 C1283 1.363 . S
C1288 C1287 1.415 . S
C1289 H1265 0.951 1_655 S
C1289 C1290 1.366 . S
C1289 C1291 1.388 . S
C1290 C1289 1.366 . S
C1290 C1294 1.385 . S
C1291 H1266 0.951 . S
C1291 C1289 1.388 . S
C1291 C1292 1.366 . S
C1292 C1291 1.366 . S
C1292 C1293 1.414 . S
C1292 C1295 1.499 . S
C1293 H1267 0.950 . S
C1293 C1292 1.414 . S
C1293 C1294 1.374 . S
C1294 H1268 0.950 . S
C1294 C1290 1.385 . S
C1294 C1293 1.374 . S
C1295 C1292 1.499 . S
C1295 C1296 1.373 . S
C1295 C1297 1.389 . S
C1296 H1269 0.950 . S
C1296 C1282 1.377 . S
C1296 C1295 1.373 . S
C1297 C1281 1.377 . S
C1297 C1295 1.389 . S
C1297 C1298 1.524 1_545 S
C1298 C1297 1.524 1_565 S
C1298 C1299 1.397 . S
C1298 C1303 1.363 . S
C1299 H1270 0.941 1_565 S
C1299 C1298 1.397 . S
C1299 C1300 1.334 . S
C1300 H1271 0.950 . S
C1300 C1299 1.334 . S
C1300 C1301 1.287 . S
C1301 C1300 1.287 . S
C1301 C1302 1.524 . S
C1301 H1304 0.999 . S
C1302 H1272 0.950 . S
C1302 C1301 1.524 . S
C1302 C1303 1.415 . S
C1303 H1273 0.950 . S
C1303 C1298 1.363 . S
C1303 C1302 1.415 . S
H1304 C1301 0.999 . S
H1305 C1286 0.913 . S
H1306 C1324 0.951 . S
H1307 C1326 0.951 . S
H1308 C1328 0.950 . S
H1309 C1329 0.950 . S
H1310 C1331 0.950 . S
H1311 C1334 0.950 . S
H1312 C1335 0.950 . S
H1313 C1337 0.950 . S
H1314 C1338 0.950 . S
H1315 C1339 0.951 . S
H1316 C1341 0.951 . S
H1317 C1343 0.950 . S
H1318 C1344 0.950 . S
H1319 C1346 0.950 . S
H1320 C1349 0.950 . S
H1321 C1350 0.950 . S
H1322 C1352 0.950 . S
H1323 C1353 0.950 . S
C1324 H1306 0.951 . S
C1324 C1325 1.366 . S
C1324 C1326 1.388 . S
C1325 C1324 1.366 . S
C1325 C1329 1.385 . S
C1326 H1307 0.951 . S
C1326 C1324 1.388 . S
C1326 C1327 1.366 . S
C1327 C1326 1.366 . S
C1327 C1328 1.414 . S
C1327 C1330 1.499 . S
C1328 H1308 0.950 . S
C1328 C1327 1.414 . S
C1328 C1329 1.374 . S
C1329 H1309 0.950 . S
C1329 C1325 1.385 . S
C1329 C1328 1.374 . S
C1330 C1327 1.499 . S
C1330 C1331 1.373 . S
C1330 C1332 1.389 . S
C1331 H1310 0.950 . S
C1331 C1330 1.373 . S
C1331 C1347 1.377 . S
C1332 C1330 1.389 . S
C1332 C1333 1.524 . S
C1332 C1346 1.377 . S
C1333 C1332 1.524 . S
C1333 C1334 1.397 . S
C1333 C1338 1.363 . S
C1334 H1311 0.950 . S
C1334 C1333 1.397 . S
C1334 C1335 1.334 . S
C1335 H1312 0.950 . S
C1335 C1334 1.334 . S
C1335 C1336 1.287 . S
C1336 C1335 1.287 . S
C1336 C1337 1.524 . S
C1336 H1355 0.913 . S
C1337 H1313 0.950 . S
C1337 C1336 1.524 . S
C1337 C1338 1.415 . S
C1338 H1314 0.950 . S
C1338 C1333 1.363 . S
C1338 C1337 1.415 . S
C1339 H1315 0.951 . S
C1339 C1340 1.366 . S
C1339 C1341 1.388 . S
C1340 C1339 1.366 . S
C1340 C1344 1.385 . S
C1341 H1316 0.951 . S
C1341 C1339 1.388 . S
C1341 C1342 1.366 . S
C1342 C1341 1.366 . S
C1342 C1343 1.414 . S
C1342 C1345 1.499 . S
C1343 H1317 0.950 . S
C1343 C1342 1.414 . S
C1343 C1344 1.374 . S
C1344 H1318 0.950 . S
C1344 C1340 1.385 . S
C1344 C1343 1.374 . S
C1345 C1342 1.499 . S
C1345 C1346 1.373 . S
C1345 C1347 1.389 . S
C1346 H1319 0.950 . S
C1346 C1332 1.377 . S
C1346 C1345 1.373 . S
C1347 C1331 1.377 . S
C1347 C1345 1.389 . S
C1347 C1348 1.524 . S
C1348 C1347 1.524 . S
C1348 C1349 1.397 . S
C1348 C1353 1.363 . S
C1349 H1320 0.950 . S
C1349 C1348 1.397 . S
C1349 C1350 1.334 . S
C1350 H1321 0.950 . S
C1350 C1349 1.334 . S
C1350 C1351 1.287 . S
C1351 C1350 1.287 . S
C1351 C1352 1.524 . S
C1351 H1354 0.999 . S
C1352 H1322 0.950 . S
C1352 C1351 1.524 . S
C1352 C1353 1.415 . S
C1353 H1323 0.950 . S
C1353 C1348 1.363 . S
C1353 C1352 1.415 . S
H1354 C1351 0.999 . S
H1355 C1336 0.913 . S
H1356 C1374 0.951 . S
H1357 C1376 0.951 . S
H1358 C1378 0.950 . S
H1359 C1379 0.950 . S
H1360 C1381 0.950 . S
H1361 C1384 0.950 . S
H1362 C1385 0.950 . S
H1363 C1387 0.950 . S
H1364 C1388 0.950 . S
H1365 C1389 0.951 . S
H1366 C1391 0.951 . S
H1367 C1393 0.950 . S
H1368 C1394 0.950 . S
H1369 C1396 0.950 . S
H1370 C1399 0.950 . S
H1371 C1400 0.950 . S
H1372 C1402 0.950 . S
H1373 C1403 0.950 . S
C1374 H1356 0.951 . S
C1374 C1375 1.366 . S
C1374 C1376 1.388 . S
C1375 C1374 1.366 . S
C1375 C1379 1.385 . S
C1376 H1357 0.951 . S
C1376 C1374 1.388 . S
C1376 C1377 1.366 . S
C1377 C1376 1.366 . S
C1377 C1378 1.414 . S
C1377 C1380 1.499 . S
C1378 H1358 0.950 . S
C1378 C1377 1.414 . S
C1378 C1379 1.374 . S
C1379 H1359 0.950 . S
C1379 C1375 1.385 . S
C1379 C1378 1.374 . S
C1380 C1377 1.499 . S
C1380 C1381 1.373 . S
C1380 C1382 1.389 . S
C1381 H1360 0.950 . S
C1381 C1380 1.373 . S
C1381 C1397 1.377 . S
C1382 C1380 1.389 . S
C1382 C1383 1.524 1_545 S
C1382 C1396 1.377 . S
C1383 C1382 1.524 1_565 S
C1383 C1384 1.397 . S
C1383 C1388 1.363 . S
C1384 H1361 0.950 . S
C1384 C1383 1.397 . S
C1384 C1385 1.334 . S
C1385 H1362 0.950 . S
C1385 C1384 1.334 . S
C1385 C1386 1.287 . S
C1386 C1385 1.287 . S
C1386 C1387 1.524 . S
C1386 H1405 0.913 . S
C1387 H1363 0.950 . S
C1387 C1386 1.524 . S
C1387 C1388 1.415 . S
C1388 H1364 0.950 . S
C1388 C1383 1.363 . S
C1388 C1387 1.415 . S
C1389 H1365 0.951 . S
C1389 C1390 1.366 . S
C1389 C1391 1.388 . S
C1390 C1389 1.366 . S
C1390 C1394 1.385 . S
C1391 H1366 0.951 . S
C1391 C1389 1.388 . S
C1391 C1392 1.366 . S
C1392 C1391 1.366 . S
C1392 C1393 1.414 . S
C1392 C1395 1.499 . S
C1393 H1367 0.950 . S
C1393 C1392 1.414 . S
C1393 C1394 1.374 . S
C1394 H1368 0.950 . S
C1394 C1390 1.385 . S
C1394 C1393 1.374 . S
C1395 C1392 1.499 . S
C1395 C1396 1.373 . S
C1395 C1397 1.389 . S
C1396 H1369 0.950 . S
C1396 C1382 1.377 . S
C1396 C1395 1.373 . S
C1397 C1381 1.377 . S
C1397 C1395 1.389 . S
C1397 C1398 1.524 . S
C1398 C1397 1.524 . S
C1398 C1399 1.397 . S
C1398 C1403 1.363 . S
C1399 H1370 0.950 . S
C1399 C1398 1.397 . S
C1399 C1400 1.334 . S
C1400 H1371 0.950 . S
C1400 C1399 1.334 . S
C1400 C1401 1.287 . S
C1401 C1400 1.287 . S
C1401 C1402 1.524 . S
C1401 H1404 0.999 . S
C1402 H1372 0.950 . S
C1402 C1401 1.524 . S
C1402 C1403 1.415 . S
C1403 H1373 0.950 . S
C1403 C1398 1.363 . S
C1403 C1402 1.415 . S
H1404 C1401 0.999 . S
H1405 C1386 0.913 . S
H1406 C1424 0.951 . S
H1407 C1426 0.951 . S
H1408 C1428 0.950 . S
H1409 C1429 0.950 . S
H1410 C1431 0.950 . S
H1411 C1434 0.950 . S
H1412 C1435 0.950 . S
H1413 C1437 0.950 . S
H1414 C1438 0.950 . S
H1415 C1439 0.951 . S
H1416 C1441 0.951 . S
H1417 C1443 0.950 . S
H1418 C1444 0.950 . S
H1419 C1446 0.950 . S
H1420 C1449 0.950 . S
H1421 C1450 0.950 . S
H1422 C1452 0.950 . S
H1423 C1453 0.950 . S
C1424 H1406 0.951 . S
C1424 C1425 1.366 . S
C1424 C1426 1.388 . S
C1425 C1424 1.366 . S
C1425 C1429 1.385 . S
C1426 H1407 0.951 . S
C1426 C1424 1.388 . S
C1426 C1427 1.366 . S
C1427 C1426 1.366 . S
C1427 C1428 1.414 . S
C1427 C1430 1.499 . S
C1428 H1408 0.950 . S
C1428 C1427 1.414 . S
C1428 C1429 1.374 . S
C1429 H1409 0.950 . S
C1429 C1425 1.385 . S
C1429 C1428 1.374 . S
C1430 C1427 1.499 . S
C1430 C1431 1.373 . S
C1430 C1432 1.389 . S
C1431 H1410 0.950 . S
C1431 C1430 1.373 . S
C1431 C1447 1.377 . S
C1432 C1430 1.389 . S
C1432 C1433 1.524 . S
C1432 C1446 1.377 . S
C1433 C1432 1.524 . S
C1433 C1434 1.397 . S
C1433 C1438 1.363 . S
C1434 H1411 0.950 . S
C1434 C1433 1.397 . S
C1434 C1435 1.334 . S
C1435 H1412 0.950 . S
C1435 C1434 1.334 . S
C1435 C1436 1.287 . S
C1436 C1435 1.287 . S
C1436 C1437 1.524 . S
C1436 H1455 0.913 . S
C1437 H1413 0.950 . S
C1437 C1436 1.524 . S
C1437 C1438 1.415 . S
C1438 H1414 0.950 . S
C1438 C1433 1.363 . S
C1438 C1437 1.415 . S
C1439 H1415 0.951 . S
C1439 C1440 1.366 . S
C1439 C1441 1.388 . S
C1440 C1439 1.366 . S
C1440 C1444 1.385 . S
C1441 H1416 0.951 . S
C1441 C1439 1.388 . S
C1441 C1442 1.366 . S
C1442 C1441 1.366 . S
C1442 C1443 1.414 . S
C1442 C1445 1.499 . S
C1443 H1417 0.950 . S
C1443 C1442 1.414 . S
C1443 C1444 1.374 . S
C1444 H1418 0.950 . S
C1444 C1440 1.385 . S
C1444 C1443 1.374 . S
C1445 C1442 1.499 . S
C1445 C1446 1.373 . S
C1445 C1447 1.389 . S
C1446 H1419 0.950 . S
C1446 C1432 1.377 . S
C1446 C1445 1.373 . S
C1447 C1431 1.377 . S
C1447 C1445 1.389 . S
C1447 C1448 1.524 . S
C1448 C1447 1.524 . S
C1448 C1449 1.397 . S
C1448 C1453 1.363 . S
C1449 H1420 0.950 . S
C1449 C1448 1.397 . S
C1449 C1450 1.334 . S
C1450 H1421 0.950 . S
C1450 C1449 1.334 . S
C1450 C1451 1.287 . S
C1451 C1450 1.287 . S
C1451 C1452 1.524 . S
C1451 H1454 0.999 . S
C1452 H1422 0.950 . S
C1452 C1451 1.524 . S
C1452 C1453 1.415 . S
C1453 H1423 0.950 . S
C1453 C1448 1.363 . S
C1453 C1452 1.415 . S
H1454 C1451 0.999 . S
H1455 C1436 0.913 . S
H1456 C1474 0.951 . S
H1457 C1476 0.951 . S
H1458 C1478 0.950 . S
H1459 C1479 0.950 . S
H1460 C1481 0.950 . S
H1461 C1484 0.950 . S
H1462 C1485 0.950 1_556 S
H1463 C1487 0.950 . S
H1464 C1488 0.950 . S
H1465 C1489 0.951 . S
H1466 C1491 0.955 . S
H1467 C1493 0.950 . S
H1468 C1494 0.950 . S
H1469 C1496 0.950 . S
H1470 C1499 0.950 . S
H1471 C1500 0.950 . S
H1472 C1502 0.950 . S
H1473 C1503 0.950 . S
C1474 H1456 0.951 . S
C1474 C1475 1.366 . S
C1474 C1476 1.388 . S
C1475 C1474 1.366 . S
C1475 C1479 1.385 . S
C1476 H1457 0.951 . S
C1476 C1474 1.388 . S
C1476 C1477 1.366 . S
C1477 C1476 1.366 . S
C1477 C1478 1.414 . S
C1477 C1480 1.499 . S
C1478 H1458 0.950 . S
C1478 C1477 1.414 . S
C1478 C1479 1.374 . S
C1479 H1459 0.950 . S
C1479 C1475 1.385 . S
C1479 C1478 1.374 . S
C1480 C1477 1.499 . S
C1480 C1481 1.373 . S
C1480 C1482 1.389 . S
C1481 H1460 0.950 . S
C1481 C1480 1.373 . S
C1481 C1497 1.377 . S
C1482 C1480 1.389 . S
C1482 C1483 1.524 . S
C1482 C1496 1.377 . S
C1483 C1482 1.524 . S
C1483 C1484 1.397 . S
C1483 C1488 1.363 . S
C1484 H1461 0.950 . S
C1484 C1483 1.397 . S
C1484 C1485 1.334 . S
C1485 H1462 0.950 1_554 S
C1485 C1484 1.334 . S
C1485 C1486 1.287 . S
C1486 C1485 1.287 . S
C1486 C1487 1.524 . S
C1486 H1505 0.913 . S
C1487 H1463 0.950 . S
C1487 C1486 1.524 . S
C1487 C1488 1.415 . S
C1488 H1464 0.950 . S
C1488 C1483 1.363 . S
C1488 C1487 1.415 . S
C1489 H1465 0.951 . S
C1489 C1490 1.365 1_545 S
C1489 C1491 1.388 1_545 S
C1490 C1489 1.365 1_565 S
C1490 C1494 1.386 . S
C1491 H1466 0.955 . S
C1491 C1489 1.388 1_565 S
C1491 C1492 1.366 . S
C1492 C1491 1.366 . S
C1492 C1493 1.414 . S
C1492 C1495 1.499 . S
C1493 H1467 0.950 . S
C1493 C1492 1.414 . S
C1493 C1494 1.374 . S
C1494 H1468 0.950 . S
C1494 C1490 1.386 . S
C1494 C1493 1.374 . S
C1495 C1492 1.499 . S
C1495 C1496 1.373 . S
C1495 C1497 1.389 . S
C1496 H1469 0.950 . S
C1496 C1482 1.377 . S
C1496 C1495 1.373 . S
C1497 C1481 1.377 . S
C1497 C1495 1.389 . S
C1497 C1498 1.524 1_565 S
C1498 C1497 1.524 1_545 S
C1498 C1499 1.397 . S
C1498 C1503 1.363 . S
C1499 H1470 0.950 . S
C1499 C1498 1.397 . S
C1499 C1500 1.334 . S
C1500 H1471 0.950 . S
C1500 C1499 1.334 . S
C1500 C1501 1.287 . S
C1501 C1500 1.287 . S
C1501 C1502 1.524 . S
C1501 H1504 0.999 . S
C1502 H1472 0.950 . S
C1502 C1501 1.524 . S
C1502 C1503 1.415 . S
C1503 H1473 0.950 . S
C1503 C1498 1.363 . S
C1503 C1502 1.415 . S
H1504 C1501 0.999 . S
H1505 C1486 0.913 . S
H1506 C1524 0.951 . S
H1507 C1526 0.951 . S
H1508 C1528 0.950 . S
H1509 C1529 0.950 . S
H1510 C1531 0.950 . S
H1511 C1534 0.950 . S
H1512 C1535 0.950 . S
H1513 C1537 0.950 . S
H1514 C1538 0.950 1_556 S
H1515 C1539 0.951 . S
H1516 C1541 0.951 . S
H1517 C1543 0.950 . S
H1518 C1544 0.950 . S
H1519 C1546 0.950 . S
H1520 C1549 0.950 . S
H1521 C1550 0.950 . S
H1522 C1552 0.950 . S
H1523 C1553 0.950 . S
C1524 H1506 0.951 . S
C1524 C1525 1.366 1_556 S
C1524 C1526 1.388 . S
C1525 C1524 1.366 1_554 S
C1525 C1529 1.385 . S
C1526 H1507 0.951 . S
C1526 C1524 1.388 . S
C1526 C1527 1.366 1_556 S
C1527 C1526 1.366 1_554 S
C1527 C1528 1.414 . S
C1527 C1530 1.499 . S
C1528 H1508 0.950 . S
C1528 C1527 1.414 . S
C1528 C1529 1.374 . S
C1529 H1509 0.950 . S
C1529 C1525 1.385 . S
C1529 C1528 1.374 . S
C1530 C1527 1.499 . S
C1530 C1531 1.373 . S
C1530 C1532 1.389 . S
C1531 H1510 0.950 . S
C1531 C1530 1.373 . S
C1531 C1547 1.377 . S
C1532 C1530 1.389 . S
C1532 C1533 1.524 . S
C1532 C1546 1.377 . S
C1533 C1532 1.524 . S
C1533 C1534 1.397 . S
C1533 C1538 1.363 . S
C1534 H1511 0.950 . S
C1534 C1533 1.397 . S
C1534 C1535 1.334 . S
C1535 H1512 0.950 . S
C1535 C1534 1.334 . S
C1535 C1536 1.287 . S
C1536 C1535 1.287 . S
C1536 C1537 1.524 . S
C1536 H1555 0.913 . S
C1537 H1513 0.950 . S
C1537 C1536 1.524 . S
C1537 C1538 1.415 . S
C1538 H1514 0.950 1_554 S
C1538 C1533 1.363 . S
C1538 C1537 1.415 . S
C1539 H1515 0.951 . S
C1539 C1540 1.366 . S
C1539 C1541 1.388 . S
C1540 C1539 1.366 . S
C1540 C1544 1.385 1_554 S
C1541 H1516 0.951 . S
C1541 C1539 1.388 . S
C1541 C1542 1.366 . S
C1542 C1541 1.366 . S
C1542 C1543 1.414 1_554 S
C1542 C1545 1.499 . S
C1543 H1517 0.950 . S
C1543 C1542 1.414 1_556 S
C1543 C1544 1.374 . S
C1544 H1518 0.950 . S
C1544 C1540 1.385 1_556 S
C1544 C1543 1.374 . S
C1545 C1542 1.499 . S
C1545 C1546 1.373 . S
C1545 C1547 1.389 . S
C1546 H1519 0.950 . S
C1546 C1532 1.377 . S
C1546 C1545 1.373 . S
C1547 C1531 1.377 . S
C1547 C1545 1.389 . S
C1547 C1548 1.524 1_554 S
C1548 C1547 1.524 1_556 S
C1548 C1549 1.398 . S
C1548 C1553 1.362 1_556 S
C1549 H1520 0.950 . S
C1549 C1548 1.398 . S
C1549 C1550 1.334 . S
C1550 H1521 0.950 . S
C1550 C1549 1.334 . S
C1550 C1551 1.287 . S
C1551 C1550 1.287 . S
C1551 C1552 1.524 1_556 S
C1551 H1554 0.999 . S
C1552 H1522 0.950 . S
C1552 C1551 1.524 1_554 S
C1552 C1553 1.415 . S
C1553 H1523 0.950 . S
C1553 C1548 1.362 1_554 S
C1553 C1552 1.415 . S
H1554 C1551 0.999 . S
H1555 C1536 0.913 . S
H1556 C1574 0.951 . S
H1557 C1576 0.951 . S
H1558 C1578 0.950 . S
H1559 C1579 0.950 . S
H1560 C1581 0.950 . S
H1561 C1584 0.950 . S
H1562 C1585 0.950 . S
H1563 C1587 0.950 . S
H1564 C1588 0.950 . S
H1565 C1589 0.951 . S
H1566 C1591 0.951 . S
H1567 C1593 0.950 . S
H1568 C1594 0.950 . S
H1569 C1596 0.950 . S
H1570 C1599 0.950 . S
H1571 C1600 0.950 . S
H1572 C1602 0.950 . S
H1573 C1603 0.950 . S
C1574 H1556 0.951 . S
C1574 C1575 1.366 . S
C1574 C1576 1.388 . S
C1575 C1574 1.366 . S
C1575 C1579 1.385 . S
C1576 H1557 0.951 . S
C1576 C1574 1.388 . S
C1576 C1577 1.366 . S
C1577 C1576 1.366 . S
C1577 C1578 1.414 . S
C1577 C1580 1.499 . S
C1578 H1558 0.950 . S
C1578 C1577 1.414 . S
C1578 C1579 1.374 . S
C1579 H1559 0.950 . S
C1579 C1575 1.385 . S
C1579 C1578 1.374 . S
C1580 C1577 1.499 . S
C1580 C1581 1.373 . S
C1580 C1582 1.389 . S
C1581 H1560 0.950 . S
C1581 C1580 1.373 . S
C1581 C1597 1.377 . S
C1582 C1580 1.389 . S
C1582 C1583 1.524 . S
C1582 C1596 1.377 . S
C1583 C1582 1.524 . S
C1583 C1584 1.397 . S
C1583 C1588 1.363 . S
C1584 H1561 0.950 . S
C1584 C1583 1.397 . S
C1584 C1585 1.334 . S
C1585 H1562 0.950 . S
C1585 C1584 1.334 . S
C1585 C1586 1.287 . S
C1586 C1585 1.287 . S
C1586 C1587 1.524 . S
C1586 H1605 0.913 . S
C1587 H1563 0.950 . S
C1587 C1586 1.524 . S
C1587 C1588 1.415 . S
C1588 H1564 0.950 . S
C1588 C1583 1.363 . S
C1588 C1587 1.415 . S
C1589 H1565 0.951 . S
C1589 C1590 1.366 . S
C1589 C1591 1.388 . S
C1590 C1589 1.366 . S
C1590 C1594 1.385 . S
C1591 H1566 0.951 . S
C1591 C1589 1.388 . S
C1591 C1592 1.366 . S
C1592 C1591 1.366 . S
C1592 C1593 1.414 . S
C1592 C1595 1.499 . S
C1593 H1567 0.950 . S
C1593 C1592 1.414 . S
C1593 C1594 1.374 . S
C1594 H1568 0.950 . S
C1594 C1590 1.385 . S
C1594 C1593 1.374 . S
C1595 C1592 1.499 . S
C1595 C1596 1.373 . S
C1595 C1597 1.389 . S
C1596 H1569 0.950 . S
C1596 C1582 1.377 . S
C1596 C1595 1.373 . S
C1597 C1581 1.377 . S
C1597 C1595 1.389 . S
C1597 C1598 1.524 . S
C1598 C1597 1.524 . S
C1598 C1599 1.397 . S
C1598 C1603 1.363 . S
C1599 H1570 0.950 . S
C1599 C1598 1.397 . S
C1599 C1600 1.334 . S
C1600 H1571 0.950 . S
C1600 C1599 1.334 . S
C1600 C1601 1.287 . S
C1601 C1600 1.287 . S
C1601 C1602 1.524 . S
C1601 H1604 0.999 . S
C1602 H1572 0.950 . S
C1602 C1601 1.524 . S
C1602 C1603 1.415 . S
C1603 H1573 0.950 . S
C1603 C1598 1.363 . S
C1603 C1602 1.415 . S
H1604 C1601 0.999 . S
H1605 C1586 0.913 . S
H1606 C1624 0.951 . S
H1607 C1626 0.951 . S
H1608 C1628 0.950 . S
H1609 C1629 0.950 . S
H1610 C1631 0.950 . S
H1611 C1634 0.950 . S
H1612 C1635 0.950 . S
H1613 C1637 0.950 . S
H1614 C1638 0.950 . S
H1615 C1639 0.951 . S
H1616 C1641 0.951 . S
H1617 C1643 0.950 . S
H1618 C1644 0.950 . S
H1619 C1646 0.950 . S
H1620 C1649 0.950 . S
H1621 C1650 0.950 . S
H1622 C1652 0.950 . S
H1623 C1653 0.950 . S
C1624 H1606 0.951 . S
C1624 C1625 1.366 . S
C1624 C1626 1.388 . S
C1625 C1624 1.366 . S
C1625 C1629 1.385 . S
C1626 H1607 0.951 . S
C1626 C1624 1.388 . S
C1626 C1627 1.366 . S
C1627 C1626 1.366 . S
C1627 C1628 1.414 . S
C1627 C1630 1.499 . S
C1628 H1608 0.950 . S
C1628 C1627 1.414 . S
C1628 C1629 1.374 . S
C1629 H1609 0.950 . S
C1629 C1625 1.385 . S
C1629 C1628 1.374 . S
C1630 C1627 1.499 . S
C1630 C1631 1.373 . S
C1630 C1632 1.389 . S
C1631 H1610 0.950 . S
C1631 C1630 1.373 . S
C1631 C1647 1.377 . S
C1632 C1630 1.389 . S
C1632 C1633 1.524 . S
C1632 C1646 1.377 . S
C1633 C1632 1.524 . S
C1633 C1634 1.397 . S
C1633 C1638 1.363 . S
C1634 H1611 0.950 . S
C1634 C1633 1.397 . S
C1634 C1635 1.334 . S
C1635 H1612 0.950 . S
C1635 C1634 1.334 . S
C1635 C1636 1.287 . S
C1636 C1635 1.287 . S
C1636 C1637 1.524 . S
C1636 H1655 0.913 . S
C1637 H1613 0.950 . S
C1637 C1636 1.524 . S
C1637 C1638 1.415 . S
C1638 H1614 0.950 . S
C1638 C1633 1.363 . S
C1638 C1637 1.415 . S
C1639 H1615 0.951 . S
C1639 C1640 1.366 . S
C1639 C1641 1.388 . S
C1640 C1639 1.366 . S
C1640 C1644 1.385 . S
C1641 H1616 0.951 . S
C1641 C1639 1.388 . S
C1641 C1642 1.366 . S
C1642 C1641 1.366 . S
C1642 C1643 1.414 . S
C1642 C1645 1.499 . S
C1643 H1617 0.950 . S
C1643 C1642 1.414 . S
C1643 C1644 1.374 . S
C1644 H1618 0.950 . S
C1644 C1640 1.385 . S
C1644 C1643 1.374 . S
C1645 C1642 1.499 . S
C1645 C1646 1.373 . S
C1645 C1647 1.389 . S
C1646 H1619 0.950 . S
C1646 C1632 1.377 . S
C1646 C1645 1.373 . S
C1647 C1631 1.377 . S
C1647 C1645 1.389 . S
C1647 C1648 1.524 . S
C1648 C1647 1.524 . S
C1648 C1649 1.397 . S
C1648 C1653 1.363 . S
C1649 H1620 0.950 . S
C1649 C1648 1.397 . S
C1649 C1650 1.334 . S
C1650 H1621 0.950 . S
C1650 C1649 1.334 . S
C1650 C1651 1.287 . S
C1651 C1650 1.287 . S
C1651 C1652 1.524 . S
C1651 H1654 0.999 . S
C1652 H1622 0.950 . S
C1652 C1651 1.524 . S
C1652 C1653 1.415 . S
C1653 H1623 0.950 . S
C1653 C1648 1.363 . S
C1653 C1652 1.415 . S
H1654 C1651 0.999 . S
H1655 C1636 0.913 . S
H1656 C1674 0.951 . S
H1657 C1676 0.951 . S
H1658 C1678 0.950 . S
H1659 C1679 0.950 . S
H1660 C1681 0.950 . S
H1661 C1684 0.950 . S
H1662 C1685 0.950 . S
H1663 C1687 0.950 . S
H1664 C1688 0.950 . S
H1665 C1689 0.951 . S
H1666 C1691 0.951 . S
H1667 C1693 0.950 . S
H1668 C1694 0.950 . S
H1669 C1696 0.950 . S
H1670 C1699 0.950 . S
H1671 C1700 0.950 . S
H1672 C1702 0.950 . S
H1673 C1703 0.950 . S
C1674 H1656 0.951 . S
C1674 C1675 1.366 . S
C1674 C1676 1.388 . S
C1675 C1674 1.366 . S
C1675 C1679 1.385 . S
C1676 H1657 0.951 . S
C1676 C1674 1.388 . S
C1676 C1677 1.366 . S
C1677 C1676 1.366 . S
C1677 C1678 1.414 . S
C1677 C1680 1.499 . S
C1678 H1658 0.950 . S
C1678 C1677 1.414 . S
C1678 C1679 1.374 . S
C1679 H1659 0.950 . S
C1679 C1675 1.385 . S
C1679 C1678 1.374 . S
C1680 C1677 1.499 . S
C1680 C1681 1.373 . S
C1680 C1682 1.389 . S
C1681 H1660 0.950 . S
C1681 C1680 1.373 . S
C1681 C1697 1.377 . S
C1682 C1680 1.389 . S
C1682 C1683 1.524 . S
C1682 C1696 1.377 . S
C1683 C1682 1.524 . S
C1683 C1684 1.397 . S
C1683 C1688 1.363 . S
C1684 H1661 0.950 . S
C1684 C1683 1.397 . S
C1684 C1685 1.334 . S
C1685 H1662 0.950 . S
C1685 C1684 1.334 . S
C1685 C1686 1.287 . S
C1686 C1685 1.287 . S
C1686 C1687 1.524 . S
C1686 H1705 0.913 . S
C1687 H1663 0.950 . S
C1687 C1686 1.524 . S
C1687 C1688 1.415 . S
C1688 H1664 0.950 . S
C1688 C1683 1.363 . S
C1688 C1687 1.415 . S
C1689 H1665 0.951 . S
C1689 C1690 1.366 . S
C1689 C1691 1.388 . S
C1690 C1689 1.366 . S
C1690 C1694 1.385 . S
C1691 H1666 0.951 . S
C1691 C1689 1.388 . S
C1691 C1692 1.366 . S
C1692 C1691 1.366 . S
C1692 C1693 1.414 . S
C1692 C1695 1.499 . S
C1693 H1667 0.950 . S
C1693 C1692 1.414 . S
C1693 C1694 1.374 . S
C1694 H1668 0.950 . S
C1694 C1690 1.385 . S
C1694 C1693 1.374 . S
C1695 C1692 1.499 . S
C1695 C1696 1.373 . S
C1695 C1697 1.389 . S
C1696 H1669 0.950 . S
C1696 C1682 1.377 . S
C1696 C1695 1.373 . S
C1697 C1681 1.377 . S
C1697 C1695 1.389 . S
C1697 C1698 1.524 . S
C1698 C1697 1.524 . S
C1698 C1699 1.397 . S
C1698 C1703 1.363 . S
C1699 H1670 0.950 . S
C1699 C1698 1.397 . S
C1699 C1700 1.334 . S
C1700 H1671 0.950 . S
C1700 C1699 1.334 . S
C1700 C1701 1.287 . S
C1701 C1700 1.287 . S
C1701 C1702 1.524 . S
C1701 H1704 0.999 . S
C1702 H1672 0.950 . S
C1702 C1701 1.524 . S
C1702 C1703 1.415 . S
C1703 H1673 0.950 . S
C1703 C1698 1.363 . S
C1703 C1702 1.415 . S
H1704 C1701 0.999 . S
H1705 C1686 0.913 . S
H1706 C1724 0.951 . S
H1707 C1726 0.951 . S
H1708 C1728 0.950 . S
H1709 C1729 0.950 . S
H1710 C1731 0.950 . S
H1711 C1734 0.950 . S
H1712 C1735 0.950 . S
H1713 C1737 0.950 . S
H1714 C1738 0.950 . S
H1715 C1739 0.951 . S
H1716 C1741 0.951 . S
H1717 C1743 0.950 . S
H1718 C1744 0.950 . S
H1719 C1746 0.950 . S
H1720 C1749 0.950 . S
H1721 C1750 0.950 . S
H1722 C1752 0.950 . S
H1723 C1753 0.950 . S
C1724 H1706 0.951 . S
C1724 C1725 1.366 . S
C1724 C1726 1.388 . S
C1725 C1724 1.366 . S
C1725 C1729 1.385 . S
C1726 H1707 0.951 . S
C1726 C1724 1.388 . S
C1726 C1727 1.366 . S
C1727 C1726 1.366 . S
C1727 C1728 1.414 . S
C1727 C1730 1.499 . S
C1728 H1708 0.950 . S
C1728 C1727 1.414 . S
C1728 C1729 1.374 . S
C1729 H1709 0.950 . S
C1729 C1725 1.385 . S
C1729 C1728 1.374 . S
C1730 C1727 1.499 . S
C1730 C1731 1.373 . S
C1730 C1732 1.389 . S
C1731 H1710 0.950 . S
C1731 C1730 1.373 . S
C1731 C1747 1.377 . S
C1732 C1730 1.389 . S
C1732 C1733 1.524 . S
C1732 C1746 1.377 . S
C1733 C1732 1.524 . S
C1733 C1734 1.397 . S
C1733 C1738 1.363 . S
C1734 H1711 0.950 . S
C1734 C1733 1.397 . S
C1734 C1735 1.334 . S
C1735 H1712 0.950 . S
C1735 C1734 1.334 . S
C1735 C1736 1.287 . S
C1736 C1735 1.287 . S
C1736 C1737 1.524 . S
C1736 H1755 0.913 . S
C1737 H1713 0.950 . S
C1737 C1736 1.524 . S
C1737 C1738 1.415 . S
C1738 H1714 0.950 . S
C1738 C1733 1.363 . S
C1738 C1737 1.415 . S
C1739 H1715 0.951 . S
C1739 C1740 1.366 . S
C1739 C1741 1.388 . S
C1740 C1739 1.366 . S
C1740 C1744 1.385 . S
C1741 H1716 0.951 . S
C1741 C1739 1.388 . S
C1741 C1742 1.366 . S
C1742 C1741 1.366 . S
C1742 C1743 1.414 . S
C1742 C1745 1.499 . S
C1743 H1717 0.950 . S
C1743 C1742 1.414 . S
C1743 C1744 1.374 . S
C1744 H1718 0.950 . S
C1744 C1740 1.385 . S
C1744 C1743 1.374 . S
C1745 C1742 1.499 . S
C1745 C1746 1.373 . S
C1745 C1747 1.389 . S
C1746 H1719 0.950 . S
C1746 C1732 1.377 . S
C1746 C1745 1.373 . S
C1747 C1731 1.377 . S
C1747 C1745 1.389 . S
C1747 C1748 1.524 . S
C1748 C1747 1.524 . S
C1748 C1749 1.397 . S
C1748 C1753 1.363 . S
C1749 H1720 0.950 . S
C1749 C1748 1.397 . S
C1749 C1750 1.334 . S
C1750 H1721 0.950 . S
C1750 C1749 1.334 . S
C1750 C1751 1.287 . S
C1751 C1750 1.287 . S
C1751 C1752 1.524 . S
C1751 H1754 0.999 . S
C1752 H1722 0.950 . S
C1752 C1751 1.524 . S
C1752 C1753 1.415 . S
C1753 H1723 0.950 . S
C1753 C1748 1.363 . S
C1753 C1752 1.415 . S
H1754 C1751 0.999 . S
H1755 C1736 0.913 . S
H1756 C1774 0.951 . S
H1757 C1776 0.951 . S
H1758 C1778 0.950 . S
H1759 C1779 0.950 . S
H1760 C1781 0.950 . S
H1761 C1784 0.950 . S
H1762 C1785 0.950 . S
H1763 C1787 0.950 . S
H1764 C1788 0.950 . S
H1765 C1789 0.951 . S
H1766 C1791 0.951 . S
H1767 C1793 0.950 . S
H1768 C1794 0.950 . S
H1769 C1796 0.950 . S
H1770 C1799 0.950 . S
H1771 C1800 0.950 . S
H1772 C1802 0.950 . S
H1773 C1803 0.950 . S
C1774 H1756 0.951 . S
C1774 C1775 1.366 . S
C1774 C1776 1.388 . S
C1775 C1774 1.366 . S
C1775 C1779 1.385 . S
C1776 H1757 0.951 . S
C1776 C1774 1.388 . S
C1776 C1777 1.366 . S
C1777 C1776 1.366 . S
C1777 C1778 1.414 . S
C1777 C1780 1.499 . S
C1778 H1758 0.950 . S
C1778 C1777 1.414 . S
C1778 C1779 1.374 . S
C1779 H1759 0.950 . S
C1779 C1775 1.385 . S
C1779 C1778 1.374 . S
C1780 C1777 1.499 . S
C1780 C1781 1.373 . S
C1780 C1782 1.389 . S
C1781 H1760 0.950 . S
C1781 C1780 1.373 . S
C1781 C1797 1.377 . S
C1782 C1780 1.389 . S
C1782 C1783 1.524 . S
C1782 C1796 1.377 . S
C1783 C1782 1.524 . S
C1783 C1784 1.397 . S
C1783 C1788 1.363 . S
C1784 H1761 0.950 . S
C1784 C1783 1.397 . S
C1784 C1785 1.334 . S
C1785 H1762 0.950 . S
C1785 C1784 1.334 . S
C1785 C1786 1.287 . S
C1786 C1785 1.287 . S
C1786 C1787 1.524 . S
C1786 H1805 0.913 . S
C1787 H1763 0.950 . S
C1787 C1786 1.524 . S
C1787 C1788 1.415 . S
C1788 H1764 0.950 . S
C1788 C1783 1.363 . S
C1788 C1787 1.415 . S
C1789 H1765 0.951 . S
C1789 C1790 1.366 . S
C1789 C1791 1.388 . S
C1790 C1789 1.366 . S
C1790 C1794 1.385 . S
C1791 H1766 0.951 . S
C1791 C1789 1.388 . S
C1791 C1792 1.366 . S
C1792 C1791 1.366 . S
C1792 C1793 1.414 . S
C1792 C1795 1.499 . S
C1793 H1767 0.950 . S
C1793 C1792 1.414 . S
C1793 C1794 1.374 . S
C1794 H1768 0.950 . S
C1794 C1790 1.385 . S
C1794 C1793 1.374 . S
C1795 C1792 1.499 . S
C1795 C1796 1.373 . S
C1795 C1797 1.389 . S
C1796 H1769 0.950 . S
C1796 C1782 1.377 . S
C1796 C1795 1.373 . S
C1797 C1781 1.377 . S
C1797 C1795 1.389 . S
C1797 C1798 1.524 . S
C1798 C1797 1.524 . S
C1798 C1799 1.397 . S
C1798 C1803 1.363 . S
C1799 H1770 0.950 . S
C1799 C1798 1.397 . S
C1799 C1800 1.334 . S
C1800 H1771 0.950 . S
C1800 C1799 1.334 . S
C1800 C1801 1.287 . S
C1801 C1800 1.287 . S
C1801 C1802 1.524 . S
C1801 H1804 0.999 . S
C1802 H1772 0.950 . S
C1802 C1801 1.524 . S
C1802 C1803 1.415 . S
C1803 H1773 0.950 . S
C1803 C1798 1.363 . S
C1803 C1802 1.415 . S
H1804 C1801 0.999 . S
H1805 C1786 0.913 . S
H1806 C1824 0.951 . S
H1807 C1826 0.951 . S
H1808 C1828 0.950 . S
H1809 C1829 0.950 . S
H1810 C1831 0.950 . S
H1811 C1834 0.950 . S
H1812 C1835 0.950 . S
H1813 C1837 0.950 . S
H1814 C1838 0.950 . S
H1815 C1839 0.951 . S
H1816 C1841 0.951 . S
H1817 C1843 0.950 . S
H1818 C1844 0.950 . S
H1819 C1846 0.950 . S
H1820 C1849 0.950 . S
H1821 C1850 0.950 . S
H1822 C1852 0.950 . S
H1823 C1853 0.950 . S
C1824 H1806 0.951 . S
C1824 C1825 1.366 . S
C1824 C1826 1.388 . S
C1825 C1824 1.366 . S
C1825 C1829 1.385 . S
C1826 H1807 0.951 . S
C1826 C1824 1.388 . S
C1826 C1827 1.366 . S
C1827 C1826 1.366 . S
C1827 C1828 1.414 . S
C1827 C1830 1.499 . S
C1828 H1808 0.950 . S
C1828 C1827 1.414 . S
C1828 C1829 1.374 . S
C1829 H1809 0.950 . S
C1829 C1825 1.385 . S
C1829 C1828 1.374 . S
C1830 C1827 1.499 . S
C1830 C1831 1.373 . S
C1830 C1832 1.389 . S
C1831 H1810 0.950 . S
C1831 C1830 1.373 . S
C1831 C1847 1.377 . S
C1832 C1830 1.389 . S
C1832 C1833 1.524 . S
C1832 C1846 1.377 . S
C1833 C1832 1.524 . S
C1833 C1834 1.397 . S
C1833 C1838 1.363 . S
C1834 H1811 0.950 . S
C1834 C1833 1.397 . S
C1834 C1835 1.334 . S
C1835 H1812 0.950 . S
C1835 C1834 1.334 . S
C1835 C1836 1.287 . S
C1836 C1835 1.287 . S
C1836 C1837 1.524 . S
C1836 H1855 0.913 . S
C1837 H1813 0.950 . S
C1837 C1836 1.524 . S
C1837 C1838 1.415 . S
C1838 H1814 0.950 . S
C1838 C1833 1.363 . S
C1838 C1837 1.415 . S
C1839 H1815 0.951 . S
C1839 C1840 1.366 . S
C1839 C1841 1.388 . S
C1840 C1839 1.366 . S
C1840 C1844 1.385 . S
C1841 H1816 0.951 . S
C1841 C1839 1.388 . S
C1841 C1842 1.366 . S
C1842 C1841 1.366 . S
C1842 C1843 1.414 . S
C1842 C1845 1.499 . S
C1843 H1817 0.950 . S
C1843 C1842 1.414 . S
C1843 C1844 1.374 . S
C1844 H1818 0.950 . S
C1844 C1840 1.385 . S
C1844 C1843 1.374 . S
C1845 C1842 1.499 . S
C1845 C1846 1.373 . S
C1845 C1847 1.389 . S
C1846 H1819 0.950 . S
C1846 C1832 1.377 . S
C1846 C1845 1.373 . S
C1847 C1831 1.377 . S
C1847 C1845 1.389 . S
C1847 C1848 1.524 . S
C1848 C1847 1.524 . S
C1848 C1849 1.397 . S
C1848 C1853 1.363 . S
C1849 H1820 0.950 . S
C1849 C1848 1.397 . S
C1849 C1850 1.334 . S
C1850 H1821 0.950 . S
C1850 C1849 1.334 . S
C1850 C1851 1.287 . S
C1851 C1850 1.287 . S
C1851 C1852 1.524 . S
C1851 H1854 0.999 . S
C1852 H1822 0.950 . S
C1852 C1851 1.524 . S
C1852 C1853 1.415 . S
C1853 H1823 0.950 . S
C1853 C1848 1.363 . S
C1853 C1852 1.415 . S
H1854 C1851 0.999 . S
H1855 C1836 0.913 . S
H1856 C1874 0.951 . S
H1857 C1876 0.951 . S
H1858 C1878 0.950 . S
H1859 C1879 0.950 . S
H1860 C1881 0.950 . S
H1861 C1884 0.950 . S
H1862 C1885 0.950 . S
H1863 C1887 0.950 . S
H1864 C1888 0.950 . S
H1865 C1889 0.951 . S
H1866 C1891 0.951 . S
H1867 C1893 0.950 . S
H1868 C1894 0.950 . S
H1869 C1896 0.950 1_655 S
H1870 C1899 0.950 . S
H1871 C1900 0.950 . S
H1872 C1902 0.950 . S
H1873 C1903 0.950 . S
C1874 H1856 0.951 . S
C1874 C1875 1.366 . S
C1874 C1876 1.388 . S
C1875 C1874 1.366 . S
C1875 C1879 1.385 . S
C1876 H1857 0.951 . S
C1876 C1874 1.388 . S
C1876 C1877 1.366 . S
C1877 C1876 1.366 . S
C1877 C1878 1.414 . S
C1877 C1880 1.499 . S
C1878 H1858 0.950 . S
C1878 C1877 1.414 . S
C1878 C1879 1.374 . S
C1879 H1859 0.950 . S
C1879 C1875 1.385 . S
C1879 C1878 1.374 . S
C1880 C1877 1.499 . S
C1880 C1881 1.373 . S
C1880 C1882 1.389 . S
C1881 H1860 0.950 . S
C1881 C1880 1.373 . S
C1881 C1897 1.377 . S
C1882 C1880 1.389 . S
C1882 C1883 1.524 1_455 S
C1882 C1896 1.377 . S
C1883 C1882 1.524 1_655 S
C1883 C1884 1.397 . S
C1883 C1888 1.363 . S
C1884 H1861 0.950 . S
C1884 C1883 1.397 . S
C1884 C1885 1.334 . S
C1885 H1862 0.950 . S
C1885 C1884 1.334 . S
C1885 C1886 1.287 . S
C1886 C1885 1.287 . S
C1886 C1887 1.524 . S
C1886 H1905 0.913 . S
C1887 H1863 0.950 . S
C1887 C1886 1.524 . S
C1887 C1888 1.415 . S
C1888 H1864 0.950 . S
C1888 C1883 1.363 . S
C1888 C1887 1.415 . S
C1889 H1865 0.951 . S
C1889 C1890 1.366 . S
C1889 C1891 1.388 . S
C1890 C1889 1.366 . S
C1890 C1894 1.385 . S
C1891 H1866 0.951 . S
C1891 C1889 1.388 . S
C1891 C1892 1.366 . S
C1892 C1891 1.366 . S
C1892 C1893 1.414 . S
C1892 C1895 1.499 . S
C1893 H1867 0.950 . S
C1893 C1892 1.414 . S
C1893 C1894 1.374 . S
C1894 H1868 0.950 . S
C1894 C1890 1.385 . S
C1894 C1893 1.374 . S
C1895 C1892 1.499 . S
C1895 C1896 1.373 . S
C1895 C1897 1.389 . S
C1896 H1869 0.950 1_455 S
C1896 C1882 1.377 . S
C1896 C1895 1.373 . S
C1897 C1881 1.377 . S
C1897 C1895 1.389 . S
C1897 C1898 1.524 . S
C1898 C1897 1.524 . S
C1898 C1899 1.397 . S
C1898 C1903 1.363 . S
C1899 H1870 0.950 . S
C1899 C1898 1.397 . S
C1899 C1900 1.334 . S
C1900 H1871 0.950 . S
C1900 C1899 1.334 . S
C1900 C1901 1.287 . S
C1901 C1900 1.287 . S
C1901 C1902 1.524 . S
C1901 H1904 0.999 . S
C1902 H1872 0.950 . S
C1902 C1901 1.524 . S
C1902 C1903 1.415 . S
C1903 H1873 0.950 . S
C1903 C1898 1.363 . S
C1903 C1902 1.415 . S
H1904 C1901 0.999 . S
H1905 C1886 0.913 . S
H1906 C1924 0.951 . S
H1907 C1926 0.951 . S
H1908 C1928 0.950 . S
H1909 C1929 0.950 . S
H1910 C1931 0.950 . S
H1911 C1934 0.950 . S
H1912 C1935 0.950 . S
H1913 C1937 0.950 . S
H1914 C1938 0.950 . S
H1915 C1939 0.951 . S
H1916 C1941 0.951 . S
H1917 C1943 0.950 . S
H1918 C1944 0.950 . S
H1919 C1946 0.950 . S
H1920 C1949 0.950 . S
H1921 C1950 0.950 . S
H1922 C1952 0.950 . S
H1923 C1953 0.950 . S
C1924 H1906 0.951 . S
C1924 C1925 1.366 . S
C1924 C1926 1.388 . S
C1925 C1924 1.366 . S
C1925 C1929 1.385 . S
C1926 H1907 0.951 . S
C1926 C1924 1.388 . S
C1926 C1927 1.366 . S
C1927 C1926 1.366 . S
C1927 C1928 1.414 . S
C1927 C1930 1.499 . S
C1928 H1908 0.950 . S
C1928 C1927 1.414 . S
C1928 C1929 1.374 . S
C1929 H1909 0.950 . S
C1929 C1925 1.385 . S
C1929 C1928 1.374 . S
C1930 C1927 1.499 . S
C1930 C1931 1.373 . S
C1930 C1932 1.389 . S
C1931 H1910 0.950 . S
C1931 C1930 1.373 . S
C1931 C1947 1.377 . S
C1932 C1930 1.389 . S
C1932 C1933 1.524 . S
C1932 C1946 1.377 . S
C1933 C1932 1.524 . S
C1933 C1934 1.397 . S
C1933 C1938 1.363 . S
C1934 H1911 0.950 . S
C1934 C1933 1.397 . S
C1934 C1935 1.334 . S
C1935 H1912 0.950 . S
C1935 C1934 1.334 . S
C1935 C1936 1.287 . S
C1936 C1935 1.287 . S
C1936 C1937 1.524 . S
C1936 H1955 0.913 . S
C1937 H1913 0.950 . S
C1937 C1936 1.524 . S
C1937 C1938 1.415 . S
C1938 H1914 0.950 . S
C1938 C1933 1.363 . S
C1938 C1937 1.415 . S
C1939 H1915 0.951 . S
C1939 C1940 1.366 . S
C1939 C1941 1.388 . S
C1940 C1939 1.366 . S
C1940 C1944 1.385 . S
C1941 H1916 0.951 . S
C1941 C1939 1.388 . S
C1941 C1942 1.366 . S
C1942 C1941 1.366 . S
C1942 C1943 1.414 . S
C1942 C1945 1.499 . S
C1943 H1917 0.950 . S
C1943 C1942 1.414 . S
C1943 C1944 1.374 . S
C1944 H1918 0.950 . S
C1944 C1940 1.385 . S
C1944 C1943 1.374 . S
C1945 C1942 1.499 . S
C1945 C1946 1.373 . S
C1945 C1947 1.389 . S
C1946 H1919 0.950 . S
C1946 C1932 1.377 . S
C1946 C1945 1.373 . S
C1947 C1931 1.377 . S
C1947 C1945 1.389 . S
C1947 C1948 1.524 . S
C1948 C1947 1.524 . S
C1948 C1949 1.397 . S
C1948 C1953 1.363 . S
C1949 H1920 0.950 . S
C1949 C1948 1.397 . S
C1949 C1950 1.334 . S
C1950 H1921 0.950 . S
C1950 C1949 1.334 . S
C1950 C1951 1.287 . S
C1951 C1950 1.287 . S
C1951 C1952 1.524 . S
C1951 H1954 0.999 . S
C1952 H1922 0.950 . S
C1952 C1951 1.524 . S
C1952 C1953 1.415 . S
C1953 H1923 0.950 . S
C1953 C1948 1.363 . S
C1953 C1952 1.415 . S
H1954 C1951 0.999 . S
H1955 C1936 0.913 . S
H1956 C1974 0.951 . S
H1957 C1976 0.951 . S
H1958 C1978 0.950 . S
H1959 C1979 0.950 . S
H1960 C1981 0.950 . S
H1961 C1984 0.950 . S
H1962 C1985 0.950 . S
H1963 C1987 0.950 . S
H1964 C1988 0.950 . S
H1965 C1989 0.951 . S
H1966 C1991 0.951 . S
H1967 C1993 0.950 . S
H1968 C1994 0.950 . S
H1969 C1996 0.950 . S
H1970 C1999 0.950 . S
H1971 C2000 0.950 . S
H1972 C2002 0.950 . S
H1973 C2003 0.950 . S
C1974 H1956 0.951 . S
C1974 C1975 1.366 . S
C1974 C1976 1.388 . S
C1975 C1974 1.366 . S
C1975 C1979 1.385 . S
C1976 H1957 0.951 . S
C1976 C1974 1.388 . S
C1976 C1977 1.366 . S
C1977 C1976 1.366 . S
C1977 C1978 1.414 . S
C1977 C1980 1.499 . S
C1978 H1958 0.950 . S
C1978 C1977 1.414 . S
C1978 C1979 1.374 . S
C1979 H1959 0.950 . S
C1979 C1975 1.385 . S
C1979 C1978 1.374 . S
C1980 C1977 1.499 . S
C1980 C1981 1.373 . S
C1980 C1982 1.389 . S
C1981 H1960 0.950 . S
C1981 C1980 1.373 . S
C1981 C1997 1.377 . S
C1982 C1980 1.389 . S
C1982 C1983 1.524 . S
C1982 C1996 1.377 . S
C1983 C1982 1.524 . S
C1983 C1984 1.397 . S
C1983 C1988 1.363 . S
C1984 H1961 0.950 . S
C1984 C1983 1.397 . S
C1984 C1985 1.334 . S
C1985 H1962 0.950 . S
C1985 C1984 1.334 . S
C1985 C1986 1.287 . S
C1986 C1985 1.287 . S
C1986 C1987 1.524 . S
C1986 H2005 0.913 . S
C1987 H1963 0.950 . S
C1987 C1986 1.524 . S
C1987 C1988 1.415 . S
C1988 H1964 0.950 . S
C1988 C1983 1.363 . S
C1988 C1987 1.415 . S
C1989 H1965 0.951 . S
C1989 C1990 1.366 . S
C1989 C1991 1.388 . S
C1990 C1989 1.366 . S
C1990 C1994 1.385 . S
C1991 H1966 0.951 . S
C1991 C1989 1.388 . S
C1991 C1992 1.366 . S
C1992 C1991 1.366 . S
C1992 C1993 1.414 . S
C1992 C1995 1.499 . S
C1993 H1967 0.950 . S
C1993 C1992 1.414 . S
C1993 C1994 1.374 . S
C1994 H1968 0.950 . S
C1994 C1990 1.385 . S
C1994 C1993 1.374 . S
C1995 C1992 1.499 . S
C1995 C1996 1.373 . S
C1995 C1997 1.389 . S
C1996 H1969 0.950 . S
C1996 C1982 1.377 . S
C1996 C1995 1.373 . S
C1997 C1981 1.377 . S
C1997 C1995 1.389 . S
C1997 C1998 1.524 . S
C1998 C1997 1.524 . S
C1998 C1999 1.397 . S
C1998 C2003 1.363 . S
C1999 H1970 0.950 . S
C1999 C1998 1.397 . S
C1999 C2000 1.334 . S
C2000 H1971 0.950 . S
C2000 C1999 1.334 . S
C2000 C2001 1.287 . S
C2001 C2000 1.287 . S
C2001 C2002 1.524 . S
C2001 H2004 0.999 . S
C2002 H1972 0.950 . S
C2002 C2001 1.524 . S
C2002 C2003 1.415 . S
C2003 H1973 0.950 . S
C2003 C1998 1.363 . S
C2003 C2002 1.415 . S
H2004 C2001 0.999 . S
H2005 C1986 0.913 . S
H2006 C2024 0.951 . S
H2007 C2026 0.951 . S
H2008 C2028 0.950 . S
H2009 C2029 0.950 . S
H2010 C2031 0.950 . S
H2011 C2034 0.950 . S
H2012 C2035 0.950 . S
H2013 C2037 0.950 . S
H2014 C2038 0.950 . S
H2015 C2039 0.951 . S
H2016 C2041 0.951 . S
H2017 C2043 0.950 . S
H2018 C2044 0.950 . S
H2019 C2046 0.950 . S
H2020 C2049 0.950 . S
H2021 C2050 0.950 . S
H2022 C2052 0.950 . S
H2023 C2053 0.950 . S
C2024 H2006 0.951 . S
C2024 C2025 1.366 . S
C2024 C2026 1.388 . S
C2025 C2024 1.366 . S
C2025 C2029 1.385 . S
C2026 H2007 0.951 . S
C2026 C2024 1.388 . S
C2026 C2027 1.366 . S
C2027 C2026 1.366 . S
C2027 C2028 1.414 . S
C2027 C2030 1.499 . S
C2028 H2008 0.950 . S
C2028 C2027 1.414 . S
C2028 C2029 1.374 . S
C2029 H2009 0.950 . S
C2029 C2025 1.385 . S
C2029 C2028 1.374 . S
C2030 C2027 1.499 . S
C2030 C2031 1.373 . S
C2030 C2032 1.389 . S
C2031 H2010 0.950 . S
C2031 C2030 1.373 . S
C2031 C2047 1.377 . S
C2032 C2030 1.389 . S
C2032 C2033 1.524 . S
C2032 C2046 1.377 . S
C2033 C2032 1.524 . S
C2033 C2034 1.397 . S
C2033 C2038 1.363 . S
C2034 H2011 0.950 . S
C2034 C2033 1.397 . S
C2034 C2035 1.334 . S
C2035 H2012 0.950 . S
C2035 C2034 1.334 . S
C2035 C2036 1.287 . S
C2036 C2035 1.287 . S
C2036 C2037 1.524 . S
C2036 H2055 0.913 . S
C2037 H2013 0.950 . S
C2037 C2036 1.524 . S
C2037 C2038 1.415 . S
C2038 H2014 0.950 . S
C2038 C2033 1.363 . S
C2038 C2037 1.415 . S
C2039 H2015 0.951 . S
C2039 C2040 1.366 . S
C2039 C2041 1.388 . S
C2040 C2039 1.366 . S
C2040 C2044 1.385 . S
C2041 H2016 0.951 . S
C2041 C2039 1.388 . S
C2041 C2042 1.366 . S
C2042 C2041 1.366 . S
C2042 C2043 1.414 . S
C2042 C2045 1.499 . S
C2043 H2017 0.950 . S
C2043 C2042 1.414 . S
C2043 C2044 1.374 . S
C2044 H2018 0.950 . S
C2044 C2040 1.385 . S
C2044 C2043 1.374 . S
C2045 C2042 1.499 . S
C2045 C2046 1.373 . S
C2045 C2047 1.389 . S
C2046 H2019 0.950 . S
C2046 C2032 1.377 . S
C2046 C2045 1.373 . S
C2047 C2031 1.377 . S
C2047 C2045 1.389 . S
C2047 C2048 1.524 . S
C2048 C2047 1.524 . S
C2048 C2049 1.397 . S
C2048 C2053 1.363 . S
C2049 H2020 0.950 . S
C2049 C2048 1.397 . S
C2049 C2050 1.334 . S
C2050 H2021 0.950 . S
C2050 C2049 1.334 . S
C2050 C2051 1.287 . S
C2051 C2050 1.287 . S
C2051 C2052 1.524 . S
C2051 H2054 0.999 . S
C2052 H2022 0.950 . S
C2052 C2051 1.524 . S
C2052 C2053 1.415 . S
C2053 H2023 0.950 . S
C2053 C2048 1.363 . S
C2053 C2052 1.415 . S
H2054 C2051 0.999 . S
H2055 C2036 0.913 . S
H2056 C2074 0.951 . S
H2057 C2076 0.951 . S
H2058 C2078 0.950 1_655 S
H2059 C2079 0.950 1_655 S
H2060 C2081 0.950 . S
H2061 C2084 0.950 . S
H2062 C2085 0.950 . S
H2063 C2087 0.950 . S
H2064 C2088 0.950 . S
H2065 C2089 0.951 . S
H2066 C2091 0.951 . S
H2067 C2093 0.950 . S
H2068 C2094 0.950 . S
H2069 C2096 0.950 . S
H2070 C2099 0.950 . S
H2071 C2100 0.950 . S
H2072 C2102 0.950 . S
H2073 C2103 0.950 . S
C2074 H2056 0.951 . S
C2074 C2075 1.366 . S
C2074 C2076 1.388 . S
C2075 C2074 1.366 . S
C2075 C2079 1.385 . S
C2076 H2057 0.951 . S
C2076 C2074 1.388 . S
C2076 C2077 1.366 . S
C2077 C2076 1.366 . S
C2077 C2078 1.414 . S
C2077 C2080 1.499 . S
C2078 H2058 0.950 1_455 S
C2078 C2077 1.414 . S
C2078 C2079 1.374 . S
C2079 H2059 0.950 1_455 S
C2079 C2075 1.385 . S
C2079 C2078 1.374 . S
C2080 C2077 1.499 . S
C2080 C2081 1.373 1_455 S
C2080 C2082 1.389 . S
C2081 H2060 0.950 . S
C2081 C2080 1.373 1_655 S
C2081 C2097 1.377 . S
C2082 C2080 1.389 . S
C2082 C2083 1.524 . S
C2082 C2096 1.377 . S
C2083 C2082 1.524 . S
C2083 C2084 1.397 . S
C2083 C2088 1.363 . S
C2084 H2061 0.950 . S
C2084 C2083 1.397 . S
C2084 C2085 1.334 . S
C2085 H2062 0.950 . S
C2085 C2084 1.334 . S
C2085 C2086 1.287 . S
C2086 C2085 1.287 . S
C2086 C2087 1.524 . S
C2086 H2105 0.913 . S
C2087 H2063 0.950 . S
C2087 C2086 1.524 . S
C2087 C2088 1.415 . S
C2088 H2064 0.950 . S
C2088 C2083 1.363 . S
C2088 C2087 1.415 . S
C2089 H2065 0.951 . S
C2089 C2090 1.366 1_655 S
C2089 C2091 1.388 . S
C2090 C2089 1.366 1_455 S
C2090 C2094 1.385 . S
C2091 H2066 0.951 . S
C2091 C2089 1.388 . S
C2091 C2092 1.366 1_655 S
C2092 C2091 1.366 1_455 S
C2092 C2093 1.414 . S
C2092 C2095 1.499 . S
C2093 H2067 0.950 . S
C2093 C2092 1.414 . S
C2093 C2094 1.374 . S
C2094 H2068 0.950 . S
C2094 C2090 1.385 . S
C2094 C2093 1.374 . S
C2095 C2092 1.499 . S
C2095 C2096 1.373 . S
C2095 C2097 1.389 1_455 S
C2096 H2069 0.950 . S
C2096 C2082 1.377 . S
C2096 C2095 1.373 . S
C2097 C2081 1.377 . S
C2097 C2095 1.389 1_655 S
C2097 C2098 1.524 . S
C2098 C2097 1.524 . S
C2098 C2099 1.397 . S
C2098 C2103 1.363 . S
C2099 H2070 0.950 . S
C2099 C2098 1.397 . S
C2099 C2100 1.334 . S
C2100 H2071 0.950 . S
C2100 C2099 1.334 . S
C2100 C2101 1.287 . S
C2101 C2100 1.287 . S
C2101 C2102 1.524 . S
C2101 H2104 0.999 . S
C2102 H2072 0.950 . S
C2102 C2101 1.524 . S
C2102 C2103 1.415 . S
C2103 H2073 0.950 . S
C2103 C2098 1.363 . S
C2103 C2102 1.415 . S
H2104 C2101 0.999 . S
H2105 C2086 0.913 . S
H2106 C2124 0.951 . S
H2107 C2126 0.951 . S
H2108 C2128 0.950 . S
H2109 C2129 0.950 . S
H2110 C2131 0.950 . S
H2111 C2134 0.950 . S
H2112 C2135 0.950 . S
H2113 C2137 0.950 . S
H2114 C2138 0.950 . S
H2115 C2139 0.951 . S
H2116 C2141 0.951 . S
H2117 C2143 0.950 . S
H2118 C2144 0.950 . S
H2119 C2146 0.950 . S
H2120 C2149 0.950 . S
H2121 C2150 0.950 . S
H2122 C2152 0.950 . S
H2123 C2153 0.950 . S
C2124 H2106 0.951 . S
C2124 C2125 1.366 . S
C2124 C2126 1.388 . S
C2125 C2124 1.366 . S
C2125 C2129 1.385 . S
C2126 H2107 0.951 . S
C2126 C2124 1.388 . S
C2126 C2127 1.366 . S
C2127 C2126 1.366 . S
C2127 C2128 1.414 . S
C2127 C2130 1.499 . S
C2128 H2108 0.950 . S
C2128 C2127 1.414 . S
C2128 C2129 1.374 . S
C2129 H2109 0.950 . S
C2129 C2125 1.385 . S
C2129 C2128 1.374 . S
C2130 C2127 1.499 . S
C2130 C2131 1.373 . S
C2130 C2132 1.389 . S
C2131 H2110 0.950 . S
C2131 C2130 1.373 . S
C2131 C2147 1.377 . S
C2132 C2130 1.389 . S
C2132 C2133 1.524 . S
C2132 C2146 1.377 . S
C2133 C2132 1.524 . S
C2133 C2134 1.397 . S
C2133 C2138 1.363 . S
C2134 H2111 0.950 . S
C2134 C2133 1.397 . S
C2134 C2135 1.334 . S
C2135 H2112 0.950 . S
C2135 C2134 1.334 . S
C2135 C2136 1.287 . S
C2136 C2135 1.287 . S
C2136 C2137 1.524 . S
C2136 H2155 0.913 . S
C2137 H2113 0.950 . S
C2137 C2136 1.524 . S
C2137 C2138 1.415 . S
C2138 H2114 0.950 . S
C2138 C2133 1.363 . S
C2138 C2137 1.415 . S
C2139 H2115 0.951 . S
C2139 C2140 1.366 . S
C2139 C2141 1.388 . S
C2140 C2139 1.366 . S
C2140 C2144 1.385 . S
C2141 H2116 0.951 . S
C2141 C2139 1.388 . S
C2141 C2142 1.366 . S
C2142 C2141 1.366 . S
C2142 C2143 1.414 . S
C2142 C2145 1.499 . S
C2143 H2117 0.950 . S
C2143 C2142 1.414 . S
C2143 C2144 1.374 . S
C2144 H2118 0.950 . S
C2144 C2140 1.385 . S
C2144 C2143 1.374 . S
C2145 C2142 1.499 . S
C2145 C2146 1.373 . S
C2145 C2147 1.389 . S
C2146 H2119 0.950 . S
C2146 C2132 1.377 . S
C2146 C2145 1.373 . S
C2147 C2131 1.377 . S
C2147 C2145 1.389 . S
C2147 C2148 1.524 . S
C2148 C2147 1.524 . S
C2148 C2149 1.397 . S
C2148 C2153 1.363 . S
C2149 H2120 0.950 . S
C2149 C2148 1.397 . S
C2149 C2150 1.334 . S
C2150 H2121 0.950 . S
C2150 C2149 1.334 . S
C2150 C2151 1.287 . S
C2151 C2150 1.287 . S
C2151 C2152 1.524 . S
C2151 H2154 0.999 . S
C2152 H2122 0.950 . S
C2152 C2151 1.524 . S
C2152 C2153 1.415 . S
C2153 H2123 0.950 . S
C2153 C2148 1.363 . S
C2153 C2152 1.415 . S
H2154 C2151 0.999 . S
H2155 C2136 0.913 . S
H2156 C2174 0.951 . S
H2157 C2176 0.951 . S
H2158 C2178 0.950 . S
H2159 C2179 0.950 . S
H2160 C2181 0.950 . S
H2161 C2184 0.950 . S
H2162 C2185 0.950 . S
H2163 C2187 0.950 . S
H2164 C2188 0.950 . S
H2165 C2189 0.951 . S
H2166 C2191 0.951 . S
H2167 C2193 0.950 . S
H2168 C2194 0.950 1_554 S
H2169 C2196 0.950 . S
H2170 C2199 0.950 . S
H2171 C2200 0.950 1_554 S
H2172 C2202 0.950 . S
H2173 C2203 0.950 . S
C2174 H2156 0.951 . S
C2174 C2175 1.366 . S
C2174 C2176 1.388 . S
C2175 C2174 1.366 . S
C2175 C2179 1.385 . S
C2176 H2157 0.951 . S
C2176 C2174 1.388 . S
C2176 C2177 1.366 . S
C2177 C2176 1.366 . S
C2177 C2178 1.414 . S
C2177 C2180 1.499 . S
C2178 H2158 0.950 . S
C2178 C2177 1.414 . S
C2178 C2179 1.374 . S
C2179 H2159 0.950 . S
C2179 C2175 1.385 . S
C2179 C2178 1.374 . S
C2180 C2177 1.499 . S
C2180 C2181 1.373 . S
C2180 C2182 1.389 . S
C2181 H2160 0.950 . S
C2181 C2180 1.373 . S
C2181 C2197 1.377 . S
C2182 C2180 1.389 . S
C2182 C2183 1.524 . S
C2182 C2196 1.377 . S
C2183 C2182 1.524 . S
C2183 C2184 1.397 . S
C2183 C2188 1.363 . S
C2184 H2161 0.950 . S
C2184 C2183 1.397 . S
C2184 C2185 1.334 . S
C2185 H2162 0.950 . S
C2185 C2184 1.334 . S
C2185 C2186 1.287 . S
C2186 C2185 1.287 . S
C2186 C2187 1.524 . S
C2186 H2205 0.913 . S
C2187 H2163 0.950 . S
C2187 C2186 1.524 . S
C2187 C2188 1.415 . S
C2188 H2164 0.950 . S
C2188 C2183 1.363 . S
C2188 C2187 1.415 . S
C2189 H2165 0.951 . S
C2189 C2190 1.366 . S
C2189 C2191 1.388 . S
C2190 C2189 1.366 . S
C2190 C2194 1.385 . S
C2191 H2166 0.951 . S
C2191 C2189 1.388 . S
C2191 C2192 1.366 . S
C2192 C2191 1.366 . S
C2192 C2193 1.414 . S
C2192 C2195 1.499 . S
C2193 H2167 0.950 . S
C2193 C2192 1.414 . S
C2193 C2194 1.374 . S
C2194 H2168 0.950 1_556 S
C2194 C2190 1.385 . S
C2194 C2193 1.374 . S
C2195 C2192 1.499 . S
C2195 C2196 1.373 . S
C2195 C2197 1.389 . S
C2196 H2169 0.950 . S
C2196 C2182 1.377 . S
C2196 C2195 1.373 . S
C2197 C2181 1.377 . S
C2197 C2195 1.389 . S
C2197 C2198 1.524 . S
C2198 C2197 1.524 . S
C2198 C2199 1.397 . S
C2198 C2203 1.363 . S
C2199 H2170 0.950 . S
C2199 C2198 1.397 . S
C2199 C2200 1.334 . S
C2200 H2171 0.950 1_556 S
C2200 C2199 1.334 . S
C2200 C2201 1.287 . S
C2201 C2200 1.287 . S
C2201 C2202 1.524 . S
C2201 H2204 0.999 . S
C2202 H2172 0.950 . S
C2202 C2201 1.524 . S
C2202 C2203 1.415 . S
C2203 H2173 0.950 . S
C2203 C2198 1.363 . S
C2203 C2202 1.415 . S
H2204 C2201 0.999 . S
H2205 C2186 0.913 . S
H2206 C2224 0.951 . S
H2207 C2226 0.951 . S
H2208 C2228 0.950 . S
H2209 C2229 0.950 . S
H2210 C2231 0.950 . S
H2211 C2234 0.950 . S
H2212 C2235 0.950 . S
H2213 C2237 0.950 . S
H2214 C2238 0.950 . S
H2215 C2239 0.951 . S
H2216 C2241 0.951 . S
H2217 C2243 0.950 . S
H2218 C2244 0.950 . S
H2219 C2246 0.950 . S
H2220 C2249 0.950 . S
H2221 C2250 0.950 . S
H2222 C2252 0.950 . S
H2223 C2253 0.950 . S
C2224 H2206 0.951 . S
C2224 C2225 1.366 . S
C2224 C2226 1.388 . S
C2225 C2224 1.366 . S
C2225 C2229 1.385 . S
C2226 H2207 0.951 . S
C2226 C2224 1.388 . S
C2226 C2227 1.366 . S
C2227 C2226 1.366 . S
C2227 C2228 1.414 . S
C2227 C2230 1.499 . S
C2228 H2208 0.950 . S
C2228 C2227 1.414 . S
C2228 C2229 1.374 . S
C2229 H2209 0.950 . S
C2229 C2225 1.385 . S
C2229 C2228 1.374 . S
C2230 C2227 1.499 . S
C2230 C2231 1.373 . S
C2230 C2232 1.389 . S
C2231 H2210 0.950 . S
C2231 C2230 1.373 . S
C2231 C2247 1.377 . S
C2232 C2230 1.389 . S
C2232 C2233 1.524 . S
C2232 C2246 1.377 . S
C2233 C2232 1.524 . S
C2233 C2234 1.397 . S
C2233 C2238 1.363 . S
C2234 H2211 0.950 . S
C2234 C2233 1.397 . S
C2234 C2235 1.334 . S
C2235 H2212 0.950 . S
C2235 C2234 1.334 . S
C2235 C2236 1.287 . S
C2236 C2235 1.287 . S
C2236 C2237 1.524 . S
C2236 H2255 0.913 . S
C2237 H2213 0.950 . S
C2237 C2236 1.524 . S
C2237 C2238 1.415 . S
C2238 H2214 0.950 . S
C2238 C2233 1.363 . S
C2238 C2237 1.415 . S
C2239 H2215 0.951 . S
C2239 C2240 1.366 . S
C2239 C2241 1.388 . S
C2240 C2239 1.366 . S
C2240 C2244 1.385 . S
C2241 H2216 0.951 . S
C2241 C2239 1.388 . S
C2241 C2242 1.366 . S
C2242 C2241 1.366 . S
C2242 C2243 1.414 . S
C2242 C2245 1.499 . S
C2243 H2217 0.950 . S
C2243 C2242 1.414 . S
C2243 C2244 1.374 . S
C2244 H2218 0.950 . S
C2244 C2240 1.385 . S
C2244 C2243 1.374 . S
C2245 C2242 1.499 . S
C2245 C2246 1.373 . S
C2245 C2247 1.389 . S
C2246 H2219 0.950 . S
C2246 C2232 1.377 . S
C2246 C2245 1.373 . S
C2247 C2231 1.377 . S
C2247 C2245 1.389 . S
C2247 C2248 1.524 . S
C2248 C2247 1.524 . S
C2248 C2249 1.397 . S
C2248 C2253 1.363 . S
C2249 H2220 0.950 . S
C2249 C2248 1.397 . S
C2249 C2250 1.334 . S
C2250 H2221 0.950 . S
C2250 C2249 1.334 . S
C2250 C2251 1.287 . S
C2251 C2250 1.287 . S
C2251 C2252 1.524 . S
C2251 H2254 0.999 . S
C2252 H2222 0.950 . S
C2252 C2251 1.524 . S
C2252 C2253 1.415 . S
C2253 H2223 0.950 . S
C2253 C2248 1.363 . S
C2253 C2252 1.415 . S
H2254 C2251 0.999 . S
H2255 C2236 0.913 . S
H2256 C2274 0.951 . S
H2257 C2276 0.951 . S
H2258 C2278 0.950 . S
H2259 C2279 0.950 . S
H2260 C2281 0.950 . S
H2261 C2284 0.950 . S
H2262 C2285 0.950 . S
H2263 C2287 0.950 . S
H2264 C2288 0.950 . S
H2265 C2289 0.951 . S
H2266 C2291 0.951 . S
H2267 C2293 0.950 . S
H2268 C2294 0.950 . S
H2269 C2296 0.950 . S
H2270 C2299 0.950 . S
H2271 C2300 0.950 . S
H2272 C2302 0.950 . S
H2273 C2303 0.950 . S
C2274 H2256 0.951 . S
C2274 C2275 1.366 1_565 S
C2274 C2276 1.388 . S
C2275 C2274 1.366 1_545 S
C2275 C2279 1.385 . S
C2276 H2257 0.951 . S
C2276 C2274 1.388 . S
C2276 C2277 1.366 1_565 S
C2277 C2276 1.366 1_545 S
C2277 C2278 1.414 . S
C2277 C2280 1.499 . S
C2278 H2258 0.950 . S
C2278 C2277 1.414 . S
C2278 C2279 1.374 . S
C2279 H2259 0.950 . S
C2279 C2275 1.385 . S
C2279 C2278 1.374 . S
C2280 C2277 1.499 . S
C2280 C2281 1.373 . S
C2280 C2282 1.389 1_545 S
C2281 H2260 0.950 . S
C2281 C2280 1.373 . S
C2281 C2297 1.377 . S
C2282 C2280 1.389 1_565 S
C2282 C2283 1.524 . S
C2282 C2296 1.377 . S
C2283 C2282 1.524 . S
C2283 C2284 1.397 . S
C2283 C2288 1.363 . S
C2284 H2261 0.950 . S
C2284 C2283 1.397 . S
C2284 C2285 1.334 . S
C2285 H2262 0.950 . S
C2285 C2284 1.334 . S
C2285 C2286 1.287 . S
C2286 C2285 1.287 . S
C2286 C2287 1.524 . S
C2286 H2305 0.913 . S
C2287 H2263 0.950 . S
C2287 C2286 1.524 . S
C2287 C2288 1.415 . S
C2288 H2264 0.950 . S
C2288 C2283 1.363 . S
C2288 C2287 1.415 . S
C2289 H2265 0.951 . S
C2289 C2290 1.366 . S
C2289 C2291 1.388 . S
C2290 C2289 1.366 . S
C2290 C2294 1.385 1_545 S
C2291 H2266 0.951 . S
C2291 C2289 1.388 . S
C2291 C2292 1.366 . S
C2292 C2291 1.366 . S
C2292 C2293 1.414 1_545 S
C2292 C2295 1.499 . S
C2293 H2267 0.950 . S
C2293 C2292 1.414 1_565 S
C2293 C2294 1.374 . S
C2294 H2268 0.950 . S
C2294 C2290 1.385 1_565 S
C2294 C2293 1.374 . S
C2295 C2292 1.499 . S
C2295 C2296 1.373 1_545 S
C2295 C2297 1.389 . S
C2296 H2269 0.950 . S
C2296 C2282 1.377 . S
C2296 C2295 1.373 1_565 S
C2297 C2281 1.377 . S
C2297 C2295 1.389 . S
C2297 C2298 1.524 . S
C2298 C2297 1.524 . S
C2298 C2299 1.397 . S
C2298 C2303 1.363 . S
C2299 H2270 0.950 . S
C2299 C2298 1.397 . S
C2299 C2300 1.334 . S
C2300 H2271 0.950 . S
C2300 C2299 1.334 . S
C2300 C2301 1.287 . S
C2301 C2300 1.287 . S
C2301 C2302 1.524 . S
C2301 H2304 0.999 . S
C2302 H2272 0.950 . S
C2302 C2301 1.524 . S
C2302 C2303 1.415 . S
C2303 H2273 0.950 . S
C2303 C2298 1.363 . S
C2303 C2302 1.415 . S
H2304 C2301 0.999 . S
H2305 C2286 0.913 . S
H2306 C2324 0.951 . S
H2307 C2326 0.951 . S
H2308 C2328 0.950 . S
H2309 C2329 0.950 . S
H2310 C2331 0.950 . S
H2311 C2334 0.950 . S
H2312 C2335 0.950 . S
H2313 C2337 0.950 . S
H2314 C2338 0.950 . S
H2315 C2339 0.951 . S
H2316 C2341 0.951 . S
H2317 C2343 0.950 . S
H2318 C2344 0.950 . S
H2319 C2346 0.950 . S
H2320 C2349 0.950 . S
H2321 C2350 0.950 . S
H2322 C2352 0.950 . S
H2323 C2353 0.950 . S
C2324 H2306 0.951 . S
C2324 C2325 1.366 . S
C2324 C2326 1.388 . S
C2325 C2324 1.366 . S
C2325 C2329 1.385 . S
C2326 H2307 0.951 . S
C2326 C2324 1.388 . S
C2326 C2327 1.366 . S
C2327 C2326 1.366 . S
C2327 C2328 1.414 . S
C2327 C2330 1.499 . S
C2328 H2308 0.950 . S
C2328 C2327 1.414 . S
C2328 C2329 1.374 . S
C2329 H2309 0.950 . S
C2329 C2325 1.385 . S
C2329 C2328 1.374 . S
C2330 C2327 1.499 . S
C2330 C2331 1.373 . S
C2330 C2332 1.389 . S
C2331 H2310 0.950 . S
C2331 C2330 1.373 . S
C2331 C2347 1.377 . S
C2332 C2330 1.389 . S
C2332 C2333 1.524 . S
C2332 C2346 1.377 . S
C2333 C2332 1.524 . S
C2333 C2334 1.397 . S
C2333 C2338 1.363 . S
C2334 H2311 0.950 . S
C2334 C2333 1.397 . S
C2334 C2335 1.334 . S
C2335 H2312 0.950 . S
C2335 C2334 1.334 . S
C2335 C2336 1.287 . S
C2336 C2335 1.287 . S
C2336 C2337 1.524 . S
C2336 H2355 0.913 . S
C2337 H2313 0.950 . S
C2337 C2336 1.524 . S
C2337 C2338 1.415 . S
C2338 H2314 0.950 . S
C2338 C2333 1.363 . S
C2338 C2337 1.415 . S
C2339 H2315 0.951 . S
C2339 C2340 1.366 . S
C2339 C2341 1.388 . S
C2340 C2339 1.366 . S
C2340 C2344 1.385 . S
C2341 H2316 0.951 . S
C2341 C2339 1.388 . S
C2341 C2342 1.366 . S
C2342 C2341 1.366 . S
C2342 C2343 1.414 . S
C2342 C2345 1.499 . S
C2343 H2317 0.950 . S
C2343 C2342 1.414 . S
C2343 C2344 1.374 . S
C2344 H2318 0.950 . S
C2344 C2340 1.385 . S
C2344 C2343 1.374 . S
C2345 C2342 1.499 . S
C2345 C2346 1.373 . S
C2345 C2347 1.389 . S
C2346 H2319 0.950 . S
C2346 C2332 1.377 . S
C2346 C2345 1.373 . S
C2347 C2331 1.377 . S
C2347 C2345 1.389 . S
C2347 C2348 1.524 . S
C2348 C2347 1.524 . S
C2348 C2349 1.397 . S
C2348 C2353 1.363 . S
C2349 H2320 0.950 . S
C2349 C2348 1.397 . S
C2349 C2350 1.334 . S
C2350 H2321 0.950 . S
C2350 C2349 1.334 . S
C2350 C2351 1.287 . S
C2351 C2350 1.287 . S
C2351 C2352 1.524 . S
C2351 H2354 0.999 . S
C2352 H2322 0.950 . S
C2352 C2351 1.524 . S
C2352 C2353 1.415 . S
C2353 H2323 0.950 . S
C2353 C2348 1.363 . S
C2353 C2352 1.415 . S
H2354 C2351 0.999 . S
H2355 C2336 0.913 . S
H2356 C2374 0.951 1_565 S
H2357 C2376 0.951 1_565 S
H2358 C2378 0.950 . S
H2359 C2379 0.950 . S
H2360 C2381 0.950 . S
H2361 C2384 0.950 . S
H2362 C2385 0.950 . S
H2363 C2387 0.950 . S
H2364 C2388 0.950 . S
H2365 C2389 0.951 . S
H2366 C2391 0.951 . S
H2367 C2393 0.950 1_565 S
H2368 C2394 0.950 1_565 S
H2369 C2396 0.950 . S
H2370 C2399 0.950 . S
H2371 C2400 0.950 . S
H2372 C2402 0.950 . S
H2373 C2403 0.950 . S
C2374 H2356 0.951 1_545 S
C2374 C2375 1.366 . S
C2374 C2376 1.388 . S
C2375 C2374 1.366 . S
C2375 C2379 1.385 . S
C2376 H2357 0.951 1_545 S
C2376 C2374 1.388 . S
C2376 C2377 1.366 . S
C2377 C2376 1.366 . S
C2377 C2378 1.414 . S
C2377 C2380 1.499 . S
C2378 H2358 0.950 . S
C2378 C2377 1.414 . S
C2378 C2379 1.374 . S
C2379 H2359 0.950 . S
C2379 C2375 1.385 . S
C2379 C2378 1.374 . S
C2380 C2377 1.499 . S
C2380 C2381 1.373 . S
C2380 C2382 1.389 . S
C2381 H2360 0.950 . S
C2381 C2380 1.373 . S
C2381 C2397 1.377 . S
C2382 C2380 1.389 . S
C2382 C2383 1.524 . S
C2382 C2396 1.377 . S
C2383 C2382 1.524 . S
C2383 C2384 1.397 . S
C2383 C2388 1.363 1_545 S
C2384 H2361 0.950 . S
C2384 C2383 1.397 . S
C2384 C2385 1.334 . S
C2385 H2362 0.950 . S
C2385 C2384 1.334 . S
C2385 C2386 1.287 1_545 S
C2386 C2385 1.287 1_565 S
C2386 C2387 1.524 . S
C2386 H2405 0.913 . S
C2387 H2363 0.950 . S
C2387 C2386 1.524 . S
C2387 C2388 1.415 . S
C2388 H2364 0.950 . S
C2388 C2383 1.363 1_565 S
C2388 C2387 1.415 . S
C2389 H2365 0.951 . S
C2389 C2390 1.366 . S
C2389 C2391 1.388 . S
C2390 C2389 1.366 . S
C2390 C2394 1.385 . S
C2391 H2366 0.951 . S
C2391 C2389 1.388 . S
C2391 C2392 1.366 . S
C2392 C2391 1.366 . S
C2392 C2393 1.414 . S
C2392 C2395 1.499 . S
C2393 H2367 0.950 1_545 S
C2393 C2392 1.414 . S
C2393 C2394 1.374 . S
C2394 H2368 0.950 1_545 S
C2394 C2390 1.385 . S
C2394 C2393 1.374 . S
C2395 C2392 1.499 . S
C2395 C2396 1.373 . S
C2395 C2397 1.389 . S
C2396 H2369 0.950 . S
C2396 C2382 1.377 . S
C2396 C2395 1.373 . S
C2397 C2381 1.377 . S
C2397 C2395 1.389 . S
C2397 C2398 1.524 . S
C2398 C2397 1.524 . S
C2398 C2399 1.397 . S
C2398 C2403 1.363 . S
C2399 H2370 0.950 . S
C2399 C2398 1.397 . S
C2399 C2400 1.334 . S
C2400 H2371 0.950 . S
C2400 C2399 1.334 . S
C2400 C2401 1.287 . S
C2401 C2400 1.287 . S
C2401 C2402 1.524 . S
C2401 H2404 0.999 . S
C2402 H2372 0.950 . S
C2402 C2401 1.524 . S
C2402 C2403 1.415 . S
C2403 H2373 0.950 . S
C2403 C2398 1.363 . S
C2403 C2402 1.415 . S
H2404 C2401 0.999 . S
H2405 C2386 0.913 . S
H2406 C2424 0.951 . S
H2407 C2426 0.951 . S
H2408 C2428 0.950 . S
H2409 C2429 0.950 . S
H2410 C2431 0.950 . S
H2411 C2434 0.950 . S
H2412 C2435 0.950 . S
H2413 C2437 0.950 . S
H2414 C2438 0.950 . S
H2415 C2439 0.951 . S
H2416 C2441 0.951 . S
H2417 C2443 0.950 . S
H2418 C2444 0.950 . S
H2419 C2446 0.950 . S
H2420 C2449 0.950 . S
H2421 C2450 0.950 . S
H2422 C2452 0.950 . S
H2423 C2453 0.950 . S
C2424 H2406 0.951 . S
C2424 C2425 1.366 . S
C2424 C2426 1.388 . S
C2425 C2424 1.366 . S
C2425 C2429 1.385 . S
C2426 H2407 0.951 . S
C2426 C2424 1.388 . S
C2426 C2427 1.366 . S
C2427 C2426 1.366 . S
C2427 C2428 1.414 . S
C2427 C2430 1.499 . S
C2428 H2408 0.950 . S
C2428 C2427 1.414 . S
C2428 C2429 1.374 . S
C2429 H2409 0.950 . S
C2429 C2425 1.385 . S
C2429 C2428 1.374 . S
C2430 C2427 1.499 . S
C2430 C2431 1.373 . S
C2430 C2432 1.389 . S
C2431 H2410 0.950 . S
C2431 C2430 1.373 . S
C2431 C2447 1.377 . S
C2432 C2430 1.389 . S
C2432 C2433 1.524 . S
C2432 C2446 1.377 . S
C2433 C2432 1.524 . S
C2433 C2434 1.397 . S
C2433 C2438 1.363 . S
C2434 H2411 0.950 . S
C2434 C2433 1.397 . S
C2434 C2435 1.334 . S
C2435 H2412 0.950 . S
C2435 C2434 1.334 . S
C2435 C2436 1.287 . S
C2436 C2435 1.287 . S
C2436 C2437 1.524 . S
C2436 H2455 0.913 . S
C2437 H2413 0.950 . S
C2437 C2436 1.524 . S
C2437 C2438 1.415 . S
C2438 H2414 0.950 . S
C2438 C2433 1.363 . S
C2438 C2437 1.415 . S
C2439 H2415 0.951 . S
C2439 C2440 1.366 . S
C2439 C2441 1.388 . S
C2440 C2439 1.366 . S
C2440 C2444 1.385 . S
C2441 H2416 0.951 . S
C2441 C2439 1.388 . S
C2441 C2442 1.366 . S
C2442 C2441 1.366 . S
C2442 C2443 1.414 . S
C2442 C2445 1.499 . S
C2443 H2417 0.950 . S
C2443 C2442 1.414 . S
C2443 C2444 1.374 . S
C2444 H2418 0.950 . S
C2444 C2440 1.385 . S
C2444 C2443 1.374 . S
C2445 C2442 1.499 . S
C2445 C2446 1.373 . S
C2445 C2447 1.389 . S
C2446 H2419 0.950 . S
C2446 C2432 1.377 . S
C2446 C2445 1.373 . S
C2447 C2431 1.377 . S
C2447 C2445 1.389 . S
C2447 C2448 1.524 . S
C2448 C2447 1.524 . S
C2448 C2449 1.397 . S
C2448 C2453 1.363 . S
C2449 H2420 0.950 . S
C2449 C2448 1.397 . S
C2449 C2450 1.334 . S
C2450 H2421 0.950 . S
C2450 C2449 1.334 . S
C2450 C2451 1.287 . S
C2451 C2450 1.287 . S
C2451 C2452 1.524 . S
C2451 H2454 0.999 . S
C2452 H2422 0.950 . S
C2452 C2451 1.524 . S
C2452 C2453 1.415 . S
C2453 H2423 0.950 . S
C2453 C2448 1.363 . S
C2453 C2452 1.415 . S
H2454 C2451 0.999 . S
H2455 C2436 0.913 . S
H2456 C2474 0.951 . S
H2457 C2476 0.951 . S
H2458 C2478 0.950 . S
H2459 C2479 0.950 . S
H2460 C2481 0.950 . S
H2461 C2484 0.950 . S
H2462 C2485 0.950 . S
H2463 C2487 0.950 . S
H2464 C2488 0.950 1_565 S
H2465 C2489 0.951 . S
H2466 C2491 0.951 . S
H2467 C2493 0.950 1_565 S
H2468 C2494 0.963 . S
H2469 C2496 0.950 . S
H2470 C2499 0.950 . S
H2471 C2500 0.929 1_655 S
H2472 C2502 0.950 1_655 S
H2473 C2503 0.950 . S
C2474 H2456 0.951 . S
C2474 C2475 1.366 . S
C2474 C2476 1.388 . S
C2475 C2474 1.366 . S
C2475 C2479 1.385 1_565 S
C2476 H2457 0.951 . S
C2476 C2474 1.388 . S
C2476 C2477 1.366 1_565 S
C2477 C2476 1.366 1_545 S
C2477 C2478 1.414 . S
C2477 C2480 1.499 . S
C2478 H2458 0.950 . S
C2478 C2477 1.414 . S
C2478 C2479 1.374 . S
C2479 H2459 0.950 . S
C2479 C2475 1.385 1_545 S
C2479 C2478 1.374 . S
C2480 C2477 1.499 . S
C2480 C2481 1.373 . S
C2480 C2482 1.389 . S
C2481 H2460 0.950 . S
C2481 C2480 1.373 . S
C2481 C2497 1.377 . S
C2482 C2480 1.389 . S
C2482 C2483 1.524 . S
C2482 C2496 1.377 . S
C2483 C2482 1.524 . S
C2483 C2484 1.397 . S
C2483 C2488 1.363 . S
C2484 H2461 0.950 . S
C2484 C2483 1.397 . S
C2484 C2485 1.334 . S
C2485 H2462 0.950 . S
C2485 C2484 1.334 . S
C2485 C2486 1.287 . S
C2486 C2485 1.287 . S
C2486 C2487 1.524 . S
C2486 H2505 0.913 . S
C2487 H2463 0.950 . S
C2487 C2486 1.524 . S
C2487 C2488 1.415 . S
C2488 H2464 0.950 1_545 S
C2488 C2483 1.363 . S
C2488 C2487 1.415 . S
C2489 H2465 0.951 . S
C2489 C2490 1.366 . S
C2489 C2491 1.388 . S
C2490 C2489 1.366 . S
C2490 C2494 1.385 . S
C2491 H2466 0.951 . S
C2491 C2489 1.388 . S
C2491 C2492 1.366 . S
C2492 C2491 1.366 . S
C2492 C2493 1.414 . S
C2492 C2495 1.499 . S
C2493 H2467 0.950 1_545 S
C2493 C2492 1.414 . S
C2493 C2494 1.374 . S
C2494 H2468 0.963 . S
C2494 C2490 1.385 . S
C2494 C2493 1.374 . S
C2495 C2492 1.499 . S
C2495 C2496 1.373 . S
C2495 C2497 1.389 . S
C2496 H2469 0.950 . S
C2496 C2482 1.377 . S
C2496 C2495 1.373 . S
C2497 C2481 1.377 . S
C2497 C2495 1.389 . S
C2497 C2498 1.524 . S
C2498 C2497 1.524 . S
C2498 C2499 1.397 1_545 S
C2498 C2503 1.363 . S
C2499 H2470 0.950 . S
C2499 C2498 1.397 1_565 S
C2499 C2500 1.395 . S
C2500 H2471 0.929 1_455 S
C2500 C2499 1.395 . S
C2500 C2501 1.250 1_455 S
C2501 C2500 1.250 1_655 S
C2501 C2502 1.524 1_665 S
C2501 H2504 0.999 . S
C2502 H2472 0.950 1_455 S
C2502 C2501 1.524 1_445 S
C2502 C2503 1.415 . S
C2503 H2473 0.950 . S
C2503 C2498 1.363 . S
C2503 C2502 1.415 . S
H2504 C2501 0.999 . S
H2505 C2486 0.913 . S
H2506 C2524 0.951 . S
H2507 C2526 0.951 . S
H2508 C2528 0.950 . S
H2509 C2529 0.950 . S
H2510 C2531 0.950 . S
H2511 C2534 0.950 . S
H2512 C2535 0.950 . S
H2513 C2537 0.950 . S
H2514 C2538 0.950 . S
H2515 C2539 0.951 . S
H2516 C2541 0.951 . S
H2517 C2543 0.950 . S
H2518 C2544 0.950 . S
H2519 C2546 0.950 . S
H2520 C2549 0.950 . S
H2521 C2550 0.950 . S
H2522 C2552 0.950 . S
H2523 C2553 0.950 . S
C2524 H2506 0.951 . S
C2524 C2525 1.366 . S
C2524 C2526 1.388 . S
C2525 C2524 1.366 . S
C2525 C2529 1.385 . S
C2526 H2507 0.951 . S
C2526 C2524 1.388 . S
C2526 C2527 1.366 . S
C2527 C2526 1.366 . S
C2527 C2528 1.414 . S
C2527 C2530 1.499 . S
C2528 H2508 0.950 . S
C2528 C2527 1.414 . S
C2528 C2529 1.374 . S
C2529 H2509 0.950 . S
C2529 C2525 1.385 . S
C2529 C2528 1.374 . S
C2530 C2527 1.499 . S
C2530 C2531 1.373 . S
C2530 C2532 1.389 . S
C2531 H2510 0.950 . S
C2531 C2530 1.373 . S
C2531 C2547 1.377 . S
C2532 C2530 1.389 . S
C2532 C2533 1.524 . S
C2532 C2546 1.377 . S
C2533 C2532 1.524 . S
C2533 C2534 1.397 . S
C2533 C2538 1.363 . S
C2534 H2511 0.950 . S
C2534 C2533 1.397 . S
C2534 C2535 1.334 . S
C2535 H2512 0.950 . S
C2535 C2534 1.334 . S
C2535 C2536 1.287 . S
C2536 C2535 1.287 . S
C2536 C2537 1.524 . S
C2536 H2555 0.913 . S
C2537 H2513 0.950 . S
C2537 C2536 1.524 . S
C2537 C2538 1.415 . S
C2538 H2514 0.950 . S
C2538 C2533 1.363 . S
C2538 C2537 1.415 . S
C2539 H2515 0.951 . S
C2539 C2540 1.366 . S
C2539 C2541 1.388 . S
C2540 C2539 1.366 . S
C2540 C2544 1.385 . S
C2541 H2516 0.951 . S
C2541 C2539 1.388 . S
C2541 C2542 1.366 . S
C2542 C2541 1.366 . S
C2542 C2543 1.414 . S
C2542 C2545 1.499 . S
C2543 H2517 0.950 . S
C2543 C2542 1.414 . S
C2543 C2544 1.374 . S
C2544 H2518 0.950 . S
C2544 C2540 1.385 . S
C2544 C2543 1.374 . S
C2545 C2542 1.499 . S
C2545 C2546 1.373 . S
C2545 C2547 1.389 . S
C2546 H2519 0.950 . S
C2546 C2532 1.377 . S
C2546 C2545 1.373 . S
C2547 C2531 1.377 . S
C2547 C2545 1.389 . S
C2547 C2548 1.524 . S
C2548 C2547 1.524 . S
C2548 C2549 1.397 . S
C2548 C2553 1.363 . S
C2549 H2520 0.950 . S
C2549 C2548 1.397 . S
C2549 C2550 1.334 . S
C2550 H2521 0.950 . S
C2550 C2549 1.334 . S
C2550 C2551 1.287 . S
C2551 C2550 1.287 . S
C2551 C2552 1.524 . S
C2551 H2554 0.999 . S
C2552 H2522 0.950 . S
C2552 C2551 1.524 . S
C2552 C2553 1.415 . S
C2553 H2523 0.950 . S
C2553 C2548 1.363 . S
C2553 C2552 1.415 . S
H2554 C2551 0.999 . S
H2555 C2536 0.913 . S
H2556 C2574 0.951 . S
H2557 C2576 0.951 . S
H2558 C2578 0.950 . S
H2559 C2579 0.950 . S
H2560 C2581 0.950 . S
H2561 C2584 0.950 . S
H2562 C2585 0.950 . S
H2563 C2587 0.950 . S
H2564 C2588 0.950 . S
H2565 C2589 0.951 . S
H2566 C2591 0.951 . S
H2567 C2593 0.950 1_565 S
H2568 C2594 0.940 1_565 S
H2569 C2596 0.950 . S
H2570 C2599 0.950 . S
H2571 C2600 0.950 . S
H2572 C2602 0.950 . S
H2573 C2603 0.950 . S
C2574 H2556 0.951 . S
C2574 C2575 1.366 . S
C2574 C2576 1.388 . S
C2575 C2574 1.366 . S
C2575 C2579 1.385 . S
C2576 H2557 0.951 . S
C2576 C2574 1.388 . S
C2576 C2577 1.366 . S
C2577 C2576 1.366 . S
C2577 C2578 1.414 . S
C2577 C2580 1.499 . S
C2578 H2558 0.950 . S
C2578 C2577 1.414 . S
C2578 C2579 1.374 . S
C2579 H2559 0.950 . S
C2579 C2575 1.385 . S
C2579 C2578 1.374 . S
C2580 C2577 1.499 . S
C2580 C2581 1.373 . S
C2580 C2582 1.358 1_545 S
C2581 H2560 0.950 . S
C2581 C2580 1.373 . S
C2581 C2597 1.377 . S
C2582 C2580 1.358 1_565 S
C2582 C2583 1.557 . S
C2582 C2596 1.379 . S
C2583 C2582 1.557 . S
C2583 C2584 1.397 . S
C2583 C2588 1.363 . S
C2584 H2561 0.950 . S
C2584 C2583 1.397 . S
C2584 C2585 1.334 . S
C2585 H2562 0.950 . S
C2585 C2584 1.334 . S
C2585 C2586 1.287 . S
C2586 C2585 1.287 . S
C2586 C2587 1.524 . S
C2586 H2605 0.913 . S
C2587 H2563 0.950 . S
C2587 C2586 1.524 . S
C2587 C2588 1.415 . S
C2588 H2564 0.950 . S
C2588 C2583 1.363 . S
C2588 C2587 1.415 . S
C2589 H2565 0.951 . S
C2589 C2590 1.366 . S
C2589 C2591 1.388 . S
C2590 C2589 1.366 . S
C2590 C2594 1.391 . S
C2591 H2566 0.951 . S
C2591 C2589 1.388 . S
C2591 C2592 1.366 . S
C2592 C2591 1.366 . S
C2592 C2593 1.414 . S
C2592 C2595 1.499 . S
C2593 H2567 0.950 1_545 S
C2593 C2592 1.414 . S
C2593 C2594 1.379 . S
C2594 H2568 0.940 1_545 S
C2594 C2590 1.391 . S
C2594 C2593 1.379 . S
C2595 C2592 1.499 . S
C2595 C2596 1.373 1_545 S
C2595 C2597 1.389 . S
C2596 H2569 0.950 . S
C2596 C2582 1.379 . S
C2596 C2595 1.373 1_565 S
C2597 C2581 1.377 . S
C2597 C2595 1.389 . S
C2597 C2598 1.524 . S
C2598 C2597 1.524 . S
C2598 C2599 1.397 . S
C2598 C2603 1.363 . S
C2599 H2570 0.950 . S
C2599 C2598 1.397 . S
C2599 C2600 1.334 . S
C2600 H2571 0.950 . S
C2600 C2599 1.334 . S
C2600 C2601 1.287 . S
C2601 C2600 1.287 . S
C2601 C2602 1.524 . S
C2601 H2604 0.999 . S
C2602 H2572 0.950 . S
C2602 C2601 1.524 . S
C2602 C2603 1.415 . S
C2603 H2573 0.950 . S
C2603 C2598 1.363 . S
C2603 C2602 1.415 . S
H2604 C2601 0.999 . S
H2605 C2586 0.913 . S
H2606 C2624 0.951 . S
H2607 C2626 0.951 . S
H2608 C2628 0.950 . S
H2609 C2629 0.950 . S
H2610 C2631 0.950 . S
H2611 C2634 0.950 . S
H2612 C2635 0.950 . S
H2613 C2637 0.950 . S
H2614 C2638 0.950 . S
H2615 C2639 0.951 . S
H2616 C2641 0.951 . S
H2617 C2643 0.950 . S
H2618 C2644 0.950 . S
H2619 C2646 0.950 . S
H2620 C2649 0.950 . S
H2621 C2650 0.950 . S
H2622 C2652 0.950 . S
H2623 C2653 0.950 . S
C2624 H2606 0.951 . S
C2624 C2625 1.366 . S
C2624 C2626 1.388 . S
C2625 C2624 1.366 . S
C2625 C2629 1.385 . S
C2626 H2607 0.951 . S
C2626 C2624 1.388 . S
C2626 C2627 1.366 . S
C2627 C2626 1.366 . S
C2627 C2628 1.414 . S
C2627 C2630 1.499 . S
C2628 H2608 0.950 . S
C2628 C2627 1.414 . S
C2628 C2629 1.374 . S
C2629 H2609 0.950 . S
C2629 C2625 1.385 . S
C2629 C2628 1.374 . S
C2630 C2627 1.499 . S
C2630 C2631 1.373 . S
C2630 C2632 1.389 . S
C2631 H2610 0.950 . S
C2631 C2630 1.373 . S
C2631 C2647 1.377 . S
C2632 C2630 1.389 . S
C2632 C2633 1.524 . S
C2632 C2646 1.377 . S
C2633 C2632 1.524 . S
C2633 C2634 1.397 . S
C2633 C2638 1.363 . S
C2634 H2611 0.950 . S
C2634 C2633 1.397 . S
C2634 C2635 1.334 . S
C2635 H2612 0.950 . S
C2635 C2634 1.334 . S
C2635 C2636 1.287 . S
C2636 C2635 1.287 . S
C2636 C2637 1.524 . S
C2636 H2655 0.913 . S
C2637 H2613 0.950 . S
C2637 C2636 1.524 . S
C2637 C2638 1.415 . S
C2638 H2614 0.950 . S
C2638 C2633 1.363 . S
C2638 C2637 1.415 . S
C2639 H2615 0.951 . S
C2639 C2640 1.366 . S
C2639 C2641 1.388 . S
C2640 C2639 1.366 . S
C2640 C2644 1.385 . S
C2641 H2616 0.951 . S
C2641 C2639 1.388 . S
C2641 C2642 1.366 . S
C2642 C2641 1.366 . S
C2642 C2643 1.414 . S
C2642 C2645 1.499 . S
C2643 H2617 0.950 . S
C2643 C2642 1.414 . S
C2643 C2644 1.374 . S
C2644 H2618 0.950 . S
C2644 C2640 1.385 . S
C2644 C2643 1.374 . S
C2645 C2642 1.499 . S
C2645 C2646 1.373 . S
C2645 C2647 1.389 . S
C2646 H2619 0.950 . S
C2646 C2632 1.377 . S
C2646 C2645 1.373 . S
C2647 C2631 1.377 . S
C2647 C2645 1.389 . S
C2647 C2648 1.524 . S
C2648 C2647 1.524 . S
C2648 C2649 1.397 . S
C2648 C2653 1.363 . S
C2649 H2620 0.950 . S
C2649 C2648 1.397 . S
C2649 C2650 1.334 . S
C2650 H2621 0.950 . S
C2650 C2649 1.334 . S
C2650 C2651 1.287 . S
C2651 C2650 1.287 . S
C2651 C2652 1.524 . S
C2651 H2654 0.999 . S
C2652 H2622 0.950 . S
C2652 C2651 1.524 . S
C2652 C2653 1.415 . S
C2653 H2623 0.950 . S
C2653 C2648 1.363 . S
C2653 C2652 1.415 . S
H2654 C2651 0.999 . S
H2655 C2636 0.913 . S
H2656 C2674 0.951 . S
H2657 C2676 0.951 . S
H2658 C2678 0.947 1_554 S
H2659 C2679 0.957 . S
H2660 C2681 0.950 . S
H2661 C2684 0.950 . S
H2662 C2685 0.950 . S
H2663 C2687 0.950 . S
H2664 C2688 0.950 . S
H2665 C2689 0.951 . S
H2666 C2691 0.951 . S
H2667 C2693 0.950 . S
H2668 C2694 0.950 . S
H2669 C2696 0.950 . S
H2670 C2699 0.950 . S
H2671 C2700 0.950 . S
H2672 C2702 0.950 . S
H2673 C2703 0.950 . S
C2674 H2656 0.951 . S
C2674 C2675 1.363 1_556 S
C2674 C2676 1.388 . S
C2675 C2674 1.363 1_554 S
C2675 C2679 1.382 . S
C2676 H2657 0.951 . S
C2676 C2674 1.388 . S
C2676 C2677 1.366 . S
C2677 C2676 1.366 . S
C2677 C2678 1.419 . S
C2677 C2680 1.499 . S
C2678 H2658 0.947 1_556 S
C2678 C2677 1.419 . S
C2678 C2679 1.372 1_556 S
C2679 H2659 0.957 . S
C2679 C2675 1.382 . S
C2679 C2678 1.372 1_554 S
C2680 C2677 1.499 . S
C2680 C2681 1.373 1_556 S
C2680 C2682 1.389 . S
C2681 H2660 0.950 . S
C2681 C2680 1.373 1_554 S
C2681 C2697 1.377 . S
C2682 C2680 1.389 . S
C2682 C2683 1.524 . S
C2682 C2696 1.377 . S
C2683 C2682 1.524 . S
C2683 C2684 1.397 . S
C2683 C2688 1.363 . S
C2684 H2661 0.950 . S
C2684 C2683 1.397 . S
C2684 C2685 1.334 . S
C2685 H2662 0.950 . S
C2685 C2684 1.334 . S
C2685 C2686 1.287 . S
C2686 C2685 1.287 . S
C2686 C2687 1.524 . S
C2686 H2705 0.913 . S
C2687 H2663 0.950 . S
C2687 C2686 1.524 . S
C2687 C2688 1.415 . S
C2688 H2664 0.950 . S
C2688 C2683 1.363 . S
C2688 C2687 1.415 . S
C2689 H2665 0.951 . S
C2689 C2690 1.366 . S
C2689 C2691 1.388 . S
C2690 C2689 1.366 . S
C2690 C2694 1.385 . S
C2691 H2666 0.951 . S
C2691 C2689 1.388 . S
C2691 C2692 1.366 . S
C2692 C2691 1.366 . S
C2692 C2693 1.414 . S
C2692 C2695 1.499 . S
C2693 H2667 0.950 . S
C2693 C2692 1.414 . S
C2693 C2694 1.374 . S
C2694 H2668 0.950 . S
C2694 C2690 1.385 . S
C2694 C2693 1.374 . S
C2695 C2692 1.499 . S
C2695 C2696 1.373 . S
C2695 C2697 1.389 1_556 S
C2696 H2669 0.950 . S
C2696 C2682 1.377 . S
C2696 C2695 1.373 . S
C2697 C2681 1.377 . S
C2697 C2695 1.389 1_554 S
C2697 C2698 1.524 . S
C2698 C2697 1.524 . S
C2698 C2699 1.397 . S
C2698 C2703 1.363 . S
C2699 H2670 0.950 . S
C2699 C2698 1.397 . S
C2699 C2700 1.334 . S
C2700 H2671 0.950 . S
C2700 C2699 1.334 . S
C2700 C2701 1.287 . S
C2701 C2700 1.287 . S
C2701 C2702 1.524 . S
C2701 H2704 0.999 . S
C2702 H2672 0.950 . S
C2702 C2701 1.524 . S
C2702 C2703 1.415 . S
C2703 H2673 0.950 . S
C2703 C2698 1.363 . S
C2703 C2702 1.415 . S
H2704 C2701 0.999 . S
H2705 C2686 0.913 . S
H2706 C2724 0.951 1_556 S
H2707 C2726 0.951 1_556 S
H2708 C2728 0.950 . S
H2709 C2729 0.950 . S
H2710 C2731 0.950 . S
H2711 C2734 0.950 . S
H2712 C2735 0.950 . S
H2713 C2737 0.954 1_556 S
H2714 C2738 0.963 . S
H2715 C2739 0.951 . S
H2716 C2741 0.951 . S
H2717 C2743 0.938 1_556 S
H2718 C2744 0.919 1_556 S
H2719 C2746 0.950 . S
H2720 C2749 0.950 1_556 S
H2721 C2750 0.969 . S
H2722 C2752 0.950 . S
H2723 C2753 0.950 . S
C2724 H2706 0.951 1_554 S
C2724 C2725 1.366 . S
C2724 C2726 1.388 . S
C2725 C2724 1.366 . S
C2725 C2729 1.385 . S
C2726 H2707 0.951 1_554 S
C2726 C2724 1.388 . S
C2726 C2727 1.366 . S
C2727 C2726 1.366 . S
C2727 C2728 1.414 . S
C2727 C2730 1.499 . S
C2728 H2708 0.950 . S
C2728 C2727 1.414 . S
C2728 C2729 1.374 . S
C2729 H2709 0.950 . S
C2729 C2725 1.385 . S
C2729 C2728 1.374 . S
C2730 C2727 1.499 . S
C2730 C2731 1.373 . S
C2730 C2732 1.389 . S
C2731 H2710 0.950 . S
C2731 C2730 1.373 . S
C2731 C2747 1.377 . S
C2732 C2730 1.389 . S
C2732 C2733 1.524 . S
C2732 C2746 1.377 . S
C2733 C2732 1.524 . S
C2733 C2734 1.397 . S
C2733 C2738 1.352 1_554 S
C2734 H2711 0.950 . S
C2734 C2733 1.397 . S
C2734 C2735 1.334 . S
C2735 H2712 0.950 . S
C2735 C2734 1.334 . S
C2735 C2736 1.287 . S
C2736 C2735 1.287 . S
C2736 C2737 1.519 . S
C2736 H2755 0.913 . S
C2737 H2713 0.954 1_554 S
C2737 C2736 1.519 . S
C2737 C2738 1.414 1_554 S
C2738 H2714 0.963 . S
C2738 C2733 1.352 1_556 S
C2738 C2737 1.414 1_556 S
C2739 H2715 0.951 . S
C2739 C2740 1.366 . S
C2739 C2741 1.388 . S
C2740 C2739 1.366 . S
C2740 C2744 1.413 . S
C2741 H2716 0.951 . S
C2741 C2739 1.388 . S
C2741 C2742 1.366 . S
C2742 C2741 1.366 . S
C2742 C2743 1.428 . S
C2742 C2745 1.499 . S
C2743 H2717 0.938 1_554 S
C2743 C2742 1.428 . S
C2743 C2744 1.376 . S
C2744 H2718 0.919 1_554 S
C2744 C2740 1.413 . S
C2744 C2743 1.376 . S
C2745 C2742 1.499 . S
C2745 C2746 1.373 . S
C2745 C2747 1.389 . S
C2746 H2719 0.950 . S
C2746 C2732 1.377 . S
C2746 C2745 1.373 . S
C2747 C2731 1.377 . S
C2747 C2745 1.389 . S
C2747 C2748 1.524 . S
C2748 C2747 1.524 . S
C2748 C2749 1.397 . S
C2748 C2753 1.363 . S
C2749 H2720 0.950 1_554 S
C2749 C2748 1.397 . S
C2749 C2750 1.330 1_554 S
C2750 H2721 0.969 . S
C2750 C2749 1.330 1_556 S
C2750 C2751 1.271 1_556 S
C2751 C2750 1.271 1_554 S
C2751 C2752 1.524 . S
C2751 H2754 0.999 . S
C2752 H2722 0.950 . S
C2752 C2751 1.524 . S
C2752 C2753 1.415 . S
C2753 H2723 0.950 . S
C2753 C2748 1.363 . S
C2753 C2752 1.415 . S
H2754 C2751 0.999 . S
H2755 C2736 0.913 . S
H2756 C2774 0.951 . S
H2757 C2776 0.951 . S
H2758 C2778 0.950 . S
H2759 C2779 0.950 . S
H2760 C2781 0.950 . S
H2761 C2784 0.950 . S
H2762 C2785 0.950 . S
H2763 C2787 0.950 . S
H2764 C2788 0.950 . S
H2765 C2789 0.951 . S
H2766 C2791 0.951 . S
H2767 C2793 0.950 . S
H2768 C2794 0.950 . S
H2769 C2796 0.950 . S
H2770 C2799 0.950 . S
H2771 C2800 0.950 . S
H2772 C2802 0.950 . S
H2773 C2803 0.950 . S
C2774 H2756 0.951 . S
C2774 C2775 1.366 . S
C2774 C2776 1.388 . S
C2775 C2774 1.366 . S
C2775 C2779 1.385 . S
C2776 H2757 0.951 . S
C2776 C2774 1.388 . S
C2776 C2777 1.366 . S
C2777 C2776 1.366 . S
C2777 C2778 1.414 . S
C2777 C2780 1.499 . S
C2778 H2758 0.950 . S
C2778 C2777 1.414 . S
C2778 C2779 1.374 . S
C2779 H2759 0.950 . S
C2779 C2775 1.385 . S
C2779 C2778 1.374 . S
C2780 C2777 1.499 . S
C2780 C2781 1.373 . S
C2780 C2782 1.389 . S
C2781 H2760 0.950 . S
C2781 C2780 1.373 . S
C2781 C2797 1.377 . S
C2782 C2780 1.389 . S
C2782 C2783 1.524 . S
C2782 C2796 1.377 . S
C2783 C2782 1.524 . S
C2783 C2784 1.397 . S
C2783 C2788 1.363 . S
C2784 H2761 0.950 . S
C2784 C2783 1.397 . S
C2784 C2785 1.334 . S
C2785 H2762 0.950 . S
C2785 C2784 1.334 . S
C2785 C2786 1.287 . S
C2786 C2785 1.287 . S
C2786 C2787 1.524 . S
C2786 H2805 0.913 . S
C2787 H2763 0.950 . S
C2787 C2786 1.524 . S
C2787 C2788 1.415 . S
C2788 H2764 0.950 . S
C2788 C2783 1.363 . S
C2788 C2787 1.415 . S
C2789 H2765 0.951 . S
C2789 C2790 1.366 . S
C2789 C2791 1.388 . S
C2790 C2789 1.366 . S
C2790 C2794 1.385 . S
C2791 H2766 0.951 . S
C2791 C2789 1.388 . S
C2791 C2792 1.366 . S
C2792 C2791 1.366 . S
C2792 C2793 1.414 . S
C2792 C2795 1.499 . S
C2793 H2767 0.950 . S
C2793 C2792 1.414 . S
C2793 C2794 1.374 . S
C2794 H2768 0.950 . S
C2794 C2790 1.385 . S
C2794 C2793 1.374 . S
C2795 C2792 1.499 . S
C2795 C2796 1.373 . S
C2795 C2797 1.389 . S
C2796 H2769 0.950 . S
C2796 C2782 1.377 . S
C2796 C2795 1.373 . S
C2797 C2781 1.377 . S
C2797 C2795 1.389 . S
C2797 C2798 1.524 . S
C2798 C2797 1.524 . S
C2798 C2799 1.397 . S
C2798 C2803 1.363 . S
C2799 H2770 0.950 . S
C2799 C2798 1.397 . S
C2799 C2800 1.334 . S
C2800 H2771 0.950 . S
C2800 C2799 1.334 . S
C2800 C2801 1.287 . S
C2801 C2800 1.287 . S
C2801 C2802 1.524 . S
C2801 H2804 0.999 . S
C2802 H2772 0.950 . S
C2802 C2801 1.524 . S
C2802 C2803 1.415 . S
C2803 H2773 0.950 . S
C2803 C2798 1.363 . S
C2803 C2802 1.415 . S
H2804 C2801 0.999 . S
H2805 C2786 0.913 . S
H2806 C2824 0.951 . S
H2807 C2826 0.951 . S
H2808 C2828 0.950 . S
H2809 C2829 0.950 . S
H2810 C2831 0.950 . S
H2811 C2834 0.950 . S
H2812 C2835 0.950 . S
H2813 C2837 0.950 . S
H2814 C2838 0.950 . S
H2815 C2839 0.951 . S
H2816 C2841 0.951 . S
H2817 C2843 0.950 . S
H2818 C2844 0.950 . S
H2819 C2846 0.950 . S
H2820 C2849 0.950 . S
H2821 C2850 0.950 . S
H2822 C2852 0.950 . S
H2823 C2853 0.950 . S
C2824 H2806 0.951 . S
C2824 C2825 1.366 . S
C2824 C2826 1.388 . S
C2825 C2824 1.366 . S
C2825 C2829 1.385 . S
C2826 H2807 0.951 . S
C2826 C2824 1.388 . S
C2826 C2827 1.366 . S
C2827 C2826 1.366 . S
C2827 C2828 1.414 . S
C2827 C2830 1.499 . S
C2828 H2808 0.950 . S
C2828 C2827 1.414 . S
C2828 C2829 1.374 . S
C2829 H2809 0.950 . S
C2829 C2825 1.385 . S
C2829 C2828 1.374 . S
C2830 C2827 1.499 . S
C2830 C2831 1.373 . S
C2830 C2832 1.389 . S
C2831 H2810 0.950 . S
C2831 C2830 1.373 . S
C2831 C2847 1.377 . S
C2832 C2830 1.389 . S
C2832 C2833 1.524 . S
C2832 C2846 1.377 . S
C2833 C2832 1.524 . S
C2833 C2834 1.397 . S
C2833 C2838 1.363 . S
C2834 H2811 0.950 . S
C2834 C2833 1.397 . S
C2834 C2835 1.334 . S
C2835 H2812 0.950 . S
C2835 C2834 1.334 . S
C2835 C2836 1.287 . S
C2836 C2835 1.287 . S
C2836 C2837 1.524 . S
C2836 H2855 0.913 . S
C2837 H2813 0.950 . S
C2837 C2836 1.524 . S
C2837 C2838 1.415 . S
C2838 H2814 0.950 . S
C2838 C2833 1.363 . S
C2838 C2837 1.415 . S
C2839 H2815 0.951 . S
C2839 C2840 1.366 . S
C2839 C2841 1.388 . S
C2840 C2839 1.366 . S
C2840 C2844 1.385 . S
C2841 H2816 0.951 . S
C2841 C2839 1.388 . S
C2841 C2842 1.366 . S
C2842 C2841 1.366 . S
C2842 C2843 1.414 . S
C2842 C2845 1.499 . S
C2843 H2817 0.950 . S
C2843 C2842 1.414 . S
C2843 C2844 1.374 . S
C2844 H2818 0.950 . S
C2844 C2840 1.385 . S
C2844 C2843 1.374 . S
C2845 C2842 1.499 . S
C2845 C2846 1.373 . S
C2845 C2847 1.389 . S
C2846 H2819 0.950 . S
C2846 C2832 1.377 . S
C2846 C2845 1.373 . S
C2847 C2831 1.377 . S
C2847 C2845 1.389 . S
C2847 C2848 1.524 . S
C2848 C2847 1.524 . S
C2848 C2849 1.397 . S
C2848 C2853 1.363 . S
C2849 H2820 0.950 . S
C2849 C2848 1.397 . S
C2849 C2850 1.334 . S
C2850 H2821 0.950 . S
C2850 C2849 1.334 . S
C2850 C2851 1.287 . S
C2851 C2850 1.287 . S
C2851 C2852 1.524 . S
C2851 H2854 0.999 . S
C2852 H2822 0.950 . S
C2852 C2851 1.524 . S
C2852 C2853 1.415 . S
C2853 H2823 0.950 . S
C2853 C2848 1.363 . S
C2853 C2852 1.415 . S
H2854 C2851 0.999 . S
H2855 C2836 0.913 . S
H2856 C2874 0.951 . S
H2857 C2876 0.951 . S
H2858 C2878 0.950 . S
H2859 C2879 0.950 . S
H2860 C2881 0.950 . S
H2861 C2884 0.950 . S
H2862 C2885 0.950 . S
H2863 C2887 0.950 . S
H2864 C2888 0.950 . S
H2865 C2889 0.951 . S
H2866 C2891 0.951 . S
H2867 C2893 0.950 . S
H2868 C2894 0.950 . S
H2869 C2896 0.950 . S
H2870 C2899 0.950 . S
H2871 C2900 0.950 . S
H2872 C2902 0.950 . S
H2873 C2903 0.950 . S
C2874 H2856 0.951 . S
C2874 C2875 1.366 . S
C2874 C2876 1.388 . S
C2875 C2874 1.366 . S
C2875 C2879 1.385 . S
C2876 H2857 0.951 . S
C2876 C2874 1.388 . S
C2876 C2877 1.366 . S
C2877 C2876 1.366 . S
C2877 C2878 1.414 . S
C2877 C2880 1.499 . S
C2878 H2858 0.950 . S
C2878 C2877 1.414 . S
C2878 C2879 1.374 . S
C2879 H2859 0.950 . S
C2879 C2875 1.385 . S
C2879 C2878 1.374 . S
C2880 C2877 1.499 . S
C2880 C2881 1.373 . S
C2880 C2882 1.389 . S
C2881 H2860 0.950 . S
C2881 C2880 1.373 . S
C2881 C2897 1.377 . S
C2882 C2880 1.389 . S
C2882 C2883 1.524 . S
C2882 C2896 1.377 . S
C2883 C2882 1.524 . S
C2883 C2884 1.397 . S
C2883 C2888 1.363 . S
C2884 H2861 0.950 . S
C2884 C2883 1.397 . S
C2884 C2885 1.334 . S
C2885 H2862 0.950 . S
C2885 C2884 1.334 . S
C2885 C2886 1.287 . S
C2886 C2885 1.287 . S
C2886 C2887 1.524 . S
C2886 H2905 0.913 . S
C2887 H2863 0.950 . S
C2887 C2886 1.524 . S
C2887 C2888 1.415 . S
C2888 H2864 0.950 . S
C2888 C2883 1.363 . S
C2888 C2887 1.415 . S
C2889 H2865 0.951 . S
C2889 C2890 1.366 . S
C2889 C2891 1.388 . S
C2890 C2889 1.366 . S
C2890 C2894 1.385 . S
C2891 H2866 0.951 . S
C2891 C2889 1.388 . S
C2891 C2892 1.366 . S
C2892 C2891 1.366 . S
C2892 C2893 1.414 . S
C2892 C2895 1.499 . S
C2893 H2867 0.950 . S
C2893 C2892 1.414 . S
C2893 C2894 1.374 . S
C2894 H2868 0.950 . S
C2894 C2890 1.385 . S
C2894 C2893 1.374 . S
C2895 C2892 1.499 . S
C2895 C2896 1.373 . S
C2895 C2897 1.389 . S
C2896 H2869 0.950 . S
C2896 C2882 1.377 . S
C2896 C2895 1.373 . S
C2897 C2881 1.377 . S
C2897 C2895 1.389 . S
C2897 C2898 1.524 . S
C2898 C2897 1.524 . S
C2898 C2899 1.397 . S
C2898 C2903 1.363 . S
C2899 H2870 0.950 . S
C2899 C2898 1.397 . S
C2899 C2900 1.334 . S
C2900 H2871 0.950 . S
C2900 C2899 1.334 . S
C2900 C2901 1.287 . S
C2901 C2900 1.287 . S
C2901 C2902 1.524 . S
C2901 H2904 0.999 . S
C2902 H2872 0.950 . S
C2902 C2901 1.524 . S
C2902 C2903 1.415 . S
C2903 H2873 0.950 . S
C2903 C2898 1.363 . S
C2903 C2902 1.415 . S
H2904 C2901 0.999 . S
H2905 C2886 0.913 . S
H2906 C2924 0.951 . S
H2907 C2926 0.951 . S
H2908 C2928 0.950 . S
H2909 C2929 0.950 . S
H2910 C2931 0.950 . S
H2911 C2934 0.950 . S
H2912 C2935 0.950 . S
H2913 C2937 0.950 1_545 S
H2914 C2938 0.950 . S
H2915 C2939 0.951 . S
H2916 C2941 0.951 . S
H2917 C2943 0.950 . S
H2918 C2944 0.950 1_545 S
H2919 C2946 0.950 . S
H2920 C2949 0.950 . S
H2921 C2950 0.950 . S
H2922 C2952 0.950 . S
H2923 C2953 0.950 . S
C2924 H2906 0.951 . S
C2924 C2925 1.366 . S
C2924 C2926 1.388 . S
C2925 C2924 1.366 . S
C2925 C2929 1.385 . S
C2926 H2907 0.951 . S
C2926 C2924 1.388 . S
C2926 C2927 1.366 . S
C2927 C2926 1.366 . S
C2927 C2928 1.414 . S
C2927 C2930 1.499 . S
C2928 H2908 0.950 . S
C2928 C2927 1.414 . S
C2928 C2929 1.374 . S
C2929 H2909 0.950 . S
C2929 C2925 1.385 . S
C2929 C2928 1.374 . S
C2930 C2927 1.499 . S
C2930 C2931 1.373 . S
C2930 C2932 1.389 . S
C2931 H2910 0.950 . S
C2931 C2930 1.373 . S
C2931 C2947 1.377 . S
C2932 C2930 1.389 . S
C2932 C2933 1.524 . S
C2932 C2946 1.377 . S
C2933 C2932 1.524 . S
C2933 C2934 1.397 . S
C2933 C2938 1.363 . S
C2934 H2911 0.950 . S
C2934 C2933 1.397 . S
C2934 C2935 1.334 . S
C2935 H2912 0.950 . S
C2935 C2934 1.334 . S
C2935 C2936 1.287 . S
C2936 C2935 1.287 . S
C2936 C2937 1.524 . S
C2936 H2955 0.913 . S
C2937 H2913 0.950 1_565 S
C2937 C2936 1.524 . S
C2937 C2938 1.415 . S
C2938 H2914 0.950 . S
C2938 C2933 1.363 . S
C2938 C2937 1.415 . S
C2939 H2915 0.951 . S
C2939 C2940 1.366 . S
C2939 C2941 1.388 . S
C2940 C2939 1.366 . S
C2940 C2944 1.385 . S
C2941 H2916 0.951 . S
C2941 C2939 1.388 . S
C2941 C2942 1.366 . S
C2942 C2941 1.366 . S
C2942 C2943 1.414 . S
C2942 C2945 1.499 . S
C2943 H2917 0.950 . S
C2943 C2942 1.414 . S
C2943 C2944 1.374 . S
C2944 H2918 0.950 1_565 S
C2944 C2940 1.385 . S
C2944 C2943 1.374 . S
C2945 C2942 1.499 . S
C2945 C2946 1.373 . S
C2945 C2947 1.389 . S
C2946 H2919 0.950 . S
C2946 C2932 1.377 . S
C2946 C2945 1.373 . S
C2947 C2931 1.377 . S
C2947 C2945 1.389 . S
C2947 C2948 1.524 . S
C2948 C2947 1.524 . S
C2948 C2949 1.397 . S
C2948 C2953 1.363 . S
C2949 H2920 0.950 . S
C2949 C2948 1.397 . S
C2949 C2950 1.334 . S
C2950 H2921 0.950 . S
C2950 C2949 1.334 . S
C2950 C2951 1.287 . S
C2951 C2950 1.287 . S
C2951 C2952 1.524 . S
C2951 H2954 0.999 . S
C2952 H2922 0.950 . S
C2952 C2951 1.524 . S
C2952 C2953 1.415 . S
C2953 H2923 0.950 . S
C2953 C2948 1.363 . S
C2953 C2952 1.415 . S
H2954 C2951 0.999 . S
H2955 C2936 0.913 . S
H2956 C2974 0.951 . S
H2957 C2976 0.951 . S
H2958 C2978 0.950 . S
H2959 C2979 0.950 . S
H2960 C2981 0.950 . S
H2961 C2984 0.950 . S
H2962 C2985 0.950 . S
H2963 C2987 0.950 . S
H2964 C2988 0.950 . S
H2965 C2989 0.951 . S
H2966 C2991 0.951 . S
H2967 C2993 0.950 . S
H2968 C2994 0.950 . S
H2969 C2996 0.950 . S
H2970 C2999 0.950 . S
H2971 C3000 0.950 . S
H2972 C3002 0.950 . S
H2973 C3003 0.950 . S
C2974 H2956 0.951 . S
C2974 C2975 1.366 . S
C2974 C2976 1.388 . S
C2975 C2974 1.366 . S
C2975 C2979 1.385 . S
C2976 H2957 0.951 . S
C2976 C2974 1.388 . S
C2976 C2977 1.366 . S
C2977 C2976 1.366 . S
C2977 C2978 1.414 . S
C2977 C2980 1.499 . S
C2978 H2958 0.950 . S
C2978 C2977 1.414 . S
C2978 C2979 1.374 . S
C2979 H2959 0.950 . S
C2979 C2975 1.385 . S
C2979 C2978 1.374 . S
C2980 C2977 1.499 . S
C2980 C2981 1.373 . S
C2980 C2982 1.389 . S
C2981 H2960 0.950 . S
C2981 C2980 1.373 . S
C2981 C2997 1.377 . S
C2982 C2980 1.389 . S
C2982 C2983 1.524 . S
C2982 C2996 1.377 . S
C2983 C2982 1.524 . S
C2983 C2984 1.397 . S
C2983 C2988 1.363 . S
C2984 H2961 0.950 . S
C2984 C2983 1.397 . S
C2984 C2985 1.334 . S
C2985 H2962 0.950 . S
C2985 C2984 1.334 . S
C2985 C2986 1.287 . S
C2986 C2985 1.287 . S
C2986 C2987 1.524 . S
C2986 H3005 0.913 . S
C2987 H2963 0.950 . S
C2987 C2986 1.524 . S
C2987 C2988 1.415 . S
C2988 H2964 0.950 . S
C2988 C2983 1.363 . S
C2988 C2987 1.415 . S
C2989 H2965 0.951 . S
C2989 C2990 1.366 . S
C2989 C2991 1.388 . S
C2990 C2989 1.366 . S
C2990 C2994 1.385 . S
C2991 H2966 0.951 . S
C2991 C2989 1.388 . S
C2991 C2992 1.366 . S
C2992 C2991 1.366 . S
C2992 C2993 1.414 . S
C2992 C2995 1.499 . S
C2993 H2967 0.950 . S
C2993 C2992 1.414 . S
C2993 C2994 1.374 . S
C2994 H2968 0.950 . S
C2994 C2990 1.385 . S
C2994 C2993 1.374 . S
C2995 C2992 1.499 . S
C2995 C2996 1.373 . S
C2995 C2997 1.389 . S
C2996 H2969 0.950 . S
C2996 C2982 1.377 . S
C2996 C2995 1.373 . S
C2997 C2981 1.377 . S
C2997 C2995 1.389 . S
C2997 C2998 1.524 . S
C2998 C2997 1.524 . S
C2998 C2999 1.397 . S
C2998 C3003 1.363 . S
C2999 H2970 0.950 . S
C2999 C2998 1.397 . S
C2999 C3000 1.334 . S
C3000 H2971 0.950 . S
C3000 C2999 1.334 . S
C3000 C3001 1.287 . S
C3001 C3000 1.287 . S
C3001 C3002 1.524 . S
C3001 H3004 0.999 . S
C3002 H2972 0.950 . S
C3002 C3001 1.524 . S
C3002 C3003 1.415 . S
C3003 H2973 0.950 . S
C3003 C2998 1.363 . S
C3003 C3002 1.415 . S
H3004 C3001 0.999 . S
H3005 C2986 0.913 . S
H3006 C3024 0.951 . S
H3007 C3026 0.951 . S
H3008 C3028 0.950 . S
H3009 C3029 0.950 . S
H3010 C3031 0.950 . S
H3011 C3034 0.950 . S
H3012 C3035 0.950 . S
H3013 C3037 0.950 . S
H3014 C3038 0.950 . S
H3015 C3039 0.951 . S
H3016 C3041 0.951 . S
H3017 C3043 0.950 . S
H3018 C3044 0.950 . S
H3019 C3046 0.950 . S
H3020 C3049 0.950 . S
H3021 C3050 0.950 . S
H3022 C3052 0.950 . S
H3023 C3053 0.950 . S
C3024 H3006 0.951 . S
C3024 C3025 1.366 . S
C3024 C3026 1.388 . S
C3025 C3024 1.366 . S
C3025 C3029 1.385 . S
C3026 H3007 0.951 . S
C3026 C3024 1.388 . S
C3026 C3027 1.366 . S
C3027 C3026 1.366 . S
C3027 C3028 1.414 . S
C3027 C3030 1.499 . S
C3028 H3008 0.950 . S
C3028 C3027 1.414 . S
C3028 C3029 1.374 . S
C3029 H3009 0.950 . S
C3029 C3025 1.385 . S
C3029 C3028 1.374 . S
C3030 C3027 1.499 . S
C3030 C3031 1.373 . S
C3030 C3032 1.389 . S
C3031 H3010 0.950 . S
C3031 C3030 1.373 . S
C3031 C3047 1.377 . S
C3032 C3030 1.389 . S
C3032 C3033 1.524 . S
C3032 C3046 1.377 . S
C3033 C3032 1.524 . S
C3033 C3034 1.397 . S
C3033 C3038 1.363 . S
C3034 H3011 0.950 . S
C3034 C3033 1.397 . S
C3034 C3035 1.334 . S
C3035 H3012 0.950 . S
C3035 C3034 1.334 . S
C3035 C3036 1.287 . S
C3036 C3035 1.287 . S
C3036 C3037 1.524 . S
C3036 H3055 0.913 . S
C3037 H3013 0.950 . S
C3037 C3036 1.524 . S
C3037 C3038 1.415 . S
C3038 H3014 0.950 . S
C3038 C3033 1.363 . S
C3038 C3037 1.415 . S
C3039 H3015 0.951 . S
C3039 C3040 1.366 . S
C3039 C3041 1.388 . S
C3040 C3039 1.366 . S
C3040 C3044 1.385 . S
C3041 H3016 0.951 . S
C3041 C3039 1.388 . S
C3041 C3042 1.366 . S
C3042 C3041 1.366 . S
C3042 C3043 1.414 . S
C3042 C3045 1.499 . S
C3043 H3017 0.950 . S
C3043 C3042 1.414 . S
C3043 C3044 1.374 . S
C3044 H3018 0.950 . S
C3044 C3040 1.385 . S
C3044 C3043 1.374 . S
C3045 C3042 1.499 . S
C3045 C3046 1.373 . S
C3045 C3047 1.389 . S
C3046 H3019 0.950 . S
C3046 C3032 1.377 . S
C3046 C3045 1.373 . S
C3047 C3031 1.377 . S
C3047 C3045 1.389 . S
C3047 C3048 1.524 . S
C3048 C3047 1.524 . S
C3048 C3049 1.397 . S
C3048 C3053 1.363 . S
C3049 H3020 0.950 . S
C3049 C3048 1.397 . S
C3049 C3050 1.334 . S
C3050 H3021 0.950 . S
C3050 C3049 1.334 . S
C3050 C3051 1.287 . S
C3051 C3050 1.287 . S
C3051 C3052 1.524 . S
C3051 H3054 0.999 . S
C3052 H3022 0.950 . S
C3052 C3051 1.524 . S
C3052 C3053 1.415 . S
C3053 H3023 0.950 . S
C3053 C3048 1.363 . S
C3053 C3052 1.415 . S
H3054 C3051 0.999 . S
H3055 C3036 0.913 . S
H3056 C3074 0.951 . S
H3057 C3076 0.951 . S
H3058 C3078 0.950 . S
H3059 C3079 0.950 . S
H3060 C3081 0.950 . S
H3061 C3084 0.950 . S
H3062 C3085 0.950 . S
H3063 C3087 0.950 . S
H3064 C3088 0.950 . S
H3065 C3089 0.951 . S
H3066 C3091 0.951 . S
H3067 C3093 0.950 . S
H3068 C3094 0.950 . S
H3069 C3096 0.950 . S
H3070 C3099 0.950 . S
H3071 C3100 0.950 . S
H3072 C3102 0.950 . S
H3073 C3103 0.950 . S
C3074 H3056 0.951 . S
C3074 C3075 1.366 . S
C3074 C3076 1.388 . S
C3075 C3074 1.366 . S
C3075 C3079 1.385 . S
C3076 H3057 0.951 . S
C3076 C3074 1.388 . S
C3076 C3077 1.366 . S
C3077 C3076 1.366 . S
C3077 C3078 1.414 . S
C3077 C3080 1.499 . S
C3078 H3058 0.950 . S
C3078 C3077 1.414 . S
C3078 C3079 1.374 . S
C3079 H3059 0.950 . S
C3079 C3075 1.385 . S
C3079 C3078 1.374 . S
C3080 C3077 1.499 . S
C3080 C3081 1.373 . S
C3080 C3082 1.389 . S
C3081 H3060 0.950 . S
C3081 C3080 1.373 . S
C3081 C3097 1.377 . S
C3082 C3080 1.389 . S
C3082 C3083 1.524 . S
C3082 C3096 1.377 . S
C3083 C3082 1.524 . S
C3083 C3084 1.397 . S
C3083 C3088 1.363 . S
C3084 H3061 0.950 . S
C3084 C3083 1.397 . S
C3084 C3085 1.334 . S
C3085 H3062 0.950 . S
C3085 C3084 1.334 . S
C3085 C3086 1.287 . S
C3086 C3085 1.287 . S
C3086 C3087 1.524 . S
C3086 H3105 0.913 . S
C3087 H3063 0.950 . S
C3087 C3086 1.524 . S
C3087 C3088 1.415 . S
C3088 H3064 0.950 . S
C3088 C3083 1.363 . S
C3088 C3087 1.415 . S
C3089 H3065 0.951 . S
C3089 C3090 1.366 . S
C3089 C3091 1.388 . S
C3090 C3089 1.366 . S
C3090 C3094 1.385 . S
C3091 H3066 0.951 . S
C3091 C3089 1.388 . S
C3091 C3092 1.366 . S
C3092 C3091 1.366 . S
C3092 C3093 1.414 . S
C3092 C3095 1.499 . S
C3093 H3067 0.950 . S
C3093 C3092 1.414 . S
C3093 C3094 1.374 . S
C3094 H3068 0.950 . S
C3094 C3090 1.385 . S
C3094 C3093 1.374 . S
C3095 C3092 1.499 . S
C3095 C3096 1.373 . S
C3095 C3097 1.389 . S
C3096 H3069 0.950 . S
C3096 C3082 1.377 . S
C3096 C3095 1.373 . S
C3097 C3081 1.377 . S
C3097 C3095 1.389 . S
C3097 C3098 1.524 . S
C3098 C3097 1.524 . S
C3098 C3099 1.397 . S
C3098 C3103 1.363 . S
C3099 H3070 0.950 . S
C3099 C3098 1.397 . S
C3099 C3100 1.334 . S
C3100 H3071 0.950 . S
C3100 C3099 1.334 . S
C3100 C3101 1.287 . S
C3101 C3100 1.287 . S
C3101 C3102 1.524 . S
C3101 H3104 0.999 . S
C3102 H3072 0.950 . S
C3102 C3101 1.524 . S
C3102 C3103 1.415 . S
C3103 H3073 0.950 . S
C3103 C3098 1.363 . S
C3103 C3102 1.415 . S
H3104 C3101 0.999 . S
H3105 C3086 0.913 . S
H3106 C3124 0.951 . S
H3107 C3126 0.951 . S
H3108 C3128 0.950 . S
H3109 C3129 0.950 . S
H3110 C3131 0.950 . S
H3111 C3134 0.950 . S
H3112 C3135 0.950 . S
H3113 C3137 0.950 . S
H3114 C3138 0.950 . S
H3115 C3139 0.951 . S
H3116 C3141 0.951 . S
H3117 C3143 0.950 . S
H3118 C3144 0.950 . S
H3119 C3146 0.950 . S
H3120 C3149 0.950 . S
H3121 C3150 0.950 . S
H3122 C3152 0.950 . S
H3123 C3153 0.950 . S
C3124 H3106 0.951 . S
C3124 C3125 1.366 . S
C3124 C3126 1.388 . S
C3125 C3124 1.366 . S
C3125 C3129 1.385 . S
C3126 H3107 0.951 . S
C3126 C3124 1.388 . S
C3126 C3127 1.366 . S
C3127 C3126 1.366 . S
C3127 C3128 1.414 . S
C3127 C3130 1.499 . S
C3128 H3108 0.950 . S
C3128 C3127 1.414 . S
C3128 C3129 1.374 . S
C3129 H3109 0.950 . S
C3129 C3125 1.385 . S
C3129 C3128 1.374 . S
C3130 C3127 1.499 . S
C3130 C3131 1.373 . S
C3130 C3132 1.389 . S
C3131 H3110 0.950 . S
C3131 C3130 1.373 . S
C3131 C3147 1.377 . S
C3132 C3130 1.389 . S
C3132 C3133 1.524 . S
C3132 C3146 1.377 . S
C3133 C3132 1.524 . S
C3133 C3134 1.397 . S
C3133 C3138 1.363 . S
C3134 H3111 0.950 . S
C3134 C3133 1.397 . S
C3134 C3135 1.334 . S
C3135 H3112 0.950 . S
C3135 C3134 1.334 . S
C3135 C3136 1.287 . S
C3136 C3135 1.287 . S
C3136 C3137 1.524 . S
C3136 H3155 0.913 . S
C3137 H3113 0.950 . S
C3137 C3136 1.524 . S
C3137 C3138 1.415 . S
C3138 H3114 0.950 . S
C3138 C3133 1.363 . S
C3138 C3137 1.415 . S
C3139 H3115 0.951 . S
C3139 C3140 1.366 . S
C3139 C3141 1.388 . S
C3140 C3139 1.366 . S
C3140 C3144 1.385 . S
C3141 H3116 0.951 . S
C3141 C3139 1.388 . S
C3141 C3142 1.366 . S
C3142 C3141 1.366 . S
C3142 C3143 1.414 . S
C3142 C3145 1.499 . S
C3143 H3117 0.950 . S
C3143 C3142 1.414 . S
C3143 C3144 1.374 . S
C3144 H3118 0.950 . S
C3144 C3140 1.385 . S
C3144 C3143 1.374 . S
C3145 C3142 1.499 . S
C3145 C3146 1.373 . S
C3145 C3147 1.389 . S
C3146 H3119 0.950 . S
C3146 C3132 1.377 . S
C3146 C3145 1.373 . S
C3147 C3131 1.377 . S
C3147 C3145 1.389 . S
C3147 C3148 1.524 . S
C3148 C3147 1.524 . S
C3148 C3149 1.397 . S
C3148 C3153 1.363 . S
C3149 H3120 0.950 . S
C3149 C3148 1.397 . S
C3149 C3150 1.334 . S
C3150 H3121 0.950 . S
C3150 C3149 1.334 . S
C3150 C3151 1.287 . S
C3151 C3150 1.287 . S
C3151 C3152 1.524 . S
C3151 H3154 0.999 . S
C3152 H3122 0.950 . S
C3152 C3151 1.524 . S
C3152 C3153 1.415 . S
C3153 H3123 0.950 . S
C3153 C3148 1.363 . S
C3153 C3152 1.415 . S
H3154 C3151 0.999 . S
H3155 C3136 0.913 . S
H3156 C3174 0.951 . S
H3157 C3176 0.951 . S
H3158 C3178 0.950 . S
H3159 C3179 0.950 . S
H3160 C3181 0.950 . S
H3161 C3184 0.950 1_455 S
H3162 C3185 0.950 . S
H3163 C3187 0.950 . S
H3164 C3188 0.950 . S
H3165 C3189 0.948 1_554 S
H3166 C3191 0.951 . S
H3167 C3193 0.950 . S
H3168 C3194 0.949 . S
H3169 C3196 0.950 . S
H3170 C3199 0.950 . S
H3171 C3200 0.950 . S
H3172 C3202 0.950 . S
H3173 C3203 0.950 1_556 S
C3174 H3156 0.951 . S
C3174 C3175 1.366 1_655 S
C3174 C3176 1.388 . S
C3175 C3174 1.366 1_455 S
C3175 C3179 1.385 . S
C3176 H3157 0.951 . S
C3176 C3174 1.388 . S
C3176 C3177 1.366 1_655 S
C3177 C3176 1.366 1_455 S
C3177 C3178 1.414 . S
C3177 C3180 1.499 . S
C3178 H3158 0.950 . S
C3178 C3177 1.414 . S
C3178 C3179 1.374 . S
C3179 H3159 0.950 . S
C3179 C3175 1.385 . S
C3179 C3178 1.374 . S
C3180 C3177 1.499 . S
C3180 C3181 1.373 . S
C3180 C3182 1.389 1_455 S
C3181 H3160 0.950 . S
C3181 C3180 1.373 . S
C3181 C3197 1.377 . S
C3182 C3180 1.389 1_655 S
C3182 C3183 1.524 . S
C3182 C3196 1.377 . S
C3183 C3182 1.524 . S
C3183 C3184 1.397 . S
C3183 C3188 1.363 . S
C3184 H3161 0.950 1_655 S
C3184 C3183 1.397 . S
C3184 C3185 1.334 . S
C3185 H3162 0.950 . S
C3185 C3184 1.334 . S
C3185 C3186 1.287 . S
C3186 C3185 1.287 . S
C3186 C3187 1.524 . S
C3186 H3205 0.913 . S
C3187 H3163 0.950 . S
C3187 C3186 1.524 . S
C3187 C3188 1.415 . S
C3188 H3164 0.950 . S
C3188 C3183 1.363 . S
C3188 C3187 1.415 . S
C3189 H3165 0.948 1_556 S
C3189 C3190 1.362 1_556 S
C3189 C3191 1.395 . S
C3190 C3189 1.362 1_554 S
C3190 C3194 1.385 1_454 S
C3191 H3166 0.951 . S
C3191 C3189 1.395 . S
C3191 C3192 1.366 . S
C3192 C3191 1.366 . S
C3192 C3193 1.414 1_455 S
C3192 C3195 1.499 . S
C3193 H3167 0.950 . S
C3193 C3192 1.414 1_655 S
C3193 C3194 1.374 . S
C3194 H3168 0.949 . S
C3194 C3190 1.385 1_656 S
C3194 C3193 1.374 . S
C3195 C3192 1.499 . S
C3195 C3196 1.373 1_455 S
C3195 C3197 1.389 . S
C3196 H3169 0.950 . S
C3196 C3182 1.377 . S
C3196 C3195 1.373 1_655 S
C3197 C3181 1.377 . S
C3197 C3195 1.389 . S
C3197 C3198 1.510 1_556 S
C3198 C3197 1.510 1_554 S
C3198 C3199 1.411 . S
C3198 C3203 1.364 . S
C3199 H3170 0.950 . S
C3199 C3198 1.411 . S
C3199 C3200 1.334 . S
C3200 H3171 0.950 . S
C3200 C3199 1.334 . S
C3200 C3201 1.287 . S
C3201 C3200 1.287 . S
C3201 C3202 1.524 . S
C3201 H3204 0.999 . S
C3202 H3172 0.950 . S
C3202 C3201 1.524 . S
C3202 C3203 1.415 . S
C3203 H3173 0.950 1_554 S
C3203 C3198 1.364 . S
C3203 C3202 1.415 . S
H3204 C3201 0.999 . S
H3205 C3186 0.913 . S
H3206 C3224 0.951 . S
H3207 C3226 0.951 . S
H3208 C3228 0.950 . S
H3209 C3229 0.950 . S
H3210 C3231 0.950 . S
H3211 C3234 0.950 . S
H3212 C3235 0.950 . S
H3213 C3237 0.950 . S
H3214 C3238 0.950 . S
H3215 C3239 0.951 . S
H3216 C3241 0.951 . S
H3217 C3243 0.950 . S
H3218 C3244 0.950 . S
H3219 C3246 0.950 . S
H3220 C3249 0.950 . S
H3221 C3250 0.950 . S
H3222 C3252 0.950 . S
H3223 C3253 0.950 . S
C3224 H3206 0.951 . S
C3224 C3225 1.366 . S
C3224 C3226 1.388 . S
C3225 C3224 1.366 . S
C3225 C3229 1.385 . S
C3226 H3207 0.951 . S
C3226 C3224 1.388 . S
C3226 C3227 1.366 . S
C3227 C3226 1.366 . S
C3227 C3228 1.414 . S
C3227 C3230 1.499 . S
C3228 H3208 0.950 . S
C3228 C3227 1.414 . S
C3228 C3229 1.374 . S
C3229 H3209 0.950 . S
C3229 C3225 1.385 . S
C3229 C3228 1.374 . S
C3230 C3227 1.499 . S
C3230 C3231 1.373 . S
C3230 C3232 1.389 . S
C3231 H3210 0.950 . S
C3231 C3230 1.373 . S
C3231 C3247 1.377 . S
C3232 C3230 1.389 . S
C3232 C3233 1.524 . S
C3232 C3246 1.377 . S
C3233 C3232 1.524 . S
C3233 C3234 1.397 . S
C3233 C3238 1.363 . S
C3234 H3211 0.950 . S
C3234 C3233 1.397 . S
C3234 C3235 1.334 . S
C3235 H3212 0.950 . S
C3235 C3234 1.334 . S
C3235 C3236 1.287 . S
C3236 C3235 1.287 . S
C3236 C3237 1.524 . S
C3236 H3255 0.913 . S
C3237 H3213 0.950 . S
C3237 C3236 1.524 . S
C3237 C3238 1.415 . S
C3238 H3214 0.950 . S
C3238 C3233 1.363 . S
C3238 C3237 1.415 . S
C3239 H3215 0.951 . S
C3239 C3240 1.366 . S
C3239 C3241 1.388 . S
C3240 C3239 1.366 . S
C3240 C3244 1.385 . S
C3241 H3216 0.951 . S
C3241 C3239 1.388 . S
C3241 C3242 1.366 . S
C3242 C3241 1.366 . S
C3242 C3243 1.414 . S
C3242 C3245 1.499 . S
C3243 H3217 0.950 . S
C3243 C3242 1.414 . S
C3243 C3244 1.374 . S
C3244 H3218 0.950 . S
C3244 C3240 1.385 . S
C3244 C3243 1.374 . S
C3245 C3242 1.499 . S
C3245 C3246 1.373 . S
C3245 C3247 1.389 . S
C3246 H3219 0.950 . S
C3246 C3232 1.377 . S
C3246 C3245 1.373 . S
C3247 C3231 1.377 . S
C3247 C3245 1.389 . S
C3247 C3248 1.524 . S
C3248 C3247 1.524 . S
C3248 C3249 1.397 . S
C3248 C3253 1.363 . S
C3249 H3220 0.950 . S
C3249 C3248 1.397 . S
C3249 C3250 1.334 . S
C3250 H3221 0.950 . S
C3250 C3249 1.334 . S
C3250 C3251 1.287 . S
C3251 C3250 1.287 . S
C3251 C3252 1.524 . S
C3251 H3254 0.999 . S
C3252 H3222 0.950 . S
C3252 C3251 1.524 . S
C3252 C3253 1.415 . S
C3253 H3223 0.950 . S
C3253 C3248 1.363 . S
C3253 C3252 1.415 . S
H3254 C3251 0.999 . S
H3255 C3236 0.913 . S
H3256 C3274 0.951 . S
H3257 C3276 0.951 . S
H3258 C3278 0.950 . S
H3259 C3279 0.950 . S
H3260 C3281 0.950 . S
H3261 C3284 0.950 . S
H3262 C3285 0.950 . S
H3263 C3287 0.950 . S
H3264 C3288 0.950 . S
H3265 C3289 0.951 . S
H3266 C3291 0.951 . S
H3267 C3293 0.950 . S
H3268 C3294 0.950 . S
H3269 C3296 0.950 . S
H3270 C3299 0.950 . S
H3271 C3300 0.950 . S
H3272 C3302 0.950 . S
H3273 C3303 0.950 . S
C3274 H3256 0.951 . S
C3274 C3275 1.366 . S
C3274 C3276 1.388 . S
C3275 C3274 1.366 . S
C3275 C3279 1.385 . S
C3276 H3257 0.951 . S
C3276 C3274 1.388 . S
C3276 C3277 1.366 . S
C3277 C3276 1.366 . S
C3277 C3278 1.414 . S
C3277 C3280 1.499 . S
C3278 H3258 0.950 . S
C3278 C3277 1.414 . S
C3278 C3279 1.374 . S
C3279 H3259 0.950 . S
C3279 C3275 1.385 . S
C3279 C3278 1.374 . S
C3280 C3277 1.499 . S
C3280 C3281 1.373 . S
C3280 C3282 1.389 . S
C3281 H3260 0.950 . S
C3281 C3280 1.373 . S
C3281 C3297 1.377 . S
C3282 C3280 1.389 . S
C3282 C3283 1.524 . S
C3282 C3296 1.377 . S
C3283 C3282 1.524 . S
C3283 C3284 1.397 . S
C3283 C3288 1.363 . S
C3284 H3261 0.950 . S
C3284 C3283 1.397 . S
C3284 C3285 1.334 . S
C3285 H3262 0.950 . S
C3285 C3284 1.334 . S
C3285 C3286 1.287 . S
C3286 C3285 1.287 . S
C3286 C3287 1.524 . S
C3286 H3305 0.913 . S
C3287 H3263 0.950 . S
C3287 C3286 1.524 . S
C3287 C3288 1.415 . S
C3288 H3264 0.950 . S
C3288 C3283 1.363 . S
C3288 C3287 1.415 . S
C3289 H3265 0.951 . S
C3289 C3290 1.366 . S
C3289 C3291 1.388 . S
C3290 C3289 1.366 . S
C3290 C3294 1.385 . S
C3291 H3266 0.951 . S
C3291 C3289 1.388 . S
C3291 C3292 1.366 . S
C3292 C3291 1.366 . S
C3292 C3293 1.414 . S
C3292 C3295 1.499 . S
C3293 H3267 0.950 . S
C3293 C3292 1.414 . S
C3293 C3294 1.374 . S
C3294 H3268 0.950 . S
C3294 C3290 1.385 . S
C3294 C3293 1.374 . S
C3295 C3292 1.499 . S
C3295 C3296 1.373 . S
C3295 C3297 1.389 . S
C3296 H3269 0.950 . S
C3296 C3282 1.377 . S
C3296 C3295 1.373 . S
C3297 C3281 1.377 . S
C3297 C3295 1.389 . S
C3297 C3298 1.524 . S
C3298 C3297 1.524 . S
C3298 C3299 1.397 . S
C3298 C3303 1.363 . S
C3299 H3270 0.950 . S
C3299 C3298 1.397 . S
C3299 C3300 1.334 . S
C3300 H3271 0.950 . S
C3300 C3299 1.334 . S
C3300 C3301 1.287 . S
C3301 C3300 1.287 . S
C3301 C3302 1.524 . S
C3301 H3304 0.999 . S
C3302 H3272 0.950 . S
C3302 C3301 1.524 . S
C3302 C3303 1.415 . S
C3303 H3273 0.950 . S
C3303 C3298 1.363 . S
C3303 C3302 1.415 . S
H3304 C3301 0.999 . S
H3305 C3286 0.913 . S
H3306 C3324 0.951 . S
H3307 C3326 0.951 . S
H3308 C3328 0.950 . S
H3309 C3329 0.950 . S
H3310 C3331 0.950 . S
H3311 C3334 0.950 . S
H3312 C3335 0.950 . S
H3313 C3337 0.950 . S
H3314 C3338 0.950 . S
H3315 C3339 0.951 . S
H3316 C3341 0.951 . S
H3317 C3343 0.950 . S
H3318 C3344 0.950 . S
H3319 C3346 0.950 . S
H3320 C3349 0.950 . S
H3321 C3350 0.950 . S
H3322 C3352 0.950 . S
H3323 C3353 0.950 . S
C3324 H3306 0.951 . S
C3324 C3325 1.366 . S
C3324 C3326 1.388 . S
C3325 C3324 1.366 . S
C3325 C3329 1.385 . S
C3326 H3307 0.951 . S
C3326 C3324 1.388 . S
C3326 C3327 1.366 . S
C3327 C3326 1.366 . S
C3327 C3328 1.414 . S
C3327 C3330 1.499 . S
C3328 H3308 0.950 . S
C3328 C3327 1.414 . S
C3328 C3329 1.374 . S
C3329 H3309 0.950 . S
C3329 C3325 1.385 . S
C3329 C3328 1.374 . S
C3330 C3327 1.499 . S
C3330 C3331 1.373 . S
C3330 C3332 1.389 . S
C3331 H3310 0.950 . S
C3331 C3330 1.373 . S
C3331 C3347 1.377 . S
C3332 C3330 1.389 . S
C3332 C3333 1.524 . S
C3332 C3346 1.377 . S
C3333 C3332 1.524 . S
C3333 C3334 1.397 . S
C3333 C3338 1.363 . S
C3334 H3311 0.950 . S
C3334 C3333 1.397 . S
C3334 C3335 1.334 . S
C3335 H3312 0.950 . S
C3335 C3334 1.334 . S
C3335 C3336 1.287 . S
C3336 C3335 1.287 . S
C3336 C3337 1.524 . S
C3336 H3355 0.913 . S
C3337 H3313 0.950 . S
C3337 C3336 1.524 . S
C3337 C3338 1.415 . S
C3338 H3314 0.950 . S
C3338 C3333 1.363 . S
C3338 C3337 1.415 . S
C3339 H3315 0.951 . S
C3339 C3340 1.366 . S
C3339 C3341 1.388 . S
C3340 C3339 1.366 . S
C3340 C3344 1.385 . S
C3341 H3316 0.951 . S
C3341 C3339 1.388 . S
C3341 C3342 1.366 . S
C3342 C3341 1.366 . S
C3342 C3343 1.414 . S
C3342 C3345 1.499 . S
C3343 H3317 0.950 . S
C3343 C3342 1.414 . S
C3343 C3344 1.374 . S
C3344 H3318 0.950 . S
C3344 C3340 1.385 . S
C3344 C3343 1.374 . S
C3345 C3342 1.499 . S
C3345 C3346 1.373 . S
C3345 C3347 1.389 . S
C3346 H3319 0.950 . S
C3346 C3332 1.377 . S
C3346 C3345 1.373 . S
C3347 C3331 1.377 . S
C3347 C3345 1.389 . S
C3347 C3348 1.524 . S
C3348 C3347 1.524 . S
C3348 C3349 1.397 . S
C3348 C3353 1.363 . S
C3349 H3320 0.950 . S
C3349 C3348 1.397 . S
C3349 C3350 1.334 . S
C3350 H3321 0.950 . S
C3350 C3349 1.334 . S
C3350 C3351 1.287 . S
C3351 C3350 1.287 . S
C3351 C3352 1.524 . S
C3351 H3354 0.999 . S
C3352 H3322 0.950 . S
C3352 C3351 1.524 . S
C3352 C3353 1.415 . S
C3353 H3323 0.950 . S
C3353 C3348 1.363 . S
C3353 C3352 1.415 . S
H3354 C3351 0.999 . S
H3355 C3336 0.913 . S
H3356 C3374 0.951 . S
H3357 C3376 0.951 . S
H3358 C3378 0.950 . S
H3359 C3379 0.950 . S
H3360 C3381 0.950 . S
H3361 C3384 0.950 . S
H3362 C3385 0.950 . S
H3363 C3387 0.950 . S
H3364 C3388 0.950 . S
H3365 C3389 0.951 . S
H3366 C3391 0.951 . S
H3367 C3393 0.950 . S
H3368 C3394 0.950 . S
H3369 C3396 0.950 . S
H3370 C3399 0.950 . S
H3371 C3400 0.950 . S
H3372 C3402 0.950 . S
H3373 C3403 0.950 . S
C3374 H3356 0.951 . S
C3374 C3375 1.366 1_655 S
C3374 C3376 1.388 . S
C3375 C3374 1.366 1_455 S
C3375 C3379 1.385 . S
C3376 H3357 0.951 . S
C3376 C3374 1.388 . S
C3376 C3377 1.366 1_655 S
C3377 C3376 1.366 1_455 S
C3377 C3378 1.414 . S
C3377 C3380 1.499 . S
C3378 H3358 0.950 . S
C3378 C3377 1.414 . S
C3378 C3379 1.374 . S
C3379 H3359 0.950 . S
C3379 C3375 1.385 . S
C3379 C3378 1.374 . S
C3380 C3377 1.499 . S
C3380 C3381 1.373 . S
C3380 C3382 1.389 1_455 S
C3381 H3360 0.950 . S
C3381 C3380 1.373 . S
C3381 C3397 1.377 . S
C3382 C3380 1.389 1_655 S
C3382 C3383 1.524 . S
C3382 C3396 1.377 . S
C3383 C3382 1.524 . S
C3383 C3384 1.397 . S
C3383 C3388 1.363 . S
C3384 H3361 0.950 . S
C3384 C3383 1.397 . S
C3384 C3385 1.334 . S
C3385 H3362 0.950 . S
C3385 C3384 1.334 . S
C3385 C3386 1.287 . S
C3386 C3385 1.287 . S
C3386 C3387 1.524 . S
C3386 H3405 0.913 . S
C3387 H3363 0.950 . S
C3387 C3386 1.524 . S
C3387 C3388 1.415 . S
C3388 H3364 0.950 . S
C3388 C3383 1.363 . S
C3388 C3387 1.415 . S
C3389 H3365 0.951 . S
C3389 C3390 1.366 . S
C3389 C3391 1.388 . S
C3390 C3389 1.366 . S
C3390 C3394 1.385 1_455 S
C3391 H3366 0.951 . S
C3391 C3389 1.388 . S
C3391 C3392 1.366 . S
C3392 C3391 1.366 . S
C3392 C3393 1.414 1_455 S
C3392 C3395 1.499 . S
C3393 H3367 0.950 . S
C3393 C3392 1.414 1_655 S
C3393 C3394 1.374 . S
C3394 H3368 0.950 . S
C3394 C3390 1.385 1_655 S
C3394 C3393 1.374 . S
C3395 C3392 1.499 . S
C3395 C3396 1.373 1_455 S
C3395 C3397 1.389 . S
C3396 H3369 0.950 . S
C3396 C3382 1.377 . S
C3396 C3395 1.373 1_655 S
C3397 C3381 1.377 . S
C3397 C3395 1.389 . S
C3397 C3398 1.524 . S
C3398 C3397 1.524 . S
C3398 C3399 1.397 . S
C3398 C3403 1.363 . S
C3399 H3370 0.950 . S
C3399 C3398 1.397 . S
C3399 C3400 1.334 . S
C3400 H3371 0.950 . S
C3400 C3399 1.334 . S
C3400 C3401 1.287 . S
C3401 C3400 1.287 . S
C3401 C3402 1.524 . S
C3401 H3404 0.999 . S
C3402 H3372 0.950 . S
C3402 C3401 1.524 . S
C3402 C3403 1.415 . S
C3403 H3373 0.950 . S
C3403 C3398 1.363 . S
C3403 C3402 1.415 . S
H3404 C3401 0.999 . S
H3405 C3386 0.913 . S
H3406 C3424 0.951 . S
H3407 C3426 0.951 . S
H3408 C3428 0.950 . S
H3409 C3429 0.950 . S
H3410 C3431 0.950 . S
H3411 C3434 0.950 . S
H3412 C3435 0.950 . S
H3413 C3437 0.950 . S
H3414 C3438 0.950 . S
H3415 C3439 0.951 . S
H3416 C3441 0.951 . S
H3417 C3443 0.950 . S
H3418 C3444 0.950 . S
H3419 C3446 0.950 . S
H3420 C3449 0.950 . S
H3421 C3450 0.950 . S
H3422 C3452 0.950 . S
H3423 C3453 0.950 . S
C3424 H3406 0.951 . S
C3424 C3425 1.366 . S
C3424 C3426 1.388 . S
C3425 C3424 1.366 . S
C3425 C3429 1.385 . S
C3426 H3407 0.951 . S
C3426 C3424 1.388 . S
C3426 C3427 1.366 . S
C3427 C3426 1.366 . S
C3427 C3428 1.414 . S
C3427 C3430 1.499 . S
C3428 H3408 0.950 . S
C3428 C3427 1.414 . S
C3428 C3429 1.374 . S
C3429 H3409 0.950 . S
C3429 C3425 1.385 . S
C3429 C3428 1.374 . S
C3430 C3427 1.499 . S
C3430 C3431 1.373 . S
C3430 C3432 1.389 . S
C3431 H3410 0.950 . S
C3431 C3430 1.373 . S
C3431 C3447 1.377 . S
C3432 C3430 1.389 . S
C3432 C3433 1.524 . S
C3432 C3446 1.377 . S
C3433 C3432 1.524 . S
C3433 C3434 1.397 . S
C3433 C3438 1.363 . S
C3434 H3411 0.950 . S
C3434 C3433 1.397 . S
C3434 C3435 1.334 . S
C3435 H3412 0.950 . S
C3435 C3434 1.334 . S
C3435 C3436 1.287 . S
C3436 C3435 1.287 . S
C3436 C3437 1.524 . S
C3436 H3455 0.913 . S
C3437 H3413 0.950 . S
C3437 C3436 1.524 . S
C3437 C3438 1.415 . S
C3438 H3414 0.950 . S
C3438 C3433 1.363 . S
C3438 C3437 1.415 . S
C3439 H3415 0.951 . S
C3439 C3440 1.366 . S
C3439 C3441 1.388 . S
C3440 C3439 1.366 . S
C3440 C3444 1.385 . S
C3441 H3416 0.951 . S
C3441 C3439 1.388 . S
C3441 C3442 1.366 . S
C3442 C3441 1.366 . S
C3442 C3443 1.414 . S
C3442 C3445 1.499 . S
C3443 H3417 0.950 . S
C3443 C3442 1.414 . S
C3443 C3444 1.374 . S
C3444 H3418 0.950 . S
C3444 C3440 1.385 . S
C3444 C3443 1.374 . S
C3445 C3442 1.499 . S
C3445 C3446 1.373 . S
C3445 C3447 1.389 . S
C3446 H3419 0.950 . S
C3446 C3432 1.377 . S
C3446 C3445 1.373 . S
C3447 C3431 1.377 . S
C3447 C3445 1.389 . S
C3447 C3448 1.524 . S
C3448 C3447 1.524 . S
C3448 C3449 1.397 . S
C3448 C3453 1.363 . S
C3449 H3420 0.950 . S
C3449 C3448 1.397 . S
C3449 C3450 1.334 . S
C3450 H3421 0.950 . S
C3450 C3449 1.334 . S
C3450 C3451 1.287 . S
C3451 C3450 1.287 . S
C3451 C3452 1.524 . S
C3451 H3454 0.999 . S
C3452 H3422 0.950 . S
C3452 C3451 1.524 . S
C3452 C3453 1.415 . S
C3453 H3423 0.950 . S
C3453 C3448 1.363 . S
C3453 C3452 1.415 . S
H3454 C3451 0.999 . S
H3455 C3436 0.913 . S
H3456 C3474 0.951 . S
H3457 C3476 0.951 . S
H3458 C3478 0.950 . S
H3459 C3479 0.950 . S
H3460 C3481 0.950 . S
H3461 C3484 0.950 . S
H3462 C3485 0.950 . S
H3463 C3487 0.950 . S
H3464 C3488 0.950 . S
H3465 C3489 0.951 . S
H3466 C3491 0.951 . S
H3467 C3493 0.950 . S
H3468 C3494 0.950 . S
H3469 C3496 0.950 . S
H3470 C3499 0.950 . S
H3471 C3500 0.950 . S
H3472 C3502 0.950 . S
H3473 C3503 0.950 . S
C3474 H3456 0.951 . S
C3474 C3475 1.366 . S
C3474 C3476 1.388 . S
C3475 C3474 1.366 . S
C3475 C3479 1.385 . S
C3476 H3457 0.951 . S
C3476 C3474 1.388 . S
C3476 C3477 1.366 . S
C3477 C3476 1.366 . S
C3477 C3478 1.414 . S
C3477 C3480 1.499 . S
C3478 H3458 0.950 . S
C3478 C3477 1.414 . S
C3478 C3479 1.374 . S
C3479 H3459 0.950 . S
C3479 C3475 1.385 . S
C3479 C3478 1.374 . S
C3480 C3477 1.499 . S
C3480 C3481 1.373 . S
C3480 C3482 1.389 . S
C3481 H3460 0.950 . S
C3481 C3480 1.373 . S
C3481 C3497 1.377 . S
C3482 C3480 1.389 . S
C3482 C3483 1.524 . S
C3482 C3496 1.377 . S
C3483 C3482 1.524 . S
C3483 C3484 1.397 . S
C3483 C3488 1.363 . S
C3484 H3461 0.950 . S
C3484 C3483 1.397 . S
C3484 C3485 1.334 . S
C3485 H3462 0.950 . S
C3485 C3484 1.334 . S
C3485 C3486 1.287 . S
C3486 C3485 1.287 . S
C3486 C3487 1.524 . S
C3486 H3505 0.913 . S
C3487 H3463 0.950 . S
C3487 C3486 1.524 . S
C3487 C3488 1.415 . S
C3488 H3464 0.950 . S
C3488 C3483 1.363 . S
C3488 C3487 1.415 . S
C3489 H3465 0.951 . S
C3489 C3490 1.366 . S
C3489 C3491 1.388 . S
C3490 C3489 1.366 . S
C3490 C3494 1.385 . S
C3491 H3466 0.951 . S
C3491 C3489 1.388 . S
C3491 C3492 1.366 . S
C3492 C3491 1.366 . S
C3492 C3493 1.414 . S
C3492 C3495 1.499 . S
C3493 H3467 0.950 . S
C3493 C3492 1.414 . S
C3493 C3494 1.374 . S
C3494 H3468 0.950 . S
C3494 C3490 1.385 . S
C3494 C3493 1.374 . S
C3495 C3492 1.499 . S
C3495 C3496 1.373 . S
C3495 C3497 1.389 . S
C3496 H3469 0.950 . S
C3496 C3482 1.377 . S
C3496 C3495 1.373 . S
C3497 C3481 1.377 . S
C3497 C3495 1.389 . S
C3497 C3498 1.524 . S
C3498 C3497 1.524 . S
C3498 C3499 1.397 . S
C3498 C3503 1.363 . S
C3499 H3470 0.950 . S
C3499 C3498 1.397 . S
C3499 C3500 1.334 . S
C3500 H3471 0.950 . S
C3500 C3499 1.334 . S
C3500 C3501 1.287 . S
C3501 C3500 1.287 . S
C3501 C3502 1.524 . S
C3501 H3504 0.999 . S
C3502 H3472 0.950 . S
C3502 C3501 1.524 . S
C3502 C3503 1.415 . S
C3503 H3473 0.950 . S
C3503 C3498 1.363 . S
C3503 C3502 1.415 . S
H3504 C3501 0.999 . S
H3505 C3486 0.913 . S
H3506 C3524 0.951 . S
H3507 C3526 0.951 . S
H3508 C3528 0.950 . S
H3509 C3529 0.950 . S
H3510 C3531 0.950 . S
H3511 C3534 0.950 . S
H3512 C3535 0.950 . S
H3513 C3537 0.950 . S
H3514 C3538 0.950 . S
H3515 C3539 0.951 . S
H3516 C3541 0.951 . S
H3517 C3543 0.950 . S
H3518 C3544 0.950 . S
H3519 C3546 0.950 . S
H3520 C3549 0.950 . S
H3521 C3550 0.950 . S
H3522 C3552 0.950 . S
H3523 C3553 0.950 . S
C3524 H3506 0.951 . S
C3524 C3525 1.366 . S
C3524 C3526 1.388 . S
C3525 C3524 1.366 . S
C3525 C3529 1.385 . S
C3526 H3507 0.951 . S
C3526 C3524 1.388 . S
C3526 C3527 1.366 . S
C3527 C3526 1.366 . S
C3527 C3528 1.414 . S
C3527 C3530 1.499 . S
C3528 H3508 0.950 . S
C3528 C3527 1.414 . S
C3528 C3529 1.374 . S
C3529 H3509 0.950 . S
C3529 C3525 1.385 . S
C3529 C3528 1.374 . S
C3530 C3527 1.499 . S
C3530 C3531 1.373 . S
C3530 C3532 1.389 . S
C3531 H3510 0.950 . S
C3531 C3530 1.373 . S
C3531 C3547 1.377 . S
C3532 C3530 1.389 . S
C3532 C3533 1.524 . S
C3532 C3546 1.377 . S
C3533 C3532 1.524 . S
C3533 C3534 1.397 . S
C3533 C3538 1.363 . S
C3534 H3511 0.950 . S
C3534 C3533 1.397 . S
C3534 C3535 1.334 . S
C3535 H3512 0.950 . S
C3535 C3534 1.334 . S
C3535 C3536 1.287 . S
C3536 C3535 1.287 . S
C3536 C3537 1.524 . S
C3536 H3555 0.913 . S
C3537 H3513 0.950 . S
C3537 C3536 1.524 . S
C3537 C3538 1.415 . S
C3538 H3514 0.950 . S
C3538 C3533 1.363 . S
C3538 C3537 1.415 . S
C3539 H3515 0.951 . S
C3539 C3540 1.366 . S
C3539 C3541 1.388 . S
C3540 C3539 1.366 . S
C3540 C3544 1.385 . S
C3541 H3516 0.951 . S
C3541 C3539 1.388 . S
C3541 C3542 1.366 . S
C3542 C3541 1.366 . S
C3542 C3543 1.414 . S
C3542 C3545 1.499 . S
C3543 H3517 0.950 . S
C3543 C3542 1.414 . S
C3543 C3544 1.374 . S
C3544 H3518 0.950 . S
C3544 C3540 1.385 . S
C3544 C3543 1.374 . S
C3545 C3542 1.499 . S
C3545 C3546 1.373 . S
C3545 C3547 1.389 . S
C3546 H3519 0.950 . S
C3546 C3532 1.377 . S
C3546 C3545 1.373 . S
C3547 C3531 1.377 . S
C3547 C3545 1.389 . S
C3547 C3548 1.524 . S
C3548 C3547 1.524 . S
C3548 C3549 1.397 . S
C3548 C3553 1.363 . S
C3549 H3520 0.950 . S
C3549 C3548 1.397 . S
C3549 C3550 1.334 . S
C3550 H3521 0.950 . S
C3550 C3549 1.334 . S
C3550 C3551 1.287 . S
C3551 C3550 1.287 . S
C3551 C3552 1.524 . S
C3551 H3554 0.999 . S
C3552 H3522 0.950 . S
C3552 C3551 1.524 . S
C3552 C3553 1.415 . S
C3553 H3523 0.950 . S
C3553 C3548 1.363 . S
C3553 C3552 1.415 . S
H3554 C3551 0.999 . S
H3555 C3536 0.913 . S
H3556 C3574 0.951 . S
H3557 C3576 0.951 . S
H3558 C3578 0.950 . S
H3559 C3579 0.950 . S
H3560 C3581 0.950 . S
H3561 C3584 0.950 . S
H3562 C3585 0.950 . S
H3563 C3587 0.950 . S
H3564 C3588 0.950 . S
H3565 C3589 0.951 . S
H3566 C3591 0.951 . S
H3567 C3593 0.950 . S
H3568 C3594 0.950 . S
H3569 C3596 0.950 . S
H3570 C3599 0.950 . S
H3571 C3600 0.950 . S
H3572 C3602 0.950 . S
H3573 C3603 0.950 . S
C3574 H3556 0.951 . S
C3574 C3575 1.366 . S
C3574 C3576 1.388 . S
C3575 C3574 1.366 . S
C3575 C3579 1.385 . S
C3576 H3557 0.951 . S
C3576 C3574 1.388 . S
C3576 C3577 1.366 . S
C3577 C3576 1.366 . S
C3577 C3578 1.414 . S
C3577 C3580 1.499 . S
C3578 H3558 0.950 . S
C3578 C3577 1.414 . S
C3578 C3579 1.374 . S
C3579 H3559 0.950 . S
C3579 C3575 1.385 . S
C3579 C3578 1.374 . S
C3580 C3577 1.499 . S
C3580 C3581 1.373 . S
C3580 C3582 1.389 . S
C3581 H3560 0.950 . S
C3581 C3580 1.373 . S
C3581 C3597 1.377 . S
C3582 C3580 1.389 . S
C3582 C3583 1.524 . S
C3582 C3596 1.377 . S
C3583 C3582 1.524 . S
C3583 C3584 1.397 . S
C3583 C3588 1.363 . S
C3584 H3561 0.950 . S
C3584 C3583 1.397 . S
C3584 C3585 1.334 . S
C3585 H3562 0.950 . S
C3585 C3584 1.334 . S
C3585 C3586 1.287 . S
C3586 C3585 1.287 . S
C3586 C3587 1.524 . S
C3586 H3605 0.913 . S
C3587 H3563 0.950 . S
C3587 C3586 1.524 . S
C3587 C3588 1.415 . S
C3588 H3564 0.950 . S
C3588 C3583 1.363 . S
C3588 C3587 1.415 . S
C3589 H3565 0.951 . S
C3589 C3590 1.366 . S
C3589 C3591 1.388 . S
C3590 C3589 1.366 . S
C3590 C3594 1.385 . S
C3591 H3566 0.951 . S
C3591 C3589 1.388 . S
C3591 C3592 1.366 . S
C3592 C3591 1.366 . S
C3592 C3593 1.414 . S
C3592 C3595 1.499 . S
C3593 H3567 0.950 . S
C3593 C3592 1.414 . S
C3593 C3594 1.374 . S
C3594 H3568 0.950 . S
C3594 C3590 1.385 . S
C3594 C3593 1.374 . S
C3595 C3592 1.499 . S
C3595 C3596 1.373 . S
C3595 C3597 1.389 . S
C3596 H3569 0.950 . S
C3596 C3582 1.377 . S
C3596 C3595 1.373 . S
C3597 C3581 1.377 . S
C3597 C3595 1.389 . S
C3597 C3598 1.524 . S
C3598 C3597 1.524 . S
C3598 C3599 1.397 . S
C3598 C3603 1.363 . S
C3599 H3570 0.950 . S
C3599 C3598 1.397 . S
C3599 C3600 1.334 . S
C3600 H3571 0.950 . S
C3600 C3599 1.334 . S
C3600 C3601 1.287 1_455 S
C3601 C3600 1.287 1_655 S
C3601 C3602 1.524 . S
C3601 H3604 0.999 . S
C3602 H3572 0.950 . S
C3602 C3601 1.524 . S
C3602 C3603 1.415 1_655 S
C3603 H3573 0.950 . S
C3603 C3598 1.363 . S
C3603 C3602 1.415 1_455 S
H3604 C3601 0.999 . S
H3605 C3586 0.913 . S
H3606 C3624 0.951 . S
H3607 C3626 0.951 . S
H3608 C3628 0.950 . S
H3609 C3629 0.950 . S
H3610 C3631 0.950 . S
H3611 C3634 0.950 . S
H3612 C3635 0.950 . S
H3613 C3637 0.950 . S
H3614 C3638 0.950 . S
H3615 C3639 0.951 . S
H3616 C3641 0.951 . S
H3617 C3643 0.950 . S
H3618 C3644 0.950 . S
H3619 C3646 0.950 . S
H3620 C3649 0.950 . S
H3621 C3650 0.950 . S
H3622 C3652 0.950 . S
H3623 C3653 0.950 . S
C3624 H3606 0.951 . S
C3624 C3625 1.366 . S
C3624 C3626 1.388 . S
C3625 C3624 1.366 . S
C3625 C3629 1.385 . S
C3626 H3607 0.951 . S
C3626 C3624 1.388 . S
C3626 C3627 1.366 . S
C3627 C3626 1.366 . S
C3627 C3628 1.414 . S
C3627 C3630 1.499 . S
C3628 H3608 0.950 . S
C3628 C3627 1.414 . S
C3628 C3629 1.374 . S
C3629 H3609 0.950 . S
C3629 C3625 1.385 . S
C3629 C3628 1.374 . S
C3630 C3627 1.499 . S
C3630 C3631 1.373 . S
C3630 C3632 1.389 . S
C3631 H3610 0.950 . S
C3631 C3630 1.373 . S
C3631 C3647 1.377 . S
C3632 C3630 1.389 . S
C3632 C3633 1.524 . S
C3632 C3646 1.377 . S
C3633 C3632 1.524 . S
C3633 C3634 1.397 . S
C3633 C3638 1.363 . S
C3634 H3611 0.950 . S
C3634 C3633 1.397 . S
C3634 C3635 1.334 . S
C3635 H3612 0.950 . S
C3635 C3634 1.334 . S
C3635 C3636 1.287 . S
C3636 C3635 1.287 . S
C3636 C3637 1.524 . S
C3636 H3655 0.913 . S
C3637 H3613 0.950 . S
C3637 C3636 1.524 . S
C3637 C3638 1.415 . S
C3638 H3614 0.950 . S
C3638 C3633 1.363 . S
C3638 C3637 1.415 . S
C3639 H3615 0.951 . S
C3639 C3640 1.366 . S
C3639 C3641 1.388 . S
C3640 C3639 1.366 . S
C3640 C3644 1.385 . S
C3641 H3616 0.951 . S
C3641 C3639 1.388 . S
C3641 C3642 1.366 . S
C3642 C3641 1.366 . S
C3642 C3643 1.414 . S
C3642 C3645 1.499 . S
C3643 H3617 0.950 . S
C3643 C3642 1.414 . S
C3643 C3644 1.374 . S
C3644 H3618 0.950 . S
C3644 C3640 1.385 . S
C3644 C3643 1.374 . S
C3645 C3642 1.499 . S
C3645 C3646 1.373 . S
C3645 C3647 1.389 . S
C3646 H3619 0.950 . S
C3646 C3632 1.377 . S
C3646 C3645 1.373 . S
C3647 C3631 1.377 . S
C3647 C3645 1.389 . S
C3647 C3648 1.524 . S
C3648 C3647 1.524 . S
C3648 C3649 1.397 . S
C3648 C3653 1.363 . S
C3649 H3620 0.950 . S
C3649 C3648 1.397 . S
C3649 C3650 1.334 . S
C3650 H3621 0.950 . S
C3650 C3649 1.334 . S
C3650 C3651 1.287 . S
C3651 C3650 1.287 . S
C3651 C3652 1.524 . S
C3651 H3654 0.999 . S
C3652 H3622 0.950 . S
C3652 C3651 1.524 . S
C3652 C3653 1.415 . S
C3653 H3623 0.950 . S
C3653 C3648 1.363 . S
C3653 C3652 1.415 . S
H3654 C3651 0.999 . S
H3655 C3636 0.913 . S
H3656 C3674 0.951 . S
H3657 C3676 0.951 . S
H3658 C3678 0.950 . S
H3659 C3679 0.950 . S
H3660 C3681 0.950 . S
H3661 C3684 0.950 . S
H3662 C3685 0.950 . S
H3663 C3687 0.950 . S
H3664 C3688 0.950 . S
H3665 C3689 0.951 . S
H3666 C3691 0.951 . S
H3667 C3693 0.950 . S
H3668 C3694 0.950 . S
H3669 C3696 0.950 . S
H3670 C3699 0.950 . S
H3671 C3700 0.950 . S
H3672 C3702 0.950 . S
H3673 C3703 0.950 . S
C3674 H3656 0.951 . S
C3674 C3675 1.366 . S
C3674 C3676 1.388 . S
C3675 C3674 1.366 . S
C3675 C3679 1.385 . S
C3676 H3657 0.951 . S
C3676 C3674 1.388 . S
C3676 C3677 1.366 . S
C3677 C3676 1.366 . S
C3677 C3678 1.414 . S
C3677 C3680 1.499 . S
C3678 H3658 0.950 . S
C3678 C3677 1.414 . S
C3678 C3679 1.374 . S
C3679 H3659 0.950 . S
C3679 C3675 1.385 . S
C3679 C3678 1.374 . S
C3680 C3677 1.499 . S
C3680 C3681 1.373 . S
C3680 C3682 1.389 . S
C3681 H3660 0.950 . S
C3681 C3680 1.373 . S
C3681 C3697 1.377 . S
C3682 C3680 1.389 . S
C3682 C3683 1.524 . S
C3682 C3696 1.377 . S
C3683 C3682 1.524 . S
C3683 C3684 1.397 . S
C3683 C3688 1.363 . S
C3684 H3661 0.950 . S
C3684 C3683 1.397 . S
C3684 C3685 1.334 . S
C3685 H3662 0.950 . S
C3685 C3684 1.334 . S
C3685 C3686 1.287 . S
C3686 C3685 1.287 . S
C3686 C3687 1.524 . S
C3686 H3705 0.913 . S
C3687 H3663 0.950 . S
C3687 C3686 1.524 . S
C3687 C3688 1.415 . S
C3688 H3664 0.950 . S
C3688 C3683 1.363 . S
C3688 C3687 1.415 . S
C3689 H3665 0.951 . S
C3689 C3690 1.366 . S
C3689 C3691 1.388 . S
C3690 C3689 1.366 . S
C3690 C3694 1.385 . S
C3691 H3666 0.951 . S
C3691 C3689 1.388 . S
C3691 C3692 1.366 . S
C3692 C3691 1.366 . S
C3692 C3693 1.414 . S
C3692 C3695 1.499 . S
C3693 H3667 0.950 . S
C3693 C3692 1.414 . S
C3693 C3694 1.374 . S
C3694 H3668 0.950 . S
C3694 C3690 1.385 . S
C3694 C3693 1.374 . S
C3695 C3692 1.499 . S
C3695 C3696 1.373 . S
C3695 C3697 1.389 . S
C3696 H3669 0.950 . S
C3696 C3682 1.377 . S
C3696 C3695 1.373 . S
C3697 C3681 1.377 . S
C3697 C3695 1.389 . S
C3697 C3698 1.524 . S
C3698 C3697 1.524 . S
C3698 C3699 1.397 . S
C3698 C3703 1.363 . S
C3699 H3670 0.950 . S
C3699 C3698 1.397 . S
C3699 C3700 1.334 . S
C3700 H3671 0.950 . S
C3700 C3699 1.334 . S
C3700 C3701 1.287 . S
C3701 C3700 1.287 . S
C3701 C3702 1.524 . S
C3701 H3704 0.999 . S
C3702 H3672 0.950 . S
C3702 C3701 1.524 . S
C3702 C3703 1.415 . S
C3703 H3673 0.950 . S
C3703 C3698 1.363 . S
C3703 C3702 1.415 . S
H3704 C3701 0.999 . S
H3705 C3686 0.913 . S
H3706 C3724 0.951 . S
H3707 C3726 0.951 . S
H3708 C3728 0.950 . S
H3709 C3729 0.950 . S
H3710 C3731 0.950 . S
H3711 C3734 0.950 . S
H3712 C3735 0.950 . S
H3713 C3737 0.950 . S
H3714 C3738 0.950 . S
H3715 C3739 0.951 . S
H3716 C3741 0.951 . S
H3717 C3743 0.950 . S
H3718 C3744 0.950 . S
H3719 C3746 0.950 . S
H3720 C3749 0.950 . S
H3721 C3750 0.950 . S
H3722 C3752 0.950 . S
H3723 C3753 0.950 . S
C3724 H3706 0.951 . S
C3724 C3725 1.366 . S
C3724 C3726 1.388 . S
C3725 C3724 1.366 . S
C3725 C3729 1.385 . S
C3726 H3707 0.951 . S
C3726 C3724 1.388 . S
C3726 C3727 1.366 . S
C3727 C3726 1.366 . S
C3727 C3728 1.414 . S
C3727 C3730 1.499 . S
C3728 H3708 0.950 . S
C3728 C3727 1.414 . S
C3728 C3729 1.374 . S
C3729 H3709 0.950 . S
C3729 C3725 1.385 . S
C3729 C3728 1.374 . S
C3730 C3727 1.499 . S
C3730 C3731 1.373 . S
C3730 C3732 1.389 . S
C3731 H3710 0.950 . S
C3731 C3730 1.373 . S
C3731 C3747 1.377 . S
C3732 C3730 1.389 . S
C3732 C3733 1.524 . S
C3732 C3746 1.377 . S
C3733 C3732 1.524 . S
C3733 C3734 1.397 . S
C3733 C3738 1.363 . S
C3734 H3711 0.950 . S
C3734 C3733 1.397 . S
C3734 C3735 1.334 . S
C3735 H3712 0.950 . S
C3735 C3734 1.334 . S
C3735 C3736 1.287 . S
C3736 C3735 1.287 . S
C3736 C3737 1.524 . S
C3736 H3755 0.913 . S
C3737 H3713 0.950 . S
C3737 C3736 1.524 . S
C3737 C3738 1.415 . S
C3738 H3714 0.950 . S
C3738 C3733 1.363 . S
C3738 C3737 1.415 . S
C3739 H3715 0.951 . S
C3739 C3740 1.366 . S
C3739 C3741 1.388 . S
C3740 C3739 1.366 . S
C3740 C3744 1.385 . S
C3741 H3716 0.951 . S
C3741 C3739 1.388 . S
C3741 C3742 1.366 . S
C3742 C3741 1.366 . S
C3742 C3743 1.414 . S
C3742 C3745 1.499 . S
C3743 H3717 0.950 . S
C3743 C3742 1.414 . S
C3743 C3744 1.374 . S
C3744 H3718 0.950 . S
C3744 C3740 1.385 . S
C3744 C3743 1.374 . S
C3745 C3742 1.499 . S
C3745 C3746 1.373 . S
C3745 C3747 1.389 . S
C3746 H3719 0.950 . S
C3746 C3732 1.377 . S
C3746 C3745 1.373 . S
C3747 C3731 1.377 . S
C3747 C3745 1.389 . S
C3747 C3748 1.524 . S
C3748 C3747 1.524 . S
C3748 C3749 1.397 . S
C3748 C3753 1.363 . S
C3749 H3720 0.950 . S
C3749 C3748 1.397 . S
C3749 C3750 1.334 . S
C3750 H3721 0.950 . S
C3750 C3749 1.334 . S
C3750 C3751 1.287 . S
C3751 C3750 1.287 . S
C3751 C3752 1.524 . S
C3751 H3754 0.999 . S
C3752 H3722 0.950 . S
C3752 C3751 1.524 . S
C3752 C3753 1.415 . S
C3753 H3723 0.950 . S
C3753 C3748 1.363 . S
C3753 C3752 1.415 . S
H3754 C3751 0.999 . S
H3755 C3736 0.913 . S
H3756 C3774 0.951 . S
H3757 C3776 0.951 . S
H3758 C3778 0.950 . S
H3759 C3779 0.950 . S
H3760 C3781 0.950 . S
H3761 C3784 0.950 . S
H3762 C3785 0.950 . S
H3763 C3787 0.950 . S
H3764 C3788 0.950 . S
H3765 C3789 0.951 . S
H3766 C3791 0.951 . S
H3767 C3793 0.950 . S
H3768 C3794 0.950 . S
H3769 C3796 0.950 . S
H3770 C3799 0.950 . S
H3771 C3800 0.950 . S
H3772 C3802 0.950 . S
H3773 C3803 0.950 . S
C3774 H3756 0.951 . S
C3774 C3775 1.366 . S
C3774 C3776 1.388 . S
C3775 C3774 1.366 . S
C3775 C3779 1.385 . S
C3776 H3757 0.951 . S
C3776 C3774 1.388 . S
C3776 C3777 1.366 . S
C3777 C3776 1.366 . S
C3777 C3778 1.414 . S
C3777 C3780 1.499 . S
C3778 H3758 0.950 . S
C3778 C3777 1.414 . S
C3778 C3779 1.374 . S
C3779 H3759 0.950 . S
C3779 C3775 1.385 . S
C3779 C3778 1.374 . S
C3780 C3777 1.499 . S
C3780 C3781 1.373 . S
C3780 C3782 1.389 . S
C3781 H3760 0.950 . S
C3781 C3780 1.373 . S
C3781 C3797 1.377 . S
C3782 C3780 1.389 . S
C3782 C3783 1.524 . S
C3782 C3796 1.377 . S
C3783 C3782 1.524 . S
C3783 C3784 1.397 . S
C3783 C3788 1.363 . S
C3784 H3761 0.950 . S
C3784 C3783 1.397 . S
C3784 C3785 1.334 . S
C3785 H3762 0.950 . S
C3785 C3784 1.334 . S
C3785 C3786 1.287 . S
C3786 C3785 1.287 . S
C3786 C3787 1.524 . S
C3786 H3805 0.913 . S
C3787 H3763 0.950 . S
C3787 C3786 1.524 . S
C3787 C3788 1.415 . S
C3788 H3764 0.950 . S
C3788 C3783 1.363 . S
C3788 C3787 1.415 . S
C3789 H3765 0.951 . S
C3789 C3790 1.366 . S
C3789 C3791 1.388 . S
C3790 C3789 1.366 . S
C3790 C3794 1.385 . S
C3791 H3766 0.951 . S
C3791 C3789 1.388 . S
C3791 C3792 1.366 . S
C3792 C3791 1.366 . S
C3792 C3793 1.414 . S
C3792 C3795 1.499 . S
C3793 H3767 0.950 . S
C3793 C3792 1.414 . S
C3793 C3794 1.374 . S
C3794 H3768 0.950 . S
C3794 C3790 1.385 . S
C3794 C3793 1.374 . S
C3795 C3792 1.499 . S
C3795 C3796 1.373 . S
C3795 C3797 1.389 . S
C3796 H3769 0.950 . S
C3796 C3782 1.377 . S
C3796 C3795 1.373 . S
C3797 C3781 1.377 . S
C3797 C3795 1.389 . S
C3797 C3798 1.524 . S
C3798 C3797 1.524 . S
C3798 C3799 1.397 . S
C3798 C3803 1.363 . S
C3799 H3770 0.950 . S
C3799 C3798 1.397 . S
C3799 C3800 1.334 . S
C3800 H3771 0.950 . S
C3800 C3799 1.334 . S
C3800 C3801 1.287 . S
C3801 C3800 1.287 . S
C3801 C3802 1.524 . S
C3801 H3804 0.999 . S
C3802 H3772 0.950 . S
C3802 C3801 1.524 . S
C3802 C3803 1.415 . S
C3803 H3773 0.950 . S
C3803 C3798 1.363 . S
C3803 C3802 1.415 . S
H3804 C3801 0.999 . S
H3805 C3786 0.913 . S
H3806 C3824 0.951 . S
H3807 C3826 0.951 . S
H3808 C3828 0.950 . S
H3809 C3829 0.950 . S
H3810 C3831 0.950 . S
H3811 C3834 0.950 . S
H3812 C3835 0.950 . S
H3813 C3837 0.950 . S
H3814 C3838 0.950 . S
H3815 C3839 0.951 . S
H3816 C3841 0.951 . S
H3817 C3843 0.950 . S
H3818 C3844 0.950 . S
H3819 C3846 0.950 . S
H3820 C3849 0.950 . S
H3821 C3850 0.950 . S
H3822 C3852 0.950 . S
H3823 C3853 0.950 . S
C3824 H3806 0.951 . S
C3824 C3825 1.366 . S
C3824 C3826 1.388 . S
C3825 C3824 1.366 . S
C3825 C3829 1.385 . S
C3826 H3807 0.951 . S
C3826 C3824 1.388 . S
C3826 C3827 1.366 . S
C3827 C3826 1.366 . S
C3827 C3828 1.414 . S
C3827 C3830 1.499 . S
C3828 H3808 0.950 . S
C3828 C3827 1.414 . S
C3828 C3829 1.374 . S
C3829 H3809 0.950 . S
C3829 C3825 1.385 . S
C3829 C3828 1.374 . S
C3830 C3827 1.499 . S
C3830 C3831 1.373 . S
C3830 C3832 1.389 . S
C3831 H3810 0.950 . S
C3831 C3830 1.373 . S
C3831 C3847 1.377 . S
C3832 C3830 1.389 . S
C3832 C3833 1.524 . S
C3832 C3846 1.377 . S
C3833 C3832 1.524 . S
C3833 C3834 1.397 . S
C3833 C3838 1.363 . S
C3834 H3811 0.950 . S
C3834 C3833 1.397 . S
C3834 C3835 1.334 . S
C3835 H3812 0.950 . S
C3835 C3834 1.334 . S
C3835 C3836 1.287 . S
C3836 C3835 1.287 . S
C3836 C3837 1.524 . S
C3836 H3855 0.913 . S
C3837 H3813 0.950 . S
C3837 C3836 1.524 . S
C3837 C3838 1.415 . S
C3838 H3814 0.950 . S
C3838 C3833 1.363 . S
C3838 C3837 1.415 . S
C3839 H3815 0.951 . S
C3839 C3840 1.366 . S
C3839 C3841 1.388 . S
C3840 C3839 1.366 . S
C3840 C3844 1.385 . S
C3841 H3816 0.951 . S
C3841 C3839 1.388 . S
C3841 C3842 1.366 . S
C3842 C3841 1.366 . S
C3842 C3843 1.414 . S
C3842 C3845 1.499 . S
C3843 H3817 0.950 . S
C3843 C3842 1.414 . S
C3843 C3844 1.374 . S
C3844 H3818 0.950 . S
C3844 C3840 1.385 . S
C3844 C3843 1.374 . S
C3845 C3842 1.499 . S
C3845 C3846 1.373 . S
C3845 C3847 1.389 . S
C3846 H3819 0.950 . S
C3846 C3832 1.377 . S
C3846 C3845 1.373 . S
C3847 C3831 1.377 . S
C3847 C3845 1.389 . S
C3847 C3848 1.524 . S
C3848 C3847 1.524 . S
C3848 C3849 1.397 . S
C3848 C3853 1.363 . S
C3849 H3820 0.950 . S
C3849 C3848 1.397 . S
C3849 C3850 1.334 . S
C3850 H3821 0.950 . S
C3850 C3849 1.334 . S
C3850 C3851 1.287 . S
C3851 C3850 1.287 . S
C3851 C3852 1.524 . S
C3851 H3854 0.999 . S
C3852 H3822 0.950 . S
C3852 C3851 1.524 . S
C3852 C3853 1.415 . S
C3853 H3823 0.950 . S
C3853 C3848 1.363 . S
C3853 C3852 1.415 . S
H3854 C3851 0.999 . S
H3855 C3836 0.913 . S
H3856 C3874 0.951 . S
H3857 C3876 0.951 . S
H3858 C3878 0.950 . S
H3859 C3879 0.950 . S
H3860 C3881 0.950 . S
H3861 C3884 0.950 . S
H3862 C3885 0.950 . S
H3863 C3887 0.950 . S
H3864 C3888 0.950 . S
H3865 C3889 0.951 . S
H3866 C3891 0.951 . S
H3867 C3893 0.950 . S
H3868 C3894 0.950 . S
H3869 C3896 0.950 . S
H3870 C3899 0.950 . S
H3871 C3900 0.950 . S
H3872 C3902 0.950 . S
H3873 C3903 0.950 . S
C3874 H3856 0.951 . S
C3874 C3875 1.366 . S
C3874 C3876 1.388 . S
C3875 C3874 1.366 . S
C3875 C3879 1.385 . S
C3876 H3857 0.951 . S
C3876 C3874 1.388 . S
C3876 C3877 1.366 . S
C3877 C3876 1.366 . S
C3877 C3878 1.414 . S
C3877 C3880 1.499 . S
C3878 H3858 0.950 . S
C3878 C3877 1.414 . S
C3878 C3879 1.374 . S
C3879 H3859 0.950 . S
C3879 C3875 1.385 . S
C3879 C3878 1.374 . S
C3880 C3877 1.499 . S
C3880 C3881 1.373 . S
C3880 C3882 1.389 . S
C3881 H3860 0.950 . S
C3881 C3880 1.373 . S
C3881 C3897 1.377 . S
C3882 C3880 1.389 . S
C3882 C3883 1.524 . S
C3882 C3896 1.377 . S
C3883 C3882 1.524 . S
C3883 C3884 1.397 . S
C3883 C3888 1.363 . S
C3884 H3861 0.950 . S
C3884 C3883 1.397 . S
C3884 C3885 1.334 . S
C3885 H3862 0.950 . S
C3885 C3884 1.334 . S
C3885 C3886 1.287 . S
C3886 C3885 1.287 . S
C3886 C3887 1.524 . S
C3886 H3905 0.913 . S
C3887 H3863 0.950 . S
C3887 C3886 1.524 . S
C3887 C3888 1.415 . S
C3888 H3864 0.950 . S
C3888 C3883 1.363 . S
C3888 C3887 1.415 . S
C3889 H3865 0.951 . S
C3889 C3890 1.366 . S
C3889 C3891 1.388 . S
C3890 C3889 1.366 . S
C3890 C3894 1.385 . S
C3891 H3866 0.951 . S
C3891 C3889 1.388 . S
C3891 C3892 1.366 . S
C3892 C3891 1.366 . S
C3892 C3893 1.414 . S
C3892 C3895 1.499 . S
C3893 H3867 0.950 . S
C3893 C3892 1.414 . S
C3893 C3894 1.374 . S
C3894 H3868 0.950 . S
C3894 C3890 1.385 . S
C3894 C3893 1.374 . S
C3895 C3892 1.499 . S
C3895 C3896 1.373 . S
C3895 C3897 1.389 . S
C3896 H3869 0.950 . S
C3896 C3882 1.377 . S
C3896 C3895 1.373 . S
C3897 C3881 1.377 . S
C3897 C3895 1.389 . S
C3897 C3898 1.524 . S
C3898 C3897 1.524 . S
C3898 C3899 1.397 . S
C3898 C3903 1.363 . S
C3899 H3870 0.950 . S
C3899 C3898 1.397 . S
C3899 C3900 1.334 . S
C3900 H3871 0.950 . S
C3900 C3899 1.334 . S
C3900 C3901 1.287 . S
C3901 C3900 1.287 . S
C3901 C3902 1.524 . S
C3901 H3904 0.999 . S
C3902 H3872 0.950 . S
C3902 C3901 1.524 . S
C3902 C3903 1.415 . S
C3903 H3873 0.950 . S
C3903 C3898 1.363 . S
C3903 C3902 1.415 . S
H3904 C3901 0.999 . S
H3905 C3886 0.913 . S
H3906 C3924 0.951 . S
H3907 C3926 0.951 . S
H3908 C3928 0.950 . S
H3909 C3929 0.950 . S
H3910 C3931 0.950 . S
H3911 C3934 0.950 . S
H3912 C3935 0.950 . S
H3913 C3937 0.950 . S
H3914 C3938 0.950 . S
H3915 C3939 0.951 . S
H3916 C3941 0.951 . S
H3917 C3943 0.950 . S
H3918 C3944 0.950 . S
H3919 C3946 0.950 . S
H3920 C3949 0.950 . S
H3921 C3950 0.950 . S
H3922 C3952 0.950 . S
H3923 C3953 0.950 . S
C3924 H3906 0.951 . S
C3924 C3925 1.366 . S
C3924 C3926 1.388 . S
C3925 C3924 1.366 . S
C3925 C3929 1.385 . S
C3926 H3907 0.951 . S
C3926 C3924 1.388 . S
C3926 C3927 1.366 . S
C3927 C3926 1.366 . S
C3927 C3928 1.414 . S
C3927 C3930 1.499 . S
C3928 H3908 0.950 . S
C3928 C3927 1.414 . S
C3928 C3929 1.374 . S
C3929 H3909 0.950 . S
C3929 C3925 1.385 . S
C3929 C3928 1.374 . S
C3930 C3927 1.499 . S
C3930 C3931 1.373 . S
C3930 C3932 1.389 . S
C3931 H3910 0.950 . S
C3931 C3930 1.373 . S
C3931 C3947 1.377 . S
C3932 C3930 1.389 . S
C3932 C3933 1.524 . S
C3932 C3946 1.377 . S
C3933 C3932 1.524 . S
C3933 C3934 1.397 . S
C3933 C3938 1.363 . S
C3934 H3911 0.950 . S
C3934 C3933 1.397 . S
C3934 C3935 1.334 . S
C3935 H3912 0.950 . S
C3935 C3934 1.334 . S
C3935 C3936 1.287 . S
C3936 C3935 1.287 . S
C3936 C3937 1.524 . S
C3936 H3955 0.913 . S
C3937 H3913 0.950 . S
C3937 C3936 1.524 . S
C3937 C3938 1.415 . S
C3938 H3914 0.950 . S
C3938 C3933 1.363 . S
C3938 C3937 1.415 . S
C3939 H3915 0.951 . S
C3939 C3940 1.366 . S
C3939 C3941 1.388 . S
C3940 C3939 1.366 . S
C3940 C3944 1.385 . S
C3941 H3916 0.951 . S
C3941 C3939 1.388 . S
C3941 C3942 1.366 . S
C3942 C3941 1.366 . S
C3942 C3943 1.414 . S
C3942 C3945 1.499 . S
C3943 H3917 0.950 . S
C3943 C3942 1.414 . S
C3943 C3944 1.374 . S
C3944 H3918 0.950 . S
C3944 C3940 1.385 . S
C3944 C3943 1.374 . S
C3945 C3942 1.499 . S
C3945 C3946 1.373 . S
C3945 C3947 1.389 . S
C3946 H3919 0.950 . S
C3946 C3932 1.377 . S
C3946 C3945 1.373 . S
C3947 C3931 1.377 . S
C3947 C3945 1.389 . S
C3947 C3948 1.524 . S
C3948 C3947 1.524 . S
C3948 C3949 1.397 . S
C3948 C3953 1.363 . S
C3949 H3920 0.950 . S
C3949 C3948 1.397 . S
C3949 C3950 1.334 . S
C3950 H3921 0.950 . S
C3950 C3949 1.334 . S
C3950 C3951 1.287 . S
C3951 C3950 1.287 . S
C3951 C3952 1.524 . S
C3951 H3954 0.999 . S
C3952 H3922 0.950 . S
C3952 C3951 1.524 . S
C3952 C3953 1.415 . S
C3953 H3923 0.950 . S
C3953 C3948 1.363 . S
C3953 C3952 1.415 . S
H3954 C3951 0.999 . S
H3955 C3936 0.913 . S
H3956 C3974 0.951 . S
H3957 C3976 0.951 . S
H3958 C3978 0.950 . S
H3959 C3979 0.950 . S
H3960 C3981 0.950 . S
H3961 C3984 0.950 . S
H3962 C3985 0.950 . S
H3963 C3987 0.950 . S
H3964 C3988 0.950 . S
H3965 C3989 0.951 . S
H3966 C3991 0.951 . S
H3967 C3993 0.950 . S
H3968 C3994 0.950 . S
H3969 C3996 0.950 . S
H3970 C3999 0.950 . S
H3971 C4000 0.950 . S
H3972 C4002 0.950 . S
H3973 C4003 0.950 . S
C3974 H3956 0.951 . S
C3974 C3975 1.366 . S
C3974 C3976 1.388 . S
C3975 C3974 1.366 . S
C3975 C3979 1.385 . S
C3976 H3957 0.951 . S
C3976 C3974 1.388 . S
C3976 C3977 1.366 . S
C3977 C3976 1.366 . S
C3977 C3978 1.414 . S
C3977 C3980 1.499 . S
C3978 H3958 0.950 . S
C3978 C3977 1.414 . S
C3978 C3979 1.374 . S
C3979 H3959 0.950 . S
C3979 C3975 1.385 . S
C3979 C3978 1.374 . S
C3980 C3977 1.499 . S
C3980 C3981 1.373 . S
C3980 C3982 1.389 . S
C3981 H3960 0.950 . S
C3981 C3980 1.373 . S
C3981 C3997 1.377 . S
C3982 C3980 1.389 . S
C3982 C3983 1.524 . S
C3982 C3996 1.377 . S
C3983 C3982 1.524 . S
C3983 C3984 1.397 . S
C3983 C3988 1.363 . S
C3984 H3961 0.950 . S
C3984 C3983 1.397 . S
C3984 C3985 1.334 . S
C3985 H3962 0.950 . S
C3985 C3984 1.334 . S
C3985 C3986 1.287 . S
C3986 C3985 1.287 . S
C3986 C3987 1.524 . S
C3986 H4005 0.913 . S
C3987 H3963 0.950 . S
C3987 C3986 1.524 . S
C3987 C3988 1.415 . S
C3988 H3964 0.950 . S
C3988 C3983 1.363 . S
C3988 C3987 1.415 . S
C3989 H3965 0.951 . S
C3989 C3990 1.366 . S
C3989 C3991 1.388 . S
C3990 C3989 1.366 . S
C3990 C3994 1.385 . S
C3991 H3966 0.951 . S
C3991 C3989 1.388 . S
C3991 C3992 1.366 . S
C3992 C3991 1.366 . S
C3992 C3993 1.414 . S
C3992 C3995 1.499 . S
C3993 H3967 0.950 . S
C3993 C3992 1.414 . S
C3993 C3994 1.374 . S
C3994 H3968 0.950 . S
C3994 C3990 1.385 . S
C3994 C3993 1.374 . S
C3995 C3992 1.499 . S
C3995 C3996 1.373 . S
C3995 C3997 1.389 . S
C3996 H3969 0.950 . S
C3996 C3982 1.377 . S
C3996 C3995 1.373 . S
C3997 C3981 1.377 . S
C3997 C3995 1.389 . S
C3997 C3998 1.524 . S
C3998 C3997 1.524 . S
C3998 C3999 1.397 . S
C3998 C4003 1.363 . S
C3999 H3970 0.950 . S
C3999 C3998 1.397 . S
C3999 C4000 1.334 . S
C4000 H3971 0.950 . S
C4000 C3999 1.334 . S
C4000 C4001 1.287 . S
C4001 C4000 1.287 . S
C4001 C4002 1.524 . S
C4001 H4004 0.999 . S
C4002 H3972 0.950 . S
C4002 C4001 1.524 . S
C4002 C4003 1.415 . S
C4003 H3973 0.950 . S
C4003 C3998 1.363 . S
C4003 C4002 1.415 . S
H4004 C4001 0.999 . S
H4005 C3986 0.913 . S
H4006 C4024 0.951 . S
H4007 C4026 0.951 . S
H4008 C4028 0.950 . S
H4009 C4029 0.950 . S
H4010 C4031 0.950 . S
H4011 C4034 0.950 . S
H4012 C4035 0.950 . S
H4013 C4037 0.950 . S
H4014 C4038 0.950 . S
H4015 C4039 0.951 . S
H4016 C4041 0.951 . S
H4017 C4043 0.950 . S
H4018 C4044 0.950 . S
H4019 C4046 0.950 1_556 S
H4020 C4049 0.950 1_545 S
H4021 C4050 0.950 1_545 S
H4022 C4052 0.950 . S
H4023 C4053 0.950 . S
C4024 H4006 0.951 . S
C4024 C4025 1.366 . S
C4024 C4026 1.388 . S
C4025 C4024 1.366 . S
C4025 C4029 1.385 . S
C4026 H4007 0.951 . S
C4026 C4024 1.388 . S
C4026 C4027 1.366 . S
C4027 C4026 1.366 . S
C4027 C4028 1.414 . S
C4027 C4030 1.499 . S
C4028 H4008 0.950 . S
C4028 C4027 1.414 . S
C4028 C4029 1.374 . S
C4029 H4009 0.950 . S
C4029 C4025 1.385 . S
C4029 C4028 1.374 . S
C4030 C4027 1.499 . S
C4030 C4031 1.373 . S
C4030 C4032 1.389 . S
C4031 H4010 0.950 . S
C4031 C4030 1.373 . S
C4031 C4047 1.377 . S
C4032 C4030 1.389 . S
C4032 C4033 1.524 1_554 S
C4032 C4046 1.377 . S
C4033 C4032 1.524 1_556 S
C4033 C4034 1.397 . S
C4033 C4038 1.363 . S
C4034 H4011 0.950 . S
C4034 C4033 1.397 . S
C4034 C4035 1.334 . S
C4035 H4012 0.950 . S
C4035 C4034 1.334 . S
C4035 C4036 1.287 . S
C4036 C4035 1.287 . S
C4036 C4037 1.524 . S
C4036 H4055 0.913 . S
C4037 H4013 0.950 . S
C4037 C4036 1.524 . S
C4037 C4038 1.415 . S
C4038 H4014 0.950 . S
C4038 C4033 1.363 . S
C4038 C4037 1.415 . S
C4039 H4015 0.951 . S
C4039 C4040 1.366 1_565 S
C4039 C4041 1.388 . S
C4040 C4039 1.366 1_545 S
C4040 C4044 1.385 . S
C4041 H4016 0.951 . S
C4041 C4039 1.388 . S
C4041 C4042 1.366 . S
C4042 C4041 1.366 . S
C4042 C4043 1.414 1_565 S
C4042 C4045 1.499 . S
C4043 H4017 0.950 . S
C4043 C4042 1.414 1_545 S
C4043 C4044 1.374 . S
C4044 H4018 0.950 . S
C4044 C4040 1.385 . S
C4044 C4043 1.374 . S
C4045 C4042 1.499 . S
C4045 C4046 1.373 . S
C4045 C4047 1.389 . S
C4046 H4019 0.950 1_554 S
C4046 C4032 1.377 . S
C4046 C4045 1.373 . S
C4047 C4031 1.377 . S
C4047 C4045 1.389 . S
C4047 C4048 1.524 . S
C4048 C4047 1.524 . S
C4048 C4049 1.397 . S
C4048 C4053 1.363 . S
C4049 H4020 0.950 1_565 S
C4049 C4048 1.397 . S
C4049 C4050 1.334 . S
C4050 H4021 0.950 1_565 S
C4050 C4049 1.334 . S
C4050 C4051 1.287 . S
C4051 C4050 1.287 . S
C4051 C4052 1.524 . S
C4051 H4054 0.999 . S
C4052 H4022 0.950 . S
C4052 C4051 1.524 . S
C4052 C4053 1.415 . S
C4053 H4023 0.950 . S
C4053 C4048 1.363 . S
C4053 C4052 1.415 . S
H4054 C4051 0.999 . S
H4055 C4036 0.913 . S
H4056 C4074 0.951 . S
H4057 C4076 0.951 . S
H4058 C4078 0.950 . S
H4059 C4079 0.950 . S
H4060 C4081 0.950 . S
H4061 C4084 0.950 . S
H4062 C4085 0.950 . S
H4063 C4087 0.950 . S
H4064 C4088 0.950 . S
H4065 C4089 0.951 . S
H4066 C4091 0.951 . S
H4067 C4093 0.950 . S
H4068 C4094 0.950 . S
H4069 C4096 0.950 . S
H4070 C4099 0.950 . S
H4071 C4100 0.950 . S
H4072 C4102 0.950 . S
H4073 C4103 0.950 . S
C4074 H4056 0.951 . S
C4074 C4075 1.366 . S
C4074 C4076 1.388 . S
C4075 C4074 1.366 . S
C4075 C4079 1.385 . S
C4076 H4057 0.951 . S
C4076 C4074 1.388 . S
C4076 C4077 1.366 . S
C4077 C4076 1.366 . S
C4077 C4078 1.414 . S
C4077 C4080 1.499 . S
C4078 H4058 0.950 . S
C4078 C4077 1.414 . S
C4078 C4079 1.374 . S
C4079 H4059 0.950 . S
C4079 C4075 1.385 . S
C4079 C4078 1.374 . S
C4080 C4077 1.499 . S
C4080 C4081 1.373 . S
C4080 C4082 1.389 . S
C4081 H4060 0.950 . S
C4081 C4080 1.373 . S
C4081 C4097 1.377 . S
C4082 C4080 1.389 . S
C4082 C4083 1.524 . S
C4082 C4096 1.377 . S
C4083 C4082 1.524 . S
C4083 C4084 1.397 . S
C4083 C4088 1.363 . S
C4084 H4061 0.950 . S
C4084 C4083 1.397 . S
C4084 C4085 1.334 . S
C4085 H4062 0.950 . S
C4085 C4084 1.334 . S
C4085 C4086 1.287 . S
C4086 C4085 1.287 . S
C4086 C4087 1.524 . S
C4086 H4105 0.913 . S
C4087 H4063 0.950 . S
C4087 C4086 1.524 . S
C4087 C4088 1.415 . S
C4088 H4064 0.950 . S
C4088 C4083 1.363 . S
C4088 C4087 1.415 . S
C4089 H4065 0.951 . S
C4089 C4090 1.366 . S
C4089 C4091 1.388 . S
C4090 C4089 1.366 . S
C4090 C4094 1.385 . S
C4091 H4066 0.951 . S
C4091 C4089 1.388 . S
C4091 C4092 1.366 . S
C4092 C4091 1.366 . S
C4092 C4093 1.414 . S
C4092 C4095 1.499 . S
C4093 H4067 0.950 . S
C4093 C4092 1.414 . S
C4093 C4094 1.374 . S
C4094 H4068 0.950 . S
C4094 C4090 1.385 . S
C4094 C4093 1.374 . S
C4095 C4092 1.499 . S
C4095 C4096 1.373 . S
C4095 C4097 1.389 . S
C4096 H4069 0.950 . S
C4096 C4082 1.377 . S
C4096 C4095 1.373 . S
C4097 C4081 1.377 . S
C4097 C4095 1.389 . S
C4097 C4098 1.524 . S
C4098 C4097 1.524 . S
C4098 C4099 1.397 . S
C4098 C4103 1.363 . S
C4099 H4070 0.950 . S
C4099 C4098 1.397 . S
C4099 C4100 1.334 . S
C4100 H4071 0.950 . S
C4100 C4099 1.334 . S
C4100 C4101 1.287 . S
C4101 C4100 1.287 . S
C4101 C4102 1.524 . S
C4101 H4104 0.999 . S
C4102 H4072 0.950 . S
C4102 C4101 1.524 . S
C4102 C4103 1.415 . S
C4103 H4073 0.950 . S
C4103 C4098 1.363 . S
C4103 C4102 1.415 . S
H4104 C4101 0.999 . S
H4105 C4086 0.913 . S
H4106 C4124 0.951 . S
H4107 C4126 0.951 . S
H4108 C4128 0.950 . S
H4109 C4129 0.950 . S
H4110 C4131 0.950 . S
H4111 C4134 0.950 . S
H4112 C4135 0.950 . S
H4113 C4137 0.950 . S
H4114 C4138 0.950 . S
H4115 C4139 0.951 . S
H4116 C4141 0.951 . S
H4117 C4143 0.950 . S
H4118 C4144 0.950 . S
H4119 C4146 0.950 1_556 S
H4120 C4149 0.950 . S
H4121 C4150 0.950 . S
H4122 C4152 0.950 . S
H4123 C4153 0.950 . S
C4124 H4106 0.951 . S
C4124 C4125 1.366 . S
C4124 C4126 1.388 . S
C4125 C4124 1.366 . S
C4125 C4129 1.385 . S
C4126 H4107 0.951 . S
C4126 C4124 1.388 . S
C4126 C4127 1.366 . S
C4127 C4126 1.366 . S
C4127 C4128 1.414 . S
C4127 C4130 1.499 . S
C4128 H4108 0.950 . S
C4128 C4127 1.414 . S
C4128 C4129 1.374 . S
C4129 H4109 0.950 . S
C4129 C4125 1.385 . S
C4129 C4128 1.374 . S
C4130 C4127 1.499 . S
C4130 C4131 1.373 . S
C4130 C4132 1.389 . S
C4131 H4110 0.950 . S
C4131 C4130 1.373 . S
C4131 C4147 1.377 . S
C4132 C4130 1.389 . S
C4132 C4133 1.524 1_554 S
C4132 C4146 1.377 . S
C4133 C4132 1.524 1_556 S
C4133 C4134 1.397 . S
C4133 C4138 1.363 . S
C4134 H4111 0.950 . S
C4134 C4133 1.397 . S
C4134 C4135 1.334 . S
C4135 H4112 0.950 . S
C4135 C4134 1.334 . S
C4135 C4136 1.287 . S
C4136 C4135 1.287 . S
C4136 C4137 1.524 . S
C4136 H4155 0.913 . S
C4137 H4113 0.950 . S
C4137 C4136 1.524 . S
C4137 C4138 1.415 . S
C4138 H4114 0.950 . S
C4138 C4133 1.363 . S
C4138 C4137 1.415 . S
C4139 H4115 0.951 . S
C4139 C4140 1.366 . S
C4139 C4141 1.388 . S
C4140 C4139 1.366 . S
C4140 C4144 1.385 . S
C4141 H4116 0.951 . S
C4141 C4139 1.388 . S
C4141 C4142 1.366 . S
C4142 C4141 1.366 . S
C4142 C4143 1.414 . S
C4142 C4145 1.499 . S
C4143 H4117 0.950 . S
C4143 C4142 1.414 . S
C4143 C4144 1.374 . S
C4144 H4118 0.950 . S
C4144 C4140 1.385 . S
C4144 C4143 1.374 . S
C4145 C4142 1.499 . S
C4145 C4146 1.373 . S
C4145 C4147 1.389 . S
C4146 H4119 0.950 1_554 S
C4146 C4132 1.377 . S
C4146 C4145 1.373 . S
C4147 C4131 1.377 . S
C4147 C4145 1.389 . S
C4147 C4148 1.524 . S
C4148 C4147 1.524 . S
C4148 C4149 1.397 . S
C4148 C4153 1.363 . S
C4149 H4120 0.950 . S
C4149 C4148 1.397 . S
C4149 C4150 1.334 . S
C4150 H4121 0.950 . S
C4150 C4149 1.334 . S
C4150 C4151 1.287 . S
C4151 C4150 1.287 . S
C4151 C4152 1.524 . S
C4151 H4154 0.999 . S
C4152 H4122 0.950 . S
C4152 C4151 1.524 . S
C4152 C4153 1.415 . S
C4153 H4123 0.950 . S
C4153 C4148 1.363 . S
C4153 C4152 1.415 . S
H4154 C4151 0.999 . S
H4155 C4136 0.913 . S
H4156 C4174 0.951 . S
H4157 C4176 0.951 . S
H4158 C4178 0.950 . S
H4159 C4179 0.950 . S
H4160 C4181 0.950 . S
H4161 C4184 0.950 . S
H4162 C4185 0.950 . S
H4163 C4187 0.950 . S
H4164 C4188 0.950 . S
H4165 C4189 0.951 . S
H4166 C4191 0.951 . S
H4167 C4193 0.950 . S
H4168 C4194 0.950 . S
H4169 C4196 0.950 . S
H4170 C4199 0.950 . S
H4171 C4200 0.950 . S
H4172 C4202 0.950 . S
H4173 C4203 0.950 . S
C4174 H4156 0.951 . S
C4174 C4175 1.366 . S
C4174 C4176 1.388 . S
C4175 C4174 1.366 . S
C4175 C4179 1.385 . S
C4176 H4157 0.951 . S
C4176 C4174 1.388 . S
C4176 C4177 1.366 . S
C4177 C4176 1.366 . S
C4177 C4178 1.414 . S
C4177 C4180 1.499 . S
C4178 H4158 0.950 . S
C4178 C4177 1.414 . S
C4178 C4179 1.374 . S
C4179 H4159 0.950 . S
C4179 C4175 1.385 . S
C4179 C4178 1.374 . S
C4180 C4177 1.499 . S
C4180 C4181 1.373 . S
C4180 C4182 1.389 . S
C4181 H4160 0.950 . S
C4181 C4180 1.373 . S
C4181 C4197 1.377 . S
C4182 C4180 1.389 . S
C4182 C4183 1.524 . S
C4182 C4196 1.377 . S
C4183 C4182 1.524 . S
C4183 C4184 1.397 . S
C4183 C4188 1.363 . S
C4184 H4161 0.950 . S
C4184 C4183 1.397 . S
C4184 C4185 1.334 . S
C4185 H4162 0.950 . S
C4185 C4184 1.334 . S
C4185 C4186 1.287 . S
C4186 C4185 1.287 . S
C4186 C4187 1.524 . S
C4186 H4205 0.913 . S
C4187 H4163 0.950 . S
C4187 C4186 1.524 . S
C4187 C4188 1.415 . S
C4188 H4164 0.950 . S
C4188 C4183 1.363 . S
C4188 C4187 1.415 . S
C4189 H4165 0.951 . S
C4189 C4190 1.366 . S
C4189 C4191 1.388 . S
C4190 C4189 1.366 . S
C4190 C4194 1.385 . S
C4191 H4166 0.951 . S
C4191 C4189 1.388 . S
C4191 C4192 1.366 . S
C4192 C4191 1.366 . S
C4192 C4193 1.414 . S
C4192 C4195 1.499 . S
C4193 H4167 0.950 . S
C4193 C4192 1.414 . S
C4193 C4194 1.374 . S
C4194 H4168 0.950 . S
C4194 C4190 1.385 . S
C4194 C4193 1.374 . S
C4195 C4192 1.499 . S
C4195 C4196 1.373 . S
C4195 C4197 1.389 . S
C4196 H4169 0.950 . S
C4196 C4182 1.377 . S
C4196 C4195 1.373 . S
C4197 C4181 1.377 . S
C4197 C4195 1.389 . S
C4197 C4198 1.524 . S
C4198 C4197 1.524 . S
C4198 C4199 1.397 . S
C4198 C4203 1.363 . S
C4199 H4170 0.950 . S
C4199 C4198 1.397 . S
C4199 C4200 1.334 . S
C4200 H4171 0.950 . S
C4200 C4199 1.334 . S
C4200 C4201 1.287 . S
C4201 C4200 1.287 . S
C4201 C4202 1.524 . S
C4201 H4204 0.999 . S
C4202 H4172 0.950 . S
C4202 C4201 1.524 . S
C4202 C4203 1.415 . S
C4203 H4173 0.950 . S
C4203 C4198 1.363 . S
C4203 C4202 1.415 . S
H4204 C4201 0.999 . S
H4205 C4186 0.913 . S
H4206 C4224 0.951 . S
H4207 C4226 0.951 . S
H4208 C4228 0.950 . S
H4209 C4229 0.950 . S
H4210 C4231 0.950 . S
H4211 C4234 0.950 . S
H4212 C4235 0.950 . S
H4213 C4237 0.950 . S
H4214 C4238 0.950 . S
H4215 C4239 0.951 . S
H4216 C4241 0.951 . S
H4217 C4243 0.950 . S
H4218 C4244 0.950 . S
H4219 C4246 0.950 . S
H4220 C4249 0.950 . S
H4221 C4250 0.950 . S
H4222 C4252 0.950 . S
H4223 C4253 0.950 . S
C4224 H4206 0.951 . S
C4224 C4225 1.366 . S
C4224 C4226 1.388 . S
C4225 C4224 1.366 . S
C4225 C4229 1.385 . S
C4226 H4207 0.951 . S
C4226 C4224 1.388 . S
C4226 C4227 1.366 . S
C4227 C4226 1.366 . S
C4227 C4228 1.414 . S
C4227 C4230 1.499 . S
C4228 H4208 0.950 . S
C4228 C4227 1.414 . S
C4228 C4229 1.374 . S
C4229 H4209 0.950 . S
C4229 C4225 1.385 . S
C4229 C4228 1.374 . S
C4230 C4227 1.499 . S
C4230 C4231 1.373 . S
C4230 C4232 1.389 . S
C4231 H4210 0.950 . S
C4231 C4230 1.373 . S
C4231 C4247 1.377 . S
C4232 C4230 1.389 . S
C4232 C4233 1.524 . S
C4232 C4246 1.377 . S
C4233 C4232 1.524 . S
C4233 C4234 1.397 . S
C4233 C4238 1.363 . S
C4234 H4211 0.950 . S
C4234 C4233 1.397 . S
C4234 C4235 1.334 . S
C4235 H4212 0.950 . S
C4235 C4234 1.334 . S
C4235 C4236 1.287 . S
C4236 C4235 1.287 . S
C4236 C4237 1.524 . S
C4236 H4255 0.913 . S
C4237 H4213 0.950 . S
C4237 C4236 1.524 . S
C4237 C4238 1.415 . S
C4238 H4214 0.950 . S
C4238 C4233 1.363 . S
C4238 C4237 1.415 . S
C4239 H4215 0.951 . S
C4239 C4240 1.366 . S
C4239 C4241 1.388 . S
C4240 C4239 1.366 . S
C4240 C4244 1.385 . S
C4241 H4216 0.951 . S
C4241 C4239 1.388 . S
C4241 C4242 1.366 . S
C4242 C4241 1.366 . S
C4242 C4243 1.414 . S
C4242 C4245 1.499 . S
C4243 H4217 0.950 . S
C4243 C4242 1.414 . S
C4243 C4244 1.374 . S
C4244 H4218 0.950 . S
C4244 C4240 1.385 . S
C4244 C4243 1.374 . S
C4245 C4242 1.499 . S
C4245 C4246 1.373 . S
C4245 C4247 1.389 . S
C4246 H4219 0.950 . S
C4246 C4232 1.377 . S
C4246 C4245 1.373 . S
C4247 C4231 1.377 . S
C4247 C4245 1.389 . S
C4247 C4248 1.524 . S
C4248 C4247 1.524 . S
C4248 C4249 1.397 . S
C4248 C4253 1.363 . S
C4249 H4220 0.950 . S
C4249 C4248 1.397 . S
C4249 C4250 1.334 . S
C4250 H4221 0.950 . S
C4250 C4249 1.334 . S
C4250 C4251 1.287 . S
C4251 C4250 1.287 . S
C4251 C4252 1.524 . S
C4251 H4254 0.999 . S
C4252 H4222 0.950 . S
C4252 C4251 1.524 . S
C4252 C4253 1.415 . S
C4253 H4223 0.950 . S
C4253 C4248 1.363 . S
C4253 C4252 1.415 . S
H4254 C4251 0.999 . S
H4255 C4236 0.913 . S
H4256 C4274 0.951 . S
H4257 C4276 0.951 . S
H4258 C4278 0.950 . S
H4259 C4279 0.950 . S
H4260 C4281 0.950 . S
H4261 C4284 0.950 . S
H4262 C4285 0.950 . S
H4263 C4287 0.950 . S
H4264 C4288 0.950 . S
H4265 C4289 0.951 . S
H4266 C4291 0.951 . S
H4267 C4293 0.950 . S
H4268 C4294 0.950 . S
H4269 C4296 0.950 . S
H4270 C4299 0.950 . S
H4271 C4300 0.950 . S
H4272 C4302 0.950 . S
H4273 C4303 0.950 . S
C4274 H4256 0.951 . S
C4274 C4275 1.366 . S
C4274 C4276 1.388 . S
C4275 C4274 1.366 . S
C4275 C4279 1.385 . S
C4276 H4257 0.951 . S
C4276 C4274 1.388 . S
C4276 C4277 1.366 . S
C4277 C4276 1.366 . S
C4277 C4278 1.414 . S
C4277 C4280 1.499 . S
C4278 H4258 0.950 . S
C4278 C4277 1.414 . S
C4278 C4279 1.374 . S
C4279 H4259 0.950 . S
C4279 C4275 1.385 . S
C4279 C4278 1.374 . S
C4280 C4277 1.499 . S
C4280 C4281 1.373 . S
C4280 C4282 1.389 . S
C4281 H4260 0.950 . S
C4281 C4280 1.373 . S
C4281 C4297 1.377 . S
C4282 C4280 1.389 . S
C4282 C4283 1.524 . S
C4282 C4296 1.377 . S
C4283 C4282 1.524 . S
C4283 C4284 1.397 . S
C4283 C4288 1.363 . S
C4284 H4261 0.950 . S
C4284 C4283 1.397 . S
C4284 C4285 1.334 . S
C4285 H4262 0.950 . S
C4285 C4284 1.334 . S
C4285 C4286 1.287 . S
C4286 C4285 1.287 . S
C4286 C4287 1.524 . S
C4286 H4305 0.913 . S
C4287 H4263 0.950 . S
C4287 C4286 1.524 . S
C4287 C4288 1.415 . S
C4288 H4264 0.950 . S
C4288 C4283 1.363 . S
C4288 C4287 1.415 . S
C4289 H4265 0.951 . S
C4289 C4290 1.366 . S
C4289 C4291 1.388 . S
C4290 C4289 1.366 . S
C4290 C4294 1.385 . S
C4291 H4266 0.951 . S
C4291 C4289 1.388 . S
C4291 C4292 1.366 . S
C4292 C4291 1.366 . S
C4292 C4293 1.414 . S
C4292 C4295 1.499 . S
C4293 H4267 0.950 . S
C4293 C4292 1.414 . S
C4293 C4294 1.374 . S
C4294 H4268 0.950 . S
C4294 C4290 1.385 . S
C4294 C4293 1.374 . S
C4295 C4292 1.499 . S
C4295 C4296 1.373 . S
C4295 C4297 1.389 . S
C4296 H4269 0.950 . S
C4296 C4282 1.377 . S
C4296 C4295 1.373 . S
C4297 C4281 1.377 . S
C4297 C4295 1.389 . S
C4297 C4298 1.524 . S
C4298 C4297 1.524 . S
C4298 C4299 1.397 . S
C4298 C4303 1.363 . S
C4299 H4270 0.950 . S
C4299 C4298 1.397 . S
C4299 C4300 1.334 . S
C4300 H4271 0.950 . S
C4300 C4299 1.334 . S
C4300 C4301 1.287 . S
C4301 C4300 1.287 . S
C4301 C4302 1.524 . S
C4301 H4304 0.999 . S
C4302 H4272 0.950 . S
C4302 C4301 1.524 . S
C4302 C4303 1.415 . S
C4303 H4273 0.950 . S
C4303 C4298 1.363 . S
C4303 C4302 1.415 . S
H4304 C4301 0.999 . S
H4305 C4286 0.913 . S
H4306 C4324 0.951 . S
H4307 C4326 0.951 . S
H4308 C4328 0.950 . S
H4309 C4329 0.950 . S
H4310 C4331 0.950 . S
H4311 C4334 0.950 . S
H4312 C4335 0.950 . S
H4313 C4337 0.950 . S
H4314 C4338 0.950 . S
H4315 C4339 0.951 . S
H4316 C4341 0.951 . S
H4317 C4343 0.950 . S
H4318 C4344 0.950 . S
H4319 C4346 0.950 . S
H4320 C4349 0.950 . S
H4321 C4350 0.950 . S
H4322 C4352 0.950 . S
H4323 C4353 0.950 . S
C4324 H4306 0.951 . S
C4324 C4325 1.366 . S
C4324 C4326 1.388 . S
C4325 C4324 1.366 . S
C4325 C4329 1.385 . S
C4326 H4307 0.951 . S
C4326 C4324 1.388 . S
C4326 C4327 1.366 . S
C4327 C4326 1.366 . S
C4327 C4328 1.414 . S
C4327 C4330 1.499 . S
C4328 H4308 0.950 . S
C4328 C4327 1.414 . S
C4328 C4329 1.374 . S
C4329 H4309 0.950 . S
C4329 C4325 1.385 . S
C4329 C4328 1.374 . S
C4330 C4327 1.499 . S
C4330 C4331 1.373 . S
C4330 C4332 1.389 . S
C4331 H4310 0.950 . S
C4331 C4330 1.373 . S
C4331 C4347 1.377 . S
C4332 C4330 1.389 . S
C4332 C4333 1.524 . S
C4332 C4346 1.377 . S
C4333 C4332 1.524 . S
C4333 C4334 1.397 . S
C4333 C4338 1.363 . S
C4334 H4311 0.950 . S
C4334 C4333 1.397 . S
C4334 C4335 1.334 . S
C4335 H4312 0.950 . S
C4335 C4334 1.334 . S
C4335 C4336 1.287 . S
C4336 C4335 1.287 . S
C4336 C4337 1.524 . S
C4336 H4355 0.913 . S
C4337 H4313 0.950 . S
C4337 C4336 1.524 . S
C4337 C4338 1.415 . S
C4338 H4314 0.950 . S
C4338 C4333 1.363 . S
C4338 C4337 1.415 . S
C4339 H4315 0.951 . S
C4339 C4340 1.366 . S
C4339 C4341 1.388 . S
C4340 C4339 1.366 . S
C4340 C4344 1.385 . S
C4341 H4316 0.951 . S
C4341 C4339 1.388 . S
C4341 C4342 1.366 . S
C4342 C4341 1.366 . S
C4342 C4343 1.414 . S
C4342 C4345 1.499 . S
C4343 H4317 0.950 . S
C4343 C4342 1.414 . S
C4343 C4344 1.374 . S
C4344 H4318 0.950 . S
C4344 C4340 1.385 . S
C4344 C4343 1.374 . S
C4345 C4342 1.499 . S
C4345 C4346 1.373 . S
C4345 C4347 1.389 . S
C4346 H4319 0.950 . S
C4346 C4332 1.377 . S
C4346 C4345 1.373 . S
C4347 C4331 1.377 . S
C4347 C4345 1.389 . S
C4347 C4348 1.524 . S
C4348 C4347 1.524 . S
C4348 C4349 1.397 . S
C4348 C4353 1.363 . S
C4349 H4320 0.950 . S
C4349 C4348 1.397 . S
C4349 C4350 1.334 . S
C4350 H4321 0.950 . S
C4350 C4349 1.334 . S
C4350 C4351 1.287 . S
C4351 C4350 1.287 . S
C4351 C4352 1.524 . S
C4351 H4354 0.999 . S
C4352 H4322 0.950 . S
C4352 C4351 1.524 . S
C4352 C4353 1.415 . S
C4353 H4323 0.950 . S
C4353 C4348 1.363 . S
C4353 C4352 1.415 . S
H4354 C4351 0.999 . S
H4355 C4336 0.913 . S
H4356 C4374 0.951 . S
H4357 C4376 0.951 . S
H4358 C4378 0.950 1_655 S
H4359 C4379 0.950 1_655 S
H4360 C4381 0.950 . S
H4361 C4384 0.950 . S
H4362 C4385 0.950 . S
H4363 C4387 0.950 . S
H4364 C4388 0.950 . S
H4365 C4389 0.922 1_655 S
H4366 C4391 0.951 1_655 S
H4367 C4393 0.950 . S
H4368 C4394 0.950 . S
H4369 C4396 0.950 . S
H4370 C4399 0.950 . S
H4371 C4400 0.950 . S
H4372 C4402 0.950 1_655 S
H4373 C4403 0.950 1_655 S
C4374 H4356 0.951 . S
C4374 C4375 1.366 . S
C4374 C4376 1.388 . S
C4375 C4374 1.366 . S
C4375 C4379 1.385 . S
C4376 H4357 0.951 . S
C4376 C4374 1.388 . S
C4376 C4377 1.366 . S
C4377 C4376 1.366 . S
C4377 C4378 1.414 . S
C4377 C4380 1.499 . S
C4378 H4358 0.950 1_455 S
C4378 C4377 1.414 . S
C4378 C4379 1.374 . S
C4379 H4359 0.950 1_455 S
C4379 C4375 1.385 . S
C4379 C4378 1.374 . S
C4380 C4377 1.499 . S
C4380 C4381 1.373 . S
C4380 C4382 1.389 . S
C4381 H4360 0.950 . S
C4381 C4380 1.373 . S
C4381 C4397 1.377 . S
C4382 C4380 1.389 . S
C4382 C4383 1.524 . S
C4382 C4396 1.377 . S
C4383 C4382 1.524 . S
C4383 C4384 1.397 1_455 S
C4383 C4388 1.363 . S
C4384 H4361 0.950 . S
C4384 C4383 1.397 1_655 S
C4384 C4385 1.334 . S
C4385 H4362 0.950 . S
C4385 C4384 1.334 . S
C4385 C4386 1.287 1_655 S
C4386 C4385 1.287 1_455 S
C4386 C4387 1.524 . S
C4386 H4405 0.913 . S
C4387 H4363 0.950 . S
C4387 C4386 1.524 . S
C4387 C4388 1.415 . S
C4388 H4364 0.950 . S
C4388 C4383 1.363 . S
C4388 C4387 1.415 . S
C4389 H4365 0.922 1_455 S
C4389 C4390 1.403 . S
C4389 C4391 1.381 . S
C4390 C4389 1.403 . S
C4390 C4394 1.385 . S
C4391 H4366 0.951 1_455 S
C4391 C4389 1.381 . S
C4391 C4392 1.366 . S
C4392 C4391 1.366 . S
C4392 C4393 1.414 . S
C4392 C4395 1.499 . S
C4393 H4367 0.950 . S
C4393 C4392 1.414 . S
C4393 C4394 1.374 . S
C4394 H4368 0.950 . S
C4394 C4390 1.385 . S
C4394 C4393 1.374 . S
C4395 C4392 1.499 . S
C4395 C4396 1.373 . S
C4395 C4397 1.389 . S
C4396 H4369 0.950 . S
C4396 C4382 1.377 . S
C4396 C4395 1.373 . S
C4397 C4381 1.377 . S
C4397 C4395 1.389 . S
C4397 C4398 1.524 . S
C4398 C4397 1.524 . S
C4398 C4399 1.397 . S
C4398 C4403 1.363 . S
C4399 H4370 0.950 . S
C4399 C4398 1.397 . S
C4399 C4400 1.334 . S
C4400 H4371 0.950 . S
C4400 C4399 1.334 . S
C4400 C4401 1.287 . S
C4401 C4400 1.287 . S
C4401 C4402 1.524 . S
C4401 H4404 0.999 . S
C4402 H4372 0.950 1_455 S
C4402 C4401 1.524 . S
C4402 C4403 1.415 . S
C4403 H4373 0.950 1_455 S
C4403 C4398 1.363 . S
C4403 C4402 1.415 . S
H4404 C4401 0.999 . S
H4405 C4386 0.913 . S
H4406 C4424 0.951 . S
H4407 C4426 0.951 . S
H4408 C4428 0.950 . S
H4409 C4429 0.950 . S
H4410 C4431 0.950 . S
H4411 C4434 0.950 . S
H4412 C4435 0.950 . S
H4413 C4437 0.950 . S
H4414 C4438 0.950 . S
H4415 C4439 0.951 . S
H4416 C4441 0.951 . S
H4417 C4443 0.950 . S
H4418 C4444 0.950 . S
H4419 C4446 0.950 . S
H4420 C4449 0.950 . S
H4421 C4450 0.950 . S
H4422 C4452 0.950 . S
H4423 C4453 0.950 . S
C4424 H4406 0.951 . S
C4424 C4425 1.366 . S
C4424 C4426 1.388 . S
C4425 C4424 1.366 . S
C4425 C4429 1.385 . S
C4426 H4407 0.951 . S
C4426 C4424 1.388 . S
C4426 C4427 1.366 . S
C4427 C4426 1.366 . S
C4427 C4428 1.414 . S
C4427 C4430 1.499 . S
C4428 H4408 0.950 . S
C4428 C4427 1.414 . S
C4428 C4429 1.374 . S
C4429 H4409 0.950 . S
C4429 C4425 1.385 . S
C4429 C4428 1.374 . S
C4430 C4427 1.499 . S
C4430 C4431 1.373 . S
C4430 C4432 1.389 . S
C4431 H4410 0.950 . S
C4431 C4430 1.373 . S
C4431 C4447 1.377 . S
C4432 C4430 1.389 . S
C4432 C4433 1.524 . S
C4432 C4446 1.377 . S
C4433 C4432 1.524 . S
C4433 C4434 1.397 . S
C4433 C4438 1.363 . S
C4434 H4411 0.950 . S
C4434 C4433 1.397 . S
C4434 C4435 1.334 . S
C4435 H4412 0.950 . S
C4435 C4434 1.334 . S
C4435 C4436 1.287 . S
C4436 C4435 1.287 . S
C4436 C4437 1.524 . S
C4436 H4455 0.913 . S
C4437 H4413 0.950 . S
C4437 C4436 1.524 . S
C4437 C4438 1.415 . S
C4438 H4414 0.950 . S
C4438 C4433 1.363 . S
C4438 C4437 1.415 . S
C4439 H4415 0.951 . S
C4439 C4440 1.366 . S
C4439 C4441 1.388 . S
C4440 C4439 1.366 . S
C4440 C4444 1.385 . S
C4441 H4416 0.951 . S
C4441 C4439 1.388 . S
C4441 C4442 1.366 . S
C4442 C4441 1.366 . S
C4442 C4443 1.414 . S
C4442 C4445 1.499 . S
C4443 H4417 0.950 . S
C4443 C4442 1.414 . S
C4443 C4444 1.374 . S
C4444 H4418 0.950 . S
C4444 C4440 1.385 . S
C4444 C4443 1.374 . S
C4445 C4442 1.499 . S
C4445 C4446 1.373 . S
C4445 C4447 1.389 . S
C4446 H4419 0.950 . S
C4446 C4432 1.377 . S
C4446 C4445 1.373 . S
C4447 C4431 1.377 . S
C4447 C4445 1.389 . S
C4447 C4448 1.524 . S
C4448 C4447 1.524 . S
C4448 C4449 1.397 . S
C4448 C4453 1.363 . S
C4449 H4420 0.950 . S
C4449 C4448 1.397 . S
C4449 C4450 1.334 . S
C4450 H4421 0.950 . S
C4450 C4449 1.334 . S
C4450 C4451 1.287 . S
C4451 C4450 1.287 . S
C4451 C4452 1.524 . S
C4451 H4454 0.999 . S
C4452 H4422 0.950 . S
C4452 C4451 1.524 . S
C4452 C4453 1.415 . S
C4453 H4423 0.950 . S
C4453 C4448 1.363 . S
C4453 C4452 1.415 . S
H4454 C4451 0.999 . S
H4455 C4436 0.913 . S
H4456 C4474 0.951 . S
H4457 C4476 0.951 . S
H4458 C4478 0.950 . S
H4459 C4479 0.950 . S
H4460 C4481 0.950 . S
H4461 C4484 0.950 . S
H4462 C4485 0.950 . S
H4463 C4487 0.950 . S
H4464 C4488 0.950 . S
H4465 C4489 0.951 1_554 S
H4466 C4491 0.951 . S
H4467 C4493 0.950 . S
H4468 C4494 0.950 . S
H4469 C4496 0.950 . S
H4470 C4499 0.950 . S
H4471 C4500 0.950 . S
H4472 C4502 0.950 . S
H4473 C4503 0.938 1_556 S
C4474 H4456 0.951 . S
C4474 C4475 1.366 . S
C4474 C4476 1.388 . S
C4475 C4474 1.366 . S
C4475 C4479 1.385 . S
C4476 H4457 0.951 . S
C4476 C4474 1.388 . S
C4476 C4477 1.366 . S
C4477 C4476 1.366 . S
C4477 C4478 1.414 . S
C4477 C4480 1.499 . S
C4478 H4458 0.950 . S
C4478 C4477 1.414 . S
C4478 C4479 1.374 . S
C4479 H4459 0.950 . S
C4479 C4475 1.385 . S
C4479 C4478 1.374 . S
C4480 C4477 1.499 . S
C4480 C4481 1.373 . S
C4480 C4482 1.389 . S
C4481 H4460 0.950 . S
C4481 C4480 1.373 . S
C4481 C4497 1.377 . S
C4482 C4480 1.389 . S
C4482 C4483 1.524 . S
C4482 C4496 1.377 . S
C4483 C4482 1.524 . S
C4483 C4484 1.397 . S
C4483 C4488 1.363 . S
C4484 H4461 0.950 . S
C4484 C4483 1.397 . S
C4484 C4485 1.334 . S
C4485 H4462 0.950 . S
C4485 C4484 1.334 . S
C4485 C4486 1.287 . S
C4486 C4485 1.287 . S
C4486 C4487 1.524 . S
C4486 H4505 0.913 . S
C4487 H4463 0.950 . S
C4487 C4486 1.524 . S
C4487 C4488 1.415 . S
C4488 H4464 0.950 . S
C4488 C4483 1.363 . S
C4488 C4487 1.415 . S
C4489 H4465 0.951 1_556 S
C4489 C4490 1.366 . S
C4489 C4491 1.388 . S
C4490 C4489 1.366 . S
C4490 C4494 1.385 . S
C4491 H4466 0.951 . S
C4491 C4489 1.388 . S
C4491 C4492 1.366 . S
C4492 C4491 1.366 . S
C4492 C4493 1.414 . S
C4492 C4495 1.499 . S
C4493 H4467 0.950 . S
C4493 C4492 1.414 . S
C4493 C4494 1.374 . S
C4494 H4468 0.950 . S
C4494 C4490 1.385 . S
C4494 C4493 1.374 . S
C4495 C4492 1.499 . S
C4495 C4496 1.373 . S
C4495 C4497 1.389 . S
C4496 H4469 0.950 . S
C4496 C4482 1.377 . S
C4496 C4495 1.373 . S
C4497 C4481 1.377 . S
C4497 C4495 1.389 . S
C4497 C4498 1.524 . S
C4498 C4497 1.524 . S
C4498 C4499 1.397 . S
C4498 C4503 1.346 1_556 S
C4499 H4470 0.950 . S
C4499 C4498 1.397 . S
C4499 C4500 1.334 1_556 S
C4500 H4471 0.950 . S
C4500 C4499 1.334 1_554 S
C4500 C4501 1.287 . S
C4501 C4500 1.287 . S
C4501 C4502 1.524 . S
C4501 H4504 0.999 . S
C4502 H4472 0.950 . S
C4502 C4501 1.524 . S
C4502 C4503 1.445 . S
C4503 H4473 0.938 1_554 S
C4503 C4498 1.346 1_554 S
C4503 C4502 1.445 . S
H4504 C4501 0.999 . S
H4505 C4486 0.913 . S
H4506 C4524 0.951 . S
H4507 C4526 0.951 . S
H4508 C4528 0.950 . S
H4509 C4529 0.950 . S
H4510 C4531 0.950 . S
H4511 C4534 0.950 . S
H4512 C4535 0.950 . S
H4513 C4537 0.950 . S
H4514 C4538 0.950 . S
H4515 C4539 0.951 . S
H4516 C4541 0.951 . S
H4517 C4543 0.950 . S
H4518 C4544 0.950 . S
H4519 C4546 0.950 . S
H4520 C4549 0.950 . S
H4521 C4550 0.950 . S
H4522 C4552 0.950 . S
H4523 C4553 0.950 . S
C4524 H4506 0.951 . S
C4524 C4525 1.366 . S
C4524 C4526 1.388 . S
C4525 C4524 1.366 . S
C4525 C4529 1.385 . S
C4526 H4507 0.951 . S
C4526 C4524 1.388 . S
C4526 C4527 1.366 . S
C4527 C4526 1.366 . S
C4527 C4528 1.414 . S
C4527 C4530 1.499 . S
C4528 H4508 0.950 . S
C4528 C4527 1.414 . S
C4528 C4529 1.374 . S
C4529 H4509 0.950 . S
C4529 C4525 1.385 . S
C4529 C4528 1.374 . S
C4530 C4527 1.499 . S
C4530 C4531 1.373 . S
C4530 C4532 1.389 . S
C4531 H4510 0.950 . S
C4531 C4530 1.373 . S
C4531 C4547 1.377 . S
C4532 C4530 1.389 . S
C4532 C4533 1.524 . S
C4532 C4546 1.377 . S
C4533 C4532 1.524 . S
C4533 C4534 1.397 . S
C4533 C4538 1.363 . S
C4534 H4511 0.950 . S
C4534 C4533 1.397 . S
C4534 C4535 1.334 . S
C4535 H4512 0.950 . S
C4535 C4534 1.334 . S
C4535 C4536 1.287 . S
C4536 C4535 1.287 . S
C4536 C4537 1.524 . S
C4536 H4555 0.913 . S
C4537 H4513 0.950 . S
C4537 C4536 1.524 . S
C4537 C4538 1.415 . S
C4538 H4514 0.950 . S
C4538 C4533 1.363 . S
C4538 C4537 1.415 . S
C4539 H4515 0.951 . S
C4539 C4540 1.366 . S
C4539 C4541 1.388 . S
C4540 C4539 1.366 . S
C4540 C4544 1.385 . S
C4541 H4516 0.951 . S
C4541 C4539 1.388 . S
C4541 C4542 1.366 . S
C4542 C4541 1.366 . S
C4542 C4543 1.414 . S
C4542 C4545 1.499 . S
C4543 H4517 0.950 . S
C4543 C4542 1.414 . S
C4543 C4544 1.374 . S
C4544 H4518 0.950 . S
C4544 C4540 1.385 . S
C4544 C4543 1.374 . S
C4545 C4542 1.499 . S
C4545 C4546 1.373 . S
C4545 C4547 1.389 . S
C4546 H4519 0.950 . S
C4546 C4532 1.377 . S
C4546 C4545 1.373 . S
C4547 C4531 1.377 . S
C4547 C4545 1.389 . S
C4547 C4548 1.524 . S
C4548 C4547 1.524 . S
C4548 C4549 1.397 . S
C4548 C4553 1.363 . S
C4549 H4520 0.950 . S
C4549 C4548 1.397 . S
C4549 C4550 1.334 . S
C4550 H4521 0.950 . S
C4550 C4549 1.334 . S
C4550 C4551 1.287 . S
C4551 C4550 1.287 . S
C4551 C4552 1.524 . S
C4551 H4554 0.999 . S
C4552 H4522 0.950 . S
C4552 C4551 1.524 . S
C4552 C4553 1.415 . S
C4553 H4523 0.950 . S
C4553 C4548 1.363 . S
C4553 C4552 1.415 . S
H4554 C4551 0.999 . S
H4555 C4536 0.913 . S
H4556 C4574 0.955 . S
H4557 C4576 0.946 . S
H4558 C4578 0.950 . S
H4559 C4579 0.950 . S
H4560 C4581 0.950 . S
H4561 C4584 0.950 . S
H4562 C4585 0.950 . S
H4563 C4587 0.950 . S
H4564 C4588 0.950 . S
H4565 C4589 0.951 . S
H4566 C4591 0.951 . S
H4567 C4593 0.950 1_655 S
H4568 C4594 0.950 1_655 S
H4569 C4596 0.950 . S
H4570 C4599 0.950 . S
H4571 C4600 0.950 . S
H4572 C4602 0.950 . S
H4573 C4603 0.950 . S
C4574 H4556 0.955 . S
C4574 C4575 1.366 . S
C4574 C4576 1.388 . S
C4575 C4574 1.366 . S
C4575 C4579 1.385 . S
C4576 H4557 0.946 . S
C4576 C4574 1.388 . S
C4576 C4577 1.366 . S
C4577 C4576 1.366 . S
C4577 C4578 1.414 . S
C4577 C4580 1.499 . S
C4578 H4558 0.950 . S
C4578 C4577 1.414 . S
C4578 C4579 1.374 . S
C4579 H4559 0.950 . S
C4579 C4575 1.385 . S
C4579 C4578 1.374 . S
C4580 C4577 1.499 . S
C4580 C4581 1.373 . S
C4580 C4582 1.389 . S
C4581 H4560 0.950 . S
C4581 C4580 1.373 . S
C4581 C4597 1.377 . S
C4582 C4580 1.389 . S
C4582 C4583 1.524 . S
C4582 C4596 1.377 . S
C4583 C4582 1.524 . S
C4583 C4584 1.397 . S
C4583 C4588 1.363 . S
C4584 H4561 0.950 . S
C4584 C4583 1.397 . S
C4584 C4585 1.334 . S
C4585 H4562 0.950 . S
C4585 C4584 1.334 . S
C4585 C4586 1.287 . S
C4586 C4585 1.287 . S
C4586 C4587 1.524 . S
C4586 H4605 0.913 . S
C4587 H4563 0.950 . S
C4587 C4586 1.524 . S
C4587 C4588 1.415 . S
C4588 H4564 0.950 . S
C4588 C4583 1.363 . S
C4588 C4587 1.415 . S
C4589 H4565 0.951 . S
C4589 C4590 1.366 . S
C4589 C4591 1.388 . S
C4590 C4589 1.366 . S
C4590 C4594 1.385 . S
C4591 H4566 0.951 . S
C4591 C4589 1.388 . S
C4591 C4592 1.366 . S
C4592 C4591 1.366 . S
C4592 C4593 1.414 . S
C4592 C4595 1.499 . S
C4593 H4567 0.950 1_455 S
C4593 C4592 1.414 . S
C4593 C4594 1.374 . S
C4594 H4568 0.950 1_455 S
C4594 C4590 1.385 . S
C4594 C4593 1.374 . S
C4595 C4592 1.499 . S
C4595 C4596 1.373 . S
C4595 C4597 1.389 . S
C4596 H4569 0.950 . S
C4596 C4582 1.377 . S
C4596 C4595 1.373 . S
C4597 C4581 1.377 . S
C4597 C4595 1.389 . S
C4597 C4598 1.524 . S
C4598 C4597 1.524 . S
C4598 C4599 1.397 1_455 S
C4598 C4603 1.363 . S
C4599 H4570 0.950 . S
C4599 C4598 1.397 1_655 S
C4599 C4600 1.334 . S
C4600 H4571 0.950 . S
C4600 C4599 1.334 . S
C4600 C4601 1.287 . S
C4601 C4600 1.287 . S
C4601 C4602 1.524 1_655 S
C4601 H4604 0.999 . S
C4602 H4572 0.950 . S
C4602 C4601 1.524 1_455 S
C4602 C4603 1.415 . S
C4603 H4573 0.950 . S
C4603 C4598 1.363 . S
C4603 C4602 1.415 . S
H4604 C4601 0.999 . S
H4605 C4586 0.913 . S
H4606 C4624 0.951 . S
H4607 C4626 0.951 . S
H4608 C4628 0.950 . S
H4609 C4629 0.950 . S
H4610 C4631 0.950 . S
H4611 C4634 0.950 . S
H4612 C4635 0.950 . S
H4613 C4637 0.950 . S
H4614 C4638 0.950 . S
H4615 C4639 0.951 . S
H4616 C4641 0.951 . S
H4617 C4643 0.950 . S
H4618 C4644 0.950 . S
H4619 C4646 0.950 . S
H4620 C4649 0.950 . S
H4621 C4650 0.950 . S
H4622 C4652 0.950 . S
H4623 C4653 0.950 . S
C4624 H4606 0.951 . S
C4624 C4625 1.366 . S
C4624 C4626 1.388 . S
C4625 C4624 1.366 . S
C4625 C4629 1.385 . S
C4626 H4607 0.951 . S
C4626 C4624 1.388 . S
C4626 C4627 1.366 . S
C4627 C4626 1.366 . S
C4627 C4628 1.414 . S
C4627 C4630 1.499 . S
C4628 H4608 0.950 . S
C4628 C4627 1.414 . S
C4628 C4629 1.374 . S
C4629 H4609 0.950 . S
C4629 C4625 1.385 . S
C4629 C4628 1.374 . S
C4630 C4627 1.499 . S
C4630 C4631 1.373 . S
C4630 C4632 1.389 . S
C4631 H4610 0.950 . S
C4631 C4630 1.373 . S
C4631 C4647 1.377 . S
C4632 C4630 1.389 . S
C4632 C4633 1.524 . S
C4632 C4646 1.377 . S
C4633 C4632 1.524 . S
C4633 C4634 1.397 . S
C4633 C4638 1.363 . S
C4634 H4611 0.950 . S
C4634 C4633 1.397 . S
C4634 C4635 1.334 . S
C4635 H4612 0.950 . S
C4635 C4634 1.334 . S
C4635 C4636 1.287 . S
C4636 C4635 1.287 . S
C4636 C4637 1.524 . S
C4636 H4655 0.913 . S
C4637 H4613 0.950 . S
C4637 C4636 1.524 . S
C4637 C4638 1.415 . S
C4638 H4614 0.950 . S
C4638 C4633 1.363 . S
C4638 C4637 1.415 . S
C4639 H4615 0.951 . S
C4639 C4640 1.366 . S
C4639 C4641 1.388 . S
C4640 C4639 1.366 . S
C4640 C4644 1.385 . S
C4641 H4616 0.951 . S
C4641 C4639 1.388 . S
C4641 C4642 1.366 . S
C4642 C4641 1.366 . S
C4642 C4643 1.414 . S
C4642 C4645 1.499 . S
C4643 H4617 0.950 . S
C4643 C4642 1.414 . S
C4643 C4644 1.374 . S
C4644 H4618 0.950 . S
C4644 C4640 1.385 . S
C4644 C4643 1.374 . S
C4645 C4642 1.499 . S
C4645 C4646 1.373 . S
C4645 C4647 1.389 . S
C4646 H4619 0.950 . S
C4646 C4632 1.377 . S
C4646 C4645 1.373 . S
C4647 C4631 1.377 . S
C4647 C4645 1.389 . S
C4647 C4648 1.524 . S
C4648 C4647 1.524 . S
C4648 C4649 1.397 . S
C4648 C4653 1.363 . S
C4649 H4620 0.950 . S
C4649 C4648 1.397 . S
C4649 C4650 1.334 . S
C4650 H4621 0.950 . S
C4650 C4649 1.334 . S
C4650 C4651 1.287 . S
C4651 C4650 1.287 . S
C4651 C4652 1.524 . S
C4651 H4654 0.999 . S
C4652 H4622 0.950 . S
C4652 C4651 1.524 . S
C4652 C4653 1.415 . S
C4653 H4623 0.950 . S
C4653 C4648 1.363 . S
C4653 C4652 1.415 . S
H4654 C4651 0.999 . S
H4655 C4636 0.913 . S
H4656 C4674 0.951 . S
H4657 C4676 0.951 . S
H4658 C4678 0.950 . S
H4659 C4679 0.950 . S
H4660 C4681 0.950 . S
H4661 C4684 0.950 . S
H4662 C4685 0.950 . S
H4663 C4687 0.950 . S
H4664 C4688 0.950 . S
H4665 C4689 0.951 . S
H4666 C4691 0.951 . S
H4667 C4693 0.950 . S
H4668 C4694 0.950 . S
H4669 C4696 0.950 . S
H4670 C4699 0.950 . S
H4671 C4700 0.950 . S
H4672 C4702 0.950 . S
H4673 C4703 0.950 . S
C4674 H4656 0.951 . S
C4674 C4675 1.366 . S
C4674 C4676 1.388 . S
C4675 C4674 1.366 . S
C4675 C4679 1.385 . S
C4676 H4657 0.951 . S
C4676 C4674 1.388 . S
C4676 C4677 1.366 . S
C4677 C4676 1.366 . S
C4677 C4678 1.414 . S
C4677 C4680 1.499 . S
C4678 H4658 0.950 . S
C4678 C4677 1.414 . S
C4678 C4679 1.374 . S
C4679 H4659 0.950 . S
C4679 C4675 1.385 . S
C4679 C4678 1.374 . S
C4680 C4677 1.499 . S
C4680 C4681 1.373 . S
C4680 C4682 1.389 . S
C4681 H4660 0.950 . S
C4681 C4680 1.373 . S
C4681 C4697 1.377 . S
C4682 C4680 1.389 . S
C4682 C4683 1.524 . S
C4682 C4696 1.377 . S
C4683 C4682 1.524 . S
C4683 C4684 1.397 . S
C4683 C4688 1.363 . S
C4684 H4661 0.950 . S
C4684 C4683 1.397 . S
C4684 C4685 1.334 . S
C4685 H4662 0.950 . S
C4685 C4684 1.334 . S
C4685 C4686 1.287 . S
C4686 C4685 1.287 . S
C4686 C4687 1.524 . S
C4686 H4705 0.913 . S
C4687 H4663 0.950 . S
C4687 C4686 1.524 . S
C4687 C4688 1.415 . S
C4688 H4664 0.950 . S
C4688 C4683 1.363 . S
C4688 C4687 1.415 . S
C4689 H4665 0.951 . S
C4689 C4690 1.366 . S
C4689 C4691 1.388 . S
C4690 C4689 1.366 . S
C4690 C4694 1.385 . S
C4691 H4666 0.951 . S
C4691 C4689 1.388 . S
C4691 C4692 1.366 . S
C4692 C4691 1.366 . S
C4692 C4693 1.414 . S
C4692 C4695 1.499 . S
C4693 H4667 0.950 . S
C4693 C4692 1.414 . S
C4693 C4694 1.374 . S
C4694 H4668 0.950 . S
C4694 C4690 1.385 . S
C4694 C4693 1.374 . S
C4695 C4692 1.499 . S
C4695 C4696 1.373 . S
C4695 C4697 1.389 . S
C4696 H4669 0.950 . S
C4696 C4682 1.377 . S
C4696 C4695 1.373 . S
C4697 C4681 1.377 . S
C4697 C4695 1.389 . S
C4697 C4698 1.524 . S
C4698 C4697 1.524 . S
C4698 C4699 1.397 . S
C4698 C4703 1.363 . S
C4699 H4670 0.950 . S
C4699 C4698 1.397 . S
C4699 C4700 1.334 . S
C4700 H4671 0.950 . S
C4700 C4699 1.334 . S
C4700 C4701 1.287 . S
C4701 C4700 1.287 . S
C4701 C4702 1.524 . S
C4701 H4704 0.999 . S
C4702 H4672 0.950 . S
C4702 C4701 1.524 . S
C4702 C4703 1.415 . S
C4703 H4673 0.950 . S
C4703 C4698 1.363 . S
C4703 C4702 1.415 . S
H4704 C4701 0.999 . S
H4705 C4686 0.913 . S
H4706 C4724 0.951 . S
H4707 C4726 0.951 . S
H4708 C4728 0.950 . S
H4709 C4729 0.950 . S
H4710 C4731 0.950 . S
H4711 C4734 0.950 . S
H4712 C4735 0.950 . S
H4713 C4737 0.950 . S
H4714 C4738 0.950 . S
H4715 C4739 0.951 . S
H4716 C4741 0.951 . S
H4717 C4743 0.950 . S
H4718 C4744 0.950 . S
H4719 C4746 0.950 . S
H4720 C4749 0.950 . S
H4721 C4750 0.950 . S
H4722 C4752 0.950 . S
H4723 C4753 0.950 . S
C4724 H4706 0.951 . S
C4724 C4725 1.366 . S
C4724 C4726 1.388 . S
C4725 C4724 1.366 . S
C4725 C4729 1.385 . S
C4726 H4707 0.951 . S
C4726 C4724 1.388 . S
C4726 C4727 1.366 . S
C4727 C4726 1.366 . S
C4727 C4728 1.414 . S
C4727 C4730 1.499 . S
C4728 H4708 0.950 . S
C4728 C4727 1.414 . S
C4728 C4729 1.374 . S
C4729 H4709 0.950 . S
C4729 C4725 1.385 . S
C4729 C4728 1.374 . S
C4730 C4727 1.499 . S
C4730 C4731 1.373 . S
C4730 C4732 1.389 . S
C4731 H4710 0.950 . S
C4731 C4730 1.373 . S
C4731 C4747 1.377 . S
C4732 C4730 1.389 . S
C4732 C4733 1.524 . S
C4732 C4746 1.377 . S
C4733 C4732 1.524 . S
C4733 C4734 1.397 . S
C4733 C4738 1.363 . S
C4734 H4711 0.950 . S
C4734 C4733 1.397 . S
C4734 C4735 1.334 . S
C4735 H4712 0.950 . S
C4735 C4734 1.334 . S
C4735 C4736 1.287 . S
C4736 C4735 1.287 . S
C4736 C4737 1.524 . S
C4736 H4755 0.913 . S
C4737 H4713 0.950 . S
C4737 C4736 1.524 . S
C4737 C4738 1.415 . S
C4738 H4714 0.950 . S
C4738 C4733 1.363 . S
C4738 C4737 1.415 . S
C4739 H4715 0.951 . S
C4739 C4740 1.366 . S
C4739 C4741 1.388 . S
C4740 C4739 1.366 . S
C4740 C4744 1.385 . S
C4741 H4716 0.951 . S
C4741 C4739 1.388 . S
C4741 C4742 1.366 . S
C4742 C4741 1.366 . S
C4742 C4743 1.414 . S
C4742 C4745 1.499 . S
C4743 H4717 0.950 . S
C4743 C4742 1.414 . S
C4743 C4744 1.374 . S
C4744 H4718 0.950 . S
C4744 C4740 1.385 . S
C4744 C4743 1.374 . S
C4745 C4742 1.499 . S
C4745 C4746 1.373 . S
C4745 C4747 1.389 . S
C4746 H4719 0.950 . S
C4746 C4732 1.377 . S
C4746 C4745 1.373 . S
C4747 C4731 1.377 . S
C4747 C4745 1.389 . S
C4747 C4748 1.524 . S
C4748 C4747 1.524 . S
C4748 C4749 1.397 . S
C4748 C4753 1.363 . S
C4749 H4720 0.950 . S
C4749 C4748 1.397 . S
C4749 C4750 1.334 . S
C4750 H4721 0.950 . S
C4750 C4749 1.334 . S
C4750 C4751 1.287 . S
C4751 C4750 1.287 . S
C4751 C4752 1.524 . S
C4751 H4754 0.999 . S
C4752 H4722 0.950 . S
C4752 C4751 1.524 . S
C4752 C4753 1.415 . S
C4753 H4723 0.950 . S
C4753 C4748 1.363 . S
C4753 C4752 1.415 . S
H4754 C4751 0.999 . S
H4755 C4736 0.913 . S
H4756 C4774 0.951 . S
H4757 C4776 0.951 . S
H4758 C4778 0.950 . S
H4759 C4779 0.950 . S
H4760 C4781 0.950 . S
H4761 C4784 0.950 . S
H4762 C4785 0.950 . S
H4763 C4787 0.950 . S
H4764 C4788 0.959 . S
H4765 C4789 0.951 . S
H4766 C4791 0.951 . S
H4767 C4793 0.950 . S
H4768 C4794 0.950 . S
H4769 C4796 0.950 . S
H4770 C4799 0.950 . S
H4771 C4800 0.950 . S
H4772 C4802 0.950 . S
H4773 C4803 0.950 . S
C4774 H4756 0.951 . S
C4774 C4775 1.366 . S
C4774 C4776 1.388 . S
C4775 C4774 1.366 . S
C4775 C4779 1.385 . S
C4776 H4757 0.951 . S
C4776 C4774 1.388 . S
C4776 C4777 1.366 . S
C4777 C4776 1.366 . S
C4777 C4778 1.414 . S
C4777 C4780 1.499 . S
C4778 H4758 0.950 . S
C4778 C4777 1.414 . S
C4778 C4779 1.374 . S
C4779 H4759 0.950 . S
C4779 C4775 1.385 . S
C4779 C4778 1.374 . S
C4780 C4777 1.499 . S
C4780 C4781 1.373 . S
C4780 C4782 1.389 . S
C4781 H4760 0.950 . S
C4781 C4780 1.373 . S
C4781 C4797 1.377 . S
C4782 C4780 1.389 . S
C4782 C4783 1.524 . S
C4782 C4796 1.377 . S
C4783 C4782 1.524 . S
C4783 C4784 1.397 . S
C4783 C4788 1.363 . S
C4784 H4761 0.950 . S
C4784 C4783 1.397 . S
C4784 C4785 1.334 . S
C4785 H4762 0.950 . S
C4785 C4784 1.334 . S
C4785 C4786 1.287 . S
C4786 C4785 1.287 . S
C4786 C4787 1.524 1_655 S
C4786 H4805 0.913 1_655 S
C4787 H4763 0.950 . S
C4787 C4786 1.524 1_455 S
C4787 C4788 1.415 1_455 S
C4788 H4764 0.959 . S
C4788 C4783 1.363 . S
C4788 C4787 1.415 1_655 S
C4789 H4765 0.951 . S
C4789 C4790 1.366 . S
C4789 C4791 1.388 . S
C4790 C4789 1.366 . S
C4790 C4794 1.385 1_655 S
C4791 H4766 0.951 . S
C4791 C4789 1.388 . S
C4791 C4792 1.366 . S
C4792 C4791 1.366 . S
C4792 C4793 1.414 . S
C4792 C4795 1.499 . S
C4793 H4767 0.950 . S
C4793 C4792 1.414 . S
C4793 C4794 1.374 1_655 S
C4794 H4768 0.950 . S
C4794 C4790 1.385 1_455 S
C4794 C4793 1.374 1_455 S
C4795 C4792 1.499 . S
C4795 C4796 1.373 . S
C4795 C4797 1.389 . S
C4796 H4769 0.950 . S
C4796 C4782 1.377 . S
C4796 C4795 1.373 . S
C4797 C4781 1.377 . S
C4797 C4795 1.389 . S
C4797 C4798 1.524 . S
C4798 C4797 1.524 . S
C4798 C4799 1.397 . S
C4798 C4803 1.363 . S
C4799 H4770 0.950 . S
C4799 C4798 1.397 . S
C4799 C4800 1.334 . S
C4800 H4771 0.950 . S
C4800 C4799 1.334 . S
C4800 C4801 1.287 . S
C4801 C4800 1.287 . S
C4801 C4802 1.524 . S
C4801 H4804 0.999 . S
C4802 H4772 0.950 . S
C4802 C4801 1.524 . S
C4802 C4803 1.415 . S
C4803 H4773 0.950 . S
C4803 C4798 1.363 . S
C4803 C4802 1.415 . S
H4804 C4801 0.999 . S
H4805 C4786 0.913 1_455 S
H4806 C4824 0.951 . S
H4807 C4826 0.951 . S
H4808 C4828 0.950 . S
H4809 C4829 0.950 . S
H4810 C4831 0.950 . S
H4811 C4834 0.950 . S
H4812 C4835 0.950 . S
H4813 C4837 0.950 . S
H4814 C4838 0.950 . S
H4815 C4839 0.951 . S
H4816 C4841 0.951 . S
H4817 C4843 0.950 . S
H4818 C4844 0.950 . S
H4819 C4846 0.950 . S
H4820 C4849 0.950 . S
H4821 C4850 0.950 . S
H4822 C4852 0.950 . S
H4823 C4853 0.950 . S
C4824 H4806 0.951 . S
C4824 C4825 1.366 . S
C4824 C4826 1.388 . S
C4825 C4824 1.366 . S
C4825 C4829 1.385 . S
C4826 H4807 0.951 . S
C4826 C4824 1.388 . S
C4826 C4827 1.366 . S
C4827 C4826 1.366 . S
C4827 C4828 1.414 . S
C4827 C4830 1.499 . S
C4828 H4808 0.950 . S
C4828 C4827 1.414 . S
C4828 C4829 1.374 . S
C4829 H4809 0.950 . S
C4829 C4825 1.385 . S
C4829 C4828 1.374 . S
C4830 C4827 1.499 . S
C4830 C4831 1.373 . S
C4830 C4832 1.389 . S
C4831 H4810 0.950 . S
C4831 C4830 1.373 . S
C4831 C4847 1.377 . S
C4832 C4830 1.389 . S
C4832 C4833 1.524 . S
C4832 C4846 1.377 . S
C4833 C4832 1.524 . S
C4833 C4834 1.397 . S
C4833 C4838 1.363 . S
C4834 H4811 0.950 . S
C4834 C4833 1.397 . S
C4834 C4835 1.334 . S
C4835 H4812 0.950 . S
C4835 C4834 1.334 . S
C4835 C4836 1.287 . S
C4836 C4835 1.287 . S
C4836 C4837 1.524 . S
C4836 H4855 0.913 . S
C4837 H4813 0.950 . S
C4837 C4836 1.524 . S
C4837 C4838 1.415 . S
C4838 H4814 0.950 . S
C4838 C4833 1.363 . S
C4838 C4837 1.415 . S
C4839 H4815 0.951 . S
C4839 C4840 1.366 . S
C4839 C4841 1.388 . S
C4840 C4839 1.366 . S
C4840 C4844 1.385 . S
C4841 H4816 0.951 . S
C4841 C4839 1.388 . S
C4841 C4842 1.366 . S
C4842 C4841 1.366 . S
C4842 C4843 1.414 . S
C4842 C4845 1.499 . S
C4843 H4817 0.950 . S
C4843 C4842 1.414 . S
C4843 C4844 1.374 . S
C4844 H4818 0.950 . S
C4844 C4840 1.385 . S
C4844 C4843 1.374 . S
C4845 C4842 1.499 . S
C4845 C4846 1.373 . S
C4845 C4847 1.389 . S
C4846 H4819 0.950 . S
C4846 C4832 1.377 . S
C4846 C4845 1.373 . S
C4847 C4831 1.377 . S
C4847 C4845 1.389 . S
C4847 C4848 1.524 . S
C4848 C4847 1.524 . S
C4848 C4849 1.397 . S
C4848 C4853 1.363 . S
C4849 H4820 0.950 . S
C4849 C4848 1.397 . S
C4849 C4850 1.334 . S
C4850 H4821 0.950 . S
C4850 C4849 1.334 . S
C4850 C4851 1.287 . S
C4851 C4850 1.287 . S
C4851 C4852 1.524 . S
C4851 H4854 0.999 . S
C4852 H4822 0.950 . S
C4852 C4851 1.524 . S
C4852 C4853 1.415 . S
C4853 H4823 0.950 . S
C4853 C4848 1.363 . S
C4853 C4852 1.415 . S
H4854 C4851 0.999 . S
H4855 C4836 0.913 . S
H4856 C4874 0.951 . S
H4857 C4876 0.951 . S
H4858 C4878 0.950 . S
H4859 C4879 0.950 . S
H4860 C4881 0.950 . S
H4861 C4884 0.950 . S
H4862 C4885 0.950 . S
H4863 C4887 0.950 . S
H4864 C4888 0.950 . S
H4865 C4889 0.951 . S
H4866 C4891 0.951 . S
H4867 C4893 0.950 . S
H4868 C4894 0.950 . S
H4869 C4896 0.950 . S
H4870 C4899 0.950 . S
H4871 C4900 0.950 . S
H4872 C4902 0.950 . S
H4873 C4903 0.950 . S
C4874 H4856 0.951 . S
C4874 C4875 1.366 . S
C4874 C4876 1.388 . S
C4875 C4874 1.366 . S
C4875 C4879 1.385 . S
C4876 H4857 0.951 . S
C4876 C4874 1.388 . S
C4876 C4877 1.366 . S
C4877 C4876 1.366 . S
C4877 C4878 1.414 . S
C4877 C4880 1.499 . S
C4878 H4858 0.950 . S
C4878 C4877 1.414 . S
C4878 C4879 1.374 . S
C4879 H4859 0.950 . S
C4879 C4875 1.385 . S
C4879 C4878 1.374 . S
C4880 C4877 1.499 . S
C4880 C4881 1.373 . S
C4880 C4882 1.389 . S
C4881 H4860 0.950 . S
C4881 C4880 1.373 . S
C4881 C4897 1.377 . S
C4882 C4880 1.389 . S
C4882 C4883 1.524 . S
C4882 C4896 1.377 . S
C4883 C4882 1.524 . S
C4883 C4884 1.397 . S
C4883 C4888 1.363 . S
C4884 H4861 0.950 . S
C4884 C4883 1.397 . S
C4884 C4885 1.334 . S
C4885 H4862 0.950 . S
C4885 C4884 1.334 . S
C4885 C4886 1.287 . S
C4886 C4885 1.287 . S
C4886 C4887 1.524 . S
C4886 H4905 0.913 . S
C4887 H4863 0.950 . S
C4887 C4886 1.524 . S
C4887 C4888 1.415 . S
C4888 H4864 0.950 . S
C4888 C4883 1.363 . S
C4888 C4887 1.415 . S
C4889 H4865 0.951 . S
C4889 C4890 1.366 . S
C4889 C4891 1.388 . S
C4890 C4889 1.366 . S
C4890 C4894 1.385 . S
C4891 H4866 0.951 . S
C4891 C4889 1.388 . S
C4891 C4892 1.366 . S
C4892 C4891 1.366 . S
C4892 C4893 1.414 . S
C4892 C4895 1.499 . S
C4893 H4867 0.950 . S
C4893 C4892 1.414 . S
C4893 C4894 1.374 . S
C4894 H4868 0.950 . S
C4894 C4890 1.385 . S
C4894 C4893 1.374 . S
C4895 C4892 1.499 . S
C4895 C4896 1.373 . S
C4895 C4897 1.389 . S
C4896 H4869 0.950 . S
C4896 C4882 1.377 . S
C4896 C4895 1.373 . S
C4897 C4881 1.377 . S
C4897 C4895 1.389 . S
C4897 C4898 1.524 . S
C4898 C4897 1.524 . S
C4898 C4899 1.397 . S
C4898 C4903 1.363 . S
C4899 H4870 0.950 . S
C4899 C4898 1.397 . S
C4899 C4900 1.334 . S
C4900 H4871 0.950 . S
C4900 C4899 1.334 . S
C4900 C4901 1.287 . S
C4901 C4900 1.287 . S
C4901 C4902 1.524 . S
C4901 H4904 0.999 . S
C4902 H4872 0.950 . S
C4902 C4901 1.524 . S
C4902 C4903 1.415 . S
C4903 H4873 0.950 . S
C4903 C4898 1.363 . S
C4903 C4902 1.415 . S
H4904 C4901 0.999 . S
H4905 C4886 0.913 . S
H4906 C4924 0.951 . S
H4907 C4926 0.951 . S
H4908 C4928 0.950 . S
H4909 C4929 0.950 . S
H4910 C4931 0.950 . S
H4911 C4934 0.950 . S
H4912 C4935 0.950 . S
H4913 C4937 0.950 . S
H4914 C4938 0.950 . S
H4915 C4939 0.951 . S
H4916 C4941 0.951 . S
H4917 C4943 0.950 . S
H4918 C4944 0.950 . S
H4919 C4946 0.950 . S
H4920 C4949 0.950 . S
H4921 C4950 0.950 . S
H4922 C4952 0.950 . S
H4923 C4953 0.950 . S
C4924 H4906 0.951 . S
C4924 C4925 1.366 . S
C4924 C4926 1.388 . S
C4925 C4924 1.366 . S
C4925 C4929 1.385 . S
C4926 H4907 0.951 . S
C4926 C4924 1.388 . S
C4926 C4927 1.366 . S
C4927 C4926 1.366 . S
C4927 C4928 1.414 . S
C4927 C4930 1.499 . S
C4928 H4908 0.950 . S
C4928 C4927 1.414 . S
C4928 C4929 1.374 . S
C4929 H4909 0.950 . S
C4929 C4925 1.385 . S
C4929 C4928 1.374 . S
C4930 C4927 1.499 . S
C4930 C4931 1.373 . S
C4930 C4932 1.389 . S
C4931 H4910 0.950 . S
C4931 C4930 1.373 . S
C4931 C4947 1.377 . S
C4932 C4930 1.389 . S
C4932 C4933 1.524 . S
C4932 C4946 1.377 . S
C4933 C4932 1.524 . S
C4933 C4934 1.397 . S
C4933 C4938 1.363 . S
C4934 H4911 0.950 . S
C4934 C4933 1.397 . S
C4934 C4935 1.334 . S
C4935 H4912 0.950 . S
C4935 C4934 1.334 . S
C4935 C4936 1.287 . S
C4936 C4935 1.287 . S
C4936 C4937 1.524 . S
C4936 H4955 0.913 . S
C4937 H4913 0.950 . S
C4937 C4936 1.524 . S
C4937 C4938 1.415 . S
C4938 H4914 0.950 . S
C4938 C4933 1.363 . S
C4938 C4937 1.415 . S
C4939 H4915 0.951 . S
C4939 C4940 1.366 . S
C4939 C4941 1.388 . S
C4940 C4939 1.366 . S
C4940 C4944 1.385 . S
C4941 H4916 0.951 . S
C4941 C4939 1.388 . S
C4941 C4942 1.366 . S
C4942 C4941 1.366 . S
C4942 C4943 1.414 . S
C4942 C4945 1.499 . S
C4943 H4917 0.950 . S
C4943 C4942 1.414 . S
C4943 C4944 1.374 . S
C4944 H4918 0.950 . S
C4944 C4940 1.385 . S
C4944 C4943 1.374 . S
C4945 C4942 1.499 . S
C4945 C4946 1.373 . S
C4945 C4947 1.389 . S
C4946 H4919 0.950 . S
C4946 C4932 1.377 . S
C4946 C4945 1.373 . S
C4947 C4931 1.377 . S
C4947 C4945 1.389 . S
C4947 C4948 1.524 . S
C4948 C4947 1.524 . S
C4948 C4949 1.397 . S
C4948 C4953 1.363 . S
C4949 H4920 0.950 . S
C4949 C4948 1.397 . S
C4949 C4950 1.334 . S
C4950 H4921 0.950 . S
C4950 C4949 1.334 . S
C4950 C4951 1.287 . S
C4951 C4950 1.287 . S
C4951 C4952 1.524 . S
C4951 H4954 0.999 . S
C4952 H4922 0.950 . S
C4952 C4951 1.524 . S
C4952 C4953 1.415 . S
C4953 H4923 0.950 . S
C4953 C4948 1.363 . S
C4953 C4952 1.415 . S
H4954 C4951 0.999 . S
H4955 C4936 0.913 . S
H4956 C4974 0.951 . S
H4957 C4976 0.951 . S
H4958 C4978 0.950 . S
H4959 C4979 0.950 . S
H4960 C4981 0.950 . S
H4961 C4984 0.950 . S
H4962 C4985 0.950 . S
H4963 C4987 0.950 . S
H4964 C4988 0.950 . S
H4965 C4989 0.951 . S
H4966 C4991 0.951 . S
H4967 C4993 0.950 . S
H4968 C4994 0.950 . S
H4969 C4996 0.950 . S
H4970 C4999 0.950 . S
H4971 C5000 0.950 . S
H4972 C5002 0.950 . S
H4973 C5003 0.950 . S
C4974 H4956 0.951 . S
C4974 C4975 1.366 . S
C4974 C4976 1.388 . S
C4975 C4974 1.366 . S
C4975 C4979 1.385 . S
C4976 H4957 0.951 . S
C4976 C4974 1.388 . S
C4976 C4977 1.366 . S
C4977 C4976 1.366 . S
C4977 C4978 1.414 . S
C4977 C4980 1.499 . S
C4978 H4958 0.950 . S
C4978 C4977 1.414 . S
C4978 C4979 1.374 . S
C4979 H4959 0.950 . S
C4979 C4975 1.385 . S
C4979 C4978 1.374 . S
C4980 C4977 1.499 . S
C4980 C4981 1.373 . S
C4980 C4982 1.389 . S
C4981 H4960 0.950 . S
C4981 C4980 1.373 . S
C4981 C4997 1.377 . S
C4982 C4980 1.389 . S
C4982 C4983 1.524 . S
C4982 C4996 1.377 . S
C4983 C4982 1.524 . S
C4983 C4984 1.397 . S
C4983 C4988 1.363 . S
C4984 H4961 0.950 . S
C4984 C4983 1.397 . S
C4984 C4985 1.334 . S
C4985 H4962 0.950 . S
C4985 C4984 1.334 . S
C4985 C4986 1.287 . S
C4986 C4985 1.287 . S
C4986 C4987 1.524 . S
C4986 H5005 0.913 . S
C4987 H4963 0.950 . S
C4987 C4986 1.524 . S
C4987 C4988 1.415 . S
C4988 H4964 0.950 . S
C4988 C4983 1.363 . S
C4988 C4987 1.415 . S
C4989 H4965 0.951 . S
C4989 C4990 1.366 . S
C4989 C4991 1.388 . S
C4990 C4989 1.366 . S
C4990 C4994 1.385 . S
C4991 H4966 0.951 . S
C4991 C4989 1.388 . S
C4991 C4992 1.366 . S
C4992 C4991 1.366 . S
C4992 C4993 1.414 . S
C4992 C4995 1.499 . S
C4993 H4967 0.950 . S
C4993 C4992 1.414 . S
C4993 C4994 1.374 . S
C4994 H4968 0.950 . S
C4994 C4990 1.385 . S
C4994 C4993 1.374 . S
C4995 C4992 1.499 . S
C4995 C4996 1.373 . S
C4995 C4997 1.389 . S
C4996 H4969 0.950 . S
C4996 C4982 1.377 . S
C4996 C4995 1.373 . S
C4997 C4981 1.377 . S
C4997 C4995 1.389 . S
C4997 C4998 1.524 . S
C4998 C4997 1.524 . S
C4998 C4999 1.397 . S
C4998 C5003 1.363 . S
C4999 H4970 0.950 . S
C4999 C4998 1.397 . S
C4999 C5000 1.334 . S
C5000 H4971 0.950 . S
C5000 C4999 1.334 . S
C5000 C5001 1.287 . S
C5001 C5000 1.287 . S
C5001 C5002 1.524 . S
C5001 H5004 0.999 . S
C5002 H4972 0.950 . S
C5002 C5001 1.524 . S
C5002 C5003 1.415 . S
C5003 H4973 0.950 . S
C5003 C4998 1.363 . S
C5003 C5002 1.415 . S
H5004 C5001 0.999 . S
H5005 C4986 0.913 . S
H5006 C5024 0.951 . S
H5007 C5026 0.951 . S
H5008 C5028 0.950 . S
H5009 C5029 0.950 . S
H5010 C5031 0.950 . S
H5011 C5034 0.950 . S
H5012 C5035 0.950 . S
H5013 C5037 0.950 . S
H5014 C5038 0.950 . S
H5015 C5039 0.951 . S
H5016 C5041 0.951 . S
H5017 C5043 0.950 . S
H5018 C5044 0.950 . S
H5019 C5046 0.950 . S
H5020 C5049 0.950 . S
H5021 C5050 0.950 . S
H5022 C5052 0.950 . S
H5023 C5053 0.950 . S
C5024 H5006 0.951 . S
C5024 C5025 1.366 . S
C5024 C5026 1.388 . S
C5025 C5024 1.366 . S
C5025 C5029 1.385 . S
C5026 H5007 0.951 . S
C5026 C5024 1.388 . S
C5026 C5027 1.366 . S
C5027 C5026 1.366 . S
C5027 C5028 1.414 . S
C5027 C5030 1.499 . S
C5028 H5008 0.950 . S
C5028 C5027 1.414 . S
C5028 C5029 1.374 . S
C5029 H5009 0.950 . S
C5029 C5025 1.385 . S
C5029 C5028 1.374 . S
C5030 C5027 1.499 . S
C5030 C5031 1.373 . S
C5030 C5032 1.389 . S
C5031 H5010 0.950 . S
C5031 C5030 1.373 . S
C5031 C5047 1.377 . S
C5032 C5030 1.389 . S
C5032 C5033 1.524 . S
C5032 C5046 1.377 . S
C5033 C5032 1.524 . S
C5033 C5034 1.397 . S
C5033 C5038 1.363 . S
C5034 H5011 0.950 . S
C5034 C5033 1.397 . S
C5034 C5035 1.334 . S
C5035 H5012 0.950 . S
C5035 C5034 1.334 . S
C5035 C5036 1.287 . S
C5036 C5035 1.287 . S
C5036 C5037 1.524 . S
C5036 H5055 0.913 . S
C5037 H5013 0.950 . S
C5037 C5036 1.524 . S
C5037 C5038 1.415 . S
C5038 H5014 0.950 . S
C5038 C5033 1.363 . S
C5038 C5037 1.415 . S
C5039 H5015 0.951 . S
C5039 C5040 1.366 . S
C5039 C5041 1.388 . S
C5040 C5039 1.366 . S
C5040 C5044 1.385 . S
C5041 H5016 0.951 . S
C5041 C5039 1.388 . S
C5041 C5042 1.366 . S
C5042 C5041 1.366 . S
C5042 C5043 1.414 . S
C5042 C5045 1.499 . S
C5043 H5017 0.950 . S
C5043 C5042 1.414 . S
C5043 C5044 1.374 . S
C5044 H5018 0.950 . S
C5044 C5040 1.385 . S
C5044 C5043 1.374 . S
C5045 C5042 1.499 . S
C5045 C5046 1.373 . S
C5045 C5047 1.389 . S
C5046 H5019 0.950 . S
C5046 C5032 1.377 . S
C5046 C5045 1.373 . S
C5047 C5031 1.377 . S
C5047 C5045 1.389 . S
C5047 C5048 1.524 . S
C5048 C5047 1.524 . S
C5048 C5049 1.397 . S
C5048 C5053 1.363 . S
C5049 H5020 0.950 . S
C5049 C5048 1.397 . S
C5049 C5050 1.334 . S
C5050 H5021 0.950 . S
C5050 C5049 1.334 . S
C5050 C5051 1.287 . S
C5051 C5050 1.287 . S
C5051 C5052 1.524 . S
C5051 H5054 0.999 . S
C5052 H5022 0.950 . S
C5052 C5051 1.524 . S
C5052 C5053 1.415 . S
C5053 H5023 0.950 . S
C5053 C5048 1.363 . S
C5053 C5052 1.415 . S
H5054 C5051 0.999 . S
H5055 C5036 0.913 . S
H5056 C5074 0.951 . S
H5057 C5076 0.951 . S
H5058 C5078 0.950 . S
H5059 C5079 0.950 . S
H5060 C5081 0.950 . S
H5061 C5084 0.950 . S
H5062 C5085 0.950 . S
H5063 C5087 0.950 . S
H5064 C5088 0.950 . S
H5065 C5089 0.951 . S
H5066 C5091 0.951 . S
H5067 C5093 0.950 . S
H5068 C5094 0.950 . S
H5069 C5096 0.950 . S
H5070 C5099 0.950 . S
H5071 C5100 0.950 . S
H5072 C5102 0.950 . S
H5073 C5103 0.950 . S
C5074 H5056 0.951 . S
C5074 C5075 1.366 . S
C5074 C5076 1.388 . S
C5075 C5074 1.366 . S
C5075 C5079 1.385 . S
C5076 H5057 0.951 . S
C5076 C5074 1.388 . S
C5076 C5077 1.366 . S
C5077 C5076 1.366 . S
C5077 C5078 1.414 . S
C5077 C5080 1.499 . S
C5078 H5058 0.950 . S
C5078 C5077 1.414 . S
C5078 C5079 1.374 . S
C5079 H5059 0.950 . S
C5079 C5075 1.385 . S
C5079 C5078 1.374 . S
C5080 C5077 1.499 . S
C5080 C5081 1.373 . S
C5080 C5082 1.389 . S
C5081 H5060 0.950 . S
C5081 C5080 1.373 . S
C5081 C5097 1.377 . S
C5082 C5080 1.389 . S
C5082 C5083 1.524 . S
C5082 C5096 1.377 . S
C5083 C5082 1.524 . S
C5083 C5084 1.397 . S
C5083 C5088 1.363 . S
C5084 H5061 0.950 . S
C5084 C5083 1.397 . S
C5084 C5085 1.334 . S
C5085 H5062 0.950 . S
C5085 C5084 1.334 . S
C5085 C5086 1.287 . S
C5086 C5085 1.287 . S
C5086 C5087 1.524 . S
C5086 H5105 0.913 . S
C5087 H5063 0.950 . S
C5087 C5086 1.524 . S
C5087 C5088 1.415 . S
C5088 H5064 0.950 . S
C5088 C5083 1.363 . S
C5088 C5087 1.415 . S
C5089 H5065 0.951 . S
C5089 C5090 1.366 . S
C5089 C5091 1.388 . S
C5090 C5089 1.366 . S
C5090 C5094 1.385 . S
C5091 H5066 0.951 . S
C5091 C5089 1.388 . S
C5091 C5092 1.366 . S
C5092 C5091 1.366 . S
C5092 C5093 1.414 . S
C5092 C5095 1.499 . S
C5093 H5067 0.950 . S
C5093 C5092 1.414 . S
C5093 C5094 1.374 . S
C5094 H5068 0.950 . S
C5094 C5090 1.385 . S
C5094 C5093 1.374 . S
C5095 C5092 1.499 . S
C5095 C5096 1.373 . S
C5095 C5097 1.389 . S
C5096 H5069 0.950 . S
C5096 C5082 1.377 . S
C5096 C5095 1.373 . S
C5097 C5081 1.377 . S
C5097 C5095 1.389 . S
C5097 C5098 1.524 . S
C5098 C5097 1.524 . S
C5098 C5099 1.397 . S
C5098 C5103 1.363 . S
C5099 H5070 0.950 . S
C5099 C5098 1.397 . S
C5099 C5100 1.334 . S
C5100 H5071 0.950 . S
C5100 C5099 1.334 . S
C5100 C5101 1.287 . S
C5101 C5100 1.287 . S
C5101 C5102 1.524 . S
C5101 H5104 0.999 . S
C5102 H5072 0.950 . S
C5102 C5101 1.524 . S
C5102 C5103 1.415 . S
C5103 H5073 0.950 . S
C5103 C5098 1.363 . S
C5103 C5102 1.415 . S
H5104 C5101 0.999 . S
H5105 C5086 0.913 . S
H5106 C5124 0.951 . S
H5107 C5126 0.951 . S
H5108 C5128 0.950 . S
H5109 C5129 0.950 . S
H5110 C5131 0.950 . S
H5111 C5134 0.950 . S
H5112 C5135 0.950 . S
H5113 C5137 0.950 . S
H5114 C5138 0.950 . S
H5115 C5139 0.951 . S
H5116 C5141 0.951 . S
H5117 C5143 0.950 . S
H5118 C5144 0.950 . S
H5119 C5146 0.950 . S
H5120 C5149 0.950 . S
H5121 C5150 0.950 . S
H5122 C5152 0.950 . S
H5123 C5153 0.950 . S
C5124 H5106 0.951 . S
C5124 C5125 1.366 . S
C5124 C5126 1.388 . S
C5125 C5124 1.366 . S
C5125 C5129 1.385 . S
C5126 H5107 0.951 . S
C5126 C5124 1.388 . S
C5126 C5127 1.366 . S
C5127 C5126 1.366 . S
C5127 C5128 1.414 . S
C5127 C5130 1.499 . S
C5128 H5108 0.950 . S
C5128 C5127 1.414 . S
C5128 C5129 1.374 . S
C5129 H5109 0.950 . S
C5129 C5125 1.385 . S
C5129 C5128 1.374 . S
C5130 C5127 1.499 . S
C5130 C5131 1.373 . S
C5130 C5132 1.389 . S
C5131 H5110 0.950 . S
C5131 C5130 1.373 . S
C5131 C5147 1.377 . S
C5132 C5130 1.389 . S
C5132 C5133 1.524 . S
C5132 C5146 1.377 . S
C5133 C5132 1.524 . S
C5133 C5134 1.397 . S
C5133 C5138 1.363 . S
C5134 H5111 0.950 . S
C5134 C5133 1.397 . S
C5134 C5135 1.334 . S
C5135 H5112 0.950 . S
C5135 C5134 1.334 . S
C5135 C5136 1.287 . S
C5136 C5135 1.287 . S
C5136 C5137 1.524 . S
C5136 H5155 0.913 . S
C5137 H5113 0.950 . S
C5137 C5136 1.524 . S
C5137 C5138 1.415 . S
C5138 H5114 0.950 . S
C5138 C5133 1.363 . S
C5138 C5137 1.415 . S
C5139 H5115 0.951 . S
C5139 C5140 1.368 . S
C5139 C5141 1.388 1_545 S
C5140 C5139 1.368 . S
C5140 C5144 1.380 1_545 S
C5141 H5116 0.951 . S
C5141 C5139 1.388 1_565 S
C5141 C5142 1.366 . S
C5142 C5141 1.366 . S
C5142 C5143 1.414 . S
C5142 C5145 1.499 . S
C5143 H5117 0.950 . S
C5143 C5142 1.414 . S
C5143 C5144 1.374 . S
C5144 H5118 0.950 . S
C5144 C5140 1.380 1_565 S
C5144 C5143 1.374 . S
C5145 C5142 1.499 . S
C5145 C5146 1.373 . S
C5145 C5147 1.389 . S
C5146 H5119 0.950 . S
C5146 C5132 1.377 . S
C5146 C5145 1.373 . S
C5147 C5131 1.377 . S
C5147 C5145 1.389 . S
C5147 C5148 1.524 . S
C5148 C5147 1.524 . S
C5148 C5149 1.397 . S
C5148 C5153 1.363 . S
C5149 H5120 0.950 . S
C5149 C5148 1.397 . S
C5149 C5150 1.334 . S
C5150 H5121 0.950 . S
C5150 C5149 1.334 . S
C5150 C5151 1.287 . S
C5151 C5150 1.287 . S
C5151 C5152 1.524 . S
C5151 H5154 0.999 . S
C5152 H5122 0.950 . S
C5152 C5151 1.524 . S
C5152 C5153 1.415 . S
C5153 H5123 0.950 . S
C5153 C5148 1.363 . S
C5153 C5152 1.415 . S
H5154 C5151 0.999 . S
H5155 C5136 0.913 . S
H5156 C5174 0.951 . S
H5157 C5176 0.951 . S
H5158 C5178 0.950 . S
H5159 C5179 0.950 . S
H5160 C5181 0.950 . S
H5161 C5184 0.950 . S
H5162 C5185 0.950 . S
H5163 C5187 0.950 . S
H5164 C5188 0.950 . S
H5165 C5189 0.951 . S
H5166 C5191 0.951 . S
H5167 C5193 0.950 . S
H5168 C5194 0.950 . S
H5169 C5196 0.950 . S
H5170 C5199 0.950 . S
H5171 C5200 0.950 . S
H5172 C5202 0.950 . S
H5173 C5203 0.950 . S
C5174 H5156 0.951 . S
C5174 C5175 1.366 . S
C5174 C5176 1.388 . S
C5175 C5174 1.366 . S
C5175 C5179 1.385 . S
C5176 H5157 0.951 . S
C5176 C5174 1.388 . S
C5176 C5177 1.366 . S
C5177 C5176 1.366 . S
C5177 C5178 1.414 . S
C5177 C5180 1.499 . S
C5178 H5158 0.950 . S
C5178 C5177 1.414 . S
C5178 C5179 1.374 . S
C5179 H5159 0.950 . S
C5179 C5175 1.385 . S
C5179 C5178 1.374 . S
C5180 C5177 1.499 . S
C5180 C5181 1.373 . S
C5180 C5182 1.389 . S
C5181 H5160 0.950 . S
C5181 C5180 1.373 . S
C5181 C5197 1.377 . S
C5182 C5180 1.389 . S
C5182 C5183 1.524 . S
C5182 C5196 1.377 . S
C5183 C5182 1.524 . S
C5183 C5184 1.397 . S
C5183 C5188 1.363 . S
C5184 H5161 0.950 . S
C5184 C5183 1.397 . S
C5184 C5185 1.334 . S
C5185 H5162 0.950 . S
C5185 C5184 1.334 . S
C5185 C5186 1.287 . S
C5186 C5185 1.287 . S
C5186 C5187 1.524 . S
C5186 H5205 0.913 . S
C5187 H5163 0.950 . S
C5187 C5186 1.524 . S
C5187 C5188 1.415 . S
C5188 H5164 0.950 . S
C5188 C5183 1.363 . S
C5188 C5187 1.415 . S
C5189 H5165 0.951 . S
C5189 C5190 1.366 . S
C5189 C5191 1.388 . S
C5190 C5189 1.366 . S
C5190 C5194 1.385 . S
C5191 H5166 0.951 . S
C5191 C5189 1.388 . S
C5191 C5192 1.366 . S
C5192 C5191 1.366 . S
C5192 C5193 1.414 . S
C5192 C5195 1.499 . S
C5193 H5167 0.950 . S
C5193 C5192 1.414 . S
C5193 C5194 1.374 . S
C5194 H5168 0.950 . S
C5194 C5190 1.385 . S
C5194 C5193 1.374 . S
C5195 C5192 1.499 . S
C5195 C5196 1.373 . S
C5195 C5197 1.389 . S
C5196 H5169 0.950 . S
C5196 C5182 1.377 . S
C5196 C5195 1.373 . S
C5197 C5181 1.377 . S
C5197 C5195 1.389 . S
C5197 C5198 1.524 . S
C5198 C5197 1.524 . S
C5198 C5199 1.397 . S
C5198 C5203 1.363 . S
C5199 H5170 0.950 . S
C5199 C5198 1.397 . S
C5199 C5200 1.334 . S
C5200 H5171 0.950 . S
C5200 C5199 1.334 . S
C5200 C5201 1.287 . S
C5201 C5200 1.287 . S
C5201 C5202 1.524 . S
C5201 H5204 0.999 . S
C5202 H5172 0.950 . S
C5202 C5201 1.524 . S
C5202 C5203 1.415 . S
C5203 H5173 0.950 . S
C5203 C5198 1.363 . S
C5203 C5202 1.415 . S
H5204 C5201 0.999 . S
H5205 C5186 0.913 . S
H5206 C5224 0.951 . S
H5207 C5226 0.951 . S
H5208 C5228 0.948 1_554 S
H5209 C5229 0.950 . S
H5210 C5231 0.950 . S
H5211 C5234 0.950 . S
H5212 C5235 0.950 . S
H5213 C5237 0.950 . S
H5214 C5238 0.950 . S
H5215 C5239 0.951 . S
H5216 C5241 0.951 . S
H5217 C5243 0.950 . S
H5218 C5244 0.950 . S
H5219 C5246 0.950 . S
H5220 C5249 0.950 . S
H5221 C5250 0.950 . S
H5222 C5252 0.950 . S
H5223 C5253 0.950 . S
C5224 H5206 0.951 . S
C5224 C5225 1.366 . S
C5224 C5226 1.388 . S
C5225 C5224 1.366 . S
C5225 C5229 1.385 . S
C5226 H5207 0.951 . S
C5226 C5224 1.388 . S
C5226 C5227 1.366 . S
C5227 C5226 1.366 . S
C5227 C5228 1.412 . S
C5227 C5230 1.495 1_556 S
C5228 H5208 0.948 1_556 S
C5228 C5227 1.412 . S
C5228 C5229 1.378 . S
C5229 H5209 0.950 . S
C5229 C5225 1.385 . S
C5229 C5228 1.378 . S
C5230 C5227 1.495 1_554 S
C5230 C5231 1.390 . S
C5230 C5232 1.378 1_554 S
C5231 H5210 0.950 . S
C5231 C5230 1.390 . S
C5231 C5247 1.377 . S
C5232 C5230 1.378 1_556 S
C5232 C5233 1.524 . S
C5232 C5246 1.377 . S
C5233 C5232 1.524 . S
C5233 C5234 1.397 . S
C5233 C5238 1.363 . S
C5234 H5211 0.950 . S
C5234 C5233 1.397 . S
C5234 C5235 1.334 . S
C5235 H5212 0.950 . S
C5235 C5234 1.334 . S
C5235 C5236 1.287 . S
C5236 C5235 1.287 . S
C5236 C5237 1.524 . S
C5236 H5255 0.913 . S
C5237 H5213 0.950 . S
C5237 C5236 1.524 . S
C5237 C5238 1.415 . S
C5238 H5214 0.950 . S
C5238 C5233 1.363 . S
C5238 C5237 1.415 . S
C5239 H5215 0.951 . S
C5239 C5240 1.366 . S
C5239 C5241 1.388 . S
C5240 C5239 1.366 . S
C5240 C5244 1.385 . S
C5241 H5216 0.951 . S
C5241 C5239 1.388 . S
C5241 C5242 1.366 . S
C5242 C5241 1.366 . S
C5242 C5243 1.414 . S
C5242 C5245 1.499 . S
C5243 H5217 0.950 . S
C5243 C5242 1.414 . S
C5243 C5244 1.374 . S
C5244 H5218 0.950 . S
C5244 C5240 1.385 . S
C5244 C5243 1.374 . S
C5245 C5242 1.499 . S
C5245 C5246 1.373 1_554 S
C5245 C5247 1.389 . S
C5246 H5219 0.950 . S
C5246 C5232 1.377 . S
C5246 C5245 1.373 1_556 S
C5247 C5231 1.377 . S
C5247 C5245 1.389 . S
C5247 C5248 1.524 . S
C5248 C5247 1.524 . S
C5248 C5249 1.397 . S
C5248 C5253 1.363 . S
C5249 H5220 0.950 . S
C5249 C5248 1.397 . S
C5249 C5250 1.334 . S
C5250 H5221 0.950 . S
C5250 C5249 1.334 . S
C5250 C5251 1.287 . S
C5251 C5250 1.287 . S
C5251 C5252 1.524 . S
C5251 H5254 0.999 . S
C5252 H5222 0.950 . S
C5252 C5251 1.524 . S
C5252 C5253 1.415 . S
C5253 H5223 0.950 . S
C5253 C5248 1.363 . S
C5253 C5252 1.415 . S
H5254 C5251 0.999 . S
H5255 C5236 0.913 . S
H5256 C5274 0.951 . S
H5257 C5276 0.951 . S
H5258 C5278 0.950 . S
H5259 C5279 0.950 . S
H5260 C5281 0.950 . S
H5261 C5284 0.950 . S
H5262 C5285 0.950 . S
H5263 C5287 0.950 . S
H5264 C5288 0.950 . S
H5265 C5289 0.951 . S
H5266 C5291 0.951 . S
H5267 C5293 0.950 . S
H5268 C5294 0.950 . S
H5269 C5296 0.950 . S
H5270 C5299 0.950 . S
H5271 C5300 0.950 . S
H5272 C5302 0.950 . S
H5273 C5303 0.950 . S
C5274 H5256 0.951 . S
C5274 C5275 1.366 . S
C5274 C5276 1.388 . S
C5275 C5274 1.366 . S
C5275 C5279 1.385 . S
C5276 H5257 0.951 . S
C5276 C5274 1.388 . S
C5276 C5277 1.366 . S
C5277 C5276 1.366 . S
C5277 C5278 1.414 . S
C5277 C5280 1.499 . S
C5278 H5258 0.950 . S
C5278 C5277 1.414 . S
C5278 C5279 1.374 . S
C5279 H5259 0.950 . S
C5279 C5275 1.385 . S
C5279 C5278 1.374 . S
C5280 C5277 1.499 . S
C5280 C5281 1.373 . S
C5280 C5282 1.389 . S
C5281 H5260 0.950 . S
C5281 C5280 1.373 . S
C5281 C5297 1.377 . S
C5282 C5280 1.389 . S
C5282 C5283 1.524 . S
C5282 C5296 1.377 . S
C5283 C5282 1.524 . S
C5283 C5284 1.397 . S
C5283 C5288 1.363 . S
C5284 H5261 0.950 . S
C5284 C5283 1.397 . S
C5284 C5285 1.334 . S
C5285 H5262 0.950 . S
C5285 C5284 1.334 . S
C5285 C5286 1.287 . S
C5286 C5285 1.287 . S
C5286 C5287 1.524 . S
C5286 H5305 0.913 . S
C5287 H5263 0.950 . S
C5287 C5286 1.524 . S
C5287 C5288 1.415 . S
C5288 H5264 0.950 . S
C5288 C5283 1.363 . S
C5288 C5287 1.415 . S
C5289 H5265 0.951 . S
C5289 C5290 1.366 . S
C5289 C5291 1.388 . S
C5290 C5289 1.366 . S
C5290 C5294 1.385 . S
C5291 H5266 0.951 . S
C5291 C5289 1.388 . S
C5291 C5292 1.366 . S
C5292 C5291 1.366 . S
C5292 C5293 1.414 . S
C5292 C5295 1.499 . S
C5293 H5267 0.950 . S
C5293 C5292 1.414 . S
C5293 C5294 1.374 . S
C5294 H5268 0.950 . S
C5294 C5290 1.385 . S
C5294 C5293 1.374 . S
C5295 C5292 1.499 . S
C5295 C5296 1.373 . S
C5295 C5297 1.389 . S
C5296 H5269 0.950 . S
C5296 C5282 1.377 . S
C5296 C5295 1.373 . S
C5297 C5281 1.377 . S
C5297 C5295 1.389 . S
C5297 C5298 1.524 . S
C5298 C5297 1.524 . S
C5298 C5299 1.397 . S
C5298 C5303 1.363 . S
C5299 H5270 0.950 . S
C5299 C5298 1.397 . S
C5299 C5300 1.334 . S
C5300 H5271 0.950 . S
C5300 C5299 1.334 . S
C5300 C5301 1.287 . S
C5301 C5300 1.287 . S
C5301 C5302 1.524 . S
C5301 H5304 0.999 . S
C5302 H5272 0.950 . S
C5302 C5301 1.524 . S
C5302 C5303 1.415 . S
C5303 H5273 0.950 . S
C5303 C5298 1.363 . S
C5303 C5302 1.415 . S
H5304 C5301 0.999 . S
H5305 C5286 0.913 . S
H5306 C5324 0.951 . S
H5307 C5326 0.951 . S
H5308 C5328 0.950 . S
H5309 C5329 0.950 . S
H5310 C5331 0.950 . S
H5311 C5334 0.950 . S
H5312 C5335 0.950 . S
H5313 C5337 0.950 . S
H5314 C5338 0.950 . S
H5315 C5339 0.951 . S
H5316 C5341 0.951 . S
H5317 C5343 0.950 . S
H5318 C5344 0.950 . S
H5319 C5346 0.976 . S
H5320 C5349 0.950 . S
H5321 C5350 0.950 . S
H5322 C5352 0.950 . S
H5323 C5353 0.950 . S
C5324 H5306 0.951 . S
C5324 C5325 1.366 1_556 S
C5324 C5326 1.388 . S
C5325 C5324 1.366 1_554 S
C5325 C5329 1.385 . S
C5326 H5307 0.951 . S
C5326 C5324 1.388 . S
C5326 C5327 1.366 1_556 S
C5327 C5326 1.366 1_554 S
C5327 C5328 1.414 . S
C5327 C5330 1.499 . S
C5328 H5308 0.950 . S
C5328 C5327 1.414 . S
C5328 C5329 1.374 . S
C5329 H5309 0.950 . S
C5329 C5325 1.385 . S
C5329 C5328 1.374 . S
C5330 C5327 1.499 . S
C5330 C5331 1.373 . S
C5330 C5332 1.389 . S
C5331 H5310 0.950 . S
C5331 C5330 1.373 . S
C5331 C5347 1.377 . S
C5332 C5330 1.389 . S
C5332 C5333 1.524 1_554 S
C5332 C5346 1.369 1_554 S
C5333 C5332 1.524 1_556 S
C5333 C5334 1.397 1_556 S
C5333 C5338 1.363 . S
C5334 H5311 0.950 . S
C5334 C5333 1.397 1_554 S
C5334 C5335 1.334 . S
C5335 H5312 0.950 . S
C5335 C5334 1.334 . S
C5335 C5336 1.287 1_554 S
C5336 C5335 1.287 1_556 S
C5336 C5337 1.524 . S
C5336 H5355 0.913 . S
C5337 H5313 0.950 . S
C5337 C5336 1.524 . S
C5337 C5338 1.415 . S
C5338 H5314 0.950 . S
C5338 C5333 1.363 . S
C5338 C5337 1.415 . S
C5339 H5315 0.951 . S
C5339 C5340 1.366 1_554 S
C5339 C5341 1.388 . S
C5340 C5339 1.366 1_556 S
C5340 C5344 1.385 . S
C5341 H5316 0.951 . S
C5341 C5339 1.388 . S
C5341 C5342 1.366 . S
C5342 C5341 1.366 . S
C5342 C5343 1.414 1_554 S
C5342 C5345 1.499 . S
C5343 H5317 0.950 . S
C5343 C5342 1.414 1_556 S
C5343 C5344 1.374 . S
C5344 H5318 0.950 . S
C5344 C5340 1.385 . S
C5344 C5343 1.374 . S
C5345 C5342 1.499 . S
C5345 C5346 1.359 1_554 S
C5345 C5347 1.389 . S
C5346 H5319 0.976 . S
C5346 C5332 1.369 1_556 S
C5346 C5345 1.359 1_556 S
C5347 C5331 1.377 . S
C5347 C5345 1.389 . S
C5347 C5348 1.524 . S
C5348 C5347 1.524 . S
C5348 C5349 1.397 1_554 S
C5348 C5353 1.363 . S
C5349 H5320 0.950 . S
C5349 C5348 1.397 1_556 S
C5349 C5350 1.334 . S
C5350 H5321 0.950 . S
C5350 C5349 1.334 . S
C5350 C5351 1.287 1_556 S
C5351 C5350 1.287 1_554 S
C5351 C5352 1.524 . S
C5351 H5354 0.999 . S
C5352 H5322 0.950 . S
C5352 C5351 1.524 . S
C5352 C5353 1.415 . S
C5353 H5323 0.950 . S
C5353 C5348 1.363 . S
C5353 C5352 1.415 . S
H5354 C5351 0.999 . S
H5355 C5336 0.913 . S
H5356 C5374 0.951 . S
H5357 C5376 0.951 . S
H5358 C5378 0.950 . S
H5359 C5379 0.950 . S
H5360 C5381 0.950 . S
H5361 C5384 0.950 . S
H5362 C5385 0.950 . S
H5363 C5387 0.950 . S
H5364 C5388 0.950 . S
H5365 C5389 0.951 . S
H5366 C5391 0.951 . S
H5367 C5393 0.950 . S
H5368 C5394 0.950 . S
H5369 C5396 0.950 . S
H5370 C5399 0.950 . S
H5371 C5400 0.950 . S
H5372 C5402 0.950 . S
H5373 C5403 0.950 . S
C5374 H5356 0.951 . S
C5374 C5375 1.366 . S
C5374 C5376 1.388 . S
C5375 C5374 1.366 . S
C5375 C5379 1.385 . S
C5376 H5357 0.951 . S
C5376 C5374 1.388 . S
C5376 C5377 1.366 . S
C5377 C5376 1.366 . S
C5377 C5378 1.414 . S
C5377 C5380 1.499 . S
C5378 H5358 0.950 . S
C5378 C5377 1.414 . S
C5378 C5379 1.374 . S
C5379 H5359 0.950 . S
C5379 C5375 1.385 . S
C5379 C5378 1.374 . S
C5380 C5377 1.499 . S
C5380 C5381 1.373 . S
C5380 C5382 1.389 . S
C5381 H5360 0.950 . S
C5381 C5380 1.373 . S
C5381 C5397 1.377 . S
C5382 C5380 1.389 . S
C5382 C5383 1.524 . S
C5382 C5396 1.377 . S
C5383 C5382 1.524 . S
C5383 C5384 1.397 . S
C5383 C5388 1.363 . S
C5384 H5361 0.950 . S
C5384 C5383 1.397 . S
C5384 C5385 1.334 . S
C5385 H5362 0.950 . S
C5385 C5384 1.334 . S
C5385 C5386 1.287 . S
C5386 C5385 1.287 . S
C5386 C5387 1.524 . S
C5386 H5405 0.913 . S
C5387 H5363 0.950 . S
C5387 C5386 1.524 . S
C5387 C5388 1.415 . S
C5388 H5364 0.950 . S
C5388 C5383 1.363 . S
C5388 C5387 1.415 . S
C5389 H5365 0.951 . S
C5389 C5390 1.366 . S
C5389 C5391 1.388 . S
C5390 C5389 1.366 . S
C5390 C5394 1.385 . S
C5391 H5366 0.951 . S
C5391 C5389 1.388 . S
C5391 C5392 1.366 . S
C5392 C5391 1.366 . S
C5392 C5393 1.414 . S
C5392 C5395 1.499 . S
C5393 H5367 0.950 . S
C5393 C5392 1.414 . S
C5393 C5394 1.374 . S
C5394 H5368 0.950 . S
C5394 C5390 1.385 . S
C5394 C5393 1.374 . S
C5395 C5392 1.499 . S
C5395 C5396 1.373 . S
C5395 C5397 1.389 . S
C5396 H5369 0.950 . S
C5396 C5382 1.377 . S
C5396 C5395 1.373 . S
C5397 C5381 1.377 . S
C5397 C5395 1.389 . S
C5397 C5398 1.524 . S
C5398 C5397 1.524 . S
C5398 C5399 1.397 . S
C5398 C5403 1.363 . S
C5399 H5370 0.950 . S
C5399 C5398 1.397 . S
C5399 C5400 1.334 . S
C5400 H5371 0.950 . S
C5400 C5399 1.334 . S
C5400 C5401 1.287 . S
C5401 C5400 1.287 . S
C5401 C5402 1.524 . S
C5401 H5404 0.999 . S
C5402 H5372 0.950 . S
C5402 C5401 1.524 . S
C5402 C5403 1.415 . S
C5403 H5373 0.950 . S
C5403 C5398 1.363 . S
C5403 C5402 1.415 . S
H5404 C5401 0.999 . S
H5405 C5386 0.913 . S
H5406 C5424 0.951 . S
H5407 C5426 0.951 . S
H5408 C5428 0.950 . S
H5409 C5429 0.950 . S
H5410 C5431 0.950 . S
H5411 C5434 0.950 . S
H5412 C5435 0.950 . S
H5413 C5437 0.950 . S
H5414 C5438 0.950 . S
H5415 C5439 0.951 . S
H5416 C5441 0.951 . S
H5417 C5443 0.950 . S
H5418 C5444 0.950 . S
H5419 C5446 0.950 . S
H5420 C5449 0.950 . S
H5421 C5450 0.950 . S
H5422 C5452 0.950 . S
H5423 C5453 0.950 . S
C5424 H5406 0.951 . S
C5424 C5425 1.366 . S
C5424 C5426 1.388 . S
C5425 C5424 1.366 . S
C5425 C5429 1.385 . S
C5426 H5407 0.951 . S
C5426 C5424 1.388 . S
C5426 C5427 1.366 . S
C5427 C5426 1.366 . S
C5427 C5428 1.414 . S
C5427 C5430 1.499 . S
C5428 H5408 0.950 . S
C5428 C5427 1.414 . S
C5428 C5429 1.374 . S
C5429 H5409 0.950 . S
C5429 C5425 1.385 . S
C5429 C5428 1.374 . S
C5430 C5427 1.499 . S
C5430 C5431 1.373 . S
C5430 C5432 1.389 . S
C5431 H5410 0.950 . S
C5431 C5430 1.373 . S
C5431 C5447 1.377 . S
C5432 C5430 1.389 . S
C5432 C5433 1.524 . S
C5432 C5446 1.377 . S
C5433 C5432 1.524 . S
C5433 C5434 1.397 . S
C5433 C5438 1.363 . S
C5434 H5411 0.950 . S
C5434 C5433 1.397 . S
C5434 C5435 1.334 . S
C5435 H5412 0.950 . S
C5435 C5434 1.334 . S
C5435 C5436 1.287 . S
C5436 C5435 1.287 . S
C5436 C5437 1.524 . S
C5436 H5455 0.913 . S
C5437 H5413 0.950 . S
C5437 C5436 1.524 . S
C5437 C5438 1.415 . S
C5438 H5414 0.950 . S
C5438 C5433 1.363 . S
C5438 C5437 1.415 . S
C5439 H5415 0.951 . S
C5439 C5440 1.366 . S
C5439 C5441 1.388 . S
C5440 C5439 1.366 . S
C5440 C5444 1.385 . S
C5441 H5416 0.951 . S
C5441 C5439 1.388 . S
C5441 C5442 1.366 . S
C5442 C5441 1.366 . S
C5442 C5443 1.414 . S
C5442 C5445 1.499 . S
C5443 H5417 0.950 . S
C5443 C5442 1.414 . S
C5443 C5444 1.374 . S
C5444 H5418 0.950 . S
C5444 C5440 1.385 . S
C5444 C5443 1.374 . S
C5445 C5442 1.499 . S
C5445 C5446 1.373 . S
C5445 C5447 1.389 . S
C5446 H5419 0.950 . S
C5446 C5432 1.377 . S
C5446 C5445 1.373 . S
C5447 C5431 1.377 . S
C5447 C5445 1.389 . S
C5447 C5448 1.524 . S
C5448 C5447 1.524 . S
C5448 C5449 1.397 . S
C5448 C5453 1.363 . S
C5449 H5420 0.950 . S
C5449 C5448 1.397 . S
C5449 C5450 1.334 . S
C5450 H5421 0.950 . S
C5450 C5449 1.334 . S
C5450 C5451 1.287 . S
C5451 C5450 1.287 . S
C5451 C5452 1.524 . S
C5451 H5454 0.999 . S
C5452 H5422 0.950 . S
C5452 C5451 1.524 . S
C5452 C5453 1.415 . S
C5453 H5423 0.950 . S
C5453 C5448 1.363 . S
C5453 C5452 1.415 . S
H5454 C5451 0.999 . S
H5455 C5436 0.913 . S
C675 C105 1.527 1_455 S
C690 C354 1.515 . S
C725 C65 1.599 . S
C740 C365 1.596 . S
C775 C73 0.859 . S
C790 C394 0.849 . S
C840 C397 1.450 . S
C825 C92 1.455 . S
C875 C17 1.661 . S
C890 C435 1.606 . S
C940 C438 0.815 . S
C925 C37 0.813 . S
C990 C465 1.432 . S
C975 C49 1.390 . S
C1025 C8 1.618 . S
C1040 C494 1.564 . S
C1090 C345 1.498 1_655 S
C1075 C231 1.458 . S
C1125 C241 0.701 . S
C1140 C357 0.704 . S
C1190 C385 1.615 . S
C1175 C273 1.580 . S
C1240 C414 0.938 . S
C1225 C171 0.948 . S
C1275 C227 0.840 . S
C1290 C418 0.841 . S
C1340 C444 1.630 . S
C1325 C245 1.610 . S
C1390 C457 0.619 . S
C1375 C269 0.611 . S
C1440 C485 1.556 . S
C1425 C175 1.533 . S
C1490 C337 1.524 1_565 S
C1475 C162 1.540 . S
C1525 C289 1.761 . S
C1540 C504 1.740 . S
C1590 C535 1.473 . S
C1575 C330 1.522 . S
C1640 C554 0.811 . S
C1625 C317 0.815 . S
C1675 C120 1.291 . S
C1690 C477 1.285 . S
C1725 C134 1.440 . S
C1740 C377 1.437 . S
C1775 C331 1.555 . S
C1790 C565 1.549 . S
C1840 C594 0.751 . S
C1825 C303 0.752 . S
C1890 C355 1.534 . S
C1875 C59 1.572 . S
C1940 C584 1.635 . S
C1925 C107 1.634 . S
C1975 C91 0.900 . S
C1990 C395 0.900 . S
C2025 C78 1.490 . S
C2040 C558 1.485 . S
C2090 C434 1.651 . S
C2075 C7 1.664 . S
C2125 C51 0.848 . S
C2140 C517 0.849 . S
C2190 C464 1.474 1_556 S
C2175 C31 1.482 . S
C2240 C615 1.596 . S
C2225 C22 1.646 . S
C2290 C344 1.529 . S
C2275 C143 1.540 . S
C2340 C578 0.747 . S
C2325 C315 0.746 . S
C2375 C115 1.657 . S
C2390 C384 1.646 . S
C2425 C287 0.987 . S
C2440 C575 0.995 . S
C2475 C147 0.871 . S
C2490 C417 0.885 . S
C2540 C525 1.659 . S
C2525 C311 1.684 . S
C2575 C119 0.672 . S
C2590 C458 0.664 . S
C2625 C283 1.600 . S
C2640 C604 1.588 . S
C2675 C190 1.561 1_554 S
C2690 C338 1.547 . S
C2725 C177 1.794 . S
C2740 C505 1.774 . S
C2775 C260 1.542 . S
C2790 C454 1.500 . S
C2825 C247 0.874 . S
C2840 C555 0.866 . S
C2890 C598 1.309 . S
C2875 C274 1.313 . S
C2925 C218 1.460 . S
C2940 C378 1.437 1_565 S
C2990 C404 1.592 . S
C2975 C261 1.596 . S
C3040 C375 0.795 . S
C3025 C205 0.801 . S
C3075 C77 1.527 . S
C3090 C634 1.502 . S
C3140 C585 1.596 . S
C3125 C93 1.599 . S
C3175 C101 0.859 . S
C3190 C654 0.847 . S
C3225 C64 1.455 . S
C3240 C557 1.451 . S
C3275 C45 1.661 . S
C3290 C515 1.606 . S
C3340 C518 0.814 . S
C3325 C9 0.814 . S
C3390 C545 1.432 . S
C3375 C21 1.390 . S
C3440 C614 1.564 . S
C3425 C36 1.618 . S
C3490 C625 1.498 . S
C3475 C259 1.459 . S
C3525 C185 0.701 . S
C3540 C577 0.708 . S
C3590 C645 1.615 . S
C3575 C203 1.580 . S
C3640 C574 0.938 . S
C3625 C213 0.949 . S
C3690 C498 0.841 . S
C3675 C255 0.840 . S
C3725 C189 1.609 . S
C3740 C524 1.625 . S
C3790 C537 0.619 . S
C3775 C199 0.611 . S
C3825 C217 1.532 . S
C3840 C605 1.556 . S
C3890 C617 1.524 . S
C3875 C316 1.540 . S
C3925 C135 1.761 . S
C3940 C424 1.740 . S
C3990 C455 1.474 . S
C3975 C148 1.528 . S
C4040 C474 0.811 . S
C4025 C163 0.815 . S
C4090 C597 1.286 . S
C4075 C302 1.291 . S
C4125 C288 1.439 . S
C4140 C637 1.436 . S
C4190 C405 1.548 . S
C4175 C149 1.549 . S
C4240 C374 0.751 . S
C4225 C121 0.752 . S
C4275 C87 1.571 . S
C4290 C635 1.533 . S
C4340 C364 1.635 . S
C4325 C79 1.634 . S
C4375 C63 0.901 . S
C4390 C655 0.902 . S
C4425 C106 1.490 . S
C4440 C398 1.485 . S
C4475 C35 1.665 . S
C4490 C514 1.652 . S
C4540 C437 0.848 . S
C4525 C23 0.848 . S
C4575 C3 1.482 . S
C4590 C544 1.474 . S
C4625 C50 1.646 . S
C4640 C495 1.596 . S
C4690 C624 1.529 . S
C4675 C325 1.538 . S
C4725 C161 0.748 . S
C4740 C358 0.748 . S
C4790 C644 1.646 1_655 S
C4775 C297 1.657 . S
C4825 C133 0.986 . S
C4840 C415 0.995 . S
C4875 C329 0.867 . S
C4890 C497 0.888 . S
C4940 C445 1.658 . S
C4925 C157 1.684 . S
C4975 C301 0.671 . S
C4990 C538 0.663 . S
C5040 C484 1.588 . S
C5025 C129 1.600 . S
C5090 C618 1.547 . S
C5075 C246 1.562 . S
C5140 C425 1.776 . S
C5125 C219 1.793 . S
C5175 C232 1.542 . S
C5190 C534 1.499 . S
C5240 C475 0.867 . S
C5225 C191 0.873 . S
C5275 C204 1.313 . S
C5290 C478 1.310 . S
C5325 C176 1.460 . S
C5340 C638 1.462 . S
C5390 C564 1.592 . S
C5375 C233 1.596 1_565 S
C5440 C595 0.795 . S
C5425 C275 0.802 . S
