# Generated by pormake.
# Topology gar, (4,6)-cn, num edge types: 1
# Building blocks:
#     Node 0, Type 0, BuildingBlock: QUQFOY_clean_sbu_1, # of connection points: 4
#     Node 1, Type 0, BuildingBlock: QUQFOY_clean_sbu_1, # of connection points: 4
#     Node 2, Type 0, BuildingBlock: QUQFOY_clean_sbu_1, # of connection points: 4
#     Node 3, Type 0, BuildingBlock: QUQFOY_clean_sbu_1, # of connection points: 4
#     Node 4, Type 0, BuildingBlock: QUQFOY_clean_sbu_1, # of connection points: 4
#     Node 5, Type 0, BuildingBlock: QUQFOY_clean_sbu_1, # of connection points: 4
#     Node 6, Type 0, BuildingBlock: QUQFOY_clean_sbu_1, # of connection points: 4
#     Node 7, Type 0, BuildingBlock: QUQFOY_clean_sbu_1, # of connection points: 4
#     Node 8, Type 0, BuildingBlock: QUQFOY_clean_sbu_1, # of connection points: 4
#     Node 9, Type 0, BuildingBlock: QUQFOY_clean_sbu_1, # of connection points: 4
#     Node 10, Type 0, BuildingBlock: QUQFOY_clean_sbu_1, # of connection points: 4
#     Node 11, Type 0, BuildingBlock: QUQFOY_clean_sbu_1, # of connection points: 4
#     Node 12, Type 0, BuildingBlock: QUQFOY_clean_sbu_1, # of connection points: 4
#     Node 13, Type 0, BuildingBlock: QUQFOY_clean_sbu_1, # of connection points: 4
#     Node 14, Type 0, BuildingBlock: QUQFOY_clean_sbu_1, # of connection points: 4
#     Node 15, Type 0, BuildingBlock: QUQFOY_clean_sbu_1, # of connection points: 4
#     Node 16, Type 0, BuildingBlock: QUQFOY_clean_sbu_1, # of connection points: 4
#     Node 17, Type 0, BuildingBlock: QUQFOY_clean_sbu_1, # of connection points: 4
#     Node 18, Type 0, BuildingBlock: QUQFOY_clean_sbu_1, # of connection points: 4
#     Node 19, Type 0, BuildingBlock: QUQFOY_clean_sbu_1, # of connection points: 4
#     Node 20, Type 0, BuildingBlock: QUQFOY_clean_sbu_1, # of connection points: 4
#     Node 21, Type 0, BuildingBlock: QUQFOY_clean_sbu_1, # of connection points: 4
#     Node 22, Type 0, BuildingBlock: QUQFOY_clean_sbu_1, # of connection points: 4
#     Node 23, Type 0, BuildingBlock: QUQFOY_clean_sbu_1, # of connection points: 4
#     Node 24, Type 1, BuildingBlock: HISSIN_clean_sbu_0, # of connection points: 6
#     Node 25, Type 1, BuildingBlock: HISSIN_clean_sbu_0, # of connection points: 6
#     Node 26, Type 1, BuildingBlock: HISSIN_clean_sbu_0, # of connection points: 6
#     Node 27, Type 1, BuildingBlock: HISSIN_clean_sbu_0, # of connection points: 6
#     Node 28, Type 1, BuildingBlock: HISSIN_clean_sbu_0, # of connection points: 6
#     Node 29, Type 1, BuildingBlock: HISSIN_clean_sbu_0, # of connection points: 6
#     Node 30, Type 1, BuildingBlock: HISSIN_clean_sbu_0, # of connection points: 6
#     Node 31, Type 1, BuildingBlock: HISSIN_clean_sbu_0, # of connection points: 6
#     Node 32, Type 1, BuildingBlock: HISSIN_clean_sbu_0, # of connection points: 6
#     Node 33, Type 1, BuildingBlock: HISSIN_clean_sbu_0, # of connection points: 6
#     Node 34, Type 1, BuildingBlock: HISSIN_clean_sbu_0, # of connection points: 6
#     Node 35, Type 1, BuildingBlock: HISSIN_clean_sbu_0, # of connection points: 6
#     Node 36, Type 1, BuildingBlock: HISSIN_clean_sbu_0, # of connection points: 6
#     Node 37, Type 1, BuildingBlock: HISSIN_clean_sbu_0, # of connection points: 6
#     Node 38, Type 1, BuildingBlock: HISSIN_clean_sbu_0, # of connection points: 6
#     Node 39, Type 1, BuildingBlock: HISSIN_clean_sbu_0, # of connection points: 6
#     Edge 40, Type (0, 1), BuildingBlock: XUDNAN_clean_linker_2, # of connection points: 2
#     Edge 41, Type (0, 1), BuildingBlock: XUDNAN_clean_linker_2, # of connection points: 2
#     Edge 42, Type (0, 1), BuildingBlock: XUDNAN_clean_linker_2, # of connection points: 2
#     Edge 43, Type (0, 1), BuildingBlock: XUDNAN_clean_linker_2, # of connection points: 2
#     Edge 44, Type (0, 1), BuildingBlock: XUDNAN_clean_linker_2, # of connection points: 2
#     Edge 45, Type (0, 1), BuildingBlock: XUDNAN_clean_linker_2, # of connection points: 2
#     Edge 46, Type (0, 1), BuildingBlock: XUDNAN_clean_linker_2, # of connection points: 2
#     Edge 47, Type (0, 1), BuildingBlock: XUDNAN_clean_linker_2, # of connection points: 2
#     Edge 48, Type (0, 1), BuildingBlock: XUDNAN_clean_linker_2, # of connection points: 2
#     Edge 49, Type (0, 1), BuildingBlock: XUDNAN_clean_linker_2, # of connection points: 2
#     Edge 50, Type (0, 1), BuildingBlock: XUDNAN_clean_linker_2, # of connection points: 2
#     Edge 51, Type (0, 1), BuildingBlock: XUDNAN_clean_linker_2, # of connection points: 2
#     Edge 52, Type (0, 1), BuildingBlock: XUDNAN_clean_linker_2, # of connection points: 2
#     Edge 53, Type (0, 1), BuildingBlock: XUDNAN_clean_linker_2, # of connection points: 2
#     Edge 54, Type (0, 1), BuildingBlock: XUDNAN_clean_linker_2, # of connection points: 2
#     Edge 55, Type (0, 1), BuildingBlock: XUDNAN_clean_linker_2, # of connection points: 2
#     Edge 56, Type (0, 1), BuildingBlock: XUDNAN_clean_linker_2, # of connection points: 2
#     Edge 57, Type (0, 1), BuildingBlock: XUDNAN_clean_linker_2, # of connection points: 2
#     Edge 58, Type (0, 1), BuildingBlock: XUDNAN_clean_linker_2, # of connection points: 2
#     Edge 59, Type (0, 1), BuildingBlock: XUDNAN_clean_linker_2, # of connection points: 2
#     Edge 60, Type (0, 1), BuildingBlock: XUDNAN_clean_linker_2, # of connection points: 2
#     Edge 61, Type (0, 1), BuildingBlock: XUDNAN_clean_linker_2, # of connection points: 2
#     Edge 62, Type (0, 1), BuildingBlock: XUDNAN_clean_linker_2, # of connection points: 2
#     Edge 63, Type (0, 1), BuildingBlock: XUDNAN_clean_linker_2, # of connection points: 2
#     Edge 64, Type (0, 1), BuildingBlock: XUDNAN_clean_linker_2, # of connection points: 2
#     Edge 65, Type (0, 1), BuildingBlock: XUDNAN_clean_linker_2, # of connection points: 2
#     Edge 66, Type (0, 1), BuildingBlock: XUDNAN_clean_linker_2, # of connection points: 2
#     Edge 67, Type (0, 1), BuildingBlock: XUDNAN_clean_linker_2, # of connection points: 2
#     Edge 68, Type (0, 1), BuildingBlock: XUDNAN_clean_linker_2, # of connection points: 2
#     Edge 69, Type (0, 1), BuildingBlock: XUDNAN_clean_linker_2, # of connection points: 2
#     Edge 70, Type (0, 1), BuildingBlock: XUDNAN_clean_linker_2, # of connection points: 2
#     Edge 71, Type (0, 1), BuildingBlock: XUDNAN_clean_linker_2, # of connection points: 2
#     Edge 72, Type (0, 1), BuildingBlock: XUDNAN_clean_linker_2, # of connection points: 2
#     Edge 73, Type (0, 1), BuildingBlock: XUDNAN_clean_linker_2, # of connection points: 2
#     Edge 74, Type (0, 1), BuildingBlock: XUDNAN_clean_linker_2, # of connection points: 2
#     Edge 75, Type (0, 1), BuildingBlock: XUDNAN_clean_linker_2, # of connection points: 2
#     Edge 76, Type (0, 1), BuildingBlock: XUDNAN_clean_linker_2, # of connection points: 2
#     Edge 77, Type (0, 1), BuildingBlock: XUDNAN_clean_linker_2, # of connection points: 2
#     Edge 78, Type (0, 1), BuildingBlock: XUDNAN_clean_linker_2, # of connection points: 2
#     Edge 79, Type (0, 1), BuildingBlock: XUDNAN_clean_linker_2, # of connection points: 2
#     Edge 80, Type (0, 1), BuildingBlock: XUDNAN_clean_linker_2, # of connection points: 2
#     Edge 81, Type (0, 1), BuildingBlock: XUDNAN_clean_linker_2, # of connection points: 2
#     Edge 82, Type (0, 1), BuildingBlock: XUDNAN_clean_linker_2, # of connection points: 2
#     Edge 83, Type (0, 1), BuildingBlock: XUDNAN_clean_linker_2, # of connection points: 2
#     Edge 84, Type (0, 1), BuildingBlock: XUDNAN_clean_linker_2, # of connection points: 2
#     Edge 85, Type (0, 1), BuildingBlock: XUDNAN_clean_linker_2, # of connection points: 2
#     Edge 86, Type (0, 1), BuildingBlock: XUDNAN_clean_linker_2, # of connection points: 2
#     Edge 87, Type (0, 1), BuildingBlock: XUDNAN_clean_linker_2, # of connection points: 2
#     Edge 88, Type (0, 1), BuildingBlock: XUDNAN_clean_linker_2, # of connection points: 2
#     Edge 89, Type (0, 1), BuildingBlock: XUDNAN_clean_linker_2, # of connection points: 2
#     Edge 90, Type (0, 1), BuildingBlock: XUDNAN_clean_linker_2, # of connection points: 2
#     Edge 91, Type (0, 1), BuildingBlock: XUDNAN_clean_linker_2, # of connection points: 2
#     Edge 92, Type (0, 1), BuildingBlock: XUDNAN_clean_linker_2, # of connection points: 2
#     Edge 93, Type (0, 1), BuildingBlock: XUDNAN_clean_linker_2, # of connection points: 2
#     Edge 94, Type (0, 1), BuildingBlock: XUDNAN_clean_linker_2, # of connection points: 2
#     Edge 95, Type (0, 1), BuildingBlock: XUDNAN_clean_linker_2, # of connection points: 2
#     Edge 96, Type (0, 1), BuildingBlock: XUDNAN_clean_linker_2, # of connection points: 2
#     Edge 97, Type (0, 1), BuildingBlock: XUDNAN_clean_linker_2, # of connection points: 2
#     Edge 98, Type (0, 1), BuildingBlock: XUDNAN_clean_linker_2, # of connection points: 2
#     Edge 99, Type (0, 1), BuildingBlock: XUDNAN_clean_linker_2, # of connection points: 2
#     Edge 100, Type (0, 1), BuildingBlock: XUDNAN_clean_linker_2, # of connection points: 2
#     Edge 101, Type (0, 1), BuildingBlock: XUDNAN_clean_linker_2, # of connection points: 2
#     Edge 102, Type (0, 1), BuildingBlock: XUDNAN_clean_linker_2, # of connection points: 2
#     Edge 103, Type (0, 1), BuildingBlock: XUDNAN_clean_linker_2, # of connection points: 2
#     Edge 104, Type (0, 1), BuildingBlock: XUDNAN_clean_linker_2, # of connection points: 2
#     Edge 105, Type (0, 1), BuildingBlock: XUDNAN_clean_linker_2, # of connection points: 2
#     Edge 106, Type (0, 1), BuildingBlock: XUDNAN_clean_linker_2, # of connection points: 2
#     Edge 107, Type (0, 1), BuildingBlock: XUDNAN_clean_linker_2, # of connection points: 2
#     Edge 108, Type (0, 1), BuildingBlock: XUDNAN_clean_linker_2, # of connection points: 2
#     Edge 109, Type (0, 1), BuildingBlock: XUDNAN_clean_linker_2, # of connection points: 2
#     Edge 110, Type (0, 1), BuildingBlock: XUDNAN_clean_linker_2, # of connection points: 2
#     Edge 111, Type (0, 1), BuildingBlock: XUDNAN_clean_linker_2, # of connection points: 2
#     Edge 112, Type (0, 1), BuildingBlock: XUDNAN_clean_linker_2, # of connection points: 2
#     Edge 113, Type (0, 1), BuildingBlock: XUDNAN_clean_linker_2, # of connection points: 2
#     Edge 114, Type (0, 1), BuildingBlock: XUDNAN_clean_linker_2, # of connection points: 2
#     Edge 115, Type (0, 1), BuildingBlock: XUDNAN_clean_linker_2, # of connection points: 2
#     Edge 116, Type (0, 1), BuildingBlock: XUDNAN_clean_linker_2, # of connection points: 2
#     Edge 117, Type (0, 1), BuildingBlock: XUDNAN_clean_linker_2, # of connection points: 2
#     Edge 118, Type (0, 1), BuildingBlock: XUDNAN_clean_linker_2, # of connection points: 2
#     Edge 119, Type (0, 1), BuildingBlock: XUDNAN_clean_linker_2, # of connection points: 2
#     Edge 120, Type (0, 1), BuildingBlock: XUDNAN_clean_linker_2, # of connection points: 2
#     Edge 121, Type (0, 1), BuildingBlock: XUDNAN_clean_linker_2, # of connection points: 2
#     Edge 122, Type (0, 1), BuildingBlock: XUDNAN_clean_linker_2, # of connection points: 2
#     Edge 123, Type (0, 1), BuildingBlock: XUDNAN_clean_linker_2, # of connection points: 2
#     Edge 124, Type (0, 1), BuildingBlock: XUDNAN_clean_linker_2, # of connection points: 2
#     Edge 125, Type (0, 1), BuildingBlock: XUDNAN_clean_linker_2, # of connection points: 2
#     Edge 126, Type (0, 1), BuildingBlock: XUDNAN_clean_linker_2, # of connection points: 2
#     Edge 127, Type (0, 1), BuildingBlock: XUDNAN_clean_linker_2, # of connection points: 2
#     Edge 128, Type (0, 1), BuildingBlock: XUDNAN_clean_linker_2, # of connection points: 2
#     Edge 129, Type (0, 1), BuildingBlock: XUDNAN_clean_linker_2, # of connection points: 2
#     Edge 130, Type (0, 1), BuildingBlock: XUDNAN_clean_linker_2, # of connection points: 2
#     Edge 131, Type (0, 1), BuildingBlock: XUDNAN_clean_linker_2, # of connection points: 2
#     Edge 132, Type (0, 1), BuildingBlock: XUDNAN_clean_linker_2, # of connection points: 2
#     Edge 133, Type (0, 1), BuildingBlock: XUDNAN_clean_linker_2, # of connection points: 2
#     Edge 134, Type (0, 1), BuildingBlock: XUDNAN_clean_linker_2, # of connection points: 2
#     Edge 135, Type (0, 1), BuildingBlock: XUDNAN_clean_linker_2, # of connection points: 2
# Relax obj value: 0.194
# Max RMSD: 0.298
# Mean RMSD: 0.172
data_MOF--net-gar--node1-QUQFOY_clean_sbu_1--node2-HISSIN_clean_sbu_0--edge1-XUDNAN_clean_linker_2
_symmetry_space_group_name_H-M    P1
_symmetry_Int_Tables_number       1
_symmetry_cell_setting            triclinic
loop_
_symmetry_equiv_pos_as_xyz
'x, y, z'
_cell_length_a     60.991417
_cell_length_b     60.864363
_cell_length_c     58.61835
_cell_angle_alpha  100.5314
_cell_angle_beta   93.734007
_cell_angle_gamma 103.62943
loop_
_atom_site_label
_atom_site_type_symbol
_atom_site_fract_x
_atom_site_fract_y
_atom_site_fract_z
_atom_type_partial_charge
O0 O 0.10679 0.2669 0.40769 0.0
Cd1 Cd 0.1064 0.29067 0.38681 0.0
Cd2 Cd 0.09422 0.31443 0.42597 0.0
O3 O 0.09932 0.28725 0.4401 0.0
O4 O 0.1247 0.28333 0.36115 0.0
O5 O 0.13422 0.31618 0.38741 0.0
C6 C 0.13853 0.30332 0.369 0.0
C7 C 0.10595 0.35245 0.44611 0.0
C8 C 0.10388 0.26912 0.42918 0.0
C9 C 0.06229 0.30272 0.38155 0.0
O10 O 0.06588 0.31055 0.40341 0.0
O11 O 0.07642 0.29355 0.37099 0.0
O12 O 0.08982 0.33773 0.45244 0.0
O13 O 0.11694 0.34499 0.4295 0.0
O14 O 1.01175 0.70912 0.66036 0.0
Cd15 Cd 1.00667 0.73052 0.68955 0.0
Cd16 Cd 0.03007 0.76594 0.67155 0.0
O17 O 0.03554 0.73759 0.64951 0.0
O18 O 0.97987 0.71465 0.70294 0.0
O19 O 0.98223 0.74715 0.69 0.0
C20 C 0.97099 0.73129 0.6998 0.0
C21 C 0.02749 0.79538 0.65151 0.0
C22 C 0.02603 0.7162 0.64686 0.0
C23 C 0.04705 0.76207 0.71939 0.0
O24 O 0.04693 0.77536 0.70501 0.0
O25 O 0.03324 0.74226 0.71555 0.0
O26 O 0.04653 0.79077 0.65652 0.0
O27 O 1.00968 0.78385 0.6588 0.0
O28 O 0.65997 0.83003 0.92769 0.0
Cd29 Cd 0.63088 0.82523 0.94435 0.0
Cd30 Cd 0.60934 0.81703 0.89893 0.0
O31 O 0.64204 0.8177 0.89204 0.0
O32 O 0.6379 0.81688 0.97477 0.0
O33 O 0.6137 0.7931 0.94591 0.0
C34 C 0.62384 0.79702 0.96687 0.0
C35 C 0.58131 0.796 0.86852 0.0
C36 C 0.66037 0.82475 0.90574 0.0
C37 C 0.60475 0.85857 0.9349 0.0
O38 O 0.6015 0.84725 0.91399 0.0
O39 O 0.61568 0.85227 0.95065 0.0
O40 O 0.59576 0.81451 0.86667 0.0
O41 O 0.5832 0.78857 0.88763 0.0
O42 O 0.51915 0.21627 0.16633 0.0
Cd43 Cd 0.51647 0.23919 0.19566 0.0
Cd44 Cd 0.54063 0.27332 0.17567 0.0
O45 O 0.54382 0.24331 0.15431 0.0
O46 O 0.49206 0.22512 0.21315 0.0
O47 O 0.49207 0.25608 0.19809 0.0
C48 C 0.48291 0.24175 0.21065 0.0
C49 C 0.53958 0.30263 0.15493 0.0
C50 C 0.53328 0.22223 0.15223 0.0
C51 C 0.55802 0.27057 0.22366 0.0
O52 O 0.55776 0.2836 0.20907 0.0
O53 O 0.54426 0.25079 0.2201 0.0
O54 O 0.55806 0.2969 0.15975 0.0
O55 O 0.52142 0.29208 0.16247 0.0
O56 O 0.10339 0.75789 0.12019 0.0
Cd57 Cd 0.09763 0.78628 0.14142 0.0
Cd58 Cd 0.1324 0.80683 0.1211 0.0
O59 O 0.13606 0.7742 0.10915 0.0
O60 O 0.06979 0.77127 0.15397 0.0
O61 O 0.07104 0.79981 0.13512 0.0
C62 C 0.05965 0.78492 0.1458 0.0
C63 C 0.12238 0.82591 0.09326 0.0
C64 C 0.12076 0.75625 0.10984 0.0
C65 C 0.13886 0.81643 0.17254 0.0
O66 O 0.14619 0.8232 0.15456 0.0
O67 O 0.12045 0.80091 0.17078 0.0
O68 O 0.1433 0.82565 0.09797 0.0
O69 O 0.1073 0.81596 0.10516 0.0
O70 O 0.56898 0.83257 0.4092 0.0
Cd71 Cd 0.53845 0.81908 0.421 0.0
Cd72 Cd 0.52204 0.83246 0.38234 0.0
O73 O 0.55545 0.84097 0.37699 0.0
O74 O 0.54869 0.80588 0.44709 0.0
O75 O 0.52597 0.78457 0.41602 0.0
C76 C 0.53725 0.78583 0.43585 0.0
C77 C 0.49555 0.81294 0.35065 0.0
C78 C 0.57215 0.84043 0.39072 0.0
C79 C 0.51234 0.85554 0.42846 0.0
O80 O 0.51188 0.85545 0.40677 0.0
O81 O 0.52107 0.84155 0.43726 0.0
O82 O 0.50662 0.83406 0.35218 0.0
O83 O 0.49969 0.80253 0.36715 0.0
O84 O 0.60703 0.26432 0.61971 0.0
Cd85 Cd 0.60414 0.29616 0.63707 0.0
Cd86 Cd 0.63468 0.30901 0.60758 0.0
O87 O 0.63551 0.27506 0.59942 0.0
O88 O 0.58117 0.28733 0.65855 0.0
O89 O 0.57587 0.30752 0.63199 0.0
C90 C 0.56856 0.2981 0.64896 0.0
C91 C 0.61674 0.32372 0.58045 0.0
C92 C 0.62137 0.25928 0.60613 0.0
C93 C 0.6501 0.3281 0.65753 0.0
O94 O 0.65508 0.32877 0.63692 0.0
O95 O 0.63098 0.31608 0.66085 0.0
O96 O 0.63805 0.32424 0.58033 0.0
O97 O 0.60587 0.31542 0.59646 0.0
O98 O 0.0175 0.26513 0.93896 0.0
Cd99 Cd 0.02077 0.28288 0.91179 0.0
Cd100 Cd 0.98813 0.29894 0.93472 0.0
O101 O 0.9916 0.27843 0.95773 0.0
O102 O 0.0462 0.27358 0.89652 0.0
O103 O 0.04844 0.30941 0.9145 0.0
C104 C 0.05788 0.2947 0.90287 0.0
C105 C 0.99617 0.33829 0.94813 0.0
C106 C 1.00542 0.26577 0.95586 0.0
C107 C 0.97546 0.2781 0.88453 0.0
O108 O 0.96839 0.28518 0.90369 0.0
O109 O 0.99591 0.27685 0.8839 0.0
O110 O 0.97685 0.32503 0.95038 0.0
O111 O 1.01108 0.32901 0.93826 0.0
O112 O 0.42463 0.04732 0.29221 0.0
Cd113 Cd 0.41046 0.05008 0.32324 0.0
Cd114 Cd 0.44594 0.03399 0.33574 0.0
O115 O 0.45522 0.03699 0.3033 0.0
O116 O 0.38387 0.06084 0.31359 0.0
O117 O 0.41048 0.08168 0.34163 0.0
C118 C 0.3917 0.07955 0.32895 0.0
C119 C 0.47021 0.05385 0.36871 0.0
C120 C 0.44308 0.04215 0.28771 0.0
C121 C 0.40071 1.00363 0.3369 0.0
O122 O 0.42183 1.00483 0.33824 0.0
O123 O 0.39339 0.0204 0.33245 0.0
O124 O 0.47362 0.03553 0.356 0.0
O125 O 0.45298 0.06117 0.36235 0.0
O126 O 0.31021 0.21295 0.56253 0.0
Cd127 Cd 0.31121 0.18509 0.53672 0.0
Cd128 Cd 0.28558 0.21369 0.51145 0.0
O129 O 0.2927 0.23479 0.54555 0.0
O130 O 0.32191 0.16676 0.55818 0.0
O131 O 0.34175 0.17762 0.53047 0.0
C132 C 0.33992 0.16736 0.54791 0.0
C133 C 0.29639 0.22604 0.47614 0.0
C134 C 0.3024 0.2307 0.56381 0.0
C135 C 0.26186 0.16385 0.51289 0.0
O136 O 0.25993 0.18303 0.50815 0.0
O137 O 0.28059 0.16192 0.52223 0.0
O138 O 0.2795 0.2314 0.48603 0.0
O139 O 0.30764 0.2145 0.48667 0.0
O140 O 0.19299 0.01702 0.74817 0.0
Cd141 Cd 0.22331 0.01955 0.77266 0.0
Cd142 Cd 0.17959 0.04504 0.8037 0.0
O143 O 0.16634 0.03244 0.76571 0.0
O144 O 0.24668 0.99947 0.75756 0.0
O145 O 0.22874 0.98827 0.7851 0.0
C146 C 0.24292 0.98397 0.77039 0.0
C147 C 0.15726 0.04705 0.84051 0.0
C148 C 0.17394 0.02324 0.74689 0.0
C149 C 0.22977 0.0763 0.79522 0.0
O150 O 0.21015 0.07179 0.8031 0.0
O151 O 0.23782 0.05924 0.78487 0.0
O152 O 0.15736 0.06014 0.82537 0.0
O153 O 0.16906 0.03215 0.83506 0.0
O154 O 0.2898 0.96773 0.0438 0.0
Cd155 Cd 0.29388 0.99491 0.02596 0.0
Cd156 Cd 0.30751 0.95357 0.99073 0.0
O157 O 0.29219 0.93823 0.01617 0.0
O158 O 0.27931 0.0185 0.04533 0.0
O159 O 0.26294 0.99836 1.01118 0.0
C160 C 0.26175 1.01279 0.02991 0.0
C161 C 0.30495 0.92794 0.95411 0.0
C162 C 0.28799 0.94624 0.03657 0.0
C163 C 0.34404 0.99941 1.0127 0.0
O164 O 0.33784 0.97858 1.00137 0.0
O165 O 0.32932 1.00969 0.02152 0.0
O166 O 0.3186 0.92784 0.97173 0.0
O167 O 0.29283 0.94278 0.95697 0.0
O168 O 0.33652 0.39271 0.09309 0.0
Cd169 Cd 0.34052 0.40966 0.06527 0.0
Cd170 Cd 0.34937 0.36736 0.04695 0.0
O171 O 0.33708 0.35701 0.0777 0.0
O172 O 0.32947 0.43758 0.07736 0.0
O173 O 0.31266 0.41219 0.04565 0.0
C174 C 0.31319 0.43082 0.06056 0.0
C175 C 0.33921 0.34683 1.00732 0.0
C176 C 0.33474 0.37191 0.09523 0.0
C177 C 0.38817 0.41126 0.05498 0.0
O178 O 0.38199 0.38931 0.05187 0.0
O179 O 0.37363 0.42309 0.05854 0.0
O180 O 0.35119 0.34006 0.02232 0.0
O181 O 0.33129 0.36434 0.01516 0.0
O182 O 0.83414 0.1324 0.08468 0.0
Cd183 Cd 0.83086 0.10672 0.05445 0.0
Cd184 Cd 0.8132 0.14046 0.03569 0.0
O185 O 0.82434 0.15973 0.06913 0.0
O186 O 0.85091 0.0849 0.06066 0.0
O187 O 0.85956 0.10815 0.03641 0.0
C188 C 0.86505 0.093 0.04694 0.0
C189 C 0.8187 0.15901 1.00381 0.0
C190 C 0.83093 0.15267 0.08688 0.0
C191 C 0.77882 0.09567 0.03729 0.0
O192 O 0.78282 0.11575 0.03265 0.0
O193 O 0.7954 0.08801 0.0446 0.0
O194 O 0.80451 0.16312 0.01833 0.0
O195 O 0.83033 0.14459 1.00759 0.0
O196 O 0.21417 0.51482 0.1849 0.0
Cd197 Cd 0.24259 0.5337 0.20709 0.0
Cd198 Cd 0.21246 0.54648 0.23653 0.0
O199 O 0.19033 0.52537 0.20889 0.0
O200 O 0.26766 0.51814 0.21056 0.0
O201 O 0.24663 0.52711 0.23864 0.0
C202 C 0.26325 0.51874 0.23194 0.0
C203 C 0.19984 0.54647 0.27333 0.0
C204 C 0.194 0.51425 0.18957 0.0
C205 C 0.24696 0.58341 0.21918 0.0
O206 O 0.23171 0.57794 0.23237 0.0
O207 O 0.25382 0.56794 0.20612 0.0
O208 O 0.19151 0.5564 0.25854 0.0
O209 O 0.21543 0.53624 0.26723 0.0
O210 O 0.82598 0.89043 0.59588 0.0
Cd211 Cd 0.83023 0.90605 0.56734 0.0
Cd212 Cd 0.84955 0.86998 0.55343 0.0
O213 O 0.83782 0.85907 0.58442 0.0
O214 O 0.81079 0.92868 0.57142 0.0
O215 O 0.80474 0.89967 0.54118 0.0
C216 C 0.79878 0.9174 0.55211 0.0
C217 C 0.84167 0.84891 0.51392 0.0
C218 C 0.82964 0.87165 0.59989 0.0
C219 C 0.88051 0.91828 0.56228 0.0
O220 O 0.87925 0.8967 0.55834 0.0
O221 O 0.86268 0.92544 0.56528 0.0
O222 O 0.85517 0.84423 0.52921 0.0
O223 O 0.83103 0.86436 0.52143 0.0
O224 O 0.94918 0.06582 0.24272 0.0
Cd225 Cd 0.92089 0.06806 0.26518 0.0
Cd226 Cd 0.96638 0.04267 0.29231 0.0
O227 O 0.9767 0.05143 0.25774 0.0
O228 O 0.89713 0.0877 0.25331 0.0
O229 O 0.92068 0.1028 0.28391 0.0
C230 C 0.90488 0.10585 0.2698 0.0
C231 C 0.98996 0.04233 0.33028 0.0
C232 C 0.96805 0.05929 0.2408 0.0
C233 C 0.91294 1.015 0.28051 0.0
O234 O 0.93417 0.01799 0.28702 0.0
O235 O 0.9056 0.0318 0.27371 0.0
O236 O 0.98892 0.02817 0.31062 0.0
O237 O 0.97908 0.05794 0.32866 0.0
O238 O 0.34089 0.63334 0.58784 0.0
Cd239 Cd 0.33568 0.60572 0.55873 0.0
Cd240 Cd 0.318 0.63678 0.53767 0.0
O241 O 0.32747 0.65751 0.57038 0.0
O242 O 0.36009 0.58734 0.56187 0.0
O243 O 0.36014 0.60932 0.53611 0.0
C244 C 0.37024 0.59633 0.54581 0.0
C245 C 0.32379 0.65433 0.50536 0.0
C246 C 0.33603 0.65276 0.58864 0.0
C247 C 0.2838 0.59299 0.5408 0.0
O248 O 0.28796 0.61224 0.53444 0.0
O249 O 0.30023 0.58623 0.54989 0.0
O250 O 0.30899 0.65821 0.51918 0.0
O251 O 0.33591 0.64063 0.51006 0.0
O252 O 0.45282 0.56597 0.73731 0.0
Cd253 Cd 0.42374 0.5684 0.75922 0.0
Cd254 Cd 0.46711 0.54338 0.79056 0.0
O255 O 0.47799 0.55158 0.75643 0.0
O256 O 0.4007 0.58889 0.74727 0.0
O257 O 0.42268 0.60249 0.77912 0.0
C258 C 0.40758 0.6063 0.76471 0.0
C259 C 0.49084 0.54185 0.82787 0.0
C260 C 0.47149 0.55892 0.73809 0.0
C261 C 0.41429 0.51537 0.7755 0.0
O262 O 0.435 0.51862 0.78414 0.0
O263 O 0.40777 0.53192 0.76722 0.0
O264 O 0.48899 0.52766 0.8081 0.0
O265 O 0.4806 0.55803 0.82676 0.0
O266 O 0.71693 0.02198 0.70002 0.0
Cd267 Cd 0.74691 0.03995 0.72031 0.0
Cd268 Cd 0.72051 0.05661 0.75058 0.0
O269 O 0.69608 0.03826 0.72382 0.0
O270 O 0.77064 0.02246 0.72042 0.0
O271 O 0.75331 0.03272 0.75132 0.0
C272 C 0.76827 0.02298 0.74227 0.0
C273 C 0.70845 0.05811 0.78771 0.0
C274 C 0.69772 0.02503 0.70493 0.0
C275 C 0.75532 0.09041 0.73086 0.0
O276 O 0.74115 0.08672 0.74553 0.0
O277 O 0.76008 0.07364 0.71755 0.0
O278 O 0.70144 0.06909 0.77317 0.0
O279 O 0.72265 0.04614 0.78128 0.0
O280 O 0.81671 0.71783 0.06791 0.0
Cd281 Cd 0.81759 0.691 0.04075 0.0
Cd282 Cd 0.79272 0.72015 0.01785 0.0
O283 O 0.79851 0.73995 0.05225 0.0
O284 O 0.83145 0.67268 0.06005 0.0
O285 O 0.84802 0.68549 0.0312 0.0
C286 C 0.84851 0.67474 0.04818 0.0
C287 C 0.80489 0.73513 0.98441 0.0
C288 C 0.80843 0.73533 0.07005 0.0
C289 C 0.76828 0.67016 0.01767 0.0
O290 O 0.76702 0.68954 1.01307 0.0
O291 O 0.78676 0.66759 0.02698 0.0
O292 O 0.78642 0.73792 0.99276 0.0
O293 O 0.81671 0.7243 0.99524 0.0
O294 O 0.92835 0.5574 0.77766 0.0
Cd295 Cd 0.90188 0.55477 0.79772 0.0
Cd296 Cd 0.93263 0.55129 0.83317 0.0
O297 O 0.9499 0.54848 0.80427 0.0
O298 O 0.87887 0.5676 0.78316 0.0
O299 O 0.89578 0.58154 0.8194 0.0
C300 C 0.88109 0.5821 0.80272 0.0
C301 C 0.95898 0.56411 0.86659 0.0
C302 C 0.94652 0.55237 0.78399 0.0
C303 C 0.88899 0.51426 0.81992 0.0
O304 O 0.90539 0.52476 0.83552 0.0
O305 O 0.88569 0.52236 0.80187 0.0
O306 O 0.95555 0.54385 0.85385 0.0
O307 O 0.94666 0.57729 0.861 0.0
O308 O 0.79472 0.47324 0.54428 0.0
Cd309 Cd 0.79782 0.49797 0.52359 0.0
Cd310 Cd 0.81384 0.45388 0.49315 0.0
O311 O 0.7998 0.44194 0.52108 0.0
O312 O 0.77814 0.51994 0.53764 0.0
O313 O 0.76786 0.49594 0.5039 0.0
C314 C 0.76256 0.51054 0.52026 0.0
C315 C 0.81636 0.42427 0.4609 0.0
C316 C 0.79497 0.45199 0.54044 0.0
C317 C 0.8484 0.50209 0.51153 0.0
O318 O 0.84285 0.48059 0.50247 0.0
O319 O 0.83325 0.51275 0.51854 0.0
O320 O 0.8273 0.42721 0.48114 0.0
O321 O 0.80373 0.43814 0.45848 0.0
O322 O 0.6907 0.51613 0.24417 0.0
Cd323 Cd 0.72007 0.51665 0.26924 0.0
Cd324 Cd 0.6816 0.54628 0.30265 0.0
O325 O 0.66746 0.53372 0.26522 0.0
O326 O 0.74146 0.49279 0.25646 0.0
O327 O 0.72184 0.48679 0.28469 0.0
C328 C 0.73564 0.47936 0.27105 0.0
C329 C 0.65913 0.54834 0.33916 0.0
C330 C 0.67273 0.52423 0.24516 0.0
C331 C 0.73139 0.57423 0.29242 0.0
O332 O 0.71244 0.57286 0.30154 0.0
O333 O 0.73672 0.55537 0.28215 0.0
O334 O 0.65966 0.56171 0.32425 0.0
O335 O 0.67071 0.53325 0.33372 0.0
Eu336 Eu 0.07364 0.08087 0.04763 0.0
Eu337 Eu 0.05449 0.02661 0.03493 0.0
C338 C 0.08104 0.05297 0.99464 0.0
C339 C 0.08058 0.14504 0.06624 0.0
C340 C 0.05697 0.14138 0.06604 0.0
C341 C 0.08412 0.18563 0.06741 0.0
C342 C 0.04686 0.15953 0.06495 0.0
C343 C 0.0942 0.16743 0.0683 0.0
C344 C 0.06033 0.18146 0.06404 0.0
C345 C 0.09034 0.12544 0.05927 0.0
O346 O 0.09243 0.02899 0.03969 0.0
O347 O 0.10518 0.06761 0.0551 0.0
C348 C 0.10927 0.0472 0.04811 0.0
O349 O 0.05391 0.07442 0.07935 0.0
O350 O 0.03491 0.99581 1.01008 0.0
O351 O 0.04784 0.9932 0.04469 0.0
O352 O 0.04662 0.03527 0.07429 0.0
C353 C 0.04554 0.0554 0.08719 0.0
O354 O 0.03581 0.07887 0.03937 0.0
O355 O 0.02275 0.03958 0.02912 0.0
O356 O 0.07223 0.03325 1.00128 0.0
O357 O 0.09058 0.11171 0.07392 0.0
O358 O 0.0835 0.11418 0.03786 0.0
O359 O 0.08077 0.07262 1.00878 0.0
C360 C 0.04631 0.96214 1.01417 0.0
C361 C 0.03129 0.94019 1.00823 0.0
C362 C 0.07816 0.9449 1.00986 0.0
C363 C 0.03972 0.92057 1.00406 0.0
C364 C 0.06969 0.96448 1.01375 0.0
C365 C 0.0633 0.92273 1.00621 0.0
C366 C 0.0379 0.98203 0.02401 0.0
C367 C 0.01881 0.06027 0.03323 0.0
H368 H 0.04625 0.12411 0.0645 0.0
H369 H 0.09486 0.20248 0.06708 0.0
H370 H 0.0285 0.15578 0.06229 0.0
H371 H 0.11246 0.1705 0.06853 0.0
H372 H 1.01316 0.93816 1.00828 0.0
H373 H 0.09639 0.94729 1.01181 0.0
H374 H 0.02785 0.90372 1.00081 0.0
H375 H 0.0815 0.98139 0.01817 0.0
Eu376 Eu 0.31007 0.80397 0.24194 0.0
Eu377 Eu 0.30276 0.7931 0.29483 0.0
C378 C 0.26462 0.80653 0.26478 0.0
C379 C 0.30682 0.82563 0.18386 0.0
C380 C 0.30074 0.84646 0.19131 0.0
C381 C 0.29783 0.82795 0.14357 0.0
C382 C 0.29339 0.85806 0.17488 0.0
C383 C 0.30524 0.81649 0.15992 0.0
C384 C 0.29183 0.84888 0.1508 0.0
C385 C 0.31516 0.81314 0.20043 0.0
O386 O 0.28667 0.76006 0.26891 0.0
O387 O 0.3079 0.76624 0.23875 0.0
C388 C 0.29459 0.75231 0.24955 0.0
O389 O 0.34431 0.80354 0.25863 0.0
O390 O 0.28182 0.77673 0.31893 0.0
O391 O 0.31512 0.79942 0.33175 0.0
O392 O 0.33329 0.78056 0.28505 0.0
C393 C 0.34868 0.7903 0.27284 0.0
O394 O 0.31033 0.83754 0.26572 0.0
O395 O 0.32516 0.82894 0.29881 0.0
O396 O 0.27585 0.81076 0.28558 0.0
O397 O 0.32777 0.8254 0.21944 0.0
O398 O 0.30078 0.79492 0.20417 0.0
O399 O 0.27285 0.79814 0.24595 0.0
C400 C 0.30209 0.76922 0.35123 0.0
C401 C 0.30776 0.74872 0.34151 0.0
C402 C 0.3066 0.76056 0.38974 0.0
C403 C 0.31272 0.73411 0.35591 0.0
C404 C 0.30161 0.77506 0.37537 0.0
C405 C 0.3121 0.73984 0.38021 0.0
C406 C 0.29739 0.78522 0.33676 0.0
C407 C 0.32106 0.844 0.28688 0.0
H408 H 0.30173 0.85377 0.20976 0.0
H409 H 0.29722 0.82059 0.12519 0.0
H410 H 0.28875 0.87407 0.18098 0.0
H411 H 0.30993 0.80049 0.15384 0.0
H412 H 0.30836 0.74407 0.32286 0.0
H413 H 0.30642 0.76576 0.4084 0.0
H414 H 0.31673 0.71822 0.34801 0.0
H415 H 0.29753 0.79096 0.38316 0.0
Eu416 Eu 0.59223 0.04138 0.53563 0.0
Eu417 Eu 0.54814 0.04867 0.56506 0.0
C418 C 0.58557 0.02586 0.58411 0.0
C419 C 0.64299 0.01719 0.51778 0.0
C420 C 0.64775 1.00957 0.53836 0.0
C421 C 0.66846 0.99619 0.49878 0.0
C422 C 0.663 0.99564 0.53923 0.0
C423 C 0.65334 1.01023 0.49799 0.0
C424 C 0.67366 0.98887 0.51947 0.0
C425 C 0.62818 0.03319 0.51692 0.0
O426 O 0.56891 0.0842 0.56564 0.0
O427 O 0.60347 0.07654 0.5597 0.0
C428 C 0.59098 0.09101 0.56608 0.0
O429 O 0.57601 0.06199 0.51484 0.0
O430 O 0.53315 0.06513 0.59428 0.0
O431 O 0.51179 0.03782 0.56737 0.0
O432 O 0.54126 0.05706 0.5298 0.0
C433 C 0.55492 0.06379 0.5145 0.0
O434 O 0.56087 1.01486 0.51729 0.0
O435 O 0.54206 1.01098 0.54939 0.0
O436 O 0.57411 0.0414 0.59009 0.0
O437 O 0.60751 0.02446 0.50669 0.0
O438 O 0.62897 0.04836 0.53598 0.0
O439 O 0.58871 0.01923 0.56234 0.0
C440 C 0.49536 0.06721 0.58454 0.0
C441 C 0.49874 0.08614 0.5734 0.0
C442 C 0.45806 0.07229 0.59232 0.0
C443 C 0.48188 0.09821 0.57192 0.0
C444 C 0.47487 0.06034 0.59383 0.0
C445 C 0.46136 0.09152 0.58154 0.0
C446 C 0.51241 0.05374 0.58577 0.0
C447 C 0.54523 1.00312 0.52786 0.0
H448 H 0.63988 1.01459 0.55387 0.0
H449 H 0.67651 0.99154 0.48332 0.0
H450 H 0.66637 0.99009 0.55534 0.0
H451 H 0.65001 0.01597 0.48196 0.0
H452 H 0.51439 0.09155 0.56587 0.0
H453 H 0.44232 0.06628 0.59945 0.0
H454 H 0.48505 0.11296 0.56359 0.0
H455 H 0.4718 0.04557 0.60216 0.0
Eu456 Eu 0.29378 0.30169 0.78561 0.0
Eu457 Eu 0.34285 0.2915 0.78287 0.0
C458 C 0.29902 0.24807 0.78816 0.0
C459 C 0.23599 0.30912 0.80437 0.0
C460 C 0.24142 0.31765 0.82855 0.0
C461 C 0.19594 0.3015 0.80947 0.0
C462 C 0.22415 0.31845 0.84303 0.0
C463 C 0.21317 0.30088 0.79501 0.0
C464 C 0.20124 0.31052 0.83359 0.0
C465 C 0.25367 0.30978 0.78842 0.0
O466 O 0.33151 0.28867 0.74471 0.0
O467 O 0.29469 0.29111 0.7465 0.0
C468 C 0.3115 0.28786 0.73442 0.0
O469 O 0.31511 0.33612 0.77831 0.0
O470 O 0.36454 0.2694 0.7697 0.0
O471 O 0.37925 0.3015 0.79439 0.0
O472 O 0.35113 0.33167 0.78345 0.0
C473 C 0.33734 0.34514 0.78007 0.0
O474 O 0.30866 0.31171 0.8237 0.0
O475 O 0.33728 0.29327 0.82104 0.0
O476 O 0.31988 0.25429 0.78207 0.0
O477 O 0.27273 0.32541 0.79528 0.0
O478 O 0.25675 0.29005 0.77807 0.0
O479 O 0.28752 0.26418 0.79257 0.0
C480 C 0.40166 0.28879 0.76562 0.0
C481 C 0.40627 0.30883 0.75626 0.0
C482 C 0.43085 0.27572 0.74485 0.0
C483 C 0.42323 0.31236 0.74136 0.0
C484 C 0.41405 0.27232 0.75982 0.0
C485 C 0.43571 0.2958 0.73545 0.0
C486 C 0.38317 0.28397 0.78029 0.0
C487 C 0.32446 0.30407 0.83366 0.0
H488 H 0.25895 0.324 0.83621 0.0
H489 H 0.17844 0.2955 0.80167 0.0
H490 H 0.2287 0.32525 0.86158 0.0
H491 H 0.20866 0.29435 0.7764 0.0
H492 H 0.39668 0.32166 0.76032 0.0
H493 H 0.43974 0.26237 0.74032 0.0
H494 H 0.42666 0.3281 0.73463 0.0
H495 H 0.41049 0.25659 0.76662 0.0
Eu496 Eu 0.07413 0.05636 0.55039 0.0
Eu497 Eu 0.08119 1.00616 0.52918 0.0
C498 C 0.11968 0.0522 0.52545 0.0
C499 C 0.07759 0.11881 0.5538 0.0
C500 C 0.09984 0.12519 0.54784 0.0
C501 C 0.0676 0.14743 0.53394 0.0
C502 C 0.10572 0.14205 0.53458 0.0
C503 C 0.06167 0.13046 0.54724 0.0
C504 C 0.08952 0.15288 0.52695 0.0
C505 C 0.07031 0.09834 0.56425 0.0
O506 O 0.09145 1.0103 0.56865 0.0
O507 O 0.09288 0.04817 0.58308 0.0
C508 C 0.09684 0.0283 0.58634 0.0
O509 O 0.04478 0.03282 0.56214 0.0
O510 O 0.09915 0.97908 0.52974 0.0
O511 O 0.06866 0.97233 0.50605 0.0
O512 O 0.04437 0.99975 0.5363 0.0
C513 C 0.03469 1.01155 0.55174 0.0
O514 O 0.05776 0.04854 0.5111 0.0
O515 O 0.07222 0.01835 0.49562 0.0
O516 O 0.11467 0.02974 0.5243 0.0
O517 O 0.05386 0.08176 0.55203 0.0
O518 O 0.08649 0.09047 0.57282 0.0
O519 O 0.10573 0.0647 0.53267 0.0
C520 C 0.07244 0.94373 0.52677 0.0
C521 C 0.05672 0.9466 0.54281 0.0
C522 C 0.0691 0.90481 0.53312 0.0
C523 C 0.04715 0.92877 0.5538 0.0
C524 C 0.07853 0.92271 0.52188 0.0
C525 C 0.05334 0.90773 0.54925 0.0
C526 C 0.08292 0.96329 0.51629 0.0
C527 C 0.06092 0.03388 0.49243 0.0
H528 H 0.11256 0.11659 0.55266 0.0
H529 H 0.05474 0.15545 0.5282 0.0
H530 H 0.12283 0.14623 0.52978 0.0
H531 H 0.0444 0.12576 0.55154 0.0
H532 H 0.05213 0.96285 0.54721 0.0
H533 H 0.07415 0.88874 0.52927 0.0
H534 H 0.03545 0.93176 0.56647 0.0
H535 H 0.09076 0.92025 0.50967 0.0
Eu536 Eu 0.35145 0.81141 0.77438 0.0
Eu537 Eu 0.30107 0.77998 0.76322 0.0
C538 C 0.31803 0.81511 0.81443 0.0
C539 C 0.41373 0.82449 0.77645 0.0
C540 C 0.41056 0.80086 0.76704 0.0
C541 C 0.45312 0.82723 0.78874 0.0
C542 C 0.42832 0.79029 0.76926 0.0
C543 C 0.43523 0.83775 0.78674 0.0
C544 C 0.44958 0.80325 0.78074 0.0
C545 C 0.39384 0.83394 0.77917 0.0
O546 O 0.29427 0.81705 0.76397 0.0
O547 O 0.33092 0.83797 0.76554 0.0
C548 C 0.30879 0.83747 0.76465 0.0
O549 O 0.35053 0.78541 0.74131 0.0
O550 O 0.27411 0.75483 0.77419 0.0
O551 O 0.26891 0.76561 0.74128 0.0
O552 O 0.31331 0.77665 0.72747 0.0
C553 C 0.33405 0.77516 0.72464 0.0
O554 O 0.35693 0.77613 0.78158 0.0
O555 O 0.32255 0.75206 0.76589 0.0
O556 O 0.30194 0.79971 0.80004 0.0
O557 O 0.38015 0.83119 0.76016 0.0
O558 O 0.38298 0.82856 0.79665 0.0
O559 O 0.3389 0.82079 0.80922 0.0
C560 C 0.23806 0.76023 0.76375 0.0
C561 C 0.23268 0.78061 0.76008 0.0
C562 C 0.20263 0.74972 0.78049 0.0
C563 C 0.21217 0.78515 0.76589 0.0
C564 C 0.22309 0.74502 0.77435 0.0
C565 C 0.1967 0.76962 0.77588 0.0
C566 C 0.25943 0.75507 0.75703 0.0
C567 C 0.3442 0.75454 0.77409 0.0
H568 H 0.394 0.7903 0.75916 0.0
H569 H 0.46928 0.83758 0.79795 0.0
H570 H 0.42518 0.77184 0.76287 0.0
H571 H 0.43787 0.85591 0.79438 0.0
H572 H 0.2441 0.79288 0.75228 0.0
H573 H 0.19131 0.73756 0.78849 0.0
H574 H 0.20814 0.80043 0.76165 0.0
H575 H 0.22712 0.72941 0.7777 0.0
Eu576 Eu 0.55963 0.03278 0.04961 0.0
Eu577 Eu 0.56315 0.05491 1.00328 0.0
C578 C 0.56245 0.08614 0.05274 0.0
C579 C 0.53992 0.01811 0.10552 0.0
C580 C 0.5269 0.03436 0.10658 0.0
C581 C 0.52416 1.00606 0.13941 0.0
C582 C 0.5128 0.03668 0.12417 0.0
C583 C 0.53837 1.00385 0.12185 0.0
C584 C 0.51138 0.02265 0.14087 0.0
C585 C 0.55525 0.01632 0.08752 0.0
O586 O 0.59939 0.05209 1.01129 0.0
O587 O 0.59791 0.04675 0.04902 0.0
C588 C 0.60964 0.05101 0.03141 0.0
O589 O 0.57015 1.00681 0.02338 0.0
O590 O 0.57347 0.08427 0.98651 0.0
O591 O 0.5551 0.05117 0.96565 0.0
O592 O 0.55558 0.01622 0.99075 0.0
C593 C 0.56371 1.00189 1.00095 0.0
O594 O 0.52283 0.02466 0.03262 0.0
O595 O 0.52706 0.05382 1.01231 0.0
O596 O 0.57292 0.08473 0.03395 0.0
O597 O 0.54572 1.00458 0.06692 0.0
O598 O 0.56965 0.03566 0.08652 0.0
O599 O 0.55213 0.0675 0.05962 0.0
C600 C 0.58523 0.07269 0.94986 0.0
C601 C 0.6076 0.07413 0.95868 0.0
C602 C 0.59638 0.06882 0.91068 0.0
C603 C 0.6242 0.07276 0.94362 0.0
C604 C 0.57974 0.07021 0.92581 0.0
C605 C 0.61872 0.06981 0.91944 0.0
C606 C 0.56737 0.07178 0.96551 0.0
C607 C 0.51389 0.03816 0.02166 0.0
H608 H 0.52789 0.04547 0.09399 0.0
H609 H 0.52316 0.99478 0.15182 0.0
H610 H 0.50345 0.04983 0.12499 0.0
H611 H 0.54824 0.99113 0.1211 0.0
H612 H 0.6122 0.07593 0.9772 0.0
H613 H 0.59159 0.06627 0.89208 0.0
H614 H 0.6413 0.07389 0.95088 0.0
H615 H 0.5625 0.0688 0.91869 0.0
Eu616 Eu 0.32874 0.32365 0.3024 0.0
Eu617 Eu 0.30139 0.27428 0.27006 0.0
C618 C 0.3153 0.31764 0.24537 0.0
C619 C 0.34858 0.38678 0.32048 0.0
C620 C 0.33643 0.38665 0.29933 0.0
C621 C 0.35374 0.42826 0.33142 0.0
C622 C 0.33301 0.40702 0.29414 0.0
C623 C 0.35737 0.40767 0.33652 0.0
C624 C 0.34146 0.42804 0.31015 0.0
C625 C 0.35036 0.36461 0.32572 0.0
O626 O 0.33781 0.28055 0.26329 0.0
O627 O 0.35338 0.30105 0.29949 0.0
C628 C 0.355 0.2881 0.27955 0.0
O629 O 0.31493 0.30167 0.32823 0.0
O630 O 0.29645 0.24644 0.23933 0.0
O631 O 0.27561 0.24194 0.26738 0.0
O632 O 0.31472 0.26738 0.30478 0.0
C633 C 0.31409 0.27959 0.32566 0.0
O634 O 0.29376 0.32806 0.29416 0.0
O635 O 0.27453 0.28989 0.28556 0.0
O636 O 0.30029 0.29791 0.24448 0.0
O637 O 0.33181 0.35247 0.33169 0.0
O638 O 0.35923 0.35219 0.31013 0.0
O639 O 0.32907 0.32836 0.26459 0.0
C640 C 0.29328 0.2127 0.25458 0.0
C641 C 0.31699 0.21592 0.25684 0.0
C642 C 0.28982 0.18073 0.27473 0.0
C643 C 0.32702 0.20239 0.26875 0.0
C644 C 0.27971 0.19445 0.26287 0.0
C645 C 0.31359 0.18532 0.27861 0.0
C646 C 0.2838 0.23166 0.24965 0.0
C647 C 0.27489 0.31179 0.29183 0.0
H648 H 0.32902 0.37058 0.28708 0.0
H649 H 0.36028 0.44424 0.34411 0.0
H650 H 0.32292 0.40612 0.27792 0.0
H651 H 0.36658 0.40798 0.35306 0.0
H652 H 0.32801 0.22999 0.25091 0.0
H653 H 0.27914 0.16752 0.28208 0.0
H654 H 0.34538 0.2059 0.27105 0.0
H655 H 0.26145 0.19191 0.2617 0.0
Eu656 Eu 0.57454 0.55669 0.0453 0.0
Eu657 Eu 0.58962 0.50989 0.0276 0.0
C658 C 0.62374 0.55824 0.02408 0.0
C659 C 0.57016 0.6183 0.05288 0.0
C660 C 0.57854 0.61974 0.03131 0.0
C661 C 0.57397 0.65966 0.0608 0.0
C662 C 0.58464 0.64104 0.02454 0.0
C663 C 0.56777 0.63833 0.0675 0.0
C664 C 0.58264 0.66128 0.03931 0.0
C665 C 0.56512 0.59619 0.06066 0.0
O666 O 0.60642 0.51969 0.06599 0.0
O667 O 0.58641 0.54584 0.07958 0.0
C668 C 0.60052 0.53292 0.08388 0.0
O669 O 0.54228 0.52823 0.04355 0.0
O670 O 0.61127 0.48576 0.02472 0.0
O671 O 0.57691 0.47481 1.00733 0.0
O672 O 0.56089 0.50122 0.04911 0.0
C673 C 0.5421 0.50791 0.04818 0.0
O674 O 0.56508 0.55219 1.00545 0.0
O675 O 0.57149 0.51643 0.99397 0.0
O676 O 0.61928 0.53561 0.01927 0.0
O677 O 0.55106 0.57889 0.04646 0.0
O678 O 0.58271 0.59033 0.06904 0.0
O679 O 0.60951 0.56927 0.03391 0.0
C680 C 0.58894 0.44847 0.02666 0.0
C681 C 0.57092 0.42928 0.01673 0.0
C682 C 0.59116 0.43287 0.06189 0.0
C683 C 0.56265 0.41241 0.0295 0.0
C684 C 0.59926 0.44987 0.04923 0.0
C685 C 0.57243 0.41425 0.05236 0.0
C686 C 0.59446 0.46822 1.01479 0.0
C687 C 0.56403 0.53401 0.98873 0.0
H688 H 0.58073 0.60445 0.01989 0.0
H689 H 0.57202 0.67491 0.07245 0.0
H690 H 0.59154 0.64174 1.00804 0.0
H691 H 0.56142 0.63753 0.08425 0.0
H692 H 0.56259 0.42783 0.99942 0.0
H693 H 0.59894 0.43482 0.07953 0.0
H694 H 0.54838 0.39809 0.02162 0.0
H695 H 0.61302 0.46454 0.05755 0.0
Eu696 Eu 0.84142 0.30738 0.26486 0.0
Eu697 Eu 0.79708 0.27689 0.27822 0.0
C698 C 0.82761 0.3152 0.31713 0.0
C699 C 0.9037 0.32822 0.25648 0.0
C700 C 0.90805 0.30729 0.25969 0.0
C701 C 0.94393 0.34654 0.26383 0.0
C702 C 0.93011 0.3065 0.2667 0.0
C703 C 0.92184 0.34735 0.25699 0.0
C704 C 0.94792 0.32667 0.27055 0.0
C705 C 0.88111 0.33197 0.259 0.0
O706 O 0.78826 0.31256 0.27523 0.0
O707 O 0.8179 0.33195 0.2591 0.0
C708 C 0.79792 0.33138 0.26713 0.0
O709 O 0.82798 0.28327 0.22993 0.0
O710 O 0.77624 0.26268 0.30369 0.0
O711 O 0.76174 0.25847 0.26789 0.0
O712 O 0.80059 0.2572 0.24279 0.0
C713 C 0.8136 0.26292 0.22678 0.0
O714 O 0.85244 0.27413 0.27319 0.0
O715 O 0.81868 0.24945 0.27642 0.0
O716 O 0.81849 0.29301 0.31254 0.0
O717 O 0.86512 0.32216 0.2418 0.0
O718 O 0.87429 0.32989 0.2793 0.0
O719 O 0.83373 0.32541 0.29994 0.0
C720 C 0.73841 0.26515 0.29719 0.0
C721 C 0.73516 0.28576 0.29186 0.0
C722 C 0.70245 0.25901 0.31351 0.0
C723 C 0.71535 0.2925 0.29642 0.0
C724 C 0.72233 0.25218 0.30874 0.0
C725 C 0.69834 0.2788 0.30655 0.0
C726 C 0.75771 0.25654 0.28914 0.0
C727 C 0.84086 0.25281 0.27484 0.0
H728 H 0.89416 0.29234 0.25934 0.0
H729 H 0.95747 0.36219 0.26631 0.0
H730 H 0.93267 0.29095 0.27175 0.0
H731 H 0.91873 0.36361 0.2545 0.0
H732 H 0.74735 0.29601 0.28293 0.0
H733 H 0.68986 0.24825 0.32167 0.0
H734 H 0.7128 0.3076 0.2904 0.0
H735 H 0.7247 0.23632 0.3132 0.0
Eu736 Eu 0.06334 0.53087 0.54747 0.0
Eu737 Eu 0.06873 0.55402 0.50099 0.0
C738 C 0.06547 0.58516 0.54988 0.0
C739 C 0.05221 0.5195 0.6085 0.0
C740 C 0.02858 0.51533 0.60874 0.0
C741 C 0.05726 0.53076 0.65075 0.0
C742 C 0.01937 0.51869 0.62993 0.0
C743 C 0.06642 0.52719 0.62964 0.0
C744 C 0.03363 0.52642 0.65117 0.0
C745 C 0.06262 0.5163 0.58663 0.0
O746 O 0.10589 0.5585 0.51341 0.0
O747 O 0.10145 0.53914 0.54369 0.0
C748 C 0.11454 0.55024 0.53016 0.0
O749 O 0.06363 0.50067 0.51939 0.0
O750 O 0.07951 0.58179 0.48229 0.0
O751 O 0.05845 0.54861 0.46361 0.0
O752 O 0.07774 0.51996 0.49124 0.0
C753 C 0.073 0.50127 0.49998 0.0
O754 O 0.02617 0.52628 0.53471 0.0
O755 O 0.03095 0.54831 0.50654 0.0
O756 O 0.07439 0.58458 0.53017 0.0
O757 O 0.04946 0.50502 0.56757 0.0
O758 O 0.07758 0.53431 0.58331 0.0
O759 O 0.0574 0.56639 0.55781 0.0
C760 C 0.08782 0.56734 0.44477 0.0
C761 C 0.11003 0.56654 0.45177 0.0
C762 C 0.09597 0.56243 0.40452 0.0
C763 C 0.12513 0.56373 0.43526 0.0
C764 C 0.0809 0.56537 0.4211 0.0
C765 C 0.11822 0.56143 0.41142 0.0
C766 C 0.07146 0.5685 0.46193 0.0
C767 C 0.01773 0.53642 0.51946 0.0
H768 H 0.01724 0.50946 0.59263 0.0
H769 H 0.06875 0.53714 0.66673 0.0
H770 H 1.00108 0.51493 0.62966 0.0
H771 H 0.0847 0.53061 0.62981 0.0
H772 H 0.11565 0.56779 0.46998 0.0
H773 H 0.09 0.56034 0.38626 0.0
H774 H 0.14221 0.56334 0.44118 0.0
H775 H 0.06372 0.56565 0.41539 0.0
Eu776 Eu 0.79762 0.79831 0.29206 0.0
Eu777 Eu 0.84838 0.79275 0.28953 0.0
C778 C 0.80613 0.74542 0.29038 0.0
C779 C 0.74295 0.81524 0.30952 0.0
C780 C 0.72497 0.80277 0.31935 0.0
C781 C 0.73359 0.85089 0.32668 0.0
C782 C 0.71133 0.81415 0.33259 0.0
C783 C 0.74741 0.83944 0.31348 0.0
C784 C 0.71533 0.83829 0.33621 0.0
C785 C 0.75611 0.80225 0.29475 0.0
O786 O 0.83659 0.78937 0.25142 0.0
O787 O 0.79857 0.78632 0.25324 0.0
C788 C 0.81593 0.78577 0.24116 0.0
O789 O 0.81738 0.83567 0.28999 0.0
O790 O 0.87114 0.77067 0.28043 0.0
O791 O 0.88523 0.80648 0.29713 0.0
O792 O 0.85389 0.83216 0.28881 0.0
C793 C 0.8392 0.84524 0.28882 0.0
O794 O 0.81299 0.81121 0.32994 0.0
O795 O 0.84382 0.79595 0.32801 0.0
O796 O 0.82775 0.7548 0.28825 0.0
O797 O 0.76999 0.81313 0.28212 0.0
O798 O 0.76455 0.78781 0.30415 0.0
O799 O 0.79194 0.75899 0.29259 0.0
C800 C 0.9056 0.78882 0.26907 0.0
C801 C 0.90698 0.80485 0.25439 0.0
C802 C 0.93125 0.771 0.24684 0.0
C803 C 0.92047 0.80389 0.23596 0.0
C804 C 0.91808 0.77216 0.26537 0.0
C805 C 0.9323 0.78661 0.23178 0.0
C806 C 0.88947 0.78736 0.28661 0.0
C807 C 0.83002 0.8056 0.3403 0.0
H808 H 0.72116 0.78409 0.31638 0.0
H809 H 0.73699 0.86951 0.32921 0.0
H810 H 0.69708 0.80389 0.33921 0.0
H811 H 0.76128 0.84946 0.30613 0.0
H812 H 0.89719 0.81766 0.25676 0.0
H813 H 0.94046 0.75771 0.24412 0.0
H814 H 0.92104 0.81607 0.22452 0.0
H815 H 0.91707 0.75955 0.2764 0.0
Eu816 Eu 0.82356 0.30934 0.74332 0.0
Eu817 Eu 0.8027 0.29739 0.79229 0.0
C818 C 0.77404 0.31435 0.75494 0.0
C819 C 0.82864 0.33505 0.68922 0.0
C820 C 0.82184 0.32589 0.66538 0.0
C821 C 0.82003 0.37104 0.68402 0.0
C822 C 0.81415 0.33912 0.65097 0.0
C823 C 0.8275 0.3577 0.69847 0.0
C824 C 0.81328 0.36195 0.66004 0.0
C825 C 0.83577 0.32037 0.70426 0.0
O826 O 0.7891 0.26668 0.76276 0.0
O827 O 0.81852 0.27124 0.74035 0.0
C828 C 0.80115 0.25804 0.74736 0.0
O829 O 0.85364 0.3068 0.76636 0.0
O830 O 0.77832 0.27563 0.81 0.0
O831 O 0.80448 0.30421 0.83025 0.0
O832 O 0.83406 0.28444 0.78984 0.0
C833 C 0.85295 0.29333 0.78165 0.0
O834 O 0.82133 0.34273 0.76539 0.0
O835 O 0.82533 0.3335 0.80128 0.0
O836 O 0.77899 0.31573 0.77737 0.0
O837 O 0.84689 0.33074 0.7247 0.0
O838 O 0.82055 0.30157 0.70522 0.0
O839 O 0.78594 0.30579 0.73935 0.0
C840 C 0.79418 0.27068 0.8462 0.0
C841 C 0.8167 0.26972 0.85144 0.0
C842 C 0.78196 0.24336 0.87122 0.0
C843 C 0.82182 0.25579 0.8665 0.0
C844 C 0.77685 0.25729 0.85611 0.0
C845 C 0.80454 0.24252 0.87671 0.0
C846 C 0.78864 0.28578 0.83076 0.0
C847 C 0.82624 0.34887 0.7881 0.0
H848 H 0.82226 0.30836 0.65792 0.0
H849 H 0.8199 0.3886 0.69164 0.0
H850 H 0.80869 0.33132 0.63274 0.0
H851 H 0.83237 0.36517 0.71687 0.0
H852 H 0.83041 0.27998 0.84414 0.0
H853 H 0.76818 0.23314 0.8785 0.0
H854 H 0.8394 0.25582 0.87056 0.0
H855 H 0.75935 0.2577 0.85226 0.0
Eu856 Eu 0.83981 0.82879 0.80456 0.0
Eu857 Eu 0.79914 0.78297 0.78304 0.0
C858 C 0.8149 0.82219 0.75294 0.0
C859 C 0.86982 0.89044 0.81309 0.0
C860 C 0.86009 0.89129 0.79099 0.0
C861 C 0.87003 0.93065 0.8267 0.0
C862 C 0.85465 0.91133 0.78701 0.0
C863 C 0.87539 0.91045 0.83072 0.0
C864 C 0.85885 0.93104 0.80503 0.0
C865 C 0.87019 0.86795 0.81874 0.0
O866 O 0.83142 0.77133 0.78502 0.0
O867 O 0.85442 0.80488 0.77982 0.0
C868 C 0.84998 0.78249 0.77804 0.0
O869 O 0.84256 0.80482 0.82963 0.0
O870 O 0.78605 0.75072 0.75744 0.0
O871 O 0.76553 0.76084 0.78422 0.0
O872 O 0.8056 0.78335 0.82189 0.0
C873 C 0.82496 0.79061 0.83558 0.0
O874 O 0.80904 0.83276 0.82218 0.0
O875 O 0.7816 0.81135 0.79309 0.0
O876 O 0.80862 0.79977 0.75198 0.0
O877 O 0.85429 0.86008 0.83111 0.0
O878 O 0.87229 0.852 0.80147 0.0
O879 O 0.82139 0.83655 0.77325 0.0
C880 C 0.76864 0.7224 0.77706 0.0
C881 C 0.77702 0.72365 0.80029 0.0
C882 C 0.77024 0.68232 0.76775 0.0
C883 C 0.78296 0.70481 0.80692 0.0
C884 C 0.76449 0.70136 0.76104 0.0
C885 C 0.78056 0.6842 0.79049 0.0
C886 C 0.76891 0.74389 0.76886 0.0
C887 C 0.78785 0.82646 0.81286 0.0
H888 H 0.85537 0.87603 0.77713 0.0
H889 H 0.87377 0.94564 0.84084 0.0
H890 H 0.84572 0.91075 0.77024 0.0
H891 H 0.88272 0.91007 0.84794 0.0
H892 H 0.78056 0.73971 0.81302 0.0
H893 H 0.7677 0.66654 0.75477 0.0
H894 H 0.79106 0.70714 0.82449 0.0
H895 H 0.75817 0.70007 0.74301 0.0
Eu896 Eu 0.57692 0.57879 0.54571 0.0
Eu897 Eu 0.55256 0.52556 0.53052 0.0
C898 C 0.58069 0.55258 0.49135 0.0
C899 C 0.59031 0.64049 0.54233 0.0
C900 C 0.58758 0.6346 0.51781 0.0
C901 C 0.57832 0.67549 0.54028 0.0
C902 C 0.57994 0.64878 0.50467 0.0
C903 C 0.586 0.66122 0.55347 0.0
C904 C 0.5747 0.66909 0.51575 0.0
C905 C 0.59406 0.62342 0.55598 0.0
O906 O 0.58953 0.52467 0.53386 0.0
O907 O 0.60721 0.56234 0.55043 0.0
C908 C 0.60828 0.54101 0.54156 0.0
O909 O 0.55932 0.57167 0.57913 0.0
O910 O 0.53017 0.49721 0.50472 0.0
O911 O 0.54263 0.49138 0.53818 0.0
O912 O 0.54872 0.53233 0.57044 0.0
C913 C 0.54948 0.55197 0.58517 0.0
O914 O 0.54256 0.57845 0.52733 0.0
O915 O 0.52343 0.54331 0.53252 0.0
O916 O 0.57031 0.53277 0.497 0.0
O917 O 0.57613 0.61311 0.56434 0.0
O918 O 0.60518 0.60886 0.54672 0.0
O919 O 0.5821 0.57214 0.5064 0.0
C920 C 0.53579 0.46026 0.50679 0.0
C921 C 0.52082 0.43968 0.50897 0.0
C922 C 0.56339 0.43904 0.49424 0.0
C923 C 0.52749 0.41906 0.50499 0.0
C924 C 0.55676 0.45977 0.4985 0.0
C925 C 0.5493 0.41867 0.49867 0.0
C926 C 0.5312 0.48206 0.51771 0.0
C927 C 0.52326 0.56392 0.52897 0.0
H928 H 0.59055 0.61859 0.50874 0.0
H929 H 0.57431 0.69099 0.54931 0.0
H930 H 0.57773 0.6436 0.48581 0.0
H931 H 0.58764 0.66588 0.57236 0.0
H932 H 0.50466 0.43986 0.51559 0.0
H933 H 0.58011 0.43929 0.48895 0.0
H934 H 0.51621 0.40394 0.5089 0.0
H935 H 0.56857 0.47562 0.49686 0.0
Eu936 Eu 0.10242 0.54355 0.0183 0.0
Eu937 Eu 0.0574 0.55114 0.04555 0.0
C938 C 0.09399 0.52866 0.06707 0.0
C939 C 0.1573 0.52537 1.00905 0.0
C940 C 0.17754 0.53935 0.02207 0.0
C941 C 0.17117 0.49141 1.01235 0.0
C942 C 0.19415 0.52954 0.03048 0.0
C943 C 0.1544 0.50125 1.00404 0.0
C944 C 0.19112 0.50546 0.02593 0.0
C945 C 0.13933 0.53619 1.00143 0.0
O946 O 0.08726 0.58053 0.06187 0.0
O947 O 0.10773 0.58182 0.03052 0.0
C948 C 0.10241 0.59179 0.05044 0.0
O949 O 0.07817 0.55132 0.99184 0.0
O950 O 0.04176 0.56608 0.07523 0.0
O951 O 0.0206 0.54418 0.04463 0.0
O952 O 0.06019 0.57226 0.01779 0.0
C953 C 0.06536 0.56591 0.99661 0.0
O954 O 0.07887 0.50843 0.01547 0.0
O955 O 0.04585 0.51992 0.01655 0.0
O956 O 0.07215 0.52729 0.06367 0.0
O957 O 0.11909 0.5228 0.99389 0.0
O958 O 0.13841 0.55549 1.01483 0.0
O959 O 0.1086 0.54024 0.0554 0.0
C960 C 1.00563 0.5729 0.0661 0.0
C961 C 1.00718 0.58987 0.0525 0.0
C962 C 0.97242 0.58304 0.08125 0.0
C963 C 0.99136 0.60341 0.05334 0.0
C964 C 0.98816 0.56963 0.08042 0.0
C965 C 0.9738 0.6002 0.06782 0.0
C966 C 0.02113 0.55751 0.06484 0.0
C967 C 0.05672 0.50385 1.01125 0.0
H968 H 0.1805 0.55797 0.02602 0.0
H969 H 0.1683 0.4728 1.0086 0.0
H970 H 0.20948 0.5409 0.04051 0.0
H971 H 0.13908 0.48994 0.99396 0.0
H972 H 0.0205 0.59254 0.04118 0.0
H973 H 0.9589 0.57968 0.09223 0.0
H974 H 0.99303 0.61652 0.04286 0.0
H975 H 0.98649 0.55643 0.09081 0.0
H976 H 0.0408 0.24691 0.96339 0.0
H977 H 0.97874 0.2571 0.99089 0.0
H978 H 0.98688 0.23856 0.02363 0.0
H979 H 0.03812 0.19174 0.97756 0.0
H980 H 0.06841 0.19789 0.98489 0.0
H981 H 0.05701 0.21151 0.96378 0.0
H982 H 0.07896 0.25165 0.98816 0.0
H983 H 0.09006 0.23813 1.00959 0.0
H984 H 0.07458 0.25952 0.01838 0.0
H985 H 1.00177 0.21754 0.05282 0.0
H986 H 0.02184 0.19569 0.07512 0.0
H987 H 0.07445 0.20193 0.02864 0.0
C988 C 0.02875 0.24508 0.97613 0.0
C989 C 1.00907 0.25329 0.97453 0.0
C990 C 0.99392 0.25084 0.99177 0.0
C991 C 0.99843 0.24042 1.01045 0.0
C992 C 0.01826 0.23286 1.01168 0.0
C993 C 0.03313 0.2351 0.99493 0.0
C994 C 0.05329 0.22575 1.00007 0.0
C995 C 0.05425 0.20552 0.98042 0.0
C996 C 0.07553 0.24491 1.00431 0.0
C997 C 0.04742 0.21768 0.02227 0.0
C998 C 0.02717 0.22182 0.02878 0.0
C999 C 0.01781 0.21449 0.04805 0.0
C1000 C 0.0293 0.20219 0.06064 0.0
C1001 C 0.04995 0.19766 0.05394 0.0
C1002 C 0.05915 0.20587 0.03474 0.0
H1003 H 0.14397 0.78939 0.2031 0.0
H1004 H 0.16884 0.85822 0.19017 0.0
H1005 H 0.19996 0.86618 0.22204 0.0
H1006 H 0.16572 0.80202 0.26871 0.0
H1007 H 0.17354 0.77491 0.2649 0.0
H1008 H 0.14903 0.77742 0.2476 0.0
H1009 H 0.16565 0.76269 0.2099 0.0
H1010 H 0.19017 0.76038 0.22693 0.0
H1011 H 0.19359 0.7777 0.2049 0.0
H1012 H 0.23237 0.86369 0.24772 0.0
H1013 H 0.26452 0.85024 0.26277 0.0
H1014 H 0.2206 0.78197 0.25689 0.0
C1015 C 0.15527 0.80655 0.20791 0.0
C1016 C 0.15384 0.82341 0.19467 0.0
C1017 C 0.16953 0.84528 0.20047 0.0
C1018 C 0.18715 0.84994 0.21861 0.0
C1019 C 0.18892 0.83245 0.23054 0.0
C1020 C 0.17333 0.81114 0.22542 0.0
C1021 C 0.18158 0.79367 0.2368 0.0
C1022 C 0.16657 0.7866 0.25563 0.0
C1023 C 0.18283 0.77239 0.21854 0.0
C1024 C 0.20493 0.80796 0.24765 0.0
C1025 C 0.20844 0.83056 0.24473 0.0
C1026 C 0.22959 0.84631 0.25082 0.0
C1027 C 0.24774 0.83859 0.25941 0.0
C1028 C 0.24462 0.81537 0.26152 0.0
C1029 C 0.22297 0.80001 0.25611 0.0
H1030 H 0.51528 0.89875 0.4214 0.0
H1031 H 0.49759 0.85502 0.47146 0.0
H1032 H 0.49631 0.88913 0.50104 0.0
H1033 H 0.55447 0.93878 0.45747 0.0
H1034 H 0.54989 0.96374 0.44729 0.0
H1035 H 0.54212 0.93599 0.42795 0.0
H1036 H 0.50083 0.93946 0.42065 0.0
H1037 H 0.50858 0.96757 0.43975 0.0
H1038 H 0.4852 0.94548 0.44511 0.0
H1039 H 0.50452 0.92787 0.52691 0.0
H1040 H 0.52284 0.96791 0.5473 0.0
H1041 H 0.53795 0.98637 0.48094 0.0
C1042 C 0.50997 0.89624 0.43821 0.0
C1043 C 0.50616 0.87433 0.44413 0.0
C1044 C 0.50029 0.87171 0.4666 0.0
C1045 C 0.49942 0.89096 0.48343 0.0
C1046 C 0.50458 0.91262 0.47748 0.0
C1047 C 0.50963 0.91534 0.45532 0.0
C1048 C 0.51884 0.94051 0.45452 0.0
C1049 C 0.54274 0.94499 0.44635 0.0
C1050 C 0.50237 0.94874 0.4391 0.0
C1051 C 0.51956 0.95137 0.47996 0.0
C1052 C 0.51053 0.93515 0.49277 0.0
C1053 C 0.51118 0.94081 0.51699 0.0
C1054 C 0.52169 0.96355 0.52842 0.0
C1055 C 0.53185 0.9801 0.51563 0.0
C1056 C 0.53028 0.97402 0.4911 0.0
H1057 H 0.55254 0.28454 0.68778 0.0
H1058 H 0.5356 0.31613 0.6306 0.0
H1059 H 0.49964 0.31957 0.6466 0.0
H1060 H 0.49647 0.25157 0.69131 0.0
H1061 H 0.50026 0.25605 0.72272 0.0
H1062 H 0.52433 0.25603 0.7065 0.0
H1063 H 0.54492 0.29665 0.73072 0.0
H1064 H 0.5209 0.29681 0.74699 0.0
H1065 H 0.53115 0.31994 0.73203 0.0
H1066 H 0.46511 0.31892 0.66913 0.0
H1067 H 0.43544 0.3144 0.69596 0.0
H1068 H 0.47673 0.28486 0.73882 0.0
C1069 C 0.54127 0.29211 0.6785 0.0
C1070 C 0.54681 0.29998 0.65788 0.0
C1071 C 0.53165 0.30995 0.64642 0.0
C1072 C 0.51122 0.31198 0.65538 0.0
C1073 C 0.50635 0.30408 0.67585 0.0
C1074 C 0.52103 0.29441 0.68725 0.0
C1075 C 0.51215 0.28744 0.70903 0.0
C1076 C 0.50806 0.26122 0.70727 0.0
C1077 C 0.52824 0.30103 0.73099 0.0
C1078 C 0.49006 0.29456 0.70812 0.0
C1079 C 0.48693 0.3041 0.68888 0.0
C1080 C 0.46748 0.31159 0.68432 0.0
C1081 C 0.45079 0.3091 0.69975 0.0
C1082 C 0.45369 0.29925 0.71954 0.0
C1083 C 0.47376 0.29213 0.72373 0.0
H1084 H 0.06221 0.81918 0.63165 0.0
H1085 H 0.99015 0.80976 0.63749 0.0
H1086 H 0.98847 0.83673 0.61083 0.0
H1087 H 0.07507 0.87953 0.6302 0.0
H1088 H 0.09539 0.87734 0.60945 0.0
H1089 H 0.09065 0.85767 0.62917 0.0
H1090 H 0.08149 0.82305 0.59392 0.0
H1091 H 0.08597 0.84263 0.57407 0.0
H1092 H 0.05943 0.82108 0.57106 0.0
H1093 H 0.99503 0.86488 0.58334 0.0
H1094 H 1.00936 0.89247 0.55827 0.0
H1095 H 0.07695 0.88256 0.57053 0.0
C1096 C 0.04605 0.82285 0.6275 0.0
C1097 C 0.0263 0.81243 0.63673 0.0
C1098 C 1.00551 0.81763 0.63069 0.0
C1099 C 1.00439 0.83285 0.61552 0.0
C1100 C 0.02419 0.8426 0.60652 0.0
C1101 C 0.04463 0.83782 0.61237 0.0
C1102 C 0.06348 0.85039 0.60038 0.0
C1103 C 0.08225 0.86723 0.61838 0.0
C1104 C 0.07315 0.83326 0.58388 0.0
C1105 C 0.05053 0.86313 0.58688 0.0
C1106 C 0.02789 0.85843 0.5906 0.0
C1107 C 1.01272 0.86864 0.58031 0.0
C1108 C 0.02101 0.88431 0.56615 0.0
C1109 C 0.04424 0.88958 0.5624 0.0
C1110 C 0.05904 0.87858 0.57273 0.0
H1111 H 0.57341 0.81039 0.8284 0.0
H1112 H 0.54456 0.75961 0.86848 0.0
H1113 H 0.50846 0.74933 0.84258 0.0
H1114 H 0.5298 0.83318 0.82652 0.0
H1115 H 0.53103 0.83926 0.7976 0.0
H1116 H 0.55623 0.83737 0.81379 0.0
H1117 H 0.56174 0.80569 0.78018 0.0
H1118 H 0.53655 0.80766 0.76362 0.0
H1119 H 0.53896 0.78018 0.76941 0.0
H1120 H 0.47376 0.75092 0.81856 0.0
H1121 H 0.44375 0.76508 0.80015 0.0
H1122 H 0.49497 0.81608 0.77693 0.0
C1123 C 0.55983 0.7964 0.83117 0.0
C1124 C 0.56179 0.78572 0.85038 0.0
C1125 C 0.54349 0.76786 0.85371 0.0
C1126 C 0.52294 0.76187 0.83902 0.0
C1127 C 0.52114 0.77379 0.82104 0.0
C1128 C 0.53925 0.79056 0.81695 0.0
C1129 C 0.53209 0.8038 0.79954 0.0
C1130 C 0.5376 0.82992 0.81001 0.0
C1131 C 0.54298 0.79903 0.77684 0.0
C1132 C 0.50682 0.79307 0.79573 0.0
C1133 C 0.50089 0.77522 0.80758 0.0
C1134 C 0.47826 0.76442 0.80872 0.0
C1135 C 0.46131 0.77256 0.79817 0.0
C1136 C 0.46715 0.7916 0.78705 0.0
C1137 C 0.49014 0.80137 0.78516 0.0
H1138 H 0.51996 0.17489 0.14672 0.0
H1139 H 0.55912 0.22975 0.11672 0.0
H1140 H 0.57062 0.20086 0.08806 0.0
H1141 H 0.55917 0.1399 0.14186 0.0
H1142 H 0.53786 0.11283 0.13432 0.0
H1143 H 0.53155 0.13763 0.15186 0.0
H1144 H 0.49676 0.13374 0.12216 0.0
H1145 H 0.50288 0.10879 0.10466 0.0
H1146 H 0.50055 0.13299 0.09181 0.0
H1147 H 0.57911 0.16647 0.06365 0.0
H1148 H 0.58291 0.12837 0.04396 0.0
H1149 H 0.53855 0.0957 0.08987 0.0
C1150 C 0.53072 0.18082 0.13394 0.0
C1151 C 0.53861 0.20461 0.13398 0.0
C1152 C 0.55286 0.21164 0.11709 0.0
C1153 C 0.55951 0.19536 0.10072 0.0
C1154 C 0.55178 0.17212 0.10144 0.0
C1155 C 0.5376 0.16479 0.11749 0.0
C1156 C 0.53214 0.13876 0.11474 0.0
C1157 C 0.5407 0.13189 0.13702 0.0
C1158 C 0.50656 0.12794 0.10793 0.0
C1159 C 0.54565 0.1327 0.09479 0.0
C1160 C 0.5568 0.1522 0.08736 0.0
C1161 C 0.57041 0.15104 0.06924 0.0
C1162 C 0.5725 0.12931 0.05821 0.0
C1163 C 0.56107 0.10903 0.06538 0.0
C1164 C 0.54758 0.11086 0.08402 0.0
H1165 H 0.15376 0.27776 0.3333 0.0
H1166 H 0.16915 0.34588 0.37809 0.0
H1167 H 0.20366 0.3576 0.3587 0.0
H1168 H 0.20901 0.27202 0.33577 0.0
H1169 H 0.20641 0.25652 0.30602 0.0
H1170 H 0.18171 0.25484 0.32138 0.0
H1171 H 0.16169 0.2689 0.28847 0.0
H1172 H 0.1865 0.27081 0.27309 0.0
H1173 H 0.1752 0.2957 0.28051 0.0
H1174 H 0.2382 0.36052 0.33658 0.0
H1175 H 0.2709 0.35346 0.31629 0.0
H1176 H 0.2323 0.28328 0.28644 0.0
C1177 C 0.16414 0.29529 0.33881 0.0
C1178 C 0.15873 0.31096 0.35711 0.0
C1179 C 0.17297 0.33361 0.36404 0.0
C1180 C 0.19251 0.34046 0.35303 0.0
C1181 C 0.19742 0.32446 0.3351 0.0
C1182 C 0.18363 0.30232 0.32812 0.0
C1183 C 0.1936 0.28766 0.31005 0.0
C1184 C 0.19795 0.26653 0.31884 0.0
C1185 C 0.17834 0.28034 0.28664 0.0
C1186 C 0.21554 0.30476 0.30842 0.0
C1187 C 0.21731 0.32604 0.32264 0.0
C1188 C 0.23685 0.34403 0.32516 0.0
C1189 C 0.25532 0.33988 0.31348 0.0
C1190 C 0.25415 0.31781 0.29975 0.0
C1191 C 0.23369 0.30038 0.29665 0.0
H1192 H 0.99497 0.03176 0.21395 0.0
H1193 H 0.9681 0.09157 0.21341 0.0
H1194 H 0.98445 0.0964 0.17673 0.0
H1195 H 0.04791 0.05248 0.18778 0.0
H1196 H 0.04713 0.0249 0.16969 0.0
H1197 H 0.03433 0.02619 0.19663 0.0
H1198 H 0.99632 1.00099 0.17419 0.0
H1199 H 1.00902 0.99966 0.14719 0.0
H1200 H 0.98374 1.00997 0.14992 0.0
H1201 H 1.00497 0.09603 0.13909 0.0
H1202 H 0.02468 0.08917 0.10422 0.0
H1203 H 0.03749 0.02763 0.12387 0.0
C1204 C 0.99266 0.04608 0.20634 0.0
C1205 C 0.97999 0.06153 0.21784 0.0
C1206 C 0.97746 0.07945 0.20602 0.0
C1207 C 0.98687 0.08238 0.18478 0.0
C1208 C 0.99896 0.06707 0.17408 0.0
C1209 C 1.00172 0.04903 0.18433 0.0
C1210 C 1.01478 0.03457 0.16821 0.0
C1211 C 0.03738 0.03452 0.18136 0.0
C1212 C 1.0001 1.00982 0.15936 0.0
C1213 C 0.01908 0.04732 0.14756 0.0
C1214 C 1.00987 0.0662 0.1517 0.0
C1215 C 1.012 0.08115 0.13591 0.0
C1216 C 0.02352 0.07704 0.11577 0.0
C1217 C 0.03314 0.05776 0.11011 0.0
C1218 C 0.03051 0.04255 0.12674 0.0
H1219 H 0.29796 0.68098 0.49055 0.0
H1220 H 0.35461 0.65175 0.47318 0.0
H1221 H 0.35751 0.66963 0.43835 0.0
H1222 H 0.27221 0.67292 0.43184 0.0
H1223 H 0.26351 0.69955 0.43737 0.0
H1224 H 0.26611 0.68437 0.46065 0.0
H1225 H 0.29389 0.72115 0.4857 0.0
H1226 H 0.29136 0.73645 0.46252 0.0
H1227 H 0.31896 0.73484 0.47397 0.0
H1228 H 0.35414 0.69161 0.40549 0.0
H1229 H 0.34525 0.71581 0.37828 0.0
H1230 H 0.29012 0.72905 0.41745 0.0
C1231 C 0.31104 0.6783 0.47949 0.0
C1232 C 0.32611 0.66501 0.48461 0.0
C1233 C 0.3429 0.6619 0.46959 0.0
C1234 C 0.34464 0.67196 0.44978 0.0
C1235 C 0.3294 0.68495 0.44525 0.0
C1236 C 0.31292 0.68807 0.45973 0.0
C1237 C 0.2986 0.70277 0.45127 0.0
C1238 C 0.27363 0.68908 0.4449 0.0
C1239 C 0.30085 0.72513 0.46945 0.0
C1240 C 0.30966 0.70766 0.42981 0.0
C1241 C 0.32737 0.69724 0.4265 0.0
C1242 C 0.34023 0.69973 0.40789 0.0
C1243 C 0.33497 0.7134 0.39244 0.0
C1244 C 0.31703 0.72441 0.39575 0.0
C1245 C 0.30415 0.72118 0.41459 0.0
H1246 H 0.6597 0.04082 0.70297 0.0
H1247 H 0.69091 0.98937 0.66687 0.0
H1248 H 0.65968 0.97856 0.63467 0.0
H1249 H 0.59832 1.01014 0.68098 0.0
H1250 H 0.59195 0.03704 0.67817 0.0
H1251 H 0.61316 0.03653 0.70085 0.0
H1252 H 0.64252 0.06736 0.68592 0.0
H1253 H 0.62156 0.06787 0.6632 0.0
H1254 H 0.64807 0.06183 0.65584 0.0
H1255 H 0.6295 0.97802 0.60412 0.0
H1256 H 0.60419 0.98901 0.5764 0.0
H1257 H 0.59352 0.04235 0.63155 0.0
C1258 C 0.6595 0.02662 0.68874 0.0
C1259 C 0.67754 0.01568 0.68752 0.0
C1260 C 0.67712 0.99779 0.66822 0.0
C1261 C 0.65939 0.99147 0.64995 0.0
C1262 C 0.64229 1.00324 0.65131 0.0
C1263 C 0.64219 0.02044 0.67025 0.0
C1264 C 0.62417 0.03304 0.66586 0.0
C1265 C 0.60581 0.02893 0.68245 0.0
C1266 C 0.63472 0.05905 0.66781 0.0
C1267 C 0.61492 0.02109 0.64099 0.0
C1268 C 0.62515 1.0035 0.63319 0.0
C1269 C 0.62106 0.99142 0.61016 0.0
C1270 C 0.60671 0.99792 0.59451 0.0
C1271 C 0.59688 0.01659 0.60185 0.0
C1272 C 0.60047 0.02778 0.62556 0.0
H1273 H 0.31765 0.35857 0.96931 0.0
H1274 H 0.35525 0.31055 0.9871 0.0
H1275 H 0.35472 0.29441 0.94534 0.0
H1276 H 0.2818 0.31818 0.9183 0.0
H1277 H 0.28224 0.34023 0.90145 0.0
H1278 H 0.28456 0.34762 0.93288 0.0
H1279 H 0.32205 0.3784 0.93332 0.0
H1280 H 0.31992 0.37102 0.90192 0.0
H1281 H 0.34506 0.36998 0.91921 0.0
H1282 H 0.35268 0.28493 0.90168 0.0
H1283 H 0.34696 0.28098 0.85901 0.0
H1284 H 0.30934 0.33372 0.86784 0.0
C1285 C 0.32546 0.34442 0.96443 0.0
C1286 C 0.33646 0.33587 0.98179 0.0
C1287 C 0.34664 0.31746 0.97442 0.0
C1288 C 0.34649 0.30815 0.95061 0.0
C1289 C 0.33592 0.31717 0.93402 0.0
C1290 C 0.32533 0.33471 0.94052 0.0
C1291 C 0.31545 0.34131 0.9189 0.0
C1292 C 0.28947 0.33655 0.91783 0.0
C1293 C 0.32627 0.36668 0.91831 0.0
C1294 C 0.32243 0.32497 0.89935 0.0
C1295 C 0.33429 0.31129 0.90859 0.0
C1296 C 0.34323 0.29543 0.89427 0.0
C1297 C 0.33995 0.29337 0.86993 0.0
C1298 C 0.32764 0.30693 0.85978 0.0
C1299 C 0.31869 0.32292 0.87488 0.0
H1300 H 0.9927 0.06598 0.37871 0.0
H1301 H 0.0163 1.0123 0.33558 0.0
H1302 H 0.03594 1.00553 0.37068 0.0
H1303 H 0.04459 0.08806 0.42134 0.0
H1304 H 0.02964 0.09325 0.44651 0.0
H1305 H 0.0174 0.09468 0.41814 0.0
H1306 H 0.98115 0.06445 0.42238 0.0
H1307 H 0.9933 0.06294 0.45075 0.0
H1308 H 0.98343 0.03705 0.42848 0.0
H1309 H 0.05351 1.00354 0.41102 0.0
H1310 H 0.06703 1.00631 0.452 0.0
H1311 H 0.03346 0.06107 0.47286 0.0
C1312 C 1.00211 0.05287 0.37654 0.0
C1313 C 1.00263 0.0398 0.3534 0.0
C1314 C 1.01525 0.02278 0.35232 0.0
C1315 C 0.02664 0.01873 0.37249 0.0
C1316 C 0.02573 0.03165 0.39466 0.0
C1317 C 1.01379 0.04846 0.39693 0.0
C1318 C 1.01562 0.05957 0.42325 0.0
C1319 C 0.02751 0.08543 0.42757 0.0
C1320 C 0.99196 0.05579 0.43172 0.0
C1321 C 0.03032 0.04642 0.43529 0.0
C1322 C 0.03587 0.03042 0.41817 0.0
C1323 C 0.04914 0.01608 0.42438 0.0
C1324 C 0.05687 0.01785 0.44818 0.0
C1325 C 0.05177 0.03389 0.46678 0.0
C1326 C 0.03808 0.0485 0.45974 0.0
H1327 H 0.31235 0.6854 0.60121 0.0
H1328 H 0.36709 0.65877 0.62687 0.0
H1329 H 0.37309 0.68807 0.66363 0.0
H1330 H 0.33617 0.74552 0.62614 0.0
H1331 H 0.30955 0.75107 0.63379 0.0
H1332 H 0.30992 0.7285 0.6093 0.0
H1333 H 0.28244 0.69881 0.6274 0.0
H1334 H 0.28187 0.7213 0.65187 0.0
H1335 H 0.28979 0.69566 0.65671 0.0
H1336 H 0.37415 0.72131 0.69673 0.0
H1337 H 0.36781 0.75306 0.72585 0.0
H1338 H 0.31012 0.75654 0.6804 0.0
C1339 C 0.3257 0.6858 0.61452 0.0
C1340 C 0.33948 0.66994 0.61103 0.0
C1341 C 0.35641 0.67076 0.62909 0.0
C1342 C 0.35997 0.6874 0.64998 0.0
C1343 C 0.34621 0.70287 0.65274 0.0
C1344 C 0.32915 0.70198 0.63566 0.0
C1345 C 0.31604 0.7199 0.64346 0.0
C1346 C 0.31805 0.73728 0.6272 0.0
C1347 C 0.29105 0.70822 0.64495 0.0
C1348 C 0.32855 0.73127 0.66753 0.0
C1349 C 0.34606 0.72131 0.67234 0.0
C1350 C 0.36044 0.72914 0.69315 0.0
C1351 C 0.35674 0.74739 0.70955 0.0
C1352 C 0.33851 0.75754 0.70545 0.0
C1353 C 0.32421 0.74926 0.68407 0.0
H1354 H 0.67871 0.08219 0.80478 0.0
H1355 H 0.71816 0.03555 0.82221 0.0
H1356 H 0.70123 0.03539 0.85948 0.0
H1357 H 0.68147 0.11543 0.86399 0.0
H1358 H 0.65281 0.11818 0.85937 0.0
H1359 H 0.66955 0.11603 0.83522 0.0
H1360 H 0.6381 0.08094 0.81237 0.0
H1361 H 0.62134 0.08287 0.83645 0.0
H1362 H 0.62872 0.05622 0.82545 0.0
H1363 H 0.67789 0.03846 0.89351 0.0
H1364 H 0.65005 0.04425 0.92136 0.0
H1365 H 0.62643 0.08904 0.8811 0.0
C1366 C 0.68406 0.07215 0.81653 0.0
C1367 C 0.69976 0.05889 0.81066 0.0
C1368 C 0.70618 0.04588 0.82644 0.0
C1369 C 0.69669 0.04571 0.84762 0.0
C1370 C 0.68097 0.05874 0.85268 0.0
C1371 C 0.6748 0.07179 0.83759 0.0
C1372 C 0.65676 0.08339 0.84641 0.0
C1373 C 0.66569 0.10982 0.85156 0.0
C1374 C 0.63494 0.07536 0.82914 0.0
C1375 C 0.65329 0.07442 0.86861 0.0
C1376 C 0.66754 0.06043 0.87209 0.0
C1377 C 0.66683 0.04959 0.89109 0.0
C1378 C 0.65103 0.05305 0.90684 0.0
C1379 C 0.6361 0.06712 0.90338 0.0
C1380 C 0.63748 0.07806 0.8841 0.0
H1381 H 0.32417 0.32879 0.10957 0.0
H1382 H 0.33753 0.40284 0.1357 0.0
H1383 H 0.33317 0.39644 0.17528 0.0
H1384 H 0.28112 0.31283 0.14883 0.0
H1385 H 0.28986 0.28756 0.15357 0.0
H1386 H 0.294 0.2973 0.12653 0.0
H1387 H 0.33684 0.29931 0.13308 0.0
H1388 H 0.33282 0.28957 0.16011 0.0
H1389 H 0.35331 0.31622 0.15987 0.0
H1390 H 0.32938 0.38333 0.21261 0.0
H1391 H 0.32431 0.36352 0.2456 0.0
H1392 H 0.31098 0.29724 0.19777 0.0
C1393 C 0.32611 0.34362 0.12361 0.0
C1394 C 0.33123 0.36641 0.11906 0.0
C1395 C 0.33355 0.3852 0.13822 0.0
C1396 C 0.33114 0.38179 0.16101 0.0
C1397 C 0.32615 0.35939 0.1649 0.0
C1398 C 0.32346 0.34051 0.14685 0.0
C1399 C 0.31789 0.31829 0.15641 0.0
C1400 C 0.29431 0.30309 0.14569 0.0
C1401 C 0.33631 0.30506 0.1521 0.0
C1402 C 0.3181 0.32779 0.18251 0.0
C1403 C 0.32309 0.35161 0.18683 0.0
C1404 C 0.32526 0.36466 0.20941 0.0
C1405 C 0.32238 0.35321 0.22814 0.0
C1406 C 0.31702 0.3288 0.22449 0.0
C1407 C 0.31467 0.31591 0.20119 0.0
H1408 H 0.21624 0.99476 1.0095 0.0
H1409 H 0.25925 0.05115 0.06135 0.0
H1410 H 0.22578 0.06559 0.07129 0.0
H1411 H 0.17656 0.02687 0.9906 0.0
H1412 H 0.15187 1.00302 0.98755 0.0
H1413 H 0.1793 0.99762 0.98345 0.0
H1414 H 0.17445 0.9725 1.01484 0.0
H1415 H 0.14709 0.97804 0.01909 0.0
H1416 H 0.1687 0.98466 0.04357 0.0
H1417 H 0.18719 0.07459 0.07579 0.0
H1418 H 0.14713 0.07647 0.07521 0.0
H1419 H 0.12739 1.01333 0.02232 0.0
C1420 C 0.21868 1.01032 0.02274 0.0
C1421 C 0.24085 0.02189 0.0344 0.0
C1422 C 0.24281 0.04193 0.05196 0.0
C1423 C 0.22374 0.05031 0.05779 0.0
C1424 C 0.20227 0.03848 0.04622 0.0
C1425 C 0.19956 0.01883 0.02909 0.0
C1426 C 0.17432 1.00904 0.01998 0.0
C1427 C 0.17028 1.00914 0.99384 0.0
C1428 C 0.16563 0.9846 0.02465 0.0
C1429 C 0.16336 0.02619 0.03462 0.0
C1430 C 0.1799 0.04315 0.0495 0.0
C1431 C 0.17417 0.06125 0.06428 0.0
C1432 C 0.1512 0.06218 0.06385 0.0
C1433 C 0.13366 0.04498 0.04901 0.0
C1434 C 0.14009 0.02664 0.03425 0.0
H1435 H 0.72375 0.67114 0.02258 0.0
H1436 H 0.76673 0.62448 1.00475 0.0
H1437 H 0.73375 0.59111 1.00171 0.0
H1438 H 0.69257 0.63878 0.05949 0.0
H1439 H 0.66578 0.64462 0.05154 0.0
H1440 H 0.69194 0.66498 0.04954 0.0
H1441 H 0.67933 0.66282 1.00598 0.0
H1442 H 0.65306 0.64251 1.00791 0.0
H1443 H 0.67114 0.63514 0.98616 0.0
H1444 H 0.69692 0.56282 1.00249 0.0
H1445 H 0.65907 0.54125 1.00874 0.0
H1446 H 0.63951 0.60574 0.02823 0.0
C1447 C 0.72604 0.65387 0.01745 0.0
C1448 C 0.74778 0.6504 1.0135 0.0
C1449 C 0.75025 0.62755 1.00763 0.0
C1450 C 0.73159 0.60849 1.00583 0.0
C1451 C 0.71051 0.61245 1.01024 0.0
C1452 C 0.70758 0.63455 0.01602 0.0
C1453 C 0.68347 0.63388 0.02176 0.0
C1454 C 0.68345 0.6463 0.04709 0.0
C1455 C 0.67101 0.6442 1.00441 0.0
C1456 C 0.67344 0.60799 0.01853 0.0
C1457 C 0.68931 0.59602 1.01158 0.0
C1458 C 0.68433 0.57202 1.00783 0.0
C1459 C 0.66268 0.55989 1.01145 0.0
C1460 C 0.64611 0.57166 0.01901 0.0
C1461 C 0.65166 0.59612 0.02242 0.0
H1462 H 0.77057 0.45841 0.24919 0.0
H1463 H 0.71876 0.44552 0.29571 0.0
H1464 H 0.72822 0.40889 0.2989 0.0
H1465 H 0.7631 0.3975 0.21927 0.0
H1466 H 0.7929 0.39947 0.21771 0.0
H1467 H 0.78224 0.4248 0.21843 0.0
H1468 H 0.81094 0.44627 0.25433 0.0
H1469 H 0.8217 0.42101 0.25367 0.0
H1470 H 0.8116 0.43372 0.27986 0.0
H1471 H 0.74309 0.3709 0.29692 0.0
H1472 H 0.76199 0.33904 0.29155 0.0
H1473 H 0.8067 0.37395 0.24758 0.0
C1474 C 0.76108 0.448 0.26011 0.0
C1475 C 0.74335 0.45609 0.27215 0.0
C1476 C 0.73216 0.44091 0.28613 0.0
C1477 C 0.73752 0.41956 0.28807 0.0
C1478 C 0.75473 0.41227 0.27618 0.0
C1479 C 0.76655 0.42622 0.26253 0.0
C1480 C 0.78469 0.4142 0.25205 0.0
C1481 C 0.78049 0.40868 0.22526 0.0
C1482 C 0.80867 0.42973 0.26047 0.0
C1483 C 0.78119 0.39145 0.26166 0.0
C1484 C 0.76359 0.39082 0.27549 0.0
C1485 C 0.75684 0.37166 0.28607 0.0
C1486 C 0.76788 0.35313 0.28276 0.0
C1487 C 0.78629 0.35261 0.26894 0.0
C1488 C 0.79286 0.37276 0.25831 0.0
H1489 H 0.8834 0.48379 0.52361 0.0
H1490 H 0.87086 0.54596 0.50548 0.0
H1491 H 0.91247 0.56155 0.50556 0.0
H1492 H 0.93573 0.51271 0.56307 0.0
H1493 H 0.94873 0.48918 0.55473 0.0
H1494 H 0.91829 0.48361 0.55372 0.0
H1495 H 0.91419 0.4634 0.51025 0.0
H1496 H 0.9446 0.46908 0.51105 0.0
H1497 H 0.92855 0.47878 0.48974 0.0
H1498 H 0.95638 0.56848 0.50418 0.0
H1499 H 0.99702 0.56838 0.50626 0.0
H1500 H 0.98112 0.50283 0.52842 0.0
C1501 C 0.88936 0.50086 0.51992 0.0
C1502 C 0.87357 0.51361 0.5145 0.0
C1503 C 0.88235 0.53588 0.50988 0.0
C1504 C 0.90607 0.54478 0.50973 0.0
C1505 C 0.92104 0.53148 0.5147 0.0
C1506 C 0.91293 0.51015 0.52021 0.0
C1507 C 0.93238 0.49928 0.52532 0.0
C1508 C 0.93387 0.49601 0.55072 0.0
C1509 C 0.92977 0.47627 0.50806 0.0
C1510 C 0.95285 0.51754 0.52143 0.0
C1511 C 0.94596 0.5359 0.51507 0.0
C1512 C 0.96178 0.55426 0.50945 0.0
C1513 C 0.98496 0.55399 0.51057 0.0
C1514 C 0.99264 0.53568 0.51761 0.0
C1515 C 0.9761 0.51726 0.52318 0.0
H1516 H 0.35039 0.07697 0.30699 0.0
H1517 H 0.40689 0.12439 0.3534 0.0
H1518 H 0.38938 0.15663 0.35009 0.0
H1519 H 0.34726 0.11105 0.26818 0.0
H1520 H 0.31679 0.10302 0.26176 0.0
H1521 H 0.33102 0.08323 0.27165 0.0
H1522 H 0.30635 0.08084 0.30593 0.0
H1523 H 0.2918 0.10052 0.29599 0.0
H1524 H 0.30529 0.10698 0.32557 0.0
H1525 H 0.36918 0.18407 0.33643 0.0
H1526 H 0.34767 0.2045 0.3142 0.0
H1527 H 0.30478 0.13886 0.2764 0.0
C1528 C 0.3588 0.09402 0.31703 0.0
C1529 C 0.37997 0.09824 0.33048 0.0
C1530 C 0.39056 0.1208 0.34314 0.0
C1531 C 0.38072 0.13917 0.34138 0.0
C1532 C 0.36022 0.13451 0.32717 0.0
C1533 C 0.34926 0.11241 0.31543 0.0
C1534 C 0.32887 0.11218 0.29919 0.0
C1535 C 0.33115 0.10177 0.2737 0.0
C1536 C 0.30677 0.09937 0.30716 0.0
C1537 C 0.33066 0.13775 0.30268 0.0
C1538 C 0.3486 0.15034 0.3192 0.0
C1539 C 0.35485 0.17438 0.32382 0.0
C1540 C 0.34269 0.1858 0.31098 0.0
C1541 C 0.32464 0.17314 0.29363 0.0
C1542 C 0.31825 0.14888 0.28987 0.0
H1543 H 0.37556 0.15516 0.52565 0.0
H1544 H 0.34467 0.15646 0.59042 0.0
H1545 H 0.37336 0.1392 0.6062 0.0
H1546 H 0.3882 0.10013 0.52361 0.0
H1547 H 0.41493 0.10789 0.51194 0.0
H1548 H 0.39276 0.12168 0.50582 0.0
H1549 H 0.42028 0.16174 0.52252 0.0
H1550 H 0.44253 0.14805 0.52875 0.0
H1551 H 0.43451 0.16763 0.55174 0.0
H1552 H 0.40454 0.12159 0.61525 0.0
H1553 H 0.43579 0.10249 0.61639 0.0
H1554 H 0.44649 0.11033 0.54545 0.0
C1555 C 0.375 0.15196 0.5432 0.0
C1556 C 0.35784 0.15724 0.5568 0.0
C1557 C 0.35754 0.15253 0.5796 0.0
C1558 C 0.37385 0.1428 0.58881 0.0
C1559 C 0.3904 0.13767 0.57501 0.0
C1560 C 0.39112 0.14191 0.55266 0.0
C1561 C 0.4103 0.13366 0.54136 0.0
C1562 C 0.40099 0.11471 0.51938 0.0
C1563 C 0.42795 0.15399 0.53576 0.0
C1564 C 0.42 0.12403 0.56081 0.0
C1565 C 0.40831 0.12678 0.58009 0.0
C1566 C 0.41379 0.11921 0.60022 0.0
C1567 C 0.43149 0.10821 0.60062 0.0
C1568 C 0.44351 0.10458 0.58094 0.0
C1569 C 0.43779 0.11293 0.56086 0.0
H1570 H 0.72187 0.61883 0.3023 0.0
H1571 H 0.77593 0.58727 0.28097 0.0
H1572 H 0.79967 0.62573 0.27865 0.0
H1573 H 0.73094 0.66079 0.26416 0.0
H1574 H 0.72451 0.68366 0.28473 0.0
H1575 H 0.71195 0.65392 0.2856 0.0
H1576 H 0.72801 0.66142 0.32891 0.0
H1577 H 0.74059 0.69119 0.32817 0.0
H1578 H 0.75803 0.6735 0.33726 0.0
H1579 H 0.81875 0.66981 0.27872 0.0
H1580 H 0.82975 0.71176 0.28001 0.0
H1581 H 0.7636 0.71682 0.29982 0.0
C1582 C 0.73881 0.61985 0.29734 0.0
C1583 C 0.74664 0.59897 0.29214 0.0
C1584 C 0.769 0.60213 0.28533 0.0
C1585 C 0.7828 0.6243 0.28391 0.0
C1586 C 0.77453 0.6442 0.28905 0.0
C1587 C 0.75288 0.64212 0.29556 0.0
C1588 C 0.74786 0.66626 0.29958 0.0
C1589 C 0.7276 0.66615 0.28251 0.0
C1590 C 0.74334 0.67352 0.32499 0.0
C1591 C 0.76993 0.68232 0.29446 0.0
C1592 C 0.78513 0.66911 0.28851 0.0
C1593 C 0.80671 0.67994 0.28332 0.0
C1594 C 0.81292 0.70425 0.28413 0.0
C1595 C 0.79796 0.71875 0.28994 0.0
C1596 C 0.77589 0.70701 0.29515 0.0
H1597 H 0.86104 0.48174 0.7852 0.0
H1598 H 0.88721 0.49449 0.85834 0.0
H1599 H 0.8697 0.45384 0.85941 0.0
H1600 H 0.8072 0.43752 0.78801 0.0
H1601 H 0.80932 0.42089 0.75982 0.0
H1602 H 0.82007 0.45185 0.76607 0.0
H1603 H 0.85935 0.44708 0.75483 0.0
H1604 H 0.84884 0.4162 0.74886 0.0
H1605 H 0.87361 0.42993 0.76957 0.0
H1606 H 0.85423 0.4109 0.85108 0.0
H1607 H 0.84134 0.36912 0.83405 0.0
H1608 H 0.8261 0.38476 0.76628 0.0
C1609 C 0.86243 0.47621 0.80166 0.0
C1610 C 0.87537 0.49128 0.82171 0.0
C1611 C 0.87729 0.48323 0.84277 0.0
C1612 C 0.86735 0.46019 0.84358 0.0
C1613 C 0.85548 0.44553 0.82322 0.0
C1614 C 0.85279 0.45327 0.8027 0.0
C1615 C 0.84145 0.43358 0.78263 0.0
C1616 C 0.81812 0.43611 0.77361 0.0
C1617 C 0.85673 0.43159 0.76283 0.0
C1618 C 0.83906 0.41348 0.79486 0.0
C1619 C 0.84686 0.4207 0.81833 0.0
C1620 C 0.8477 0.40504 0.8328 0.0
C1621 C 0.84045 0.38137 0.82296 0.0
C1622 C 0.83275 0.37369 0.79885 0.0
C1623 C 0.83182 0.39004 0.7848 0.0
H1624 H 0.08147 0.83506 0.08355 0.0
H1625 H 0.14867 0.84223 0.06088 0.0
H1626 H 0.13799 0.86209 0.03035 0.0
H1627 H 0.04964 0.82786 0.02517 0.0
H1628 H 0.03098 0.84486 0.0371 0.0
H1629 H 0.04263 0.82795 0.05459 0.0
H1630 H 0.05924 0.86458 0.08696 0.0
H1631 H 0.04736 0.8814 0.06975 0.0
H1632 H 0.07735 0.88964 0.07949 0.0
H1633 H 0.12151 0.8849 1.00542 0.0
H1634 H 0.1019 0.91164 0.99081 0.0
H1635 H 0.04608 0.88995 0.03066 0.0
C1636 C 0.0938 0.84039 0.07186 0.0
C1637 C 0.11584 0.83705 0.07449 0.0
C1638 C 0.13165 0.84463 0.05915 0.0
C1639 C 0.12568 0.85573 0.04161 0.0
C1640 C 0.10383 0.85896 0.03962 0.0
C1641 C 0.08817 0.85157 0.0544 0.0
C1642 C 0.0668 0.8595 0.05053 0.0
C1643 C 0.0463 0.8388 0.0413 0.0
C1644 C 0.06246 0.87468 0.07301 0.0
C1645 C 0.07324 0.87333 0.03195 0.0
C1646 C 0.09442 0.87238 0.02545 0.0
C1647 C 0.10476 0.88551 1.0101 0.0
C1648 C 0.09354 0.90069 1.00195 0.0
C1649 C 0.07238 0.90282 1.00947 0.0
C1650 C 0.06186 0.88828 0.02396 0.0
H1651 H 0.92951 0.26429 0.87916 0.0
H1652 H 0.98736 0.2841 0.84141 0.0
H1653 H 0.96152 0.2859 0.80782 0.0
H1654 H 0.88828 0.23 0.82711 0.0
H1655 H 0.86536 0.24028 0.83949 0.0
H1656 H 0.88803 0.23633 0.85836 0.0
H1657 H 0.89496 0.27859 0.88029 0.0
H1658 H 0.87313 0.28347 0.86121 0.0
H1659 H 0.90154 0.30163 0.86442 0.0
H1660 H 0.92986 0.29319 0.78208 0.0
H1661 H 0.89484 0.3008 0.76481 0.0
H1662 H 0.85843 0.27418 0.81917 0.0
C1663 C 0.93666 0.26818 0.86349 0.0
C1664 C 0.96032 0.274 0.86276 0.0
C1665 C 0.96919 0.27931 0.84213 0.0
C1666 C 0.95466 0.28045 0.82303 0.0
C1667 C 0.93138 0.2757 0.82475 0.0
C1668 C 0.92243 0.26908 0.84428 0.0
C1669 C 0.89721 0.26697 0.84295 0.0
C1670 C 0.88394 0.2419 0.8419 0.0
C1671 C 0.89139 0.28365 0.86342 0.0
C1672 C 0.89346 0.27424 0.82006 0.0
C1673 C 0.91324 0.27922 0.8097 0.0
C1674 C 0.91413 0.28872 0.7897 0.0
C1675 C 0.89424 0.29314 0.78011 0.0
C1676 C 0.87386 0.28795 0.79055 0.0
C1677 C 0.87358 0.27807 0.81053 0.0
H1678 H 0.58918 0.2213 0.61072 0.0
H1679 H 0.65441 0.24206 0.58482 0.0
H1680 H 0.65515 0.20101 0.57373 0.0
H1681 H 0.6001 0.17404 0.6345 0.0
H1682 H 0.57161 0.15623 0.62575 0.0
H1683 H 0.5767 0.18721 0.63221 0.0
H1684 H 0.5569 0.18592 0.59128 0.0
H1685 H 0.5516 0.15495 0.58479 0.0
H1686 H 0.56664 0.17164 0.56563 0.0
H1687 H 0.64831 0.15719 0.56537 0.0
H1688 H 0.6331 0.1147 0.5578 0.0
H1689 H 0.57241 0.12392 0.58901 0.0
C1690 C 0.6037 0.21729 0.6028 0.0
C1691 C 0.62178 0.23486 0.59872 0.0
C1692 C 0.64034 0.22883 0.58807 0.0
C1693 C 0.64097 0.2056 0.58183 0.0
C1694 C 0.62288 0.18871 0.58629 0.0
C1695 C 0.60453 0.19433 0.59636 0.0
C1696 C 0.58679 0.17307 0.59853 0.0
C1697 C 0.58363 0.17262 0.62428 0.0
C1698 C 0.56415 0.1713 0.5842 0.0
C1699 C 0.59794 0.15454 0.588 0.0
C1700 C 0.61884 0.16379 0.58121 0.0
C1701 C 0.63199 0.14978 0.57067 0.0
C1702 C 0.62328 0.12569 0.56654 0.0
C1703 C 0.60158 0.11603 0.57277 0.0
C1704 C 0.58904 0.13074 0.58397 0.0
H1705 H 0.61063 0.82977 0.40674 0.0
H1706 H 0.58584 0.86923 0.36089 0.0
H1707 H 0.62394 0.88024 0.3482 0.0
H1708 H 0.67081 0.86743 0.42106 0.0
H1709 H 0.68211 0.84249 0.4201 0.0
H1710 H 0.65452 0.84206 0.42965 0.0
H1711 H 0.63677 0.80501 0.39821 0.0
H1712 H 0.66419 0.80529 0.38871 0.0
H1713 H 0.6409 0.80513 0.36804 0.0
H1714 H 0.6621 0.88158 0.33567 0.0
H1715 H 0.69609 0.87045 0.322 0.0
H1716 H 0.69658 0.83029 0.37589 0.0
C1717 C 0.61344 0.84133 0.3946 0.0
C1718 C 0.59539 0.84877 0.38489 0.0
C1719 C 0.59949 0.86335 0.36855 0.0
C1720 C 0.62112 0.86989 0.36142 0.0
C1721 C 0.63848 0.86179 0.37087 0.0
C1722 C 0.63488 0.84781 0.38712 0.0
C1723 C 0.6553 0.83856 0.39189 0.0
C1724 C 0.66634 0.84822 0.41718 0.0
C1725 C 0.6489 0.81194 0.38636 0.0
C1726 C 0.67035 0.84838 0.37477 0.0
C1727 C 0.66066 0.86231 0.36332 0.0
C1728 C 0.67017 0.87119 0.34489 0.0
C1729 C 0.68954 0.86487 0.33729 0.0
C1730 C 0.69893 0.84958 0.34795 0.0
C1731 C 0.68977 0.84212 0.36755 0.0
H1732 H 0.08869 0.26289 0.47111 0.0
H1733 H 0.12196 0.23253 0.41473 0.0
H1734 H 0.12326 0.20033 0.43457 0.0
H1735 H 0.11889 0.24683 0.51846 0.0
H1736 H 0.0942 0.24062 0.53377 0.0
H1737 H 0.09706 0.26198 0.51582 0.0
H1738 H 0.0581 0.24012 0.49241 0.0
H1739 H 0.05515 0.21867 0.51023 0.0
H1740 H 0.05335 0.21004 0.47893 0.0
H1741 H 0.1201 0.17108 0.45984 0.0
H1742 H 0.11154 0.14587 0.4883 0.0
H1743 H 0.07972 0.19486 0.52795 0.0
C1744 C 0.09648 0.24961 0.46305 0.0
C1745 C 0.10533 0.25026 0.44143 0.0
C1746 C 0.11507 0.23237 0.43129 0.0
C1747 C 0.11595 0.21406 0.44245 0.0
C1748 C 0.10692 0.21386 0.46365 0.0
C1749 C 0.0973 0.2311 0.47383 0.0
C1750 C 0.0879 0.22623 0.49619 0.0
C1751 C 0.10026 0.24503 0.51731 0.0
C1752 C 0.0621 0.22361 0.49431 0.0
C1753 C 0.09358 0.20345 0.49688 0.0
C1754 C 0.10473 0.19674 0.47805 0.0
C1755 C 0.11152 0.17621 0.47473 0.0
C1756 C 0.10669 0.16209 0.49106 0.0
C1757 C 0.09512 0.16852 0.5104 0.0
C1758 C 0.08852 0.1895 0.5133 0.0
H1759 H 0.57457 0.24209 0.24664 0.0
H1760 H 0.58212 0.31439 0.24505 0.0
H1761 H 0.61506 0.32496 0.27538 0.0
H1762 H 0.59722 0.24931 0.31022 0.0
H1763 H 0.61174 0.22685 0.30263 0.0
H1764 H 0.58527 0.22547 0.28612 0.0
H1765 H 0.60449 0.22232 0.24787 0.0
H1766 H 0.63077 0.22348 0.26418 0.0
H1767 H 0.62968 0.24411 0.2459 0.0
H1768 H 0.65033 0.32711 0.30066 0.0
H1769 H 0.68701 0.32066 0.31403 0.0
H1770 H 0.65763 0.24664 0.29619 0.0
C1771 C 0.5826 0.26021 0.25336 0.0
C1772 C 0.57567 0.27747 0.24382 0.0
C1773 C 0.58711 0.30094 0.25233 0.0
C1774 C 0.60567 0.30708 0.2697 0.0
C1775 C 0.61257 0.28954 0.27825 0.0
C1776 C 0.60139 0.26654 0.27024 0.0
C1777 C 0.61447 0.25074 0.27863 0.0
C1778 C 0.60139 0.2373 0.2954 0.0
C1779 C 0.6202 0.23423 0.25792 0.0
C1780 C 0.63544 0.26837 0.29143 0.0
C1781 C 0.63365 0.29067 0.29186 0.0
C1782 C 0.6518 0.30974 0.30069 0.0
C1783 C 0.67264 0.30589 0.3081 0.0
C1784 C 0.67533 0.2831 0.30595 0.0
C1785 C 0.65612 0.26425 0.29861 0.0
H1786 H 0.60844 0.88767 0.97765 0.0
H1787 H 0.58085 0.87652 0.90505 0.0
H1788 H 0.56643 0.91133 0.91416 0.0
H1789 H 0.56257 0.90835 1.00273 0.0
H1790 H 0.58109 0.92949 0.02587 0.0
H1791 H 0.58889 0.90338 1.01375 0.0
H1792 H 0.62702 0.92762 1.00449 0.0
H1793 H 0.61934 0.9538 0.01659 0.0
H1794 H 0.62675 0.94917 0.98714 0.0
H1795 H 0.55589 0.94807 0.93091 0.0
H1796 H 0.54991 0.98388 0.95431 0.0
H1797 H 0.58402 0.97062 0.01585 0.0
C1798 C 0.5993 0.89247 0.96367 0.0
C1799 C 0.59581 0.87931 0.94063 0.0
C1800 C 0.58377 0.88627 0.92285 0.0
C1801 C 0.57548 0.90603 0.92784 0.0
C1802 C 0.57928 0.91864 0.95069 0.0
C1803 C 0.59087 0.91213 0.96832 0.0
C1804 C 0.59294 0.92888 0.99135 0.0
C1805 C 0.58063 0.9168 1.00949 0.0
C1806 C 0.618 0.94056 1.00041 0.0
C1807 C 0.58083 0.94587 0.98386 0.0
C1808 C 0.57306 0.93967 0.96035 0.0
C1809 C 0.5618 0.95304 0.94938 0.0
C1810 C 0.55848 0.97335 0.96281 0.0
C1811 C 0.56638 0.98003 0.98694 0.0
C1812 C 0.57759 0.96595 0.9975 0.0
H1813 H 0.95283 0.76859 0.70521 0.0
H1814 H 0.94081 0.69817 0.71578 0.0
H1815 H 0.90703 0.70278 0.73537 0.0
H1816 H 0.94012 0.79234 0.75972 0.0
H1817 H 0.92662 0.81275 0.74973 0.0
H1818 H 0.94805 0.80306 0.73393 0.0
H1819 H 0.92003 0.78949 0.69596 0.0
H1820 H 0.89855 0.79941 0.71158 0.0
H1821 H 0.89276 0.76991 0.69593 0.0
H1822 H 0.87606 0.71611 0.75626 0.0
H1823 H 0.85037 0.73716 0.77646 0.0
H1824 H 0.88408 0.79899 0.75314 0.0
C1825 C 0.9428 0.75395 0.71114 0.0
C1826 C 0.94933 0.73299 0.70886 0.0
C1827 C 0.93603 0.71438 0.71728 0.0
C1828 C 0.91681 0.71681 0.72841 0.0
C1829 C 0.9112 0.73796 0.73095 0.0
C1830 C 0.92375 0.75615 0.72244 0.0
C1831 C 0.91513 0.77756 0.72878 0.0
C1832 C 0.93358 0.79759 0.74394 0.0
C1833 C 0.90607 0.78449 0.70675 0.0
C1834 C 0.89611 0.76872 0.74262 0.0
C1835 C 0.89387 0.74578 0.74347 0.0
C1836 C 0.87758 0.73406 0.75561 0.0
C1837 C 0.86313 0.74615 0.76707 0.0
C1838 C 0.86534 0.76973 0.76649 0.0
C1839 C 0.88206 0.78103 0.75408 0.0
H1840 H 0.14736 0.01905 0.87623 0.0
H1841 H 0.13793 0.08234 0.85795 0.0
H1842 H 0.11864 0.08977 0.89315 0.0
H1843 H 0.09187 1.00334 0.89953 0.0
H1844 H 0.10237 0.99188 0.92308 0.0
H1845 H 0.11605 0.99118 0.89669 0.0
H1846 H 0.15436 1.0131 0.92086 0.0
H1847 H 0.14072 1.01377 0.94727 0.0
H1848 H 0.15648 0.04027 0.94038 0.0
H1849 H 0.10059 0.09184 0.93245 0.0
H1850 H 0.08443 0.08722 0.96923 0.0
H1851 H 0.10188 0.02159 0.96423 0.0
C1852 C 0.14127 0.03452 0.87951 0.0
C1853 C 0.14476 0.0501 0.86327 0.0
C1854 C 0.13598 0.06989 0.86918 0.0
C1855 C 0.12482 0.07436 0.88955 0.0
C1856 C 0.12173 0.05894 0.90491 0.0
C1857 C 0.12956 0.03922 0.90008 0.0
C1858 C 0.12338 0.02536 0.91961 0.0
C1859 C 0.10748 1.00151 0.9091 0.0
C1860 C 0.14503 0.02297 0.93281 0.0
C1861 C 0.11101 0.04027 0.93604 0.0
C1862 C 0.11055 0.0597 0.92711 0.0
C1863 C 0.10084 0.0765 0.93921 0.0
C1864 C 0.09153 0.07367 0.96051 0.0
C1865 C 0.09108 0.05393 0.97055 0.0
C1866 C 0.10119 0.03689 0.95756 0.0
H1867 H 0.80899 0.41327 0.54449 0.0
H1868 H 0.77504 0.46234 0.58045 0.0
H1869 H 0.77359 0.44295 0.61416 0.0
H1870 H 0.77997 0.36268 0.56654 0.0
H1871 H 0.8054 0.35269 0.56929 0.0
H1872 H 0.80134 0.3688 0.54713 0.0
H1873 H 0.83975 0.39838 0.56317 0.0
H1874 H 0.84388 0.38245 0.5854 0.0
H1875 H 0.84454 0.41265 0.59351 0.0
H1876 H 0.77787 0.41924 0.64486 0.0
H1877 H 0.78833 0.39421 0.67017 0.0
H1878 H 0.82161 0.36257 0.61455 0.0
C1879 C 0.80074 0.41965 0.5592 0.0
C1880 C 0.79186 0.43917 0.5597 0.0
C1881 C 0.78181 0.44732 0.57961 0.0
C1882 C 0.78089 0.43639 0.59881 0.0
C1883 C 0.79022 0.41745 0.5979 0.0
C1884 C 0.79998 0.40919 0.57858 0.0
C1885 C 0.81041 0.38977 0.58257 0.0
C1886 C 0.79856 0.36715 0.56536 0.0
C1887 C 0.83616 0.39621 0.58108 0.0
C1888 C 0.80523 0.38851 0.60726 0.0
C1889 C 0.79336 0.40441 0.61574 0.0
C1890 C 0.78714 0.40672 0.63835 0.0
C1891 C 0.79334 0.39252 0.65268 0.0
C1892 C 0.80586 0.37632 0.64447 0.0
C1893 C 0.8117 0.37437 0.62135 0.0
H1894 H 0.51085 0.04652 0.38274 0.0
H1895 H 0.46196 0.08524 0.40485 0.0
H1896 H 0.4831 0.098 0.44432 0.0
H1897 H 0.51526 0.0243 0.43078 0.0
H1898 H 0.54521 0.02588 0.43207 0.0
H1899 H 0.52927 0.02388 0.4046 0.0
H1900 H 0.55688 0.06141 0.39872 0.0
H1901 H 0.57307 0.06347 0.42623 0.0
H1902 H 0.56208 0.08734 0.42098 0.0
H1903 H 0.50407 0.09911 0.48261 0.0
H1904 H 0.52508 0.09084 0.51624 0.0
H1905 H 0.56173 0.05339 0.46897 0.0
C1906 C 0.505 0.05829 0.39568 0.0
C1907 C 0.4848 0.06491 0.39081 0.0
C1908 C 0.47751 0.08011 0.40821 0.0
C1909 C 0.48943 0.08746 0.43065 0.0
C1910 C 0.5088 0.07983 0.43517 0.0
C1911 C 0.51679 0.06592 0.41803 0.0
C1912 C 0.53649 0.05804 0.42786 0.0
C1913 C 0.53122 0.03147 0.42358 0.0
C1914 C 0.55843 0.06818 0.41785 0.0
C1915 C 0.53753 0.06858 0.45346 0.0
C1916 C 0.52157 0.0813 0.45732 0.0
C1917 C 0.51715 0.0899 0.47979 0.0
C1918 C 0.52904 0.08505 0.49874 0.0
C1919 C 0.54525 0.07193 0.49503 0.0
C1920 C 0.54998 0.06417 0.47219 0.0
H1921 H 0.83692 0.73805 0.10944 0.0
H1922 H 0.77938 0.76177 0.08576 0.0
H1923 H 0.77565 0.77819 0.12679 0.0
H1924 H 0.81629 0.72109 0.15953 0.0
H1925 H 0.84316 0.73093 0.17765 0.0
H1926 H 0.84242 0.72259 0.14647 0.0
H1927 H 0.86852 0.76254 0.14528 0.0
H1928 H 0.86956 0.77091 0.17653 0.0
H1929 H 0.86049 0.78839 0.15793 0.0
H1930 H 0.77555 0.78798 0.17105 0.0
H1931 H 0.78192 0.7946 0.21414 0.0
H1932 H 0.84106 0.76676 0.20903 0.0
C1933 C 0.8238 0.74711 0.1128 0.0
C1934 C 0.80845 0.74863 0.09421 0.0
C1935 C 0.79149 0.76055 0.09953 0.0
C1936 C 0.78916 0.76982 0.12286 0.0
C1937 C 0.80417 0.76742 0.14076 0.0
C1938 C 0.82148 0.75678 0.13595 0.0
C1939 C 0.83523 0.75622 0.15834 0.0
C1940 C 0.8342 0.73122 0.16062 0.0
C1941 C 0.85991 0.77036 0.15959 0.0
C1942 C 0.82265 0.76771 0.17659 0.0
C1943 C 0.80468 0.7739 0.16609 0.0
C1944 C 0.7898 0.78352 0.17938 0.0
C1945 C 0.79348 0.7871 0.20389 0.0
C1946 C 0.81208 0.78139 0.21509 0.0
C1947 C 0.82687 0.77163 0.2011 0.0
H1948 H 0.14805 0.05123 0.72753 0.0
H1949 H 0.1714 0.98911 0.70817 0.0
H1950 H 0.15442 0.98421 0.66763 0.0
H1951 H 0.09421 0.03211 0.68754 0.0
H1952 H 0.09618 0.05978 0.67978 0.0
H1953 H 0.10897 0.05823 0.70786 0.0
H1954 H 0.14756 0.08165 0.69935 0.0
H1955 H 0.13489 0.08323 0.67122 0.0
H1956 H 0.15937 0.0716 0.67321 0.0
H1957 H 0.13448 0.9853 0.62786 0.0
H1958 H 0.11556 0.99292 0.59302 0.0
H1959 H 0.10547 0.05596 0.63417 0.0
C1960 C 0.1493 0.03634 0.7149 0.0
C1961 C 0.16113 0.02026 0.72205 0.0
C1962 C 0.16255 1.00163 0.70407 0.0
C1963 C 0.15284 0.99869 0.68063 0.0
C1964 C 0.14162 1.01469 0.67424 0.0
C1965 C 0.1399 0.03332 0.69083 0.0
C1966 C 0.12764 0.04841 0.67861 0.0
C1967 C 0.10543 0.04972 0.68908 0.0
C1968 C 0.1433 0.07267 0.68073 0.0
C1969 C 0.12269 0.03536 0.65276 0.0
C1970 C 0.13086 0.01583 0.65095 0.0
C1971 C 0.12819 1.00064 0.62934 0.0
C1972 C 0.11716 1.00523 0.60929 0.0
C1973 C 0.10856 0.02516 0.60978 0.0
C1974 C 0.11164 0.04053 0.63237 0.0
H1975 H 0.81129 0.42162 0.41286 0.0
H1976 H 0.8261 0.38394 0.46556 0.0
H1977 H 0.83051 0.3523 0.43476 0.0
H1978 H 0.78038 0.3719 0.36836 0.0
H1979 H 0.79238 0.38335 0.34439 0.0
H1980 H 0.78915 0.4027 0.37043 0.0
H1981 H 0.83203 0.42301 0.37472 0.0
H1982 H 0.83537 0.40365 0.34875 0.0
H1983 H 0.85259 0.40613 0.37574 0.0
H1984 H 0.83224 0.32399 0.39837 0.0
H1985 H 0.83365 0.30214 0.35873 0.0
H1986 H 0.82108 0.35894 0.3292 0.0
C1987 C 0.81525 0.4066 0.41784 0.0
C1988 C 0.81817 0.40522 0.44169 0.0
C1989 C 0.82376 0.38543 0.44748 0.0
C1990 C 0.82626 0.36731 0.43008 0.0
C1991 C 0.8235 0.36923 0.40681 0.0
C1992 C 0.81831 0.38843 0.40059 0.0
C1993 C 0.81726 0.38642 0.37425 0.0
C1994 C 0.79337 0.38607 0.36374 0.0
C1995 C 0.83539 0.40597 0.368 0.0
C1996 C 0.82259 0.36313 0.36674 0.0
C1997 C 0.82584 0.35341 0.38582 0.0
C1998 C 0.82998 0.33155 0.38332 0.0
C1999 C 0.83077 0.31925 0.36075 0.0
C2000 C 0.8279 0.32896 0.34094 0.0
C2001 C 0.82388 0.35128 0.34407 0.0
H2002 H 0.48243 0.03385 0.27234 0.0
H2003 H 0.41895 0.04796 0.24917 0.0
H2004 H 0.4294 0.04428 0.20896 0.0
H2005 H 0.51687 0.0652 0.23505 0.0
H2006 H 0.53389 0.04466 0.22978 0.0
H2007 H 0.5215 0.04881 0.25679 0.0
H2008 H 0.50208 1.00498 0.24909 0.0
H2009 H 0.51426 1.00073 0.22196 0.0
H2010 H 0.48396 0.99149 0.22222 0.0
H2011 H 0.44616 0.03782 0.17111 0.0
H2012 H 0.46897 0.03074 0.13852 0.0
H2013 H 0.52179 0.02201 0.18686 0.0
C2014 C 0.47075 0.03629 0.25887 0.0
C2015 C 0.44987 0.04117 0.26391 0.0
C2016 C 0.43508 0.04425 0.24574 0.0
C2017 C 0.44082 0.04215 0.22283 0.0
C2018 C 0.46142 0.03706 0.21844 0.0
C2019 C 0.47623 0.03434 0.23596 0.0
C2020 C 0.49732 0.02897 0.22661 0.0
C2021 C 0.51865 0.04805 0.23772 0.0
C2022 C 0.49952 1.00513 0.23018 0.0
C2023 C 0.49199 0.02897 0.20107 0.0
C2024 C 0.47119 0.03361 0.19669 0.0
C2025 C 0.46256 0.03433 0.17433 0.0
C2026 C 0.47567 0.03039 0.15597 0.0
C2027 C 0.49718 0.02588 0.16015 0.0
C2028 C 0.5053 0.0251 0.18303 0.0
H2029 H 0.77853 0.74398 0.94837 0.0
H2030 H 0.84801 0.746 0.97184 0.0
H2031 H 0.86074 0.76068 0.93699 0.0
H2032 H 0.78265 0.72376 0.88684 0.0
H2033 H 0.76437 0.74021 0.87679 0.0
H2034 H 0.76077 0.73068 0.90398 0.0
H2035 H 0.76519 0.7729 0.92549 0.0
H2036 H 0.76881 0.78251 0.89835 0.0
H2037 H 0.7901 0.79483 0.92308 0.0
H2038 H 0.86618 0.77673 0.89978 0.0
H2039 H 0.86342 0.78957 0.86222 0.0
H2040 H 0.79016 0.77437 0.86102 0.0
C2041 C 0.79645 0.74763 0.94624 0.0
C2042 C 0.8123 0.74399 0.96312 0.0
C2043 C 0.83552 0.74865 0.95932 0.0
C2044 C 0.84293 0.75706 0.93953 0.0
C2045 C 0.82691 0.76044 0.92325 0.0
C2046 C 0.80409 0.75558 0.92623 0.0
C2047 C 0.79027 0.75981 0.9056 0.0
C2048 C 0.77353 0.73727 0.89253 0.0
C2049 C 0.77786 0.77863 0.91361 0.0
C2050 C 0.80887 0.76807 0.89073 0.0
C2051 C 0.82992 0.76852 0.90134 0.0
C2052 C 0.84973 0.77623 0.89128 0.0
C2053 C 0.84801 0.78357 0.86991 0.0
C2054 C 0.82661 0.78289 0.85841 0.0
C2055 C 0.80681 0.77491 0.86911 0.0
H2056 H 0.9094 0.11755 0.04172 0.0
H2057 H 0.86954 0.04922 0.0447 0.0
H2058 H 0.90348 0.03408 0.0398 0.0
H2059 H 0.94742 0.10001 0.99989 0.0
H2060 H 0.9725 0.12132 1.0146 0.0
H2061 H 0.94493 0.127 0.01686 0.0
H2062 H 0.95235 0.13473 0.06189 0.0
H2063 H 0.97994 0.12912 0.0597 0.0
H2064 H 0.95999 0.11307 0.07578 0.0
H2065 H 0.94144 0.02562 0.03374 0.0
H2066 H 0.98123 0.02485 0.03111 0.0
H2067 H 0.99968 0.09904 0.03546 0.0
C2068 C 0.90779 0.09935 0.04106 0.0
C2069 C 0.88635 0.08451 0.04324 0.0
C2070 C 0.88541 0.06096 0.04292 0.0
C2071 C 0.90472 0.05216 0.04009 0.0
C2072 C 0.92545 0.06708 0.03807 0.0
C2073 C 0.9273 0.09029 0.03889 0.0
C2074 C 0.95217 0.10262 0.03774 0.0
C2075 C 0.95438 0.11338 0.01598 0.0
C2076 C 0.96167 0.12098 0.06011 0.0
C2077 C 0.96386 0.08272 0.03596 0.0
C2078 C 0.94788 0.06238 0.03588 0.0
C2079 C 0.95404 0.04151 0.03392 0.0
C2080 C 0.97694 0.04128 0.03231 0.0
C2081 C 0.99415 0.06179 0.03294 0.0
C2082 C 0.98725 0.08291 0.0348 0.0
H2083 H 0.40769 0.45651 0.05139 0.0
H2084 H 0.42423 0.39233 0.05868 0.0
H2085 H 0.46481 0.41078 0.05925 0.0
H2086 H 0.4498 0.47214 1.01261 0.0
H2087 H 0.45658 0.50265 0.02493 0.0
H2088 H 0.42865 0.48484 0.02593 0.0
H2089 H 0.43294 0.49867 0.07083 0.0
H2090 H 0.46092 0.51647 0.06998 0.0
H2091 H 0.45696 0.49535 0.08826 0.0
H2092 H 0.50334 0.43554 0.05923 0.0
H2093 H 0.53789 0.46453 0.05621 0.0
H2094 H 0.49778 0.51339 0.04749 0.0
C2095 C 0.41987 0.44638 0.0532 0.0
C2096 C 0.41264 0.42289 0.05507 0.0
C2097 C 0.42919 0.41025 0.05717 0.0
C2098 C 0.45235 0.42063 0.0576 0.0
C2099 C 0.45889 0.44369 0.05574 0.0
C2100 C 0.44322 0.45644 0.05339 0.0
C2101 C 0.45502 0.48077 0.05089 0.0
C2102 C 0.44704 0.48536 0.02718 0.0
C2103 C 0.45123 0.49889 0.0712 0.0
C2104 C 0.47972 0.47961 0.05219 0.0
C2105 C 0.48142 0.45805 0.05519 0.0
C2106 C 0.50223 0.45248 0.05687 0.0
C2107 C 0.52185 0.46923 0.05517 0.0
C2108 C 0.52076 0.49145 0.05164 0.0
C2109 C 0.4993 0.49669 0.05028 0.0
H2110 H 0.37017 0.62127 0.74156 0.0
H2111 H 0.42653 0.64736 0.79633 0.0
H2112 H 0.41706 0.68506 0.8037 0.0
H2113 H 0.37476 0.6764 0.7206 0.0
H2114 H 0.34462 0.67312 0.71542 0.0
H2115 H 0.3557 0.64794 0.71346 0.0
H2116 H 0.32994 0.6338 0.74374 0.0
H2117 H 0.31877 0.65894 0.74573 0.0
H2118 H 0.33124 0.65256 0.77169 0.0
H2119 H 0.40203 0.72297 0.80497 0.0
H2120 H 0.38246 0.75359 0.80183 0.0
H2121 H 0.33288 0.70571 0.74823 0.0
C2122 C 0.38067 0.63481 0.75516 0.0
C2123 C 0.39969 0.63003 0.76821 0.0
C2124 C 0.41213 0.64926 0.78577 0.0
C2125 C 0.40676 0.67129 0.79015 0.0
C2126 C 0.38828 0.67528 0.77724 0.0
C2127 C 0.37522 0.6574 0.7601 0.0
C2128 C 0.35588 0.66656 0.74921 0.0
C2129 C 0.35784 0.66595 0.72312 0.0
C2130 C 0.33256 0.65209 0.75279 0.0
C2131 C 0.35995 0.69205 0.76283 0.0
C2132 C 0.37907 0.69664 0.77872 0.0
C2133 C 0.38692 0.71901 0.79269 0.0
C2134 C 0.3754 0.73673 0.79075 0.0
C2135 C 0.35526 0.73321 0.77521 0.0
C2136 C 0.3477 0.70988 0.76092 0.0
H2137 H 0.24697 0.59991 0.51578 0.0
H2138 H 0.26398 0.55805 0.56334 0.0
H2139 H 0.22287 0.54195 0.56508 0.0
H2140 H 0.20097 0.61452 0.54276 0.0
H2141 H 0.1839 0.61312 0.516 0.0
H2142 H 0.21437 0.61993 0.51712 0.0
H2143 H 0.21146 0.58594 0.48238 0.0
H2144 H 0.18093 0.57913 0.48101 0.0
H2145 H 0.19578 0.55732 0.48407 0.0
H2146 H 0.17903 0.53278 0.56387 0.0
H2147 H 0.13781 0.52937 0.55795 0.0
H2148 H 0.14928 0.57677 0.51041 0.0
C2149 C 0.24217 0.58703 0.5263 0.0
C2150 C 0.25908 0.58023 0.53936 0.0
C2151 C 0.25167 0.56343 0.55294 0.0
C2152 C 0.22823 0.55429 0.55414 0.0
C2153 C 0.21215 0.56187 0.54149 0.0
C2154 C 0.2189 0.57766 0.52755 0.0
C2155 C 0.19839 0.58343 0.516 0.0
C2156 C 0.19948 0.60928 0.52342 0.0
C2157 C 0.19654 0.57601 0.48928 0.0
C2158 C 0.17894 0.56874 0.52586 0.0
C2159 C 0.18723 0.55643 0.54055 0.0
C2160 C 0.17252 0.54224 0.55223 0.0
C2161 C 0.14897 0.54048 0.54879 0.0
C2162 C 0.1399 0.55273 0.53366 0.0
C2163 C 0.15536 0.56702 0.52202 0.0
H2164 H 0.80043 1.00031 0.72814 0.0
H2165 H 0.76817 0.0229 0.78892 0.0
H2166 H 0.7916 1.00573 0.8129 0.0
H2167 H 0.80209 0.94632 0.74019 0.0
H2168 H 0.82922 0.94627 0.72974 0.0
H2169 H 0.81142 0.96217 0.71795 0.0
H2170 H 0.84425 0.99942 0.72906 0.0
H2171 H 0.86213 0.98362 0.74104 0.0
H2172 H 0.85725 1.0091 0.75886 0.0
H2173 H 0.81612 0.98346 0.82943 0.0
H2174 H 0.83839 0.95608 0.83682 0.0
H2175 H 0.8559 0.9493 0.76567 0.0
C2176 C 0.79846 1.00187 0.74654 0.0
C2177 C 0.78252 1.01298 0.75668 0.0
C2178 C 0.78031 1.01448 0.78079 0.0
C2179 C 0.79362 1.0049 0.79458 0.0
C2180 C 0.80915 0.99402 0.78403 0.0
C2181 C 0.81162 0.99243 0.76056 0.0
C2182 C 0.82846 0.97855 0.75316 0.0
C2183 C 0.81711 0.95706 0.73415 0.0
C2184 C 0.84926 0.99358 0.74506 0.0
C2185 C 0.8346 0.97203 0.776 0.0
C2186 C 0.8235 0.98135 0.79366 0.0
C2187 C 0.82524 0.97639 0.81587 0.0
C2188 C 0.83811 0.96094 0.81996 0.0
C2189 C 0.84905 0.95058 0.80188 0.0
C2190 C 0.84775 0.95686 0.77986 0.0
H2191 H 0.78057 0.95209 0.57324 0.0
H2192 H 0.7716 0.89896 0.51051 0.0
H2193 H 0.73833 0.91097 0.49558 0.0
H2194 H 0.72103 0.94638 0.57887 0.0
H2195 H 0.7244 0.9769 0.5891 0.0
H2196 H 0.74745 0.96411 0.59482 0.0
H2197 H 0.77393 0.99315 0.5751 0.0
H2198 H 0.75098 1.00607 0.56938 0.0
H2199 H 0.76557 0.99535 0.54569 0.0
H2200 H 0.70621 0.92935 0.48726 0.0
H2201 H 0.67777 0.95224 0.48636 0.0
H2202 H 0.70762 0.99319 0.55468 0.0
C2203 C 0.77164 0.94296 0.55635 0.0
C2204 C 0.77877 0.92457 0.54303 0.0
C2205 C 0.76651 0.91307 0.52105 0.0
C2206 C 0.74757 0.91978 0.51242 0.0
C2207 C 0.74101 0.93797 0.52601 0.0
C2208 C 0.75266 0.94936 0.54753 0.0
C2209 C 0.74216 0.96836 0.5587 0.0
C2210 C 0.73323 0.96364 0.58174 0.0
C2211 C 0.75917 0.99214 0.56243 0.0
C2212 C 0.72283 0.96598 0.54007 0.0
C2213 C 0.72246 0.94836 0.52134 0.0
C2214 C 0.70636 0.94316 0.50185 0.0
C2215 C 0.69032 0.95635 0.50145 0.0
C2216 C 0.69038 0.97455 0.52043 0.0
C2217 C 0.70687 0.97923 0.54002 0.0
H2218 H 0.42498 0.47518 0.78665 0.0
H2219 H 0.36691 0.49761 0.76229 0.0
H2220 H 0.34243 0.45835 0.76093 0.0
H2221 H 0.40811 0.41663 0.75079 0.0
H2222 H 0.41866 0.40334 0.77277 0.0
H2223 H 0.4315 0.43309 0.77222 0.0
H2224 H 0.42423 0.44528 0.81498 0.0
H2225 H 0.41138 0.41557 0.81569 0.0
H2226 H 0.39583 0.43718 0.82299 0.0
H2227 H 0.32322 0.41452 0.76276 0.0
H2228 H 0.31231 0.37383 0.76641 0.0
H2229 H 0.38247 0.37745 0.7887 0.0
C2230 C 0.40706 0.47209 0.78104 0.0
C2231 C 0.39837 0.49065 0.77469 0.0
C2232 C 0.37461 0.48467 0.76738 0.0
C2233 C 0.3604 0.46202 0.76655 0.0
C2234 C 0.3696 0.44445 0.7729 0.0
C2235 C 0.39256 0.44932 0.77995 0.0
C2236 C 0.39835 0.42728 0.7856 0.0
C2237 C 0.41516 0.41964 0.76939 0.0
C2238 C 0.40803 0.43159 0.81135 0.0
C2239 C 0.3752 0.40912 0.7808 0.0
C2240 C 0.35884 0.41956 0.77354 0.0
C2241 C 0.33618 0.40657 0.76837 0.0
C2242 C 0.33004 0.38298 0.77056 0.0
C2243 C 0.34608 0.37117 0.77783 0.0
C2244 C 0.36929 0.38504 0.78295 0.0
H2245 H 0.24003 0.62029 0.24928 0.0
H2246 H 0.27567 0.60232 0.18961 0.0
H2247 H 0.29117 0.64386 0.19018 0.0
H2248 H 0.22497 0.66906 0.23273 0.0
H2249 H 0.22929 0.68553 0.26224 0.0
H2250 H 0.22089 0.65445 0.25685 0.0
H2251 H 0.25589 0.65435 0.28441 0.0
H2252 H 0.26436 0.68541 0.28994 0.0
H2253 H 0.28387 0.66894 0.27916 0.0
H2254 H 0.30262 0.68746 0.19749 0.0
H2255 H 0.31025 0.7296 0.21169 0.0
H2256 H 0.26715 0.71817 0.26675 0.0
C2257 C 0.25103 0.625 0.23624 0.0
C2258 C 0.25658 0.60807 0.21933 0.0
C2259 C 0.2712 0.61502 0.20273 0.0
C2260 C 0.28003 0.63854 0.20288 0.0
C2261 C 0.27411 0.65475 0.2198 0.0
C2262 C 0.26003 0.64825 0.23622 0.0
C2263 C 0.25656 0.66894 0.25284 0.0
C2264 C 0.23144 0.66952 0.25104 0.0
C2265 C 0.26572 0.66943 0.27807 0.0
C2266 C 0.2709 0.68818 0.24321 0.0
C2267 C 0.28083 0.6797 0.22412 0.0
C2268 C 0.29493 0.6943 0.21242 0.0
C2269 C 0.29912 0.7182 0.22061 0.0
C2270 C 0.28928 0.72719 0.24033 0.0
C2271 C 0.27491 0.71189 0.25162 0.0
H2272 H 0.56283 0.7839 0.47498 0.0
H2273 H 0.51349 0.74091 0.41798 0.0
H2274 H 0.51637 0.70627 0.43334 0.0
H2275 H 0.59846 0.74595 0.47513 0.0
H2276 H 0.60528 0.75247 0.50641 0.0
H2277 H 0.5981 0.77383 0.49183 0.0
H2278 H 0.56605 0.77716 0.51822 0.0
H2279 H 0.57316 0.75581 0.53293 0.0
H2280 H 0.54458 0.75156 0.51966 0.0
H2281 H 0.526 0.67635 0.45414 0.0
H2282 H 0.54165 0.65334 0.47852 0.0
H2283 H 0.58528 0.71628 0.52119 0.0
C2284 C 0.5524 0.76725 0.46582 0.0
C2285 C 0.53786 0.76508 0.44532 0.0
C2286 C 0.5247 0.74295 0.43375 0.0
C2287 C 0.52621 0.72322 0.44236 0.0
C2288 C 0.54093 0.726 0.4625 0.0
C2289 C 0.55377 0.74748 0.47408 0.0
C2290 C 0.56901 0.7458 0.49477 0.0
C2291 C 0.5942 0.75506 0.49184 0.0
C2292 C 0.56282 0.75832 0.51776 0.0
C2293 C 0.56295 0.71995 0.49293 0.0
C2294 C 0.54664 0.70883 0.47429 0.0
C2295 C 0.53875 0.68488 0.46879 0.0
C2296 C 0.54787 0.67197 0.48263 0.0
C2297 C 0.56478 0.68303 0.50168 0.0
C2298 C 0.57221 0.70735 0.50692 0.0
H2299 H 0.69583 0.33865 0.65621 0.0
H2300 H 0.64431 0.33656 0.7039 0.0
H2301 H 0.67332 0.34034 0.73665 0.0
H2302 H 0.71982 0.30222 0.67583 0.0
H2303 H 0.74903 0.31535 0.67312 0.0
H2304 H 0.72674 0.32041 0.6549 0.0
H2305 H 0.74201 0.36457 0.6695 0.0
H2306 H 0.76475 0.35965 0.68753 0.0
H2307 H 0.74647 0.37663 0.7004 0.0
H2308 H 0.70522 0.33487 0.76197 0.0
H2309 H 0.73783 0.32236 0.77782 0.0
H2310 H 0.76787 0.32647 0.71315 0.0
C2311 C 0.69089 0.34029 0.67373 0.0
C2312 C 0.66789 0.33745 0.67756 0.0
C2313 C 0.6619 0.33885 0.70062 0.0
C2314 C 0.67829 0.34105 0.71935 0.0
C2315 C 0.70058 0.34202 0.71474 0.0
C2316 C 0.70701 0.34213 0.69251 0.0
C2317 C 0.73094 0.33931 0.69129 0.0
C2318 C 0.73164 0.31806 0.6727 0.0
C2319 C 0.74698 0.36136 0.68693 0.0
C2320 C 0.73623 0.33582 0.71572 0.0
C2321 C 0.71887 0.33814 0.72924 0.0
C2322 C 0.71917 0.33357 0.75174 0.0
C2323 C 0.73764 0.32631 0.76054 0.0
C2324 C 0.75519 0.32324 0.74661 0.0
C2325 C 0.7546 0.32852 0.72416 0.0
H2326 H 0.03754 0.36991 0.95603 0.0
H2327 H 0.96547 0.36328 0.95986 0.0
H2328 H 0.97316 0.40523 0.97497 0.0
H2329 H 0.05627 0.41158 1.00914 0.0
H2330 H 0.08097 0.42744 0.9985 0.0
H2331 H 0.06977 0.39705 0.9867 0.0
H2332 H 0.06628 0.40534 0.94496 0.0
H2333 H 0.07749 0.43577 0.95665 0.0
H2334 H 0.05044 0.42556 0.93889 0.0
H2335 H 0.98844 0.44739 0.99005 0.0
H2336 H 1.01061 0.48732 1.00589 0.0
H2337 H 0.073 0.46658 0.9935 0.0
C2338 C 0.02338 0.37734 0.95985 0.0
C2339 C 1.00091 0.36342 0.95669 0.0
C2340 C 0.98283 0.37366 0.96218 0.0
C2341 C 0.987 0.39746 0.97069 0.0
C2342 C 1.00935 0.41069 0.97374 0.0
C2343 C 0.02727 0.40104 0.96861 0.0
C2344 C 0.04975 0.41905 0.97446 0.0
C2345 C 0.06509 0.41344 0.99332 0.0
C2346 C 0.06169 0.42158 0.95242 0.0
C2347 C 0.04163 0.44028 0.98377 0.0
C2348 C 0.01826 0.43507 0.98299 0.0
C2349 C 1.00676 0.45173 0.99074 0.0
C2350 C 0.01953 0.47437 0.99968 0.0
C2351 C 0.04354 0.48007 1.00096 0.0
C2352 C 0.05467 0.46276 0.99278 0.0
H2353 H 0.04142 0.81899 0.16722 0.0
H2354 H 0.02509 0.74664 0.13391 0.0
H2355 H 0.98669 0.74131 0.14652 0.0
H2356 H 0.01887 0.81053 0.21669 0.0
H2357 H 1.00775 0.8357 0.22225 0.0
H2358 H 0.03134 0.83573 0.20543 0.0
H2359 H 1.00914 0.84574 0.17121 0.0
H2360 H 0.98546 0.84597 0.18806 0.0
H2361 H 0.98133 0.82776 0.15939 0.0
H2362 H 0.95385 0.74179 0.16841 0.0
H2363 H 0.9286 0.74784 0.19889 0.0
H2364 H 0.96597 0.81965 0.2198 0.0
C2365 C 0.02926 0.80238 0.16169 0.0
C2366 C 0.03575 0.78331 0.14914 0.0
C2367 C 0.02007 0.76146 0.14314 0.0
C2368 C 0.99826 0.75833 0.15017 0.0
C2369 C 0.99252 0.77721 0.16337 0.0
C2370 C 1.0075 0.79888 0.16904 0.0
C2371 C 0.9985 0.81525 0.18653 0.0
C2372 C 1.0151 0.82485 0.20905 0.0
C2373 C 0.9933 0.83484 0.17564 0.0
C2374 C 0.97685 0.79904 0.19079 0.0
C2375 C 0.97348 0.77736 0.17677 0.0
C2376 C 0.95599 0.7588 0.17911 0.0
C2377 C 0.94185 0.76234 0.19654 0.0
C2378 C 0.94537 0.78421 0.21151 0.0
C2379 C 0.96269 0.80292 0.20819 0.0
H2380 H 0.57615 0.32922 0.14002 0.0
H2381 H 0.50273 0.31515 0.13654 0.0
H2382 H 0.50295 0.34244 0.10988 0.0
H2383 H 0.58676 0.39013 0.13932 0.0
H2384 H 0.60987 0.38976 0.1217 0.0
H2385 H 0.60371 0.36976 0.14099 0.0
H2386 H 0.59999 0.33558 0.1061 0.0
H2387 H 0.60598 0.35545 0.08669 0.0
H2388 H 0.58031 0.33247 0.08069 0.0
H2389 H 0.51145 0.37023 0.08212 0.0
H2390 H 0.52757 0.39754 0.05739 0.0
H2391 H 0.59531 0.39299 0.07963 0.0
C2392 C 0.56008 0.33197 0.13384 0.0
C2393 C 0.5394 0.32006 0.14036 0.0
C2394 C 0.51878 0.32416 0.13183 0.0
C2395 C 0.51875 0.33957 0.11665 0.0
C2396 C 0.53947 0.35077 0.11031 0.0
C2397 C 0.55976 0.34726 0.11881 0.0
C2398 C 0.57973 0.36113 0.10925 0.0
C2399 C 0.59597 0.37874 0.12899 0.0
C2400 C 0.59223 0.3452 0.09482 0.0
C2401 C 0.56756 0.37297 0.09389 0.0
C2402 C 0.54434 0.36675 0.09463 0.0
C2403 C 0.52961 0.37524 0.08148 0.0
C2404 C 0.53889 0.3906 0.06737 0.0
C2405 C 0.56268 0.39734 0.0666 0.0
C2406 C 0.57709 0.38832 0.08004 0.0
H2407 H 0.04071 0.28068 0.33765 0.0
H2408 H 0.04299 0.33809 0.3948 0.0
H2409 H 0.01675 0.35188 0.37073 0.0
H2410 H 0.03732 0.31018 0.29066 0.0
H2411 H 0.01697 0.2866 0.27153 0.0
H2412 H 0.03631 0.28082 0.2929 0.0
H2413 H 1.00253 0.2575 0.31026 0.0
H2414 H 0.98314 0.26279 0.28863 0.0
H2415 H 0.9801 0.2707 0.31921 0.0
H2416 H 0.99266 0.36102 0.34059 0.0
H2417 H 0.96484 0.36083 0.30836 0.0
H2418 H 0.97528 0.29632 0.27079 0.0
C2419 C 0.03542 0.29598 0.34511 0.0
C2420 C 0.04389 0.30834 0.36805 0.0
C2421 C 0.03657 0.32823 0.37734 0.0
C2422 C 0.02188 0.33638 0.36373 0.0
C2423 C 1.01435 0.32423 0.34102 0.0
C2424 C 0.02026 0.30411 0.33192 0.0
C2425 C 1.00847 0.29377 0.30739 0.0
C2426 C 0.02581 0.29279 0.28957 0.0
C2427 C 0.99261 0.26977 0.30632 0.0
C2428 C 0.99518 0.31136 0.30422 0.0
C2429 C 0.99931 0.32899 0.32371 0.0
C2430 C 0.98919 0.34732 0.3252 0.0
C2431 C 0.97362 0.34719 0.30664 0.0
C2432 C 0.9681 0.32869 0.28694 0.0
C2433 C 0.97936 0.31075 0.28555 0.0
H2434 H 1.01548 0.66901 0.64128 0.0
H2435 H 0.05261 0.72574 0.61236 0.0
H2436 H 0.06687 0.69829 0.58458 0.0
H2437 H 0.05769 0.63764 0.63867 0.0
H2438 H 0.03794 0.60959 0.63067 0.0
H2439 H 0.02949 0.63342 0.64755 0.0
H2440 H 0.99511 0.62724 0.61656 0.0
H2441 H 1.00331 0.60321 0.59973 0.0
H2442 H 0.99976 0.6268 0.58644 0.0
H2443 H 0.07809 0.66517 0.56095 0.0
H2444 H 0.08442 0.62802 0.54171 0.0
H2445 H 0.04045 0.59289 0.58641 0.0
C2446 C 0.02636 0.67564 0.62891 0.0
C2447 C 0.03291 0.69952 0.62896 0.0
C2448 C 0.04737 0.70752 0.61264 0.0
C2449 C 0.05558 0.69208 0.59681 0.0
C2450 C 0.04918 0.66874 0.59755 0.0
C2451 C 0.03481 0.6605 0.61305 0.0
C2452 C 0.03095 0.63463 0.61052 0.0
C2453 C 0.03954 0.62847 0.6332 0.0
C2454 C 1.00579 0.62224 0.60285 0.0
C2455 C 0.04555 0.62968 0.59127 0.0
C2456 C 0.05586 0.6496 0.58403 0.0
C2457 C 0.07007 0.64942 0.56641 0.0
C2458 C 0.07358 0.62823 0.55563 0.0
C2459 C 0.06296 0.60754 0.56258 0.0
C2460 C 0.04895 0.6084 0.5808 0.0
H2461 H 0.66828 0.80415 0.86269 0.0
H2462 H 0.70145 0.85342 0.92569 0.0
H2463 H 0.73687 0.86182 0.90702 0.0
H2464 H 0.7167 0.78151 0.8503 0.0
H2465 H 0.71042 0.77739 0.81911 0.0
H2466 H 0.68776 0.77591 0.83741 0.0
H2467 H 0.67489 0.80752 0.81972 0.0
H2468 H 0.69781 0.8094 0.80168 0.0
H2469 H 0.69486 0.83491 0.82108 0.0
H2470 H 0.76824 0.86528 0.8813 0.0
H2471 H 0.7952 0.85973 0.8526 0.0
H2472 H 0.74176 0.80728 0.8067 0.0
C2473 C 0.68301 0.81669 0.87258 0.0
C2474 C 0.68213 0.82825 0.89559 0.0
C2475 C 0.70181 0.84432 0.90808 0.0
C2476 C 0.72191 0.84934 0.89755 0.0
C2477 C 0.72203 0.83798 0.87465 0.0
C2478 C 0.70324 0.82169 0.86247 0.0
C2479 C 0.70817 0.81102 0.83854 0.0
C2480 C 0.70562 0.78492 0.83621 0.0
C2481 C 0.69303 0.81602 0.81911 0.0
C2482 C 0.73272 0.82391 0.83912 0.0
C2483 C 0.74029 0.83957 0.86 0.0
C2484 C 0.76252 0.85307 0.8649 0.0
C2485 C 0.77768 0.84983 0.84842 0.0
C2486 C 0.7706 0.83306 0.82737 0.0
C2487 C 0.74764 0.82044 0.82245 0.0
H2488 H 0.47449 0.58106 0.69737 0.0
H2489 H 0.50062 0.53102 0.72741 0.0
H2490 H 0.52175 0.52425 0.69353 0.0
H2491 H 0.46977 0.55213 0.63547 0.0
H2492 H 0.47963 0.57826 0.62477 0.0
H2493 H 0.46565 0.57903 0.65097 0.0
H2494 H 0.50022 0.61047 0.67346 0.0
H2495 H 0.51424 0.60964 0.64727 0.0
H2496 H 0.52806 0.60511 0.67351 0.0
H2497 H 0.5394 0.52047 0.65371 0.0
H2498 H 0.55419 0.5234 0.6158 0.0
H2499 H 0.52149 0.57847 0.61054 0.0
C2500 C 0.48468 0.56868 0.69699 0.0
C2501 C 0.48527 0.55663 0.71615 0.0
C2502 C 0.49933 0.5408 0.71392 0.0
C2503 C 0.51157 0.53667 0.6943 0.0
C2504 C 0.5106 0.54862 0.67605 0.0
C2505 C 0.49774 0.56466 0.67735 0.0
C2506 C 0.50058 0.57573 0.65547 0.0
C2507 C 0.47753 0.57101 0.64081 0.0
C2508 C 0.51141 0.6018 0.66287 0.0
C2509 C 0.51676 0.56339 0.64173 0.0
C2510 C 0.52196 0.54752 0.65393 0.0
C2511 C 0.53554 0.53318 0.64446 0.0
C2512 C 0.54402 0.53497 0.62253 0.0
C2513 C 0.5399 0.55144 0.60946 0.0
C2514 C 0.52582 0.56592 0.61972 0.0
H2515 H 0.7949 0.18868 0.99128 0.0
H2516 H 0.84711 0.15427 0.96962 0.0
H2517 H 0.84943 0.17195 0.93472 0.0
H2518 H 0.76625 0.1819 0.93446 0.0
H2519 H 0.75988 0.20971 0.94033 0.0
H2520 H 0.76285 0.19485 0.9638 0.0
H2521 H 0.79382 0.23041 0.98654 0.0
H2522 H 0.79086 0.24543 0.9632 0.0
H2523 H 0.81829 0.24187 0.97268 0.0
H2524 H 0.84543 0.19322 0.90171 0.0
H2525 H 0.83567 0.21619 0.87369 0.0
H2526 H 0.78623 0.23662 0.91751 0.0
C2527 C 0.80694 0.18492 0.9793 0.0
C2528 C 0.82087 0.1701 0.98324 0.0
C2529 C 0.83629 0.16559 0.96701 0.0
C2530 C 0.83771 0.17555 0.94713 0.0
C2531 C 0.82359 0.18995 0.94373 0.0
C2532 C 0.80853 0.19464 0.95942 0.0
C2533 C 0.79503 0.21047 0.95171 0.0
C2534 C 0.76949 0.19851 0.94731 0.0
C2535 C 0.79979 0.2334 0.9696 0.0
C2536 C 0.80475 0.21393 0.92915 0.0
C2537 C 0.82123 0.20202 0.92483 0.0
C2538 C 0.83259 0.20266 0.90499 0.0
C2539 C 0.82699 0.21585 0.88922 0.0
C2540 C 0.81014 0.22824 0.89332 0.0
C2541 C 0.79894 0.22714 0.91362 0.0
H2542 H 0.19494 0.50859 0.14255 0.0
H2543 H 0.14944 0.49901 0.1957 0.0
H2544 H 0.11666 0.49325 0.16642 0.0
H2545 H 0.17157 0.54363 0.11961 0.0
H2546 H 0.17454 0.5338 0.0893 0.0
H2547 H 0.19354 0.52933 0.11161 0.0
H2548 H 0.18258 0.48539 0.09451 0.0
H2549 H 0.16376 0.48985 0.07176 0.0
H2550 H 0.15311 0.46966 0.08988 0.0
H2551 H 0.09041 0.49837 0.13485 0.0
H2552 H 0.07294 0.51268 0.10313 0.0
H2553 H 0.13557 0.51988 0.07079 0.0
C2554 C 0.17799 0.50396 0.14768 0.0
C2555 C 0.17466 0.50403 0.17127 0.0
C2556 C 0.1523 0.49885 0.17763 0.0
C2557 C 0.13357 0.49548 0.16109 0.0
C2558 C 0.13748 0.49719 0.13825 0.0
C2559 C 0.15915 0.50091 0.13139 0.0
C2560 C 0.15928 0.5061 0.10709 0.0
C2561 C 0.17568 0.52961 0.10694 0.0
C2562 C 0.16501 0.48657 0.08979 0.0
C2563 C 0.13476 0.50658 0.10223 0.0
C2564 C 0.12225 0.50069 0.12001 0.0
C2565 C 0.09984 0.5024 0.12049 0.0
C2566 C 0.09008 0.51067 0.10251 0.0
C2567 C 0.10294 0.51751 0.08464 0.0
C2568 C 0.1253 0.5148 0.08426 0.0
H2569 H 0.81768 0.85735 0.47542 0.0
H2570 H 0.8629 0.81652 0.49432 0.0
H2571 H 0.86418 0.80117 0.45271 0.0
H2572 H 0.78593 0.81402 0.42426 0.0
H2573 H 0.78326 0.83526 0.4072 0.0
H2574 H 0.785 0.84258 0.43859 0.0
H2575 H 0.81931 0.87716 0.43925 0.0
H2576 H 0.81776 0.86986 0.40789 0.0
H2577 H 0.84385 0.87224 0.42558 0.0
H2578 H 0.8628 0.79184 0.40915 0.0
H2579 H 0.85677 0.78703 0.36643 0.0
H2580 H 0.81133 0.83249 0.37396 0.0
C2581 C 0.82758 0.84492 0.47081 0.0
C2582 C 0.84015 0.83816 0.48845 0.0
C2583 C 0.85304 0.82201 0.48142 0.0
C2584 C 0.85393 0.81318 0.4577 0.0
C2585 C 0.84173 0.82044 0.44084 0.0
C2586 C 0.82857 0.83574 0.44699 0.0
C2587 C 0.81733 0.84075 0.42512 0.0
C2588 C 0.79133 0.83267 0.42371 0.0
C2589 C 0.82503 0.86654 0.42443 0.0
C2590 C 0.82644 0.82608 0.40583 0.0
C2591 C 0.84056 0.81462 0.41544 0.0
C2592 C 0.85162 0.80059 0.40145 0.0
C2593 C 0.84813 0.79804 0.37707 0.0
C2594 C 0.83352 0.80928 0.36651 0.0
C2595 C 0.8225 0.82349 0.38129 0.0
H2596 H 0.49864 0.56826 0.87551 0.0
H2597 H 0.51203 0.50761 0.8331 0.0
H2598 H 0.53122 0.49983 0.86794 0.0
H2599 H 0.55288 0.58535 0.91431 0.0
H2600 H 0.54066 0.59477 0.94038 0.0
H2601 H 0.52784 0.5961 0.91222 0.0
H2602 H 0.48959 0.57156 0.92029 0.0
H2603 H 0.5023 0.57014 0.94845 0.0
H2604 H 0.48832 0.54392 0.92788 0.0
H2605 H 0.54902 0.49742 0.90843 0.0
H2606 H 0.56407 0.50125 0.94939 0.0
H2607 H 0.54121 0.56375 0.96841 0.0
C2608 C 0.50569 0.55337 0.87343 0.0
C2609 C 0.50345 0.53864 0.85064 0.0
C2610 C 0.51316 0.51941 0.84962 0.0
C2611 C 0.52424 0.51475 0.86964 0.0
C2612 C 0.52605 0.52936 0.89152 0.0
C2613 C 0.51712 0.54842 0.8936 0.0
C2614 C 0.52164 0.56125 0.91948 0.0
C2615 C 0.53664 0.58584 0.92173 0.0
C2616 C 0.49912 0.56175 0.92962 0.0
C2617 C 0.53435 0.54648 0.93152 0.0
C2618 C 0.53658 0.52812 0.91486 0.0
C2619 C 0.54732 0.51186 0.92141 0.0
C2620 C 0.55595 0.51422 0.94511 0.0
C2621 C 0.5543 0.53281 0.96306 0.0
C2622 C 0.54316 0.54924 0.95569 0.0
H2623 H 0.83436 0.19968 0.0993 0.0
H2624 H 0.82835 0.13797 0.12816 0.0
H2625 H 0.82339 0.15978 0.16642 0.0
H2626 H 0.8663 0.24019 0.15294 0.0
H2627 H 0.85264 0.26264 0.14887 0.0
H2628 H 0.85685 0.24253 0.1239 0.0
H2629 H 0.8138 0.232 0.11014 0.0
H2630 H 0.80938 0.25179 0.13523 0.0
H2631 H 0.79377 0.2219 0.12957 0.0
H2632 H 0.81414 0.18636 0.19976 0.0
H2633 H 0.80796 0.21808 0.22897 0.0
H2634 H 0.82366 0.26471 0.18104 0.0
C2635 C 0.83243 0.19087 0.11379 0.0
C2636 C 0.83173 0.16699 0.11061 0.0
C2637 C 0.82912 0.15618 0.13007 0.0
C2638 C 0.82612 0.16841 0.15188 0.0
C2639 C 0.82622 0.19165 0.15422 0.0
C2640 C 0.82991 0.20301 0.13594 0.0
C2641 C 0.82945 0.22822 0.14346 0.0
C2642 C 0.8527 0.24435 0.14222 0.0
C2643 C 0.81047 0.2338 0.12872 0.0
C2644 C 0.82433 0.22904 0.16862 0.0
C2645 C 0.82226 0.20758 0.17421 0.0
C2646 C 0.81613 0.20333 0.19573 0.0
C2647 C 0.81244 0.2215 0.21217 0.0
C2648 C 0.81532 0.24399 0.20741 0.0
C2649 C 0.82142 0.24779 0.18526 0.0
H2650 H 0.1706 0.57055 0.29188 0.0
H2651 H 0.21023 0.52319 0.30683 0.0
H2652 H 0.19487 0.52305 0.34489 0.0
H2653 H 0.17703 0.6039 0.35115 0.0
H2654 H 0.14858 0.60763 0.34855 0.0
H2655 H 0.16354 0.60467 0.32311 0.0
H2656 H 0.13045 0.57022 0.30211 0.0
H2657 H 0.11544 0.57301 0.32749 0.0
H2658 H 0.12145 0.54582 0.31574 0.0
H2659 H 0.1734 0.52659 0.38029 0.0
H2660 H 0.14806 0.53389 0.41042 0.0
H2661 H 0.12378 0.57995 0.37231 0.0
C2662 C 0.17619 0.56023 0.30318 0.0
C2663 C 0.19154 0.54682 0.29642 0.0
C2664 C 0.19846 0.5336 0.31172 0.0
C2665 C 0.18985 0.53343 0.33334 0.0
C2666 C 0.17455 0.54672 0.33936 0.0
C2667 C 0.16791 0.55997 0.32476 0.0
C2668 C 0.15093 0.57236 0.33499 0.0
C2669 C 0.16061 0.5987 0.33974 0.0
C2670 C 0.12823 0.56489 0.31914 0.0
C2671 C 0.14867 0.56366 0.35746 0.0
C2672 C 0.16249 0.54898 0.35976 0.0
C2673 C 0.16271 0.53827 0.3788 0.0
C2674 C 0.14834 0.54262 0.39588 0.0
C2675 C 0.13397 0.55755 0.39376 0.0
C2676 C 0.13438 0.56829 0.37435 0.0
H2677 H 0.83179 0.83178 0.61799 0.0
H2678 H 0.81794 0.89932 0.63643 0.0
H2679 H 0.81227 0.89332 0.67592 0.0
H2680 H 0.78953 0.80328 0.65238 0.0
H2681 H 0.80681 0.78556 0.66171 0.0
H2682 H 0.81 0.79458 0.63422 0.0
H2683 H 0.85286 0.81244 0.64713 0.0
H2684 H 0.84979 0.80349 0.67465 0.0
H2685 H 0.86176 0.83341 0.67412 0.0
H2686 H 0.81009 0.88199 0.71437 0.0
H2687 H 0.80887 0.86427 0.74897 0.0
H2688 H 0.82138 0.80257 0.70756 0.0
C2689 C 0.82744 0.84523 0.63029 0.0
C2690 C 0.82538 0.86611 0.62361 0.0
C2691 C 0.81964 0.88313 0.64058 0.0
C2692 C 0.81639 0.87995 0.66332 0.0
C2693 C 0.81862 0.85947 0.66934 0.0
C2694 C 0.82378 0.84221 0.65339 0.0
C2695 C 0.82487 0.8218 0.66491 0.0
C2696 C 0.80672 0.80001 0.65256 0.0
C2697 C 0.84874 0.81753 0.66522 0.0
C2698 C 0.81963 0.83047 0.68966 0.0
C2699 C 0.81632 0.85239 0.69171 0.0
C2700 C 0.81234 0.8647 0.71289 0.0
C2701 C 0.81169 0.85445 0.73254 0.0
C2702 C 0.81462 0.83185 0.73112 0.0
C2703 C 0.81855 0.81967 0.7092 0.0
H2704 H 0.74409 0.5413 0.55146 0.0
H2705 H 0.72597 0.48816 0.48817 0.0
H2706 H 0.68632 0.49075 0.48758 0.0
H2707 H 0.69235 0.52395 0.57778 0.0
H2708 H 0.69006 0.55278 0.58931 0.0
H2709 H 0.71754 0.54751 0.58513 0.0
H2710 H 0.72517 0.5781 0.55937 0.0
H2711 H 0.69775 0.58355 0.56358 0.0
H2712 H 0.70512 0.57565 0.53446 0.0
H2713 H 0.64793 0.49684 0.49442 0.0
H2714 H 0.61373 0.50817 0.50613 0.0
H2715 H 0.65411 0.5598 0.56418 0.0
C2716 C 0.73184 0.53038 0.53732 0.0
C2717 C 0.73869 0.51444 0.51975 0.0
C2718 C 0.72171 0.50055 0.50178 0.0
C2719 C 0.6989 0.50184 0.50134 0.0
C2720 C 0.69273 0.51736 0.51886 0.0
C2721 C 0.70868 0.53168 0.5364 0.0
C2722 C 0.69704 0.54698 0.55284 0.0
C2723 C 0.6994 0.54254 0.57775 0.0
C2724 C 0.70686 0.5726 0.55254 0.0
C2725 C 0.67213 0.53878 0.54193 0.0
C2726 C 0.67028 0.52151 0.52242 0.0
C2727 C 0.64929 0.51043 0.5096 0.0
C2728 C 0.62974 0.51701 0.51661 0.0
C2729 C 0.63062 0.53491 0.53629 0.0
C2730 C 0.65247 0.5461 0.54905 0.0
H2731 H 0.21655 0.16331 0.51465 0.0
H2732 H 0.26219 0.11838 0.50408 0.0
H2733 H 0.23024 0.08451 0.50297 0.0
H2734 H 0.18609 0.13473 0.55369 0.0
H2735 H 0.15868 0.13804 0.5439 0.0
H2736 H 0.18402 0.15882 0.5405 0.0
H2737 H 0.17224 0.15195 0.49624 0.0
H2738 H 0.14655 0.13123 0.49899 0.0
H2739 H 0.1657 0.12306 0.47885 0.0
H2740 H 0.19378 0.05559 0.50609 0.0
H2741 H 0.15601 0.03437 0.51377 0.0
H2742 H 0.13422 0.09808 0.52321 0.0
C2743 C 0.21966 0.14628 0.51141 0.0
C2744 C 0.24188 0.14351 0.50912 0.0
C2745 C 0.24534 0.12095 0.50571 0.0
C2746 C 0.22726 0.10157 0.50503 0.0
C2747 C 0.2057 0.1049 0.50792 0.0
C2748 C 0.20179 0.12669 0.511 0.0
C2749 C 0.17741 0.12571 0.51566 0.0
C2750 C 0.17651 0.14019 0.53986 0.0
C2751 C 0.16473 0.13345 0.49628 0.0
C2752 C 0.16835 0.10008 0.51493 0.0
C2753 C 0.18486 0.08832 0.51026 0.0
C2754 C 0.18066 0.06462 0.50957 0.0
C2755 C 0.15912 0.05267 0.51395 0.0
C2756 C 0.142 0.06442 0.51914 0.0
C2757 C 0.1468 0.08844 0.51933 0.0
H2758 H 0.23228 0.9387 0.78523 0.0
H2759 H 0.28201 0.97964 0.75015 0.0
H2760 H 0.3026 0.94899 0.74559 0.0
H2761 H 0.27183 0.91226 0.81543 0.0
H2762 H 0.25256 0.88404 0.81113 0.0
H2763 H 0.24161 0.90928 0.81263 0.0
H2764 H 0.2181 0.89141 0.77262 0.0
H2765 H 0.22896 0.86612 0.77103 0.0
H2766 H 0.23212 0.88205 0.74787 0.0
H2767 H 0.32023 0.91265 0.74573 0.0
H2768 H 0.33013 0.87596 0.74786 0.0
H2769 H 0.26881 0.85389 0.7798 0.0
C2770 C 0.24757 0.94146 0.77662 0.0
C2771 C 0.25504 0.96298 0.76831 0.0
C2772 C 0.27523 0.96435 0.75696 0.0
C2773 C 0.28733 0.9466 0.75425 0.0
C2774 C 0.27962 0.92606 0.76249 0.0
C2775 C 0.25992 0.92324 0.77328 0.0
C2776 C 0.25508 0.89884 0.77976 0.0
C2777 C 0.25526 0.90124 0.80632 0.0
C2778 C 0.23219 0.8837 0.76708 0.0
C2779 C 0.27496 0.88848 0.77113 0.0
C2780 C 0.28904 0.90484 0.76147 0.0
C2781 C 0.30891 0.89995 0.75311 0.0
C2782 C 0.31454 0.87855 0.75442 0.0
C2783 C 0.30063 0.86059 0.76363 0.0
C2784 C 0.28021 0.86625 0.77212 0.0
H2785 H 0.37929 0.97847 0.01534 0.0
H2786 H 0.36655 0.04588 0.01743 0.0
H2787 H 0.40813 0.06298 0.01986 0.0
H2788 H 0.43051 0.99873 0.05717 0.0
H2789 H 0.44417 0.97783 0.04247 0.0
H2790 H 0.41365 0.97123 0.04083 0.0
H2791 H 0.41094 0.96269 0.99571 0.0
H2792 H 0.44144 0.96937 0.99719 0.0
H2793 H 0.42579 0.98441 0.98112 0.0
H2794 H 0.45204 0.07204 0.01915 0.0
H2795 H 0.49287 0.07309 0.01983 0.0
H2796 H 0.47739 1.00022 0.0216 0.0
C2797 C 0.38517 0.9969 0.01638 0.0
C2798 C 0.3693 1.01075 0.01599 0.0
C2799 C 0.37806 0.03481 0.01772 0.0
C2800 C 0.40176 0.04464 0.019 0.0
C2801 C 0.41681 0.03038 0.01904 0.0
C2802 C 0.40876 1.00703 0.01821 0.0
C2803 C 0.42837 0.99545 0.01916 0.0
C2804 C 0.42922 0.9852 0.04122 0.0
C2805 C 0.42652 0.97688 0.99698 0.0
C2806 C 0.44883 0.01577 0.02028 0.0
C2807 C 0.44179 0.03574 0.01993 0.0
C2808 C 0.45756 0.05648 0.01971 0.0
C2809 C 0.48086 0.05689 0.01999 0.0
C2810 C 0.4887 0.03682 0.0209 0.0
C2811 C 0.47222 0.01599 0.02117 0.0
H2812 H 0.8627 0.60029 0.76938 0.0
H2813 H 0.86599 0.59956 0.84335 0.0
H2814 H 0.83813 0.62339 0.84787 0.0
H2815 H 0.85978 0.65977 0.77616 0.0
H2816 H 0.84128 0.6543 0.74939 0.0
H2817 H 0.86095 0.63684 0.75234 0.0
H2818 H 0.82751 0.60006 0.74186 0.0
H2819 H 0.80769 0.61747 0.73936 0.0
H2820 H 0.80384 0.59758 0.75895 0.0
H2821 H 0.80853 0.64581 0.84361 0.0
H2822 H 0.78413 0.6701 0.83246 0.0
H2823 H 0.80303 0.65833 0.76189 0.0
C2824 C 0.85758 0.60521 0.78653 0.0
C2825 C 0.86628 0.59805 0.80601 0.0
C2826 C 0.85951 0.60502 0.82826 0.0
C2827 C 0.84359 0.61835 0.83093 0.0
C2828 C 0.83498 0.62478 0.81124 0.0
C2829 C 0.84212 0.61886 0.78958 0.0
C2830 C 0.8313 0.62899 0.77145 0.0
C2831 C 0.8494 0.64599 0.76178 0.0
C2832 C 0.81672 0.60988 0.75175 0.0
C2833 C 0.81672 0.64136 0.78622 0.0
C2834 C 0.81882 0.6385 0.80903 0.0
C2835 C 0.80694 0.64836 0.82585 0.0
C2836 C 0.79316 0.66218 0.81934 0.0
C2837 C 0.79167 0.66631 0.7963 0.0
C2838 C 0.80332 0.65528 0.77951 0.0
H2839 H 0.87936 0.6592 0.0205 0.0
H2840 H 0.86197 0.67038 0.0916 0.0
H2841 H 0.89374 0.65531 0.10437 0.0
H2842 H 0.89271 0.60524 0.02186 0.0
H2843 H 0.9159 0.60982 1.00427 0.0
H2844 H 0.89302 0.6234 1.00073 0.0
H2845 H 0.92191 0.66339 1.0085 0.0
H2846 H 0.94489 0.64991 1.01214 0.0
H2847 H 0.94133 0.67261 0.03495 0.0
H2848 H 0.92643 0.63855 0.10974 0.0
H2849 H 0.95676 0.61811 0.10699 0.0
H2850 H 0.95251 0.6149 0.03214 0.0
C2851 C 0.88249 0.65871 0.03877 0.0
C2852 C 0.86825 0.6661 0.0551 0.0
C2853 C 0.8726 0.66479 0.07878 0.0
C2854 C 0.89069 0.65637 0.08625 0.0
C2855 C 0.90427 0.64903 0.06981 0.0
C2856 C 0.90037 0.64987 0.04652 0.0
C2857 C 0.91675 0.6393 0.03236 0.0
C2858 C 0.90382 0.61818 1.0137 0.0
C2859 C 0.93213 0.65739 0.02133 0.0
C2860 C 0.93022 0.63225 0.05132 0.0
C2861 C 0.92285 0.63837 0.0728 0.0
C2862 C 0.93229 0.63356 0.093 0.0
C2863 C 0.94944 0.62177 0.09121 0.0
C2864 C 0.95692 0.61455 0.06933 0.0
C2865 C 0.94735 0.62028 0.04917 0.0
H2866 H 0.26626 0.10268 0.77199 0.0
H2867 H 0.21976 0.11267 0.82371 0.0
H2868 H 0.23191 0.15439 0.82663 0.0
H2869 H 0.31197 0.15612 0.8001 0.0
H2870 H 0.32017 0.16349 0.77292 0.0
H2871 H 0.30845 0.13372 0.77435 0.0
H2872 H 0.27752 0.13019 0.7408 0.0
H2873 H 0.2891 0.15998 0.73934 0.0
H2874 H 0.25966 0.15008 0.74353 0.0
H2875 H 0.24692 0.19659 0.8231 0.0
H2876 H 0.26581 0.23471 0.81586 0.0
H2877 H 0.30622 0.20256 0.76843 0.0
C2878 C 0.25883 0.11354 0.78427 0.0
C2879 C 0.24152 0.10293 0.79763 0.0
C2880 C 0.23269 0.11898 0.81301 0.0
C2881 C 0.23957 0.14329 0.81487 0.0
C2882 C 0.25598 0.15292 0.80146 0.0
C2883 C 0.26587 0.13864 0.78663 0.0
C2884 C 0.28347 0.15433 0.77455 0.0
C2885 C 0.30744 0.15175 0.78084 0.0
C2886 C 0.27706 0.14828 0.74797 0.0
C2887 C 0.2817 0.17929 0.78476 0.0
C2888 C 0.26543 0.1777 0.80012 0.0
C2889 C 0.25982 0.19779 0.81123 0.0
C2890 C 0.27082 0.21978 0.80689 0.0
C2891 C 0.28807 0.22285 0.79165 0.0
C2892 C 0.29348 0.20171 0.78047 0.0
H2893 H 0.40936 0.96225 0.34143 0.0
H2894 H 0.35453 0.99524 0.33171 0.0
H2895 H 0.32713 0.95731 0.32256 0.0
H2896 H 0.39226 0.91812 0.29577 0.0
H2897 H 0.39933 0.89582 0.30902 0.0
H2898 H 0.41435 0.92547 0.3199 0.0
H2899 H 0.40344 0.92275 0.36145 0.0
H2900 H 0.38874 0.89283 0.35083 0.0
H2901 H 0.37403 0.91268 0.36567 0.0
H2902 H 0.30761 0.91682 0.30534 0.0
H2903 H 0.29585 0.87527 0.28726 0.0
H2904 H 0.36201 0.8677 0.31064 0.0
C2905 C 0.39149 0.96155 0.33829 0.0
C2906 C 0.38414 0.98169 0.33712 0.0
C2907 C 0.36063 0.98006 0.33265 0.0
C2908 C 0.34487 0.95857 0.32746 0.0
C2909 C 0.35282 0.93895 0.32737 0.0
C2910 C 0.37546 0.9402 0.33333 0.0
C2911 C 0.37977 0.91636 0.32985 0.0
C2912 C 0.39746 0.91381 0.31261 0.0
C2913 C 0.38691 0.91083 0.35335 0.0
C2914 C 0.35635 0.90173 0.31958 0.0
C2915 C 0.34103 0.91512 0.31842 0.0
C2916 C 0.31917 0.906 0.30687 0.0
C2917 C 0.31271 0.88252 0.29642 0.0
C2918 C 0.32799 0.86852 0.29789 0.0
C2919 C 0.34993 0.87812 0.30984 0.0
H2920 H 0.63183 0.36332 0.5647 0.0
H2921 H 0.5749 0.30348 0.55691 0.0
H2922 H 0.55431 0.31837 0.52781 0.0
H2923 H 0.59856 0.40218 0.56632 0.0
H2924 H 0.61669 0.42157 0.55154 0.0
H2925 H 0.62854 0.40386 0.56763 0.0
H2926 H 0.64496 0.38718 0.53047 0.0
H2927 H 0.63276 0.40467 0.51418 0.0
H2928 H 0.62621 0.37381 0.50398 0.0
H2929 H 0.53886 0.34108 0.50222 0.0
H2930 H 0.52676 0.37245 0.48783 0.0
H2931 H 0.59232 0.41921 0.51591 0.0
C2932 C 0.61528 0.35314 0.55632 0.0
C2933 C 0.60498 0.33215 0.56255 0.0
C2934 C 0.58301 0.31956 0.55209 0.0
C2935 C 0.57135 0.32776 0.53541 0.0
C2936 C 0.58183 0.34871 0.52973 0.0
C2937 C 0.60316 0.36143 0.54018 0.0
C2938 C 0.60906 0.38507 0.53407 0.0
C2939 C 0.61344 0.40429 0.5562 0.0
C2940 C 0.62946 0.38783 0.51982 0.0
C2941 C 0.58741 0.38396 0.51922 0.0
C2942 C 0.57226 0.36256 0.51624 0.0
C2943 C 0.55061 0.35789 0.50437 0.0
C2944 C 0.54385 0.37588 0.49638 0.0
C2945 C 0.55845 0.39845 0.50091 0.0
C2946 C 0.58083 0.40215 0.51164 0.0
H2947 H 0.45437 0.78464 0.35306 0.0
H2948 H 0.49529 0.81888 0.30594 0.0
H2949 H 0.46188 0.8088 0.27648 0.0
H2950 H 0.41179 0.73895 0.30614 0.0
H2951 H 0.38879 0.742 0.32328 0.0
H2952 H 0.41683 0.74539 0.33758 0.0
H2953 H 0.41589 0.78572 0.36057 0.0
H2954 H 0.38813 0.7826 0.3462 0.0
H2955 H 0.41086 0.80717 0.34474 0.0
H2956 H 0.42379 0.80337 0.25644 0.0
H2957 H 0.38365 0.80267 0.24703 0.0
H2958 H 0.3666 0.77274 0.30736 0.0
C2959 C 0.45643 0.78887 0.33604 0.0
C2960 C 0.47733 0.80212 0.33147 0.0
C2961 C 0.47938 0.80844 0.30953 0.0
C2962 C 0.46053 0.8027 0.29268 0.0
C2963 C 0.43977 0.7907 0.29812 0.0
C2964 C 0.4376 0.78363 0.3192 0.0
C2965 C 0.41285 0.77469 0.3224 0.0
C2966 C 0.40724 0.74871 0.32234 0.0
C2967 C 0.40659 0.78837 0.34478 0.0
C2968 C 0.40152 0.77933 0.30065 0.0
C2969 C 0.41733 0.78796 0.28657 0.0
C2970 C 0.41118 0.79605 0.26696 0.0
C2971 C 0.38835 0.79575 0.26185 0.0
C2972 C 0.372 0.78759 0.27642 0.0
C2973 C 0.37864 0.77869 0.29565 0.0
H2974 H 0.09552 0.71495 0.11592 0.0
H2975 H 0.15157 0.74534 0.08022 0.0
H2976 H 0.15495 0.70618 0.06278 0.0
H2977 H 0.11791 0.6682 0.12909 0.0
H2978 H 0.09032 0.64812 0.1245 0.0
H2979 H 0.09298 0.67852 0.13458 0.0
H2980 H 0.06439 0.67822 0.09968 0.0
H2981 H 0.06155 0.64784 0.0896 0.0
H2982 H 0.06976 0.66755 0.07035 0.0
H2983 H 0.15027 0.66329 0.04743 0.0
H2984 H 0.13819 0.62064 0.03589 0.0
H2985 H 0.08637 0.61967 0.08336 0.0
C2986 C 0.10857 0.71347 0.10447 0.0
C2987 C 0.12323 0.73316 0.09933 0.0
C2988 C 0.14016 0.73043 0.08438 0.0
C2989 C 0.14222 0.7083 0.07444 0.0
C2990 C 0.1274 0.68924 0.0799 0.0
C2991 C 0.11099 0.69168 0.09466 0.0
C2992 C 0.0968 0.66862 0.09748 0.0
C2993 C 0.09969 0.6657 0.12292 0.0
C2994 C 0.07165 0.66538 0.08875 0.0
C2995 C 0.10752 0.65271 0.08167 0.0
C2996 C 0.12516 0.66482 0.07167 0.0
C2997 C 0.13667 0.65363 0.05539 0.0
C2998 C 0.1297 0.62944 0.04894 0.0
C2999 C 0.11149 0.61686 0.05889 0.0
C3000 C 0.10061 0.62873 0.07573 0.0
H3001 H 0.07894 0.26857 0.87339 0.0
H3002 H 0.0895 0.33631 0.91801 0.0
H3003 H 0.1285 0.34727 0.90687 0.0
H3004 H 0.13572 0.26166 0.88424 0.0
H3005 H 0.13609 0.2475 0.85449 0.0
H3006 H 0.10961 0.24482 0.86699 0.0
H3007 H 0.09292 0.26026 0.83315 0.0
H3008 H 0.1193 0.26295 0.82054 0.0
H3009 H 0.10764 0.28767 0.82728 0.0
H3010 H 0.16623 0.35077 0.88992 0.0
H3011 H 0.19846 0.34731 0.86712 0.0
H3012 H 0.16223 0.27738 0.83355 0.0
C3013 C 0.08947 0.28568 0.88101 0.0
C3014 C 0.08125 0.30157 0.89666 0.0
C3015 C 0.0955 0.32386 0.906 0.0
C3016 C 0.11766 0.33019 0.89983 0.0
C3017 C 0.1252 0.31404 0.88429 0.0
C3018 C 0.11145 0.29228 0.87495 0.0
C3019 C 0.12306 0.27839 0.85786 0.0
C3020 C 0.12631 0.25682 0.86642 0.0
C3021 C 0.10995 0.27195 0.83326 0.0
C3022 C 0.14549 0.29578 0.85883 0.0
C3023 C 0.14656 0.31617 0.87432 0.0
C3024 C 0.16559 0.33485 0.87783 0.0
C3025 C 0.18384 0.33269 0.86491 0.0
C3026 C 0.18279 0.31209 0.84857 0.0
C3027 C 0.16343 0.29339 0.84578 0.0
H3028 H 0.59925 0.75157 0.95414 0.0
H3029 H 0.6389 0.80268 1.01296 0.0
H3030 H 0.63216 0.77373 0.03783 0.0
H3031 H 0.55719 0.72284 0.98679 0.0
H3032 H 0.55516 0.69438 0.96991 0.0
H3033 H 0.56275 0.71921 0.95667 0.0
H3034 H 0.59948 0.70778 0.94518 0.0
H3035 H 0.59199 0.68293 0.95839 0.0
H3036 H 0.61903 0.70361 0.96744 0.0
H3037 H 0.62122 0.73947 0.05643 0.0
H3038 H 0.60764 0.70164 0.06725 0.0
H3039 H 0.57534 0.67245 0.99646 0.0
C3040 C 0.60645 0.75668 0.97227 0.0
C3041 C 0.61957 0.77943 0.9816 0.0
C3042 C 0.62881 0.78537 1.00538 0.0
C3043 C 0.62505 0.76906 0.01969 0.0
C3044 C 0.61209 0.74681 1.00996 0.0
C3045 C 0.60298 0.74054 0.9868 0.0
C3046 C 0.59001 0.71532 0.98066 0.0
C3047 C 0.56478 0.7128 0.97307 0.0
C3048 C 0.60078 0.70161 0.9618 0.0
C3049 C 0.59328 0.70844 1.00399 0.0
C3050 C 0.60598 0.72691 0.02066 0.0
C3051 C 0.6112 0.72488 0.04355 0.0
C3052 C 0.6033 0.70336 0.04956 0.0
C3053 C 0.59036 0.68411 0.03275 0.0
C3054 C 0.58533 0.68679 1.00966 0.0
H3055 H 0.06672 0.73238 0.73687 0.0
H3056 H 0.07072 0.80523 0.74283 0.0
H3057 H 0.10729 0.81484 0.76783 0.0
H3058 H 0.10053 0.7359 0.79564 0.0
H3059 H 0.11416 0.71448 0.78198 0.0
H3060 H 0.08528 0.71325 0.77173 0.0
H3061 H 0.09655 0.71333 0.72985 0.0
H3062 H 0.12528 0.71466 0.73993 0.0
H3063 H 0.1193 0.73641 0.72508 0.0
H3064 H 0.14615 0.81656 0.78496 0.0
H3065 H 0.18464 0.81062 0.78943 0.0
H3066 H 0.15644 0.73655 0.76838 0.0
C3067 C 0.07474 0.75032 0.74447 0.0
C3068 C 0.06579 0.76808 0.73838 0.0
C3069 C 0.07722 0.7914 0.74764 0.0
C3070 C 0.09792 0.79699 0.76195 0.0
C3071 C 0.10696 0.77903 0.76663 0.0
C3072 C 0.09567 0.75611 0.75814 0.0
C3073 C 0.11084 0.7402 0.76123 0.0
C3074 C 0.10218 0.72507 0.77869 0.0
C3075 C 0.11313 0.72532 0.73763 0.0
C3076 C 0.13285 0.75778 0.77131 0.0
C3077 C 0.13006 0.78001 0.77522 0.0
C3078 C 0.14845 0.79921 0.7823 0.0
C3079 C 0.17031 0.79566 0.78453 0.0
C3080 C 0.17366 0.77309 0.77902 0.0
C3081 C 0.15453 0.75397 0.77326 0.0
H3082 H 0.08624 0.37251 0.48198 0.0
H3083 H 0.13121 0.38858 0.4296 0.0
H3084 H 0.12872 0.42914 0.43868 0.0
H3085 H 0.0493 0.40424 0.46913 0.0
H3086 H 0.04427 0.41424 0.49875 0.0
H3087 H 0.05225 0.38745 0.49098 0.0
H3088 H 0.08666 0.40197 0.523 0.0
H3089 H 0.07846 0.42864 0.53133 0.0
H3090 H 0.1067 0.42916 0.52368 0.0
H3091 H 0.11698 0.46639 0.44966 0.0
H3092 H 0.10083 0.49888 0.4652 0.0
H3093 H 0.06353 0.45806 0.51034 0.0
C3094 C 0.09615 0.38469 0.4729 0.0
C3095 C 0.10897 0.37741 0.45512 0.0
C3096 C 0.12146 0.39383 0.44345 0.0
C3097 C 0.12003 0.41687 0.44839 0.0
C3098 C 0.10626 0.42318 0.46519 0.0
C3099 C 0.09493 0.40767 0.47762 0.0
C3100 C 0.08022 0.41837 0.49383 0.0
C3101 C 0.05503 0.40529 0.48779 0.0
C3102 C 0.08852 0.41962 0.51948 0.0
C3103 C 0.08453 0.44214 0.4881 0.0
C3104 C 0.09961 0.44461 0.47159 0.0
C3105 C 0.1054 0.46476 0.46284 0.0
C3106 C 0.09595 0.48304 0.47163 0.0
C3107 C 0.08087 0.48105 0.48901 0.0
C3108 C 0.07502 0.4602 0.49713 0.0
H3109 H 0.45013 0.26323 0.19944 0.0
H3110 H 0.4733 0.22927 0.2518 0.0
H3111 H 0.44414 0.2391 0.27629 0.0
H3112 H 0.43695 0.30956 0.23783 0.0
H3113 H 0.41153 0.30913 0.22007 0.0
H3114 H 0.43432 0.29962 0.20661 0.0
H3115 H 0.40669 0.26014 0.18757 0.0
H3116 H 0.38377 0.2697 0.20067 0.0
H3117 H 0.39006 0.24338 0.20572 0.0
H3118 H 0.41409 0.25502 0.29627 0.0
H3119 H 0.38113 0.27042 0.30728 0.0
H3120 H 0.37579 0.29085 0.24051 0.0
C3121 C 0.44891 0.25774 0.21598 0.0
C3122 C 0.46393 0.24558 0.22381 0.0
C3123 C 0.4618 0.23849 0.24545 0.0
C3124 C 0.44544 0.24414 0.25955 0.0
C3125 C 0.43111 0.25651 0.25154 0.0
C3126 C 0.43232 0.26275 0.23002 0.0
C3127 C 0.41424 0.27503 0.22504 0.0
C3128 C 0.42491 0.29981 0.22223 0.0
C3129 C 0.39771 0.26124 0.20348 0.0
C3130 C 0.40288 0.27495 0.24722 0.0
C3131 C 0.41307 0.26455 0.26248 0.0
C3132 C 0.40585 0.26305 0.28439 0.0
C3133 C 0.38733 0.27197 0.2906 0.0
C3134 C 0.37619 0.28175 0.27471 0.0
C3135 C 0.38415 0.28338 0.25289 0.0
H3136 H 0.64789 0.51956 0.37385 0.0
H3137 H 0.64047 0.58403 0.35688 0.0
H3138 H 0.62065 0.59114 0.39175 0.0
H3139 H 0.59177 0.50427 0.39583 0.0
H3140 H 0.60142 0.49199 0.41915 0.0
H3141 H 0.61562 0.4916 0.3931 0.0
H3142 H 0.65374 0.51241 0.41815 0.0
H3143 H 0.63962 0.51288 0.44427 0.0
H3144 H 0.65611 0.53941 0.43807 0.0
H3145 H 0.60196 0.59276 0.43058 0.0
H3146 H 0.58506 0.58761 0.46692 0.0
H3147 H 0.60086 0.5211 0.46064 0.0
C3148 C 0.64213 0.53523 0.37737 0.0
C3149 C 0.64633 0.55124 0.36164 0.0
C3150 C 0.63796 0.57127 0.36777 0.0
C3151 C 0.62651 0.57555 0.38793 0.0
C3152 C 0.62271 0.55969 0.40279 0.0
C3153 C 0.63014 0.53974 0.39771 0.0
C3154 C 0.62323 0.52543 0.4167 0.0
C3155 C 0.60705 0.50191 0.40553 0.0
C3156 C 0.64444 0.52234 0.43008 0.0
C3157 C 0.6109 0.54036 0.43312 0.0
C3158 C 0.61111 0.56019 0.42468 0.0
C3159 C 0.60165 0.5771 0.43695 0.0
C3160 C 0.59191 0.57396 0.45795 0.0
C3161 C 0.59078 0.5538 0.46742 0.0
C3162 C 0.60063 0.53666 0.45429 0.0
H3163 H 0.30125 0.95295 0.08351 0.0
H3164 H 0.26147 0.90238 0.02458 0.0
H3165 H 0.25415 0.87326 0.04932 0.0
H3166 H 0.32901 0.91529 0.10362 0.0
H3167 H 0.3299 0.92706 0.1343 0.0
H3168 H 0.32882 0.94511 0.11336 0.0
H3169 H 0.29281 0.95489 0.12914 0.0
H3170 H 0.29382 0.93686 0.15022 0.0
H3171 H 0.26847 0.93181 0.13037 0.0
H3172 H 0.25408 0.84877 0.07887 0.0
H3173 H 0.26283 0.82976 0.11078 0.0
H3174 H 0.30448 0.89536 0.15034 0.0
C3175 C 0.29043 0.93594 0.0761 0.0
C3176 C 0.2816 0.92994 0.05227 0.0
C3177 C 0.26821 0.90731 0.04286 0.0
C3178 C 0.26389 0.8907 0.05679 0.0
C3179 C 0.27325 0.89694 0.08008 0.0
C3180 C 0.28631 0.91898 0.0897 0.0
C3181 C 0.29648 0.92036 0.11442 0.0
C3182 C 0.32259 0.92736 0.11653 0.0
C3183 C 0.28734 0.93697 0.13208 0.0
C3184 C 0.2876 0.89554 0.1169 0.0
C3185 C 0.2739 0.88247 0.09703 0.0
C3186 C 0.26464 0.85885 0.0946 0.0
C3187 C 0.26984 0.84818 0.11276 0.0
C3188 C 0.28441 0.86103 0.13303 0.0
C3189 C 0.293 0.88513 0.13525 0.0
H3190 H 0.99172 0.54259 0.8758 0.0
H3191 H 0.96664 0.6023 0.90236 0.0
H3192 H 0.99573 0.61271 0.93675 0.0
H3193 H 1.0001 0.52639 0.92823 0.0
H3194 H 0.02544 0.5171 0.92206 0.0
H3195 H 1.00478 0.51639 0.89848 0.0
H3196 H 0.03589 0.54192 0.87974 0.0
H3197 H 0.05669 0.5428 0.90341 0.0
H3198 H 0.05244 0.56931 0.89661 0.0
H3199 H 0.02403 0.61334 0.97027 0.0
H3200 H 0.04881 0.60419 1.00025 0.0
H3201 H 0.0559 0.54466 0.95067 0.0
C3202 C 0.99249 0.55807 0.88866 0.0
C3203 C 0.9769 0.57163 0.88653 0.0
C3204 C 0.97848 0.59172 0.9037 0.0
C3205 C 0.99499 0.59779 0.92319 0.0
C3206 C 1.0099 0.58377 0.92489 0.0
C3207 C 1.00887 0.56442 0.90795 0.0
C3208 C 0.02554 0.55115 0.91455 0.0
C3209 C 1.01322 0.52631 0.91592 0.0
C3210 C 0.04372 0.55132 0.89757 0.0
C3211 C 0.03555 0.56551 0.93838 0.0
C3212 C 0.02654 0.58442 0.94393 0.0
C3213 C 0.03154 0.59889 0.96592 0.0
C3214 C 0.04559 0.59352 0.98284 0.0
C3215 C 0.05441 0.57384 0.97763 0.0
C3216 C 0.04987 0.56013 0.95492 0.0
H3217 H 0.32997 0.23318 0.60379 0.0
H3218 H 0.27527 0.25991 0.5783 0.0
H3219 H 0.27232 0.27851 0.61891 0.0
H3220 H 0.30786 0.21965 0.65466 0.0
H3221 H 0.33475 0.2283 0.67269 0.0
H3222 H 0.33368 0.21862 0.64164 0.0
H3223 H 0.36215 0.25682 0.63906 0.0
H3224 H 0.36351 0.26654 0.67018 0.0
H3225 H 0.35604 0.28399 0.65066 0.0
H3226 H 0.2728 0.29071 0.66338 0.0
H3227 H 0.27924 0.29873 0.70656 0.0
H3228 H 0.33499 0.26571 0.70279 0.0
C3229 C 0.31762 0.24331 0.60662 0.0
C3230 C 0.30287 0.24508 0.58763 0.0
C3231 C 0.28693 0.25844 0.59235 0.0
C3232 C 0.28504 0.26896 0.61545 0.0
C3233 C 0.29945 0.26631 0.63377 0.0
C3234 C 0.31573 0.25415 0.62951 0.0
C3235 C 0.32897 0.25353 0.65219 0.0
C3236 C 0.32614 0.22854 0.65548 0.0
C3237 C 0.35416 0.26596 0.65307 0.0
C3238 C 0.31733 0.26683 0.67 0.0
C3239 C 0.30026 0.27397 0.65906 0.0
C3240 C 0.28637 0.28546 0.67201 0.0
C3241 C 0.29009 0.28987 0.69661 0.0
C3242 C 0.30775 0.28308 0.70825 0.0
C3243 C 0.32156 0.27148 0.69456 0.0
H3244 H 0.6771 0.50897 0.19606 0.0
H3245 H 0.63567 0.54259 0.24091 0.0
H3246 H 0.6142 0.54807 0.20628 0.0
H3247 H 0.67925 0.54483 0.15232 0.0
H3248 H 0.67687 0.52175 0.12744 0.0
H3249 H 0.68921 0.51982 0.15558 0.0
H3250 H 0.66015 0.48086 0.1534 0.0
H3251 H 0.64777 0.48265 0.12522 0.0
H3252 H 0.63024 0.47907 0.14853 0.0
H3253 H 0.5972 0.55196 0.16581 0.0
H3254 H 0.5854 0.55154 0.12466 0.0
H3255 H 0.63536 0.5141 0.10303 0.0
C3256 C 0.66335 0.51726 0.19873 0.0
C3257 C 0.6585 0.52516 0.22223 0.0
C3258 C 0.64022 0.53609 0.2239 0.0
C3259 C 0.62775 0.53942 0.20398 0.0
C3260 C 0.63305 0.53172 0.18147 0.0
C3261 C 0.65031 0.5206 0.17864 0.0
C3262 C 0.6522 0.51391 0.15217 0.0
C3263 C 0.67579 0.52578 0.14655 0.0
C3264 C 0.64731 0.48755 0.14437 0.0
C3265 C 0.63357 0.52313 0.14068 0.0
C3266 C 0.62287 0.53346 0.15811 0.0
C3267 C 0.60553 0.54372 0.15221 0.0
C3268 C 0.59886 0.54344 0.1284 0.0
C3269 C 0.60901 0.5328 0.10964 0.0
C3270 C 0.62681 0.52241 0.11635 0.0
H3271 H 0.33715 0.90665 0.93638 0.0
H3272 H 0.26784 0.91082 0.92141 0.0
H3273 H 0.26322 0.88083 0.88547 0.0
H3274 H 0.34949 0.90025 0.87608 0.0
H3275 H 0.3674 0.881 0.87903 0.0
H3276 H 0.36492 0.90212 0.90396 0.0
H3277 H 0.35264 0.86957 0.92695 0.0
H3278 H 0.35485 0.84833 0.90199 0.0
H3279 H 0.32861 0.84563 0.91497 0.0
H3280 H 0.26559 0.84911 0.85212 0.0
H3281 H 0.27615 0.8221 0.82067 0.0
H3282 H 0.34509 0.84051 0.85507 0.0
C3283 C 0.321 0.90123 0.92551 0.0
C3284 C 0.30275 0.91096 0.9318 0.0
C3285 C 0.28202 0.90365 0.91695 0.0
C3286 C 0.27921 0.88652 0.89657 0.0
C3287 C 0.29743 0.8771 0.891 0.0
C3288 C 0.31808 0.88451 0.90478 0.0
C3289 C 0.3353 0.87245 0.89411 0.0
C3290 C 0.35547 0.89 0.88793 0.0
C3291 C 0.34332 0.85815 0.91048 0.0
C3292 C 0.32107 0.85696 0.87228 0.0
C3293 C 0.29917 0.85967 0.87108 0.0
C3294 C 0.28271 0.84694 0.85285 0.0
C3295 C 0.28887 0.83144 0.83512 0.0
C3296 C 0.31145 0.82897 0.83537 0.0
C3297 C 0.32769 0.84188 0.85437 0.0
H3298 H 0.9461 0.55955 0.73888 0.0
H3299 H 0.98514 0.53837 0.79179 0.0
H3300 H 1.01199 0.53047 0.76381 0.0
H3301 H 0.95168 0.51739 0.69112 0.0
H3302 H 0.95472 0.53615 0.6704 0.0
H3303 H 0.93901 0.54157 0.69488 0.0
H3304 H 0.96488 0.58313 0.70757 0.0
H3305 H 0.98056 0.5779 0.68298 0.0
H3306 H 0.99524 0.58737 0.71212 0.0
H3307 H 0.03291 0.52205 0.72983 0.0
H3308 H 0.04826 0.5159 0.69203 0.0
H3309 H 0.99703 0.54418 0.66137 0.0
C3310 C 0.96044 0.55352 0.74465 0.0
C3311 C 0.96346 0.54955 0.76752 0.0
C3312 C 0.98243 0.54158 0.77438 0.0
C3313 C 0.99781 0.537 0.75862 0.0
C3314 C 0.99413 0.54069 0.73614 0.0
C3315 C 0.97611 0.549 0.72917 0.0
C3316 C 0.97595 0.55105 0.7038 0.0
C3317 C 0.95404 0.53561 0.6892 0.0
C3318 C 0.97937 0.57637 0.70149 0.0
C3319 C 0.99642 0.54214 0.69756 0.0
C3320 C 1.00663 0.53629 0.7165 0.0
C3321 C 0.02532 0.52691 0.71492 0.0
C3322 C 0.03398 0.52359 0.6934 0.0
C3323 C 0.02402 0.52977 0.67376 0.0
C3324 C 1.00496 0.53915 0.67598 0.0
H3325 H 0.2855 0.26007 0.4547 0.0
H3326 H 0.31974 0.20473 0.4445 0.0
H3327 H 0.32746 0.21197 0.40531 0.0
H3328 H 0.2599 0.25113 0.39546 0.0
H3329 H 0.26459 0.28142 0.39505 0.0
H3330 H 0.26131 0.27175 0.42219 0.0
H3331 H 0.29995 0.29967 0.44033 0.0
H3332 H 0.30329 0.30948 0.41326 0.0
H3333 H 0.32497 0.29827 0.42594 0.0
H3334 H 0.3295 0.22372 0.3657 0.0
H3335 H 0.32953 0.24183 0.33121 0.0
H3336 H 0.29713 0.29199 0.36771 0.0
C3337 C 0.29468 0.24952 0.44425 0.0
C3338 C 0.30191 0.23169 0.45286 0.0
C3339 C 0.31404 0.21849 0.43853 0.0
C3340 C 0.31844 0.22243 0.4161 0.0
C3341 C 0.311 0.23997 0.4081 0.0
C3342 C 0.29969 0.25358 0.42189 0.0
C3343 C 0.29427 0.27187 0.40935 0.0
C3344 C 0.26848 0.26886 0.40527 0.0
C3345 C 0.30634 0.29627 0.42304 0.0
C3346 C 0.30409 0.26629 0.38634 0.0
C3347 C 0.31337 0.2476 0.38587 0.0
C3348 C 0.32253 0.23856 0.36609 0.0
C3349 C 0.32242 0.24895 0.34647 0.0
C3350 C 0.31361 0.26856 0.34666 0.0
C3351 C 0.30434 0.27727 0.36702 0.0
H3352 H 0.39528 0.56645 0.55938 0.0
H3353 H 0.39831 0.61951 0.51849 0.0
H3354 H 0.43679 0.61697 0.50976 0.0
H3355 H 0.45434 0.58391 0.58383 0.0
H3356 H 0.4574 0.55492 0.58188 0.0
H3357 H 0.43006 0.56081 0.58514 0.0
H3358 H 0.41272 0.52995 0.54779 0.0
H3359 H 0.44004 0.52399 0.54448 0.0
H3360 H 0.42516 0.53191 0.52093 0.0
H3361 H 0.47669 0.61027 0.50704 0.0
H3362 H 0.51248 0.59773 0.5081 0.0
H3363 H 0.48362 0.54709 0.54831 0.0
C3364 C 0.40395 0.57746 0.54847 0.0
C3365 C 0.39334 0.59325 0.53967 0.0
C3366 C 0.40564 0.60721 0.52546 0.0
C3367 C 0.42772 0.60595 0.52043 0.0
C3368 C 0.43768 0.59041 0.52943 0.0
C3369 C 0.42608 0.57619 0.54296 0.0
C3370 C 0.44065 0.56071 0.5501 0.0
C3371 C 0.44592 0.56537 0.57682 0.0
C3372 C 0.42894 0.53512 0.54024 0.0
C3373 C 0.46217 0.56847 0.5386 0.0
C3374 C 0.46018 0.58584 0.52697 0.0
C3375 C 0.47821 0.59647 0.51588 0.0
C3376 C 0.49861 0.58922 0.51657 0.0
C3377 C 0.50107 0.5711 0.5279 0.0
C3378 C 0.48235 0.56065 0.53903 0.0
H3379 H 0.92049 0.91116 0.54594 0.0
H3380 H 0.891 0.96432 0.58171 0.0
H3381 H 0.92739 0.99322 0.58408 0.0
H3382 H 0.9774 0.93307 0.57748 0.0
H3383 H 0.99151 0.92622 0.55204 0.0
H3384 H 0.9635 0.90917 0.5541 0.0
H3385 H 0.94902 0.91728 0.51471 0.0
H3386 H 0.97701 0.93428 0.51259 0.0
H3387 H 0.95303 0.94672 0.51115 0.0
H3388 H 0.96682 0.01659 0.5827 0.0
H3389 H 1.00606 0.03333 0.5756 0.0
H3390 H 1.01017 0.9658 0.53918 0.0
C3391 C 0.92175 0.92885 0.55443 0.0
C3392 C 0.90279 0.93538 0.56374 0.0
C3393 C 0.90516 0.95881 0.57442 0.0
C3394 C 0.92583 0.97539 0.57594 0.0
C3395 C 0.94409 0.96843 0.56654 0.0
C3396 C 0.94228 0.94577 0.55586 0.0
C3397 C 0.96434 0.9432 0.54629 0.0
C3398 C 0.9748 0.92695 0.55819 0.0
C3399 C 0.96062 0.93488 0.5196 0.0
C3400 C 0.97873 0.96795 0.55322 0.0
C3401 C 0.96675 0.98213 0.5651 0.0
C3402 C 0.97636 1.00565 0.57339 0.0
C3403 C 0.99874 1.01501 0.5693 0.0
C3404 C 1.01133 1.00098 0.55679 0.0
C3405 C 1.00108 0.97707 0.54875 0.0
H3406 H 0.86253 0.11809 0.25498 0.0
H3407 H 0.93035 0.15003 0.29005 0.0
H3408 H 0.9222 0.18832 0.29409 0.0
H3409 H 0.85657 0.16512 0.22439 0.0
H3410 H 0.82731 0.16312 0.22903 0.0
H3411 H 0.83849 0.13805 0.22762 0.0
H3412 H 0.8256 0.13362 0.26795 0.0
H3413 H 0.81452 0.15876 0.26939 0.0
H3414 H 0.83498 0.15757 0.29246 0.0
H3415 H 0.90693 0.22611 0.29277 0.0
H3416 H 0.88593 0.25593 0.29038 0.0
H3417 H 0.8255 0.20213 0.26044 0.0
C3418 C 0.87584 0.13305 0.2635 0.0
C3419 C 0.89767 0.1298 0.27195 0.0
C3420 C 0.9137 0.1508 0.28319 0.0
C3421 C 0.90912 0.17315 0.28556 0.0
C3422 C 0.88783 0.17567 0.27717 0.0
C3423 C 0.87122 0.15599 0.26665 0.0
C3424 C 0.84934 0.16373 0.26026 0.0
C3425 C 0.84251 0.15709 0.23375 0.0
C3426 C 0.82995 0.15276 0.27328 0.0
C3427 C 0.85615 0.19055 0.26859 0.0
C3428 C 0.87869 0.197 0.27793 0.0
C3429 C 0.88921 0.22075 0.28573 0.0
C3430 C 0.8769 0.23798 0.28427 0.0
C3431 C 0.85342 0.23256 0.27558 0.0
C3432 C 0.84316 0.20787 0.26762 0.0
H3433 H 0.74106 0.101 1.01199 0.0
H3434 H 0.76016 0.06209 0.06158 0.0
H3435 H 0.71944 0.04606 0.06497 0.0
H3436 H 0.69477 0.11586 0.0384 0.0
H3437 H 0.67701 0.11238 1.01152 0.0
H3438 H 0.70744 0.11977 1.01201 0.0
H3439 H 0.70475 0.08417 0.97916 0.0
H3440 H 0.67429 0.07687 0.97842 0.0
H3441 H 0.68983 0.05594 0.98284 0.0
H3442 H 0.67587 0.03743 0.06595 0.0
H3443 H 0.63441 0.03333 0.06097 0.0
H3444 H 0.64306 0.07562 1.0086 0.0
C3445 C 0.73674 0.08875 0.02326 0.0
C3446 C 0.75418 0.0828 0.03645 0.0
C3447 C 0.74744 0.06679 0.05104 0.0
C3448 C 0.72421 0.05771 0.05321 0.0
C3449 C 0.70758 0.06439 0.0404 0.0
C3450 C 0.7136 0.0792 0.02531 0.0
C3451 C 0.69248 0.08364 1.01341 0.0
C3452 C 0.69297 0.10945 0.01919 0.0
C3453 C 0.69021 0.07461 0.98688 0.0
C3454 C 0.67359 0.06947 0.02449 0.0
C3455 C 0.68269 0.05863 0.04016 0.0
C3456 C 0.6687 0.04561 0.05345 0.0
C3457 C 0.64504 0.04346 0.05057 0.0
C3458 C 0.6351 0.05394 0.03426 0.0
C3459 C 0.64983 0.06706 0.021 0.0
H3460 H 0.29474 0.49387 0.22219 0.0
H3461 H 0.26245 0.52463 0.27916 0.0
H3462 H 0.28446 0.50984 0.30692 0.0
H3463 H 0.29246 0.44264 0.24089 0.0
H3464 H 0.31935 0.43929 0.23178 0.0
H3465 H 0.30357 0.45512 0.21709 0.0
H3466 H 0.33844 0.49055 0.22586 0.0
H3467 H 0.35427 0.47481 0.24081 0.0
H3468 H 0.35103 0.50236 0.25559 0.0
H3469 H 0.30674 0.48842 0.32776 0.0
H3470 H 0.32496 0.45928 0.33926 0.0
H3471 H 0.34313 0.44291 0.26898 0.0
C3472 C 0.29262 0.49786 0.24056 0.0
C3473 C 0.27699 0.51047 0.24854 0.0
C3474 C 0.27436 0.51498 0.27266 0.0
C3475 C 0.28693 0.50684 0.2886 0.0
C3476 C 0.3021 0.49428 0.28016 0.0
C3477 C 0.30493 0.48974 0.25669 0.0
C3478 C 0.32049 0.47384 0.25176 0.0
C3479 C 0.30823 0.4514 0.23437 0.0
C3480 C 0.34236 0.48614 0.24299 0.0
C3481 C 0.32525 0.46946 0.27595 0.0
C3482 C 0.3149 0.48178 0.2922 0.0
C3483 C 0.31529 0.479 0.31531 0.0
C3484 C 0.3258 0.46253 0.32174 0.0
C3485 C 0.33549 0.44896 0.30502 0.0
C3486 C 0.33594 0.45317 0.28213 0.0
H3487 H 0.28019 0.42657 0.02398 0.0
H3488 H 0.30595 0.46441 0.09457 0.0
H3489 H 0.27652 0.48589 0.09383 0.0
H3490 H 0.2679 0.4749 1.00295 0.0
H3491 H 0.24246 0.45808 0.98455 0.0
H3492 H 0.265 0.4448 0.99079 0.0
H3493 H 0.23671 0.41365 1.0064 0.0
H3494 H 0.21409 0.42692 1.00032 0.0
H3495 H 0.22036 0.42243 0.02934 0.0
H3496 H 0.24462 0.50349 0.08584 0.0
H3497 H 0.21352 0.51789 0.07003 0.0
H3498 H 0.20856 0.47006 1.00403 0.0
C3499 C 0.27956 0.43932 0.03929 0.0
C3500 C 0.29542 0.44374 0.05937 0.0
C3501 C 0.2941 0.46071 0.07896 0.0
C3502 C 0.27735 0.47298 0.07876 0.0
C3503 C 0.26201 0.46825 0.05879 0.0
C3504 C 0.26299 0.45198 0.03932 0.0
C3505 C 0.24487 0.451 0.01983 0.0
C3506 C 0.25571 0.45759 0.99826 0.0
C3507 C 0.22801 0.42707 1.01361 0.0
C3508 C 0.23367 0.4693 0.03141 0.0
C3509 C 0.24376 0.47886 0.05395 0.0
C3510 C 0.23666 0.49623 0.06816 0.0
C3511 C 0.21905 0.50439 0.05897 0.0
C3512 C 0.20873 0.49531 0.03571 0.0
C3513 C 0.21599 0.47726 0.02191 0.0
H3514 H 0.92478 0.97392 0.28716 0.0
H3515 H 0.86493 0.99857 0.27439 0.0
H3516 H 0.84079 0.95972 0.27537 0.0
H3517 H 0.90247 0.91576 0.25128 0.0
H3518 H 0.91616 0.90183 0.27053 0.0
H3519 H 0.92858 0.93147 0.26919 0.0
H3520 H 0.92846 0.94355 0.31371 0.0
H3521 H 0.91602 0.91396 0.31519 0.0
H3522 H 0.90226 0.93617 0.32642 0.0
H3523 H 0.82222 0.9159 0.27876 0.0
H3524 H 0.81228 0.875 0.28217 0.0
H3525 H 0.88378 0.87673 0.29134 0.0
C3526 C 0.90655 0.9714 0.28456 0.0
C3527 C 0.89726 0.99044 0.28076 0.0
C3528 C 0.8731 0.98521 0.27736 0.0
C3529 C 0.85908 0.9628 0.27793 0.0
C3530 C 0.86887 0.94474 0.28175 0.0
C3531 C 0.89223 0.94889 0.28485 0.0
C3532 C 0.89866 0.92646 0.28825 0.0
C3533 C 0.91228 0.91841 0.26865 0.0
C3534 C 0.91216 0.93027 0.31232 0.0
C3535 C 0.87544 0.90892 0.28674 0.0
C3536 C 0.85846 0.91995 0.2831 0.0
C3537 C 0.83567 0.90749 0.2815 0.0
C3538 C 0.83008 0.8838 0.28353 0.0
C3539 C 0.84683 0.87146 0.28704 0.0
C3540 C 0.87008 0.8848 0.2886 0.0
H3541 H 0.74535 0.12886 0.75466 0.0
H3542 H 0.78759 0.1065 0.70287 0.0
H3543 H 0.80309 0.14725 0.6999 0.0
H3544 H 0.73161 0.17332 0.7285 0.0
H3545 H 0.73236 0.1923 0.75618 0.0
H3546 H 0.72474 0.16148 0.75394 0.0
H3547 H 0.75676 0.16542 0.78694 0.0
H3548 H 0.76437 0.19624 0.7894 0.0
H3549 H 0.78548 0.18015 0.78412 0.0
H3550 H 0.8144 0.19097 0.70369 0.0
H3551 H 0.82097 0.23345 0.71427 0.0
H3552 H 0.77018 0.22551 0.76278 0.0
C3553 C 0.75789 0.13239 0.74266 0.0
C3554 C 0.76532 0.1145 0.72902 0.0
C3555 C 0.78169 0.11997 0.71352 0.0
C3556 C 0.79052 0.14302 0.71168 0.0
C3557 C 0.78266 0.1602 0.72537 0.0
C3558 C 0.76671 0.15507 0.74055 0.0
C3559 C 0.76108 0.17645 0.75357 0.0
C3560 C 0.73596 0.17584 0.74768 0.0
C3561 C 0.7673 0.17975 0.78007 0.0
C3562 C 0.77651 0.19459 0.74353 0.0
C3563 C 0.78883 0.18499 0.72726 0.0
C3564 C 0.80473 0.19864 0.71629 0.0
C3565 C 0.80832 0.22272 0.72239 0.0
C3566 C 0.796 0.23278 0.73927 0.0
C3567 C 0.77972 0.21841 0.74965 0.0
loop_
_geom_bond_atom_site_label_1
_geom_bond_atom_site_label_2
_geom_bond_distance
_geom_bond_site_symmetry_2
_ccdc_geom_bond_type
O0 Cd1 2.223 . S
O0 C8 1.315 . S
Cd1 O0 2.223 . S
Cd1 O4 2.297 . S
Cd1 O5 2.439 . S
Cd1 O11 2.240 . S
Cd2 O3 2.240 . S
Cd2 O10 2.223 . S
Cd2 O12 2.297 . S
Cd2 O13 2.439 . S
O3 Cd2 2.240 . S
O3 C8 1.279 . S
O4 Cd1 2.297 . S
O4 C6 1.247 . S
O5 Cd1 2.439 . S
O5 C6 1.208 . S
C6 O4 1.247 . S
C6 O5 1.208 . S
C7 O12 1.247 . S
C7 O13 1.208 . S
C8 O0 1.315 . S
C8 O3 1.279 . S
C9 O10 1.315 . S
C9 O11 1.279 . S
O10 Cd2 2.223 . S
O10 C9 1.315 . S
O11 Cd1 2.240 . S
O11 C9 1.279 . S
O12 Cd2 2.297 . S
O12 C7 1.247 . S
O13 Cd2 2.439 . S
O13 C7 1.208 . S
O14 Cd15 2.236 . S
O14 C22 1.318 . S
Cd15 O14 2.236 . S
Cd15 O18 2.297 . S
Cd15 O19 2.439 . S
Cd15 O25 2.240 1_655 S
Cd16 O17 2.240 1_455 S
Cd16 O24 2.223 . S
Cd16 O26 2.297 . S
Cd16 O27 2.437 1_455 S
O17 Cd16 2.240 1_655 S
O17 C22 1.279 . S
O18 Cd15 2.297 . S
O18 C20 1.247 . S
O19 Cd15 2.439 . S
O19 C20 1.208 . S
C20 O18 1.247 . S
C20 O19 1.208 . S
C21 O26 1.247 . S
C21 O27 1.207 1_455 S
C22 O14 1.318 . S
C22 O17 1.279 . S
C23 O24 1.315 . S
C23 O25 1.279 . S
O24 Cd16 2.223 . S
O24 C23 1.315 . S
O25 Cd15 2.240 1_455 S
O25 C23 1.279 . S
O26 Cd16 2.297 . S
O26 C21 1.247 . S
O27 Cd16 2.437 1_655 S
O27 C21 1.207 1_655 S
O28 Cd29 2.223 . S
O28 C36 1.315 . S
Cd29 O28 2.223 . S
Cd29 O32 2.297 . S
Cd29 O33 2.439 . S
Cd29 O39 2.240 . S
Cd30 O31 2.240 . S
Cd30 O38 2.223 . S
Cd30 O40 2.297 . S
Cd30 O41 2.439 . S
O31 Cd30 2.240 . S
O31 C36 1.279 . S
O32 Cd29 2.297 . S
O32 C34 1.247 . S
O33 Cd29 2.439 . S
O33 C34 1.208 . S
C34 O32 1.247 . S
C34 O33 1.208 . S
C35 O40 1.247 . S
C35 O41 1.208 . S
C36 O28 1.315 . S
C36 O31 1.279 . S
C37 O38 1.315 . S
C37 O39 1.279 . S
O38 Cd30 2.223 . S
O38 C37 1.315 . S
O39 Cd29 2.240 . S
O39 C37 1.279 . S
O40 Cd30 2.297 . S
O40 C35 1.247 . S
O41 Cd30 2.439 . S
O41 C35 1.208 . S
O42 Cd43 2.223 . S
O42 C50 1.315 . S
Cd43 O42 2.223 . S
Cd43 O46 2.297 . S
Cd43 O47 2.439 . S
Cd43 O53 2.240 . S
Cd44 O45 2.240 . S
Cd44 O52 2.223 . S
Cd44 O54 2.297 . S
Cd44 O55 2.439 . S
O45 Cd44 2.240 . S
O45 C50 1.279 . S
O46 Cd43 2.297 . S
O46 C48 1.247 . S
O47 Cd43 2.439 . S
O47 C48 1.208 . S
C48 O46 1.247 . S
C48 O47 1.208 . S
C49 O54 1.247 . S
C49 O55 1.208 . S
C50 O42 1.315 . S
C50 O45 1.279 . S
C51 O52 1.315 . S
C51 O53 1.279 . S
O52 Cd44 2.223 . S
O52 C51 1.315 . S
O53 Cd43 2.240 . S
O53 C51 1.279 . S
O54 Cd44 2.297 . S
O54 C49 1.247 . S
O55 Cd44 2.439 . S
O55 C49 1.208 . S
O56 Cd57 2.223 . S
O56 C64 1.315 . S
Cd57 O56 2.223 . S
Cd57 O60 2.297 . S
Cd57 O61 2.439 . S
Cd57 O67 2.240 . S
Cd58 O59 2.240 . S
Cd58 O66 2.223 . S
Cd58 O68 2.297 . S
Cd58 O69 2.439 . S
O59 Cd58 2.240 . S
O59 C64 1.279 . S
O60 Cd57 2.297 . S
O60 C62 1.247 . S
O61 Cd57 2.439 . S
O61 C62 1.208 . S
C62 O60 1.247 . S
C62 O61 1.208 . S
C63 O68 1.247 . S
C63 O69 1.208 . S
C64 O56 1.315 . S
C64 O59 1.279 . S
C65 O66 1.315 . S
C65 O67 1.279 . S
O66 Cd58 2.223 . S
O66 C65 1.315 . S
O67 Cd57 2.240 . S
O67 C65 1.279 . S
O68 Cd58 2.297 . S
O68 C63 1.247 . S
O69 Cd58 2.439 . S
O69 C63 1.208 . S
O70 Cd71 2.223 . S
O70 C78 1.315 . S
Cd71 O70 2.223 . S
Cd71 O74 2.297 . S
Cd71 O75 2.439 . S
Cd71 O81 2.240 . S
Cd72 O73 2.240 . S
Cd72 O80 2.223 . S
Cd72 O82 2.297 . S
Cd72 O83 2.439 . S
O73 Cd72 2.240 . S
O73 C78 1.279 . S
O74 Cd71 2.297 . S
O74 C76 1.247 . S
O75 Cd71 2.439 . S
O75 C76 1.208 . S
C76 O74 1.247 . S
C76 O75 1.208 . S
C77 O82 1.247 . S
C77 O83 1.208 . S
C78 O70 1.315 . S
C78 O73 1.279 . S
C79 O80 1.315 . S
C79 O81 1.279 . S
O80 Cd72 2.223 . S
O80 C79 1.315 . S
O81 Cd71 2.240 . S
O81 C79 1.279 . S
O82 Cd72 2.297 . S
O82 C77 1.247 . S
O83 Cd72 2.439 . S
O83 C77 1.208 . S
O84 Cd85 2.223 . S
O84 C92 1.315 . S
Cd85 O84 2.223 . S
Cd85 O88 2.297 . S
Cd85 O89 2.439 . S
Cd85 O95 2.240 . S
Cd86 O87 2.240 . S
Cd86 O94 2.223 . S
Cd86 O96 2.297 . S
Cd86 O97 2.439 . S
O87 Cd86 2.240 . S
O87 C92 1.279 . S
O88 Cd85 2.297 . S
O88 C90 1.247 . S
O89 Cd85 2.439 . S
O89 C90 1.208 . S
C90 O88 1.247 . S
C90 O89 1.208 . S
C91 O96 1.247 . S
C91 O97 1.208 . S
C92 O84 1.315 . S
C92 O87 1.279 . S
C93 O94 1.315 . S
C93 O95 1.279 . S
O94 Cd86 2.223 . S
O94 C93 1.315 . S
O95 Cd85 2.240 . S
O95 C93 1.279 . S
O96 Cd86 2.297 . S
O96 C91 1.247 . S
O97 Cd86 2.439 . S
O97 C91 1.208 . S
O98 Cd99 2.223 . S
O98 C106 1.315 . S
Cd99 O98 2.223 . S
Cd99 O102 2.297 . S
Cd99 O103 2.439 . S
Cd99 O109 2.240 . S
Cd100 O101 2.240 . S
Cd100 O108 2.223 1_455 S
Cd100 O110 2.297 . S
Cd100 O111 2.439 . S
O101 Cd100 2.240 . S
O101 C106 1.279 . S
O102 Cd99 2.297 . S
O102 C104 1.247 . S
O103 Cd99 2.439 . S
O103 C104 1.208 . S
C104 O102 1.247 . S
C104 O103 1.208 . S
C105 O110 1.247 . S
C105 O111 1.208 . S
C106 O98 1.315 . S
C106 O101 1.279 . S
C107 O108 1.315 . S
C107 O109 1.279 1_655 S
O108 Cd100 2.223 1_655 S
O108 C107 1.315 . S
O109 Cd99 2.240 . S
O109 C107 1.279 1_455 S
O110 Cd100 2.297 . S
O110 C105 1.247 . S
O111 Cd100 2.439 . S
O111 C105 1.208 . S
O112 Cd113 2.223 1_565 S
O112 C120 1.315 1_565 S
Cd113 O112 2.223 1_545 S
Cd113 O116 2.297 . S
Cd113 O117 2.439 . S
Cd113 O123 2.240 1_545 S
Cd114 O115 2.248 . S
Cd114 O122 2.213 1_545 S
Cd114 O124 2.292 1_545 S
Cd114 O125 2.444 . S
O115 Cd114 2.248 . S
O115 C120 1.279 . S
O116 Cd113 2.297 . S
O116 C118 1.247 . S
O117 Cd113 2.439 . S
O117 C118 1.208 . S
C118 O116 1.247 . S
C118 O117 1.208 . S
C119 O124 1.247 1_545 S
C119 O125 1.208 . S
C120 O112 1.315 1_545 S
C120 O115 1.279 . S
C121 O122 1.315 . S
C121 O123 1.279 . S
O122 Cd114 2.213 1_565 S
O122 C121 1.315 . S
O123 Cd113 2.240 1_565 S
O123 C121 1.279 . S
O124 Cd114 2.292 1_565 S
O124 C119 1.247 1_565 S
O125 Cd114 2.444 . S
O125 C119 1.208 . S
O126 Cd127 2.223 . S
O126 C134 1.315 . S
Cd127 O126 2.223 . S
Cd127 O130 2.297 . S
Cd127 O131 2.439 . S
Cd127 O137 2.240 . S
Cd128 O129 2.240 . S
Cd128 O136 2.223 . S
Cd128 O138 2.297 . S
Cd128 O139 2.439 . S
O129 Cd128 2.240 . S
O129 C134 1.279 . S
O130 Cd127 2.297 . S
O130 C132 1.247 . S
O131 Cd127 2.439 . S
O131 C132 1.208 . S
C132 O130 1.247 . S
C132 O131 1.208 . S
C133 O138 1.247 . S
C133 O139 1.208 . S
C134 O126 1.315 . S
C134 O129 1.279 . S
C135 O136 1.315 . S
C135 O137 1.279 . S
O136 Cd128 2.223 . S
O136 C135 1.315 . S
O137 Cd127 2.240 . S
O137 C135 1.279 . S
O138 Cd128 2.297 . S
O138 C133 1.247 . S
O139 Cd128 2.439 . S
O139 C133 1.208 . S
O140 Cd141 2.223 . S
O140 C148 1.315 . S
Cd141 O140 2.223 . S
Cd141 O144 2.297 1_545 S
Cd141 O145 2.439 1_545 S
Cd141 O151 2.240 . S
Cd142 O143 2.240 1_545 S
Cd142 O150 2.223 . S
Cd142 O152 2.297 . S
Cd142 O153 2.439 . S
O143 Cd142 2.240 1_565 S
O143 C148 1.279 1_565 S
O144 Cd141 2.297 1_565 S
O144 C146 1.247 . S
O145 Cd141 2.439 1_565 S
O145 C146 1.208 . S
C146 O144 1.247 . S
C146 O145 1.208 . S
C147 O152 1.247 . S
C147 O153 1.208 . S
C148 O140 1.315 . S
C148 O143 1.279 1_545 S
C149 O150 1.315 . S
C149 O151 1.279 . S
O150 Cd142 2.223 . S
O150 C149 1.315 . S
O151 Cd141 2.240 . S
O151 C149 1.279 . S
O152 Cd142 2.297 . S
O152 C147 1.247 . S
O153 Cd142 2.439 . S
O153 C147 1.208 . S
O154 Cd155 2.223 . S
O154 C162 1.315 . S
Cd155 O154 2.223 . S
Cd155 O158 2.297 . S
Cd155 O159 2.439 1_554 S
Cd155 O165 2.236 1_554 S
Cd156 O157 2.240 1_556 S
Cd156 O164 2.223 1_556 S
Cd156 O166 2.297 . S
Cd156 O167 2.439 . S
O157 Cd156 2.240 1_554 S
O157 C162 1.279 . S
O158 Cd155 2.297 . S
O158 C160 1.247 . S
O159 Cd155 2.439 1_556 S
O159 C160 1.208 1_556 S
C160 O158 1.247 . S
C160 O159 1.208 1_554 S
C161 O166 1.247 . S
C161 O167 1.208 . S
C162 O154 1.315 . S
C162 O157 1.279 . S
C163 O164 1.315 . S
C163 O165 1.277 1_554 S
O164 Cd156 2.223 1_554 S
O164 C163 1.315 . S
O165 Cd155 2.236 1_556 S
O165 C163 1.277 1_556 S
O166 Cd156 2.297 . S
O166 C161 1.247 . S
O167 Cd156 2.439 . S
O167 C161 1.208 . S
O168 Cd169 2.223 . S
O168 C176 1.315 . S
Cd169 O168 2.223 . S
Cd169 O172 2.297 . S
Cd169 O173 2.439 . S
Cd169 O179 2.240 . S
Cd170 O171 2.240 . S
Cd170 O178 2.223 . S
Cd170 O180 2.297 1_554 S
Cd170 O181 2.439 1_554 S
O171 Cd170 2.240 . S
O171 C176 1.279 . S
O172 Cd169 2.297 . S
O172 C174 1.247 . S
O173 Cd169 2.439 . S
O173 C174 1.208 . S
C174 O172 1.247 . S
C174 O173 1.208 . S
C175 O180 1.247 . S
C175 O181 1.208 . S
C176 O168 1.315 . S
C176 O171 1.279 . S
C177 O178 1.315 . S
C177 O179 1.279 . S
O178 Cd170 2.223 . S
O178 C177 1.315 . S
O179 Cd169 2.240 . S
O179 C177 1.279 . S
O180 Cd170 2.297 1_556 S
O180 C175 1.247 . S
O181 Cd170 2.439 1_556 S
O181 C175 1.208 . S
O182 Cd183 2.223 . S
O182 C190 1.315 . S
Cd183 O182 2.223 . S
Cd183 O186 2.297 . S
Cd183 O187 2.439 . S
Cd183 O193 2.240 . S
Cd184 O185 2.240 . S
Cd184 O192 2.223 . S
Cd184 O194 2.297 1_554 S
Cd184 O195 2.439 1_554 S
O185 Cd184 2.240 . S
O185 C190 1.279 . S
O186 Cd183 2.297 . S
O186 C188 1.247 . S
O187 Cd183 2.439 . S
O187 C188 1.208 . S
C188 O186 1.247 . S
C188 O187 1.208 . S
C189 O194 1.247 . S
C189 O195 1.208 . S
C190 O182 1.315 . S
C190 O185 1.279 . S
C191 O192 1.315 . S
C191 O193 1.279 . S
O192 Cd184 2.223 . S
O192 C191 1.315 . S
O193 Cd183 2.240 . S
O193 C191 1.279 . S
O194 Cd184 2.297 1_556 S
O194 C189 1.247 . S
O195 Cd184 2.439 1_556 S
O195 C189 1.208 . S
O196 Cd197 2.223 . S
O196 C204 1.315 . S
Cd197 O196 2.223 . S
Cd197 O200 2.297 . S
Cd197 O201 2.439 . S
Cd197 O207 2.240 . S
Cd198 O199 2.240 . S
Cd198 O206 2.223 . S
Cd198 O208 2.297 . S
Cd198 O209 2.439 . S
O199 Cd198 2.240 . S
O199 C204 1.279 . S
O200 Cd197 2.297 . S
O200 C202 1.247 . S
O201 Cd197 2.439 . S
O201 C202 1.208 . S
C202 O200 1.247 . S
C202 O201 1.208 . S
C203 O208 1.247 . S
C203 O209 1.208 . S
C204 O196 1.315 . S
C204 O199 1.279 . S
C205 O206 1.315 . S
C205 O207 1.279 . S
O206 Cd198 2.223 . S
O206 C205 1.315 . S
O207 Cd197 2.240 . S
O207 C205 1.279 . S
O208 Cd198 2.297 . S
O208 C203 1.247 . S
O209 Cd198 2.439 . S
O209 C203 1.208 . S
O210 Cd211 2.223 . S
O210 C218 1.315 . S
Cd211 O210 2.223 . S
Cd211 O214 2.297 . S
Cd211 O215 2.439 . S
Cd211 O221 2.240 . S
Cd212 O213 2.240 . S
Cd212 O220 2.223 . S
Cd212 O222 2.297 . S
Cd212 O223 2.439 . S
O213 Cd212 2.240 . S
O213 C218 1.279 . S
O214 Cd211 2.297 . S
O214 C216 1.247 . S
O215 Cd211 2.439 . S
O215 C216 1.208 . S
C216 O214 1.247 . S
C216 O215 1.208 . S
C217 O222 1.247 . S
C217 O223 1.208 . S
C218 O210 1.315 . S
C218 O213 1.279 . S
C219 O220 1.315 . S
C219 O221 1.279 . S
O220 Cd212 2.223 . S
O220 C219 1.315 . S
O221 Cd211 2.240 . S
O221 C219 1.279 . S
O222 Cd212 2.297 . S
O222 C217 1.247 . S
O223 Cd212 2.439 . S
O223 C217 1.208 . S
O224 Cd225 2.223 . S
O224 C232 1.315 . S
Cd225 O224 2.223 . S
Cd225 O228 2.297 . S
Cd225 O229 2.439 . S
Cd225 O235 2.240 . S
Cd226 O227 2.240 . S
Cd226 O234 2.223 . S
Cd226 O236 2.297 . S
Cd226 O237 2.439 . S
O227 Cd226 2.240 . S
O227 C232 1.279 . S
O228 Cd225 2.297 . S
O228 C230 1.247 . S
O229 Cd225 2.439 . S
O229 C230 1.208 . S
C230 O228 1.247 . S
C230 O229 1.208 . S
C231 O236 1.247 . S
C231 O237 1.208 . S
C232 O224 1.315 . S
C232 O227 1.279 . S
C233 O234 1.315 . S
C233 O235 1.279 . S
O234 Cd226 2.223 . S
O234 C233 1.315 . S
O235 Cd225 2.240 . S
O235 C233 1.279 . S
O236 Cd226 2.297 . S
O236 C231 1.247 . S
O237 Cd226 2.439 . S
O237 C231 1.208 . S
O238 Cd239 2.223 . S
O238 C246 1.315 . S
Cd239 O238 2.223 . S
Cd239 O242 2.297 . S
Cd239 O243 2.439 . S
Cd239 O249 2.240 . S
Cd240 O241 2.240 . S
Cd240 O248 2.223 . S
Cd240 O250 2.297 . S
Cd240 O251 2.439 . S
O241 Cd240 2.240 . S
O241 C246 1.279 . S
O242 Cd239 2.297 . S
O242 C244 1.247 . S
O243 Cd239 2.439 . S
O243 C244 1.208 . S
C244 O242 1.247 . S
C244 O243 1.208 . S
C245 O250 1.247 . S
C245 O251 1.208 . S
C246 O238 1.315 . S
C246 O241 1.279 . S
C247 O248 1.315 . S
C247 O249 1.279 . S
O248 Cd240 2.223 . S
O248 C247 1.315 . S
O249 Cd239 2.240 . S
O249 C247 1.279 . S
O250 Cd240 2.297 . S
O250 C245 1.247 . S
O251 Cd240 2.439 . S
O251 C245 1.208 . S
O252 Cd253 2.223 . S
O252 C260 1.315 . S
Cd253 O252 2.223 . S
Cd253 O256 2.297 . S
Cd253 O257 2.439 . S
Cd253 O263 2.240 . S
Cd254 O255 2.240 . S
Cd254 O262 2.223 . S
Cd254 O264 2.297 . S
Cd254 O265 2.439 . S
O255 Cd254 2.240 . S
O255 C260 1.279 . S
O256 Cd253 2.297 . S
O256 C258 1.247 . S
O257 Cd253 2.439 . S
O257 C258 1.208 . S
C258 O256 1.247 . S
C258 O257 1.208 . S
C259 O264 1.247 . S
C259 O265 1.208 . S
C260 O252 1.315 . S
C260 O255 1.279 . S
C261 O262 1.315 . S
C261 O263 1.279 . S
O262 Cd254 2.223 . S
O262 C261 1.315 . S
O263 Cd253 2.240 . S
O263 C261 1.279 . S
O264 Cd254 2.297 . S
O264 C259 1.247 . S
O265 Cd254 2.439 . S
O265 C259 1.208 . S
O266 Cd267 2.223 . S
O266 C274 1.315 . S
Cd267 O266 2.223 . S
Cd267 O270 2.297 . S
Cd267 O271 2.439 . S
Cd267 O277 2.240 . S
Cd268 O269 2.240 . S
Cd268 O276 2.223 . S
Cd268 O278 2.297 . S
Cd268 O279 2.439 . S
O269 Cd268 2.240 . S
O269 C274 1.279 . S
O270 Cd267 2.297 . S
O270 C272 1.247 . S
O271 Cd267 2.439 . S
O271 C272 1.208 . S
C272 O270 1.247 . S
C272 O271 1.208 . S
C273 O278 1.247 . S
C273 O279 1.208 . S
C274 O266 1.315 . S
C274 O269 1.279 . S
C275 O276 1.315 . S
C275 O277 1.279 . S
O276 Cd268 2.223 . S
O276 C275 1.315 . S
O277 Cd267 2.240 . S
O277 C275 1.279 . S
O278 Cd268 2.297 . S
O278 C273 1.247 . S
O279 Cd268 2.439 . S
O279 C273 1.208 . S
O280 Cd281 2.223 . S
O280 C288 1.315 . S
Cd281 O280 2.223 . S
Cd281 O284 2.297 . S
Cd281 O285 2.439 . S
Cd281 O291 2.240 . S
Cd282 O283 2.240 . S
Cd282 O290 2.223 . S
Cd282 O292 2.297 1_554 S
Cd282 O293 2.439 1_554 S
O283 Cd282 2.240 . S
O283 C288 1.279 . S
O284 Cd281 2.297 . S
O284 C286 1.247 . S
O285 Cd281 2.439 . S
O285 C286 1.208 . S
C286 O284 1.247 . S
C286 O285 1.208 . S
C287 O292 1.247 . S
C287 O293 1.208 . S
C288 O280 1.315 . S
C288 O283 1.279 . S
C289 O290 1.315 . S
C289 O291 1.279 . S
O290 Cd282 2.223 . S
O290 C289 1.315 . S
O291 Cd281 2.240 . S
O291 C289 1.279 . S
O292 Cd282 2.297 1_556 S
O292 C287 1.247 . S
O293 Cd282 2.439 1_556 S
O293 C287 1.208 . S
O294 Cd295 2.223 . S
O294 C302 1.315 . S
Cd295 O294 2.223 . S
Cd295 O298 2.297 . S
Cd295 O299 2.439 . S
Cd295 O305 2.240 . S
Cd296 O297 2.240 . S
Cd296 O304 2.223 . S
Cd296 O306 2.297 . S
Cd296 O307 2.439 . S
O297 Cd296 2.240 . S
O297 C302 1.279 . S
O298 Cd295 2.297 . S
O298 C300 1.247 . S
O299 Cd295 2.439 . S
O299 C300 1.208 . S
C300 O298 1.247 . S
C300 O299 1.208 . S
C301 O306 1.247 . S
C301 O307 1.208 . S
C302 O294 1.315 . S
C302 O297 1.279 . S
C303 O304 1.315 . S
C303 O305 1.279 . S
O304 Cd296 2.223 . S
O304 C303 1.315 . S
O305 Cd295 2.240 . S
O305 C303 1.279 . S
O306 Cd296 2.297 . S
O306 C301 1.247 . S
O307 Cd296 2.439 . S
O307 C301 1.208 . S
O308 Cd309 2.223 . S
O308 C316 1.315 . S
Cd309 O308 2.223 . S
Cd309 O312 2.297 . S
Cd309 O313 2.439 . S
Cd309 O319 2.240 . S
Cd310 O311 2.240 . S
Cd310 O318 2.223 . S
Cd310 O320 2.297 . S
Cd310 O321 2.439 . S
O311 Cd310 2.240 . S
O311 C316 1.279 . S
O312 Cd309 2.297 . S
O312 C314 1.247 . S
O313 Cd309 2.439 . S
O313 C314 1.208 . S
C314 O312 1.247 . S
C314 O313 1.208 . S
C315 O320 1.247 . S
C315 O321 1.208 . S
C316 O308 1.315 . S
C316 O311 1.279 . S
C317 O318 1.315 . S
C317 O319 1.279 . S
O318 Cd310 2.223 . S
O318 C317 1.315 . S
O319 Cd309 2.240 . S
O319 C317 1.279 . S
O320 Cd310 2.297 . S
O320 C315 1.247 . S
O321 Cd310 2.439 . S
O321 C315 1.208 . S
O322 Cd323 2.223 . S
O322 C330 1.315 . S
Cd323 O322 2.223 . S
Cd323 O326 2.297 . S
Cd323 O327 2.439 . S
Cd323 O333 2.240 . S
Cd324 O325 2.240 . S
Cd324 O332 2.223 . S
Cd324 O334 2.297 . S
Cd324 O335 2.439 . S
O325 Cd324 2.240 . S
O325 C330 1.279 . S
O326 Cd323 2.297 . S
O326 C328 1.247 . S
O327 Cd323 2.439 . S
O327 C328 1.208 . S
C328 O326 1.247 . S
C328 O327 1.208 . S
C329 O334 1.247 . S
C329 O335 1.208 . S
C330 O322 1.315 . S
C330 O325 1.279 . S
C331 O332 1.315 . S
C331 O333 1.279 . S
O332 Cd324 2.223 . S
O332 C331 1.315 . S
O333 Cd323 2.240 . S
O333 C331 1.279 . S
O334 Cd324 2.297 . S
O334 C329 1.247 . S
O335 Cd324 2.439 . S
O335 C329 1.208 . S
Eu336 C345 2.828 . S
Eu336 O347 2.392 . S
Eu336 O349 2.418 . S
Eu336 O354 2.373 . S
Eu336 O357 2.488 . S
Eu336 O358 2.471 1_554 S
Eu336 O359 2.349 1_554 S
Eu337 O346 2.373 . S
Eu337 O350 2.488 1_545 S
Eu337 O351 2.471 1_545 S
Eu337 O352 2.349 . S
Eu337 O355 2.392 . S
Eu337 O356 2.418 1_554 S
Eu337 C366 2.828 1_545 S
C338 O356 1.244 . S
C338 O359 1.265 . S
C339 C340 1.379 1_554 S
C339 C343 1.373 . S
C339 C345 1.505 . S
C340 C339 1.379 1_556 S
C340 C342 1.369 . S
C340 H368 0.930 . S
C341 C343 1.383 . S
C341 C344 1.382 1_554 S
C341 H369 0.930 . S
C342 C340 1.369 . S
C342 C344 1.392 . S
C342 H370 0.930 . S
C343 C339 1.373 . S
C343 C341 1.383 . S
C343 H371 0.931 . S
C344 C341 1.382 1_556 S
C344 C342 1.392 . S
C345 Eu336 2.828 . S
C345 C339 1.505 . S
C345 O357 1.249 . S
C345 O358 1.244 1_554 S
O346 Eu337 2.373 . S
O346 C348 1.258 . S
O347 Eu336 2.392 . S
O347 C348 1.242 . S
C348 O346 1.258 . S
C348 O347 1.242 . S
O349 Eu336 2.418 . S
O349 C353 1.244 . S
O350 Eu337 2.488 1_565 S
O350 C366 1.249 . S
O351 Eu337 2.471 1_565 S
O351 C366 1.244 . S
O352 Eu337 2.349 . S
O352 C353 1.265 . S
C353 O349 1.244 . S
C353 O352 1.265 . S
O354 Eu336 2.373 . S
O354 C367 1.258 . S
O355 Eu337 2.392 . S
O355 C367 1.242 . S
O356 Eu337 2.418 1_556 S
O356 C338 1.244 . S
O357 Eu336 2.488 . S
O357 C345 1.249 . S
O358 Eu336 2.471 1_556 S
O358 C345 1.244 1_556 S
O359 Eu336 2.349 1_556 S
O359 C338 1.265 . S
C360 C361 1.379 . S
C360 C364 1.373 . S
C360 C366 1.505 . S
C361 C360 1.379 . S
C361 C363 1.369 . S
C361 H372 0.930 . S
C362 C364 1.383 . S
C362 C365 1.382 . S
C362 H373 0.930 . S
C363 C361 1.369 . S
C363 C365 1.392 . S
C363 H374 0.930 . S
C364 C360 1.373 . S
C364 C362 1.383 . S
C364 H375 0.931 1_554 S
C365 C362 1.382 . S
C365 C363 1.392 . S
C366 Eu337 2.828 1_565 S
C366 O350 1.249 . S
C366 O351 1.244 . S
C366 C360 1.505 . S
C367 O354 1.258 . S
C367 O355 1.242 . S
H368 C340 0.930 . S
H369 C341 0.930 . S
H370 C342 0.930 . S
H371 C343 0.931 . S
H372 C361 0.930 . S
H373 C362 0.930 . S
H374 C363 0.930 . S
H375 C364 0.931 1_556 S
Eu376 C385 2.828 . S
Eu376 O387 2.392 . S
Eu376 O389 2.418 . S
Eu376 O394 2.373 . S
Eu376 O397 2.488 . S
Eu376 O398 2.471 . S
Eu376 O399 2.349 . S
Eu377 O386 2.373 . S
Eu377 O390 2.488 . S
Eu377 O391 2.471 . S
Eu377 O392 2.349 . S
Eu377 O395 2.392 . S
Eu377 O396 2.418 . S
Eu377 C406 2.828 . S
C378 O396 1.244 . S
C378 O399 1.265 . S
C379 C380 1.379 . S
C379 C383 1.373 . S
C379 C385 1.505 . S
C380 C379 1.379 . S
C380 C382 1.369 . S
C380 H408 0.930 . S
C381 C383 1.383 . S
C381 C384 1.382 . S
C381 H409 0.930 . S
C382 C380 1.369 . S
C382 C384 1.392 . S
C382 H410 0.930 . S
C383 C379 1.373 . S
C383 C381 1.383 . S
C383 H411 0.931 . S
C384 C381 1.382 . S
C384 C382 1.392 . S
C385 Eu376 2.828 . S
C385 C379 1.505 . S
C385 O397 1.249 . S
C385 O398 1.244 . S
O386 Eu377 2.373 . S
O386 C388 1.258 . S
O387 Eu376 2.392 . S
O387 C388 1.242 . S
C388 O386 1.258 . S
C388 O387 1.242 . S
O389 Eu376 2.418 . S
O389 C393 1.244 . S
O390 Eu377 2.488 . S
O390 C406 1.249 . S
O391 Eu377 2.471 . S
O391 C406 1.244 . S
O392 Eu377 2.349 . S
O392 C393 1.265 . S
C393 O389 1.244 . S
C393 O392 1.265 . S
O394 Eu376 2.373 . S
O394 C407 1.258 . S
O395 Eu377 2.392 . S
O395 C407 1.242 . S
O396 Eu377 2.418 . S
O396 C378 1.244 . S
O397 Eu376 2.488 . S
O397 C385 1.249 . S
O398 Eu376 2.471 . S
O398 C385 1.244 . S
O399 Eu376 2.349 . S
O399 C378 1.265 . S
C400 C401 1.379 . S
C400 C404 1.373 . S
C400 C406 1.505 . S
C401 C400 1.379 . S
C401 C403 1.369 . S
C401 H412 0.930 . S
C402 C404 1.383 . S
C402 C405 1.382 . S
C402 H413 0.930 . S
C403 C401 1.369 . S
C403 C405 1.392 . S
C403 H414 0.930 . S
C404 C400 1.373 . S
C404 C402 1.383 . S
C404 H415 0.931 . S
C405 C402 1.382 . S
C405 C403 1.392 . S
C406 Eu377 2.828 . S
C406 O390 1.249 . S
C406 O391 1.244 . S
C406 C400 1.505 . S
C407 O394 1.258 . S
C407 O395 1.242 . S
H408 C380 0.930 . S
H409 C381 0.930 . S
H410 C382 0.930 . S
H411 C383 0.931 . S
H412 C401 0.930 . S
H413 C402 0.930 . S
H414 C403 0.930 . S
H415 C404 0.931 . S
Eu416 C425 2.828 . S
Eu416 O427 2.392 . S
Eu416 O429 2.418 . S
Eu416 O434 2.373 1_545 S
Eu416 O437 2.488 . S
Eu416 O438 2.471 . S
Eu416 O439 2.349 . S
Eu417 O426 2.373 . S
Eu417 O430 2.488 . S
Eu417 O431 2.471 . S
Eu417 O432 2.349 . S
Eu417 O435 2.392 1_545 S
Eu417 O436 2.418 . S
Eu417 C446 2.828 . S
C418 O436 1.244 . S
C418 O439 1.265 . S
C419 C420 1.379 . S
C419 C423 1.373 . S
C419 C425 1.505 1_565 S
C420 C419 1.379 . S
C420 C422 1.369 . S
C420 H448 0.930 . S
C421 C423 1.383 . S
C421 C424 1.382 . S
C421 H449 0.930 . S
C422 C420 1.369 . S
C422 C424 1.392 . S
C422 H450 0.930 . S
C423 C419 1.373 . S
C423 C421 1.383 . S
C423 H451 0.931 1_565 S
C424 C421 1.382 . S
C424 C422 1.392 . S
C425 Eu416 2.828 . S
C425 C419 1.505 1_545 S
C425 O437 1.249 . S
C425 O438 1.244 . S
O426 Eu417 2.373 . S
O426 C428 1.258 . S
O427 Eu416 2.392 . S
O427 C428 1.242 . S
C428 O426 1.258 . S
C428 O427 1.242 . S
O429 Eu416 2.418 . S
O429 C433 1.244 . S
O430 Eu417 2.488 . S
O430 C446 1.249 . S
O431 Eu417 2.471 . S
O431 C446 1.244 . S
O432 Eu417 2.349 . S
O432 C433 1.265 . S
C433 O429 1.244 . S
C433 O432 1.265 . S
O434 Eu416 2.373 1_565 S
O434 C447 1.258 . S
O435 Eu417 2.392 1_565 S
O435 C447 1.242 . S
O436 Eu417 2.418 . S
O436 C418 1.244 . S
O437 Eu416 2.488 . S
O437 C425 1.249 . S
O438 Eu416 2.471 . S
O438 C425 1.244 . S
O439 Eu416 2.349 . S
O439 C418 1.265 . S
C440 C441 1.379 . S
C440 C444 1.373 . S
C440 C446 1.505 . S
C441 C440 1.379 . S
C441 C443 1.369 . S
C441 H452 0.930 . S
C442 C444 1.383 . S
C442 C445 1.382 . S
C442 H453 0.930 . S
C443 C441 1.369 . S
C443 C445 1.392 . S
C443 H454 0.930 . S
C444 C440 1.373 . S
C444 C442 1.383 . S
C444 H455 0.931 . S
C445 C442 1.382 . S
C445 C443 1.392 . S
C446 Eu417 2.828 . S
C446 O430 1.249 . S
C446 O431 1.244 . S
C446 C440 1.505 . S
C447 O434 1.258 . S
C447 O435 1.242 . S
H448 C420 0.930 . S
H449 C421 0.930 . S
H450 C422 0.930 . S
H451 C423 0.931 1_545 S
H452 C441 0.930 . S
H453 C442 0.930 . S
H454 C443 0.930 . S
H455 C444 0.931 . S
Eu456 C465 2.828 . S
Eu456 O467 2.392 . S
Eu456 O469 2.418 . S
Eu456 O474 2.373 . S
Eu456 O477 2.488 . S
Eu456 O478 2.471 . S
Eu456 O479 2.349 . S
Eu457 O466 2.373 . S
Eu457 O470 2.488 . S
Eu457 O471 2.471 . S
Eu457 O472 2.349 . S
Eu457 O475 2.392 . S
Eu457 O476 2.418 . S
Eu457 C486 2.828 . S
C458 O476 1.244 . S
C458 O479 1.265 . S
C459 C460 1.379 . S
C459 C463 1.373 . S
C459 C465 1.505 . S
C460 C459 1.379 . S
C460 C462 1.369 . S
C460 H488 0.930 . S
C461 C463 1.383 . S
C461 C464 1.382 . S
C461 H489 0.930 . S
C462 C460 1.369 . S
C462 C464 1.392 . S
C462 H490 0.930 . S
C463 C459 1.373 . S
C463 C461 1.383 . S
C463 H491 0.931 . S
C464 C461 1.382 . S
C464 C462 1.392 . S
C465 Eu456 2.828 . S
C465 C459 1.505 . S
C465 O477 1.249 . S
C465 O478 1.244 . S
O466 Eu457 2.373 . S
O466 C468 1.258 . S
O467 Eu456 2.392 . S
O467 C468 1.242 . S
C468 O466 1.258 . S
C468 O467 1.242 . S
O469 Eu456 2.418 . S
O469 C473 1.244 . S
O470 Eu457 2.488 . S
O470 C486 1.249 . S
O471 Eu457 2.471 . S
O471 C486 1.244 . S
O472 Eu457 2.349 . S
O472 C473 1.265 . S
C473 O469 1.244 . S
C473 O472 1.265 . S
O474 Eu456 2.373 . S
O474 C487 1.258 . S
O475 Eu457 2.392 . S
O475 C487 1.242 . S
O476 Eu457 2.418 . S
O476 C458 1.244 . S
O477 Eu456 2.488 . S
O477 C465 1.249 . S
O478 Eu456 2.471 . S
O478 C465 1.244 . S
O479 Eu456 2.349 . S
O479 C458 1.265 . S
C480 C481 1.379 . S
C480 C484 1.373 . S
C480 C486 1.505 . S
C481 C480 1.379 . S
C481 C483 1.369 . S
C481 H492 0.930 . S
C482 C484 1.383 . S
C482 C485 1.382 . S
C482 H493 0.930 . S
C483 C481 1.369 . S
C483 C485 1.392 . S
C483 H494 0.930 . S
C484 C480 1.373 . S
C484 C482 1.383 . S
C484 H495 0.931 . S
C485 C482 1.382 . S
C485 C483 1.392 . S
C486 Eu457 2.828 . S
C486 O470 1.249 . S
C486 O471 1.244 . S
C486 C480 1.505 . S
C487 O474 1.258 . S
C487 O475 1.242 . S
H488 C460 0.930 . S
H489 C461 0.930 . S
H490 C462 0.930 . S
H491 C463 0.931 . S
H492 C481 0.930 . S
H493 C482 0.930 . S
H494 C483 0.930 . S
H495 C484 0.931 . S
Eu496 C505 2.828 . S
Eu496 O507 2.392 . S
Eu496 O509 2.418 . S
Eu496 O514 2.373 . S
Eu496 O517 2.488 . S
Eu496 O518 2.471 . S
Eu496 O519 2.349 . S
Eu497 O506 2.373 . S
Eu497 O510 2.488 1_545 S
Eu497 O511 2.471 1_545 S
Eu497 O512 2.349 . S
Eu497 O515 2.392 . S
Eu497 O516 2.418 . S
Eu497 C526 2.828 1_545 S
C498 O516 1.244 . S
C498 O519 1.265 . S
C499 C500 1.379 . S
C499 C503 1.373 . S
C499 C505 1.505 . S
C500 C499 1.379 . S
C500 C502 1.369 . S
C500 H528 0.930 . S
C501 C503 1.383 . S
C501 C504 1.382 . S
C501 H529 0.930 . S
C502 C500 1.369 . S
C502 C504 1.392 . S
C502 H530 0.930 . S
C503 C499 1.373 . S
C503 C501 1.383 . S
C503 H531 0.931 . S
C504 C501 1.382 . S
C504 C502 1.392 . S
C505 Eu496 2.828 . S
C505 C499 1.505 . S
C505 O517 1.249 . S
C505 O518 1.244 . S
O506 Eu497 2.373 . S
O506 C508 1.258 . S
O507 Eu496 2.392 . S
O507 C508 1.242 . S
C508 O506 1.258 . S
C508 O507 1.242 . S
O509 Eu496 2.418 . S
O509 C513 1.244 . S
O510 Eu497 2.488 1_565 S
O510 C526 1.249 . S
O511 Eu497 2.471 1_565 S
O511 C526 1.244 . S
O512 Eu497 2.349 . S
O512 C513 1.265 . S
C513 O509 1.244 . S
C513 O512 1.265 . S
O514 Eu496 2.373 . S
O514 C527 1.258 . S
O515 Eu497 2.392 . S
O515 C527 1.242 . S
O516 Eu497 2.418 . S
O516 C498 1.244 . S
O517 Eu496 2.488 . S
O517 C505 1.249 . S
O518 Eu496 2.471 . S
O518 C505 1.244 . S
O519 Eu496 2.349 . S
O519 C498 1.265 . S
C520 C521 1.379 . S
C520 C524 1.373 . S
C520 C526 1.505 . S
C521 C520 1.379 . S
C521 C523 1.369 . S
C521 H532 0.930 . S
C522 C524 1.383 . S
C522 C525 1.382 . S
C522 H533 0.930 . S
C523 C521 1.369 . S
C523 C525 1.392 . S
C523 H534 0.930 . S
C524 C520 1.373 . S
C524 C522 1.383 . S
C524 H535 0.931 . S
C525 C522 1.382 . S
C525 C523 1.392 . S
C526 Eu497 2.828 1_565 S
C526 O510 1.249 . S
C526 O511 1.244 . S
C526 C520 1.505 . S
C527 O514 1.258 . S
C527 O515 1.242 . S
H528 C500 0.930 . S
H529 C501 0.930 . S
H530 C502 0.930 . S
H531 C503 0.931 . S
H532 C521 0.930 . S
H533 C522 0.930 . S
H534 C523 0.930 . S
H535 C524 0.931 . S
Eu536 C545 2.828 . S
Eu536 O547 2.392 . S
Eu536 O549 2.418 . S
Eu536 O554 2.373 . S
Eu536 O557 2.488 . S
Eu536 O558 2.471 . S
Eu536 O559 2.349 . S
Eu537 O546 2.373 . S
Eu537 O550 2.488 . S
Eu537 O551 2.471 . S
Eu537 O552 2.349 . S
Eu537 O555 2.392 . S
Eu537 O556 2.418 . S
Eu537 C566 2.828 . S
C538 O556 1.244 . S
C538 O559 1.265 . S
C539 C540 1.379 . S
C539 C543 1.373 . S
C539 C545 1.505 . S
C540 C539 1.379 . S
C540 C542 1.369 . S
C540 H568 0.930 . S
C541 C543 1.383 . S
C541 C544 1.382 . S
C541 H569 0.930 . S
C542 C540 1.369 . S
C542 C544 1.392 . S
C542 H570 0.930 . S
C543 C539 1.373 . S
C543 C541 1.383 . S
C543 H571 0.931 . S
C544 C541 1.382 . S
C544 C542 1.392 . S
C545 Eu536 2.828 . S
C545 C539 1.505 . S
C545 O557 1.249 . S
C545 O558 1.244 . S
O546 Eu537 2.373 . S
O546 C548 1.258 . S
O547 Eu536 2.392 . S
O547 C548 1.242 . S
C548 O546 1.258 . S
C548 O547 1.242 . S
O549 Eu536 2.418 . S
O549 C553 1.244 . S
O550 Eu537 2.488 . S
O550 C566 1.249 . S
O551 Eu537 2.471 . S
O551 C566 1.244 . S
O552 Eu537 2.349 . S
O552 C553 1.265 . S
C553 O549 1.244 . S
C553 O552 1.265 . S
O554 Eu536 2.373 . S
O554 C567 1.258 . S
O555 Eu537 2.392 . S
O555 C567 1.242 . S
O556 Eu537 2.418 . S
O556 C538 1.244 . S
O557 Eu536 2.488 . S
O557 C545 1.249 . S
O558 Eu536 2.471 . S
O558 C545 1.244 . S
O559 Eu536 2.349 . S
O559 C538 1.265 . S
C560 C561 1.379 . S
C560 C564 1.373 . S
C560 C566 1.505 . S
C561 C560 1.379 . S
C561 C563 1.369 . S
C561 H572 0.930 . S
C562 C564 1.383 . S
C562 C565 1.382 . S
C562 H573 0.930 . S
C563 C561 1.369 . S
C563 C565 1.392 . S
C563 H574 0.930 . S
C564 C560 1.373 . S
C564 C562 1.383 . S
C564 H575 0.931 . S
C565 C562 1.382 . S
C565 C563 1.392 . S
C566 Eu537 2.828 . S
C566 O550 1.249 . S
C566 O551 1.244 . S
C566 C560 1.505 . S
C567 O554 1.258 . S
C567 O555 1.242 . S
H568 C540 0.930 . S
H569 C541 0.930 . S
H570 C542 0.930 . S
H571 C543 0.931 . S
H572 C561 0.930 . S
H573 C562 0.930 . S
H574 C563 0.930 . S
H575 C564 0.931 . S
Eu576 C585 2.828 . S
Eu576 O587 2.392 . S
Eu576 O589 2.418 1_545 S
Eu576 O594 2.373 . S
Eu576 O597 2.488 . S
Eu576 O598 2.471 . S
Eu576 O599 2.349 . S
Eu577 O586 2.373 1_556 S
Eu577 O590 2.488 . S
Eu577 O591 2.471 . S
Eu577 O592 2.349 1_556 S
Eu577 O595 2.392 1_556 S
Eu577 O596 2.418 1_556 S
Eu577 C606 2.828 . S
C578 O596 1.244 . S
C578 O599 1.265 . S
C579 C580 1.379 . S
C579 C583 1.373 1_545 S
C579 C585 1.505 . S
C580 C579 1.379 . S
C580 C582 1.369 . S
C580 H608 0.930 . S
C581 C583 1.383 . S
C581 C584 1.382 1_565 S
C581 H609 0.930 . S
C582 C580 1.369 . S
C582 C584 1.392 . S
C582 H610 0.930 . S
C583 C579 1.373 1_565 S
C583 C581 1.383 . S
C583 H611 0.931 . S
C584 C581 1.382 1_545 S
C584 C582 1.392 . S
C585 Eu576 2.828 . S
C585 C579 1.505 . S
C585 O597 1.249 . S
C585 O598 1.244 . S
O586 Eu577 2.373 1_554 S
O586 C588 1.258 . S
O587 Eu576 2.392 . S
O587 C588 1.242 . S
C588 O586 1.258 . S
C588 O587 1.242 . S
O589 Eu576 2.418 1_565 S
O589 C593 1.244 . S
O590 Eu577 2.488 . S
O590 C606 1.249 . S
O591 Eu577 2.471 . S
O591 C606 1.244 . S
O592 Eu577 2.349 1_554 S
O592 C593 1.265 1_545 S
C593 O589 1.244 . S
C593 O592 1.265 1_565 S
O594 Eu576 2.373 . S
O594 C607 1.258 . S
O595 Eu577 2.392 1_554 S
O595 C607 1.242 . S
O596 Eu577 2.418 1_554 S
O596 C578 1.244 . S
O597 Eu576 2.488 . S
O597 C585 1.249 . S
O598 Eu576 2.471 . S
O598 C585 1.244 . S
O599 Eu576 2.349 . S
O599 C578 1.265 . S
C600 C601 1.379 . S
C600 C604 1.373 . S
C600 C606 1.505 . S
C601 C600 1.379 . S
C601 C603 1.369 . S
C601 H612 0.930 . S
C602 C604 1.383 . S
C602 C605 1.382 . S
C602 H613 0.930 . S
C603 C601 1.369 . S
C603 C605 1.392 . S
C603 H614 0.930 . S
C604 C600 1.373 . S
C604 C602 1.383 . S
C604 H615 0.931 . S
C605 C602 1.382 . S
C605 C603 1.392 . S
C606 Eu577 2.828 . S
C606 O590 1.249 . S
C606 O591 1.244 . S
C606 C600 1.505 . S
C607 O594 1.258 . S
C607 O595 1.242 . S
H608 C580 0.930 . S
H609 C581 0.930 . S
H610 C582 0.930 . S
H611 C583 0.931 . S
H612 C601 0.930 . S
H613 C602 0.930 . S
H614 C603 0.930 . S
H615 C604 0.931 . S
Eu616 C625 2.828 . S
Eu616 O627 2.392 . S
Eu616 O629 2.418 . S
Eu616 O634 2.373 . S
Eu616 O637 2.488 . S
Eu616 O638 2.471 . S
Eu616 O639 2.349 . S
Eu617 O626 2.373 . S
Eu617 O630 2.488 . S
Eu617 O631 2.471 . S
Eu617 O632 2.349 . S
Eu617 O635 2.392 . S
Eu617 O636 2.418 . S
Eu617 C646 2.828 . S
C618 O636 1.244 . S
C618 O639 1.265 . S
C619 C620 1.379 . S
C619 C623 1.373 . S
C619 C625 1.505 . S
C620 C619 1.379 . S
C620 C622 1.369 . S
C620 H648 0.930 . S
C621 C623 1.383 . S
C621 C624 1.382 . S
C621 H649 0.930 . S
C622 C620 1.369 . S
C622 C624 1.392 . S
C622 H650 0.930 . S
C623 C619 1.373 . S
C623 C621 1.383 . S
C623 H651 0.931 . S
C624 C621 1.382 . S
C624 C622 1.392 . S
C625 Eu616 2.828 . S
C625 C619 1.505 . S
C625 O637 1.249 . S
C625 O638 1.244 . S
O626 Eu617 2.373 . S
O626 C628 1.258 . S
O627 Eu616 2.392 . S
O627 C628 1.242 . S
C628 O626 1.258 . S
C628 O627 1.242 . S
O629 Eu616 2.418 . S
O629 C633 1.244 . S
O630 Eu617 2.488 . S
O630 C646 1.249 . S
O631 Eu617 2.471 . S
O631 C646 1.244 . S
O632 Eu617 2.349 . S
O632 C633 1.265 . S
C633 O629 1.244 . S
C633 O632 1.265 . S
O634 Eu616 2.373 . S
O634 C647 1.258 . S
O635 Eu617 2.392 . S
O635 C647 1.242 . S
O636 Eu617 2.418 . S
O636 C618 1.244 . S
O637 Eu616 2.488 . S
O637 C625 1.249 . S
O638 Eu616 2.471 . S
O638 C625 1.244 . S
O639 Eu616 2.349 . S
O639 C618 1.265 . S
C640 C641 1.379 . S
C640 C644 1.373 . S
C640 C646 1.505 . S
C641 C640 1.379 . S
C641 C643 1.369 . S
C641 H652 0.930 . S
C642 C644 1.383 . S
C642 C645 1.382 . S
C642 H653 0.930 . S
C643 C641 1.369 . S
C643 C645 1.392 . S
C643 H654 0.930 . S
C644 C640 1.373 . S
C644 C642 1.383 . S
C644 H655 0.931 . S
C645 C642 1.382 . S
C645 C643 1.392 . S
C646 Eu617 2.828 . S
C646 O630 1.249 . S
C646 O631 1.244 . S
C646 C640 1.505 . S
C647 O634 1.258 . S
C647 O635 1.242 . S
H648 C620 0.930 . S
H649 C621 0.930 . S
H650 C622 0.930 . S
H651 C623 0.931 . S
H652 C641 0.930 . S
H653 C642 0.930 . S
H654 C643 0.930 . S
H655 C644 0.931 . S
Eu656 C665 2.828 . S
Eu656 O667 2.392 . S
Eu656 O669 2.418 . S
Eu656 O674 2.373 1_554 S
Eu656 O677 2.488 . S
Eu656 O678 2.471 . S
Eu656 O679 2.349 . S
Eu657 O666 2.373 . S
Eu657 O670 2.488 . S
Eu657 O671 2.471 . S
Eu657 O672 2.349 . S
Eu657 O675 2.392 1_554 S
Eu657 O676 2.418 . S
Eu657 C686 2.828 . S
C658 O676 1.244 . S
C658 O679 1.265 . S
C659 C660 1.379 1_554 S
C659 C663 1.373 . S
C659 C665 1.505 . S
C660 C659 1.379 1_556 S
C660 C662 1.369 . S
C660 H688 0.930 . S
C661 C663 1.383 1_556 S
C661 C664 1.382 . S
C661 H689 0.928 1_556 S
C662 C660 1.369 . S
C662 C664 1.392 . S
C662 H690 0.930 . S
C663 C659 1.373 . S
C663 C661 1.383 1_554 S
C663 H691 0.931 . S
C664 C661 1.382 . S
C664 C662 1.392 . S
C665 Eu656 2.828 . S
C665 C659 1.505 . S
C665 O677 1.249 . S
C665 O678 1.244 . S
O666 Eu657 2.373 . S
O666 C668 1.258 . S
O667 Eu656 2.392 . S
O667 C668 1.242 . S
C668 O666 1.258 . S
C668 O667 1.242 . S
O669 Eu656 2.418 . S
O669 C673 1.244 . S
O670 Eu657 2.488 . S
O670 C686 1.249 . S
O671 Eu657 2.471 . S
O671 C686 1.244 . S
O672 Eu657 2.349 . S
O672 C673 1.265 . S
C673 O669 1.244 . S
C673 O672 1.265 . S
O674 Eu656 2.373 1_556 S
O674 C687 1.258 . S
O675 Eu657 2.392 1_556 S
O675 C687 1.242 . S
O676 Eu657 2.418 . S
O676 C658 1.244 . S
O677 Eu656 2.488 . S
O677 C665 1.249 . S
O678 Eu656 2.471 . S
O678 C665 1.244 . S
O679 Eu656 2.349 . S
O679 C658 1.265 . S
C680 C681 1.379 . S
C680 C684 1.373 . S
C680 C686 1.505 . S
C681 C680 1.379 . S
C681 C683 1.369 . S
C681 H692 0.930 . S
C682 C684 1.383 . S
C682 C685 1.382 . S
C682 H693 0.930 . S
C683 C681 1.369 . S
C683 C685 1.392 . S
C683 H694 0.930 . S
C684 C680 1.373 . S
C684 C682 1.383 . S
C684 H695 0.931 . S
C685 C682 1.382 . S
C685 C683 1.392 . S
C686 Eu657 2.828 . S
C686 O670 1.249 . S
C686 O671 1.244 . S
C686 C680 1.505 . S
C687 O674 1.258 . S
C687 O675 1.242 . S
H688 C660 0.930 . S
H689 C661 0.928 1_554 S
H690 C662 0.930 . S
H691 C663 0.931 . S
H692 C681 0.930 . S
H693 C682 0.930 . S
H694 C683 0.930 . S
H695 C684 0.931 . S
Eu696 C705 2.828 . S
Eu696 O707 2.392 . S
Eu696 O709 2.418 . S
Eu696 O714 2.373 . S
Eu696 O717 2.488 . S
Eu696 O718 2.471 . S
Eu696 O719 2.349 . S
Eu697 O706 2.373 . S
Eu697 O710 2.488 . S
Eu697 O711 2.471 . S
Eu697 O712 2.349 . S
Eu697 O715 2.392 . S
Eu697 O716 2.418 . S
Eu697 C726 2.828 . S
C698 O716 1.244 . S
C698 O719 1.265 . S
C699 C700 1.379 . S
C699 C703 1.373 . S
C699 C705 1.505 . S
C700 C699 1.379 . S
C700 C702 1.369 . S
C700 H728 0.930 . S
C701 C703 1.383 . S
C701 C704 1.382 . S
C701 H729 0.930 . S
C702 C700 1.369 . S
C702 C704 1.392 . S
C702 H730 0.930 . S
C703 C699 1.373 . S
C703 C701 1.383 . S
C703 H731 0.931 . S
C704 C701 1.382 . S
C704 C702 1.392 . S
C705 Eu696 2.828 . S
C705 C699 1.505 . S
C705 O717 1.249 . S
C705 O718 1.244 . S
O706 Eu697 2.373 . S
O706 C708 1.258 . S
O707 Eu696 2.392 . S
O707 C708 1.242 . S
C708 O706 1.258 . S
C708 O707 1.242 . S
O709 Eu696 2.418 . S
O709 C713 1.244 . S
O710 Eu697 2.488 . S
O710 C726 1.249 . S
O711 Eu697 2.471 . S
O711 C726 1.244 . S
O712 Eu697 2.349 . S
O712 C713 1.265 . S
C713 O709 1.244 . S
C713 O712 1.265 . S
O714 Eu696 2.373 . S
O714 C727 1.258 . S
O715 Eu697 2.392 . S
O715 C727 1.242 . S
O716 Eu697 2.418 . S
O716 C698 1.244 . S
O717 Eu696 2.488 . S
O717 C705 1.249 . S
O718 Eu696 2.471 . S
O718 C705 1.244 . S
O719 Eu696 2.349 . S
O719 C698 1.265 . S
C720 C721 1.379 . S
C720 C724 1.373 . S
C720 C726 1.505 . S
C721 C720 1.379 . S
C721 C723 1.369 . S
C721 H732 0.930 . S
C722 C724 1.383 . S
C722 C725 1.382 . S
C722 H733 0.930 . S
C723 C721 1.369 . S
C723 C725 1.392 . S
C723 H734 0.930 . S
C724 C720 1.373 . S
C724 C722 1.383 . S
C724 H735 0.931 . S
C725 C722 1.382 . S
C725 C723 1.392 . S
C726 Eu697 2.828 . S
C726 O710 1.249 . S
C726 O711 1.244 . S
C726 C720 1.505 . S
C727 O714 1.258 . S
C727 O715 1.242 . S
H728 C700 0.930 . S
H729 C701 0.930 . S
H730 C702 0.930 . S
H731 C703 0.931 . S
H732 C721 0.930 . S
H733 C722 0.930 . S
H734 C723 0.930 . S
H735 C724 0.931 . S
Eu736 C745 2.828 . S
Eu736 O747 2.392 . S
Eu736 O749 2.418 . S
Eu736 O754 2.373 . S
Eu736 O757 2.488 . S
Eu736 O758 2.471 . S
Eu736 O759 2.349 . S
Eu737 O746 2.373 . S
Eu737 O750 2.488 . S
Eu737 O751 2.471 . S
Eu737 O752 2.349 . S
Eu737 O755 2.392 . S
Eu737 O756 2.418 . S
Eu737 C766 2.828 . S
C738 O756 1.244 . S
C738 O759 1.265 . S
C739 C740 1.379 . S
C739 C743 1.373 . S
C739 C745 1.505 . S
C740 C739 1.379 . S
C740 C742 1.369 1_455 S
C740 H768 0.930 . S
C741 C743 1.383 . S
C741 C744 1.382 1_455 S
C741 H769 0.930 . S
C742 C740 1.369 1_655 S
C742 C744 1.392 . S
C742 H770 0.930 . S
C743 C739 1.373 . S
C743 C741 1.383 . S
C743 H771 0.931 . S
C744 C741 1.382 1_655 S
C744 C742 1.392 . S
C745 Eu736 2.828 . S
C745 C739 1.505 . S
C745 O757 1.249 . S
C745 O758 1.244 . S
O746 Eu737 2.373 . S
O746 C748 1.258 . S
O747 Eu736 2.392 . S
O747 C748 1.242 . S
C748 O746 1.258 . S
C748 O747 1.242 . S
O749 Eu736 2.418 . S
O749 C753 1.244 . S
O750 Eu737 2.488 . S
O750 C766 1.249 . S
O751 Eu737 2.471 . S
O751 C766 1.244 . S
O752 Eu737 2.349 . S
O752 C753 1.265 . S
C753 O749 1.244 . S
C753 O752 1.265 . S
O754 Eu736 2.373 . S
O754 C767 1.258 . S
O755 Eu737 2.392 . S
O755 C767 1.242 . S
O756 Eu737 2.418 . S
O756 C738 1.244 . S
O757 Eu736 2.488 . S
O757 C745 1.249 . S
O758 Eu736 2.471 . S
O758 C745 1.244 . S
O759 Eu736 2.349 . S
O759 C738 1.265 . S
C760 C761 1.379 . S
C760 C764 1.373 . S
C760 C766 1.505 . S
C761 C760 1.379 . S
C761 C763 1.369 . S
C761 H772 0.930 . S
C762 C764 1.383 . S
C762 C765 1.382 . S
C762 H773 0.930 . S
C763 C761 1.369 . S
C763 C765 1.392 . S
C763 H774 0.930 . S
C764 C760 1.373 . S
C764 C762 1.383 . S
C764 H775 0.931 . S
C765 C762 1.382 . S
C765 C763 1.392 . S
C766 Eu737 2.828 . S
C766 O750 1.249 . S
C766 O751 1.244 . S
C766 C760 1.505 . S
C767 O754 1.258 . S
C767 O755 1.242 . S
H768 C740 0.930 . S
H769 C741 0.930 . S
H770 C742 0.930 . S
H771 C743 0.931 . S
H772 C761 0.930 . S
H773 C762 0.930 . S
H774 C763 0.930 . S
H775 C764 0.931 . S
Eu776 C785 2.828 . S
Eu776 O787 2.392 . S
Eu776 O789 2.418 . S
Eu776 O794 2.373 . S
Eu776 O797 2.488 . S
Eu776 O798 2.471 . S
Eu776 O799 2.349 . S
Eu777 O786 2.373 . S
Eu777 O790 2.488 . S
Eu777 O791 2.471 . S
Eu777 O792 2.349 . S
Eu777 O795 2.392 . S
Eu777 O796 2.418 . S
Eu777 C806 2.828 . S
C778 O796 1.244 . S
C778 O799 1.265 . S
C779 C780 1.379 . S
C779 C783 1.373 . S
C779 C785 1.505 . S
C780 C779 1.379 . S
C780 C782 1.369 . S
C780 H808 0.930 . S
C781 C783 1.383 . S
C781 C784 1.382 . S
C781 H809 0.930 . S
C782 C780 1.369 . S
C782 C784 1.392 . S
C782 H810 0.930 . S
C783 C779 1.373 . S
C783 C781 1.383 . S
C783 H811 0.931 . S
C784 C781 1.382 . S
C784 C782 1.392 . S
C785 Eu776 2.828 . S
C785 C779 1.505 . S
C785 O797 1.249 . S
C785 O798 1.244 . S
O786 Eu777 2.373 . S
O786 C788 1.258 . S
O787 Eu776 2.392 . S
O787 C788 1.242 . S
C788 O786 1.258 . S
C788 O787 1.242 . S
O789 Eu776 2.418 . S
O789 C793 1.244 . S
O790 Eu777 2.488 . S
O790 C806 1.249 . S
O791 Eu777 2.471 . S
O791 C806 1.244 . S
O792 Eu777 2.349 . S
O792 C793 1.265 . S
C793 O789 1.244 . S
C793 O792 1.265 . S
O794 Eu776 2.373 . S
O794 C807 1.258 . S
O795 Eu777 2.392 . S
O795 C807 1.242 . S
O796 Eu777 2.418 . S
O796 C778 1.244 . S
O797 Eu776 2.488 . S
O797 C785 1.249 . S
O798 Eu776 2.471 . S
O798 C785 1.244 . S
O799 Eu776 2.349 . S
O799 C778 1.265 . S
C800 C801 1.379 . S
C800 C804 1.373 . S
C800 C806 1.505 . S
C801 C800 1.379 . S
C801 C803 1.369 . S
C801 H812 0.930 . S
C802 C804 1.383 . S
C802 C805 1.382 . S
C802 H813 0.930 . S
C803 C801 1.369 . S
C803 C805 1.392 . S
C803 H814 0.930 . S
C804 C800 1.373 . S
C804 C802 1.383 . S
C804 H815 0.931 . S
C805 C802 1.382 . S
C805 C803 1.392 . S
C806 Eu777 2.828 . S
C806 O790 1.249 . S
C806 O791 1.244 . S
C806 C800 1.505 . S
C807 O794 1.258 . S
C807 O795 1.242 . S
H808 C780 0.930 . S
H809 C781 0.930 . S
H810 C782 0.930 . S
H811 C783 0.931 . S
H812 C801 0.930 . S
H813 C802 0.930 . S
H814 C803 0.930 . S
H815 C804 0.931 . S
Eu816 C825 2.828 . S
Eu816 O827 2.392 . S
Eu816 O829 2.418 . S
Eu816 O834 2.373 . S
Eu816 O837 2.488 . S
Eu816 O838 2.471 . S
Eu816 O839 2.349 . S
Eu817 O826 2.373 . S
Eu817 O830 2.488 . S
Eu817 O831 2.471 . S
Eu817 O832 2.349 . S
Eu817 O835 2.392 . S
Eu817 O836 2.418 . S
Eu817 C846 2.828 . S
C818 O836 1.244 . S
C818 O839 1.265 . S
C819 C820 1.379 . S
C819 C823 1.373 . S
C819 C825 1.505 . S
C820 C819 1.379 . S
C820 C822 1.369 . S
C820 H848 0.930 . S
C821 C823 1.383 . S
C821 C824 1.382 . S
C821 H849 0.930 . S
C822 C820 1.369 . S
C822 C824 1.392 . S
C822 H850 0.930 . S
C823 C819 1.373 . S
C823 C821 1.383 . S
C823 H851 0.931 . S
C824 C821 1.382 . S
C824 C822 1.392 . S
C825 Eu816 2.828 . S
C825 C819 1.505 . S
C825 O837 1.249 . S
C825 O838 1.244 . S
O826 Eu817 2.373 . S
O826 C828 1.258 . S
O827 Eu816 2.392 . S
O827 C828 1.242 . S
C828 O826 1.258 . S
C828 O827 1.242 . S
O829 Eu816 2.418 . S
O829 C833 1.244 . S
O830 Eu817 2.488 . S
O830 C846 1.249 . S
O831 Eu817 2.471 . S
O831 C846 1.244 . S
O832 Eu817 2.349 . S
O832 C833 1.265 . S
C833 O829 1.244 . S
C833 O832 1.265 . S
O834 Eu816 2.373 . S
O834 C847 1.258 . S
O835 Eu817 2.392 . S
O835 C847 1.242 . S
O836 Eu817 2.418 . S
O836 C818 1.244 . S
O837 Eu816 2.488 . S
O837 C825 1.249 . S
O838 Eu816 2.471 . S
O838 C825 1.244 . S
O839 Eu816 2.349 . S
O839 C818 1.265 . S
C840 C841 1.379 . S
C840 C844 1.373 . S
C840 C846 1.505 . S
C841 C840 1.379 . S
C841 C843 1.369 . S
C841 H852 0.930 . S
C842 C844 1.383 . S
C842 C845 1.382 . S
C842 H853 0.930 . S
C843 C841 1.369 . S
C843 C845 1.392 . S
C843 H854 0.930 . S
C844 C840 1.373 . S
C844 C842 1.383 . S
C844 H855 0.931 . S
C845 C842 1.382 . S
C845 C843 1.392 . S
C846 Eu817 2.828 . S
C846 O830 1.249 . S
C846 O831 1.244 . S
C846 C840 1.505 . S
C847 O834 1.258 . S
C847 O835 1.242 . S
H848 C820 0.930 . S
H849 C821 0.930 . S
H850 C822 0.930 . S
H851 C823 0.931 . S
H852 C841 0.930 . S
H853 C842 0.930 . S
H854 C843 0.930 . S
H855 C844 0.931 . S
Eu856 C865 2.828 . S
Eu856 O867 2.392 . S
Eu856 O869 2.418 . S
Eu856 O874 2.373 . S
Eu856 O877 2.488 . S
Eu856 O878 2.471 . S
Eu856 O879 2.349 . S
Eu857 O866 2.373 . S
Eu857 O870 2.488 . S
Eu857 O871 2.471 . S
Eu857 O872 2.349 . S
Eu857 O875 2.392 . S
Eu857 O876 2.418 . S
Eu857 C886 2.828 . S
C858 O876 1.244 . S
C858 O879 1.265 . S
C859 C860 1.379 . S
C859 C863 1.373 . S
C859 C865 1.505 . S
C860 C859 1.379 . S
C860 C862 1.369 . S
C860 H888 0.930 . S
C861 C863 1.383 . S
C861 C864 1.382 . S
C861 H889 0.930 . S
C862 C860 1.369 . S
C862 C864 1.392 . S
C862 H890 0.930 . S
C863 C859 1.373 . S
C863 C861 1.383 . S
C863 H891 0.931 . S
C864 C861 1.382 . S
C864 C862 1.392 . S
C865 Eu856 2.828 . S
C865 C859 1.505 . S
C865 O877 1.249 . S
C865 O878 1.244 . S
O866 Eu857 2.373 . S
O866 C868 1.258 . S
O867 Eu856 2.392 . S
O867 C868 1.242 . S
C868 O866 1.258 . S
C868 O867 1.242 . S
O869 Eu856 2.418 . S
O869 C873 1.244 . S
O870 Eu857 2.488 . S
O870 C886 1.249 . S
O871 Eu857 2.471 . S
O871 C886 1.244 . S
O872 Eu857 2.349 . S
O872 C873 1.265 . S
C873 O869 1.244 . S
C873 O872 1.265 . S
O874 Eu856 2.373 . S
O874 C887 1.258 . S
O875 Eu857 2.392 . S
O875 C887 1.242 . S
O876 Eu857 2.418 . S
O876 C858 1.244 . S
O877 Eu856 2.488 . S
O877 C865 1.249 . S
O878 Eu856 2.471 . S
O878 C865 1.244 . S
O879 Eu856 2.349 . S
O879 C858 1.265 . S
C880 C881 1.379 . S
C880 C884 1.373 . S
C880 C886 1.505 . S
C881 C880 1.379 . S
C881 C883 1.369 . S
C881 H892 0.930 . S
C882 C884 1.383 . S
C882 C885 1.382 . S
C882 H893 0.930 . S
C883 C881 1.369 . S
C883 C885 1.392 . S
C883 H894 0.930 . S
C884 C880 1.373 . S
C884 C882 1.383 . S
C884 H895 0.931 . S
C885 C882 1.382 . S
C885 C883 1.392 . S
C886 Eu857 2.828 . S
C886 O870 1.249 . S
C886 O871 1.244 . S
C886 C880 1.505 . S
C887 O874 1.258 . S
C887 O875 1.242 . S
H888 C860 0.930 . S
H889 C861 0.930 . S
H890 C862 0.930 . S
H891 C863 0.931 . S
H892 C881 0.930 . S
H893 C882 0.930 . S
H894 C883 0.930 . S
H895 C884 0.931 . S
Eu896 C905 2.828 . S
Eu896 O907 2.392 . S
Eu896 O909 2.418 . S
Eu896 O914 2.373 . S
Eu896 O917 2.488 . S
Eu896 O918 2.471 . S
Eu896 O919 2.349 . S
Eu897 O906 2.373 . S
Eu897 O910 2.488 . S
Eu897 O911 2.471 . S
Eu897 O912 2.349 . S
Eu897 O915 2.392 . S
Eu897 O916 2.418 . S
Eu897 C926 2.828 . S
C898 O916 1.244 . S
C898 O919 1.265 . S
C899 C900 1.379 . S
C899 C903 1.373 . S
C899 C905 1.505 . S
C900 C899 1.379 . S
C900 C902 1.369 . S
C900 H928 0.930 . S
C901 C903 1.383 . S
C901 C904 1.382 . S
C901 H929 0.930 . S
C902 C900 1.369 . S
C902 C904 1.392 . S
C902 H930 0.930 . S
C903 C899 1.373 . S
C903 C901 1.383 . S
C903 H931 0.931 . S
C904 C901 1.382 . S
C904 C902 1.392 . S
C905 Eu896 2.828 . S
C905 C899 1.505 . S
C905 O917 1.249 . S
C905 O918 1.244 . S
O906 Eu897 2.373 . S
O906 C908 1.258 . S
O907 Eu896 2.392 . S
O907 C908 1.242 . S
C908 O906 1.258 . S
C908 O907 1.242 . S
O909 Eu896 2.418 . S
O909 C913 1.244 . S
O910 Eu897 2.488 . S
O910 C926 1.249 . S
O911 Eu897 2.471 . S
O911 C926 1.244 . S
O912 Eu897 2.349 . S
O912 C913 1.265 . S
C913 O909 1.244 . S
C913 O912 1.265 . S
O914 Eu896 2.373 . S
O914 C927 1.258 . S
O915 Eu897 2.392 . S
O915 C927 1.242 . S
O916 Eu897 2.418 . S
O916 C898 1.244 . S
O917 Eu896 2.488 . S
O917 C905 1.249 . S
O918 Eu896 2.471 . S
O918 C905 1.244 . S
O919 Eu896 2.349 . S
O919 C898 1.265 . S
C920 C921 1.379 . S
C920 C924 1.373 . S
C920 C926 1.505 . S
C921 C920 1.379 . S
C921 C923 1.369 . S
C921 H932 0.930 . S
C922 C924 1.383 . S
C922 C925 1.382 . S
C922 H933 0.930 . S
C923 C921 1.369 . S
C923 C925 1.392 . S
C923 H934 0.930 . S
C924 C920 1.373 . S
C924 C922 1.383 . S
C924 H935 0.931 . S
C925 C922 1.382 . S
C925 C923 1.392 . S
C926 Eu897 2.828 . S
C926 O910 1.249 . S
C926 O911 1.244 . S
C926 C920 1.505 . S
C927 O914 1.258 . S
C927 O915 1.242 . S
H928 C900 0.930 . S
H929 C901 0.930 . S
H930 C902 0.930 . S
H931 C903 0.931 . S
H932 C921 0.930 . S
H933 C922 0.930 . S
H934 C923 0.930 . S
H935 C924 0.931 . S
Eu936 C945 2.828 . S
Eu936 O947 2.392 . S
Eu936 O949 2.418 1_554 S
Eu936 O954 2.373 . S
Eu936 O957 2.488 . S
Eu936 O958 2.471 . S
Eu936 O959 2.349 . S
Eu937 O946 2.373 . S
Eu937 O950 2.488 1_455 S
Eu937 O951 2.471 1_455 S
Eu937 O952 2.349 . S
Eu937 O955 2.392 . S
Eu937 O956 2.418 . S
Eu937 C966 2.828 1_455 S
C938 O956 1.244 . S
C938 O959 1.265 . S
C939 C940 1.379 . S
C939 C943 1.370 . S
C939 C945 1.505 . S
C940 C939 1.379 . S
C940 C942 1.369 . S
C940 H968 0.930 . S
C941 C943 1.384 1_556 S
C941 C944 1.382 1_556 S
C941 H969 0.930 . S
C942 C940 1.369 . S
C942 C944 1.392 . S
C942 H970 0.930 . S
C943 C939 1.370 . S
C943 C941 1.384 1_554 S
C943 H971 0.933 1_554 S
C944 C941 1.382 1_554 S
C944 C942 1.392 . S
C945 Eu936 2.828 . S
C945 C939 1.505 . S
C945 O957 1.249 . S
C945 O958 1.244 . S
O946 Eu937 2.373 . S
O946 C948 1.258 . S
O947 Eu936 2.392 . S
O947 C948 1.242 . S
C948 O946 1.258 . S
C948 O947 1.242 . S
O949 Eu936 2.418 1_556 S
O949 C953 1.253 . S
O950 Eu937 2.488 1_655 S
O950 C966 1.249 . S
O951 Eu937 2.471 1_655 S
O951 C966 1.244 . S
O952 Eu937 2.349 . S
O952 C953 1.232 1_554 S
C953 O949 1.253 . S
C953 O952 1.232 1_556 S
O954 Eu936 2.373 . S
O954 C967 1.258 . S
O955 Eu937 2.392 . S
O955 C967 1.242 . S
O956 Eu937 2.418 . S
O956 C938 1.244 . S
O957 Eu936 2.488 . S
O957 C945 1.249 . S
O958 Eu936 2.471 . S
O958 C945 1.244 . S
O959 Eu936 2.349 . S
O959 C938 1.265 . S
C960 C961 1.379 . S
C960 C964 1.373 . S
C960 C966 1.505 . S
C961 C960 1.379 . S
C961 C963 1.369 . S
C961 H972 0.930 . S
C962 C964 1.383 . S
C962 C965 1.382 . S
C962 H973 0.930 . S
C963 C961 1.369 . S
C963 C965 1.392 . S
C963 H974 0.930 . S
C964 C960 1.373 . S
C964 C962 1.383 . S
C964 H975 0.931 . S
C965 C962 1.382 . S
C965 C963 1.392 . S
C966 Eu937 2.828 1_655 S
C966 O950 1.249 . S
C966 O951 1.244 . S
C966 C960 1.505 . S
C967 O954 1.258 . S
C967 O955 1.242 . S
H968 C940 0.930 . S
H969 C941 0.930 . S
H970 C942 0.930 . S
H971 C943 0.933 1_556 S
H972 C961 0.930 . S
H973 C962 0.930 . S
H974 C963 0.930 . S
H975 C964 0.931 . S
H976 C988 0.930 . S
H977 C990 0.930 . S
H978 C991 0.930 . S
H979 C995 0.959 . S
H980 C995 0.959 . S
H981 C995 0.961 . S
H982 C996 0.960 . S
H983 C996 0.961 . S
H984 C996 0.959 . S
H985 C999 0.929 1_655 S
H986 C1000 0.931 . S
H987 C1002 0.930 . S
C988 H976 0.930 . S
C988 C989 1.399 . S
C988 C993 1.399 . S
C989 C988 1.399 . S
C989 C990 1.376 1_455 S
C990 H977 0.930 . S
C990 C989 1.376 1_655 S
C990 C991 1.388 . S
C991 H978 0.930 . S
C991 C990 1.388 . S
C991 C992 1.390 1_655 S
C992 C991 1.390 1_455 S
C992 C993 1.394 . S
C992 C998 1.465 . S
C993 C988 1.399 . S
C993 C992 1.394 . S
C993 C994 1.516 . S
C994 C993 1.516 . S
C994 C995 1.502 . S
C994 C996 1.561 . S
C994 C997 1.526 . S
C995 H979 0.959 . S
C995 H980 0.959 . S
C995 H981 0.961 . S
C995 C994 1.502 . S
C996 H982 0.960 . S
C996 H983 0.961 . S
C996 H984 0.959 . S
C996 C994 1.561 . S
C997 C994 1.526 . S
C997 C998 1.396 . S
C997 C1002 1.390 . S
C998 C992 1.465 . S
C998 C997 1.396 . S
C998 C999 1.399 . S
C999 H985 0.929 1_455 S
C999 C998 1.399 . S
C999 C1000 1.385 . S
C1000 H986 0.931 . S
C1000 C999 1.385 . S
C1000 C1001 1.389 . S
C1001 C1000 1.389 . S
C1001 C1002 1.387 . S
C1002 H987 0.930 . S
C1002 C997 1.390 . S
C1002 C1001 1.387 . S
H1003 C1015 0.930 . S
H1004 C1017 0.930 . S
H1005 C1018 0.930 . S
H1006 C1022 0.959 . S
H1007 C1022 0.959 . S
H1008 C1022 0.961 . S
H1009 C1023 0.960 . S
H1010 C1023 0.961 . S
H1011 C1023 0.959 . S
H1012 C1026 0.929 . S
H1013 C1027 0.931 . S
H1014 C1029 0.930 . S
C1015 H1003 0.930 . S
C1015 C1016 1.399 . S
C1015 C1020 1.399 . S
C1016 C1015 1.399 . S
C1016 C1017 1.376 . S
C1017 H1004 0.930 . S
C1017 C1016 1.376 . S
C1017 C1018 1.388 . S
C1018 H1005 0.930 . S
C1018 C1017 1.388 . S
C1018 C1019 1.390 . S
C1019 C1018 1.390 . S
C1019 C1020 1.394 . S
C1019 C1025 1.465 . S
C1020 C1015 1.399 . S
C1020 C1019 1.394 . S
C1020 C1021 1.516 . S
C1021 C1020 1.516 . S
C1021 C1022 1.502 . S
C1021 C1023 1.561 . S
C1021 C1024 1.526 . S
C1022 H1006 0.959 . S
C1022 H1007 0.959 . S
C1022 H1008 0.961 . S
C1022 C1021 1.502 . S
C1023 H1009 0.960 . S
C1023 H1010 0.961 . S
C1023 H1011 0.959 . S
C1023 C1021 1.561 . S
C1024 C1021 1.526 . S
C1024 C1025 1.396 . S
C1024 C1029 1.390 . S
C1025 C1019 1.465 . S
C1025 C1024 1.396 . S
C1025 C1026 1.399 . S
C1026 H1012 0.929 . S
C1026 C1025 1.399 . S
C1026 C1027 1.385 . S
C1027 H1013 0.931 . S
C1027 C1026 1.385 . S
C1027 C1028 1.389 . S
C1028 C1027 1.389 . S
C1028 C1029 1.387 . S
C1029 H1014 0.930 . S
C1029 C1024 1.390 . S
C1029 C1028 1.387 . S
H1030 C1042 0.930 . S
H1031 C1044 0.930 . S
H1032 C1045 0.930 . S
H1033 C1049 0.959 . S
H1034 C1049 0.959 . S
H1035 C1049 0.961 . S
H1036 C1050 0.960 . S
H1037 C1050 0.961 . S
H1038 C1050 0.959 . S
H1039 C1053 0.929 . S
H1040 C1054 0.931 . S
H1041 C1056 0.930 . S
C1042 H1030 0.930 . S
C1042 C1043 1.399 . S
C1042 C1047 1.399 . S
C1043 C1042 1.399 . S
C1043 C1044 1.376 . S
C1044 H1031 0.930 . S
C1044 C1043 1.376 . S
C1044 C1045 1.388 . S
C1045 H1032 0.930 . S
C1045 C1044 1.388 . S
C1045 C1046 1.390 . S
C1046 C1045 1.390 . S
C1046 C1047 1.394 . S
C1046 C1052 1.465 . S
C1047 C1042 1.399 . S
C1047 C1046 1.394 . S
C1047 C1048 1.516 . S
C1048 C1047 1.516 . S
C1048 C1049 1.502 . S
C1048 C1050 1.561 . S
C1048 C1051 1.526 . S
C1049 H1033 0.959 . S
C1049 H1034 0.959 . S
C1049 H1035 0.961 . S
C1049 C1048 1.502 . S
C1050 H1036 0.960 . S
C1050 H1037 0.961 . S
C1050 H1038 0.959 . S
C1050 C1048 1.561 . S
C1051 C1048 1.526 . S
C1051 C1052 1.396 . S
C1051 C1056 1.390 . S
C1052 C1046 1.465 . S
C1052 C1051 1.396 . S
C1052 C1053 1.399 . S
C1053 H1039 0.929 . S
C1053 C1052 1.399 . S
C1053 C1054 1.385 . S
C1054 H1040 0.931 . S
C1054 C1053 1.385 . S
C1054 C1055 1.389 . S
C1055 C1054 1.389 . S
C1055 C1056 1.387 . S
C1056 H1041 0.930 . S
C1056 C1051 1.390 . S
C1056 C1055 1.387 . S
H1057 C1069 0.930 . S
H1058 C1071 0.930 . S
H1059 C1072 0.930 . S
H1060 C1076 0.959 . S
H1061 C1076 0.959 . S
H1062 C1076 0.961 . S
H1063 C1077 0.960 . S
H1064 C1077 0.961 . S
H1065 C1077 0.959 . S
H1066 C1080 0.929 . S
H1067 C1081 0.931 . S
H1068 C1083 0.930 . S
C1069 H1057 0.930 . S
C1069 C1070 1.399 . S
C1069 C1074 1.399 . S
C1070 C1069 1.399 . S
C1070 C1071 1.376 . S
C1071 H1058 0.930 . S
C1071 C1070 1.376 . S
C1071 C1072 1.388 . S
C1072 H1059 0.930 . S
C1072 C1071 1.388 . S
C1072 C1073 1.390 . S
C1073 C1072 1.390 . S
C1073 C1074 1.394 . S
C1073 C1079 1.465 . S
C1074 C1069 1.399 . S
C1074 C1073 1.394 . S
C1074 C1075 1.516 . S
C1075 C1074 1.516 . S
C1075 C1076 1.502 . S
C1075 C1077 1.561 . S
C1075 C1078 1.526 . S
C1076 H1060 0.959 . S
C1076 H1061 0.959 . S
C1076 H1062 0.961 . S
C1076 C1075 1.502 . S
C1077 H1063 0.960 . S
C1077 H1064 0.961 . S
C1077 H1065 0.959 . S
C1077 C1075 1.561 . S
C1078 C1075 1.526 . S
C1078 C1079 1.396 . S
C1078 C1083 1.390 . S
C1079 C1073 1.465 . S
C1079 C1078 1.396 . S
C1079 C1080 1.399 . S
C1080 H1066 0.929 . S
C1080 C1079 1.399 . S
C1080 C1081 1.385 . S
C1081 H1067 0.931 . S
C1081 C1080 1.385 . S
C1081 C1082 1.389 . S
C1082 C1081 1.389 . S
C1082 C1083 1.387 . S
C1083 H1068 0.930 . S
C1083 C1078 1.390 . S
C1083 C1082 1.387 . S
H1084 C1096 0.930 . S
H1085 C1098 0.930 1_655 S
H1086 C1099 0.930 1_655 S
H1087 C1103 0.959 . S
H1088 C1103 0.959 . S
H1089 C1103 0.961 . S
H1090 C1104 0.960 . S
H1091 C1104 0.961 . S
H1092 C1104 0.959 . S
H1093 C1107 0.929 . S
H1094 C1108 0.931 . S
H1095 C1110 0.930 . S
C1096 H1084 0.930 . S
C1096 C1097 1.399 . S
C1096 C1101 1.399 . S
C1097 C1096 1.399 . S
C1097 C1098 1.376 . S
C1098 H1085 0.930 1_455 S
C1098 C1097 1.376 . S
C1098 C1099 1.388 . S
C1099 H1086 0.930 1_455 S
C1099 C1098 1.388 . S
C1099 C1100 1.390 . S
C1100 C1099 1.390 . S
C1100 C1101 1.394 . S
C1100 C1106 1.465 . S
C1101 C1096 1.399 . S
C1101 C1100 1.394 . S
C1101 C1102 1.516 . S
C1102 C1101 1.516 . S
C1102 C1103 1.502 . S
C1102 C1104 1.561 . S
C1102 C1105 1.526 . S
C1103 H1087 0.959 . S
C1103 H1088 0.959 . S
C1103 H1089 0.961 . S
C1103 C1102 1.502 . S
C1104 H1090 0.960 . S
C1104 H1091 0.961 . S
C1104 H1092 0.959 . S
C1104 C1102 1.561 . S
C1105 C1102 1.526 . S
C1105 C1106 1.396 . S
C1105 C1110 1.390 . S
C1106 C1100 1.465 . S
C1106 C1105 1.396 . S
C1106 C1107 1.399 . S
C1107 H1093 0.929 . S
C1107 C1106 1.399 . S
C1107 C1108 1.385 . S
C1108 H1094 0.931 . S
C1108 C1107 1.385 . S
C1108 C1109 1.389 . S
C1109 C1108 1.389 . S
C1109 C1110 1.387 . S
C1110 H1095 0.930 . S
C1110 C1105 1.390 . S
C1110 C1109 1.387 . S
H1111 C1123 0.930 . S
H1112 C1125 0.930 . S
H1113 C1126 0.930 . S
H1114 C1130 0.959 . S
H1115 C1130 0.959 . S
H1116 C1130 0.961 . S
H1117 C1131 0.960 . S
H1118 C1131 0.961 . S
H1119 C1131 0.959 . S
H1120 C1134 0.929 . S
H1121 C1135 0.931 . S
H1122 C1137 0.930 . S
C1123 H1111 0.930 . S
C1123 C1124 1.399 . S
C1123 C1128 1.399 . S
C1124 C1123 1.399 . S
C1124 C1125 1.376 . S
C1125 H1112 0.930 . S
C1125 C1124 1.376 . S
C1125 C1126 1.388 . S
C1126 H1113 0.930 . S
C1126 C1125 1.388 . S
C1126 C1127 1.390 . S
C1127 C1126 1.390 . S
C1127 C1128 1.394 . S
C1127 C1133 1.465 . S
C1128 C1123 1.399 . S
C1128 C1127 1.394 . S
C1128 C1129 1.516 . S
C1129 C1128 1.516 . S
C1129 C1130 1.502 . S
C1129 C1131 1.561 . S
C1129 C1132 1.526 . S
C1130 H1114 0.959 . S
C1130 H1115 0.959 . S
C1130 H1116 0.961 . S
C1130 C1129 1.502 . S
C1131 H1117 0.960 . S
C1131 H1118 0.961 . S
C1131 H1119 0.959 . S
C1131 C1129 1.561 . S
C1132 C1129 1.526 . S
C1132 C1133 1.396 . S
C1132 C1137 1.390 . S
C1133 C1127 1.465 . S
C1133 C1132 1.396 . S
C1133 C1134 1.399 . S
C1134 H1120 0.929 . S
C1134 C1133 1.399 . S
C1134 C1135 1.385 . S
C1135 H1121 0.931 . S
C1135 C1134 1.385 . S
C1135 C1136 1.389 . S
C1136 C1135 1.389 . S
C1136 C1137 1.387 . S
C1137 H1122 0.930 . S
C1137 C1132 1.390 . S
C1137 C1136 1.387 . S
H1138 C1150 0.930 . S
H1139 C1152 0.930 . S
H1140 C1153 0.930 . S
H1141 C1157 0.959 . S
H1142 C1157 0.959 . S
H1143 C1157 0.961 . S
H1144 C1158 0.960 . S
H1145 C1158 0.961 . S
H1146 C1158 0.959 . S
H1147 C1161 0.929 . S
H1148 C1162 0.931 . S
H1149 C1164 0.930 . S
C1150 H1138 0.930 . S
C1150 C1151 1.399 . S
C1150 C1155 1.399 . S
C1151 C1150 1.399 . S
C1151 C1152 1.376 . S
C1152 H1139 0.930 . S
C1152 C1151 1.376 . S
C1152 C1153 1.388 . S
C1153 H1140 0.930 . S
C1153 C1152 1.388 . S
C1153 C1154 1.390 . S
C1154 C1153 1.390 . S
C1154 C1155 1.394 . S
C1154 C1160 1.465 . S
C1155 C1150 1.399 . S
C1155 C1154 1.394 . S
C1155 C1156 1.516 . S
C1156 C1155 1.516 . S
C1156 C1157 1.502 . S
C1156 C1158 1.561 . S
C1156 C1159 1.526 . S
C1157 H1141 0.959 . S
C1157 H1142 0.959 . S
C1157 H1143 0.961 . S
C1157 C1156 1.502 . S
C1158 H1144 0.960 . S
C1158 H1145 0.961 . S
C1158 H1146 0.959 . S
C1158 C1156 1.561 . S
C1159 C1156 1.526 . S
C1159 C1160 1.396 . S
C1159 C1164 1.390 . S
C1160 C1154 1.465 . S
C1160 C1159 1.396 . S
C1160 C1161 1.399 . S
C1161 H1147 0.929 . S
C1161 C1160 1.399 . S
C1161 C1162 1.385 . S
C1162 H1148 0.931 . S
C1162 C1161 1.385 . S
C1162 C1163 1.389 . S
C1163 C1162 1.389 . S
C1163 C1164 1.387 . S
C1164 H1149 0.930 . S
C1164 C1159 1.390 . S
C1164 C1163 1.387 . S
H1165 C1177 0.930 . S
H1166 C1179 0.930 . S
H1167 C1180 0.930 . S
H1168 C1184 0.959 . S
H1169 C1184 0.959 . S
H1170 C1184 0.961 . S
H1171 C1185 0.960 . S
H1172 C1185 0.961 . S
H1173 C1185 0.959 . S
H1174 C1188 0.929 . S
H1175 C1189 0.931 . S
H1176 C1191 0.930 . S
C1177 H1165 0.930 . S
C1177 C1178 1.399 . S
C1177 C1182 1.399 . S
C1178 C1177 1.399 . S
C1178 C1179 1.376 . S
C1179 H1166 0.930 . S
C1179 C1178 1.376 . S
C1179 C1180 1.388 . S
C1180 H1167 0.930 . S
C1180 C1179 1.388 . S
C1180 C1181 1.390 . S
C1181 C1180 1.390 . S
C1181 C1182 1.394 . S
C1181 C1187 1.465 . S
C1182 C1177 1.399 . S
C1182 C1181 1.394 . S
C1182 C1183 1.516 . S
C1183 C1182 1.516 . S
C1183 C1184 1.502 . S
C1183 C1185 1.561 . S
C1183 C1186 1.526 . S
C1184 H1168 0.959 . S
C1184 H1169 0.959 . S
C1184 H1170 0.961 . S
C1184 C1183 1.502 . S
C1185 H1171 0.960 . S
C1185 H1172 0.961 . S
C1185 H1173 0.959 . S
C1185 C1183 1.561 . S
C1186 C1183 1.526 . S
C1186 C1187 1.396 . S
C1186 C1191 1.390 . S
C1187 C1181 1.465 . S
C1187 C1186 1.396 . S
C1187 C1188 1.399 . S
C1188 H1174 0.929 . S
C1188 C1187 1.399 . S
C1188 C1189 1.385 . S
C1189 H1175 0.931 . S
C1189 C1188 1.385 . S
C1189 C1190 1.389 . S
C1190 C1189 1.389 . S
C1190 C1191 1.387 . S
C1191 H1176 0.930 . S
C1191 C1186 1.390 . S
C1191 C1190 1.387 . S
H1192 C1204 0.930 . S
H1193 C1206 0.930 . S
H1194 C1207 0.927 1_455 S
H1195 C1211 0.959 1_445 S
H1196 C1211 0.959 . S
H1197 C1211 0.961 . S
H1198 C1212 0.959 1_565 S
H1199 C1212 0.961 1_565 S
H1200 C1212 0.959 . S
H1201 C1215 0.929 . S
H1202 C1216 0.931 . S
H1203 C1218 0.930 . S
C1204 H1192 0.930 . S
C1204 C1205 1.399 . S
C1204 C1209 1.399 . S
C1205 C1204 1.399 . S
C1205 C1206 1.376 . S
C1206 H1193 0.930 . S
C1206 C1205 1.376 . S
C1206 C1207 1.388 . S
C1207 H1194 0.927 1_655 S
C1207 C1206 1.388 . S
C1207 C1208 1.390 . S
C1208 C1207 1.390 . S
C1208 C1209 1.394 . S
C1208 C1214 1.465 1_655 S
C1209 C1204 1.399 . S
C1209 C1208 1.394 . S
C1209 C1210 1.516 . S
C1210 C1209 1.516 . S
C1210 C1211 1.502 1_545 S
C1210 C1212 1.561 . S
C1210 C1213 1.526 1_655 S
C1211 H1195 0.959 1_665 S
C1211 H1196 0.959 . S
C1211 H1197 0.961 . S
C1211 C1210 1.502 1_565 S
C1212 H1198 0.959 1_545 S
C1212 H1199 0.961 1_545 S
C1212 H1200 0.959 . S
C1212 C1210 1.561 . S
C1213 C1210 1.526 1_455 S
C1213 C1214 1.396 . S
C1213 C1218 1.390 . S
C1214 C1208 1.465 1_455 S
C1214 C1213 1.396 . S
C1214 C1215 1.399 . S
C1215 H1201 0.929 . S
C1215 C1214 1.399 . S
C1215 C1216 1.385 . S
C1216 H1202 0.931 . S
C1216 C1215 1.385 . S
C1216 C1217 1.389 . S
C1217 C1216 1.389 . S
C1217 C1218 1.387 . S
C1218 H1203 0.930 . S
C1218 C1213 1.390 . S
C1218 C1217 1.387 . S
H1219 C1231 0.930 . S
H1220 C1233 0.930 . S
H1221 C1234 0.930 . S
H1222 C1238 0.959 . S
H1223 C1238 0.959 . S
H1224 C1238 0.961 . S
H1225 C1239 0.960 . S
H1226 C1239 0.961 . S
H1227 C1239 0.959 . S
H1228 C1242 0.929 . S
H1229 C1243 0.931 . S
H1230 C1245 0.930 . S
C1231 H1219 0.930 . S
C1231 C1232 1.399 . S
C1231 C1236 1.399 . S
C1232 C1231 1.399 . S
C1232 C1233 1.376 . S
C1233 H1220 0.930 . S
C1233 C1232 1.376 . S
C1233 C1234 1.388 . S
C1234 H1221 0.930 . S
C1234 C1233 1.388 . S
C1234 C1235 1.390 . S
C1235 C1234 1.390 . S
C1235 C1236 1.394 . S
C1235 C1241 1.465 . S
C1236 C1231 1.399 . S
C1236 C1235 1.394 . S
C1236 C1237 1.516 . S
C1237 C1236 1.516 . S
C1237 C1238 1.502 . S
C1237 C1239 1.561 . S
C1237 C1240 1.526 . S
C1238 H1222 0.959 . S
C1238 H1223 0.959 . S
C1238 H1224 0.961 . S
C1238 C1237 1.502 . S
C1239 H1225 0.960 . S
C1239 H1226 0.961 . S
C1239 H1227 0.959 . S
C1239 C1237 1.561 . S
C1240 C1237 1.526 . S
C1240 C1241 1.396 . S
C1240 C1245 1.390 . S
C1241 C1235 1.465 . S
C1241 C1240 1.396 . S
C1241 C1242 1.399 . S
C1242 H1228 0.929 . S
C1242 C1241 1.399 . S
C1242 C1243 1.385 . S
C1243 H1229 0.931 . S
C1243 C1242 1.385 . S
C1243 C1244 1.389 . S
C1244 C1243 1.389 . S
C1244 C1245 1.387 . S
C1245 H1230 0.930 . S
C1245 C1240 1.390 . S
C1245 C1244 1.387 . S
H1246 C1258 0.930 . S
H1247 C1260 0.930 . S
H1248 C1261 0.930 . S
H1249 C1265 0.959 . S
H1250 C1265 0.959 . S
H1251 C1265 0.961 . S
H1252 C1266 0.960 . S
H1253 C1266 0.961 . S
H1254 C1266 0.959 . S
H1255 C1269 0.935 1_565 S
H1256 C1270 0.931 1_565 S
H1257 C1272 0.930 . S
C1258 H1246 0.930 . S
C1258 C1259 1.399 . S
C1258 C1263 1.399 . S
C1259 C1258 1.399 . S
C1259 C1260 1.376 . S
C1260 H1247 0.930 . S
C1260 C1259 1.376 . S
C1260 C1261 1.388 . S
C1261 H1248 0.930 . S
C1261 C1260 1.388 . S
C1261 C1262 1.390 . S
C1262 C1261 1.390 . S
C1262 C1263 1.394 . S
C1262 C1268 1.465 . S
C1263 C1258 1.399 . S
C1263 C1262 1.394 . S
C1263 C1264 1.516 . S
C1264 C1263 1.516 . S
C1264 C1265 1.502 . S
C1264 C1266 1.561 . S
C1264 C1267 1.526 . S
C1265 H1249 0.959 . S
C1265 H1250 0.959 . S
C1265 H1251 0.961 . S
C1265 C1264 1.502 . S
C1266 H1252 0.960 . S
C1266 H1253 0.961 . S
C1266 H1254 0.959 . S
C1266 C1264 1.561 . S
C1267 C1264 1.526 . S
C1267 C1268 1.396 . S
C1267 C1272 1.390 . S
C1268 C1262 1.465 . S
C1268 C1267 1.396 . S
C1268 C1269 1.399 . S
C1269 H1255 0.935 1_545 S
C1269 C1268 1.399 . S
C1269 C1270 1.385 . S
C1270 H1256 0.931 1_545 S
C1270 C1269 1.385 . S
C1270 C1271 1.389 . S
C1271 C1270 1.389 . S
C1271 C1272 1.387 . S
C1272 H1257 0.930 . S
C1272 C1267 1.390 . S
C1272 C1271 1.387 . S
H1273 C1285 0.930 . S
H1274 C1287 0.930 . S
H1275 C1288 0.930 . S
H1276 C1292 0.959 . S
H1277 C1292 0.959 . S
H1278 C1292 0.961 . S
H1279 C1293 0.960 . S
H1280 C1293 0.961 . S
H1281 C1293 0.959 . S
H1282 C1296 0.929 . S
H1283 C1297 0.931 . S
H1284 C1299 0.930 . S
C1285 H1273 0.930 . S
C1285 C1286 1.399 . S
C1285 C1290 1.399 . S
C1286 C1285 1.399 . S
C1286 C1287 1.376 . S
C1287 H1274 0.930 . S
C1287 C1286 1.376 . S
C1287 C1288 1.388 . S
C1288 H1275 0.930 . S
C1288 C1287 1.388 . S
C1288 C1289 1.390 . S
C1289 C1288 1.390 . S
C1289 C1290 1.394 . S
C1289 C1295 1.465 . S
C1290 C1285 1.399 . S
C1290 C1289 1.394 . S
C1290 C1291 1.516 . S
C1291 C1290 1.516 . S
C1291 C1292 1.502 . S
C1291 C1293 1.561 . S
C1291 C1294 1.526 . S
C1292 H1276 0.959 . S
C1292 H1277 0.959 . S
C1292 H1278 0.961 . S
C1292 C1291 1.502 . S
C1293 H1279 0.960 . S
C1293 H1280 0.961 . S
C1293 H1281 0.959 . S
C1293 C1291 1.561 . S
C1294 C1291 1.526 . S
C1294 C1295 1.396 . S
C1294 C1299 1.390 . S
C1295 C1289 1.465 . S
C1295 C1294 1.396 . S
C1295 C1296 1.399 . S
C1296 H1282 0.929 . S
C1296 C1295 1.399 . S
C1296 C1297 1.385 . S
C1297 H1283 0.931 . S
C1297 C1296 1.385 . S
C1297 C1298 1.389 . S
C1298 C1297 1.389 . S
C1298 C1299 1.387 . S
C1299 H1284 0.930 . S
C1299 C1294 1.390 . S
C1299 C1298 1.387 . S
H1300 C1312 0.930 . S
H1301 C1314 0.930 . S
H1302 C1315 0.930 . S
H1303 C1319 0.959 . S
H1304 C1319 0.959 . S
H1305 C1319 0.961 . S
H1306 C1320 0.960 1_655 S
H1307 C1320 0.961 . S
H1308 C1320 0.959 1_655 S
H1309 C1323 0.927 1_655 S
H1310 C1324 0.931 . S
H1311 C1326 0.930 . S
C1312 H1300 0.930 . S
C1312 C1313 1.399 . S
C1312 C1317 1.418 . S
C1313 C1312 1.399 . S
C1313 C1314 1.376 . S
C1314 H1301 0.930 . S
C1314 C1313 1.376 . S
C1314 C1315 1.388 . S
C1315 H1302 0.930 . S
C1315 C1314 1.388 . S
C1315 C1316 1.390 . S
C1316 C1315 1.390 . S
C1316 C1317 1.398 . S
C1316 C1322 1.465 1_655 S
C1317 C1312 1.418 . S
C1317 C1316 1.398 . S
C1317 C1318 1.494 1_655 S
C1318 C1317 1.494 1_455 S
C1318 C1319 1.502 . S
C1318 C1320 1.561 . S
C1318 C1321 1.526 . S
C1319 H1303 0.959 . S
C1319 H1304 0.959 . S
C1319 H1305 0.961 . S
C1319 C1318 1.502 . S
C1320 H1306 0.960 1_455 S
C1320 H1307 0.961 . S
C1320 H1308 0.959 1_455 S
C1320 C1318 1.561 . S
C1321 C1318 1.526 . S
C1321 C1322 1.396 . S
C1321 C1326 1.390 . S
C1322 C1316 1.465 1_455 S
C1322 C1321 1.396 . S
C1322 C1323 1.399 . S
C1323 H1309 0.927 1_455 S
C1323 C1322 1.399 . S
C1323 C1324 1.385 . S
C1324 H1310 0.931 . S
C1324 C1323 1.385 . S
C1324 C1325 1.389 . S
C1325 C1324 1.389 . S
C1325 C1326 1.387 . S
C1326 H1311 0.930 . S
C1326 C1321 1.390 . S
C1326 C1325 1.387 . S
H1327 C1339 0.930 . S
H1328 C1341 0.930 . S
H1329 C1342 0.930 . S
H1330 C1346 0.959 . S
H1331 C1346 0.959 . S
H1332 C1346 0.961 . S
H1333 C1347 0.960 . S
H1334 C1347 0.961 . S
H1335 C1347 0.959 . S
H1336 C1350 0.929 . S
H1337 C1351 0.931 . S
H1338 C1353 0.930 . S
C1339 H1327 0.930 . S
C1339 C1340 1.399 . S
C1339 C1344 1.399 . S
C1340 C1339 1.399 . S
C1340 C1341 1.376 . S
C1341 H1328 0.930 . S
C1341 C1340 1.376 . S
C1341 C1342 1.388 . S
C1342 H1329 0.930 . S
C1342 C1341 1.388 . S
C1342 C1343 1.390 . S
C1343 C1342 1.390 . S
C1343 C1344 1.394 . S
C1343 C1349 1.465 . S
C1344 C1339 1.399 . S
C1344 C1343 1.394 . S
C1344 C1345 1.516 . S
C1345 C1344 1.516 . S
C1345 C1346 1.502 . S
C1345 C1347 1.561 . S
C1345 C1348 1.526 . S
C1346 H1330 0.959 . S
C1346 H1331 0.959 . S
C1346 H1332 0.961 . S
C1346 C1345 1.502 . S
C1347 H1333 0.960 . S
C1347 H1334 0.961 . S
C1347 H1335 0.959 . S
C1347 C1345 1.561 . S
C1348 C1345 1.526 . S
C1348 C1349 1.396 . S
C1348 C1353 1.390 . S
C1349 C1343 1.465 . S
C1349 C1348 1.396 . S
C1349 C1350 1.399 . S
C1350 H1336 0.929 . S
C1350 C1349 1.399 . S
C1350 C1351 1.385 . S
C1351 H1337 0.931 . S
C1351 C1350 1.385 . S
C1351 C1352 1.389 . S
C1352 C1351 1.389 . S
C1352 C1353 1.387 . S
C1353 H1338 0.930 . S
C1353 C1348 1.390 . S
C1353 C1352 1.387 . S
H1354 C1366 0.930 . S
H1355 C1368 0.930 . S
H1356 C1369 0.930 . S
H1357 C1373 0.959 . S
H1358 C1373 0.959 . S
H1359 C1373 0.961 . S
H1360 C1374 0.960 . S
H1361 C1374 0.961 . S
H1362 C1374 0.959 . S
H1363 C1377 0.929 . S
H1364 C1378 0.931 . S
H1365 C1380 0.930 . S
C1366 H1354 0.930 . S
C1366 C1367 1.399 . S
C1366 C1371 1.399 . S
C1367 C1366 1.399 . S
C1367 C1368 1.376 . S
C1368 H1355 0.930 . S
C1368 C1367 1.376 . S
C1368 C1369 1.388 . S
C1369 H1356 0.930 . S
C1369 C1368 1.388 . S
C1369 C1370 1.390 . S
C1370 C1369 1.390 . S
C1370 C1371 1.394 . S
C1370 C1376 1.465 . S
C1371 C1366 1.399 . S
C1371 C1370 1.394 . S
C1371 C1372 1.516 . S
C1372 C1371 1.516 . S
C1372 C1373 1.502 . S
C1372 C1374 1.561 . S
C1372 C1375 1.526 . S
C1373 H1357 0.959 . S
C1373 H1358 0.959 . S
C1373 H1359 0.961 . S
C1373 C1372 1.502 . S
C1374 H1360 0.960 . S
C1374 H1361 0.961 . S
C1374 H1362 0.959 . S
C1374 C1372 1.561 . S
C1375 C1372 1.526 . S
C1375 C1376 1.396 . S
C1375 C1380 1.390 . S
C1376 C1370 1.465 . S
C1376 C1375 1.396 . S
C1376 C1377 1.399 . S
C1377 H1363 0.929 . S
C1377 C1376 1.399 . S
C1377 C1378 1.385 . S
C1378 H1364 0.931 . S
C1378 C1377 1.385 . S
C1378 C1379 1.389 . S
C1379 C1378 1.389 . S
C1379 C1380 1.387 . S
C1380 H1365 0.930 . S
C1380 C1375 1.390 . S
C1380 C1379 1.387 . S
H1381 C1393 0.930 . S
H1382 C1395 0.930 . S
H1383 C1396 0.930 . S
H1384 C1400 0.959 . S
H1385 C1400 0.959 . S
H1386 C1400 0.961 . S
H1387 C1401 0.960 . S
H1388 C1401 0.961 . S
H1389 C1401 0.959 . S
H1390 C1404 0.929 . S
H1391 C1405 0.931 . S
H1392 C1407 0.930 . S
C1393 H1381 0.930 . S
C1393 C1394 1.399 . S
C1393 C1398 1.399 . S
C1394 C1393 1.399 . S
C1394 C1395 1.376 . S
C1395 H1382 0.930 . S
C1395 C1394 1.376 . S
C1395 C1396 1.388 . S
C1396 H1383 0.930 . S
C1396 C1395 1.388 . S
C1396 C1397 1.390 . S
C1397 C1396 1.390 . S
C1397 C1398 1.394 . S
C1397 C1403 1.465 . S
C1398 C1393 1.399 . S
C1398 C1397 1.394 . S
C1398 C1399 1.516 . S
C1399 C1398 1.516 . S
C1399 C1400 1.502 . S
C1399 C1401 1.561 . S
C1399 C1402 1.526 . S
C1400 H1384 0.959 . S
C1400 H1385 0.959 . S
C1400 H1386 0.961 . S
C1400 C1399 1.502 . S
C1401 H1387 0.960 . S
C1401 H1388 0.961 . S
C1401 H1389 0.959 . S
C1401 C1399 1.561 . S
C1402 C1399 1.526 . S
C1402 C1403 1.396 . S
C1402 C1407 1.390 . S
C1403 C1397 1.465 . S
C1403 C1402 1.396 . S
C1403 C1404 1.399 . S
C1404 H1390 0.929 . S
C1404 C1403 1.399 . S
C1404 C1405 1.385 . S
C1405 H1391 0.931 . S
C1405 C1404 1.385 . S
C1405 C1406 1.389 . S
C1406 C1405 1.389 . S
C1406 C1407 1.387 . S
C1407 H1392 0.930 . S
C1407 C1402 1.390 . S
C1407 C1406 1.387 . S
H1408 C1420 0.930 . S
H1409 C1422 0.911 1_556 S
H1410 C1423 0.909 1_546 S
H1411 C1427 0.959 . S
H1412 C1427 0.959 . S
H1413 C1427 0.961 . S
H1414 C1428 0.960 . S
H1415 C1428 0.961 . S
H1416 C1428 0.959 1_545 S
H1417 C1431 0.929 1_556 S
H1418 C1432 0.931 . S
H1419 C1434 0.930 . S
C1420 H1408 0.930 . S
C1420 C1421 1.399 . S
C1420 C1425 1.399 . S
C1421 C1420 1.399 . S
C1421 C1422 1.397 . S
C1422 H1409 0.911 1_554 S
C1422 C1421 1.397 . S
C1422 C1423 1.388 . S
C1423 H1410 0.909 1_564 S
C1423 C1422 1.388 . S
C1423 C1424 1.410 . S
C1424 C1423 1.410 . S
C1424 C1425 1.394 . S
C1424 C1430 1.465 1_565 S
C1425 C1420 1.399 . S
C1425 C1424 1.394 . S
C1425 C1426 1.516 . S
C1426 C1425 1.516 . S
C1426 C1427 1.502 . S
C1426 C1428 1.561 . S
C1426 C1429 1.526 . S
C1427 H1411 0.959 . S
C1427 H1412 0.959 . S
C1427 H1413 0.961 . S
C1427 C1426 1.502 . S
C1428 H1414 0.960 . S
C1428 H1415 0.961 . S
C1428 H1416 0.959 1_565 S
C1428 C1426 1.561 . S
C1429 C1426 1.526 . S
C1429 C1430 1.396 1_565 S
C1429 C1434 1.390 . S
C1430 C1424 1.465 1_545 S
C1430 C1429 1.396 1_545 S
C1430 C1431 1.399 . S
C1431 H1417 0.929 1_554 S
C1431 C1430 1.399 . S
C1431 C1432 1.385 . S
C1432 H1418 0.931 . S
C1432 C1431 1.385 . S
C1432 C1433 1.389 . S
C1433 C1432 1.389 . S
C1433 C1434 1.387 1_545 S
C1434 H1419 0.930 . S
C1434 C1429 1.390 . S
C1434 C1433 1.387 1_565 S
H1435 C1447 0.893 1_556 S
H1436 C1449 0.930 . S
H1437 C1450 0.930 . S
H1438 C1454 0.959 1_554 S
H1439 C1454 0.959 . S
H1440 C1454 0.961 . S
H1441 C1455 0.960 . S
H1442 C1455 0.961 . S
H1443 C1455 0.959 . S
H1444 C1458 0.929 . S
H1445 C1459 0.931 . S
H1446 C1461 0.930 1_556 S
C1447 H1435 0.893 1_554 S
C1447 C1448 1.421 . S
C1447 C1452 1.416 . S
C1448 C1447 1.421 . S
C1448 C1449 1.376 . S
C1449 H1436 0.930 . S
C1449 C1448 1.376 . S
C1449 C1450 1.388 . S
C1450 H1437 0.930 . S
C1450 C1449 1.388 . S
C1450 C1451 1.390 . S
C1451 C1450 1.390 . S
C1451 C1452 1.394 . S
C1451 C1457 1.465 . S
C1452 C1447 1.416 . S
C1452 C1451 1.394 . S
C1452 C1453 1.516 1_554 S
C1453 C1452 1.516 1_556 S
C1453 C1454 1.502 . S
C1453 C1455 1.561 . S
C1453 C1456 1.526 1_556 S
C1454 H1438 0.959 1_556 S
C1454 H1439 0.959 . S
C1454 H1440 0.961 . S
C1454 C1453 1.502 . S
C1455 H1441 0.960 . S
C1455 H1442 0.961 . S
C1455 H1443 0.959 . S
C1455 C1453 1.561 . S
C1456 C1453 1.526 1_554 S
C1456 C1457 1.396 . S
C1456 C1461 1.390 . S
C1457 C1451 1.465 . S
C1457 C1456 1.396 . S
C1457 C1458 1.399 . S
C1458 H1444 0.929 . S
C1458 C1457 1.399 . S
C1458 C1459 1.385 . S
C1459 H1445 0.931 . S
C1459 C1458 1.385 . S
C1459 C1460 1.389 . S
C1460 C1459 1.389 . S
C1460 C1461 1.387 . S
C1461 H1446 0.930 1_554 S
C1461 C1456 1.390 . S
C1461 C1460 1.387 . S
H1462 C1474 0.930 . S
H1463 C1476 0.930 . S
H1464 C1477 0.930 . S
H1465 C1481 0.959 . S
H1466 C1481 0.959 . S
H1467 C1481 0.961 . S
H1468 C1482 0.960 . S
H1469 C1482 0.961 . S
H1470 C1482 0.959 . S
H1471 C1485 0.929 . S
H1472 C1486 0.931 . S
H1473 C1488 0.930 . S
C1474 H1462 0.930 . S
C1474 C1475 1.399 . S
C1474 C1479 1.399 . S
C1475 C1474 1.399 . S
C1475 C1476 1.376 . S
C1476 H1463 0.930 . S
C1476 C1475 1.376 . S
C1476 C1477 1.388 . S
C1477 H1464 0.930 . S
C1477 C1476 1.388 . S
C1477 C1478 1.390 . S
C1478 C1477 1.390 . S
C1478 C1479 1.394 . S
C1478 C1484 1.465 . S
C1479 C1474 1.399 . S
C1479 C1478 1.394 . S
C1479 C1480 1.516 . S
C1480 C1479 1.516 . S
C1480 C1481 1.502 . S
C1480 C1482 1.561 . S
C1480 C1483 1.526 . S
C1481 H1465 0.959 . S
C1481 H1466 0.959 . S
C1481 H1467 0.961 . S
C1481 C1480 1.502 . S
C1482 H1468 0.960 . S
C1482 H1469 0.961 . S
C1482 H1470 0.959 . S
C1482 C1480 1.561 . S
C1483 C1480 1.526 . S
C1483 C1484 1.396 . S
C1483 C1488 1.390 . S
C1484 C1478 1.465 . S
C1484 C1483 1.396 . S
C1484 C1485 1.399 . S
C1485 H1471 0.929 . S
C1485 C1484 1.399 . S
C1485 C1486 1.385 . S
C1486 H1472 0.931 . S
C1486 C1485 1.385 . S
C1486 C1487 1.389 . S
C1487 C1486 1.389 . S
C1487 C1488 1.387 . S
C1488 H1473 0.930 . S
C1488 C1483 1.390 . S
C1488 C1487 1.387 . S
H1489 C1501 0.930 . S
H1490 C1503 0.930 . S
H1491 C1504 0.930 . S
H1492 C1508 0.959 . S
H1493 C1508 0.959 . S
H1494 C1508 0.961 . S
H1495 C1509 0.960 . S
H1496 C1509 0.961 . S
H1497 C1509 0.959 . S
H1498 C1512 0.929 . S
H1499 C1513 0.931 . S
H1500 C1515 0.930 . S
C1501 H1489 0.930 . S
C1501 C1502 1.399 . S
C1501 C1506 1.399 . S
C1502 C1501 1.399 . S
C1502 C1503 1.376 . S
C1503 H1490 0.930 . S
C1503 C1502 1.376 . S
C1503 C1504 1.388 . S
C1504 H1491 0.930 . S
C1504 C1503 1.388 . S
C1504 C1505 1.390 . S
C1505 C1504 1.390 . S
C1505 C1506 1.394 . S
C1505 C1511 1.465 . S
C1506 C1501 1.399 . S
C1506 C1505 1.394 . S
C1506 C1507 1.516 . S
C1507 C1506 1.516 . S
C1507 C1508 1.502 . S
C1507 C1509 1.561 . S
C1507 C1510 1.526 . S
C1508 H1492 0.959 . S
C1508 H1493 0.959 . S
C1508 H1494 0.961 . S
C1508 C1507 1.502 . S
C1509 H1495 0.960 . S
C1509 H1496 0.961 . S
C1509 H1497 0.959 . S
C1509 C1507 1.561 . S
C1510 C1507 1.526 . S
C1510 C1511 1.396 . S
C1510 C1515 1.390 . S
C1511 C1505 1.465 . S
C1511 C1510 1.396 . S
C1511 C1512 1.399 . S
C1512 H1498 0.929 . S
C1512 C1511 1.399 . S
C1512 C1513 1.385 . S
C1513 H1499 0.931 . S
C1513 C1512 1.385 . S
C1513 C1514 1.389 . S
C1514 C1513 1.389 . S
C1514 C1515 1.387 . S
C1515 H1500 0.930 . S
C1515 C1510 1.390 . S
C1515 C1514 1.387 . S
H1516 C1528 0.930 . S
H1517 C1530 0.930 . S
H1518 C1531 0.930 . S
H1519 C1535 0.959 . S
H1520 C1535 0.959 . S
H1521 C1535 0.961 . S
H1522 C1536 0.960 . S
H1523 C1536 0.961 . S
H1524 C1536 0.959 . S
H1525 C1539 0.929 . S
H1526 C1540 0.931 . S
H1527 C1542 0.930 . S
C1528 H1516 0.930 . S
C1528 C1529 1.399 . S
C1528 C1533 1.399 . S
C1529 C1528 1.399 . S
C1529 C1530 1.376 . S
C1530 H1517 0.930 . S
C1530 C1529 1.376 . S
C1530 C1531 1.388 . S
C1531 H1518 0.930 . S
C1531 C1530 1.388 . S
C1531 C1532 1.390 . S
C1532 C1531 1.390 . S
C1532 C1533 1.394 . S
C1532 C1538 1.465 . S
C1533 C1528 1.399 . S
C1533 C1532 1.394 . S
C1533 C1534 1.516 . S
C1534 C1533 1.516 . S
C1534 C1535 1.502 . S
C1534 C1536 1.561 . S
C1534 C1537 1.526 . S
C1535 H1519 0.959 . S
C1535 H1520 0.959 . S
C1535 H1521 0.961 . S
C1535 C1534 1.502 . S
C1536 H1522 0.960 . S
C1536 H1523 0.961 . S
C1536 H1524 0.959 . S
C1536 C1534 1.561 . S
C1537 C1534 1.526 . S
C1537 C1538 1.396 . S
C1537 C1542 1.390 . S
C1538 C1532 1.465 . S
C1538 C1537 1.396 . S
C1538 C1539 1.399 . S
C1539 H1525 0.929 . S
C1539 C1538 1.399 . S
C1539 C1540 1.385 . S
C1540 H1526 0.931 . S
C1540 C1539 1.385 . S
C1540 C1541 1.389 . S
C1541 C1540 1.389 . S
C1541 C1542 1.387 . S
C1542 H1527 0.930 . S
C1542 C1537 1.390 . S
C1542 C1541 1.387 . S
H1543 C1555 0.930 . S
H1544 C1557 0.930 . S
H1545 C1558 0.930 . S
H1546 C1562 0.959 . S
H1547 C1562 0.959 . S
H1548 C1562 0.961 . S
H1549 C1563 0.960 . S
H1550 C1563 0.961 . S
H1551 C1563 0.959 . S
H1552 C1566 0.929 . S
H1553 C1567 0.931 . S
H1554 C1569 0.930 . S
C1555 H1543 0.930 . S
C1555 C1556 1.399 . S
C1555 C1560 1.399 . S
C1556 C1555 1.399 . S
C1556 C1557 1.376 . S
C1557 H1544 0.930 . S
C1557 C1556 1.376 . S
C1557 C1558 1.388 . S
C1558 H1545 0.930 . S
C1558 C1557 1.388 . S
C1558 C1559 1.390 . S
C1559 C1558 1.390 . S
C1559 C1560 1.394 . S
C1559 C1565 1.465 . S
C1560 C1555 1.399 . S
C1560 C1559 1.394 . S
C1560 C1561 1.516 . S
C1561 C1560 1.516 . S
C1561 C1562 1.502 . S
C1561 C1563 1.561 . S
C1561 C1564 1.526 . S
C1562 H1546 0.959 . S
C1562 H1547 0.959 . S
C1562 H1548 0.961 . S
C1562 C1561 1.502 . S
C1563 H1549 0.960 . S
C1563 H1550 0.961 . S
C1563 H1551 0.959 . S
C1563 C1561 1.561 . S
C1564 C1561 1.526 . S
C1564 C1565 1.396 . S
C1564 C1569 1.390 . S
C1565 C1559 1.465 . S
C1565 C1564 1.396 . S
C1565 C1566 1.399 . S
C1566 H1552 0.929 . S
C1566 C1565 1.399 . S
C1566 C1567 1.385 . S
C1567 H1553 0.931 . S
C1567 C1566 1.385 . S
C1567 C1568 1.389 . S
C1568 C1567 1.389 . S
C1568 C1569 1.387 . S
C1569 H1554 0.930 . S
C1569 C1564 1.390 . S
C1569 C1568 1.387 . S
H1570 C1582 0.930 . S
H1571 C1584 0.930 . S
H1572 C1585 0.930 . S
H1573 C1589 0.959 . S
H1574 C1589 0.959 . S
H1575 C1589 0.961 . S
H1576 C1590 0.960 . S
H1577 C1590 0.961 . S
H1578 C1590 0.959 . S
H1579 C1593 0.929 . S
H1580 C1594 0.931 . S
H1581 C1596 0.930 . S
C1582 H1570 0.930 . S
C1582 C1583 1.399 . S
C1582 C1587 1.399 . S
C1583 C1582 1.399 . S
C1583 C1584 1.376 . S
C1584 H1571 0.930 . S
C1584 C1583 1.376 . S
C1584 C1585 1.388 . S
C1585 H1572 0.930 . S
C1585 C1584 1.388 . S
C1585 C1586 1.390 . S
C1586 C1585 1.390 . S
C1586 C1587 1.394 . S
C1586 C1592 1.465 . S
C1587 C1582 1.399 . S
C1587 C1586 1.394 . S
C1587 C1588 1.516 . S
C1588 C1587 1.516 . S
C1588 C1589 1.502 . S
C1588 C1590 1.561 . S
C1588 C1591 1.526 . S
C1589 H1573 0.959 . S
C1589 H1574 0.959 . S
C1589 H1575 0.961 . S
C1589 C1588 1.502 . S
C1590 H1576 0.960 . S
C1590 H1577 0.961 . S
C1590 H1578 0.959 . S
C1590 C1588 1.561 . S
C1591 C1588 1.526 . S
C1591 C1592 1.396 . S
C1591 C1596 1.390 . S
C1592 C1586 1.465 . S
C1592 C1591 1.396 . S
C1592 C1593 1.399 . S
C1593 H1579 0.929 . S
C1593 C1592 1.399 . S
C1593 C1594 1.385 . S
C1594 H1580 0.931 . S
C1594 C1593 1.385 . S
C1594 C1595 1.389 . S
C1595 C1594 1.389 . S
C1595 C1596 1.387 . S
C1596 H1581 0.930 . S
C1596 C1591 1.390 . S
C1596 C1595 1.387 . S
H1597 C1609 0.930 . S
H1598 C1611 0.930 . S
H1599 C1612 0.930 . S
H1600 C1616 0.959 . S
H1601 C1616 0.959 . S
H1602 C1616 0.961 . S
H1603 C1617 0.960 . S
H1604 C1617 0.961 . S
H1605 C1617 0.959 . S
H1606 C1620 0.929 . S
H1607 C1621 0.931 . S
H1608 C1623 0.930 . S
C1609 H1597 0.930 . S
C1609 C1610 1.399 . S
C1609 C1614 1.399 . S
C1610 C1609 1.399 . S
C1610 C1611 1.376 . S
C1611 H1598 0.930 . S
C1611 C1610 1.376 . S
C1611 C1612 1.388 . S
C1612 H1599 0.930 . S
C1612 C1611 1.388 . S
C1612 C1613 1.390 . S
C1613 C1612 1.390 . S
C1613 C1614 1.394 . S
C1613 C1619 1.465 . S
C1614 C1609 1.399 . S
C1614 C1613 1.394 . S
C1614 C1615 1.516 . S
C1615 C1614 1.516 . S
C1615 C1616 1.502 . S
C1615 C1617 1.561 . S
C1615 C1618 1.526 . S
C1616 H1600 0.959 . S
C1616 H1601 0.959 . S
C1616 H1602 0.961 . S
C1616 C1615 1.502 . S
C1617 H1603 0.960 . S
C1617 H1604 0.961 . S
C1617 H1605 0.959 . S
C1617 C1615 1.561 . S
C1618 C1615 1.526 . S
C1618 C1619 1.396 . S
C1618 C1623 1.390 . S
C1619 C1613 1.465 . S
C1619 C1618 1.396 . S
C1619 C1620 1.399 . S
C1620 H1606 0.929 . S
C1620 C1619 1.399 . S
C1620 C1621 1.385 . S
C1621 H1607 0.931 . S
C1621 C1620 1.385 . S
C1621 C1622 1.389 . S
C1622 C1621 1.389 . S
C1622 C1623 1.387 . S
C1623 H1608 0.930 . S
C1623 C1618 1.390 . S
C1623 C1622 1.387 . S
H1624 C1636 0.930 . S
H1625 C1638 0.930 . S
H1626 C1639 0.930 . S
H1627 C1643 0.959 . S
H1628 C1643 0.959 . S
H1629 C1643 0.961 . S
H1630 C1644 0.960 . S
H1631 C1644 0.961 . S
H1632 C1644 0.959 . S
H1633 C1647 0.929 . S
H1634 C1648 0.931 . S
H1635 C1650 0.930 . S
C1636 H1624 0.930 . S
C1636 C1637 1.399 . S
C1636 C1641 1.399 . S
C1637 C1636 1.399 . S
C1637 C1638 1.376 . S
C1638 H1625 0.930 . S
C1638 C1637 1.376 . S
C1638 C1639 1.388 . S
C1639 H1626 0.930 . S
C1639 C1638 1.388 . S
C1639 C1640 1.390 . S
C1640 C1639 1.390 . S
C1640 C1641 1.394 . S
C1640 C1646 1.465 . S
C1641 C1636 1.399 . S
C1641 C1640 1.394 . S
C1641 C1642 1.516 . S
C1642 C1641 1.516 . S
C1642 C1643 1.502 . S
C1642 C1644 1.561 . S
C1642 C1645 1.526 . S
C1643 H1627 0.959 . S
C1643 H1628 0.959 . S
C1643 H1629 0.961 . S
C1643 C1642 1.502 . S
C1644 H1630 0.960 . S
C1644 H1631 0.961 . S
C1644 H1632 0.959 . S
C1644 C1642 1.561 . S
C1645 C1642 1.526 . S
C1645 C1646 1.396 . S
C1645 C1650 1.390 . S
C1646 C1640 1.465 . S
C1646 C1645 1.396 . S
C1646 C1647 1.399 . S
C1647 H1633 0.929 . S
C1647 C1646 1.399 . S
C1647 C1648 1.385 . S
C1648 H1634 0.931 . S
C1648 C1647 1.385 . S
C1648 C1649 1.389 . S
C1649 C1648 1.389 . S
C1649 C1650 1.387 . S
C1650 H1635 0.930 . S
C1650 C1645 1.390 . S
C1650 C1649 1.387 . S
H1651 C1663 0.930 . S
H1652 C1665 0.930 . S
H1653 C1666 0.930 . S
H1654 C1670 0.959 . S
H1655 C1670 0.959 . S
H1656 C1670 0.961 . S
H1657 C1671 0.960 . S
H1658 C1671 0.961 . S
H1659 C1671 0.959 . S
H1660 C1674 0.929 . S
H1661 C1675 0.931 . S
H1662 C1677 0.930 . S
C1663 H1651 0.930 . S
C1663 C1664 1.399 . S
C1663 C1668 1.399 . S
C1664 C1663 1.399 . S
C1664 C1665 1.376 . S
C1665 H1652 0.930 . S
C1665 C1664 1.376 . S
C1665 C1666 1.388 . S
C1666 H1653 0.930 . S
C1666 C1665 1.388 . S
C1666 C1667 1.390 . S
C1667 C1666 1.390 . S
C1667 C1668 1.394 . S
C1667 C1673 1.465 . S
C1668 C1663 1.399 . S
C1668 C1667 1.394 . S
C1668 C1669 1.516 . S
C1669 C1668 1.516 . S
C1669 C1670 1.502 . S
C1669 C1671 1.561 . S
C1669 C1672 1.526 . S
C1670 H1654 0.959 . S
C1670 H1655 0.959 . S
C1670 H1656 0.961 . S
C1670 C1669 1.502 . S
C1671 H1657 0.960 . S
C1671 H1658 0.961 . S
C1671 H1659 0.959 . S
C1671 C1669 1.561 . S
C1672 C1669 1.526 . S
C1672 C1673 1.396 . S
C1672 C1677 1.390 . S
C1673 C1667 1.465 . S
C1673 C1672 1.396 . S
C1673 C1674 1.399 . S
C1674 H1660 0.929 . S
C1674 C1673 1.399 . S
C1674 C1675 1.385 . S
C1675 H1661 0.931 . S
C1675 C1674 1.385 . S
C1675 C1676 1.389 . S
C1676 C1675 1.389 . S
C1676 C1677 1.387 . S
C1677 H1662 0.930 . S
C1677 C1672 1.390 . S
C1677 C1676 1.387 . S
H1678 C1690 0.930 . S
H1679 C1692 0.930 . S
H1680 C1693 0.930 . S
H1681 C1697 0.959 . S
H1682 C1697 0.959 . S
H1683 C1697 0.961 . S
H1684 C1698 0.960 . S
H1685 C1698 0.961 . S
H1686 C1698 0.959 . S
H1687 C1701 0.929 . S
H1688 C1702 0.931 . S
H1689 C1704 0.930 . S
C1690 H1678 0.930 . S
C1690 C1691 1.399 . S
C1690 C1695 1.399 . S
C1691 C1690 1.399 . S
C1691 C1692 1.376 . S
C1692 H1679 0.930 . S
C1692 C1691 1.376 . S
C1692 C1693 1.388 . S
C1693 H1680 0.930 . S
C1693 C1692 1.388 . S
C1693 C1694 1.390 . S
C1694 C1693 1.390 . S
C1694 C1695 1.394 . S
C1694 C1700 1.465 . S
C1695 C1690 1.399 . S
C1695 C1694 1.394 . S
C1695 C1696 1.516 . S
C1696 C1695 1.516 . S
C1696 C1697 1.502 . S
C1696 C1698 1.561 . S
C1696 C1699 1.526 . S
C1697 H1681 0.959 . S
C1697 H1682 0.959 . S
C1697 H1683 0.961 . S
C1697 C1696 1.502 . S
C1698 H1684 0.960 . S
C1698 H1685 0.961 . S
C1698 H1686 0.959 . S
C1698 C1696 1.561 . S
C1699 C1696 1.526 . S
C1699 C1700 1.396 . S
C1699 C1704 1.390 . S
C1700 C1694 1.465 . S
C1700 C1699 1.396 . S
C1700 C1701 1.399 . S
C1701 H1687 0.929 . S
C1701 C1700 1.399 . S
C1701 C1702 1.385 . S
C1702 H1688 0.931 . S
C1702 C1701 1.385 . S
C1702 C1703 1.389 . S
C1703 C1702 1.389 . S
C1703 C1704 1.387 . S
C1704 H1689 0.930 . S
C1704 C1699 1.390 . S
C1704 C1703 1.387 . S
H1705 C1717 0.930 . S
H1706 C1719 0.930 . S
H1707 C1720 0.930 . S
H1708 C1724 0.959 . S
H1709 C1724 0.959 . S
H1710 C1724 0.961 . S
H1711 C1725 0.960 . S
H1712 C1725 0.961 . S
H1713 C1725 0.959 . S
H1714 C1728 0.929 . S
H1715 C1729 0.931 . S
H1716 C1731 0.930 . S
C1717 H1705 0.930 . S
C1717 C1718 1.399 . S
C1717 C1722 1.399 . S
C1718 C1717 1.399 . S
C1718 C1719 1.376 . S
C1719 H1706 0.930 . S
C1719 C1718 1.376 . S
C1719 C1720 1.388 . S
C1720 H1707 0.930 . S
C1720 C1719 1.388 . S
C1720 C1721 1.390 . S
C1721 C1720 1.390 . S
C1721 C1722 1.394 . S
C1721 C1727 1.465 . S
C1722 C1717 1.399 . S
C1722 C1721 1.394 . S
C1722 C1723 1.516 . S
C1723 C1722 1.516 . S
C1723 C1724 1.502 . S
C1723 C1725 1.561 . S
C1723 C1726 1.526 . S
C1724 H1708 0.959 . S
C1724 H1709 0.959 . S
C1724 H1710 0.961 . S
C1724 C1723 1.502 . S
C1725 H1711 0.960 . S
C1725 H1712 0.961 . S
C1725 H1713 0.959 . S
C1725 C1723 1.561 . S
C1726 C1723 1.526 . S
C1726 C1727 1.396 . S
C1726 C1731 1.390 . S
C1727 C1721 1.465 . S
C1727 C1726 1.396 . S
C1727 C1728 1.399 . S
C1728 H1714 0.929 . S
C1728 C1727 1.399 . S
C1728 C1729 1.385 . S
C1729 H1715 0.931 . S
C1729 C1728 1.385 . S
C1729 C1730 1.389 . S
C1730 C1729 1.389 . S
C1730 C1731 1.387 . S
C1731 H1716 0.930 . S
C1731 C1726 1.390 . S
C1731 C1730 1.387 . S
H1732 C1744 0.930 . S
H1733 C1746 0.930 . S
H1734 C1747 0.930 . S
H1735 C1751 0.959 . S
H1736 C1751 0.959 . S
H1737 C1751 0.961 . S
H1738 C1752 0.960 . S
H1739 C1752 0.961 . S
H1740 C1752 0.959 . S
H1741 C1755 0.929 . S
H1742 C1756 0.931 . S
H1743 C1758 0.930 . S
C1744 H1732 0.930 . S
C1744 C1745 1.399 . S
C1744 C1749 1.399 . S
C1745 C1744 1.399 . S
C1745 C1746 1.376 . S
C1746 H1733 0.930 . S
C1746 C1745 1.376 . S
C1746 C1747 1.388 . S
C1747 H1734 0.930 . S
C1747 C1746 1.388 . S
C1747 C1748 1.390 . S
C1748 C1747 1.390 . S
C1748 C1749 1.394 . S
C1748 C1754 1.465 . S
C1749 C1744 1.399 . S
C1749 C1748 1.394 . S
C1749 C1750 1.516 . S
C1750 C1749 1.516 . S
C1750 C1751 1.502 . S
C1750 C1752 1.561 . S
C1750 C1753 1.526 . S
C1751 H1735 0.959 . S
C1751 H1736 0.959 . S
C1751 H1737 0.961 . S
C1751 C1750 1.502 . S
C1752 H1738 0.960 . S
C1752 H1739 0.961 . S
C1752 H1740 0.959 . S
C1752 C1750 1.561 . S
C1753 C1750 1.526 . S
C1753 C1754 1.396 . S
C1753 C1758 1.390 . S
C1754 C1748 1.465 . S
C1754 C1753 1.396 . S
C1754 C1755 1.399 . S
C1755 H1741 0.929 . S
C1755 C1754 1.399 . S
C1755 C1756 1.385 . S
C1756 H1742 0.931 . S
C1756 C1755 1.385 . S
C1756 C1757 1.389 . S
C1757 C1756 1.389 . S
C1757 C1758 1.387 . S
C1758 H1743 0.930 . S
C1758 C1753 1.390 . S
C1758 C1757 1.387 . S
H1759 C1771 0.930 . S
H1760 C1773 0.930 . S
H1761 C1774 0.930 . S
H1762 C1778 0.959 . S
H1763 C1778 0.959 . S
H1764 C1778 0.961 . S
H1765 C1779 0.960 . S
H1766 C1779 0.961 . S
H1767 C1779 0.959 . S
H1768 C1782 0.929 . S
H1769 C1783 0.931 . S
H1770 C1785 0.930 . S
C1771 H1759 0.930 . S
C1771 C1772 1.399 . S
C1771 C1776 1.399 . S
C1772 C1771 1.399 . S
C1772 C1773 1.376 . S
C1773 H1760 0.930 . S
C1773 C1772 1.376 . S
C1773 C1774 1.388 . S
C1774 H1761 0.930 . S
C1774 C1773 1.388 . S
C1774 C1775 1.390 . S
C1775 C1774 1.390 . S
C1775 C1776 1.394 . S
C1775 C1781 1.465 . S
C1776 C1771 1.399 . S
C1776 C1775 1.394 . S
C1776 C1777 1.516 . S
C1777 C1776 1.516 . S
C1777 C1778 1.502 . S
C1777 C1779 1.561 . S
C1777 C1780 1.526 . S
C1778 H1762 0.959 . S
C1778 H1763 0.959 . S
C1778 H1764 0.961 . S
C1778 C1777 1.502 . S
C1779 H1765 0.960 . S
C1779 H1766 0.961 . S
C1779 H1767 0.959 . S
C1779 C1777 1.561 . S
C1780 C1777 1.526 . S
C1780 C1781 1.396 . S
C1780 C1785 1.390 . S
C1781 C1775 1.465 . S
C1781 C1780 1.396 . S
C1781 C1782 1.399 . S
C1782 H1768 0.929 . S
C1782 C1781 1.399 . S
C1782 C1783 1.385 . S
C1783 H1769 0.931 . S
C1783 C1782 1.385 . S
C1783 C1784 1.389 . S
C1784 C1783 1.389 . S
C1784 C1785 1.387 . S
C1785 H1770 0.930 . S
C1785 C1780 1.390 . S
C1785 C1784 1.387 . S
H1786 C1798 0.930 . S
H1787 C1800 0.930 . S
H1788 C1801 0.930 . S
H1789 C1805 0.959 . S
H1790 C1805 0.959 . S
H1791 C1805 0.961 . S
H1792 C1806 0.960 . S
H1793 C1806 0.961 1_554 S
H1794 C1806 0.959 1_554 S
H1795 C1809 0.929 . S
H1796 C1810 0.931 . S
H1797 C1812 0.926 1_554 S
C1798 H1786 0.930 . S
C1798 C1799 1.399 . S
C1798 C1803 1.399 . S
C1799 C1798 1.399 . S
C1799 C1800 1.376 . S
C1800 H1787 0.930 . S
C1800 C1799 1.376 . S
C1800 C1801 1.388 . S
C1801 H1788 0.930 . S
C1801 C1800 1.388 . S
C1801 C1802 1.390 . S
C1802 C1801 1.390 . S
C1802 C1803 1.394 . S
C1802 C1808 1.465 . S
C1803 C1798 1.399 . S
C1803 C1802 1.394 . S
C1803 C1804 1.516 . S
C1804 C1803 1.516 . S
C1804 C1805 1.502 . S
C1804 C1806 1.561 . S
C1804 C1807 1.526 . S
C1805 H1789 0.959 . S
C1805 H1790 0.959 . S
C1805 H1791 0.961 . S
C1805 C1804 1.502 . S
C1806 H1792 0.960 . S
C1806 H1793 0.961 1_556 S
C1806 H1794 0.959 1_556 S
C1806 C1804 1.561 . S
C1807 C1804 1.526 . S
C1807 C1808 1.396 . S
C1807 C1812 1.390 . S
C1808 C1802 1.465 . S
C1808 C1807 1.396 . S
C1808 C1809 1.399 . S
C1809 H1795 0.929 . S
C1809 C1808 1.399 . S
C1809 C1810 1.385 . S
C1810 H1796 0.931 . S
C1810 C1809 1.385 . S
C1810 C1811 1.389 . S
C1811 C1810 1.389 . S
C1811 C1812 1.387 . S
C1812 H1797 0.926 1_556 S
C1812 C1807 1.390 . S
C1812 C1811 1.387 . S
H1813 C1825 0.930 . S
H1814 C1827 0.930 . S
H1815 C1828 0.930 . S
H1816 C1832 0.959 . S
H1817 C1832 0.959 . S
H1818 C1832 0.961 . S
H1819 C1833 0.960 . S
H1820 C1833 0.961 . S
H1821 C1833 0.959 . S
H1822 C1836 0.929 . S
H1823 C1837 0.931 . S
H1824 C1839 0.930 . S
C1825 H1813 0.930 . S
C1825 C1826 1.399 . S
C1825 C1830 1.399 . S
C1826 C1825 1.399 . S
C1826 C1827 1.376 . S
C1827 H1814 0.930 . S
C1827 C1826 1.376 . S
C1827 C1828 1.388 . S
C1828 H1815 0.930 . S
C1828 C1827 1.388 . S
C1828 C1829 1.390 . S
C1829 C1828 1.390 . S
C1829 C1830 1.394 . S
C1829 C1835 1.465 . S
C1830 C1825 1.399 . S
C1830 C1829 1.394 . S
C1830 C1831 1.516 . S
C1831 C1830 1.516 . S
C1831 C1832 1.502 . S
C1831 C1833 1.561 . S
C1831 C1834 1.526 . S
C1832 H1816 0.959 . S
C1832 H1817 0.959 . S
C1832 H1818 0.961 . S
C1832 C1831 1.502 . S
C1833 H1819 0.960 . S
C1833 H1820 0.961 . S
C1833 H1821 0.959 . S
C1833 C1831 1.561 . S
C1834 C1831 1.526 . S
C1834 C1835 1.396 . S
C1834 C1839 1.390 . S
C1835 C1829 1.465 . S
C1835 C1834 1.396 . S
C1835 C1836 1.399 . S
C1836 H1822 0.929 . S
C1836 C1835 1.399 . S
C1836 C1837 1.385 . S
C1837 H1823 0.931 . S
C1837 C1836 1.385 . S
C1837 C1838 1.389 . S
C1838 C1837 1.389 . S
C1838 C1839 1.387 . S
C1839 H1824 0.930 . S
C1839 C1834 1.390 . S
C1839 C1838 1.387 . S
H1840 C1852 0.930 1_565 S
H1841 C1854 0.930 . S
H1842 C1855 0.930 . S
H1843 C1859 0.959 . S
H1844 C1859 0.959 . S
H1845 C1859 0.961 . S
H1846 C1860 0.960 . S
H1847 C1860 0.961 . S
H1848 C1860 0.959 . S
H1849 C1863 0.929 . S
H1850 C1864 0.931 . S
H1851 C1866 0.930 1_565 S
C1852 H1840 0.930 1_545 S
C1852 C1853 1.399 . S
C1852 C1857 1.399 . S
C1853 C1852 1.399 . S
C1853 C1854 1.376 . S
C1854 H1841 0.930 . S
C1854 C1853 1.376 . S
C1854 C1855 1.388 . S
C1855 H1842 0.930 . S
C1855 C1854 1.388 . S
C1855 C1856 1.390 . S
C1856 C1855 1.390 . S
C1856 C1857 1.394 . S
C1856 C1862 1.465 . S
C1857 C1852 1.399 . S
C1857 C1856 1.394 . S
C1857 C1858 1.516 1_545 S
C1858 C1857 1.516 1_565 S
C1858 C1859 1.502 . S
C1858 C1860 1.561 . S
C1858 C1861 1.526 1_565 S
C1859 H1843 0.959 . S
C1859 H1844 0.959 . S
C1859 H1845 0.961 . S
C1859 C1858 1.502 . S
C1860 H1846 0.960 . S
C1860 H1847 0.961 . S
C1860 H1848 0.959 . S
C1860 C1858 1.561 . S
C1861 C1858 1.526 1_545 S
C1861 C1862 1.396 . S
C1861 C1866 1.390 . S
C1862 C1856 1.465 . S
C1862 C1861 1.396 . S
C1862 C1863 1.399 . S
C1863 H1849 0.929 . S
C1863 C1862 1.399 . S
C1863 C1864 1.385 . S
C1864 H1850 0.931 . S
C1864 C1863 1.385 . S
C1864 C1865 1.389 . S
C1865 C1864 1.389 . S
C1865 C1866 1.387 . S
C1866 H1851 0.930 1_545 S
C1866 C1861 1.390 . S
C1866 C1865 1.387 . S
H1867 C1879 0.930 . S
H1868 C1881 0.930 . S
H1869 C1882 0.930 . S
H1870 C1886 0.959 . S
H1871 C1886 0.959 . S
H1872 C1886 0.961 . S
H1873 C1887 0.960 . S
H1874 C1887 0.961 . S
H1875 C1887 0.959 . S
H1876 C1890 0.929 . S
H1877 C1891 0.931 . S
H1878 C1893 0.930 . S
C1879 H1867 0.930 . S
C1879 C1880 1.399 . S
C1879 C1884 1.399 . S
C1880 C1879 1.399 . S
C1880 C1881 1.376 . S
C1881 H1868 0.930 . S
C1881 C1880 1.376 . S
C1881 C1882 1.388 . S
C1882 H1869 0.930 . S
C1882 C1881 1.388 . S
C1882 C1883 1.390 . S
C1883 C1882 1.390 . S
C1883 C1884 1.394 . S
C1883 C1889 1.465 . S
C1884 C1879 1.399 . S
C1884 C1883 1.394 . S
C1884 C1885 1.516 . S
C1885 C1884 1.516 . S
C1885 C1886 1.502 . S
C1885 C1887 1.561 . S
C1885 C1888 1.526 . S
C1886 H1870 0.959 . S
C1886 H1871 0.959 . S
C1886 H1872 0.961 . S
C1886 C1885 1.502 . S
C1887 H1873 0.960 . S
C1887 H1874 0.961 . S
C1887 H1875 0.959 . S
C1887 C1885 1.561 . S
C1888 C1885 1.526 . S
C1888 C1889 1.396 . S
C1888 C1893 1.390 . S
C1889 C1883 1.465 . S
C1889 C1888 1.396 . S
C1889 C1890 1.399 . S
C1890 H1876 0.929 . S
C1890 C1889 1.399 . S
C1890 C1891 1.385 . S
C1891 H1877 0.931 . S
C1891 C1890 1.385 . S
C1891 C1892 1.389 . S
C1892 C1891 1.389 . S
C1892 C1893 1.387 . S
C1893 H1878 0.930 . S
C1893 C1888 1.390 . S
C1893 C1892 1.387 . S
H1894 C1906 0.930 . S
H1895 C1908 0.930 . S
H1896 C1909 0.930 . S
H1897 C1913 0.959 . S
H1898 C1913 0.959 . S
H1899 C1913 0.961 . S
H1900 C1914 0.960 . S
H1901 C1914 0.961 . S
H1902 C1914 0.959 . S
H1903 C1917 0.929 . S
H1904 C1918 0.931 . S
H1905 C1920 0.930 1_565 S
C1906 H1894 0.930 . S
C1906 C1907 1.399 1_565 S
C1906 C1911 1.399 1_565 S
C1907 C1906 1.399 1_545 S
C1907 C1908 1.376 . S
C1908 H1895 0.930 . S
C1908 C1907 1.376 . S
C1908 C1909 1.388 . S
C1909 H1896 0.930 . S
C1909 C1908 1.388 . S
C1909 C1910 1.390 . S
C1910 C1909 1.390 . S
C1910 C1911 1.394 . S
C1910 C1916 1.465 . S
C1911 C1906 1.399 1_545 S
C1911 C1910 1.394 . S
C1911 C1912 1.516 1_545 S
C1912 C1911 1.516 1_565 S
C1912 C1913 1.502 . S
C1912 C1914 1.561 . S
C1912 C1915 1.526 1_565 S
C1913 H1897 0.959 . S
C1913 H1898 0.959 . S
C1913 H1899 0.961 . S
C1913 C1912 1.502 . S
C1914 H1900 0.960 . S
C1914 H1901 0.961 . S
C1914 H1902 0.959 . S
C1914 C1912 1.561 . S
C1915 C1912 1.526 1_545 S
C1915 C1916 1.396 . S
C1915 C1920 1.390 . S
C1916 C1910 1.465 . S
C1916 C1915 1.396 . S
C1916 C1917 1.399 . S
C1917 H1903 0.929 . S
C1917 C1916 1.399 . S
C1917 C1918 1.385 . S
C1918 H1904 0.931 . S
C1918 C1917 1.385 . S
C1918 C1919 1.389 . S
C1919 C1918 1.389 . S
C1919 C1920 1.387 . S
C1920 H1905 0.930 1_545 S
C1920 C1915 1.390 . S
C1920 C1919 1.387 . S
H1921 C1933 0.930 . S
H1922 C1935 0.930 . S
H1923 C1936 0.930 . S
H1924 C1940 0.959 . S
H1925 C1940 0.959 . S
H1926 C1940 0.961 . S
H1927 C1941 0.960 . S
H1928 C1941 0.961 . S
H1929 C1941 0.959 . S
H1930 C1944 0.929 . S
H1931 C1945 0.931 . S
H1932 C1947 0.930 . S
C1933 H1921 0.930 . S
C1933 C1934 1.399 . S
C1933 C1938 1.399 . S
C1934 C1933 1.399 . S
C1934 C1935 1.376 . S
C1935 H1922 0.930 . S
C1935 C1934 1.376 . S
C1935 C1936 1.388 . S
C1936 H1923 0.930 . S
C1936 C1935 1.388 . S
C1936 C1937 1.390 . S
C1937 C1936 1.390 . S
C1937 C1938 1.394 . S
C1937 C1943 1.465 . S
C1938 C1933 1.399 . S
C1938 C1937 1.394 . S
C1938 C1939 1.516 . S
C1939 C1938 1.516 . S
C1939 C1940 1.502 . S
C1939 C1941 1.561 . S
C1939 C1942 1.526 . S
C1940 H1924 0.959 . S
C1940 H1925 0.959 . S
C1940 H1926 0.961 . S
C1940 C1939 1.502 . S
C1941 H1927 0.960 . S
C1941 H1928 0.961 . S
C1941 H1929 0.959 . S
C1941 C1939 1.561 . S
C1942 C1939 1.526 . S
C1942 C1943 1.396 . S
C1942 C1947 1.390 . S
C1943 C1937 1.465 . S
C1943 C1942 1.396 . S
C1943 C1944 1.399 . S
C1944 H1930 0.929 . S
C1944 C1943 1.399 . S
C1944 C1945 1.385 . S
C1945 H1931 0.931 . S
C1945 C1944 1.385 . S
C1945 C1946 1.389 . S
C1946 C1945 1.389 . S
C1946 C1947 1.387 . S
C1947 H1932 0.930 . S
C1947 C1942 1.390 . S
C1947 C1946 1.387 . S
H1948 C1960 0.930 . S
H1949 C1962 0.930 . S
H1950 C1963 0.930 . S
H1951 C1967 0.959 . S
H1952 C1967 0.959 . S
H1953 C1967 0.961 . S
H1954 C1968 0.960 . S
H1955 C1968 0.961 . S
H1956 C1968 0.959 . S
H1957 C1971 0.929 . S
H1958 C1972 0.931 1_565 S
H1959 C1974 0.930 . S
C1960 H1948 0.930 . S
C1960 C1961 1.399 . S
C1960 C1965 1.399 . S
C1961 C1960 1.399 . S
C1961 C1962 1.376 1_545 S
C1962 H1949 0.930 . S
C1962 C1961 1.376 1_565 S
C1962 C1963 1.388 . S
C1963 H1950 0.930 . S
C1963 C1962 1.388 . S
C1963 C1964 1.390 1_565 S
C1964 C1963 1.390 1_545 S
C1964 C1965 1.394 . S
C1964 C1970 1.465 . S
C1965 C1960 1.399 . S
C1965 C1964 1.394 . S
C1965 C1966 1.516 . S
C1966 C1965 1.516 . S
C1966 C1967 1.502 . S
C1966 C1968 1.561 . S
C1966 C1969 1.526 . S
C1967 H1951 0.959 . S
C1967 H1952 0.959 . S
C1967 H1953 0.961 . S
C1967 C1966 1.502 . S
C1968 H1954 0.960 . S
C1968 H1955 0.961 . S
C1968 H1956 0.959 . S
C1968 C1966 1.561 . S
C1969 C1966 1.526 . S
C1969 C1970 1.396 . S
C1969 C1974 1.390 . S
C1970 C1964 1.465 . S
C1970 C1969 1.396 . S
C1970 C1971 1.399 1_545 S
C1971 H1957 0.929 . S
C1971 C1970 1.399 1_565 S
C1971 C1972 1.385 1_565 S
C1972 H1958 0.931 1_545 S
C1972 C1971 1.385 1_545 S
C1972 C1973 1.389 . S
C1973 C1972 1.389 . S
C1973 C1974 1.387 . S
C1974 H1959 0.930 . S
C1974 C1969 1.390 . S
C1974 C1973 1.387 . S
H1975 C1987 0.930 . S
H1976 C1989 0.930 . S
H1977 C1990 0.930 . S
H1978 C1994 0.959 . S
H1979 C1994 0.959 . S
H1980 C1994 0.961 . S
H1981 C1995 0.960 . S
H1982 C1995 0.961 . S
H1983 C1995 0.959 . S
H1984 C1998 0.929 . S
H1985 C1999 0.931 . S
H1986 C2001 0.930 . S
C1987 H1975 0.930 . S
C1987 C1988 1.399 . S
C1987 C1992 1.399 . S
C1988 C1987 1.399 . S
C1988 C1989 1.376 . S
C1989 H1976 0.930 . S
C1989 C1988 1.376 . S
C1989 C1990 1.388 . S
C1990 H1977 0.930 . S
C1990 C1989 1.388 . S
C1990 C1991 1.390 . S
C1991 C1990 1.390 . S
C1991 C1992 1.394 . S
C1991 C1997 1.465 . S
C1992 C1987 1.399 . S
C1992 C1991 1.394 . S
C1992 C1993 1.516 . S
C1993 C1992 1.516 . S
C1993 C1994 1.502 . S
C1993 C1995 1.561 . S
C1993 C1996 1.526 . S
C1994 H1978 0.959 . S
C1994 H1979 0.959 . S
C1994 H1980 0.961 . S
C1994 C1993 1.502 . S
C1995 H1981 0.960 . S
C1995 H1982 0.961 . S
C1995 H1983 0.959 . S
C1995 C1993 1.561 . S
C1996 C1993 1.526 . S
C1996 C1997 1.396 . S
C1996 C2001 1.390 . S
C1997 C1991 1.465 . S
C1997 C1996 1.396 . S
C1997 C1998 1.399 . S
C1998 H1984 0.929 . S
C1998 C1997 1.399 . S
C1998 C1999 1.385 . S
C1999 H1985 0.931 . S
C1999 C1998 1.385 . S
C1999 C2000 1.389 . S
C2000 C1999 1.389 . S
C2000 C2001 1.387 . S
C2001 H1986 0.930 . S
C2001 C1996 1.390 . S
C2001 C2000 1.387 . S
H2002 C2014 0.930 . S
H2003 C2016 0.930 . S
H2004 C2017 0.930 . S
H2005 C2021 0.959 . S
H2006 C2021 0.959 . S
H2007 C2021 0.961 . S
H2008 C2022 0.960 . S
H2009 C2022 0.961 . S
H2010 C2022 0.959 . S
H2011 C2025 0.929 . S
H2012 C2026 0.931 . S
H2013 C2028 0.930 . S
C2014 H2002 0.930 . S
C2014 C2015 1.399 1_565 S
C2014 C2019 1.399 . S
C2015 C2014 1.399 1_545 S
C2015 C2016 1.376 . S
C2016 H2003 0.930 . S
C2016 C2015 1.376 . S
C2016 C2017 1.388 . S
C2017 H2004 0.930 . S
C2017 C2016 1.388 . S
C2017 C2018 1.390 . S
C2018 C2017 1.390 . S
C2018 C2019 1.394 1_545 S
C2018 C2024 1.465 . S
C2019 C2014 1.399 . S
C2019 C2018 1.394 1_565 S
C2019 C2020 1.516 . S
C2020 C2019 1.516 . S
C2020 C2021 1.502 . S
C2020 C2022 1.561 . S
C2020 C2023 1.526 . S
C2021 H2005 0.959 . S
C2021 H2006 0.959 . S
C2021 H2007 0.961 . S
C2021 C2020 1.502 . S
C2022 H2008 0.960 . S
C2022 H2009 0.961 . S
C2022 H2010 0.959 . S
C2022 C2020 1.561 . S
C2023 C2020 1.526 . S
C2023 C2024 1.396 1_565 S
C2023 C2028 1.390 . S
C2024 C2018 1.465 . S
C2024 C2023 1.396 1_545 S
C2024 C2025 1.399 . S
C2025 H2011 0.929 . S
C2025 C2024 1.399 . S
C2025 C2026 1.385 . S
C2026 H2012 0.931 . S
C2026 C2025 1.385 . S
C2026 C2027 1.391 . S
C2027 C2026 1.391 . S
C2027 C2028 1.385 1_545 S
C2028 H2013 0.930 . S
C2028 C2023 1.390 . S
C2028 C2027 1.385 1_565 S
H2029 C2041 0.930 . S
H2030 C2043 0.930 . S
H2031 C2044 0.930 . S
H2032 C2048 0.959 . S
H2033 C2048 0.959 . S
H2034 C2048 0.961 . S
H2035 C2049 0.960 . S
H2036 C2049 0.961 . S
H2037 C2049 0.959 . S
H2038 C2052 0.929 . S
H2039 C2053 0.931 . S
H2040 C2055 0.930 . S
C2041 H2029 0.930 . S
C2041 C2042 1.399 . S
C2041 C2046 1.399 . S
C2042 C2041 1.399 . S
C2042 C2043 1.376 . S
C2043 H2030 0.930 . S
C2043 C2042 1.376 . S
C2043 C2044 1.388 . S
C2044 H2031 0.930 . S
C2044 C2043 1.388 . S
C2044 C2045 1.390 . S
C2045 C2044 1.390 . S
C2045 C2046 1.394 . S
C2045 C2051 1.465 . S
C2046 C2041 1.399 . S
C2046 C2045 1.394 . S
C2046 C2047 1.516 . S
C2047 C2046 1.516 . S
C2047 C2048 1.502 . S
C2047 C2049 1.561 . S
C2047 C2050 1.526 . S
C2048 H2032 0.959 . S
C2048 H2033 0.959 . S
C2048 H2034 0.961 . S
C2048 C2047 1.502 . S
C2049 H2035 0.960 . S
C2049 H2036 0.961 . S
C2049 H2037 0.959 . S
C2049 C2047 1.561 . S
C2050 C2047 1.526 . S
C2050 C2051 1.396 . S
C2050 C2055 1.390 . S
C2051 C2045 1.465 . S
C2051 C2050 1.396 . S
C2051 C2052 1.399 . S
C2052 H2038 0.929 . S
C2052 C2051 1.399 . S
C2052 C2053 1.385 . S
C2053 H2039 0.931 . S
C2053 C2052 1.385 . S
C2053 C2054 1.389 . S
C2054 C2053 1.389 . S
C2054 C2055 1.387 . S
C2055 H2040 0.930 . S
C2055 C2050 1.390 . S
C2055 C2054 1.387 . S
H2056 C2068 0.930 1_556 S
H2057 C2070 0.930 . S
H2058 C2071 0.930 . S
H2059 C2075 0.959 . S
H2060 C2075 0.959 . S
H2061 C2075 0.961 . S
H2062 C2076 0.960 . S
H2063 C2076 0.961 . S
H2064 C2076 0.959 1_554 S
H2065 C2079 0.929 . S
H2066 C2080 0.931 . S
H2067 C2082 0.930 . S
C2068 H2056 0.930 1_554 S
C2068 C2069 1.399 . S
C2068 C2073 1.399 . S
C2069 C2068 1.399 . S
C2069 C2070 1.376 . S
C2070 H2057 0.930 . S
C2070 C2069 1.376 . S
C2070 C2071 1.388 . S
C2071 H2058 0.930 . S
C2071 C2070 1.388 . S
C2071 C2072 1.390 . S
C2072 C2071 1.390 . S
C2072 C2073 1.394 . S
C2072 C2078 1.465 . S
C2073 C2068 1.399 . S
C2073 C2072 1.394 . S
C2073 C2074 1.516 1_554 S
C2074 C2073 1.516 1_556 S
C2074 C2075 1.502 . S
C2074 C2076 1.561 . S
C2074 C2077 1.526 1_556 S
C2075 H2059 0.959 . S
C2075 H2060 0.959 . S
C2075 H2061 0.961 . S
C2075 C2074 1.502 . S
C2076 H2062 0.960 . S
C2076 H2063 0.961 . S
C2076 H2064 0.959 1_556 S
C2076 C2074 1.561 . S
C2077 C2074 1.526 1_554 S
C2077 C2078 1.396 . S
C2077 C2082 1.390 1_554 S
C2078 C2072 1.465 . S
C2078 C2077 1.396 . S
C2078 C2079 1.399 . S
C2079 H2065 0.929 . S
C2079 C2078 1.399 . S
C2079 C2080 1.385 . S
C2080 H2066 0.931 . S
C2080 C2079 1.385 . S
C2080 C2081 1.389 . S
C2081 C2080 1.389 . S
C2081 C2082 1.387 1_554 S
C2082 H2067 0.930 . S
C2082 C2077 1.390 1_556 S
C2082 C2081 1.387 1_556 S
H2083 C2095 0.930 . S
H2084 C2097 0.930 1_556 S
H2085 C2098 0.930 1_556 S
H2086 C2102 0.959 . S
H2087 C2102 0.959 . S
H2088 C2102 0.961 . S
H2089 C2103 0.960 . S
H2090 C2103 0.961 . S
H2091 C2103 0.959 . S
H2092 C2106 0.919 1_556 S
H2093 C2107 0.931 1_556 S
H2094 C2109 0.930 . S
C2095 H2083 0.930 . S
C2095 C2096 1.399 . S
C2095 C2100 1.399 . S
C2096 C2095 1.399 . S
C2096 C2097 1.376 . S
C2097 H2084 0.930 1_554 S
C2097 C2096 1.376 . S
C2097 C2098 1.388 . S
C2098 H2085 0.930 1_554 S
C2098 C2097 1.388 . S
C2098 C2099 1.390 . S
C2099 C2098 1.390 . S
C2099 C2100 1.394 . S
C2099 C2105 1.465 . S
C2100 C2095 1.399 . S
C2100 C2099 1.394 . S
C2100 C2101 1.516 . S
C2101 C2100 1.516 . S
C2101 C2102 1.502 . S
C2101 C2103 1.561 . S
C2101 C2104 1.526 . S
C2102 H2086 0.959 . S
C2102 H2087 0.959 . S
C2102 H2088 0.961 . S
C2102 C2101 1.502 . S
C2103 H2089 0.960 . S
C2103 H2090 0.961 . S
C2103 H2091 0.959 . S
C2103 C2101 1.561 . S
C2104 C2101 1.526 . S
C2104 C2105 1.396 . S
C2104 C2109 1.390 . S
C2105 C2099 1.465 . S
C2105 C2104 1.396 . S
C2105 C2106 1.411 . S
C2106 H2092 0.919 1_554 S
C2106 C2105 1.411 . S
C2106 C2107 1.384 . S
C2107 H2093 0.931 1_554 S
C2107 C2106 1.384 . S
C2107 C2108 1.389 . S
C2108 C2107 1.389 . S
C2108 C2109 1.387 . S
C2109 H2094 0.930 . S
C2109 C2104 1.390 . S
C2109 C2108 1.387 . S
H2110 C2122 0.930 . S
H2111 C2124 0.930 . S
H2112 C2125 0.930 . S
H2113 C2129 0.959 . S
H2114 C2129 0.959 . S
H2115 C2129 0.961 . S
H2116 C2130 0.960 . S
H2117 C2130 0.961 . S
H2118 C2130 0.959 . S
H2119 C2133 0.929 . S
H2120 C2134 0.931 . S
H2121 C2136 0.930 . S
C2122 H2110 0.930 . S
C2122 C2123 1.399 . S
C2122 C2127 1.399 . S
C2123 C2122 1.399 . S
C2123 C2124 1.376 . S
C2124 H2111 0.930 . S
C2124 C2123 1.376 . S
C2124 C2125 1.388 . S
C2125 H2112 0.930 . S
C2125 C2124 1.388 . S
C2125 C2126 1.390 . S
C2126 C2125 1.390 . S
C2126 C2127 1.394 . S
C2126 C2132 1.465 . S
C2127 C2122 1.399 . S
C2127 C2126 1.394 . S
C2127 C2128 1.516 . S
C2128 C2127 1.516 . S
C2128 C2129 1.502 . S
C2128 C2130 1.561 . S
C2128 C2131 1.526 . S
C2129 H2113 0.959 . S
C2129 H2114 0.959 . S
C2129 H2115 0.961 . S
C2129 C2128 1.502 . S
C2130 H2116 0.960 . S
C2130 H2117 0.961 . S
C2130 H2118 0.959 . S
C2130 C2128 1.561 . S
C2131 C2128 1.526 . S
C2131 C2132 1.396 . S
C2131 C2136 1.390 . S
C2132 C2126 1.465 . S
C2132 C2131 1.396 . S
C2132 C2133 1.399 . S
C2133 H2119 0.929 . S
C2133 C2132 1.399 . S
C2133 C2134 1.385 . S
C2134 H2120 0.931 . S
C2134 C2133 1.385 . S
C2134 C2135 1.389 . S
C2135 C2134 1.389 . S
C2135 C2136 1.387 . S
C2136 H2121 0.930 . S
C2136 C2131 1.390 . S
C2136 C2135 1.387 . S
H2137 C2149 0.930 . S
H2138 C2151 0.930 . S
H2139 C2152 0.930 . S
H2140 C2156 0.959 . S
H2141 C2156 0.959 . S
H2142 C2156 0.961 . S
H2143 C2157 0.960 . S
H2144 C2157 0.961 . S
H2145 C2157 0.959 . S
H2146 C2160 0.929 . S
H2147 C2161 0.931 . S
H2148 C2163 0.930 . S
C2149 H2137 0.930 . S
C2149 C2150 1.399 . S
C2149 C2154 1.399 . S
C2150 C2149 1.399 . S
C2150 C2151 1.376 . S
C2151 H2138 0.930 . S
C2151 C2150 1.376 . S
C2151 C2152 1.388 . S
C2152 H2139 0.930 . S
C2152 C2151 1.388 . S
C2152 C2153 1.390 . S
C2153 C2152 1.390 . S
C2153 C2154 1.394 . S
C2153 C2159 1.465 . S
C2154 C2149 1.399 . S
C2154 C2153 1.394 . S
C2154 C2155 1.516 . S
C2155 C2154 1.516 . S
C2155 C2156 1.502 . S
C2155 C2157 1.561 . S
C2155 C2158 1.526 . S
C2156 H2140 0.959 . S
C2156 H2141 0.959 . S
C2156 H2142 0.961 . S
C2156 C2155 1.502 . S
C2157 H2143 0.960 . S
C2157 H2144 0.961 . S
C2157 H2145 0.959 . S
C2157 C2155 1.561 . S
C2158 C2155 1.526 . S
C2158 C2159 1.396 . S
C2158 C2163 1.390 . S
C2159 C2153 1.465 . S
C2159 C2158 1.396 . S
C2159 C2160 1.399 . S
C2160 H2146 0.929 . S
C2160 C2159 1.399 . S
C2160 C2161 1.385 . S
C2161 H2147 0.931 . S
C2161 C2160 1.385 . S
C2161 C2162 1.389 . S
C2162 C2161 1.389 . S
C2162 C2163 1.387 . S
C2163 H2148 0.930 . S
C2163 C2158 1.390 . S
C2163 C2162 1.387 . S
H2164 C2176 0.930 . S
H2165 C2178 0.930 . S
H2166 C2179 0.930 . S
H2167 C2183 0.959 . S
H2168 C2183 0.959 . S
H2169 C2183 0.961 . S
H2170 C2184 0.960 . S
H2171 C2184 0.961 . S
H2172 C2184 0.959 . S
H2173 C2187 0.929 . S
H2174 C2188 0.931 . S
H2175 C2190 0.930 . S
C2176 H2164 0.930 . S
C2176 C2177 1.399 . S
C2176 C2181 1.399 . S
C2177 C2176 1.399 . S
C2177 C2178 1.376 1_565 S
C2178 H2165 0.930 . S
C2178 C2177 1.376 1_545 S
C2178 C2179 1.388 1_545 S
C2179 H2166 0.930 . S
C2179 C2178 1.388 1_565 S
C2179 C2180 1.390 . S
C2180 C2179 1.390 . S
C2180 C2181 1.394 . S
C2180 C2186 1.465 . S
C2181 C2176 1.399 . S
C2181 C2180 1.394 . S
C2181 C2182 1.516 . S
C2182 C2181 1.516 . S
C2182 C2183 1.502 . S
C2182 C2184 1.561 . S
C2182 C2185 1.526 . S
C2183 H2167 0.959 . S
C2183 H2168 0.959 . S
C2183 H2169 0.961 . S
C2183 C2182 1.502 . S
C2184 H2170 0.960 . S
C2184 H2171 0.961 . S
C2184 H2172 0.959 . S
C2184 C2182 1.561 . S
C2185 C2182 1.526 . S
C2185 C2186 1.396 . S
C2185 C2190 1.390 . S
C2186 C2180 1.465 . S
C2186 C2185 1.396 . S
C2186 C2187 1.399 . S
C2187 H2173 0.929 . S
C2187 C2186 1.399 . S
C2187 C2188 1.385 . S
C2188 H2174 0.931 . S
C2188 C2187 1.385 . S
C2188 C2189 1.389 . S
C2189 C2188 1.389 . S
C2189 C2190 1.387 . S
C2190 H2175 0.930 . S
C2190 C2185 1.390 . S
C2190 C2189 1.387 . S
H2191 C2203 0.930 . S
H2192 C2205 0.930 . S
H2193 C2206 0.930 . S
H2194 C2210 0.959 . S
H2195 C2210 0.959 . S
H2196 C2210 0.961 . S
H2197 C2211 0.960 . S
H2198 C2211 0.961 . S
H2199 C2211 0.959 . S
H2200 C2214 0.929 . S
H2201 C2215 0.931 . S
H2202 C2217 0.930 . S
C2203 H2191 0.930 . S
C2203 C2204 1.399 . S
C2203 C2208 1.399 . S
C2204 C2203 1.399 . S
C2204 C2205 1.376 . S
C2205 H2192 0.930 . S
C2205 C2204 1.376 . S
C2205 C2206 1.388 . S
C2206 H2193 0.930 . S
C2206 C2205 1.388 . S
C2206 C2207 1.390 . S
C2207 C2206 1.390 . S
C2207 C2208 1.394 . S
C2207 C2213 1.465 . S
C2208 C2203 1.399 . S
C2208 C2207 1.394 . S
C2208 C2209 1.516 . S
C2209 C2208 1.516 . S
C2209 C2210 1.502 . S
C2209 C2211 1.561 . S
C2209 C2212 1.526 . S
C2210 H2194 0.959 . S
C2210 H2195 0.959 . S
C2210 H2196 0.961 . S
C2210 C2209 1.502 . S
C2211 H2197 0.960 . S
C2211 H2198 0.961 . S
C2211 H2199 0.959 . S
C2211 C2209 1.561 . S
C2212 C2209 1.526 . S
C2212 C2213 1.396 . S
C2212 C2217 1.390 . S
C2213 C2207 1.465 . S
C2213 C2212 1.396 . S
C2213 C2214 1.399 . S
C2214 H2200 0.929 . S
C2214 C2213 1.399 . S
C2214 C2215 1.385 . S
C2215 H2201 0.931 . S
C2215 C2214 1.385 . S
C2215 C2216 1.389 . S
C2216 C2215 1.389 . S
C2216 C2217 1.387 . S
C2217 H2202 0.930 . S
C2217 C2212 1.390 . S
C2217 C2216 1.387 . S
H2218 C2230 0.930 . S
H2219 C2232 0.930 . S
H2220 C2233 0.930 . S
H2221 C2237 0.959 . S
H2222 C2237 0.959 . S
H2223 C2237 0.961 . S
H2224 C2238 0.960 . S
H2225 C2238 0.961 . S
H2226 C2238 0.959 . S
H2227 C2241 0.929 . S
H2228 C2242 0.931 . S
H2229 C2244 0.930 . S
C2230 H2218 0.930 . S
C2230 C2231 1.399 . S
C2230 C2235 1.399 . S
C2231 C2230 1.399 . S
C2231 C2232 1.376 . S
C2232 H2219 0.930 . S
C2232 C2231 1.376 . S
C2232 C2233 1.388 . S
C2233 H2220 0.930 . S
C2233 C2232 1.388 . S
C2233 C2234 1.390 . S
C2234 C2233 1.390 . S
C2234 C2235 1.394 . S
C2234 C2240 1.465 . S
C2235 C2230 1.399 . S
C2235 C2234 1.394 . S
C2235 C2236 1.516 . S
C2236 C2235 1.516 . S
C2236 C2237 1.502 . S
C2236 C2238 1.561 . S
C2236 C2239 1.526 . S
C2237 H2221 0.959 . S
C2237 H2222 0.959 . S
C2237 H2223 0.961 . S
C2237 C2236 1.502 . S
C2238 H2224 0.960 . S
C2238 H2225 0.961 . S
C2238 H2226 0.959 . S
C2238 C2236 1.561 . S
C2239 C2236 1.526 . S
C2239 C2240 1.396 . S
C2239 C2244 1.390 . S
C2240 C2234 1.465 . S
C2240 C2239 1.396 . S
C2240 C2241 1.399 . S
C2241 H2227 0.929 . S
C2241 C2240 1.399 . S
C2241 C2242 1.385 . S
C2242 H2228 0.931 . S
C2242 C2241 1.385 . S
C2242 C2243 1.389 . S
C2243 C2242 1.389 . S
C2243 C2244 1.387 . S
C2244 H2229 0.930 . S
C2244 C2239 1.390 . S
C2244 C2243 1.387 . S
H2245 C2257 0.930 . S
H2246 C2259 0.930 . S
H2247 C2260 0.930 . S
H2248 C2264 0.959 . S
H2249 C2264 0.959 . S
H2250 C2264 0.961 . S
H2251 C2265 0.960 . S
H2252 C2265 0.961 . S
H2253 C2265 0.959 . S
H2254 C2268 0.929 . S
H2255 C2269 0.931 . S
H2256 C2271 0.930 . S
C2257 H2245 0.930 . S
C2257 C2258 1.399 . S
C2257 C2262 1.399 . S
C2258 C2257 1.399 . S
C2258 C2259 1.376 . S
C2259 H2246 0.930 . S
C2259 C2258 1.376 . S
C2259 C2260 1.388 . S
C2260 H2247 0.930 . S
C2260 C2259 1.388 . S
C2260 C2261 1.390 . S
C2261 C2260 1.390 . S
C2261 C2262 1.394 . S
C2261 C2267 1.465 . S
C2262 C2257 1.399 . S
C2262 C2261 1.394 . S
C2262 C2263 1.516 . S
C2263 C2262 1.516 . S
C2263 C2264 1.502 . S
C2263 C2265 1.561 . S
C2263 C2266 1.526 . S
C2264 H2248 0.959 . S
C2264 H2249 0.959 . S
C2264 H2250 0.961 . S
C2264 C2263 1.502 . S
C2265 H2251 0.960 . S
C2265 H2252 0.961 . S
C2265 H2253 0.959 . S
C2265 C2263 1.561 . S
C2266 C2263 1.526 . S
C2266 C2267 1.396 . S
C2266 C2271 1.390 . S
C2267 C2261 1.465 . S
C2267 C2266 1.396 . S
C2267 C2268 1.399 . S
C2268 H2254 0.929 . S
C2268 C2267 1.399 . S
C2268 C2269 1.385 . S
C2269 H2255 0.931 . S
C2269 C2268 1.385 . S
C2269 C2270 1.389 . S
C2270 C2269 1.389 . S
C2270 C2271 1.387 . S
C2271 H2256 0.930 . S
C2271 C2266 1.390 . S
C2271 C2270 1.387 . S
H2272 C2284 0.930 . S
H2273 C2286 0.930 . S
H2274 C2287 0.930 . S
H2275 C2291 0.959 . S
H2276 C2291 0.959 . S
H2277 C2291 0.961 . S
H2278 C2292 0.960 . S
H2279 C2292 0.961 . S
H2280 C2292 0.959 . S
H2281 C2295 0.929 . S
H2282 C2296 0.931 . S
H2283 C2298 0.930 . S
C2284 H2272 0.930 . S
C2284 C2285 1.399 . S
C2284 C2289 1.399 . S
C2285 C2284 1.399 . S
C2285 C2286 1.376 . S
C2286 H2273 0.930 . S
C2286 C2285 1.376 . S
C2286 C2287 1.388 . S
C2287 H2274 0.930 . S
C2287 C2286 1.388 . S
C2287 C2288 1.390 . S
C2288 C2287 1.390 . S
C2288 C2289 1.394 . S
C2288 C2294 1.465 . S
C2289 C2284 1.399 . S
C2289 C2288 1.394 . S
C2289 C2290 1.516 . S
C2290 C2289 1.516 . S
C2290 C2291 1.502 . S
C2290 C2292 1.561 . S
C2290 C2293 1.526 . S
C2291 H2275 0.959 . S
C2291 H2276 0.959 . S
C2291 H2277 0.961 . S
C2291 C2290 1.502 . S
C2292 H2278 0.960 . S
C2292 H2279 0.961 . S
C2292 H2280 0.959 . S
C2292 C2290 1.561 . S
C2293 C2290 1.526 . S
C2293 C2294 1.396 . S
C2293 C2298 1.390 . S
C2294 C2288 1.465 . S
C2294 C2293 1.396 . S
C2294 C2295 1.399 . S
C2295 H2281 0.929 . S
C2295 C2294 1.399 . S
C2295 C2296 1.385 . S
C2296 H2282 0.931 . S
C2296 C2295 1.385 . S
C2296 C2297 1.389 . S
C2297 C2296 1.389 . S
C2297 C2298 1.387 . S
C2298 H2283 0.930 . S
C2298 C2293 1.390 . S
C2298 C2297 1.387 . S
H2299 C2311 0.930 . S
H2300 C2313 0.930 . S
H2301 C2314 0.930 . S
H2302 C2318 0.959 . S
H2303 C2318 0.959 . S
H2304 C2318 0.961 . S
H2305 C2319 0.960 . S
H2306 C2319 0.961 . S
H2307 C2319 0.959 . S
H2308 C2322 0.929 . S
H2309 C2323 0.931 . S
H2310 C2325 0.930 . S
C2311 H2299 0.930 . S
C2311 C2312 1.399 . S
C2311 C2316 1.399 . S
C2312 C2311 1.399 . S
C2312 C2313 1.376 . S
C2313 H2300 0.930 . S
C2313 C2312 1.376 . S
C2313 C2314 1.388 . S
C2314 H2301 0.930 . S
C2314 C2313 1.388 . S
C2314 C2315 1.390 . S
C2315 C2314 1.390 . S
C2315 C2316 1.394 . S
C2315 C2321 1.465 . S
C2316 C2311 1.399 . S
C2316 C2315 1.394 . S
C2316 C2317 1.516 . S
C2317 C2316 1.516 . S
C2317 C2318 1.502 . S
C2317 C2319 1.561 . S
C2317 C2320 1.526 . S
C2318 H2302 0.959 . S
C2318 H2303 0.959 . S
C2318 H2304 0.961 . S
C2318 C2317 1.502 . S
C2319 H2305 0.960 . S
C2319 H2306 0.961 . S
C2319 H2307 0.959 . S
C2319 C2317 1.561 . S
C2320 C2317 1.526 . S
C2320 C2321 1.396 . S
C2320 C2325 1.390 . S
C2321 C2315 1.465 . S
C2321 C2320 1.396 . S
C2321 C2322 1.399 . S
C2322 H2308 0.929 . S
C2322 C2321 1.399 . S
C2322 C2323 1.385 . S
C2323 H2309 0.931 . S
C2323 C2322 1.385 . S
C2323 C2324 1.389 . S
C2324 C2323 1.389 . S
C2324 C2325 1.387 . S
C2325 H2310 0.930 . S
C2325 C2320 1.390 . S
C2325 C2324 1.387 . S
H2326 C2338 0.930 . S
H2327 C2340 0.930 . S
H2328 C2341 0.930 . S
H2329 C2345 0.959 . S
H2330 C2345 0.959 . S
H2331 C2345 0.961 . S
H2332 C2346 0.960 . S
H2333 C2346 0.961 . S
H2334 C2346 0.983 . S
H2335 C2349 0.929 . S
H2336 C2350 0.931 . S
H2337 C2352 0.930 . S
C2338 H2326 0.930 . S
C2338 C2339 1.399 . S
C2338 C2343 1.399 . S
C2339 C2338 1.399 . S
C2339 C2340 1.376 . S
C2340 H2327 0.930 . S
C2340 C2339 1.376 . S
C2340 C2341 1.388 . S
C2341 H2328 0.930 . S
C2341 C2340 1.388 . S
C2341 C2342 1.390 . S
C2342 C2341 1.390 . S
C2342 C2343 1.394 . S
C2342 C2348 1.465 . S
C2343 C2338 1.399 . S
C2343 C2342 1.394 . S
C2343 C2344 1.516 . S
C2344 C2343 1.516 . S
C2344 C2345 1.502 1_556 S
C2344 C2346 1.561 1_556 S
C2344 C2347 1.526 1_556 S
C2345 H2329 0.959 . S
C2345 H2330 0.959 . S
C2345 H2331 0.961 . S
C2345 C2344 1.502 1_554 S
C2346 H2332 0.960 . S
C2346 H2333 0.961 . S
C2346 H2334 0.983 . S
C2346 C2344 1.561 1_554 S
C2347 C2344 1.526 1_554 S
C2347 C2348 1.396 1_554 S
C2347 C2352 1.390 . S
C2348 C2342 1.465 . S
C2348 C2347 1.396 1_556 S
C2348 C2349 1.399 . S
C2349 H2335 0.929 . S
C2349 C2348 1.399 . S
C2349 C2350 1.385 1_556 S
C2350 H2336 0.931 . S
C2350 C2349 1.385 1_554 S
C2350 C2351 1.389 . S
C2351 C2350 1.389 . S
C2351 C2352 1.387 . S
C2352 H2337 0.930 . S
C2352 C2347 1.390 . S
C2352 C2351 1.387 . S
H2353 C2365 0.930 . S
H2354 C2367 0.930 . S
H2355 C2368 0.930 . S
H2356 C2372 0.959 . S
H2357 C2372 0.959 . S
H2358 C2372 0.961 1_455 S
H2359 C2373 0.960 . S
H2360 C2373 0.961 . S
H2361 C2373 0.959 . S
H2362 C2376 0.929 . S
H2363 C2377 0.931 . S
H2364 C2379 0.930 . S
C2365 H2353 0.930 . S
C2365 C2366 1.399 . S
C2365 C2370 1.399 1_455 S
C2366 C2365 1.399 . S
C2366 C2367 1.376 . S
C2367 H2354 0.930 . S
C2367 C2366 1.376 . S
C2367 C2368 1.388 1_455 S
C2368 H2355 0.930 . S
C2368 C2367 1.388 1_655 S
C2368 C2369 1.390 . S
C2369 C2368 1.390 . S
C2369 C2370 1.394 . S
C2369 C2375 1.465 . S
C2370 C2365 1.399 1_655 S
C2370 C2369 1.394 . S
C2370 C2371 1.516 . S
C2371 C2370 1.516 . S
C2371 C2372 1.502 . S
C2371 C2373 1.561 . S
C2371 C2374 1.526 . S
C2372 H2356 0.959 . S
C2372 H2357 0.959 . S
C2372 H2358 0.961 1_655 S
C2372 C2371 1.502 . S
C2373 H2359 0.960 . S
C2373 H2360 0.961 . S
C2373 H2361 0.959 . S
C2373 C2371 1.561 . S
C2374 C2371 1.526 . S
C2374 C2375 1.396 . S
C2374 C2379 1.390 . S
C2375 C2369 1.465 . S
C2375 C2374 1.396 . S
C2375 C2376 1.399 . S
C2376 H2362 0.929 . S
C2376 C2375 1.399 . S
C2376 C2377 1.385 . S
C2377 H2363 0.931 . S
C2377 C2376 1.385 . S
C2377 C2378 1.389 . S
C2378 C2377 1.389 . S
C2378 C2379 1.387 . S
C2379 H2364 0.930 . S
C2379 C2374 1.390 . S
C2379 C2378 1.387 . S
H2380 C2392 0.930 . S
H2381 C2394 0.930 . S
H2382 C2395 0.930 . S
H2383 C2399 0.959 . S
H2384 C2399 0.959 . S
H2385 C2399 0.961 . S
H2386 C2400 0.960 . S
H2387 C2400 0.961 . S
H2388 C2400 0.959 . S
H2389 C2403 0.929 . S
H2390 C2404 0.931 . S
H2391 C2406 0.930 . S
C2392 H2380 0.930 . S
C2392 C2393 1.399 . S
C2392 C2397 1.399 . S
C2393 C2392 1.399 . S
C2393 C2394 1.376 . S
C2394 H2381 0.930 . S
C2394 C2393 1.376 . S
C2394 C2395 1.388 . S
C2395 H2382 0.930 . S
C2395 C2394 1.388 . S
C2395 C2396 1.390 . S
C2396 C2395 1.390 . S
C2396 C2397 1.394 . S
C2396 C2402 1.465 . S
C2397 C2392 1.399 . S
C2397 C2396 1.394 . S
C2397 C2398 1.516 . S
C2398 C2397 1.516 . S
C2398 C2399 1.502 . S
C2398 C2400 1.561 . S
C2398 C2401 1.526 . S
C2399 H2383 0.959 . S
C2399 H2384 0.959 . S
C2399 H2385 0.961 . S
C2399 C2398 1.502 . S
C2400 H2386 0.960 . S
C2400 H2387 0.961 . S
C2400 H2388 0.959 . S
C2400 C2398 1.561 . S
C2401 C2398 1.526 . S
C2401 C2402 1.396 . S
C2401 C2406 1.390 . S
C2402 C2396 1.465 . S
C2402 C2401 1.396 . S
C2402 C2403 1.399 . S
C2403 H2389 0.929 . S
C2403 C2402 1.399 . S
C2403 C2404 1.385 . S
C2404 H2390 0.931 . S
C2404 C2403 1.385 . S
C2404 C2405 1.389 . S
C2405 C2404 1.389 . S
C2405 C2406 1.387 . S
C2406 H2391 0.930 . S
C2406 C2401 1.390 . S
C2406 C2405 1.387 . S
H2407 C2419 0.930 . S
H2408 C2421 0.930 . S
H2409 C2422 0.930 . S
H2410 C2426 0.959 . S
H2411 C2426 0.959 1_655 S
H2412 C2426 0.961 . S
H2413 C2427 0.960 . S
H2414 C2427 0.961 . S
H2415 C2427 0.959 . S
H2416 C2430 0.929 . S
H2417 C2431 0.931 . S
H2418 C2433 0.930 . S
C2419 H2407 0.930 . S
C2419 C2420 1.399 . S
C2419 C2424 1.399 . S
C2420 C2419 1.399 . S
C2420 C2421 1.376 . S
C2421 H2408 0.930 . S
C2421 C2420 1.376 . S
C2421 C2422 1.388 . S
C2422 H2409 0.930 . S
C2422 C2421 1.388 . S
C2422 C2423 1.390 . S
C2423 C2422 1.390 . S
C2423 C2424 1.394 . S
C2423 C2429 1.465 1_455 S
C2424 C2419 1.399 . S
C2424 C2423 1.394 . S
C2424 C2425 1.515 1_455 S
C2425 C2424 1.515 1_655 S
C2425 C2426 1.501 1_655 S
C2425 C2427 1.562 . S
C2425 C2428 1.527 . S
C2426 H2410 0.959 . S
C2426 H2411 0.959 1_455 S
C2426 H2412 0.961 . S
C2426 C2425 1.501 1_455 S
C2427 H2413 0.960 . S
C2427 H2414 0.961 . S
C2427 H2415 0.959 . S
C2427 C2425 1.562 . S
C2428 C2425 1.527 . S
C2428 C2429 1.396 . S
C2428 C2433 1.390 . S
C2429 C2423 1.465 1_655 S
C2429 C2428 1.396 . S
C2429 C2430 1.399 . S
C2430 H2416 0.929 . S
C2430 C2429 1.399 . S
C2430 C2431 1.385 . S
C2431 H2417 0.931 . S
C2431 C2430 1.385 . S
C2431 C2432 1.389 . S
C2432 C2431 1.389 . S
C2432 C2433 1.387 . S
C2433 H2418 0.930 . S
C2433 C2428 1.390 . S
C2433 C2432 1.387 . S
H2434 C2446 0.930 . S
H2435 C2448 0.930 . S
H2436 C2449 0.930 1_655 S
H2437 C2453 0.959 . S
H2438 C2453 0.959 . S
H2439 C2453 0.961 . S
H2440 C2454 0.982 . S
H2441 C2454 0.961 . S
H2442 C2454 0.959 1_655 S
H2443 C2457 0.929 . S
H2444 C2458 0.931 . S
H2445 C2460 0.930 . S
C2446 H2434 0.930 . S
C2446 C2447 1.399 1_455 S
C2446 C2451 1.399 . S
C2447 C2446 1.399 1_655 S
C2447 C2448 1.376 . S
C2448 H2435 0.930 . S
C2448 C2447 1.376 . S
C2448 C2449 1.388 1_655 S
C2449 H2436 0.930 1_455 S
C2449 C2448 1.388 1_455 S
C2449 C2450 1.390 . S
C2450 C2449 1.390 . S
C2450 C2451 1.394 . S
C2450 C2456 1.465 . S
C2451 C2446 1.399 . S
C2451 C2450 1.394 . S
C2451 C2452 1.516 . S
C2452 C2451 1.516 . S
C2452 C2453 1.502 . S
C2452 C2454 1.561 . S
C2452 C2455 1.526 . S
C2453 H2437 0.959 . S
C2453 H2438 0.959 . S
C2453 H2439 0.961 . S
C2453 C2452 1.502 . S
C2454 H2440 0.982 . S
C2454 H2441 0.961 . S
C2454 H2442 0.959 1_455 S
C2454 C2452 1.561 . S
C2455 C2452 1.526 . S
C2455 C2456 1.396 . S
C2455 C2460 1.390 . S
C2456 C2450 1.465 . S
C2456 C2455 1.396 . S
C2456 C2457 1.399 . S
C2457 H2443 0.929 . S
C2457 C2456 1.399 . S
C2457 C2458 1.385 . S
C2458 H2444 0.931 . S
C2458 C2457 1.385 . S
C2458 C2459 1.389 . S
C2459 C2458 1.389 . S
C2459 C2460 1.387 . S
C2460 H2445 0.930 . S
C2460 C2455 1.390 . S
C2460 C2459 1.387 . S
H2461 C2473 0.930 . S
H2462 C2475 0.930 . S
H2463 C2476 0.930 . S
H2464 C2480 0.959 . S
H2465 C2480 0.959 . S
H2466 C2480 0.961 . S
H2467 C2481 0.960 . S
H2468 C2481 0.961 . S
H2469 C2481 0.959 . S
H2470 C2484 0.929 . S
H2471 C2485 0.931 . S
H2472 C2487 0.930 . S
C2473 H2461 0.930 . S
C2473 C2474 1.399 . S
C2473 C2478 1.399 . S
C2474 C2473 1.399 . S
C2474 C2475 1.376 . S
C2475 H2462 0.930 . S
C2475 C2474 1.376 . S
C2475 C2476 1.388 . S
C2476 H2463 0.930 . S
C2476 C2475 1.388 . S
C2476 C2477 1.390 . S
C2477 C2476 1.390 . S
C2477 C2478 1.394 . S
C2477 C2483 1.465 . S
C2478 C2473 1.399 . S
C2478 C2477 1.394 . S
C2478 C2479 1.516 . S
C2479 C2478 1.516 . S
C2479 C2480 1.502 . S
C2479 C2481 1.561 . S
C2479 C2482 1.526 . S
C2480 H2464 0.959 . S
C2480 H2465 0.959 . S
C2480 H2466 0.961 . S
C2480 C2479 1.502 . S
C2481 H2467 0.960 . S
C2481 H2468 0.961 . S
C2481 H2469 0.959 . S
C2481 C2479 1.561 . S
C2482 C2479 1.526 . S
C2482 C2483 1.396 . S
C2482 C2487 1.390 . S
C2483 C2477 1.465 . S
C2483 C2482 1.396 . S
C2483 C2484 1.399 . S
C2484 H2470 0.929 . S
C2484 C2483 1.399 . S
C2484 C2485 1.385 . S
C2485 H2471 0.931 . S
C2485 C2484 1.385 . S
C2485 C2486 1.389 . S
C2486 C2485 1.389 . S
C2486 C2487 1.387 . S
C2487 H2472 0.930 . S
C2487 C2482 1.390 . S
C2487 C2486 1.387 . S
H2488 C2500 0.930 . S
H2489 C2502 0.930 . S
H2490 C2503 0.930 . S
H2491 C2507 0.959 . S
H2492 C2507 0.959 . S
H2493 C2507 0.961 . S
H2494 C2508 0.960 . S
H2495 C2508 0.961 . S
H2496 C2508 0.959 . S
H2497 C2511 0.929 . S
H2498 C2512 0.931 . S
H2499 C2514 0.930 . S
C2500 H2488 0.930 . S
C2500 C2501 1.399 . S
C2500 C2505 1.399 . S
C2501 C2500 1.399 . S
C2501 C2502 1.376 . S
C2502 H2489 0.930 . S
C2502 C2501 1.376 . S
C2502 C2503 1.388 . S
C2503 H2490 0.930 . S
C2503 C2502 1.388 . S
C2503 C2504 1.390 . S
C2504 C2503 1.390 . S
C2504 C2505 1.394 . S
C2504 C2510 1.465 . S
C2505 C2500 1.399 . S
C2505 C2504 1.394 . S
C2505 C2506 1.516 . S
C2506 C2505 1.516 . S
C2506 C2507 1.502 . S
C2506 C2508 1.561 . S
C2506 C2509 1.526 . S
C2507 H2491 0.959 . S
C2507 H2492 0.959 . S
C2507 H2493 0.961 . S
C2507 C2506 1.502 . S
C2508 H2494 0.960 . S
C2508 H2495 0.961 . S
C2508 H2496 0.959 . S
C2508 C2506 1.561 . S
C2509 C2506 1.526 . S
C2509 C2510 1.396 . S
C2509 C2514 1.390 . S
C2510 C2504 1.465 . S
C2510 C2509 1.396 . S
C2510 C2511 1.399 . S
C2511 H2497 0.929 . S
C2511 C2510 1.399 . S
C2511 C2512 1.385 . S
C2512 H2498 0.931 . S
C2512 C2511 1.385 . S
C2512 C2513 1.389 . S
C2513 C2512 1.389 . S
C2513 C2514 1.387 . S
C2514 H2499 0.930 . S
C2514 C2509 1.390 . S
C2514 C2513 1.387 . S
H2515 C2527 0.930 . S
H2516 C2529 0.930 . S
H2517 C2530 0.930 . S
H2518 C2534 0.959 . S
H2519 C2534 0.959 . S
H2520 C2534 0.961 . S
H2521 C2535 0.960 . S
H2522 C2535 0.961 . S
H2523 C2535 0.959 . S
H2524 C2538 0.929 . S
H2525 C2539 0.931 . S
H2526 C2541 0.930 . S
C2527 H2515 0.930 . S
C2527 C2528 1.399 . S
C2527 C2532 1.399 . S
C2528 C2527 1.399 . S
C2528 C2529 1.376 . S
C2529 H2516 0.930 . S
C2529 C2528 1.376 . S
C2529 C2530 1.388 . S
C2530 H2517 0.930 . S
C2530 C2529 1.388 . S
C2530 C2531 1.390 . S
C2531 C2530 1.390 . S
C2531 C2532 1.394 . S
C2531 C2537 1.465 . S
C2532 C2527 1.399 . S
C2532 C2531 1.394 . S
C2532 C2533 1.516 . S
C2533 C2532 1.516 . S
C2533 C2534 1.502 . S
C2533 C2535 1.561 . S
C2533 C2536 1.526 . S
C2534 H2518 0.959 . S
C2534 H2519 0.959 . S
C2534 H2520 0.961 . S
C2534 C2533 1.502 . S
C2535 H2521 0.960 . S
C2535 H2522 0.961 . S
C2535 H2523 0.959 . S
C2535 C2533 1.561 . S
C2536 C2533 1.526 . S
C2536 C2537 1.396 . S
C2536 C2541 1.390 . S
C2537 C2531 1.465 . S
C2537 C2536 1.396 . S
C2537 C2538 1.399 . S
C2538 H2524 0.929 . S
C2538 C2537 1.399 . S
C2538 C2539 1.385 . S
C2539 H2525 0.931 . S
C2539 C2538 1.385 . S
C2539 C2540 1.389 . S
C2540 C2539 1.389 . S
C2540 C2541 1.387 . S
C2541 H2526 0.930 . S
C2541 C2536 1.390 . S
C2541 C2540 1.387 . S
H2542 C2554 0.930 . S
H2543 C2556 0.930 . S
H2544 C2557 0.930 . S
H2545 C2561 0.959 . S
H2546 C2561 0.959 . S
H2547 C2561 0.961 . S
H2548 C2562 0.960 . S
H2549 C2562 0.961 . S
H2550 C2562 0.959 . S
H2551 C2565 0.929 . S
H2552 C2566 0.931 . S
H2553 C2568 0.930 . S
C2554 H2542 0.930 . S
C2554 C2555 1.399 . S
C2554 C2559 1.399 . S
C2555 C2554 1.399 . S
C2555 C2556 1.376 . S
C2556 H2543 0.930 . S
C2556 C2555 1.376 . S
C2556 C2557 1.388 . S
C2557 H2544 0.930 . S
C2557 C2556 1.388 . S
C2557 C2558 1.390 . S
C2558 C2557 1.390 . S
C2558 C2559 1.394 . S
C2558 C2564 1.465 . S
C2559 C2554 1.399 . S
C2559 C2558 1.394 . S
C2559 C2560 1.516 . S
C2560 C2559 1.516 . S
C2560 C2561 1.502 . S
C2560 C2562 1.561 . S
C2560 C2563 1.526 . S
C2561 H2545 0.959 . S
C2561 H2546 0.959 . S
C2561 H2547 0.961 . S
C2561 C2560 1.502 . S
C2562 H2548 0.960 . S
C2562 H2549 0.961 . S
C2562 H2550 0.959 . S
C2562 C2560 1.561 . S
C2563 C2560 1.526 . S
C2563 C2564 1.396 . S
C2563 C2568 1.390 . S
C2564 C2558 1.465 . S
C2564 C2563 1.396 . S
C2564 C2565 1.399 . S
C2565 H2551 0.929 . S
C2565 C2564 1.399 . S
C2565 C2566 1.385 . S
C2566 H2552 0.931 . S
C2566 C2565 1.385 . S
C2566 C2567 1.389 . S
C2567 C2566 1.389 . S
C2567 C2568 1.387 . S
C2568 H2553 0.930 . S
C2568 C2563 1.390 . S
C2568 C2567 1.387 . S
H2569 C2581 0.930 . S
H2570 C2583 0.930 . S
H2571 C2584 0.930 . S
H2572 C2588 0.959 . S
H2573 C2588 0.959 . S
H2574 C2588 0.961 . S
H2575 C2589 0.960 . S
H2576 C2589 0.961 . S
H2577 C2589 0.959 . S
H2578 C2592 0.929 . S
H2579 C2593 0.931 . S
H2580 C2595 0.930 . S
C2581 H2569 0.930 . S
C2581 C2582 1.399 . S
C2581 C2586 1.399 . S
C2582 C2581 1.399 . S
C2582 C2583 1.376 . S
C2583 H2570 0.930 . S
C2583 C2582 1.376 . S
C2583 C2584 1.388 . S
C2584 H2571 0.930 . S
C2584 C2583 1.388 . S
C2584 C2585 1.390 . S
C2585 C2584 1.390 . S
C2585 C2586 1.394 . S
C2585 C2591 1.465 . S
C2586 C2581 1.399 . S
C2586 C2585 1.394 . S
C2586 C2587 1.516 . S
C2587 C2586 1.516 . S
C2587 C2588 1.502 . S
C2587 C2589 1.561 . S
C2587 C2590 1.526 . S
C2588 H2572 0.959 . S
C2588 H2573 0.959 . S
C2588 H2574 0.961 . S
C2588 C2587 1.502 . S
C2589 H2575 0.960 . S
C2589 H2576 0.961 . S
C2589 H2577 0.959 . S
C2589 C2587 1.561 . S
C2590 C2587 1.526 . S
C2590 C2591 1.396 . S
C2590 C2595 1.390 . S
C2591 C2585 1.465 . S
C2591 C2590 1.396 . S
C2591 C2592 1.399 . S
C2592 H2578 0.929 . S
C2592 C2591 1.399 . S
C2592 C2593 1.385 . S
C2593 H2579 0.931 . S
C2593 C2592 1.385 . S
C2593 C2594 1.389 . S
C2594 C2593 1.389 . S
C2594 C2595 1.387 . S
C2595 H2580 0.930 . S
C2595 C2590 1.390 . S
C2595 C2594 1.387 . S
H2596 C2608 0.930 . S
H2597 C2610 0.930 . S
H2598 C2611 0.930 . S
H2599 C2615 0.959 . S
H2600 C2615 0.959 . S
H2601 C2615 0.961 . S
H2602 C2616 0.960 . S
H2603 C2616 0.961 . S
H2604 C2616 0.959 . S
H2605 C2619 0.929 . S
H2606 C2620 0.931 . S
H2607 C2622 0.930 . S
C2608 H2596 0.930 . S
C2608 C2609 1.399 . S
C2608 C2613 1.399 . S
C2609 C2608 1.399 . S
C2609 C2610 1.376 . S
C2610 H2597 0.930 . S
C2610 C2609 1.376 . S
C2610 C2611 1.388 . S
C2611 H2598 0.930 . S
C2611 C2610 1.388 . S
C2611 C2612 1.390 . S
C2612 C2611 1.390 . S
C2612 C2613 1.394 . S
C2612 C2618 1.465 . S
C2613 C2608 1.399 . S
C2613 C2612 1.394 . S
C2613 C2614 1.516 . S
C2614 C2613 1.516 . S
C2614 C2615 1.502 . S
C2614 C2616 1.561 . S
C2614 C2617 1.526 . S
C2615 H2599 0.959 . S
C2615 H2600 0.959 . S
C2615 H2601 0.961 . S
C2615 C2614 1.502 . S
C2616 H2602 0.960 . S
C2616 H2603 0.961 . S
C2616 H2604 0.959 . S
C2616 C2614 1.561 . S
C2617 C2614 1.526 . S
C2617 C2618 1.396 . S
C2617 C2622 1.390 . S
C2618 C2612 1.465 . S
C2618 C2617 1.396 . S
C2618 C2619 1.399 . S
C2619 H2605 0.929 . S
C2619 C2618 1.399 . S
C2619 C2620 1.385 . S
C2620 H2606 0.931 . S
C2620 C2619 1.385 . S
C2620 C2621 1.389 . S
C2621 C2620 1.389 . S
C2621 C2622 1.387 . S
C2622 H2607 0.930 . S
C2622 C2617 1.390 . S
C2622 C2621 1.387 . S
H2623 C2635 0.930 . S
H2624 C2637 0.930 . S
H2625 C2638 0.930 . S
H2626 C2642 0.959 . S
H2627 C2642 0.959 . S
H2628 C2642 0.961 . S
H2629 C2643 0.960 . S
H2630 C2643 0.961 . S
H2631 C2643 0.959 . S
H2632 C2646 0.929 . S
H2633 C2647 0.931 . S
H2634 C2649 0.930 . S
C2635 H2623 0.930 . S
C2635 C2636 1.399 . S
C2635 C2640 1.399 . S
C2636 C2635 1.399 . S
C2636 C2637 1.376 . S
C2637 H2624 0.930 . S
C2637 C2636 1.376 . S
C2637 C2638 1.388 . S
C2638 H2625 0.930 . S
C2638 C2637 1.388 . S
C2638 C2639 1.390 . S
C2639 C2638 1.390 . S
C2639 C2640 1.394 . S
C2639 C2645 1.465 . S
C2640 C2635 1.399 . S
C2640 C2639 1.394 . S
C2640 C2641 1.516 . S
C2641 C2640 1.516 . S
C2641 C2642 1.502 . S
C2641 C2643 1.561 . S
C2641 C2644 1.526 . S
C2642 H2626 0.959 . S
C2642 H2627 0.959 . S
C2642 H2628 0.961 . S
C2642 C2641 1.502 . S
C2643 H2629 0.960 . S
C2643 H2630 0.961 . S
C2643 H2631 0.959 . S
C2643 C2641 1.561 . S
C2644 C2641 1.526 . S
C2644 C2645 1.396 . S
C2644 C2649 1.390 . S
C2645 C2639 1.465 . S
C2645 C2644 1.396 . S
C2645 C2646 1.399 . S
C2646 H2632 0.929 . S
C2646 C2645 1.399 . S
C2646 C2647 1.385 . S
C2647 H2633 0.931 . S
C2647 C2646 1.385 . S
C2647 C2648 1.389 . S
C2648 C2647 1.389 . S
C2648 C2649 1.387 . S
C2649 H2634 0.930 . S
C2649 C2644 1.390 . S
C2649 C2648 1.387 . S
H2650 C2662 0.930 . S
H2651 C2664 0.930 . S
H2652 C2665 0.930 . S
H2653 C2669 0.959 . S
H2654 C2669 0.959 . S
H2655 C2669 0.961 . S
H2656 C2670 0.960 . S
H2657 C2670 0.961 . S
H2658 C2670 0.959 . S
H2659 C2673 0.929 . S
H2660 C2674 0.931 . S
H2661 C2676 0.930 . S
C2662 H2650 0.930 . S
C2662 C2663 1.399 . S
C2662 C2667 1.399 . S
C2663 C2662 1.399 . S
C2663 C2664 1.376 . S
C2664 H2651 0.930 . S
C2664 C2663 1.376 . S
C2664 C2665 1.388 . S
C2665 H2652 0.930 . S
C2665 C2664 1.388 . S
C2665 C2666 1.390 . S
C2666 C2665 1.390 . S
C2666 C2667 1.394 . S
C2666 C2672 1.465 . S
C2667 C2662 1.399 . S
C2667 C2666 1.394 . S
C2667 C2668 1.516 . S
C2668 C2667 1.516 . S
C2668 C2669 1.502 . S
C2668 C2670 1.561 . S
C2668 C2671 1.526 . S
C2669 H2653 0.959 . S
C2669 H2654 0.959 . S
C2669 H2655 0.961 . S
C2669 C2668 1.502 . S
C2670 H2656 0.960 . S
C2670 H2657 0.961 . S
C2670 H2658 0.959 . S
C2670 C2668 1.561 . S
C2671 C2668 1.526 . S
C2671 C2672 1.396 . S
C2671 C2676 1.390 . S
C2672 C2666 1.465 . S
C2672 C2671 1.396 . S
C2672 C2673 1.399 . S
C2673 H2659 0.929 . S
C2673 C2672 1.399 . S
C2673 C2674 1.385 . S
C2674 H2660 0.931 . S
C2674 C2673 1.385 . S
C2674 C2675 1.389 . S
C2675 C2674 1.389 . S
C2675 C2676 1.387 . S
C2676 H2661 0.930 . S
C2676 C2671 1.390 . S
C2676 C2675 1.387 . S
H2677 C2689 0.930 . S
H2678 C2691 0.930 . S
H2679 C2692 0.930 . S
H2680 C2696 0.959 . S
H2681 C2696 0.959 . S
H2682 C2696 0.961 . S
H2683 C2697 0.960 . S
H2684 C2697 0.961 . S
H2685 C2697 0.959 . S
H2686 C2700 0.929 . S
H2687 C2701 0.931 . S
H2688 C2703 0.930 . S
C2689 H2677 0.930 . S
C2689 C2690 1.399 . S
C2689 C2694 1.399 . S
C2690 C2689 1.399 . S
C2690 C2691 1.376 . S
C2691 H2678 0.930 . S
C2691 C2690 1.376 . S
C2691 C2692 1.388 . S
C2692 H2679 0.930 . S
C2692 C2691 1.388 . S
C2692 C2693 1.390 . S
C2693 C2692 1.390 . S
C2693 C2694 1.394 . S
C2693 C2699 1.465 . S
C2694 C2689 1.399 . S
C2694 C2693 1.394 . S
C2694 C2695 1.516 . S
C2695 C2694 1.516 . S
C2695 C2696 1.502 . S
C2695 C2697 1.561 . S
C2695 C2698 1.526 . S
C2696 H2680 0.959 . S
C2696 H2681 0.959 . S
C2696 H2682 0.961 . S
C2696 C2695 1.502 . S
C2697 H2683 0.960 . S
C2697 H2684 0.961 . S
C2697 H2685 0.959 . S
C2697 C2695 1.561 . S
C2698 C2695 1.526 . S
C2698 C2699 1.396 . S
C2698 C2703 1.390 . S
C2699 C2693 1.465 . S
C2699 C2698 1.396 . S
C2699 C2700 1.399 . S
C2700 H2686 0.929 . S
C2700 C2699 1.399 . S
C2700 C2701 1.385 . S
C2701 H2687 0.931 . S
C2701 C2700 1.385 . S
C2701 C2702 1.389 . S
C2702 C2701 1.389 . S
C2702 C2703 1.387 . S
C2703 H2688 0.930 . S
C2703 C2698 1.390 . S
C2703 C2702 1.387 . S
H2704 C2716 0.930 . S
H2705 C2718 0.930 . S
H2706 C2719 0.930 . S
H2707 C2723 0.959 . S
H2708 C2723 0.959 . S
H2709 C2723 0.961 . S
H2710 C2724 0.960 . S
H2711 C2724 0.961 . S
H2712 C2724 0.959 . S
H2713 C2727 0.929 . S
H2714 C2728 0.931 . S
H2715 C2730 0.930 . S
C2716 H2704 0.930 . S
C2716 C2717 1.399 . S
C2716 C2721 1.399 . S
C2717 C2716 1.399 . S
C2717 C2718 1.376 . S
C2718 H2705 0.930 . S
C2718 C2717 1.376 . S
C2718 C2719 1.388 . S
C2719 H2706 0.930 . S
C2719 C2718 1.388 . S
C2719 C2720 1.390 . S
C2720 C2719 1.390 . S
C2720 C2721 1.394 . S
C2720 C2726 1.465 . S
C2721 C2716 1.399 . S
C2721 C2720 1.394 . S
C2721 C2722 1.516 . S
C2722 C2721 1.516 . S
C2722 C2723 1.502 . S
C2722 C2724 1.561 . S
C2722 C2725 1.526 . S
C2723 H2707 0.959 . S
C2723 H2708 0.959 . S
C2723 H2709 0.961 . S
C2723 C2722 1.502 . S
C2724 H2710 0.960 . S
C2724 H2711 0.961 . S
C2724 H2712 0.959 . S
C2724 C2722 1.561 . S
C2725 C2722 1.526 . S
C2725 C2726 1.396 . S
C2725 C2730 1.390 . S
C2726 C2720 1.465 . S
C2726 C2725 1.396 . S
C2726 C2727 1.399 . S
C2727 H2713 0.929 . S
C2727 C2726 1.399 . S
C2727 C2728 1.385 . S
C2728 H2714 0.931 . S
C2728 C2727 1.385 . S
C2728 C2729 1.389 . S
C2729 C2728 1.389 . S
C2729 C2730 1.387 . S
C2730 H2715 0.930 . S
C2730 C2725 1.390 . S
C2730 C2729 1.387 . S
H2731 C2743 0.930 . S
H2732 C2745 0.930 . S
H2733 C2746 0.930 . S
H2734 C2750 0.959 . S
H2735 C2750 0.959 . S
H2736 C2750 0.961 . S
H2737 C2751 0.960 . S
H2738 C2751 0.961 . S
H2739 C2751 0.959 . S
H2740 C2754 0.929 . S
H2741 C2755 0.931 . S
H2742 C2757 0.930 . S
C2743 H2731 0.930 . S
C2743 C2744 1.399 . S
C2743 C2748 1.399 . S
C2744 C2743 1.399 . S
C2744 C2745 1.376 . S
C2745 H2732 0.930 . S
C2745 C2744 1.376 . S
C2745 C2746 1.388 . S
C2746 H2733 0.930 . S
C2746 C2745 1.388 . S
C2746 C2747 1.390 . S
C2747 C2746 1.390 . S
C2747 C2748 1.394 . S
C2747 C2753 1.465 . S
C2748 C2743 1.399 . S
C2748 C2747 1.394 . S
C2748 C2749 1.516 . S
C2749 C2748 1.516 . S
C2749 C2750 1.502 . S
C2749 C2751 1.561 . S
C2749 C2752 1.526 . S
C2750 H2734 0.959 . S
C2750 H2735 0.959 . S
C2750 H2736 0.961 . S
C2750 C2749 1.502 . S
C2751 H2737 0.960 . S
C2751 H2738 0.961 . S
C2751 H2739 0.959 . S
C2751 C2749 1.561 . S
C2752 C2749 1.526 . S
C2752 C2753 1.396 . S
C2752 C2757 1.390 . S
C2753 C2747 1.465 . S
C2753 C2752 1.396 . S
C2753 C2754 1.399 . S
C2754 H2740 0.929 . S
C2754 C2753 1.399 . S
C2754 C2755 1.385 . S
C2755 H2741 0.931 . S
C2755 C2754 1.385 . S
C2755 C2756 1.389 . S
C2756 C2755 1.389 . S
C2756 C2757 1.387 . S
C2757 H2742 0.930 . S
C2757 C2752 1.390 . S
C2757 C2756 1.387 . S
H2758 C2770 0.930 . S
H2759 C2772 0.930 . S
H2760 C2773 0.930 . S
H2761 C2777 0.959 . S
H2762 C2777 0.959 . S
H2763 C2777 0.961 . S
H2764 C2778 0.960 . S
H2765 C2778 0.961 . S
H2766 C2778 0.959 . S
H2767 C2781 0.929 . S
H2768 C2782 0.931 . S
H2769 C2784 0.930 . S
C2770 H2758 0.930 . S
C2770 C2771 1.399 . S
C2770 C2775 1.399 . S
C2771 C2770 1.399 . S
C2771 C2772 1.376 . S
C2772 H2759 0.930 . S
C2772 C2771 1.376 . S
C2772 C2773 1.388 . S
C2773 H2760 0.930 . S
C2773 C2772 1.388 . S
C2773 C2774 1.390 . S
C2774 C2773 1.390 . S
C2774 C2775 1.394 . S
C2774 C2780 1.465 . S
C2775 C2770 1.399 . S
C2775 C2774 1.394 . S
C2775 C2776 1.516 . S
C2776 C2775 1.516 . S
C2776 C2777 1.502 . S
C2776 C2778 1.561 . S
C2776 C2779 1.526 . S
C2777 H2761 0.959 . S
C2777 H2762 0.959 . S
C2777 H2763 0.961 . S
C2777 C2776 1.502 . S
C2778 H2764 0.960 . S
C2778 H2765 0.961 . S
C2778 H2766 0.959 . S
C2778 C2776 1.561 . S
C2779 C2776 1.526 . S
C2779 C2780 1.396 . S
C2779 C2784 1.390 . S
C2780 C2774 1.465 . S
C2780 C2779 1.396 . S
C2780 C2781 1.399 . S
C2781 H2767 0.929 . S
C2781 C2780 1.399 . S
C2781 C2782 1.385 . S
C2782 H2768 0.931 . S
C2782 C2781 1.385 . S
C2782 C2783 1.389 . S
C2783 C2782 1.389 . S
C2783 C2784 1.387 . S
C2784 H2769 0.930 . S
C2784 C2779 1.390 . S
C2784 C2783 1.387 . S
H2785 C2797 0.930 1_556 S
H2786 C2799 0.930 . S
H2787 C2800 0.930 1_545 S
H2788 C2804 0.959 . S
H2789 C2804 0.959 . S
H2790 C2804 0.961 . S
H2791 C2805 0.960 . S
H2792 C2805 0.961 . S
H2793 C2805 0.959 . S
H2794 C2808 0.929 . S
H2795 C2809 0.931 . S
H2796 C2811 0.930 . S
C2797 H2785 0.930 1_554 S
C2797 C2798 1.399 . S
C2797 C2802 1.399 . S
C2798 C2797 1.399 . S
C2798 C2799 1.376 . S
C2799 H2786 0.930 . S
C2799 C2798 1.376 . S
C2799 C2800 1.388 . S
C2800 H2787 0.930 1_565 S
C2800 C2799 1.388 . S
C2800 C2801 1.390 . S
C2801 C2800 1.390 . S
C2801 C2802 1.394 . S
C2801 C2807 1.465 . S
C2802 C2797 1.399 . S
C2802 C2801 1.394 . S
C2802 C2803 1.516 . S
C2803 C2802 1.516 . S
C2803 C2804 1.502 . S
C2803 C2805 1.561 1_554 S
C2803 C2806 1.526 . S
C2804 H2788 0.959 . S
C2804 H2789 0.959 . S
C2804 H2790 0.961 . S
C2804 C2803 1.502 . S
C2805 H2791 0.960 . S
C2805 H2792 0.961 . S
C2805 H2793 0.959 . S
C2805 C2803 1.561 1_556 S
C2806 C2803 1.526 . S
C2806 C2807 1.396 . S
C2806 C2811 1.390 . S
C2807 C2801 1.465 . S
C2807 C2806 1.396 . S
C2807 C2808 1.399 1_565 S
C2808 H2794 0.929 . S
C2808 C2807 1.399 1_545 S
C2808 C2809 1.385 . S
C2809 H2795 0.931 . S
C2809 C2808 1.385 . S
C2809 C2810 1.389 . S
C2810 C2809 1.389 . S
C2810 C2811 1.387 1_545 S
C2811 H2796 0.930 . S
C2811 C2806 1.390 . S
C2811 C2810 1.387 1_565 S
H2812 C2824 0.930 . S
H2813 C2826 0.930 . S
H2814 C2827 0.930 . S
H2815 C2831 0.959 . S
H2816 C2831 0.959 . S
H2817 C2831 0.961 . S
H2818 C2832 0.960 . S
H2819 C2832 0.961 . S
H2820 C2832 0.959 . S
H2821 C2835 0.929 . S
H2822 C2836 0.931 . S
H2823 C2838 0.930 . S
C2824 H2812 0.930 . S
C2824 C2825 1.399 . S
C2824 C2829 1.399 . S
C2825 C2824 1.399 . S
C2825 C2826 1.376 . S
C2826 H2813 0.930 . S
C2826 C2825 1.376 . S
C2826 C2827 1.388 . S
C2827 H2814 0.930 . S
C2827 C2826 1.388 . S
C2827 C2828 1.390 . S
C2828 C2827 1.390 . S
C2828 C2829 1.394 . S
C2828 C2834 1.465 . S
C2829 C2824 1.399 . S
C2829 C2828 1.394 . S
C2829 C2830 1.516 . S
C2830 C2829 1.516 . S
C2830 C2831 1.502 . S
C2830 C2832 1.561 . S
C2830 C2833 1.526 . S
C2831 H2815 0.959 . S
C2831 H2816 0.959 . S
C2831 H2817 0.961 . S
C2831 C2830 1.502 . S
C2832 H2818 0.960 . S
C2832 H2819 0.961 . S
C2832 H2820 0.959 . S
C2832 C2830 1.561 . S
C2833 C2830 1.526 . S
C2833 C2834 1.396 . S
C2833 C2838 1.390 . S
C2834 C2828 1.465 . S
C2834 C2833 1.396 . S
C2834 C2835 1.399 . S
C2835 H2821 0.929 . S
C2835 C2834 1.399 . S
C2835 C2836 1.385 . S
C2836 H2822 0.931 . S
C2836 C2835 1.385 . S
C2836 C2837 1.389 . S
C2837 C2836 1.389 . S
C2837 C2838 1.387 . S
C2838 H2823 0.930 . S
C2838 C2833 1.390 . S
C2838 C2837 1.387 . S
H2839 C2851 0.930 . S
H2840 C2853 0.930 . S
H2841 C2854 0.930 . S
H2842 C2858 0.959 . S
H2843 C2858 0.959 . S
H2844 C2858 0.961 . S
H2845 C2859 0.960 1_556 S
H2846 C2859 0.964 . S
H2847 C2859 0.959 . S
H2848 C2862 0.929 . S
H2849 C2863 0.931 . S
H2850 C2865 0.930 . S
C2851 H2839 0.930 . S
C2851 C2852 1.399 . S
C2851 C2856 1.399 . S
C2852 C2851 1.399 . S
C2852 C2853 1.376 . S
C2853 H2840 0.930 . S
C2853 C2852 1.376 . S
C2853 C2854 1.388 . S
C2854 H2841 0.930 . S
C2854 C2853 1.388 . S
C2854 C2855 1.390 . S
C2855 C2854 1.390 . S
C2855 C2856 1.394 . S
C2855 C2861 1.465 . S
C2856 C2851 1.399 . S
C2856 C2855 1.394 . S
C2856 C2857 1.516 . S
C2857 C2856 1.516 . S
C2857 C2858 1.502 . S
C2857 C2859 1.561 . S
C2857 C2860 1.526 . S
C2858 H2842 0.959 . S
C2858 H2843 0.959 . S
C2858 H2844 0.961 . S
C2858 C2857 1.502 . S
C2859 H2845 0.960 1_554 S
C2859 H2846 0.964 . S
C2859 H2847 0.959 . S
C2859 C2857 1.561 . S
C2860 C2857 1.526 . S
C2860 C2861 1.396 . S
C2860 C2865 1.390 . S
C2861 C2855 1.465 . S
C2861 C2860 1.396 . S
C2861 C2862 1.399 . S
C2862 H2848 0.929 . S
C2862 C2861 1.399 . S
C2862 C2863 1.385 . S
C2863 H2849 0.931 . S
C2863 C2862 1.385 . S
C2863 C2864 1.389 . S
C2864 C2863 1.389 . S
C2864 C2865 1.387 . S
C2865 H2850 0.930 . S
C2865 C2860 1.390 . S
C2865 C2864 1.387 . S
H2866 C2878 0.930 . S
H2867 C2880 0.930 . S
H2868 C2881 0.930 . S
H2869 C2885 0.959 . S
H2870 C2885 0.959 . S
H2871 C2885 0.961 . S
H2872 C2886 0.960 . S
H2873 C2886 0.961 . S
H2874 C2886 0.959 . S
H2875 C2889 0.929 . S
H2876 C2890 0.931 . S
H2877 C2892 0.930 . S
C2878 H2866 0.930 . S
C2878 C2879 1.399 . S
C2878 C2883 1.399 . S
C2879 C2878 1.399 . S
C2879 C2880 1.376 . S
C2880 H2867 0.930 . S
C2880 C2879 1.376 . S
C2880 C2881 1.388 . S
C2881 H2868 0.930 . S
C2881 C2880 1.388 . S
C2881 C2882 1.390 . S
C2882 C2881 1.390 . S
C2882 C2883 1.394 . S
C2882 C2888 1.465 . S
C2883 C2878 1.399 . S
C2883 C2882 1.394 . S
C2883 C2884 1.516 . S
C2884 C2883 1.516 . S
C2884 C2885 1.502 . S
C2884 C2886 1.561 . S
C2884 C2887 1.526 . S
C2885 H2869 0.959 . S
C2885 H2870 0.959 . S
C2885 H2871 0.961 . S
C2885 C2884 1.502 . S
C2886 H2872 0.960 . S
C2886 H2873 0.961 . S
C2886 H2874 0.959 . S
C2886 C2884 1.561 . S
C2887 C2884 1.526 . S
C2887 C2888 1.396 . S
C2887 C2892 1.390 . S
C2888 C2882 1.465 . S
C2888 C2887 1.396 . S
C2888 C2889 1.399 . S
C2889 H2875 0.929 . S
C2889 C2888 1.399 . S
C2889 C2890 1.385 . S
C2890 H2876 0.931 . S
C2890 C2889 1.385 . S
C2890 C2891 1.389 . S
C2891 C2890 1.389 . S
C2891 C2892 1.387 . S
C2892 H2877 0.930 . S
C2892 C2887 1.390 . S
C2892 C2891 1.387 . S
H2893 C2905 0.930 . S
H2894 C2907 0.930 . S
H2895 C2908 0.930 . S
H2896 C2912 0.959 . S
H2897 C2912 0.959 . S
H2898 C2912 0.961 . S
H2899 C2913 0.960 . S
H2900 C2913 0.961 . S
H2901 C2913 0.959 . S
H2902 C2916 0.929 . S
H2903 C2917 0.931 . S
H2904 C2919 0.930 . S
C2905 H2893 0.930 . S
C2905 C2906 1.399 . S
C2905 C2910 1.399 . S
C2906 C2905 1.399 . S
C2906 C2907 1.376 . S
C2907 H2894 0.930 . S
C2907 C2906 1.376 . S
C2907 C2908 1.388 . S
C2908 H2895 0.930 . S
C2908 C2907 1.388 . S
C2908 C2909 1.390 . S
C2909 C2908 1.390 . S
C2909 C2910 1.394 . S
C2909 C2915 1.465 . S
C2910 C2905 1.399 . S
C2910 C2909 1.394 . S
C2910 C2911 1.516 . S
C2911 C2910 1.516 . S
C2911 C2912 1.502 . S
C2911 C2913 1.561 . S
C2911 C2914 1.526 . S
C2912 H2896 0.959 . S
C2912 H2897 0.959 . S
C2912 H2898 0.961 . S
C2912 C2911 1.502 . S
C2913 H2899 0.960 . S
C2913 H2900 0.961 . S
C2913 H2901 0.959 . S
C2913 C2911 1.561 . S
C2914 C2911 1.526 . S
C2914 C2915 1.396 . S
C2914 C2919 1.390 . S
C2915 C2909 1.465 . S
C2915 C2914 1.396 . S
C2915 C2916 1.399 . S
C2916 H2902 0.929 . S
C2916 C2915 1.399 . S
C2916 C2917 1.385 . S
C2917 H2903 0.931 . S
C2917 C2916 1.385 . S
C2917 C2918 1.389 . S
C2918 C2917 1.389 . S
C2918 C2919 1.387 . S
C2919 H2904 0.930 . S
C2919 C2914 1.390 . S
C2919 C2918 1.387 . S
H2920 C2932 0.930 . S
H2921 C2934 0.930 . S
H2922 C2935 0.930 . S
H2923 C2939 0.959 . S
H2924 C2939 0.959 . S
H2925 C2939 0.961 . S
H2926 C2940 0.960 . S
H2927 C2940 0.961 . S
H2928 C2940 0.959 . S
H2929 C2943 0.929 . S
H2930 C2944 0.931 . S
H2931 C2946 0.930 . S
C2932 H2920 0.930 . S
C2932 C2933 1.399 . S
C2932 C2937 1.399 . S
C2933 C2932 1.399 . S
C2933 C2934 1.376 . S
C2934 H2921 0.930 . S
C2934 C2933 1.376 . S
C2934 C2935 1.388 . S
C2935 H2922 0.930 . S
C2935 C2934 1.388 . S
C2935 C2936 1.390 . S
C2936 C2935 1.390 . S
C2936 C2937 1.394 . S
C2936 C2942 1.465 . S
C2937 C2932 1.399 . S
C2937 C2936 1.394 . S
C2937 C2938 1.516 . S
C2938 C2937 1.516 . S
C2938 C2939 1.502 . S
C2938 C2940 1.561 . S
C2938 C2941 1.526 . S
C2939 H2923 0.959 . S
C2939 H2924 0.959 . S
C2939 H2925 0.961 . S
C2939 C2938 1.502 . S
C2940 H2926 0.960 . S
C2940 H2927 0.961 . S
C2940 H2928 0.959 . S
C2940 C2938 1.561 . S
C2941 C2938 1.526 . S
C2941 C2942 1.396 . S
C2941 C2946 1.390 . S
C2942 C2936 1.465 . S
C2942 C2941 1.396 . S
C2942 C2943 1.399 . S
C2943 H2929 0.929 . S
C2943 C2942 1.399 . S
C2943 C2944 1.385 . S
C2944 H2930 0.931 . S
C2944 C2943 1.385 . S
C2944 C2945 1.389 . S
C2945 C2944 1.389 . S
C2945 C2946 1.387 . S
C2946 H2931 0.930 . S
C2946 C2941 1.390 . S
C2946 C2945 1.387 . S
H2947 C2959 0.930 . S
H2948 C2961 0.930 . S
H2949 C2962 0.930 . S
H2950 C2966 0.959 . S
H2951 C2966 0.959 . S
H2952 C2966 0.961 . S
H2953 C2967 0.960 . S
H2954 C2967 0.961 . S
H2955 C2967 0.959 . S
H2956 C2970 0.929 . S
H2957 C2971 0.931 . S
H2958 C2973 0.930 . S
C2959 H2947 0.930 . S
C2959 C2960 1.399 . S
C2959 C2964 1.399 . S
C2960 C2959 1.399 . S
C2960 C2961 1.376 . S
C2961 H2948 0.930 . S
C2961 C2960 1.376 . S
C2961 C2962 1.388 . S
C2962 H2949 0.930 . S
C2962 C2961 1.388 . S
C2962 C2963 1.390 . S
C2963 C2962 1.390 . S
C2963 C2964 1.394 . S
C2963 C2969 1.465 . S
C2964 C2959 1.399 . S
C2964 C2963 1.394 . S
C2964 C2965 1.516 . S
C2965 C2964 1.516 . S
C2965 C2966 1.502 . S
C2965 C2967 1.561 . S
C2965 C2968 1.526 . S
C2966 H2950 0.959 . S
C2966 H2951 0.959 . S
C2966 H2952 0.961 . S
C2966 C2965 1.502 . S
C2967 H2953 0.960 . S
C2967 H2954 0.961 . S
C2967 H2955 0.959 . S
C2967 C2965 1.561 . S
C2968 C2965 1.526 . S
C2968 C2969 1.396 . S
C2968 C2973 1.390 . S
C2969 C2963 1.465 . S
C2969 C2968 1.396 . S
C2969 C2970 1.399 . S
C2970 H2956 0.929 . S
C2970 C2969 1.399 . S
C2970 C2971 1.385 . S
C2971 H2957 0.931 . S
C2971 C2970 1.385 . S
C2971 C2972 1.389 . S
C2972 C2971 1.389 . S
C2972 C2973 1.387 . S
C2973 H2958 0.930 . S
C2973 C2968 1.390 . S
C2973 C2972 1.387 . S
H2974 C2986 0.930 . S
H2975 C2988 0.930 . S
H2976 C2989 0.930 . S
H2977 C2993 0.959 . S
H2978 C2993 0.959 . S
H2979 C2993 0.961 . S
H2980 C2994 0.960 . S
H2981 C2994 0.961 . S
H2982 C2994 0.959 . S
H2983 C2997 0.929 . S
H2984 C2998 0.931 . S
H2985 C3000 0.930 . S
C2986 H2974 0.930 . S
C2986 C2987 1.399 . S
C2986 C2991 1.399 . S
C2987 C2986 1.399 . S
C2987 C2988 1.376 . S
C2988 H2975 0.930 . S
C2988 C2987 1.376 . S
C2988 C2989 1.388 . S
C2989 H2976 0.930 . S
C2989 C2988 1.388 . S
C2989 C2990 1.390 . S
C2990 C2989 1.390 . S
C2990 C2991 1.394 . S
C2990 C2996 1.465 . S
C2991 C2986 1.399 . S
C2991 C2990 1.394 . S
C2991 C2992 1.516 . S
C2992 C2991 1.516 . S
C2992 C2993 1.502 . S
C2992 C2994 1.561 . S
C2992 C2995 1.526 . S
C2993 H2977 0.959 . S
C2993 H2978 0.959 . S
C2993 H2979 0.961 . S
C2993 C2992 1.502 . S
C2994 H2980 0.960 . S
C2994 H2981 0.961 . S
C2994 H2982 0.959 . S
C2994 C2992 1.561 . S
C2995 C2992 1.526 . S
C2995 C2996 1.396 . S
C2995 C3000 1.390 . S
C2996 C2990 1.465 . S
C2996 C2995 1.396 . S
C2996 C2997 1.399 . S
C2997 H2983 0.929 . S
C2997 C2996 1.399 . S
C2997 C2998 1.385 . S
C2998 H2984 0.931 . S
C2998 C2997 1.385 . S
C2998 C2999 1.389 . S
C2999 C2998 1.389 . S
C2999 C3000 1.387 . S
C3000 H2985 0.930 . S
C3000 C2995 1.390 . S
C3000 C2999 1.387 . S
H3001 C3013 0.930 . S
H3002 C3015 0.930 . S
H3003 C3016 0.930 . S
H3004 C3020 0.959 . S
H3005 C3020 0.959 . S
H3006 C3020 0.961 . S
H3007 C3021 0.960 . S
H3008 C3021 0.961 . S
H3009 C3021 0.959 . S
H3010 C3024 0.929 . S
H3011 C3025 0.931 . S
H3012 C3027 0.930 . S
C3013 H3001 0.930 . S
C3013 C3014 1.399 . S
C3013 C3018 1.399 . S
C3014 C3013 1.399 . S
C3014 C3015 1.376 . S
C3015 H3002 0.930 . S
C3015 C3014 1.376 . S
C3015 C3016 1.388 . S
C3016 H3003 0.930 . S
C3016 C3015 1.388 . S
C3016 C3017 1.390 . S
C3017 C3016 1.390 . S
C3017 C3018 1.394 . S
C3017 C3023 1.465 . S
C3018 C3013 1.399 . S
C3018 C3017 1.394 . S
C3018 C3019 1.516 . S
C3019 C3018 1.516 . S
C3019 C3020 1.502 . S
C3019 C3021 1.561 . S
C3019 C3022 1.526 . S
C3020 H3004 0.959 . S
C3020 H3005 0.959 . S
C3020 H3006 0.961 . S
C3020 C3019 1.502 . S
C3021 H3007 0.960 . S
C3021 H3008 0.961 . S
C3021 H3009 0.959 . S
C3021 C3019 1.561 . S
C3022 C3019 1.526 . S
C3022 C3023 1.396 . S
C3022 C3027 1.390 . S
C3023 C3017 1.465 . S
C3023 C3022 1.396 . S
C3023 C3024 1.399 . S
C3024 H3010 0.929 . S
C3024 C3023 1.399 . S
C3024 C3025 1.385 . S
C3025 H3011 0.931 . S
C3025 C3024 1.385 . S
C3025 C3026 1.389 . S
C3026 C3025 1.389 . S
C3026 C3027 1.387 . S
C3027 H3012 0.930 . S
C3027 C3022 1.390 . S
C3027 C3026 1.387 . S
H3028 C3040 0.930 . S
H3029 C3042 0.930 . S
H3030 C3043 0.930 . S
H3031 C3047 0.959 . S
H3032 C3047 0.959 . S
H3033 C3047 0.961 . S
H3034 C3048 0.960 . S
H3035 C3048 0.961 . S
H3036 C3048 0.959 . S
H3037 C3051 0.954 . S
H3038 C3052 0.931 1_554 S
H3039 C3054 0.930 . S
C3040 H3028 0.930 . S
C3040 C3041 1.399 . S
C3040 C3045 1.399 . S
C3041 C3040 1.399 . S
C3041 C3042 1.376 . S
C3042 H3029 0.930 . S
C3042 C3041 1.376 . S
C3042 C3043 1.388 . S
C3043 H3030 0.930 . S
C3043 C3042 1.388 . S
C3043 C3044 1.390 . S
C3044 C3043 1.390 . S
C3044 C3045 1.394 . S
C3044 C3050 1.465 . S
C3045 C3040 1.399 . S
C3045 C3044 1.394 . S
C3045 C3046 1.516 . S
C3046 C3045 1.516 . S
C3046 C3047 1.502 . S
C3046 C3048 1.561 . S
C3046 C3049 1.526 . S
C3047 H3031 0.959 . S
C3047 H3032 0.959 . S
C3047 H3033 0.961 . S
C3047 C3046 1.502 . S
C3048 H3034 0.960 . S
C3048 H3035 0.961 . S
C3048 H3036 0.959 . S
C3048 C3046 1.561 . S
C3049 C3046 1.526 . S
C3049 C3050 1.396 . S
C3049 C3054 1.390 . S
C3050 C3044 1.465 . S
C3050 C3049 1.396 . S
C3050 C3051 1.399 . S
C3051 H3037 0.954 . S
C3051 C3050 1.399 . S
C3051 C3052 1.385 . S
C3052 H3038 0.931 1_556 S
C3052 C3051 1.385 . S
C3052 C3053 1.389 . S
C3053 C3052 1.389 . S
C3053 C3054 1.387 . S
C3054 H3039 0.930 . S
C3054 C3049 1.390 . S
C3054 C3053 1.387 . S
H3055 C3067 0.930 . S
H3056 C3069 0.930 . S
H3057 C3070 0.930 . S
H3058 C3074 0.959 . S
H3059 C3074 0.959 . S
H3060 C3074 0.961 . S
H3061 C3075 0.960 . S
H3062 C3075 0.961 . S
H3063 C3075 0.959 . S
H3064 C3078 0.929 . S
H3065 C3079 0.931 . S
H3066 C3081 0.930 . S
C3067 H3055 0.930 . S
C3067 C3068 1.399 . S
C3067 C3072 1.399 . S
C3068 C3067 1.399 . S
C3068 C3069 1.376 . S
C3069 H3056 0.930 . S
C3069 C3068 1.376 . S
C3069 C3070 1.388 . S
C3070 H3057 0.930 . S
C3070 C3069 1.388 . S
C3070 C3071 1.390 . S
C3071 C3070 1.390 . S
C3071 C3072 1.394 . S
C3071 C3077 1.465 . S
C3072 C3067 1.399 . S
C3072 C3071 1.394 . S
C3072 C3073 1.516 . S
C3073 C3072 1.516 . S
C3073 C3074 1.502 . S
C3073 C3075 1.561 . S
C3073 C3076 1.526 . S
C3074 H3058 0.959 . S
C3074 H3059 0.959 . S
C3074 H3060 0.961 . S
C3074 C3073 1.502 . S
C3075 H3061 0.960 . S
C3075 H3062 0.961 . S
C3075 H3063 0.959 . S
C3075 C3073 1.561 . S
C3076 C3073 1.526 . S
C3076 C3077 1.396 . S
C3076 C3081 1.390 . S
C3077 C3071 1.465 . S
C3077 C3076 1.396 . S
C3077 C3078 1.399 . S
C3078 H3064 0.929 . S
C3078 C3077 1.399 . S
C3078 C3079 1.385 . S
C3079 H3065 0.931 . S
C3079 C3078 1.385 . S
C3079 C3080 1.389 . S
C3080 C3079 1.389 . S
C3080 C3081 1.387 . S
C3081 H3066 0.930 . S
C3081 C3076 1.390 . S
C3081 C3080 1.387 . S
H3082 C3094 0.930 . S
H3083 C3096 0.930 . S
H3084 C3097 0.930 . S
H3085 C3101 0.959 . S
H3086 C3101 0.959 . S
H3087 C3101 0.961 . S
H3088 C3102 0.960 . S
H3089 C3102 0.961 . S
H3090 C3102 0.959 . S
H3091 C3105 0.929 . S
H3092 C3106 0.931 . S
H3093 C3108 0.930 . S
C3094 H3082 0.930 . S
C3094 C3095 1.399 . S
C3094 C3099 1.399 . S
C3095 C3094 1.399 . S
C3095 C3096 1.376 . S
C3096 H3083 0.930 . S
C3096 C3095 1.376 . S
C3096 C3097 1.388 . S
C3097 H3084 0.930 . S
C3097 C3096 1.388 . S
C3097 C3098 1.390 . S
C3098 C3097 1.390 . S
C3098 C3099 1.394 . S
C3098 C3104 1.465 . S
C3099 C3094 1.399 . S
C3099 C3098 1.394 . S
C3099 C3100 1.516 . S
C3100 C3099 1.516 . S
C3100 C3101 1.502 . S
C3100 C3102 1.561 . S
C3100 C3103 1.526 . S
C3101 H3085 0.959 . S
C3101 H3086 0.959 . S
C3101 H3087 0.961 . S
C3101 C3100 1.502 . S
C3102 H3088 0.960 . S
C3102 H3089 0.961 . S
C3102 H3090 0.959 . S
C3102 C3100 1.561 . S
C3103 C3100 1.526 . S
C3103 C3104 1.396 . S
C3103 C3108 1.390 . S
C3104 C3098 1.465 . S
C3104 C3103 1.396 . S
C3104 C3105 1.399 . S
C3105 H3091 0.929 . S
C3105 C3104 1.399 . S
C3105 C3106 1.385 . S
C3106 H3092 0.931 . S
C3106 C3105 1.385 . S
C3106 C3107 1.389 . S
C3107 C3106 1.389 . S
C3107 C3108 1.387 . S
C3108 H3093 0.930 . S
C3108 C3103 1.390 . S
C3108 C3107 1.387 . S
H3109 C3121 0.930 . S
H3110 C3123 0.930 . S
H3111 C3124 0.930 . S
H3112 C3128 0.959 . S
H3113 C3128 0.959 . S
H3114 C3128 0.961 . S
H3115 C3129 0.960 . S
H3116 C3129 0.961 . S
H3117 C3129 0.959 . S
H3118 C3132 0.929 . S
H3119 C3133 0.931 . S
H3120 C3135 0.930 . S
C3121 H3109 0.930 . S
C3121 C3122 1.399 . S
C3121 C3126 1.399 . S
C3122 C3121 1.399 . S
C3122 C3123 1.376 . S
C3123 H3110 0.930 . S
C3123 C3122 1.376 . S
C3123 C3124 1.388 . S
C3124 H3111 0.930 . S
C3124 C3123 1.388 . S
C3124 C3125 1.390 . S
C3125 C3124 1.390 . S
C3125 C3126 1.394 . S
C3125 C3131 1.465 . S
C3126 C3121 1.399 . S
C3126 C3125 1.394 . S
C3126 C3127 1.516 . S
C3127 C3126 1.516 . S
C3127 C3128 1.502 . S
C3127 C3129 1.561 . S
C3127 C3130 1.526 . S
C3128 H3112 0.959 . S
C3128 H3113 0.959 . S
C3128 H3114 0.961 . S
C3128 C3127 1.502 . S
C3129 H3115 0.960 . S
C3129 H3116 0.961 . S
C3129 H3117 0.959 . S
C3129 C3127 1.561 . S
C3130 C3127 1.526 . S
C3130 C3131 1.396 . S
C3130 C3135 1.390 . S
C3131 C3125 1.465 . S
C3131 C3130 1.396 . S
C3131 C3132 1.399 . S
C3132 H3118 0.929 . S
C3132 C3131 1.399 . S
C3132 C3133 1.385 . S
C3133 H3119 0.931 . S
C3133 C3132 1.385 . S
C3133 C3134 1.389 . S
C3134 C3133 1.389 . S
C3134 C3135 1.387 . S
C3135 H3120 0.930 . S
C3135 C3130 1.390 . S
C3135 C3134 1.387 . S
H3136 C3148 0.930 . S
H3137 C3150 0.930 . S
H3138 C3151 0.930 . S
H3139 C3155 0.959 . S
H3140 C3155 0.959 . S
H3141 C3155 0.961 . S
H3142 C3156 0.960 . S
H3143 C3156 0.961 . S
H3144 C3156 0.959 . S
H3145 C3159 0.929 . S
H3146 C3160 0.931 . S
H3147 C3162 0.930 . S
C3148 H3136 0.930 . S
C3148 C3149 1.399 . S
C3148 C3153 1.399 . S
C3149 C3148 1.399 . S
C3149 C3150 1.376 . S
C3150 H3137 0.930 . S
C3150 C3149 1.376 . S
C3150 C3151 1.388 . S
C3151 H3138 0.930 . S
C3151 C3150 1.388 . S
C3151 C3152 1.390 . S
C3152 C3151 1.390 . S
C3152 C3153 1.394 . S
C3152 C3158 1.465 . S
C3153 C3148 1.399 . S
C3153 C3152 1.394 . S
C3153 C3154 1.516 . S
C3154 C3153 1.516 . S
C3154 C3155 1.502 . S
C3154 C3156 1.561 . S
C3154 C3157 1.526 . S
C3155 H3139 0.959 . S
C3155 H3140 0.959 . S
C3155 H3141 0.961 . S
C3155 C3154 1.502 . S
C3156 H3142 0.960 . S
C3156 H3143 0.961 . S
C3156 H3144 0.959 . S
C3156 C3154 1.561 . S
C3157 C3154 1.526 . S
C3157 C3158 1.396 . S
C3157 C3162 1.390 . S
C3158 C3152 1.465 . S
C3158 C3157 1.396 . S
C3158 C3159 1.399 . S
C3159 H3145 0.929 . S
C3159 C3158 1.399 . S
C3159 C3160 1.385 . S
C3160 H3146 0.931 . S
C3160 C3159 1.385 . S
C3160 C3161 1.389 . S
C3161 C3160 1.389 . S
C3161 C3162 1.387 . S
C3162 H3147 0.930 . S
C3162 C3157 1.390 . S
C3162 C3161 1.387 . S
H3163 C3175 0.930 . S
H3164 C3177 0.930 . S
H3165 C3178 0.930 . S
H3166 C3182 0.959 . S
H3167 C3182 0.959 . S
H3168 C3182 0.961 . S
H3169 C3183 0.960 . S
H3170 C3183 0.961 . S
H3171 C3183 0.959 . S
H3172 C3186 0.929 . S
H3173 C3187 0.931 . S
H3174 C3189 0.930 . S
C3175 H3163 0.930 . S
C3175 C3176 1.399 . S
C3175 C3180 1.399 . S
C3176 C3175 1.399 . S
C3176 C3177 1.376 . S
C3177 H3164 0.930 . S
C3177 C3176 1.376 . S
C3177 C3178 1.388 . S
C3178 H3165 0.930 . S
C3178 C3177 1.388 . S
C3178 C3179 1.390 . S
C3179 C3178 1.390 . S
C3179 C3180 1.394 . S
C3179 C3185 1.465 . S
C3180 C3175 1.399 . S
C3180 C3179 1.394 . S
C3180 C3181 1.516 . S
C3181 C3180 1.516 . S
C3181 C3182 1.502 . S
C3181 C3183 1.561 . S
C3181 C3184 1.526 . S
C3182 H3166 0.959 . S
C3182 H3167 0.959 . S
C3182 H3168 0.961 . S
C3182 C3181 1.502 . S
C3183 H3169 0.960 . S
C3183 H3170 0.961 . S
C3183 H3171 0.959 . S
C3183 C3181 1.561 . S
C3184 C3181 1.526 . S
C3184 C3185 1.396 . S
C3184 C3189 1.390 . S
C3185 C3179 1.465 . S
C3185 C3184 1.396 . S
C3185 C3186 1.399 . S
C3186 H3172 0.929 . S
C3186 C3185 1.399 . S
C3186 C3187 1.385 . S
C3187 H3173 0.931 . S
C3187 C3186 1.385 . S
C3187 C3188 1.389 . S
C3188 C3187 1.389 . S
C3188 C3189 1.387 . S
C3189 H3174 0.930 . S
C3189 C3184 1.390 . S
C3189 C3188 1.387 . S
H3190 C3202 0.930 . S
H3191 C3204 0.930 . S
H3192 C3205 0.930 . S
H3193 C3209 0.959 . S
H3194 C3209 0.959 . S
H3195 C3209 0.961 . S
H3196 C3210 0.960 . S
H3197 C3210 0.961 . S
H3198 C3210 0.959 . S
H3199 C3213 0.929 . S
H3200 C3214 0.932 1_655 S
H3201 C3216 0.930 . S
C3202 H3190 0.930 . S
C3202 C3203 1.399 . S
C3202 C3207 1.399 . S
C3203 C3202 1.399 . S
C3203 C3204 1.376 . S
C3204 H3191 0.930 . S
C3204 C3203 1.376 . S
C3204 C3205 1.388 . S
C3205 H3192 0.930 . S
C3205 C3204 1.388 . S
C3205 C3206 1.390 . S
C3206 C3205 1.390 . S
C3206 C3207 1.394 . S
C3206 C3212 1.465 . S
C3207 C3202 1.399 . S
C3207 C3206 1.394 . S
C3207 C3208 1.516 1_655 S
C3208 C3207 1.516 1_455 S
C3208 C3209 1.502 . S
C3208 C3210 1.561 . S
C3208 C3211 1.526 . S
C3209 H3193 0.959 . S
C3209 H3194 0.959 . S
C3209 H3195 0.961 . S
C3209 C3208 1.502 . S
C3210 H3196 0.960 . S
C3210 H3197 0.961 . S
C3210 H3198 0.959 . S
C3210 C3208 1.561 . S
C3211 C3208 1.526 . S
C3211 C3212 1.396 1_455 S
C3211 C3216 1.390 . S
C3212 C3206 1.465 . S
C3212 C3211 1.396 1_655 S
C3212 C3213 1.399 . S
C3213 H3199 0.929 . S
C3213 C3212 1.399 . S
C3213 C3214 1.385 1_655 S
C3214 H3200 0.932 1_455 S
C3214 C3213 1.385 1_455 S
C3214 C3215 1.389 . S
C3215 C3214 1.389 . S
C3215 C3216 1.387 . S
C3216 H3201 0.930 . S
C3216 C3211 1.390 . S
C3216 C3215 1.387 . S
H3217 C3229 0.930 . S
H3218 C3231 0.930 . S
H3219 C3232 0.930 . S
H3220 C3236 0.959 . S
H3221 C3236 0.959 . S
H3222 C3236 0.961 . S
H3223 C3237 0.960 . S
H3224 C3237 0.961 . S
H3225 C3237 0.959 . S
H3226 C3240 0.929 . S
H3227 C3241 0.931 . S
H3228 C3243 0.930 . S
C3229 H3217 0.930 . S
C3229 C3230 1.399 . S
C3229 C3234 1.399 . S
C3230 C3229 1.399 . S
C3230 C3231 1.376 . S
C3231 H3218 0.930 . S
C3231 C3230 1.376 . S
C3231 C3232 1.388 . S
C3232 H3219 0.930 . S
C3232 C3231 1.388 . S
C3232 C3233 1.390 . S
C3233 C3232 1.390 . S
C3233 C3234 1.394 . S
C3233 C3239 1.465 . S
C3234 C3229 1.399 . S
C3234 C3233 1.394 . S
C3234 C3235 1.516 . S
C3235 C3234 1.516 . S
C3235 C3236 1.502 . S
C3235 C3237 1.561 . S
C3235 C3238 1.526 . S
C3236 H3220 0.959 . S
C3236 H3221 0.959 . S
C3236 H3222 0.961 . S
C3236 C3235 1.502 . S
C3237 H3223 0.960 . S
C3237 H3224 0.961 . S
C3237 H3225 0.959 . S
C3237 C3235 1.561 . S
C3238 C3235 1.526 . S
C3238 C3239 1.396 . S
C3238 C3243 1.390 . S
C3239 C3233 1.465 . S
C3239 C3238 1.396 . S
C3239 C3240 1.399 . S
C3240 H3226 0.929 . S
C3240 C3239 1.399 . S
C3240 C3241 1.385 . S
C3241 H3227 0.931 . S
C3241 C3240 1.385 . S
C3241 C3242 1.389 . S
C3242 C3241 1.389 . S
C3242 C3243 1.387 . S
C3243 H3228 0.930 . S
C3243 C3238 1.390 . S
C3243 C3242 1.387 . S
H3244 C3256 0.930 . S
H3245 C3258 0.930 . S
H3246 C3259 0.930 . S
H3247 C3263 0.959 . S
H3248 C3263 0.959 . S
H3249 C3263 0.961 . S
H3250 C3264 0.960 . S
H3251 C3264 0.961 . S
H3252 C3264 0.959 . S
H3253 C3267 0.929 . S
H3254 C3268 0.931 . S
H3255 C3270 0.930 . S
C3256 H3244 0.930 . S
C3256 C3257 1.399 . S
C3256 C3261 1.399 . S
C3257 C3256 1.399 . S
C3257 C3258 1.376 . S
C3258 H3245 0.930 . S
C3258 C3257 1.376 . S
C3258 C3259 1.388 . S
C3259 H3246 0.930 . S
C3259 C3258 1.388 . S
C3259 C3260 1.390 . S
C3260 C3259 1.390 . S
C3260 C3261 1.394 . S
C3260 C3266 1.465 . S
C3261 C3256 1.399 . S
C3261 C3260 1.394 . S
C3261 C3262 1.516 . S
C3262 C3261 1.516 . S
C3262 C3263 1.502 . S
C3262 C3264 1.561 . S
C3262 C3265 1.526 . S
C3263 H3247 0.959 . S
C3263 H3248 0.959 . S
C3263 H3249 0.961 . S
C3263 C3262 1.502 . S
C3264 H3250 0.960 . S
C3264 H3251 0.961 . S
C3264 H3252 0.959 . S
C3264 C3262 1.561 . S
C3265 C3262 1.526 . S
C3265 C3266 1.396 . S
C3265 C3270 1.390 . S
C3266 C3260 1.465 . S
C3266 C3265 1.396 . S
C3266 C3267 1.399 . S
C3267 H3253 0.929 . S
C3267 C3266 1.399 . S
C3267 C3268 1.385 . S
C3268 H3254 0.931 . S
C3268 C3267 1.385 . S
C3268 C3269 1.389 . S
C3269 C3268 1.389 . S
C3269 C3270 1.387 . S
C3270 H3255 0.930 . S
C3270 C3265 1.390 . S
C3270 C3269 1.387 . S
H3271 C3283 0.930 . S
H3272 C3285 0.930 . S
H3273 C3286 0.930 . S
H3274 C3290 0.959 . S
H3275 C3290 0.959 . S
H3276 C3290 0.961 . S
H3277 C3291 0.960 . S
H3278 C3291 0.961 . S
H3279 C3291 0.959 . S
H3280 C3294 0.929 . S
H3281 C3295 0.931 . S
H3282 C3297 0.930 . S
C3283 H3271 0.930 . S
C3283 C3284 1.399 . S
C3283 C3288 1.399 . S
C3284 C3283 1.399 . S
C3284 C3285 1.376 . S
C3285 H3272 0.930 . S
C3285 C3284 1.376 . S
C3285 C3286 1.388 . S
C3286 H3273 0.930 . S
C3286 C3285 1.388 . S
C3286 C3287 1.390 . S
C3287 C3286 1.390 . S
C3287 C3288 1.394 . S
C3287 C3293 1.465 . S
C3288 C3283 1.399 . S
C3288 C3287 1.394 . S
C3288 C3289 1.516 . S
C3289 C3288 1.516 . S
C3289 C3290 1.502 . S
C3289 C3291 1.561 . S
C3289 C3292 1.526 . S
C3290 H3274 0.959 . S
C3290 H3275 0.959 . S
C3290 H3276 0.961 . S
C3290 C3289 1.502 . S
C3291 H3277 0.960 . S
C3291 H3278 0.961 . S
C3291 H3279 0.959 . S
C3291 C3289 1.561 . S
C3292 C3289 1.526 . S
C3292 C3293 1.396 . S
C3292 C3297 1.390 . S
C3293 C3287 1.465 . S
C3293 C3292 1.396 . S
C3293 C3294 1.399 . S
C3294 H3280 0.929 . S
C3294 C3293 1.399 . S
C3294 C3295 1.385 . S
C3295 H3281 0.931 . S
C3295 C3294 1.385 . S
C3295 C3296 1.389 . S
C3296 C3295 1.389 . S
C3296 C3297 1.387 . S
C3297 H3282 0.930 . S
C3297 C3292 1.390 . S
C3297 C3296 1.387 . S
H3298 C3310 0.930 . S
H3299 C3312 0.930 . S
H3300 C3313 0.930 . S
H3301 C3317 0.959 . S
H3302 C3317 0.959 . S
H3303 C3317 0.961 . S
H3304 C3318 0.960 . S
H3305 C3318 0.974 . S
H3306 C3318 0.959 1_455 S
H3307 C3321 0.929 . S
H3308 C3322 0.931 . S
H3309 C3324 0.930 . S
C3310 H3298 0.930 . S
C3310 C3311 1.399 . S
C3310 C3315 1.399 . S
C3311 C3310 1.399 . S
C3311 C3312 1.376 . S
C3312 H3299 0.930 . S
C3312 C3311 1.376 . S
C3312 C3313 1.388 . S
C3313 H3300 0.930 . S
C3313 C3312 1.388 . S
C3313 C3314 1.390 . S
C3314 C3313 1.390 . S
C3314 C3315 1.394 . S
C3314 C3320 1.465 . S
C3315 C3310 1.399 . S
C3315 C3314 1.394 . S
C3315 C3316 1.516 . S
C3316 C3315 1.516 . S
C3316 C3317 1.502 . S
C3316 C3318 1.561 . S
C3316 C3319 1.526 . S
C3317 H3301 0.959 . S
C3317 H3302 0.959 . S
C3317 H3303 0.961 . S
C3317 C3316 1.502 . S
C3318 H3304 0.960 . S
C3318 H3305 0.974 . S
C3318 H3306 0.959 1_655 S
C3318 C3316 1.561 . S
C3319 C3316 1.526 . S
C3319 C3320 1.396 . S
C3319 C3324 1.390 . S
C3320 C3314 1.465 . S
C3320 C3319 1.396 . S
C3320 C3321 1.399 . S
C3321 H3307 0.929 . S
C3321 C3320 1.399 . S
C3321 C3322 1.385 . S
C3322 H3308 0.931 . S
C3322 C3321 1.385 . S
C3322 C3323 1.389 . S
C3323 C3322 1.389 . S
C3323 C3324 1.387 . S
C3324 H3309 0.930 . S
C3324 C3319 1.390 . S
C3324 C3323 1.387 . S
H3325 C3337 0.930 . S
H3326 C3339 0.930 . S
H3327 C3340 0.930 . S
H3328 C3344 0.959 . S
H3329 C3344 0.959 . S
H3330 C3344 0.961 . S
H3331 C3345 0.960 . S
H3332 C3345 0.961 . S
H3333 C3345 0.959 . S
H3334 C3348 0.929 . S
H3335 C3349 0.931 . S
H3336 C3351 0.930 . S
C3337 H3325 0.930 . S
C3337 C3338 1.399 . S
C3337 C3342 1.399 . S
C3338 C3337 1.399 . S
C3338 C3339 1.376 . S
C3339 H3326 0.930 . S
C3339 C3338 1.376 . S
C3339 C3340 1.388 . S
C3340 H3327 0.930 . S
C3340 C3339 1.388 . S
C3340 C3341 1.390 . S
C3341 C3340 1.390 . S
C3341 C3342 1.394 . S
C3341 C3347 1.465 . S
C3342 C3337 1.399 . S
C3342 C3341 1.394 . S
C3342 C3343 1.516 . S
C3343 C3342 1.516 . S
C3343 C3344 1.502 . S
C3343 C3345 1.561 . S
C3343 C3346 1.526 . S
C3344 H3328 0.959 . S
C3344 H3329 0.959 . S
C3344 H3330 0.961 . S
C3344 C3343 1.502 . S
C3345 H3331 0.960 . S
C3345 H3332 0.961 . S
C3345 H3333 0.959 . S
C3345 C3343 1.561 . S
C3346 C3343 1.526 . S
C3346 C3347 1.396 . S
C3346 C3351 1.390 . S
C3347 C3341 1.465 . S
C3347 C3346 1.396 . S
C3347 C3348 1.399 . S
C3348 H3334 0.929 . S
C3348 C3347 1.399 . S
C3348 C3349 1.385 . S
C3349 H3335 0.931 . S
C3349 C3348 1.385 . S
C3349 C3350 1.389 . S
C3350 C3349 1.389 . S
C3350 C3351 1.387 . S
C3351 H3336 0.930 . S
C3351 C3346 1.390 . S
C3351 C3350 1.387 . S
H3352 C3364 0.930 . S
H3353 C3366 0.930 . S
H3354 C3367 0.930 . S
H3355 C3371 0.959 . S
H3356 C3371 0.959 . S
H3357 C3371 0.961 . S
H3358 C3372 0.960 . S
H3359 C3372 0.961 . S
H3360 C3372 0.959 . S
H3361 C3375 0.929 . S
H3362 C3376 0.931 . S
H3363 C3378 0.930 . S
C3364 H3352 0.930 . S
C3364 C3365 1.399 . S
C3364 C3369 1.399 . S
C3365 C3364 1.399 . S
C3365 C3366 1.376 . S
C3366 H3353 0.930 . S
C3366 C3365 1.376 . S
C3366 C3367 1.388 . S
C3367 H3354 0.930 . S
C3367 C3366 1.388 . S
C3367 C3368 1.390 . S
C3368 C3367 1.390 . S
C3368 C3369 1.394 . S
C3368 C3374 1.465 . S
C3369 C3364 1.399 . S
C3369 C3368 1.394 . S
C3369 C3370 1.516 . S
C3370 C3369 1.516 . S
C3370 C3371 1.502 . S
C3370 C3372 1.561 . S
C3370 C3373 1.526 . S
C3371 H3355 0.959 . S
C3371 H3356 0.959 . S
C3371 H3357 0.961 . S
C3371 C3370 1.502 . S
C3372 H3358 0.960 . S
C3372 H3359 0.961 . S
C3372 H3360 0.959 . S
C3372 C3370 1.561 . S
C3373 C3370 1.526 . S
C3373 C3374 1.396 . S
C3373 C3378 1.390 . S
C3374 C3368 1.465 . S
C3374 C3373 1.396 . S
C3374 C3375 1.399 . S
C3375 H3361 0.929 . S
C3375 C3374 1.399 . S
C3375 C3376 1.385 . S
C3376 H3362 0.931 . S
C3376 C3375 1.385 . S
C3376 C3377 1.389 . S
C3377 C3376 1.389 . S
C3377 C3378 1.387 . S
C3378 H3363 0.930 . S
C3378 C3373 1.390 . S
C3378 C3377 1.387 . S
H3379 C3391 0.930 . S
H3380 C3393 0.930 . S
H3381 C3394 0.930 . S
H3382 C3398 0.959 . S
H3383 C3398 0.959 . S
H3384 C3398 0.961 . S
H3385 C3399 0.960 . S
H3386 C3399 0.961 . S
H3387 C3399 0.959 . S
H3388 C3402 0.929 . S
H3389 C3403 0.931 . S
H3390 C3405 0.930 . S
C3391 H3379 0.930 . S
C3391 C3392 1.399 . S
C3391 C3396 1.399 . S
C3392 C3391 1.399 . S
C3392 C3393 1.376 . S
C3393 H3380 0.930 . S
C3393 C3392 1.376 . S
C3393 C3394 1.388 . S
C3394 H3381 0.930 . S
C3394 C3393 1.388 . S
C3394 C3395 1.390 . S
C3395 C3394 1.390 . S
C3395 C3396 1.394 . S
C3395 C3401 1.465 . S
C3396 C3391 1.399 . S
C3396 C3395 1.394 . S
C3396 C3397 1.516 . S
C3397 C3396 1.516 . S
C3397 C3398 1.502 . S
C3397 C3399 1.561 . S
C3397 C3400 1.526 . S
C3398 H3382 0.959 . S
C3398 H3383 0.959 . S
C3398 H3384 0.961 . S
C3398 C3397 1.502 . S
C3399 H3385 0.960 . S
C3399 H3386 0.961 . S
C3399 H3387 0.959 . S
C3399 C3397 1.561 . S
C3400 C3397 1.526 . S
C3400 C3401 1.396 . S
C3400 C3405 1.390 . S
C3401 C3395 1.465 . S
C3401 C3400 1.396 . S
C3401 C3402 1.399 . S
C3402 H3388 0.929 . S
C3402 C3401 1.399 . S
C3402 C3403 1.385 1_565 S
C3403 H3389 0.931 . S
C3403 C3402 1.385 1_545 S
C3403 C3404 1.389 1_545 S
C3404 C3403 1.389 1_565 S
C3404 C3405 1.387 . S
C3405 H3390 0.930 . S
C3405 C3400 1.390 . S
C3405 C3404 1.387 . S
H3406 C3418 0.930 . S
H3407 C3420 0.930 . S
H3408 C3421 0.930 . S
H3409 C3425 0.959 . S
H3410 C3425 0.959 . S
H3411 C3425 0.961 . S
H3412 C3426 0.960 . S
H3413 C3426 0.961 . S
H3414 C3426 0.959 . S
H3415 C3429 0.929 . S
H3416 C3430 0.931 . S
H3417 C3432 0.930 . S
C3418 H3406 0.930 . S
C3418 C3419 1.399 . S
C3418 C3423 1.399 . S
C3419 C3418 1.399 . S
C3419 C3420 1.376 . S
C3420 H3407 0.930 . S
C3420 C3419 1.376 . S
C3420 C3421 1.388 . S
C3421 H3408 0.930 . S
C3421 C3420 1.388 . S
C3421 C3422 1.390 . S
C3422 C3421 1.390 . S
C3422 C3423 1.394 . S
C3422 C3428 1.465 . S
C3423 C3418 1.399 . S
C3423 C3422 1.394 . S
C3423 C3424 1.516 . S
C3424 C3423 1.516 . S
C3424 C3425 1.502 . S
C3424 C3426 1.561 . S
C3424 C3427 1.526 . S
C3425 H3409 0.959 . S
C3425 H3410 0.959 . S
C3425 H3411 0.961 . S
C3425 C3424 1.502 . S
C3426 H3412 0.960 . S
C3426 H3413 0.961 . S
C3426 H3414 0.959 . S
C3426 C3424 1.561 . S
C3427 C3424 1.526 . S
C3427 C3428 1.396 . S
C3427 C3432 1.390 . S
C3428 C3422 1.465 . S
C3428 C3427 1.396 . S
C3428 C3429 1.399 . S
C3429 H3415 0.929 . S
C3429 C3428 1.399 . S
C3429 C3430 1.385 . S
C3430 H3416 0.931 . S
C3430 C3429 1.385 . S
C3430 C3431 1.389 . S
C3431 C3430 1.389 . S
C3431 C3432 1.387 . S
C3432 H3417 0.930 . S
C3432 C3427 1.390 . S
C3432 C3431 1.387 . S
H3433 C3445 0.930 . S
H3434 C3447 0.930 . S
H3435 C3448 0.930 . S
H3436 C3452 0.959 . S
H3437 C3452 0.959 . S
H3438 C3452 0.961 . S
H3439 C3453 0.960 . S
H3440 C3453 0.961 . S
H3441 C3453 0.959 . S
H3442 C3456 0.929 . S
H3443 C3457 0.931 . S
H3444 C3459 0.930 . S
C3445 H3433 0.930 . S
C3445 C3446 1.399 . S
C3445 C3450 1.399 . S
C3446 C3445 1.399 . S
C3446 C3447 1.376 . S
C3447 H3434 0.930 . S
C3447 C3446 1.376 . S
C3447 C3448 1.388 . S
C3448 H3435 0.930 . S
C3448 C3447 1.388 . S
C3448 C3449 1.390 . S
C3449 C3448 1.390 . S
C3449 C3450 1.394 . S
C3449 C3455 1.465 . S
C3450 C3445 1.399 . S
C3450 C3449 1.394 . S
C3450 C3451 1.516 . S
C3451 C3450 1.516 . S
C3451 C3452 1.502 . S
C3451 C3453 1.561 1_554 S
C3451 C3454 1.526 . S
C3452 H3436 0.959 . S
C3452 H3437 0.959 . S
C3452 H3438 0.961 . S
C3452 C3451 1.502 . S
C3453 H3439 0.960 . S
C3453 H3440 0.961 . S
C3453 H3441 0.959 . S
C3453 C3451 1.561 1_556 S
C3454 C3451 1.526 . S
C3454 C3455 1.396 . S
C3454 C3459 1.390 . S
C3455 C3449 1.465 . S
C3455 C3454 1.396 . S
C3455 C3456 1.399 . S
C3456 H3442 0.929 . S
C3456 C3455 1.399 . S
C3456 C3457 1.385 . S
C3457 H3443 0.931 . S
C3457 C3456 1.385 . S
C3457 C3458 1.389 . S
C3458 C3457 1.389 . S
C3458 C3459 1.387 . S
C3459 H3444 0.930 . S
C3459 C3454 1.390 . S
C3459 C3458 1.387 . S
H3460 C3472 0.930 . S
H3461 C3474 0.930 . S
H3462 C3475 0.930 . S
H3463 C3479 0.959 . S
H3464 C3479 0.959 . S
H3465 C3479 0.961 . S
H3466 C3480 0.960 . S
H3467 C3480 0.961 . S
H3468 C3480 0.959 . S
H3469 C3483 0.929 . S
H3470 C3484 0.931 . S
H3471 C3486 0.930 . S
C3472 H3460 0.930 . S
C3472 C3473 1.399 . S
C3472 C3477 1.399 . S
C3473 C3472 1.399 . S
C3473 C3474 1.376 . S
C3474 H3461 0.930 . S
C3474 C3473 1.376 . S
C3474 C3475 1.388 . S
C3475 H3462 0.930 . S
C3475 C3474 1.388 . S
C3475 C3476 1.390 . S
C3476 C3475 1.390 . S
C3476 C3477 1.394 . S
C3476 C3482 1.465 . S
C3477 C3472 1.399 . S
C3477 C3476 1.394 . S
C3477 C3478 1.516 . S
C3478 C3477 1.516 . S
C3478 C3479 1.502 . S
C3478 C3480 1.561 . S
C3478 C3481 1.526 . S
C3479 H3463 0.959 . S
C3479 H3464 0.959 . S
C3479 H3465 0.961 . S
C3479 C3478 1.502 . S
C3480 H3466 0.960 . S
C3480 H3467 0.961 . S
C3480 H3468 0.959 . S
C3480 C3478 1.561 . S
C3481 C3478 1.526 . S
C3481 C3482 1.396 . S
C3481 C3486 1.390 . S
C3482 C3476 1.465 . S
C3482 C3481 1.396 . S
C3482 C3483 1.399 . S
C3483 H3469 0.929 . S
C3483 C3482 1.399 . S
C3483 C3484 1.385 . S
C3484 H3470 0.931 . S
C3484 C3483 1.385 . S
C3484 C3485 1.389 . S
C3485 C3484 1.389 . S
C3485 C3486 1.387 . S
C3486 H3471 0.930 . S
C3486 C3481 1.390 . S
C3486 C3485 1.387 . S
H3487 C3499 0.930 . S
H3488 C3501 0.930 . S
H3489 C3502 0.930 . S
H3490 C3506 0.959 . S
H3491 C3506 0.959 1_556 S
H3492 C3506 0.961 . S
H3493 C3507 0.960 . S
H3494 C3507 0.961 . S
H3495 C3507 0.959 . S
H3496 C3510 0.929 . S
H3497 C3511 0.931 . S
H3498 C3513 0.930 1_556 S
C3499 H3487 0.930 . S
C3499 C3500 1.399 . S
C3499 C3504 1.399 . S
C3500 C3499 1.399 . S
C3500 C3501 1.376 . S
C3501 H3488 0.930 . S
C3501 C3500 1.376 . S
C3501 C3502 1.388 . S
C3502 H3489 0.930 . S
C3502 C3501 1.388 . S
C3502 C3503 1.390 . S
C3503 C3502 1.390 . S
C3503 C3504 1.394 . S
C3503 C3509 1.465 . S
C3504 C3499 1.399 . S
C3504 C3503 1.394 . S
C3504 C3505 1.516 . S
C3505 C3504 1.516 . S
C3505 C3506 1.502 . S
C3505 C3507 1.561 1_554 S
C3505 C3508 1.526 . S
C3506 H3490 0.959 . S
C3506 H3491 0.959 1_554 S
C3506 H3492 0.961 . S
C3506 C3505 1.502 . S
C3507 H3493 0.960 . S
C3507 H3494 0.961 . S
C3507 H3495 0.959 . S
C3507 C3505 1.561 1_556 S
C3508 C3505 1.526 . S
C3508 C3509 1.396 . S
C3508 C3513 1.390 . S
C3509 C3503 1.465 . S
C3509 C3508 1.396 . S
C3509 C3510 1.399 . S
C3510 H3496 0.929 . S
C3510 C3509 1.399 . S
C3510 C3511 1.385 . S
C3511 H3497 0.931 . S
C3511 C3510 1.385 . S
C3511 C3512 1.389 . S
C3512 C3511 1.389 . S
C3512 C3513 1.387 . S
C3513 H3498 0.930 1_554 S
C3513 C3508 1.390 . S
C3513 C3512 1.387 . S
H3514 C3526 0.930 . S
H3515 C3528 0.930 . S
H3516 C3529 0.930 . S
H3517 C3533 0.959 . S
H3518 C3533 0.959 . S
H3519 C3533 0.961 . S
H3520 C3534 0.960 . S
H3521 C3534 0.961 . S
H3522 C3534 0.959 . S
H3523 C3537 0.929 . S
H3524 C3538 0.931 . S
H3525 C3540 0.930 . S
C3526 H3514 0.930 . S
C3526 C3527 1.399 . S
C3526 C3531 1.399 . S
C3527 C3526 1.399 . S
C3527 C3528 1.376 . S
C3528 H3515 0.930 . S
C3528 C3527 1.376 . S
C3528 C3529 1.388 . S
C3529 H3516 0.930 . S
C3529 C3528 1.388 . S
C3529 C3530 1.390 . S
C3530 C3529 1.390 . S
C3530 C3531 1.394 . S
C3530 C3536 1.465 . S
C3531 C3526 1.399 . S
C3531 C3530 1.394 . S
C3531 C3532 1.516 . S
C3532 C3531 1.516 . S
C3532 C3533 1.502 . S
C3532 C3534 1.561 . S
C3532 C3535 1.526 . S
C3533 H3517 0.959 . S
C3533 H3518 0.959 . S
C3533 H3519 0.961 . S
C3533 C3532 1.502 . S
C3534 H3520 0.960 . S
C3534 H3521 0.961 . S
C3534 H3522 0.959 . S
C3534 C3532 1.561 . S
C3535 C3532 1.526 . S
C3535 C3536 1.396 . S
C3535 C3540 1.390 . S
C3536 C3530 1.465 . S
C3536 C3535 1.396 . S
C3536 C3537 1.399 . S
C3537 H3523 0.929 . S
C3537 C3536 1.399 . S
C3537 C3538 1.385 . S
C3538 H3524 0.931 . S
C3538 C3537 1.385 . S
C3538 C3539 1.389 . S
C3539 C3538 1.389 . S
C3539 C3540 1.387 . S
C3540 H3525 0.930 . S
C3540 C3535 1.390 . S
C3540 C3539 1.387 . S
H3541 C3553 0.930 . S
H3542 C3555 0.930 . S
H3543 C3556 0.930 . S
H3544 C3560 0.959 . S
H3545 C3560 0.959 . S
H3546 C3560 0.961 . S
H3547 C3561 0.960 . S
H3548 C3561 0.961 . S
H3549 C3561 0.959 . S
H3550 C3564 0.929 . S
H3551 C3565 0.931 . S
H3552 C3567 0.930 . S
C3553 H3541 0.930 . S
C3553 C3554 1.399 . S
C3553 C3558 1.399 . S
C3554 C3553 1.399 . S
C3554 C3555 1.376 . S
C3555 H3542 0.930 . S
C3555 C3554 1.376 . S
C3555 C3556 1.388 . S
C3556 H3543 0.930 . S
C3556 C3555 1.388 . S
C3556 C3557 1.390 . S
C3557 C3556 1.390 . S
C3557 C3558 1.394 . S
C3557 C3563 1.465 . S
C3558 C3553 1.399 . S
C3558 C3557 1.394 . S
C3558 C3559 1.516 . S
C3559 C3558 1.516 . S
C3559 C3560 1.502 . S
C3559 C3561 1.561 . S
C3559 C3562 1.526 . S
C3560 H3544 0.959 . S
C3560 H3545 0.959 . S
C3560 H3546 0.961 . S
C3560 C3559 1.502 . S
C3561 H3547 0.960 . S
C3561 H3548 0.961 . S
C3561 H3549 0.959 . S
C3561 C3559 1.561 . S
C3562 C3559 1.526 . S
C3562 C3563 1.396 . S
C3562 C3567 1.390 . S
C3563 C3557 1.465 . S
C3563 C3562 1.396 . S
C3563 C3564 1.399 . S
C3564 H3550 0.929 . S
C3564 C3563 1.399 . S
C3564 C3565 1.385 . S
C3565 H3551 0.931 . S
C3565 C3564 1.385 . S
C3565 C3566 1.389 . S
C3566 C3565 1.389 . S
C3566 C3567 1.387 . S
C3567 H3552 0.930 . S
C3567 C3562 1.390 . S
C3567 C3566 1.387 . S
C989 C106 1.423 . S
C1001 C344 1.425 . S
C1016 C65 1.421 . S
C1028 C378 1.430 . S
C1043 C79 1.095 . S
C1055 C447 1.130 . S
C1082 C485 0.749 . S
C1070 C90 0.742 . S
C1097 C21 1.251 . S
C1109 C525 1.189 . S
C1136 C544 0.375 . S
C1124 C35 0.593 . S
C1163 C578 1.213 . S
C1151 C50 1.272 . S
C1178 C6 1.713 . S
C1190 C647 1.815 . S
C1217 C353 2.709 . S
C1205 C232 2.732 . S
C1232 C245 1.036 . S
C1244 C405 1.049 . S
C1271 C418 1.468 . S
C1259 C274 1.437 . S
C1298 C487 1.382 . S
C1286 C175 1.350 . S
C1313 C231 1.682 . S
C1325 C527 1.738 . S
C1352 C553 1.794 . S
C1340 C246 1.878 . S
C1379 C605 0.150 . S
C1367 C273 0.184 . S
C1406 C618 2.396 . S
C1394 C176 2.382 . S
C1433 C348 2.397 . S
C1421 C160 2.382 . S
C1448 C289 1.988 . S
C1460 C658 2.000 . S
C1487 C708 2.745 . S
C1475 C328 2.698 . S
C1514 C767 1.715 1_655 S
C1502 C317 1.676 . S
C1529 C118 1.521 . S
C1541 C645 1.523 . S
C1556 C132 1.445 . S
C1568 C445 1.521 . S
C1583 C331 2.505 . S
C1595 C778 2.478 . S
C1622 C847 1.094 . S
C1610 C303 1.124 . S
C1649 C365 1.064 . S
C1637 C63 0.982 . S
C1676 C833 1.759 . S
C1664 C107 1.738 . S
C1691 C92 0.804 . S
C1703 C428 0.752 . S
C1718 C78 1.234 . S
C1730 C784 1.203 . S
C1757 C504 1.577 . S
C1745 C8 1.612 . S
C1772 C51 0.496 . S
C1784 C725 0.536 . S
C1811 C593 1.750 1_556 S
C1799 C37 1.714 . S
C1838 C868 1.622 . S
C1826 C20 1.652 . S
C1865 C338 2.417 . S
C1853 C147 2.400 . S
C1892 C824 1.221 . S
C1880 C316 1.207 . S
C1907 C119 1.291 . S
C1919 C433 1.360 . S
C1934 C288 1.494 . S
C1946 C788 1.526 . S
C1961 C148 2.100 . S
C1973 C508 2.097 . S
C2000 C698 1.863 . S
C1988 C315 1.752 . S
C2015 C120 0.399 . S
C2027 C584 0.483 . S
C2042 C287 2.193 . S
C2054 C873 2.210 . S
C2069 C188 2.377 . S
C2081 C367 2.338 1_655 S
C2096 C177 2.267 . S
C2108 C673 2.318 . S
C2123 C258 2.837 . S
C2135 C567 2.909 . S
C2150 C247 1.755 . S
C2162 C748 1.768 . S
C2189 C864 1.392 . S
C2177 C272 1.312 1_565 S
C2204 C216 1.219 . S
C2216 C424 1.317 . S
C2243 C473 2.790 . S
C2231 C261 2.806 . S
C2270 C388 1.065 . S
C2258 C205 1.087 . S
C2285 C76 1.123 . S
C2297 C904 1.095 . S
C2324 C818 1.530 . S
C2312 C93 1.505 . S
C2339 C105 0.826 . S
C2351 C967 0.661 . S
C2366 C62 0.753 . S
C2378 C805 0.733 . S
C2393 C49 1.248 . S
C2405 C685 1.172 . S
C2432 C704 0.723 . S
C2420 C9 0.725 . S
C2459 C738 1.149 . S
C2447 C22 1.208 . S
C2486 C887 2.165 . S
C2474 C36 2.173 . S
C2513 C913 2.647 . S
C2501 C260 2.669 . S
C2528 C189 0.956 . S
C2540 C845 0.909 . S
C2567 C938 1.326 . S
C2555 C204 1.338 . S
C2594 C807 1.224 . S
C2582 C217 1.201 . S
C2621 C687 2.021 . S
C2609 C259 1.908 . S
C2636 C190 1.963 . S
C2648 C713 1.938 . S
C2675 C765 0.253 . S
C2663 C203 0.325 . S
C2690 C218 2.463 . S
C2702 C858 2.503 . S
C2729 C908 2.311 . S
C2717 C314 2.324 . S
C2744 C135 2.068 . S
C2756 C498 2.071 . S
C2783 C548 2.657 . S
C2771 C146 2.601 . S
C2810 C607 1.764 . S
C2798 C163 1.751 . S
C2837 C885 1.529 . S
C2825 C300 1.537 . S
C2852 C286 1.438 . S
C2864 C965 1.500 . S
C2891 C458 2.417 . S
C2879 C149 2.418 . S
C2918 C407 1.115 . S
C2906 C121 1.104 . S
C2933 C91 1.008 . S
C2945 C925 1.006 . S
C2972 C393 1.357 . S
C2960 C77 1.324 . S
C2987 C64 0.758 . S
C2999 C948 0.749 . S
C3014 C104 0.917 . S
C3026 C464 0.895 . S
C3041 C34 1.291 . S
C3053 C664 1.279 . S
C3080 C565 0.532 . S
C3068 C23 0.459 . S
C3095 C7 1.303 . S
C3107 C753 1.329 . S
C3122 C48 1.603 . S
C3134 C628 1.600 . S
C3161 C898 2.395 . S
C3149 C329 2.379 . S
C3176 C162 1.185 . S
C3188 C384 1.140 . S
C3215 C953 1.408 . S
C3203 C301 1.369 . S
C3230 C134 1.515 . S
C3242 C468 1.542 . S
C3257 C330 2.063 . S
C3269 C668 2.071 . S
C3296 C538 1.822 . S
C3284 C161 1.824 . S
C3311 C302 0.567 . S
C3323 C744 0.509 . S
C3350 C633 2.201 . S
C3338 C133 2.190 . S
C3377 C927 2.614 . S
C3365 C244 2.605 . S
C3404 C513 2.265 1_665 S
C3392 C219 2.227 . S
C3419 C230 2.515 . S
C3431 C727 2.587 . S
C3458 C588 1.752 . S
C3446 C191 1.747 . S
C3473 C202 1.431 . S
C3485 C624 1.506 . S
C3500 C174 1.471 . S
C3512 C944 1.455 . S
C3539 C793 2.784 . S
C3527 C233 2.782 1_565 S
C3566 C828 1.060 . S
C3554 C275 1.089 . S
