# Generated by pormake.
# Topology gar, (4,6)-cn, num edge types: 1
# Building blocks:
#     Node 0, Type 0, BuildingBlock: NAHDIM_clean_sbu_0, # of connection points: 4
#     Node 1, Type 0, BuildingBlock: NAHDIM_clean_sbu_0, # of connection points: 4
#     Node 2, Type 0, BuildingBlock: NAHDIM_clean_sbu_0, # of connection points: 4
#     Node 3, Type 0, BuildingBlock: NAHDIM_clean_sbu_0, # of connection points: 4
#     Node 4, Type 0, BuildingBlock: NAHDIM_clean_sbu_0, # of connection points: 4
#     Node 5, Type 0, BuildingBlock: NAHDIM_clean_sbu_0, # of connection points: 4
#     Node 6, Type 0, BuildingBlock: NAHDIM_clean_sbu_0, # of connection points: 4
#     Node 7, Type 0, BuildingBlock: NAHDIM_clean_sbu_0, # of connection points: 4
#     Node 8, Type 0, BuildingBlock: NAHDIM_clean_sbu_0, # of connection points: 4
#     Node 9, Type 0, BuildingBlock: NAHDIM_clean_sbu_0, # of connection points: 4
#     Node 10, Type 0, BuildingBlock: NAHDIM_clean_sbu_0, # of connection points: 4
#     Node 11, Type 0, BuildingBlock: NAHDIM_clean_sbu_0, # of connection points: 4
#     Node 12, Type 0, BuildingBlock: NAHDIM_clean_sbu_0, # of connection points: 4
#     Node 13, Type 0, BuildingBlock: NAHDIM_clean_sbu_0, # of connection points: 4
#     Node 14, Type 0, BuildingBlock: NAHDIM_clean_sbu_0, # of connection points: 4
#     Node 15, Type 0, BuildingBlock: NAHDIM_clean_sbu_0, # of connection points: 4
#     Node 16, Type 0, BuildingBlock: NAHDIM_clean_sbu_0, # of connection points: 4
#     Node 17, Type 0, BuildingBlock: NAHDIM_clean_sbu_0, # of connection points: 4
#     Node 18, Type 0, BuildingBlock: NAHDIM_clean_sbu_0, # of connection points: 4
#     Node 19, Type 0, BuildingBlock: NAHDIM_clean_sbu_0, # of connection points: 4
#     Node 20, Type 0, BuildingBlock: NAHDIM_clean_sbu_0, # of connection points: 4
#     Node 21, Type 0, BuildingBlock: NAHDIM_clean_sbu_0, # of connection points: 4
#     Node 22, Type 0, BuildingBlock: NAHDIM_clean_sbu_0, # of connection points: 4
#     Node 23, Type 0, BuildingBlock: NAHDIM_clean_sbu_0, # of connection points: 4
#     Node 24, Type 1, BuildingBlock: KUMJIN_clean_sbu_0, # of connection points: 6
#     Node 25, Type 1, BuildingBlock: KUMJIN_clean_sbu_0, # of connection points: 6
#     Node 26, Type 1, BuildingBlock: KUMJIN_clean_sbu_0, # of connection points: 6
#     Node 27, Type 1, BuildingBlock: KUMJIN_clean_sbu_0, # of connection points: 6
#     Node 28, Type 1, BuildingBlock: KUMJIN_clean_sbu_0, # of connection points: 6
#     Node 29, Type 1, BuildingBlock: KUMJIN_clean_sbu_0, # of connection points: 6
#     Node 30, Type 1, BuildingBlock: KUMJIN_clean_sbu_0, # of connection points: 6
#     Node 31, Type 1, BuildingBlock: KUMJIN_clean_sbu_0, # of connection points: 6
#     Node 32, Type 1, BuildingBlock: KUMJIN_clean_sbu_0, # of connection points: 6
#     Node 33, Type 1, BuildingBlock: KUMJIN_clean_sbu_0, # of connection points: 6
#     Node 34, Type 1, BuildingBlock: KUMJIN_clean_sbu_0, # of connection points: 6
#     Node 35, Type 1, BuildingBlock: KUMJIN_clean_sbu_0, # of connection points: 6
#     Node 36, Type 1, BuildingBlock: KUMJIN_clean_sbu_0, # of connection points: 6
#     Node 37, Type 1, BuildingBlock: KUMJIN_clean_sbu_0, # of connection points: 6
#     Node 38, Type 1, BuildingBlock: KUMJIN_clean_sbu_0, # of connection points: 6
#     Node 39, Type 1, BuildingBlock: KUMJIN_clean_sbu_0, # of connection points: 6
#     Edge 40, Type (0, 1), BuildingBlock: TEMPAE_clean_linker_10, # of connection points: 2
#     Edge 41, Type (0, 1), BuildingBlock: TEMPAE_clean_linker_10, # of connection points: 2
#     Edge 42, Type (0, 1), BuildingBlock: TEMPAE_clean_linker_10, # of connection points: 2
#     Edge 43, Type (0, 1), BuildingBlock: TEMPAE_clean_linker_10, # of connection points: 2
#     Edge 44, Type (0, 1), BuildingBlock: TEMPAE_clean_linker_10, # of connection points: 2
#     Edge 45, Type (0, 1), BuildingBlock: TEMPAE_clean_linker_10, # of connection points: 2
#     Edge 46, Type (0, 1), BuildingBlock: TEMPAE_clean_linker_10, # of connection points: 2
#     Edge 47, Type (0, 1), BuildingBlock: TEMPAE_clean_linker_10, # of connection points: 2
#     Edge 48, Type (0, 1), BuildingBlock: TEMPAE_clean_linker_10, # of connection points: 2
#     Edge 49, Type (0, 1), BuildingBlock: TEMPAE_clean_linker_10, # of connection points: 2
#     Edge 50, Type (0, 1), BuildingBlock: TEMPAE_clean_linker_10, # of connection points: 2
#     Edge 51, Type (0, 1), BuildingBlock: TEMPAE_clean_linker_10, # of connection points: 2
#     Edge 52, Type (0, 1), BuildingBlock: TEMPAE_clean_linker_10, # of connection points: 2
#     Edge 53, Type (0, 1), BuildingBlock: TEMPAE_clean_linker_10, # of connection points: 2
#     Edge 54, Type (0, 1), BuildingBlock: TEMPAE_clean_linker_10, # of connection points: 2
#     Edge 55, Type (0, 1), BuildingBlock: TEMPAE_clean_linker_10, # of connection points: 2
#     Edge 56, Type (0, 1), BuildingBlock: TEMPAE_clean_linker_10, # of connection points: 2
#     Edge 57, Type (0, 1), BuildingBlock: TEMPAE_clean_linker_10, # of connection points: 2
#     Edge 58, Type (0, 1), BuildingBlock: TEMPAE_clean_linker_10, # of connection points: 2
#     Edge 59, Type (0, 1), BuildingBlock: TEMPAE_clean_linker_10, # of connection points: 2
#     Edge 60, Type (0, 1), BuildingBlock: TEMPAE_clean_linker_10, # of connection points: 2
#     Edge 61, Type (0, 1), BuildingBlock: TEMPAE_clean_linker_10, # of connection points: 2
#     Edge 62, Type (0, 1), BuildingBlock: TEMPAE_clean_linker_10, # of connection points: 2
#     Edge 63, Type (0, 1), BuildingBlock: TEMPAE_clean_linker_10, # of connection points: 2
#     Edge 64, Type (0, 1), BuildingBlock: TEMPAE_clean_linker_10, # of connection points: 2
#     Edge 65, Type (0, 1), BuildingBlock: TEMPAE_clean_linker_10, # of connection points: 2
#     Edge 66, Type (0, 1), BuildingBlock: TEMPAE_clean_linker_10, # of connection points: 2
#     Edge 67, Type (0, 1), BuildingBlock: TEMPAE_clean_linker_10, # of connection points: 2
#     Edge 68, Type (0, 1), BuildingBlock: TEMPAE_clean_linker_10, # of connection points: 2
#     Edge 69, Type (0, 1), BuildingBlock: TEMPAE_clean_linker_10, # of connection points: 2
#     Edge 70, Type (0, 1), BuildingBlock: TEMPAE_clean_linker_10, # of connection points: 2
#     Edge 71, Type (0, 1), BuildingBlock: TEMPAE_clean_linker_10, # of connection points: 2
#     Edge 72, Type (0, 1), BuildingBlock: TEMPAE_clean_linker_10, # of connection points: 2
#     Edge 73, Type (0, 1), BuildingBlock: TEMPAE_clean_linker_10, # of connection points: 2
#     Edge 74, Type (0, 1), BuildingBlock: TEMPAE_clean_linker_10, # of connection points: 2
#     Edge 75, Type (0, 1), BuildingBlock: TEMPAE_clean_linker_10, # of connection points: 2
#     Edge 76, Type (0, 1), BuildingBlock: TEMPAE_clean_linker_10, # of connection points: 2
#     Edge 77, Type (0, 1), BuildingBlock: TEMPAE_clean_linker_10, # of connection points: 2
#     Edge 78, Type (0, 1), BuildingBlock: TEMPAE_clean_linker_10, # of connection points: 2
#     Edge 79, Type (0, 1), BuildingBlock: TEMPAE_clean_linker_10, # of connection points: 2
#     Edge 80, Type (0, 1), BuildingBlock: TEMPAE_clean_linker_10, # of connection points: 2
#     Edge 81, Type (0, 1), BuildingBlock: TEMPAE_clean_linker_10, # of connection points: 2
#     Edge 82, Type (0, 1), BuildingBlock: TEMPAE_clean_linker_10, # of connection points: 2
#     Edge 83, Type (0, 1), BuildingBlock: TEMPAE_clean_linker_10, # of connection points: 2
#     Edge 84, Type (0, 1), BuildingBlock: TEMPAE_clean_linker_10, # of connection points: 2
#     Edge 85, Type (0, 1), BuildingBlock: TEMPAE_clean_linker_10, # of connection points: 2
#     Edge 86, Type (0, 1), BuildingBlock: TEMPAE_clean_linker_10, # of connection points: 2
#     Edge 87, Type (0, 1), BuildingBlock: TEMPAE_clean_linker_10, # of connection points: 2
#     Edge 88, Type (0, 1), BuildingBlock: TEMPAE_clean_linker_10, # of connection points: 2
#     Edge 89, Type (0, 1), BuildingBlock: TEMPAE_clean_linker_10, # of connection points: 2
#     Edge 90, Type (0, 1), BuildingBlock: TEMPAE_clean_linker_10, # of connection points: 2
#     Edge 91, Type (0, 1), BuildingBlock: TEMPAE_clean_linker_10, # of connection points: 2
#     Edge 92, Type (0, 1), BuildingBlock: TEMPAE_clean_linker_10, # of connection points: 2
#     Edge 93, Type (0, 1), BuildingBlock: TEMPAE_clean_linker_10, # of connection points: 2
#     Edge 94, Type (0, 1), BuildingBlock: TEMPAE_clean_linker_10, # of connection points: 2
#     Edge 95, Type (0, 1), BuildingBlock: TEMPAE_clean_linker_10, # of connection points: 2
#     Edge 96, Type (0, 1), BuildingBlock: TEMPAE_clean_linker_10, # of connection points: 2
#     Edge 97, Type (0, 1), BuildingBlock: TEMPAE_clean_linker_10, # of connection points: 2
#     Edge 98, Type (0, 1), BuildingBlock: TEMPAE_clean_linker_10, # of connection points: 2
#     Edge 99, Type (0, 1), BuildingBlock: TEMPAE_clean_linker_10, # of connection points: 2
#     Edge 100, Type (0, 1), BuildingBlock: TEMPAE_clean_linker_10, # of connection points: 2
#     Edge 101, Type (0, 1), BuildingBlock: TEMPAE_clean_linker_10, # of connection points: 2
#     Edge 102, Type (0, 1), BuildingBlock: TEMPAE_clean_linker_10, # of connection points: 2
#     Edge 103, Type (0, 1), BuildingBlock: TEMPAE_clean_linker_10, # of connection points: 2
#     Edge 104, Type (0, 1), BuildingBlock: TEMPAE_clean_linker_10, # of connection points: 2
#     Edge 105, Type (0, 1), BuildingBlock: TEMPAE_clean_linker_10, # of connection points: 2
#     Edge 106, Type (0, 1), BuildingBlock: TEMPAE_clean_linker_10, # of connection points: 2
#     Edge 107, Type (0, 1), BuildingBlock: TEMPAE_clean_linker_10, # of connection points: 2
#     Edge 108, Type (0, 1), BuildingBlock: TEMPAE_clean_linker_10, # of connection points: 2
#     Edge 109, Type (0, 1), BuildingBlock: TEMPAE_clean_linker_10, # of connection points: 2
#     Edge 110, Type (0, 1), BuildingBlock: TEMPAE_clean_linker_10, # of connection points: 2
#     Edge 111, Type (0, 1), BuildingBlock: TEMPAE_clean_linker_10, # of connection points: 2
#     Edge 112, Type (0, 1), BuildingBlock: TEMPAE_clean_linker_10, # of connection points: 2
#     Edge 113, Type (0, 1), BuildingBlock: TEMPAE_clean_linker_10, # of connection points: 2
#     Edge 114, Type (0, 1), BuildingBlock: TEMPAE_clean_linker_10, # of connection points: 2
#     Edge 115, Type (0, 1), BuildingBlock: TEMPAE_clean_linker_10, # of connection points: 2
#     Edge 116, Type (0, 1), BuildingBlock: TEMPAE_clean_linker_10, # of connection points: 2
#     Edge 117, Type (0, 1), BuildingBlock: TEMPAE_clean_linker_10, # of connection points: 2
#     Edge 118, Type (0, 1), BuildingBlock: TEMPAE_clean_linker_10, # of connection points: 2
#     Edge 119, Type (0, 1), BuildingBlock: TEMPAE_clean_linker_10, # of connection points: 2
#     Edge 120, Type (0, 1), BuildingBlock: TEMPAE_clean_linker_10, # of connection points: 2
#     Edge 121, Type (0, 1), BuildingBlock: TEMPAE_clean_linker_10, # of connection points: 2
#     Edge 122, Type (0, 1), BuildingBlock: TEMPAE_clean_linker_10, # of connection points: 2
#     Edge 123, Type (0, 1), BuildingBlock: TEMPAE_clean_linker_10, # of connection points: 2
#     Edge 124, Type (0, 1), BuildingBlock: TEMPAE_clean_linker_10, # of connection points: 2
#     Edge 125, Type (0, 1), BuildingBlock: TEMPAE_clean_linker_10, # of connection points: 2
#     Edge 126, Type (0, 1), BuildingBlock: TEMPAE_clean_linker_10, # of connection points: 2
#     Edge 127, Type (0, 1), BuildingBlock: TEMPAE_clean_linker_10, # of connection points: 2
#     Edge 128, Type (0, 1), BuildingBlock: TEMPAE_clean_linker_10, # of connection points: 2
#     Edge 129, Type (0, 1), BuildingBlock: TEMPAE_clean_linker_10, # of connection points: 2
#     Edge 130, Type (0, 1), BuildingBlock: TEMPAE_clean_linker_10, # of connection points: 2
#     Edge 131, Type (0, 1), BuildingBlock: TEMPAE_clean_linker_10, # of connection points: 2
#     Edge 132, Type (0, 1), BuildingBlock: TEMPAE_clean_linker_10, # of connection points: 2
#     Edge 133, Type (0, 1), BuildingBlock: TEMPAE_clean_linker_10, # of connection points: 2
#     Edge 134, Type (0, 1), BuildingBlock: TEMPAE_clean_linker_10, # of connection points: 2
#     Edge 135, Type (0, 1), BuildingBlock: TEMPAE_clean_linker_10, # of connection points: 2
# Relax obj value: 0.134
# Max RMSD: 0.318
# Mean RMSD: 0.177
data_MOF--net-gar--node1-NAHDIM_clean_sbu_0--node2-KUMJIN_clean_sbu_0--edge1-TEMPAE_clean_linker_10
_symmetry_space_group_name_H-M    P1
_symmetry_Int_Tables_number       1
_symmetry_cell_setting            triclinic
loop_
_symmetry_equiv_pos_as_xyz
'x, y, z'
_cell_length_a     63.000915
_cell_length_b     57.148453
_cell_length_c     55.903253
_cell_angle_alpha  101.02831
_cell_angle_beta   93.611718
_cell_angle_gamma 103.09829
loop_
_atom_site_label
_atom_site_type_symbol
_atom_site_fract_x
_atom_site_fract_y
_atom_site_fract_z
_atom_type_partial_charge
C0 C 0.14139 0.33418 0.34172 0.0
O1 O 0.13057 0.35092 0.33952 0.0
O2 O 0.10165 0.29057 0.38972 0.0
Zn3 Zn 0.10981 0.31981 0.3745 0.0
O4 O 0.11482 0.34961 0.40131 0.0
C5 C 0.06733 0.32345 0.36306 0.0
O6 O 0.06772 0.32401 0.3867 0.0
O7 O 0.13546 0.31928 0.35564 0.0
C8 C 0.12872 0.37008 0.40397 0.0
O9 O 0.14355 0.37304 0.38864 0.0
C10 C 0.11446 0.28777 0.40683 0.0
O11 O 0.13376 0.30329 0.41306 0.0
O12 O 0.08418 0.32086 0.35255 0.0
C13 C 0.9755 0.75141 0.69362 0.0
O14 O 0.98147 0.73053 0.68986 0.0
O15 O 1.00306 0.73078 0.64593 0.0
Zn16 Zn 0.00996 0.76526 0.66448 0.0
O17 O 0.01402 0.78875 0.64143 0.0
C18 C 0.05611 0.77365 0.68013 0.0
O19 O 0.05849 0.77842 0.65827 0.0
O20 O 0.98547 0.76897 0.68444 0.0
C21 C 0.02224 0.78379 0.62141 0.0
O22 O 0.02845 0.76315 0.61582 0.0
C23 C 0.99092 0.7214 0.62586 0.0
O24 O 0.98151 0.73517 0.61454 0.0
O25 O 0.03707 0.76917 0.68704 0.0
C26 C 0.64118 0.82547 0.83942 0.0
O27 O 0.6301 0.84114 0.83437 0.0
O28 O 0.60024 0.78747 0.89017 0.0
Zn29 Zn 0.60915 0.81505 0.87302 0.0
O30 O 0.61552 0.84536 0.89917 0.0
C31 C 0.56763 0.82122 0.86269 0.0
O32 O 0.56905 0.82294 0.88655 0.0
O33 O 0.63493 0.81242 0.85488 0.0
C34 C 0.62787 0.86634 0.89961 0.0
O35 O 0.64 0.8696 0.88172 0.0
C36 C 0.61354 0.78578 0.90741 0.0
O37 O 0.63328 0.80057 0.9116 0.0
O38 O 0.58356 0.81678 0.85128 0.0
C39 C 0.47044 0.25311 0.18874 0.0
O40 O 0.46991 0.23085 0.17672 0.0
O41 O 0.50742 0.23334 0.14954 0.0
Zn42 Zn 0.51117 0.26752 0.16821 0.0
O43 O 0.51612 0.29124 0.14573 0.0
C44 C 0.5567 0.28339 0.19124 0.0
O45 O 0.56085 0.29729 0.17509 0.0
O46 O 0.48604 0.27104 0.1872 0.0
C47 C 0.5256 0.28645 0.12663 0.0
O48 O 0.5325 0.26616 0.12223 0.0
C49 C 0.49391 0.21932 0.13209 0.0
O50 O 0.47775 0.22701 0.12275 0.0
O51 O 0.53721 0.27154 0.19195 0.0
C52 C 0.0541 0.81144 0.12905 0.0
O53 O 0.05004 0.81406 0.1065 0.0
O54 O 0.09579 0.77954 0.09141 0.0
Zn55 Zn 0.09871 0.81439 0.11411 0.0
O56 O 0.09443 0.84259 0.09502 0.0
C57 C 0.14795 0.82331 0.1301 0.0
O58 O 0.1507 0.82552 0.10747 0.0
O59 O 0.07358 0.81109 0.1366 0.0
C60 C 0.10631 0.86454 0.0974 0.0
O61 O 0.12469 0.87111 0.11215 0.0
C62 C 0.07869 0.76168 0.08792 0.0
O63 O 0.06087 0.76567 0.09713 0.0
O64 O 0.12855 0.82036 0.13665 0.0
C65 C 0.56412 0.77805 0.41015 0.0
O66 O 0.5676 0.79089 0.43279 0.0
O67 O 0.5179 0.73457 0.44171 0.0
Zn68 Zn 0.51913 0.76489 0.42364 0.0
O69 O 0.52662 0.80036 0.44622 0.0
C70 C 0.47027 0.75513 0.40495 0.0
O71 O 0.46648 0.74721 0.42521 0.0
O72 O 0.5447 0.76536 0.40185 0.0
C73 C 0.51228 0.81277 0.45097 0.0
O74 O 0.49155 0.80182 0.44391 0.0
C75 C 0.53559 0.7293 0.44926 0.0
O76 O 0.55433 0.74391 0.4469 0.0
O77 O 0.49022 0.76208 0.40066 0.0
C78 C 0.55492 0.31111 0.63374 0.0
O79 O 0.54896 0.31031 0.6106 0.0
O80 O 0.59549 0.28099 0.59344 0.0
Zn81 Zn 0.59887 0.31591 0.61637 0.0
O82 O 0.59327 0.34364 0.59733 0.0
C83 C 0.63501 0.30527 0.6446 0.0
O84 O 0.61969 0.28468 0.64109 0.0
O85 O 0.57511 0.31322 0.64072 0.0
C86 C 0.60631 0.3641 0.59611 0.0
O87 O 0.62656 0.36903 0.60649 0.0
C88 C 0.57914 0.26243 0.59125 0.0
O89 O 0.5619 0.26528 0.60238 0.0
O90 O 0.63039 0.32309 0.63612 0.0
C91 C 0.06715 0.27758 0.91017 0.0
O92 O 0.07143 0.28988 0.93302 0.0
O93 O 0.02056 0.23515 0.94209 0.0
Zn94 Zn 0.02273 0.26596 0.92485 0.0
O95 O 0.031 0.30096 0.94812 0.0
C96 C 0.9791 0.24873 0.88965 0.0
O97 O 0.98072 0.22587 0.88687 0.0
O98 O 0.04743 0.2658 0.90222 0.0
C99 C 0.0165 0.31323 0.95241 0.0
O100 O 0.99588 0.3021 0.94483 0.0
C101 C 0.03793 0.23039 0.95122 0.0
O102 O 0.05678 0.24586 0.95097 0.0
O103 O 0.99393 0.26571 0.90365 0.0
C104 C 0.4051 0.09472 0.32408 0.0
O105 O 0.42655 0.09983 0.32795 0.0
O106 O 0.42458 0.04925 0.28072 0.0
Zn107 Zn 0.40946 0.04603 0.31073 0.0
O108 O 0.43292 0.04763 0.33642 0.0
C109 C 0.37926 1.00303 0.28303 0.0
O110 O 0.38356 0.0141 0.26472 0.0
O111 O 0.39426 0.07252 0.31865 0.0
C112 C 0.44328 0.03097 0.33163 0.0
O113 O 0.43619 0.01277 0.31254 0.0
C114 C 0.44417 0.06218 0.28335 0.0
O115 O 0.45316 0.07475 0.30519 0.0
O116 O 0.38821 0.01365 0.30453 0.0
C117 C 0.33976 0.17158 0.51087 0.0
O118 O 0.34656 0.19282 0.5046 0.0
O119 O 0.296 0.20674 0.53998 0.0
Zn120 Zn 0.29677 0.18321 0.50789 0.0
O121 O 0.30398 0.20104 0.47988 0.0
C122 C 0.24972 0.16668 0.50549 0.0
O123 O 0.25194 0.19017 0.51466 0.0
O124 O 0.31951 0.16394 0.51306 0.0
C125 C 0.28912 0.20493 0.46571 0.0
O126 O 0.26854 0.1977 0.4695 0.0
C127 C 0.31276 0.22005 0.5541 0.0
O128 O 0.33235 0.22014 0.5473 0.0
O129 O 0.26672 0.15907 0.50036 0.0
C130 C 0.19856 0.95629 0.76697 0.0
O131 O 0.17738 0.94627 0.76424 0.0
O132 O 0.16261 1.00608 0.73496 0.0
Zn133 Zn 0.18403 0.00967 0.77066 0.0
O134 O 0.16671 0.01141 0.8054 0.0
C135 C 0.20436 0.06663 0.78495 0.0
O136 O 0.18755 0.0665 0.79773 0.0
O137 O 0.20441 0.98017 0.76935 0.0
C138 C 0.14869 0.01753 0.81105 0.0
O139 O 0.13723 0.02368 0.79385 0.0
C140 C 0.1582 0.02459 0.72691 0.0
O141 O 0.16585 0.0464 0.74123 0.0
O142 O 0.20666 0.04572 0.77329 0.0
C143 C 0.29165 0.97101 0.01067 0.0
O144 O 0.29589 0.96492 0.98792 0.0
O145 O 0.32776 0.9318 0.0518 0.0
Zn146 Zn 0.32363 0.94525 0.02234 0.0
O147 O 0.31565 0.91798 0.9931 0.0
C148 C 0.36556 0.97829 0.03593 0.0
O149 O 0.3602 0.97765 0.05818 0.0
O150 O 0.30142 0.96413 0.02753 0.0
C151 C 0.32929 0.90462 0.99049 0.0
O152 O 0.34597 0.90903 0.00741 0.0
C153 C 0.3127 0.9153 0.05697 0.0
O154 O 0.29421 0.90697 0.04241 0.0
O155 O 0.3518 0.96665 0.01766 0.0
C156 C 0.28681 0.42344 0.04662 0.0
O157 O 0.29182 0.42159 0.06924 0.0
O158 O 0.31952 0.38738 0.06845 0.0
Zn159 Zn 0.32246 0.39937 0.03651 0.0
O160 O 0.32369 0.3733 0.00634 0.0
C161 C 0.36867 0.41904 0.04682 0.0
O162 O 0.36724 0.39665 0.05028 0.0
O163 O 0.29761 0.41525 0.02984 0.0
C164 C 0.30702 0.36279 0.99075 0.0
O165 O 0.28787 0.36687 0.99557 0.0
C166 C 0.30983 0.36622 0.0714 0.0
O167 O 0.30075 0.34894 0.05209 0.0
O168 O 0.35115 0.42511 0.04093 0.0
C169 C 0.82918 0.10886 0.02489 0.0
O170 O 0.83734 0.13266 0.03235 0.0
O171 O 0.7967 0.14827 0.05436 0.0
Zn172 Zn 0.78832 0.12228 0.02368 0.0
O173 O 0.78649 0.1381 0.99505 0.0
C174 C 0.7513 0.10126 0.04624 0.0
O175 O 0.76455 0.11068 0.06662 0.0
O176 O 0.80863 0.10054 0.02003 0.0
C177 C 0.76895 0.14486 0.99117 0.0
O178 O 0.75327 0.14026 0.00526 0.0
C179 C 0.80029 0.17115 0.05483 0.0
O180 O 0.80068 0.17889 0.03417 0.0
O181 O 0.7586 0.10253 0.02579 0.0
C182 C 0.21902 0.47993 0.22768 0.0
O183 O 0.19795 0.46975 0.22628 0.0
O184 O 0.18364 0.51578 0.20088 0.0
Zn185 Zn 0.20462 0.5239 0.231 0.0
O186 O 0.1882 0.51981 0.25974 0.0
C187 C 0.21641 0.57596 0.2506 0.0
O188 O 0.19859 0.57125 0.26159 0.0
O189 O 0.22531 0.50279 0.22856 0.0
C190 C 0.19655 0.52628 0.28193 0.0
O191 O 0.21785 0.53511 0.28703 0.0
C192 C 0.16321 0.50858 0.20206 0.0
O193 O 0.15611 0.50541 0.22307 0.0
O194 O 0.22174 0.55868 0.23625 0.0
C195 C 0.78826 0.92255 0.55045 0.0
O196 O 0.79457 0.92197 0.57313 0.0
O197 O 0.82131 0.88074 0.56635 0.0
Zn198 Zn 0.82178 0.89505 0.53555 0.0
O199 O 0.81718 0.8696 0.50335 0.0
C200 C 0.86897 0.91564 0.54474 0.0
O201 O 0.86861 0.89503 0.552 0.0
O202 O 0.79753 0.91271 0.53302 0.0
C203 C 0.83154 0.8589 0.49464 0.0
O204 O 0.85034 0.86237 0.50795 0.0
C205 C 0.80401 0.87001 0.57427 0.0
O206 O 0.78498 0.8664 0.56132 0.0
O207 O 0.85098 0.91991 0.53733 0.0
C208 C 0.91977 0.12421 0.2726 0.0
O209 O 0.93895 0.13131 0.26481 0.0
O210 O 0.95367 0.07294 0.24105 0.0
Zn211 Zn 0.93556 0.07249 0.27496 0.0
O212 O 0.95532 0.07126 0.31048 0.0
C213 C 0.91684 0.01845 0.27813 0.0
O214 O 0.93557 0.02303 0.29192 0.0
O215 O 0.91537 0.10242 0.278 0.0
C216 C 0.97106 0.08509 0.3268 0.0
O217 O 0.97966 0.10731 0.32357 0.0
C218 C 0.96719 0.06029 0.23213 0.0
O219 O 0.9726 0.04505 0.24489 0.0
O220 O 0.91275 0.03592 0.26832 0.0
C221 C 0.32361 0.6077 0.53273 0.0
O222 O 0.32464 0.62055 0.55512 0.0
O223 O 0.29738 0.65695 0.55237 0.0
Zn224 Zn 0.29078 0.63294 0.52051 0.0
O225 O 0.29267 0.65101 0.49332 0.0
C226 C 0.24411 0.61283 0.5059 0.0
O227 O 0.24782 0.62198 0.4863 0.0
O228 O 0.31046 0.61029 0.51589 0.0
C229 C 0.28401 0.66914 0.49481 0.0
O230 O 0.27413 0.67543 0.51419 0.0
C231 C 0.31162 0.67725 0.55868 0.0
O232 O 0.32625 0.68383 0.54395 0.0
O233 O 0.26009 0.61415 0.5215 0.0
C234 C 0.41927 0.62396 0.77533 0.0
O235 O 0.43986 0.63329 0.77279 0.0
O236 O 0.45473 0.57401 0.74207 0.0
Zn237 Zn 0.43567 0.5723 0.77507 0.0
O238 O 0.45605 0.57563 0.81153 0.0
C239 C 0.41297 0.52031 0.78363 0.0
O240 O 0.42333 0.52958 0.8057 0.0
O241 O 0.41417 0.60082 0.77686 0.0
C242 C 0.46823 0.56124 0.81675 0.0
O243 O 0.47076 0.54415 0.79854 0.0
C244 C 0.46414 0.55795 0.7303 0.0
O245 O 0.46371 0.53807 0.739 0.0
O246 O 0.41469 0.53451 0.76805 0.0
C247 C 0.71515 0.98607 0.72983 0.0
O248 O 0.69392 0.97725 0.72403 0.0
O249 O 0.68268 0.02012 0.69913 0.0
Zn250 Zn 0.70562 0.03204 0.72754 0.0
O251 O 0.69152 0.03818 0.75838 0.0
C252 C 0.71649 0.07812 0.71374 0.0
O253 O 0.69608 0.07095 0.70363 0.0
O254 O 0.72355 0.00862 0.73072 0.0
C255 C 0.67736 0.05087 0.75944 0.0
O256 O 0.67236 0.05962 0.74034 0.0
C257 C 0.66284 0.01006 0.70075 0.0
O258 O 0.65735 1.00354 0.72125 0.0
O259 O 0.72472 0.06395 0.72434 0.0
C260 C 0.83933 0.67221 0.01287 0.0
O261 O 0.8458 0.69369 0.00697 0.0
O262 O 0.79466 0.70764 0.03989 0.0
Zn263 Zn 0.796 0.68245 0.00907 0.0
O264 O 0.80239 0.69653 0.97881 0.0
C265 C 0.74958 0.66117 0.99193 0.0
O266 O 0.75136 0.68105 0.98293 0.0
O267 O 0.81916 0.66412 0.01512 0.0
C268 C 0.79796 0.71597 0.97425 0.0
O269 O 0.78849 0.72898 0.99028 0.0
C270 C 0.81104 0.72251 0.05346 0.0
O271 O 0.83076 0.72352 0.04671 0.0
O272 O 0.7665 0.6577 0.00298 0.0
C273 C 0.90529 0.60452 0.82267 0.0
O274 O 0.92606 0.60607 0.82899 0.0
O275 O 0.92122 0.55217 0.78283 0.0
Zn276 Zn 0.90353 0.55357 0.81155 0.0
O277 O 0.92361 0.55422 0.84068 0.0
C278 C 0.87229 0.5106 0.7842 0.0
O279 O 0.87919 0.51944 0.76528 0.0
O280 O 0.89208 0.58352 0.81568 0.0
C281 C 0.93534 0.53877 0.83718 0.0
O282 O 0.93213 0.52277 0.81622 0.0
C283 C 0.94159 0.56247 0.7858 0.0
O284 O 0.95069 0.57584 0.80733 0.0
O285 O 0.87968 0.52284 0.80573 0.0
C286 C 0.78507 0.46308 0.51273 0.0
O287 O 0.77978 0.44575 0.49269 0.0
O288 O 0.82824 0.43189 0.55246 0.0
Zn289 Zn 0.822 0.44241 0.52109 0.0
O290 O 0.80985 0.41269 0.49438 0.0
C291 C 0.86196 0.47921 0.52598 0.0
O292 O 0.85499 0.4875 0.54686 0.0
O293 O 0.80206 0.4646 0.52689 0.0
C294 C 0.82116 0.39676 0.49204 0.0
O295 O 0.83847 0.40018 0.5078 0.0
C296 C 0.84743 0.43073 0.55961 0.0
O297 O 0.86342 0.43633 0.54617 0.0
O298 O 0.84991 0.46056 0.51127 0.0
C299 C 0.69707 0.45682 0.26875 0.0
O300 O 0.67604 0.44706 0.26846 0.0
O301 O 0.66447 0.51104 0.23428 0.0
Zn302 Zn 0.68248 0.51029 0.27075 0.0
O303 O 0.66089 0.51048 0.30182 0.0
C304 C 0.70231 0.56395 0.26704 0.0
O305 O 0.68449 0.55905 0.25166 0.0
O306 O 0.7027 0.48045 0.26934 0.0
C307 C 0.66733 0.51681 0.32523 0.0
O308 O 0.6886 0.52341 0.33167 0.0
C309 C 0.64484 0.50246 0.2227 0.0
O310 O 0.63046 0.48793 0.23273 0.0
O311 O 0.70539 0.54684 0.27804 0.0
Eu312 Eu 0.03407 0.02021 0.00543 0.0
C313 C 0.0923 0.11356 0.07709 0.0
C314 C 0.0995 0.14559 0.0539 0.0
C315 C 0.10028 0.1565 0.09816 0.0
C316 C 0.09354 0.12047 0.05478 0.0
C317 C 0.0961 0.13152 0.0991 0.0
C318 C 0.10214 0.16354 0.07559 0.0
C319 C 0.09444 0.09908 0.12145 0.0
N320 N 0.08916 0.08938 0.07738 0.0
C321 C 0.09114 0.08204 0.09917 0.0
C322 C 0.0966 0.1239 0.12143 0.0
Eu323 Eu 0.08293 0.06137 0.03881 0.0
N324 N 0.09104 0.10271 0.03417 0.0
C325 C 0.09602 0.10889 0.0124 0.0
C326 C 0.10396 0.15195 0.0315 0.0
C327 C 0.1024 0.13349 0.01069 0.0
H328 H 0.08961 0.06294 0.09953 0.0
H329 H 0.10645 0.13814 0.99339 0.0
H330 H 0.10638 0.18292 0.07519 0.0
H331 H 0.09538 0.09305 0.13861 0.0
H332 H 0.09515 0.09491 0.99618 0.0
H333 H 0.0157 0.9453 0.05472 0.0
H334 H 0.10956 0.17101 0.03034 0.0
H335 H 0.02717 0.01575 0.94442 0.0
H336 H 0.02168 0.98796 0.04944 0.0
H337 H 0.02397 0.98452 0.90633 0.0
H338 H 0.10303 0.17054 0.11485 0.0
H339 H 0.01691 0.9121 0.01961 0.0
H340 H 0.02028 0.89913 0.97477 0.0
H341 H 0.09939 0.13712 0.13871 0.0
H342 H 0.02249 0.90982 0.93422 0.0
N343 N 0.0272 0.97943 0.01191 0.0
C344 C 0.0223 0.97377 0.03392 0.0
C345 C 0.01976 0.93088 0.01724 0.0
C346 C 0.02325 0.93654 0.99432 0.0
C347 C 0.0189 0.94954 0.03703 0.0
C348 C 0.02663 0.96127 0.99215 0.0
H349 H 0.02339 0.94153 0.90845 0.0
N350 N 0.02912 0.99089 0.96793 0.0
C351 C 0.0251 0.97941 0.92395 0.0
C352 C 0.02769 0.96721 0.9694 0.0
C353 C 0.02686 0.99703 0.94557 0.0
C354 C 0.02487 0.95519 0.92523 0.0
C355 C 0.02569 0.9487 0.94812 0.0
O356 O 0.00584 0.02754 0.98641 0.0
O357 O 0.05111 0.06029 0.01838 0.0
O358 O 0.05593 0.06676 0.06402 0.0
O359 O 0.02945 0.03083 0.04726 0.0
O360 O 0.03716 0.04915 0.98237 0.0
O361 O 1.00202 0.01228 0.01897 0.0
O362 O 0.11065 0.05115 0.05554 0.0
O363 O 0.06595 0.02132 0.02564 0.0
O364 O 0.06144 0.0153 0.98048 0.0
O365 O 0.08719 0.05184 0.99679 0.0
O366 O 0.07935 0.03238 0.06175 0.0
O367 O 0.11498 0.07016 0.02545 0.0
C368 C 0.04764 0.06786 0.99882 0.0
C369 C 0.97086 1.00421 0.99026 0.0
C370 C 0.93168 1.00055 0.98549 0.0
C371 C 0.95266 0.01287 0.99696 0.0
C372 C 0.92892 0.9791 0.96732 0.0
C373 C 0.96814 0.98255 0.97242 0.0
C374 C 0.94713 0.96999 0.96105 0.0
C375 C 0.03759 0.05034 0.06561 0.0
C376 C 0.99239 0.01929 1.00129 0.0
C377 C 0.02377 0.92426 0.95032 0.0
C378 C 0.02253 0.91818 0.9734 0.0
C379 C 0.06917 0.01365 0.04519 0.0
C380 C 0.14612 0.07367 0.05281 0.0
C381 C 0.16293 0.06237 0.04662 0.0
C382 C 0.18412 0.07194 0.05874 0.0
C383 C 0.18862 0.09408 0.07637 0.0
C384 C 0.15046 0.09561 0.07052 0.0
C385 C 0.17181 0.10592 0.08209 0.0
C386 C 0.07943 0.03209 0.97865 0.0
C387 C 0.12419 0.06066 0.0414 0.0
H388 H 0.95494 0.02989 0.01048 0.0
H389 H 0.9128 0.96953 0.95804 0.0
H390 H 0.98216 0.97565 0.96706 0.0
H391 H 0.945 0.9534 0.94709 0.0
H392 H 0.15927 0.04562 0.03253 0.0
H393 H 0.20487 0.10188 0.08607 0.0
H394 H 0.13744 0.10449 0.07553 0.0
H395 H 0.17526 0.12282 0.09584 0.0
Eu396 Eu 0.31977 0.77227 0.23877 0.0
C397 C 0.29998 0.85815 0.31829 0.0
C398 C 0.33554 0.87619 0.34138 0.0
C399 C 0.3063 0.89729 0.34732 0.0
C400 C 0.32093 0.8566 0.32477 0.0
C401 C 0.29259 0.87891 0.32891 0.0
C402 C 0.32777 0.89588 0.35364 0.0
C403 C 0.25856 0.86159 0.30273 0.0
N404 N 0.28708 0.8397 0.30093 0.0
C405 C 0.26634 0.84102 0.29344 0.0
C406 C 0.27166 0.88055 0.32074 0.0
Eu407 Eu 0.29843 0.80218 0.29281 0.0
N408 N 0.32753 0.83686 0.31318 0.0
C409 C 0.34954 0.83799 0.31394 0.0
C410 C 0.35768 0.87596 0.34425 0.0
C411 C 0.36483 0.85723 0.32972 0.0
H412 H 0.25519 0.82579 0.28104 0.0
H413 H 0.38211 0.85756 0.33062 0.0
H414 H 0.33859 0.91077 0.36696 0.0
H415 H 0.24216 0.86241 0.29657 0.0
H416 H 0.35567 0.82433 0.30226 0.0
H417 H 0.23841 0.71809 0.19186 0.0
H418 H 0.3695 0.89082 0.35654 0.0
H419 H 0.36322 0.75017 0.25411 0.0
H420 H 0.26296 0.75212 0.22059 0.0
H421 H 0.37534 0.71222 0.24514 0.0
H422 H 0.30075 0.9131 0.35608 0.0
H423 H 0.25127 0.68149 0.17408 0.0
H424 H 0.28113 0.65918 0.17236 0.0
H425 H 0.26544 0.89627 0.32829 0.0
H426 H 0.31736 0.6566 0.18891 0.0
N427 N 0.29127 0.73742 0.21742 0.0
C428 C 0.26975 0.7375 0.21197 0.0
C429 C 0.26252 0.69692 0.18635 0.0
C430 C 0.28383 0.69587 0.19359 0.0
C431 C 0.25527 0.71758 0.19617 0.0
C432 C 0.29775 0.71634 0.20995 0.0
H433 H 0.35169 0.67543 0.21736 0.0
N434 N 0.33087 0.7346 0.23543 0.0
C435 C 0.35902 0.71249 0.23806 0.0
C436 C 0.31802 0.71479 0.21947 0.0
C437 C 0.35164 0.73394 0.24375 0.0
C438 C 0.34571 0.69187 0.22228 0.0
C439 C 0.32517 0.69299 0.21231 0.0
O440 O 0.35452 0.78307 0.23505 0.0
O441 O 0.3229 0.80628 0.26681 0.0
O442 O 0.27966 0.80604 0.25725 0.0
O443 O 0.29195 0.78589 0.22194 0.0
O444 O 0.32528 0.81054 0.23081 0.0
O445 O 0.33093 0.76848 0.20239 0.0
O446 O 0.26351 0.78994 0.2949 0.0
O447 O 0.29465 0.76802 0.26421 0.0
O448 O 0.3391 0.77049 0.2752 0.0
O449 O 0.32697 0.79081 0.31044 0.0
O450 O 0.29531 0.76424 0.30068 0.0
O451 O 0.28611 0.80271 0.32849 0.0
C452 C 0.32588 0.82166 0.25325 0.0
C453 C 0.36468 0.79621 0.19935 0.0
C454 C 0.36791 0.82709 0.17457 0.0
C455 C 0.35489 0.81 0.18584 0.0
C456 C 0.3908 0.8306 0.17713 0.0
C457 C 0.38758 0.79994 0.20192 0.0
C458 C 0.40057 0.81714 0.1909 0.0
C459 C 0.2786 0.79863 0.23294 0.0
C460 C 0.35154 0.77798 0.21114 0.0
C461 C 0.31195 0.67326 0.19491 0.0
C462 C 0.29139 0.67479 0.18539 0.0
C463 C 0.29325 0.75293 0.27809 0.0
C464 C 0.25301 0.77232 0.32821 0.0
C465 C 0.26296 0.76 0.34338 0.0
C466 C 0.25016 0.74101 0.35276 0.0
C467 C 0.2273 0.73413 0.34619 0.0
C468 C 0.23023 0.76511 0.32184 0.0
C469 C 0.21749 0.746 0.33067 0.0
C470 C 0.34046 0.77835 0.29952 0.0
C471 C 0.26584 0.79271 0.31871 0.0
H472 H 0.33721 0.80714 0.18363 0.0
H473 H 0.40106 0.84376 0.1685 0.0
H474 H 0.39538 0.78951 0.21245 0.0
H475 H 0.41822 0.81994 0.19291 0.0
H476 H 0.2806 0.76523 0.34792 0.0
H477 H 0.21685 0.72003 0.35353 0.0
H478 H 0.22229 0.77436 0.31007 0.0
H479 H 0.19991 0.74064 0.32581 0.0
Eu480 Eu 0.58588 0.04118 0.51042 0.0
C481 C 0.51023 0.99057 0.54915 0.0
C482 C 0.48894 0.95989 0.51488 0.0
C483 C 0.49187 0.95006 0.5551 0.0
C484 C 0.50272 0.98355 0.52441 0.0
C485 C 0.50437 0.97402 0.56485 0.0
C486 C 0.48391 0.94314 0.53025 0.0
C487 C 0.5197 0.00727 0.59937 0.0
N488 N 0.5214 0.0142 0.55831 0.0
C489 C 0.52462 0.02307 0.5832 0.0
C490 C 0.51 0.98247 0.59012 0.0
Eu491 Eu 0.53153 0.03914 0.52914 0.0
N492 N 0.50735 1.00038 0.51007 0.0
C493 C 0.49706 0.99515 0.48663 0.0
C494 C 0.47973 0.95409 0.49046 0.0
C495 C 0.48361 0.9719 0.47638 0.0
H496 H 0.53127 0.04241 0.59088 0.0
H497 H 0.47587 0.96791 0.45773 0.0
H498 H 0.47306 0.92513 0.52335 0.0
H499 H 0.52309 0.01434 0.61897 0.0
H500 H 0.49848 0.00874 0.47553 0.0
H501 H 0.62404 0.11671 0.58746 0.0
H502 H 0.46881 0.93632 0.48262 0.0
H503 H 0.59668 0.03453 0.45178 0.0
H504 H 0.60385 0.07451 0.56737 0.0
H505 H 0.61331 0.06048 0.42379 0.0
H506 H 0.48729 0.93714 0.56687 0.0
H507 H 0.63814 0.14681 0.56227 0.0
H508 H 0.64357 0.15574 0.52048 0.0
H509 H 0.50583 0.97032 0.60271 0.0
H510 H 0.64027 0.14055 0.47581 0.0
N511 N 0.60595 0.08082 0.53127 0.0
C512 C 0.60984 0.08748 0.55623 0.0
C513 C 0.62927 0.12831 0.55338 0.0
C514 C 0.62617 0.12097 0.52779 0.0
C515 C 0.62138 0.11136 0.56766 0.0
C516 C 0.61446 0.09668 0.51712 0.0
H517 H 0.62936 0.10495 0.43962 0.0
N518 N 0.60204 0.06439 0.4825 0.0
C519 C 0.61291 0.0686 0.44285 0.0
C520 C 0.61226 0.08827 0.49195 0.0
C521 C 0.60349 0.05401 0.45867 0.0
C522 C 0.6219 0.0937 0.45185 0.0
C523 C 0.62217 0.10372 0.47681 0.0
O524 O 0.60595 0.01748 0.49333 0.0
O525 O 0.55439 0.01552 0.51555 0.0
O526 O 0.55706 0.04787 0.562 0.0
O527 O 0.58076 0.02625 0.54453 0.0
O528 O 0.56774 0.00702 0.4828 0.0
O529 O 0.61515 0.03708 0.53082 0.0
O530 O 0.51756 0.0622 0.55655 0.0
O531 O 0.56528 0.06416 0.53076 0.0
O532 O 0.56625 0.04867 0.47865 0.0
O533 O 0.53054 0.03744 0.48875 0.0
O534 O 0.53882 0.07544 0.5173 0.0
O535 O 0.50055 0.04804 0.5199 0.0
C536 C 0.55214 0.9996 0.49561 0.0
C537 C 0.64358 0.02819 0.50793 0.0
C538 C 0.67936 0.01847 0.51058 0.0
C539 C 0.65718 0.01378 0.51504 0.0
C540 C 0.68758 0.03775 0.49874 0.0
C541 C 0.65225 0.04757 0.4966 0.0
C542 C 0.67411 0.05222 0.49195 0.0
C543 C 0.5716 0.03483 0.56363 0.0
C544 C 0.62042 0.02268 0.51242 0.0
C545 C 0.63285 0.12829 0.4872 0.0
C546 C 0.6348 0.13692 0.51264 0.0
C547 C 0.55967 0.08175 0.52317 0.0
C548 C 0.47912 0.05894 0.55138 0.0
C549 C 0.46527 0.07323 0.54455 0.0
C550 C 0.44506 0.07239 0.55408 0.0
C551 C 0.4388 0.05687 0.57045 0.0
C552 C 0.47249 0.04329 0.56743 0.0
C553 C 0.4524 0.04233 0.57693 0.0
C554 C 0.5448 0.04397 0.47354 0.0
C555 C 0.50041 0.06114 0.54165 0.0
H556 H 0.65051 0.99914 0.52426 0.0
H557 H 0.70439 0.04154 0.49448 0.0
H558 H 0.64219 0.05905 0.49127 0.0
H559 H 0.68064 0.06706 0.48296 0.0
H560 H 0.47043 0.08537 0.53215 0.0
H561 H 0.42326 0.05576 0.57797 0.0
H562 H 0.48281 0.03193 0.57267 0.0
H563 H 0.44736 0.0303 0.5894 0.0
Eu564 Eu 0.28335 0.29684 0.76775 0.0
C565 C 0.35452 0.25864 0.81908 0.0
C566 C 0.36849 0.29066 0.85539 0.0
C567 C 0.3681 0.24823 0.85636 0.0
C568 C 0.35886 0.28309 0.83083 0.0
C569 C 0.35974 0.24104 0.83147 0.0
C570 C 0.37245 0.273 0.86831 0.0
C571 C 0.35062 0.21125 0.79304 0.0
N572 N 0.3467 0.25235 0.79498 0.0
C573 C 0.34576 0.22938 0.78154 0.0
C574 C 0.35724 0.21698 0.81822 0.0
Eu575 Eu 0.33783 0.28378 0.77718 0.0
N576 N 0.35498 0.2997 0.81779 0.0
C577 C 0.36212 0.32433 0.8275 0.0
C578 C 0.37456 0.31581 0.86595 0.0
C579 C 0.37166 0.33273 0.85182 0.0
H580 H 0.34057 0.22492 0.76206 0.0
H581 H 0.37671 0.35225 0.85965 0.0
H582 H 0.37954 0.27843 0.8873 0.0
H583 H 0.34921 0.19289 0.78249 0.0
H584 H 0.35989 0.33764 0.81687 0.0
H585 H 0.24439 0.22906 0.6846 0.0
H586 H 0.38213 0.32237 0.8847 0.0
H587 H 0.27825 0.35456 0.78381 0.0
H588 H 0.26138 0.24328 0.72718 0.0
H589 H 0.26918 0.38688 0.76421 0.0
H590 H 0.37194 0.23493 0.8663 0.0
H591 H 0.23844 0.25916 0.66008 0.0
H592 H 0.24061 0.30317 0.65807 0.0
H593 H 0.36108 0.20293 0.82709 0.0
H594 H 0.24754 0.3464 0.67978 0.0
N595 N 0.26605 0.28135 0.72692 0.0
C596 C 0.259 0.25676 0.7169 0.0
C597 C 0.24619 0.26558 0.67877 0.0
C598 C 0.25213 0.29065 0.68958 0.0
C599 C 0.24935 0.24854 0.69262 0.0
C600 C 0.26187 0.298 0.71411 0.0
H601 H 0.25775 0.37774 0.71955 0.0
N602 N 0.27311 0.32794 0.7504 0.0
C603 C 0.26825 0.36881 0.75326 0.0
C604 C 0.26568 0.32218 0.72624 0.0
C605 C 0.27334 0.35049 0.7643 0.0
C606 C 0.26191 0.3636 0.72804 0.0
C607 C 0.26 0.33987 0.7143 0.0
O608 O 0.26202 0.30885 0.79464 0.0
O609 O 0.30972 0.29429 0.79521 0.0
O610 O 0.31263 0.25107 0.78596 0.0
O611 O 0.27986 0.25556 0.76768 0.0
O612 O 0.2961 0.32432 0.80307 0.0
O613 O 0.25178 0.27283 0.77141 0.0
O614 O 0.35772 0.27255 0.74832 0.0
O615 O 0.31172 0.28687 0.74979 0.0
O616 O 0.30806 0.33071 0.761 0.0
O617 O 0.34179 0.32484 0.77544 0.0
O618 O 0.3246 0.25609 0.7422 0.0
O619 O 0.37174 0.30455 0.77648 0.0
C620 C 0.30998 0.31344 0.8111 0.0
C621 C 0.22394 0.29261 0.78404 0.0
C622 C 0.18799 0.29373 0.79814 0.0
C623 C 0.20906 0.28937 0.80173 0.0
C624 C 0.18207 0.30102 0.77651 0.0
C625 C 0.21749 0.29978 0.76266 0.0
C626 C 0.19669 0.30394 0.75895 0.0
C627 C 0.29145 0.24227 0.77756 0.0
C628 C 0.24628 0.28901 0.78804 0.0
C629 C 0.25172 0.33302 0.68939 0.0
C630 C 0.24777 0.30841 0.67704 0.0
C631 C 0.31121 0.26753 0.73404 0.0
C632 C 0.39618 0.28204 0.7579 0.0
C633 C 0.41279 0.28986 0.74311 0.0
C634 C 0.43187 0.28041 0.74241 0.0
C635 C 0.43324 0.26251 0.75636 0.0
C636 C 0.39908 0.26547 0.77253 0.0
C637 C 0.4173 0.25558 0.77153 0.0
C638 C 0.32959 0.33869 0.76749 0.0
C639 C 0.37526 0.28985 0.75708 0.0
H640 H 0.21401 0.28394 0.81836 0.0
H641 H 0.16597 0.30423 0.77303 0.0
H642 H 0.22854 0.30219 0.74882 0.0
H643 H 0.19187 0.30947 0.74236 0.0
H644 H 0.41074 0.30322 0.73236 0.0
H645 H 0.44655 0.25342 0.75554 0.0
H646 H 0.38706 0.25975 0.78446 0.0
H647 H 0.41896 0.24218 0.78238 0.0
Eu648 Eu 0.05618 0.07133 0.54161 0.0
C649 C 0.08111 1.00151 0.45528 0.0
C650 C 0.05116 0.99188 0.42291 0.0
C651 C 0.08794 0.99132 0.41263 0.0
C652 C 0.05922 0.99889 0.44804 0.0
C653 C 0.09572 0.99747 0.43768 0.0
C654 C 0.06569 0.98851 0.40526 0.0
C655 C 0.12436 1.00452 0.47089 0.0
N656 N 0.08803 0.00726 0.47959 0.0
C657 C 0.10923 0.00815 0.48762 0.0
C658 C 0.11762 0.99933 0.44579 0.0
Eu659 Eu 0.06188 0.01476 0.50706 0.0
N660 N 0.04564 1.00231 0.46557 0.0
C661 C 0.02353 0.99742 0.45916 0.0
C662 C 0.02866 0.98801 0.41628 0.0
C663 C 0.01476 0.99051 0.43452 0.0
H664 H 0.11473 0.01233 0.50697 0.0
H665 H 0.99728 0.98724 0.42965 0.0
H666 H 0.05983 0.98334 0.38589 0.0
H667 H 0.14121 1.00575 0.47738 0.0
H668 H 0.0124 0.99921 0.47276 0.0
H669 H 0.11696 0.09547 0.6221 0.0
H670 H 0.02184 0.98272 0.3972 0.0
H671 H 0.00397 0.0799 0.5391 0.0
H672 H 0.10428 0.08645 0.57817 0.0
H673 H 0.9764 0.08508 0.56739 0.0
H674 H 0.09893 0.98828 0.39884 0.0
H675 H 0.09014 0.09605 0.65255 0.0
H676 H 0.05137 0.093 0.6614 0.0
H677 H 0.12935 0.99644 0.43285 0.0
H678 H 0.01319 0.09032 0.64651 0.0
N679 N 0.0704 0.08042 0.58328 0.0
C680 C 0.0923 0.08619 0.59107 0.0
C681 C 0.08443 0.09158 0.63317 0.0
C682 C 0.06215 0.0874 0.62516 0.0
C683 C 0.09961 0.09143 0.61607 0.0
C684 C 0.05552 0.08228 0.59972 0.0
H685 H 0.98529 0.08789 0.61168 0.0
N686 N 0.02838 0.07857 0.56681 0.0
C687 C 0.99246 0.08386 0.57432 0.0
C688 C 0.03398 0.08131 0.5913 0.0
C689 C 0.00823 0.08087 0.55829 0.0
C690 C 0.99754 0.08539 0.59929 0.0
C691 C 0.0186 0.08465 0.60815 0.0
O692 O 0.06634 0.0996 0.5203 0.0
O693 O 0.0524 0.0497 0.50226 0.0
O694 O 0.08779 0.04544 0.49817 0.0
O695 O 0.09166 0.07193 0.5357 0.0
O696 O 0.0283 0.06749 0.51184 0.0
O697 O 0.06528 0.11027 0.5592 0.0
O698 O 0.07183 0.98252 0.51472 0.0
O699 O 0.06527 0.03632 0.54654 0.0
O700 O 0.02748 0.04257 0.54856 0.0
O701 O 0.02634 0.01241 0.5141 0.0
O702 O 0.08958 0.01905 0.53748 0.0
O703 O 0.03729 0.98131 0.50777 0.0
C704 C 0.0346 0.05415 0.49359 0.0
C705 C 0.05717 0.1371 0.53462 0.0
C706 C 0.05618 0.1713 0.51476 0.0
C707 C 0.06589 0.15243 0.51904 0.0
C708 C 0.0375 0.17455 0.52622 0.0
C709 C 0.03853 0.1406 0.54595 0.0
C710 C 0.02876 0.15925 0.54171 0.0
C711 C 0.09934 0.06422 0.51497 0.0
C712 C 0.06788 0.11772 0.53881 0.0
C713 C 0.02486 0.08798 0.63335 0.0
C714 C 0.04659 0.08944 0.64183 0.0
C715 C 0.08287 0.03188 0.55559 0.0
C716 C 0.04743 0.9435 0.50127 0.0
C717 C 0.04498 0.92646 0.51641 0.0
C718 C 0.04054 0.90119 0.50636 0.0
C719 C 0.03841 0.89318 0.48072 0.0
C720 C 0.04545 0.93544 0.47577 0.0
C721 C 0.04091 0.91027 0.46555 0.0
C722 C 0.01737 0.02218 0.53298 0.0
C723 C 0.05176 0.96946 0.51296 0.0
H724 H 0.08046 0.14989 0.51059 0.0
H725 H 0.02954 0.18878 0.52305 0.0
H726 H 0.03159 0.12909 0.55817 0.0
H727 H 0.01439 0.16187 0.55046 0.0
H728 H 0.04624 0.93293 0.53613 0.0
H729 H 0.03508 0.87378 0.47246 0.0
H730 H 0.04732 0.94851 0.46388 0.0
H731 H 0.03935 0.90397 0.44585 0.0
Eu732 Eu 0.33155 0.80909 0.76614 0.0
C733 C 0.27495 0.73964 0.82251 0.0
C734 C 0.28475 0.70089 0.80978 0.0
C735 C 0.27221 0.71093 0.84982 0.0
C736 C 0.28267 0.72379 0.80531 0.0
C737 C 0.26921 0.73318 0.84479 0.0
C738 C 0.27999 0.69482 0.83236 0.0
C739 C 0.25651 0.77032 0.85471 0.0
N740 N 0.27222 0.76098 0.81702 0.0
C741 C 0.26246 0.77594 0.83241 0.0
C742 C 0.26015 0.749 0.86108 0.0
Eu743 Eu 0.28389 0.76973 0.77936 0.0
N744 N 0.28683 0.73007 0.78358 0.0
C745 C 0.29121 0.71338 0.76476 0.0
C746 C 0.29085 0.68444 0.79112 0.0
C747 C 0.29369 0.69055 0.76834 0.0
H748 H 0.25941 0.79246 0.8279 0.0
H749 H 0.29785 0.67774 0.75355 0.0
H750 H 0.2817 0.67742 0.83622 0.0
H751 H 0.24918 0.78249 0.867 0.0
H752 H 0.29332 0.71778 0.74704 0.0
H753 H 0.32003 0.90124 0.79955 0.0
H754 H 0.29274 0.66673 0.79385 0.0
H755 H 0.3509 0.78721 0.71378 0.0
H756 H 0.32432 0.86019 0.80287 0.0
H757 H 0.35719 0.79831 0.67388 0.0
H758 H 0.26809 0.70576 0.86693 0.0
H759 H 0.32217 0.91399 0.75973 0.0
H760 H 0.32901 0.90442 0.71554 0.0
H761 H 0.25555 0.74471 0.87838 0.0
H762 H 0.33918 0.87647 0.68138 0.0
N763 N 0.32838 0.84939 0.76514 0.0
C764 C 0.3254 0.86547 0.78538 0.0
C765 C 0.32413 0.89591 0.76108 0.0
C766 C 0.32839 0.87985 0.74074 0.0
C767 C 0.32297 0.88882 0.7836 0.0
C768 C 0.33069 0.85648 0.74345 0.0
H769 H 0.34996 0.83701 0.66575 0.0
N770 N 0.3397 0.81904 0.72798 0.0
C771 C 0.35132 0.81041 0.68786 0.0
C772 C 0.33655 0.84085 0.72428 0.0
C773 C 0.3478 0.80422 0.71054 0.0
C774 C 0.34717 0.83224 0.68333 0.0
C775 C 0.34004 0.84798 0.70178 0.0
O776 O 0.36547 0.80637 0.7664 0.0
O777 O 0.32054 0.77273 0.77848 0.0
O778 O 0.30534 0.78297 0.81515 0.0
O779 O 0.32582 0.81858 0.80615 0.0
O780 O 0.34103 0.77306 0.75137 0.0
O781 O 0.35741 0.83632 0.79129 0.0
O782 O 0.25007 0.77284 0.77447 0.0
O783 O 0.29516 0.8062 0.76716 0.0
O784 O 0.30875 0.79538 0.73125 0.0
O785 O 0.29199 0.75861 0.74047 0.0
O786 O 0.27515 0.80612 0.79441 0.0
O787 O 0.25948 0.74176 0.75319 0.0
C788 C 0.33129 0.75938 0.76521 0.0
C789 C 0.393 0.84281 0.77843 0.0
C790 C 0.4329 0.85327 0.78224 0.0
C791 C 0.413 0.83946 0.78752 0.0
C792 C 0.43247 0.8711 0.76813 0.0
C793 C 0.39269 0.86052 0.76428 0.0
C794 C 0.41243 0.8747 0.75928 0.0
C795 C 0.31884 0.80489 0.82195 0.0
C796 C 0.37293 0.82644 0.78301 0.0
C797 C 0.33677 0.87075 0.69861 0.0
C798 C 0.33098 0.88666 0.71806 0.0
C799 C 0.28487 0.81983 0.78067 0.0
C800 C 0.22282 0.73598 0.76285 0.0
C801 C 0.2033 0.74216 0.75648 0.0
C802 C 0.18302 0.72731 0.75929 0.0
C803 C 0.18238 0.70607 0.76863 0.0
C804 C 0.22213 0.71498 0.77262 0.0
C805 C 0.20191 0.70009 0.77546 0.0
C806 C 0.29823 0.77218 0.7244 0.0
C807 C 0.24347 0.75193 0.75893 0.0
H808 H 0.41298 0.8259 0.79872 0.0
H809 H 0.44754 0.88193 0.76361 0.0
H810 H 0.37733 0.86324 0.75702 0.0
H811 H 0.4122 0.88832 0.74828 0.0
H812 H 0.20389 0.75835 0.74884 0.0
H813 H 0.16684 0.6943 0.77081 0.0
H814 H 0.23709 0.71004 0.77788 0.0
H815 H 0.20138 0.68382 0.78286 0.0
Eu816 Eu 0.56058 0.02323 0.05191 0.0
C817 C 0.51198 0.06733 0.97782 0.0
C818 C 0.48238 0.03246 0.95847 0.0
C819 C 0.47699 0.07384 0.96351 0.0
C820 C 0.50397 0.04226 0.97005 0.0
C821 C 0.49887 0.08349 0.97391 0.0
C822 C 0.46874 0.04835 0.95584 0.0
C823 C 0.53069 0.11731 0.98821 0.0
N824 N 0.53318 0.07597 0.98766 0.0
C825 C 0.54303 0.10048 0.9916 0.0
C826 C 0.50839 0.10881 0.97976 0.0
Eu827 Eu 0.55265 0.04667 0.9949 0.0
N828 N 0.51765 0.02752 0.9728 0.0
C829 C 0.51134 1.00295 0.9626 0.0
C830 C 0.47536 0.00707 0.94937 0.0
C831 C 0.49003 0.99231 0.9511 0.0
H832 H 0.56027 0.10704 0.99825 0.0
H833 H 0.48491 0.97272 0.94369 0.0
H834 H 0.45202 0.04116 0.94727 0.0
H835 H 0.53837 0.1368 0.99215 0.0
H836 H 0.52241 0.99126 0.96397 0.0
H837 H 0.6181 0.10152 0.11276 0.0
H838 H 0.45887 0.9988 0.94043 0.0
H839 H 0.56099 0.96379 0.04047 0.0
H840 H 0.58453 0.08044 0.08529 0.0
H841 H 0.58563 0.93754 0.04913 0.0
H842 H 0.46653 0.08594 0.96066 0.0
H843 H 0.64522 0.07853 0.12235 0.0
H844 H 0.65615 0.03843 0.11717 0.0
H845 H 0.49887 0.12186 0.97706 0.0
H846 H 0.64763 0.9941 0.09945 0.0
N847 N 0.59246 0.04556 0.0786 0.0
C848 C 0.59605 0.06995 0.08918 0.0
C849 C 0.63047 0.06907 0.11012 0.0
C850 C 0.62643 0.04395 0.09986 0.0
C851 C 0.61517 0.0821 0.10481 0.0
C852 C 0.60697 0.03251 0.08405 0.0
H853 H 0.62146 0.95636 0.07406 0.0
N854 N 0.58319 0.99701 0.05933 0.0
C855 C 0.59057 0.95721 0.05613 0.0
C856 C 0.60225 0.00755 0.074 0.0
C857 C 0.57669 0.97205 0.05126 0.0
C858 C 0.61078 0.96792 0.07018 0.0
C859 C 0.61669 0.9933 0.07967 0.0
O860 O 0.5397 0.9963 0.06838 0.0
O861 O 0.53755 0.02668 0.02222 0.0
O862 O 0.54002 0.07079 0.02412 0.0
O863 O 0.55119 0.05995 0.06065 0.0
O864 O 0.53182 0.99286 0.03133 0.0
O865 O 0.54864 0.03504 0.08673 0.0
O866 O 0.57736 0.0669 0.97599 0.0
O867 O 0.57557 0.04414 0.02533 0.0
O868 O 0.57773 1.00484 0.02295 0.0
O869 O 0.55828 0.00798 0.98738 0.0
O870 O 0.58235 0.07691 0.01386 0.0
O871 O 0.55822 0.03057 0.95791 0.0
C872 C 0.52415 1.0061 0.01834 0.0
C873 C 0.54323 1.006 0.11158 0.0
C874 C 0.53567 0.00972 0.1539 0.0
C875 C 0.53212 0.01482 0.1307 0.0
C876 C 0.55033 0.99523 0.15775 0.0
C877 C 0.55803 0.99172 0.11549 0.0
C878 C 0.56149 0.98631 0.13855 0.0
C879 C 0.54262 0.07385 0.04824 0.0
C880 C 0.53914 0.01256 0.08806 0.0
C881 C 0.63628 1.00471 0.095 0.0
C882 C 0.64112 0.02996 0.1051 0.0
C883 C 0.58884 0.06483 0.02898 0.0
C884 C 0.56968 0.05911 0.93339 0.0
C885 C 0.58492 0.05741 0.91651 0.0
C886 C 0.5832 0.06701 0.8955 0.0
C887 C 0.56618 0.07835 0.89131 0.0
C888 C 0.55236 0.06998 0.92895 0.0
C889 C 0.5507 0.07967 0.90799 0.0
C890 C 0.57208 0.99853 0.9991 0.0
C891 C 0.57264 0.05017 0.9558 0.0
H892 H 0.5205 0.02559 0.1274 0.0
H893 H 0.5533 0.99106 0.17558 0.0
H894 H 0.56682 0.98472 0.10088 0.0
H895 H 0.57287 0.97527 0.14156 0.0
H896 H 0.59824 0.04886 0.9198 0.0
H897 H 0.56474 0.08581 0.87503 0.0
H898 H 0.54024 0.07108 0.9416 0.0
H899 H 0.5374 0.08818 0.90468 0.0
Eu900 Eu 0.33048 0.33059 0.29578 0.0
C901 C 0.2455 0.26357 0.2316 0.0
C902 C 0.22016 0.2511 0.26021 0.0
C903 C 0.20646 0.24855 0.21796 0.0
C904 C 0.24157 0.26111 0.25517 0.0
C905 C 0.22797 0.25722 0.21268 0.0
C906 C 0.20261 0.24515 0.24159 0.0
C907 C 0.25445 0.26476 0.18395 0.0
N908 N 0.26655 0.27059 0.22683 0.0
C909 C 0.27125 0.26991 0.20311 0.0
C910 C 0.23267 0.25858 0.18878 0.0
Eu911 Eu 0.29399 0.27442 0.25945 0.0
N912 N 0.25878 0.26725 0.2729 0.0
C913 C 0.25556 0.26492 0.29634 0.0
C914 C 0.21713 0.24674 0.28367 0.0
C915 C 0.23476 0.25442 0.30203 0.0
H916 H 0.28812 0.27356 0.19908 0.0
H917 H 0.23239 0.25197 0.32048 0.0
H918 H 0.18601 0.23771 0.24524 0.0
H919 H 0.25834 0.26496 0.16538 0.0
H920 H 0.26898 0.27048 0.31071 0.0
H921 H 0.35989 0.40884 0.25326 0.0
H922 H 0.2011 0.23801 0.28796 0.0
H923 H 0.36034 0.29803 0.32348 0.0
H924 H 0.33285 0.38006 0.27084 0.0
H925 H 0.3984 0.29567 0.32918 0.0
H926 H 0.1928 0.24359 0.20369 0.0
H927 H 0.39776 0.40374 0.25162 0.0
H928 H 0.42627 0.3827 0.2635 0.0
H929 H 0.21966 0.25394 0.1738 0.0
H930 H 0.4369 0.35313 0.28545 0.0
N931 N 0.35484 0.35854 0.27787 0.0
C932 C 0.34941 0.37804 0.27031 0.0
C933 C 0.38589 0.39105 0.25917 0.0
C934 C 0.39195 0.37245 0.26903 0.0
C935 C 0.36459 0.39409 0.26017 0.0
C936 C 0.37587 0.35626 0.27854 0.0
H937 H 0.42682 0.32129 0.31049 0.0
N938 N 0.3663 0.32438 0.30067 0.0
C939 C 0.39394 0.30782 0.31816 0.0
C940 C 0.38182 0.33902 0.29051 0.0
C941 C 0.37216 0.30927 0.31477 0.0
C942 C 0.4099 0.32217 0.30739 0.0
C943 C 0.40401 0.33802 0.29342 0.0
O944 O 0.31792 0.34792 0.32852 0.0
O945 O 0.29613 0.30783 0.28795 0.0
O946 O 0.29298 0.30525 0.23946 0.0
O947 O 0.32595 0.3336 0.25559 0.0
O948 O 0.30089 0.34501 0.28699 0.0
O949 O 0.35186 0.35977 0.32412 0.0
O950 O 0.29858 0.24511 0.23033 0.0
O951 O 0.3289 0.2928 0.2751 0.0
O952 O 0.32494 0.30328 0.32037 0.0
O953 O 0.30318 0.26647 0.29661 0.0
O954 O 0.32258 0.27837 0.23731 0.0
O955 O 0.28589 0.23648 0.26426 0.0
C956 C 0.28653 0.32439 0.28509 0.0
C957 C 0.33486 0.38987 0.34258 0.0
C958 C 0.32216 0.42351 0.33034 0.0
C959 C 0.32341 0.39893 0.32567 0.0
C960 C 0.33262 0.43922 0.35245 0.0
C961 C 0.3454 0.40568 0.3645 0.0
C962 C 0.34425 0.4303 0.3694 0.0
C963 C 0.30915 0.32415 0.23836 0.0
C964 C 0.33618 0.36412 0.33683 0.0
C965 C 0.4198 0.35355 0.2832 0.0
C966 C 0.41375 0.37048 0.27078 0.0
C967 C 0.33745 0.28907 0.25532 0.0
C968 C 0.28921 0.20251 0.23287 0.0
C969 C 0.30082 0.1905 0.24632 0.0
C970 C 0.30515 0.16821 0.23524 0.0
C971 C 0.29529 0.15654 0.21136 0.0
C972 C 0.27971 0.19117 0.20892 0.0
C973 C 0.28226 0.16786 0.19846 0.0
C974 C 0.31425 0.28003 0.3175 0.0
C975 C 0.29094 0.22839 0.24246 0.0
H976 H 0.31511 0.38674 0.30892 0.0
H977 H 0.33196 0.45833 0.35652 0.0
H978 H 0.3545 0.39903 0.37774 0.0
H979 H 0.35239 0.4425 0.38635 0.0
H980 H 0.30797 0.19959 0.26487 0.0
H981 H 0.29833 0.13929 0.20231 0.0
H982 H 0.27089 0.20059 0.1982 0.0
H983 H 0.27501 0.15909 0.17992 0.0
Eu984 Eu 0.5558 0.56959 0.03844 0.0
C985 C 0.58298 0.49834 0.95523 0.0
C986 C 0.55376 0.4899 0.92221 0.0
C987 C 0.59059 0.48816 0.91288 0.0
C988 C 0.56135 0.4966 0.94745 0.0
C989 C 0.5978 0.49373 0.93806 0.0
C990 C 0.5686 0.48623 0.90496 0.0
C991 C 0.62535 0.4988 0.97193 0.0
N992 N 0.58933 0.50359 0.97968 0.0
C993 C 0.61005 0.50318 0.98823 0.0
C994 C 0.61928 0.49434 0.94673 0.0
Eu995 Eu 0.56298 0.51285 0.00619 0.0
N996 N 0.54746 0.50008 0.9646 0.0
C997 C 0.52543 0.49514 0.9578 0.0
C998 C 0.53138 0.48632 0.91511 0.0
C999 C 0.5171 0.4886 0.93302 0.0
H1000 H 0.61507 0.50674 0.00763 0.0
H1001 H 0.49969 0.4854 0.92777 0.0
H1002 H 0.56312 0.48132 0.8855 0.0
H1003 H 0.64184 0.49898 0.97884 0.0
H1004 H 0.51417 0.49689 0.97135 0.0
H1005 H 0.61992 0.59884 0.11608 0.0
H1006 H 0.52489 0.4811 0.89593 0.0
H1007 H 0.50307 0.57384 0.03695 0.0
H1008 H 0.60487 0.5845 0.07277 0.0
H1009 H 0.47678 0.58296 0.0659 0.0
H1010 H 0.60177 0.48476 0.89941 0.0
H1011 H 0.59532 0.60631 0.14794 0.0
H1012 H 0.55745 0.60754 0.15853 0.0
H1013 H 0.63117 0.49095 0.93414 0.0
H1014 H 0.51858 0.60312 0.14492 0.0
N1015 N 0.57178 0.58317 0.07974 0.0
C1016 C 0.59383 0.58758 0.08634 0.0
C1017 C 0.58857 0.59999 0.12887 0.0
C1018 C 0.56614 0.59641 0.12192 0.0
C1019 C 0.60251 0.59583 0.11095 0.0
C1020 C 0.55816 0.58811 0.09684 0.0
H1021 H 0.48844 0.59412 0.1105 0.0
N1022 N 0.52941 0.57889 0.06479 0.0
C1023 C 0.49346 0.58375 0.0727 0.0
C1024 C 0.53632 0.5858 0.08916 0.0
C1025 C 0.50847 0.57859 0.05632 0.0
C1026 C 0.50009 0.58999 0.09785 0.0
C1027 C 0.52181 0.59145 0.10637 0.0
O1028 O 0.54836 0.59759 0.02025 0.0
O1029 O 0.55339 0.54701 0.9997 0.0
O1030 O 0.58867 0.54205 0.99501 0.0
O1031 O 0.59099 0.57175 0.03001 0.0
O1032 O 0.5274 0.56199 0.00817 0.0
O1033 O 0.57729 0.60679 0.04644 0.0
O1034 O 0.57248 0.48225 0.01844 0.0
O1035 O 0.56566 0.53539 0.04517 0.0
O1036 O 0.5296 0.54072 0.04927 0.0
O1037 O 0.52765 0.51076 0.01441 0.0
O1038 O 0.59126 0.5203 0.03615 0.0
O1039 O 0.53878 0.4784 0.00412 0.0
C1040 C 0.53503 0.54958 0.99045 0.0
C1041 C 0.56189 0.63912 0.03844 0.0
C1042 C 0.56357 0.67821 0.02649 0.0
C1043 C 0.56968 0.6558 0.02391 0.0
C1044 C 0.55055 0.68429 0.04519 0.0
C1045 C 0.54889 0.64522 0.05694 0.0
C1046 C 0.54352 0.66797 0.06049 0.0
C1047 C 0.59899 0.56289 0.00991 0.0
C1048 C 0.56536 0.61451 0.03129 0.0
C1049 C 0.52951 0.59884 0.13143 0.0
C1050 C 0.55164 0.60135 0.13918 0.0
C1051 C 0.58393 0.53241 0.05425 0.0
C1052 C 0.55104 0.44213 1.00231 0.0
C1053 C 0.54902 0.42561 0.01799 0.0
C1054 C 0.54604 0.40043 0.00858 0.0
C1055 C 0.54526 0.39188 0.98317 0.0
C1056 C 0.55058 0.43362 0.977 0.0
C1057 C 0.54772 0.40848 0.9675 0.0
C1058 C 0.51922 0.52011 0.03403 0.0
C1059 C 0.55283 0.46792 0.01312 0.0
H1060 H 0.58002 0.65079 0.00999 0.0
H1061 H 0.54529 0.70128 0.04763 0.0
H1062 H 0.54257 0.63228 0.06813 0.0
H1063 H 0.53333 0.67268 0.07464 0.0
H1064 H 0.54923 0.43231 0.03755 0.0
H1065 H 0.54296 0.37245 0.97554 0.0
H1066 H 0.55221 0.4463 0.9647 0.0
H1067 H 0.54727 0.40184 0.94796 0.0
Eu1068 Eu 0.8341 0.31241 0.27077 0.0
C1069 C 0.7729 0.24408 0.31624 0.0
C1070 C 0.78318 0.20513 0.30745 0.0
C1071 C 0.76674 0.21669 0.34478 0.0
C1072 C 0.78199 0.22757 0.30114 0.0
C1073 C 0.76472 0.23855 0.33791 0.0
C1074 C 0.77601 0.20006 0.32962 0.0
C1075 C 0.75194 0.27593 0.34359 0.0
N1076 N 0.77144 0.26528 0.30929 0.0
C1077 C 0.76034 0.28069 0.32196 0.0
C1078 C 0.75436 0.25493 0.35175 0.0
Eu1079 Eu 0.78493 0.27087 0.27175 0.0
N1080 N 0.78823 0.23266 0.2795 0.0
C1081 C 0.7941 0.21541 0.26254 0.0
C1082 C 0.79079 0.18807 0.29086 0.0
C1083 C 0.79592 0.19307 0.26813 0.0
H1084 H 0.75854 0.29692 0.31557 0.0
H1085 H 0.8012 0.17971 0.25488 0.0
H1086 H 0.77697 0.18301 0.33488 0.0
H1087 H 0.74367 0.28848 0.35398 0.0
H1088 H 0.79775 0.21904 0.24479 0.0
H1089 H 0.81508 0.40241 0.29074 0.0
H1090 H 0.79205 0.17067 0.29507 0.0
H1091 H 0.86563 0.29312 0.22887 0.0
H1092 H 0.82095 0.36368 0.29986 0.0
H1093 H 0.87886 0.30292 0.19024 0.0
H1094 H 0.76078 0.21223 0.36151 0.0
H1095 H 0.82116 0.41186 0.24998 0.0
H1096 H 0.83471 0.4007 0.20901 0.0
H1097 H 0.74788 0.25133 0.36854 0.0
H1098 H 0.85229 0.37362 0.18158 0.0
N1099 N 0.82926 0.35071 0.26424 0.0
C1100 C 0.82359 0.3675 0.28197 0.0
C1101 C 0.82365 0.39475 0.25384 0.0
C1102 C 0.83123 0.37837 0.23647 0.0
C1103 C 0.8203 0.38954 0.2769 0.0
C1104 C 0.83409 0.35628 0.24236 0.0
H1105 H 0.86926 0.33735 0.17464 0.0
N1106 N 0.84777 0.32076 0.23395 0.0
C1107 C 0.86885 0.31362 0.20022 0.0
C1108 C 0.84392 0.34102 0.22686 0.0
C1109 C 0.86137 0.30811 0.22201 0.0
C1110 C 0.86334 0.33303 0.19145 0.0
C1111 C 0.85123 0.34743 0.20513 0.0
O1112 O 0.86828 0.31093 0.27671 0.0
O1113 O 0.82011 0.2704 0.26482 0.0
O1114 O 0.80212 0.28496 0.3108 0.0
O1115 O 0.82149 0.32272 0.30685 0.0
O1116 O 0.84724 0.2853 0.28951 0.0
O1117 O 0.85827 0.34348 0.29368 0.0
O1118 O 0.75108 0.27336 0.26643 0.0
O1119 O 0.79887 0.31272 0.27764 0.0
O1120 O 0.81956 0.29573 0.23104 0.0
O1121 O 0.79578 0.2597 0.23471 0.0
O1122 O 0.77208 0.29793 0.25262 0.0
O1123 O 0.75975 0.23947 0.25065 0.0
C1124 C 0.83429 0.2647 0.27878 0.0
C1125 C 0.89446 0.3485 0.28246 0.0
C1126 C 0.9341 0.35713 0.28246 0.0
C1127 C 0.91458 0.34367 0.28891 0.0
C1128 C 0.93328 0.37567 0.26941 0.0
C1129 C 0.89378 0.36702 0.26938 0.0
C1130 C 0.91315 0.38049 0.26285 0.0
C1131 C 0.81385 0.3073 0.32065 0.0
C1132 C 0.87461 0.33342 0.28929 0.0
C1133 C 0.84708 0.36855 0.19838 0.0
C1134 C 0.83706 0.38397 0.214 0.0
C1135 C 0.7849 0.31852 0.2635 0.0
C1136 C 0.72358 0.23712 0.26184 0.0
C1137 C 0.70406 0.24253 0.25412 0.0
C1138 C 0.68427 0.23194 0.2622 0.0
C1139 C 0.68405 0.21584 0.27827 0.0
C1140 C 0.72319 0.2204 0.27732 0.0
C1141 C 0.70347 0.20993 0.2856 0.0
C1142 C 0.80609 0.27424 0.22134 0.0
C1143 C 0.74398 0.25062 0.25459 0.0
H1144 H 0.91502 0.32957 0.29933 0.0
H1145 H 0.94812 0.38628 0.26418 0.0
H1146 H 0.87841 0.37114 0.2643 0.0
H1147 H 0.91258 0.39474 0.25273 0.0
H1148 H 0.70432 0.25549 0.24219 0.0
H1149 H 0.66887 0.20761 0.28478 0.0
H1150 H 0.73798 0.21554 0.28309 0.0
H1151 H 0.70326 0.19726 0.29776 0.0
Eu1152 Eu 0.06083 0.52827 0.5542 0.0
C1153 C 0.00885 0.56671 0.47521 0.0
C1154 C 0.9819 0.53053 0.45303 0.0
C1155 C 0.97426 0.57082 0.45677 0.0
C1156 C 1.00251 0.54155 0.46675 0.0
C1157 C 0.99497 0.58171 0.47002 0.0
C1158 C 0.96772 0.54527 0.44832 0.0
C1159 C 0.02348 0.61718 0.49045 0.0
N1160 N 0.02884 0.5766 0.4881 0.0
C1161 C 0.03666 0.60152 0.49503 0.0
C1162 C 1.00244 0.60722 0.47809 0.0
Eu1163 Eu 0.0499 0.54919 0.4966 0.0
N1164 N 0.01649 0.52785 0.47194 0.0
C1165 C 0.01131 0.50306 0.46274 0.0
C1166 C 0.97619 0.50504 0.4444 0.0
C1167 C 0.99104 0.49128 0.44912 0.0
H1168 H 0.05288 0.60925 0.50475 0.0
H1169 H 0.98687 0.47157 0.44236 0.0
H1170 H 0.95176 0.5371 0.43799 0.0
H1171 H 0.02952 0.63688 0.49651 0.0
H1172 H 0.02242 0.492 0.4663 0.0
H1173 H 0.12398 0.6063 0.60732 0.0
H1174 H 0.96048 0.49585 0.43388 0.0
H1175 H 0.05899 0.46824 0.54614 0.0
H1176 H 0.08713 0.58484 0.58671 0.0
H1177 H 0.08443 0.44156 0.5503 0.0
H1178 H 0.96327 0.582 0.45276 0.0
H1179 H 0.15294 0.58359 0.60905 0.0
H1180 H 0.16369 0.54329 0.60027 0.0
H1181 H 0.99224 0.61938 0.47455 0.0
H1182 H 0.15291 0.49843 0.58494 0.0
N1183 N 0.09499 0.55019 0.57663 0.0
C1184 C 0.09944 0.57456 0.58753 0.0
C1185 C 0.1367 0.57399 0.6001 0.0
C1186 C 0.13167 0.54874 0.59007 0.0
C1187 C 0.12038 0.58685 0.59924 0.0
C1188 C 0.11031 0.53716 0.57854 0.0
H1189 H 0.12329 0.46028 0.56665 0.0
N1190 N 0.0834 0.50141 0.55968 0.0
C1191 C 0.09024 0.46134 0.55582 0.0
C1192 C 0.1043 0.51197 0.56991 0.0
C1193 C 0.07588 0.47641 0.5536 0.0
C1194 C 0.11218 0.47199 0.56501 0.0
C1195 C 0.11939 0.49758 0.57255 0.0
O1196 O 0.03952 0.50425 0.57317 0.0
O1197 O 0.03624 0.52942 0.5247 0.0
O1198 O 0.03395 0.56941 0.52567 0.0
O1199 O 0.05251 0.5657 0.56197 0.0
O1200 O 0.0318 0.49669 0.53589 0.0
O1201 O 0.05382 0.54246 0.59116 0.0
O1202 O 0.07202 0.57246 0.47756 0.0
O1203 O 0.07406 0.54884 0.52668 0.0
O1204 O 0.0776 0.50955 0.52506 0.0
O1205 O 0.05671 0.511 0.48972 0.0
O1206 O 0.07791 0.58149 0.51576 0.0
O1207 O 0.06085 0.53317 0.46252 0.0
C1208 C 0.02348 0.5085 0.52177 0.0
C1209 C 0.04597 0.51343 0.61615 0.0
C1210 C 0.03601 0.51222 0.65717 0.0
C1211 C 0.03367 0.51994 0.63506 0.0
C1212 C 0.05076 0.4976 0.66012 0.0
C1213 C 0.06095 0.49916 0.61927 0.0
C1214 C 0.06326 0.49123 0.64123 0.0
C1215 C 0.03945 0.57551 0.54958 0.0
C1216 C 0.04206 0.5211 0.59317 0.0
C1217 C 0.14098 0.50913 0.58302 0.0
C1218 C 0.14711 0.53468 0.59174 0.0
C1219 C 0.08639 0.57003 0.5301 0.0
C1220 C 0.07025 0.55899 0.43497 0.0
C1221 C 0.08694 0.5556 0.42048 0.0
C1222 C 0.08571 0.55895 0.39633 0.0
C1223 C 0.06766 0.56646 0.38702 0.0
C1224 C 0.0522 0.5663 0.42564 0.0
C1225 C 0.05101 0.57015 0.4017 0.0
C1226 C 0.07122 0.50236 0.50137 0.0
C1227 C 0.07223 0.55432 0.45957 0.0
H1228 H 0.02192 0.53073 0.63237 0.0
H1229 H 0.05279 0.49142 0.67707 0.0
H1230 H 0.07064 0.49399 0.60478 0.0
H1231 H 0.07472 0.48009 0.64359 0.0
H1232 H 0.10096 0.5503 0.42814 0.0
H1233 H 0.06621 0.56903 0.36835 0.0
H1234 H 0.03914 0.56894 0.43677 0.0
H1235 H 0.03708 0.57577 0.39442 0.0
Eu1236 Eu 0.78305 0.79729 0.26999 0.0
C1237 C 0.85816 0.76287 0.31794 0.0
C1238 C 0.87392 0.79708 0.35173 0.0
C1239 C 0.8748 0.75564 0.35544 0.0
C1240 C 0.86245 0.78766 0.32808 0.0
C1241 C 0.86495 0.74667 0.33118 0.0
C1242 C 0.8794 0.78085 0.36565 0.0
C1243 C 0.85531 0.71496 0.2942 0.0
N1244 N 0.8495 0.75505 0.29419 0.0
C1245 C 0.8493 0.7319 0.28178 0.0
C1246 C 0.86278 0.72225 0.31917 0.0
Eu1247 Eu 0.83796 0.78403 0.27449 0.0
N1248 N 0.85728 0.80282 0.31394 0.0
C1249 C 0.86471 0.82775 0.32167 0.0
C1250 C 0.88059 0.82256 0.36014 0.0
C1251 C 0.87621 0.83796 0.34492 0.0
H1252 H 0.84363 0.72628 0.2624 0.0
H1253 H 0.88167 0.85771 0.35107 0.0
H1254 H 0.88797 0.78771 0.38396 0.0
H1255 H 0.85431 0.69638 0.28449 0.0
H1256 H 0.86153 0.84008 0.31034 0.0
H1257 H 0.74294 0.72355 0.19157 0.0
H1258 H 0.88988 0.83053 0.37792 0.0
H1259 H 0.7766 0.85483 0.28172 0.0
H1260 H 0.76071 0.74112 0.23342 0.0
H1261 H 0.76597 0.8845 0.2593 0.0
H1262 H 0.87987 0.74343 0.36602 0.0
H1263 H 0.73578 0.7508 0.16422 0.0
H1264 H 0.73658 0.79357 0.15872 0.0
H1265 H 0.86774 0.70922 0.32871 0.0
H1266 H 0.74305 0.83765 0.17714 0.0
N1267 N 0.76448 0.77841 0.23013 0.0
C1268 C 0.75774 0.75346 0.22199 0.0
C1269 C 0.74371 0.75873 0.18268 0.0
C1270 C 0.74923 0.78416 0.19162 0.0
C1271 C 0.74761 0.7433 0.1981 0.0
C1272 C 0.7595 0.79353 0.21583 0.0
H1273 H 0.75356 0.87167 0.21482 0.0
N1274 N 0.77138 0.82605 0.24999 0.0
C1275 C 0.76528 0.86597 0.24965 0.0
C1276 C 0.76325 0.81823 0.22607 0.0
C1277 C 0.77124 0.84915 0.26227 0.0
C1278 C 0.75838 0.85868 0.22455 0.0
C1279 C 0.75673 0.83437 0.21256 0.0
O1280 O 0.76214 0.81209 0.29587 0.0
O1281 O 0.81078 0.7938 0.29507 0.0
O1282 O 0.81388 0.74939 0.28103 0.0
O1283 O 0.77939 0.75685 0.27315 0.0
O1284 O 0.79772 0.82403 0.30532 0.0
O1285 O 0.75247 0.77411 0.27758 0.0
O1286 O 0.85769 0.76921 0.24716 0.0
O1287 O 0.81032 0.78757 0.24918 0.0
O1288 O 0.80705 0.83242 0.26475 0.0
O1289 O 0.84154 0.82455 0.27139 0.0
O1290 O 0.82281 0.75663 0.24012 0.0
O1291 O 0.86914 0.80643 0.26727 0.0
C1292 C 0.81189 0.81264 0.31169 0.0
C1293 C 0.72406 0.79387 0.28775 0.0
C1294 C 0.68773 0.79397 0.3014 0.0
C1295 C 0.70933 0.7912 0.30572 0.0
C1296 C 0.68118 0.79905 0.27879 0.0
C1297 C 0.7169 0.7988 0.26541 0.0
C1298 C 0.69562 0.80136 0.26099 0.0
C1299 C 0.79206 0.74221 0.27796 0.0
C1300 C 0.74689 0.79178 0.29222 0.0
C1301 C 0.74785 0.82547 0.18794 0.0
C1302 C 0.74412 0.80038 0.17747 0.0
C1303 C 0.80915 0.76829 0.23302 0.0
C1304 C 0.89612 0.78535 0.25418 0.0
C1305 C 0.91063 0.78953 0.23624 0.0
C1306 C 0.9317 0.78483 0.23865 0.0
C1307 C 0.93801 0.77628 0.25931 0.0
C1308 C 0.90309 0.77715 0.27471 0.0
C1309 C 0.92387 0.77264 0.27721 0.0
C1310 C 0.82884 0.83943 0.26734 0.0
C1311 C 0.87362 0.78894 0.25131 0.0
H1312 H 0.71476 0.78742 0.32305 0.0
H1313 H 0.66469 0.80096 0.27473 0.0
H1314 H 0.72777 0.80065 0.25133 0.0
H1315 H 0.69028 0.80517 0.24366 0.0
H1316 H 0.90542 0.79591 0.22032 0.0
H1317 H 0.95407 0.77266 0.26175 0.0
H1318 H 0.89244 0.77414 0.2888 0.0
H1319 H 0.92902 0.76621 0.2931 0.0
Eu1320 Eu 0.82771 0.28339 0.73785 0.0
C1321 C 0.78341 0.34609 0.81471 0.0
C1322 C 0.81423 0.37916 0.83483 0.0
C1323 C 0.77713 0.38453 0.83664 0.0
C1324 C 0.80577 0.35536 0.82036 0.0
C1325 C 0.76879 0.36044 0.82304 0.0
C1326 C 0.79979 0.39375 0.8428 0.0
C1327 C 0.73883 0.32486 0.80732 0.0
N1328 N 0.77591 0.32233 0.80284 0.0
C1329 C 0.75403 0.31122 0.80008 0.0
C1330 C 0.74624 0.34969 0.81861 0.0
Eu1331 Eu 0.80226 0.29948 0.79355 0.0
N1332 N 0.81919 0.34057 0.81293 0.0
C1333 C 0.84132 0.34845 0.81924 0.0
C1334 C 0.83689 0.38727 0.84152 0.0
C1335 C 0.85052 0.37196 0.83343 0.0
H1336 H 0.74832 0.29186 0.79188 0.0
H1337 H 0.86807 0.37812 0.83839 0.0
H1338 H 0.80597 0.41208 0.85399 0.0
H1339 H 0.72147 0.31614 0.8045 0.0
H1340 H 0.85202 0.3367 0.81332 0.0
H1341 H 0.79431 0.27787 0.64412 0.0
H1342 H 0.84398 0.40515 0.85321 0.0
H1343 H 0.83591 0.23657 0.76535 0.0
H1344 H 0.80915 0.29802 0.68695 0.0
H1345 H 0.83782 0.194 0.75271 0.0
H1346 H 0.76618 0.39586 0.84323 0.0
H1347 H 0.79082 0.23331 0.6297 0.0
H1348 H 0.79724 0.19388 0.63853 0.0
H1349 H 0.73447 0.36012 0.82466 0.0
H1350 H 0.81056 0.17169 0.66757 0.0
N1351 N 0.81233 0.26486 0.69709 0.0
C1352 C 0.80708 0.27841 0.68096 0.0
C1353 C 0.79695 0.24199 0.64861 0.0
C1354 C 0.80356 0.22851 0.66487 0.0
C1355 C 0.79888 0.26713 0.65667 0.0
C1356 C 0.81128 0.24064 0.68936 0.0
H1357 H 0.82732 0.17219 0.70955 0.0
N1358 N 0.82523 0.24024 0.72941 0.0
C1359 C 0.83246 0.20341 0.73928 0.0
C1360 C 0.81842 0.2281 0.70583 0.0
C1361 C 0.83171 0.22798 0.74626 0.0
C1362 C 0.82626 0.19108 0.71499 0.0
C1363 C 0.81844 0.2031 0.69809 0.0
O1364 O 0.86278 0.29927 0.74755 0.0
O1365 O 0.82556 0.31345 0.76854 0.0
O1366 O 0.78039 0.30675 0.76279 0.0
O1367 O 0.79276 0.28825 0.72669 0.0
O1368 O 0.8243 0.32072 0.73322 0.0
O1369 O 0.84984 0.28802 0.70954 0.0
O1370 O 0.7829 0.274 0.81307 0.0
O1371 O 0.80824 0.26891 0.76547 0.0
O1372 O 0.84987 0.27823 0.76902 0.0
O1373 O 0.83554 0.29273 0.80474 0.0
O1374 O 0.77617 0.26619 0.7742 0.0
O1375 O 0.81228 0.30024 0.83177 0.0
C1376 C 0.82387 0.32944 0.75617 0.0
C1377 C 0.87968 0.32321 0.72138 0.0
C1378 C 0.88396 0.35768 0.70096 0.0
C1379 C 0.87167 0.33507 0.70436 0.0
C1380 C 0.90414 0.36878 0.71534 0.0
C1381 C 0.89992 0.33442 0.73553 0.0
C1382 C 0.91201 0.35719 0.73259 0.0
C1383 C 0.77831 0.29885 0.73849 0.0
C1384 C 0.86685 0.29961 0.7252 0.0
C1385 C 0.81076 0.19091 0.67376 0.0
C1386 C 0.80313 0.20352 0.65725 0.0
C1387 C 0.78875 0.25601 0.76062 0.0
C1388 C 0.78421 0.28728 0.85561 0.0
C1389 C 0.78022 0.26875 0.86889 0.0
C1390 C 0.7696 0.27163 0.89014 0.0
C1391 C 0.76298 0.29347 0.89803 0.0
C1392 C 0.77764 0.30908 0.86358 0.0
C1393 C 0.76697 0.31209 0.88471 0.0
C1394 C 0.85071 0.28398 0.79319 0.0
C1395 C 0.79536 0.2831 0.83367 0.0
H1396 H 0.85583 0.32677 0.69376 0.0
H1397 H 0.91405 0.38612 0.71287 0.0
H1398 H 0.90629 0.32561 0.74893 0.0
H1399 H 0.9276 0.36576 0.74353 0.0
H1400 H 0.78586 0.25221 0.86287 0.0
H1401 H 0.7547 0.2961 0.91438 0.0
H1402 H 0.78088 0.32374 0.85368 0.0
H1403 H 0.76189 0.32891 0.89085 0.0
Eu1404 Eu 0.83246 0.82233 0.79231 0.0
C1405 C 0.74142 0.75245 0.74487 0.0
C1406 C 0.72471 0.73897 0.77921 0.0
C1407 C 0.70224 0.73363 0.74079 0.0
C1408 C 0.74337 0.74934 0.76861 0.0
C1409 C 0.72067 0.74528 0.73086 0.0
C1410 C 0.70432 0.73018 0.76485 0.0
C1411 C 0.73776 0.76159 0.69826 0.0
N1412 N 0.75965 0.76361 0.73592 0.0
C1413 C 0.75802 0.76778 0.71257 0.0
C1414 C 0.719 0.75014 0.70736 0.0
Eu1415 Eu 0.7939 0.76607 0.75865 0.0
N1416 N 0.76319 0.75864 0.78203 0.0
C1417 C 0.76425 0.76253 0.80708 0.0
C1418 C 0.72685 0.73916 0.80428 0.0
C1419 C 0.74644 0.75214 0.81849 0.0
H1420 H 0.7723 0.77485 0.7041 0.0
H1421 H 0.74777 0.75439 0.83824 0.0
H1422 H 0.68985 0.72193 0.77261 0.0
H1423 H 0.73676 0.76503 0.67989 0.0
H1424 H 0.77866 0.7737 0.8186 0.0
H1425 H 0.87972 0.83465 0.71353 0.0
H1426 H 0.71299 0.73122 0.81313 0.0
H1427 H 0.85165 0.81958 0.84904 0.0
H1428 H 0.84757 0.81765 0.73213 0.0
H1429 H 0.88667 0.82536 0.87361 0.0
H1430 H 0.68625 0.7277 0.73019 0.0
H1431 H 0.91543 0.85188 0.73882 0.0
H1432 H 0.93807 0.85599 0.77844 0.0
H1433 H 0.70336 0.74504 0.69609 0.0
H1434 H 0.94029 0.84976 0.82069 0.0
N1435 N 0.86336 0.82801 0.7689 0.0
C1436 C 0.86234 0.82637 0.74404 0.0
C1437 C 0.90104 0.8448 0.74733 0.0
C1438 C 0.90268 0.84304 0.7719 0.0
C1439 C 0.88092 0.83532 0.73306 0.0
C1440 C 0.88334 0.83423 0.78225 0.0
H1441 H 0.92139 0.83715 0.85578 0.0
N1442 N 0.86565 0.82308 0.81573 0.0
C1443 C 0.88639 0.82651 0.85449 0.0
C1444 C 0.88456 0.83098 0.8061 0.0
C1445 C 0.86643 0.82236 0.84011 0.0
C1446 C 0.90591 0.83332 0.84443 0.0
C1447 C 0.90518 0.83634 0.82021 0.0
O1448 O 0.82807 0.84089 0.82882 0.0
O1449 O 0.79786 0.7998 0.7869 0.0
O1450 O 0.79903 0.79621 0.73657 0.0
O1451 O 0.82245 0.83361 0.75735 0.0
O1452 O 0.80223 0.83683 0.78747 0.0
O1453 O 0.84705 0.86154 0.80516 0.0
O1454 O 0.79724 0.75097 0.72078 0.0
O1455 O 0.82854 0.7887 0.76389 0.0
O1456 O 0.82772 0.79181 0.81505 0.0
O1457 O 0.80347 0.75506 0.79357 0.0
O1458 O 0.82404 0.752 0.76509 0.0
O1459 O 0.78445 0.72631 0.74439 0.0
C1460 C 0.78796 0.81628 0.78509 0.0
C1461 C 0.82997 0.8831 0.83551 0.0
C1462 C 0.80641 0.91005 0.82881 0.0
C1463 C 0.81588 0.89061 0.81995 0.0
C1464 C 0.8115 0.92217 0.85362 0.0
C1465 C 0.83485 0.89517 0.86019 0.0
C1466 C 0.82566 0.91472 0.86918 0.0
C1467 C 0.80931 0.81947 0.73793 0.0
C1468 C 0.83928 0.86233 0.82639 0.0
C1469 C 0.92438 0.84537 0.81006 0.0
C1470 C 0.9231 0.8491 0.7861 0.0
C1471 C 0.8384 0.77231 0.76639 0.0
C1472 C 0.80657 0.71334 0.71391 0.0
C1473 C 0.81904 0.70443 0.73004 0.0
C1474 C 0.83622 0.69421 0.7221 0.0
C1475 C 0.84017 0.69166 0.69741 0.0
C1476 C 0.81061 0.71067 0.68924 0.0
C1477 C 0.82724 0.69968 0.68102 0.0
C1478 C 0.81681 0.76844 0.81316 0.0
C1479 C 0.79144 0.72822 0.72311 0.0
H1480 H 0.81219 0.88122 0.80093 0.0
H1481 H 0.80481 0.93758 0.86092 0.0
H1482 H 0.84572 0.88948 0.87247 0.0
H1483 H 0.82954 0.92412 0.88823 0.0
H1484 H 0.81571 0.70585 0.74898 0.0
H1485 H 0.85337 0.68376 0.6909 0.0
H1486 H 0.80128 0.71767 0.67652 0.0
H1487 H 0.83042 0.69786 0.66204 0.0
Eu1488 Eu 0.53418 0.52088 0.50646 0.0
C1489 C 0.59431 0.61511 0.57559 0.0
C1490 C 0.60049 0.64617 0.55124 0.0
C1491 C 0.60282 0.65839 0.59556 0.0
C1492 C 0.59471 0.62125 0.55294 0.0
C1493 C 0.59888 0.63361 0.59723 0.0
C1494 C 0.60377 0.66468 0.57258 0.0
C1495 C 0.59849 0.60205 0.62047 0.0
N1496 N 0.59135 0.5911 0.57651 0.0
C1497 C 0.59429 0.58444 0.59851 0.0
C1498 C 0.60042 0.62672 0.61986 0.0
Eu1499 Eu 0.58369 0.56192 0.53865 0.0
N1500 N 0.59174 0.60294 0.53274 0.0
C1501 C 0.59619 0.6084 0.51054 0.0
C1502 C 0.60419 0.65176 0.52838 0.0
C1503 C 0.60225 0.63277 0.50798 0.0
H1504 H 0.59283 0.56543 0.59928 0.0
H1505 H 0.60575 0.63683 0.49031 0.0
H1506 H 0.60787 0.68391 0.57156 0.0
H1507 H 0.60022 0.59656 0.63784 0.0
H1508 H 0.595 0.59408 0.49457 0.0
H1509 H 0.515 0.44946 0.56009 0.0
H1510 H 0.60958 0.67065 0.52656 0.0
H1511 H 0.52766 0.51384 0.44527 0.0
H1512 H 0.52228 0.49137 0.5529 0.0
H1513 H 0.5229 0.48087 0.40825 0.0
H1514 H 0.60614 0.67286 0.61195 0.0
H1515 H 0.51395 0.41445 0.52596 0.0
H1516 H 0.5158 0.39906 0.48119 0.0
H1517 H 0.60387 0.64037 0.63688 0.0
H1518 H 0.51793 0.40759 0.43977 0.0
N1519 N 0.52634 0.48081 0.51506 0.0
C1520 C 0.52196 0.4765 0.5377 0.0
C1521 C 0.51738 0.43294 0.52269 0.0
C1522 C 0.52049 0.43726 0.49923 0.0
C1523 C 0.51781 0.45263 0.54194 0.0
C1524 C 0.5247 0.46169 0.4959 0.0
H1525 H 0.52014 0.43797 0.41235 0.0
N1526 N 0.52825 0.48995 0.47009 0.0
C1527 C 0.52379 0.47655 0.42625 0.0
C1528 C 0.52578 0.46643 0.47266 0.0
C1529 C 0.5264 0.49515 0.44725 0.0
C1530 C 0.52231 0.45238 0.42865 0.0
C1531 C 0.52288 0.44698 0.45203 0.0
O1532 O 0.50587 0.52643 0.48579 0.0
O1533 O 0.55155 0.56104 0.51877 0.0
O1534 O 0.55747 0.56716 0.5652 0.0
O1535 O 0.52969 0.5325 0.54801 0.0
O1536 O 0.53747 0.54924 0.48279 0.0
O1537 O 0.50268 0.5167 0.52127 0.0
O1538 O 0.61239 0.5541 0.55648 0.0
O1539 O 0.56622 0.52192 0.52624 0.0
O1540 O 0.56137 0.5151 0.48136 0.0
O1541 O 0.58699 0.55196 0.49656 0.0
O1542 O 0.58041 0.53329 0.56201 0.0
O1543 O 0.61443 0.5666 0.52231 0.0
C1544 C 0.54787 0.56822 0.499 0.0
C1545 C 0.47063 0.50695 0.4936 0.0
C1546 C 0.43177 0.5059 0.48953 0.0
C1547 C 0.45355 0.51845 0.49797 0.0
C1548 C 0.42724 0.48118 0.47706 0.0
C1549 C 0.46611 0.48238 0.48104 0.0
C1550 C 0.44438 0.46952 0.47287 0.0
C1551 C 0.53859 0.55146 0.56659 0.0
C1552 C 0.49285 0.52157 0.5023 0.0
C1553 C 0.51994 0.42276 0.45536 0.0
C1554 C 0.51873 0.4179 0.47894 0.0
C1555 C 0.56979 0.51447 0.54582 0.0
C1556 C 0.64708 0.57492 0.54859 0.0
C1557 C 0.66383 0.56262 0.54732 0.0
C1558 C 0.68571 0.57557 0.55412 0.0
C1559 C 0.69075 0.60121 0.5623 0.0
C1560 C 0.65204 0.60048 0.55706 0.0
C1561 C 0.6739 0.61357 0.56393 0.0
C1562 C 0.57914 0.53187 0.4789 0.0
C1563 C 0.62484 0.56034 0.53995 0.0
H1564 H 0.45731 0.53735 0.50814 0.0
H1565 H 0.41057 0.47105 0.47026 0.0
H1566 H 0.47926 0.47327 0.47757 0.0
H1567 H 0.44082 0.45054 0.46314 0.0
H1568 H 0.65983 0.54288 0.54036 0.0
H1569 H 0.70761 0.61157 0.5675 0.0
H1570 H 0.63915 0.61023 0.55809 0.0
H1571 H 0.67779 0.63332 0.57035 0.0
Eu1572 Eu 0.0867 0.54561 0.00792 0.0
C1573 C 0.00847 0.49505 0.05936 0.0
C1574 C 0.98851 0.45787 0.03098 0.0
C1575 C 0.98849 0.46042 0.07485 0.0
C1576 C 1.00234 0.48177 0.03557 0.0
C1577 C 1.00141 0.48464 0.07928 0.0
C1578 C 0.98197 0.4471 0.05073 0.0
C1579 C 0.01893 0.52349 0.10639 0.0
N1580 N 0.02051 0.51859 0.06297 0.0
C1581 C 0.0253 0.5331 0.08604 0.0
C1582 C 0.00707 0.49908 0.10303 0.0
Eu1583 Eu 0.03118 0.5333 0.02759 0.0
N1584 N 0.00884 0.49272 0.01687 0.0
C1585 C 1.00135 0.48115 0.99314 0.0
C1586 C 0.98105 0.44584 0.00668 0.0
C1587 C 0.98753 0.45752 0.98767 0.0
H1588 H 0.03448 0.55198 0.08889 0.0
H1589 H 0.98173 0.44843 0.9688 0.0
H1590 H 0.97153 0.42866 0.04755 0.0
H1591 H 0.02312 0.53493 0.12465 0.0
H1592 H 0.00597 0.49001 0.97828 0.0
H1593 H 0.13151 0.63115 0.06976 0.0
H1594 H 0.96987 0.42779 1.00245 0.0
H1595 H 0.08799 0.52815 0.94744 0.0
H1596 H 0.11057 0.58792 0.05865 0.0
H1597 H 0.09977 0.54678 0.91254 0.0
H1598 H 0.983 0.45205 0.08992 0.0
H1599 H 0.14137 0.6543 0.0373 0.0
H1600 H 0.14118 0.65446 0.99236 0.0
H1601 H 1.002 0.49174 0.11881 0.0
H1602 H 0.13258 0.63149 0.94953 0.0
N1603 N 0.10773 0.58673 0.02026 0.0
C1604 C 0.11466 0.59776 0.04427 0.0
C1605 C 0.13198 0.63536 0.03231 0.0
C1606 C 0.12589 0.62354 0.00769 0.0
C1607 C 0.12656 0.62231 0.05067 0.0
C1608 C 0.11378 0.59881 1.00219 0.0
H1609 H 0.11749 0.59122 0.9196 0.0
N1610 N 0.09841 0.56183 0.97375 0.0
C1611 C 0.10234 0.55804 0.93088 0.0
C1612 C 0.10893 0.58596 0.97815 0.0
C1613 C 0.09576 0.54754 0.95066 0.0
C1614 C 0.11229 0.58314 0.93494 0.0
C1615 C 0.11603 0.59736 0.95885 0.0
O1616 O 0.10636 0.52002 0.99449 0.0
O1617 O 0.05775 0.51675 0.01274 0.0
O1618 O 0.05308 0.51989 0.05214 0.0
O1619 O 0.08595 0.54692 0.0489 0.0
O1620 O 0.07323 0.50826 0.98208 0.0
O1621 O 0.11673 0.54518 0.02957 0.0
O1622 O 0.01257 0.56007 0.04084 0.0
O1623 O 0.05994 0.56244 0.0221 0.0
O1624 O 0.06421 0.55522 0.98038 0.0
O1625 O 0.0312 0.53004 0.98656 0.0
O1626 O 0.04576 0.56974 0.05405 0.0
O1627 O 1.00093 0.53394 0.00653 0.0
C1628 C 0.05756 0.49993 0.99427 0.0
C1629 C 0.1442 0.53272 0.00705 0.0
C1630 C 0.17934 0.52139 0.00726 0.0
C1631 C 0.15779 0.51814 0.0138 0.0
C1632 C 0.18695 0.5395 0.9938 0.0
C1633 C 0.1522 0.5508 0.9939 0.0
C1634 C 0.17348 0.55413 0.98731 0.0
C1635 C 0.07355 0.53154 0.06026 0.0
C1636 C 0.1215 0.52828 0.01308 0.0
C1637 C 0.12718 0.62231 0.96412 0.0
C1638 C 0.13209 0.63539 0.98851 0.0
C1639 C 0.06068 0.57866 0.0413 0.0
C1640 C 0.97457 0.54825 0.02974 0.0
C1641 C 0.96239 0.56532 0.02623 0.0
C1642 C 0.94158 0.56343 0.03452 0.0
C1643 C 0.933 0.54409 0.04605 0.0
C1644 C 0.9657 0.52898 0.04113 0.0
C1645 C 0.94497 0.5269 0.04918 0.0
C1646 C 0.04374 0.54281 0.97308 0.0
C1647 C 0.99694 0.55162 0.02277 0.0
H1648 H 0.15157 0.5044 0.02424 0.0
H1649 H 0.20323 0.54218 0.98797 0.0
H1650 H 0.14195 0.56216 0.98856 0.0
H1651 H 0.17951 0.56797 0.97696 0.0
H1652 H 0.96932 0.58039 0.01764 0.0
H1653 H 0.91694 0.54217 0.05245 0.0
H1654 H 0.97486 0.51572 0.04402 0.0
H1655 H 0.93822 0.51202 0.05803 0.0
C1656 C 0.05782 0.20471 0.97189 0.0
C1657 C 0.03796 0.2075 0.96116 0.0
C1658 C 0.05943 0.18319 0.97997 0.0
C1659 C 0.04072 0.16339 0.97779 0.0
C1660 C 0.02037 0.16624 0.96761 0.0
C1661 C 0.01922 0.18809 0.9594 0.0
C1662 C 0.08143 0.18167 0.99073 0.0
C1663 C 0.99983 0.14593 0.96498 0.0
C1664 C 0.04967 0.09812 0.9716 0.0
C1665 C 0.04792 0.09343 0.99528 0.0
C1666 C 0.04752 0.12057 0.96591 0.0
C1667 C 0.04297 0.13918 0.98416 0.0
C1668 C 0.04135 0.13468 0.0083 0.0
C1669 C 0.04392 0.112 0.0136 0.0
C1670 C 0.05017 0.12433 0.94017 0.0
C1671 C 0.03674 0.15376 0.02858 0.0
H1672 H 0.0725 0.21941 0.97372 0.0
H1673 H 0.00372 0.18977 0.95123 0.0
H1674 H 0.08058 0.18099 0.01029 0.0
H1675 H 0.08553 0.16467 0.9812 0.0
H1676 H 0.09481 0.19768 0.98949 0.0
H1677 H 0.98502 0.15145 0.95857 0.0
H1678 H 1.0015 0.12952 0.95168 0.0
H1679 H 0.99747 0.14043 0.98282 0.0
H1680 H 0.05268 0.08394 0.95725 0.0
H1681 H 0.04224 0.10857 0.03188 0.0
H1682 H 0.06363 0.14079 0.94058 0.0
H1683 H 0.03494 0.12769 0.93195 0.0
H1684 H 0.05392 0.10826 0.92811 0.0
H1685 H 0.05146 0.16931 0.03398 0.0
H1686 H 0.03254 0.14625 0.04507 0.0
H1687 H 0.02307 0.16116 0.02222 0.0
C1688 C 0.16429 0.8091 0.16591 0.0
C1689 C 0.16717 0.82198 0.14682 0.0
C1690 C 0.18243 0.80567 0.17998 0.0
C1691 C 0.20419 0.81584 0.17541 0.0
C1692 C 0.20717 0.82952 0.15669 0.0
C1693 C 0.18876 0.83212 0.14252 0.0
C1694 C 0.17828 0.79053 0.19931 0.0
C1695 C 0.22989 0.84129 0.15143 0.0
C1696 C 0.25139 0.82389 0.22581 0.0
C1697 C 0.26062 0.80404 0.21735 0.0
C1698 C 0.23334 0.82809 0.21239 0.0
C1699 C 0.22378 0.81186 0.18985 0.0
C1700 C 0.23325 0.792 0.18096 0.0
C1701 C 0.25167 0.78863 0.19451 0.0
C1702 C 0.22452 0.85 0.2224 0.0
C1703 C 0.22366 0.77395 0.15727 0.0
H1704 H 0.14778 0.80091 0.16932 0.0
H1705 H 0.19133 0.84214 0.12791 0.0
H1706 H 0.18549 0.77441 0.19494 0.0
H1707 H 0.18643 0.80153 0.21744 0.0
H1708 H 0.16052 0.78387 0.20076 0.0
H1709 H 0.22955 0.85272 0.13749 0.0
H1710 H 0.23962 0.85301 0.16851 0.0
H1711 H 0.23856 0.82687 0.1447 0.0
H1712 H 0.25843 0.83648 0.24289 0.0
H1713 H 0.25867 0.77342 0.1874 0.0
H1714 H 0.20717 0.84379 0.22572 0.0
H1715 H 0.22488 0.86183 0.20876 0.0
H1716 H 0.23406 0.86124 0.23983 0.0
H1717 H 0.20605 0.76575 0.15808 0.0
H1718 H 0.23224 0.7589 0.15332 0.0
H1719 H 0.22467 0.7836 0.1418 0.0
C1720 C 0.53997 0.85431 0.46306 0.0
C1721 C 0.51848 0.8399 0.46186 0.0
C1722 C 0.54492 0.88027 0.47071 0.0
C1723 C 0.52807 0.8923 0.47744 0.0
C1724 C 0.50658 0.87766 0.47699 0.0
C1725 C 0.50211 0.85189 0.46937 0.0
C1726 C 0.56809 0.89493 0.47077 0.0
C1727 C 0.48809 0.88917 0.48435 0.0
C1728 C 0.54399 0.96029 0.51156 0.0
C1729 C 0.54264 0.97258 0.49225 0.0
C1730 C 0.53894 0.93428 0.50722 0.0
C1731 C 0.5325 0.92009 0.48295 0.0
C1732 C 0.53043 0.93257 0.46361 0.0
C1733 C 0.5357 0.95849 0.46845 0.0
C1734 C 0.54115 0.92203 0.52854 0.0
C1735 C 0.52305 0.91852 0.43757 0.0
H1736 H 0.5528 0.84541 0.45724 0.0
H1737 H 0.48548 0.84111 0.46884 0.0
H1738 H 0.56853 0.90637 0.45677 0.0
H1739 H 0.57384 0.90761 0.48884 0.0
H1740 H 0.57965 0.88298 0.46678 0.0
H1741 H 0.47185 0.87577 0.4801 0.0
H1742 H 0.49089 0.89671 0.50436 0.0
H1743 H 0.48772 0.90449 0.47496 0.0
H1744 H 0.54978 0.97102 0.52993 0.0
H1745 H 0.53488 0.96786 0.45341 0.0
H1746 H 0.55346 0.91092 0.52561 0.0
H1747 H 0.52532 0.9093 0.5298 0.0
H1748 H 0.54619 0.93555 0.54626 0.0
H1749 H 0.53487 0.90755 0.4313 0.0
H1750 H 0.52165 0.93084 0.42471 0.0
H1751 H 0.50688 0.90547 0.43667 0.0
C1752 C 0.53695 0.32678 0.67033 0.0
C1753 C 0.53778 0.30776 0.65071 0.0
C1754 C 0.51944 0.32448 0.68501 0.0
C1755 C 0.50276 0.30228 0.68055 0.0
C1756 C 0.50385 0.28288 0.66093 0.0
C1757 C 0.52104 0.28607 0.64599 0.0
C1758 C 0.51857 0.34601 0.70499 0.0
C1759 C 0.48702 0.25857 0.65593 0.0
C1760 C 0.47169 0.28644 0.73409 0.0
C1761 C 0.45028 0.28831 0.72725 0.0
C1762 C 0.48862 0.29064 0.71904 0.0
C1763 C 0.48487 0.29872 0.69712 0.0
C1764 C 0.46388 0.30247 0.69082 0.0
C1765 C 0.44677 0.29673 0.70559 0.0
C1766 C 0.51039 0.28556 0.72627 0.0
C1767 C 0.45933 0.31215 0.66824 0.0
H1768 H 0.54964 0.34375 0.67369 0.0
H1769 H 0.52157 0.27142 0.63069 0.0
H1770 H 0.50255 0.35078 0.70256 0.0
H1771 H 0.51989 0.34107 0.72316 0.0
H1772 H 0.53192 0.3625 0.70509 0.0
H1773 H 0.49066 0.24501 0.64066 0.0
H1774 H 0.48635 0.25074 0.67265 0.0
H1775 H 0.47051 0.26129 0.65122 0.0
H1776 H 0.47541 0.28133 0.75125 0.0
H1777 H 0.43058 0.29841 0.69974 0.0
H1778 H 0.52365 0.30261 0.72918 0.0
H1779 H 0.51441 0.27202 0.71128 0.0
H1780 H 0.51039 0.27821 0.74329 0.0
H1781 H 0.47278 0.32814 0.66717 0.0
H1782 H 0.44359 0.31782 0.66797 0.0
H1783 H 0.45853 0.29772 0.65161 0.0
C1784 C 0.03721 0.79762 0.58477 0.0
C1785 C 0.02484 0.80104 0.60458 0.0
C1786 C 0.03985 0.81378 0.56861 0.0
C1787 C 0.0297 0.83368 0.57222 0.0
C1788 C 0.0171 0.83719 0.5921 0.0
C1789 C 0.01492 0.82088 0.60814 0.0
C1790 C 0.05361 0.80965 0.54775 0.0
C1791 C 0.00591 0.85813 0.5964 0.0
C1792 C 0.05266 0.88817 0.54416 0.0
C1793 C 0.03803 0.88349 0.52284 0.0
C1794 C 0.05008 0.87215 0.56045 0.0
C1795 C 0.03246 0.85095 0.55527 0.0
C1796 C 0.01766 0.84608 0.53377 0.0
C1797 C 0.02065 0.86241 0.51776 0.0
C1798 C 0.06627 0.87787 0.58313 0.0
C1799 C 0.9986 0.82369 0.52776 0.0
H1800 H 0.045 0.78238 0.58196 0.0
H1801 H 0.00526 0.82358 0.62336 0.0
H1802 H 0.0436 0.80711 0.52997 0.0
H1803 H 0.06739 0.82604 0.54921 0.0
H1804 H 0.06044 0.79332 0.54751 0.0
H1805 H 0.99637 0.85803 0.61244 0.0
H1806 H 0.01828 0.87595 0.59946 0.0
H1807 H 0.99465 0.85706 0.57992 0.0
H1808 H 0.06625 0.90434 0.54803 0.0
H1809 H 0.00914 0.85893 0.50149 0.0
H1810 H 0.0745 0.86263 0.58303 0.0
H1811 H 0.05756 0.87948 0.59978 0.0
H1812 H 0.07901 0.89521 0.58453 0.0
H1813 H 0.0047 0.80677 0.52608 0.0
H1814 H 0.98848 0.82267 0.51041 0.0
H1815 H 0.98797 0.82392 0.54286 0.0
C1816 C 0.54733 0.82554 0.82456 0.0
C1817 C 0.54827 0.82562 0.8497 0.0
C1818 C 0.52925 0.83038 0.81225 0.0
C1819 C 0.51174 0.8353 0.82543 0.0
C1820 C 0.51258 0.83536 0.85078 0.0
C1821 C 0.53087 0.83055 0.86263 0.0
C1822 C 0.52887 0.83027 0.78519 0.0
C1823 C 0.49412 0.84041 0.86538 0.0
C1824 C 0.47194 0.86835 0.80135 0.0
C1825 C 0.45386 0.84871 0.79151 0.0
C1826 C 0.49122 0.86419 0.81181 0.0
C1827 C 0.49226 0.83988 0.81266 0.0
C1828 C 0.47428 0.81994 0.80224 0.0
C1829 C 0.45539 0.82459 0.79157 0.0
C1830 C 0.51023 0.88584 0.82259 0.0
C1831 C 0.47474 0.79377 0.80301 0.0
H1832 H 0.56078 0.82184 0.8145 0.0
H1833 H 0.53152 0.83068 0.88208 0.0
H1834 H 0.51452 0.81608 0.77488 0.0
H1835 H 0.52706 0.84828 0.78185 0.0
H1836 H 0.54398 0.82654 0.77773 0.0
H1837 H 0.49741 0.83991 0.88502 0.0
H1838 H 0.49149 0.85873 0.86424 0.0
H1839 H 0.47864 0.82659 0.85755 0.0
H1840 H 0.47081 0.88703 0.80156 0.0
H1841 H 0.44166 0.80927 0.7835 0.0
H1842 H 0.52547 0.88293 0.81492 0.0
H1843 H 0.51301 0.88758 0.84272 0.0
H1844 H 0.50736 0.90339 0.81897 0.0
H1845 H 0.48901 0.78904 0.79435 0.0
H1846 H 0.45957 0.7803 0.79351 0.0
H1847 H 0.47669 0.79182 0.82234 0.0
C1848 C 0.4837 0.17861 0.10229 0.0
C1849 C 0.49778 0.19508 0.12175 0.0
C1850 C 0.48877 0.1566 0.09131 0.0
C1851 C 0.50842 0.15132 0.0999 0.0
C1852 C 0.52212 0.16731 0.12022 0.0
C1853 C 0.51655 0.18889 0.13098 0.0
C1854 C 0.4737 0.13959 0.06983 0.0
C1855 C 0.54337 0.16243 0.12969 0.0
C1856 C 0.52127 0.08929 0.08084 0.0
C1857 C 0.53436 0.09358 0.06208 0.0
C1858 C 0.51195 0.1077 0.09289 0.0
C1859 C 0.51619 0.13078 0.08604 0.0
C1860 C 0.52948 0.13507 0.06709 0.0
C1861 C 0.53844 0.11635 0.05536 0.0
C1862 C 0.49771 0.10253 0.11292 0.0
C1863 C 0.53466 0.15958 0.05952 0.0
H1864 H 0.46907 0.18317 0.09525 0.0
H1865 H 0.52748 0.20138 0.14616 0.0
H1866 H 0.48164 0.1404 0.05275 0.0
H1867 H 0.47056 0.12029 0.07217 0.0
H1868 H 0.45776 0.14457 0.06751 0.0
H1869 H 0.55127 0.17574 0.14684 0.0
H1870 H 0.54049 0.14359 0.13326 0.0
H1871 H 0.555 0.16366 0.11561 0.0
H1872 H 0.51797 0.07142 0.08569 0.0
H1873 H 0.54899 0.11965 0.0412 0.0
H1874 H 0.48154 0.10643 0.10891 0.0
H1875 H 0.50543 0.11484 0.13064 0.0
H1876 H 0.49506 0.08318 0.11504 0.0
H1877 H 0.51926 0.16458 0.05428 0.0
H1878 H 0.54464 0.15948 0.04382 0.0
H1879 H 0.54379 0.17413 0.07519 0.0
C1880 C 0.1647 0.30955 0.32054 0.0
C1881 C 0.16055 0.33257 0.3285 0.0
C1882 C 0.1838 0.30733 0.31 0.0
C1883 C 0.19954 0.32865 0.30798 0.0
C1884 C 0.19499 0.35202 0.31506 0.0
C1885 C 0.17532 0.3537 0.32506 0.0
C1886 C 0.18752 0.28217 0.30202 0.0
C1887 C 0.2114 0.37524 0.31338 0.0
C1888 C 0.25887 0.3251 0.3141 0.0
C1889 C 0.26391 0.32366 0.28999 0.0
C1890 C 0.23797 0.32679 0.32012 0.0
C1891 C 0.22166 0.32663 0.3014 0.0
C1892 C 0.22659 0.32444 0.27678 0.0
C1893 C 0.24792 0.32347 0.27142 0.0
C1894 C 0.2335 0.32916 0.3466 0.0
C1895 C 0.20952 0.3235 0.25622 0.0
H1896 H 0.15306 0.29319 0.3229 0.0
H1897 H 0.17204 0.37156 0.33131 0.0
H1898 H 0.19251 0.28012 0.28325 0.0
H1899 H 0.20088 0.28007 0.31469 0.0
H1900 H 0.17269 0.26733 0.30208 0.0
H1901 H 0.20454 0.39167 0.31728 0.0
H1902 H 0.22603 0.37814 0.32675 0.0
H1903 H 0.21703 0.37354 0.29487 0.0
H1904 H 0.27149 0.32543 0.32837 0.0
H1905 H 0.25208 0.32248 0.25278 0.0
H1906 H 0.22015 0.31343 0.34848 0.0
H1907 H 0.22794 0.34619 0.35281 0.0
H1908 H 0.2482 0.32968 0.35896 0.0
H1909 H 0.19402 0.31008 0.25732 0.0
H1910 H 0.21509 0.31834 0.23791 0.0
H1911 H 0.20583 0.34179 0.25791 0.0
C1912 C 0.99498 0.0508 0.20223 0.0
C1913 C 0.97713 0.06149 0.20753 0.0
C1914 C 0.00429 0.04988 0.17951 0.0
C1915 C 0.9958 0.05961 0.1604 0.0
C1916 C 0.97785 0.07062 0.16553 0.0
C1917 C 0.96892 0.07154 0.18871 0.0
C1918 C 0.02336 0.03814 0.17593 0.0
C1919 C 0.96777 0.08121 0.14625 0.0
C1920 C 0.03339 0.0741 0.10882 0.0
C1921 C 0.02623 0.05322 0.08943 0.0
C1922 C 0.0236 0.07659 0.13135 0.0
C1923 C 0.00569 0.05793 0.13539 0.0
C1924 C 0.99814 0.03699 0.11571 0.0
C1925 C 0.00832 0.03491 0.09341 0.0
C1926 C 0.03277 0.0993 0.15113 0.0
C1927 C 0.97932 0.01636 0.1183 0.0
H1928 H 1.0019 0.0429 0.21607 0.0
H1929 H 0.95516 0.07974 0.19185 0.0
H1930 H 0.01881 0.02208 0.16029 0.0
H1931 H 0.03752 0.05138 0.17134 0.0
H1932 H 0.02863 0.03191 0.19248 0.0
H1933 H 0.95426 0.08947 0.15271 0.0
H1934 H 0.98048 0.09549 0.14077 0.0
H1935 H 0.96125 0.06657 0.12962 0.0
H1936 H 0.04685 0.08874 0.10648 0.0
H1937 H 1.00225 0.01859 0.07905 0.0
H1938 H 0.03905 0.09408 0.16783 0.0
H1939 H 0.01961 0.10871 0.15621 0.0
H1940 H 0.04631 0.11246 0.14534 0.0
H1941 H 0.98393 0.00786 0.13348 0.0
H1942 H 0.97448 1.00186 0.10126 0.0
H1943 H 0.96489 0.02365 0.12311 0.0
C1944 C 0.26798 0.6956 0.47215 0.0
C1945 C 0.28299 0.68114 0.47384 0.0
C1946 C 0.26534 0.70532 0.45134 0.0
C1947 C 0.27831 0.7008 0.43199 0.0
C1948 C 0.29416 0.68709 0.43401 0.0
C1949 C 0.29618 0.67719 0.45489 0.0
C1950 C 0.24815 0.71977 0.44972 0.0
C1951 C 0.30863 0.6825 0.41396 0.0
C1952 C 0.25188 0.70462 0.37092 0.0
C1953 C 0.26026 0.72948 0.37066 0.0
C1954 C 0.25848 0.69458 0.39024 0.0
C1955 C 0.27439 0.7096 0.40929 0.0
C1956 C 0.28446 0.73399 0.40795 0.0
C1957 C 0.27704 0.7438 0.38883 0.0
C1958 C 0.24725 0.66849 0.39114 0.0
C1959 C 0.30203 0.75026 0.42756 0.0
H1960 H 0.25774 0.69865 0.48674 0.0
H1961 H 0.30795 0.66617 0.45625 0.0
H1962 H 0.25581 0.73838 0.44689 0.0
H1963 H 0.23579 0.71048 0.43371 0.0
H1964 H 0.23956 0.72176 0.46647 0.0
H1965 H 0.32147 0.67343 0.41936 0.0
H1966 H 0.29852 0.67062 0.39719 0.0
H1967 H 0.3167 0.70008 0.4091 0.0
H1968 H 0.23944 0.69322 0.35653 0.0
H1969 H 0.28363 0.76305 0.38894 0.0
H1970 H 0.23681 0.66867 0.40641 0.0
H1971 H 0.25951 0.65805 0.39478 0.0
H1972 H 0.23676 0.65861 0.37382 0.0
H1973 H 0.29442 0.75624 0.4443 0.0
H1974 H 0.31091 0.76692 0.42158 0.0
H1975 H 0.31408 0.74008 0.43262 0.0
C1976 C 0.6522 0.02186 0.66213 0.0
C1977 C 0.64589 0.01074 0.68171 0.0
C1978 C 0.63659 0.02527 0.64517 0.0
C1979 C 0.61407 0.017 0.64764 0.0
C1980 C 0.60747 1.00554 0.66713 0.0
C1981 C 0.62353 1.00256 0.68407 0.0
C1982 C 0.64425 0.03767 0.62457 0.0
C1983 C 0.58353 0.99644 0.67 0.0
C1984 C 0.58078 0.04575 0.6089 0.0
C1985 C 0.5776 0.02854 0.58678 0.0
C1986 C 0.59093 0.04126 0.63002 0.0
C1987 C 0.59776 0.01909 0.62858 0.0
C1988 C 0.5924 1.0007 0.60682 0.0
C1989 C 0.5824 1.00572 0.58611 0.0
C1990 C 0.59628 0.06118 0.65303 0.0
C1991 C 0.59931 0.97679 0.60456 0.0
H1992 H 0.66943 0.0284 0.66025 0.0
H1993 H 0.61858 0.99413 0.69928 0.0
H1994 H 0.63836 0.02479 0.60664 0.0
H1995 H 0.6373 0.05386 0.62467 0.0
H1996 H 0.66241 0.04387 0.62593 0.0
H1997 H 0.58113 0.98899 0.68686 0.0
H1998 H 0.5751 0.01158 0.67063 0.0
H1999 H 0.57547 0.98179 0.65389 0.0
H2000 H 0.57682 0.06331 0.60926 0.0
H2001 H 0.57938 0.99224 0.56895 0.0
H2002 H 0.61377 0.07116 0.65453 0.0
H2003 H 0.59386 0.05326 0.66957 0.0
H2004 H 0.58608 0.07468 0.65283 0.0
H2005 H 0.61721 0.98028 0.60323 0.0
H2006 H 0.59071 0.96301 0.588 0.0
H2007 H 0.59605 0.96885 0.62096 0.0
C2008 C 0.29129 0.33918 0.94838 0.0
C2009 C 0.30964 0.34939 0.9659 0.0
C2010 C 0.29361 0.3299 0.92378 0.0
C2011 C 0.31483 0.33075 0.91639 0.0
C2012 C 0.33334 0.33947 0.93428 0.0
C2013 C 0.33054 0.34869 0.95881 0.0
C2014 C 0.27339 0.32075 0.90539 0.0
C2015 C 0.35616 0.34004 0.92727 0.0
C2016 C 0.31453 0.29797 0.84999 0.0
C2017 C 0.31552 0.31748 0.83791 0.0
C2018 C 0.31595 0.30214 0.87581 0.0
C2019 C 0.3176 0.3262 0.88964 0.0
C2020 C 0.31957 0.34599 0.8774 0.0
C2021 C 0.31856 0.34137 0.85179 0.0
C2022 C 0.31452 0.28062 0.88808 0.0
C2023 C 0.32136 0.37194 0.89121 0.0
H2024 H 0.27505 0.33936 0.95364 0.0
H2025 H 0.34484 0.35629 0.97221 0.0
H2026 H 0.27351 0.33366 0.89284 0.0
H2027 H 0.27331 0.30255 0.89402 0.0
H2028 H 0.25802 0.3191 0.91433 0.0
H2029 H 0.36882 0.3468 0.94338 0.0
H2030 H 0.35703 0.32131 0.91814 0.0
H2031 H 0.36009 0.35208 0.91395 0.0
H2032 H 0.31184 0.27941 0.83928 0.0
H2033 H 0.31923 0.35644 0.84242 0.0
H2034 H 0.29768 0.27484 0.89318 0.0
H2035 H 0.32602 0.28575 0.90514 0.0
H2036 H 0.31821 0.26468 0.87576 0.0
H2037 H 0.30606 0.37288 0.89976 0.0
H2038 H 0.32408 0.38543 0.87912 0.0
H2039 H 0.33506 0.37748 0.90618 0.0
C2040 C 0.99593 0.09491 0.36769 0.0
C2041 C 0.98022 0.07742 0.34991 0.0
C2042 C 0.00506 0.08942 0.38944 0.0
C2043 C 0.99899 0.06544 0.3945 0.0
C2044 C 0.98336 0.04745 0.37655 0.0
C2045 C 0.97419 0.05356 0.35492 0.0
C2046 C 0.02113 0.10976 0.40743 0.0
C2047 C 0.9762 0.0215 0.38024 0.0
C2048 C 0.03729 0.05151 0.44627 0.0
C2049 C 0.0257 0.05416 0.46708 0.0
C2050 C 0.02851 0.05378 0.42259 0.0
C2051 C 0.0079 0.06006 0.41914 0.0
C2052 C 0.99638 0.06291 0.44021 0.0
C2053 C 0.0051 0.05967 0.46323 0.0
C2054 C 0.04147 0.04951 0.40113 0.0
C2055 C 0.97493 0.07036 0.43876 0.0
H2056 H 1.00113 0.11346 0.36479 0.0
H2057 H 0.96231 0.03949 0.34186 0.0
H2058 H 0.01457 0.11271 0.42544 0.0
H2059 H 0.03683 0.1045 0.41039 0.0
H2060 H 0.02454 0.1274 0.40112 0.0
H2061 H 0.96586 0.00893 0.36394 0.0
H2062 H 0.99074 0.01441 0.3843 0.0
H2063 H 0.96668 0.02123 0.39626 0.0
H2064 H 0.05336 0.0479 0.44846 0.0
H2065 H 0.99575 0.06216 0.47874 0.0
H2066 H 0.04631 0.06659 0.39407 0.0
H2067 H 0.03111 0.03521 0.38601 0.0
H2068 H 0.05648 0.04355 0.40606 0.0
H2069 H 0.97747 0.08842 0.43337 0.0
H2070 H 0.96773 0.07179 0.45646 0.0
H2071 H 0.96293 0.05684 0.42447 0.0
C2072 C 0.28952 0.69182 0.59085 0.0
C2073 C 0.30988 0.69409 0.58154 0.0
C2074 C 0.28726 0.70668 0.61301 0.0
C2075 C 0.30592 0.7239 0.62643 0.0
C2076 C 0.32643 0.72683 0.61684 0.0
C2077 C 0.32812 0.71202 0.59423 0.0
C2078 C 0.26505 0.70328 0.62248 0.0
C2079 C 0.34668 0.74488 0.63093 0.0
C2080 C 0.29707 0.77156 0.67968 0.0
C2081 C 0.29895 0.7597 0.69912 0.0
C2082 C 0.29936 0.7602 0.65574 0.0
C2083 C 0.30427 0.73686 0.65155 0.0
C2084 C 0.30658 0.7251 0.6713 0.0
C2085 C 0.30359 0.73654 0.6948 0.0
C2086 C 0.29633 0.77299 0.63499 0.0
C2087 C 0.31234 0.70047 0.66769 0.0
H2088 H 0.27525 0.67828 0.58083 0.0
H2089 H 0.34382 0.71384 0.58695 0.0
H2090 H 0.26539 0.69518 0.63898 0.0
H2091 H 0.26096 0.7213 0.62802 0.0
H2092 H 0.2518 0.69102 0.60861 0.0
H2093 H 0.36132 0.74514 0.62081 0.0
H2094 H 0.34393 0.76366 0.63482 0.0
H2095 H 0.35017 0.7401 0.64886 0.0
H2096 H 0.29375 0.78965 0.68322 0.0
H2097 H 0.30564 0.72768 0.70997 0.0
H2098 H 0.2829 0.76118 0.6211 0.0
H2099 H 0.31145 0.77607 0.62571 0.0
H2100 H 0.29237 0.79098 0.64138 0.0
H2101 H 0.29906 0.68622 0.65559 0.0
H2102 H 0.31484 0.6946 0.68528 0.0
H2103 H 0.32755 0.70128 0.65855 0.0
C2104 C 0.67321 0.04941 0.80323 0.0
C2105 C 0.66536 0.05412 0.78105 0.0
C2106 C 0.66147 0.05181 0.82365 0.0
C2107 C 0.64134 0.05867 0.82154 0.0
C2108 C 0.63342 0.06352 0.79922 0.0
C2109 C 0.64564 0.06137 0.77927 0.0
C2110 C 0.67046 0.04686 0.84737 0.0
C2111 C 0.61182 0.07055 0.79627 0.0
C2112 C 0.59772 0.04175 0.86266 0.0
C2113 C 0.599 0.06465 0.87772 0.0
C2114 C 0.61204 0.03931 0.84474 0.0
C2115 C 0.6281 0.06026 0.84236 0.0
C2116 C 0.63008 0.08319 0.85845 0.0
C2117 C 0.61524 0.08518 0.87588 0.0
C2118 C 0.60933 0.01464 0.82768 0.0
C2119 C 0.64735 0.10574 0.85669 0.0
H2120 H 0.68854 0.0439 0.80464 0.0
H2121 H 0.63946 0.06485 0.76208 0.0
H2122 H 0.67186 0.063 0.86253 0.0
H2123 H 0.65904 0.03105 0.8522 0.0
H2124 H 0.68682 0.04274 0.84625 0.0
H2125 H 0.608 0.07365 0.77762 0.0
H2126 H 0.59833 0.05584 0.79985 0.0
H2127 H 0.61213 0.08757 0.80986 0.0
H2128 H 0.58511 0.02596 0.86448 0.0
H2129 H 0.6162 0.10274 0.88798 0.0
H2130 H 0.62518 0.00929 0.82738 0.0
H2131 H 0.60412 0.01588 0.80872 0.0
H2132 H 0.59695 0.99992 0.83304 0.0
H2133 H 0.66371 0.10159 0.85641 0.0
H2134 H 0.64813 0.12143 0.87219 0.0
H2135 H 0.6437 0.11142 0.83929 0.0
C2136 C 0.30178 0.33716 0.1 0.0
C2137 C 0.30882 0.36126 0.09653 0.0
C2138 C 0.30136 0.3322 0.12368 0.0
C2139 C 0.30779 0.35186 0.14442 0.0
C2140 C 0.31438 0.37629 0.14108 0.0
C2141 C 0.315 0.38068 0.1172 0.0
C2142 C 0.29454 0.30586 0.12649 0.0
C2143 C 0.32083 0.39778 0.16274 0.0
C2144 C 0.28974 0.33669 0.20452 0.0
C2145 C 0.30919 0.33385 0.2158 0.0
C2146 C 0.28928 0.34381 0.18183 0.0
C2147 C 0.30844 0.34673 0.16958 0.0
C2148 C 0.32815 0.34397 0.18109 0.0
C2149 C 0.32841 0.3383 0.20442 0.0
C2150 C 0.26824 0.34784 0.17085 0.0
C2151 C 0.34874 0.34595 0.16837 0.0
H2152 H 0.29696 0.32205 0.08419 0.0
H2153 H 0.32027 0.3994 0.11475 0.0
H2154 H 0.30815 0.30124 0.13676 0.0
H2155 H 0.28032 0.30336 0.13728 0.0
H2156 H 0.29003 0.29266 0.10854 0.0
H2157 H 0.3241 0.41574 0.15706 0.0
H2158 H 0.30765 0.39711 0.17505 0.0
H2159 H 0.3358 0.39671 0.1736 0.0
H2160 H 0.2749 0.33338 0.2135 0.0
H2161 H 0.34344 0.33618 0.21323 0.0
H2162 H 0.26143 0.33325 0.15429 0.0
H2163 H 0.27145 0.36572 0.16506 0.0
H2164 H 0.25568 0.34761 0.18395 0.0
H2165 H 0.34545 0.33224 0.15075 0.0
H2166 H 0.36255 0.3428 0.17967 0.0
H2167 H 0.35387 0.36439 0.16399 0.0
C2168 C 0.264 0.99324 0.99915 0.0
C2169 C 0.27622 0.98638 0.01725 0.0
C2170 C 0.24933 0.00789 0.00563 0.0
C2171 C 0.24708 0.01584 0.03071 0.0
C2172 C 0.25945 0.00907 0.04902 0.0
C2173 C 0.27383 0.99435 0.04206 0.0
C2174 C 0.23602 0.01455 0.98569 0.0
C2175 C 0.25734 0.01717 0.07596 0.0
C2176 C 0.22226 0.06995 0.05012 0.0
C2177 C 0.2009 0.05797 0.05302 0.0
C2178 C 0.23758 0.05642 0.0428 0.0
C2179 C 0.23113 0.03043 0.03795 0.0
C2180 C 0.20967 0.01825 0.04107 0.0
C2181 C 0.19495 0.0322 0.04901 0.0
C2182 C 0.2606 0.06984 0.04015 0.0
C2183 C 0.20223 0.99051 0.03597 0.0
H2184 H 0.26578 0.98704 0.97998 0.0
H2185 H 0.28325 0.98914 0.05618 0.0
H2186 H 0.21828 0.00719 0.9866 0.0
H2187 H 0.23897 0.03482 0.98847 0.0
H2188 H 0.24002 0.00723 0.96708 0.0
H2189 H 0.26877 0.01099 0.08791 0.0
H2190 H 0.26066 0.03751 0.08107 0.0
H2191 H 0.24035 0.00969 0.07977 0.0
H2192 H 0.22686 0.08983 0.05306 0.0
H2193 H 0.17861 0.02284 0.05186 0.0
H2194 H 0.26438 0.06433 0.02107 0.0
H2195 H 0.27256 0.06472 0.05236 0.0
H2196 H 0.263 0.09012 0.04474 0.0
H2197 H 0.20491 0.98263 0.01699 0.0
H2198 H 0.18462 0.98397 0.03822 0.0
H2199 H 0.21207 0.98319 0.04856 0.0
C2200 C 0.7091 0.648 0.97888 0.0
C2201 C 0.72773 0.64421 0.99121 0.0
C2202 C 0.68806 0.63352 0.97987 0.0
C2203 C 0.68554 0.61483 0.99358 0.0
C2204 C 0.70434 0.61031 0.00532 0.0
C2205 C 0.7252 0.62501 0.00396 0.0
C2206 C 0.66844 0.6389 0.96706 0.0
C2207 C 0.70235 0.59059 0.02015 0.0
C2208 C 0.63206 0.5982 0.02126 0.0
C2209 C 0.62096 0.57613 0.00521 0.0
C2210 C 0.65295 0.61097 0.01752 0.0
C2211 C 0.6632 0.60141 0.99733 0.0
C2212 C 0.6521 0.57922 0.98098 0.0
C2213 C 0.63102 0.56697 0.98498 0.0
C2214 C 0.66409 0.63471 0.03527 0.0
C2215 C 0.6625 0.56837 0.95931 0.0
H2216 H 0.71087 0.66268 0.96887 0.0
H2217 H 0.73948 0.62189 0.01351 0.0
H2218 H 0.65798 0.6218 0.95528 0.0
H2219 H 0.6583 0.64604 0.98088 0.0
H2220 H 0.67326 0.65265 0.95554 0.0
H2221 H 0.71859 0.58806 0.02651 0.0
H2222 H 0.69381 0.59553 0.03645 0.0
H2223 H 0.69234 0.5728 0.00915 0.0
H2224 H 0.62444 0.60562 0.03686 0.0
H2225 H 0.62248 0.55019 0.97226 0.0
H2226 H 0.66796 0.6499 0.0253 0.0
H2227 H 0.67983 0.63307 0.04402 0.0
H2228 H 0.6538 0.63977 0.04991 0.0
H2229 H 0.66602 0.58155 0.94701 0.0
H2230 H 0.65187 0.55076 0.94858 0.0
H2231 H 0.67838 0.56506 0.96569 0.0
C2232 C 0.73609 0.4461 0.27177 0.0
C2233 C 0.71282 0.439 0.26838 0.0
C2234 C 0.74947 0.42853 0.27196 0.0
C2235 C 0.73995 0.40262 0.26864 0.0
C2236 C 0.71659 0.39553 0.2651 0.0
C2237 C 0.70374 0.41328 0.26507 0.0
C2238 C 0.77405 0.43778 0.27578 0.0
C2239 C 0.70487 0.36874 0.26127 0.0
C2240 C 0.77032 0.35063 0.24502 0.0
C2241 C 0.77627 0.34226 0.26612 0.0
C2242 C 0.75977 0.37053 0.24577 0.0
C2243 C 0.75387 0.38284 0.26818 0.0
C2244 C 0.75997 0.37456 0.28968 0.0
C2245 C 0.77092 0.3548 0.28845 0.0
C2246 C 0.75443 0.37797 0.2221 0.0
C2247 C 0.75428 0.38617 0.31419 0.0
H2248 H 0.74398 0.46547 0.27449 0.0
H2249 H 0.68606 0.40665 0.26233 0.0
H2250 H 0.78069 0.43256 0.29232 0.0
H2251 H 0.78134 0.42898 0.25996 0.0
H2252 H 0.77935 0.45805 0.27802 0.0
H2253 H 0.68675 0.36576 0.25905 0.0
H2254 H 0.70983 0.35811 0.2447 0.0
H2255 H 0.70963 0.36117 0.2771 0.0
H2256 H 0.77383 0.3413 0.22748 0.0
H2257 H 0.77468 0.34864 0.30503 0.0
H2258 H 0.76047 0.39814 0.22418 0.0
H2259 H 0.73638 0.37338 0.21744 0.0
H2260 H 0.76175 0.36861 0.20661 0.0
H2261 H 0.7606 0.40642 0.31774 0.0
H2262 H 0.76109 0.37918 0.32946 0.0
H2263 H 0.73619 0.38232 0.314 0.0
C2264 C 0.89191 0.48237 0.49885 0.0
C2265 C 0.88527 0.48679 0.52242 0.0
C2266 C 0.91421 0.4861 0.4955 0.0
C2267 C 0.93005 0.49381 0.51629 0.0
C2268 C 0.92344 0.49892 0.54009 0.0
C2269 C 0.90109 0.49561 0.54284 0.0
C2270 C 0.92082 0.48157 0.46984 0.0
C2271 C 0.93993 0.50705 0.56272 0.0
C2272 C 0.98613 0.48023 0.51474 0.0
C2273 C 0.99948 0.50372 0.51601 0.0
C2274 C 0.96324 0.47639 0.51365 0.0
C2275 C 0.95362 0.4965 0.51344 0.0
C2276 C 0.96692 0.51989 0.51327 0.0
C2277 C 0.98964 0.52324 0.51513 0.0
C2278 C 0.94949 0.45123 0.51428 0.0
C2279 C 0.95728 0.54169 0.51239 0.0
H2280 H 0.87964 0.47561 0.48304 0.0
H2281 H 0.89599 0.49876 0.56111 0.0
H2282 H 0.93121 0.4988 0.46642 0.0
H2283 H 0.93077 0.46774 0.46776 0.0
H2284 H 0.90642 0.47506 0.45565 0.0
H2285 H 0.93202 0.50988 0.5799 0.0
H2286 H 0.9495 0.49307 0.56343 0.0
H2287 H 0.95171 0.5245 0.562 0.0
H2288 H 0.99365 0.46509 0.51572 0.0
H2289 H 0.99959 0.54144 0.51652 0.0
H2290 H 0.93582 0.4453 0.49925 0.0
H2291 H 0.9421 0.45198 0.53184 0.0
H2292 H 0.95926 0.43719 0.51261 0.0
H2293 H 0.94422 0.53705 0.49679 0.0
H2294 H 0.96983 0.55816 0.51047 0.0
H2295 H 0.94964 0.54647 0.5294 0.0
C2296 C 0.40021 0.1184 0.29311 0.0
C2297 C 0.39467 0.11207 0.31527 0.0
C2298 C 0.38648 0.12856 0.27986 0.0
C2299 C 0.3673 0.13314 0.28962 0.0
C2300 C 0.36251 0.12837 0.31287 0.0
C2301 C 0.37609 0.11726 0.32524 0.0
C2302 C 0.39158 0.13259 0.25468 0.0
C2303 C 0.34256 0.13396 0.3241 0.0
C2304 C 0.34004 0.1754 0.26214 0.0
C2305 C 0.3215 0.15878 0.24814 0.0
C2306 C 0.35488 0.16733 0.27614 0.0
C2307 C 0.35174 0.14191 0.275 0.0
C2308 C 0.33378 0.12485 0.25993 0.0
C2309 C 0.3186 0.13356 0.24694 0.0
C2310 C 0.37368 0.18599 0.29237 0.0
C2311 C 0.33052 0.09748 0.25769 0.0
H2312 H 0.41431 0.11349 0.28519 0.0
H2313 H 0.37177 0.11173 0.34216 0.0
H2314 H 0.37872 0.11997 0.24062 0.0
H2315 H 0.39145 0.1516 0.2531 0.0
H2316 H 0.40776 0.12926 0.25038 0.0
H2317 H 0.34248 0.13145 0.34332 0.0
H2318 H 0.34187 0.15314 0.32381 0.0
H2319 H 0.32748 0.12165 0.31318 0.0
H2320 H 0.34293 0.19488 0.26238 0.0
H2321 H 0.30433 0.12068 0.23617 0.0
H2322 H 0.38952 0.1836 0.28599 0.0
H2323 H 0.37379 0.18316 0.31147 0.0
H2324 H 0.37273 0.20519 0.29253 0.0
H2325 H 0.34566 0.09186 0.25262 0.0
H2326 H 0.31667 0.08673 0.24375 0.0
H2327 H 0.3272 0.09263 0.27561 0.0
C2328 C 0.34819 0.13266 0.51862 0.0
C2329 C 0.35562 0.15704 0.51608 0.0
C2330 C 0.36301 0.11885 0.52397 0.0
C2331 C 0.38583 0.12976 0.5272 0.0
C2332 C 0.39345 0.15433 0.52458 0.0
C2333 C 0.37827 0.16762 0.5189 0.0
C2334 C 0.35424 0.09261 0.52633 0.0
C2335 C 0.41764 0.16671 0.52819 0.0
C2336 C 0.42158 0.10188 0.56525 0.0
C2337 C 0.43054 0.08774 0.54712 0.0
C2338 C 0.40734 0.11598 0.55903 0.0
C2339 C 0.40167 0.11567 0.53402 0.0
C2340 C 0.41085 0.10161 0.51562 0.0
C2341 C 0.42533 0.08796 0.52241 0.0
C2342 C 0.39825 0.13108 0.57922 0.0
C2343 C 0.40503 0.1006 0.48877 0.0
H2344 H 0.33073 0.1243 0.51636 0.0
H2345 H 0.38417 0.18647 0.51709 0.0
H2346 H 0.36161 0.08012 0.51358 0.0
H2347 H 0.35891 0.09067 0.54519 0.0
H2348 H 0.33611 0.08653 0.52235 0.0
H2349 H 0.42092 0.18581 0.52522 0.0
H2350 H 0.42457 0.16718 0.54708 0.0
H2351 H 0.42646 0.15605 0.51537 0.0
H2352 H 0.42584 0.10202 0.58438 0.0
H2353 H 0.43216 0.07694 0.50835 0.0
H2354 H 0.38012 0.12459 0.5774 0.0
H2355 H 0.40215 0.15062 0.57765 0.0
H2356 H 0.4049 0.13002 0.59776 0.0
H2357 H 0.38712 0.09299 0.48377 0.0
H2358 H 0.41382 0.08908 0.47675 0.0
H2359 H 0.40903 0.11939 0.48504 0.0
C2360 C 0.71656 0.60311 0.25202 0.0
C2361 C 0.71806 0.58924 0.27017 0.0
C2362 C 0.72955 0.62733 0.2542 0.0
C2363 C 0.74462 0.63897 0.27535 0.0
C2364 C 0.74649 0.62509 0.29375 0.0
C2365 C 0.73344 0.60051 0.29089 0.0
C2366 C 0.72689 0.6406 0.23371 0.0
C2367 C 0.76195 0.63649 0.31684 0.0
C2368 C 0.7901 0.69611 0.2705 0.0
C2369 C 0.78082 0.71595 0.27907 0.0
C2370 C 0.77887 0.6713 0.26963 0.0
C2371 C 0.75783 0.66566 0.27811 0.0
C2372 C 0.74872 0.68574 0.28749 0.0
C2373 C 0.76002 0.7103 0.28747 0.0
C2374 C 0.78925 0.65098 0.25867 0.0
C2375 C 0.72673 0.68128 0.29731 0.0
H2376 H 0.70501 0.59496 0.23575 0.0
H2377 H 0.73487 0.59042 0.30523 0.0
H2378 H 0.72052 0.65693 0.24051 0.0
H2379 H 0.74303 0.64726 0.22728 0.0
H2380 H 0.71547 0.62871 0.21783 0.0
H2381 H 0.76202 0.62349 0.32927 0.0
H2382 H 0.77887 0.64281 0.31219 0.0
H2383 H 0.75715 0.65292 0.32677 0.0
H2384 H 0.80585 0.69987 0.26346 0.0
H2385 H 0.7525 0.72522 0.29418 0.0
H2386 H 0.77902 0.63976 0.24168 0.0
H2387 H 0.79 0.63858 0.27156 0.0
H2388 H 0.80608 0.65815 0.25412 0.0
H2389 H 0.71368 0.67149 0.28214 0.0
H2390 H 0.72277 0.69866 0.30619 0.0
H2391 H 0.72643 0.66937 0.31087 0.0
C2392 C 0.85307 0.4755 0.80133 0.0
C2393 C 0.85922 0.48501 0.78081 0.0
C2394 C 0.84418 0.45036 0.7992 0.0
C2395 C 0.84131 0.43429 0.776 0.0
C2396 C 0.84591 0.44401 0.75489 0.0
C2397 C 0.85488 0.46932 0.75755 0.0
C2398 C 0.83954 0.44096 0.82213 0.0
C2399 C 0.8427 0.42749 0.72974 0.0
C2400 C 0.84915 0.36993 0.77103 0.0
C2401 C 0.82757 0.35582 0.76556 0.0
C2402 C 0.85373 0.39559 0.77551 0.0
C2403 C 0.83625 0.40728 0.77409 0.0
C2404 C 0.81431 0.393 0.76931 0.0
C2405 C 0.81024 0.36727 0.7647 0.0
C2406 C 0.87736 0.4101 0.78063 0.0
C2407 C 0.79526 0.40479 0.76804 0.0
H2408 H 0.85617 0.48752 0.81937 0.0
H2409 H 0.85944 0.47657 0.74154 0.0
H2410 H 0.8247 0.42563 0.81853 0.0
H2411 H 0.85369 0.43417 0.82818 0.0
H2412 H 0.83723 0.45558 0.83726 0.0
H2413 H 0.84479 0.43808 0.71498 0.0
H2414 H 0.85477 0.416 0.72875 0.0
H2415 H 0.82612 0.41484 0.72628 0.0
H2416 H 0.86248 0.36078 0.77094 0.0
H2417 H 0.79359 0.35611 0.75981 0.0
H2418 H 0.87967 0.42442 0.7977 0.0
H2419 H 0.88176 0.41958 0.76542 0.0
H2420 H 0.88885 0.39825 0.78258 0.0
H2421 H 0.79656 0.41951 0.78458 0.0
H2422 H 0.77923 0.39126 0.7665 0.0
H2423 H 0.79561 0.41349 0.75189 0.0
C2424 C 0.11443 0.90557 0.08447 0.0
C2425 C 0.09925 0.88346 0.08509 0.0
C2426 C 0.10821 0.9246 0.07498 0.0
C2427 C 0.08604 0.92205 0.06597 0.0
C2428 C 0.07066 0.89957 0.06601 0.0
C2429 C 0.07744 0.88057 0.07528 0.0
C2430 C 0.12539 0.94791 0.07535 0.0
C2431 C 0.04691 0.89567 0.05659 0.0
C2432 C 0.06936 0.98337 0.07197 0.0
C2433 C 0.07039 0.98837 0.04835 0.0
C2434 C 0.07335 0.96156 0.07748 0.0
C2435 C 0.0789 0.94388 0.05904 0.0
C2436 C 0.07922 0.94837 0.03481 0.0
C2437 C 0.07509 0.97054 0.02977 0.0
C2438 C 0.07233 0.95787 0.10344 0.0
C2439 C 0.08467 0.93012 0.01436 0.0
H2440 H 0.13135 0.90823 0.09177 0.0
H2441 H 0.06544 0.86373 0.07554 0.0
H2442 H 0.12509 0.95246 0.05692 0.0
H2443 H 0.12174 0.96344 0.08829 0.0
H2444 H 0.14217 0.94644 0.08103 0.0
H2445 H 0.03649 0.87857 0.06031 0.0
H2446 H 0.04044 0.91148 0.06501 0.0
H2447 H 0.0455 0.89445 0.03649 0.0
H2448 H 0.06578 0.99698 0.08651 0.0
H2449 H 0.07622 0.97422 0.01152 0.0
H2450 H 0.0889 0.95801 0.11158 0.0
H2451 H 0.06138 0.93971 0.10357 0.0
H2452 H 0.06629 0.97237 0.11527 0.0
H2453 H 0.10203 0.92946 0.01788 0.0
H2454 H 0.0822 0.93494 0.99622 0.0
H2455 H 0.07436 0.91144 0.01365 0.0
C2456 C 0.94355 0.23589 0.86147 0.0
C2457 C 0.9602 0.25471 0.87626 0.0
C2458 C 0.92579 0.2411 0.84854 0.0
C2459 C 0.92446 0.2658 0.85016 0.0
C2460 C 0.94116 0.2849 0.8651 0.0
C2461 C 0.9587 0.27916 0.87796 0.0
C2462 C 0.90841 0.22009 0.83301 0.0
C2463 C 0.9406 0.31148 0.86731 0.0
C2464 C 0.88928 0.27844 0.79778 0.0
C2465 C 0.86976 0.28012 0.8081 0.0
C2466 C 0.90729 0.27445 0.81139 0.0
C2467 C 0.90579 0.27152 0.83592 0.0
C2468 C 0.88613 0.27327 0.84646 0.0
C2469 C 0.86852 0.27778 0.83257 0.0
C2470 C 0.92792 0.27319 0.7994 0.0
C2471 C 0.88352 0.2699 0.87232 0.0
H2472 H 0.94437 0.21694 0.85993 0.0
H2473 H 0.97136 0.29392 0.88926 0.0
H2474 H 0.89204 0.22078 0.83895 0.0
H2475 H 0.90783 0.2218 0.81356 0.0
H2476 H 0.91141 0.20189 0.83411 0.0
H2477 H 0.95465 0.32422 0.87977 0.0
H2478 H 0.94091 0.31621 0.84897 0.0
H2479 H 0.92514 0.31452 0.87431 0.0
H2480 H 0.8906 0.28042 0.779 0.0
H2481 H 0.85355 0.27891 0.84077 0.0
H2482 H 0.93096 0.25464 0.79808 0.0
H2483 H 0.94224 0.28659 0.81075 0.0
H2484 H 0.92696 0.2771 0.78069 0.0
H2485 H 0.88512 0.25128 0.87384 0.0
H2486 H 0.8674 0.27215 0.87804 0.0
H2487 H 0.89671 0.28337 0.8853 0.0
C2488 C 0.5995 0.22983 0.57595 0.0
C2489 C 0.57972 0.23713 0.57816 0.0
C2490 C 0.59961 0.20504 0.56636 0.0
C2491 C 0.57951 0.1871 0.55846 0.0
C2492 C 0.5596 0.19467 0.55977 0.0
C2493 C 0.55995 0.21936 0.56972 0.0
C2494 C 0.62121 0.19787 0.56551 0.0
C2495 C 0.53775 0.17649 0.55122 0.0
C2496 C 0.57319 0.12422 0.5161 0.0
C2497 C 0.56984 0.10837 0.53253 0.0
C2498 C 0.57809 0.14997 0.52441 0.0
C2499 C 0.57886 0.16024 0.54977 0.0
C2500 C 0.57627 0.14423 0.56649 0.0
C2501 C 0.57167 0.11856 0.55768 0.0
C2502 C 0.58108 0.16607 0.50582 0.0
C2503 C 0.57694 0.15409 0.59363 0.0
H2504 H 0.61487 0.24328 0.58262 0.0
H2505 H 0.54457 0.22473 0.57119 0.0
H2506 H 0.6225 0.18604 0.57886 0.0
H2507 H 0.62216 0.18697 0.54709 0.0
H2508 H 0.63543 0.21413 0.56999 0.0
H2509 H 0.5238 0.18541 0.55243 0.0
H2510 H 0.53748 0.16688 0.53194 0.0
H2511 H 0.53527 0.16231 0.56253 0.0
H2512 H 0.57129 0.11638 0.49659 0.0
H2513 H 0.56843 0.10635 0.57039 0.0
H2514 H 0.5952 0.18218 0.51223 0.0
H2515 H 0.56622 0.1731 0.50344 0.0
H2516 H 0.58374 0.15587 0.48769 0.0
H2517 H 0.59162 0.16949 0.60023 0.0
H2518 H 0.57717 0.13971 0.60444 0.0
H2519 H 0.56228 0.16139 0.59719 0.0
C2520 C 0.57946 0.76788 0.36972 0.0
C2521 C 0.58281 0.77859 0.39487 0.0
C2522 C 0.5971 0.76939 0.35523 0.0
C2523 C 0.61869 0.78177 0.36611 0.0
C2524 C 0.62222 0.79206 0.39159 0.0
C2525 C 0.60432 0.79042 0.40557 0.0
C2526 C 0.59254 0.75823 0.32813 0.0
C2527 C 0.64488 0.80533 0.40405 0.0
C2528 C 0.66743 0.77145 0.33117 0.0
C2529 C 0.67166 0.79176 0.31995 0.0
C2530 C 0.65038 0.76798 0.34636 0.0
C2531 C 0.63735 0.78533 0.35063 0.0
C2532 C 0.64212 0.80628 0.34001 0.0
C2533 C 0.6591 0.80919 0.32486 0.0
C2534 C 0.64594 0.74544 0.35735 0.0
C2535 C 0.62899 0.82547 0.34428 0.0
H2536 H 0.56299 0.75868 0.36123 0.0
H2537 H 0.60723 0.79865 0.425 0.0
H2538 H 0.59665 0.77291 0.31756 0.0
H2539 H 0.60306 0.74533 0.32295 0.0
H2540 H 0.5751 0.74821 0.32264 0.0
H2541 H 0.64512 0.81106 0.42423 0.0
H2542 H 0.65643 0.79338 0.40025 0.0
H2543 H 0.65105 0.82195 0.39659 0.0
H2544 H 0.67693 0.75782 0.32736 0.0
H2545 H 0.66243 0.82509 0.31652 0.0
H2546 H 0.62926 0.7339 0.35024 0.0
H2547 H 0.64641 0.75086 0.37756 0.0
H2548 H 0.65799 0.73417 0.35308 0.0
H2549 H 0.61152 0.81698 0.33727 0.0
H2550 H 0.63504 0.84095 0.33512 0.0
H2551 H 0.62966 0.83298 0.36421 0.0
C2552 C 0.12143 0.26382 0.43827 0.0
C2553 C 0.10679 0.26884 0.42112 0.0
C2554 C 0.11403 0.24708 0.45309 0.0
C2555 C 0.09144 0.23537 0.45087 0.0
C2556 C 0.07664 0.24006 0.43333 0.0
C2557 C 0.08452 0.25663 0.41855 0.0
C2558 C 0.1303 0.2423 0.47146 0.0
C2559 C 0.05239 0.22809 0.43064 0.0
C2560 C 0.07245 0.178 0.47615 0.0
C2561 C 0.06564 0.18769 0.49854 0.0
C2562 C 0.0812 0.19335 0.46055 0.0
C2563 C 0.08308 0.21894 0.46754 0.0
C2564 C 0.07643 0.22885 0.49022 0.0
C2565 C 0.06784 0.2131 0.50547 0.0
C2566 C 0.08814 0.18218 0.43649 0.0
C2567 C 0.07814 0.25606 0.49825 0.0
H2568 H 0.13867 0.27314 0.44028 0.0
H2569 H 0.07308 0.26053 0.40544 0.0
H2570 H 0.12635 0.24852 0.49033 0.0
H2571 H 0.12918 0.22229 0.46873 0.0
H2572 H 0.14744 0.25192 0.47002 0.0
H2573 H 0.04317 0.23311 0.4156 0.0
H2574 H 0.04965 0.2078 0.42698 0.0
H2575 H 0.04552 0.23371 0.44803 0.0
H2576 H 0.07059 0.15833 0.47061 0.0
H2577 H 0.06294 0.22069 0.52295 0.0
H2578 H 0.10552 0.19102 0.43526 0.0
H2579 H 0.07815 0.18555 0.42103 0.0
H2580 H 0.08629 0.16204 0.43417 0.0
H2581 H 0.09538 0.26653 0.49896 0.0
H2582 H 0.07245 0.26081 0.51656 0.0
H2583 H 0.06817 0.26219 0.48472 0.0
C2584 C 0.57088 0.2555 0.21364 0.0
C2585 C 0.57471 0.27761 0.20533 0.0
C2586 C 0.58809 0.24795 0.22445 0.0
C2587 C 0.60956 0.26317 0.22753 0.0
C2588 C 0.61342 0.28605 0.22024 0.0
C2589 C 0.59593 0.29288 0.2089 0.0
C2590 C 0.58345 0.22316 0.23143 0.0
C2591 C 0.63612 0.3029 0.2237 0.0
C2592 C 0.65258 0.25041 0.27047 0.0
C2593 C 0.66409 0.23817 0.25372 0.0
C2594 C 0.63473 0.25877 0.26222 0.0
C2595 C 0.62819 0.2543 0.23673 0.0
C2596 C 0.63943 0.24126 0.21983 0.0
C2597 C 0.65744 0.23358 0.22856 0.0
C2598 C 0.62323 0.27288 0.28066 0.0
C2599 C 0.6326 0.23566 0.19254 0.0
H2600 H 0.55454 0.24345 0.21071 0.0
H2601 H 0.59891 0.30999 0.20255 0.0
H2602 H 0.59194 0.2109 0.21991 0.0
H2603 H 0.58991 0.22504 0.2508 0.0
H2604 H 0.56564 0.21414 0.22902 0.0
H2605 H 0.63602 0.32095 0.21909 0.0
H2606 H 0.64348 0.30608 0.24296 0.0
H2607 H 0.64687 0.29415 0.21185 0.0
H2608 H 0.65803 0.25417 0.28991 0.0
H2609 H 0.6665 0.2241 0.21573 0.0
H2610 H 0.60552 0.26367 0.27871 0.0
H2611 H 0.62453 0.29159 0.27713 0.0
H2612 H 0.63022 0.27459 0.29984 0.0
H2613 H 0.61508 0.22559 0.18849 0.0
H2614 H 0.64256 0.22445 0.18201 0.0
H2615 H 0.63432 0.25303 0.18595 0.0
C2616 C 0.61149 0.88329 0.93623 0.0
C2617 C 0.62486 0.88747 0.91757 0.0
C2618 C 0.60474 0.90252 0.95056 0.0
C2619 C 0.61175 0.92648 0.94626 0.0
C2620 C 0.62648 0.9312 0.92869 0.0
C2621 C 0.63287 0.91153 0.91444 0.0
C2622 C 0.58904 0.8969 0.96924 0.0
C2623 C 0.63448 0.95674 0.92406 0.0
C2624 C 0.57297 0.96735 0.96168 0.0
C2625 C 0.58241 0.98065 0.98504 0.0
C2626 C 0.58266 0.9499 0.94858 0.0
C2627 C 0.60238 0.94616 0.95903 0.0
C2628 C 0.61229 0.96007 0.98231 0.0
C2629 C 0.60206 0.97704 0.99514 0.0
C2630 C 0.57149 0.93499 0.92389 0.0
C2631 C 0.63342 0.95671 0.99389 0.0
H2632 H 0.60542 0.86475 0.93892 0.0
H2633 H 0.64325 0.91486 0.9001 0.0
H2634 H 0.59523 0.90934 0.98734 0.0
H2635 H 0.57295 0.90009 0.96343 0.0
H2636 H 0.58642 0.87759 0.97151 0.0
H2637 H 0.6477 0.95777 0.91177 0.0
H2638 H 0.62064 0.96241 0.91546 0.0
H2639 H 0.6407 0.97017 0.9416 0.0
H2640 H 0.55777 0.97016 0.9539 0.0
H2641 H 0.60956 0.98752 0.01312 0.0
H2642 H 0.56669 0.91523 0.9246 0.0
H2643 H 0.58297 0.93685 0.90973 0.0
H2644 H 0.55659 0.9407 0.91809 0.0
H2645 H 0.63077 0.93798 0.9977 0.0
H2646 H 0.63973 0.97029 0.01136 0.0
H2647 H 0.64616 0.95849 0.98108 0.0
C2648 C 0.94283 0.73423 0.71396 0.0
C2649 C 0.95693 0.75442 0.7077 0.0
C2650 C 0.92424 0.73708 0.72578 0.0
C2651 C 0.91988 0.76064 0.73146 0.0
C2652 C 0.93462 0.78106 0.72601 0.0
C2653 C 0.95288 0.77773 0.7142 0.0
C2654 C 0.90882 0.71482 0.73125 0.0
C2655 C 0.93069 0.80636 0.73185 0.0
C2656 C 0.86129 0.76618 0.73301 0.0
C2657 C 0.85979 0.77162 0.75819 0.0
C2658 C 0.88064 0.76202 0.72412 0.0
C2659 C 0.89899 0.76375 0.74093 0.0
C2660 C 0.89751 0.76938 0.7665 0.0
C2661 C 0.87763 0.77272 0.77485 0.0
C2662 C 0.88133 0.75553 0.69674 0.0
C2663 C 0.9168 0.77171 0.78497 0.0
H2664 H 0.94594 0.71612 0.70902 0.0
H2665 H 0.96383 0.79347 0.70968 0.0
H2666 H 0.90563 0.71837 0.75074 0.0
H2667 H 0.89283 0.71103 0.71993 0.0
H2668 H 0.91538 0.69817 0.72743 0.0
H2669 H 0.9448 0.82078 0.72891 0.0
H2670 H 0.91601 0.80679 0.72006 0.0
H2671 H 0.92747 0.8106 0.7512 0.0
H2672 H 0.84705 0.76459 0.72027 0.0
H2673 H 0.87598 0.77607 0.79432 0.0
H2674 H 0.88585 0.7377 0.69163 0.0
H2675 H 0.89405 0.76967 0.6911 0.0
H2676 H 0.86534 0.75413 0.68627 0.0
H2677 H 0.92138 0.75386 0.78297 0.0
H2678 H 0.91321 0.77739 0.80413 0.0
H2679 H 0.93121 0.78543 0.78158 0.0
C2680 C 0.11918 0.0238 0.83984 0.0
C2681 C 0.13984 0.01841 0.8365 0.0
C2682 C 0.1101 0.02557 0.86273 0.0
C2683 C 0.12152 0.02194 0.88398 0.0
C2684 C 0.14236 0.01634 0.88089 0.0
C2685 C 0.15115 0.01466 0.85759 0.0
C2686 C 0.08805 0.03163 0.86415 0.0
C2687 C 0.15552 0.01212 0.90241 0.0
C2688 C 0.10573 0.0492 0.94874 0.0
C2689 C 0.0908 0.02927 0.95483 0.0
C2690 C 0.1158 0.04706 0.92637 0.0
C2691 C 0.1116 0.02421 0.90902 0.0
C2692 C 0.09681 1.00392 0.91529 0.0
C2693 C 0.08664 0.00669 0.93758 0.0
C2694 C 0.13075 0.06965 0.92106 0.0
C2695 C 0.09156 0.97899 0.89829 0.0
H2696 H 0.10981 0.0268 0.82428 0.0
H2697 H 0.16703 0.01055 0.85599 0.0
H2698 H 0.07632 0.01675 0.87004 0.0
H2699 H 0.08958 0.04875 0.8781 0.0
H2700 H 0.08105 0.03409 0.84632 0.0
H2701 H 0.17105 0.00738 0.8974 0.0
H2702 H 0.15951 0.02888 0.91726 0.0
H2703 H 0.14567 0.99703 0.90988 0.0
H2704 H 0.10931 0.06689 0.96135 0.0
H2705 H 0.0754 0.99088 0.94156 0.0
H2706 H 0.12402 0.07381 0.90396 0.0
H2707 H 0.14712 0.06626 0.91803 0.0
H2708 H 0.13278 0.086 0.93618 0.0
H2709 H 0.08312 0.97986 0.88057 0.0
H2710 H 0.0809 0.96467 0.90607 0.0
H2711 H 0.10694 0.97338 0.89432 0.0
C2712 C 0.83452 0.41494 0.59616 0.0
C2713 C 0.85155 0.42169 0.58196 0.0
C2714 C 0.8382 0.40526 0.61682 0.0
C2715 C 0.85934 0.40225 0.62318 0.0
C2716 C 0.87665 0.4094 0.60916 0.0
C2717 C 0.87255 0.41912 0.58874 0.0
C2718 C 0.81942 0.39775 0.63147 0.0
C2719 C 0.8994 0.40625 0.61539 0.0
C2720 C 0.87779 0.39438 0.68609 0.0
C2721 C 0.87608 0.36902 0.68166 0.0
C2722 C 0.87147 0.4054 0.66741 0.0
C2723 C 0.86336 0.39064 0.64387 0.0
C2724 C 0.86091 0.36493 0.63949 0.0
C2725 C 0.86736 0.35442 0.65847 0.0
C2726 C 0.8741 0.43289 0.67262 0.0
C2727 C 0.85243 0.34867 0.6145 0.0
H2728 H 0.81825 0.41693 0.591 0.0
H2729 H 0.88579 0.42435 0.57785 0.0
H2730 H 0.81566 0.37759 0.6302 0.0
H2731 H 0.82406 0.40667 0.65114 0.0
H2732 H 0.80432 0.40266 0.62493 0.0
H2733 H 0.91117 0.41343 0.60299 0.0
H2734 H 0.90574 0.41591 0.63454 0.0
H2735 H 0.89877 0.38648 0.61408 0.0
H2736 H 0.88428 0.40561 0.70409 0.0
H2737 H 0.86626 0.33483 0.6549 0.0
H2738 H 0.85818 0.43712 0.66805 0.0
H2739 H 0.88585 0.44131 0.66089 0.0
H2740 H 0.88012 0.44162 0.69211 0.0
H2741 H 0.8367 0.35199 0.60764 0.0
H2742 H 0.84985 0.32882 0.61473 0.0
H2743 H 0.86432 0.35317 0.60125 0.0
C2744 C 0.46896 0.01241 0.3525 0.0
C2745 C 0.46393 0.03319 0.34623 0.0
C2746 C 0.48698 0.01493 0.36956 0.0
C2747 C 0.50035 0.03871 0.37978 0.0
C2748 C 0.49688 0.05927 0.37098 0.0
C2749 C 0.4783 0.05636 0.35466 0.0
C2750 C 0.49015 0.99262 0.37871 0.0
C2751 C 0.51148 0.08468 0.38069 0.0
C2752 C 0.5142 0.04969 0.44774 0.0
C2753 C 0.53535 0.04588 0.4496 0.0
C2754 C 0.50291 0.04785 0.42506 0.0
C2755 C 0.51338 0.04289 0.40366 0.0
C2756 C 0.53536 0.04084 0.40543 0.0
C2757 C 0.5461 0.04207 0.42856 0.0
C2758 C 0.47943 0.05021 0.42407 0.0
C2759 C 0.54723 0.03631 0.38304 0.0
H2760 H 0.45791 0.99448 0.34554 0.0
H2761 H 0.47465 0.07232 0.34912 0.0
H2762 H 0.50769 0.99226 0.38005 0.0
H2763 H 0.48487 0.99348 0.39737 0.0
H2764 H 0.48045 0.97523 0.36661 0.0
H2765 H 0.50984 0.09726 0.36817 0.0
H2766 H 0.50688 0.0925 0.3988 0.0
H2767 H 0.52892 0.08396 0.38329 0.0
H2768 H 0.50605 0.0533 0.46409 0.0
H2769 H 0.56244 0.03909 0.42997 0.0
H2770 H 0.46837 0.03322 0.41276 0.0
H2771 H 0.47777 0.06571 0.41541 0.0
H2772 H 0.47371 0.05344 0.44254 0.0
H2773 H 0.54298 0.01634 0.37484 0.0
H2774 H 0.5653 0.04235 0.38781 0.0
H2775 H 0.5424 0.04598 0.36894 0.0
C2776 C 0.82663 0.74752 0.09533 0.0
C2777 C 0.80822 0.73568 0.0783 0.0
C2778 C 0.82438 0.75654 0.12001 0.0
C2779 C 0.80318 0.75398 0.12787 0.0
C2780 C 0.78451 0.74393 0.11036 0.0
C2781 C 0.78723 0.7347 0.08583 0.0
C2782 C 0.84478 0.76703 0.13802 0.0
C2783 C 0.76166 0.7417 0.11785 0.0
C2784 C 0.80099 0.74142 0.19181 0.0
C2785 C 0.80338 0.76492 0.20631 0.0
C2786 C 0.79998 0.73756 0.16625 0.0
C2787 C 0.80084 0.75767 0.15466 0.0
C2788 C 0.80168 0.78125 0.1691 0.0
C2789 C 0.80354 0.78475 0.19489 0.0
C2790 C 0.79945 0.71216 0.15182 0.0
C2791 C 0.80157 0.80295 0.15748 0.0
H2792 H 0.84293 0.7486 0.08973 0.0
H2793 H 0.77287 0.72592 0.07275 0.0
H2794 H 0.84399 0.78483 0.14956 0.0
H2795 H 0.84592 0.75425 0.15045 0.0
H2796 H 0.85995 0.76991 0.12873 0.0
H2797 H 0.74897 0.73619 0.10176 0.0
H2798 H 0.75815 0.72777 0.12937 0.0
H2799 H 0.76031 0.75944 0.12907 0.0
H2800 H 0.80096 0.72608 0.20065 0.0
H2801 H 0.80575 0.80304 0.20606 0.0
H2802 H 0.81458 0.71268 0.14256 0.0
H2803 H 0.78531 0.70585 0.13736 0.0
H2804 H 0.79825 0.69841 0.1636 0.0
H2805 H 0.79742 0.81821 0.17037 0.0
H2806 H 0.78962 0.79755 0.14076 0.0
H2807 H 0.81803 0.80985 0.15192 0.0
C2808 C 0.13749 1.00238 0.68291 0.0
C2809 C 0.14503 0.02351 0.702 0.0
C2810 C 0.12606 1.00315 0.65994 0.0
C2811 C 0.12181 0.02554 0.65513 0.0
C2812 C 0.12926 0.04667 0.67443 0.0
C2813 C 0.14038 0.04537 0.69702 0.0
C2814 C 0.11859 0.97984 0.64058 0.0
C2815 C 0.1255 0.07109 0.67136 0.0
C2816 C 0.1146 0.03476 0.58755 0.0
C2817 C 0.09191 0.03254 0.58215 0.0
C2818 C 0.12419 0.03273 0.61069 0.0
C2819 C 0.11108 0.02749 0.62977 0.0
C2820 C 0.08803 0.0253 0.62453 0.0
C2821 C 0.07885 0.02791 0.60118 0.0
C2822 C 0.14871 0.03632 0.6147 0.0
C2823 C 0.07287 0.01988 0.6436 0.0
H2824 H 0.14066 0.9852 0.68574 0.0
H2825 H 0.14566 0.0621 0.71101 0.0
H2826 H 0.10085 0.9766 0.63454 0.0
H2827 H 0.12749 0.98172 0.62428 0.0
H2828 H 0.12146 0.96358 0.64722 0.0
H2829 H 0.13401 0.08638 0.68676 0.0
H2830 H 0.13119 0.07542 0.65398 0.0
H2831 H 0.10769 0.07005 0.67047 0.0
H2832 H 0.12512 0.03816 0.57334 0.0
H2833 H 0.06132 0.02567 0.59765 0.0
H2834 H 0.15263 0.01945 0.61883 0.0
H2835 H 0.15567 0.05152 0.63076 0.0
H2836 H 0.15688 0.04068 0.5985 0.0
H2837 H 0.07543 1.00359 0.65039 0.0
H2838 H 0.05535 0.01643 0.63639 0.0
H2839 H 0.07664 0.03565 0.65951 0.0
C2840 C 0.83356 0.36433 0.4642 0.0
C2841 C 0.81743 0.37726 0.46971 0.0
C2842 C 0.83248 0.34915 0.44112 0.0
C2843 C 0.81468 0.34668 0.42338 0.0
C2844 C 0.79736 0.3579 0.42955 0.0
C2845 C 0.79901 0.37327 0.45268 0.0
C2846 C 0.85128 0.33749 0.43511 0.0
C2847 C 0.7779 0.35514 0.41113 0.0
C2848 C 0.82507 0.34153 0.35717 0.0
C2849 C 0.81566 0.31658 0.34732 0.0
C2850 C 0.82543 0.3513 0.38211 0.0
C2851 C 0.81586 0.33578 0.39747 0.0
C2852 C 0.80711 0.31039 0.38789 0.0
C2853 C 0.80745 0.30101 0.36289 0.0
C2854 C 0.83554 0.37839 0.39185 0.0
C2855 C 0.79662 0.29333 0.40368 0.0
H2856 H 0.84778 0.36717 0.47737 0.0
H2857 H 0.78635 0.38298 0.45699 0.0
H2858 H 0.84509 0.31802 0.42542 0.0
H2859 H 0.86117 0.34729 0.42265 0.0
H2860 H 0.86221 0.33829 0.45178 0.0
H2861 H 0.7645 0.36209 0.41978 0.0
H2862 H 0.7831 0.36558 0.3968 0.0
H2863 H 0.77138 0.33557 0.40184 0.0
H2864 H 0.83183 0.35364 0.34535 0.0
H2865 H 0.80092 0.28158 0.35552 0.0
H2866 H 0.84805 0.38104 0.40764 0.0
H2867 H 0.82273 0.38772 0.3985 0.0
H2868 H 0.84343 0.38753 0.37771 0.0
H2869 H 0.8066 0.29688 0.42164 0.0
H2870 H 0.79426 0.2737 0.39462 0.0
H2871 H 0.78032 0.29664 0.40732 0.0
C2872 C 0.44847 0.04901 0.23925 0.0
C2873 C 0.45799 0.05898 0.26343 0.0
C2874 C 0.4614 0.04272 0.22075 0.0
C2875 C 0.48417 0.0461 0.22687 0.0
C2876 C 0.49397 0.05702 0.25106 0.0
C2877 C 0.48074 0.06357 0.26905 0.0
C2878 C 0.45058 0.03158 0.19493 0.0
C2879 C 0.5182 0.06055 0.25822 0.0
C2880 C 0.51277 1.00391 0.18796 0.0
C2881 C 0.52361 0.0194 0.17365 0.0
C2882 C 0.49978 0.01242 0.2054 0.0
C2883 C 0.49763 0.03691 0.20837 0.0
C2884 C 0.50867 0.05269 0.1941 0.0
C2885 C 0.52169 0.04376 0.17698 0.0
C2886 C 0.48821 0.99517 0.22047 0.0
C2887 C 0.50659 0.07886 0.19679 0.0
H2888 H 0.43087 0.04558 0.23492 0.0
H2889 H 0.48813 0.07112 0.2878 0.0
H2890 H 0.45945 0.04122 0.1817 0.0
H2891 H 0.4513 0.01205 0.18999 0.0
H2892 H 0.43313 0.03242 0.19279 0.0
H2893 H 0.52341 0.07054 0.27753 0.0
H2894 H 0.5222 0.04236 0.25591 0.0
H2895 H 0.52795 0.07089 0.24606 0.0
H2896 H 0.51401 0.98498 0.18508 0.0
H2897 H 0.53026 0.05579 0.166 0.0
H2898 H 0.47022 0.99281 0.21725 0.0
H2899 H 0.49324 1.0031 0.24028 0.0
H2900 H 0.49182 0.97677 0.21603 0.0
H2901 H 0.48908 0.07912 0.19376 0.0
H2902 H 0.51574 0.08846 0.18367 0.0
H2903 H 0.51287 0.08934 0.2157 0.0
C2904 C 0.79545 0.7429 0.94413 0.0
C2905 C 0.80269 0.72323 0.9506 0.0
C2906 C 0.7991 0.74941 0.92147 0.0
C2907 C 0.81039 0.73605 0.90488 0.0
C2908 C 0.81806 0.71644 0.91143 0.0
C2909 C 0.81407 0.71023 0.93416 0.0
C2910 C 0.7906 0.7704 0.91512 0.0
C2911 C 0.83023 0.70184 0.89426 0.0
C2912 C 0.79953 0.73851 0.8379 0.0
C2913 C 0.81719 0.75753 0.83528 0.0
C2914 C 0.79739 0.73093 0.86025 0.0
C2915 C 0.81355 0.74222 0.88041 0.0
C2916 C 0.83224 0.76008 0.87737 0.0
C2917 C 0.83391 0.76727 0.85475 0.0
C2918 C 0.77728 0.71163 0.86257 0.0
C2919 C 0.85008 0.77225 0.89824 0.0
H2920 H 0.78663 0.75305 0.95665 0.0
H2921 H 0.81981 0.69505 0.93899 0.0
H2922 H 0.8043 0.78457 0.91105 0.0
H2923 H 0.77868 0.76364 0.89837 0.0
H2924 H 0.78243 0.77919 0.93017 0.0
H2925 H 0.8359 0.68777 0.90246 0.0
H2926 H 0.81944 0.69245 0.87704 0.0
H2927 H 0.84467 0.7143 0.8892 0.0
H2928 H 0.78678 0.73018 0.8228 0.0
H2929 H 0.8483 0.78057 0.85245 0.0
H2930 H 0.76732 0.71986 0.87593 0.0
H2931 H 0.78212 0.69653 0.86966 0.0
H2932 H 0.76684 0.70371 0.84481 0.0
H2933 H 0.84332 0.78299 0.91328 0.0
H2934 H 0.8641 0.78483 0.89251 0.0
H2935 H 0.85626 0.75816 0.9058 0.0
C2936 C 0.86628 0.10059 0.02232 0.0
C2937 C 0.84355 0.09175 0.02124 0.0
C2938 C 0.87983 0.0843 0.01733 0.0
C2939 C 0.87032 0.05868 0.01133 0.0
C2940 C 0.84748 0.04964 0.01103 0.0
C2941 C 0.83434 0.06631 0.01589 0.0
C2942 C 0.9042 0.09452 0.0178 0.0
C2943 C 0.83689 0.0224 0.00509 0.0
C2944 C 0.90209 0.01949 0.9733 0.0
C2945 C 0.91332 0.01174 0.99149 0.0
C2946 C 0.88762 0.03444 0.97949 0.0
C2947 C 0.8842 0.04136 0.00438 0.0
C2948 C 0.89468 0.03252 0.02266 0.0
C2949 C 0.90934 0.01795 0.01599 0.0
C2950 C 0.87686 0.04381 0.9596 0.0
C2951 C 0.8911 0.03925 0.04931 0.0
H2952 H 0.87346 0.12023 0.02651 0.0
H2953 H 0.81677 0.05935 0.01527 0.0
H2954 H 0.91339 0.08664 0.03049 0.0
H2955 H 0.90925 0.0892 0.99927 0.0
H2956 H 0.90905 0.11488 0.02362 0.0
H2957 H 0.81909 0.0184 0.00719 0.0
H2958 H 0.83897 0.01441 0.98593 0.0
H2959 H 0.845 0.01297 0.01721 0.0
H2960 H 0.90558 0.01499 0.95445 0.0
H2961 H 0.91824 0.012 0.03 0.0
H2962 H 0.88252 0.06414 0.96302 0.0
H2963 H 0.85881 0.03925 0.95983 0.0
H2964 H 0.88064 0.03598 0.94105 0.0
H2965 H 0.89795 0.05924 0.05642 0.0
H2966 H 0.899 0.0291 0.06086 0.0
H2967 H 0.87331 0.03533 0.05131 0.0
C2968 C 0.39232 0.45992 0.04369 0.0
C2969 C 0.39048 0.43627 0.04828 0.0
C2970 C 0.41296 0.47562 0.04332 0.0
C2971 C 0.43221 0.46749 0.04762 0.0
C2972 C 0.43046 0.44399 0.05311 0.0
C2973 C 0.40966 0.4287 0.05338 0.0
C2974 C 0.41413 0.50052 0.03735 0.0
C2975 C 0.45057 0.43458 0.05776 0.0
C2976 C 0.483 0.49105 0.01795 0.0
C2977 C 0.49663 0.5078 0.03762 0.0
C2978 C 0.4618 0.4785 0.02084 0.0
C2979 C 0.45403 0.48243 0.04412 0.0
C2980 C 0.46751 0.49964 0.06402 0.0
C2981 C 0.48862 0.5123 0.06048 0.0
C2982 C 0.44786 0.46065 0.999 0.0
C2983 C 0.45989 0.50417 0.08917 0.0
H2984 H 0.37761 0.46599 0.03983 0.0
H2985 H 0.40845 0.41053 0.05705 0.0
H2986 H 0.42578 0.51506 0.05113 0.0
H2987 H 0.42035 0.5009 0.01926 0.0
H2988 H 0.39788 0.50504 0.03671 0.0
H2989 H 0.44655 0.41678 0.06372 0.0
H2990 H 0.45872 0.43203 0.04076 0.0
H2991 H 0.46253 0.44819 0.07203 0.0
H2992 H 0.48888 0.48765 1.00014 0.0
H2993 H 0.49905 0.52524 0.07576 0.0
H2994 H 0.43179 0.46518 0.99618 0.0
H2995 H 0.44456 0.44174 1.00244 0.0
H2996 H 0.45585 0.46079 0.98185 0.0
H2997 H 0.44368 0.50866 0.08807 0.0
H2998 H 0.47166 0.51936 0.10224 0.0
H2999 H 0.45785 0.4872 0.09657 0.0
C3000 C 0.38018 0.63456 0.77425 0.0
C3001 C 0.40342 0.64167 0.77619 0.0
C3002 C 0.36664 0.65192 0.77375 0.0
C3003 C 0.37598 0.67763 0.77538 0.0
C3004 C 0.39933 0.6848 0.77776 0.0
C3005 C 0.41233 0.66724 0.77804 0.0
C3006 C 0.34207 0.64258 0.77097 0.0
C3007 C 0.41086 0.7114 0.77971 0.0
C3008 C 0.34609 0.72199 0.74837 0.0
C3009 C 0.33967 0.73652 0.76881 0.0
C3010 C 0.3566 0.70253 0.75014 0.0
C3011 C 0.3619 0.69683 0.77321 0.0
C3012 C 0.3551 0.71114 0.79404 0.0
C3013 C 0.34418 0.73041 0.79166 0.0
C3014 C 0.36261 0.68838 0.72699 0.0
C3015 C 0.36005 0.70663 0.81922 0.0
H3016 H 0.37242 0.61528 0.77266 0.0
H3017 H 0.42999 0.67386 0.77963 0.0
H3018 H 0.33507 0.65286 0.78613 0.0
H3019 H 0.33497 0.64585 0.75359 0.0
H3020 H 0.33694 0.62264 0.7709 0.0
H3021 H 0.42898 0.7147 0.78288 0.0
H3022 H 0.40663 0.71726 0.76259 0.0
H3023 H 0.40526 0.72321 0.79496 0.0
H3024 H 0.34314 0.72616 0.73051 0.0
H3025 H 0.33986 0.74124 0.80789 0.0
H3026 H 0.35669 0.66833 0.72581 0.0
H3027 H 0.38071 0.69251 0.7273 0.0
H3028 H 0.35562 0.69301 0.71025 0.0
H3029 H 0.35387 0.68687 0.81932 0.0
H3030 H 0.35261 0.71765 0.83339 0.0
H3031 H 0.37807 0.71139 0.82419 0.0
C3032 C 0.20371 0.6058 0.49615 0.0
C3033 C 0.22146 0.60423 0.51164 0.0
C3034 C 0.18227 0.59974 0.50238 0.0
C3035 C 0.17851 0.59192 0.52464 0.0
C3036 C 0.19626 0.58989 0.5402 0.0
C3037 C 0.21757 0.59606 0.5335 0.0
C3038 C 0.16363 0.60186 0.48518 0.0
C3039 C 0.19274 0.5815 0.564 0.0
C3040 C 0.12324 0.59825 0.54354 0.0
C3041 C 0.11039 0.57453 0.53386 0.0
C3042 C 0.14602 0.60372 0.54279 0.0
C3043 C 0.15579 0.58525 0.53101 0.0
C3044 C 0.14299 0.561 0.52224 0.0
C3045 C 0.12044 0.55594 0.5239 0.0
C3046 C 0.15935 0.6296 0.55311 0.0
C3047 C 0.1527 0.54091 0.5091 0.0
H3048 H 0.20658 0.61217 0.4793 0.0
H3049 H 0.23122 0.59484 0.54561 0.0
H3050 H 0.15148 0.58387 0.47952 0.0
H3051 H 0.15502 0.61524 0.49471 0.0
H3052 H 0.16933 0.60792 0.46844 0.0
H3053 H 0.20832 0.58088 0.57405 0.0
H3054 H 0.18487 0.59408 0.576 0.0
H3055 H 0.18145 0.56294 0.5604 0.0
H3056 H 0.11538 0.61264 0.55105 0.0
H3057 H 0.11057 0.53785 0.51556 0.0
H3058 H 0.16383 0.63896 0.53784 0.0
H3059 H 0.17482 0.62945 0.56367 0.0
H3060 H 0.15015 0.64047 0.56525 0.0
H3061 H 0.15742 0.54498 0.49126 0.0
H3062 H 0.14101 0.52258 0.5055 0.0
H3063 H 0.16775 0.54006 0.51994 0.0
C3064 C 0.7489 0.98379 0.75349 0.0
C3065 C 0.72857 0.9716 0.74003 0.0
C3066 C 0.76069 0.97144 0.76646 0.0
C3067 C 0.7522 0.94611 0.76539 0.0
C3068 C 0.73231 0.9333 0.75076 0.0
C3069 C 0.72051 0.94633 0.73842 0.0
C3070 C 0.78177 0.98577 0.78214 0.0
C3071 C 0.72324 0.90608 0.74875 0.0
C3072 C 0.79564 0.91738 0.78759 0.0
C3073 C 0.79142 0.91759 0.81199 0.0
C3074 C 0.78191 0.92489 0.77158 0.0
C3075 C 0.76403 0.93358 0.78043 0.0
C3076 C 0.75929 0.93327 0.80479 0.0
C3077 C 0.77291 0.92493 0.82021 0.0
C3078 C 0.78704 0.92443 0.7455 0.0
C3079 C 0.74054 0.94292 0.81493 0.0
H3080 H 0.75523 1.00335 0.75486 0.0
H3081 H 0.70484 0.93686 0.72792 0.0
H3082 H 0.78025 0.9848 0.80162 0.0
H3083 H 0.79554 0.97763 0.77651 0.0
H3084 H 0.78606 1.00542 0.78088 0.0
H3085 H 0.7092 0.89833 0.7342 0.0
H3086 H 0.73618 0.89602 0.74478 0.0
H3087 H 0.71758 0.90273 0.76646 0.0
H3088 H 0.81003 0.91201 0.78109 0.0
H3089 H 0.76924 0.92451 0.83882 0.0
H3090 H 0.79134 0.94341 0.74225 0.0
H3091 H 0.77239 0.91407 0.73253 0.0
H3092 H 0.80089 0.91589 0.74129 0.0
H3093 H 0.74352 0.96285 0.81503 0.0
H3094 H 0.73847 0.94031 0.83391 0.0
H3095 H 0.72498 0.93358 0.80311 0.0
C3096 C 0.75872 0.94358 0.56364 0.0
C3097 C 0.77073 0.9349 0.54506 0.0
C3098 C 0.74254 0.95593 0.5588 0.0
C3099 C 0.73843 0.9599 0.53489 0.0
C3100 C 0.7502 0.95079 0.51596 0.0
C3101 C 0.76613 0.93833 0.52125 0.0
C3102 C 0.73014 0.96516 0.57938 0.0
C3103 C 0.74641 0.95482 0.49026 0.0
C3104 C 0.68642 0.97786 0.51539 0.0
C3105 C 0.69402 1.00341 0.51811 0.0
C3106 C 0.70054 0.96347 0.52133 0.0
C3107 C 0.72281 0.97487 0.52994 0.0
C3108 C 0.73045 1.00065 0.53314 0.0
C3109 C 0.71594 0.0146 0.52742 0.0
C3110 C 0.69175 0.93604 0.51791 0.0
C3111 C 0.75411 0.0135 0.54215 0.0
H3112 H 0.76203 0.94085 0.58203 0.0
H3113 H 0.77528 0.93166 0.50674 0.0
H3114 H 0.73398 0.98554 0.58324 0.0
H3115 H 0.71222 0.95843 0.57392 0.0
H3116 H 0.73427 0.95924 0.59653 0.0
H3117 H 0.75627 0.9457 0.4774 0.0
H3118 H 0.72882 0.9477 0.48313 0.0
H3119 H 0.75076 0.9748 0.49049 0.0
H3120 H 0.66958 0.96899 0.50802 0.0
H3121 H 0.72185 0.03436 0.53015 0.0
H3122 H 0.69545 0.93003 0.53511 0.0
H3123 H 0.69992 0.92636 0.50351 0.0
H3124 H 0.67375 0.93022 0.51253 0.0
H3125 H 0.75864 0.00967 0.56025 0.0
H3126 H 0.75737 0.03373 0.54392 0.0
H3127 H 0.76497 0.00634 0.52925 0.0
C3128 C 0.40401 0.47822 0.79434 0.0
C3129 C 0.40027 0.49332 0.77803 0.0
C3130 C 0.39231 0.45333 0.79111 0.0
C3131 C 0.37595 0.44237 0.77096 0.0
C3132 C 0.37216 0.45728 0.75412 0.0
C3133 C 0.38431 0.48234 0.75774 0.0
C3134 C 0.39738 0.43874 0.80965 0.0
C3135 C 0.35509 0.44674 0.73226 0.0
C3136 C 0.36029 0.3709 0.75614 0.0
C3137 C 0.34068 0.36505 0.7669 0.0
C3138 C 0.37115 0.39563 0.75611 0.0
C3139 C 0.36294 0.41557 0.76804 0.0
C3140 C 0.34312 0.40965 0.77896 0.0
C3141 C 0.33218 0.38473 0.77793 0.0
C3142 C 0.39167 0.40041 0.74348 0.0
C3143 C 0.3338 0.42975 0.79262 0.0
H3144 H 0.41631 0.48593 0.81001 0.0
H3145 H 0.38103 0.49341 0.74489 0.0
H3146 H 0.38237 0.43187 0.8181 0.0
H3147 H 0.4028 0.42247 0.80043 0.0
H3148 H 0.41039 0.44977 0.82444 0.0
H3149 H 0.35414 0.46024 0.72058 0.0
H3150 H 0.35888 0.4303 0.72098 0.0
H3151 H 0.33876 0.44064 0.7385 0.0
H3152 H 0.36709 0.35602 0.74749 0.0
H3153 H 0.31733 0.38068 0.7867 0.0
H3154 H 0.40601 0.40961 0.75729 0.0
H3155 H 0.39043 0.41297 0.73086 0.0
H3156 H 0.39474 0.38321 0.73286 0.0
H3157 H 0.34553 0.44054 0.80869 0.0
H3158 H 0.31785 0.42239 0.79918 0.0
H3159 H 0.33146 0.44258 0.78067 0.0
C3160 C 0.24446 0.60774 0.23765 0.0
C3161 C 0.23019 0.60113 0.25475 0.0
C3162 C 0.25697 0.63186 0.24064 0.0
C3163 C 0.25538 0.64967 0.26136 0.0
C3164 C 0.24173 0.64284 0.2793 0.0
C3165 C 0.22905 0.61863 0.27563 0.0
C3166 C 0.27068 0.63849 0.22075 0.0
C3167 C 0.24007 0.66124 0.30201 0.0
C3168 C 0.29723 0.711 0.27854 0.0
C3169 C 0.28521 0.72636 0.27059 0.0
C3170 C 0.28799 0.68569 0.27504 0.0
C3171 C 0.26636 0.67585 0.26326 0.0
C3172 C 0.2545 0.69137 0.25456 0.0
C3173 C 0.26386 0.71662 0.25912 0.0
C3174 C 0.30097 0.6697 0.28482 0.0
C3175 C 0.23166 0.68147 0.24122 0.0
H3176 H 0.24531 0.59425 0.22144 0.0
H3177 H 0.21825 0.61341 0.28907 0.0
H3178 H 0.2615 0.64737 0.2091 0.0
H3179 H 0.28648 0.65165 0.22859 0.0
H3180 H 0.27409 0.62208 0.20893 0.0
H3181 H 0.2305 0.65242 0.31533 0.0
H3182 H 0.25668 0.67113 0.31122 0.0
H3183 H 0.23201 0.67519 0.29682 0.0
H3184 H 0.31355 0.71892 0.28814 0.0
H3185 H 0.25418 0.7289 0.25447 0.0
H3186 H 0.30182 0.65403 0.27006 0.0
H3187 H 0.29259 0.66193 0.29945 0.0
H3188 H 0.31794 0.68005 0.29248 0.0
H3189 H 0.2315 0.66612 0.22564 0.0
H3190 H 0.22545 0.69578 0.23404 0.0
H3191 H 0.22021 0.67409 0.25378 0.0
C3192 C 0.55645 0.70345 0.46845 0.0
C3193 C 0.5361 0.70672 0.45964 0.0
C3194 C 0.55843 0.68215 0.47678 0.0
C3195 C 0.53961 0.66309 0.47691 0.0
C3196 C 0.51883 0.66644 0.46867 0.0
C3197 C 0.51731 0.68804 0.46014 0.0
C3198 C 0.58092 0.68016 0.48543 0.0
C3199 C 0.4982 0.64688 0.46842 0.0
C3200 C 0.5477 0.59746 0.47094 0.0
C3201 C 0.54764 0.59359 0.49505 0.0
C3202 C 0.54508 0.61966 0.46501 0.0
C3203 C 0.54204 0.63902 0.48352 0.0
C3204 C 0.54225 0.63541 0.50809 0.0
C3205 C 0.54497 0.61282 0.51356 0.0
C3206 C 0.54566 0.62238 0.43871 0.0
C3207 C 0.53956 0.65541 0.52868 0.0
H3208 H 0.57121 0.71759 0.46856 0.0
H3209 H 0.50144 0.69007 0.45347 0.0
H3210 H 0.58204 0.68161 0.50551 0.0
H3211 H 0.58366 0.66212 0.47673 0.0
H3212 H 0.59417 0.69491 0.48145 0.0
H3213 H 0.4832 0.65274 0.46327 0.0
H3214 H 0.49859 0.62989 0.45515 0.0
H3215 H 0.49723 0.6422 0.48676 0.0
H3216 H 0.54969 0.58281 0.45642 0.0
H3217 H 0.54462 0.61008 0.53219 0.0
H3218 H 0.55924 0.63819 0.43753 0.0
H3219 H 0.53016 0.62628 0.43194 0.0
H3220 H 0.54799 0.60566 0.42638 0.0
H3221 H 0.5543 0.67097 0.53182 0.0
H3222 H 0.5374 0.64894 0.54609 0.0
H3223 H 0.52524 0.66251 0.52374 0.0
C3224 C 0.6749 0.32719 0.6614 0.0
C3225 C 0.65703 0.30654 0.65792 0.0
C3226 C 0.69545 0.32751 0.67372 0.0
C3227 C 0.69836 0.30678 0.68299 0.0
C3228 C 0.68037 0.28599 0.67949 0.0
C3229 C 0.66019 0.28612 0.6671 0.0
C3230 C 0.71413 0.35002 0.67677 0.0
C3231 C 0.68232 0.26349 0.68907 0.0
C3232 C 0.75471 0.29409 0.6982 0.0
C3233 C 0.75856 0.30216 0.72384 0.0
C3234 C 0.73587 0.29656 0.6846 0.0
C3235 C 0.71986 0.3067 0.69681 0.0
C3236 C 0.72375 0.3151 0.72265 0.0
C3237 C 0.74305 0.31314 0.73562 0.0
C3238 C 0.73294 0.28785 0.6571 0.0
C3239 C 0.70717 0.32552 0.73681 0.0
H3240 H 0.67289 0.34308 0.65442 0.0
H3241 H 0.64674 0.26994 0.66467 0.0
H3242 H 0.71943 0.35789 0.69654 0.0
H3243 H 0.72843 0.3449 0.6685 0.0
H3244 H 0.70959 0.36442 0.66813 0.0
H3245 H 0.66684 0.24882 0.68502 0.0
H3246 H 0.69553 0.25589 0.68078 0.0
H3247 H 0.68689 0.26856 0.70921 0.0
H3248 H 0.76629 0.28558 0.68862 0.0
H3249 H 0.74575 0.32002 0.75521 0.0
H3250 H 0.72927 0.30243 0.64813 0.0
H3251 H 0.7188 0.27162 0.65164 0.0
H3252 H 0.74773 0.28271 0.65006 0.0
H3253 H 0.7037 0.34118 0.72956 0.0
H3254 H 0.71282 0.33189 0.75672 0.0
H3255 H 0.6915 0.3113 0.73446 0.0
C3256 C 0.04424 0.35446 0.96719 0.0
C3257 C 0.02242 0.34041 0.96302 0.0
C3258 C 0.04927 0.38043 0.97464 0.0
C3259 C 0.03214 0.39284 0.97789 0.0
C3260 C 0.0102 0.3786 0.97439 0.0
C3261 C 0.00566 0.3528 0.96725 0.0
C3262 C 0.07294 0.39468 0.97827 0.0
C3263 C 0.99131 0.39058 0.97783 0.0
C3264 C 0.04579 0.46115 0.01064 0.0
C3265 C 0.04792 0.47297 0.9908 0.0
C3266 C 0.04039 0.43517 0.00687 0.0
C3267 C 0.037 0.42059 0.98266 0.0
C3268 C 0.03836 0.43262 0.96263 0.0
C3269 C 0.04399 0.45849 0.96696 0.0
C3270 C 0.03899 0.42338 0.02883 0.0
C3271 C 0.03422 0.41813 0.9365 0.0
H3272 H 0.05739 0.34526 0.96399 0.0
H3273 H 0.98873 0.34233 0.96437 0.0
H3274 H 0.07596 0.40577 0.96401 0.0
H3275 H 0.07661 0.40767 0.99635 0.0
H3276 H 0.08443 0.38246 0.97719 0.0
H3277 H 0.97518 0.37738 0.97137 0.0
H3278 H 0.99158 0.39836 0.99761 0.0
H3279 H 0.99287 0.40582 0.96789 0.0
H3280 H 0.04917 0.47216 0.02913 0.0
H3281 H 0.04573 0.46751 0.95154 0.0
H3282 H 0.05096 0.41181 0.02869 0.0
H3283 H 0.02243 0.41115 0.02797 0.0
H3284 H 0.04229 0.4372 0.04641 0.0
H3285 H 0.04647 0.40699 0.93314 0.0
H3286 H 0.03513 0.43015 0.92297 0.0
H3287 H 0.01776 0.4052 0.93332 0.0
C3288 C 0.01389 0.80138 0.13414 0.0
C3289 C 0.03579 0.80785 0.14481 0.0
C3290 C 0.99625 0.79774 0.14842 0.0
C3291 C 1.00045 0.80106 0.1742 0.0
C3292 C 0.02252 0.80784 0.18514 0.0
C3293 C 0.03989 0.81091 0.17033 0.0
C3294 C 0.97308 0.79002 0.13584 0.0
C3295 C 0.02781 0.81187 0.21255 0.0
C3296 C 0.95467 0.81155 0.21406 0.0
C3297 C 0.94748 0.78852 0.22004 0.0
C3298 C 0.97181 0.81592 0.19913 0.0
C3299 C 0.98176 0.79667 0.18957 0.0
C3300 C 0.97391 0.77314 0.19485 0.0
C3301 C 0.95707 0.76944 0.21014 0.0
C3302 C 0.97975 0.84133 0.19421 0.0
C3303 C 0.98356 0.7519 0.1847 0.0
H3304 H 0.01045 0.79877 0.11444 0.0
H3305 H 0.0567 0.816 0.1788 0.0
H3306 H 0.96457 0.7721 0.13967 0.0
H3307 H 0.96377 0.8036 0.14318 0.0
H3308 H 0.97253 0.78823 0.11566 0.0
H3309 H 0.04573 0.81802 0.21836 0.0
H3310 H 0.01977 0.82587 0.222 0.0
H3311 H 0.02125 0.79458 0.21874 0.0
H3312 H 0.94749 0.82643 0.22188 0.0
H3313 H 0.95153 0.75158 0.21466 0.0
H3314 H 0.97878 0.8405 0.17418 0.0
H3315 H 0.99723 0.84889 0.20171 0.0
H3316 H 0.9701 0.85419 0.20255 0.0
H3317 H 0.98274 0.7491 0.16443 0.0
H3318 H 0.97493 0.73449 0.18951 0.0
H3319 H 1.00111 0.75609 0.19193 0.0
C3320 C 0.52075 0.3247 0.11383 0.0
C3321 C 0.52862 0.30335 0.10945 0.0
C3322 C 0.52331 0.34073 0.09752 0.0
C3323 C 0.53407 0.3353 0.07643 0.0
C3324 C 0.54208 0.31384 0.07193 0.0
C3325 C 0.53922 0.29808 0.08848 0.0
C3326 C 0.51446 0.36342 0.10283 0.0
C3327 C 0.55374 0.30757 0.04965 0.0
C3328 C 0.52467 0.36372 0.02189 0.0
C3329 C 0.54327 0.38331 0.02548 0.0
C3330 C 0.52126 0.34816 0.03861 0.0
C3331 C 0.53707 0.35211 0.05905 0.0
C3332 C 0.55597 0.37183 0.06265 0.0
C3333 C 0.55874 0.38737 0.0459 0.0
C3334 C 0.50069 0.32762 0.0345 0.0
C3335 C 0.57331 0.37641 0.08407 0.0
H3336 H 0.51251 0.32888 0.12998 0.0
H3337 H 0.54533 0.28162 0.08495 0.0
H3338 H 0.52802 0.38013 0.10488 0.0
H3339 H 0.50264 0.36339 0.08724 0.0
H3340 H 0.50612 0.36472 0.11979 0.0
H3341 H 0.55907 0.29022 0.04886 0.0
H3342 H 0.54278 0.30569 0.03271 0.0
H3343 H 0.56837 0.32267 0.04975 0.0
H3344 H 0.51256 0.36094 0.00629 0.0
H3345 H 0.57311 0.40261 0.04862 0.0
H3346 H 0.49148 0.32944 0.05076 0.0
H3347 H 0.50505 0.30964 0.03217 0.0
H3348 H 0.48973 0.32749 0.01807 0.0
H3349 H 0.56598 0.37957 0.10157 0.0
H3350 H 0.58706 0.39253 0.08417 0.0
H3351 H 0.58002 0.35998 0.08344 0.0
C3352 C 0.02949 0.32981 0.36097 0.0
C3353 C 0.04813 0.32731 0.3493 0.0
C3354 C 0.01146 0.33451 0.34849 0.0
C3355 C 0.01217 0.33681 0.32378 0.0
C3356 C 0.03085 0.33412 0.3118 0.0
C3357 C 0.04864 0.32935 0.32471 0.0
C3358 C 0.99172 0.3372 0.3618 0.0
C3359 C 0.03212 0.33653 0.28547 0.0
C3360 C 0.95695 0.32776 0.28802 0.0
C3361 C 0.95519 0.35209 0.29026 0.0
C3362 C 0.9758 0.32251 0.2981 0.0
C3363 C 0.99327 0.34211 0.3106 0.0
C3364 C 0.99203 0.36674 0.31193 0.0
C3365 C 0.97294 0.37145 0.30172 0.0
C3366 C 0.97661 0.29602 0.2963 0.0
C3367 C 0.01042 0.38807 0.32513 0.0
H3368 H 0.02899 0.32825 0.37996 0.0
H3369 H 0.06305 0.32751 0.31561 0.0
H3370 H 0.98882 0.3557 0.3622 0.0
H3371 H 0.97687 0.32352 0.35192 0.0
H3372 H 0.99373 0.33467 0.38096 0.0
H3373 H 0.04776 0.33368 0.27876 0.0
H3374 H 0.0183 0.32296 0.27347 0.0
H3375 H 0.03057 0.35507 0.28359 0.0
H3376 H 0.94334 0.31278 0.27885 0.0
H3377 H 0.97152 0.39026 0.30365 0.0
H3378 H 0.9769 0.2918 0.31486 0.0
H3379 H 0.99184 0.29282 0.2888 0.0
H3380 H 0.96229 0.283 0.2845 0.0
H3381 H 0.01199 0.38806 0.34501 0.0
H3382 H 0.00764 0.40605 0.32279 0.0
H3383 H 0.02625 0.38619 0.31834 0.0
C3384 C 0.99388 0.67965 0.62875 0.0
C3385 C 0.99068 0.69612 0.61405 0.0
C3386 C 0.99866 0.65741 0.61858 0.0
C3387 C 1.00061 0.65186 0.59322 0.0
C3388 C 0.99567 0.66747 0.57795 0.0
C3389 C 0.99057 0.6895 0.5886 0.0
C3390 C 1.00315 0.64071 0.6352 0.0
C3391 C 0.99756 0.66189 0.55076 0.0
C3392 C 0.04314 0.61701 0.57427 0.0
C3393 C 0.02984 0.59406 0.563 0.0
C3394 C 0.03372 0.63607 0.58427 0.0
C3395 C 0.01056 0.63156 0.58333 0.0
C3396 C 0.99717 0.60794 0.57279 0.0
C3397 C 0.00705 0.58949 0.56231 0.0
C3398 C 0.04847 0.66117 0.59511 0.0
C3399 C 0.97249 0.60227 0.57189 0.0
H3400 H 0.99367 0.68472 0.64844 0.0
H3401 H 0.98813 0.70231 0.57728 0.0
H3402 H 0.99448 0.62135 0.62709 0.0
H3403 H 0.02096 0.64161 0.63728 0.0
H3404 H 0.998 0.64597 0.65372 0.0
H3405 H 0.99115 0.67459 0.54114 0.0
H3406 H 0.01504 0.66353 0.54773 0.0
H3407 H 0.98852 0.64275 0.54234 0.0
H3408 H 0.0608 0.62028 0.57431 0.0
H3409 H 0.99695 0.57152 0.55343 0.0
H3410 H 0.0459 0.66699 0.61459 0.0
H3411 H 0.04431 0.67488 0.58519 0.0
H3412 H 0.06611 0.66155 0.59415 0.0
H3413 H 0.96736 0.611 0.58933 0.0
H3414 H 0.96512 0.58216 0.56825 0.0
H3415 H 0.96574 0.60969 0.55696 0.0
C3416 C 0.66848 0.80195 0.82667 0.0
C3417 C 0.66146 0.82365 0.82836 0.0
C3418 C 0.68841 0.8001 0.81791 0.0
C3419 C 0.70187 0.82053 0.81098 0.0
C3420 C 0.69475 0.84249 0.81229 0.0
C3421 C 0.6744 0.84371 0.82075 0.0
C3422 C 0.69512 0.7763 0.81624 0.0
C3423 C 0.70897 0.86492 0.8057 0.0
C3424 C 0.7625 0.82265 0.81581 0.0
C3425 C 0.7657 0.81572 0.79122 0.0
C3426 C 0.74186 0.82477 0.82243 0.0
C3427 C 0.72398 0.81928 0.80394 0.0
C3428 C 0.7272 0.81212 0.77899 0.0
C3429 C 0.74829 0.81116 0.77288 0.0
C3430 C 0.73928 0.83311 0.84916 0.0
C3431 C 0.7084 0.80536 0.75886 0.0
H3432 H 0.65838 0.78636 0.83235 0.0
H3433 H 0.66904 0.86062 0.82229 0.0
H3434 H 0.69839 0.76996 0.79721 0.0
H3435 H 0.71045 0.77927 0.82849 0.0
H3436 H 0.68236 0.76169 0.82123 0.0
H3437 H 0.7007 0.88027 0.80686 0.0
H3438 H 0.72444 0.87136 0.81827 0.0
H3439 H 0.71352 0.86026 0.78683 0.0
H3440 H 0.77632 0.82687 0.82983 0.0
H3441 H 0.7512 0.80696 0.75383 0.0
H3442 H 0.72776 0.81835 0.85546 0.0
H3443 H 0.73218 0.84939 0.85167 0.0
H3444 H 0.75512 0.83795 0.86104 0.0
H3445 H 0.6959 0.78932 0.76173 0.0
H3446 H 0.7138 0.80065 0.74038 0.0
H3447 H 0.70034 0.82077 0.75937 0.0
C3448 C 0.47162 0.57547 0.69068 0.0
C3449 C 0.47551 0.56018 0.70674 0.0
C3450 C 0.48123 0.57528 0.66795 0.0
C3451 C 0.49561 0.55972 0.66059 0.0
C3452 C 0.49987 0.54473 0.67702 0.0
C3453 C 0.48986 0.545 0.69926 0.0
C3454 C 0.47557 0.59147 0.65144 0.0
C3455 C 0.51511 0.52803 0.67106 0.0
C3456 C 0.50664 0.53885 0.59225 0.0
C3457 C 0.52712 0.55445 0.59035 0.0
C3458 C 0.49608 0.54088 0.61427 0.0
C3459 C 0.50603 0.5587 0.63593 0.0
C3460 C 0.52664 0.57458 0.63408 0.0
C3461 C 0.53657 0.57252 0.61164 0.0
C3462 C 0.47412 0.5236 0.61435 0.0
C3463 C 0.5386 0.59365 0.65614 0.0
H3464 H 0.46057 0.58721 0.69552 0.0
H3465 H 0.49339 0.53298 0.71098 0.0
H3466 H 0.49074 0.60401 0.64798 0.0
H3467 H 0.4676 0.57996 0.63343 0.0
H3468 H 0.4644 0.60263 0.65938 0.0
H3469 H 0.51768 0.51822 0.68593 0.0
H3470 H 0.50834 0.51419 0.65393 0.0
H3471 H 0.53127 0.53885 0.66782 0.0
H3472 H 0.49868 0.52479 0.57637 0.0
H3473 H 0.55204 0.58511 0.61096 0.0
H3474 H 0.46212 0.53418 0.62101 0.0
H3475 H 0.47564 0.51129 0.62714 0.0
H3476 H 0.46753 0.51211 0.59587 0.0
H3477 H 0.52813 0.60618 0.66282 0.0
H3478 H 0.55432 0.60476 0.65207 0.0
H3479 H 0.54209 0.58453 0.67126 0.0
C3480 C 0.74781 0.16778 0.9693 0.0
C3481 C 0.76734 0.16062 0.97352 0.0
C3482 C 0.74666 0.18487 0.95471 0.0
C3483 C 0.76549 0.19498 0.94418 0.0
C3484 C 0.78502 0.18717 0.94758 0.0
C3485 C 0.7857 0.16999 0.96223 0.0
C3486 C 0.72554 0.19277 0.95128 0.0
C3487 C 0.80539 0.19758 0.93645 0.0
C3488 C 0.75967 0.22731 0.89211 0.0
C3489 C 0.76646 0.25206 0.90432 0.0
C3490 C 0.75903 0.20845 0.90491 0.0
C3491 C 0.76509 0.21458 0.93051 0.0
C3492 C 0.77127 0.23949 0.94307 0.0
C3493 C 0.77193 0.25799 0.92977 0.0
C3494 C 0.75241 0.18203 0.89099 0.0
C3495 C 0.77778 0.2466 0.97044 0.0
H3496 H 0.73353 0.16046 0.97788 0.0
H3497 H 0.80084 0.16451 0.96544 0.0
H3498 H 0.72816 0.21252 0.95991 0.0
H3499 H 0.72038 0.19065 0.93148 0.0
H3500 H 0.71201 0.18202 0.95949 0.0
H3501 H 0.81885 0.18856 0.93978 0.0
H3502 H 0.80159 0.19539 0.91638 0.0
H3503 H 0.8113 0.21756 0.94434 0.0
H3504 H 0.7552 0.22271 0.87243 0.0
H3505 H 0.77747 0.27711 0.93916 0.0
H3506 H 0.73853 0.17154 0.89889 0.0
H3507 H 0.76627 0.17324 0.89278 0.0
H3508 H 0.74751 0.18041 0.87119 0.0
H3509 H 0.7645 0.2375 0.98013 0.0
H3510 H 0.78132 0.26678 0.97752 0.0
H3511 H 0.7926 0.24022 0.97505 0.0
C3512 C 0.15489 0.50721 0.15773 0.0
C3513 C 0.14761 0.50713 0.18088 0.0
C3514 C 0.14095 0.50896 0.13805 0.0
C3515 C 0.11941 0.51101 0.14186 0.0
C3516 C 0.11165 0.5099 0.16488 0.0
C3517 C 0.12586 0.50776 0.18416 0.0
C3518 C 0.14959 0.50973 0.11351 0.0
C3519 C 0.08884 0.51244 0.16953 0.0
C3520 C 0.09726 0.54583 0.09952 0.0
C3521 C 0.08334 0.52662 0.0824 0.0
C3522 C 0.10825 0.54105 0.11983 0.0
C3523 C 0.10574 0.5164 0.12228 0.0
C3524 C 0.09128 0.49698 0.10522 0.0
C3525 C 0.07986 0.50243 0.08559 0.0
C3526 C 0.12303 0.56227 0.13819 0.0
C3527 C 0.08875 0.47046 0.10694 0.0
H3528 H 0.17167 0.50652 0.15512 0.0
H3529 H 0.12021 0.50779 0.20208 0.0
H3530 H 0.13795 0.49652 0.09863 0.0
H3531 H 0.15116 0.52833 0.10961 0.0
H3532 H 0.16588 0.50536 0.11295 0.0
H3533 H 0.08468 0.50896 0.18776 0.0
H3534 H 0.08757 0.53132 0.16865 0.0
H3535 H 0.07646 0.49954 0.15518 0.0
H3536 H 0.09962 0.56455 0.09693 0.0
H3537 H 0.0691 0.48766 0.07205 0.0
H3538 H 0.14037 0.56138 0.13721 0.0
H3539 H 0.1192 0.5611 0.15709 0.0
H3540 H 0.12141 0.58036 0.13484 0.0
H3541 H 0.10449 0.46528 0.10407 0.0
H3542 H 0.07573 0.45775 0.09309 0.0
H3543 H 0.08482 0.46789 0.12546 0.0
C3544 C 0.84622 0.83917 0.45741 0.0
C3545 C 0.82848 0.84589 0.46846 0.0
C3546 C 0.84474 0.83026 0.43198 0.0
C3547 C 0.82499 0.82781 0.41711 0.0
C3548 C 0.80653 0.83293 0.42838 0.0
C3549 C 0.80853 0.84207 0.45386 0.0
C3550 C 0.86496 0.82541 0.42103 0.0
C3551 C 0.78498 0.83004 0.41334 0.0
C3552 C 0.82518 0.83943 0.35254 0.0
C3553 C 0.81881 0.81562 0.33806 0.0
C3554 C 0.82855 0.84347 0.37816 0.0
C3555 C 0.82437 0.82319 0.38978 0.0
C3556 C 0.81839 0.79897 0.3752 0.0
C3557 C 0.81585 0.79545 0.34941 0.0
C3558 C 0.8359 0.86956 0.39282 0.0
C3559 C 0.81367 0.77688 0.38682 0.0
H3560 H 0.86172 0.84197 0.46844 0.0
H3561 H 0.79463 0.84697 0.46221 0.0
H3562 H 0.86074 0.80973 0.40507 0.0
H3563 H 0.87342 0.842 0.41471 0.0
H3564 H 0.87658 0.82155 0.43468 0.0
H3565 H 0.7715 0.83154 0.42499 0.0
H3566 H 0.78664 0.84452 0.40241 0.0
H3567 H 0.78037 0.81199 0.40026 0.0
H3568 H 0.82732 0.85501 0.34371 0.0
H3569 H 0.81049 0.77702 0.33821 0.0
H3570 H 0.85024 0.87144 0.40624 0.0
H3571 H 0.82253 0.87427 0.4033 0.0
H3572 H 0.84046 0.88305 0.38097 0.0
H3573 H 0.82746 0.77787 0.40063 0.0
H3574 H 0.81088 0.75934 0.37307 0.0
H3575 H 0.79885 0.77673 0.39658 0.0
C3576 C 0.48184 0.5806 0.86354 0.0
C3577 C 0.47831 0.561 0.84283 0.0
C3578 C 0.49199 0.57933 0.88699 0.0
C3579 C 0.49866 0.55779 0.89072 0.0
C3580 C 0.4948 0.53798 0.86996 0.0
C3581 C 0.48515 0.53991 0.84682 0.0
C3582 C 0.49578 0.60132 0.9079 0.0
C3583 C 0.50066 0.51426 0.8722 0.0
C3584 C 0.54046 0.55688 0.94623 0.0
C3585 C 0.52676 0.54932 0.96378 0.0
C3586 C 0.53178 0.56016 0.92298 0.0
C3587 C 0.50862 0.55528 0.91617 0.0
C3588 C 0.49488 0.5469 0.93365 0.0
C3589 C 0.50396 0.54463 0.95693 0.0
C3590 C 0.54755 0.56957 0.90586 0.0
C3591 C 0.47029 0.54023 0.9278 0.0
H3592 H 0.47699 0.59717 0.86141 0.0
H3593 H 0.48269 0.5243 0.83162 0.0
H3594 H 0.48607 0.59645 0.92288 0.0
H3595 H 0.51331 0.60689 0.91551 0.0
H3596 H 0.49115 0.61723 0.90219 0.0
H3597 H 0.4958 0.50001 0.85497 0.0
H3598 H 0.5186 0.51769 0.877 0.0
H3599 H 0.49253 0.50692 0.88719 0.0
H3600 H 0.55805 0.56119 0.95102 0.0
H3601 H 0.49295 0.53899 0.97005 0.0
H3602 H 0.54402 0.58642 0.90115 0.0
H3603 H 0.54539 0.55568 0.88851 0.0
H3604 H 0.56491 0.57387 0.91396 0.0
H3605 H 0.46462 0.55671 0.92535 0.0
H3606 H 0.46173 0.53264 0.94244 0.0
H3607 H 0.4654 0.52641 0.9103 0.0
C3608 C 0.80555 0.21386 0.07944 0.0
C3609 C 0.80166 0.18851 0.07838 0.0
C3610 C 0.80593 0.23029 0.10167 0.0
C3611 C 0.80229 0.22104 0.12317 0.0
C3612 C 0.79819 0.19548 0.12217 0.0
C3613 C 0.798 0.17953 0.0998 0.0
C3614 C 0.81038 0.2575 0.10225 0.0
C3615 C 0.79414 0.18496 0.14478 0.0
C3616 C 0.82457 0.25867 0.18634 0.0
C3617 C 0.80564 0.26394 0.19532 0.0
C3618 C 0.82399 0.24607 0.16221 0.0
C3619 C 0.80376 0.23798 0.14708 0.0
C3620 C 0.7846 0.24375 0.15596 0.0
C3621 C 0.78576 0.25662 0.1802 0.0
C3622 C 0.84472 0.24006 0.15349 0.0
C3623 C 0.76272 0.23522 0.14037 0.0
H3624 H 0.80826 0.22089 0.06291 0.0
H3625 H 0.79478 0.15994 0.0991 0.0
H3626 H 0.7969 0.26497 0.10999 0.0
H3627 H 0.82568 0.26728 0.1144 0.0
H3628 H 0.81208 0.26165 0.08374 0.0
H3629 H 0.79051 0.16456 0.14067 0.0
H3630 H 0.80874 0.19221 0.15861 0.0
H3631 H 0.78015 0.19069 0.15323 0.0
H3632 H 0.83955 0.26303 0.19856 0.0
H3633 H 0.77107 0.26038 0.18755 0.0
H3634 H 0.8471 0.24452 0.13523 0.0
H3635 H 0.84337 0.22007 0.15152 0.0
H3636 H 0.85946 0.25023 0.16645 0.0
H3637 H 0.76433 0.23958 0.12196 0.0
H3638 H 0.7501 0.24378 0.1489 0.0
H3639 H 0.75689 0.21497 0.13768 0.0
C3640 C 0.15915 0.51826 0.29512 0.0
C3641 C 0.18176 0.52834 0.3012 0.0
C3642 C 0.1443 0.52299 0.31184 0.0
C3643 C 0.15227 0.538 0.33528 0.0
C3644 C 0.17511 0.54735 0.342 0.0
C3645 C 0.18965 0.5424 0.3248 0.0
C3646 C 0.12002 0.51269 0.30407 0.0
C3647 C 0.18408 0.56326 0.36698 0.0
C3648 C 0.11157 0.5699 0.36583 0.0
C3649 C 0.10316 0.55403 0.38103 0.0
C3650 C 0.12813 0.56531 0.35135 0.0
C3651 C 0.13647 0.54445 0.3523 0.0
C3652 C 0.12842 0.52868 0.36803 0.0
C3653 C 0.11171 0.53354 0.38206 0.0
C3654 C 0.13632 0.58244 0.33462 0.0
C3655 C 0.13703 0.50633 0.36957 0.0
H3656 H 0.15294 0.50726 0.27694 0.0
H3657 H 0.20709 0.5503 0.32956 0.0
H3658 H 0.11251 0.5019 0.31723 0.0
H3659 H 0.11182 0.52797 0.30418 0.0
H3660 H 0.11659 0.50068 0.28543 0.0
H3661 H 0.20228 0.56758 0.36995 0.0
H3662 H 0.17891 0.58079 0.36905 0.0
H3663 H 0.17735 0.55401 0.38156 0.0
H3664 H 0.10525 0.58596 0.36532 0.0
H3665 H 0.10506 0.52102 0.39356 0.0
H3666 H 0.13236 0.57234 0.31523 0.0
H3667 H 0.15441 0.58921 0.33813 0.0
H3668 H 0.12891 0.59851 0.33701 0.0
H3669 H 0.13244 0.4928 0.35186 0.0
H3670 H 0.13045 0.49725 0.38436 0.0
H3671 H 0.1552 0.5115 0.3729 0.0
C3672 C 0.82543 0.86736 0.61276 0.0
C3673 C 0.80516 0.86316 0.59862 0.0
C3674 C 0.82665 0.86145 0.63603 0.0
C3675 C 0.80717 0.85115 0.64547 0.0
C3676 C 0.78667 0.84718 0.63148 0.0
C3677 C 0.78591 0.85311 0.60821 0.0
C3678 C 0.84877 0.86635 0.65062 0.0
C3679 C 0.76553 0.83677 0.6412 0.0
C3680 C 0.80906 0.81184 0.6927 0.0
C3681 C 0.80871 0.82827 0.71473 0.0
C3682 C 0.80902 0.81925 0.67023 0.0
C3683 C 0.80825 0.84367 0.66959 0.0
C3684 C 0.80821 0.86051 0.69186 0.0
C3685 C 0.80863 0.85263 0.71424 0.0
C3686 C 0.80994 0.80092 0.64717 0.0
C3687 C 0.80728 0.88675 0.69248 0.0
H3688 H 0.8404 0.87531 0.60567 0.0
H3689 H 0.77015 0.84998 0.5976 0.0
H3690 H 0.84925 0.87931 0.6683 0.0
H3691 H 0.85146 0.84902 0.65498 0.0
H3692 H 0.86243 0.87428 0.64067 0.0
H3693 H 0.75086 0.8355 0.62845 0.0
H3694 H 0.7653 0.81814 0.64438 0.0
H3695 H 0.76439 0.8485 0.65913 0.0
H3696 H 0.80983 0.79314 0.69308 0.0
H3697 H 0.80851 0.86542 0.73126 0.0
H3698 H 0.82417 0.80827 0.63774 0.0
H3699 H 0.79494 0.79787 0.63432 0.0
H3700 H 0.81135 0.78291 0.65096 0.0
H3701 H 0.81916 0.89929 0.70759 0.0
H3702 H 0.79063 0.88876 0.69631 0.0
H3703 H 0.81084 0.89278 0.67515 0.0
C3704 C 0.75201 0.47879 0.50459 0.0
C3705 C 0.77148 0.48073 0.51918 0.0
C3706 C 0.7389 0.49533 0.51095 0.0
C3707 C 0.7455 0.51415 0.53236 0.0
C3708 C 0.76521 0.51631 0.54705 0.0
C3709 C 0.77798 0.49956 0.54028 0.0
C3710 C 0.71788 0.49252 0.49492 0.0
C3711 C 0.77267 0.53612 0.57007 0.0
C3712 C 0.71999 0.56858 0.53734 0.0
C3713 C 0.70291 0.56186 0.5514 0.0
C3714 C 0.73433 0.55339 0.53134 0.0
C3715 C 0.73146 0.53117 0.53978 0.0
C3716 C 0.71479 0.52484 0.55485 0.0
C3717 C 0.70067 0.54029 0.56046 0.0
C3718 C 0.75197 0.5606 0.5152 0.0
C3719 C 0.71139 0.50137 0.56435 0.0
H3720 H 0.74691 0.46427 0.48829 0.0
H3721 H 0.79305 0.5012 0.55166 0.0
H3722 H 0.70368 0.48886 0.50561 0.0
H3723 H 0.71796 0.50984 0.48869 0.0
H3724 H 0.71539 0.4773 0.47855 0.0
H3725 H 0.78869 0.53558 0.57918 0.0
H3726 H 0.77416 0.55451 0.56566 0.0
H3727 H 0.76027 0.534 0.58325 0.0
H3728 H 0.72147 0.58511 0.5301 0.0
H3729 H 0.68745 0.53521 0.57141 0.0
H3730 H 0.74885 0.5469 0.49759 0.0
H3731 H 0.76822 0.56061 0.52408 0.0
H3732 H 0.75269 0.57904 0.51118 0.0
H3733 H 0.70685 0.48528 0.54874 0.0
H3734 H 0.69831 0.49978 0.5768 0.0
H3735 H 0.72684 0.50043 0.57437 0.0
C3736 C 0.20888 0.1585 0.50249 0.0
C3737 C 0.22778 0.14942 0.50248 0.0
C3738 C 0.18804 0.14297 0.50191 0.0
C3739 C 0.18601 0.11774 0.50173 0.0
C3740 C 0.20494 0.10826 0.50084 0.0
C3741 C 0.2256 0.12419 0.50102 0.0
C3742 C 0.16826 0.15378 0.50246 0.0
C3743 C 0.20351 0.08155 0.50094 0.0
C3744 C 0.13704 0.08915 0.53164 0.0
C3745 C 0.12194 0.07628 0.5113 0.0
C3746 C 0.15822 0.10181 0.52871 0.0
C3747 C 0.1644 0.10203 0.50482 0.0
C3748 C 0.14942 0.08852 0.48418 0.0
C3749 C 0.12841 0.07559 0.48768 0.0
C3750 C 0.1738 0.11548 0.55126 0.0
C3751 C 0.15525 0.08854 0.45841 0.0
H3752 H 0.2104 0.17793 0.50334 0.0
H3753 H 0.24014 0.11705 0.50104 0.0
H3754 H 0.15521 0.14269 0.48777 0.0
H3755 H 0.16145 0.15332 0.52024 0.0
H3756 H 0.1723 0.1731 0.50011 0.0
H3757 H 0.2193 0.07654 0.49785 0.0
H3758 H 0.19884 0.07775 0.51889 0.0
H3759 H 0.1906 0.0695 0.48662 0.0
H3760 H 0.13231 0.08939 0.54996 0.0
H3761 H 0.1168 0.0656 0.47189 0.0
H3762 H 0.17726 0.13554 0.552 0.0
H3763 H 0.18965 0.11014 0.55043 0.0
H3764 H 0.16709 0.11187 0.56847 0.0
H3765 H 0.15704 0.10726 0.45477 0.0
H3766 H 0.14257 0.07544 0.44444 0.0
H3767 H 0.17121 0.08372 0.45624 0.0
C3768 C 0.20527 0.91265 0.76119 0.0
C3769 C 0.21423 0.93851 0.7672 0.0
C3770 C 0.21799 0.89489 0.76197 0.0
C3771 C 0.24105 0.90214 0.76908 0.0
C3772 C 0.25046 0.92818 0.77493 0.0
C3773 C 0.23724 0.94575 0.7739 0.0
C3774 C 0.20642 0.86796 0.75547 0.0
C3775 C 0.27471 0.9376 0.78273 0.0
C3776 C 0.26691 0.85497 0.79642 0.0
C3777 C 0.27615 0.84248 0.77689 0.0
C3778 C 0.25638 0.87433 0.79429 0.0
C3779 C 0.2545 0.88252 0.77189 0.0
C3780 C 0.26424 0.87042 0.75209 0.0
C3781 C 0.27458 0.85072 0.75466 0.0
C3782 C 0.24663 0.88566 0.81625 0.0
C3783 C 0.26342 0.87801 0.72777 0.0
H3784 H 0.18779 0.90594 0.75586 0.0
H3785 H 0.24499 0.96523 0.77878 0.0
H3786 H 0.21424 0.85815 0.74078 0.0
H3787 H 0.20794 0.85964 0.77168 0.0
H3788 H 0.18873 0.86483 0.74917 0.0
H3789 H 0.28017 0.95789 0.78517 0.0
H3790 H 0.27887 0.93246 0.80029 0.0
H3791 H 0.28404 0.92889 0.76892 0.0
H3792 H 0.26758 0.8492 0.81377 0.0
H3793 H 0.28108 0.84153 0.73905 0.0
H3794 H 0.22857 0.88178 0.81204 0.0
H3795 H 0.25302 0.90592 0.82053 0.0
H3796 H 0.25028 0.87852 0.83279 0.0
H3797 H 0.24618 0.87314 0.71927 0.0
H3798 H 0.27334 0.86897 0.71492 0.0
H3799 H 0.26954 0.89823 0.73047 0.0
C3800 C 0.3938 0.98921 0.00807 0.0
C3801 C 0.38845 0.98804 0.03188 0.0
C3802 C 0.41569 0.99424 0.00314 0.0
C3803 C 0.43245 0.99795 0.02246 0.0
C3804 C 0.42723 0.99832 0.04677 0.0
C3805 C 0.40522 0.99347 0.05122 0.0
C3806 C 0.42085 0.99457 0.97717 0.0
C3807 C 0.44482 1.00248 0.06786 0.0
C3808 C 0.48587 0.98055 0.01121 0.0
C3809 C 0.50036 1.00372 0.01508 0.0
C3810 C 0.46336 0.97834 0.01226 0.0
C3811 C 0.45538 0.99985 0.01723 0.0
C3812 C 0.4698 0.0232 0.01971 0.0
C3813 C 0.49217 0.02483 0.01907 0.0
C3814 C 0.44833 0.95309 0.00955 0.0
C3815 C 0.46195 0.04659 0.02453 0.0
H3816 H 0.38086 0.98533 0.9931 0.0
H3817 H 0.40117 0.99268 0.06965 0.0
H3818 H 0.43302 0.01182 0.9767 0.0
H3819 H 0.42829 0.9791 0.97025 0.0
H3820 H 0.40602 0.99304 0.96456 0.0
H3821 H 0.43806 1.00332 0.0858 0.0
H3822 H 0.45337 0.98735 0.06499 0.0
H3823 H 0.45728 0.01987 0.06869 0.0
H3824 H 0.49225 0.96425 0.00832 0.0
H3825 H 0.50325 0.0428 0.02251 0.0
H3826 H 0.43408 0.95053 0.99578 0.0
H3827 H 0.44186 0.95123 0.02728 0.0
H3828 H 0.45684 0.93822 0.00391 0.0
H3829 H 0.44639 0.04447 0.01297 0.0
H3830 H 0.4743 0.06246 0.02099 0.0
H3831 H 0.45879 0.05091 0.04399 0.0
C3832 C 0.8764 0.62682 0.81815 0.0
C3833 C 0.89835 0.62594 0.81732 0.0
C3834 C 0.86799 0.64309 0.8068 0.0
C3835 C 0.8818 0.65813 0.79381 0.0
C3836 C 0.90447 0.65907 0.79509 0.0
C3837 C 0.91258 0.64303 0.80713 0.0
C3838 C 0.84386 0.64231 0.80657 0.0
C3839 C 0.91961 0.67492 0.78141 0.0
C3840 C 0.85356 0.66262 0.73397 0.0
C3841 C 0.84972 0.68606 0.73979 0.0
C3842 C 0.86451 0.65364 0.75135 0.0
C3843 C 0.87177 0.66857 0.77507 0.0
C3844 C 0.86851 0.69258 0.78086 0.0
C3845 C 0.85754 0.7011 0.76302 0.0
C3846 C 0.86761 0.62782 0.74454 0.0
C3847 C 0.8763 0.70913 0.80582 0.0
H3848 H 0.86552 0.61373 0.82632 0.0
H3849 H 0.92959 0.64228 0.80649 0.0
H3850 H 0.84123 0.66115 0.80954 0.0
H3851 H 0.83517 0.63206 0.7884 0.0
H3852 H 0.83638 0.63306 0.82086 0.0
H3853 H 0.93714 0.67626 0.78708 0.0
H3854 H 0.91609 0.66692 0.76144 0.0
H3855 H 0.91685 0.69369 0.78439 0.0
H3856 H 0.84729 0.65097 0.71608 0.0
H3857 H 0.85479 0.71941 0.76734 0.0
H3858 H 0.85832 0.61618 0.75603 0.0
H3859 H 0.88516 0.62796 0.74809 0.0
H3860 H 0.86192 0.61915 0.72496 0.0
H3861 H 0.87175 0.69905 0.82057 0.0
H3862 H 0.86945 0.72561 0.80851 0.0
H3863 H 0.89444 0.71542 0.80787 0.0
C3864 C 0.87787 0.66807 0.01994 0.0
C3865 C 0.85525 0.65724 0.01613 0.0
C3866 C 0.89311 0.65403 0.02296 0.0
C3867 C 0.88556 0.62848 0.02168 0.0
C3868 C 0.86277 0.61741 0.01759 0.0
C3869 C 0.84789 0.63196 0.0151 0.0
C3870 C 0.91725 0.66655 0.02778 0.0
C3871 C 0.85409 0.59016 0.01579 0.0
C3872 C 0.92424 0.58642 0.00824 0.0
C3873 C 0.92875 0.5816 0.03143 0.0
C3874 C 0.91047 0.60199 0.00481 0.0
C3875 C 0.90139 0.61331 0.02517 0.0
C3876 C 0.90669 0.60926 0.04879 0.0
C3877 C 0.92015 0.59328 0.05159 0.0
C3878 C 0.90499 0.6056 0.97929 0.0
C3879 C 0.89774 0.62139 0.07104 0.0
H3880 H 0.88367 0.68763 0.02088 0.0
H3881 H 0.83046 0.62344 0.01198 0.0
H3882 H 0.92414 0.66384 0.04553 0.0
H3883 H 0.9262 0.65818 0.01333 0.0
H3884 H 0.92046 0.68659 0.02833 0.0
H3885 H 0.83595 0.58427 0.01174 0.0
H3886 H 0.86146 0.57966 1.00116 0.0
H3887 H 0.85882 0.58521 0.03326 0.0
H3888 H 0.93085 0.5773 0.99264 0.0
H3889 H 0.92389 0.58977 0.06958 0.0
H3890 H 0.90884 0.62547 0.97905 0.0
H3891 H 0.88715 0.5982 0.97361 0.0
H3892 H 0.91409 0.59631 0.9656 0.0
H3893 H 0.90143 0.64156 0.07247 0.0
H3894 H 0.90465 0.61767 0.08832 0.0
H3895 H 0.87965 0.61459 0.06919 0.0
C3896 C 0.21787 0.11293 0.80032 0.0
C3897 C 0.21939 0.09144 0.78387 0.0
C3898 C 0.23036 0.1367 0.79935 0.0
C3899 C 0.24501 0.13986 0.78127 0.0
C3900 C 0.24687 0.11827 0.76468 0.0
C3901 C 0.23425 0.09453 0.76622 0.0
C3902 C 0.22758 0.15862 0.81765 0.0
C3903 C 0.26194 0.12031 0.74489 0.0
C3904 C 0.25914 0.20441 0.76516 0.0
C3905 C 0.27996 0.21586 0.77831 0.0
C3906 C 0.24807 0.17985 0.76545 0.0
C3907 C 0.25762 0.16575 0.77944 0.0
C3908 C 0.27865 0.17715 0.79272 0.0
C3909 C 0.28943 0.20176 0.792 0.0
C3910 C 0.22587 0.16903 0.75083 0.0
C3911 C 0.28971 0.16347 0.80816 0.0
H3912 H 0.20664 0.11127 0.81416 0.0
H3913 H 0.23568 0.07843 0.7532 0.0
H3914 H 0.24372 0.16924 0.82758 0.0
H3915 H 0.22093 0.17106 0.80792 0.0
H3916 H 0.21636 0.15324 0.83128 0.0
H3917 H 0.26232 0.10205 0.73392 0.0
H3918 H 0.25651 0.13126 0.73238 0.0
H3919 H 0.27884 0.13017 0.75313 0.0
H3920 H 0.25132 0.21467 0.75447 0.0
H3921 H 0.30522 0.21011 0.80262 0.0
H3922 H 0.21325 0.16482 0.76338 0.0
H3923 H 0.22588 0.15147 0.73826 0.0
H3924 H 0.22105 0.18164 0.73983 0.0
H3925 H 0.27981 0.15946 0.82328 0.0
H3926 H 0.30651 0.17407 0.81622 0.0
H3927 H 0.29073 0.14558 0.79696 0.0
C3928 C 0.36186 0.96275 0.25477 0.0
C3929 C 0.36645 0.97736 0.27856 0.0
C3930 C 0.35259 0.93741 0.25097 0.0
C3931 C 0.34776 0.92671 0.27143 0.0
C3932 C 0.3511 0.94169 0.29521 0.0
C3933 C 0.36042 0.96684 0.29852 0.0
C3934 C 0.34915 0.92189 0.22529 0.0
C3935 C 0.34587 0.93097 0.31729 0.0
C3936 C 0.31426 0.86081 0.25947 0.0
C3937 C 0.33078 0.84831 0.26092 0.0
C3938 C 0.31939 0.88651 0.26362 0.0
C3939 C 0.34165 0.89967 0.26836 0.0
C3940 C 0.35839 0.88696 0.26985 0.0
C3941 C 0.3527 0.86133 0.26597 0.0
C3942 C 0.30109 0.89946 0.2624 0.0
C3943 C 0.38234 0.90035 0.27486 0.0
H3944 H 0.36644 0.97085 0.23925 0.0
H3945 H 0.36368 0.9781 0.31693 0.0
H3946 H 0.36068 0.90973 0.22362 0.0
H3947 H 0.3323 0.90987 0.22138 0.0
H3948 H 0.35181 0.93324 0.21117 0.0
H3949 H 0.3467 0.9453 0.33408 0.0
H3950 H 0.32921 0.91862 0.31365 0.0
H3951 H 0.35763 0.91986 0.32069 0.0
H3952 H 0.2974 0.85056 0.25463 0.0
H3953 H 0.36542 0.85134 0.26627 0.0
H3954 H 0.30274 0.90962 0.24731 0.0
H3955 H 0.30212 0.91314 0.27969 0.0
H3956 H 0.28463 0.88646 0.25933 0.0
H3957 H 0.38693 0.9107 0.26031 0.0
H3958 H 0.39324 0.88765 0.27561 0.0
H3959 H 0.38534 0.91389 0.29256 0.0
C3960 C 0.61433 0.40398 0.58095 0.0
C3961 C 0.59884 0.38321 0.58444 0.0
C3962 C 0.60804 0.42317 0.57183 0.0
C3963 C 0.58553 0.42211 0.56602 0.0
C3964 C 0.56977 0.40093 0.5689 0.0
C3965 C 0.57656 0.38178 0.57785 0.0
C3966 C 0.6256 0.44512 0.56924 0.0
C3967 C 0.54563 0.39855 0.56273 0.0
C3968 C 0.57181 0.48508 0.5732 0.0
C3969 C 0.57082 0.48917 0.54918 0.0
C3970 C 0.57574 0.46321 0.57861 0.0
C3971 C 0.57874 0.44432 0.55958 0.0
C3972 C 0.57689 0.44786 0.53503 0.0
C3973 C 0.57326 0.4703 0.53015 0.0
C3974 C 0.57743 0.46073 0.60503 0.0
C3975 C 0.57925 0.42816 0.51396 0.0
H3976 H 0.6316 0.40551 0.58572 0.0
H3977 H 0.56433 0.36597 0.58028 0.0
H3978 H 0.62355 0.44868 0.55051 0.0
H3979 H 0.62402 0.46171 0.58234 0.0
H3980 H 0.64239 0.44255 0.57281 0.0
H3981 H 0.53529 0.38258 0.56854 0.0
H3982 H 0.54092 0.41548 0.57152 0.0
H3983 H 0.54204 0.39618 0.54262 0.0
H3984 H 0.57002 0.49947 0.58811 0.0
H3985 H 0.57284 0.47325 0.51156 0.0
H3986 H 0.59427 0.45958 0.61084 0.0
H3987 H 0.56597 0.44353 0.60704 0.0
H3988 H 0.57368 0.47647 0.61761 0.0
H3989 H 0.59622 0.4257 0.51545 0.0
H3990 H 0.57561 0.43268 0.49591 0.0
H3991 H 0.56802 0.41036 0.5147 0.0
C3992 C 0.4296 0.74851 0.39293 0.0
C3993 C 0.45137 0.75751 0.38839 0.0
C3994 C 0.41153 0.75139 0.37845 0.0
C3995 C 0.415 0.76375 0.3588 0.0
C3996 C 0.43691 0.77277 0.35397 0.0
C3997 C 0.45473 0.7695 0.36869 0.0
C3998 C 0.38862 0.74132 0.38437 0.0
C3999 C 0.44153 0.78619 0.33339 0.0
C4000 C 0.36715 0.75313 0.30851 0.0
C4001 C 0.35884 0.77399 0.31526 0.0
C4002 C 0.38538 0.74967 0.32225 0.0
C4003 C 0.39573 0.76741 0.34359 0.0
C4004 C 0.3871 0.78827 0.35082 0.0
C4005 C 0.36873 0.79114 0.33681 0.0
C4006 C 0.39349 0.72686 0.31393 0.0
C4007 C 0.39739 0.80775 0.37334 0.0
H4008 H 0.42659 0.73922 0.408 0.0
H4009 H 0.47135 0.7767 0.36495 0.0
H4010 H 0.38038 0.75651 0.38934 0.0
H4011 H 0.37873 0.7284 0.36801 0.0
H4012 H 0.38853 0.73156 0.39976 0.0
H4013 H 0.45935 0.79189 0.33171 0.0
H4014 H 0.43313 0.77429 0.31573 0.0
H4015 H 0.43491 0.8028 0.33649 0.0
H4016 H 0.35909 0.73914 0.29272 0.0
H4017 H 0.36237 0.80714 0.3426 0.0
H4018 H 0.39234 0.71596 0.32844 0.0
H4019 H 0.41101 0.73204 0.31087 0.0
H4020 H 0.38399 0.71504 0.29674 0.0
H4021 H 0.39633 0.79959 0.38984 0.0
H4022 H 0.38932 0.8233 0.37606 0.0
H4023 H 0.41504 0.81504 0.37188 0.0
C4024 C 0.05909 0.71787 0.06909 0.0
C4025 C 0.07897 0.73588 0.07591 0.0
C4026 C 0.05857 0.69287 0.06061 0.0
C4027 C 0.07843 0.68523 0.05895 0.0
C4028 C 0.0986 0.7034 0.0648 0.0
C4029 C 0.09864 0.72847 0.07304 0.0
C4030 C 0.03664 0.67441 0.05454 0.0
C4031 C 0.12015 0.69627 0.06298 0.0
C4032 C 0.07242 0.61997 0.069 0.0
C4033 C 0.06914 0.60584 0.04501 0.0
C4034 C 0.07674 0.64578 0.0737 0.0
C4035 C 0.07775 0.65813 0.05393 0.0
C4036 C 0.07561 0.64401 0.02962 0.0
C4037 C 0.07109 0.61803 0.02542 0.0
C4038 C 0.07904 0.65974 0.09993 0.0
C4039 C 0.07698 0.65619 0.00794 0.0
H4040 H 0.04375 0.72324 0.07097 0.0
H4041 H 0.11411 0.7421 0.07816 0.0
H4042 H 0.03568 0.66249 0.03614 0.0
H4043 H 0.03475 0.66234 0.06803 0.0
H4044 H 0.02271 0.68336 0.05481 0.0
H4045 H 0.13443 0.71227 0.06931 0.0
H4046 H 0.12115 0.68226 0.07401 0.0
H4047 H 0.12128 0.68788 0.04364 0.0
H4048 H 0.07086 0.61067 0.08422 0.0
H4049 H 0.06827 0.60727 0.00681 0.0
H4050 H 0.06489 0.6681 0.10287 0.0
H4051 H 0.09412 0.67492 0.10381 0.0
H4052 H 0.07971 0.64775 0.11328 0.0
H4053 H 0.06171 0.66225 0.00472 0.0
H4054 H 0.07903 0.6435 0.99098 0.0
H4055 H 0.09087 0.67273 0.01154 0.0
C4056 C 0.10713 0.28813 0.90435 0.0
C4057 C 0.08525 0.27788 0.89414 0.0
C4058 C 0.12451 0.28961 0.88965 0.0
C4059 C 0.12004 0.28081 0.86395 0.0
C4060 C 0.09804 0.26999 0.85354 0.0
C4061 C 0.08094 0.26857 0.86874 0.0
C4062 C 0.14766 0.30115 0.9016 0.0
C4063 C 0.09249 0.26048 0.82623 0.0
C4064 C 0.16036 0.30913 0.82319 0.0
C4065 C 0.17191 0.29098 0.81658 0.0
C4066 C 0.14367 0.30611 0.8387 0.0
C4067 C 0.1382 0.28431 0.84789 0.0
C4068 C 0.15014 0.26612 0.84176 0.0
C4069 C 0.16693 0.26972 0.82629 0.0
C4070 C 0.13168 0.32617 0.84497 0.0
C4071 C 0.14488 0.24264 0.85116 0.0
H4072 H 0.11075 0.29523 0.92396 0.0
H4073 H 0.06414 0.26061 0.86063 0.0
H4074 H 0.15838 0.2885 0.89633 0.0
H4075 H 0.15434 0.31821 0.89508 0.0
H4076 H 0.14857 0.30578 0.92193 0.0
H4077 H 0.07479 0.25149 0.82109 0.0
H4078 H 0.09694 0.2759 0.81663 0.0
H4079 H 0.10218 0.24707 0.81955 0.0
H4080 H 0.1643 0.32575 0.81603 0.0
H4081 H 0.17566 0.25554 0.82114 0.0
H4082 H 0.13313 0.3327 0.86515 0.0
H4083 H 0.11397 0.31884 0.83849 0.0
H4084 H 0.1381 0.34214 0.83662 0.0
H4085 H 0.14611 0.2469 0.87148 0.0
H4086 H 0.156 0.23059 0.84529 0.0
H4087 H 0.12774 0.23234 0.84436 0.0
C4088 C 0.62135 0.76337 0.9398 0.0
C4089 C 0.60608 0.76939 0.92422 0.0
C4090 C 0.61443 0.74869 0.95662 0.0
C4091 C 0.59173 0.74032 0.95816 0.0
C4092 C 0.57623 0.74646 0.94258 0.0
C4093 C 0.5836 0.76073 0.92559 0.0
C4094 C 0.63138 0.74196 0.97257 0.0
C4095 C 0.55189 0.7382 0.94404 0.0
C4096 C 0.57169 0.684 0.98435 0.0
C4097 C 0.57017 0.69439 0.00892 0.0
C4098 C 0.57909 0.69875 0.96781 0.0
C4099 C 0.58414 0.72458 0.97566 0.0
C4100 C 0.58189 0.73529 1.00008 0.0
C4101 C 0.57526 0.72006 0.01655 0.0
C4102 C 0.58168 0.68665 0.942 0.0
C4103 C 0.58653 0.76282 0.00884 0.0
H4104 H 0.63873 0.77003 0.93876 0.0
H4105 H 0.57173 0.76559 0.91377 0.0
H4106 H 0.6299 0.74874 0.9922 0.0
H4107 H 0.6285 0.72166 0.96945 0.0
H4108 H 0.64838 0.74972 0.96888 0.0
H4109 H 0.54204 0.74528 0.93119 0.0
H4110 H 0.54662 0.71783 0.93973 0.0
H4111 H 0.54815 0.74456 0.96297 0.0
H4112 H 0.56709 0.66423 0.97788 0.0
H4113 H 0.57436 0.72832 0.03547 0.0
H4114 H 0.59871 0.69342 0.93784 0.0
H4115 H 0.57061 0.69158 0.92862 0.0
H4116 H 0.57798 0.6663 0.93916 0.0
H4117 H 0.60401 0.7713 0.00773 0.0
H4118 H 0.58289 0.76817 0.02803 0.0
H4119 H 0.57655 0.77057 0.9968 0.0
C4120 C 0.09562 0.77357 0.68682 0.0
C4121 C 0.07476 0.76978 0.69495 0.0
C4122 C 0.11287 0.76725 0.6991 0.0
C4123 C 0.10914 0.75692 0.72 0.0
C4124 C 0.08835 0.75384 0.72881 0.0
C4125 C 0.07138 0.76034 0.71618 0.0
C4126 C 0.1349 0.77086 0.68923 0.0
C4127 C 0.08385 0.74296 0.7511 0.0
C4128 C 0.14693 0.71712 0.7339 0.0
C4129 C 0.16273 0.73387 0.75147 0.0
C4130 C 0.12903 0.72423 0.72389 0.0
C4131 C 0.12684 0.74853 0.732 0.0
C4132 C 0.14225 0.76516 0.75056 0.0
C4133 C 0.16016 0.75767 0.75995 0.0
C4134 C 0.11302 0.7061 0.70389 0.0
C4135 C 0.14025 0.7911 0.75987 0.0
H4136 H 0.09835 0.7809 0.67046 0.0
H4137 H 0.05529 0.75732 0.72257 0.0
H4138 H 0.14795 0.7822 0.70378 0.0
H4139 H 0.13886 0.7528 0.68345 0.0
H4140 H 0.13531 0.77991 0.6733 0.0
H4141 H 0.0672 0.74317 0.75645 0.0
H4142 H 0.08537 0.72367 0.74733 0.0
H4143 H 0.09614 0.75326 0.76686 0.0
H4144 H 0.14913 0.69882 0.72719 0.0
H4145 H 0.17243 0.77055 0.77362 0.0
H4146 H 0.11385 0.71287 0.68657 0.0
H4147 H 0.09601 0.70437 0.70874 0.0
H4148 H 0.11645 0.68758 0.70054 0.0
H4149 H 0.14253 0.8015 0.74499 0.0
H4150 H 0.15257 0.80103 0.77576 0.0
H4151 H 0.12362 0.79093 0.7654 0.0
C4152 C 0.11115 0.38722 0.43947 0.0
C4153 C 0.12515 0.39128 0.42136 0.0
C4154 C 0.10417 0.40655 0.45333 0.0
C4155 C 0.11141 0.43046 0.44893 0.0
C4156 C 0.12654 0.43501 0.43173 0.0
C4157 C 0.13332 0.41527 0.4181 0.0
C4158 C 0.08815 0.40113 0.47175 0.0
C4159 C 0.13465 0.46045 0.42684 0.0
C4160 C 0.07247 0.47131 0.46386 0.0
C4161 C 0.08171 0.48458 0.48731 0.0
C4162 C 0.08236 0.454 0.4508 0.0
C4163 C 0.10203 0.45029 0.46143 0.0
C4164 C 0.11178 0.46424 0.48475 0.0
C4165 C 0.10141 0.48111 0.49748 0.0
C4166 C 0.07144 0.43917 0.42599 0.0
C4167 C 0.13285 0.46095 0.49654 0.0
H4168 H 0.10495 0.36871 0.44217 0.0
H4169 H 0.14409 0.41847 0.40407 0.0
H4170 H 0.09427 0.41353 0.48988 0.0
H4171 H 0.07222 0.40457 0.4657 0.0
H4172 H 0.08524 0.38181 0.47403 0.0
H4173 H 0.14797 0.46134 0.41469 0.0
H4174 H 0.12089 0.46604 0.41797 0.0
H4175 H 0.14074 0.47403 0.4443 0.0
H4176 H 0.0573 0.47404 0.45595 0.0
H4177 H 0.10885 0.49166 0.51545 0.0
H4178 H 0.0664 0.41943 0.42669 0.0
H4179 H 0.08315 0.4409 0.41205 0.0
H4180 H 0.05671 0.44506 0.41991 0.0
H4181 H 0.1301 0.44232 0.50063 0.0
H4182 H 0.13915 0.47471 0.5139 0.0
H4183 H 0.14564 0.46249 0.48378 0.0
C4184 C 0.43148 0.24277 0.1971 0.0
C4185 C 0.45277 0.25767 0.20347 0.0
C4186 C 0.41411 0.24872 0.20944 0.0
C4187 C 0.41838 0.26966 0.2289 0.0
C4188 C 0.44012 0.28368 0.23642 0.0
C4189 C 0.45705 0.27775 0.22335 0.0
C4190 C 0.39106 0.23342 0.20074 0.0
C4191 C 0.44544 0.30556 0.25754 0.0
C4192 C 0.37081 0.29935 0.23518 0.0
C4193 C 0.36023 0.28845 0.2529 0.0
C4194 C 0.39059 0.29456 0.22827 0.0
C4195 C 0.3998 0.27827 0.23934 0.0
C4196 C 0.38972 0.26825 0.25828 0.0
C4197 C 0.36968 0.27305 0.26446 0.0
C4198 C 0.40071 0.30551 0.20788 0.0
C4199 C 0.39931 0.25137 0.27102 0.0
H4200 H 0.42824 0.2272 0.18172 0.0
H4201 H 0.47363 0.28903 0.22852 0.0
H4202 H 0.38317 0.22691 0.21623 0.0
H4203 H 0.38109 0.24485 0.19365 0.0
H4204 H 0.39067 0.21719 0.18599 0.0
H4205 H 0.46325 0.31153 0.26399 0.0
H4206 H 0.44034 0.32108 0.25163 0.0
H4207 H 0.43634 0.30118 0.27307 0.0
H4208 H 0.36308 0.31074 0.22594 0.0
H4209 H 0.36097 0.26397 0.27759 0.0
H4210 H 0.40018 0.29062 0.19171 0.0
H4211 H 0.41817 0.31507 0.21371 0.0
H4212 H 0.39206 0.31881 0.20218 0.0
H4213 H 0.39482 0.23253 0.25942 0.0
H4214 H 0.39293 0.25048 0.28899 0.0
H4215 H 0.41747 0.25746 0.27403 0.0
C4216 C 0.6614 0.52132 0.37075 0.0
C4217 C 0.65215 0.51732 0.34608 0.0
C4218 C 0.64886 0.52291 0.39115 0.0
C4219 C 0.62588 0.52082 0.38781 0.0
C4220 C 0.61624 0.5167 0.36299 0.0
C4221 C 0.62924 0.51487 0.34269 0.0
C4222 C 0.66047 0.5269 0.41658 0.0
C4223 C 0.59205 0.51463 0.35783 0.0
C4224 C 0.59074 0.50549 0.44119 0.0
C4225 C 0.59031 0.52878 0.45504 0.0
C4226 C 0.60191 0.50262 0.41961 0.0
C4227 C 0.61247 0.5234 0.41032 0.0
C4228 C 0.61132 0.54689 0.42379 0.0
C4229 C 0.60084 0.54927 0.44583 0.0
C4230 C 0.60292 0.47715 0.40711 0.0
C4231 C 0.62129 0.56982 0.41492 0.0
H4232 H 0.67887 0.52327 0.37436 0.0
H4233 H 0.62144 0.51192 0.32418 0.0
H4234 H 0.65924 0.54473 0.4277 0.0
H4235 H 0.65247 0.51229 0.42591 0.0
H4236 H 0.67809 0.52692 0.41638 0.0
H4237 H 0.58677 0.51172 0.33793 0.0
H4238 H 0.58252 0.49912 0.36497 0.0
H4239 H 0.58796 0.53161 0.36754 0.0
H4240 H 0.58285 0.48932 0.44767 0.0
H4241 H 0.60061 0.56745 0.45573 0.0
H4242 H 0.62029 0.47605 0.40719 0.0
H4243 H 0.59585 0.47312 0.38767 0.0
H4244 H 0.59397 0.46278 0.41617 0.0
H4245 H 0.63939 0.5729 0.41652 0.0
H4246 H 0.61712 0.58638 0.42554 0.0
H4247 H 0.61553 0.56763 0.39525 0.0
C4248 C 0.33572 0.91538 0.09469 0.0
C4249 C 0.31704 0.90424 0.07787 0.0
C4250 C 0.34188 0.90367 0.11279 0.0
C4251 C 0.32911 0.88022 0.11392 0.0
C4252 C 0.30947 0.86957 0.09805 0.0
C4253 C 0.3036 0.8818 0.08016 0.0
C4254 C 0.3628 0.91568 0.12966 0.0
C4255 C 0.29547 0.84459 0.09891 0.0
C4256 C 0.36211 0.83909 0.1349 0.0
C4257 C 0.3575 0.8404 0.15917 0.0
C4258 C 0.35237 0.85143 0.11977 0.0
C4259 C 0.33792 0.86562 0.12937 0.0
C4260 C 0.33295 0.86674 0.15384 0.0
C4261 C 0.3428 0.85395 0.16851 0.0
C4262 C 0.35781 0.84957 0.09363 0.0
C4263 C 0.31787 0.882 0.16472 0.0
H4264 H 0.34599 0.93293 0.09321 0.0
H4265 H 0.28908 0.87322 0.06727 0.0
H4266 H 0.35997 0.91528 0.14899 0.0
H4267 H 0.37541 0.90531 0.12494 0.0
H4268 H 0.36944 0.93505 0.12827 0.0
H4269 H 0.27952 0.84018 0.08732 0.0
H4270 H 0.30434 0.8303 0.09233 0.0
H4271 H 0.29229 0.84358 0.11803 0.0
H4272 H 0.37326 0.82824 0.12773 0.0
H4273 H 0.33935 0.85489 0.18739 0.0
H4274 H 0.3664 0.86795 0.09095 0.0
H4275 H 0.34253 0.84327 0.08074 0.0
H4276 H 0.36842 0.83668 0.08871 0.0
H4277 H 0.32636 0.90177 0.16795 0.0
H4278 H 0.31294 0.87773 0.18244 0.0
H4279 H 0.30287 0.87905 0.15191 0.0
C4280 C 0.97321 0.53484 0.84672 0.0
C4281 C 0.95422 0.54103 0.85488 0.0
C4282 C 0.99144 0.53701 0.86338 0.0
C4283 C 0.99025 0.54488 0.8887 0.0
C4284 C 0.97127 0.55171 0.89695 0.0
C4285 C 0.95353 0.55001 0.87983 0.0
C4286 C 0.01162 0.53009 0.85399 0.0
C4287 C 0.96928 0.5597 0.92393 0.0
C4288 C 0.0187 0.52086 0.93611 0.0
C4289 C 0.03399 0.5422 0.94851 0.0
C4290 C 0.00527 0.52106 0.91543 0.0
C4291 C 0.00751 0.54313 0.90688 0.0
C4292 C 0.02447 0.56406 0.91787 0.0
C4293 C 0.03765 0.56335 0.93877 0.0
C4294 C 0.98747 0.49828 0.90413 0.0
C4295 C 0.02758 0.58769 0.9088 0.0
H4296 H 0.97386 0.52845 0.82729 0.0
H4297 H 0.93884 0.55493 0.88601 0.0
H4298 H 0.02665 0.54407 0.86297 0.0
H4299 H 0.01279 0.51234 0.85854 0.0
H4300 H 0.01124 0.52816 0.8338 0.0
H4301 H 0.95389 0.56563 0.92716 0.0
H4302 H 0.96957 0.54425 0.93324 0.0
H4303 H 0.98341 0.5751 0.93265 0.0
H4304 H 0.0165 0.50427 0.94329 0.0
H4305 H 0.04971 0.57975 0.94836 0.0
H4306 H 0.98755 0.49371 0.88396 0.0
H4307 H 0.97122 0.50172 0.90781 0.0
H4308 H 0.98931 0.48209 0.91162 0.0
H4309 H 0.02617 0.58399 0.88847 0.0
H4310 H 0.04374 0.60045 0.9162 0.0
H4311 H 0.01454 0.59699 0.9147 0.0
C4312 C 0.28943 0.23259 0.58672 0.0
C4313 C 0.31031 0.23269 0.57923 0.0
C4314 C 0.28684 0.24158 0.61133 0.0
C4315 C 0.30555 0.25074 0.62889 0.0
C4316 C 0.32671 0.25224 0.62113 0.0
C4317 C 0.32883 0.24331 0.59642 0.0
C4318 C 0.26407 0.24049 0.61872 0.0
C4319 C 0.34711 0.2617 0.63925 0.0
C4320 C 0.30631 0.28309 0.69536 0.0
C4321 C 0.30573 0.26354 0.70729 0.0
C4322 C 0.30459 0.27903 0.66957 0.0
C4323 C 0.30313 0.25509 0.65564 0.0
C4324 C 0.30165 0.23524 0.66772 0.0
C4325 C 0.30286 0.23972 0.69332 0.0
C4326 C 0.30536 0.30053 0.65739 0.0
C4327 C 0.30009 0.2094 0.65374 0.0
H4328 H 0.27501 0.22477 0.57351 0.0
H4329 H 0.34504 0.24365 0.59082 0.0
H4330 H 0.26091 0.22938 0.63295 0.0
H4331 H 0.26271 0.25931 0.62683 0.0
H4332 H 0.25117 0.23247 0.60295 0.0
H4333 H 0.36235 0.26365 0.63006 0.0
H4334 H 0.34705 0.2798 0.65071 0.0
H4335 H 0.34743 0.24881 0.65174 0.0
H4336 H 0.30883 0.30159 0.70617 0.0
H4337 H 0.30244 0.22461 0.70259 0.0
H4338 H 0.29324 0.29532 0.64084 0.0
H4339 H 0.32186 0.30629 0.65143 0.0
H4340 H 0.30204 0.3165 0.67003 0.0
H4341 H 0.28604 0.2036 0.63918 0.0
H4342 H 0.29806 0.19588 0.66582 0.0
H4343 H 0.31519 0.20885 0.64465 0.0
C4344 C 0.64591 0.53058 0.19059 0.0
C4345 C 0.63708 0.50848 0.19818 0.0
C4346 C 0.63682 0.53641 0.16881 0.0
C4347 C 0.61863 0.51964 0.15315 0.0
C4348 C 0.61003 0.49718 0.16057 0.0
C4349 C 0.61892 0.49221 0.18271 0.0
C4350 C 0.64664 0.56089 0.16272 0.0
C4351 C 0.59145 0.4779 0.14477 0.0
C4352 C 0.58151 0.53578 0.10187 0.0
C4353 C 0.59211 0.5309 0.08057 0.0
C4354 C 0.59037 0.53356 0.12552 0.0
C4355 C 0.60962 0.52446 0.12835 0.0
C4356 C 0.61973 0.51863 0.10669 0.0
C4357 C 0.61139 0.5225 0.08385 0.0
C4358 C 0.5793 0.54151 0.14771 0.0
C4359 C 0.63923 0.50746 0.10734 0.0
H4360 H 0.65961 0.54376 0.20204 0.0
H4361 H 0.61159 0.47506 0.18781 0.0
H4362 H 0.65582 0.55814 0.14656 0.0
H4363 H 0.6335 0.5698 0.15788 0.0
H4364 H 0.65807 0.57351 0.17819 0.0
H4365 H 0.58692 0.46103 0.1523 0.0
H4366 H 0.57677 0.48535 0.14306 0.0
H4367 H 0.59612 0.47279 0.12601 0.0
H4368 H 0.56639 0.5416 0.10021 0.0
H4369 H 0.61999 0.51816 0.06802 0.0
H4370 H 0.59105 0.55666 0.16081 0.0
H4371 H 0.57442 0.52617 0.15729 0.0
H4372 H 0.56455 0.54798 0.14291 0.0
H4373 H 0.65339 0.52082 0.11894 0.0
H4374 H 0.6442 0.50191 0.08879 0.0
H4375 H 0.63539 0.49102 0.11562 0.0
C4376 C 0.34333 0.87212 0.96448 0.0
C4377 C 0.32786 0.88635 0.96758 0.0
C4378 C 0.34347 0.85644 0.94195 0.0
C4379 C 0.32779 0.85509 0.92219 0.0
C4380 C 0.3117 0.86879 0.92544 0.0
C4381 C 0.3119 0.88423 0.94815 0.0
C4382 C 0.36079 0.84198 0.93904 0.0
C4383 C 0.29473 0.86778 0.90466 0.0
C4384 C 0.33781 0.83974 0.85598 0.0
C4385 C 0.32414 0.816 0.84832 0.0
C4386 C 0.34041 0.85208 0.88051 0.0
C4387 C 0.32877 0.8405 0.89761 0.0
C4388 C 0.31622 0.81594 0.89038 0.0
C4389 C 0.31435 0.80382 0.86581 0.0
C4390 C 0.35447 0.87806 0.88774 0.0
C4391 C 0.3035 0.80302 0.9081 0.0
H4392 H 0.35568 0.87363 0.97948 0.0
H4393 H 0.2999 0.89518 0.95043 0.0
H4394 H 0.35308 0.82223 0.9315 0.0
H4395 H 0.37188 0.84855 0.92578 0.0
H4396 H 0.3708 0.84374 0.95667 0.0
H4397 H 0.28269 0.87861 0.91058 0.0
H4398 H 0.30296 0.8751 0.88971 0.0
H4399 H 0.28572 0.84846 0.8969 0.0
H4400 H 0.34591 0.84911 0.84268 0.0
H4401 H 0.30445 0.78517 0.86021 0.0
H4402 H 0.36549 0.88045 0.90477 0.0
H4403 H 0.34381 0.89106 0.89152 0.0
H4404 H 0.36462 0.88314 0.87311 0.0
H4405 H 0.31352 0.80639 0.92601 0.0
H4406 H 0.29787 0.78287 0.90085 0.0
H4407 H 0.28885 0.81039 0.91144 0.0
C4408 C 0.94644 0.54727 0.74216 0.0
C4409 C 0.95546 0.55602 0.76667 0.0
C4410 C 0.95936 0.53982 0.72406 0.0
C4411 C 0.9816 0.54075 0.73087 0.0
C4412 C 0.99072 0.54936 0.75562 0.0
C4413 C 0.97756 0.55714 0.77323 0.0
C4414 C 0.94925 0.53103 0.69771 0.0
C4415 C 0.0143 0.55017 0.76354 0.0
C4416 C 0.01082 0.50195 0.68837 0.0
C4417 C 0.02278 0.51951 0.67682 0.0
C4418 C 0.99714 0.50856 0.70596 0.0
C4419 C 0.99558 0.53328 0.71203 0.0
C4420 C 0.00775 0.55108 0.7005 0.0
C4421 C 0.02126 0.54397 0.68304 0.0
C4422 C 0.98432 0.48913 0.71794 0.0
C4423 C 0.00646 0.57762 0.70657 0.0
H4424 H 0.92932 0.54633 0.73714 0.0
H4425 H 0.98446 0.56349 0.79227 0.0
H4426 H 0.95841 0.54261 0.68609 0.0
H4427 H 0.95043 0.5119 0.69073 0.0
H4428 H 0.93174 0.53161 0.6955 0.0
H4429 H 0.01865 0.55673 0.78366 0.0
H4430 H 0.01732 0.53159 0.75816 0.0
H4431 H 0.02543 0.56251 0.75412 0.0
H4432 H 0.0118 0.48297 0.68325 0.0
H4433 H 0.03066 0.55756 0.67417 0.0
H4434 H 0.9665 0.48774 0.71442 0.0
H4435 H 0.98872 0.49437 0.73811 0.0
H4436 H 0.9874 0.47075 0.71114 0.0
H4437 H 0.98921 0.57878 0.70334 0.0
H4438 H 0.01662 0.58902 0.69548 0.0
H4439 H 0.01207 0.58557 0.72627 0.0
C4440 C 0.27804 0.22218 0.43034 0.0
C4441 C 0.29465 0.21677 0.44469 0.0
C4442 C 0.28259 0.23271 0.40996 0.0
C4443 C 0.30429 0.23787 0.40357 0.0
C4444 C 0.32122 0.2327 0.41806 0.0
C4445 C 0.31622 0.22226 0.4385 0.0
C4446 C 0.2641 0.23827 0.39521 0.0
C4447 C 0.34456 0.23798 0.41179 0.0
C4448 C 0.30856 0.24356 0.33725 0.0
C4449 C 0.31366 0.26911 0.33951 0.0
C4450 C 0.30647 0.23315 0.35807 0.0
C4451 C 0.30905 0.24865 0.38165 0.0
C4452 C 0.31465 0.27448 0.38405 0.0
C4453 C 0.31707 0.28439 0.36298 0.0
C4454 C 0.30091 0.20553 0.35477 0.0
C4455 C 0.31718 0.29167 0.40877 0.0
H4456 H 0.26134 0.21814 0.43499 0.0
H4457 H 0.32917 0.21816 0.44946 0.0
H4458 H 0.26797 0.25808 0.39467 0.0
H4459 H 0.2622 0.22779 0.37601 0.0
H4460 H 0.24821 0.23356 0.40287 0.0
H4461 H 0.35586 0.23296 0.42491 0.0
H4462 H 0.34528 0.2276 0.39306 0.0
H4463 H 0.3505 0.25779 0.41177 0.0
H4464 H 0.30604 0.23167 0.31918 0.0
H4465 H 0.32083 0.30417 0.3649 0.0
H4466 H 0.28425 0.19906 0.36005 0.0
H4467 H 0.31255 0.19992 0.36694 0.0
H4468 H 0.30137 0.19616 0.33553 0.0
H4469 H 0.3012 0.28916 0.41646 0.0
H4470 H 0.32291 0.31127 0.40768 0.0
H4471 H 0.32898 0.28735 0.42182 0.0
C4472 C 0.35408 0.58922 0.54432 0.0
C4473 C 0.33804 0.5909 0.52664 0.0
C4474 C 0.36848 0.57412 0.53823 0.0
C4475 C 0.36668 0.56042 0.51393 0.0
C4476 C 0.35022 0.56162 0.49615 0.0
C4477 C 0.3361 0.57687 0.50272 0.0
C4478 C 0.38598 0.57333 0.55759 0.0
C4479 C 0.34786 0.54726 0.47005 0.0
C4480 C 0.41758 0.54348 0.4914 0.0
C4481 C 0.41418 0.51901 0.49401 0.0
C4482 C 0.40224 0.55715 0.49785 0.0
C4483 C 0.38281 0.54592 0.5067 0.0
C4484 C 0.37886 0.52099 0.50861 0.0
C4485 C 0.39468 0.50781 0.50231 0.0
C4486 C 0.40698 0.58372 0.49553 0.0
C4487 C 0.35813 0.50845 0.51774 0.0
H4488 H 0.35565 0.60002 0.56282 0.0
H4489 H 0.32368 0.57799 0.48895 0.0
H4490 H 0.38504 0.55405 0.55908 0.0
H4491 H 0.40243 0.58077 0.55226 0.0
H4492 H 0.38448 0.58414 0.5759 0.0
H4493 H 0.33343 0.5492 0.45881 0.0
H4494 H 0.3628 0.55374 0.4613 0.0
H4495 H 0.34625 0.52748 0.4698 0.0
H4496 H 0.43245 0.55209 0.48453 0.0
H4497 H 0.39207 0.48898 0.50455 0.0
H4498 H 0.40727 0.59578 0.5137 0.0
H4499 H 0.3938 0.58656 0.48311 0.0
H4500 H 0.42293 0.58966 0.48834 0.0
H4501 H 0.35723 0.51782 0.53682 0.0
H4502 H 0.35722 0.48874 0.51736 0.0
H4503 H 0.34356 0.5098 0.50635 0.0
C4504 C 0.89167 0.95818 0.54606 0.0
C4505 C 0.89021 0.93301 0.54408 0.0
C4506 C 0.91186 0.97468 0.54548 0.0
C4507 C 0.9309 0.96567 0.54224 0.0
C4508 C 0.92942 0.94022 0.54 0.0
C4509 C 0.90917 0.92428 0.54123 0.0
C4510 C 0.91282 1.0017 0.54821 0.0
C4511 C 0.94919 0.92975 0.53594 0.0
C4512 C 0.97934 0.9997 0.51511 0.0
C4513 C 0.99462 0.01007 0.53587 0.0
C4514 C 0.95819 0.9862 0.51708 0.0
C4515 C 0.9523 0.98257 0.54037 0.0
C4516 C 0.96747 0.99373 0.56153 0.0
C4517 C 0.9884 0.00766 0.55905 0.0
C4518 C 0.94241 0.97515 0.4941 0.0
C4519 C 0.96194 0.99008 0.58664 0.0
H4520 H 0.87706 0.96502 0.54837 0.0
H4521 H 0.90808 0.9048 0.53942 0.0
H4522 H 0.92508 0.01256 0.56379 0.0
H4523 H 0.91822 0.00792 0.53146 0.0
H4524 H 0.89671 1.00588 0.55135 0.0
H4525 H 0.94536 0.9096 0.53485 0.0
H4526 H 0.95559 0.93348 0.51865 0.0
H4527 H 0.96249 0.93882 0.55106 0.0
H4528 H 0.98396 1.00207 0.49723 0.0
H4529 H 1.00023 0.01573 0.57511 0.0
H4530 H 0.92649 0.98003 0.49647 0.0
H4531 H 0.93916 0.95481 0.49055 0.0
H4532 H 0.94886 0.98142 0.47776 0.0
H4533 H 0.94613 0.99475 0.59029 0.0
H4534 H 0.97485 1.00143 0.6014 0.0
H4535 H 0.95997 0.97046 0.58742 0.0
C4536 C 0.91364 0.16754 0.27318 0.0
C4537 C 0.90459 0.1427 0.27447 0.0
C4538 C 0.90105 0.18557 0.27338 0.0
C4539 C 0.87798 0.17962 0.27463 0.0
C4540 C 0.86851 0.15462 0.276 0.0
C4541 C 0.88165 0.1368 0.27602 0.0
C4542 C 0.91274 0.21141 0.27222 0.0
C4543 C 0.8442 0.14655 0.27723 0.0
C4544 C 0.85135 0.23489 0.29821 0.0
C4545 C 0.84253 0.24072 0.27681 0.0
C4546 C 0.86186 0.215 0.29777 0.0
C4547 C 0.86441 0.19974 0.27525 0.0
C4548 C 0.85531 0.20535 0.25345 0.0
C4549 C 0.84485 0.22549 0.25444 0.0
C4550 C 0.87092 0.21084 0.32177 0.0
C4551 C 0.8571 0.19032 0.22875 0.0
H4552 H 0.93108 0.17321 0.27202 0.0
H4553 H 0.87378 0.11808 0.27681 0.0
H4554 H 0.90573 0.21654 0.25583 0.0
H4555 H 0.91027 0.22455 0.28856 0.0
H4556 H 0.93064 0.21359 0.27138 0.0
H4557 H 0.83887 0.12681 0.27791 0.0
H4558 H 0.83959 0.15771 0.29369 0.0
H4559 H 0.83513 0.14979 0.26099 0.0
H4560 H 0.85035 0.24638 0.31573 0.0
H4561 H 0.83893 0.22966 0.2375 0.0
H4562 H 0.88905 0.21445 0.32273 0.0
H4563 H 0.86464 0.19139 0.32304 0.0
H4564 H 0.86658 0.22289 0.33782 0.0
H4565 H 0.87458 0.19328 0.22539 0.0
H4566 H 0.84784 0.19519 0.21363 0.0
H4567 H 0.85086 0.17046 0.2284 0.0
C4568 C 0.71334 0.08843 0.02518 0.0
C4569 C 0.72746 0.09342 0.04693 0.0
C4570 C 0.69066 0.08387 0.02557 0.0
C4571 C 0.68186 0.08394 0.04824 0.0
C4572 C 0.69591 0.08818 0.07018 0.0
C4573 C 0.71864 0.09297 0.06929 0.0
C4574 C 0.67616 0.07951 1.00174 0.0
C4575 C 0.68693 0.08764 0.0945 0.0
C4576 C 0.62469 0.09405 0.04516 0.0
C4577 C 0.61214 0.0698 0.03823 0.0
C4578 C 0.64754 0.09907 0.05027 0.0
C4579 C 0.65785 0.0793 0.04848 0.0
C4580 C 0.64509 0.05483 0.0429 0.0
C4581 C 0.62247 0.05043 0.03716 0.0
C4582 C 0.66075 0.12543 0.05577 0.0
C4583 C 0.65539 0.03322 0.04125 0.0
H4584 H 0.72002 0.08879 0.00782 0.0
H4585 H 0.7295 0.09674 0.08612 0.0
H4586 H 0.6647 0.06105 0.99823 0.0
H4587 H 0.66609 0.09323 0.00296 0.0
H4588 H 0.68573 0.08073 0.98581 0.0
H4589 H 0.70011 0.09302 0.11009 0.0
H4590 H 0.67575 0.1001 0.09764 0.0
H4591 H 0.67722 0.06881 0.09425 0.0
H4592 H 0.61672 0.10905 0.04563 0.0
H4593 H 0.61314 0.03175 0.03106 0.0
H4594 H 0.66979 0.129 0.03991 0.0
H4595 H 0.67309 0.12892 0.0719 0.0
H4596 H 0.65023 0.13863 0.05934 0.0
H4597 H 0.66325 0.03069 0.02404 0.0
H4598 H 0.64308 0.01589 0.04125 0.0
H4599 H 0.66829 0.03649 0.05679 0.0
C4600 C 0.22892 0.44399 0.24063 0.0
C4601 C 0.23544 0.46694 0.23435 0.0
C4602 C 0.24406 0.43459 0.25296 0.0
C4603 C 0.26595 0.4487 0.25922 0.0
C4604 C 0.27304 0.47063 0.25074 0.0
C4605 C 0.25769 0.47937 0.23816 0.0
C4606 C 0.2362 0.41065 0.26105 0.0
C4607 C 0.29629 0.48616 0.25705 0.0
C4608 C 0.29428 0.44592 0.31989 0.0
C4609 C 0.30911 0.43192 0.31223 0.0
C4610 C 0.2802 0.45163 0.30269 0.0
C4611 C 0.28063 0.44249 0.27735 0.0
C4612 C 0.29563 0.42847 0.26949 0.0
C4613 C 0.31013 0.42403 0.28706 0.0
C4614 C 0.26472 0.46725 0.31165 0.0
C4615 C 0.29622 0.41797 0.24264 0.0
H4616 H 0.2118 0.43413 0.2374 0.0
H4617 H 0.26292 0.49692 0.23291 0.0
H4618 H 0.24821 0.39915 0.25804 0.0
H4619 H 0.23459 0.41453 0.28098 0.0
H4620 H 0.22001 0.39996 0.2512 0.0
H4621 H 0.29979 0.50094 0.24648 0.0
H4622 H 0.299 0.49482 0.27689 0.0
H4623 H 0.30825 0.4747 0.2535 0.0
H4624 H 0.29331 0.45193 0.33931 0.0
H4625 H 0.32217 0.41414 0.28111 0.0
H4626 H 0.2475 0.45671 0.30582 0.0
H4627 H 0.26741 0.48371 0.30337 0.0
H4628 H 0.2669 0.47344 0.33193 0.0
H4629 H 0.27961 0.40722 0.23413 0.0
H4630 H 0.30775 0.40583 0.2398 0.0
H4631 H 0.30124 0.43306 0.23276 0.0
C4632 C 0.25828 0.44603 0.05965 0.0
C4633 C 0.2693 0.43572 0.04089 0.0
C4634 C 0.24243 0.45874 0.0547 0.0
C4635 C 0.23746 0.46122 0.0304 0.0
C4636 C 0.24808 0.4503 0.01127 0.0
C4637 C 0.26387 0.43769 0.01674 0.0
C4638 C 0.2314 0.47008 0.07558 0.0
C4639 C 0.24322 0.45253 0.98511 0.0
C4640 C 0.18566 0.48074 0.01308 0.0
C4641 C 0.19391 0.50596 0.01418 0.0
C4642 C 0.19955 0.46596 0.01864 0.0
C4643 C 0.22225 0.4766 0.02524 0.0
C4644 C 0.23062 0.50205 0.02669 0.0
C4645 C 0.21635 0.51642 0.02135 0.0
C4646 C 0.19001 0.43891 0.0171 0.0
C4647 C 0.25473 0.51411 0.03363 0.0
H4648 H 0.26227 0.44453 0.07836 0.0
H4649 H 0.2722 0.42968 1.00209 0.0
H4650 H 0.23595 0.49039 0.07808 0.0
H4651 H 0.21331 0.46399 0.07128 0.0
H4652 H 0.23606 0.46521 0.09315 0.0
H4653 H 0.25197 0.44184 0.97216 0.0
H4654 H 0.22535 0.44601 0.97923 0.0
H4655 H 0.24817 0.47211 0.98381 0.0
H4656 H 0.16841 0.4724 0.00733 0.0
H4657 H 0.22282 0.53596 0.02281 0.0
H4658 H 0.19417 0.43394 0.03475 0.0
H4659 H 0.19727 0.42789 1.00278 0.0
H4660 H 0.17189 0.43366 0.01269 0.0
H4661 H 0.26007 0.51144 0.052 0.0
H4662 H 0.2586 0.53414 0.03395 0.0
H4663 H 0.26449 0.50538 0.02037 0.0
C4664 C 0.88501 0.98206 0.25542 0.0
C4665 C 0.90134 0.99306 0.27533 0.0
C4666 C 0.87224 0.95737 0.25264 0.0
C4667 C 0.87535 0.94309 0.27034 0.0
C4668 C 0.89138 0.95445 0.29073 0.0
C4669 C 0.90408 0.97878 0.2928 0.0
C4670 C 0.85575 0.94628 0.23034 0.0
C4671 C 0.89535 0.94077 0.3105 0.0
C4672 C 0.83092 0.88553 0.27637 0.0
C4673 C 0.83994 0.86582 0.26656 0.0
C4674 C 0.84193 0.91044 0.27738 0.0
C4675 C 0.86238 0.91631 0.26766 0.0
C4676 C 0.87117 0.89636 0.25701 0.0
C4677 C 0.86018 0.87169 0.25702 0.0
C4678 C 0.83198 0.93058 0.28975 0.0
C4679 C 0.89246 0.90108 0.24575 0.0
H4680 H 0.88263 0.99246 0.2416 0.0
H4681 H 0.91639 0.98671 0.30843 0.0
H4682 H 0.86018 0.93 0.21953 0.0
H4683 H 0.83924 0.93978 0.23599 0.0
H4684 H 0.85486 0.95953 0.21837 0.0
H4685 H 0.90741 0.95246 0.32593 0.0
H4686 H 0.87973 0.93382 0.31786 0.0
H4687 H 0.90156 0.92459 0.30268 0.0
H4688 H 0.81557 0.88155 0.28423 0.0
H4689 H 0.86745 0.85685 0.24931 0.0
H4690 H 0.83021 0.94311 0.27727 0.0
H4691 H 0.84305 0.94171 0.30621 0.0
H4692 H 0.81566 0.92324 0.29549 0.0
H4693 H 0.8919 0.9133 0.23262 0.0
H4694 H 0.89608 0.88382 0.236 0.0
H4695 H 0.90616 0.91064 0.26027 0.0
C4696 C 0.75075 0.10969 0.71401 0.0
C4697 C 0.72842 0.10376 0.71675 0.0
C4698 C 0.76261 0.13427 0.7186 0.0
C4699 C 0.75195 0.15311 0.72697 0.0
C4700 C 0.72931 0.14706 0.72984 0.0
C4701 C 0.7177 0.12238 0.7242 0.0
C4702 C 0.78641 0.14001 0.71437 0.0
C4703 C 0.71755 0.16651 0.73981 0.0
C4704 C 0.78379 0.21372 0.7663 0.0
C4705 C 0.78245 0.22967 0.75052 0.0
C4706 C 0.77472 0.18846 0.75851 0.0
C4707 C 0.76449 0.17909 0.73419 0.0
C4708 C 0.76407 0.19515 0.71784 0.0
C4709 C 0.77244 0.2205 0.72651 0.0
C4710 C 0.77488 0.17211 0.77676 0.0
C4711 C 0.75414 0.18564 0.69152 0.0
H4712 H 0.75888 0.09507 0.70818 0.0
H4713 H 0.70044 0.11756 0.72672 0.0
H4714 H 0.78844 0.15021 0.69934 0.0
H4715 H 0.7966 0.15188 0.73107 0.0
H4716 H 0.79256 0.1232 0.70921 0.0
H4717 H 0.70003 0.15858 0.74145 0.0
H4718 H 0.72569 0.17686 0.7582 0.0
H4719 H 0.71841 0.17989 0.72771 0.0
H4720 H 0.79115 0.22121 0.78508 0.0
H4721 H 0.77104 0.23316 0.71465 0.0
H4722 H 0.78201 0.15653 0.76939 0.0
H4723 H 0.75779 0.16424 0.78005 0.0
H4724 H 0.78437 0.18222 0.79462 0.0
H4725 H 0.76058 0.16987 0.68296 0.0
H4726 H 0.75763 0.20005 0.68051 0.0
H4727 H 0.73611 0.17894 0.69079 0.0
loop_
_geom_bond_atom_site_label_1
_geom_bond_atom_site_label_2
_geom_bond_distance
_geom_bond_site_symmetry_2
_ccdc_geom_bond_type
C0 O1 1.160 . S
C0 O7 1.185 . S
O1 C0 1.160 . S
O2 Zn3 1.899 . S
O2 C10 1.284 . S
Zn3 O2 1.899 . S
Zn3 O4 2.032 . S
Zn3 O7 2.086 . S
Zn3 O12 1.977 . S
O4 Zn3 2.032 . S
O4 C8 1.278 . S
C5 O6 1.203 . S
C5 O12 1.267 . S
O6 C5 1.203 . S
O7 C0 1.185 . S
O7 Zn3 2.086 . S
C8 O4 1.278 . S
C8 O9 1.211 . S
O9 C8 1.211 . S
C10 O2 1.284 . S
C10 O11 1.273 . S
O11 C10 1.273 . S
O12 Zn3 1.977 . S
O12 C5 1.267 . S
C13 O14 1.160 . S
C13 O20 1.185 . S
O14 C13 1.160 . S
O15 Zn16 1.899 . S
O15 C23 1.284 . S
Zn16 O15 1.899 . S
Zn16 O17 2.032 . S
Zn16 O20 2.086 . S
Zn16 O25 1.977 1_655 S
O17 Zn16 2.032 . S
O17 C21 1.278 1_655 S
C18 O19 1.203 . S
C18 O25 1.267 . S
O19 C18 1.203 . S
O20 C13 1.185 . S
O20 Zn16 2.086 . S
C21 O17 1.278 1_455 S
C21 O22 1.211 . S
O22 C21 1.211 . S
C23 O15 1.284 . S
C23 O24 1.273 1_655 S
O24 C23 1.273 1_455 S
O25 Zn16 1.977 1_455 S
O25 C18 1.267 . S
C26 O27 1.160 . S
C26 O33 1.185 . S
O27 C26 1.160 . S
O28 Zn29 1.899 . S
O28 C36 1.284 . S
Zn29 O28 1.899 . S
Zn29 O30 2.032 . S
Zn29 O33 2.086 . S
Zn29 O38 1.977 . S
O30 Zn29 2.032 . S
O30 C34 1.278 . S
C31 O32 1.203 . S
C31 O38 1.267 . S
O32 C31 1.203 . S
O33 C26 1.185 . S
O33 Zn29 2.086 . S
C34 O30 1.278 . S
C34 O35 1.211 . S
O35 C34 1.211 . S
C36 O28 1.284 . S
C36 O37 1.273 . S
O37 C36 1.273 . S
O38 Zn29 1.977 . S
O38 C31 1.267 . S
C39 O40 1.160 . S
C39 O46 1.185 . S
O40 C39 1.160 . S
O41 Zn42 1.899 . S
O41 C49 1.284 . S
Zn42 O41 1.899 . S
Zn42 O43 2.032 . S
Zn42 O46 2.086 . S
Zn42 O51 1.977 . S
O43 Zn42 2.032 . S
O43 C47 1.278 . S
C44 O45 1.203 . S
C44 O51 1.267 . S
O45 C44 1.203 . S
O46 C39 1.185 . S
O46 Zn42 2.086 . S
C47 O43 1.278 . S
C47 O48 1.211 . S
O48 C47 1.211 . S
C49 O41 1.284 . S
C49 O50 1.273 . S
O50 C49 1.273 . S
O51 Zn42 1.977 . S
O51 C44 1.267 . S
C52 O53 1.160 . S
C52 O59 1.185 . S
O53 C52 1.160 . S
O54 Zn55 1.899 . S
O54 C62 1.284 . S
Zn55 O54 1.899 . S
Zn55 O56 2.032 . S
Zn55 O59 2.086 . S
Zn55 O64 1.977 . S
O56 Zn55 2.032 . S
O56 C60 1.278 . S
C57 O58 1.203 . S
C57 O64 1.267 . S
O58 C57 1.203 . S
O59 C52 1.185 . S
O59 Zn55 2.086 . S
C60 O56 1.278 . S
C60 O61 1.211 . S
O61 C60 1.211 . S
C62 O54 1.284 . S
C62 O63 1.273 . S
O63 C62 1.273 . S
O64 Zn55 1.977 . S
O64 C57 1.267 . S
C65 O66 1.160 . S
C65 O72 1.185 . S
O66 C65 1.160 . S
O67 Zn68 1.899 . S
O67 C75 1.284 . S
Zn68 O67 1.899 . S
Zn68 O69 2.032 . S
Zn68 O72 2.086 . S
Zn68 O77 1.977 . S
O69 Zn68 2.032 . S
O69 C73 1.278 . S
C70 O71 1.203 . S
C70 O77 1.267 . S
O71 C70 1.203 . S
O72 C65 1.185 . S
O72 Zn68 2.086 . S
C73 O69 1.278 . S
C73 O74 1.211 . S
O74 C73 1.211 . S
C75 O67 1.284 . S
C75 O76 1.273 . S
O76 C75 1.273 . S
O77 Zn68 1.977 . S
O77 C70 1.267 . S
C78 O79 1.160 . S
C78 O85 1.185 . S
O79 C78 1.160 . S
O80 Zn81 1.899 . S
O80 C88 1.284 . S
Zn81 O80 1.899 . S
Zn81 O82 2.032 . S
Zn81 O85 2.086 . S
Zn81 O90 1.977 . S
O82 Zn81 2.032 . S
O82 C86 1.278 . S
C83 O84 1.203 . S
C83 O90 1.267 . S
O84 C83 1.203 . S
O85 C78 1.185 . S
O85 Zn81 2.086 . S
C86 O82 1.278 . S
C86 O87 1.211 . S
O87 C86 1.211 . S
C88 O80 1.284 . S
C88 O89 1.273 . S
O89 C88 1.273 . S
O90 Zn81 1.977 . S
O90 C83 1.267 . S
C91 O92 1.160 . S
C91 O98 1.185 . S
O92 C91 1.160 . S
O93 Zn94 1.899 . S
O93 C101 1.284 . S
Zn94 O93 1.899 . S
Zn94 O95 2.032 . S
Zn94 O98 2.086 . S
Zn94 O103 1.977 1_455 S
O95 Zn94 2.032 . S
O95 C99 1.278 . S
C96 O97 1.203 . S
C96 O103 1.267 . S
O97 C96 1.203 . S
O98 C91 1.185 . S
O98 Zn94 2.086 . S
C99 O95 1.278 . S
C99 O100 1.211 . S
O100 C99 1.211 . S
C101 O93 1.284 . S
C101 O102 1.273 . S
O102 C101 1.273 . S
O103 Zn94 1.977 1_655 S
O103 C96 1.267 . S
C104 O105 1.160 . S
C104 O111 1.185 . S
O105 C104 1.160 . S
O106 Zn107 1.899 . S
O106 C114 1.284 . S
Zn107 O106 1.899 . S
Zn107 O108 2.032 . S
Zn107 O111 2.086 . S
Zn107 O116 1.977 1_545 S
O108 Zn107 2.032 . S
O108 C112 1.278 . S
C109 O110 1.203 . S
C109 O116 1.267 . S
O110 C109 1.203 . S
O111 C104 1.185 . S
O111 Zn107 2.086 . S
C112 O108 1.278 . S
C112 O113 1.205 1_545 S
O113 C112 1.205 1_565 S
C114 O106 1.284 . S
C114 O115 1.273 . S
O115 C114 1.273 . S
O116 Zn107 1.977 1_565 S
O116 C109 1.267 . S
C117 O118 1.160 . S
C117 O124 1.185 . S
O118 C117 1.160 . S
O119 Zn120 1.899 . S
O119 C127 1.284 . S
Zn120 O119 1.899 . S
Zn120 O121 2.032 . S
Zn120 O124 2.086 . S
Zn120 O129 1.977 . S
O121 Zn120 2.032 . S
O121 C125 1.278 . S
C122 O123 1.203 . S
C122 O129 1.267 . S
O123 C122 1.203 . S
O124 C117 1.185 . S
O124 Zn120 2.086 . S
C125 O121 1.278 . S
C125 O126 1.211 . S
O126 C125 1.211 . S
C127 O119 1.284 . S
C127 O128 1.273 . S
O128 C127 1.273 . S
O129 Zn120 1.977 . S
O129 C122 1.267 . S
C130 O131 1.160 . S
C130 O137 1.185 . S
O131 C130 1.160 . S
O132 Zn133 1.899 . S
O132 C140 1.284 . S
Zn133 O132 1.899 . S
Zn133 O134 2.032 . S
Zn133 O137 2.086 . S
Zn133 O142 1.977 1_565 S
O134 Zn133 2.032 . S
O134 C138 1.278 1_565 S
C135 O136 1.203 . S
C135 O142 1.267 . S
O136 C135 1.203 . S
O137 C130 1.185 . S
O137 Zn133 2.086 . S
C138 O134 1.278 1_545 S
C138 O139 1.211 . S
O139 C138 1.211 . S
C140 O132 1.284 . S
C140 O141 1.273 1_565 S
O141 C140 1.273 1_545 S
O142 Zn133 1.977 1_545 S
O142 C135 1.267 . S
C143 O144 1.160 . S
C143 O150 1.185 . S
O144 C143 1.160 . S
O145 Zn146 1.899 . S
O145 C153 1.284 . S
Zn146 O145 1.899 . S
Zn146 O147 2.032 1_554 S
Zn146 O150 2.086 . S
Zn146 O155 1.977 . S
O147 Zn146 2.032 1_556 S
O147 C151 1.278 . S
C148 O149 1.203 . S
C148 O155 1.267 . S
O149 C148 1.203 . S
O150 C143 1.185 . S
O150 Zn146 2.086 . S
C151 O147 1.278 . S
C151 O152 1.211 . S
O152 C151 1.211 . S
C153 O145 1.284 . S
C153 O154 1.273 . S
O154 C153 1.273 . S
O155 Zn146 1.977 . S
O155 C148 1.267 . S
C156 O157 1.160 . S
C156 O163 1.185 . S
O157 C156 1.160 . S
O158 Zn159 1.899 . S
O158 C166 1.284 . S
Zn159 O158 1.899 . S
Zn159 O160 2.032 . S
Zn159 O163 2.086 . S
Zn159 O168 1.977 . S
O160 Zn159 2.032 . S
O160 C164 1.278 1_554 S
C161 O162 1.203 . S
C161 O168 1.267 . S
O162 C161 1.203 . S
O163 C156 1.185 . S
O163 Zn159 2.086 . S
C164 O160 1.278 1_556 S
C164 O165 1.207 1_556 S
O165 C164 1.207 1_554 S
C166 O158 1.284 . S
C166 O167 1.273 . S
O167 C166 1.273 . S
O168 Zn159 1.977 . S
O168 C161 1.267 . S
C169 O170 1.160 . S
C169 O176 1.185 . S
O170 C169 1.160 . S
O171 Zn172 1.899 . S
O171 C179 1.284 . S
Zn172 O171 1.899 . S
Zn172 O173 2.032 . S
Zn172 O176 2.086 . S
Zn172 O181 1.977 . S
O173 Zn172 2.032 . S
O173 C177 1.278 1_554 S
C174 O175 1.203 . S
C174 O181 1.267 . S
O175 C174 1.203 . S
O176 C169 1.185 . S
O176 Zn172 2.086 . S
C177 O173 1.278 1_556 S
C177 O178 1.211 . S
O178 C177 1.211 . S
C179 O171 1.284 . S
C179 O180 1.273 . S
O180 C179 1.273 . S
O181 Zn172 1.977 . S
O181 C174 1.267 . S
C182 O183 1.160 . S
C182 O189 1.185 . S
O183 C182 1.160 . S
O184 Zn185 1.899 . S
O184 C192 1.284 . S
Zn185 O184 1.899 . S
Zn185 O186 2.032 . S
Zn185 O189 2.086 . S
Zn185 O194 1.977 . S
O186 Zn185 2.032 . S
O186 C190 1.278 . S
C187 O188 1.203 . S
C187 O194 1.267 . S
O188 C187 1.203 . S
O189 C182 1.185 . S
O189 Zn185 2.086 . S
C190 O186 1.278 . S
C190 O191 1.211 . S
O191 C190 1.211 . S
C192 O184 1.284 . S
C192 O193 1.273 . S
O193 C192 1.273 . S
O194 Zn185 1.977 . S
O194 C187 1.267 . S
C195 O196 1.160 . S
C195 O202 1.185 . S
O196 C195 1.160 . S
O197 Zn198 1.899 . S
O197 C205 1.284 . S
Zn198 O197 1.899 . S
Zn198 O199 2.032 . S
Zn198 O202 2.086 . S
Zn198 O207 1.977 . S
O199 Zn198 2.032 . S
O199 C203 1.278 . S
C200 O201 1.203 . S
C200 O207 1.267 . S
O201 C200 1.203 . S
O202 C195 1.185 . S
O202 Zn198 2.086 . S
C203 O199 1.278 . S
C203 O204 1.211 . S
O204 C203 1.211 . S
C205 O197 1.284 . S
C205 O206 1.273 . S
O206 C205 1.273 . S
O207 Zn198 1.977 . S
O207 C200 1.267 . S
C208 O209 1.160 . S
C208 O215 1.185 . S
O209 C208 1.160 . S
O210 Zn211 1.899 . S
O210 C218 1.284 . S
Zn211 O210 1.899 . S
Zn211 O212 2.032 . S
Zn211 O215 2.086 . S
Zn211 O220 1.977 . S
O212 Zn211 2.032 . S
O212 C216 1.278 . S
C213 O214 1.203 . S
C213 O220 1.267 . S
O214 C213 1.203 . S
O215 C208 1.185 . S
O215 Zn211 2.086 . S
C216 O212 1.278 . S
C216 O217 1.211 . S
O217 C216 1.211 . S
C218 O210 1.284 . S
C218 O219 1.273 . S
O219 C218 1.273 . S
O220 Zn211 1.977 . S
O220 C213 1.267 . S
C221 O222 1.160 . S
C221 O228 1.185 . S
O222 C221 1.160 . S
O223 Zn224 1.899 . S
O223 C231 1.284 . S
Zn224 O223 1.899 . S
Zn224 O225 2.032 . S
Zn224 O228 2.086 . S
Zn224 O233 1.977 . S
O225 Zn224 2.032 . S
O225 C229 1.278 . S
C226 O227 1.203 . S
C226 O233 1.267 . S
O227 C226 1.203 . S
O228 C221 1.185 . S
O228 Zn224 2.086 . S
C229 O225 1.278 . S
C229 O230 1.211 . S
O230 C229 1.211 . S
C231 O223 1.284 . S
C231 O232 1.273 . S
O232 C231 1.273 . S
O233 Zn224 1.977 . S
O233 C226 1.267 . S
C234 O235 1.160 . S
C234 O241 1.185 . S
O235 C234 1.160 . S
O236 Zn237 1.899 . S
O236 C244 1.284 . S
Zn237 O236 1.899 . S
Zn237 O238 2.032 . S
Zn237 O241 2.086 . S
Zn237 O246 1.977 . S
O238 Zn237 2.032 . S
O238 C242 1.278 . S
C239 O240 1.203 . S
C239 O246 1.267 . S
O240 C239 1.203 . S
O241 C234 1.185 . S
O241 Zn237 2.086 . S
C242 O238 1.278 . S
C242 O243 1.211 . S
O243 C242 1.211 . S
C244 O236 1.284 . S
C244 O245 1.273 . S
O245 C244 1.273 . S
O246 Zn237 1.977 . S
O246 C239 1.267 . S
C247 O248 1.160 1_545 S
C247 O254 1.185 . S
O248 C247 1.160 1_565 S
O249 Zn250 1.899 . S
O249 C257 1.284 . S
Zn250 O249 1.899 . S
Zn250 O251 2.032 . S
Zn250 O254 2.086 . S
Zn250 O259 1.977 . S
O251 Zn250 2.032 . S
O251 C255 1.278 . S
C252 O253 1.203 . S
C252 O259 1.267 . S
O253 C252 1.203 . S
O254 C247 1.185 . S
O254 Zn250 2.086 . S
C255 O251 1.278 . S
C255 O256 1.211 . S
O256 C255 1.211 . S
C257 O249 1.284 . S
C257 O258 1.273 . S
O258 C257 1.273 . S
O259 Zn250 1.977 . S
O259 C252 1.267 . S
C260 O261 1.160 . S
C260 O267 1.185 1_554 S
O261 C260 1.160 . S
O262 Zn263 1.899 . S
O262 C270 1.284 . S
Zn263 O262 1.899 . S
Zn263 O264 2.032 1_554 S
Zn263 O267 2.086 1_554 S
Zn263 O272 1.977 1_554 S
O264 Zn263 2.032 1_556 S
O264 C268 1.278 . S
C265 O266 1.203 1_556 S
C265 O272 1.267 . S
O266 C265 1.203 1_554 S
O267 C260 1.185 1_556 S
O267 Zn263 2.086 1_556 S
C268 O264 1.278 . S
C268 O269 1.211 . S
O269 C268 1.211 . S
C270 O262 1.284 . S
C270 O271 1.273 . S
O271 C270 1.273 . S
O272 Zn263 1.977 1_556 S
O272 C265 1.267 . S
C273 O274 1.160 . S
C273 O280 1.185 . S
O274 C273 1.160 . S
O275 Zn276 1.899 . S
O275 C283 1.284 . S
Zn276 O275 1.899 . S
Zn276 O277 2.032 . S
Zn276 O280 2.086 . S
Zn276 O285 1.977 . S
O277 Zn276 2.032 . S
O277 C281 1.278 . S
C278 O279 1.203 . S
C278 O285 1.267 . S
O279 C278 1.203 . S
O280 C273 1.185 . S
O280 Zn276 2.086 . S
C281 O277 1.278 . S
C281 O282 1.211 . S
O282 C281 1.211 . S
C283 O275 1.284 . S
C283 O284 1.273 . S
O284 C283 1.273 . S
O285 Zn276 1.977 . S
O285 C278 1.267 . S
C286 O287 1.160 . S
C286 O293 1.185 . S
O287 C286 1.160 . S
O288 Zn289 1.899 . S
O288 C296 1.284 . S
Zn289 O288 1.899 . S
Zn289 O290 2.032 . S
Zn289 O293 2.086 . S
Zn289 O298 1.977 . S
O290 Zn289 2.032 . S
O290 C294 1.278 . S
C291 O292 1.203 . S
C291 O298 1.267 . S
O292 C291 1.203 . S
O293 C286 1.185 . S
O293 Zn289 2.086 . S
C294 O290 1.278 . S
C294 O295 1.211 . S
O295 C294 1.211 . S
C296 O288 1.284 . S
C296 O297 1.273 . S
O297 C296 1.273 . S
O298 Zn289 1.977 . S
O298 C291 1.267 . S
C299 O300 1.160 . S
C299 O306 1.185 . S
O300 C299 1.160 . S
O301 Zn302 1.899 . S
O301 C309 1.284 . S
Zn302 O301 1.899 . S
Zn302 O303 2.032 . S
Zn302 O306 2.086 . S
Zn302 O311 1.977 . S
O303 Zn302 2.032 . S
O303 C307 1.278 . S
C304 O305 1.203 . S
C304 O311 1.267 . S
O305 C304 1.203 . S
O306 C299 1.185 . S
O306 Zn302 2.086 . S
C307 O303 1.278 . S
C307 O308 1.211 . S
O308 C307 1.211 . S
C309 O301 1.284 . S
C309 O310 1.273 . S
O310 C309 1.273 . S
O311 Zn302 1.977 . S
O311 C304 1.267 . S
Eu312 N343 2.639 1_546 S
Eu312 N350 2.624 1_545 S
Eu312 O356 2.579 1_455 S
Eu312 O357 2.608 1_556 S
Eu312 O359 2.308 1_556 S
Eu312 O360 2.572 . S
Eu312 O361 2.412 1_456 S
Eu312 O363 2.369 1_556 S
Eu312 O364 2.457 . S
Eu312 C376 2.855 1_455 S
C313 C316 1.429 . S
C313 C317 1.411 . S
C313 N320 1.377 . S
C314 C316 1.420 . S
C314 C318 1.423 . S
C314 C326 1.392 1_554 S
C315 C317 1.420 . S
C315 C318 1.351 . S
C315 H338 0.931 . S
C316 C313 1.429 . S
C316 C314 1.420 . S
C316 N324 1.362 . S
C317 C313 1.411 . S
C317 C315 1.420 . S
C317 C322 1.395 . S
C318 C314 1.423 . S
C318 C315 1.351 . S
C318 H330 0.930 . S
C319 C321 1.400 . S
C319 C322 1.386 . S
C319 H331 0.930 . S
N320 C313 1.377 . S
N320 C321 1.321 . S
N320 Eu323 2.609 . S
C321 C319 1.400 . S
C321 N320 1.321 . S
C321 H328 0.930 . S
C322 C317 1.395 . S
C322 C319 1.386 . S
C322 H341 0.930 . S
Eu323 N320 2.609 . S
Eu323 N324 2.657 . S
Eu323 O357 2.380 . S
Eu323 O358 2.432 . S
Eu323 O362 2.558 . S
Eu323 O363 2.612 . S
Eu323 O365 2.339 1_554 S
Eu323 O366 2.563 . S
Eu323 O367 2.419 . S
Eu323 C387 2.848 . S
N324 C316 1.362 . S
N324 Eu323 2.657 . S
N324 C325 1.334 1_554 S
C325 N324 1.334 1_556 S
C325 C327 1.413 . S
C325 H332 0.929 . S
C326 C314 1.392 1_556 S
C326 C327 1.367 . S
C326 H334 0.930 . S
C327 C325 1.413 . S
C327 C326 1.367 . S
C327 H329 0.930 . S
H328 C321 0.930 . S
H329 C327 0.930 . S
H330 C318 0.930 . S
H331 C319 0.930 . S
H332 C325 0.929 . S
H333 C347 0.930 1_455 S
H334 C326 0.930 . S
H335 C353 0.930 . S
H336 C344 0.929 . S
H337 C351 0.930 . S
H338 C315 0.931 . S
H339 C345 0.930 . S
H340 C378 0.930 . S
H341 C322 0.930 . S
H342 C377 0.931 . S
N343 Eu312 2.639 1_564 S
N343 C344 1.334 . S
N343 C348 1.362 1_455 S
C344 H336 0.929 . S
C344 N343 1.334 . S
C344 C347 1.413 1_455 S
C345 H339 0.930 . S
C345 C346 1.392 . S
C345 C347 1.367 . S
C346 C345 1.392 . S
C346 C348 1.420 . S
C346 C378 1.423 1_554 S
C347 H333 0.930 1_655 S
C347 C344 1.413 1_655 S
C347 C345 1.367 . S
C348 N343 1.362 1_655 S
C348 C346 1.420 . S
C348 C352 1.429 1_554 S
H349 C354 0.930 . S
N350 Eu312 2.624 1_565 S
N350 C352 1.377 1_455 S
N350 C353 1.321 . S
C351 H337 0.930 . S
C351 C353 1.400 1_655 S
C351 C354 1.386 . S
C352 C348 1.429 1_556 S
C352 N350 1.377 1_655 S
C352 C355 1.411 . S
C353 H335 0.930 . S
C353 N350 1.321 . S
C353 C351 1.400 1_455 S
C354 H349 0.930 . S
C354 C351 1.386 . S
C354 C355 1.395 . S
C355 C352 1.411 . S
C355 C354 1.395 . S
C355 C377 1.420 . S
O356 Eu312 2.579 1_655 S
O356 C376 1.257 . S
O357 Eu312 2.608 1_554 S
O357 Eu323 2.380 . S
O357 C368 1.276 . S
O358 Eu323 2.432 . S
O358 C375 1.264 . S
O359 Eu312 2.308 1_554 S
O359 C375 1.254 . S
O360 Eu312 2.572 . S
O360 C368 1.235 1_556 S
O361 Eu312 2.412 1_654 S
O361 C376 1.249 1_554 S
O362 Eu323 2.558 . S
O362 C387 1.257 . S
O363 Eu312 2.369 1_554 S
O363 Eu323 2.612 . S
O363 C379 1.276 1_545 S
O364 Eu312 2.457 . S
O364 C386 1.264 . S
O365 Eu323 2.339 1_556 S
O365 C386 1.254 . S
O366 Eu323 2.563 . S
O366 C379 1.235 1_545 S
O367 Eu323 2.419 . S
O367 C387 1.249 . S
C368 O357 1.276 . S
C368 O360 1.235 1_554 S
C369 C371 1.393 . S
C369 C373 1.395 . S
C369 C376 1.492 . S
C370 C371 1.392 . S
C370 C372 1.386 . S
C371 C369 1.393 . S
C371 C370 1.392 . S
C371 H388 0.930 1_556 S
C372 C370 1.386 . S
C372 C374 1.395 . S
C372 H389 0.930 . S
C373 C369 1.395 . S
C373 C374 1.379 . S
C373 H390 0.930 . S
C374 C372 1.395 . S
C374 C373 1.379 . S
C374 H391 0.930 . S
C375 O358 1.264 . S
C375 O359 1.254 . S
C376 Eu312 2.855 1_655 S
C376 O356 1.257 . S
C376 O361 1.249 1_556 S
C376 C369 1.492 . S
C377 H342 0.931 . S
C377 C355 1.420 . S
C377 C378 1.351 . S
C378 H340 0.930 . S
C378 C346 1.423 1_556 S
C378 C377 1.351 . S
C379 O363 1.276 1_565 S
C379 O366 1.235 1_565 S
C380 C381 1.393 . S
C380 C384 1.395 . S
C380 C387 1.492 . S
C381 C380 1.393 . S
C381 C382 1.392 . S
C381 H392 0.930 . S
C382 C381 1.392 . S
C382 C383 1.386 . S
C383 C382 1.386 . S
C383 C385 1.395 . S
C383 H393 0.930 . S
C384 C380 1.395 . S
C384 C385 1.379 . S
C384 H394 0.930 . S
C385 C383 1.395 . S
C385 C384 1.379 . S
C385 H395 0.930 . S
C386 O364 1.264 . S
C386 O365 1.254 . S
C387 Eu323 2.848 . S
C387 O362 1.257 . S
C387 O367 1.249 . S
C387 C380 1.492 . S
H388 C371 0.930 1_554 S
H389 C372 0.930 . S
H390 C373 0.930 . S
H391 C374 0.930 . S
H392 C381 0.930 . S
H393 C383 0.930 . S
H394 C384 0.930 . S
H395 C385 0.930 . S
Eu396 N427 2.657 . S
Eu396 N434 2.609 . S
Eu396 O440 2.558 . S
Eu396 O441 2.612 . S
Eu396 O443 2.339 . S
Eu396 O444 2.563 . S
Eu396 O445 2.419 . S
Eu396 O447 2.380 . S
Eu396 O448 2.432 . S
Eu396 C460 2.848 . S
C397 C400 1.429 . S
C397 C401 1.411 . S
C397 N404 1.377 . S
C398 C400 1.420 . S
C398 C402 1.423 . S
C398 C410 1.392 . S
C399 C401 1.420 . S
C399 C402 1.351 . S
C399 H422 0.931 . S
C400 C397 1.429 . S
C400 C398 1.420 . S
C400 N408 1.362 . S
C401 C397 1.411 . S
C401 C399 1.420 . S
C401 C406 1.395 . S
C402 C398 1.423 . S
C402 C399 1.351 . S
C402 H414 0.930 . S
C403 C405 1.400 . S
C403 C406 1.386 . S
C403 H415 0.930 . S
N404 C397 1.377 . S
N404 C405 1.321 . S
N404 Eu407 2.609 . S
C405 C403 1.400 . S
C405 N404 1.321 . S
C405 H412 0.930 . S
C406 C401 1.395 . S
C406 C403 1.386 . S
C406 H425 0.930 . S
Eu407 N404 2.609 . S
Eu407 N408 2.657 . S
Eu407 O441 2.380 . S
Eu407 O442 2.432 . S
Eu407 O446 2.558 . S
Eu407 O447 2.612 . S
Eu407 O449 2.339 . S
Eu407 O450 2.563 . S
Eu407 O451 2.419 . S
Eu407 C471 2.848 . S
N408 C400 1.362 . S
N408 Eu407 2.657 . S
N408 C409 1.334 . S
C409 N408 1.334 . S
C409 C411 1.413 . S
C409 H416 0.929 . S
C410 C398 1.392 . S
C410 C411 1.367 . S
C410 H418 0.930 . S
C411 C409 1.413 . S
C411 C410 1.367 . S
C411 H413 0.930 . S
H412 C405 0.930 . S
H413 C411 0.930 . S
H414 C402 0.930 . S
H415 C403 0.930 . S
H416 C409 0.929 . S
H417 C431 0.930 . S
H418 C410 0.930 . S
H419 C437 0.930 . S
H420 C428 0.929 . S
H421 C435 0.930 . S
H422 C399 0.931 . S
H423 C429 0.930 . S
H424 C462 0.930 . S
H425 C406 0.930 . S
H426 C461 0.931 . S
N427 Eu396 2.657 . S
N427 C428 1.334 . S
N427 C432 1.362 . S
C428 H420 0.929 . S
C428 N427 1.334 . S
C428 C431 1.413 . S
C429 H423 0.930 . S
C429 C430 1.392 . S
C429 C431 1.367 . S
C430 C429 1.392 . S
C430 C432 1.420 . S
C430 C462 1.423 . S
C431 H417 0.930 . S
C431 C428 1.413 . S
C431 C429 1.367 . S
C432 N427 1.362 . S
C432 C430 1.420 . S
C432 C436 1.429 . S
H433 C438 0.930 . S
N434 Eu396 2.609 . S
N434 C436 1.377 . S
N434 C437 1.321 . S
C435 H421 0.930 . S
C435 C437 1.400 . S
C435 C438 1.386 . S
C436 C432 1.429 . S
C436 N434 1.377 . S
C436 C439 1.411 . S
C437 H419 0.930 . S
C437 N434 1.321 . S
C437 C435 1.400 . S
C438 H433 0.930 . S
C438 C435 1.386 . S
C438 C439 1.395 . S
C439 C436 1.411 . S
C439 C438 1.395 . S
C439 C461 1.420 . S
O440 Eu396 2.558 . S
O440 C460 1.257 . S
O441 Eu396 2.612 . S
O441 Eu407 2.380 . S
O441 C452 1.276 . S
O442 Eu407 2.432 . S
O442 C459 1.264 . S
O443 Eu396 2.339 . S
O443 C459 1.254 . S
O444 Eu396 2.563 . S
O444 C452 1.235 . S
O445 Eu396 2.419 . S
O445 C460 1.249 . S
O446 Eu407 2.558 . S
O446 C471 1.257 . S
O447 Eu396 2.380 . S
O447 Eu407 2.612 . S
O447 C463 1.276 . S
O448 Eu396 2.432 . S
O448 C470 1.264 . S
O449 Eu407 2.339 . S
O449 C470 1.254 . S
O450 Eu407 2.563 . S
O450 C463 1.235 . S
O451 Eu407 2.419 . S
O451 C471 1.249 . S
C452 O441 1.276 . S
C452 O444 1.235 . S
C453 C455 1.393 . S
C453 C457 1.395 . S
C453 C460 1.492 . S
C454 C455 1.392 . S
C454 C456 1.386 . S
C455 C453 1.393 . S
C455 C454 1.392 . S
C455 H472 0.930 . S
C456 C454 1.386 . S
C456 C458 1.395 . S
C456 H473 0.930 . S
C457 C453 1.395 . S
C457 C458 1.379 . S
C457 H474 0.930 . S
C458 C456 1.395 . S
C458 C457 1.379 . S
C458 H475 0.930 . S
C459 O442 1.264 . S
C459 O443 1.254 . S
C460 Eu396 2.848 . S
C460 O440 1.257 . S
C460 O445 1.249 . S
C460 C453 1.492 . S
C461 H426 0.931 . S
C461 C439 1.420 . S
C461 C462 1.351 . S
C462 H424 0.930 . S
C462 C430 1.423 . S
C462 C461 1.351 . S
C463 O447 1.276 . S
C463 O450 1.235 . S
C464 C465 1.393 . S
C464 C468 1.395 . S
C464 C471 1.492 . S
C465 C464 1.393 . S
C465 C466 1.392 . S
C465 H476 0.930 . S
C466 C465 1.392 . S
C466 C467 1.386 . S
C467 C466 1.386 . S
C467 C469 1.395 . S
C467 H477 0.930 . S
C468 C464 1.395 . S
C468 C469 1.379 . S
C468 H478 0.930 . S
C469 C467 1.395 . S
C469 C468 1.379 . S
C469 H479 0.930 . S
C470 O448 1.264 . S
C470 O449 1.254 . S
C471 Eu407 2.848 . S
C471 O446 1.257 . S
C471 O451 1.249 . S
C471 C464 1.492 . S
H472 C455 0.930 . S
H473 C456 0.930 . S
H474 C457 0.930 . S
H475 C458 0.930 . S
H476 C465 0.930 . S
H477 C467 0.930 . S
H478 C468 0.930 . S
H479 C469 0.930 . S
Eu480 N511 2.657 . S
Eu480 N518 2.609 . S
Eu480 O524 2.558 . S
Eu480 O525 2.612 . S
Eu480 O527 2.339 . S
Eu480 O528 2.563 1_545 S
Eu480 O529 2.419 . S
Eu480 O531 2.380 . S
Eu480 O532 2.432 . S
Eu480 C544 2.848 . S
C481 C484 1.429 . S
C481 C485 1.411 . S
C481 N488 1.377 1_565 S
C482 C484 1.420 . S
C482 C486 1.423 . S
C482 C494 1.392 . S
C483 C485 1.420 . S
C483 C486 1.351 . S
C483 H506 0.931 . S
C484 C481 1.429 . S
C484 C482 1.420 . S
C484 N492 1.362 . S
C485 C481 1.411 . S
C485 C483 1.420 . S
C485 C490 1.395 . S
C486 C482 1.423 . S
C486 C483 1.351 . S
C486 H498 0.930 . S
C487 C489 1.400 . S
C487 C490 1.386 1_545 S
C487 H499 0.930 . S
N488 C481 1.377 1_545 S
N488 C489 1.321 . S
N488 Eu491 2.609 . S
C489 C487 1.400 . S
C489 N488 1.321 . S
C489 H496 0.930 . S
C490 C485 1.395 . S
C490 C487 1.386 1_565 S
C490 H509 0.930 . S
Eu491 N488 2.609 . S
Eu491 N492 2.657 1_545 S
Eu491 O525 2.380 . S
Eu491 O526 2.432 . S
Eu491 O530 2.558 . S
Eu491 O531 2.612 . S
Eu491 O533 2.339 . S
Eu491 O534 2.563 . S
Eu491 O535 2.419 . S
Eu491 C555 2.848 . S
N492 C484 1.362 . S
N492 Eu491 2.657 1_565 S
N492 C493 1.334 . S
C493 N492 1.334 . S
C493 C495 1.413 . S
C493 H500 0.929 . S
C494 C482 1.392 . S
C494 C495 1.367 . S
C494 H502 0.930 . S
C495 C493 1.413 . S
C495 C494 1.367 . S
C495 H497 0.930 . S
H496 C489 0.930 . S
H497 C495 0.930 . S
H498 C486 0.930 . S
H499 C487 0.930 . S
H500 C493 0.929 . S
H501 C515 0.930 . S
H502 C494 0.930 . S
H503 C521 0.930 . S
H504 C512 0.929 . S
H505 C519 0.930 . S
H506 C483 0.931 . S
H507 C513 0.930 . S
H508 C546 0.930 . S
H509 C490 0.930 . S
H510 C545 0.931 . S
N511 Eu480 2.657 . S
N511 C512 1.334 . S
N511 C516 1.362 . S
C512 H504 0.929 . S
C512 N511 1.334 . S
C512 C515 1.413 . S
C513 H507 0.930 . S
C513 C514 1.392 . S
C513 C515 1.367 . S
C514 C513 1.392 . S
C514 C516 1.420 . S
C514 C546 1.423 . S
C515 H501 0.930 . S
C515 C512 1.413 . S
C515 C513 1.367 . S
C516 N511 1.362 . S
C516 C514 1.420 . S
C516 C520 1.429 . S
H517 C522 0.930 . S
N518 Eu480 2.609 . S
N518 C520 1.377 . S
N518 C521 1.321 . S
C519 H505 0.930 . S
C519 C521 1.400 . S
C519 C522 1.386 . S
C520 C516 1.429 . S
C520 N518 1.377 . S
C520 C523 1.411 . S
C521 H503 0.930 . S
C521 N518 1.321 . S
C521 C519 1.400 . S
C522 H517 0.930 . S
C522 C519 1.386 . S
C522 C523 1.395 . S
C523 C520 1.411 . S
C523 C522 1.395 . S
C523 C545 1.420 . S
O524 Eu480 2.558 . S
O524 C544 1.257 . S
O525 Eu480 2.612 . S
O525 Eu491 2.380 . S
O525 C536 1.276 1_545 S
O526 Eu491 2.432 . S
O526 C543 1.264 . S
O527 Eu480 2.339 . S
O527 C543 1.254 . S
O528 Eu480 2.563 1_565 S
O528 C536 1.235 . S
O529 Eu480 2.419 . S
O529 C544 1.249 . S
O530 Eu491 2.558 . S
O530 C555 1.257 . S
O531 Eu480 2.380 . S
O531 Eu491 2.612 . S
O531 C547 1.276 . S
O532 Eu480 2.432 . S
O532 C554 1.264 . S
O533 Eu491 2.339 . S
O533 C554 1.254 . S
O534 Eu491 2.563 . S
O534 C547 1.235 . S
O535 Eu491 2.419 . S
O535 C555 1.249 . S
C536 O525 1.276 1_565 S
C536 O528 1.235 . S
C537 C539 1.393 1_545 S
C537 C541 1.395 . S
C537 C544 1.492 . S
C538 C539 1.392 . S
C538 C540 1.386 . S
C539 C537 1.393 1_565 S
C539 C538 1.392 . S
C539 H556 0.930 . S
C540 C538 1.386 . S
C540 C542 1.395 . S
C540 H557 0.930 . S
C541 C537 1.395 . S
C541 C542 1.379 1_545 S
C541 H558 0.930 . S
C542 C540 1.395 . S
C542 C541 1.379 1_565 S
C542 H559 0.930 . S
C543 O526 1.264 . S
C543 O527 1.254 . S
C544 Eu480 2.848 . S
C544 O524 1.257 . S
C544 O529 1.249 . S
C544 C537 1.492 . S
C545 H510 0.931 . S
C545 C523 1.420 . S
C545 C546 1.351 . S
C546 H508 0.930 . S
C546 C514 1.423 . S
C546 C545 1.351 . S
C547 O531 1.276 . S
C547 O534 1.235 . S
C548 C549 1.393 . S
C548 C552 1.395 . S
C548 C555 1.492 . S
C549 C548 1.393 . S
C549 C550 1.392 . S
C549 H560 0.930 . S
C550 C549 1.392 . S
C550 C551 1.386 . S
C551 C550 1.386 . S
C551 C553 1.395 . S
C551 H561 0.930 . S
C552 C548 1.395 . S
C552 C553 1.379 . S
C552 H562 0.930 . S
C553 C551 1.395 . S
C553 C552 1.379 . S
C553 H563 0.930 . S
C554 O532 1.264 . S
C554 O533 1.254 . S
C555 Eu491 2.848 . S
C555 O530 1.257 . S
C555 O535 1.249 . S
C555 C548 1.492 . S
H556 C539 0.930 . S
H557 C540 0.930 . S
H558 C541 0.930 . S
H559 C542 0.930 . S
H560 C549 0.930 . S
H561 C551 0.930 . S
H562 C552 0.930 . S
H563 C553 0.930 . S
Eu564 N595 2.657 . S
Eu564 N602 2.609 . S
Eu564 O608 2.558 . S
Eu564 O609 2.612 . S
Eu564 O611 2.339 . S
Eu564 O612 2.563 . S
Eu564 O613 2.419 . S
Eu564 O615 2.380 . S
Eu564 O616 2.432 . S
Eu564 C628 2.848 . S
C565 C568 1.429 . S
C565 C569 1.411 . S
C565 N572 1.377 . S
C566 C568 1.420 . S
C566 C570 1.423 . S
C566 C578 1.392 . S
C567 C569 1.420 . S
C567 C570 1.351 . S
C567 H590 0.931 . S
C568 C565 1.429 . S
C568 C566 1.420 . S
C568 N576 1.362 . S
C569 C565 1.411 . S
C569 C567 1.420 . S
C569 C574 1.395 . S
C570 C566 1.423 . S
C570 C567 1.351 . S
C570 H582 0.930 . S
C571 C573 1.400 . S
C571 C574 1.386 . S
C571 H583 0.930 . S
N572 C565 1.377 . S
N572 C573 1.321 . S
N572 Eu575 2.609 . S
C573 C571 1.400 . S
C573 N572 1.321 . S
C573 H580 0.930 . S
C574 C569 1.395 . S
C574 C571 1.386 . S
C574 H593 0.930 . S
Eu575 N572 2.609 . S
Eu575 N576 2.657 . S
Eu575 O609 2.380 . S
Eu575 O610 2.432 . S
Eu575 O614 2.558 . S
Eu575 O615 2.612 . S
Eu575 O617 2.339 . S
Eu575 O618 2.563 . S
Eu575 O619 2.419 . S
Eu575 C639 2.848 . S
N576 C568 1.362 . S
N576 Eu575 2.657 . S
N576 C577 1.334 . S
C577 N576 1.334 . S
C577 C579 1.413 . S
C577 H584 0.929 . S
C578 C566 1.392 . S
C578 C579 1.367 . S
C578 H586 0.930 . S
C579 C577 1.413 . S
C579 C578 1.367 . S
C579 H581 0.930 . S
H580 C573 0.930 . S
H581 C579 0.930 . S
H582 C570 0.930 . S
H583 C571 0.930 . S
H584 C577 0.929 . S
H585 C599 0.930 . S
H586 C578 0.930 . S
H587 C605 0.930 . S
H588 C596 0.929 . S
H589 C603 0.930 . S
H590 C567 0.931 . S
H591 C597 0.930 . S
H592 C630 0.930 . S
H593 C574 0.930 . S
H594 C629 0.931 . S
N595 Eu564 2.657 . S
N595 C596 1.334 . S
N595 C600 1.362 . S
C596 H588 0.929 . S
C596 N595 1.334 . S
C596 C599 1.413 . S
C597 H591 0.930 . S
C597 C598 1.392 . S
C597 C599 1.367 . S
C598 C597 1.392 . S
C598 C600 1.420 . S
C598 C630 1.423 . S
C599 H585 0.930 . S
C599 C596 1.413 . S
C599 C597 1.367 . S
C600 N595 1.362 . S
C600 C598 1.420 . S
C600 C604 1.429 . S
H601 C606 0.930 . S
N602 Eu564 2.609 . S
N602 C604 1.377 . S
N602 C605 1.321 . S
C603 H589 0.930 . S
C603 C605 1.400 . S
C603 C606 1.386 . S
C604 C600 1.429 . S
C604 N602 1.377 . S
C604 C607 1.411 . S
C605 H587 0.930 . S
C605 N602 1.321 . S
C605 C603 1.400 . S
C606 H601 0.930 . S
C606 C603 1.386 . S
C606 C607 1.395 . S
C607 C604 1.411 . S
C607 C606 1.395 . S
C607 C629 1.420 . S
O608 Eu564 2.558 . S
O608 C628 1.257 . S
O609 Eu564 2.612 . S
O609 Eu575 2.380 . S
O609 C620 1.276 . S
O610 Eu575 2.432 . S
O610 C627 1.264 . S
O611 Eu564 2.339 . S
O611 C627 1.254 . S
O612 Eu564 2.563 . S
O612 C620 1.235 . S
O613 Eu564 2.419 . S
O613 C628 1.249 . S
O614 Eu575 2.558 . S
O614 C639 1.257 . S
O615 Eu564 2.380 . S
O615 Eu575 2.612 . S
O615 C631 1.276 . S
O616 Eu564 2.432 . S
O616 C638 1.264 . S
O617 Eu575 2.339 . S
O617 C638 1.254 . S
O618 Eu575 2.563 . S
O618 C631 1.235 . S
O619 Eu575 2.419 . S
O619 C639 1.249 . S
C620 O609 1.276 . S
C620 O612 1.235 . S
C621 C623 1.393 . S
C621 C625 1.395 . S
C621 C628 1.492 . S
C622 C623 1.392 . S
C622 C624 1.386 . S
C623 C621 1.393 . S
C623 C622 1.392 . S
C623 H640 0.930 . S
C624 C622 1.386 . S
C624 C626 1.395 . S
C624 H641 0.930 . S
C625 C621 1.395 . S
C625 C626 1.379 . S
C625 H642 0.930 . S
C626 C624 1.395 . S
C626 C625 1.379 . S
C626 H643 0.930 . S
C627 O610 1.264 . S
C627 O611 1.254 . S
C628 Eu564 2.848 . S
C628 O608 1.257 . S
C628 O613 1.249 . S
C628 C621 1.492 . S
C629 H594 0.931 . S
C629 C607 1.420 . S
C629 C630 1.351 . S
C630 H592 0.930 . S
C630 C598 1.423 . S
C630 C629 1.351 . S
C631 O615 1.276 . S
C631 O618 1.235 . S
C632 C633 1.393 . S
C632 C636 1.395 . S
C632 C639 1.492 . S
C633 C632 1.393 . S
C633 C634 1.392 . S
C633 H644 0.930 . S
C634 C633 1.392 . S
C634 C635 1.386 . S
C635 C634 1.386 . S
C635 C637 1.395 . S
C635 H645 0.930 . S
C636 C632 1.395 . S
C636 C637 1.379 . S
C636 H646 0.930 . S
C637 C635 1.395 . S
C637 C636 1.379 . S
C637 H647 0.930 . S
C638 O616 1.264 . S
C638 O617 1.254 . S
C639 Eu575 2.848 . S
C639 O614 1.257 . S
C639 O619 1.249 . S
C639 C632 1.492 . S
H640 C623 0.930 . S
H641 C624 0.930 . S
H642 C625 0.930 . S
H643 C626 0.930 . S
H644 C633 0.930 . S
H645 C635 0.930 . S
H646 C636 0.930 . S
H647 C637 0.930 . S
Eu648 N679 2.657 . S
Eu648 N686 2.609 . S
Eu648 O692 2.558 . S
Eu648 O693 2.612 . S
Eu648 O695 2.339 . S
Eu648 O696 2.563 . S
Eu648 O697 2.419 . S
Eu648 O699 2.380 . S
Eu648 O700 2.432 . S
Eu648 C712 2.848 . S
C649 C652 1.429 . S
C649 C653 1.411 . S
C649 N656 1.377 . S
C650 C652 1.420 . S
C650 C654 1.423 . S
C650 C662 1.392 . S
C651 C653 1.420 . S
C651 C654 1.351 . S
C651 H674 0.931 . S
C652 C649 1.429 . S
C652 C650 1.420 . S
C652 N660 1.362 . S
C653 C649 1.411 . S
C653 C651 1.420 . S
C653 C658 1.395 . S
C654 C650 1.423 . S
C654 C651 1.351 . S
C654 H666 0.930 . S
C655 C657 1.400 . S
C655 C658 1.386 . S
C655 H667 0.930 . S
N656 C649 1.377 . S
N656 C657 1.321 . S
N656 Eu659 2.609 1_565 S
C657 C655 1.400 . S
C657 N656 1.321 . S
C657 H664 0.930 . S
C658 C653 1.395 . S
C658 C655 1.386 . S
C658 H677 0.930 . S
Eu659 N656 2.609 1_545 S
Eu659 N660 2.657 1_545 S
Eu659 O693 2.380 . S
Eu659 O694 2.432 . S
Eu659 O698 2.558 1_545 S
Eu659 O699 2.612 . S
Eu659 O701 2.339 . S
Eu659 O702 2.563 . S
Eu659 O703 2.419 1_545 S
Eu659 C723 2.848 1_545 S
N660 C652 1.362 . S
N660 Eu659 2.657 1_565 S
N660 C661 1.334 . S
C661 N660 1.334 . S
C661 C663 1.413 1_455 S
C661 H668 0.929 . S
C662 C650 1.392 . S
C662 C663 1.367 1_455 S
C662 H670 0.930 1_455 S
C663 C661 1.413 1_655 S
C663 C662 1.367 1_655 S
C663 H665 0.930 . S
H664 C657 0.930 . S
H665 C663 0.930 . S
H666 C654 0.930 . S
H667 C655 0.930 . S
H668 C661 0.929 . S
H669 C683 0.930 . S
H670 C662 0.930 1_655 S
H671 C689 0.930 . S
H672 C680 0.929 . S
H673 C687 0.926 1_655 S
H674 C651 0.931 . S
H675 C681 0.930 . S
H676 C714 0.930 . S
H677 C658 0.930 . S
H678 C713 0.931 . S
N679 Eu648 2.657 . S
N679 C680 1.334 . S
N679 C684 1.362 . S
C680 H672 0.929 . S
C680 N679 1.334 . S
C680 C683 1.413 . S
C681 H675 0.930 . S
C681 C682 1.392 . S
C681 C683 1.367 . S
C682 C681 1.392 . S
C682 C684 1.420 . S
C682 C714 1.423 . S
C683 H669 0.930 . S
C683 C680 1.413 . S
C683 C681 1.367 . S
C684 N679 1.362 . S
C684 C682 1.420 . S
C684 C688 1.429 . S
H685 C690 0.930 . S
N686 Eu648 2.609 . S
N686 C688 1.377 . S
N686 C689 1.321 . S
C687 H673 0.926 1_455 S
C687 C689 1.402 . S
C687 C690 1.387 . S
C688 C684 1.429 . S
C688 N686 1.377 . S
C688 C691 1.411 . S
C689 H671 0.930 . S
C689 N686 1.321 . S
C689 C687 1.402 . S
C690 H685 0.930 . S
C690 C687 1.387 . S
C690 C691 1.395 . S
C691 C688 1.411 . S
C691 C690 1.395 . S
C691 C713 1.420 . S
O692 Eu648 2.558 . S
O692 C712 1.257 . S
O693 Eu648 2.612 . S
O693 Eu659 2.380 . S
O693 C704 1.276 . S
O694 Eu659 2.432 . S
O694 C711 1.264 . S
O695 Eu648 2.339 . S
O695 C711 1.254 . S
O696 Eu648 2.563 . S
O696 C704 1.235 . S
O697 Eu648 2.419 . S
O697 C712 1.249 . S
O698 Eu659 2.558 1_565 S
O698 C723 1.257 . S
O699 Eu648 2.380 . S
O699 Eu659 2.612 . S
O699 C715 1.276 . S
O700 Eu648 2.432 . S
O700 C722 1.264 . S
O701 Eu659 2.339 . S
O701 C722 1.254 . S
O702 Eu659 2.563 . S
O702 C715 1.235 . S
O703 Eu659 2.419 1_565 S
O703 C723 1.249 . S
C704 O693 1.276 . S
C704 O696 1.235 . S
C705 C707 1.393 . S
C705 C709 1.395 . S
C705 C712 1.492 . S
C706 C707 1.392 . S
C706 C708 1.386 . S
C707 C705 1.393 . S
C707 C706 1.392 . S
C707 H724 0.930 . S
C708 C706 1.386 . S
C708 C710 1.395 . S
C708 H725 0.930 . S
C709 C705 1.395 . S
C709 C710 1.379 . S
C709 H726 0.930 . S
C710 C708 1.395 . S
C710 C709 1.379 . S
C710 H727 0.930 . S
C711 O694 1.264 . S
C711 O695 1.254 . S
C712 Eu648 2.848 . S
C712 O692 1.257 . S
C712 O697 1.249 . S
C712 C705 1.492 . S
C713 H678 0.931 . S
C713 C691 1.420 . S
C713 C714 1.351 . S
C714 H676 0.930 . S
C714 C682 1.423 . S
C714 C713 1.351 . S
C715 O699 1.276 . S
C715 O702 1.235 . S
C716 C717 1.393 . S
C716 C720 1.395 . S
C716 C723 1.492 . S
C717 C716 1.393 . S
C717 C718 1.392 . S
C717 H728 0.930 . S
C718 C717 1.392 . S
C718 C719 1.386 . S
C719 C718 1.386 . S
C719 C721 1.395 . S
C719 H729 0.930 . S
C720 C716 1.395 . S
C720 C721 1.379 . S
C720 H730 0.930 . S
C721 C719 1.395 . S
C721 C720 1.379 . S
C721 H731 0.930 . S
C722 O700 1.264 . S
C722 O701 1.254 . S
C723 Eu659 2.848 1_565 S
C723 O698 1.257 . S
C723 O703 1.249 . S
C723 C716 1.492 . S
H724 C707 0.930 . S
H725 C708 0.930 . S
H726 C709 0.930 . S
H727 C710 0.930 . S
H728 C717 0.930 . S
H729 C719 0.930 . S
H730 C720 0.930 . S
H731 C721 0.930 . S
Eu732 N763 2.657 . S
Eu732 N770 2.609 . S
Eu732 O776 2.558 . S
Eu732 O777 2.612 . S
Eu732 O779 2.339 . S
Eu732 O780 2.563 . S
Eu732 O781 2.419 . S
Eu732 O783 2.380 . S
Eu732 O784 2.432 . S
Eu732 C796 2.848 . S
C733 C736 1.429 . S
C733 C737 1.411 . S
C733 N740 1.377 . S
C734 C736 1.420 . S
C734 C738 1.423 . S
C734 C746 1.392 . S
C735 C737 1.420 . S
C735 C738 1.351 . S
C735 H758 0.931 . S
C736 C733 1.429 . S
C736 C734 1.420 . S
C736 N744 1.362 . S
C737 C733 1.411 . S
C737 C735 1.420 . S
C737 C742 1.395 . S
C738 C734 1.423 . S
C738 C735 1.351 . S
C738 H750 0.930 . S
C739 C741 1.400 . S
C739 C742 1.386 . S
C739 H751 0.930 . S
N740 C733 1.377 . S
N740 C741 1.321 . S
N740 Eu743 2.609 . S
C741 C739 1.400 . S
C741 N740 1.321 . S
C741 H748 0.930 . S
C742 C737 1.395 . S
C742 C739 1.386 . S
C742 H761 0.930 . S
Eu743 N740 2.609 . S
Eu743 N744 2.657 . S
Eu743 O777 2.380 . S
Eu743 O778 2.432 . S
Eu743 O782 2.558 . S
Eu743 O783 2.612 . S
Eu743 O785 2.339 . S
Eu743 O786 2.563 . S
Eu743 O787 2.419 . S
Eu743 C807 2.848 . S
N744 C736 1.362 . S
N744 Eu743 2.657 . S
N744 C745 1.334 . S
C745 N744 1.334 . S
C745 C747 1.413 . S
C745 H752 0.929 . S
C746 C734 1.392 . S
C746 C747 1.367 . S
C746 H754 0.930 . S
C747 C745 1.413 . S
C747 C746 1.367 . S
C747 H749 0.930 . S
H748 C741 0.930 . S
H749 C747 0.930 . S
H750 C738 0.930 . S
H751 C739 0.930 . S
H752 C745 0.929 . S
H753 C767 0.930 . S
H754 C746 0.930 . S
H755 C773 0.930 . S
H756 C764 0.929 . S
H757 C771 0.930 . S
H758 C735 0.931 . S
H759 C765 0.930 . S
H760 C798 0.930 . S
H761 C742 0.930 . S
H762 C797 0.931 . S
N763 Eu732 2.657 . S
N763 C764 1.334 . S
N763 C768 1.362 . S
C764 H756 0.929 . S
C764 N763 1.334 . S
C764 C767 1.413 . S
C765 H759 0.930 . S
C765 C766 1.392 . S
C765 C767 1.367 . S
C766 C765 1.392 . S
C766 C768 1.420 . S
C766 C798 1.423 . S
C767 H753 0.930 . S
C767 C764 1.413 . S
C767 C765 1.367 . S
C768 N763 1.362 . S
C768 C766 1.420 . S
C768 C772 1.429 . S
H769 C774 0.930 . S
N770 Eu732 2.609 . S
N770 C772 1.377 . S
N770 C773 1.321 . S
C771 H757 0.930 . S
C771 C773 1.400 . S
C771 C774 1.386 . S
C772 C768 1.429 . S
C772 N770 1.377 . S
C772 C775 1.411 . S
C773 H755 0.930 . S
C773 N770 1.321 . S
C773 C771 1.400 . S
C774 H769 0.930 . S
C774 C771 1.386 . S
C774 C775 1.395 . S
C775 C772 1.411 . S
C775 C774 1.395 . S
C775 C797 1.420 . S
O776 Eu732 2.558 . S
O776 C796 1.257 . S
O777 Eu732 2.612 . S
O777 Eu743 2.380 . S
O777 C788 1.276 . S
O778 Eu743 2.432 . S
O778 C795 1.264 . S
O779 Eu732 2.339 . S
O779 C795 1.254 . S
O780 Eu732 2.563 . S
O780 C788 1.235 . S
O781 Eu732 2.419 . S
O781 C796 1.249 . S
O782 Eu743 2.558 . S
O782 C807 1.257 . S
O783 Eu732 2.380 . S
O783 Eu743 2.612 . S
O783 C799 1.276 . S
O784 Eu732 2.432 . S
O784 C806 1.264 . S
O785 Eu743 2.339 . S
O785 C806 1.254 . S
O786 Eu743 2.563 . S
O786 C799 1.235 . S
O787 Eu743 2.419 . S
O787 C807 1.249 . S
C788 O777 1.276 . S
C788 O780 1.235 . S
C789 C791 1.393 . S
C789 C793 1.395 . S
C789 C796 1.492 . S
C790 C791 1.392 . S
C790 C792 1.386 . S
C791 C789 1.393 . S
C791 C790 1.392 . S
C791 H808 0.930 . S
C792 C790 1.386 . S
C792 C794 1.395 . S
C792 H809 0.930 . S
C793 C789 1.395 . S
C793 C794 1.379 . S
C793 H810 0.930 . S
C794 C792 1.395 . S
C794 C793 1.379 . S
C794 H811 0.930 . S
C795 O778 1.264 . S
C795 O779 1.254 . S
C796 Eu732 2.848 . S
C796 O776 1.257 . S
C796 O781 1.249 . S
C796 C789 1.492 . S
C797 H762 0.931 . S
C797 C775 1.420 . S
C797 C798 1.351 . S
C798 H760 0.930 . S
C798 C766 1.423 . S
C798 C797 1.351 . S
C799 O783 1.276 . S
C799 O786 1.235 . S
C800 C801 1.393 . S
C800 C804 1.395 . S
C800 C807 1.492 . S
C801 C800 1.393 . S
C801 C802 1.392 . S
C801 H812 0.930 . S
C802 C801 1.392 . S
C802 C803 1.386 . S
C803 C802 1.386 . S
C803 C805 1.395 . S
C803 H813 0.930 . S
C804 C800 1.395 . S
C804 C805 1.379 . S
C804 H814 0.930 . S
C805 C803 1.395 . S
C805 C804 1.379 . S
C805 H815 0.930 . S
C806 O784 1.264 . S
C806 O785 1.254 . S
C807 Eu743 2.848 . S
C807 O782 1.257 . S
C807 O787 1.249 . S
C807 C800 1.492 . S
H808 C791 0.930 . S
H809 C792 0.930 . S
H810 C793 0.930 . S
H811 C794 0.930 . S
H812 C801 0.930 . S
H813 C803 0.930 . S
H814 C804 0.930 . S
H815 C805 0.930 . S
Eu816 N847 2.657 . S
Eu816 N854 2.609 . S
Eu816 O860 2.558 1_545 S
Eu816 O861 2.612 . S
Eu816 O863 2.339 . S
Eu816 O864 2.563 . S
Eu816 O865 2.419 . S
Eu816 O867 2.380 . S
Eu816 O868 2.432 1_545 S
Eu816 C880 2.848 . S
C817 C820 1.429 . S
C817 C821 1.411 . S
C817 N824 1.377 . S
C818 C820 1.420 . S
C818 C822 1.423 . S
C818 C830 1.392 1_545 S
C819 C821 1.420 . S
C819 C822 1.351 . S
C819 H842 0.931 . S
C820 C817 1.429 . S
C820 C818 1.420 . S
C820 N828 1.362 . S
C821 C817 1.411 . S
C821 C819 1.420 . S
C821 C826 1.395 . S
C822 C818 1.423 . S
C822 C819 1.351 . S
C822 H834 0.930 . S
C823 C825 1.400 . S
C823 C826 1.386 . S
C823 H835 0.930 . S
N824 C817 1.377 . S
N824 C825 1.321 . S
N824 Eu827 2.609 . S
C825 C823 1.400 . S
C825 N824 1.321 . S
C825 H832 0.930 . S
C826 C821 1.395 . S
C826 C823 1.386 . S
C826 H845 0.930 . S
Eu827 N824 2.609 . S
Eu827 N828 2.657 . S
Eu827 O861 2.380 1_556 S
Eu827 O862 2.432 1_556 S
Eu827 O866 2.558 . S
Eu827 O867 2.612 1_556 S
Eu827 O869 2.339 . S
Eu827 O870 2.563 . S
Eu827 O871 2.419 . S
Eu827 C891 2.848 . S
N828 C820 1.362 . S
N828 Eu827 2.657 . S
N828 C829 1.334 1_545 S
C829 N828 1.334 1_565 S
C829 C831 1.413 . S
C829 H836 0.929 . S
C830 C818 1.392 1_565 S
C830 C831 1.367 . S
C830 H838 0.930 . S
C831 C829 1.413 . S
C831 C830 1.367 . S
C831 H833 0.930 . S
H832 C825 0.930 . S
H833 C831 0.930 . S
H834 C822 0.930 . S
H835 C823 0.930 . S
H836 C829 0.929 . S
H837 C851 0.930 . S
H838 C830 0.930 . S
H839 C857 0.930 . S
H840 C848 0.929 . S
H841 C855 0.930 . S
H842 C819 0.931 . S
H843 C849 0.930 . S
H844 C882 0.930 . S
H845 C826 0.930 . S
H846 C881 0.931 . S
N847 Eu816 2.657 . S
N847 C848 1.334 . S
N847 C852 1.362 . S
C848 H840 0.929 . S
C848 N847 1.334 . S
C848 C851 1.413 . S
C849 H843 0.930 . S
C849 C850 1.392 . S
C849 C851 1.367 . S
C850 C849 1.392 . S
C850 C852 1.420 . S
C850 C882 1.423 . S
C851 H837 0.930 . S
C851 C848 1.413 . S
C851 C849 1.367 . S
C852 N847 1.362 . S
C852 C850 1.420 . S
C852 C856 1.429 . S
H853 C858 0.930 . S
N854 Eu816 2.609 . S
N854 C856 1.377 . S
N854 C857 1.321 1_545 S
C855 H841 0.930 . S
C855 C857 1.400 . S
C855 C858 1.386 . S
C856 C852 1.429 . S
C856 N854 1.377 . S
C856 C859 1.411 . S
C857 H839 0.930 . S
C857 N854 1.321 1_565 S
C857 C855 1.400 . S
C858 H853 0.930 . S
C858 C855 1.386 . S
C858 C859 1.395 1_565 S
C859 C856 1.411 . S
C859 C858 1.395 1_545 S
C859 C881 1.420 . S
O860 Eu816 2.558 1_565 S
O860 C880 1.257 1_565 S
O861 Eu816 2.612 . S
O861 Eu827 2.380 1_554 S
O861 C872 1.276 . S
O862 Eu827 2.432 1_554 S
O862 C879 1.264 . S
O863 Eu816 2.339 . S
O863 C879 1.254 . S
O864 Eu816 2.563 . S
O864 C872 1.235 . S
O865 Eu816 2.419 . S
O865 C880 1.249 . S
O866 Eu827 2.558 . S
O866 C891 1.257 . S
O867 Eu816 2.380 . S
O867 Eu827 2.612 1_554 S
O867 C883 1.276 . S
O868 Eu816 2.432 1_565 S
O868 C890 1.264 1_554 S
O869 Eu827 2.339 . S
O869 C890 1.254 1_545 S
O870 Eu827 2.563 . S
O870 C883 1.235 1_556 S
O871 Eu827 2.419 . S
O871 C891 1.249 . S
C872 O861 1.276 . S
C872 O864 1.235 . S
C873 C875 1.399 . S
C873 C877 1.386 1_545 S
C873 C880 1.495 . S
C874 C875 1.392 . S
C874 C876 1.386 1_545 S
C875 C873 1.399 . S
C875 C874 1.392 . S
C875 H892 0.930 . S
C876 C874 1.386 1_565 S
C876 C878 1.395 . S
C876 H893 0.930 . S
C877 C873 1.386 1_565 S
C877 C878 1.379 . S
C877 H894 0.930 . S
C878 C876 1.395 . S
C878 C877 1.379 . S
C878 H895 0.930 . S
C879 O862 1.264 . S
C879 O863 1.254 . S
C880 Eu816 2.848 . S
C880 O860 1.257 1_545 S
C880 O865 1.249 . S
C880 C873 1.495 . S
C881 H846 0.931 . S
C881 C859 1.420 . S
C881 C882 1.351 . S
C882 H844 0.930 . S
C882 C850 1.423 . S
C882 C881 1.351 . S
C883 O867 1.276 . S
C883 O870 1.235 1_554 S
C884 C885 1.393 . S
C884 C888 1.395 . S
C884 C891 1.492 . S
C885 C884 1.393 . S
C885 C886 1.392 . S
C885 H896 0.930 . S
C886 C885 1.392 . S
C886 C887 1.386 . S
C887 C886 1.386 . S
C887 C889 1.395 . S
C887 H897 0.930 . S
C888 C884 1.395 . S
C888 C889 1.379 . S
C888 H898 0.930 . S
C889 C887 1.395 . S
C889 C888 1.379 . S
C889 H899 0.930 . S
C890 O868 1.264 1_556 S
C890 O869 1.254 1_565 S
C891 Eu827 2.848 . S
C891 O866 1.257 . S
C891 O871 1.249 . S
C891 C884 1.492 . S
H892 C875 0.930 . S
H893 C876 0.930 . S
H894 C877 0.930 . S
H895 C878 0.930 . S
H896 C885 0.930 . S
H897 C887 0.930 . S
H898 C888 0.930 . S
H899 C889 0.930 . S
Eu900 N931 2.657 . S
Eu900 N938 2.609 . S
Eu900 O944 2.558 . S
Eu900 O945 2.612 . S
Eu900 O947 2.339 . S
Eu900 O948 2.563 . S
Eu900 O949 2.419 . S
Eu900 O951 2.380 . S
Eu900 O952 2.432 . S
Eu900 C964 2.848 . S
C901 C904 1.429 . S
C901 C905 1.411 . S
C901 N908 1.377 . S
C902 C904 1.420 . S
C902 C906 1.423 . S
C902 C914 1.392 . S
C903 C905 1.420 . S
C903 C906 1.351 . S
C903 H926 0.931 . S
C904 C901 1.429 . S
C904 C902 1.420 . S
C904 N912 1.362 . S
C905 C901 1.411 . S
C905 C903 1.420 . S
C905 C910 1.395 . S
C906 C902 1.423 . S
C906 C903 1.351 . S
C906 H918 0.930 . S
C907 C909 1.400 . S
C907 C910 1.386 . S
C907 H919 0.930 . S
N908 C901 1.377 . S
N908 C909 1.321 . S
N908 Eu911 2.609 . S
C909 C907 1.400 . S
C909 N908 1.321 . S
C909 H916 0.930 . S
C910 C905 1.395 . S
C910 C907 1.386 . S
C910 H929 0.930 . S
Eu911 N908 2.609 . S
Eu911 N912 2.657 . S
Eu911 O945 2.380 . S
Eu911 O946 2.432 . S
Eu911 O950 2.558 . S
Eu911 O951 2.612 . S
Eu911 O953 2.339 . S
Eu911 O954 2.563 . S
Eu911 O955 2.419 . S
Eu911 C975 2.848 . S
N912 C904 1.362 . S
N912 Eu911 2.657 . S
N912 C913 1.334 . S
C913 N912 1.334 . S
C913 C915 1.413 . S
C913 H920 0.929 . S
C914 C902 1.392 . S
C914 C915 1.367 . S
C914 H922 0.930 . S
C915 C913 1.413 . S
C915 C914 1.367 . S
C915 H917 0.930 . S
H916 C909 0.930 . S
H917 C915 0.930 . S
H918 C906 0.930 . S
H919 C907 0.930 . S
H920 C913 0.929 . S
H921 C935 0.930 . S
H922 C914 0.930 . S
H923 C941 0.930 . S
H924 C932 0.929 . S
H925 C939 0.930 . S
H926 C903 0.931 . S
H927 C933 0.930 . S
H928 C966 0.930 . S
H929 C910 0.930 . S
H930 C965 0.931 . S
N931 Eu900 2.657 . S
N931 C932 1.334 . S
N931 C936 1.362 . S
C932 H924 0.929 . S
C932 N931 1.334 . S
C932 C935 1.413 . S
C933 H927 0.930 . S
C933 C934 1.392 . S
C933 C935 1.367 . S
C934 C933 1.392 . S
C934 C936 1.420 . S
C934 C966 1.423 . S
C935 H921 0.930 . S
C935 C932 1.413 . S
C935 C933 1.367 . S
C936 N931 1.362 . S
C936 C934 1.420 . S
C936 C940 1.429 . S
H937 C942 0.930 . S
N938 Eu900 2.609 . S
N938 C940 1.377 . S
N938 C941 1.321 . S
C939 H925 0.930 . S
C939 C941 1.400 . S
C939 C942 1.386 . S
C940 C936 1.429 . S
C940 N938 1.377 . S
C940 C943 1.411 . S
C941 H923 0.930 . S
C941 N938 1.321 . S
C941 C939 1.400 . S
C942 H937 0.930 . S
C942 C939 1.386 . S
C942 C943 1.395 . S
C943 C940 1.411 . S
C943 C942 1.395 . S
C943 C965 1.420 . S
O944 Eu900 2.558 . S
O944 C964 1.257 . S
O945 Eu900 2.612 . S
O945 Eu911 2.380 . S
O945 C956 1.276 . S
O946 Eu911 2.432 . S
O946 C963 1.264 . S
O947 Eu900 2.339 . S
O947 C963 1.254 . S
O948 Eu900 2.563 . S
O948 C956 1.235 . S
O949 Eu900 2.419 . S
O949 C964 1.249 . S
O950 Eu911 2.558 . S
O950 C975 1.257 . S
O951 Eu900 2.380 . S
O951 Eu911 2.612 . S
O951 C967 1.276 . S
O952 Eu900 2.432 . S
O952 C974 1.264 . S
O953 Eu911 2.339 . S
O953 C974 1.254 . S
O954 Eu911 2.563 . S
O954 C967 1.235 . S
O955 Eu911 2.419 . S
O955 C975 1.249 . S
C956 O945 1.276 . S
C956 O948 1.235 . S
C957 C959 1.393 . S
C957 C961 1.395 . S
C957 C964 1.492 . S
C958 C959 1.392 . S
C958 C960 1.386 . S
C959 C957 1.393 . S
C959 C958 1.392 . S
C959 H976 0.930 . S
C960 C958 1.386 . S
C960 C962 1.395 . S
C960 H977 0.930 . S
C961 C957 1.395 . S
C961 C962 1.379 . S
C961 H978 0.930 . S
C962 C960 1.395 . S
C962 C961 1.379 . S
C962 H979 0.930 . S
C963 O946 1.264 . S
C963 O947 1.254 . S
C964 Eu900 2.848 . S
C964 O944 1.257 . S
C964 O949 1.249 . S
C964 C957 1.492 . S
C965 H930 0.931 . S
C965 C943 1.420 . S
C965 C966 1.351 . S
C966 H928 0.930 . S
C966 C934 1.423 . S
C966 C965 1.351 . S
C967 O951 1.276 . S
C967 O954 1.235 . S
C968 C969 1.393 . S
C968 C972 1.395 . S
C968 C975 1.492 . S
C969 C968 1.393 . S
C969 C970 1.392 . S
C969 H980 0.930 . S
C970 C969 1.392 . S
C970 C971 1.386 . S
C971 C970 1.386 . S
C971 C973 1.395 . S
C971 H981 0.930 . S
C972 C968 1.395 . S
C972 C973 1.379 . S
C972 H982 0.930 . S
C973 C971 1.395 . S
C973 C972 1.379 . S
C973 H983 0.930 . S
C974 O952 1.264 . S
C974 O953 1.254 . S
C975 Eu911 2.848 . S
C975 O950 1.257 . S
C975 O955 1.249 . S
C975 C968 1.492 . S
H976 C959 0.930 . S
H977 C960 0.930 . S
H978 C961 0.930 . S
H979 C962 0.930 . S
H980 C969 0.930 . S
H981 C971 0.930 . S
H982 C972 0.930 . S
H983 C973 0.930 . S
Eu984 N1015 2.657 . S
Eu984 N1022 2.609 . S
Eu984 O1028 2.558 . S
Eu984 O1029 2.612 1_554 S
Eu984 O1031 2.339 . S
Eu984 O1032 2.563 1_554 S
Eu984 O1033 2.419 . S
Eu984 O1035 2.380 . S
Eu984 O1036 2.432 . S
Eu984 C1048 2.848 . S
C985 C988 1.429 . S
C985 C989 1.411 . S
C985 N992 1.377 . S
C986 C988 1.420 . S
C986 C990 1.423 . S
C986 C998 1.392 . S
C987 C989 1.420 . S
C987 C990 1.351 . S
C987 H1010 0.931 . S
C988 C985 1.429 . S
C988 C986 1.420 . S
C988 N996 1.362 . S
C989 C985 1.411 . S
C989 C987 1.420 . S
C989 C994 1.395 . S
C990 C986 1.423 . S
C990 C987 1.351 . S
C990 H1002 0.930 . S
C991 C993 1.400 . S
C991 C994 1.386 . S
C991 H1003 0.930 . S
N992 C985 1.377 . S
N992 C993 1.321 . S
N992 Eu995 2.609 1_556 S
C993 C991 1.400 . S
C993 N992 1.321 . S
C993 H1000 0.930 . S
C994 C989 1.395 . S
C994 C991 1.386 . S
C994 H1013 0.930 . S
Eu995 N992 2.609 1_554 S
Eu995 N996 2.657 1_554 S
Eu995 O1029 2.380 1_554 S
Eu995 O1030 2.432 . S
Eu995 O1034 2.558 . S
Eu995 O1035 2.612 . S
Eu995 O1037 2.339 . S
Eu995 O1038 2.563 . S
Eu995 O1039 2.419 . S
Eu995 C1059 2.848 . S
N996 C988 1.362 . S
N996 Eu995 2.657 1_556 S
N996 C997 1.334 . S
C997 N996 1.334 . S
C997 C999 1.413 . S
C997 H1004 0.929 . S
C998 C986 1.392 . S
C998 C999 1.367 . S
C998 H1006 0.930 . S
C999 C997 1.413 . S
C999 C998 1.367 . S
C999 H1001 0.930 . S
H1000 C993 0.930 . S
H1001 C999 0.930 . S
H1002 C990 0.930 . S
H1003 C991 0.930 . S
H1004 C997 0.929 . S
H1005 C1019 0.930 . S
H1006 C998 0.930 . S
H1007 C1025 0.930 . S
H1008 C1016 0.929 . S
H1009 C1023 0.930 . S
H1010 C987 0.931 . S
H1011 C1017 0.930 . S
H1012 C1050 0.930 . S
H1013 C994 0.930 . S
H1014 C1049 0.931 . S
N1015 Eu984 2.657 . S
N1015 C1016 1.334 . S
N1015 C1020 1.362 . S
C1016 H1008 0.929 . S
C1016 N1015 1.334 . S
C1016 C1019 1.413 . S
C1017 H1011 0.930 . S
C1017 C1018 1.392 . S
C1017 C1019 1.367 . S
C1018 C1017 1.392 . S
C1018 C1020 1.420 . S
C1018 C1050 1.423 . S
C1019 H1005 0.930 . S
C1019 C1016 1.413 . S
C1019 C1017 1.367 . S
C1020 N1015 1.362 . S
C1020 C1018 1.420 . S
C1020 C1024 1.429 . S
H1021 C1026 0.930 . S
N1022 Eu984 2.609 . S
N1022 C1024 1.377 . S
N1022 C1025 1.321 . S
C1023 H1009 0.930 . S
C1023 C1025 1.400 . S
C1023 C1026 1.386 . S
C1024 C1020 1.429 . S
C1024 N1022 1.377 . S
C1024 C1027 1.411 . S
C1025 H1007 0.930 . S
C1025 N1022 1.321 . S
C1025 C1023 1.400 . S
C1026 H1021 0.930 . S
C1026 C1023 1.386 . S
C1026 C1027 1.395 . S
C1027 C1024 1.411 . S
C1027 C1026 1.395 . S
C1027 C1049 1.420 . S
O1028 Eu984 2.558 . S
O1028 C1048 1.257 . S
O1029 Eu984 2.612 1_556 S
O1029 Eu995 2.380 1_556 S
O1029 C1040 1.276 . S
O1030 Eu995 2.432 . S
O1030 C1047 1.264 . S
O1031 Eu984 2.339 . S
O1031 C1047 1.254 . S
O1032 Eu984 2.563 1_556 S
O1032 C1040 1.235 . S
O1033 Eu984 2.419 . S
O1033 C1048 1.249 . S
O1034 Eu995 2.558 . S
O1034 C1059 1.257 . S
O1035 Eu984 2.380 . S
O1035 Eu995 2.612 . S
O1035 C1051 1.276 . S
O1036 Eu984 2.432 . S
O1036 C1058 1.264 . S
O1037 Eu995 2.339 . S
O1037 C1058 1.254 . S
O1038 Eu995 2.563 . S
O1038 C1051 1.235 . S
O1039 Eu995 2.419 . S
O1039 C1059 1.249 . S
C1040 O1029 1.276 . S
C1040 O1032 1.235 . S
C1041 C1043 1.393 . S
C1041 C1045 1.395 . S
C1041 C1048 1.492 . S
C1042 C1043 1.392 1_556 S
C1042 C1044 1.386 1_556 S
C1043 C1041 1.393 . S
C1043 C1042 1.392 1_554 S
C1043 H1060 0.934 . S
C1044 C1042 1.386 1_554 S
C1044 C1046 1.395 . S
C1044 H1061 0.930 . S
C1045 C1041 1.395 . S
C1045 C1046 1.379 . S
C1045 H1062 0.930 . S
C1046 C1044 1.395 . S
C1046 C1045 1.379 . S
C1046 H1063 0.930 . S
C1047 O1030 1.264 . S
C1047 O1031 1.254 . S
C1048 Eu984 2.848 . S
C1048 O1028 1.257 . S
C1048 O1033 1.249 . S
C1048 C1041 1.492 . S
C1049 H1014 0.931 . S
C1049 C1027 1.420 . S
C1049 C1050 1.351 . S
C1050 H1012 0.930 . S
C1050 C1018 1.423 . S
C1050 C1049 1.351 . S
C1051 O1035 1.276 . S
C1051 O1038 1.235 . S
C1052 C1053 1.393 . S
C1052 C1056 1.395 . S
C1052 C1059 1.492 . S
C1053 C1052 1.393 . S
C1053 C1054 1.392 . S
C1053 H1064 0.930 . S
C1054 C1053 1.392 . S
C1054 C1055 1.386 . S
C1055 C1054 1.386 . S
C1055 C1057 1.395 . S
C1055 H1065 0.930 . S
C1056 C1052 1.395 . S
C1056 C1057 1.379 . S
C1056 H1066 0.930 . S
C1057 C1055 1.395 . S
C1057 C1056 1.379 . S
C1057 H1067 0.930 . S
C1058 O1036 1.264 . S
C1058 O1037 1.254 . S
C1059 Eu995 2.848 . S
C1059 O1034 1.257 . S
C1059 O1039 1.249 . S
C1059 C1052 1.492 . S
H1060 C1043 0.934 . S
H1061 C1044 0.930 . S
H1062 C1045 0.930 . S
H1063 C1046 0.930 . S
H1064 C1053 0.930 . S
H1065 C1055 0.930 . S
H1066 C1056 0.930 . S
H1067 C1057 0.930 . S
Eu1068 N1099 2.657 . S
Eu1068 N1106 2.609 . S
Eu1068 O1112 2.558 . S
Eu1068 O1113 2.612 . S
Eu1068 O1115 2.339 . S
Eu1068 O1116 2.563 . S
Eu1068 O1117 2.419 . S
Eu1068 O1119 2.380 . S
Eu1068 O1120 2.432 . S
Eu1068 C1132 2.848 . S
C1069 C1072 1.429 . S
C1069 C1073 1.411 . S
C1069 N1076 1.377 . S
C1070 C1072 1.420 . S
C1070 C1074 1.423 . S
C1070 C1082 1.392 . S
C1071 C1073 1.420 . S
C1071 C1074 1.351 . S
C1071 H1094 0.931 . S
C1072 C1069 1.429 . S
C1072 C1070 1.420 . S
C1072 N1080 1.362 . S
C1073 C1069 1.411 . S
C1073 C1071 1.420 . S
C1073 C1078 1.395 . S
C1074 C1070 1.423 . S
C1074 C1071 1.351 . S
C1074 H1086 0.930 . S
C1075 C1077 1.400 . S
C1075 C1078 1.386 . S
C1075 H1087 0.930 . S
N1076 C1069 1.377 . S
N1076 C1077 1.321 . S
N1076 Eu1079 2.609 . S
C1077 C1075 1.400 . S
C1077 N1076 1.321 . S
C1077 H1084 0.930 . S
C1078 C1073 1.395 . S
C1078 C1075 1.386 . S
C1078 H1097 0.930 . S
Eu1079 N1076 2.609 . S
Eu1079 N1080 2.657 . S
Eu1079 O1113 2.380 . S
Eu1079 O1114 2.432 . S
Eu1079 O1118 2.558 . S
Eu1079 O1119 2.612 . S
Eu1079 O1121 2.339 . S
Eu1079 O1122 2.563 . S
Eu1079 O1123 2.419 . S
Eu1079 C1143 2.848 . S
N1080 C1072 1.362 . S
N1080 Eu1079 2.657 . S
N1080 C1081 1.334 . S
C1081 N1080 1.334 . S
C1081 C1083 1.413 . S
C1081 H1088 0.929 . S
C1082 C1070 1.392 . S
C1082 C1083 1.367 . S
C1082 H1090 0.930 . S
C1083 C1081 1.413 . S
C1083 C1082 1.367 . S
C1083 H1085 0.930 . S
H1084 C1077 0.930 . S
H1085 C1083 0.930 . S
H1086 C1074 0.930 . S
H1087 C1075 0.930 . S
H1088 C1081 0.929 . S
H1089 C1103 0.930 . S
H1090 C1082 0.930 . S
H1091 C1109 0.930 . S
H1092 C1100 0.929 . S
H1093 C1107 0.930 . S
H1094 C1071 0.931 . S
H1095 C1101 0.930 . S
H1096 C1134 0.930 . S
H1097 C1078 0.930 . S
H1098 C1133 0.931 . S
N1099 Eu1068 2.657 . S
N1099 C1100 1.334 . S
N1099 C1104 1.362 . S
C1100 H1092 0.929 . S
C1100 N1099 1.334 . S
C1100 C1103 1.413 . S
C1101 H1095 0.930 . S
C1101 C1102 1.392 . S
C1101 C1103 1.367 . S
C1102 C1101 1.392 . S
C1102 C1104 1.420 . S
C1102 C1134 1.423 . S
C1103 H1089 0.930 . S
C1103 C1100 1.413 . S
C1103 C1101 1.367 . S
C1104 N1099 1.362 . S
C1104 C1102 1.420 . S
C1104 C1108 1.429 . S
H1105 C1110 0.930 . S
N1106 Eu1068 2.609 . S
N1106 C1108 1.377 . S
N1106 C1109 1.321 . S
C1107 H1093 0.930 . S
C1107 C1109 1.400 . S
C1107 C1110 1.386 . S
C1108 C1104 1.429 . S
C1108 N1106 1.377 . S
C1108 C1111 1.411 . S
C1109 H1091 0.930 . S
C1109 N1106 1.321 . S
C1109 C1107 1.400 . S
C1110 H1105 0.930 . S
C1110 C1107 1.386 . S
C1110 C1111 1.395 . S
C1111 C1108 1.411 . S
C1111 C1110 1.395 . S
C1111 C1133 1.420 . S
O1112 Eu1068 2.558 . S
O1112 C1132 1.257 . S
O1113 Eu1068 2.612 . S
O1113 Eu1079 2.380 . S
O1113 C1124 1.276 . S
O1114 Eu1079 2.432 . S
O1114 C1131 1.264 . S
O1115 Eu1068 2.339 . S
O1115 C1131 1.254 . S
O1116 Eu1068 2.563 . S
O1116 C1124 1.235 . S
O1117 Eu1068 2.419 . S
O1117 C1132 1.249 . S
O1118 Eu1079 2.558 . S
O1118 C1143 1.257 . S
O1119 Eu1068 2.380 . S
O1119 Eu1079 2.612 . S
O1119 C1135 1.276 . S
O1120 Eu1068 2.432 . S
O1120 C1142 1.264 . S
O1121 Eu1079 2.339 . S
O1121 C1142 1.254 . S
O1122 Eu1079 2.563 . S
O1122 C1135 1.235 . S
O1123 Eu1079 2.419 . S
O1123 C1143 1.249 . S
C1124 O1113 1.276 . S
C1124 O1116 1.235 . S
C1125 C1127 1.393 . S
C1125 C1129 1.395 . S
C1125 C1132 1.492 . S
C1126 C1127 1.392 . S
C1126 C1128 1.386 . S
C1127 C1125 1.393 . S
C1127 C1126 1.392 . S
C1127 H1144 0.930 . S
C1128 C1126 1.386 . S
C1128 C1130 1.395 . S
C1128 H1145 0.930 . S
C1129 C1125 1.395 . S
C1129 C1130 1.379 . S
C1129 H1146 0.930 . S
C1130 C1128 1.395 . S
C1130 C1129 1.379 . S
C1130 H1147 0.930 . S
C1131 O1114 1.264 . S
C1131 O1115 1.254 . S
C1132 Eu1068 2.848 . S
C1132 O1112 1.257 . S
C1132 O1117 1.249 . S
C1132 C1125 1.492 . S
C1133 H1098 0.931 . S
C1133 C1111 1.420 . S
C1133 C1134 1.351 . S
C1134 H1096 0.930 . S
C1134 C1102 1.423 . S
C1134 C1133 1.351 . S
C1135 O1119 1.276 . S
C1135 O1122 1.235 . S
C1136 C1137 1.393 . S
C1136 C1140 1.395 . S
C1136 C1143 1.492 . S
C1137 C1136 1.393 . S
C1137 C1138 1.392 . S
C1137 H1148 0.930 . S
C1138 C1137 1.392 . S
C1138 C1139 1.386 . S
C1139 C1138 1.386 . S
C1139 C1141 1.395 . S
C1139 H1149 0.930 . S
C1140 C1136 1.395 . S
C1140 C1141 1.379 . S
C1140 H1150 0.930 . S
C1141 C1139 1.395 . S
C1141 C1140 1.379 . S
C1141 H1151 0.930 . S
C1142 O1120 1.264 . S
C1142 O1121 1.254 . S
C1143 Eu1079 2.848 . S
C1143 O1118 1.257 . S
C1143 O1123 1.249 . S
C1143 C1136 1.492 . S
H1144 C1127 0.930 . S
H1145 C1128 0.930 . S
H1146 C1129 0.930 . S
H1147 C1130 0.930 . S
H1148 C1137 0.930 . S
H1149 C1139 0.930 . S
H1150 C1140 0.930 . S
H1151 C1141 0.930 . S
Eu1152 N1183 2.657 . S
Eu1152 N1190 2.609 . S
Eu1152 O1196 2.558 . S
Eu1152 O1197 2.612 . S
Eu1152 O1199 2.339 . S
Eu1152 O1200 2.563 . S
Eu1152 O1201 2.419 . S
Eu1152 O1203 2.380 . S
Eu1152 O1204 2.432 . S
Eu1152 C1216 2.848 . S
C1153 C1156 1.429 . S
C1153 C1157 1.411 1_455 S
C1153 N1160 1.377 . S
C1154 C1156 1.420 1_655 S
C1154 C1158 1.423 . S
C1154 C1166 1.392 . S
C1155 C1157 1.420 . S
C1155 C1158 1.351 . S
C1155 H1178 0.931 . S
C1156 C1153 1.429 . S
C1156 C1154 1.420 1_455 S
C1156 N1164 1.362 . S
C1157 C1153 1.411 1_655 S
C1157 C1155 1.420 . S
C1157 C1162 1.395 . S
C1158 C1154 1.423 . S
C1158 C1155 1.351 . S
C1158 H1170 0.930 . S
C1159 C1161 1.400 . S
C1159 C1162 1.386 1_455 S
C1159 H1171 0.930 . S
N1160 C1153 1.377 . S
N1160 C1161 1.321 . S
N1160 Eu1163 2.609 . S
C1161 C1159 1.400 . S
C1161 N1160 1.321 . S
C1161 H1168 0.930 . S
C1162 C1157 1.395 . S
C1162 C1159 1.386 1_655 S
C1162 H1181 0.930 . S
Eu1163 N1160 2.609 . S
Eu1163 N1164 2.657 . S
Eu1163 O1197 2.380 . S
Eu1163 O1198 2.432 . S
Eu1163 O1202 2.558 . S
Eu1163 O1203 2.612 . S
Eu1163 O1205 2.339 . S
Eu1163 O1206 2.563 . S
Eu1163 O1207 2.419 . S
Eu1163 C1227 2.848 . S
N1164 C1156 1.362 . S
N1164 Eu1163 2.657 . S
N1164 C1165 1.334 . S
C1165 N1164 1.334 . S
C1165 C1167 1.413 1_455 S
C1165 H1172 0.929 . S
C1166 C1154 1.392 . S
C1166 C1167 1.367 . S
C1166 H1174 0.930 . S
C1167 C1165 1.413 1_655 S
C1167 C1166 1.367 . S
C1167 H1169 0.930 . S
H1168 C1161 0.930 . S
H1169 C1167 0.930 . S
H1170 C1158 0.930 . S
H1171 C1159 0.930 . S
H1172 C1165 0.929 . S
H1173 C1187 0.930 . S
H1174 C1166 0.930 . S
H1175 C1193 0.930 . S
H1176 C1184 0.929 . S
H1177 C1191 0.930 . S
H1178 C1155 0.931 . S
H1179 C1185 0.930 . S
H1180 C1218 0.930 . S
H1181 C1162 0.930 . S
H1182 C1217 0.931 . S
N1183 Eu1152 2.657 . S
N1183 C1184 1.334 . S
N1183 C1188 1.362 . S
C1184 H1176 0.929 . S
C1184 N1183 1.334 . S
C1184 C1187 1.413 . S
C1185 H1179 0.930 . S
C1185 C1186 1.392 . S
C1185 C1187 1.367 . S
C1186 C1185 1.392 . S
C1186 C1188 1.420 . S
C1186 C1218 1.423 . S
C1187 H1173 0.930 . S
C1187 C1184 1.413 . S
C1187 C1185 1.367 . S
C1188 N1183 1.362 . S
C1188 C1186 1.420 . S
C1188 C1192 1.429 . S
H1189 C1194 0.930 . S
N1190 Eu1152 2.609 . S
N1190 C1192 1.377 . S
N1190 C1193 1.321 . S
C1191 H1177 0.930 . S
C1191 C1193 1.400 . S
C1191 C1194 1.386 . S
C1192 C1188 1.429 . S
C1192 N1190 1.377 . S
C1192 C1195 1.411 . S
C1193 H1175 0.930 . S
C1193 N1190 1.321 . S
C1193 C1191 1.400 . S
C1194 H1189 0.930 . S
C1194 C1191 1.386 . S
C1194 C1195 1.395 . S
C1195 C1192 1.411 . S
C1195 C1194 1.395 . S
C1195 C1217 1.420 . S
O1196 Eu1152 2.558 . S
O1196 C1216 1.257 . S
O1197 Eu1152 2.612 . S
O1197 Eu1163 2.380 . S
O1197 C1208 1.276 . S
O1198 Eu1163 2.432 . S
O1198 C1215 1.264 . S
O1199 Eu1152 2.339 . S
O1199 C1215 1.254 . S
O1200 Eu1152 2.563 . S
O1200 C1208 1.235 . S
O1201 Eu1152 2.419 . S
O1201 C1216 1.249 . S
O1202 Eu1163 2.558 . S
O1202 C1227 1.257 . S
O1203 Eu1152 2.380 . S
O1203 Eu1163 2.612 . S
O1203 C1219 1.276 . S
O1204 Eu1152 2.432 . S
O1204 C1226 1.264 . S
O1205 Eu1163 2.339 . S
O1205 C1226 1.254 . S
O1206 Eu1163 2.563 . S
O1206 C1219 1.235 . S
O1207 Eu1163 2.419 . S
O1207 C1227 1.249 . S
C1208 O1197 1.276 . S
C1208 O1200 1.235 . S
C1209 C1211 1.393 . S
C1209 C1213 1.395 . S
C1209 C1216 1.492 . S
C1210 C1211 1.392 . S
C1210 C1212 1.386 . S
C1211 C1209 1.393 . S
C1211 C1210 1.392 . S
C1211 H1228 0.930 . S
C1212 C1210 1.386 . S
C1212 C1214 1.395 . S
C1212 H1229 0.930 . S
C1213 C1209 1.395 . S
C1213 C1214 1.379 . S
C1213 H1230 0.930 . S
C1214 C1212 1.395 . S
C1214 C1213 1.379 . S
C1214 H1231 0.930 . S
C1215 O1198 1.264 . S
C1215 O1199 1.254 . S
C1216 Eu1152 2.848 . S
C1216 O1196 1.257 . S
C1216 O1201 1.249 . S
C1216 C1209 1.492 . S
C1217 H1182 0.931 . S
C1217 C1195 1.420 . S
C1217 C1218 1.351 . S
C1218 H1180 0.930 . S
C1218 C1186 1.423 . S
C1218 C1217 1.351 . S
C1219 O1203 1.276 . S
C1219 O1206 1.235 . S
C1220 C1221 1.393 . S
C1220 C1224 1.395 . S
C1220 C1227 1.492 . S
C1221 C1220 1.393 . S
C1221 C1222 1.392 . S
C1221 H1232 0.930 . S
C1222 C1221 1.392 . S
C1222 C1223 1.386 . S
C1223 C1222 1.386 . S
C1223 C1225 1.395 . S
C1223 H1233 0.930 . S
C1224 C1220 1.395 . S
C1224 C1225 1.379 . S
C1224 H1234 0.930 . S
C1225 C1223 1.395 . S
C1225 C1224 1.379 . S
C1225 H1235 0.930 . S
C1226 O1204 1.264 . S
C1226 O1205 1.254 . S
C1227 Eu1163 2.848 . S
C1227 O1202 1.257 . S
C1227 O1207 1.249 . S
C1227 C1220 1.492 . S
H1228 C1211 0.930 . S
H1229 C1212 0.930 . S
H1230 C1213 0.930 . S
H1231 C1214 0.930 . S
H1232 C1221 0.930 . S
H1233 C1223 0.930 . S
H1234 C1224 0.930 . S
H1235 C1225 0.930 . S
Eu1236 N1267 2.657 . S
Eu1236 N1274 2.609 . S
Eu1236 O1280 2.558 . S
Eu1236 O1281 2.612 . S
Eu1236 O1283 2.339 . S
Eu1236 O1284 2.563 . S
Eu1236 O1285 2.419 . S
Eu1236 O1287 2.380 . S
Eu1236 O1288 2.432 . S
Eu1236 C1300 2.848 . S
C1237 C1240 1.429 . S
C1237 C1241 1.411 . S
C1237 N1244 1.377 . S
C1238 C1240 1.420 . S
C1238 C1242 1.423 . S
C1238 C1250 1.392 . S
C1239 C1241 1.420 . S
C1239 C1242 1.351 . S
C1239 H1262 0.931 . S
C1240 C1237 1.429 . S
C1240 C1238 1.420 . S
C1240 N1248 1.362 . S
C1241 C1237 1.411 . S
C1241 C1239 1.420 . S
C1241 C1246 1.395 . S
C1242 C1238 1.423 . S
C1242 C1239 1.351 . S
C1242 H1254 0.930 . S
C1243 C1245 1.400 . S
C1243 C1246 1.386 . S
C1243 H1255 0.930 . S
N1244 C1237 1.377 . S
N1244 C1245 1.321 . S
N1244 Eu1247 2.609 . S
C1245 C1243 1.400 . S
C1245 N1244 1.321 . S
C1245 H1252 0.930 . S
C1246 C1241 1.395 . S
C1246 C1243 1.386 . S
C1246 H1265 0.930 . S
Eu1247 N1244 2.609 . S
Eu1247 N1248 2.657 . S
Eu1247 O1281 2.380 . S
Eu1247 O1282 2.432 . S
Eu1247 O1286 2.558 . S
Eu1247 O1287 2.612 . S
Eu1247 O1289 2.339 . S
Eu1247 O1290 2.563 . S
Eu1247 O1291 2.419 . S
Eu1247 C1311 2.848 . S
N1248 C1240 1.362 . S
N1248 Eu1247 2.657 . S
N1248 C1249 1.334 . S
C1249 N1248 1.334 . S
C1249 C1251 1.413 . S
C1249 H1256 0.929 . S
C1250 C1238 1.392 . S
C1250 C1251 1.367 . S
C1250 H1258 0.930 . S
C1251 C1249 1.413 . S
C1251 C1250 1.367 . S
C1251 H1253 0.930 . S
H1252 C1245 0.930 . S
H1253 C1251 0.930 . S
H1254 C1242 0.930 . S
H1255 C1243 0.930 . S
H1256 C1249 0.929 . S
H1257 C1271 0.930 . S
H1258 C1250 0.930 . S
H1259 C1277 0.930 . S
H1260 C1268 0.929 . S
H1261 C1275 0.930 . S
H1262 C1239 0.931 . S
H1263 C1269 0.930 . S
H1264 C1302 0.930 . S
H1265 C1246 0.930 . S
H1266 C1301 0.931 . S
N1267 Eu1236 2.657 . S
N1267 C1268 1.334 . S
N1267 C1272 1.362 . S
C1268 H1260 0.929 . S
C1268 N1267 1.334 . S
C1268 C1271 1.413 . S
C1269 H1263 0.930 . S
C1269 C1270 1.392 . S
C1269 C1271 1.367 . S
C1270 C1269 1.392 . S
C1270 C1272 1.420 . S
C1270 C1302 1.423 . S
C1271 H1257 0.930 . S
C1271 C1268 1.413 . S
C1271 C1269 1.367 . S
C1272 N1267 1.362 . S
C1272 C1270 1.420 . S
C1272 C1276 1.429 . S
H1273 C1278 0.930 . S
N1274 Eu1236 2.609 . S
N1274 C1276 1.377 . S
N1274 C1277 1.321 . S
C1275 H1261 0.930 . S
C1275 C1277 1.400 . S
C1275 C1278 1.386 . S
C1276 C1272 1.429 . S
C1276 N1274 1.377 . S
C1276 C1279 1.411 . S
C1277 H1259 0.930 . S
C1277 N1274 1.321 . S
C1277 C1275 1.400 . S
C1278 H1273 0.930 . S
C1278 C1275 1.386 . S
C1278 C1279 1.395 . S
C1279 C1276 1.411 . S
C1279 C1278 1.395 . S
C1279 C1301 1.420 . S
O1280 Eu1236 2.558 . S
O1280 C1300 1.257 . S
O1281 Eu1236 2.612 . S
O1281 Eu1247 2.380 . S
O1281 C1292 1.276 . S
O1282 Eu1247 2.432 . S
O1282 C1299 1.264 . S
O1283 Eu1236 2.339 . S
O1283 C1299 1.254 . S
O1284 Eu1236 2.563 . S
O1284 C1292 1.235 . S
O1285 Eu1236 2.419 . S
O1285 C1300 1.249 . S
O1286 Eu1247 2.558 . S
O1286 C1311 1.257 . S
O1287 Eu1236 2.380 . S
O1287 Eu1247 2.612 . S
O1287 C1303 1.276 . S
O1288 Eu1236 2.432 . S
O1288 C1310 1.264 . S
O1289 Eu1247 2.339 . S
O1289 C1310 1.254 . S
O1290 Eu1247 2.563 . S
O1290 C1303 1.235 . S
O1291 Eu1247 2.419 . S
O1291 C1311 1.249 . S
C1292 O1281 1.276 . S
C1292 O1284 1.235 . S
C1293 C1295 1.393 . S
C1293 C1297 1.395 . S
C1293 C1300 1.492 . S
C1294 C1295 1.392 . S
C1294 C1296 1.386 . S
C1295 C1293 1.393 . S
C1295 C1294 1.392 . S
C1295 H1312 0.930 . S
C1296 C1294 1.386 . S
C1296 C1298 1.395 . S
C1296 H1313 0.930 . S
C1297 C1293 1.395 . S
C1297 C1298 1.379 . S
C1297 H1314 0.930 . S
C1298 C1296 1.395 . S
C1298 C1297 1.379 . S
C1298 H1315 0.930 . S
C1299 O1282 1.264 . S
C1299 O1283 1.254 . S
C1300 Eu1236 2.848 . S
C1300 O1280 1.257 . S
C1300 O1285 1.249 . S
C1300 C1293 1.492 . S
C1301 H1266 0.931 . S
C1301 C1279 1.420 . S
C1301 C1302 1.351 . S
C1302 H1264 0.930 . S
C1302 C1270 1.423 . S
C1302 C1301 1.351 . S
C1303 O1287 1.276 . S
C1303 O1290 1.235 . S
C1304 C1305 1.393 . S
C1304 C1308 1.395 . S
C1304 C1311 1.492 . S
C1305 C1304 1.393 . S
C1305 C1306 1.392 . S
C1305 H1316 0.930 . S
C1306 C1305 1.392 . S
C1306 C1307 1.386 . S
C1307 C1306 1.386 . S
C1307 C1309 1.395 . S
C1307 H1317 0.930 . S
C1308 C1304 1.395 . S
C1308 C1309 1.379 . S
C1308 H1318 0.930 . S
C1309 C1307 1.395 . S
C1309 C1308 1.379 . S
C1309 H1319 0.930 . S
C1310 O1288 1.264 . S
C1310 O1289 1.254 . S
C1311 Eu1247 2.848 . S
C1311 O1286 1.257 . S
C1311 O1291 1.249 . S
C1311 C1304 1.492 . S
H1312 C1295 0.930 . S
H1313 C1296 0.930 . S
H1314 C1297 0.930 . S
H1315 C1298 0.930 . S
H1316 C1305 0.930 . S
H1317 C1307 0.930 . S
H1318 C1308 0.930 . S
H1319 C1309 0.930 . S
Eu1320 N1351 2.657 . S
Eu1320 N1358 2.609 . S
Eu1320 O1364 2.558 . S
Eu1320 O1365 2.612 . S
Eu1320 O1367 2.339 . S
Eu1320 O1368 2.563 . S
Eu1320 O1369 2.419 . S
Eu1320 O1371 2.380 . S
Eu1320 O1372 2.432 . S
Eu1320 C1384 2.848 . S
C1321 C1324 1.429 . S
C1321 C1325 1.411 . S
C1321 N1328 1.377 . S
C1322 C1324 1.420 . S
C1322 C1326 1.423 . S
C1322 C1334 1.392 . S
C1323 C1325 1.420 . S
C1323 C1326 1.351 . S
C1323 H1346 0.931 . S
C1324 C1321 1.429 . S
C1324 C1322 1.420 . S
C1324 N1332 1.362 . S
C1325 C1321 1.411 . S
C1325 C1323 1.420 . S
C1325 C1330 1.395 . S
C1326 C1322 1.423 . S
C1326 C1323 1.351 . S
C1326 H1338 0.930 . S
C1327 C1329 1.400 . S
C1327 C1330 1.386 . S
C1327 H1339 0.930 . S
N1328 C1321 1.377 . S
N1328 C1329 1.321 . S
N1328 Eu1331 2.609 . S
C1329 C1327 1.400 . S
C1329 N1328 1.321 . S
C1329 H1336 0.930 . S
C1330 C1325 1.395 . S
C1330 C1327 1.386 . S
C1330 H1349 0.930 . S
Eu1331 N1328 2.609 . S
Eu1331 N1332 2.657 . S
Eu1331 O1365 2.380 . S
Eu1331 O1366 2.432 . S
Eu1331 O1370 2.558 . S
Eu1331 O1371 2.612 . S
Eu1331 O1373 2.339 . S
Eu1331 O1374 2.563 . S
Eu1331 O1375 2.419 . S
Eu1331 C1395 2.848 . S
N1332 C1324 1.362 . S
N1332 Eu1331 2.657 . S
N1332 C1333 1.334 . S
C1333 N1332 1.334 . S
C1333 C1335 1.413 . S
C1333 H1340 0.929 . S
C1334 C1322 1.392 . S
C1334 C1335 1.367 . S
C1334 H1342 0.930 . S
C1335 C1333 1.413 . S
C1335 C1334 1.367 . S
C1335 H1337 0.930 . S
H1336 C1329 0.930 . S
H1337 C1335 0.930 . S
H1338 C1326 0.930 . S
H1339 C1327 0.930 . S
H1340 C1333 0.929 . S
H1341 C1355 0.930 . S
H1342 C1334 0.930 . S
H1343 C1361 0.930 . S
H1344 C1352 0.929 . S
H1345 C1359 0.930 . S
H1346 C1323 0.931 . S
H1347 C1353 0.930 . S
H1348 C1386 0.930 . S
H1349 C1330 0.930 . S
H1350 C1385 0.931 . S
N1351 Eu1320 2.657 . S
N1351 C1352 1.334 . S
N1351 C1356 1.362 . S
C1352 H1344 0.929 . S
C1352 N1351 1.334 . S
C1352 C1355 1.413 . S
C1353 H1347 0.930 . S
C1353 C1354 1.392 . S
C1353 C1355 1.367 . S
C1354 C1353 1.392 . S
C1354 C1356 1.420 . S
C1354 C1386 1.423 . S
C1355 H1341 0.930 . S
C1355 C1352 1.413 . S
C1355 C1353 1.367 . S
C1356 N1351 1.362 . S
C1356 C1354 1.420 . S
C1356 C1360 1.429 . S
H1357 C1362 0.930 . S
N1358 Eu1320 2.609 . S
N1358 C1360 1.377 . S
N1358 C1361 1.321 . S
C1359 H1345 0.930 . S
C1359 C1361 1.400 . S
C1359 C1362 1.386 . S
C1360 C1356 1.429 . S
C1360 N1358 1.377 . S
C1360 C1363 1.411 . S
C1361 H1343 0.930 . S
C1361 N1358 1.321 . S
C1361 C1359 1.400 . S
C1362 H1357 0.930 . S
C1362 C1359 1.386 . S
C1362 C1363 1.395 . S
C1363 C1360 1.411 . S
C1363 C1362 1.395 . S
C1363 C1385 1.420 . S
O1364 Eu1320 2.558 . S
O1364 C1384 1.257 . S
O1365 Eu1320 2.612 . S
O1365 Eu1331 2.380 . S
O1365 C1376 1.276 . S
O1366 Eu1331 2.432 . S
O1366 C1383 1.264 . S
O1367 Eu1320 2.339 . S
O1367 C1383 1.254 . S
O1368 Eu1320 2.563 . S
O1368 C1376 1.235 . S
O1369 Eu1320 2.419 . S
O1369 C1384 1.249 . S
O1370 Eu1331 2.558 . S
O1370 C1395 1.257 . S
O1371 Eu1320 2.380 . S
O1371 Eu1331 2.612 . S
O1371 C1387 1.276 . S
O1372 Eu1320 2.432 . S
O1372 C1394 1.264 . S
O1373 Eu1331 2.339 . S
O1373 C1394 1.254 . S
O1374 Eu1331 2.563 . S
O1374 C1387 1.235 . S
O1375 Eu1331 2.419 . S
O1375 C1395 1.249 . S
C1376 O1365 1.276 . S
C1376 O1368 1.235 . S
C1377 C1379 1.393 . S
C1377 C1381 1.395 . S
C1377 C1384 1.492 . S
C1378 C1379 1.392 . S
C1378 C1380 1.386 . S
C1379 C1377 1.393 . S
C1379 C1378 1.392 . S
C1379 H1396 0.930 . S
C1380 C1378 1.386 . S
C1380 C1382 1.395 . S
C1380 H1397 0.930 . S
C1381 C1377 1.395 . S
C1381 C1382 1.379 . S
C1381 H1398 0.930 . S
C1382 C1380 1.395 . S
C1382 C1381 1.379 . S
C1382 H1399 0.930 . S
C1383 O1366 1.264 . S
C1383 O1367 1.254 . S
C1384 Eu1320 2.848 . S
C1384 O1364 1.257 . S
C1384 O1369 1.249 . S
C1384 C1377 1.492 . S
C1385 H1350 0.931 . S
C1385 C1363 1.420 . S
C1385 C1386 1.351 . S
C1386 H1348 0.930 . S
C1386 C1354 1.423 . S
C1386 C1385 1.351 . S
C1387 O1371 1.276 . S
C1387 O1374 1.235 . S
C1388 C1389 1.393 . S
C1388 C1392 1.395 . S
C1388 C1395 1.492 . S
C1389 C1388 1.393 . S
C1389 C1390 1.392 . S
C1389 H1400 0.930 . S
C1390 C1389 1.392 . S
C1390 C1391 1.386 . S
C1391 C1390 1.386 . S
C1391 C1393 1.395 . S
C1391 H1401 0.930 . S
C1392 C1388 1.395 . S
C1392 C1393 1.379 . S
C1392 H1402 0.930 . S
C1393 C1391 1.395 . S
C1393 C1392 1.379 . S
C1393 H1403 0.930 . S
C1394 O1372 1.264 . S
C1394 O1373 1.254 . S
C1395 Eu1331 2.848 . S
C1395 O1370 1.257 . S
C1395 O1375 1.249 . S
C1395 C1388 1.492 . S
H1396 C1379 0.930 . S
H1397 C1380 0.930 . S
H1398 C1381 0.930 . S
H1399 C1382 0.930 . S
H1400 C1389 0.930 . S
H1401 C1391 0.930 . S
H1402 C1392 0.930 . S
H1403 C1393 0.930 . S
Eu1404 N1435 2.657 . S
Eu1404 N1442 2.609 . S
Eu1404 O1448 2.558 . S
Eu1404 O1449 2.612 . S
Eu1404 O1451 2.339 . S
Eu1404 O1452 2.563 . S
Eu1404 O1453 2.419 . S
Eu1404 O1455 2.380 . S
Eu1404 O1456 2.432 . S
Eu1404 C1468 2.848 . S
C1405 C1408 1.429 . S
C1405 C1409 1.411 . S
C1405 N1412 1.377 . S
C1406 C1408 1.420 . S
C1406 C1410 1.423 . S
C1406 C1418 1.392 . S
C1407 C1409 1.420 . S
C1407 C1410 1.351 . S
C1407 H1430 0.931 . S
C1408 C1405 1.429 . S
C1408 C1406 1.420 . S
C1408 N1416 1.362 . S
C1409 C1405 1.411 . S
C1409 C1407 1.420 . S
C1409 C1414 1.395 . S
C1410 C1406 1.423 . S
C1410 C1407 1.351 . S
C1410 H1422 0.930 . S
C1411 C1413 1.400 . S
C1411 C1414 1.386 . S
C1411 H1423 0.930 . S
N1412 C1405 1.377 . S
N1412 C1413 1.321 . S
N1412 Eu1415 2.609 . S
C1413 C1411 1.400 . S
C1413 N1412 1.321 . S
C1413 H1420 0.930 . S
C1414 C1409 1.395 . S
C1414 C1411 1.386 . S
C1414 H1433 0.930 . S
Eu1415 N1412 2.609 . S
Eu1415 N1416 2.657 . S
Eu1415 O1449 2.380 . S
Eu1415 O1450 2.432 . S
Eu1415 O1454 2.558 . S
Eu1415 O1455 2.612 . S
Eu1415 O1457 2.339 . S
Eu1415 O1458 2.563 . S
Eu1415 O1459 2.419 . S
Eu1415 C1479 2.848 . S
N1416 C1408 1.362 . S
N1416 Eu1415 2.657 . S
N1416 C1417 1.334 . S
C1417 N1416 1.334 . S
C1417 C1419 1.413 . S
C1417 H1424 0.929 . S
C1418 C1406 1.392 . S
C1418 C1419 1.367 . S
C1418 H1426 0.930 . S
C1419 C1417 1.413 . S
C1419 C1418 1.367 . S
C1419 H1421 0.930 . S
H1420 C1413 0.930 . S
H1421 C1419 0.930 . S
H1422 C1410 0.930 . S
H1423 C1411 0.930 . S
H1424 C1417 0.929 . S
H1425 C1439 0.930 . S
H1426 C1418 0.930 . S
H1427 C1445 0.930 . S
H1428 C1436 0.929 . S
H1429 C1443 0.930 . S
H1430 C1407 0.931 . S
H1431 C1437 0.930 . S
H1432 C1470 0.930 . S
H1433 C1414 0.930 . S
H1434 C1469 0.931 . S
N1435 Eu1404 2.657 . S
N1435 C1436 1.334 . S
N1435 C1440 1.362 . S
C1436 H1428 0.929 . S
C1436 N1435 1.334 . S
C1436 C1439 1.413 . S
C1437 H1431 0.930 . S
C1437 C1438 1.392 . S
C1437 C1439 1.367 . S
C1438 C1437 1.392 . S
C1438 C1440 1.420 . S
C1438 C1470 1.423 . S
C1439 H1425 0.930 . S
C1439 C1436 1.413 . S
C1439 C1437 1.367 . S
C1440 N1435 1.362 . S
C1440 C1438 1.420 . S
C1440 C1444 1.429 . S
H1441 C1446 0.930 . S
N1442 Eu1404 2.609 . S
N1442 C1444 1.377 . S
N1442 C1445 1.321 . S
C1443 H1429 0.930 . S
C1443 C1445 1.400 . S
C1443 C1446 1.386 . S
C1444 C1440 1.429 . S
C1444 N1442 1.377 . S
C1444 C1447 1.411 . S
C1445 H1427 0.930 . S
C1445 N1442 1.321 . S
C1445 C1443 1.400 . S
C1446 H1441 0.930 . S
C1446 C1443 1.386 . S
C1446 C1447 1.395 . S
C1447 C1444 1.411 . S
C1447 C1446 1.395 . S
C1447 C1469 1.420 . S
O1448 Eu1404 2.558 . S
O1448 C1468 1.257 . S
O1449 Eu1404 2.612 . S
O1449 Eu1415 2.380 . S
O1449 C1460 1.276 . S
O1450 Eu1415 2.432 . S
O1450 C1467 1.264 . S
O1451 Eu1404 2.339 . S
O1451 C1467 1.254 . S
O1452 Eu1404 2.563 . S
O1452 C1460 1.235 . S
O1453 Eu1404 2.419 . S
O1453 C1468 1.249 . S
O1454 Eu1415 2.558 . S
O1454 C1479 1.257 . S
O1455 Eu1404 2.380 . S
O1455 Eu1415 2.612 . S
O1455 C1471 1.276 . S
O1456 Eu1404 2.432 . S
O1456 C1478 1.264 . S
O1457 Eu1415 2.339 . S
O1457 C1478 1.254 . S
O1458 Eu1415 2.563 . S
O1458 C1471 1.235 . S
O1459 Eu1415 2.419 . S
O1459 C1479 1.249 . S
C1460 O1449 1.276 . S
C1460 O1452 1.235 . S
C1461 C1463 1.393 . S
C1461 C1465 1.395 . S
C1461 C1468 1.492 . S
C1462 C1463 1.392 . S
C1462 C1464 1.386 . S
C1463 C1461 1.393 . S
C1463 C1462 1.392 . S
C1463 H1480 0.930 . S
C1464 C1462 1.386 . S
C1464 C1466 1.395 . S
C1464 H1481 0.930 . S
C1465 C1461 1.395 . S
C1465 C1466 1.379 . S
C1465 H1482 0.930 . S
C1466 C1464 1.395 . S
C1466 C1465 1.379 . S
C1466 H1483 0.930 . S
C1467 O1450 1.264 . S
C1467 O1451 1.254 . S
C1468 Eu1404 2.848 . S
C1468 O1448 1.257 . S
C1468 O1453 1.249 . S
C1468 C1461 1.492 . S
C1469 H1434 0.931 . S
C1469 C1447 1.420 . S
C1469 C1470 1.351 . S
C1470 H1432 0.930 . S
C1470 C1438 1.423 . S
C1470 C1469 1.351 . S
C1471 O1455 1.276 . S
C1471 O1458 1.235 . S
C1472 C1473 1.393 . S
C1472 C1476 1.395 . S
C1472 C1479 1.492 . S
C1473 C1472 1.393 . S
C1473 C1474 1.392 . S
C1473 H1484 0.930 . S
C1474 C1473 1.392 . S
C1474 C1475 1.386 . S
C1475 C1474 1.386 . S
C1475 C1477 1.395 . S
C1475 H1485 0.930 . S
C1476 C1472 1.395 . S
C1476 C1477 1.379 . S
C1476 H1486 0.930 . S
C1477 C1475 1.395 . S
C1477 C1476 1.379 . S
C1477 H1487 0.930 . S
C1478 O1456 1.264 . S
C1478 O1457 1.254 . S
C1479 Eu1415 2.848 . S
C1479 O1454 1.257 . S
C1479 O1459 1.249 . S
C1479 C1472 1.492 . S
H1480 C1463 0.930 . S
H1481 C1464 0.930 . S
H1482 C1465 0.930 . S
H1483 C1466 0.930 . S
H1484 C1473 0.930 . S
H1485 C1475 0.930 . S
H1486 C1476 0.930 . S
H1487 C1477 0.930 . S
Eu1488 N1519 2.657 . S
Eu1488 N1526 2.609 . S
Eu1488 O1532 2.558 . S
Eu1488 O1533 2.612 . S
Eu1488 O1535 2.339 . S
Eu1488 O1536 2.563 . S
Eu1488 O1537 2.419 . S
Eu1488 O1539 2.380 . S
Eu1488 O1540 2.432 . S
Eu1488 C1552 2.848 . S
C1489 C1492 1.429 . S
C1489 C1493 1.411 . S
C1489 N1496 1.377 . S
C1490 C1492 1.420 . S
C1490 C1494 1.423 . S
C1490 C1502 1.392 . S
C1491 C1493 1.420 . S
C1491 C1494 1.351 . S
C1491 H1514 0.931 . S
C1492 C1489 1.429 . S
C1492 C1490 1.420 . S
C1492 N1500 1.362 . S
C1493 C1489 1.411 . S
C1493 C1491 1.420 . S
C1493 C1498 1.395 . S
C1494 C1490 1.423 . S
C1494 C1491 1.351 . S
C1494 H1506 0.930 . S
C1495 C1497 1.400 . S
C1495 C1498 1.386 . S
C1495 H1507 0.930 . S
N1496 C1489 1.377 . S
N1496 C1497 1.321 . S
N1496 Eu1499 2.609 . S
C1497 C1495 1.400 . S
C1497 N1496 1.321 . S
C1497 H1504 0.930 . S
C1498 C1493 1.395 . S
C1498 C1495 1.386 . S
C1498 H1517 0.930 . S
Eu1499 N1496 2.609 . S
Eu1499 N1500 2.657 . S
Eu1499 O1533 2.380 . S
Eu1499 O1534 2.432 . S
Eu1499 O1538 2.558 . S
Eu1499 O1539 2.612 . S
Eu1499 O1541 2.339 . S
Eu1499 O1542 2.563 . S
Eu1499 O1543 2.419 . S
Eu1499 C1563 2.848 . S
N1500 C1492 1.362 . S
N1500 Eu1499 2.657 . S
N1500 C1501 1.334 . S
C1501 N1500 1.334 . S
C1501 C1503 1.413 . S
C1501 H1508 0.929 . S
C1502 C1490 1.392 . S
C1502 C1503 1.367 . S
C1502 H1510 0.930 . S
C1503 C1501 1.413 . S
C1503 C1502 1.367 . S
C1503 H1505 0.930 . S
H1504 C1497 0.930 . S
H1505 C1503 0.930 . S
H1506 C1494 0.930 . S
H1507 C1495 0.930 . S
H1508 C1501 0.929 . S
H1509 C1523 0.930 . S
H1510 C1502 0.930 . S
H1511 C1529 0.930 . S
H1512 C1520 0.929 . S
H1513 C1527 0.930 . S
H1514 C1491 0.931 . S
H1515 C1521 0.930 . S
H1516 C1554 0.930 . S
H1517 C1498 0.930 . S
H1518 C1553 0.931 . S
N1519 Eu1488 2.657 . S
N1519 C1520 1.334 . S
N1519 C1524 1.362 . S
C1520 H1512 0.929 . S
C1520 N1519 1.334 . S
C1520 C1523 1.413 . S
C1521 H1515 0.930 . S
C1521 C1522 1.392 . S
C1521 C1523 1.367 . S
C1522 C1521 1.392 . S
C1522 C1524 1.420 . S
C1522 C1554 1.423 . S
C1523 H1509 0.930 . S
C1523 C1520 1.413 . S
C1523 C1521 1.367 . S
C1524 N1519 1.362 . S
C1524 C1522 1.420 . S
C1524 C1528 1.429 . S
H1525 C1530 0.930 . S
N1526 Eu1488 2.609 . S
N1526 C1528 1.377 . S
N1526 C1529 1.321 . S
C1527 H1513 0.930 . S
C1527 C1529 1.400 . S
C1527 C1530 1.386 . S
C1528 C1524 1.429 . S
C1528 N1526 1.377 . S
C1528 C1531 1.411 . S
C1529 H1511 0.930 . S
C1529 N1526 1.321 . S
C1529 C1527 1.400 . S
C1530 H1525 0.930 . S
C1530 C1527 1.386 . S
C1530 C1531 1.395 . S
C1531 C1528 1.411 . S
C1531 C1530 1.395 . S
C1531 C1553 1.420 . S
O1532 Eu1488 2.558 . S
O1532 C1552 1.257 . S
O1533 Eu1488 2.612 . S
O1533 Eu1499 2.380 . S
O1533 C1544 1.276 . S
O1534 Eu1499 2.432 . S
O1534 C1551 1.264 . S
O1535 Eu1488 2.339 . S
O1535 C1551 1.254 . S
O1536 Eu1488 2.563 . S
O1536 C1544 1.235 . S
O1537 Eu1488 2.419 . S
O1537 C1552 1.249 . S
O1538 Eu1499 2.558 . S
O1538 C1563 1.257 . S
O1539 Eu1488 2.380 . S
O1539 Eu1499 2.612 . S
O1539 C1555 1.276 . S
O1540 Eu1488 2.432 . S
O1540 C1562 1.264 . S
O1541 Eu1499 2.339 . S
O1541 C1562 1.254 . S
O1542 Eu1499 2.563 . S
O1542 C1555 1.235 . S
O1543 Eu1499 2.419 . S
O1543 C1563 1.249 . S
C1544 O1533 1.276 . S
C1544 O1536 1.235 . S
C1545 C1547 1.393 . S
C1545 C1549 1.395 . S
C1545 C1552 1.492 . S
C1546 C1547 1.392 . S
C1546 C1548 1.386 . S
C1547 C1545 1.393 . S
C1547 C1546 1.392 . S
C1547 H1564 0.930 . S
C1548 C1546 1.386 . S
C1548 C1550 1.395 . S
C1548 H1565 0.930 . S
C1549 C1545 1.395 . S
C1549 C1550 1.379 . S
C1549 H1566 0.930 . S
C1550 C1548 1.395 . S
C1550 C1549 1.379 . S
C1550 H1567 0.930 . S
C1551 O1534 1.264 . S
C1551 O1535 1.254 . S
C1552 Eu1488 2.848 . S
C1552 O1532 1.257 . S
C1552 O1537 1.249 . S
C1552 C1545 1.492 . S
C1553 H1518 0.931 . S
C1553 C1531 1.420 . S
C1553 C1554 1.351 . S
C1554 H1516 0.930 . S
C1554 C1522 1.423 . S
C1554 C1553 1.351 . S
C1555 O1539 1.276 . S
C1555 O1542 1.235 . S
C1556 C1557 1.393 . S
C1556 C1560 1.395 . S
C1556 C1563 1.492 . S
C1557 C1556 1.393 . S
C1557 C1558 1.392 . S
C1557 H1568 0.930 . S
C1558 C1557 1.392 . S
C1558 C1559 1.386 . S
C1559 C1558 1.386 . S
C1559 C1561 1.395 . S
C1559 H1569 0.930 . S
C1560 C1556 1.395 . S
C1560 C1561 1.379 . S
C1560 H1570 0.930 . S
C1561 C1559 1.395 . S
C1561 C1560 1.379 . S
C1561 H1571 0.930 . S
C1562 O1540 1.264 . S
C1562 O1541 1.254 . S
C1563 Eu1499 2.848 . S
C1563 O1538 1.257 . S
C1563 O1543 1.249 . S
C1563 C1556 1.492 . S
H1564 C1547 0.930 . S
H1565 C1548 0.930 . S
H1566 C1549 0.930 . S
H1567 C1550 0.930 . S
H1568 C1557 0.930 . S
H1569 C1559 0.930 . S
H1570 C1560 0.930 . S
H1571 C1561 0.930 . S
Eu1572 N1603 2.650 1_556 S
Eu1572 N1610 2.637 . S
Eu1572 O1616 2.581 . S
Eu1572 O1617 2.595 1_556 S
Eu1572 O1619 2.303 1_556 S
Eu1572 O1620 2.559 . S
Eu1572 O1621 2.413 1_556 S
Eu1572 O1623 2.371 1_556 S
Eu1572 O1624 2.455 . S
Eu1572 C1636 2.857 . S
C1573 C1576 1.434 . S
C1573 C1577 1.432 . S
C1573 N1580 1.351 1_655 S
C1574 C1576 1.420 . S
C1574 C1578 1.423 . S
C1574 C1586 1.392 1_554 S
C1575 C1577 1.420 . S
C1575 C1578 1.351 . S
C1575 H1598 0.931 . S
C1576 C1573 1.434 . S
C1576 C1574 1.420 . S
C1576 N1584 1.362 1_655 S
C1577 C1573 1.432 . S
C1577 C1575 1.420 . S
C1577 C1582 1.395 . S
C1578 C1574 1.423 . S
C1578 C1575 1.351 . S
C1578 H1590 0.930 . S
C1579 C1581 1.400 . S
C1579 C1582 1.386 1_455 S
C1579 H1591 0.930 . S
N1580 C1573 1.351 1_455 S
N1580 C1581 1.321 . S
N1580 Eu1583 2.609 . S
C1581 C1579 1.400 . S
C1581 N1580 1.321 . S
C1581 H1588 0.930 . S
C1582 C1577 1.395 . S
C1582 C1579 1.386 1_655 S
C1582 H1601 0.930 . S
Eu1583 N1580 2.609 . S
Eu1583 N1584 2.657 . S
Eu1583 O1617 2.380 . S
Eu1583 O1618 2.432 . S
Eu1583 O1622 2.558 . S
Eu1583 O1623 2.612 . S
Eu1583 O1625 2.339 1_554 S
Eu1583 O1626 2.563 . S
Eu1583 O1627 2.419 1_455 S
Eu1583 C1647 2.848 1_455 S
N1584 C1576 1.362 1_455 S
N1584 Eu1583 2.657 . S
N1584 C1585 1.334 1_454 S
C1585 N1584 1.334 1_656 S
C1585 C1587 1.413 . S
C1585 H1592 0.929 1_655 S
C1586 C1574 1.392 1_556 S
C1586 C1587 1.367 . S
C1586 H1594 0.930 . S
C1587 C1585 1.413 . S
C1587 C1586 1.367 . S
C1587 H1589 0.930 . S
H1588 C1581 0.930 . S
H1589 C1587 0.930 . S
H1590 C1578 0.930 . S
H1591 C1579 0.930 . S
H1592 C1585 0.929 1_455 S
H1593 C1607 0.930 . S
H1594 C1586 0.930 . S
H1595 C1613 0.930 . S
H1596 C1604 0.929 . S
H1597 C1611 0.930 . S
H1598 C1575 0.931 . S
H1599 C1605 0.930 . S
H1600 C1638 0.930 1_554 S
H1601 C1582 0.930 . S
H1602 C1637 0.931 . S
N1603 Eu1572 2.650 1_554 S
N1603 C1604 1.334 . S
N1603 C1608 1.362 . S
C1604 H1596 0.929 . S
C1604 N1603 1.334 . S
C1604 C1607 1.413 . S
C1605 H1599 0.930 . S
C1605 C1606 1.392 . S
C1605 C1607 1.367 . S
C1606 C1605 1.392 . S
C1606 C1608 1.420 . S
C1606 C1638 1.423 1_554 S
C1607 H1593 0.930 . S
C1607 C1604 1.413 . S
C1607 C1605 1.367 . S
C1608 N1603 1.362 . S
C1608 C1606 1.420 . S
C1608 C1612 1.429 1_554 S
H1609 C1614 0.930 . S
N1610 Eu1572 2.637 . S
N1610 C1612 1.377 . S
N1610 C1613 1.321 . S
C1611 H1597 0.930 . S
C1611 C1613 1.400 . S
C1611 C1614 1.386 . S
C1612 C1608 1.429 1_556 S
C1612 N1610 1.377 . S
C1612 C1615 1.411 . S
C1613 H1595 0.930 . S
C1613 N1610 1.321 . S
C1613 C1611 1.400 . S
C1614 H1609 0.930 . S
C1614 C1611 1.386 . S
C1614 C1615 1.395 . S
C1615 C1612 1.411 . S
C1615 C1614 1.395 . S
C1615 C1637 1.420 . S
O1616 Eu1572 2.581 . S
O1616 C1636 1.257 . S
O1617 Eu1572 2.595 1_554 S
O1617 Eu1583 2.380 . S
O1617 C1628 1.276 . S
O1618 Eu1583 2.432 . S
O1618 C1635 1.264 . S
O1619 Eu1572 2.303 1_554 S
O1619 C1635 1.254 . S
O1620 Eu1572 2.559 . S
O1620 C1628 1.235 1_556 S
O1621 Eu1572 2.413 1_554 S
O1621 C1636 1.249 1_554 S
O1622 Eu1583 2.558 . S
O1622 C1647 1.257 1_455 S
O1623 Eu1572 2.371 1_554 S
O1623 Eu1583 2.612 . S
O1623 C1639 1.276 . S
O1624 Eu1572 2.455 . S
O1624 C1646 1.264 . S
O1625 Eu1583 2.339 1_556 S
O1625 C1646 1.254 . S
O1626 Eu1583 2.563 . S
O1626 C1639 1.235 . S
O1627 Eu1583 2.419 1_655 S
O1627 C1647 1.249 . S
C1628 O1617 1.276 . S
C1628 O1620 1.235 1_554 S
C1629 C1631 1.393 . S
C1629 C1633 1.395 . S
C1629 C1636 1.492 . S
C1630 C1631 1.392 . S
C1630 C1632 1.386 . S
C1631 C1629 1.393 . S
C1631 C1630 1.392 . S
C1631 H1648 0.930 1_556 S
C1632 C1630 1.386 . S
C1632 C1634 1.395 . S
C1632 H1649 0.930 . S
C1633 C1629 1.395 . S
C1633 C1634 1.379 . S
C1633 H1650 0.930 . S
C1634 C1632 1.395 . S
C1634 C1633 1.379 . S
C1634 H1651 0.930 . S
C1635 O1618 1.264 . S
C1635 O1619 1.254 . S
C1636 Eu1572 2.857 . S
C1636 O1616 1.257 . S
C1636 O1621 1.249 1_556 S
C1636 C1629 1.492 . S
C1637 H1602 0.931 . S
C1637 C1615 1.420 . S
C1637 C1638 1.351 . S
C1638 H1600 0.930 1_556 S
C1638 C1606 1.423 1_556 S
C1638 C1637 1.351 . S
C1639 O1623 1.276 . S
C1639 O1626 1.235 . S
C1640 C1641 1.393 . S
C1640 C1644 1.395 . S
C1640 C1647 1.492 . S
C1641 C1640 1.393 . S
C1641 C1642 1.392 . S
C1641 H1652 0.930 . S
C1642 C1641 1.392 . S
C1642 C1643 1.386 . S
C1643 C1642 1.386 . S
C1643 C1645 1.395 . S
C1643 H1653 0.930 . S
C1644 C1640 1.395 . S
C1644 C1645 1.379 . S
C1644 H1654 0.930 . S
C1645 C1643 1.395 . S
C1645 C1644 1.379 . S
C1645 H1655 0.930 . S
C1646 O1624 1.264 . S
C1646 O1625 1.254 . S
C1647 Eu1583 2.848 1_655 S
C1647 O1622 1.257 1_655 S
C1647 O1627 1.249 . S
C1647 C1640 1.492 . S
H1648 C1631 0.930 1_554 S
H1649 C1632 0.930 . S
H1650 C1633 0.930 . S
H1651 C1634 0.930 . S
H1652 C1641 0.930 . S
H1653 C1643 0.930 . S
H1654 C1644 0.930 . S
H1655 C1645 0.930 . S
C1656 C1657 1.391 . S
C1656 C1658 1.394 1_556 S
C1656 H1672 0.926 1_556 S
C1657 C1656 1.391 . S
C1657 C1661 1.376 . S
C1658 C1656 1.394 1_554 S
C1658 C1659 1.369 1_554 S
C1658 C1662 1.531 . S
C1659 C1658 1.369 1_556 S
C1659 C1660 1.410 . S
C1659 C1667 1.503 . S
C1660 C1659 1.410 . S
C1660 C1661 1.392 . S
C1660 C1663 1.511 1_455 S
C1661 C1657 1.376 . S
C1661 C1660 1.392 . S
C1661 H1673 0.929 1_455 S
C1662 C1658 1.531 . S
C1662 H1674 0.960 . S
C1662 H1675 0.962 . S
C1662 H1676 0.960 . S
C1663 C1660 1.511 1_655 S
C1663 H1677 0.961 . S
C1663 H1678 0.960 . S
C1663 H1679 0.961 . S
C1664 C1665 1.370 1_556 S
C1664 C1666 1.363 . S
C1664 H1680 0.931 . S
C1665 C1664 1.370 1_554 S
C1665 C1669 1.408 . S
C1666 C1664 1.363 . S
C1666 C1667 1.370 . S
C1666 C1670 1.524 . S
C1667 C1659 1.503 . S
C1667 C1666 1.370 . S
C1667 C1668 1.403 1_556 S
C1668 C1667 1.403 1_554 S
C1668 C1669 1.404 . S
C1668 C1671 1.539 . S
C1669 C1665 1.408 . S
C1669 C1668 1.404 . S
C1669 H1681 0.930 . S
C1670 C1666 1.524 . S
C1670 H1682 0.956 . S
C1670 H1683 0.961 . S
C1670 H1684 0.961 . S
C1671 C1668 1.539 . S
C1671 H1685 0.958 . S
C1671 H1686 0.961 1_455 S
C1671 H1687 0.935 1_455 S
H1672 C1656 0.926 1_554 S
H1673 C1661 0.929 1_655 S
H1674 C1662 0.960 . S
H1675 C1662 0.962 . S
H1676 C1662 0.960 . S
H1677 C1663 0.961 . S
H1678 C1663 0.960 . S
H1679 C1663 0.961 . S
H1680 C1664 0.931 . S
H1681 C1669 0.930 . S
H1682 C1670 0.956 . S
H1683 C1670 0.961 . S
H1684 C1670 0.961 . S
H1685 C1671 0.958 . S
H1686 C1671 0.961 1_655 S
H1687 C1671 0.935 1_655 S
C1688 C1689 1.391 . S
C1688 C1690 1.394 . S
C1688 H1704 0.931 . S
C1689 C1688 1.391 . S
C1689 C1693 1.376 . S
C1690 C1688 1.394 . S
C1690 C1691 1.369 . S
C1690 C1694 1.531 . S
C1691 C1690 1.369 . S
C1691 C1692 1.410 . S
C1691 C1699 1.503 . S
C1692 C1691 1.410 . S
C1692 C1693 1.392 . S
C1692 C1695 1.511 . S
C1693 C1689 1.376 . S
C1693 C1692 1.392 . S
C1693 H1705 0.929 . S
C1694 C1690 1.531 . S
C1694 H1706 0.960 . S
C1694 H1707 0.962 . S
C1694 H1708 0.960 . S
C1695 C1692 1.511 . S
C1695 H1709 0.961 . S
C1695 H1710 0.961 . S
C1695 H1711 0.961 . S
C1696 C1697 1.370 . S
C1696 C1698 1.363 . S
C1696 H1712 0.931 . S
C1697 C1696 1.370 . S
C1697 C1701 1.408 . S
C1698 C1696 1.363 . S
C1698 C1699 1.370 . S
C1698 C1702 1.524 . S
C1699 C1691 1.503 . S
C1699 C1698 1.370 . S
C1699 C1700 1.403 . S
C1700 C1699 1.403 . S
C1700 C1701 1.404 . S
C1700 C1703 1.539 . S
C1701 C1697 1.408 . S
C1701 C1700 1.404 . S
C1701 H1713 0.930 . S
C1702 C1698 1.524 . S
C1702 H1714 0.956 . S
C1702 H1715 0.961 . S
C1702 H1716 0.961 . S
C1703 C1700 1.539 . S
C1703 H1717 0.958 . S
C1703 H1718 0.961 . S
C1703 H1719 0.960 . S
H1704 C1688 0.931 . S
H1705 C1693 0.929 . S
H1706 C1694 0.960 . S
H1707 C1694 0.962 . S
H1708 C1694 0.960 . S
H1709 C1695 0.961 . S
H1710 C1695 0.961 . S
H1711 C1695 0.961 . S
H1712 C1696 0.931 . S
H1713 C1701 0.930 . S
H1714 C1702 0.956 . S
H1715 C1702 0.961 . S
H1716 C1702 0.961 . S
H1717 C1703 0.958 . S
H1718 C1703 0.961 . S
H1719 C1703 0.960 . S
C1720 C1721 1.391 . S
C1720 C1722 1.394 . S
C1720 H1736 0.931 . S
C1721 C1720 1.391 . S
C1721 C1725 1.376 . S
C1722 C1720 1.394 . S
C1722 C1723 1.369 . S
C1722 C1726 1.531 . S
C1723 C1722 1.369 . S
C1723 C1724 1.410 . S
C1723 C1731 1.503 . S
C1724 C1723 1.410 . S
C1724 C1725 1.392 . S
C1724 C1727 1.511 . S
C1725 C1721 1.376 . S
C1725 C1724 1.392 . S
C1725 H1737 0.929 . S
C1726 C1722 1.531 . S
C1726 H1738 0.960 . S
C1726 H1739 0.962 . S
C1726 H1740 0.960 . S
C1727 C1724 1.511 . S
C1727 H1741 0.961 . S
C1727 H1742 0.961 . S
C1727 H1743 0.961 . S
C1728 C1729 1.370 . S
C1728 C1730 1.363 . S
C1728 H1744 0.931 . S
C1729 C1728 1.370 . S
C1729 C1733 1.408 . S
C1730 C1728 1.363 . S
C1730 C1731 1.370 . S
C1730 C1734 1.524 . S
C1731 C1723 1.503 . S
C1731 C1730 1.370 . S
C1731 C1732 1.403 . S
C1732 C1731 1.403 . S
C1732 C1733 1.404 . S
C1732 C1735 1.539 . S
C1733 C1729 1.408 . S
C1733 C1732 1.404 . S
C1733 H1745 0.930 . S
C1734 C1730 1.524 . S
C1734 H1746 0.956 . S
C1734 H1747 0.961 . S
C1734 H1748 0.961 . S
C1735 C1732 1.539 . S
C1735 H1749 0.958 . S
C1735 H1750 0.961 . S
C1735 H1751 0.960 . S
H1736 C1720 0.931 . S
H1737 C1725 0.929 . S
H1738 C1726 0.960 . S
H1739 C1726 0.962 . S
H1740 C1726 0.960 . S
H1741 C1727 0.961 . S
H1742 C1727 0.961 . S
H1743 C1727 0.961 . S
H1744 C1728 0.931 . S
H1745 C1733 0.930 . S
H1746 C1734 0.956 . S
H1747 C1734 0.961 . S
H1748 C1734 0.961 . S
H1749 C1735 0.958 . S
H1750 C1735 0.961 . S
H1751 C1735 0.960 . S
C1752 C1753 1.391 . S
C1752 C1754 1.394 . S
C1752 H1768 0.931 . S
C1753 C1752 1.391 . S
C1753 C1757 1.376 . S
C1754 C1752 1.394 . S
C1754 C1755 1.369 . S
C1754 C1758 1.531 . S
C1755 C1754 1.369 . S
C1755 C1756 1.410 . S
C1755 C1763 1.503 . S
C1756 C1755 1.410 . S
C1756 C1757 1.392 . S
C1756 C1759 1.511 . S
C1757 C1753 1.376 . S
C1757 C1756 1.392 . S
C1757 H1769 0.929 . S
C1758 C1754 1.531 . S
C1758 H1770 0.960 . S
C1758 H1771 0.962 . S
C1758 H1772 0.960 . S
C1759 C1756 1.511 . S
C1759 H1773 0.961 . S
C1759 H1774 0.961 . S
C1759 H1775 0.961 . S
C1760 C1761 1.370 . S
C1760 C1762 1.363 . S
C1760 H1776 0.931 . S
C1761 C1760 1.370 . S
C1761 C1765 1.408 . S
C1762 C1760 1.363 . S
C1762 C1763 1.370 . S
C1762 C1766 1.524 . S
C1763 C1755 1.503 . S
C1763 C1762 1.370 . S
C1763 C1764 1.403 . S
C1764 C1763 1.403 . S
C1764 C1765 1.404 . S
C1764 C1767 1.539 . S
C1765 C1761 1.408 . S
C1765 C1764 1.404 . S
C1765 H1777 0.930 . S
C1766 C1762 1.524 . S
C1766 H1778 0.956 . S
C1766 H1779 0.961 . S
C1766 H1780 0.961 . S
C1767 C1764 1.539 . S
C1767 H1781 0.958 . S
C1767 H1782 0.961 . S
C1767 H1783 0.960 . S
H1768 C1752 0.931 . S
H1769 C1757 0.929 . S
H1770 C1758 0.960 . S
H1771 C1758 0.962 . S
H1772 C1758 0.960 . S
H1773 C1759 0.961 . S
H1774 C1759 0.961 . S
H1775 C1759 0.961 . S
H1776 C1760 0.931 . S
H1777 C1765 0.930 . S
H1778 C1766 0.956 . S
H1779 C1766 0.961 . S
H1780 C1766 0.961 . S
H1781 C1767 0.958 . S
H1782 C1767 0.961 . S
H1783 C1767 0.960 . S
C1784 C1785 1.391 . S
C1784 C1786 1.394 . S
C1784 H1800 0.931 . S
C1785 C1784 1.391 . S
C1785 C1789 1.376 1_455 S
C1786 C1784 1.394 . S
C1786 C1787 1.369 . S
C1786 C1790 1.531 . S
C1787 C1786 1.369 . S
C1787 C1788 1.410 . S
C1787 C1795 1.503 . S
C1788 C1787 1.410 . S
C1788 C1789 1.392 1_455 S
C1788 C1791 1.511 1_455 S
C1789 C1785 1.376 1_655 S
C1789 C1788 1.392 1_655 S
C1789 H1801 0.929 . S
C1790 C1786 1.531 . S
C1790 H1802 0.960 . S
C1790 H1803 0.962 . S
C1790 H1804 0.960 . S
C1791 C1788 1.511 1_655 S
C1791 H1805 0.961 . S
C1791 H1806 0.961 1_655 S
C1791 H1807 0.961 . S
C1792 C1793 1.370 . S
C1792 C1794 1.363 . S
C1792 H1808 0.931 . S
C1793 C1792 1.370 . S
C1793 C1797 1.408 . S
C1794 C1792 1.363 . S
C1794 C1795 1.370 . S
C1794 C1798 1.524 . S
C1795 C1787 1.503 . S
C1795 C1794 1.370 . S
C1795 C1796 1.403 . S
C1796 C1795 1.403 . S
C1796 C1797 1.404 . S
C1796 C1799 1.539 1_455 S
C1797 C1793 1.408 . S
C1797 C1796 1.404 . S
C1797 H1809 0.930 . S
C1798 C1794 1.524 . S
C1798 H1810 0.956 . S
C1798 H1811 0.961 . S
C1798 H1812 0.961 . S
C1799 C1796 1.539 1_655 S
C1799 H1813 0.958 . S
C1799 H1814 0.961 . S
C1799 H1815 0.960 . S
H1800 C1784 0.931 . S
H1801 C1789 0.929 . S
H1802 C1790 0.960 . S
H1803 C1790 0.962 . S
H1804 C1790 0.960 . S
H1805 C1791 0.961 . S
H1806 C1791 0.961 1_455 S
H1807 C1791 0.961 . S
H1808 C1792 0.931 . S
H1809 C1797 0.930 . S
H1810 C1798 0.956 . S
H1811 C1798 0.961 . S
H1812 C1798 0.961 . S
H1813 C1799 0.958 . S
H1814 C1799 0.961 . S
H1815 C1799 0.960 . S
C1816 C1817 1.391 . S
C1816 C1818 1.394 . S
C1816 H1832 0.931 . S
C1817 C1816 1.391 . S
C1817 C1821 1.376 . S
C1818 C1816 1.394 . S
C1818 C1819 1.369 . S
C1818 C1822 1.531 . S
C1819 C1818 1.369 . S
C1819 C1820 1.410 . S
C1819 C1827 1.503 . S
C1820 C1819 1.410 . S
C1820 C1821 1.392 . S
C1820 C1823 1.511 . S
C1821 C1817 1.376 . S
C1821 C1820 1.392 . S
C1821 H1833 0.929 . S
C1822 C1818 1.531 . S
C1822 H1834 0.960 . S
C1822 H1835 0.962 . S
C1822 H1836 0.960 . S
C1823 C1820 1.511 . S
C1823 H1837 0.961 . S
C1823 H1838 0.961 . S
C1823 H1839 0.961 . S
C1824 C1825 1.370 . S
C1824 C1826 1.363 . S
C1824 H1840 0.931 . S
C1825 C1824 1.370 . S
C1825 C1829 1.408 . S
C1826 C1824 1.363 . S
C1826 C1827 1.370 . S
C1826 C1830 1.524 . S
C1827 C1819 1.503 . S
C1827 C1826 1.370 . S
C1827 C1828 1.403 . S
C1828 C1827 1.403 . S
C1828 C1829 1.404 . S
C1828 C1831 1.539 . S
C1829 C1825 1.408 . S
C1829 C1828 1.404 . S
C1829 H1841 0.930 . S
C1830 C1826 1.524 . S
C1830 H1842 0.956 . S
C1830 H1843 0.961 . S
C1830 H1844 0.961 . S
C1831 C1828 1.539 . S
C1831 H1845 0.958 . S
C1831 H1846 0.961 . S
C1831 H1847 0.960 . S
H1832 C1816 0.931 . S
H1833 C1821 0.929 . S
H1834 C1822 0.960 . S
H1835 C1822 0.962 . S
H1836 C1822 0.960 . S
H1837 C1823 0.961 . S
H1838 C1823 0.961 . S
H1839 C1823 0.961 . S
H1840 C1824 0.931 . S
H1841 C1829 0.930 . S
H1842 C1830 0.956 . S
H1843 C1830 0.961 . S
H1844 C1830 0.961 . S
H1845 C1831 0.958 . S
H1846 C1831 0.961 . S
H1847 C1831 0.960 . S
C1848 C1849 1.391 . S
C1848 C1850 1.394 . S
C1848 H1864 0.931 . S
C1849 C1848 1.391 . S
C1849 C1853 1.376 . S
C1850 C1848 1.394 . S
C1850 C1851 1.369 . S
C1850 C1854 1.531 . S
C1851 C1850 1.369 . S
C1851 C1852 1.410 . S
C1851 C1859 1.503 . S
C1852 C1851 1.410 . S
C1852 C1853 1.392 . S
C1852 C1855 1.511 . S
C1853 C1849 1.376 . S
C1853 C1852 1.392 . S
C1853 H1865 0.929 . S
C1854 C1850 1.531 . S
C1854 H1866 0.960 . S
C1854 H1867 0.962 . S
C1854 H1868 0.960 . S
C1855 C1852 1.511 . S
C1855 H1869 0.961 . S
C1855 H1870 0.961 . S
C1855 H1871 0.961 . S
C1856 C1857 1.370 . S
C1856 C1858 1.363 . S
C1856 H1872 0.931 . S
C1857 C1856 1.370 . S
C1857 C1861 1.408 . S
C1858 C1856 1.363 . S
C1858 C1859 1.370 . S
C1858 C1862 1.524 . S
C1859 C1851 1.503 . S
C1859 C1858 1.370 . S
C1859 C1860 1.403 . S
C1860 C1859 1.403 . S
C1860 C1861 1.404 . S
C1860 C1863 1.539 . S
C1861 C1857 1.408 . S
C1861 C1860 1.404 . S
C1861 H1873 0.930 . S
C1862 C1858 1.524 . S
C1862 H1874 0.956 . S
C1862 H1875 0.961 . S
C1862 H1876 0.961 . S
C1863 C1860 1.539 . S
C1863 H1877 0.958 . S
C1863 H1878 0.961 . S
C1863 H1879 0.960 . S
H1864 C1848 0.931 . S
H1865 C1853 0.929 . S
H1866 C1854 0.960 . S
H1867 C1854 0.962 . S
H1868 C1854 0.960 . S
H1869 C1855 0.961 . S
H1870 C1855 0.961 . S
H1871 C1855 0.961 . S
H1872 C1856 0.931 . S
H1873 C1861 0.930 . S
H1874 C1862 0.956 . S
H1875 C1862 0.961 . S
H1876 C1862 0.961 . S
H1877 C1863 0.958 . S
H1878 C1863 0.961 . S
H1879 C1863 0.960 . S
C1880 C1881 1.391 . S
C1880 C1882 1.394 . S
C1880 H1896 0.931 . S
C1881 C1880 1.391 . S
C1881 C1885 1.376 . S
C1882 C1880 1.394 . S
C1882 C1883 1.369 . S
C1882 C1886 1.531 . S
C1883 C1882 1.369 . S
C1883 C1884 1.410 . S
C1883 C1891 1.503 . S
C1884 C1883 1.410 . S
C1884 C1885 1.392 . S
C1884 C1887 1.511 . S
C1885 C1881 1.376 . S
C1885 C1884 1.392 . S
C1885 H1897 0.929 . S
C1886 C1882 1.531 . S
C1886 H1898 0.960 . S
C1886 H1899 0.962 . S
C1886 H1900 0.960 . S
C1887 C1884 1.511 . S
C1887 H1901 0.961 . S
C1887 H1902 0.961 . S
C1887 H1903 0.961 . S
C1888 C1889 1.370 . S
C1888 C1890 1.363 . S
C1888 H1904 0.931 . S
C1889 C1888 1.370 . S
C1889 C1893 1.408 . S
C1890 C1888 1.363 . S
C1890 C1891 1.370 . S
C1890 C1894 1.524 . S
C1891 C1883 1.503 . S
C1891 C1890 1.370 . S
C1891 C1892 1.403 . S
C1892 C1891 1.403 . S
C1892 C1893 1.404 . S
C1892 C1895 1.539 . S
C1893 C1889 1.408 . S
C1893 C1892 1.404 . S
C1893 H1905 0.930 . S
C1894 C1890 1.524 . S
C1894 H1906 0.956 . S
C1894 H1907 0.961 . S
C1894 H1908 0.961 . S
C1895 C1892 1.539 . S
C1895 H1909 0.958 . S
C1895 H1910 0.961 . S
C1895 H1911 0.960 . S
H1896 C1880 0.931 . S
H1897 C1885 0.929 . S
H1898 C1886 0.960 . S
H1899 C1886 0.962 . S
H1900 C1886 0.960 . S
H1901 C1887 0.961 . S
H1902 C1887 0.961 . S
H1903 C1887 0.961 . S
H1904 C1888 0.931 . S
H1905 C1893 0.930 . S
H1906 C1894 0.956 . S
H1907 C1894 0.961 . S
H1908 C1894 0.961 . S
H1909 C1895 0.958 . S
H1910 C1895 0.961 . S
H1911 C1895 0.960 . S
C1912 C1913 1.391 1_455 S
C1912 C1914 1.394 . S
C1912 H1928 0.931 . S
C1913 C1912 1.391 1_655 S
C1913 C1917 1.376 . S
C1914 C1912 1.394 . S
C1914 C1915 1.369 1_455 S
C1914 C1918 1.531 . S
C1915 C1914 1.369 1_655 S
C1915 C1916 1.410 . S
C1915 C1923 1.503 1_655 S
C1916 C1915 1.410 . S
C1916 C1917 1.392 . S
C1916 C1919 1.511 . S
C1917 C1913 1.376 . S
C1917 C1916 1.392 . S
C1917 H1929 0.929 . S
C1918 C1914 1.531 . S
C1918 H1930 0.960 . S
C1918 H1931 0.962 . S
C1918 H1932 0.960 . S
C1919 C1916 1.511 . S
C1919 H1933 0.961 . S
C1919 H1934 0.961 . S
C1919 H1935 0.961 . S
C1920 C1921 1.370 . S
C1920 C1922 1.363 . S
C1920 H1936 0.931 . S
C1921 C1920 1.370 . S
C1921 C1925 1.408 . S
C1922 C1920 1.363 . S
C1922 C1923 1.370 . S
C1922 C1926 1.524 . S
C1923 C1915 1.503 1_455 S
C1923 C1922 1.370 . S
C1923 C1924 1.403 . S
C1924 C1923 1.403 . S
C1924 C1925 1.404 . S
C1924 C1927 1.539 1_455 S
C1925 C1921 1.408 . S
C1925 C1924 1.404 . S
C1925 H1937 0.930 . S
C1926 C1922 1.524 . S
C1926 H1938 0.956 . S
C1926 H1939 0.987 . S
C1926 H1940 0.961 . S
C1927 C1924 1.539 1_655 S
C1927 H1941 0.958 1_655 S
C1927 H1942 0.961 1_545 S
C1927 H1943 0.960 . S
H1928 C1912 0.931 . S
H1929 C1917 0.929 . S
H1930 C1918 0.960 . S
H1931 C1918 0.962 . S
H1932 C1918 0.960 . S
H1933 C1919 0.961 . S
H1934 C1919 0.961 . S
H1935 C1919 0.961 . S
H1936 C1920 0.931 . S
H1937 C1925 0.930 . S
H1938 C1926 0.956 . S
H1939 C1926 0.987 . S
H1940 C1926 0.961 . S
H1941 C1927 0.958 1_455 S
H1942 C1927 0.961 1_565 S
H1943 C1927 0.960 . S
C1944 C1945 1.391 . S
C1944 C1946 1.394 . S
C1944 H1960 0.931 . S
C1945 C1944 1.391 . S
C1945 C1949 1.376 . S
C1946 C1944 1.394 . S
C1946 C1947 1.369 . S
C1946 C1950 1.531 . S
C1947 C1946 1.369 . S
C1947 C1948 1.410 . S
C1947 C1955 1.503 . S
C1948 C1947 1.410 . S
C1948 C1949 1.392 . S
C1948 C1951 1.511 . S
C1949 C1945 1.376 . S
C1949 C1948 1.392 . S
C1949 H1961 0.929 . S
C1950 C1946 1.531 . S
C1950 H1962 0.960 . S
C1950 H1963 0.962 . S
C1950 H1964 0.960 . S
C1951 C1948 1.511 . S
C1951 H1965 0.961 . S
C1951 H1966 0.961 . S
C1951 H1967 0.961 . S
C1952 C1953 1.370 . S
C1952 C1954 1.363 . S
C1952 H1968 0.931 . S
C1953 C1952 1.370 . S
C1953 C1957 1.408 . S
C1954 C1952 1.363 . S
C1954 C1955 1.370 . S
C1954 C1958 1.524 . S
C1955 C1947 1.503 . S
C1955 C1954 1.370 . S
C1955 C1956 1.403 . S
C1956 C1955 1.403 . S
C1956 C1957 1.404 . S
C1956 C1959 1.539 . S
C1957 C1953 1.408 . S
C1957 C1956 1.404 . S
C1957 H1969 0.930 . S
C1958 C1954 1.524 . S
C1958 H1970 0.956 . S
C1958 H1971 0.961 . S
C1958 H1972 0.961 . S
C1959 C1956 1.539 . S
C1959 H1973 0.958 . S
C1959 H1974 0.961 . S
C1959 H1975 0.960 . S
H1960 C1944 0.931 . S
H1961 C1949 0.929 . S
H1962 C1950 0.960 . S
H1963 C1950 0.962 . S
H1964 C1950 0.960 . S
H1965 C1951 0.961 . S
H1966 C1951 0.961 . S
H1967 C1951 0.961 . S
H1968 C1952 0.931 . S
H1969 C1957 0.930 . S
H1970 C1958 0.956 . S
H1971 C1958 0.961 . S
H1972 C1958 0.961 . S
H1973 C1959 0.958 . S
H1974 C1959 0.961 . S
H1975 C1959 0.960 . S
C1976 C1977 1.391 . S
C1976 C1978 1.394 . S
C1976 H1992 0.931 . S
C1977 C1976 1.391 . S
C1977 C1981 1.376 . S
C1978 C1976 1.394 . S
C1978 C1979 1.369 . S
C1978 C1982 1.531 . S
C1979 C1978 1.369 . S
C1979 C1980 1.410 . S
C1979 C1987 1.503 . S
C1980 C1979 1.410 . S
C1980 C1981 1.392 . S
C1980 C1983 1.511 1_545 S
C1981 C1977 1.376 . S
C1981 C1980 1.392 . S
C1981 H1993 0.929 . S
C1982 C1978 1.531 . S
C1982 H1994 0.960 . S
C1982 H1995 0.962 . S
C1982 H1996 0.960 . S
C1983 C1980 1.511 1_565 S
C1983 H1997 0.961 . S
C1983 H1998 0.961 1_565 S
C1983 H1999 0.961 . S
C1984 C1985 1.370 . S
C1984 C1986 1.363 . S
C1984 H2000 0.931 . S
C1985 C1984 1.370 . S
C1985 C1989 1.408 . S
C1986 C1984 1.363 . S
C1986 C1987 1.370 . S
C1986 C1990 1.524 . S
C1987 C1979 1.503 . S
C1987 C1986 1.370 . S
C1987 C1988 1.403 . S
C1988 C1987 1.403 . S
C1988 C1989 1.404 . S
C1988 C1991 1.539 . S
C1989 C1985 1.408 . S
C1989 C1988 1.404 . S
C1989 H2001 0.930 . S
C1990 C1986 1.524 . S
C1990 H2002 0.956 . S
C1990 H2003 0.961 . S
C1990 H2004 0.961 . S
C1991 C1988 1.539 . S
C1991 H2005 0.958 . S
C1991 H2006 0.961 1_545 S
C1991 H2007 0.960 1_545 S
H1992 C1976 0.931 . S
H1993 C1981 0.929 . S
H1994 C1982 0.960 . S
H1995 C1982 0.962 . S
H1996 C1982 0.960 . S
H1997 C1983 0.961 . S
H1998 C1983 0.961 1_545 S
H1999 C1983 0.961 . S
H2000 C1984 0.931 . S
H2001 C1989 0.930 . S
H2002 C1990 0.956 . S
H2003 C1990 0.961 . S
H2004 C1990 0.961 . S
H2005 C1991 0.958 . S
H2006 C1991 0.961 1_565 S
H2007 C1991 0.960 1_565 S
C2008 C2009 1.391 . S
C2008 C2010 1.394 . S
C2008 H2024 0.931 . S
C2009 C2008 1.391 . S
C2009 C2013 1.376 . S
C2010 C2008 1.394 . S
C2010 C2011 1.369 . S
C2010 C2014 1.531 . S
C2011 C2010 1.369 . S
C2011 C2012 1.410 . S
C2011 C2019 1.503 . S
C2012 C2011 1.410 . S
C2012 C2013 1.392 . S
C2012 C2015 1.511 . S
C2013 C2009 1.376 . S
C2013 C2012 1.392 . S
C2013 H2025 0.929 . S
C2014 C2010 1.531 . S
C2014 H2026 0.960 . S
C2014 H2027 0.962 . S
C2014 H2028 0.960 . S
C2015 C2012 1.511 . S
C2015 H2029 0.961 . S
C2015 H2030 0.961 . S
C2015 H2031 0.961 . S
C2016 C2017 1.370 . S
C2016 C2018 1.363 . S
C2016 H2032 0.931 . S
C2017 C2016 1.370 . S
C2017 C2021 1.408 . S
C2018 C2016 1.363 . S
C2018 C2019 1.370 . S
C2018 C2022 1.524 . S
C2019 C2011 1.503 . S
C2019 C2018 1.370 . S
C2019 C2020 1.403 . S
C2020 C2019 1.403 . S
C2020 C2021 1.404 . S
C2020 C2023 1.539 . S
C2021 C2017 1.408 . S
C2021 C2020 1.404 . S
C2021 H2033 0.930 . S
C2022 C2018 1.524 . S
C2022 H2034 0.956 . S
C2022 H2035 0.961 . S
C2022 H2036 0.961 . S
C2023 C2020 1.539 . S
C2023 H2037 0.958 . S
C2023 H2038 0.961 . S
C2023 H2039 0.960 . S
H2024 C2008 0.931 . S
H2025 C2013 0.929 . S
H2026 C2014 0.960 . S
H2027 C2014 0.962 . S
H2028 C2014 0.960 . S
H2029 C2015 0.961 . S
H2030 C2015 0.961 . S
H2031 C2015 0.961 . S
H2032 C2016 0.931 . S
H2033 C2021 0.930 . S
H2034 C2022 0.956 . S
H2035 C2022 0.961 . S
H2036 C2022 0.961 . S
H2037 C2023 0.958 . S
H2038 C2023 0.961 . S
H2039 C2023 0.960 . S
C2040 C2041 1.391 1_455 S
C2040 C2042 1.394 . S
C2040 H2056 0.931 . S
C2041 C2040 1.391 1_655 S
C2041 C2045 1.376 . S
C2042 C2040 1.394 . S
C2042 C2043 1.369 . S
C2042 C2046 1.531 . S
C2043 C2042 1.369 . S
C2043 C2044 1.410 1_455 S
C2043 C2051 1.503 . S
C2044 C2043 1.410 1_655 S
C2044 C2045 1.392 . S
C2044 C2047 1.511 . S
C2045 C2041 1.376 . S
C2045 C2044 1.392 . S
C2045 H2057 0.929 . S
C2046 C2042 1.531 . S
C2046 H2058 0.960 . S
C2046 H2059 0.962 . S
C2046 H2060 0.960 . S
C2047 C2044 1.511 . S
C2047 H2061 0.961 . S
C2047 H2062 0.961 . S
C2047 H2063 0.961 . S
C2048 C2049 1.370 . S
C2048 C2050 1.363 . S
C2048 H2064 0.931 . S
C2049 C2048 1.370 . S
C2049 C2053 1.408 . S
C2050 C2048 1.363 . S
C2050 C2051 1.370 . S
C2050 C2054 1.524 . S
C2051 C2043 1.503 . S
C2051 C2050 1.370 . S
C2051 C2052 1.403 . S
C2052 C2051 1.403 . S
C2052 C2053 1.404 . S
C2052 C2055 1.539 . S
C2053 C2049 1.408 . S
C2053 C2052 1.404 . S
C2053 H2065 0.930 . S
C2054 C2050 1.524 . S
C2054 H2066 0.956 . S
C2054 H2067 0.961 . S
C2054 H2068 0.961 . S
C2055 C2052 1.539 . S
C2055 H2069 0.958 . S
C2055 H2070 0.963 . S
C2055 H2071 0.960 1_455 S
H2056 C2040 0.931 . S
H2057 C2045 0.929 . S
H2058 C2046 0.960 . S
H2059 C2046 0.962 . S
H2060 C2046 0.960 . S
H2061 C2047 0.961 . S
H2062 C2047 0.961 . S
H2063 C2047 0.961 . S
H2064 C2048 0.931 . S
H2065 C2053 0.930 . S
H2066 C2054 0.956 . S
H2067 C2054 0.961 . S
H2068 C2054 0.961 . S
H2069 C2055 0.958 . S
H2070 C2055 0.963 . S
H2071 C2055 0.960 1_655 S
C2072 C2073 1.391 . S
C2072 C2074 1.394 . S
C2072 H2088 0.931 . S
C2073 C2072 1.391 . S
C2073 C2077 1.376 . S
C2074 C2072 1.394 . S
C2074 C2075 1.369 . S
C2074 C2078 1.531 . S
C2075 C2074 1.369 . S
C2075 C2076 1.410 . S
C2075 C2083 1.503 . S
C2076 C2075 1.410 . S
C2076 C2077 1.392 . S
C2076 C2079 1.511 . S
C2077 C2073 1.376 . S
C2077 C2076 1.392 . S
C2077 H2089 0.929 . S
C2078 C2074 1.531 . S
C2078 H2090 0.960 . S
C2078 H2091 0.962 . S
C2078 H2092 0.960 . S
C2079 C2076 1.511 . S
C2079 H2093 0.961 . S
C2079 H2094 0.961 . S
C2079 H2095 0.961 . S
C2080 C2081 1.370 . S
C2080 C2082 1.363 . S
C2080 H2096 0.931 . S
C2081 C2080 1.370 . S
C2081 C2085 1.408 . S
C2082 C2080 1.363 . S
C2082 C2083 1.370 . S
C2082 C2086 1.524 . S
C2083 C2075 1.503 . S
C2083 C2082 1.370 . S
C2083 C2084 1.403 . S
C2084 C2083 1.403 . S
C2084 C2085 1.404 . S
C2084 C2087 1.539 . S
C2085 C2081 1.408 . S
C2085 C2084 1.404 . S
C2085 H2097 0.930 . S
C2086 C2082 1.524 . S
C2086 H2098 0.956 . S
C2086 H2099 0.961 . S
C2086 H2100 0.961 . S
C2087 C2084 1.539 . S
C2087 H2101 0.958 . S
C2087 H2102 0.961 . S
C2087 H2103 0.960 . S
H2088 C2072 0.931 . S
H2089 C2077 0.929 . S
H2090 C2078 0.960 . S
H2091 C2078 0.962 . S
H2092 C2078 0.960 . S
H2093 C2079 0.961 . S
H2094 C2079 0.961 . S
H2095 C2079 0.961 . S
H2096 C2080 0.931 . S
H2097 C2085 0.930 . S
H2098 C2086 0.956 . S
H2099 C2086 0.961 . S
H2100 C2086 0.961 . S
H2101 C2087 0.958 . S
H2102 C2087 0.961 . S
H2103 C2087 0.960 . S
C2104 C2105 1.391 . S
C2104 C2106 1.394 . S
C2104 H2120 0.931 . S
C2105 C2104 1.391 . S
C2105 C2109 1.376 . S
C2106 C2104 1.394 . S
C2106 C2107 1.369 . S
C2106 C2110 1.531 . S
C2107 C2106 1.369 . S
C2107 C2108 1.410 . S
C2107 C2115 1.503 . S
C2108 C2107 1.410 . S
C2108 C2109 1.392 . S
C2108 C2111 1.511 . S
C2109 C2105 1.376 . S
C2109 C2108 1.392 . S
C2109 H2121 0.929 . S
C2110 C2106 1.531 . S
C2110 H2122 0.960 . S
C2110 H2123 0.962 . S
C2110 H2124 0.960 . S
C2111 C2108 1.511 . S
C2111 H2125 0.961 . S
C2111 H2126 0.961 . S
C2111 H2127 0.961 . S
C2112 C2113 1.370 . S
C2112 C2114 1.363 . S
C2112 H2128 0.931 . S
C2113 C2112 1.370 . S
C2113 C2117 1.408 . S
C2114 C2112 1.363 . S
C2114 C2115 1.370 . S
C2114 C2118 1.524 . S
C2115 C2107 1.503 . S
C2115 C2114 1.370 . S
C2115 C2116 1.403 . S
C2116 C2115 1.403 . S
C2116 C2117 1.404 . S
C2116 C2119 1.539 . S
C2117 C2113 1.408 . S
C2117 C2116 1.404 . S
C2117 H2129 0.930 . S
C2118 C2114 1.524 . S
C2118 H2130 0.956 . S
C2118 H2131 0.961 . S
C2118 H2132 0.961 1_545 S
C2119 C2116 1.539 . S
C2119 H2133 0.958 . S
C2119 H2134 0.961 . S
C2119 H2135 0.960 . S
H2120 C2104 0.931 . S
H2121 C2109 0.929 . S
H2122 C2110 0.960 . S
H2123 C2110 0.962 . S
H2124 C2110 0.960 . S
H2125 C2111 0.961 . S
H2126 C2111 0.961 . S
H2127 C2111 0.961 . S
H2128 C2112 0.931 . S
H2129 C2117 0.930 . S
H2130 C2118 0.956 . S
H2131 C2118 0.961 . S
H2132 C2118 0.961 1_565 S
H2133 C2119 0.958 . S
H2134 C2119 0.961 . S
H2135 C2119 0.960 . S
C2136 C2137 1.391 . S
C2136 C2138 1.394 . S
C2136 H2152 0.931 . S
C2137 C2136 1.391 . S
C2137 C2141 1.376 . S
C2138 C2136 1.394 . S
C2138 C2139 1.369 . S
C2138 C2142 1.531 . S
C2139 C2138 1.369 . S
C2139 C2140 1.410 . S
C2139 C2147 1.503 . S
C2140 C2139 1.410 . S
C2140 C2141 1.392 . S
C2140 C2143 1.511 . S
C2141 C2137 1.376 . S
C2141 C2140 1.392 . S
C2141 H2153 0.929 . S
C2142 C2138 1.531 . S
C2142 H2154 0.960 . S
C2142 H2155 0.962 . S
C2142 H2156 0.960 . S
C2143 C2140 1.511 . S
C2143 H2157 0.961 . S
C2143 H2158 0.961 . S
C2143 H2159 0.961 . S
C2144 C2145 1.370 . S
C2144 C2146 1.363 . S
C2144 H2160 0.931 . S
C2145 C2144 1.370 . S
C2145 C2149 1.408 . S
C2146 C2144 1.363 . S
C2146 C2147 1.370 . S
C2146 C2150 1.524 . S
C2147 C2139 1.503 . S
C2147 C2146 1.370 . S
C2147 C2148 1.403 . S
C2148 C2147 1.403 . S
C2148 C2149 1.404 . S
C2148 C2151 1.539 . S
C2149 C2145 1.408 . S
C2149 C2148 1.404 . S
C2149 H2161 0.930 . S
C2150 C2146 1.524 . S
C2150 H2162 0.956 . S
C2150 H2163 0.961 . S
C2150 H2164 0.961 . S
C2151 C2148 1.539 . S
C2151 H2165 0.958 . S
C2151 H2166 0.961 . S
C2151 H2167 0.960 . S
H2152 C2136 0.931 . S
H2153 C2141 0.929 . S
H2154 C2142 0.960 . S
H2155 C2142 0.962 . S
H2156 C2142 0.960 . S
H2157 C2143 0.961 . S
H2158 C2143 0.961 . S
H2159 C2143 0.961 . S
H2160 C2144 0.931 . S
H2161 C2149 0.930 . S
H2162 C2150 0.956 . S
H2163 C2150 0.961 . S
H2164 C2150 0.961 . S
H2165 C2151 0.958 . S
H2166 C2151 0.961 . S
H2167 C2151 0.960 . S
C2168 C2169 1.391 1_556 S
C2168 C2170 1.394 . S
C2168 H2184 0.931 . S
C2169 C2168 1.391 1_554 S
C2169 C2173 1.376 . S
C2170 C2168 1.394 . S
C2170 C2171 1.369 1_556 S
C2170 C2174 1.531 . S
C2171 C2170 1.369 1_554 S
C2171 C2172 1.410 . S
C2171 C2179 1.503 . S
C2172 C2171 1.410 . S
C2172 C2173 1.392 . S
C2172 C2175 1.511 . S
C2173 C2169 1.376 . S
C2173 C2172 1.392 . S
C2173 H2185 0.929 . S
C2174 C2170 1.531 . S
C2174 H2186 0.960 . S
C2174 H2187 0.962 1_565 S
C2174 H2188 0.960 . S
C2175 C2172 1.511 . S
C2175 H2189 0.961 . S
C2175 H2190 0.961 . S
C2175 H2191 0.961 . S
C2176 C2177 1.370 . S
C2176 C2178 1.363 . S
C2176 H2192 0.931 . S
C2177 C2176 1.370 . S
C2177 C2181 1.408 1_545 S
C2178 C2176 1.363 . S
C2178 C2179 1.370 1_545 S
C2178 C2182 1.524 . S
C2179 C2171 1.503 . S
C2179 C2178 1.370 1_565 S
C2179 C2180 1.403 . S
C2180 C2179 1.403 . S
C2180 C2181 1.404 . S
C2180 C2183 1.531 1_554 S
C2181 C2177 1.408 1_565 S
C2181 C2180 1.404 . S
C2181 H2193 0.930 . S
C2182 C2178 1.524 . S
C2182 H2194 0.956 . S
C2182 H2195 0.961 . S
C2182 H2196 0.961 . S
C2183 C2180 1.531 1_556 S
C2183 H2197 0.998 . S
C2183 H2198 0.945 1_556 S
C2183 H2199 0.946 1_556 S
H2184 C2168 0.931 . S
H2185 C2173 0.929 . S
H2186 C2174 0.960 . S
H2187 C2174 0.962 1_545 S
H2188 C2174 0.960 . S
H2189 C2175 0.961 . S
H2190 C2175 0.961 . S
H2191 C2175 0.961 . S
H2192 C2176 0.931 . S
H2193 C2181 0.930 . S
H2194 C2182 0.956 . S
H2195 C2182 0.961 . S
H2196 C2182 0.961 . S
H2197 C2183 0.998 . S
H2198 C2183 0.945 1_554 S
H2199 C2183 0.946 1_554 S
C2200 C2201 1.391 . S
C2200 C2202 1.394 . S
C2200 H2216 0.931 . S
C2201 C2200 1.391 . S
C2201 C2205 1.376 1_556 S
C2202 C2200 1.394 . S
C2202 C2203 1.369 . S
C2202 C2206 1.531 . S
C2203 C2202 1.369 . S
C2203 C2204 1.410 1_556 S
C2203 C2211 1.503 . S
C2204 C2203 1.410 1_554 S
C2204 C2205 1.392 . S
C2204 C2207 1.511 . S
C2205 C2201 1.376 1_554 S
C2205 C2204 1.392 . S
C2205 H2217 0.929 . S
C2206 C2202 1.531 . S
C2206 H2218 0.960 . S
C2206 H2219 0.962 . S
C2206 H2220 0.960 . S
C2207 C2204 1.511 . S
C2207 H2221 0.961 . S
C2207 H2222 0.961 . S
C2207 H2223 0.961 . S
C2208 C2209 1.373 . S
C2208 C2210 1.363 . S
C2208 H2224 0.931 . S
C2209 C2208 1.373 . S
C2209 C2213 1.403 1_554 S
C2210 C2208 1.363 . S
C2210 C2211 1.370 1_554 S
C2210 C2214 1.524 . S
C2211 C2203 1.503 . S
C2211 C2210 1.370 1_556 S
C2211 C2212 1.403 . S
C2212 C2211 1.403 . S
C2212 C2213 1.404 . S
C2212 C2215 1.539 . S
C2213 C2209 1.403 1_556 S
C2213 C2212 1.404 . S
C2213 H2225 0.930 . S
C2214 C2210 1.524 . S
C2214 H2226 0.956 . S
C2214 H2227 0.961 . S
C2214 H2228 0.961 . S
C2215 C2212 1.539 . S
C2215 H2229 0.958 . S
C2215 H2230 0.961 . S
C2215 H2231 0.960 . S
H2216 C2200 0.931 . S
H2217 C2205 0.929 . S
H2218 C2206 0.960 . S
H2219 C2206 0.962 . S
H2220 C2206 0.960 . S
H2221 C2207 0.961 . S
H2222 C2207 0.961 . S
H2223 C2207 0.961 . S
H2224 C2208 0.931 . S
H2225 C2213 0.930 . S
H2226 C2214 0.956 . S
H2227 C2214 0.961 . S
H2228 C2214 0.961 . S
H2229 C2215 0.958 . S
H2230 C2215 0.961 . S
H2231 C2215 0.960 . S
C2232 C2233 1.391 . S
C2232 C2234 1.394 . S
C2232 H2248 0.931 . S
C2233 C2232 1.391 . S
C2233 C2237 1.376 . S
C2234 C2232 1.394 . S
C2234 C2235 1.369 . S
C2234 C2238 1.531 . S
C2235 C2234 1.369 . S
C2235 C2236 1.410 . S
C2235 C2243 1.503 . S
C2236 C2235 1.410 . S
C2236 C2237 1.392 . S
C2236 C2239 1.511 . S
C2237 C2233 1.376 . S
C2237 C2236 1.392 . S
C2237 H2249 0.929 . S
C2238 C2234 1.531 . S
C2238 H2250 0.960 . S
C2238 H2251 0.962 . S
C2238 H2252 0.960 . S
C2239 C2236 1.511 . S
C2239 H2253 0.961 . S
C2239 H2254 0.961 . S
C2239 H2255 0.961 . S
C2240 C2241 1.370 . S
C2240 C2242 1.363 . S
C2240 H2256 0.931 . S
C2241 C2240 1.370 . S
C2241 C2245 1.408 . S
C2242 C2240 1.363 . S
C2242 C2243 1.370 . S
C2242 C2246 1.524 . S
C2243 C2235 1.503 . S
C2243 C2242 1.370 . S
C2243 C2244 1.403 . S
C2244 C2243 1.403 . S
C2244 C2245 1.404 . S
C2244 C2247 1.539 . S
C2245 C2241 1.408 . S
C2245 C2244 1.404 . S
C2245 H2257 0.930 . S
C2246 C2242 1.524 . S
C2246 H2258 0.956 . S
C2246 H2259 0.961 . S
C2246 H2260 0.961 . S
C2247 C2244 1.539 . S
C2247 H2261 0.958 . S
C2247 H2262 0.961 . S
C2247 H2263 0.960 . S
H2248 C2232 0.931 . S
H2249 C2237 0.929 . S
H2250 C2238 0.960 . S
H2251 C2238 0.962 . S
H2252 C2238 0.960 . S
H2253 C2239 0.961 . S
H2254 C2239 0.961 . S
H2255 C2239 0.961 . S
H2256 C2240 0.931 . S
H2257 C2245 0.930 . S
H2258 C2246 0.956 . S
H2259 C2246 0.961 . S
H2260 C2246 0.961 . S
H2261 C2247 0.958 . S
H2262 C2247 0.961 . S
H2263 C2247 0.960 . S
C2264 C2265 1.391 . S
C2264 C2266 1.394 . S
C2264 H2280 0.931 . S
C2265 C2264 1.391 . S
C2265 C2269 1.376 . S
C2266 C2264 1.394 . S
C2266 C2267 1.369 . S
C2266 C2270 1.531 . S
C2267 C2266 1.369 . S
C2267 C2268 1.410 . S
C2267 C2275 1.503 . S
C2268 C2267 1.410 . S
C2268 C2269 1.392 . S
C2268 C2271 1.511 . S
C2269 C2265 1.376 . S
C2269 C2268 1.392 . S
C2269 H2281 0.929 . S
C2270 C2266 1.531 . S
C2270 H2282 0.960 . S
C2270 H2283 0.962 . S
C2270 H2284 0.960 . S
C2271 C2268 1.511 . S
C2271 H2285 0.961 . S
C2271 H2286 0.961 . S
C2271 H2287 0.961 . S
C2272 C2273 1.361 1_655 S
C2272 C2274 1.396 . S
C2272 H2288 0.908 1_655 S
C2273 C2272 1.361 1_455 S
C2273 C2277 1.408 1_455 S
C2274 C2272 1.396 . S
C2274 C2275 1.370 . S
C2274 C2278 1.524 . S
C2275 C2267 1.503 . S
C2275 C2274 1.370 . S
C2275 C2276 1.403 . S
C2276 C2275 1.403 . S
C2276 C2277 1.404 . S
C2276 C2279 1.539 . S
C2277 C2273 1.408 1_655 S
C2277 C2276 1.404 . S
C2277 H2289 0.930 1_655 S
C2278 C2274 1.524 . S
C2278 H2290 0.956 . S
C2278 H2291 0.961 . S
C2278 H2292 0.961 . S
C2279 C2276 1.539 . S
C2279 H2293 0.958 . S
C2279 H2294 0.961 . S
C2279 H2295 0.960 . S
H2280 C2264 0.931 . S
H2281 C2269 0.929 . S
H2282 C2270 0.960 . S
H2283 C2270 0.962 . S
H2284 C2270 0.960 . S
H2285 C2271 0.961 . S
H2286 C2271 0.961 . S
H2287 C2271 0.961 . S
H2288 C2272 0.908 1_455 S
H2289 C2277 0.930 1_455 S
H2290 C2278 0.956 . S
H2291 C2278 0.961 . S
H2292 C2278 0.961 . S
H2293 C2279 0.958 . S
H2294 C2279 0.961 . S
H2295 C2279 0.960 . S
C2296 C2297 1.391 . S
C2296 C2298 1.394 . S
C2296 H2312 0.931 . S
C2297 C2296 1.391 . S
C2297 C2301 1.376 . S
C2298 C2296 1.394 . S
C2298 C2299 1.369 . S
C2298 C2302 1.531 . S
C2299 C2298 1.369 . S
C2299 C2300 1.410 . S
C2299 C2307 1.503 . S
C2300 C2299 1.410 . S
C2300 C2301 1.392 . S
C2300 C2303 1.511 . S
C2301 C2297 1.376 . S
C2301 C2300 1.392 . S
C2301 H2313 0.929 . S
C2302 C2298 1.531 . S
C2302 H2314 0.960 . S
C2302 H2315 0.962 . S
C2302 H2316 0.960 . S
C2303 C2300 1.511 . S
C2303 H2317 0.961 . S
C2303 H2318 0.961 . S
C2303 H2319 0.961 . S
C2304 C2305 1.370 . S
C2304 C2306 1.363 . S
C2304 H2320 0.931 . S
C2305 C2304 1.370 . S
C2305 C2309 1.408 . S
C2306 C2304 1.363 . S
C2306 C2307 1.370 . S
C2306 C2310 1.524 . S
C2307 C2299 1.503 . S
C2307 C2306 1.370 . S
C2307 C2308 1.403 . S
C2308 C2307 1.403 . S
C2308 C2309 1.404 . S
C2308 C2311 1.539 . S
C2309 C2305 1.408 . S
C2309 C2308 1.404 . S
C2309 H2321 0.930 . S
C2310 C2306 1.524 . S
C2310 H2322 0.956 . S
C2310 H2323 0.961 . S
C2310 H2324 0.961 . S
C2311 C2308 1.539 . S
C2311 H2325 0.958 . S
C2311 H2326 0.961 . S
C2311 H2327 0.960 . S
H2312 C2296 0.931 . S
H2313 C2301 0.929 . S
H2314 C2302 0.960 . S
H2315 C2302 0.962 . S
H2316 C2302 0.960 . S
H2317 C2303 0.961 . S
H2318 C2303 0.961 . S
H2319 C2303 0.961 . S
H2320 C2304 0.931 . S
H2321 C2309 0.930 . S
H2322 C2310 0.956 . S
H2323 C2310 0.961 . S
H2324 C2310 0.961 . S
H2325 C2311 0.958 . S
H2326 C2311 0.961 . S
H2327 C2311 0.960 . S
C2328 C2329 1.391 . S
C2328 C2330 1.394 . S
C2328 H2344 0.931 . S
C2329 C2328 1.391 . S
C2329 C2333 1.376 . S
C2330 C2328 1.394 . S
C2330 C2331 1.369 . S
C2330 C2334 1.531 . S
C2331 C2330 1.369 . S
C2331 C2332 1.410 . S
C2331 C2339 1.503 . S
C2332 C2331 1.410 . S
C2332 C2333 1.392 . S
C2332 C2335 1.511 . S
C2333 C2329 1.376 . S
C2333 C2332 1.392 . S
C2333 H2345 0.929 . S
C2334 C2330 1.531 . S
C2334 H2346 0.960 . S
C2334 H2347 0.962 . S
C2334 H2348 0.960 . S
C2335 C2332 1.511 . S
C2335 H2349 0.961 . S
C2335 H2350 0.961 . S
C2335 H2351 0.961 . S
C2336 C2337 1.370 . S
C2336 C2338 1.363 . S
C2336 H2352 0.931 . S
C2337 C2336 1.370 . S
C2337 C2341 1.408 . S
C2338 C2336 1.363 . S
C2338 C2339 1.370 . S
C2338 C2342 1.524 . S
C2339 C2331 1.503 . S
C2339 C2338 1.370 . S
C2339 C2340 1.403 . S
C2340 C2339 1.403 . S
C2340 C2341 1.404 . S
C2340 C2343 1.539 . S
C2341 C2337 1.408 . S
C2341 C2340 1.404 . S
C2341 H2353 0.930 . S
C2342 C2338 1.524 . S
C2342 H2354 0.956 . S
C2342 H2355 0.961 . S
C2342 H2356 0.961 . S
C2343 C2340 1.539 . S
C2343 H2357 0.958 . S
C2343 H2358 0.961 . S
C2343 H2359 0.960 . S
H2344 C2328 0.931 . S
H2345 C2333 0.929 . S
H2346 C2334 0.960 . S
H2347 C2334 0.962 . S
H2348 C2334 0.960 . S
H2349 C2335 0.961 . S
H2350 C2335 0.961 . S
H2351 C2335 0.961 . S
H2352 C2336 0.931 . S
H2353 C2341 0.930 . S
H2354 C2342 0.956 . S
H2355 C2342 0.961 . S
H2356 C2342 0.961 . S
H2357 C2343 0.958 . S
H2358 C2343 0.961 . S
H2359 C2343 0.960 . S
C2360 C2361 1.391 . S
C2360 C2362 1.394 . S
C2360 H2376 0.931 . S
C2361 C2360 1.391 . S
C2361 C2365 1.376 . S
C2362 C2360 1.394 . S
C2362 C2363 1.369 . S
C2362 C2366 1.531 . S
C2363 C2362 1.369 . S
C2363 C2364 1.410 . S
C2363 C2371 1.503 . S
C2364 C2363 1.410 . S
C2364 C2365 1.392 . S
C2364 C2367 1.511 . S
C2365 C2361 1.376 . S
C2365 C2364 1.392 . S
C2365 H2377 0.929 . S
C2366 C2362 1.531 . S
C2366 H2378 0.960 . S
C2366 H2379 0.962 . S
C2366 H2380 0.960 . S
C2367 C2364 1.511 . S
C2367 H2381 0.961 . S
C2367 H2382 0.961 . S
C2367 H2383 0.961 . S
C2368 C2369 1.370 . S
C2368 C2370 1.363 . S
C2368 H2384 0.931 . S
C2369 C2368 1.370 . S
C2369 C2373 1.408 . S
C2370 C2368 1.363 . S
C2370 C2371 1.370 . S
C2370 C2374 1.524 . S
C2371 C2363 1.503 . S
C2371 C2370 1.370 . S
C2371 C2372 1.403 . S
C2372 C2371 1.403 . S
C2372 C2373 1.404 . S
C2372 C2375 1.539 . S
C2373 C2369 1.408 . S
C2373 C2372 1.404 . S
C2373 H2385 0.930 . S
C2374 C2370 1.524 . S
C2374 H2386 0.956 . S
C2374 H2387 0.961 . S
C2374 H2388 0.961 . S
C2375 C2372 1.539 . S
C2375 H2389 0.958 . S
C2375 H2390 0.961 . S
C2375 H2391 0.960 . S
H2376 C2360 0.931 . S
H2377 C2365 0.929 . S
H2378 C2366 0.960 . S
H2379 C2366 0.962 . S
H2380 C2366 0.960 . S
H2381 C2367 0.961 . S
H2382 C2367 0.961 . S
H2383 C2367 0.961 . S
H2384 C2368 0.931 . S
H2385 C2373 0.930 . S
H2386 C2374 0.956 . S
H2387 C2374 0.961 . S
H2388 C2374 0.961 . S
H2389 C2375 0.958 . S
H2390 C2375 0.961 . S
H2391 C2375 0.960 . S
C2392 C2393 1.391 . S
C2392 C2394 1.394 . S
C2392 H2408 0.931 . S
C2393 C2392 1.391 . S
C2393 C2397 1.376 . S
C2394 C2392 1.394 . S
C2394 C2395 1.369 . S
C2394 C2398 1.531 . S
C2395 C2394 1.369 . S
C2395 C2396 1.410 . S
C2395 C2403 1.503 . S
C2396 C2395 1.410 . S
C2396 C2397 1.392 . S
C2396 C2399 1.511 . S
C2397 C2393 1.376 . S
C2397 C2396 1.392 . S
C2397 H2409 0.929 . S
C2398 C2394 1.531 . S
C2398 H2410 0.960 . S
C2398 H2411 0.962 . S
C2398 H2412 0.960 . S
C2399 C2396 1.511 . S
C2399 H2413 0.961 . S
C2399 H2414 0.961 . S
C2399 H2415 0.961 . S
C2400 C2401 1.370 . S
C2400 C2402 1.363 . S
C2400 H2416 0.931 . S
C2401 C2400 1.370 . S
C2401 C2405 1.408 . S
C2402 C2400 1.363 . S
C2402 C2403 1.370 . S
C2402 C2406 1.524 . S
C2403 C2395 1.503 . S
C2403 C2402 1.370 . S
C2403 C2404 1.403 . S
C2404 C2403 1.403 . S
C2404 C2405 1.404 . S
C2404 C2407 1.539 . S
C2405 C2401 1.408 . S
C2405 C2404 1.404 . S
C2405 H2417 0.930 . S
C2406 C2402 1.524 . S
C2406 H2418 0.956 . S
C2406 H2419 0.961 . S
C2406 H2420 0.961 . S
C2407 C2404 1.539 . S
C2407 H2421 0.958 . S
C2407 H2422 0.961 . S
C2407 H2423 0.960 . S
H2408 C2392 0.931 . S
H2409 C2397 0.929 . S
H2410 C2398 0.960 . S
H2411 C2398 0.962 . S
H2412 C2398 0.960 . S
H2413 C2399 0.961 . S
H2414 C2399 0.961 . S
H2415 C2399 0.961 . S
H2416 C2400 0.931 . S
H2417 C2405 0.930 . S
H2418 C2406 0.956 . S
H2419 C2406 0.961 . S
H2420 C2406 0.961 . S
H2421 C2407 0.958 . S
H2422 C2407 0.961 . S
H2423 C2407 0.960 . S
C2424 C2425 1.391 . S
C2424 C2426 1.394 . S
C2424 H2440 0.931 . S
C2425 C2424 1.391 . S
C2425 C2429 1.376 . S
C2426 C2424 1.394 . S
C2426 C2427 1.369 . S
C2426 C2430 1.531 . S
C2427 C2426 1.369 . S
C2427 C2428 1.410 . S
C2427 C2435 1.503 . S
C2428 C2427 1.410 . S
C2428 C2429 1.392 . S
C2428 C2431 1.511 . S
C2429 C2425 1.376 . S
C2429 C2428 1.392 . S
C2429 H2441 0.929 . S
C2430 C2426 1.531 . S
C2430 H2442 0.960 . S
C2430 H2443 0.962 . S
C2430 H2444 0.960 . S
C2431 C2428 1.511 . S
C2431 H2445 0.961 . S
C2431 H2446 0.961 . S
C2431 H2447 0.961 . S
C2432 C2433 1.370 . S
C2432 C2434 1.363 . S
C2432 H2448 0.931 . S
C2433 C2432 1.370 . S
C2433 C2437 1.408 . S
C2434 C2432 1.363 . S
C2434 C2435 1.370 . S
C2434 C2438 1.524 . S
C2435 C2427 1.503 . S
C2435 C2434 1.370 . S
C2435 C2436 1.403 . S
C2436 C2435 1.403 . S
C2436 C2437 1.404 . S
C2436 C2439 1.539 1_554 S
C2437 C2433 1.408 . S
C2437 C2436 1.404 . S
C2437 H2449 0.930 1_554 S
C2438 C2434 1.524 . S
C2438 H2450 0.956 . S
C2438 H2451 0.961 . S
C2438 H2452 0.961 . S
C2439 C2436 1.539 1_556 S
C2439 H2453 0.958 . S
C2439 H2454 0.961 . S
C2439 H2455 0.960 . S
H2440 C2424 0.931 . S
H2441 C2429 0.929 . S
H2442 C2430 0.960 . S
H2443 C2430 0.962 . S
H2444 C2430 0.960 . S
H2445 C2431 0.961 . S
H2446 C2431 0.961 . S
H2447 C2431 0.961 . S
H2448 C2432 0.931 . S
H2449 C2437 0.930 1_556 S
H2450 C2438 0.956 . S
H2451 C2438 0.961 . S
H2452 C2438 0.961 . S
H2453 C2439 0.958 . S
H2454 C2439 0.961 . S
H2455 C2439 0.960 . S
C2456 C2457 1.391 . S
C2456 C2458 1.394 . S
C2456 H2472 0.931 . S
C2457 C2456 1.391 . S
C2457 C2461 1.376 . S
C2458 C2456 1.394 . S
C2458 C2459 1.369 . S
C2458 C2462 1.531 . S
C2459 C2458 1.369 . S
C2459 C2460 1.410 . S
C2459 C2467 1.503 . S
C2460 C2459 1.410 . S
C2460 C2461 1.392 . S
C2460 C2463 1.511 . S
C2461 C2457 1.376 . S
C2461 C2460 1.392 . S
C2461 H2473 0.929 . S
C2462 C2458 1.531 . S
C2462 H2474 0.960 . S
C2462 H2475 0.962 . S
C2462 H2476 0.960 . S
C2463 C2460 1.511 . S
C2463 H2477 0.961 . S
C2463 H2478 0.961 . S
C2463 H2479 0.961 . S
C2464 C2465 1.370 . S
C2464 C2466 1.363 . S
C2464 H2480 0.931 . S
C2465 C2464 1.370 . S
C2465 C2469 1.408 . S
C2466 C2464 1.363 . S
C2466 C2467 1.370 . S
C2466 C2470 1.524 . S
C2467 C2459 1.503 . S
C2467 C2466 1.370 . S
C2467 C2468 1.403 . S
C2468 C2467 1.403 . S
C2468 C2469 1.404 . S
C2468 C2471 1.539 . S
C2469 C2465 1.408 . S
C2469 C2468 1.404 . S
C2469 H2481 0.930 . S
C2470 C2466 1.524 . S
C2470 H2482 0.956 . S
C2470 H2483 0.961 . S
C2470 H2484 0.961 . S
C2471 C2468 1.539 . S
C2471 H2485 0.958 . S
C2471 H2486 0.961 . S
C2471 H2487 0.960 . S
H2472 C2456 0.931 . S
H2473 C2461 0.929 . S
H2474 C2462 0.960 . S
H2475 C2462 0.962 . S
H2476 C2462 0.960 . S
H2477 C2463 0.961 . S
H2478 C2463 0.961 . S
H2479 C2463 0.961 . S
H2480 C2464 0.931 . S
H2481 C2469 0.930 . S
H2482 C2470 0.956 . S
H2483 C2470 0.961 . S
H2484 C2470 0.961 . S
H2485 C2471 0.958 . S
H2486 C2471 0.961 . S
H2487 C2471 0.960 . S
C2488 C2489 1.391 . S
C2488 C2490 1.394 . S
C2488 H2504 0.931 . S
C2489 C2488 1.391 . S
C2489 C2493 1.376 . S
C2490 C2488 1.394 . S
C2490 C2491 1.369 . S
C2490 C2494 1.531 . S
C2491 C2490 1.369 . S
C2491 C2492 1.410 . S
C2491 C2499 1.503 . S
C2492 C2491 1.410 . S
C2492 C2493 1.392 . S
C2492 C2495 1.511 . S
C2493 C2489 1.376 . S
C2493 C2492 1.392 . S
C2493 H2505 0.929 . S
C2494 C2490 1.531 . S
C2494 H2506 0.960 . S
C2494 H2507 0.962 . S
C2494 H2508 0.960 . S
C2495 C2492 1.511 . S
C2495 H2509 0.961 . S
C2495 H2510 0.961 . S
C2495 H2511 0.961 . S
C2496 C2497 1.370 . S
C2496 C2498 1.363 . S
C2496 H2512 0.931 . S
C2497 C2496 1.370 . S
C2497 C2501 1.408 . S
C2498 C2496 1.363 . S
C2498 C2499 1.370 . S
C2498 C2502 1.524 . S
C2499 C2491 1.503 . S
C2499 C2498 1.370 . S
C2499 C2500 1.403 . S
C2500 C2499 1.403 . S
C2500 C2501 1.404 . S
C2500 C2503 1.539 . S
C2501 C2497 1.408 . S
C2501 C2500 1.404 . S
C2501 H2513 0.930 . S
C2502 C2498 1.524 . S
C2502 H2514 0.956 . S
C2502 H2515 0.961 . S
C2502 H2516 0.961 . S
C2503 C2500 1.539 . S
C2503 H2517 0.958 . S
C2503 H2518 0.961 . S
C2503 H2519 0.960 . S
H2504 C2488 0.931 . S
H2505 C2493 0.929 . S
H2506 C2494 0.960 . S
H2507 C2494 0.962 . S
H2508 C2494 0.960 . S
H2509 C2495 0.961 . S
H2510 C2495 0.961 . S
H2511 C2495 0.961 . S
H2512 C2496 0.931 . S
H2513 C2501 0.930 . S
H2514 C2502 0.956 . S
H2515 C2502 0.961 . S
H2516 C2502 0.961 . S
H2517 C2503 0.958 . S
H2518 C2503 0.961 . S
H2519 C2503 0.960 . S
C2520 C2521 1.391 . S
C2520 C2522 1.394 . S
C2520 H2536 0.931 . S
C2521 C2520 1.391 . S
C2521 C2525 1.376 . S
C2522 C2520 1.394 . S
C2522 C2523 1.369 . S
C2522 C2526 1.531 . S
C2523 C2522 1.369 . S
C2523 C2524 1.410 . S
C2523 C2531 1.503 . S
C2524 C2523 1.410 . S
C2524 C2525 1.392 . S
C2524 C2527 1.511 . S
C2525 C2521 1.376 . S
C2525 C2524 1.392 . S
C2525 H2537 0.929 . S
C2526 C2522 1.531 . S
C2526 H2538 0.960 . S
C2526 H2539 0.962 . S
C2526 H2540 0.960 . S
C2527 C2524 1.511 . S
C2527 H2541 0.961 . S
C2527 H2542 0.961 . S
C2527 H2543 0.961 . S
C2528 C2529 1.370 . S
C2528 C2530 1.363 . S
C2528 H2544 0.931 . S
C2529 C2528 1.370 . S
C2529 C2533 1.408 . S
C2530 C2528 1.363 . S
C2530 C2531 1.370 . S
C2530 C2534 1.524 . S
C2531 C2523 1.503 . S
C2531 C2530 1.370 . S
C2531 C2532 1.403 . S
C2532 C2531 1.403 . S
C2532 C2533 1.404 . S
C2532 C2535 1.539 . S
C2533 C2529 1.408 . S
C2533 C2532 1.404 . S
C2533 H2545 0.930 . S
C2534 C2530 1.524 . S
C2534 H2546 0.956 . S
C2534 H2547 0.961 . S
C2534 H2548 0.961 . S
C2535 C2532 1.539 . S
C2535 H2549 0.958 . S
C2535 H2550 0.961 . S
C2535 H2551 0.960 . S
H2536 C2520 0.931 . S
H2537 C2525 0.929 . S
H2538 C2526 0.960 . S
H2539 C2526 0.962 . S
H2540 C2526 0.960 . S
H2541 C2527 0.961 . S
H2542 C2527 0.961 . S
H2543 C2527 0.961 . S
H2544 C2528 0.931 . S
H2545 C2533 0.930 . S
H2546 C2534 0.956 . S
H2547 C2534 0.961 . S
H2548 C2534 0.961 . S
H2549 C2535 0.958 . S
H2550 C2535 0.961 . S
H2551 C2535 0.960 . S
C2552 C2553 1.391 . S
C2552 C2554 1.394 . S
C2552 H2568 0.931 . S
C2553 C2552 1.391 . S
C2553 C2557 1.376 . S
C2554 C2552 1.394 . S
C2554 C2555 1.369 . S
C2554 C2558 1.531 . S
C2555 C2554 1.369 . S
C2555 C2556 1.410 . S
C2555 C2563 1.503 . S
C2556 C2555 1.410 . S
C2556 C2557 1.392 . S
C2556 C2559 1.511 . S
C2557 C2553 1.376 . S
C2557 C2556 1.392 . S
C2557 H2569 0.929 . S
C2558 C2554 1.531 . S
C2558 H2570 0.960 . S
C2558 H2571 0.962 . S
C2558 H2572 0.960 . S
C2559 C2556 1.511 . S
C2559 H2573 0.961 . S
C2559 H2574 0.961 . S
C2559 H2575 0.961 . S
C2560 C2561 1.370 . S
C2560 C2562 1.363 . S
C2560 H2576 0.931 . S
C2561 C2560 1.370 . S
C2561 C2565 1.408 . S
C2562 C2560 1.363 . S
C2562 C2563 1.370 . S
C2562 C2566 1.524 . S
C2563 C2555 1.503 . S
C2563 C2562 1.370 . S
C2563 C2564 1.403 . S
C2564 C2563 1.403 . S
C2564 C2565 1.404 . S
C2564 C2567 1.539 . S
C2565 C2561 1.408 . S
C2565 C2564 1.404 . S
C2565 H2577 0.930 . S
C2566 C2562 1.524 . S
C2566 H2578 0.956 . S
C2566 H2579 0.961 . S
C2566 H2580 0.961 . S
C2567 C2564 1.539 . S
C2567 H2581 0.958 . S
C2567 H2582 0.961 . S
C2567 H2583 0.960 . S
H2568 C2552 0.931 . S
H2569 C2557 0.929 . S
H2570 C2558 0.960 . S
H2571 C2558 0.962 . S
H2572 C2558 0.960 . S
H2573 C2559 0.961 . S
H2574 C2559 0.961 . S
H2575 C2559 0.961 . S
H2576 C2560 0.931 . S
H2577 C2565 0.930 . S
H2578 C2566 0.956 . S
H2579 C2566 0.961 . S
H2580 C2566 0.961 . S
H2581 C2567 0.958 . S
H2582 C2567 0.961 . S
H2583 C2567 0.960 . S
C2584 C2585 1.391 . S
C2584 C2586 1.394 . S
C2584 H2600 0.931 . S
C2585 C2584 1.391 . S
C2585 C2589 1.376 . S
C2586 C2584 1.394 . S
C2586 C2587 1.369 . S
C2586 C2590 1.531 . S
C2587 C2586 1.369 . S
C2587 C2588 1.410 . S
C2587 C2595 1.503 . S
C2588 C2587 1.410 . S
C2588 C2589 1.392 . S
C2588 C2591 1.511 . S
C2589 C2585 1.376 . S
C2589 C2588 1.392 . S
C2589 H2601 0.929 . S
C2590 C2586 1.531 . S
C2590 H2602 0.960 . S
C2590 H2603 0.962 . S
C2590 H2604 0.960 . S
C2591 C2588 1.511 . S
C2591 H2605 0.961 . S
C2591 H2606 0.961 . S
C2591 H2607 0.961 . S
C2592 C2593 1.370 . S
C2592 C2594 1.363 . S
C2592 H2608 0.931 . S
C2593 C2592 1.370 . S
C2593 C2597 1.408 . S
C2594 C2592 1.363 . S
C2594 C2595 1.370 . S
C2594 C2598 1.524 . S
C2595 C2587 1.503 . S
C2595 C2594 1.370 . S
C2595 C2596 1.403 . S
C2596 C2595 1.403 . S
C2596 C2597 1.404 . S
C2596 C2599 1.539 . S
C2597 C2593 1.408 . S
C2597 C2596 1.404 . S
C2597 H2609 0.930 . S
C2598 C2594 1.524 . S
C2598 H2610 0.956 . S
C2598 H2611 0.961 . S
C2598 H2612 0.961 . S
C2599 C2596 1.539 . S
C2599 H2613 0.958 . S
C2599 H2614 0.961 . S
C2599 H2615 0.960 . S
H2600 C2584 0.931 . S
H2601 C2589 0.929 . S
H2602 C2590 0.960 . S
H2603 C2590 0.962 . S
H2604 C2590 0.960 . S
H2605 C2591 0.961 . S
H2606 C2591 0.961 . S
H2607 C2591 0.961 . S
H2608 C2592 0.931 . S
H2609 C2597 0.930 . S
H2610 C2598 0.956 . S
H2611 C2598 0.961 . S
H2612 C2598 0.961 . S
H2613 C2599 0.958 . S
H2614 C2599 0.961 . S
H2615 C2599 0.960 . S
C2616 C2617 1.391 . S
C2616 C2618 1.394 . S
C2616 H2632 0.931 . S
C2617 C2616 1.391 . S
C2617 C2621 1.376 . S
C2618 C2616 1.394 . S
C2618 C2619 1.369 . S
C2618 C2622 1.531 . S
C2619 C2618 1.369 . S
C2619 C2620 1.410 . S
C2619 C2627 1.503 . S
C2620 C2619 1.410 . S
C2620 C2621 1.392 . S
C2620 C2623 1.511 . S
C2621 C2617 1.376 . S
C2621 C2620 1.392 . S
C2621 H2633 0.929 . S
C2622 C2618 1.531 . S
C2622 H2634 0.960 . S
C2622 H2635 0.962 . S
C2622 H2636 0.960 . S
C2623 C2620 1.511 . S
C2623 H2637 0.961 . S
C2623 H2638 0.961 . S
C2623 H2639 0.961 . S
C2624 C2625 1.370 . S
C2624 C2626 1.363 . S
C2624 H2640 0.931 . S
C2625 C2624 1.370 . S
C2625 C2629 1.408 1_556 S
C2626 C2624 1.363 . S
C2626 C2627 1.370 . S
C2626 C2630 1.524 . S
C2627 C2619 1.503 . S
C2627 C2626 1.370 . S
C2627 C2628 1.403 . S
C2628 C2627 1.403 . S
C2628 C2629 1.404 1_556 S
C2628 C2631 1.539 1_556 S
C2629 C2625 1.408 1_554 S
C2629 C2628 1.404 1_554 S
C2629 H2641 0.930 . S
C2630 C2626 1.524 . S
C2630 H2642 0.956 . S
C2630 H2643 0.961 . S
C2630 H2644 0.961 . S
C2631 C2628 1.539 1_554 S
C2631 H2645 0.958 . S
C2631 H2646 0.961 . S
C2631 H2647 0.960 1_554 S
H2632 C2616 0.931 . S
H2633 C2621 0.929 . S
H2634 C2622 0.960 . S
H2635 C2622 0.962 . S
H2636 C2622 0.960 . S
H2637 C2623 0.961 . S
H2638 C2623 0.961 . S
H2639 C2623 0.961 . S
H2640 C2624 0.931 . S
H2641 C2629 0.930 . S
H2642 C2630 0.956 . S
H2643 C2630 0.961 . S
H2644 C2630 0.961 . S
H2645 C2631 0.958 . S
H2646 C2631 0.961 . S
H2647 C2631 0.960 1_556 S
C2648 C2649 1.391 . S
C2648 C2650 1.394 . S
C2648 H2664 0.931 . S
C2649 C2648 1.391 . S
C2649 C2653 1.376 . S
C2650 C2648 1.394 . S
C2650 C2651 1.369 . S
C2650 C2654 1.531 . S
C2651 C2650 1.369 . S
C2651 C2652 1.410 . S
C2651 C2659 1.503 . S
C2652 C2651 1.410 . S
C2652 C2653 1.392 . S
C2652 C2655 1.511 . S
C2653 C2649 1.376 . S
C2653 C2652 1.392 . S
C2653 H2665 0.929 . S
C2654 C2650 1.531 . S
C2654 H2666 0.960 . S
C2654 H2667 0.962 . S
C2654 H2668 0.960 . S
C2655 C2652 1.511 . S
C2655 H2669 0.961 . S
C2655 H2670 0.961 . S
C2655 H2671 0.961 . S
C2656 C2657 1.370 . S
C2656 C2658 1.363 . S
C2656 H2672 0.931 . S
C2657 C2656 1.370 . S
C2657 C2661 1.408 . S
C2658 C2656 1.363 . S
C2658 C2659 1.370 . S
C2658 C2662 1.524 . S
C2659 C2651 1.503 . S
C2659 C2658 1.370 . S
C2659 C2660 1.403 . S
C2660 C2659 1.403 . S
C2660 C2661 1.404 . S
C2660 C2663 1.539 . S
C2661 C2657 1.408 . S
C2661 C2660 1.404 . S
C2661 H2673 0.930 . S
C2662 C2658 1.524 . S
C2662 H2674 0.956 . S
C2662 H2675 0.961 . S
C2662 H2676 0.961 . S
C2663 C2660 1.539 . S
C2663 H2677 0.958 . S
C2663 H2678 0.961 . S
C2663 H2679 0.960 . S
H2664 C2648 0.931 . S
H2665 C2653 0.929 . S
H2666 C2654 0.960 . S
H2667 C2654 0.962 . S
H2668 C2654 0.960 . S
H2669 C2655 0.961 . S
H2670 C2655 0.961 . S
H2671 C2655 0.961 . S
H2672 C2656 0.931 . S
H2673 C2661 0.930 . S
H2674 C2662 0.956 . S
H2675 C2662 0.961 . S
H2676 C2662 0.961 . S
H2677 C2663 0.958 . S
H2678 C2663 0.961 . S
H2679 C2663 0.960 . S
C2680 C2681 1.397 . S
C2680 C2682 1.394 . S
C2680 H2696 0.931 . S
C2681 C2680 1.397 . S
C2681 C2685 1.375 1_565 S
C2682 C2680 1.394 . S
C2682 C2683 1.369 . S
C2682 C2686 1.531 . S
C2683 C2682 1.369 . S
C2683 C2684 1.410 1_565 S
C2683 C2691 1.503 1_565 S
C2684 C2683 1.410 1_545 S
C2684 C2685 1.392 . S
C2684 C2687 1.511 . S
C2685 C2681 1.375 1_545 S
C2685 C2684 1.392 . S
C2685 H2697 0.929 . S
C2686 C2682 1.531 . S
C2686 H2698 0.960 . S
C2686 H2699 0.962 . S
C2686 H2700 0.960 . S
C2687 C2684 1.511 . S
C2687 H2701 0.961 . S
C2687 H2702 0.961 . S
C2687 H2703 0.961 . S
C2688 C2689 1.370 . S
C2688 C2690 1.363 . S
C2688 H2704 0.931 . S
C2689 C2688 1.370 . S
C2689 C2693 1.408 1_545 S
C2690 C2688 1.363 . S
C2690 C2691 1.370 . S
C2690 C2694 1.524 . S
C2691 C2683 1.503 1_545 S
C2691 C2690 1.370 . S
C2691 C2692 1.403 1_545 S
C2692 C2691 1.403 1_565 S
C2692 C2693 1.404 . S
C2692 C2695 1.539 . S
C2693 C2689 1.408 1_565 S
C2693 C2692 1.404 . S
C2693 H2705 0.930 . S
C2694 C2690 1.524 . S
C2694 H2706 0.956 . S
C2694 H2707 0.961 . S
C2694 H2708 0.961 . S
C2695 C2692 1.539 . S
C2695 H2709 0.958 . S
C2695 H2710 0.961 . S
C2695 H2711 0.960 . S
H2696 C2680 0.931 . S
H2697 C2685 0.929 . S
H2698 C2686 0.960 . S
H2699 C2686 0.962 . S
H2700 C2686 0.960 . S
H2701 C2687 0.961 . S
H2702 C2687 0.961 . S
H2703 C2687 0.961 . S
H2704 C2688 0.931 . S
H2705 C2693 0.930 . S
H2706 C2694 0.956 . S
H2707 C2694 0.961 . S
H2708 C2694 0.961 . S
H2709 C2695 0.958 . S
H2710 C2695 0.961 . S
H2711 C2695 0.960 . S
C2712 C2713 1.391 . S
C2712 C2714 1.394 . S
C2712 H2728 0.931 . S
C2713 C2712 1.391 . S
C2713 C2717 1.376 . S
C2714 C2712 1.394 . S
C2714 C2715 1.369 . S
C2714 C2718 1.531 . S
C2715 C2714 1.369 . S
C2715 C2716 1.410 . S
C2715 C2723 1.503 . S
C2716 C2715 1.410 . S
C2716 C2717 1.392 . S
C2716 C2719 1.511 . S
C2717 C2713 1.376 . S
C2717 C2716 1.392 . S
C2717 H2729 0.929 . S
C2718 C2714 1.531 . S
C2718 H2730 0.960 . S
C2718 H2731 0.962 . S
C2718 H2732 0.960 . S
C2719 C2716 1.511 . S
C2719 H2733 0.961 . S
C2719 H2734 0.961 . S
C2719 H2735 0.961 . S
C2720 C2721 1.370 . S
C2720 C2722 1.363 . S
C2720 H2736 0.931 . S
C2721 C2720 1.370 . S
C2721 C2725 1.408 . S
C2722 C2720 1.363 . S
C2722 C2723 1.370 . S
C2722 C2726 1.524 . S
C2723 C2715 1.503 . S
C2723 C2722 1.370 . S
C2723 C2724 1.403 . S
C2724 C2723 1.403 . S
C2724 C2725 1.404 . S
C2724 C2727 1.539 . S
C2725 C2721 1.408 . S
C2725 C2724 1.404 . S
C2725 H2737 0.930 . S
C2726 C2722 1.524 . S
C2726 H2738 0.956 . S
C2726 H2739 0.961 . S
C2726 H2740 0.961 . S
C2727 C2724 1.539 . S
C2727 H2741 0.958 . S
C2727 H2742 0.961 . S
C2727 H2743 0.960 . S
H2728 C2712 0.931 . S
H2729 C2717 0.929 . S
H2730 C2718 0.960 . S
H2731 C2718 0.962 . S
H2732 C2718 0.960 . S
H2733 C2719 0.961 . S
H2734 C2719 0.961 . S
H2735 C2719 0.961 . S
H2736 C2720 0.931 . S
H2737 C2725 0.930 . S
H2738 C2726 0.956 . S
H2739 C2726 0.961 . S
H2740 C2726 0.961 . S
H2741 C2727 0.958 . S
H2742 C2727 0.961 . S
H2743 C2727 0.960 . S
C2744 C2745 1.391 . S
C2744 C2746 1.394 . S
C2744 H2760 0.931 1_545 S
C2745 C2744 1.391 . S
C2745 C2749 1.376 . S
C2746 C2744 1.394 . S
C2746 C2747 1.369 . S
C2746 C2750 1.531 1_545 S
C2747 C2746 1.369 . S
C2747 C2748 1.410 . S
C2747 C2755 1.503 . S
C2748 C2747 1.410 . S
C2748 C2749 1.392 . S
C2748 C2751 1.511 . S
C2749 C2745 1.376 . S
C2749 C2748 1.392 . S
C2749 H2761 0.929 . S
C2750 C2746 1.531 1_565 S
C2750 H2762 0.960 . S
C2750 H2763 0.962 . S
C2750 H2764 0.960 . S
C2751 C2748 1.511 . S
C2751 H2765 0.961 . S
C2751 H2766 0.961 . S
C2751 H2767 0.961 . S
C2752 C2753 1.370 . S
C2752 C2754 1.363 . S
C2752 H2768 0.931 . S
C2753 C2752 1.370 . S
C2753 C2757 1.408 . S
C2754 C2752 1.363 . S
C2754 C2755 1.370 . S
C2754 C2758 1.524 . S
C2755 C2747 1.503 . S
C2755 C2754 1.370 . S
C2755 C2756 1.403 . S
C2756 C2755 1.403 . S
C2756 C2757 1.404 . S
C2756 C2759 1.539 . S
C2757 C2753 1.408 . S
C2757 C2756 1.404 . S
C2757 H2769 0.930 . S
C2758 C2754 1.524 . S
C2758 H2770 0.956 . S
C2758 H2771 0.961 . S
C2758 H2772 0.961 . S
C2759 C2756 1.539 . S
C2759 H2773 0.958 . S
C2759 H2774 0.961 . S
C2759 H2775 0.960 . S
H2760 C2744 0.931 1_565 S
H2761 C2749 0.929 . S
H2762 C2750 0.960 . S
H2763 C2750 0.962 . S
H2764 C2750 0.960 . S
H2765 C2751 0.961 . S
H2766 C2751 0.961 . S
H2767 C2751 0.961 . S
H2768 C2752 0.931 . S
H2769 C2757 0.930 . S
H2770 C2758 0.956 . S
H2771 C2758 0.961 . S
H2772 C2758 0.961 . S
H2773 C2759 0.958 . S
H2774 C2759 0.961 . S
H2775 C2759 0.960 . S
C2776 C2777 1.391 . S
C2776 C2778 1.394 . S
C2776 H2792 0.931 . S
C2777 C2776 1.391 . S
C2777 C2781 1.376 . S
C2778 C2776 1.394 . S
C2778 C2779 1.369 . S
C2778 C2782 1.531 . S
C2779 C2778 1.369 . S
C2779 C2780 1.410 . S
C2779 C2787 1.503 . S
C2780 C2779 1.410 . S
C2780 C2781 1.392 . S
C2780 C2783 1.511 . S
C2781 C2777 1.376 . S
C2781 C2780 1.392 . S
C2781 H2793 0.929 . S
C2782 C2778 1.531 . S
C2782 H2794 0.960 . S
C2782 H2795 0.962 . S
C2782 H2796 0.960 . S
C2783 C2780 1.511 . S
C2783 H2797 0.961 . S
C2783 H2798 0.961 . S
C2783 H2799 0.961 . S
C2784 C2785 1.370 . S
C2784 C2786 1.363 . S
C2784 H2800 0.931 . S
C2785 C2784 1.370 . S
C2785 C2789 1.408 . S
C2786 C2784 1.363 . S
C2786 C2787 1.370 . S
C2786 C2790 1.524 . S
C2787 C2779 1.503 . S
C2787 C2786 1.370 . S
C2787 C2788 1.403 . S
C2788 C2787 1.403 . S
C2788 C2789 1.404 . S
C2788 C2791 1.539 . S
C2789 C2785 1.408 . S
C2789 C2788 1.404 . S
C2789 H2801 0.930 . S
C2790 C2786 1.524 . S
C2790 H2802 0.956 . S
C2790 H2803 0.961 . S
C2790 H2804 0.961 . S
C2791 C2788 1.539 . S
C2791 H2805 0.958 . S
C2791 H2806 0.961 . S
C2791 H2807 0.960 . S
H2792 C2776 0.931 . S
H2793 C2781 0.929 . S
H2794 C2782 0.960 . S
H2795 C2782 0.962 . S
H2796 C2782 0.960 . S
H2797 C2783 0.961 . S
H2798 C2783 0.961 . S
H2799 C2783 0.961 . S
H2800 C2784 0.931 . S
H2801 C2789 0.930 . S
H2802 C2790 0.956 . S
H2803 C2790 0.961 . S
H2804 C2790 0.961 . S
H2805 C2791 0.958 . S
H2806 C2791 0.961 . S
H2807 C2791 0.960 . S
C2808 C2809 1.391 . S
C2808 C2810 1.394 . S
C2808 H2824 0.931 . S
C2809 C2808 1.391 . S
C2809 C2813 1.376 1_565 S
C2810 C2808 1.394 . S
C2810 C2811 1.369 1_565 S
C2810 C2814 1.531 . S
C2811 C2810 1.369 1_545 S
C2811 C2812 1.410 . S
C2811 C2819 1.503 . S
C2812 C2811 1.410 . S
C2812 C2813 1.392 . S
C2812 C2815 1.511 . S
C2813 C2809 1.376 1_545 S
C2813 C2812 1.392 . S
C2813 H2825 0.929 . S
C2814 C2810 1.531 . S
C2814 H2826 0.960 . S
C2814 H2827 0.962 . S
C2814 H2828 0.960 . S
C2815 C2812 1.511 . S
C2815 H2829 0.961 . S
C2815 H2830 0.961 . S
C2815 H2831 0.961 . S
C2816 C2817 1.370 . S
C2816 C2818 1.363 . S
C2816 H2832 0.931 . S
C2817 C2816 1.370 . S
C2817 C2821 1.408 . S
C2818 C2816 1.363 . S
C2818 C2819 1.370 . S
C2818 C2822 1.524 . S
C2819 C2811 1.503 . S
C2819 C2818 1.370 . S
C2819 C2820 1.403 1_545 S
C2820 C2819 1.403 1_565 S
C2820 C2821 1.404 1_565 S
C2820 C2823 1.539 . S
C2821 C2817 1.408 . S
C2821 C2820 1.404 1_545 S
C2821 H2833 0.930 1_545 S
C2822 C2818 1.524 . S
C2822 H2834 0.956 . S
C2822 H2835 0.961 . S
C2822 H2836 0.961 . S
C2823 C2820 1.539 . S
C2823 H2837 0.958 . S
C2823 H2838 0.961 . S
C2823 H2839 0.960 . S
H2824 C2808 0.931 . S
H2825 C2813 0.929 . S
H2826 C2814 0.960 . S
H2827 C2814 0.962 . S
H2828 C2814 0.960 . S
H2829 C2815 0.961 . S
H2830 C2815 0.961 . S
H2831 C2815 0.961 . S
H2832 C2816 0.931 . S
H2833 C2821 0.930 1_565 S
H2834 C2822 0.956 . S
H2835 C2822 0.961 . S
H2836 C2822 0.961 . S
H2837 C2823 0.958 . S
H2838 C2823 0.961 . S
H2839 C2823 0.960 . S
C2840 C2841 1.391 . S
C2840 C2842 1.394 . S
C2840 H2856 0.931 . S
C2841 C2840 1.391 . S
C2841 C2845 1.376 . S
C2842 C2840 1.394 . S
C2842 C2843 1.369 . S
C2842 C2846 1.531 . S
C2843 C2842 1.369 . S
C2843 C2844 1.410 . S
C2843 C2851 1.503 . S
C2844 C2843 1.410 . S
C2844 C2845 1.392 . S
C2844 C2847 1.511 . S
C2845 C2841 1.376 . S
C2845 C2844 1.392 . S
C2845 H2857 0.929 . S
C2846 C2842 1.531 . S
C2846 H2858 0.960 . S
C2846 H2859 0.962 . S
C2846 H2860 0.960 . S
C2847 C2844 1.511 . S
C2847 H2861 0.961 . S
C2847 H2862 0.961 . S
C2847 H2863 0.961 . S
C2848 C2849 1.370 . S
C2848 C2850 1.363 . S
C2848 H2864 0.931 . S
C2849 C2848 1.370 . S
C2849 C2853 1.408 . S
C2850 C2848 1.363 . S
C2850 C2851 1.370 . S
C2850 C2854 1.524 . S
C2851 C2843 1.503 . S
C2851 C2850 1.370 . S
C2851 C2852 1.403 . S
C2852 C2851 1.403 . S
C2852 C2853 1.404 . S
C2852 C2855 1.539 . S
C2853 C2849 1.408 . S
C2853 C2852 1.404 . S
C2853 H2865 0.930 . S
C2854 C2850 1.524 . S
C2854 H2866 0.956 . S
C2854 H2867 0.961 . S
C2854 H2868 0.961 . S
C2855 C2852 1.539 . S
C2855 H2869 0.958 . S
C2855 H2870 0.961 . S
C2855 H2871 0.960 . S
H2856 C2840 0.931 . S
H2857 C2845 0.929 . S
H2858 C2846 0.960 . S
H2859 C2846 0.962 . S
H2860 C2846 0.960 . S
H2861 C2847 0.961 . S
H2862 C2847 0.961 . S
H2863 C2847 0.961 . S
H2864 C2848 0.931 . S
H2865 C2853 0.930 . S
H2866 C2854 0.956 . S
H2867 C2854 0.961 . S
H2868 C2854 0.961 . S
H2869 C2855 0.958 . S
H2870 C2855 0.961 . S
H2871 C2855 0.960 . S
C2872 C2873 1.391 . S
C2872 C2874 1.394 . S
C2872 H2888 0.931 . S
C2873 C2872 1.391 . S
C2873 C2877 1.376 . S
C2874 C2872 1.394 . S
C2874 C2875 1.369 . S
C2874 C2878 1.531 . S
C2875 C2874 1.369 . S
C2875 C2876 1.410 . S
C2875 C2883 1.503 . S
C2876 C2875 1.410 . S
C2876 C2877 1.392 . S
C2876 C2879 1.511 . S
C2877 C2873 1.376 . S
C2877 C2876 1.392 . S
C2877 H2889 0.929 . S
C2878 C2874 1.531 . S
C2878 H2890 0.960 . S
C2878 H2891 0.962 . S
C2878 H2892 0.960 . S
C2879 C2876 1.511 . S
C2879 H2893 0.961 1_545 S
C2879 H2894 0.961 1_545 S
C2879 H2895 0.961 . S
C2880 C2881 1.370 1_565 S
C2880 C2882 1.363 . S
C2880 H2896 0.931 . S
C2881 C2880 1.370 1_545 S
C2881 C2885 1.408 . S
C2882 C2880 1.363 . S
C2882 C2883 1.370 1_565 S
C2882 C2886 1.524 . S
C2883 C2875 1.503 . S
C2883 C2882 1.370 1_545 S
C2883 C2884 1.403 . S
C2884 C2883 1.403 . S
C2884 C2885 1.404 . S
C2884 C2887 1.539 . S
C2885 C2881 1.408 . S
C2885 C2884 1.404 . S
C2885 H2897 0.930 . S
C2886 C2882 1.524 . S
C2886 H2898 0.956 . S
C2886 H2899 0.961 . S
C2886 H2900 0.961 . S
C2887 C2884 1.539 . S
C2887 H2901 0.958 . S
C2887 H2902 0.961 . S
C2887 H2903 0.960 . S
H2888 C2872 0.931 . S
H2889 C2877 0.929 . S
H2890 C2878 0.960 . S
H2891 C2878 0.962 . S
H2892 C2878 0.960 . S
H2893 C2879 0.961 1_565 S
H2894 C2879 0.961 1_565 S
H2895 C2879 0.961 . S
H2896 C2880 0.931 . S
H2897 C2885 0.930 . S
H2898 C2886 0.956 . S
H2899 C2886 0.961 . S
H2900 C2886 0.961 . S
H2901 C2887 0.958 . S
H2902 C2887 0.961 . S
H2903 C2887 0.960 . S
C2904 C2905 1.391 . S
C2904 C2906 1.394 . S
C2904 H2920 0.931 . S
C2905 C2904 1.391 . S
C2905 C2909 1.376 . S
C2906 C2904 1.394 . S
C2906 C2907 1.369 . S
C2906 C2910 1.531 . S
C2907 C2906 1.369 . S
C2907 C2908 1.410 . S
C2907 C2915 1.503 . S
C2908 C2907 1.410 . S
C2908 C2909 1.392 . S
C2908 C2911 1.511 . S
C2909 C2905 1.376 . S
C2909 C2908 1.392 . S
C2909 H2921 0.929 . S
C2910 C2906 1.531 . S
C2910 H2922 0.960 . S
C2910 H2923 0.962 . S
C2910 H2924 0.960 . S
C2911 C2908 1.511 . S
C2911 H2925 0.961 . S
C2911 H2926 0.961 . S
C2911 H2927 0.961 . S
C2912 C2913 1.370 . S
C2912 C2914 1.363 . S
C2912 H2928 0.931 . S
C2913 C2912 1.370 . S
C2913 C2917 1.408 . S
C2914 C2912 1.363 . S
C2914 C2915 1.370 . S
C2914 C2918 1.524 . S
C2915 C2907 1.503 . S
C2915 C2914 1.370 . S
C2915 C2916 1.403 . S
C2916 C2915 1.403 . S
C2916 C2917 1.404 . S
C2916 C2919 1.539 . S
C2917 C2913 1.408 . S
C2917 C2916 1.404 . S
C2917 H2929 0.930 . S
C2918 C2914 1.524 . S
C2918 H2930 0.956 . S
C2918 H2931 0.961 . S
C2918 H2932 0.961 . S
C2919 C2916 1.539 . S
C2919 H2933 0.958 . S
C2919 H2934 0.961 . S
C2919 H2935 0.960 . S
H2920 C2904 0.931 . S
H2921 C2909 0.929 . S
H2922 C2910 0.960 . S
H2923 C2910 0.962 . S
H2924 C2910 0.960 . S
H2925 C2911 0.961 . S
H2926 C2911 0.961 . S
H2927 C2911 0.961 . S
H2928 C2912 0.931 . S
H2929 C2917 0.930 . S
H2930 C2918 0.956 . S
H2931 C2918 0.961 . S
H2932 C2918 0.961 . S
H2933 C2919 0.958 . S
H2934 C2919 0.961 . S
H2935 C2919 0.960 . S
C2936 C2937 1.391 . S
C2936 C2938 1.394 . S
C2936 H2952 0.931 . S
C2937 C2936 1.391 . S
C2937 C2941 1.376 . S
C2938 C2936 1.394 . S
C2938 C2939 1.369 . S
C2938 C2942 1.531 . S
C2939 C2938 1.369 . S
C2939 C2940 1.410 . S
C2939 C2947 1.503 . S
C2940 C2939 1.410 . S
C2940 C2941 1.392 . S
C2940 C2943 1.511 1_554 S
C2941 C2937 1.376 . S
C2941 C2940 1.392 . S
C2941 H2953 0.929 . S
C2942 C2938 1.531 . S
C2942 H2954 0.960 . S
C2942 H2955 0.962 . S
C2942 H2956 0.960 . S
C2943 C2940 1.511 1_556 S
C2943 H2957 0.961 . S
C2943 H2958 0.961 . S
C2943 H2959 0.961 1_556 S
C2944 C2945 1.370 1_556 S
C2944 C2946 1.363 . S
C2944 H2960 0.931 . S
C2945 C2944 1.370 1_554 S
C2945 C2949 1.408 . S
C2946 C2944 1.363 . S
C2946 C2947 1.370 1_556 S
C2946 C2950 1.524 . S
C2947 C2939 1.503 . S
C2947 C2946 1.370 1_554 S
C2947 C2948 1.403 . S
C2948 C2947 1.403 . S
C2948 C2949 1.404 . S
C2948 C2951 1.539 . S
C2949 C2945 1.408 . S
C2949 C2948 1.404 . S
C2949 H2961 0.930 . S
C2950 C2946 1.524 . S
C2950 H2962 0.956 . S
C2950 H2963 0.961 . S
C2950 H2964 0.961 . S
C2951 C2948 1.539 . S
C2951 H2965 0.958 . S
C2951 H2966 0.961 . S
C2951 H2967 0.960 . S
H2952 C2936 0.931 . S
H2953 C2941 0.929 . S
H2954 C2942 0.960 . S
H2955 C2942 0.962 . S
H2956 C2942 0.960 . S
H2957 C2943 0.961 . S
H2958 C2943 0.961 . S
H2959 C2943 0.961 1_554 S
H2960 C2944 0.931 . S
H2961 C2949 0.930 . S
H2962 C2950 0.956 . S
H2963 C2950 0.961 . S
H2964 C2950 0.961 . S
H2965 C2951 0.958 . S
H2966 C2951 0.961 . S
H2967 C2951 0.960 . S
C2968 C2969 1.391 . S
C2968 C2970 1.394 . S
C2968 H2984 0.931 . S
C2969 C2968 1.391 . S
C2969 C2973 1.376 . S
C2970 C2968 1.394 . S
C2970 C2971 1.369 . S
C2970 C2974 1.531 . S
C2971 C2970 1.369 . S
C2971 C2972 1.410 . S
C2971 C2979 1.503 . S
C2972 C2971 1.410 . S
C2972 C2973 1.392 . S
C2972 C2975 1.511 . S
C2973 C2969 1.376 . S
C2973 C2972 1.392 . S
C2973 H2985 0.929 . S
C2974 C2970 1.531 . S
C2974 H2986 0.960 . S
C2974 H2987 0.962 . S
C2974 H2988 0.960 . S
C2975 C2972 1.511 . S
C2975 H2989 0.961 . S
C2975 H2990 0.961 . S
C2975 H2991 0.961 . S
C2976 C2977 1.370 . S
C2976 C2978 1.363 . S
C2976 H2992 0.931 . S
C2977 C2976 1.370 . S
C2977 C2981 1.408 . S
C2978 C2976 1.363 . S
C2978 C2979 1.370 . S
C2978 C2982 1.524 . S
C2979 C2971 1.503 . S
C2979 C2978 1.370 . S
C2979 C2980 1.403 . S
C2980 C2979 1.403 . S
C2980 C2981 1.404 . S
C2980 C2983 1.539 . S
C2981 C2977 1.408 . S
C2981 C2980 1.404 . S
C2981 H2993 0.930 . S
C2982 C2978 1.524 . S
C2982 H2994 0.956 . S
C2982 H2995 0.960 . S
C2982 H2996 0.961 1_554 S
C2983 C2980 1.539 . S
C2983 H2997 0.958 . S
C2983 H2998 0.961 . S
C2983 H2999 0.960 . S
H2984 C2968 0.931 . S
H2985 C2973 0.929 . S
H2986 C2974 0.960 . S
H2987 C2974 0.962 . S
H2988 C2974 0.960 . S
H2989 C2975 0.961 . S
H2990 C2975 0.961 . S
H2991 C2975 0.961 . S
H2992 C2976 0.931 . S
H2993 C2981 0.930 . S
H2994 C2982 0.956 . S
H2995 C2982 0.960 . S
H2996 C2982 0.961 1_556 S
H2997 C2983 0.958 . S
H2998 C2983 0.961 . S
H2999 C2983 0.960 . S
C3000 C3001 1.391 . S
C3000 C3002 1.394 . S
C3000 H3016 0.931 . S
C3001 C3000 1.391 . S
C3001 C3005 1.376 . S
C3002 C3000 1.394 . S
C3002 C3003 1.369 . S
C3002 C3006 1.531 . S
C3003 C3002 1.369 . S
C3003 C3004 1.410 . S
C3003 C3011 1.503 . S
C3004 C3003 1.410 . S
C3004 C3005 1.392 . S
C3004 C3007 1.511 . S
C3005 C3001 1.376 . S
C3005 C3004 1.392 . S
C3005 H3017 0.929 . S
C3006 C3002 1.531 . S
C3006 H3018 0.960 . S
C3006 H3019 0.962 . S
C3006 H3020 0.960 . S
C3007 C3004 1.511 . S
C3007 H3021 0.961 . S
C3007 H3022 0.961 . S
C3007 H3023 0.961 . S
C3008 C3009 1.370 . S
C3008 C3010 1.363 . S
C3008 H3024 0.931 . S
C3009 C3008 1.370 . S
C3009 C3013 1.408 . S
C3010 C3008 1.363 . S
C3010 C3011 1.370 . S
C3010 C3014 1.524 . S
C3011 C3003 1.503 . S
C3011 C3010 1.370 . S
C3011 C3012 1.403 . S
C3012 C3011 1.403 . S
C3012 C3013 1.404 . S
C3012 C3015 1.539 . S
C3013 C3009 1.408 . S
C3013 C3012 1.404 . S
C3013 H3025 0.930 . S
C3014 C3010 1.524 . S
C3014 H3026 0.956 . S
C3014 H3027 0.961 . S
C3014 H3028 0.961 . S
C3015 C3012 1.539 . S
C3015 H3029 0.958 . S
C3015 H3030 0.961 . S
C3015 H3031 0.960 . S
H3016 C3000 0.931 . S
H3017 C3005 0.929 . S
H3018 C3006 0.960 . S
H3019 C3006 0.962 . S
H3020 C3006 0.960 . S
H3021 C3007 0.961 . S
H3022 C3007 0.961 . S
H3023 C3007 0.961 . S
H3024 C3008 0.931 . S
H3025 C3013 0.930 . S
H3026 C3014 0.956 . S
H3027 C3014 0.961 . S
H3028 C3014 0.961 . S
H3029 C3015 0.958 . S
H3030 C3015 0.961 . S
H3031 C3015 0.960 . S
C3032 C3033 1.391 . S
C3032 C3034 1.394 . S
C3032 H3048 0.931 . S
C3033 C3032 1.391 . S
C3033 C3037 1.376 . S
C3034 C3032 1.394 . S
C3034 C3035 1.369 . S
C3034 C3038 1.531 . S
C3035 C3034 1.369 . S
C3035 C3036 1.410 . S
C3035 C3043 1.503 . S
C3036 C3035 1.410 . S
C3036 C3037 1.392 . S
C3036 C3039 1.511 . S
C3037 C3033 1.376 . S
C3037 C3036 1.392 . S
C3037 H3049 0.929 . S
C3038 C3034 1.531 . S
C3038 H3050 0.960 . S
C3038 H3051 0.962 . S
C3038 H3052 0.960 . S
C3039 C3036 1.511 . S
C3039 H3053 0.961 . S
C3039 H3054 0.961 . S
C3039 H3055 0.961 . S
C3040 C3041 1.370 . S
C3040 C3042 1.363 . S
C3040 H3056 0.931 . S
C3041 C3040 1.370 . S
C3041 C3045 1.408 . S
C3042 C3040 1.363 . S
C3042 C3043 1.370 . S
C3042 C3046 1.524 . S
C3043 C3035 1.503 . S
C3043 C3042 1.370 . S
C3043 C3044 1.403 . S
C3044 C3043 1.403 . S
C3044 C3045 1.404 . S
C3044 C3047 1.539 . S
C3045 C3041 1.408 . S
C3045 C3044 1.404 . S
C3045 H3057 0.930 . S
C3046 C3042 1.524 . S
C3046 H3058 0.956 . S
C3046 H3059 0.961 . S
C3046 H3060 0.961 . S
C3047 C3044 1.539 . S
C3047 H3061 0.958 . S
C3047 H3062 0.961 . S
C3047 H3063 0.960 . S
H3048 C3032 0.931 . S
H3049 C3037 0.929 . S
H3050 C3038 0.960 . S
H3051 C3038 0.962 . S
H3052 C3038 0.960 . S
H3053 C3039 0.961 . S
H3054 C3039 0.961 . S
H3055 C3039 0.961 . S
H3056 C3040 0.931 . S
H3057 C3045 0.930 . S
H3058 C3046 0.956 . S
H3059 C3046 0.961 . S
H3060 C3046 0.961 . S
H3061 C3047 0.958 . S
H3062 C3047 0.961 . S
H3063 C3047 0.960 . S
C3064 C3065 1.385 1_545 S
C3064 C3066 1.380 1_545 S
C3064 H3080 0.931 . S
C3065 C3064 1.385 1_565 S
C3065 C3069 1.405 . S
C3066 C3064 1.380 1_565 S
C3066 C3067 1.386 . S
C3066 C3070 1.527 1_565 S
C3067 C3066 1.386 . S
C3067 C3068 1.410 . S
C3067 C3075 1.503 . S
C3068 C3067 1.410 . S
C3068 C3069 1.392 . S
C3068 C3071 1.511 . S
C3069 C3065 1.405 . S
C3069 C3068 1.392 . S
C3069 H3081 0.929 . S
C3070 C3066 1.527 1_545 S
C3070 H3082 0.960 . S
C3070 H3083 0.962 . S
C3070 H3084 0.960 . S
C3071 C3068 1.511 . S
C3071 H3085 0.961 . S
C3071 H3086 0.961 . S
C3071 H3087 0.961 . S
C3072 C3073 1.370 . S
C3072 C3074 1.363 . S
C3072 H3088 0.931 . S
C3073 C3072 1.370 . S
C3073 C3077 1.408 . S
C3074 C3072 1.363 . S
C3074 C3075 1.370 . S
C3074 C3078 1.524 . S
C3075 C3067 1.503 . S
C3075 C3074 1.370 . S
C3075 C3076 1.403 . S
C3076 C3075 1.403 . S
C3076 C3077 1.404 . S
C3076 C3079 1.539 . S
C3077 C3073 1.408 . S
C3077 C3076 1.404 . S
C3077 H3089 0.930 . S
C3078 C3074 1.524 . S
C3078 H3090 0.956 . S
C3078 H3091 0.961 . S
C3078 H3092 0.961 . S
C3079 C3076 1.539 . S
C3079 H3093 0.958 . S
C3079 H3094 0.961 . S
C3079 H3095 0.960 . S
H3080 C3064 0.931 . S
H3081 C3069 0.929 . S
H3082 C3070 0.960 . S
H3083 C3070 0.962 . S
H3084 C3070 0.960 . S
H3085 C3071 0.961 . S
H3086 C3071 0.961 . S
H3087 C3071 0.961 . S
H3088 C3072 0.931 . S
H3089 C3077 0.930 . S
H3090 C3078 0.956 . S
H3091 C3078 0.961 . S
H3092 C3078 0.961 . S
H3093 C3079 0.958 . S
H3094 C3079 0.961 . S
H3095 C3079 0.960 . S
C3096 C3097 1.391 . S
C3096 C3098 1.394 . S
C3096 H3112 0.931 . S
C3097 C3096 1.391 . S
C3097 C3101 1.376 . S
C3098 C3096 1.394 . S
C3098 C3099 1.369 . S
C3098 C3102 1.531 . S
C3099 C3098 1.369 . S
C3099 C3100 1.410 . S
C3099 C3107 1.503 . S
C3100 C3099 1.410 . S
C3100 C3101 1.392 . S
C3100 C3103 1.511 . S
C3101 C3097 1.376 . S
C3101 C3100 1.392 . S
C3101 H3113 0.929 . S
C3102 C3098 1.531 . S
C3102 H3114 0.960 . S
C3102 H3115 0.962 . S
C3102 H3116 0.960 . S
C3103 C3100 1.511 . S
C3103 H3117 0.961 . S
C3103 H3118 0.961 . S
C3103 H3119 0.961 . S
C3104 C3105 1.370 . S
C3104 C3106 1.363 . S
C3104 H3120 0.931 . S
C3105 C3104 1.370 . S
C3105 C3109 1.408 . S
C3106 C3104 1.363 . S
C3106 C3107 1.370 . S
C3106 C3110 1.524 . S
C3107 C3099 1.503 . S
C3107 C3106 1.370 . S
C3107 C3108 1.403 . S
C3108 C3107 1.403 . S
C3108 C3109 1.404 . S
C3108 C3111 1.539 . S
C3109 C3105 1.408 . S
C3109 C3108 1.404 . S
C3109 H3121 0.930 1_565 S
C3110 C3106 1.524 . S
C3110 H3122 0.956 . S
C3110 H3123 0.961 . S
C3110 H3124 0.961 . S
C3111 C3108 1.539 . S
C3111 H3125 0.958 1_565 S
C3111 H3126 0.961 1_565 S
C3111 H3127 0.960 . S
H3112 C3096 0.931 . S
H3113 C3101 0.929 . S
H3114 C3102 0.960 . S
H3115 C3102 0.962 . S
H3116 C3102 0.960 . S
H3117 C3103 0.961 . S
H3118 C3103 0.961 . S
H3119 C3103 0.961 . S
H3120 C3104 0.931 . S
H3121 C3109 0.930 1_545 S
H3122 C3110 0.956 . S
H3123 C3110 0.961 . S
H3124 C3110 0.961 . S
H3125 C3111 0.958 1_545 S
H3126 C3111 0.961 1_545 S
H3127 C3111 0.960 . S
C3128 C3129 1.391 . S
C3128 C3130 1.394 . S
C3128 H3144 0.931 . S
C3129 C3128 1.391 . S
C3129 C3133 1.376 . S
C3130 C3128 1.394 . S
C3130 C3131 1.369 . S
C3130 C3134 1.531 . S
C3131 C3130 1.369 . S
C3131 C3132 1.410 . S
C3131 C3139 1.503 . S
C3132 C3131 1.410 . S
C3132 C3133 1.392 . S
C3132 C3135 1.511 . S
C3133 C3129 1.376 . S
C3133 C3132 1.392 . S
C3133 H3145 0.929 . S
C3134 C3130 1.531 . S
C3134 H3146 0.960 . S
C3134 H3147 0.962 . S
C3134 H3148 0.960 . S
C3135 C3132 1.511 . S
C3135 H3149 0.961 . S
C3135 H3150 0.961 . S
C3135 H3151 0.961 . S
C3136 C3137 1.370 . S
C3136 C3138 1.363 . S
C3136 H3152 0.931 . S
C3137 C3136 1.370 . S
C3137 C3141 1.408 . S
C3138 C3136 1.363 . S
C3138 C3139 1.370 . S
C3138 C3142 1.524 . S
C3139 C3131 1.503 . S
C3139 C3138 1.370 . S
C3139 C3140 1.403 . S
C3140 C3139 1.403 . S
C3140 C3141 1.404 . S
C3140 C3143 1.539 . S
C3141 C3137 1.408 . S
C3141 C3140 1.404 . S
C3141 H3153 0.930 . S
C3142 C3138 1.524 . S
C3142 H3154 0.956 . S
C3142 H3155 0.961 . S
C3142 H3156 0.961 . S
C3143 C3140 1.539 . S
C3143 H3157 0.958 . S
C3143 H3158 0.961 . S
C3143 H3159 0.960 . S
H3144 C3128 0.931 . S
H3145 C3133 0.929 . S
H3146 C3134 0.960 . S
H3147 C3134 0.962 . S
H3148 C3134 0.960 . S
H3149 C3135 0.961 . S
H3150 C3135 0.961 . S
H3151 C3135 0.961 . S
H3152 C3136 0.931 . S
H3153 C3141 0.930 . S
H3154 C3142 0.956 . S
H3155 C3142 0.961 . S
H3156 C3142 0.961 . S
H3157 C3143 0.958 . S
H3158 C3143 0.961 . S
H3159 C3143 0.960 . S
C3160 C3161 1.391 . S
C3160 C3162 1.394 . S
C3160 H3176 0.931 . S
C3161 C3160 1.391 . S
C3161 C3165 1.376 . S
C3162 C3160 1.394 . S
C3162 C3163 1.369 . S
C3162 C3166 1.531 . S
C3163 C3162 1.369 . S
C3163 C3164 1.410 . S
C3163 C3171 1.503 . S
C3164 C3163 1.410 . S
C3164 C3165 1.392 . S
C3164 C3167 1.511 . S
C3165 C3161 1.376 . S
C3165 C3164 1.392 . S
C3165 H3177 0.929 . S
C3166 C3162 1.531 . S
C3166 H3178 0.960 . S
C3166 H3179 0.962 . S
C3166 H3180 0.960 . S
C3167 C3164 1.511 . S
C3167 H3181 0.961 . S
C3167 H3182 0.961 . S
C3167 H3183 0.961 . S
C3168 C3169 1.370 . S
C3168 C3170 1.363 . S
C3168 H3184 0.931 . S
C3169 C3168 1.370 . S
C3169 C3173 1.408 . S
C3170 C3168 1.363 . S
C3170 C3171 1.370 . S
C3170 C3174 1.524 . S
C3171 C3163 1.503 . S
C3171 C3170 1.370 . S
C3171 C3172 1.403 . S
C3172 C3171 1.403 . S
C3172 C3173 1.404 . S
C3172 C3175 1.539 . S
C3173 C3169 1.408 . S
C3173 C3172 1.404 . S
C3173 H3185 0.930 . S
C3174 C3170 1.524 . S
C3174 H3186 0.956 . S
C3174 H3187 0.961 . S
C3174 H3188 0.961 . S
C3175 C3172 1.539 . S
C3175 H3189 0.958 . S
C3175 H3190 0.961 . S
C3175 H3191 0.960 . S
H3176 C3160 0.931 . S
H3177 C3165 0.929 . S
H3178 C3166 0.960 . S
H3179 C3166 0.962 . S
H3180 C3166 0.960 . S
H3181 C3167 0.961 . S
H3182 C3167 0.961 . S
H3183 C3167 0.961 . S
H3184 C3168 0.931 . S
H3185 C3173 0.930 . S
H3186 C3174 0.956 . S
H3187 C3174 0.961 . S
H3188 C3174 0.961 . S
H3189 C3175 0.958 . S
H3190 C3175 0.961 . S
H3191 C3175 0.960 . S
C3192 C3193 1.391 . S
C3192 C3194 1.394 . S
C3192 H3208 0.931 . S
C3193 C3192 1.391 . S
C3193 C3197 1.376 . S
C3194 C3192 1.394 . S
C3194 C3195 1.369 . S
C3194 C3198 1.531 . S
C3195 C3194 1.369 . S
C3195 C3196 1.410 . S
C3195 C3203 1.503 . S
C3196 C3195 1.410 . S
C3196 C3197 1.392 . S
C3196 C3199 1.511 . S
C3197 C3193 1.376 . S
C3197 C3196 1.392 . S
C3197 H3209 0.929 . S
C3198 C3194 1.531 . S
C3198 H3210 0.960 . S
C3198 H3211 0.962 . S
C3198 H3212 0.960 . S
C3199 C3196 1.511 . S
C3199 H3213 0.961 . S
C3199 H3214 0.961 . S
C3199 H3215 0.961 . S
C3200 C3201 1.370 . S
C3200 C3202 1.363 . S
C3200 H3216 0.931 . S
C3201 C3200 1.370 . S
C3201 C3205 1.408 . S
C3202 C3200 1.363 . S
C3202 C3203 1.370 . S
C3202 C3206 1.524 . S
C3203 C3195 1.503 . S
C3203 C3202 1.370 . S
C3203 C3204 1.403 . S
C3204 C3203 1.403 . S
C3204 C3205 1.404 . S
C3204 C3207 1.539 . S
C3205 C3201 1.408 . S
C3205 C3204 1.404 . S
C3205 H3217 0.930 . S
C3206 C3202 1.524 . S
C3206 H3218 0.956 . S
C3206 H3219 0.961 . S
C3206 H3220 0.961 . S
C3207 C3204 1.539 . S
C3207 H3221 0.958 . S
C3207 H3222 0.961 . S
C3207 H3223 0.960 . S
H3208 C3192 0.931 . S
H3209 C3197 0.929 . S
H3210 C3198 0.960 . S
H3211 C3198 0.962 . S
H3212 C3198 0.960 . S
H3213 C3199 0.961 . S
H3214 C3199 0.961 . S
H3215 C3199 0.961 . S
H3216 C3200 0.931 . S
H3217 C3205 0.930 . S
H3218 C3206 0.956 . S
H3219 C3206 0.961 . S
H3220 C3206 0.961 . S
H3221 C3207 0.958 . S
H3222 C3207 0.961 . S
H3223 C3207 0.960 . S
C3224 C3225 1.391 . S
C3224 C3226 1.394 . S
C3224 H3240 0.931 . S
C3225 C3224 1.391 . S
C3225 C3229 1.376 . S
C3226 C3224 1.394 . S
C3226 C3227 1.369 . S
C3226 C3230 1.531 . S
C3227 C3226 1.369 . S
C3227 C3228 1.410 . S
C3227 C3235 1.503 . S
C3228 C3227 1.410 . S
C3228 C3229 1.392 . S
C3228 C3231 1.511 . S
C3229 C3225 1.376 . S
C3229 C3228 1.392 . S
C3229 H3241 0.929 . S
C3230 C3226 1.531 . S
C3230 H3242 0.960 . S
C3230 H3243 0.962 . S
C3230 H3244 0.960 . S
C3231 C3228 1.511 . S
C3231 H3245 0.961 . S
C3231 H3246 0.961 . S
C3231 H3247 0.961 . S
C3232 C3233 1.370 . S
C3232 C3234 1.363 . S
C3232 H3248 0.931 . S
C3233 C3232 1.370 . S
C3233 C3237 1.408 . S
C3234 C3232 1.363 . S
C3234 C3235 1.370 . S
C3234 C3238 1.524 . S
C3235 C3227 1.503 . S
C3235 C3234 1.370 . S
C3235 C3236 1.403 . S
C3236 C3235 1.403 . S
C3236 C3237 1.404 . S
C3236 C3239 1.539 . S
C3237 C3233 1.408 . S
C3237 C3236 1.404 . S
C3237 H3249 0.930 . S
C3238 C3234 1.524 . S
C3238 H3250 0.956 . S
C3238 H3251 0.961 . S
C3238 H3252 0.961 . S
C3239 C3236 1.539 . S
C3239 H3253 0.958 . S
C3239 H3254 0.961 . S
C3239 H3255 0.960 . S
H3240 C3224 0.931 . S
H3241 C3229 0.929 . S
H3242 C3230 0.960 . S
H3243 C3230 0.962 . S
H3244 C3230 0.960 . S
H3245 C3231 0.961 . S
H3246 C3231 0.961 . S
H3247 C3231 0.961 . S
H3248 C3232 0.931 . S
H3249 C3237 0.930 . S
H3250 C3238 0.956 . S
H3251 C3238 0.961 . S
H3252 C3238 0.961 . S
H3253 C3239 0.958 . S
H3254 C3239 0.961 . S
H3255 C3239 0.960 . S
C3256 C3257 1.391 . S
C3256 C3258 1.394 . S
C3256 H3272 0.931 . S
C3257 C3256 1.391 . S
C3257 C3261 1.376 . S
C3258 C3256 1.394 . S
C3258 C3259 1.369 . S
C3258 C3262 1.531 . S
C3259 C3258 1.369 . S
C3259 C3260 1.410 . S
C3259 C3267 1.503 . S
C3260 C3259 1.410 . S
C3260 C3261 1.392 . S
C3260 C3263 1.511 1_556 S
C3261 C3257 1.376 . S
C3261 C3260 1.392 . S
C3261 H3273 0.929 . S
C3262 C3258 1.531 . S
C3262 H3274 0.960 . S
C3262 H3275 0.962 . S
C3262 H3276 0.960 . S
C3263 C3260 1.511 1_554 S
C3263 H3277 0.961 1_455 S
C3263 H3278 0.961 . S
C3263 H3279 0.961 1_454 S
C3264 C3265 1.370 . S
C3264 C3266 1.363 . S
C3264 H3280 0.931 . S
C3265 C3264 1.370 . S
C3265 C3269 1.408 1_554 S
C3266 C3264 1.363 . S
C3266 C3267 1.370 1_554 S
C3266 C3270 1.524 . S
C3267 C3259 1.503 . S
C3267 C3266 1.370 1_556 S
C3267 C3268 1.403 . S
C3268 C3267 1.403 . S
C3268 C3269 1.404 . S
C3268 C3271 1.539 . S
C3269 C3265 1.408 1_556 S
C3269 C3268 1.404 . S
C3269 H3281 0.930 . S
C3270 C3266 1.524 . S
C3270 H3282 0.956 . S
C3270 H3283 0.961 . S
C3270 H3284 0.961 . S
C3271 C3268 1.539 . S
C3271 H3285 0.958 . S
C3271 H3286 0.961 . S
C3271 H3287 0.960 . S
H3272 C3256 0.931 . S
H3273 C3261 0.929 . S
H3274 C3262 0.960 . S
H3275 C3262 0.962 . S
H3276 C3262 0.960 . S
H3277 C3263 0.961 1_655 S
H3278 C3263 0.961 . S
H3279 C3263 0.961 1_656 S
H3280 C3264 0.931 . S
H3281 C3269 0.930 . S
H3282 C3270 0.956 . S
H3283 C3270 0.961 . S
H3284 C3270 0.961 . S
H3285 C3271 0.958 . S
H3286 C3271 0.961 . S
H3287 C3271 0.960 . S
C3288 C3289 1.391 . S
C3288 C3290 1.394 1_455 S
C3288 H3304 0.931 . S
C3289 C3288 1.391 . S
C3289 C3293 1.376 . S
C3290 C3288 1.394 1_655 S
C3290 C3291 1.369 . S
C3290 C3294 1.531 . S
C3291 C3290 1.369 . S
C3291 C3292 1.410 1_655 S
C3291 C3299 1.503 . S
C3292 C3291 1.410 1_455 S
C3292 C3293 1.392 . S
C3292 C3295 1.511 . S
C3293 C3289 1.376 . S
C3293 C3292 1.392 . S
C3293 H3305 0.929 . S
C3294 C3290 1.531 . S
C3294 H3306 0.960 . S
C3294 H3307 0.962 . S
C3294 H3308 0.960 . S
C3295 C3292 1.511 . S
C3295 H3309 0.961 . S
C3295 H3310 0.961 . S
C3295 H3311 0.961 . S
C3296 C3297 1.370 . S
C3296 C3298 1.363 . S
C3296 H3312 0.931 . S
C3297 C3296 1.370 . S
C3297 C3301 1.408 . S
C3298 C3296 1.363 . S
C3298 C3299 1.370 . S
C3298 C3302 1.524 . S
C3299 C3291 1.503 . S
C3299 C3298 1.370 . S
C3299 C3300 1.403 . S
C3300 C3299 1.403 . S
C3300 C3301 1.404 . S
C3300 C3303 1.539 . S
C3301 C3297 1.408 . S
C3301 C3300 1.404 . S
C3301 H3313 0.930 . S
C3302 C3298 1.524 . S
C3302 H3314 0.956 . S
C3302 H3315 0.961 . S
C3302 H3316 0.961 . S
C3303 C3300 1.539 . S
C3303 H3317 0.958 . S
C3303 H3318 0.961 . S
C3303 H3319 0.960 . S
H3304 C3288 0.931 . S
H3305 C3293 0.929 . S
H3306 C3294 0.960 . S
H3307 C3294 0.962 . S
H3308 C3294 0.960 . S
H3309 C3295 0.961 . S
H3310 C3295 0.961 . S
H3311 C3295 0.961 . S
H3312 C3296 0.931 . S
H3313 C3301 0.930 . S
H3314 C3302 0.956 . S
H3315 C3302 0.961 . S
H3316 C3302 0.961 . S
H3317 C3303 0.958 . S
H3318 C3303 0.961 . S
H3319 C3303 0.960 . S
C3320 C3321 1.391 . S
C3320 C3322 1.394 . S
C3320 H3336 0.931 . S
C3321 C3320 1.391 . S
C3321 C3325 1.376 . S
C3322 C3320 1.394 . S
C3322 C3323 1.369 . S
C3322 C3326 1.531 . S
C3323 C3322 1.369 . S
C3323 C3324 1.410 . S
C3323 C3331 1.503 . S
C3324 C3323 1.410 . S
C3324 C3325 1.392 . S
C3324 C3327 1.511 . S
C3325 C3321 1.376 . S
C3325 C3324 1.392 . S
C3325 H3337 0.929 . S
C3326 C3322 1.531 . S
C3326 H3338 0.960 . S
C3326 H3339 0.962 . S
C3326 H3340 0.960 . S
C3327 C3324 1.511 . S
C3327 H3341 0.961 . S
C3327 H3342 0.961 . S
C3327 H3343 0.961 . S
C3328 C3329 1.370 . S
C3328 C3330 1.363 . S
C3328 H3344 0.931 . S
C3329 C3328 1.370 . S
C3329 C3333 1.408 . S
C3330 C3328 1.363 . S
C3330 C3331 1.370 . S
C3330 C3334 1.524 . S
C3331 C3323 1.503 . S
C3331 C3330 1.370 . S
C3331 C3332 1.403 . S
C3332 C3331 1.403 . S
C3332 C3333 1.404 . S
C3332 C3335 1.539 . S
C3333 C3329 1.408 . S
C3333 C3332 1.404 . S
C3333 H3345 0.930 . S
C3334 C3330 1.524 . S
C3334 H3346 0.956 . S
C3334 H3347 0.961 . S
C3334 H3348 0.961 . S
C3335 C3332 1.539 . S
C3335 H3349 0.958 . S
C3335 H3350 0.961 . S
C3335 H3351 0.960 . S
H3336 C3320 0.931 . S
H3337 C3325 0.929 . S
H3338 C3326 0.960 . S
H3339 C3326 0.962 . S
H3340 C3326 0.960 . S
H3341 C3327 0.961 . S
H3342 C3327 0.961 . S
H3343 C3327 0.961 . S
H3344 C3328 0.931 . S
H3345 C3333 0.930 . S
H3346 C3334 0.956 . S
H3347 C3334 0.961 . S
H3348 C3334 0.961 . S
H3349 C3335 0.958 . S
H3350 C3335 0.961 . S
H3351 C3335 0.960 . S
C3352 C3353 1.391 . S
C3352 C3354 1.394 . S
C3352 H3368 0.931 . S
C3353 C3352 1.391 . S
C3353 C3357 1.376 . S
C3354 C3352 1.394 . S
C3354 C3355 1.369 . S
C3354 C3358 1.565 . S
C3355 C3354 1.369 . S
C3355 C3356 1.410 . S
C3355 C3363 1.503 1_455 S
C3356 C3355 1.410 . S
C3356 C3357 1.392 . S
C3356 C3359 1.511 . S
C3357 C3353 1.376 . S
C3357 C3356 1.392 . S
C3357 H3369 0.929 . S
C3358 C3354 1.565 . S
C3358 H3370 0.920 1_455 S
C3358 H3371 0.953 1_455 S
C3358 H3372 0.978 . S
C3359 C3356 1.511 . S
C3359 H3373 0.961 . S
C3359 H3374 0.961 . S
C3359 H3375 0.961 . S
C3360 C3361 1.370 . S
C3360 C3362 1.363 . S
C3360 H3376 0.931 . S
C3361 C3360 1.370 . S
C3361 C3365 1.408 . S
C3362 C3360 1.363 . S
C3362 C3363 1.370 . S
C3362 C3366 1.524 . S
C3363 C3355 1.503 1_655 S
C3363 C3362 1.370 . S
C3363 C3364 1.403 . S
C3364 C3363 1.403 . S
C3364 C3365 1.404 . S
C3364 C3367 1.539 . S
C3365 C3361 1.408 . S
C3365 C3364 1.404 . S
C3365 H3377 0.930 . S
C3366 C3362 1.524 . S
C3366 H3378 0.956 . S
C3366 H3379 1.007 . S
C3366 H3380 0.961 . S
C3367 C3364 1.539 . S
C3367 H3381 0.958 . S
C3367 H3382 0.961 . S
C3367 H3383 0.960 1_655 S
H3368 C3352 0.931 . S
H3369 C3357 0.929 . S
H3370 C3358 0.920 1_655 S
H3371 C3358 0.953 1_655 S
H3372 C3358 0.978 . S
H3373 C3359 0.961 . S
H3374 C3359 0.961 . S
H3375 C3359 0.961 . S
H3376 C3360 0.931 . S
H3377 C3365 0.930 . S
H3378 C3366 0.956 . S
H3379 C3366 1.007 . S
H3380 C3366 0.961 . S
H3381 C3367 0.958 . S
H3382 C3367 0.961 . S
H3383 C3367 0.960 1_455 S
C3384 C3385 1.391 1_455 S
C3384 C3386 1.394 . S
C3384 H3400 0.931 . S
C3385 C3384 1.391 1_655 S
C3385 C3389 1.376 . S
C3386 C3384 1.394 . S
C3386 C3387 1.369 . S
C3386 C3390 1.531 . S
C3387 C3386 1.369 . S
C3387 C3388 1.401 1_455 S
C3387 C3395 1.503 . S
C3388 C3387 1.401 1_655 S
C3388 C3389 1.402 . S
C3388 C3391 1.511 . S
C3389 C3385 1.376 . S
C3389 C3388 1.402 . S
C3389 H3401 0.929 . S
C3390 C3386 1.531 . S
C3390 H3402 0.960 . S
C3390 H3403 0.962 . S
C3390 H3404 0.960 . S
C3391 C3388 1.511 . S
C3391 H3405 0.961 . S
C3391 H3406 0.961 1_655 S
C3391 H3407 0.961 . S
C3392 C3393 1.370 . S
C3392 C3394 1.363 . S
C3392 H3408 0.931 . S
C3393 C3392 1.370 . S
C3393 C3397 1.408 . S
C3394 C3392 1.363 . S
C3394 C3395 1.370 . S
C3394 C3398 1.524 . S
C3395 C3387 1.503 . S
C3395 C3394 1.370 . S
C3395 C3396 1.403 . S
C3396 C3395 1.403 . S
C3396 C3397 1.404 . S
C3396 C3399 1.539 1_455 S
C3397 C3393 1.408 . S
C3397 C3396 1.404 . S
C3397 H3409 0.930 . S
C3398 C3394 1.524 . S
C3398 H3410 0.956 . S
C3398 H3411 0.961 . S
C3398 H3412 0.961 . S
C3399 C3396 1.539 1_655 S
C3399 H3413 0.958 . S
C3399 H3414 0.961 . S
C3399 H3415 0.960 . S
H3400 C3384 0.931 . S
H3401 C3389 0.929 . S
H3402 C3390 0.960 . S
H3403 C3390 0.962 . S
H3404 C3390 0.960 . S
H3405 C3391 0.961 . S
H3406 C3391 0.961 1_455 S
H3407 C3391 0.961 . S
H3408 C3392 0.931 . S
H3409 C3397 0.930 . S
H3410 C3398 0.956 . S
H3411 C3398 0.961 . S
H3412 C3398 0.961 . S
H3413 C3399 0.958 . S
H3414 C3399 0.961 . S
H3415 C3399 0.960 . S
C3416 C3417 1.391 . S
C3416 C3418 1.394 . S
C3416 H3432 0.931 . S
C3417 C3416 1.391 . S
C3417 C3421 1.376 . S
C3418 C3416 1.394 . S
C3418 C3419 1.369 . S
C3418 C3422 1.531 . S
C3419 C3418 1.369 . S
C3419 C3420 1.410 . S
C3419 C3427 1.503 . S
C3420 C3419 1.410 . S
C3420 C3421 1.392 . S
C3420 C3423 1.511 . S
C3421 C3417 1.376 . S
C3421 C3420 1.392 . S
C3421 H3433 0.929 . S
C3422 C3418 1.531 . S
C3422 H3434 0.960 . S
C3422 H3435 0.962 . S
C3422 H3436 0.960 . S
C3423 C3420 1.511 . S
C3423 H3437 0.961 . S
C3423 H3438 0.961 . S
C3423 H3439 0.961 . S
C3424 C3425 1.370 . S
C3424 C3426 1.363 . S
C3424 H3440 0.931 . S
C3425 C3424 1.370 . S
C3425 C3429 1.408 . S
C3426 C3424 1.363 . S
C3426 C3427 1.370 . S
C3426 C3430 1.524 . S
C3427 C3419 1.503 . S
C3427 C3426 1.370 . S
C3427 C3428 1.403 . S
C3428 C3427 1.403 . S
C3428 C3429 1.404 . S
C3428 C3431 1.539 . S
C3429 C3425 1.408 . S
C3429 C3428 1.404 . S
C3429 H3441 0.930 . S
C3430 C3426 1.524 . S
C3430 H3442 0.956 . S
C3430 H3443 0.961 . S
C3430 H3444 0.961 . S
C3431 C3428 1.539 . S
C3431 H3445 0.958 . S
C3431 H3446 0.961 . S
C3431 H3447 0.960 . S
H3432 C3416 0.931 . S
H3433 C3421 0.929 . S
H3434 C3422 0.960 . S
H3435 C3422 0.962 . S
H3436 C3422 0.960 . S
H3437 C3423 0.961 . S
H3438 C3423 0.961 . S
H3439 C3423 0.961 . S
H3440 C3424 0.931 . S
H3441 C3429 0.930 . S
H3442 C3430 0.956 . S
H3443 C3430 0.961 . S
H3444 C3430 0.961 . S
H3445 C3431 0.958 . S
H3446 C3431 0.961 . S
H3447 C3431 0.960 . S
C3448 C3449 1.391 . S
C3448 C3450 1.394 . S
C3448 H3464 0.931 . S
C3449 C3448 1.391 . S
C3449 C3453 1.376 . S
C3450 C3448 1.394 . S
C3450 C3451 1.369 . S
C3450 C3454 1.531 . S
C3451 C3450 1.369 . S
C3451 C3452 1.410 . S
C3451 C3459 1.503 . S
C3452 C3451 1.410 . S
C3452 C3453 1.392 . S
C3452 C3455 1.511 . S
C3453 C3449 1.376 . S
C3453 C3452 1.392 . S
C3453 H3465 0.929 . S
C3454 C3450 1.531 . S
C3454 H3466 0.960 . S
C3454 H3467 0.962 . S
C3454 H3468 0.960 . S
C3455 C3452 1.511 . S
C3455 H3469 0.961 . S
C3455 H3470 0.961 . S
C3455 H3471 0.961 . S
C3456 C3457 1.370 . S
C3456 C3458 1.363 . S
C3456 H3472 0.931 . S
C3457 C3456 1.370 . S
C3457 C3461 1.408 . S
C3458 C3456 1.363 . S
C3458 C3459 1.370 . S
C3458 C3462 1.524 . S
C3459 C3451 1.503 . S
C3459 C3458 1.370 . S
C3459 C3460 1.403 . S
C3460 C3459 1.403 . S
C3460 C3461 1.404 . S
C3460 C3463 1.539 . S
C3461 C3457 1.408 . S
C3461 C3460 1.404 . S
C3461 H3473 0.930 . S
C3462 C3458 1.524 . S
C3462 H3474 0.956 . S
C3462 H3475 0.961 . S
C3462 H3476 0.961 . S
C3463 C3460 1.539 . S
C3463 H3477 0.958 . S
C3463 H3478 0.961 . S
C3463 H3479 0.960 . S
H3464 C3448 0.931 . S
H3465 C3453 0.929 . S
H3466 C3454 0.960 . S
H3467 C3454 0.962 . S
H3468 C3454 0.960 . S
H3469 C3455 0.961 . S
H3470 C3455 0.961 . S
H3471 C3455 0.961 . S
H3472 C3456 0.931 . S
H3473 C3461 0.930 . S
H3474 C3462 0.956 . S
H3475 C3462 0.961 . S
H3476 C3462 0.961 . S
H3477 C3463 0.958 . S
H3478 C3463 0.961 . S
H3479 C3463 0.960 . S
C3480 C3481 1.391 . S
C3480 C3482 1.394 . S
C3480 H3496 0.931 . S
C3481 C3480 1.391 . S
C3481 C3485 1.376 . S
C3482 C3480 1.394 . S
C3482 C3483 1.369 . S
C3482 C3486 1.531 . S
C3483 C3482 1.369 . S
C3483 C3484 1.410 . S
C3483 C3491 1.503 . S
C3484 C3483 1.410 . S
C3484 C3485 1.392 . S
C3484 C3487 1.511 . S
C3485 C3481 1.376 . S
C3485 C3484 1.392 . S
C3485 H3497 0.929 . S
C3486 C3482 1.531 . S
C3486 H3498 0.960 . S
C3486 H3499 0.962 . S
C3486 H3500 0.960 . S
C3487 C3484 1.511 . S
C3487 H3501 0.961 . S
C3487 H3502 0.961 . S
C3487 H3503 0.961 . S
C3488 C3489 1.370 . S
C3488 C3490 1.363 . S
C3488 H3504 0.931 . S
C3489 C3488 1.370 . S
C3489 C3493 1.408 . S
C3490 C3488 1.363 . S
C3490 C3491 1.370 . S
C3490 C3494 1.524 . S
C3491 C3483 1.503 . S
C3491 C3490 1.370 . S
C3491 C3492 1.403 . S
C3492 C3491 1.403 . S
C3492 C3493 1.404 . S
C3492 C3495 1.539 . S
C3493 C3489 1.408 . S
C3493 C3492 1.404 . S
C3493 H3505 0.930 . S
C3494 C3490 1.524 . S
C3494 H3506 0.956 . S
C3494 H3507 0.961 . S
C3494 H3508 0.961 . S
C3495 C3492 1.539 . S
C3495 H3509 0.958 . S
C3495 H3510 0.961 . S
C3495 H3511 0.960 . S
H3496 C3480 0.931 . S
H3497 C3485 0.929 . S
H3498 C3486 0.960 . S
H3499 C3486 0.962 . S
H3500 C3486 0.960 . S
H3501 C3487 0.961 . S
H3502 C3487 0.961 . S
H3503 C3487 0.961 . S
H3504 C3488 0.931 . S
H3505 C3493 0.930 . S
H3506 C3494 0.956 . S
H3507 C3494 0.961 . S
H3508 C3494 0.961 . S
H3509 C3495 0.958 . S
H3510 C3495 0.961 . S
H3511 C3495 0.960 . S
C3512 C3513 1.391 . S
C3512 C3514 1.394 . S
C3512 H3528 0.931 . S
C3513 C3512 1.391 . S
C3513 C3517 1.376 . S
C3514 C3512 1.394 . S
C3514 C3515 1.369 . S
C3514 C3518 1.531 . S
C3515 C3514 1.369 . S
C3515 C3516 1.410 . S
C3515 C3523 1.503 . S
C3516 C3515 1.410 . S
C3516 C3517 1.392 . S
C3516 C3519 1.511 . S
C3517 C3513 1.376 . S
C3517 C3516 1.392 . S
C3517 H3529 0.929 . S
C3518 C3514 1.531 . S
C3518 H3530 0.960 . S
C3518 H3531 0.962 . S
C3518 H3532 0.960 . S
C3519 C3516 1.511 . S
C3519 H3533 0.961 . S
C3519 H3534 0.961 . S
C3519 H3535 0.961 . S
C3520 C3521 1.370 . S
C3520 C3522 1.363 . S
C3520 H3536 0.931 . S
C3521 C3520 1.370 . S
C3521 C3525 1.408 . S
C3522 C3520 1.363 . S
C3522 C3523 1.370 . S
C3522 C3526 1.524 . S
C3523 C3515 1.503 . S
C3523 C3522 1.370 . S
C3523 C3524 1.403 . S
C3524 C3523 1.403 . S
C3524 C3525 1.404 . S
C3524 C3527 1.539 . S
C3525 C3521 1.408 . S
C3525 C3524 1.404 . S
C3525 H3537 0.930 . S
C3526 C3522 1.524 . S
C3526 H3538 0.956 . S
C3526 H3539 0.961 . S
C3526 H3540 0.961 . S
C3527 C3524 1.539 . S
C3527 H3541 0.958 . S
C3527 H3542 0.961 . S
C3527 H3543 0.960 . S
H3528 C3512 0.931 . S
H3529 C3517 0.929 . S
H3530 C3518 0.960 . S
H3531 C3518 0.962 . S
H3532 C3518 0.960 . S
H3533 C3519 0.961 . S
H3534 C3519 0.961 . S
H3535 C3519 0.961 . S
H3536 C3520 0.931 . S
H3537 C3525 0.930 . S
H3538 C3526 0.956 . S
H3539 C3526 0.961 . S
H3540 C3526 0.961 . S
H3541 C3527 0.958 . S
H3542 C3527 0.961 . S
H3543 C3527 0.960 . S
C3544 C3545 1.391 . S
C3544 C3546 1.394 . S
C3544 H3560 0.931 . S
C3545 C3544 1.391 . S
C3545 C3549 1.376 . S
C3546 C3544 1.394 . S
C3546 C3547 1.369 . S
C3546 C3550 1.531 . S
C3547 C3546 1.369 . S
C3547 C3548 1.410 . S
C3547 C3555 1.503 . S
C3548 C3547 1.410 . S
C3548 C3549 1.392 . S
C3548 C3551 1.511 . S
C3549 C3545 1.376 . S
C3549 C3548 1.392 . S
C3549 H3561 0.929 . S
C3550 C3546 1.531 . S
C3550 H3562 0.960 . S
C3550 H3563 0.962 . S
C3550 H3564 0.960 . S
C3551 C3548 1.511 . S
C3551 H3565 0.961 . S
C3551 H3566 0.961 . S
C3551 H3567 0.961 . S
C3552 C3553 1.370 . S
C3552 C3554 1.363 . S
C3552 H3568 0.931 . S
C3553 C3552 1.370 . S
C3553 C3557 1.408 . S
C3554 C3552 1.363 . S
C3554 C3555 1.370 . S
C3554 C3558 1.524 . S
C3555 C3547 1.503 . S
C3555 C3554 1.370 . S
C3555 C3556 1.403 . S
C3556 C3555 1.403 . S
C3556 C3557 1.404 . S
C3556 C3559 1.539 . S
C3557 C3553 1.408 . S
C3557 C3556 1.404 . S
C3557 H3569 0.930 . S
C3558 C3554 1.524 . S
C3558 H3570 0.956 . S
C3558 H3571 0.961 . S
C3558 H3572 0.961 . S
C3559 C3556 1.539 . S
C3559 H3573 0.958 . S
C3559 H3574 0.961 . S
C3559 H3575 0.960 . S
H3560 C3544 0.931 . S
H3561 C3549 0.929 . S
H3562 C3550 0.960 . S
H3563 C3550 0.962 . S
H3564 C3550 0.960 . S
H3565 C3551 0.961 . S
H3566 C3551 0.961 . S
H3567 C3551 0.961 . S
H3568 C3552 0.931 . S
H3569 C3557 0.930 . S
H3570 C3558 0.956 . S
H3571 C3558 0.961 . S
H3572 C3558 0.961 . S
H3573 C3559 0.958 . S
H3574 C3559 0.961 . S
H3575 C3559 0.960 . S
C3576 C3577 1.391 . S
C3576 C3578 1.394 . S
C3576 H3592 0.931 . S
C3577 C3576 1.391 . S
C3577 C3581 1.376 . S
C3578 C3576 1.394 . S
C3578 C3579 1.369 . S
C3578 C3582 1.531 . S
C3579 C3578 1.369 . S
C3579 C3580 1.410 . S
C3579 C3587 1.503 . S
C3580 C3579 1.410 . S
C3580 C3581 1.392 . S
C3580 C3583 1.511 . S
C3581 C3577 1.376 . S
C3581 C3580 1.392 . S
C3581 H3593 0.929 . S
C3582 C3578 1.531 . S
C3582 H3594 0.960 . S
C3582 H3595 0.962 . S
C3582 H3596 0.960 . S
C3583 C3580 1.511 . S
C3583 H3597 0.961 . S
C3583 H3598 0.961 . S
C3583 H3599 0.961 . S
C3584 C3585 1.370 . S
C3584 C3586 1.363 . S
C3584 H3600 0.931 . S
C3585 C3584 1.370 . S
C3585 C3589 1.408 . S
C3586 C3584 1.363 . S
C3586 C3587 1.370 . S
C3586 C3590 1.524 . S
C3587 C3579 1.503 . S
C3587 C3586 1.370 . S
C3587 C3588 1.403 . S
C3588 C3587 1.403 . S
C3588 C3589 1.404 . S
C3588 C3591 1.539 . S
C3589 C3585 1.408 . S
C3589 C3588 1.404 . S
C3589 H3601 0.930 . S
C3590 C3586 1.524 . S
C3590 H3602 0.956 . S
C3590 H3603 0.961 . S
C3590 H3604 0.961 . S
C3591 C3588 1.539 . S
C3591 H3605 0.958 . S
C3591 H3606 0.961 . S
C3591 H3607 0.960 . S
H3592 C3576 0.931 . S
H3593 C3581 0.929 . S
H3594 C3582 0.960 . S
H3595 C3582 0.962 . S
H3596 C3582 0.960 . S
H3597 C3583 0.961 . S
H3598 C3583 0.961 . S
H3599 C3583 0.961 . S
H3600 C3584 0.931 . S
H3601 C3589 0.930 . S
H3602 C3590 0.956 . S
H3603 C3590 0.961 . S
H3604 C3590 0.961 . S
H3605 C3591 0.958 . S
H3606 C3591 0.961 . S
H3607 C3591 0.960 . S
C3608 C3609 1.391 . S
C3608 C3610 1.394 . S
C3608 H3624 0.931 . S
C3609 C3608 1.391 . S
C3609 C3613 1.376 . S
C3610 C3608 1.394 . S
C3610 C3611 1.369 . S
C3610 C3614 1.531 . S
C3611 C3610 1.369 . S
C3611 C3612 1.410 . S
C3611 C3619 1.503 . S
C3612 C3611 1.410 . S
C3612 C3613 1.392 . S
C3612 C3615 1.511 . S
C3613 C3609 1.376 . S
C3613 C3612 1.392 . S
C3613 H3625 0.929 . S
C3614 C3610 1.531 . S
C3614 H3626 0.960 . S
C3614 H3627 0.962 . S
C3614 H3628 0.960 . S
C3615 C3612 1.511 . S
C3615 H3629 0.961 . S
C3615 H3630 0.961 . S
C3615 H3631 0.961 . S
C3616 C3617 1.370 . S
C3616 C3618 1.363 . S
C3616 H3632 0.931 . S
C3617 C3616 1.370 . S
C3617 C3621 1.408 . S
C3618 C3616 1.363 . S
C3618 C3619 1.370 . S
C3618 C3622 1.524 . S
C3619 C3611 1.503 . S
C3619 C3618 1.370 . S
C3619 C3620 1.403 . S
C3620 C3619 1.403 . S
C3620 C3621 1.404 . S
C3620 C3623 1.539 . S
C3621 C3617 1.408 . S
C3621 C3620 1.404 . S
C3621 H3633 0.930 . S
C3622 C3618 1.524 . S
C3622 H3634 0.956 . S
C3622 H3635 0.961 . S
C3622 H3636 0.961 . S
C3623 C3620 1.539 . S
C3623 H3637 0.958 . S
C3623 H3638 0.961 . S
C3623 H3639 0.960 . S
H3624 C3608 0.931 . S
H3625 C3613 0.929 . S
H3626 C3614 0.960 . S
H3627 C3614 0.962 . S
H3628 C3614 0.960 . S
H3629 C3615 0.961 . S
H3630 C3615 0.961 . S
H3631 C3615 0.961 . S
H3632 C3616 0.931 . S
H3633 C3621 0.930 . S
H3634 C3622 0.956 . S
H3635 C3622 0.961 . S
H3636 C3622 0.961 . S
H3637 C3623 0.958 . S
H3638 C3623 0.961 . S
H3639 C3623 0.960 . S
C3640 C3641 1.391 . S
C3640 C3642 1.394 . S
C3640 H3656 0.931 . S
C3641 C3640 1.391 . S
C3641 C3645 1.376 . S
C3642 C3640 1.394 . S
C3642 C3643 1.369 . S
C3642 C3646 1.531 . S
C3643 C3642 1.369 . S
C3643 C3644 1.410 . S
C3643 C3651 1.503 . S
C3644 C3643 1.410 . S
C3644 C3645 1.392 . S
C3644 C3647 1.511 . S
C3645 C3641 1.376 . S
C3645 C3644 1.392 . S
C3645 H3657 0.929 . S
C3646 C3642 1.531 . S
C3646 H3658 0.960 . S
C3646 H3659 0.962 . S
C3646 H3660 0.960 . S
C3647 C3644 1.511 . S
C3647 H3661 0.961 . S
C3647 H3662 0.961 . S
C3647 H3663 0.961 . S
C3648 C3649 1.370 . S
C3648 C3650 1.363 . S
C3648 H3664 0.931 . S
C3649 C3648 1.370 . S
C3649 C3653 1.408 . S
C3650 C3648 1.363 . S
C3650 C3651 1.370 . S
C3650 C3654 1.524 . S
C3651 C3643 1.503 . S
C3651 C3650 1.370 . S
C3651 C3652 1.403 . S
C3652 C3651 1.403 . S
C3652 C3653 1.404 . S
C3652 C3655 1.539 . S
C3653 C3649 1.408 . S
C3653 C3652 1.404 . S
C3653 H3665 0.930 . S
C3654 C3650 1.524 . S
C3654 H3666 0.956 . S
C3654 H3667 0.961 . S
C3654 H3668 0.961 . S
C3655 C3652 1.539 . S
C3655 H3669 0.958 . S
C3655 H3670 0.961 . S
C3655 H3671 0.960 . S
H3656 C3640 0.931 . S
H3657 C3645 0.929 . S
H3658 C3646 0.960 . S
H3659 C3646 0.962 . S
H3660 C3646 0.960 . S
H3661 C3647 0.961 . S
H3662 C3647 0.961 . S
H3663 C3647 0.961 . S
H3664 C3648 0.931 . S
H3665 C3653 0.930 . S
H3666 C3654 0.956 . S
H3667 C3654 0.961 . S
H3668 C3654 0.961 . S
H3669 C3655 0.958 . S
H3670 C3655 0.961 . S
H3671 C3655 0.960 . S
C3672 C3673 1.391 . S
C3672 C3674 1.394 . S
C3672 H3688 0.931 . S
C3673 C3672 1.391 . S
C3673 C3677 1.376 . S
C3674 C3672 1.394 . S
C3674 C3675 1.369 . S
C3674 C3678 1.531 . S
C3675 C3674 1.369 . S
C3675 C3676 1.410 . S
C3675 C3683 1.503 . S
C3676 C3675 1.410 . S
C3676 C3677 1.392 . S
C3676 C3679 1.511 . S
C3677 C3673 1.376 . S
C3677 C3676 1.392 . S
C3677 H3689 0.929 . S
C3678 C3674 1.531 . S
C3678 H3690 0.960 . S
C3678 H3691 0.962 . S
C3678 H3692 0.960 . S
C3679 C3676 1.511 . S
C3679 H3693 0.961 . S
C3679 H3694 0.961 . S
C3679 H3695 0.961 . S
C3680 C3681 1.370 . S
C3680 C3682 1.363 . S
C3680 H3696 0.931 . S
C3681 C3680 1.370 . S
C3681 C3685 1.408 . S
C3682 C3680 1.363 . S
C3682 C3683 1.370 . S
C3682 C3686 1.524 . S
C3683 C3675 1.503 . S
C3683 C3682 1.370 . S
C3683 C3684 1.403 . S
C3684 C3683 1.403 . S
C3684 C3685 1.404 . S
C3684 C3687 1.539 . S
C3685 C3681 1.408 . S
C3685 C3684 1.404 . S
C3685 H3697 0.930 . S
C3686 C3682 1.524 . S
C3686 H3698 0.956 . S
C3686 H3699 0.961 . S
C3686 H3700 0.961 . S
C3687 C3684 1.539 . S
C3687 H3701 0.958 . S
C3687 H3702 0.961 . S
C3687 H3703 0.960 . S
H3688 C3672 0.931 . S
H3689 C3677 0.929 . S
H3690 C3678 0.960 . S
H3691 C3678 0.962 . S
H3692 C3678 0.960 . S
H3693 C3679 0.961 . S
H3694 C3679 0.961 . S
H3695 C3679 0.961 . S
H3696 C3680 0.931 . S
H3697 C3685 0.930 . S
H3698 C3686 0.956 . S
H3699 C3686 0.961 . S
H3700 C3686 0.961 . S
H3701 C3687 0.958 . S
H3702 C3687 0.961 . S
H3703 C3687 0.960 . S
C3704 C3705 1.391 . S
C3704 C3706 1.394 . S
C3704 H3720 0.931 . S
C3705 C3704 1.391 . S
C3705 C3709 1.376 . S
C3706 C3704 1.394 . S
C3706 C3707 1.369 . S
C3706 C3710 1.531 . S
C3707 C3706 1.369 . S
C3707 C3708 1.410 . S
C3707 C3715 1.503 . S
C3708 C3707 1.410 . S
C3708 C3709 1.392 . S
C3708 C3711 1.511 . S
C3709 C3705 1.376 . S
C3709 C3708 1.392 . S
C3709 H3721 0.929 . S
C3710 C3706 1.531 . S
C3710 H3722 0.960 . S
C3710 H3723 0.962 . S
C3710 H3724 0.960 . S
C3711 C3708 1.511 . S
C3711 H3725 0.961 . S
C3711 H3726 0.961 . S
C3711 H3727 0.961 . S
C3712 C3713 1.370 . S
C3712 C3714 1.363 . S
C3712 H3728 0.931 . S
C3713 C3712 1.370 . S
C3713 C3717 1.408 . S
C3714 C3712 1.363 . S
C3714 C3715 1.370 . S
C3714 C3718 1.524 . S
C3715 C3707 1.503 . S
C3715 C3714 1.370 . S
C3715 C3716 1.403 . S
C3716 C3715 1.403 . S
C3716 C3717 1.404 . S
C3716 C3719 1.539 . S
C3717 C3713 1.408 . S
C3717 C3716 1.404 . S
C3717 H3729 0.930 . S
C3718 C3714 1.524 . S
C3718 H3730 0.956 . S
C3718 H3731 0.961 . S
C3718 H3732 0.961 . S
C3719 C3716 1.539 . S
C3719 H3733 0.958 . S
C3719 H3734 0.961 . S
C3719 H3735 0.960 . S
H3720 C3704 0.931 . S
H3721 C3709 0.929 . S
H3722 C3710 0.960 . S
H3723 C3710 0.962 . S
H3724 C3710 0.960 . S
H3725 C3711 0.961 . S
H3726 C3711 0.961 . S
H3727 C3711 0.961 . S
H3728 C3712 0.931 . S
H3729 C3717 0.930 . S
H3730 C3718 0.956 . S
H3731 C3718 0.961 . S
H3732 C3718 0.961 . S
H3733 C3719 0.958 . S
H3734 C3719 0.961 . S
H3735 C3719 0.960 . S
C3736 C3737 1.391 . S
C3736 C3738 1.394 . S
C3736 H3752 0.931 . S
C3737 C3736 1.391 . S
C3737 C3741 1.376 . S
C3738 C3736 1.394 . S
C3738 C3739 1.369 . S
C3738 C3742 1.531 . S
C3739 C3738 1.369 . S
C3739 C3740 1.410 . S
C3739 C3747 1.503 . S
C3740 C3739 1.410 . S
C3740 C3741 1.392 . S
C3740 C3743 1.511 . S
C3741 C3737 1.376 . S
C3741 C3740 1.392 . S
C3741 H3753 0.929 . S
C3742 C3738 1.531 . S
C3742 H3754 0.960 . S
C3742 H3755 0.962 . S
C3742 H3756 0.960 . S
C3743 C3740 1.511 . S
C3743 H3757 0.961 . S
C3743 H3758 0.961 . S
C3743 H3759 0.961 . S
C3744 C3745 1.370 . S
C3744 C3746 1.363 . S
C3744 H3760 0.931 . S
C3745 C3744 1.370 . S
C3745 C3749 1.408 . S
C3746 C3744 1.363 . S
C3746 C3747 1.370 . S
C3746 C3750 1.524 . S
C3747 C3739 1.503 . S
C3747 C3746 1.370 . S
C3747 C3748 1.403 . S
C3748 C3747 1.403 . S
C3748 C3749 1.404 . S
C3748 C3751 1.539 . S
C3749 C3745 1.408 . S
C3749 C3748 1.404 . S
C3749 H3761 0.930 . S
C3750 C3746 1.524 . S
C3750 H3762 0.956 . S
C3750 H3763 0.961 . S
C3750 H3764 0.961 . S
C3751 C3748 1.539 . S
C3751 H3765 0.958 . S
C3751 H3766 0.961 . S
C3751 H3767 0.960 . S
H3752 C3736 0.931 . S
H3753 C3741 0.929 . S
H3754 C3742 0.960 . S
H3755 C3742 0.962 . S
H3756 C3742 0.960 . S
H3757 C3743 0.961 . S
H3758 C3743 0.961 . S
H3759 C3743 0.961 . S
H3760 C3744 0.931 . S
H3761 C3749 0.930 . S
H3762 C3750 0.956 . S
H3763 C3750 0.961 . S
H3764 C3750 0.961 . S
H3765 C3751 0.958 . S
H3766 C3751 0.961 . S
H3767 C3751 0.960 . S
C3768 C3769 1.391 . S
C3768 C3770 1.394 . S
C3768 H3784 0.931 . S
C3769 C3768 1.391 . S
C3769 C3773 1.376 . S
C3770 C3768 1.394 . S
C3770 C3771 1.369 . S
C3770 C3774 1.531 . S
C3771 C3770 1.369 . S
C3771 C3772 1.410 . S
C3771 C3779 1.503 . S
C3772 C3771 1.410 . S
C3772 C3773 1.392 . S
C3772 C3775 1.511 . S
C3773 C3769 1.376 . S
C3773 C3772 1.392 . S
C3773 H3785 0.929 . S
C3774 C3770 1.531 . S
C3774 H3786 0.960 . S
C3774 H3787 0.962 . S
C3774 H3788 0.960 . S
C3775 C3772 1.511 . S
C3775 H3789 0.961 . S
C3775 H3790 0.961 . S
C3775 H3791 0.961 . S
C3776 C3777 1.370 . S
C3776 C3778 1.363 . S
C3776 H3792 0.931 . S
C3777 C3776 1.370 . S
C3777 C3781 1.408 . S
C3778 C3776 1.363 . S
C3778 C3779 1.370 . S
C3778 C3782 1.524 . S
C3779 C3771 1.503 . S
C3779 C3778 1.370 . S
C3779 C3780 1.403 . S
C3780 C3779 1.403 . S
C3780 C3781 1.404 . S
C3780 C3783 1.539 . S
C3781 C3777 1.408 . S
C3781 C3780 1.404 . S
C3781 H3793 0.930 . S
C3782 C3778 1.524 . S
C3782 H3794 0.956 . S
C3782 H3795 0.961 . S
C3782 H3796 0.961 . S
C3783 C3780 1.539 . S
C3783 H3797 0.958 . S
C3783 H3798 0.961 . S
C3783 H3799 0.960 . S
H3784 C3768 0.931 . S
H3785 C3773 0.929 . S
H3786 C3774 0.960 . S
H3787 C3774 0.962 . S
H3788 C3774 0.960 . S
H3789 C3775 0.961 . S
H3790 C3775 0.961 . S
H3791 C3775 0.961 . S
H3792 C3776 0.931 . S
H3793 C3781 0.930 . S
H3794 C3782 0.956 . S
H3795 C3782 0.961 . S
H3796 C3782 0.961 . S
H3797 C3783 0.958 . S
H3798 C3783 0.961 . S
H3799 C3783 0.960 . S
C3800 C3801 1.391 . S
C3800 C3802 1.390 1_565 S
C3800 H3816 0.931 1_554 S
C3801 C3800 1.391 . S
C3801 C3805 1.376 . S
C3802 C3800 1.390 1_545 S
C3802 C3803 1.351 1_545 S
C3802 C3806 1.553 1_554 S
C3803 C3802 1.351 1_565 S
C3803 C3804 1.410 . S
C3803 C3811 1.503 1_565 S
C3804 C3803 1.410 . S
C3804 C3805 1.392 . S
C3804 C3807 1.511 . S
C3805 C3801 1.376 . S
C3805 C3804 1.392 . S
C3805 H3817 0.929 . S
C3806 C3802 1.553 1_556 S
C3806 H3818 0.958 1_556 S
C3806 H3819 0.962 . S
C3806 H3820 0.960 . S
C3807 C3804 1.511 . S
C3807 H3821 0.961 . S
C3807 H3822 0.961 . S
C3807 H3823 0.961 . S
C3808 C3809 1.370 1_565 S
C3808 C3810 1.363 . S
C3808 H3824 0.931 1_554 S
C3809 C3808 1.370 1_545 S
C3809 C3813 1.408 . S
C3810 C3808 1.363 . S
C3810 C3811 1.370 1_565 S
C3810 C3814 1.524 1_554 S
C3811 C3803 1.503 1_545 S
C3811 C3810 1.370 1_545 S
C3811 C3812 1.403 . S
C3812 C3811 1.403 . S
C3812 C3813 1.404 . S
C3812 C3815 1.539 . S
C3813 C3809 1.408 . S
C3813 C3812 1.404 . S
C3813 H3825 0.930 . S
C3814 C3810 1.524 1_556 S
C3814 H3826 0.956 . S
C3814 H3827 0.961 . S
C3814 H3828 0.961 . S
C3815 C3812 1.539 . S
C3815 H3829 0.958 . S
C3815 H3830 0.961 . S
C3815 H3831 0.960 . S
H3816 C3800 0.931 1_556 S
H3817 C3805 0.929 . S
H3818 C3806 0.958 1_554 S
H3819 C3806 0.962 . S
H3820 C3806 0.960 . S
H3821 C3807 0.961 . S
H3822 C3807 0.961 . S
H3823 C3807 0.961 . S
H3824 C3808 0.931 1_556 S
H3825 C3813 0.930 . S
H3826 C3814 0.956 . S
H3827 C3814 0.961 . S
H3828 C3814 0.961 . S
H3829 C3815 0.958 . S
H3830 C3815 0.961 . S
H3831 C3815 0.960 . S
C3832 C3833 1.391 . S
C3832 C3834 1.394 . S
C3832 H3848 0.931 . S
C3833 C3832 1.391 . S
C3833 C3837 1.376 . S
C3834 C3832 1.394 . S
C3834 C3835 1.369 . S
C3834 C3838 1.531 . S
C3835 C3834 1.369 . S
C3835 C3836 1.410 . S
C3835 C3843 1.503 . S
C3836 C3835 1.410 . S
C3836 C3837 1.392 . S
C3836 C3839 1.511 . S
C3837 C3833 1.376 . S
C3837 C3836 1.392 . S
C3837 H3849 0.929 . S
C3838 C3834 1.531 . S
C3838 H3850 0.960 . S
C3838 H3851 0.962 . S
C3838 H3852 0.960 . S
C3839 C3836 1.511 . S
C3839 H3853 0.961 . S
C3839 H3854 0.961 . S
C3839 H3855 0.961 . S
C3840 C3841 1.370 . S
C3840 C3842 1.363 . S
C3840 H3856 0.931 . S
C3841 C3840 1.370 . S
C3841 C3845 1.408 . S
C3842 C3840 1.363 . S
C3842 C3843 1.370 . S
C3842 C3846 1.524 . S
C3843 C3835 1.503 . S
C3843 C3842 1.370 . S
C3843 C3844 1.403 . S
C3844 C3843 1.403 . S
C3844 C3845 1.404 . S
C3844 C3847 1.539 . S
C3845 C3841 1.408 . S
C3845 C3844 1.404 . S
C3845 H3857 0.930 . S
C3846 C3842 1.524 . S
C3846 H3858 0.956 . S
C3846 H3859 0.961 . S
C3846 H3860 0.961 . S
C3847 C3844 1.539 . S
C3847 H3861 0.958 . S
C3847 H3862 0.961 . S
C3847 H3863 0.960 . S
H3848 C3832 0.931 . S
H3849 C3837 0.929 . S
H3850 C3838 0.960 . S
H3851 C3838 0.962 . S
H3852 C3838 0.960 . S
H3853 C3839 0.961 . S
H3854 C3839 0.961 . S
H3855 C3839 0.961 . S
H3856 C3840 0.931 . S
H3857 C3845 0.930 . S
H3858 C3846 0.956 . S
H3859 C3846 0.961 . S
H3860 C3846 0.961 . S
H3861 C3847 0.958 . S
H3862 C3847 0.961 . S
H3863 C3847 0.960 . S
C3864 C3865 1.392 . S
C3864 C3866 1.394 . S
C3864 H3880 0.931 . S
C3865 C3864 1.392 . S
C3865 C3869 1.378 . S
C3866 C3864 1.394 . S
C3866 C3867 1.369 . S
C3866 C3870 1.531 . S
C3867 C3866 1.369 . S
C3867 C3868 1.410 . S
C3867 C3875 1.503 . S
C3868 C3867 1.410 . S
C3868 C3869 1.392 . S
C3868 C3871 1.511 . S
C3869 C3865 1.378 . S
C3869 C3868 1.392 . S
C3869 H3881 0.929 1_554 S
C3870 C3866 1.531 . S
C3870 H3882 0.960 . S
C3870 H3883 0.962 . S
C3870 H3884 0.960 . S
C3871 C3868 1.511 . S
C3871 H3885 0.961 1_554 S
C3871 H3886 0.961 . S
C3871 H3887 0.961 . S
C3872 C3873 1.370 . S
C3872 C3874 1.371 . S
C3872 H3888 0.931 1_554 S
C3873 C3872 1.370 . S
C3873 C3877 1.408 . S
C3874 C3872 1.371 . S
C3874 C3875 1.396 . S
C3874 C3878 1.491 1_554 S
C3875 C3867 1.503 . S
C3875 C3874 1.396 . S
C3875 C3876 1.403 . S
C3876 C3875 1.403 . S
C3876 C3877 1.404 . S
C3876 C3879 1.539 . S
C3877 C3873 1.408 . S
C3877 C3876 1.404 . S
C3877 H3889 0.930 . S
C3878 C3874 1.491 1_556 S
C3878 H3890 0.956 . S
C3878 H3891 0.961 . S
C3878 H3892 0.961 . S
C3879 C3876 1.539 . S
C3879 H3893 0.958 . S
C3879 H3894 0.961 . S
C3879 H3895 0.960 . S
H3880 C3864 0.931 . S
H3881 C3869 0.929 1_556 S
H3882 C3870 0.960 . S
H3883 C3870 0.962 . S
H3884 C3870 0.960 . S
H3885 C3871 0.961 1_556 S
H3886 C3871 0.961 . S
H3887 C3871 0.961 . S
H3888 C3872 0.931 1_556 S
H3889 C3877 0.930 . S
H3890 C3878 0.956 . S
H3891 C3878 0.961 . S
H3892 C3878 0.961 . S
H3893 C3879 0.958 . S
H3894 C3879 0.961 . S
H3895 C3879 0.960 . S
C3896 C3897 1.391 . S
C3896 C3898 1.394 . S
C3896 H3912 0.931 . S
C3897 C3896 1.391 . S
C3897 C3901 1.376 . S
C3898 C3896 1.394 . S
C3898 C3899 1.369 . S
C3898 C3902 1.531 . S
C3899 C3898 1.369 . S
C3899 C3900 1.410 . S
C3899 C3907 1.503 . S
C3900 C3899 1.410 . S
C3900 C3901 1.392 . S
C3900 C3903 1.511 . S
C3901 C3897 1.376 . S
C3901 C3900 1.392 . S
C3901 H3913 0.929 . S
C3902 C3898 1.531 . S
C3902 H3914 0.960 . S
C3902 H3915 0.962 . S
C3902 H3916 0.960 . S
C3903 C3900 1.511 . S
C3903 H3917 0.961 . S
C3903 H3918 0.961 . S
C3903 H3919 0.961 . S
C3904 C3905 1.370 . S
C3904 C3906 1.363 . S
C3904 H3920 0.931 . S
C3905 C3904 1.370 . S
C3905 C3909 1.408 . S
C3906 C3904 1.363 . S
C3906 C3907 1.370 . S
C3906 C3910 1.524 . S
C3907 C3899 1.503 . S
C3907 C3906 1.370 . S
C3907 C3908 1.403 . S
C3908 C3907 1.403 . S
C3908 C3909 1.404 . S
C3908 C3911 1.539 . S
C3909 C3905 1.408 . S
C3909 C3908 1.404 . S
C3909 H3921 0.930 . S
C3910 C3906 1.524 . S
C3910 H3922 0.956 . S
C3910 H3923 0.961 . S
C3910 H3924 0.961 . S
C3911 C3908 1.539 . S
C3911 H3925 0.958 . S
C3911 H3926 0.961 . S
C3911 H3927 0.960 . S
H3912 C3896 0.931 . S
H3913 C3901 0.929 . S
H3914 C3902 0.960 . S
H3915 C3902 0.962 . S
H3916 C3902 0.960 . S
H3917 C3903 0.961 . S
H3918 C3903 0.961 . S
H3919 C3903 0.961 . S
H3920 C3904 0.931 . S
H3921 C3909 0.930 . S
H3922 C3910 0.956 . S
H3923 C3910 0.961 . S
H3924 C3910 0.961 . S
H3925 C3911 0.958 . S
H3926 C3911 0.961 . S
H3927 C3911 0.960 . S
C3928 C3929 1.391 . S
C3928 C3930 1.394 . S
C3928 H3944 0.931 . S
C3929 C3928 1.391 . S
C3929 C3933 1.376 . S
C3930 C3928 1.394 . S
C3930 C3931 1.369 . S
C3930 C3934 1.531 . S
C3931 C3930 1.369 . S
C3931 C3932 1.410 . S
C3931 C3939 1.503 . S
C3932 C3931 1.410 . S
C3932 C3933 1.392 . S
C3932 C3935 1.511 . S
C3933 C3929 1.376 . S
C3933 C3932 1.392 . S
C3933 H3945 0.929 . S
C3934 C3930 1.531 . S
C3934 H3946 0.960 . S
C3934 H3947 0.962 . S
C3934 H3948 0.960 . S
C3935 C3932 1.511 . S
C3935 H3949 0.961 . S
C3935 H3950 0.961 . S
C3935 H3951 0.961 . S
C3936 C3937 1.370 . S
C3936 C3938 1.363 . S
C3936 H3952 0.931 . S
C3937 C3936 1.370 . S
C3937 C3941 1.408 . S
C3938 C3936 1.363 . S
C3938 C3939 1.370 . S
C3938 C3942 1.524 . S
C3939 C3931 1.503 . S
C3939 C3938 1.370 . S
C3939 C3940 1.403 . S
C3940 C3939 1.403 . S
C3940 C3941 1.404 . S
C3940 C3943 1.539 . S
C3941 C3937 1.408 . S
C3941 C3940 1.404 . S
C3941 H3953 0.930 . S
C3942 C3938 1.524 . S
C3942 H3954 0.956 . S
C3942 H3955 0.961 . S
C3942 H3956 0.961 . S
C3943 C3940 1.539 . S
C3943 H3957 0.958 . S
C3943 H3958 0.961 . S
C3943 H3959 0.960 . S
H3944 C3928 0.931 . S
H3945 C3933 0.929 . S
H3946 C3934 0.960 . S
H3947 C3934 0.962 . S
H3948 C3934 0.960 . S
H3949 C3935 0.961 . S
H3950 C3935 0.961 . S
H3951 C3935 0.961 . S
H3952 C3936 0.931 . S
H3953 C3941 0.930 . S
H3954 C3942 0.956 . S
H3955 C3942 0.961 . S
H3956 C3942 0.961 . S
H3957 C3943 0.958 . S
H3958 C3943 0.961 . S
H3959 C3943 0.960 . S
C3960 C3961 1.391 . S
C3960 C3962 1.394 . S
C3960 H3976 0.931 . S
C3961 C3960 1.391 . S
C3961 C3965 1.376 . S
C3962 C3960 1.394 . S
C3962 C3963 1.369 . S
C3962 C3966 1.531 . S
C3963 C3962 1.369 . S
C3963 C3964 1.410 . S
C3963 C3971 1.503 . S
C3964 C3963 1.410 . S
C3964 C3965 1.392 . S
C3964 C3967 1.511 . S
C3965 C3961 1.376 . S
C3965 C3964 1.392 . S
C3965 H3977 0.929 . S
C3966 C3962 1.531 . S
C3966 H3978 0.960 . S
C3966 H3979 0.962 . S
C3966 H3980 0.960 . S
C3967 C3964 1.511 . S
C3967 H3981 0.961 . S
C3967 H3982 0.961 . S
C3967 H3983 0.961 . S
C3968 C3969 1.370 . S
C3968 C3970 1.363 . S
C3968 H3984 0.931 . S
C3969 C3968 1.370 . S
C3969 C3973 1.408 . S
C3970 C3968 1.363 . S
C3970 C3971 1.370 . S
C3970 C3974 1.524 . S
C3971 C3963 1.503 . S
C3971 C3970 1.370 . S
C3971 C3972 1.403 . S
C3972 C3971 1.403 . S
C3972 C3973 1.404 . S
C3972 C3975 1.539 . S
C3973 C3969 1.408 . S
C3973 C3972 1.404 . S
C3973 H3985 0.930 . S
C3974 C3970 1.524 . S
C3974 H3986 0.956 . S
C3974 H3987 0.961 . S
C3974 H3988 0.961 . S
C3975 C3972 1.539 . S
C3975 H3989 0.958 . S
C3975 H3990 0.961 . S
C3975 H3991 0.960 . S
H3976 C3960 0.931 . S
H3977 C3965 0.929 . S
H3978 C3966 0.960 . S
H3979 C3966 0.962 . S
H3980 C3966 0.960 . S
H3981 C3967 0.961 . S
H3982 C3967 0.961 . S
H3983 C3967 0.961 . S
H3984 C3968 0.931 . S
H3985 C3973 0.930 . S
H3986 C3974 0.956 . S
H3987 C3974 0.961 . S
H3988 C3974 0.961 . S
H3989 C3975 0.958 . S
H3990 C3975 0.961 . S
H3991 C3975 0.960 . S
C3992 C3993 1.391 . S
C3992 C3994 1.394 . S
C3992 H4008 0.931 . S
C3993 C3992 1.391 . S
C3993 C3997 1.376 . S
C3994 C3992 1.394 . S
C3994 C3995 1.369 . S
C3994 C3998 1.531 . S
C3995 C3994 1.369 . S
C3995 C3996 1.410 . S
C3995 C4003 1.503 . S
C3996 C3995 1.410 . S
C3996 C3997 1.392 . S
C3996 C3999 1.511 . S
C3997 C3993 1.376 . S
C3997 C3996 1.392 . S
C3997 H4009 0.929 . S
C3998 C3994 1.531 . S
C3998 H4010 0.960 . S
C3998 H4011 0.962 . S
C3998 H4012 0.960 . S
C3999 C3996 1.511 . S
C3999 H4013 0.961 . S
C3999 H4014 0.961 . S
C3999 H4015 0.961 . S
C4000 C4001 1.370 . S
C4000 C4002 1.363 . S
C4000 H4016 0.931 . S
C4001 C4000 1.370 . S
C4001 C4005 1.408 . S
C4002 C4000 1.363 . S
C4002 C4003 1.370 . S
C4002 C4006 1.524 . S
C4003 C3995 1.503 . S
C4003 C4002 1.370 . S
C4003 C4004 1.403 . S
C4004 C4003 1.403 . S
C4004 C4005 1.404 . S
C4004 C4007 1.539 . S
C4005 C4001 1.408 . S
C4005 C4004 1.404 . S
C4005 H4017 0.930 . S
C4006 C4002 1.524 . S
C4006 H4018 0.956 . S
C4006 H4019 0.961 . S
C4006 H4020 0.961 . S
C4007 C4004 1.539 . S
C4007 H4021 0.958 . S
C4007 H4022 0.961 . S
C4007 H4023 0.960 . S
H4008 C3992 0.931 . S
H4009 C3997 0.929 . S
H4010 C3998 0.960 . S
H4011 C3998 0.962 . S
H4012 C3998 0.960 . S
H4013 C3999 0.961 . S
H4014 C3999 0.961 . S
H4015 C3999 0.961 . S
H4016 C4000 0.931 . S
H4017 C4005 0.930 . S
H4018 C4006 0.956 . S
H4019 C4006 0.961 . S
H4020 C4006 0.961 . S
H4021 C4007 0.958 . S
H4022 C4007 0.961 . S
H4023 C4007 0.960 . S
C4024 C4025 1.391 . S
C4024 C4026 1.394 . S
C4024 H4040 0.931 . S
C4025 C4024 1.391 . S
C4025 C4029 1.376 . S
C4026 C4024 1.394 . S
C4026 C4027 1.369 . S
C4026 C4030 1.531 . S
C4027 C4026 1.369 . S
C4027 C4028 1.410 . S
C4027 C4035 1.503 . S
C4028 C4027 1.410 . S
C4028 C4029 1.392 . S
C4028 C4031 1.511 . S
C4029 C4025 1.376 . S
C4029 C4028 1.392 . S
C4029 H4041 0.929 . S
C4030 C4026 1.531 . S
C4030 H4042 0.960 . S
C4030 H4043 0.962 . S
C4030 H4044 0.960 . S
C4031 C4028 1.511 . S
C4031 H4045 0.961 . S
C4031 H4046 0.961 . S
C4031 H4047 0.961 . S
C4032 C4033 1.370 . S
C4032 C4034 1.363 . S
C4032 H4048 0.931 . S
C4033 C4032 1.370 . S
C4033 C4037 1.408 . S
C4034 C4032 1.363 . S
C4034 C4035 1.370 . S
C4034 C4038 1.524 . S
C4035 C4027 1.503 . S
C4035 C4034 1.370 . S
C4035 C4036 1.403 . S
C4036 C4035 1.403 . S
C4036 C4037 1.404 . S
C4036 C4039 1.539 1_554 S
C4037 C4033 1.408 . S
C4037 C4036 1.404 . S
C4037 H4049 0.930 1_554 S
C4038 C4034 1.524 . S
C4038 H4050 0.956 . S
C4038 H4051 0.961 . S
C4038 H4052 0.961 . S
C4039 C4036 1.539 1_556 S
C4039 H4053 0.958 . S
C4039 H4054 0.961 . S
C4039 H4055 0.960 1_556 S
H4040 C4024 0.931 . S
H4041 C4029 0.929 . S
H4042 C4030 0.960 . S
H4043 C4030 0.962 . S
H4044 C4030 0.960 . S
H4045 C4031 0.961 . S
H4046 C4031 0.961 . S
H4047 C4031 0.961 . S
H4048 C4032 0.931 . S
H4049 C4037 0.930 1_556 S
H4050 C4038 0.956 . S
H4051 C4038 0.961 . S
H4052 C4038 0.961 . S
H4053 C4039 0.958 . S
H4054 C4039 0.961 . S
H4055 C4039 0.960 1_554 S
C4056 C4057 1.391 . S
C4056 C4058 1.394 . S
C4056 H4072 0.931 . S
C4057 C4056 1.391 . S
C4057 C4061 1.376 . S
C4058 C4056 1.394 . S
C4058 C4059 1.369 . S
C4058 C4062 1.531 . S
C4059 C4058 1.369 . S
C4059 C4060 1.410 . S
C4059 C4067 1.503 . S
C4060 C4059 1.410 . S
C4060 C4061 1.392 . S
C4060 C4063 1.511 . S
C4061 C4057 1.376 . S
C4061 C4060 1.392 . S
C4061 H4073 0.929 . S
C4062 C4058 1.531 . S
C4062 H4074 0.960 . S
C4062 H4075 0.962 . S
C4062 H4076 0.960 . S
C4063 C4060 1.511 . S
C4063 H4077 0.961 . S
C4063 H4078 0.961 . S
C4063 H4079 0.961 . S
C4064 C4065 1.370 . S
C4064 C4066 1.363 . S
C4064 H4080 0.931 . S
C4065 C4064 1.370 . S
C4065 C4069 1.408 . S
C4066 C4064 1.363 . S
C4066 C4067 1.370 . S
C4066 C4070 1.524 . S
C4067 C4059 1.503 . S
C4067 C4066 1.370 . S
C4067 C4068 1.403 . S
C4068 C4067 1.403 . S
C4068 C4069 1.404 . S
C4068 C4071 1.539 . S
C4069 C4065 1.408 . S
C4069 C4068 1.404 . S
C4069 H4081 0.930 . S
C4070 C4066 1.524 . S
C4070 H4082 0.956 . S
C4070 H4083 0.961 . S
C4070 H4084 0.961 . S
C4071 C4068 1.539 . S
C4071 H4085 0.958 . S
C4071 H4086 0.961 . S
C4071 H4087 0.960 . S
H4072 C4056 0.931 . S
H4073 C4061 0.929 . S
H4074 C4062 0.960 . S
H4075 C4062 0.962 . S
H4076 C4062 0.960 . S
H4077 C4063 0.961 . S
H4078 C4063 0.961 . S
H4079 C4063 0.961 . S
H4080 C4064 0.931 . S
H4081 C4069 0.930 . S
H4082 C4070 0.956 . S
H4083 C4070 0.961 . S
H4084 C4070 0.961 . S
H4085 C4071 0.958 . S
H4086 C4071 0.961 . S
H4087 C4071 0.960 . S
C4088 C4089 1.391 . S
C4088 C4090 1.394 . S
C4088 H4104 0.931 . S
C4089 C4088 1.391 . S
C4089 C4093 1.376 . S
C4090 C4088 1.394 . S
C4090 C4091 1.369 . S
C4090 C4094 1.531 . S
C4091 C4090 1.369 . S
C4091 C4092 1.410 . S
C4091 C4099 1.503 . S
C4092 C4091 1.410 . S
C4092 C4093 1.392 . S
C4092 C4095 1.511 . S
C4093 C4089 1.376 . S
C4093 C4092 1.392 . S
C4093 H4105 0.929 . S
C4094 C4090 1.531 . S
C4094 H4106 0.960 . S
C4094 H4107 0.962 . S
C4094 H4108 0.960 . S
C4095 C4092 1.511 . S
C4095 H4109 0.961 . S
C4095 H4110 0.961 . S
C4095 H4111 0.961 . S
C4096 C4097 1.370 . S
C4096 C4098 1.363 . S
C4096 H4112 0.931 . S
C4097 C4096 1.370 . S
C4097 C4101 1.408 . S
C4098 C4096 1.363 . S
C4098 C4099 1.370 . S
C4098 C4102 1.524 . S
C4099 C4091 1.503 . S
C4099 C4098 1.370 . S
C4099 C4100 1.403 . S
C4100 C4099 1.403 . S
C4100 C4101 1.404 . S
C4100 C4103 1.539 . S
C4101 C4097 1.408 . S
C4101 C4100 1.404 . S
C4101 H4113 0.930 1_556 S
C4102 C4098 1.524 . S
C4102 H4114 0.956 . S
C4102 H4115 0.961 . S
C4102 H4116 0.961 . S
C4103 C4100 1.539 . S
C4103 H4117 0.958 . S
C4103 H4118 0.961 . S
C4103 H4119 0.960 . S
H4104 C4088 0.931 . S
H4105 C4093 0.929 . S
H4106 C4094 0.960 . S
H4107 C4094 0.962 . S
H4108 C4094 0.960 . S
H4109 C4095 0.961 . S
H4110 C4095 0.961 . S
H4111 C4095 0.961 . S
H4112 C4096 0.931 . S
H4113 C4101 0.930 1_554 S
H4114 C4102 0.956 . S
H4115 C4102 0.961 . S
H4116 C4102 0.961 . S
H4117 C4103 0.958 . S
H4118 C4103 0.961 . S
H4119 C4103 0.960 . S
C4120 C4121 1.391 . S
C4120 C4122 1.394 . S
C4120 H4136 0.931 . S
C4121 C4120 1.391 . S
C4121 C4125 1.376 . S
C4122 C4120 1.394 . S
C4122 C4123 1.369 . S
C4122 C4126 1.531 . S
C4123 C4122 1.369 . S
C4123 C4124 1.410 . S
C4123 C4131 1.503 . S
C4124 C4123 1.410 . S
C4124 C4125 1.392 . S
C4124 C4127 1.511 . S
C4125 C4121 1.376 . S
C4125 C4124 1.392 . S
C4125 H4137 0.929 . S
C4126 C4122 1.531 . S
C4126 H4138 0.960 . S
C4126 H4139 0.962 . S
C4126 H4140 0.960 . S
C4127 C4124 1.511 . S
C4127 H4141 0.961 . S
C4127 H4142 0.961 . S
C4127 H4143 0.961 . S
C4128 C4129 1.370 . S
C4128 C4130 1.363 . S
C4128 H4144 0.931 . S
C4129 C4128 1.370 . S
C4129 C4133 1.408 . S
C4130 C4128 1.363 . S
C4130 C4131 1.370 . S
C4130 C4134 1.524 . S
C4131 C4123 1.503 . S
C4131 C4130 1.370 . S
C4131 C4132 1.403 . S
C4132 C4131 1.403 . S
C4132 C4133 1.404 . S
C4132 C4135 1.539 . S
C4133 C4129 1.408 . S
C4133 C4132 1.404 . S
C4133 H4145 0.930 . S
C4134 C4130 1.524 . S
C4134 H4146 0.956 . S
C4134 H4147 0.961 . S
C4134 H4148 0.961 . S
C4135 C4132 1.539 . S
C4135 H4149 0.958 . S
C4135 H4150 0.961 . S
C4135 H4151 0.960 . S
H4136 C4120 0.931 . S
H4137 C4125 0.929 . S
H4138 C4126 0.960 . S
H4139 C4126 0.962 . S
H4140 C4126 0.960 . S
H4141 C4127 0.961 . S
H4142 C4127 0.961 . S
H4143 C4127 0.961 . S
H4144 C4128 0.931 . S
H4145 C4133 0.930 . S
H4146 C4134 0.956 . S
H4147 C4134 0.961 . S
H4148 C4134 0.961 . S
H4149 C4135 0.958 . S
H4150 C4135 0.961 . S
H4151 C4135 0.960 . S
C4152 C4153 1.391 . S
C4152 C4154 1.394 . S
C4152 H4168 0.931 . S
C4153 C4152 1.391 . S
C4153 C4157 1.376 . S
C4154 C4152 1.394 . S
C4154 C4155 1.369 . S
C4154 C4158 1.531 . S
C4155 C4154 1.369 . S
C4155 C4156 1.410 . S
C4155 C4163 1.503 . S
C4156 C4155 1.410 . S
C4156 C4157 1.392 . S
C4156 C4159 1.511 . S
C4157 C4153 1.376 . S
C4157 C4156 1.392 . S
C4157 H4169 0.929 . S
C4158 C4154 1.531 . S
C4158 H4170 0.960 . S
C4158 H4171 0.962 . S
C4158 H4172 0.960 . S
C4159 C4156 1.511 . S
C4159 H4173 0.961 . S
C4159 H4174 0.961 . S
C4159 H4175 0.961 . S
C4160 C4161 1.370 . S
C4160 C4162 1.363 . S
C4160 H4176 0.931 . S
C4161 C4160 1.370 . S
C4161 C4165 1.408 . S
C4162 C4160 1.363 . S
C4162 C4163 1.370 . S
C4162 C4166 1.524 . S
C4163 C4155 1.503 . S
C4163 C4162 1.370 . S
C4163 C4164 1.403 . S
C4164 C4163 1.403 . S
C4164 C4165 1.404 . S
C4164 C4167 1.539 . S
C4165 C4161 1.408 . S
C4165 C4164 1.404 . S
C4165 H4177 0.930 . S
C4166 C4162 1.524 . S
C4166 H4178 0.956 . S
C4166 H4179 0.961 . S
C4166 H4180 0.961 . S
C4167 C4164 1.539 . S
C4167 H4181 0.958 . S
C4167 H4182 0.961 . S
C4167 H4183 0.960 . S
H4168 C4152 0.931 . S
H4169 C4157 0.929 . S
H4170 C4158 0.960 . S
H4171 C4158 0.962 . S
H4172 C4158 0.960 . S
H4173 C4159 0.961 . S
H4174 C4159 0.961 . S
H4175 C4159 0.961 . S
H4176 C4160 0.931 . S
H4177 C4165 0.930 . S
H4178 C4166 0.956 . S
H4179 C4166 0.961 . S
H4180 C4166 0.961 . S
H4181 C4167 0.958 . S
H4182 C4167 0.961 . S
H4183 C4167 0.960 . S
C4184 C4185 1.391 . S
C4184 C4186 1.394 . S
C4184 H4200 0.931 . S
C4185 C4184 1.391 . S
C4185 C4189 1.376 . S
C4186 C4184 1.394 . S
C4186 C4187 1.369 . S
C4186 C4190 1.531 . S
C4187 C4186 1.369 . S
C4187 C4188 1.410 . S
C4187 C4195 1.503 . S
C4188 C4187 1.410 . S
C4188 C4189 1.392 . S
C4188 C4191 1.511 . S
C4189 C4185 1.376 . S
C4189 C4188 1.392 . S
C4189 H4201 0.929 . S
C4190 C4186 1.531 . S
C4190 H4202 0.960 . S
C4190 H4203 0.962 . S
C4190 H4204 0.960 . S
C4191 C4188 1.511 . S
C4191 H4205 0.961 . S
C4191 H4206 0.961 . S
C4191 H4207 0.961 . S
C4192 C4193 1.370 . S
C4192 C4194 1.363 . S
C4192 H4208 0.931 . S
C4193 C4192 1.370 . S
C4193 C4197 1.408 . S
C4194 C4192 1.363 . S
C4194 C4195 1.370 . S
C4194 C4198 1.524 . S
C4195 C4187 1.503 . S
C4195 C4194 1.370 . S
C4195 C4196 1.403 . S
C4196 C4195 1.403 . S
C4196 C4197 1.404 . S
C4196 C4199 1.539 . S
C4197 C4193 1.408 . S
C4197 C4196 1.404 . S
C4197 H4209 0.930 . S
C4198 C4194 1.524 . S
C4198 H4210 0.956 . S
C4198 H4211 0.961 . S
C4198 H4212 0.961 . S
C4199 C4196 1.539 . S
C4199 H4213 0.958 . S
C4199 H4214 0.961 . S
C4199 H4215 0.960 . S
H4200 C4184 0.931 . S
H4201 C4189 0.929 . S
H4202 C4190 0.960 . S
H4203 C4190 0.962 . S
H4204 C4190 0.960 . S
H4205 C4191 0.961 . S
H4206 C4191 0.961 . S
H4207 C4191 0.961 . S
H4208 C4192 0.931 . S
H4209 C4197 0.930 . S
H4210 C4198 0.956 . S
H4211 C4198 0.961 . S
H4212 C4198 0.961 . S
H4213 C4199 0.958 . S
H4214 C4199 0.961 . S
H4215 C4199 0.960 . S
C4216 C4217 1.391 . S
C4216 C4218 1.394 . S
C4216 H4232 0.931 . S
C4217 C4216 1.391 . S
C4217 C4221 1.376 . S
C4218 C4216 1.394 . S
C4218 C4219 1.369 . S
C4218 C4222 1.531 . S
C4219 C4218 1.369 . S
C4219 C4220 1.410 . S
C4219 C4227 1.503 . S
C4220 C4219 1.410 . S
C4220 C4221 1.392 . S
C4220 C4223 1.511 . S
C4221 C4217 1.376 . S
C4221 C4220 1.392 . S
C4221 H4233 0.929 . S
C4222 C4218 1.531 . S
C4222 H4234 0.960 . S
C4222 H4235 0.962 . S
C4222 H4236 0.960 . S
C4223 C4220 1.511 . S
C4223 H4237 0.961 . S
C4223 H4238 0.961 . S
C4223 H4239 0.961 . S
C4224 C4225 1.370 . S
C4224 C4226 1.363 . S
C4224 H4240 0.931 . S
C4225 C4224 1.370 . S
C4225 C4229 1.408 . S
C4226 C4224 1.363 . S
C4226 C4227 1.370 . S
C4226 C4230 1.524 . S
C4227 C4219 1.503 . S
C4227 C4226 1.370 . S
C4227 C4228 1.403 . S
C4228 C4227 1.403 . S
C4228 C4229 1.404 . S
C4228 C4231 1.539 . S
C4229 C4225 1.408 . S
C4229 C4228 1.404 . S
C4229 H4241 0.930 . S
C4230 C4226 1.524 . S
C4230 H4242 0.956 . S
C4230 H4243 0.961 . S
C4230 H4244 0.961 . S
C4231 C4228 1.539 . S
C4231 H4245 0.958 . S
C4231 H4246 0.961 . S
C4231 H4247 0.960 . S
H4232 C4216 0.931 . S
H4233 C4221 0.929 . S
H4234 C4222 0.960 . S
H4235 C4222 0.962 . S
H4236 C4222 0.960 . S
H4237 C4223 0.961 . S
H4238 C4223 0.961 . S
H4239 C4223 0.961 . S
H4240 C4224 0.931 . S
H4241 C4229 0.930 . S
H4242 C4230 0.956 . S
H4243 C4230 0.961 . S
H4244 C4230 0.961 . S
H4245 C4231 0.958 . S
H4246 C4231 0.961 . S
H4247 C4231 0.960 . S
C4248 C4249 1.391 . S
C4248 C4250 1.394 . S
C4248 H4264 0.931 . S
C4249 C4248 1.391 . S
C4249 C4253 1.376 . S
C4250 C4248 1.394 . S
C4250 C4251 1.369 . S
C4250 C4254 1.531 . S
C4251 C4250 1.369 . S
C4251 C4252 1.410 . S
C4251 C4259 1.503 . S
C4252 C4251 1.410 . S
C4252 C4253 1.392 . S
C4252 C4255 1.511 . S
C4253 C4249 1.376 . S
C4253 C4252 1.392 . S
C4253 H4265 0.929 . S
C4254 C4250 1.531 . S
C4254 H4266 0.960 . S
C4254 H4267 0.962 . S
C4254 H4268 0.960 . S
C4255 C4252 1.511 . S
C4255 H4269 0.961 . S
C4255 H4270 0.961 . S
C4255 H4271 0.961 . S
C4256 C4257 1.370 . S
C4256 C4258 1.363 . S
C4256 H4272 0.931 . S
C4257 C4256 1.370 . S
C4257 C4261 1.408 . S
C4258 C4256 1.363 . S
C4258 C4259 1.370 . S
C4258 C4262 1.524 . S
C4259 C4251 1.503 . S
C4259 C4258 1.370 . S
C4259 C4260 1.403 . S
C4260 C4259 1.403 . S
C4260 C4261 1.404 . S
C4260 C4263 1.539 . S
C4261 C4257 1.408 . S
C4261 C4260 1.404 . S
C4261 H4273 0.930 . S
C4262 C4258 1.524 . S
C4262 H4274 0.956 . S
C4262 H4275 0.961 . S
C4262 H4276 0.961 . S
C4263 C4260 1.539 . S
C4263 H4277 0.958 . S
C4263 H4278 0.961 . S
C4263 H4279 0.960 . S
H4264 C4248 0.931 . S
H4265 C4253 0.929 . S
H4266 C4254 0.960 . S
H4267 C4254 0.962 . S
H4268 C4254 0.960 . S
H4269 C4255 0.961 . S
H4270 C4255 0.961 . S
H4271 C4255 0.961 . S
H4272 C4256 0.931 . S
H4273 C4261 0.930 . S
H4274 C4262 0.956 . S
H4275 C4262 0.961 . S
H4276 C4262 0.961 . S
H4277 C4263 0.958 . S
H4278 C4263 0.961 . S
H4279 C4263 0.960 . S
C4280 C4281 1.391 . S
C4280 C4282 1.394 . S
C4280 H4296 0.931 . S
C4281 C4280 1.391 . S
C4281 C4285 1.376 . S
C4282 C4280 1.394 . S
C4282 C4283 1.369 . S
C4282 C4286 1.531 1_655 S
C4283 C4282 1.369 . S
C4283 C4284 1.410 . S
C4283 C4291 1.539 . S
C4284 C4283 1.410 . S
C4284 C4285 1.392 . S
C4284 C4287 1.511 . S
C4285 C4281 1.376 . S
C4285 C4284 1.392 . S
C4285 H4297 0.929 . S
C4286 C4282 1.531 1_455 S
C4286 H4298 0.960 . S
C4286 H4299 0.962 . S
C4286 H4300 0.960 . S
C4287 C4284 1.511 . S
C4287 H4301 0.961 . S
C4287 H4302 0.961 . S
C4287 H4303 0.961 . S
C4288 C4289 1.370 . S
C4288 C4290 1.363 . S
C4288 H4304 0.931 . S
C4289 C4288 1.370 . S
C4289 C4293 1.408 . S
C4290 C4288 1.363 . S
C4290 C4291 1.349 1_455 S
C4290 C4294 1.524 1_455 S
C4291 C4283 1.539 . S
C4291 C4290 1.349 1_655 S
C4291 C4292 1.390 1_655 S
C4292 C4291 1.390 1_455 S
C4292 C4293 1.404 . S
C4292 C4295 1.539 . S
C4293 C4289 1.408 . S
C4293 C4292 1.404 . S
C4293 H4305 0.930 . S
C4294 C4290 1.524 1_655 S
C4294 H4306 0.956 . S
C4294 H4307 0.961 . S
C4294 H4308 0.961 . S
C4295 C4292 1.539 . S
C4295 H4309 0.958 . S
C4295 H4310 0.961 . S
C4295 H4311 0.960 1_455 S
H4296 C4280 0.931 . S
H4297 C4285 0.929 . S
H4298 C4286 0.960 . S
H4299 C4286 0.962 . S
H4300 C4286 0.960 . S
H4301 C4287 0.961 . S
H4302 C4287 0.961 . S
H4303 C4287 0.961 . S
H4304 C4288 0.931 . S
H4305 C4293 0.930 . S
H4306 C4294 0.956 . S
H4307 C4294 0.961 . S
H4308 C4294 0.961 . S
H4309 C4295 0.958 . S
H4310 C4295 0.961 . S
H4311 C4295 0.960 1_655 S
C4312 C4313 1.391 . S
C4312 C4314 1.394 . S
C4312 H4328 0.931 . S
C4313 C4312 1.391 . S
C4313 C4317 1.376 . S
C4314 C4312 1.394 . S
C4314 C4315 1.369 . S
C4314 C4318 1.531 . S
C4315 C4314 1.369 . S
C4315 C4316 1.410 . S
C4315 C4323 1.503 . S
C4316 C4315 1.410 . S
C4316 C4317 1.392 . S
C4316 C4319 1.511 . S
C4317 C4313 1.376 . S
C4317 C4316 1.392 . S
C4317 H4329 0.929 . S
C4318 C4314 1.531 . S
C4318 H4330 0.960 . S
C4318 H4331 0.962 . S
C4318 H4332 0.960 . S
C4319 C4316 1.511 . S
C4319 H4333 0.961 . S
C4319 H4334 0.961 . S
C4319 H4335 0.961 . S
C4320 C4321 1.370 . S
C4320 C4322 1.363 . S
C4320 H4336 0.931 . S
C4321 C4320 1.370 . S
C4321 C4325 1.408 . S
C4322 C4320 1.363 . S
C4322 C4323 1.370 . S
C4322 C4326 1.524 . S
C4323 C4315 1.503 . S
C4323 C4322 1.370 . S
C4323 C4324 1.403 . S
C4324 C4323 1.403 . S
C4324 C4325 1.404 . S
C4324 C4327 1.539 . S
C4325 C4321 1.408 . S
C4325 C4324 1.404 . S
C4325 H4337 0.930 . S
C4326 C4322 1.524 . S
C4326 H4338 0.956 . S
C4326 H4339 0.961 . S
C4326 H4340 0.961 . S
C4327 C4324 1.539 . S
C4327 H4341 0.958 . S
C4327 H4342 0.961 . S
C4327 H4343 0.960 . S
H4328 C4312 0.931 . S
H4329 C4317 0.929 . S
H4330 C4318 0.960 . S
H4331 C4318 0.962 . S
H4332 C4318 0.960 . S
H4333 C4319 0.961 . S
H4334 C4319 0.961 . S
H4335 C4319 0.961 . S
H4336 C4320 0.931 . S
H4337 C4325 0.930 . S
H4338 C4326 0.956 . S
H4339 C4326 0.961 . S
H4340 C4326 0.961 . S
H4341 C4327 0.958 . S
H4342 C4327 0.961 . S
H4343 C4327 0.960 . S
C4344 C4345 1.391 . S
C4344 C4346 1.394 . S
C4344 H4360 0.931 . S
C4345 C4344 1.391 . S
C4345 C4349 1.376 . S
C4346 C4344 1.394 . S
C4346 C4347 1.369 . S
C4346 C4350 1.531 . S
C4347 C4346 1.369 . S
C4347 C4348 1.410 . S
C4347 C4355 1.503 . S
C4348 C4347 1.410 . S
C4348 C4349 1.392 . S
C4348 C4351 1.511 . S
C4349 C4345 1.376 . S
C4349 C4348 1.392 . S
C4349 H4361 0.929 . S
C4350 C4346 1.531 . S
C4350 H4362 0.960 . S
C4350 H4363 0.962 . S
C4350 H4364 0.960 . S
C4351 C4348 1.511 . S
C4351 H4365 0.961 . S
C4351 H4366 0.961 . S
C4351 H4367 0.961 . S
C4352 C4353 1.370 . S
C4352 C4354 1.363 . S
C4352 H4368 0.931 . S
C4353 C4352 1.370 . S
C4353 C4357 1.408 . S
C4354 C4352 1.363 . S
C4354 C4355 1.370 . S
C4354 C4358 1.524 . S
C4355 C4347 1.503 . S
C4355 C4354 1.370 . S
C4355 C4356 1.403 . S
C4356 C4355 1.403 . S
C4356 C4357 1.404 . S
C4356 C4359 1.539 . S
C4357 C4353 1.408 . S
C4357 C4356 1.404 . S
C4357 H4369 0.930 . S
C4358 C4354 1.524 . S
C4358 H4370 0.956 . S
C4358 H4371 0.961 . S
C4358 H4372 0.961 . S
C4359 C4356 1.539 . S
C4359 H4373 0.958 . S
C4359 H4374 0.961 . S
C4359 H4375 0.960 . S
H4360 C4344 0.931 . S
H4361 C4349 0.929 . S
H4362 C4350 0.960 . S
H4363 C4350 0.962 . S
H4364 C4350 0.960 . S
H4365 C4351 0.961 . S
H4366 C4351 0.961 . S
H4367 C4351 0.961 . S
H4368 C4352 0.931 . S
H4369 C4357 0.930 . S
H4370 C4358 0.956 . S
H4371 C4358 0.961 . S
H4372 C4358 0.961 . S
H4373 C4359 0.958 . S
H4374 C4359 0.961 . S
H4375 C4359 0.960 . S
C4376 C4377 1.391 . S
C4376 C4378 1.394 . S
C4376 H4392 0.931 . S
C4377 C4376 1.391 . S
C4377 C4381 1.376 . S
C4378 C4376 1.394 . S
C4378 C4379 1.369 . S
C4378 C4382 1.531 . S
C4379 C4378 1.369 . S
C4379 C4380 1.410 . S
C4379 C4387 1.503 . S
C4380 C4379 1.410 . S
C4380 C4381 1.392 . S
C4380 C4383 1.511 . S
C4381 C4377 1.376 . S
C4381 C4380 1.392 . S
C4381 H4393 0.929 . S
C4382 C4378 1.531 . S
C4382 H4394 0.960 . S
C4382 H4395 0.962 . S
C4382 H4396 0.960 . S
C4383 C4380 1.511 . S
C4383 H4397 0.961 . S
C4383 H4398 0.961 . S
C4383 H4399 0.961 . S
C4384 C4385 1.370 . S
C4384 C4386 1.363 . S
C4384 H4400 0.931 . S
C4385 C4384 1.370 . S
C4385 C4389 1.408 . S
C4386 C4384 1.363 . S
C4386 C4387 1.370 . S
C4386 C4390 1.524 . S
C4387 C4379 1.503 . S
C4387 C4386 1.370 . S
C4387 C4388 1.403 . S
C4388 C4387 1.403 . S
C4388 C4389 1.404 . S
C4388 C4391 1.539 . S
C4389 C4385 1.408 . S
C4389 C4388 1.404 . S
C4389 H4401 0.930 . S
C4390 C4386 1.524 . S
C4390 H4402 0.956 . S
C4390 H4403 0.961 . S
C4390 H4404 0.961 . S
C4391 C4388 1.539 . S
C4391 H4405 0.958 . S
C4391 H4406 0.961 . S
C4391 H4407 0.960 . S
H4392 C4376 0.931 . S
H4393 C4381 0.929 . S
H4394 C4382 0.960 . S
H4395 C4382 0.962 . S
H4396 C4382 0.960 . S
H4397 C4383 0.961 . S
H4398 C4383 0.961 . S
H4399 C4383 0.961 . S
H4400 C4384 0.931 . S
H4401 C4389 0.930 . S
H4402 C4390 0.956 . S
H4403 C4390 0.961 . S
H4404 C4390 0.961 . S
H4405 C4391 0.958 . S
H4406 C4391 0.961 . S
H4407 C4391 0.960 . S
C4408 C4409 1.391 . S
C4408 C4410 1.394 . S
C4408 H4424 0.931 . S
C4409 C4408 1.391 . S
C4409 C4413 1.376 . S
C4410 C4408 1.394 . S
C4410 C4411 1.369 . S
C4410 C4414 1.531 . S
C4411 C4410 1.369 . S
C4411 C4412 1.410 . S
C4411 C4419 1.503 . S
C4412 C4411 1.410 . S
C4412 C4413 1.392 . S
C4412 C4415 1.511 . S
C4413 C4409 1.376 . S
C4413 C4412 1.392 . S
C4413 H4425 0.929 . S
C4414 C4410 1.531 . S
C4414 H4426 0.960 . S
C4414 H4427 0.962 . S
C4414 H4428 0.960 . S
C4415 C4412 1.511 . S
C4415 H4429 0.961 . S
C4415 H4430 0.961 . S
C4415 H4431 0.961 1_655 S
C4416 C4417 1.370 1_655 S
C4416 C4418 1.363 . S
C4416 H4432 0.931 . S
C4417 C4416 1.370 1_455 S
C4417 C4421 1.408 . S
C4418 C4416 1.363 . S
C4418 C4419 1.370 . S
C4418 C4422 1.524 . S
C4419 C4411 1.503 . S
C4419 C4418 1.370 . S
C4419 C4420 1.390 1_655 S
C4420 C4419 1.390 1_455 S
C4420 C4421 1.414 . S
C4420 C4423 1.543 . S
C4421 C4417 1.408 . S
C4421 C4420 1.414 . S
C4421 H4433 0.930 . S
C4422 C4418 1.524 . S
C4422 H4434 0.956 . S
C4422 H4435 0.961 . S
C4422 H4436 0.961 . S
C4423 C4420 1.543 . S
C4423 H4437 0.958 . S
C4423 H4438 0.961 . S
C4423 H4439 0.960 . S
H4424 C4408 0.931 . S
H4425 C4413 0.929 . S
H4426 C4414 0.960 . S
H4427 C4414 0.962 . S
H4428 C4414 0.960 . S
H4429 C4415 0.961 . S
H4430 C4415 0.961 . S
H4431 C4415 0.961 1_455 S
H4432 C4416 0.931 . S
H4433 C4421 0.930 . S
H4434 C4422 0.956 . S
H4435 C4422 0.961 . S
H4436 C4422 0.961 . S
H4437 C4423 0.958 . S
H4438 C4423 0.961 . S
H4439 C4423 0.960 . S
C4440 C4441 1.391 . S
C4440 C4442 1.394 . S
C4440 H4456 0.931 . S
C4441 C4440 1.391 . S
C4441 C4445 1.376 . S
C4442 C4440 1.394 . S
C4442 C4443 1.369 . S
C4442 C4446 1.531 . S
C4443 C4442 1.369 . S
C4443 C4444 1.410 . S
C4443 C4451 1.503 . S
C4444 C4443 1.410 . S
C4444 C4445 1.392 . S
C4444 C4447 1.511 . S
C4445 C4441 1.376 . S
C4445 C4444 1.392 . S
C4445 H4457 0.929 . S
C4446 C4442 1.531 . S
C4446 H4458 0.960 . S
C4446 H4459 0.962 . S
C4446 H4460 0.960 . S
C4447 C4444 1.511 . S
C4447 H4461 0.961 . S
C4447 H4462 0.961 . S
C4447 H4463 0.961 . S
C4448 C4449 1.370 . S
C4448 C4450 1.363 . S
C4448 H4464 0.931 . S
C4449 C4448 1.370 . S
C4449 C4453 1.408 . S
C4450 C4448 1.363 . S
C4450 C4451 1.370 . S
C4450 C4454 1.524 . S
C4451 C4443 1.503 . S
C4451 C4450 1.370 . S
C4451 C4452 1.403 . S
C4452 C4451 1.403 . S
C4452 C4453 1.404 . S
C4452 C4455 1.539 . S
C4453 C4449 1.408 . S
C4453 C4452 1.404 . S
C4453 H4465 0.930 . S
C4454 C4450 1.524 . S
C4454 H4466 0.956 . S
C4454 H4467 0.961 . S
C4454 H4468 0.961 . S
C4455 C4452 1.539 . S
C4455 H4469 0.958 . S
C4455 H4470 0.961 . S
C4455 H4471 0.960 . S
H4456 C4440 0.931 . S
H4457 C4445 0.929 . S
H4458 C4446 0.960 . S
H4459 C4446 0.962 . S
H4460 C4446 0.960 . S
H4461 C4447 0.961 . S
H4462 C4447 0.961 . S
H4463 C4447 0.961 . S
H4464 C4448 0.931 . S
H4465 C4453 0.930 . S
H4466 C4454 0.956 . S
H4467 C4454 0.961 . S
H4468 C4454 0.961 . S
H4469 C4455 0.958 . S
H4470 C4455 0.961 . S
H4471 C4455 0.960 . S
C4472 C4473 1.391 . S
C4472 C4474 1.394 . S
C4472 H4488 0.931 . S
C4473 C4472 1.391 . S
C4473 C4477 1.376 . S
C4474 C4472 1.394 . S
C4474 C4475 1.369 . S
C4474 C4478 1.531 . S
C4475 C4474 1.369 . S
C4475 C4476 1.410 . S
C4475 C4483 1.503 . S
C4476 C4475 1.410 . S
C4476 C4477 1.392 . S
C4476 C4479 1.511 . S
C4477 C4473 1.376 . S
C4477 C4476 1.392 . S
C4477 H4489 0.929 . S
C4478 C4474 1.531 . S
C4478 H4490 0.960 . S
C4478 H4491 0.962 . S
C4478 H4492 0.960 . S
C4479 C4476 1.511 . S
C4479 H4493 0.961 . S
C4479 H4494 0.961 . S
C4479 H4495 0.961 . S
C4480 C4481 1.370 . S
C4480 C4482 1.363 . S
C4480 H4496 0.931 . S
C4481 C4480 1.370 . S
C4481 C4485 1.408 . S
C4482 C4480 1.363 . S
C4482 C4483 1.370 . S
C4482 C4486 1.524 . S
C4483 C4475 1.503 . S
C4483 C4482 1.370 . S
C4483 C4484 1.403 . S
C4484 C4483 1.403 . S
C4484 C4485 1.404 . S
C4484 C4487 1.539 . S
C4485 C4481 1.408 . S
C4485 C4484 1.404 . S
C4485 H4497 0.930 . S
C4486 C4482 1.524 . S
C4486 H4498 0.956 . S
C4486 H4499 0.961 . S
C4486 H4500 0.961 . S
C4487 C4484 1.539 . S
C4487 H4501 0.958 . S
C4487 H4502 0.961 . S
C4487 H4503 0.960 . S
H4488 C4472 0.931 . S
H4489 C4477 0.929 . S
H4490 C4478 0.960 . S
H4491 C4478 0.962 . S
H4492 C4478 0.960 . S
H4493 C4479 0.961 . S
H4494 C4479 0.961 . S
H4495 C4479 0.961 . S
H4496 C4480 0.931 . S
H4497 C4485 0.930 . S
H4498 C4486 0.956 . S
H4499 C4486 0.961 . S
H4500 C4486 0.961 . S
H4501 C4487 0.958 . S
H4502 C4487 0.961 . S
H4503 C4487 0.960 . S
C4504 C4505 1.391 . S
C4504 C4506 1.394 . S
C4504 H4520 0.931 . S
C4505 C4504 1.391 . S
C4505 C4509 1.376 . S
C4506 C4504 1.394 . S
C4506 C4507 1.369 . S
C4506 C4510 1.531 . S
C4507 C4506 1.369 . S
C4507 C4508 1.410 . S
C4507 C4515 1.503 . S
C4508 C4507 1.410 . S
C4508 C4509 1.392 . S
C4508 C4511 1.511 . S
C4509 C4505 1.376 . S
C4509 C4508 1.392 . S
C4509 H4521 0.929 . S
C4510 C4506 1.531 . S
C4510 H4522 0.960 . S
C4510 H4523 0.937 1_565 S
C4510 H4524 0.960 . S
C4511 C4508 1.511 . S
C4511 H4525 0.961 . S
C4511 H4526 0.961 . S
C4511 H4527 0.961 . S
C4512 C4513 1.370 . S
C4512 C4514 1.363 . S
C4512 H4528 0.931 1_565 S
C4513 C4512 1.370 . S
C4513 C4517 1.408 . S
C4514 C4512 1.363 . S
C4514 C4515 1.370 . S
C4514 C4518 1.524 . S
C4515 C4507 1.503 . S
C4515 C4514 1.370 . S
C4515 C4516 1.403 . S
C4516 C4515 1.403 . S
C4516 C4517 1.404 . S
C4516 C4519 1.539 . S
C4517 C4513 1.408 . S
C4517 C4516 1.404 . S
C4517 H4529 0.950 . S
C4518 C4514 1.524 . S
C4518 H4530 0.956 . S
C4518 H4531 0.961 . S
C4518 H4532 0.961 . S
C4519 C4516 1.539 . S
C4519 H4533 0.958 . S
C4519 H4534 0.961 . S
C4519 H4535 0.960 . S
H4520 C4504 0.931 . S
H4521 C4509 0.929 . S
H4522 C4510 0.960 . S
H4523 C4510 0.937 1_545 S
H4524 C4510 0.960 . S
H4525 C4511 0.961 . S
H4526 C4511 0.961 . S
H4527 C4511 0.961 . S
H4528 C4512 0.931 1_545 S
H4529 C4517 0.950 . S
H4530 C4518 0.956 . S
H4531 C4518 0.961 . S
H4532 C4518 0.961 . S
H4533 C4519 0.958 . S
H4534 C4519 0.961 . S
H4535 C4519 0.960 . S
C4536 C4537 1.391 . S
C4536 C4538 1.394 . S
C4536 H4552 0.931 . S
C4537 C4536 1.391 . S
C4537 C4541 1.376 . S
C4538 C4536 1.394 . S
C4538 C4539 1.369 . S
C4538 C4542 1.531 . S
C4539 C4538 1.369 . S
C4539 C4540 1.410 . S
C4539 C4547 1.503 . S
C4540 C4539 1.410 . S
C4540 C4541 1.392 . S
C4540 C4543 1.511 . S
C4541 C4537 1.376 . S
C4541 C4540 1.392 . S
C4541 H4553 0.929 . S
C4542 C4538 1.531 . S
C4542 H4554 0.960 . S
C4542 H4555 0.962 . S
C4542 H4556 0.960 . S
C4543 C4540 1.511 . S
C4543 H4557 0.961 . S
C4543 H4558 0.961 . S
C4543 H4559 0.961 . S
C4544 C4545 1.370 . S
C4544 C4546 1.363 . S
C4544 H4560 0.931 . S
C4545 C4544 1.370 . S
C4545 C4549 1.408 . S
C4546 C4544 1.363 . S
C4546 C4547 1.370 . S
C4546 C4550 1.524 . S
C4547 C4539 1.503 . S
C4547 C4546 1.370 . S
C4547 C4548 1.403 . S
C4548 C4547 1.403 . S
C4548 C4549 1.404 . S
C4548 C4551 1.539 . S
C4549 C4545 1.408 . S
C4549 C4548 1.404 . S
C4549 H4561 0.930 . S
C4550 C4546 1.524 . S
C4550 H4562 0.956 . S
C4550 H4563 0.961 . S
C4550 H4564 0.961 . S
C4551 C4548 1.539 . S
C4551 H4565 0.958 . S
C4551 H4566 0.961 . S
C4551 H4567 0.960 . S
H4552 C4536 0.931 . S
H4553 C4541 0.929 . S
H4554 C4542 0.960 . S
H4555 C4542 0.962 . S
H4556 C4542 0.960 . S
H4557 C4543 0.961 . S
H4558 C4543 0.961 . S
H4559 C4543 0.961 . S
H4560 C4544 0.931 . S
H4561 C4549 0.930 . S
H4562 C4550 0.956 . S
H4563 C4550 0.961 . S
H4564 C4550 0.961 . S
H4565 C4551 0.958 . S
H4566 C4551 0.961 . S
H4567 C4551 0.960 . S
C4568 C4569 1.417 . S
C4568 C4570 1.400 . S
C4568 H4584 0.899 1_554 S
C4569 C4568 1.417 . S
C4569 C4573 1.376 . S
C4570 C4568 1.400 . S
C4570 C4571 1.369 . S
C4570 C4574 1.531 1_554 S
C4571 C4570 1.369 . S
C4571 C4572 1.410 . S
C4571 C4579 1.503 . S
C4572 C4571 1.410 . S
C4572 C4573 1.392 . S
C4572 C4575 1.511 . S
C4573 C4569 1.376 . S
C4573 C4572 1.392 . S
C4573 H4585 0.929 . S
C4574 C4570 1.531 1_556 S
C4574 H4586 0.960 . S
C4574 H4587 0.962 . S
C4574 H4588 0.960 . S
C4575 C4572 1.511 . S
C4575 H4589 0.961 . S
C4575 H4590 0.961 . S
C4575 H4591 0.961 . S
C4576 C4577 1.370 . S
C4576 C4578 1.363 . S
C4576 H4592 0.931 . S
C4577 C4576 1.370 . S
C4577 C4581 1.408 . S
C4578 C4576 1.363 . S
C4578 C4579 1.370 . S
C4578 C4582 1.524 . S
C4579 C4571 1.503 . S
C4579 C4578 1.370 . S
C4579 C4580 1.403 . S
C4580 C4579 1.403 . S
C4580 C4581 1.404 . S
C4580 C4583 1.539 . S
C4581 C4577 1.408 . S
C4581 C4580 1.404 . S
C4581 H4593 0.930 . S
C4582 C4578 1.524 . S
C4582 H4594 0.963 . S
C4582 H4595 0.961 . S
C4582 H4596 0.961 . S
C4583 C4580 1.539 . S
C4583 H4597 0.958 . S
C4583 H4598 0.961 . S
C4583 H4599 0.960 . S
H4584 C4568 0.899 1_556 S
H4585 C4573 0.929 . S
H4586 C4574 0.960 . S
H4587 C4574 0.962 . S
H4588 C4574 0.960 . S
H4589 C4575 0.961 . S
H4590 C4575 0.961 . S
H4591 C4575 0.961 . S
H4592 C4576 0.931 . S
H4593 C4581 0.930 . S
H4594 C4582 0.963 . S
H4595 C4582 0.961 . S
H4596 C4582 0.961 . S
H4597 C4583 0.958 . S
H4598 C4583 0.961 . S
H4599 C4583 0.960 . S
C4600 C4601 1.391 . S
C4600 C4602 1.394 . S
C4600 H4616 0.931 . S
C4601 C4600 1.391 . S
C4601 C4605 1.376 . S
C4602 C4600 1.394 . S
C4602 C4603 1.369 . S
C4602 C4606 1.531 . S
C4603 C4602 1.369 . S
C4603 C4604 1.410 . S
C4603 C4611 1.503 . S
C4604 C4603 1.410 . S
C4604 C4605 1.392 . S
C4604 C4607 1.511 . S
C4605 C4601 1.376 . S
C4605 C4604 1.392 . S
C4605 H4617 0.929 . S
C4606 C4602 1.531 . S
C4606 H4618 0.960 . S
C4606 H4619 0.962 . S
C4606 H4620 0.960 . S
C4607 C4604 1.511 . S
C4607 H4621 0.961 . S
C4607 H4622 0.961 . S
C4607 H4623 0.961 . S
C4608 C4609 1.370 . S
C4608 C4610 1.363 . S
C4608 H4624 0.931 . S
C4609 C4608 1.370 . S
C4609 C4613 1.408 . S
C4610 C4608 1.363 . S
C4610 C4611 1.370 . S
C4610 C4614 1.524 . S
C4611 C4603 1.503 . S
C4611 C4610 1.370 . S
C4611 C4612 1.403 . S
C4612 C4611 1.403 . S
C4612 C4613 1.404 . S
C4612 C4615 1.539 . S
C4613 C4609 1.408 . S
C4613 C4612 1.404 . S
C4613 H4625 0.930 . S
C4614 C4610 1.524 . S
C4614 H4626 0.956 . S
C4614 H4627 0.961 . S
C4614 H4628 0.961 . S
C4615 C4612 1.539 . S
C4615 H4629 0.958 . S
C4615 H4630 0.961 . S
C4615 H4631 0.960 . S
H4616 C4600 0.931 . S
H4617 C4605 0.929 . S
H4618 C4606 0.960 . S
H4619 C4606 0.962 . S
H4620 C4606 0.960 . S
H4621 C4607 0.961 . S
H4622 C4607 0.961 . S
H4623 C4607 0.961 . S
H4624 C4608 0.931 . S
H4625 C4613 0.930 . S
H4626 C4614 0.956 . S
H4627 C4614 0.961 . S
H4628 C4614 0.961 . S
H4629 C4615 0.958 . S
H4630 C4615 0.961 . S
H4631 C4615 0.960 . S
C4632 C4633 1.391 . S
C4632 C4634 1.394 . S
C4632 H4648 0.931 . S
C4633 C4632 1.391 . S
C4633 C4637 1.376 . S
C4634 C4632 1.394 . S
C4634 C4635 1.369 . S
C4634 C4638 1.531 . S
C4635 C4634 1.369 . S
C4635 C4636 1.410 . S
C4635 C4643 1.503 . S
C4636 C4635 1.410 . S
C4636 C4637 1.392 . S
C4636 C4639 1.511 1_554 S
C4637 C4633 1.376 . S
C4637 C4636 1.392 . S
C4637 H4649 0.929 1_554 S
C4638 C4634 1.531 . S
C4638 H4650 0.960 . S
C4638 H4651 0.962 . S
C4638 H4652 0.960 . S
C4639 C4636 1.511 1_556 S
C4639 H4653 0.961 . S
C4639 H4654 0.961 . S
C4639 H4655 0.961 . S
C4640 C4641 1.370 . S
C4640 C4642 1.363 . S
C4640 H4656 0.931 . S
C4641 C4640 1.370 . S
C4641 C4645 1.408 . S
C4642 C4640 1.363 . S
C4642 C4643 1.370 . S
C4642 C4646 1.524 . S
C4643 C4635 1.503 . S
C4643 C4642 1.370 . S
C4643 C4644 1.403 . S
C4644 C4643 1.403 . S
C4644 C4645 1.404 . S
C4644 C4647 1.539 . S
C4645 C4641 1.408 . S
C4645 C4644 1.404 . S
C4645 H4657 0.926 1_554 S
C4646 C4642 1.524 . S
C4646 H4658 0.956 . S
C4646 H4659 0.961 . S
C4646 H4660 0.961 . S
C4647 C4644 1.539 . S
C4647 H4661 0.958 . S
C4647 H4662 0.961 1_554 S
C4647 H4663 0.960 . S
H4648 C4632 0.931 . S
H4649 C4637 0.929 1_556 S
H4650 C4638 0.960 . S
H4651 C4638 0.962 . S
H4652 C4638 0.960 . S
H4653 C4639 0.961 . S
H4654 C4639 0.961 . S
H4655 C4639 0.961 . S
H4656 C4640 0.931 . S
H4657 C4645 0.926 1_556 S
H4658 C4646 0.956 . S
H4659 C4646 0.961 . S
H4660 C4646 0.961 . S
H4661 C4647 0.958 . S
H4662 C4647 0.961 1_556 S
H4663 C4647 0.960 . S
C4664 C4665 1.391 . S
C4664 C4666 1.394 . S
C4664 H4680 0.931 . S
C4665 C4664 1.391 . S
C4665 C4669 1.376 . S
C4666 C4664 1.394 . S
C4666 C4667 1.369 . S
C4666 C4670 1.531 . S
C4667 C4666 1.369 . S
C4667 C4668 1.410 . S
C4667 C4675 1.503 . S
C4668 C4667 1.410 . S
C4668 C4669 1.392 . S
C4668 C4671 1.511 . S
C4669 C4665 1.376 . S
C4669 C4668 1.392 . S
C4669 H4681 0.929 . S
C4670 C4666 1.531 . S
C4670 H4682 0.960 . S
C4670 H4683 0.962 . S
C4670 H4684 0.960 . S
C4671 C4668 1.511 . S
C4671 H4685 0.961 . S
C4671 H4686 0.961 . S
C4671 H4687 0.961 . S
C4672 C4673 1.370 . S
C4672 C4674 1.363 . S
C4672 H4688 0.931 . S
C4673 C4672 1.370 . S
C4673 C4677 1.408 . S
C4674 C4672 1.363 . S
C4674 C4675 1.370 . S
C4674 C4678 1.524 . S
C4675 C4667 1.503 . S
C4675 C4674 1.370 . S
C4675 C4676 1.403 . S
C4676 C4675 1.403 . S
C4676 C4677 1.404 . S
C4676 C4679 1.539 . S
C4677 C4673 1.408 . S
C4677 C4676 1.404 . S
C4677 H4689 0.930 . S
C4678 C4674 1.524 . S
C4678 H4690 0.956 . S
C4678 H4691 0.961 . S
C4678 H4692 0.961 . S
C4679 C4676 1.539 . S
C4679 H4693 0.958 . S
C4679 H4694 0.961 . S
C4679 H4695 0.960 . S
H4680 C4664 0.931 . S
H4681 C4669 0.929 . S
H4682 C4670 0.960 . S
H4683 C4670 0.962 . S
H4684 C4670 0.960 . S
H4685 C4671 0.961 . S
H4686 C4671 0.961 . S
H4687 C4671 0.961 . S
H4688 C4672 0.931 . S
H4689 C4677 0.930 . S
H4690 C4678 0.956 . S
H4691 C4678 0.961 . S
H4692 C4678 0.961 . S
H4693 C4679 0.958 . S
H4694 C4679 0.961 . S
H4695 C4679 0.960 . S
C4696 C4697 1.391 . S
C4696 C4698 1.394 . S
C4696 H4712 0.931 . S
C4697 C4696 1.391 . S
C4697 C4701 1.376 . S
C4698 C4696 1.394 . S
C4698 C4699 1.369 . S
C4698 C4702 1.531 . S
C4699 C4698 1.369 . S
C4699 C4700 1.410 . S
C4699 C4707 1.503 . S
C4700 C4699 1.410 . S
C4700 C4701 1.392 . S
C4700 C4703 1.511 . S
C4701 C4697 1.376 . S
C4701 C4700 1.392 . S
C4701 H4713 0.929 . S
C4702 C4698 1.531 . S
C4702 H4714 0.960 . S
C4702 H4715 0.962 . S
C4702 H4716 0.960 . S
C4703 C4700 1.511 . S
C4703 H4717 0.961 . S
C4703 H4718 0.961 . S
C4703 H4719 0.961 . S
C4704 C4705 1.370 . S
C4704 C4706 1.363 . S
C4704 H4720 0.931 . S
C4705 C4704 1.370 . S
C4705 C4709 1.408 . S
C4706 C4704 1.363 . S
C4706 C4707 1.370 . S
C4706 C4710 1.524 . S
C4707 C4699 1.503 . S
C4707 C4706 1.370 . S
C4707 C4708 1.403 . S
C4708 C4707 1.403 . S
C4708 C4709 1.404 . S
C4708 C4711 1.539 . S
C4709 C4705 1.408 . S
C4709 C4708 1.404 . S
C4709 H4721 0.930 . S
C4710 C4706 1.524 . S
C4710 H4722 0.956 . S
C4710 H4723 0.961 . S
C4710 H4724 0.961 . S
C4711 C4708 1.539 . S
C4711 H4725 0.958 . S
C4711 H4726 0.961 . S
C4711 H4727 0.960 . S
H4712 C4696 0.931 . S
H4713 C4701 0.929 . S
H4714 C4702 0.960 . S
H4715 C4702 0.962 . S
H4716 C4702 0.960 . S
H4717 C4703 0.961 . S
H4718 C4703 0.961 . S
H4719 C4703 0.961 . S
H4720 C4704 0.931 . S
H4721 C4709 0.930 . S
H4722 C4710 0.956 . S
H4723 C4710 0.961 . S
H4724 C4710 0.961 . S
H4725 C4711 0.958 . S
H4726 C4711 0.961 . S
H4727 C4711 0.960 . S
C1657 C101 1.871 . S
C1665 C368 1.758 . S
C1689 C57 2.148 . S
C1697 C459 2.150 . S
C1721 C73 1.588 . S
C1729 C536 1.637 . S
C1761 C634 1.443 . S
C1753 C78 1.528 . S
C1785 C21 1.540 . S
C1793 C718 1.518 . S
C1825 C790 0.974 . S
C1817 C31 0.987 . S
C1857 C879 0.955 . S
C1849 C49 0.914 . S
C1881 C0 1.371 . S
C1889 C956 1.322 . S
C1921 C375 2.022 . S
C1913 C218 2.126 . S
C1945 C229 0.738 . S
C1953 C466 0.728 . S
C1985 C543 1.166 . S
C1977 C257 1.203 . S
C2017 C620 1.577 . S
C2009 C164 1.602 . S
C2041 C216 1.993 . S
C2049 C704 1.938 . S
C2081 C806 1.112 . S
C2073 C231 1.217 . S
C2113 C886 0.755 . S
C2105 C255 0.748 . S
C2145 C963 1.486 . S
C2137 C166 1.628 . S
C2177 C382 1.359 . S
C2169 C143 1.364 . S
C2201 C265 1.960 . S
C2209 C1047 1.916 . S
C2241 C1135 2.148 . S
C2233 C299 2.317 . S
C2273 C1208 0.604 . S
C2265 C291 0.660 . S
C2297 C104 0.749 . S
C2305 C970 0.779 . S
C2329 C117 1.409 . S
C2337 C550 1.398 . S
C2361 C304 2.177 . S
C2369 C1299 2.159 . S
C2401 C1376 0.699 . S
C2393 C278 0.712 . S
C2433 C379 1.704 . S
C2425 C60 1.827 . S
C2465 C1394 2.084 . S
C2457 C96 2.138 . S
C2489 C88 1.597 . S
C2497 C547 1.512 . S
C2521 C65 1.485 . S
C2529 C1294 1.344 . S
C2561 C706 1.458 . S
C2553 C10 1.493 . S
C2585 C44 0.887 . S
C2593 C1138 0.944 . S
C2625 C890 0.835 . S
C2617 C34 0.876 . S
C2657 C1471 1.277 . S
C2649 C13 1.441 . S
C2689 C386 1.969 . S
C2681 C138 2.013 1_565 S
C2721 C1378 0.640 . S
C2713 C296 0.597 . S
C2745 C112 1.113 . S
C2753 C554 1.107 . S
C2777 C270 1.581 . S
C2785 C1303 1.503 . S
C2809 C140 2.025 . S
C2817 C715 1.873 . S
C2849 C1131 1.091 . S
C2841 C294 1.157 . S
C2873 C114 0.701 . S
C2881 C874 0.736 . S
C2905 C268 1.545 . S
C2913 C1478 1.437 . S
C2937 C169 1.376 . S
C2945 C370 1.330 1_554 S
C2969 C161 1.891 . S
C2977 C1058 1.853 . S
C3001 C234 2.268 . S
C3009 C788 2.095 . S
C3033 C226 0.551 . S
C3041 C1219 0.490 . S
C3073 C1462 0.857 . S
C3065 C247 0.835 1_565 S
C3097 C195 1.427 . S
C3105 C538 1.364 . S
C3137 C638 2.061 . S
C3129 C239 2.121 . S
C3169 C463 0.613 . S
C3161 C187 0.528 . S
C3193 C75 1.865 . S
C3201 C1544 1.764 . S
C3233 C1383 2.155 . S
C3225 C83 2.177 . S
C3257 C99 1.586 . S
C3265 C1628 1.633 . S
C3289 C52 1.493 . S
C3297 C1306 1.406 . S
C3321 C47 1.480 . S
C3329 C1054 1.507 . S
C3361 C1126 0.965 . S
C3353 C5 0.984 . S
C3393 C1215 0.975 . S
C3385 C23 0.993 . S
C3425 C1460 1.327 . S
C3417 C26 1.350 . S
C3457 C1551 2.032 . S
C3449 C244 2.123 . S
C3481 C177 0.720 . S
C3489 C1390 0.706 . S
C3521 C1635 1.170 . S
C3513 C192 1.197 . S
C3553 C1292 1.590 . S
C3545 C203 1.621 . S
C3585 C1040 1.953 . S
C3577 C242 1.948 . S
C3609 C179 1.196 . S
C3617 C1142 1.153 . S
C3649 C1222 0.815 . S
C3641 C190 0.816 . S
C3673 C205 1.618 . S
C3681 C1467 1.520 . S
C3713 C1558 1.341 . S
C3705 C286 1.339 . S
C3737 C122 1.950 . S
C3745 C711 1.921 . S
C3777 C799 2.174 . S
C3769 C130 2.300 . S
C3809 C872 0.566 . S
C3801 C148 0.636 . S
C3841 C1474 0.817 . S
C3833 C273 0.829 . S
C3865 C260 1.330 . S
C3873 C1642 1.366 . S
C3905 C627 2.154 . S
C3897 C135 2.191 . S
C3937 C452 0.634 . S
C3929 C109 0.593 . S
C3961 C86 1.829 . S
C3969 C1555 1.711 . S
C4001 C470 2.072 . S
C3993 C70 2.137 . S
C4025 C62 1.615 . S
C4033 C1639 1.542 . S
C4057 C91 1.447 . S
C4065 C622 1.380 . S
C4089 C36 1.493 . S
C4097 C1042 1.458 . S
C4129 C802 0.888 . S
C4121 C18 0.995 . S
C4153 C8 0.853 . S
C4161 C1226 0.831 . S
C4185 C39 1.436 . S
C4193 C967 1.244 . S
C4225 C1562 1.947 . S
C4217 C307 1.992 . S
C4249 C153 0.675 . S
C4257 C454 0.698 . S
C4289 C1646 1.121 . S
C4281 C281 1.155 . S
C4313 C127 1.584 . S
C4321 C631 1.481 . S
C4345 C309 2.032 . S
C4353 C1051 1.863 . S
C4385 C795 1.070 . S
C4377 C151 1.172 . S
C4409 C283 0.698 . S
C4417 C1210 0.730 . S
C4449 C974 1.416 . S
C4441 C125 1.537 . S
C4481 C1546 1.315 . S
C4473 C221 1.397 . S
C4513 C722 1.850 1_665 S
C4505 C200 1.884 . S
C4537 C208 2.246 . S
C4545 C1124 2.089 . S
C4577 C883 0.553 . S
C4569 C174 0.567 . S
C4601 C182 0.876 . S
C4609 C958 0.876 . S
C4633 C156 1.428 . S
C4641 C1630 1.361 1_554 S
C4673 C1310 2.079 . S
C4665 C213 2.100 1_565 S
C4705 C1387 0.640 . S
C4697 C252 0.553 . S
