# Generated by pormake.
# Topology gar, (4,6)-cn, num edge types: 1
# Building blocks:
#     Node 0, Type 0, BuildingBlock: QUQFOY_clean_sbu_3, # of connection points: 4
#     Node 1, Type 0, BuildingBlock: QUQFOY_clean_sbu_3, # of connection points: 4
#     Node 2, Type 0, BuildingBlock: QUQFOY_clean_sbu_3, # of connection points: 4
#     Node 3, Type 0, BuildingBlock: QUQFOY_clean_sbu_3, # of connection points: 4
#     Node 4, Type 0, BuildingBlock: QUQFOY_clean_sbu_3, # of connection points: 4
#     Node 5, Type 0, BuildingBlock: QUQFOY_clean_sbu_3, # of connection points: 4
#     Node 6, Type 0, BuildingBlock: QUQFOY_clean_sbu_3, # of connection points: 4
#     Node 7, Type 0, BuildingBlock: QUQFOY_clean_sbu_3, # of connection points: 4
#     Node 8, Type 0, BuildingBlock: QUQFOY_clean_sbu_3, # of connection points: 4
#     Node 9, Type 0, BuildingBlock: QUQFOY_clean_sbu_3, # of connection points: 4
#     Node 10, Type 0, BuildingBlock: QUQFOY_clean_sbu_3, # of connection points: 4
#     Node 11, Type 0, BuildingBlock: QUQFOY_clean_sbu_3, # of connection points: 4
#     Node 12, Type 0, BuildingBlock: QUQFOY_clean_sbu_3, # of connection points: 4
#     Node 13, Type 0, BuildingBlock: QUQFOY_clean_sbu_3, # of connection points: 4
#     Node 14, Type 0, BuildingBlock: QUQFOY_clean_sbu_3, # of connection points: 4
#     Node 15, Type 0, BuildingBlock: QUQFOY_clean_sbu_3, # of connection points: 4
#     Node 16, Type 0, BuildingBlock: QUQFOY_clean_sbu_3, # of connection points: 4
#     Node 17, Type 0, BuildingBlock: QUQFOY_clean_sbu_3, # of connection points: 4
#     Node 18, Type 0, BuildingBlock: QUQFOY_clean_sbu_3, # of connection points: 4
#     Node 19, Type 0, BuildingBlock: QUQFOY_clean_sbu_3, # of connection points: 4
#     Node 20, Type 0, BuildingBlock: QUQFOY_clean_sbu_3, # of connection points: 4
#     Node 21, Type 0, BuildingBlock: QUQFOY_clean_sbu_3, # of connection points: 4
#     Node 22, Type 0, BuildingBlock: QUQFOY_clean_sbu_3, # of connection points: 4
#     Node 23, Type 0, BuildingBlock: QUQFOY_clean_sbu_3, # of connection points: 4
#     Node 24, Type 1, BuildingBlock: BETDEL_clean_sbu_0, # of connection points: 6
#     Node 25, Type 1, BuildingBlock: BETDEL_clean_sbu_0, # of connection points: 6
#     Node 26, Type 1, BuildingBlock: BETDEL_clean_sbu_0, # of connection points: 6
#     Node 27, Type 1, BuildingBlock: BETDEL_clean_sbu_0, # of connection points: 6
#     Node 28, Type 1, BuildingBlock: BETDEL_clean_sbu_0, # of connection points: 6
#     Node 29, Type 1, BuildingBlock: BETDEL_clean_sbu_0, # of connection points: 6
#     Node 30, Type 1, BuildingBlock: BETDEL_clean_sbu_0, # of connection points: 6
#     Node 31, Type 1, BuildingBlock: BETDEL_clean_sbu_0, # of connection points: 6
#     Node 32, Type 1, BuildingBlock: BETDEL_clean_sbu_0, # of connection points: 6
#     Node 33, Type 1, BuildingBlock: BETDEL_clean_sbu_0, # of connection points: 6
#     Node 34, Type 1, BuildingBlock: BETDEL_clean_sbu_0, # of connection points: 6
#     Node 35, Type 1, BuildingBlock: BETDEL_clean_sbu_0, # of connection points: 6
#     Node 36, Type 1, BuildingBlock: BETDEL_clean_sbu_0, # of connection points: 6
#     Node 37, Type 1, BuildingBlock: BETDEL_clean_sbu_0, # of connection points: 6
#     Node 38, Type 1, BuildingBlock: BETDEL_clean_sbu_0, # of connection points: 6
#     Node 39, Type 1, BuildingBlock: BETDEL_clean_sbu_0, # of connection points: 6
#     Edge 40, Type (0, 1), BuildingBlock: ZUJKAS_clean_linker_0, # of connection points: 2
#     Edge 41, Type (0, 1), BuildingBlock: ZUJKAS_clean_linker_0, # of connection points: 2
#     Edge 42, Type (0, 1), BuildingBlock: ZUJKAS_clean_linker_0, # of connection points: 2
#     Edge 43, Type (0, 1), BuildingBlock: ZUJKAS_clean_linker_0, # of connection points: 2
#     Edge 44, Type (0, 1), BuildingBlock: ZUJKAS_clean_linker_0, # of connection points: 2
#     Edge 45, Type (0, 1), BuildingBlock: ZUJKAS_clean_linker_0, # of connection points: 2
#     Edge 46, Type (0, 1), BuildingBlock: ZUJKAS_clean_linker_0, # of connection points: 2
#     Edge 47, Type (0, 1), BuildingBlock: ZUJKAS_clean_linker_0, # of connection points: 2
#     Edge 48, Type (0, 1), BuildingBlock: ZUJKAS_clean_linker_0, # of connection points: 2
#     Edge 49, Type (0, 1), BuildingBlock: ZUJKAS_clean_linker_0, # of connection points: 2
#     Edge 50, Type (0, 1), BuildingBlock: ZUJKAS_clean_linker_0, # of connection points: 2
#     Edge 51, Type (0, 1), BuildingBlock: ZUJKAS_clean_linker_0, # of connection points: 2
#     Edge 52, Type (0, 1), BuildingBlock: ZUJKAS_clean_linker_0, # of connection points: 2
#     Edge 53, Type (0, 1), BuildingBlock: ZUJKAS_clean_linker_0, # of connection points: 2
#     Edge 54, Type (0, 1), BuildingBlock: ZUJKAS_clean_linker_0, # of connection points: 2
#     Edge 55, Type (0, 1), BuildingBlock: ZUJKAS_clean_linker_0, # of connection points: 2
#     Edge 56, Type (0, 1), BuildingBlock: ZUJKAS_clean_linker_0, # of connection points: 2
#     Edge 57, Type (0, 1), BuildingBlock: ZUJKAS_clean_linker_0, # of connection points: 2
#     Edge 58, Type (0, 1), BuildingBlock: ZUJKAS_clean_linker_0, # of connection points: 2
#     Edge 59, Type (0, 1), BuildingBlock: ZUJKAS_clean_linker_0, # of connection points: 2
#     Edge 60, Type (0, 1), BuildingBlock: ZUJKAS_clean_linker_0, # of connection points: 2
#     Edge 61, Type (0, 1), BuildingBlock: ZUJKAS_clean_linker_0, # of connection points: 2
#     Edge 62, Type (0, 1), BuildingBlock: ZUJKAS_clean_linker_0, # of connection points: 2
#     Edge 63, Type (0, 1), BuildingBlock: ZUJKAS_clean_linker_0, # of connection points: 2
#     Edge 64, Type (0, 1), BuildingBlock: ZUJKAS_clean_linker_0, # of connection points: 2
#     Edge 65, Type (0, 1), BuildingBlock: ZUJKAS_clean_linker_0, # of connection points: 2
#     Edge 66, Type (0, 1), BuildingBlock: ZUJKAS_clean_linker_0, # of connection points: 2
#     Edge 67, Type (0, 1), BuildingBlock: ZUJKAS_clean_linker_0, # of connection points: 2
#     Edge 68, Type (0, 1), BuildingBlock: ZUJKAS_clean_linker_0, # of connection points: 2
#     Edge 69, Type (0, 1), BuildingBlock: ZUJKAS_clean_linker_0, # of connection points: 2
#     Edge 70, Type (0, 1), BuildingBlock: ZUJKAS_clean_linker_0, # of connection points: 2
#     Edge 71, Type (0, 1), BuildingBlock: ZUJKAS_clean_linker_0, # of connection points: 2
#     Edge 72, Type (0, 1), BuildingBlock: ZUJKAS_clean_linker_0, # of connection points: 2
#     Edge 73, Type (0, 1), BuildingBlock: ZUJKAS_clean_linker_0, # of connection points: 2
#     Edge 74, Type (0, 1), BuildingBlock: ZUJKAS_clean_linker_0, # of connection points: 2
#     Edge 75, Type (0, 1), BuildingBlock: ZUJKAS_clean_linker_0, # of connection points: 2
#     Edge 76, Type (0, 1), BuildingBlock: ZUJKAS_clean_linker_0, # of connection points: 2
#     Edge 77, Type (0, 1), BuildingBlock: ZUJKAS_clean_linker_0, # of connection points: 2
#     Edge 78, Type (0, 1), BuildingBlock: ZUJKAS_clean_linker_0, # of connection points: 2
#     Edge 79, Type (0, 1), BuildingBlock: ZUJKAS_clean_linker_0, # of connection points: 2
#     Edge 80, Type (0, 1), BuildingBlock: ZUJKAS_clean_linker_0, # of connection points: 2
#     Edge 81, Type (0, 1), BuildingBlock: ZUJKAS_clean_linker_0, # of connection points: 2
#     Edge 82, Type (0, 1), BuildingBlock: ZUJKAS_clean_linker_0, # of connection points: 2
#     Edge 83, Type (0, 1), BuildingBlock: ZUJKAS_clean_linker_0, # of connection points: 2
#     Edge 84, Type (0, 1), BuildingBlock: ZUJKAS_clean_linker_0, # of connection points: 2
#     Edge 85, Type (0, 1), BuildingBlock: ZUJKAS_clean_linker_0, # of connection points: 2
#     Edge 86, Type (0, 1), BuildingBlock: ZUJKAS_clean_linker_0, # of connection points: 2
#     Edge 87, Type (0, 1), BuildingBlock: ZUJKAS_clean_linker_0, # of connection points: 2
#     Edge 88, Type (0, 1), BuildingBlock: ZUJKAS_clean_linker_0, # of connection points: 2
#     Edge 89, Type (0, 1), BuildingBlock: ZUJKAS_clean_linker_0, # of connection points: 2
#     Edge 90, Type (0, 1), BuildingBlock: ZUJKAS_clean_linker_0, # of connection points: 2
#     Edge 91, Type (0, 1), BuildingBlock: ZUJKAS_clean_linker_0, # of connection points: 2
#     Edge 92, Type (0, 1), BuildingBlock: ZUJKAS_clean_linker_0, # of connection points: 2
#     Edge 93, Type (0, 1), BuildingBlock: ZUJKAS_clean_linker_0, # of connection points: 2
#     Edge 94, Type (0, 1), BuildingBlock: ZUJKAS_clean_linker_0, # of connection points: 2
#     Edge 95, Type (0, 1), BuildingBlock: ZUJKAS_clean_linker_0, # of connection points: 2
#     Edge 96, Type (0, 1), BuildingBlock: ZUJKAS_clean_linker_0, # of connection points: 2
#     Edge 97, Type (0, 1), BuildingBlock: ZUJKAS_clean_linker_0, # of connection points: 2
#     Edge 98, Type (0, 1), BuildingBlock: ZUJKAS_clean_linker_0, # of connection points: 2
#     Edge 99, Type (0, 1), BuildingBlock: ZUJKAS_clean_linker_0, # of connection points: 2
#     Edge 100, Type (0, 1), BuildingBlock: ZUJKAS_clean_linker_0, # of connection points: 2
#     Edge 101, Type (0, 1), BuildingBlock: ZUJKAS_clean_linker_0, # of connection points: 2
#     Edge 102, Type (0, 1), BuildingBlock: ZUJKAS_clean_linker_0, # of connection points: 2
#     Edge 103, Type (0, 1), BuildingBlock: ZUJKAS_clean_linker_0, # of connection points: 2
#     Edge 104, Type (0, 1), BuildingBlock: ZUJKAS_clean_linker_0, # of connection points: 2
#     Edge 105, Type (0, 1), BuildingBlock: ZUJKAS_clean_linker_0, # of connection points: 2
#     Edge 106, Type (0, 1), BuildingBlock: ZUJKAS_clean_linker_0, # of connection points: 2
#     Edge 107, Type (0, 1), BuildingBlock: ZUJKAS_clean_linker_0, # of connection points: 2
#     Edge 108, Type (0, 1), BuildingBlock: ZUJKAS_clean_linker_0, # of connection points: 2
#     Edge 109, Type (0, 1), BuildingBlock: ZUJKAS_clean_linker_0, # of connection points: 2
#     Edge 110, Type (0, 1), BuildingBlock: ZUJKAS_clean_linker_0, # of connection points: 2
#     Edge 111, Type (0, 1), BuildingBlock: ZUJKAS_clean_linker_0, # of connection points: 2
#     Edge 112, Type (0, 1), BuildingBlock: ZUJKAS_clean_linker_0, # of connection points: 2
#     Edge 113, Type (0, 1), BuildingBlock: ZUJKAS_clean_linker_0, # of connection points: 2
#     Edge 114, Type (0, 1), BuildingBlock: ZUJKAS_clean_linker_0, # of connection points: 2
#     Edge 115, Type (0, 1), BuildingBlock: ZUJKAS_clean_linker_0, # of connection points: 2
#     Edge 116, Type (0, 1), BuildingBlock: ZUJKAS_clean_linker_0, # of connection points: 2
#     Edge 117, Type (0, 1), BuildingBlock: ZUJKAS_clean_linker_0, # of connection points: 2
#     Edge 118, Type (0, 1), BuildingBlock: ZUJKAS_clean_linker_0, # of connection points: 2
#     Edge 119, Type (0, 1), BuildingBlock: ZUJKAS_clean_linker_0, # of connection points: 2
#     Edge 120, Type (0, 1), BuildingBlock: ZUJKAS_clean_linker_0, # of connection points: 2
#     Edge 121, Type (0, 1), BuildingBlock: ZUJKAS_clean_linker_0, # of connection points: 2
#     Edge 122, Type (0, 1), BuildingBlock: ZUJKAS_clean_linker_0, # of connection points: 2
#     Edge 123, Type (0, 1), BuildingBlock: ZUJKAS_clean_linker_0, # of connection points: 2
#     Edge 124, Type (0, 1), BuildingBlock: ZUJKAS_clean_linker_0, # of connection points: 2
#     Edge 125, Type (0, 1), BuildingBlock: ZUJKAS_clean_linker_0, # of connection points: 2
#     Edge 126, Type (0, 1), BuildingBlock: ZUJKAS_clean_linker_0, # of connection points: 2
#     Edge 127, Type (0, 1), BuildingBlock: ZUJKAS_clean_linker_0, # of connection points: 2
#     Edge 128, Type (0, 1), BuildingBlock: ZUJKAS_clean_linker_0, # of connection points: 2
#     Edge 129, Type (0, 1), BuildingBlock: ZUJKAS_clean_linker_0, # of connection points: 2
#     Edge 130, Type (0, 1), BuildingBlock: ZUJKAS_clean_linker_0, # of connection points: 2
#     Edge 131, Type (0, 1), BuildingBlock: ZUJKAS_clean_linker_0, # of connection points: 2
#     Edge 132, Type (0, 1), BuildingBlock: ZUJKAS_clean_linker_0, # of connection points: 2
#     Edge 133, Type (0, 1), BuildingBlock: ZUJKAS_clean_linker_0, # of connection points: 2
#     Edge 134, Type (0, 1), BuildingBlock: ZUJKAS_clean_linker_0, # of connection points: 2
#     Edge 135, Type (0, 1), BuildingBlock: ZUJKAS_clean_linker_0, # of connection points: 2
# Relax obj value: 0.136
# Max RMSD: 0.263
# Mean RMSD: 0.138
data_MOF--net-gar--node1-QUQFOY_clean_sbu_3--node2-BETDEL_clean_sbu_0--edge1-ZUJKAS_clean_linker_0
_symmetry_space_group_name_H-M    P1
_symmetry_Int_Tables_number       1
_symmetry_cell_setting            triclinic
loop_
_symmetry_equiv_pos_as_xyz
'x, y, z'
_cell_length_a     72.022439
_cell_length_b     70.471859
_cell_length_c     71.329095
_cell_angle_alpha  96.074903
_cell_angle_beta   92.479336
_cell_angle_gamma 100.46812
loop_
_atom_site_label
_atom_site_type_symbol
_atom_site_fract_x
_atom_site_fract_y
_atom_site_fract_z
_atom_type_partial_charge
C0 C 0.99104 0.27179 0.3644 0.0
O1 O 0.0032 0.27979 0.3539 0.0
Cd2 Cd 0.03653 0.28446 0.35994 0.0
O3 O -0.00374 0.26439 0.37888 0.0
Cd4 Cd 0.02681 0.25972 0.39444 0.0
C5 C 0.0382 0.3087 0.40471 0.0
O6 O 0.04278 0.25348 0.36571 0.0
O7 O 0.06093 0.26003 0.3912 0.0
O8 O 0.01138 0.22684 0.39916 0.0
C9 C 0.0591 0.25471 0.37356 0.0
O10 O 0.04205 0.30905 0.38747 0.0
C11 C 0.01708 0.22795 0.41641 0.0
O12 O 0.03166 0.2927 0.41097 0.0
O13 O 0.02696 0.24407 0.42367 0.0
C14 C 0.97333 0.76389 0.66227 0.0
O15 O 0.98407 0.75418 0.67006 0.0
Cd16 Cd 0.01087 0.74403 0.65625 0.0
O17 O 0.9767 0.76947 0.6461 0.0
Cd18 Cd 0.00105 0.76779 0.6223 0.0
C19 C 0.98953 0.71869 0.61451 0.0
O20 O 0.02856 0.77172 0.64456 0.0
O21 O 0.03319 0.76276 0.61563 0.0
O22 O -0.00015 0.80149 0.618 0.0
C23 C 0.04005 0.76769 0.63246 0.0
O24 O -0.00151 0.71879 0.63033 0.0
C25 C -0.0022 0.7988 0.60009 0.0
O26 O 0.98693 0.73452 0.6086 0.0
O27 O -0.00306 0.78152 0.59241 0.0
C28 C 0.48787 0.77569 0.86512 0.0
O29 O 0.49918 0.7834 0.8537 0.0
Cd30 Cd 0.53286 0.78759 0.85731 0.0
O31 O 0.49409 0.76837 0.8792 0.0
Cd32 Cd 0.52534 0.76328 0.89254 0.0
C33 C 0.53874 0.81226 0.90198 0.0
O34 O 0.53971 0.75656 0.86273 0.0
O35 O 0.55876 0.76214 0.88761 0.0
O36 O 0.51027 0.73102 0.89977 0.0
C37 C 0.55624 0.75728 0.86993 0.0
O38 O 0.54103 0.81267 0.88441 0.0
C39 C 0.51659 0.73351 0.91694 0.0
O40 O 0.53251 0.79633 0.90847 0.0
O41 O 0.52684 0.7499 0.92277 0.0
C42 C 0.47344 0.27127 0.15816 0.0
O43 O 0.48409 0.26154 0.16608 0.0
Cd44 Cd 0.51183 0.25208 0.15416 0.0
O45 O 0.47725 0.27745 0.14229 0.0
Cd46 Cd 0.50245 0.27727 0.11911 0.0
C47 C 0.49289 0.22777 0.11081 0.0
O48 O 0.52783 0.28062 0.14293 0.0
O49 O 0.53618 0.2754 0.11464 0.0
O50 O 0.50073 0.3109 0.11499 0.0
C51 C 0.5409 0.27818 0.13218 0.0
O52 O 0.5004 0.22769 0.12731 0.0
C53 C 0.49858 0.30825 0.09708 0.0
O54 O 0.49095 0.24368 0.10461 0.0
O55 O 0.49798 0.29105 0.08931 0.0
C56 C -0.00403 0.78197 0.17361 0.0
O57 O 0.00828 0.7748 0.18238 0.0
Cd58 Cd 0.0399 0.77502 0.17323 0.0
O59 O -0.00022 0.78962 0.15847 0.0
Cd60 Cd 0.02695 0.79559 0.13819 0.0
C61 C 0.03079 0.7482 0.12987 0.0
O62 O 0.04999 0.80684 0.16436 0.0
O63 O 0.06184 0.80333 0.13741 0.0
O64 O 0.01635 0.82503 0.13095 0.0
C65 C 0.06459 0.80853 0.15501 0.0
O66 O 0.03822 0.74976 0.14662 0.0
C67 C 0.01709 0.8216 0.11319 0.0
O68 O 0.0242 0.76216 0.12385 0.0
O69 O 0.02217 0.80588 0.10706 0.0
C70 C 0.46343 0.7573 0.34564 0.0
O71 O 0.47552 0.76747 0.33656 0.0
Cd72 Cd 0.50769 0.77889 0.34692 0.0
O73 O 0.46814 0.75198 0.36145 0.0
Cd74 Cd 0.49798 0.75494 0.3816 0.0
C75 C 0.50194 0.80384 0.3896 0.0
O76 O 0.51656 0.74958 0.35489 0.0
O77 O 0.53286 0.75731 0.38142 0.0
O78 O 0.48528 0.72218 0.38856 0.0
C79 C 0.5324 0.75171 0.3639 0.0
O80 O 0.50707 0.80448 0.37279 0.0
C81 C 0.4904 0.72537 0.40604 0.0
O82 O 0.49728 0.78763 0.39609 0.0
O83 O 0.4985 0.74255 0.41229 0.0
C84 C 0.49708 0.28785 0.67886 0.0
O85 O 0.50895 0.28057 0.68813 0.0
Cd86 Cd 0.54061 0.2798 0.67954 0.0
O87 O 0.50138 0.29492 0.66354 0.0
Cd88 Cd 0.52894 0.29928 0.64358 0.0
C89 C 0.53177 0.25134 0.63712 0.0
O90 O 0.55175 0.3112 0.66995 0.0
O91 O 0.56383 0.30602 0.64325 0.0
O92 O 0.52084 0.32936 0.6348 0.0
C93 C 0.5664 0.31229 0.66067 0.0
O94 O 0.53884 0.25328 0.65404 0.0
C95 C 0.51957 0.32419 0.61713 0.0
O96 O 0.52585 0.26535 0.63042 0.0
O97 O 0.52261 0.30734 0.61173 0.0
C98 C 0.96328 0.26236 0.84357 0.0
O99 O 0.97573 0.27397 0.83622 0.0
Cd100 Cd 0.00821 0.28307 0.84634 0.0
O101 O 0.9676 0.25431 0.85796 0.0
Cd102 Cd -0.00269 0.25519 0.87786 0.0
C103 C 0.00285 0.30389 0.89062 0.0
O104 O 0.01591 0.25215 0.85069 0.0
O105 O 0.03205 0.25697 0.87739 0.0
O106 O 0.98554 0.22162 0.88375 0.0
C107 C 0.03158 0.25286 0.85963 0.0
O108 O 0.00866 0.3064 0.87431 0.0
C109 C 0.99018 0.22467 0.90135 0.0
O110 O -0.00274 0.28687 0.89503 0.0
O111 O -0.00257 0.24199 0.90797 0.0
C112 C 0.43288 0.03952 0.31282 0.0
O113 O 0.44104 0.02811 0.30255 0.0
Cd114 Cd 0.43291 0.01643 0.27012 0.0
O115 O 0.4183 0.04519 0.30634 0.0
Cd116 Cd 0.39925 0.03833 0.27564 0.0
C117 C 0.38976 0.98929 0.27432 0.0
O118 O 0.42641 0.04446 0.25671 0.0
O119 O 0.39993 0.03287 0.24093 0.0
O120 O 0.38974 0.06994 0.28087 0.0
C121 C 0.41732 0.04025 0.24082 0.0
O122 O 0.4063 0.98918 0.26877 0.0
C123 C 0.37223 0.06321 0.27707 0.0
O124 O 0.38448 0.00524 0.27921 0.0
O125 O 0.36739 0.04495 0.27316 0.0
C126 C 0.27784 0.10684 0.48888 0.0
O127 O 0.26375 0.09646 0.49526 0.0
Cd128 Cd 0.23463 0.10653 0.50178 0.0
O129 O 0.27695 0.12372 0.48439 0.0
Cd130 Cd 0.25283 0.14495 0.48215 0.0
C131 C 0.251 0.15021 0.52984 0.0
O132 O 0.22635 0.11882 0.47355 0.0
O133 O 0.21863 0.1466 0.48056 0.0
O134 O 0.26376 0.1515 0.45124 0.0
C135 C 0.21334 0.12863 0.47514 0.0
O136 O 0.24216 0.13265 0.52804 0.0
C137 C 0.26612 0.16987 0.45451 0.0
O138 O 0.2573 0.15812 0.51554 0.0
O139 O 0.26258 0.17678 0.47087 0.0
C140 C 0.09882 0.00523 0.80381 0.0
O141 O 0.09141 0.01489 0.79247 0.0
Cd142 Cd 0.10185 0.02258 0.76244 0.0
O143 O 0.11344 -0.00184 0.79964 0.0
Cd144 Cd 0.13468 -0.00239 0.7727 0.0
C145 C 0.1468 0.04713 0.77727 0.0
O146 O 0.1099 0.9936 0.74779 0.0
O147 O 0.13809 -0.00108 0.73841 0.0
O148 O 0.1377 0.96416 0.77653 0.0
C149 C 0.12045 -0.00422 0.73416 0.0
O150 O 0.13027 0.04724 0.7702 0.0
C151 C 0.15566 0.96757 0.77826 0.0
O152 O 0.15176 0.03126 0.78056 0.0
O153 O 0.16387 0.98504 0.77768 0.0
C154 C 0.27103 0.92028 -0.0029 0.0
O155 O 0.26211 0.9294 0.98642 0.0
Cd156 Cd 0.22867 0.92369 0.98032 0.0
O157 O 0.26226 0.9066 0.00556 0.0
Cd158 Cd 0.2293 0.88974 0.0086 0.0
C159 C 0.22286 0.87612 0.96101 0.0
O160 O 0.21893 0.92009 0.01144 0.0
O161 O 0.19649 0.89567 0.01252 0.0
O162 O 0.24072 0.88474 0.04 0.0
C163 C 0.20163 0.91394 0.01334 0.0
O164 O 0.22232 0.89368 0.95866 0.0
C165 C 0.23274 0.86699 0.0388 0.0
O166 O 0.22576 0.8713 0.97742 0.0
O167 O 0.2231 0.85987 0.02353 0.0
C168 C 0.27862 0.41674 0.01446 0.0
O169 O 0.26741 0.42463 0.00499 0.0
Cd170 Cd 0.23409 0.41429 0.00109 0.0
O171 O 0.27232 0.40206 0.02297 0.0
Cd172 Cd 0.24062 0.38163 0.02664 0.0
C173 C 0.23477 0.36894 0.97905 0.0
O174 O 0.22519 0.40923 0.03225 0.0
O175 O 0.20606 0.38178 0.02771 0.0
O176 O 0.25259 0.37815 0.05851 0.0
C177 C 0.20846 0.39997 0.03233 0.0
O178 O 0.23035 0.38551 0.97808 0.0
C179 C 0.24559 0.3602 0.05791 0.0
O180 O 0.24009 0.3641 -0.00516 0.0
O181 O 0.2368 0.35201 0.04251 0.0
C182 C 0.78793 0.11398 0.01713 0.0
O183 O 0.7732 0.10682 0.025 0.0
Cd184 Cd 0.74621 0.1215 0.02839 0.0
O185 O 0.78934 0.13042 0.01079 0.0
Cd186 Cd 0.76955 0.15569 0.00862 0.0
C187 C 0.76594 0.16397 0.05563 0.0
O188 O 0.74183 0.13189 -0.00202 0.0
O189 O 0.73632 0.16066 0.00461 0.0
O190 O 0.78421 0.16229 0.9793 0.0
C191 C 0.73009 0.14317 -0.00209 0.0
O192 O 0.75432 0.14787 0.05416 0.0
C193 C 0.78609 0.18062 0.98252 0.0
O194 O 0.77453 0.16962 0.04143 0.0
O195 O 0.78101 0.18735 -0.00171 0.0
C196 C 0.07801 0.49533 0.26138 0.0
O197 O 0.07037 0.50106 0.24717 0.0
Cd198 Cd 0.08356 0.5016 0.21709 0.0
O199 O 0.09378 0.48958 0.26033 0.0
Cd200 Cd 0.11724 0.48543 0.23659 0.0
C201 C 0.12491 0.53321 0.23016 0.0
O202 O 0.09334 0.47063 0.21255 0.0
O203 O 0.12114 0.47677 0.2024 0.0
O204 O 0.12578 0.4596 0.25358 0.0
C205 C 0.10381 0.46925 0.19892 0.0
O206 O 0.10911 0.53037 0.22059 0.0
C207 C 0.14349 0.46558 0.25314 0.0
O208 O 0.13017 0.51954 0.23799 0.0
O209 O 0.14873 0.48063 0.24499 0.0
C210 C 0.77576 0.92232 0.51863 0.0
O211 O 0.76413 0.92994 0.50941 0.0
Cd212 Cd 0.73153 0.91705 0.50302 0.0
O213 O 0.7703 0.9065 0.52578 0.0
Cd214 Cd 0.73954 0.88351 0.52805 0.0
C215 C 0.73634 0.87282 0.48013 0.0
O216 O 0.72297 0.90989 0.53363 0.0
O217 O 0.70443 0.88217 0.52886 0.0
O218 O 0.75148 0.87959 0.55984 0.0
C219 C 0.70637 0.90033 0.53343 0.0
O220 O 0.73139 0.88919 0.47941 0.0
C221 C 0.7451 0.86145 0.55875 0.0
O222 O 0.74083 0.86742 0.49593 0.0
O223 O 0.7367 0.8534 0.54312 0.0
C224 C 0.90274 0.01826 0.26928 0.0
O225 O 0.91246 0.01176 0.25651 0.0
Cd226 Cd 0.90537 0.01057 0.22339 0.0
O227 O 0.88859 0.02586 0.26493 0.0
Cd228 Cd 0.87225 0.03311 0.23552 0.0
C229 C 0.86015 0.98445 0.22252 0.0
O230 O 0.90019 0.04217 0.21812 0.0
O231 O 0.87376 0.03728 0.20156 0.0
O232 O 0.86823 0.06416 0.25216 0.0
C233 C 0.8916 0.04254 0.20234 0.0
O234 O 0.87713 0.98505 0.21794 0.0
C235 C 0.85065 0.06196 0.24765 0.0
O236 O 0.85484 -0.00032 0.2299 0.0
O237 O 0.84305 0.0462 0.23773 0.0
C238 C 0.28952 0.60967 0.52385 0.0
O239 O 0.27606 0.60258 0.53346 0.0
Cd240 Cd 0.24817 0.61572 0.53857 0.0
O241 O 0.28933 0.62547 0.51667 0.0
Cd242 Cd 0.26807 0.64946 0.51575 0.0
C243 C 0.26689 0.65977 0.56312 0.0
O244 O 0.24012 0.62459 0.50841 0.0
O245 O 0.23474 0.65371 0.51298 0.0
O246 O 0.27776 0.65469 0.48418 0.0
C247 C 0.22832 0.63582 0.50819 0.0
O248 O 0.25594 0.64337 0.56278 0.0
C249 C 0.28086 0.6731 0.48712 0.0
O250 O 0.27459 0.66496 0.54829 0.0
O251 O 0.279 0.68056 0.50377 0.0
C252 C 0.39781 0.51156 0.76324 0.0
O253 O 0.40632 0.50345 0.75034 0.0
Cd254 Cd 0.40033 0.50293 0.71705 0.0
O255 O 0.3847 0.52069 0.75908 0.0
Cd256 Cd 0.3683 0.52699 0.72935 0.0
C257 C 0.35496 0.47829 0.71627 0.0
O258 O 0.3964 0.53486 0.71185 0.0
O259 O 0.36993 0.53026 0.69536 0.0
O260 O 0.36458 0.55871 0.74475 0.0
C261 C 0.38778 0.53523 0.69608 0.0
O262 O 0.37147 0.47856 0.71048 0.0
C263 C 0.34714 0.55672 0.7397 0.0
O264 O 0.35053 0.49351 0.72479 0.0
O265 O 0.33944 0.54067 0.73033 0.0
C266 C 0.5744 0.98914 0.76389 0.0
O267 O 0.56569 -0.00517 0.75032 0.0
Cd268 Cd 0.57788 -0.00115 0.72018 0.0
O269 O 0.5908 0.98499 0.76203 0.0
Cd270 Cd 0.61359 0.9844 0.73686 0.0
C271 C 0.61741 0.03282 0.7342 0.0
O272 O 0.58988 0.96956 0.71233 0.0
O273 O 0.61704 0.98032 0.70227 0.0
O274 O 0.62503 0.9569 0.74843 0.0
C275 C 0.60035 0.97079 0.6986 0.0
O276 O 0.60141 0.02929 0.72494 0.0
C277 C 0.64235 0.96509 0.74956 0.0
O278 O 0.6241 0.0192 0.74073 0.0
O279 O 0.6461 0.98221 0.74497 0.0
C280 C 0.78219 0.61069 0.99344 0.0
O281 O 0.76897 0.60027 0.00103 0.0
Cd282 Cd 0.73816 0.60663 0.00556 0.0
O283 O 0.77968 0.62634 0.98698 0.0
Cd284 Cd 0.75335 0.64489 0.98328 0.0
C285 C 0.74995 0.65222 0.03103 0.0
O286 O 0.73014 0.61576 0.97568 0.0
O287 O 0.71833 0.64166 0.9784 0.0
O288 O 0.7645 0.65171 0.9524 0.0
C289 C 0.71558 0.62332 0.97485 0.0
O290 O 0.74315 0.63413 0.03023 0.0
C291 C 0.76484 0.66987 0.95505 0.0
O292 O 0.75529 0.65986 0.01627 0.0
O293 O 0.76019 0.67656 0.97106 0.0
C294 C 0.93207 0.53096 0.79908 0.0
O295 O 0.94123 0.52374 0.78619 0.0
Cd296 Cd 0.93272 0.51873 0.75331 0.0
O297 O 0.91649 0.53632 0.79509 0.0
Cd298 Cd 0.89674 0.53723 0.76568 0.0
C299 C 0.89026 0.48806 0.75417 0.0
O300 O 0.92397 0.54917 0.74914 0.0
O301 O 0.89799 0.54302 0.73187 0.0
O302 O 0.88679 0.56651 0.77999 0.0
C303 C 0.91559 0.54982 0.7334 0.0
O304 O 0.90727 0.49012 0.74937 0.0
C305 C 0.86933 0.56051 0.77523 0.0
O306 O 0.88358 0.50263 0.76098 0.0
O307 O 0.86465 0.54345 0.7667 0.0
C308 C 0.76966 0.41656 0.49747 0.0
O309 O 0.76076 0.42695 0.48826 0.0
Cd310 Cd 0.72726 0.42436 0.48615 0.0
O311 O 0.7608 0.40334 0.50641 0.0
Cd312 Cd 0.72743 0.38995 0.51188 0.0
C313 C 0.71588 0.37791 0.46482 0.0
O314 O 0.72 0.42188 0.5185 0.0
O315 O 0.69628 0.39835 0.51807 0.0
O316 O 0.7396 0.38055 0.54132 0.0
C317 C 0.70274 0.41643 0.52122 0.0
O318 O 0.71619 0.39575 0.46305 0.0
C319 C 0.72933 0.36368 0.53916 0.0
O320 O 0.72011 0.37268 0.4807 0.0
O321 O 0.71823 0.35925 0.52442 0.0
C322 C 0.5989 0.50359 0.29791 0.0
O323 O 0.59066 0.51264 0.28662 0.0
Cd324 Cd 0.60163 0.52341 0.25782 0.0
O325 O 0.61449 0.4983 0.29403 0.0
Cd326 Cd 0.63578 0.49936 0.267 0.0
C327 C 0.64629 0.54877 0.27393 0.0
O328 O 0.61144 0.49622 0.24184 0.0
O329 O 0.63981 0.5037 0.23331 0.0
O330 O 0.63886 0.46547 0.26753 0.0
C331 C 0.62223 0.50012 0.22868 0.0
O332 O 0.62956 0.54847 0.26715 0.0
C333 C 0.65678 0.46884 0.26996 0.0
O334 O 0.65203 0.53304 0.27631 0.0
O335 O 0.66501 0.48654 0.27151 0.0
Dy336 Dy 0.97791 0.01387 -0.00039 0.0
C337 C 0.05845 0.02741 0.01428 0.0
C338 C 0.93984 0.01218 -0.00232 0.0
Dy339 Dy 0.02045 0.02615 0.01075 0.0
O340 O 0.95023 0.01248 0.98324 0.0
O341 O 0.95024 0.01241 0.01305 0.0
O342 O 0.98411 0.99434 0.97462 0.0
O343 O 0.00328 0.02019 0.9843 0.0
C344 C 0.00066 0.00487 0.97291 0.0
C345 C -0.00245 0.03485 0.0375 0.0
O346 O 0.01632 0.05311 -0.00113 0.0
O347 O 0.98349 0.04629 -0.00116 0.0
O348 O 0.04738 0.02723 0.02816 0.0
O349 O 0.0488 0.02742 -0.00152 0.0
O350 O 0.01399 0.04555 0.03578 0.0
O351 O -0.00488 0.01964 0.026 0.0
O352 O 0.98208 0.98693 0.01132 0.0
O353 O 0.01486 0.9936 0.0108 0.0
C354 C -0.00039 0.05827 -0.00311 0.0
C355 C -0.00126 0.98163 0.01286 0.0
Dy356 Dy 0.25346 0.76361 0.23937 0.0
C357 C 0.25561 0.76057 0.3204 0.0
C358 C 0.24917 0.76932 0.20242 0.0
Dy359 Dy 0.25035 0.76529 0.28326 0.0
O360 O 0.26528 0.76954 0.21145 0.0
O361 O 0.23546 0.76575 0.2135 0.0
O362 O 0.27692 0.7465 0.24132 0.0
O363 O 0.27282 0.76668 0.26394 0.0
C364 C 0.28196 0.75366 0.25877 0.0
C365 C 0.22208 0.77553 0.26392 0.0
O366 O 0.2653 0.79557 0.2817 0.0
O367 O 0.26037 0.79565 0.24918 0.0
O368 O 0.23948 0.7557 0.31058 0.0
O369 O 0.26865 0.76813 0.30999 0.0
O370 O 0.22706 0.78262 0.2814 0.0
O371 O 0.23105 0.76238 0.25877 0.0
O372 O 0.23821 0.73359 0.24076 0.0
O373 O 0.2444 0.73315 0.27308 0.0
C374 C 0.2661 0.80467 0.26632 0.0
C375 C 0.23814 0.72428 0.25596 0.0
Dy376 Dy 0.52733 0.02399 0.51931 0.0
C377 C 0.44948 0.03314 0.507 0.0
C378 C 0.56028 0.01276 0.52934 0.0
Dy379 Dy 0.48383 0.02382 0.51472 0.0
O380 O 0.55777 0.02199 0.51485 0.0
O381 O 0.54503 0.01025 0.53847 0.0
O382 O 0.53218 0.04417 0.49665 0.0
O383 O 0.50687 0.02378 0.49631 0.0
C384 C 0.51527 0.03784 0.48862 0.0
C385 C 0.49585 0.00946 0.54508 0.0
O386 O 0.48363 -0.00521 0.49876 0.0
O387 O 0.51458 0.99294 0.5084 0.0
O388 O 0.45706 0.03293 0.52381 0.0
O389 O 0.46049 0.02784 0.4943 0.0
O390 O 0.47917 0.00294 0.53665 0.0
O391 O 0.50421 0.02385 0.53776 0.0
O392 O 0.52683 0.05234 0.53594 0.0
O393 O 0.49757 0.05537 0.52253 0.0
C394 C 0.49768 0.98504 0.50002 0.0
C395 C 0.5137 0.06279 0.53269 0.0
Dy396 Dy 0.2347 0.25783 0.75403 0.0
C397 C 0.31536 0.2793 0.75303 0.0
C398 C 0.19758 0.24532 0.75984 0.0
Dy399 Dy 0.27825 0.26592 0.75835 0.0
O400 O 0.20399 0.25981 0.7506 0.0
O401 O 0.21142 0.23739 0.7655 0.0
O402 O 0.23564 0.2824 0.73629 0.0
O403 O 0.25671 0.28375 0.75806 0.0
C404 C 0.25162 0.29196 0.74439 0.0
C405 C 0.26123 0.2315 0.76753 0.0
O406 O 0.27291 0.28054 0.78643 0.0
O407 O 0.24093 0.26686 0.78526 0.0
O408 O 0.3092 0.26524 0.76289 0.0
O409 O 0.30126 0.2862 0.74631 0.0
O410 O 0.27733 0.24077 0.7756 0.0
O411 O 0.25629 0.24011 0.75414 0.0
O412 O 0.23986 0.24295 0.72612 0.0
O413 O 0.27195 0.25635 0.72706 0.0
C414 C 0.25668 0.27667 0.79464 0.0
C415 C 0.25605 0.2466 0.7178 0.0
Dy416 Dy 0.99053 0.00252 0.48547 0.0
C417 C 0.03195 0.02748 0.55989 0.0
C418 C 0.96458 0.99206 0.45565 0.0
Dy419 Dy 0.00945 0.01993 0.52719 0.0
O420 O 0.98001 0.98506 0.45767 0.0
O421 O 0.96309 0.00428 0.47027 0.0
O422 O 0.01747 0.00925 0.4699 0.0
O423 O 0.01744 0.01574 0.49871 0.0
C424 C 0.02777 0.01725 0.48509 0.0
C425 C 0.97161 0.01153 0.52265 0.0
O426 O 0.01041 0.04727 0.51374 0.0
O427 O 0.98796 0.03412 0.48885 0.0
O428 O 0.0137 0.02616 0.55879 0.0
O429 O 0.03799 0.02513 0.54305 0.0
O430 O 0.98068 0.02528 0.53513 0.0
O431 O 0.98307 0.00242 0.51463 0.0
O432 O 0.99289 0.97486 0.49749 0.0
O433 O 0.01137 0.98817 0.52529 0.0
C434 C -0.00107 0.04918 0.49922 0.0
C435 C 0.00298 0.97308 0.51309 0.0
Dy436 Dy 0.27289 0.77293 0.78037 0.0
C437 C 0.21291 0.74528 0.72056 0.0
C438 C 0.29941 0.78515 0.80977 0.0
Dy439 Dy 0.2385 0.75719 0.75079 0.0
O440 O 0.29843 0.79353 0.79446 0.0
O441 O 0.28541 0.77056 0.80926 0.0
O442 O 0.29308 0.76826 0.75801 0.0
O443 O 0.26667 0.77458 0.75045 0.0
C444 C 0.28141 0.76973 0.74412 0.0
C445 C 0.23004 0.76057 0.78703 0.0
O446 O 0.25358 0.73185 0.74965 0.0
O447 O 0.27276 0.74103 0.77749 0.0
O448 O 0.21182 0.73838 0.73676 0.0
O449 O 0.22824 0.75825 0.72079 0.0
O450 O 0.21833 0.76201 0.77313 0.0
O451 O 0.24473 0.75562 0.78069 0.0
O452 O 0.25706 0.79772 0.78232 0.0
O453 O 0.2386 0.78911 0.75398 0.0
C454 C 0.2656 0.72817 0.76285 0.0
C455 C 0.24527 0.80165 0.76903 0.0
Dy456 Dy 0.50889 0.0192 0.02868 0.0
C457 C 0.50506 0.00528 0.94771 0.0
C458 C 0.5061 0.02753 0.06644 0.0
Dy459 Dy 0.50219 0.01523 0.98521 0.0
O460 O 0.50775 0.01068 0.05811 0.0
O461 O 0.50626 0.03989 0.05418 0.0
O462 O 0.52847 -0.00223 0.02572 0.0
O463 O 0.50529 -0.00448 0.00602 0.0
C464 C 0.51987 0.98881 0.00994 0.0
C465 C 0.49161 0.04597 0.00398 0.0
O466 O 0.47554 -0.00336 0.99188 0.0
O467 O 0.47744 0.00852 0.02371 0.0
O468 O 0.49723 0.01946 0.9547 0.0
O469 O 0.5112 -0.00342 0.96117 0.0
O470 O 0.48313 0.03736 0.98802 0.0
O471 O 0.50589 0.03882 0.00782 0.0
O472 O 0.53604 0.03727 0.02242 0.0
O473 O 0.53319 0.02855 0.98983 0.0
C474 C 0.46792 -0.00158 0.00839 0.0
C475 C 0.54305 0.03734 0.00554 0.0
Dy476 Dy 0.26628 0.29268 0.26548 0.0
C477 C 0.26739 0.21172 0.25855 0.0
C478 C 0.2616 0.33025 0.26735 0.0
Dy479 Dy 0.26176 0.24844 0.25569 0.0
O480 O 0.2677 0.32223 0.28137 0.0
O481 O 0.25833 0.31781 0.25227 0.0
O482 O 0.28459 0.29097 0.29138 0.0
O483 O 0.26241 0.26791 0.2814 0.0
C484 C 0.27618 0.27341 0.29341 0.0
C485 C 0.25186 0.26731 0.22738 0.0
O486 O 0.23384 0.24905 0.26773 0.0
O487 O 0.23493 0.28221 0.26756 0.0
O488 O 0.25873 0.2169 0.24408 0.0
O489 O 0.27287 0.22653 0.2712 0.0
O490 O 0.24421 0.24937 0.22903 0.0
O491 O 0.26534 0.27315 0.23968 0.0
O492 O 0.29405 0.2924 0.25293 0.0
O493 O 0.29279 0.25907 0.25199 0.0
C494 C 0.22572 0.26452 0.26974 0.0
C495 C 0.30201 0.27687 0.25015 0.0
Dy496 Dy 0.49069 0.51474 0.98691 0.0
C497 C 0.5346 0.5393 0.05792 0.0
C498 C 0.47079 0.5106 0.95289 0.0
Dy499 Dy 0.50981 0.5278 0.02724 0.0
O500 O 0.48644 0.52276 0.9578 0.0
O501 O 0.46586 0.50029 0.96661 0.0
O502 O 0.51823 0.50722 0.97748 0.0
O503 O 0.51839 0.52999 -0.00128 0.0
C504 C 0.52866 0.52013 0.98975 0.0
C505 C 0.47346 0.51037 0.02602 0.0
O506 O 0.50643 0.55694 0.01915 0.0
O507 O 0.48686 0.54571 0.99182 0.0
O508 O 0.51718 0.54203 0.05703 0.0
O509 O 0.5385 0.53078 0.0419 0.0
O510 O 0.48556 0.50978 0.03986 0.0
O511 O 0.48087 0.52167 0.01475 0.0
O512 O 0.48927 0.4861 -0.00188 0.0
O513 O 0.5143 0.49716 0.02049 0.0
C514 C 0.49579 0.56 0.00448 0.0
C515 C 0.50211 0.4828 0.01064 0.0
Dy516 Dy 0.77276 0.27454 0.27668 0.0
C517 C 0.704 0.24391 0.23141 0.0
C518 C 0.80435 0.28515 0.30069 0.0
Dy519 Dy 0.73376 0.25433 0.25766 0.0
O520 O 0.80275 0.29006 0.28373 0.0
O521 O 0.78846 0.27488 0.30473 0.0
O522 O 0.78304 0.281 0.24815 0.0
O523 O 0.76285 0.25621 0.25061 0.0
C524 C 0.77143 0.2663 0.23909 0.0
C525 C 0.73487 0.26184 0.29526 0.0
O526 O 0.74632 0.2278 0.25991 0.0
O527 O 0.77162 0.24301 0.28086 0.0
O528 O 0.70313 0.24184 0.24927 0.0
O529 O 0.72118 0.2513 0.2279 0.0
O530 O 0.72327 0.24731 0.2858 0.0
O531 O 0.7436 0.27231 0.28402 0.0
O532 O 0.75956 0.30083 0.2758 0.0
O533 O 0.73475 0.28604 0.25416 0.0
C534 C 0.76092 0.22707 0.27168 0.0
C535 C 0.74513 0.30183 0.26393 0.0
Dy536 Dy 0.004 0.51899 0.52524 0.0
C537 C 0.00039 0.50894 0.4418 0.0
C538 C -0.0024 0.5337 0.56041 0.0
Dy539 Dy -0.00237 0.51499 0.47969 0.0
O540 O 0.01363 0.52899 0.55572 0.0
O541 O 0.98528 0.53005 0.54605 0.0
O542 O 0.01516 0.49102 0.52716 0.0
O543 O 0.00778 0.49974 0.50137 0.0
C544 C 0.0141 0.48665 0.50883 0.0
C545 C 0.98379 0.54291 0.49995 0.0
O546 O 0.97322 0.49315 0.48639 0.0
O547 O 0.97429 0.50238 0.51899 0.0
O548 O 0.00101 0.5258 0.45139 0.0
O549 O -0.00192 0.49531 0.45289 0.0
O550 O 0.97602 0.53463 0.48358 0.0
O551 O -0.00125 0.53686 0.50344 0.0
O552 O 0.03021 0.53813 0.51782 0.0
O553 O 0.02839 0.52843 0.48516 0.0
C554 C 0.96594 0.49225 0.50311 0.0
C555 C 0.03749 0.53799 0.50099 0.0
Dy556 Dy 0.73536 0.76385 0.25536 0.0
C557 C 0.81611 0.77947 0.25229 0.0
C558 C 0.69848 0.75208 0.26247 0.0
Dy559 Dy 0.77876 0.76909 0.25847 0.0
O560 O 0.70492 0.7673 0.25422 0.0
O561 O 0.71213 0.74313 0.26643 0.0
O562 O 0.73697 0.78924 0.23867 0.0
O563 O 0.75868 0.78865 0.25926 0.0
C564 C 0.75364 0.79761 0.2461 0.0
C565 C 0.76008 0.73513 0.26718 0.0
O566 O 0.7749 0.7842 0.28688 0.0
O567 O 0.74265 0.77211 0.28652 0.0
O568 O 0.80924 0.76662 0.26318 0.0
O569 O 0.8026 0.78689 0.24505 0.0
O570 O 0.77661 0.74335 0.27503 0.0
O571 O 0.75551 0.74448 0.25421 0.0
O572 O 0.73878 0.74997 0.22652 0.0
O573 O 0.77149 0.76002 0.22722 0.0
C574 C 0.75887 0.78113 0.29556 0.0
C575 C 0.75494 0.75214 0.21805 0.0
Dy576 Dy 0.7516 0.26 0.73231 0.0
C577 C 0.76408 0.26162 0.81336 0.0
C578 C 0.73905 0.25931 0.69582 0.0
Dy579 Dy 0.75474 0.26416 0.7766 0.0
O580 O 0.75158 0.24955 0.70135 0.0
O581 O 0.73354 0.26929 0.71015 0.0
O582 O 0.78312 0.26123 0.73234 0.0
O583 O 0.76765 0.24935 0.75398 0.0
C584 C 0.78396 0.25408 0.74838 0.0
C585 C 0.72875 0.28113 0.76063 0.0
O586 O 0.77602 0.28952 0.76996 0.0
O587 O 0.76319 0.29163 0.74001 0.0
O588 O 0.74687 0.26041 0.80629 0.0
O589 O 0.77606 0.26418 0.80036 0.0
O590 O 0.73734 0.28794 0.77703 0.0
O591 O 0.73343 0.26535 0.75487 0.0
O592 O 0.73461 0.23132 0.73703 0.0
O593 O 0.73871 0.23343 0.77001 0.0
C594 C 0.77462 0.29906 0.75507 0.0
C595 C 0.73182 0.22392 0.75329 0.0
Dy596 Dy 0.76409 0.7915 0.76321 0.0
C597 C 0.76539 0.71049 0.76095 0.0
C598 C 0.75877 0.82841 0.76073 0.0
Dy599 Dy 0.75983 0.74678 0.75572 0.0
O600 O 0.76854 0.82319 0.77439 0.0
O601 O 0.75213 0.81352 0.74844 0.0
O602 O 0.78026 0.79141 0.79099 0.0
O603 O 0.75925 0.76762 0.78018 0.0
C604 C 0.77208 0.77377 0.79304 0.0
C605 C 0.75169 0.76435 0.72578 0.0
O606 O 0.73119 0.74788 0.76599 0.0
O607 O 0.73271 0.78113 0.76555 0.0
O608 O 0.75732 0.71489 0.74573 0.0
O609 O 0.77031 0.72583 0.77308 0.0
O610 O 0.74389 0.74652 0.72775 0.0
O611 O 0.76447 0.77066 0.73868 0.0
O612 O 0.79224 0.79015 0.75163 0.0
O613 O 0.79116 0.75721 0.75355 0.0
C614 C 0.72319 0.76347 0.76749 0.0
C615 C 0.80046 0.77469 0.75074 0.0
Dy616 Dy 0.47926 0.51059 0.49538 0.0
C617 C 0.55969 0.52456 0.51065 0.0
C618 C 0.4412 0.5092 0.49323 0.0
Dy619 Dy 0.52165 0.52308 0.50768 0.0
O620 O 0.45188 0.5108 0.47905 0.0
O621 O 0.45129 0.50786 0.50838 0.0
O622 O 0.48618 0.4928 0.46955 0.0
O623 O 0.50503 0.51831 0.48092 0.0
C624 C 0.50278 0.50361 0.46873 0.0
C625 C 0.49796 0.52989 0.53425 0.0
O626 O 0.51737 0.54981 0.49543 0.0
O627 O 0.48469 0.54324 0.49666 0.0
O628 O 0.55008 0.53184 0.52366 0.0
O629 O 0.54854 0.51681 0.496 0.0
O630 O 0.51445 0.54088 0.5335 0.0
O631 O 0.49598 0.51531 0.52202 0.0
O632 O 0.48327 0.48276 0.50553 0.0
O633 O 0.51613 0.49086 0.5098 0.0
C634 C 0.50072 0.55525 0.49444 0.0
C635 C 0.49996 0.4782 0.50944 0.0
Dy636 Dy 0.02618 0.51926 0.01801 0.0
C637 C 0.94936 0.53097 0.00546 0.0
C638 C 0.059 0.50799 0.02844 0.0
Dy639 Dy 0.98301 0.52091 0.01487 0.0
O640 O 0.05722 0.51903 0.0152 0.0
O641 O 0.04301 0.50349 0.03604 0.0
O642 O 0.03007 0.53279 0.99073 0.0
O643 O 0.00427 0.51544 -0.00438 0.0
C644 C 0.01249 0.52652 0.98468 0.0
C645 C -0.00332 0.51233 0.04759 0.0
O646 O 0.98115 0.49015 0.0023 0.0
O647 O 0.01177 0.48777 0.01253 0.0
O648 O 0.9535 0.52462 0.02129 0.0
O649 O 0.96346 0.53145 -0.00532 0.0
O650 O 0.97941 0.50536 0.04086 0.0
O651 O 0.00481 0.52432 0.03735 0.0
O652 O 0.02768 0.54969 0.03108 0.0
O653 O -0.00237 0.55239 0.01955 0.0
C654 C -0.00554 0.47978 0.00521 0.0
C655 C 0.01471 0.56024 0.02752 0.0
H656 H 0.00185 0.22693 0.93856 0.0
H657 H 0.00301 0.2 0.95728 0.0
H658 H 0.97629 0.15937 0.91016 0.0
H659 H 0.97539 0.1862 0.89118 0.0
H660 H 0.9756 0.17075 0.96799 0.0
H661 H 0.02568 0.14068 0.92158 0.0
H662 H 0.02025 0.16454 0.92027 0.0
H663 H 0.00421 0.14332 0.90923 0.0
C664 C -0.00395 0.21228 0.93222 0.0
C665 C 0.98871 0.20866 0.91332 0.0
C666 C -0.00327 0.19693 0.94295 0.0
C667 C 0.9901 0.17771 0.93497 0.0
C668 C 0.98187 0.1741 0.91643 0.0
H669 H 0.96794 0.07257 0.98799 0.0
H670 H 0.96633 0.10287 0.975 0.0
C671 C 0.98126 0.18944 0.90565 0.0
C672 C 0.99241 0.16142 0.9458 0.0
H673 H 0.01268 0.12121 0.94475 0.0
C674 C 0.98376 0.15995 0.96298 0.0
C675 C 0.00344 0.14762 0.93943 0.0
C676 C 0.01409 0.14917 0.92172 0.0
C677 C 0.98539 0.14466 0.9737 0.0
C678 C -0.00435 0.13033 0.96684 0.0
C679 C 0.00471 0.13214 0.94993 0.0
C680 C -0.00335 0.11293 0.97651 0.0
C681 C 0.97626 0.1441 0.99233 0.0
C682 C 0.01426 0.1084 0.98155 0.0
C683 C 0.01527 0.09092 0.98878 0.0
C684 C -0.00134 0.07762 0.99105 0.0
C685 C 0.98103 0.08249 0.98651 0.0
C686 C 0.98005 0.09991 0.9792 0.0
H687 H 0.97432 0.15879 -0.00173 0.0
H688 H 0.96207 0.13461 0.99013 0.0
H689 H 0.98481 0.1382 0.00283 0.0
H690 H 0.02725 0.11823 0.9795 0.0
H691 H 0.02907 0.08765 0.99215 0.0
H692 H 0.0978 0.80316 0.13981 0.0
H693 H 0.12751 0.80182 0.15732 0.0
H694 H 0.10383 0.81892 0.20955 0.0
H695 H 0.07412 0.82016 0.19228 0.0
H696 H 0.15349 0.82951 0.18727 0.0
H697 H 0.11414 0.76165 0.211 0.0
H698 H 0.10582 0.77227 0.19105 0.0
H699 H 0.10311 0.78257 0.21467 0.0
C700 C 0.09908 0.80707 0.15497 0.0
C701 C 0.08355 0.81143 0.16474 0.0
C702 C 0.11605 0.80635 0.16492 0.0
C703 C 0.11765 0.81003 0.18468 0.0
C704 C 0.10271 0.81588 0.19428 0.0
H705 H 0.20778 0.80888 0.26886 0.0
H706 H 0.18359 0.81846 0.24837 0.0
C707 C 0.08577 0.81655 0.1844 0.0
C708 C 0.13384 0.80543 0.19548 0.0
H709 H 0.14515 0.77324 0.22453 0.0
C710 C 0.15175 0.81723 0.19543 0.0
C711 C 0.13146 0.78918 0.20578 0.0
C712 C 0.11265 0.77555 0.20558 0.0
C713 C 0.16737 0.81339 0.20588 0.0
C714 C 0.16479 0.7975 0.21666 0.0
C715 C 0.14696 0.78552 0.21636 0.0
C716 C 0.1804 0.7927 0.2282 0.0
C717 C 0.18653 0.82608 0.20516 0.0
C718 C 0.18629 0.77497 0.22372 0.0
C719 C 0.19987 0.76945 0.23541 0.0
C720 C 0.20775 0.78156 0.25177 0.0
C721 C 0.20188 0.79933 0.25628 0.0
C722 C 0.18827 0.80489 0.24453 0.0
H723 H 0.18686 0.83541 0.19351 0.0
H724 H 0.1901 0.83563 0.21872 0.0
H725 H 0.19759 0.81705 0.2033 0.0
H726 H 0.18017 0.76529 0.21129 0.0
H727 H 0.20397 0.75553 0.23181 0.0
H728 H 0.49469 0.80849 0.42703 0.0
H729 H 0.49208 0.83858 0.44632 0.0
H730 H 0.50331 0.87039 0.39833 0.0
H731 H 0.50637 0.8405 0.37903 0.0
H732 H 0.52399 0.88833 0.42975 0.0
H733 H 0.44876 0.86819 0.44574 0.0
H734 H 0.46299 0.85119 0.45225 0.0
H735 H 0.45935 0.85441 0.42776 0.0
C736 C 0.49658 0.82188 0.42055 0.0
C737 C 0.50071 0.82207 0.40146 0.0
C738 C 0.49492 0.83904 0.43157 0.0
C739 C 0.49712 0.85665 0.42365 0.0
C740 C 0.50143 0.85692 0.40468 0.0
H741 H 0.47129 0.96692 0.47187 0.0
H742 H 0.47032 0.93516 0.4537 0.0
C743 C 0.50321 0.83981 0.39368 0.0
C744 C 0.49574 0.87498 0.43531 0.0
H745 H 0.46648 0.89712 0.46298 0.0
C746 C 0.51139 0.89028 0.43696 0.0
C747 C 0.47918 0.87756 0.44448 0.0
C748 C 0.46154 0.86205 0.44235 0.0
C749 C 0.51107 0.90801 0.44775 0.0
C750 C 0.49481 0.91033 0.45755 0.0
C751 C 0.47901 0.89518 0.45564 0.0
C752 C 0.49405 0.9285 0.46972 0.0
C753 C 0.52807 0.9242 0.4483 0.0
C754 C 0.50723 0.93488 0.48516 0.0
C755 C 0.50792 0.95299 0.49542 0.0
C756 C 0.49524 0.96496 0.49061 0.0
C757 C 0.48126 0.95804 0.47589 0.0
C758 C 0.4807 0.93993 0.46549 0.0
H759 H 0.53689 0.922 0.43614 0.0
H760 H 0.5237 0.93851 0.44819 0.0
H761 H 0.53701 0.92458 0.46144 0.0
H762 H 0.51733 0.92604 0.48897 0.0
H763 H 0.51866 0.95777 0.5069 0.0
H764 H 0.48182 0.27084 0.70879 0.0
H765 H 0.45115 0.27263 0.72145 0.0
H766 H 0.4394 0.30875 0.67891 0.0
H767 H 0.46992 0.30672 0.66585 0.0
H768 H 0.43764 0.30485 0.7361 0.0
H769 H 0.39227 0.2665 0.67351 0.0
H770 H 0.41724 0.26622 0.67616 0.0
H771 H 0.40925 0.28711 0.66867 0.0
C772 C 0.47268 0.27908 0.70203 0.0
C773 C 0.47828 0.28855 0.68623 0.0
C774 C 0.45518 0.28011 0.70932 0.0
C775 C 0.44292 0.29063 0.70099 0.0
C776 C 0.44849 0.30023 0.68531 0.0
H777 H 0.32907 0.3052 0.72894 0.0
H778 H 0.3609 0.31075 0.71723 0.0
C779 C 0.46596 0.2991 0.67792 0.0
C780 C 0.42446 0.29172 0.70898 0.0
H781 H 0.37675 0.27974 0.69883 0.0
C782 C 0.42432 0.2994 0.72795 0.0
C783 C 0.40712 0.28464 0.69828 0.0
C784 C 0.40638 0.27549 0.67808 0.0
C785 C 0.40726 0.30006 0.73656 0.0
C786 C 0.38997 0.29272 0.72594 0.0
C787 C 0.39009 0.28545 0.70687 0.0
C788 C 0.37156 0.29122 0.7346 0.0
C789 C 0.40785 0.30859 0.75693 0.0
C790 C 0.36717 0.27859 0.74838 0.0
C791 C 0.34904 0.27534 0.75501 0.0
C792 C 0.33504 0.28466 0.74793 0.0
C793 C 0.33965 0.29786 0.73465 0.0
C794 C 0.35777 0.30102 0.72794 0.0
H795 H 0.42173 0.31805 0.76154 0.0
H796 H 0.3965 0.31719 0.75922 0.0
H797 H 0.40559 0.29663 0.76601 0.0
H798 H 0.37755 0.27065 0.75345 0.0
H799 H 0.34581 0.26504 0.7652 0.0
H800 H -0.00439 0.83614 0.61302 0.0
H801 H -0.00455 0.86346 0.59459 0.0
H802 H -0.00178 0.82603 0.54332 0.0
H803 H -0.00167 0.79849 0.56167 0.0
H804 H 0.02548 0.86258 0.54856 0.0
H805 H 0.95161 0.87246 0.55823 0.0
H806 H 0.96499 0.87069 0.57963 0.0
H807 H 0.95954 0.85014 0.5618 0.0
C808 C -0.00395 0.83365 0.59781 0.0
C809 C -0.00306 0.81513 0.5888 0.0
C810 C -0.00412 0.84927 0.5873 0.0
C811 C -0.00337 0.8467 0.56759 0.0
C812 C -0.00247 0.82826 0.55852 0.0
H813 H 0.98113 0.93843 0.49769 0.0
H814 H 0.98003 0.90645 0.50859 0.0
C815 C -0.00245 0.81256 0.56902 0.0
C816 C -0.00283 0.86351 0.55665 0.0
H817 H 0.97212 0.89817 0.54613 0.0
C818 C 0.01376 0.87026 0.54783 0.0
C819 C 0.98178 0.87335 0.55557 0.0
C820 C 0.96339 0.86624 0.56416 0.0
C821 C 0.01563 0.8871 0.53861 0.0
C822 C 0.00056 0.89746 0.53832 0.0
C823 C 0.9837 0.89025 0.54646 0.0
C824 C 0.00235 0.91638 0.53059 0.0
C825 C 0.03375 0.89379 0.5294 0.0
C826 C 0.01533 0.93252 0.5393 0.0
C827 C 0.01595 0.9508 0.53318 0.0
C828 C 0.00359 0.95333 0.51821 0.0
C829 C 0.99093 0.93701 0.50917 0.0
C830 C 0.99023 0.91872 0.51541 0.0
H831 H 0.0417 0.88179 0.52646 0.0
H832 H 0.03088 0.89968 0.51595 0.0
H833 H 0.0429 0.90552 0.53902 0.0
H834 H 0.0246 0.9311 0.55123 0.0
H835 H 0.02587 0.96303 0.54049 0.0
H836 H 0.46967 0.78657 0.83483 0.0
H837 H 0.43634 0.78866 0.83064 0.0
H838 H 0.42622 0.76795 0.8847 0.0
H839 H 0.45973 0.76579 0.88912 0.0
H840 H 0.40415 0.75698 0.83158 0.0
H841 H 0.40462 0.81996 0.88599 0.0
H842 H 0.42601 0.81467 0.87602 0.0
H843 H 0.41476 0.79999 0.89287 0.0
C844 C 0.46041 0.78242 0.84587 0.0
C845 C 0.46741 0.77604 0.86234 0.0
C846 C 0.44136 0.78365 0.84343 0.0
C847 C 0.42891 0.77869 0.85746 0.0
C848 C 0.4357 0.77209 0.87384 0.0
H849 H 0.30636 0.76333 0.83767 0.0
H850 H 0.33737 0.76254 0.8528 0.0
C851 C 0.45481 0.77074 0.87626 0.0
C852 C 0.40877 0.78009 0.8545 0.0
H853 H 0.37577 0.8071 0.86832 0.0
C854 C 0.39786 0.76778 0.83974 0.0
C855 C 0.40073 0.79432 0.86512 0.0
C856 C 0.41208 0.80812 0.88085 0.0
C857 C 0.37917 0.76949 0.83512 0.0
C858 C 0.3712 0.78386 0.84555 0.0
C859 C 0.38196 0.79603 0.86049 0.0
C860 C 0.35207 0.78701 0.84006 0.0
C861 C 0.36818 0.75632 0.81872 0.0
C862 C 0.35005 0.80158 0.82859 0.0
C863 C 0.33239 0.80203 0.81988 0.0
C864 C 0.31655 0.78793 0.82258 0.0
C865 C 0.31833 0.77439 0.83536 0.0
C866 C 0.33602 0.77389 0.84399 0.0
H867 H 0.37698 0.74701 0.81107 0.0
H868 H 0.35598 0.74678 0.82398 0.0
H869 H 0.36247 0.76508 0.80859 0.0
H870 H 0.36234 0.81179 0.82539 0.0
H871 H 0.33141 0.81261 0.81009 0.0
H872 H 0.49309 0.19131 0.12035 0.0
H873 H 0.48744 0.16087 0.09949 0.0
H874 H 0.47436 0.19107 0.05255 0.0
H875 H 0.48024 0.22185 0.07334 0.0
H876 H 0.45597 0.1407 0.07538 0.0
H877 H 0.51942 0.16573 0.03617 0.0
H878 H 0.51494 0.17828 0.05841 0.0
H879 H 0.50179 0.18084 0.03716 0.0
C880 C 0.48886 0.19154 0.10563 0.0
C881 C 0.48737 0.2091 0.09848 0.0
C882 C 0.48555 0.17407 0.09374 0.0
C883 C 0.48073 0.17377 0.07446 0.0
C884 C 0.47833 0.19107 0.06737 0.0
H885 H 0.46128 0.06359 -0.00176 0.0
H886 H 0.45622 0.09479 0.01422 0.0
C887 C 0.48164 0.20862 0.07929 0.0
C888 C 0.47958 0.1555 0.06176 0.0
H889 H 0.50333 0.13368 0.0279 0.0
C890 C 0.46611 0.13919 0.06477 0.0
C891 C 0.49301 0.15359 0.04812 0.0
C892 C 0.50822 0.17045 0.04478 0.0
C893 C 0.46604 0.12087 0.05481 0.0
C894 C 0.47972 0.11893 0.04149 0.0
C895 C 0.49281 0.13533 0.03807 0.0
C896 C 0.48196 0.09975 0.03227 0.0
C897 C 0.452 0.10352 0.0592 0.0
C898 C 0.49808 0.09236 0.03716 0.0
C899 C 0.50098 0.0747 0.02813 0.0
C900 C 0.48783 0.06414 0.01397 0.0
C901 C 0.47159 0.07146 0.00915 0.0
C902 C 0.46866 0.08918 0.01828 0.0
H903 H 0.44361 0.10713 0.07134 0.0
H904 H 0.44211 0.09797 0.04665 0.0
H905 H 0.45946 0.09166 0.06244 0.0
H906 H 0.50852 0.10036 0.0479 0.0
H907 H 0.51372 0.06953 0.032 0.0
H908 H 0.0587 0.24155 0.3362 0.0
H909 H 0.08578 0.24061 0.31684 0.0
H910 H 0.12373 0.26418 0.36557 0.0
H911 H 0.0967 0.26465 0.38513 0.0
H912 H 0.1119 0.27028 0.30891 0.0
H913 H 0.14722 0.21932 0.34485 0.0
H914 H 0.12344 0.22249 0.3493 0.0
H915 H 0.14341 0.23949 0.36079 0.0
C916 C 0.07282 0.24632 0.34284 0.0
C917 C 0.07557 0.25312 0.3622 0.0
C918 C 0.08828 0.2458 0.33176 0.0
C919 C 0.1068 0.25209 0.33979 0.0
C920 C 0.1096 0.25881 0.35915 0.0
H921 H 0.20735 0.29328 0.28348 0.0
H922 H 0.17752 0.28952 0.29887 0.0
C923 C 0.09413 0.25917 0.37029 0.0
C924 C 0.12311 0.25253 0.32771 0.0
H925 H 0.16554 0.23789 0.32359 0.0
C926 C 0.12355 0.26304 0.31202 0.0
C927 C 0.13817 0.24284 0.33158 0.0
C928 C 0.13798 0.23023 0.34743 0.0
C929 C 0.13887 0.26459 0.3004 0.0
C930 C 0.1544 0.25577 0.30488 0.0
C931 C 0.15372 0.24481 0.32026 0.0
C932 C 0.17172 0.25808 0.29415 0.0
C933 C 0.13815 0.27548 0.28335 0.0
C934 C 0.17852 0.24167 0.2865 0.0
C935 C 0.19573 0.24376 0.27791 0.0
C936 C 0.20649 0.26233 0.27677 0.0
C937 C 0.19936 0.27876 0.28394 0.0
C938 C 0.18223 0.27664 0.29268 0.0
H939 H 0.12333 0.27571 0.27849 0.0
H940 H 0.1455 0.29075 0.28715 0.0
H941 H 0.1452 0.26892 0.27144 0.0
H942 H 0.17067 0.2272 0.28751 0.0
H943 H 0.20079 0.2308 0.27253 0.0
H944 H 0.92981 0.05185 0.20002 0.0
H945 H 0.94729 0.05385 0.17146 0.0
H946 H 0.89473 0.04141 0.13725 0.0
H947 H 0.87709 0.03962 0.16579 0.0
H948 H 0.94543 0.02348 0.14325 0.0
H949 H 0.92507 0.08738 0.11425 0.0
H950 H 0.92161 0.08259 0.13836 0.0
H951 H 0.90544 0.06948 0.1195 0.0
C952 C 0.92195 0.04982 0.18644 0.0
C953 C 0.90206 0.04552 0.18516 0.0
C954 C 0.93196 0.05097 0.17014 0.0
C955 C 0.92232 0.04796 0.15225 0.0
C956 C 0.90245 0.04415 0.15092 0.0
H957 H 0.96713 0.00959 0.04714 0.0
H958 H 0.94825 0.01362 0.07447 0.0
C959 C 0.8924 0.04301 0.16725 0.0
C960 C 0.93308 0.04722 0.13502 0.0
H961 H 0.94145 0.06773 0.09415 0.0
C962 C 0.94462 0.03322 0.13256 0.0
C963 C 0.93209 0.06002 0.12117 0.0
C964 C 0.92053 0.07584 0.12346 0.0
C965 C 0.95501 0.03147 0.1165 0.0
C966 C 0.9536 0.04388 0.10238 0.0
C967 C 0.94233 0.05812 0.10494 0.0
C968 C 0.9639 0.04225 0.08495 0.0
C969 C 0.96758 0.01649 0.11486 0.0
C970 C 0.97855 0.0573 0.08147 0.0
C971 C 0.98929 0.05508 0.06577 0.0
C972 C 0.98544 0.03784 0.05329 0.0
C973 C 0.97036 0.02308 0.05647 0.0
C974 C 0.95964 0.0253 0.07214 0.0
H975 H 0.9705 0.01136 0.1287 0.0
H976 H 0.96046 0.00374 0.10501 0.0
H977 H 0.98126 0.02243 0.10915 0.0
H978 H 0.982 0.07051 0.09119 0.0
H979 H 0.00079 0.0667 0.06359 0.0
H980 H 0.28829 0.71279 0.48905 0.0
H981 H 0.28828 0.73225 0.46255 0.0
H982 H 0.27984 0.67998 0.42336 0.0
H983 H 0.2804 0.66055 0.44963 0.0
H984 H 0.30374 0.70951 0.41064 0.0
H985 H 0.2386 0.73412 0.43446 0.0
H986 H 0.25864 0.74041 0.45127 0.0
H987 H 0.24803 0.71531 0.44477 0.0
C988 C 0.28679 0.7055 0.47477 0.0
C989 C 0.28412 0.68513 0.47141 0.0
C990 C 0.28663 0.71661 0.45967 0.0
C991 C 0.28355 0.7075 0.44104 0.0
C992 C 0.2821 0.6873 0.43765 0.0
H993 H 0.23204 0.7375 0.34106 0.0
H994 H 0.23996 0.72676 0.37148 0.0
C995 C 0.28242 0.6762 0.45269 0.0
C996 C 0.28065 0.71864 0.42503 0.0
H997 H 0.25056 0.74515 0.40659 0.0
C998 C 0.29223 0.71747 0.4098 0.0
C999 C 0.26541 0.72874 0.42389 0.0
C1000 C 0.25183 0.72963 0.43937 0.0
C1001 C 0.28874 0.72572 0.39325 0.0
C1002 C 0.27357 0.7359 0.39215 0.0
C1003 C 0.26226 0.73746 0.40755 0.0
C1004 C 0.26838 0.74382 0.37465 0.0
C1005 C 0.3008 0.72263 0.3768 0.0
C1006 C 0.28149 0.75744 0.36669 0.0
C1007 C 0.27706 0.76337 0.34925 0.0
C1008 C 0.25932 0.75608 0.33971 0.0
C1009 C 0.24581 0.74332 0.34817 0.0
C1010 C 0.25033 0.73719 0.36551 0.0
H1011 H 0.30854 0.71053 0.37825 0.0
H1012 H 0.29206 0.71941 0.36323 0.0
H1013 H 0.31144 0.73603 0.37614 0.0
H1014 H 0.2953 0.76314 0.37375 0.0
H1015 H 0.28767 0.77336 0.34305 0.0
H1016 H 0.56907 0.94387 0.68661 0.0
H1017 H 0.55096 0.94054 0.65629 0.0
H1018 H 0.59351 0.98432 0.63702 0.0
H1019 H 0.61201 0.98709 0.66701 0.0
H1020 H 0.53617 0.96953 0.64698 0.0
H1021 H 0.57955 0.9492 0.58889 0.0
H1022 H 0.58537 0.94609 0.61313 0.0
H1023 H 0.59249 0.96928 0.6045 0.0
C1024 C 0.57485 0.95229 0.67562 0.0
C1025 C 0.59185 0.96586 0.67914 0.0
C1026 C 0.5645 0.95035 0.65832 0.0
C1027 C 0.57087 0.9621 0.64432 0.0
C1028 C 0.5885 0.97474 0.64738 0.0
H1029 H 0.52591 0.02603 0.56895 0.0
H1030 H 0.54265 0.01045 0.59169 0.0
C1031 C 0.59903 0.97645 0.6646 0.0
C1032 C 0.55775 0.96374 0.62826 0.0
H1033 H 0.55541 0.96781 0.58101 0.0
C1034 C 0.54018 0.9686 0.63248 0.0
C1035 C 0.56296 0.96258 0.60933 0.0
C1036 C 0.58105 0.95629 0.60369 0.0
C1037 C 0.5283 0.97358 0.61851 0.0
C1038 C 0.53414 0.97373 0.59993 0.0
C1039 C 0.55112 0.9678 0.59539 0.0
C1040 C 0.52402 0.98249 0.58579 0.0
C1041 C 0.51009 0.97985 0.62385 0.0
C1042 C 0.50789 0.97187 0.57524 0.0
C1043 C 0.49828 0.98075 0.5622 0.0
C1044 C 0.50482 0.00027 0.55966 0.0
C1045 C 0.52072 0.01091 0.57058 0.0
C1046 C 0.53032 0.00204 0.58347 0.0
H1047 H 0.50723 0.97827 0.63884 0.0
H1048 H 0.51078 -0.00471 0.62153 0.0
H1049 H 0.49807 0.97106 0.61467 0.0
H1050 H 0.50281 0.95678 0.57706 0.0
H1051 H 0.48604 0.97229 0.55389 0.0
H1052 H 0.25163 0.33699 0.9738 0.0
H1053 H 0.25669 0.31914 0.94362 0.0
H1054 H 0.22472 0.35416 0.91403 0.0
H1055 H 0.21989 0.37225 0.94395 0.0
H1056 H 0.23281 0.29768 0.91434 0.0
H1057 H 0.27536 0.36301 0.88988 0.0
H1058 H 0.26912 0.36213 0.91405 0.0
H1059 H 0.25237 0.36666 0.89638 0.0
C1060 C 0.24548 0.34073 0.96089 0.0
C1061 C 0.23555 0.35622 0.96128 0.0
C1062 C 0.24844 0.33056 0.94366 0.0
C1063 C 0.24151 0.33568 0.92657 0.0
C1064 C 0.23065 0.35034 0.92702 0.0
H1065 H 0.22514 0.27504 0.81479 0.0
H1066 H 0.22302 0.28812 0.84743 0.0
C1067 C 0.2278 0.36058 0.94417 0.0
C1068 C 0.24594 0.32612 0.9082 0.0
H1069 H 0.26505 0.33583 0.86649 0.0
C1070 C 0.24 0.30597 0.90392 0.0
C1071 C 0.25573 0.33688 0.8948 0.0
C1072 C 0.2637 0.35833 0.89906 0.0
C1073 C 0.24286 0.29643 0.88626 0.0
C1074 C 0.25154 0.30742 0.87241 0.0
C1075 C 0.2582 0.32743 0.87701 0.0
C1076 C 0.25312 0.2987 0.8528 0.0
C1077 C 0.23659 0.27467 0.88266 0.0
C1078 C 0.27072 0.30075 0.84471 0.0
C1079 C 0.27198 0.2935 0.82585 0.0
C1080 C 0.25564 0.28411 0.81473 0.0
C1081 C 0.23806 0.28206 0.82293 0.0
C1082 C 0.23682 0.28939 0.8417 0.0
H1083 H 0.23623 0.26792 0.89606 0.0
H1084 H 0.22206 0.27124 0.8758 0.0
H1085 H 0.24609 0.26799 0.87322 0.0
H1086 H 0.28348 0.30804 0.85298 0.0
H1087 H 0.28573 0.29534 0.82 0.0
H1088 H 0.93108 0.00157 0.28297 0.0
H1089 H 0.93802 -0.00391 0.31546 0.0
H1090 H 0.89238 0.02421 0.33357 0.0
H1091 H 0.88504 0.02951 0.30087 0.0
H1092 H 0.94823 0.02299 0.34666 0.0
H1093 H 0.88121 0.97285 0.35664 0.0
H1094 H 0.88816 0.97889 0.33366 0.0
H1095 H 0.87848 -0.00418 0.3492 0.0
C1096 C 0.92247 0.00662 0.29381 0.0
C1097 C 0.90744 0.01594 0.28926 0.0
C1098 C 0.92646 0.00344 0.3124 0.0
C1099 C 0.91553 0.00944 0.32688 0.0
C1100 C 0.90073 0.01907 0.32253 0.0
H1101 H 0.9344 0.00913 0.44829 0.0
H1102 H 0.92037 0.0121 0.41703 0.0
C1103 C 0.89667 0.02224 0.30386 0.0
C1104 C 0.92017 0.00602 0.34654 0.0
H1105 H 0.90325 0.98173 0.38316 0.0
C1106 C 0.93838 0.01399 0.35463 0.0
C1107 C 0.90726 0.99427 0.35692 0.0
C1108 C 0.88773 0.9848 0.34866 0.0
C1109 C 0.94411 0.01046 0.37276 0.0
C1110 C 0.93134 -0.00151 0.383 0.0
C1111 C 0.91298 0.99082 0.37515 0.0
C1112 C 0.93714 0.99383 0.40184 0.0
C1113 C 0.9638 0.01958 0.38089 0.0
C1114 C 0.95058 0.98189 0.40359 0.0
C1115 C 0.95856 0.98012 0.42137 0.0
C1116 C 0.95322 0.99031 0.43764 0.0
C1117 C 0.93877 0.00113 0.43596 0.0
C1118 C 0.93076 0.00286 0.41815 0.0
H1119 H 0.97061 0.03123 0.37272 0.0
H1120 H 0.96345 0.02579 0.39582 0.0
H1121 H 0.9727 0.00826 0.38064 0.0
H1122 H 0.95557 0.97473 0.39111 0.0
H1123 H 0.96966 0.97167 0.42227 0.0
H1124 H 0.29541 0.69135 0.57239 0.0
H1125 H 0.30146 0.71239 0.6025 0.0
H1126 H 0.25192 0.67949 0.62375 0.0
H1127 H 0.24617 0.65809 0.59412 0.0
H1128 H 0.28118 0.73594 0.621 0.0
H1129 H 0.29131 0.67795 0.66473 0.0
H1130 H 0.29037 0.67433 0.63927 0.0
H1131 H 0.26887 0.67206 0.65155 0.0
C1132 C 0.28587 0.68857 0.58353 0.0
C1133 C 0.27046 0.67291 0.58099 0.0
C1134 C 0.28933 0.70061 0.60069 0.0
C1135 C 0.27739 0.69721 0.61551 0.0
C1136 C 0.26166 0.68199 0.61273 0.0
H1137 H 0.26026 0.77412 0.71273 0.0
H1138 H 0.26096 0.75775 0.6808 0.0
C1139 C 0.25834 0.66983 0.59574 0.0
C1140 C 0.28115 0.70961 0.63387 0.0
H1141 H 0.28512 0.70731 0.6813 0.0
C1142 C 0.2823 0.72975 0.63421 0.0
C1143 C 0.28302 0.70157 0.65105 0.0
C1144 C 0.28354 0.68032 0.65164 0.0
C1145 C 0.28451 0.74198 0.65134 0.0
C1146 C 0.28501 0.73372 0.66856 0.0
C1147 C 0.28454 0.71367 0.66814 0.0
C1148 C 0.28555 0.74528 0.68727 0.0
C1149 C 0.28645 0.76358 0.65075 0.0
C1150 C 0.29894 0.74359 0.70161 0.0
C1151 C 0.29795 0.75218 0.71998 0.0
C1152 C 0.28362 0.76271 0.72432 0.0
C1153 C 0.27094 0.76542 0.70982 0.0
C1154 C 0.27166 0.75647 0.69148 0.0
H1155 H 0.2925 0.76799 0.63745 0.0
H1156 H 0.27224 0.76754 0.65123 0.0
H1157 H 0.29559 0.77195 0.66289 0.0
H1158 H 0.30982 0.73509 0.69871 0.0
H1159 H 0.30803 0.75001 0.73089 0.0
H1160 H 0.59015 0.98158 0.79726 0.0
H1161 H 0.57596 0.98139 0.82781 0.0
H1162 H 0.52473 0.99383 0.80245 0.0
H1163 H 0.53868 0.99399 0.77185 0.0
H1164 H 0.56225 0.01412 0.84612 0.0
H1165 H 0.50657 0.94743 0.83311 0.0
H1166 H 0.52673 0.95169 0.81885 0.0
H1167 H 0.50728 0.96395 0.81547 0.0
C1168 C 0.57579 0.98406 0.79812 0.0
C1169 C 0.56557 0.98785 0.78214 0.0
C1170 C 0.56773 0.98395 0.81557 0.0
C1171 C 0.54927 0.98739 0.81725 0.0
C1172 C 0.53889 0.99083 0.80131 0.0
H1173 H 0.49817 0.02586 0.91877 0.0
H1174 H 0.50753 0.02072 0.88622 0.0
C1175 C 0.54696 0.99104 0.78388 0.0
C1176 C 0.54135 0.98878 0.83596 0.0
H1177 H 0.50596 0.96788 0.8617 0.0
C1178 C 0.54998 0.004 0.84957 0.0
C1179 C 0.52537 0.97549 0.8403 0.0
C1180 C 0.51598 0.95861 0.82625 0.0
C1181 C 0.54291 0.00642 0.86747 0.0
C1182 C 0.52676 0.99334 0.87172 0.0
C1183 C 0.51823 0.97796 0.85821 0.0
C1184 C 0.51908 -0.00488 0.89048 0.0
C1185 C 0.55285 0.02279 0.88181 0.0
C1186 C 0.52205 0.98207 0.90331 0.0
C1187 C 0.51682 0.98501 0.92184 0.0
C1188 C 0.50844 0.00096 0.92769 0.0
C1189 C 0.50464 0.01348 0.91457 0.0
C1190 C 0.50998 0.01059 0.89605 0.0
H1191 H 0.56679 0.02974 0.8773 0.0
H1192 H 0.54391 0.03404 0.88383 0.0
H1193 H 0.55501 0.01742 0.89568 0.0
H1194 H 0.52907 0.97005 0.89918 0.0
H1195 H 0.51984 0.97513 0.93172 0.0
H1196 H 0.26546 0.37342 0.0917 0.0
H1197 H 0.26577 0.35672 0.12005 0.0
H1198 H 0.22792 0.30687 0.09079 0.0
H1199 H 0.22792 0.32328 0.06224 0.0
H1200 H 0.23615 0.34412 0.14076 0.0
H1201 H 0.26834 0.2817 0.11349 0.0
H1202 H 0.26861 0.30273 0.10103 0.0
H1203 H 0.24771 0.28413 0.0996 0.0
C1204 C 0.2574 0.3588 0.09122 0.0
C1205 C 0.24675 0.34963 0.07468 0.0
C1206 C 0.25754 0.3493 0.10746 0.0
C1207 C 0.24706 0.33045 0.1075 0.0
C1208 C 0.23647 0.32123 0.09098 0.0
H1209 H 0.22718 0.25427 0.19657 0.0
H1210 H 0.22468 0.26977 0.16753 0.0
C1211 C 0.23642 0.33067 0.07469 0.0
C1212 C 0.24661 0.32084 0.12508 0.0
H1213 H 0.25581 0.28052 0.14369 0.0
C1214 C 0.24051 0.33024 0.1414 0.0
C1215 C 0.25223 0.30269 0.1259 0.0
C1216 C 0.25976 0.29229 0.10913 0.0
C1217 C 0.2398 0.32196 0.15848 0.0
C1218 C 0.24547 0.30388 0.15929 0.0
C1219 C 0.25136 0.29435 0.14296 0.0
C1220 C 0.24619 0.29499 0.17717 0.0
C1221 C 0.23286 0.33253 0.17551 0.0
C1222 C 0.25912 0.30405 0.19213 0.0
C1223 C 0.26064 0.29521 0.20861 0.0
C1224 C 0.24922 0.27716 0.21045 0.0
C1225 C 0.23609 0.26822 0.19556 0.0
C1226 C 0.23467 0.27703 0.17899 0.0
H1227 H 0.22486 0.34373 0.1715 0.0
H1228 H 0.22365 0.32221 0.18344 0.0
H1229 H 0.24518 0.33992 0.18512 0.0
H1230 H 0.26836 0.31775 0.19088 0.0
H1231 H 0.27106 0.30232 0.21974 0.0
H1232 H 0.16389 0.90586 0.01961 0.0
H1233 H 0.14176 0.92856 0.0207 0.0
H1234 H 0.18687 0.97484 0.01029 0.0
H1235 H 0.20906 0.95251 0.00968 0.0
H1236 H 0.16517 0.98657 0.03771 0.0
H1237 H 0.1203 0.94867 0.97482 0.0
H1238 H 0.12241 0.93336 0.99306 0.0
H1239 H 0.143 0.94297 0.98119 0.0
C1240 C 0.16905 0.92088 0.01758 0.0
C1241 C 0.18815 0.92739 0.01444 0.0
C1242 C 0.15641 0.93379 0.01811 0.0
C1243 C 0.16265 0.95328 0.01524 0.0
C1244 C 0.18177 0.95985 0.01247 0.0
H1245 H 0.08258 0.02533 0.98613 0.0
H1246 H 0.11092 0.01072 0.98671 0.0
C1247 C 0.19441 0.94704 0.01209 0.0
C1248 C 0.1493 0.96691 0.01497 0.0
H1249 H 0.10869 0.9739 0.99271 0.0
C1250 C 0.15286 0.98389 0.02781 0.0
C1251 C 0.13352 0.96356 0.00176 0.0
C1252 C 0.12965 0.94626 0.9868 0.0
C1253 C 0.14075 -0.00259 0.02811 0.0
C1254 C 0.12447 0.99358 0.0155 0.0
C1255 C 0.12118 0.97681 0.00239 0.0
C1256 C 0.11 0.00604 0.0162 0.0
C1257 C 0.14563 0.0157 0.04178 0.0
C1258 C 0.10054 0.00891 0.03276 0.0
C1259 C 0.08455 0.01749 0.03251 0.0
C1260 C 0.07759 0.02299 0.01561 0.0
C1261 C 0.0877 0.02123 -0.00066 0.0
C1262 C 0.10382 0.01283 -0.00036 0.0
H1263 H 0.16109 0.01958 0.04551 0.0
H1264 H 0.14095 0.02815 0.03589 0.0
H1265 H 0.13844 0.01329 0.05502 0.0
H1266 H 0.10477 0.00341 0.04558 0.0
H1267 H 0.07691 0.01857 0.04522 0.0
H1268 H 0.70673 0.58386 0.9716 0.0
H1269 H 0.6755 0.56352 0.97209 0.0
H1270 H 0.65005 0.61454 0.97585 0.0
H1271 H 0.68135 0.63512 0.97535 0.0
H1272 H 0.65098 0.56698 0.00236 0.0
H1273 H 0.61779 0.5762 0.93292 0.0
H1274 H 0.6431 0.58148 0.93815 0.0
H1275 H 0.6288 0.59837 0.94707 0.0
C1276 C 0.69448 0.59078 0.9723 0.0
C1277 C 0.69649 0.61111 0.97348 0.0
C1278 C 0.67667 0.57912 0.9726 0.0
C1279 C 0.66052 0.58754 0.97388 0.0
C1280 C 0.66237 0.60778 0.9746 0.0
H1281 H 0.55113 0.54964 0.01216 0.0
H1282 H 0.58416 0.56359 0.00844 0.0
C1283 C 0.68023 0.6195 0.97438 0.0
C1284 C 0.64192 0.57521 0.9757 0.0
H1285 H 0.59749 0.5608 0.95451 0.0
C1286 C 0.63931 0.56548 0.99184 0.0
C1287 C 0.62687 0.57314 0.96183 0.0
C1288 C 0.62923 0.5827 0.94391 0.0
C1289 C 0.62175 0.55424 -0.00521 0.0
C1290 C 0.60648 0.55281 0.98129 0.0
C1291 C 0.60927 0.56198 0.96484 0.0
C1292 C 0.58718 0.54298 0.98457 0.0
C1293 C 0.61961 0.54409 0.01239 0.0
C1294 C 0.57801 0.52669 0.97242 0.0
C1295 C 0.55913 0.51855 0.97462 0.0
C1296 C 0.54915 0.52682 0.98882 0.0
C1297 C 0.55854 0.54284 0.00123 0.0
C1298 C 0.5774 0.55083 -0.00087 0.0
H1299 H 0.63352 0.5425 0.01875 0.0
H1300 H 0.61278 0.55276 0.023 0.0
H1301 H 0.61051 0.52948 0.00926 0.0
H1302 H 0.58536 0.52052 0.96104 0.0
H1303 H 0.55217 0.50627 0.96482 0.0
H1304 H 0.6949 0.47155 0.27741 0.0
H1305 H 0.71265 0.44486 0.2764 0.0
H1306 H 0.6609 0.40344 0.26179 0.0
H1307 H 0.64301 0.42988 0.26291 0.0
H1308 H 0.70039 0.40585 0.29786 0.0
H1309 H 0.70398 0.39771 0.21963 0.0
H1310 H 0.70271 0.4207 0.23294 0.0
H1311 H 0.68215 0.40179 0.22937 0.0
C1312 C 0.68728 0.45675 0.27409 0.0
C1313 C 0.66754 0.45283 0.27023 0.0
C1314 C 0.69745 0.44156 0.27352 0.0
C1315 C 0.68805 0.42227 0.26892 0.0
C1316 C 0.66836 0.41828 0.26529 0.0
H1317 H 0.71336 0.30855 0.24538 0.0
H1318 H 0.7013 0.33879 0.24679 0.0
C1319 C 0.65818 0.4334 0.26598 0.0
C1320 C 0.69871 0.40618 0.26774 0.0
H1321 H 0.71495 0.3742 0.23614 0.0
C1322 C 0.70379 0.399 0.28443 0.0
C1323 C 0.70292 0.39731 0.25016 0.0
C1324 C 0.69778 0.40473 0.23193 0.0
C1325 C 0.71251 0.38267 0.28395 0.0
C1326 C 0.71665 0.37365 0.2663 0.0
C1327 C 0.71185 0.38115 0.24965 0.0
C1328 C 0.72483 0.3557 0.26471 0.0
C1329 C 0.71643 0.37476 0.30227 0.0
C1330 C 0.74236 0.35522 0.27391 0.0
C1331 C 0.74927 0.33785 0.27326 0.0
C1332 C 0.73888 0.32068 0.26319 0.0
C1333 C 0.72174 0.32145 0.25331 0.0
C1334 C 0.7148 0.33876 0.25409 0.0
H1335 H 0.70823 0.38033 0.31378 0.0
H1336 H 0.71295 0.35864 0.30055 0.0
H1337 H 0.73168 0.37929 0.30673 0.0
H1338 H 0.75059 0.36824 0.28178 0.0
H1339 H 0.76259 0.33783 0.28089 0.0
H1340 H 0.79388 0.39864 0.51697 0.0
H1341 H 0.82851 0.40727 0.5203 0.0
H1342 H 0.82721 0.45186 0.48355 0.0
H1343 H 0.79279 0.44351 0.48014 0.0
H1344 H 0.85653 0.41016 0.49078 0.0
H1345 H 0.85519 0.47973 0.5347 0.0
H1346 H 0.83503 0.46002 0.53109 0.0
H1347 H 0.8405 0.47585 0.51311 0.0
C1348 C 0.80097 0.41019 0.50949 0.0
C1349 C 0.79056 0.42053 0.49845 0.0
C1350 C 0.82072 0.41505 0.5114 0.0
C1351 C 0.83025 0.43034 0.50237 0.0
C1352 C 0.81999 0.44018 0.49082 0.0
H1353 H 0.94184 0.47284 0.47374 0.0
H1354 H 0.90978 0.45487 0.47545 0.0
C1355 C 0.80033 0.43535 0.48887 0.0
C1356 C 0.85091 0.43665 0.5054 0.0
H1357 H 0.8845 0.47616 0.52184 0.0
C1358 C 0.86274 0.42446 0.49779 0.0
C1359 C 0.85886 0.45518 0.51483 0.0
C1360 C 0.84677 0.46841 0.52407 0.0
C1361 C 0.88242 0.4308 0.49853 0.0
C1362 C 0.89026 0.44985 0.50687 0.0
C1363 C 0.87845 0.4616 0.51533 0.0
C1364 C 0.91044 0.45851 0.506 0.0
C1365 C 0.89459 0.41715 0.49023 0.0
C1366 C 0.92138 0.46665 0.52262 0.0
C1367 C 0.93962 0.47718 0.5217 0.0
C1368 C 0.94723 0.4798 0.50412 0.0
C1369 C 0.93644 0.47108 0.48751 0.0
C1370 C 0.91816 0.46062 0.48846 0.0
H1371 H 0.88757 0.40174 0.49011 0.0
H1372 H 0.89703 0.41982 0.4754 0.0
H1373 H 0.90854 0.41946 0.49823 0.0
H1374 H 0.9156 0.46527 0.53629 0.0
H1375 H 0.94758 0.4836 0.53478 0.0
H1376 H 0.37853 0.10273 0.28435 0.0
H1377 H 0.35577 0.12407 0.28034 0.0
H1378 H 0.31178 0.07419 0.26311 0.0
H1379 H 0.33438 0.05269 0.26731 0.0
H1380 H 0.33533 0.12555 0.24596 0.0
H1381 H 0.2877 0.10694 0.30339 0.0
H1382 H 0.31108 0.10109 0.30281 0.0
H1383 H 0.29204 0.08691 0.28745 0.0
C1384 C 0.36396 0.09628 0.27994 0.0
C1385 C 0.35823 0.07605 0.27616 0.0
C1386 C 0.351 0.10848 0.27762 0.0
C1387 C 0.33211 0.10066 0.27155 0.0
C1388 C 0.32624 0.08047 0.26808 0.0
H1389 H 0.26227 0.18048 0.23131 0.0
H1390 H 0.27456 0.1503 0.23296 0.0
C1391 C 0.33919 0.06823 0.27042 0.0
C1392 C 0.31891 0.11382 0.26798 0.0
H1393 H 0.27998 0.12995 0.28414 0.0
C1394 C 0.32311 0.12642 0.25415 0.0
C1395 C 0.30301 0.1148 0.27873 0.0
C1396 C 0.29817 0.10184 0.29403 0.0
C1397 C 0.31221 0.14052 0.25121 0.0
C1398 C 0.2965 0.14177 0.2622 0.0
C1399 C 0.29192 0.12874 0.27561 0.0
C1400 C 0.28639 0.15817 0.26176 0.0
C1401 C 0.31817 0.15461 0.23709 0.0
C1402 C 0.28828 0.17205 0.27765 0.0
C1403 C 0.28128 0.18911 0.27675 0.0
C1404 C 0.27223 0.19254 0.25996 0.0
C1405 C 0.26931 0.17816 0.24438 0.0
C1406 C 0.27636 0.16101 0.24528 0.0
H1407 H 0.33238 0.1536 0.23204 0.0
H1408 H 0.30783 0.15143 0.22467 0.0
H1409 H 0.31843 0.16977 0.24337 0.0
H1410 H 0.29596 0.17009 0.29049 0.0
H1411 H 0.28358 0.19993 0.28902 0.0
H1412 H 0.28144 0.06896 0.48334 0.0
H1413 H 0.31064 0.05598 0.48284 0.0
H1414 H 0.34334 0.11428 0.49052 0.0
H1415 H 0.31404 0.12738 0.49013 0.0
H1416 H 0.35952 0.09104 0.46683 0.0
H1417 H 0.34131 0.05484 0.53063 0.0
H1418 H 0.32386 0.04666 0.5114 0.0
H1419 H 0.32784 0.07159 0.52187 0.0
C1420 C 0.29486 0.07901 0.48479 0.0
C1421 C 0.29551 0.09918 0.48706 0.0
C1422 C 0.31153 0.07158 0.48459 0.0
C1423 C 0.32916 0.08415 0.48722 0.0
C1424 C 0.32987 0.10431 0.48863 0.0
H1425 H 0.43032 0.05228 0.5321 0.0
H1426 H 0.40171 0.06514 0.52593 0.0
C1427 C 0.31315 0.11178 0.48843 0.0
C1428 C 0.34677 0.07627 0.48934 0.0
H1429 H 0.36793 0.04719 0.51523 0.0
C1430 C 0.36143 0.08151 0.47745 0.0
C1431 C 0.34934 0.06408 0.50341 0.0
C1432 C 0.33484 0.05913 0.51768 0.0
C1433 C 0.3786 0.07483 0.47922 0.0
C1434 C 0.38086 0.06208 0.49287 0.0
C1435 C 0.36614 0.05682 0.50467 0.0
C1436 C 0.39869 0.05479 0.49605 0.0
C1437 C 0.39427 0.08203 0.46689 0.0
C1438 C 0.40655 0.04464 0.48131 0.0
C1439 C 0.42317 0.03758 0.48478 0.0
C1440 C 0.43184 0.04013 0.50312 0.0
C1441 C 0.42382 0.05 0.51786 0.0
C1442 C 0.40749 0.05737 0.51433 0.0
H1443 H 0.39232 0.09574 0.46136 0.0
H1444 H 0.40832 0.08458 0.47475 0.0
H1445 H 0.39425 0.07097 0.4546 0.0
H1446 H 0.39977 0.04199 0.4672 0.0
H1447 H 0.42913 0.02998 0.4732 0.0
H1448 H 0.63775 0.58494 0.27393 0.0
H1449 H 0.65966 0.61601 0.27709 0.0
H1450 H 0.70644 0.58692 0.2863 0.0
H1451 H 0.68458 0.55556 0.28301 0.0
H1452 H 0.68732 0.63532 0.30661 0.0
H1453 H 0.71855 0.61548 0.23884 0.0
H1454 H 0.69655 0.60204 0.24559 0.0
H1455 H 0.71861 0.599 0.25644 0.0
C1456 C 0.65267 0.58509 0.2768 0.0
C1457 C 0.65943 0.56771 0.278 0.0
C1458 C 0.66516 0.6029 0.27867 0.0
C1459 C 0.68465 0.6037 0.28169 0.0
C1460 C 0.69143 0.58653 0.28374 0.0
H1461 H 0.76716 0.71372 0.29551 0.0
H1462 H 0.74978 0.68153 0.30078 0.0
C1463 C 0.67891 0.56865 0.28193 0.0
C1464 C 0.69777 0.62243 0.28144 0.0
H1465 H 0.7297 0.64687 0.25431 0.0
C1466 C 0.69679 0.63783 0.29534 0.0
C1467 C 0.70988 0.62563 0.26654 0.0
C1468 C 0.71096 0.60976 0.25089 0.0
C1469 C 0.70743 0.65649 0.29454 0.0
C1470 C 0.71934 0.6597 0.27953 0.0
C1471 C 0.72059 0.64424 0.26585 0.0
C1472 C 0.72958 0.6793 0.27694 0.0
C1473 C 0.70533 0.67284 0.30927 0.0
C1474 C 0.72397 0.68854 0.26176 0.0
C1475 C 0.7338 0.70681 0.25875 0.0
C1476 C 0.74949 0.71609 0.27081 0.0
C1477 C 0.75509 0.70685 0.28604 0.0
C1478 C 0.74517 0.68856 0.2891 0.0
H1479 H 0.69381 0.66844 0.31868 0.0
H1480 H 0.71879 0.67762 0.31809 0.0
H1481 H 0.70238 0.68549 0.30238 0.0
H1482 H 0.71199 0.68156 0.25222 0.0
H1483 H 0.72924 0.71357 0.24685 0.0
H1484 H 0.85227 0.47868 0.7584 0.0
H1485 H 0.83301 0.44631 0.75794 0.0
H1486 H 0.88195 0.42061 0.74668 0.0
H1487 H 0.90128 0.45296 0.74665 0.0
H1488 H 0.85064 0.40148 0.72522 0.0
H1489 H 0.83398 0.41241 0.80029 0.0
H1490 H 0.8273 0.43036 0.78666 0.0
H1491 H 0.85189 0.42896 0.79018 0.0
C1492 C 0.85895 0.46616 0.75576 0.0
C1493 C 0.87836 0.46842 0.75272 0.0
C1494 C 0.84794 0.44766 0.75563 0.0
C1495 C 0.85615 0.43109 0.75273 0.0
C1496 C 0.87537 0.43324 0.7491 0.0
H1497 H 0.80475 0.3164 0.77946 0.0
H1498 H 0.82506 0.34807 0.77852 0.0
C1499 C 0.88639 0.45174 0.74908 0.0
C1500 C 0.84469 0.4115 0.7535 0.0
H1501 H 0.81663 0.38411 0.78183 0.0
C1502 C 0.84327 0.39763 0.73762 0.0
C1503 C 0.83536 0.40642 0.76982 0.0
C1504 C 0.83734 0.42025 0.78778 0.0
C1505 C 0.83243 0.37893 0.73746 0.0
C1506 C 0.8224 0.37415 0.75347 0.0
C1507 C 0.82415 0.38789 0.76949 0.0
C1508 C 0.81006 0.35496 0.75394 0.0
C1509 C 0.83208 0.36438 0.72026 0.0
C1510 C 0.7947 0.34848 0.74062 0.0
C1511 C 0.78314 0.33035 0.74105 0.0
C1512 C 0.78656 0.31848 0.75498 0.0
C1513 C 0.8017 0.3252 0.76857 0.0
C1514 C 0.81335 0.34328 0.76804 0.0
H1515 H 0.84456 0.3683 0.71186 0.0
H1516 H 0.83179 0.34954 0.72429 0.0
H1517 H 0.8192 0.36412 0.71106 0.0
H1518 H 0.79159 0.35748 0.72994 0.0
H1519 H 0.77147 0.3257 0.73049 0.0
H1520 H 0.02069 0.8196 0.07507 0.0
H1521 H 0.01693 0.84452 0.05449 0.0
H1522 H 0.00066 0.88012 0.10163 0.0
H1523 H 0.00463 0.85548 0.12236 0.0
H1524 H 0.98596 0.86249 0.04572 0.0
H1525 H 0.04668 0.91483 0.08271 0.0
H1526 H 0.04216 0.88937 0.08588 0.0
H1527 H 0.02903 0.90566 0.09817 0.0
C1528 C 0.01618 0.83268 0.08102 0.0
C1529 C 0.01316 0.83571 0.10038 0.0
C1530 C 0.01402 0.84686 0.06924 0.0
C1531 C 0.00886 0.86425 0.07665 0.0
C1532 C 0.00502 0.86693 0.09576 0.0
H1533 H 0.97034 0.95579 0.0255 0.0
H1534 H 0.97298 0.92553 0.03823 0.0
C1535 C 0.00723 0.85281 0.10755 0.0
C1536 C 0.00815 0.87996 0.06464 0.0
H1537 H 0.0271 0.92733 0.06126 0.0
C1538 C -0.00497 0.87664 0.04898 0.0
C1539 C 0.0203 0.89823 0.06873 0.0
C1540 C 0.03547 0.90223 0.08467 0.0
C1541 C -0.00676 0.89144 0.03768 0.0
C1542 C 0.00468 0.91004 0.04244 0.0
C1543 C 0.01825 0.91309 0.0577 0.0
C1544 C 0.00241 0.92689 0.03242 0.0
C1545 C 0.97919 0.88701 0.02078 0.0
C1546 C 0.01811 0.93775 0.02497 0.0
C1547 C 0.01673 0.95522 0.01794 0.0
C1548 C -0.00039 0.96213 0.01823 0.0
C1549 C 0.9837 0.95082 0.02498 0.0
C1550 C 0.98514 0.93343 0.03214 0.0
H1551 H 0.97619 0.87125 0.01563 0.0
H1552 H 0.96567 0.8912 0.02488 0.0
H1553 H 0.98439 0.89526 0.00902 0.0
H1554 H 0.03159 0.93299 0.02512 0.0
H1555 H 0.02923 0.96353 0.01274 0.0
H1556 H 0.9317 0.23989 0.85574 0.0
H1557 H 0.89941 0.23339 0.84086 0.0
H1558 H 0.9185 0.26907 0.79738 0.0
H1559 H 0.95049 0.27553 0.81186 0.0
H1560 H 0.87667 0.2614 0.83318 0.0
H1561 H 0.89025 0.21802 0.76762 0.0
H1562 H 0.90604 0.22207 0.78863 0.0
H1563 H 0.90702 0.24037 0.77273 0.0
C1564 C 0.929 0.24625 0.84295 0.0
C1565 C 0.9437 0.25816 0.83496 0.0
C1566 C 0.91059 0.24252 0.83449 0.0
C1567 C 0.90672 0.25047 0.81785 0.0
C1568 C 0.92131 0.26245 0.80998 0.0
H1569 H 0.82024 0.26937 0.74173 0.0
H1570 H 0.84913 0.26653 0.75983 0.0
C1571 C 0.93959 0.26622 0.81839 0.0
C1572 C 0.88737 0.24717 0.80889 0.0
H1573 H 0.86265 0.2327 0.76636 0.0
C1574 C 0.87342 0.25481 0.81869 0.0
C1575 C 0.88324 0.23848 0.79003 0.0
C1576 C 0.89738 0.22909 0.77919 0.0
C1577 C 0.85578 0.25513 0.80969 0.0
C1578 C 0.85204 0.24736 0.79049 0.0
C1579 C 0.86567 0.23885 0.78101 0.0
C1580 C 0.8345 0.24881 0.77964 0.0
C1581 C 0.84165 0.26446 0.82059 0.0
C1582 C 0.81679 0.23957 0.78466 0.0
C1583 C 0.80034 0.24117 0.77434 0.0
C1584 C 0.80137 0.252 0.75885 0.0
C1585 C 0.8191 0.26096 0.75363 0.0
C1586 C 0.83556 0.25935 0.76395 0.0
H1587 H 0.84841 0.27395 0.83341 0.0
H1588 H 0.83435 0.27322 0.81168 0.0
H1589 H 0.83084 0.25286 0.8252 0.0
H1590 H 0.81571 0.23107 0.7965 0.0
H1591 H 0.78682 0.23389 0.77846 0.0
H1592 H 0.54787 0.22038 0.64446 0.0
H1593 H 0.54562 0.18946 0.62456 0.0
H1594 H 0.5106 0.20887 0.5828 0.0
H1595 H 0.51281 0.23994 0.6025 0.0
H1596 H 0.49702 0.16979 0.5962 0.0
H1597 H 0.57014 0.18078 0.57179 0.0
H1598 H 0.56777 0.18677 0.59664 0.0
H1599 H 0.55887 0.20078 0.57993 0.0
C1600 C 0.53972 0.21813 0.63103 0.0
C1601 C 0.53051 0.23264 0.62507 0.0
C1602 C 0.53855 0.2005 0.61965 0.0
C1603 C 0.52811 0.19704 0.60219 0.0
C1604 C 0.51882 0.21139 0.59621 0.0
H1605 H 0.49425 0.09095 0.52403 0.0
H1606 H 0.498 0.12415 0.53961 0.0
C1607 C 0.52011 0.2291 0.60749 0.0
C1608 C 0.52629 0.17811 0.59054 0.0
H1609 H 0.5513 0.14945 0.5643 0.0
C1610 C 0.50881 0.16533 0.58908 0.0
C1611 C 0.54177 0.17243 0.58144 0.0
C1612 C 0.56071 0.1859 0.58235 0.0
C1613 C 0.5065 0.1467 0.57915 0.0
C1614 C 0.522 0.14096 0.56999 0.0
C1615 C 0.53944 0.15389 0.57128 0.0
C1616 C 0.52057 0.12135 0.55958 0.0
C1617 C 0.4877 0.13311 0.57918 0.0
C1618 C 0.53261 0.10905 0.56504 0.0
C1619 C 0.53072 0.09018 0.55596 0.0
C1620 C 0.51667 0.08322 0.5413 0.0
C1621 C 0.50503 0.09578 0.53545 0.0
C1622 C 0.50708 0.11473 0.5444 0.0
H1623 H 0.47925 0.13774 0.5909 0.0
H1624 H 0.47941 0.13307 0.5657 0.0
H1625 H 0.48967 0.11803 0.58049 0.0
H1626 H 0.5432 0.11391 0.57664 0.0
H1627 H 0.53992 0.08089 0.5608 0.0
H1628 H 0.53483 0.74302 0.32617 0.0
H1629 H 0.56299 0.73975 0.30935 0.0
H1630 H 0.5968 0.75108 0.36215 0.0
H1631 H 0.56856 0.75478 0.37918 0.0
H1632 H 0.61217 0.77286 0.33535 0.0
H1633 H 0.59238 0.69576 0.30513 0.0
H1634 H 0.57456 0.70951 0.2998 0.0
H1635 H 0.58008 0.70621 0.32396 0.0
C1636 C 0.54822 0.74468 0.33426 0.0
C1637 C 0.5495 0.74916 0.35401 0.0
C1638 C 0.56428 0.74263 0.32462 0.0
C1639 C 0.58189 0.74478 0.33454 0.0
C1640 C 0.58326 0.74919 0.35427 0.0
H1641 H 0.68527 0.72374 0.2842 0.0
H1642 H 0.65642 0.72085 0.30145 0.0
C1643 C 0.56716 0.75133 0.36397 0.0
C1644 C 0.59901 0.74373 0.32406 0.0
H1645 H 0.61766 0.71525 0.29096 0.0
C1646 C 0.61347 0.7602 0.32579 0.0
C1647 C 0.60074 0.72711 0.31176 0.0
C1648 C 0.58619 0.70858 0.31018 0.0
C1649 C 0.62936 0.76074 0.31508 0.0
C1650 C 0.63057 0.74452 0.302 0.0
C1651 C 0.61647 0.72779 0.30074 0.0
C1652 C 0.64663 0.74467 0.28979 0.0
C1653 C 0.64477 0.77862 0.31796 0.0
C1654 C 0.65016 0.75844 0.27691 0.0
C1655 C 0.66662 0.76015 0.26709 0.0
C1656 C 0.67965 0.74799 0.26992 0.0
C1657 C 0.67545 0.73333 0.28182 0.0
C1658 C 0.65902 0.73168 0.29169 0.0
H1659 H 0.64409 0.78738 0.33173 0.0
H1660 H 0.65899 0.77467 0.31735 0.0
H1661 H 0.64307 0.78789 0.3066 0.0
H1662 H 0.64051 0.76831 0.27496 0.0
H1663 H 0.66952 0.7715 0.25792 0.0
H1664 H -0.00498 0.19251 0.40481 0.0
H1665 H 0.99061 0.16361 0.42148 0.0
H1666 H 0.02655 0.1956 0.4686 0.0
H1667 H 0.03075 0.22472 0.45215 0.0
H1668 H 0.01858 0.14482 0.43232 0.0
H1669 H 0.98193 0.16866 0.49501 0.0
H1670 H 0.98399 0.18163 0.47446 0.0
H1671 H 0.00367 0.18458 0.49157 0.0
C1672 C 0.00178 0.19349 0.41883 0.0
C1673 C 0.01322 0.21093 0.42716 0.0
C1674 C -0.00074 0.17695 0.42834 0.0
C1675 C 0.00808 0.17747 0.44638 0.0
C1676 C 0.01927 0.19494 0.45487 0.0
H1677 H 0.02082 0.08396 0.51454 0.0
H1678 H 0.02292 0.11564 0.50267 0.0
C1679 C 0.02174 0.21155 0.4454 0.0
C1680 C 0.00658 0.15935 0.4556 0.0
H1681 H 0.99222 0.13844 0.49496 0.0
C1682 C 0.01275 0.14343 0.44598 0.0
C1683 C -0.00091 0.15759 0.4735 0.0
C1684 C 0.99163 0.17395 0.4842 0.0
C1685 C 0.01166 0.12582 0.45375 0.0
C1686 C 0.00401 0.12399 0.47153 0.0
C1687 C -0.00192 0.13994 0.48133 0.0
C1688 C 0.00162 0.10533 0.47978 0.0
C1689 C 0.01883 0.1093 0.44296 0.0
C1690 C 0.9886 0.08923 0.47111 0.0
C1691 C 0.98731 0.07116 0.47785 0.0
C1692 C -0.00097 0.06882 0.49343 0.0
C1693 C 0.01159 0.08521 0.50252 0.0
C1694 C 0.01282 0.10333 0.49577 0.0
H1695 H 0.02792 0.11431 0.43158 0.0
H1696 H 0.02704 0.10203 0.45259 0.0
H1697 H 0.00661 0.09836 0.43636 0.0
H1698 H 0.97969 0.09055 0.45887 0.0
H1699 H 0.97739 0.05895 0.47052 0.0
H1700 H 0.55168 0.27711 0.16904 0.0
H1701 H 0.58061 0.2683 0.18169 0.0
H1702 H 0.60021 0.26161 0.12556 0.0
H1703 H 0.57112 0.27033 0.11263 0.0
H1704 H 0.59429 0.23 0.1663 0.0
H1705 H 0.64363 0.30025 0.16305 0.0
H1706 H 0.61856 0.29924 0.16507 0.0
H1707 H 0.62704 0.29018 0.14329 0.0
C1708 C 0.56219 0.27393 0.15936 0.0
C1709 C 0.55912 0.27441 0.13982 0.0
C1710 C 0.57865 0.26883 0.16662 0.0
C1711 C 0.59242 0.2643 0.15453 0.0
C1712 C 0.58968 0.26511 0.13507 0.0
H1713 H 0.70419 0.24757 0.19383 0.0
H1714 H 0.67707 0.24919 0.17252 0.0
C1715 C 0.57311 0.27012 0.12774 0.0
C1716 C 0.6095 0.25843 0.16247 0.0
H1717 H 0.65556 0.27611 0.17743 0.0
C1718 C 0.60778 0.23995 0.16857 0.0
C1719 C 0.62701 0.27143 0.1652 0.0
C1720 C 0.62935 0.29144 0.1589 0.0
C1721 C 0.62312 0.23426 0.1778 0.0
C1722 C 0.64043 0.24763 0.18143 0.0
C1723 C 0.64229 0.26587 0.17466 0.0
C1724 C 0.65637 0.2437 0.19336 0.0
C1725 C 0.6206 0.21402 0.1836 0.0
C1726 C 0.6537 0.2397 0.21205 0.0
C1727 C 0.66914 0.23857 0.22416 0.0
C1728 C 0.68752 0.24174 0.21787 0.0
C1729 C 0.69013 0.24503 0.199 0.0
C1730 C 0.67467 0.246 0.18684 0.0
H1731 H 0.60958 0.20381 0.17428 0.0
H1732 H 0.63402 0.20837 0.18319 0.0
H1733 H 0.61591 0.21429 0.19822 0.0
H1734 H 0.63981 0.23836 0.21756 0.0
H1735 H 0.66677 0.2362 0.23869 0.0
H1736 H 0.54524 0.84931 0.89229 0.0
H1737 H 0.54643 0.8794 0.913 0.0
H1738 H 0.5408 0.84723 0.96129 0.0
H1739 H 0.53907 0.81693 0.94059 0.0
H1740 H 0.51558 0.87026 0.96039 0.0
H1741 H 0.58581 0.91318 0.94973 0.0
H1742 H 0.5724 0.90464 0.92773 0.0
H1743 H 0.57947 0.88743 0.94223 0.0
C1744 C 0.5446 0.84864 0.90735 0.0
C1745 C 0.54196 0.83069 0.91477 0.0
C1746 C 0.54543 0.86591 0.91921 0.0
C1747 C 0.54397 0.86562 0.93874 0.0
C1748 C 0.54204 0.8478 0.94626 0.0
H1749 H 0.55053 0.97214 0.01665 0.0
H1750 H 0.55735 0.9419 0.00041 0.0
C1751 C 0.54104 0.83049 0.9344 0.0
C1752 C 0.54238 0.88357 0.95095 0.0
H1753 H 0.56297 0.93123 0.96265 0.0
C1754 C 0.52609 0.88351 0.96107 0.0
C1755 C 0.55617 0.90081 0.95204 0.0
C1756 C 0.57453 0.90149 0.9425 0.0
C1757 C 0.52286 0.90038 0.97166 0.0
C1758 C 0.53605 0.91791 0.97176 0.0
C1759 C 0.55273 0.91783 0.9623 0.0
C1760 C 0.53242 0.93652 0.98115 0.0
C1761 C 0.5053 0.89924 0.98262 0.0
C1762 C 0.51639 0.94367 0.97542 0.0
C1763 C 0.51241 0.96076 0.98473 0.0
C1764 C 0.52457 0.97118 -0.00026 0.0
C1765 C 0.54091 0.96433 0.00515 0.0
C1766 C 0.54483 0.94712 -0.00412 0.0
H1767 H 0.49989 0.88418 0.98572 0.0
H1768 H 0.50805 0.90893 -0.00384 0.0
H1769 H 0.49402 0.90386 0.97409 0.0
H1770 H 0.50684 0.93592 0.96383 0.0
H1771 H 0.49968 0.96566 0.98031 0.0
H1772 H 0.94528 0.78158 0.64895 0.0
H1773 H 0.91701 0.78755 0.66475 0.0
H1774 H 0.93509 0.7621 0.71313 0.0
H1775 H 0.96335 0.7562 0.69761 0.0
H1776 H 0.88916 0.75914 0.67678 0.0
H1777 H 0.92148 0.81303 0.73693 0.0
H1778 H 0.93404 0.80755 0.71625 0.0
H1779 H 0.93187 0.79165 0.73449 0.0
C1780 C 0.94335 0.77744 0.66303 0.0
C1781 C 0.9566 0.7684 0.672 0.0
C1782 C 0.92719 0.78087 0.67203 0.0
C1783 C 0.92411 0.77553 0.69021 0.0
C1784 C 0.93739 0.76671 0.69926 0.0
H1785 H 0.82122 0.74592 0.74533 0.0
H1786 H 0.85146 0.74762 0.73084 0.0
C1787 C 0.95348 0.76322 0.69028 0.0
C1788 C 0.90639 0.77786 0.69925 0.0
H1789 H 0.8893 0.79757 0.73927 0.0
C1790 C 0.88917 0.76771 0.69034 0.0
C1791 C 0.90643 0.78919 0.71687 0.0
C1792 C 0.92443 0.80114 0.72664 0.0
C1793 C 0.87204 0.76799 0.69891 0.0
C1794 C 0.87219 0.77853 0.71694 0.0
C1795 C 0.8893 0.78931 0.72555 0.0
C1796 C 0.8547 0.77809 0.72717 0.0
C1797 C 0.8539 0.75692 0.68865 0.0
C1798 C 0.84689 0.79487 0.73054 0.0
C1799 C 0.82955 0.79399 0.73887 0.0
C1800 C 0.81982 0.77631 0.74405 0.0
C1801 C 0.82821 0.75975 0.74141 0.0
C1802 C 0.84547 0.76065 0.73306 0.0
H1803 H 0.85557 0.75355 0.67331 0.0
H1804 H 0.84965 0.74299 0.69464 0.0
H1805 H 0.8423 0.76529 0.69042 0.0
H1806 H 0.8539 0.8085 0.72619 0.0
H1807 H 0.82355 0.80703 0.74074 0.0
H1808 H 0.0726 0.02414 0.81966 0.0
H1809 H 0.0582 0.01997 0.84952 0.0
H1810 H 0.09068 0.9758 0.85928 0.0
H1811 H 0.1057 0.98029 0.82941 0.0
H1812 H 0.03643 0.98818 0.85991 0.0
H1813 H 0.1006 0.01078 0.90902 0.0
H1814 H 0.1006 0.01488 0.88448 0.0
H1815 H 0.10151 0.99114 0.89106 0.0
C1816 C 0.07679 0.01356 0.82814 0.0
C1817 C 0.09033 0.00254 0.82213 0.0
C1818 C 0.06852 0.0112 0.84524 0.0
C1819 C 0.07347 -0.00229 0.85674 0.0
C1820 C 0.08692 0.98658 0.85081 0.0
H1821 H -0.00128 0.97173 0.94885 0.0
H1822 H 0.0176 0.96699 0.92153 0.0
C1823 C 0.0954 0.98908 0.83369 0.0
C1824 C 0.06397 -0.00479 0.8746 0.0
H1825 H 0.07163 0.00112 0.92263 0.0
C1826 C 0.04412 0.99085 0.87364 0.0
C1827 C 0.07406 -0.00116 0.89248 0.0
C1828 C 0.09536 0.00433 0.89444 0.0
C1829 C 0.03403 0.99072 0.89001 0.0
C1830 C 0.04409 -0.00559 0.90791 0.0
C1831 C 0.06396 -0.00184 0.9089 0.0
C1832 C 0.03422 -0.00385 0.92568 0.0
C1833 C 0.0127 0.98765 0.8879 0.0
C1834 C 0.03798 0.01374 0.93764 0.0
C1835 C 0.02745 0.01634 0.95338 0.0
C1836 C 0.0129 0.00142 0.95737 0.0
C1837 C 0.00969 0.98354 0.9459 0.0
C1838 C 0.0204 0.98086 0.93027 0.0
H1839 H 0.00755 0.98976 0.8735 0.0
H1840 H 0.00666 0.97257 0.89043 0.0
H1841 H 0.00719 -0.00222 0.8983 0.0
H1842 H 0.04862 0.02572 0.93442 0.0
H1843 H 0.03027 0.03026 0.96204 0.0
H1844 H 0.70548 0.32914 0.54056 0.0
H1845 H 0.70545 0.30715 0.56487 0.0
H1846 H 0.7549 0.34463 0.59338 0.0
H1847 H 0.75473 0.36699 0.5694 0.0
H1848 H 0.73162 0.28661 0.57765 0.0
H1849 H 0.71713 0.34142 0.63409 0.0
H1850 H 0.71533 0.34471 0.60939 0.0
H1851 H 0.73807 0.34964 0.62225 0.0
C1852 C 0.71637 0.33269 0.55199 0.0
C1853 C 0.72996 0.34991 0.55325 0.0
C1854 C 0.71636 0.32007 0.56581 0.0
C1855 C 0.72996 0.32446 0.58105 0.0
C1856 C 0.74402 0.34123 0.58193 0.0
H1857 H 0.7601 0.25497 0.66541 0.0
H1858 H 0.7557 0.26767 0.63522 0.0
C1859 C 0.74394 0.35395 0.56821 0.0
C1860 C 0.72901 0.3119 0.59643 0.0
H1861 H 0.72549 0.31281 0.64394 0.0
C1862 C 0.73014 0.29224 0.59215 0.0
C1863 C 0.72668 0.31923 0.61523 0.0
C1864 C 0.72403 0.33985 0.62052 0.0
C1865 C 0.72951 0.2798 0.60635 0.0
C1866 C 0.7281 0.2874 0.62528 0.0
C1867 C 0.72659 0.30697 0.62942 0.0
C1868 C 0.7288 0.27581 0.64134 0.0
C1869 C 0.73016 0.25867 0.60089 0.0
C1870 C 0.71499 0.2758 0.65464 0.0
C1871 C 0.71775 0.26904 0.67201 0.0
C1872 C 0.73419 0.26188 0.67621 0.0
C1873 C 0.74722 0.26027 0.66234 0.0
C1874 C 0.74466 0.26743 0.64506 0.0
H1875 H 0.72486 0.25392 0.58596 0.0
H1876 H 0.74504 0.25658 0.60231 0.0
H1877 H 0.72165 0.24922 0.61012 0.0
H1878 H 0.70264 0.28216 0.65205 0.0
H1879 H 0.70751 0.27038 0.68254 0.0
H1880 H 0.42322 0.06814 0.33777 0.0
H1881 H 0.4374 0.07973 0.36983 0.0
H1882 H 0.47405 0.03765 0.36391 0.0
H1883 H 0.46043 0.02638 0.33209 0.0
H1884 H 0.43826 0.06084 0.40059 0.0
H1885 H 0.51157 0.08598 0.38321 0.0
H1886 H 0.49205 0.08133 0.36554 0.0
H1887 H 0.5035 0.06187 0.37168 0.0
C1888 C 0.43438 0.06147 0.34331 0.0
C1889 C 0.4408 0.04644 0.33233 0.0
C1890 C 0.4425 0.06815 0.36156 0.0
C1891 C 0.45717 0.05995 0.36902 0.0
C1892 C 0.46325 0.0447 0.35819 0.0
H1893 H 0.48484 0.01993 0.46608 0.0
H1894 H 0.47004 0.03196 0.43969 0.0
C1895 C 0.45528 0.03813 0.34003 0.0
C1896 C 0.46543 0.06599 0.38856 0.0
H1897 H 0.50787 0.0724 0.41361 0.0
C1898 C 0.45348 0.06396 0.40352 0.0
C1899 C 0.48525 0.07084 0.39254 0.0
C1900 C 0.49877 0.07536 0.37735 0.0
C1901 C 0.46091 0.06427 0.42208 0.0
C1902 C 0.48071 0.06603 0.42551 0.0
C1903 C 0.49267 0.07051 0.41095 0.0
C1904 C 0.48894 0.05996 0.44279 0.0
C1905 C 0.44741 0.06175 0.43762 0.0
C1906 C 0.50505 0.07134 0.45293 0.0
C1907 C 0.51385 0.06423 0.46791 0.0
C1908 C 0.5066 0.04569 0.47286 0.0
C1909 C 0.49054 0.03441 0.46272 0.0
C1910 C 0.48191 0.04139 0.44776 0.0
H1911 H 0.43527 0.06909 0.43507 0.0
H1912 H 0.44157 0.04607 0.43774 0.0
H1913 H 0.45447 0.06768 0.45171 0.0
H1914 H 0.51092 0.08558 0.44912 0.0
H1915 H 0.52623 0.07318 0.47559 0.0
H1916 H 0.75116 0.69148 0.03794 0.0
H1917 H 0.752 0.71077 0.06876 0.0
H1918 H 0.754 0.65958 0.09651 0.0
H1919 H 0.75226 0.64018 0.06588 0.0
H1920 H 0.72927 0.67799 0.11146 0.0
H1921 H 0.79498 0.7317 0.10679 0.0
H1922 H 0.7775 0.73159 0.08807 0.0
H1923 H 0.78798 0.71045 0.08981 0.0
C1924 C 0.75193 0.68442 0.05064 0.0
C1925 C 0.75162 0.66432 0.0495 0.0
C1926 C 0.75254 0.69547 0.06826 0.0
C1927 C 0.75336 0.68671 0.08502 0.0
C1928 C 0.75335 0.66669 0.08381 0.0
H1929 H 0.78412 0.74119 0.19908 0.0
H1930 H 0.78308 0.72621 0.16644 0.0
C1931 C 0.75237 0.65561 0.06628 0.0
C1932 C 0.75335 0.69798 0.10386 0.0
H1933 H 0.77679 0.73738 0.13308 0.0
C1934 C 0.73971 0.69096 0.11618 0.0
C1935 C 0.76706 0.71481 0.11012 0.0
C1936 C 0.78282 0.72249 0.09809 0.0
C1937 C 0.73952 0.70005 0.13462 0.0
C1938 C 0.75289 0.7172 0.14072 0.0
C1939 C 0.76643 0.72436 0.12835 0.0
C1940 C 0.75363 0.72733 0.16018 0.0
C1941 C 0.72545 0.69068 0.14756 0.0
C1942 C 0.73756 0.73338 0.16744 0.0
C1943 C 0.73801 0.74157 0.18622 0.0
C1944 C 0.7547 0.74437 0.19795 0.0
C1945 C 0.77103 0.73919 0.1904 0.0
C1946 C 0.77047 0.73065 0.17173 0.0
H1947 H 0.7203 0.67502 0.14267 0.0
H1948 H 0.73174 0.69199 0.16223 0.0
H1949 H 0.71301 0.69793 0.14769 0.0
H1950 H 0.72459 0.73158 0.15865 0.0
H1951 H 0.72529 0.74572 0.19156 0.0
H1952 H 0.13979 0.00201 0.70247 0.0
H1953 H 0.12724 0.00938 0.67209 0.0
H1954 H 0.07144 0.00359 0.69296 0.0
H1955 H 0.08377 -0.00379 0.72327 0.0
H1956 H 0.09582 0.98629 0.64678 0.0
H1957 H 0.08293 0.05902 0.67483 0.0
H1958 H 0.0987 0.04644 0.68695 0.0
H1959 H 0.07355 0.03951 0.68809 0.0
C1960 C 0.12483 0.00219 0.70053 0.0
C1961 C 0.11279 -0.00137 0.7153 0.0
C1962 C 0.11771 0.00642 0.6832 0.0
C1963 C 0.0985 0.00734 0.68045 0.0
C1964 C 0.08637 0.00326 0.69495 0.0
H1965 H 0.01984 0.02805 0.59546 0.0
H1966 H 0.03785 0.02452 0.62433 0.0
C1967 C 0.09343 -0.00107 0.71221 0.0
C1968 C 0.09101 0.01255 0.66245 0.0
H1969 H 0.06977 0.04653 0.6439 0.0
C1970 C 0.09031 -0.00046 0.64603 0.0
C1971 C 0.08386 0.02987 0.66163 0.0
C1972 C 0.0849 0.04463 0.67876 0.0
C1973 C 0.08187 0.00299 0.62891 0.0
C1974 C 0.07437 0.02016 0.62816 0.0
C1975 C 0.07554 0.0334 0.6445 0.0
C1976 C 0.06415 0.02401 0.61088 0.0
C1977 C 0.0803 0.98782 0.61202 0.0
C1978 C 0.07313 0.02556 0.59388 0.0
C1979 C 0.06283 0.02751 0.57733 0.0
C1980 C 0.04346 0.02813 0.57762 0.0
C1981 C 0.03475 0.0276 0.59484 0.0
C1982 C 0.04502 0.02556 0.61133 0.0
H1983 H 0.08277 0.97366 0.61611 0.0
H1984 H 0.06614 0.98554 0.60445 0.0
H1985 H 0.09109 0.9928 0.60207 0.0
H1986 H 0.088 0.02486 0.59332 0.0
H1987 H 0.06989 0.02798 0.56423 0.0
H1988 H 0.71028 0.33849 0.46416 0.0
H1989 H 0.70985 0.31456 0.43668 0.0
H1990 H 0.71376 0.35995 0.40017 0.0
H1991 H 0.71395 0.38404 0.42756 0.0
H1992 H 0.689 0.32444 0.38557 0.0
H1993 H 0.76002 0.31343 0.41096 0.0
H1994 H 0.74179 0.30958 0.42732 0.0
H1995 H 0.74963 0.33347 0.42066 0.0
C1996 C 0.71076 0.34338 0.45026 0.0
C1997 C 0.71245 0.36322 0.44805 0.0
C1998 C 0.71056 0.32968 0.43461 0.0
C1999 C 0.71218 0.33559 0.41652 0.0
C2000 C 0.71261 0.35516 0.41409 0.0
H2001 H 0.75617 0.29353 0.31568 0.0
H2002 H 0.74981 0.30897 0.34642 0.0
C2003 C 0.71272 0.3689 0.42974 0.0
C2004 C 0.71491 0.32173 0.40032 0.0
H2005 H 0.74666 0.29518 0.38249 0.0
C2006 C 0.70148 0.31785 0.38492 0.0
C2007 C 0.73136 0.3134 0.39955 0.0
C2008 C 0.74664 0.31775 0.41541 0.0
C2009 C 0.70422 0.30604 0.36856 0.0
C2010 C 0.72071 0.29778 0.36777 0.0
C2011 C 0.73395 0.30138 0.38331 0.0
C2012 C 0.72541 0.2871 0.35023 0.0
C2013 C 0.68992 0.30318 0.35193 0.0
C2014 C 0.71417 0.26934 0.34259 0.0
C2015 C 0.71781 0.26044 0.32501 0.0
C2016 C 0.73271 0.26926 0.31494 0.0
C2017 C 0.74453 0.28649 0.32312 0.0
C2018 C 0.74092 0.29531 0.34065 0.0
H2019 H 0.67965 0.31315 0.35372 0.0
H2020 H 0.69712 0.30557 0.33869 0.0
H2021 H 0.6819 0.28803 0.35032 0.0
H2022 H 0.70232 0.26265 0.34998 0.0
H2023 H 0.70854 0.24711 0.31901 0.0
H2024 H 0.40407 0.02358 0.20529 0.0
H2025 H 0.42156 0.02378 0.17661 0.0
H2026 H 0.46997 0.06042 0.20782 0.0
H2027 H 0.45282 0.05976 0.23662 0.0
H2028 H 0.43739 0.05284 0.15724 0.0
H2029 H 0.49288 0.0159 0.1848 0.0
H2030 H 0.47157 0.01756 0.19675 0.0
H2031 H 0.49098 0.0379 0.19911 0.0
C2032 C 0.41842 0.0317 0.20601 0.0
C2033 C 0.42718 0.04146 0.2232 0.0
C2034 C 0.42839 0.03181 0.18964 0.0
C2035 C 0.44719 0.04177 0.19022 0.0
C2036 C 0.45567 0.05219 0.2072 0.0
H2037 H 0.50322 0.06217 0.08582 0.0
H2038 H 0.4909 0.0673 0.11708 0.0
C2039 C 0.44581 0.0519 0.2236 0.0
C2040 C 0.45792 0.04111 0.17303 0.0
H2041 H 0.49738 0.02767 0.15511 0.0
C2042 C 0.45052 0.04736 0.15675 0.0
C2043 C 0.47492 0.03373 0.17243 0.0
C2044 C 0.48298 0.02571 0.18914 0.0
C2045 C 0.4596 0.04631 0.13978 0.0
C2046 C 0.47684 0.03936 0.1393 0.0
C2047 C 0.4843 0.03324 0.15563 0.0
C2048 C 0.48658 0.03695 0.12163 0.0
C2049 C 0.45023 0.05196 0.1224 0.0
C2050 C 0.4893 0.01841 0.11441 0.0
C2051 C 0.49669 0.01554 0.09681 0.0
C2052 C 0.50135 0.03115 0.08614 0.0
C2053 C 0.49959 0.04988 0.09378 0.0
C2054 C 0.49241 0.0528 0.11151 0.0
H2055 H 0.435 0.0522 0.12405 0.0
H2056 H 0.45727 0.06675 0.11989 0.0
H2057 H 0.45146 0.04176 0.10973 0.0
H2058 H 0.485 0.00602 0.12207 0.0
H2059 H 0.49793 0.00096 0.0912 0.0
H2060 H 0.76696 0.70922 0.95668 0.0
H2061 H 0.77182 0.72925 0.93063 0.0
H2062 H 0.77749 0.67886 0.89297 0.0
H2063 H 0.773 0.65881 0.91895 0.0
H2064 H 0.80352 0.71218 0.88748 0.0
H2065 H 0.73011 0.72637 0.88903 0.0
H2066 H 0.74416 0.73338 0.91092 0.0
H2067 H 0.73794 0.70815 0.90174 0.0
C2068 C 0.76942 0.70244 0.94289 0.0
C2069 C 0.76941 0.68239 0.93983 0.0
C2070 C 0.77211 0.71389 0.92801 0.0
C2071 C 0.77468 0.70547 0.9098 0.0
C2072 C 0.77546 0.68563 0.9069 0.0
H2073 H 0.75052 0.74044 0.80164 0.0
H2074 H 0.75297 0.72465 0.83025 0.0
C2075 C 0.77284 0.67419 0.92176 0.0
C2076 C 0.7756 0.71699 0.89352 0.0
H2077 H 0.74942 0.74132 0.86691 0.0
C2078 C 0.79176 0.71867 0.88303 0.0
C2079 C 0.76012 0.72522 0.88763 0.0
C2080 C 0.74202 0.72309 0.89778 0.0
C2081 C 0.79279 0.72826 0.86669 0.0
C2082 C 0.77734 0.73656 0.86088 0.0
C2083 C 0.76129 0.73505 0.8715 0.0
C2084 C 0.7769 0.7458 0.84319 0.0
C2085 C 0.81007 0.72886 0.85539 0.0
C2086 C 0.78963 0.76291 0.84092 0.0
C2087 C 0.78834 0.77194 0.82445 0.0
C2088 C 0.77426 0.76399 0.81009 0.0
C2089 C 0.76165 0.7468 0.81238 0.0
C2090 C 0.76296 0.73781 0.82876 0.0
H2091 H 0.81901 0.71856 0.85966 0.0
H2092 H 0.80594 0.72535 0.84006 0.0
H2093 H 0.81874 0.74373 0.85764 0.0
H2094 H 0.8003 0.76949 0.85203 0.0
H2095 H 0.79816 0.78523 0.82306 0.0
H2096 H 0.82071 0.1233 -0.00077 0.0
H2097 H 0.84474 0.10323 0.99342 0.0
H2098 H 0.81336 0.0588 0.02298 0.0
H2099 H 0.78924 0.07854 0.02873 0.0
H2100 H 0.86652 0.08915 0.02032 0.0
H2101 H 0.82255 0.02892 0.97247 0.0
H2102 H 0.8158 0.05227 0.97778 0.0
H2103 H 0.81221 0.03462 -0.00565 0.0
C2104 C 0.81892 0.10926 0.0045 0.0
C2105 C 0.80303 0.10249 0.01439 0.0
C2106 C 0.83261 0.09781 0.00111 0.0
C2107 C 0.83055 0.07941 0.00744 0.0
C2108 C 0.81493 0.07277 0.01759 0.0
H2109 H 0.91778 0.01434 0.0274 0.0
H2110 H 0.88929 0.02865 0.02874 0.0
C2111 C 0.80126 0.08417 0.021 0.0
C2112 C 0.84519 0.06747 0.00423 0.0
H2113 H 0.85237 0.02335 0.98436 0.0
C2114 C 0.86348 0.07482 0.01236 0.0
C2115 C 0.84113 0.04888 0.99368 0.0
C2116 C 0.8219 0.04074 0.98391 0.0
C2117 C 0.87778 0.06382 0.01064 0.0
C2118 C 0.87352 0.04491 0.00077 0.0
C2119 C 0.85539 0.03774 0.99217 0.0
C2120 C 0.88804 0.03269 -0.0009 0.0
C2121 C 0.89736 0.07253 0.01933 0.0
C2122 C 0.89596 0.02925 0.98174 0.0
C2123 C 0.91216 0.02098 0.98091 0.0
C2124 C 0.92053 0.01612 -0.00255 0.0
C2125 C 0.91161 0.01806 0.01448 0.0
C2126 C 0.89543 0.02628 0.01528 0.0
H2127 H 0.89926 0.08854 0.02285 0.0
H2128 H 0.89974 0.0661 0.03258 0.0
H2129 H 0.90832 0.06929 0.00963 0.0
H2130 H 0.89033 0.03407 0.96912 0.0
H2131 H 0.91879 0.0196 0.96762 0.0
H2132 H 0.30695 0.40776 0.03704 0.0
H2133 H 0.34067 0.42255 0.03914 0.0
H2134 H 0.3303 0.45835 -0.00415 0.0
H2135 H 0.29676 0.44406 0.99388 0.0
H2136 H 0.36738 0.42437 0.01164 0.0
H2137 H 0.35677 0.49807 0.03872 0.0
H2138 H 0.33845 0.47679 0.03824 0.0
H2139 H 0.34296 0.48838 0.01716 0.0
C2140 C 0.31187 0.41879 0.02799 0.0
C2141 C 0.29912 0.42489 0.01547 0.0
C2142 C 0.33111 0.4272 0.02919 0.0
C2143 C 0.33787 0.44181 0.01792 0.0
C2144 C 0.32528 0.44746 0.00501 0.0
H2145 H 0.44538 0.51291 -0.0 0.0
H2146 H 0.41261 0.49498 -0.00251 0.0
C2147 C 0.30611 0.43919 0.00388 0.0
C2148 C 0.35805 0.45129 0.01953 0.0
H2149 H 0.38725 0.49561 0.02814 0.0
C2150 C 0.37177 0.43991 0.01539 0.0
C2151 C 0.3637 0.47158 0.02447 0.0
C2152 C 0.34972 0.4844 0.03008 0.0
C2153 C 0.391 0.4484 0.01556 0.0
C2154 C 0.39654 0.46872 0.02011 0.0
C2155 C 0.38287 0.48005 0.02446 0.0
C2156 C 0.41654 0.47857 0.02087 0.0
C2157 C 0.40521 0.4357 0.01049 0.0
C2158 C 0.42946 0.47525 0.03485 0.0
C2159 C 0.44805 0.48551 0.03637 0.0
C2160 C 0.45397 0.49927 0.02394 0.0
C2161 C 0.44111 0.50239 0.00975 0.0
C2162 C 0.42246 0.49218 0.00831 0.0
H2163 H 0.39829 0.42115 0.00346 0.0
H2164 H 0.41555 0.44267 0.00101 0.0
H2165 H 0.41318 0.43364 0.02355 0.0
H2166 H 0.42505 0.46501 0.04484 0.0
H2167 H 0.45774 0.4828 0.04739 0.0
H2168 H 0.31132 0.55827 0.72643 0.0
H2169 H 0.29487 0.5858 0.73084 0.0
H2170 H 0.3425 0.61886 0.76591 0.0
H2171 H 0.35915 0.59148 0.76152 0.0
H2172 H 0.30214 0.61818 0.77923 0.0
H2173 H 0.31421 0.63869 0.70678 0.0
H2174 H 0.30551 0.61351 0.70929 0.0
H2175 H 0.32899 0.62471 0.71837 0.0
C2176 C 0.31825 0.57133 0.73522 0.0
C2177 C 0.33657 0.57273 0.74357 0.0
C2178 C 0.30885 0.58704 0.73766 0.0
C2179 C 0.31757 0.60435 0.74856 0.0
C2180 C 0.33559 0.6056 0.7574 0.0
H2181 H 0.29324 0.71712 0.78431 0.0
H2182 H 0.30429 0.68636 0.78085 0.0
C2183 C 0.34507 0.58996 0.75487 0.0
C2184 C 0.30815 0.62138 0.75033 0.0
H2185 H 0.29751 0.65777 0.72626 0.0
C2186 C 0.30103 0.62683 0.76766 0.0
C2187 C 0.30663 0.63245 0.73514 0.0
C2188 C 0.31429 0.62721 0.71632 0.0
C2189 C 0.29245 0.64321 0.77024 0.0
C2190 C 0.29147 0.65472 0.75522 0.0
C2191 C 0.29827 0.64898 0.73777 0.0
C2192 C 0.28425 0.67322 0.75755 0.0
C2193 C 0.28432 0.64787 0.78896 0.0
C2194 C 0.26966 0.67636 0.74521 0.0
C2195 C 0.26343 0.69413 0.74697 0.0
C2196 C 0.27171 0.7091 0.76112 0.0
C2197 C 0.28635 0.70588 0.7734 0.0
C2198 C 0.29263 0.6882 0.77154 0.0
H2199 H 0.28055 0.63468 0.79629 0.0
H2200 H 0.29506 0.65842 0.79822 0.0
H2201 H 0.27151 0.65436 0.78715 0.0
H2202 H 0.2631 0.66507 0.73419 0.0
H2203 H 0.25219 0.69614 0.73722 0.0
H2204 H 0.21082 0.59812 0.50612 0.0
H2205 H 0.17714 0.58496 0.50093 0.0
H2206 H 0.16601 0.64244 0.49599 0.0
H2207 H 0.19991 0.6559 0.5019 0.0
H2208 H 0.14229 0.62415 0.51824 0.0
H2209 H 0.14379 0.57456 0.45341 0.0
H2210 H 0.15983 0.56972 0.47141 0.0
H2211 H 0.16392 0.59299 0.46239 0.0
C2212 C 0.20125 0.60797 0.50376 0.0
C2213 C 0.20797 0.62803 0.50434 0.0
C2214 C 0.182 0.60039 0.50062 0.0
C2215 C 0.16912 0.61264 0.49757 0.0
C2216 C 0.17577 0.63272 0.49811 0.0
H2217 H 0.05224 0.55244 0.46971 0.0
H2218 H 0.08305 0.57316 0.4677 0.0
C2219 C 0.19508 0.64038 0.5015 0.0
C2220 C 0.14865 0.60445 0.49522 0.0
H2221 H 0.11698 0.56625 0.47245 0.0
C2222 C 0.13665 0.61172 0.50799 0.0
C2223 C 0.14118 0.58854 0.48155 0.0
C2224 C 0.15285 0.58118 0.4663 0.0
C2225 C 0.11766 0.60271 0.50824 0.0
C2226 C 0.11073 0.58561 0.49583 0.0
C2227 C 0.1224 0.57911 0.48225 0.0
C2228 C 0.09179 0.57372 0.49722 0.0
C2229 C 0.10532 0.61157 0.5219 0.0
C2230 C 0.0866 0.56692 0.5144 0.0
C2231 C 0.06892 0.5553 0.51565 0.0
C2232 C 0.05633 0.54988 0.49961 0.0
C2233 C 0.0617 0.55631 0.4823 0.0
C2234 C 0.07926 0.56821 0.48114 0.0
H2235 H 0.1103 0.62752 0.52503 0.0
H2236 H 0.09033 0.6088 0.51629 0.0
H2237 H 0.10605 0.6052 0.53542 0.0
H2238 H 0.0963 0.5704 0.52683 0.0
H2239 H 0.06524 0.55037 0.52912 0.0
H2240 H 0.63895 0.92727 0.75639 0.0
H2241 H 0.66446 0.9098 0.76268 0.0
H2242 H 0.70562 0.96239 0.76165 0.0
H2243 H 0.68017 0.97991 0.75495 0.0
H2244 H 0.71438 0.93262 0.73934 0.0
H2245 H 0.69822 0.90902 0.80917 0.0
H2246 H 0.67782 0.90241 0.79288 0.0
H2247 H 0.68779 0.9277 0.79964 0.0
C2248 C 0.65341 0.93518 0.75778 0.0
C2249 C 0.65757 0.95494 0.75513 0.0
C2250 C 0.66797 0.92522 0.76153 0.0
C2251 C 0.68692 0.93488 0.76295 0.0
C2252 C 0.69108 0.95471 0.76075 0.0
H2253 H 0.76708 0.85948 0.78799 0.0
H2254 H 0.75395 0.88936 0.78939 0.0
C2255 C 0.67653 0.96468 0.7569 0.0
C2256 C 0.70233 0.92377 0.76491 0.0
H2257 H 0.71653 0.88975 0.78991 0.0
C2258 C 0.71512 0.92355 0.75062 0.0
C2259 C 0.70358 0.91227 0.77983 0.0
C2260 C 0.69124 0.91302 0.79635 0.0
C2261 C 0.72819 0.91103 0.7501 0.0
C2262 C 0.72817 0.89817 0.76403 0.0
C2263 C 0.71637 0.89945 0.77909 0.0
C2264 C 0.73851 0.88183 0.7621 0.0
C2265 C 0.74155 0.91135 0.73437 0.0
C2266 C 0.73439 0.86788 0.7462 0.0
C2267 C 0.74186 0.85093 0.74537 0.0
C2268 C 0.75344 0.84755 0.76051 0.0
C2269 C 0.75822 0.86182 0.77611 0.0
C2270 C 0.75073 0.87884 0.77694 0.0
H2271 H 0.7447 0.92597 0.72946 0.0
H2272 H 0.75506 0.9072 0.73889 0.0
H2273 H 0.73481 0.90091 0.72218 0.0
H2274 H 0.72463 0.86965 0.73481 0.0
H2275 H 0.7379 0.84011 0.73322 0.0
H2276 H 0.66828 0.88471 0.53016 0.0
H2277 H 0.642 0.90259 0.53225 0.0
H2278 H 0.68195 0.95666 0.54337 0.0
H2279 H 0.70804 0.93907 0.54169 0.0
H2280 H 0.65215 0.9549 0.56649 0.0
H2281 H 0.62718 0.93422 0.49091 0.0
H2282 H 0.62813 0.91437 0.50457 0.0
H2283 H 0.64965 0.9302 0.50024 0.0
C2284 C 0.6714 0.90039 0.53316 0.0
C2285 C 0.69022 0.91049 0.53559 0.0
C2286 C 0.65641 0.91058 0.53425 0.0
C2287 C 0.66007 0.93096 0.53769 0.0
C2288 C 0.67882 0.94094 0.54066 0.0
H2289 H 0.59204 0.01368 0.50968 0.0
H2290 H 0.61654 0.99406 0.51327 0.0
C2291 C 0.69372 0.93084 0.53963 0.0
C2292 C 0.64461 0.94224 0.53774 0.0
H2293 H 0.61056 0.95455 0.50914 0.0
C2294 C 0.64294 0.95475 0.554 0.0
C2295 C 0.63285 0.94219 0.52133 0.0
C2296 C 0.63456 0.92967 0.50319 0.0
C2297 C 0.63001 0.96745 0.55423 0.0
C2298 C 0.61821 0.96735 0.53783 0.0
C2299 C 0.61967 0.95461 0.52167 0.0
C2300 C 0.60441 0.98051 0.53693 0.0
C2301 C 0.62958 0.98129 0.57179 0.0
C2302 C 0.58969 0.97964 0.54925 0.0
C2303 C 0.57588 0.99099 0.54736 0.0
C2304 C 0.57641 0.0032 0.53296 0.0
C2305 C 0.59139 0.00447 0.52095 0.0
C2306 C 0.60529 0.99319 0.52293 0.0
H2307 H 0.64282 0.98326 0.58097 0.0
H2308 H 0.62751 -0.00426 0.56816 0.0
H2309 H 0.61764 0.97533 0.58007 0.0
H2310 H 0.5885 0.9697 0.55991 0.0
H2311 H 0.56437 0.98966 0.5567 0.0
H2312 H 0.3556 0.44548 0.69241 0.0
H2313 H 0.33596 0.41336 0.69269 0.0
H2314 H 0.30534 0.4363 0.73777 0.0
H2315 H 0.32439 0.46856 0.73703 0.0
H2316 H 0.3349 0.3918 0.72019 0.0
H2317 H 0.26236 0.40396 0.70531 0.0
H2318 H 0.283 0.42164 0.70174 0.0
H2319 H 0.27399 0.42053 0.72487 0.0
C2320 C 0.34439 0.44376 0.70209 0.0
C2321 C 0.34152 0.45956 0.71468 0.0
C2322 C 0.3332 0.42539 0.70227 0.0
C2323 C 0.31902 0.42241 0.71511 0.0
C2324 C 0.31582 0.43829 0.72737 0.0
H2325 H 0.28081 0.31697 0.76426 0.0
H2326 H 0.29725 0.34808 0.75574 0.0
C2327 C 0.32681 0.45674 0.727 0.0
C2328 C 0.30884 0.40246 0.71693 0.0
H2329 H 0.26498 0.37545 0.72042 0.0
C2330 C 0.31959 0.38817 0.71998 0.0
C2331 C 0.28886 0.39757 0.71637 0.0
C2332 C 0.2764 0.4117 0.71168 0.0
C2333 C 0.31096 0.36938 0.72313 0.0
C2334 C 0.29106 0.36493 0.72389 0.0
C2335 C 0.28026 0.37896 0.72014 0.0
C2336 C 0.28121 0.34597 0.72896 0.0
C2337 C 0.32328 0.35448 0.72546 0.0
C2338 C 0.2663 0.33473 0.71705 0.0
C2339 C 0.25665 0.31712 0.72208 0.0
C2340 C 0.2618 0.31047 0.73907 0.0
C2341 C 0.27668 0.32172 0.75099 0.0
C2342 C 0.28618 0.33941 0.74607 0.0
H2343 H 0.33669 0.35796 0.71831 0.0
H2344 H 0.32705 0.35445 0.7407 0.0
H2345 H 0.31589 0.33966 0.71966 0.0
H2346 H 0.26215 0.33956 0.70383 0.0
H2347 H 0.24521 0.30869 0.71265 0.0
H2348 H 0.15981 0.54338 0.24868 0.0
H2349 H 0.18022 0.57532 0.25351 0.0
H2350 H 0.13915 0.59883 0.22183 0.0
H2351 H 0.11839 0.56683 0.21702 0.0
H2352 H 0.19579 0.59871 0.22641 0.0
H2353 H 0.14892 0.63475 0.27233 0.0
H2354 H 0.1458 0.60868 0.26724 0.0
H2355 H 0.13788 0.62282 0.25005 0.0
C2356 C 0.15504 0.5553 0.24272 0.0
C2357 C 0.13739 0.55256 0.23254 0.0
C2358 C 0.16677 0.57354 0.24549 0.0
C2359 C 0.16107 0.58942 0.23824 0.0
C2360 C 0.14363 0.58677 0.2278 0.0
H2361 H 0.22671 0.7006 0.22314 0.0
H2362 H 0.20953 0.66716 0.21959 0.0
C2363 C 0.13184 0.56847 0.22499 0.0
C2364 C 0.17352 0.60872 0.24157 0.0
H2365 H 0.17603 0.65495 0.26266 0.0
C2366 C 0.19152 0.61102 0.23437 0.0
C2367 C 0.16798 0.62459 0.25225 0.0
C2368 C 0.14917 0.62264 0.26108 0.0
C2369 C 0.20401 0.62896 0.23721 0.0
C2370 C 0.19821 0.645 0.24731 0.0
C2371 C 0.18038 0.64259 0.25486 0.0
C2372 C 0.21006 0.66463 0.24955 0.0
C2373 C 0.22335 0.63058 0.22949 0.0
C2374 C 0.21601 0.67428 0.26762 0.0
C2375 C 0.22581 0.69349 0.26975 0.0
C2376 C 0.22962 0.70338 0.25382 0.0
C2377 C 0.22402 0.69344 0.23573 0.0
C2378 C 0.21429 0.67427 0.23363 0.0
H2379 H 0.22749 0.61615 0.22679 0.0
H2380 H 0.22317 0.63691 0.2159 0.0
H2381 H 0.23425 0.64023 0.23939 0.0
H2382 H 0.21276 0.66706 0.28008 0.0
H2383 H 0.22987 0.70073 0.28388 0.0
H2384 H 0.47177 0.688 0.39696 0.0
H2385 H 0.47195 0.66074 0.41543 0.0
H2386 H 0.50542 0.69923 0.46049 0.0
H2387 H 0.50499 0.72667 0.44227 0.0
H2388 H 0.50424 0.64849 0.42596 0.0
H2389 H 0.46581 0.66696 0.48914 0.0
H2390 H 0.46458 0.67874 0.46796 0.0
H2391 H 0.48482 0.68586 0.48452 0.0
C2392 C 0.47886 0.69074 0.41096 0.0
C2393 C 0.48842 0.70946 0.41815 0.0
C2394 C 0.47896 0.67515 0.42148 0.0
C2395 C 0.48859 0.678 0.43937 0.0
C2396 C 0.4976 0.69678 0.44688 0.0
H2397 H 0.53001 0.58435 0.4886 0.0
H2398 H 0.52777 0.61538 0.47708 0.0
C2399 C 0.49741 0.71243 0.43639 0.0
C2400 C 0.49069 0.66101 0.44927 0.0
H2401 H 0.48201 0.64045 0.49001 0.0
C2402 C 0.49934 0.64671 0.43995 0.0
C2403 C 0.48424 0.65874 0.46748 0.0
C2404 C 0.47418 0.67329 0.47783 0.0
C2405 C 0.50168 0.63012 0.4483 0.0
C2406 C 0.49558 0.62801 0.46668 0.0
C2407 C 0.48689 0.64228 0.47602 0.0
C2408 C 0.49717 0.61048 0.47586 0.0
C2409 C 0.51019 0.61476 0.43716 0.0
C2410 C 0.48075 0.5979 0.47979 0.0
C2411 C 0.48196 0.58025 0.4865 0.0
C2412 C 0.49966 0.57486 0.48939 0.0
C2413 C 0.51615 0.58795 0.48633 0.0
C2414 C 0.51491 0.60566 0.47969 0.0
H2415 H 0.50999 0.61646 0.42185 0.0
H2416 H 0.52514 0.61595 0.44239 0.0
H2417 H 0.50248 0.59997 0.43892 0.0
H2418 H 0.46693 0.60142 0.477 0.0
H2419 H 0.46896 0.57058 0.48882 0.0
H2420 H 0.59961 0.30457 0.64723 0.0
H2421 H 0.62944 0.30629 0.66575 0.0
H2422 H 0.60595 0.33168 0.71481 0.0
H2423 H 0.57598 0.32959 0.69656 0.0
H2424 H 0.65591 0.33543 0.68902 0.0
H2425 H 0.61644 0.27967 0.72966 0.0
H2426 H 0.60658 0.28612 0.70808 0.0
H2427 H 0.60727 0.30174 0.72982 0.0
C2428 C 0.60093 0.31086 0.66186 0.0
C2429 C 0.58538 0.31659 0.67057 0.0
C2430 C 0.61798 0.31188 0.6724 0.0
C2431 C 0.61971 0.31876 0.69172 0.0
C2432 C 0.60473 0.326 0.70001 0.0
H2433 H 0.71975 0.3173 0.76757 0.0
H2434 H 0.69406 0.32948 0.75146 0.0
C2435 C 0.58765 0.3248 0.68956 0.0
C2436 C 0.63625 0.31624 0.70356 0.0
H2437 H 0.64885 0.29002 0.73799 0.0
C2438 C 0.6544 0.32571 0.6999 0.0
C2439 C 0.63417 0.30331 0.71756 0.0
C2440 C 0.61511 0.29197 0.72147 0.0
C2441 C 0.6706 0.32233 0.70974 0.0
C2442 C 0.66844 0.30929 0.72356 0.0
C2443 C 0.65032 0.30019 0.7275 0.0
C2444 C 0.68476 0.303 0.73256 0.0
C2445 C 0.68993 0.33196 0.70482 0.0
C2446 C 0.6878 0.28416 0.72726 0.0
C2447 C 0.7022 0.27723 0.73642 0.0
C2448 C 0.71386 0.28903 0.75103 0.0
C2449 C 0.71093 0.30798 0.75631 0.0
C2450 C 0.69641 0.31496 0.74708 0.0
H2451 H 0.68922 0.34101 0.69306 0.0
H2452 H 0.69737 0.34132 0.7174 0.0
H2453 H 0.69851 0.32075 0.70073 0.0
H2454 H 0.67882 0.27471 0.71617 0.0
H2455 H 0.70398 0.26247 0.73224 0.0
H2456 H -0.0059 0.30422 0.92763 0.0
H2457 H 0.99096 0.33229 0.9497 0.0
H2458 H 0.00529 0.36998 0.90654 0.0
H2459 H 0.00887 0.34211 0.88452 0.0
H2460 H 0.02426 0.38415 0.94024 0.0
H2461 H 0.94758 0.36209 0.94999 0.0
H2462 H 0.96155 0.34442 0.95524 0.0
H2463 H 0.95933 0.35041 0.93147 0.0
C2464 C -0.00339 0.31848 0.92283 0.0
C2465 C 0.00168 0.32091 0.90428 0.0
C2466 C -0.00535 0.33448 0.93542 0.0
C2467 C -0.00249 0.35315 0.92963 0.0
C2468 C 0.00289 0.35566 0.91125 0.0
H2469 H 0.96901 0.46084 0.97677 0.0
H2470 H 0.9686 0.42851 0.96014 0.0
C2471 C 0.00497 0.33971 0.89869 0.0
C2472 C -0.00455 0.37024 0.9428 0.0
H2473 H 0.96388 0.39024 0.96919 0.0
C2474 C 0.01107 0.38547 0.94661 0.0
C2475 C 0.97815 0.37197 0.9509 0.0
C2476 C 0.96063 0.35645 0.94659 0.0
C2477 C 0.00989 0.40247 0.95822 0.0
C2478 C 0.99272 0.40406 0.96666 0.0
C2479 C 0.97707 0.38883 0.96289 0.0
C2480 C 0.99063 0.42193 0.97862 0.0
C2481 C 0.02688 0.41882 0.96083 0.0
C2482 C 0.00246 0.42846 -0.00497 0.0
C2483 C 0.00286 0.44694 0.00442 0.0
C2484 C 0.99119 0.45905 -0.00229 0.0
C2485 C 0.97816 0.45182 0.98225 0.0
C2486 C 0.97793 0.43338 0.97273 0.0
H2487 H 0.03709 0.41717 0.94981 0.0
H2488 H 0.02253 0.43311 0.96041 0.0
H2489 H 0.03432 0.41885 0.97478 0.0
H2490 H 0.01202 0.41962 7e-05 0.0
H2491 H 0.01285 0.45204 0.01648 0.0
H2492 H 0.96747 0.79942 0.16112 0.0
H2493 H 0.93719 0.80051 0.17512 0.0
H2494 H 0.952 0.76602 0.2179 0.0
H2495 H 0.98224 0.76474 0.20404 0.0
H2496 H 0.91468 0.75354 0.19944 0.0
H2497 H 0.93011 0.83219 0.22626 0.0
H2498 H 0.93402 0.82619 0.20179 0.0
H2499 H 0.94847 0.81882 0.21978 0.0
C2500 C 0.96429 0.79203 0.17348 0.0
C2501 C 0.97732 0.78205 0.1815 0.0
C2502 C 0.94704 0.79278 0.18152 0.0
C2503 C 0.94255 0.78359 0.19768 0.0
C2504 C 0.95532 0.77331 0.20549 0.0
H2505 H 0.84529 0.76382 0.26542 0.0
H2506 H 0.87663 0.76584 0.25289 0.0
C2507 C 0.97258 0.77261 0.19754 0.0
C2508 C 0.92438 0.78432 0.2063 0.0
H2509 H 0.89926 0.81501 0.22971 0.0
C2510 C 0.91129 0.76694 0.20611 0.0
C2511 C 0.92007 0.80188 0.21489 0.0
C2512 C 0.93392 0.82085 0.21588 0.0
C2513 C 0.89383 0.76666 0.21412 0.0
C2514 C 0.88959 0.78419 0.22294 0.0
C2515 C 0.90263 0.8016 0.22302 0.0
C2516 C 0.87152 0.78467 0.2319 0.0
C2517 C 0.87992 0.74768 0.2127 0.0
C2518 C 0.8587 0.79539 0.22489 0.0
C2519 C 0.84089 0.79444 0.23217 0.0
C2520 C 0.83571 0.78275 0.24657 0.0
C2521 C 0.84892 0.77283 0.25424 0.0
C2522 C 0.86674 0.77387 0.24701 0.0
H2523 H 0.88324 0.7369 0.20142 0.0
H2524 H 0.88053 0.74144 0.22631 0.0
H2525 H 0.86524 0.7499 0.20978 0.0
H2526 H 0.8622 0.80393 0.21333 0.0
H2527 H 0.83095 0.80225 0.22605 0.0
H2528 H 0.49515 0.3073 0.05854 0.0
H2529 H 0.49422 0.3347 0.04023 0.0
H2530 H 0.49839 0.3734 0.09191 0.0
H2531 H 0.49913 0.34616 0.11028 0.0
H2532 H 0.4708 0.37902 0.06491 0.0
H2533 H 0.5402 0.37738 0.03409 0.0
H2534 H 0.52331 0.35496 0.03046 0.0
H2535 H 0.53286 0.36457 0.05392 0.0
C2536 C 0.49582 0.32164 0.066 0.0
C2537 C 0.49731 0.32457 0.08587 0.0
C2538 C 0.49538 0.33729 0.05552 0.0
C2539 C 0.49649 0.35612 0.06472 0.0
C2540 C 0.49757 0.35899 0.08453 0.0
H2541 H 0.52793 0.47025 0.03316 0.0
H2542 H 0.52565 0.43828 0.04399 0.0
C2543 C 0.49803 0.3434 0.09501 0.0
C2544 C 0.4967 0.37298 0.05385 0.0
H2545 H 0.52338 0.40098 0.02492 0.0
C2546 C 0.4822 0.38375 0.05603 0.0
C2547 C 0.5117 0.37918 0.04242 0.0
C2548 C 0.52801 0.36856 0.04013 0.0
C2549 C 0.48243 0.40077 0.04734 0.0
C2550 C 0.49745 0.407 0.03594 0.0
C2551 C 0.5118 0.39605 0.03352 0.0
C2552 C 0.49938 0.42574 0.02782 0.0
C2553 C 0.46701 0.41236 0.05106 0.0
C2554 C 0.48563 0.42917 0.01468 0.0
C2555 C 0.48687 0.44751 0.00843 0.0
C2556 C 0.50193 0.46273 0.0152 0.0
C2557 C 0.51609 0.45894 0.02771 0.0
C2558 C 0.51484 0.44063 0.03392 0.0
H2559 H 0.4587 0.40769 0.06308 0.0
H2560 H 0.47307 0.4281 0.05414 0.0
H2561 H 0.45716 0.41033 0.03831 0.0
H2562 H 0.47374 0.41776 0.00955 0.0
H2563 H 0.47572 0.44992 -0.00121 0.0
H2564 H 0.97553 0.28503 0.33397 0.0
H2565 H 0.94256 0.28695 0.32722 0.0
H2566 H 0.92736 0.26088 0.37778 0.0
H2567 H 0.96061 0.25907 0.38487 0.0
H2568 H 0.91119 0.25622 0.32194 0.0
H2569 H 0.90418 0.31077 0.38241 0.0
H2570 H 0.9269 0.30657 0.37499 0.0
H2571 H 0.91278 0.28947 0.388 0.0
C2572 C 0.96525 0.27967 0.34372 0.0
C2573 C 0.97076 0.27194 0.36002 0.0
C2574 C 0.94638 0.2808 0.33981 0.0
C2575 C 0.93258 0.27431 0.35212 0.0
C2576 C 0.93788 0.26629 0.36828 0.0
H2577 H 0.81074 0.27074 0.33395 0.0
H2578 H 0.84161 0.26854 0.34869 0.0
C2579 C 0.95684 0.26513 0.37222 0.0
C2580 C 0.91266 0.2757 0.34756 0.0
H2581 H 0.87741 0.29974 0.36116 0.0
C2582 C 0.90375 0.26562 0.33059 0.0
C2583 C 0.90302 0.28796 0.35891 0.0
C2584 C 0.91217 0.29945 0.37705 0.0
C2585 C 0.88559 0.26776 0.32444 0.0
C2586 C 0.8762 0.28049 0.33546 0.0
C2587 C 0.88477 0.29008 0.35276 0.0
C2588 C 0.85779 0.28445 0.32861 0.0
C2589 C 0.87663 0.25657 0.30608 0.0
C2590 C 0.85681 0.29478 0.31295 0.0
C2591 C 0.83929 0.2961 0.30457 0.0
C2592 C 0.82249 0.2871 0.31174 0.0
C2593 C 0.8235 0.27783 0.32816 0.0
C2594 C 0.84107 0.27654 0.33657 0.0
H2595 H 0.88391 0.24446 0.30134 0.0
H2596 H 0.86146 0.25055 0.30748 0.0
H2597 H 0.87746 0.26652 0.29495 0.0
H2598 H 0.86962 0.3011 0.30673 0.0
H2599 H 0.83892 0.30335 0.29194 0.0
H2600 H 0.0007 0.68431 0.61808 0.0
H2601 H 0.99181 0.6539 0.59747 0.0
H2602 H 0.95399 0.67962 0.5638 0.0
H2603 H 0.96352 0.71057 0.58403 0.0
H2604 H 0.95962 0.62912 0.58856 0.0
H2605 H 0.9853 0.66019 0.52376 0.0
H2606 H 0.98991 0.67377 0.54686 0.0
H2607 H 0.96704 0.67087 0.53459 0.0
C2608 C 0.99045 0.68355 0.60632 0.0
C2609 C 0.98296 0.69994 0.60258 0.0
C2610 C 0.98533 0.66609 0.59455 0.0
C2611 C 0.97247 0.66451 0.57886 0.0
C2612 C 0.96433 0.68062 0.57551 0.0
H2613 H 0.95327 0.56038 0.49374 0.0
H2614 H 0.94572 0.58911 0.51256 0.0
C2615 C 0.9697 0.69827 0.58714 0.0
C2616 C 0.96829 0.64608 0.56593 0.0
H2617 H 0.97417 0.6266 0.52111 0.0
C2618 C 0.96252 0.62862 0.57374 0.0
C2619 C 0.97205 0.64538 0.54655 0.0
C2620 C 0.97907 0.66351 0.53742 0.0
C2621 C 0.96143 0.61054 0.56301 0.0
C2622 C 0.966 0.6099 0.54393 0.0
C2623 C 0.97053 0.62724 0.53574 0.0
C2624 C 0.96921 0.59177 0.53323 0.0
C2625 C 0.95628 0.59224 0.57237 0.0
C2626 C 0.98496 0.58403 0.53857 0.0
C2627 C 0.98944 0.56806 0.52776 0.0
C2628 C 0.9781 0.55925 0.51154 0.0
C2629 C 0.96213 0.56681 0.50628 0.0
C2630 C 0.9578 0.58313 0.517 0.0
H2631 H 0.94826 0.59468 0.58509 0.0
H2632 H 0.94775 0.58035 0.56241 0.0
H2633 H 0.96945 0.58744 0.57692 0.0
H2634 H -0.00586 0.59075 0.55083 0.0
H2635 H 0.00207 0.56283 0.53195 0.0
H2636 H 0.55471 0.74537 0.83207 0.0
H2637 H 0.58127 0.74339 0.81213 0.0
H2638 H 0.62042 0.76354 0.86067 0.0
H2639 H 0.59397 0.765 0.88074 0.0
H2640 H 0.60893 0.77161 0.80435 0.0
H2641 H 0.64077 0.71726 0.83855 0.0
H2642 H 0.61753 0.72188 0.84345 0.0
H2643 H 0.63832 0.73744 0.85517 0.0
C2644 C 0.56898 0.74916 0.83852 0.0
C2645 C 0.57224 0.75525 0.858 0.0
C2646 C 0.58414 0.74805 0.82711 0.0
C2647 C 0.60285 0.75301 0.83493 0.0
C2648 C 0.60612 0.75913 0.85438 0.0
H2649 H 0.70498 0.79243 0.78105 0.0
H2650 H 0.6746 0.7889 0.79538 0.0
C2651 C 0.59097 0.76008 0.86583 0.0
C2652 C 0.61897 0.7527 0.82267 0.0
H2653 H 0.66046 0.73618 0.81839 0.0
C2654 C 0.62009 0.76369 0.80729 0.0
C2655 C 0.63338 0.74208 0.82625 0.0
C2656 C 0.63236 0.72884 0.84163 0.0
C2657 C 0.63556 0.76491 0.79585 0.0
C2658 C 0.65056 0.7553 0.80021 0.0
C2659 C 0.64909 0.74374 0.81515 0.0
C2660 C 0.66822 0.7575 0.78995 0.0
C2661 C 0.63558 0.7764 0.77915 0.0
C2662 C 0.67493 0.74104 0.78228 0.0
C2663 C 0.69249 0.74299 0.77432 0.0
C2664 C 0.70369 0.76148 0.77385 0.0
C2665 C 0.69666 0.77798 0.781 0.0
C2666 C 0.6792 0.77599 0.78913 0.0
H2667 H 0.62094 0.77704 0.77403 0.0
H2668 H 0.64309 0.79152 0.7835 0.0
H2669 H 0.64282 0.77004 0.76728 0.0
H2670 H 0.66674 0.72662 0.7828 0.0
H2671 H 0.69745 0.72998 0.76893 0.0
H2672 H 0.37317 0.53224 0.65956 0.0
H2673 H 0.39073 0.53321 0.63089 0.0
H2674 H 0.44338 0.54497 0.66493 0.0
H2675 H 0.426 0.54383 0.6936 0.0
H2676 H 0.41958 0.56237 0.6186 0.0
H2677 H 0.44514 0.49451 0.6302 0.0
H2678 H 0.426 0.50222 0.64264 0.0
H2679 H 0.45012 0.51317 0.6499 0.0
C2680 C 0.38849 0.5352 0.66094 0.0
C2681 C 0.39821 0.53773 0.67883 0.0
C2682 C 0.39848 0.53578 0.64457 0.0
C2683 C 0.41832 0.53885 0.64583 0.0
C2684 C 0.42805 0.54225 0.66368 0.0
H2685 H 0.49943 0.56103 0.5608 0.0
H2686 H 0.47877 0.56388 0.58701 0.0
C2687 C 0.4181 0.54166 0.68003 0.0
C2688 C 0.42886 0.53762 0.62853 0.0
H2689 H 0.45845 0.51166 0.60566 0.0
C2690 C 0.42804 0.55127 0.61569 0.0
C2691 C 0.43961 0.52291 0.62467 0.0
C2692 C 0.44018 0.50724 0.63746 0.0
C2693 C 0.43813 0.55087 0.59927 0.0
C2694 C 0.44944 0.53658 0.5958 0.0
C2695 C 0.44989 0.52269 0.60844 0.0
C2696 C 0.46099 0.53565 0.57918 0.0
C2697 C 0.43644 0.56555 0.58565 0.0
C2698 C 0.45795 0.51877 0.56626 0.0
C2699 C 0.46981 0.51706 0.55145 0.0
C2700 C 0.48492 0.5322 0.54932 0.0
C2701 C 0.48782 0.5492 0.5621 0.0
C2702 C 0.47595 0.55089 0.57696 0.0
H2703 H 0.42372 0.57219 0.58783 0.0
H2704 H 0.44909 0.57735 0.58787 0.0
H2705 H 0.43572 0.55876 0.5708 0.0
H2706 H 0.44658 0.50678 0.56783 0.0
H2707 H 0.46742 0.50368 0.54196 0.0
H2708 H 0.78395 0.21891 0.98271 0.0
H2709 H 0.78518 0.23714 0.95533 0.0
H2710 H 0.80139 0.1892 0.92135 0.0
H2711 H 0.79982 0.17068 0.94854 0.0
H2712 H 0.81135 0.2483 0.92697 0.0
H2713 H 0.74819 0.19312 0.89922 0.0
H2714 H 0.75768 0.19542 0.92334 0.0
H2715 H 0.76881 0.18327 0.90477 0.0
C2716 C 0.78826 0.21243 0.96954 0.0
C2717 C 0.79139 0.19322 0.96763 0.0
C2718 C 0.78899 0.22289 0.95393 0.0
C2719 C 0.79297 0.2143 0.9363 0.0
C2720 C 0.79797 0.1959 0.93482 0.0
H2721 H 0.79866 0.25868 0.82797 0.0
H2722 H 0.80652 0.24986 0.8592 0.0
C2723 C 0.79709 0.18537 0.95036 0.0
C2724 C 0.7893 0.22332 0.9191 0.0
H2725 H 0.76015 0.21623 0.87907 0.0
C2726 C 0.80018 0.24136 0.91645 0.0
C2727 C 0.77438 0.21439 0.90572 0.0
C2728 C 0.76145 0.19558 0.90842 0.0
C2729 C 0.79677 0.25053 0.90042 0.0
C2730 C 0.78229 0.24121 0.88671 0.0
C2731 C 0.77126 0.22333 0.8896 0.0
C2732 C 0.77839 0.24929 0.86897 0.0
C2733 C 0.80848 0.27018 0.89846 0.0
C2734 C 0.75997 0.25183 0.86407 0.0
C2735 C 0.7554 0.25651 0.84613 0.0
C2736 C 0.76921 0.25877 0.83287 0.0
C2737 C 0.78782 0.25706 0.83803 0.0
C2738 C 0.79235 0.2522 0.85591 0.0
H2739 H 0.81476 0.27775 0.91236 0.0
H2740 H 0.82025 0.26826 0.88933 0.0
H2741 H 0.79987 0.27955 0.89184 0.0
H2742 H 0.74897 0.24955 0.87393 0.0
H2743 H 0.74097 0.25781 0.84246 0.0
H2744 H 0.06979 0.44664 0.18783 0.0
H2745 H 0.05161 0.44618 0.15806 0.0
H2746 H 0.09953 0.4819 0.13693 0.0
H2747 H 0.11797 0.48201 0.16657 0.0
H2748 H 0.0453 0.48189 0.15063 0.0
H2749 H 0.07622 0.44668 0.08922 0.0
H2750 H 0.08052 0.44146 0.11315 0.0
H2751 H 0.0931 0.46328 0.10521 0.0
C2752 C 0.07667 0.45377 0.17656 0.0
C2753 C 0.09516 0.46458 0.17954 0.0
C2754 C 0.06629 0.45346 0.15956 0.0
C2755 C 0.07421 0.46402 0.14533 0.0
C2756 C 0.09325 0.47337 0.14761 0.0
H2757 H 0.02986 0.52928 0.06658 0.0
H2758 H 0.04812 0.5154 0.08959 0.0
C2759 C 0.10375 0.47351 0.16459 0.0
C2760 C 0.06161 0.46852 0.1302 0.0
H2761 H 0.05468 0.46764 0.08248 0.0
C2762 C 0.04716 0.47848 0.13572 0.0
C2763 C 0.06425 0.46424 0.11081 0.0
C2764 C 0.07926 0.45318 0.10418 0.0
C2765 C 0.03559 0.48475 0.12236 0.0
C2766 C 0.03851 0.48089 0.10305 0.0
C2767 C 0.05261 0.47056 0.09739 0.0
C2768 C 0.02769 0.48868 0.08872 0.0
C2769 C 0.02066 0.49601 0.12889 0.0
C2770 C 0.01011 0.47825 0.08098 0.0
C2771 C -0.00038 0.48617 0.06792 0.0
C2772 C 0.0067 0.50454 0.06248 0.0
C2773 C 0.02416 0.51505 0.07055 0.0
C2774 C 0.03463 0.50713 0.08353 0.0
H2775 H 0.01981 0.4973 0.14448 0.0
H2776 H 0.02385 0.51083 0.12445 0.0
H2777 H 0.00662 0.48878 0.12213 0.0
H2778 H 0.00454 0.46404 0.08507 0.0
H2779 H 0.98621 0.47779 0.0618 0.0
H2780 H 0.75365 0.84114 0.47507 0.0
H2781 H 0.76001 0.82393 0.44504 0.0
H2782 H 0.72993 0.86 0.41471 0.0
H2783 H 0.72386 0.87749 0.4445 0.0
H2784 H 0.73721 0.80299 0.4156 0.0
H2785 H 0.78059 0.86777 0.39118 0.0
H2786 H 0.77377 0.86725 0.4152 0.0
H2787 H 0.75754 0.87181 0.39703 0.0
C2788 C 0.74827 0.84532 0.46201 0.0
C2789 C 0.7384 0.86085 0.4622 0.0
C2790 C 0.75197 0.8355 0.44486 0.0
C2791 C 0.74588 0.84103 0.42762 0.0
C2792 C 0.73527 0.85588 0.42782 0.0
H2793 H 0.72801 0.78021 0.31657 0.0
H2794 H 0.72685 0.79354 0.34925 0.0
C2795 C 0.73167 0.86577 0.4449 0.0
C2796 C 0.75055 0.83134 0.40938 0.0
H2797 H 0.76976 0.84068 0.36761 0.0
C2798 C 0.74451 0.81119 0.40518 0.0
C2799 C 0.76049 0.84195 0.39595 0.0
C2800 C 0.76866 0.86335 0.40013 0.0
C2801 C 0.7473 0.80153 0.38756 0.0
C2802 C 0.756 0.8124 0.37363 0.0
C2803 C 0.76288 0.83238 0.37818 0.0
C2804 C 0.75709 0.8036 0.35393 0.0
C2805 C 0.74087 0.77979 0.38406 0.0
C2806 C 0.77446 0.80529 0.34539 0.0
C2807 C 0.77518 0.79787 0.32647 0.0
C2808 C 0.75851 0.78869 0.31573 0.0
C2809 C 0.74118 0.78704 0.32439 0.0
C2810 C 0.74048 0.79452 0.3432 0.0
H2811 H 0.74072 0.77309 0.39748 0.0
H2812 H 0.72622 0.77644 0.37748 0.0
H2813 H 0.75013 0.77298 0.37443 0.0
H2814 H 0.78745 0.81242 0.35337 0.0
H2815 H 0.78875 0.79942 0.32026 0.0
H2816 H 0.41599 0.4846 0.77652 0.0
H2817 H 0.42485 0.48139 0.80923 0.0
H2818 H 0.40076 0.53139 0.82786 0.0
H2819 H 0.39111 0.53419 0.79506 0.0
H2820 H 0.44872 0.50521 0.83259 0.0
H2821 H 0.37946 0.49531 0.8645 0.0
H2822 H 0.38151 0.49385 0.83928 0.0
H2823 H 0.38388 0.51711 0.85323 0.0
C2824 C 0.41244 0.49485 0.78758 0.0
C2825 C 0.40289 0.50969 0.7832 0.0
C2826 C 0.41746 0.49295 0.8063 0.0
C2827 C 0.41324 0.50596 0.82109 0.0
C2828 C 0.4037 0.52083 0.81678 0.0
H2829 H 0.47713 0.53606 0.92717 0.0
H2830 H 0.46193 0.53366 0.89561 0.0
C2831 C 0.39836 0.52254 0.79801 0.0
C2832 C 0.42019 0.50476 0.84077 0.0
H2833 H 0.40699 0.50361 0.88616 0.0
C2834 C 0.4395 0.50465 0.84423 0.0
C2835 C 0.40817 0.50367 0.85598 0.0
C2836 C 0.38707 0.50227 0.85304 0.0
C2837 C 0.44723 0.50409 0.86247 0.0
C2838 C 0.43547 0.50431 0.87784 0.0
C2839 C 0.41603 0.50372 0.87438 0.0
C2840 C 0.44343 0.50618 0.89761 0.0
C2841 C 0.46797 0.50321 0.86506 0.0
C2842 C 0.43741 0.49198 0.9096 0.0
C2843 C 0.44594 0.49347 0.92789 0.0
C2844 C 0.46059 0.50917 0.9343 0.0
C2845 C 0.46605 0.52365 0.92249 0.0
C2846 C 0.45744 0.52226 0.90441 0.0
H2847 H 0.47327 0.4968 0.8519 0.0
H2848 H 0.47624 0.51816 0.86862 0.0
H2849 H 0.47067 0.49451 0.87665 0.0
H2850 H 0.42647 0.47954 0.90465 0.0
H2851 H 0.44143 0.48219 0.9368 0.0
H2852 H 0.75043 0.15636 0.08893 0.0
H2853 H 0.75496 0.17734 0.11889 0.0
H2854 H 0.79325 0.22065 0.09397 0.0
H2855 H 0.78871 0.19983 0.06378 0.0
H2856 H 0.78985 0.19281 0.14057 0.0
H2857 H 0.75341 0.25044 0.11728 0.0
H2858 H 0.75044 0.22658 0.10421 0.0
H2859 H 0.77187 0.24388 0.10316 0.0
C2860 C 0.75982 0.17033 0.08977 0.0
C2861 C 0.76915 0.17644 0.07393 0.0
C2862 C 0.7624 0.18229 0.1069 0.0
C2863 C 0.77425 0.20059 0.10851 0.0
C2864 C 0.78381 0.20668 0.09287 0.0
H2865 H 0.79285 0.28342 0.21243 0.0
H2866 H 0.79565 0.26929 0.17982 0.0
C2867 C 0.78127 0.19471 0.07569 0.0
C2868 C 0.77659 0.21307 0.12674 0.0
H2869 H 0.7648 0.25409 0.14915 0.0
C2870 C 0.78457 0.20632 0.14242 0.0
C2871 C 0.76979 0.23073 0.12901 0.0
C2872 C 0.76077 0.23837 0.1126 0.0
C2873 C 0.78538 0.21646 0.16049 0.0
C2874 C 0.77779 0.23363 0.16291 0.0
C2875 C 0.7706 0.2409 0.14714 0.0
C2876 C 0.77546 0.24295 0.18193 0.0
C2877 C 0.79394 0.2085 0.17697 0.0
C2878 C 0.76281 0.233 0.19352 0.0
C2879 C 0.76118 0.24096 0.21193 0.0
C2880 C 0.77212 0.25908 0.21906 0.0
C2881 C 0.78431 0.26941 0.20723 0.0
C2882 C 0.78592 0.26139 0.18869 0.0
H2883 H 0.80347 0.19843 0.17227 0.0
H2884 H 0.80204 0.22043 0.18719 0.0
H2885 H 0.78244 0.20032 0.18444 0.0
H2886 H 0.75443 0.21887 0.1884 0.0
H2887 H 0.75166 0.23267 0.22071 0.0
H2888 H 0.08938 0.48282 0.29424 0.0
H2889 H 0.07365 0.48308 0.32392 0.0
H2890 H 0.02961 0.5082 0.29889 0.0
H2891 H 0.04504 0.50777 0.26907 0.0
H2892 H 0.06613 0.51558 0.34549 0.0
H2893 H -5e-05 0.46261 0.32299 0.0
H2894 H 0.02063 0.46473 0.30935 0.0
H2895 H 0.00508 0.48192 0.30837 0.0
C2896 C 0.07628 0.48829 0.29499 0.0
C2897 C 0.06845 0.49526 0.27928 0.0
C2898 C 0.06732 0.4884 0.31194 0.0
C2899 C 0.05035 0.49539 0.31345 0.0
C2900 C 0.04248 0.50236 0.29784 0.0
H2901 H 0.00583 0.53633 0.41753 0.0
H2902 H 0.01653 0.53253 0.38548 0.0
C2903 C 0.05141 0.50223 0.28087 0.0
C2904 C 0.04149 0.49642 0.3317 0.0
H2905 H 0.00103 0.48079 0.35326 0.0
C2906 C 0.05193 0.50792 0.34722 0.0
C2907 C 0.02303 0.48626 0.33387 0.0
C2908 C 0.01155 0.47303 0.31782 0.0
C2909 C 0.04429 0.50978 0.36488 0.0
C2910 C 0.02561 0.50012 0.36692 0.0
C2911 C 0.01526 0.48835 0.3515 0.0
C2912 C 0.01686 0.50185 0.38517 0.0
C2913 C 0.05635 0.52185 0.38128 0.0
C2914 C 0.01274 0.48565 0.39515 0.0
C2915 C 0.00652 0.48776 0.41339 0.0
C2916 C 0.00434 0.50609 0.42179 0.0
C2917 C 0.00752 0.52207 0.41138 0.0
C2918 C 0.01368 0.51994 0.39315 0.0
H2919 H 0.07161 0.52448 0.37846 0.0
H2920 H 0.05196 0.53615 0.38382 0.0
H2921 H 0.05454 0.51465 0.39438 0.0
H2922 H 0.01506 0.47156 0.38912 0.0
H2923 H 0.00413 0.47522 0.42116 0.0
H2924 H 0.72901 0.82371 0.56184 0.0
H2925 H 0.72905 0.80662 0.59 0.0
H2926 H 0.76438 0.85717 0.62097 0.0
H2927 H 0.76406 0.87449 0.59305 0.0
H2928 H 0.75765 0.79717 0.61147 0.0
H2929 H 0.72082 0.84698 0.65485 0.0
H2930 H 0.72231 0.84733 0.62969 0.0
H2931 H 0.74196 0.85926 0.64571 0.0
C2932 C 0.73685 0.83117 0.57463 0.0
C2933 C 0.74641 0.85052 0.57525 0.0
C2934 C 0.73684 0.82138 0.59072 0.0
C2935 C 0.74636 0.83076 0.60772 0.0
C2936 C 0.7565 0.84982 0.60816 0.0
H2937 H 0.77058 0.7996 0.71846 0.0
H2938 H 0.76818 0.81506 0.68955 0.0
C2939 C 0.75643 0.85965 0.59213 0.0
C2940 C 0.74574 0.82059 0.62497 0.0
H2941 H 0.73431 0.82434 0.67106 0.0
C2942 C 0.7524 0.80301 0.62445 0.0
C2943 C 0.73878 0.82818 0.64189 0.0
C2944 C 0.73038 0.84637 0.64307 0.0
C2945 C 0.75282 0.79315 0.64055 0.0
C2946 C 0.74625 0.80099 0.65753 0.0
C2947 C 0.73937 0.81841 0.65801 0.0
C2948 C 0.74705 0.79169 0.67517 0.0
C2949 C 0.76077 0.77471 0.63946 0.0
C2950 C 0.73569 0.77357 0.67677 0.0
C2951 C 0.7369 0.76477 0.69338 0.0
C2952 C 0.74951 0.77395 0.70859 0.0
C2953 C 0.76064 0.79222 0.70702 0.0
C2954 C 0.75934 0.80106 0.6905 0.0
H2955 H 0.76829 0.77245 0.62637 0.0
H2956 H 0.77071 0.77497 0.65187 0.0
H2957 H 0.74904 0.76212 0.63963 0.0
H2958 H 0.72595 0.76624 0.66515 0.0
H2959 H 0.72814 0.7507 0.69422 0.0
H2960 H 0.66414 0.41016 0.51817 0.0
H2961 H 0.6441 0.43472 0.52122 0.0
H2962 H 0.69342 0.4794 0.53673 0.0
H2963 H 0.7136 0.45501 0.53311 0.0
H2964 H 0.63823 0.46128 0.55008 0.0
H2965 H 0.67053 0.49841 0.49103 0.0
H2966 H 0.67505 0.47512 0.49622 0.0
H2967 H 0.68666 0.49695 0.51051 0.0
C2968 C 0.67069 0.42519 0.52237 0.0
C2969 C 0.69042 0.43074 0.52512 0.0
C2970 C 0.65924 0.4392 0.52414 0.0
C2971 C 0.66734 0.45891 0.52882 0.0
C2972 C 0.68695 0.46434 0.53263 0.0
H2973 H 0.58341 0.53528 0.54243 0.0
H2974 H 0.61302 0.5239 0.54902 0.0
C2975 C 0.69843 0.45038 0.53064 0.0
C2976 C 0.65519 0.4737 0.52876 0.0
H2977 H 0.64544 0.51054 0.5048 0.0
C2978 C 0.63991 0.47224 0.54038 0.0
C2979 C 0.65746 0.48791 0.51599 0.0
C2980 C 0.6732 0.48967 0.5026 0.0
C2981 C 0.62625 0.48397 0.53895 0.0
C2982 C 0.62828 0.49787 0.52587 0.0
C2983 C 0.64408 0.49999 0.51493 0.0
C2984 C 0.61277 0.50806 0.52127 0.0
C2985 C 0.60917 0.48047 0.55056 0.0
C2986 C 0.60361 0.50399 0.50314 0.0
C2987 C 0.58696 0.51066 0.49929 0.0
C2988 C 0.57918 0.52146 0.51355 0.0
C2989 C 0.58911 0.52686 0.53126 0.0
C2990 C 0.6059 0.52025 0.53507 0.0
H2991 H 0.60823 0.46693 0.55745 0.0
H2992 H 0.61004 0.4928 0.5618 0.0
H2993 H 0.59594 0.47947 0.54161 0.0
H2994 H 0.60875 0.49468 0.49226 0.0
H2995 H 0.57961 0.50639 0.48549 0.0
H2996 H 0.18254 0.14492 0.48392 0.0
H2997 H 0.15011 0.12775 0.48669 0.0
H2998 H 0.16668 0.07325 0.46858 0.0
H2999 H 0.19901 0.09016 0.4659 0.0
H3000 H 0.12401 0.10213 0.45959 0.0
H3001 H 0.14433 0.06551 0.52035 0.0
H3002 H 0.15948 0.08621 0.51266 0.0
H3003 H 0.15819 0.06237 0.50031 0.0
C3004 C 0.17922 0.1293 0.48037 0.0
C3005 C 0.19335 0.11886 0.47488 0.0
C3006 C 0.16072 0.11954 0.48199 0.0
C3007 C 0.15617 0.09923 0.47822 0.0
C3008 C 0.17005 0.0889 0.47194 0.0
H3009 H 0.051 0.01898 0.45624 0.0
H3010 H 0.08186 0.04012 0.45545 0.0
C3011 C 0.18848 0.09861 0.47032 0.0
C3012 C 0.13702 0.08864 0.48106 0.0
H3013 H 0.11359 0.05341 0.50533 0.0
C3014 C 0.12167 0.0916 0.46969 0.0
C3015 C 0.134 0.07517 0.49449 0.0
C3016 C 0.14983 0.07222 0.50779 0.0
C3017 C 0.10344 0.0808 0.47086 0.0
C3018 C 0.10065 0.06655 0.48354 0.0
C3019 C 0.11585 0.06418 0.49546 0.0
C3020 C 0.08219 0.05353 0.48423 0.0
C3021 C 0.08733 0.08471 0.45851 0.0
C3022 C 0.07251 0.05361 0.50088 0.0
C3023 C 0.05495 0.04143 0.50139 0.0
C3024 C 0.04696 0.02888 0.48533 0.0
C3025 C 0.05688 0.02852 0.46883 0.0
C3026 C 0.0744 0.04069 0.46831 0.0
H3027 H 0.09063 0.09933 0.45361 0.0
H3028 H 0.0847 0.07375 0.44586 0.0
H3029 H 0.07412 0.08361 0.46615 0.0
H3030 H 0.07836 0.06338 0.51334 0.0
H3031 H 0.04744 0.04224 0.51415 0.0
H3032 H 0.14177 0.92885 0.77852 0.0
H3033 H 0.1597 0.90268 0.77985 0.0
H3034 H 0.21195 0.94439 0.78373 0.0
H3035 H 0.1941 0.97067 0.7821 0.0
H3036 H 0.21183 0.91372 0.75699 0.0
H3037 H 0.18864 0.88688 0.82397 0.0
H3038 H 0.16914 0.88797 0.80785 0.0
H3039 H 0.18493 0.91002 0.8174 0.0
C3040 C 0.15707 0.9325 0.77985 0.0
C3041 C 0.16651 0.95185 0.78023 0.0
C3042 C 0.16731 0.91752 0.78075 0.0
C3043 C 0.18717 0.9216 0.7822 0.0
C3044 C 0.19663 0.94093 0.78274 0.0
H3045 H 0.25269 0.83037 0.79903 0.0
H3046 H 0.24054 0.86077 0.80286 0.0
C3047 C 0.18641 0.95593 0.78182 0.0
C3048 C 0.198 0.90556 0.7819 0.0
H3049 H 0.20324 0.86559 0.80336 0.0
C3050 C 0.21012 0.90332 0.76726 0.0
C3051 C 0.196 0.89216 0.79546 0.0
C3052 C 0.18412 0.89446 0.81217 0.0
C3053 C 0.21967 0.88761 0.76536 0.0
C3054 C 0.21676 0.87357 0.77825 0.0
C3055 C 0.20529 0.87625 0.79336 0.0
C3056 C 0.22474 0.85554 0.77574 0.0
C3057 C 0.23275 0.88618 0.74951 0.0
C3058 C 0.21975 0.84247 0.7593 0.0
C3059 C 0.22669 0.82517 0.75704 0.0
C3060 C 0.23867 0.82047 0.77124 0.0
C3061 C 0.24363 0.83359 0.78774 0.0
C3062 C 0.23665 0.85094 0.78999 0.0
H3063 H 0.23792 0.90062 0.74477 0.0
H3064 H 0.24513 0.87994 0.75386 0.0
H3065 H 0.22494 0.87658 0.73726 0.0
H3066 H 0.21022 0.8455 0.74831 0.0
H3067 H 0.22244 0.81539 0.7442 0.0
H3068 H 0.29496 0.90592 0.02052 0.0
H3069 H 0.32913 0.91728 0.02674 0.0
H3070 H 0.32807 0.95918 0.987 0.0
H3071 H 0.29409 0.94816 0.98078 0.0
H3072 H 0.35834 0.91895 0.00125 0.0
H3073 H 0.35349 0.99197 0.03566 0.0
H3074 H 0.33346 0.97211 0.03218 0.0
H3075 H 0.34051 0.98607 0.01311 0.0
C3076 C 0.30201 0.91753 0.01308 0.0
C3077 C 0.29178 0.92624 0.00026 0.0
C3078 C 0.32149 0.924 0.01668 0.0
C3079 C 0.33095 0.9393 0.0076 0.0
C3080 C 0.32089 0.94764 -0.00555 0.0
H3081 H 0.44346 0.97758 0.98011 0.0
H3082 H 0.41081 0.96159 0.9825 0.0
C3083 C 0.30148 0.94123 0.99085 0.0
C3084 C 0.35143 0.94652 0.0115 0.0
H3085 H 0.38368 0.98812 0.02447 0.0
C3086 C 0.36394 0.93399 0.0066 0.0
C3087 C 0.35862 0.96603 0.01883 0.0
C3088 C 0.34582 0.97978 0.02544 0.0
C3089 C 0.38354 0.94081 0.00779 0.0
C3090 C 0.39064 0.9607 0.01372 0.0
C3091 C 0.37817 0.97293 0.01969 0.0
C3092 C 0.41075 0.96946 0.01266 0.0
C3093 C 0.39643 0.92674 0.00244 0.0
C3094 C 0.42136 0.97961 0.02876 0.0
C3095 C 0.43999 0.98899 0.02742 0.0
C3096 C 0.44826 0.98844 0.00991 0.0
C3097 C 0.43756 0.97822 0.99382 0.0
C3098 C 0.41895 0.96891 -0.00482 0.0
H3099 H 0.38972 0.9116 0.00423 0.0
H3100 H 0.39943 0.92717 0.98734 0.0
H3101 H 0.41008 0.93057 0.01105 0.0
H3102 H 0.41517 0.98035 0.04234 0.0
H3103 H 0.44784 -0.00328 0.04009 0.0
H3104 H 0.87588 0.59864 0.78997 0.0
H3105 H 0.85375 0.62114 0.78958 0.0
H3106 H 0.80933 0.57431 0.76535 0.0
H3107 H 0.83133 0.55164 0.76575 0.0
H3108 H 0.83547 0.62636 0.7542 0.0
H3109 H 0.78421 0.60476 0.80782 0.0
H3110 H 0.80764 0.59893 0.80822 0.0
H3111 H 0.7895 0.58558 0.79136 0.0
C3112 C 0.86131 0.59303 0.78494 0.0
C3113 C 0.85537 0.5734 0.77778 0.0
C3114 C 0.8487 0.6059 0.78471 0.0
C3115 C 0.82994 0.59933 0.7775 0.0
C3116 C 0.8237 0.57958 0.77119 0.0
H3117 H 0.76183 0.67845 0.7349 0.0
H3118 H 0.77472 0.64895 0.73839 0.0
C3119 C 0.83632 0.56669 0.77136 0.0
C3120 C 0.8176 0.61352 0.77469 0.0
H3121 H 0.77794 0.62921 0.78944 0.0
C3122 C 0.82284 0.62696 0.76182 0.0
C3123 C 0.80117 0.61414 0.78469 0.0
C3124 C 0.79526 0.6002 0.79891 0.0
C3125 C 0.81221 0.64127 0.75886 0.0
C3126 C 0.79579 0.64197 0.76887 0.0
C3127 C 0.79042 0.62842 0.78163 0.0
C3128 C 0.78518 0.65789 0.76748 0.0
C3129 C 0.81901 0.65596 0.74552 0.0
C3130 C 0.78615 0.67217 0.78291 0.0
C3131 C 0.77885 0.68892 0.78095 0.0
C3132 C 0.7704 0.69158 0.76355 0.0
C3133 C 0.76836 0.67674 0.74843 0.0
C3134 C 0.77573 0.65995 0.7504 0.0
H3135 H 0.83364 0.6554 0.74146 0.0
H3136 H 0.80951 0.65299 0.73246 0.0
H3137 H 0.81864 0.67091 0.75204 0.0
H3138 H 0.79339 0.6708 0.7962 0.0
H3139 H 0.78049 0.70012 0.79287 0.0
H3140 H 0.81552 0.6302 0.98167 0.0
H3141 H 0.84559 0.61856 0.97922 0.0
H3142 H 0.82006 0.56473 -0.001 0.0
H3143 H 0.79022 0.57605 0.0015 0.0
H3144 H 0.86657 0.60587 0.00975 0.0
H3145 H 0.84492 0.54789 0.94997 0.0
H3146 H 0.83238 0.56769 0.95487 0.0
H3147 H 0.82845 0.54721 0.9682 0.0
C3148 C 0.81631 0.61586 0.9854 0.0
C3149 C 0.80046 0.60406 0.99177 0.0
C3150 C 0.83346 0.60925 0.98398 0.0
C3151 C 0.83487 0.59068 0.98863 0.0
C3152 C 0.81912 0.57895 -0.00501 0.0
H3153 H 0.92112 0.53525 0.02871 0.0
H3154 H 0.89421 0.55113 0.02288 0.0
C3155 C 0.8021 0.58554 -0.00346 0.0
C3156 C 0.85296 0.58366 0.98789 0.0
H3157 H 0.87228 0.54556 0.96945 0.0
C3158 C 0.86799 0.59289 0.00072 0.0
C3159 C 0.85476 0.56683 0.97596 0.0
C3160 C 0.83934 0.55691 0.96133 0.0
C3161 C 0.88442 0.58504 0.00269 0.0
C3162 C 0.88567 0.56748 0.99167 0.0
C3163 C 0.87112 0.55889 0.97805 0.0
C3164 C 0.90156 0.55733 -0.00523 0.0
C3165 C 0.90016 0.59537 0.01682 0.0
C3166 C 0.91416 0.55503 0.98063 0.0
C3167 C 0.9295 0.54593 0.98391 0.0
C3168 C 0.93228 0.53886 0.00131 0.0
C3169 C 0.91928 0.5406 0.0152 0.0
C3170 C 0.90402 0.54977 0.01194 0.0
H3171 H 0.89921 0.61087 0.02049 0.0
H3172 H 0.89917 0.58822 0.02997 0.0
H3173 H 0.91421 0.5946 0.01128 0.0
H3174 H 0.91234 0.56064 0.96724 0.0
H3175 H 0.93936 0.54475 0.97298 0.0
H3176 H 0.18499 0.05274 0.78644 0.0
H3177 H 0.20765 0.08361 0.79016 0.0
H3178 H 0.16221 0.11424 0.78001 0.0
H3179 H 0.13955 0.0837 0.77638 0.0
H3180 H 0.21368 0.1086 0.76178 0.0
H3181 H 0.19184 0.14662 0.82678 0.0
H3182 H 0.18527 0.12063 0.82064 0.0
H3183 H 0.17239 0.1367 0.80988 0.0
C3184 C 0.17979 0.06608 0.78529 0.0
C3185 C 0.16046 0.06574 0.78107 0.0
C3186 C 0.19275 0.08368 0.78741 0.0
C3187 C 0.18655 0.10121 0.78563 0.0
C3188 C 0.16723 0.10093 0.78184 0.0
H3189 H 0.23143 0.20813 0.74717 0.0
H3190 H 0.21531 0.17596 0.75332 0.0
C3191 C 0.15432 0.0834 0.77961 0.0
C3192 C 0.20026 0.11964 0.78593 0.0
H3193 H 0.21002 0.16676 0.80623 0.0
C3194 C 0.21314 0.12122 0.77172 0.0
C3195 C 0.1996 0.13604 0.79898 0.0
C3196 C 0.18666 0.13491 0.81505 0.0
C3197 C 0.22463 0.13908 0.76956 0.0
C3198 C 0.22308 0.15572 0.78186 0.0
C3199 C 0.21101 0.15395 0.79673 0.0
C3200 C 0.23284 0.17527 0.77855 0.0
C3201 C 0.23795 0.1402 0.7538 0.0
C3202 C 0.2478 0.1856 0.79093 0.0
C3203 C 0.2571 0.20399 0.78741 0.0
C3204 C 0.25137 0.21231 0.7716 0.0
C3205 C 0.23615 0.20204 0.75945 0.0
C3206 C 0.22699 0.18366 0.7629 0.0
H3207 H 0.24061 0.12563 0.74836 0.0
H3208 H 0.23164 0.14644 0.74196 0.0
H3209 H 0.25168 0.14981 0.75865 0.0
H3210 H 0.2524 0.17934 0.80315 0.0
H3211 H 0.26875 0.21168 0.79702 0.0
H3212 H 0.39382 0.95279 0.25996 0.0
H3213 H 0.37086 0.92253 0.25937 0.0
H3214 H 0.33256 0.95358 0.28907 0.0
H3215 H 0.35519 0.98396 0.28935 0.0
H3216 H 0.35576 0.90407 0.28837 0.0
H3217 H 0.29907 0.92468 0.24401 0.0
H3218 H 0.32292 0.93847 0.24676 0.0
H3219 H 0.30671 0.94135 0.26487 0.0
C3220 C 0.38051 0.9532 0.26636 0.0
C3221 C 0.37629 0.97081 0.27459 0.0
C3222 C 0.36741 0.9359 0.266 0.0
C3223 C 0.34988 0.93589 0.27387 0.0
C3224 C 0.3458 0.95335 0.28249 0.0
H3225 H 0.27748 0.82931 0.29874 0.0
H3226 H 0.29641 0.8621 0.30137 0.0
C3227 C 0.35882 0.97068 0.28275 0.0
C3228 C 0.33605 0.91752 0.27334 0.0
H3229 H 0.29118 0.89513 0.25754 0.0
C3230 C 0.34164 0.9021 0.28164 0.0
C3231 C 0.31771 0.91496 0.26436 0.0
C3232 C 0.31126 0.93067 0.25433 0.0
C3233 C 0.32939 0.88414 0.28119 0.0
C3234 C 0.31089 0.88173 0.27264 0.0
C3235 C 0.30529 0.89714 0.26432 0.0
C3236 C 0.29757 0.86293 0.2712 0.0
C3237 C 0.3366 0.86774 0.28938 0.0
C3238 C 0.29111 0.85301 0.25337 0.0
C3239 C 0.28009 0.83439 0.25179 0.0
C3240 C 0.2754 0.82534 0.26805 0.0
C3241 C 0.28104 0.83576 0.28593 0.0
C3242 C 0.29195 0.85445 0.28747 0.0
H3243 H 0.3523 0.8705 0.29109 0.0
H3244 H 0.33107 0.8662 0.30353 0.0
H3245 H 0.33173 0.85377 0.28028 0.0
H3246 H 0.29519 0.85938 0.24063 0.0
H3247 H 0.27592 0.82683 0.2378 0.0
H3248 H 0.51059 0.31545 0.57915 0.0
H3249 H 0.504 0.33769 0.55663 0.0
H3250 H 0.51262 0.38489 0.60176 0.0
H3251 H 0.51857 0.36268 0.62437 0.0
H3252 H 0.482 0.38525 0.57897 0.0
H3253 H 0.54328 0.37721 0.53599 0.0
H3254 H 0.52699 0.35501 0.53764 0.0
H3255 H 0.54046 0.36779 0.55845 0.0
C3256 C 0.51104 0.33057 0.58425 0.0
C3257 C 0.51519 0.33737 0.6035 0.0
C3258 C 0.50739 0.34327 0.57135 0.0
C3259 C 0.50815 0.36301 0.57746 0.0
C3260 C 0.51199 0.36971 0.59673 0.0
H3261 H 0.53015 0.46632 0.52579 0.0
H3262 H 0.53027 0.43621 0.53959 0.0
C3263 C 0.51542 0.35702 0.60963 0.0
C3264 C 0.50509 0.37691 0.56397 0.0
H3265 H 0.52369 0.39822 0.52643 0.0
C3266 C 0.491 0.388 0.56737 0.0
C3267 C 0.51695 0.3805 0.54893 0.0
C3268 C 0.53288 0.36964 0.54507 0.0
C3269 C 0.48889 0.40312 0.55663 0.0
C3270 C 0.50085 0.40682 0.54167 0.0
C3271 C 0.51446 0.39523 0.53781 0.0
C3272 C 0.5009 0.42398 0.53133 0.0
C3273 C 0.47461 0.41564 0.56212 0.0
C3274 C 0.4845 0.42686 0.52154 0.0
C3275 C 0.48429 0.44426 0.51382 0.0
C3276 C 0.5006 0.4589 0.5155 0.0
C3277 C 0.51731 0.45541 0.52429 0.0
C3278 C 0.51743 0.43816 0.53218 0.0
H3279 H 0.46965 0.41354 0.57642 0.0
H3280 H 0.48068 0.43126 0.56191 0.0
H3281 H 0.46211 0.41174 0.55188 0.0
H3282 H 0.47173 0.41588 0.52029 0.0
H3283 H 0.47126 0.4464 0.50692 0.0
H3284 H 0.45072 0.75743 0.30927 0.0
H3285 H 0.41799 0.75232 0.29663 0.0
H3286 H 0.39855 0.74055 0.35131 0.0
H3287 H 0.43149 0.74529 0.36412 0.0
H3288 H 0.37688 0.7162 0.3192 0.0
H3289 H 0.38732 0.79502 0.31224 0.0
H3290 H 0.40451 0.78316 0.30075 0.0
H3291 H 0.40366 0.78462 0.32602 0.0
C3292 C 0.43951 0.75358 0.31861 0.0
C3293 C 0.44365 0.7521 0.33778 0.0
C3294 C 0.42084 0.75063 0.31134 0.0
C3295 C 0.40595 0.74643 0.32315 0.0
C3296 C 0.40993 0.74387 0.34204 0.0
H3297 H 0.29794 0.77376 0.29167 0.0
H3298 H 0.3259 0.76921 0.30969 0.0
C3299 C 0.4287 0.74663 0.34932 0.0
C3300 C 0.38643 0.74638 0.31596 0.0
H3301 H 0.35956 0.77529 0.29666 0.0
C3302 C 0.37295 0.72911 0.31441 0.0
C3303 C 0.38135 0.76337 0.31008 0.0
C3304 C 0.3949 0.78265 0.31251 0.0
C3305 C 0.35457 0.72827 0.30648 0.0
C3306 C 0.34984 0.74504 0.29967 0.0
C3307 C 0.36324 0.76239 0.30175 0.0
C3308 C 0.33117 0.74527 0.2903 0.0
C3309 C 0.34038 0.70956 0.30562 0.0
C3310 C 0.3246 0.73308 0.27355 0.0
C3311 C 0.30819 0.73534 0.26345 0.0
C3312 C 0.29837 0.74999 0.26986 0.0
C3313 C 0.30486 0.76196 0.28672 0.0
C3314 C 0.32097 0.75949 0.29693 0.0
H3315 H 0.34428 0.70024 0.31621 0.0
H3316 H 0.32597 0.7124 0.30807 0.0
H3317 H 0.34001 0.70135 0.29141 0.0
H3318 H 0.33253 0.72236 0.26789 0.0
H3319 H 0.30352 0.72604 0.2504 0.0
H3320 H 0.04863 0.71801 0.13553 0.0
H3321 H 0.04722 0.68789 0.11462 0.0
H3322 H 0.00989 0.70694 0.07474 0.0
H3323 H 0.01126 0.73723 0.09548 0.0
H3324 H -0.00187 0.66754 0.08723 0.0
H3325 H 0.07049 0.68107 0.0612 0.0
H3326 H 0.0688 0.68641 0.08624 0.0
H3327 H 0.05885 0.70048 0.07028 0.0
C3328 C 0.04017 0.71586 0.12229 0.0
C3329 C 0.03004 0.73002 0.11718 0.0
C3330 C 0.0395 0.69871 0.11032 0.0
C3331 C 0.02865 0.69539 0.0931 0.0
C3332 C 0.01847 0.70939 0.08794 0.0
H3333 H -0.00426 0.58789 0.01675 0.0
H3334 H -0.00026 0.62174 0.03056 0.0
C3335 C 0.01926 0.72665 0.09981 0.0
C3336 C 0.02711 0.67675 0.08104 0.0
H3337 H 0.05265 0.64909 0.05433 0.0
C3338 C 0.00994 0.66352 0.07984 0.0
C3339 C 0.04265 0.67166 0.0716 0.0
C3340 C 0.06124 0.68566 0.07221 0.0
C3341 C 0.00805 0.64493 0.06994 0.0
C3342 C 0.02364 0.63971 0.06055 0.0
C3343 C 0.04073 0.65315 0.06148 0.0
C3344 C 0.02271 0.62004 0.05053 0.0
C3345 C 0.98964 0.6308 0.07035 0.0
C3346 C 0.03503 0.60821 0.05643 0.0
C3347 C 0.033 0.58895 0.04835 0.0
C3348 C 0.01852 0.58119 0.03431 0.0
C3349 C 0.00684 0.59337 0.02776 0.0
C3350 C 0.00904 0.61268 0.03568 0.0
H3351 H 0.98109 0.63531 0.08204 0.0
H3352 H 0.98114 0.63014 0.05687 0.0
H3353 H 0.9922 0.61597 0.07198 0.0
H3354 H 0.04577 0.61366 0.06779 0.0
H3355 H 0.04225 0.57994 0.05367 0.0
H3356 H 0.06777 0.25498 0.87449 0.0
H3357 H 0.09568 0.25079 0.85708 0.0
H3358 H 0.06139 0.24039 0.80461 0.0
H3359 H 0.03354 0.24434 0.82179 0.0
H3360 H 0.08636 0.2139 0.80822 0.0
H3361 H 0.12233 0.29117 0.82411 0.0
H3362 H 0.11545 0.27888 0.84427 0.0
H3363 H 0.09761 0.28316 0.82768 0.0
C3364 C 0.06621 0.25179 0.85926 0.0
C3365 C 0.04851 0.25013 0.8495 0.0
C3366 C 0.08214 0.24944 0.84934 0.0
C3367 C 0.08056 0.24547 0.82957 0.0
C3368 C 0.06287 0.24346 0.81987 0.0
H3369 H 0.16834 0.26325 0.75173 0.0
H3370 H 0.13866 0.26114 0.76753 0.0
C3371 C 0.04699 0.24581 0.82972 0.0
C3372 C 0.09735 0.24379 0.81878 0.0
H3373 H 0.13884 0.26997 0.80675 0.0
C3374 C 0.0979 0.22611 0.80791 0.0
C3375 C 0.11217 0.25986 0.81826 0.0
C3376 C 0.11189 0.27941 0.82906 0.0
C3377 C 0.11298 0.22405 0.79652 0.0
C3378 C 0.12789 0.24007 0.79618 0.0
C3379 C 0.12733 0.25773 0.80706 0.0
C3380 C 0.14432 0.23901 0.78467 0.0
C3381 C 0.11266 0.20496 0.78465 0.0
C3382 C 0.15702 0.22686 0.78873 0.0
C3383 C 0.17393 0.22798 0.77966 0.0
C3384 C 0.17838 0.24138 0.76653 0.0
C3385 C 0.16521 0.25279 0.76177 0.0
C3386 C 0.14831 0.25164 0.77082 0.0
H3387 H 0.09828 0.19578 0.78304 0.0
H3388 H 0.11758 0.20734 0.77039 0.0
H3389 H 0.12235 0.19684 0.79154 0.0
H3390 H 0.15432 0.21723 0.79957 0.0
H3391 H 0.18393 0.21911 0.78364 0.0
H3392 H 0.49328 0.69807 0.90896 0.0
H3393 H 0.48807 0.6717 0.92896 0.0
H3394 H 0.52584 0.70706 0.97293 0.0
H3395 H 0.53117 0.73356 0.953 0.0
H3396 H 0.53364 0.66924 0.96303 0.0
H3397 H 0.45813 0.66662 0.97698 0.0
H3398 H 0.46294 0.66662 0.95248 0.0
H3399 H 0.47272 0.68751 0.96897 0.0
C3400 C 0.50034 0.70033 0.92296 0.0
C3401 C 0.51264 0.71791 0.92939 0.0
C3402 C 0.49724 0.68528 0.93442 0.0
C3403 C 0.50637 0.68753 0.95252 0.0
C3404 C 0.51855 0.7051 0.95906 0.0
H3405 H 0.51495 0.59426 0.02401 0.0
H3406 H 0.51695 0.62702 0.01466 0.0
C3407 C 0.52157 0.72021 0.94765 0.0
C3408 C 0.50419 0.67101 0.96401 0.0
H3409 H 0.47125 0.63903 0.98353 0.0
C3410 C 0.52008 0.66278 0.96781 0.0
C3411 C 0.48647 0.66267 0.97017 0.0
C3412 C 0.4691 0.67139 0.96712 0.0
C3413 C 0.51854 0.64577 0.97672 0.0
C3414 C 0.50069 0.63705 0.9824 0.0
C3415 C 0.48493 0.64574 0.97922 0.0
C3416 C 0.49773 0.6179 0.98984 0.0
C3417 C 0.53585 0.63671 0.97899 0.0
C3418 C 0.48546 0.60211 0.97963 0.0
C3419 C 0.4841 0.58348 0.98505 0.0
C3420 C 0.49501 0.58019 0.00083 0.0
C3421 C 0.50645 0.59623 0.01172 0.0
C3422 C 0.50773 0.61495 0.00631 0.0
H3423 H 0.54738 0.64295 0.97032 0.0
H3424 H 0.54128 0.63938 0.99401 0.0
H3425 H 0.53232 0.62076 0.97491 0.0
H3426 H 0.47751 0.60405 0.96695 0.0
H3427 H 0.47501 0.57156 0.97636 0.0
H3428 H 0.05782 0.77626 0.6677 0.0
H3429 H 0.08914 0.77096 0.6778 0.0
H3430 H 0.09755 0.74882 0.62072 0.0
H3431 H 0.06609 0.75398 0.61044 0.0
H3432 H 0.10629 0.72513 0.64856 0.0
H3433 H 0.14098 0.80216 0.66707 0.0
H3434 H 0.11889 0.79591 0.67772 0.0
H3435 H 0.11921 0.79498 0.65245 0.0
C3436 C 0.06637 0.77044 0.65725 0.0
C3437 C 0.05949 0.76561 0.63828 0.0
C3438 C 0.0843 0.76748 0.66303 0.0
C3439 C 0.09572 0.7597 0.64996 0.0
C3440 C 0.08896 0.75492 0.631 0.0
H3441 H 0.21289 0.76069 0.68718 0.0
H3442 H 0.18522 0.76175 0.6664 0.0
C3443 C 0.07103 0.75794 0.62517 0.0
C3444 C 0.11444 0.75601 0.65636 0.0
H3445 H 0.15651 0.7784 0.67921 0.0
C3446 C 0.1174 0.73677 0.65505 0.0
C3447 C 0.12898 0.77124 0.66453 0.0
C3448 C 0.12698 0.79226 0.66538 0.0
C3449 C 0.13424 0.7323 0.66254 0.0
C3450 C 0.14832 0.74745 0.67175 0.0
C3451 C 0.14567 0.76675 0.67225 0.0
C3452 C 0.16538 0.74373 0.68207 0.0
C3453 C 0.13673 0.7114 0.66065 0.0
C3454 C 0.1635 0.73276 0.69746 0.0
C3455 C 0.1793 0.73205 0.70927 0.0
C3456 C 0.19719 0.74247 0.706 0.0
C3457 C 0.19924 0.75251 0.69 0.0
C3458 C 0.18346 0.75317 0.67816 0.0
H3459 H 0.12799 0.70278 0.64835 0.0
H3460 H 0.15176 0.71026 0.65903 0.0
H3461 H 0.13209 0.70485 0.67354 0.0
H3462 H 0.14967 0.72569 0.701 0.0
H3463 H 0.17731 0.72432 0.72159 0.0
H3464 H 0.03018 0.31425 0.44197 0.0
H3465 H 0.02884 0.34516 0.4607 0.0
H3466 H 0.04782 0.37609 0.414 0.0
H3467 H 0.0493 0.34544 0.39517 0.0
H3468 H 0.0595 0.38293 0.46822 0.0
H3469 H -0.00674 0.38814 0.42744 0.0
H3470 H 0.00109 0.36534 0.42873 0.0
H3471 H 0.01264 0.38252 0.41414 0.0
C3472 C 0.03434 0.32763 0.43576 0.0
C3473 C 0.03968 0.32733 0.41699 0.0
C3474 C 0.03357 0.34526 0.44649 0.0
C3475 C 0.03804 0.36279 0.4386 0.0
C3476 C 0.04418 0.36264 0.42023 0.0
H3477 H 0.02137 0.48023 0.47179 0.0
H3478 H 0.02833 0.4504 0.45499 0.0
C3479 C 0.04504 0.34509 0.40953 0.0
C3480 C 0.03518 0.38117 0.44908 0.0
H3481 H 0.00625 0.41454 0.45006 0.0
C3482 C 0.04786 0.38988 0.46433 0.0
C3483 C 0.02003 0.39014 0.44383 0.0
C3484 C 0.00585 0.38108 0.42772 0.0
C3485 C 0.04593 0.4076 0.47438 0.0
C3486 C 0.03063 0.41651 0.46925 0.0
C3487 C 0.01798 0.40772 0.45395 0.0
C3488 C 0.02725 0.43482 0.47963 0.0
C3489 C 0.06053 0.41682 0.49007 0.0
C3490 C 0.02424 0.43594 0.49901 0.0
C3491 C 0.02023 0.45295 0.50855 0.0
C3492 C 0.01885 0.46898 0.4988 0.0
C3493 C 0.02194 0.46791 0.47947 0.0
C3494 C 0.02606 0.45095 0.46994 0.0
H3495 H 0.074 0.41141 0.4885 0.0
H3496 H 0.06353 0.43289 0.49047 0.0
H3497 H 0.0551 0.41311 0.5038 0.0
H3498 H 0.02463 0.42354 0.50668 0.0
H3499 H 0.01785 0.45342 0.52347 0.0
H3500 H 0.44537 0.28904 0.14484 0.0
H3501 H 0.41689 0.29462 0.16058 0.0
H3502 H 0.43452 0.26798 0.20834 0.0
H3503 H 0.4629 0.26249 0.19295 0.0
H3504 H 0.38877 0.26608 0.17211 0.0
H3505 H 0.42133 0.31861 0.23308 0.0
H3506 H 0.43386 0.31349 0.21229 0.0
H3507 H 0.4318 0.29732 0.23031 0.0
C3508 C 0.44326 0.28454 0.15877 0.0
C3509 C 0.45643 0.27532 0.16763 0.0
C3510 C 0.42701 0.28775 0.16773 0.0
C3511 C 0.42379 0.28201 0.18574 0.0
C3512 C 0.43695 0.27292 0.19463 0.0
H3513 H 0.32243 0.24838 0.24121 0.0
H3514 H 0.35202 0.25133 0.22539 0.0
C3515 C 0.4531 0.26965 0.1857 0.0
C3516 C 0.40613 0.28422 0.19488 0.0
H3517 H 0.38946 0.30215 0.23587 0.0
C3518 C 0.38888 0.27418 0.18593 0.0
C3519 C 0.4063 0.29497 0.21282 0.0
C3520 C 0.4243 0.30687 0.22262 0.0
C3521 C 0.37187 0.27387 0.19486 0.0
C3522 C 0.37222 0.28362 0.21328 0.0
C3523 C 0.38932 0.29444 0.22186 0.0
C3524 C 0.35501 0.28225 0.22402 0.0
C3525 C 0.35369 0.26294 0.18457 0.0
C3526 C 0.34735 0.29882 0.22917 0.0
C3527 C 0.33044 0.29723 0.23831 0.0
C3528 C 0.32099 0.27902 0.24253 0.0
C3529 C 0.32922 0.2626 0.23807 0.0
C3530 C 0.34608 0.26422 0.22892 0.0
H3531 H 0.35505 0.26071 0.16907 0.0
H3532 H 0.35003 0.24844 0.18961 0.0
H3533 H 0.34186 0.27078 0.18735 0.0
H3534 H 0.35416 0.31289 0.22564 0.0
H3535 H 0.32454 0.31018 0.24159 0.0
H3536 H 0.61605 0.49563 0.33063 0.0
H3537 H 0.60222 0.49335 0.36136 0.0
H3538 H 0.54868 0.50074 0.33655 0.0
H3539 H 0.56242 0.50353 0.30615 0.0
H3540 H 0.55987 0.52574 0.36783 0.0
H3541 H 0.56539 0.45091 0.38211 0.0
H3542 H 0.58724 0.46581 0.37717 0.0
H3543 H 0.56836 0.459 0.35905 0.0
C3544 C 0.60126 0.49646 0.3317 0.0
C3545 C 0.59036 0.49989 0.316 0.0
C3546 C 0.59335 0.49507 0.34924 0.0
C3547 C 0.57438 0.49677 0.35123 0.0
C3548 C 0.56336 0.49945 0.33537 0.0
H3549 H 0.49775 0.47508 0.43903 0.0
H3550 H 0.51699 0.47324 0.41162 0.0
C3551 C 0.57126 0.50105 0.31799 0.0
C3552 C 0.56614 0.49729 0.36994 0.0
H3553 H 0.55428 0.47071 0.40648 0.0
C3554 C 0.5587 0.51372 0.3763 0.0
C3555 C 0.56454 0.48154 0.38091 0.0
C3556 C 0.57165 0.46323 0.37445 0.0
C3557 C 0.54936 0.51474 0.3931 0.0
C3558 C 0.54791 0.4991 0.40421 0.0
C3559 C 0.55557 0.48274 0.39801 0.0
C3560 C 0.53754 0.49913 0.42173 0.0
C3561 C 0.54049 0.53226 0.39838 0.0
C3562 C 0.54299 0.51399 0.43672 0.0
C3563 C 0.53186 0.51523 0.4522 0.0
C3564 C 0.51531 0.50141 0.45314 0.0
C3565 C 0.5104 0.48598 0.43861 0.0
C3566 C 0.52142 0.48487 0.423 0.0
H3567 H 0.53867 0.54036 0.38609 0.0
H3568 H 0.52645 0.52796 0.40412 0.0
H3569 H 0.5498 0.54229 0.40939 0.0
H3570 H 0.55558 0.52492 0.43621 0.0
H3571 H 0.53598 0.52729 0.4632 0.0
H3572 H 0.25301 0.87833 0.07259 0.0
H3573 H 0.25564 0.85895 0.09872 0.0
H3574 H 0.21901 0.80987 0.0668 0.0
H3575 H 0.21649 0.82906 0.04046 0.0
H3576 H 0.2262 0.84159 0.11876 0.0
H3577 H 0.26436 0.78684 0.08443 0.0
H3578 H 0.26286 0.8093 0.07492 0.0
H3579 H 0.24309 0.78938 0.0716 0.0
C3580 C 0.2456 0.86337 0.07107 0.0
C3581 C 0.23456 0.8552 0.05447 0.0
C3582 C 0.24712 0.85234 0.086 0.0
C3583 C 0.23771 0.83293 0.08457 0.0
C3584 C 0.22668 0.82471 0.06802 0.0
H3585 H 0.21628 0.77029 0.18268 0.0
H3586 H 0.2127 0.78388 0.15281 0.0
C3587 C 0.22516 0.83573 0.05306 0.0
C3588 C 0.23883 0.82164 0.10077 0.0
H3589 H 0.2536 0.78167 0.11477 0.0
C3590 C 0.23217 0.82848 0.11791 0.0
C3591 C 0.24677 0.80465 0.09958 0.0
C3592 C 0.25485 0.79715 0.08171 0.0
C3593 C 0.23324 0.81878 0.13397 0.0
C3594 C 0.24085 0.80157 0.1327 0.0
C3595 C 0.24757 0.79475 0.11558 0.0
C3596 C 0.24278 0.79108 0.14934 0.0
C3597 C 0.22668 0.82734 0.15227 0.0
C3598 C 0.26082 0.78977 0.15671 0.0
C3599 C 0.26289 0.78183 0.17363 0.0
C3600 C 0.24693 0.77509 0.18337 0.0
C3601 C 0.22882 0.77548 0.17546 0.0
C3602 C 0.22676 0.78333 0.1585 0.0
H3603 H 0.22551 0.84281 0.15194 0.0
H3604 H 0.21251 0.81911 0.15473 0.0
H3605 H 0.23653 0.82636 0.16439 0.0
H3606 H 0.27334 0.7956 0.14977 0.0
H3607 H 0.277 0.78165 0.17945 0.0
H3608 H 0.9667 0.52537 0.81152 0.0
H3609 H 0.97925 0.52724 0.84402 0.0
H3610 H 0.92788 0.54302 0.86412 0.0
H3611 H 0.91513 0.54143 0.83139 0.0
H3612 H 0.96264 0.56506 0.88345 0.0
H3613 H 0.95908 0.48533 0.87825 0.0
H3614 H 0.97152 0.49663 0.85984 0.0
H3615 H 0.94667 0.49666 0.86135 0.0
C3616 C 0.95801 0.52928 0.82279 0.0
C3617 C 0.93979 0.53301 0.81886 0.0
C3618 C 0.96524 0.53033 0.84136 0.0
C3619 C 0.95435 0.53495 0.85637 0.0
C3620 C 0.93642 0.53934 0.85262 0.0
H3621 H 0.9781 0.50857 0.96904 0.0
H3622 H 0.96317 0.51271 0.93887 0.0
C3623 C 0.92916 0.53837 0.83396 0.0
C3624 C 0.96162 0.53446 0.87592 0.0
H3625 H 0.97668 0.50417 0.90495 0.0
C3626 C 0.9656 0.55176 0.88827 0.0
C3627 C 0.96521 0.51701 0.88213 0.0
C3628 C 0.96024 0.49781 0.86978 0.0
C3629 C 0.9736 0.55213 0.90664 0.0
C3630 C 0.97793 0.53481 0.91254 0.0
C3631 C 0.97353 0.51747 0.90029 0.0
C3632 C 0.98654 0.53401 0.93154 0.0
C3633 C 0.97712 0.57092 0.91964 0.0
C3634 C 0.00466 0.54469 0.93746 0.0
C3635 C 0.01318 0.54252 0.95492 0.0
C3636 C 0.00371 0.52954 0.96652 0.0
C3637 C 0.98562 0.51892 0.96052 0.0
C3638 C 0.97708 0.5212 0.94325 0.0
H3639 H 0.96875 0.58144 0.91473 0.0
H3640 H 0.97356 0.56831 0.93425 0.0
H3641 H 0.99233 0.57764 0.92 0.0
H3642 H 0.01236 0.55432 0.9284 0.0
H3643 H 0.0272 0.55077 0.95922 0.0
H3644 H 0.26604 0.18894 0.53911 0.0
H3645 H 0.26946 0.20755 0.5705 0.0
H3646 H 0.2451 0.15591 0.59473 0.0
H3647 H 0.24171 0.13718 0.56359 0.0
H3648 H 0.24013 0.21235 0.59513 0.0
H3649 H 0.29443 0.17732 0.62782 0.0
H3650 H 0.28959 0.17547 0.60256 0.0
H3651 H 0.27432 0.16043 0.61661 0.0
C3652 C 0.26154 0.1815 0.55113 0.0
C3653 C 0.25365 0.16154 0.54882 0.0
C3654 C 0.26348 0.19217 0.56904 0.0
C3655 C 0.25776 0.18303 0.58493 0.0
C3656 C 0.24991 0.16315 0.58268 0.0
H3657 H 0.22677 0.22602 0.69396 0.0
H3658 H 0.22808 0.21233 0.66123 0.0
C3659 C 0.2479 0.1525 0.56483 0.0
C3660 C 0.2593 0.19432 0.60384 0.0
H3661 H 0.27834 0.19645 0.64884 0.0
C3662 C 0.24862 0.20904 0.60685 0.0
C3663 C 0.27057 0.1901 0.61902 0.0
C3664 C 0.28303 0.1751 0.61636 0.0
C3665 C 0.24836 0.21916 0.62486 0.0
C3666 C 0.25889 0.21424 0.64023 0.0
C3667 C 0.27013 0.20005 0.63706 0.0
C3668 C 0.25802 0.22323 0.65983 0.0
C3669 C 0.23681 0.23499 0.62728 0.0
C3670 C 0.27449 0.23362 0.67 0.0
C3671 C 0.27382 0.24141 0.68877 0.0
C3672 C 0.25668 0.23879 0.69776 0.0
C3673 C 0.2402 0.22838 0.68748 0.0
C3674 C 0.24088 0.22064 0.66872 0.0
H3675 H 0.23394 0.24056 0.61366 0.0
H3676 H 0.22302 0.22906 0.63275 0.0
H3677 H 0.24412 0.24731 0.63755 0.0
H3678 H 0.28788 0.23567 0.66342 0.0
H3679 H 0.2868 0.24932 0.69624 0.0
H3680 H 0.6418 0.50847 0.1976 0.0
H3681 H 0.62953 0.51809 0.1681 0.0
H3682 H 0.57378 0.51196 0.18908 0.0
H3683 H 0.58578 0.50217 0.21846 0.0
H3684 H 0.59418 0.49455 0.14319 0.0
H3685 H 0.59001 0.56995 0.17254 0.0
H3686 H 0.60623 0.55639 0.18258 0.0
H3687 H 0.5815 0.55063 0.18643 0.0
C3688 C 0.62691 0.50905 0.19587 0.0
C3689 C 0.61476 0.50458 0.21035 0.0
C3690 C 0.61996 0.51458 0.17907 0.0
C3691 C 0.60085 0.51594 0.17661 0.0
C3692 C 0.58863 0.51117 0.19086 0.0
H3693 H 0.52458 0.54599 0.09409 0.0
H3694 H 0.54264 0.54215 0.12288 0.0
C3695 C 0.5955 0.50548 0.20758 0.0
C3696 C 0.59347 0.52206 0.15905 0.0
H3697 H 0.57647 0.55925 0.14156 0.0
C3698 C 0.59047 0.50875 0.1427 0.0
C3699 C 0.58856 0.54053 0.15866 0.0
C3700 C 0.59179 0.55533 0.17593 0.0
C3701 C 0.58207 0.51319 0.126 0.0
C3702 C 0.57709 0.53171 0.12555 0.0
C3703 C 0.5804 0.54514 0.14189 0.0
C3704 C 0.56743 0.53689 0.10856 0.0
C3705 C 0.57786 0.49768 0.10929 0.0
C3706 C 0.57574 0.53617 0.09111 0.0
C3707 C 0.56538 0.53816 0.07465 0.0
C3708 C 0.5467 0.54127 0.07546 0.0
C3709 C 0.53897 0.5436 0.0931 0.0
C3710 C 0.54925 0.54137 0.10954 0.0
H3711 H 0.57807 0.48298 0.1135 0.0
H3712 H 0.56381 0.49755 0.10216 0.0
H3713 H 0.58878 0.50065 0.09893 0.0
H3714 H 0.58995 0.5333 0.09012 0.0
H3715 H 0.57171 0.53647 0.06122 0.0
H3716 H 0.22241 0.83709 0.96049 0.0
H3717 H 0.22322 0.81355 0.93285 0.0
H3718 H 0.2212 0.85821 0.89632 0.0
H3719 H 0.2204 0.88187 0.92374 0.0
H3720 H 0.19697 0.80302 0.89882 0.0
H3721 H 0.27032 0.83593 0.88446 0.0
H3722 H 0.26047 0.84045 0.90701 0.0
H3723 H 0.25443 0.85281 0.88749 0.0
C3724 C 0.22199 0.84189 0.94657 0.0
C3725 C 0.22149 0.86142 0.94434 0.0
C3726 C 0.22245 0.82842 0.93083 0.0
C3727 C 0.22257 0.83428 0.91267 0.0
C3728 C 0.2214 0.85353 0.91031 0.0
H3729 H 0.20358 0.78056 0.80006 0.0
H3730 H 0.20166 0.79551 0.83221 0.0
C3731 C 0.22085 0.86699 0.926 0.0
C3732 C 0.22433 0.82046 0.89609 0.0
H3733 H 0.25293 0.81288 0.86026 0.0
C3734 C 0.20926 0.80499 0.89047 0.0
C3735 C 0.24055 0.82294 0.88549 0.0
C3736 C 0.25747 0.83882 0.89146 0.0
C3737 C 0.20962 0.79246 0.87389 0.0
C3738 C 0.22538 0.79566 0.86271 0.0
C3739 C 0.24083 0.81054 0.86885 0.0
C3740 C 0.22552 0.78485 0.84383 0.0
C3741 C 0.19305 0.77609 0.86834 0.0
C3742 C 0.23965 0.77397 0.83972 0.0
C3743 C 0.24077 0.76539 0.82131 0.0
C3744 C 0.22798 0.76788 0.80677 0.0
C3745 C 0.21359 0.77837 0.81103 0.0
C3746 C 0.21242 0.78684 0.8294 0.0
H3747 H 0.185 0.77212 0.88074 0.0
H3748 H 0.1833 0.78075 0.85804 0.0
H3749 H 0.19779 0.76301 0.86157 0.0
H3750 H 0.24994 0.77236 0.8507 0.0
H3751 H 0.25172 0.75702 0.8184 0.0
H3752 H 0.95369 0.56133 0.73299 0.0
H3753 H 0.9722 0.56665 0.70551 0.0
H3754 H 0.92082 0.55581 0.66955 0.0
H3755 H 0.90209 0.5504 0.69702 0.0
H3756 H 0.9687 0.53582 0.6751 0.0
H3757 H 0.95444 0.60442 0.65095 0.0
H3758 H 0.95143 0.59871 0.67489 0.0
H3759 H 0.93386 0.58778 0.65636 0.0
C3760 C 0.94628 0.5604 0.71928 0.0
C3761 C 0.92643 0.55525 0.71709 0.0
C3762 C 0.95689 0.56352 0.70364 0.0
C3763 C 0.94784 0.5618 0.68562 0.0
C3764 C 0.92801 0.55753 0.68345 0.0
H3765 H 0.96435 0.54274 0.57063 0.0
H3766 H 0.95575 0.55288 0.60225 0.0
C3767 C 0.91735 0.5543 0.6991 0.0
C3768 C 0.95909 0.56176 0.66885 0.0
H3769 H 0.96771 0.58353 0.62886 0.0
C3770 C 0.96883 0.54642 0.6651 0.0
C3771 C 0.95911 0.57564 0.65597 0.0
C3772 C 0.94929 0.59269 0.65976 0.0
C3773 C 0.97764 0.54383 0.64815 0.0
C3774 C 0.97712 0.55734 0.63489 0.0
C3775 C 0.96816 0.57326 0.6391 0.0
C3776 C 0.98349 0.5537 0.61564 0.0
C3777 C 0.98626 0.52593 0.64411 0.0
C3778 C 0.00213 0.55137 0.6126 0.0
C3779 C 0.00702 0.5452 0.59449 0.0
C3780 C -0.00664 0.54162 0.57927 0.0
C3781 C 0.97508 0.54513 0.58219 0.0
C3782 C 0.97018 0.55107 0.60023 0.0
H3783 H 0.98203 0.51511 0.65412 0.0
H3784 H 0.98201 0.51883 0.62952 0.0
H3785 H 0.0019 0.53015 0.64545 0.0
H3786 H 0.01272 0.55378 0.62427 0.0
H3787 H 0.02128 0.54286 0.59247 0.0
H3788 H 0.27402 0.15864 0.4184 0.0
H3789 H 0.28049 0.17899 0.39293 0.0
H3790 H 0.27755 0.22984 0.43122 0.0
H3791 H 0.27078 0.2095 0.45681 0.0
H3792 H 0.25504 0.22682 0.39885 0.0
H3793 H 0.32696 0.21691 0.38094 0.0
H3794 H 0.31097 0.19426 0.38139 0.0
H3795 H 0.31706 0.21062 0.4028 0.0
C3796 C 0.27502 0.17419 0.4215 0.0
C3797 C 0.27183 0.18246 0.43962 0.0
C3798 C 0.27888 0.18582 0.40694 0.0
C3799 C 0.27979 0.20596 0.41024 0.0
C3800 C 0.27705 0.21433 0.42842 0.0
H3801 H 0.30333 0.2844 0.3225 0.0
H3802 H 0.3057 0.2691 0.35172 0.0
C3803 C 0.27318 0.2027 0.44301 0.0
C3804 C 0.28171 0.2179 0.39427 0.0
H3805 H 0.30877 0.22904 0.35735 0.0
C3806 C 0.26692 0.22753 0.38994 0.0
C3807 C 0.2973 0.21896 0.38275 0.0
C3808 C 0.31407 0.2098 0.3873 0.0
C3809 C 0.2669 0.23748 0.37394 0.0
C3810 C 0.28193 0.23757 0.36182 0.0
C3811 C 0.29715 0.22872 0.36657 0.0
C3812 C 0.28152 0.24607 0.34376 0.0
C3813 C 0.25065 0.24762 0.36998 0.0
C3814 C 0.26749 0.23785 0.3295 0.0
C3815 C 0.26611 0.2465 0.31292 0.0
C3816 C 0.27883 0.26349 0.31026 0.0
C3817 C 0.29333 0.27134 0.32424 0.0
C3818 C 0.2947 0.26263 0.34088 0.0
H3819 H 0.24299 0.25047 0.38286 0.0
H3820 H 0.2557 0.26162 0.36434 0.0
H3821 H 0.24045 0.23826 0.35921 0.0
H3822 H 0.25736 0.2249 0.33136 0.0
H3823 H 0.25479 0.24012 0.3024 0.0
H3824 H 0.31872 0.61799 0.50086 0.0
H3825 H 0.34265 0.5984 0.49285 0.0
H3826 H 0.31907 0.55715 0.53003 0.0
H3827 H 0.29499 0.57642 0.53797 0.0
H3828 H 0.36954 0.58755 0.51666 0.0
H3829 H 0.32073 0.52283 0.48022 0.0
H3830 H 0.31375 0.54609 0.48536 0.0
H3831 H 0.31436 0.53034 0.50354 0.0
C3832 C 0.31864 0.60478 0.50738 0.0
C3833 C 0.30487 0.59872 0.51998 0.0
C3834 C 0.33228 0.59359 0.50273 0.0
C3835 C 0.33231 0.57613 0.51053 0.0
C3836 C 0.31894 0.57032 0.52349 0.0
H3837 H 0.41904 0.5097 0.52299 0.0
H3838 H 0.39074 0.52423 0.52548 0.0
C3839 C 0.3053 0.58146 0.52812 0.0
C3840 C 0.34674 0.5643 0.50565 0.0
H3841 H 0.35242 0.51894 0.48773 0.0
C3842 C 0.36581 0.57262 0.51018 0.0
C3843 C 0.34179 0.54486 0.49707 0.0
C3844 C 0.32156 0.53553 0.49109 0.0
C3845 C 0.38007 0.56179 0.5069 0.0
C3846 C 0.37505 0.54218 0.49898 0.0
C3847 C 0.35607 0.53396 0.49395 0.0
C3848 C 0.38958 0.53009 0.49635 0.0
C3849 C 0.40044 0.57121 0.51214 0.0
C3850 C 0.39767 0.52796 0.47892 0.0
C3851 C 0.41382 0.51965 0.47744 0.0
C3852 C 0.42199 0.51347 0.49341 0.0
C3853 C 0.41299 0.51434 0.51047 0.0
C3854 C 0.39688 0.52264 0.51193 0.0
H3855 H 0.40214 0.58712 0.51624 0.0
H3856 H 0.40585 0.56457 0.52419 0.0
H3857 H 0.4093 0.56865 0.5001 0.0
H3858 H 0.39215 0.53372 0.4668 0.0
H3859 H 0.42056 0.51919 0.46415 0.0
H3860 H 0.79045 0.95891 0.5111 0.0
H3861 H 0.82359 0.9746 0.51256 0.0
H3862 H 0.83996 0.9237 0.53188 0.0
H3863 H 0.80657 0.90787 0.53082 0.0
H3864 H 0.85966 0.95845 0.55134 0.0
H3865 H 0.86032 0.9606 0.47388 0.0
H3866 H 0.84222 0.97179 0.48442 0.0
H3867 H 0.84134 0.94615 0.48473 0.0
C3868 C 0.80105 0.95099 0.51569 0.0
C3869 C 0.79588 0.93202 0.52064 0.0
C3870 C 0.82 0.95998 0.51644 0.0
C3871 C 0.83421 0.95014 0.5219 0.0
C3872 C 0.82915 0.93146 0.52748 0.0
H3873 H 0.9523 0.97965 0.50079 0.0
H3874 H 0.91883 0.96532 0.50101 0.0
C3875 C 0.8101 0.92245 0.52686 0.0
C3876 C 0.85433 0.95938 0.52156 0.0
H3877 H 0.88709 0.97895 0.49242 0.0
C3878 C 0.86572 0.96288 0.53847 0.0
C3879 C 0.86219 0.96491 0.50467 0.0
C3880 C 0.85095 0.96051 0.48586 0.0
C3881 C 0.88477 0.97206 0.53901 0.0
C3882 C 0.89244 0.97822 0.52224 0.0
C3883 C 0.88109 0.97447 0.5053 0.0
C3884 C 0.9125 0.98762 0.52171 0.0
C3885 C 0.8966 0.97467 0.5574 0.0
C3886 C 0.91993 0.00522 0.5329 0.0
C3887 C 0.93913 0.01343 0.53285 0.0
C3888 C 0.95106 0.00422 0.52147 0.0
C3889 C 0.94342 0.98704 0.50973 0.0
C3890 C 0.92431 0.97882 0.50985 0.0
H3891 H 0.89003 0.96491 0.56753 0.0
H3892 H 0.91102 0.97177 0.55503 0.0
H3893 H 0.89799 0.98987 0.56402 0.0
H3894 H 0.91093 0.01249 0.54179 0.0
H3895 H 0.94469 0.02674 0.54194 0.0
H3896 H 0.86282 0.09616 0.27028 0.0
H3897 H 0.84542 0.12251 0.27748 0.0
H3898 H 0.79673 0.08934 0.24391 0.0
H3899 H 0.81389 0.06276 0.23697 0.0
H3900 H 0.83178 0.14323 0.25193 0.0
H3901 H 0.77271 0.1079 0.2911 0.0
H3902 H 0.79349 0.09749 0.28683 0.0
H3903 H 0.77489 0.09482 0.26855 0.0
C3904 C 0.84832 0.09436 0.26464 0.0
C3905 C 0.83973 0.07736 0.25306 0.0
C3906 C 0.83839 0.10943 0.26877 0.0
C3907 C 0.81968 0.10781 0.26145 0.0
C3908 C 0.81098 0.09075 0.25009 0.0
H3909 H 0.74613 0.19162 0.25177 0.0
H3910 H 0.75959 0.16201 0.25053 0.0
C3911 C 0.82087 0.07561 0.24603 0.0
C3912 C 0.80987 0.12457 0.26449 0.0
H3913 H 0.77007 0.13866 0.28115 0.0
C3914 C 0.81837 0.14225 0.25847 0.0
C3915 C 0.7923 0.12325 0.27291 0.0
C3916 C 0.78288 0.1049 0.28039 0.0
C3917 C 0.80968 0.15856 0.26039 0.0
C3918 C 0.79212 0.15722 0.26874 0.0
C3919 C 0.78354 0.13958 0.27475 0.0
C3920 C 0.7826 0.17416 0.27128 0.0
C3921 C 0.8192 0.17704 0.25317 0.0
C3922 C 0.79075 0.19051 0.28383 0.0
C3923 C 0.78312 0.20742 0.28461 0.0
C3924 C 0.76718 0.20829 0.27283 0.0
C3925 C 0.75844 0.19149 0.261 0.0
C3926 C 0.76609 0.17455 0.26026 0.0
H3927 H 0.83063 0.17454 0.24376 0.0
H3928 H 0.80875 0.18353 0.2453 0.0
H3929 H 0.82555 0.18773 0.26533 0.0
H3930 H 0.80338 0.19039 0.2926 0.0
H3931 H 0.79015 0.22 0.29401 0.0
H3932 H 0.70026 0.16033 0.00824 0.0
H3933 H 0.66697 0.14421 0.00755 0.0
H3934 H 0.68092 0.09191 0.97931 0.0
H3935 H 0.71408 0.10774 0.9801 0.0
H3936 H 0.63932 0.12214 0.97709 0.0
H3937 H 0.66084 0.07804 0.03148 0.0
H3938 H 0.67575 0.09997 0.02597 0.0
H3939 H 0.67403 0.07768 0.01067 0.0
C3940 C 0.69613 0.14554 0.00154 0.0
C3941 C 0.70974 0.13515 -0.00549 0.0
C3942 C 0.67717 0.13638 0.00116 0.0
C3943 C 0.6717 0.11683 0.99369 0.0
C3944 C 0.68501 0.10694 0.98538 0.0
H3945 H 0.56267 0.04095 0.9737 0.0
H3946 H 0.59349 0.0613 0.97092 0.0
C3947 C 0.70391 0.116 0.98585 0.0
C3948 C 0.65258 0.1061 -0.00391 0.0
H3949 H 0.62937 0.06897 0.01813 0.0
C3950 C 0.63706 0.11057 0.98611 0.0
C3951 C 0.64978 0.09125 0.00811 0.0
C3952 C 0.66594 0.08651 0.01982 0.0
C3953 C 0.61871 0.10013 0.98747 0.0
C3954 C 0.61604 0.08477 -0.00108 0.0
C3955 C 0.63154 0.08066 0.00924 0.0
C3956 C 0.59729 0.0727 0.00049 0.0
C3957 C 0.60235 0.10573 0.97682 0.0
C3958 C 0.58957 0.07194 0.01816 0.0
C3959 C 0.57207 0.06019 0.01986 0.0
C3960 C 0.56203 0.04893 0.00391 0.0
C3961 C 0.56998 0.0495 0.98626 0.0
C3962 C 0.58751 0.06125 0.98459 0.0
H3963 H 0.60602 0.1207 0.9728 0.0
H3964 H 0.5985 0.09559 0.96366 0.0
H3965 H 0.58976 0.10476 0.98536 0.0
H3966 H 0.59704 0.08057 0.03062 0.0
H3967 H 0.56637 0.06011 0.03366 0.0
H3968 H 0.1372 0.43616 0.2755 0.0
H3969 H 0.15997 0.41678 0.28558 0.0
H3970 H 0.2036 0.45144 0.25753 0.0
H3971 H 0.1812 0.47122 0.24808 0.0
H3972 H 0.17566 0.39483 0.26207 0.0
H3973 H 0.23324 0.44569 0.30447 0.0
H3974 H 0.21056 0.45206 0.29914 0.0
H3975 H 0.22869 0.45458 0.28243 0.0
C3976 C 0.15176 0.43987 0.27185 0.0
C3977 C 0.15742 0.45509 0.2609 0.0
C3978 C 0.16476 0.42886 0.27767 0.0
C3979 C 0.18356 0.43283 0.27254 0.0
C3980 C 0.18934 0.44845 0.26215 0.0
H3981 H 0.24991 0.34901 0.23906 0.0
H3982 H 0.2326 0.37587 0.24233 0.0
C3983 C 0.17644 0.45961 0.25655 0.0
C3984 C 0.19634 0.41904 0.27548 0.0
H3985 H 0.24188 0.41643 0.28865 0.0
C3986 C 0.19002 0.39953 0.26823 0.0
C3987 C 0.21502 0.42508 0.2837 0.0
C3988 C 0.22217 0.44547 0.29305 0.0
C3989 C 0.20213 0.38612 0.26804 0.0
C3990 C 0.22123 0.39254 0.27477 0.0
C3991 C 0.22734 0.41174 0.28305 0.0
C3992 C 0.23492 0.37935 0.27291 0.0
C3993 C 0.1944 0.36522 0.2604 0.0
C3994 C 0.243 0.37343 0.28902 0.0
C3995 C 0.25312 0.35828 0.28717 0.0
C3996 C 0.25513 0.34889 0.2692 0.0
C3997 C 0.24838 0.35593 0.25307 0.0
C3998 C 0.23845 0.37117 0.25492 0.0
H3999 H 0.17877 0.36164 0.2609 0.0
H4000 H 0.19785 0.36276 0.24543 0.0
H4001 H 0.20075 0.35509 0.26848 0.0
H4002 H 0.2405 0.37971 0.30301 0.0
H4003 H 0.25825 0.35309 0.29982 0.0
H4004 H 0.1704 0.38482 0.0288 0.0
H4005 H 0.14434 0.4029 0.03115 0.0
H4006 H 0.18458 0.45658 0.04392 0.0
H4007 H 0.21058 0.43873 0.04182 0.0
H4008 H 0.15315 0.45355 0.06669 0.0
H4009 H 0.13202 0.43658 0.98993 0.0
H4010 H 0.13276 0.41597 0.00259 0.0
H4011 H 0.15426 0.43265 -7e-05 0.0
C4012 C 0.17366 0.40046 0.03224 0.0
C4013 C 0.19253 0.41038 0.03494 0.0
C4014 C 0.15879 0.41076 0.03351 0.0
C4015 C 0.16259 0.43109 0.03745 0.0
C4016 C 0.18137 0.44091 0.04081 0.0
H4017 H 0.09237 0.5129 0.01125 0.0
H4018 H 0.11817 0.49495 0.01517 0.0
C4019 C 0.1962 0.43067 0.03953 0.0
C4020 C 0.14717 0.44238 0.03735 0.0
H4021 H 0.11382 0.45515 0.00825 0.0
C4022 C 0.14447 0.45387 0.05396 0.0
C4023 C 0.13611 0.44294 0.02063 0.0
C4024 C 0.13896 0.43152 0.00219 0.0
C4025 C 0.13095 0.46595 0.05429 0.0
C4026 C 0.11977 0.46636 0.03759 0.0
C4027 C 0.12245 0.45481 0.02102 0.0
C4028 C 0.10521 0.47867 0.03684 0.0
C4029 C 0.12908 0.4785 0.07234 0.0
C4030 C 0.08956 0.47566 0.04794 0.0
C4031 C 0.07492 0.48596 0.04578 0.0
C4032 C 0.07563 0.49928 0.03239 0.0
C4033 C 0.09154 0.50275 0.02171 0.0
C4034 C 0.10622 0.49247 0.0239 0.0
H4035 H 0.1418 0.4803 0.08222 0.0
H4036 H 0.12678 0.49309 0.0694 0.0
H4037 H 0.11671 0.47155 0.07952 0.0
H4038 H 0.08831 0.46484 0.05775 0.0
H4039 H 0.06271 0.48296 0.05408 0.0
H4040 H 0.8679 0.94853 0.21139 0.0
H4041 H 0.84749 0.91708 0.21246 0.0
H4042 H 0.80223 0.9457 0.23083 0.0
H4043 H 0.82273 0.97733 0.23021 0.0
H4044 H 0.80857 0.91894 0.25341 0.0
H4045 H 0.80329 0.88635 0.17885 0.0
H4046 H 0.82736 0.89475 0.18784 0.0
H4047 H 0.81189 0.91194 0.18585 0.0
C4048 C 0.8535 0.94819 0.21534 0.0
C4049 C 0.84698 0.96549 0.22078 0.0
C4050 C 0.8418 0.93016 0.21583 0.0
C4051 C 0.82326 0.92903 0.2215 0.0
C4052 C 0.81648 0.94625 0.22633 0.0
H4053 H 0.74298 0.81986 0.22013 0.0
H4054 H 0.75922 0.85207 0.21395 0.0
C4055 C 0.82821 0.96431 0.22595 0.0
C4056 C 0.81162 0.90996 0.22406 0.0
H4057 H 0.79474 0.86434 0.20188 0.0
C4058 C 0.80537 0.90706 0.24209 0.0
C4059 C 0.80729 0.89454 0.20924 0.0
C4060 C 0.81264 0.89709 0.18931 0.0
C4061 C 0.79539 0.889 0.24585 0.0
C4062 C 0.79195 0.87329 0.23128 0.0
C4063 C 0.79765 0.87633 0.2131 0.0
C4064 C 0.78244 0.8536 0.23469 0.0
C4065 C 0.78853 0.88696 0.26536 0.0
C4066 C 0.79032 0.84366 0.24813 0.0
C4067 C 0.78101 0.82536 0.25177 0.0
C4068 C 0.7638 0.81661 0.24185 0.0
C4069 C 0.7562 0.82633 0.22804 0.0
C4070 C 0.76546 0.84469 0.22447 0.0
H4071 H 0.78748 0.90127 0.27302 0.0
H4072 H 0.77446 0.87726 0.2647 0.0
H4073 H 0.79871 0.88058 0.27368 0.0
H4074 H 0.80363 0.85009 0.25587 0.0
H4075 H 0.78722 0.81814 0.26244 0.0
H4076 H 0.6512 0.04513 0.75453 0.0
H4077 H 0.67003 0.07787 0.75965 0.0
H4078 H 0.62818 0.09864 0.72632 0.0
H4079 H 0.60899 0.06584 0.72128 0.0
H4080 H 0.68527 0.09978 0.73227 0.0
H4081 H 0.63689 0.13752 0.77444 0.0
H4082 H 0.63405 0.11137 0.77071 0.0
H4083 H 0.62629 0.12442 0.75246 0.0
C4084 C 0.64588 0.05664 0.74835 0.0
C4085 C 0.62855 0.05284 0.73748 0.0
C4086 C 0.65668 0.07535 0.75132 0.0
C4087 C 0.65039 0.09069 0.74357 0.0
C4088 C 0.6331 0.08704 0.73274 0.0
H4089 H 0.7167 0.19945 0.7219 0.0
H4090 H 0.69734 0.16713 0.72052 0.0
C4091 C 0.62222 0.06828 0.72977 0.0
C4092 C 0.66246 0.11025 0.74609 0.0
H4093 H 0.66376 0.15747 0.76374 0.0
C4094 C 0.6806 0.11238 0.73922 0.0
C4095 C 0.65641 0.12658 0.7554 0.0
C4096 C 0.63742 0.12491 0.76385 0.0
C4097 C 0.69273 0.13052 0.74105 0.0
C4098 C 0.68642 0.14697 0.74972 0.0
C4099 C 0.66846 0.1448 0.75699 0.0
C4100 C 0.69809 0.16665 0.7508 0.0
C4101 C 0.71225 0.13192 0.73378 0.0
C4102 C 0.70463 0.17722 0.76835 0.0
C4103 C 0.71573 0.19581 0.76924 0.0
C4104 C 0.72033 0.20415 0.75257 0.0
C4105 C 0.71355 0.1935 0.73504 0.0
C4106 C 0.70252 0.17496 0.73419 0.0
H4107 H 0.71665 0.11754 0.73209 0.0
H4108 H 0.71224 0.13738 0.71975 0.0
H4109 H 0.72289 0.14219 0.74344 0.0
H4110 H 0.70125 0.17102 0.78133 0.0
H4111 H 0.72063 0.20363 0.78298 0.0
loop_
_geom_bond_atom_site_label_1
_geom_bond_atom_site_label_2
_geom_bond_distance
_geom_bond_site_symmetry_2
_ccdc_geom_bond_type
C0 O1 1.306 . S
C0 O3 1.160 . S
O1 C0 1.306 . S
O1 Cd2 2.228 1_655 S
Cd2 O1 2.228 1_455 S
Cd2 O6 2.273 . S
Cd2 O10 2.277 . S
O3 C0 1.160 . S
O3 Cd4 2.203 1_655 S
Cd4 O3 2.203 1_455 S
Cd4 O6 2.411 . S
Cd4 O7 2.333 . S
Cd4 O8 2.352 . S
Cd4 O12 2.277 . S
Cd4 O13 2.356 . S
C5 O10 1.209 . S
C5 O12 1.226 . S
O6 Cd2 2.273 . S
O6 Cd4 2.411 . S
O6 C9 1.320 . S
O7 Cd4 2.333 . S
O7 C9 1.214 . S
O8 Cd4 2.352 . S
O8 C11 1.258 . S
C9 O6 1.320 . S
C9 O7 1.214 . S
O10 Cd2 2.277 . S
O10 C5 1.209 . S
C11 O8 1.258 . S
C11 O13 1.282 . S
O12 Cd4 2.277 . S
O12 C5 1.226 . S
O13 Cd4 2.356 . S
O13 C11 1.282 . S
C14 O15 1.306 . S
C14 O17 1.160 . S
O15 C14 1.306 . S
O15 Cd16 2.228 1_655 S
Cd16 O15 2.228 1_455 S
Cd16 O20 2.273 . S
Cd16 O24 2.277 . S
O17 C14 1.160 . S
O17 Cd18 2.203 1_655 S
Cd18 O17 2.203 1_455 S
Cd18 O20 2.411 . S
Cd18 O21 2.333 . S
Cd18 O22 2.352 . S
Cd18 O26 2.277 . S
Cd18 O27 2.356 . S
C19 O24 1.209 . S
C19 O26 1.226 . S
O20 Cd16 2.273 . S
O20 Cd18 2.411 . S
O20 C23 1.320 . S
O21 Cd18 2.333 . S
O21 C23 1.214 . S
O22 Cd18 2.352 . S
O22 C25 1.258 . S
C23 O20 1.320 . S
C23 O21 1.214 . S
O24 Cd16 2.277 . S
O24 C19 1.209 . S
C25 O22 1.258 . S
C25 O27 1.282 . S
O26 Cd18 2.277 . S
O26 C19 1.226 . S
O27 Cd18 2.356 . S
O27 C25 1.282 . S
C28 O29 1.306 . S
C28 O31 1.160 . S
O29 C28 1.306 . S
O29 Cd30 2.228 . S
Cd30 O29 2.228 . S
Cd30 O34 2.273 . S
Cd30 O38 2.277 . S
O31 C28 1.160 . S
O31 Cd32 2.203 . S
Cd32 O31 2.203 . S
Cd32 O34 2.411 . S
Cd32 O35 2.333 . S
Cd32 O36 2.352 . S
Cd32 O40 2.277 . S
Cd32 O41 2.356 . S
C33 O38 1.209 . S
C33 O40 1.226 . S
O34 Cd30 2.273 . S
O34 Cd32 2.411 . S
O34 C37 1.320 . S
O35 Cd32 2.333 . S
O35 C37 1.214 . S
O36 Cd32 2.352 . S
O36 C39 1.258 . S
C37 O34 1.320 . S
C37 O35 1.214 . S
O38 Cd30 2.277 . S
O38 C33 1.209 . S
C39 O36 1.258 . S
C39 O41 1.282 . S
O40 Cd32 2.277 . S
O40 C33 1.226 . S
O41 Cd32 2.356 . S
O41 C39 1.282 . S
C42 O43 1.306 . S
C42 O45 1.160 . S
O43 C42 1.306 . S
O43 Cd44 2.228 . S
Cd44 O43 2.228 . S
Cd44 O48 2.273 . S
Cd44 O52 2.277 . S
O45 C42 1.160 . S
O45 Cd46 2.203 . S
Cd46 O45 2.203 . S
Cd46 O48 2.411 . S
Cd46 O49 2.333 . S
Cd46 O50 2.352 . S
Cd46 O54 2.277 . S
Cd46 O55 2.356 . S
C47 O52 1.209 . S
C47 O54 1.226 . S
O48 Cd44 2.273 . S
O48 Cd46 2.411 . S
O48 C51 1.320 . S
O49 Cd46 2.333 . S
O49 C51 1.214 . S
O50 Cd46 2.352 . S
O50 C53 1.258 . S
C51 O48 1.320 . S
C51 O49 1.214 . S
O52 Cd44 2.277 . S
O52 C47 1.209 . S
C53 O50 1.258 . S
C53 O55 1.282 . S
O54 Cd46 2.277 . S
O54 C47 1.226 . S
O55 Cd46 2.356 . S
O55 C53 1.282 . S
C56 O57 1.306 . S
C56 O59 1.160 . S
O57 C56 1.306 . S
O57 Cd58 2.228 1_655 S
Cd58 O57 2.228 1_455 S
Cd58 O62 2.273 . S
Cd58 O66 2.277 . S
O59 C56 1.160 . S
O59 Cd60 2.203 1_655 S
Cd60 O59 2.203 1_455 S
Cd60 O62 2.411 . S
Cd60 O63 2.333 . S
Cd60 O64 2.352 . S
Cd60 O68 2.277 . S
Cd60 O69 2.356 . S
C61 O66 1.209 . S
C61 O68 1.226 . S
O62 Cd58 2.273 . S
O62 Cd60 2.411 . S
O62 C65 1.320 . S
O63 Cd60 2.333 . S
O63 C65 1.214 . S
O64 Cd60 2.352 . S
O64 C67 1.258 . S
C65 O62 1.320 . S
C65 O63 1.214 . S
O66 Cd58 2.277 . S
O66 C61 1.209 . S
C67 O64 1.258 . S
C67 O69 1.282 . S
O68 Cd60 2.277 . S
O68 C61 1.226 . S
O69 Cd60 2.356 . S
O69 C67 1.282 . S
C70 O71 1.306 . S
C70 O73 1.160 . S
O71 C70 1.306 . S
O71 Cd72 2.228 . S
Cd72 O71 2.228 . S
Cd72 O76 2.273 . S
Cd72 O80 2.277 . S
O73 C70 1.160 . S
O73 Cd74 2.203 . S
Cd74 O73 2.203 . S
Cd74 O76 2.411 . S
Cd74 O77 2.333 . S
Cd74 O78 2.352 . S
Cd74 O82 2.277 . S
Cd74 O83 2.356 . S
C75 O80 1.209 . S
C75 O82 1.226 . S
O76 Cd72 2.273 . S
O76 Cd74 2.411 . S
O76 C79 1.320 . S
O77 Cd74 2.333 . S
O77 C79 1.214 . S
O78 Cd74 2.352 . S
O78 C81 1.258 . S
C79 O76 1.320 . S
C79 O77 1.214 . S
O80 Cd72 2.277 . S
O80 C75 1.209 . S
C81 O78 1.258 . S
C81 O83 1.282 . S
O82 Cd74 2.277 . S
O82 C75 1.226 . S
O83 Cd74 2.356 . S
O83 C81 1.282 . S
C84 O85 1.306 . S
C84 O87 1.160 . S
O85 C84 1.306 . S
O85 Cd86 2.228 . S
Cd86 O85 2.228 . S
Cd86 O90 2.273 . S
Cd86 O94 2.277 . S
O87 C84 1.160 . S
O87 Cd88 2.203 . S
Cd88 O87 2.203 . S
Cd88 O90 2.411 . S
Cd88 O91 2.333 . S
Cd88 O92 2.352 . S
Cd88 O96 2.277 . S
Cd88 O97 2.356 . S
C89 O94 1.209 . S
C89 O96 1.226 . S
O90 Cd86 2.273 . S
O90 Cd88 2.411 . S
O90 C93 1.320 . S
O91 Cd88 2.333 . S
O91 C93 1.214 . S
O92 Cd88 2.352 . S
O92 C95 1.258 . S
C93 O90 1.320 . S
C93 O91 1.214 . S
O94 Cd86 2.277 . S
O94 C89 1.209 . S
C95 O92 1.258 . S
C95 O97 1.282 . S
O96 Cd88 2.277 . S
O96 C89 1.226 . S
O97 Cd88 2.356 . S
O97 C95 1.282 . S
C98 O99 1.306 . S
C98 O101 1.160 . S
O99 C98 1.306 . S
O99 Cd100 2.228 1_655 S
Cd100 O99 2.228 1_455 S
Cd100 O104 2.273 . S
Cd100 O108 2.277 . S
O101 C98 1.160 . S
O101 Cd102 2.203 1_655 S
Cd102 O101 2.203 1_455 S
Cd102 O104 2.411 . S
Cd102 O105 2.333 . S
Cd102 O106 2.352 1_455 S
Cd102 O110 2.277 . S
Cd102 O111 2.356 . S
C103 O108 1.209 . S
C103 O110 1.226 . S
O104 Cd100 2.273 . S
O104 Cd102 2.411 . S
O104 C107 1.320 . S
O105 Cd102 2.333 . S
O105 C107 1.214 . S
O106 Cd102 2.352 1_655 S
O106 C109 1.254 1_655 S
C107 O104 1.320 . S
C107 O105 1.214 . S
O108 Cd100 2.277 . S
O108 C103 1.209 . S
C109 O106 1.254 1_455 S
C109 O111 1.288 . S
O110 Cd102 2.277 . S
O110 C103 1.226 . S
O111 Cd102 2.356 . S
O111 C109 1.288 . S
C112 O113 1.306 . S
C112 O115 1.160 . S
O113 C112 1.306 . S
O113 Cd114 2.228 1_545 S
Cd114 O113 2.228 1_565 S
Cd114 O118 2.273 1_565 S
Cd114 O122 2.277 . S
O115 C112 1.160 . S
O115 Cd116 2.203 . S
Cd116 O115 2.203 . S
Cd116 O118 2.411 . S
Cd116 O119 2.333 . S
Cd116 O120 2.352 . S
Cd116 O124 2.277 1_545 S
Cd116 O125 2.356 . S
C117 O122 1.209 . S
C117 O124 1.226 . S
O118 Cd114 2.273 1_545 S
O118 Cd116 2.411 . S
O118 C121 1.320 . S
O119 Cd116 2.333 . S
O119 C121 1.214 . S
O120 Cd116 2.352 . S
O120 C123 1.258 . S
C121 O118 1.320 . S
C121 O119 1.214 . S
O122 Cd114 2.277 . S
O122 C117 1.209 . S
C123 O120 1.258 . S
C123 O125 1.282 . S
O124 Cd116 2.277 1_565 S
O124 C117 1.226 . S
O125 Cd116 2.356 . S
O125 C123 1.282 . S
C126 O127 1.306 . S
C126 O129 1.160 . S
O127 C126 1.306 . S
O127 Cd128 2.228 . S
Cd128 O127 2.228 . S
Cd128 O132 2.273 . S
Cd128 O136 2.277 . S
O129 C126 1.160 . S
O129 Cd130 2.203 . S
Cd130 O129 2.203 . S
Cd130 O132 2.411 . S
Cd130 O133 2.333 . S
Cd130 O134 2.352 . S
Cd130 O138 2.277 . S
Cd130 O139 2.356 . S
C131 O136 1.209 . S
C131 O138 1.226 . S
O132 Cd128 2.273 . S
O132 Cd130 2.411 . S
O132 C135 1.320 . S
O133 Cd130 2.333 . S
O133 C135 1.214 . S
O134 Cd130 2.352 . S
O134 C137 1.258 . S
C135 O132 1.320 . S
C135 O133 1.214 . S
O136 Cd128 2.277 . S
O136 C131 1.209 . S
C137 O134 1.258 . S
C137 O139 1.282 . S
O138 Cd130 2.277 . S
O138 C131 1.226 . S
O139 Cd130 2.356 . S
O139 C137 1.282 . S
C140 O141 1.306 . S
C140 O143 1.150 1_545 S
O141 C140 1.306 . S
O141 Cd142 2.228 . S
Cd142 O141 2.228 . S
Cd142 O146 2.273 1_545 S
Cd142 O150 2.277 . S
O143 C140 1.150 1_565 S
O143 Cd144 2.203 . S
Cd144 O143 2.203 . S
Cd144 O146 2.411 . S
Cd144 O147 2.333 . S
Cd144 O148 2.352 . S
Cd144 O152 2.277 1_565 S
Cd144 O153 2.356 . S
C145 O150 1.209 . S
C145 O152 1.226 . S
O146 Cd142 2.273 1_565 S
O146 Cd144 2.411 . S
O146 C149 1.320 . S
O147 Cd144 2.333 . S
O147 C149 1.214 . S
O148 Cd144 2.352 . S
O148 C151 1.258 . S
C149 O146 1.320 . S
C149 O147 1.214 . S
O150 Cd142 2.277 . S
O150 C145 1.209 . S
C151 O148 1.258 . S
C151 O153 1.282 . S
O152 Cd144 2.277 1_545 S
O152 C145 1.226 . S
O153 Cd144 2.356 . S
O153 C151 1.282 . S
C154 O155 1.306 . S
C154 O157 1.160 . S
O155 C154 1.306 . S
O155 Cd156 2.251 . S
Cd156 O155 2.251 . S
Cd156 O160 2.309 . S
Cd156 O164 2.270 1_554 S
O157 C154 1.160 . S
O157 Cd158 2.203 . S
Cd158 O157 2.203 . S
Cd158 O160 2.411 . S
Cd158 O161 2.333 . S
Cd158 O162 2.352 . S
Cd158 O166 2.277 . S
Cd158 O167 2.356 . S
C159 O164 1.209 . S
C159 O166 1.226 1_556 S
O160 Cd156 2.309 . S
O160 Cd158 2.411 . S
O160 C163 1.320 . S
O161 Cd158 2.333 . S
O161 C163 1.214 . S
O162 Cd158 2.352 . S
O162 C165 1.258 . S
C163 O160 1.320 . S
C163 O161 1.214 . S
O164 Cd156 2.270 1_556 S
O164 C159 1.209 . S
C165 O162 1.258 . S
C165 O167 1.282 . S
O166 Cd158 2.277 . S
O166 C159 1.226 1_554 S
O167 Cd158 2.356 . S
O167 C165 1.282 . S
C168 O169 1.306 . S
C168 O171 1.160 . S
O169 C168 1.306 . S
O169 Cd170 2.228 1_554 S
Cd170 O169 2.228 1_556 S
Cd170 O174 2.273 1_556 S
Cd170 O178 2.277 . S
O171 C168 1.160 . S
O171 Cd172 2.203 . S
Cd172 O171 2.203 . S
Cd172 O174 2.411 . S
Cd172 O175 2.333 . S
Cd172 O176 2.352 . S
Cd172 O180 2.277 1_554 S
Cd172 O181 2.356 . S
C173 O178 1.209 . S
C173 O180 1.226 . S
O174 Cd170 2.273 1_554 S
O174 Cd172 2.411 . S
O174 C177 1.320 . S
O175 Cd172 2.333 . S
O175 C177 1.214 . S
O176 Cd172 2.352 . S
O176 C179 1.258 . S
C177 O174 1.320 . S
C177 O175 1.214 . S
O178 Cd170 2.277 . S
O178 C173 1.209 . S
C179 O176 1.258 . S
C179 O181 1.282 . S
O180 Cd172 2.277 1_556 S
O180 C173 1.226 . S
O181 Cd172 2.356 . S
O181 C179 1.282 . S
C182 O183 1.306 . S
C182 O185 1.160 1_554 S
O183 C182 1.306 . S
O183 Cd184 2.228 . S
Cd184 O183 2.228 . S
Cd184 O188 2.235 1_554 S
Cd184 O192 2.277 . S
O185 C182 1.160 1_556 S
O185 Cd186 2.203 . S
Cd186 O185 2.203 . S
Cd186 O188 2.419 . S
Cd186 O189 2.333 . S
Cd186 O190 2.352 . S
Cd186 O194 2.277 1_556 S
Cd186 O195 2.356 . S
C187 O192 1.209 . S
C187 O194 1.226 . S
O188 Cd184 2.235 1_556 S
O188 Cd186 2.419 . S
O188 C191 1.325 . S
O189 Cd186 2.333 . S
O189 C191 1.214 . S
O190 Cd186 2.352 . S
O190 C193 1.258 . S
C191 O188 1.325 . S
C191 O189 1.214 . S
O192 Cd184 2.277 . S
O192 C187 1.209 . S
C193 O190 1.258 . S
C193 O195 1.282 . S
O194 Cd186 2.277 1_554 S
O194 C187 1.226 . S
O195 Cd186 2.356 . S
O195 C193 1.282 . S
C196 O197 1.306 . S
C196 O199 1.160 . S
O197 C196 1.306 . S
O197 Cd198 2.228 . S
Cd198 O197 2.228 . S
Cd198 O202 2.273 . S
Cd198 O206 2.277 . S
O199 C196 1.160 . S
O199 Cd200 2.203 . S
Cd200 O199 2.203 . S
Cd200 O202 2.411 . S
Cd200 O203 2.333 . S
Cd200 O204 2.352 . S
Cd200 O208 2.277 . S
Cd200 O209 2.356 . S
C201 O206 1.209 . S
C201 O208 1.226 . S
O202 Cd198 2.273 . S
O202 Cd200 2.411 . S
O202 C205 1.320 . S
O203 Cd200 2.333 . S
O203 C205 1.214 . S
O204 Cd200 2.352 . S
O204 C207 1.258 . S
C205 O202 1.320 . S
C205 O203 1.214 . S
O206 Cd198 2.277 . S
O206 C201 1.209 . S
C207 O204 1.258 . S
C207 O209 1.282 . S
O208 Cd200 2.277 . S
O208 C201 1.226 . S
O209 Cd200 2.356 . S
O209 C207 1.282 . S
C210 O211 1.306 . S
C210 O213 1.160 . S
O211 C210 1.306 . S
O211 Cd212 2.228 . S
Cd212 O211 2.228 . S
Cd212 O216 2.273 . S
Cd212 O220 2.277 . S
O213 C210 1.160 . S
O213 Cd214 2.203 . S
Cd214 O213 2.203 . S
Cd214 O216 2.411 . S
Cd214 O217 2.333 . S
Cd214 O218 2.352 . S
Cd214 O222 2.277 . S
Cd214 O223 2.356 . S
C215 O220 1.209 . S
C215 O222 1.226 . S
O216 Cd212 2.273 . S
O216 Cd214 2.411 . S
O216 C219 1.320 . S
O217 Cd214 2.333 . S
O217 C219 1.214 . S
O218 Cd214 2.352 . S
O218 C221 1.258 . S
C219 O216 1.320 . S
C219 O217 1.214 . S
O220 Cd212 2.277 . S
O220 C215 1.209 . S
C221 O218 1.258 . S
C221 O223 1.282 . S
O222 Cd214 2.277 . S
O222 C215 1.226 . S
O223 Cd214 2.356 . S
O223 C221 1.282 . S
C224 O225 1.306 . S
C224 O227 1.160 . S
O225 C224 1.306 . S
O225 Cd226 2.228 . S
Cd226 O225 2.228 . S
Cd226 O230 2.273 . S
Cd226 O234 2.277 . S
O227 C224 1.160 . S
O227 Cd228 2.203 . S
Cd228 O227 2.203 . S
Cd228 O230 2.411 . S
Cd228 O231 2.333 . S
Cd228 O232 2.352 . S
Cd228 O236 2.277 . S
Cd228 O237 2.356 . S
C229 O234 1.209 . S
C229 O236 1.226 . S
O230 Cd226 2.273 . S
O230 Cd228 2.411 . S
O230 C233 1.320 . S
O231 Cd228 2.333 . S
O231 C233 1.214 . S
O232 Cd228 2.352 . S
O232 C235 1.258 . S
C233 O230 1.320 . S
C233 O231 1.214 . S
O234 Cd226 2.277 . S
O234 C229 1.209 . S
C235 O232 1.258 . S
C235 O237 1.282 . S
O236 Cd228 2.277 . S
O236 C229 1.226 . S
O237 Cd228 2.356 . S
O237 C235 1.282 . S
C238 O239 1.306 . S
C238 O241 1.160 . S
O239 C238 1.306 . S
O239 Cd240 2.228 . S
Cd240 O239 2.228 . S
Cd240 O244 2.273 . S
Cd240 O248 2.277 . S
O241 C238 1.160 . S
O241 Cd242 2.203 . S
Cd242 O241 2.203 . S
Cd242 O244 2.411 . S
Cd242 O245 2.333 . S
Cd242 O246 2.352 . S
Cd242 O250 2.277 . S
Cd242 O251 2.356 . S
C243 O248 1.209 . S
C243 O250 1.226 . S
O244 Cd240 2.273 . S
O244 Cd242 2.411 . S
O244 C247 1.320 . S
O245 Cd242 2.333 . S
O245 C247 1.214 . S
O246 Cd242 2.352 . S
O246 C249 1.258 . S
C247 O244 1.320 . S
C247 O245 1.214 . S
O248 Cd240 2.277 . S
O248 C243 1.209 . S
C249 O246 1.258 . S
C249 O251 1.282 . S
O250 Cd242 2.277 . S
O250 C243 1.226 . S
O251 Cd242 2.356 . S
O251 C249 1.282 . S
C252 O253 1.306 . S
C252 O255 1.160 . S
O253 C252 1.306 . S
O253 Cd254 2.228 . S
Cd254 O253 2.228 . S
Cd254 O258 2.273 . S
Cd254 O262 2.277 . S
O255 C252 1.160 . S
O255 Cd256 2.203 . S
Cd256 O255 2.203 . S
Cd256 O258 2.411 . S
Cd256 O259 2.333 . S
Cd256 O260 2.352 . S
Cd256 O264 2.277 . S
Cd256 O265 2.356 . S
C257 O262 1.209 . S
C257 O264 1.226 . S
O258 Cd254 2.273 . S
O258 Cd256 2.411 . S
O258 C261 1.320 . S
O259 Cd256 2.333 . S
O259 C261 1.214 . S
O260 Cd256 2.352 . S
O260 C263 1.258 . S
C261 O258 1.320 . S
C261 O259 1.214 . S
O262 Cd254 2.277 . S
O262 C257 1.209 . S
C263 O260 1.258 . S
C263 O265 1.282 . S
O264 Cd256 2.277 . S
O264 C257 1.226 . S
O265 Cd256 2.356 . S
O265 C263 1.282 . S
C266 O267 1.306 . S
C266 O269 1.160 . S
O267 C266 1.306 . S
O267 Cd268 2.228 . S
Cd268 O267 2.228 . S
Cd268 O272 2.273 . S
Cd268 O276 2.277 . S
O269 C266 1.160 . S
O269 Cd270 2.203 . S
Cd270 O269 2.203 . S
Cd270 O272 2.411 . S
Cd270 O273 2.333 . S
Cd270 O274 2.352 1_545 S
Cd270 O278 2.277 . S
Cd270 O279 2.385 . S
C271 O276 1.209 . S
C271 O278 1.226 . S
O272 Cd268 2.273 . S
O272 Cd270 2.411 . S
O272 C275 1.320 . S
O273 Cd270 2.333 . S
O273 C275 1.214 . S
O274 Cd270 2.352 1_565 S
O274 C277 1.258 . S
C275 O272 1.320 . S
C275 O273 1.214 . S
O276 Cd268 2.277 . S
O276 C271 1.209 . S
C277 O274 1.258 . S
C277 O279 1.254 1_565 S
O278 Cd270 2.277 . S
O278 C271 1.226 . S
O279 Cd270 2.385 . S
O279 C277 1.254 1_545 S
C280 O281 1.306 . S
C280 O283 1.160 . S
O281 C280 1.306 . S
O281 Cd282 2.228 . S
Cd282 O281 2.228 . S
Cd282 O286 2.273 . S
Cd282 O290 2.277 . S
O283 C280 1.160 . S
O283 Cd284 2.203 . S
Cd284 O283 2.203 . S
Cd284 O286 2.411 . S
Cd284 O287 2.333 . S
Cd284 O288 2.352 1_554 S
Cd284 O292 2.277 . S
Cd284 O293 2.356 1_554 S
C285 O290 1.209 . S
C285 O292 1.226 . S
O286 Cd282 2.273 . S
O286 Cd284 2.411 . S
O286 C289 1.320 . S
O287 Cd284 2.333 . S
O287 C289 1.214 . S
O288 Cd284 2.352 1_556 S
O288 C291 1.258 . S
C289 O286 1.320 . S
C289 O287 1.214 . S
O290 Cd282 2.277 . S
O290 C285 1.209 . S
C291 O288 1.258 . S
C291 O293 1.282 . S
O292 Cd284 2.277 . S
O292 C285 1.226 . S
O293 Cd284 2.356 1_556 S
O293 C291 1.282 . S
C294 O295 1.306 . S
C294 O297 1.160 . S
O295 C294 1.306 . S
O295 Cd296 2.228 . S
Cd296 O295 2.228 . S
Cd296 O300 2.273 . S
Cd296 O304 2.277 . S
O297 C294 1.160 . S
O297 Cd298 2.203 . S
Cd298 O297 2.203 . S
Cd298 O300 2.411 . S
Cd298 O301 2.333 . S
Cd298 O302 2.352 . S
Cd298 O306 2.277 . S
Cd298 O307 2.356 . S
C299 O304 1.209 . S
C299 O306 1.226 . S
O300 Cd296 2.273 . S
O300 Cd298 2.411 . S
O300 C303 1.320 . S
O301 Cd298 2.333 . S
O301 C303 1.214 . S
O302 Cd298 2.352 . S
O302 C305 1.258 . S
C303 O300 1.320 . S
C303 O301 1.214 . S
O304 Cd296 2.277 . S
O304 C299 1.209 . S
C305 O302 1.258 . S
C305 O307 1.282 . S
O306 Cd298 2.277 . S
O306 C299 1.226 . S
O307 Cd298 2.356 . S
O307 C305 1.282 . S
C308 O309 1.306 . S
C308 O311 1.160 . S
O309 C308 1.306 . S
O309 Cd310 2.228 . S
Cd310 O309 2.228 . S
Cd310 O314 2.273 . S
Cd310 O318 2.277 . S
O311 C308 1.160 . S
O311 Cd312 2.203 . S
Cd312 O311 2.203 . S
Cd312 O314 2.411 . S
Cd312 O315 2.333 . S
Cd312 O316 2.352 . S
Cd312 O320 2.277 . S
Cd312 O321 2.356 . S
C313 O318 1.209 . S
C313 O320 1.226 . S
O314 Cd310 2.273 . S
O314 Cd312 2.411 . S
O314 C317 1.320 . S
O315 Cd312 2.333 . S
O315 C317 1.214 . S
O316 Cd312 2.352 . S
O316 C319 1.258 . S
C317 O314 1.320 . S
C317 O315 1.214 . S
O318 Cd310 2.277 . S
O318 C313 1.209 . S
C319 O316 1.258 . S
C319 O321 1.282 . S
O320 Cd312 2.277 . S
O320 C313 1.226 . S
O321 Cd312 2.356 . S
O321 C319 1.282 . S
C322 O323 1.306 . S
C322 O325 1.160 . S
O323 C322 1.306 . S
O323 Cd324 2.228 . S
Cd324 O323 2.228 . S
Cd324 O328 2.273 . S
Cd324 O332 2.277 . S
O325 C322 1.160 . S
O325 Cd326 2.203 . S
Cd326 O325 2.203 . S
Cd326 O328 2.411 . S
Cd326 O329 2.333 . S
Cd326 O330 2.352 . S
Cd326 O334 2.277 . S
Cd326 O335 2.356 . S
C327 O332 1.209 . S
C327 O334 1.226 . S
O328 Cd324 2.273 . S
O328 Cd326 2.411 . S
O328 C331 1.320 . S
O329 Cd326 2.333 . S
O329 C331 1.214 . S
O330 Cd326 2.352 . S
O330 C333 1.258 . S
C331 O328 1.320 . S
C331 O329 1.214 . S
O332 Cd324 2.277 . S
O332 C327 1.209 . S
C333 O330 1.258 . S
C333 O335 1.282 . S
O334 Cd326 2.277 . S
O334 C327 1.226 . S
O335 Cd326 2.356 . S
O335 C333 1.282 . S
Dy336 O340 2.398 1_554 S
Dy336 O341 2.491 . S
Dy336 O342 2.417 1_554 S
Dy336 O343 2.664 1_654 S
Dy336 O347 2.314 1_654 S
Dy336 O351 2.310 1_655 S
Dy336 O352 2.351 1_545 S
C337 O348 1.185 . S
C337 O349 1.355 . S
C338 O340 1.185 . S
C338 O341 1.355 1_556 S
Dy339 O343 2.310 1_554 S
Dy339 O346 2.351 . S
Dy339 O348 2.398 . S
Dy339 O349 2.491 . S
Dy339 O350 2.403 . S
Dy339 O351 2.664 . S
Dy339 O353 2.324 1_545 S
O340 Dy336 2.398 1_556 S
O340 C338 1.185 . S
O341 Dy336 2.491 . S
O341 C338 1.355 1_554 S
O342 Dy336 2.417 1_556 S
O342 C344 1.225 1_655 S
O343 Dy336 2.664 1_456 S
O343 Dy339 2.310 1_556 S
O343 C344 1.268 . S
C344 O342 1.225 1_455 S
C344 O343 1.268 . S
C345 O350 1.254 . S
C345 O351 1.268 . S
O346 Dy339 2.351 . S
O346 C354 1.249 . S
O347 Dy336 2.314 1_456 S
O347 C354 1.293 1_556 S
O348 C337 1.185 . S
O348 Dy339 2.398 . S
O349 C337 1.355 . S
O349 Dy339 2.491 . S
O350 Dy339 2.403 . S
O350 C345 1.254 . S
O351 Dy336 2.310 1_455 S
O351 Dy339 2.664 . S
O351 C345 1.268 . S
O352 Dy336 2.351 1_565 S
O352 C355 1.249 1_655 S
O353 Dy339 2.324 1_565 S
O353 C355 1.269 . S
C354 O346 1.249 . S
C354 O347 1.293 1_554 S
C355 O352 1.249 1_455 S
C355 O353 1.269 . S
Dy356 O360 2.398 . S
Dy356 O361 2.491 . S
Dy356 O362 2.403 . S
Dy356 O363 2.664 . S
Dy356 O367 2.326 . S
Dy356 O371 2.310 . S
Dy356 O372 2.351 . S
C357 O368 1.185 . S
C357 O369 1.355 . S
C358 O360 1.185 . S
C358 O361 1.355 . S
Dy359 O363 2.310 . S
Dy359 O366 2.351 . S
Dy359 O368 2.398 . S
Dy359 O369 2.491 . S
Dy359 O370 2.403 . S
Dy359 O371 2.664 . S
Dy359 O373 2.326 . S
O360 Dy356 2.398 . S
O360 C358 1.185 . S
O361 Dy356 2.491 . S
O361 C358 1.355 . S
O362 Dy356 2.403 . S
O362 C364 1.254 . S
O363 Dy356 2.664 . S
O363 Dy359 2.310 . S
O363 C364 1.268 . S
C364 O362 1.254 . S
C364 O363 1.268 . S
C365 O370 1.254 . S
C365 O371 1.268 . S
O366 Dy359 2.351 . S
O366 C374 1.249 . S
O367 Dy356 2.326 . S
O367 C374 1.267 . S
O368 C357 1.185 . S
O368 Dy359 2.398 . S
O369 C357 1.355 . S
O369 Dy359 2.491 . S
O370 Dy359 2.403 . S
O370 C365 1.254 . S
O371 Dy356 2.310 . S
O371 Dy359 2.664 . S
O371 C365 1.268 . S
O372 Dy356 2.351 . S
O372 C375 1.249 . S
O373 Dy359 2.326 . S
O373 C375 1.267 . S
C374 O366 1.249 . S
C374 O367 1.267 . S
C375 O372 1.249 . S
C375 O373 1.267 . S
Dy376 O380 2.398 . S
Dy376 O381 2.508 . S
Dy376 O382 2.403 . S
Dy376 O383 2.664 . S
Dy376 O387 2.326 1_545 S
Dy376 O391 2.310 . S
Dy376 O392 2.351 . S
C377 O388 1.185 . S
C377 O389 1.355 . S
C378 O380 1.161 1_565 S
C378 O381 1.355 1_565 S
Dy379 O383 2.310 . S
Dy379 O386 2.351 1_545 S
Dy379 O388 2.398 . S
Dy379 O389 2.491 . S
Dy379 O390 2.403 . S
Dy379 O391 2.664 . S
Dy379 O393 2.326 . S
O380 Dy376 2.398 . S
O380 C378 1.161 1_545 S
O381 Dy376 2.508 . S
O381 C378 1.355 1_545 S
O382 Dy376 2.403 . S
O382 C384 1.254 . S
O383 Dy376 2.664 . S
O383 Dy379 2.310 . S
O383 C384 1.268 . S
C384 O382 1.254 . S
C384 O383 1.268 . S
C385 O390 1.254 . S
C385 O391 1.268 . S
O386 Dy379 2.351 1_565 S
O386 C394 1.249 . S
O387 Dy376 2.326 1_565 S
O387 C394 1.267 . S
O388 C377 1.185 . S
O388 Dy379 2.398 . S
O389 C377 1.355 . S
O389 Dy379 2.491 . S
O390 Dy379 2.403 . S
O390 C385 1.254 . S
O391 Dy376 2.310 . S
O391 Dy379 2.664 . S
O391 C385 1.268 . S
O392 Dy376 2.351 . S
O392 C395 1.249 . S
O393 Dy379 2.326 . S
O393 C395 1.267 . S
C394 O386 1.249 . S
C394 O387 1.267 . S
C395 O392 1.249 . S
C395 O393 1.267 . S
Dy396 O400 2.398 . S
Dy396 O401 2.491 . S
Dy396 O402 2.403 . S
Dy396 O403 2.664 . S
Dy396 O407 2.326 . S
Dy396 O411 2.310 . S
Dy396 O412 2.351 . S
C397 O408 1.185 . S
C397 O409 1.355 . S
C398 O400 1.185 . S
C398 O401 1.355 . S
Dy399 O403 2.310 . S
Dy399 O406 2.351 . S
Dy399 O408 2.398 . S
Dy399 O409 2.491 . S
Dy399 O410 2.403 . S
Dy399 O411 2.664 . S
Dy399 O413 2.326 . S
O400 Dy396 2.398 . S
O400 C398 1.185 . S
O401 Dy396 2.491 . S
O401 C398 1.355 . S
O402 Dy396 2.403 . S
O402 C404 1.254 . S
O403 Dy396 2.664 . S
O403 Dy399 2.310 . S
O403 C404 1.268 . S
C404 O402 1.254 . S
C404 O403 1.268 . S
C405 O410 1.254 . S
C405 O411 1.268 . S
O406 Dy399 2.351 . S
O406 C414 1.249 . S
O407 Dy396 2.326 . S
O407 C414 1.267 . S
O408 C397 1.185 . S
O408 Dy399 2.398 . S
O409 C397 1.355 . S
O409 Dy399 2.491 . S
O410 Dy399 2.403 . S
O410 C405 1.254 . S
O411 Dy396 2.310 . S
O411 Dy399 2.664 . S
O411 C405 1.268 . S
O412 Dy396 2.351 . S
O412 C415 1.249 . S
O413 Dy399 2.326 . S
O413 C415 1.267 . S
C414 O406 1.249 . S
C414 O407 1.267 . S
C415 O412 1.249 . S
C415 O413 1.267 . S
Dy416 O420 2.398 . S
Dy416 O421 2.491 1_455 S
Dy416 O422 2.403 . S
Dy416 O423 2.664 . S
Dy416 O427 2.326 . S
Dy416 O431 2.310 1_455 S
Dy416 O432 2.351 1_545 S
C417 O428 1.185 . S
C417 O429 1.355 . S
C418 O420 1.150 1_655 S
C418 O421 1.379 . S
Dy419 O423 2.310 . S
Dy419 O426 2.351 . S
Dy419 O428 2.398 . S
Dy419 O429 2.491 . S
Dy419 O430 2.403 1_455 S
Dy419 O431 2.664 1_455 S
Dy419 O433 2.329 1_545 S
O420 Dy416 2.398 . S
O420 C418 1.150 1_455 S
O421 Dy416 2.491 1_655 S
O421 C418 1.379 . S
O422 Dy416 2.403 . S
O422 C424 1.254 . S
O423 Dy416 2.664 . S
O423 Dy419 2.310 . S
O423 C424 1.268 . S
C424 O422 1.254 . S
C424 O423 1.268 . S
C425 O430 1.254 . S
C425 O431 1.268 . S
O426 Dy419 2.351 . S
O426 C434 1.249 . S
O427 Dy416 2.326 . S
O427 C434 1.267 . S
O428 C417 1.185 . S
O428 Dy419 2.398 . S
O429 C417 1.355 . S
O429 Dy419 2.491 . S
O430 Dy419 2.403 1_655 S
O430 C425 1.254 . S
O431 Dy416 2.310 1_655 S
O431 Dy419 2.664 1_655 S
O431 C425 1.268 . S
O432 Dy416 2.351 1_565 S
O432 C435 1.249 . S
O433 Dy419 2.329 1_565 S
O433 C435 1.266 . S
C434 O426 1.249 . S
C434 O427 1.267 . S
C435 O432 1.249 . S
C435 O433 1.266 . S
Dy436 O440 2.398 . S
Dy436 O441 2.491 . S
Dy436 O442 2.403 . S
Dy436 O443 2.664 . S
Dy436 O447 2.326 . S
Dy436 O451 2.310 . S
Dy436 O452 2.351 . S
C437 O448 1.185 . S
C437 O449 1.355 . S
C438 O440 1.185 . S
C438 O441 1.355 . S
Dy439 O443 2.310 . S
Dy439 O446 2.351 . S
Dy439 O448 2.398 . S
Dy439 O449 2.491 . S
Dy439 O450 2.403 . S
Dy439 O451 2.664 . S
Dy439 O453 2.326 . S
O440 Dy436 2.398 . S
O440 C438 1.185 . S
O441 Dy436 2.491 . S
O441 C438 1.355 . S
O442 Dy436 2.403 . S
O442 C444 1.254 . S
O443 Dy436 2.664 . S
O443 Dy439 2.310 . S
O443 C444 1.268 . S
C444 O442 1.254 . S
C444 O443 1.268 . S
C445 O450 1.254 . S
C445 O451 1.268 . S
O446 Dy439 2.351 . S
O446 C454 1.249 . S
O447 Dy436 2.326 . S
O447 C454 1.267 . S
O448 C437 1.185 . S
O448 Dy439 2.398 . S
O449 C437 1.355 . S
O449 Dy439 2.491 . S
O450 Dy439 2.403 . S
O450 C445 1.254 . S
O451 Dy436 2.310 . S
O451 Dy439 2.664 . S
O451 C445 1.268 . S
O452 Dy436 2.351 . S
O452 C455 1.249 . S
O453 Dy439 2.326 . S
O453 C455 1.267 . S
C454 O446 1.249 . S
C454 O447 1.267 . S
C455 O452 1.249 . S
C455 O453 1.267 . S
Dy456 O460 2.398 1_545 S
Dy456 O461 2.491 . S
Dy456 O462 2.403 1_545 S
Dy456 O463 2.664 . S
Dy456 O467 2.326 . S
Dy456 O471 2.310 . S
Dy456 O472 2.351 . S
C457 O468 1.185 . S
C457 O469 1.355 . S
C458 O460 1.185 1_545 S
C458 O461 1.355 . S
Dy459 O463 2.310 1_556 S
Dy459 O466 2.351 . S
Dy459 O468 2.398 . S
Dy459 O469 2.491 . S
Dy459 O470 2.403 1_556 S
Dy459 O471 2.664 1_556 S
Dy459 O473 2.325 . S
O460 Dy456 2.398 1_565 S
O460 C458 1.185 1_565 S
O461 Dy456 2.491 . S
O461 C458 1.355 . S
O462 Dy456 2.403 1_565 S
O462 C464 1.254 . S
O463 Dy456 2.664 . S
O463 Dy459 2.310 1_554 S
O463 C464 1.268 1_545 S
C464 O462 1.254 . S
C464 O463 1.268 1_565 S
C465 O470 1.254 . S
C465 O471 1.268 . S
O466 Dy459 2.351 . S
O466 C474 1.249 1_556 S
O467 Dy456 2.326 . S
O467 C474 1.267 . S
O468 C457 1.185 . S
O468 Dy459 2.398 . S
O469 C457 1.355 . S
O469 Dy459 2.491 . S
O470 Dy459 2.403 1_554 S
O470 C465 1.254 . S
O471 Dy456 2.310 . S
O471 Dy459 2.664 1_554 S
O471 C465 1.268 . S
O472 Dy456 2.351 . S
O472 C475 1.249 . S
O473 Dy459 2.325 . S
O473 C475 1.269 1_556 S
C474 O466 1.249 1_554 S
C474 O467 1.267 . S
C475 O472 1.249 . S
C475 O473 1.269 1_554 S
Dy476 O480 2.398 . S
Dy476 O481 2.491 . S
Dy476 O482 2.403 . S
Dy476 O483 2.664 . S
Dy476 O487 2.326 . S
Dy476 O491 2.310 . S
Dy476 O492 2.351 . S
C477 O488 1.185 . S
C477 O489 1.355 . S
C478 O480 1.185 . S
C478 O481 1.355 . S
Dy479 O483 2.310 . S
Dy479 O486 2.351 . S
Dy479 O488 2.398 . S
Dy479 O489 2.491 . S
Dy479 O490 2.403 . S
Dy479 O491 2.664 . S
Dy479 O493 2.326 . S
O480 Dy476 2.398 . S
O480 C478 1.185 . S
O481 Dy476 2.491 . S
O481 C478 1.355 . S
O482 Dy476 2.403 . S
O482 C484 1.254 . S
O483 Dy476 2.664 . S
O483 Dy479 2.310 . S
O483 C484 1.268 . S
C484 O482 1.254 . S
C484 O483 1.268 . S
C485 O490 1.254 . S
C485 O491 1.268 . S
O486 Dy479 2.351 . S
O486 C494 1.249 . S
O487 Dy476 2.326 . S
O487 C494 1.267 . S
O488 C477 1.185 . S
O488 Dy479 2.398 . S
O489 C477 1.355 . S
O489 Dy479 2.491 . S
O490 Dy479 2.403 . S
O490 C485 1.254 . S
O491 Dy476 2.310 . S
O491 Dy479 2.664 . S
O491 C485 1.268 . S
O492 Dy476 2.351 . S
O492 C495 1.249 . S
O493 Dy479 2.326 . S
O493 C495 1.267 . S
C494 O486 1.249 . S
C494 O487 1.267 . S
C495 O492 1.249 . S
C495 O493 1.267 . S
Dy496 O500 2.398 . S
Dy496 O501 2.491 . S
Dy496 O502 2.403 . S
Dy496 O503 2.664 1_556 S
Dy496 O507 2.326 . S
Dy496 O511 2.310 1_556 S
Dy496 O512 2.351 1_556 S
C497 O508 1.185 . S
C497 O509 1.355 . S
C498 O500 1.185 . S
C498 O501 1.355 . S
Dy499 O503 2.310 . S
Dy499 O506 2.351 . S
Dy499 O508 2.398 . S
Dy499 O509 2.491 . S
Dy499 O510 2.403 . S
Dy499 O511 2.664 . S
Dy499 O513 2.326 . S
O500 Dy496 2.398 . S
O500 C498 1.185 . S
O501 Dy496 2.491 . S
O501 C498 1.355 . S
O502 Dy496 2.403 . S
O502 C504 1.254 1_556 S
O503 Dy496 2.664 1_554 S
O503 Dy499 2.310 . S
O503 C504 1.268 . S
C504 O502 1.254 1_554 S
C504 O503 1.268 . S
C505 O510 1.254 . S
C505 O511 1.268 . S
O506 Dy499 2.351 . S
O506 C514 1.300 . S
O507 Dy496 2.326 . S
O507 C514 1.236 1_556 S
O508 C497 1.185 . S
O508 Dy499 2.398 . S
O509 C497 1.355 . S
O509 Dy499 2.491 . S
O510 Dy499 2.403 . S
O510 C505 1.254 . S
O511 Dy496 2.310 1_554 S
O511 Dy499 2.664 . S
O511 C505 1.268 . S
O512 Dy496 2.351 1_554 S
O512 C515 1.249 . S
O513 Dy499 2.326 . S
O513 C515 1.267 . S
C514 O506 1.300 . S
C514 O507 1.236 1_554 S
C515 O512 1.249 . S
C515 O513 1.267 . S
Dy516 O520 2.398 . S
Dy516 O521 2.491 . S
Dy516 O522 2.403 . S
Dy516 O523 2.664 . S
Dy516 O527 2.326 . S
Dy516 O531 2.310 . S
Dy516 O532 2.351 . S
C517 O528 1.185 . S
C517 O529 1.355 . S
C518 O520 1.185 . S
C518 O521 1.355 . S
Dy519 O523 2.310 . S
Dy519 O526 2.351 . S
Dy519 O528 2.398 . S
Dy519 O529 2.491 . S
Dy519 O530 2.403 . S
Dy519 O531 2.664 . S
Dy519 O533 2.326 . S
O520 Dy516 2.398 . S
O520 C518 1.185 . S
O521 Dy516 2.491 . S
O521 C518 1.355 . S
O522 Dy516 2.403 . S
O522 C524 1.254 . S
O523 Dy516 2.664 . S
O523 Dy519 2.310 . S
O523 C524 1.268 . S
C524 O522 1.254 . S
C524 O523 1.268 . S
C525 O530 1.254 . S
C525 O531 1.268 . S
O526 Dy519 2.351 . S
O526 C534 1.249 . S
O527 Dy516 2.326 . S
O527 C534 1.267 . S
O528 C517 1.185 . S
O528 Dy519 2.398 . S
O529 C517 1.355 . S
O529 Dy519 2.491 . S
O530 Dy519 2.403 . S
O530 C525 1.254 . S
O531 Dy516 2.310 . S
O531 Dy519 2.664 . S
O531 C525 1.268 . S
O532 Dy516 2.351 . S
O532 C535 1.249 . S
O533 Dy519 2.326 . S
O533 C535 1.267 . S
C534 O526 1.249 . S
C534 O527 1.267 . S
C535 O532 1.249 . S
C535 O533 1.267 . S
Dy536 O540 2.397 . S
Dy536 O541 2.491 1_455 S
Dy536 O542 2.403 . S
Dy536 O543 2.664 . S
Dy536 O547 2.326 1_455 S
Dy536 O551 2.310 . S
Dy536 O552 2.351 . S
C537 O548 1.185 . S
C537 O549 1.355 . S
C538 O540 1.187 1_655 S
C538 O541 1.355 . S
Dy539 O543 2.310 . S
Dy539 O546 2.351 1_455 S
Dy539 O548 2.398 . S
Dy539 O549 2.491 . S
Dy539 O550 2.403 . S
Dy539 O551 2.664 . S
Dy539 O553 2.326 . S
O540 Dy536 2.397 . S
O540 C538 1.187 1_455 S
O541 Dy536 2.491 1_655 S
O541 C538 1.355 . S
O542 Dy536 2.403 . S
O542 C544 1.254 . S
O543 Dy536 2.664 . S
O543 Dy539 2.310 . S
O543 C544 1.268 . S
C544 O542 1.254 . S
C544 O543 1.268 . S
C545 O550 1.254 . S
C545 O551 1.268 . S
O546 Dy539 2.351 1_655 S
O546 C554 1.249 . S
O547 Dy536 2.326 1_655 S
O547 C554 1.267 . S
O548 C537 1.185 . S
O548 Dy539 2.398 . S
O549 C537 1.355 . S
O549 Dy539 2.491 . S
O550 Dy539 2.403 . S
O550 C545 1.254 . S
O551 Dy536 2.310 . S
O551 Dy539 2.664 . S
O551 C545 1.268 . S
O552 Dy536 2.351 . S
O552 C555 1.249 . S
O553 Dy539 2.326 . S
O553 C555 1.267 . S
C554 O546 1.249 . S
C554 O547 1.267 . S
C555 O552 1.249 . S
C555 O553 1.267 . S
Dy556 O560 2.398 . S
Dy556 O561 2.491 . S
Dy556 O562 2.403 . S
Dy556 O563 2.664 . S
Dy556 O567 2.326 . S
Dy556 O571 2.310 . S
Dy556 O572 2.351 . S
C557 O568 1.185 . S
C557 O569 1.355 . S
C558 O560 1.185 . S
C558 O561 1.355 . S
Dy559 O563 2.310 . S
Dy559 O566 2.351 . S
Dy559 O568 2.398 . S
Dy559 O569 2.491 . S
Dy559 O570 2.403 . S
Dy559 O571 2.664 . S
Dy559 O573 2.326 . S
O560 Dy556 2.398 . S
O560 C558 1.185 . S
O561 Dy556 2.491 . S
O561 C558 1.355 . S
O562 Dy556 2.403 . S
O562 C564 1.254 . S
O563 Dy556 2.664 . S
O563 Dy559 2.310 . S
O563 C564 1.268 . S
C564 O562 1.254 . S
C564 O563 1.268 . S
C565 O570 1.254 . S
C565 O571 1.268 . S
O566 Dy559 2.351 . S
O566 C574 1.249 . S
O567 Dy556 2.326 . S
O567 C574 1.267 . S
O568 C557 1.185 . S
O568 Dy559 2.398 . S
O569 C557 1.355 . S
O569 Dy559 2.491 . S
O570 Dy559 2.403 . S
O570 C565 1.254 . S
O571 Dy556 2.310 . S
O571 Dy559 2.664 . S
O571 C565 1.268 . S
O572 Dy556 2.351 . S
O572 C575 1.249 . S
O573 Dy559 2.326 . S
O573 C575 1.267 . S
C574 O566 1.249 . S
C574 O567 1.267 . S
C575 O572 1.249 . S
C575 O573 1.267 . S
Dy576 O580 2.398 . S
Dy576 O581 2.491 . S
Dy576 O582 2.403 . S
Dy576 O583 2.664 . S
Dy576 O587 2.326 . S
Dy576 O591 2.310 . S
Dy576 O592 2.351 . S
C577 O588 1.185 . S
C577 O589 1.355 . S
C578 O580 1.185 . S
C578 O581 1.355 . S
Dy579 O583 2.310 . S
Dy579 O586 2.351 . S
Dy579 O588 2.398 . S
Dy579 O589 2.491 . S
Dy579 O590 2.403 . S
Dy579 O591 2.664 . S
Dy579 O593 2.326 . S
O580 Dy576 2.398 . S
O580 C578 1.185 . S
O581 Dy576 2.491 . S
O581 C578 1.355 . S
O582 Dy576 2.403 . S
O582 C584 1.254 . S
O583 Dy576 2.664 . S
O583 Dy579 2.310 . S
O583 C584 1.268 . S
C584 O582 1.254 . S
C584 O583 1.268 . S
C585 O590 1.254 . S
C585 O591 1.268 . S
O586 Dy579 2.351 . S
O586 C594 1.249 . S
O587 Dy576 2.326 . S
O587 C594 1.267 . S
O588 C577 1.185 . S
O588 Dy579 2.398 . S
O589 C577 1.355 . S
O589 Dy579 2.491 . S
O590 Dy579 2.403 . S
O590 C585 1.254 . S
O591 Dy576 2.310 . S
O591 Dy579 2.664 . S
O591 C585 1.268 . S
O592 Dy576 2.351 . S
O592 C595 1.249 . S
O593 Dy579 2.326 . S
O593 C595 1.267 . S
C594 O586 1.249 . S
C594 O587 1.267 . S
C595 O592 1.249 . S
C595 O593 1.267 . S
Dy596 O600 2.398 . S
Dy596 O601 2.491 . S
Dy596 O602 2.403 . S
Dy596 O603 2.664 . S
Dy596 O607 2.326 . S
Dy596 O611 2.310 . S
Dy596 O612 2.351 . S
C597 O608 1.185 . S
C597 O609 1.355 . S
C598 O600 1.185 . S
C598 O601 1.355 . S
Dy599 O603 2.310 . S
Dy599 O606 2.351 . S
Dy599 O608 2.398 . S
Dy599 O609 2.491 . S
Dy599 O610 2.403 . S
Dy599 O611 2.664 . S
Dy599 O613 2.326 . S
O600 Dy596 2.398 . S
O600 C598 1.185 . S
O601 Dy596 2.491 . S
O601 C598 1.355 . S
O602 Dy596 2.403 . S
O602 C604 1.254 . S
O603 Dy596 2.664 . S
O603 Dy599 2.310 . S
O603 C604 1.268 . S
C604 O602 1.254 . S
C604 O603 1.268 . S
C605 O610 1.254 . S
C605 O611 1.268 . S
O606 Dy599 2.351 . S
O606 C614 1.249 . S
O607 Dy596 2.326 . S
O607 C614 1.267 . S
O608 C597 1.185 . S
O608 Dy599 2.398 . S
O609 C597 1.355 . S
O609 Dy599 2.491 . S
O610 Dy599 2.403 . S
O610 C605 1.254 . S
O611 Dy596 2.310 . S
O611 Dy599 2.664 . S
O611 C605 1.268 . S
O612 Dy596 2.351 . S
O612 C615 1.249 . S
O613 Dy599 2.326 . S
O613 C615 1.267 . S
C614 O606 1.249 . S
C614 O607 1.267 . S
C615 O612 1.249 . S
C615 O613 1.267 . S
Dy616 O620 2.398 . S
Dy616 O621 2.491 . S
Dy616 O622 2.403 . S
Dy616 O623 2.664 . S
Dy616 O627 2.326 . S
Dy616 O631 2.310 . S
Dy616 O632 2.351 . S
C617 O628 1.185 . S
C617 O629 1.355 . S
C618 O620 1.185 . S
C618 O621 1.355 . S
Dy619 O623 2.310 . S
Dy619 O626 2.351 . S
Dy619 O628 2.398 . S
Dy619 O629 2.491 . S
Dy619 O630 2.403 . S
Dy619 O631 2.664 . S
Dy619 O633 2.326 . S
O620 Dy616 2.398 . S
O620 C618 1.185 . S
O621 Dy616 2.491 . S
O621 C618 1.355 . S
O622 Dy616 2.403 . S
O622 C624 1.254 . S
O623 Dy616 2.664 . S
O623 Dy619 2.310 . S
O623 C624 1.268 . S
C624 O622 1.254 . S
C624 O623 1.268 . S
C625 O630 1.254 . S
C625 O631 1.268 . S
O626 Dy619 2.351 . S
O626 C634 1.249 . S
O627 Dy616 2.326 . S
O627 C634 1.267 . S
O628 C617 1.185 . S
O628 Dy619 2.398 . S
O629 C617 1.355 . S
O629 Dy619 2.491 . S
O630 Dy619 2.403 . S
O630 C625 1.254 . S
O631 Dy616 2.310 . S
O631 Dy619 2.664 . S
O631 C625 1.268 . S
O632 Dy616 2.351 . S
O632 C635 1.249 . S
O633 Dy619 2.326 . S
O633 C635 1.267 . S
C634 O626 1.249 . S
C634 O627 1.267 . S
C635 O632 1.249 . S
C635 O633 1.267 . S
Dy636 O640 2.398 1_554 S
Dy636 O641 2.491 . S
Dy636 O642 2.403 1_554 S
Dy636 O643 2.664 1_554 S
Dy636 O647 2.326 1_554 S
Dy636 O651 2.310 . S
Dy636 O652 2.351 . S
C637 O648 1.185 . S
C637 O649 1.355 . S
C638 O640 1.151 1_554 S
C638 O641 1.399 . S
Dy639 O643 2.310 1_654 S
Dy639 O646 2.351 . S
Dy639 O648 2.398 . S
Dy639 O649 2.491 . S
Dy639 O650 2.403 . S
Dy639 O651 2.664 1_655 S
Dy639 O653 2.326 1_655 S
O640 Dy636 2.398 1_556 S
O640 C638 1.151 1_556 S
O641 Dy636 2.491 . S
O641 C638 1.399 . S
O642 Dy636 2.403 1_556 S
O642 C644 1.254 . S
O643 Dy636 2.664 1_556 S
O643 Dy639 2.310 1_456 S
O643 C644 1.268 . S
C644 O642 1.254 . S
C644 O643 1.268 . S
C645 O650 1.254 1_455 S
C645 O651 1.268 . S
O646 Dy639 2.351 . S
O646 C654 1.249 1_655 S
O647 Dy636 2.326 1_556 S
O647 C654 1.267 1_556 S
O648 C637 1.185 . S
O648 Dy639 2.398 . S
O649 C637 1.355 . S
O649 Dy639 2.491 . S
O650 Dy639 2.403 . S
O650 C645 1.254 1_655 S
O651 Dy636 2.310 . S
O651 Dy639 2.664 1_455 S
O651 C645 1.268 . S
O652 Dy636 2.351 . S
O652 C655 1.249 . S
O653 Dy639 2.326 1_455 S
O653 C655 1.267 . S
C654 O646 1.249 1_455 S
C654 O647 1.267 1_554 S
C655 O652 1.249 . S
C655 O653 1.267 . S
H656 C664 0.929 . S
H657 C666 0.930 . S
H658 C668 0.930 . S
H659 C671 0.929 . S
H660 C674 0.930 . S
H661 C676 0.960 . S
H662 C676 0.960 1_455 S
H663 C676 0.960 . S
C664 H656 0.929 . S
C664 C665 1.407 . S
C664 C666 1.384 . S
C665 C664 1.407 . S
C665 C671 1.367 1_455 S
C666 H657 0.930 . S
C666 C664 1.384 . S
C666 C667 1.372 . S
C667 C666 1.372 . S
C667 C668 1.400 1_455 S
C667 C672 1.490 . S
C668 H658 0.930 . S
C668 C667 1.400 1_655 S
C668 C671 1.386 . S
H669 C685 0.925 1_554 S
H670 C686 0.931 . S
C671 H659 0.929 . S
C671 C665 1.367 1_655 S
C671 C668 1.386 . S
C672 C667 1.490 . S
C672 C674 1.395 . S
C672 C675 1.407 . S
H673 C679 0.927 1_655 S
C674 H660 0.930 . S
C674 C672 1.395 . S
C674 C677 1.403 . S
C675 C672 1.407 . S
C675 C676 1.512 1_455 S
C675 C679 1.412 . S
C676 H661 0.960 . S
C676 H662 0.960 1_655 S
C676 H663 0.960 . S
C676 C675 1.512 1_655 S
C677 C674 1.403 . S
C677 C678 1.392 . S
C677 C681 1.495 1_556 S
C678 C677 1.392 . S
C678 C679 1.385 . S
C678 C680 1.478 . S
C679 H673 0.927 1_455 S
C679 C675 1.412 . S
C679 C678 1.385 . S
C680 C678 1.478 . S
C680 C682 1.381 . S
C680 C686 1.383 1_455 S
C681 C677 1.495 1_554 S
C681 H687 0.959 . S
C681 H688 0.961 . S
C681 H689 0.960 . S
C682 C680 1.381 . S
C682 C683 1.394 1_556 S
C682 H690 0.930 . S
C683 C682 1.394 1_554 S
C683 C684 1.383 . S
C683 H691 0.929 . S
C684 C683 1.383 . S
C684 C685 1.377 1_454 S
C685 H669 0.925 1_556 S
C685 C684 1.377 1_656 S
C685 C686 1.379 . S
C686 H670 0.931 . S
C686 C680 1.383 1_655 S
C686 C685 1.379 . S
H687 C681 0.959 . S
H688 C681 0.961 . S
H689 C681 0.960 . S
H690 C682 0.930 . S
H691 C683 0.929 . S
H692 C700 0.929 . S
H693 C702 0.930 . S
H694 C704 0.930 . S
H695 C707 0.929 . S
H696 C710 0.930 . S
H697 C712 0.960 . S
H698 C712 0.960 . S
H699 C712 0.960 . S
C700 H692 0.929 . S
C700 C701 1.377 . S
C700 C702 1.384 . S
C701 C700 1.377 . S
C701 C707 1.390 . S
C702 H693 0.930 . S
C702 C700 1.384 . S
C702 C703 1.372 . S
C703 C702 1.372 . S
C703 C704 1.400 . S
C703 C708 1.490 . S
C704 H694 0.930 . S
C704 C703 1.400 . S
C704 C707 1.386 . S
H705 C721 0.930 . S
H706 C722 0.931 . S
C707 H695 0.929 . S
C707 C701 1.390 . S
C707 C704 1.386 . S
C708 C703 1.490 . S
C708 C710 1.395 . S
C708 C711 1.403 . S
H709 C715 0.930 . S
C710 H696 0.930 . S
C710 C708 1.395 . S
C710 C713 1.403 . S
C711 C708 1.403 . S
C711 C712 1.524 . S
C711 C715 1.400 . S
C712 H697 0.960 . S
C712 H698 0.960 . S
C712 H699 0.960 . S
C712 C711 1.524 . S
C713 C710 1.403 . S
C713 C714 1.392 . S
C713 C717 1.495 . S
C714 C713 1.392 . S
C714 C715 1.385 . S
C714 C716 1.478 . S
C715 H709 0.930 . S
C715 C711 1.400 . S
C715 C714 1.385 . S
C716 C714 1.478 . S
C716 C718 1.381 . S
C716 C722 1.383 . S
C717 C713 1.495 . S
C717 H723 0.959 . S
C717 H724 0.961 . S
C717 H725 0.960 . S
C718 C716 1.381 . S
C718 C719 1.394 . S
C718 H726 0.930 . S
C719 C718 1.394 . S
C719 C720 1.383 . S
C719 H727 0.929 . S
C720 C719 1.383 . S
C720 C721 1.377 . S
C721 H705 0.930 . S
C721 C720 1.377 . S
C721 C722 1.379 . S
C722 H706 0.931 . S
C722 C716 1.383 . S
C722 C721 1.379 . S
H723 C717 0.959 . S
H724 C717 0.961 . S
H725 C717 0.960 . S
H726 C718 0.930 . S
H727 C719 0.929 . S
H728 C736 0.929 . S
H729 C738 0.930 . S
H730 C740 0.930 . S
H731 C743 0.929 . S
H732 C746 0.930 . S
H733 C748 0.960 . S
H734 C748 0.960 . S
H735 C748 0.960 . S
C736 H728 0.929 . S
C736 C737 1.377 . S
C736 C738 1.384 . S
C737 C736 1.377 . S
C737 C743 1.390 . S
C738 H729 0.930 . S
C738 C736 1.384 . S
C738 C739 1.372 . S
C739 C738 1.372 . S
C739 C740 1.400 . S
C739 C744 1.490 . S
C740 H730 0.930 . S
C740 C739 1.400 . S
C740 C743 1.386 . S
H741 C757 0.930 . S
H742 C758 0.931 . S
C743 H731 0.929 . S
C743 C737 1.390 . S
C743 C740 1.386 . S
C744 C739 1.490 . S
C744 C746 1.395 . S
C744 C747 1.403 . S
H745 C751 0.930 . S
C746 H732 0.930 . S
C746 C744 1.395 . S
C746 C749 1.403 . S
C747 C744 1.403 . S
C747 C748 1.524 . S
C747 C751 1.400 . S
C748 H733 0.960 . S
C748 H734 0.960 . S
C748 H735 0.960 . S
C748 C747 1.524 . S
C749 C746 1.403 . S
C749 C750 1.392 . S
C749 C753 1.495 . S
C750 C749 1.392 . S
C750 C751 1.385 . S
C750 C752 1.478 . S
C751 H745 0.930 . S
C751 C747 1.400 . S
C751 C750 1.385 . S
C752 C750 1.478 . S
C752 C754 1.381 . S
C752 C758 1.383 . S
C753 C749 1.495 . S
C753 H759 0.959 . S
C753 H760 0.961 . S
C753 H761 0.960 . S
C754 C752 1.381 . S
C754 C755 1.394 . S
C754 H762 0.930 . S
C755 C754 1.394 . S
C755 C756 1.383 . S
C755 H763 0.929 . S
C756 C755 1.383 . S
C756 C757 1.377 . S
C757 H741 0.930 . S
C757 C756 1.377 . S
C757 C758 1.379 . S
C758 H742 0.931 . S
C758 C752 1.383 . S
C758 C757 1.379 . S
H759 C753 0.959 . S
H760 C753 0.961 . S
H761 C753 0.960 . S
H762 C754 0.930 . S
H763 C755 0.929 . S
H764 C772 0.929 . S
H765 C774 0.930 . S
H766 C776 0.930 . S
H767 C779 0.929 . S
H768 C782 0.930 . S
H769 C784 0.960 . S
H770 C784 0.960 . S
H771 C784 0.960 . S
C772 H764 0.929 . S
C772 C773 1.377 . S
C772 C774 1.384 . S
C773 C772 1.377 . S
C773 C779 1.390 . S
C774 H765 0.930 . S
C774 C772 1.384 . S
C774 C775 1.372 . S
C775 C774 1.372 . S
C775 C776 1.400 . S
C775 C780 1.490 . S
C776 H766 0.930 . S
C776 C775 1.400 . S
C776 C779 1.386 . S
H777 C793 0.930 . S
H778 C794 0.931 . S
C779 H767 0.929 . S
C779 C773 1.390 . S
C779 C776 1.386 . S
C780 C775 1.490 . S
C780 C782 1.395 . S
C780 C783 1.403 . S
H781 C787 0.930 . S
C782 H768 0.930 . S
C782 C780 1.395 . S
C782 C785 1.403 . S
C783 C780 1.403 . S
C783 C784 1.524 . S
C783 C787 1.400 . S
C784 H769 0.960 . S
C784 H770 0.960 . S
C784 H771 0.960 . S
C784 C783 1.524 . S
C785 C782 1.403 . S
C785 C786 1.392 . S
C785 C789 1.495 . S
C786 C785 1.392 . S
C786 C787 1.385 . S
C786 C788 1.478 . S
C787 H781 0.930 . S
C787 C783 1.400 . S
C787 C786 1.385 . S
C788 C786 1.478 . S
C788 C790 1.381 . S
C788 C794 1.383 . S
C789 C785 1.495 . S
C789 H795 0.959 . S
C789 H796 0.961 . S
C789 H797 0.960 . S
C790 C788 1.381 . S
C790 C791 1.394 . S
C790 H798 0.930 . S
C791 C790 1.394 . S
C791 C792 1.383 . S
C791 H799 0.929 . S
C792 C791 1.383 . S
C792 C793 1.377 . S
C793 H777 0.930 . S
C793 C792 1.377 . S
C793 C794 1.379 . S
C794 H778 0.931 . S
C794 C788 1.383 . S
C794 C793 1.379 . S
H795 C789 0.959 . S
H796 C789 0.961 . S
H797 C789 0.960 . S
H798 C790 0.930 . S
H799 C791 0.929 . S
H800 C808 0.929 . S
H801 C810 0.930 . S
H802 C812 0.930 1_655 S
H803 C815 0.908 1_655 S
H804 C818 0.930 . S
H805 C820 0.960 . S
H806 C820 0.960 . S
H807 C820 0.960 . S
C808 H800 0.929 . S
C808 C809 1.377 . S
C808 C810 1.384 . S
C809 C808 1.377 . S
C809 C815 1.413 . S
C810 H801 0.930 . S
C810 C808 1.384 . S
C810 C811 1.372 . S
C811 C810 1.372 . S
C811 C812 1.400 . S
C811 C816 1.490 . S
C812 H802 0.930 1_455 S
C812 C811 1.400 . S
C812 C815 1.384 . S
H813 C829 0.930 . S
H814 C830 0.931 . S
C815 H803 0.908 1_455 S
C815 C809 1.413 . S
C815 C812 1.384 . S
C816 C811 1.490 . S
C816 C818 1.395 . S
C816 C819 1.403 . S
H817 C823 0.930 1_655 S
C818 H804 0.930 . S
C818 C816 1.395 . S
C818 C821 1.403 . S
C819 C816 1.403 . S
C819 C820 1.524 1_455 S
C819 C823 1.400 . S
C820 H805 0.960 . S
C820 H806 0.960 . S
C820 H807 0.960 . S
C820 C819 1.524 1_655 S
C821 C818 1.403 . S
C821 C822 1.392 . S
C821 C825 1.495 . S
C822 C821 1.392 . S
C822 C823 1.385 . S
C822 C824 1.478 . S
C823 H817 0.930 1_455 S
C823 C819 1.400 . S
C823 C822 1.385 . S
C824 C822 1.478 . S
C824 C826 1.381 . S
C824 C830 1.383 . S
C825 C821 1.495 . S
C825 H831 0.959 . S
C825 H832 0.961 . S
C825 H833 0.960 . S
C826 C824 1.381 . S
C826 C827 1.394 . S
C826 H834 0.930 . S
C827 C826 1.394 . S
C827 C828 1.383 . S
C827 H835 0.929 . S
C828 C827 1.383 . S
C828 C829 1.377 . S
C829 H813 0.930 . S
C829 C828 1.377 . S
C829 C830 1.379 . S
C830 H814 0.931 . S
C830 C824 1.383 . S
C830 C829 1.379 . S
H831 C825 0.959 . S
H832 C825 0.961 . S
H833 C825 0.960 . S
H834 C826 0.930 . S
H835 C827 0.929 . S
H836 C844 0.929 . S
H837 C846 0.930 . S
H838 C848 0.930 . S
H839 C851 0.929 . S
H840 C854 0.930 . S
H841 C856 0.960 . S
H842 C856 0.960 . S
H843 C856 0.960 . S
C844 H836 0.929 . S
C844 C845 1.377 . S
C844 C846 1.384 . S
C845 C844 1.377 . S
C845 C851 1.390 . S
C846 H837 0.930 . S
C846 C844 1.384 . S
C846 C847 1.372 . S
C847 C846 1.372 . S
C847 C848 1.400 . S
C847 C852 1.490 . S
C848 H838 0.930 . S
C848 C847 1.400 . S
C848 C851 1.386 . S
H849 C865 0.930 . S
H850 C866 0.931 . S
C851 H839 0.929 . S
C851 C845 1.390 . S
C851 C848 1.386 . S
C852 C847 1.490 . S
C852 C854 1.395 . S
C852 C855 1.403 . S
H853 C859 0.930 . S
C854 H840 0.930 . S
C854 C852 1.395 . S
C854 C857 1.403 . S
C855 C852 1.403 . S
C855 C856 1.524 . S
C855 C859 1.400 . S
C856 H841 0.960 . S
C856 H842 0.960 . S
C856 H843 0.960 . S
C856 C855 1.524 . S
C857 C854 1.403 . S
C857 C858 1.392 . S
C857 C861 1.495 . S
C858 C857 1.392 . S
C858 C859 1.385 . S
C858 C860 1.478 . S
C859 H853 0.930 . S
C859 C855 1.400 . S
C859 C858 1.385 . S
C860 C858 1.478 . S
C860 C862 1.381 . S
C860 C866 1.383 . S
C861 C857 1.495 . S
C861 H867 0.959 . S
C861 H868 0.961 . S
C861 H869 0.960 . S
C862 C860 1.381 . S
C862 C863 1.394 . S
C862 H870 0.930 . S
C863 C862 1.394 . S
C863 C864 1.383 . S
C863 H871 0.929 . S
C864 C863 1.383 . S
C864 C865 1.377 . S
C865 H849 0.930 . S
C865 C864 1.377 . S
C865 C866 1.379 . S
C866 H850 0.931 . S
C866 C860 1.383 . S
C866 C865 1.379 . S
H867 C861 0.959 . S
H868 C861 0.961 . S
H869 C861 0.960 . S
H870 C862 0.930 . S
H871 C863 0.929 . S
H872 C880 0.929 . S
H873 C882 0.930 . S
H874 C884 0.930 . S
H875 C887 0.929 . S
H876 C890 0.930 . S
H877 C892 0.960 . S
H878 C892 0.960 . S
H879 C892 0.960 . S
C880 H872 0.929 . S
C880 C881 1.377 . S
C880 C882 1.384 . S
C881 C880 1.377 . S
C881 C887 1.390 . S
C882 H873 0.930 . S
C882 C880 1.384 . S
C882 C883 1.372 . S
C883 C882 1.372 . S
C883 C884 1.400 . S
C883 C888 1.490 . S
C884 H874 0.930 . S
C884 C883 1.400 . S
C884 C887 1.386 . S
H885 C901 0.930 . S
H886 C902 0.931 . S
C887 H875 0.929 . S
C887 C881 1.390 . S
C887 C884 1.386 . S
C888 C883 1.490 . S
C888 C890 1.395 . S
C888 C891 1.403 . S
H889 C895 0.930 . S
C890 H876 0.930 . S
C890 C888 1.395 . S
C890 C893 1.403 . S
C891 C888 1.403 . S
C891 C892 1.524 . S
C891 C895 1.400 . S
C892 H877 0.960 . S
C892 H878 0.960 . S
C892 H879 0.960 . S
C892 C891 1.524 . S
C893 C890 1.403 . S
C893 C894 1.392 . S
C893 C897 1.495 . S
C894 C893 1.392 . S
C894 C895 1.385 . S
C894 C896 1.478 . S
C895 H889 0.930 . S
C895 C891 1.400 . S
C895 C894 1.385 . S
C896 C894 1.478 . S
C896 C898 1.381 . S
C896 C902 1.383 . S
C897 C893 1.495 . S
C897 H903 0.959 . S
C897 H904 0.961 . S
C897 H905 0.960 . S
C898 C896 1.381 . S
C898 C899 1.394 . S
C898 H906 0.930 . S
C899 C898 1.394 . S
C899 C900 1.383 . S
C899 H907 0.929 . S
C900 C899 1.383 . S
C900 C901 1.377 . S
C901 H885 0.930 . S
C901 C900 1.377 . S
C901 C902 1.379 . S
C902 H886 0.931 . S
C902 C896 1.383 . S
C902 C901 1.379 . S
H903 C897 0.959 . S
H904 C897 0.961 . S
H905 C897 0.960 . S
H906 C898 0.930 . S
H907 C899 0.929 . S
H908 C916 0.929 . S
H909 C918 0.930 . S
H910 C920 0.930 . S
H911 C923 0.929 . S
H912 C926 0.930 . S
H913 C928 0.960 . S
H914 C928 0.960 . S
H915 C928 0.960 . S
C916 H908 0.929 . S
C916 C917 1.377 . S
C916 C918 1.384 . S
C917 C916 1.377 . S
C917 C923 1.390 . S
C918 H909 0.930 . S
C918 C916 1.384 . S
C918 C919 1.372 . S
C919 C918 1.372 . S
C919 C920 1.400 . S
C919 C924 1.490 . S
C920 H910 0.930 . S
C920 C919 1.400 . S
C920 C923 1.386 . S
H921 C937 0.930 . S
H922 C938 0.931 . S
C923 H911 0.929 . S
C923 C917 1.390 . S
C923 C920 1.386 . S
C924 C919 1.490 . S
C924 C926 1.395 . S
C924 C927 1.403 . S
H925 C931 0.930 . S
C926 H912 0.930 . S
C926 C924 1.395 . S
C926 C929 1.403 . S
C927 C924 1.403 . S
C927 C928 1.524 . S
C927 C931 1.400 . S
C928 H913 0.960 . S
C928 H914 0.960 . S
C928 H915 0.960 . S
C928 C927 1.524 . S
C929 C926 1.403 . S
C929 C930 1.392 . S
C929 C933 1.495 . S
C930 C929 1.392 . S
C930 C931 1.385 . S
C930 C932 1.478 . S
C931 H925 0.930 . S
C931 C927 1.400 . S
C931 C930 1.385 . S
C932 C930 1.478 . S
C932 C934 1.381 . S
C932 C938 1.383 . S
C933 C929 1.495 . S
C933 H939 0.959 . S
C933 H940 0.961 . S
C933 H941 0.960 . S
C934 C932 1.381 . S
C934 C935 1.394 . S
C934 H942 0.930 . S
C935 C934 1.394 . S
C935 C936 1.383 . S
C935 H943 0.929 . S
C936 C935 1.383 . S
C936 C937 1.377 . S
C937 H921 0.930 . S
C937 C936 1.377 . S
C937 C938 1.379 . S
C938 H922 0.931 . S
C938 C932 1.383 . S
C938 C937 1.379 . S
H939 C933 0.959 . S
H940 C933 0.961 . S
H941 C933 0.960 . S
H942 C934 0.930 . S
H943 C935 0.929 . S
H944 C952 0.929 . S
H945 C954 0.930 . S
H946 C956 0.930 . S
H947 C959 0.929 . S
H948 C962 0.930 . S
H949 C964 0.960 . S
H950 C964 0.960 . S
H951 C964 0.960 . S
C952 H944 0.929 . S
C952 C953 1.377 . S
C952 C954 1.384 . S
C953 C952 1.377 . S
C953 C959 1.390 . S
C954 H945 0.930 . S
C954 C952 1.384 . S
C954 C955 1.372 . S
C955 C954 1.372 . S
C955 C956 1.400 . S
C955 C960 1.490 . S
C956 H946 0.930 . S
C956 C955 1.400 . S
C956 C959 1.386 . S
H957 C973 0.930 . S
H958 C974 0.931 . S
C959 H947 0.929 . S
C959 C953 1.390 . S
C959 C956 1.386 . S
C960 C955 1.490 . S
C960 C962 1.395 . S
C960 C963 1.403 . S
H961 C967 0.930 . S
C962 H948 0.930 . S
C962 C960 1.395 . S
C962 C965 1.403 . S
C963 C960 1.403 . S
C963 C964 1.524 . S
C963 C967 1.400 . S
C964 H949 0.960 . S
C964 H950 0.960 . S
C964 H951 0.960 . S
C964 C963 1.524 . S
C965 C962 1.403 . S
C965 C966 1.392 . S
C965 C969 1.495 . S
C966 C965 1.392 . S
C966 C967 1.385 . S
C966 C968 1.478 . S
C967 H961 0.930 . S
C967 C963 1.400 . S
C967 C966 1.385 . S
C968 C966 1.478 . S
C968 C970 1.381 . S
C968 C974 1.383 . S
C969 C965 1.495 . S
C969 H975 0.959 1_545 S
C969 H976 0.961 1_545 S
C969 H977 0.960 . S
C970 C968 1.381 . S
C970 C971 1.394 1_655 S
C970 H978 0.930 1_655 S
C971 C970 1.394 1_455 S
C971 C972 1.383 1_455 S
C971 H979 0.929 . S
C972 C971 1.383 1_655 S
C972 C973 1.377 . S
C973 H957 0.930 . S
C973 C972 1.377 . S
C973 C974 1.379 . S
C974 H958 0.931 . S
C974 C968 1.383 . S
C974 C973 1.379 . S
H975 C969 0.959 1_565 S
H976 C969 0.961 1_565 S
H977 C969 0.960 . S
H978 C970 0.930 1_455 S
H979 C971 0.929 . S
H980 C988 0.929 . S
H981 C990 0.930 . S
H982 C992 0.930 . S
H983 C995 0.929 . S
H984 C998 0.930 . S
H985 C1000 0.960 . S
H986 C1000 0.960 . S
H987 C1000 0.960 . S
C988 H980 0.929 . S
C988 C989 1.377 . S
C988 C990 1.384 . S
C989 C988 1.377 . S
C989 C995 1.390 . S
C990 H981 0.930 . S
C990 C988 1.384 . S
C990 C991 1.372 . S
C991 C990 1.372 . S
C991 C992 1.400 . S
C991 C996 1.490 . S
C992 H982 0.930 . S
C992 C991 1.400 . S
C992 C995 1.386 . S
H993 C1009 0.930 . S
H994 C1010 0.931 . S
C995 H983 0.929 . S
C995 C989 1.390 . S
C995 C992 1.386 . S
C996 C991 1.490 . S
C996 C998 1.395 . S
C996 C999 1.403 . S
H997 C1003 0.930 . S
C998 H984 0.930 . S
C998 C996 1.395 . S
C998 C1001 1.403 . S
C999 C996 1.403 . S
C999 C1000 1.524 . S
C999 C1003 1.400 . S
C1000 H985 0.960 . S
C1000 H986 0.960 . S
C1000 H987 0.960 . S
C1000 C999 1.524 . S
C1001 C998 1.403 . S
C1001 C1002 1.392 . S
C1001 C1005 1.495 . S
C1002 C1001 1.392 . S
C1002 C1003 1.385 . S
C1002 C1004 1.478 . S
C1003 H997 0.930 . S
C1003 C999 1.400 . S
C1003 C1002 1.385 . S
C1004 C1002 1.478 . S
C1004 C1006 1.381 . S
C1004 C1010 1.383 . S
C1005 C1001 1.495 . S
C1005 H1011 0.959 . S
C1005 H1012 0.961 . S
C1005 H1013 0.960 . S
C1006 C1004 1.381 . S
C1006 C1007 1.394 . S
C1006 H1014 0.930 . S
C1007 C1006 1.394 . S
C1007 C1008 1.383 . S
C1007 H1015 0.929 . S
C1008 C1007 1.383 . S
C1008 C1009 1.377 . S
C1009 H993 0.930 . S
C1009 C1008 1.377 . S
C1009 C1010 1.379 . S
C1010 H994 0.931 . S
C1010 C1004 1.383 . S
C1010 C1009 1.379 . S
H1011 C1005 0.959 . S
H1012 C1005 0.961 . S
H1013 C1005 0.960 . S
H1014 C1006 0.930 . S
H1015 C1007 0.929 . S
H1016 C1024 0.929 1_565 S
H1017 C1026 0.930 1_565 S
H1018 C1028 0.930 . S
H1019 C1031 0.929 . S
H1020 C1034 0.930 . S
H1021 C1036 0.960 . S
H1022 C1036 0.960 . S
H1023 C1036 0.960 . S
C1024 H1016 0.929 1_545 S
C1024 C1025 1.377 . S
C1024 C1026 1.384 . S
C1025 C1024 1.377 . S
C1025 C1031 1.390 . S
C1026 H1017 0.930 1_545 S
C1026 C1024 1.384 . S
C1026 C1027 1.372 . S
C1027 C1026 1.372 . S
C1027 C1028 1.400 . S
C1027 C1032 1.490 . S
C1028 H1018 0.930 . S
C1028 C1027 1.400 . S
C1028 C1031 1.386 . S
H1029 C1045 0.930 . S
H1030 C1046 0.931 . S
C1031 H1019 0.929 . S
C1031 C1025 1.390 . S
C1031 C1028 1.386 . S
C1032 C1027 1.490 . S
C1032 C1034 1.395 . S
C1032 C1035 1.403 . S
H1033 C1039 0.930 . S
C1034 H1020 0.930 . S
C1034 C1032 1.395 . S
C1034 C1037 1.403 . S
C1035 C1032 1.403 . S
C1035 C1036 1.524 . S
C1035 C1039 1.400 . S
C1036 H1021 0.960 . S
C1036 H1022 0.960 . S
C1036 H1023 0.960 . S
C1036 C1035 1.524 . S
C1037 C1034 1.403 . S
C1037 C1038 1.392 . S
C1037 C1041 1.495 . S
C1038 C1037 1.392 . S
C1038 C1039 1.385 . S
C1038 C1040 1.478 . S
C1039 H1033 0.930 . S
C1039 C1035 1.400 . S
C1039 C1038 1.385 . S
C1040 C1038 1.478 . S
C1040 C1042 1.378 . S
C1040 C1046 1.383 . S
C1041 C1037 1.495 . S
C1041 H1047 0.959 . S
C1041 H1048 0.961 . S
C1041 H1049 0.960 . S
C1042 C1040 1.378 . S
C1042 C1043 1.396 1_545 S
C1042 H1050 0.934 1_545 S
C1043 C1042 1.396 1_565 S
C1043 C1044 1.371 1_565 S
C1043 H1051 0.939 . S
C1044 C1043 1.371 1_545 S
C1044 C1045 1.377 . S
C1045 H1029 0.930 . S
C1045 C1044 1.377 . S
C1045 C1046 1.379 . S
C1046 H1030 0.931 . S
C1046 C1040 1.383 . S
C1046 C1045 1.379 . S
H1047 C1041 0.959 . S
H1048 C1041 0.961 . S
H1049 C1041 0.960 . S
H1050 C1042 0.934 1_565 S
H1051 C1043 0.939 . S
H1052 C1060 0.929 . S
H1053 C1062 0.930 . S
H1054 C1064 0.930 . S
H1055 C1067 0.929 . S
H1056 C1070 0.930 . S
H1057 C1072 0.960 . S
H1058 C1072 0.960 . S
H1059 C1072 0.960 . S
C1060 H1052 0.929 . S
C1060 C1061 1.377 . S
C1060 C1062 1.384 . S
C1061 C1060 1.377 . S
C1061 C1067 1.390 . S
C1062 H1053 0.930 . S
C1062 C1060 1.384 . S
C1062 C1063 1.372 . S
C1063 C1062 1.372 . S
C1063 C1064 1.400 . S
C1063 C1068 1.490 . S
C1064 H1054 0.930 . S
C1064 C1063 1.400 . S
C1064 C1067 1.386 . S
H1065 C1081 0.930 . S
H1066 C1082 0.931 . S
C1067 H1055 0.929 . S
C1067 C1061 1.390 . S
C1067 C1064 1.386 . S
C1068 C1063 1.490 . S
C1068 C1070 1.395 . S
C1068 C1071 1.403 . S
H1069 C1075 0.930 . S
C1070 H1056 0.930 . S
C1070 C1068 1.395 . S
C1070 C1073 1.403 . S
C1071 C1068 1.403 . S
C1071 C1072 1.524 . S
C1071 C1075 1.400 . S
C1072 H1057 0.960 . S
C1072 H1058 0.960 . S
C1072 H1059 0.960 . S
C1072 C1071 1.524 . S
C1073 C1070 1.403 . S
C1073 C1074 1.392 . S
C1073 C1077 1.495 . S
C1074 C1073 1.392 . S
C1074 C1075 1.385 . S
C1074 C1076 1.478 . S
C1075 H1069 0.930 . S
C1075 C1071 1.400 . S
C1075 C1074 1.385 . S
C1076 C1074 1.478 . S
C1076 C1078 1.381 . S
C1076 C1082 1.383 . S
C1077 C1073 1.495 . S
C1077 H1083 0.959 . S
C1077 H1084 0.961 . S
C1077 H1085 0.960 . S
C1078 C1076 1.381 . S
C1078 C1079 1.394 . S
C1078 H1086 0.930 . S
C1079 C1078 1.394 . S
C1079 C1080 1.383 . S
C1079 H1087 0.929 . S
C1080 C1079 1.383 . S
C1080 C1081 1.377 . S
C1081 H1065 0.930 . S
C1081 C1080 1.377 . S
C1081 C1082 1.379 . S
C1082 H1066 0.931 . S
C1082 C1076 1.383 . S
C1082 C1081 1.379 . S
H1083 C1077 0.959 . S
H1084 C1077 0.961 . S
H1085 C1077 0.960 . S
H1086 C1078 0.930 . S
H1087 C1079 0.929 . S
H1088 C1096 0.929 . S
H1089 C1098 0.930 . S
H1090 C1100 0.930 . S
H1091 C1103 0.929 . S
H1092 C1106 0.930 . S
H1093 C1108 0.960 . S
H1094 C1108 0.960 . S
H1095 C1108 0.960 . S
C1096 H1088 0.929 . S
C1096 C1097 1.377 . S
C1096 C1098 1.384 . S
C1097 C1096 1.377 . S
C1097 C1103 1.390 . S
C1098 H1089 0.930 . S
C1098 C1096 1.384 . S
C1098 C1099 1.372 . S
C1099 C1098 1.372 . S
C1099 C1100 1.400 . S
C1099 C1104 1.490 . S
C1100 H1090 0.930 . S
C1100 C1099 1.400 . S
C1100 C1103 1.386 . S
H1101 C1117 0.930 . S
H1102 C1118 0.931 . S
C1103 H1091 0.929 . S
C1103 C1097 1.390 . S
C1103 C1100 1.386 . S
C1104 C1099 1.490 . S
C1104 C1106 1.395 . S
C1104 C1107 1.403 . S
H1105 C1111 0.930 . S
C1106 H1092 0.930 . S
C1106 C1104 1.395 . S
C1106 C1109 1.403 . S
C1107 C1104 1.403 . S
C1107 C1108 1.524 . S
C1107 C1111 1.400 . S
C1108 H1093 0.960 . S
C1108 H1094 0.960 . S
C1108 H1095 0.960 . S
C1108 C1107 1.524 . S
C1109 C1106 1.403 . S
C1109 C1110 1.392 . S
C1109 C1113 1.495 . S
C1110 C1109 1.392 . S
C1110 C1111 1.385 . S
C1110 C1112 1.478 . S
C1111 H1105 0.930 . S
C1111 C1107 1.400 . S
C1111 C1110 1.385 . S
C1112 C1110 1.478 . S
C1112 C1114 1.381 . S
C1112 C1118 1.383 . S
C1113 C1109 1.495 . S
C1113 H1119 0.959 1_655 S
C1113 H1120 0.961 1_655 S
C1113 H1121 0.960 1_655 S
C1114 C1112 1.381 . S
C1114 C1115 1.394 . S
C1114 H1122 0.930 . S
C1115 C1114 1.394 . S
C1115 C1116 1.383 . S
C1115 H1123 0.946 1_545 S
C1116 C1115 1.383 . S
C1116 C1117 1.377 . S
C1117 H1101 0.930 . S
C1117 C1116 1.377 . S
C1117 C1118 1.379 . S
C1118 H1102 0.931 . S
C1118 C1112 1.383 . S
C1118 C1117 1.379 . S
H1119 C1113 0.959 1_455 S
H1120 C1113 0.961 1_455 S
H1121 C1113 0.960 1_455 S
H1122 C1114 0.930 . S
H1123 C1115 0.946 1_565 S
H1124 C1132 0.929 . S
H1125 C1134 0.930 . S
H1126 C1136 0.930 . S
H1127 C1139 0.929 . S
H1128 C1142 0.930 . S
H1129 C1144 0.960 . S
H1130 C1144 0.960 . S
H1131 C1144 0.960 . S
C1132 H1124 0.929 . S
C1132 C1133 1.377 . S
C1132 C1134 1.384 . S
C1133 C1132 1.377 . S
C1133 C1139 1.390 . S
C1134 H1125 0.930 . S
C1134 C1132 1.384 . S
C1134 C1135 1.372 . S
C1135 C1134 1.372 . S
C1135 C1136 1.400 . S
C1135 C1140 1.490 . S
C1136 H1126 0.930 . S
C1136 C1135 1.400 . S
C1136 C1139 1.386 . S
H1137 C1153 0.930 . S
H1138 C1154 0.931 . S
C1139 H1127 0.929 . S
C1139 C1133 1.390 . S
C1139 C1136 1.386 . S
C1140 C1135 1.490 . S
C1140 C1142 1.395 . S
C1140 C1143 1.403 . S
H1141 C1147 0.930 . S
C1142 H1128 0.930 . S
C1142 C1140 1.395 . S
C1142 C1145 1.403 . S
C1143 C1140 1.403 . S
C1143 C1144 1.524 . S
C1143 C1147 1.400 . S
C1144 H1129 0.960 . S
C1144 H1130 0.960 . S
C1144 H1131 0.960 . S
C1144 C1143 1.524 . S
C1145 C1142 1.403 . S
C1145 C1146 1.392 . S
C1145 C1149 1.495 . S
C1146 C1145 1.392 . S
C1146 C1147 1.385 . S
C1146 C1148 1.478 . S
C1147 H1141 0.930 . S
C1147 C1143 1.400 . S
C1147 C1146 1.385 . S
C1148 C1146 1.478 . S
C1148 C1150 1.381 . S
C1148 C1154 1.383 . S
C1149 C1145 1.495 . S
C1149 H1155 0.959 . S
C1149 H1156 0.961 . S
C1149 H1157 0.960 . S
C1150 C1148 1.381 . S
C1150 C1151 1.394 . S
C1150 H1158 0.930 . S
C1151 C1150 1.394 . S
C1151 C1152 1.383 . S
C1151 H1159 0.929 . S
C1152 C1151 1.383 . S
C1152 C1153 1.377 . S
C1153 H1137 0.930 . S
C1153 C1152 1.377 . S
C1153 C1154 1.379 . S
C1154 H1138 0.931 . S
C1154 C1148 1.383 . S
C1154 C1153 1.379 . S
H1155 C1149 0.959 . S
H1156 C1149 0.961 . S
H1157 C1149 0.960 . S
H1158 C1150 0.930 . S
H1159 C1151 0.929 . S
H1160 C1168 0.929 . S
H1161 C1170 0.930 . S
H1162 C1172 0.930 . S
H1163 C1175 0.929 . S
H1164 C1178 0.930 . S
H1165 C1180 0.960 . S
H1166 C1180 0.960 1_565 S
H1167 C1180 0.960 . S
C1168 H1160 0.929 . S
C1168 C1169 1.377 . S
C1168 C1170 1.384 . S
C1169 C1168 1.377 . S
C1169 C1175 1.390 . S
C1170 H1161 0.930 . S
C1170 C1168 1.384 . S
C1170 C1171 1.372 . S
C1171 C1170 1.372 . S
C1171 C1172 1.400 . S
C1171 C1176 1.490 . S
C1172 H1162 0.930 . S
C1172 C1171 1.400 . S
C1172 C1175 1.386 . S
H1173 C1189 0.930 . S
H1174 C1190 0.931 . S
C1175 H1163 0.929 . S
C1175 C1169 1.390 . S
C1175 C1172 1.386 . S
C1176 C1171 1.490 . S
C1176 C1178 1.395 . S
C1176 C1179 1.403 . S
H1177 C1183 0.930 . S
C1178 H1164 0.930 . S
C1178 C1176 1.395 . S
C1178 C1181 1.403 . S
C1179 C1176 1.403 . S
C1179 C1180 1.524 . S
C1179 C1183 1.400 . S
C1180 H1165 0.960 . S
C1180 H1166 0.960 1_545 S
C1180 H1167 0.960 . S
C1180 C1179 1.524 . S
C1181 C1178 1.403 . S
C1181 C1182 1.392 . S
C1181 C1185 1.495 . S
C1182 C1181 1.392 . S
C1182 C1183 1.385 . S
C1182 C1184 1.478 . S
C1183 H1177 0.930 . S
C1183 C1179 1.400 . S
C1183 C1182 1.385 . S
C1184 C1182 1.478 . S
C1184 C1186 1.381 . S
C1184 C1190 1.383 . S
C1185 C1181 1.495 . S
C1185 H1191 0.959 . S
C1185 H1192 0.961 . S
C1185 H1193 0.960 . S
C1186 C1184 1.381 . S
C1186 C1187 1.394 . S
C1186 H1194 0.930 . S
C1187 C1186 1.394 . S
C1187 C1188 1.383 . S
C1187 H1195 0.929 . S
C1188 C1187 1.383 . S
C1188 C1189 1.377 . S
C1189 H1173 0.930 . S
C1189 C1188 1.377 . S
C1189 C1190 1.379 . S
C1190 H1174 0.931 . S
C1190 C1184 1.383 . S
C1190 C1189 1.379 . S
H1191 C1185 0.959 . S
H1192 C1185 0.961 . S
H1193 C1185 0.960 . S
H1194 C1186 0.930 . S
H1195 C1187 0.929 . S
H1196 C1204 0.929 . S
H1197 C1206 0.930 . S
H1198 C1208 0.930 . S
H1199 C1211 0.929 . S
H1200 C1214 0.930 . S
H1201 C1216 0.960 . S
H1202 C1216 0.960 . S
H1203 C1216 0.960 . S
C1204 H1196 0.929 . S
C1204 C1205 1.377 . S
C1204 C1206 1.384 . S
C1205 C1204 1.377 . S
C1205 C1211 1.390 . S
C1206 H1197 0.930 . S
C1206 C1204 1.384 . S
C1206 C1207 1.372 . S
C1207 C1206 1.372 . S
C1207 C1208 1.400 . S
C1207 C1212 1.490 . S
C1208 H1198 0.930 . S
C1208 C1207 1.400 . S
C1208 C1211 1.386 . S
H1209 C1225 0.930 . S
H1210 C1226 0.931 . S
C1211 H1199 0.929 . S
C1211 C1205 1.390 . S
C1211 C1208 1.386 . S
C1212 C1207 1.490 . S
C1212 C1214 1.395 . S
C1212 C1215 1.403 . S
H1213 C1219 0.930 . S
C1214 H1200 0.930 . S
C1214 C1212 1.395 . S
C1214 C1217 1.403 . S
C1215 C1212 1.403 . S
C1215 C1216 1.524 . S
C1215 C1219 1.400 . S
C1216 H1201 0.960 . S
C1216 H1202 0.960 . S
C1216 H1203 0.960 . S
C1216 C1215 1.524 . S
C1217 C1214 1.403 . S
C1217 C1218 1.392 . S
C1217 C1221 1.495 . S
C1218 C1217 1.392 . S
C1218 C1219 1.385 . S
C1218 C1220 1.478 . S
C1219 H1213 0.930 . S
C1219 C1215 1.400 . S
C1219 C1218 1.385 . S
C1220 C1218 1.478 . S
C1220 C1222 1.381 . S
C1220 C1226 1.383 . S
C1221 C1217 1.495 . S
C1221 H1227 0.959 . S
C1221 H1228 0.961 . S
C1221 H1229 0.960 . S
C1222 C1220 1.381 . S
C1222 C1223 1.394 . S
C1222 H1230 0.930 . S
C1223 C1222 1.394 . S
C1223 C1224 1.383 . S
C1223 H1231 0.929 . S
C1224 C1223 1.383 . S
C1224 C1225 1.377 . S
C1225 H1209 0.930 . S
C1225 C1224 1.377 . S
C1225 C1226 1.379 . S
C1226 H1210 0.931 . S
C1226 C1220 1.383 . S
C1226 C1225 1.379 . S
H1227 C1221 0.959 . S
H1228 C1221 0.961 . S
H1229 C1221 0.960 . S
H1230 C1222 0.930 . S
H1231 C1223 0.929 . S
H1232 C1240 0.929 . S
H1233 C1242 0.930 . S
H1234 C1244 0.930 . S
H1235 C1247 0.962 . S
H1236 C1250 0.930 . S
H1237 C1252 0.960 1_556 S
H1238 C1252 0.960 . S
H1239 C1252 0.960 1_556 S
C1240 H1232 0.929 . S
C1240 C1241 1.377 . S
C1240 C1242 1.384 . S
C1241 C1240 1.377 . S
C1241 C1247 1.390 . S
C1242 H1233 0.930 . S
C1242 C1240 1.384 . S
C1242 C1243 1.372 . S
C1243 C1242 1.372 . S
C1243 C1244 1.400 . S
C1243 C1248 1.490 . S
C1244 H1234 0.930 . S
C1244 C1243 1.400 . S
C1244 C1247 1.386 . S
H1245 C1261 0.961 . S
H1246 C1262 0.931 . S
C1247 H1235 0.962 . S
C1247 C1241 1.390 . S
C1247 C1244 1.386 . S
C1248 C1243 1.490 . S
C1248 C1250 1.395 . S
C1248 C1251 1.403 . S
H1249 C1255 0.930 . S
C1250 H1236 0.930 . S
C1250 C1248 1.395 . S
C1250 C1253 1.403 . S
C1251 C1248 1.403 . S
C1251 C1252 1.524 . S
C1251 C1255 1.400 . S
C1252 H1237 0.960 1_554 S
C1252 H1238 0.960 . S
C1252 H1239 0.960 1_554 S
C1252 C1251 1.524 . S
C1253 C1250 1.403 . S
C1253 C1254 1.392 . S
C1253 C1257 1.495 . S
C1254 C1253 1.392 . S
C1254 C1255 1.385 . S
C1254 C1256 1.478 . S
C1255 H1249 0.930 . S
C1255 C1251 1.400 . S
C1255 C1254 1.385 . S
C1256 C1254 1.478 . S
C1256 C1258 1.381 . S
C1256 C1262 1.383 . S
C1257 C1253 1.495 . S
C1257 H1263 0.959 . S
C1257 H1264 0.961 1_565 S
C1257 H1265 0.960 . S
C1258 C1256 1.381 . S
C1258 C1259 1.394 . S
C1258 H1266 0.930 . S
C1259 C1258 1.394 . S
C1259 C1260 1.414 . S
C1259 H1267 0.929 . S
C1260 C1259 1.414 . S
C1260 C1261 1.375 1_565 S
C1261 H1245 0.961 . S
C1261 C1260 1.375 1_545 S
C1261 C1262 1.352 1_545 S
C1262 H1246 0.931 . S
C1262 C1256 1.383 . S
C1262 C1261 1.352 1_565 S
H1263 C1257 0.959 . S
H1264 C1257 0.961 1_545 S
H1265 C1257 0.960 . S
H1266 C1258 0.930 . S
H1267 C1259 0.929 . S
H1268 C1276 0.929 . S
H1269 C1278 0.930 . S
H1270 C1280 0.930 . S
H1271 C1283 0.929 . S
H1272 C1286 0.930 . S
H1273 C1288 0.960 . S
H1274 C1288 0.960 . S
H1275 C1288 0.960 . S
C1276 H1268 0.929 . S
C1276 C1277 1.377 . S
C1276 C1278 1.384 . S
C1277 C1276 1.377 . S
C1277 C1283 1.390 . S
C1278 H1269 0.930 . S
C1278 C1276 1.384 . S
C1278 C1279 1.372 . S
C1279 C1278 1.372 . S
C1279 C1280 1.400 . S
C1279 C1284 1.490 . S
C1280 H1270 0.930 . S
C1280 C1279 1.400 . S
C1280 C1283 1.386 . S
H1281 C1297 0.930 . S
H1282 C1298 0.931 . S
C1283 H1271 0.929 . S
C1283 C1277 1.390 . S
C1283 C1280 1.386 . S
C1284 C1279 1.490 . S
C1284 C1286 1.395 . S
C1284 C1287 1.403 1_554 S
H1285 C1291 0.930 . S
C1286 H1272 0.930 . S
C1286 C1284 1.395 . S
C1286 C1289 1.403 . S
C1287 C1284 1.403 1_556 S
C1287 C1288 1.524 . S
C1287 C1291 1.400 . S
C1288 H1273 0.960 . S
C1288 H1274 0.960 . S
C1288 H1275 0.960 . S
C1288 C1287 1.524 . S
C1289 C1286 1.403 . S
C1289 C1290 1.392 . S
C1289 C1293 1.495 . S
C1290 C1289 1.392 . S
C1290 C1291 1.385 1_554 S
C1290 C1292 1.478 . S
C1291 H1285 0.930 . S
C1291 C1287 1.400 . S
C1291 C1290 1.385 1_556 S
C1292 C1290 1.478 . S
C1292 C1294 1.381 . S
C1292 C1298 1.383 . S
C1293 C1289 1.495 . S
C1293 H1299 0.959 . S
C1293 H1300 0.961 . S
C1293 H1301 0.960 . S
C1294 C1292 1.381 . S
C1294 C1295 1.394 . S
C1294 H1302 0.930 . S
C1295 C1294 1.394 . S
C1295 C1296 1.383 . S
C1295 H1303 0.929 . S
C1296 C1295 1.383 . S
C1296 C1297 1.377 . S
C1297 H1281 0.930 . S
C1297 C1296 1.377 . S
C1297 C1298 1.379 . S
C1298 H1282 0.931 . S
C1298 C1292 1.383 . S
C1298 C1297 1.379 . S
H1299 C1293 0.959 . S
H1300 C1293 0.961 . S
H1301 C1293 0.960 . S
H1302 C1294 0.930 . S
H1303 C1295 0.929 . S
H1304 C1312 0.929 . S
H1305 C1314 0.930 . S
H1306 C1316 0.930 . S
H1307 C1319 0.929 . S
H1308 C1322 0.930 . S
H1309 C1324 0.960 . S
H1310 C1324 0.960 . S
H1311 C1324 0.960 . S
C1312 H1304 0.929 . S
C1312 C1313 1.377 . S
C1312 C1314 1.384 . S
C1313 C1312 1.377 . S
C1313 C1319 1.390 . S
C1314 H1305 0.930 . S
C1314 C1312 1.384 . S
C1314 C1315 1.372 . S
C1315 C1314 1.372 . S
C1315 C1316 1.400 . S
C1315 C1320 1.490 . S
C1316 H1306 0.930 . S
C1316 C1315 1.400 . S
C1316 C1319 1.386 . S
H1317 C1333 0.930 . S
H1318 C1334 0.931 . S
C1319 H1307 0.929 . S
C1319 C1313 1.390 . S
C1319 C1316 1.386 . S
C1320 C1315 1.490 . S
C1320 C1322 1.395 . S
C1320 C1323 1.403 . S
H1321 C1327 0.930 . S
C1322 H1308 0.930 . S
C1322 C1320 1.395 . S
C1322 C1325 1.403 . S
C1323 C1320 1.403 . S
C1323 C1324 1.524 . S
C1323 C1327 1.400 . S
C1324 H1309 0.960 . S
C1324 H1310 0.960 . S
C1324 H1311 0.960 . S
C1324 C1323 1.524 . S
C1325 C1322 1.403 . S
C1325 C1326 1.392 . S
C1325 C1329 1.495 . S
C1326 C1325 1.392 . S
C1326 C1327 1.385 . S
C1326 C1328 1.478 . S
C1327 H1321 0.930 . S
C1327 C1323 1.400 . S
C1327 C1326 1.385 . S
C1328 C1326 1.478 . S
C1328 C1330 1.381 . S
C1328 C1334 1.383 . S
C1329 C1325 1.495 . S
C1329 H1335 0.959 . S
C1329 H1336 0.961 . S
C1329 H1337 0.960 . S
C1330 C1328 1.381 . S
C1330 C1331 1.394 . S
C1330 H1338 0.930 . S
C1331 C1330 1.394 . S
C1331 C1332 1.383 . S
C1331 H1339 0.929 . S
C1332 C1331 1.383 . S
C1332 C1333 1.377 . S
C1333 H1317 0.930 . S
C1333 C1332 1.377 . S
C1333 C1334 1.379 . S
C1334 H1318 0.931 . S
C1334 C1328 1.383 . S
C1334 C1333 1.379 . S
H1335 C1329 0.959 . S
H1336 C1329 0.961 . S
H1337 C1329 0.960 . S
H1338 C1330 0.930 . S
H1339 C1331 0.929 . S
H1340 C1348 0.929 . S
H1341 C1350 0.930 . S
H1342 C1352 0.930 . S
H1343 C1355 0.929 . S
H1344 C1358 0.930 . S
H1345 C1360 0.960 . S
H1346 C1360 0.960 . S
H1347 C1360 0.960 . S
C1348 H1340 0.929 . S
C1348 C1349 1.377 . S
C1348 C1350 1.384 . S
C1349 C1348 1.377 . S
C1349 C1355 1.390 . S
C1350 H1341 0.930 . S
C1350 C1348 1.384 . S
C1350 C1351 1.372 . S
C1351 C1350 1.372 . S
C1351 C1352 1.400 . S
C1351 C1356 1.490 . S
C1352 H1342 0.930 . S
C1352 C1351 1.400 . S
C1352 C1355 1.386 . S
H1353 C1369 0.930 . S
H1354 C1370 0.931 . S
C1355 H1343 0.929 . S
C1355 C1349 1.390 . S
C1355 C1352 1.386 . S
C1356 C1351 1.490 . S
C1356 C1358 1.395 . S
C1356 C1359 1.403 . S
H1357 C1363 0.930 . S
C1358 H1344 0.930 . S
C1358 C1356 1.395 . S
C1358 C1361 1.403 . S
C1359 C1356 1.403 . S
C1359 C1360 1.524 . S
C1359 C1363 1.400 . S
C1360 H1345 0.960 . S
C1360 H1346 0.960 . S
C1360 H1347 0.960 . S
C1360 C1359 1.524 . S
C1361 C1358 1.403 . S
C1361 C1362 1.392 . S
C1361 C1365 1.495 . S
C1362 C1361 1.392 . S
C1362 C1363 1.385 . S
C1362 C1364 1.478 . S
C1363 H1357 0.930 . S
C1363 C1359 1.400 . S
C1363 C1362 1.385 . S
C1364 C1362 1.478 . S
C1364 C1366 1.381 . S
C1364 C1370 1.383 . S
C1365 C1361 1.495 . S
C1365 H1371 0.959 . S
C1365 H1372 0.961 . S
C1365 H1373 0.960 . S
C1366 C1364 1.381 . S
C1366 C1367 1.394 . S
C1366 H1374 0.930 . S
C1367 C1366 1.394 . S
C1367 C1368 1.383 . S
C1367 H1375 0.929 . S
C1368 C1367 1.383 . S
C1368 C1369 1.377 . S
C1369 H1353 0.930 . S
C1369 C1368 1.377 . S
C1369 C1370 1.379 . S
C1370 H1354 0.931 . S
C1370 C1364 1.383 . S
C1370 C1369 1.379 . S
H1371 C1365 0.959 . S
H1372 C1365 0.961 . S
H1373 C1365 0.960 . S
H1374 C1366 0.930 . S
H1375 C1367 0.929 . S
H1376 C1384 0.929 . S
H1377 C1386 0.930 . S
H1378 C1388 0.930 . S
H1379 C1391 0.929 . S
H1380 C1394 0.930 . S
H1381 C1396 0.960 . S
H1382 C1396 0.960 . S
H1383 C1396 0.960 . S
C1384 H1376 0.929 . S
C1384 C1385 1.377 . S
C1384 C1386 1.384 . S
C1385 C1384 1.377 . S
C1385 C1391 1.390 . S
C1386 H1377 0.930 . S
C1386 C1384 1.384 . S
C1386 C1387 1.372 . S
C1387 C1386 1.372 . S
C1387 C1388 1.400 . S
C1387 C1392 1.490 . S
C1388 H1378 0.930 . S
C1388 C1387 1.400 . S
C1388 C1391 1.386 . S
H1389 C1405 0.930 . S
H1390 C1406 0.931 . S
C1391 H1379 0.929 . S
C1391 C1385 1.390 . S
C1391 C1388 1.386 . S
C1392 C1387 1.490 . S
C1392 C1394 1.395 . S
C1392 C1395 1.403 . S
H1393 C1399 0.930 . S
C1394 H1380 0.930 . S
C1394 C1392 1.395 . S
C1394 C1397 1.403 . S
C1395 C1392 1.403 . S
C1395 C1396 1.524 . S
C1395 C1399 1.400 . S
C1396 H1381 0.960 . S
C1396 H1382 0.960 . S
C1396 H1383 0.960 . S
C1396 C1395 1.524 . S
C1397 C1394 1.403 . S
C1397 C1398 1.392 . S
C1397 C1401 1.495 . S
C1398 C1397 1.392 . S
C1398 C1399 1.385 . S
C1398 C1400 1.478 . S
C1399 H1393 0.930 . S
C1399 C1395 1.400 . S
C1399 C1398 1.385 . S
C1400 C1398 1.478 . S
C1400 C1402 1.381 . S
C1400 C1406 1.383 . S
C1401 C1397 1.495 . S
C1401 H1407 0.959 . S
C1401 H1408 0.961 . S
C1401 H1409 0.960 . S
C1402 C1400 1.381 . S
C1402 C1403 1.394 . S
C1402 H1410 0.930 . S
C1403 C1402 1.394 . S
C1403 C1404 1.383 . S
C1403 H1411 0.929 . S
C1404 C1403 1.383 . S
C1404 C1405 1.377 . S
C1405 H1389 0.930 . S
C1405 C1404 1.377 . S
C1405 C1406 1.379 . S
C1406 H1390 0.931 . S
C1406 C1400 1.383 . S
C1406 C1405 1.379 . S
H1407 C1401 0.959 . S
H1408 C1401 0.961 . S
H1409 C1401 0.960 . S
H1410 C1402 0.930 . S
H1411 C1403 0.929 . S
H1412 C1420 0.929 . S
H1413 C1422 0.930 . S
H1414 C1424 0.930 . S
H1415 C1427 0.929 . S
H1416 C1430 0.930 . S
H1417 C1432 0.960 . S
H1418 C1432 0.960 . S
H1419 C1432 0.960 . S
C1420 H1412 0.929 . S
C1420 C1421 1.377 . S
C1420 C1422 1.384 . S
C1421 C1420 1.377 . S
C1421 C1427 1.390 . S
C1422 H1413 0.930 . S
C1422 C1420 1.384 . S
C1422 C1423 1.372 . S
C1423 C1422 1.372 . S
C1423 C1424 1.400 . S
C1423 C1428 1.490 . S
C1424 H1414 0.930 . S
C1424 C1423 1.400 . S
C1424 C1427 1.386 . S
H1425 C1441 0.930 . S
H1426 C1442 0.931 . S
C1427 H1415 0.929 . S
C1427 C1421 1.390 . S
C1427 C1424 1.386 . S
C1428 C1423 1.490 . S
C1428 C1430 1.395 . S
C1428 C1431 1.403 . S
H1429 C1435 0.930 . S
C1430 H1416 0.930 . S
C1430 C1428 1.395 . S
C1430 C1433 1.403 . S
C1431 C1428 1.403 . S
C1431 C1432 1.524 . S
C1431 C1435 1.400 . S
C1432 H1417 0.960 . S
C1432 H1418 0.960 . S
C1432 H1419 0.960 . S
C1432 C1431 1.524 . S
C1433 C1430 1.403 . S
C1433 C1434 1.392 . S
C1433 C1437 1.495 . S
C1434 C1433 1.392 . S
C1434 C1435 1.385 . S
C1434 C1436 1.478 . S
C1435 H1429 0.930 . S
C1435 C1431 1.400 . S
C1435 C1434 1.385 . S
C1436 C1434 1.478 . S
C1436 C1438 1.381 . S
C1436 C1442 1.383 . S
C1437 C1433 1.495 . S
C1437 H1443 0.959 . S
C1437 H1444 0.961 . S
C1437 H1445 0.960 . S
C1438 C1436 1.381 . S
C1438 C1439 1.394 . S
C1438 H1446 0.930 . S
C1439 C1438 1.394 . S
C1439 C1440 1.383 . S
C1439 H1447 0.929 . S
C1440 C1439 1.383 . S
C1440 C1441 1.377 . S
C1441 H1425 0.930 . S
C1441 C1440 1.377 . S
C1441 C1442 1.379 . S
C1442 H1426 0.931 . S
C1442 C1436 1.383 . S
C1442 C1441 1.379 . S
H1443 C1437 0.959 . S
H1444 C1437 0.961 . S
H1445 C1437 0.960 . S
H1446 C1438 0.930 . S
H1447 C1439 0.929 . S
H1448 C1456 0.929 . S
H1449 C1458 0.930 . S
H1450 C1460 0.930 . S
H1451 C1463 0.929 . S
H1452 C1466 0.930 . S
H1453 C1468 0.960 . S
H1454 C1468 0.960 . S
H1455 C1468 0.960 . S
C1456 H1448 0.929 . S
C1456 C1457 1.377 . S
C1456 C1458 1.384 . S
C1457 C1456 1.377 . S
C1457 C1463 1.390 . S
C1458 H1449 0.930 . S
C1458 C1456 1.384 . S
C1458 C1459 1.372 . S
C1459 C1458 1.372 . S
C1459 C1460 1.400 . S
C1459 C1464 1.490 . S
C1460 H1450 0.930 . S
C1460 C1459 1.400 . S
C1460 C1463 1.386 . S
H1461 C1477 0.930 . S
H1462 C1478 0.931 . S
C1463 H1451 0.929 . S
C1463 C1457 1.390 . S
C1463 C1460 1.386 . S
C1464 C1459 1.490 . S
C1464 C1466 1.395 . S
C1464 C1467 1.403 . S
H1465 C1471 0.930 . S
C1466 H1452 0.930 . S
C1466 C1464 1.395 . S
C1466 C1469 1.403 . S
C1467 C1464 1.403 . S
C1467 C1468 1.524 . S
C1467 C1471 1.400 . S
C1468 H1453 0.960 . S
C1468 H1454 0.960 . S
C1468 H1455 0.960 . S
C1468 C1467 1.524 . S
C1469 C1466 1.403 . S
C1469 C1470 1.392 . S
C1469 C1473 1.495 . S
C1470 C1469 1.392 . S
C1470 C1471 1.385 . S
C1470 C1472 1.478 . S
C1471 H1465 0.930 . S
C1471 C1467 1.400 . S
C1471 C1470 1.385 . S
C1472 C1470 1.478 . S
C1472 C1474 1.381 . S
C1472 C1478 1.383 . S
C1473 C1469 1.495 . S
C1473 H1479 0.959 . S
C1473 H1480 0.961 . S
C1473 H1481 0.960 . S
C1474 C1472 1.381 . S
C1474 C1475 1.394 . S
C1474 H1482 0.930 . S
C1475 C1474 1.394 . S
C1475 C1476 1.383 . S
C1475 H1483 0.929 . S
C1476 C1475 1.383 . S
C1476 C1477 1.377 . S
C1477 H1461 0.930 . S
C1477 C1476 1.377 . S
C1477 C1478 1.379 . S
C1478 H1462 0.931 . S
C1478 C1472 1.383 . S
C1478 C1477 1.379 . S
H1479 C1473 0.959 . S
H1480 C1473 0.961 . S
H1481 C1473 0.960 . S
H1482 C1474 0.930 . S
H1483 C1475 0.929 . S
H1484 C1492 0.929 . S
H1485 C1494 0.930 . S
H1486 C1496 0.930 . S
H1487 C1499 0.929 . S
H1488 C1502 0.930 . S
H1489 C1504 0.960 . S
H1490 C1504 0.960 . S
H1491 C1504 0.960 . S
C1492 H1484 0.929 . S
C1492 C1493 1.377 . S
C1492 C1494 1.384 . S
C1493 C1492 1.377 . S
C1493 C1499 1.390 . S
C1494 H1485 0.930 . S
C1494 C1492 1.384 . S
C1494 C1495 1.372 . S
C1495 C1494 1.372 . S
C1495 C1496 1.400 . S
C1495 C1500 1.490 . S
C1496 H1486 0.930 . S
C1496 C1495 1.400 . S
C1496 C1499 1.386 . S
H1497 C1513 0.930 . S
H1498 C1514 0.931 . S
C1499 H1487 0.929 . S
C1499 C1493 1.390 . S
C1499 C1496 1.386 . S
C1500 C1495 1.490 . S
C1500 C1502 1.395 . S
C1500 C1503 1.403 . S
H1501 C1507 0.930 . S
C1502 H1488 0.930 . S
C1502 C1500 1.395 . S
C1502 C1505 1.403 . S
C1503 C1500 1.403 . S
C1503 C1504 1.524 . S
C1503 C1507 1.400 . S
C1504 H1489 0.960 . S
C1504 H1490 0.960 . S
C1504 H1491 0.960 . S
C1504 C1503 1.524 . S
C1505 C1502 1.403 . S
C1505 C1506 1.392 . S
C1505 C1509 1.495 . S
C1506 C1505 1.392 . S
C1506 C1507 1.385 . S
C1506 C1508 1.478 . S
C1507 H1501 0.930 . S
C1507 C1503 1.400 . S
C1507 C1506 1.385 . S
C1508 C1506 1.478 . S
C1508 C1510 1.381 . S
C1508 C1514 1.383 . S
C1509 C1505 1.495 . S
C1509 H1515 0.959 . S
C1509 H1516 0.961 . S
C1509 H1517 0.960 . S
C1510 C1508 1.381 . S
C1510 C1511 1.394 . S
C1510 H1518 0.930 . S
C1511 C1510 1.394 . S
C1511 C1512 1.383 . S
C1511 H1519 0.929 . S
C1512 C1511 1.383 . S
C1512 C1513 1.377 . S
C1513 H1497 0.930 . S
C1513 C1512 1.377 . S
C1513 C1514 1.379 . S
C1514 H1498 0.931 . S
C1514 C1508 1.383 . S
C1514 C1513 1.379 . S
H1515 C1509 0.959 . S
H1516 C1509 0.961 . S
H1517 C1509 0.960 . S
H1518 C1510 0.930 . S
H1519 C1511 0.929 . S
H1520 C1528 0.929 . S
H1521 C1530 0.930 . S
H1522 C1532 0.930 . S
H1523 C1535 0.929 . S
H1524 C1538 0.924 1_655 S
H1525 C1540 0.960 . S
H1526 C1540 0.960 . S
H1527 C1540 0.960 . S
C1528 H1520 0.929 . S
C1528 C1529 1.377 . S
C1528 C1530 1.384 . S
C1529 C1528 1.377 . S
C1529 C1535 1.390 . S
C1530 H1521 0.930 . S
C1530 C1528 1.384 . S
C1530 C1531 1.372 . S
C1531 C1530 1.372 . S
C1531 C1532 1.400 . S
C1531 C1536 1.490 . S
C1532 H1522 0.930 . S
C1532 C1531 1.400 . S
C1532 C1535 1.386 . S
H1533 C1549 0.930 . S
H1534 C1550 0.931 . S
C1535 H1523 0.929 . S
C1535 C1529 1.390 . S
C1535 C1532 1.386 . S
C1536 C1531 1.490 . S
C1536 C1538 1.395 . S
C1536 C1539 1.403 . S
H1537 C1543 0.930 . S
C1538 H1524 0.924 1_455 S
C1538 C1536 1.395 . S
C1538 C1541 1.403 . S
C1539 C1536 1.403 . S
C1539 C1540 1.524 . S
C1539 C1543 1.400 . S
C1540 H1525 0.960 . S
C1540 H1526 0.960 . S
C1540 H1527 0.960 . S
C1540 C1539 1.524 . S
C1541 C1538 1.403 . S
C1541 C1542 1.392 . S
C1541 C1545 1.495 1_455 S
C1542 C1541 1.392 . S
C1542 C1543 1.385 . S
C1542 C1544 1.478 . S
C1543 H1537 0.930 . S
C1543 C1539 1.400 . S
C1543 C1542 1.385 . S
C1544 C1542 1.478 . S
C1544 C1546 1.381 . S
C1544 C1550 1.383 . S
C1545 C1541 1.495 1_655 S
C1545 H1551 0.959 . S
C1545 H1552 0.961 . S
C1545 H1553 0.960 . S
C1546 C1544 1.381 . S
C1546 C1547 1.394 . S
C1546 H1554 0.930 . S
C1547 C1546 1.394 . S
C1547 C1548 1.383 . S
C1547 H1555 0.929 . S
C1548 C1547 1.383 . S
C1548 C1549 1.377 . S
C1549 H1533 0.930 . S
C1549 C1548 1.377 . S
C1549 C1550 1.379 . S
C1550 H1534 0.931 . S
C1550 C1544 1.383 . S
C1550 C1549 1.379 . S
H1551 C1545 0.959 . S
H1552 C1545 0.961 . S
H1553 C1545 0.960 . S
H1554 C1546 0.930 . S
H1555 C1547 0.929 . S
H1556 C1564 0.929 . S
H1557 C1566 0.930 . S
H1558 C1568 0.930 . S
H1559 C1571 0.929 . S
H1560 C1574 0.930 . S
H1561 C1576 0.960 . S
H1562 C1576 0.960 . S
H1563 C1576 0.960 . S
C1564 H1556 0.929 . S
C1564 C1565 1.377 . S
C1564 C1566 1.384 . S
C1565 C1564 1.377 . S
C1565 C1571 1.390 . S
C1566 H1557 0.930 . S
C1566 C1564 1.384 . S
C1566 C1567 1.372 . S
C1567 C1566 1.372 . S
C1567 C1568 1.400 . S
C1567 C1572 1.490 . S
C1568 H1558 0.930 . S
C1568 C1567 1.400 . S
C1568 C1571 1.386 . S
H1569 C1585 0.930 . S
H1570 C1586 0.931 . S
C1571 H1559 0.929 . S
C1571 C1565 1.390 . S
C1571 C1568 1.386 . S
C1572 C1567 1.490 . S
C1572 C1574 1.395 . S
C1572 C1575 1.403 . S
H1573 C1579 0.930 . S
C1574 H1560 0.930 . S
C1574 C1572 1.395 . S
C1574 C1577 1.403 . S
C1575 C1572 1.403 . S
C1575 C1576 1.524 . S
C1575 C1579 1.400 . S
C1576 H1561 0.960 . S
C1576 H1562 0.960 . S
C1576 H1563 0.960 . S
C1576 C1575 1.524 . S
C1577 C1574 1.403 . S
C1577 C1578 1.392 . S
C1577 C1581 1.495 . S
C1578 C1577 1.392 . S
C1578 C1579 1.385 . S
C1578 C1580 1.478 . S
C1579 H1573 0.930 . S
C1579 C1575 1.400 . S
C1579 C1578 1.385 . S
C1580 C1578 1.478 . S
C1580 C1582 1.381 . S
C1580 C1586 1.383 . S
C1581 C1577 1.495 . S
C1581 H1587 0.959 . S
C1581 H1588 0.961 . S
C1581 H1589 0.960 . S
C1582 C1580 1.381 . S
C1582 C1583 1.394 . S
C1582 H1590 0.930 . S
C1583 C1582 1.394 . S
C1583 C1584 1.383 . S
C1583 H1591 0.929 . S
C1584 C1583 1.383 . S
C1584 C1585 1.377 . S
C1585 H1569 0.930 . S
C1585 C1584 1.377 . S
C1585 C1586 1.379 . S
C1586 H1570 0.931 . S
C1586 C1580 1.383 . S
C1586 C1585 1.379 . S
H1587 C1581 0.959 . S
H1588 C1581 0.961 . S
H1589 C1581 0.960 . S
H1590 C1582 0.930 . S
H1591 C1583 0.929 . S
H1592 C1600 0.929 . S
H1593 C1602 0.930 . S
H1594 C1604 0.930 . S
H1595 C1607 0.929 . S
H1596 C1610 0.930 . S
H1597 C1612 0.960 . S
H1598 C1612 0.960 . S
H1599 C1612 0.960 . S
C1600 H1592 0.929 . S
C1600 C1601 1.377 . S
C1600 C1602 1.384 . S
C1601 C1600 1.377 . S
C1601 C1607 1.390 . S
C1602 H1593 0.930 . S
C1602 C1600 1.384 . S
C1602 C1603 1.372 . S
C1603 C1602 1.372 . S
C1603 C1604 1.400 . S
C1603 C1608 1.490 . S
C1604 H1594 0.930 . S
C1604 C1603 1.400 . S
C1604 C1607 1.386 . S
H1605 C1621 0.930 . S
H1606 C1622 0.931 . S
C1607 H1595 0.929 . S
C1607 C1601 1.390 . S
C1607 C1604 1.386 . S
C1608 C1603 1.490 . S
C1608 C1610 1.395 . S
C1608 C1611 1.403 . S
H1609 C1615 0.930 . S
C1610 H1596 0.930 . S
C1610 C1608 1.395 . S
C1610 C1613 1.403 . S
C1611 C1608 1.403 . S
C1611 C1612 1.524 . S
C1611 C1615 1.400 . S
C1612 H1597 0.960 . S
C1612 H1598 0.960 . S
C1612 H1599 0.960 . S
C1612 C1611 1.524 . S
C1613 C1610 1.403 . S
C1613 C1614 1.392 . S
C1613 C1617 1.495 . S
C1614 C1613 1.392 . S
C1614 C1615 1.385 . S
C1614 C1616 1.478 . S
C1615 H1609 0.930 . S
C1615 C1611 1.400 . S
C1615 C1614 1.385 . S
C1616 C1614 1.478 . S
C1616 C1618 1.381 . S
C1616 C1622 1.383 . S
C1617 C1613 1.495 . S
C1617 H1623 0.959 . S
C1617 H1624 0.961 . S
C1617 H1625 0.960 . S
C1618 C1616 1.381 . S
C1618 C1619 1.394 . S
C1618 H1626 0.930 . S
C1619 C1618 1.394 . S
C1619 C1620 1.383 . S
C1619 H1627 0.929 . S
C1620 C1619 1.383 . S
C1620 C1621 1.377 . S
C1621 H1605 0.930 . S
C1621 C1620 1.377 . S
C1621 C1622 1.379 . S
C1622 H1606 0.931 . S
C1622 C1616 1.383 . S
C1622 C1621 1.379 . S
H1623 C1617 0.959 . S
H1624 C1617 0.961 . S
H1625 C1617 0.960 . S
H1626 C1618 0.930 . S
H1627 C1619 0.929 . S
H1628 C1636 0.929 . S
H1629 C1638 0.930 . S
H1630 C1640 0.930 . S
H1631 C1643 0.929 . S
H1632 C1646 0.930 . S
H1633 C1648 0.960 . S
H1634 C1648 0.960 . S
H1635 C1648 0.960 . S
C1636 H1628 0.929 . S
C1636 C1637 1.377 . S
C1636 C1638 1.384 . S
C1637 C1636 1.377 . S
C1637 C1643 1.390 . S
C1638 H1629 0.930 . S
C1638 C1636 1.384 . S
C1638 C1639 1.372 . S
C1639 C1638 1.372 . S
C1639 C1640 1.400 . S
C1639 C1644 1.490 . S
C1640 H1630 0.930 . S
C1640 C1639 1.400 . S
C1640 C1643 1.386 . S
H1641 C1657 0.930 . S
H1642 C1658 0.931 . S
C1643 H1631 0.929 . S
C1643 C1637 1.390 . S
C1643 C1640 1.386 . S
C1644 C1639 1.490 . S
C1644 C1646 1.395 . S
C1644 C1647 1.403 . S
H1645 C1651 0.930 . S
C1646 H1632 0.930 . S
C1646 C1644 1.395 . S
C1646 C1649 1.403 . S
C1647 C1644 1.403 . S
C1647 C1648 1.524 . S
C1647 C1651 1.400 . S
C1648 H1633 0.960 . S
C1648 H1634 0.960 . S
C1648 H1635 0.960 . S
C1648 C1647 1.524 . S
C1649 C1646 1.403 . S
C1649 C1650 1.392 . S
C1649 C1653 1.495 . S
C1650 C1649 1.392 . S
C1650 C1651 1.385 . S
C1650 C1652 1.478 . S
C1651 H1645 0.930 . S
C1651 C1647 1.400 . S
C1651 C1650 1.385 . S
C1652 C1650 1.478 . S
C1652 C1654 1.381 . S
C1652 C1658 1.383 . S
C1653 C1649 1.495 . S
C1653 H1659 0.959 . S
C1653 H1660 0.961 . S
C1653 H1661 0.960 . S
C1654 C1652 1.381 . S
C1654 C1655 1.394 . S
C1654 H1662 0.930 . S
C1655 C1654 1.394 . S
C1655 C1656 1.383 . S
C1655 H1663 0.929 . S
C1656 C1655 1.383 . S
C1656 C1657 1.377 . S
C1657 H1641 0.930 . S
C1657 C1656 1.377 . S
C1657 C1658 1.379 . S
C1658 H1642 0.931 . S
C1658 C1652 1.383 . S
C1658 C1657 1.379 . S
H1659 C1653 0.959 . S
H1660 C1653 0.961 . S
H1661 C1653 0.960 . S
H1662 C1654 0.930 . S
H1663 C1655 0.929 . S
H1664 C1672 0.929 . S
H1665 C1674 0.930 . S
H1666 C1676 0.930 . S
H1667 C1679 0.929 . S
H1668 C1682 0.930 . S
H1669 C1684 0.960 . S
H1670 C1684 0.960 1_655 S
H1671 C1684 0.960 . S
C1672 H1664 0.929 . S
C1672 C1673 1.377 1_655 S
C1672 C1674 1.384 . S
C1673 C1672 1.377 1_455 S
C1673 C1679 1.390 . S
C1674 H1665 0.930 . S
C1674 C1672 1.384 . S
C1674 C1675 1.372 1_655 S
C1675 C1674 1.372 1_455 S
C1675 C1676 1.400 . S
C1675 C1680 1.490 . S
C1676 H1666 0.930 . S
C1676 C1675 1.400 . S
C1676 C1679 1.386 . S
H1677 C1693 0.930 . S
H1678 C1694 0.931 . S
C1679 H1667 0.929 . S
C1679 C1673 1.390 . S
C1679 C1676 1.386 . S
C1680 C1675 1.490 . S
C1680 C1682 1.395 . S
C1680 C1683 1.403 . S
H1681 C1687 0.930 . S
C1682 H1668 0.930 . S
C1682 C1680 1.395 . S
C1682 C1685 1.403 . S
C1683 C1680 1.403 . S
C1683 C1684 1.524 . S
C1683 C1687 1.400 . S
C1684 H1669 0.960 . S
C1684 H1670 0.960 1_455 S
C1684 H1671 0.960 . S
C1684 C1683 1.524 . S
C1685 C1682 1.403 . S
C1685 C1686 1.392 . S
C1685 C1689 1.495 . S
C1686 C1685 1.392 . S
C1686 C1687 1.385 . S
C1686 C1688 1.478 . S
C1687 H1681 0.930 . S
C1687 C1683 1.400 . S
C1687 C1686 1.385 . S
C1688 C1686 1.478 . S
C1688 C1690 1.381 1_455 S
C1688 C1694 1.383 . S
C1689 C1685 1.495 . S
C1689 H1695 0.959 . S
C1689 H1696 0.961 . S
C1689 H1697 0.960 1_455 S
C1690 C1688 1.381 1_655 S
C1690 C1691 1.394 . S
C1690 H1698 0.930 . S
C1691 C1690 1.394 . S
C1691 C1692 1.383 1_655 S
C1691 H1699 0.929 . S
C1692 C1691 1.383 1_455 S
C1692 C1693 1.377 . S
C1693 H1677 0.930 . S
C1693 C1692 1.377 . S
C1693 C1694 1.379 . S
C1694 H1678 0.931 . S
C1694 C1688 1.383 . S
C1694 C1693 1.379 . S
H1695 C1689 0.959 . S
H1696 C1689 0.961 . S
H1697 C1689 0.960 1_655 S
H1698 C1690 0.930 . S
H1699 C1691 0.929 . S
H1700 C1708 0.929 . S
H1701 C1710 0.930 . S
H1702 C1712 0.930 . S
H1703 C1715 0.929 . S
H1704 C1718 0.930 . S
H1705 C1720 0.960 . S
H1706 C1720 0.960 . S
H1707 C1720 0.960 . S
C1708 H1700 0.929 . S
C1708 C1709 1.377 . S
C1708 C1710 1.384 . S
C1709 C1708 1.377 . S
C1709 C1715 1.390 . S
C1710 H1701 0.930 . S
C1710 C1708 1.384 . S
C1710 C1711 1.372 . S
C1711 C1710 1.372 . S
C1711 C1712 1.400 . S
C1711 C1716 1.490 . S
C1712 H1702 0.930 . S
C1712 C1711 1.400 . S
C1712 C1715 1.386 . S
H1713 C1729 0.930 . S
H1714 C1730 0.931 . S
C1715 H1703 0.929 . S
C1715 C1709 1.390 . S
C1715 C1712 1.386 . S
C1716 C1711 1.490 . S
C1716 C1718 1.395 . S
C1716 C1719 1.403 . S
H1717 C1723 0.930 . S
C1718 H1704 0.930 . S
C1718 C1716 1.395 . S
C1718 C1721 1.403 . S
C1719 C1716 1.403 . S
C1719 C1720 1.524 . S
C1719 C1723 1.400 . S
C1720 H1705 0.960 . S
C1720 H1706 0.960 . S
C1720 H1707 0.960 . S
C1720 C1719 1.524 . S
C1721 C1718 1.403 . S
C1721 C1722 1.392 . S
C1721 C1725 1.495 . S
C1722 C1721 1.392 . S
C1722 C1723 1.385 . S
C1722 C1724 1.478 . S
C1723 H1717 0.930 . S
C1723 C1719 1.400 . S
C1723 C1722 1.385 . S
C1724 C1722 1.478 . S
C1724 C1726 1.381 . S
C1724 C1730 1.383 . S
C1725 C1721 1.495 . S
C1725 H1731 0.959 . S
C1725 H1732 0.961 . S
C1725 H1733 0.960 . S
C1726 C1724 1.381 . S
C1726 C1727 1.394 . S
C1726 H1734 0.930 . S
C1727 C1726 1.394 . S
C1727 C1728 1.383 . S
C1727 H1735 0.929 . S
C1728 C1727 1.383 . S
C1728 C1729 1.377 . S
C1729 H1713 0.930 . S
C1729 C1728 1.377 . S
C1729 C1730 1.379 . S
C1730 H1714 0.931 . S
C1730 C1724 1.383 . S
C1730 C1729 1.379 . S
H1731 C1725 0.959 . S
H1732 C1725 0.961 . S
H1733 C1725 0.960 . S
H1734 C1726 0.930 . S
H1735 C1727 0.929 . S
H1736 C1744 0.929 . S
H1737 C1746 0.930 . S
H1738 C1748 0.930 . S
H1739 C1751 0.929 . S
H1740 C1754 0.930 . S
H1741 C1756 0.960 . S
H1742 C1756 0.960 . S
H1743 C1756 0.960 . S
C1744 H1736 0.929 . S
C1744 C1745 1.377 . S
C1744 C1746 1.384 . S
C1745 C1744 1.377 . S
C1745 C1751 1.390 . S
C1746 H1737 0.930 . S
C1746 C1744 1.384 . S
C1746 C1747 1.372 . S
C1747 C1746 1.372 . S
C1747 C1748 1.400 . S
C1747 C1752 1.490 . S
C1748 H1738 0.930 . S
C1748 C1747 1.400 . S
C1748 C1751 1.386 . S
H1749 C1765 0.930 . S
H1750 C1766 0.931 . S
C1751 H1739 0.929 . S
C1751 C1745 1.390 . S
C1751 C1748 1.386 . S
C1752 C1747 1.490 . S
C1752 C1754 1.395 . S
C1752 C1755 1.403 . S
H1753 C1759 0.930 . S
C1754 H1740 0.930 . S
C1754 C1752 1.395 . S
C1754 C1757 1.403 . S
C1755 C1752 1.403 . S
C1755 C1756 1.524 . S
C1755 C1759 1.400 . S
C1756 H1741 0.960 . S
C1756 H1742 0.960 . S
C1756 H1743 0.960 . S
C1756 C1755 1.524 . S
C1757 C1754 1.403 . S
C1757 C1758 1.392 . S
C1757 C1761 1.495 . S
C1758 C1757 1.392 . S
C1758 C1759 1.385 . S
C1758 C1760 1.478 . S
C1759 H1753 0.930 . S
C1759 C1755 1.400 . S
C1759 C1758 1.385 . S
C1760 C1758 1.478 . S
C1760 C1762 1.381 . S
C1760 C1766 1.383 . S
C1761 C1757 1.495 . S
C1761 H1767 0.959 . S
C1761 H1768 0.961 . S
C1761 H1769 0.960 . S
C1762 C1760 1.381 . S
C1762 C1763 1.394 . S
C1762 H1770 0.930 . S
C1763 C1762 1.394 . S
C1763 C1764 1.383 . S
C1763 H1771 0.929 . S
C1764 C1763 1.383 . S
C1764 C1765 1.377 1_556 S
C1765 H1749 0.930 . S
C1765 C1764 1.377 1_554 S
C1765 C1766 1.379 1_554 S
C1766 H1750 0.931 . S
C1766 C1760 1.383 . S
C1766 C1765 1.379 1_556 S
H1767 C1761 0.959 . S
H1768 C1761 0.961 . S
H1769 C1761 0.960 . S
H1770 C1762 0.930 . S
H1771 C1763 0.929 . S
H1772 C1780 0.929 . S
H1773 C1782 0.930 . S
H1774 C1784 0.930 . S
H1775 C1787 0.929 . S
H1776 C1790 0.930 . S
H1777 C1792 0.960 . S
H1778 C1792 0.960 . S
H1779 C1792 0.960 . S
C1780 H1772 0.929 . S
C1780 C1781 1.377 . S
C1780 C1782 1.384 . S
C1781 C1780 1.377 . S
C1781 C1787 1.390 . S
C1782 H1773 0.930 . S
C1782 C1780 1.384 . S
C1782 C1783 1.372 . S
C1783 C1782 1.372 . S
C1783 C1784 1.400 . S
C1783 C1788 1.490 . S
C1784 H1774 0.930 . S
C1784 C1783 1.400 . S
C1784 C1787 1.386 . S
H1785 C1801 0.930 . S
H1786 C1802 0.931 . S
C1787 H1775 0.929 . S
C1787 C1781 1.390 . S
C1787 C1784 1.386 . S
C1788 C1783 1.490 . S
C1788 C1790 1.395 . S
C1788 C1791 1.403 . S
H1789 C1795 0.930 . S
C1790 H1776 0.930 . S
C1790 C1788 1.395 . S
C1790 C1793 1.403 . S
C1791 C1788 1.403 . S
C1791 C1792 1.524 . S
C1791 C1795 1.400 . S
C1792 H1777 0.960 . S
C1792 H1778 0.960 . S
C1792 H1779 0.960 . S
C1792 C1791 1.524 . S
C1793 C1790 1.403 . S
C1793 C1794 1.392 . S
C1793 C1797 1.495 . S
C1794 C1793 1.392 . S
C1794 C1795 1.385 . S
C1794 C1796 1.478 . S
C1795 H1789 0.930 . S
C1795 C1791 1.400 . S
C1795 C1794 1.385 . S
C1796 C1794 1.478 . S
C1796 C1798 1.381 . S
C1796 C1802 1.383 . S
C1797 C1793 1.495 . S
C1797 H1803 0.959 . S
C1797 H1804 0.961 . S
C1797 H1805 0.960 . S
C1798 C1796 1.381 . S
C1798 C1799 1.394 . S
C1798 H1806 0.930 . S
C1799 C1798 1.394 . S
C1799 C1800 1.383 . S
C1799 H1807 0.929 . S
C1800 C1799 1.383 . S
C1800 C1801 1.377 . S
C1801 H1785 0.930 . S
C1801 C1800 1.377 . S
C1801 C1802 1.379 . S
C1802 H1786 0.931 . S
C1802 C1796 1.383 . S
C1802 C1801 1.379 . S
H1803 C1797 0.959 . S
H1804 C1797 0.961 . S
H1805 C1797 0.960 . S
H1806 C1798 0.930 . S
H1807 C1799 0.929 . S
H1808 C1816 0.929 . S
H1809 C1818 0.930 . S
H1810 C1820 0.930 . S
H1811 C1823 0.929 . S
H1812 C1826 0.930 . S
H1813 C1828 0.960 . S
H1814 C1828 0.960 . S
H1815 C1828 0.960 1_565 S
C1816 H1808 0.929 . S
C1816 C1817 1.377 . S
C1816 C1818 1.384 . S
C1817 C1816 1.377 . S
C1817 C1823 1.390 1_545 S
C1818 H1809 0.930 . S
C1818 C1816 1.384 . S
C1818 C1819 1.372 . S
C1819 C1818 1.372 . S
C1819 C1820 1.400 1_545 S
C1819 C1824 1.490 . S
C1820 H1810 0.930 . S
C1820 C1819 1.400 1_565 S
C1820 C1823 1.386 . S
H1821 C1837 0.930 . S
H1822 C1838 0.931 . S
C1823 H1811 0.929 . S
C1823 C1817 1.390 1_565 S
C1823 C1820 1.386 . S
C1824 C1819 1.490 . S
C1824 C1826 1.395 . S
C1824 C1827 1.403 . S
H1825 C1831 0.930 . S
C1826 H1812 0.930 . S
C1826 C1824 1.395 . S
C1826 C1829 1.403 . S
C1827 C1824 1.403 . S
C1827 C1828 1.524 . S
C1827 C1831 1.400 . S
C1828 H1813 0.960 . S
C1828 H1814 0.960 . S
C1828 H1815 0.960 1_545 S
C1828 C1827 1.524 . S
C1829 C1826 1.403 . S
C1829 C1830 1.392 . S
C1829 C1833 1.495 . S
C1830 C1829 1.392 . S
C1830 C1831 1.385 . S
C1830 C1832 1.478 . S
C1831 H1825 0.930 . S
C1831 C1827 1.400 . S
C1831 C1830 1.385 . S
C1832 C1830 1.478 . S
C1832 C1834 1.381 . S
C1832 C1838 1.383 1_545 S
C1833 C1829 1.495 . S
C1833 H1839 0.959 . S
C1833 H1840 0.919 1_545 S
C1833 H1841 0.960 . S
C1834 C1832 1.381 . S
C1834 C1835 1.394 . S
C1834 H1842 0.930 . S
C1835 C1834 1.394 . S
C1835 C1836 1.383 . S
C1835 H1843 0.929 . S
C1836 C1835 1.383 . S
C1836 C1837 1.377 1_545 S
C1837 H1821 0.930 . S
C1837 C1836 1.377 1_565 S
C1837 C1838 1.379 . S
C1838 H1822 0.931 . S
C1838 C1832 1.383 1_565 S
C1838 C1837 1.379 . S
H1839 C1833 0.959 . S
H1840 C1833 0.919 1_565 S
H1841 C1833 0.960 . S
H1842 C1834 0.930 . S
H1843 C1835 0.929 . S
H1844 C1852 0.929 . S
H1845 C1854 0.930 . S
H1846 C1856 0.930 . S
H1847 C1859 0.929 . S
H1848 C1862 0.930 . S
H1849 C1864 0.960 . S
H1850 C1864 0.960 . S
H1851 C1864 0.960 . S
C1852 H1844 0.929 . S
C1852 C1853 1.377 . S
C1852 C1854 1.384 . S
C1853 C1852 1.377 . S
C1853 C1859 1.390 . S
C1854 H1845 0.930 . S
C1854 C1852 1.384 . S
C1854 C1855 1.372 . S
C1855 C1854 1.372 . S
C1855 C1856 1.400 . S
C1855 C1860 1.490 . S
C1856 H1846 0.930 . S
C1856 C1855 1.400 . S
C1856 C1859 1.386 . S
H1857 C1873 0.930 . S
H1858 C1874 0.931 . S
C1859 H1847 0.929 . S
C1859 C1853 1.390 . S
C1859 C1856 1.386 . S
C1860 C1855 1.490 . S
C1860 C1862 1.395 . S
C1860 C1863 1.403 . S
H1861 C1867 0.930 . S
C1862 H1848 0.930 . S
C1862 C1860 1.395 . S
C1862 C1865 1.403 . S
C1863 C1860 1.403 . S
C1863 C1864 1.524 . S
C1863 C1867 1.400 . S
C1864 H1849 0.960 . S
C1864 H1850 0.960 . S
C1864 H1851 0.960 . S
C1864 C1863 1.524 . S
C1865 C1862 1.403 . S
C1865 C1866 1.392 . S
C1865 C1869 1.495 . S
C1866 C1865 1.392 . S
C1866 C1867 1.385 . S
C1866 C1868 1.478 . S
C1867 H1861 0.930 . S
C1867 C1863 1.400 . S
C1867 C1866 1.385 . S
C1868 C1866 1.478 . S
C1868 C1870 1.381 . S
C1868 C1874 1.383 . S
C1869 C1865 1.495 . S
C1869 H1875 0.959 . S
C1869 H1876 0.961 . S
C1869 H1877 0.960 . S
C1870 C1868 1.381 . S
C1870 C1871 1.394 . S
C1870 H1878 0.930 . S
C1871 C1870 1.394 . S
C1871 C1872 1.383 . S
C1871 H1879 0.929 . S
C1872 C1871 1.383 . S
C1872 C1873 1.377 . S
C1873 H1857 0.930 . S
C1873 C1872 1.377 . S
C1873 C1874 1.379 . S
C1874 H1858 0.931 . S
C1874 C1868 1.383 . S
C1874 C1873 1.379 . S
H1875 C1869 0.959 . S
H1876 C1869 0.961 . S
H1877 C1869 0.960 . S
H1878 C1870 0.930 . S
H1879 C1871 0.929 . S
H1880 C1888 0.929 . S
H1881 C1890 0.930 . S
H1882 C1892 0.930 . S
H1883 C1895 0.929 . S
H1884 C1898 0.930 . S
H1885 C1900 0.960 . S
H1886 C1900 0.960 . S
H1887 C1900 0.960 . S
C1888 H1880 0.929 . S
C1888 C1889 1.377 . S
C1888 C1890 1.384 . S
C1889 C1888 1.377 . S
C1889 C1895 1.390 . S
C1890 H1881 0.930 . S
C1890 C1888 1.384 . S
C1890 C1891 1.372 . S
C1891 C1890 1.372 . S
C1891 C1892 1.400 . S
C1891 C1896 1.490 . S
C1892 H1882 0.930 . S
C1892 C1891 1.400 . S
C1892 C1895 1.386 . S
H1893 C1909 0.963 . S
H1894 C1910 0.944 . S
C1895 H1883 0.929 . S
C1895 C1889 1.390 . S
C1895 C1892 1.386 . S
C1896 C1891 1.490 . S
C1896 C1898 1.395 . S
C1896 C1899 1.403 . S
H1897 C1903 0.930 . S
C1898 H1884 0.930 . S
C1898 C1896 1.395 . S
C1898 C1901 1.403 . S
C1899 C1896 1.403 . S
C1899 C1900 1.524 . S
C1899 C1903 1.400 . S
C1900 H1885 0.960 . S
C1900 H1886 0.960 . S
C1900 H1887 0.960 . S
C1900 C1899 1.524 . S
C1901 C1898 1.403 . S
C1901 C1902 1.392 . S
C1901 C1905 1.495 . S
C1902 C1901 1.392 . S
C1902 C1903 1.385 . S
C1902 C1904 1.478 . S
C1903 H1897 0.930 . S
C1903 C1899 1.400 . S
C1903 C1902 1.385 . S
C1904 C1902 1.478 . S
C1904 C1906 1.381 . S
C1904 C1910 1.383 . S
C1905 C1901 1.495 . S
C1905 H1911 0.959 . S
C1905 H1912 0.961 . S
C1905 H1913 0.960 . S
C1906 C1904 1.381 . S
C1906 C1907 1.394 . S
C1906 H1914 0.930 . S
C1907 C1906 1.394 . S
C1907 C1908 1.383 . S
C1907 H1915 0.929 . S
C1908 C1907 1.383 . S
C1908 C1909 1.377 . S
C1909 H1893 0.963 . S
C1909 C1908 1.377 . S
C1909 C1910 1.379 . S
C1910 H1894 0.944 . S
C1910 C1904 1.383 . S
C1910 C1909 1.379 . S
H1911 C1905 0.959 . S
H1912 C1905 0.961 . S
H1913 C1905 0.960 . S
H1914 C1906 0.930 . S
H1915 C1907 0.929 . S
H1916 C1924 0.929 . S
H1917 C1926 0.930 . S
H1918 C1928 0.930 . S
H1919 C1931 0.929 . S
H1920 C1934 0.930 . S
H1921 C1936 0.960 . S
H1922 C1936 0.960 . S
H1923 C1936 0.960 . S
C1924 H1916 0.929 . S
C1924 C1925 1.377 . S
C1924 C1926 1.384 . S
C1925 C1924 1.377 . S
C1925 C1931 1.390 . S
C1926 H1917 0.930 . S
C1926 C1924 1.384 . S
C1926 C1927 1.372 . S
C1927 C1926 1.372 . S
C1927 C1928 1.400 . S
C1927 C1932 1.490 . S
C1928 H1918 0.930 . S
C1928 C1927 1.400 . S
C1928 C1931 1.386 . S
H1929 C1945 0.930 . S
H1930 C1946 0.931 . S
C1931 H1919 0.929 . S
C1931 C1925 1.390 . S
C1931 C1928 1.386 . S
C1932 C1927 1.490 . S
C1932 C1934 1.395 . S
C1932 C1935 1.403 . S
H1933 C1939 0.930 . S
C1934 H1920 0.930 . S
C1934 C1932 1.395 . S
C1934 C1937 1.403 . S
C1935 C1932 1.403 . S
C1935 C1936 1.524 . S
C1935 C1939 1.400 . S
C1936 H1921 0.960 . S
C1936 H1922 0.960 . S
C1936 H1923 0.960 . S
C1936 C1935 1.524 . S
C1937 C1934 1.403 . S
C1937 C1938 1.392 . S
C1937 C1941 1.495 . S
C1938 C1937 1.392 . S
C1938 C1939 1.385 . S
C1938 C1940 1.478 . S
C1939 H1933 0.930 . S
C1939 C1935 1.400 . S
C1939 C1938 1.385 . S
C1940 C1938 1.478 . S
C1940 C1942 1.381 . S
C1940 C1946 1.383 . S
C1941 C1937 1.495 . S
C1941 H1947 0.959 . S
C1941 H1948 0.961 . S
C1941 H1949 0.960 . S
C1942 C1940 1.381 . S
C1942 C1943 1.394 . S
C1942 H1950 0.930 . S
C1943 C1942 1.394 . S
C1943 C1944 1.383 . S
C1943 H1951 0.929 . S
C1944 C1943 1.383 . S
C1944 C1945 1.377 . S
C1945 H1929 0.930 . S
C1945 C1944 1.377 . S
C1945 C1946 1.379 . S
C1946 H1930 0.931 . S
C1946 C1940 1.383 . S
C1946 C1945 1.379 . S
H1947 C1941 0.959 . S
H1948 C1941 0.961 . S
H1949 C1941 0.960 . S
H1950 C1942 0.930 . S
H1951 C1943 0.929 . S
H1952 C1960 0.929 . S
H1953 C1962 0.930 . S
H1954 C1964 0.930 . S
H1955 C1967 0.929 . S
H1956 C1970 0.930 . S
H1957 C1972 0.960 . S
H1958 C1972 0.960 . S
H1959 C1972 0.960 . S
C1960 H1952 0.929 . S
C1960 C1961 1.377 1_545 S
C1960 C1962 1.384 . S
C1961 C1960 1.377 1_565 S
C1961 C1967 1.390 . S
C1962 H1953 0.930 . S
C1962 C1960 1.384 . S
C1962 C1963 1.372 . S
C1963 C1962 1.372 . S
C1963 C1964 1.400 1_545 S
C1963 C1968 1.490 . S
C1964 H1954 0.930 . S
C1964 C1963 1.400 1_565 S
C1964 C1967 1.386 . S
H1965 C1981 0.930 . S
H1966 C1982 0.931 1_565 S
C1967 H1955 0.929 . S
C1967 C1961 1.390 . S
C1967 C1964 1.386 . S
C1968 C1963 1.490 . S
C1968 C1970 1.395 1_545 S
C1968 C1971 1.403 . S
H1969 C1975 0.930 . S
C1970 H1956 0.930 . S
C1970 C1968 1.395 1_565 S
C1970 C1973 1.403 . S
C1971 C1968 1.403 . S
C1971 C1972 1.524 . S
C1971 C1975 1.400 . S
C1972 H1957 0.960 . S
C1972 H1958 0.960 . S
C1972 H1959 0.960 . S
C1972 C1971 1.524 . S
C1973 C1970 1.403 . S
C1973 C1974 1.392 1_565 S
C1973 C1977 1.495 . S
C1974 C1973 1.392 1_545 S
C1974 C1975 1.385 . S
C1974 C1976 1.478 . S
C1975 H1969 0.930 . S
C1975 C1971 1.400 . S
C1975 C1974 1.385 . S
C1976 C1974 1.478 . S
C1976 C1978 1.381 . S
C1976 C1982 1.383 . S
C1977 C1973 1.495 . S
C1977 H1983 0.959 . S
C1977 H1984 0.961 . S
C1977 H1985 0.960 . S
C1978 C1976 1.381 . S
C1978 C1979 1.394 . S
C1978 H1986 0.930 . S
C1979 C1978 1.394 . S
C1979 C1980 1.383 . S
C1979 H1987 0.929 . S
C1980 C1979 1.383 . S
C1980 C1981 1.377 . S
C1981 H1965 0.930 . S
C1981 C1980 1.377 . S
C1981 C1982 1.379 . S
C1982 H1966 0.931 1_545 S
C1982 C1976 1.383 . S
C1982 C1981 1.379 . S
H1983 C1977 0.959 . S
H1984 C1977 0.961 . S
H1985 C1977 0.960 . S
H1986 C1978 0.930 . S
H1987 C1979 0.929 . S
H1988 C1996 0.929 . S
H1989 C1998 0.930 . S
H1990 C2000 0.930 . S
H1991 C2003 0.929 . S
H1992 C2006 0.930 . S
H1993 C2008 0.960 . S
H1994 C2008 0.960 . S
H1995 C2008 0.960 . S
C1996 H1988 0.929 . S
C1996 C1997 1.377 . S
C1996 C1998 1.384 . S
C1997 C1996 1.377 . S
C1997 C2003 1.390 . S
C1998 H1989 0.930 . S
C1998 C1996 1.384 . S
C1998 C1999 1.372 . S
C1999 C1998 1.372 . S
C1999 C2000 1.400 . S
C1999 C2004 1.490 . S
C2000 H1990 0.930 . S
C2000 C1999 1.400 . S
C2000 C2003 1.386 . S
H2001 C2017 0.930 . S
H2002 C2018 0.931 . S
C2003 H1991 0.929 . S
C2003 C1997 1.390 . S
C2003 C2000 1.386 . S
C2004 C1999 1.490 . S
C2004 C2006 1.395 . S
C2004 C2007 1.403 . S
H2005 C2011 0.930 . S
C2006 H1992 0.930 . S
C2006 C2004 1.395 . S
C2006 C2009 1.403 . S
C2007 C2004 1.403 . S
C2007 C2008 1.524 . S
C2007 C2011 1.400 . S
C2008 H1993 0.960 . S
C2008 H1994 0.960 . S
C2008 H1995 0.960 . S
C2008 C2007 1.524 . S
C2009 C2006 1.403 . S
C2009 C2010 1.392 . S
C2009 C2013 1.495 . S
C2010 C2009 1.392 . S
C2010 C2011 1.385 . S
C2010 C2012 1.478 . S
C2011 H2005 0.930 . S
C2011 C2007 1.400 . S
C2011 C2010 1.385 . S
C2012 C2010 1.478 . S
C2012 C2014 1.381 . S
C2012 C2018 1.383 . S
C2013 C2009 1.495 . S
C2013 H2019 0.959 . S
C2013 H2020 0.961 . S
C2013 H2021 0.960 . S
C2014 C2012 1.381 . S
C2014 C2015 1.394 . S
C2014 H2022 0.930 . S
C2015 C2014 1.394 . S
C2015 C2016 1.383 . S
C2015 H2023 0.929 . S
C2016 C2015 1.383 . S
C2016 C2017 1.377 . S
C2017 H2001 0.930 . S
C2017 C2016 1.377 . S
C2017 C2018 1.379 . S
C2018 H2002 0.931 . S
C2018 C2012 1.383 . S
C2018 C2017 1.379 . S
H2019 C2013 0.959 . S
H2020 C2013 0.961 . S
H2021 C2013 0.960 . S
H2022 C2014 0.930 . S
H2023 C2015 0.929 . S
H2024 C2032 0.929 1_565 S
H2025 C2034 0.930 1_565 S
H2026 C2036 0.930 . S
H2027 C2039 0.929 . S
H2028 C2042 0.930 1_565 S
H2029 C2044 0.960 . S
H2030 C2044 0.960 . S
H2031 C2044 0.960 . S
C2032 H2024 0.929 1_545 S
C2032 C2033 1.377 . S
C2032 C2034 1.384 . S
C2033 C2032 1.377 . S
C2033 C2039 1.390 . S
C2034 H2025 0.930 1_545 S
C2034 C2032 1.384 . S
C2034 C2035 1.372 . S
C2035 C2034 1.372 . S
C2035 C2036 1.400 . S
C2035 C2040 1.490 . S
C2036 H2026 0.930 . S
C2036 C2035 1.400 . S
C2036 C2039 1.386 . S
H2037 C2053 0.930 . S
H2038 C2054 0.931 . S
C2039 H2027 0.929 . S
C2039 C2033 1.390 . S
C2039 C2036 1.386 . S
C2040 C2035 1.490 . S
C2040 C2042 1.395 . S
C2040 C2043 1.403 . S
H2041 C2047 0.930 . S
C2042 H2028 0.930 1_545 S
C2042 C2040 1.395 . S
C2042 C2045 1.403 . S
C2043 C2040 1.403 . S
C2043 C2044 1.524 . S
C2043 C2047 1.400 . S
C2044 H2029 0.960 . S
C2044 H2030 0.960 . S
C2044 H2031 0.960 . S
C2044 C2043 1.524 . S
C2045 C2042 1.403 . S
C2045 C2046 1.392 . S
C2045 C2049 1.495 1_545 S
C2046 C2045 1.392 . S
C2046 C2047 1.385 . S
C2046 C2048 1.478 . S
C2047 H2041 0.930 . S
C2047 C2043 1.400 . S
C2047 C2046 1.385 . S
C2048 C2046 1.478 . S
C2048 C2050 1.381 1_545 S
C2048 C2054 1.383 . S
C2049 C2045 1.495 1_565 S
C2049 H2055 0.959 . S
C2049 H2056 0.961 . S
C2049 H2057 0.960 . S
C2050 C2048 1.381 1_565 S
C2050 C2051 1.394 . S
C2050 H2058 0.930 . S
C2051 C2050 1.394 . S
C2051 C2052 1.383 1_565 S
C2051 H2059 0.929 . S
C2052 C2051 1.383 1_545 S
C2052 C2053 1.377 . S
C2053 H2037 0.930 . S
C2053 C2052 1.377 . S
C2053 C2054 1.379 . S
C2054 H2038 0.931 . S
C2054 C2048 1.383 . S
C2054 C2053 1.379 . S
H2055 C2049 0.959 . S
H2056 C2049 0.961 . S
H2057 C2049 0.960 . S
H2058 C2050 0.930 . S
H2059 C2051 0.929 . S
H2060 C2068 0.929 . S
H2061 C2070 0.930 . S
H2062 C2072 0.930 . S
H2063 C2075 0.929 . S
H2064 C2078 0.930 . S
H2065 C2080 0.960 . S
H2066 C2080 0.960 . S
H2067 C2080 0.960 . S
C2068 H2060 0.929 . S
C2068 C2069 1.377 . S
C2068 C2070 1.384 . S
C2069 C2068 1.377 . S
C2069 C2075 1.390 . S
C2070 H2061 0.930 . S
C2070 C2068 1.384 . S
C2070 C2071 1.372 . S
C2071 C2070 1.372 . S
C2071 C2072 1.400 . S
C2071 C2076 1.490 . S
C2072 H2062 0.930 . S
C2072 C2071 1.400 . S
C2072 C2075 1.386 . S
H2073 C2089 0.930 . S
H2074 C2090 0.931 . S
C2075 H2063 0.929 . S
C2075 C2069 1.390 . S
C2075 C2072 1.386 . S
C2076 C2071 1.490 . S
C2076 C2078 1.395 . S
C2076 C2079 1.403 . S
H2077 C2083 0.930 . S
C2078 H2064 0.930 . S
C2078 C2076 1.395 . S
C2078 C2081 1.403 . S
C2079 C2076 1.403 . S
C2079 C2080 1.524 . S
C2079 C2083 1.400 . S
C2080 H2065 0.960 . S
C2080 H2066 0.960 . S
C2080 H2067 0.960 . S
C2080 C2079 1.524 . S
C2081 C2078 1.403 . S
C2081 C2082 1.392 . S
C2081 C2085 1.495 . S
C2082 C2081 1.392 . S
C2082 C2083 1.385 . S
C2082 C2084 1.478 . S
C2083 H2077 0.930 . S
C2083 C2079 1.400 . S
C2083 C2082 1.385 . S
C2084 C2082 1.478 . S
C2084 C2086 1.381 . S
C2084 C2090 1.383 . S
C2085 C2081 1.495 . S
C2085 H2091 0.959 . S
C2085 H2092 0.961 . S
C2085 H2093 0.960 . S
C2086 C2084 1.381 . S
C2086 C2087 1.394 . S
C2086 H2094 0.930 . S
C2087 C2086 1.394 . S
C2087 C2088 1.383 . S
C2087 H2095 0.929 . S
C2088 C2087 1.383 . S
C2088 C2089 1.377 . S
C2089 H2073 0.930 . S
C2089 C2088 1.377 . S
C2089 C2090 1.379 . S
C2090 H2074 0.931 . S
C2090 C2084 1.383 . S
C2090 C2089 1.379 . S
H2091 C2085 0.959 . S
H2092 C2085 0.961 . S
H2093 C2085 0.960 . S
H2094 C2086 0.930 . S
H2095 C2087 0.929 . S
H2096 C2104 0.929 . S
H2097 C2106 0.930 . S
H2098 C2108 0.930 . S
H2099 C2111 0.929 . S
H2100 C2114 0.930 . S
H2101 C2116 0.960 . S
H2102 C2116 0.960 . S
H2103 C2116 0.960 . S
C2104 H2096 0.929 . S
C2104 C2105 1.361 1_556 S
C2104 C2106 1.384 . S
C2105 C2104 1.361 1_554 S
C2105 C2111 1.405 . S
C2106 H2097 0.930 . S
C2106 C2104 1.384 . S
C2106 C2107 1.391 . S
C2107 C2106 1.391 . S
C2107 C2108 1.382 1_556 S
C2107 C2112 1.492 . S
C2108 H2098 0.930 . S
C2108 C2107 1.382 1_554 S
C2108 C2111 1.386 . S
H2109 C2125 0.930 . S
H2110 C2126 0.931 . S
C2111 H2099 0.929 . S
C2111 C2105 1.405 . S
C2111 C2108 1.386 . S
C2112 C2107 1.492 . S
C2112 C2114 1.395 1_556 S
C2112 C2115 1.403 . S
H2113 C2119 0.930 . S
C2114 H2100 0.930 . S
C2114 C2112 1.395 1_554 S
C2114 C2117 1.403 . S
C2115 C2112 1.403 . S
C2115 C2116 1.524 . S
C2115 C2119 1.400 . S
C2116 H2101 0.960 . S
C2116 H2102 0.960 . S
C2116 H2103 0.960 . S
C2116 C2115 1.524 . S
C2117 C2114 1.403 . S
C2117 C2118 1.378 1_554 S
C2117 C2121 1.495 . S
C2118 C2117 1.378 1_556 S
C2118 C2119 1.400 . S
C2118 C2120 1.478 . S
C2119 H2113 0.930 . S
C2119 C2115 1.400 . S
C2119 C2118 1.400 . S
C2120 C2118 1.478 . S
C2120 C2122 1.406 . S
C2120 C2126 1.363 1_556 S
C2121 C2117 1.495 . S
C2121 H2127 0.959 . S
C2121 H2128 0.961 . S
C2121 H2129 0.960 . S
C2122 C2120 1.406 . S
C2122 C2123 1.394 . S
C2122 H2130 0.930 . S
C2123 C2122 1.394 . S
C2123 C2124 1.383 . S
C2123 H2131 0.929 . S
C2124 C2123 1.383 . S
C2124 C2125 1.377 1_556 S
C2125 H2109 0.930 . S
C2125 C2124 1.377 1_554 S
C2125 C2126 1.379 . S
C2126 H2110 0.931 . S
C2126 C2120 1.363 1_554 S
C2126 C2125 1.379 . S
H2127 C2121 0.959 . S
H2128 C2121 0.961 . S
H2129 C2121 0.960 . S
H2130 C2122 0.930 . S
H2131 C2123 0.929 . S
H2132 C2140 0.929 . S
H2133 C2142 0.930 . S
H2134 C2144 0.911 1_556 S
H2135 C2147 0.932 . S
H2136 C2150 0.930 . S
H2137 C2152 0.960 . S
H2138 C2152 0.960 . S
H2139 C2152 0.960 1_556 S
C2140 H2132 0.929 . S
C2140 C2141 1.377 . S
C2140 C2142 1.384 . S
C2141 C2140 1.377 . S
C2141 C2147 1.387 1_554 S
C2142 H2133 0.930 . S
C2142 C2140 1.384 . S
C2142 C2143 1.372 . S
C2143 C2142 1.372 . S
C2143 C2144 1.416 . S
C2143 C2148 1.490 . S
C2144 H2134 0.911 1_554 S
C2144 C2143 1.416 . S
C2144 C2147 1.388 1_554 S
H2145 C2161 0.918 1_556 S
H2146 C2162 0.900 1_556 S
C2147 H2135 0.932 . S
C2147 C2141 1.387 1_556 S
C2147 C2144 1.388 1_556 S
C2148 C2143 1.490 . S
C2148 C2150 1.395 . S
C2148 C2151 1.403 . S
H2149 C2155 0.930 . S
C2150 H2136 0.930 . S
C2150 C2148 1.395 . S
C2150 C2153 1.403 . S
C2151 C2148 1.403 . S
C2151 C2152 1.524 . S
C2151 C2155 1.400 . S
C2152 H2137 0.960 . S
C2152 H2138 0.960 . S
C2152 H2139 0.960 1_554 S
C2152 C2151 1.524 . S
C2153 C2150 1.403 . S
C2153 C2154 1.392 . S
C2153 C2157 1.495 . S
C2154 C2153 1.392 . S
C2154 C2155 1.385 . S
C2154 C2156 1.478 . S
C2155 H2149 0.930 . S
C2155 C2151 1.400 . S
C2155 C2154 1.385 . S
C2156 C2154 1.478 . S
C2156 C2158 1.381 . S
C2156 C2162 1.419 . S
C2157 C2153 1.495 . S
C2157 H2163 0.959 . S
C2157 H2164 0.961 . S
C2157 H2165 0.960 . S
C2158 C2156 1.381 . S
C2158 C2159 1.394 . S
C2158 H2166 0.930 . S
C2159 C2158 1.394 . S
C2159 C2160 1.383 . S
C2159 H2167 0.929 . S
C2160 C2159 1.383 . S
C2160 C2161 1.387 . S
C2161 H2145 0.918 1_554 S
C2161 C2160 1.387 . S
C2161 C2162 1.376 . S
C2162 H2146 0.900 1_554 S
C2162 C2156 1.419 . S
C2162 C2161 1.376 . S
H2163 C2157 0.959 . S
H2164 C2157 0.961 . S
H2165 C2157 0.960 . S
H2166 C2158 0.930 . S
H2167 C2159 0.929 . S
H2168 C2176 0.929 . S
H2169 C2178 0.930 . S
H2170 C2180 0.930 . S
H2171 C2183 0.929 . S
H2172 C2186 0.930 . S
H2173 C2188 0.960 . S
H2174 C2188 0.960 . S
H2175 C2188 0.960 . S
C2176 H2168 0.929 . S
C2176 C2177 1.377 . S
C2176 C2178 1.384 . S
C2177 C2176 1.377 . S
C2177 C2183 1.390 . S
C2178 H2169 0.930 . S
C2178 C2176 1.384 . S
C2178 C2179 1.372 . S
C2179 C2178 1.372 . S
C2179 C2180 1.400 . S
C2179 C2184 1.490 . S
C2180 H2170 0.930 . S
C2180 C2179 1.400 . S
C2180 C2183 1.386 . S
H2181 C2197 0.930 . S
H2182 C2198 0.931 . S
C2183 H2171 0.929 . S
C2183 C2177 1.390 . S
C2183 C2180 1.386 . S
C2184 C2179 1.490 . S
C2184 C2186 1.395 . S
C2184 C2187 1.403 . S
H2185 C2191 0.930 . S
C2186 H2172 0.930 . S
C2186 C2184 1.395 . S
C2186 C2189 1.403 . S
C2187 C2184 1.403 . S
C2187 C2188 1.524 . S
C2187 C2191 1.400 . S
C2188 H2173 0.960 . S
C2188 H2174 0.960 . S
C2188 H2175 0.960 . S
C2188 C2187 1.524 . S
C2189 C2186 1.403 . S
C2189 C2190 1.392 . S
C2189 C2193 1.495 . S
C2190 C2189 1.392 . S
C2190 C2191 1.385 . S
C2190 C2192 1.478 . S
C2191 H2185 0.930 . S
C2191 C2187 1.400 . S
C2191 C2190 1.385 . S
C2192 C2190 1.478 . S
C2192 C2194 1.381 . S
C2192 C2198 1.383 . S
C2193 C2189 1.495 . S
C2193 H2199 0.959 . S
C2193 H2200 0.961 . S
C2193 H2201 0.960 . S
C2194 C2192 1.381 . S
C2194 C2195 1.394 . S
C2194 H2202 0.930 . S
C2195 C2194 1.394 . S
C2195 C2196 1.383 . S
C2195 H2203 0.929 . S
C2196 C2195 1.383 . S
C2196 C2197 1.377 . S
C2197 H2181 0.930 . S
C2197 C2196 1.377 . S
C2197 C2198 1.379 . S
C2198 H2182 0.931 . S
C2198 C2192 1.383 . S
C2198 C2197 1.379 . S
H2199 C2193 0.959 . S
H2200 C2193 0.961 . S
H2201 C2193 0.960 . S
H2202 C2194 0.930 . S
H2203 C2195 0.929 . S
H2204 C2212 0.929 . S
H2205 C2214 0.930 . S
H2206 C2216 0.930 . S
H2207 C2219 0.929 . S
H2208 C2222 0.930 . S
H2209 C2224 0.960 . S
H2210 C2224 0.960 . S
H2211 C2224 0.960 . S
C2212 H2204 0.929 . S
C2212 C2213 1.377 . S
C2212 C2214 1.384 . S
C2213 C2212 1.377 . S
C2213 C2219 1.390 . S
C2214 H2205 0.930 . S
C2214 C2212 1.384 . S
C2214 C2215 1.372 . S
C2215 C2214 1.372 . S
C2215 C2216 1.400 . S
C2215 C2220 1.490 . S
C2216 H2206 0.930 . S
C2216 C2215 1.400 . S
C2216 C2219 1.386 . S
H2217 C2233 0.930 . S
H2218 C2234 0.931 . S
C2219 H2207 0.929 . S
C2219 C2213 1.390 . S
C2219 C2216 1.386 . S
C2220 C2215 1.490 . S
C2220 C2222 1.395 . S
C2220 C2223 1.403 . S
H2221 C2227 0.930 . S
C2222 H2208 0.930 . S
C2222 C2220 1.395 . S
C2222 C2225 1.403 . S
C2223 C2220 1.403 . S
C2223 C2224 1.524 . S
C2223 C2227 1.400 . S
C2224 H2209 0.960 . S
C2224 H2210 0.960 . S
C2224 H2211 0.960 . S
C2224 C2223 1.524 . S
C2225 C2222 1.403 . S
C2225 C2226 1.392 . S
C2225 C2229 1.495 . S
C2226 C2225 1.392 . S
C2226 C2227 1.385 . S
C2226 C2228 1.478 . S
C2227 H2221 0.930 . S
C2227 C2223 1.400 . S
C2227 C2226 1.385 . S
C2228 C2226 1.478 . S
C2228 C2230 1.381 . S
C2228 C2234 1.383 . S
C2229 C2225 1.495 . S
C2229 H2235 0.959 . S
C2229 H2236 0.961 . S
C2229 H2237 0.960 . S
C2230 C2228 1.381 . S
C2230 C2231 1.394 . S
C2230 H2238 0.930 . S
C2231 C2230 1.394 . S
C2231 C2232 1.383 . S
C2231 H2239 0.929 . S
C2232 C2231 1.383 . S
C2232 C2233 1.377 . S
C2233 H2217 0.930 . S
C2233 C2232 1.377 . S
C2233 C2234 1.379 . S
C2234 H2218 0.931 . S
C2234 C2228 1.383 . S
C2234 C2233 1.379 . S
H2235 C2229 0.959 . S
H2236 C2229 0.961 . S
H2237 C2229 0.960 . S
H2238 C2230 0.930 . S
H2239 C2231 0.929 . S
H2240 C2248 0.929 . S
H2241 C2250 0.930 . S
H2242 C2252 0.930 . S
H2243 C2255 0.929 . S
H2244 C2258 0.930 . S
H2245 C2260 0.960 . S
H2246 C2260 0.960 . S
H2247 C2260 0.960 . S
C2248 H2240 0.929 . S
C2248 C2249 1.377 . S
C2248 C2250 1.384 . S
C2249 C2248 1.377 . S
C2249 C2255 1.390 . S
C2250 H2241 0.930 . S
C2250 C2248 1.384 . S
C2250 C2251 1.372 . S
C2251 C2250 1.372 . S
C2251 C2252 1.400 . S
C2251 C2256 1.490 . S
C2252 H2242 0.930 . S
C2252 C2251 1.400 . S
C2252 C2255 1.386 . S
H2253 C2269 0.930 . S
H2254 C2270 0.931 . S
C2255 H2243 0.929 . S
C2255 C2249 1.390 . S
C2255 C2252 1.386 . S
C2256 C2251 1.490 . S
C2256 C2258 1.395 . S
C2256 C2259 1.403 . S
H2257 C2263 0.930 . S
C2258 H2244 0.930 . S
C2258 C2256 1.395 . S
C2258 C2261 1.403 . S
C2259 C2256 1.403 . S
C2259 C2260 1.524 . S
C2259 C2263 1.400 . S
C2260 H2245 0.960 . S
C2260 H2246 0.960 . S
C2260 H2247 0.960 . S
C2260 C2259 1.524 . S
C2261 C2258 1.403 . S
C2261 C2262 1.392 . S
C2261 C2265 1.495 . S
C2262 C2261 1.392 . S
C2262 C2263 1.385 . S
C2262 C2264 1.478 . S
C2263 H2257 0.930 . S
C2263 C2259 1.400 . S
C2263 C2262 1.385 . S
C2264 C2262 1.478 . S
C2264 C2266 1.381 . S
C2264 C2270 1.383 . S
C2265 C2261 1.495 . S
C2265 H2271 0.959 . S
C2265 H2272 0.961 . S
C2265 H2273 0.960 . S
C2266 C2264 1.381 . S
C2266 C2267 1.394 . S
C2266 H2274 0.930 . S
C2267 C2266 1.394 . S
C2267 C2268 1.383 . S
C2267 H2275 0.929 . S
C2268 C2267 1.383 . S
C2268 C2269 1.377 . S
C2269 H2253 0.930 . S
C2269 C2268 1.377 . S
C2269 C2270 1.379 . S
C2270 H2254 0.931 . S
C2270 C2264 1.383 . S
C2270 C2269 1.379 . S
H2271 C2265 0.959 . S
H2272 C2265 0.961 . S
H2273 C2265 0.960 . S
H2274 C2266 0.930 . S
H2275 C2267 0.929 . S
H2276 C2284 0.929 . S
H2277 C2286 0.930 . S
H2278 C2288 0.930 . S
H2279 C2291 0.929 . S
H2280 C2294 0.930 . S
H2281 C2296 0.960 . S
H2282 C2296 0.960 . S
H2283 C2296 0.960 . S
C2284 H2276 0.929 . S
C2284 C2285 1.377 . S
C2284 C2286 1.384 . S
C2285 C2284 1.377 . S
C2285 C2291 1.390 . S
C2286 H2277 0.930 . S
C2286 C2284 1.384 . S
C2286 C2287 1.372 . S
C2287 C2286 1.372 . S
C2287 C2288 1.400 . S
C2287 C2292 1.490 . S
C2288 H2278 0.930 . S
C2288 C2287 1.400 . S
C2288 C2291 1.386 . S
H2289 C2305 0.930 . S
H2290 C2306 0.931 . S
C2291 H2279 0.929 . S
C2291 C2285 1.390 . S
C2291 C2288 1.386 . S
C2292 C2287 1.490 . S
C2292 C2294 1.395 . S
C2292 C2295 1.403 . S
H2293 C2299 0.930 . S
C2294 H2280 0.930 . S
C2294 C2292 1.395 . S
C2294 C2297 1.403 . S
C2295 C2292 1.403 . S
C2295 C2296 1.524 . S
C2295 C2299 1.400 . S
C2296 H2281 0.960 . S
C2296 H2282 0.960 . S
C2296 H2283 0.960 . S
C2296 C2295 1.524 . S
C2297 C2294 1.403 . S
C2297 C2298 1.392 . S
C2297 C2301 1.495 . S
C2298 C2297 1.392 . S
C2298 C2299 1.385 . S
C2298 C2300 1.478 . S
C2299 H2293 0.930 . S
C2299 C2295 1.400 . S
C2299 C2298 1.385 . S
C2300 C2298 1.478 . S
C2300 C2302 1.381 . S
C2300 C2306 1.383 . S
C2301 C2297 1.495 . S
C2301 H2307 0.959 . S
C2301 H2308 0.961 . S
C2301 H2309 0.960 . S
C2302 C2300 1.381 . S
C2302 C2303 1.394 . S
C2302 H2310 0.930 . S
C2303 C2302 1.394 . S
C2303 C2304 1.383 . S
C2303 H2311 0.929 . S
C2304 C2303 1.383 . S
C2304 C2305 1.377 . S
C2305 H2289 0.930 . S
C2305 C2304 1.377 . S
C2305 C2306 1.379 . S
C2306 H2290 0.931 . S
C2306 C2300 1.383 . S
C2306 C2305 1.379 . S
H2307 C2301 0.959 . S
H2308 C2301 0.961 . S
H2309 C2301 0.960 . S
H2310 C2302 0.930 . S
H2311 C2303 0.929 . S
H2312 C2320 0.929 . S
H2313 C2322 0.930 . S
H2314 C2324 0.930 . S
H2315 C2327 0.929 . S
H2316 C2330 0.930 . S
H2317 C2332 0.960 . S
H2318 C2332 0.960 . S
H2319 C2332 0.960 . S
C2320 H2312 0.929 . S
C2320 C2321 1.377 . S
C2320 C2322 1.384 . S
C2321 C2320 1.377 . S
C2321 C2327 1.390 . S
C2322 H2313 0.930 . S
C2322 C2320 1.384 . S
C2322 C2323 1.372 . S
C2323 C2322 1.372 . S
C2323 C2324 1.400 . S
C2323 C2328 1.490 . S
C2324 H2314 0.930 . S
C2324 C2323 1.400 . S
C2324 C2327 1.386 . S
H2325 C2341 0.930 . S
H2326 C2342 0.931 . S
C2327 H2315 0.929 . S
C2327 C2321 1.390 . S
C2327 C2324 1.386 . S
C2328 C2323 1.490 . S
C2328 C2330 1.395 . S
C2328 C2331 1.403 . S
H2329 C2335 0.930 . S
C2330 H2316 0.930 . S
C2330 C2328 1.395 . S
C2330 C2333 1.403 . S
C2331 C2328 1.403 . S
C2331 C2332 1.524 . S
C2331 C2335 1.400 . S
C2332 H2317 0.960 . S
C2332 H2318 0.960 . S
C2332 H2319 0.960 . S
C2332 C2331 1.524 . S
C2333 C2330 1.403 . S
C2333 C2334 1.392 . S
C2333 C2337 1.495 . S
C2334 C2333 1.392 . S
C2334 C2335 1.385 . S
C2334 C2336 1.478 . S
C2335 H2329 0.930 . S
C2335 C2331 1.400 . S
C2335 C2334 1.385 . S
C2336 C2334 1.478 . S
C2336 C2338 1.381 . S
C2336 C2342 1.383 . S
C2337 C2333 1.495 . S
C2337 H2343 0.959 . S
C2337 H2344 0.961 . S
C2337 H2345 0.960 . S
C2338 C2336 1.381 . S
C2338 C2339 1.394 . S
C2338 H2346 0.930 . S
C2339 C2338 1.394 . S
C2339 C2340 1.383 . S
C2339 H2347 0.929 . S
C2340 C2339 1.383 . S
C2340 C2341 1.377 . S
C2341 H2325 0.930 . S
C2341 C2340 1.377 . S
C2341 C2342 1.379 . S
C2342 H2326 0.931 . S
C2342 C2336 1.383 . S
C2342 C2341 1.379 . S
H2343 C2337 0.959 . S
H2344 C2337 0.961 . S
H2345 C2337 0.960 . S
H2346 C2338 0.930 . S
H2347 C2339 0.929 . S
H2348 C2356 0.929 . S
H2349 C2358 0.930 . S
H2350 C2360 0.930 . S
H2351 C2363 0.929 . S
H2352 C2366 0.930 . S
H2353 C2368 0.960 . S
H2354 C2368 0.960 . S
H2355 C2368 0.960 . S
C2356 H2348 0.929 . S
C2356 C2357 1.377 . S
C2356 C2358 1.384 . S
C2357 C2356 1.377 . S
C2357 C2363 1.390 . S
C2358 H2349 0.930 . S
C2358 C2356 1.384 . S
C2358 C2359 1.372 . S
C2359 C2358 1.372 . S
C2359 C2360 1.400 . S
C2359 C2364 1.490 . S
C2360 H2350 0.930 . S
C2360 C2359 1.400 . S
C2360 C2363 1.386 . S
H2361 C2377 0.930 . S
H2362 C2378 0.931 . S
C2363 H2351 0.929 . S
C2363 C2357 1.390 . S
C2363 C2360 1.386 . S
C2364 C2359 1.490 . S
C2364 C2366 1.395 . S
C2364 C2367 1.403 . S
H2365 C2371 0.930 . S
C2366 H2352 0.930 . S
C2366 C2364 1.395 . S
C2366 C2369 1.403 . S
C2367 C2364 1.403 . S
C2367 C2368 1.524 . S
C2367 C2371 1.400 . S
C2368 H2353 0.960 . S
C2368 H2354 0.960 . S
C2368 H2355 0.960 . S
C2368 C2367 1.524 . S
C2369 C2366 1.403 . S
C2369 C2370 1.392 . S
C2369 C2373 1.495 . S
C2370 C2369 1.392 . S
C2370 C2371 1.385 . S
C2370 C2372 1.478 . S
C2371 H2365 0.930 . S
C2371 C2367 1.400 . S
C2371 C2370 1.385 . S
C2372 C2370 1.478 . S
C2372 C2374 1.381 . S
C2372 C2378 1.383 . S
C2373 C2369 1.495 . S
C2373 H2379 0.959 . S
C2373 H2380 0.961 . S
C2373 H2381 0.960 . S
C2374 C2372 1.381 . S
C2374 C2375 1.394 . S
C2374 H2382 0.930 . S
C2375 C2374 1.394 . S
C2375 C2376 1.383 . S
C2375 H2383 0.929 . S
C2376 C2375 1.383 . S
C2376 C2377 1.377 . S
C2377 H2361 0.930 . S
C2377 C2376 1.377 . S
C2377 C2378 1.379 . S
C2378 H2362 0.931 . S
C2378 C2372 1.383 . S
C2378 C2377 1.379 . S
H2379 C2373 0.959 . S
H2380 C2373 0.961 . S
H2381 C2373 0.960 . S
H2382 C2374 0.930 . S
H2383 C2375 0.929 . S
H2384 C2392 0.929 . S
H2385 C2394 0.930 . S
H2386 C2396 0.930 . S
H2387 C2399 0.929 . S
H2388 C2402 0.930 . S
H2389 C2404 0.960 . S
H2390 C2404 0.960 . S
H2391 C2404 0.960 . S
C2392 H2384 0.929 . S
C2392 C2393 1.377 . S
C2392 C2394 1.384 . S
C2393 C2392 1.377 . S
C2393 C2399 1.390 . S
C2394 H2385 0.930 . S
C2394 C2392 1.384 . S
C2394 C2395 1.372 . S
C2395 C2394 1.372 . S
C2395 C2396 1.400 . S
C2395 C2400 1.490 . S
C2396 H2386 0.930 . S
C2396 C2395 1.400 . S
C2396 C2399 1.386 . S
H2397 C2413 0.930 . S
H2398 C2414 0.931 . S
C2399 H2387 0.929 . S
C2399 C2393 1.390 . S
C2399 C2396 1.386 . S
C2400 C2395 1.490 . S
C2400 C2402 1.395 . S
C2400 C2403 1.403 . S
H2401 C2407 0.930 . S
C2402 H2388 0.930 . S
C2402 C2400 1.395 . S
C2402 C2405 1.403 . S
C2403 C2400 1.403 . S
C2403 C2404 1.524 . S
C2403 C2407 1.400 . S
C2404 H2389 0.960 . S
C2404 H2390 0.960 . S
C2404 H2391 0.960 . S
C2404 C2403 1.524 . S
C2405 C2402 1.403 . S
C2405 C2406 1.392 . S
C2405 C2409 1.495 . S
C2406 C2405 1.392 . S
C2406 C2407 1.385 . S
C2406 C2408 1.478 . S
C2407 H2401 0.930 . S
C2407 C2403 1.400 . S
C2407 C2406 1.385 . S
C2408 C2406 1.478 . S
C2408 C2410 1.381 . S
C2408 C2414 1.383 . S
C2409 C2405 1.495 . S
C2409 H2415 0.959 . S
C2409 H2416 0.961 . S
C2409 H2417 0.960 . S
C2410 C2408 1.381 . S
C2410 C2411 1.394 . S
C2410 H2418 0.930 . S
C2411 C2410 1.394 . S
C2411 C2412 1.383 . S
C2411 H2419 0.929 . S
C2412 C2411 1.383 . S
C2412 C2413 1.377 . S
C2413 H2397 0.930 . S
C2413 C2412 1.377 . S
C2413 C2414 1.379 . S
C2414 H2398 0.931 . S
C2414 C2408 1.383 . S
C2414 C2413 1.379 . S
H2415 C2409 0.959 . S
H2416 C2409 0.961 . S
H2417 C2409 0.960 . S
H2418 C2410 0.930 . S
H2419 C2411 0.929 . S
H2420 C2428 0.929 . S
H2421 C2430 0.930 . S
H2422 C2432 0.930 . S
H2423 C2435 0.929 . S
H2424 C2438 0.930 . S
H2425 C2440 0.960 . S
H2426 C2440 0.960 . S
H2427 C2440 0.960 . S
C2428 H2420 0.929 . S
C2428 C2429 1.377 . S
C2428 C2430 1.384 . S
C2429 C2428 1.377 . S
C2429 C2435 1.390 . S
C2430 H2421 0.930 . S
C2430 C2428 1.384 . S
C2430 C2431 1.372 . S
C2431 C2430 1.372 . S
C2431 C2432 1.400 . S
C2431 C2436 1.490 . S
C2432 H2422 0.930 . S
C2432 C2431 1.400 . S
C2432 C2435 1.386 . S
H2433 C2449 0.930 . S
H2434 C2450 0.931 . S
C2435 H2423 0.929 . S
C2435 C2429 1.390 . S
C2435 C2432 1.386 . S
C2436 C2431 1.490 . S
C2436 C2438 1.395 . S
C2436 C2439 1.403 . S
H2437 C2443 0.930 . S
C2438 H2424 0.930 . S
C2438 C2436 1.395 . S
C2438 C2441 1.403 . S
C2439 C2436 1.403 . S
C2439 C2440 1.524 . S
C2439 C2443 1.400 . S
C2440 H2425 0.960 . S
C2440 H2426 0.960 . S
C2440 H2427 0.960 . S
C2440 C2439 1.524 . S
C2441 C2438 1.403 . S
C2441 C2442 1.392 . S
C2441 C2445 1.495 . S
C2442 C2441 1.392 . S
C2442 C2443 1.385 . S
C2442 C2444 1.478 . S
C2443 H2437 0.930 . S
C2443 C2439 1.400 . S
C2443 C2442 1.385 . S
C2444 C2442 1.478 . S
C2444 C2446 1.381 . S
C2444 C2450 1.383 . S
C2445 C2441 1.495 . S
C2445 H2451 0.959 . S
C2445 H2452 0.961 . S
C2445 H2453 0.960 . S
C2446 C2444 1.381 . S
C2446 C2447 1.394 . S
C2446 H2454 0.930 . S
C2447 C2446 1.394 . S
C2447 C2448 1.383 . S
C2447 H2455 0.929 . S
C2448 C2447 1.383 . S
C2448 C2449 1.377 . S
C2449 H2433 0.930 . S
C2449 C2448 1.377 . S
C2449 C2450 1.379 . S
C2450 H2434 0.931 . S
C2450 C2444 1.383 . S
C2450 C2449 1.379 . S
H2451 C2445 0.959 . S
H2452 C2445 0.961 . S
H2453 C2445 0.960 . S
H2454 C2446 0.930 . S
H2455 C2447 0.929 . S
H2456 C2464 0.929 . S
H2457 C2466 0.930 . S
H2458 C2468 0.930 . S
H2459 C2471 0.929 . S
H2460 C2474 0.930 . S
H2461 C2476 0.960 . S
H2462 C2476 0.960 . S
H2463 C2476 0.960 . S
C2464 H2456 0.929 . S
C2464 C2465 1.377 . S
C2464 C2466 1.384 . S
C2465 C2464 1.377 . S
C2465 C2471 1.390 1_455 S
C2466 H2457 0.930 . S
C2466 C2464 1.384 . S
C2466 C2467 1.372 . S
C2467 C2466 1.372 . S
C2467 C2468 1.400 1_455 S
C2467 C2472 1.490 . S
C2468 H2458 0.930 . S
C2468 C2467 1.400 1_655 S
C2468 C2471 1.386 . S
H2469 C2485 0.971 . S
H2470 C2486 0.927 1_655 S
C2471 H2459 0.929 . S
C2471 C2465 1.390 1_655 S
C2471 C2468 1.386 . S
C2472 C2467 1.490 . S
C2472 C2474 1.395 . S
C2472 C2475 1.403 1_455 S
H2473 C2479 0.930 . S
C2474 H2460 0.930 . S
C2474 C2472 1.395 . S
C2474 C2477 1.403 . S
C2475 C2472 1.403 1_655 S
C2475 C2476 1.524 . S
C2475 C2479 1.400 . S
C2476 H2461 0.960 . S
C2476 H2462 0.960 . S
C2476 H2463 0.960 . S
C2476 C2475 1.524 . S
C2477 C2474 1.403 . S
C2477 C2478 1.392 . S
C2477 C2481 1.495 . S
C2478 C2477 1.392 . S
C2478 C2479 1.385 1_455 S
C2478 C2480 1.478 . S
C2479 H2473 0.930 . S
C2479 C2475 1.400 . S
C2479 C2478 1.385 1_655 S
C2480 C2478 1.478 . S
C2480 C2482 1.381 1_556 S
C2480 C2486 1.388 . S
C2481 C2477 1.495 . S
C2481 H2487 0.959 . S
C2481 H2488 0.961 . S
C2481 H2489 0.960 . S
C2482 C2480 1.381 1_554 S
C2482 C2483 1.394 . S
C2482 H2490 0.930 . S
C2483 C2482 1.394 . S
C2483 C2484 1.383 . S
C2483 H2491 0.929 . S
C2484 C2483 1.383 . S
C2484 C2485 1.352 1_454 S
C2485 H2469 0.971 . S
C2485 C2484 1.352 1_656 S
C2485 C2486 1.365 1_655 S
C2486 H2470 0.927 1_455 S
C2486 C2480 1.388 . S
C2486 C2485 1.365 1_455 S
H2487 C2481 0.959 . S
H2488 C2481 0.961 . S
H2489 C2481 0.960 . S
H2490 C2482 0.930 . S
H2491 C2483 0.929 . S
H2492 C2500 0.929 . S
H2493 C2502 0.930 . S
H2494 C2504 0.930 . S
H2495 C2507 0.929 . S
H2496 C2510 0.930 . S
H2497 C2512 0.960 . S
H2498 C2512 0.960 . S
H2499 C2512 0.960 . S
C2500 H2492 0.929 . S
C2500 C2501 1.377 . S
C2500 C2502 1.384 . S
C2501 C2500 1.377 . S
C2501 C2507 1.390 . S
C2502 H2493 0.930 . S
C2502 C2500 1.384 . S
C2502 C2503 1.372 . S
C2503 C2502 1.372 . S
C2503 C2504 1.400 . S
C2503 C2508 1.490 . S
C2504 H2494 0.930 . S
C2504 C2503 1.400 . S
C2504 C2507 1.386 . S
H2505 C2521 0.930 . S
H2506 C2522 0.931 . S
C2507 H2495 0.929 . S
C2507 C2501 1.390 . S
C2507 C2504 1.386 . S
C2508 C2503 1.490 . S
C2508 C2510 1.395 . S
C2508 C2511 1.403 . S
H2509 C2515 0.930 . S
C2510 H2496 0.930 . S
C2510 C2508 1.395 . S
C2510 C2513 1.403 . S
C2511 C2508 1.403 . S
C2511 C2512 1.524 . S
C2511 C2515 1.400 . S
C2512 H2497 0.960 . S
C2512 H2498 0.960 . S
C2512 H2499 0.960 . S
C2512 C2511 1.524 . S
C2513 C2510 1.403 . S
C2513 C2514 1.392 . S
C2513 C2517 1.495 . S
C2514 C2513 1.392 . S
C2514 C2515 1.385 . S
C2514 C2516 1.478 . S
C2515 H2509 0.930 . S
C2515 C2511 1.400 . S
C2515 C2514 1.385 . S
C2516 C2514 1.478 . S
C2516 C2518 1.381 . S
C2516 C2522 1.383 . S
C2517 C2513 1.495 . S
C2517 H2523 0.959 . S
C2517 H2524 0.961 . S
C2517 H2525 0.960 . S
C2518 C2516 1.381 . S
C2518 C2519 1.394 . S
C2518 H2526 0.930 . S
C2519 C2518 1.394 . S
C2519 C2520 1.383 . S
C2519 H2527 0.929 . S
C2520 C2519 1.383 . S
C2520 C2521 1.377 . S
C2521 H2505 0.930 . S
C2521 C2520 1.377 . S
C2521 C2522 1.379 . S
C2522 H2506 0.931 . S
C2522 C2516 1.383 . S
C2522 C2521 1.379 . S
H2523 C2517 0.959 . S
H2524 C2517 0.961 . S
H2525 C2517 0.960 . S
H2526 C2518 0.930 . S
H2527 C2519 0.929 . S
H2528 C2536 0.929 . S
H2529 C2538 0.930 . S
H2530 C2540 0.930 . S
H2531 C2543 0.929 . S
H2532 C2546 0.930 . S
H2533 C2548 0.960 . S
H2534 C2548 0.960 . S
H2535 C2548 0.960 . S
C2536 H2528 0.929 . S
C2536 C2537 1.377 . S
C2536 C2538 1.384 . S
C2537 C2536 1.377 . S
C2537 C2543 1.390 . S
C2538 H2529 0.930 . S
C2538 C2536 1.384 . S
C2538 C2539 1.372 . S
C2539 C2538 1.372 . S
C2539 C2540 1.400 . S
C2539 C2544 1.490 . S
C2540 H2530 0.930 . S
C2540 C2539 1.400 . S
C2540 C2543 1.386 . S
H2541 C2557 0.930 . S
H2542 C2558 0.931 . S
C2543 H2531 0.929 . S
C2543 C2537 1.390 . S
C2543 C2540 1.386 . S
C2544 C2539 1.490 . S
C2544 C2546 1.395 . S
C2544 C2547 1.403 . S
H2545 C2551 0.930 . S
C2546 H2532 0.930 . S
C2546 C2544 1.395 . S
C2546 C2549 1.403 . S
C2547 C2544 1.403 . S
C2547 C2548 1.524 . S
C2547 C2551 1.400 . S
C2548 H2533 0.960 . S
C2548 H2534 0.960 . S
C2548 H2535 0.960 . S
C2548 C2547 1.524 . S
C2549 C2546 1.403 . S
C2549 C2550 1.392 . S
C2549 C2553 1.495 . S
C2550 C2549 1.392 . S
C2550 C2551 1.385 . S
C2550 C2552 1.478 . S
C2551 H2545 0.930 . S
C2551 C2547 1.400 . S
C2551 C2550 1.385 . S
C2552 C2550 1.478 . S
C2552 C2554 1.381 . S
C2552 C2558 1.383 . S
C2553 C2549 1.495 . S
C2553 H2559 0.959 . S
C2553 H2560 0.961 . S
C2553 H2561 0.960 . S
C2554 C2552 1.381 . S
C2554 C2555 1.394 . S
C2554 H2562 0.930 . S
C2555 C2554 1.394 . S
C2555 C2556 1.383 . S
C2555 H2563 0.929 . S
C2556 C2555 1.383 . S
C2556 C2557 1.377 . S
C2557 H2541 0.930 . S
C2557 C2556 1.377 . S
C2557 C2558 1.379 . S
C2558 H2542 0.931 . S
C2558 C2552 1.383 . S
C2558 C2557 1.379 . S
H2559 C2553 0.959 . S
H2560 C2553 0.961 . S
H2561 C2553 0.960 . S
H2562 C2554 0.930 . S
H2563 C2555 0.929 . S
H2564 C2572 0.929 . S
H2565 C2574 0.930 . S
H2566 C2576 0.930 . S
H2567 C2579 0.929 . S
H2568 C2582 0.930 . S
H2569 C2584 0.960 . S
H2570 C2584 0.960 . S
H2571 C2584 0.960 . S
C2572 H2564 0.929 . S
C2572 C2573 1.377 . S
C2572 C2574 1.384 . S
C2573 C2572 1.377 . S
C2573 C2579 1.390 . S
C2574 H2565 0.930 . S
C2574 C2572 1.384 . S
C2574 C2575 1.372 . S
C2575 C2574 1.372 . S
C2575 C2576 1.400 . S
C2575 C2580 1.490 . S
C2576 H2566 0.930 . S
C2576 C2575 1.400 . S
C2576 C2579 1.386 . S
H2577 C2593 0.930 . S
H2578 C2594 0.931 . S
C2579 H2567 0.929 . S
C2579 C2573 1.390 . S
C2579 C2576 1.386 . S
C2580 C2575 1.490 . S
C2580 C2582 1.395 . S
C2580 C2583 1.403 . S
H2581 C2587 0.930 . S
C2582 H2568 0.930 . S
C2582 C2580 1.395 . S
C2582 C2585 1.403 . S
C2583 C2580 1.403 . S
C2583 C2584 1.524 . S
C2583 C2587 1.400 . S
C2584 H2569 0.960 . S
C2584 H2570 0.960 . S
C2584 H2571 0.960 . S
C2584 C2583 1.524 . S
C2585 C2582 1.403 . S
C2585 C2586 1.392 . S
C2585 C2589 1.495 . S
C2586 C2585 1.392 . S
C2586 C2587 1.385 . S
C2586 C2588 1.478 . S
C2587 H2581 0.930 . S
C2587 C2583 1.400 . S
C2587 C2586 1.385 . S
C2588 C2586 1.478 . S
C2588 C2590 1.381 . S
C2588 C2594 1.383 . S
C2589 C2585 1.495 . S
C2589 H2595 0.959 . S
C2589 H2596 0.961 . S
C2589 H2597 0.960 . S
C2590 C2588 1.381 . S
C2590 C2591 1.394 . S
C2590 H2598 0.930 . S
C2591 C2590 1.394 . S
C2591 C2592 1.383 . S
C2591 H2599 0.929 . S
C2592 C2591 1.383 . S
C2592 C2593 1.377 . S
C2593 H2577 0.930 . S
C2593 C2592 1.377 . S
C2593 C2594 1.379 . S
C2594 H2578 0.931 . S
C2594 C2588 1.383 . S
C2594 C2593 1.379 . S
H2595 C2589 0.959 . S
H2596 C2589 0.961 . S
H2597 C2589 0.960 . S
H2598 C2590 0.930 . S
H2599 C2591 0.929 . S
H2600 C2608 0.929 . S
H2601 C2610 0.930 . S
H2602 C2612 0.930 . S
H2603 C2615 0.929 . S
H2604 C2618 0.930 . S
H2605 C2620 0.960 . S
H2606 C2620 0.960 . S
H2607 C2620 0.960 . S
C2608 H2600 0.929 . S
C2608 C2609 1.377 . S
C2608 C2610 1.384 . S
C2609 C2608 1.377 . S
C2609 C2615 1.390 1_455 S
C2610 H2601 0.930 . S
C2610 C2608 1.384 . S
C2610 C2611 1.372 . S
C2611 C2610 1.372 . S
C2611 C2612 1.400 1_455 S
C2611 C2616 1.490 . S
C2612 H2602 0.930 . S
C2612 C2611 1.400 1_655 S
C2612 C2615 1.386 . S
H2613 C2629 0.930 . S
H2614 C2630 0.931 . S
C2615 H2603 0.929 . S
C2615 C2609 1.390 1_655 S
C2615 C2612 1.386 . S
C2616 C2611 1.490 . S
C2616 C2618 1.395 . S
C2616 C2619 1.403 1_455 S
H2617 C2623 0.930 . S
C2618 H2604 0.930 . S
C2618 C2616 1.395 . S
C2618 C2621 1.403 . S
C2619 C2616 1.403 1_655 S
C2619 C2620 1.524 . S
C2619 C2623 1.400 . S
C2620 H2605 0.960 . S
C2620 H2606 0.960 . S
C2620 H2607 0.960 . S
C2620 C2619 1.524 . S
C2621 C2618 1.403 . S
C2621 C2622 1.392 . S
C2621 C2625 1.495 . S
C2622 C2621 1.392 . S
C2622 C2623 1.385 1_455 S
C2622 C2624 1.478 . S
C2623 H2617 0.930 . S
C2623 C2619 1.400 . S
C2623 C2622 1.385 1_655 S
C2624 C2622 1.478 . S
C2624 C2626 1.381 . S
C2624 C2630 1.383 1_455 S
C2625 C2621 1.495 . S
C2625 H2631 0.959 . S
C2625 H2632 0.961 . S
C2625 H2633 0.960 . S
C2626 C2624 1.381 . S
C2626 C2627 1.394 . S
C2626 H2634 0.930 . S
C2627 C2626 1.394 . S
C2627 C2628 1.383 . S
C2627 H2635 0.929 . S
C2628 C2627 1.383 . S
C2628 C2629 1.377 1_455 S
C2629 H2613 0.930 . S
C2629 C2628 1.377 1_655 S
C2629 C2630 1.379 . S
C2630 H2614 0.931 . S
C2630 C2624 1.383 1_655 S
C2630 C2629 1.379 . S
H2631 C2625 0.959 . S
H2632 C2625 0.961 . S
H2633 C2625 0.960 . S
H2634 C2626 0.930 . S
H2635 C2627 0.929 . S
H2636 C2644 0.929 . S
H2637 C2646 0.930 . S
H2638 C2648 0.930 . S
H2639 C2651 0.929 . S
H2640 C2654 0.930 . S
H2641 C2656 0.960 . S
H2642 C2656 0.960 . S
H2643 C2656 0.960 . S
C2644 H2636 0.929 . S
C2644 C2645 1.377 . S
C2644 C2646 1.384 . S
C2645 C2644 1.377 . S
C2645 C2651 1.390 . S
C2646 H2637 0.930 . S
C2646 C2644 1.384 . S
C2646 C2647 1.372 . S
C2647 C2646 1.372 . S
C2647 C2648 1.400 . S
C2647 C2652 1.490 . S
C2648 H2638 0.930 . S
C2648 C2647 1.400 . S
C2648 C2651 1.386 . S
H2649 C2665 0.930 . S
H2650 C2666 0.931 . S
C2651 H2639 0.929 . S
C2651 C2645 1.390 . S
C2651 C2648 1.386 . S
C2652 C2647 1.490 . S
C2652 C2654 1.395 . S
C2652 C2655 1.403 . S
H2653 C2659 0.930 . S
C2654 H2640 0.930 . S
C2654 C2652 1.395 . S
C2654 C2657 1.403 . S
C2655 C2652 1.403 . S
C2655 C2656 1.524 . S
C2655 C2659 1.400 . S
C2656 H2641 0.960 . S
C2656 H2642 0.960 . S
C2656 H2643 0.960 . S
C2656 C2655 1.524 . S
C2657 C2654 1.403 . S
C2657 C2658 1.392 . S
C2657 C2661 1.495 . S
C2658 C2657 1.392 . S
C2658 C2659 1.385 . S
C2658 C2660 1.478 . S
C2659 H2653 0.930 . S
C2659 C2655 1.400 . S
C2659 C2658 1.385 . S
C2660 C2658 1.478 . S
C2660 C2662 1.381 . S
C2660 C2666 1.383 . S
C2661 C2657 1.495 . S
C2661 H2667 0.959 . S
C2661 H2668 0.961 . S
C2661 H2669 0.960 . S
C2662 C2660 1.381 . S
C2662 C2663 1.394 . S
C2662 H2670 0.930 . S
C2663 C2662 1.394 . S
C2663 C2664 1.383 . S
C2663 H2671 0.929 . S
C2664 C2663 1.383 . S
C2664 C2665 1.377 . S
C2665 H2649 0.930 . S
C2665 C2664 1.377 . S
C2665 C2666 1.379 . S
C2666 H2650 0.931 . S
C2666 C2660 1.383 . S
C2666 C2665 1.379 . S
H2667 C2661 0.959 . S
H2668 C2661 0.961 . S
H2669 C2661 0.960 . S
H2670 C2662 0.930 . S
H2671 C2663 0.929 . S
H2672 C2680 0.929 . S
H2673 C2682 0.930 . S
H2674 C2684 0.930 . S
H2675 C2687 0.929 . S
H2676 C2690 0.930 . S
H2677 C2692 0.960 . S
H2678 C2692 0.960 . S
H2679 C2692 0.960 . S
C2680 H2672 0.929 . S
C2680 C2681 1.377 . S
C2680 C2682 1.384 . S
C2681 C2680 1.377 . S
C2681 C2687 1.390 . S
C2682 H2673 0.930 . S
C2682 C2680 1.384 . S
C2682 C2683 1.372 . S
C2683 C2682 1.372 . S
C2683 C2684 1.400 . S
C2683 C2688 1.490 . S
C2684 H2674 0.930 . S
C2684 C2683 1.400 . S
C2684 C2687 1.386 . S
H2685 C2701 0.930 . S
H2686 C2702 0.931 . S
C2687 H2675 0.929 . S
C2687 C2681 1.390 . S
C2687 C2684 1.386 . S
C2688 C2683 1.490 . S
C2688 C2690 1.395 . S
C2688 C2691 1.403 . S
H2689 C2695 0.930 . S
C2690 H2676 0.930 . S
C2690 C2688 1.395 . S
C2690 C2693 1.403 . S
C2691 C2688 1.403 . S
C2691 C2692 1.524 . S
C2691 C2695 1.400 . S
C2692 H2677 0.960 . S
C2692 H2678 0.960 . S
C2692 H2679 0.960 . S
C2692 C2691 1.524 . S
C2693 C2690 1.403 . S
C2693 C2694 1.392 . S
C2693 C2697 1.495 . S
C2694 C2693 1.392 . S
C2694 C2695 1.385 . S
C2694 C2696 1.478 . S
C2695 H2689 0.930 . S
C2695 C2691 1.400 . S
C2695 C2694 1.385 . S
C2696 C2694 1.478 . S
C2696 C2698 1.381 . S
C2696 C2702 1.383 . S
C2697 C2693 1.495 . S
C2697 H2703 0.959 . S
C2697 H2704 0.961 . S
C2697 H2705 0.960 . S
C2698 C2696 1.381 . S
C2698 C2699 1.394 . S
C2698 H2706 0.930 . S
C2699 C2698 1.394 . S
C2699 C2700 1.383 . S
C2699 H2707 0.929 . S
C2700 C2699 1.383 . S
C2700 C2701 1.377 . S
C2701 H2685 0.930 . S
C2701 C2700 1.377 . S
C2701 C2702 1.379 . S
C2702 H2686 0.931 . S
C2702 C2696 1.383 . S
C2702 C2701 1.379 . S
H2703 C2697 0.959 . S
H2704 C2697 0.961 . S
H2705 C2697 0.960 . S
H2706 C2698 0.930 . S
H2707 C2699 0.929 . S
H2708 C2716 0.929 . S
H2709 C2718 0.930 . S
H2710 C2720 0.930 . S
H2711 C2723 0.929 . S
H2712 C2726 0.930 . S
H2713 C2728 0.960 . S
H2714 C2728 0.960 . S
H2715 C2728 0.960 . S
C2716 H2708 0.929 . S
C2716 C2717 1.377 . S
C2716 C2718 1.384 . S
C2717 C2716 1.377 . S
C2717 C2723 1.390 . S
C2718 H2709 0.930 . S
C2718 C2716 1.384 . S
C2718 C2719 1.372 . S
C2719 C2718 1.372 . S
C2719 C2720 1.400 . S
C2719 C2724 1.490 . S
C2720 H2710 0.930 . S
C2720 C2719 1.400 . S
C2720 C2723 1.386 . S
H2721 C2737 0.930 . S
H2722 C2738 0.931 . S
C2723 H2711 0.929 . S
C2723 C2717 1.390 . S
C2723 C2720 1.386 . S
C2724 C2719 1.490 . S
C2724 C2726 1.395 . S
C2724 C2727 1.403 . S
H2725 C2731 0.930 . S
C2726 H2712 0.930 . S
C2726 C2724 1.395 . S
C2726 C2729 1.403 . S
C2727 C2724 1.403 . S
C2727 C2728 1.524 . S
C2727 C2731 1.400 . S
C2728 H2713 0.960 . S
C2728 H2714 0.960 . S
C2728 H2715 0.960 . S
C2728 C2727 1.524 . S
C2729 C2726 1.403 . S
C2729 C2730 1.392 . S
C2729 C2733 1.495 . S
C2730 C2729 1.392 . S
C2730 C2731 1.385 . S
C2730 C2732 1.478 . S
C2731 H2725 0.930 . S
C2731 C2727 1.400 . S
C2731 C2730 1.385 . S
C2732 C2730 1.478 . S
C2732 C2734 1.381 . S
C2732 C2738 1.383 . S
C2733 C2729 1.495 . S
C2733 H2739 0.959 . S
C2733 H2740 0.961 . S
C2733 H2741 0.960 . S
C2734 C2732 1.381 . S
C2734 C2735 1.394 . S
C2734 H2742 0.930 . S
C2735 C2734 1.394 . S
C2735 C2736 1.383 . S
C2735 H2743 0.929 . S
C2736 C2735 1.383 . S
C2736 C2737 1.377 . S
C2737 H2721 0.930 . S
C2737 C2736 1.377 . S
C2737 C2738 1.379 . S
C2738 H2722 0.931 . S
C2738 C2732 1.383 . S
C2738 C2737 1.379 . S
H2739 C2733 0.959 . S
H2740 C2733 0.961 . S
H2741 C2733 0.960 . S
H2742 C2734 0.930 . S
H2743 C2735 0.929 . S
H2744 C2752 0.929 . S
H2745 C2754 0.930 . S
H2746 C2756 0.930 . S
H2747 C2759 0.929 . S
H2748 C2762 0.930 . S
H2749 C2764 0.960 . S
H2750 C2764 0.960 . S
H2751 C2764 0.960 . S
C2752 H2744 0.929 . S
C2752 C2753 1.377 . S
C2752 C2754 1.384 . S
C2753 C2752 1.377 . S
C2753 C2759 1.390 . S
C2754 H2745 0.930 . S
C2754 C2752 1.384 . S
C2754 C2755 1.372 . S
C2755 C2754 1.372 . S
C2755 C2756 1.400 . S
C2755 C2760 1.490 . S
C2756 H2746 0.930 . S
C2756 C2755 1.400 . S
C2756 C2759 1.386 . S
H2757 C2773 0.930 . S
H2758 C2774 0.931 . S
C2759 H2747 0.929 . S
C2759 C2753 1.390 . S
C2759 C2756 1.386 . S
C2760 C2755 1.490 . S
C2760 C2762 1.395 . S
C2760 C2763 1.403 . S
H2761 C2767 0.930 . S
C2762 H2748 0.930 . S
C2762 C2760 1.395 . S
C2762 C2765 1.403 . S
C2763 C2760 1.403 . S
C2763 C2764 1.524 . S
C2763 C2767 1.400 . S
C2764 H2749 0.960 . S
C2764 H2750 0.960 . S
C2764 H2751 0.960 . S
C2764 C2763 1.524 . S
C2765 C2762 1.403 . S
C2765 C2766 1.392 . S
C2765 C2769 1.495 . S
C2766 C2765 1.392 . S
C2766 C2767 1.385 . S
C2766 C2768 1.478 . S
C2767 H2761 0.930 . S
C2767 C2763 1.400 . S
C2767 C2766 1.385 . S
C2768 C2766 1.478 . S
C2768 C2770 1.381 . S
C2768 C2774 1.383 . S
C2769 C2765 1.495 . S
C2769 H2775 0.959 . S
C2769 H2776 0.961 . S
C2769 H2777 0.960 . S
C2770 C2768 1.381 . S
C2770 C2771 1.394 . S
C2770 H2778 0.930 . S
C2771 C2770 1.394 . S
C2771 C2772 1.383 . S
C2771 H2779 0.929 . S
C2772 C2771 1.383 . S
C2772 C2773 1.377 . S
C2773 H2757 0.930 . S
C2773 C2772 1.377 . S
C2773 C2774 1.379 . S
C2774 H2758 0.931 . S
C2774 C2768 1.383 . S
C2774 C2773 1.379 . S
H2775 C2769 0.959 . S
H2776 C2769 0.961 . S
H2777 C2769 0.960 . S
H2778 C2770 0.930 . S
H2779 C2771 0.929 . S
H2780 C2788 0.929 . S
H2781 C2790 0.930 . S
H2782 C2792 0.930 . S
H2783 C2795 0.929 . S
H2784 C2798 0.930 . S
H2785 C2800 0.960 . S
H2786 C2800 0.960 . S
H2787 C2800 0.960 . S
C2788 H2780 0.929 . S
C2788 C2789 1.377 . S
C2788 C2790 1.384 . S
C2789 C2788 1.377 . S
C2789 C2795 1.390 . S
C2790 H2781 0.930 . S
C2790 C2788 1.384 . S
C2790 C2791 1.372 . S
C2791 C2790 1.372 . S
C2791 C2792 1.400 . S
C2791 C2796 1.490 . S
C2792 H2782 0.930 . S
C2792 C2791 1.400 . S
C2792 C2795 1.386 . S
H2793 C2809 0.930 . S
H2794 C2810 0.931 . S
C2795 H2783 0.929 . S
C2795 C2789 1.390 . S
C2795 C2792 1.386 . S
C2796 C2791 1.490 . S
C2796 C2798 1.395 . S
C2796 C2799 1.403 . S
H2797 C2803 0.930 . S
C2798 H2784 0.930 . S
C2798 C2796 1.395 . S
C2798 C2801 1.403 . S
C2799 C2796 1.403 . S
C2799 C2800 1.524 . S
C2799 C2803 1.400 . S
C2800 H2785 0.960 . S
C2800 H2786 0.960 . S
C2800 H2787 0.960 . S
C2800 C2799 1.524 . S
C2801 C2798 1.403 . S
C2801 C2802 1.392 . S
C2801 C2805 1.495 . S
C2802 C2801 1.392 . S
C2802 C2803 1.385 . S
C2802 C2804 1.478 . S
C2803 H2797 0.930 . S
C2803 C2799 1.400 . S
C2803 C2802 1.385 . S
C2804 C2802 1.478 . S
C2804 C2806 1.381 . S
C2804 C2810 1.383 . S
C2805 C2801 1.495 . S
C2805 H2811 0.959 . S
C2805 H2812 0.961 . S
C2805 H2813 0.960 . S
C2806 C2804 1.381 . S
C2806 C2807 1.394 . S
C2806 H2814 0.930 . S
C2807 C2806 1.394 . S
C2807 C2808 1.383 . S
C2807 H2815 0.929 . S
C2808 C2807 1.383 . S
C2808 C2809 1.377 . S
C2809 H2793 0.930 . S
C2809 C2808 1.377 . S
C2809 C2810 1.379 . S
C2810 H2794 0.931 . S
C2810 C2804 1.383 . S
C2810 C2809 1.379 . S
H2811 C2805 0.959 . S
H2812 C2805 0.961 . S
H2813 C2805 0.960 . S
H2814 C2806 0.930 . S
H2815 C2807 0.929 . S
H2816 C2824 0.929 . S
H2817 C2826 0.930 . S
H2818 C2828 0.930 . S
H2819 C2831 0.929 . S
H2820 C2834 0.930 . S
H2821 C2836 0.960 . S
H2822 C2836 0.960 . S
H2823 C2836 0.960 . S
C2824 H2816 0.929 . S
C2824 C2825 1.377 . S
C2824 C2826 1.384 . S
C2825 C2824 1.377 . S
C2825 C2831 1.390 . S
C2826 H2817 0.930 . S
C2826 C2824 1.384 . S
C2826 C2827 1.372 . S
C2827 C2826 1.372 . S
C2827 C2828 1.400 . S
C2827 C2832 1.490 . S
C2828 H2818 0.930 . S
C2828 C2827 1.400 . S
C2828 C2831 1.386 . S
H2829 C2845 0.930 . S
H2830 C2846 0.931 . S
C2831 H2819 0.929 . S
C2831 C2825 1.390 . S
C2831 C2828 1.386 . S
C2832 C2827 1.490 . S
C2832 C2834 1.395 . S
C2832 C2835 1.403 . S
H2833 C2839 0.930 . S
C2834 H2820 0.930 . S
C2834 C2832 1.395 . S
C2834 C2837 1.403 . S
C2835 C2832 1.403 . S
C2835 C2836 1.524 . S
C2835 C2839 1.400 . S
C2836 H2821 0.960 . S
C2836 H2822 0.960 . S
C2836 H2823 0.960 . S
C2836 C2835 1.524 . S
C2837 C2834 1.403 . S
C2837 C2838 1.392 . S
C2837 C2841 1.495 . S
C2838 C2837 1.392 . S
C2838 C2839 1.385 . S
C2838 C2840 1.478 . S
C2839 H2833 0.930 . S
C2839 C2835 1.400 . S
C2839 C2838 1.385 . S
C2840 C2838 1.478 . S
C2840 C2842 1.381 . S
C2840 C2846 1.383 . S
C2841 C2837 1.495 . S
C2841 H2847 0.959 . S
C2841 H2848 0.961 . S
C2841 H2849 0.960 . S
C2842 C2840 1.381 . S
C2842 C2843 1.394 . S
C2842 H2850 0.930 . S
C2843 C2842 1.394 . S
C2843 C2844 1.383 . S
C2843 H2851 0.929 . S
C2844 C2843 1.383 . S
C2844 C2845 1.377 . S
C2845 H2829 0.930 . S
C2845 C2844 1.377 . S
C2845 C2846 1.379 . S
C2846 H2830 0.931 . S
C2846 C2840 1.383 . S
C2846 C2845 1.379 . S
H2847 C2841 0.959 . S
H2848 C2841 0.961 . S
H2849 C2841 0.960 . S
H2850 C2842 0.930 . S
H2851 C2843 0.929 . S
H2852 C2860 0.929 . S
H2853 C2862 0.930 . S
H2854 C2864 0.930 . S
H2855 C2867 0.929 . S
H2856 C2870 0.930 . S
H2857 C2872 0.960 . S
H2858 C2872 0.960 . S
H2859 C2872 0.960 . S
C2860 H2852 0.929 . S
C2860 C2861 1.377 . S
C2860 C2862 1.384 . S
C2861 C2860 1.377 . S
C2861 C2867 1.390 . S
C2862 H2853 0.930 . S
C2862 C2860 1.384 . S
C2862 C2863 1.372 . S
C2863 C2862 1.372 . S
C2863 C2864 1.400 . S
C2863 C2868 1.490 . S
C2864 H2854 0.930 . S
C2864 C2863 1.400 . S
C2864 C2867 1.386 . S
H2865 C2881 0.930 . S
H2866 C2882 0.931 . S
C2867 H2855 0.929 . S
C2867 C2861 1.390 . S
C2867 C2864 1.386 . S
C2868 C2863 1.490 . S
C2868 C2870 1.395 . S
C2868 C2871 1.403 . S
H2869 C2875 0.930 . S
C2870 H2856 0.930 . S
C2870 C2868 1.395 . S
C2870 C2873 1.403 . S
C2871 C2868 1.403 . S
C2871 C2872 1.524 . S
C2871 C2875 1.400 . S
C2872 H2857 0.960 . S
C2872 H2858 0.960 . S
C2872 H2859 0.960 . S
C2872 C2871 1.524 . S
C2873 C2870 1.403 . S
C2873 C2874 1.392 . S
C2873 C2877 1.495 . S
C2874 C2873 1.392 . S
C2874 C2875 1.385 . S
C2874 C2876 1.478 . S
C2875 H2869 0.930 . S
C2875 C2871 1.400 . S
C2875 C2874 1.385 . S
C2876 C2874 1.478 . S
C2876 C2878 1.381 . S
C2876 C2882 1.383 . S
C2877 C2873 1.495 . S
C2877 H2883 0.959 . S
C2877 H2884 0.961 . S
C2877 H2885 0.960 . S
C2878 C2876 1.381 . S
C2878 C2879 1.394 . S
C2878 H2886 0.930 . S
C2879 C2878 1.394 . S
C2879 C2880 1.383 . S
C2879 H2887 0.929 . S
C2880 C2879 1.383 . S
C2880 C2881 1.377 . S
C2881 H2865 0.930 . S
C2881 C2880 1.377 . S
C2881 C2882 1.379 . S
C2882 H2866 0.931 . S
C2882 C2876 1.383 . S
C2882 C2881 1.379 . S
H2883 C2877 0.959 . S
H2884 C2877 0.961 . S
H2885 C2877 0.960 . S
H2886 C2878 0.930 . S
H2887 C2879 0.929 . S
H2888 C2896 0.929 . S
H2889 C2898 0.930 . S
H2890 C2900 0.930 . S
H2891 C2903 0.929 . S
H2892 C2906 0.930 . S
H2893 C2908 0.960 . S
H2894 C2908 0.960 . S
H2895 C2908 0.960 . S
C2896 H2888 0.929 . S
C2896 C2897 1.377 . S
C2896 C2898 1.384 . S
C2897 C2896 1.377 . S
C2897 C2903 1.390 . S
C2898 H2889 0.930 . S
C2898 C2896 1.384 . S
C2898 C2899 1.372 . S
C2899 C2898 1.372 . S
C2899 C2900 1.400 . S
C2899 C2904 1.490 . S
C2900 H2890 0.930 . S
C2900 C2899 1.400 . S
C2900 C2903 1.386 . S
H2901 C2917 0.930 . S
H2902 C2918 0.931 . S
C2903 H2891 0.929 . S
C2903 C2897 1.390 . S
C2903 C2900 1.386 . S
C2904 C2899 1.490 . S
C2904 C2906 1.395 . S
C2904 C2907 1.403 . S
H2905 C2911 0.930 . S
C2906 H2892 0.930 . S
C2906 C2904 1.395 . S
C2906 C2909 1.403 . S
C2907 C2904 1.403 . S
C2907 C2908 1.524 . S
C2907 C2911 1.400 . S
C2908 H2893 0.960 . S
C2908 H2894 0.960 . S
C2908 H2895 0.960 . S
C2908 C2907 1.524 . S
C2909 C2906 1.403 . S
C2909 C2910 1.392 . S
C2909 C2913 1.495 . S
C2910 C2909 1.392 . S
C2910 C2911 1.385 . S
C2910 C2912 1.478 . S
C2911 H2905 0.930 . S
C2911 C2907 1.400 . S
C2911 C2910 1.385 . S
C2912 C2910 1.478 . S
C2912 C2914 1.381 . S
C2912 C2918 1.383 . S
C2913 C2909 1.495 . S
C2913 H2919 0.959 . S
C2913 H2920 0.961 . S
C2913 H2921 0.960 . S
C2914 C2912 1.381 . S
C2914 C2915 1.394 . S
C2914 H2922 0.930 . S
C2915 C2914 1.394 . S
C2915 C2916 1.383 . S
C2915 H2923 0.929 . S
C2916 C2915 1.383 . S
C2916 C2917 1.377 . S
C2917 H2901 0.930 . S
C2917 C2916 1.377 . S
C2917 C2918 1.379 . S
C2918 H2902 0.931 . S
C2918 C2912 1.383 . S
C2918 C2917 1.379 . S
H2919 C2913 0.959 . S
H2920 C2913 0.961 . S
H2921 C2913 0.960 . S
H2922 C2914 0.930 . S
H2923 C2915 0.929 . S
H2924 C2932 0.929 . S
H2925 C2934 0.930 . S
H2926 C2936 0.930 . S
H2927 C2939 0.929 . S
H2928 C2942 0.930 . S
H2929 C2944 0.960 . S
H2930 C2944 0.960 . S
H2931 C2944 0.960 . S
C2932 H2924 0.929 . S
C2932 C2933 1.377 . S
C2932 C2934 1.384 . S
C2933 C2932 1.377 . S
C2933 C2939 1.390 . S
C2934 H2925 0.930 . S
C2934 C2932 1.384 . S
C2934 C2935 1.372 . S
C2935 C2934 1.372 . S
C2935 C2936 1.400 . S
C2935 C2940 1.490 . S
C2936 H2926 0.930 . S
C2936 C2935 1.400 . S
C2936 C2939 1.386 . S
H2937 C2953 0.930 . S
H2938 C2954 0.931 . S
C2939 H2927 0.929 . S
C2939 C2933 1.390 . S
C2939 C2936 1.386 . S
C2940 C2935 1.490 . S
C2940 C2942 1.395 . S
C2940 C2943 1.403 . S
H2941 C2947 0.930 . S
C2942 H2928 0.930 . S
C2942 C2940 1.395 . S
C2942 C2945 1.403 . S
C2943 C2940 1.403 . S
C2943 C2944 1.524 . S
C2943 C2947 1.400 . S
C2944 H2929 0.960 . S
C2944 H2930 0.960 . S
C2944 H2931 0.960 . S
C2944 C2943 1.524 . S
C2945 C2942 1.403 . S
C2945 C2946 1.392 . S
C2945 C2949 1.495 . S
C2946 C2945 1.392 . S
C2946 C2947 1.385 . S
C2946 C2948 1.478 . S
C2947 H2941 0.930 . S
C2947 C2943 1.400 . S
C2947 C2946 1.385 . S
C2948 C2946 1.478 . S
C2948 C2950 1.381 . S
C2948 C2954 1.383 . S
C2949 C2945 1.495 . S
C2949 H2955 0.959 . S
C2949 H2956 0.961 . S
C2949 H2957 0.960 . S
C2950 C2948 1.381 . S
C2950 C2951 1.394 . S
C2950 H2958 0.930 . S
C2951 C2950 1.394 . S
C2951 C2952 1.383 . S
C2951 H2959 0.929 . S
C2952 C2951 1.383 . S
C2952 C2953 1.377 . S
C2953 H2937 0.930 . S
C2953 C2952 1.377 . S
C2953 C2954 1.379 . S
C2954 H2938 0.931 . S
C2954 C2948 1.383 . S
C2954 C2953 1.379 . S
H2955 C2949 0.959 . S
H2956 C2949 0.961 . S
H2957 C2949 0.960 . S
H2958 C2950 0.930 . S
H2959 C2951 0.929 . S
H2960 C2968 0.929 . S
H2961 C2970 0.930 . S
H2962 C2972 0.930 . S
H2963 C2975 0.929 . S
H2964 C2978 0.930 . S
H2965 C2980 0.960 . S
H2966 C2980 0.960 . S
H2967 C2980 0.960 . S
C2968 H2960 0.929 . S
C2968 C2969 1.377 . S
C2968 C2970 1.384 . S
C2969 C2968 1.377 . S
C2969 C2975 1.390 . S
C2970 H2961 0.930 . S
C2970 C2968 1.384 . S
C2970 C2971 1.372 . S
C2971 C2970 1.372 . S
C2971 C2972 1.400 . S
C2971 C2976 1.490 . S
C2972 H2962 0.930 . S
C2972 C2971 1.400 . S
C2972 C2975 1.386 . S
H2973 C2989 0.930 . S
H2974 C2990 0.931 . S
C2975 H2963 0.929 . S
C2975 C2969 1.390 . S
C2975 C2972 1.386 . S
C2976 C2971 1.490 . S
C2976 C2978 1.395 . S
C2976 C2979 1.403 . S
H2977 C2983 0.930 . S
C2978 H2964 0.930 . S
C2978 C2976 1.395 . S
C2978 C2981 1.403 . S
C2979 C2976 1.403 . S
C2979 C2980 1.524 . S
C2979 C2983 1.400 . S
C2980 H2965 0.960 . S
C2980 H2966 0.960 . S
C2980 H2967 0.960 . S
C2980 C2979 1.524 . S
C2981 C2978 1.403 . S
C2981 C2982 1.392 . S
C2981 C2985 1.495 . S
C2982 C2981 1.392 . S
C2982 C2983 1.385 . S
C2982 C2984 1.478 . S
C2983 H2977 0.930 . S
C2983 C2979 1.400 . S
C2983 C2982 1.385 . S
C2984 C2982 1.478 . S
C2984 C2986 1.381 . S
C2984 C2990 1.383 . S
C2985 C2981 1.495 . S
C2985 H2991 0.959 . S
C2985 H2992 0.961 . S
C2985 H2993 0.960 . S
C2986 C2984 1.381 . S
C2986 C2987 1.394 . S
C2986 H2994 0.930 . S
C2987 C2986 1.394 . S
C2987 C2988 1.383 . S
C2987 H2995 0.929 . S
C2988 C2987 1.383 . S
C2988 C2989 1.377 . S
C2989 H2973 0.930 . S
C2989 C2988 1.377 . S
C2989 C2990 1.379 . S
C2990 H2974 0.931 . S
C2990 C2984 1.383 . S
C2990 C2989 1.379 . S
H2991 C2985 0.959 . S
H2992 C2985 0.961 . S
H2993 C2985 0.960 . S
H2994 C2986 0.930 . S
H2995 C2987 0.929 . S
H2996 C3004 0.929 . S
H2997 C3006 0.930 . S
H2998 C3008 0.930 . S
H2999 C3011 0.929 . S
H3000 C3014 0.930 . S
H3001 C3016 0.960 . S
H3002 C3016 0.960 . S
H3003 C3016 0.960 . S
C3004 H2996 0.929 . S
C3004 C3005 1.377 . S
C3004 C3006 1.384 . S
C3005 C3004 1.377 . S
C3005 C3011 1.390 . S
C3006 H2997 0.930 . S
C3006 C3004 1.384 . S
C3006 C3007 1.372 . S
C3007 C3006 1.372 . S
C3007 C3008 1.400 . S
C3007 C3012 1.490 . S
C3008 H2998 0.930 . S
C3008 C3007 1.400 . S
C3008 C3011 1.386 . S
H3009 C3025 0.930 . S
H3010 C3026 0.931 . S
C3011 H2999 0.929 . S
C3011 C3005 1.390 . S
C3011 C3008 1.386 . S
C3012 C3007 1.490 . S
C3012 C3014 1.395 . S
C3012 C3015 1.403 . S
H3013 C3019 0.930 . S
C3014 H3000 0.930 . S
C3014 C3012 1.395 . S
C3014 C3017 1.403 . S
C3015 C3012 1.403 . S
C3015 C3016 1.524 . S
C3015 C3019 1.400 . S
C3016 H3001 0.960 . S
C3016 H3002 0.960 . S
C3016 H3003 0.960 . S
C3016 C3015 1.524 . S
C3017 C3014 1.403 . S
C3017 C3018 1.392 . S
C3017 C3021 1.495 . S
C3018 C3017 1.392 . S
C3018 C3019 1.385 . S
C3018 C3020 1.478 . S
C3019 H3013 0.930 . S
C3019 C3015 1.400 . S
C3019 C3018 1.385 . S
C3020 C3018 1.478 . S
C3020 C3022 1.381 . S
C3020 C3026 1.383 . S
C3021 C3017 1.495 . S
C3021 H3027 0.959 . S
C3021 H3028 0.961 . S
C3021 H3029 0.960 . S
C3022 C3020 1.381 . S
C3022 C3023 1.394 . S
C3022 H3030 0.930 . S
C3023 C3022 1.394 . S
C3023 C3024 1.383 . S
C3023 H3031 0.929 . S
C3024 C3023 1.383 . S
C3024 C3025 1.377 . S
C3025 H3009 0.930 . S
C3025 C3024 1.377 . S
C3025 C3026 1.379 . S
C3026 H3010 0.931 . S
C3026 C3020 1.383 . S
C3026 C3025 1.379 . S
H3027 C3021 0.959 . S
H3028 C3021 0.961 . S
H3029 C3021 0.960 . S
H3030 C3022 0.930 . S
H3031 C3023 0.929 . S
H3032 C3040 0.929 . S
H3033 C3042 0.930 . S
H3034 C3044 0.930 . S
H3035 C3047 0.929 . S
H3036 C3050 0.930 . S
H3037 C3052 0.960 . S
H3038 C3052 0.960 . S
H3039 C3052 0.960 . S
C3040 H3032 0.929 . S
C3040 C3041 1.377 . S
C3040 C3042 1.384 . S
C3041 C3040 1.377 . S
C3041 C3047 1.390 . S
C3042 H3033 0.930 . S
C3042 C3040 1.384 . S
C3042 C3043 1.372 . S
C3043 C3042 1.372 . S
C3043 C3044 1.400 . S
C3043 C3048 1.490 . S
C3044 H3034 0.930 . S
C3044 C3043 1.400 . S
C3044 C3047 1.386 . S
H3045 C3061 0.930 . S
H3046 C3062 0.931 . S
C3047 H3035 0.929 . S
C3047 C3041 1.390 . S
C3047 C3044 1.386 . S
C3048 C3043 1.490 . S
C3048 C3050 1.395 . S
C3048 C3051 1.403 . S
H3049 C3055 0.930 . S
C3050 H3036 0.930 . S
C3050 C3048 1.395 . S
C3050 C3053 1.403 . S
C3051 C3048 1.403 . S
C3051 C3052 1.524 . S
C3051 C3055 1.400 . S
C3052 H3037 0.960 . S
C3052 H3038 0.960 . S
C3052 H3039 0.960 . S
C3052 C3051 1.524 . S
C3053 C3050 1.403 . S
C3053 C3054 1.392 . S
C3053 C3057 1.495 . S
C3054 C3053 1.392 . S
C3054 C3055 1.385 . S
C3054 C3056 1.478 . S
C3055 H3049 0.930 . S
C3055 C3051 1.400 . S
C3055 C3054 1.385 . S
C3056 C3054 1.478 . S
C3056 C3058 1.381 . S
C3056 C3062 1.383 . S
C3057 C3053 1.495 . S
C3057 H3063 0.959 . S
C3057 H3064 0.961 . S
C3057 H3065 0.960 . S
C3058 C3056 1.381 . S
C3058 C3059 1.394 . S
C3058 H3066 0.930 . S
C3059 C3058 1.394 . S
C3059 C3060 1.383 . S
C3059 H3067 0.929 . S
C3060 C3059 1.383 . S
C3060 C3061 1.377 . S
C3061 H3045 0.930 . S
C3061 C3060 1.377 . S
C3061 C3062 1.379 . S
C3062 H3046 0.931 . S
C3062 C3056 1.383 . S
C3062 C3061 1.379 . S
H3063 C3057 0.959 . S
H3064 C3057 0.961 . S
H3065 C3057 0.960 . S
H3066 C3058 0.930 . S
H3067 C3059 0.929 . S
H3068 C3076 0.929 . S
H3069 C3078 0.930 . S
H3070 C3080 0.930 . S
H3071 C3083 0.929 . S
H3072 C3086 0.930 . S
H3073 C3088 0.960 1_545 S
H3074 C3088 0.960 . S
H3075 C3088 0.960 . S
C3076 H3068 0.929 . S
C3076 C3077 1.377 . S
C3076 C3078 1.384 . S
C3077 C3076 1.377 . S
C3077 C3083 1.390 . S
C3078 H3069 0.930 . S
C3078 C3076 1.384 . S
C3078 C3079 1.372 . S
C3079 C3078 1.372 . S
C3079 C3080 1.400 . S
C3079 C3084 1.490 . S
C3080 H3070 0.930 . S
C3080 C3079 1.400 . S
C3080 C3083 1.386 . S
H3081 C3097 0.930 1_556 S
H3082 C3098 0.935 1_556 S
C3083 H3071 0.929 . S
C3083 C3077 1.390 . S
C3083 C3080 1.386 . S
C3084 C3079 1.490 . S
C3084 C3086 1.395 . S
C3084 C3087 1.403 . S
H3085 C3091 0.973 . S
C3086 H3072 0.930 . S
C3086 C3084 1.395 . S
C3086 C3089 1.403 . S
C3087 C3084 1.403 . S
C3087 C3088 1.524 . S
C3087 C3091 1.400 . S
C3088 H3073 0.960 1_565 S
C3088 H3074 0.960 . S
C3088 H3075 0.960 . S
C3088 C3087 1.524 . S
C3089 C3086 1.403 . S
C3089 C3090 1.392 . S
C3089 C3093 1.495 . S
C3090 C3089 1.392 . S
C3090 C3091 1.385 . S
C3090 C3092 1.478 . S
C3091 H3085 0.973 . S
C3091 C3087 1.400 . S
C3091 C3090 1.385 . S
C3092 C3090 1.478 . S
C3092 C3094 1.381 . S
C3092 C3098 1.374 1_565 S
C3093 C3089 1.495 . S
C3093 H3099 0.959 . S
C3093 H3100 0.961 1_554 S
C3093 H3101 0.960 . S
C3094 C3092 1.381 . S
C3094 C3095 1.394 . S
C3094 H3102 0.930 . S
C3095 C3094 1.394 . S
C3095 C3096 1.383 1_565 S
C3095 H3103 0.929 . S
C3096 C3095 1.383 1_545 S
C3096 C3097 1.377 . S
C3097 H3081 0.930 1_554 S
C3097 C3096 1.377 . S
C3097 C3098 1.384 . S
C3098 H3082 0.935 1_554 S
C3098 C3092 1.374 1_545 S
C3098 C3097 1.384 . S
H3099 C3093 0.959 . S
H3100 C3093 0.961 1_556 S
H3101 C3093 0.960 . S
H3102 C3094 0.930 . S
H3103 C3095 0.929 . S
H3104 C3112 0.929 . S
H3105 C3114 0.930 . S
H3106 C3116 0.930 . S
H3107 C3119 0.929 . S
H3108 C3122 0.930 . S
H3109 C3124 0.960 . S
H3110 C3124 0.960 . S
H3111 C3124 0.960 . S
C3112 H3104 0.929 . S
C3112 C3113 1.377 . S
C3112 C3114 1.384 . S
C3113 C3112 1.377 . S
C3113 C3119 1.390 . S
C3114 H3105 0.930 . S
C3114 C3112 1.384 . S
C3114 C3115 1.372 . S
C3115 C3114 1.372 . S
C3115 C3116 1.400 . S
C3115 C3120 1.490 . S
C3116 H3106 0.930 . S
C3116 C3115 1.400 . S
C3116 C3119 1.386 . S
H3117 C3133 0.930 . S
H3118 C3134 0.931 . S
C3119 H3107 0.929 . S
C3119 C3113 1.390 . S
C3119 C3116 1.386 . S
C3120 C3115 1.490 . S
C3120 C3122 1.395 . S
C3120 C3123 1.403 . S
H3121 C3127 0.930 . S
C3122 H3108 0.930 . S
C3122 C3120 1.395 . S
C3122 C3125 1.403 . S
C3123 C3120 1.403 . S
C3123 C3124 1.524 . S
C3123 C3127 1.400 . S
C3124 H3109 0.960 . S
C3124 H3110 0.960 . S
C3124 H3111 0.960 . S
C3124 C3123 1.524 . S
C3125 C3122 1.403 . S
C3125 C3126 1.392 . S
C3125 C3129 1.495 . S
C3126 C3125 1.392 . S
C3126 C3127 1.385 . S
C3126 C3128 1.478 . S
C3127 H3121 0.930 . S
C3127 C3123 1.400 . S
C3127 C3126 1.385 . S
C3128 C3126 1.478 . S
C3128 C3130 1.381 . S
C3128 C3134 1.383 . S
C3129 C3125 1.495 . S
C3129 H3135 0.959 . S
C3129 H3136 0.961 . S
C3129 H3137 0.960 . S
C3130 C3128 1.381 . S
C3130 C3131 1.394 . S
C3130 H3138 0.930 . S
C3131 C3130 1.394 . S
C3131 C3132 1.383 . S
C3131 H3139 0.929 . S
C3132 C3131 1.383 . S
C3132 C3133 1.377 . S
C3133 H3117 0.930 . S
C3133 C3132 1.377 . S
C3133 C3134 1.379 . S
C3134 H3118 0.931 . S
C3134 C3128 1.383 . S
C3134 C3133 1.379 . S
H3135 C3129 0.959 . S
H3136 C3129 0.961 . S
H3137 C3129 0.960 . S
H3138 C3130 0.930 . S
H3139 C3131 0.929 . S
H3140 C3148 0.936 . S
H3141 C3150 0.930 1_556 S
H3142 C3152 0.930 . S
H3143 C3155 0.929 . S
H3144 C3158 0.930 . S
H3145 C3160 0.960 . S
H3146 C3160 0.960 . S
H3147 C3160 0.960 . S
C3148 H3140 0.936 . S
C3148 C3149 1.372 1_556 S
C3148 C3150 1.383 1_556 S
C3149 C3148 1.372 1_554 S
C3149 C3155 1.390 . S
C3150 H3141 0.930 1_554 S
C3150 C3148 1.383 1_554 S
C3150 C3151 1.372 . S
C3151 C3150 1.372 . S
C3151 C3152 1.400 . S
C3151 C3156 1.490 . S
C3152 H3142 0.930 . S
C3152 C3151 1.400 . S
C3152 C3155 1.386 . S
H3153 C3169 0.930 . S
H3154 C3170 0.931 . S
C3155 H3143 0.929 . S
C3155 C3149 1.390 . S
C3155 C3152 1.386 . S
C3156 C3151 1.490 . S
C3156 C3158 1.395 . S
C3156 C3159 1.403 . S
H3157 C3163 0.930 . S
C3158 H3144 0.930 . S
C3158 C3156 1.395 . S
C3158 C3161 1.403 . S
C3159 C3156 1.403 . S
C3159 C3160 1.524 . S
C3159 C3163 1.400 . S
C3160 H3145 0.960 . S
C3160 H3146 0.960 . S
C3160 H3147 0.960 . S
C3160 C3159 1.524 . S
C3161 C3158 1.403 . S
C3161 C3162 1.392 . S
C3161 C3165 1.495 . S
C3162 C3161 1.392 . S
C3162 C3163 1.385 . S
C3162 C3164 1.478 . S
C3163 H3157 0.930 . S
C3163 C3159 1.400 . S
C3163 C3162 1.385 . S
C3164 C3162 1.478 . S
C3164 C3166 1.381 . S
C3164 C3170 1.383 . S
C3165 C3161 1.495 . S
C3165 H3171 0.959 . S
C3165 H3172 0.961 . S
C3165 H3173 0.960 . S
C3166 C3164 1.381 . S
C3166 C3167 1.394 . S
C3166 H3174 0.930 1_554 S
C3167 C3166 1.394 . S
C3167 C3168 1.383 . S
C3167 H3175 0.929 . S
C3168 C3167 1.383 . S
C3168 C3169 1.377 . S
C3169 H3153 0.930 . S
C3169 C3168 1.377 . S
C3169 C3170 1.379 . S
C3170 H3154 0.931 . S
C3170 C3164 1.383 . S
C3170 C3169 1.379 . S
H3171 C3165 0.959 . S
H3172 C3165 0.961 . S
H3173 C3165 0.960 . S
H3174 C3166 0.930 1_556 S
H3175 C3167 0.929 . S
H3176 C3184 0.929 . S
H3177 C3186 0.930 . S
H3178 C3188 0.930 . S
H3179 C3191 0.929 . S
H3180 C3194 0.930 . S
H3181 C3196 0.960 . S
H3182 C3196 0.960 . S
H3183 C3196 0.960 . S
C3184 H3176 0.929 . S
C3184 C3185 1.377 . S
C3184 C3186 1.384 . S
C3185 C3184 1.377 . S
C3185 C3191 1.390 . S
C3186 H3177 0.930 . S
C3186 C3184 1.384 . S
C3186 C3187 1.372 . S
C3187 C3186 1.372 . S
C3187 C3188 1.400 . S
C3187 C3192 1.490 . S
C3188 H3178 0.930 . S
C3188 C3187 1.400 . S
C3188 C3191 1.386 . S
H3189 C3205 0.930 . S
H3190 C3206 0.931 . S
C3191 H3179 0.929 . S
C3191 C3185 1.390 . S
C3191 C3188 1.386 . S
C3192 C3187 1.490 . S
C3192 C3194 1.395 . S
C3192 C3195 1.403 . S
H3193 C3199 0.930 . S
C3194 H3180 0.930 . S
C3194 C3192 1.395 . S
C3194 C3197 1.403 . S
C3195 C3192 1.403 . S
C3195 C3196 1.524 . S
C3195 C3199 1.400 . S
C3196 H3181 0.960 . S
C3196 H3182 0.960 . S
C3196 H3183 0.960 . S
C3196 C3195 1.524 . S
C3197 C3194 1.403 . S
C3197 C3198 1.392 . S
C3197 C3201 1.495 . S
C3198 C3197 1.392 . S
C3198 C3199 1.385 . S
C3198 C3200 1.478 . S
C3199 H3193 0.930 . S
C3199 C3195 1.400 . S
C3199 C3198 1.385 . S
C3200 C3198 1.478 . S
C3200 C3202 1.381 . S
C3200 C3206 1.383 . S
C3201 C3197 1.495 . S
C3201 H3207 0.959 . S
C3201 H3208 0.961 . S
C3201 H3209 0.960 . S
C3202 C3200 1.381 . S
C3202 C3203 1.394 . S
C3202 H3210 0.930 . S
C3203 C3202 1.394 . S
C3203 C3204 1.383 . S
C3203 H3211 0.929 . S
C3204 C3203 1.383 . S
C3204 C3205 1.377 . S
C3205 H3189 0.930 . S
C3205 C3204 1.377 . S
C3205 C3206 1.379 . S
C3206 H3190 0.931 . S
C3206 C3200 1.383 . S
C3206 C3205 1.379 . S
H3207 C3201 0.959 . S
H3208 C3201 0.961 . S
H3209 C3201 0.960 . S
H3210 C3202 0.930 . S
H3211 C3203 0.929 . S
H3212 C3220 0.929 . S
H3213 C3222 0.930 . S
H3214 C3224 0.930 . S
H3215 C3227 0.929 . S
H3216 C3230 0.930 . S
H3217 C3232 0.960 . S
H3218 C3232 0.960 . S
H3219 C3232 0.960 . S
C3220 H3212 0.929 . S
C3220 C3221 1.377 . S
C3220 C3222 1.384 . S
C3221 C3220 1.377 . S
C3221 C3227 1.390 . S
C3222 H3213 0.930 . S
C3222 C3220 1.384 . S
C3222 C3223 1.372 . S
C3223 C3222 1.372 . S
C3223 C3224 1.400 . S
C3223 C3228 1.490 . S
C3224 H3214 0.930 . S
C3224 C3223 1.400 . S
C3224 C3227 1.386 . S
H3225 C3241 0.930 . S
H3226 C3242 0.931 . S
C3227 H3215 0.929 . S
C3227 C3221 1.390 . S
C3227 C3224 1.386 . S
C3228 C3223 1.490 . S
C3228 C3230 1.395 . S
C3228 C3231 1.403 . S
H3229 C3235 0.930 . S
C3230 H3216 0.930 . S
C3230 C3228 1.395 . S
C3230 C3233 1.403 . S
C3231 C3228 1.403 . S
C3231 C3232 1.524 . S
C3231 C3235 1.400 . S
C3232 H3217 0.960 . S
C3232 H3218 0.960 . S
C3232 H3219 0.960 . S
C3232 C3231 1.524 . S
C3233 C3230 1.403 . S
C3233 C3234 1.392 . S
C3233 C3237 1.495 . S
C3234 C3233 1.392 . S
C3234 C3235 1.385 . S
C3234 C3236 1.478 . S
C3235 H3229 0.930 . S
C3235 C3231 1.400 . S
C3235 C3234 1.385 . S
C3236 C3234 1.478 . S
C3236 C3238 1.381 . S
C3236 C3242 1.383 . S
C3237 C3233 1.495 . S
C3237 H3243 0.959 . S
C3237 H3244 0.961 . S
C3237 H3245 0.960 . S
C3238 C3236 1.381 . S
C3238 C3239 1.394 . S
C3238 H3246 0.930 . S
C3239 C3238 1.394 . S
C3239 C3240 1.383 . S
C3239 H3247 0.929 . S
C3240 C3239 1.383 . S
C3240 C3241 1.377 . S
C3241 H3225 0.930 . S
C3241 C3240 1.377 . S
C3241 C3242 1.379 . S
C3242 H3226 0.931 . S
C3242 C3236 1.383 . S
C3242 C3241 1.379 . S
H3243 C3237 0.959 . S
H3244 C3237 0.961 . S
H3245 C3237 0.960 . S
H3246 C3238 0.930 . S
H3247 C3239 0.929 . S
H3248 C3256 0.929 . S
H3249 C3258 0.930 . S
H3250 C3260 0.930 . S
H3251 C3263 0.929 . S
H3252 C3266 0.930 . S
H3253 C3268 0.960 . S
H3254 C3268 0.960 . S
H3255 C3268 0.960 . S
C3256 H3248 0.929 . S
C3256 C3257 1.377 . S
C3256 C3258 1.384 . S
C3257 C3256 1.377 . S
C3257 C3263 1.390 . S
C3258 H3249 0.930 . S
C3258 C3256 1.384 . S
C3258 C3259 1.372 . S
C3259 C3258 1.372 . S
C3259 C3260 1.400 . S
C3259 C3264 1.490 . S
C3260 H3250 0.930 . S
C3260 C3259 1.400 . S
C3260 C3263 1.386 . S
H3261 C3277 0.930 . S
H3262 C3278 0.931 . S
C3263 H3251 0.929 . S
C3263 C3257 1.390 . S
C3263 C3260 1.386 . S
C3264 C3259 1.490 . S
C3264 C3266 1.395 . S
C3264 C3267 1.403 . S
H3265 C3271 0.930 . S
C3266 H3252 0.930 . S
C3266 C3264 1.395 . S
C3266 C3269 1.403 . S
C3267 C3264 1.403 . S
C3267 C3268 1.524 . S
C3267 C3271 1.400 . S
C3268 H3253 0.960 . S
C3268 H3254 0.960 . S
C3268 H3255 0.960 . S
C3268 C3267 1.524 . S
C3269 C3266 1.403 . S
C3269 C3270 1.392 . S
C3269 C3273 1.495 . S
C3270 C3269 1.392 . S
C3270 C3271 1.385 . S
C3270 C3272 1.478 . S
C3271 H3265 0.930 . S
C3271 C3267 1.400 . S
C3271 C3270 1.385 . S
C3272 C3270 1.478 . S
C3272 C3274 1.381 . S
C3272 C3278 1.383 . S
C3273 C3269 1.495 . S
C3273 H3279 0.959 . S
C3273 H3280 0.961 . S
C3273 H3281 0.960 . S
C3274 C3272 1.381 . S
C3274 C3275 1.394 . S
C3274 H3282 0.930 . S
C3275 C3274 1.394 . S
C3275 C3276 1.383 . S
C3275 H3283 0.929 . S
C3276 C3275 1.383 . S
C3276 C3277 1.377 . S
C3277 H3261 0.930 . S
C3277 C3276 1.377 . S
C3277 C3278 1.379 . S
C3278 H3262 0.931 . S
C3278 C3272 1.383 . S
C3278 C3277 1.379 . S
H3279 C3273 0.959 . S
H3280 C3273 0.961 . S
H3281 C3273 0.960 . S
H3282 C3274 0.930 . S
H3283 C3275 0.929 . S
H3284 C3292 0.929 . S
H3285 C3294 0.930 . S
H3286 C3296 0.930 . S
H3287 C3299 0.929 . S
H3288 C3302 0.930 . S
H3289 C3304 0.960 . S
H3290 C3304 0.960 . S
H3291 C3304 0.960 . S
C3292 H3284 0.929 . S
C3292 C3293 1.377 . S
C3292 C3294 1.384 . S
C3293 C3292 1.377 . S
C3293 C3299 1.390 . S
C3294 H3285 0.930 . S
C3294 C3292 1.384 . S
C3294 C3295 1.372 . S
C3295 C3294 1.372 . S
C3295 C3296 1.400 . S
C3295 C3300 1.490 . S
C3296 H3286 0.930 . S
C3296 C3295 1.400 . S
C3296 C3299 1.386 . S
H3297 C3313 0.930 . S
H3298 C3314 0.931 . S
C3299 H3287 0.929 . S
C3299 C3293 1.390 . S
C3299 C3296 1.386 . S
C3300 C3295 1.490 . S
C3300 C3302 1.395 . S
C3300 C3303 1.403 . S
H3301 C3307 0.930 . S
C3302 H3288 0.930 . S
C3302 C3300 1.395 . S
C3302 C3305 1.403 . S
C3303 C3300 1.403 . S
C3303 C3304 1.524 . S
C3303 C3307 1.400 . S
C3304 H3289 0.960 . S
C3304 H3290 0.960 . S
C3304 H3291 0.960 . S
C3304 C3303 1.524 . S
C3305 C3302 1.403 . S
C3305 C3306 1.392 . S
C3305 C3309 1.495 . S
C3306 C3305 1.392 . S
C3306 C3307 1.385 . S
C3306 C3308 1.478 . S
C3307 H3301 0.930 . S
C3307 C3303 1.400 . S
C3307 C3306 1.385 . S
C3308 C3306 1.478 . S
C3308 C3310 1.381 . S
C3308 C3314 1.383 . S
C3309 C3305 1.495 . S
C3309 H3315 0.959 . S
C3309 H3316 0.961 . S
C3309 H3317 0.960 . S
C3310 C3308 1.381 . S
C3310 C3311 1.394 . S
C3310 H3318 0.930 . S
C3311 C3310 1.394 . S
C3311 C3312 1.383 . S
C3311 H3319 0.929 . S
C3312 C3311 1.383 . S
C3312 C3313 1.377 . S
C3313 H3297 0.930 . S
C3313 C3312 1.377 . S
C3313 C3314 1.379 . S
C3314 H3298 0.931 . S
C3314 C3308 1.383 . S
C3314 C3313 1.379 . S
H3315 C3309 0.959 . S
H3316 C3309 0.961 . S
H3317 C3309 0.960 . S
H3318 C3310 0.930 . S
H3319 C3311 0.929 . S
H3320 C3328 0.929 . S
H3321 C3330 0.930 . S
H3322 C3332 0.930 . S
H3323 C3335 0.929 . S
H3324 C3338 0.969 . S
H3325 C3340 0.960 . S
H3326 C3340 0.960 . S
H3327 C3340 0.960 . S
C3328 H3320 0.929 . S
C3328 C3329 1.377 . S
C3328 C3330 1.384 . S
C3329 C3328 1.377 . S
C3329 C3335 1.390 . S
C3330 H3321 0.930 . S
C3330 C3328 1.384 . S
C3330 C3331 1.372 . S
C3331 C3330 1.372 . S
C3331 C3332 1.400 . S
C3331 C3336 1.490 . S
C3332 H3322 0.930 . S
C3332 C3331 1.400 . S
C3332 C3335 1.386 . S
H3333 C3349 0.930 . S
H3334 C3350 0.931 . S
C3335 H3323 0.929 . S
C3335 C3329 1.390 . S
C3335 C3332 1.386 . S
C3336 C3331 1.490 . S
C3336 C3338 1.363 1_455 S
C3336 C3339 1.403 . S
H3337 C3343 0.930 . S
C3338 H3324 0.969 . S
C3338 C3336 1.363 1_655 S
C3338 C3341 1.399 . S
C3339 C3336 1.403 . S
C3339 C3340 1.524 . S
C3339 C3343 1.400 . S
C3340 H3325 0.960 . S
C3340 H3326 0.960 . S
C3340 H3327 0.960 . S
C3340 C3339 1.524 . S
C3341 C3338 1.399 . S
C3341 C3342 1.392 1_655 S
C3341 C3345 1.495 . S
C3342 C3341 1.392 1_455 S
C3342 C3343 1.385 . S
C3342 C3344 1.478 . S
C3343 H3337 0.930 . S
C3343 C3339 1.400 . S
C3343 C3342 1.385 . S
C3344 C3342 1.478 . S
C3344 C3346 1.381 . S
C3344 C3350 1.383 . S
C3345 C3341 1.495 . S
C3345 H3351 0.959 . S
C3345 H3352 0.961 . S
C3345 H3353 0.960 . S
C3346 C3344 1.381 . S
C3346 C3347 1.394 . S
C3346 H3354 0.930 . S
C3347 C3346 1.394 . S
C3347 C3348 1.383 . S
C3347 H3355 0.929 . S
C3348 C3347 1.383 . S
C3348 C3349 1.377 . S
C3349 H3333 0.930 . S
C3349 C3348 1.377 . S
C3349 C3350 1.379 . S
C3350 H3334 0.931 . S
C3350 C3344 1.383 . S
C3350 C3349 1.379 . S
H3351 C3345 0.959 . S
H3352 C3345 0.961 . S
H3353 C3345 0.960 . S
H3354 C3346 0.930 . S
H3355 C3347 0.929 . S
H3356 C3364 0.929 . S
H3357 C3366 0.930 . S
H3358 C3368 0.930 . S
H3359 C3371 0.929 . S
H3360 C3374 0.930 . S
H3361 C3376 0.960 . S
H3362 C3376 0.960 . S
H3363 C3376 0.960 . S
C3364 H3356 0.929 . S
C3364 C3365 1.377 . S
C3364 C3366 1.384 . S
C3365 C3364 1.377 . S
C3365 C3371 1.390 . S
C3366 H3357 0.930 . S
C3366 C3364 1.384 . S
C3366 C3367 1.372 . S
C3367 C3366 1.372 . S
C3367 C3368 1.400 . S
C3367 C3372 1.490 . S
C3368 H3358 0.930 . S
C3368 C3367 1.400 . S
C3368 C3371 1.386 . S
H3369 C3385 0.930 . S
H3370 C3386 0.931 . S
C3371 H3359 0.929 . S
C3371 C3365 1.390 . S
C3371 C3368 1.386 . S
C3372 C3367 1.490 . S
C3372 C3374 1.395 . S
C3372 C3375 1.403 . S
H3373 C3379 0.930 . S
C3374 H3360 0.930 . S
C3374 C3372 1.395 . S
C3374 C3377 1.403 . S
C3375 C3372 1.403 . S
C3375 C3376 1.524 . S
C3375 C3379 1.400 . S
C3376 H3361 0.960 . S
C3376 H3362 0.960 . S
C3376 H3363 0.960 . S
C3376 C3375 1.524 . S
C3377 C3374 1.403 . S
C3377 C3378 1.392 . S
C3377 C3381 1.495 . S
C3378 C3377 1.392 . S
C3378 C3379 1.385 . S
C3378 C3380 1.478 . S
C3379 H3373 0.930 . S
C3379 C3375 1.400 . S
C3379 C3378 1.385 . S
C3380 C3378 1.478 . S
C3380 C3382 1.381 . S
C3380 C3386 1.383 . S
C3381 C3377 1.495 . S
C3381 H3387 0.959 . S
C3381 H3388 0.961 . S
C3381 H3389 0.960 . S
C3382 C3380 1.381 . S
C3382 C3383 1.394 . S
C3382 H3390 0.930 . S
C3383 C3382 1.394 . S
C3383 C3384 1.383 . S
C3383 H3391 0.929 . S
C3384 C3383 1.383 . S
C3384 C3385 1.377 . S
C3385 H3369 0.930 . S
C3385 C3384 1.377 . S
C3385 C3386 1.379 . S
C3386 H3370 0.931 . S
C3386 C3380 1.383 . S
C3386 C3385 1.379 . S
H3387 C3381 0.959 . S
H3388 C3381 0.961 . S
H3389 C3381 0.960 . S
H3390 C3382 0.930 . S
H3391 C3383 0.929 . S
H3392 C3400 0.929 . S
H3393 C3402 0.930 . S
H3394 C3404 0.930 . S
H3395 C3407 0.929 . S
H3396 C3410 0.930 . S
H3397 C3412 0.960 . S
H3398 C3412 0.960 . S
H3399 C3412 0.960 . S
C3400 H3392 0.929 . S
C3400 C3401 1.377 . S
C3400 C3402 1.384 . S
C3401 C3400 1.377 . S
C3401 C3407 1.390 . S
C3402 H3393 0.930 . S
C3402 C3400 1.384 . S
C3402 C3403 1.372 . S
C3403 C3402 1.372 . S
C3403 C3404 1.400 . S
C3403 C3408 1.490 . S
C3404 H3394 0.930 . S
C3404 C3403 1.400 . S
C3404 C3407 1.386 . S
H3405 C3421 0.885 1_554 S
H3406 C3422 0.931 . S
C3407 H3395 0.929 . S
C3407 C3401 1.390 . S
C3407 C3404 1.386 . S
C3408 C3403 1.490 . S
C3408 C3410 1.395 . S
C3408 C3411 1.403 . S
H3409 C3415 0.930 . S
C3410 H3396 0.930 . S
C3410 C3408 1.395 . S
C3410 C3413 1.403 . S
C3411 C3408 1.403 . S
C3411 C3412 1.524 . S
C3411 C3415 1.400 . S
C3412 H3397 0.960 . S
C3412 H3398 0.960 . S
C3412 H3399 0.960 . S
C3412 C3411 1.524 . S
C3413 C3410 1.403 . S
C3413 C3414 1.392 . S
C3413 C3417 1.495 . S
C3414 C3413 1.392 . S
C3414 C3415 1.385 . S
C3414 C3416 1.478 . S
C3415 H3409 0.930 . S
C3415 C3411 1.400 . S
C3415 C3414 1.385 . S
C3416 C3414 1.478 . S
C3416 C3418 1.381 . S
C3416 C3422 1.383 . S
C3417 C3413 1.495 . S
C3417 H3423 0.959 . S
C3417 H3424 0.961 . S
C3417 H3425 0.960 . S
C3418 C3416 1.381 . S
C3418 C3419 1.394 . S
C3418 H3426 0.930 . S
C3419 C3418 1.394 . S
C3419 C3420 1.383 . S
C3419 H3427 0.929 . S
C3420 C3419 1.383 . S
C3420 C3421 1.394 . S
C3421 H3405 0.885 1_556 S
C3421 C3420 1.394 . S
C3421 C3422 1.408 . S
C3422 H3406 0.931 . S
C3422 C3416 1.383 . S
C3422 C3421 1.408 . S
H3423 C3417 0.959 . S
H3424 C3417 0.961 . S
H3425 C3417 0.960 . S
H3426 C3418 0.930 . S
H3427 C3419 0.929 . S
H3428 C3436 0.929 . S
H3429 C3438 0.930 . S
H3430 C3440 0.930 . S
H3431 C3443 0.929 . S
H3432 C3446 0.930 . S
H3433 C3448 0.960 . S
H3434 C3448 0.960 . S
H3435 C3448 0.960 . S
C3436 H3428 0.929 . S
C3436 C3437 1.377 . S
C3436 C3438 1.384 . S
C3437 C3436 1.377 . S
C3437 C3443 1.390 . S
C3438 H3429 0.930 . S
C3438 C3436 1.384 . S
C3438 C3439 1.372 . S
C3439 C3438 1.372 . S
C3439 C3440 1.400 . S
C3439 C3444 1.490 . S
C3440 H3430 0.930 . S
C3440 C3439 1.400 . S
C3440 C3443 1.386 . S
H3441 C3457 0.930 . S
H3442 C3458 0.931 . S
C3443 H3431 0.929 . S
C3443 C3437 1.390 . S
C3443 C3440 1.386 . S
C3444 C3439 1.490 . S
C3444 C3446 1.395 . S
C3444 C3447 1.403 . S
H3445 C3451 0.930 . S
C3446 H3432 0.930 . S
C3446 C3444 1.395 . S
C3446 C3449 1.403 . S
C3447 C3444 1.403 . S
C3447 C3448 1.524 . S
C3447 C3451 1.400 . S
C3448 H3433 0.960 . S
C3448 H3434 0.960 . S
C3448 H3435 0.960 . S
C3448 C3447 1.524 . S
C3449 C3446 1.403 . S
C3449 C3450 1.392 . S
C3449 C3453 1.495 . S
C3450 C3449 1.392 . S
C3450 C3451 1.385 . S
C3450 C3452 1.478 . S
C3451 H3445 0.930 . S
C3451 C3447 1.400 . S
C3451 C3450 1.385 . S
C3452 C3450 1.478 . S
C3452 C3454 1.381 . S
C3452 C3458 1.383 . S
C3453 C3449 1.495 . S
C3453 H3459 0.959 . S
C3453 H3460 0.961 . S
C3453 H3461 0.960 . S
C3454 C3452 1.381 . S
C3454 C3455 1.394 . S
C3454 H3462 0.930 . S
C3455 C3454 1.394 . S
C3455 C3456 1.383 . S
C3455 H3463 0.929 . S
C3456 C3455 1.383 . S
C3456 C3457 1.377 . S
C3457 H3441 0.930 . S
C3457 C3456 1.377 . S
C3457 C3458 1.379 . S
C3458 H3442 0.931 . S
C3458 C3452 1.383 . S
C3458 C3457 1.379 . S
H3459 C3453 0.959 . S
H3460 C3453 0.961 . S
H3461 C3453 0.960 . S
H3462 C3454 0.930 . S
H3463 C3455 0.929 . S
H3464 C3472 0.929 . S
H3465 C3474 0.930 . S
H3466 C3476 0.930 . S
H3467 C3479 0.929 . S
H3468 C3482 0.930 . S
H3469 C3484 0.960 . S
H3470 C3484 0.960 . S
H3471 C3484 0.960 . S
C3472 H3464 0.929 . S
C3472 C3473 1.377 . S
C3472 C3474 1.384 . S
C3473 C3472 1.377 . S
C3473 C3479 1.390 . S
C3474 H3465 0.930 . S
C3474 C3472 1.384 . S
C3474 C3475 1.372 . S
C3475 C3474 1.372 . S
C3475 C3476 1.400 . S
C3475 C3480 1.490 . S
C3476 H3466 0.930 . S
C3476 C3475 1.400 . S
C3476 C3479 1.386 . S
H3477 C3493 0.930 . S
H3478 C3494 0.931 . S
C3479 H3467 0.929 . S
C3479 C3473 1.390 . S
C3479 C3476 1.386 . S
C3480 C3475 1.490 . S
C3480 C3482 1.395 . S
C3480 C3483 1.403 . S
H3481 C3487 0.930 1_655 S
C3482 H3468 0.930 . S
C3482 C3480 1.395 . S
C3482 C3485 1.403 . S
C3483 C3480 1.403 . S
C3483 C3484 1.524 1_455 S
C3483 C3487 1.400 . S
C3484 H3469 0.960 . S
C3484 H3470 0.960 . S
C3484 H3471 0.960 . S
C3484 C3483 1.524 1_655 S
C3485 C3482 1.403 . S
C3485 C3486 1.392 . S
C3485 C3489 1.495 . S
C3486 C3485 1.392 . S
C3486 C3487 1.385 . S
C3486 C3488 1.478 . S
C3487 H3481 0.930 1_455 S
C3487 C3483 1.400 . S
C3487 C3486 1.385 . S
C3488 C3486 1.478 . S
C3488 C3490 1.381 . S
C3488 C3494 1.383 . S
C3489 C3485 1.495 . S
C3489 H3495 0.959 . S
C3489 H3496 0.961 . S
C3489 H3497 0.960 . S
C3490 C3488 1.381 . S
C3490 C3491 1.394 . S
C3490 H3498 0.930 . S
C3491 C3490 1.394 . S
C3491 C3492 1.383 . S
C3491 H3499 0.929 . S
C3492 C3491 1.383 . S
C3492 C3493 1.377 . S
C3493 H3477 0.930 . S
C3493 C3492 1.377 . S
C3493 C3494 1.379 . S
C3494 H3478 0.931 . S
C3494 C3488 1.383 . S
C3494 C3493 1.379 . S
H3495 C3489 0.959 . S
H3496 C3489 0.961 . S
H3497 C3489 0.960 . S
H3498 C3490 0.930 . S
H3499 C3491 0.929 . S
H3500 C3508 0.929 . S
H3501 C3510 0.930 . S
H3502 C3512 0.930 . S
H3503 C3515 0.929 . S
H3504 C3518 0.930 . S
H3505 C3520 0.960 . S
H3506 C3520 0.960 . S
H3507 C3520 0.960 . S
C3508 H3500 0.929 . S
C3508 C3509 1.377 . S
C3508 C3510 1.384 . S
C3509 C3508 1.377 . S
C3509 C3515 1.390 . S
C3510 H3501 0.930 . S
C3510 C3508 1.384 . S
C3510 C3511 1.372 . S
C3511 C3510 1.372 . S
C3511 C3512 1.400 . S
C3511 C3516 1.490 . S
C3512 H3502 0.930 . S
C3512 C3511 1.400 . S
C3512 C3515 1.386 . S
H3513 C3529 0.930 . S
H3514 C3530 0.931 . S
C3515 H3503 0.929 . S
C3515 C3509 1.390 . S
C3515 C3512 1.386 . S
C3516 C3511 1.490 . S
C3516 C3518 1.395 . S
C3516 C3519 1.403 . S
H3517 C3523 0.930 . S
C3518 H3504 0.930 . S
C3518 C3516 1.395 . S
C3518 C3521 1.403 . S
C3519 C3516 1.403 . S
C3519 C3520 1.524 . S
C3519 C3523 1.400 . S
C3520 H3505 0.960 . S
C3520 H3506 0.960 . S
C3520 H3507 0.960 . S
C3520 C3519 1.524 . S
C3521 C3518 1.403 . S
C3521 C3522 1.392 . S
C3521 C3525 1.495 . S
C3522 C3521 1.392 . S
C3522 C3523 1.385 . S
C3522 C3524 1.478 . S
C3523 H3517 0.930 . S
C3523 C3519 1.400 . S
C3523 C3522 1.385 . S
C3524 C3522 1.478 . S
C3524 C3526 1.381 . S
C3524 C3530 1.383 . S
C3525 C3521 1.495 . S
C3525 H3531 0.959 . S
C3525 H3532 0.961 . S
C3525 H3533 0.960 . S
C3526 C3524 1.381 . S
C3526 C3527 1.394 . S
C3526 H3534 0.930 . S
C3527 C3526 1.394 . S
C3527 C3528 1.383 . S
C3527 H3535 0.929 . S
C3528 C3527 1.383 . S
C3528 C3529 1.377 . S
C3529 H3513 0.930 . S
C3529 C3528 1.377 . S
C3529 C3530 1.379 . S
C3530 H3514 0.931 . S
C3530 C3524 1.383 . S
C3530 C3529 1.379 . S
H3531 C3525 0.959 . S
H3532 C3525 0.961 . S
H3533 C3525 0.960 . S
H3534 C3526 0.930 . S
H3535 C3527 0.929 . S
H3536 C3544 0.929 . S
H3537 C3546 0.930 . S
H3538 C3548 0.930 . S
H3539 C3551 0.929 . S
H3540 C3554 0.930 . S
H3541 C3556 0.960 . S
H3542 C3556 0.960 . S
H3543 C3556 0.960 . S
C3544 H3536 0.929 . S
C3544 C3545 1.377 . S
C3544 C3546 1.384 . S
C3545 C3544 1.377 . S
C3545 C3551 1.390 . S
C3546 H3537 0.930 . S
C3546 C3544 1.384 . S
C3546 C3547 1.372 . S
C3547 C3546 1.372 . S
C3547 C3548 1.400 . S
C3547 C3552 1.490 . S
C3548 H3538 0.930 . S
C3548 C3547 1.400 . S
C3548 C3551 1.386 . S
H3549 C3565 0.930 . S
H3550 C3566 0.931 . S
C3551 H3539 0.929 . S
C3551 C3545 1.390 . S
C3551 C3548 1.386 . S
C3552 C3547 1.490 . S
C3552 C3554 1.395 . S
C3552 C3555 1.403 . S
H3553 C3559 0.930 . S
C3554 H3540 0.930 . S
C3554 C3552 1.395 . S
C3554 C3557 1.403 . S
C3555 C3552 1.403 . S
C3555 C3556 1.524 . S
C3555 C3559 1.400 . S
C3556 H3541 0.960 . S
C3556 H3542 0.960 . S
C3556 H3543 0.960 . S
C3556 C3555 1.524 . S
C3557 C3554 1.403 . S
C3557 C3558 1.392 . S
C3557 C3561 1.495 . S
C3558 C3557 1.392 . S
C3558 C3559 1.385 . S
C3558 C3560 1.478 . S
C3559 H3553 0.930 . S
C3559 C3555 1.400 . S
C3559 C3558 1.385 . S
C3560 C3558 1.478 . S
C3560 C3562 1.381 . S
C3560 C3566 1.383 . S
C3561 C3557 1.495 . S
C3561 H3567 0.959 . S
C3561 H3568 0.961 . S
C3561 H3569 0.960 . S
C3562 C3560 1.381 . S
C3562 C3563 1.394 . S
C3562 H3570 0.930 . S
C3563 C3562 1.394 . S
C3563 C3564 1.383 . S
C3563 H3571 0.929 . S
C3564 C3563 1.383 . S
C3564 C3565 1.377 . S
C3565 H3549 0.930 . S
C3565 C3564 1.377 . S
C3565 C3566 1.379 . S
C3566 H3550 0.931 . S
C3566 C3560 1.383 . S
C3566 C3565 1.379 . S
H3567 C3561 0.959 . S
H3568 C3561 0.961 . S
H3569 C3561 0.960 . S
H3570 C3562 0.930 . S
H3571 C3563 0.929 . S
H3572 C3580 0.929 . S
H3573 C3582 0.930 . S
H3574 C3584 0.930 . S
H3575 C3587 0.929 . S
H3576 C3590 0.930 . S
H3577 C3592 0.960 . S
H3578 C3592 0.960 . S
H3579 C3592 0.960 . S
C3580 H3572 0.929 . S
C3580 C3581 1.377 . S
C3580 C3582 1.384 . S
C3581 C3580 1.377 . S
C3581 C3587 1.390 . S
C3582 H3573 0.930 . S
C3582 C3580 1.384 . S
C3582 C3583 1.372 . S
C3583 C3582 1.372 . S
C3583 C3584 1.400 . S
C3583 C3588 1.490 . S
C3584 H3574 0.930 . S
C3584 C3583 1.400 . S
C3584 C3587 1.386 . S
H3585 C3601 0.930 . S
H3586 C3602 0.931 . S
C3587 H3575 0.929 . S
C3587 C3581 1.390 . S
C3587 C3584 1.386 . S
C3588 C3583 1.490 . S
C3588 C3590 1.395 . S
C3588 C3591 1.403 . S
H3589 C3595 0.930 . S
C3590 H3576 0.930 . S
C3590 C3588 1.395 . S
C3590 C3593 1.403 . S
C3591 C3588 1.403 . S
C3591 C3592 1.524 . S
C3591 C3595 1.400 . S
C3592 H3577 0.960 . S
C3592 H3578 0.960 . S
C3592 H3579 0.960 . S
C3592 C3591 1.524 . S
C3593 C3590 1.403 . S
C3593 C3594 1.392 . S
C3593 C3597 1.495 . S
C3594 C3593 1.392 . S
C3594 C3595 1.385 . S
C3594 C3596 1.478 . S
C3595 H3589 0.930 . S
C3595 C3591 1.400 . S
C3595 C3594 1.385 . S
C3596 C3594 1.478 . S
C3596 C3598 1.381 . S
C3596 C3602 1.383 . S
C3597 C3593 1.495 . S
C3597 H3603 0.959 . S
C3597 H3604 0.961 . S
C3597 H3605 0.960 . S
C3598 C3596 1.381 . S
C3598 C3599 1.394 . S
C3598 H3606 0.930 . S
C3599 C3598 1.394 . S
C3599 C3600 1.383 . S
C3599 H3607 0.929 . S
C3600 C3599 1.383 . S
C3600 C3601 1.377 . S
C3601 H3585 0.930 . S
C3601 C3600 1.377 . S
C3601 C3602 1.379 . S
C3602 H3586 0.931 . S
C3602 C3596 1.383 . S
C3602 C3601 1.379 . S
H3603 C3597 0.959 . S
H3604 C3597 0.961 . S
H3605 C3597 0.960 . S
H3606 C3598 0.930 . S
H3607 C3599 0.929 . S
H3608 C3616 0.929 . S
H3609 C3618 0.930 . S
H3610 C3620 0.930 . S
H3611 C3623 0.929 . S
H3612 C3626 0.930 . S
H3613 C3628 0.960 . S
H3614 C3628 0.960 . S
H3615 C3628 0.960 . S
C3616 H3608 0.929 . S
C3616 C3617 1.377 . S
C3616 C3618 1.384 . S
C3617 C3616 1.377 . S
C3617 C3623 1.390 . S
C3618 H3609 0.930 . S
C3618 C3616 1.384 . S
C3618 C3619 1.372 . S
C3619 C3618 1.372 . S
C3619 C3620 1.400 . S
C3619 C3624 1.490 . S
C3620 H3610 0.930 . S
C3620 C3619 1.400 . S
C3620 C3623 1.386 . S
H3621 C3637 0.930 . S
H3622 C3638 0.931 . S
C3623 H3611 0.929 . S
C3623 C3617 1.390 . S
C3623 C3620 1.386 . S
C3624 C3619 1.490 . S
C3624 C3626 1.395 . S
C3624 C3627 1.403 . S
H3625 C3631 0.930 . S
C3626 H3612 0.930 . S
C3626 C3624 1.395 . S
C3626 C3629 1.403 . S
C3627 C3624 1.403 . S
C3627 C3628 1.524 . S
C3627 C3631 1.400 . S
C3628 H3613 0.960 . S
C3628 H3614 0.960 . S
C3628 H3615 0.960 . S
C3628 C3627 1.524 . S
C3629 C3626 1.403 . S
C3629 C3630 1.392 . S
C3629 C3633 1.495 . S
C3630 C3629 1.392 . S
C3630 C3631 1.385 . S
C3630 C3632 1.478 . S
C3631 H3625 0.930 . S
C3631 C3627 1.400 . S
C3631 C3630 1.385 . S
C3632 C3630 1.478 . S
C3632 C3634 1.381 . S
C3632 C3638 1.383 . S
C3633 C3629 1.495 . S
C3633 H3639 0.959 . S
C3633 H3640 0.961 . S
C3633 H3641 0.960 1_655 S
C3634 C3632 1.381 . S
C3634 C3635 1.394 1_655 S
C3634 H3642 0.930 1_655 S
C3635 C3634 1.394 1_455 S
C3635 C3636 1.383 1_455 S
C3635 H3643 0.929 . S
C3636 C3635 1.383 1_655 S
C3636 C3637 1.377 . S
C3637 H3621 0.930 . S
C3637 C3636 1.377 . S
C3637 C3638 1.379 . S
C3638 H3622 0.931 . S
C3638 C3632 1.383 . S
C3638 C3637 1.379 . S
H3639 C3633 0.959 . S
H3640 C3633 0.961 . S
H3641 C3633 0.960 1_455 S
H3642 C3634 0.930 1_455 S
H3643 C3635 0.929 . S
H3644 C3652 0.929 . S
H3645 C3654 0.930 . S
H3646 C3656 0.930 . S
H3647 C3659 0.929 . S
H3648 C3662 0.930 . S
H3649 C3664 0.960 . S
H3650 C3664 0.960 . S
H3651 C3664 0.960 . S
C3652 H3644 0.929 . S
C3652 C3653 1.377 . S
C3652 C3654 1.384 . S
C3653 C3652 1.377 . S
C3653 C3659 1.390 . S
C3654 H3645 0.930 . S
C3654 C3652 1.384 . S
C3654 C3655 1.372 . S
C3655 C3654 1.372 . S
C3655 C3656 1.400 . S
C3655 C3660 1.490 . S
C3656 H3646 0.930 . S
C3656 C3655 1.400 . S
C3656 C3659 1.386 . S
H3657 C3673 0.930 . S
H3658 C3674 0.931 . S
C3659 H3647 0.929 . S
C3659 C3653 1.390 . S
C3659 C3656 1.386 . S
C3660 C3655 1.490 . S
C3660 C3662 1.395 . S
C3660 C3663 1.403 . S
H3661 C3667 0.930 . S
C3662 H3648 0.930 . S
C3662 C3660 1.395 . S
C3662 C3665 1.403 . S
C3663 C3660 1.403 . S
C3663 C3664 1.524 . S
C3663 C3667 1.400 . S
C3664 H3649 0.960 . S
C3664 H3650 0.960 . S
C3664 H3651 0.960 . S
C3664 C3663 1.524 . S
C3665 C3662 1.403 . S
C3665 C3666 1.392 . S
C3665 C3669 1.495 . S
C3666 C3665 1.392 . S
C3666 C3667 1.385 . S
C3666 C3668 1.478 . S
C3667 H3661 0.930 . S
C3667 C3663 1.400 . S
C3667 C3666 1.385 . S
C3668 C3666 1.478 . S
C3668 C3670 1.381 . S
C3668 C3674 1.383 . S
C3669 C3665 1.495 . S
C3669 H3675 0.959 . S
C3669 H3676 0.961 . S
C3669 H3677 0.960 . S
C3670 C3668 1.381 . S
C3670 C3671 1.394 . S
C3670 H3678 0.930 . S
C3671 C3670 1.394 . S
C3671 C3672 1.383 . S
C3671 H3679 0.929 . S
C3672 C3671 1.383 . S
C3672 C3673 1.377 . S
C3673 H3657 0.930 . S
C3673 C3672 1.377 . S
C3673 C3674 1.379 . S
C3674 H3658 0.931 . S
C3674 C3668 1.383 . S
C3674 C3673 1.379 . S
H3675 C3669 0.959 . S
H3676 C3669 0.961 . S
H3677 C3669 0.960 . S
H3678 C3670 0.930 . S
H3679 C3671 0.929 . S
H3680 C3688 0.929 . S
H3681 C3690 0.930 . S
H3682 C3692 0.930 . S
H3683 C3695 0.929 . S
H3684 C3698 0.930 . S
H3685 C3700 0.960 . S
H3686 C3700 0.960 . S
H3687 C3700 0.960 . S
C3688 H3680 0.929 . S
C3688 C3689 1.377 . S
C3688 C3690 1.384 . S
C3689 C3688 1.377 . S
C3689 C3695 1.390 . S
C3690 H3681 0.930 . S
C3690 C3688 1.384 . S
C3690 C3691 1.372 . S
C3691 C3690 1.372 . S
C3691 C3692 1.400 . S
C3691 C3696 1.490 . S
C3692 H3682 0.930 . S
C3692 C3691 1.400 . S
C3692 C3695 1.386 . S
H3693 C3709 0.930 . S
H3694 C3710 0.931 . S
C3695 H3683 0.929 . S
C3695 C3689 1.390 . S
C3695 C3692 1.386 . S
C3696 C3691 1.490 . S
C3696 C3698 1.395 . S
C3696 C3699 1.403 . S
H3697 C3703 0.930 . S
C3698 H3684 0.930 . S
C3698 C3696 1.395 . S
C3698 C3701 1.403 . S
C3699 C3696 1.403 . S
C3699 C3700 1.524 . S
C3699 C3703 1.400 . S
C3700 H3685 0.960 . S
C3700 H3686 0.960 . S
C3700 H3687 0.960 . S
C3700 C3699 1.524 . S
C3701 C3698 1.403 . S
C3701 C3702 1.392 . S
C3701 C3705 1.495 . S
C3702 C3701 1.392 . S
C3702 C3703 1.385 . S
C3702 C3704 1.478 . S
C3703 H3697 0.930 . S
C3703 C3699 1.400 . S
C3703 C3702 1.385 . S
C3704 C3702 1.478 . S
C3704 C3706 1.381 . S
C3704 C3710 1.383 . S
C3705 C3701 1.495 . S
C3705 H3711 0.959 . S
C3705 H3712 0.961 . S
C3705 H3713 0.960 . S
C3706 C3704 1.381 . S
C3706 C3707 1.394 . S
C3706 H3714 0.930 . S
C3707 C3706 1.394 . S
C3707 C3708 1.383 . S
C3707 H3715 0.929 . S
C3708 C3707 1.383 . S
C3708 C3709 1.377 . S
C3709 H3693 0.930 . S
C3709 C3708 1.377 . S
C3709 C3710 1.379 . S
C3710 H3694 0.931 . S
C3710 C3704 1.383 . S
C3710 C3709 1.379 . S
H3711 C3705 0.959 . S
H3712 C3705 0.961 . S
H3713 C3705 0.960 . S
H3714 C3706 0.930 . S
H3715 C3707 0.929 . S
H3716 C3724 0.929 . S
H3717 C3726 0.930 . S
H3718 C3728 0.930 . S
H3719 C3731 0.929 . S
H3720 C3734 0.930 . S
H3721 C3736 0.960 . S
H3722 C3736 0.960 . S
H3723 C3736 0.960 . S
C3724 H3716 0.929 . S
C3724 C3725 1.377 . S
C3724 C3726 1.384 . S
C3725 C3724 1.377 . S
C3725 C3731 1.390 . S
C3726 H3717 0.930 . S
C3726 C3724 1.384 . S
C3726 C3727 1.372 . S
C3727 C3726 1.372 . S
C3727 C3728 1.400 . S
C3727 C3732 1.490 . S
C3728 H3718 0.930 . S
C3728 C3727 1.400 . S
C3728 C3731 1.386 . S
H3729 C3745 0.930 . S
H3730 C3746 0.931 . S
C3731 H3719 0.929 . S
C3731 C3725 1.390 . S
C3731 C3728 1.386 . S
C3732 C3727 1.490 . S
C3732 C3734 1.395 . S
C3732 C3735 1.403 . S
H3733 C3739 0.930 . S
C3734 H3720 0.930 . S
C3734 C3732 1.395 . S
C3734 C3737 1.403 . S
C3735 C3732 1.403 . S
C3735 C3736 1.524 . S
C3735 C3739 1.400 . S
C3736 H3721 0.960 . S
C3736 H3722 0.960 . S
C3736 H3723 0.960 . S
C3736 C3735 1.524 . S
C3737 C3734 1.403 . S
C3737 C3738 1.392 . S
C3737 C3741 1.495 . S
C3738 C3737 1.392 . S
C3738 C3739 1.385 . S
C3738 C3740 1.478 . S
C3739 H3733 0.930 . S
C3739 C3735 1.400 . S
C3739 C3738 1.385 . S
C3740 C3738 1.478 . S
C3740 C3742 1.381 . S
C3740 C3746 1.383 . S
C3741 C3737 1.495 . S
C3741 H3747 0.959 . S
C3741 H3748 0.961 . S
C3741 H3749 0.960 . S
C3742 C3740 1.381 . S
C3742 C3743 1.394 . S
C3742 H3750 0.930 . S
C3743 C3742 1.394 . S
C3743 C3744 1.383 . S
C3743 H3751 0.929 . S
C3744 C3743 1.383 . S
C3744 C3745 1.377 . S
C3745 H3729 0.930 . S
C3745 C3744 1.377 . S
C3745 C3746 1.379 . S
C3746 H3730 0.931 . S
C3746 C3740 1.383 . S
C3746 C3745 1.379 . S
H3747 C3741 0.959 . S
H3748 C3741 0.961 . S
H3749 C3741 0.960 . S
H3750 C3742 0.930 . S
H3751 C3743 0.929 . S
H3752 C3760 0.929 . S
H3753 C3762 0.930 . S
H3754 C3764 0.930 . S
H3755 C3767 0.929 . S
H3756 C3770 0.930 . S
H3757 C3772 0.960 . S
H3758 C3772 0.960 . S
H3759 C3772 0.960 . S
C3760 H3752 0.929 . S
C3760 C3761 1.377 . S
C3760 C3762 1.384 . S
C3761 C3760 1.377 . S
C3761 C3767 1.390 . S
C3762 H3753 0.930 . S
C3762 C3760 1.384 . S
C3762 C3763 1.372 . S
C3763 C3762 1.372 . S
C3763 C3764 1.400 . S
C3763 C3768 1.490 . S
C3764 H3754 0.930 . S
C3764 C3763 1.400 . S
C3764 C3767 1.386 . S
H3765 C3781 0.930 . S
H3766 C3782 0.931 . S
C3767 H3755 0.929 . S
C3767 C3761 1.390 . S
C3767 C3764 1.386 . S
C3768 C3763 1.490 . S
C3768 C3770 1.395 . S
C3768 C3771 1.403 . S
H3769 C3775 0.930 . S
C3770 H3756 0.930 . S
C3770 C3768 1.395 . S
C3770 C3773 1.403 . S
C3771 C3768 1.403 . S
C3771 C3772 1.524 . S
C3771 C3775 1.400 . S
C3772 H3757 0.960 . S
C3772 H3758 0.960 . S
C3772 H3759 0.960 . S
C3772 C3771 1.524 . S
C3773 C3770 1.403 . S
C3773 C3774 1.392 . S
C3773 C3777 1.495 . S
C3774 C3773 1.392 . S
C3774 C3775 1.385 . S
C3774 C3776 1.478 . S
C3775 H3769 0.930 . S
C3775 C3771 1.400 . S
C3775 C3774 1.385 . S
C3776 C3774 1.478 . S
C3776 C3778 1.381 . S
C3776 C3782 1.383 . S
C3777 C3773 1.495 . S
C3777 H3783 0.959 . S
C3777 H3784 0.961 . S
C3777 H3785 0.960 . S
C3778 C3776 1.381 . S
C3778 C3779 1.394 . S
C3778 H3786 0.930 . S
C3779 C3778 1.394 . S
C3779 C3780 1.383 . S
C3779 H3787 0.929 1_655 S
C3780 C3779 1.383 . S
C3780 C3781 1.377 . S
C3781 H3765 0.930 . S
C3781 C3780 1.377 . S
C3781 C3782 1.379 . S
C3782 H3766 0.931 . S
C3782 C3776 1.383 . S
C3782 C3781 1.379 . S
H3783 C3777 0.959 . S
H3784 C3777 0.961 . S
H3785 C3777 0.960 . S
H3786 C3778 0.930 . S
H3787 C3779 0.929 1_455 S
H3788 C3796 0.929 . S
H3789 C3798 0.930 . S
H3790 C3800 0.930 . S
H3791 C3803 0.929 . S
H3792 C3806 0.930 . S
H3793 C3808 0.960 . S
H3794 C3808 0.960 . S
H3795 C3808 0.960 . S
C3796 H3788 0.929 . S
C3796 C3797 1.377 . S
C3796 C3798 1.384 . S
C3797 C3796 1.377 . S
C3797 C3803 1.390 . S
C3798 H3789 0.930 . S
C3798 C3796 1.384 . S
C3798 C3799 1.372 . S
C3799 C3798 1.372 . S
C3799 C3800 1.400 . S
C3799 C3804 1.490 . S
C3800 H3790 0.930 . S
C3800 C3799 1.400 . S
C3800 C3803 1.386 . S
H3801 C3817 0.930 . S
H3802 C3818 0.931 . S
C3803 H3791 0.929 . S
C3803 C3797 1.390 . S
C3803 C3800 1.386 . S
C3804 C3799 1.490 . S
C3804 C3806 1.395 . S
C3804 C3807 1.403 . S
H3805 C3811 0.930 . S
C3806 H3792 0.930 . S
C3806 C3804 1.395 . S
C3806 C3809 1.403 . S
C3807 C3804 1.403 . S
C3807 C3808 1.524 . S
C3807 C3811 1.400 . S
C3808 H3793 0.960 . S
C3808 H3794 0.960 . S
C3808 H3795 0.960 . S
C3808 C3807 1.524 . S
C3809 C3806 1.403 . S
C3809 C3810 1.392 . S
C3809 C3813 1.495 . S
C3810 C3809 1.392 . S
C3810 C3811 1.385 . S
C3810 C3812 1.478 . S
C3811 H3805 0.930 . S
C3811 C3807 1.400 . S
C3811 C3810 1.385 . S
C3812 C3810 1.478 . S
C3812 C3814 1.381 . S
C3812 C3818 1.383 . S
C3813 C3809 1.495 . S
C3813 H3819 0.959 . S
C3813 H3820 0.961 . S
C3813 H3821 0.960 . S
C3814 C3812 1.381 . S
C3814 C3815 1.394 . S
C3814 H3822 0.930 . S
C3815 C3814 1.394 . S
C3815 C3816 1.383 . S
C3815 H3823 0.929 . S
C3816 C3815 1.383 . S
C3816 C3817 1.377 . S
C3817 H3801 0.930 . S
C3817 C3816 1.377 . S
C3817 C3818 1.379 . S
C3818 H3802 0.931 . S
C3818 C3812 1.383 . S
C3818 C3817 1.379 . S
H3819 C3813 0.959 . S
H3820 C3813 0.961 . S
H3821 C3813 0.960 . S
H3822 C3814 0.930 . S
H3823 C3815 0.929 . S
H3824 C3832 0.929 . S
H3825 C3834 0.930 . S
H3826 C3836 0.930 . S
H3827 C3839 0.929 . S
H3828 C3842 0.930 . S
H3829 C3844 0.960 . S
H3830 C3844 0.960 . S
H3831 C3844 0.960 . S
C3832 H3824 0.929 . S
C3832 C3833 1.377 . S
C3832 C3834 1.384 . S
C3833 C3832 1.377 . S
C3833 C3839 1.390 . S
C3834 H3825 0.930 . S
C3834 C3832 1.384 . S
C3834 C3835 1.372 . S
C3835 C3834 1.372 . S
C3835 C3836 1.400 . S
C3835 C3840 1.490 . S
C3836 H3826 0.930 . S
C3836 C3835 1.400 . S
C3836 C3839 1.386 . S
H3837 C3853 0.930 . S
H3838 C3854 0.931 . S
C3839 H3827 0.929 . S
C3839 C3833 1.390 . S
C3839 C3836 1.386 . S
C3840 C3835 1.490 . S
C3840 C3842 1.395 . S
C3840 C3843 1.403 . S
H3841 C3847 0.930 . S
C3842 H3828 0.930 . S
C3842 C3840 1.395 . S
C3842 C3845 1.403 . S
C3843 C3840 1.403 . S
C3843 C3844 1.524 . S
C3843 C3847 1.400 . S
C3844 H3829 0.960 . S
C3844 H3830 0.960 . S
C3844 H3831 0.960 . S
C3844 C3843 1.524 . S
C3845 C3842 1.403 . S
C3845 C3846 1.392 . S
C3845 C3849 1.495 . S
C3846 C3845 1.392 . S
C3846 C3847 1.385 . S
C3846 C3848 1.478 . S
C3847 H3841 0.930 . S
C3847 C3843 1.400 . S
C3847 C3846 1.385 . S
C3848 C3846 1.478 . S
C3848 C3850 1.381 . S
C3848 C3854 1.383 . S
C3849 C3845 1.495 . S
C3849 H3855 0.959 . S
C3849 H3856 0.961 . S
C3849 H3857 0.960 . S
C3850 C3848 1.381 . S
C3850 C3851 1.394 . S
C3850 H3858 0.930 . S
C3851 C3850 1.394 . S
C3851 C3852 1.383 . S
C3851 H3859 0.929 . S
C3852 C3851 1.383 . S
C3852 C3853 1.377 . S
C3853 H3837 0.930 . S
C3853 C3852 1.377 . S
C3853 C3854 1.379 . S
C3854 H3838 0.931 . S
C3854 C3848 1.383 . S
C3854 C3853 1.379 . S
H3855 C3849 0.959 . S
H3856 C3849 0.961 . S
H3857 C3849 0.960 . S
H3858 C3850 0.930 . S
H3859 C3851 0.929 . S
H3860 C3868 0.929 . S
H3861 C3870 0.930 . S
H3862 C3872 0.930 . S
H3863 C3875 0.929 . S
H3864 C3878 0.930 . S
H3865 C3880 0.960 . S
H3866 C3880 0.960 . S
H3867 C3880 0.960 . S
C3868 H3860 0.929 . S
C3868 C3869 1.377 . S
C3868 C3870 1.384 . S
C3869 C3868 1.377 . S
C3869 C3875 1.390 . S
C3870 H3861 0.930 . S
C3870 C3868 1.384 . S
C3870 C3871 1.372 . S
C3871 C3870 1.372 . S
C3871 C3872 1.400 . S
C3871 C3876 1.490 . S
C3872 H3862 0.930 . S
C3872 C3871 1.400 . S
C3872 C3875 1.386 . S
H3873 C3889 0.930 . S
H3874 C3890 0.931 . S
C3875 H3863 0.929 . S
C3875 C3869 1.390 . S
C3875 C3872 1.386 . S
C3876 C3871 1.490 . S
C3876 C3878 1.395 . S
C3876 C3879 1.403 . S
H3877 C3883 0.930 . S
C3878 H3864 0.930 . S
C3878 C3876 1.395 . S
C3878 C3881 1.403 . S
C3879 C3876 1.403 . S
C3879 C3880 1.524 . S
C3879 C3883 1.400 . S
C3880 H3865 0.960 . S
C3880 H3866 0.960 . S
C3880 H3867 0.960 . S
C3880 C3879 1.524 . S
C3881 C3878 1.403 . S
C3881 C3882 1.392 . S
C3881 C3885 1.495 . S
C3882 C3881 1.392 . S
C3882 C3883 1.385 . S
C3882 C3884 1.478 . S
C3883 H3877 0.930 . S
C3883 C3879 1.400 . S
C3883 C3882 1.385 . S
C3884 C3882 1.478 . S
C3884 C3886 1.381 . S
C3884 C3890 1.383 . S
C3885 C3881 1.495 . S
C3885 H3891 0.959 . S
C3885 H3892 0.961 . S
C3885 H3893 0.960 1_565 S
C3886 C3884 1.381 . S
C3886 C3887 1.394 1_565 S
C3886 H3894 0.909 1_565 S
C3887 C3886 1.394 1_545 S
C3887 C3888 1.404 . S
C3887 H3895 0.929 . S
C3888 C3887 1.404 . S
C3888 C3889 1.343 1_545 S
C3889 H3873 0.930 . S
C3889 C3888 1.343 1_565 S
C3889 C3890 1.379 . S
C3890 H3874 0.931 . S
C3890 C3884 1.383 . S
C3890 C3889 1.379 . S
H3891 C3885 0.959 . S
H3892 C3885 0.961 . S
H3893 C3885 0.960 1_545 S
H3894 C3886 0.909 1_545 S
H3895 C3887 0.929 . S
H3896 C3904 0.929 . S
H3897 C3906 0.930 . S
H3898 C3908 0.930 . S
H3899 C3911 0.929 . S
H3900 C3914 0.930 . S
H3901 C3916 0.960 . S
H3902 C3916 0.960 . S
H3903 C3916 0.960 . S
C3904 H3896 0.929 . S
C3904 C3905 1.377 . S
C3904 C3906 1.384 . S
C3905 C3904 1.377 . S
C3905 C3911 1.390 . S
C3906 H3897 0.930 . S
C3906 C3904 1.384 . S
C3906 C3907 1.372 . S
C3907 C3906 1.372 . S
C3907 C3908 1.400 . S
C3907 C3912 1.490 . S
C3908 H3898 0.930 . S
C3908 C3907 1.400 . S
C3908 C3911 1.386 . S
H3909 C3925 0.930 . S
H3910 C3926 0.931 . S
C3911 H3899 0.929 . S
C3911 C3905 1.390 . S
C3911 C3908 1.386 . S
C3912 C3907 1.490 . S
C3912 C3914 1.395 . S
C3912 C3915 1.403 . S
H3913 C3919 0.930 . S
C3914 H3900 0.930 . S
C3914 C3912 1.395 . S
C3914 C3917 1.403 . S
C3915 C3912 1.403 . S
C3915 C3916 1.524 . S
C3915 C3919 1.400 . S
C3916 H3901 0.960 . S
C3916 H3902 0.960 . S
C3916 H3903 0.960 . S
C3916 C3915 1.524 . S
C3917 C3914 1.403 . S
C3917 C3918 1.392 . S
C3917 C3921 1.495 . S
C3918 C3917 1.392 . S
C3918 C3919 1.385 . S
C3918 C3920 1.478 . S
C3919 H3913 0.930 . S
C3919 C3915 1.400 . S
C3919 C3918 1.385 . S
C3920 C3918 1.478 . S
C3920 C3922 1.381 . S
C3920 C3926 1.383 . S
C3921 C3917 1.495 . S
C3921 H3927 0.959 . S
C3921 H3928 0.961 . S
C3921 H3929 0.960 . S
C3922 C3920 1.381 . S
C3922 C3923 1.394 . S
C3922 H3930 0.930 . S
C3923 C3922 1.394 . S
C3923 C3924 1.383 . S
C3923 H3931 0.929 . S
C3924 C3923 1.383 . S
C3924 C3925 1.377 . S
C3925 H3909 0.930 . S
C3925 C3924 1.377 . S
C3925 C3926 1.379 . S
C3926 H3910 0.931 . S
C3926 C3920 1.383 . S
C3926 C3925 1.379 . S
H3927 C3921 0.959 . S
H3928 C3921 0.961 . S
H3929 C3921 0.960 . S
H3930 C3922 0.930 . S
H3931 C3923 0.929 . S
H3932 C3940 0.929 . S
H3933 C3942 0.930 . S
H3934 C3944 0.930 . S
H3935 C3947 0.929 . S
H3936 C3950 0.930 . S
H3937 C3952 0.960 . S
H3938 C3952 0.960 1_554 S
H3939 C3952 0.960 . S
C3940 H3932 0.929 . S
C3940 C3941 1.377 1_554 S
C3940 C3942 1.384 . S
C3941 C3940 1.377 1_556 S
C3941 C3947 1.390 . S
C3942 H3933 0.930 . S
C3942 C3940 1.384 . S
C3942 C3943 1.372 . S
C3943 C3942 1.372 . S
C3943 C3944 1.400 1_554 S
C3943 C3948 1.490 . S
C3944 H3934 0.930 . S
C3944 C3943 1.400 1_556 S
C3944 C3947 1.386 . S
H3945 C3961 0.930 . S
H3946 C3962 0.931 . S
C3947 H3935 0.929 . S
C3947 C3941 1.390 . S
C3947 C3944 1.386 . S
C3948 C3943 1.490 . S
C3948 C3950 1.395 . S
C3948 C3951 1.403 . S
H3949 C3955 0.934 . S
C3950 H3936 0.930 . S
C3950 C3948 1.395 . S
C3950 C3953 1.403 . S
C3951 C3948 1.403 . S
C3951 C3952 1.524 1_554 S
C3951 C3955 1.400 . S
C3952 H3937 0.960 . S
C3952 H3938 0.960 1_556 S
C3952 H3939 0.960 . S
C3952 C3951 1.524 1_556 S
C3953 C3950 1.403 . S
C3953 C3954 1.392 . S
C3953 C3957 1.495 . S
C3954 C3953 1.392 . S
C3954 C3955 1.385 . S
C3954 C3956 1.478 . S
C3955 H3949 0.934 . S
C3955 C3951 1.400 . S
C3955 C3954 1.385 . S
C3956 C3954 1.478 . S
C3956 C3958 1.381 . S
C3956 C3962 1.383 1_554 S
C3957 C3953 1.495 . S
C3957 H3963 0.959 . S
C3957 H3964 0.961 . S
C3957 H3965 0.960 . S
C3958 C3956 1.381 . S
C3958 C3959 1.394 . S
C3958 H3966 0.930 . S
C3959 C3958 1.394 . S
C3959 C3960 1.383 . S
C3959 H3967 0.929 . S
C3960 C3959 1.383 . S
C3960 C3961 1.377 1_554 S
C3961 H3945 0.930 . S
C3961 C3960 1.377 1_556 S
C3961 C3962 1.379 . S
C3962 H3946 0.931 . S
C3962 C3956 1.383 1_556 S
C3962 C3961 1.379 . S
H3963 C3957 0.959 . S
H3964 C3957 0.961 . S
H3965 C3957 0.960 . S
H3966 C3958 0.930 . S
H3967 C3959 0.929 . S
H3968 C3976 0.929 . S
H3969 C3978 0.930 . S
H3970 C3980 0.930 . S
H3971 C3983 0.929 . S
H3972 C3986 0.930 . S
H3973 C3988 0.960 . S
H3974 C3988 0.960 . S
H3975 C3988 0.960 . S
C3976 H3968 0.929 . S
C3976 C3977 1.377 . S
C3976 C3978 1.384 . S
C3977 C3976 1.377 . S
C3977 C3983 1.390 . S
C3978 H3969 0.930 . S
C3978 C3976 1.384 . S
C3978 C3979 1.372 . S
C3979 C3978 1.372 . S
C3979 C3980 1.400 . S
C3979 C3984 1.490 . S
C3980 H3970 0.930 . S
C3980 C3979 1.400 . S
C3980 C3983 1.386 . S
H3981 C3997 0.930 . S
H3982 C3998 0.931 . S
C3983 H3971 0.929 . S
C3983 C3977 1.390 . S
C3983 C3980 1.386 . S
C3984 C3979 1.490 . S
C3984 C3986 1.395 . S
C3984 C3987 1.403 . S
H3985 C3991 0.930 . S
C3986 H3972 0.930 . S
C3986 C3984 1.395 . S
C3986 C3989 1.403 . S
C3987 C3984 1.403 . S
C3987 C3988 1.524 . S
C3987 C3991 1.400 . S
C3988 H3973 0.960 . S
C3988 H3974 0.960 . S
C3988 H3975 0.960 . S
C3988 C3987 1.524 . S
C3989 C3986 1.403 . S
C3989 C3990 1.392 . S
C3989 C3993 1.495 . S
C3990 C3989 1.392 . S
C3990 C3991 1.385 . S
C3990 C3992 1.478 . S
C3991 H3985 0.930 . S
C3991 C3987 1.400 . S
C3991 C3990 1.385 . S
C3992 C3990 1.478 . S
C3992 C3994 1.381 . S
C3992 C3998 1.383 . S
C3993 C3989 1.495 . S
C3993 H3999 0.959 . S
C3993 H4000 0.961 . S
C3993 H4001 0.960 . S
C3994 C3992 1.381 . S
C3994 C3995 1.394 . S
C3994 H4002 0.930 . S
C3995 C3994 1.394 . S
C3995 C3996 1.383 . S
C3995 H4003 0.929 . S
C3996 C3995 1.383 . S
C3996 C3997 1.377 . S
C3997 H3981 0.930 . S
C3997 C3996 1.377 . S
C3997 C3998 1.379 . S
C3998 H3982 0.931 . S
C3998 C3992 1.383 . S
C3998 C3997 1.379 . S
H3999 C3993 0.959 . S
H4000 C3993 0.961 . S
H4001 C3993 0.960 . S
H4002 C3994 0.930 . S
H4003 C3995 0.929 . S
H4004 C4012 0.929 . S
H4005 C4014 0.930 . S
H4006 C4016 0.930 . S
H4007 C4019 0.926 . S
H4008 C4022 0.930 . S
H4009 C4024 0.960 . S
H4010 C4024 0.960 . S
H4011 C4024 0.960 . S
C4012 H4004 0.929 . S
C4012 C4013 1.377 . S
C4012 C4014 1.384 . S
C4013 C4012 1.377 . S
C4013 C4019 1.393 1_554 S
C4014 H4005 0.930 . S
C4014 C4012 1.384 . S
C4014 C4015 1.372 . S
C4015 C4014 1.372 . S
C4015 C4016 1.400 1_554 S
C4015 C4020 1.490 . S
C4016 H4006 0.930 . S
C4016 C4015 1.400 1_556 S
C4016 C4019 1.385 . S
H4017 C4033 0.930 . S
H4018 C4034 0.931 . S
C4019 H4007 0.926 . S
C4019 C4013 1.393 1_556 S
C4019 C4016 1.385 . S
C4020 C4015 1.490 . S
C4020 C4022 1.395 . S
C4020 C4023 1.403 1_554 S
H4021 C4027 0.930 . S
C4022 H4008 0.930 . S
C4022 C4020 1.395 . S
C4022 C4025 1.403 . S
C4023 C4020 1.403 1_556 S
C4023 C4024 1.524 . S
C4023 C4027 1.400 . S
C4024 H4009 0.960 . S
C4024 H4010 0.960 . S
C4024 H4011 0.960 . S
C4024 C4023 1.524 . S
C4025 C4022 1.403 . S
C4025 C4026 1.392 . S
C4025 C4029 1.495 . S
C4026 C4025 1.392 . S
C4026 C4027 1.385 1_554 S
C4026 C4028 1.478 . S
C4027 H4021 0.930 . S
C4027 C4023 1.400 . S
C4027 C4026 1.385 1_556 S
C4028 C4026 1.478 . S
C4028 C4030 1.381 . S
C4028 C4034 1.383 1_554 S
C4029 C4025 1.495 . S
C4029 H4035 0.959 . S
C4029 H4036 0.961 . S
C4029 H4037 0.960 . S
C4030 C4028 1.381 . S
C4030 C4031 1.394 . S
C4030 H4038 0.930 . S
C4031 C4030 1.394 . S
C4031 C4032 1.383 . S
C4031 H4039 0.929 . S
C4032 C4031 1.383 . S
C4032 C4033 1.377 1_554 S
C4033 H4017 0.930 . S
C4033 C4032 1.377 1_556 S
C4033 C4034 1.379 . S
C4034 H4018 0.931 . S
C4034 C4028 1.383 1_556 S
C4034 C4033 1.379 . S
H4035 C4029 0.959 . S
H4036 C4029 0.961 . S
H4037 C4029 0.960 . S
H4038 C4030 0.930 . S
H4039 C4031 0.929 . S
H4040 C4048 0.929 . S
H4041 C4050 0.930 . S
H4042 C4052 0.930 . S
H4043 C4055 0.929 . S
H4044 C4058 0.930 . S
H4045 C4060 0.960 . S
H4046 C4060 0.960 . S
H4047 C4060 0.960 . S
C4048 H4040 0.929 . S
C4048 C4049 1.377 . S
C4048 C4050 1.384 . S
C4049 C4048 1.377 . S
C4049 C4055 1.390 . S
C4050 H4041 0.930 . S
C4050 C4048 1.384 . S
C4050 C4051 1.372 . S
C4051 C4050 1.372 . S
C4051 C4052 1.400 . S
C4051 C4056 1.490 . S
C4052 H4042 0.930 . S
C4052 C4051 1.400 . S
C4052 C4055 1.386 . S
H4053 C4069 0.930 . S
H4054 C4070 0.931 . S
C4055 H4043 0.929 . S
C4055 C4049 1.390 . S
C4055 C4052 1.386 . S
C4056 C4051 1.490 . S
C4056 C4058 1.395 . S
C4056 C4059 1.403 . S
H4057 C4063 0.930 . S
C4058 H4044 0.930 . S
C4058 C4056 1.395 . S
C4058 C4061 1.403 . S
C4059 C4056 1.403 . S
C4059 C4060 1.524 . S
C4059 C4063 1.400 . S
C4060 H4045 0.960 . S
C4060 H4046 0.960 . S
C4060 H4047 0.960 . S
C4060 C4059 1.524 . S
C4061 C4058 1.403 . S
C4061 C4062 1.392 . S
C4061 C4065 1.495 . S
C4062 C4061 1.392 . S
C4062 C4063 1.385 . S
C4062 C4064 1.478 . S
C4063 H4057 0.930 . S
C4063 C4059 1.400 . S
C4063 C4062 1.385 . S
C4064 C4062 1.478 . S
C4064 C4066 1.381 . S
C4064 C4070 1.383 . S
C4065 C4061 1.495 . S
C4065 H4071 0.959 . S
C4065 H4072 0.961 . S
C4065 H4073 0.960 . S
C4066 C4064 1.381 . S
C4066 C4067 1.394 . S
C4066 H4074 0.930 . S
C4067 C4066 1.394 . S
C4067 C4068 1.383 . S
C4067 H4075 0.929 . S
C4068 C4067 1.383 . S
C4068 C4069 1.377 . S
C4069 H4053 0.930 . S
C4069 C4068 1.377 . S
C4069 C4070 1.379 . S
C4070 H4054 0.931 . S
C4070 C4064 1.383 . S
C4070 C4069 1.379 . S
H4071 C4065 0.959 . S
H4072 C4065 0.961 . S
H4073 C4065 0.960 . S
H4074 C4066 0.930 . S
H4075 C4067 0.929 . S
H4076 C4084 0.929 . S
H4077 C4086 0.930 . S
H4078 C4088 0.930 . S
H4079 C4091 0.929 . S
H4080 C4094 0.930 . S
H4081 C4096 0.960 . S
H4082 C4096 0.960 . S
H4083 C4096 0.960 . S
C4084 H4076 0.929 . S
C4084 C4085 1.377 . S
C4084 C4086 1.384 . S
C4085 C4084 1.377 . S
C4085 C4091 1.390 . S
C4086 H4077 0.930 . S
C4086 C4084 1.384 . S
C4086 C4087 1.372 . S
C4087 C4086 1.372 . S
C4087 C4088 1.400 . S
C4087 C4092 1.490 . S
C4088 H4078 0.930 . S
C4088 C4087 1.400 . S
C4088 C4091 1.386 . S
H4089 C4105 0.930 . S
H4090 C4106 0.931 . S
C4091 H4079 0.929 . S
C4091 C4085 1.390 . S
C4091 C4088 1.386 . S
C4092 C4087 1.490 . S
C4092 C4094 1.395 . S
C4092 C4095 1.403 . S
H4093 C4099 0.930 . S
C4094 H4080 0.930 . S
C4094 C4092 1.395 . S
C4094 C4097 1.403 . S
C4095 C4092 1.403 . S
C4095 C4096 1.524 . S
C4095 C4099 1.400 . S
C4096 H4081 0.960 . S
C4096 H4082 0.960 . S
C4096 H4083 0.960 . S
C4096 C4095 1.524 . S
C4097 C4094 1.403 . S
C4097 C4098 1.392 . S
C4097 C4101 1.495 . S
C4098 C4097 1.392 . S
C4098 C4099 1.385 . S
C4098 C4100 1.478 . S
C4099 H4093 0.930 . S
C4099 C4095 1.400 . S
C4099 C4098 1.385 . S
C4100 C4098 1.478 . S
C4100 C4102 1.381 . S
C4100 C4106 1.383 . S
C4101 C4097 1.495 . S
C4101 H4107 0.959 . S
C4101 H4108 0.961 . S
C4101 H4109 0.960 . S
C4102 C4100 1.381 . S
C4102 C4103 1.394 . S
C4102 H4110 0.930 . S
C4103 C4102 1.394 . S
C4103 C4104 1.383 . S
C4103 H4111 0.929 . S
C4104 C4103 1.383 . S
C4104 C4105 1.377 . S
C4105 H4089 0.930 . S
C4105 C4104 1.377 . S
C4105 C4106 1.379 . S
C4106 H4090 0.931 . S
C4106 C4100 1.383 . S
C4106 C4105 1.379 . S
H4107 C4101 0.959 . S
H4108 C4101 0.961 . S
H4109 C4101 0.960 . S
H4110 C4102 0.930 . S
H4111 C4103 0.929 . S
C665 C109 1.467 . S
C684 C354 1.449 . S
C701 C65 1.569 . S
C720 C365 1.568 . S
C737 C75 0.851 . S
C756 C394 0.877 . S
C792 C397 1.457 . S
C773 C84 1.468 . S
C809 C25 1.579 . S
C828 C435 1.553 . S
C864 C438 0.781 . S
C845 C28 0.762 . S
C900 C465 1.428 . S
C881 C47 1.433 . S
C917 C9 1.646 . S
C936 C494 1.610 . S
C972 C345 1.553 1_655 S
C953 C233 1.571 . S
C989 C249 0.659 . S
C1008 C357 0.627 . S
C1044 C385 1.619 . S
C1025 C275 1.643 . S
C1080 C414 0.960 . S
C1061 C173 0.951 . S
C1097 C224 0.890 . S
C1116 C418 0.926 . S
C1152 C444 1.628 . S
C1133 C243 1.651 . S
C1188 C457 0.638 . S
C1169 C266 0.602 . S
C1224 C485 1.491 . S
C1205 C179 1.490 . S
C1260 C337 1.521 1_565 S
C1241 C163 1.563 . S
C1277 C289 1.740 . S
C1296 C504 1.726 . S
C1332 C535 1.417 . S
C1313 C333 1.467 . S
C1368 C554 0.724 . S
C1349 C308 0.761 . S
C1385 C123 1.319 . S
C1404 C477 1.318 . S
C1421 C126 1.452 . S
C1440 C377 1.452 . S
C1457 C327 1.604 . S
C1476 C565 1.589 . S
C1512 C594 0.870 . S
C1493 C299 0.863 . S
C1548 C355 1.458 . S
C1529 C67 1.488 . S
C1584 C584 1.593 . S
C1565 C98 1.576 . S
C1601 C89 0.884 . S
C1620 C395 0.884 . S
C1637 C79 1.522 . S
C1656 C558 1.520 . S
C1692 C434 1.548 . S
C1673 C11 1.606 . S
C1709 C51 0.797 . S
C1728 C517 0.802 . S
C1764 C464 1.477 1_556 S
C1745 C33 1.484 . S
C1800 C615 1.570 . S
C1781 C14 1.647 . S
C1836 C344 1.529 . S
C1817 C140 1.544 . S
C1872 C578 0.649 . S
C1853 C319 0.686 . S
C1889 C112 1.653 . S
C1908 C384 1.658 . S
C1925 C285 0.986 . S
C1944 C575 0.952 . S
C1961 C149 0.934 . S
C1980 C417 0.934 . S
C2016 C525 1.655 . S
C1997 C313 1.692 . S
C2033 C121 0.661 . S
C2052 C458 0.697 . S
C2069 C291 1.525 . S
C2088 C604 1.516 . S
C2105 C182 1.570 . S
C2124 C338 1.544 . S
C2141 C168 1.746 . S
C2160 C505 1.722 . S
C2177 C263 1.509 . S
C2196 C454 1.483 . S
C2213 C247 0.822 . S
C2232 C555 0.779 . S
C2268 C598 1.298 . S
C2249 C277 1.332 . S
C2285 C219 1.503 . S
C2304 C378 1.496 . S
C2340 C404 1.643 . S
C2321 C257 1.651 . S
C2376 C375 0.906 . S
C2357 C201 0.881 . S
C2393 C81 1.465 . S
C2412 C634 1.401 . S
C2448 C585 1.568 . S
C2429 C93 1.569 . S
C2465 C103 0.852 . S
C2484 C654 0.831 . S
C2501 C56 1.471 . S
C2520 C557 1.477 . S
C2537 C53 1.576 . S
C2556 C515 1.521 . S
C2592 C518 0.782 . S
C2573 C0 0.762 . S
C2628 C545 1.435 . S
C2609 C19 1.433 . S
C2664 C614 1.610 . S
C2645 C37 1.646 . S
C2700 C625 1.569 . S
C2681 C261 1.571 . S
C2717 C193 0.661 . S
C2736 C577 0.642 . S
C2772 C645 1.631 . S
C2753 C205 1.645 . S
C2808 C574 0.972 . S
C2789 C215 0.950 . S
C2844 C498 0.911 . S
C2825 C252 0.893 . S
C2861 C187 1.649 . S
C2880 C524 1.608 . S
C2916 C537 0.641 . S
C2897 C196 0.603 . S
C2933 C221 1.490 . S
C2952 C605 1.469 . S
C2988 C617 1.559 . S
C2969 C317 1.566 . S
C3005 C135 1.741 . S
C3024 C424 1.709 . S
C3060 C455 1.449 . S
C3041 C151 1.478 . S
C3096 C474 0.712 . S
C3077 C154 0.760 . S
C3132 C597 1.332 . S
C3113 C305 1.323 . S
C3149 C280 1.455 . S
C3168 C637 1.467 . S
C3204 C405 1.574 . S
C3185 C145 1.598 . S
C3240 C374 0.812 . S
C3221 C117 0.867 . S
C3257 C95 1.487 . S
C3276 C635 1.445 . S
C3312 C364 1.578 . S
C3293 C70 1.572 . S
C3329 C61 0.883 . S
C3348 C655 0.861 . S
C3365 C107 1.522 . S
C3384 C398 1.499 . S
C3401 C39 1.608 . S
C3420 C514 1.509 1_556 S
C3456 C437 0.801 . S
C3437 C23 0.797 . S
C3473 C5 1.482 . S
C3492 C544 1.470 . S
C3509 C42 1.646 . S
C3528 C495 1.569 . S
C3564 C624 1.538 . S
C3545 C322 1.546 . S
C3581 C165 0.680 . S
C3600 C358 0.665 . S
C3636 C644 1.641 1_655 S
C3617 C294 1.649 . S
C3653 C131 0.988 . S
C3672 C415 0.981 . S
C3689 C331 0.935 . S
C3708 C497 0.927 . S
C3744 C445 1.666 . S
C3725 C159 1.691 . S
C3761 C303 0.661 . S
C3780 C538 0.692 . S
C3816 C484 1.523 . S
C3797 C137 1.528 . S
C3852 C618 1.554 . S
C3833 C238 1.564 . S
C3888 C425 1.735 . S
C3869 C210 1.745 . S
C3905 C235 1.510 . S
C3924 C534 1.462 . S
C3960 C475 0.775 . S
C3941 C191 0.820 . S
C3977 C207 1.328 . S
C3996 C478 1.327 . S
C4013 C177 1.503 . S
C4032 C638 1.474 . S
C4068 C564 1.639 . S
C4049 C229 1.651 1_565 S
C4104 C595 0.892 . S
C4085 C271 0.880 . S
