# Generated by pormake.
# Topology pth, (4,4)-cn, num edge types: 1
# Building blocks:
#     Node 0, Type 0, BuildingBlock: NAHDIM_clean_sbu_0, # of connection points: 4
#     Node 1, Type 0, BuildingBlock: NAHDIM_clean_sbu_0, # of connection points: 4
#     Node 2, Type 0, BuildingBlock: NAHDIM_clean_sbu_0, # of connection points: 4
#     Node 3, Type 1, BuildingBlock: NAWXER_clean_sbu_0, # of connection points: 4
#     Node 4, Type 1, BuildingBlock: NAWXER_clean_sbu_0, # of connection points: 4
#     Node 5, Type 1, BuildingBlock: NAWXER_clean_sbu_0, # of connection points: 4
#     Edge 6, Type (0, 1), BuildingBlock: FUNLAD_clean_linker_1, # of connection points: 2
#     Edge 7, Type (0, 1), BuildingBlock: FUNLAD_clean_linker_1, # of connection points: 2
#     Edge 8, Type (0, 1), BuildingBlock: FUNLAD_clean_linker_1, # of connection points: 2
#     Edge 9, Type (0, 1), BuildingBlock: FUNLAD_clean_linker_1, # of connection points: 2
#     Edge 10, Type (0, 1), BuildingBlock: FUNLAD_clean_linker_1, # of connection points: 2
#     Edge 11, Type (0, 1), BuildingBlock: FUNLAD_clean_linker_1, # of connection points: 2
#     Edge 12, Type (0, 1), BuildingBlock: FUNLAD_clean_linker_1, # of connection points: 2
#     Edge 13, Type (0, 1), BuildingBlock: FUNLAD_clean_linker_1, # of connection points: 2
#     Edge 14, Type (0, 1), BuildingBlock: FUNLAD_clean_linker_1, # of connection points: 2
#     Edge 15, Type (0, 1), BuildingBlock: FUNLAD_clean_linker_1, # of connection points: 2
#     Edge 16, Type (0, 1), BuildingBlock: FUNLAD_clean_linker_1, # of connection points: 2
#     Edge 17, Type (0, 1), BuildingBlock: FUNLAD_clean_linker_1, # of connection points: 2
# Relax obj value: 0.052
# Max RMSD: 0.176
# Mean RMSD: 0.101
data_MOF--net-pth--node1-NAHDIM_clean_sbu_0--node2-NAWXER_clean_sbu_0--edge1-FUNLAD_clean_linker_1
_symmetry_space_group_name_H-M    P1
_symmetry_Int_Tables_number       1
_symmetry_cell_setting            triclinic
loop_
_symmetry_equiv_pos_as_xyz
'x, y, z'
_cell_length_a     23.743767
_cell_length_b     23.923253
_cell_length_c     58.792907
_cell_angle_alpha  92.073457
_cell_angle_beta   90.012341
_cell_angle_gamma 120.5828
loop_
_atom_site_label
_atom_site_type_symbol
_atom_site_fract_x
_atom_site_fract_y
_atom_site_fract_z
_atom_type_partial_charge
C0 C 0.02026 0.96272 0.10844 0.0
O1 O 0.9623 0.95698 0.10702 0.0
O2 O 0.03637 0.12365 0.09859 0.0
Zn3 Zn 0.04516 0.06006 0.07755 0.0
O4 O 0.96102 0.99772 0.06025 0.0
C5 C 0.12514 0.16563 0.04954 0.0
O6 O 0.08486 0.18415 0.05703 0.0
O7 O 0.06685 0.00541 0.09704 0.0
C8 C 0.94429 0.00548 0.04063 0.0
O9 O 0.98181 0.05945 0.03018 0.0
C10 C 0.98339 0.11699 0.10628 0.0
O11 O 0.92742 0.06479 0.10049 0.0
O12 O 0.11809 0.11204 0.05574 0.0
C13 C 0.09614 0.17747 0.3702 0.0
O14 O 0.13043 0.15145 0.36308 0.0
O15 O 0.073 0.02807 0.38931 0.0
Zn16 Zn 0.07723 0.10049 0.40932 0.0
O17 O 1.00318 0.06723 0.43158 0.0
C18 C 0.17718 0.10738 0.43754 0.0
O19 O 0.13529 0.04448 0.4369 0.0
O20 O 0.06998 0.16389 0.3896 0.0
C21 C 0.00926 0.10622 0.44797 0.0
O22 O 0.06276 0.16354 0.44986 0.0
C23 C 0.02064 0.98409 0.37945 0.0
O24 O 0.96578 0.98378 0.38265 0.0
O25 O 0.16348 0.14409 0.42672 0.0
C26 C 0.13715 0.02983 0.71452 0.0
O27 O 0.15416 0.09141 0.71616 0.0
O28 O 0.97618 0.03252 0.72123 0.0
Zn29 Zn 0.03243 0.01645 0.74277 0.0
O30 O 0.09203 0.09744 0.76189 0.0
C31 C 0.91269 0.92253 0.76414 0.0
O32 O 0.88612 0.94494 0.75032 0.0
O33 O 0.08645 0.98817 0.72456 0.0
C34 C 0.06847 0.12385 0.77484 0.0
O35 O 1.00485 0.09893 0.77529 0.0
C36 C 0.99207 0.08633 0.71255 0.0
O37 O 0.04989 0.13757 0.71722 0.0
O38 O 0.97416 0.94527 0.76391 0.0
C39 C 0.09553 0.67004 0.27321 0.0
C40 C 0.08355 0.51412 0.21468 0.0
O41 O 0.143 0.66938 0.26351 0.0
Zn42 Zn 0.09108 0.59266 0.24399 0.0
O43 O 0.03663 0.62529 0.26812 0.0
Zn44 Zn 0.98722 0.54062 0.24571 0.0
O45 O 0.94323 0.47105 0.26654 0.0
O46 O 0.05071 0.51586 0.26758 0.0
O47 O 0.02706 0.50086 0.22168 0.0
O48 O 0.13464 0.56404 0.22287 0.0
O49 O 0.04205 0.62459 0.22184 0.0
O50 O 0.93565 0.56256 0.22658 0.0
C51 C 0.99412 0.47334 0.27451 0.0
C52 C 0.98319 0.60941 0.2169 0.0
C53 C 0.6872 0.14503 0.60189 0.0
C54 C 0.52503 0.11505 0.54434 0.0
O55 O 0.64175 0.08543 0.59877 0.0
Zn56 Zn 0.55437 0.02972 0.57814 0.0
O57 O 0.68544 0.18876 0.59082 0.0
Zn58 Zn 0.6062 0.13164 0.57337 0.0
O59 O 0.5322 0.09948 0.59868 0.0
O60 O 0.48582 0.99296 0.60036 0.0
O61 O 0.57491 0.16822 0.55126 0.0
O62 O 0.51289 0.06155 0.55283 0.0
O63 O 0.57523 0.97287 0.56056 0.0
O64 O 0.63643 0.07626 0.55253 0.0
C65 C 0.48988 0.04591 0.60722 0.0
C66 C 0.62122 0.0168 0.54935 0.0
C67 C 0.50172 0.44251 0.94116 0.0
C68 C 0.6466 0.57945 0.88278 0.0
O69 O 0.48225 0.47892 0.93291 0.0
Zn70 Zn 0.51489 0.55231 0.90785 0.0
O71 O 0.55421 0.44656 0.93422 0.0
Zn72 Zn 0.57436 0.51101 0.91197 0.0
O73 O 0.60316 0.59834 0.93248 0.0
O74 O 0.53234 0.62965 0.92526 0.0
O75 O 0.65052 0.53667 0.89367 0.0
O76 O 0.59897 0.58933 0.88636 0.0
O77 O 0.44255 0.51482 0.88623 0.0
O78 O 0.49469 0.46039 0.88748 0.0
C79 C 0.58318 0.63871 0.93578 0.0
C80 C 0.44842 0.46708 0.87938 0.0
H81 H 0.93872 0.15841 0.12914 0.0
C82 C 0.98466 0.16696 0.12211 0.0
H83 H 0.08674 0.23212 0.12072 0.0
H84 H 0.0641 0.47618 0.15261 0.0
H85 H 0.0863 0.49633 0.11256 0.0
H86 H 0.08874 0.4144 0.08652 0.0
H87 H 0.06852 0.31157 0.10037 0.0
C88 C 0.04072 0.22188 0.12815 0.0
C89 C 0.04153 0.27196 0.14414 0.0
C90 C 0.0548 0.33235 0.13587 0.0
C91 C 0.05416 0.37993 0.15094 0.0
C92 C 0.06521 0.43883 0.14204 0.0
C93 C 0.07776 0.45093 0.11904 0.0
C94 C 0.07909 0.40478 0.10438 0.0
C95 C 0.06754 0.34601 0.11257 0.0
H96 H 0.13736 0.48293 0.19172 0.0
C97 C 0.08912 0.47036 0.19765 0.0
H98 H 0.98806 0.40042 0.1965 0.0
H99 H 0.02174 0.16437 0.16605 0.0
H100 H 1.00229 0.14535 0.20627 0.0
H101 H 1.00057 0.22754 0.23234 0.0
H102 H 0.01789 0.32915 0.21835 0.0
C103 C 0.03618 0.41468 0.18999 0.0
C104 C 0.04127 0.36732 0.17432 0.0
C105 C 0.02968 0.30761 0.1827 0.0
C106 C 0.03022 0.26002 0.16763 0.0
C107 C 0.02044 0.20164 0.17661 0.0
C108 C 0.00958 0.19022 0.19971 0.0
C109 C 0.00854 0.23647 0.21439 0.0
C110 C 0.01846 0.29455 0.2061 0.0
H111 H 0.96483 0.12685 0.47744 0.0
C112 C 0.95621 0.09044 0.46412 0.0
H113 H 0.88687 0.99978 0.44865 0.0
H114 H 0.77824 0.02968 0.55179 0.0
H115 H 0.86704 0.01907 0.56711 0.0
H116 H 0.94434 0.00927 0.54158 0.0
H117 H 0.93383 0.0111 0.50055 0.0
C118 C 0.89744 0.03562 0.46238 0.0
C119 C 0.84344 0.02731 0.47747 0.0
C120 C 0.84842 0.0231 0.50133 0.0
C121 C 0.80257 0.0266 0.516 0.0
C122 C 0.81082 0.02586 0.53983 0.0
C123 C 0.86166 0.01986 0.54886 0.0
C124 C 0.90528 0.01451 0.53449 0.0
C125 C 0.89895 0.01603 0.51099 0.0
H126 H 0.64761 0.95006 0.53165 0.0
C127 C 0.65915 1.0002 0.53342 0.0
H128 H 0.72025 0.09647 0.5232 0.0
H129 H 0.81555 0.02951 0.43238 0.0
H130 H 0.72385 0.0352 0.41702 0.0
H131 H 0.64297 0.03871 0.44246 0.0
H132 H 0.65345 0.03669 0.48348 0.0
C133 C 0.70905 0.0464 0.52188 0.0
C134 C 0.75069 0.03228 0.5067 0.0
C135 C 0.74308 0.03187 0.48279 0.0
C136 C 0.78943 0.02928 0.46813 0.0
C137 C 0.78158 0.03088 0.44432 0.0
C138 C 0.72915 0.03418 0.43527 0.0
C139 C 0.68364 0.0362 0.44959 0.0
C140 C 0.6903 0.03516 0.47309 0.0
H141 H 0.81807 0.85312 0.77865 0.0
C142 C 0.87043 0.87179 0.77982 0.0
H143 H 0.94612 0.86881 0.7977 0.0
H144 H 0.7653 0.76722 0.88472 0.0
H145 H 0.84481 0.87764 0.89759 0.0
H146 H 0.92792 0.9535 0.8716 0.0
H147 H 0.93141 0.91993 0.83243 0.0
C148 C 0.8938 0.84914 0.79559 0.0
C149 C 0.84871 0.80086 0.81185 0.0
C150 C 0.84827 0.82085 0.8348 0.0
C151 C 0.80034 0.77706 0.84979 0.0
C152 C 0.80031 0.79864 0.87255 0.0
C153 C 0.84586 0.86176 0.8802 0.0
C154 C 0.8926 0.90454 0.86555 0.0
C155 C 0.89403 0.88464 0.84311 0.0
H156 H 0.73569 0.6075 0.8629 0.0
C157 C 0.69782 0.61909 0.86657 0.0
H158 H 0.66379 0.68395 0.86134 0.0
H159 H 0.84197 0.74456 0.76983 0.0
H160 H 0.76135 0.63482 0.75665 0.0
H161 H 0.67544 0.56014 0.78215 0.0
H162 H 0.67004 0.59437 0.82101 0.0
C163 C 0.69969 0.67016 0.85699 0.0
C164 C 0.75334 0.71322 0.84183 0.0
C165 C 0.75521 0.69246 0.81909 0.0
C166 C 0.8035 0.73614 0.80416 0.0
C167 C 0.8052 0.71389 0.78167 0.0
C168 C 0.75945 0.65095 0.77393 0.0
C169 C 0.71117 0.60885 0.7883 0.0
C170 C 0.70878 0.62909 0.81062 0.0
H171 H 0.08034 0.9279 0.1246 0.0
C172 C 0.03123 0.9202 0.1231 0.0
H173 H 0.93239 0.86276 0.13246 0.0
H174 H 0.96401 0.62274 0.15532 0.0
H175 H 0.90921 0.58603 0.1184 0.0
H176 H 0.89134 0.65943 0.09502 0.0
H177 H 0.92882 0.77029 0.10835 0.0
C178 C 0.98211 0.87243 0.13442 0.0
C179 C 0.99264 0.82844 0.14875 0.0
C180 C 0.96901 0.76332 0.14097 0.0
C181 C 0.9782 0.72061 0.15465 0.0
C182 C 0.95668 0.65671 0.14597 0.0
C183 C 0.9255 0.6351 0.12472 0.0
C184 C 0.91551 0.67645 0.11154 0.0
C185 C 0.93712 0.73992 0.11943 0.0
H186 H 0.92088 0.63576 0.1974 0.0
C187 C 0.97103 0.64805 0.20071 0.0
H188 H 0.07095 0.71309 0.19459 0.0
H189 H 0.0404 0.94922 0.1693 0.0
H190 H 0.0947 0.98594 0.20632 0.0
H191 H 0.11076 0.91205 0.23006 0.0
H192 H 0.07199 0.80081 0.21706 0.0
C193 C 0.02058 0.69916 0.19075 0.0
C194 C 0.0097 0.7428 0.17633 0.0
C195 C 0.03315 0.80792 0.18414 0.0
C196 C 0.02439 0.85073 0.17037 0.0
C197 C 0.04678 0.91498 0.17886 0.0
C198 C 0.07779 0.93663 0.20014 0.0
C199 C 0.08679 0.89502 0.21351 0.0
C200 C 0.06452 0.8313 0.20577 0.0
H201 H 0.27203 0.18765 0.45137 0.0
C202 C 0.23918 0.13528 0.45077 0.0
H203 H 0.22397 0.04491 0.46091 0.0
H204 H 0.51688 0.13206 0.48127 0.0
H205 H 0.50267 0.08001 0.44377 0.0
H206 H 0.40405 0.04801 0.42018 0.0
H207 H 0.31923 0.06814 0.43389 0.0
C208 C 0.25543 0.09746 0.46204 0.0
C209 C 0.31817 0.12436 0.47512 0.0
C210 C 0.36719 0.11222 0.46686 0.0
C211 C 0.42365 0.12995 0.48055 0.0
C212 C 0.47232 0.11812 0.47176 0.0
C213 C 0.46497 0.0887 0.45021 0.0
C214 C 0.40947 0.07074 0.43693 0.0
C215 C 0.36106 0.08235 0.44504 0.0
H216 H 0.43959 0.06523 0.52115 0.0
C217 C 0.47935 0.11293 0.52691 0.0
H218 H 0.52006 0.21438 0.52481 0.0
H219 H 0.2347 0.15695 0.49585 0.0
H220 H 0.25086 0.21182 0.5328 0.0
H221 H 0.34966 0.24389 0.55627 0.0
H222 H 0.43283 0.22095 0.54291 0.0
C223 C 0.48266 0.1661 0.51864 0.0
C224 C 0.43048 0.15884 0.50263 0.0
C225 C 0.3836 0.17482 0.51029 0.0
C226 C 0.32699 0.15703 0.49662 0.0
C227 C 0.27925 0.17047 0.50526 0.0
C228 C 0.28777 0.20173 0.52652 0.0
C229 C 0.34336 0.21973 0.53974 0.0
C230 C 0.39073 0.20628 0.53186 0.0
H231 H 0.08863 0.19996 0.8013 0.0
C232 C 0.11133 0.18016 0.79015 0.0
H233 H 0.20018 0.1878 0.77986 0.0
H234 H 0.38175 0.47815 0.81618 0.0
H235 H 0.38376 0.493 0.77548 0.0
H236 H 0.30998 0.40219 0.74904 0.0
H237 H 0.23387 0.29587 0.76309 0.0
C238 C 0.17649 0.20583 0.7913 0.0
C239 C 0.21868 0.2611 0.80749 0.0
C240 C 0.26256 0.32301 0.79902 0.0
C241 C 0.30476 0.37554 0.81427 0.0
C242 C 0.34848 0.43669 0.80533 0.0
C243 C 0.35012 0.44588 0.78202 0.0
C244 C 0.30859 0.39473 0.76713 0.0
C245 C 0.26522 0.33392 0.77542 0.0
H246 H 0.40737 0.37608 0.8585 0.0
C247 C 0.40134 0.41728 0.86286 0.0
H248 H 0.34442 0.46087 0.85728 0.0
H249 H 0.14347 0.14772 0.82946 0.0
H250 H 0.13846 0.13444 0.87021 0.0
H251 H 0.20689 0.22736 0.89674 0.0
H252 H 0.28201 0.33369 0.88261 0.0
C253 C 0.3508 0.41958 0.85369 0.0
C254 C 0.30319 0.366 0.83795 0.0
C255 C 0.25796 0.30464 0.84652 0.0
C256 C 0.21651 0.25177 0.83126 0.0
C257 C 0.17439 0.19019 0.84026 0.0
C258 C 0.1713 0.18175 0.86364 0.0
C259 C 0.21004 0.23397 0.87858 0.0
C260 C 0.25309 0.29473 0.87022 0.0
H261 H 0.89641 0.04644 0.6951 0.0
C262 C 0.94409 0.09014 0.69776 0.0
H263 H 1.00442 0.18846 0.68948 0.0
H264 H 0.8332 0.13538 0.59862 0.0
H265 H 0.93427 0.15045 0.58297 0.0
H266 H 0.02388 0.16415 0.60819 0.0
H267 H 0.01277 0.16244 0.64925 0.0
C268 C 0.95653 0.14472 0.6877 0.0
C269 C 0.90597 0.14504 0.67278 0.0
C270 C 0.91413 0.14833 0.64888 0.0
C271 C 0.86269 0.14111 0.63435 0.0
C272 C 0.871 0.14163 0.61048 0.0
C273 C 0.92873 0.15005 0.60126 0.0
C274 C 0.97917 0.15771 0.61546 0.0
C275 C 0.97217 0.1567 0.63899 0.0
H276 H 0.78184 0.21262 0.61948 0.0
C277 C 0.74277 0.16215 0.61758 0.0
H278 H 0.70764 0.06582 0.62731 0.0
H279 H 0.87838 0.14621 0.71797 0.0
H280 H 0.77758 0.13206 0.73364 0.0
H281 H 0.68768 0.11762 0.70841 0.0
H282 H 0.69824 0.11773 0.66733 0.0
C283 C 0.74691 0.11627 0.62875 0.0
C284 C 0.80367 0.13166 0.64381 0.0
C285 C 0.79664 0.13118 0.66774 0.0
C286 C 0.84806 0.13848 0.68226 0.0
C287 C 0.8402 0.13917 0.70613 0.0
C288 C 0.78277 0.13153 0.71536 0.0
C289 C 0.73218 0.12347 0.70115 0.0
C290 C 0.7388 0.12343 0.67761 0.0
H291 H 0.86111 0.90492 0.03766 0.0
C292 C 0.88656 0.95047 0.02899 0.0
H293 H 0.89364 0.99789 0.99864 0.0
H294 H 0.77204 0.74281 0.93557 0.0
H295 H 0.88316 0.80336 0.92231 0.0
H296 H 0.96508 0.90569 0.94212 0.0
H297 H 0.93637 0.94806 0.97532 0.0
C298 C 0.86729 0.95328 0.00777 0.0
C299 C 0.81617 0.89344 0.99516 0.0
C300 C 0.83388 0.86927 0.97575 0.0
C301 C 0.78697 0.8096 0.96458 0.0
C302 C 0.80593 0.78707 0.94507 0.0
C303 C 0.86958 0.82149 0.93718 0.0
C304 C 0.91565 0.87915 0.94831 0.0
C305 C 0.89836 0.90298 0.96736 0.0
H306 H 0.60857 0.73537 0.95048 0.0
C307 C 0.62204 0.69821 0.9503 0.0
H308 H 0.69043 0.67282 0.96117 0.0
H309 H 0.76305 0.9311 0.02945 0.0
H310 H 0.65291 0.86859 0.04368 0.0
H311 H 0.57428 0.76071 0.02639 0.0
H312 H 0.60478 0.71536 0.99448 0.0
C313 C 0.67581 0.70914 0.96189 0.0
C314 C 0.72257 0.77363 0.97297 0.0
C315 C 0.70452 0.79823 0.99218 0.0
C316 C 0.75092 0.85899 1.00291 0.0
C317 C 0.73066 0.88401 0.0213 0.0
C318 C 0.66744 0.84883 0.02953 0.0
C319 C 0.62309 0.78821 0.01974 0.0
C320 C 0.64115 0.76291 1.00131 0.0
H321 H 0.97494 0.89667 0.35641 0.0
C322 C 0.02125 0.93453 0.36392 0.0
H323 H 0.12335 0.97253 0.36618 0.0
H324 H 0.10271 0.70595 0.33541 0.0
H325 H 0.13878 0.71814 0.3748 0.0
H326 H 0.14704 0.80696 0.39993 0.0
H327 H 0.11897 0.88394 0.38586 0.0
C328 C 0.07689 0.9358 0.35843 0.0
C329 C 0.07639 0.88529 0.34269 0.0
C330 C 0.09438 0.84154 0.35106 0.0
C331 C 0.09017 0.79061 0.33651 0.0
C332 C 0.10608 0.74618 0.34557 0.0
C333 C 0.12663 0.75245 0.36819 0.0
C334 C 0.13124 0.80243 0.38235 0.0
C335 C 0.1151 0.84641 0.37402 0.0
H336 H 0.15795 0.76085 0.29381 0.0
C337 C 0.10773 0.72341 0.28964 0.0
H338 H 0.00768 0.69181 0.29396 0.0
H339 H 0.04896 0.96733 0.32012 0.0
H340 H 0.01412 0.95582 0.28061 0.0
H341 H 1.0033 0.86544 0.25576 0.0
H342 H 0.02868 0.78683 0.27013 0.0
C343 C 0.05799 0.72765 0.29875 0.0
C344 C 0.06866 0.78406 0.31356 0.0
C345 C 0.05289 0.82916 0.30496 0.0
C346 C 0.05757 0.88034 0.31945 0.0
C347 C 0.04403 0.92617 0.31013 0.0
C348 C 0.02451 0.92047 0.2874 0.0
C349 C 0.0186 0.86969 0.27339 0.0
C350 C 0.03296 0.82468 0.28192 0.0
H351 H 0.1593 0.95697 0.69974 0.0
C352 C 0.17565 0.0085 0.70092 0.0
H353 H 0.2475 0.10253 0.69156 0.0
H354 H 0.46689 0.03587 0.67014 0.0
H355 H 0.50505 0.09102 0.70724 0.0
H356 H 0.43551 0.11842 0.73066 0.0
H357 H 0.32729 0.09052 0.71719 0.0
C358 C 0.22944 0.0507 0.68992 0.0
C359 C 0.26878 0.02938 0.67643 0.0
C360 C 0.33205 0.04641 0.68448 0.0
C361 C 0.37251 0.03144 0.67086 0.0
C362 C 0.43489 0.04769 0.67955 0.0
C363 C 0.45719 0.07891 0.70088 0.0
C364 C 0.41801 0.09428 0.71407 0.0
C365 C 0.35607 0.07818 0.7061 0.0
H366 H 0.45377 0.09511 0.62996 0.0
C367 C 0.44592 0.04764 0.62456 0.0
H368 H 0.38514 0.94614 0.62736 0.0
H369 H 0.14982 0.98936 0.65581 0.0
H370 H 0.11109 0.93202 0.61917 0.0
H371 H 0.18079 0.90471 0.59584 0.0
H372 H 0.28988 0.93491 0.609 0.0
C373 C 0.39583 0.99426 0.63317 0.0
C374 C 0.35013 1.00055 0.649 0.0
C375 C 0.28565 0.98055 0.64143 0.0
C376 C 0.24509 0.99553 0.65505 0.0
C377 C 0.18218 0.97795 0.64649 0.0
C378 C 0.15942 0.94528 0.62539 0.0
C379 C 0.19869 0.92998 0.61225 0.0
C380 C 0.26121 0.94756 0.62002 0.0
H381 H 0.18146 0.25378 0.03023 0.0
C382 C 0.17793 0.20816 0.03435 0.0
H383 H 0.21771 0.14738 0.02884 0.0
H384 H 0.33908 0.28404 0.93542 0.0
H385 H 0.25524 0.1762 0.9216 0.0
H386 H 0.1782 0.09617 0.94806 0.0
H387 H 0.18496 0.12308 0.98857 0.0
C388 C 0.22134 0.19353 0.02561 0.0
C389 C 0.27271 0.23887 0.01011 0.0
C390 C 0.26846 0.22205 0.98656 0.0
C391 C 0.31253 0.26839 0.97126 0.0
C392 C 0.30666 0.25073 0.94776 0.0
C393 C 0.25876 0.18906 0.9396 0.0
C394 C 0.21545 0.14394 0.95451 0.0
C395 C 0.21989 0.16001 0.97772 0.0
H396 H 0.48244 0.36794 0.9661 0.0
C397 C 0.4624 0.39461 0.95816 0.0
H398 H 0.3803 0.40631 0.955 0.0
H399 H 0.30118 0.28282 0.05465 0.0
H400 H 0.38641 0.38985 0.06854 0.0
H401 H 0.46048 0.47142 0.04188 0.0
H402 H 0.4502 0.44624 1.00118 0.0
C403 C 0.40193 0.38168 0.96334 0.0
C404 C 0.36091 0.33121 0.9796 0.0
C405 C 0.36727 0.34697 0.00327 0.0
C406 C 0.32356 0.30048 0.01859 0.0
C407 C 0.33188 0.31696 0.04221 0.0
C408 C 0.38085 0.37806 0.05042 0.0
C409 C 0.42264 0.42395 0.03541 0.0
C410 C 0.4162 0.40886 0.0121 0.0
H411 H 0.11155 0.2317 0.33904 0.0
C412 C 0.08709 0.2207 0.35529 0.0
H413 H 0.02557 0.23645 0.37728 0.0
H414 H 0.0938 0.50101 0.33285 0.0
H415 H 0.14682 0.53986 0.37002 0.0
H416 H 0.15256 0.46485 0.39636 0.0
H417 H 0.1051 0.35049 0.38573 0.0
C418 C 0.04914 0.24562 0.36089 0.0
C419 C 0.04175 0.28968 0.3455 0.0
C420 C 0.06952 0.35629 0.35202 0.0
C421 C 0.06693 0.39968 0.33672 0.0
C422 C 0.09513 0.46605 0.34368 0.0
C423 C 0.12555 0.48899 0.365 0.0
C424 C 0.12871 0.44674 0.37984 0.0
C425 C 0.1012 0.38117 0.37352 0.0
H426 H 0.94004 0.39163 0.29736 0.0
C427 C 0.98822 0.42606 0.2912 0.0
H428 H 0.08932 0.45888 0.29255 0.0
H429 H 0.97399 0.16312 0.32927 0.0
H430 H 0.92125 0.1241 0.29208 0.0
H431 H 0.92248 0.20018 0.26461 0.0
H432 H 0.97613 0.31555 0.27414 0.0
C433 C 0.04083 0.42367 0.29825 0.0
C434 C 0.03664 0.37643 0.31492 0.0
C435 C 1.00706 0.30935 0.30864 0.0
C436 C 0.00852 0.26575 0.32414 0.0
C437 C 0.97634 0.19866 0.31785 0.0
C438 C 0.94555 0.17555 0.2966 0.0
C439 C 0.94617 0.21838 0.28115 0.0
C440 C 0.97678 0.28455 0.28694 0.0
loop_
_geom_bond_atom_site_label_1
_geom_bond_atom_site_label_2
_geom_bond_distance
_geom_bond_site_symmetry_2
_ccdc_geom_bond_type
C0 O1 1.160 . S
C0 O7 1.185 1_565 S
O1 C0 1.160 . S
O2 Zn3 1.899 . S
O2 C10 1.284 . S
Zn3 O2 1.899 . S
Zn3 O4 2.032 1_445 S
Zn3 O7 2.086 . S
Zn3 O12 1.977 . S
O4 Zn3 2.032 1_665 S
O4 C8 1.278 . S
C5 O6 1.203 . S
C5 O12 1.267 . S
O6 C5 1.203 . S
O7 C0 1.185 1_545 S
O7 Zn3 2.086 . S
C8 O4 1.278 . S
C8 O9 1.211 1_565 S
O9 C8 1.211 1_545 S
C10 O2 1.284 . S
C10 O11 1.273 1_455 S
O11 C10 1.273 1_655 S
O12 Zn3 1.977 . S
O12 C5 1.267 . S
C13 O14 1.160 . S
C13 O20 1.185 . S
O14 C13 1.160 . S
O15 Zn16 1.899 . S
O15 C23 1.284 1_545 S
Zn16 O15 1.899 . S
Zn16 O17 2.026 1_455 S
Zn16 O20 2.086 . S
Zn16 O25 1.977 . S
O17 Zn16 2.026 1_655 S
O17 C21 1.278 . S
C18 O19 1.203 . S
C18 O25 1.267 . S
O19 C18 1.203 . S
O20 C13 1.185 . S
O20 Zn16 2.086 . S
C21 O17 1.278 . S
C21 O22 1.211 1_655 S
O22 C21 1.211 1_455 S
C23 O15 1.284 1_565 S
C23 O24 1.273 1_455 S
O24 C23 1.273 1_655 S
O25 Zn16 1.977 . S
O25 C18 1.267 . S
C26 O27 1.160 . S
C26 O33 1.185 1_545 S
O27 C26 1.160 . S
O28 Zn29 1.899 1_655 S
O28 C36 1.284 . S
Zn29 O28 1.899 1_455 S
Zn29 O30 2.032 . S
Zn29 O33 2.086 1_545 S
Zn29 O38 1.977 1_445 S
O30 Zn29 2.032 . S
O30 C34 1.278 . S
C31 O32 1.203 . S
C31 O38 1.267 . S
O32 C31 1.203 . S
O33 C26 1.185 1_565 S
O33 Zn29 2.086 1_565 S
C34 O30 1.278 . S
C34 O35 1.211 . S
O35 C34 1.211 . S
C36 O28 1.284 . S
C36 O37 1.273 . S
O37 C36 1.273 . S
O38 Zn29 1.977 1_665 S
O38 C31 1.267 . S
C39 O41 1.247 . S
C39 O43 1.258 1_455 S
C40 O47 1.247 1_455 S
C40 O48 1.258 . S
O41 C39 1.247 . S
O41 Zn42 2.028 . S
Zn42 O41 2.028 . S
Zn42 O46 2.035 . S
Zn42 O48 2.035 . S
Zn42 O49 2.028 . S
O43 C39 1.258 1_655 S
O43 Zn44 2.035 . S
Zn44 O43 2.035 . S
Zn44 O45 2.028 . S
Zn44 O47 2.028 . S
Zn44 O50 2.035 . S
O45 Zn44 2.028 . S
O45 C51 1.247 1_655 S
O46 Zn42 2.035 . S
O46 C51 1.258 . S
O47 C40 1.247 1_655 S
O47 Zn44 2.028 . S
O48 C40 1.258 . S
O48 Zn42 2.035 . S
O49 Zn42 2.028 . S
O49 C52 1.247 . S
O50 Zn44 2.035 . S
O50 C52 1.258 1_655 S
C51 O45 1.247 1_455 S
C51 O46 1.258 . S
C52 O49 1.247 . S
C52 O50 1.258 1_455 S
C53 O55 1.247 1_545 S
C53 O57 1.258 . S
C54 O61 1.247 . S
C54 O62 1.258 1_545 S
O55 C53 1.247 1_565 S
O55 Zn56 2.028 . S
Zn56 O55 2.028 . S
Zn56 O60 2.035 . S
Zn56 O62 2.035 . S
Zn56 O63 2.028 . S
O57 C53 1.258 . S
O57 Zn58 2.035 . S
Zn58 O57 2.035 . S
Zn58 O59 2.028 . S
Zn58 O61 2.028 . S
Zn58 O64 2.035 . S
O59 Zn58 2.028 . S
O59 C65 1.247 . S
O60 Zn56 2.035 . S
O60 C65 1.258 1_565 S
O61 C54 1.247 . S
O61 Zn58 2.028 . S
O62 C54 1.258 1_565 S
O62 Zn56 2.035 . S
O63 Zn56 2.028 . S
O63 C66 1.247 1_565 S
O64 Zn58 2.035 . S
O64 C66 1.258 . S
C65 O59 1.247 . S
C65 O60 1.258 1_545 S
C66 O63 1.247 1_545 S
C66 O64 1.258 . S
C67 O69 1.247 . S
C67 O71 1.258 . S
C68 O75 1.247 . S
C68 O76 1.258 . S
O69 C67 1.247 . S
O69 Zn70 2.028 . S
Zn70 O69 2.028 . S
Zn70 O74 2.035 . S
Zn70 O76 2.035 . S
Zn70 O77 2.028 . S
O71 C67 1.258 . S
O71 Zn72 2.035 . S
Zn72 O71 2.035 . S
Zn72 O73 2.028 . S
Zn72 O75 2.028 . S
Zn72 O78 2.035 . S
O73 Zn72 2.028 . S
O73 C79 1.247 . S
O74 Zn70 2.035 . S
O74 C79 1.258 . S
O75 C68 1.247 . S
O75 Zn72 2.028 . S
O76 C68 1.258 . S
O76 Zn70 2.035 . S
O77 Zn70 2.028 . S
O77 C80 1.247 . S
O78 Zn72 2.035 . S
O78 C80 1.258 . S
C79 O73 1.247 . S
C79 O74 1.258 . S
C80 O77 1.247 . S
C80 O78 1.258 . S
H81 C82 0.951 1_655 S
C82 H81 0.951 1_455 S
C82 C88 1.265 . S
H83 C88 0.950 . S
H84 C92 0.949 . S
H85 C93 0.950 . S
H86 C94 0.951 . S
H87 C95 0.951 . S
C88 C82 1.265 . S
C88 H83 0.950 . S
C88 C89 1.478 . S
C89 C88 1.478 . S
C89 C90 1.397 . S
C89 C106 1.394 1_455 S
C90 C89 1.397 . S
C90 C91 1.438 . S
C90 C95 1.429 . S
C91 C90 1.438 . S
C91 C92 1.428 . S
C91 C104 1.394 . S
C92 H84 0.949 . S
C92 C91 1.428 . S
C92 C93 1.345 . S
C93 H85 0.950 . S
C93 C92 1.345 . S
C93 C94 1.424 . S
C94 H86 0.951 . S
C94 C93 1.424 . S
C94 C95 1.347 . S
C95 H87 0.951 . S
C95 C90 1.429 . S
C95 C94 1.347 . S
H96 C97 0.951 . S
C97 H96 0.951 . S
C97 C103 1.260 1_455 S
H98 C103 0.964 . S
H99 C107 0.949 . S
H100 C108 0.950 . S
H101 C109 0.951 . S
H102 C110 0.951 . S
C103 C97 1.260 1_655 S
C103 H98 0.964 . S
C103 C104 1.470 1_655 S
C104 C91 1.394 . S
C104 C103 1.470 1_455 S
C104 C105 1.397 1_455 S
C105 C104 1.397 1_655 S
C105 C106 1.438 . S
C105 C110 1.429 . S
C106 C89 1.394 1_655 S
C106 C105 1.438 . S
C106 C107 1.428 . S
C107 H99 0.949 . S
C107 C106 1.428 . S
C107 C108 1.345 . S
C108 H100 0.950 . S
C108 C107 1.345 . S
C108 C109 1.424 . S
C109 H101 0.951 . S
C109 C108 1.424 . S
C109 C110 1.347 . S
C110 H102 0.951 . S
C110 C105 1.429 . S
C110 C109 1.347 . S
H111 C112 0.951 . S
C112 H111 0.951 . S
C112 C118 1.265 . S
H113 C118 0.950 . S
H114 C122 0.949 . S
H115 C123 0.950 . S
H116 C124 0.951 . S
H117 C125 0.951 . S
C118 C112 1.265 . S
C118 H113 0.950 . S
C118 C119 1.478 . S
C119 C118 1.478 . S
C119 C120 1.397 1_545 S
C119 C136 1.394 . S
C120 C119 1.397 1_565 S
C120 C121 1.444 . S
C120 C125 1.429 . S
C121 C120 1.444 . S
C121 C122 1.436 . S
C121 C134 1.381 1_565 S
C122 H114 0.949 . S
C122 C121 1.436 . S
C122 C123 1.345 . S
C123 H115 0.950 . S
C123 C122 1.345 . S
C123 C124 1.424 . S
C124 H116 0.951 . S
C124 C123 1.424 . S
C124 C125 1.347 . S
C125 H117 0.951 . S
C125 C120 1.429 . S
C125 C124 1.347 . S
H126 C127 0.951 . S
C127 H126 0.951 . S
C127 C133 1.265 . S
H128 C133 0.950 . S
H129 C137 0.949 . S
H130 C138 0.950 . S
H131 C139 0.951 . S
H132 C140 0.951 . S
C133 C127 1.265 . S
C133 H128 0.950 . S
C133 C134 1.478 . S
C134 C121 1.381 1_545 S
C134 C133 1.478 . S
C134 C135 1.397 . S
C135 C134 1.397 . S
C135 C136 1.438 . S
C135 C140 1.429 . S
C136 C119 1.394 . S
C136 C135 1.438 . S
C136 C137 1.428 . S
C137 H129 0.949 . S
C137 C136 1.428 . S
C137 C138 1.345 . S
C138 H130 0.950 . S
C138 C137 1.345 . S
C138 C139 1.424 . S
C139 H131 0.951 . S
C139 C138 1.424 . S
C139 C140 1.347 . S
C140 H132 0.951 . S
C140 C135 1.429 . S
C140 C139 1.347 . S
H141 C142 0.951 . S
C142 H141 0.951 . S
C142 C148 1.265 . S
H143 C148 0.950 . S
H144 C152 0.949 . S
H145 C153 0.950 . S
H146 C154 0.951 . S
H147 C155 0.951 . S
C148 C142 1.265 . S
C148 H143 0.950 . S
C148 C149 1.478 . S
C149 C148 1.478 . S
C149 C150 1.397 . S
C149 C166 1.394 . S
C150 C149 1.397 . S
C150 C151 1.438 . S
C150 C155 1.429 . S
C151 C150 1.438 . S
C151 C152 1.428 . S
C151 C164 1.394 . S
C152 H144 0.949 . S
C152 C151 1.428 . S
C152 C153 1.345 . S
C153 H145 0.950 . S
C153 C152 1.345 . S
C153 C154 1.424 . S
C154 H146 0.951 . S
C154 C153 1.424 . S
C154 C155 1.347 . S
C155 H147 0.951 . S
C155 C150 1.429 . S
C155 C154 1.347 . S
H156 C157 0.951 . S
C157 H156 0.951 . S
C157 C163 1.265 . S
H158 C163 0.950 . S
H159 C167 0.949 . S
H160 C168 0.950 . S
H161 C169 0.951 . S
H162 C170 0.951 . S
C163 C157 1.265 . S
C163 H158 0.950 . S
C163 C164 1.478 . S
C164 C151 1.394 . S
C164 C163 1.478 . S
C164 C165 1.397 . S
C165 C164 1.397 . S
C165 C166 1.438 . S
C165 C170 1.429 . S
C166 C149 1.394 . S
C166 C165 1.438 . S
C166 C167 1.428 . S
C167 H159 0.949 . S
C167 C166 1.428 . S
C167 C168 1.345 . S
C168 H160 0.950 . S
C168 C167 1.345 . S
C168 C169 1.424 . S
C169 H161 0.951 . S
C169 C168 1.424 . S
C169 C170 1.347 . S
C170 H162 0.951 . S
C170 C165 1.429 . S
C170 C169 1.347 . S
H171 C172 0.951 . S
C172 H171 0.951 . S
C172 C178 1.265 . S
H173 C178 0.950 . S
H174 C182 0.949 . S
H175 C183 0.950 . S
H176 C184 0.951 . S
H177 C185 0.951 . S
C178 C172 1.265 . S
C178 H173 0.950 . S
C178 C179 1.478 . S
C179 C178 1.478 . S
C179 C180 1.397 1_455 S
C179 C196 1.394 . S
C180 C179 1.397 1_655 S
C180 C181 1.438 . S
C180 C185 1.429 . S
C181 C180 1.438 . S
C181 C182 1.428 . S
C181 C194 1.394 1_655 S
C182 H174 0.949 . S
C182 C181 1.428 . S
C182 C183 1.345 . S
C183 H175 0.950 . S
C183 C182 1.345 . S
C183 C184 1.424 . S
C184 H176 0.951 . S
C184 C183 1.424 . S
C184 C185 1.347 . S
C185 H177 0.951 . S
C185 C180 1.429 . S
C185 C184 1.347 . S
H186 C187 0.951 . S
C187 H186 0.951 . S
C187 C193 1.265 . S
H188 C193 0.950 . S
H189 C197 0.949 . S
H190 C198 0.950 . S
H191 C199 0.951 . S
H192 C200 0.951 . S
C193 C187 1.265 . S
C193 H188 0.950 . S
C193 C194 1.478 . S
C194 C181 1.394 1_455 S
C194 C193 1.478 . S
C194 C195 1.397 . S
C195 C194 1.397 . S
C195 C196 1.438 . S
C195 C200 1.429 . S
C196 C179 1.394 . S
C196 C195 1.438 . S
C196 C197 1.428 . S
C197 H189 0.949 . S
C197 C196 1.428 . S
C197 C198 1.345 . S
C198 H190 0.950 . S
C198 C197 1.345 . S
C198 C199 1.424 . S
C199 H191 0.951 . S
C199 C198 1.424 . S
C199 C200 1.347 . S
C200 H192 0.951 . S
C200 C195 1.429 . S
C200 C199 1.347 . S
H201 C202 0.951 . S
C202 H201 0.951 . S
C202 C208 1.265 . S
H203 C208 0.950 . S
H204 C212 0.949 . S
H205 C213 0.950 . S
H206 C214 0.951 . S
H207 C215 0.951 . S
C208 C202 1.265 . S
C208 H203 0.950 . S
C208 C209 1.478 . S
C209 C208 1.478 . S
C209 C210 1.397 . S
C209 C226 1.394 . S
C210 C209 1.397 . S
C210 C211 1.438 . S
C210 C215 1.429 1_545 S
C211 C210 1.438 . S
C211 C212 1.428 1_545 S
C211 C224 1.394 . S
C212 H204 0.949 . S
C212 C211 1.428 1_565 S
C212 C213 1.345 . S
C213 H205 0.950 . S
C213 C212 1.345 . S
C213 C214 1.424 . S
C214 H206 0.951 . S
C214 C213 1.424 . S
C214 C215 1.347 . S
C215 H207 0.951 . S
C215 C210 1.429 1_565 S
C215 C214 1.347 . S
H216 C217 0.951 . S
C217 H216 0.951 . S
C217 C223 1.265 . S
H218 C223 0.950 . S
H219 C227 0.949 . S
H220 C228 0.950 . S
H221 C229 0.951 . S
H222 C230 0.951 . S
C223 C217 1.265 . S
C223 H218 0.950 . S
C223 C224 1.478 . S
C224 C211 1.394 . S
C224 C223 1.478 . S
C224 C225 1.397 . S
C225 C224 1.397 . S
C225 C226 1.438 . S
C225 C230 1.429 . S
C226 C209 1.394 . S
C226 C225 1.438 . S
C226 C227 1.428 . S
C227 H219 0.949 . S
C227 C226 1.428 . S
C227 C228 1.345 . S
C228 H220 0.950 . S
C228 C227 1.345 . S
C228 C229 1.424 . S
C229 H221 0.951 . S
C229 C228 1.424 . S
C229 C230 1.347 . S
C230 H222 0.951 . S
C230 C225 1.429 . S
C230 C229 1.347 . S
H231 C232 0.951 . S
C232 H231 0.951 . S
C232 C238 1.265 . S
H233 C238 0.950 . S
H234 C242 0.949 . S
H235 C243 0.950 . S
H236 C244 0.951 . S
H237 C245 0.951 . S
C238 C232 1.265 . S
C238 H233 0.950 . S
C238 C239 1.478 . S
C239 C238 1.478 . S
C239 C240 1.397 . S
C239 C256 1.394 . S
C240 C239 1.397 . S
C240 C241 1.438 . S
C240 C245 1.429 . S
C241 C240 1.438 . S
C241 C242 1.428 . S
C241 C254 1.394 . S
C242 H234 0.949 . S
C242 C241 1.428 . S
C242 C243 1.345 . S
C243 H235 0.950 . S
C243 C242 1.345 . S
C243 C244 1.424 . S
C244 H236 0.951 . S
C244 C243 1.424 . S
C244 C245 1.347 . S
C245 H237 0.951 . S
C245 C240 1.429 . S
C245 C244 1.347 . S
H246 C247 0.951 . S
C247 H246 0.951 . S
C247 C253 1.265 . S
H248 C253 0.950 . S
H249 C257 0.949 . S
H250 C258 0.950 . S
H251 C259 0.951 . S
H252 C260 0.951 . S
C253 C247 1.265 . S
C253 H248 0.950 . S
C253 C254 1.478 . S
C254 C241 1.394 . S
C254 C253 1.478 . S
C254 C255 1.397 . S
C255 C254 1.397 . S
C255 C256 1.438 . S
C255 C260 1.429 . S
C256 C239 1.394 . S
C256 C255 1.438 . S
C256 C257 1.428 . S
C257 H249 0.949 . S
C257 C256 1.428 . S
C257 C258 1.345 . S
C258 H250 0.950 . S
C258 C257 1.345 . S
C258 C259 1.424 . S
C259 H251 0.951 . S
C259 C258 1.424 . S
C259 C260 1.347 . S
C260 H252 0.951 . S
C260 C255 1.429 . S
C260 C259 1.347 . S
H261 C262 0.951 . S
C262 H261 0.951 . S
C262 C268 1.265 . S
H263 C268 0.950 . S
H264 C272 0.949 . S
H265 C273 0.950 . S
H266 C274 0.951 . S
H267 C275 0.951 . S
C268 C262 1.265 . S
C268 H263 0.950 . S
C268 C269 1.478 . S
C269 C268 1.478 . S
C269 C270 1.397 . S
C269 C286 1.394 . S
C270 C269 1.397 . S
C270 C271 1.438 . S
C270 C275 1.429 . S
C271 C270 1.438 . S
C271 C272 1.428 . S
C271 C284 1.394 . S
C272 H264 0.949 . S
C272 C271 1.428 . S
C272 C273 1.345 . S
C273 H265 0.950 . S
C273 C272 1.345 . S
C273 C274 1.424 . S
C274 H266 0.951 . S
C274 C273 1.424 . S
C274 C275 1.347 . S
C275 H267 0.951 . S
C275 C270 1.429 . S
C275 C274 1.347 . S
H276 C277 0.951 . S
C277 H276 0.951 . S
C277 C283 1.265 . S
H278 C283 0.950 1_565 S
H279 C287 0.949 . S
H280 C288 0.950 . S
H281 C289 0.951 . S
H282 C290 0.951 . S
C283 C277 1.265 . S
C283 H278 0.950 1_545 S
C283 C284 1.478 . S
C284 C271 1.394 . S
C284 C283 1.478 . S
C284 C285 1.405 . S
C285 C284 1.405 . S
C285 C286 1.435 . S
C285 C290 1.424 1_545 S
C286 C269 1.394 . S
C286 C285 1.435 . S
C286 C287 1.428 1_545 S
C287 H279 0.949 . S
C287 C286 1.428 1_565 S
C287 C288 1.345 . S
C288 H280 0.950 . S
C288 C287 1.345 . S
C288 C289 1.424 . S
C289 H281 0.951 . S
C289 C288 1.424 . S
C289 C290 1.347 . S
C290 H282 0.951 . S
C290 C285 1.424 1_565 S
C290 C289 1.347 . S
H291 C292 0.951 . S
C292 H291 0.951 . S
C292 C298 1.265 . S
H293 C298 0.950 . S
H294 C302 0.949 . S
H295 C303 0.950 . S
H296 C304 0.951 . S
H297 C305 0.951 1_554 S
C298 C292 1.265 . S
C298 H293 0.950 . S
C298 C299 1.478 . S
C299 C298 1.478 . S
C299 C300 1.397 1_554 S
C299 C316 1.400 . S
C300 C299 1.397 1_556 S
C300 C301 1.438 . S
C300 C305 1.429 . S
C301 C300 1.438 . S
C301 C302 1.428 . S
C301 C314 1.394 . S
C302 H294 0.949 . S
C302 C301 1.428 . S
C302 C303 1.345 . S
C303 H295 0.950 . S
C303 C302 1.345 . S
C303 C304 1.424 . S
C304 H296 0.951 . S
C304 C303 1.424 . S
C304 C305 1.347 . S
C305 H297 0.951 1_556 S
C305 C300 1.429 . S
C305 C304 1.347 . S
H306 C307 0.951 . S
C307 H306 0.951 . S
C307 C313 1.265 . S
H308 C313 0.950 . S
H309 C317 0.949 . S
H310 C318 0.950 . S
H311 C319 0.951 . S
H312 C320 0.951 . S
C313 C307 1.265 . S
C313 H308 0.950 . S
C313 C314 1.478 . S
C314 C301 1.394 . S
C314 C313 1.478 . S
C314 C315 1.397 . S
C315 C314 1.397 . S
C315 C316 1.417 1_556 S
C315 C320 1.429 . S
C316 C299 1.400 . S
C316 C315 1.417 1_554 S
C316 C317 1.442 . S
C317 H309 0.949 . S
C317 C316 1.442 . S
C317 C318 1.345 . S
C318 H310 0.950 . S
C318 C317 1.345 . S
C318 C319 1.424 1_554 S
C319 H311 0.951 . S
C319 C318 1.424 1_556 S
C319 C320 1.347 . S
C320 H312 0.951 . S
C320 C315 1.429 . S
C320 C319 1.347 . S
H321 C322 0.951 1_655 S
C322 H321 0.951 1_455 S
C322 C328 1.265 . S
H323 C328 0.950 . S
H324 C332 0.949 . S
H325 C333 0.950 . S
H326 C334 0.951 . S
H327 C335 0.951 . S
C328 C322 1.265 . S
C328 H323 0.950 . S
C328 C329 1.478 . S
C329 C328 1.478 . S
C329 C330 1.397 . S
C329 C346 1.394 . S
C330 C329 1.397 . S
C330 C331 1.438 . S
C330 C335 1.429 . S
C331 C330 1.438 . S
C331 C332 1.428 . S
C331 C344 1.394 . S
C332 H324 0.949 . S
C332 C331 1.428 . S
C332 C333 1.345 . S
C333 H325 0.950 . S
C333 C332 1.345 . S
C333 C334 1.424 . S
C334 H326 0.951 . S
C334 C333 1.424 . S
C334 C335 1.347 . S
C335 H327 0.951 . S
C335 C330 1.429 . S
C335 C334 1.347 . S
H336 C337 0.951 . S
C337 H336 0.951 . S
C337 C343 1.265 . S
H338 C343 0.950 1_655 S
H339 C347 0.949 . S
H340 C348 0.950 . S
H341 C349 0.951 . S
H342 C350 0.951 . S
C343 C337 1.265 . S
C343 H338 0.950 1_455 S
C343 C344 1.478 . S
C344 C331 1.394 . S
C344 C343 1.478 . S
C344 C345 1.397 . S
C345 C344 1.397 . S
C345 C346 1.438 . S
C345 C350 1.429 1_455 S
C346 C329 1.394 . S
C346 C345 1.438 . S
C346 C347 1.428 . S
C347 H339 0.949 . S
C347 C346 1.428 . S
C347 C348 1.345 1_455 S
C348 H340 0.950 . S
C348 C347 1.345 1_655 S
C348 C349 1.424 . S
C349 H341 0.951 . S
C349 C348 1.424 . S
C349 C350 1.347 . S
C350 H342 0.951 . S
C350 C345 1.429 1_655 S
C350 C349 1.347 . S
H351 C352 0.951 1_565 S
C352 H351 0.951 1_545 S
C352 C358 1.265 . S
H353 C358 0.950 . S
H354 C362 0.949 . S
H355 C363 0.950 . S
H356 C364 0.951 . S
H357 C365 0.951 . S
C358 C352 1.265 . S
C358 H353 0.950 . S
C358 C359 1.478 . S
C359 C358 1.478 . S
C359 C360 1.397 . S
C359 C376 1.394 1_545 S
C360 C359 1.397 . S
C360 C361 1.438 . S
C360 C365 1.429 . S
C361 C360 1.438 . S
C361 C362 1.428 . S
C361 C374 1.394 . S
C362 H354 0.949 . S
C362 C361 1.428 . S
C362 C363 1.345 . S
C363 H355 0.950 . S
C363 C362 1.345 . S
C363 C364 1.424 . S
C364 H356 0.951 . S
C364 C363 1.424 . S
C364 C365 1.347 . S
C365 H357 0.951 . S
C365 C360 1.429 . S
C365 C364 1.347 . S
H366 C367 0.951 . S
C367 H366 0.951 . S
C367 C373 1.265 . S
H368 C373 0.950 1_565 S
H369 C377 0.949 . S
H370 C378 0.950 . S
H371 C379 0.951 . S
H372 C380 0.951 . S
C373 C367 1.265 . S
C373 H368 0.950 1_545 S
C373 C374 1.478 . S
C374 C361 1.394 . S
C374 C373 1.478 . S
C374 C375 1.397 1_545 S
C375 C374 1.397 1_565 S
C375 C376 1.438 . S
C375 C380 1.429 . S
C376 C359 1.394 1_565 S
C376 C375 1.438 . S
C376 C377 1.428 . S
C377 H369 0.949 . S
C377 C376 1.428 . S
C377 C378 1.345 . S
C378 H370 0.950 . S
C378 C377 1.345 . S
C378 C379 1.424 . S
C379 H371 0.951 . S
C379 C378 1.424 . S
C379 C380 1.347 . S
C380 H372 0.951 . S
C380 C375 1.429 . S
C380 C379 1.347 . S
H381 C382 0.951 . S
C382 H381 0.951 . S
C382 C388 1.265 . S
H383 C388 0.950 . S
H384 C392 0.949 . S
H385 C393 0.950 . S
H386 C394 0.951 . S
H387 C395 0.951 . S
C388 C382 1.265 . S
C388 H383 0.950 . S
C388 C389 1.478 . S
C389 C388 1.478 . S
C389 C390 1.397 1_554 S
C389 C406 1.394 . S
C390 C389 1.397 1_556 S
C390 C391 1.438 . S
C390 C395 1.429 . S
C391 C390 1.438 . S
C391 C392 1.428 . S
C391 C404 1.394 . S
C392 H384 0.949 . S
C392 C391 1.428 . S
C392 C393 1.345 . S
C393 H385 0.950 . S
C393 C392 1.345 . S
C393 C394 1.424 . S
C394 H386 0.951 . S
C394 C393 1.424 . S
C394 C395 1.347 . S
C395 H387 0.951 . S
C395 C390 1.429 . S
C395 C394 1.347 . S
H396 C397 0.951 . S
C397 H396 0.951 . S
C397 C403 1.265 . S
H398 C403 0.950 . S
H399 C407 0.949 . S
H400 C408 0.950 . S
H401 C409 0.951 . S
H402 C410 0.951 1_556 S
C403 C397 1.265 . S
C403 H398 0.950 . S
C403 C404 1.478 . S
C404 C391 1.394 . S
C404 C403 1.478 . S
C404 C405 1.397 . S
C405 C404 1.397 . S
C405 C406 1.438 1_556 S
C405 C410 1.429 1_556 S
C406 C389 1.394 . S
C406 C405 1.438 1_554 S
C406 C407 1.428 . S
C407 H399 0.949 . S
C407 C406 1.428 . S
C407 C408 1.345 . S
C408 H400 0.950 . S
C408 C407 1.345 . S
C408 C409 1.424 . S
C409 H401 0.951 . S
C409 C408 1.424 . S
C409 C410 1.347 . S
C410 H402 0.951 1_554 S
C410 C405 1.429 1_554 S
C410 C409 1.347 . S
H411 C412 0.951 . S
C412 H411 0.951 . S
C412 C418 1.265 . S
H413 C418 0.950 . S
H414 C422 0.949 . S
H415 C423 0.950 . S
H416 C424 0.951 . S
H417 C425 0.951 . S
C418 C412 1.265 . S
C418 H413 0.950 . S
C418 C419 1.478 . S
C419 C418 1.478 . S
C419 C420 1.397 . S
C419 C436 1.394 . S
C420 C419 1.397 . S
C420 C421 1.438 . S
C420 C425 1.429 . S
C421 C420 1.438 . S
C421 C422 1.428 . S
C421 C434 1.394 . S
C422 H414 0.949 . S
C422 C421 1.428 . S
C422 C423 1.345 . S
C423 H415 0.950 . S
C423 C422 1.345 . S
C423 C424 1.424 . S
C424 H416 0.951 . S
C424 C423 1.424 . S
C424 C425 1.347 . S
C425 H417 0.951 . S
C425 C420 1.429 . S
C425 C424 1.347 . S
H426 C427 0.951 . S
C427 H426 0.951 . S
C427 C433 1.265 . S
H428 C433 0.950 . S
H429 C437 0.949 . S
H430 C438 0.950 . S
H431 C439 0.951 . S
H432 C440 0.951 . S
C433 C427 1.265 . S
C433 H428 0.950 . S
C433 C434 1.478 . S
C434 C421 1.394 . S
C434 C433 1.478 . S
C434 C435 1.397 1_455 S
C435 C434 1.397 1_655 S
C435 C436 1.438 1_655 S
C435 C440 1.429 . S
C436 C419 1.394 . S
C436 C435 1.438 1_455 S
C436 C437 1.428 1_455 S
C437 H429 0.949 . S
C437 C436 1.428 1_655 S
C437 C438 1.345 . S
C438 H430 0.950 . S
C438 C437 1.345 . S
C438 C439 1.424 . S
C439 H431 0.951 . S
C439 C438 1.424 . S
C439 C440 1.347 . S
C440 H432 0.951 . S
C440 C435 1.429 . S
C440 C439 1.347 . S
C97 C40 1.398 . S
C82 C10 1.389 . S
C112 C21 1.368 . S
C127 C66 1.439 . S
C142 C31 1.302 . S
C157 C68 1.406 . S
C172 C0 1.402 . S
C187 C52 1.413 . S
C217 C54 1.426 . S
C202 C18 1.394 . S
C232 C34 1.366 . S
C247 C80 1.397 . S
C277 C53 1.380 . S
C262 C36 1.395 . S
C292 C8 1.408 . S
C307 C79 1.407 . S
C337 C39 1.396 . S
C322 C23 1.394 . S
C367 C65 1.359 . S
C352 C26 1.353 . S
C397 C67 1.404 . S
C382 C5 1.298 . S
C412 C13 1.301 . S
C427 C51 1.396 . S
