# Generated by pormake.
# Topology llk, (3,12)-cn, num edge types: 1
# Building blocks:
#     Node 0, Type 0, BuildingBlock: WUSLED_clean_sbu_0, # of connection points: 3
#     Node 1, Type 0, BuildingBlock: WUSLED_clean_sbu_0, # of connection points: 3
#     Node 2, Type 0, BuildingBlock: WUSLED_clean_sbu_0, # of connection points: 3
#     Node 3, Type 0, BuildingBlock: WUSLED_clean_sbu_0, # of connection points: 3
#     Node 4, Type 0, BuildingBlock: WUSLED_clean_sbu_0, # of connection points: 3
#     Node 5, Type 0, BuildingBlock: WUSLED_clean_sbu_0, # of connection points: 3
#     Node 6, Type 0, BuildingBlock: WUSLED_clean_sbu_0, # of connection points: 3
#     Node 7, Type 0, BuildingBlock: WUSLED_clean_sbu_0, # of connection points: 3
#     Node 8, Type 0, BuildingBlock: WUSLED_clean_sbu_0, # of connection points: 3
#     Node 9, Type 0, BuildingBlock: WUSLED_clean_sbu_0, # of connection points: 3
#     Node 10, Type 0, BuildingBlock: WUSLED_clean_sbu_0, # of connection points: 3
#     Node 11, Type 0, BuildingBlock: WUSLED_clean_sbu_0, # of connection points: 3
#     Node 12, Type 0, BuildingBlock: WUSLED_clean_sbu_0, # of connection points: 3
#     Node 13, Type 0, BuildingBlock: WUSLED_clean_sbu_0, # of connection points: 3
#     Node 14, Type 0, BuildingBlock: WUSLED_clean_sbu_0, # of connection points: 3
#     Node 15, Type 0, BuildingBlock: WUSLED_clean_sbu_0, # of connection points: 3
#     Node 16, Type 0, BuildingBlock: WUSLED_clean_sbu_0, # of connection points: 3
#     Node 17, Type 0, BuildingBlock: WUSLED_clean_sbu_0, # of connection points: 3
#     Node 18, Type 0, BuildingBlock: WUSLED_clean_sbu_0, # of connection points: 3
#     Node 19, Type 0, BuildingBlock: WUSLED_clean_sbu_0, # of connection points: 3
#     Node 20, Type 0, BuildingBlock: WUSLED_clean_sbu_0, # of connection points: 3
#     Node 21, Type 0, BuildingBlock: WUSLED_clean_sbu_0, # of connection points: 3
#     Node 22, Type 0, BuildingBlock: WUSLED_clean_sbu_0, # of connection points: 3
#     Node 23, Type 0, BuildingBlock: WUSLED_clean_sbu_0, # of connection points: 3
#     Node 24, Type 1, BuildingBlock: EZIPEK_clean_sbu_0, # of connection points: 12
#     Node 25, Type 1, BuildingBlock: EZIPEK_clean_sbu_0, # of connection points: 12
#     Node 26, Type 1, BuildingBlock: EZIPEK_clean_sbu_0, # of connection points: 12
#     Node 27, Type 1, BuildingBlock: EZIPEK_clean_sbu_0, # of connection points: 12
#     Node 28, Type 1, BuildingBlock: EZIPEK_clean_sbu_0, # of connection points: 12
#     Node 29, Type 1, BuildingBlock: EZIPEK_clean_sbu_0, # of connection points: 12
#     Edge 30, Type (0, 1), BuildingBlock: TEMPAE_clean_linker_10, # of connection points: 2
#     Edge 31, Type (0, 1), BuildingBlock: TEMPAE_clean_linker_10, # of connection points: 2
#     Edge 32, Type (0, 1), BuildingBlock: TEMPAE_clean_linker_10, # of connection points: 2
#     Edge 33, Type (0, 1), BuildingBlock: TEMPAE_clean_linker_10, # of connection points: 2
#     Edge 34, Type (0, 1), BuildingBlock: TEMPAE_clean_linker_10, # of connection points: 2
#     Edge 35, Type (0, 1), BuildingBlock: TEMPAE_clean_linker_10, # of connection points: 2
#     Edge 36, Type (0, 1), BuildingBlock: TEMPAE_clean_linker_10, # of connection points: 2
#     Edge 37, Type (0, 1), BuildingBlock: TEMPAE_clean_linker_10, # of connection points: 2
#     Edge 38, Type (0, 1), BuildingBlock: TEMPAE_clean_linker_10, # of connection points: 2
#     Edge 39, Type (0, 1), BuildingBlock: TEMPAE_clean_linker_10, # of connection points: 2
#     Edge 40, Type (0, 1), BuildingBlock: TEMPAE_clean_linker_10, # of connection points: 2
#     Edge 41, Type (0, 1), BuildingBlock: TEMPAE_clean_linker_10, # of connection points: 2
#     Edge 42, Type (0, 1), BuildingBlock: TEMPAE_clean_linker_10, # of connection points: 2
#     Edge 43, Type (0, 1), BuildingBlock: TEMPAE_clean_linker_10, # of connection points: 2
#     Edge 44, Type (0, 1), BuildingBlock: TEMPAE_clean_linker_10, # of connection points: 2
#     Edge 45, Type (0, 1), BuildingBlock: TEMPAE_clean_linker_10, # of connection points: 2
#     Edge 46, Type (0, 1), BuildingBlock: TEMPAE_clean_linker_10, # of connection points: 2
#     Edge 47, Type (0, 1), BuildingBlock: TEMPAE_clean_linker_10, # of connection points: 2
#     Edge 48, Type (0, 1), BuildingBlock: TEMPAE_clean_linker_10, # of connection points: 2
#     Edge 49, Type (0, 1), BuildingBlock: TEMPAE_clean_linker_10, # of connection points: 2
#     Edge 50, Type (0, 1), BuildingBlock: TEMPAE_clean_linker_10, # of connection points: 2
#     Edge 51, Type (0, 1), BuildingBlock: TEMPAE_clean_linker_10, # of connection points: 2
#     Edge 52, Type (0, 1), BuildingBlock: TEMPAE_clean_linker_10, # of connection points: 2
#     Edge 53, Type (0, 1), BuildingBlock: TEMPAE_clean_linker_10, # of connection points: 2
#     Edge 54, Type (0, 1), BuildingBlock: TEMPAE_clean_linker_10, # of connection points: 2
#     Edge 55, Type (0, 1), BuildingBlock: TEMPAE_clean_linker_10, # of connection points: 2
#     Edge 56, Type (0, 1), BuildingBlock: TEMPAE_clean_linker_10, # of connection points: 2
#     Edge 57, Type (0, 1), BuildingBlock: TEMPAE_clean_linker_10, # of connection points: 2
#     Edge 58, Type (0, 1), BuildingBlock: TEMPAE_clean_linker_10, # of connection points: 2
#     Edge 59, Type (0, 1), BuildingBlock: TEMPAE_clean_linker_10, # of connection points: 2
#     Edge 60, Type (0, 1), BuildingBlock: TEMPAE_clean_linker_10, # of connection points: 2
#     Edge 61, Type (0, 1), BuildingBlock: TEMPAE_clean_linker_10, # of connection points: 2
#     Edge 62, Type (0, 1), BuildingBlock: TEMPAE_clean_linker_10, # of connection points: 2
#     Edge 63, Type (0, 1), BuildingBlock: TEMPAE_clean_linker_10, # of connection points: 2
#     Edge 64, Type (0, 1), BuildingBlock: TEMPAE_clean_linker_10, # of connection points: 2
#     Edge 65, Type (0, 1), BuildingBlock: TEMPAE_clean_linker_10, # of connection points: 2
#     Edge 66, Type (0, 1), BuildingBlock: TEMPAE_clean_linker_10, # of connection points: 2
#     Edge 67, Type (0, 1), BuildingBlock: TEMPAE_clean_linker_10, # of connection points: 2
#     Edge 68, Type (0, 1), BuildingBlock: TEMPAE_clean_linker_10, # of connection points: 2
#     Edge 69, Type (0, 1), BuildingBlock: TEMPAE_clean_linker_10, # of connection points: 2
#     Edge 70, Type (0, 1), BuildingBlock: TEMPAE_clean_linker_10, # of connection points: 2
#     Edge 71, Type (0, 1), BuildingBlock: TEMPAE_clean_linker_10, # of connection points: 2
#     Edge 72, Type (0, 1), BuildingBlock: TEMPAE_clean_linker_10, # of connection points: 2
#     Edge 73, Type (0, 1), BuildingBlock: TEMPAE_clean_linker_10, # of connection points: 2
#     Edge 74, Type (0, 1), BuildingBlock: TEMPAE_clean_linker_10, # of connection points: 2
#     Edge 75, Type (0, 1), BuildingBlock: TEMPAE_clean_linker_10, # of connection points: 2
#     Edge 76, Type (0, 1), BuildingBlock: TEMPAE_clean_linker_10, # of connection points: 2
#     Edge 77, Type (0, 1), BuildingBlock: TEMPAE_clean_linker_10, # of connection points: 2
#     Edge 78, Type (0, 1), BuildingBlock: TEMPAE_clean_linker_10, # of connection points: 2
#     Edge 79, Type (0, 1), BuildingBlock: TEMPAE_clean_linker_10, # of connection points: 2
#     Edge 80, Type (0, 1), BuildingBlock: TEMPAE_clean_linker_10, # of connection points: 2
#     Edge 81, Type (0, 1), BuildingBlock: TEMPAE_clean_linker_10, # of connection points: 2
#     Edge 82, Type (0, 1), BuildingBlock: TEMPAE_clean_linker_10, # of connection points: 2
#     Edge 83, Type (0, 1), BuildingBlock: TEMPAE_clean_linker_10, # of connection points: 2
#     Edge 84, Type (0, 1), BuildingBlock: TEMPAE_clean_linker_10, # of connection points: 2
#     Edge 85, Type (0, 1), BuildingBlock: TEMPAE_clean_linker_10, # of connection points: 2
#     Edge 86, Type (0, 1), BuildingBlock: TEMPAE_clean_linker_10, # of connection points: 2
#     Edge 87, Type (0, 1), BuildingBlock: TEMPAE_clean_linker_10, # of connection points: 2
#     Edge 88, Type (0, 1), BuildingBlock: TEMPAE_clean_linker_10, # of connection points: 2
#     Edge 89, Type (0, 1), BuildingBlock: TEMPAE_clean_linker_10, # of connection points: 2
#     Edge 90, Type (0, 1), BuildingBlock: TEMPAE_clean_linker_10, # of connection points: 2
#     Edge 91, Type (0, 1), BuildingBlock: TEMPAE_clean_linker_10, # of connection points: 2
#     Edge 92, Type (0, 1), BuildingBlock: TEMPAE_clean_linker_10, # of connection points: 2
#     Edge 93, Type (0, 1), BuildingBlock: TEMPAE_clean_linker_10, # of connection points: 2
#     Edge 94, Type (0, 1), BuildingBlock: TEMPAE_clean_linker_10, # of connection points: 2
#     Edge 95, Type (0, 1), BuildingBlock: TEMPAE_clean_linker_10, # of connection points: 2
#     Edge 96, Type (0, 1), BuildingBlock: TEMPAE_clean_linker_10, # of connection points: 2
#     Edge 97, Type (0, 1), BuildingBlock: TEMPAE_clean_linker_10, # of connection points: 2
#     Edge 98, Type (0, 1), BuildingBlock: TEMPAE_clean_linker_10, # of connection points: 2
#     Edge 99, Type (0, 1), BuildingBlock: TEMPAE_clean_linker_10, # of connection points: 2
#     Edge 100, Type (0, 1), BuildingBlock: TEMPAE_clean_linker_10, # of connection points: 2
#     Edge 101, Type (0, 1), BuildingBlock: TEMPAE_clean_linker_10, # of connection points: 2
# Relax obj value: 0.100
# Max RMSD: 0.151
# Mean RMSD: 0.127
data_MOF--net-llk--node1-WUSLED_clean_sbu_0--node2-EZIPEK_clean_sbu_0--edge1-TEMPAE_clean_linker_10
_symmetry_space_group_name_H-M    P1
_symmetry_Int_Tables_number       1
_symmetry_cell_setting            triclinic
loop_
_symmetry_equiv_pos_as_xyz
'x, y, z'
_cell_length_a     60.099569
_cell_length_b     60.105749
_cell_length_c     60.125193
_cell_angle_alpha  90.003172
_cell_angle_beta   89.977188
_cell_angle_gamma 90.014611
loop_
_atom_site_label
_atom_site_type_symbol
_atom_site_fract_x
_atom_site_fract_y
_atom_site_fract_z
_atom_type_partial_charge
C0 C 1.0035 0.28618 0.19823 0.0
C1 C 0.99364 0.30619 0.20529 0.0
C2 C 1.00509 0.32454 0.17092 0.0
C3 C 0.99432 0.32513 0.19171 0.0
C4 C 0.01512 0.30451 0.16406 0.0
C5 C 0.0143 0.28555 0.17757 0.0
U6 U 1.00547 0.26008 0.25566 0.0
O7 O 0.98767 0.23151 0.27016 0.0
O8 O 0.02414 0.23068 0.26723 0.0
C9 C 1.00608 0.22027 0.27388 0.0
C10 C 1.00336 0.26612 0.21248 0.0
C11 C 1.00764 0.20717 0.29466 0.0
C12 C 0.01913 0.17256 0.31226 0.0
C13 C 0.0188 0.18671 0.29383 0.0
C14 C 0.9974 0.19928 0.3331 0.0
C15 C 0.00834 0.17852 0.33216 0.0
C16 C 0.99702 0.21348 0.31451 0.0
C17 C 0.01011 0.30906 0.29968 0.0
C18 C 1.00495 0.3134 0.33947 0.0
C19 C 0.01804 0.34441 0.31721 0.0
C20 C 0.0172 0.33117 0.2983 0.0
C21 C 0.01195 0.33574 0.33803 0.0
C22 C 1.00402 0.30008 0.32033 0.0
C23 C 0.00816 0.29686 0.27875 0.0
O24 O 0.02206 0.26212 0.22303 0.0
O25 O 0.98567 0.26325 0.22503 0.0
O26 O 0.98915 0.28699 0.27428 0.0
O27 O 0.02577 0.28613 0.27148 0.0
H28 H 0.98551 0.30723 0.22134 0.0
H29 H 0.98669 0.34035 0.19763 0.0
H30 H 0.02337 0.30339 0.14808 0.0
H31 H 0.02216 0.27036 0.17188 0.0
H32 H 0.02734 0.15661 0.31063 0.0
H33 H 0.02687 0.18137 0.27861 0.0
H34 H 0.9891 0.20456 0.3482 0.0
H35 H 0.98822 0.22917 0.31555 0.0
H36 H 1.00022 0.30628 0.35533 0.0
H37 H 0.02296 0.36165 0.31539 0.0
H38 H 0.02168 0.33841 0.2824 0.0
H39 H 0.99838 0.283 0.32158 0.0
C40 C 0.82044 0.00923 0.28663 0.0
C41 C 0.81158 0.01504 0.30747 0.0
C42 C 0.84799 0.01018 0.32487 0.0
C43 C 0.82521 0.01553 0.32639 0.0
C44 C 0.85667 1.0042 0.30392 0.0
C45 C 0.84303 1.00375 0.28504 0.0
U46 U 0.76311 0.01071 0.26011 0.0
O47 O 0.75149 0.02884 0.23038 0.0
O48 O 0.74905 0.99237 0.23165 0.0
C49 C 0.7453 0.01057 0.22008 0.0
C50 C 0.80634 0.00891 0.26649 0.0
C51 C 0.72477 0.01159 0.20652 0.0
C52 C 0.70823 0.01939 0.17039 0.0
C53 C 0.7266 0.0194 0.18463 0.0
C54 C 0.68547 1.00399 0.19981 0.0
C55 C 0.68735 0.01165 0.17767 0.0
C56 C 0.70402 1.00393 0.21411 0.0
C57 C 0.71901 0.01486 0.30928 0.0
C58 C 0.67986 1.00694 0.31521 0.0
C59 C 0.7021 0.02272 0.34494 0.0
C60 C 0.72055 0.02289 0.33104 0.0
C61 C 0.68153 0.01469 0.33728 0.0
C62 C 0.69857 1.00696 0.30125 0.0
C63 C 0.73974 0.01331 0.29668 0.0
O64 O 0.7939 0.99112 0.26392 0.0
O65 O 0.79559 0.02747 0.26229 0.0
O66 O 0.7467 0.031 0.28585 0.0
O67 O 0.74454 0.99432 0.28695 0.0
H68 H 0.79413 0.01931 0.30907 0.0
H69 H 0.81797 0.02041 0.34215 0.0
H70 H 0.874 0.99961 0.30214 0.0
H71 H 0.85016 0.99911 0.26915 0.0
H72 H 0.71059 0.02498 0.15343 0.0
H73 H 0.74249 0.02516 0.17833 0.0
H74 H 0.66965 0.99811 0.20612 0.0
H75 H 0.70222 0.99776 0.23094 0.0
H76 H 0.66419 1.00078 0.30881 0.0
H77 H 0.70416 0.02829 0.36195 0.0
H78 H 0.73633 0.02872 0.33757 0.0
H79 H 0.6972 1.00053 0.28447 0.0
C80 C 1.00282 0.81891 0.28737 0.0
C81 C 0.01235 0.81124 0.30729 0.0
C82 C 1.00395 0.84657 0.3255 0.0
C83 C 0.01299 0.82496 0.32614 0.0
C84 C 0.99425 0.85405 0.30554 0.0
C85 C 0.99372 0.84037 0.28669 0.0
U86 U 1.0044 0.76157 0.26066 0.0
O87 O 0.98495 0.74782 0.23276 0.0
O88 O 0.02138 0.74995 0.23031 0.0
C89 C 1.00271 0.74406 0.22054 0.0
C90 C 1.00212 0.80473 0.26731 0.0
C91 C 1.00295 0.72365 0.20684 0.0
C92 C 0.99828 0.70727 0.17012 0.0
C93 C 0.99785 0.72575 0.1842 0.0
C94 C 0.00893 0.68393 0.20114 0.0
C95 C 1.00375 0.68604 0.17832 0.0
C96 C 0.00851 0.70259 0.21531 0.0
C97 C 0.01106 0.7159 0.30761 0.0
C98 C 0.9987 0.67816 0.31501 0.0
C99 C 0.02506 0.69605 0.33974 0.0
C100 C 0.02472 0.71496 0.32643 0.0
C101 C 0.01184 0.67752 0.33441 0.0
C102 C 0.99825 0.6973 0.3017 0.0
C103 C 0.00867 0.73759 0.29673 0.0
O104 O 0.0207 0.79431 0.26239 0.0
O105 O 0.98445 0.792 0.26537 0.0
O106 O 0.98926 0.74262 0.28796 0.0
O107 O 0.02581 0.74532 0.28555 0.0
H108 H 0.01929 0.79463 0.30826 0.0
H109 H 0.02034 0.81856 0.34129 0.0
H110 H 0.98736 0.87066 0.30436 0.0
H111 H 0.98626 0.84659 0.27152 0.0
H112 H 0.99466 0.70974 0.15265 0.0
H113 H 0.99369 0.74187 0.17728 0.0
H114 H 0.01307 0.66784 0.20809 0.0
H115 H 0.01254 0.70061 0.23275 0.0
H116 H 0.9885 0.66406 0.31035 0.0
H117 H 0.03499 0.69638 0.35476 0.0
H118 H 0.03444 0.72931 0.33143 0.0
H119 H 0.98747 0.69778 0.28727 0.0
C120 C 0.19756 1.00561 0.28679 0.0
C121 C 0.20666 0.0098 0.30791 0.0
C122 C 0.17007 1.00539 0.32511 0.0
C123 C 0.19304 0.00976 0.32687 0.0
C124 C 0.16114 1.00108 0.30388 0.0
C125 C 0.17475 1.0012 0.28495 0.0
U126 U 0.25499 1.00558 0.26035 0.0
O127 O 0.26808 0.02344 0.23114 0.0
O128 O 0.26764 0.98686 0.2314 0.0
C129 C 0.27277 1.00501 0.22031 0.0
C130 C 0.2117 1.00554 0.26668 0.0
C131 C 0.2932 1.00462 0.20659 0.0
C132 C 0.30945 0.99835 0.17003 0.0
C133 C 0.29122 0.99759 0.18444 0.0
C134 C 0.33241 0.01266 0.19984 0.0
C135 C 0.33024 1.00613 0.17739 0.0
C136 C 0.31399 0.01202 0.21432 0.0
C137 C 0.29902 1.00575 0.3097 0.0
C138 C 0.33911 1.0029 0.31339 0.0
C139 C 0.31584 1.00618 0.34621 0.0
C140 C 0.29706 1.00715 0.33282 0.0
C141 C 0.33701 1.0038 0.3367 0.0
C142 C 0.3201 1.00374 0.29987 0.0
C143 C 0.27832 1.00581 0.297 0.0
O144 O 0.2233 0.02375 0.26317 0.0
O145 O 0.22334 0.98733 0.26347 0.0
O146 O 0.27246 0.98738 0.2868 0.0
O147 O 0.27261 0.02414 0.28654 0.0
H148 H 0.2243 0.01307 0.30973 0.0
H149 H 0.20056 0.01287 0.34294 0.0
H150 H 0.14352 0.99794 0.30182 0.0
H151 H 0.16741 0.9979 0.26883 0.0
H152 H 0.30722 0.99282 0.15303 0.0
H153 H 0.27536 0.99181 0.17812 0.0
H154 H 0.34818 0.0188 0.20603 0.0
H155 H 0.31588 0.01758 0.23135 0.0
H156 H 0.35533 1.0011 0.30574 0.0
H157 H 0.3138 1.00734 0.36409 0.0
H158 H 0.28087 0.00879 0.34061 0.0
H159 H 0.32178 1.00263 0.28197 0.0
C160 C 0.00857 0.73014 0.81959 0.0
C161 C 0.9981 0.71045 0.81252 0.0
C162 C 0.00851 0.6919 0.84712 0.0
C163 C 0.99798 0.69155 0.8262 0.0
C164 C 0.0191 0.71164 0.85399 0.0
C165 C 0.01911 0.73053 0.84037 0.0
U166 U 1.00614 0.757 0.76237 0.0
O167 O 0.98855 0.78722 0.75125 0.0
O168 O 0.02495 0.78514 0.74825 0.0
C169 C 1.00698 0.79719 0.74494 0.0
C170 C 0.00881 0.75027 0.80546 0.0
C171 C 1.00603 0.81093 0.72458 0.0
C172 C 1.00238 0.84799 0.70869 0.0
C173 C 1.00264 0.83386 0.72713 0.0
C174 C 0.00879 0.81645 0.6845 0.0
C175 C 1.00543 0.83957 0.68707 0.0
C176 C 0.00907 0.80223 0.70311 0.0
C177 C 1.00019 0.70965 0.71691 0.0
C178 C 0.01256 0.70255 0.67913 0.0
C179 C 0.98804 0.67641 0.69766 0.0
C180 C 0.98773 0.69 0.71637 0.0
C181 C 1.00071 0.68231 0.67892 0.0
C182 C 0.01238 0.71612 0.69808 0.0
C183 C 1.00231 0.72085 0.73844 0.0
O184 O 0.02637 0.75261 0.79265 0.0
O185 O 0.99008 0.75491 0.79518 0.0
O186 O 0.98501 0.73184 0.74608 0.0
O187 O 0.02159 0.72991 0.74342 0.0
H188 H 0.99003 0.70968 0.79643 0.0
H189 H 0.9899 0.67658 0.82026 0.0
H190 H 0.02714 0.71261 0.87008 0.0
H191 H 0.02732 0.74552 0.84611 0.0
H192 H 1.0002 0.86566 0.71148 0.0
H193 H 1.00044 0.84095 0.74356 0.0
H194 H 0.01102 0.80934 0.66811 0.0
H195 H 0.01175 0.78456 0.70077 0.0
H196 H 0.02228 0.70766 0.66485 0.0
H197 H 0.9791 0.66078 0.69832 0.0
H198 H 0.97852 0.68458 0.73091 0.0
H199 H 0.02224 0.73121 0.69826 0.0
C200 C 0.20673 0.0121 0.72394 0.0
C201 C 0.21557 0.01289 0.70232 0.0
C202 C 0.17792 0.01252 0.68656 0.0
C203 C 0.20125 0.01303 0.68375 0.0
C204 C 0.16938 0.01151 0.70832 0.0
C205 C 0.18359 0.01132 0.72669 0.0
U206 U 0.26077 0.0121 0.76182 0.0
O207 O 0.26338 0.99425 0.79366 0.0
O208 O 0.26426 0.03067 0.79329 0.0
C209 C 0.26722 0.0125 0.80507 0.0
C210 C 0.22063 0.01225 0.74423 0.0
C211 C 0.28726 0.01219 0.81939 0.0
C212 C 0.30482 0.02053 0.8549 0.0
C213 C 0.28614 0.02094 0.84096 0.0
C214 C 0.3262 1.00274 0.82579 0.0
C215 C 0.32509 0.01128 0.84761 0.0
C216 C 0.3075 1.00325 0.81182 0.0
C217 C 0.30997 0.01062 0.71763 0.0
C218 C 0.34632 0.00792 0.70062 0.0
C219 C 0.31339 0.01037 0.67742 0.0
C220 C 0.30002 0.01141 0.69654 0.0
C221 C 0.33665 0.00834 0.6794 0.0
C222 C 0.33309 0.00903 0.71951 0.0
C223 C 0.29737 0.01127 0.73837 0.0
O224 O 0.23145 0.99393 0.74927 0.0
O225 O 0.23184 0.03049 0.74876 0.0
O226 O 0.28687 0.99312 0.7446 0.0
O227 O 0.28723 0.02986 0.7438 0.0
H228 H 0.2334 0.01351 0.69981 0.0
H229 H 0.20841 0.0139 0.66724 0.0
H230 H 0.1516 0.01065 0.7112 0.0
H231 H 0.17641 0.01058 0.74322 0.0
H232 H 0.30339 0.02766 0.87138 0.0
H233 H 0.27077 0.0281 0.84707 0.0
H234 H 0.3414 0.99531 0.81961 0.0
H235 H 0.30882 0.9965 0.79516 0.0
H236 H 0.36421 1.00684 0.70263 0.0
H237 H 0.3056 0.01076 0.66118 0.0
H238 H 0.28211 0.01269 0.69492 0.0
H239 H 0.34099 0.00858 0.73571 0.0
C240 C 1.00412 0.19707 0.73147 0.0
C241 C 1.00219 0.20632 0.7101 0.0
C242 C 1.0056 0.16948 0.69332 0.0
C243 C 1.00285 0.19266 0.69121 0.0
C244 C 1.0076 0.16036 0.71481 0.0
C245 C 1.00686 0.17403 0.73367 0.0
U246 U 1.00503 0.25452 0.75771 0.0
O247 O 0.98565 0.268 0.78583 0.0
O248 O 0.02217 0.26692 0.78764 0.0
C249 C 1.00351 0.27246 0.79765 0.0
C250 C 1.00349 0.21126 0.75151 0.0
C251 C 1.00334 0.29305 0.81113 0.0
C252 C 0.9946 0.31035 0.84669 0.0
C253 C 0.99413 0.29193 0.83252 0.0
C254 C 0.01334 0.33175 0.8182 0.0
C255 C 1.00419 0.33058 0.83981 0.0
C256 C 0.01293 0.31313 0.80397 0.0
C257 C 0.01038 0.29961 0.70999 0.0
C258 C 0.99817 0.33739 0.70263 0.0
C259 C 0.0236 0.31903 0.67726 0.0
C260 C 0.02344 0.30024 0.69073 0.0
C261 C 0.0108 0.33776 0.68287 0.0
C262 C 0.99791 0.31837 0.7161 0.0
C263 C 0.00839 0.27812 0.72131 0.0
O264 O 0.02197 0.22206 0.75593 0.0
O265 O 0.98564 0.2237 0.7537 0.0
O266 O 0.98918 0.27298 0.73047 0.0
O267 O 0.0258 0.27082 0.73233 0.0
H268 H 1.00021 0.22412 0.70804 0.0
H269 H 1.00152 0.20027 0.67494 0.0
H270 H 0.00943 0.14259 0.7171 0.0
H271 H 0.00838 0.16658 0.75 0.0
H272 H 0.98782 0.30851 0.86327 0.0
H273 H 0.98686 0.27654 0.83849 0.0
H274 H 0.0207 0.34706 0.81222 0.0
H275 H 0.02021 0.31437 0.78753 0.0
H276 H 0.98829 0.35165 0.70748 0.0
H277 H 0.03312 0.3185 0.66197 0.0
H278 H 0.03289 0.28576 0.68558 0.0
H279 H 0.98759 0.31811 0.73088 0.0
C280 C 0.73022 0.01243 0.81984 0.0
C281 C 0.70877 0.01242 0.81055 0.0
C282 C 0.69216 0.01254 0.84764 0.0
C283 C 0.68992 0.01245 0.82431 0.0
C284 C 0.71374 0.01261 0.85678 0.0
C285 C 0.73254 0.01255 0.84302 0.0
U286 U 0.75636 0.01208 0.76228 0.0
O287 O 0.78587 0.02941 0.74908 0.0
O288 O 0.785 0.99283 0.74979 0.0
C289 C 0.7964 0.01076 0.74456 0.0
C290 C 0.75021 0.01206 0.80557 0.0
C291 C 0.81018 0.00986 0.7242 0.0
C292 C 0.84606 1.00068 0.70784 0.0
C293 C 0.83165 1.00095 0.72606 0.0
C294 C 0.81771 0.01813 0.68522 0.0
C295 C 0.83938 0.00923 0.68712 0.0
C296 C 0.80322 0.01846 0.70362 0.0
C297 C 0.70671 0.01373 0.71848 0.0
C298 C 0.70238 0.01149 0.67843 0.0
C299 C 0.67017 0.01734 0.70203 0.0
C300 C 0.68376 0.01685 0.72069 0.0
C301 C 0.67927 0.01479 0.6807 0.0
C302 C 0.71611 0.01103 0.69731 0.0
C303 C 0.71966 0.01316 0.73902 0.0
O304 O 0.75299 0.99383 0.79385 0.0
O305 O 0.75393 0.03024 0.79403 0.0
O306 O 0.73044 0.03123 0.74496 0.0
O307 O 0.72959 0.99448 0.74458 0.0
H308 H 0.70662 0.01237 0.79266 0.0
H309 H 0.6736 0.01264 0.81668 0.0
H310 H 0.71613 0.01234 0.87463 0.0
H311 H 0.74894 0.01246 0.8505 0.0
H312 H 0.86268 0.99413 0.71019 0.0
H313 H 0.83746 0.99446 0.74184 0.0
H314 H 0.81191 0.02471 0.66949 0.0
H315 H 0.78673 0.02549 0.70182 0.0
H316 H 0.70979 0.00949 0.66212 0.0
H317 H 0.65241 0.01941 0.70436 0.0
H318 H 0.67627 0.01879 0.73698 0.0
H319 H 0.73387 0.00856 0.69542 0.0
C320 C 0.19781 0.28604 0.01076 0.0
C321 C 0.20674 0.30729 1.00682 0.0
C322 C 0.17003 0.32409 0.01147 0.0
C323 C 0.19297 0.32612 1.0071 0.0
C324 C 0.16127 0.30275 0.01559 0.0
C325 C 0.17503 0.28394 0.01523 0.0
U326 U 0.25538 0.25998 0.01117 0.0
O327 O 0.26887 0.23154 0.99237 0.0
O328 O 0.26776 0.23035 0.0289 0.0
C329 C 0.27312 0.21994 0.01042 0.0
C330 C 0.21208 0.26605 0.01041 0.0
C331 C 0.29344 0.20612 0.01061 0.0
C332 C 0.30921 0.16888 0.01209 0.0
C333 C 0.29077 0.18301 0.01211 0.0
C334 C 0.33361 0.20077 0.00901 0.0
C335 C 0.33092 0.17747 0.01063 0.0
C336 C 0.315 0.21501 0.00903 0.0
C337 C 0.29942 0.30921 0.01412 0.0
C338 C 0.3396 0.31268 0.01234 0.0
C339 C 0.31664 0.34537 0.01806 0.0
C340 C 0.29769 0.33218 0.01733 0.0
C341 C 0.33781 0.33583 0.01567 0.0
C342 C 0.32042 0.29937 0.01161 0.0
C343 C 0.27861 0.29671 0.01306 0.0
O344 O 0.22414 0.26335 0.99237 0.0
O345 O 0.22327 0.26221 0.02876 0.0
O346 O 0.27224 0.28579 0.0309 0.0
O347 O 0.27338 0.28694 0.99421 0.0
H348 H 0.22435 0.3093 1.00352 0.0
H349 H 0.20034 0.3423 1.00413 0.0
H350 H 0.14367 0.30051 0.01876 0.0
H351 H 0.16783 0.26771 0.01835 0.0
H352 H 0.30637 0.1511 0.0129 0.0
H353 H 0.27427 0.17581 0.01318 0.0
H354 H 0.35009 0.20799 1.008 0.0
H355 H 0.31742 0.23283 1.00783 0.0
H356 H 0.35576 0.30493 0.01047 0.0
H357 H 0.31467 0.36317 0.02012 0.0
H358 H 0.28153 0.34002 0.01909 0.0
H359 H 0.32195 0.28159 0.00905 0.0
C360 C 0.28618 0.81937 0.01222 0.0
C361 C 0.30699 0.81096 1.00567 0.0
C362 C 0.32417 0.84728 0.0118 0.0
C363 C 0.32579 0.82479 1.00539 0.0
C364 C 0.30326 0.85553 0.01845 0.0
C365 C 0.28449 0.84171 0.01864 0.0
U366 U 0.26021 0.76176 0.011 0.0
O367 O 0.2307 0.74957 0.99294 0.0
O368 O 0.23171 0.74784 0.02945 0.0
C369 C 0.22022 0.74385 0.01127 0.0
C370 C 0.26621 0.80505 0.01247 0.0
C371 C 0.20646 0.72349 0.01063 0.0
C372 C 0.16925 0.70765 0.00869 0.0
C373 C 0.18334 0.72612 0.00925 0.0
C374 C 0.20121 0.68326 0.01097 0.0
C375 C 0.17791 0.68593 0.00943 0.0
C376 C 0.2154 0.70192 0.01152 0.0
C377 C 0.30932 0.71775 1.00745 0.0
C378 C 0.31278 0.67763 0.01022 0.0
C379 C 0.34518 0.70031 1.00209 0.0
C380 C 0.33208 0.71932 1.00295 0.0
C381 C 0.33572 0.67925 1.0056 0.0
C382 C 0.29957 0.69687 0.01111 0.0
C383 C 0.29699 0.73864 0.00885 0.0
O384 O 0.26224 0.7941 0.99398 0.0
O385 O 0.26364 0.79274 0.03034 0.0
O386 O 0.28712 0.74353 0.02774 0.0
O387 O 0.28618 0.74536 0.99107 0.0
H388 H 0.3087 0.79369 1.00078 0.0
H389 H 0.34164 0.8178 1.00043 0.0
H390 H 0.30132 0.87279 0.02321 0.0
H391 H 0.2686 0.84852 0.02374 0.0
H392 H 0.15146 0.71045 1.00797 0.0
H393 H 0.17608 0.74262 0.0087 0.0
H394 H 0.20848 0.66679 0.01146 0.0
H395 H 0.23323 0.69953 0.0126 0.0
H396 H 0.3051 0.66157 0.01298 0.0
H397 H 0.36285 0.70217 0.99903 0.0
H398 H 0.33986 0.73539 1.00034 0.0
H399 H 0.28197 0.69548 0.01472 0.0
C400 C 0.73054 0.19827 0.01112 0.0
C401 C 0.70919 0.20693 0.01507 0.0
C402 C 0.69289 0.16993 0.01085 0.0
C403 C 0.69055 0.19289 0.01498 0.0
C404 C 0.71438 0.16142 1.00695 0.0
C405 C 0.73298 0.17545 1.00709 0.0
U406 U 0.75665 0.25599 0.0139 0.0
O407 O 0.7869 0.26722 0.0314 0.0
O408 O 0.78472 0.27013 0.99502 0.0
C409 C 0.79683 0.27342 0.01293 0.0
C410 C 0.75035 0.21279 0.01107 0.0
C411 C 0.81079 0.29365 0.0137 0.0
C412 C 0.84815 0.3091 0.01585 0.0
C413 C 0.8338 0.29082 0.01617 0.0
C414 C 0.81662 0.3337 0.0111 0.0
C415 C 0.83984 0.33079 0.0131 0.0
C416 C 0.80218 0.31524 0.01129 0.0
C417 C 0.70919 0.30139 0.01985 0.0
C418 C 0.70253 0.33933 1.00766 0.0
C419 C 0.67516 0.32025 0.03036 0.0
C420 C 0.68889 0.30165 0.0313 0.0
C421 C 0.68159 0.339 0.01809 0.0
C422 C 0.71626 0.32048 0.00838 0.0
C423 C 0.72046 0.27987 0.01782 0.0
O424 O 0.75248 0.22576 0.99361 0.0
O425 O 0.75455 0.2231 0.02987 0.0
O426 O 0.73152 0.27231 0.0351 0.0
O427 O 0.72948 0.27486 0.99853 0.0
H428 H 0.70696 0.22455 0.01815 0.0
H429 H 0.67426 0.20006 0.01781 0.0
H430 H 0.71688 0.14382 1.00404 0.0
H431 H 0.74931 0.16845 1.00406 0.0
H432 H 0.86583 0.30623 0.01783 0.0
H433 H 0.84078 0.27431 0.0181 0.0
H434 H 0.80969 0.35018 0.00887 0.0
H435 H 0.78445 0.31778 0.00931 0.0
H436 H 0.70774 0.3537 0.9981 0.0
H437 H 0.65917 0.31975 0.03868 0.0
H438 H 0.68312 0.287 0.0401 0.0
H439 H 0.73184 0.3205 0.99932 0.0
C440 C 0.81858 0.7298 0.01483 0.0
C441 C 0.81094 0.70969 1.00567 0.0
C442 C 0.84639 0.69177 0.01421 0.0
C443 C 0.82475 0.69088 1.00528 0.0
C444 C 0.85383 0.71193 0.02354 0.0
C445 C 0.84007 0.73073 0.02382 0.0
U446 U 0.7612 0.75662 0.01332 0.0
O447 O 0.74785 0.7849 0.03253 0.0
O448 O 0.74958 0.78681 0.99606 0.0
C449 C 0.74399 0.79689 0.01465 0.0
C450 C 0.80436 0.74985 0.01526 0.0
C451 C 0.72367 0.81072 0.01445 0.0
C452 C 0.70762 0.84767 0.01833 0.0
C453 C 0.72605 0.83353 0.01861 0.0
C454 C 0.6838 0.81638 0.00963 0.0
C455 C 0.68618 0.83937 0.01392 0.0
C456 C 0.7024 0.80215 0.00992 0.0
C457 C 0.71545 0.70933 0.0083 0.0
C458 C 0.67792 0.7021 0.02147 0.0
C459 C 0.69624 0.67575 0.99701 0.0
C460 C 0.71481 0.68952 0.99606 0.0
C461 C 0.67789 0.68164 0.01013 0.0
C462 C 0.69675 0.71586 0.02071 0.0
C463 C 0.73701 0.72059 0.01 0.0
O464 O 0.79374 0.75439 0.9967 0.0
O465 O 0.79182 0.75215 0.03301 0.0
O466 O 0.74237 0.72966 0.02917 0.0
O467 O 0.74438 0.73151 0.99255 0.0
H468 H 0.79431 0.70853 0.99882 0.0
H469 H 0.81838 0.67558 0.99821 0.0
H470 H 0.87046 0.71331 0.03033 0.0
H471 H 0.84626 0.74606 0.03101 0.0
H472 H 0.71026 0.86525 0.02125 0.0
H473 H 0.74233 0.84051 0.02198 0.0
H474 H 0.66753 0.80937 1.00631 0.0
H475 H 0.70021 0.78456 1.00664 0.0
H476 H 0.66386 0.7069 0.03167 0.0
H477 H 0.69645 0.66016 0.98795 0.0
H478 H 0.72916 0.68416 0.98653 0.0
H479 H 0.69703 0.73105 0.03041 0.0
C480 C 0.50163 0.78663 0.69793 0.0
C481 C 0.49992 0.80809 0.70703 0.0
C482 C 0.50304 0.82461 0.67001 0.0
C483 C 0.50056 0.82689 0.69321 0.0
C484 C 0.50475 0.80302 0.66105 0.0
C485 C 0.50405 0.78426 0.67487 0.0
U486 U 0.50344 0.7604 0.75551 0.0
O487 O 0.52129 0.73057 0.76729 0.0
O488 O 0.48482 0.73206 0.76956 0.0
C489 C 0.5029 0.7203 0.77322 0.0
C490 C 0.50127 0.76666 0.71227 0.0
C491 C 0.50359 0.70635 0.79348 0.0
C492 C 0.50313 0.66898 0.80909 0.0
C493 C 0.50278 0.68321 0.79072 0.0
C494 C 0.50534 0.70081 0.83363 0.0
C495 C 0.50427 0.67749 0.83085 0.0
C496 C 0.50494 0.71515 0.81509 0.0
C497 C 0.50888 0.80877 0.80008 0.0
C498 C 0.50015 0.81445 0.83908 0.0
C499 C 0.51936 0.84316 0.81823 0.0
C500 C 0.51893 0.82975 0.79941 0.0
C501 C 0.50989 0.83578 0.83828 0.0
C502 C 0.49959 0.801 0.82003 0.0
C503 C 0.50677 0.7969 0.77895 0.0
O504 O 0.51991 0.76239 0.72282 0.0
O505 O 0.48361 0.76437 0.72496 0.0
O506 O 0.4876 0.78745 0.77429 0.0
O507 O 0.5242 0.78597 0.77155 0.0
H508 H 0.4982 0.8103 0.72483 0.0
H509 H 0.49945 0.84323 0.70072 0.0
H510 H 0.50638 0.80057 0.64328 0.0
H511 H 0.5054 0.76786 0.66752 0.0
H512 H 0.50274 0.6512 0.80617 0.0
H513 H 0.50186 0.67606 0.7742 0.0
H514 H 0.50612 0.70797 0.85014 0.0
H515 H 0.50559 0.73298 0.8176 0.0
H516 H 0.49284 0.80826 0.85435 0.0
H517 H 0.52651 0.85964 0.81682 0.0
H518 H 0.52588 0.83611 0.78403 0.0
H519 H 0.49162 0.78485 0.82075 0.0
C520 C 0.31929 0.51079 0.78685 0.0
C521 C 0.31125 0.50283 0.80732 0.0
C522 C 0.34676 0.5113 0.8251 0.0
C523 C 0.32489 0.50298 0.82622 0.0
C524 C 0.3546 0.51953 0.80461 0.0
C525 C 0.341 0.51924 0.7857 0.0
U526 U 0.26189 0.51215 0.7606 0.0
O527 O 0.24997 0.53054 0.73117 0.0
O528 O 0.248 0.49401 0.73196 0.0
C529 C 0.24405 0.51231 0.72063 0.0
C530 C 0.30513 0.51078 0.76677 0.0
C531 C 0.22357 0.51321 0.70705 0.0
C532 C 0.20716 0.52073 0.67083 0.0
C533 C 0.22548 0.52087 0.68512 0.0
C534 C 0.18433 0.50551 0.7003 0.0
C535 C 0.18629 0.51302 0.67812 0.0
C536 C 0.20283 0.50558 0.71465 0.0
C537 C 0.21796 0.51525 0.80995 0.0
C538 C 0.17787 0.51259 0.81387 0.0
C539 C 0.20099 0.51975 0.84615 0.0
C540 C 0.21982 0.51917 0.83279 0.0
C541 C 0.17979 0.51654 0.83691 0.0
C542 C 0.19693 0.51197 0.80039 0.0
C543 C 0.2387 0.51401 0.79734 0.0
O544 O 0.29289 0.49291 0.76371 0.0
O545 O 0.29421 0.52933 0.76303 0.0
O546 O 0.24534 0.53188 0.78663 0.0
O547 O 0.24362 0.49518 0.78736 0.0
H548 H 0.29442 0.49651 0.80869 0.0
H549 H 0.31823 0.49681 0.84178 0.0
H550 H 0.3714 0.52586 0.80308 0.0
H551 H 0.34747 0.52559 0.77012 0.0
H552 H 0.20957 0.5262 0.65384 0.0
H553 H 0.24138 0.52661 0.67883 0.0
H554 H 0.1685 0.49964 0.70659 0.0
H555 H 0.20099 0.49952 0.73152 0.0
H556 H 0.1617 0.51009 0.80633 0.0
H557 H 0.2031 0.52228 0.86387 0.0
H558 H 0.23601 0.52151 0.84041 0.0
H559 H 0.19531 0.50883 0.78273 0.0
C560 C 0.50563 0.31859 0.78722 0.0
C561 C 0.49426 0.31233 0.8067 0.0
C562 C 0.50673 0.34613 0.82549 0.0
C563 C 0.49471 0.32602 0.82558 0.0
C564 C 0.51828 0.35216 0.80601 0.0
C565 C 0.5177 0.33855 0.78711 0.0
U566 U 0.50485 0.26125 0.76032 0.0
O567 O 0.48638 0.24894 0.73111 0.0
O568 O 0.52295 0.24832 0.73117 0.0
C569 C 0.5046 0.2439 0.7201 0.0
C570 C 0.50534 0.30444 0.76705 0.0
C571 C 0.50423 0.22364 0.70617 0.0
C572 C 0.50029 0.20797 0.66905 0.0
C573 C 0.50025 0.22628 0.68336 0.0
C574 C 0.50826 0.18372 0.70018 0.0
C575 C 0.50424 0.18638 0.67718 0.0
C576 C 0.50824 0.20222 0.71458 0.0
C577 C 0.50514 0.21695 0.80953 0.0
C578 C 0.50659 0.17676 0.81307 0.0
C579 C 0.50693 0.20009 0.84601 0.0
C580 C 0.50568 0.21892 0.83269 0.0
C581 C 0.50764 0.17885 0.83638 0.0
C582 C 0.50548 0.19582 0.79962 0.0
C583 C 0.5049 0.23765 0.79682 0.0
O584 O 0.52345 0.29274 0.76347 0.0
O585 O 0.487 0.29305 0.76351 0.0
O586 O 0.48648 0.24343 0.78656 0.0
O587 O 0.52324 0.24354 0.78647 0.0
H588 H 0.48504 0.29685 0.80734 0.0
H589 H 0.48587 0.32071 0.84036 0.0
H590 H 0.52751 0.36762 0.80525 0.0
H591 H 0.52666 0.34366 0.77233 0.0
H592 H 0.4976 0.21085 0.65148 0.0
H593 H 0.4973 0.24269 0.67649 0.0
H594 H 0.51121 0.16735 0.70708 0.0
H595 H 0.51139 0.19981 0.73215 0.0
H596 H 0.50709 0.1605 0.80533 0.0
H597 H 0.5073 0.20214 0.86391 0.0
H598 H 0.50535 0.23515 0.84055 0.0
H599 H 0.5051 0.19412 0.78169 0.0
C600 C 0.69995 0.50951 0.78912 0.0
C601 C 0.70845 0.50283 0.80984 0.0
C602 C 0.67215 0.50912 0.82721 0.0
C603 C 0.69467 0.50266 0.82874 0.0
C604 C 0.66397 0.51612 0.80643 0.0
C605 C 0.6777 0.51629 0.78765 0.0
U606 U 0.75558 0.50745 0.75644 0.0
O607 O 0.76328 0.48888 0.72577 0.0
O608 O 0.764 0.52535 0.72563 0.0
C609 C 0.76773 0.507 0.71436 0.0
C610 C 0.71353 0.50907 0.76862 0.0
C611 C 0.78815 0.50664 0.70068 0.0
C612 C 0.80485 0.50592 0.66384 0.0
C613 C 0.78602 0.50596 0.6775 0.0
C614 C 0.82848 0.5073 0.69641 0.0
C615 C 0.82637 0.50653 0.67305 0.0
C616 C 0.80952 0.50733 0.71012 0.0
C617 C 0.80324 0.50623 0.80424 0.0
C618 C 0.83903 0.51855 0.81806 0.0
C619 C 0.81626 0.49372 0.84027 0.0
C620 C 0.80016 0.49357 0.82354 0.0
C621 C 0.83593 0.50621 0.83772 0.0
C622 C 0.8227 0.51875 0.80158 0.0
C623 C 0.78604 0.50664 0.78705 0.0
O624 O 0.72551 0.52689 0.7645 0.0
O625 O 0.72414 0.49043 0.76437 0.0
O626 O 0.7768 0.48831 0.77947 0.0
O627 O 0.77901 0.52537 0.77823 0.0
H628 H 0.72561 0.49753 0.81135 0.0
H629 H 0.70151 0.49705 0.84442 0.0
H630 H 0.6469 0.52161 0.80466 0.0
H631 H 0.67085 0.5216 0.77185 0.0
H632 H 0.8025 0.50573 0.64598 0.0
H633 H 0.76968 0.50558 0.66989 0.0
H634 H 0.84477 0.50762 0.70409 0.0
H635 H 0.81152 0.50789 0.72802 0.0
H636 H 0.85415 0.52796 0.81529 0.0
H637 H 0.8131 0.48435 0.85532 0.0
H638 H 0.7851 0.48393 0.82589 0.0
H639 H 0.82537 0.52848 0.78664 0.0
C640 C 0.50702 0.23006 0.31898 0.0
C641 C 0.51466 0.20955 0.31074 0.0
C642 C 0.50644 0.19167 0.34623 0.0
C643 C 0.51448 0.19057 0.32426 0.0
C644 C 0.49853 0.2122 0.35428 0.0
C645 C 0.49885 0.23119 0.34079 0.0
U646 U 0.50436 0.25634 0.26176 0.0
O647 O 0.52293 0.28434 0.24715 0.0
O648 O 0.48653 0.28633 0.25037 0.0
C649 C 0.50484 0.2961 0.24343 0.0
C650 C 0.50704 0.2502 0.3049 0.0
C651 C 0.50351 0.30894 0.22245 0.0
C652 C 0.49109 0.34281 0.20402 0.0
C653 C 0.49096 0.32861 0.22243 0.0
C654 C 0.51599 0.31766 0.18484 0.0
C655 C 0.50375 0.33769 0.185 0.0
C656 C 0.51591 0.30343 0.2034 0.0
C657 C 0.49867 0.2083 0.21708 0.0
C658 C 0.50879 0.20314 0.17833 0.0
C659 C 0.49036 0.17349 0.19861 0.0
C660 C 0.48937 0.18695 0.21739 0.0
C661 C 0.50052 0.18127 0.17913 0.0
C662 C 0.50803 0.21661 0.19736 0.0
C663 C 0.50061 0.21979 0.23844 0.0
O664 O 0.52456 0.25284 0.29206 0.0
O665 O 0.48822 0.25443 0.29464 0.0
O666 O 0.48328 0.23092 0.24578 0.0
O667 O 0.51987 0.22898 0.24327 0.0
H668 H 0.52075 0.20819 0.29383 0.0
H669 H 0.52041 0.17498 0.31745 0.0
H670 H 0.49242 0.21368 0.37116 0.0
H671 H 0.49276 0.2468 0.34741 0.0
H672 H 0.48178 0.35819 0.20505 0.0
H673 H 0.48151 0.33338 0.23703 0.0
H674 H 0.52572 0.31301 0.17042 0.0
H675 H 0.52582 0.28838 0.20299 0.0
H676 H 0.5167 0.20937 0.16339 0.0
H677 H 0.48372 0.15675 0.19948 0.0
H678 H 0.48219 0.18027 0.23253 0.0
H679 H 0.5154 0.23305 0.19693 0.0
C680 C 0.69687 0.51126 0.23141 0.0
C681 C 0.70557 0.5165 0.21035 0.0
C682 C 0.66897 0.51132 0.19345 0.0
C683 C 0.69174 0.51659 0.19156 0.0
C684 C 0.66042 0.50611 0.21464 0.0
C685 C 0.67423 0.50609 0.23339 0.0
U686 U 0.75458 0.51183 0.25726 0.0
O687 O 0.76748 0.52878 0.28711 0.0
O688 O 0.7677 0.49224 0.28537 0.0
C689 C 0.77263 0.51001 0.29712 0.0
C690 C 0.71127 0.51075 0.2513 0.0
C691 C 0.79321 0.5093 0.31063 0.0
C692 C 0.81068 0.49789 0.34533 0.0
C693 C 0.79242 0.49791 0.33096 0.0
C694 C 0.83128 0.52051 0.31916 0.0
C695 C 0.83041 0.50918 0.33973 0.0
C696 C 0.81282 0.52059 0.30474 0.0
C697 C 0.79931 0.51601 0.20894 0.0
C698 C 0.83779 0.50531 0.20296 0.0
C699 C 0.81809 0.52656 0.17491 0.0
C700 C 0.79925 0.52678 0.18833 0.0
C701 C 0.83755 0.5157 0.18193 0.0
C702 C 0.81871 0.5054 0.21639 0.0
C703 C 0.77801 0.51452 0.22068 0.0
O704 O 0.72349 0.49278 0.25351 0.0
O705 O 0.72234 0.52913 0.25549 0.0
O706 O 0.77117 0.53214 0.23168 0.0
O707 O 0.77268 0.49548 0.23004 0.0
H708 H 0.72307 0.52039 0.20843 0.0
H709 H 0.69895 0.52044 0.17551 0.0
H710 H 0.64294 0.50227 0.21678 0.0
H711 H 0.66721 0.50199 0.24948 0.0
H712 H 0.80907 0.48939 0.36113 0.0
H713 H 0.77738 0.48932 0.33599 0.0
H714 H 0.84623 0.52924 0.31416 0.0
H715 H 0.81381 0.52959 0.28916 0.0
H716 H 0.8526 0.49695 0.20889 0.0
H717 H 0.81708 0.53427 0.15866 0.0
H718 H 0.78428 0.53476 0.1822 0.0
H719 H 0.81896 0.49687 0.23226 0.0
C720 C 0.5027 0.69731 0.23107 0.0
C721 C 0.49601 0.70555 0.21024 0.0
C722 C 0.50419 0.66974 0.19294 0.0
C723 C 0.49664 0.69187 0.19139 0.0
C724 C 0.51105 0.66168 0.21383 0.0
C725 C 0.51029 0.67533 0.23268 0.0
U726 U 0.50522 0.75484 0.25676 0.0
O727 O 0.52364 0.76626 0.28635 0.0
O728 O 0.48723 0.7697 0.28501 0.0
C729 C 0.50555 0.7733 0.29644 0.0
C730 C 0.50255 0.71163 0.25102 0.0
C731 C 0.50729 0.79421 0.30932 0.0
C732 C 0.52064 0.81243 0.34293 0.0
C733 C 0.5202 0.79403 0.32874 0.0
C734 C 0.49549 0.83197 0.31832 0.0
C735 C 0.50817 0.83162 0.33806 0.0
C736 C 0.49504 0.81343 0.30407 0.0
C737 C 0.51107 0.79911 0.20833 0.0
C738 C 0.50416 0.83864 0.20391 0.0
C739 C 0.52053 0.81743 0.17375 0.0
C740 C 0.51984 0.79837 0.1868 0.0
C741 C 0.51261 0.83779 0.18205 0.0
C742 C 0.50334 0.81935 0.21701 0.0
C743 C 0.50873 0.77789 0.22001 0.0
O744 O 0.52135 0.72198 0.25511 0.0
O745 O 0.48501 0.72447 0.25348 0.0
O746 O 0.48953 0.7735 0.22955 0.0
O747 O 0.52608 0.77032 0.23093 0.0
H748 H 0.49039 0.72259 0.20854 0.0
H749 H 0.49152 0.6987 0.17553 0.0
H750 H 0.51674 0.64468 0.21568 0.0
H751 H 0.51567 0.66872 0.24855 0.0
H752 H 0.53026 0.8113 0.35811 0.0
H753 H 0.52954 0.7793 0.33331 0.0
H754 H 0.48587 0.84654 0.31391 0.0
H755 H 0.48486 0.81399 0.28922 0.0
H756 H 0.49805 0.85414 0.21079 0.0
H757 H 0.52663 0.81601 0.15686 0.0
H758 H 0.52559 0.78278 0.17977 0.0
H759 H 0.49639 0.82013 0.23362 0.0
C760 C 0.22949 0.50845 0.31902 0.0
C761 C 0.20822 0.51251 0.31022 0.0
C762 C 0.19163 0.50874 0.34717 0.0
C763 C 0.18947 0.51263 0.32415 0.0
C764 C 0.21302 0.50458 0.35579 0.0
C765 C 0.23171 0.50444 0.34187 0.0
U766 U 0.25635 0.51205 0.26161 0.0
O767 O 0.28702 0.52929 0.25106 0.0
O768 O 0.28422 0.49303 0.24724 0.0
C769 C 0.29665 0.51082 0.24437 0.0
C770 C 0.24945 0.50836 0.30466 0.0
C771 C 0.31056 0.5119 0.22409 0.0
C772 C 0.34787 0.51425 0.2085 0.0
C773 C 0.33359 0.51437 0.22684 0.0
C774 C 0.31627 0.50974 0.18398 0.0
C775 C 0.33951 0.51169 0.18681 0.0
C776 C 0.30189 0.50973 0.2025 0.0
C777 C 0.21014 0.51976 0.21542 0.0
C778 C 0.20183 0.50588 0.17839 0.0
C779 C 0.17783 0.53339 0.19556 0.0
C780 C 0.19162 0.53385 0.21414 0.0
C781 C 0.18242 0.5189 0.17787 0.0
C782 C 0.2156 0.50618 0.19719 0.0
C783 C 0.22062 0.51712 0.23728 0.0
O784 O 0.25144 0.49116 0.29133 0.0
O785 O 0.25412 0.52731 0.29483 0.0
O786 O 0.23183 0.53403 0.24545 0.0
O787 O 0.22909 0.49756 0.24222 0.0
H788 H 0.20614 0.51566 0.2926 0.0
H789 H 0.17333 0.5161 0.31694 0.0
H790 H 0.21532 0.50115 0.37332 0.0
H791 H 0.24795 0.50117 0.34896 0.0
H792 H 0.36557 0.51619 0.21133 0.0
H793 H 0.34063 0.51612 0.24334 0.0
H794 H 0.30927 0.50767 0.16751 0.0
H795 H 0.28415 0.50777 0.19999 0.0
H796 H 0.20562 0.49458 0.16488 0.0
H797 H 0.16306 0.54373 0.19538 0.0
H798 H 0.18706 0.54431 0.2281 0.0
H799 H 0.22977 0.49508 0.19792 0.0
C800 C 0.79405 0.70743 0.50625 0.0
C801 C 0.8139 0.71368 0.5169 0.0
C802 C 0.83139 0.67851 0.50594 0.0
C803 C 0.8324 0.69935 0.51672 0.0
C804 C 0.81151 0.67262 0.49506 0.0
C805 C 0.79316 0.68691 0.49519 0.0
U806 U 0.75546 0.76063 0.50759 0.0
O807 O 0.72528 0.76466 0.52809 0.0
O808 O 0.72252 0.76269 0.49182 0.0
C809 C 0.71232 0.76702 0.51066 0.0
C810 C 0.77331 0.72063 0.50776 0.0
C811 C 0.69797 0.78698 0.51068 0.0
C812 C 0.66271 0.80451 0.52001 0.0
C813 C 0.67669 0.78587 0.52012 0.0
C814 C 0.69123 0.82581 0.50116 0.0
C815 C 0.6697 0.82471 0.51038 0.0
C816 C 0.70524 0.80716 0.50136 0.0
C817 C 0.80068 0.8083 0.50201 0.0
C818 C 0.81928 0.8429 0.49312 0.0
C819 C 0.83911 0.814 0.5131 0.0
C820 C 0.82016 0.80041 0.51222 0.0
C821 C 0.83848 0.83559 0.50412 0.0
C822 C 0.80059 0.82932 0.49199 0.0
C823 C 0.77922 0.79692 0.50396 0.0
O824 O 0.76991 0.73238 0.52592 0.0
O825 O 0.76644 0.7306 0.48955 0.0
O826 O 0.77435 0.78766 0.52317 0.0
O827 O 0.77164 0.78602 0.48659 0.0
H828 H 0.81501 0.72941 0.52562 0.0
H829 H 0.84749 0.7046 0.52506 0.0
H830 H 0.80982 0.65663 0.48694 0.0
H831 H 0.77795 0.68161 0.48709 0.0
H832 H 0.64646 0.80311 0.52766 0.0
H833 H 0.67083 0.77053 0.52757 0.0
H834 H 0.69715 0.84097 0.49342 0.0
H835 H 0.72169 0.80843 0.49408 0.0
H836 H 0.81855 0.85943 0.48593 0.0
H837 H 0.85384 0.80812 0.52166 0.0
H838 H 0.82043 0.78425 0.52018 0.0
H839 H 0.78564 0.8357 0.48418 0.0
C840 C 0.7864 0.31894 0.51282 0.0
C841 C 0.80735 0.31031 0.51858 0.0
C842 C 0.82465 0.3464 0.51159 0.0
C843 C 0.82628 0.32395 0.51807 0.0
C844 C 0.80361 0.35485 0.5057 0.0
C845 C 0.78471 0.34125 0.50632 0.0
U846 U 0.75962 0.26165 0.51099 0.0
O847 O 0.7298 0.25032 0.49287 0.0
O848 O 0.73098 0.24792 0.52933 0.0
C849 C 0.71934 0.24441 0.51114 0.0
C850 C 0.7663 0.30479 0.51305 0.0
C851 C 0.70544 0.22416 0.51023 0.0
C852 C 0.66811 0.20862 0.50822 0.0
C853 C 0.68236 0.22697 0.50845 0.0
C854 C 0.69985 0.184 0.51119 0.0
C855 C 0.67657 0.18687 0.50978 0.0
C856 C 0.71419 0.20253 0.5115 0.0
C857 C 0.80628 0.21553 0.50594 0.0
C858 C 0.81445 0.17856 0.52003 0.0
C859 C 0.83765 0.19485 0.49134 0.0
C860 C 0.82433 0.21377 0.49133 0.0
C861 C 0.83312 0.17718 0.50594 0.0
C862 C 0.8011 0.19766 0.52007 0.0
C863 C 0.79566 0.23741 0.50797 0.0
O864 O 0.76212 0.29423 0.4944 0.0
O865 O 0.76365 0.29222 0.53074 0.0
O866 O 0.78636 0.24266 0.52707 0.0
O867 O 0.78512 0.2452 0.49048 0.0
H868 H 0.80908 0.29303 0.52341 0.0
H869 H 0.84224 0.31682 0.52245 0.0
H870 H 0.80169 0.37211 0.50087 0.0
H871 H 0.76872 0.34819 0.50173 0.0
H872 H 0.65039 0.2115 0.50669 0.0
H873 H 0.67527 0.24351 0.50735 0.0
H874 H 0.70691 0.16748 0.51251 0.0
H875 H 0.73198 0.20001 0.5129 0.0
H876 H 0.81045 0.16509 0.53131 0.0
H877 H 0.85212 0.19455 0.4806 0.0
H878 H 0.82881 0.22754 0.48058 0.0
H879 H 0.78729 0.19875 0.5316 0.0
C880 C 0.22886 0.69929 0.5142 0.0
C881 C 0.2078 0.70836 0.50965 0.0
C882 C 0.19064 0.67168 0.51393 0.0
C883 C 0.18885 0.69466 0.50948 0.0
C884 C 0.21182 0.66285 0.51858 0.0
C885 C 0.23066 0.67651 0.51872 0.0
U886 U 0.26092 0.75511 0.51215 0.0
O887 O 0.29118 0.76305 0.49292 0.0
O888 O 0.29194 0.76409 0.52939 0.0
C889 C 0.30274 0.76805 0.51079 0.0
C890 C 0.24931 0.71291 0.51374 0.0
C891 C 0.31587 0.78885 0.50984 0.0
C892 C 0.35038 0.80734 0.49952 0.0
C893 C 0.33697 0.78833 0.49994 0.0
C894 C 0.32168 0.82799 0.51881 0.0
C895 C 0.343 0.82745 0.50901 0.0
C896 C 0.30821 0.80888 0.51917 0.0
C897 C 0.21287 0.80251 0.51176 0.0
C898 C 0.20064 0.83934 0.52262 0.0
C899 C 0.17643 0.81567 0.50068 0.0
C900 C 0.19273 0.79913 0.50058 0.0
C901 C 0.18025 0.83605 0.51157 0.0
C902 C 0.21671 0.82259 0.5229 0.0
C903 C 0.22992 0.78518 0.51167 0.0
O904 O 0.2533 0.72363 0.49511 0.0
O905 O 0.25344 0.72488 0.53156 0.0
O906 O 0.23911 0.77824 0.53026 0.0
O907 O 0.23731 0.77603 0.49323 0.0
H908 H 0.20605 0.72595 0.50613 0.0
H909 H 0.1728 0.70207 0.50604 0.0
H910 H 0.21395 0.64524 0.52171 0.0
H911 H 0.24677 0.66917 0.52214 0.0
H912 H 0.36678 0.80613 0.49215 0.0
H913 H 0.34325 0.77304 0.49274 0.0
H914 H 0.31535 0.84322 0.52606 0.0
H915 H 0.29192 0.80972 0.52686 0.0
H916 H 0.20435 0.85495 0.53081 0.0
H917 H 0.16079 0.81237 0.49238 0.0
H918 H 0.1895 0.78359 0.49203 0.0
H919 H 0.23231 0.82548 0.53147 0.0
C920 C 0.31893 0.23019 0.50851 0.0
C921 C 0.30982 0.20871 0.50988 0.0
C922 C 0.34704 0.19234 0.50883 0.0
C923 C 0.32373 0.18996 0.51 0.0
C924 C 0.35599 0.21396 0.50738 0.0
C925 C 0.34208 0.23265 0.50723 0.0
U926 U 0.26135 0.25658 0.51121 0.0
O927 O 0.24726 0.28513 0.49304 0.0
O928 O 0.25016 0.28642 0.52946 0.0
C929 C 0.24381 0.29675 0.51126 0.0
C930 C 0.30456 0.25013 0.50862 0.0
C931 C 0.22339 0.31044 0.51248 0.0
C932 C 0.20731 0.34703 0.51918 0.0
C933 C 0.22557 0.33263 0.51935 0.0
C934 C 0.1839 0.3171 0.50584 0.0
C935 C 0.18627 0.33959 0.51217 0.0
C936 C 0.20235 0.30265 0.50587 0.0
C937 C 0.21579 0.20912 0.51583 0.0
C938 C 0.17818 0.20222 0.50272 0.0
C939 C 0.19674 0.17515 0.52618 0.0
C940 C 0.21527 0.18895 0.52746 0.0
C941 C 0.1783 0.18139 0.51335 0.0
C942 C 0.19698 0.21601 0.5038 0.0
C943 C 0.23735 0.22038 0.51415 0.0
O944 O 0.29177 0.25269 0.4911 0.0
O945 O 0.29411 0.25407 0.5274 0.0
O946 O 0.24487 0.23101 0.53172 0.0
O947 O 0.2425 0.22982 0.4951 0.0
H948 H 0.29197 0.20645 0.51096 0.0
H949 H 0.31626 0.17362 0.51136 0.0
H950 H 0.37379 0.21645 0.50611 0.0
H951 H 0.34943 0.24907 0.5061 0.0
H952 H 0.2097 0.36407 0.52452 0.0
H953 H 0.24163 0.33901 0.52452 0.0
H954 H 0.16794 0.31086 0.50029 0.0
H955 H 0.20028 0.2856 0.50043 0.0
H956 H 0.16406 0.20729 0.49276 0.0
H957 H 0.19706 0.15925 0.53467 0.0
H958 H 0.22971 0.18331 0.53669 0.0
H959 H 0.19715 0.23149 0.49459 0.0
C960 C 0.00924 0.95382 0.56282 0.0
C961 C 0.00927 0.9551 0.45454 0.0
C962 C 1.00777 0.06182 0.56378 0.0
C963 C 1.00669 0.06301 0.4555 0.0
C964 C 0.95339 0.06096 0.51077 0.0
C965 C 0.95582 0.95358 0.50896 0.0
C966 C 0.06101 0.06333 0.50828 0.0
C967 C 0.06306 0.9556 0.50946 0.0
C968 C 0.0621 0.00958 0.45469 0.0
C969 C 0.95436 0.00824 0.45532 0.0
C970 C 0.06302 0.0094 0.56287 0.0
C971 C 0.95471 1.00759 0.56353 0.0
Eu972 Eu 0.00914 0.96638 0.50887 0.0
O973 O 0.98891 0.98843 0.48921 0.0
O974 O 0.02878 0.98887 0.52869 0.0
Eu975 Eu 0.96636 1.00754 0.50932 0.0
Eu976 Eu 0.05064 0.00929 0.50894 0.0
O977 O 0.98909 0.98811 0.52904 0.0
O978 O 0.02843 0.98931 0.48919 0.0
Eu979 Eu 0.0088 0.00795 0.55142 0.0
Eu980 Eu 0.00824 0.00891 0.46708 0.0
O981 O 0.98865 0.02742 0.52909 0.0
O982 O 0.98815 0.02811 0.48965 0.0
O983 O 0.02777 0.02884 0.48949 0.0
O984 O 0.02796 0.02846 0.52907 0.0
Eu985 Eu 1.00762 0.05064 0.50954 0.0
O986 O 0.00874 0.94725 0.54157 0.0
O987 O 0.00889 0.94799 0.47564 0.0
O988 O 0.00835 0.06898 0.54272 0.0
O989 O 1.00695 0.06963 0.47674 0.0
O990 O 0.94722 0.03967 0.51047 0.0
O991 O 0.94843 0.97446 0.50796 0.0
O992 O 0.06845 0.04245 0.50896 0.0
O993 O 0.06965 0.97681 0.50929 0.0
O994 O 0.04086 0.01025 0.44821 0.0
O995 O 0.97546 1.00743 0.44849 0.0
O996 O 0.04193 0.00797 0.56982 0.0
O997 O 0.97594 0.00808 0.57016 0.0
O998 O 0.03983 0.06983 0.50805 0.0
O999 O 0.97435 0.06837 0.51048 0.0
O1000 O 0.04205 0.94849 0.5093 0.0
O1001 O 0.97699 0.94714 0.50988 0.0
O1002 O 0.00942 0.97638 0.44818 0.0
O1003 O 1.00687 0.04186 0.44866 0.0
O1004 O 0.00963 0.97492 0.56981 0.0
O1005 O 1.00762 0.04058 0.57027 0.0
O1006 O 0.94784 1.00685 0.54237 0.0
O1007 O 0.94749 0.00903 0.47645 0.0
O1008 O 0.06963 0.01051 0.54167 0.0
O1009 O 0.06915 0.00877 0.47578 0.0
C1010 C 0.50731 0.95721 0.06537 0.0
C1011 C 0.50906 0.06462 0.06072 0.0
C1012 C 0.50749 0.95272 0.95775 0.0
C1013 C 0.50895 0.06015 0.95337 0.0
C1014 C 0.56299 1.00697 0.95576 0.0
C1015 C 0.56247 0.00879 0.06362 0.0
C1016 C 0.45474 0.00862 0.9552 0.0
C1017 C 0.45427 0.01008 0.0631 0.0
C1018 C 0.4556 0.06377 1.00813 0.0
C1019 C 0.56389 0.06128 0.00882 0.0
C1020 C 0.45333 0.95579 0.0096 0.0
C1021 C 0.56157 0.95338 0.01061 0.0
Eu1022 Eu 0.50836 0.01043 0.0514 0.0
O1023 O 0.52868 0.02876 0.02835 0.0
O1024 O 0.48829 0.99012 0.02975 0.0
Eu1025 Eu 0.55067 1.00757 0.00961 0.0
Eu1026 Eu 0.46641 0.00954 0.00911 0.0
O1027 O 0.5278 0.98917 0.03007 0.0
O1028 O 0.48906 0.0297 0.02817 0.0
Eu1029 Eu 0.50767 0.96647 0.01108 0.0
Eu1030 Eu 0.5095 0.05081 1.00765 0.0
O1031 O 0.52799 0.98755 0.99041 0.0
O1032 O 0.52889 0.02716 0.98894 0.0
O1033 O 0.48938 0.02802 0.98872 0.0
O1034 O 0.48854 0.98856 0.99033 0.0
Eu1035 Eu 0.50879 1.00697 0.96723 0.0
O1036 O 0.50816 0.97858 0.07126 0.0
O1037 O 0.50745 0.0439 0.06846 0.0
O1038 O 0.50806 0.97354 0.95008 0.0
O1039 O 0.50937 0.0388 0.9474 0.0
O1040 O 0.56959 1.00678 0.97696 0.0
O1041 O 0.56914 1.00671 0.04252 0.0
O1042 O 0.44792 0.01028 0.97625 0.0
O1043 O 0.44756 0.00894 0.04194 0.0
O1044 O 0.47691 0.07021 0.00842 0.0
O1045 O 0.54297 0.06863 1.0068 0.0
O1046 O 0.47429 0.9485 0.01132 0.0
O1047 O 0.54028 0.94702 0.01208 0.0
O1048 O 0.47584 1.00673 0.94839 0.0
O1049 O 0.54189 1.00719 0.94871 0.0
O1050 O 0.47536 0.01131 0.07002 0.0
O1051 O 0.54132 0.01108 0.07024 0.0
O1052 O 0.51079 0.07065 0.03948 0.0
O1053 O 0.5086 0.06795 0.97415 0.0
O1054 O 0.50673 0.94944 0.04459 0.0
O1055 O 0.50745 0.94671 0.97911 0.0
O1056 O 0.56867 0.97439 0.0092 0.0
O1057 O 0.56999 0.03997 0.01041 0.0
O1058 O 0.44718 0.9771 1.00821 0.0
O1059 O 0.44841 0.04274 1.00811 0.0
C1060 C 0.00876 0.45344 0.06235 0.0
C1061 C 1.00763 0.45484 0.95447 0.0
C1062 C 0.00965 0.56169 0.06409 0.0
C1063 C 0.008 0.56323 0.95618 0.0
C1064 C 0.95575 0.56334 0.01055 0.0
C1065 C 0.95393 0.45504 0.01013 0.0
C1066 C 0.06382 0.56142 0.00908 0.0
C1067 C 0.06177 0.45321 1.00809 0.0
C1068 C 0.06094 0.50868 0.95382 0.0
C1069 C 0.95375 0.509 0.95666 0.0
C1070 C 0.06395 0.50813 0.06129 0.0
C1071 C 0.95637 0.50792 0.0644 0.0
Eu1072 Eu 0.00807 0.46623 0.0086 0.0
O1073 O 0.98808 0.48907 0.98961 0.0
O1074 O 0.02875 0.48792 0.02822 0.0
Eu1075 Eu 0.96657 0.50896 0.01022 0.0
Eu1076 Eu 0.05098 0.5075 1.008 0.0
O1077 O 0.98923 0.48871 0.02911 0.0
O1078 O 0.02779 0.48841 0.98855 0.0
Eu1079 Eu 0.00984 0.50775 0.05133 0.0
Eu1080 Eu 1.00771 0.50888 0.96717 0.0
O1081 O 0.98979 0.52812 0.02976 0.0
O1082 O 0.98892 0.52868 0.99033 0.0
O1083 O 0.02839 0.52803 0.98927 0.0
O1084 O 0.02945 0.52737 0.02869 0.0
Eu1085 Eu 0.00957 0.55043 0.00995 0.0
O1086 O 0.0081 0.44719 0.04106 0.0
O1087 O 1.0077 0.4479 0.97559 0.0
O1088 O 0.01021 0.5687 0.04302 0.0
O1089 O 0.00914 0.56952 0.97746 0.0
O1090 O 0.94849 0.54229 0.01093 0.0
O1091 O 0.94734 0.47628 0.00968 0.0
O1092 O 0.07026 0.54018 1.00736 0.0
O1093 O 0.06908 0.47421 0.00847 0.0
O1094 O 0.03968 0.50987 0.94773 0.0
O1095 O 0.97472 0.50872 0.94945 0.0
O1096 O 0.04311 0.50867 0.06886 0.0
O1097 O 0.97766 0.50767 0.0706 0.0
O1098 O 0.04279 0.56848 0.01058 0.0
O1099 O 0.97708 0.56958 0.01017 0.0
O1100 O 0.04046 0.44694 1.00777 0.0
O1101 O 0.975 0.44798 0.0101 0.0
O1102 O 1.00748 0.47613 0.94794 0.0
O1103 O 1.00726 0.54217 0.949 0.0
O1104 O 0.00982 0.47448 0.06955 0.0
O1105 O 0.00915 0.54041 0.07059 0.0
O1106 O 0.94892 0.50829 0.04348 0.0
O1107 O 0.94733 0.50948 0.9779 0.0
O1108 O 0.07037 0.50731 0.04011 0.0
O1109 O 0.06851 0.50706 0.97463 0.0
C1110 C 0.5089 0.45399 0.06251 0.0
C1111 C 0.50572 0.56174 0.06377 0.0
C1112 C 0.5097 0.45544 0.9541 0.0
C1113 C 0.50761 0.56352 0.9556 0.0
C1114 C 0.56309 0.5103 0.95557 0.0
C1115 C 0.56126 0.51053 0.06379 0.0
C1116 C 0.45537 0.50795 0.95386 0.0
C1117 C 0.45331 0.5076 0.06207 0.0
C1118 C 0.45215 0.55988 0.00897 0.0
C1119 C 0.55976 0.56434 0.01045 0.0
C1120 C 0.45691 0.45243 0.00833 0.0
C1121 C 0.56416 0.45693 0.00963 0.0
Eu1122 Eu 0.50752 0.50809 0.05094 0.0
O1123 O 0.52689 0.52874 0.02905 0.0
O1124 O 0.48891 0.48769 0.02816 0.0
Eu1125 Eu 0.55046 0.51012 0.00945 0.0
Eu1126 Eu 0.46614 0.50675 1.00817 0.0
O1127 O 0.52856 0.48935 0.02879 0.0
O1128 O 0.48732 0.52727 0.0285 0.0
Eu1129 Eu 0.51002 0.46645 0.0085 0.0
Eu1130 Eu 0.50652 0.55077 0.00954 0.0
O1131 O 0.52918 0.48975 0.98911 0.0
O1132 O 0.52764 0.52953 0.98977 0.0
O1133 O 0.48806 0.52784 0.98911 0.0
O1134 O 0.4898 0.48834 0.9886 0.0
Eu1135 Eu 0.50908 0.50932 0.96683 0.0
O1136 O 0.50809 0.47512 0.06937 0.0
O1137 O 0.50611 0.54046 0.07006 0.0
O1138 O 0.50941 0.47677 0.94784 0.0
O1139 O 0.50931 0.54248 0.94863 0.0
O1140 O 0.56972 0.50981 0.97678 0.0
O1141 O 0.56858 0.51029 0.04277 0.0
O1142 O 0.44808 0.50708 0.97487 0.0
O1143 O 0.44681 0.50603 0.04085 0.0
O1144 O 0.4729 0.56771 0.01009 0.0
O1145 O 0.53847 0.57046 0.01111 0.0
O1146 O 0.47826 0.44655 0.00903 0.0
O1147 O 0.54339 0.44917 0.00983 0.0
O1148 O 0.47667 0.50886 0.94762 0.0
O1149 O 0.54205 0.51057 0.94851 0.0
O1150 O 0.47436 0.50874 0.0691 0.0
O1151 O 0.53995 0.51003 0.07008 0.0
O1152 O 0.50594 0.56899 0.04275 0.0
O1153 O 0.50588 0.57 0.97683 0.0
O1154 O 0.5097 0.44743 0.04126 0.0
O1155 O 0.51026 0.44824 0.97517 0.0
O1156 O 0.57031 0.47822 0.0091 0.0
O1157 O 0.56759 0.54362 0.00925 0.0
O1158 O 0.44907 0.47318 1.00737 0.0
O1159 O 0.44627 0.53854 1.00786 0.0
C1160 C 1.00739 0.45591 0.56447 0.0
C1161 C 0.00803 0.45279 0.45704 0.0
C1162 C 0.0091 0.56355 0.56139 0.0
C1163 C 0.00829 0.56034 0.45377 0.0
C1164 C 0.95484 0.56302 0.50865 0.0
C1165 C 0.95345 0.4551 0.51068 0.0
C1166 C 0.06314 0.56136 0.50802 0.0
C1167 C 0.06166 0.45335 0.51077 0.0
C1168 C 0.06235 0.50627 0.4553 0.0
C1169 C 0.95404 0.50835 0.45523 0.0
C1170 C 0.0625 0.50882 0.56326 0.0
C1171 C 0.95432 0.50995 0.56327 0.0
Eu1172 Eu 1.00774 0.4661 0.51033 0.0
O1173 O 0.98812 0.48815 0.48999 0.0
O1174 O 0.02789 0.4886 0.52959 0.0
Eu1175 Eu 0.96616 0.50891 0.5093 0.0
Eu1176 Eu 0.05055 0.50743 0.50924 0.0
O1177 O 0.98835 0.48937 0.52945 0.0
O1178 O 0.02785 0.48757 0.48991 0.0
Eu1179 Eu 0.0084 0.50936 0.55132 0.0
Eu1180 Eu 0.00823 0.50696 0.46709 0.0
O1181 O 0.98885 0.52887 0.52851 0.0
O1182 O 0.98879 0.52769 0.4889 0.0
O1183 O 0.02834 0.52701 0.48896 0.0
O1184 O 0.02839 0.52816 0.52831 0.0
Eu1185 Eu 0.00887 0.55031 0.50799 0.0
O1186 O 1.00709 0.44849 0.54355 0.0
O1187 O 0.00808 0.44663 0.47833 0.0
O1188 O 0.00906 0.56969 0.54009 0.0
O1189 O 0.00878 0.56785 0.47467 0.0
O1190 O 0.94792 0.54192 0.50929 0.0
O1191 O 0.94709 0.47639 0.51071 0.0
O1192 O 0.0696 0.54008 0.50786 0.0
O1193 O 0.06878 0.47439 0.51109 0.0
O1194 O 0.04124 0.50751 0.4484 0.0
O1195 O 0.97521 0.50712 0.44845 0.0
O1196 O 0.04132 0.50976 0.57003 0.0
O1197 O 0.97547 0.50911 0.57011 0.0
O1198 O 0.04208 0.5685 0.50833 0.0
O1199 O 0.97612 0.56953 0.50783 0.0
O1200 O 0.04041 0.4468 0.51008 0.0
O1201 O 0.9745 0.4479 0.51017 0.0
O1202 O 1.00788 0.47367 0.44949 0.0
O1203 O 0.00803 0.53901 0.44769 0.0
O1204 O 0.00814 0.47721 0.57064 0.0
O1205 O 0.00882 0.54264 0.56887 0.0
O1206 O 0.94756 0.51047 0.54212 0.0
O1207 O 0.94742 0.50919 0.47645 0.0
O1208 O 0.06922 0.50783 0.54209 0.0
O1209 O 0.06911 0.50532 0.47643 0.0
C1210 C 0.50672 0.95412 0.56203 0.0
C1211 C 0.50829 0.95437 0.45412 0.0
C1212 C 0.50847 0.06237 0.56246 0.0
C1213 C 0.50901 0.0627 0.4545 0.0
C1214 C 0.45513 0.06302 0.50792 0.0
C1215 C 0.45404 0.95466 0.50831 0.0
C1216 C 0.56307 0.06201 0.50798 0.0
C1217 C 0.56189 0.95394 0.50894 0.0
C1218 C 0.56235 0.00826 0.45437 0.0
C1219 C 0.45546 0.008 0.45365 0.0
C1220 C 0.56223 0.00866 0.56187 0.0
C1221 C 0.45397 0.00815 0.56106 0.0
Eu1222 Eu 0.50808 0.96632 0.50816 0.0
O1223 O 0.48865 0.98878 0.48817 0.0
O1224 O 0.52801 0.98844 0.52809 0.0
Eu1225 Eu 0.46634 0.00879 0.50765 0.0
Eu1226 Eu 0.55061 0.00803 0.50824 0.0
O1227 O 0.48845 0.98896 0.52769 0.0
O1228 O 0.52822 0.98842 0.48841 0.0
Eu1229 Eu 0.5082 0.00828 0.55044 0.0
Eu1230 Eu 0.50876 0.00849 0.46611 0.0
O1231 O 0.48883 0.02824 0.52778 0.0
O1232 O 0.48905 0.02854 0.48826 0.0
O1233 O 0.5286 0.02812 0.48851 0.0
O1234 O 0.5283 0.02789 0.52811 0.0
Eu1235 Eu 0.50899 0.05058 0.50832 0.0
O1236 O 0.50632 0.94758 0.54082 0.0
O1237 O 0.50778 0.94767 0.47532 0.0
O1238 O 0.50951 0.06916 0.54131 0.0
O1239 O 0.5096 0.06922 0.4757 0.0
O1240 O 0.44798 0.04196 0.50875 0.0
O1241 O 0.44732 0.97589 0.50751 0.0
O1242 O 0.56971 0.0408 0.50879 0.0
O1243 O 0.56904 0.97497 0.50824 0.0
O1244 O 0.54126 0.00883 0.44763 0.0
O1245 O 0.4766 1.00718 0.44717 0.0
O1246 O 0.54114 0.00823 0.56892 0.0
O1247 O 0.47495 0.00868 0.56839 0.0
O1248 O 0.54198 0.06897 0.50734 0.0
O1249 O 0.47636 0.06953 0.50725 0.0
O1250 O 0.5407 0.94732 0.50932 0.0
O1251 O 0.4752 0.94793 0.5086 0.0
O1252 O 0.50904 0.97557 0.44741 0.0
O1253 O 0.50824 0.04157 0.44751 0.0
O1254 O 0.50793 0.9752 0.56908 0.0
O1255 O 0.50753 0.04119 0.56921 0.0
O1256 O 0.44749 1.00783 0.53989 0.0
O1257 O 0.44818 0.00935 0.47458 0.0
O1258 O 0.56899 0.00865 0.54078 0.0
O1259 O 0.56927 1.00771 0.47546 0.0
C1260 C 0.13822 0.17074 0.51606 0.0
C1261 C 0.16006 0.16532 0.51012 0.0
C1262 C 0.12131 0.15466 0.515 0.0
C1263 C 0.12644 0.13294 0.50742 0.0
C1264 C 0.14833 0.12774 0.50051 0.0
C1265 C 0.16493 0.14398 0.50214 0.0
C1266 C 0.09819 0.16062 0.52281 0.0
C1267 C 0.15432 0.1049 0.4919 0.0
C1268 C 0.09181 0.08377 0.52616 0.0
C1269 C 0.07769 0.08095 0.50795 0.0
C1270 C 0.1074 0.10109 0.52645 0.0
C1271 C 0.10926 0.11528 0.50771 0.0
C1272 C 0.09515 0.11216 0.48911 0.0
C1273 C 0.07917 0.09518 0.48964 0.0
C1274 C 0.1218 0.10421 0.54679 0.0
C1275 C 0.09719 0.12646 0.46856 0.0
H1276 H 0.13458 0.18727 0.52231 0.0
H1277 H 0.18186 0.13995 0.49736 0.0
H1278 H 0.08583 0.15694 0.50962 0.0
H1279 H 0.09375 0.15032 0.53748 0.0
H1280 H 0.09675 0.17845 0.52746 0.0
H1281 H 0.1717 0.10411 0.48563 0.0
H1282 H 0.1524 0.09243 0.50536 0.0
H1283 H 0.14288 0.10003 0.47826 0.0
H1284 H 0.09032 0.07271 0.54034 0.0
H1285 H 0.06811 0.09273 0.47559 0.0
H1286 H 0.12029 0.12153 0.55301 0.0
H1287 H 0.13952 0.10146 0.54242 0.0
H1288 H 0.11726 0.0926 0.56044 0.0
H1289 H 0.09467 0.14421 0.47291 0.0
H1290 H 0.08495 0.12177 0.45552 0.0
H1291 H 0.11419 0.12491 0.46154 0.0
C1292 C 0.85563 0.14994 0.528 0.0
C1293 C 0.84885 0.15823 0.50727 0.0
C1294 C 0.87228 0.13366 0.52951 0.0
C1295 C 0.88243 0.12568 0.50983 0.0
C1296 C 0.87531 0.13357 0.48885 0.0
C1297 C 0.8585 0.14965 0.48783 0.0
C1298 C 0.8794 0.12541 0.55214 0.0
C1299 C 0.88579 0.12539 0.46751 0.0
C1300 C 0.94013 0.10044 0.51244 0.0
C1301 C 0.9353 0.07763 0.51124 0.0
C1302 C 0.92303 0.11629 0.51238 0.0
C1303 C 0.90063 0.10913 0.51108 0.0
C1304 C 0.89561 0.08619 0.51016 0.0
C1305 C 0.913 0.07072 0.51025 0.0
C1306 C 0.92894 0.14069 0.51337 0.0
C1307 C 0.87189 0.07798 0.50876 0.0
H1308 H 0.84848 0.15672 0.5431 0.0
H1309 H 0.8531 0.15576 0.47175 0.0
H1310 H 0.87807 0.10701 0.5529 0.0
H1311 H 0.89711 0.12974 0.55507 0.0
H1312 H 0.86922 0.13265 0.56576 0.0
H1313 H 0.87809 0.133 0.45254 0.0
H1314 H 0.90383 0.12933 0.46748 0.0
H1315 H 0.88419 0.10704 0.46629 0.0
H1316 H 0.95727 0.10597 0.51328 0.0
H1317 H 0.909 0.05316 0.50933 0.0
H1318 H 0.9205 0.14866 0.52772 0.0
H1319 H 0.92299 0.14919 0.49811 0.0
H1320 H 0.94715 0.14346 0.51494 0.0
H1321 H 0.86209 0.08448 0.52298 0.0
H1322 H 0.87081 0.05953 0.50879 0.0
H1323 H 0.86399 0.08429 0.49333 0.0
C1324 C 0.85297 0.87172 0.51773 0.0
C1325 C 0.85702 0.85129 0.50728 0.0
C1326 C 0.86963 0.8879 0.5192 0.0
C1327 C 0.89069 0.88361 0.50962 0.0
C1328 C 0.89507 0.86275 0.49955 0.0
C1329 C 0.87814 0.84667 0.49868 0.0
C1330 C 0.86455 0.90976 0.53054 0.0
C1331 C 0.91728 0.8578 0.48891 0.0
C1332 C 0.92325 0.9347 0.49231 0.0
C1333 C 0.93915 0.9359 0.50919 0.0
C1334 C 0.90771 0.91733 0.49192 0.0
C1335 C 0.90774 0.9014 0.5093 0.0
C1336 C 0.92359 0.90291 0.52665 0.0
C1337 C 0.93945 0.91997 0.52612 0.0
C1338 C 0.89135 0.91598 0.47291 0.0
C1339 C 0.92365 0.8867 0.54584 0.0
H1340 H 0.83659 0.87512 0.52451 0.0
H1341 H 0.88111 0.83086 0.49052 0.0
H1342 H 0.87732 0.91342 0.54334 0.0
H1343 H 0.86507 0.92347 0.5182 0.0
H1344 H 0.8479 0.90976 0.53859 0.0
H1345 H 0.91822 0.84054 0.48238 0.0
H1346 H 0.92026 0.86956 0.475 0.0
H1347 H 0.93088 0.86025 0.50113 0.0
H1348 H 0.92332 0.94706 0.47916 0.0
H1349 H 0.95182 0.92116 0.5392 0.0
H1350 H 0.87414 0.91787 0.47929 0.0
H1351 H 0.89243 0.89942 0.46482 0.0
H1352 H 0.89436 0.92901 0.46014 0.0
H1353 H 0.90683 0.88569 0.55341 0.0
H1354 H 0.93574 0.89149 0.55897 0.0
H1355 H 0.92796 0.86984 0.53974 0.0
C1356 C 0.15011 0.85747 0.49227 0.0
C1357 C 0.16311 0.85385 0.51133 0.0
C1358 C 0.13377 0.87407 0.49187 0.0
C1359 C 0.13068 0.88766 0.51081 0.0
C1360 C 0.14383 0.88432 0.53001 0.0
C1361 C 0.15974 0.8673 0.53012 0.0
C1362 C 0.11978 0.87704 0.47121 0.0
C1363 C 0.14103 0.89867 0.55046 0.0
C1364 C 0.10217 0.94328 0.50297 0.0
C1365 C 0.08048 0.93838 0.50998 0.0
C1366 C 0.11873 0.92688 0.50313 0.0
C1367 C 0.11343 0.90521 0.51064 0.0
C1368 C 0.09162 0.90021 0.51791 0.0
C1369 C 0.07536 0.91686 0.51742 0.0
C1370 C 0.14185 0.93272 0.49517 0.0
C1371 C 0.08541 0.87728 0.52611 0.0
H1372 H 0.15284 0.84747 0.47753 0.0
H1373 H 0.16937 0.86439 0.54507 0.0
H1374 H 0.1019 0.87504 0.47538 0.0
H1375 H 0.12196 0.8941 0.46453 0.0
H1376 H 0.12412 0.8649 0.45797 0.0
H1377 H 0.15302 0.89429 0.56381 0.0
H1378 H 0.14334 0.91645 0.54606 0.0
H1379 H 0.1239 0.89687 0.5571 0.0
H1380 H 0.10616 0.95985 0.49705 0.0
H1381 H 0.05866 0.91303 0.52307 0.0
H1382 H 0.14655 0.92188 0.481 0.0
H1383 H 0.15407 0.9297 0.50866 0.0
H1384 H 0.1432 0.95035 0.4898 0.0
H1385 H 0.08834 0.86484 0.51279 0.0
H1386 H 0.06773 0.87622 0.53139 0.0
H1387 H 0.09609 0.87259 0.54041 0.0
C1388 C 0.51458 0.14556 0.16403 0.0
C1389 C 0.50363 0.16579 0.16039 0.0
C1390 C 0.51637 0.12972 0.14708 0.0
C1391 C 0.50661 0.13417 0.12615 0.0
C1392 C 0.49586 0.15477 0.12225 0.0
C1393 C 0.49469 0.17052 0.13945 0.0
C1394 C 0.52828 0.10807 0.15173 0.0
C1395 C 0.48491 0.15979 0.10022 0.0
C1396 C 0.52462 0.09916 0.07694 0.0
C1397 C 0.50837 0.08252 0.07713 0.0
C1398 C 0.52432 0.11615 0.0929 0.0
C1399 C 0.50688 0.11678 0.10873 0.0
C1400 C 0.4901 0.10023 0.10851 0.0
C1401 C 0.49129 0.08301 0.09289 0.0
C1402 C 0.54289 0.13307 0.09316 0.0
C1403 C 0.47097 0.10066 0.12479 0.0
H1404 H 0.5216 0.14207 0.18028 0.0
H1405 H 0.4861 0.18616 0.13681 0.0
H1406 H 0.51632 0.09404 0.15087 0.0
H1407 H 0.54123 0.10504 0.13893 0.0
H1408 H 0.53627 0.10791 0.16839 0.0
H1409 H 0.47775 0.17683 0.09968 0.0
H1410 H 0.49712 0.15807 0.0865 0.0
H1411 H 0.47139 0.14761 0.09708 0.0
H1412 H 0.53786 0.09853 0.06469 0.0
H1413 H 0.47865 0.07013 0.09272 0.0
H1414 H 0.55176 0.13232 0.10933 0.0
H1415 H 0.53599 0.1501 0.0915 0.0
H1416 H 0.55513 0.13027 0.07959 0.0
H1417 H 0.4773 0.09829 0.14195 0.0
H1418 H 0.4585 0.08749 0.12128 0.0
H1419 H 0.46253 0.11707 0.12425 0.0
C1420 C 0.86892 0.49466 0.16415 0.0
C1421 C 0.85695 0.51454 0.16668 0.0
C1422 C 0.88583 0.49282 0.14815 0.0
C1423 C 0.89065 0.51121 0.13427 0.0
C1424 C 0.87898 0.53144 0.13704 0.0
C1425 C 0.86245 0.53292 0.15337 0.0
C1426 C 0.89815 0.47106 0.14572 0.0
C1427 C 0.8836 0.55136 0.12242 0.0
C1428 C 0.94572 0.51459 0.10393 0.0
C1429 C 0.93964 0.50809 0.08236 0.0
C1430 C 0.92999 0.51535 0.12109 0.0
C1431 C 0.9077 0.50933 0.11658 0.0
C1432 C 0.9015 0.50243 0.09494 0.0
C1433 C 0.91755 0.50197 0.07804 0.0
C1434 C 0.93714 0.52297 0.14393 0.0
C1435 C 0.87784 0.49586 0.08956 0.0
H1436 H 0.86459 0.4803 0.17416 0.0
H1437 H 0.85356 0.54847 0.1555 0.0
H1438 H 0.89505 0.46395 0.12898 0.0
H1439 H 0.91634 0.47389 0.14716 0.0
H1440 H 0.89305 0.45865 0.15843 0.0
H1441 H 0.87317 0.56595 0.12691 0.0
H1442 H 0.90136 0.5562 0.12369 0.0
H1443 H 0.88035 0.54705 0.10477 0.0
H1444 H 0.96273 0.51952 0.10737 0.0
H1445 H 0.91278 0.49676 0.06145 0.0
H1446 H 0.93293 0.51012 0.15649 0.0
H1447 H 0.92802 0.53834 0.14855 0.0
H1448 H 0.95528 0.52644 0.14483 0.0
H1449 H 0.87232 0.48229 0.10078 0.0
H1450 H 0.87594 0.49019 0.07207 0.0
H1451 H 0.86658 0.51021 0.09235 0.0
C1452 C 0.49374 0.87158 0.16646 0.0
C1453 C 0.51239 0.85757 0.16729 0.0
C1454 C 0.4924 0.88878 0.15075 0.0
C1455 C 0.51003 0.89184 0.13544 0.0
C1456 C 0.52914 0.87819 0.13659 0.0
C1457 C 0.53018 0.86137 0.15264 0.0
C1458 C 0.47185 0.90322 0.15004 0.0
C1459 C 0.54824 0.88093 0.12045 0.0
C1460 C 0.49891 0.91926 0.07986 0.0
C1461 C 0.5073 0.94071 0.08348 0.0
C1462 C 0.49921 0.90331 0.09684 0.0
C1463 C 0.50835 0.90894 0.1178 0.0
C1464 C 0.5167 0.93061 0.12159 0.0
C1465 C 0.51597 0.94629 0.1044 0.0
C1466 C 0.49005 0.88036 0.09224 0.0
C1467 C 0.52677 0.93709 0.14367 0.0
H1468 H 0.47983 0.86859 0.17754 0.0
H1469 H 0.54482 0.85087 0.15345 0.0
H1470 H 0.47657 0.92105 0.15093 0.0
H1471 H 0.46303 0.9007 0.13403 0.0
H1472 H 0.46017 0.89947 0.16386 0.0
H1473 H 0.56215 0.86929 0.12396 0.0
H1474 H 0.54233 0.87795 0.10322 0.0
H1475 H 0.5547 0.89821 0.1211 0.0
H1476 H 0.49201 0.91494 0.06377 0.0
H1477 H 0.52265 0.96281 0.10722 0.0
H1478 H 0.47711 0.87608 0.1047 0.0
H1479 H 0.50352 0.86784 0.09379 0.0
H1480 H 0.48266 0.879 0.07536 0.0
H1481 H 0.51461 0.93421 0.15725 0.0
H1482 H 0.53204 0.9548 0.14407 0.0
H1483 H 0.5415 0.92652 0.14717 0.0
C1484 C 0.14371 0.51132 0.16565 0.0
C1485 C 0.16582 0.51612 0.16003 0.0
C1486 C 0.12738 0.50918 0.14922 0.0
C1487 C 0.13331 0.51226 0.12667 0.0
C1488 C 0.15569 0.51687 0.12085 0.0
C1489 C 0.1718 0.51853 0.13767 0.0
C1490 C 0.10376 0.50384 0.15601 0.0
C1491 C 0.16245 0.52059 0.09695 0.0
C1492 C 0.09412 0.49011 0.08257 0.0
C1493 C 0.08161 0.50909 0.07783 0.0
C1494 C 0.11112 0.49087 0.09848 0.0
C1495 C 0.11589 0.51126 0.1093 0.0
C1496 C 0.10344 0.53059 0.10411 0.0
C1497 C 0.08618 0.52918 0.08855 0.0
C1498 C 0.12366 0.46982 0.10402 0.0
C1499 C 0.1083 0.55269 0.11502 0.0
H1500 H 0.13921 0.50916 0.18299 0.0
H1501 H 0.18892 0.52229 0.13342 0.0
H1502 H 0.0926 0.51779 0.15138 0.0
H1503 H 0.09781 0.48885 0.14703 0.0
H1504 H 0.10217 0.50086 0.17417 0.0
H1505 H 0.1806 0.52363 0.09519 0.0
H1506 H 0.15789 0.50594 0.08671 0.0
H1507 H 0.15334 0.53511 0.0901 0.0
H1508 H 0.09035 0.47464 0.07406 0.0
H1509 H 0.07641 0.54381 0.08453 0.0
H1510 H 0.12118 0.46562 0.12183 0.0
H1511 H 0.14176 0.47233 0.10145 0.0
H1512 H 0.11815 0.45546 0.09376 0.0
H1513 H 0.10526 0.55152 0.13318 0.0
H1514 H 0.09787 0.56633 0.10819 0.0
H1515 H 0.12608 0.55712 0.1127 0.0
C1516 C 0.528 0.86452 0.86226 0.0
C1517 C 0.50956 0.85091 0.85778 0.0
C1518 C 0.52721 0.8807 0.87897 0.0
C1519 C 0.50766 0.88302 0.89184 0.0
C1520 C 0.48924 0.86887 0.88799 0.0
C1521 C 0.49037 0.85301 0.8709 0.0
C1522 C 0.54713 0.89563 0.88252 0.0
C1523 C 0.46817 0.87088 0.90154 0.0
C1524 C 0.51384 0.9132 0.94676 0.0
C1525 C 0.50687 0.93472 0.9411 0.0
C1526 C 0.51383 0.89608 0.93096 0.0
C1527 C 0.50648 0.90059 0.90907 0.0
C1528 C 0.49898 0.92217 0.90336 0.0
C1529 C 0.49937 0.93902 0.91944 0.0
C1530 C 0.52209 0.87328 0.93755 0.0
C1531 C 0.49092 0.92755 0.88019 0.0
H1532 H 0.54302 0.86274 0.85244 0.0
H1533 H 0.47596 0.84276 0.86735 0.0
H1534 H 0.54236 0.91323 0.87962 0.0
H1535 H 0.55298 0.89435 0.89997 0.0
H1536 H 0.56117 0.89144 0.87125 0.0
H1537 H 0.45571 0.85798 0.8971 0.0
H1538 H 0.47204 0.86943 0.91953 0.0
H1539 H 0.46063 0.88752 0.89891 0.0
H1540 H 0.51975 0.9098 0.96345 0.0
H1541 H 0.4937 0.95557 0.91505 0.0
H1542 H 0.53701 0.86893 0.92758 0.0
H1543 H 0.50919 0.86058 0.93394 0.0
H1544 H 0.5265 0.87233 0.95546 0.0
H1545 H 0.50471 0.92533 0.86812 0.0
H1546 H 0.48461 0.94487 0.87879 0.0
H1547 H 0.47742 0.91595 0.8753 0.0
C1548 C 0.15863 0.5326 0.8688 0.0
C1549 C 0.16011 0.51673 0.85175 0.0
C1550 C 0.14181 0.53145 0.88484 0.0
C1551 C 0.12592 0.51415 0.88362 0.0
C1552 C 0.1267 0.49862 0.86594 0.0
C1553 C 0.14386 0.50008 0.85017 0.0
C1554 C 0.14144 0.54835 0.90345 0.0
C1555 C 0.10989 0.48002 0.86416 0.0
C1556 C 0.09793 0.49878 0.93794 0.0
C1557 C 0.07746 0.50967 0.93582 0.0
C1558 C 0.11367 0.49962 0.92076 0.0
C1559 C 0.1089 0.51202 0.9013 0.0
C1560 C 0.08827 0.52311 0.89915 0.0
C1561 C 0.07269 0.52164 0.91638 0.0
C1562 C 0.13545 0.4874 0.92351 0.0
C1563 C 0.08281 0.53685 0.87883 0.0
H1564 H 0.17097 0.54572 0.86986 0.0
H1565 H 0.14505 0.48767 0.83713 0.0
H1566 H 0.12496 0.55663 0.90422 0.0
H1567 H 0.14405 0.53987 0.91963 0.0
H1568 H 0.15448 0.56129 0.90145 0.0
H1569 H 0.11216 0.46999 0.84881 0.0
H1570 H 0.11139 0.46886 0.87878 0.0
H1571 H 0.09276 0.48689 0.86427 0.0
H1572 H 0.10152 0.48939 0.95291 0.0
H1573 H 0.05692 0.53028 0.91484 0.0
H1574 H 0.14944 0.49945 0.92341 0.0
H1575 H 0.13805 0.47584 0.90936 0.0
H1576 H 0.13612 0.47772 0.93924 0.0
H1577 H 0.09503 0.55058 0.8771 0.0
H1578 H 0.06584 0.54415 0.87964 0.0
H1579 H 0.08407 0.52645 0.86364 0.0
C1580 C 0.49441 0.14157 0.84927 0.0
C1581 C 0.50948 0.15924 0.85108 0.0
C1582 C 0.49429 0.12437 0.86506 0.0
C1583 C 0.50976 0.1249 0.88282 0.0
C1584 C 0.52561 0.14223 0.88415 0.0
C1585 C 0.52524 0.15923 0.86826 0.0
C1586 C 0.47713 0.10612 0.86325 0.0
C1587 C 0.54252 0.1432 0.90272 0.0
C1588 C 0.49667 0.09624 0.93736 0.0
C1589 C 0.50889 0.07655 0.93528 0.0
C1590 C 0.49627 0.11186 0.92008 0.0
C1591 C 0.50889 0.10784 0.90058 0.0
C1592 C 0.52133 0.08798 0.89846 0.0
C1593 C 0.52098 0.07242 0.91579 0.0
C1594 C 0.48246 0.13269 0.92272 0.0
C1595 C 0.53546 0.08342 0.8782 0.0
H1596 H 0.48212 0.14171 0.83607 0.0
H1597 H 0.53704 0.17282 0.86951 0.0
H1598 H 0.48535 0.0896 0.86332 0.0
H1599 H 0.46589 0.10669 0.87789 0.0
H1600 H 0.46692 0.1076 0.84792 0.0
H1601 H 0.55453 0.15709 0.90057 0.0
H1602 H 0.53389 0.14539 0.91889 0.0
H1603 H 0.55191 0.12734 0.90362 0.0
H1604 H 0.48713 0.09927 0.95238 0.0
H1605 H 0.53057 0.05722 0.91431 0.0
H1606 H 0.47082 0.1344 0.9085 0.0
H1607 H 0.49344 0.14753 0.92266 0.0
H1608 H 0.47267 0.13267 0.9384 0.0
H1609 H 0.52565 0.08588 0.86277 0.0
H1610 H 0.5423 0.06625 0.87818 0.0
H1611 H 0.54955 0.09535 0.87772 0.0
C1612 C 0.86482 0.52614 0.86024 0.0
C1613 C 0.85303 0.50652 0.85555 0.0
C1614 C 0.88121 0.52663 0.87677 0.0
C1615 C 0.88556 0.50717 0.88925 0.0
C1616 C 0.87357 0.48741 0.8849 0.0
C1617 C 0.8576 0.48725 0.86793 0.0
C1618 C 0.89395 0.54792 0.88083 0.0
C1619 C 0.8777 0.46642 0.89808 0.0
C1620 C 0.94149 0.50242 0.9176 0.0
C1621 C 0.9362 0.50847 0.93952 0.0
C1622 C 0.92511 0.50179 0.9011 0.0
C1623 C 0.90295 0.50743 0.90664 0.0
C1624 C 0.89745 0.51348 0.92871 0.0
C1625 C 0.91417 0.51389 0.94494 0.0
C1626 C 0.93154 0.49519 0.87771 0.0
C1627 C 0.87394 0.5196 0.93515 0.0
H1628 H 0.86113 0.54123 0.85111 0.0
H1629 H 0.84889 0.47192 0.86421 0.0
H1630 H 0.89159 0.55346 0.89827 0.0
H1631 H 0.91202 0.545 0.87841 0.0
H1632 H 0.88864 0.56156 0.86954 0.0
H1633 H 0.86643 0.45264 0.89309 0.0
H1634 H 0.89516 0.46088 0.89576 0.0
H1635 H 0.87537 0.46971 0.91609 0.0
H1636 H 0.95843 0.49798 0.91331 0.0
H1637 H 0.90997 0.51865 0.96181 0.0
H1638 H 0.92771 0.50896 0.86604 0.0
H1639 H 0.92168 0.48054 0.87235 0.0
H1640 H 0.94949 0.49104 0.87625 0.0
H1641 H 0.86831 0.53414 0.92529 0.0
H1642 H 0.87241 0.52371 0.9531 0.0
H1643 H 0.86252 0.50561 0.9313 0.0
C1644 C 0.66412 0.64382 0.01944 0.0
C1645 C 0.65946 0.66565 0.01272 0.0
C1646 C 0.64731 0.62774 0.02035 0.0
C1647 C 0.62543 0.63361 0.01403 0.0
C1648 C 0.62051 0.65579 1.00776 0.0
C1649 C 0.63763 0.67168 1.00738 0.0
C1650 C 0.65309 0.60435 0.02754 0.0
C1651 C 0.59738 0.6625 1.00062 0.0
C1652 C 0.59001 0.58597 0.99298 0.0
C1653 C 0.57618 0.58218 0.01125 0.0
C1654 C 0.60572 0.60318 0.99344 0.0
C1655 C 0.60799 0.61623 0.01294 0.0
C1656 C 0.5941 0.61218 0.03154 0.0
C1657 C 0.57802 0.59534 0.03031 0.0
C1658 C 0.6199 0.60733 0.97312 0.0
C1659 C 0.59657 0.62524 0.05285 0.0
H1660 H 0.68105 0.6393 0.02377 0.0
H1661 H 0.63415 0.68857 1.00211 0.0
H1662 H 0.64172 0.59882 0.04099 0.0
H1663 H 0.65089 0.59273 0.01338 0.0
H1664 H 0.67051 0.60299 0.03356 0.0
H1665 H 0.59614 0.68059 0.99703 0.0
H1666 H 0.59263 0.65312 0.98545 0.0
H1667 H 0.58514 0.65822 0.01375 0.0
H1668 H 0.58829 0.57568 0.97826 0.0
H1669 H 0.56722 0.59209 0.04441 0.0
H1670 H 0.63765 0.60422 0.97709 0.0
H1671 H 0.61845 0.62498 0.9679 0.0
H1672 H 0.6151 0.59653 0.9589 0.0
H1673 H 0.61348 0.62265 0.05978 0.0
H1674 H 0.58413 0.62027 0.0656 0.0
H1675 H 0.59474 0.64329 0.04952 0.0
C1676 C 0.34914 0.64321 0.02164 0.0
C1677 C 0.35025 0.65937 1.00487 0.0
C1678 C 0.36475 0.62586 0.0225 0.0
C1679 C 0.38174 0.62478 1.00623 0.0
C1680 C 0.38242 0.64057 0.98882 0.0
C1681 C 0.36658 0.6576 0.98829 0.0
C1682 C 0.36358 0.6092 0.04127 0.0
C1683 C 0.4003 0.6399 0.97115 0.0
C1684 C 0.43655 0.59677 0.01949 0.0
C1685 C 0.434 0.57627 0.00875 0.0
C1686 C 0.41937 0.61251 0.01932 0.0
C1687 C 0.39941 0.60769 1.00778 0.0
C1688 C 0.39676 0.58699 0.99691 0.0
C1689 C 0.41405 0.57142 0.99769 0.0
C1690 C 0.42269 0.63437 0.03127 0.0
C1691 C 0.37586 0.58148 0.9841 0.0
H1692 H 0.33666 0.64464 0.03458 0.0
H1693 H 0.36725 0.66988 0.9751 0.0
H1694 H 0.36339 0.59201 0.03454 0.0
H1695 H 0.3786 0.61075 0.05188 0.0
H1696 H 0.34861 0.6116 0.05184 0.0
H1697 H 0.39785 0.65283 0.95818 0.0
H1698 H 0.41685 0.6425 0.97891 0.0
H1699 H 0.40061 0.62334 0.963 0.0
H1700 H 0.45191 0.60043 0.02822 0.0
H1701 H 0.41215 0.55562 0.98919 0.0
H1702 H 0.40901 0.63711 0.04336 0.0
H1703 H 0.42216 0.64827 0.01915 0.0
H1704 H 0.43879 0.63506 0.04031 0.0
H1705 H 0.36114 0.58277 0.99516 0.0
H1706 H 0.37634 0.56449 0.97683 0.0
H1707 H 0.37351 0.59365 0.97043 0.0
C1708 C 0.35896 0.36764 0.03188 0.0
C1709 C 0.35764 0.35046 0.01614 0.0
C1710 C 0.37595 0.38352 0.03092 0.0
C1711 C 0.39212 0.38205 0.0139 0.0
C1712 C 0.39148 0.36422 0.99852 0.0
C1713 C 0.37419 0.34858 0.99983 0.0
C1714 C 0.37617 0.40227 0.04767 0.0
C1715 C 0.40854 0.3622 0.98019 0.0
C1716 C 0.42016 0.43625 0.99819 0.0
C1717 C 0.44056 0.43428 0.00922 0.0
C1718 C 0.40444 0.41906 0.99909 0.0
C1719 C 0.40915 0.39974 0.01174 0.0
C1720 C 0.42971 0.39774 0.02299 0.0
C1721 C 0.4453 0.41497 0.0214 0.0
C1722 C 0.38276 0.42164 0.98667 0.0
C1723 C 0.43507 0.37762 0.03705 0.0
H1724 H 0.34636 0.36894 0.04472 0.0
H1725 H 0.37311 0.33543 0.98753 0.0
H1726 H 0.39259 0.40317 0.05603 0.0
H1727 H 0.37354 0.41838 0.03904 0.0
H1728 H 0.36305 0.40033 0.06055 0.0
H1729 H 0.4064 0.34673 0.97032 0.0
H1730 H 0.40719 0.37669 0.96883 0.0
H1731 H 0.42558 0.36239 0.98728 0.0
H1732 H 0.41659 0.45115 0.98866 0.0
H1733 H 0.46101 0.41358 0.03015 0.0
H1734 H 0.36867 0.4217 0.99861 0.0
H1735 H 0.38025 0.40733 0.97528 0.0
H1736 H 0.38215 0.43725 0.97679 0.0
H1737 H 0.42271 0.37604 0.05067 0.0
H1738 H 0.45196 0.37855 0.04451 0.0
H1739 H 0.43395 0.36228 0.02685 0.0
C1740 C 0.64432 0.3527 1.00677 0.0
C1741 C 0.66559 0.35735 0.0151 0.0
C1742 C 0.62825 0.36944 1.005 0.0
C1743 C 0.63351 0.39124 0.01212 0.0
C1744 C 0.65511 0.39612 0.02022 0.0
C1745 C 0.67104 0.37908 0.0214 0.0
C1746 C 0.60554 0.36371 0.99585 0.0
C1747 C 0.66112 0.41914 0.02828 0.0
C1748 C 0.59691 0.43871 0.9926 0.0
C1749 C 0.58199 0.44047 0.01034 0.0
C1750 C 0.6138 0.42265 0.99289 0.0
C1751 C 0.61612 0.4087 0.01173 0.0
C1752 C 0.60128 0.41088 0.02992 0.0
C1753 C 0.58409 0.42656 0.02882 0.0
C1754 C 0.62881 0.42026 0.9729 0.0
C1755 C 0.60354 0.39663 0.05049 0.0
H1756 H 0.64027 0.33586 1.00171 0.0
H1757 H 0.68749 0.38254 0.02793 0.0
H1758 H 0.59274 0.36599 0.00895 0.0
H1759 H 0.60125 0.37507 0.98195 0.0
H1760 H 0.60463 0.34628 0.98975 0.0
H1761 H 0.67876 0.4203 0.03365 0.0
H1762 H 0.65818 0.43153 0.01493 0.0
H1763 H 0.65028 0.42376 0.0425 0.0
H1764 H 0.59499 0.44955 0.97831 0.0
H1765 H 0.57247 0.42821 0.04254 0.0
H1766 H 0.62718 0.40326 0.96588 0.0
H1767 H 0.64644 0.42246 0.97787 0.0
H1768 H 0.62483 0.4325 0.95966 0.0
H1769 H 0.60082 0.37889 0.04617 0.0
H1770 H 0.59147 0.40137 0.06366 0.0
H1771 H 0.62063 0.39807 0.05732 0.0
C1772 C 0.02295 0.6627 0.64955 0.0
C1773 C 1.0024 0.66659 0.65995 0.0
C1774 C 0.0251 0.64638 0.63301 0.0
C1775 C 1.00633 0.63352 0.62699 0.0
C1776 C 0.9855 0.63756 0.63715 0.0
C1777 C 0.98374 0.6542 0.65333 0.0
C1778 C 0.04751 0.64258 0.62229 0.0
C1779 C 0.96515 0.62403 0.63122 0.0
C1780 C 1.00459 0.60351 0.57174 0.0
C1781 C 0.00925 0.58154 0.57811 0.0
C1782 C 1.00406 0.62068 0.58744 0.0
C1783 C 0.00834 0.61578 0.61003 0.0
C1784 C 0.0135 0.59375 0.61655 0.0
C1785 C 0.01385 0.57686 0.6005 0.0
C1786 C 0.99847 0.644 0.57992 0.0
C1787 C 0.01823 0.58795 0.64053 0.0
H1788 H 0.03752 0.67193 0.65479 0.0
H1789 H 0.96773 0.65735 0.66101 0.0
H1790 H 0.05332 0.62542 0.62582 0.0
H1791 H 0.04612 0.64421 0.60396 0.0
H1792 H 0.06029 0.6545 0.62833 0.0
H1793 H 0.9502 0.62926 0.64075 0.0
H1794 H 0.96152 0.62565 0.6132 0.0
H1795 H 0.96829 0.60615 0.63459 0.0
H1796 H 1.00097 0.6073 0.55449 0.0
H1797 H 0.01769 0.55998 0.60554 0.0
H1798 H 0.01172 0.65572 0.58521 0.0
H1799 H 0.98276 0.64953 0.58788 0.0
H1800 H 0.9965 0.64519 0.56159 0.0
H1801 H 0.03189 0.5985 0.64704 0.0
H1802 H 0.02294 0.5702 0.64266 0.0
H1803 H 1.00328 0.59134 0.65082 0.0
C1804 C 0.36822 0.99068 0.65934 0.0
C1805 C 0.35129 1.00671 0.65972 0.0
C1806 C 0.38426 0.99058 0.6425 0.0
C1807 C 0.38328 1.0069 0.62561 0.0
C1808 C 0.36569 0.02258 0.62533 0.0
C1809 C 0.34979 0.02226 0.64244 0.0
C1810 C 0.40266 0.97345 0.64321 0.0
C1811 C 0.3642 0.04017 0.60746 0.0
C1812 C 0.4382 0.01979 0.59751 0.0
C1813 C 0.43609 1.00782 0.57768 0.0
C1814 C 0.42079 0.02018 0.61302 0.0
C1815 C 0.40115 1.00787 0.60869 0.0
C1816 C 0.39906 0.99563 0.58872 0.0
C1817 C 0.41651 0.99594 0.57332 0.0
C1818 C 0.42344 0.03368 0.63404 0.0
C1819 C 0.37857 0.98192 0.5838 0.0
H1820 H 0.36919 0.97847 0.67259 0.0
H1821 H 0.33679 0.03475 0.64283 0.0
H1822 H 0.40352 0.96435 0.62718 0.0
H1823 H 0.41892 0.98186 0.64562 0.0
H1824 H 0.40032 0.9612 0.65684 0.0
H1825 H 0.34889 0.05042 0.60901 0.0
H1826 H 0.37889 0.05131 0.60846 0.0
H1827 H 0.36442 0.03233 0.59076 0.0
H1828 H 0.45328 0.02918 0.60069 0.0
H1829 H 0.41499 0.98655 0.55799 0.0
H1830 H 0.42296 0.02252 0.64873 0.0
H1831 H 0.40943 0.04558 0.63572 0.0
H1832 H 0.43932 0.04315 0.63434 0.0
H1833 H 0.37649 0.96891 0.59673 0.0
H1834 H 0.37944 0.97369 0.56727 0.0
H1835 H 0.36353 0.99258 0.58432 0.0
C1836 C 0.0292 0.36368 0.65603 0.0
C1837 C 0.00993 0.35693 0.66736 0.0
C1838 C 0.02832 0.38004 0.6395 0.0
C1839 C 1.00773 0.39024 0.63449 0.0
C1840 C 0.98832 0.38411 0.64633 0.0
C1841 C 0.98962 0.36741 0.66258 0.0
C1842 C 0.04934 0.38608 0.62709 0.0
C1843 C 0.96613 0.39484 0.64146 0.0
C1844 C 0.01058 0.44552 0.60458 0.0
C1845 C 1.00689 0.43913 0.58243 0.0
C1846 C 0.0105 0.42981 0.62175 0.0
C1847 C 1.00659 0.40718 0.61666 0.0
C1848 C 1.00251 0.40062 0.59444 0.0
C1849 C 1.00274 0.41668 0.57756 0.0
C1850 C 0.01495 0.43736 0.6453 0.0
C1851 C 0.99826 0.37659 0.58843 0.0
H1852 H 0.04501 0.35592 0.6599 0.0
H1853 H 0.9746 0.36209 0.67102 0.0
H1854 H 0.04718 0.38267 0.60908 0.0
H1855 H 0.05279 0.40412 0.62887 0.0
H1856 H 0.06404 0.37664 0.63311 0.0
H1857 H 0.9528 0.38887 0.65279 0.0
H1858 H 0.96746 0.41319 0.64304 0.0
H1859 H 0.96112 0.39122 0.62407 0.0
H1860 H 0.01382 0.46281 0.60855 0.0
H1861 H 0.9997 0.41158 0.56054 0.0
H1862 H 0.03031 0.42934 0.65163 0.0
H1863 H 1.00109 0.43216 0.65633 0.0
H1864 H 0.01695 0.45569 0.64655 0.0
H1865 H 0.01304 0.36639 0.59267 0.0
H1866 H 0.99455 0.37438 0.57046 0.0
H1867 H 0.98406 0.37001 0.59823 0.0
C1868 C 0.64724 0.03114 0.66007 0.0
C1869 C 0.66423 0.01517 0.66122 0.0
C1870 C 0.63105 0.03025 0.64338 0.0
C1871 C 0.63196 0.01303 0.62739 0.0
C1872 C 0.64954 0.99736 0.6279 0.0
C1873 C 0.66554 0.99863 0.64485 0.0
C1874 C 0.61267 0.0474 0.6432 0.0
C1875 C 0.65106 0.97891 0.61092 0.0
C1876 C 0.57742 0.99875 0.59915 0.0
C1877 C 0.57989 0.00963 0.57873 0.0
C1878 C 0.59454 0.99923 0.61498 0.0
C1879 C 0.61426 0.01132 0.61035 0.0
C1880 C 0.61673 0.02243 0.58977 0.0
C1881 C 0.59955 0.0213 0.57413 0.0
C1882 C 0.59153 0.98687 0.63663 0.0
C1883 C 0.63726 0.03592 0.58445 0.0
H1884 H 0.64639 0.04415 0.67253 0.0
H1885 H 0.67856 0.98619 0.6458 0.0
H1886 H 0.61207 0.05587 0.62682 0.0
H1887 H 0.59636 0.03912 0.6457 0.0
H1888 H 0.61484 0.06017 0.65638 0.0
H1889 H 0.66615 0.96849 0.61321 0.0
H1890 H 0.63615 0.96808 0.61214 0.0
H1891 H 0.6513 0.98599 0.59388 0.0
H1892 H 0.56228 0.98954 0.60257 0.0
H1893 H 0.60135 0.02991 0.55838 0.0
H1894 H 0.59177 0.99878 0.65072 0.0
H1895 H 0.60551 0.97508 0.63915 0.0
H1896 H 0.57564 0.97741 0.63717 0.0
H1897 H 0.63765 0.05097 0.59513 0.0
H1898 H 0.63768 0.04129 0.56677 0.0
H1899 H 0.65254 0.02623 0.58801 0.0
C1900 C 0.99445 0.35078 0.37278 0.0
C1901 C 0.01229 0.35055 0.35775 0.0
C1902 C 0.9935 0.36659 0.38993 0.0
C1903 C 0.01072 0.38254 0.39191 0.0
C1904 C 0.02909 0.38194 0.37724 0.0
C1905 C 0.02974 0.36584 0.36046 0.0
C1906 C 0.97374 0.36672 0.40546 0.0
C1907 C 0.04776 0.39872 0.37885 0.0
C1908 C 0.99901 0.43801 0.41939 0.0
C1909 C 0.00838 0.43479 0.44047 0.0
C1910 C 0.9992 0.42091 0.40356 0.0
C1911 C 0.00932 0.40032 0.4089 0.0
C1912 C 0.01885 0.39702 0.43014 0.0
C1913 C 0.01812 0.41428 0.44576 0.0
C1914 C 0.98877 0.42496 0.38107 0.0
C1915 C 0.03009 0.3754 0.43627 0.0
H1916 H 0.98083 0.33915 0.37064 0.0
H1917 H 0.04376 0.36548 0.34912 0.0
H1918 H 0.97943 0.36614 0.423 0.0
H1919 H 0.96425 0.38241 0.40332 0.0
H1920 H 0.96236 0.35248 0.40244 0.0
H1921 H 0.06121 0.39548 0.3666 0.0
H1922 H 0.04115 0.4157 0.37593 0.0
H1923 H 0.05505 0.39852 0.3958 0.0
H1924 H 0.99131 0.45382 0.41536 0.0
H1925 H 0.02557 0.41184 0.462 0.0
H1926 H 0.97594 0.41213 0.37765 0.0
H1927 H 1.0016 0.42356 0.36788 0.0
H1928 H 0.98089 0.44164 0.37988 0.0
H1929 H 0.01819 0.3614 0.43454 0.0
H1930 H 0.03662 0.37553 0.45356 0.0
H1931 H 0.04413 0.37212 0.42473 0.0
C1932 C 0.64849 0.99509 0.35361 0.0
C1933 C 0.66238 0.01384 0.35282 0.0
C1934 C 0.63167 0.99335 0.36971 0.0
C1935 C 0.62889 0.01066 0.38542 0.0
C1936 C 0.64257 0.02977 0.38446 0.0
C1937 C 0.65898 0.03122 0.36803 0.0
C1938 C 0.61714 0.97285 0.3702 0.0
C1939 C 0.64009 0.04855 0.401 0.0
C1940 C 0.57425 0.01732 0.41581 0.0
C1941 C 0.57937 0.00844 0.43676 0.0
C1942 C 0.59014 0.01781 0.39882 0.0
C1943 C 0.61157 0.00902 0.40285 0.0
C1944 C 0.61676 0.99969 0.42384 0.0
C1945 C 0.60059 0.99964 0.44065 0.0
C1946 C 0.58411 0.0281 0.3767 0.0
C1947 C 0.63945 0.99003 0.42862 0.0
H1948 H 0.65118 0.98149 0.34209 0.0
H1949 H 0.66938 0.04593 0.36726 0.0
H1950 H 0.61925 0.96405 0.38628 0.0
H1951 H 0.59937 0.97765 0.3689 0.0
H1952 H 0.62111 0.96111 0.35648 0.0
H1953 H 0.65213 0.06224 0.39796 0.0
H1954 H 0.62299 0.05545 0.40022 0.0
H1955 H 0.64265 0.04219 0.41814 0.0
H1956 H 0.55789 0.02429 0.41277 0.0
H1957 H 0.60451 0.99254 0.45675 0.0
H1958 H 0.58706 0.01602 0.36307 0.0
H1959 H 0.59487 0.04275 0.37348 0.0
H1960 H 0.56645 0.03354 0.37607 0.0
H1961 H 0.64357 0.97706 0.41616 0.0
H1962 H 0.64047 0.98254 0.44549 0.0
H1963 H 0.65228 1.00323 0.42724 0.0
C1964 C 0.99061 0.6482 0.35517 0.0
C1965 C 0.01099 0.65834 0.34993 0.0
C1966 C 0.98935 0.63162 0.37154 0.0
C1967 C 0.00886 0.62529 0.38307 0.0
C1968 C 0.02952 0.6351 0.37756 0.0
C1969 C 0.03037 0.65133 0.36089 0.0
C1970 C 0.96708 0.62126 0.37689 0.0
C1971 C 0.05067 0.62881 0.38962 0.0
C1972 C 1.00427 0.59954 0.44039 0.0
C1973 C 0.00798 0.57699 0.4357 0.0
C1974 C 1.00409 0.61543 0.42334 0.0
C1975 C 1.00776 0.60857 0.40112 0.0
C1976 C 0.01127 0.58584 0.39623 0.0
C1977 C 0.01134 0.57032 0.41357 0.0
C1978 C 1.0003 0.63959 0.42914 0.0
C1979 C 0.01523 0.57795 0.3727 0.0
H1980 H 0.97552 0.65372 0.34701 0.0
H1981 H 0.04623 0.6588 0.35667 0.0
H1982 H 0.96814 0.60288 0.37556 0.0
H1983 H 0.96236 0.62521 0.39429 0.0
H1984 H 0.95368 0.62725 0.36566 0.0
H1985 H 0.06542 0.6379 0.38317 0.0
H1986 H 0.04892 0.63249 0.40762 0.0
H1987 H 0.05374 0.61069 0.38801 0.0
H1988 H 1.00148 0.60484 0.4574 0.0
H1989 H 0.01429 0.55295 0.40974 0.0
H1990 H 0.98597 0.64622 0.4196 0.0
H1991 H 0.01512 0.64954 0.42441 0.0
H1992 H 0.99703 0.64206 0.44716 0.0
H1993 H 1.00128 0.58321 0.36184 0.0
H1994 H 0.01695 0.55958 0.37164 0.0
H1995 H 0.03061 0.58567 0.36601 0.0
C1996 C 0.35582 0.98805 0.36998 0.0
C1997 C 0.35653 1.0023 0.35154 0.0
C1998 C 0.37269 0.98835 0.38598 0.0
C1999 C 0.39066 1.00332 0.38345 0.0
C2000 C 0.39195 0.01714 0.36442 0.0
C2001 C 0.37484 0.0164 0.34856 0.0
C2002 C 0.37092 0.97316 0.40594 0.0
C2003 C 0.41092 0.03333 0.3613 0.0
C2004 C 0.4196 0.01994 0.43687 0.0
C2005 C 0.43881 1.00687 0.43589 0.0
C2006 C 0.40405 0.01943 0.41952 0.0
C2007 C 0.40761 1.00501 0.40122 0.0
C2008 C 0.42691 0.99157 0.40034 0.0
C2009 C 0.44245 0.99289 0.41761 0.0
C2010 C 0.38381 0.03426 0.42079 0.0
C2011 C 0.43094 0.97555 0.38141 0.0
H2012 H 0.34174 0.97696 0.37212 0.0
H2013 H 0.37527 0.02752 0.33437 0.0
H2014 H 0.38638 0.96326 0.40781 0.0
H2015 H 0.36896 0.98324 0.42128 0.0
H2016 H 0.35657 0.96157 0.40469 0.0
H2017 H 0.40999 0.04216 0.34509 0.0
H2018 H 0.41067 0.04585 0.37486 0.0
H2019 H 0.42709 0.0245 0.3623 0.0
H2020 H 0.417 0.03089 0.45097 0.0
H2021 H 0.4573 0.98265 0.41703 0.0
H2022 H 0.36851 0.02395 0.42148 0.0
H2023 H 0.38271 0.04474 0.40564 0.0
H2024 H 0.38413 0.04531 0.43561 0.0
H2025 H 0.41721 0.96323 0.38061 0.0
H2026 H 0.44692 0.96644 0.38318 0.0
H2027 H 0.43108 0.98463 0.36535 0.0
C2028 C 0.02702 0.14982 0.35638 0.0
C2029 C 0.00816 0.16274 0.35145 0.0
C2030 C 0.02676 0.13392 0.37353 0.0
C2031 C 1.00722 0.13088 0.38635 0.0
C2032 C 0.98824 0.1441 0.38178 0.0
C2033 C 0.98892 0.15981 0.36441 0.0
C2034 C 0.04736 0.12017 0.37778 0.0
C2035 C 0.96707 0.14136 0.39503 0.0
C2036 C 1.00012 0.07528 0.41608 0.0
C2037 C 1.00637 0.08054 0.43797 0.0
C2038 C 1.00004 0.09152 0.39925 0.0
C2039 C 1.00658 0.1136 0.40427 0.0
C2040 C 0.01291 0.11904 0.42631 0.0
C2041 C 0.01261 0.10251 0.4429 0.0
C2042 C 0.99308 0.08498 0.37602 0.0
C2043 C 0.02024 0.1423 0.43234 0.0
H2044 H 0.04211 0.15213 0.34679 0.0
H2045 H 0.97414 0.16941 0.36063 0.0
H2046 H 0.05288 0.12229 0.39526 0.0
H2047 H 0.04356 0.10227 0.37538 0.0
H2048 H 0.06133 0.12477 0.36657 0.0
H2049 H 0.9539 0.15321 0.38975 0.0
H2050 H 0.96065 0.12416 0.39309 0.0
H2051 H 0.97048 0.14394 0.41298 0.0
H2052 H 0.99514 0.05842 0.41206 0.0
H2053 H 0.01766 0.10676 0.45967 0.0
H2054 H 1.0071 0.08761 0.36431 0.0
H2055 H 0.97913 0.09565 0.37036 0.0
H2056 H 0.98777 0.0673 0.37498 0.0
H2057 H 0.03502 0.14701 0.42233 0.0
H2058 H 0.0245 0.1439 0.45025 0.0
H2059 H 1.00684 0.15435 0.42835 0.0
C2060 C 0.88451 0.01905 0.34343 0.0
C2061 C 0.8627 0.01077 0.34494 0.0
C2062 C 0.89881 0.01911 0.36195 0.0
C2063 C 0.89121 0.01066 0.38259 0.0
C2064 C 0.86913 1.00259 0.38437 0.0
C2065 C 0.85515 1.00277 0.36557 0.0
C2066 C 0.92214 0.02808 0.35935 0.0
C2067 C 0.86041 0.99333 0.40602 0.0
C2068 C 0.9362 0.99072 0.42253 0.0
C2069 C 0.93725 0.0083 0.43775 0.0
C2070 C 0.92078 0.99095 0.40496 0.0
C2071 C 0.90664 0.00962 0.40208 0.0
C2072 C 0.90776 0.02748 0.41748 0.0
C2073 C 0.92283 0.02643 0.43537 0.0
C2074 C 0.9198 0.9713 0.38934 0.0
C2075 C 0.89351 0.04796 0.41469 0.0
H2076 H 0.89042 0.02564 0.32773 0.0
H2077 H 0.83844 0.99613 0.36693 0.0
H2078 H 0.92523 0.04138 0.37178 0.0
H2079 H 0.9344 0.01466 0.36252 0.0
H2080 H 0.9252 0.03494 0.34246 0.0
H2081 H 0.84269 0.98822 0.40486 0.0
H2082 H 0.87047 0.97868 0.41102 0.0
H2083 H 0.86205 1.00591 0.41942 0.0
H2084 H 0.94741 0.97671 0.42446 0.0
H2085 H 0.92392 0.04013 0.44705 0.0
H2086 H 0.92455 0.9766 0.37231 0.0
H2087 H 0.90254 0.96479 0.38846 0.0
H2088 H 0.93103 0.9576 0.39458 0.0
H2089 H 0.89742 0.05611 0.3986 0.0
H2090 H 0.8961 0.06022 0.42828 0.0
H2091 H 0.87566 0.04328 0.41426 0.0
C2092 C 0.02406 0.86276 0.35851 0.0
C2093 C 1.00473 0.86134 0.34547 0.0
C2094 C 0.02525 0.8772 0.3769 0.0
C2095 C 1.00661 0.89049 0.38253 0.0
C2096 C 0.98693 0.88888 0.36967 0.0
C2097 C 0.98625 0.87439 0.35131 0.0
C2098 C 0.04661 0.87858 0.39003 0.0
C2099 C 0.96665 0.90267 0.37514 0.0
C2100 C 1.00283 0.91612 0.44052 0.0
C2101 C 0.00933 0.93818 0.43645 0.0
C2102 C 1.00196 0.90037 0.42319 0.0
C2103 C 0.00796 0.90676 0.40129 0.0
C2104 C 0.01491 0.92888 0.39718 0.0
C2105 C 0.01542 0.94429 0.41473 0.0
C2106 C 0.9943 0.877 0.42824 0.0
C2107 C 0.02167 0.93637 0.37417 0.0
H2108 H 0.03851 0.85296 0.354 0.0
H2109 H 0.97114 0.87319 0.34155 0.0
H2110 H 0.05349 0.89568 0.389 0.0
H2111 H 0.04332 0.87507 0.40785 0.0
H2112 H 0.05939 0.86671 0.38392 0.0
H2113 H 0.95238 0.89889 0.36403 0.0
H2114 H 0.96149 0.8997 0.39261 0.0
H2115 H 0.97069 0.92062 0.37361 0.0
H2116 H 0.99798 0.91122 0.45718 0.0
H2117 H 0.02067 0.96121 0.41136 0.0
H2118 H 1.00732 0.86489 0.42331 0.0
H2119 H 0.97919 0.8731 0.41837 0.0
H2120 H 0.99043 0.87459 0.44615 0.0
H2121 H 0.03541 0.92578 0.36786 0.0
H2122 H 0.02721 0.95401 0.37384 0.0
H2123 H 1.00748 0.93445 0.36254 0.0
C2124 C 0.13862 0.98941 0.34777 0.0
C2125 C 0.15541 1.00548 0.34522 0.0
C2126 C 0.12418 0.98973 0.3662 0.0
C2127 C 0.12645 1.00657 0.38253 0.0
C2128 C 0.14354 0.02265 0.38025 0.0
C2129 C 0.15782 0.02188 0.36169 0.0
C2130 C 0.10631 0.97215 0.36804 0.0
C2131 C 0.14642 0.041 0.39715 0.0
C2132 C 0.07472 0.02028 0.41651 0.0
C2133 C 0.07909 0.00953 0.43675 0.0
C2134 C 0.09017 0.01983 0.39897 0.0
C2135 C 0.11034 1.00789 0.40147 0.0
C2136 C 0.11485 0.99698 0.4219 0.0
C2137 C 0.09929 0.99816 0.43939 0.0
C2138 C 0.08482 0.03204 0.37768 0.0
C2139 C 0.13592 0.9837 0.42513 0.0
H2140 H 0.13681 0.97646 0.33536 0.0
H2141 H 0.17055 0.03452 0.35979 0.0
H2142 H 0.1076 0.96349 0.38429 0.0
H2143 H 0.08965 0.98007 0.36737 0.0
H2144 H 0.10739 0.95959 0.35453 0.0
H2145 H 0.1609 0.05184 0.39336 0.0
H2146 H 0.1312 0.05144 0.39766 0.0
H2147 H 0.14867 0.03381 0.41399 0.0
H2148 H 0.05921 0.02925 0.41442 0.0
H2149 H 0.10266 0.98962 0.45491 0.0
H2150 H 0.08367 0.02005 0.36371 0.0
H2151 H 0.09836 0.04392 0.37363 0.0
H2152 H 0.0689 0.04138 0.37876 0.0
H2153 H 0.13679 0.9702 0.41256 0.0
H2154 H 0.13694 0.97615 0.44197 0.0
H2155 H 0.15066 0.99451 0.42257 0.0
C2156 C 0.0208 0.85269 0.65019 0.0
C2157 C 1.00538 0.85512 0.66758 0.0
C2158 C 0.02174 0.86809 0.63254 0.0
C2159 C 1.00686 0.8864 0.63215 0.0
C2160 C 0.991 0.88871 0.64942 0.0
C2161 C 0.99043 0.87309 0.66682 0.0
C2162 C 0.03892 0.86502 0.61448 0.0
C2163 C 0.97471 0.90785 0.64962 0.0
C2164 C 0.02134 0.93911 0.59986 0.0
C2165 C 0.00917 0.93626 0.58017 0.0
C2166 C 0.02121 0.92277 0.61661 0.0
C2167 C 0.00808 0.90335 0.61392 0.0
C2168 C 0.9957 0.90045 0.59406 0.0
C2169 C 0.99664 0.91679 0.57731 0.0
C2170 C 0.03512 0.92632 0.63721 0.0
C2171 C 0.98096 0.88039 0.59072 0.0
H2172 H 0.03259 0.83906 0.65067 0.0
H2173 H 0.97818 0.87498 0.67991 0.0
H2174 H 0.03066 0.86397 0.59802 0.0
H2175 H 0.05019 0.87965 0.61402 0.0
H2176 H 0.04908 0.84979 0.61698 0.0
H2177 H 0.96317 0.90711 0.66404 0.0
H2178 H 0.98385 0.92388 0.65024 0.0
H2179 H 0.96477 0.90782 0.63408 0.0
H2180 H 0.03121 0.95405 0.60204 0.0
H2181 H 0.98704 0.91462 0.5622 0.0
H2182 H 0.04678 0.91219 0.63942 0.0
H2183 H 0.02425 0.92686 0.65212 0.0
H2184 H 0.04489 0.94199 0.63647 0.0
H2185 H 0.99029 0.86484 0.59413 0.0
H2186 H 0.9741 0.87954 0.57359 0.0
H2187 H 0.96687 0.88107 0.60265 0.0
C2188 C 0.1427 0.0258 0.66813 0.0
C2189 C 0.16227 0.01302 0.66716 0.0
C2190 C 0.12705 0.0255 0.65075 0.0
C2191 C 0.13089 0.01206 0.63179 0.0
C2192 C 0.15077 0.99942 0.63047 0.0
C2193 C 0.16625 1.00012 0.64809 0.0
C2194 C 0.10624 0.03944 0.6528 0.0
C2195 C 0.15543 0.9847 0.61067 0.0
C2196 C 0.07936 0.99546 0.59853 0.0
C2197 C 0.08059 0.00979 0.58019 0.0
C2198 C 0.09596 0.99554 0.61504 0.0
C2199 C 0.11383 0.01091 0.61363 0.0
C2200 C 0.11497 0.02559 0.59519 0.0
C2201 C 0.09856 0.02457 0.5785 0.0
C2202 C 0.09429 0.97922 0.63405 0.0
C2203 C 0.13326 0.04271 0.59332 0.0
H2204 H 0.13959 0.03612 0.68258 0.0
H2205 H 0.18116 0.99003 0.64723 0.0
H2206 H 0.10459 0.05055 0.63816 0.0
H2207 H 0.09138 0.02851 0.6531 0.0
H2208 H 0.1062 0.04979 0.66811 0.0
H2209 H 0.1718 0.9762 0.61194 0.0
H2210 H 0.14221 0.97189 0.60919 0.0
H2211 H 0.15515 0.99467 0.59515 0.0
H2212 H 0.06556 0.98389 0.59977 0.0
H2213 H 0.09944 0.0358 0.56441 0.0
H2214 H 0.09102 0.98832 0.64976 0.0
H2215 H 0.11024 0.97016 0.63612 0.0
H2216 H 0.08076 0.96688 0.6315 0.0
H2217 H 0.13262 0.0541 0.60783 0.0
H2218 H 0.13191 0.05276 0.57787 0.0
H2219 H 0.14975 0.03444 0.59357 0.0
C2220 C 0.02163 0.13718 0.67203 0.0
C2221 C 1.00633 0.15479 0.67328 0.0
C2222 C 0.02211 0.12279 0.65361 0.0
C2223 C 1.00686 0.12594 0.63593 0.0
C2224 C 0.99155 0.14383 0.63692 0.0
C2225 C 0.9915 0.15806 0.65552 0.0
C2226 C 0.03884 0.10405 0.65316 0.0
C2227 C 0.97484 0.14762 0.61856 0.0
C2228 C 0.01921 0.09853 0.58 0.0
C2229 C 1.00696 0.07875 0.58166 0.0
C2230 C 0.01936 0.11407 0.59752 0.0
C2231 C 1.00644 0.11001 0.61685 0.0
C2232 C 0.99351 0.09034 0.61822 0.0
C2233 C 0.9942 0.07482 0.60078 0.0
C2234 C 0.03372 0.13458 0.59557 0.0
C2235 C 0.97909 0.08553 0.63823 0.0
H2236 H 0.03339 0.13471 0.68548 0.0
H2237 H 0.97945 0.17144 0.6564 0.0
H2238 H 0.03006 0.08782 0.65296 0.0
H2239 H 0.04899 0.10498 0.63776 0.0
H2240 H 0.05018 0.1044 0.66774 0.0
H2241 H 0.96446 0.16263 0.6215 0.0
H2242 H 0.98351 0.14951 0.60238 0.0
H2243 H 0.96372 0.13295 0.61713 0.0
H2244 H 0.02921 0.10152 0.56528 0.0
H2245 H 0.98453 0.05963 0.60201 0.0
H2246 H 0.04613 0.13483 0.60923 0.0
H2247 H 0.02337 0.14975 0.59732 0.0
H2248 H 0.0427 0.13535 0.57943 0.0
H2249 H 0.98975 0.08273 0.65302 0.0
H2250 H 0.96844 0.07063 0.63577 0.0
H2251 H 0.96822 0.09999 0.64192 0.0
C2252 C 0.85684 0.02716 0.65328 0.0
C2253 C 0.85524 0.00897 0.66788 0.0
C2254 C 0.8726 0.02746 0.63591 0.0
C2255 C 0.88717 0.00915 0.633 0.0
C2256 C 0.88548 0.99065 0.64748 0.0
C2257 C 0.86955 0.99075 0.66461 0.0
C2258 C 0.87388 0.04753 0.62087 0.0
C2259 C 0.90069 0.97079 0.64503 0.0
C2260 C 0.91573 1.00036 0.57696 0.0
C2261 C 0.93733 0.00818 0.58118 0.0
C2262 C 0.89926 1.00066 0.5936 0.0
C2263 C 0.90434 0.0093 0.61494 0.0
C2264 C 0.92604 0.01749 0.61921 0.0
C2265 C 0.94226 0.01672 0.60235 0.0
C2266 C 0.87647 0.99146 0.58843 0.0
C2267 C 0.93214 0.02713 0.64158 0.0
H2268 H 0.84613 0.04144 0.65576 0.0
H2269 H 0.86828 0.97643 0.67548 0.0
H2270 H 0.89062 0.05523 0.62211 0.0
H2271 H 0.87153 0.0424 0.6033 0.0
H2272 H 0.86118 0.06027 0.62507 0.0
H2273 H 0.89703 0.95757 0.65741 0.0
H2274 H 0.89907 0.96364 0.6281 0.0
H2275 H 0.91826 0.97607 0.64709 0.0
H2276 H 0.91176 0.99364 0.56071 0.0
H2277 H 0.95881 0.02306 0.60574 0.0
H2278 H 0.86363 1.0044 0.59132 0.0
H2279 H 0.87268 0.97738 0.59976 0.0
H2280 H 0.87508 0.98552 0.57099 0.0
H2281 H 0.92175 0.042 0.64499 0.0
H2282 H 0.94994 0.03203 0.6425 0.0
H2283 H 0.92871 0.01486 0.65494 0.0
C2284 C 0.34579 0.01594 0.13981 0.0
C2285 C 0.34925 1.00765 0.16139 0.0
C2286 C 0.36312 0.01665 0.1241 0.0
C2287 C 0.38452 0.00872 0.12993 0.0
C2288 C 0.38822 1.00054 0.15175 0.0
C2289 C 0.37061 1.00024 0.16724 0.0
C2290 C 0.35847 0.02585 0.10119 0.0
C2291 C 0.4107 0.99167 0.15857 0.0
C2292 C 0.42215 0.99155 0.08172 0.0
C2293 C 0.43678 0.00963 0.08036 0.0
C2294 C 0.4055 0.99073 0.09817 0.0
C2295 C 0.40291 0.00883 0.11309 0.0
C2296 C 0.41754 0.02729 0.11149 0.0
C2297 C 0.43459 0.02726 0.09542 0.0
C2298 C 0.3907 0.97048 0.09958 0.0
C2299 C 0.41493 0.04726 0.12649 0.0
H2300 H 0.32945 0.02202 0.13521 0.0
H2301 H 0.3734 0.99363 0.18378 0.0
H2302 H 0.37019 0.03961 0.0974 0.0
H2303 H 0.36114 0.01273 0.08849 0.0
H2304 H 0.34118 0.03217 0.09954 0.0
H2305 H 0.41092 0.98591 0.17613 0.0
H2306 H 0.41542 0.97755 0.14765 0.0
H2307 H 0.42357 1.00474 0.15648 0.0
H2308 H 0.42399 0.97786 0.07011 0.0
H2309 H 0.44587 0.04129 0.09422 0.0
H2310 H 0.3732 0.97523 0.09616 0.0
H2311 H 0.39123 0.96345 0.11664 0.0
H2312 H 0.39567 0.95731 0.08759 0.0
H2313 H 0.39783 0.05407 0.125 0.0
H2314 H 0.42698 0.06066 0.12245 0.0
H2315 H 0.41733 0.04226 0.14408 0.0
C2316 C 0.98675 0.35783 0.15337 0.0
C2317 C 1.00579 0.34462 0.15634 0.0
C2318 C 0.98695 0.37628 0.13897 0.0
C2319 C 1.00669 0.38175 0.1273 0.0
C2320 C 0.02608 0.36876 0.13056 0.0
C2321 C 0.02538 0.35037 0.14499 0.0
C2322 C 0.96589 0.38959 0.13583 0.0
C2323 C 0.04749 0.37409 0.11853 0.0
C2324 C 1.00224 0.41359 0.07282 0.0
C2325 C 0.008 0.43532 0.07923 0.0
C2326 C 1.00153 0.39614 0.08832 0.0
C2327 C 1.00681 0.40039 0.11087 0.0
C2328 C 0.01247 0.42228 0.11754 0.0
C2329 C 0.01293 0.4395 0.10167 0.0
C2330 C 0.99522 0.37311 0.0805 0.0
C2331 C 0.01822 0.42748 0.14142 0.0
H2332 H 0.97148 0.3534 0.16188 0.0
H2333 H 0.04026 0.34048 0.14743 0.0
H2334 H 0.96907 0.40744 0.13928 0.0
H2335 H 0.96028 0.38834 0.11829 0.0
H2336 H 0.9522 0.38378 0.14681 0.0
H2337 H 0.06133 0.3629 0.12352 0.0
H2338 H 0.04498 0.37254 0.10032 0.0
H2339 H 0.05249 0.39154 0.12191 0.0
H2340 H 0.99814 0.41012 0.05562 0.0
H2341 H 0.0174 0.45619 0.10684 0.0
H2342 H 0.98069 0.36693 0.09007 0.0
H2343 H 0.00917 0.36142 0.08353 0.0
H2344 H 0.991 0.37269 0.06251 0.0
H2345 H 1.00421 0.42273 0.15246 0.0
H2346 H 0.02198 0.4454 0.144 0.0
H2347 H 0.03289 0.41757 0.14661 0.0
C2348 C 0.66503 0.02852 0.14636 0.0
C2349 C 0.66796 0.01132 0.16196 0.0
C2350 C 0.64769 0.02794 0.13065 0.0
C2351 C 0.63261 0.00984 0.13053 0.0
C2352 C 0.6352 0.99258 0.14639 0.0
C2353 C 0.65281 0.9935 0.16185 0.0
C2354 C 0.64562 0.04669 0.11405 0.0
C2355 C 0.61958 0.97291 0.14676 0.0
C2356 C 0.57639 0.01804 0.10203 0.0
C2357 C 0.58013 0.00856 0.08102 0.0
C2358 C 0.59325 0.0185 0.11829 0.0
C2359 C 0.6143 0.00892 0.11365 0.0
C2360 C 0.61802 0.99894 0.09262 0.0
C2361 C 0.60101 0.99905 0.07655 0.0
C2362 C 0.58864 0.02956 0.14036 0.0
C2363 C 0.64008 0.98832 0.08697 0.0
H2364 H 0.67632 0.04258 0.14644 0.0
H2365 H 0.65501 0.97995 0.17352 0.0
H2366 H 0.64703 0.04007 0.09689 0.0
H2367 H 0.629 0.05459 0.11552 0.0
H2368 H 0.65857 0.05966 0.11642 0.0
H2369 H 0.62353 0.96106 0.16038 0.0
H2370 H 0.60217 0.9787 0.14885 0.0
H2371 H 0.62046 0.96392 0.13067 0.0
H2372 H 0.56039 0.02555 0.10564 0.0
H2373 H 0.60406 0.9915 0.06046 0.0
H2374 H 0.60036 0.0436 0.14288 0.0
H2375 H 0.5914 0.01758 0.15412 0.0
H2376 H 0.57136 0.03602 0.14151 0.0
H2377 H 0.65334 1.00117 0.08687 0.0
H2378 H 0.63985 0.98 0.07046 0.0
H2379 H 0.64461 0.97585 0.09979 0.0
C2380 C 0.02105 0.65037 0.16419 0.0
C2381 C 1.00417 0.66648 0.16284 0.0
C2382 C 0.02226 0.63272 0.14879 0.0
C2383 C 1.00621 0.63102 0.1316 0.0
C2384 C 0.98892 0.64698 0.13039 0.0
C2385 C 0.98808 0.66439 0.146 0.0
C2386 C 0.04101 0.61612 0.15063 0.0
C2387 C 0.97139 0.64581 0.11243 0.0
C2388 C 0.01986 0.59961 0.07815 0.0
C2389 C 0.00934 0.57907 0.08168 0.0
C2390 C 0.01939 0.61642 0.09442 0.0
C2391 C 1.00769 0.61286 0.11459 0.0
C2392 C 0.99696 0.59215 0.1182 0.0
C2393 C 0.99814 0.57543 0.10183 0.0
C2394 C 0.03136 0.63806 0.08996 0.0
C2395 C 0.98388 0.58779 0.13919 0.0
H2396 H 0.03371 0.65189 0.17692 0.0
H2397 H 0.97472 0.67645 0.14497 0.0
H2398 H 0.0342 0.59902 0.15211 0.0
H2399 H 0.05131 0.61659 0.13532 0.0
H2400 H 0.05191 0.61943 0.16518 0.0
H2401 H 0.95883 0.65927 0.11397 0.0
H2402 H 0.97934 0.64708 0.09582 0.0
H2403 H 0.96272 0.62953 0.11311 0.0
H2404 H 0.0287 0.60248 0.06268 0.0
H2405 H 0.98978 0.55968 0.10457 0.0
H2406 H 0.04374 0.64126 0.10327 0.0
H2407 H 0.01933 0.65206 0.09018 0.0
H2408 H 0.04009 0.63804 0.07367 0.0
H2409 H 0.99481 0.58971 0.15393 0.0
H2410 H 0.97646 0.57085 0.13946 0.0
H2411 H 0.97029 0.60018 0.1408 0.0
C2412 C 0.34215 1.00562 0.88549 0.0
C2413 C 0.34485 0.01043 0.86278 0.0
C2414 C 0.36044 1.0051 0.90009 0.0
C2415 C 0.3821 0.00946 0.89187 0.0
C2416 C 0.38503 0.01411 0.86895 0.0
C2417 C 0.36642 0.01454 0.85471 0.0
C2418 C 0.35655 0.99991 0.92435 0.0
C2419 C 0.40781 0.01894 0.85952 0.0
C2420 C 0.42502 0.02859 0.93449 0.0
C2421 C 0.43723 0.0091 0.93806 0.0
C2422 C 0.40748 0.02912 0.91902 0.0
C2423 C 0.4016 0.00946 0.90736 0.0
C2424 C 0.41396 0.98968 0.91104 0.0
C2425 C 0.43184 0.98983 0.92616 0.0
C2426 C 0.3951 0.05066 0.91535 0.0
C2427 C 0.40794 0.96823 0.89946 0.0
H2428 H 0.32569 1.00202 0.8919 0.0
H2429 H 0.36875 0.01852 0.83729 0.0
H2430 H 0.3666 0.98525 0.92935 0.0
H2431 H 0.36204 0.01412 0.93477 0.0
H2432 H 0.33877 0.99644 0.92805 0.0
H2433 H 0.40738 0.02193 0.84129 0.0
H2434 H 0.41497 0.03382 0.86779 0.0
H2435 H 0.41918 1.00481 0.8629 0.0
H2436 H 0.42925 0.04345 0.94381 0.0
H2437 H 0.4412 0.97471 0.92921 0.0
H2438 H 0.37749 0.04872 0.92053 0.0
H2439 H 0.39511 0.05497 0.89741 0.0
H2440 H 0.40251 0.0647 0.92482 0.0
H2441 H 0.39079 0.96323 0.90416 0.0
H2442 H 0.41948 0.95446 0.90376 0.0
H2443 H 0.40812 0.97062 0.88117 0.0
C2444 C 0.98679 0.35421 0.86983 0.0
C2445 C 1.00476 0.35004 0.85543 0.0
C2446 C 0.98748 0.37152 0.88555 0.0
C2447 C 1.00651 0.38534 0.8869 0.0
C2448 C 0.02457 0.38156 0.8722 0.0
C2449 C 0.0235 0.36399 0.8567 0.0
C2450 C 0.96787 0.37485 0.90092 0.0
C2451 C 0.04519 0.39588 0.8731 0.0
C2452 C 0.99999 0.4418 0.91541 0.0
C2453 C 1.00786 0.43733 0.93693 0.0
C2454 C 0.9996 0.42512 0.89895 0.0
C2455 C 1.00757 0.40349 0.90396 0.0
C2456 C 0.01591 0.39901 0.92555 0.0
C2457 C 0.01582 0.41589 0.94176 0.0
C2458 C 0.99032 0.43057 0.87627 0.0
C2459 C 0.0248 0.37631 0.93161 0.0
H2460 H 0.97204 0.34389 0.86882 0.0
H2461 H 0.03762 0.36084 0.84594 0.0
H2462 H 0.97325 0.37292 0.91846 0.0
H2463 H 0.96126 0.39199 0.89908 0.0
H2464 H 0.95421 0.36285 0.89762 0.0
H2465 H 0.05755 0.39121 0.86018 0.0
H2466 H 0.04067 0.41363 0.87082 0.0
H2467 H 0.05313 0.39435 0.88968 0.0
H2468 H 0.9937 0.45825 0.91153 0.0
H2469 H 0.02217 0.41229 0.95824 0.0
H2470 H 0.97581 0.41974 0.87268 0.0
H2471 H 1.00302 0.4272 0.8633 0.0
H2472 H 0.98499 0.44821 0.87492 0.0
H2473 H 0.03102 0.37561 0.949 0.0
H2474 H 0.03859 0.37171 0.92024 0.0
H2475 H 0.01154 0.36362 0.92959 0.0
C2476 C 0.67167 0.02543 0.88183 0.0
C2477 C 0.67217 0.01237 0.86246 0.0
C2478 C 0.65335 0.02488 0.89638 0.0
C2479 C 0.635 0.01088 0.89157 0.0
C2480 C 0.63522 0.99791 0.87189 0.0
C2481 C 0.65374 0.99885 0.85757 0.0
C2482 C 0.6537 0.03919 0.91703 0.0
C2483 C 0.61611 0.98261 0.86624 0.0
C2484 C 0.59942 0.9935 0.94107 0.0
C2485 C 0.58075 1.00725 0.93872 0.0
C2486 C 0.61683 0.99403 0.92546 0.0
C2487 C 0.61596 0.0093 0.90751 0.0
C2488 C 0.59714 0.02334 0.90517 0.0
C2489 C 0.57957 0.02185 0.92059 0.0
C2490 C 0.63627 0.97838 0.92833 0.0
C2491 C 0.59578 0.04025 0.88666 0.0
H2492 H 0.68562 0.03621 0.8856 0.0
H2493 H 0.65403 0.98851 0.8428 0.0
H2494 H 0.6387 0.04994 0.91754 0.0
H2495 H 0.65329 0.0285 0.93205 0.0
H2496 H 0.66873 0.04993 0.91787 0.0
H2497 H 0.61858 0.97398 0.85008 0.0
H2498 H 0.61416 0.96991 0.87949 0.0
H2499 H 0.60035 0.99217 0.86548 0.0
H2500 H 0.60029 0.98213 0.95505 0.0
H2501 H 0.56523 0.03266 0.91891 0.0
H2502 H 0.65149 0.98804 0.93228 0.0
H2503 H 0.63947 0.96921 0.91264 0.0
H2504 H 0.63341 0.96612 0.94186 0.0
H2505 H 0.61062 0.05124 0.88701 0.0
H2506 H 0.58063 0.05076 0.8879 0.0
H2507 H 0.5957 0.03167 0.87034 0.0
C2508 C 0.98902 0.65905 0.86446 0.0
C2509 C 0.00839 0.67186 0.86184 0.0
C2510 C 0.98851 0.64066 0.87896 0.0
C2511 C 1.00785 0.63485 0.8911 0.0
C2512 C 0.02756 0.64745 0.88821 0.0
C2513 C 0.02759 0.66576 0.87366 0.0
C2514 C 0.96712 0.62775 0.88165 0.0
C2515 C 0.04858 0.64176 0.90074 0.0
C2516 C 1.00192 0.60311 0.94557 0.0
C2517 C 1.00746 0.5813 0.93926 0.0
C2518 C 1.00166 0.62054 0.93001 0.0
C2519 C 1.00727 0.6162 0.90755 0.0
C2520 C 0.01274 0.59421 0.90101 0.0
C2521 C 0.01266 0.57701 0.9169 0.0
C2522 C 0.99555 0.64367 0.93771 0.0
C2523 C 0.01893 0.5889 0.87726 0.0
H2524 H 0.97404 0.66373 0.8556 0.0
H2525 H 0.04273 0.67531 0.87149 0.0
H2526 H 0.97004 0.60985 0.87823 0.0
H2527 H 0.96118 0.62909 0.89907 0.0
H2528 H 0.95379 0.63384 0.8704 0.0
H2529 H 0.06272 0.65272 0.89608 0.0
H2530 H 0.04565 0.64334 0.91889 0.0
H2531 H 0.05336 0.62424 0.89746 0.0
H2532 H 0.99764 0.60662 0.96273 0.0
H2533 H 0.01705 0.56027 0.91185 0.0
H2534 H 0.9814 0.65011 0.92778 0.0
H2535 H 0.00979 0.65511 0.93505 0.0
H2536 H 0.99088 0.64413 0.95559 0.0
H2537 H 1.00513 0.59364 0.86596 0.0
H2538 H 0.02269 0.57097 0.87482 0.0
H2539 H 0.03372 0.59876 0.87227 0.0
C2540 C 0.15741 0.36057 0.99513 0.0
C2541 C 0.15521 0.34405 0.01151 0.0
C2542 C 0.14298 0.37899 0.99449 0.0
C2543 C 0.12597 0.38108 0.01067 0.0
C2544 C 0.12391 0.36469 0.02749 0.0
C2545 C 0.13849 0.3464 0.02767 0.0
C2546 C 0.14564 0.39599 0.9762 0.0
C2547 C 0.10614 0.36637 0.04517 0.0
C2548 C 0.09882 0.43779 0.01951 0.0
C2549 C 0.07859 0.43518 1.00819 0.0
C2550 C 0.11437 0.42031 0.02056 0.0
C2551 C 0.10981 0.39994 0.00957 0.0
C2552 C 0.08958 0.39744 0.99773 0.0
C2553 C 0.07413 0.41498 0.9974 0.0
C2554 C 0.1355 0.42353 0.03374 0.0
C2555 C 0.08419 0.37621 0.98543 0.0
H2556 H 0.17008 0.35881 0.98243 0.0
H2557 H 0.13686 0.33393 0.04059 0.0
H2558 H 0.13034 0.39649 0.96588 0.0
H2559 H 0.14789 0.41282 0.98344 0.0
H2560 H 0.16005 0.39231 0.96522 0.0
H2561 H 0.10731 0.35275 0.05762 0.0
H2562 H 0.10746 0.38255 0.05395 0.0
H2563 H 0.08944 0.36573 0.03735 0.0
H2564 H 0.10223 0.4533 0.02806 0.0
H2565 H 0.05859 0.41294 0.98847 0.0
H2566 H 0.15018 0.42129 0.02277 0.0
H2567 H 0.1366 0.41075 0.04701 0.0
H2568 H 0.13644 0.44026 0.04154 0.0
H2569 H 0.09748 0.3725 0.97316 0.0
H2570 H 0.06802 0.37715 0.97653 0.0
H2571 H 0.08356 0.36207 0.99727 0.0
C2572 C 0.14379 0.66667 0.99456 0.0
C2573 C 0.16243 0.6664 0.00868 0.0
C2574 C 0.12824 0.64919 0.99452 0.0
C2575 C 0.13128 0.6308 0.00893 0.0
C2576 C 0.15023 0.63019 0.02296 0.0
C2577 C 0.16559 0.64793 0.02263 0.0
C2578 C 0.1084 0.65051 0.97916 0.0
C2579 C 0.154 0.61102 0.03873 0.0
C2580 C 0.07914 0.59747 0.02317 0.0
C2581 C 0.08142 0.57872 0.00947 0.0
C2582 C 0.09554 0.61417 0.02365 0.0
C2583 C 0.11438 0.61248 0.00955 0.0
C2584 C 0.11668 0.5936 0.99558 0.0
C2585 C 0.10035 0.57679 0.99598 0.0
C2586 C 0.09256 0.63372 0.03914 0.0
C2587 C 0.13614 0.59139 0.97986 0.0
H2588 H 0.14133 0.68065 0.98344 0.0
H2589 H 0.17976 0.64762 0.03377 0.0
H2590 H 0.10768 0.6355 0.96844 0.0
H2591 H 0.09283 0.65092 0.98906 0.0
H2592 H 0.10887 0.6655 0.96836 0.0
H2593 H 0.16971 0.6128 0.0483 0.0
H2594 H 0.13992 0.60986 0.05062 0.0
H2595 H 0.15456 0.59513 0.02936 0.0
H2596 H 0.06461 0.59894 0.03377 0.0
H2597 H 0.10208 0.5624 0.98523 0.0
H2598 H 0.09003 0.64912 0.02931 0.0
H2599 H 0.10775 0.63614 0.04935 0.0
H2600 H 0.0781 0.63154 0.05046 0.0
H2601 H 0.13634 0.60565 0.96814 0.0
H2602 H 0.13552 0.57572 0.97008 0.0
H2603 H 0.15199 0.59186 0.9893 0.0
C2604 C 0.35052 0.14322 0.02472 0.0
C2605 C 0.35042 0.16195 0.01072 0.0
C2606 C 0.36801 0.1277 0.02421 0.0
C2607 C 0.38604 0.13088 0.00938 0.0
C2608 C 0.38626 0.14989 0.99541 0.0
C2609 C 0.36852 0.1652 0.99628 0.0
C2610 C 0.36711 0.10777 0.03949 0.0
C2611 C 0.40505 0.1538 0.97921 0.0
C2612 C 0.44046 0.10032 0.02127 0.0
C2613 C 0.43835 0.08137 1.00784 0.0
C2614 C 0.42358 0.11655 0.02196 0.0
C2615 C 0.40446 0.11413 0.00834 0.0
C2616 C 0.40263 0.0953 0.99425 0.0
C2617 C 0.4194 0.07898 0.99447 0.0
C2618 C 0.42597 0.136 0.03765 0.0
C2619 C 0.38284 0.09222 0.9791 0.0
H2620 H 0.33685 0.14068 0.0362 0.0
H2621 H 0.36853 0.17943 0.98521 0.0
H2622 H 0.3668 0.09223 0.02953 0.0
H2623 H 0.38224 0.10721 0.05004 0.0
H2624 H 0.35223 0.10799 0.05047 0.0
H2625 H 0.40294 0.16949 0.96968 0.0
H2626 H 0.42114 0.15449 0.98822 0.0
H2627 H 0.40606 0.13973 0.96731 0.0
H2628 H 0.45502 0.10208 0.03178 0.0
H2629 H 0.41782 0.06441 0.98394 0.0
H2630 H 0.41198 0.13604 0.0497 0.0
H2631 H 0.42513 0.15186 0.02826 0.0
H2632 H 0.44187 0.13552 0.04706 0.0
H2633 H 0.36761 0.0896 0.98919 0.0
H2634 H 0.3849 0.07777 0.96774 0.0
H2635 H 0.38017 0.10739 0.96893 0.0
C2636 C 0.85147 0.36966 0.02398 0.0
C2637 C 0.85561 0.35001 0.01207 0.0
C2638 C 0.86695 0.38729 0.02402 0.0
C2639 C 0.88693 0.3854 0.0116 0.0
C2640 C 0.89097 0.36577 0.99921 0.0
C2641 C 0.87536 0.34835 0.99966 0.0
C2642 C 0.86214 0.40778 0.03772 0.0
C2643 C 0.91187 0.36311 0.98549 0.0
C2644 C 0.91842 0.4384 0.99615 0.0
C2645 C 0.93645 0.43771 0.01088 0.0
C2646 C 0.90228 0.42142 0.99607 0.0
C2647 C 0.90375 0.40379 0.0117 0.0
C2648 C 0.92169 0.40343 0.02702 0.0
C2649 C 0.93803 0.42016 0.02614 0.0
C2650 C 0.88395 0.42205 0.97892 0.0
C2651 C 0.92365 0.38536 0.04435 0.0
H2652 H 0.83639 0.37101 0.03378 0.0
H2653 H 0.87859 0.33337 0.99016 0.0
H2654 H 0.87551 0.41022 0.05021 0.0
H2655 H 0.86198 0.42272 0.0269 0.0
H2656 H 0.84592 0.40668 0.04652 0.0
H2657 H 0.91212 0.3472 0.97609 0.0
H2658 H 0.9134 0.37708 0.97352 0.0
H2659 H 0.9267 0.36366 0.99645 0.0
H2660 H 0.91734 0.45188 0.98421 0.0
H2661 H 0.95193 0.41972 0.03764 0.0
H2662 H 0.86749 0.42233 0.98724 0.0
H2663 H 0.88459 0.40679 0.96855 0.0
H2664 H 0.88524 0.43678 0.96783 0.0
H2665 H 0.90813 0.38447 0.05432 0.0
H2666 H 0.9379 0.38814 0.0558 0.0
H2667 H 0.92584 0.36898 0.03614 0.0
C2668 C 0.65002 0.85316 0.99745 0.0
C2669 C 0.66666 0.85487 0.01376 0.0
C2670 C 0.63232 0.86852 0.9965 0.0
C2671 C 0.63111 0.88602 0.01227 0.0
C2672 C 0.64766 0.88764 0.02896 0.0
C2673 C 0.66513 0.87209 0.02952 0.0
C2674 C 0.61513 0.86629 0.97834 0.0
C2675 C 0.64705 0.90597 0.04614 0.0
C2676 C 0.59906 0.93919 0.99912 0.0
C2677 C 0.57894 0.93576 0.01048 0.0
C2678 C 0.61591 0.92295 0.99912 0.0
C2679 C 0.61282 0.90291 0.01116 0.0
C2680 C 0.59252 0.89937 0.02267 0.0
C2681 C 0.57573 0.9157 0.02196 0.0
C2682 C 0.63707 0.9273 0.98628 0.0
C2683 C 0.58873 0.87852 0.03613 0.0
H2684 H 0.65113 0.84013 0.98504 0.0
H2685 H 0.67765 0.87342 0.04242 0.0
H2686 H 0.59827 0.86489 0.98571 0.0
H2687 H 0.61523 0.88142 0.96777 0.0
H2688 H 0.61814 0.85155 0.96761 0.0
H2689 H 0.66093 0.9047 0.05826 0.0
H2690 H 0.64803 0.92242 0.03782 0.0
H2691 H 0.63106 0.90544 0.05536 0.0
H2692 H 0.60158 0.95455 0.99001 0.0
H2693 H 0.5603 0.91302 0.03092 0.0
H2694 H 0.63943 0.91418 0.97351 0.0
H2695 H 0.65162 0.92661 0.9976 0.0
H2696 H 0.63693 0.94376 0.97789 0.0
H2697 H 0.59049 0.86364 0.02537 0.0
H2698 H 0.57201 0.87819 0.04402 0.0
H2699 H 0.60152 0.87724 0.04938 0.0
C2700 C 0.8745 0.66647 0.03216 0.0
C2701 C 0.86128 0.67187 0.01368 0.0
C2702 C 0.88917 0.64826 0.03168 0.0
C2703 C 0.89079 0.63507 0.01222 0.0
C2704 C 0.87729 0.64022 0.9936 0.0
C2705 C 0.86268 0.6585 0.99457 0.0
C2706 C 0.90314 0.64327 0.05195 0.0
C2707 C 0.87862 0.62669 0.97249 0.0
C2708 C 0.9448 0.60305 1.00388 0.0
C2709 C 0.93884 0.58143 0.01048 0.0
C2710 C 0.92926 0.62049 1.00401 0.0
C2711 C 0.90717 0.61639 0.01113 0.0
C2712 C 0.90096 0.59459 0.01764 0.0
C2713 C 0.91681 0.57736 0.01711 0.0
C2714 C 0.93656 0.64339 0.99667 0.0
C2715 C 0.87763 0.58953 0.02547 0.0
H2716 H 0.87331 0.67648 0.04711 0.0
H2717 H 0.85273 0.66265 0.98013 0.0
H2718 H 0.90033 0.62588 0.05744 0.0
H2719 H 0.92105 0.64487 0.04776 0.0
H2720 H 0.89937 0.65462 0.06604 0.0
H2721 H 0.86663 0.63249 0.95968 0.0
H2722 H 0.89567 0.62769 0.96548 0.0
H2723 H 0.87524 0.60892 0.97612 0.0
H2724 H 0.96168 0.60639 0.99846 0.0
H2725 H 0.91202 0.56076 0.02229 0.0
H2726 H 0.935 0.65525 0.01072 0.0
H2727 H 0.92562 0.64948 0.98311 0.0
H2728 H 0.95405 0.64362 0.99068 0.0
H2729 H 0.87372 0.59964 0.04041 0.0
H2730 H 0.87534 0.57167 0.02965 0.0
H2731 H 0.86544 0.59415 0.01241 0.0
C2732 C 0.35935 0.86142 0.99382 0.0
C2733 C 0.34411 0.86214 0.01153 0.0
C2734 C 0.37779 0.87585 0.99308 0.0
C2735 C 0.38117 0.89137 0.01049 0.0
C2736 C 0.36605 0.89196 0.02856 0.0
C2737 C 0.34775 0.87739 0.02885 0.0
C2738 C 0.39341 0.8748 0.97343 0.0
C2739 C 0.3691 0.90815 0.04753 0.0
C2740 C 0.43838 0.91773 0.01849 0.0
C2741 C 0.43524 0.93893 0.00922 0.0
C2742 C 0.42101 0.90203 0.01891 0.0
C2743 C 0.40008 0.9075 0.00953 0.0
C2744 C 0.39699 0.9287 0.99971 0.0
C2745 C 0.41451 0.94417 0.99982 0.0
C2746 C 0.42494 0.87971 0.02973 0.0
C2747 C 0.37508 0.93514 0.98923 0.0
H2748 H 0.35659 0.84989 0.98024 0.0
H2749 H 0.33629 0.87787 0.04277 0.0
H2750 H 0.39334 0.89096 0.96452 0.0
H2751 H 0.41068 0.87184 0.97922 0.0
H2752 H 0.3888 0.86145 0.96151 0.0
H2753 H 0.3563 0.90604 0.0607 0.0
H2754 H 0.38579 0.90595 0.0551 0.0
H2755 H 0.36821 0.92546 0.0412 0.0
H2756 H 0.45429 0.91357 0.02589 0.0
H2757 H 0.41198 0.9604 0.99238 0.0
H2758 H 0.42169 0.86616 0.01764 0.0
H2759 H 0.41319 0.87743 0.04379 0.0
H2760 H 0.4422 0.87795 0.03611 0.0
H2761 H 0.37043 0.92286 0.97626 0.0
H2762 H 0.37564 0.95194 0.98154 0.0
H2763 H 0.36174 0.93495 1.00199 0.0
C2764 C 0.67134 0.13803 0.99439 0.0
C2765 C 0.67311 0.15486 0.01051 0.0
C2766 C 0.65313 0.12335 0.99411 0.0
C2767 C 0.63618 0.12544 0.01036 0.0
C2768 C 0.63773 0.14248 0.02656 0.0
C2769 C 0.65612 0.157 0.02642 0.0
C2770 C 0.65209 0.1055 0.97646 0.0
C2771 C 0.62013 0.14514 0.0443 0.0
C2772 C 0.57991 0.09848 0.99855 0.0
C2773 C 0.58197 0.07807 0.00966 0.0
C2774 C 0.59738 0.1141 0.99868 0.0
C2775 C 0.61716 0.10941 0.01064 0.0
C2776 C 0.61903 0.08907 0.02238 0.0
C2777 C 0.60155 0.07357 0.02154 0.0
C2778 C 0.59483 0.13542 0.98567 0.0
C2779 C 0.6396 0.08356 0.03572 0.0
H2780 H 0.68416 0.13643 0.98182 0.0
H2781 H 0.65742 0.16975 0.03909 0.0
H2782 H 0.65209 0.08883 0.98438 0.0
H2783 H 0.63638 0.10701 0.96689 0.0
H2784 H 0.66632 0.10641 0.96469 0.0
H2785 H 0.62353 0.15947 0.05546 0.0
H2786 H 0.60358 0.14753 0.0365 0.0
H2787 H 0.61918 0.12979 0.05451 0.0
H2788 H 0.56486 0.10202 0.98927 0.0
H2789 H 0.60314 0.05795 0.03042 0.0
H2790 H 0.608 0.13648 0.97278 0.0
H2791 H 0.59694 0.14995 0.99685 0.0
H2792 H 0.57835 0.13666 0.9774 0.0
H2793 H 0.65418 0.08226 0.02447 0.0
H2794 H 0.63789 0.06766 0.045 0.0
H2795 H 0.64316 0.09708 0.04777 0.0
C2796 C 0.5186 0.66521 0.86847 0.0
C2797 C 0.50431 0.66185 0.85029 0.0
C2798 C 0.51955 0.64983 0.88617 0.0
C2799 C 0.50579 0.63066 0.88584 0.0
C2800 C 0.49109 0.62738 0.86773 0.0
C2801 C 0.49053 0.64295 0.85027 0.0
C2802 C 0.53561 0.65388 0.90503 0.0
C2803 C 0.47598 0.60732 0.86673 0.0
C2804 C 0.52112 0.57886 0.91929 0.0
C2805 C 0.50765 0.58107 0.93822 0.0
C2806 C 0.52117 0.59515 0.90248 0.0
C2807 C 0.50689 0.61385 0.90426 0.0
C2808 C 0.49317 0.61609 0.92333 0.0
C2809 C 0.49398 0.59986 0.94023 0.0
C2810 C 0.53645 0.59227 0.88274 0.0
C2811 C 0.47726 0.63537 0.92567 0.0
H2812 H 0.52949 0.67958 0.86859 0.0
H2813 H 0.47915 0.64032 0.83653 0.0
H2814 H 0.52649 0.6545 0.92106 0.0
H2815 H 0.54762 0.6399 0.90612 0.0
H2816 H 0.54504 0.66964 0.90297 0.0
H2817 H 0.46523 0.60735 0.8517 0.0
H2818 H 0.48604 0.59185 0.86669 0.0
H2819 H 0.46519 0.6068 0.8817 0.0
H2820 H 0.53187 0.56445 0.91775 0.0
H2821 H 0.48339 0.60154 0.95474 0.0
H2822 H 0.54711 0.60721 0.88078 0.0
H2823 H 0.52648 0.59057 0.86731 0.0
H2824 H 0.54732 0.57742 0.88439 0.0
H2825 H 0.4865 0.65133 0.92494 0.0
H2826 H 0.46774 0.63475 0.94151 0.0
H2827 H 0.46529 0.63533 0.91162 0.0
C2828 C 0.37511 0.52953 0.84993 0.0
C2829 C 0.36149 0.51118 0.84509 0.0
C2830 C 0.38964 0.52933 0.86826 0.0
C2831 C 0.39072 0.51027 0.88207 0.0
C2832 C 0.3768 0.49181 0.87748 0.0
C2833 C 0.36233 0.49251 0.85911 0.0
C2834 C 0.40407 0.54943 0.87266 0.0
C2835 C 0.37756 0.47111 0.89168 0.0
C2836 C 0.44439 0.50101 0.91431 0.0
C2837 C 0.43853 0.50803 0.93579 0.0
C2838 C 0.42893 0.50139 0.89682 0.0
C2839 C 0.40708 0.50929 0.90075 0.0
C2840 C 0.40101 0.51638 0.92241 0.0
C2841 C 0.41676 0.5155 0.93971 0.0
C2842 C 0.43605 0.49342 0.87408 0.0
C2843 C 0.37799 0.52517 0.92724 0.0
H2844 H 0.37435 0.54414 0.8394 0.0
H2845 H 0.35206 0.47816 0.85538 0.0
H2846 H 0.40147 0.55543 0.88992 0.0
H2847 H 0.42188 0.54481 0.8711 0.0
H2848 H 0.40055 0.5633 0.86098 0.0
H2849 H 0.36522 0.45844 0.88631 0.0
H2850 H 0.39442 0.46362 0.89088 0.0
H2851 H 0.37432 0.4754 0.90933 0.0
H2852 H 0.46111 0.49501 0.91116 0.0
H2853 H 0.41213 0.52113 0.95621 0.0
H2854 H 0.4348 0.50724 0.86193 0.0
H2855 H 0.4248 0.47997 0.86829 0.0
H2856 H 0.45341 0.48704 0.87397 0.0
H2857 H 0.37456 0.53989 0.91665 0.0
H2858 H 0.37589 0.53003 0.94495 0.0
H2859 H 0.36535 0.51237 0.92309 0.0
C2860 C 0.48764 0.36502 0.8577 0.0
C2861 C 0.50714 0.36089 0.84549 0.0
C2862 C 0.48766 0.37957 0.87604 0.0
C2863 C 0.50769 0.39024 0.88246 0.0
C2864 C 0.5275 0.38582 0.87048 0.0
C2865 C 0.52698 0.37127 0.85217 0.0
C2866 C 0.46614 0.38394 0.88824 0.0
C2867 C 0.54923 0.39674 0.87682 0.0
C2868 C 0.50469 0.44511 0.91394 0.0
C2869 C 0.50903 0.43853 0.93596 0.0
C2870 C 0.50397 0.42956 0.89652 0.0
C2871 C 0.50777 0.40676 0.90105 0.0
C2872 C 0.51199 0.39992 0.92321 0.0
C2873 C 0.51251 0.41585 0.9404 0.0
C2874 C 0.49924 0.43761 0.8732 0.0
C2875 C 0.51612 0.37578 0.92875 0.0
H2876 H 0.47218 0.35729 0.85255 0.0
H2877 H 0.5422 0.36794 0.84309 0.0
H2878 H 0.46821 0.3804 0.90623 0.0
H2879 H 0.46158 0.40175 0.88667 0.0
H2880 H 0.45219 0.37369 0.88177 0.0
H2881 H 0.56331 0.39099 0.86632 0.0
H2882 H 0.54775 0.41506 0.87514 0.0
H2883 H 0.55318 0.39316 0.89448 0.0
H2884 H 0.50174 0.4625 0.91022 0.0
H2885 H 0.51584 0.41051 0.95728 0.0
H2886 H 0.48457 0.42876 0.86631 0.0
H2887 H 0.5136 0.43381 0.86223 0.0
H2888 H 0.49598 0.45579 0.87254 0.0
H2889 H 0.50173 0.36553 0.92341 0.0
H2890 H 0.5189 0.3731 0.94682 0.0
H2891 H 0.5309 0.36969 0.91953 0.0
C2892 C 0.66433 0.51583 0.86794 0.0
C2893 C 0.65706 0.50846 0.847 0.0
C2894 C 0.64986 0.51613 0.88638 0.0
C2895 C 0.62759 0.50877 0.88392 0.0
C2896 C 0.62029 0.50092 0.86295 0.0
C2897 C 0.63505 0.50089 0.8448 0.0
C2898 C 0.65827 0.52476 0.90841 0.0
C2899 C 0.59679 0.49263 0.85962 0.0
C2900 C 0.59453 0.49209 0.93553 0.0
C2901 C 0.58043 0.51043 0.93822 0.0
C2902 C 0.60994 0.49128 0.91791 0.0
C2903 C 0.61176 0.50959 0.90313 0.0
C2904 C 0.5979 0.52842 0.90628 0.0
C2905 C 0.58212 0.52843 0.92356 0.0
C2906 C 0.62386 0.47062 0.91477 0.0
C2907 C 0.59953 0.54847 0.89125 0.0
H2908 H 0.68121 0.5219 0.8698 0.0
H2909 H 0.62935 0.49478 0.82883 0.0
H2910 H 0.6483 0.53941 0.91359 0.0
H2911 H 0.65621 0.51187 0.92145 0.0
H2912 H 0.67608 0.52965 0.90769 0.0
H2913 H 0.59393 0.48633 0.84249 0.0
H2914 H 0.59311 0.47906 0.87159 0.0
H2915 H 0.5848 0.50626 0.86294 0.0
H2916 H 0.59295 0.47807 0.94676 0.0
H2917 H 0.57113 0.54258 0.92571 0.0
H2918 H 0.64177 0.47483 0.91613 0.0
H2919 H 0.62113 0.46369 0.89788 0.0
H2920 H 0.61987 0.45755 0.92719 0.0
H2921 H 0.61699 0.55443 0.89047 0.0
H2922 H 0.58877 0.56239 0.89696 0.0
H2923 H 0.59452 0.54384 0.87411 0.0
C2924 C 0.52456 0.35767 0.15443 0.0
C2925 C 0.50456 0.35364 0.16586 0.0
C2926 C 0.52573 0.3735 0.13719 0.0
C2927 C 0.50649 0.38576 0.13125 0.0
C2928 C 0.48623 0.38164 0.14254 0.0
C2929 C 0.48548 0.3656 0.15955 0.0
C2930 C 0.54767 0.37739 0.12558 0.0
C2931 C 0.46533 0.39436 0.13681 0.0
C2932 C 0.51312 0.4418 0.10228 0.0
C2933 C 0.50871 0.4364 0.07998 0.0
C2934 C 0.51271 0.42548 0.11904 0.0
C2935 C 0.5076 0.40315 0.11348 0.0
C2936 C 0.50316 0.39756 0.09102 0.0
C2937 C 0.50386 0.41419 0.07455 0.0
C2938 C 0.5176 0.4322 0.14274 0.0
C2939 C 0.49746 0.37401 0.08439 0.0
H2940 H 0.5395 0.34884 0.1593 0.0
H2941 H 0.46984 0.36243 0.16795 0.0
H2942 H 0.54573 0.37488 0.1074 0.0
H2943 H 0.55311 0.39485 0.12814 0.0
H2944 H 0.56096 0.36611 0.13172 0.0
H2945 H 0.45088 0.38916 0.1471 0.0
H2946 H 0.46811 0.41244 0.13929 0.0
H2947 H 0.46112 0.39187 0.11902 0.0
H2948 H 0.51702 0.45884 0.10671 0.0
H2949 H 0.50027 0.4098 0.05745 0.0
H2950 H 0.53173 0.42232 0.14931 0.0
H2951 H 0.50297 0.42861 0.15341 0.0
H2952 H 0.52175 0.45015 0.14425 0.0
H2953 H 0.5111 0.36261 0.08934 0.0
H2954 H 0.49463 0.37232 0.06621 0.0
H2955 H 0.48222 0.36851 0.09324 0.0
C2956 C 0.63818 0.49435 0.17073 0.0
C2957 C 0.65416 0.51118 0.17349 0.0
C2958 C 0.62371 0.49423 0.15236 0.0
C2959 C 0.62514 0.51139 0.13627 0.0
C2960 C 0.64137 0.5283 0.13879 0.0
C2961 C 0.6557 0.52797 0.15731 0.0
C2962 C 0.60678 0.47578 0.15025 0.0
C2963 C 0.6433 0.54701 0.12214 0.0
C2964 C 0.59896 0.50142 0.07929 0.0
C2965 C 0.57805 0.51146 0.08185 0.0
C2966 C 0.61449 0.5013 0.09682 0.0
C2967 C 0.60918 0.51193 0.1172 0.0
C2968 C 0.58831 0.52262 0.1196 0.0
C2969 C 0.57293 0.52202 0.10202 0.0
C2970 C 0.63638 0.48939 0.0937 0.0
C2971 C 0.5821 0.53453 0.14083 0.0
H2972 H 0.63707 0.4811 0.18291 0.0
H2973 H 0.6678 0.54118 0.15938 0.0
H2974 H 0.58973 0.48284 0.1506 0.0
H2975 H 0.60881 0.46717 0.13405 0.0
H2976 H 0.60824 0.4633 0.1638 0.0
H2977 H 0.6571 0.55862 0.12619 0.0
H2978 H 0.6461 0.54017 0.10524 0.0
H2979 H 0.62751 0.55656 0.12163 0.0
H2980 H 0.60294 0.49309 0.0638 0.0
H2981 H 0.55689 0.53002 0.10401 0.0
H2982 H 0.63796 0.47587 0.10616 0.0
H2983 H 0.65039 0.50108 0.09649 0.0
H2984 H 0.63805 0.48208 0.07681 0.0
H2985 H 0.5813 0.52244 0.15475 0.0
H2986 H 0.56578 0.54312 0.13956 0.0
H2987 H 0.59501 0.547 0.14512 0.0
C2988 C 0.52298 0.64091 0.16915 0.0
C2989 C 0.50478 0.65505 0.17295 0.0
C2990 C 0.52346 0.62645 0.15078 0.0
C2991 C 0.50526 0.62603 0.13582 0.0
C2992 C 0.48698 0.64047 0.13937 0.0
C2993 C 0.48698 0.65482 0.15784 0.0
C2994 C 0.54333 0.61142 0.14753 0.0
C2995 C 0.46718 0.64039 0.12392 0.0
C2996 C 0.5134 0.60009 0.0785 0.0
C2997 C 0.50507 0.57855 0.08183 0.0
C2998 C 0.51362 0.61574 0.09591 0.0
C2999 C 0.50495 0.60981 0.11703 0.0
C3000 C 0.49618 0.58819 0.12033 0.0
C3001 C 0.49649 0.57281 0.10277 0.0
C3002 C 0.52339 0.63851 0.0918 0.0
C3003 C 0.48652 0.58123 0.14246 0.0
H3004 H 0.53696 0.64121 0.18054 0.0
H3005 H 0.47275 0.6655 0.16075 0.0
H3006 H 0.53804 0.59375 0.14837 0.0
H3007 H 0.55065 0.61415 0.1308 0.0
H3008 H 0.55644 0.61425 0.16024 0.0
H3009 H 0.45461 0.65312 0.12855 0.0
H3010 H 0.47266 0.64353 0.10658 0.0
H3011 H 0.45912 0.62378 0.12418 0.0
H3012 H 0.52023 0.60458 0.06242 0.0
H3013 H 0.48985 0.55626 0.10545 0.0
H3014 H 0.53746 0.64148 0.10336 0.0
H3015 H 0.51071 0.6515 0.09516 0.0
H3016 H 0.52948 0.64051 0.07446 0.0
H3017 H 0.49947 0.58232 0.15556 0.0
H3018 H 0.47989 0.56398 0.14214 0.0
H3019 H 0.47287 0.59268 0.14727 0.0
C3020 C 0.35105 0.52264 0.14788 0.0
C3021 C 0.35524 0.51072 0.16752 0.0
C3022 C 0.36642 0.52261 0.13015 0.0
C3023 C 0.38636 0.5101 0.1319 0.0
C3024 C 0.39048 0.49775 0.15153 0.0
C3025 C 0.37497 0.49828 0.16906 0.0
C3026 C 0.36156 0.53633 0.1097 0.0
C3027 C 0.41134 0.48398 0.15409 0.0
C3028 C 0.41759 0.49403 0.07886 0.0
C3029 C 0.43578 0.5086 0.0794 0.0
C3030 C 0.40144 0.49428 0.09586 0.0
C3031 C 0.40306 0.51003 0.11336 0.0
C3032 C 0.42111 0.52524 0.11353 0.0
C3033 C 0.43744 0.52405 0.09679 0.0
C3034 C 0.38294 0.47729 0.09537 0.0
C3035 C 0.4233 0.5427 0.13145 0.0
H3036 H 0.33599 0.53248 0.14661 0.0
H3037 H 0.37825 0.48877 0.18401 0.0
H3038 H 0.37496 0.54878 0.10719 0.0
H3039 H 0.36128 0.52551 0.09475 0.0
H3040 H 0.34538 0.54519 0.11088 0.0
H3041 H 0.41165 0.47459 0.17 0.0
H3042 H 0.41275 0.47199 0.14013 0.0
H3043 H 0.4262 0.49491 0.15345 0.0
H3044 H 0.41639 0.48197 0.06551 0.0
H3045 H 0.45141 0.53548 0.09712 0.0
H3046 H 0.36656 0.48577 0.09516 0.0
H3047 H 0.38355 0.46698 0.11067 0.0
H3048 H 0.38404 0.46613 0.08068 0.0
H3049 H 0.40753 0.55216 0.13311 0.0
H3050 H 0.43702 0.55461 0.12799 0.0
H3051 H 0.42657 0.53458 0.14769 0.0
C3052 C 0.84679 0.49296 0.63908 0.0
C3053 C 0.84633 0.50647 0.65815 0.0
C3054 C 0.86486 0.49345 0.62424 0.0
C3055 C 0.88307 0.5078 0.62846 0.0
C3056 C 0.88293 0.52123 0.64785 0.0
C3057 C 0.86463 0.52036 0.66247 0.0
C3058 C 0.86439 0.47869 0.60391 0.0
C3059 C 0.90192 0.53688 0.65288 0.0
C3060 C 0.93817 0.4961 0.59908 0.0
C3061 C 0.93672 0.51011 0.5805 0.0
C3062 C 0.92085 0.49514 0.61481 0.0
C3063 C 0.90197 0.50907 0.61229 0.0
C3064 C 0.90081 0.52373 0.59385 0.0
C3065 C 0.91801 0.52379 0.578 0.0
C3066 C 0.92249 0.47881 0.63382 0.0
C3067 C 0.88131 0.53926 0.59075 0.0
H3068 H 0.83295 0.48189 0.63575 0.0
H3069 H 0.86438 0.53104 0.67699 0.0
H3070 H 0.86487 0.48902 0.58863 0.0
H3071 H 0.87931 0.46783 0.60363 0.0
H3072 H 0.8493 0.46803 0.60331 0.0
H3073 H 0.89952 0.54593 0.66881 0.0
H3074 H 0.9178 0.52752 0.65374 0.0
H3075 H 0.90361 0.54923 0.63926 0.0
H3076 H 0.95254 0.48534 0.60089 0.0
H3077 H 0.91695 0.53474 0.5637 0.0
H3078 H 0.90837 0.46694 0.63309 0.0
H3079 H 0.92131 0.48772 0.64993 0.0
H3080 H 0.93829 0.46922 0.63348 0.0
H3081 H 0.86587 0.52948 0.58821 0.0
H3082 H 0.88358 0.55055 0.57629 0.0
H3083 H 0.8789 0.5495 0.60592 0.0
C3084 C 0.51898 0.84548 0.63735 0.0
C3085 C 0.50387 0.84457 0.65516 0.0
C3086 C 0.51962 0.86386 0.62287 0.0
C3087 C 0.50473 0.88184 0.62613 0.0
C3088 C 0.48959 0.88116 0.64419 0.0
C3089 C 0.48938 0.8626 0.6585 0.0
C3090 C 0.53616 0.86395 0.60396 0.0
C3091 C 0.47326 0.89984 0.64812 0.0
C3092 C 0.518 0.93762 0.59868 0.0
C3093 C 0.50556 0.93628 0.57901 0.0
C3094 C 0.51793 0.92004 0.61418 0.0
C3095 C 0.50458 0.90098 0.61021 0.0
C3096 C 0.49146 0.89993 0.59065 0.0
C3097 C 0.49238 0.91741 0.57517 0.0
C3098 C 0.53251 0.92166 0.63454 0.0
C3099 C 0.4766 0.88022 0.58593 0.0
H3100 H 0.53049 0.83184 0.6348 0.0
H3101 H 0.47748 0.86199 0.67203 0.0
H3102 H 0.52723 0.86446 0.58782 0.0
H3103 H 0.54671 0.87909 0.60485 0.0
H3104 H 0.54713 0.84908 0.60413 0.0
H3105 H 0.46289 0.89705 0.66316 0.0
H3106 H 0.48227 0.91583 0.65003 0.0
H3107 H 0.46212 0.90155 0.63351 0.0
H3108 H 0.52835 0.95211 0.6016 0.0
H3109 H 0.48257 0.91641 0.56007 0.0
H3110 H 0.54464 0.90774 0.63464 0.0
H3111 H 0.52226 0.92009 0.6498 0.0
H3112 H 0.54184 0.93761 0.63526 0.0
H3113 H 0.4869 0.86512 0.58342 0.0
H3114 H 0.46615 0.88277 0.57091 0.0
H3115 H 0.46551 0.877 0.60034 0.0
C3116 C 0.15196 0.49463 0.66221 0.0
C3117 C 0.16699 0.51254 0.66234 0.0
C3118 C 0.13451 0.49352 0.6466 0.0
C3119 C 0.13199 0.51068 0.63062 0.0
C3120 C 0.14694 0.52889 0.6308 0.0
C3121 C 0.1641 0.52966 0.64667 0.0
C3122 C 0.11896 0.4738 0.64696 0.0
C3123 C 0.14491 0.54754 0.61408 0.0
C3124 C 0.101 0.49943 0.57641 0.0
C3125 C 0.08007 0.50889 0.58068 0.0
C3126 C 0.11785 0.49948 0.59264 0.0
C3127 C 0.11387 0.50957 0.61358 0.0
C3128 C 0.09276 0.51912 0.61798 0.0
C3129 C 0.07608 0.51849 0.60158 0.0
C3130 C 0.13998 0.48885 0.58729 0.0
C3131 C 0.08789 0.5303 0.63994 0.0
H3132 H 0.15413 0.48115 0.67398 0.0
H3133 H 0.17529 0.54379 0.64679 0.0
H3134 H 0.10152 0.47953 0.64888 0.0
H3135 H 0.11999 0.46472 0.63092 0.0
H3136 H 0.12285 0.46204 0.66067 0.0
H3137 H 0.15783 0.56055 0.61644 0.0
H3138 H 0.14641 0.54082 0.59696 0.0
H3139 H 0.12828 0.55542 0.61543 0.0
H3140 H 0.10417 0.49176 0.5604 0.0
H3141 H 0.06001 0.52596 0.60498 0.0
H3142 H 0.14422 0.47625 0.60008 0.0
H3143 H 0.15327 0.50166 0.58757 0.0
H3144 H 0.14002 0.48067 0.57072 0.0
H3145 H 0.09047 0.51837 0.65378 0.0
H3146 H 0.0706 0.53678 0.64084 0.0
H3147 H 0.09959 0.54434 0.64254 0.0
C3148 C 0.52025 0.15001 0.66336 0.0
C3149 C 0.50434 0.16701 0.66146 0.0
C3150 C 0.52122 0.13247 0.64781 0.0
C3151 C 0.50589 0.13181 0.6299 0.0
C3152 C 0.48957 0.14871 0.6281 0.0
C3153 C 0.48896 0.16599 0.64386 0.0
C3154 C 0.53894 0.11485 0.6503 0.0
C3155 C 0.47282 0.14865 0.60938 0.0
C3156 C 0.51988 0.09984 0.57683 0.0
C3157 C 0.50819 0.07988 0.57991 0.0
C3158 C 0.51971 0.11662 0.59316 0.0
C3159 C 0.50704 0.11366 0.61285 0.0
C3160 C 0.49507 0.09357 0.61595 0.0
C3161 C 0.49603 0.07682 0.5996 0.0
C3162 C 0.53305 0.13756 0.5893 0.0
C3163 C 0.48092 0.0899 0.63637 0.0
H3164 H 0.53238 0.1507 0.67667 0.0
H3165 H 0.47633 0.17877 0.64239 0.0
H3166 H 0.53114 0.09816 0.65141 0.0
H3167 H 0.54985 0.11481 0.6354 0.0
H3168 H 0.54941 0.1175 0.66529 0.0
H3169 H 0.46102 0.16284 0.61045 0.0
H3170 H 0.48154 0.14948 0.59313 0.0
H3171 H 0.46317 0.13291 0.60961 0.0
H3172 H 0.52946 0.10223 0.56173 0.0
H3173 H 0.48678 0.06151 0.60197 0.0
H3174 H 0.5446 0.1404 0.60341 0.0
H3175 H 0.52173 0.15211 0.58846 0.0
H3176 H 0.54289 0.13683 0.57367 0.0
H3177 H 0.49126 0.09141 0.65157 0.0
H3178 H 0.47275 0.07332 0.63638 0.0
H3179 H 0.46784 0.1029 0.63733 0.0
C3180 C 0.86252 0.5285 0.35895 0.0
C3181 C 0.84967 0.50925 0.3556 0.0
C3182 C 0.87989 0.52895 0.37471 0.0
C3183 C 0.88456 0.50973 0.38755 0.0
C3184 C 0.87183 0.49021 0.3841 0.0
C3185 C 0.85471 0.49017 0.36816 0.0
C3186 C 0.89304 0.55012 0.37785 0.0
C3187 C 0.87615 0.46935 0.39743 0.0
C3188 C 0.9412 0.50335 0.41564 0.0
C3189 C 0.93637 0.50898 0.4378 0.0
C3190 C 0.92459 0.5037 0.39912 0.0
C3191 C 0.90257 0.51001 0.40477 0.0
C3192 C 0.89764 0.51595 0.42704 0.0
C3193 C 0.91451 0.51528 0.44324 0.0
C3194 C 0.93056 0.49708 0.37565 0.0
C3195 C 0.87446 0.52289 0.43381 0.0
H3196 H 0.85868 0.54344 0.34963 0.0
H3197 H 0.84524 0.47506 0.36552 0.0
H3198 H 0.89115 0.55615 0.39519 0.0
H3199 H 0.91101 0.54685 0.37514 0.0
H3200 H 0.88766 0.56351 0.36632 0.0
H3201 H 0.86489 0.45549 0.39267 0.0
H3202 H 0.89361 0.46386 0.39506 0.0
H3203 H 0.87389 0.47283 0.41542 0.0
H3204 H 0.95795 0.49837 0.41118 0.0
H3205 H 0.91054 0.51986 0.46022 0.0
H3206 H 0.92657 0.51085 0.36402 0.0
H3207 H 0.9205 0.48248 0.37051 0.0
H3208 H 0.94846 0.49283 0.37388 0.0
H3209 H 0.86905 0.5374 0.42377 0.0
H3210 H 0.8734 0.52738 0.4517 0.0
H3211 H 0.86256 0.50918 0.43047 0.0
C3212 C 0.52766 0.85708 0.36505 0.0
C3213 C 0.50806 0.85078 0.35396 0.0
C3214 C 0.52765 0.87413 0.38105 0.0
C3215 C 0.50758 0.88539 0.38609 0.0
C3216 C 0.4878 0.87941 0.37475 0.0
C3217 C 0.48827 0.86221 0.35885 0.0
C3218 C 0.54912 0.87995 0.39273 0.0
C3219 C 0.46604 0.89096 0.37969 0.0
C3220 C 0.50382 0.91446 0.44231 0.0
C3221 C 0.5079 0.93677 0.43664 0.0
C3222 C 0.50341 0.89766 0.42604 0.0
C3223 C 0.5073 0.90319 0.40347 0.0
C3224 C 0.51136 0.92565 0.39759 0.0
C3225 C 0.51154 0.94215 0.41419 0.0
C3226 C 0.4989 0.87396 0.43304 0.0
C3227 C 0.51569 0.93223 0.37375 0.0
H3228 H 0.54312 0.84864 0.3612 0.0
H3229 H 0.47297 0.85733 0.35067 0.0
H3230 H 0.55304 0.89782 0.39022 0.0
H3231 H 0.54731 0.87724 0.41089 0.0
H3232 H 0.56339 0.86987 0.38667 0.0
H3233 H 0.45221 0.88466 0.36918 0.0
H3234 H 0.46154 0.88853 0.39742 0.0
H3235 H 0.46776 0.90913 0.37694 0.0
H3236 H 0.50084 0.91003 0.45953 0.0
H3237 H 0.51474 0.95926 0.40952 0.0
H3238 H 0.51336 0.86331 0.42878 0.0
H3239 H 0.48432 0.86732 0.42388 0.0
H3240 H 0.49563 0.87248 0.45117 0.0
H3241 H 0.53057 0.92334 0.36738 0.0
H3242 H 0.51844 0.95042 0.37186 0.0
H3243 H 0.50141 0.92729 0.36316 0.0
C3244 C 0.15164 0.49907 0.35564 0.0
C3245 C 0.17177 0.50897 0.36219 0.0
C3246 C 0.13309 0.4986 0.36996 0.0
C3247 C 0.13459 0.50837 0.39136 0.0
C3248 C 0.15473 0.5187 0.39794 0.0
C3249 C 0.17303 0.51883 0.38334 0.0
C3250 C 0.11201 0.48725 0.36236 0.0
C3251 C 0.15701 0.52954 0.42049 0.0
C3252 C 0.08109 0.52318 0.42228 0.0
C3253 C 0.07997 0.50618 0.43817 0.0
C3254 C 0.09881 0.52419 0.40699 0.0
C3255 C 0.11533 0.50734 0.40711 0.0
C3256 C 0.11377 0.48973 0.42275 0.0
C3257 C 0.09635 0.48962 0.43836 0.0
C3258 C 0.10018 0.54361 0.39113 0.0
C3259 C 0.13059 0.47109 0.4231 0.0
H3260 H 0.15052 0.4912 0.33946 0.0
H3261 H 0.18835 0.52685 0.38846 0.0
H3262 H 0.10801 0.47325 0.37371 0.0
H3263 H 0.09785 0.49906 0.36307 0.0
H3264 H 0.11339 0.4807 0.34514 0.0
H3265 H 0.17348 0.53762 0.42277 0.0
H3266 H 0.14382 0.54225 0.42276 0.0
H3267 H 0.15478 0.51692 0.43376 0.0
H3268 H 0.06852 0.53613 0.42236 0.0
H3269 H 0.09539 0.47644 0.45065 0.0
H3270 H 0.10063 0.53756 0.37371 0.0
H3271 H 0.11583 0.55296 0.39408 0.0
H3272 H 0.08592 0.55522 0.39302 0.0
H3273 H 0.13177 0.46332 0.4064 0.0
H3274 H 0.12628 0.458 0.43542 0.0
H3275 H 0.14729 0.47778 0.42722 0.0
C3276 C 0.4882 0.16679 0.37451 0.0
C3277 C 0.5065 0.17158 0.36081 0.0
C3278 C 0.48834 0.14835 0.38889 0.0
C3279 C 0.50729 0.13437 0.38971 0.0
C3280 C 0.5257 0.13891 0.37571 0.0
C3281 C 0.52506 0.1574 0.36139 0.0
C3282 C 0.46832 0.14402 0.40346 0.0
C3283 C 0.5463 0.12454 0.37625 0.0
C3284 C 0.51663 0.10205 0.44324 0.0
C3285 C 0.50919 0.08065 0.43751 0.0
C3286 C 0.51638 0.11952 0.42777 0.0
C3287 C 0.50827 0.11566 0.40601 0.0
C3288 C 0.50089 0.09407 0.40001 0.0
C3289 C 0.50157 0.07678 0.41579 0.0
C3290 C 0.52467 0.14218 0.43481 0.0
C3291 C 0.49199 0.08933 0.37703 0.0
H3292 H 0.47368 0.17746 0.37394 0.0
H3293 H 0.53937 0.1611 0.35106 0.0
H3294 H 0.46216 0.12681 0.40082 0.0
H3295 H 0.47309 0.14546 0.42122 0.0
H3296 H 0.45451 0.15583 0.40011 0.0
H3297 H 0.55888 0.12983 0.36378 0.0
H3298 H 0.55397 0.12528 0.39302 0.0
H3299 H 0.54184 0.10692 0.37305 0.0
H3300 H 0.52279 0.1052 0.45989 0.0
H3301 H 0.4957 0.06035 0.41123 0.0
H3302 H 0.51094 0.15446 0.43376 0.0
H3303 H 0.53803 0.14787 0.42341 0.0
H3304 H 0.53126 0.1422 0.45207 0.0
H3305 H 0.47725 0.09994 0.37372 0.0
H3306 H 0.48711 0.07162 0.3749 0.0
H3307 H 0.50471 0.09352 0.36434 0.0
C3308 C 0.63164 0.84157 0.50567 0.0
C3309 C 0.65447 0.84439 0.50982 0.0
C3310 C 0.61699 0.8598 0.50541 0.0
C3311 C 0.62528 0.8815 0.50931 0.0
C3312 C 0.64831 0.88455 0.51331 0.0
C3313 C 0.6626 0.866 0.51353 0.0
C3314 C 0.59258 0.8558 0.50095 0.0
C3315 C 0.6578 0.90741 0.51761 0.0
C3316 C 0.59017 0.93059 0.48976 0.0
C3317 C 0.57886 0.93632 0.50927 0.0
C3318 C 0.60544 0.91286 0.48953 0.0
C3319 C 0.60976 0.90093 0.50942 0.0
C3320 C 0.59867 0.90713 0.5293 0.0
C3321 C 0.58312 0.92461 0.52891 0.0
C3322 C 0.61655 0.90657 0.4679 0.0
C3323 C 0.60301 0.89515 0.55093 0.0
H3324 H 0.62519 0.82506 0.50236 0.0
H3325 H 0.68013 0.8684 0.51702 0.0
H3326 H 0.58251 0.86173 0.51523 0.0
H3327 H 0.58725 0.86541 0.48612 0.0
H3328 H 0.58878 0.83793 0.4981 0.0
H3329 H 0.67612 0.90706 0.52009 0.0
H3330 H 0.65399 0.91861 0.50345 0.0
H3331 H 0.64994 0.91472 0.53263 0.0
H3332 H 0.58665 0.93966 0.47456 0.0
H3333 H 0.57427 0.92916 0.54396 0.0
H3334 H 0.61193 0.88929 0.46333 0.0
H3335 H 0.6349 0.90701 0.46982 0.0
H3336 H 0.61177 0.91781 0.45404 0.0
H3337 H 0.59793 0.87747 0.54942 0.0
H3338 H 0.59386 0.90272 0.5651 0.0
H3339 H 0.62107 0.89537 0.55475 0.0
C3340 C 0.64111 0.1686 0.52249 0.0
C3341 C 0.6609 0.16752 0.51007 0.0
C3342 C 0.62555 0.15113 0.52219 0.0
C3343 C 0.62973 0.132 0.50909 0.0
C3344 C 0.64978 0.13064 0.49671 0.0
C3345 C 0.66516 0.14835 0.49743 0.0
C3346 C 0.60458 0.15318 0.5359 0.0
C3347 C 0.65476 0.11067 0.48234 0.0
C3348 C 0.59842 0.0784 0.52265 0.0
C3349 C 0.5805 0.07942 0.50779 0.0
C3350 C 0.61445 0.09546 0.52338 0.0
C3351 C 0.61301 0.11354 0.50829 0.0
C3352 C 0.59519 0.11428 0.49285 0.0
C3353 C 0.57894 0.09743 0.49308 0.0
C3354 C 0.63269 0.09435 0.5406 0.0
C3355 C 0.59321 0.13292 0.47613 0.0
H3356 H 0.6378 0.18317 0.53258 0.0
H3357 H 0.68026 0.14743 0.48762 0.0
H3358 H 0.58977 0.15253 0.52492 0.0
H3359 H 0.60331 0.13899 0.54763 0.0
H3360 H 0.60402 0.16893 0.54556 0.0
H3361 H 0.67104 0.11212 0.4737 0.0
H3362 H 0.65488 0.09535 0.49262 0.0
H3363 H 0.64149 0.10862 0.46967 0.0
H3364 H 0.5995 0.06458 0.53418 0.0
H3365 H 0.56512 0.09816 0.4815 0.0
H3366 H 0.63294 0.10988 0.55059 0.0
H3367 H 0.64909 0.09292 0.53227 0.0
H3368 H 0.63061 0.08002 0.55207 0.0
H3369 H 0.59067 0.14895 0.48489 0.0
H3370 H 0.57916 0.13034 0.4644 0.0
H3371 H 0.60885 0.13438 0.46642 0.0
C3372 C 0.86347 0.65986 0.52571 0.0
C3373 C 0.85059 0.6626 0.5064 0.0
C3374 C 0.88083 0.64415 0.52663 0.0
C3375 C 0.88548 0.63071 0.50782 0.0
C3376 C 0.87269 0.63348 0.48824 0.0
C3377 C 0.85554 0.6494 0.48773 0.0
C3378 C 0.89401 0.64168 0.54785 0.0
C3379 C 0.87698 0.61946 0.46784 0.0
C3380 C 0.94216 0.6025 0.50252 0.0
C3381 C 0.9373 0.58056 0.50889 0.0
C3382 C 0.92552 0.61899 0.50222 0.0
C3383 C 0.90349 0.61354 0.50866 0.0
C3384 C 0.89856 0.5915 0.51543 0.0
C3385 C 0.91545 0.57532 0.51538 0.0
C3386 C 0.93147 0.64222 0.49476 0.0
C3387 C 0.87538 0.58494 0.52259 0.0
H3388 H 0.85964 0.66965 0.54036 0.0
H3389 H 0.84601 0.65153 0.47259 0.0
H3390 H 0.89218 0.62453 0.55441 0.0
H3391 H 0.91197 0.64436 0.54448 0.0
H3392 H 0.88861 0.6536 0.5609 0.0
H3393 H 0.8657 0.62377 0.45385 0.0
H3394 H 0.89443 0.62164 0.46224 0.0
H3395 H 0.87472 0.6016 0.47191 0.0
H3396 H 0.95892 0.60676 0.4974 0.0
H3397 H 0.91148 0.5585 0.52055 0.0
H3398 H 0.92738 0.65435 0.50806 0.0
H3399 H 0.92147 0.64678 0.47993 0.0
H3400 H 0.94939 0.64388 0.49053 0.0
H3401 H 0.86972 0.59576 0.53642 0.0
H3402 H 0.87444 0.56733 0.52812 0.0
H3403 H 0.8636 0.58734 0.50859 0.0
C3404 C 0.37078 0.8525 0.49012 0.0
C3405 C 0.35776 0.84751 0.50888 0.0
C3406 C 0.3857 0.87052 0.49009 0.0
C3407 C 0.3877 0.88406 0.50927 0.0
C3408 C 0.37432 0.87943 0.52812 0.0
C3409 C 0.35952 0.86125 0.5277 0.0
C3410 C 0.39962 0.87484 0.46962 0.0
C3411 C 0.376 0.89338 0.54893 0.0
C3412 C 0.44236 0.91538 0.51623 0.0
C3413 C 0.43674 0.93692 0.50909 0.0
C3414 C 0.42649 0.89822 0.51676 0.0
C3415 C 0.4044 0.90252 0.5098 0.0
C3416 C 0.39853 0.92425 0.50277 0.0
C3417 C 0.41471 0.94122 0.50262 0.0
C3418 C 0.43347 0.8754 0.52464 0.0
C3419 C 0.37522 0.9295 0.49506 0.0
H3420 H 0.36933 0.84225 0.47536 0.0
H3421 H 0.34976 0.85744 0.54237 0.0
H3422 H 0.39707 0.89216 0.46377 0.0
H3423 H 0.41753 0.87304 0.47373 0.0
H3424 H 0.39558 0.86325 0.45581 0.0
H3425 H 0.3639 0.88815 0.56189 0.0
H3426 H 0.39304 0.89212 0.55592 0.0
H3427 H 0.37306 0.91115 0.54492 0.0
H3428 H 0.45922 0.91188 0.52155 0.0
H3429 H 0.41018 0.95775 0.49704 0.0
H3430 H 0.43071 0.86299 0.51126 0.0
H3431 H 0.42313 0.8703 0.53906 0.0
H3432 H 0.45125 0.87481 0.52963 0.0
H3433 H 0.37099 0.9191 0.48041 0.0
H3434 H 0.37319 0.94729 0.49046 0.0
H3435 H 0.36309 0.92541 0.50835 0.0
C3436 C 0.14613 0.34968 0.51945 0.0
C3437 C 0.16718 0.35554 0.5112 0.0
C3438 C 0.12842 0.36507 0.51953 0.0
C3439 C 0.13167 0.38677 0.51085 0.0
C3440 C 0.15277 0.39261 0.5021 0.0
C3441 C 0.17023 0.37703 0.5025 0.0
C3442 C 0.10632 0.35825 0.52933 0.0
C3443 C 0.15696 0.4154 0.49235 0.0
C3444 C 0.08056 0.4205 0.49372 0.0
C3445 C 0.07894 0.43586 0.51115 0.0
C3446 C 0.09774 0.40457 0.49329 0.0
C3447 C 0.11316 0.40347 0.51113 0.0
C3448 C 0.11114 0.41872 0.52905 0.0
C3449 C 0.09433 0.435 0.52861 0.0
C3450 C 0.09973 0.3893 0.47345 0.0
C3451 C 0.12675 0.41785 0.54869 0.0
H3452 H 0.14365 0.33322 0.52639 0.0
H3453 H 0.18633 0.38164 0.49581 0.0
H3454 H 0.10196 0.36948 0.54332 0.0
H3455 H 0.09301 0.35989 0.51666 0.0
H3456 H 0.10645 0.34083 0.53551 0.0
H3457 H 0.17396 0.417 0.48529 0.0
H3458 H 0.14466 0.41893 0.47905 0.0
H3459 H 0.1548 0.42829 0.50537 0.0
H3460 H 0.06878 0.4214 0.48009 0.0
H3461 H 0.093 0.44693 0.54208 0.0
H3462 H 0.09901 0.37168 0.47889 0.0
H3463 H 0.1161 0.39184 0.46527 0.0
H3464 H 0.08639 0.3922 0.461 0.0
H3465 H 0.12666 0.40092 0.55607 0.0
H3466 H 0.1222 0.43006 0.56181 0.0
H3467 H 0.14401 0.42134 0.54318 0.0
C3468 C 0.35673 0.15327 0.49689 0.0
C3469 C 0.36202 0.17247 0.50913 0.0
C3470 C 0.37108 0.13476 0.49655 0.0
C3471 C 0.39119 0.13532 0.50884 0.0
C3472 C 0.39645 0.15449 0.5215 0.0
C3473 C 0.38187 0.17279 0.52145 0.0
C3474 C 0.36495 0.11475 0.48266 0.0
C3475 C 0.41758 0.15573 0.53504 0.0
C3476 C 0.42041 0.08064 0.52269 0.0
C3477 C 0.43818 0.08084 0.5076 0.0
C3478 C 0.40502 0.09829 0.52337 0.0
C3479 C 0.40703 0.11614 0.50806 0.0
C3480 C 0.4246 0.11596 0.49231 0.0
C3481 C 0.44018 0.09852 0.49256 0.0
C3482 C 0.38697 0.09811 0.54082 0.0
C3483 C 0.42704 0.13426 0.47528 0.0
H3484 H 0.34158 0.1529 0.48713 0.0
H3485 H 0.38596 0.18736 0.53124 0.0
H3486 H 0.37788 0.11187 0.4698 0.0
H3487 H 0.36432 0.09964 0.49324 0.0
H3488 H 0.3486 0.11676 0.47429 0.0
H3489 H 0.41885 0.17147 0.54465 0.0
H3490 H 0.41838 0.14152 0.54679 0.0
H3491 H 0.43225 0.15448 0.52391 0.0
H3492 H 0.419 0.06704 0.53446 0.0
H3493 H 0.45385 0.09857 0.48077 0.0
H3494 H 0.37037 0.09896 0.53281 0.0
H3495 H 0.3886 0.113 0.55161 0.0
H3496 H 0.38763 0.08301 0.55146 0.0
H3497 H 0.41135 0.13614 0.46574 0.0
H3498 H 0.44083 0.131 0.4634 0.0
H3499 H 0.43027 0.15033 0.48375 0.0
C3500 C 0.86037 0.36047 0.52839 0.0
C3501 C 0.84471 0.36107 0.51108 0.0
C3502 C 0.87882 0.37488 0.52854 0.0
C3503 C 0.88179 0.39022 0.51089 0.0
C3504 C 0.86631 0.39058 0.49314 0.0
C3505 C 0.84797 0.37606 0.49347 0.0
C3506 C 0.89485 0.37408 0.54785 0.0
C3507 C 0.86896 0.40652 0.4739 0.0
C3508 C 0.91478 0.44337 0.52071 0.0
C3509 C 0.93548 0.43816 0.51126 0.0
C3510 C 0.89738 0.42778 0.52109 0.0
C3511 C 0.90055 0.40653 0.5114 0.0
C3512 C 0.92144 0.40113 0.50188 0.0
C3513 C 0.93873 0.41692 0.50212 0.0
C3514 C 0.87553 0.43413 0.53176 0.0
C3515 C 0.92541 0.37879 0.49111 0.0
H3516 H 0.85789 0.34911 0.54217 0.0
H3517 H 0.83617 0.37641 0.47985 0.0
H3518 H 0.91205 0.37135 0.54173 0.0
H3519 H 0.89471 0.39026 0.55674 0.0
H3520 H 0.89066 0.36069 0.55988 0.0
H3521 H 0.85595 0.40416 0.46099 0.0
H3522 H 0.86807 0.42392 0.48001 0.0
H3523 H 0.88553 0.40431 0.46608 0.0
H3524 H 0.91221 0.45966 0.52803 0.0
H3525 H 0.95464 0.41282 0.49467 0.0
H3526 H 0.87105 0.42187 0.54481 0.0
H3527 H 0.86208 0.43384 0.51913 0.0
H3528 H 0.87606 0.45095 0.53941 0.0
H3529 H 0.92237 0.36527 0.50329 0.0
H3530 H 0.94261 0.37711 0.48456 0.0
H3531 H 0.91353 0.37637 0.47719 0.0
C3532 C 0.16829 0.63973 0.52927 0.0
C3533 C 0.1707 0.65677 0.51345 0.0
C3534 C 0.15032 0.62478 0.52842 0.0
C3535 C 0.13422 0.62683 0.51135 0.0
C3536 C 0.13629 0.64421 0.49556 0.0
C3537 C 0.15445 0.65898 0.49682 0.0
C3538 C 0.14868 0.60662 0.54571 0.0
C3539 C 0.11956 0.64692 0.47703 0.0
C3540 C 0.10125 0.57448 0.4974 0.0
C3541 C 0.08094 0.57847 0.50819 0.0
C3542 C 0.11846 0.59032 0.4978 0.0
C3543 C 0.11556 0.61043 0.50977 0.0
C3544 C 0.09507 0.61453 0.5207 0.0
C3545 C 0.07791 0.59863 0.51954 0.0
C3546 C 0.13984 0.58543 0.48553 0.0
C3547 C 0.09142 0.63551 0.53403 0.0
H3548 H 0.18051 0.63807 0.54242 0.0
H3549 H 0.15624 0.67189 0.48437 0.0
H3550 H 0.13238 0.60753 0.55433 0.0
H3551 H 0.14964 0.59009 0.53755 0.0
H3552 H 0.16213 0.60771 0.55834 0.0
H3553 H 0.12323 0.66155 0.46635 0.0
H3554 H 0.11943 0.63177 0.46648 0.0
H3555 H 0.10259 0.64883 0.48404 0.0
H3556 H 0.1036 0.559 0.48844 0.0
H3557 H 0.06232 0.60172 0.52808 0.0
H3558 H 0.15381 0.58432 0.49752 0.0
H3559 H 0.14372 0.59918 0.47384 0.0
H3560 H 0.13899 0.56962 0.47598 0.0
H3561 H 0.10385 0.63649 0.54764 0.0
H3562 H 0.0745 0.63628 0.54142 0.0
H3563 H 0.09388 0.65032 0.52331 0.0
loop_
_geom_bond_atom_site_label_1
_geom_bond_atom_site_label_2
_geom_bond_distance
_geom_bond_site_symmetry_2
_ccdc_geom_bond_type
C0 C1 1.264 . S
C0 C5 1.479 . S
C0 C10 1.465 . S
C1 C0 1.264 . S
C1 C3 1.339 . S
C1 H28 0.931 . S
C2 C3 1.395 . S
C2 C4 1.320 . S
C3 C1 1.339 . S
C3 C2 1.395 . S
C3 H29 0.929 . S
C4 C2 1.320 . S
C4 C5 1.405 . S
C4 H30 0.930 1_655 S
C5 C0 1.479 . S
C5 C4 1.405 . S
C5 H31 0.931 . S
U6 O7 2.454 . S
U6 O8 2.458 . S
U6 C9 2.984 . S
U6 C10 2.847 . S
U6 C23 2.882 . S
U6 O24 2.441 . S
U6 O25 2.420 . S
U6 O26 2.455 . S
U6 O27 2.449 . S
O7 U6 2.454 . S
O7 C9 1.353 . S
O8 U6 2.458 . S
O8 C9 1.286 . S
C9 U6 2.984 . S
C9 O7 1.353 . S
C9 O8 1.286 . S
C9 C11 1.363 . S
C10 C0 1.465 . S
C10 U6 2.847 . S
C10 O24 1.249 . S
C10 O25 1.202 . S
C11 C9 1.363 . S
C11 C13 1.408 . S
C11 C16 1.344 . S
C12 C13 1.314 . S
C12 C15 1.458 1_655 S
C12 H32 0.931 . S
C13 C11 1.408 . S
C13 C12 1.314 . S
C13 H33 0.930 . S
C14 C15 1.476 . S
C14 C16 1.284 1_455 S
C14 H34 0.929 . S
C15 C12 1.458 1_455 S
C15 C14 1.476 . S
C16 C11 1.344 . S
C16 C14 1.284 1_655 S
C16 H35 0.929 1_655 S
C17 C20 1.424 . S
C17 C22 1.245 . S
C17 C23 1.428 . S
C18 C21 1.260 . S
C18 C22 1.477 . S
C18 H36 0.932 . S
C19 C20 1.384 . S
C19 C21 1.479 . S
C19 H37 0.929 . S
C20 C17 1.424 . S
C20 C19 1.384 . S
C20 H38 0.928 . S
C21 C18 1.260 . S
C21 C19 1.479 . S
C22 C17 1.245 . S
C22 C18 1.477 . S
C22 H39 0.932 . S
C23 U6 2.882 . S
C23 C17 1.428 . S
C23 O26 1.301 . S
C23 O27 1.282 . S
O24 U6 2.441 . S
O24 C10 1.249 . S
O25 U6 2.420 . S
O25 C10 1.202 . S
O26 U6 2.455 . S
O26 C23 1.301 . S
O27 U6 2.449 . S
O27 C23 1.282 . S
H28 C1 0.931 . S
H29 C3 0.929 . S
H30 C4 0.930 1_455 S
H31 C5 0.931 . S
H32 C12 0.931 . S
H33 C13 0.930 . S
H34 C14 0.929 . S
H35 C16 0.929 1_455 S
H36 C18 0.932 . S
H37 C19 0.929 . S
H38 C20 0.928 . S
H39 C22 0.932 . S
C40 C41 1.264 . S
C40 C45 1.479 . S
C40 C50 1.465 . S
C41 C40 1.264 . S
C41 C43 1.339 . S
C41 H68 0.931 . S
C42 C43 1.395 . S
C42 C44 1.320 . S
C43 C41 1.339 . S
C43 C42 1.395 . S
C43 H69 0.929 . S
C44 C42 1.320 . S
C44 C45 1.405 . S
C44 H70 0.928 1_545 S
C45 C40 1.479 . S
C45 C44 1.405 . S
C45 H71 0.931 . S
U46 O47 2.454 . S
U46 O48 2.458 . S
U46 C49 2.984 . S
U46 C50 2.847 . S
U46 C63 2.882 . S
U46 O64 2.441 . S
U46 O65 2.420 . S
U46 O66 2.455 . S
U46 O67 2.449 . S
O47 U46 2.454 . S
O47 C49 1.353 . S
O48 U46 2.458 . S
O48 C49 1.286 . S
C49 U46 2.984 . S
C49 O47 1.353 . S
C49 O48 1.286 . S
C49 C51 1.363 . S
C50 C40 1.465 . S
C50 U46 2.847 . S
C50 O64 1.249 . S
C50 O65 1.202 . S
C51 C49 1.363 . S
C51 C53 1.408 . S
C51 C56 1.342 . S
C52 C53 1.310 . S
C52 C55 1.464 . S
C52 H72 0.932 . S
C53 C51 1.408 . S
C53 C52 1.310 . S
C53 H73 0.930 . S
C54 C55 1.474 . S
C54 C56 1.287 . S
C54 H74 0.928 1_545 S
C55 C52 1.464 . S
C55 C54 1.474 . S
C56 C51 1.342 . S
C56 C54 1.287 . S
C56 H75 0.930 . S
C57 C60 1.424 . S
C57 C62 1.245 . S
C57 C63 1.428 . S
C58 C61 1.260 . S
C58 C62 1.477 . S
C58 H76 0.932 . S
C59 C60 1.384 . S
C59 C61 1.479 . S
C59 H77 0.929 . S
C60 C57 1.424 . S
C60 C59 1.384 . S
C60 H78 0.928 . S
C61 C58 1.260 . S
C61 C59 1.479 . S
C62 C57 1.245 . S
C62 C58 1.477 . S
C62 H79 0.932 . S
C63 U46 2.882 . S
C63 C57 1.428 . S
C63 O66 1.301 . S
C63 O67 1.282 . S
O64 U46 2.441 . S
O64 C50 1.249 . S
O65 U46 2.420 . S
O65 C50 1.202 . S
O66 U46 2.455 . S
O66 C63 1.301 . S
O67 U46 2.449 . S
O67 C63 1.282 . S
H68 C41 0.931 . S
H69 C43 0.929 . S
H70 C44 0.928 1_565 S
H71 C45 0.931 . S
H72 C52 0.932 . S
H73 C53 0.930 . S
H74 C54 0.928 1_565 S
H75 C56 0.930 . S
H76 C58 0.932 . S
H77 C59 0.929 . S
H78 C60 0.928 . S
H79 C62 0.932 . S
C80 C81 1.264 . S
C80 C85 1.479 . S
C80 C90 1.465 . S
C81 C80 1.264 . S
C81 C83 1.339 . S
C81 H108 0.931 . S
C82 C83 1.395 . S
C82 C84 1.320 . S
C83 C81 1.339 . S
C83 C82 1.395 . S
C83 H109 0.929 . S
C84 C82 1.320 . S
C84 C85 1.405 . S
C84 H110 0.930 1_655 S
C85 C80 1.479 . S
C85 C84 1.405 . S
C85 H111 0.931 . S
U86 O87 2.454 . S
U86 O88 2.458 . S
U86 C89 2.984 . S
U86 C90 2.847 . S
U86 C103 2.882 . S
U86 O104 2.441 . S
U86 O105 2.420 . S
U86 O106 2.455 . S
U86 O107 2.449 . S
O87 U86 2.454 . S
O87 C89 1.353 . S
O88 U86 2.458 . S
O88 C89 1.286 . S
C89 U86 2.984 . S
C89 O87 1.353 . S
C89 O88 1.286 . S
C89 C91 1.363 . S
C90 C80 1.465 . S
C90 U86 2.847 . S
C90 O104 1.249 . S
C90 O105 1.202 . S
C91 C89 1.363 . S
C91 C93 1.408 . S
C91 C96 1.346 . S
C92 C93 1.315 . S
C92 C95 1.458 1_655 S
C92 H112 0.931 . S
C93 C91 1.408 . S
C93 C92 1.315 . S
C93 H113 0.930 . S
C94 C95 1.475 . S
C94 C96 1.284 1_455 S
C94 H114 0.929 . S
C95 C92 1.458 1_455 S
C95 C94 1.475 . S
C96 C91 1.346 . S
C96 C94 1.284 1_655 S
C96 H115 0.929 1_655 S
C97 C100 1.424 . S
C97 C102 1.245 . S
C97 C103 1.428 . S
C98 C101 1.260 . S
C98 C102 1.477 . S
C98 H116 0.932 . S
C99 C100 1.384 . S
C99 C101 1.479 . S
C99 H117 0.929 . S
C100 C97 1.424 . S
C100 C99 1.384 . S
C100 H118 0.928 . S
C101 C98 1.260 . S
C101 C99 1.479 . S
C102 C97 1.245 . S
C102 C98 1.477 . S
C102 H119 0.932 . S
C103 U86 2.882 . S
C103 C97 1.428 . S
C103 O106 1.301 . S
C103 O107 1.282 . S
O104 U86 2.441 . S
O104 C90 1.249 . S
O105 U86 2.420 . S
O105 C90 1.202 . S
O106 U86 2.455 . S
O106 C103 1.301 . S
O107 U86 2.449 . S
O107 C103 1.282 . S
H108 C81 0.931 . S
H109 C83 0.929 . S
H110 C84 0.930 1_455 S
H111 C85 0.931 . S
H112 C92 0.931 . S
H113 C93 0.930 . S
H114 C94 0.929 . S
H115 C96 0.929 1_455 S
H116 C98 0.932 . S
H117 C99 0.929 . S
H118 C100 0.928 . S
H119 C102 0.932 . S
C120 C121 1.264 . S
C120 C125 1.479 . S
C120 C130 1.465 . S
C121 C120 1.264 . S
C121 C123 1.339 . S
C121 H148 0.931 . S
C122 C123 1.395 . S
C122 C124 1.320 . S
C123 C121 1.339 . S
C123 C122 1.395 . S
C123 H149 0.929 . S
C124 C122 1.320 . S
C124 C125 1.405 . S
C124 H150 0.930 1_565 S
C125 C120 1.479 . S
C125 C124 1.405 . S
C125 H151 0.931 . S
U126 O127 2.454 . S
U126 O128 2.458 . S
U126 C129 2.984 . S
U126 C130 2.847 . S
U126 C143 2.882 . S
U126 O144 2.441 . S
U126 O145 2.420 . S
U126 O146 2.455 . S
U126 O147 2.449 . S
O127 U126 2.454 . S
O127 C129 1.353 . S
O128 U126 2.458 . S
O128 C129 1.286 . S
C129 U126 2.984 . S
C129 O127 1.353 . S
C129 O128 1.286 . S
C129 C131 1.363 . S
C130 C120 1.465 . S
C130 U126 2.847 . S
C130 O144 1.249 . S
C130 O145 1.202 . S
C131 C129 1.363 . S
C131 C133 1.408 . S
C131 C136 1.349 . S
C132 C133 1.310 . S
C132 C135 1.460 1_565 S
C132 H152 0.934 . S
C133 C131 1.408 . S
C133 C132 1.310 . S
C133 H153 0.930 . S
C134 C135 1.474 . S
C134 C136 1.282 1_545 S
C134 H154 0.934 . S
C135 C132 1.460 1_545 S
C135 C134 1.474 . S
C136 C131 1.349 . S
C136 C134 1.282 1_565 S
C136 H155 0.929 . S
C137 C140 1.424 . S
C137 C142 1.245 . S
C137 C143 1.428 . S
C138 C141 1.260 . S
C138 C142 1.477 . S
C138 H156 0.932 . S
C139 C140 1.384 . S
C139 C141 1.479 . S
C139 H157 0.929 . S
C140 C137 1.424 . S
C140 C139 1.384 . S
C140 H158 0.928 . S
C141 C138 1.260 . S
C141 C139 1.479 . S
C142 C137 1.245 . S
C142 C138 1.477 . S
C142 H159 0.932 . S
C143 U126 2.882 . S
C143 C137 1.428 . S
C143 O146 1.301 . S
C143 O147 1.282 . S
O144 U126 2.441 . S
O144 C130 1.249 . S
O145 U126 2.420 . S
O145 C130 1.202 . S
O146 U126 2.455 . S
O146 C143 1.301 . S
O147 U126 2.449 . S
O147 C143 1.282 . S
H148 C121 0.931 . S
H149 C123 0.929 . S
H150 C124 0.930 1_545 S
H151 C125 0.931 . S
H152 C132 0.934 . S
H153 C133 0.930 . S
H154 C134 0.934 . S
H155 C136 0.929 . S
H156 C138 0.932 . S
H157 C139 0.929 . S
H158 C140 0.928 . S
H159 C142 0.932 . S
C160 C161 1.264 . S
C160 C165 1.479 . S
C160 C170 1.465 . S
C161 C160 1.264 . S
C161 C163 1.339 . S
C161 H188 0.931 . S
C162 C163 1.395 . S
C162 C164 1.320 . S
C163 C161 1.339 . S
C163 C162 1.395 . S
C163 H189 0.929 . S
C164 C162 1.320 . S
C164 C165 1.405 . S
C164 H190 0.930 1_655 S
C165 C160 1.479 . S
C165 C164 1.405 . S
C165 H191 0.931 . S
U166 O167 2.454 . S
U166 O168 2.458 . S
U166 C169 2.984 . S
U166 C170 2.847 . S
U166 C183 2.882 . S
U166 O184 2.441 . S
U166 O185 2.420 . S
U166 O186 2.455 . S
U166 O187 2.449 . S
O167 U166 2.454 . S
O167 C169 1.353 . S
O168 U166 2.458 . S
O168 C169 1.286 . S
C169 U166 2.984 . S
C169 O167 1.353 . S
C169 O168 1.286 . S
C169 C171 1.363 . S
C170 C160 1.465 . S
C170 U166 2.847 . S
C170 O184 1.249 . S
C170 O185 1.202 . S
C171 C169 1.363 . S
C171 C173 1.408 . S
C171 C176 1.344 . S
C172 C173 1.313 . S
C172 C175 1.458 1_655 S
C172 H192 0.931 . S
C173 C171 1.408 . S
C173 C172 1.313 . S
C173 H193 0.930 . S
C174 C175 1.476 . S
C174 C176 1.285 1_455 S
C174 H194 0.929 . S
C175 C172 1.458 1_455 S
C175 C174 1.476 . S
C176 C171 1.344 . S
C176 C174 1.285 1_655 S
C176 H195 0.929 1_655 S
C177 C180 1.424 . S
C177 C182 1.245 . S
C177 C183 1.428 . S
C178 C181 1.260 . S
C178 C182 1.477 . S
C178 H196 0.932 . S
C179 C180 1.384 . S
C179 C181 1.479 . S
C179 H197 0.929 . S
C180 C177 1.424 . S
C180 C179 1.384 . S
C180 H198 0.928 . S
C181 C178 1.260 . S
C181 C179 1.479 . S
C182 C177 1.245 . S
C182 C178 1.477 . S
C182 H199 0.932 . S
C183 U166 2.882 . S
C183 C177 1.428 . S
C183 O186 1.301 . S
C183 O187 1.282 . S
O184 U166 2.441 . S
O184 C170 1.249 . S
O185 U166 2.420 . S
O185 C170 1.202 . S
O186 U166 2.455 . S
O186 C183 1.301 . S
O187 U166 2.449 . S
O187 C183 1.282 . S
H188 C161 0.931 . S
H189 C163 0.929 . S
H190 C164 0.930 1_455 S
H191 C165 0.931 . S
H192 C172 0.931 . S
H193 C173 0.930 . S
H194 C174 0.929 . S
H195 C176 0.929 1_455 S
H196 C178 0.932 . S
H197 C179 0.929 . S
H198 C180 0.928 . S
H199 C182 0.932 . S
C200 C201 1.264 . S
C200 C205 1.479 . S
C200 C210 1.465 . S
C201 C200 1.264 . S
C201 C203 1.339 . S
C201 H228 0.931 . S
C202 C203 1.395 . S
C202 C204 1.320 . S
C203 C201 1.339 . S
C203 C202 1.395 . S
C203 H229 0.929 . S
C204 C202 1.320 . S
C204 C205 1.405 . S
C204 H230 0.930 1_545 S
C205 C200 1.479 . S
C205 C204 1.405 . S
C205 H231 0.931 . S
U206 O207 2.454 . S
U206 O208 2.458 . S
U206 C209 2.984 . S
U206 C210 2.847 . S
U206 C223 2.882 . S
U206 O224 2.441 . S
U206 O225 2.420 . S
U206 O226 2.455 . S
U206 O227 2.449 . S
O207 U206 2.454 . S
O207 C209 1.353 . S
O208 U206 2.458 . S
O208 C209 1.286 . S
C209 U206 2.984 . S
C209 O207 1.353 . S
C209 O208 1.286 . S
C209 C211 1.363 . S
C210 C200 1.465 . S
C210 U206 2.847 . S
C210 O224 1.249 . S
C210 O225 1.202 . S
C211 C209 1.363 . S
C211 C213 1.408 . S
C211 C216 1.342 . S
C212 C213 1.310 . S
C212 C215 1.465 . S
C212 H232 0.932 . S
C213 C211 1.408 . S
C213 C212 1.310 . S
C213 H233 0.930 . S
C214 C215 1.474 . S
C214 C216 1.288 . S
C214 H234 0.925 1_545 S
C215 C212 1.465 . S
C215 C214 1.474 . S
C216 C211 1.342 . S
C216 C214 1.288 . S
C216 H235 0.930 . S
C217 C220 1.424 . S
C217 C222 1.245 . S
C217 C223 1.428 . S
C218 C221 1.260 . S
C218 C222 1.477 . S
C218 H236 0.932 . S
C219 C220 1.384 . S
C219 C221 1.479 . S
C219 H237 0.929 . S
C220 C217 1.424 . S
C220 C219 1.384 . S
C220 H238 0.928 . S
C221 C218 1.260 . S
C221 C219 1.479 . S
C222 C217 1.245 . S
C222 C218 1.477 . S
C222 H239 0.932 . S
C223 U206 2.882 . S
C223 C217 1.428 . S
C223 O226 1.301 . S
C223 O227 1.282 . S
O224 U206 2.441 . S
O224 C210 1.249 . S
O225 U206 2.420 . S
O225 C210 1.202 . S
O226 U206 2.455 . S
O226 C223 1.301 . S
O227 U206 2.449 . S
O227 C223 1.282 . S
H228 C201 0.931 . S
H229 C203 0.929 . S
H230 C204 0.930 1_565 S
H231 C205 0.931 . S
H232 C212 0.932 . S
H233 C213 0.930 . S
H234 C214 0.925 1_565 S
H235 C216 0.930 . S
H236 C218 0.932 . S
H237 C219 0.929 . S
H238 C220 0.928 . S
H239 C222 0.932 . S
C240 C241 1.264 . S
C240 C245 1.479 . S
C240 C250 1.465 . S
C241 C240 1.264 . S
C241 C243 1.339 . S
C241 H268 0.931 . S
C242 C243 1.395 . S
C242 C244 1.320 . S
C243 C241 1.339 . S
C243 C242 1.395 . S
C243 H269 0.929 . S
C244 C242 1.320 . S
C244 C245 1.405 . S
C244 H270 0.930 1_655 S
C245 C240 1.479 . S
C245 C244 1.405 . S
C245 H271 0.931 . S
U246 O247 2.454 . S
U246 O248 2.458 . S
U246 C249 2.984 . S
U246 C250 2.847 . S
U246 C263 2.882 . S
U246 O264 2.441 . S
U246 O265 2.420 . S
U246 O266 2.455 . S
U246 O267 2.449 . S
O247 U246 2.454 . S
O247 C249 1.353 . S
O248 U246 2.458 . S
O248 C249 1.286 . S
C249 U246 2.984 . S
C249 O247 1.353 . S
C249 O248 1.286 . S
C249 C251 1.363 . S
C250 C240 1.465 . S
C250 U246 2.847 . S
C250 O264 1.249 . S
C250 O265 1.202 . S
C251 C249 1.363 . S
C251 C253 1.408 . S
C251 C256 1.345 . S
C252 C253 1.314 . S
C252 C255 1.458 1_655 S
C252 H272 0.931 . S
C253 C251 1.408 . S
C253 C252 1.314 . S
C253 H273 0.930 . S
C254 C255 1.475 . S
C254 C256 1.284 1_455 S
C254 H274 0.929 . S
C255 C252 1.458 1_455 S
C255 C254 1.475 . S
C256 C251 1.345 . S
C256 C254 1.284 1_655 S
C256 H275 0.929 1_655 S
C257 C260 1.424 . S
C257 C262 1.245 . S
C257 C263 1.428 . S
C258 C261 1.260 . S
C258 C262 1.477 . S
C258 H276 0.932 . S
C259 C260 1.384 . S
C259 C261 1.479 . S
C259 H277 0.929 . S
C260 C257 1.424 . S
C260 C259 1.384 . S
C260 H278 0.928 . S
C261 C258 1.260 . S
C261 C259 1.479 . S
C262 C257 1.245 . S
C262 C258 1.477 . S
C262 H279 0.932 . S
C263 U246 2.882 . S
C263 C257 1.428 . S
C263 O266 1.301 . S
C263 O267 1.282 . S
O264 U246 2.441 . S
O264 C250 1.249 . S
O265 U246 2.420 . S
O265 C250 1.202 . S
O266 U246 2.455 . S
O266 C263 1.301 . S
O267 U246 2.449 . S
O267 C263 1.282 . S
H268 C241 0.931 . S
H269 C243 0.929 . S
H270 C244 0.930 1_455 S
H271 C245 0.931 . S
H272 C252 0.931 . S
H273 C253 0.930 . S
H274 C254 0.929 . S
H275 C256 0.929 1_455 S
H276 C258 0.932 . S
H277 C259 0.929 . S
H278 C260 0.928 . S
H279 C262 0.932 . S
C280 C281 1.264 . S
C280 C285 1.479 . S
C280 C290 1.465 . S
C281 C280 1.264 . S
C281 C283 1.339 . S
C281 H308 0.931 . S
C282 C283 1.395 . S
C282 C284 1.320 . S
C283 C281 1.339 . S
C283 C282 1.395 . S
C283 H309 0.929 . S
C284 C282 1.320 . S
C284 C285 1.405 . S
C284 H310 0.929 . S
C285 C280 1.479 . S
C285 C284 1.405 . S
C285 H311 0.931 . S
U286 O287 2.454 . S
U286 O288 2.458 . S
U286 C289 2.984 . S
U286 C290 2.847 . S
U286 C303 2.882 . S
U286 O304 2.441 . S
U286 O305 2.420 . S
U286 O306 2.455 . S
U286 O307 2.449 . S
O287 U286 2.454 . S
O287 C289 1.353 . S
O288 U286 2.458 . S
O288 C289 1.286 . S
C289 U286 2.984 . S
C289 O287 1.353 . S
C289 O288 1.286 . S
C289 C291 1.363 . S
C290 C280 1.465 . S
C290 U286 2.847 . S
C290 O304 1.249 . S
C290 O305 1.202 . S
C291 C289 1.363 . S
C291 C293 1.408 . S
C291 C296 1.342 . S
C292 C293 1.310 . S
C292 C295 1.465 . S
C292 H312 0.932 . S
C293 C291 1.408 . S
C293 C292 1.310 . S
C293 H313 0.930 . S
C294 C295 1.474 . S
C294 C296 1.288 . S
C294 H314 0.925 1_545 S
C295 C292 1.465 . S
C295 C294 1.474 . S
C296 C291 1.342 . S
C296 C294 1.288 . S
C296 H315 0.930 . S
C297 C300 1.424 . S
C297 C302 1.245 . S
C297 C303 1.428 . S
C298 C301 1.260 . S
C298 C302 1.477 . S
C298 H316 0.932 . S
C299 C300 1.384 . S
C299 C301 1.479 . S
C299 H317 0.929 . S
C300 C297 1.424 . S
C300 C299 1.384 . S
C300 H318 0.928 . S
C301 C298 1.260 . S
C301 C299 1.479 . S
C302 C297 1.245 . S
C302 C298 1.477 . S
C302 H319 0.932 . S
C303 U286 2.882 . S
C303 C297 1.428 . S
C303 O306 1.301 . S
C303 O307 1.282 . S
O304 U286 2.441 . S
O304 C290 1.249 . S
O305 U286 2.420 . S
O305 C290 1.202 . S
O306 U286 2.455 . S
O306 C303 1.301 . S
O307 U286 2.449 . S
O307 C303 1.282 . S
H308 C281 0.931 . S
H309 C283 0.929 . S
H310 C284 0.929 . S
H311 C285 0.931 . S
H312 C292 0.932 . S
H313 C293 0.930 . S
H314 C294 0.925 1_565 S
H315 C296 0.930 . S
H316 C298 0.932 . S
H317 C299 0.929 . S
H318 C300 0.928 . S
H319 C302 0.932 . S
C320 C321 1.264 . S
C320 C325 1.479 . S
C320 C330 1.465 . S
C321 C320 1.264 . S
C321 C323 1.339 . S
C321 H348 0.931 . S
C322 C323 1.395 . S
C322 C324 1.320 . S
C323 C321 1.339 . S
C323 C322 1.395 . S
C323 H349 0.929 . S
C324 C322 1.320 . S
C324 C325 1.405 . S
C324 H350 0.931 1_554 S
C325 C320 1.479 . S
C325 C324 1.405 . S
C325 H351 0.931 . S
U326 O327 2.454 . S
U326 O328 2.458 . S
U326 C329 2.984 . S
U326 C330 2.847 . S
U326 C343 2.882 . S
U326 O344 2.441 . S
U326 O345 2.420 . S
U326 O346 2.455 . S
U326 O347 2.449 . S
O327 U326 2.454 . S
O327 C329 1.353 . S
O328 U326 2.458 . S
O328 C329 1.286 . S
C329 U326 2.984 . S
C329 O327 1.353 . S
C329 O328 1.286 . S
C329 C331 1.363 . S
C330 C320 1.465 . S
C330 U326 2.847 . S
C330 O344 1.249 . S
C330 O345 1.202 . S
C331 C329 1.363 . S
C331 C333 1.408 . S
C331 C336 1.342 . S
C332 C333 1.310 . S
C332 C335 1.465 . S
C332 H352 0.932 . S
C333 C331 1.408 . S
C333 C332 1.310 . S
C333 H353 0.930 . S
C334 C335 1.474 . S
C334 C336 1.287 . S
C334 H354 0.928 1_554 S
C335 C332 1.465 . S
C335 C334 1.474 . S
C336 C331 1.342 . S
C336 C334 1.287 . S
C336 H355 0.930 . S
C337 C340 1.424 . S
C337 C342 1.245 . S
C337 C343 1.428 . S
C338 C341 1.260 . S
C338 C342 1.477 . S
C338 H356 0.932 . S
C339 C340 1.384 . S
C339 C341 1.479 . S
C339 H357 0.929 . S
C340 C337 1.424 . S
C340 C339 1.384 . S
C340 H358 0.928 . S
C341 C338 1.260 . S
C341 C339 1.479 . S
C342 C337 1.245 . S
C342 C338 1.477 . S
C342 H359 0.932 . S
C343 U326 2.882 . S
C343 C337 1.428 . S
C343 O346 1.301 . S
C343 O347 1.282 . S
O344 U326 2.441 . S
O344 C330 1.249 . S
O345 U326 2.420 . S
O345 C330 1.202 . S
O346 U326 2.455 . S
O346 C343 1.301 . S
O347 U326 2.449 . S
O347 C343 1.282 . S
H348 C321 0.931 . S
H349 C323 0.929 . S
H350 C324 0.931 1_556 S
H351 C325 0.931 . S
H352 C332 0.932 . S
H353 C333 0.930 . S
H354 C334 0.928 1_556 S
H355 C336 0.930 . S
H356 C338 0.932 . S
H357 C339 0.929 . S
H358 C340 0.928 . S
H359 C342 0.932 . S
C360 C361 1.264 . S
C360 C365 1.479 . S
C360 C370 1.465 . S
C361 C360 1.264 . S
C361 C363 1.339 . S
C361 H388 0.931 . S
C362 C363 1.395 . S
C362 C364 1.320 . S
C363 C361 1.339 . S
C363 C362 1.395 . S
C363 H389 0.929 . S
C364 C362 1.320 . S
C364 C365 1.405 . S
C364 H390 0.927 1_554 S
C365 C360 1.479 . S
C365 C364 1.405 . S
C365 H391 0.931 . S
U366 O367 2.454 . S
U366 O368 2.458 . S
U366 C369 2.984 . S
U366 C370 2.847 . S
U366 C383 2.882 . S
U366 O384 2.441 . S
U366 O385 2.420 . S
U366 O386 2.455 . S
U366 O387 2.449 . S
O367 U366 2.454 . S
O367 C369 1.353 . S
O368 U366 2.458 . S
O368 C369 1.286 . S
C369 U366 2.984 . S
C369 O367 1.353 . S
C369 O368 1.286 . S
C369 C371 1.363 . S
C370 C360 1.465 . S
C370 U366 2.847 . S
C370 O384 1.249 . S
C370 O385 1.202 . S
C371 C369 1.363 . S
C371 C373 1.408 . S
C371 C376 1.342 . S
C372 C373 1.310 . S
C372 C375 1.464 . S
C372 H392 0.932 . S
C373 C371 1.408 . S
C373 C372 1.310 . S
C373 H393 0.930 . S
C374 C375 1.474 . S
C374 C376 1.287 . S
C374 H394 0.928 1_554 S
C375 C372 1.464 . S
C375 C374 1.474 . S
C376 C371 1.342 . S
C376 C374 1.287 . S
C376 H395 0.930 . S
C377 C380 1.424 . S
C377 C382 1.245 . S
C377 C383 1.428 . S
C378 C381 1.260 . S
C378 C382 1.477 . S
C378 H396 0.932 . S
C379 C380 1.384 . S
C379 C381 1.479 . S
C379 H397 0.929 . S
C380 C377 1.424 . S
C380 C379 1.384 . S
C380 H398 0.928 . S
C381 C378 1.260 . S
C381 C379 1.479 . S
C382 C377 1.245 . S
C382 C378 1.477 . S
C382 H399 0.932 . S
C383 U366 2.882 . S
C383 C377 1.428 . S
C383 O386 1.301 . S
C383 O387 1.282 . S
O384 U366 2.441 . S
O384 C370 1.249 . S
O385 U366 2.420 . S
O385 C370 1.202 . S
O386 U366 2.455 . S
O386 C383 1.301 . S
O387 U366 2.449 . S
O387 C383 1.282 . S
H388 C361 0.931 . S
H389 C363 0.929 . S
H390 C364 0.927 1_556 S
H391 C365 0.931 . S
H392 C372 0.932 . S
H393 C373 0.930 . S
H394 C374 0.928 1_556 S
H395 C376 0.930 . S
H396 C378 0.932 . S
H397 C379 0.929 . S
H398 C380 0.928 . S
H399 C382 0.932 . S
C400 C401 1.264 . S
C400 C405 1.479 . S
C400 C410 1.465 . S
C401 C400 1.264 . S
C401 C403 1.339 . S
C401 H428 0.931 . S
C402 C403 1.395 . S
C402 C404 1.320 . S
C403 C401 1.339 . S
C403 C402 1.395 . S
C403 H429 0.929 . S
C404 C402 1.320 . S
C404 C405 1.405 . S
C404 H430 0.928 1_554 S
C405 C400 1.479 . S
C405 C404 1.405 . S
C405 H431 0.931 . S
U406 O407 2.454 . S
U406 O408 2.458 . S
U406 C409 2.984 . S
U406 C410 2.847 . S
U406 C423 2.882 . S
U406 O424 2.441 . S
U406 O425 2.420 . S
U406 O426 2.455 . S
U406 O427 2.449 . S
O407 U406 2.454 . S
O407 C409 1.353 . S
O408 U406 2.458 . S
O408 C409 1.286 . S
C409 U406 2.984 . S
C409 O407 1.353 . S
C409 O408 1.286 . S
C409 C411 1.363 . S
C410 C400 1.465 . S
C410 U406 2.847 . S
C410 O424 1.249 . S
C410 O425 1.202 . S
C411 C409 1.363 . S
C411 C413 1.408 . S
C411 C416 1.342 . S
C412 C413 1.310 . S
C412 C415 1.465 . S
C412 H432 0.932 . S
C413 C411 1.408 . S
C413 C412 1.310 . S
C413 H433 0.930 . S
C414 C415 1.474 . S
C414 C416 1.287 . S
C414 H434 0.925 1_554 S
C415 C412 1.465 . S
C415 C414 1.474 . S
C416 C411 1.342 . S
C416 C414 1.287 . S
C416 H435 0.930 . S
C417 C420 1.424 . S
C417 C422 1.245 . S
C417 C423 1.428 . S
C418 C421 1.260 . S
C418 C422 1.477 . S
C418 H436 0.932 . S
C419 C420 1.384 . S
C419 C421 1.479 . S
C419 H437 0.929 . S
C420 C417 1.424 . S
C420 C419 1.384 . S
C420 H438 0.928 . S
C421 C418 1.260 . S
C421 C419 1.479 . S
C422 C417 1.245 . S
C422 C418 1.477 . S
C422 H439 0.932 . S
C423 U406 2.882 . S
C423 C417 1.428 . S
C423 O426 1.301 . S
C423 O427 1.282 . S
O424 U406 2.441 . S
O424 C410 1.249 . S
O425 U406 2.420 . S
O425 C410 1.202 . S
O426 U406 2.455 . S
O426 C423 1.301 . S
O427 U406 2.449 . S
O427 C423 1.282 . S
H428 C401 0.931 . S
H429 C403 0.929 . S
H430 C404 0.928 1_556 S
H431 C405 0.931 . S
H432 C412 0.932 . S
H433 C413 0.930 . S
H434 C414 0.925 1_556 S
H435 C416 0.930 . S
H436 C418 0.932 . S
H437 C419 0.929 . S
H438 C420 0.928 . S
H439 C422 0.932 . S
C440 C441 1.264 . S
C440 C445 1.479 . S
C440 C450 1.465 . S
C441 C440 1.264 . S
C441 C443 1.339 . S
C441 H468 0.931 . S
C442 C443 1.395 . S
C442 C444 1.320 . S
C443 C441 1.339 . S
C443 C442 1.395 . S
C443 H469 0.929 . S
C444 C442 1.320 . S
C444 C445 1.405 . S
C444 H470 0.927 1_554 S
C445 C440 1.479 . S
C445 C444 1.405 . S
C445 H471 0.931 . S
U446 O447 2.454 . S
U446 O448 2.458 . S
U446 C449 2.984 . S
U446 C450 2.847 . S
U446 C463 2.882 . S
U446 O464 2.441 . S
U446 O465 2.420 . S
U446 O466 2.455 . S
U446 O467 2.449 . S
O447 U446 2.454 . S
O447 C449 1.353 . S
O448 U446 2.458 . S
O448 C449 1.286 . S
C449 U446 2.984 . S
C449 O447 1.353 . S
C449 O448 1.286 . S
C449 C451 1.363 . S
C450 C440 1.465 . S
C450 U446 2.847 . S
C450 O464 1.249 . S
C450 O465 1.202 . S
C451 C449 1.363 . S
C451 C453 1.408 . S
C451 C456 1.342 . S
C452 C453 1.310 . S
C452 C455 1.463 . S
C452 H472 0.932 . S
C453 C451 1.408 . S
C453 C452 1.310 . S
C453 H473 0.930 . S
C454 C455 1.474 . S
C454 C456 1.286 . S
C454 H474 0.929 1_554 S
C455 C452 1.463 . S
C455 C454 1.474 . S
C456 C451 1.342 . S
C456 C454 1.286 . S
C456 H475 0.930 . S
C457 C460 1.424 . S
C457 C462 1.245 . S
C457 C463 1.428 . S
C458 C461 1.260 . S
C458 C462 1.477 . S
C458 H476 0.932 . S
C459 C460 1.384 . S
C459 C461 1.479 . S
C459 H477 0.929 . S
C460 C457 1.424 . S
C460 C459 1.384 . S
C460 H478 0.928 . S
C461 C458 1.260 . S
C461 C459 1.479 . S
C462 C457 1.245 . S
C462 C458 1.477 . S
C462 H479 0.932 . S
C463 U446 2.882 . S
C463 C457 1.428 . S
C463 O466 1.301 . S
C463 O467 1.282 . S
O464 U446 2.441 . S
O464 C450 1.249 . S
O465 U446 2.420 . S
O465 C450 1.202 . S
O466 U446 2.455 . S
O466 C463 1.301 . S
O467 U446 2.449 . S
O467 C463 1.282 . S
H468 C441 0.931 . S
H469 C443 0.929 . S
H470 C444 0.927 1_556 S
H471 C445 0.931 . S
H472 C452 0.932 . S
H473 C453 0.930 . S
H474 C454 0.929 1_556 S
H475 C456 0.930 . S
H476 C458 0.932 . S
H477 C459 0.929 . S
H478 C460 0.928 . S
H479 C462 0.932 . S
C480 C481 1.264 . S
C480 C485 1.479 . S
C480 C490 1.465 . S
C481 C480 1.264 . S
C481 C483 1.339 . S
C481 H508 0.931 . S
C482 C483 1.395 . S
C482 C484 1.320 . S
C483 C481 1.339 . S
C483 C482 1.395 . S
C483 H509 0.929 . S
C484 C482 1.320 . S
C484 C485 1.405 . S
C484 H510 0.930 . S
C485 C480 1.479 . S
C485 C484 1.405 . S
C485 H511 0.931 . S
U486 O487 2.454 . S
U486 O488 2.458 . S
U486 C489 2.984 . S
U486 C490 2.847 . S
U486 C503 2.882 . S
U486 O504 2.441 . S
U486 O505 2.420 . S
U486 O506 2.455 . S
U486 O507 2.449 . S
O487 U486 2.454 . S
O487 C489 1.353 . S
O488 U486 2.458 . S
O488 C489 1.286 . S
C489 U486 2.984 . S
C489 O487 1.353 . S
C489 O488 1.286 . S
C489 C491 1.363 . S
C490 C480 1.465 . S
C490 U486 2.847 . S
C490 O504 1.249 . S
C490 O505 1.202 . S
C491 C489 1.363 . S
C491 C493 1.408 . S
C491 C496 1.342 . S
C492 C493 1.310 . S
C492 C495 1.461 . S
C492 H512 0.932 . S
C493 C491 1.408 . S
C493 C492 1.310 . S
C493 H513 0.930 . S
C494 C495 1.474 . S
C494 C496 1.285 . S
C494 H514 0.929 . S
C495 C492 1.461 . S
C495 C494 1.474 . S
C496 C491 1.342 . S
C496 C494 1.285 . S
C496 H515 0.930 . S
C497 C500 1.424 . S
C497 C502 1.245 . S
C497 C503 1.428 . S
C498 C501 1.260 . S
C498 C502 1.477 . S
C498 H516 0.932 . S
C499 C500 1.384 . S
C499 C501 1.479 . S
C499 H517 0.929 . S
C500 C497 1.424 . S
C500 C499 1.384 . S
C500 H518 0.928 . S
C501 C498 1.260 . S
C501 C499 1.479 . S
C502 C497 1.245 . S
C502 C498 1.477 . S
C502 H519 0.932 . S
C503 U486 2.882 . S
C503 C497 1.428 . S
C503 O506 1.301 . S
C503 O507 1.282 . S
O504 U486 2.441 . S
O504 C490 1.249 . S
O505 U486 2.420 . S
O505 C490 1.202 . S
O506 U486 2.455 . S
O506 C503 1.301 . S
O507 U486 2.449 . S
O507 C503 1.282 . S
H508 C481 0.931 . S
H509 C483 0.929 . S
H510 C484 0.930 . S
H511 C485 0.931 . S
H512 C492 0.932 . S
H513 C493 0.930 . S
H514 C494 0.929 . S
H515 C496 0.930 . S
H516 C498 0.932 . S
H517 C499 0.929 . S
H518 C500 0.928 . S
H519 C502 0.932 . S
C520 C521 1.264 . S
C520 C525 1.479 . S
C520 C530 1.465 . S
C521 C520 1.264 . S
C521 C523 1.339 . S
C521 H548 0.931 . S
C522 C523 1.395 . S
C522 C524 1.320 . S
C523 C521 1.339 . S
C523 C522 1.395 . S
C523 H549 0.929 . S
C524 C522 1.320 . S
C524 C525 1.405 . S
C524 H550 0.930 . S
C525 C520 1.479 . S
C525 C524 1.405 . S
C525 H551 0.931 . S
U526 O527 2.454 . S
U526 O528 2.458 . S
U526 C529 2.984 . S
U526 C530 2.847 . S
U526 C543 2.882 . S
U526 O544 2.441 . S
U526 O545 2.420 . S
U526 O546 2.455 . S
U526 O547 2.449 . S
O527 U526 2.454 . S
O527 C529 1.353 . S
O528 U526 2.458 . S
O528 C529 1.286 . S
C529 U526 2.984 . S
C529 O527 1.353 . S
C529 O528 1.286 . S
C529 C531 1.363 . S
C530 C520 1.465 . S
C530 U526 2.847 . S
C530 O544 1.249 . S
C530 O545 1.202 . S
C531 C529 1.363 . S
C531 C533 1.408 . S
C531 C536 1.342 . S
C532 C533 1.310 . S
C532 C535 1.461 . S
C532 H552 0.932 . S
C533 C531 1.408 . S
C533 C532 1.310 . S
C533 H553 0.930 . S
C534 C535 1.474 . S
C534 C536 1.285 . S
C534 H554 0.929 . S
C535 C532 1.461 . S
C535 C534 1.474 . S
C536 C531 1.342 . S
C536 C534 1.285 . S
C536 H555 0.930 . S
C537 C540 1.424 . S
C537 C542 1.245 . S
C537 C543 1.428 . S
C538 C541 1.260 . S
C538 C542 1.477 . S
C538 H556 0.932 . S
C539 C540 1.384 . S
C539 C541 1.479 . S
C539 H557 0.929 . S
C540 C537 1.424 . S
C540 C539 1.384 . S
C540 H558 0.928 . S
C541 C538 1.260 . S
C541 C539 1.479 . S
C542 C537 1.245 . S
C542 C538 1.477 . S
C542 H559 0.932 . S
C543 U526 2.882 . S
C543 C537 1.428 . S
C543 O546 1.301 . S
C543 O547 1.282 . S
O544 U526 2.441 . S
O544 C530 1.249 . S
O545 U526 2.420 . S
O545 C530 1.202 . S
O546 U526 2.455 . S
O546 C543 1.301 . S
O547 U526 2.449 . S
O547 C543 1.282 . S
H548 C521 0.931 . S
H549 C523 0.929 . S
H550 C524 0.930 . S
H551 C525 0.931 . S
H552 C532 0.932 . S
H553 C533 0.930 . S
H554 C534 0.929 . S
H555 C536 0.930 . S
H556 C538 0.932 . S
H557 C539 0.929 . S
H558 C540 0.928 . S
H559 C542 0.932 . S
C560 C561 1.264 . S
C560 C565 1.479 . S
C560 C570 1.465 . S
C561 C560 1.264 . S
C561 C563 1.339 . S
C561 H588 0.931 . S
C562 C563 1.395 . S
C562 C564 1.320 . S
C563 C561 1.339 . S
C563 C562 1.395 . S
C563 H589 0.929 . S
C564 C562 1.320 . S
C564 C565 1.405 . S
C564 H590 0.930 . S
C565 C560 1.479 . S
C565 C564 1.405 . S
C565 H591 0.931 . S
U566 O567 2.454 . S
U566 O568 2.458 . S
U566 C569 2.984 . S
U566 C570 2.847 . S
U566 C583 2.882 . S
U566 O584 2.441 . S
U566 O585 2.420 . S
U566 O586 2.455 . S
U566 O587 2.449 . S
O567 U566 2.454 . S
O567 C569 1.353 . S
O568 U566 2.458 . S
O568 C569 1.286 . S
C569 U566 2.984 . S
C569 O567 1.353 . S
C569 O568 1.286 . S
C569 C571 1.363 . S
C570 C560 1.465 . S
C570 U566 2.847 . S
C570 O584 1.249 . S
C570 O585 1.202 . S
C571 C569 1.363 . S
C571 C573 1.408 . S
C571 C576 1.342 . S
C572 C573 1.310 . S
C572 C575 1.461 . S
C572 H592 0.932 . S
C573 C571 1.408 . S
C573 C572 1.310 . S
C573 H593 0.930 . S
C574 C575 1.474 . S
C574 C576 1.285 . S
C574 H594 0.929 . S
C575 C572 1.461 . S
C575 C574 1.474 . S
C576 C571 1.342 . S
C576 C574 1.285 . S
C576 H595 0.930 . S
C577 C580 1.424 . S
C577 C582 1.245 . S
C577 C583 1.428 . S
C578 C581 1.260 . S
C578 C582 1.477 . S
C578 H596 0.932 . S
C579 C580 1.384 . S
C579 C581 1.479 . S
C579 H597 0.929 . S
C580 C577 1.424 . S
C580 C579 1.384 . S
C580 H598 0.928 . S
C581 C578 1.260 . S
C581 C579 1.479 . S
C582 C577 1.245 . S
C582 C578 1.477 . S
C582 H599 0.932 . S
C583 U566 2.882 . S
C583 C577 1.428 . S
C583 O586 1.301 . S
C583 O587 1.282 . S
O584 U566 2.441 . S
O584 C570 1.249 . S
O585 U566 2.420 . S
O585 C570 1.202 . S
O586 U566 2.455 . S
O586 C583 1.301 . S
O587 U566 2.449 . S
O587 C583 1.282 . S
H588 C561 0.931 . S
H589 C563 0.929 . S
H590 C564 0.930 . S
H591 C565 0.931 . S
H592 C572 0.932 . S
H593 C573 0.930 . S
H594 C574 0.929 . S
H595 C576 0.930 . S
H596 C578 0.932 . S
H597 C579 0.929 . S
H598 C580 0.928 . S
H599 C582 0.932 . S
C600 C601 1.264 . S
C600 C605 1.479 . S
C600 C610 1.465 . S
C601 C600 1.264 . S
C601 C603 1.339 . S
C601 H628 0.931 . S
C602 C603 1.395 . S
C602 C604 1.320 . S
C603 C601 1.339 . S
C603 C602 1.395 . S
C603 H629 0.929 . S
C604 C602 1.320 . S
C604 C605 1.405 . S
C604 H630 0.930 . S
C605 C600 1.479 . S
C605 C604 1.405 . S
C605 H631 0.931 . S
U606 O607 2.454 . S
U606 O608 2.458 . S
U606 C609 2.984 . S
U606 C610 2.847 . S
U606 C623 2.882 . S
U606 O624 2.441 . S
U606 O625 2.420 . S
U606 O626 2.455 . S
U606 O627 2.449 . S
O607 U606 2.454 . S
O607 C609 1.353 . S
O608 U606 2.458 . S
O608 C609 1.286 . S
C609 U606 2.984 . S
C609 O607 1.353 . S
C609 O608 1.286 . S
C609 C611 1.363 . S
C610 C600 1.465 . S
C610 U606 2.847 . S
C610 O624 1.249 . S
C610 O625 1.202 . S
C611 C609 1.363 . S
C611 C613 1.408 . S
C611 C616 1.342 . S
C612 C613 1.310 . S
C612 C615 1.461 . S
C612 H632 0.932 . S
C613 C611 1.408 . S
C613 C612 1.310 . S
C613 H633 0.930 . S
C614 C615 1.474 . S
C614 C616 1.285 . S
C614 H634 0.929 . S
C615 C612 1.461 . S
C615 C614 1.474 . S
C616 C611 1.342 . S
C616 C614 1.285 . S
C616 H635 0.930 . S
C617 C620 1.424 . S
C617 C622 1.245 . S
C617 C623 1.428 . S
C618 C621 1.260 . S
C618 C622 1.477 . S
C618 H636 0.932 . S
C619 C620 1.384 . S
C619 C621 1.479 . S
C619 H637 0.929 . S
C620 C617 1.424 . S
C620 C619 1.384 . S
C620 H638 0.928 . S
C621 C618 1.260 . S
C621 C619 1.479 . S
C622 C617 1.245 . S
C622 C618 1.477 . S
C622 H639 0.932 . S
C623 U606 2.882 . S
C623 C617 1.428 . S
C623 O626 1.301 . S
C623 O627 1.282 . S
O624 U606 2.441 . S
O624 C610 1.249 . S
O625 U606 2.420 . S
O625 C610 1.202 . S
O626 U606 2.455 . S
O626 C623 1.301 . S
O627 U606 2.449 . S
O627 C623 1.282 . S
H628 C601 0.931 . S
H629 C603 0.929 . S
H630 C604 0.930 . S
H631 C605 0.931 . S
H632 C612 0.932 . S
H633 C613 0.930 . S
H634 C614 0.929 . S
H635 C616 0.930 . S
H636 C618 0.932 . S
H637 C619 0.929 . S
H638 C620 0.928 . S
H639 C622 0.932 . S
C640 C641 1.264 . S
C640 C645 1.479 . S
C640 C650 1.465 . S
C641 C640 1.264 . S
C641 C643 1.339 . S
C641 H668 0.931 . S
C642 C643 1.395 . S
C642 C644 1.320 . S
C643 C641 1.339 . S
C643 C642 1.395 . S
C643 H669 0.929 . S
C644 C642 1.320 . S
C644 C645 1.405 . S
C644 H670 0.930 . S
C645 C640 1.479 . S
C645 C644 1.405 . S
C645 H671 0.931 . S
U646 O647 2.454 . S
U646 O648 2.458 . S
U646 C649 2.984 . S
U646 C650 2.847 . S
U646 C663 2.882 . S
U646 O664 2.441 . S
U646 O665 2.420 . S
U646 O666 2.455 . S
U646 O667 2.449 . S
O647 U646 2.454 . S
O647 C649 1.353 . S
O648 U646 2.458 . S
O648 C649 1.286 . S
C649 U646 2.984 . S
C649 O647 1.353 . S
C649 O648 1.286 . S
C649 C651 1.363 . S
C650 C640 1.465 . S
C650 U646 2.847 . S
C650 O664 1.249 . S
C650 O665 1.202 . S
C651 C649 1.363 . S
C651 C653 1.408 . S
C651 C656 1.342 . S
C652 C653 1.310 . S
C652 C655 1.461 . S
C652 H672 0.932 . S
C653 C651 1.408 . S
C653 C652 1.310 . S
C653 H673 0.930 . S
C654 C655 1.474 . S
C654 C656 1.285 . S
C654 H674 0.929 . S
C655 C652 1.461 . S
C655 C654 1.474 . S
C656 C651 1.342 . S
C656 C654 1.285 . S
C656 H675 0.930 . S
C657 C660 1.424 . S
C657 C662 1.245 . S
C657 C663 1.428 . S
C658 C661 1.260 . S
C658 C662 1.477 . S
C658 H676 0.932 . S
C659 C660 1.384 . S
C659 C661 1.479 . S
C659 H677 0.929 . S
C660 C657 1.424 . S
C660 C659 1.384 . S
C660 H678 0.928 . S
C661 C658 1.260 . S
C661 C659 1.479 . S
C662 C657 1.245 . S
C662 C658 1.477 . S
C662 H679 0.932 . S
C663 U646 2.882 . S
C663 C657 1.428 . S
C663 O666 1.301 . S
C663 O667 1.282 . S
O664 U646 2.441 . S
O664 C650 1.249 . S
O665 U646 2.420 . S
O665 C650 1.202 . S
O666 U646 2.455 . S
O666 C663 1.301 . S
O667 U646 2.449 . S
O667 C663 1.282 . S
H668 C641 0.931 . S
H669 C643 0.929 . S
H670 C644 0.930 . S
H671 C645 0.931 . S
H672 C652 0.932 . S
H673 C653 0.930 . S
H674 C654 0.929 . S
H675 C656 0.930 . S
H676 C658 0.932 . S
H677 C659 0.929 . S
H678 C660 0.928 . S
H679 C662 0.932 . S
C680 C681 1.264 . S
C680 C685 1.479 . S
C680 C690 1.465 . S
C681 C680 1.264 . S
C681 C683 1.339 . S
C681 H708 0.931 . S
C682 C683 1.395 . S
C682 C684 1.320 . S
C683 C681 1.339 . S
C683 C682 1.395 . S
C683 H709 0.929 . S
C684 C682 1.320 . S
C684 C685 1.405 . S
C684 H710 0.930 . S
C685 C680 1.479 . S
C685 C684 1.405 . S
C685 H711 0.931 . S
U686 O687 2.454 . S
U686 O688 2.458 . S
U686 C689 2.984 . S
U686 C690 2.847 . S
U686 C703 2.882 . S
U686 O704 2.441 . S
U686 O705 2.420 . S
U686 O706 2.455 . S
U686 O707 2.449 . S
O687 U686 2.454 . S
O687 C689 1.353 . S
O688 U686 2.458 . S
O688 C689 1.286 . S
C689 U686 2.984 . S
C689 O687 1.353 . S
C689 O688 1.286 . S
C689 C691 1.363 . S
C690 C680 1.465 . S
C690 U686 2.847 . S
C690 O704 1.249 . S
C690 O705 1.202 . S
C691 C689 1.363 . S
C691 C693 1.408 . S
C691 C696 1.342 . S
C692 C693 1.310 . S
C692 C695 1.461 . S
C692 H712 0.932 . S
C693 C691 1.408 . S
C693 C692 1.310 . S
C693 H713 0.930 . S
C694 C695 1.474 . S
C694 C696 1.285 . S
C694 H714 0.929 . S
C695 C692 1.461 . S
C695 C694 1.474 . S
C696 C691 1.342 . S
C696 C694 1.285 . S
C696 H715 0.930 . S
C697 C700 1.424 . S
C697 C702 1.245 . S
C697 C703 1.428 . S
C698 C701 1.260 . S
C698 C702 1.477 . S
C698 H716 0.932 . S
C699 C700 1.384 . S
C699 C701 1.479 . S
C699 H717 0.929 . S
C700 C697 1.424 . S
C700 C699 1.384 . S
C700 H718 0.928 . S
C701 C698 1.260 . S
C701 C699 1.479 . S
C702 C697 1.245 . S
C702 C698 1.477 . S
C702 H719 0.932 . S
C703 U686 2.882 . S
C703 C697 1.428 . S
C703 O706 1.301 . S
C703 O707 1.282 . S
O704 U686 2.441 . S
O704 C690 1.249 . S
O705 U686 2.420 . S
O705 C690 1.202 . S
O706 U686 2.455 . S
O706 C703 1.301 . S
O707 U686 2.449 . S
O707 C703 1.282 . S
H708 C681 0.931 . S
H709 C683 0.929 . S
H710 C684 0.930 . S
H711 C685 0.931 . S
H712 C692 0.932 . S
H713 C693 0.930 . S
H714 C694 0.929 . S
H715 C696 0.930 . S
H716 C698 0.932 . S
H717 C699 0.929 . S
H718 C700 0.928 . S
H719 C702 0.932 . S
C720 C721 1.264 . S
C720 C725 1.479 . S
C720 C730 1.465 . S
C721 C720 1.264 . S
C721 C723 1.339 . S
C721 H748 0.931 . S
C722 C723 1.395 . S
C722 C724 1.320 . S
C723 C721 1.339 . S
C723 C722 1.395 . S
C723 H749 0.929 . S
C724 C722 1.320 . S
C724 C725 1.405 . S
C724 H750 0.930 . S
C725 C720 1.479 . S
C725 C724 1.405 . S
C725 H751 0.931 . S
U726 O727 2.454 . S
U726 O728 2.458 . S
U726 C729 2.984 . S
U726 C730 2.847 . S
U726 C743 2.882 . S
U726 O744 2.441 . S
U726 O745 2.420 . S
U726 O746 2.455 . S
U726 O747 2.449 . S
O727 U726 2.454 . S
O727 C729 1.353 . S
O728 U726 2.458 . S
O728 C729 1.286 . S
C729 U726 2.984 . S
C729 O727 1.353 . S
C729 O728 1.286 . S
C729 C731 1.363 . S
C730 C720 1.465 . S
C730 U726 2.847 . S
C730 O744 1.249 . S
C730 O745 1.202 . S
C731 C729 1.363 . S
C731 C733 1.408 . S
C731 C736 1.342 . S
C732 C733 1.310 . S
C732 C735 1.461 . S
C732 H752 0.932 . S
C733 C731 1.408 . S
C733 C732 1.310 . S
C733 H753 0.930 . S
C734 C735 1.474 . S
C734 C736 1.285 . S
C734 H754 0.929 . S
C735 C732 1.461 . S
C735 C734 1.474 . S
C736 C731 1.342 . S
C736 C734 1.285 . S
C736 H755 0.930 . S
C737 C740 1.424 . S
C737 C742 1.245 . S
C737 C743 1.428 . S
C738 C741 1.260 . S
C738 C742 1.477 . S
C738 H756 0.932 . S
C739 C740 1.384 . S
C739 C741 1.479 . S
C739 H757 0.929 . S
C740 C737 1.424 . S
C740 C739 1.384 . S
C740 H758 0.928 . S
C741 C738 1.260 . S
C741 C739 1.479 . S
C742 C737 1.245 . S
C742 C738 1.477 . S
C742 H759 0.932 . S
C743 U726 2.882 . S
C743 C737 1.428 . S
C743 O746 1.301 . S
C743 O747 1.282 . S
O744 U726 2.441 . S
O744 C730 1.249 . S
O745 U726 2.420 . S
O745 C730 1.202 . S
O746 U726 2.455 . S
O746 C743 1.301 . S
O747 U726 2.449 . S
O747 C743 1.282 . S
H748 C721 0.931 . S
H749 C723 0.929 . S
H750 C724 0.930 . S
H751 C725 0.931 . S
H752 C732 0.932 . S
H753 C733 0.930 . S
H754 C734 0.929 . S
H755 C736 0.930 . S
H756 C738 0.932 . S
H757 C739 0.929 . S
H758 C740 0.928 . S
H759 C742 0.932 . S
C760 C761 1.264 . S
C760 C765 1.479 . S
C760 C770 1.465 . S
C761 C760 1.264 . S
C761 C763 1.339 . S
C761 H788 0.931 . S
C762 C763 1.395 . S
C762 C764 1.320 . S
C763 C761 1.339 . S
C763 C762 1.395 . S
C763 H789 0.929 . S
C764 C762 1.320 . S
C764 C765 1.405 . S
C764 H790 0.930 . S
C765 C760 1.479 . S
C765 C764 1.405 . S
C765 H791 0.931 . S
U766 O767 2.454 . S
U766 O768 2.458 . S
U766 C769 2.984 . S
U766 C770 2.847 . S
U766 C783 2.882 . S
U766 O784 2.441 . S
U766 O785 2.420 . S
U766 O786 2.455 . S
U766 O787 2.449 . S
O767 U766 2.454 . S
O767 C769 1.353 . S
O768 U766 2.458 . S
O768 C769 1.286 . S
C769 U766 2.984 . S
C769 O767 1.353 . S
C769 O768 1.286 . S
C769 C771 1.363 . S
C770 C760 1.465 . S
C770 U766 2.847 . S
C770 O784 1.249 . S
C770 O785 1.202 . S
C771 C769 1.363 . S
C771 C773 1.408 . S
C771 C776 1.342 . S
C772 C773 1.310 . S
C772 C775 1.461 . S
C772 H792 0.932 . S
C773 C771 1.408 . S
C773 C772 1.310 . S
C773 H793 0.930 . S
C774 C775 1.474 . S
C774 C776 1.285 . S
C774 H794 0.929 . S
C775 C772 1.461 . S
C775 C774 1.474 . S
C776 C771 1.342 . S
C776 C774 1.285 . S
C776 H795 0.930 . S
C777 C780 1.424 . S
C777 C782 1.245 . S
C777 C783 1.428 . S
C778 C781 1.260 . S
C778 C782 1.477 . S
C778 H796 0.932 . S
C779 C780 1.384 . S
C779 C781 1.479 . S
C779 H797 0.929 . S
C780 C777 1.424 . S
C780 C779 1.384 . S
C780 H798 0.928 . S
C781 C778 1.260 . S
C781 C779 1.479 . S
C782 C777 1.245 . S
C782 C778 1.477 . S
C782 H799 0.932 . S
C783 U766 2.882 . S
C783 C777 1.428 . S
C783 O786 1.301 . S
C783 O787 1.282 . S
O784 U766 2.441 . S
O784 C770 1.249 . S
O785 U766 2.420 . S
O785 C770 1.202 . S
O786 U766 2.455 . S
O786 C783 1.301 . S
O787 U766 2.449 . S
O787 C783 1.282 . S
H788 C761 0.931 . S
H789 C763 0.929 . S
H790 C764 0.930 . S
H791 C765 0.931 . S
H792 C772 0.932 . S
H793 C773 0.930 . S
H794 C774 0.929 . S
H795 C776 0.930 . S
H796 C778 0.932 . S
H797 C779 0.929 . S
H798 C780 0.928 . S
H799 C782 0.932 . S
C800 C801 1.264 . S
C800 C805 1.479 . S
C800 C810 1.465 . S
C801 C800 1.264 . S
C801 C803 1.339 . S
C801 H828 0.931 . S
C802 C803 1.395 . S
C802 C804 1.320 . S
C803 C801 1.339 . S
C803 C802 1.395 . S
C803 H829 0.929 . S
C804 C802 1.320 . S
C804 C805 1.405 . S
C804 H830 0.930 . S
C805 C800 1.479 . S
C805 C804 1.405 . S
C805 H831 0.931 . S
U806 O807 2.454 . S
U806 O808 2.458 . S
U806 C809 2.984 . S
U806 C810 2.847 . S
U806 C823 2.882 . S
U806 O824 2.441 . S
U806 O825 2.420 . S
U806 O826 2.455 . S
U806 O827 2.449 . S
O807 U806 2.454 . S
O807 C809 1.353 . S
O808 U806 2.458 . S
O808 C809 1.286 . S
C809 U806 2.984 . S
C809 O807 1.353 . S
C809 O808 1.286 . S
C809 C811 1.363 . S
C810 C800 1.465 . S
C810 U806 2.847 . S
C810 O824 1.249 . S
C810 O825 1.202 . S
C811 C809 1.363 . S
C811 C813 1.408 . S
C811 C816 1.342 . S
C812 C813 1.310 . S
C812 C815 1.461 . S
C812 H832 0.932 . S
C813 C811 1.408 . S
C813 C812 1.310 . S
C813 H833 0.930 . S
C814 C815 1.474 . S
C814 C816 1.285 . S
C814 H834 0.929 . S
C815 C812 1.461 . S
C815 C814 1.474 . S
C816 C811 1.342 . S
C816 C814 1.285 . S
C816 H835 0.930 . S
C817 C820 1.424 . S
C817 C822 1.245 . S
C817 C823 1.428 . S
C818 C821 1.260 . S
C818 C822 1.477 . S
C818 H836 0.932 . S
C819 C820 1.384 . S
C819 C821 1.479 . S
C819 H837 0.929 . S
C820 C817 1.424 . S
C820 C819 1.384 . S
C820 H838 0.928 . S
C821 C818 1.260 . S
C821 C819 1.479 . S
C822 C817 1.245 . S
C822 C818 1.477 . S
C822 H839 0.932 . S
C823 U806 2.882 . S
C823 C817 1.428 . S
C823 O826 1.301 . S
C823 O827 1.282 . S
O824 U806 2.441 . S
O824 C810 1.249 . S
O825 U806 2.420 . S
O825 C810 1.202 . S
O826 U806 2.455 . S
O826 C823 1.301 . S
O827 U806 2.449 . S
O827 C823 1.282 . S
H828 C801 0.931 . S
H829 C803 0.929 . S
H830 C804 0.930 . S
H831 C805 0.931 . S
H832 C812 0.932 . S
H833 C813 0.930 . S
H834 C814 0.929 . S
H835 C816 0.930 . S
H836 C818 0.932 . S
H837 C819 0.929 . S
H838 C820 0.928 . S
H839 C822 0.932 . S
C840 C841 1.264 . S
C840 C845 1.479 . S
C840 C850 1.465 . S
C841 C840 1.264 . S
C841 C843 1.339 . S
C841 H868 0.931 . S
C842 C843 1.395 . S
C842 C844 1.320 . S
C843 C841 1.339 . S
C843 C842 1.395 . S
C843 H869 0.929 . S
C844 C842 1.320 . S
C844 C845 1.405 . S
C844 H870 0.930 . S
C845 C840 1.479 . S
C845 C844 1.405 . S
C845 H871 0.931 . S
U846 O847 2.454 . S
U846 O848 2.458 . S
U846 C849 2.984 . S
U846 C850 2.847 . S
U846 C863 2.882 . S
U846 O864 2.441 . S
U846 O865 2.420 . S
U846 O866 2.455 . S
U846 O867 2.449 . S
O847 U846 2.454 . S
O847 C849 1.353 . S
O848 U846 2.458 . S
O848 C849 1.286 . S
C849 U846 2.984 . S
C849 O847 1.353 . S
C849 O848 1.286 . S
C849 C851 1.363 . S
C850 C840 1.465 . S
C850 U846 2.847 . S
C850 O864 1.249 . S
C850 O865 1.202 . S
C851 C849 1.363 . S
C851 C853 1.408 . S
C851 C856 1.342 . S
C852 C853 1.310 . S
C852 C855 1.461 . S
C852 H872 0.932 . S
C853 C851 1.408 . S
C853 C852 1.310 . S
C853 H873 0.930 . S
C854 C855 1.474 . S
C854 C856 1.285 . S
C854 H874 0.929 . S
C855 C852 1.461 . S
C855 C854 1.474 . S
C856 C851 1.342 . S
C856 C854 1.285 . S
C856 H875 0.930 . S
C857 C860 1.424 . S
C857 C862 1.245 . S
C857 C863 1.428 . S
C858 C861 1.260 . S
C858 C862 1.477 . S
C858 H876 0.932 . S
C859 C860 1.384 . S
C859 C861 1.479 . S
C859 H877 0.929 . S
C860 C857 1.424 . S
C860 C859 1.384 . S
C860 H878 0.928 . S
C861 C858 1.260 . S
C861 C859 1.479 . S
C862 C857 1.245 . S
C862 C858 1.477 . S
C862 H879 0.932 . S
C863 U846 2.882 . S
C863 C857 1.428 . S
C863 O866 1.301 . S
C863 O867 1.282 . S
O864 U846 2.441 . S
O864 C850 1.249 . S
O865 U846 2.420 . S
O865 C850 1.202 . S
O866 U846 2.455 . S
O866 C863 1.301 . S
O867 U846 2.449 . S
O867 C863 1.282 . S
H868 C841 0.931 . S
H869 C843 0.929 . S
H870 C844 0.930 . S
H871 C845 0.931 . S
H872 C852 0.932 . S
H873 C853 0.930 . S
H874 C854 0.929 . S
H875 C856 0.930 . S
H876 C858 0.932 . S
H877 C859 0.929 . S
H878 C860 0.928 . S
H879 C862 0.932 . S
C880 C881 1.264 . S
C880 C885 1.479 . S
C880 C890 1.465 . S
C881 C880 1.264 . S
C881 C883 1.339 . S
C881 H908 0.931 . S
C882 C883 1.395 . S
C882 C884 1.320 . S
C883 C881 1.339 . S
C883 C882 1.395 . S
C883 H909 0.929 . S
C884 C882 1.320 . S
C884 C885 1.405 . S
C884 H910 0.930 . S
C885 C880 1.479 . S
C885 C884 1.405 . S
C885 H911 0.931 . S
U886 O887 2.454 . S
U886 O888 2.458 . S
U886 C889 2.984 . S
U886 C890 2.847 . S
U886 C903 2.882 . S
U886 O904 2.441 . S
U886 O905 2.420 . S
U886 O906 2.455 . S
U886 O907 2.449 . S
O887 U886 2.454 . S
O887 C889 1.353 . S
O888 U886 2.458 . S
O888 C889 1.286 . S
C889 U886 2.984 . S
C889 O887 1.353 . S
C889 O888 1.286 . S
C889 C891 1.363 . S
C890 C880 1.465 . S
C890 U886 2.847 . S
C890 O904 1.249 . S
C890 O905 1.202 . S
C891 C889 1.363 . S
C891 C893 1.408 . S
C891 C896 1.342 . S
C892 C893 1.310 . S
C892 C895 1.461 . S
C892 H912 0.932 . S
C893 C891 1.408 . S
C893 C892 1.310 . S
C893 H913 0.930 . S
C894 C895 1.474 . S
C894 C896 1.285 . S
C894 H914 0.929 . S
C895 C892 1.461 . S
C895 C894 1.474 . S
C896 C891 1.342 . S
C896 C894 1.285 . S
C896 H915 0.930 . S
C897 C900 1.424 . S
C897 C902 1.245 . S
C897 C903 1.428 . S
C898 C901 1.260 . S
C898 C902 1.477 . S
C898 H916 0.932 . S
C899 C900 1.384 . S
C899 C901 1.479 . S
C899 H917 0.929 . S
C900 C897 1.424 . S
C900 C899 1.384 . S
C900 H918 0.928 . S
C901 C898 1.260 . S
C901 C899 1.479 . S
C902 C897 1.245 . S
C902 C898 1.477 . S
C902 H919 0.932 . S
C903 U886 2.882 . S
C903 C897 1.428 . S
C903 O906 1.301 . S
C903 O907 1.282 . S
O904 U886 2.441 . S
O904 C890 1.249 . S
O905 U886 2.420 . S
O905 C890 1.202 . S
O906 U886 2.455 . S
O906 C903 1.301 . S
O907 U886 2.449 . S
O907 C903 1.282 . S
H908 C881 0.931 . S
H909 C883 0.929 . S
H910 C884 0.930 . S
H911 C885 0.931 . S
H912 C892 0.932 . S
H913 C893 0.930 . S
H914 C894 0.929 . S
H915 C896 0.930 . S
H916 C898 0.932 . S
H917 C899 0.929 . S
H918 C900 0.928 . S
H919 C902 0.932 . S
C920 C921 1.264 . S
C920 C925 1.479 . S
C920 C930 1.465 . S
C921 C920 1.264 . S
C921 C923 1.339 . S
C921 H948 0.931 . S
C922 C923 1.395 . S
C922 C924 1.320 . S
C923 C921 1.339 . S
C923 C922 1.395 . S
C923 H949 0.929 . S
C924 C922 1.320 . S
C924 C925 1.405 . S
C924 H950 0.930 . S
C925 C920 1.479 . S
C925 C924 1.405 . S
C925 H951 0.931 . S
U926 O927 2.454 . S
U926 O928 2.458 . S
U926 C929 2.984 . S
U926 C930 2.847 . S
U926 C943 2.882 . S
U926 O944 2.441 . S
U926 O945 2.420 . S
U926 O946 2.455 . S
U926 O947 2.449 . S
O927 U926 2.454 . S
O927 C929 1.353 . S
O928 U926 2.458 . S
O928 C929 1.286 . S
C929 U926 2.984 . S
C929 O927 1.353 . S
C929 O928 1.286 . S
C929 C931 1.363 . S
C930 C920 1.465 . S
C930 U926 2.847 . S
C930 O944 1.249 . S
C930 O945 1.202 . S
C931 C929 1.363 . S
C931 C933 1.408 . S
C931 C936 1.342 . S
C932 C933 1.310 . S
C932 C935 1.461 . S
C932 H952 0.932 . S
C933 C931 1.408 . S
C933 C932 1.310 . S
C933 H953 0.930 . S
C934 C935 1.474 . S
C934 C936 1.285 . S
C934 H954 0.929 . S
C935 C932 1.461 . S
C935 C934 1.474 . S
C936 C931 1.342 . S
C936 C934 1.285 . S
C936 H955 0.930 . S
C937 C940 1.424 . S
C937 C942 1.245 . S
C937 C943 1.428 . S
C938 C941 1.260 . S
C938 C942 1.477 . S
C938 H956 0.932 . S
C939 C940 1.384 . S
C939 C941 1.479 . S
C939 H957 0.929 . S
C940 C937 1.424 . S
C940 C939 1.384 . S
C940 H958 0.928 . S
C941 C938 1.260 . S
C941 C939 1.479 . S
C942 C937 1.245 . S
C942 C938 1.477 . S
C942 H959 0.932 . S
C943 U926 2.882 . S
C943 C937 1.428 . S
C943 O946 1.301 . S
C943 O947 1.282 . S
O944 U926 2.441 . S
O944 C930 1.249 . S
O945 U926 2.420 . S
O945 C930 1.202 . S
O946 U926 2.455 . S
O946 C943 1.301 . S
O947 U926 2.449 . S
O947 C943 1.282 . S
H948 C921 0.931 . S
H949 C923 0.929 . S
H950 C924 0.930 . S
H951 C925 0.931 . S
H952 C932 0.932 . S
H953 C933 0.930 . S
H954 C934 0.929 . S
H955 C936 0.930 . S
H956 C938 0.932 . S
H957 C939 0.929 . S
H958 C940 0.928 . S
H959 C942 0.932 . S
C960 O986 1.283 . S
C960 O1004 1.283 . S
C961 O987 1.283 . S
C961 O1002 1.283 . S
C962 O988 1.283 . S
C962 O1005 1.283 . S
C963 O989 1.283 . S
C963 O1003 1.283 . S
C964 O990 1.283 . S
C964 O999 1.283 . S
C965 O991 1.283 . S
C965 O1001 1.283 . S
C966 O992 1.283 . S
C966 O998 1.283 . S
C967 O993 1.283 . S
C967 O1000 1.283 . S
C968 O994 1.283 . S
C968 O1009 1.283 . S
C969 O995 1.283 . S
C969 O1007 1.283 . S
C970 O996 1.283 . S
C970 O1008 1.283 . S
C971 O997 1.283 . S
C971 O1006 1.283 . S
Eu972 O973 2.370 1_455 S
Eu972 O974 2.370 . S
Eu972 O977 2.370 1_455 S
Eu972 O978 2.370 . S
Eu972 O986 2.363 . S
Eu972 O987 2.363 . S
Eu972 O1000 2.363 . S
Eu972 O1001 2.363 1_455 S
O973 Eu972 2.370 1_655 S
O973 Eu975 2.358 1_565 S
O973 Eu980 2.359 1_665 S
O974 Eu972 2.370 . S
O974 Eu976 2.359 1_565 S
O974 Eu979 2.358 1_565 S
Eu975 O973 2.358 1_545 S
Eu975 O977 2.358 1_545 S
Eu975 O981 2.383 . S
Eu975 O982 2.383 . S
Eu975 O990 2.384 . S
Eu975 O991 2.342 1_545 S
Eu975 O1006 2.363 . S
Eu975 O1007 2.363 . S
Eu976 O974 2.359 1_545 S
Eu976 O978 2.359 1_545 S
Eu976 O983 2.381 . S
Eu976 O984 2.381 . S
Eu976 O992 2.382 . S
Eu976 O993 2.344 1_545 S
Eu976 O1008 2.363 . S
Eu976 O1009 2.363 . S
O977 Eu972 2.370 1_655 S
O977 Eu975 2.358 1_565 S
O977 Eu979 2.358 1_665 S
O978 Eu972 2.370 . S
O978 Eu976 2.359 1_565 S
O978 Eu980 2.359 1_565 S
Eu979 O974 2.358 1_545 S
Eu979 O977 2.358 1_445 S
Eu979 O981 2.382 1_455 S
Eu979 O984 2.382 . S
Eu979 O996 2.363 . S
Eu979 O997 2.363 1_455 S
Eu979 O1004 2.342 1_545 S
Eu979 O1005 2.383 . S
Eu980 O973 2.359 1_445 S
Eu980 O978 2.359 1_545 S
Eu980 O982 2.382 1_455 S
Eu980 O983 2.382 . S
Eu980 O994 2.363 . S
Eu980 O995 2.363 1_455 S
Eu980 O1002 2.344 1_545 S
Eu980 O1003 2.382 . S
O981 Eu975 2.383 . S
O981 Eu979 2.382 1_655 S
O981 Eu985 2.370 1_655 S
O982 Eu975 2.383 . S
O982 Eu980 2.382 1_655 S
O982 Eu985 2.370 1_655 S
O983 Eu976 2.381 . S
O983 Eu980 2.382 . S
O983 Eu985 2.370 . S
O984 Eu976 2.381 . S
O984 Eu979 2.382 . S
O984 Eu985 2.370 . S
Eu985 O981 2.370 1_455 S
Eu985 O982 2.370 1_455 S
Eu985 O983 2.370 . S
Eu985 O984 2.370 . S
Eu985 O988 2.363 . S
Eu985 O989 2.363 . S
Eu985 O998 2.363 . S
Eu985 O999 2.363 1_455 S
O986 C960 1.283 . S
O986 Eu972 2.363 . S
O987 C961 1.283 . S
O987 Eu972 2.363 . S
O988 C962 1.283 . S
O988 Eu985 2.363 . S
O989 C963 1.283 . S
O989 Eu985 2.363 . S
O990 C964 1.283 . S
O990 Eu975 2.384 . S
O991 C965 1.283 . S
O991 Eu975 2.342 1_565 S
O992 C966 1.283 . S
O992 Eu976 2.382 . S
O993 C967 1.283 . S
O993 Eu976 2.344 1_565 S
O994 C968 1.283 . S
O994 Eu980 2.363 . S
O995 C969 1.283 . S
O995 Eu980 2.363 1_655 S
O996 C970 1.283 . S
O996 Eu979 2.363 . S
O997 C971 1.283 . S
O997 Eu979 2.363 1_655 S
O998 C966 1.283 . S
O998 Eu985 2.363 . S
O999 C964 1.283 . S
O999 Eu985 2.363 1_655 S
O1000 C967 1.283 . S
O1000 Eu972 2.363 . S
O1001 C965 1.283 . S
O1001 Eu972 2.363 1_655 S
O1002 C961 1.283 . S
O1002 Eu980 2.344 1_565 S
O1003 C963 1.283 . S
O1003 Eu980 2.382 . S
O1004 C960 1.283 . S
O1004 Eu979 2.342 1_565 S
O1005 C962 1.283 . S
O1005 Eu979 2.383 . S
O1006 C971 1.283 . S
O1006 Eu975 2.363 . S
O1007 C969 1.283 . S
O1007 Eu975 2.363 . S
O1008 C970 1.283 . S
O1008 Eu976 2.363 . S
O1009 C968 1.283 . S
O1009 Eu976 2.363 . S
C1010 O1036 1.283 . S
C1010 O1054 1.283 . S
C1011 O1037 1.283 . S
C1011 O1052 1.283 . S
C1012 O1038 1.283 . S
C1012 O1055 1.283 . S
C1013 O1039 1.283 . S
C1013 O1053 1.283 . S
C1014 O1040 1.283 . S
C1014 O1049 1.283 . S
C1015 O1041 1.283 . S
C1015 O1051 1.283 . S
C1016 O1042 1.283 . S
C1016 O1048 1.283 . S
C1017 O1043 1.283 . S
C1017 O1050 1.283 . S
C1018 O1044 1.283 . S
C1018 O1059 1.283 . S
C1019 O1045 1.283 . S
C1019 O1057 1.283 . S
C1020 O1046 1.283 . S
C1020 O1058 1.283 . S
C1021 O1047 1.283 . S
C1021 O1056 1.283 . S
Eu1022 O1023 2.389 . S
Eu1022 O1024 2.352 1_545 S
Eu1022 O1027 2.352 1_545 S
Eu1022 O1028 2.389 . S
Eu1022 O1036 2.332 1_545 S
Eu1022 O1037 2.394 . S
Eu1022 O1050 2.363 . S
Eu1022 O1051 2.363 . S
O1023 Eu1022 2.389 . S
O1023 Eu1025 2.397 . S
O1023 Eu1030 2.378 . S
O1024 Eu1022 2.352 1_565 S
O1024 Eu1026 2.358 1_565 S
O1024 Eu1029 2.375 . S
Eu1025 O1023 2.397 . S
Eu1025 O1027 2.357 1_545 S
Eu1025 O1031 2.343 1_544 S
Eu1025 O1032 2.384 1_554 S
Eu1025 O1040 2.352 1_554 S
Eu1025 O1041 2.374 . S
Eu1025 O1056 2.329 1_545 S
Eu1025 O1057 2.397 . S
Eu1026 O1024 2.358 1_545 S
Eu1026 O1028 2.397 . S
Eu1026 O1033 2.383 1_554 S
Eu1026 O1034 2.344 1_544 S
Eu1026 O1042 2.351 1_554 S
Eu1026 O1043 2.375 . S
Eu1026 O1058 2.330 1_545 S
Eu1026 O1059 2.396 . S
O1027 Eu1022 2.352 1_565 S
O1027 Eu1025 2.357 1_565 S
O1027 Eu1029 2.375 . S
O1028 Eu1022 2.389 . S
O1028 Eu1026 2.397 . S
O1028 Eu1030 2.378 . S
Eu1029 O1024 2.375 . S
Eu1029 O1027 2.375 . S
Eu1029 O1031 2.365 1_554 S
Eu1029 O1034 2.365 1_554 S
Eu1029 O1046 2.363 . S
Eu1029 O1047 2.363 . S
Eu1029 O1054 2.372 . S
Eu1029 O1055 2.354 1_554 S
Eu1030 O1023 2.378 . S
Eu1030 O1028 2.378 . S
Eu1030 O1032 2.362 1_554 S
Eu1030 O1033 2.362 1_554 S
Eu1030 O1044 2.363 . S
Eu1030 O1045 2.363 . S
Eu1030 O1052 2.377 . S
Eu1030 O1053 2.349 1_554 S
O1031 Eu1025 2.343 1_566 S
O1031 Eu1029 2.365 1_556 S
O1031 Eu1035 2.349 1_565 S
O1032 Eu1025 2.384 1_556 S
O1032 Eu1030 2.362 1_556 S
O1032 Eu1035 2.392 . S
O1033 Eu1026 2.383 1_556 S
O1033 Eu1030 2.362 1_556 S
O1033 Eu1035 2.392 . S
O1034 Eu1026 2.344 1_566 S
O1034 Eu1029 2.365 1_556 S
O1034 Eu1035 2.349 1_565 S
Eu1035 O1031 2.349 1_545 S
Eu1035 O1032 2.392 . S
Eu1035 O1033 2.392 . S
Eu1035 O1034 2.349 1_545 S
Eu1035 O1038 2.327 1_545 S
Eu1035 O1039 2.399 . S
Eu1035 O1048 2.363 . S
Eu1035 O1049 2.363 . S
O1036 C1010 1.283 . S
O1036 Eu1022 2.332 1_565 S
O1037 C1011 1.283 . S
O1037 Eu1022 2.394 . S
O1038 C1012 1.283 . S
O1038 Eu1035 2.327 1_565 S
O1039 C1013 1.283 . S
O1039 Eu1035 2.399 . S
O1040 C1014 1.283 . S
O1040 Eu1025 2.352 1_556 S
O1041 C1015 1.283 . S
O1041 Eu1025 2.374 . S
O1042 C1016 1.283 . S
O1042 Eu1026 2.351 1_556 S
O1043 C1017 1.283 . S
O1043 Eu1026 2.375 . S
O1044 C1018 1.283 . S
O1044 Eu1030 2.363 . S
O1045 C1019 1.283 . S
O1045 Eu1030 2.363 . S
O1046 C1020 1.283 . S
O1046 Eu1029 2.363 . S
O1047 C1021 1.283 . S
O1047 Eu1029 2.363 . S
O1048 C1016 1.283 . S
O1048 Eu1035 2.363 . S
O1049 C1014 1.283 . S
O1049 Eu1035 2.363 . S
O1050 C1017 1.283 . S
O1050 Eu1022 2.363 . S
O1051 C1015 1.283 . S
O1051 Eu1022 2.363 . S
O1052 C1011 1.283 . S
O1052 Eu1030 2.377 . S
O1053 C1013 1.283 . S
O1053 Eu1030 2.349 1_556 S
O1054 C1010 1.283 . S
O1054 Eu1029 2.372 . S
O1055 C1012 1.283 . S
O1055 Eu1029 2.354 1_556 S
O1056 C1021 1.283 . S
O1056 Eu1025 2.329 1_565 S
O1057 C1019 1.283 . S
O1057 Eu1025 2.397 . S
O1058 C1020 1.283 . S
O1058 Eu1026 2.330 1_565 S
O1059 C1018 1.283 . S
O1059 Eu1026 2.396 . S
C1060 O1086 1.283 . S
C1060 O1104 1.283 . S
C1061 O1087 1.283 . S
C1061 O1102 1.283 . S
C1062 O1088 1.283 . S
C1062 O1105 1.283 . S
C1063 O1089 1.283 . S
C1063 O1103 1.283 . S
C1064 O1090 1.283 . S
C1064 O1099 1.283 . S
C1065 O1091 1.283 . S
C1065 O1101 1.283 . S
C1066 O1092 1.283 . S
C1066 O1098 1.283 . S
C1067 O1093 1.283 . S
C1067 O1100 1.283 . S
C1068 O1094 1.283 . S
C1068 O1109 1.283 . S
C1069 O1095 1.283 . S
C1069 O1107 1.283 . S
C1070 O1096 1.283 . S
C1070 O1108 1.283 . S
C1071 O1097 1.283 . S
C1071 O1106 1.283 . S
Eu1072 O1073 2.327 1_454 S
Eu1072 O1074 2.414 . S
Eu1072 O1077 2.372 1_455 S
Eu1072 O1078 2.370 1_554 S
Eu1072 O1086 2.401 . S
Eu1072 O1087 2.325 1_554 S
Eu1072 O1100 2.399 . S
Eu1072 O1101 2.327 1_455 S
O1073 Eu1072 2.327 1_656 S
O1073 Eu1075 2.349 1_556 S
O1073 Eu1080 2.348 1_655 S
O1074 Eu1072 2.414 . S
O1074 Eu1076 2.393 . S
O1074 Eu1079 2.391 . S
Eu1075 O1073 2.349 1_554 S
Eu1075 O1077 2.391 . S
Eu1075 O1081 2.391 . S
Eu1075 O1082 2.349 1_554 S
Eu1075 O1090 2.363 . S
Eu1075 O1091 2.363 . S
Eu1075 O1106 2.399 . S
Eu1075 O1107 2.327 1_554 S
Eu1076 O1074 2.393 . S
Eu1076 O1078 2.348 1_554 S
Eu1076 O1083 2.348 1_554 S
Eu1076 O1084 2.393 . S
Eu1076 O1092 2.363 . S
Eu1076 O1093 2.363 . S
Eu1076 O1108 2.401 . S
Eu1076 O1109 2.325 1_554 S
O1077 Eu1072 2.372 1_655 S
O1077 Eu1075 2.391 . S
O1077 Eu1079 2.350 1_655 S
O1078 Eu1072 2.370 1_556 S
O1078 Eu1076 2.348 1_556 S
O1078 Eu1080 2.392 . S
Eu1079 O1074 2.391 . S
Eu1079 O1077 2.350 1_455 S
Eu1079 O1081 2.350 1_455 S
Eu1079 O1084 2.391 . S
Eu1079 O1096 2.397 . S
Eu1079 O1097 2.329 1_455 S
Eu1079 O1104 2.363 . S
Eu1079 O1105 2.363 . S
Eu1080 O1073 2.348 1_455 S
Eu1080 O1078 2.392 . S
Eu1080 O1082 2.348 1_455 S
Eu1080 O1083 2.392 . S
Eu1080 O1094 2.400 . S
Eu1080 O1095 2.326 1_455 S
Eu1080 O1102 2.363 . S
Eu1080 O1103 2.363 . S
O1081 Eu1075 2.391 . S
O1081 Eu1079 2.350 1_655 S
O1081 Eu1085 2.371 1_655 S
O1082 Eu1075 2.349 1_556 S
O1082 Eu1080 2.348 1_655 S
O1082 Eu1085 2.328 1_656 S
O1083 Eu1076 2.348 1_556 S
O1083 Eu1080 2.392 . S
O1083 Eu1085 2.370 1_556 S
O1084 Eu1076 2.393 . S
O1084 Eu1079 2.391 . S
O1084 Eu1085 2.413 . S
Eu1085 O1081 2.371 1_455 S
Eu1085 O1082 2.328 1_454 S
Eu1085 O1083 2.370 1_554 S
Eu1085 O1084 2.413 . S
Eu1085 O1088 2.399 . S
Eu1085 O1089 2.327 1_554 S
Eu1085 O1098 2.398 . S
Eu1085 O1099 2.328 1_455 S
O1086 C1060 1.283 . S
O1086 Eu1072 2.401 . S
O1087 C1061 1.283 . S
O1087 Eu1072 2.325 1_556 S
O1088 C1062 1.283 . S
O1088 Eu1085 2.399 . S
O1089 C1063 1.283 . S
O1089 Eu1085 2.327 1_556 S
O1090 C1064 1.283 . S
O1090 Eu1075 2.363 . S
O1091 C1065 1.283 . S
O1091 Eu1075 2.363 . S
O1092 C1066 1.283 . S
O1092 Eu1076 2.363 . S
O1093 C1067 1.283 . S
O1093 Eu1076 2.363 . S
O1094 C1068 1.283 . S
O1094 Eu1080 2.400 . S
O1095 C1069 1.283 . S
O1095 Eu1080 2.326 1_655 S
O1096 C1070 1.283 . S
O1096 Eu1079 2.397 . S
O1097 C1071 1.283 . S
O1097 Eu1079 2.329 1_655 S
O1098 C1066 1.283 . S
O1098 Eu1085 2.398 . S
O1099 C1064 1.283 . S
O1099 Eu1085 2.328 1_655 S
O1100 C1067 1.283 . S
O1100 Eu1072 2.399 . S
O1101 C1065 1.283 . S
O1101 Eu1072 2.327 1_655 S
O1102 C1061 1.283 . S
O1102 Eu1080 2.363 . S
O1103 C1063 1.283 . S
O1103 Eu1080 2.363 . S
O1104 C1060 1.283 . S
O1104 Eu1079 2.363 . S
O1105 C1062 1.283 . S
O1105 Eu1079 2.363 . S
O1106 C1071 1.283 . S
O1106 Eu1075 2.399 . S
O1107 C1069 1.283 . S
O1107 Eu1075 2.327 1_556 S
O1108 C1070 1.283 . S
O1108 Eu1076 2.401 . S
O1109 C1068 1.283 . S
O1109 Eu1076 2.325 1_556 S
C1110 O1136 1.283 . S
C1110 O1154 1.283 . S
C1111 O1137 1.283 . S
C1111 O1152 1.283 . S
C1112 O1138 1.283 . S
C1112 O1155 1.283 . S
C1113 O1139 1.283 . S
C1113 O1153 1.283 . S
C1114 O1140 1.283 . S
C1114 O1149 1.283 . S
C1115 O1141 1.283 . S
C1115 O1151 1.283 . S
C1116 O1142 1.283 . S
C1116 O1148 1.283 . S
C1117 O1143 1.283 . S
C1117 O1150 1.283 . S
C1118 O1144 1.283 . S
C1118 O1159 1.283 . S
C1119 O1145 1.283 . S
C1119 O1157 1.283 . S
C1120 O1146 1.283 . S
C1120 O1158 1.283 . S
C1121 O1147 1.283 . S
C1121 O1156 1.283 . S
Eu1122 O1123 2.370 . S
Eu1122 O1124 2.370 . S
Eu1122 O1127 2.370 . S
Eu1122 O1128 2.370 . S
Eu1122 O1136 2.363 . S
Eu1122 O1137 2.363 . S
Eu1122 O1150 2.363 . S
Eu1122 O1151 2.363 . S
O1123 Eu1122 2.370 . S
O1123 Eu1125 2.383 . S
O1123 Eu1130 2.383 . S
O1124 Eu1122 2.370 . S
O1124 Eu1126 2.384 . S
O1124 Eu1129 2.384 . S
Eu1125 O1123 2.383 . S
Eu1125 O1127 2.383 . S
Eu1125 O1131 2.357 1_554 S
Eu1125 O1132 2.357 1_554 S
Eu1125 O1140 2.341 1_554 S
Eu1125 O1141 2.385 . S
Eu1125 O1156 2.363 . S
Eu1125 O1157 2.363 . S
Eu1126 O1124 2.384 . S
Eu1126 O1128 2.384 . S
Eu1126 O1133 2.357 1_554 S
Eu1126 O1134 2.357 1_554 S
Eu1126 O1142 2.340 1_554 S
Eu1126 O1143 2.386 . S
Eu1126 O1158 2.363 . S
Eu1126 O1159 2.363 . S
O1127 Eu1122 2.370 . S
O1127 Eu1125 2.383 . S
O1127 Eu1129 2.384 . S
O1128 Eu1122 2.370 . S
O1128 Eu1126 2.384 . S
O1128 Eu1130 2.383 . S
Eu1129 O1124 2.384 . S
Eu1129 O1127 2.384 . S
Eu1129 O1131 2.356 1_554 S
Eu1129 O1134 2.356 1_554 S
Eu1129 O1146 2.363 . S
Eu1129 O1147 2.363 . S
Eu1129 O1154 2.386 . S
Eu1129 O1155 2.340 1_554 S
Eu1130 O1123 2.383 . S
Eu1130 O1128 2.383 . S
Eu1130 O1132 2.357 1_554 S
Eu1130 O1133 2.357 1_554 S
Eu1130 O1144 2.363 . S
Eu1130 O1145 2.363 . S
Eu1130 O1152 2.385 . S
Eu1130 O1153 2.341 1_554 S
O1131 Eu1125 2.357 1_556 S
O1131 Eu1129 2.356 1_556 S
O1131 Eu1135 2.370 . S
O1132 Eu1125 2.357 1_556 S
O1132 Eu1130 2.357 1_556 S
O1132 Eu1135 2.370 . S
O1133 Eu1126 2.357 1_556 S
O1133 Eu1130 2.357 1_556 S
O1133 Eu1135 2.370 . S
O1134 Eu1126 2.357 1_556 S
O1134 Eu1129 2.356 1_556 S
O1134 Eu1135 2.370 . S
Eu1135 O1131 2.370 . S
Eu1135 O1132 2.370 . S
Eu1135 O1133 2.370 . S
Eu1135 O1134 2.370 . S
Eu1135 O1138 2.363 . S
Eu1135 O1139 2.363 . S
Eu1135 O1148 2.363 . S
Eu1135 O1149 2.363 . S
O1136 C1110 1.283 . S
O1136 Eu1122 2.363 . S
O1137 C1111 1.283 . S
O1137 Eu1122 2.363 . S
O1138 C1112 1.283 . S
O1138 Eu1135 2.363 . S
O1139 C1113 1.283 . S
O1139 Eu1135 2.363 . S
O1140 C1114 1.283 . S
O1140 Eu1125 2.341 1_556 S
O1141 C1115 1.283 . S
O1141 Eu1125 2.385 . S
O1142 C1116 1.283 . S
O1142 Eu1126 2.340 1_556 S
O1143 C1117 1.283 . S
O1143 Eu1126 2.386 . S
O1144 C1118 1.283 . S
O1144 Eu1130 2.363 . S
O1145 C1119 1.283 . S
O1145 Eu1130 2.363 . S
O1146 C1120 1.283 . S
O1146 Eu1129 2.363 . S
O1147 C1121 1.283 . S
O1147 Eu1129 2.363 . S
O1148 C1116 1.283 . S
O1148 Eu1135 2.363 . S
O1149 C1114 1.283 . S
O1149 Eu1135 2.363 . S
O1150 C1117 1.283 . S
O1150 Eu1122 2.363 . S
O1151 C1115 1.283 . S
O1151 Eu1122 2.363 . S
O1152 C1111 1.283 . S
O1152 Eu1130 2.385 . S
O1153 C1113 1.283 . S
O1153 Eu1130 2.341 1_556 S
O1154 C1110 1.283 . S
O1154 Eu1129 2.386 . S
O1155 C1112 1.283 . S
O1155 Eu1129 2.340 1_556 S
O1156 C1121 1.283 . S
O1156 Eu1125 2.363 . S
O1157 C1119 1.283 . S
O1157 Eu1125 2.363 . S
O1158 C1120 1.283 . S
O1158 Eu1126 2.363 . S
O1159 C1118 1.283 . S
O1159 Eu1126 2.363 . S
C1160 O1186 1.283 . S
C1160 O1204 1.283 . S
C1161 O1187 1.283 . S
C1161 O1202 1.283 . S
C1162 O1188 1.283 . S
C1162 O1205 1.283 . S
C1163 O1189 1.283 . S
C1163 O1203 1.283 . S
C1164 O1190 1.283 . S
C1164 O1199 1.283 . S
C1165 O1191 1.283 . S
C1165 O1201 1.283 . S
C1166 O1192 1.283 . S
C1166 O1198 1.283 . S
C1167 O1193 1.283 . S
C1167 O1200 1.283 . S
C1168 O1194 1.283 . S
C1168 O1209 1.283 . S
C1169 O1195 1.283 . S
C1169 O1207 1.283 . S
C1170 O1196 1.283 . S
C1170 O1208 1.283 . S
C1171 O1197 1.283 . S
C1171 O1206 1.283 . S
Eu1172 O1173 2.343 1_455 S
Eu1172 O1174 2.398 . S
Eu1172 O1177 2.343 1_455 S
Eu1172 O1178 2.398 . S
Eu1172 O1186 2.363 . S
Eu1172 O1187 2.363 . S
Eu1172 O1200 2.410 . S
Eu1172 O1201 2.316 1_455 S
O1173 Eu1172 2.343 1_655 S
O1173 Eu1175 2.370 . S
O1173 Eu1180 2.343 1_655 S
O1174 Eu1172 2.398 . S
O1174 Eu1176 2.370 . S
O1174 Eu1179 2.398 . S
Eu1175 O1173 2.370 . S
Eu1175 O1177 2.370 . S
Eu1175 O1181 2.370 . S
Eu1175 O1182 2.370 . S
Eu1175 O1190 2.363 . S
Eu1175 O1191 2.363 . S
Eu1175 O1206 2.363 . S
Eu1175 O1207 2.363 . S
Eu1176 O1174 2.370 . S
Eu1176 O1178 2.370 . S
Eu1176 O1183 2.370 . S
Eu1176 O1184 2.370 . S
Eu1176 O1192 2.363 . S
Eu1176 O1193 2.363 . S
Eu1176 O1208 2.363 . S
Eu1176 O1209 2.363 . S
O1177 Eu1172 2.343 1_655 S
O1177 Eu1175 2.370 . S
O1177 Eu1179 2.343 1_655 S
O1178 Eu1172 2.398 . S
O1178 Eu1176 2.370 . S
O1178 Eu1180 2.398 . S
Eu1179 O1174 2.398 . S
Eu1179 O1177 2.343 1_455 S
Eu1179 O1181 2.343 1_455 S
Eu1179 O1184 2.398 . S
Eu1179 O1196 2.410 . S
Eu1179 O1197 2.316 1_455 S
Eu1179 O1204 2.363 . S
Eu1179 O1205 2.363 . S
Eu1180 O1173 2.343 1_455 S
Eu1180 O1178 2.398 . S
Eu1180 O1182 2.343 1_455 S
Eu1180 O1183 2.398 . S
Eu1180 O1194 2.409 . S
Eu1180 O1195 2.317 1_455 S
Eu1180 O1202 2.363 . S
Eu1180 O1203 2.363 . S
O1181 Eu1175 2.370 . S
O1181 Eu1179 2.343 1_655 S
O1181 Eu1185 2.343 1_655 S
O1182 Eu1175 2.370 . S
O1182 Eu1180 2.343 1_655 S
O1182 Eu1185 2.343 1_655 S
O1183 Eu1176 2.370 . S
O1183 Eu1180 2.398 . S
O1183 Eu1185 2.398 . S
O1184 Eu1176 2.370 . S
O1184 Eu1179 2.398 . S
O1184 Eu1185 2.398 . S
Eu1185 O1181 2.343 1_455 S
Eu1185 O1182 2.343 1_455 S
Eu1185 O1183 2.398 . S
Eu1185 O1184 2.398 . S
Eu1185 O1188 2.363 . S
Eu1185 O1189 2.363 . S
Eu1185 O1198 2.409 . S
Eu1185 O1199 2.317 1_455 S
O1186 C1160 1.283 . S
O1186 Eu1172 2.363 . S
O1187 C1161 1.283 . S
O1187 Eu1172 2.363 . S
O1188 C1162 1.283 . S
O1188 Eu1185 2.363 . S
O1189 C1163 1.283 . S
O1189 Eu1185 2.363 . S
O1190 C1164 1.283 . S
O1190 Eu1175 2.363 . S
O1191 C1165 1.283 . S
O1191 Eu1175 2.363 . S
O1192 C1166 1.283 . S
O1192 Eu1176 2.363 . S
O1193 C1167 1.283 . S
O1193 Eu1176 2.363 . S
O1194 C1168 1.283 . S
O1194 Eu1180 2.409 . S
O1195 C1169 1.283 . S
O1195 Eu1180 2.317 1_655 S
O1196 C1170 1.283 . S
O1196 Eu1179 2.410 . S
O1197 C1171 1.283 . S
O1197 Eu1179 2.316 1_655 S
O1198 C1166 1.283 . S
O1198 Eu1185 2.409 . S
O1199 C1164 1.283 . S
O1199 Eu1185 2.317 1_655 S
O1200 C1167 1.283 . S
O1200 Eu1172 2.410 . S
O1201 C1165 1.283 . S
O1201 Eu1172 2.316 1_655 S
O1202 C1161 1.283 . S
O1202 Eu1180 2.363 . S
O1203 C1163 1.283 . S
O1203 Eu1180 2.363 . S
O1204 C1160 1.283 . S
O1204 Eu1179 2.363 . S
O1205 C1162 1.283 . S
O1205 Eu1179 2.363 . S
O1206 C1171 1.283 . S
O1206 Eu1175 2.363 . S
O1207 C1169 1.283 . S
O1207 Eu1175 2.363 . S
O1208 C1170 1.283 . S
O1208 Eu1176 2.363 . S
O1209 C1168 1.283 . S
O1209 Eu1176 2.363 . S
C1210 O1236 1.283 . S
C1210 O1254 1.283 . S
C1211 O1237 1.283 . S
C1211 O1252 1.283 . S
C1212 O1238 1.283 . S
C1212 O1255 1.283 . S
C1213 O1239 1.283 . S
C1213 O1253 1.283 . S
C1214 O1240 1.283 . S
C1214 O1249 1.283 . S
C1215 O1241 1.283 . S
C1215 O1251 1.283 . S
C1216 O1242 1.283 . S
C1216 O1248 1.283 . S
C1217 O1243 1.283 . S
C1217 O1250 1.283 . S
C1218 O1244 1.283 . S
C1218 O1259 1.283 . S
C1219 O1245 1.283 . S
C1219 O1257 1.283 . S
C1220 O1246 1.283 . S
C1220 O1258 1.283 . S
C1221 O1247 1.283 . S
C1221 O1256 1.283 . S
Eu1222 O1223 2.370 . S
Eu1222 O1224 2.370 . S
Eu1222 O1227 2.370 . S
Eu1222 O1228 2.370 . S
Eu1222 O1236 2.363 . S
Eu1222 O1237 2.363 . S
Eu1222 O1250 2.363 . S
Eu1222 O1251 2.363 . S
O1223 Eu1222 2.370 . S
O1223 Eu1225 2.348 1_565 S
O1223 Eu1230 2.348 1_565 S
O1224 Eu1222 2.370 . S
O1224 Eu1226 2.348 1_565 S
O1224 Eu1229 2.348 1_565 S
Eu1225 O1223 2.348 1_545 S
Eu1225 O1227 2.348 1_545 S
Eu1225 O1231 2.392 . S
Eu1225 O1232 2.392 . S
Eu1225 O1240 2.400 . S
Eu1225 O1241 2.326 1_545 S
Eu1225 O1256 2.363 . S
Eu1225 O1257 2.363 . S
Eu1226 O1224 2.348 1_545 S
Eu1226 O1228 2.348 1_545 S
Eu1226 O1233 2.393 . S
Eu1226 O1234 2.393 . S
Eu1226 O1242 2.401 . S
Eu1226 O1243 2.325 1_545 S
Eu1226 O1258 2.363 . S
Eu1226 O1259 2.363 . S
O1227 Eu1222 2.370 . S
O1227 Eu1225 2.348 1_565 S
O1227 Eu1229 2.348 1_565 S
O1228 Eu1222 2.370 . S
O1228 Eu1226 2.348 1_565 S
O1228 Eu1230 2.348 1_565 S
Eu1229 O1224 2.348 1_545 S
Eu1229 O1227 2.348 1_545 S
Eu1229 O1231 2.393 . S
Eu1229 O1234 2.393 . S
Eu1229 O1246 2.363 . S
Eu1229 O1247 2.363 . S
Eu1229 O1254 2.325 1_545 S
Eu1229 O1255 2.401 . S
Eu1230 O1223 2.348 1_545 S
Eu1230 O1228 2.348 1_545 S
Eu1230 O1232 2.392 . S
Eu1230 O1233 2.392 . S
Eu1230 O1244 2.363 . S
Eu1230 O1245 2.363 . S
Eu1230 O1252 2.326 1_545 S
Eu1230 O1253 2.400 . S
O1231 Eu1225 2.392 . S
O1231 Eu1229 2.393 . S
O1231 Eu1235 2.370 . S
O1232 Eu1225 2.392 . S
O1232 Eu1230 2.392 . S
O1232 Eu1235 2.370 . S
O1233 Eu1226 2.393 . S
O1233 Eu1230 2.392 . S
O1233 Eu1235 2.370 . S
O1234 Eu1226 2.393 . S
O1234 Eu1229 2.393 . S
O1234 Eu1235 2.370 . S
Eu1235 O1231 2.370 . S
Eu1235 O1232 2.370 . S
Eu1235 O1233 2.370 . S
Eu1235 O1234 2.370 . S
Eu1235 O1238 2.363 . S
Eu1235 O1239 2.363 . S
Eu1235 O1248 2.363 . S
Eu1235 O1249 2.363 . S
O1236 C1210 1.283 . S
O1236 Eu1222 2.363 . S
O1237 C1211 1.283 . S
O1237 Eu1222 2.363 . S
O1238 C1212 1.283 . S
O1238 Eu1235 2.363 . S
O1239 C1213 1.283 . S
O1239 Eu1235 2.363 . S
O1240 C1214 1.283 . S
O1240 Eu1225 2.400 . S
O1241 C1215 1.283 . S
O1241 Eu1225 2.326 1_565 S
O1242 C1216 1.283 . S
O1242 Eu1226 2.401 . S
O1243 C1217 1.283 . S
O1243 Eu1226 2.325 1_565 S
O1244 C1218 1.283 . S
O1244 Eu1230 2.363 . S
O1245 C1219 1.283 . S
O1245 Eu1230 2.363 . S
O1246 C1220 1.283 . S
O1246 Eu1229 2.363 . S
O1247 C1221 1.283 . S
O1247 Eu1229 2.363 . S
O1248 C1216 1.283 . S
O1248 Eu1235 2.363 . S
O1249 C1214 1.283 . S
O1249 Eu1235 2.363 . S
O1250 C1217 1.283 . S
O1250 Eu1222 2.363 . S
O1251 C1215 1.283 . S
O1251 Eu1222 2.363 . S
O1252 C1211 1.283 . S
O1252 Eu1230 2.326 1_565 S
O1253 C1213 1.283 . S
O1253 Eu1230 2.400 . S
O1254 C1210 1.283 . S
O1254 Eu1229 2.325 1_565 S
O1255 C1212 1.283 . S
O1255 Eu1229 2.401 . S
O1256 C1221 1.283 . S
O1256 Eu1225 2.363 . S
O1257 C1219 1.283 . S
O1257 Eu1225 2.363 . S
O1258 C1220 1.283 . S
O1258 Eu1226 2.363 . S
O1259 C1218 1.283 . S
O1259 Eu1226 2.363 . S
C1260 C1261 1.391 . S
C1260 C1262 1.394 . S
C1260 H1276 0.931 . S
C1261 C1260 1.391 . S
C1261 C1265 1.376 . S
C1262 C1260 1.394 . S
C1262 C1263 1.369 . S
C1262 C1266 1.531 . S
C1263 C1262 1.369 . S
C1263 C1264 1.410 . S
C1263 C1271 1.503 . S
C1264 C1263 1.410 . S
C1264 C1265 1.392 . S
C1264 C1267 1.511 . S
C1265 C1261 1.376 . S
C1265 C1264 1.392 . S
C1265 H1277 0.929 . S
C1266 C1262 1.531 . S
C1266 H1278 0.960 . S
C1266 H1279 0.962 . S
C1266 H1280 0.960 . S
C1267 C1264 1.511 . S
C1267 H1281 0.961 . S
C1267 H1282 0.961 . S
C1267 H1283 0.961 . S
C1268 C1269 1.370 . S
C1268 C1270 1.363 . S
C1268 H1284 0.931 . S
C1269 C1268 1.370 . S
C1269 C1273 1.408 . S
C1270 C1268 1.363 . S
C1270 C1271 1.370 . S
C1270 C1274 1.524 . S
C1271 C1263 1.503 . S
C1271 C1270 1.370 . S
C1271 C1272 1.403 . S
C1272 C1271 1.403 . S
C1272 C1273 1.404 . S
C1272 C1275 1.539 . S
C1273 C1269 1.408 . S
C1273 C1272 1.404 . S
C1273 H1285 0.930 . S
C1274 C1270 1.524 . S
C1274 H1286 0.956 . S
C1274 H1287 0.961 . S
C1274 H1288 0.961 . S
C1275 C1272 1.539 . S
C1275 H1289 0.958 . S
C1275 H1290 0.961 . S
C1275 H1291 0.960 . S
H1276 C1260 0.931 . S
H1277 C1265 0.929 . S
H1278 C1266 0.960 . S
H1279 C1266 0.962 . S
H1280 C1266 0.960 . S
H1281 C1267 0.961 . S
H1282 C1267 0.961 . S
H1283 C1267 0.961 . S
H1284 C1268 0.931 . S
H1285 C1273 0.930 . S
H1286 C1274 0.956 . S
H1287 C1274 0.961 . S
H1288 C1274 0.961 . S
H1289 C1275 0.958 . S
H1290 C1275 0.961 . S
H1291 C1275 0.960 . S
C1292 C1293 1.391 . S
C1292 C1294 1.394 . S
C1292 H1308 0.931 . S
C1293 C1292 1.391 . S
C1293 C1297 1.376 . S
C1294 C1292 1.394 . S
C1294 C1295 1.369 . S
C1294 C1298 1.531 . S
C1295 C1294 1.369 . S
C1295 C1296 1.410 . S
C1295 C1303 1.503 . S
C1296 C1295 1.410 . S
C1296 C1297 1.392 . S
C1296 C1299 1.511 . S
C1297 C1293 1.376 . S
C1297 C1296 1.392 . S
C1297 H1309 0.929 . S
C1298 C1294 1.531 . S
C1298 H1310 0.960 . S
C1298 H1311 0.962 . S
C1298 H1312 0.960 . S
C1299 C1296 1.511 . S
C1299 H1313 0.961 . S
C1299 H1314 0.961 . S
C1299 H1315 0.961 . S
C1300 C1301 1.370 . S
C1300 C1302 1.363 . S
C1300 H1316 0.931 . S
C1301 C1300 1.370 . S
C1301 C1305 1.408 . S
C1302 C1300 1.363 . S
C1302 C1303 1.370 . S
C1302 C1306 1.524 . S
C1303 C1295 1.503 . S
C1303 C1302 1.370 . S
C1303 C1304 1.403 . S
C1304 C1303 1.403 . S
C1304 C1305 1.404 . S
C1304 C1307 1.539 . S
C1305 C1301 1.408 . S
C1305 C1304 1.404 . S
C1305 H1317 0.930 . S
C1306 C1302 1.524 . S
C1306 H1318 0.956 . S
C1306 H1319 0.961 . S
C1306 H1320 0.961 . S
C1307 C1304 1.539 . S
C1307 H1321 0.958 . S
C1307 H1322 0.961 . S
C1307 H1323 0.960 . S
H1308 C1292 0.931 . S
H1309 C1297 0.929 . S
H1310 C1298 0.960 . S
H1311 C1298 0.962 . S
H1312 C1298 0.960 . S
H1313 C1299 0.961 . S
H1314 C1299 0.961 . S
H1315 C1299 0.961 . S
H1316 C1300 0.931 . S
H1317 C1305 0.930 . S
H1318 C1306 0.956 . S
H1319 C1306 0.961 . S
H1320 C1306 0.961 . S
H1321 C1307 0.958 . S
H1322 C1307 0.961 . S
H1323 C1307 0.960 . S
C1324 C1325 1.391 . S
C1324 C1326 1.394 . S
C1324 H1340 0.931 . S
C1325 C1324 1.391 . S
C1325 C1329 1.376 . S
C1326 C1324 1.394 . S
C1326 C1327 1.369 . S
C1326 C1330 1.531 . S
C1327 C1326 1.369 . S
C1327 C1328 1.410 . S
C1327 C1335 1.503 . S
C1328 C1327 1.410 . S
C1328 C1329 1.392 . S
C1328 C1331 1.511 . S
C1329 C1325 1.376 . S
C1329 C1328 1.392 . S
C1329 H1341 0.929 . S
C1330 C1326 1.531 . S
C1330 H1342 0.960 . S
C1330 H1343 0.962 . S
C1330 H1344 0.960 . S
C1331 C1328 1.511 . S
C1331 H1345 0.961 . S
C1331 H1346 0.961 . S
C1331 H1347 0.961 . S
C1332 C1333 1.370 . S
C1332 C1334 1.363 . S
C1332 H1348 0.931 . S
C1333 C1332 1.370 . S
C1333 C1337 1.408 . S
C1334 C1332 1.363 . S
C1334 C1335 1.370 . S
C1334 C1338 1.524 . S
C1335 C1327 1.503 . S
C1335 C1334 1.370 . S
C1335 C1336 1.403 . S
C1336 C1335 1.403 . S
C1336 C1337 1.404 . S
C1336 C1339 1.539 . S
C1337 C1333 1.408 . S
C1337 C1336 1.404 . S
C1337 H1349 0.930 . S
C1338 C1334 1.524 . S
C1338 H1350 0.956 . S
C1338 H1351 0.961 . S
C1338 H1352 0.961 . S
C1339 C1336 1.539 . S
C1339 H1353 0.958 . S
C1339 H1354 0.961 . S
C1339 H1355 0.960 . S
H1340 C1324 0.931 . S
H1341 C1329 0.929 . S
H1342 C1330 0.960 . S
H1343 C1330 0.962 . S
H1344 C1330 0.960 . S
H1345 C1331 0.961 . S
H1346 C1331 0.961 . S
H1347 C1331 0.961 . S
H1348 C1332 0.931 . S
H1349 C1337 0.930 . S
H1350 C1338 0.956 . S
H1351 C1338 0.961 . S
H1352 C1338 0.961 . S
H1353 C1339 0.958 . S
H1354 C1339 0.961 . S
H1355 C1339 0.960 . S
C1356 C1357 1.391 . S
C1356 C1358 1.394 . S
C1356 H1372 0.931 . S
C1357 C1356 1.391 . S
C1357 C1361 1.376 . S
C1358 C1356 1.394 . S
C1358 C1359 1.369 . S
C1358 C1362 1.531 . S
C1359 C1358 1.369 . S
C1359 C1360 1.410 . S
C1359 C1367 1.503 . S
C1360 C1359 1.410 . S
C1360 C1361 1.392 . S
C1360 C1363 1.511 . S
C1361 C1357 1.376 . S
C1361 C1360 1.392 . S
C1361 H1373 0.929 . S
C1362 C1358 1.531 . S
C1362 H1374 0.960 . S
C1362 H1375 0.962 . S
C1362 H1376 0.960 . S
C1363 C1360 1.511 . S
C1363 H1377 0.961 . S
C1363 H1378 0.961 . S
C1363 H1379 0.961 . S
C1364 C1365 1.370 . S
C1364 C1366 1.363 . S
C1364 H1380 0.931 . S
C1365 C1364 1.370 . S
C1365 C1369 1.408 . S
C1366 C1364 1.363 . S
C1366 C1367 1.370 . S
C1366 C1370 1.524 . S
C1367 C1359 1.503 . S
C1367 C1366 1.370 . S
C1367 C1368 1.403 . S
C1368 C1367 1.403 . S
C1368 C1369 1.404 . S
C1368 C1371 1.539 . S
C1369 C1365 1.408 . S
C1369 C1368 1.404 . S
C1369 H1381 0.930 . S
C1370 C1366 1.524 . S
C1370 H1382 0.956 . S
C1370 H1383 0.961 . S
C1370 H1384 0.961 . S
C1371 C1368 1.539 . S
C1371 H1385 0.958 . S
C1371 H1386 0.961 . S
C1371 H1387 0.960 . S
H1372 C1356 0.931 . S
H1373 C1361 0.929 . S
H1374 C1362 0.960 . S
H1375 C1362 0.962 . S
H1376 C1362 0.960 . S
H1377 C1363 0.961 . S
H1378 C1363 0.961 . S
H1379 C1363 0.961 . S
H1380 C1364 0.931 . S
H1381 C1369 0.930 . S
H1382 C1370 0.956 . S
H1383 C1370 0.961 . S
H1384 C1370 0.961 . S
H1385 C1371 0.958 . S
H1386 C1371 0.961 . S
H1387 C1371 0.960 . S
C1388 C1389 1.391 . S
C1388 C1390 1.394 . S
C1388 H1404 0.931 . S
C1389 C1388 1.391 . S
C1389 C1393 1.376 . S
C1390 C1388 1.394 . S
C1390 C1391 1.369 . S
C1390 C1394 1.531 . S
C1391 C1390 1.369 . S
C1391 C1392 1.410 . S
C1391 C1399 1.503 . S
C1392 C1391 1.410 . S
C1392 C1393 1.392 . S
C1392 C1395 1.511 . S
C1393 C1389 1.376 . S
C1393 C1392 1.392 . S
C1393 H1405 0.929 . S
C1394 C1390 1.531 . S
C1394 H1406 0.960 . S
C1394 H1407 0.962 . S
C1394 H1408 0.960 . S
C1395 C1392 1.511 . S
C1395 H1409 0.961 . S
C1395 H1410 0.961 . S
C1395 H1411 0.961 . S
C1396 C1397 1.370 . S
C1396 C1398 1.363 . S
C1396 H1412 0.931 . S
C1397 C1396 1.370 . S
C1397 C1401 1.408 . S
C1398 C1396 1.363 . S
C1398 C1399 1.370 . S
C1398 C1402 1.524 . S
C1399 C1391 1.503 . S
C1399 C1398 1.370 . S
C1399 C1400 1.403 . S
C1400 C1399 1.403 . S
C1400 C1401 1.404 . S
C1400 C1403 1.539 . S
C1401 C1397 1.408 . S
C1401 C1400 1.404 . S
C1401 H1413 0.930 . S
C1402 C1398 1.524 . S
C1402 H1414 0.956 . S
C1402 H1415 0.961 . S
C1402 H1416 0.961 . S
C1403 C1400 1.539 . S
C1403 H1417 0.958 . S
C1403 H1418 0.961 . S
C1403 H1419 0.960 . S
H1404 C1388 0.931 . S
H1405 C1393 0.929 . S
H1406 C1394 0.960 . S
H1407 C1394 0.962 . S
H1408 C1394 0.960 . S
H1409 C1395 0.961 . S
H1410 C1395 0.961 . S
H1411 C1395 0.961 . S
H1412 C1396 0.931 . S
H1413 C1401 0.930 . S
H1414 C1402 0.956 . S
H1415 C1402 0.961 . S
H1416 C1402 0.961 . S
H1417 C1403 0.958 . S
H1418 C1403 0.961 . S
H1419 C1403 0.960 . S
C1420 C1421 1.391 . S
C1420 C1422 1.394 . S
C1420 H1436 0.931 . S
C1421 C1420 1.391 . S
C1421 C1425 1.376 . S
C1422 C1420 1.394 . S
C1422 C1423 1.369 . S
C1422 C1426 1.531 . S
C1423 C1422 1.369 . S
C1423 C1424 1.410 . S
C1423 C1431 1.503 . S
C1424 C1423 1.410 . S
C1424 C1425 1.392 . S
C1424 C1427 1.511 . S
C1425 C1421 1.376 . S
C1425 C1424 1.392 . S
C1425 H1437 0.929 . S
C1426 C1422 1.531 . S
C1426 H1438 0.960 . S
C1426 H1439 0.962 . S
C1426 H1440 0.960 . S
C1427 C1424 1.511 . S
C1427 H1441 0.961 . S
C1427 H1442 0.961 . S
C1427 H1443 0.961 . S
C1428 C1429 1.370 . S
C1428 C1430 1.363 . S
C1428 H1444 0.931 . S
C1429 C1428 1.370 . S
C1429 C1433 1.408 . S
C1430 C1428 1.363 . S
C1430 C1431 1.370 . S
C1430 C1434 1.524 . S
C1431 C1423 1.503 . S
C1431 C1430 1.370 . S
C1431 C1432 1.403 . S
C1432 C1431 1.403 . S
C1432 C1433 1.404 . S
C1432 C1435 1.539 . S
C1433 C1429 1.408 . S
C1433 C1432 1.404 . S
C1433 H1445 0.930 . S
C1434 C1430 1.524 . S
C1434 H1446 0.956 . S
C1434 H1447 0.961 . S
C1434 H1448 0.961 . S
C1435 C1432 1.539 . S
C1435 H1449 0.958 . S
C1435 H1450 0.961 . S
C1435 H1451 0.960 . S
H1436 C1420 0.931 . S
H1437 C1425 0.929 . S
H1438 C1426 0.960 . S
H1439 C1426 0.962 . S
H1440 C1426 0.960 . S
H1441 C1427 0.961 . S
H1442 C1427 0.961 . S
H1443 C1427 0.961 . S
H1444 C1428 0.931 . S
H1445 C1433 0.930 . S
H1446 C1434 0.956 . S
H1447 C1434 0.961 . S
H1448 C1434 0.961 . S
H1449 C1435 0.958 . S
H1450 C1435 0.961 . S
H1451 C1435 0.960 . S
C1452 C1453 1.391 . S
C1452 C1454 1.394 . S
C1452 H1468 0.931 . S
C1453 C1452 1.391 . S
C1453 C1457 1.376 . S
C1454 C1452 1.394 . S
C1454 C1455 1.369 . S
C1454 C1458 1.531 . S
C1455 C1454 1.369 . S
C1455 C1456 1.410 . S
C1455 C1463 1.503 . S
C1456 C1455 1.410 . S
C1456 C1457 1.392 . S
C1456 C1459 1.511 . S
C1457 C1453 1.376 . S
C1457 C1456 1.392 . S
C1457 H1469 0.929 . S
C1458 C1454 1.531 . S
C1458 H1470 0.960 . S
C1458 H1471 0.962 . S
C1458 H1472 0.960 . S
C1459 C1456 1.511 . S
C1459 H1473 0.961 . S
C1459 H1474 0.961 . S
C1459 H1475 0.961 . S
C1460 C1461 1.370 . S
C1460 C1462 1.363 . S
C1460 H1476 0.931 . S
C1461 C1460 1.370 . S
C1461 C1465 1.408 . S
C1462 C1460 1.363 . S
C1462 C1463 1.370 . S
C1462 C1466 1.524 . S
C1463 C1455 1.503 . S
C1463 C1462 1.370 . S
C1463 C1464 1.403 . S
C1464 C1463 1.403 . S
C1464 C1465 1.404 . S
C1464 C1467 1.539 . S
C1465 C1461 1.408 . S
C1465 C1464 1.404 . S
C1465 H1477 0.930 . S
C1466 C1462 1.524 . S
C1466 H1478 0.956 . S
C1466 H1479 0.961 . S
C1466 H1480 0.961 . S
C1467 C1464 1.539 . S
C1467 H1481 0.958 . S
C1467 H1482 0.961 . S
C1467 H1483 0.960 . S
H1468 C1452 0.931 . S
H1469 C1457 0.929 . S
H1470 C1458 0.960 . S
H1471 C1458 0.962 . S
H1472 C1458 0.960 . S
H1473 C1459 0.961 . S
H1474 C1459 0.961 . S
H1475 C1459 0.961 . S
H1476 C1460 0.931 . S
H1477 C1465 0.930 . S
H1478 C1466 0.956 . S
H1479 C1466 0.961 . S
H1480 C1466 0.961 . S
H1481 C1467 0.958 . S
H1482 C1467 0.961 . S
H1483 C1467 0.960 . S
C1484 C1485 1.391 . S
C1484 C1486 1.394 . S
C1484 H1500 0.931 . S
C1485 C1484 1.391 . S
C1485 C1489 1.376 . S
C1486 C1484 1.394 . S
C1486 C1487 1.369 . S
C1486 C1490 1.531 . S
C1487 C1486 1.369 . S
C1487 C1488 1.410 . S
C1487 C1495 1.503 . S
C1488 C1487 1.410 . S
C1488 C1489 1.392 . S
C1488 C1491 1.511 . S
C1489 C1485 1.376 . S
C1489 C1488 1.392 . S
C1489 H1501 0.929 . S
C1490 C1486 1.531 . S
C1490 H1502 0.960 . S
C1490 H1503 0.962 . S
C1490 H1504 0.960 . S
C1491 C1488 1.511 . S
C1491 H1505 0.961 . S
C1491 H1506 0.961 . S
C1491 H1507 0.961 . S
C1492 C1493 1.370 . S
C1492 C1494 1.363 . S
C1492 H1508 0.931 . S
C1493 C1492 1.370 . S
C1493 C1497 1.408 . S
C1494 C1492 1.363 . S
C1494 C1495 1.370 . S
C1494 C1498 1.524 . S
C1495 C1487 1.503 . S
C1495 C1494 1.370 . S
C1495 C1496 1.403 . S
C1496 C1495 1.403 . S
C1496 C1497 1.404 . S
C1496 C1499 1.539 . S
C1497 C1493 1.408 . S
C1497 C1496 1.404 . S
C1497 H1509 0.930 . S
C1498 C1494 1.524 . S
C1498 H1510 0.956 . S
C1498 H1511 0.961 . S
C1498 H1512 0.961 . S
C1499 C1496 1.539 . S
C1499 H1513 0.958 . S
C1499 H1514 0.961 . S
C1499 H1515 0.960 . S
H1500 C1484 0.931 . S
H1501 C1489 0.929 . S
H1502 C1490 0.960 . S
H1503 C1490 0.962 . S
H1504 C1490 0.960 . S
H1505 C1491 0.961 . S
H1506 C1491 0.961 . S
H1507 C1491 0.961 . S
H1508 C1492 0.931 . S
H1509 C1497 0.930 . S
H1510 C1498 0.956 . S
H1511 C1498 0.961 . S
H1512 C1498 0.961 . S
H1513 C1499 0.958 . S
H1514 C1499 0.961 . S
H1515 C1499 0.960 . S
C1516 C1517 1.391 . S
C1516 C1518 1.394 . S
C1516 H1532 0.931 . S
C1517 C1516 1.391 . S
C1517 C1521 1.376 . S
C1518 C1516 1.394 . S
C1518 C1519 1.369 . S
C1518 C1522 1.531 . S
C1519 C1518 1.369 . S
C1519 C1520 1.410 . S
C1519 C1527 1.503 . S
C1520 C1519 1.410 . S
C1520 C1521 1.392 . S
C1520 C1523 1.511 . S
C1521 C1517 1.376 . S
C1521 C1520 1.392 . S
C1521 H1533 0.929 . S
C1522 C1518 1.531 . S
C1522 H1534 0.960 . S
C1522 H1535 0.962 . S
C1522 H1536 0.960 . S
C1523 C1520 1.511 . S
C1523 H1537 0.961 . S
C1523 H1538 0.961 . S
C1523 H1539 0.961 . S
C1524 C1525 1.370 . S
C1524 C1526 1.363 . S
C1524 H1540 0.931 . S
C1525 C1524 1.370 . S
C1525 C1529 1.408 . S
C1526 C1524 1.363 . S
C1526 C1527 1.370 . S
C1526 C1530 1.524 . S
C1527 C1519 1.503 . S
C1527 C1526 1.370 . S
C1527 C1528 1.403 . S
C1528 C1527 1.403 . S
C1528 C1529 1.404 . S
C1528 C1531 1.539 . S
C1529 C1525 1.408 . S
C1529 C1528 1.404 . S
C1529 H1541 0.930 . S
C1530 C1526 1.524 . S
C1530 H1542 0.956 . S
C1530 H1543 0.961 . S
C1530 H1544 0.961 . S
C1531 C1528 1.539 . S
C1531 H1545 0.958 . S
C1531 H1546 0.961 . S
C1531 H1547 0.960 . S
H1532 C1516 0.931 . S
H1533 C1521 0.929 . S
H1534 C1522 0.960 . S
H1535 C1522 0.962 . S
H1536 C1522 0.960 . S
H1537 C1523 0.961 . S
H1538 C1523 0.961 . S
H1539 C1523 0.961 . S
H1540 C1524 0.931 . S
H1541 C1529 0.930 . S
H1542 C1530 0.956 . S
H1543 C1530 0.961 . S
H1544 C1530 0.961 . S
H1545 C1531 0.958 . S
H1546 C1531 0.961 . S
H1547 C1531 0.960 . S
C1548 C1549 1.391 . S
C1548 C1550 1.394 . S
C1548 H1564 0.931 . S
C1549 C1548 1.391 . S
C1549 C1553 1.376 . S
C1550 C1548 1.394 . S
C1550 C1551 1.369 . S
C1550 C1554 1.531 . S
C1551 C1550 1.369 . S
C1551 C1552 1.410 . S
C1551 C1559 1.503 . S
C1552 C1551 1.410 . S
C1552 C1553 1.392 . S
C1552 C1555 1.511 . S
C1553 C1549 1.376 . S
C1553 C1552 1.392 . S
C1553 H1565 0.929 . S
C1554 C1550 1.531 . S
C1554 H1566 0.960 . S
C1554 H1567 0.962 . S
C1554 H1568 0.960 . S
C1555 C1552 1.511 . S
C1555 H1569 0.961 . S
C1555 H1570 0.961 . S
C1555 H1571 0.961 . S
C1556 C1557 1.370 . S
C1556 C1558 1.363 . S
C1556 H1572 0.931 . S
C1557 C1556 1.370 . S
C1557 C1561 1.408 . S
C1558 C1556 1.363 . S
C1558 C1559 1.370 . S
C1558 C1562 1.524 . S
C1559 C1551 1.503 . S
C1559 C1558 1.370 . S
C1559 C1560 1.403 . S
C1560 C1559 1.403 . S
C1560 C1561 1.404 . S
C1560 C1563 1.539 . S
C1561 C1557 1.408 . S
C1561 C1560 1.404 . S
C1561 H1573 0.930 . S
C1562 C1558 1.524 . S
C1562 H1574 0.956 . S
C1562 H1575 0.961 . S
C1562 H1576 0.961 . S
C1563 C1560 1.539 . S
C1563 H1577 0.958 . S
C1563 H1578 0.961 . S
C1563 H1579 0.960 . S
H1564 C1548 0.931 . S
H1565 C1553 0.929 . S
H1566 C1554 0.960 . S
H1567 C1554 0.962 . S
H1568 C1554 0.960 . S
H1569 C1555 0.961 . S
H1570 C1555 0.961 . S
H1571 C1555 0.961 . S
H1572 C1556 0.931 . S
H1573 C1561 0.930 . S
H1574 C1562 0.956 . S
H1575 C1562 0.961 . S
H1576 C1562 0.961 . S
H1577 C1563 0.958 . S
H1578 C1563 0.961 . S
H1579 C1563 0.960 . S
C1580 C1581 1.391 . S
C1580 C1582 1.394 . S
C1580 H1596 0.931 . S
C1581 C1580 1.391 . S
C1581 C1585 1.376 . S
C1582 C1580 1.394 . S
C1582 C1583 1.369 . S
C1582 C1586 1.531 . S
C1583 C1582 1.369 . S
C1583 C1584 1.410 . S
C1583 C1591 1.503 . S
C1584 C1583 1.410 . S
C1584 C1585 1.392 . S
C1584 C1587 1.511 . S
C1585 C1581 1.376 . S
C1585 C1584 1.392 . S
C1585 H1597 0.929 . S
C1586 C1582 1.531 . S
C1586 H1598 0.960 . S
C1586 H1599 0.962 . S
C1586 H1600 0.960 . S
C1587 C1584 1.511 . S
C1587 H1601 0.961 . S
C1587 H1602 0.961 . S
C1587 H1603 0.961 . S
C1588 C1589 1.370 . S
C1588 C1590 1.363 . S
C1588 H1604 0.931 . S
C1589 C1588 1.370 . S
C1589 C1593 1.408 . S
C1590 C1588 1.363 . S
C1590 C1591 1.370 . S
C1590 C1594 1.524 . S
C1591 C1583 1.503 . S
C1591 C1590 1.370 . S
C1591 C1592 1.403 . S
C1592 C1591 1.403 . S
C1592 C1593 1.404 . S
C1592 C1595 1.539 . S
C1593 C1589 1.408 . S
C1593 C1592 1.404 . S
C1593 H1605 0.930 . S
C1594 C1590 1.524 . S
C1594 H1606 0.956 . S
C1594 H1607 0.961 . S
C1594 H1608 0.961 . S
C1595 C1592 1.539 . S
C1595 H1609 0.958 . S
C1595 H1610 0.961 . S
C1595 H1611 0.960 . S
H1596 C1580 0.931 . S
H1597 C1585 0.929 . S
H1598 C1586 0.960 . S
H1599 C1586 0.962 . S
H1600 C1586 0.960 . S
H1601 C1587 0.961 . S
H1602 C1587 0.961 . S
H1603 C1587 0.961 . S
H1604 C1588 0.931 . S
H1605 C1593 0.930 . S
H1606 C1594 0.956 . S
H1607 C1594 0.961 . S
H1608 C1594 0.961 . S
H1609 C1595 0.958 . S
H1610 C1595 0.961 . S
H1611 C1595 0.960 . S
C1612 C1613 1.391 . S
C1612 C1614 1.394 . S
C1612 H1628 0.931 . S
C1613 C1612 1.391 . S
C1613 C1617 1.376 . S
C1614 C1612 1.394 . S
C1614 C1615 1.369 . S
C1614 C1618 1.531 . S
C1615 C1614 1.369 . S
C1615 C1616 1.410 . S
C1615 C1623 1.503 . S
C1616 C1615 1.410 . S
C1616 C1617 1.392 . S
C1616 C1619 1.511 . S
C1617 C1613 1.376 . S
C1617 C1616 1.392 . S
C1617 H1629 0.929 . S
C1618 C1614 1.531 . S
C1618 H1630 0.960 . S
C1618 H1631 0.962 . S
C1618 H1632 0.960 . S
C1619 C1616 1.511 . S
C1619 H1633 0.961 . S
C1619 H1634 0.961 . S
C1619 H1635 0.961 . S
C1620 C1621 1.370 . S
C1620 C1622 1.363 . S
C1620 H1636 0.931 . S
C1621 C1620 1.370 . S
C1621 C1625 1.408 . S
C1622 C1620 1.363 . S
C1622 C1623 1.370 . S
C1622 C1626 1.524 . S
C1623 C1615 1.503 . S
C1623 C1622 1.370 . S
C1623 C1624 1.403 . S
C1624 C1623 1.403 . S
C1624 C1625 1.404 . S
C1624 C1627 1.539 . S
C1625 C1621 1.408 . S
C1625 C1624 1.404 . S
C1625 H1637 0.930 . S
C1626 C1622 1.524 . S
C1626 H1638 0.956 . S
C1626 H1639 0.961 . S
C1626 H1640 0.961 . S
C1627 C1624 1.539 . S
C1627 H1641 0.958 . S
C1627 H1642 0.961 . S
C1627 H1643 0.960 . S
H1628 C1612 0.931 . S
H1629 C1617 0.929 . S
H1630 C1618 0.960 . S
H1631 C1618 0.962 . S
H1632 C1618 0.960 . S
H1633 C1619 0.961 . S
H1634 C1619 0.961 . S
H1635 C1619 0.961 . S
H1636 C1620 0.931 . S
H1637 C1625 0.930 . S
H1638 C1626 0.956 . S
H1639 C1626 0.961 . S
H1640 C1626 0.961 . S
H1641 C1627 0.958 . S
H1642 C1627 0.961 . S
H1643 C1627 0.960 . S
C1644 C1645 1.391 . S
C1644 C1646 1.394 . S
C1644 H1660 0.931 . S
C1645 C1644 1.391 . S
C1645 C1649 1.380 . S
C1646 C1644 1.394 . S
C1646 C1647 1.369 . S
C1646 C1650 1.531 . S
C1647 C1646 1.369 . S
C1647 C1648 1.410 . S
C1647 C1655 1.503 . S
C1648 C1647 1.410 . S
C1648 C1649 1.397 . S
C1648 C1651 1.511 . S
C1649 C1645 1.380 . S
C1649 C1648 1.397 . S
C1649 H1661 0.923 1_554 S
C1650 C1646 1.531 . S
C1650 H1662 0.960 . S
C1650 H1663 0.962 1_554 S
C1650 H1664 0.960 . S
C1651 C1648 1.511 . S
C1651 H1665 0.961 1_554 S
C1651 H1666 0.961 1_554 S
C1651 H1667 0.961 . S
C1652 C1653 1.370 1_556 S
C1652 C1654 1.363 . S
C1652 H1668 0.931 . S
C1653 C1652 1.370 1_554 S
C1653 C1657 1.408 . S
C1654 C1652 1.363 . S
C1654 C1655 1.370 1_556 S
C1654 C1658 1.524 . S
C1655 C1647 1.503 . S
C1655 C1654 1.370 1_554 S
C1655 C1656 1.403 . S
C1656 C1655 1.403 . S
C1656 C1657 1.404 . S
C1656 C1659 1.539 . S
C1657 C1653 1.408 . S
C1657 C1656 1.404 . S
C1657 H1669 0.930 . S
C1658 C1654 1.524 . S
C1658 H1670 0.956 . S
C1658 H1671 0.961 . S
C1658 H1672 0.961 . S
C1659 C1656 1.539 . S
C1659 H1673 0.958 . S
C1659 H1674 0.961 . S
C1659 H1675 0.960 . S
H1660 C1644 0.931 . S
H1661 C1649 0.923 1_556 S
H1662 C1650 0.960 . S
H1663 C1650 0.962 1_556 S
H1664 C1650 0.960 . S
H1665 C1651 0.961 1_556 S
H1666 C1651 0.961 1_556 S
H1667 C1651 0.961 . S
H1668 C1652 0.931 . S
H1669 C1657 0.930 . S
H1670 C1658 0.956 . S
H1671 C1658 0.961 . S
H1672 C1658 0.961 . S
H1673 C1659 0.958 . S
H1674 C1659 0.961 . S
H1675 C1659 0.960 . S
C1676 C1677 1.364 1_554 S
C1676 C1678 1.394 . S
C1676 H1692 0.931 . S
C1677 C1676 1.364 1_556 S
C1677 C1681 1.407 . S
C1678 C1676 1.394 . S
C1678 C1679 1.369 1_554 S
C1678 C1682 1.531 . S
C1679 C1678 1.369 1_556 S
C1679 C1680 1.410 . S
C1679 C1687 1.503 . S
C1680 C1679 1.410 . S
C1680 C1681 1.392 . S
C1680 C1683 1.511 . S
C1681 C1677 1.407 . S
C1681 C1680 1.392 . S
C1681 H1693 0.929 . S
C1682 C1678 1.531 . S
C1682 H1694 0.960 . S
C1682 H1695 0.962 . S
C1682 H1696 0.960 . S
C1683 C1680 1.511 . S
C1683 H1697 0.961 . S
C1683 H1698 0.961 . S
C1683 H1699 0.961 . S
C1684 C1685 1.369 1_554 S
C1684 C1686 1.363 . S
C1684 H1700 0.931 . S
C1685 C1684 1.369 1_556 S
C1685 C1689 1.410 . S
C1686 C1684 1.363 . S
C1686 C1687 1.370 1_554 S
C1686 C1690 1.524 . S
C1687 C1679 1.503 . S
C1687 C1686 1.370 1_556 S
C1687 C1688 1.403 . S
C1688 C1687 1.403 . S
C1688 C1689 1.404 . S
C1688 C1691 1.539 . S
C1689 C1685 1.410 . S
C1689 C1688 1.404 . S
C1689 H1701 0.930 . S
C1690 C1686 1.524 . S
C1690 H1702 0.956 . S
C1690 H1703 0.961 . S
C1690 H1704 0.961 . S
C1691 C1688 1.539 . S
C1691 H1705 0.958 . S
C1691 H1706 0.961 . S
C1691 H1707 0.960 . S
H1692 C1676 0.931 . S
H1693 C1681 0.929 . S
H1694 C1682 0.960 . S
H1695 C1682 0.962 . S
H1696 C1682 0.960 . S
H1697 C1683 0.961 . S
H1698 C1683 0.961 . S
H1699 C1683 0.961 . S
H1700 C1684 0.931 . S
H1701 C1689 0.930 . S
H1702 C1690 0.956 . S
H1703 C1690 0.961 . S
H1704 C1690 0.961 . S
H1705 C1691 0.958 . S
H1706 C1691 0.961 . S
H1707 C1691 0.960 . S
C1708 C1709 1.391 . S
C1708 C1710 1.394 . S
C1708 H1724 0.931 . S
C1709 C1708 1.391 . S
C1709 C1713 1.376 1_554 S
C1710 C1708 1.394 . S
C1710 C1711 1.369 . S
C1710 C1714 1.531 . S
C1711 C1710 1.369 . S
C1711 C1712 1.410 1_554 S
C1711 C1719 1.503 . S
C1712 C1711 1.410 1_556 S
C1712 C1713 1.392 . S
C1712 C1715 1.511 . S
C1713 C1709 1.376 1_556 S
C1713 C1712 1.392 . S
C1713 H1725 0.929 . S
C1714 C1710 1.531 . S
C1714 H1726 0.960 . S
C1714 H1727 0.962 . S
C1714 H1728 0.960 . S
C1715 C1712 1.511 . S
C1715 H1729 0.961 . S
C1715 H1730 0.961 . S
C1715 H1731 0.961 . S
C1716 C1717 1.370 1_556 S
C1716 C1718 1.363 . S
C1716 H1732 0.931 . S
C1717 C1716 1.370 1_554 S
C1717 C1721 1.408 . S
C1718 C1716 1.363 . S
C1718 C1719 1.370 1_556 S
C1718 C1722 1.524 . S
C1719 C1711 1.503 . S
C1719 C1718 1.370 1_554 S
C1719 C1720 1.403 . S
C1720 C1719 1.403 . S
C1720 C1721 1.404 . S
C1720 C1723 1.539 . S
C1721 C1717 1.408 . S
C1721 C1720 1.404 . S
C1721 H1733 0.930 . S
C1722 C1718 1.524 . S
C1722 H1734 0.956 . S
C1722 H1735 0.961 . S
C1722 H1736 0.961 . S
C1723 C1720 1.539 . S
C1723 H1737 0.958 . S
C1723 H1738 0.961 . S
C1723 H1739 0.960 . S
H1724 C1708 0.931 . S
H1725 C1713 0.929 . S
H1726 C1714 0.960 . S
H1727 C1714 0.962 . S
H1728 C1714 0.960 . S
H1729 C1715 0.961 . S
H1730 C1715 0.961 . S
H1731 C1715 0.961 . S
H1732 C1716 0.931 . S
H1733 C1721 0.930 . S
H1734 C1722 0.956 . S
H1735 C1722 0.961 . S
H1736 C1722 0.961 . S
H1737 C1723 0.958 . S
H1738 C1723 0.961 . S
H1739 C1723 0.960 . S
C1740 C1741 1.384 1_556 S
C1740 C1742 1.391 1_556 S
C1740 H1756 0.943 . S
C1741 C1740 1.384 1_554 S
C1741 C1745 1.376 . S
C1742 C1740 1.391 1_554 S
C1742 C1743 1.374 . S
C1742 C1746 1.527 1_554 S
C1743 C1742 1.374 . S
C1743 C1744 1.410 . S
C1743 C1751 1.503 . S
C1744 C1743 1.410 . S
C1744 C1745 1.392 . S
C1744 C1747 1.511 . S
C1745 C1741 1.376 . S
C1745 C1744 1.392 . S
C1745 H1757 0.929 . S
C1746 C1742 1.527 1_556 S
C1746 H1758 0.960 1_556 S
C1746 H1759 0.962 . S
C1746 H1760 0.949 1_556 S
C1747 C1744 1.511 . S
C1747 H1761 0.961 . S
C1747 H1762 0.961 . S
C1747 H1763 0.961 . S
C1748 C1749 1.370 1_556 S
C1748 C1750 1.363 . S
C1748 H1764 0.931 . S
C1749 C1748 1.370 1_554 S
C1749 C1753 1.408 . S
C1750 C1748 1.363 . S
C1750 C1751 1.370 1_556 S
C1750 C1754 1.524 . S
C1751 C1743 1.503 . S
C1751 C1750 1.370 1_554 S
C1751 C1752 1.403 . S
C1752 C1751 1.403 . S
C1752 C1753 1.404 . S
C1752 C1755 1.539 . S
C1753 C1749 1.408 . S
C1753 C1752 1.404 . S
C1753 H1765 0.930 . S
C1754 C1750 1.524 . S
C1754 H1766 0.956 . S
C1754 H1767 0.961 . S
C1754 H1768 0.961 . S
C1755 C1752 1.539 . S
C1755 H1769 0.958 . S
C1755 H1770 0.961 . S
C1755 H1771 0.960 . S
H1756 C1740 0.943 . S
H1757 C1745 0.929 . S
H1758 C1746 0.960 1_554 S
H1759 C1746 0.962 . S
H1760 C1746 0.949 1_554 S
H1761 C1747 0.961 . S
H1762 C1747 0.961 . S
H1763 C1747 0.961 . S
H1764 C1748 0.931 . S
H1765 C1753 0.930 . S
H1766 C1754 0.956 . S
H1767 C1754 0.961 . S
H1768 C1754 0.961 . S
H1769 C1755 0.958 . S
H1770 C1755 0.961 . S
H1771 C1755 0.960 . S
C1772 C1773 1.391 . S
C1772 C1774 1.394 . S
C1772 H1788 0.931 . S
C1773 C1772 1.391 . S
C1773 C1777 1.376 1_455 S
C1774 C1772 1.394 . S
C1774 C1775 1.369 . S
C1774 C1778 1.531 . S
C1775 C1774 1.369 . S
C1775 C1776 1.410 1_455 S
C1775 C1783 1.503 . S
C1776 C1775 1.410 1_655 S
C1776 C1777 1.392 . S
C1776 C1779 1.511 . S
C1777 C1773 1.376 1_655 S
C1777 C1776 1.392 . S
C1777 H1789 0.929 . S
C1778 C1774 1.531 . S
C1778 H1790 0.960 . S
C1778 H1791 0.962 . S
C1778 H1792 0.960 . S
C1779 C1776 1.511 . S
C1779 H1793 0.961 . S
C1779 H1794 0.961 . S
C1779 H1795 0.961 . S
C1780 C1781 1.361 1_655 S
C1780 C1782 1.363 . S
C1780 H1796 0.931 . S
C1781 C1780 1.361 1_455 S
C1781 C1785 1.422 . S
C1782 C1780 1.363 . S
C1782 C1783 1.370 1_655 S
C1782 C1786 1.524 . S
C1783 C1775 1.503 . S
C1783 C1782 1.370 1_455 S
C1783 C1784 1.403 . S
C1784 C1783 1.403 . S
C1784 C1785 1.404 . S
C1784 C1787 1.539 . S
C1785 C1781 1.422 . S
C1785 C1784 1.404 . S
C1785 H1797 0.930 . S
C1786 C1782 1.524 . S
C1786 H1798 0.956 1_655 S
C1786 H1799 0.961 . S
C1786 H1800 0.961 . S
C1787 C1784 1.539 . S
C1787 H1801 0.958 . S
C1787 H1802 0.961 . S
C1787 H1803 0.960 . S
H1788 C1772 0.931 . S
H1789 C1777 0.929 . S
H1790 C1778 0.960 . S
H1791 C1778 0.962 . S
H1792 C1778 0.960 . S
H1793 C1779 0.961 . S
H1794 C1779 0.961 . S
H1795 C1779 0.961 . S
H1796 C1780 0.931 . S
H1797 C1785 0.930 . S
H1798 C1786 0.956 1_455 S
H1799 C1786 0.961 . S
H1800 C1786 0.961 . S
H1801 C1787 0.958 . S
H1802 C1787 0.961 . S
H1803 C1787 0.960 . S
C1804 C1805 1.411 . S
C1804 C1806 1.394 . S
C1804 H1820 0.931 . S
C1805 C1804 1.411 . S
C1805 C1809 1.359 1_565 S
C1806 C1804 1.394 . S
C1806 C1807 1.369 . S
C1806 C1810 1.531 . S
C1807 C1806 1.369 . S
C1807 C1808 1.410 1_565 S
C1807 C1815 1.503 . S
C1808 C1807 1.410 1_545 S
C1808 C1809 1.392 . S
C1808 C1811 1.511 . S
C1809 C1805 1.359 1_545 S
C1809 C1808 1.392 . S
C1809 H1821 0.929 . S
C1810 C1806 1.531 . S
C1810 H1822 0.960 . S
C1810 H1823 0.962 . S
C1810 H1824 0.960 . S
C1811 C1808 1.511 . S
C1811 H1825 0.961 . S
C1811 H1826 0.961 . S
C1811 H1827 0.961 . S
C1812 C1813 1.377 . S
C1812 C1814 1.363 . S
C1812 H1828 0.931 . S
C1813 C1812 1.377 . S
C1813 C1817 1.400 1_545 S
C1814 C1812 1.363 . S
C1814 C1815 1.370 1_545 S
C1814 C1818 1.524 . S
C1815 C1807 1.503 . S
C1815 C1814 1.370 1_565 S
C1815 C1816 1.403 . S
C1816 C1815 1.403 . S
C1816 C1817 1.404 . S
C1816 C1819 1.539 . S
C1817 C1813 1.400 1_565 S
C1817 C1816 1.404 . S
C1817 H1829 0.930 . S
C1818 C1814 1.524 . S
C1818 H1830 0.956 . S
C1818 H1831 0.961 . S
C1818 H1832 0.961 . S
C1819 C1816 1.539 . S
C1819 H1833 0.958 . S
C1819 H1834 0.961 . S
C1819 H1835 0.960 . S
H1820 C1804 0.931 . S
H1821 C1809 0.929 . S
H1822 C1810 0.960 . S
H1823 C1810 0.962 . S
H1824 C1810 0.960 . S
H1825 C1811 0.961 . S
H1826 C1811 0.961 . S
H1827 C1811 0.961 . S
H1828 C1812 0.931 . S
H1829 C1817 0.930 . S
H1830 C1818 0.956 . S
H1831 C1818 0.961 . S
H1832 C1818 0.961 . S
H1833 C1819 0.958 . S
H1834 C1819 0.961 . S
H1835 C1819 0.960 . S
C1836 C1837 1.421 . S
C1836 C1838 1.394 . S
C1836 H1852 0.931 . S
C1837 C1836 1.421 . S
C1837 C1841 1.346 1_455 S
C1838 C1836 1.394 . S
C1838 C1839 1.383 . S
C1838 C1842 1.531 . S
C1839 C1838 1.383 . S
C1839 C1840 1.395 1_455 S
C1839 C1847 1.503 . S
C1840 C1839 1.395 1_655 S
C1840 C1841 1.392 . S
C1840 C1843 1.511 . S
C1841 C1837 1.346 1_655 S
C1841 C1840 1.392 . S
C1841 H1853 0.929 . S
C1842 C1838 1.531 . S
C1842 H1854 0.960 . S
C1842 H1855 0.962 . S
C1842 H1856 0.960 . S
C1843 C1840 1.511 . S
C1843 H1857 0.961 . S
C1843 H1858 0.961 . S
C1843 H1859 0.961 . S
C1844 C1845 1.377 . S
C1844 C1846 1.363 . S
C1844 H1860 0.931 . S
C1845 C1844 1.377 . S
C1845 C1849 1.403 1_455 S
C1846 C1844 1.363 . S
C1846 C1847 1.374 . S
C1846 C1850 1.524 . S
C1847 C1839 1.503 . S
C1847 C1846 1.374 . S
C1847 C1848 1.400 1_455 S
C1848 C1847 1.400 1_655 S
C1848 C1849 1.404 . S
C1848 C1851 1.539 . S
C1849 C1845 1.403 1_655 S
C1849 C1848 1.404 . S
C1849 H1861 0.930 . S
C1850 C1846 1.524 . S
C1850 H1862 0.956 . S
C1850 H1863 0.961 1_455 S
C1850 H1864 0.961 . S
C1851 C1848 1.539 . S
C1851 H1865 0.958 1_655 S
C1851 H1866 0.961 . S
C1851 H1867 0.960 . S
H1852 C1836 0.931 . S
H1853 C1841 0.929 . S
H1854 C1842 0.960 . S
H1855 C1842 0.962 . S
H1856 C1842 0.960 . S
H1857 C1843 0.961 . S
H1858 C1843 0.961 . S
H1859 C1843 0.961 . S
H1860 C1844 0.931 . S
H1861 C1849 0.930 . S
H1862 C1850 0.956 . S
H1863 C1850 0.961 1_655 S
H1864 C1850 0.961 . S
H1865 C1851 0.958 1_455 S
H1866 C1851 0.961 . S
H1867 C1851 0.960 . S
C1868 C1869 1.391 . S
C1868 C1870 1.394 . S
C1868 H1884 0.931 . S
C1869 C1868 1.391 . S
C1869 C1873 1.376 1_545 S
C1870 C1868 1.394 . S
C1870 C1871 1.369 . S
C1870 C1874 1.531 . S
C1871 C1870 1.369 . S
C1871 C1872 1.410 1_545 S
C1871 C1879 1.503 . S
C1872 C1871 1.410 1_565 S
C1872 C1873 1.392 . S
C1872 C1875 1.511 . S
C1873 C1869 1.376 1_565 S
C1873 C1872 1.392 . S
C1873 H1885 0.929 . S
C1874 C1870 1.531 . S
C1874 H1886 0.960 . S
C1874 H1887 0.962 . S
C1874 H1888 0.960 . S
C1875 C1872 1.511 . S
C1875 H1889 0.961 . S
C1875 H1890 0.961 . S
C1875 H1891 0.961 . S
C1876 C1877 1.370 1_565 S
C1876 C1878 1.363 . S
C1876 H1892 0.931 . S
C1877 C1876 1.370 1_545 S
C1877 C1881 1.408 . S
C1878 C1876 1.363 . S
C1878 C1879 1.370 1_565 S
C1878 C1882 1.524 . S
C1879 C1871 1.503 . S
C1879 C1878 1.370 1_545 S
C1879 C1880 1.403 . S
C1880 C1879 1.403 . S
C1880 C1881 1.404 . S
C1880 C1883 1.539 . S
C1881 C1877 1.408 . S
C1881 C1880 1.404 . S
C1881 H1893 0.930 . S
C1882 C1878 1.524 . S
C1882 H1894 0.956 . S
C1882 H1895 0.961 . S
C1882 H1896 0.961 . S
C1883 C1880 1.539 . S
C1883 H1897 0.958 . S
C1883 H1898 0.961 . S
C1883 H1899 0.960 . S
H1884 C1868 0.931 . S
H1885 C1873 0.929 . S
H1886 C1874 0.960 . S
H1887 C1874 0.962 . S
H1888 C1874 0.960 . S
H1889 C1875 0.961 . S
H1890 C1875 0.961 . S
H1891 C1875 0.961 . S
H1892 C1876 0.931 . S
H1893 C1881 0.930 . S
H1894 C1882 0.956 . S
H1895 C1882 0.961 . S
H1896 C1882 0.961 . S
H1897 C1883 0.958 . S
H1898 C1883 0.961 . S
H1899 C1883 0.960 . S
C1900 C1901 1.391 1_655 S
C1900 C1902 1.394 . S
C1900 H1916 0.931 . S
C1901 C1900 1.391 1_455 S
C1901 C1905 1.376 . S
C1902 C1900 1.394 . S
C1902 C1903 1.369 1_655 S
C1902 C1906 1.531 . S
C1903 C1902 1.369 1_455 S
C1903 C1904 1.410 . S
C1903 C1911 1.503 . S
C1904 C1903 1.410 . S
C1904 C1905 1.392 . S
C1904 C1907 1.511 . S
C1905 C1901 1.376 . S
C1905 C1904 1.392 . S
C1905 H1917 0.929 . S
C1906 C1902 1.531 . S
C1906 H1918 0.960 . S
C1906 H1919 0.962 . S
C1906 H1920 0.960 . S
C1907 C1904 1.511 . S
C1907 H1921 0.961 . S
C1907 H1922 0.961 . S
C1907 H1923 0.961 . S
C1908 C1909 1.370 1_655 S
C1908 C1910 1.363 . S
C1908 H1924 0.931 . S
C1909 C1908 1.370 1_455 S
C1909 C1913 1.408 . S
C1910 C1908 1.363 . S
C1910 C1911 1.370 1_655 S
C1910 C1914 1.524 . S
C1911 C1903 1.503 . S
C1911 C1910 1.370 1_455 S
C1911 C1912 1.403 . S
C1912 C1911 1.403 . S
C1912 C1913 1.404 . S
C1912 C1915 1.539 . S
C1913 C1909 1.408 . S
C1913 C1912 1.404 . S
C1913 H1925 0.930 . S
C1914 C1910 1.524 . S
C1914 H1926 0.956 . S
C1914 H1927 0.961 . S
C1914 H1928 0.961 . S
C1915 C1912 1.539 . S
C1915 H1929 0.958 . S
C1915 H1930 0.961 . S
C1915 H1931 0.960 . S
H1916 C1900 0.931 . S
H1917 C1905 0.929 . S
H1918 C1906 0.960 . S
H1919 C1906 0.962 . S
H1920 C1906 0.960 . S
H1921 C1907 0.961 . S
H1922 C1907 0.961 . S
H1923 C1907 0.961 . S
H1924 C1908 0.931 . S
H1925 C1913 0.930 . S
H1926 C1914 0.956 . S
H1927 C1914 0.961 . S
H1928 C1914 0.961 . S
H1929 C1915 0.958 . S
H1930 C1915 0.961 . S
H1931 C1915 0.960 . S
C1932 C1933 1.405 . S
C1932 C1934 1.394 . S
C1932 H1948 0.931 . S
C1933 C1932 1.405 . S
C1933 C1937 1.363 1_565 S
C1934 C1932 1.394 . S
C1934 C1935 1.369 . S
C1934 C1938 1.531 . S
C1935 C1934 1.369 . S
C1935 C1936 1.410 1_565 S
C1935 C1943 1.503 . S
C1936 C1935 1.410 1_545 S
C1936 C1937 1.392 . S
C1936 C1939 1.511 . S
C1937 C1933 1.363 1_545 S
C1937 C1936 1.392 . S
C1937 H1949 0.929 . S
C1938 C1934 1.531 . S
C1938 H1950 0.960 . S
C1938 H1951 0.962 . S
C1938 H1952 0.960 . S
C1939 C1936 1.511 . S
C1939 H1953 0.961 . S
C1939 H1954 0.961 . S
C1939 H1955 0.961 . S
C1940 C1941 1.379 . S
C1940 C1942 1.363 . S
C1940 H1956 0.931 . S
C1941 C1940 1.379 . S
C1941 C1945 1.398 1_545 S
C1942 C1940 1.363 . S
C1942 C1943 1.370 1_545 S
C1942 C1946 1.524 . S
C1943 C1935 1.503 . S
C1943 C1942 1.370 1_565 S
C1943 C1944 1.403 . S
C1944 C1943 1.403 . S
C1944 C1945 1.404 . S
C1944 C1947 1.539 . S
C1945 C1941 1.398 1_565 S
C1945 C1944 1.404 . S
C1945 H1957 0.930 . S
C1946 C1942 1.524 . S
C1946 H1958 0.956 . S
C1946 H1959 0.961 . S
C1946 H1960 0.961 . S
C1947 C1944 1.539 . S
C1947 H1961 0.958 . S
C1947 H1962 0.961 . S
C1947 H1963 0.960 . S
H1948 C1932 0.931 . S
H1949 C1937 0.929 . S
H1950 C1938 0.960 . S
H1951 C1938 0.962 . S
H1952 C1938 0.960 . S
H1953 C1939 0.961 . S
H1954 C1939 0.961 . S
H1955 C1939 0.961 . S
H1956 C1940 0.931 . S
H1957 C1945 0.930 . S
H1958 C1946 0.956 . S
H1959 C1946 0.961 . S
H1960 C1946 0.961 . S
H1961 C1947 0.958 . S
H1962 C1947 0.961 . S
H1963 C1947 0.960 . S
C1964 C1965 1.391 1_655 S
C1964 C1966 1.394 . S
C1964 H1980 0.931 . S
C1965 C1964 1.391 1_455 S
C1965 C1969 1.376 . S
C1966 C1964 1.394 . S
C1966 C1967 1.369 1_655 S
C1966 C1970 1.531 . S
C1967 C1966 1.369 1_455 S
C1967 C1968 1.410 . S
C1967 C1975 1.503 . S
C1968 C1967 1.410 . S
C1968 C1969 1.392 . S
C1968 C1971 1.511 . S
C1969 C1965 1.376 . S
C1969 C1968 1.392 . S
C1969 H1981 0.929 . S
C1970 C1966 1.531 . S
C1970 H1982 0.960 . S
C1970 H1983 0.962 . S
C1970 H1984 0.960 . S
C1971 C1968 1.511 . S
C1971 H1985 0.961 . S
C1971 H1986 0.961 . S
C1971 H1987 0.961 . S
C1972 C1973 1.370 1_655 S
C1972 C1974 1.363 . S
C1972 H1988 0.931 . S
C1973 C1972 1.370 1_455 S
C1973 C1977 1.408 . S
C1974 C1972 1.363 . S
C1974 C1975 1.370 1_655 S
C1974 C1978 1.524 . S
C1975 C1967 1.503 . S
C1975 C1974 1.370 1_455 S
C1975 C1976 1.403 . S
C1976 C1975 1.403 . S
C1976 C1977 1.404 . S
C1976 C1979 1.539 . S
C1977 C1973 1.408 . S
C1977 C1976 1.404 . S
C1977 H1989 0.930 . S
C1978 C1974 1.524 . S
C1978 H1990 0.956 . S
C1978 H1991 0.961 1_655 S
C1978 H1992 0.961 . S
C1979 C1976 1.539 . S
C1979 H1993 0.958 1_455 S
C1979 H1994 0.961 . S
C1979 H1995 0.960 . S
H1980 C1964 0.931 . S
H1981 C1969 0.929 . S
H1982 C1970 0.960 . S
H1983 C1970 0.962 . S
H1984 C1970 0.960 . S
H1985 C1971 0.961 . S
H1986 C1971 0.961 . S
H1987 C1971 0.961 . S
H1988 C1972 0.931 . S
H1989 C1977 0.930 . S
H1990 C1978 0.956 . S
H1991 C1978 0.961 1_455 S
H1992 C1978 0.961 . S
H1993 C1979 0.958 1_655 S
H1994 C1979 0.961 . S
H1995 C1979 0.960 . S
C1996 C1997 1.391 . S
C1996 C1998 1.394 . S
C1996 H2012 0.931 . S
C1997 C1996 1.391 . S
C1997 C2001 1.376 1_565 S
C1998 C1996 1.394 . S
C1998 C1999 1.369 . S
C1998 C2002 1.531 . S
C1999 C1998 1.369 . S
C1999 C2000 1.410 1_565 S
C1999 C2007 1.503 . S
C2000 C1999 1.410 1_545 S
C2000 C2001 1.392 . S
C2000 C2003 1.511 . S
C2001 C1997 1.376 1_545 S
C2001 C2000 1.392 . S
C2001 H2013 0.929 . S
C2002 C1998 1.531 . S
C2002 H2014 0.960 . S
C2002 H2015 0.962 . S
C2002 H2016 0.960 . S
C2003 C2000 1.511 . S
C2003 H2017 0.961 . S
C2003 H2018 0.961 . S
C2003 H2019 0.961 . S
C2004 C2005 1.373 . S
C2004 C2006 1.363 . S
C2004 H2020 0.931 . S
C2005 C2004 1.373 . S
C2005 C2009 1.406 1_545 S
C2006 C2004 1.363 . S
C2006 C2007 1.370 1_545 S
C2006 C2010 1.524 . S
C2007 C1999 1.503 . S
C2007 C2006 1.370 1_565 S
C2007 C2008 1.403 . S
C2008 C2007 1.403 . S
C2008 C2009 1.404 . S
C2008 C2011 1.539 . S
C2009 C2005 1.406 1_565 S
C2009 C2008 1.404 . S
C2009 H2021 0.930 . S
C2010 C2006 1.524 . S
C2010 H2022 0.956 . S
C2010 H2023 0.961 . S
C2010 H2024 0.961 . S
C2011 C2008 1.539 . S
C2011 H2025 0.958 . S
C2011 H2026 0.961 . S
C2011 H2027 0.960 . S
H2012 C1996 0.931 . S
H2013 C2001 0.929 . S
H2014 C2002 0.960 . S
H2015 C2002 0.962 . S
H2016 C2002 0.960 . S
H2017 C2003 0.961 . S
H2018 C2003 0.961 . S
H2019 C2003 0.961 . S
H2020 C2004 0.931 . S
H2021 C2009 0.930 . S
H2022 C2010 0.956 . S
H2023 C2010 0.961 . S
H2024 C2010 0.961 . S
H2025 C2011 0.958 . S
H2026 C2011 0.961 . S
H2027 C2011 0.960 . S
C2028 C2029 1.391 . S
C2028 C2030 1.394 . S
C2028 H2044 0.931 . S
C2029 C2028 1.391 . S
C2029 C2033 1.376 1_455 S
C2030 C2028 1.394 . S
C2030 C2031 1.369 . S
C2030 C2034 1.531 . S
C2031 C2030 1.369 . S
C2031 C2032 1.410 1_455 S
C2031 C2039 1.503 . S
C2032 C2031 1.410 1_655 S
C2032 C2033 1.392 . S
C2032 C2035 1.511 . S
C2033 C2029 1.376 1_655 S
C2033 C2032 1.392 . S
C2033 H2045 0.929 . S
C2034 C2030 1.531 . S
C2034 H2046 0.960 . S
C2034 H2047 0.962 . S
C2034 H2048 0.960 . S
C2035 C2032 1.511 . S
C2035 H2049 0.961 . S
C2035 H2050 0.961 . S
C2035 H2051 0.961 . S
C2036 C2037 1.370 1_655 S
C2036 C2038 1.363 . S
C2036 H2052 0.931 . S
C2037 C2036 1.370 1_455 S
C2037 C2041 1.408 . S
C2038 C2036 1.363 . S
C2038 C2039 1.370 1_655 S
C2038 C2042 1.524 . S
C2039 C2031 1.503 . S
C2039 C2038 1.370 1_455 S
C2039 C2040 1.403 . S
C2040 C2039 1.403 . S
C2040 C2041 1.404 . S
C2040 C2043 1.539 . S
C2041 C2037 1.408 . S
C2041 C2040 1.404 . S
C2041 H2053 0.930 . S
C2042 C2038 1.524 . S
C2042 H2054 0.956 1_655 S
C2042 H2055 0.961 . S
C2042 H2056 0.961 . S
C2043 C2040 1.539 . S
C2043 H2057 0.958 . S
C2043 H2058 0.961 . S
C2043 H2059 0.960 . S
H2044 C2028 0.931 . S
H2045 C2033 0.929 . S
H2046 C2034 0.960 . S
H2047 C2034 0.962 . S
H2048 C2034 0.960 . S
H2049 C2035 0.961 . S
H2050 C2035 0.961 . S
H2051 C2035 0.961 . S
H2052 C2036 0.931 . S
H2053 C2041 0.930 . S
H2054 C2042 0.956 1_455 S
H2055 C2042 0.961 . S
H2056 C2042 0.961 . S
H2057 C2043 0.958 . S
H2058 C2043 0.961 . S
H2059 C2043 0.960 . S
C2060 C2061 1.391 . S
C2060 C2062 1.394 . S
C2060 H2076 0.931 . S
C2061 C2060 1.391 . S
C2061 C2065 1.377 . S
C2062 C2060 1.394 . S
C2062 C2063 1.369 . S
C2062 C2066 1.531 . S
C2063 C2062 1.369 . S
C2063 C2064 1.410 . S
C2063 C2071 1.503 . S
C2064 C2063 1.410 . S
C2064 C2065 1.393 . S
C2064 C2067 1.509 1_545 S
C2065 C2061 1.377 . S
C2065 C2064 1.393 . S
C2065 H2077 0.927 1_545 S
C2066 C2062 1.531 . S
C2066 H2078 0.960 . S
C2066 H2079 0.937 1_545 S
C2066 H2080 0.960 . S
C2067 C2064 1.509 1_565 S
C2067 H2081 0.976 . S
C2067 H2082 0.973 . S
C2067 H2083 0.937 1_565 S
C2068 C2069 1.370 1_565 S
C2068 C2070 1.363 . S
C2068 H2084 0.931 . S
C2069 C2068 1.370 1_545 S
C2069 C2073 1.408 . S
C2070 C2068 1.363 . S
C2070 C2071 1.370 1_565 S
C2070 C2074 1.524 . S
C2071 C2063 1.503 . S
C2071 C2070 1.370 1_545 S
C2071 C2072 1.403 . S
C2072 C2071 1.403 . S
C2072 C2073 1.404 . S
C2072 C2075 1.539 . S
C2073 C2069 1.408 . S
C2073 C2072 1.404 . S
C2073 H2085 0.930 . S
C2074 C2070 1.524 . S
C2074 H2086 0.956 . S
C2074 H2087 0.961 . S
C2074 H2088 0.961 . S
C2075 C2072 1.539 . S
C2075 H2089 0.958 . S
C2075 H2090 0.961 . S
C2075 H2091 0.960 . S
H2076 C2060 0.931 . S
H2077 C2065 0.927 1_565 S
H2078 C2066 0.960 . S
H2079 C2066 0.937 1_565 S
H2080 C2066 0.960 . S
H2081 C2067 0.976 . S
H2082 C2067 0.973 . S
H2083 C2067 0.937 1_545 S
H2084 C2068 0.931 . S
H2085 C2073 0.930 . S
H2086 C2074 0.956 . S
H2087 C2074 0.961 . S
H2088 C2074 0.961 . S
H2089 C2075 0.958 . S
H2090 C2075 0.961 . S
H2091 C2075 0.960 . S
C2092 C2093 1.391 . S
C2092 C2094 1.394 . S
C2092 H2108 0.931 . S
C2093 C2092 1.391 . S
C2093 C2097 1.376 1_455 S
C2094 C2092 1.394 . S
C2094 C2095 1.369 . S
C2094 C2098 1.531 . S
C2095 C2094 1.369 . S
C2095 C2096 1.410 1_455 S
C2095 C2103 1.503 . S
C2096 C2095 1.410 1_655 S
C2096 C2097 1.392 . S
C2096 C2099 1.511 . S
C2097 C2093 1.376 1_655 S
C2097 C2096 1.392 . S
C2097 H2109 0.929 . S
C2098 C2094 1.531 . S
C2098 H2110 0.960 . S
C2098 H2111 0.962 . S
C2098 H2112 0.960 . S
C2099 C2096 1.511 . S
C2099 H2113 0.961 . S
C2099 H2114 0.961 . S
C2099 H2115 0.961 . S
C2100 C2101 1.370 1_655 S
C2100 C2102 1.363 . S
C2100 H2116 0.931 . S
C2101 C2100 1.370 1_455 S
C2101 C2105 1.408 . S
C2102 C2100 1.363 . S
C2102 C2103 1.370 1_655 S
C2102 C2106 1.524 . S
C2103 C2095 1.503 . S
C2103 C2102 1.370 1_455 S
C2103 C2104 1.403 . S
C2104 C2103 1.403 . S
C2104 C2105 1.404 . S
C2104 C2107 1.539 . S
C2105 C2101 1.408 . S
C2105 C2104 1.404 . S
C2105 H2117 0.930 . S
C2106 C2102 1.524 . S
C2106 H2118 0.956 1_655 S
C2106 H2119 0.961 . S
C2106 H2120 0.961 . S
C2107 C2104 1.539 . S
C2107 H2121 0.958 . S
C2107 H2122 0.961 . S
C2107 H2123 0.960 . S
H2108 C2092 0.931 . S
H2109 C2097 0.929 . S
H2110 C2098 0.960 . S
H2111 C2098 0.962 . S
H2112 C2098 0.960 . S
H2113 C2099 0.961 . S
H2114 C2099 0.961 . S
H2115 C2099 0.961 . S
H2116 C2100 0.931 . S
H2117 C2105 0.930 . S
H2118 C2106 0.956 1_455 S
H2119 C2106 0.961 . S
H2120 C2106 0.961 . S
H2121 C2107 0.958 . S
H2122 C2107 0.961 . S
H2123 C2107 0.960 . S
C2124 C2125 1.423 . S
C2124 C2126 1.394 . S
C2124 H2140 0.931 . S
C2125 C2124 1.423 . S
C2125 C2129 1.348 1_565 S
C2126 C2124 1.394 . S
C2126 C2127 1.369 . S
C2126 C2130 1.531 . S
C2127 C2126 1.369 . S
C2127 C2128 1.410 1_565 S
C2127 C2135 1.503 . S
C2128 C2127 1.410 1_545 S
C2128 C2129 1.392 . S
C2128 C2131 1.511 . S
C2129 C2125 1.348 1_545 S
C2129 C2128 1.392 . S
C2129 H2141 0.929 . S
C2130 C2126 1.531 . S
C2130 H2142 0.960 . S
C2130 H2143 0.962 . S
C2130 H2144 0.960 . S
C2131 C2128 1.511 . S
C2131 H2145 0.961 . S
C2131 H2146 0.961 . S
C2131 H2147 0.961 . S
C2132 C2133 1.373 1_545 S
C2132 C2134 1.363 . S
C2132 H2148 0.931 . S
C2133 C2132 1.373 1_565 S
C2133 C2137 1.406 . S
C2134 C2132 1.363 . S
C2134 C2135 1.370 1_545 S
C2134 C2138 1.524 . S
C2135 C2127 1.503 . S
C2135 C2134 1.370 1_565 S
C2135 C2136 1.403 . S
C2136 C2135 1.403 . S
C2136 C2137 1.404 . S
C2136 C2139 1.539 . S
C2137 C2133 1.406 . S
C2137 C2136 1.404 . S
C2137 H2149 0.930 . S
C2138 C2134 1.524 . S
C2138 H2150 0.956 . S
C2138 H2151 0.961 . S
C2138 H2152 0.961 . S
C2139 C2136 1.539 . S
C2139 H2153 0.958 . S
C2139 H2154 0.961 . S
C2139 H2155 0.960 . S
H2140 C2124 0.931 . S
H2141 C2129 0.929 . S
H2142 C2130 0.960 . S
H2143 C2130 0.962 . S
H2144 C2130 0.960 . S
H2145 C2131 0.961 . S
H2146 C2131 0.961 . S
H2147 C2131 0.961 . S
H2148 C2132 0.931 . S
H2149 C2137 0.930 . S
H2150 C2138 0.956 . S
H2151 C2138 0.961 . S
H2152 C2138 0.961 . S
H2153 C2139 0.958 . S
H2154 C2139 0.961 . S
H2155 C2139 0.960 . S
C2156 C2157 1.383 1_455 S
C2156 C2158 1.394 . S
C2156 H2172 0.931 . S
C2157 C2156 1.383 1_655 S
C2157 C2161 1.386 . S
C2158 C2156 1.394 . S
C2158 C2159 1.369 1_455 S
C2158 C2162 1.531 . S
C2159 C2158 1.369 1_655 S
C2159 C2160 1.410 . S
C2159 C2167 1.503 . S
C2160 C2159 1.410 . S
C2160 C2161 1.392 . S
C2160 C2163 1.511 . S
C2161 C2157 1.386 . S
C2161 C2160 1.392 . S
C2161 H2173 0.929 . S
C2162 C2158 1.531 . S
C2162 H2174 0.960 . S
C2162 H2175 0.962 . S
C2162 H2176 0.960 . S
C2163 C2160 1.511 . S
C2163 H2177 0.961 . S
C2163 H2178 0.961 . S
C2163 H2179 0.961 . S
C2164 C2165 1.394 . S
C2164 C2166 1.363 . S
C2164 H2180 0.931 . S
C2165 C2164 1.394 . S
C2165 C2169 1.383 1_455 S
C2166 C2164 1.363 . S
C2166 C2167 1.370 1_455 S
C2166 C2170 1.524 . S
C2167 C2159 1.503 . S
C2167 C2166 1.370 1_655 S
C2167 C2168 1.403 . S
C2168 C2167 1.403 . S
C2168 C2169 1.404 . S
C2168 C2171 1.539 . S
C2169 C2165 1.383 1_655 S
C2169 C2168 1.404 . S
C2169 H2181 0.930 . S
C2170 C2166 1.524 . S
C2170 H2182 0.956 . S
C2170 H2183 0.961 . S
C2170 H2184 0.961 . S
C2171 C2168 1.539 . S
C2171 H2185 0.958 . S
C2171 H2186 0.961 . S
C2171 H2187 0.960 . S
H2172 C2156 0.931 . S
H2173 C2161 0.929 . S
H2174 C2162 0.960 . S
H2175 C2162 0.962 . S
H2176 C2162 0.960 . S
H2177 C2163 0.961 . S
H2178 C2163 0.961 . S
H2179 C2163 0.961 . S
H2180 C2164 0.931 . S
H2181 C2169 0.930 . S
H2182 C2170 0.956 . S
H2183 C2170 0.961 . S
H2184 C2170 0.961 . S
H2185 C2171 0.958 . S
H2186 C2171 0.961 . S
H2187 C2171 0.960 . S
C2188 C2189 1.391 . S
C2188 C2190 1.394 . S
C2188 H2204 0.931 . S
C2189 C2188 1.391 . S
C2189 C2193 1.376 1_545 S
C2190 C2188 1.394 . S
C2190 C2191 1.369 . S
C2190 C2194 1.531 . S
C2191 C2190 1.369 . S
C2191 C2192 1.410 1_545 S
C2191 C2199 1.503 . S
C2192 C2191 1.410 1_565 S
C2192 C2193 1.392 . S
C2192 C2195 1.511 . S
C2193 C2189 1.376 1_565 S
C2193 C2192 1.392 . S
C2193 H2205 0.929 . S
C2194 C2190 1.531 . S
C2194 H2206 0.960 . S
C2194 H2207 0.962 . S
C2194 H2208 0.960 . S
C2195 C2192 1.511 . S
C2195 H2209 0.961 . S
C2195 H2210 0.961 . S
C2195 H2211 0.961 . S
C2196 C2197 1.370 1_565 S
C2196 C2198 1.363 . S
C2196 H2212 0.931 . S
C2197 C2196 1.370 1_545 S
C2197 C2201 1.408 . S
C2198 C2196 1.363 . S
C2198 C2199 1.370 1_565 S
C2198 C2202 1.524 . S
C2199 C2191 1.503 . S
C2199 C2198 1.370 1_545 S
C2199 C2200 1.403 . S
C2200 C2199 1.403 . S
C2200 C2201 1.404 . S
C2200 C2203 1.539 . S
C2201 C2197 1.408 . S
C2201 C2200 1.404 . S
C2201 H2213 0.930 . S
C2202 C2198 1.524 . S
C2202 H2214 0.956 . S
C2202 H2215 0.961 . S
C2202 H2216 0.961 . S
C2203 C2200 1.539 . S
C2203 H2217 0.958 . S
C2203 H2218 0.961 . S
C2203 H2219 0.960 . S
H2204 C2188 0.931 . S
H2205 C2193 0.929 . S
H2206 C2194 0.960 . S
H2207 C2194 0.962 . S
H2208 C2194 0.960 . S
H2209 C2195 0.961 . S
H2210 C2195 0.961 . S
H2211 C2195 0.961 . S
H2212 C2196 0.931 . S
H2213 C2201 0.930 . S
H2214 C2202 0.956 . S
H2215 C2202 0.961 . S
H2216 C2202 0.961 . S
H2217 C2203 0.958 . S
H2218 C2203 0.961 . S
H2219 C2203 0.960 . S
C2220 C2221 1.389 1_455 S
C2220 C2222 1.394 . S
C2220 H2236 0.931 . S
C2221 C2220 1.389 1_655 S
C2221 C2225 1.378 . S
C2222 C2220 1.394 . S
C2222 C2223 1.369 1_455 S
C2222 C2226 1.531 . S
C2223 C2222 1.369 1_655 S
C2223 C2224 1.410 . S
C2223 C2231 1.503 . S
C2224 C2223 1.410 . S
C2224 C2225 1.392 . S
C2224 C2227 1.511 . S
C2225 C2221 1.378 . S
C2225 C2224 1.392 . S
C2225 H2237 0.929 . S
C2226 C2222 1.531 . S
C2226 H2238 0.960 . S
C2226 H2239 0.962 . S
C2226 H2240 0.960 . S
C2227 C2224 1.511 . S
C2227 H2241 0.961 . S
C2227 H2242 0.961 . S
C2227 H2243 0.961 . S
C2228 C2229 1.396 . S
C2228 C2230 1.363 . S
C2228 H2244 0.931 . S
C2229 C2228 1.396 . S
C2229 C2233 1.382 1_455 S
C2230 C2228 1.363 . S
C2230 C2231 1.370 1_455 S
C2230 C2234 1.524 . S
C2231 C2223 1.503 . S
C2231 C2230 1.370 1_655 S
C2231 C2232 1.403 . S
C2232 C2231 1.403 . S
C2232 C2233 1.404 . S
C2232 C2235 1.539 . S
C2233 C2229 1.382 1_655 S
C2233 C2232 1.404 . S
C2233 H2245 0.930 . S
C2234 C2230 1.524 . S
C2234 H2246 0.956 . S
C2234 H2247 0.961 . S
C2234 H2248 0.961 . S
C2235 C2232 1.539 . S
C2235 H2249 0.958 . S
C2235 H2250 0.961 . S
C2235 H2251 0.960 . S
H2236 C2220 0.931 . S
H2237 C2225 0.929 . S
H2238 C2226 0.960 . S
H2239 C2226 0.962 . S
H2240 C2226 0.960 . S
H2241 C2227 0.961 . S
H2242 C2227 0.961 . S
H2243 C2227 0.961 . S
H2244 C2228 0.931 . S
H2245 C2233 0.930 . S
H2246 C2234 0.956 . S
H2247 C2234 0.961 . S
H2248 C2234 0.961 . S
H2249 C2235 0.958 . S
H2250 C2235 0.961 . S
H2251 C2235 0.960 . S
C2252 C2253 1.391 . S
C2252 C2254 1.394 . S
C2252 H2268 0.931 . S
C2253 C2252 1.391 . S
C2253 C2257 1.376 1_545 S
C2254 C2252 1.394 . S
C2254 C2255 1.369 . S
C2254 C2258 1.531 . S
C2255 C2254 1.369 . S
C2255 C2256 1.410 1_545 S
C2255 C2263 1.503 . S
C2256 C2255 1.410 1_565 S
C2256 C2257 1.392 . S
C2256 C2259 1.511 . S
C2257 C2253 1.376 1_565 S
C2257 C2256 1.392 . S
C2257 H2269 0.929 . S
C2258 C2254 1.531 . S
C2258 H2270 0.960 . S
C2258 H2271 0.962 . S
C2258 H2272 0.960 . S
C2259 C2256 1.511 . S
C2259 H2273 0.961 . S
C2259 H2274 0.961 . S
C2259 H2275 0.961 . S
C2260 C2261 1.348 1_565 S
C2260 C2262 1.363 . S
C2260 H2276 0.931 . S
C2261 C2260 1.348 1_545 S
C2261 C2265 1.436 . S
C2262 C2260 1.363 . S
C2262 C2263 1.370 1_565 S
C2262 C2266 1.524 . S
C2263 C2255 1.503 . S
C2263 C2262 1.370 1_545 S
C2263 C2264 1.403 . S
C2264 C2263 1.403 . S
C2264 C2265 1.404 . S
C2264 C2267 1.539 . S
C2265 C2261 1.436 . S
C2265 C2264 1.404 . S
C2265 H2277 0.930 . S
C2266 C2262 1.524 . S
C2266 H2278 0.956 . S
C2266 H2279 0.961 . S
C2266 H2280 0.961 . S
C2267 C2264 1.539 . S
C2267 H2281 0.958 . S
C2267 H2282 0.961 . S
C2267 H2283 0.960 . S
H2268 C2252 0.931 . S
H2269 C2257 0.929 . S
H2270 C2258 0.960 . S
H2271 C2258 0.962 . S
H2272 C2258 0.960 . S
H2273 C2259 0.961 . S
H2274 C2259 0.961 . S
H2275 C2259 0.961 . S
H2276 C2260 0.931 . S
H2277 C2265 0.930 . S
H2278 C2266 0.956 . S
H2279 C2266 0.961 . S
H2280 C2266 0.961 . S
H2281 C2267 0.958 . S
H2282 C2267 0.961 . S
H2283 C2267 0.960 . S
C2284 C2285 1.391 . S
C2284 C2286 1.394 . S
C2284 H2300 0.931 . S
C2285 C2284 1.391 . S
C2285 C2289 1.375 1_545 S
C2286 C2284 1.394 . S
C2286 C2287 1.369 . S
C2286 C2290 1.531 . S
C2287 C2286 1.369 . S
C2287 C2288 1.410 . S
C2287 C2295 1.503 . S
C2288 C2287 1.410 . S
C2288 C2289 1.392 1_545 S
C2288 C2291 1.511 1_545 S
C2289 C2285 1.375 1_565 S
C2289 C2288 1.392 1_565 S
C2289 H2301 0.930 . S
C2290 C2286 1.531 . S
C2290 H2302 0.960 . S
C2290 H2303 0.995 . S
C2290 H2304 0.960 . S
C2291 C2288 1.511 1_565 S
C2291 H2305 0.961 . S
C2291 H2306 0.961 . S
C2291 H2307 0.961 1_565 S
C2292 C2293 1.370 1_565 S
C2292 C2294 1.363 . S
C2292 H2308 0.931 . S
C2293 C2292 1.370 1_545 S
C2293 C2297 1.408 . S
C2294 C2292 1.363 . S
C2294 C2295 1.370 1_565 S
C2294 C2298 1.524 . S
C2295 C2287 1.503 . S
C2295 C2294 1.370 1_545 S
C2295 C2296 1.403 . S
C2296 C2295 1.403 . S
C2296 C2297 1.404 . S
C2296 C2299 1.539 . S
C2297 C2293 1.408 . S
C2297 C2296 1.404 . S
C2297 H2309 0.930 . S
C2298 C2294 1.524 . S
C2298 H2310 0.956 . S
C2298 H2311 0.961 . S
C2298 H2312 0.961 . S
C2299 C2296 1.539 . S
C2299 H2313 0.958 . S
C2299 H2314 0.961 . S
C2299 H2315 0.960 . S
H2300 C2284 0.931 . S
H2301 C2289 0.930 . S
H2302 C2290 0.960 . S
H2303 C2290 0.995 . S
H2304 C2290 0.960 . S
H2305 C2291 0.961 . S
H2306 C2291 0.961 . S
H2307 C2291 0.961 1_545 S
H2308 C2292 0.931 . S
H2309 C2297 0.930 . S
H2310 C2298 0.956 . S
H2311 C2298 0.961 . S
H2312 C2298 0.961 . S
H2313 C2299 0.958 . S
H2314 C2299 0.961 . S
H2315 C2299 0.960 . S
C2316 C2317 1.391 1_655 S
C2316 C2318 1.394 . S
C2316 H2332 0.931 . S
C2317 C2316 1.391 1_455 S
C2317 C2321 1.376 . S
C2318 C2316 1.394 . S
C2318 C2319 1.369 1_655 S
C2318 C2322 1.531 . S
C2319 C2318 1.369 1_455 S
C2319 C2320 1.410 . S
C2319 C2327 1.503 . S
C2320 C2319 1.410 . S
C2320 C2321 1.392 . S
C2320 C2323 1.511 . S
C2321 C2317 1.376 . S
C2321 C2320 1.392 . S
C2321 H2333 0.929 . S
C2322 C2318 1.531 . S
C2322 H2334 0.960 . S
C2322 H2335 0.962 . S
C2322 H2336 0.960 . S
C2323 C2320 1.511 . S
C2323 H2337 0.961 . S
C2323 H2338 0.961 . S
C2323 H2339 0.961 . S
C2324 C2325 1.370 1_655 S
C2324 C2326 1.363 . S
C2324 H2340 0.931 . S
C2325 C2324 1.370 1_455 S
C2325 C2329 1.408 . S
C2326 C2324 1.363 . S
C2326 C2327 1.370 1_655 S
C2326 C2330 1.524 . S
C2327 C2319 1.503 . S
C2327 C2326 1.370 1_455 S
C2327 C2328 1.403 . S
C2328 C2327 1.403 . S
C2328 C2329 1.404 . S
C2328 C2331 1.539 . S
C2329 C2325 1.408 . S
C2329 C2328 1.404 . S
C2329 H2341 0.930 . S
C2330 C2326 1.524 . S
C2330 H2342 0.956 . S
C2330 H2343 0.961 1_655 S
C2330 H2344 0.961 . S
C2331 C2328 1.539 . S
C2331 H2345 0.958 1_455 S
C2331 H2346 0.961 . S
C2331 H2347 0.960 . S
H2332 C2316 0.931 . S
H2333 C2321 0.929 . S
H2334 C2322 0.960 . S
H2335 C2322 0.962 . S
H2336 C2322 0.960 . S
H2337 C2323 0.961 . S
H2338 C2323 0.961 . S
H2339 C2323 0.961 . S
H2340 C2324 0.931 . S
H2341 C2329 0.930 . S
H2342 C2330 0.956 . S
H2343 C2330 0.961 1_455 S
H2344 C2330 0.961 . S
H2345 C2331 0.958 1_655 S
H2346 C2331 0.961 . S
H2347 C2331 0.960 . S
C2348 C2349 1.373 1_545 S
C2348 C2350 1.394 . S
C2348 H2364 0.931 . S
C2349 C2348 1.373 1_565 S
C2349 C2353 1.396 . S
C2350 C2348 1.394 . S
C2350 C2351 1.369 1_545 S
C2350 C2354 1.531 . S
C2351 C2350 1.369 1_565 S
C2351 C2352 1.410 . S
C2351 C2359 1.503 . S
C2352 C2351 1.410 . S
C2352 C2353 1.392 . S
C2352 C2355 1.511 . S
C2353 C2349 1.396 . S
C2353 C2352 1.392 . S
C2353 H2365 0.929 . S
C2354 C2350 1.531 . S
C2354 H2366 0.960 . S
C2354 H2367 0.962 . S
C2354 H2368 0.960 . S
C2355 C2352 1.511 . S
C2355 H2369 0.961 . S
C2355 H2370 0.961 . S
C2355 H2371 0.961 . S
C2356 C2357 1.369 . S
C2356 C2358 1.363 . S
C2356 H2372 0.931 . S
C2357 C2356 1.369 . S
C2357 C2361 1.409 1_545 S
C2358 C2356 1.363 . S
C2358 C2359 1.370 1_545 S
C2358 C2362 1.524 . S
C2359 C2351 1.503 . S
C2359 C2358 1.370 1_565 S
C2359 C2360 1.403 . S
C2360 C2359 1.403 . S
C2360 C2361 1.404 . S
C2360 C2363 1.539 . S
C2361 C2357 1.409 1_565 S
C2361 C2360 1.404 . S
C2361 H2373 0.930 . S
C2362 C2358 1.524 . S
C2362 H2374 0.956 . S
C2362 H2375 0.961 . S
C2362 H2376 0.961 . S
C2363 C2360 1.539 . S
C2363 H2377 0.958 . S
C2363 H2378 0.961 . S
C2363 H2379 0.960 . S
H2364 C2348 0.931 . S
H2365 C2353 0.929 . S
H2366 C2354 0.960 . S
H2367 C2354 0.962 . S
H2368 C2354 0.960 . S
H2369 C2355 0.961 . S
H2370 C2355 0.961 . S
H2371 C2355 0.961 . S
H2372 C2356 0.931 . S
H2373 C2361 0.930 . S
H2374 C2362 0.956 . S
H2375 C2362 0.961 . S
H2376 C2362 0.961 . S
H2377 C2363 0.958 . S
H2378 C2363 0.961 . S
H2379 C2363 0.960 . S
C2380 C2381 1.374 1_455 S
C2380 C2382 1.394 . S
C2380 H2396 0.931 . S
C2381 C2380 1.374 1_655 S
C2381 C2385 1.395 . S
C2382 C2380 1.394 . S
C2382 C2383 1.369 1_455 S
C2382 C2386 1.531 . S
C2383 C2382 1.369 1_655 S
C2383 C2384 1.410 . S
C2383 C2391 1.503 . S
C2384 C2383 1.410 . S
C2384 C2385 1.392 . S
C2384 C2387 1.511 . S
C2385 C2381 1.395 . S
C2385 C2384 1.392 . S
C2385 H2397 0.929 . S
C2386 C2382 1.531 . S
C2386 H2398 0.960 . S
C2386 H2399 0.962 . S
C2386 H2400 0.960 . S
C2387 C2384 1.511 . S
C2387 H2401 0.961 . S
C2387 H2402 0.961 . S
C2387 H2403 0.961 . S
C2388 C2389 1.368 . S
C2388 C2390 1.363 . S
C2388 H2404 0.931 . S
C2389 C2388 1.368 . S
C2389 C2393 1.411 1_455 S
C2390 C2388 1.363 . S
C2390 C2391 1.370 1_455 S
C2390 C2394 1.524 . S
C2391 C2383 1.503 . S
C2391 C2390 1.370 1_655 S
C2391 C2392 1.403 . S
C2392 C2391 1.403 . S
C2392 C2393 1.404 . S
C2392 C2395 1.539 . S
C2393 C2389 1.411 1_655 S
C2393 C2392 1.404 . S
C2393 H2405 0.930 . S
C2394 C2390 1.524 . S
C2394 H2406 0.956 . S
C2394 H2407 0.961 . S
C2394 H2408 0.961 . S
C2395 C2392 1.539 . S
C2395 H2409 0.958 . S
C2395 H2410 0.961 . S
C2395 H2411 0.960 . S
H2396 C2380 0.931 . S
H2397 C2385 0.929 . S
H2398 C2386 0.960 . S
H2399 C2386 0.962 . S
H2400 C2386 0.960 . S
H2401 C2387 0.961 . S
H2402 C2387 0.961 . S
H2403 C2387 0.961 . S
H2404 C2388 0.931 . S
H2405 C2393 0.930 . S
H2406 C2394 0.956 . S
H2407 C2394 0.961 . S
H2408 C2394 0.961 . S
H2409 C2395 0.958 . S
H2410 C2395 0.961 . S
H2411 C2395 0.960 . S
C2412 C2413 1.391 . S
C2412 C2414 1.394 . S
C2412 H2428 0.931 . S
C2413 C2412 1.391 . S
C2413 C2417 1.376 . S
C2414 C2412 1.394 . S
C2414 C2415 1.369 . S
C2414 C2418 1.531 . S
C2415 C2414 1.369 . S
C2415 C2416 1.410 . S
C2415 C2423 1.503 . S
C2416 C2415 1.410 . S
C2416 C2417 1.392 . S
C2416 C2419 1.511 . S
C2417 C2413 1.376 . S
C2417 C2416 1.392 . S
C2417 H2429 0.928 1_565 S
C2418 C2414 1.531 . S
C2418 H2430 0.960 . S
C2418 H2431 0.962 1_565 S
C2418 H2432 0.960 . S
C2419 C2416 1.511 . S
C2419 H2433 0.961 1_565 S
C2419 H2434 0.961 1_565 S
C2419 H2435 0.961 . S
C2420 C2421 1.373 1_545 S
C2420 C2422 1.363 . S
C2420 H2436 0.931 . S
C2421 C2420 1.373 1_565 S
C2421 C2425 1.405 . S
C2422 C2420 1.363 . S
C2422 C2423 1.370 1_545 S
C2422 C2426 1.524 . S
C2423 C2415 1.503 . S
C2423 C2422 1.370 1_565 S
C2423 C2424 1.403 . S
C2424 C2423 1.403 . S
C2424 C2425 1.404 . S
C2424 C2427 1.539 . S
C2425 C2421 1.405 . S
C2425 C2424 1.404 . S
C2425 H2437 0.930 . S
C2426 C2422 1.524 . S
C2426 H2438 0.956 . S
C2426 H2439 0.961 . S
C2426 H2440 0.961 . S
C2427 C2424 1.539 . S
C2427 H2441 0.958 . S
C2427 H2442 0.961 . S
C2427 H2443 0.960 . S
H2428 C2412 0.931 . S
H2429 C2417 0.928 1_545 S
H2430 C2418 0.960 . S
H2431 C2418 0.962 1_545 S
H2432 C2418 0.960 . S
H2433 C2419 0.961 1_545 S
H2434 C2419 0.961 1_545 S
H2435 C2419 0.961 . S
H2436 C2420 0.931 . S
H2437 C2425 0.930 . S
H2438 C2426 0.956 . S
H2439 C2426 0.961 . S
H2440 C2426 0.961 . S
H2441 C2427 0.958 . S
H2442 C2427 0.961 . S
H2443 C2427 0.960 . S
C2444 C2445 1.391 1_655 S
C2444 C2446 1.394 . S
C2444 H2460 0.931 . S
C2445 C2444 1.391 1_455 S
C2445 C2449 1.376 . S
C2446 C2444 1.394 . S
C2446 C2447 1.369 1_655 S
C2446 C2450 1.531 . S
C2447 C2446 1.369 1_455 S
C2447 C2448 1.410 . S
C2447 C2455 1.503 . S
C2448 C2447 1.410 . S
C2448 C2449 1.392 . S
C2448 C2451 1.511 . S
C2449 C2445 1.376 . S
C2449 C2448 1.392 . S
C2449 H2461 0.929 . S
C2450 C2446 1.531 . S
C2450 H2462 0.960 . S
C2450 H2463 0.962 . S
C2450 H2464 0.960 . S
C2451 C2448 1.511 . S
C2451 H2465 0.961 . S
C2451 H2466 0.961 . S
C2451 H2467 0.961 . S
C2452 C2453 1.370 1_655 S
C2452 C2454 1.363 . S
C2452 H2468 0.931 . S
C2453 C2452 1.370 1_455 S
C2453 C2457 1.408 . S
C2454 C2452 1.363 . S
C2454 C2455 1.370 1_655 S
C2454 C2458 1.524 . S
C2455 C2447 1.503 . S
C2455 C2454 1.370 1_455 S
C2455 C2456 1.403 . S
C2456 C2455 1.403 . S
C2456 C2457 1.404 . S
C2456 C2459 1.539 . S
C2457 C2453 1.408 . S
C2457 C2456 1.404 . S
C2457 H2469 0.930 . S
C2458 C2454 1.524 . S
C2458 H2470 0.956 . S
C2458 H2471 0.961 . S
C2458 H2472 0.961 . S
C2459 C2456 1.539 . S
C2459 H2473 0.958 . S
C2459 H2474 0.961 . S
C2459 H2475 0.960 . S
H2460 C2444 0.931 . S
H2461 C2449 0.929 . S
H2462 C2450 0.960 . S
H2463 C2450 0.962 . S
H2464 C2450 0.960 . S
H2465 C2451 0.961 . S
H2466 C2451 0.961 . S
H2467 C2451 0.961 . S
H2468 C2452 0.931 . S
H2469 C2457 0.930 . S
H2470 C2458 0.956 . S
H2471 C2458 0.961 . S
H2472 C2458 0.961 . S
H2473 C2459 0.958 . S
H2474 C2459 0.961 . S
H2475 C2459 0.960 . S
C2476 C2477 1.391 . S
C2476 C2478 1.394 . S
C2476 H2492 0.931 . S
C2477 C2476 1.391 . S
C2477 C2481 1.376 1_545 S
C2478 C2476 1.394 . S
C2478 C2479 1.369 . S
C2478 C2482 1.531 . S
C2479 C2478 1.369 . S
C2479 C2480 1.410 1_545 S
C2479 C2487 1.503 . S
C2480 C2479 1.410 1_565 S
C2480 C2481 1.392 . S
C2480 C2483 1.511 . S
C2481 C2477 1.376 1_565 S
C2481 C2480 1.392 . S
C2481 H2493 0.929 . S
C2482 C2478 1.531 . S
C2482 H2494 0.960 . S
C2482 H2495 0.962 . S
C2482 H2496 0.960 . S
C2483 C2480 1.511 . S
C2483 H2497 0.961 . S
C2483 H2498 0.961 . S
C2483 H2499 0.961 . S
C2484 C2485 1.370 1_565 S
C2484 C2486 1.363 . S
C2484 H2500 0.931 . S
C2485 C2484 1.370 1_545 S
C2485 C2489 1.408 . S
C2486 C2484 1.363 . S
C2486 C2487 1.370 1_565 S
C2486 C2490 1.524 . S
C2487 C2479 1.503 . S
C2487 C2486 1.370 1_545 S
C2487 C2488 1.403 . S
C2488 C2487 1.403 . S
C2488 C2489 1.404 . S
C2488 C2491 1.539 . S
C2489 C2485 1.408 . S
C2489 C2488 1.404 . S
C2489 H2501 0.930 . S
C2490 C2486 1.524 . S
C2490 H2502 0.956 . S
C2490 H2503 0.961 . S
C2490 H2504 0.961 . S
C2491 C2488 1.539 . S
C2491 H2505 0.958 . S
C2491 H2506 0.961 . S
C2491 H2507 0.960 . S
H2492 C2476 0.931 . S
H2493 C2481 0.929 . S
H2494 C2482 0.960 . S
H2495 C2482 0.962 . S
H2496 C2482 0.960 . S
H2497 C2483 0.961 . S
H2498 C2483 0.961 . S
H2499 C2483 0.961 . S
H2500 C2484 0.931 . S
H2501 C2489 0.930 . S
H2502 C2490 0.956 . S
H2503 C2490 0.961 . S
H2504 C2490 0.961 . S
H2505 C2491 0.958 . S
H2506 C2491 0.961 . S
H2507 C2491 0.960 . S
C2508 C2509 1.391 1_655 S
C2508 C2510 1.394 . S
C2508 H2524 0.931 . S
C2509 C2508 1.391 1_455 S
C2509 C2513 1.376 . S
C2510 C2508 1.394 . S
C2510 C2511 1.369 1_655 S
C2510 C2514 1.531 . S
C2511 C2510 1.369 1_455 S
C2511 C2512 1.410 . S
C2511 C2519 1.503 . S
C2512 C2511 1.410 . S
C2512 C2513 1.392 . S
C2512 C2515 1.511 . S
C2513 C2509 1.376 . S
C2513 C2512 1.392 . S
C2513 H2525 0.929 . S
C2514 C2510 1.531 . S
C2514 H2526 0.960 . S
C2514 H2527 0.962 . S
C2514 H2528 0.960 . S
C2515 C2512 1.511 . S
C2515 H2529 0.961 . S
C2515 H2530 0.961 . S
C2515 H2531 0.961 . S
C2516 C2517 1.370 1_655 S
C2516 C2518 1.363 . S
C2516 H2532 0.931 . S
C2517 C2516 1.370 1_455 S
C2517 C2521 1.408 . S
C2518 C2516 1.363 . S
C2518 C2519 1.370 1_655 S
C2518 C2522 1.524 . S
C2519 C2511 1.503 . S
C2519 C2518 1.370 1_455 S
C2519 C2520 1.403 . S
C2520 C2519 1.403 . S
C2520 C2521 1.404 . S
C2520 C2523 1.539 . S
C2521 C2517 1.408 . S
C2521 C2520 1.404 . S
C2521 H2533 0.930 . S
C2522 C2518 1.524 . S
C2522 H2534 0.956 . S
C2522 H2535 0.961 1_655 S
C2522 H2536 0.961 . S
C2523 C2520 1.539 . S
C2523 H2537 0.958 1_455 S
C2523 H2538 0.961 . S
C2523 H2539 0.960 . S
H2524 C2508 0.931 . S
H2525 C2513 0.929 . S
H2526 C2514 0.960 . S
H2527 C2514 0.962 . S
H2528 C2514 0.960 . S
H2529 C2515 0.961 . S
H2530 C2515 0.961 . S
H2531 C2515 0.961 . S
H2532 C2516 0.931 . S
H2533 C2521 0.930 . S
H2534 C2522 0.956 . S
H2535 C2522 0.961 1_455 S
H2536 C2522 0.961 . S
H2537 C2523 0.958 1_655 S
H2538 C2523 0.961 . S
H2539 C2523 0.960 . S
C2540 C2541 1.410 . S
C2540 C2542 1.394 . S
C2540 H2556 0.931 . S
C2541 C2540 1.410 . S
C2541 C2545 1.359 1_556 S
C2542 C2540 1.394 . S
C2542 C2543 1.369 . S
C2542 C2546 1.531 . S
C2543 C2542 1.369 . S
C2543 C2544 1.410 1_556 S
C2543 C2551 1.503 . S
C2544 C2543 1.410 1_554 S
C2544 C2545 1.392 . S
C2544 C2547 1.511 . S
C2545 C2541 1.359 1_554 S
C2545 C2544 1.392 . S
C2545 H2557 0.929 . S
C2546 C2542 1.531 . S
C2546 H2558 0.960 . S
C2546 H2559 0.962 . S
C2546 H2560 0.960 . S
C2547 C2544 1.511 . S
C2547 H2561 0.961 . S
C2547 H2562 0.961 . S
C2547 H2563 0.961 . S
C2548 C2549 1.379 . S
C2548 C2550 1.363 . S
C2548 H2564 0.931 . S
C2549 C2548 1.379 . S
C2549 C2553 1.399 1_554 S
C2550 C2548 1.363 . S
C2550 C2551 1.370 1_554 S
C2550 C2554 1.524 . S
C2551 C2543 1.503 . S
C2551 C2550 1.370 1_556 S
C2551 C2552 1.403 . S
C2552 C2551 1.403 . S
C2552 C2553 1.404 . S
C2552 C2555 1.539 . S
C2553 C2549 1.399 1_556 S
C2553 C2552 1.404 . S
C2553 H2565 0.930 . S
C2554 C2550 1.524 . S
C2554 H2566 0.956 . S
C2554 H2567 0.961 . S
C2554 H2568 0.961 . S
C2555 C2552 1.539 . S
C2555 H2569 0.958 . S
C2555 H2570 0.961 . S
C2555 H2571 0.960 . S
H2556 C2540 0.931 . S
H2557 C2545 0.929 . S
H2558 C2546 0.960 . S
H2559 C2546 0.962 . S
H2560 C2546 0.960 . S
H2561 C2547 0.961 . S
H2562 C2547 0.961 . S
H2563 C2547 0.961 . S
H2564 C2548 0.931 . S
H2565 C2553 0.930 . S
H2566 C2554 0.956 . S
H2567 C2554 0.961 . S
H2568 C2554 0.961 . S
H2569 C2555 0.958 . S
H2570 C2555 0.961 . S
H2571 C2555 0.960 . S
C2572 C2573 1.422 . S
C2572 C2574 1.394 . S
C2572 H2588 0.931 . S
C2573 C2572 1.422 . S
C2573 C2577 1.352 1_556 S
C2574 C2572 1.394 . S
C2574 C2575 1.369 . S
C2574 C2578 1.531 . S
C2575 C2574 1.369 . S
C2575 C2576 1.410 1_556 S
C2575 C2583 1.503 . S
C2576 C2575 1.410 1_554 S
C2576 C2577 1.392 . S
C2576 C2579 1.511 . S
C2577 C2573 1.352 1_554 S
C2577 C2576 1.392 . S
C2577 H2589 0.929 . S
C2578 C2574 1.531 . S
C2578 H2590 0.960 . S
C2578 H2591 0.962 . S
C2578 H2592 0.960 . S
C2579 C2576 1.511 . S
C2579 H2593 0.961 . S
C2579 H2594 0.961 . S
C2579 H2595 0.961 . S
C2580 C2581 1.373 . S
C2580 C2582 1.363 . S
C2580 H2596 0.931 . S
C2581 C2580 1.373 . S
C2581 C2585 1.405 1_554 S
C2582 C2580 1.363 . S
C2582 C2583 1.370 1_554 S
C2582 C2586 1.524 . S
C2583 C2575 1.503 . S
C2583 C2582 1.370 1_556 S
C2583 C2584 1.403 . S
C2584 C2583 1.403 . S
C2584 C2585 1.404 . S
C2584 C2587 1.539 . S
C2585 C2581 1.405 1_556 S
C2585 C2584 1.404 . S
C2585 H2597 0.930 . S
C2586 C2582 1.524 . S
C2586 H2598 0.956 . S
C2586 H2599 0.961 . S
C2586 H2600 0.961 . S
C2587 C2584 1.539 . S
C2587 H2601 0.958 . S
C2587 H2602 0.961 . S
C2587 H2603 0.960 . S
H2588 C2572 0.931 . S
H2589 C2577 0.929 . S
H2590 C2578 0.960 . S
H2591 C2578 0.962 . S
H2592 C2578 0.960 . S
H2593 C2579 0.961 . S
H2594 C2579 0.961 . S
H2595 C2579 0.961 . S
H2596 C2580 0.931 . S
H2597 C2585 0.930 . S
H2598 C2586 0.956 . S
H2599 C2586 0.961 . S
H2600 C2586 0.961 . S
H2601 C2587 0.958 . S
H2602 C2587 0.961 . S
H2603 C2587 0.960 . S
C2604 C2605 1.391 1_554 S
C2604 C2606 1.394 . S
C2604 H2620 0.931 . S
C2605 C2604 1.391 1_556 S
C2605 C2609 1.376 . S
C2606 C2604 1.394 . S
C2606 C2607 1.369 1_554 S
C2606 C2610 1.531 . S
C2607 C2606 1.369 1_556 S
C2607 C2608 1.410 . S
C2607 C2615 1.503 . S
C2608 C2607 1.410 . S
C2608 C2609 1.392 . S
C2608 C2611 1.511 . S
C2609 C2605 1.376 . S
C2609 C2608 1.392 . S
C2609 H2621 0.929 . S
C2610 C2606 1.531 . S
C2610 H2622 0.960 . S
C2610 H2623 0.962 . S
C2610 H2624 0.960 . S
C2611 C2608 1.511 . S
C2611 H2625 0.961 . S
C2611 H2626 0.961 . S
C2611 H2627 0.961 . S
C2612 C2613 1.360 1_554 S
C2612 C2614 1.363 . S
C2612 H2628 0.931 . S
C2613 C2612 1.360 1_556 S
C2613 C2617 1.420 . S
C2614 C2612 1.363 . S
C2614 C2615 1.370 1_554 S
C2614 C2618 1.524 . S
C2615 C2607 1.503 . S
C2615 C2614 1.370 1_556 S
C2615 C2616 1.403 . S
C2616 C2615 1.403 . S
C2616 C2617 1.404 . S
C2616 C2619 1.539 . S
C2617 C2613 1.420 . S
C2617 C2616 1.404 . S
C2617 H2629 0.930 . S
C2618 C2614 1.524 . S
C2618 H2630 0.956 . S
C2618 H2631 0.961 . S
C2618 H2632 0.961 . S
C2619 C2616 1.539 . S
C2619 H2633 0.958 . S
C2619 H2634 0.961 . S
C2619 H2635 0.960 . S
H2620 C2604 0.931 . S
H2621 C2609 0.929 . S
H2622 C2610 0.960 . S
H2623 C2610 0.962 . S
H2624 C2610 0.960 . S
H2625 C2611 0.961 . S
H2626 C2611 0.961 . S
H2627 C2611 0.961 . S
H2628 C2612 0.931 . S
H2629 C2617 0.930 . S
H2630 C2618 0.956 . S
H2631 C2618 0.961 . S
H2632 C2618 0.961 . S
H2633 C2619 0.958 . S
H2634 C2619 0.961 . S
H2635 C2619 0.960 . S
C2636 C2637 1.391 . S
C2636 C2638 1.394 . S
C2636 H2652 0.931 . S
C2637 C2636 1.391 . S
C2637 C2641 1.376 1_554 S
C2638 C2636 1.394 . S
C2638 C2639 1.369 . S
C2638 C2642 1.531 . S
C2639 C2638 1.369 . S
C2639 C2640 1.410 1_554 S
C2639 C2647 1.503 . S
C2640 C2639 1.410 1_556 S
C2640 C2641 1.392 . S
C2640 C2643 1.511 . S
C2641 C2637 1.376 1_556 S
C2641 C2640 1.392 . S
C2641 H2653 0.929 . S
C2642 C2638 1.531 . S
C2642 H2654 0.960 . S
C2642 H2655 0.962 . S
C2642 H2656 0.960 . S
C2643 C2640 1.511 . S
C2643 H2657 0.961 . S
C2643 H2658 0.961 . S
C2643 H2659 0.961 1_556 S
C2644 C2645 1.370 1_556 S
C2644 C2646 1.363 . S
C2644 H2660 0.931 . S
C2645 C2644 1.370 1_554 S
C2645 C2649 1.408 . S
C2646 C2644 1.363 . S
C2646 C2647 1.370 1_556 S
C2646 C2650 1.524 . S
C2647 C2639 1.503 . S
C2647 C2646 1.370 1_554 S
C2647 C2648 1.403 . S
C2648 C2647 1.403 . S
C2648 C2649 1.404 . S
C2648 C2651 1.539 . S
C2649 C2645 1.408 . S
C2649 C2648 1.404 . S
C2649 H2661 0.930 . S
C2650 C2646 1.524 . S
C2650 H2662 0.956 . S
C2650 H2663 0.961 . S
C2650 H2664 0.961 . S
C2651 C2648 1.539 . S
C2651 H2665 0.958 . S
C2651 H2666 0.961 . S
C2651 H2667 0.960 . S
H2652 C2636 0.931 . S
H2653 C2641 0.929 . S
H2654 C2642 0.960 . S
H2655 C2642 0.962 . S
H2656 C2642 0.960 . S
H2657 C2643 0.961 . S
H2658 C2643 0.961 . S
H2659 C2643 0.961 1_554 S
H2660 C2644 0.931 . S
H2661 C2649 0.930 . S
H2662 C2650 0.956 . S
H2663 C2650 0.961 . S
H2664 C2650 0.961 . S
H2665 C2651 0.958 . S
H2666 C2651 0.961 . S
H2667 C2651 0.960 . S
C2668 C2669 1.391 1_556 S
C2668 C2670 1.394 . S
C2668 H2684 0.931 . S
C2669 C2668 1.391 1_554 S
C2669 C2673 1.376 . S
C2670 C2668 1.394 . S
C2670 C2671 1.369 1_556 S
C2670 C2674 1.531 . S
C2671 C2670 1.369 1_554 S
C2671 C2672 1.410 . S
C2671 C2679 1.503 . S
C2672 C2671 1.410 . S
C2672 C2673 1.392 . S
C2672 C2675 1.511 . S
C2673 C2669 1.376 . S
C2673 C2672 1.392 . S
C2673 H2685 0.929 . S
C2674 C2670 1.531 . S
C2674 H2686 0.960 . S
C2674 H2687 0.962 . S
C2674 H2688 0.960 . S
C2675 C2672 1.511 . S
C2675 H2689 0.961 . S
C2675 H2690 0.961 . S
C2675 H2691 0.961 . S
C2676 C2677 1.338 1_556 S
C2676 C2678 1.363 . S
C2676 H2692 0.931 . S
C2677 C2676 1.338 1_554 S
C2677 C2681 1.444 . S
C2678 C2676 1.363 . S
C2678 C2679 1.370 1_556 S
C2678 C2682 1.524 . S
C2679 C2671 1.503 . S
C2679 C2678 1.370 1_554 S
C2679 C2680 1.403 . S
C2680 C2679 1.403 . S
C2680 C2681 1.404 . S
C2680 C2683 1.539 . S
C2681 C2677 1.444 . S
C2681 C2680 1.404 . S
C2681 H2693 0.930 . S
C2682 C2678 1.524 . S
C2682 H2694 0.956 . S
C2682 H2695 0.961 . S
C2682 H2696 0.961 . S
C2683 C2680 1.539 . S
C2683 H2697 0.958 . S
C2683 H2698 0.961 . S
C2683 H2699 0.960 . S
H2684 C2668 0.931 . S
H2685 C2673 0.929 . S
H2686 C2674 0.960 . S
H2687 C2674 0.962 . S
H2688 C2674 0.960 . S
H2689 C2675 0.961 . S
H2690 C2675 0.961 . S
H2691 C2675 0.961 . S
H2692 C2676 0.931 . S
H2693 C2681 0.930 . S
H2694 C2682 0.956 . S
H2695 C2682 0.961 . S
H2696 C2682 0.961 . S
H2697 C2683 0.958 . S
H2698 C2683 0.961 . S
H2699 C2683 0.960 . S
C2700 C2701 1.391 . S
C2700 C2702 1.394 . S
C2700 H2716 0.931 . S
C2701 C2700 1.391 . S
C2701 C2705 1.376 1_554 S
C2702 C2700 1.394 . S
C2702 C2703 1.369 . S
C2702 C2706 1.531 . S
C2703 C2702 1.369 . S
C2703 C2704 1.410 1_554 S
C2703 C2711 1.503 . S
C2704 C2703 1.410 1_556 S
C2704 C2705 1.392 . S
C2704 C2707 1.511 . S
C2705 C2701 1.376 1_556 S
C2705 C2704 1.392 . S
C2705 H2717 0.929 . S
C2706 C2702 1.531 . S
C2706 H2718 0.960 . S
C2706 H2719 0.962 . S
C2706 H2720 0.960 . S
C2707 C2704 1.511 . S
C2707 H2721 0.961 . S
C2707 H2722 0.961 . S
C2707 H2723 0.961 . S
C2708 C2709 1.361 1_556 S
C2708 C2710 1.363 . S
C2708 H2724 0.931 . S
C2709 C2708 1.361 1_554 S
C2709 C2713 1.421 . S
C2710 C2708 1.363 . S
C2710 C2711 1.370 1_556 S
C2710 C2714 1.524 . S
C2711 C2703 1.503 . S
C2711 C2710 1.370 1_554 S
C2711 C2712 1.403 . S
C2712 C2711 1.403 . S
C2712 C2713 1.404 . S
C2712 C2715 1.539 . S
C2713 C2709 1.421 . S
C2713 C2712 1.404 . S
C2713 H2725 0.930 . S
C2714 C2710 1.524 . S
C2714 H2726 0.956 1_556 S
C2714 H2727 0.961 . S
C2714 H2728 0.961 . S
C2715 C2712 1.539 . S
C2715 H2729 0.958 . S
C2715 H2730 0.961 . S
C2715 H2731 0.960 . S
H2716 C2700 0.931 . S
H2717 C2705 0.929 . S
H2718 C2706 0.960 . S
H2719 C2706 0.962 . S
H2720 C2706 0.960 . S
H2721 C2707 0.961 . S
H2722 C2707 0.961 . S
H2723 C2707 0.961 . S
H2724 C2708 0.931 . S
H2725 C2713 0.930 . S
H2726 C2714 0.956 1_554 S
H2727 C2714 0.961 . S
H2728 C2714 0.961 . S
H2729 C2715 0.958 . S
H2730 C2715 0.961 . S
H2731 C2715 0.960 . S
C2732 C2733 1.414 . S
C2732 C2734 1.394 . S
C2732 H2748 0.931 . S
C2733 C2732 1.414 . S
C2733 C2737 1.355 1_556 S
C2734 C2732 1.394 . S
C2734 C2735 1.369 . S
C2734 C2738 1.531 . S
C2735 C2734 1.369 . S
C2735 C2736 1.410 1_556 S
C2735 C2743 1.503 . S
C2736 C2735 1.410 1_554 S
C2736 C2737 1.392 . S
C2736 C2739 1.511 . S
C2737 C2733 1.355 1_554 S
C2737 C2736 1.392 . S
C2737 H2749 0.929 . S
C2738 C2734 1.531 . S
C2738 H2750 0.960 . S
C2738 H2751 0.962 . S
C2738 H2752 0.960 . S
C2739 C2736 1.511 . S
C2739 H2753 0.961 . S
C2739 H2754 0.961 . S
C2739 H2755 0.961 . S
C2740 C2741 1.372 1_554 S
C2740 C2742 1.363 . S
C2740 H2756 0.931 . S
C2741 C2740 1.372 1_556 S
C2741 C2745 1.406 . S
C2742 C2740 1.363 . S
C2742 C2743 1.370 1_554 S
C2742 C2746 1.524 . S
C2743 C2735 1.503 . S
C2743 C2742 1.370 1_556 S
C2743 C2744 1.403 . S
C2744 C2743 1.403 . S
C2744 C2745 1.404 . S
C2744 C2747 1.539 . S
C2745 C2741 1.406 . S
C2745 C2744 1.404 . S
C2745 H2757 0.930 . S
C2746 C2742 1.524 . S
C2746 H2758 0.956 . S
C2746 H2759 0.961 . S
C2746 H2760 0.961 . S
C2747 C2744 1.539 . S
C2747 H2761 0.958 . S
C2747 H2762 0.961 . S
C2747 H2763 0.960 . S
H2748 C2732 0.931 . S
H2749 C2737 0.929 . S
H2750 C2738 0.960 . S
H2751 C2738 0.962 . S
H2752 C2738 0.960 . S
H2753 C2739 0.961 . S
H2754 C2739 0.961 . S
H2755 C2739 0.961 . S
H2756 C2740 0.931 . S
H2757 C2745 0.930 . S
H2758 C2746 0.956 . S
H2759 C2746 0.961 . S
H2760 C2746 0.961 . S
H2761 C2747 0.958 . S
H2762 C2747 0.961 . S
H2763 C2747 0.960 . S
C2764 C2765 1.391 1_556 S
C2764 C2766 1.394 . S
C2764 H2780 0.931 . S
C2765 C2764 1.391 1_554 S
C2765 C2769 1.376 . S
C2766 C2764 1.394 . S
C2766 C2767 1.369 1_556 S
C2766 C2770 1.531 . S
C2767 C2766 1.369 1_554 S
C2767 C2768 1.410 . S
C2767 C2775 1.503 . S
C2768 C2767 1.410 . S
C2768 C2769 1.392 . S
C2768 C2771 1.511 . S
C2769 C2765 1.376 . S
C2769 C2768 1.392 . S
C2769 H2781 0.929 . S
C2770 C2766 1.531 . S
C2770 H2782 0.960 . S
C2770 H2783 0.962 . S
C2770 H2784 0.960 . S
C2771 C2768 1.511 . S
C2771 H2785 0.961 . S
C2771 H2786 0.961 . S
C2771 H2787 0.961 . S
C2772 C2773 1.370 1_556 S
C2772 C2774 1.363 . S
C2772 H2788 0.931 . S
C2773 C2772 1.370 1_554 S
C2773 C2777 1.408 . S
C2774 C2772 1.363 . S
C2774 C2775 1.370 1_556 S
C2774 C2778 1.524 . S
C2775 C2767 1.503 . S
C2775 C2774 1.370 1_554 S
C2775 C2776 1.403 . S
C2776 C2775 1.403 . S
C2776 C2777 1.404 . S
C2776 C2779 1.539 . S
C2777 C2773 1.408 . S
C2777 C2776 1.404 . S
C2777 H2789 0.930 . S
C2778 C2774 1.524 . S
C2778 H2790 0.956 . S
C2778 H2791 0.961 . S
C2778 H2792 0.961 . S
C2779 C2776 1.539 . S
C2779 H2793 0.958 . S
C2779 H2794 0.961 . S
C2779 H2795 0.960 . S
H2780 C2764 0.931 . S
H2781 C2769 0.929 . S
H2782 C2770 0.960 . S
H2783 C2770 0.962 . S
H2784 C2770 0.960 . S
H2785 C2771 0.961 . S
H2786 C2771 0.961 . S
H2787 C2771 0.961 . S
H2788 C2772 0.931 . S
H2789 C2777 0.930 . S
H2790 C2778 0.956 . S
H2791 C2778 0.961 . S
H2792 C2778 0.961 . S
H2793 C2779 0.958 . S
H2794 C2779 0.961 . S
H2795 C2779 0.960 . S
C2796 C2797 1.391 . S
C2796 C2798 1.394 . S
C2796 H2812 0.931 . S
C2797 C2796 1.391 . S
C2797 C2801 1.376 . S
C2798 C2796 1.394 . S
C2798 C2799 1.369 . S
C2798 C2802 1.531 . S
C2799 C2798 1.369 . S
C2799 C2800 1.410 . S
C2799 C2807 1.503 . S
C2800 C2799 1.410 . S
C2800 C2801 1.392 . S
C2800 C2803 1.511 . S
C2801 C2797 1.376 . S
C2801 C2800 1.392 . S
C2801 H2813 0.929 . S
C2802 C2798 1.531 . S
C2802 H2814 0.960 . S
C2802 H2815 0.962 . S
C2802 H2816 0.960 . S
C2803 C2800 1.511 . S
C2803 H2817 0.961 . S
C2803 H2818 0.961 . S
C2803 H2819 0.961 . S
C2804 C2805 1.370 . S
C2804 C2806 1.363 . S
C2804 H2820 0.931 . S
C2805 C2804 1.370 . S
C2805 C2809 1.408 . S
C2806 C2804 1.363 . S
C2806 C2807 1.370 . S
C2806 C2810 1.524 . S
C2807 C2799 1.503 . S
C2807 C2806 1.370 . S
C2807 C2808 1.403 . S
C2808 C2807 1.403 . S
C2808 C2809 1.404 . S
C2808 C2811 1.539 . S
C2809 C2805 1.408 . S
C2809 C2808 1.404 . S
C2809 H2821 0.930 . S
C2810 C2806 1.524 . S
C2810 H2822 0.956 . S
C2810 H2823 0.961 . S
C2810 H2824 0.961 . S
C2811 C2808 1.539 . S
C2811 H2825 0.958 . S
C2811 H2826 0.961 . S
C2811 H2827 0.960 . S
H2812 C2796 0.931 . S
H2813 C2801 0.929 . S
H2814 C2802 0.960 . S
H2815 C2802 0.962 . S
H2816 C2802 0.960 . S
H2817 C2803 0.961 . S
H2818 C2803 0.961 . S
H2819 C2803 0.961 . S
H2820 C2804 0.931 . S
H2821 C2809 0.930 . S
H2822 C2810 0.956 . S
H2823 C2810 0.961 . S
H2824 C2810 0.961 . S
H2825 C2811 0.958 . S
H2826 C2811 0.961 . S
H2827 C2811 0.960 . S
C2828 C2829 1.391 . S
C2828 C2830 1.394 . S
C2828 H2844 0.931 . S
C2829 C2828 1.391 . S
C2829 C2833 1.376 . S
C2830 C2828 1.394 . S
C2830 C2831 1.369 . S
C2830 C2834 1.531 . S
C2831 C2830 1.369 . S
C2831 C2832 1.410 . S
C2831 C2839 1.503 . S
C2832 C2831 1.410 . S
C2832 C2833 1.392 . S
C2832 C2835 1.511 . S
C2833 C2829 1.376 . S
C2833 C2832 1.392 . S
C2833 H2845 0.929 . S
C2834 C2830 1.531 . S
C2834 H2846 0.960 . S
C2834 H2847 0.962 . S
C2834 H2848 0.960 . S
C2835 C2832 1.511 . S
C2835 H2849 0.961 . S
C2835 H2850 0.961 . S
C2835 H2851 0.961 . S
C2836 C2837 1.370 . S
C2836 C2838 1.363 . S
C2836 H2852 0.931 . S
C2837 C2836 1.370 . S
C2837 C2841 1.408 . S
C2838 C2836 1.363 . S
C2838 C2839 1.370 . S
C2838 C2842 1.524 . S
C2839 C2831 1.503 . S
C2839 C2838 1.370 . S
C2839 C2840 1.403 . S
C2840 C2839 1.403 . S
C2840 C2841 1.404 . S
C2840 C2843 1.539 . S
C2841 C2837 1.408 . S
C2841 C2840 1.404 . S
C2841 H2853 0.930 . S
C2842 C2838 1.524 . S
C2842 H2854 0.956 . S
C2842 H2855 0.961 . S
C2842 H2856 0.961 . S
C2843 C2840 1.539 . S
C2843 H2857 0.958 . S
C2843 H2858 0.961 . S
C2843 H2859 0.960 . S
H2844 C2828 0.931 . S
H2845 C2833 0.929 . S
H2846 C2834 0.960 . S
H2847 C2834 0.962 . S
H2848 C2834 0.960 . S
H2849 C2835 0.961 . S
H2850 C2835 0.961 . S
H2851 C2835 0.961 . S
H2852 C2836 0.931 . S
H2853 C2841 0.930 . S
H2854 C2842 0.956 . S
H2855 C2842 0.961 . S
H2856 C2842 0.961 . S
H2857 C2843 0.958 . S
H2858 C2843 0.961 . S
H2859 C2843 0.960 . S
C2860 C2861 1.391 . S
C2860 C2862 1.394 . S
C2860 H2876 0.931 . S
C2861 C2860 1.391 . S
C2861 C2865 1.376 . S
C2862 C2860 1.394 . S
C2862 C2863 1.369 . S
C2862 C2866 1.531 . S
C2863 C2862 1.369 . S
C2863 C2864 1.410 . S
C2863 C2871 1.503 . S
C2864 C2863 1.410 . S
C2864 C2865 1.392 . S
C2864 C2867 1.511 . S
C2865 C2861 1.376 . S
C2865 C2864 1.392 . S
C2865 H2877 0.929 . S
C2866 C2862 1.531 . S
C2866 H2878 0.960 . S
C2866 H2879 0.962 . S
C2866 H2880 0.960 . S
C2867 C2864 1.511 . S
C2867 H2881 0.961 . S
C2867 H2882 0.961 . S
C2867 H2883 0.961 . S
C2868 C2869 1.370 . S
C2868 C2870 1.363 . S
C2868 H2884 0.931 . S
C2869 C2868 1.370 . S
C2869 C2873 1.408 . S
C2870 C2868 1.363 . S
C2870 C2871 1.370 . S
C2870 C2874 1.524 . S
C2871 C2863 1.503 . S
C2871 C2870 1.370 . S
C2871 C2872 1.403 . S
C2872 C2871 1.403 . S
C2872 C2873 1.404 . S
C2872 C2875 1.539 . S
C2873 C2869 1.408 . S
C2873 C2872 1.404 . S
C2873 H2885 0.930 . S
C2874 C2870 1.524 . S
C2874 H2886 0.956 . S
C2874 H2887 0.961 . S
C2874 H2888 0.961 . S
C2875 C2872 1.539 . S
C2875 H2889 0.958 . S
C2875 H2890 0.961 . S
C2875 H2891 0.960 . S
H2876 C2860 0.931 . S
H2877 C2865 0.929 . S
H2878 C2866 0.960 . S
H2879 C2866 0.962 . S
H2880 C2866 0.960 . S
H2881 C2867 0.961 . S
H2882 C2867 0.961 . S
H2883 C2867 0.961 . S
H2884 C2868 0.931 . S
H2885 C2873 0.930 . S
H2886 C2874 0.956 . S
H2887 C2874 0.961 . S
H2888 C2874 0.961 . S
H2889 C2875 0.958 . S
H2890 C2875 0.961 . S
H2891 C2875 0.960 . S
C2892 C2893 1.391 . S
C2892 C2894 1.394 . S
C2892 H2908 0.931 . S
C2893 C2892 1.391 . S
C2893 C2897 1.376 . S
C2894 C2892 1.394 . S
C2894 C2895 1.369 . S
C2894 C2898 1.531 . S
C2895 C2894 1.369 . S
C2895 C2896 1.410 . S
C2895 C2903 1.503 . S
C2896 C2895 1.410 . S
C2896 C2897 1.392 . S
C2896 C2899 1.511 . S
C2897 C2893 1.376 . S
C2897 C2896 1.392 . S
C2897 H2909 0.929 . S
C2898 C2894 1.531 . S
C2898 H2910 0.960 . S
C2898 H2911 0.962 . S
C2898 H2912 0.960 . S
C2899 C2896 1.511 . S
C2899 H2913 0.961 . S
C2899 H2914 0.961 . S
C2899 H2915 0.961 . S
C2900 C2901 1.370 . S
C2900 C2902 1.363 . S
C2900 H2916 0.931 . S
C2901 C2900 1.370 . S
C2901 C2905 1.408 . S
C2902 C2900 1.363 . S
C2902 C2903 1.370 . S
C2902 C2906 1.524 . S
C2903 C2895 1.503 . S
C2903 C2902 1.370 . S
C2903 C2904 1.403 . S
C2904 C2903 1.403 . S
C2904 C2905 1.404 . S
C2904 C2907 1.539 . S
C2905 C2901 1.408 . S
C2905 C2904 1.404 . S
C2905 H2917 0.930 . S
C2906 C2902 1.524 . S
C2906 H2918 0.956 . S
C2906 H2919 0.961 . S
C2906 H2920 0.961 . S
C2907 C2904 1.539 . S
C2907 H2921 0.958 . S
C2907 H2922 0.961 . S
C2907 H2923 0.960 . S
H2908 C2892 0.931 . S
H2909 C2897 0.929 . S
H2910 C2898 0.960 . S
H2911 C2898 0.962 . S
H2912 C2898 0.960 . S
H2913 C2899 0.961 . S
H2914 C2899 0.961 . S
H2915 C2899 0.961 . S
H2916 C2900 0.931 . S
H2917 C2905 0.930 . S
H2918 C2906 0.956 . S
H2919 C2906 0.961 . S
H2920 C2906 0.961 . S
H2921 C2907 0.958 . S
H2922 C2907 0.961 . S
H2923 C2907 0.960 . S
C2924 C2925 1.391 . S
C2924 C2926 1.394 . S
C2924 H2940 0.931 . S
C2925 C2924 1.391 . S
C2925 C2929 1.376 . S
C2926 C2924 1.394 . S
C2926 C2927 1.369 . S
C2926 C2930 1.531 . S
C2927 C2926 1.369 . S
C2927 C2928 1.410 . S
C2927 C2935 1.503 . S
C2928 C2927 1.410 . S
C2928 C2929 1.392 . S
C2928 C2931 1.511 . S
C2929 C2925 1.376 . S
C2929 C2928 1.392 . S
C2929 H2941 0.929 . S
C2930 C2926 1.531 . S
C2930 H2942 0.960 . S
C2930 H2943 0.962 . S
C2930 H2944 0.960 . S
C2931 C2928 1.511 . S
C2931 H2945 0.961 . S
C2931 H2946 0.961 . S
C2931 H2947 0.961 . S
C2932 C2933 1.370 . S
C2932 C2934 1.363 . S
C2932 H2948 0.931 . S
C2933 C2932 1.370 . S
C2933 C2937 1.408 . S
C2934 C2932 1.363 . S
C2934 C2935 1.370 . S
C2934 C2938 1.524 . S
C2935 C2927 1.503 . S
C2935 C2934 1.370 . S
C2935 C2936 1.403 . S
C2936 C2935 1.403 . S
C2936 C2937 1.404 . S
C2936 C2939 1.539 . S
C2937 C2933 1.408 . S
C2937 C2936 1.404 . S
C2937 H2949 0.930 . S
C2938 C2934 1.524 . S
C2938 H2950 0.956 . S
C2938 H2951 0.961 . S
C2938 H2952 0.961 . S
C2939 C2936 1.539 . S
C2939 H2953 0.958 . S
C2939 H2954 0.961 . S
C2939 H2955 0.960 . S
H2940 C2924 0.931 . S
H2941 C2929 0.929 . S
H2942 C2930 0.960 . S
H2943 C2930 0.962 . S
H2944 C2930 0.960 . S
H2945 C2931 0.961 . S
H2946 C2931 0.961 . S
H2947 C2931 0.961 . S
H2948 C2932 0.931 . S
H2949 C2937 0.930 . S
H2950 C2938 0.956 . S
H2951 C2938 0.961 . S
H2952 C2938 0.961 . S
H2953 C2939 0.958 . S
H2954 C2939 0.961 . S
H2955 C2939 0.960 . S
C2956 C2957 1.391 . S
C2956 C2958 1.394 . S
C2956 H2972 0.931 . S
C2957 C2956 1.391 . S
C2957 C2961 1.376 . S
C2958 C2956 1.394 . S
C2958 C2959 1.369 . S
C2958 C2962 1.531 . S
C2959 C2958 1.369 . S
C2959 C2960 1.410 . S
C2959 C2967 1.503 . S
C2960 C2959 1.410 . S
C2960 C2961 1.392 . S
C2960 C2963 1.511 . S
C2961 C2957 1.376 . S
C2961 C2960 1.392 . S
C2961 H2973 0.929 . S
C2962 C2958 1.531 . S
C2962 H2974 0.960 . S
C2962 H2975 0.962 . S
C2962 H2976 0.960 . S
C2963 C2960 1.511 . S
C2963 H2977 0.961 . S
C2963 H2978 0.961 . S
C2963 H2979 0.961 . S
C2964 C2965 1.370 . S
C2964 C2966 1.363 . S
C2964 H2980 0.931 . S
C2965 C2964 1.370 . S
C2965 C2969 1.408 . S
C2966 C2964 1.363 . S
C2966 C2967 1.370 . S
C2966 C2970 1.524 . S
C2967 C2959 1.503 . S
C2967 C2966 1.370 . S
C2967 C2968 1.403 . S
C2968 C2967 1.403 . S
C2968 C2969 1.404 . S
C2968 C2971 1.539 . S
C2969 C2965 1.408 . S
C2969 C2968 1.404 . S
C2969 H2981 0.930 . S
C2970 C2966 1.524 . S
C2970 H2982 0.956 . S
C2970 H2983 0.961 . S
C2970 H2984 0.961 . S
C2971 C2968 1.539 . S
C2971 H2985 0.958 . S
C2971 H2986 0.961 . S
C2971 H2987 0.960 . S
H2972 C2956 0.931 . S
H2973 C2961 0.929 . S
H2974 C2962 0.960 . S
H2975 C2962 0.962 . S
H2976 C2962 0.960 . S
H2977 C2963 0.961 . S
H2978 C2963 0.961 . S
H2979 C2963 0.961 . S
H2980 C2964 0.931 . S
H2981 C2969 0.930 . S
H2982 C2970 0.956 . S
H2983 C2970 0.961 . S
H2984 C2970 0.961 . S
H2985 C2971 0.958 . S
H2986 C2971 0.961 . S
H2987 C2971 0.960 . S
C2988 C2989 1.391 . S
C2988 C2990 1.394 . S
C2988 H3004 0.931 . S
C2989 C2988 1.391 . S
C2989 C2993 1.376 . S
C2990 C2988 1.394 . S
C2990 C2991 1.369 . S
C2990 C2994 1.531 . S
C2991 C2990 1.369 . S
C2991 C2992 1.410 . S
C2991 C2999 1.503 . S
C2992 C2991 1.410 . S
C2992 C2993 1.392 . S
C2992 C2995 1.511 . S
C2993 C2989 1.376 . S
C2993 C2992 1.392 . S
C2993 H3005 0.929 . S
C2994 C2990 1.531 . S
C2994 H3006 0.960 . S
C2994 H3007 0.962 . S
C2994 H3008 0.960 . S
C2995 C2992 1.511 . S
C2995 H3009 0.961 . S
C2995 H3010 0.961 . S
C2995 H3011 0.961 . S
C2996 C2997 1.370 . S
C2996 C2998 1.363 . S
C2996 H3012 0.931 . S
C2997 C2996 1.370 . S
C2997 C3001 1.408 . S
C2998 C2996 1.363 . S
C2998 C2999 1.370 . S
C2998 C3002 1.524 . S
C2999 C2991 1.503 . S
C2999 C2998 1.370 . S
C2999 C3000 1.403 . S
C3000 C2999 1.403 . S
C3000 C3001 1.404 . S
C3000 C3003 1.539 . S
C3001 C2997 1.408 . S
C3001 C3000 1.404 . S
C3001 H3013 0.930 . S
C3002 C2998 1.524 . S
C3002 H3014 0.956 . S
C3002 H3015 0.961 . S
C3002 H3016 0.961 . S
C3003 C3000 1.539 . S
C3003 H3017 0.958 . S
C3003 H3018 0.961 . S
C3003 H3019 0.960 . S
H3004 C2988 0.931 . S
H3005 C2993 0.929 . S
H3006 C2994 0.960 . S
H3007 C2994 0.962 . S
H3008 C2994 0.960 . S
H3009 C2995 0.961 . S
H3010 C2995 0.961 . S
H3011 C2995 0.961 . S
H3012 C2996 0.931 . S
H3013 C3001 0.930 . S
H3014 C3002 0.956 . S
H3015 C3002 0.961 . S
H3016 C3002 0.961 . S
H3017 C3003 0.958 . S
H3018 C3003 0.961 . S
H3019 C3003 0.960 . S
C3020 C3021 1.391 . S
C3020 C3022 1.394 . S
C3020 H3036 0.931 . S
C3021 C3020 1.391 . S
C3021 C3025 1.376 . S
C3022 C3020 1.394 . S
C3022 C3023 1.369 . S
C3022 C3026 1.531 . S
C3023 C3022 1.369 . S
C3023 C3024 1.410 . S
C3023 C3031 1.503 . S
C3024 C3023 1.410 . S
C3024 C3025 1.392 . S
C3024 C3027 1.511 . S
C3025 C3021 1.376 . S
C3025 C3024 1.392 . S
C3025 H3037 0.929 . S
C3026 C3022 1.531 . S
C3026 H3038 0.960 . S
C3026 H3039 0.962 . S
C3026 H3040 0.960 . S
C3027 C3024 1.511 . S
C3027 H3041 0.961 . S
C3027 H3042 0.961 . S
C3027 H3043 0.961 . S
C3028 C3029 1.370 . S
C3028 C3030 1.363 . S
C3028 H3044 0.931 . S
C3029 C3028 1.370 . S
C3029 C3033 1.408 . S
C3030 C3028 1.363 . S
C3030 C3031 1.370 . S
C3030 C3034 1.524 . S
C3031 C3023 1.503 . S
C3031 C3030 1.370 . S
C3031 C3032 1.403 . S
C3032 C3031 1.403 . S
C3032 C3033 1.404 . S
C3032 C3035 1.539 . S
C3033 C3029 1.408 . S
C3033 C3032 1.404 . S
C3033 H3045 0.930 . S
C3034 C3030 1.524 . S
C3034 H3046 0.956 . S
C3034 H3047 0.961 . S
C3034 H3048 0.961 . S
C3035 C3032 1.539 . S
C3035 H3049 0.958 . S
C3035 H3050 0.961 . S
C3035 H3051 0.960 . S
H3036 C3020 0.931 . S
H3037 C3025 0.929 . S
H3038 C3026 0.960 . S
H3039 C3026 0.962 . S
H3040 C3026 0.960 . S
H3041 C3027 0.961 . S
H3042 C3027 0.961 . S
H3043 C3027 0.961 . S
H3044 C3028 0.931 . S
H3045 C3033 0.930 . S
H3046 C3034 0.956 . S
H3047 C3034 0.961 . S
H3048 C3034 0.961 . S
H3049 C3035 0.958 . S
H3050 C3035 0.961 . S
H3051 C3035 0.960 . S
C3052 C3053 1.391 . S
C3052 C3054 1.394 . S
C3052 H3068 0.931 . S
C3053 C3052 1.391 . S
C3053 C3057 1.376 . S
C3054 C3052 1.394 . S
C3054 C3055 1.369 . S
C3054 C3058 1.531 . S
C3055 C3054 1.369 . S
C3055 C3056 1.410 . S
C3055 C3063 1.503 . S
C3056 C3055 1.410 . S
C3056 C3057 1.392 . S
C3056 C3059 1.511 . S
C3057 C3053 1.376 . S
C3057 C3056 1.392 . S
C3057 H3069 0.929 . S
C3058 C3054 1.531 . S
C3058 H3070 0.960 . S
C3058 H3071 0.962 . S
C3058 H3072 0.960 . S
C3059 C3056 1.511 . S
C3059 H3073 0.961 . S
C3059 H3074 0.961 . S
C3059 H3075 0.961 . S
C3060 C3061 1.370 . S
C3060 C3062 1.363 . S
C3060 H3076 0.931 . S
C3061 C3060 1.370 . S
C3061 C3065 1.408 . S
C3062 C3060 1.363 . S
C3062 C3063 1.370 . S
C3062 C3066 1.524 . S
C3063 C3055 1.503 . S
C3063 C3062 1.370 . S
C3063 C3064 1.403 . S
C3064 C3063 1.403 . S
C3064 C3065 1.404 . S
C3064 C3067 1.539 . S
C3065 C3061 1.408 . S
C3065 C3064 1.404 . S
C3065 H3077 0.930 . S
C3066 C3062 1.524 . S
C3066 H3078 0.956 . S
C3066 H3079 0.961 . S
C3066 H3080 0.961 . S
C3067 C3064 1.539 . S
C3067 H3081 0.958 . S
C3067 H3082 0.961 . S
C3067 H3083 0.960 . S
H3068 C3052 0.931 . S
H3069 C3057 0.929 . S
H3070 C3058 0.960 . S
H3071 C3058 0.962 . S
H3072 C3058 0.960 . S
H3073 C3059 0.961 . S
H3074 C3059 0.961 . S
H3075 C3059 0.961 . S
H3076 C3060 0.931 . S
H3077 C3065 0.930 . S
H3078 C3066 0.956 . S
H3079 C3066 0.961 . S
H3080 C3066 0.961 . S
H3081 C3067 0.958 . S
H3082 C3067 0.961 . S
H3083 C3067 0.960 . S
C3084 C3085 1.391 . S
C3084 C3086 1.394 . S
C3084 H3100 0.931 . S
C3085 C3084 1.391 . S
C3085 C3089 1.376 . S
C3086 C3084 1.394 . S
C3086 C3087 1.369 . S
C3086 C3090 1.531 . S
C3087 C3086 1.369 . S
C3087 C3088 1.410 . S
C3087 C3095 1.503 . S
C3088 C3087 1.410 . S
C3088 C3089 1.392 . S
C3088 C3091 1.511 . S
C3089 C3085 1.376 . S
C3089 C3088 1.392 . S
C3089 H3101 0.929 . S
C3090 C3086 1.531 . S
C3090 H3102 0.960 . S
C3090 H3103 0.962 . S
C3090 H3104 0.960 . S
C3091 C3088 1.511 . S
C3091 H3105 0.961 . S
C3091 H3106 0.961 . S
C3091 H3107 0.961 . S
C3092 C3093 1.370 . S
C3092 C3094 1.363 . S
C3092 H3108 0.931 . S
C3093 C3092 1.370 . S
C3093 C3097 1.408 . S
C3094 C3092 1.363 . S
C3094 C3095 1.370 . S
C3094 C3098 1.524 . S
C3095 C3087 1.503 . S
C3095 C3094 1.370 . S
C3095 C3096 1.403 . S
C3096 C3095 1.403 . S
C3096 C3097 1.404 . S
C3096 C3099 1.539 . S
C3097 C3093 1.408 . S
C3097 C3096 1.404 . S
C3097 H3109 0.930 . S
C3098 C3094 1.524 . S
C3098 H3110 0.956 . S
C3098 H3111 0.961 . S
C3098 H3112 0.961 . S
C3099 C3096 1.539 . S
C3099 H3113 0.958 . S
C3099 H3114 0.961 . S
C3099 H3115 0.960 . S
H3100 C3084 0.931 . S
H3101 C3089 0.929 . S
H3102 C3090 0.960 . S
H3103 C3090 0.962 . S
H3104 C3090 0.960 . S
H3105 C3091 0.961 . S
H3106 C3091 0.961 . S
H3107 C3091 0.961 . S
H3108 C3092 0.931 . S
H3109 C3097 0.930 . S
H3110 C3098 0.956 . S
H3111 C3098 0.961 . S
H3112 C3098 0.961 . S
H3113 C3099 0.958 . S
H3114 C3099 0.961 . S
H3115 C3099 0.960 . S
C3116 C3117 1.391 . S
C3116 C3118 1.394 . S
C3116 H3132 0.931 . S
C3117 C3116 1.391 . S
C3117 C3121 1.376 . S
C3118 C3116 1.394 . S
C3118 C3119 1.369 . S
C3118 C3122 1.531 . S
C3119 C3118 1.369 . S
C3119 C3120 1.410 . S
C3119 C3127 1.503 . S
C3120 C3119 1.410 . S
C3120 C3121 1.392 . S
C3120 C3123 1.511 . S
C3121 C3117 1.376 . S
C3121 C3120 1.392 . S
C3121 H3133 0.929 . S
C3122 C3118 1.531 . S
C3122 H3134 0.960 . S
C3122 H3135 0.962 . S
C3122 H3136 0.960 . S
C3123 C3120 1.511 . S
C3123 H3137 0.961 . S
C3123 H3138 0.961 . S
C3123 H3139 0.961 . S
C3124 C3125 1.370 . S
C3124 C3126 1.363 . S
C3124 H3140 0.931 . S
C3125 C3124 1.370 . S
C3125 C3129 1.408 . S
C3126 C3124 1.363 . S
C3126 C3127 1.370 . S
C3126 C3130 1.524 . S
C3127 C3119 1.503 . S
C3127 C3126 1.370 . S
C3127 C3128 1.403 . S
C3128 C3127 1.403 . S
C3128 C3129 1.404 . S
C3128 C3131 1.539 . S
C3129 C3125 1.408 . S
C3129 C3128 1.404 . S
C3129 H3141 0.930 . S
C3130 C3126 1.524 . S
C3130 H3142 0.956 . S
C3130 H3143 0.961 . S
C3130 H3144 0.961 . S
C3131 C3128 1.539 . S
C3131 H3145 0.958 . S
C3131 H3146 0.961 . S
C3131 H3147 0.960 . S
H3132 C3116 0.931 . S
H3133 C3121 0.929 . S
H3134 C3122 0.960 . S
H3135 C3122 0.962 . S
H3136 C3122 0.960 . S
H3137 C3123 0.961 . S
H3138 C3123 0.961 . S
H3139 C3123 0.961 . S
H3140 C3124 0.931 . S
H3141 C3129 0.930 . S
H3142 C3130 0.956 . S
H3143 C3130 0.961 . S
H3144 C3130 0.961 . S
H3145 C3131 0.958 . S
H3146 C3131 0.961 . S
H3147 C3131 0.960 . S
C3148 C3149 1.391 . S
C3148 C3150 1.394 . S
C3148 H3164 0.931 . S
C3149 C3148 1.391 . S
C3149 C3153 1.376 . S
C3150 C3148 1.394 . S
C3150 C3151 1.369 . S
C3150 C3154 1.531 . S
C3151 C3150 1.369 . S
C3151 C3152 1.410 . S
C3151 C3159 1.503 . S
C3152 C3151 1.410 . S
C3152 C3153 1.392 . S
C3152 C3155 1.511 . S
C3153 C3149 1.376 . S
C3153 C3152 1.392 . S
C3153 H3165 0.929 . S
C3154 C3150 1.531 . S
C3154 H3166 0.960 . S
C3154 H3167 0.962 . S
C3154 H3168 0.960 . S
C3155 C3152 1.511 . S
C3155 H3169 0.961 . S
C3155 H3170 0.961 . S
C3155 H3171 0.961 . S
C3156 C3157 1.370 . S
C3156 C3158 1.363 . S
C3156 H3172 0.931 . S
C3157 C3156 1.370 . S
C3157 C3161 1.408 . S
C3158 C3156 1.363 . S
C3158 C3159 1.370 . S
C3158 C3162 1.524 . S
C3159 C3151 1.503 . S
C3159 C3158 1.370 . S
C3159 C3160 1.403 . S
C3160 C3159 1.403 . S
C3160 C3161 1.404 . S
C3160 C3163 1.539 . S
C3161 C3157 1.408 . S
C3161 C3160 1.404 . S
C3161 H3173 0.930 . S
C3162 C3158 1.524 . S
C3162 H3174 0.956 . S
C3162 H3175 0.961 . S
C3162 H3176 0.961 . S
C3163 C3160 1.539 . S
C3163 H3177 0.958 . S
C3163 H3178 0.961 . S
C3163 H3179 0.960 . S
H3164 C3148 0.931 . S
H3165 C3153 0.929 . S
H3166 C3154 0.960 . S
H3167 C3154 0.962 . S
H3168 C3154 0.960 . S
H3169 C3155 0.961 . S
H3170 C3155 0.961 . S
H3171 C3155 0.961 . S
H3172 C3156 0.931 . S
H3173 C3161 0.930 . S
H3174 C3162 0.956 . S
H3175 C3162 0.961 . S
H3176 C3162 0.961 . S
H3177 C3163 0.958 . S
H3178 C3163 0.961 . S
H3179 C3163 0.960 . S
C3180 C3181 1.391 . S
C3180 C3182 1.394 . S
C3180 H3196 0.931 . S
C3181 C3180 1.391 . S
C3181 C3185 1.376 . S
C3182 C3180 1.394 . S
C3182 C3183 1.369 . S
C3182 C3186 1.531 . S
C3183 C3182 1.369 . S
C3183 C3184 1.410 . S
C3183 C3191 1.503 . S
C3184 C3183 1.410 . S
C3184 C3185 1.392 . S
C3184 C3187 1.511 . S
C3185 C3181 1.376 . S
C3185 C3184 1.392 . S
C3185 H3197 0.929 . S
C3186 C3182 1.531 . S
C3186 H3198 0.960 . S
C3186 H3199 0.962 . S
C3186 H3200 0.960 . S
C3187 C3184 1.511 . S
C3187 H3201 0.961 . S
C3187 H3202 0.961 . S
C3187 H3203 0.961 . S
C3188 C3189 1.370 . S
C3188 C3190 1.363 . S
C3188 H3204 0.931 . S
C3189 C3188 1.370 . S
C3189 C3193 1.408 . S
C3190 C3188 1.363 . S
C3190 C3191 1.370 . S
C3190 C3194 1.524 . S
C3191 C3183 1.503 . S
C3191 C3190 1.370 . S
C3191 C3192 1.403 . S
C3192 C3191 1.403 . S
C3192 C3193 1.404 . S
C3192 C3195 1.539 . S
C3193 C3189 1.408 . S
C3193 C3192 1.404 . S
C3193 H3205 0.930 . S
C3194 C3190 1.524 . S
C3194 H3206 0.956 . S
C3194 H3207 0.961 . S
C3194 H3208 0.961 . S
C3195 C3192 1.539 . S
C3195 H3209 0.958 . S
C3195 H3210 0.961 . S
C3195 H3211 0.960 . S
H3196 C3180 0.931 . S
H3197 C3185 0.929 . S
H3198 C3186 0.960 . S
H3199 C3186 0.962 . S
H3200 C3186 0.960 . S
H3201 C3187 0.961 . S
H3202 C3187 0.961 . S
H3203 C3187 0.961 . S
H3204 C3188 0.931 . S
H3205 C3193 0.930 . S
H3206 C3194 0.956 . S
H3207 C3194 0.961 . S
H3208 C3194 0.961 . S
H3209 C3195 0.958 . S
H3210 C3195 0.961 . S
H3211 C3195 0.960 . S
C3212 C3213 1.391 . S
C3212 C3214 1.394 . S
C3212 H3228 0.931 . S
C3213 C3212 1.391 . S
C3213 C3217 1.376 . S
C3214 C3212 1.394 . S
C3214 C3215 1.369 . S
C3214 C3218 1.531 . S
C3215 C3214 1.369 . S
C3215 C3216 1.410 . S
C3215 C3223 1.503 . S
C3216 C3215 1.410 . S
C3216 C3217 1.392 . S
C3216 C3219 1.511 . S
C3217 C3213 1.376 . S
C3217 C3216 1.392 . S
C3217 H3229 0.929 . S
C3218 C3214 1.531 . S
C3218 H3230 0.960 . S
C3218 H3231 0.962 . S
C3218 H3232 0.960 . S
C3219 C3216 1.511 . S
C3219 H3233 0.961 . S
C3219 H3234 0.961 . S
C3219 H3235 0.961 . S
C3220 C3221 1.370 . S
C3220 C3222 1.363 . S
C3220 H3236 0.931 . S
C3221 C3220 1.370 . S
C3221 C3225 1.408 . S
C3222 C3220 1.363 . S
C3222 C3223 1.370 . S
C3222 C3226 1.524 . S
C3223 C3215 1.503 . S
C3223 C3222 1.370 . S
C3223 C3224 1.403 . S
C3224 C3223 1.403 . S
C3224 C3225 1.404 . S
C3224 C3227 1.539 . S
C3225 C3221 1.408 . S
C3225 C3224 1.404 . S
C3225 H3237 0.930 . S
C3226 C3222 1.524 . S
C3226 H3238 0.956 . S
C3226 H3239 0.961 . S
C3226 H3240 0.961 . S
C3227 C3224 1.539 . S
C3227 H3241 0.958 . S
C3227 H3242 0.961 . S
C3227 H3243 0.960 . S
H3228 C3212 0.931 . S
H3229 C3217 0.929 . S
H3230 C3218 0.960 . S
H3231 C3218 0.962 . S
H3232 C3218 0.960 . S
H3233 C3219 0.961 . S
H3234 C3219 0.961 . S
H3235 C3219 0.961 . S
H3236 C3220 0.931 . S
H3237 C3225 0.930 . S
H3238 C3226 0.956 . S
H3239 C3226 0.961 . S
H3240 C3226 0.961 . S
H3241 C3227 0.958 . S
H3242 C3227 0.961 . S
H3243 C3227 0.960 . S
C3244 C3245 1.391 . S
C3244 C3246 1.394 . S
C3244 H3260 0.931 . S
C3245 C3244 1.391 . S
C3245 C3249 1.376 . S
C3246 C3244 1.394 . S
C3246 C3247 1.369 . S
C3246 C3250 1.531 . S
C3247 C3246 1.369 . S
C3247 C3248 1.410 . S
C3247 C3255 1.503 . S
C3248 C3247 1.410 . S
C3248 C3249 1.392 . S
C3248 C3251 1.511 . S
C3249 C3245 1.376 . S
C3249 C3248 1.392 . S
C3249 H3261 0.929 . S
C3250 C3246 1.531 . S
C3250 H3262 0.960 . S
C3250 H3263 0.962 . S
C3250 H3264 0.960 . S
C3251 C3248 1.511 . S
C3251 H3265 0.961 . S
C3251 H3266 0.961 . S
C3251 H3267 0.961 . S
C3252 C3253 1.370 . S
C3252 C3254 1.363 . S
C3252 H3268 0.931 . S
C3253 C3252 1.370 . S
C3253 C3257 1.408 . S
C3254 C3252 1.363 . S
C3254 C3255 1.370 . S
C3254 C3258 1.524 . S
C3255 C3247 1.503 . S
C3255 C3254 1.370 . S
C3255 C3256 1.403 . S
C3256 C3255 1.403 . S
C3256 C3257 1.404 . S
C3256 C3259 1.539 . S
C3257 C3253 1.408 . S
C3257 C3256 1.404 . S
C3257 H3269 0.930 . S
C3258 C3254 1.524 . S
C3258 H3270 0.956 . S
C3258 H3271 0.961 . S
C3258 H3272 0.961 . S
C3259 C3256 1.539 . S
C3259 H3273 0.958 . S
C3259 H3274 0.961 . S
C3259 H3275 0.960 . S
H3260 C3244 0.931 . S
H3261 C3249 0.929 . S
H3262 C3250 0.960 . S
H3263 C3250 0.962 . S
H3264 C3250 0.960 . S
H3265 C3251 0.961 . S
H3266 C3251 0.961 . S
H3267 C3251 0.961 . S
H3268 C3252 0.931 . S
H3269 C3257 0.930 . S
H3270 C3258 0.956 . S
H3271 C3258 0.961 . S
H3272 C3258 0.961 . S
H3273 C3259 0.958 . S
H3274 C3259 0.961 . S
H3275 C3259 0.960 . S
C3276 C3277 1.391 . S
C3276 C3278 1.394 . S
C3276 H3292 0.931 . S
C3277 C3276 1.391 . S
C3277 C3281 1.376 . S
C3278 C3276 1.394 . S
C3278 C3279 1.369 . S
C3278 C3282 1.531 . S
C3279 C3278 1.369 . S
C3279 C3280 1.410 . S
C3279 C3287 1.503 . S
C3280 C3279 1.410 . S
C3280 C3281 1.392 . S
C3280 C3283 1.511 . S
C3281 C3277 1.376 . S
C3281 C3280 1.392 . S
C3281 H3293 0.929 . S
C3282 C3278 1.531 . S
C3282 H3294 0.960 . S
C3282 H3295 0.962 . S
C3282 H3296 0.960 . S
C3283 C3280 1.511 . S
C3283 H3297 0.961 . S
C3283 H3298 0.961 . S
C3283 H3299 0.961 . S
C3284 C3285 1.370 . S
C3284 C3286 1.363 . S
C3284 H3300 0.931 . S
C3285 C3284 1.370 . S
C3285 C3289 1.408 . S
C3286 C3284 1.363 . S
C3286 C3287 1.370 . S
C3286 C3290 1.524 . S
C3287 C3279 1.503 . S
C3287 C3286 1.370 . S
C3287 C3288 1.403 . S
C3288 C3287 1.403 . S
C3288 C3289 1.404 . S
C3288 C3291 1.539 . S
C3289 C3285 1.408 . S
C3289 C3288 1.404 . S
C3289 H3301 0.930 . S
C3290 C3286 1.524 . S
C3290 H3302 0.956 . S
C3290 H3303 0.961 . S
C3290 H3304 0.961 . S
C3291 C3288 1.539 . S
C3291 H3305 0.958 . S
C3291 H3306 0.961 . S
C3291 H3307 0.960 . S
H3292 C3276 0.931 . S
H3293 C3281 0.929 . S
H3294 C3282 0.960 . S
H3295 C3282 0.962 . S
H3296 C3282 0.960 . S
H3297 C3283 0.961 . S
H3298 C3283 0.961 . S
H3299 C3283 0.961 . S
H3300 C3284 0.931 . S
H3301 C3289 0.930 . S
H3302 C3290 0.956 . S
H3303 C3290 0.961 . S
H3304 C3290 0.961 . S
H3305 C3291 0.958 . S
H3306 C3291 0.961 . S
H3307 C3291 0.960 . S
C3308 C3309 1.391 . S
C3308 C3310 1.394 . S
C3308 H3324 0.931 . S
C3309 C3308 1.391 . S
C3309 C3313 1.376 . S
C3310 C3308 1.394 . S
C3310 C3311 1.369 . S
C3310 C3314 1.531 . S
C3311 C3310 1.369 . S
C3311 C3312 1.410 . S
C3311 C3319 1.503 . S
C3312 C3311 1.410 . S
C3312 C3313 1.392 . S
C3312 C3315 1.511 . S
C3313 C3309 1.376 . S
C3313 C3312 1.392 . S
C3313 H3325 0.929 . S
C3314 C3310 1.531 . S
C3314 H3326 0.960 . S
C3314 H3327 0.962 . S
C3314 H3328 0.960 . S
C3315 C3312 1.511 . S
C3315 H3329 0.961 . S
C3315 H3330 0.961 . S
C3315 H3331 0.961 . S
C3316 C3317 1.370 . S
C3316 C3318 1.363 . S
C3316 H3332 0.931 . S
C3317 C3316 1.370 . S
C3317 C3321 1.408 . S
C3318 C3316 1.363 . S
C3318 C3319 1.370 . S
C3318 C3322 1.524 . S
C3319 C3311 1.503 . S
C3319 C3318 1.370 . S
C3319 C3320 1.403 . S
C3320 C3319 1.403 . S
C3320 C3321 1.404 . S
C3320 C3323 1.539 . S
C3321 C3317 1.408 . S
C3321 C3320 1.404 . S
C3321 H3333 0.930 . S
C3322 C3318 1.524 . S
C3322 H3334 0.956 . S
C3322 H3335 0.961 . S
C3322 H3336 0.961 . S
C3323 C3320 1.539 . S
C3323 H3337 0.958 . S
C3323 H3338 0.961 . S
C3323 H3339 0.960 . S
H3324 C3308 0.931 . S
H3325 C3313 0.929 . S
H3326 C3314 0.960 . S
H3327 C3314 0.962 . S
H3328 C3314 0.960 . S
H3329 C3315 0.961 . S
H3330 C3315 0.961 . S
H3331 C3315 0.961 . S
H3332 C3316 0.931 . S
H3333 C3321 0.930 . S
H3334 C3322 0.956 . S
H3335 C3322 0.961 . S
H3336 C3322 0.961 . S
H3337 C3323 0.958 . S
H3338 C3323 0.961 . S
H3339 C3323 0.960 . S
C3340 C3341 1.391 . S
C3340 C3342 1.394 . S
C3340 H3356 0.931 . S
C3341 C3340 1.391 . S
C3341 C3345 1.376 . S
C3342 C3340 1.394 . S
C3342 C3343 1.369 . S
C3342 C3346 1.531 . S
C3343 C3342 1.369 . S
C3343 C3344 1.410 . S
C3343 C3351 1.503 . S
C3344 C3343 1.410 . S
C3344 C3345 1.392 . S
C3344 C3347 1.511 . S
C3345 C3341 1.376 . S
C3345 C3344 1.392 . S
C3345 H3357 0.929 . S
C3346 C3342 1.531 . S
C3346 H3358 0.960 . S
C3346 H3359 0.962 . S
C3346 H3360 0.960 . S
C3347 C3344 1.511 . S
C3347 H3361 0.961 . S
C3347 H3362 0.961 . S
C3347 H3363 0.961 . S
C3348 C3349 1.370 . S
C3348 C3350 1.363 . S
C3348 H3364 0.931 . S
C3349 C3348 1.370 . S
C3349 C3353 1.408 . S
C3350 C3348 1.363 . S
C3350 C3351 1.370 . S
C3350 C3354 1.524 . S
C3351 C3343 1.503 . S
C3351 C3350 1.370 . S
C3351 C3352 1.403 . S
C3352 C3351 1.403 . S
C3352 C3353 1.404 . S
C3352 C3355 1.539 . S
C3353 C3349 1.408 . S
C3353 C3352 1.404 . S
C3353 H3365 0.930 . S
C3354 C3350 1.524 . S
C3354 H3366 0.956 . S
C3354 H3367 0.961 . S
C3354 H3368 0.961 . S
C3355 C3352 1.539 . S
C3355 H3369 0.958 . S
C3355 H3370 0.961 . S
C3355 H3371 0.960 . S
H3356 C3340 0.931 . S
H3357 C3345 0.929 . S
H3358 C3346 0.960 . S
H3359 C3346 0.962 . S
H3360 C3346 0.960 . S
H3361 C3347 0.961 . S
H3362 C3347 0.961 . S
H3363 C3347 0.961 . S
H3364 C3348 0.931 . S
H3365 C3353 0.930 . S
H3366 C3354 0.956 . S
H3367 C3354 0.961 . S
H3368 C3354 0.961 . S
H3369 C3355 0.958 . S
H3370 C3355 0.961 . S
H3371 C3355 0.960 . S
C3372 C3373 1.391 . S
C3372 C3374 1.394 . S
C3372 H3388 0.931 . S
C3373 C3372 1.391 . S
C3373 C3377 1.376 . S
C3374 C3372 1.394 . S
C3374 C3375 1.369 . S
C3374 C3378 1.531 . S
C3375 C3374 1.369 . S
C3375 C3376 1.410 . S
C3375 C3383 1.503 . S
C3376 C3375 1.410 . S
C3376 C3377 1.392 . S
C3376 C3379 1.511 . S
C3377 C3373 1.376 . S
C3377 C3376 1.392 . S
C3377 H3389 0.929 . S
C3378 C3374 1.531 . S
C3378 H3390 0.960 . S
C3378 H3391 0.962 . S
C3378 H3392 0.960 . S
C3379 C3376 1.511 . S
C3379 H3393 0.961 . S
C3379 H3394 0.961 . S
C3379 H3395 0.961 . S
C3380 C3381 1.370 . S
C3380 C3382 1.363 . S
C3380 H3396 0.931 . S
C3381 C3380 1.370 . S
C3381 C3385 1.408 . S
C3382 C3380 1.363 . S
C3382 C3383 1.370 . S
C3382 C3386 1.524 . S
C3383 C3375 1.503 . S
C3383 C3382 1.370 . S
C3383 C3384 1.403 . S
C3384 C3383 1.403 . S
C3384 C3385 1.404 . S
C3384 C3387 1.539 . S
C3385 C3381 1.408 . S
C3385 C3384 1.404 . S
C3385 H3397 0.930 . S
C3386 C3382 1.524 . S
C3386 H3398 0.956 . S
C3386 H3399 0.961 . S
C3386 H3400 0.961 . S
C3387 C3384 1.539 . S
C3387 H3401 0.958 . S
C3387 H3402 0.961 . S
C3387 H3403 0.960 . S
H3388 C3372 0.931 . S
H3389 C3377 0.929 . S
H3390 C3378 0.960 . S
H3391 C3378 0.962 . S
H3392 C3378 0.960 . S
H3393 C3379 0.961 . S
H3394 C3379 0.961 . S
H3395 C3379 0.961 . S
H3396 C3380 0.931 . S
H3397 C3385 0.930 . S
H3398 C3386 0.956 . S
H3399 C3386 0.961 . S
H3400 C3386 0.961 . S
H3401 C3387 0.958 . S
H3402 C3387 0.961 . S
H3403 C3387 0.960 . S
C3404 C3405 1.391 . S
C3404 C3406 1.394 . S
C3404 H3420 0.931 . S
C3405 C3404 1.391 . S
C3405 C3409 1.376 . S
C3406 C3404 1.394 . S
C3406 C3407 1.369 . S
C3406 C3410 1.531 . S
C3407 C3406 1.369 . S
C3407 C3408 1.410 . S
C3407 C3415 1.503 . S
C3408 C3407 1.410 . S
C3408 C3409 1.392 . S
C3408 C3411 1.511 . S
C3409 C3405 1.376 . S
C3409 C3408 1.392 . S
C3409 H3421 0.929 . S
C3410 C3406 1.531 . S
C3410 H3422 0.960 . S
C3410 H3423 0.962 . S
C3410 H3424 0.960 . S
C3411 C3408 1.511 . S
C3411 H3425 0.961 . S
C3411 H3426 0.961 . S
C3411 H3427 0.961 . S
C3412 C3413 1.370 . S
C3412 C3414 1.363 . S
C3412 H3428 0.931 . S
C3413 C3412 1.370 . S
C3413 C3417 1.408 . S
C3414 C3412 1.363 . S
C3414 C3415 1.370 . S
C3414 C3418 1.524 . S
C3415 C3407 1.503 . S
C3415 C3414 1.370 . S
C3415 C3416 1.403 . S
C3416 C3415 1.403 . S
C3416 C3417 1.404 . S
C3416 C3419 1.539 . S
C3417 C3413 1.408 . S
C3417 C3416 1.404 . S
C3417 H3429 0.930 . S
C3418 C3414 1.524 . S
C3418 H3430 0.956 . S
C3418 H3431 0.961 . S
C3418 H3432 0.961 . S
C3419 C3416 1.539 . S
C3419 H3433 0.958 . S
C3419 H3434 0.961 . S
C3419 H3435 0.960 . S
H3420 C3404 0.931 . S
H3421 C3409 0.929 . S
H3422 C3410 0.960 . S
H3423 C3410 0.962 . S
H3424 C3410 0.960 . S
H3425 C3411 0.961 . S
H3426 C3411 0.961 . S
H3427 C3411 0.961 . S
H3428 C3412 0.931 . S
H3429 C3417 0.930 . S
H3430 C3418 0.956 . S
H3431 C3418 0.961 . S
H3432 C3418 0.961 . S
H3433 C3419 0.958 . S
H3434 C3419 0.961 . S
H3435 C3419 0.960 . S
C3436 C3437 1.391 . S
C3436 C3438 1.394 . S
C3436 H3452 0.931 . S
C3437 C3436 1.391 . S
C3437 C3441 1.376 . S
C3438 C3436 1.394 . S
C3438 C3439 1.369 . S
C3438 C3442 1.531 . S
C3439 C3438 1.369 . S
C3439 C3440 1.410 . S
C3439 C3447 1.503 . S
C3440 C3439 1.410 . S
C3440 C3441 1.392 . S
C3440 C3443 1.511 . S
C3441 C3437 1.376 . S
C3441 C3440 1.392 . S
C3441 H3453 0.929 . S
C3442 C3438 1.531 . S
C3442 H3454 0.960 . S
C3442 H3455 0.962 . S
C3442 H3456 0.960 . S
C3443 C3440 1.511 . S
C3443 H3457 0.961 . S
C3443 H3458 0.961 . S
C3443 H3459 0.961 . S
C3444 C3445 1.370 . S
C3444 C3446 1.363 . S
C3444 H3460 0.931 . S
C3445 C3444 1.370 . S
C3445 C3449 1.408 . S
C3446 C3444 1.363 . S
C3446 C3447 1.370 . S
C3446 C3450 1.524 . S
C3447 C3439 1.503 . S
C3447 C3446 1.370 . S
C3447 C3448 1.403 . S
C3448 C3447 1.403 . S
C3448 C3449 1.404 . S
C3448 C3451 1.539 . S
C3449 C3445 1.408 . S
C3449 C3448 1.404 . S
C3449 H3461 0.930 . S
C3450 C3446 1.524 . S
C3450 H3462 0.956 . S
C3450 H3463 0.961 . S
C3450 H3464 0.961 . S
C3451 C3448 1.539 . S
C3451 H3465 0.958 . S
C3451 H3466 0.961 . S
C3451 H3467 0.960 . S
H3452 C3436 0.931 . S
H3453 C3441 0.929 . S
H3454 C3442 0.960 . S
H3455 C3442 0.962 . S
H3456 C3442 0.960 . S
H3457 C3443 0.961 . S
H3458 C3443 0.961 . S
H3459 C3443 0.961 . S
H3460 C3444 0.931 . S
H3461 C3449 0.930 . S
H3462 C3450 0.956 . S
H3463 C3450 0.961 . S
H3464 C3450 0.961 . S
H3465 C3451 0.958 . S
H3466 C3451 0.961 . S
H3467 C3451 0.960 . S
C3468 C3469 1.391 . S
C3468 C3470 1.394 . S
C3468 H3484 0.931 . S
C3469 C3468 1.391 . S
C3469 C3473 1.376 . S
C3470 C3468 1.394 . S
C3470 C3471 1.369 . S
C3470 C3474 1.531 . S
C3471 C3470 1.369 . S
C3471 C3472 1.410 . S
C3471 C3479 1.503 . S
C3472 C3471 1.410 . S
C3472 C3473 1.392 . S
C3472 C3475 1.511 . S
C3473 C3469 1.376 . S
C3473 C3472 1.392 . S
C3473 H3485 0.929 . S
C3474 C3470 1.531 . S
C3474 H3486 0.960 . S
C3474 H3487 0.962 . S
C3474 H3488 0.960 . S
C3475 C3472 1.511 . S
C3475 H3489 0.961 . S
C3475 H3490 0.961 . S
C3475 H3491 0.961 . S
C3476 C3477 1.370 . S
C3476 C3478 1.363 . S
C3476 H3492 0.931 . S
C3477 C3476 1.370 . S
C3477 C3481 1.408 . S
C3478 C3476 1.363 . S
C3478 C3479 1.370 . S
C3478 C3482 1.524 . S
C3479 C3471 1.503 . S
C3479 C3478 1.370 . S
C3479 C3480 1.403 . S
C3480 C3479 1.403 . S
C3480 C3481 1.404 . S
C3480 C3483 1.539 . S
C3481 C3477 1.408 . S
C3481 C3480 1.404 . S
C3481 H3493 0.930 . S
C3482 C3478 1.524 . S
C3482 H3494 0.956 . S
C3482 H3495 0.961 . S
C3482 H3496 0.961 . S
C3483 C3480 1.539 . S
C3483 H3497 0.958 . S
C3483 H3498 0.961 . S
C3483 H3499 0.960 . S
H3484 C3468 0.931 . S
H3485 C3473 0.929 . S
H3486 C3474 0.960 . S
H3487 C3474 0.962 . S
H3488 C3474 0.960 . S
H3489 C3475 0.961 . S
H3490 C3475 0.961 . S
H3491 C3475 0.961 . S
H3492 C3476 0.931 . S
H3493 C3481 0.930 . S
H3494 C3482 0.956 . S
H3495 C3482 0.961 . S
H3496 C3482 0.961 . S
H3497 C3483 0.958 . S
H3498 C3483 0.961 . S
H3499 C3483 0.960 . S
C3500 C3501 1.391 . S
C3500 C3502 1.394 . S
C3500 H3516 0.931 . S
C3501 C3500 1.391 . S
C3501 C3505 1.376 . S
C3502 C3500 1.394 . S
C3502 C3503 1.369 . S
C3502 C3506 1.531 . S
C3503 C3502 1.369 . S
C3503 C3504 1.410 . S
C3503 C3511 1.503 . S
C3504 C3503 1.410 . S
C3504 C3505 1.392 . S
C3504 C3507 1.511 . S
C3505 C3501 1.376 . S
C3505 C3504 1.392 . S
C3505 H3517 0.929 . S
C3506 C3502 1.531 . S
C3506 H3518 0.960 . S
C3506 H3519 0.962 . S
C3506 H3520 0.960 . S
C3507 C3504 1.511 . S
C3507 H3521 0.961 . S
C3507 H3522 0.961 . S
C3507 H3523 0.961 . S
C3508 C3509 1.370 . S
C3508 C3510 1.363 . S
C3508 H3524 0.931 . S
C3509 C3508 1.370 . S
C3509 C3513 1.408 . S
C3510 C3508 1.363 . S
C3510 C3511 1.370 . S
C3510 C3514 1.524 . S
C3511 C3503 1.503 . S
C3511 C3510 1.370 . S
C3511 C3512 1.403 . S
C3512 C3511 1.403 . S
C3512 C3513 1.404 . S
C3512 C3515 1.539 . S
C3513 C3509 1.408 . S
C3513 C3512 1.404 . S
C3513 H3525 0.930 . S
C3514 C3510 1.524 . S
C3514 H3526 0.956 . S
C3514 H3527 0.961 . S
C3514 H3528 0.961 . S
C3515 C3512 1.539 . S
C3515 H3529 0.958 . S
C3515 H3530 0.961 . S
C3515 H3531 0.960 . S
H3516 C3500 0.931 . S
H3517 C3505 0.929 . S
H3518 C3506 0.960 . S
H3519 C3506 0.962 . S
H3520 C3506 0.960 . S
H3521 C3507 0.961 . S
H3522 C3507 0.961 . S
H3523 C3507 0.961 . S
H3524 C3508 0.931 . S
H3525 C3513 0.930 . S
H3526 C3514 0.956 . S
H3527 C3514 0.961 . S
H3528 C3514 0.961 . S
H3529 C3515 0.958 . S
H3530 C3515 0.961 . S
H3531 C3515 0.960 . S
C3532 C3533 1.391 . S
C3532 C3534 1.394 . S
C3532 H3548 0.931 . S
C3533 C3532 1.391 . S
C3533 C3537 1.376 . S
C3534 C3532 1.394 . S
C3534 C3535 1.369 . S
C3534 C3538 1.531 . S
C3535 C3534 1.369 . S
C3535 C3536 1.410 . S
C3535 C3543 1.503 . S
C3536 C3535 1.410 . S
C3536 C3537 1.392 . S
C3536 C3539 1.511 . S
C3537 C3533 1.376 . S
C3537 C3536 1.392 . S
C3537 H3549 0.929 . S
C3538 C3534 1.531 . S
C3538 H3550 0.960 . S
C3538 H3551 0.962 . S
C3538 H3552 0.960 . S
C3539 C3536 1.511 . S
C3539 H3553 0.961 . S
C3539 H3554 0.961 . S
C3539 H3555 0.961 . S
C3540 C3541 1.370 . S
C3540 C3542 1.363 . S
C3540 H3556 0.931 . S
C3541 C3540 1.370 . S
C3541 C3545 1.408 . S
C3542 C3540 1.363 . S
C3542 C3543 1.370 . S
C3542 C3546 1.524 . S
C3543 C3535 1.503 . S
C3543 C3542 1.370 . S
C3543 C3544 1.403 . S
C3544 C3543 1.403 . S
C3544 C3545 1.404 . S
C3544 C3547 1.539 . S
C3545 C3541 1.408 . S
C3545 C3544 1.404 . S
C3545 H3557 0.930 . S
C3546 C3542 1.524 . S
C3546 H3558 0.956 . S
C3546 H3559 0.961 . S
C3546 H3560 0.961 . S
C3547 C3544 1.539 . S
C3547 H3561 0.958 . S
C3547 H3562 0.961 . S
C3547 H3563 0.960 . S
H3548 C3532 0.931 . S
H3549 C3537 0.929 . S
H3550 C3538 0.960 . S
H3551 C3538 0.962 . S
H3552 C3538 0.960 . S
H3553 C3539 0.961 . S
H3554 C3539 0.961 . S
H3555 C3539 0.961 . S
H3556 C3540 0.931 . S
H3557 C3545 0.930 . S
H3558 C3546 0.956 . S
H3559 C3546 0.961 . S
H3560 C3546 0.961 . S
H3561 C3547 0.958 . S
H3562 C3547 0.961 . S
H3563 C3547 0.960 . S
C1269 C966 1.059 . S
C1261 C941 1.071 . S
C1293 C861 1.067 . S
C1301 C964 1.075 . S
C1333 C965 1.066 . S
C1325 C821 1.076 . S
C1357 C901 1.032 . S
C1365 C967 1.050 . S
C1397 C1011 1.069 . S
C1389 C661 1.041 . S
C1429 C1071 1.057 . S
C1421 C701 1.055 . S
C1453 C741 1.070 . S
C1461 C1010 1.068 . S
C1493 C1070 1.064 . S
C1485 C781 1.035 . S
C1517 C501 1.042 . S
C1525 C1012 1.060 . S
C1557 C1068 1.072 . S
C1549 C541 1.049 . S
C1581 C581 1.069 . S
C1589 C1013 1.062 . S
C1613 C621 1.061 . S
C1621 C1069 1.064 . S
C1653 C1119 1.061 . S
C1645 C461 1.030 . S
C1677 C381 1.060 1_556 S
C1685 C1118 1.064 1_556 S
C1709 C341 1.043 . S
C1717 C1120 1.068 . S
C1749 C1121 1.062 . S
C1741 C421 1.031 . S
C1773 C181 1.060 1_455 S
C1781 C1162 1.064 . S
C1805 C221 1.051 1_565 S
C1813 C1221 1.052 . S
C1837 C261 1.053 1_455 S
C1845 C1160 1.072 . S
C1869 C301 1.046 . S
C1877 C1220 1.071 . S
C1909 C1161 1.068 . S
C1901 C21 1.069 1_455 S
C1941 C1218 1.076 . S
C1933 C61 1.074 1_565 S
C1965 C101 1.053 1_455 S
C1973 C1163 1.059 . S
C2005 C1219 1.060 . S
C1997 C141 1.036 . S
C2037 C963 2.077 . S
C2029 C15 1.900 . S
C2061 C42 1.948 . S
C2069 C969 2.064 . S
C2093 C82 1.983 1_455 S
C2101 C961 2.048 . S
C2125 C122 1.932 . S
C2133 C968 2.061 1_565 S
C2157 C175 1.907 1_655 S
C2165 C960 2.072 . S
C2197 C970 2.057 . S
C2189 C202 1.930 . S
C2221 C242 1.972 . S
C2229 C962 2.058 . S
C2261 C971 2.067 . S
C2253 C295 1.960 . S
C2293 C1017 2.072 . S
C2285 C135 1.923 . S
C2317 C2 1.931 1_455 S
C2325 C1060 2.062 . S
C2357 C1015 2.069 . S
C2349 C55 1.958 1_565 S
C2389 C1062 2.072 . S
C2381 C95 1.903 1_655 S
C2413 C215 1.923 1_565 S
C2421 C1016 2.070 1_565 S
C2453 C1061 2.072 . S
C2445 C255 1.965 . S
C2485 C1014 2.064 . S
C2477 C282 1.936 . S
C2517 C1063 2.066 . S
C2509 C162 1.936 1_455 S
C2549 C1067 2.051 . S
C2541 C322 1.979 1_556 S
C2573 C375 1.906 1_556 S
C2581 C1066 2.073 . S
C2613 C1018 2.066 1_556 S
C2605 C335 1.944 1_556 S
C2645 C1065 2.062 . S
C2637 C415 1.939 . S
C2669 C455 1.903 . S
C2677 C1021 2.068 . S
C2701 C442 1.921 . S
C2709 C1064 2.056 . S
C2741 C1020 2.050 1_556 S
C2733 C362 1.981 1_556 S
C2773 C1019 2.049 . S
C2765 C402 1.965 . S
C2805 C1113 2.071 . S
C2797 C495 1.910 . S
C2837 C1116 2.065 . S
C2829 C522 1.931 . S
C2861 C562 1.929 . S
C2869 C1112 2.061 . S
C2901 C1114 2.057 . S
C2893 C602 1.975 . S
C2933 C1110 2.076 . S
C2925 C655 1.896 . S
C2957 C682 1.971 . S
C2965 C1115 2.052 . S
C2989 C722 1.976 . S
C2997 C1111 2.053 . S
C3029 C1117 2.067 . S
C3021 C775 1.944 . S
C3061 C1171 2.066 . S
C3053 C615 1.944 . S
C3085 C482 1.965 . S
C3093 C1210 2.054 . S
C3125 C1170 2.077 . S
C3117 C535 1.904 . S
C3157 C1212 2.073 . S
C3149 C575 1.906 . S
C3189 C1169 2.063 . S
C3181 C695 1.959 . S
C3213 C735 1.901 . S
C3221 C1211 2.081 . S
C3253 C1168 2.057 . S
C3245 C762 1.976 . S
C3285 C1213 2.066 . S
C3277 C642 1.932 . S
C3317 C1217 2.068 . S
C3309 C815 1.927 . S
C3341 C855 1.944 . S
C3349 C1216 2.069 . S
C3381 C1164 2.051 . S
C3373 C802 1.986 . S
C3405 C895 1.888 . S
C3413 C1215 2.068 . S
C3445 C1167 2.064 . S
C3437 C935 1.932 . S
C3477 C1214 2.048 . S
C3469 C922 1.971 . S
C3509 C1165 2.061 . S
C3501 C842 1.940 . S
C3533 C882 1.925 . S
C3541 C1166 2.056 . S
