# Generated by pormake.
# Topology ibd, (4,6)-cn, num edge types: 1
# Building blocks:
#     Node 0, Type 0, BuildingBlock: NAHDIM_clean_sbu_0, # of connection points: 4
#     Node 1, Type 0, BuildingBlock: NAHDIM_clean_sbu_0, # of connection points: 4
#     Node 2, Type 0, BuildingBlock: NAHDIM_clean_sbu_0, # of connection points: 4
#     Node 3, Type 0, BuildingBlock: NAHDIM_clean_sbu_0, # of connection points: 4
#     Node 4, Type 0, BuildingBlock: NAHDIM_clean_sbu_0, # of connection points: 4
#     Node 5, Type 0, BuildingBlock: NAHDIM_clean_sbu_0, # of connection points: 4
#     Node 6, Type 0, BuildingBlock: NAHDIM_clean_sbu_0, # of connection points: 4
#     Node 7, Type 0, BuildingBlock: NAHDIM_clean_sbu_0, # of connection points: 4
#     Node 8, Type 0, BuildingBlock: NAHDIM_clean_sbu_0, # of connection points: 4
#     Node 9, Type 0, BuildingBlock: NAHDIM_clean_sbu_0, # of connection points: 4
#     Node 10, Type 0, BuildingBlock: NAHDIM_clean_sbu_0, # of connection points: 4
#     Node 11, Type 0, BuildingBlock: NAHDIM_clean_sbu_0, # of connection points: 4
#     Node 12, Type 0, BuildingBlock: NAHDIM_clean_sbu_0, # of connection points: 4
#     Node 13, Type 0, BuildingBlock: NAHDIM_clean_sbu_0, # of connection points: 4
#     Node 14, Type 0, BuildingBlock: NAHDIM_clean_sbu_0, # of connection points: 4
#     Node 15, Type 0, BuildingBlock: NAHDIM_clean_sbu_0, # of connection points: 4
#     Node 16, Type 0, BuildingBlock: NAHDIM_clean_sbu_0, # of connection points: 4
#     Node 17, Type 0, BuildingBlock: NAHDIM_clean_sbu_0, # of connection points: 4
#     Node 18, Type 0, BuildingBlock: NAHDIM_clean_sbu_0, # of connection points: 4
#     Node 19, Type 0, BuildingBlock: NAHDIM_clean_sbu_0, # of connection points: 4
#     Node 20, Type 0, BuildingBlock: NAHDIM_clean_sbu_0, # of connection points: 4
#     Node 21, Type 0, BuildingBlock: NAHDIM_clean_sbu_0, # of connection points: 4
#     Node 22, Type 0, BuildingBlock: NAHDIM_clean_sbu_0, # of connection points: 4
#     Node 23, Type 0, BuildingBlock: NAHDIM_clean_sbu_0, # of connection points: 4
#     Node 24, Type 1, BuildingBlock: OJICUG_clean_sbu_0, # of connection points: 6
#     Node 25, Type 1, BuildingBlock: OJICUG_clean_sbu_0, # of connection points: 6
#     Node 26, Type 1, BuildingBlock: OJICUG_clean_sbu_0, # of connection points: 6
#     Node 27, Type 1, BuildingBlock: OJICUG_clean_sbu_0, # of connection points: 6
#     Node 28, Type 1, BuildingBlock: OJICUG_clean_sbu_0, # of connection points: 6
#     Node 29, Type 1, BuildingBlock: OJICUG_clean_sbu_0, # of connection points: 6
#     Node 30, Type 1, BuildingBlock: OJICUG_clean_sbu_0, # of connection points: 6
#     Node 31, Type 1, BuildingBlock: OJICUG_clean_sbu_0, # of connection points: 6
#     Node 32, Type 1, BuildingBlock: OJICUG_clean_sbu_0, # of connection points: 6
#     Node 33, Type 1, BuildingBlock: OJICUG_clean_sbu_0, # of connection points: 6
#     Node 34, Type 1, BuildingBlock: OJICUG_clean_sbu_0, # of connection points: 6
#     Node 35, Type 1, BuildingBlock: OJICUG_clean_sbu_0, # of connection points: 6
#     Node 36, Type 1, BuildingBlock: OJICUG_clean_sbu_0, # of connection points: 6
#     Node 37, Type 1, BuildingBlock: OJICUG_clean_sbu_0, # of connection points: 6
#     Node 38, Type 1, BuildingBlock: OJICUG_clean_sbu_0, # of connection points: 6
#     Node 39, Type 1, BuildingBlock: OJICUG_clean_sbu_0, # of connection points: 6
#     Edge 40, Type (0, 1), BuildingBlock: CIFDUS_clean_linker_0, # of connection points: 2
#     Edge 41, Type (0, 1), BuildingBlock: CIFDUS_clean_linker_0, # of connection points: 2
#     Edge 42, Type (0, 1), BuildingBlock: CIFDUS_clean_linker_0, # of connection points: 2
#     Edge 43, Type (0, 1), BuildingBlock: CIFDUS_clean_linker_0, # of connection points: 2
#     Edge 44, Type (0, 1), BuildingBlock: CIFDUS_clean_linker_0, # of connection points: 2
#     Edge 45, Type (0, 1), BuildingBlock: CIFDUS_clean_linker_0, # of connection points: 2
#     Edge 46, Type (0, 1), BuildingBlock: CIFDUS_clean_linker_0, # of connection points: 2
#     Edge 47, Type (0, 1), BuildingBlock: CIFDUS_clean_linker_0, # of connection points: 2
#     Edge 48, Type (0, 1), BuildingBlock: CIFDUS_clean_linker_0, # of connection points: 2
#     Edge 49, Type (0, 1), BuildingBlock: CIFDUS_clean_linker_0, # of connection points: 2
#     Edge 50, Type (0, 1), BuildingBlock: CIFDUS_clean_linker_0, # of connection points: 2
#     Edge 51, Type (0, 1), BuildingBlock: CIFDUS_clean_linker_0, # of connection points: 2
#     Edge 52, Type (0, 1), BuildingBlock: CIFDUS_clean_linker_0, # of connection points: 2
#     Edge 53, Type (0, 1), BuildingBlock: CIFDUS_clean_linker_0, # of connection points: 2
#     Edge 54, Type (0, 1), BuildingBlock: CIFDUS_clean_linker_0, # of connection points: 2
#     Edge 55, Type (0, 1), BuildingBlock: CIFDUS_clean_linker_0, # of connection points: 2
#     Edge 56, Type (0, 1), BuildingBlock: CIFDUS_clean_linker_0, # of connection points: 2
#     Edge 57, Type (0, 1), BuildingBlock: CIFDUS_clean_linker_0, # of connection points: 2
#     Edge 58, Type (0, 1), BuildingBlock: CIFDUS_clean_linker_0, # of connection points: 2
#     Edge 59, Type (0, 1), BuildingBlock: CIFDUS_clean_linker_0, # of connection points: 2
#     Edge 60, Type (0, 1), BuildingBlock: CIFDUS_clean_linker_0, # of connection points: 2
#     Edge 61, Type (0, 1), BuildingBlock: CIFDUS_clean_linker_0, # of connection points: 2
#     Edge 62, Type (0, 1), BuildingBlock: CIFDUS_clean_linker_0, # of connection points: 2
#     Edge 63, Type (0, 1), BuildingBlock: CIFDUS_clean_linker_0, # of connection points: 2
#     Edge 64, Type (0, 1), BuildingBlock: CIFDUS_clean_linker_0, # of connection points: 2
#     Edge 65, Type (0, 1), BuildingBlock: CIFDUS_clean_linker_0, # of connection points: 2
#     Edge 66, Type (0, 1), BuildingBlock: CIFDUS_clean_linker_0, # of connection points: 2
#     Edge 67, Type (0, 1), BuildingBlock: CIFDUS_clean_linker_0, # of connection points: 2
#     Edge 68, Type (0, 1), BuildingBlock: CIFDUS_clean_linker_0, # of connection points: 2
#     Edge 69, Type (0, 1), BuildingBlock: CIFDUS_clean_linker_0, # of connection points: 2
#     Edge 70, Type (0, 1), BuildingBlock: CIFDUS_clean_linker_0, # of connection points: 2
#     Edge 71, Type (0, 1), BuildingBlock: CIFDUS_clean_linker_0, # of connection points: 2
#     Edge 72, Type (0, 1), BuildingBlock: CIFDUS_clean_linker_0, # of connection points: 2
#     Edge 73, Type (0, 1), BuildingBlock: CIFDUS_clean_linker_0, # of connection points: 2
#     Edge 74, Type (0, 1), BuildingBlock: CIFDUS_clean_linker_0, # of connection points: 2
#     Edge 75, Type (0, 1), BuildingBlock: CIFDUS_clean_linker_0, # of connection points: 2
#     Edge 76, Type (0, 1), BuildingBlock: CIFDUS_clean_linker_0, # of connection points: 2
#     Edge 77, Type (0, 1), BuildingBlock: CIFDUS_clean_linker_0, # of connection points: 2
#     Edge 78, Type (0, 1), BuildingBlock: CIFDUS_clean_linker_0, # of connection points: 2
#     Edge 79, Type (0, 1), BuildingBlock: CIFDUS_clean_linker_0, # of connection points: 2
#     Edge 80, Type (0, 1), BuildingBlock: CIFDUS_clean_linker_0, # of connection points: 2
#     Edge 81, Type (0, 1), BuildingBlock: CIFDUS_clean_linker_0, # of connection points: 2
#     Edge 82, Type (0, 1), BuildingBlock: CIFDUS_clean_linker_0, # of connection points: 2
#     Edge 83, Type (0, 1), BuildingBlock: CIFDUS_clean_linker_0, # of connection points: 2
#     Edge 84, Type (0, 1), BuildingBlock: CIFDUS_clean_linker_0, # of connection points: 2
#     Edge 85, Type (0, 1), BuildingBlock: CIFDUS_clean_linker_0, # of connection points: 2
#     Edge 86, Type (0, 1), BuildingBlock: CIFDUS_clean_linker_0, # of connection points: 2
#     Edge 87, Type (0, 1), BuildingBlock: CIFDUS_clean_linker_0, # of connection points: 2
#     Edge 88, Type (0, 1), BuildingBlock: CIFDUS_clean_linker_0, # of connection points: 2
#     Edge 89, Type (0, 1), BuildingBlock: CIFDUS_clean_linker_0, # of connection points: 2
#     Edge 90, Type (0, 1), BuildingBlock: CIFDUS_clean_linker_0, # of connection points: 2
#     Edge 91, Type (0, 1), BuildingBlock: CIFDUS_clean_linker_0, # of connection points: 2
#     Edge 92, Type (0, 1), BuildingBlock: CIFDUS_clean_linker_0, # of connection points: 2
#     Edge 93, Type (0, 1), BuildingBlock: CIFDUS_clean_linker_0, # of connection points: 2
#     Edge 94, Type (0, 1), BuildingBlock: CIFDUS_clean_linker_0, # of connection points: 2
#     Edge 95, Type (0, 1), BuildingBlock: CIFDUS_clean_linker_0, # of connection points: 2
#     Edge 96, Type (0, 1), BuildingBlock: CIFDUS_clean_linker_0, # of connection points: 2
#     Edge 97, Type (0, 1), BuildingBlock: CIFDUS_clean_linker_0, # of connection points: 2
#     Edge 98, Type (0, 1), BuildingBlock: CIFDUS_clean_linker_0, # of connection points: 2
#     Edge 99, Type (0, 1), BuildingBlock: CIFDUS_clean_linker_0, # of connection points: 2
#     Edge 100, Type (0, 1), BuildingBlock: CIFDUS_clean_linker_0, # of connection points: 2
#     Edge 101, Type (0, 1), BuildingBlock: CIFDUS_clean_linker_0, # of connection points: 2
#     Edge 102, Type (0, 1), BuildingBlock: CIFDUS_clean_linker_0, # of connection points: 2
#     Edge 103, Type (0, 1), BuildingBlock: CIFDUS_clean_linker_0, # of connection points: 2
#     Edge 104, Type (0, 1), BuildingBlock: CIFDUS_clean_linker_0, # of connection points: 2
#     Edge 105, Type (0, 1), BuildingBlock: CIFDUS_clean_linker_0, # of connection points: 2
#     Edge 106, Type (0, 1), BuildingBlock: CIFDUS_clean_linker_0, # of connection points: 2
#     Edge 107, Type (0, 1), BuildingBlock: CIFDUS_clean_linker_0, # of connection points: 2
#     Edge 108, Type (0, 1), BuildingBlock: CIFDUS_clean_linker_0, # of connection points: 2
#     Edge 109, Type (0, 1), BuildingBlock: CIFDUS_clean_linker_0, # of connection points: 2
#     Edge 110, Type (0, 1), BuildingBlock: CIFDUS_clean_linker_0, # of connection points: 2
#     Edge 111, Type (0, 1), BuildingBlock: CIFDUS_clean_linker_0, # of connection points: 2
#     Edge 112, Type (0, 1), BuildingBlock: CIFDUS_clean_linker_0, # of connection points: 2
#     Edge 113, Type (0, 1), BuildingBlock: CIFDUS_clean_linker_0, # of connection points: 2
#     Edge 114, Type (0, 1), BuildingBlock: CIFDUS_clean_linker_0, # of connection points: 2
#     Edge 115, Type (0, 1), BuildingBlock: CIFDUS_clean_linker_0, # of connection points: 2
#     Edge 116, Type (0, 1), BuildingBlock: CIFDUS_clean_linker_0, # of connection points: 2
#     Edge 117, Type (0, 1), BuildingBlock: CIFDUS_clean_linker_0, # of connection points: 2
#     Edge 118, Type (0, 1), BuildingBlock: CIFDUS_clean_linker_0, # of connection points: 2
#     Edge 119, Type (0, 1), BuildingBlock: CIFDUS_clean_linker_0, # of connection points: 2
#     Edge 120, Type (0, 1), BuildingBlock: CIFDUS_clean_linker_0, # of connection points: 2
#     Edge 121, Type (0, 1), BuildingBlock: CIFDUS_clean_linker_0, # of connection points: 2
#     Edge 122, Type (0, 1), BuildingBlock: CIFDUS_clean_linker_0, # of connection points: 2
#     Edge 123, Type (0, 1), BuildingBlock: CIFDUS_clean_linker_0, # of connection points: 2
#     Edge 124, Type (0, 1), BuildingBlock: CIFDUS_clean_linker_0, # of connection points: 2
#     Edge 125, Type (0, 1), BuildingBlock: CIFDUS_clean_linker_0, # of connection points: 2
#     Edge 126, Type (0, 1), BuildingBlock: CIFDUS_clean_linker_0, # of connection points: 2
#     Edge 127, Type (0, 1), BuildingBlock: CIFDUS_clean_linker_0, # of connection points: 2
#     Edge 128, Type (0, 1), BuildingBlock: CIFDUS_clean_linker_0, # of connection points: 2
#     Edge 129, Type (0, 1), BuildingBlock: CIFDUS_clean_linker_0, # of connection points: 2
#     Edge 130, Type (0, 1), BuildingBlock: CIFDUS_clean_linker_0, # of connection points: 2
#     Edge 131, Type (0, 1), BuildingBlock: CIFDUS_clean_linker_0, # of connection points: 2
#     Edge 132, Type (0, 1), BuildingBlock: CIFDUS_clean_linker_0, # of connection points: 2
#     Edge 133, Type (0, 1), BuildingBlock: CIFDUS_clean_linker_0, # of connection points: 2
#     Edge 134, Type (0, 1), BuildingBlock: CIFDUS_clean_linker_0, # of connection points: 2
#     Edge 135, Type (0, 1), BuildingBlock: CIFDUS_clean_linker_0, # of connection points: 2
# Relax obj value: 0.382
# Max RMSD: 0.298
# Mean RMSD: 0.288
data_MOF--net-ibd--node1-NAHDIM_clean_sbu_0--node2-OJICUG_clean_sbu_0--edge1-CIFDUS_clean_linker_0
_symmetry_space_group_name_H-M    P1
_symmetry_Int_Tables_number       1
_symmetry_cell_setting            triclinic
loop_
_symmetry_equiv_pos_as_xyz
'x, y, z'
_cell_length_a     42.779403
_cell_length_b     42.786656
_cell_length_c     42.785759
_cell_angle_alpha  91.129534
_cell_angle_beta   91.091361
_cell_angle_gamma 91.713998
loop_
_atom_site_label
_atom_site_type_symbol
_atom_site_fract_x
_atom_site_fract_y
_atom_site_fract_z
_atom_type_partial_charge
C0 C 0.08044 0.28276 0.35344 0.0
O1 O 0.07149 0.31043 0.34478 0.0
O2 O 0.02574 0.31238 0.41934 0.0
Zn3 Zn 0.021 0.28206 0.38338 0.0
O4 O 1e-05 0.29814 0.34539 0.0
C5 C 0.96731 0.23952 0.39212 0.0
O6 O 0.95218 0.2578 0.37316 0.0
O7 O 0.06292 0.26676 0.37111 0.0
C8 C 0.98196 0.32093 0.34257 0.0
O9 O 0.97581 0.33851 0.36707 0.0
C10 C 0.04163 0.33792 0.42111 0.0
O11 O 0.05497 0.34879 0.396 0.0
O12 O -0.00397 0.24544 0.39861 0.0
C13 C 0.003 0.76933 0.64072 0.0
O14 O 0.00777 0.76726 0.61051 0.0
O15 O 0.92827 0.76487 0.59231 0.0
Zn16 Zn 0.94561 0.79841 0.62207 0.0
O17 O 0.91512 0.8191 0.64993 0.0
C18 C 0.95526 0.84296 0.57377 0.0
O19 O 0.92483 0.83943 0.56965 0.0
O20 O 0.97785 0.78076 0.65047 0.0
C21 C 0.90515 0.80269 0.67227 0.0
O22 O 0.90992 0.77249 0.67148 0.0
C23 C 0.9005 0.76154 0.58146 0.0
O24 O 0.87877 0.77993 0.59184 0.0
O25 O 0.96841 0.8294 0.59634 0.0
C26 C 0.53342 0.73131 0.87577 0.0
O27 O 0.52764 0.71829 0.90269 0.0
O28 O 0.49752 0.796 0.92359 0.0
Zn29 Zn 0.47941 0.76848 0.88923 0.0
O30 O 0.45282 0.79158 0.85877 0.0
C31 C 0.427 0.73347 0.915 0.0
O32 O 0.41128 0.75829 0.90765 0.0
O33 O 0.51556 0.75218 0.86562 0.0
C34 C 0.4372 0.77468 0.83895 0.0
O35 O 0.43783 0.74412 0.84119 0.0
C36 C 0.52192 0.81294 0.91934 0.0
O37 O 0.53309 0.81505 0.89104 0.0
O38 O 0.45586 0.73263 0.90869 0.0
C39 C 0.58348 0.27976 0.17182 0.0
O40 O 0.58523 0.27133 0.14223 0.0
O41 O 0.52618 0.29385 0.11664 0.0
Zn42 Zn 0.54216 0.32611 0.14815 0.0
O43 O 0.50664 0.34513 0.17105 0.0
C44 C 0.55121 0.3805 0.1128 0.0
O45 O 0.52136 0.38282 0.11886 0.0
O46 O 0.56842 0.30391 0.17919 0.0
C47 C 0.47775 0.33964 0.16512 0.0
O48 O 0.46904 0.32087 0.14172 0.0
C49 C 0.51134 0.26891 0.12385 0.0
O50 O 0.50467 0.26387 0.15321 0.0
O51 O 0.56637 0.35876 0.12528 0.0
C52 C 0.0466 0.65328 0.07498 0.0
O53 O 0.06476 0.66221 0.09881 0.0
O54 O 0.03228 0.71017 0.13487 0.0
Zn55 Zn 0.00281 0.6979 0.09975 0.0
O56 O -0.0028 0.73542 0.07299 0.0
C57 C 0.95558 0.65582 0.12375 0.0
O58 O 0.97286 0.63414 0.11133 0.0
O59 O 0.01943 0.66421 0.07242 0.0
C60 C 0.98935 0.76218 0.08298 0.0
O61 O 0.98261 0.76613 0.1126 0.0
C62 C 0.05437 0.73042 0.13252 0.0
O63 O 0.0603 0.74224 0.10507 0.0
O64 O 0.96287 0.68442 0.11959 0.0
C65 C 0.5892 0.6698 0.4119 0.0
O66 O 0.60842 0.67372 0.38862 0.0
O67 O 0.52765 0.68879 0.34097 0.0
Zn68 Zn 0.54945 0.71052 0.37716 0.0
O69 O 0.52212 0.74217 0.39748 0.0
C70 C 0.59947 0.75792 0.36819 0.0
O71 O 0.58704 0.7738 0.39117 0.0
O72 O 0.56229 0.68147 0.41038 0.0
C73 C 0.49276 0.74414 0.3931 0.0
O74 O 0.47834 0.72556 0.37232 0.0
C75 C 0.50803 0.66595 0.34082 0.0
O76 O 0.49957 0.65363 0.36736 0.0
O77 O 0.58751 0.73148 0.35984 0.0
C78 C 0.49313 0.16181 0.62386 0.0
O79 O 0.5068 0.16778 0.65117 0.0
O80 O 0.47167 0.22419 0.67605 0.0
Zn81 Zn 0.44402 0.20453 0.64234 0.0
O82 O 0.43002 0.23742 0.61308 0.0
C83 C 0.38827 0.19517 0.67686 0.0
O84 O 0.38526 0.22518 0.67218 0.0
O85 O 0.46754 0.17452 0.61698 0.0
C86 C 0.42379 0.26552 0.62003 0.0
O87 O 0.42392 0.27504 0.6494 0.0
C88 C 0.49355 0.24391 0.67052 0.0
O89 O 0.49896 0.25159 0.64149 0.0
O90 O 0.4095 0.18092 0.66268 0.0
C91 C -0.00251 0.14641 0.939 0.0
O92 O 0.97271 0.16384 0.93937 0.0
O93 O 0.97514 0.1762 0.85742 0.0
Zn94 Zn 0.01066 0.18442 0.88775 0.0
O95 O 0.00447 0.2227 0.91449 0.0
C96 C 0.07347 0.20613 0.87416 0.0
O97 O 0.07373 0.21621 0.90337 0.0
O98 O 0.01646 0.14923 0.91671 0.0
C99 C 0.98889 0.24647 0.90755 0.0
O100 O 0.97441 0.24736 0.88024 0.0
C101 C 0.96135 0.14965 0.85363 0.0
O102 O 0.96875 0.12672 0.87208 0.0
O103 O 0.04942 0.19128 0.86314 0.0
C104 C 0.39793 0.91859 0.19498 0.0
O105 O 0.37656 0.89836 0.20432 0.0
O106 O 0.33016 0.93403 0.23949 0.0
Zn107 Zn 0.36384 0.96563 0.22972 0.0
O108 O 0.38822 0.97877 0.26847 0.0
C109 C 0.359 0.03071 0.21295 0.0
O110 O 0.38599 0.03438 0.22786 0.0
O111 O 0.39524 0.94747 0.20146 0.0
C112 C 0.38102 -0.0002 0.28821 0.0
O113 O 0.35388 0.01317 0.28552 0.0
C114 C 0.33318 0.91517 0.26185 0.0
O115 O 0.35902 0.9163 0.27899 0.0
O116 O 0.34574 0.00373 0.21045 0.0
C117 C 0.31514 0.0727 0.464 0.0
O118 O 0.30634 0.06372 0.43554 0.0
O119 O 0.27846 0.1491 0.42626 0.0
Zn120 Zn 0.26567 0.11731 0.45759 0.0
O121 O 0.23501 0.08531 0.43965 0.0
C122 C 0.26443 0.16196 0.5054 0.0
O123 O 0.29314 0.16552 0.49537 0.0
O124 O 0.30208 0.09578 0.47676 0.0
C125 C 0.23097 0.07974 0.41056 0.0
O126 O 0.24698 0.09623 0.39044 0.0
C127 C 0.25769 0.16829 0.41853 0.0
O128 O 0.2291 0.16388 0.42861 0.0
O129 O 0.24646 0.14109 0.49255 0.0
C130 C 0.19902 0.97611 0.7269 0.0
O131 O 0.20395 0.98573 0.75597 0.0
O132 O 0.12284 0.01674 0.75573 0.0
Zn133 Zn 0.15745 0.02771 0.72672 0.0
O134 O 0.18922 0.05637 0.74917 0.0
C135 C 0.1296 0.07544 0.68785 0.0
O136 O 0.14184 0.09591 0.70823 0.0
O137 O 0.17909 0.98991 0.71016 0.0
C138 C 0.184 0.07113 0.77459 0.0
O139 O 0.15562 0.07071 0.78577 0.0
C140 C 0.12441 0.00597 0.78313 0.0
O141 O 0.15161 -0.00126 0.79528 0.0
O142 O 0.13557 0.04676 0.69051 0.0
C143 C 0.31499 0.84221 0.10304 0.0
O144 O 0.33633 0.8603 0.09025 0.0
O145 O 0.30508 0.90787 0.05392 0.0
Zn146 Zn 0.27116 0.87733 0.06586 0.0
O147 O 0.25728 0.85302 0.02676 0.0
C148 C 0.22449 0.92208 0.06464 0.0
O149 O 0.23435 0.9232 0.03576 0.0
O150 O 0.28625 0.84657 0.09706 0.0
C151 C 0.22936 0.84871 0.01654 0.0
O152 O 0.20616 0.86017 0.03234 0.0
C153 C 0.32286 0.9028 0.03104 0.0
O154 O 0.32084 0.87559 0.01624 0.0
O155 O 0.23649 0.90273 0.08316 0.0
C156 C 0.19079 0.41895 0.88098 0.0
O157 O 0.22043 0.41175 0.88193 0.0
O158 O 0.22342 0.3485 0.90852 0.0
Zn159 Zn 0.19632 0.37984 0.92972 0.0
O160 O 0.22357 0.41169 0.95357 0.0
C161 C 0.19008 0.34044 0.9785 0.0
O162 O 0.22031 0.34462 0.97469 0.0
O163 O 0.17202 0.40465 0.89885 0.0
C164 C 0.21771 0.42098 0.98116 0.0
O165 O 0.19299 0.40965 0.99529 0.0
C166 C 0.2531 0.35056 0.91055 0.0
O167 O 0.26655 0.3762 0.92251 0.0
O168 O 0.17138 0.35491 0.96078 0.0
C169 C 0.67218 0.16853 0.97148 0.0
O170 O 0.65562 0.15271 0.99169 0.0
O171 O 0.76302 0.12393 0.991 0.0
Zn172 Zn 0.72478 0.14492 0.00653 0.0
O173 O 0.73938 0.17687 0.03862 0.0
C174 C 0.68462 0.11513 0.05198 0.0
O175 O 0.68749 0.14187 0.06754 0.0
O176 O 0.70185 0.16723 0.97259 0.0
C177 C 0.76352 0.17285 0.05566 0.0
O178 O 0.77801 0.14627 0.05362 0.0
C179 C 0.7838 0.13586 0.97367 0.0
O180 O 0.78007 0.16379 0.96221 0.0
O181 O 0.69767 0.11213 0.02573 0.0
C182 C 0.06467 0.52209 0.32013 0.0
O183 O 0.06587 0.49355 0.30844 0.0
O184 O 0.15052 0.50229 0.30338 0.0
Zn185 Zn 0.11863 0.52894 0.28322 0.0
O186 O 0.09838 0.5071 0.24576 0.0
C187 C 0.13816 0.57873 0.24228 0.0
O188 O 0.11201 0.57171 0.22675 0.0
O189 O 0.08579 0.54209 0.31311 0.0
C190 C 0.10898 0.48353 0.23137 0.0
O191 O 0.13473 0.47085 0.24155 0.0
C192 C 0.14863 0.47566 0.31589 0.0
O193 O 0.12142 0.46089 0.3178 0.0
O194 O 0.14354 0.56551 0.26806 0.0
C195 C 0.65231 0.88736 0.43114 0.0
O196 O 0.65803 0.86211 0.41454 0.0
O197 O 0.71848 0.84506 0.42889 0.0
Zn198 Zn 0.71129 0.8759 0.46307 0.0
O199 O 0.74533 0.90931 0.46539 0.0
C200 C 0.69578 0.86431 0.52763 0.0
O201 O 0.68002 0.89009 0.52547 0.0
O202 O 0.6708 0.89604 0.45351 0.0
C203 C 0.77074 0.90559 0.48055 0.0
O204 O 0.77557 0.8786 0.49368 0.0
C205 C 0.72807 0.85207 0.40194 0.0
O206 O 0.73665 0.88102 0.39595 0.0
O207 O 0.7101 0.85405 0.50399 0.0
C208 C 0.84236 0.06593 0.33658 0.0
O209 O 0.86262 0.05614 0.35739 0.0
O210 O 0.89886 0.00532 0.32341 0.0
Zn211 Zn 0.87991 0.03261 0.29108 0.0
O212 O 0.86043 0.00427 0.25801 0.0
C213 C 0.93839 0.03947 0.26563 0.0
O214 O 0.9347 0.00902 0.2681 0.0
O215 O 0.84626 0.05959 0.30782 0.0
C216 C 0.86156 0.00709 0.22855 0.0
O217 O 0.87684 0.03107 0.2168 0.0
C218 C 0.89137 0.97651 0.32585 0.0
O219 O 0.86566 0.96541 0.31188 0.0
O220 O 0.91608 0.05683 0.27341 0.0
C221 C 0.20515 0.63661 0.48918 0.0
O222 O 0.23476 0.62943 0.48941 0.0
O223 O 0.24107 0.58052 0.54028 0.0
Zn224 Zn 0.20765 0.61099 0.55113 0.0
O225 O 0.22571 0.64674 0.57724 0.0
C226 C 0.17705 0.58039 0.60223 0.0
O227 O 0.19892 0.59507 0.61932 0.0
O228 O 0.18854 0.62958 0.51248 0.0
C229 C 0.24959 0.64572 0.59526 0.0
O230 O 0.26279 0.61885 0.60002 0.0
C231 C 0.26982 0.58593 0.53475 0.0
O232 O 0.28099 0.61486 0.53473 0.0
O233 O 0.17498 0.586 0.57325 0.0
C234 C 0.36009 0.60567 0.75234 0.0
O235 O 0.38849 0.60707 0.76461 0.0
O236 O 0.39821 0.5332 0.77468 0.0
Zn237 Zn 0.37428 0.54155 0.73529 0.0
O238 O 0.34531 0.50464 0.72749 0.0
C239 C 0.40966 0.57021 0.68584 0.0
O240 O 0.38619 0.58921 0.68375 0.0
O241 O 0.34976 0.58039 0.73931 0.0
C242 C 0.35326 0.47779 0.71791 0.0
O243 O 0.38203 0.47347 0.70895 0.0
C244 C 0.38973 0.51315 0.79459 0.0
O245 O 0.36148 0.50033 0.79233 0.0
O246 O 0.40734 0.54669 0.70337 0.0
C247 C 0.6096 0.06674 0.80434 0.0
O248 O 0.63275 0.08416 0.79379 0.0
O249 O 0.66436 0.99395 0.77977 0.0
Zn250 Zn 0.63129 0.01958 0.76023 0.0
O251 O 0.60494 0.99288 0.73032 0.0
C252 C 0.65166 0.05615 0.70711 0.0
O253 O 0.62695 0.0438 0.69231 0.0
O254 O 0.6048 0.03923 0.79316 0.0
C255 C 0.60977 0.96416 0.72469 0.0
O256 O 0.63235 0.95031 0.73973 0.0
C257 C 0.67003 0.99189 0.80885 0.0
O258 O 0.65174 0.00562 0.82888 0.0
O259 O 0.6557 0.05111 0.73604 0.0
C260 C 0.80719 0.59211 0.96024 0.0
O261 O 0.79271 0.58967 0.9329 0.0
O262 O 0.79129 0.67755 0.93454 0.0
Zn263 Zn 0.77277 0.64815 0.96476 0.0
O264 O 0.73483 0.62667 0.94551 0.0
C265 C 0.75888 0.66867 0.03005 0.0
O266 O 0.75767 0.63937 0.03864 0.0
O267 O 0.80282 0.61588 0.97768 0.0
C268 C 0.71071 0.61881 0.96062 0.0
O269 O 0.70898 0.62706 0.99024 0.0
C270 C 0.81954 0.67832 0.92608 0.0
O271 O 0.83791 0.65563 0.93404 0.0
O272 O 0.76352 0.6754 0.0017 0.0
C273 C 0.91228 0.42533 0.70789 0.0
O274 O 0.88592 0.41085 0.71487 0.0
O275 O 0.85971 0.44692 0.76499 0.0
Zn276 Zn 0.89232 0.47575 0.74829 0.0
O277 O 0.92458 0.48967 0.78035 0.0
C278 C 0.88069 0.53601 0.71736 0.0
O279 O 0.90852 0.53484 0.70503 0.0
O280 O 0.91675 0.45393 0.71576 0.0
C281 C 0.92279 0.51499 0.79607 0.0
O282 O 0.89665 0.53033 0.79505 0.0
C283 C 0.86118 0.43054 0.78933 0.0
O284 O 0.88683 0.43146 0.80675 0.0
O285 O 0.87054 0.51368 0.73384 0.0
C286 C 0.79647 0.35928 0.56691 0.0
O287 O 0.81273 0.38449 0.55949 0.0
O288 O 0.76628 0.41487 0.5077 0.0
Zn289 Zn 0.74177 0.38341 0.53206 0.0
O290 O 0.71702 0.35476 0.50284 0.0
C291 C 0.69473 0.42524 0.54387 0.0
O292 O 0.69268 0.42261 0.51323 0.0
O293 O 0.76792 0.35631 0.55853 0.0
C294 C 0.73204 0.33282 0.49028 0.0
O295 O 0.76219 0.33127 0.49616 0.0
C296 C 0.78913 0.41165 0.48953 0.0
O297 O 0.80113 0.38402 0.48538 0.0
O298 O 0.7135 0.40806 0.55848 0.0
C299 C 0.6486 0.40541 0.1808 0.0
O300 O 0.62362 0.40175 0.16264 0.0
O301 O 0.59279 0.4387 0.25915 0.0
Zn302 Zn 0.61199 0.44871 0.21805 0.0
O303 O 0.63264 0.49098 0.22449 0.0
C304 C 0.58385 0.46276 0.15835 0.0
O305 O 0.61237 0.4727 0.1521 0.0
O306 O 0.64698 0.42124 0.20612 0.0
C307 C 0.62229 0.5118 0.24283 0.0
O308 O 0.59499 0.50707 0.25576 0.0
C309 C 0.60307 0.42171 0.28083 0.0
O310 O 0.62833 0.40554 0.27665 0.0
O311 O 0.57864 0.45061 0.18468 0.0
Sc312 Sc 0.1137 0.1838 0.15545 0.0
Sc313 Sc 0.15872 0.12787 0.19194 0.0
Sc314 Sc 0.16012 0.13518 0.11147 0.0
O315 O 0.1443 0.1491 0.15295 0.0
C316 C 0.08804 0.14721 0.0962 0.0
C317 C 0.08747 0.13417 0.20406 0.0
C318 C 0.15399 0.07066 0.14231 0.0
C319 C 0.15383 0.19936 0.215 0.0
C320 C 0.16009 0.20733 0.10242 0.0
C321 C 0.22092 0.13064 0.15643 0.0
O322 O 0.08248 0.16093 0.12198 0.0
O323 O 0.11109 0.11679 0.20321 0.0
O324 O 0.14651 0.08764 0.11954 0.0
O325 O 0.14287 0.20886 0.18921 0.0
O326 O 0.17469 0.18195 0.10054 0.0
O327 O 0.20711 0.13736 0.18171 0.0
O328 O 0.13584 0.21046 0.11888 0.0
O329 O 0.15764 0.17048 0.2202 0.0
O330 O 0.20632 0.12713 0.1303 0.0
O331 O 0.08721 0.16105 0.19174 0.0
O332 O 0.11548 0.14016 0.08816 0.0
O333 O 0.16182 0.08223 0.16909 0.0
Sc334 Sc 0.14226 0.84469 0.40426 0.0
Sc335 Sc 0.07051 0.81622 0.37212 0.0
Sc336 Sc 0.11749 0.8686 0.33041 0.0
O337 O 0.11018 0.843 0.36887 0.0
C338 C 0.14312 0.91522 0.38526 0.0
C339 C 0.07756 0.84442 0.44051 0.0
C340 C 0.04583 0.87896 0.34218 0.0
C341 C 0.12284 0.77301 0.40203 0.0
C342 C 0.18542 0.84611 0.34353 0.0
C343 C 0.08684 0.80487 0.30142 0.0
O344 O 0.14329 0.89472 0.40631 0.0
O345 O 0.06092 0.83581 0.41689 0.0
O346 O 0.07269 0.8889 0.33414 0.0
O347 O 0.14366 0.79474 0.40493 0.0
O348 O 0.16313 0.85088 0.32436 0.0
O349 O 0.07663 0.79472 0.32711 0.0
O350 O 0.18161 0.84508 0.37296 0.0
O351 O 0.0949 0.77764 0.39276 0.0
O352 O 0.09981 0.83183 0.29898 0.0
O353 O 0.10732 0.84568 0.44034 0.0
O354 O 0.13666 0.90868 0.35668 0.0
O355 O 0.04096 0.85184 0.35315 0.0
Sc356 Sc 0.42564 0.83576 0.61296 0.0
Sc357 Sc 0.36142 0.85963 0.56935 0.0
Sc358 Sc 0.39618 0.90935 0.62669 0.0
O359 O 0.39441 0.8684 0.60281 0.0
C360 C 0.40875 0.85892 0.67961 0.0
C361 C 0.36354 0.7941 0.60005 0.0
C362 C 0.32379 0.89494 0.62294 0.0
C363 C 0.42402 0.83214 0.54018 0.0
C364 C 0.46707 0.89926 0.6219 0.0
C365 C 0.3787 0.92993 0.5567 0.0
O366 O 0.41183 0.83624 0.66045 0.0
O367 O 0.34765 0.81649 0.59005 0.0
O368 O 0.3482 0.90412 0.63816 0.0
O369 O 0.44 0.83426 0.56553 0.0
O370 O 0.4445 0.91719 0.61702 0.0
O371 O 0.3725 0.90233 0.54653 0.0
O372 O 0.46315 0.86976 0.62396 0.0
O373 O 0.39465 0.83683 0.53878 0.0
O374 O 0.38493 0.93628 0.58546 0.0
O375 O 0.39295 0.79657 0.60488 0.0
O376 O 0.40733 0.8873 0.67109 0.0
O377 O 0.32457 0.88155 0.59606 0.0
Sc378 Sc 0.39114 0.09525 0.89894 0.0
Sc379 Sc 0.42368 0.16809 0.92168 0.0
Sc380 Sc 0.35748 0.13875 0.95926 0.0
O381 O 0.39097 0.13368 0.927 0.0
C382 C 0.31858 0.10828 0.90129 0.0
C383 C 0.40127 0.15233 0.85282 0.0
C384 C 0.3636 0.20748 0.9357 0.0
C385 C 0.46334 0.10752 0.90536 0.0
C386 C 0.37366 0.06722 0.96557 0.0
C387 C 0.42108 0.16506 0.99413 0.0
O388 O 0.3427 0.09813 0.88833 0.0
O389 O 0.40953 0.17214 0.8741 0.0
O390 O 0.34654 0.18412 0.94295 0.0
O391 O 0.44011 0.08846 0.90565 0.0
O392 O 0.365 0.09306 0.97726 0.0
O393 O 0.43749 0.16561 0.96963 0.0
O394 O 0.38269 0.06428 0.93746 0.0
O395 O 0.46047 0.13685 0.90883 0.0
O396 O 0.39176 0.15809 0.99357 0.0
O397 O 0.39808 0.12307 0.8576 0.0
O398 O 0.31942 0.12146 0.92826 0.0
O399 O 0.39288 0.20587 0.93213 0.0
Sc400 Sc 0.64777 0.39777 0.89237 0.0
Sc401 Sc 0.57295 0.37 0.8689 0.0
Sc402 Sc 0.61656 0.42013 0.82029 0.0
O403 O 0.61239 0.3958 0.86037 0.0
C404 C 0.645 0.46803 0.87244 0.0
C405 C 0.58876 0.39731 0.93678 0.0
C406 C 0.54638 0.43227 0.83956 0.0
C407 C 0.62832 0.32592 0.89101 0.0
C408 C 0.68535 0.39718 0.82831 0.0
C409 C 0.58085 0.35718 0.79595 0.0
O410 O 0.64832 0.44764 0.89329 0.0
O411 O 0.56912 0.38824 0.91571 0.0
O412 O 0.57177 0.44003 0.82646 0.0
O413 O 0.64886 0.34796 0.89332 0.0
O414 O 0.66211 0.40287 0.81063 0.0
O415 O 0.57171 0.34931 0.82284 0.0
O416 O 0.68351 0.39665 0.85787 0.0
O417 O 0.59956 0.33034 0.88449 0.0
O418 O 0.59659 0.38232 0.79135 0.0
O419 O 0.61788 0.39963 0.93202 0.0
O420 O 0.63665 0.46131 0.84433 0.0
O421 O 0.5427 0.40699 0.85447 0.0
Sc422 Sc 0.93254 0.36309 0.10948 0.0
Sc423 Sc 0.89707 0.43316 0.13159 0.0
Sc424 Sc 0.8654 0.38751 0.06913 0.0
O425 O 0.89855 0.39467 0.10325 0.0
C426 C 0.92667 0.36325 0.03537 0.0
C427 C 0.96986 0.42862 0.12157 0.0
C428 C 0.87738 0.46049 0.06509 0.0
C429 C 0.91807 0.38136 0.17981 0.0
C430 C 0.87206 0.31915 0.09534 0.0
C431 C 0.82537 0.41251 0.1263 0.0
O432 O 0.94271 0.36061 0.06048 0.0
O433 O 0.94554 0.44463 0.12495 0.0
O434 O 0.87088 0.4341 0.05212 0.0
O435 O 0.92585 0.36175 0.1589 0.0
O436 O 0.85641 0.34059 0.08306 0.0
O437 O 0.84866 0.42452 0.14154 0.0
O438 O 0.9004 0.32311 0.10448 0.0
O439 O 0.90843 0.40833 0.17344 0.0
O440 O 0.82769 0.4004 0.09911 0.0
O441 O 0.96877 0.39915 0.11652 0.0
O442 O 0.89861 0.3723 0.0351 0.0
O443 O 0.88569 0.46352 0.0937 0.0
Sc444 Sc 0.84403 0.59118 0.33186 0.0
Sc445 Sc 0.86863 0.66718 0.35561 0.0
Sc446 Sc 0.79426 0.638 0.37602 0.0
O447 O 0.83569 0.63205 0.35458 0.0
C448 C 0.77213 0.59896 0.31468 0.0
C449 C 0.871 0.64236 0.28522 0.0
C450 C 0.80528 0.70428 0.3465 0.0
C451 C 0.91144 0.6075 0.36096 0.0
C452 C 0.81075 0.56861 0.39423 0.0
C453 C 0.84325 0.6722 0.4244 0.0
O454 O 0.79916 0.58927 0.3088 0.0
O455 O 0.87373 0.66413 0.30585 0.0
O456 O 0.787 0.6818 0.35391 0.0
O457 O 0.89011 0.58807 0.35169 0.0
O458 O 0.79801 0.59455 0.39995 0.0
O459 O 0.86589 0.67342 0.40555 0.0
O460 O 0.82709 0.56374 0.37014 0.0
O461 O 0.90729 0.63674 0.36281 0.0
O462 O 0.81606 0.66164 0.41641 0.0
O463 O 0.86188 0.6146 0.29135 0.0
O464 O 0.76658 0.6157 0.33868 0.0
O465 O 0.83487 0.70265 0.34803 0.0
Sc466 Sc 0.93742 0.89335 0.89726 0.0
Sc467 Sc 0.87774 0.92496 0.94168 0.0
Sc468 Sc 0.90337 0.96307 0.87447 0.0
O469 O 0.90649 0.92735 0.90469 0.0
C470 C 0.97661 0.95516 0.87957 0.0
C471 C 0.94043 0.89663 0.97065 0.0
C472 C 0.89295 -0.00307 0.94134 0.0
C473 C 0.87611 0.85496 0.91684 0.0
C474 C 0.9133 0.90528 0.82804 0.0
C475 C 0.83228 0.95072 0.88868 0.0
O476 O 0.97414 0.92631 0.88598 0.0
O477 O 0.91276 0.90645 0.97268 0.0
O478 O 0.89665 -0.00323 0.91185 0.0
O479 O 0.90401 0.8568 0.90727 0.0
O480 O 0.90776 0.93391 0.83312 0.0
O481 O 0.83799 0.94214 0.91639 0.0
O482 O 0.92294 0.88741 0.84923 0.0
O483 O 0.86208 0.87823 0.92831 0.0
O484 O 0.85361 0.95623 0.86911 0.0
O485 O 0.95436 0.89437 0.94479 0.0
O486 O 0.95316 0.97255 0.87642 0.0
O487 O 0.89056 0.97192 0.95693 0.0
Sc488 Sc 0.84899 0.11725 0.57066 0.0
Sc489 Sc 0.91627 0.1516 0.607 0.0
Sc490 Sc 0.89016 0.07712 0.62889 0.0
O491 O 0.88512 0.11521 0.60201 0.0
C492 C 0.81686 0.08869 0.63088 0.0
C493 C 0.85367 0.18807 0.59394 0.0
C494 C 0.90659 0.13402 0.67708 0.0
C495 C 0.90794 0.14376 0.53348 0.0
C496 C 0.86499 0.04515 0.56463 0.0
C497 C 0.96079 0.09336 0.61603 0.0
O498 O 0.81526 0.10189 0.6045 0.0
O499 O 0.88236 0.18716 0.60166 0.0
O500 O 0.90194 0.10516 0.67016 0.0
O501 O 0.8797 0.13339 0.53418 0.0
O502 O 0.8783 0.04407 0.5914 0.0
O503 O 0.95542 0.12221 0.61363 0.0
O504 O 0.85444 0.07021 0.55373 0.0
O505 O 0.92454 0.15025 0.55787 0.0
O506 O 0.93903 0.07265 0.61834 0.0
O507 O 0.83805 0.16425 0.58373 0.0
O508 O 0.84221 0.07882 0.64254 0.0
O509 O 0.90985 0.15486 0.65653 0.0
Sc510 Sc 0.59448 0.10524 0.34507 0.0
Sc511 Sc 0.62185 0.12295 0.42142 0.0
Sc512 Sc 0.55834 0.16288 0.39077 0.0
O513 O 0.59162 0.13042 0.3856 0.0
C514 C 0.58239 0.17464 0.32196 0.0
C515 C 0.66653 0.1133 0.36303 0.0
C516 C 0.61935 0.19628 0.42269 0.0
C517 C 0.60194 0.05443 0.39836 0.0
C518 C 0.52065 0.10864 0.35294 0.0
C519 C 0.55847 0.13367 0.4576 0.0
O520 O 0.59141 0.14685 0.31701 0.0
O521 O 0.66151 0.11671 0.39201 0.0
O522 O 0.59096 0.19644 0.41318 0.0
O523 O 0.59766 0.06158 0.36982 0.0
O524 O 0.52151 0.13366 0.36942 0.0
O525 O 0.58726 0.12751 0.45689 0.0
O526 O 0.54501 0.09602 0.34277 0.0
O527 O 0.61017 0.07425 0.41965 0.0
O528 O 0.54379 0.14483 0.43456 0.0
O529 O 0.64454 0.11056 0.34274 0.0
O530 O 0.57009 0.18337 0.34734 0.0
O531 O 0.63468 0.17144 0.42509 0.0
Sc532 Sc 0.67733 0.87388 0.10836 0.0
Sc533 Sc 0.62295 0.83367 0.15481 0.0
Sc534 Sc 0.6496 0.90921 0.1768 0.0
O535 O 0.65011 0.87216 0.14662 0.0
C536 C 0.72152 0.90343 0.16317 0.0
C537 C 0.68396 0.80277 0.12751 0.0
C538 C 0.64508 0.85197 0.22351 0.0
C539 C 0.61341 0.84195 0.08159 0.0
C540 C 0.65602 0.94387 0.11163 0.0
C541 C 0.57817 0.89025 0.17109 0.0
O542 O 0.71739 0.89271 0.13533 0.0
O543 O 0.65836 0.80116 0.14207 0.0
O544 O 0.64672 0.88097 0.21786 0.0
O545 O 0.6397 0.85602 0.07783 0.0
O546 O 0.65213 0.94375 0.14094 0.0
O547 O 0.58343 0.86127 0.16759 0.0
O548 O 0.66349 0.91974 0.0962 0.0
O549 O 0.60421 0.83284 0.10806 0.0
O550 O 0.59984 0.91118 0.1731 0.0
O551 O 0.69419 0.82783 0.11536 0.0
O552 O 0.69937 0.90906 0.18166 0.0
O553 O 0.63933 0.83119 0.20241 0.0
Sc554 Sc 0.33289 0.60998 0.09936 0.0
Sc555 Sc 0.41275 0.61095 0.11827 0.0
Sc556 Sc 0.36161 0.5564 0.15269 0.0
O557 O 0.36923 0.59227 0.12334 0.0
C558 C 0.30148 0.59483 0.16466 0.0
C559 C 0.36984 0.67114 0.12183 0.0
C560 C 0.4124 0.59854 0.19118 0.0
C561 C 0.38771 0.61721 0.04955 0.0
C562 C 0.31775 0.53812 0.09285 0.0
C563 C 0.42542 0.53748 0.12224 0.0
O564 O 0.30017 0.60422 0.13673 0.0
O565 O 0.39643 0.65859 0.1199 0.0
O566 O 0.39233 0.57604 0.18911 0.0
O567 O 0.35965 0.6198 0.05824 0.0
O568 O 0.32945 0.53268 0.11977 0.0
O569 O 0.43365 0.56562 0.11649 0.0
O570 O 0.31984 0.5647 0.0801 0.0
O571 O 0.40956 0.60968 0.06814 0.0
O572 O 0.39904 0.53004 0.13364 0.0
O573 O 0.34407 0.65588 0.1177 0.0
O574 O 0.32417 0.57952 0.17523 0.0
O575 O 0.42077 0.61435 0.16778 0.0
Sc576 Sc 0.13227 0.64467 0.79914 0.0
Sc577 Sc 0.17985 0.66497 0.86479 0.0
Sc578 Sc 0.10312 0.69248 0.85892 0.0
O579 O 0.13848 0.6676 0.84087 0.0
C580 C 0.09889 0.70922 0.78672 0.0
C581 C 0.20306 0.67153 0.79551 0.0
C582 C 0.16161 0.73501 0.88228 0.0
C583 C 0.17106 0.59549 0.83622 0.0
C584 C 0.06526 0.63379 0.82906 0.0
C585 C 0.12984 0.65589 0.9178 0.0
O586 O 0.1129 0.68495 0.7776 0.0
O587 O 0.20636 0.67759 0.82464 0.0
O588 O 0.13303 0.73144 0.87406 0.0
O589 O 0.14987 0.60176 0.81642 0.0
O590 O 0.06781 0.65721 0.84762 0.0
O591 O 0.15701 0.65177 0.90718 0.0
O592 O 0.08651 0.62644 0.81021 0.0
O593 O 0.18485 0.61607 0.85376 0.0
O594 O 0.10873 0.67056 0.90333 0.0
O595 O 0.1781 0.65908 0.78349 0.0
O596 O 0.09405 0.71552 0.81542 0.0
O597 O 0.18094 0.71319 0.87989 0.0
Sc598 Sc 0.17038 0.34715 0.62796 0.0
Sc599 Sc 0.112 0.29663 0.65673 0.0
Sc600 Sc 0.15171 0.35133 0.70737 0.0
O601 O 0.14488 0.33147 0.66411 0.0
C602 C 0.22112 0.35165 0.68425 0.0
C603 C 0.16998 0.27335 0.61734 0.0
C604 C 0.13845 0.2799 0.72438 0.0
C605 C 0.10442 0.33374 0.5936 0.0
C606 C 0.15561 0.4105 0.66306 0.0
C607 C 0.07733 0.34525 0.70036 0.0
O608 O 0.21285 0.35222 0.6556 0.0
O609 O 0.14416 0.2683 0.63104 0.0
O610 O 0.14926 0.30729 0.73087 0.0
O611 O 0.13187 0.34573 0.595 0.0
O612 O 0.15474 0.39831 0.68989 0.0
O613 O 0.07687 0.32248 0.68075 0.0
O614 O 0.15926 0.39476 0.63797 0.0
O615 O 0.09387 0.31589 0.61446 0.0
O616 O 0.1025 0.3574 0.71207 0.0
O617 O 0.18279 0.30045 0.6152 0.0
O618 O 0.20171 0.34836 0.70617 0.0
O619 O 0.12506 0.2727 0.69838 0.0
Sc620 Sc 0.62727 0.68439 0.66105 0.0
Sc621 Sc 0.65993 0.62313 0.7029 0.0
Sc622 Sc 0.69443 0.64923 0.63393 0.0
O623 O 0.66079 0.65253 0.66625 0.0
C624 C 0.63435 0.6615 0.59117 0.0
C625 C 0.58816 0.62452 0.68376 0.0
C626 C 0.67787 0.5783 0.64616 0.0
C627 C 0.63819 0.68757 0.73413 0.0
C628 C 0.68884 0.72216 0.63885 0.0
C629 C 0.73239 0.63568 0.69754 0.0
O630 O 0.61736 0.6701 0.61354 0.0
O631 O 0.61168 0.61004 0.69388 0.0
O632 O 0.68453 0.60024 0.62767 0.0
O633 O 0.63328 0.70115 0.70841 0.0
O634 O 0.70603 0.69846 0.63677 0.0
O635 O 0.70851 0.6326 0.71464 0.0
O636 O 0.66016 0.72007 0.64622 0.0
O637 O 0.64669 0.65936 0.73555 0.0
O638 O 0.7303 0.64052 0.66835 0.0
O639 O 0.59021 0.65226 0.67376 0.0
O640 O 0.66318 0.65602 0.59483 0.0
O641 O 0.6718 0.58286 0.67482 0.0
Sc642 Sc 0.34972 0.39052 0.42709 0.0
Sc643 Sc 0.3936 0.44216 0.38046 0.0
Sc644 Sc 0.41548 0.36413 0.38798 0.0
O645 O 0.38633 0.39904 0.39868 0.0
C646 C 0.40585 0.35576 0.46088 0.0
C647 C 0.36925 0.46062 0.44808 0.0
C648 C 0.46347 0.42335 0.39138 0.0
C649 C 0.31935 0.43171 0.37405 0.0
C650 C 0.35108 0.32509 0.39067 0.0
C651 C 0.4083 0.39651 0.32277 0.0
O652 O 0.37916 0.3682 0.4609 0.0
O653 O 0.38408 0.46689 0.42343 0.0
O654 O 0.45635 0.39435 0.38962 0.0
O655 O 0.31731 0.41182 0.39568 0.0
O656 O 0.37955 0.32836 0.38354 0.0
O657 O 0.40408 0.42338 0.33489 0.0
O658 O 0.33669 0.34609 0.40541 0.0
O659 O 0.34519 0.44441 0.36601 0.0
O660 O 0.41027 0.37183 0.33869 0.0
O661 O 0.35664 0.4339 0.4527 0.0
O662 O 0.42247 0.35354 0.43656 0.0
O663 O 0.44292 0.44423 0.39213 0.0
H664 H 0.11305 0.30452 0.30416 0.0
H665 H 0.10536 0.22616 0.36587 0.0
H666 H 0.13601 0.19476 0.33028 0.0
H667 H 0.15341 0.18621 0.27678 0.0
H668 H 0.15654 0.26325 0.21314 0.0
H669 H 0.14018 0.29869 0.25464 0.0
C670 C 0.11878 0.28085 0.31026 0.0
C671 C 0.10608 0.26735 0.33707 0.0
C672 C 0.13531 0.26253 0.28909 0.0
C673 C 0.11424 0.23687 0.34496 0.0
C674 C 0.13171 0.21885 0.32457 0.0
C675 C 0.15157 0.21094 0.27221 0.0
C676 C 0.15524 0.22189 0.24168 0.0
C677 C 0.14065 0.23086 0.29572 0.0
C678 C 0.15317 0.25409 0.23631 0.0
C679 C 0.14361 0.27436 0.25998 0.0
H680 H 0.01866 0.84767 0.57311 0.0
H681 H 0.93604 0.86459 0.51708 0.0
H682 H 0.96815 0.87083 0.47097 0.0
H683 H 0.01797 0.86271 0.44541 0.0
H684 H 0.10021 0.84304 0.50077 0.0
H685 H 0.06988 0.84688 0.54851 0.0
C686 C 0.00769 0.85337 0.55096 0.0
C687 C 0.97491 0.8549 0.54836 0.0
C688 C 0.02614 0.85588 0.52439 0.0
C689 C 0.96117 0.86287 0.51964 0.0
C690 C 0.97949 0.86623 0.49321 0.0
C691 C 0.02936 0.85958 0.46796 0.0
C692 C 0.06107 0.85181 0.46958 0.0
C693 C 0.01173 0.86129 0.4951 0.0
C694 C 0.07574 0.84869 0.49893 0.0
C695 C 0.05839 0.85079 0.52619 0.0
H696 H 0.44184 0.83535 0.82044 0.0
H697 H 0.40007 0.7451 0.79466 0.0
H698 H 0.38392 0.76498 0.74413 0.0
H699 H 0.38778 0.80547 0.70498 0.0
H700 H 0.43056 0.89546 0.72922 0.0
H701 H 0.4397 0.8784 0.78292 0.0
C702 C 0.42871 0.82021 0.80399 0.0
C703 C 0.4227 0.78862 0.81109 0.0
C704 C 0.41991 0.83166 0.77465 0.0
C705 C 0.40542 0.76938 0.78963 0.0
C706 C 0.39619 0.7807 0.76069 0.0
C707 C 0.39874 0.82151 0.72214 0.0
C708 C 0.40901 0.85144 0.71312 0.0
C709 C 0.40432 0.8114 0.75257 0.0
C710 C 0.42256 0.87224 0.73565 0.0
C711 C 0.42797 0.86241 0.76626 0.0
H712 H 0.46018 0.2295 0.12347 0.0
H713 H 0.53895 0.25864 0.06842 0.0
H714 H 0.51984 0.22524 0.02491 0.0
H715 H 0.47885 0.19207 0.00102 0.0
H716 H 0.39719 0.1659 0.05349 0.0
H717 H 0.41964 0.1934 0.09977 0.0
C718 C 0.47328 0.22814 0.10206 0.0
C719 C 0.50078 0.24658 0.09898 0.0
C720 C 0.46163 0.20956 0.07672 0.0
C721 C 0.51753 0.24488 0.07113 0.0
C722 C 0.50667 0.22576 0.0463 0.0
C723 C 0.46599 0.19187 0.02263 0.0
C724 C 0.43621 0.17708 0.02362 0.0
C725 C 0.47842 0.20861 0.04861 0.0
C726 C 0.42009 0.17721 0.05197 0.0
C727 C 0.43286 0.19305 0.07841 0.0
H728 H 0.04614 0.71149 0.19187 0.0
H729 H 0.09491 0.78108 0.13784 0.0
H730 H 0.11135 0.8092 0.18592 0.0
H731 H 0.10718 0.81675 0.2427 0.0
H732 H 0.05679 0.74766 0.29615 0.0
H733 H 0.0457 0.71667 0.24871 0.0
C734 C 0.0607 0.7326 0.19055 0.0
C735 C 0.06892 0.74441 0.16129 0.0
C736 C 0.06945 0.74897 0.21814 0.0
C737 C 0.08811 0.77157 0.16006 0.0
C738 C 0.09736 0.78777 0.18754 0.0
C739 C 0.09394 0.79482 0.24406 0.0
C740 C 0.08245 0.78487 0.27296 0.0
C741 C 0.08737 0.77716 0.21663 0.0
C742 C 0.06569 0.75614 0.27425 0.0
C743 C 0.05932 0.73833 0.24711 0.0
H744 H 0.51581 0.78362 0.43871 0.0
H745 H 0.42907 0.74895 0.39587 0.0
H746 H 0.39962 0.77594 0.43615 0.0
H747 H 0.39891 0.80491 0.48664 0.0
H748 H 0.48637 0.83726 0.52984 0.0
H749 H 0.51501 0.81575 0.48623 0.0
C750 C 0.49044 0.7822 0.4379 0.0
C751 C 0.47471 0.76395 0.41453 0.0
C752 C 0.47374 0.79717 0.46141 0.0
C753 C 0.44181 0.76268 0.41372 0.0
C754 C 0.42494 0.77802 0.43682 0.0
C755 C 0.42418 0.80764 0.48625 0.0
C756 C 0.44046 0.82231 0.51168 0.0
C757 C 0.4407 0.79466 0.46127 0.0
C758 C 0.47325 0.82567 0.51081 0.0
C759 C 0.4897 0.81341 0.48586 0.0
H760 H 0.37738 0.22655 0.73032 0.0
H761 H 0.37808 0.13353 0.68973 0.0
H762 H 0.37941 0.11125 0.74197 0.0
H763 H 0.38946 0.11907 0.79848 0.0
H764 H 0.39395 0.2131 0.83754 0.0
H765 H 0.38212 0.23407 0.78655 0.0
C766 C 0.37672 0.20135 0.73286 0.0
C767 C 0.37784 0.18168 0.70635 0.0
C768 C 0.37963 0.18894 0.76271 0.0
C769 C 0.37724 0.14909 0.70997 0.0
C770 C 0.37846 0.1364 0.73978 0.0
C771 C 0.38772 0.14412 0.79584 0.0
C772 C 0.39339 0.16445 0.82167 0.0
C773 C 0.38133 0.15622 0.76624 0.0
C774 C 0.39053 0.19686 0.81794 0.0
C775 C 0.38345 0.20895 0.78882 0.0
H776 H 0.98013 0.16014 -0.00195 0.0
H777 H 0.04095 0.10159 0.9448 0.0
H778 H 0.07201 0.09201 0.99189 0.0
H779 H 0.08802 0.10955 0.0446 0.0
H780 H 0.02963 0.1717 0.09668 0.0
H781 H 0.99128 0.17033 0.05371 0.0
C782 C -0.00047 0.14443 -0.00305 0.0
C783 C 0.00875 0.13217 0.96797 0.0
C784 C 0.01818 0.14034 0.02373 0.0
C785 C 0.03377 0.11167 0.96687 0.0
C786 C 0.05167 0.1064 0.9937 0.0
C787 C 0.06668 0.12244 0.04677 0.0
C788 C 0.06214 0.14148 0.07334 0.0
C789 C 0.04518 0.1222 0.02173 0.0
C790 C 0.03397 0.15729 0.07622 0.0
C791 C 0.01203 0.15657 0.05163 0.0
H792 H 0.33306 0.04192 0.15668 0.0
H793 H 0.3449 0.07986 0.25027 0.0
H794 H 0.30572 0.11908 0.23945 0.0
H795 H 0.26228 0.13624 0.20593 0.0
H796 H 0.25235 0.09907 0.11148 0.0
H797 H 0.29736 0.06679 0.1197 0.0
C798 C 0.32754 0.05936 0.17433 0.0
C799 C 0.34123 0.05803 0.20423 0.0
C800 C 0.30532 0.08187 0.16785 0.0
C801 C 0.33442 0.08068 0.22705 0.0
C802 C 0.31196 0.10293 0.22092 0.0
C803 C 0.27047 0.12174 0.18687 0.0
C804 C 0.25331 0.11946 0.15849 0.0
C805 C 0.29637 0.1029 0.19176 0.0
C806 C 0.26471 0.10104 0.1338 0.0
C807 C 0.29039 0.08229 0.13849 0.0
H808 H 0.19794 0.03994 0.44671 0.0
H809 H 0.21917 0.05869 0.35049 0.0
H810 H 0.19075 0.01065 0.33377 0.0
H811 H 0.16417 0.96107 0.34706 0.0
H812 H 0.1453 0.94176 0.44372 0.0
H813 H 0.16834 0.99251 0.4596 0.0
C814 C 0.19613 0.03374 0.42202 0.0
C815 C 0.21096 0.0527 0.39993 0.0
C816 C 0.18031 0.00591 0.41266 0.0
C817 C 0.20815 0.04439 0.36803 0.0
C818 C 0.19195 0.0169 0.35844 0.0
C819 C 0.16464 0.96817 0.37155 0.0
C820 C 0.15329 0.94753 0.39419 0.0
C821 C 0.17855 -0.00286 0.38064 0.0
C822 C 0.15417 0.95706 0.42584 0.0
C823 C 0.16735 0.98607 0.43497 0.0
H824 H 0.20051 0.957 0.66563 0.0
H825 H 0.24458 0.94359 0.75588 0.0
H826 H 0.28481 0.91293 0.7314 0.0
H827 H 0.31131 0.89633 0.68419 0.0
H828 H 0.26906 0.9107 0.59353 0.0
H829 H 0.22383 0.93402 0.61839 0.0
C830 C 0.21861 0.94692 0.68001 0.0
C831 C 0.21986 0.95312 0.71251 0.0
C832 C 0.24206 0.92967 0.66569 0.0
C833 C 0.24327 0.93958 0.7308 0.0
C834 C 0.26634 0.92206 0.71683 0.0
C835 C 0.29192 0.9041 0.66988 0.0
C836 C 0.29364 0.90232 0.63712 0.0
C837 C 0.26656 0.91796 0.68426 0.0
C838 C 0.26822 0.91189 0.61881 0.0
C839 C 0.24254 0.92545 0.63302 0.0
H840 H 0.33165 0.96117 0.0561 0.0
H841 H 0.35509 0.9036 0.97642 0.0
H842 H 0.37672 0.94948 0.95045 0.0
H843 H 0.3824 0.0066 0.9476 0.0
H844 H 0.35711 0.06404 0.02686 0.0
H845 H 0.34307 0.01744 0.05577 0.0
C846 C 0.34192 0.95853 0.03325 0.0
C847 C 0.34123 0.9291 0.018 0.0
C848 C 0.35369 0.98504 0.01819 0.0
C849 C 0.35505 0.92604 0.98859 0.0
C850 C 0.3673 0.9523 0.97364 0.0
C851 C 0.3743 0.00897 0.97137 0.0
C852 C 0.37027 0.03888 0.98473 0.0
C853 C 0.36572 0.98206 0.98777 0.0
C854 C 0.36004 0.04139 0.01573 0.0
C855 C 0.35195 0.01472 0.03234 0.0
H856 H 0.32364 0.88658 0.31721 0.0
H857 H 0.28288 0.89756 0.22515 0.0
H858 H 0.23499 0.87058 0.24117 0.0
H859 H 0.20234 0.85155 0.28304 0.0
H860 H 0.2411 0.8446 0.37653 0.0
H861 H 0.29245 0.86128 0.35793 0.0
C862 C 0.30449 0.88253 0.30052 0.0
C863 C 0.30654 0.89453 0.27023 0.0
C864 C 0.27663 0.86781 0.31016 0.0
C865 C 0.28163 0.88901 0.24877 0.0
C866 C 0.25426 0.87354 0.25789 0.0
C867 C 0.22207 0.85305 0.29936 0.0
C868 C 0.21761 0.84754 0.33131 0.0
C869 C 0.2511 0.86399 0.28884 0.0
C870 C 0.2437 0.84906 0.35187 0.0
C871 C 0.27306 0.85885 0.3413 0.0
H872 H 0.3395 0.0169 0.44751 0.0
H873 H 0.33539 0.08352 0.52432 0.0
H874 H 0.35899 0.04625 0.55937 0.0
H875 H 0.37362 0.99228 0.56975 0.0
H876 H 0.37596 0.92531 0.49302 0.0
H877 H 0.36063 0.96526 0.45655 0.0
C878 C 0.34429 0.02352 0.47177 0.0
C879 C 0.33511 0.05272 0.48335 0.0
C880 C 0.35726 0.00174 0.49201 0.0
C881 C 0.34183 0.06101 0.51482 0.0
C882 C 0.35526 0.03967 0.53496 0.0
C883 C 0.37141 0.98657 0.54498 0.0
C884 C 0.37534 0.95566 0.53431 0.0
C885 C 0.36196 0.00955 0.52407 0.0
C886 C 0.37254 0.94877 0.50204 0.0
C887 C 0.36375 0.97161 0.48109 0.0
H888 H 0.18528 0.08599 0.83701 0.0
H889 H 0.24287 0.08457 0.75518 0.0
H890 H 0.28899 0.09813 0.78746 0.0
H891 H 0.31351 0.10576 0.8387 0.0
H892 H 0.2576 0.10613 0.92157 0.0
H893 H 0.21 0.09787 0.88897 0.0
C894 C 0.20784 0.08917 0.82621 0.0
C895 C 0.21068 0.08402 0.79373 0.0
C896 C 0.2345 0.09637 0.84507 0.0
C897 C 0.24008 0.08815 0.7801 0.0
C898 C 0.26648 0.09582 0.79855 0.0
C899 C 0.29093 0.10399 0.84978 0.0
C900 C 0.28911 0.10583 0.88258 0.0
C901 C 0.26404 0.09911 0.83105 0.0
C902 C 0.25961 0.10447 0.8964 0.0
C903 C 0.23246 0.0997 0.87776 0.0
H904 H 0.21469 0.94051 0.12483 0.0
H905 H 0.18494 0.95611 0.02959 0.0
H906 H 0.1549 0.00062 0.04676 0.0
H907 H 0.14379 0.03927 0.08716 0.0
H908 H 0.1771 0.02674 0.18189 0.0
H909 H 0.19819 0.97637 0.16674 0.0
C910 C 0.20111 0.95328 0.10795 0.0
C911 C 0.20238 0.94537 0.07594 0.0
C912 C 0.18466 0.97949 0.11787 0.0
C913 C 0.18468 0.96206 0.05431 0.0
C914 C 0.16748 0.9875 0.0641 0.0
C915 C 0.15511 0.02533 0.10474 0.0
C916 C 0.15938 0.03716 0.1355 0.0
C917 C 0.16831 -0.00289 0.09562 0.0
C918 C 0.17372 0.01842 0.15796 0.0
C919 C 0.18601 0.98968 0.14926 0.0
H920 H 0.22521 0.30209 0.01264 0.0
H921 H 0.12998 0.33022 -0.00138 0.0
H922 H 0.11253 0.29309 0.03809 0.0
H923 H 0.12439 0.2509 0.07481 0.0
H924 H 0.21957 0.22155 0.0857 0.0
H925 H 0.23711 0.26134 0.04936 0.0
C926 C 0.20061 0.30033 0.01827 0.0
C927 C 0.1789 0.31887 0.0027 0.0
C928 C 0.19081 0.27878 0.04047 0.0
C929 C 0.14713 0.31611 0.01022 0.0
C930 C 0.13718 0.29494 0.0328 0.0
C931 C 0.14901 0.2536 0.06953 0.0
C932 C 0.17072 0.23345 0.08294 0.0
C933 C 0.15881 0.27597 0.04789 0.0
C934 C 0.20247 0.23677 0.07558 0.0
C935 C 0.21249 0.25945 0.0548 0.0
H936 H 0.70051 0.20778 0.93115 0.0
H937 H 0.61003 0.18213 0.96738 0.0
H938 H 0.58714 0.2269 0.94187 0.0
H939 H 0.5945 0.27723 0.91516 0.0
H940 H 0.68603 0.3035 0.88187 0.0
H941 H 0.70668 0.25455 0.90011 0.0
C942 C 0.67567 0.21164 0.93312 0.0
C943 C 0.65716 0.19192 0.95159 0.0
C944 C 0.66287 0.23781 0.91914 0.0
C945 C 0.62493 0.19713 0.95355 0.0
C946 C 0.61182 0.22281 0.93906 0.0
C947 C 0.61878 0.27188 0.91138 0.0
C948 C 0.6388 0.29411 0.89761 0.0
C949 C 0.6308 0.24393 0.92269 0.0
C950 C 0.67025 0.28695 0.89287 0.0
C951 C 0.68211 0.25896 0.90327 0.0
H952 H 0.06939 0.51266 0.19256 0.0
H953 H 0.10819 0.42275 0.21053 0.0
H954 H 0.07168 0.398 0.17216 0.0
H955 H 0.02343 0.40111 0.14039 0.0
H956 H 0.98415 0.49124 0.12373 0.0
H957 H 0.02683 0.51683 0.15391 0.0
C958 C 0.07012 0.4877 0.18772 0.0
C959 C 0.09085 0.46939 0.20478 0.0
C960 C 0.04901 0.4737 0.16586 0.0
C961 C 0.09217 0.43725 0.19785 0.0
C962 C 0.07126 0.4231 0.17598 0.0
C963 C 0.02471 0.42642 0.14247 0.0
C964 C 0.00022 0.44416 0.13038 0.0
C965 C 0.04881 0.44095 0.16073 0.0
C966 C 0.00242 0.47697 0.1332 0.0
C967 C 0.0267 0.49163 0.15066 0.0
H968 H 0.77797 0.84402 0.36537 0.0
H969 H 0.68835 0.80311 0.38869 0.0
H970 H 0.70221 0.75348 0.36433 0.0
H971 H 0.74416 0.71937 0.34928 0.0
H972 H 0.83604 0.75894 0.33153 0.0
H973 H 0.81682 0.81142 0.33985 0.0
C974 C 0.76118 0.8245 0.36403 0.0
C975 C 0.7326 0.82666 0.37924 0.0
C976 C 0.77 0.79561 0.35156 0.0
C977 C 0.71079 0.80149 0.37751 0.0
C978 C 0.71874 0.77315 0.36372 0.0
C979 C 0.75984 0.73945 0.34638 0.0
C980 C 0.79177 0.73517 0.3411 0.0
C981 C 0.74904 0.76943 0.35266 0.0
C982 C 0.81151 0.76152 0.3365 0.0
C983 C 0.80058 0.79159 0.34138 0.0
H984 H 0.95318 0.10064 0.25461 0.0
H985 H 0.99136 0.00832 0.25322 0.0
H986 H 0.04128 0.02979 0.2359 0.0
H987 H 0.07369 0.07428 0.21976 0.0
H988 H 0.03565 0.16664 0.21976 0.0
H989 H 0.98623 0.14562 0.2393 0.0
C990 C 0.97243 0.08525 0.25053 0.0
C991 C 0.96845 0.05293 0.25503 0.0
C992 C 0.00116 0.09772 0.24043 0.0
C993 C 0.99366 0.03328 0.24972 0.0
C994 C 0.0223 0.04553 0.2399 0.0
C995 C 0.05474 0.08993 0.22432 0.0
C996 C 0.05842 0.12198 0.21828 0.0
C997 C 0.02626 0.07766 0.23504 0.0
C998 C 0.03346 0.14183 0.22411 0.0
C999 C 0.00514 0.12984 0.23524 0.0
H1000 H 0.31156 0.6553 0.60837 0.0
H1001 H 0.22412 0.70276 0.6018 0.0
H1002 H 0.25201 0.75329 0.60556 0.0
H1003 H 0.30108 0.78358 0.60414 0.0
H1004 H 0.38898 0.73666 0.6084 0.0
H1005 H 0.36101 0.68625 0.6123 0.0
C1006 C 0.2986 0.6767 0.60855 0.0
C1007 C 0.26588 0.67538 0.60453 0.0
C1008 C 0.31486 0.70571 0.60971 0.0
C1009 C 0.24936 0.70326 0.60462 0.0
C1010 C 0.26528 0.73213 0.60661 0.0
C1011 C 0.31421 0.76238 0.60606 0.0
C1012 C 0.34706 0.76384 0.60534 0.0
C1013 C 0.29804 0.73358 0.60797 0.0
C1014 C 0.36366 0.73617 0.60857 0.0
C1015 C 0.34768 0.70733 0.61079 0.0
H1016 H 0.0523 0.58034 0.34249 0.0
H1017 H 0.01385 0.48592 0.33531 0.0
H1018 H 0.96364 0.50379 0.35341 0.0
H1019 H 0.92881 0.54701 0.36277 0.0
H1020 H 0.9664 0.64186 0.36738 0.0
H1021 H 0.01894 0.62284 0.35971 0.0
C1022 C 0.03311 0.56357 0.34542 0.0
C1023 C 0.03659 0.53198 0.33682 0.0
C1024 C 0.00407 0.57409 0.35522 0.0
C1025 C 0.01166 0.51047 0.34124 0.0
C1026 C 0.98289 0.52067 0.35157 0.0
C1027 C 0.94853 0.56355 0.36272 0.0
C1028 C 0.94351 0.59587 0.36483 0.0
C1029 C 0.97851 0.55258 0.35731 0.0
C1030 C 0.96947 0.61686 0.36543 0.0
C1031 C -0.00045 0.60603 0.3608 0.0
H1032 H 0.44992 0.53315 0.80275 0.0
H1033 H 0.38465 0.45979 0.82887 0.0
H1034 H 0.42786 0.42919 0.84863 0.0
H1035 H 0.48453 0.42008 0.85092 0.0
H1036 H 0.54906 0.49289 0.82158 0.0
H1037 H 0.50575 0.52669 0.8105 0.0
C1038 C 0.44502 0.51072 0.8133 0.0
C1039 C 0.41418 0.49853 0.81376 0.0
C1040 C 0.46993 0.49281 0.82346 0.0
C1041 C 0.40822 0.46965 0.82799 0.0
C1042 C 0.43295 0.452 0.83904 0.0
C1043 C 0.48912 0.44348 0.84251 0.0
C1044 C 0.51998 0.45362 0.83646 0.0
C1045 C 0.46398 0.46278 0.83565 0.0
C1046 C 0.52552 0.48417 0.82583 0.0
C1047 C 0.50077 0.50363 0.81959 0.0
H1048 H 0.90524 0.86525 0.68569 0.0
H1049 H 0.88829 0.77491 0.72648 0.0
H1050 H 0.88779 0.79925 0.77844 0.0
H1051 H 0.89827 0.84508 0.81262 0.0
H1052 H 0.91538 0.9355 0.77233 0.0
H1053 H 0.90981 0.91215 0.71976 0.0
C1054 C 0.90079 0.85093 0.70585 0.0
C1055 C 0.89733 0.81822 0.7022 0.0
C1056 C 0.90119 0.86499 0.73579 0.0
C1057 C 0.89132 0.80009 0.7286 0.0
C1058 C 0.89125 0.81396 0.75838 0.0
C1059 C 0.90072 0.8597 0.79232 0.0
C1060 C 0.90788 0.89183 0.79628 0.0
C1061 C 0.89731 0.84619 0.7623 0.0
C1062 C 0.91016 0.91064 0.76983 0.0
C1063 C 0.90696 0.89731 0.7398 0.0
H1064 H 0.99256 0.19622 0.4292 0.0
H1065 H 0.9039 0.22911 0.39556 0.0
H1066 H 0.87659 0.19702 0.43372 0.0
H1067 H 0.87895 0.16689 0.48229 0.0
H1068 H 0.96843 0.13796 0.51769 0.0
H1069 H 0.99436 0.16087 0.47295 0.0
C1070 C 0.96721 0.19602 0.42983 0.0
C1071 C 0.95034 0.21555 0.41011 0.0
C1072 C 0.95184 0.17839 0.45237 0.0
C1073 C 0.91748 0.21454 0.41078 0.0
C1074 C 0.90185 0.19631 0.43269 0.0
C1075 C 0.90399 0.1649 0.47965 0.0
C1076 C 0.92189 0.15118 0.50329 0.0
C1077 C 0.91891 0.1792 0.45446 0.0
C1078 C 0.95432 0.14881 0.49986 0.0
C1079 C 0.96914 0.16195 0.47437 0.0
H1080 H 0.58223 0.29043 0.23418 0.0
H1081 H 0.60372 0.21979 0.16513 0.0
H1082 H 0.60759 0.18093 0.20609 0.0
H1083 H 0.5989 0.16595 0.26082 0.0
H1084 H 0.57528 0.23733 0.32857 0.0
H1085 H 0.57802 0.27673 0.28871 0.0
C1086 C 0.58821 0.26665 0.22806 0.0
C1087 C 0.59223 0.25794 0.19662 0.0
C1088 C 0.58948 0.24434 0.25146 0.0
C1089 C 0.60036 0.2271 0.18918 0.0
C1090 C 0.60234 0.2048 0.21256 0.0
C1091 C 0.5946 0.19015 0.26689 0.0
C1092 C 0.58632 0.19842 0.29757 0.0
C1093 C 0.59593 0.21294 0.24367 0.0
C1094 C 0.58113 0.23002 0.30506 0.0
C1095 C 0.58281 0.25273 0.28231 0.0
H1096 H 0.50961 0.80427 0.98043 0.0
H1097 H 0.57635 0.84835 0.9196 0.0
H1098 H 0.61039 0.86209 0.96466 0.0
H1099 H 0.62259 0.85851 0.02093 0.0
H1100 H 0.55581 0.81279 0.08082 0.0
H1101 H 0.5206 0.80263 0.03635 0.0
C1102 C 0.53142 0.81721 0.97697 0.0
C1103 C 0.54048 0.82512 0.94666 0.0
C1104 C 0.55112 0.82439 0.00277 0.0
C1105 C 0.56883 0.84191 0.94269 0.0
C1106 C 0.58839 0.84964 0.96842 0.0
C1107 C 0.60034 0.84635 0.02429 0.0
C1108 C 0.59212 0.83621 0.05423 0.0
C1109 C 0.58005 0.84042 -0.00149 0.0
C1110 C 0.56301 0.8207 0.05809 0.0
C1111 C 0.54271 0.81491 0.03266 0.0
H1112 H 0.94666 0.19068 0.80856 0.0
H1113 H 0.93376 0.09401 0.83393 0.0
H1114 H 0.91195 0.08135 0.78191 0.0
H1115 H 0.90335 0.0964 0.72757 0.0
H1116 H 0.91881 0.19271 0.70178 0.0
H1117 H 0.93264 0.20679 0.75583 0.0
C1118 C 0.93862 0.16691 0.80294 0.0
C1119 C 0.9424 0.14321 0.82489 0.0
C1120 C 0.92695 0.15964 0.7728 0.0
C1121 C 0.93145 0.11265 0.81734 0.0
C1122 C 0.9191 0.10535 0.78755 0.0
C1123 C 0.90938 0.12056 0.73375 0.0
C1124 C 0.91063 0.14332 0.71045 0.0
C1125 C 0.91787 0.12844 0.76478 0.0
C1126 C 0.91805 0.17459 0.71909 0.0
C1127 C 0.92599 0.1827 0.75002 0.0
H1128 H 0.46784 0.1395 0.56965 0.0
H1129 H 0.5555 0.14891 0.62107 0.0
H1130 H 0.5838 0.13568 0.57365 0.0
H1131 H 0.58367 0.1312 0.51622 0.0
H1132 H 0.49565 0.12691 0.4649 0.0
H1133 H 0.46736 0.12847 0.51376 0.0
C1134 C 0.49313 0.13813 0.57064 0.0
C1135 C 0.50966 0.14594 0.59852 0.0
C1136 C 0.50915 0.13202 0.5432 0.0
C1137 C 0.5423 0.1433 0.59974 0.0
C1138 C 0.55848 0.13602 0.57259 0.0
C1139 C 0.5583 0.13001 0.51578 0.0
C1140 C 0.54173 0.12963 0.48705 0.0
C1141 C 0.54219 0.1319 0.54392 0.0
C1142 C 0.50889 0.12788 0.48676 0.0
C1143 C 0.49271 0.12868 0.51465 0.0
H1144 H 0.60898 0.82021 0.35956 0.0
H1145 H 0.63908 0.7296 0.32849 0.0
H1146 H 0.66189 0.75267 0.28217 0.0
H1147 H 0.66226 0.79594 0.24548 0.0
H1148 H 0.62968 0.88603 0.27518 0.0
H1149 H 0.61871 0.86582 0.32684 0.0
C1150 C 0.62141 0.80571 0.34316 0.0
C1151 C 0.62157 0.77317 0.34686 0.0
C1152 C 0.63333 0.81892 0.31592 0.0
C1153 C 0.63808 0.75467 0.32568 0.0
C1154 C 0.65097 0.7678 0.29912 0.0
C1155 C 0.65351 0.81133 0.26355 0.0
C1156 C 0.64604 0.84212 0.25636 0.0
C1157 C 0.64694 0.79949 0.29309 0.0
C1158 C 0.63537 0.86209 0.28009 0.0
C1159 C 0.62904 0.85056 0.30967 0.0
H1160 H 0.95955 0.81725 0.09062 0.0
H1161 H 0.01639 0.76604 0.02621 0.0
H1162 H 0.01111 0.80695 0.98787 0.0
H1163 H 0.9855 0.85361 0.9703 0.0
H1164 H 0.92473 0.90298 0.03233 0.0
H1165 H 0.93721 0.86704 0.07422 0.0
C1166 C 0.97106 0.81527 0.06833 0.0
C1167 C 0.98795 0.78844 0.06111 0.0
C1168 C 0.96733 0.83862 0.04598 0.0
C1169 C 0.00281 0.78621 0.03217 0.0
C1170 C -6e-05 0.80967 0.01025 0.0
C1171 C 0.97557 0.85714 0.9932 0.0
C1172 C 0.95404 0.88089 -0.00195 0.0
C1173 C 0.98159 0.83553 0.01659 0.0
C1174 C 0.9413 0.88484 0.0279 0.0
C1175 C 0.94822 0.86411 0.05179 0.0
H1176 H 0.69141 0.98538 0.86868 0.0
H1177 H 0.71559 0.96825 0.7724 0.0
H1178 H 0.76755 0.95279 0.7888 0.0
H1179 H 0.80749 0.94798 0.82997 0.0
H1180 H 0.78353 0.96413 0.92634 0.0
H1181 H 0.73013 0.976 0.91038 0.0
C1182 C 0.70791 0.97791 0.85132 0.0
C1183 C 0.69971 0.97839 0.81938 0.0
C1184 C 0.73791 0.96914 0.86086 0.0
C1185 C 0.7213 0.96834 0.79718 0.0
C1186 C 0.75112 0.95958 0.80649 0.0
C1187 C 0.79053 0.95399 0.84747 0.0
C1188 C 0.79949 0.95555 0.8792 0.0
C1189 C 0.7599 0.96059 0.83818 0.0
C1190 C 0.77717 0.96281 0.90171 0.0
C1191 C 0.74666 0.96968 0.89262 0.0
H1192 H 0.81904 0.90984 0.52298 0.0
H1193 H 0.77022 0.96273 0.45344 0.0
H1194 H 0.79927 0.01014 0.47043 0.0
H1195 H 0.83285 0.03762 0.50938 0.0
H1196 H 0.8796 0.9855 0.58099 0.0
H1197 H 0.85755 0.93671 0.55832 0.0
C1198 C 0.81514 0.93161 0.51116 0.0
C1199 C 0.7921 0.93282 0.48732 0.0
C1200 C 0.8314 0.95901 0.52155 0.0
C1201 C 0.78751 0.96121 0.47214 0.0
C1202 C 0.8041 0.98837 0.48186 0.0
C1203 C 0.83874 0.01561 0.5198 0.0
C1204 C 0.85743 0.01541 0.54725 0.0
C1205 C 0.82525 0.98773 0.50725 0.0
C1206 C 0.86503 0.9865 0.56007 0.0
C1207 C 0.85229 0.95854 0.54721 0.0
H1208 H 0.79392 0.08319 0.29946 0.0
H1209 H 0.82458 0.08059 0.39609 0.0
H1210 H 0.77348 0.09798 0.41265 0.0
H1211 H 0.71888 0.10918 0.39986 0.0
H1212 H 0.68784 0.10965 0.30318 0.0
H1213 H 0.74051 0.09803 0.28654 0.0
C1214 C 0.78962 0.08676 0.32415 0.0
C1215 C 0.81299 0.08028 0.34651 0.0
C1216 C 0.76004 0.09616 0.33353 0.0
C1217 C 0.80698 0.08521 0.37838 0.0
C1218 C 0.77773 0.09508 0.38788 0.0
C1219 C 0.72363 0.10713 0.37511 0.0
C1220 C 0.69923 0.10999 0.35285 0.0
C1221 C 0.75387 0.0999 0.36568 0.0
C1222 C 0.70601 0.10733 0.32088 0.0
C1223 C 0.73615 0.10064 0.31131 0.0
H1224 H 0.67189 0.05876 0.02431 0.0
H1225 H 0.66675 0.10858 0.1127 0.0
H1226 H 0.65344 0.05969 0.13864 0.0
H1227 H 0.65032 0.00227 0.13713 0.0
H1228 H 0.65783 0.95278 0.04867 0.0
H1229 H 0.66299 0.00224 0.02186 0.0
C1230 C 0.66746 0.05904 0.04919 0.0
C1231 C 0.67089 0.08713 0.06666 0.0
C1232 C 0.66059 0.03088 0.064 0.0
C1233 C 0.66451 0.0872 0.09876 0.0
C1234 C 0.65707 0.05923 0.11363 0.0
C1235 C 0.65261 0.00226 0.11193 0.0
C1236 C 0.6543 0.9738 0.09506 0.0
C1237 C 0.65615 0.03081 0.09665 0.0
C1238 C 0.65696 0.97429 0.06235 0.0
C1239 C 0.65992 0.00258 0.04695 0.0
H1240 H 0.71094 0.06682 0.72835 0.0
H1241 H 0.65235 0.07315 0.64559 0.0
H1242 H 0.69847 0.08578 0.61466 0.0
H1243 H 0.75597 0.0904 0.61055 0.0
H1244 H 0.81369 0.08008 0.69346 0.0
H1245 H 0.76726 0.07331 0.72481 0.0
C1246 C 0.70806 0.07144 0.70364 0.0
C1247 C 0.67823 0.06895 0.68928 0.0
C1248 C 0.73462 0.07744 0.6859 0.0
C1249 C 0.67508 0.07488 0.6572 0.0
C1250 C 0.70145 0.08191 0.63948 0.0
C1251 C 0.75833 0.08685 0.6355 0.0
C1252 C 0.78828 0.08541 0.64954 0.0
C1253 C 0.73144 0.08245 0.65346 0.0
C1254 C 0.79096 0.0808 0.68192 0.0
C1255 C 0.76442 0.07711 0.69996 0.0
H1256 H 0.62033 0.92873 0.46482 0.0
H1257 H 0.63736 0.89815 0.37034 0.0
H1258 H 0.6168 0.94673 0.35038 0.0
H1259 H 0.60561 0.00209 0.36121 0.0
H1260 H 0.5916 0.03286 0.45654 0.0
H1261 H 0.59898 0.9801 0.47472 0.0
C1262 C 0.61851 0.93236 0.43982 0.0
C1263 C 0.63065 0.91036 0.41905 0.0
C1264 C 0.60791 0.96074 0.42873 0.0
C1265 C 0.62796 0.91486 0.3867 0.0
C1266 C 0.61665 0.94283 0.37534 0.0
C1267 C 0.60338 -0.00297 0.38582 0.0
C1268 C 0.59919 0.02148 0.4076 0.0
C1269 C 0.60834 0.96666 0.3963 0.0
C1270 C 0.59582 0.01457 0.4394 0.0
C1271 C 0.59994 0.98439 0.44986 0.0
H1272 H 0.83368 0.95282 0.24549 0.0
H1273 H 0.84655 0.0124 0.16623 0.0
H1274 H 0.8075 0.98083 0.1361 0.0
H1275 H 0.7638 0.94158 0.13565 0.0
H1276 H 0.74859 0.88587 0.2171 0.0
H1277 H 0.79483 0.91019 0.24292 0.0
C1278 C 0.82829 0.95872 0.22147 0.0
C1279 C 0.84246 0.9853 0.20833 0.0
C1280 C 0.80531 0.94111 0.20474 0.0
C1281 C 0.83569 0.99223 0.177 0.0
C1282 C 0.81329 0.97425 0.1598 0.0
C1283 C 0.77137 0.93417 0.15861 0.0
C1284 C 0.75316 0.91206 0.17459 0.0
C1285 C 0.79711 0.94936 0.17386 0.0
C1286 C 0.76252 0.90285 0.20453 0.0
C1287 C 0.78876 0.91689 0.21931 0.0
H1288 H 0.81058 0.09243 0.00944 0.0
H1289 H 0.8195 0.13899 0.92144 0.0
H1290 H 0.86036 0.10318 0.90605 0.0
H1291 H 0.88674 0.05379 0.91441 0.0
H1292 H 0.87659 0.00679 0.0023 0.0
H1293 H 0.844 0.04847 0.02141 0.0
C1294 C 0.82175 0.09494 0.98703 0.0
C1295 C 0.81155 0.11768 0.9662 0.0
C1296 C 0.84505 0.0743 0.9784 0.0
C1297 C 0.82674 0.12135 0.93766 0.0
C1298 C 0.85005 0.10088 0.92887 0.0
C1299 C 0.87816 0.05299 0.93808 0.0
C1300 C 0.88339 0.02658 0.95649 0.0
C1301 C 0.85851 0.07653 0.9486 0.0
C1302 C 0.87257 0.02646 0.98734 0.0
C1303 C 0.85362 0.05017 -0.00178 0.0
H1304 H 0.79074 0.73362 0.92353 0.0
H1305 H 0.87871 0.69044 0.90521 0.0
H1306 H 0.90343 0.74201 0.898 0.0
H1307 H 0.90128 0.79895 0.90322 0.0
H1308 H 0.81401 0.8417 0.92569 0.0
H1309 H 0.78776 0.79029 0.9253 0.0
C1310 C 0.81522 0.73532 0.91741 0.0
C1311 C 0.83298 0.70824 0.91524 0.0
C1312 C 0.82949 0.76492 0.91469 0.0
C1313 C 0.8646 0.71096 0.9072 0.0
C1314 C 0.87877 0.74042 0.90329 0.0
C1315 C 0.87645 0.79713 0.90778 0.0
C1316 C 0.85971 0.82413 0.91488 0.0
C1317 C 0.86165 0.76753 0.90807 0.0
C1318 C 0.82753 0.82128 0.92059 0.0
C1319 C 0.81249 0.79192 0.92025 0.0
H1320 H 0.37213 0.8158 0.10388 0.0
H1321 H 0.27759 0.80262 0.13584 0.0
H1322 H 0.28828 0.74887 0.14932 0.0
H1323 H 0.32128 0.70364 0.14355 0.0
H1324 H 0.41502 0.71562 0.1093 0.0
H1325 H 0.40802 0.77196 0.10575 0.0
C1326 C 0.3541 0.80142 0.11449 0.0
C1327 C 0.32389 0.81295 0.11816 0.0
C1328 C 0.36012 0.77019 0.12137 0.0
C1329 C 0.30088 0.79412 0.13225 0.0
C1330 C 0.30692 0.76334 0.13988 0.0
C1331 C 0.34038 0.71863 0.13576 0.0
C1332 C 0.36835 0.70542 0.126 0.0
C1333 C 0.33595 0.75076 0.13313 0.0
C1334 C 0.39315 0.7252 0.1167 0.0
C1335 C 0.38909 0.75739 0.11449 0.0
H1336 H 0.92968 0.5727 0.82372 0.0
H1337 H 0.98177 0.49238 0.79517 0.0
H1338 H 0.03074 0.52189 0.80434 0.0
H1339 H 0.05852 0.57205 0.81481 0.0
H1340 H 0.00688 0.65226 0.84402 0.0
H1341 H 0.95799 0.62121 0.84021 0.0
C1342 C 0.95174 0.56145 0.82007 0.0
C1343 C 0.95198 0.53056 0.80826 0.0
C1344 C 0.9799 0.57867 0.82498 0.0
C1345 C 0.98082 0.51624 0.80398 0.0
C1346 C 0.0089 0.53314 0.80902 0.0
C1347 C 0.03655 0.58266 0.82045 0.0
C1348 C 0.03615 0.61447 0.8291 0.0
C1349 C 0.00865 0.56466 0.81847 0.0
C1350 C 0.00769 0.62782 0.83709 0.0
C1351 C 0.97975 0.6101 0.8349 0.0
H1352 H 0.20899 0.15769 0.53537 0.0
H1353 H 0.29365 0.21468 0.5295 0.0
H1354 H 0.27274 0.25292 0.56584 0.0
H1355 H 0.22918 0.27201 0.59604 0.0
H1356 H 0.14422 0.21552 0.60208 0.0
H1357 H 0.1668 0.17497 0.5693 0.0
C1358 C 0.22293 0.17837 0.54222 0.0
C1359 C 0.25266 0.18351 0.52947 0.0
C1360 C 0.21076 0.20035 0.56311 0.0
C1361 C 0.27062 0.21022 0.53884 0.0
C1362 C 0.25868 0.23215 0.55959 0.0
C1363 C 0.21563 0.25074 0.59041 0.0
C1364 C 0.18491 0.24703 0.60114 0.0
C1365 C 0.22858 0.22772 0.57137 0.0
C1366 C 0.1679 0.21906 0.59405 0.0
C1367 C 0.18072 0.19592 0.57516 0.0
H1368 H 0.11494 0.97272 0.83594 0.0
H1369 H 0.06924 0.03372 0.7714 0.0
H1370 H 0.02042 0.02736 0.7992 0.0
H1371 H 0.9894 0.00041 0.83825 0.0
H1372 H 0.03353 0.93612 0.90039 0.0
H1373 H 0.08436 0.94839 0.87767 0.0
C1374 C 0.09436 0.98482 0.82818 0.0
C1375 C 0.09561 0.00328 0.80143 0.0
C1376 C 0.06608 0.98056 0.84391 0.0
C1377 C 0.06878 0.01893 0.79166 0.0
C1378 C 0.04085 0.01545 0.80761 0.0
C1379 C 0.01026 0.98969 0.84738 0.0
C1380 C 0.00777 0.9674 0.87089 0.0
C1381 C 0.03905 -0.00421 0.83332 0.0
C1382 C 0.03492 0.95333 0.8822 0.0
C1383 C 0.06393 0.96018 0.8691 0.0
H1384 H 0.66952 0.3264 0.47735 0.0
H1385 H 0.75759 0.28181 0.46321 0.0
H1386 H 0.73029 0.23651 0.43918 0.0
H1387 H 0.68163 0.20793 0.42599 0.0
H1388 H 0.59316 0.25153 0.44005 0.0
H1389 H 0.62052 0.29908 0.46006 0.0
C1390 C 0.68274 0.30691 0.4687 0.0
C1391 C 0.7155 0.30732 0.47243 0.0
C1392 C 0.66688 0.28072 0.45511 0.0
C1393 C 0.73234 0.28201 0.46088 0.0
C1394 C 0.71677 0.25604 0.44717 0.0
C1395 C 0.66828 0.22786 0.43334 0.0
C1396 C 0.63544 0.22607 0.43204 0.0
C1397 C 0.68406 0.25488 0.44485 0.0
C1398 C 0.61849 0.2523 0.44099 0.0
C1399 C 0.6341 0.27943 0.4525 0.0
H1400 H 0.96963 0.43601 0.73228 0.0
H1401 H 0.91636 0.3723 0.67114 0.0
H1402 H 0.96275 0.34037 0.66445 0.0
H1403 H 0.0187 0.33152 0.67591 0.0
H1404 H 0.06954 0.39469 0.74015 0.0
H1405 H 0.02336 0.42558 0.7462 0.0
C1406 C 0.96822 0.41537 0.71709 0.0
C1407 C 0.93998 0.40685 0.70152 0.0
C1408 C 0.99434 0.39681 0.71438 0.0
C1409 C 0.93813 0.37948 0.68289 0.0
C1410 C 0.96452 0.36121 0.67927 0.0
C1411 C 0.01958 0.3518 0.69153 0.0
C1412 C 0.04776 0.36083 0.70731 0.0
C1413 C 0.99278 0.36967 0.695 0.0
C1414 C 0.04835 0.38717 0.72755 0.0
C1415 C 0.02197 0.40503 0.73094 0.0
H1416 H 0.52373 0.44107 0.16096 0.0
H1417 H 0.58378 0.5052 0.11147 0.0
H1418 H 0.53812 0.53085 0.09016 0.0
H1419 H 0.48241 0.54178 0.09495 0.0
H1420 H 0.42266 0.47856 0.14605 0.0
H1421 H 0.46682 0.44553 0.15669 0.0
C1422 C 0.52681 0.4602 0.14492 0.0
C1423 C 0.55705 0.47192 0.13865 0.0
C1424 C 0.5005 0.47531 0.13335 0.0
C1425 C 0.56073 0.49609 0.11714 0.0
C1426 C 0.53461 0.51091 0.10507 0.0
C1427 C 0.47885 0.52039 0.10777 0.0
C1428 C 0.44945 0.51328 0.12053 0.0
C1429 C 0.50452 0.50183 0.11449 0.0
C1430 C 0.44511 0.485 0.13638 0.0
C1431 C 0.47043 0.46611 0.14267 0.0
H1432 H 0.5619 0.76362 0.83024 0.0
H1433 H 0.5634 0.67583 0.87804 0.0
H1434 H 0.60128 0.65617 0.84088 0.0
H1435 H 0.62769 0.66153 0.79072 0.0
H1436 H 0.62477 0.74919 0.74246 0.0
H1437 H 0.59439 0.77158 0.78447 0.0
C1438 C 0.57077 0.74029 0.83271 0.0
C1439 C 0.5594 0.72092 0.85634 0.0
C1440 C 0.59229 0.72915 0.81122 0.0
C1441 C 0.57161 0.69105 0.8598 0.0
C1442 C 0.59321 0.6798 0.83854 0.0
C1443 C 0.62116 0.68579 0.78973 0.0
C1444 C 0.62797 0.70342 0.7631 0.0
C1445 C 0.60289 0.69829 0.81355 0.0
C1446 C 0.61947 0.73491 0.76242 0.0
C1447 C 0.60191 0.74771 0.78635 0.0
H1448 H 0.51859 0.40225 0.06363 0.0
H1449 H 0.61258 0.39082 0.09897 0.0
H1450 H 0.63321 0.40034 0.04706 0.0
H1451 H 0.62348 0.40174 0.99055 0.0
H1452 H 0.52879 0.40715 0.95464 0.0
H1453 H 0.50943 0.41007 0.00786 0.0
C1454 C 0.54366 0.40275 0.06019 0.0
C1455 C 0.56406 0.39538 0.0849 0.0
C1456 C 0.55511 0.40633 0.02998 0.0
C1457 C 0.59646 0.39616 0.08016 0.0
C1458 C 0.6082 0.40132 0.05044 0.0
C1459 C 0.59865 0.4041 0.99432 0.0
C1460 C 0.57754 0.40357 0.96868 0.0
C1461 C 0.58759 0.40474 0.02493 0.0
C1462 C 0.54548 0.40687 0.97399 0.0
C1463 C 0.53439 0.40864 0.00441 0.0
H1464 H 0.95045 0.3722 0.32376 0.0
H1465 H 0.98193 0.2823 0.29159 0.0
H1466 H 0.96205 0.292 0.23929 0.0
H1467 H 0.93919 0.32691 0.20193 0.0
H1468 H 0.90906 0.41785 0.2323 0.0
H1469 H 0.92444 0.40651 0.28611 0.0
C1470 C 0.95271 0.35469 0.30533 0.0
C1471 C 0.96796 0.32677 0.31153 0.0
C1472 C 0.94149 0.36052 0.27498 0.0
C1473 C 0.97064 0.30421 0.28743 0.0
C1474 C 0.9592 0.30965 0.25747 0.0
C1475 C 0.93565 0.34424 0.22027 0.0
C1476 C 0.92328 0.3733 0.21294 0.0
C1477 C 0.9451 0.3379 0.25088 0.0
C1478 C 0.91867 0.39529 0.2372 0.0
C1479 C 0.92758 0.3889 0.26798 0.0
H1480 H 0.84391 0.74443 0.55457 0.0
H1481 H 0.9431 0.73082 0.54672 0.0
H1482 H 0.934 0.70068 0.49841 0.0
H1483 H 0.89845 0.68129 0.45633 0.0
H1484 H 0.79913 0.69351 0.46432 0.0
H1485 H 0.80773 0.72074 0.51461 0.0
C1486 C 0.86349 0.73461 0.54245 0.0
C1487 C 0.89415 0.74021 0.55418 0.0
C1488 C 0.85813 0.71713 0.51455 0.0
C1489 C 0.91923 0.72702 0.53829 0.0
C1490 C 0.91409 0.70982 0.51052 0.0
C1491 C 0.87865 0.6897 0.46917 0.0
C1492 C 0.84825 0.68562 0.45639 0.0
C1493 C 0.88373 0.70524 0.49812 0.0
C1494 C 0.82282 0.6963 0.47358 0.0
C1495 C 0.82771 0.71202 0.50231 0.0
H1496 H 0.53509 0.29338 0.66816 0.0
H1497 H 0.49124 0.22956 0.73216 0.0
H1498 H 0.5165 0.25761 0.77629 0.0
H1499 H 0.54793 0.30197 0.79693 0.0
H1500 H 0.59083 0.36715 0.73363 0.0
H1501 H 0.56931 0.33653 0.68902 0.0
C1502 C 0.5313 0.28544 0.69174 0.0
C1503 C 0.51109 0.25956 0.69682 0.0
C1504 C 0.54562 0.30194 0.71715 0.0
C1505 C 0.50648 0.24955 0.72754 0.0
C1506 C 0.52092 0.26557 0.75284 0.0
C1507 C 0.55286 0.30947 0.77342 0.0
C1508 C 0.57077 0.33706 0.76876 0.0
C1509 C 0.54006 0.29209 0.74794 0.0
C1510 C 0.57703 0.34611 0.73801 0.0
C1511 C 0.56464 0.32866 0.71244 0.0
H1512 H 0.94705 0.2934 0.90735 0.0
H1513 H 0.02291 0.25581 0.96144 0.0
H1514 H 0.01337 0.29263 0.00406 0.0
H1515 H 0.97972 0.33065 0.0284 0.0
H1516 H 0.9018 0.3665 0.97595 0.0
H1517 H 0.91645 0.33579 0.9301 0.0
C1518 C 0.96177 0.2936 0.92827 0.0
C1519 C 0.98532 0.27156 0.93137 0.0
C1520 C 0.95576 0.31447 0.95308 0.0
C1521 C 0.0043 0.27221 0.9586 0.0
C1522 C -0.00109 0.2933 0.98301 0.0
C1523 C 0.96624 0.33234 0.0068 0.0
C1524 C 0.93941 0.35057 0.00587 0.0
C1525 C 0.97412 0.31386 0.98088 0.0
C1526 C 0.92241 0.35245 0.97751 0.0
C1527 C 0.93066 0.33475 0.95128 0.0
H1528 H 0.92491 0.69578 0.1613 0.0
H1529 H 0.9357 0.59742 0.14134 0.0
H1530 H 0.90694 0.58435 0.18838 0.0
H1531 H 0.88506 0.60119 0.23852 0.0
H1532 H 0.87773 0.69985 0.25947 0.0
H1533 H 0.89885 0.7124 0.20863 0.0
C1534 C 0.92053 0.67143 0.16686 0.0
C1535 C 0.93285 0.64763 0.14808 0.0
C1536 C 0.90502 0.66414 0.19441 0.0
C1537 C 0.92671 0.61622 0.15556 0.0
C1538 C 0.91042 0.60873 0.18255 0.0
C1539 C 0.88765 0.62542 0.23178 0.0
C1540 C 0.88027 0.64954 0.25298 0.0
C1541 C 0.90048 0.63255 0.20272 0.0
C1542 C 0.88369 0.68082 0.24383 0.0
C1543 C 0.89571 0.68805 0.21471 0.0
H1544 H 0.55682 0.66553 0.46541 0.0
H1545 H 0.64799 0.65058 0.42716 0.0
H1546 H 0.6696 0.64391 0.47981 0.0
H1547 H 0.66378 0.64889 0.53663 0.0
H1548 H 0.57287 0.66688 0.57434 0.0
H1549 H 0.55007 0.66599 0.52176 0.0
C1550 C 0.58134 0.66032 0.46846 0.0
C1551 C 0.60087 0.65905 0.44243 0.0
C1552 C 0.59378 0.65762 0.49871 0.0
C1553 C 0.63248 0.6519 0.44683 0.0
C1554 C 0.6449 0.64831 0.47694 0.0
C1555 C 0.63892 0.65236 0.53342 0.0
C1556 C 0.6202 0.65848 0.55943 0.0
C1557 C 0.62598 0.65225 0.50307 0.0
C1558 C 0.58797 0.66259 0.55477 0.0
C1559 C 0.57485 0.66199 0.5247 0.0
H1560 H 0.83757 0.55779 0.75653 0.0
H1561 H 0.87874 0.5743 0.6669 0.0
H1562 H 0.83889 0.61262 0.65527 0.0
H1563 H 0.78794 0.63438 0.66734 0.0
H1564 H 0.74629 0.61617 0.75668 0.0
H1565 H 0.79149 0.5864 0.7721 0.0
C1566 C 0.83803 0.57009 0.7346 0.0
C1567 C 0.86044 0.56275 0.71221 0.0
C1568 C 0.81504 0.59176 0.72808 0.0
C1569 C 0.86143 0.57938 0.6843 0.0
C1570 C 0.83863 0.60119 0.67765 0.0
C1571 C 0.789 0.62458 0.69051 0.0
C1572 C 0.76323 0.6268 0.71044 0.0
C1573 C 0.81463 0.60661 0.69889 0.0
C1574 C 0.76546 0.61448 0.74061 0.0
C1575 C 0.79122 0.59719 0.74939 0.0
H1576 H 0.70439 0.60136 0.89947 0.0
H1577 H 0.66799 0.58238 0.99085 0.0
H1578 H 0.64111 0.53511 0.97017 0.0
H1579 H 0.63479 0.49546 0.92827 0.0
H1580 H 0.67127 0.51383 0.83696 0.0
H1581 H 0.69117 0.56535 0.85542 0.0
C1582 C 0.69008 0.58719 0.91473 0.0
C1583 C 0.68873 0.59495 0.94678 0.0
C1584 C 0.67512 0.5598 0.90281 0.0
C1585 C 0.66964 0.57676 0.96615 0.0
C1586 C 0.65443 0.54961 0.9544 0.0
C1587 C 0.64675 0.51096 0.91234 0.0
C1588 C 0.65224 0.5008 0.88157 0.0
C1589 C 0.65814 0.54028 0.92313 0.0
C1590 C 0.66704 0.5212 0.86083 0.0
C1591 C 0.6785 0.55054 0.87141 0.0
H1592 H 0.70469 0.42222 0.20733 0.0
H1593 H 0.66288 0.37412 0.12654 0.0
H1594 H 0.7143 0.37137 0.1027 0.0
H1595 H 0.77038 0.38624 0.10331 0.0
H1596 H 0.81087 0.43643 0.18367 0.0
H1597 H 0.76042 0.43503 0.20893 0.0
C1598 C 0.70674 0.41071 0.18468 0.0
C1599 C 0.67988 0.39858 0.16866 0.0
C1600 C 0.73607 0.41008 0.17077 0.0
C1601 C 0.68314 0.38375 0.13935 0.0
C1602 C 0.71251 0.38235 0.12562 0.0
C1603 C 0.76821 0.39691 0.12633 0.0
C1604 C 0.79444 0.41171 0.14135 0.0
C1605 C 0.739 0.39615 0.14081 0.0
C1606 C 0.79114 0.42511 0.17135 0.0
C1607 C 0.76229 0.42422 0.18594 0.0
H1608 H 0.77032 0.47121 0.49519 0.0
H1609 H 0.83144 0.41274 0.44212 0.0
H1610 H 0.84452 0.45668 0.40852 0.0
H1611 H 0.83615 0.51079 0.39259 0.0
H1612 H 0.77418 0.56839 0.44585 0.0
H1613 H 0.76391 0.52546 0.481 0.0
C1614 C 0.78668 0.46802 0.47641 0.0
C1615 C 0.79969 0.43865 0.47102 0.0
C1616 C 0.79378 0.49315 0.45708 0.0
C1617 C 0.82104 0.43509 0.44674 0.0
C1618 C 0.82843 0.46017 0.42745 0.0
C1619 C 0.82047 0.51403 0.41193 0.0
C1620 C 0.80578 0.54279 0.41632 0.0
C1621 C 0.81452 0.48916 0.43211 0.0
C1622 C 0.78574 0.54656 0.44172 0.0
C1623 C 0.77981 0.522 0.46189 0.0
H1624 H 0.80879 0.41749 0.75478 0.0
H1625 H 0.84872 0.40794 0.8474 0.0
H1626 H 0.79748 0.3916 0.86676 0.0
H1627 H 0.74061 0.38816 0.85885 0.0
H1628 H 0.70062 0.40084 0.76659 0.0
H1629 H 0.75288 0.40741 0.74553 0.0
C1630 C 0.80641 0.41141 0.77914 0.0
C1631 C 0.83231 0.41459 0.79982 0.0
C1632 C 0.77686 0.40289 0.7902 0.0
C1633 C 0.82905 0.40596 0.8311 0.0
C1634 C 0.79973 0.39679 0.8422 0.0
C1635 C 0.74324 0.39185 0.83402 0.0
C1636 C 0.71664 0.39473 0.81448 0.0
C1637 C 0.77331 0.39644 0.8222 0.0
C1638 C 0.72062 0.39896 0.78228 0.0
C1639 C 0.75051 0.40282 0.77021 0.0
H1640 H 0.84163 0.59135 0.01402 0.0
H1641 H 0.81275 0.53387 0.93391 0.0
H1642 H 0.83552 0.48837 0.95806 0.0
H1643 H 0.85794 0.46399 0.00432 0.0
H1644 H 0.88531 0.52143 0.08506 0.0
H1645 H 0.86911 0.56796 0.05796 0.0
C1646 C 0.84062 0.56896 0.00165 0.0
C1647 C 0.82505 0.56587 0.97247 0.0
C1648 C 0.85328 0.54285 0.01585 0.0
C1649 C 0.82438 0.53682 0.95654 0.0
C1650 C 0.8373 0.51076 0.97037 0.0
C1651 C 0.86077 0.48669 0.01591 0.0
C1652 C 0.87229 0.48904 0.04693 0.0
C1653 C 0.85092 0.51334 0.00042 0.0
C1654 C 0.87617 0.51879 0.06134 0.0
C1655 C 0.86684 0.54546 0.04589 0.0
H1656 H 0.67986 0.52688 0.22145 0.0
H1657 H 0.61364 0.5531 0.29146 0.0
H1658 H 0.65381 0.5862 0.31806 0.0
H1659 H 0.70952 0.60117 0.32557 0.0
H1660 H 0.77577 0.57237 0.2565 0.0
H1661 H 0.73374 0.54694 0.22544 0.0
C1662 C 0.674 0.54025 0.24223 0.0
C1663 C 0.64397 0.53704 0.25477 0.0
C1664 C 0.69737 0.55844 0.25788 0.0
C1665 C 0.63667 0.55492 0.28143 0.0
C1666 C 0.65969 0.57371 0.29679 0.0
C1667 C 0.7147 0.58982 0.30346 0.0
C1668 C 0.74587 0.58817 0.29374 0.0
C1669 C 0.69044 0.57463 0.2859 0.0
C1670 C 0.75209 0.57354 0.26488 0.0
C1671 C 0.72805 0.55899 0.24703 0.0
H1672 H 0.69631 0.43836 0.60628 0.0
H1673 H 0.66462 0.47381 0.51767 0.0
H1674 H 0.65437 0.52409 0.54252 0.0
H1675 H 0.66089 0.55977 0.58769 0.0
H1676 H 0.69254 0.52491 0.67638 0.0
H1677 H 0.69634 0.4724 0.65316 0.0
C1678 C 0.68661 0.45689 0.59251 0.0
C1679 C 0.68184 0.45257 0.56007 0.0
C1680 C 0.68129 0.48593 0.60682 0.0
C1681 C 0.6688 0.47661 0.54263 0.0
C1682 C 0.66313 0.50546 0.55676 0.0
C1683 C 0.66844 0.5406 0.60195 0.0
C1684 C 0.6771 0.54613 0.63342 0.0
C1685 C 0.67044 0.51068 0.58853 0.0
C1686 C 0.68604 0.5211 0.65197 0.0
C1687 C 0.68824 0.49117 0.63872 0.0
H1688 H 0.73739 0.82183 0.54639 0.0
H1689 H 0.65166 0.8649 0.5729 0.0
H1690 H 0.64511 0.82747 0.61489 0.0
H1691 H 0.65938 0.77774 0.63795 0.0
H1692 H 0.74463 0.73407 0.61032 0.0
H1693 H 0.75625 0.77718 0.57568 0.0
C1694 C 0.71751 0.82327 0.56166 0.0
C1695 C 0.69463 0.84552 0.55614 0.0
C1696 C 0.7138 0.80159 0.58554 0.0
C1697 C 0.6694 0.84771 0.57651 0.0
C1698 C 0.66561 0.82628 0.60046 0.0
C1699 C 0.6809 0.77795 0.62495 0.0
C1700 C 0.7006 0.75217 0.62613 0.0
C1701 C 0.68703 0.80238 0.60435 0.0
C1702 C 0.72874 0.75329 0.60961 0.0
C1703 C 0.73531 0.77785 0.58953 0.0
H1704 H 0.14451 0.65165 0.478 0.0
H1705 H 0.23856 0.66891 0.44622 0.0
H1706 H 0.22039 0.71066 0.41321 0.0
H1707 H 0.1793 0.7467 0.39893 0.0
H1708 H 0.08508 0.72961 0.42984 0.0
H1709 H 0.10169 0.68303 0.45721 0.0
C1710 C 0.16092 0.66422 0.46346 0.0
C1711 C 0.19293 0.65758 0.46507 0.0
C1712 C 0.15034 0.68836 0.44454 0.0
C1713 C 0.21383 0.6737 0.44568 0.0
C1714 C 0.2035 0.6977 0.42686 0.0
C1715 C 0.16232 0.73244 0.41123 0.0
C1716 C 0.13117 0.74176 0.41284 0.0
C1717 C 0.17205 0.70591 0.42697 0.0
C1718 C 0.10923 0.72288 0.42834 0.0
C1719 C 0.11876 0.6964 0.44417 0.0
H1720 H 0.57253 0.98753 0.67963 0.0
H1721 H 0.60086 0.90075 0.71961 0.0
H1722 H 0.56196 0.87189 0.68685 0.0
H1723 H 0.51565 0.87238 0.6521 0.0
H1724 H 0.48691 0.95962 0.61316 0.0
H1725 H 0.53081 0.9871 0.63972 0.0
C1726 C 0.57037 0.96226 0.68098 0.0
C1727 C 0.58902 0.94634 0.70243 0.0
C1728 C 0.54794 0.9459 0.66224 0.0
C1729 C 0.58651 0.91356 0.70346 0.0
C1730 C 0.56427 0.89706 0.68477 0.0
C1731 C 0.51941 0.89726 0.64875 0.0
C1732 C 0.49767 0.91398 0.63111 0.0
C1733 C 0.54425 0.91311 0.66476 0.0
C1734 C 0.50303 0.94622 0.62695 0.0
C1735 C 0.52804 0.96202 0.64226 0.0
H1736 H 0.31535 0.3442 0.92183 0.0
H1737 H 0.23134 0.29219 0.89267 0.0
H1738 H 0.25859 0.24329 0.89751 0.0
H1739 H 0.30468 0.21515 0.91438 0.0
H1740 H 0.38904 0.2666 0.94292 0.0
H1741 H 0.3631 0.316 0.93415 0.0
C1742 C 0.30312 0.32222 0.91602 0.0
C1743 C 0.27124 0.32188 0.90729 0.0
C1744 C 0.31879 0.2941 0.91929 0.0
C1745 C 0.25583 0.29317 0.89963 0.0
C1746 C 0.27132 0.26514 0.90259 0.0
C1747 C 0.31735 0.2372 0.91876 0.0
C1748 C 0.34847 0.23735 0.92987 0.0
C1749 C 0.30248 0.26533 0.91328 0.0
C1750 C 0.36494 0.26598 0.93464 0.0
C1751 C 0.35015 0.29418 0.92958 0.0
H1752 H 0.46473 0.54305 0.69885 0.0
H1753 H 0.42541 0.62127 0.65123 0.0
H1754 H 0.47784 0.64425 0.64491 0.0
H1755 H 0.53393 0.64476 0.65792 0.0
H1756 H 0.57254 0.56751 0.70782 0.0
H1757 H 0.52102 0.5417 0.70849 0.0
C1758 C 0.46756 0.56487 0.68658 0.0
C1759 C 0.44112 0.58059 0.67583 0.0
C1760 C 0.49756 0.57844 0.68401 0.0
C1761 C 0.44534 0.60875 0.65986 0.0
C1762 C 0.47529 0.62202 0.65646 0.0
C1763 C 0.53116 0.62225 0.66891 0.0
C1764 C 0.55707 0.60836 0.68322 0.0
C1765 C 0.50143 0.60757 0.66938 0.0
C1766 C 0.55303 0.57893 0.6969 0.0
C1767 C 0.52356 0.56408 0.69722 0.0
H1768 H 0.82428 0.18041 0.07488 0.0
H1769 H 0.73582 0.22645 0.07355 0.0
H1770 H 0.76188 0.27544 0.09068 0.0
H1771 H 0.81015 0.30655 0.09796 0.0
H1772 H 0.89923 0.26189 0.0965 0.0
H1773 H 0.87251 0.21077 0.08911 0.0
C1774 C 0.81063 0.20098 0.07908 0.0
C1775 C 0.77827 0.2 0.07248 0.0
C1776 C 0.82591 0.22934 0.08802 0.0
C1777 C 0.76084 0.22678 0.07807 0.0
C1778 C 0.77572 0.2548 0.08778 0.0
C1779 C 0.82374 0.28558 0.09643 0.0
C1780 C 0.85658 0.28798 0.09706 0.0
C1781 C 0.80833 0.25659 0.09148 0.0
C1782 C 0.8739 0.26062 0.09584 0.0
C1783 C 0.85864 0.23144 0.09144 0.0
H1784 H 0.56885 0.03403 0.8398 0.0
H1785 H 0.60225 0.12795 0.82157 0.0
H1786 H 0.5624 0.14904 0.85564 0.0
H1787 H 0.51424 0.1408 0.88522 0.0
H1788 H 0.48061 0.04661 0.90242 0.0
H1789 H 0.52484 0.0257 0.8747 0.0
C1790 C 0.56759 0.05912 0.84348 0.0
C1791 C 0.58806 0.07942 0.8277 0.0
C1792 C 0.54458 0.07105 0.86292 0.0
C1793 C 0.58657 0.11182 0.83322 0.0
C1794 C 0.56376 0.1239 0.85266 0.0
C1795 C 0.51693 0.1157 0.88358 0.0
C1796 C 0.49377 0.09534 0.89547 0.0
C1797 C 0.54209 0.10375 0.86693 0.0
C1798 C 0.49782 0.06287 0.89318 0.0
C1799 C 0.52304 0.05084 0.87717 0.0
H1800 H 0.95324 0.98969 0.33215 0.0
H1801 H 0.8846 0.91439 0.3399 0.0
H1802 H 0.92656 0.87719 0.34686 0.0
H1803 H 0.98296 0.86581 0.34666 0.0
H1804 H 0.05025 0.94179 0.3345 0.0
H1805 H 0.00843 0.97883 0.33274 0.0
C1806 C 0.94729 0.96524 0.33589 0.0
C1807 C 0.91581 0.95484 0.3356 0.0
C1808 C 0.97135 0.94397 0.33841 0.0
C1809 C 0.90868 0.92299 0.34014 0.0
C1810 C 0.93266 0.9017 0.34386 0.0
C1811 C 0.98843 0.89047 0.34365 0.0
C1812 C 0.01975 0.90086 0.34045 0.0
C1813 C 0.96411 0.91184 0.34227 0.0
C1814 C 0.02641 0.93295 0.33662 0.0
C1815 C 0.00251 0.95428 0.33583 0.0
H1816 H 0.47683 0.39525 0.19562 0.0
H1817 H 0.42848 0.3056 0.18662 0.0
H1818 H 0.39901 0.31693 0.23377 0.0
H1819 H 0.3936 0.34896 0.28176 0.0
H1820 H 0.4407 0.43942 0.28955 0.0
H1821 H 0.46368 0.43148 0.23833 0.0
C1822 C 0.45924 0.37861 0.20365 0.0
C1823 C 0.455 0.34954 0.18823 0.0
C1824 C 0.44245 0.38531 0.23062 0.0
C1825 C 0.432 0.32816 0.19831 0.0
C1826 C 0.41538 0.33451 0.22536 0.0
C1827 C 0.40832 0.36716 0.27184 0.0
C1828 C 0.41587 0.39446 0.28943 0.0
C1829 C 0.42139 0.36247 0.24237 0.0
C1830 C 0.43459 0.41818 0.27633 0.0
C1831 C 0.44792 0.41357 0.24718 0.0
H1832 H 0.45483 0.68262 0.93893 0.0
H1833 H 0.36636 0.72844 0.9337 0.0
H1834 H 0.34452 0.69211 0.97135 0.0
H1835 H 0.35287 0.65258 0.01094 0.0
H1836 H 0.4424 0.60902 0.01859 0.0
H1837 H 0.46121 0.63876 0.97426 0.0
C1838 C 0.43062 0.6844 0.94564 0.0
C1839 C 0.41244 0.70859 0.93393 0.0
C1840 C 0.41841 0.66388 0.96783 0.0
C1841 C 0.38102 0.71031 0.94265 0.0
C1842 C 0.36849 0.68954 0.96421 0.0
C1843 C 0.37625 0.64893 0.00247 0.0
C1844 C 0.39632 0.62888 0.0184 0.0
C1845 C 0.38731 0.66695 0.97773 0.0
C1846 C 0.42654 0.62452 0.007 0.0
C1847 C 0.43739 0.64166 0.98174 0.0
H1848 H 0.00771 0.78458 0.70231 0.0
H1849 H 0.05131 0.73039 0.62999 0.0
H1850 H 0.08773 0.70977 0.66866 0.0
H1851 H 0.10383 0.70374 0.72345 0.0
H1852 H 0.05975 0.75794 0.79567 0.0
H1853 H 0.02734 0.78254 0.75632 0.0
C1854 C 0.02526 0.76835 0.69497 0.0
C1855 C 0.0265 0.75857 0.66346 0.0
C1856 C 0.04609 0.75671 0.71724 0.0
C1857 C 0.04975 0.73805 0.65418 0.0
C1858 C 0.07055 0.72627 0.67626 0.0
C1859 C 0.08749 0.72127 0.73063 0.0
C1860 C 0.08396 0.72855 0.76261 0.0
C1861 C 0.06849 0.73497 0.70794 0.0
C1862 C 0.0629 0.75166 0.77131 0.0
C1863 C 0.04416 0.76563 0.74883 0.0
H1864 H 0.01522 0.32357 0.47607 0.0
H1865 H 0.09049 0.37849 0.43673 0.0
H1866 H 0.11482 0.38569 0.48861 0.0
H1867 H 0.11916 0.36856 0.54293 0.0
H1868 H 0.04501 0.31098 0.5811 0.0
H1869 H 0.01584 0.31272 0.53181 0.0
C1870 C 0.03663 0.33767 0.4789 0.0
C1871 C 0.05143 0.34983 0.45251 0.0
C1872 C 0.05103 0.3407 0.50849 0.0
C1873 C 0.07876 0.36861 0.45663 0.0
C1874 C 0.09285 0.37248 0.48626 0.0
C1875 C 0.09643 0.35673 0.54066 0.0
C1876 C 0.08472 0.33899 0.56548 0.0
C1877 C 0.07995 0.35733 0.51203 0.0
C1878 C 0.05493 0.32433 0.56225 0.0
C1879 C 0.03816 0.32532 0.53405 0.0
H1880 H 0.46012 0.62288 0.3307 0.0
H1881 H 0.52485 0.68401 0.28292 0.0
H1882 H 0.50115 0.66819 0.23288 0.0
H1883 H 0.46171 0.63837 0.20264 0.0
H1884 H 0.39636 0.57689 0.24901 0.0
H1885 H 0.42077 0.59148 0.2996 0.0
C1886 C 0.4691 0.63258 0.30932 0.0
C1887 C 0.49411 0.65471 0.31065 0.0
C1888 C 0.45524 0.62347 0.28036 0.0
C1889 C 0.50551 0.66707 0.28269 0.0
C1890 C 0.49198 0.65806 0.25398 0.0
C1891 C 0.45266 0.62812 0.22375 0.0
C1892 C 0.42711 0.60671 0.22198 0.0
C1893 C 0.46672 0.63653 0.25258 0.0
C1894 C 0.416 0.59348 0.24965 0.0
C1895 C 0.42993 0.60182 0.27861 0.0
H1896 H 0.10804 0.6498 0.06046 0.0
H1897 H 0.0149 0.62469 0.02621 0.0
H1898 H 0.03447 0.61766 0.97352 0.0
H1899 H 0.07531 0.63034 0.93619 0.0
H1900 H 0.16809 0.65738 0.96954 0.0
H1901 H 0.15157 0.65161 0.02368 0.0
C1902 C 0.09223 0.64174 0.04168 0.0
C1903 C 0.05995 0.6387 0.04695 0.0
C1904 C 0.10347 0.63879 0.0112 0.0
C1905 C 0.03978 0.62784 0.02252 0.0
C1906 C 0.05089 0.624 0.99235 0.0
C1907 C 0.09204 0.63422 0.95537 0.0
C1908 C 0.12254 0.64497 0.94922 0.0
C1909 C 0.08226 0.63135 0.9862 0.0
C1910 C 0.14436 0.64932 0.97395 0.0
C1911 C 0.13487 0.6462 0.00484 0.0
H1912 H 0.08502 0.18281 0.81642 0.0
H1913 H 0.11568 0.2549 0.883 0.0
H1914 H 0.14499 0.28149 0.84237 0.0
H1915 H 0.15243 0.28953 0.78635 0.0
H1916 H 0.1195 0.21833 0.71958 0.0
H1917 H 0.10129 0.18582 0.762 0.0
C1918 C 0.09869 0.20398 0.82219 0.0
C1919 C 0.09748 0.21737 0.85238 0.0
C1920 C 0.1148 0.21951 0.79859 0.0
C1921 C 0.11588 0.24435 0.85979 0.0
C1922 C 0.13251 0.25967 0.83651 0.0
C1923 C 0.14205 0.26655 0.78104 0.0
C1924 C 0.13643 0.25688 0.74974 0.0
C1925 C 0.13073 0.24831 0.80552 0.0
C1926 C 0.12348 0.22674 0.74341 0.0
C1927 C 0.11291 0.20813 0.76767 0.0
H1928 H 0.45151 0.26478 0.56431 0.0
H1929 H 0.38631 0.31617 0.61941 0.0
H1930 H 0.37656 0.35066 0.57532 0.0
H1931 H 0.38419 0.36351 0.52 0.0
H1932 H 0.45113 0.3126 0.46617 0.0
H1933 H 0.46305 0.28091 0.51123 0.0
C1934 C 0.43519 0.28358 0.56665 0.0
C1935 C 0.41915 0.2877 0.59467 0.0
C1936 C 0.43017 0.30341 0.54156 0.0
C1937 C 0.3987 0.31254 0.59785 0.0
C1938 C 0.39313 0.33217 0.57269 0.0
C1939 C 0.40164 0.34572 0.51823 0.0
C1940 C 0.41644 0.34021 0.4896 0.0
C1941 C 0.4084 0.32747 0.54427 0.0
C1942 C 0.43933 0.31736 0.48785 0.0
C1943 C 0.44604 0.29905 0.51355 0.0
H1944 H 0.20784 0.49486 0.30434 0.0
H1945 H 0.15442 0.42506 0.35378 0.0
H1946 H 0.20291 0.40429 0.37516 0.0
H1947 H 0.2602 0.4077 0.38145 0.0
H1948 H 0.31285 0.47791 0.33149 0.0
H1949 H 0.26463 0.49667 0.30851 0.0
C1950 C 0.2067 0.47507 0.31979 0.0
C1951 C 0.17756 0.46172 0.32776 0.0
C1952 C 0.23447 0.46336 0.33189 0.0
C1953 C 0.17657 0.43581 0.3474 0.0
C1954 C 0.20427 0.42398 0.35965 0.0
C1955 C 0.26119 0.42702 0.36543 0.0
C1956 C 0.29018 0.44151 0.35845 0.0
C1957 C 0.23332 0.43784 0.35231 0.0
C1958 C 0.29095 0.46634 0.33741 0.0
C1959 C 0.26337 0.47716 0.32427 0.0
H1960 H 0.22853 0.42754 0.04337 0.0
H1961 H 0.25402 0.46615 0.95471 0.0
H1962 H 0.2877 0.50583 0.9815 0.0
H1963 H 0.30882 0.5302 0.03025 0.0
H1964 H 0.28569 0.48952 0.11869 0.0
H1965 H 0.25233 0.44976 0.09185 0.0
C1966 C 0.24146 0.4447 0.02998 0.0
C1967 C 0.23865 0.44425 -0.00276 0.0
C1968 C 0.26122 0.46693 0.04546 0.0
C1969 C 0.25588 0.46615 0.98001 0.0
C1970 C 0.27506 0.48883 0.99528 0.0
C1971 C 0.29654 0.51255 0.04359 0.0
C1972 C 0.29952 0.51286 0.07635 0.0
C1973 C 0.27776 0.48953 0.02801 0.0
C1974 C 0.28384 0.48966 0.0934 0.0
C1975 C 0.26465 0.46703 0.07811 0.0
H1976 H 0.30877 0.61836 0.71774 0.0
H1977 H 0.36237 0.64979 0.79942 0.0
H1978 H 0.31891 0.68136 0.81642 0.0
H1979 H 0.26243 0.68923 0.81407 0.0
H1980 H 0.20818 0.65499 0.73363 0.0
H1981 H 0.25548 0.63653 0.70953 0.0
C1982 C 0.31117 0.63274 0.73887 0.0
C1983 C 0.33819 0.63103 0.75787 0.0
C1984 C 0.28588 0.65016 0.74883 0.0
C1985 C 0.34153 0.65038 0.78468 0.0
C1986 C 0.31663 0.66831 0.79448 0.0
C1987 C 0.26098 0.6786 0.79085 0.0
C1988 C 0.23156 0.67226 0.77634 0.0
C1989 C 0.28809 0.6668 0.77768 0.0
C1990 C 0.23036 0.6594 0.7458 0.0
C1991 C 0.25741 0.64857 0.73205 0.0
H1992 H 0.18428 0.55439 0.65944 0.0
H1993 H 0.13453 0.54192 0.57105 0.0
H1994 H 0.12013 0.48837 0.58415 0.0
H1995 H 0.12939 0.44282 0.61645 0.0
H1996 H 0.17921 0.4546 0.70465 0.0
H1997 H 0.18566 0.51079 0.69601 0.0
C1998 C 0.16964 0.54024 0.64337 0.0
C1999 C 0.16126 0.55187 0.61395 0.0
C2000 C 0.16192 0.50918 0.65077 0.0
C2001 C 0.14181 0.53338 0.59363 0.0
C2002 C 0.13368 0.50266 0.60101 0.0
C2003 C 0.14121 0.45784 0.63398 0.0
C2004 C 0.15439 0.44471 0.66078 0.0
C2005 C 0.14491 0.48992 0.62879 0.0
C2006 C 0.16905 0.4643 0.68372 0.0
C2007 C 0.17286 0.49636 0.67872 0.0
H2008 H 0.19732 0.58806 0.26492 0.0
H2009 H 0.13906 0.60267 0.1833 0.0
H2010 H 0.18558 0.61374 0.15265 0.0
H2011 H 0.24244 0.60997 0.14713 0.0
H2012 H 0.29996 0.59067 0.22813 0.0
H2013 H 0.25399 0.59065 0.2609 0.0
C2014 C 0.19466 0.5943 0.24058 0.0
C2015 C 0.16477 0.59382 0.22625 0.0
C2016 C 0.22144 0.59915 0.22282 0.0
C2017 C 0.16181 0.60248 0.19483 0.0
C2018 C 0.18843 0.60857 0.17723 0.0
C2019 C 0.24501 0.60634 0.17205 0.0
C2020 C 0.2745 0.59972 0.18506 0.0
C2021 C 0.21834 0.60546 0.19064 0.0
C2022 C 0.27745 0.59524 0.21742 0.0
C2023 C 0.25119 0.59528 0.23621 0.0
H2024 H 0.22932 0.4665 0.86498 0.0
H2025 H 0.13189 0.43731 0.86447 0.0
H2026 H 0.11727 0.48918 0.84681 0.0
H2027 H 0.13224 0.54431 0.83675 0.0
H2028 H 0.22942 0.57392 0.84377 0.0
H2029 H 0.24426 0.52024 0.85361 0.0
C2030 C 0.20488 0.47121 0.86047 0.0
C2031 C 0.18168 0.44813 0.86594 0.0
C2032 C 0.19669 0.50128 0.85185 0.0
C2033 C 0.15013 0.45477 0.86039 0.0
C2034 C 0.1418 0.48442 0.85045 0.0
C2035 C 0.15666 0.53877 0.84004 0.0
C2036 C 0.17979 0.56278 0.83962 0.0
C2037 C 0.16486 0.50809 0.84691 0.0
C2038 C 0.21131 0.55569 0.84425 0.0
C2039 C 0.21977 0.52508 0.8498 0.0
H2040 H 0.34839 0.42589 0.67993 0.0
H2041 H 0.30741 0.47063 0.75992 0.0
H2042 H 0.26662 0.42979 0.76097 0.0
H2043 H 0.23848 0.38638 0.73489 0.0
H2044 H 0.27457 0.34527 0.65064 0.0
H2045 H 0.32191 0.37874 0.65608 0.0
C2046 C 0.33073 0.42633 0.69778 0.0
C2047 C 0.33056 0.45136 0.71952 0.0
C2048 C 0.30656 0.4033 0.69755 0.0
C2049 C 0.30764 0.45183 0.74259 0.0
C2050 C 0.28441 0.42841 0.74332 0.0
C2051 C 0.25716 0.38391 0.71829 0.0
C2052 C 0.25306 0.36341 0.69241 0.0
C2053 C 0.28307 0.40464 0.72035 0.0
C2054 C 0.27728 0.36089 0.67082 0.0
C2055 C 0.30414 0.38028 0.67372 0.0
H2056 H 0.32521 0.58787 0.50426 0.0
H2057 H 0.25923 0.52464 0.54745 0.0
H2058 H 0.28835 0.48002 0.52913 0.0
H2059 H 0.32797 0.45894 0.49539 0.0
H2060 H 0.39178 0.52148 0.44832 0.0
H2061 H 0.3687 0.5663 0.47441 0.0
C2062 C 0.31753 0.56433 0.51004 0.0
C2063 C 0.28985 0.55954 0.52674 0.0
C2064 C 0.33397 0.53863 0.49872 0.0
C2065 C 0.28018 0.52893 0.53417 0.0
C2066 C 0.29687 0.50339 0.52378 0.0
C2067 C 0.3374 0.48227 0.49126 0.0
C2068 C 0.36128 0.48677 0.46948 0.0
C2069 C 0.32317 0.50794 0.50521 0.0
C2070 C 0.37322 0.51728 0.46472 0.0
C2071 C 0.35987 0.54298 0.47947 0.0
H2072 H 0.31248 0.18312 0.39072 0.0
H2073 H 0.22413 0.22147 0.41629 0.0
H2074 H 0.24415 0.27402 0.40546 0.0
H2075 H 0.2893 0.30942 0.39703 0.0
H2076 H 0.37779 0.27082 0.37197 0.0
H2077 H 0.35494 0.21816 0.37381 0.0
C2078 C 0.29741 0.20292 0.39331 0.0
C2079 C 0.26717 0.1985 0.40497 0.0
C2080 C 0.30919 0.23312 0.38749 0.0
C2081 C 0.24767 0.22426 0.40765 0.0
C2082 C 0.25914 0.25438 0.40164 0.0
C2083 C 0.30345 0.28954 0.39142 0.0
C2084 C 0.3354 0.29412 0.38516 0.0
C2085 C 0.2903 0.25918 0.39287 0.0
C2086 C 0.35322 0.26807 0.37729 0.0
C2087 C 0.34023 0.23785 0.37844 0.0
H2088 H 0.7688 0.30402 0.5813 0.0
H2089 H 0.85889 0.35229 0.58053 0.0
H2090 H 0.88456 0.30345 0.59252 0.0
H2091 H 0.88148 0.24614 0.59673 0.0
H2092 H 0.79111 0.1982 0.59367 0.0
H2093 H 0.76544 0.24807 0.58956 0.0
C2094 C 0.79405 0.30408 0.58412 0.0
C2095 C 0.81194 0.33169 0.57956 0.0
C2096 C 0.8086 0.27591 0.58991 0.0
C2097 C 0.84459 0.33132 0.58371 0.0
C2098 C 0.85927 0.30337 0.59039 0.0
C2099 C 0.85615 0.24663 0.59563 0.0
C2100 C 0.83824 0.21846 0.59512 0.0
C2101 C 0.84154 0.27536 0.59252 0.0
C2102 C 0.80545 0.2195 0.59368 0.0
C2103 C 0.79074 0.248 0.59138 0.0
H2104 H 0.38545 0.0594 0.31184 0.0
H2105 H 0.43397 0.97241 0.30803 0.0
H2106 H 0.48116 -0.00148 0.32974 0.0
H2107 H 0.51023 0.04678 0.34374 0.0
H2108 H 0.46285 0.13431 0.34739 0.0
H2109 H 0.41347 0.10725 0.33184 0.0
C2110 C 0.4061 0.04603 0.31656 0.0
C2111 C 0.40635 0.01409 0.30807 0.0
C2112 C 0.43347 0.06138 0.32836 0.0
C2113 C 0.43331 -0.00292 0.31415 0.0
C2114 C 0.46035 0.01201 0.32638 0.0
C2115 C 0.48907 0.05996 0.34121 0.0
C2116 C 0.49024 0.09255 0.34598 0.0
C2117 C 0.46099 0.0443 0.33243 0.0
C2118 C 0.46253 0.10921 0.3435 0.0
C2119 C 0.43435 0.09375 0.33462 0.0
H2120 H 0.71972 0.66933 0.07954 0.0
H2121 H 0.78715 0.7258 0.03033 0.0
H2122 H 0.77375 0.77175 0.06121 0.0
H2123 H 0.73787 0.79714 0.09601 0.0
H2124 H 0.66666 0.74243 0.14219 0.0
H2125 H 0.68706 0.69452 0.11944 0.0
C2126 C 0.73186 0.6916 0.07618 0.0
C2127 C 0.75406 0.69441 0.05255 0.0
C2128 C 0.7232 0.71828 0.09328 0.0
C2129 C 0.76965 0.7233 0.04817 0.0
C2130 C 0.76203 0.74955 0.0658 0.0
C2131 C 0.72704 0.77475 0.10162 0.0
C2132 C 0.70034 0.77354 0.12025 0.0
C2133 C 0.73801 0.74754 0.0875 0.0
C2134 C 0.68705 0.74417 0.12763 0.0
C2135 C 0.69858 0.71672 0.11446 0.0
H2136 H 0.57038 0.46757 0.30762 0.0
H2137 H 0.59709 0.37213 0.31982 0.0
H2138 H 0.56027 0.36673 0.36269 0.0
H2139 H 0.51402 0.38618 0.38902 0.0
H2140 H 0.48616 0.48115 0.37477 0.0
H2141 H 0.53102 0.49019 0.3416 0.0
C2142 C 0.56847 0.44574 0.32004 0.0
C2143 C 0.58565 0.41998 0.31015 0.0
C2144 C 0.54718 0.44281 0.34437 0.0
C2145 C 0.58374 0.39212 0.32686 0.0
C2146 C 0.56268 0.38904 0.35129 0.0
C2147 C 0.51824 0.40919 0.37948 0.0
C2148 C 0.49604 0.43259 0.38353 0.0
C2149 C 0.54331 0.41382 0.35924 0.0
C2150 C 0.50246 0.4625 0.3717 0.0
C2151 C 0.52793 0.46759 0.35232 0.0
H2152 H 0.17533 0.84407 0.98198 0.0
H2153 H 0.26959 0.81085 0.98622 0.0
H2154 H 0.25813 0.77584 0.94153 0.0
H2155 H 0.21995 0.75079 0.90509 0.0
H2156 H 0.12539 0.78345 0.90111 0.0
H2157 H 0.13874 0.82314 0.94119 0.0
C2158 C 0.19342 0.82932 0.97299 0.0
C2159 C 0.22307 0.82966 0.98777 0.0
C2160 C 0.1867 0.80922 0.94723 0.0
C2161 C 0.24645 0.81085 0.97547 0.0
C2162 C 0.23994 0.79081 0.94989 0.0
C2163 C 0.20234 0.76693 0.91249 0.0
C2164 C 0.17155 0.76366 0.90039 0.0
C2165 C 0.20994 0.78927 0.93608 0.0
C2166 C 0.14924 0.78516 0.91009 0.0
C2167 C 0.15677 0.80777 0.93325 0.0
H2168 H 0.4488 0.95465 0.18227 0.0
H2169 H 0.41543 0.85841 0.18287 0.0
H2170 H 0.46852 0.84098 0.17379 0.0
H2171 H 0.52499 0.85325 0.17093 0.0
H2172 H 0.5576 0.94993 0.17326 0.0
H2173 H 0.50404 0.9669 0.17638 0.0
C2174 C 0.45294 0.92982 0.18002 0.0
C2175 C 0.42825 0.90785 0.18365 0.0
C2176 C 0.48347 0.92002 0.17593 0.0
C2177 C 0.43408 0.87581 0.18037 0.0
C2178 C 0.46445 0.86583 0.17539 0.0
C2179 C 0.52041 0.87803 0.17203 0.0
C2180 C 0.54541 0.90022 0.1723 0.0
C2181 C 0.48946 0.88775 0.1741 0.0
C2182 C 0.53894 0.93226 0.17343 0.0
C2183 C 0.50828 0.94205 0.17508 0.0
H2184 H 0.08776 0.03612 0.65759 0.0
H2185 H 0.11222 0.1341 0.67182 0.0
H2186 H 0.06339 0.1481 0.64577 0.0
H2187 H 0.01121 0.13248 0.6261 0.0
H2188 H 0.98464 0.03447 0.61669 0.0
H2189 H 0.03725 0.02049 0.63344 0.0
C2190 C 0.08278 0.06058 0.65447 0.0
C2191 C 0.10347 0.08408 0.66694 0.0
C2192 C 0.05416 0.0684 0.64067 0.0
C2193 C 0.09658 0.1156 0.66266 0.0
C2194 C 0.06863 0.12359 0.64787 0.0
C2195 C 0.01695 0.108 0.62711 0.0
C2196 C 0.99379 0.08453 0.62049 0.0
C2197 C 0.04679 0.10017 0.63788 0.0
C2198 C 0.00186 0.053 0.62191 0.0
C2199 C 0.03193 0.045 0.63158 0.0
loop_
_geom_bond_atom_site_label_1
_geom_bond_atom_site_label_2
_geom_bond_distance
_geom_bond_site_symmetry_2
_ccdc_geom_bond_type
C0 O1 1.160 . S
C0 O7 1.185 . S
O1 C0 1.160 . S
O2 Zn3 1.899 . S
O2 C10 1.284 . S
Zn3 O2 1.899 . S
Zn3 O4 2.032 1_455 S
Zn3 O7 2.086 . S
Zn3 O12 1.977 1_455 S
O4 Zn3 2.032 1_655 S
O4 C8 1.278 . S
C5 O6 1.203 . S
C5 O12 1.267 . S
O6 C5 1.203 . S
O7 C0 1.185 . S
O7 Zn3 2.086 . S
C8 O4 1.278 . S
C8 O9 1.211 . S
O9 C8 1.211 . S
C10 O2 1.284 . S
C10 O11 1.273 . S
O11 C10 1.273 . S
O12 Zn3 1.977 1_655 S
O12 C5 1.267 . S
C13 O14 1.160 . S
C13 O20 1.185 . S
O14 C13 1.160 . S
O15 Zn16 1.899 1_655 S
O15 C23 1.284 . S
Zn16 O15 1.899 1_455 S
Zn16 O17 2.032 1_455 S
Zn16 O20 2.086 . S
Zn16 O25 1.977 . S
O17 Zn16 2.032 1_655 S
O17 C21 1.278 . S
C18 O19 1.203 . S
C18 O25 1.267 . S
O19 C18 1.203 . S
O20 C13 1.185 . S
O20 Zn16 2.086 . S
C21 O17 1.278 . S
C21 O22 1.211 . S
O22 C21 1.211 . S
C23 O15 1.284 . S
C23 O24 1.273 . S
O24 C23 1.273 . S
O25 Zn16 1.977 . S
O25 C18 1.267 . S
C26 O27 1.160 . S
C26 O33 1.185 . S
O27 C26 1.160 . S
O28 Zn29 1.899 . S
O28 C36 1.284 . S
Zn29 O28 1.899 . S
Zn29 O30 2.032 . S
Zn29 O33 2.086 . S
Zn29 O38 1.977 . S
O30 Zn29 2.032 . S
O30 C34 1.278 . S
C31 O32 1.203 . S
C31 O38 1.267 . S
O32 C31 1.203 . S
O33 C26 1.185 . S
O33 Zn29 2.086 . S
C34 O30 1.278 . S
C34 O35 1.211 . S
O35 C34 1.211 . S
C36 O28 1.284 . S
C36 O37 1.273 . S
O37 C36 1.273 . S
O38 Zn29 1.977 . S
O38 C31 1.267 . S
C39 O40 1.160 . S
C39 O46 1.185 . S
O40 C39 1.160 . S
O41 Zn42 1.899 . S
O41 C49 1.284 . S
Zn42 O41 1.899 . S
Zn42 O43 2.032 . S
Zn42 O46 2.086 . S
Zn42 O51 1.977 . S
O43 Zn42 2.032 . S
O43 C47 1.278 . S
C44 O45 1.203 . S
C44 O51 1.267 . S
O45 C44 1.203 . S
O46 C39 1.185 . S
O46 Zn42 2.086 . S
C47 O43 1.278 . S
C47 O48 1.211 . S
O48 C47 1.211 . S
C49 O41 1.284 . S
C49 O50 1.273 . S
O50 C49 1.273 . S
O51 Zn42 1.977 . S
O51 C44 1.267 . S
C52 O53 1.160 . S
C52 O59 1.185 . S
O53 C52 1.160 . S
O54 Zn55 1.899 . S
O54 C62 1.284 . S
Zn55 O54 1.899 . S
Zn55 O56 2.032 1_455 S
Zn55 O59 2.086 . S
Zn55 O64 1.977 1_455 S
O56 Zn55 2.032 1_655 S
O56 C60 1.278 . S
C57 O58 1.203 . S
C57 O64 1.267 . S
O58 C57 1.203 . S
O59 C52 1.185 . S
O59 Zn55 2.086 . S
C60 O56 1.278 . S
C60 O61 1.211 . S
O61 C60 1.211 . S
C62 O54 1.284 . S
C62 O63 1.273 . S
O63 C62 1.273 . S
O64 Zn55 1.977 1_655 S
O64 C57 1.267 . S
C65 O66 1.160 . S
C65 O72 1.185 . S
O66 C65 1.160 . S
O67 Zn68 1.899 . S
O67 C75 1.284 . S
Zn68 O67 1.899 . S
Zn68 O69 2.032 . S
Zn68 O72 2.086 . S
Zn68 O77 1.977 . S
O69 Zn68 2.032 . S
O69 C73 1.278 . S
C70 O71 1.203 . S
C70 O77 1.267 . S
O71 C70 1.203 . S
O72 C65 1.185 . S
O72 Zn68 2.086 . S
C73 O69 1.278 . S
C73 O74 1.211 . S
O74 C73 1.211 . S
C75 O67 1.284 . S
C75 O76 1.273 . S
O76 C75 1.273 . S
O77 Zn68 1.977 . S
O77 C70 1.267 . S
C78 O79 1.160 . S
C78 O85 1.185 . S
O79 C78 1.160 . S
O80 Zn81 1.899 . S
O80 C88 1.284 . S
Zn81 O80 1.899 . S
Zn81 O82 2.032 . S
Zn81 O85 2.086 . S
Zn81 O90 1.977 . S
O82 Zn81 2.032 . S
O82 C86 1.278 . S
C83 O84 1.203 . S
C83 O90 1.267 . S
O84 C83 1.203 . S
O85 C78 1.185 . S
O85 Zn81 2.086 . S
C86 O82 1.278 . S
C86 O87 1.211 . S
O87 C86 1.211 . S
C88 O80 1.284 . S
C88 O89 1.273 . S
O89 C88 1.273 . S
O90 Zn81 1.977 . S
O90 C83 1.267 . S
C91 O92 1.160 . S
C91 O98 1.185 . S
O92 C91 1.160 . S
O93 Zn94 1.899 . S
O93 C101 1.284 1_455 S
Zn94 O93 1.899 . S
Zn94 O95 2.032 1_455 S
Zn94 O98 2.086 . S
Zn94 O103 1.977 . S
O95 Zn94 2.032 1_655 S
O95 C99 1.278 . S
C96 O97 1.203 . S
C96 O103 1.267 . S
O97 C96 1.203 . S
O98 C91 1.185 . S
O98 Zn94 2.086 . S
C99 O95 1.278 . S
C99 O100 1.211 . S
O100 C99 1.211 . S
C101 O93 1.284 1_655 S
C101 O102 1.273 . S
O102 C101 1.273 . S
O103 Zn94 1.977 . S
O103 C96 1.267 . S
C104 O105 1.160 . S
C104 O111 1.185 . S
O105 C104 1.160 . S
O106 Zn107 1.899 1_565 S
O106 C114 1.284 . S
Zn107 O106 1.899 1_545 S
Zn107 O108 2.032 . S
Zn107 O111 2.086 1_545 S
Zn107 O116 1.977 . S
O108 Zn107 2.032 . S
O108 C112 1.278 . S
C109 O110 1.203 . S
C109 O116 1.267 . S
O110 C109 1.203 . S
O111 C104 1.185 . S
O111 Zn107 2.086 1_565 S
C112 O108 1.278 . S
C112 O113 1.211 . S
O113 C112 1.211 . S
C114 O106 1.284 . S
C114 O115 1.259 1_565 S
O115 C114 1.259 1_545 S
O116 Zn107 1.977 . S
O116 C109 1.267 . S
C117 O118 1.160 . S
C117 O124 1.185 . S
O118 C117 1.160 . S
O119 Zn120 1.899 . S
O119 C127 1.284 . S
Zn120 O119 1.899 . S
Zn120 O121 2.032 . S
Zn120 O124 2.086 . S
Zn120 O129 1.977 . S
O121 Zn120 2.032 . S
O121 C125 1.278 . S
C122 O123 1.203 . S
C122 O129 1.267 . S
O123 C122 1.203 . S
O124 C117 1.185 . S
O124 Zn120 2.086 . S
C125 O121 1.278 . S
C125 O126 1.211 . S
O126 C125 1.211 . S
C127 O119 1.284 . S
C127 O128 1.273 . S
O128 C127 1.273 . S
O129 Zn120 1.977 . S
O129 C122 1.267 . S
C130 O131 1.160 . S
C130 O137 1.185 . S
O131 C130 1.160 . S
O132 Zn133 1.899 . S
O132 C140 1.284 . S
Zn133 O132 1.899 . S
Zn133 O134 2.032 1_565 S
Zn133 O137 2.086 . S
Zn133 O142 1.977 1_565 S
O134 Zn133 2.032 1_545 S
O134 C138 1.278 . S
C135 O136 1.203 . S
C135 O142 1.267 . S
O136 C135 1.203 . S
O137 C130 1.185 . S
O137 Zn133 2.086 . S
C138 O134 1.278 . S
C138 O139 1.211 . S
O139 C138 1.211 . S
C140 O132 1.284 . S
C140 O141 1.273 . S
O141 C140 1.273 . S
O142 Zn133 1.977 1_545 S
O142 C135 1.267 . S
C143 O144 1.160 . S
C143 O150 1.185 . S
O144 C143 1.160 . S
O145 Zn146 1.899 . S
O145 C153 1.284 1_554 S
Zn146 O145 1.899 . S
Zn146 O147 2.032 1_554 S
Zn146 O150 2.086 . S
Zn146 O155 1.977 . S
O147 Zn146 2.032 1_556 S
O147 C151 1.278 . S
C148 O149 1.203 . S
C148 O155 1.267 . S
O149 C148 1.203 . S
O150 C143 1.185 . S
O150 Zn146 2.086 . S
C151 O147 1.278 . S
C151 O152 1.211 . S
O152 C151 1.211 . S
C153 O145 1.284 1_556 S
C153 O154 1.273 . S
O154 C153 1.273 . S
O155 Zn146 1.977 . S
O155 C148 1.267 . S
C156 O157 1.160 . S
C156 O163 1.185 . S
O157 C156 1.160 . S
O158 Zn159 1.899 1_556 S
O158 C166 1.284 . S
Zn159 O158 1.899 1_554 S
Zn159 O160 2.032 . S
Zn159 O163 2.086 1_554 S
Zn159 O168 1.977 . S
O160 Zn159 2.032 . S
O160 C164 1.278 . S
C161 O162 1.203 . S
C161 O168 1.267 . S
O162 C161 1.203 . S
O163 C156 1.185 . S
O163 Zn159 2.086 1_556 S
C164 O160 1.278 . S
C164 O165 1.211 . S
O165 C164 1.211 . S
C166 O158 1.284 . S
C166 O167 1.295 . S
O167 C166 1.295 . S
O168 Zn159 1.977 . S
O168 C161 1.267 . S
C169 O170 1.160 . S
C169 O176 1.185 . S
O170 C169 1.160 . S
O171 Zn172 1.899 . S
O171 C179 1.284 . S
Zn172 O171 1.899 . S
Zn172 O173 2.032 1_556 S
Zn172 O176 2.086 . S
Zn172 O181 1.977 1_556 S
O173 Zn172 2.032 1_554 S
O173 C177 1.278 . S
C174 O175 1.203 . S
C174 O181 1.267 . S
O175 C174 1.203 . S
O176 C169 1.185 . S
O176 Zn172 2.086 . S
C177 O173 1.278 . S
C177 O178 1.211 . S
O178 C177 1.211 . S
C179 O171 1.284 . S
C179 O180 1.273 . S
O180 C179 1.273 . S
O181 Zn172 1.977 1_554 S
O181 C174 1.267 . S
C182 O183 1.160 . S
C182 O189 1.185 . S
O183 C182 1.160 . S
O184 Zn185 1.899 . S
O184 C192 1.284 . S
Zn185 O184 1.899 . S
Zn185 O186 2.032 . S
Zn185 O189 2.086 . S
Zn185 O194 1.977 . S
O186 Zn185 2.032 . S
O186 C190 1.278 . S
C187 O188 1.203 . S
C187 O194 1.267 . S
O188 C187 1.203 . S
O189 C182 1.185 . S
O189 Zn185 2.086 . S
C190 O186 1.278 . S
C190 O191 1.211 . S
O191 C190 1.211 . S
C192 O184 1.284 . S
C192 O193 1.273 . S
O193 C192 1.273 . S
O194 Zn185 1.977 . S
O194 C187 1.267 . S
C195 O196 1.160 . S
C195 O202 1.185 . S
O196 C195 1.160 . S
O197 Zn198 1.899 . S
O197 C205 1.284 . S
Zn198 O197 1.899 . S
Zn198 O199 2.032 . S
Zn198 O202 2.086 . S
Zn198 O207 1.977 . S
O199 Zn198 2.032 . S
O199 C203 1.278 . S
C200 O201 1.203 . S
C200 O207 1.267 . S
O201 C200 1.203 . S
O202 C195 1.185 . S
O202 Zn198 2.086 . S
C203 O199 1.278 . S
C203 O204 1.211 . S
O204 C203 1.211 . S
C205 O197 1.284 . S
C205 O206 1.273 . S
O206 C205 1.273 . S
O207 Zn198 1.977 . S
O207 C200 1.267 . S
C208 O209 1.160 . S
C208 O215 1.185 . S
O209 C208 1.160 . S
O210 Zn211 1.899 . S
O210 C218 1.284 1_545 S
Zn211 O210 1.899 . S
Zn211 O212 2.032 1_545 S
Zn211 O215 2.086 . S
Zn211 O220 1.977 . S
O212 Zn211 2.032 1_565 S
O212 C216 1.278 . S
C213 O214 1.203 . S
C213 O220 1.267 . S
O214 C213 1.203 . S
O215 C208 1.185 . S
O215 Zn211 2.086 . S
C216 O212 1.278 . S
C216 O217 1.211 . S
O217 C216 1.211 . S
C218 O210 1.284 1_565 S
C218 O219 1.273 . S
O219 C218 1.273 . S
O220 Zn211 1.977 . S
O220 C213 1.267 . S
C221 O222 1.160 . S
C221 O228 1.185 . S
O222 C221 1.160 . S
O223 Zn224 1.899 . S
O223 C231 1.284 . S
Zn224 O223 1.899 . S
Zn224 O225 2.032 . S
Zn224 O228 2.086 . S
Zn224 O233 1.977 . S
O225 Zn224 2.032 . S
O225 C229 1.278 . S
C226 O227 1.203 . S
C226 O233 1.267 . S
O227 C226 1.203 . S
O228 C221 1.185 . S
O228 Zn224 2.086 . S
C229 O225 1.278 . S
C229 O230 1.211 . S
O230 C229 1.211 . S
C231 O223 1.284 . S
C231 O232 1.273 . S
O232 C231 1.273 . S
O233 Zn224 1.977 . S
O233 C226 1.267 . S
C234 O235 1.160 . S
C234 O241 1.185 . S
O235 C234 1.160 . S
O236 Zn237 1.899 . S
O236 C244 1.284 . S
Zn237 O236 1.899 . S
Zn237 O238 2.032 . S
Zn237 O241 2.086 . S
Zn237 O246 1.977 . S
O238 Zn237 2.032 . S
O238 C242 1.278 . S
C239 O240 1.203 . S
C239 O246 1.267 . S
O240 C239 1.203 . S
O241 C234 1.185 . S
O241 Zn237 2.086 . S
C242 O238 1.278 . S
C242 O243 1.211 . S
O243 C242 1.211 . S
C244 O236 1.284 . S
C244 O245 1.273 . S
O245 C244 1.273 . S
O246 Zn237 1.977 . S
O246 C239 1.267 . S
C247 O248 1.160 . S
C247 O254 1.185 . S
O248 C247 1.160 . S
O249 Zn250 1.899 . S
O249 C257 1.284 1_545 S
Zn250 O249 1.899 . S
Zn250 O251 2.032 1_545 S
Zn250 O254 2.086 . S
Zn250 O259 1.977 . S
O251 Zn250 2.032 1_565 S
O251 C255 1.278 . S
C252 O253 1.203 . S
C252 O259 1.267 . S
O253 C252 1.203 . S
O254 C247 1.185 . S
O254 Zn250 2.086 . S
C255 O251 1.278 . S
C255 O256 1.211 . S
O256 C255 1.211 . S
C257 O249 1.284 1_565 S
C257 O258 1.273 . S
O258 C257 1.273 . S
O259 Zn250 1.977 . S
O259 C252 1.267 . S
C260 O261 1.160 . S
C260 O267 1.185 . S
O261 C260 1.160 . S
O262 Zn263 1.899 . S
O262 C270 1.284 1_554 S
Zn263 O262 1.899 . S
Zn263 O264 2.032 1_554 S
Zn263 O267 2.086 . S
Zn263 O272 1.977 . S
O264 Zn263 2.032 1_556 S
O264 C268 1.278 . S
C265 O266 1.203 . S
C265 O272 1.267 . S
O266 C265 1.203 . S
O267 C260 1.185 . S
O267 Zn263 2.086 . S
C268 O264 1.278 . S
C268 O269 1.211 . S
O269 C268 1.211 . S
C270 O262 1.284 1_556 S
C270 O271 1.273 . S
O271 C270 1.273 . S
O272 Zn263 1.977 . S
O272 C265 1.267 . S
C273 O274 1.160 . S
C273 O280 1.185 . S
O274 C273 1.160 . S
O275 Zn276 1.899 . S
O275 C283 1.284 . S
Zn276 O275 1.899 . S
Zn276 O277 2.032 . S
Zn276 O280 2.086 . S
Zn276 O285 1.977 . S
O277 Zn276 2.032 . S
O277 C281 1.278 . S
C278 O279 1.203 . S
C278 O285 1.267 . S
O279 C278 1.203 . S
O280 C273 1.185 . S
O280 Zn276 2.086 . S
C281 O277 1.278 . S
C281 O282 1.211 . S
O282 C281 1.211 . S
C283 O275 1.284 . S
C283 O284 1.273 . S
O284 C283 1.273 . S
O285 Zn276 1.977 . S
O285 C278 1.267 . S
C286 O287 1.160 . S
C286 O293 1.185 . S
O287 C286 1.160 . S
O288 Zn289 1.899 . S
O288 C296 1.284 . S
Zn289 O288 1.899 . S
Zn289 O290 2.032 . S
Zn289 O293 2.086 . S
Zn289 O298 1.977 . S
O290 Zn289 2.032 . S
O290 C294 1.278 . S
C291 O292 1.203 . S
C291 O298 1.267 . S
O292 C291 1.203 . S
O293 C286 1.185 . S
O293 Zn289 2.086 . S
C294 O290 1.278 . S
C294 O295 1.211 . S
O295 C294 1.211 . S
C296 O288 1.284 . S
C296 O297 1.273 . S
O297 C296 1.273 . S
O298 Zn289 1.977 . S
O298 C291 1.267 . S
C299 O300 1.160 . S
C299 O306 1.185 . S
O300 C299 1.160 . S
O301 Zn302 1.899 . S
O301 C309 1.284 . S
Zn302 O301 1.899 . S
Zn302 O303 2.032 . S
Zn302 O306 2.086 . S
Zn302 O311 1.977 . S
O303 Zn302 2.032 . S
O303 C307 1.278 . S
C304 O305 1.203 . S
C304 O311 1.267 . S
O305 C304 1.203 . S
O306 C299 1.185 . S
O306 Zn302 2.086 . S
C307 O303 1.278 . S
C307 O308 1.211 . S
O308 C307 1.211 . S
C309 O301 1.284 . S
C309 O310 1.273 . S
O310 C309 1.273 . S
O311 Zn302 1.977 . S
O311 C304 1.267 . S
Sc312 O315 2.025 . S
Sc312 O322 2.105 . S
Sc312 O325 2.105 . S
Sc312 O328 2.105 . S
Sc312 O331 2.105 . S
Sc313 O315 2.025 . S
Sc313 O323 2.105 . S
Sc313 O327 2.105 . S
Sc313 O329 2.105 . S
Sc313 O333 2.105 . S
Sc314 O315 2.025 . S
Sc314 O324 2.105 . S
Sc314 O326 2.105 . S
Sc314 O330 2.105 . S
Sc314 O332 2.105 . S
O315 Sc312 2.025 . S
O315 Sc313 2.025 . S
O315 Sc314 2.025 . S
C316 O322 1.268 . S
C316 O332 1.268 . S
C317 O323 1.268 . S
C317 O331 1.268 . S
C318 O324 1.268 . S
C318 O333 1.268 . S
C319 O325 1.268 . S
C319 O329 1.268 . S
C320 O326 1.268 . S
C320 O328 1.268 . S
C321 O327 1.268 . S
C321 O330 1.268 . S
O322 Sc312 2.105 . S
O322 C316 1.268 . S
O323 Sc313 2.105 . S
O323 C317 1.268 . S
O324 Sc314 2.105 . S
O324 C318 1.268 . S
O325 Sc312 2.105 . S
O325 C319 1.268 . S
O326 Sc314 2.105 . S
O326 C320 1.268 . S
O327 Sc313 2.105 . S
O327 C321 1.268 . S
O328 Sc312 2.105 . S
O328 C320 1.268 . S
O329 Sc313 2.105 . S
O329 C319 1.268 . S
O330 Sc314 2.105 . S
O330 C321 1.268 . S
O331 Sc312 2.105 . S
O331 C317 1.268 . S
O332 Sc314 2.105 . S
O332 C316 1.268 . S
O333 Sc313 2.105 . S
O333 C318 1.268 . S
Sc334 O337 2.025 . S
Sc334 O344 2.105 . S
Sc334 O347 2.105 . S
Sc334 O350 2.105 . S
Sc334 O353 2.105 . S
Sc335 O337 2.025 . S
Sc335 O345 2.105 . S
Sc335 O349 2.105 . S
Sc335 O351 2.105 . S
Sc335 O355 2.105 . S
Sc336 O337 2.025 . S
Sc336 O346 2.105 . S
Sc336 O348 2.105 . S
Sc336 O352 2.105 . S
Sc336 O354 2.105 . S
O337 Sc334 2.025 . S
O337 Sc335 2.025 . S
O337 Sc336 2.025 . S
C338 O344 1.268 . S
C338 O354 1.268 . S
C339 O345 1.268 . S
C339 O353 1.268 . S
C340 O346 1.268 . S
C340 O355 1.268 . S
C341 O347 1.268 . S
C341 O351 1.268 . S
C342 O348 1.268 . S
C342 O350 1.268 . S
C343 O349 1.268 . S
C343 O352 1.268 . S
O344 Sc334 2.105 . S
O344 C338 1.268 . S
O345 Sc335 2.105 . S
O345 C339 1.268 . S
O346 Sc336 2.105 . S
O346 C340 1.268 . S
O347 Sc334 2.105 . S
O347 C341 1.268 . S
O348 Sc336 2.105 . S
O348 C342 1.268 . S
O349 Sc335 2.105 . S
O349 C343 1.268 . S
O350 Sc334 2.105 . S
O350 C342 1.268 . S
O351 Sc335 2.105 . S
O351 C341 1.268 . S
O352 Sc336 2.105 . S
O352 C343 1.268 . S
O353 Sc334 2.105 . S
O353 C339 1.268 . S
O354 Sc336 2.105 . S
O354 C338 1.268 . S
O355 Sc335 2.105 . S
O355 C340 1.268 . S
Sc356 O359 2.025 . S
Sc356 O366 2.105 . S
Sc356 O369 2.105 . S
Sc356 O372 2.105 . S
Sc356 O375 2.105 . S
Sc357 O359 2.025 . S
Sc357 O367 2.105 . S
Sc357 O371 2.105 . S
Sc357 O373 2.105 . S
Sc357 O377 2.105 . S
Sc358 O359 2.025 . S
Sc358 O368 2.105 . S
Sc358 O370 2.105 . S
Sc358 O374 2.105 . S
Sc358 O376 2.105 . S
O359 Sc356 2.025 . S
O359 Sc357 2.025 . S
O359 Sc358 2.025 . S
C360 O366 1.268 . S
C360 O376 1.268 . S
C361 O367 1.268 . S
C361 O375 1.268 . S
C362 O368 1.268 . S
C362 O377 1.268 . S
C363 O369 1.268 . S
C363 O373 1.268 . S
C364 O370 1.268 . S
C364 O372 1.268 . S
C365 O371 1.268 . S
C365 O374 1.268 . S
O366 Sc356 2.105 . S
O366 C360 1.268 . S
O367 Sc357 2.105 . S
O367 C361 1.268 . S
O368 Sc358 2.105 . S
O368 C362 1.268 . S
O369 Sc356 2.105 . S
O369 C363 1.268 . S
O370 Sc358 2.105 . S
O370 C364 1.268 . S
O371 Sc357 2.105 . S
O371 C365 1.268 . S
O372 Sc356 2.105 . S
O372 C364 1.268 . S
O373 Sc357 2.105 . S
O373 C363 1.268 . S
O374 Sc358 2.105 . S
O374 C365 1.268 . S
O375 Sc356 2.105 . S
O375 C361 1.268 . S
O376 Sc358 2.105 . S
O376 C360 1.268 . S
O377 Sc357 2.105 . S
O377 C362 1.268 . S
Sc378 O381 2.025 . S
Sc378 O388 2.105 . S
Sc378 O391 2.105 . S
Sc378 O394 2.105 . S
Sc378 O397 2.105 . S
Sc379 O381 2.025 . S
Sc379 O389 2.105 . S
Sc379 O393 2.105 . S
Sc379 O395 2.105 . S
Sc379 O399 2.105 . S
Sc380 O381 2.025 . S
Sc380 O390 2.105 . S
Sc380 O392 2.105 . S
Sc380 O396 2.105 . S
Sc380 O398 2.105 . S
O381 Sc378 2.025 . S
O381 Sc379 2.025 . S
O381 Sc380 2.025 . S
C382 O388 1.268 . S
C382 O398 1.268 . S
C383 O389 1.268 . S
C383 O397 1.268 . S
C384 O390 1.268 . S
C384 O399 1.268 . S
C385 O391 1.268 . S
C385 O395 1.268 . S
C386 O392 1.268 . S
C386 O394 1.268 . S
C387 O393 1.268 . S
C387 O396 1.268 . S
O388 Sc378 2.105 . S
O388 C382 1.268 . S
O389 Sc379 2.105 . S
O389 C383 1.268 . S
O390 Sc380 2.105 . S
O390 C384 1.268 . S
O391 Sc378 2.105 . S
O391 C385 1.268 . S
O392 Sc380 2.105 . S
O392 C386 1.268 . S
O393 Sc379 2.105 . S
O393 C387 1.268 . S
O394 Sc378 2.105 . S
O394 C386 1.268 . S
O395 Sc379 2.105 . S
O395 C385 1.268 . S
O396 Sc380 2.105 . S
O396 C387 1.268 . S
O397 Sc378 2.105 . S
O397 C383 1.268 . S
O398 Sc380 2.105 . S
O398 C382 1.268 . S
O399 Sc379 2.105 . S
O399 C384 1.268 . S
Sc400 O403 2.025 . S
Sc400 O410 2.105 . S
Sc400 O413 2.105 . S
Sc400 O416 2.105 . S
Sc400 O419 2.105 . S
Sc401 O403 2.025 . S
Sc401 O411 2.105 . S
Sc401 O415 2.105 . S
Sc401 O417 2.105 . S
Sc401 O421 2.105 . S
Sc402 O403 2.025 . S
Sc402 O412 2.105 . S
Sc402 O414 2.105 . S
Sc402 O418 2.105 . S
Sc402 O420 2.105 . S
O403 Sc400 2.025 . S
O403 Sc401 2.025 . S
O403 Sc402 2.025 . S
C404 O410 1.268 . S
C404 O420 1.268 . S
C405 O411 1.268 . S
C405 O419 1.268 . S
C406 O412 1.268 . S
C406 O421 1.268 . S
C407 O413 1.268 . S
C407 O417 1.268 . S
C408 O414 1.268 . S
C408 O416 1.268 . S
C409 O415 1.268 . S
C409 O418 1.268 . S
O410 Sc400 2.105 . S
O410 C404 1.268 . S
O411 Sc401 2.105 . S
O411 C405 1.268 . S
O412 Sc402 2.105 . S
O412 C406 1.268 . S
O413 Sc400 2.105 . S
O413 C407 1.268 . S
O414 Sc402 2.105 . S
O414 C408 1.268 . S
O415 Sc401 2.105 . S
O415 C409 1.268 . S
O416 Sc400 2.105 . S
O416 C408 1.268 . S
O417 Sc401 2.105 . S
O417 C407 1.268 . S
O418 Sc402 2.105 . S
O418 C409 1.268 . S
O419 Sc400 2.105 . S
O419 C405 1.268 . S
O420 Sc402 2.105 . S
O420 C404 1.268 . S
O421 Sc401 2.105 . S
O421 C406 1.268 . S
Sc422 O425 2.025 . S
Sc422 O432 2.105 . S
Sc422 O435 2.105 . S
Sc422 O438 2.105 . S
Sc422 O441 2.105 . S
Sc423 O425 2.025 . S
Sc423 O433 2.105 . S
Sc423 O437 2.105 . S
Sc423 O439 2.105 . S
Sc423 O443 2.105 . S
Sc424 O425 2.025 . S
Sc424 O434 2.105 . S
Sc424 O436 2.105 . S
Sc424 O440 2.105 . S
Sc424 O442 2.105 . S
O425 Sc422 2.025 . S
O425 Sc423 2.025 . S
O425 Sc424 2.025 . S
C426 O432 1.268 . S
C426 O442 1.268 . S
C427 O433 1.268 . S
C427 O441 1.268 . S
C428 O434 1.268 . S
C428 O443 1.268 . S
C429 O435 1.268 . S
C429 O439 1.268 . S
C430 O436 1.268 . S
C430 O438 1.268 . S
C431 O437 1.268 . S
C431 O440 1.268 . S
O432 Sc422 2.105 . S
O432 C426 1.268 . S
O433 Sc423 2.105 . S
O433 C427 1.268 . S
O434 Sc424 2.105 . S
O434 C428 1.268 . S
O435 Sc422 2.105 . S
O435 C429 1.268 . S
O436 Sc424 2.105 . S
O436 C430 1.268 . S
O437 Sc423 2.105 . S
O437 C431 1.268 . S
O438 Sc422 2.105 . S
O438 C430 1.268 . S
O439 Sc423 2.105 . S
O439 C429 1.268 . S
O440 Sc424 2.105 . S
O440 C431 1.268 . S
O441 Sc422 2.105 . S
O441 C427 1.268 . S
O442 Sc424 2.105 . S
O442 C426 1.268 . S
O443 Sc423 2.105 . S
O443 C428 1.268 . S
Sc444 O447 2.025 . S
Sc444 O454 2.105 . S
Sc444 O457 2.105 . S
Sc444 O460 2.105 . S
Sc444 O463 2.105 . S
Sc445 O447 2.025 . S
Sc445 O455 2.105 . S
Sc445 O459 2.105 . S
Sc445 O461 2.105 . S
Sc445 O465 2.105 . S
Sc446 O447 2.025 . S
Sc446 O456 2.105 . S
Sc446 O458 2.105 . S
Sc446 O462 2.105 . S
Sc446 O464 2.105 . S
O447 Sc444 2.025 . S
O447 Sc445 2.025 . S
O447 Sc446 2.025 . S
C448 O454 1.268 . S
C448 O464 1.268 . S
C449 O455 1.268 . S
C449 O463 1.268 . S
C450 O456 1.268 . S
C450 O465 1.268 . S
C451 O457 1.268 . S
C451 O461 1.268 . S
C452 O458 1.268 . S
C452 O460 1.268 . S
C453 O459 1.268 . S
C453 O462 1.268 . S
O454 Sc444 2.105 . S
O454 C448 1.268 . S
O455 Sc445 2.105 . S
O455 C449 1.268 . S
O456 Sc446 2.105 . S
O456 C450 1.268 . S
O457 Sc444 2.105 . S
O457 C451 1.268 . S
O458 Sc446 2.105 . S
O458 C452 1.268 . S
O459 Sc445 2.105 . S
O459 C453 1.268 . S
O460 Sc444 2.105 . S
O460 C452 1.268 . S
O461 Sc445 2.105 . S
O461 C451 1.268 . S
O462 Sc446 2.105 . S
O462 C453 1.268 . S
O463 Sc444 2.105 . S
O463 C449 1.268 . S
O464 Sc446 2.105 . S
O464 C448 1.268 . S
O465 Sc445 2.105 . S
O465 C450 1.268 . S
Sc466 O469 2.025 . S
Sc466 O476 2.105 . S
Sc466 O479 2.105 . S
Sc466 O482 2.105 . S
Sc466 O485 2.105 . S
Sc467 O469 2.025 . S
Sc467 O477 2.105 . S
Sc467 O481 2.105 . S
Sc467 O483 2.105 . S
Sc467 O487 2.105 . S
Sc468 O469 2.025 . S
Sc468 O478 2.105 . S
Sc468 O480 2.105 . S
Sc468 O484 2.105 . S
Sc468 O486 2.105 . S
O469 Sc466 2.025 . S
O469 Sc467 2.025 . S
O469 Sc468 2.025 . S
C470 O476 1.268 . S
C470 O486 1.268 . S
C471 O477 1.268 . S
C471 O485 1.268 . S
C472 O478 1.268 . S
C472 O487 1.268 . S
C473 O479 1.268 . S
C473 O483 1.268 . S
C474 O480 1.268 . S
C474 O482 1.268 . S
C475 O481 1.268 . S
C475 O484 1.268 . S
O476 Sc466 2.105 . S
O476 C470 1.268 . S
O477 Sc467 2.105 . S
O477 C471 1.268 . S
O478 Sc468 2.105 . S
O478 C472 1.268 . S
O479 Sc466 2.105 . S
O479 C473 1.268 . S
O480 Sc468 2.105 . S
O480 C474 1.268 . S
O481 Sc467 2.105 . S
O481 C475 1.268 . S
O482 Sc466 2.105 . S
O482 C474 1.268 . S
O483 Sc467 2.105 . S
O483 C473 1.268 . S
O484 Sc468 2.105 . S
O484 C475 1.268 . S
O485 Sc466 2.105 . S
O485 C471 1.268 . S
O486 Sc468 2.105 . S
O486 C470 1.268 . S
O487 Sc467 2.105 . S
O487 C472 1.268 . S
Sc488 O491 2.025 . S
Sc488 O498 2.105 . S
Sc488 O501 2.105 . S
Sc488 O504 2.105 . S
Sc488 O507 2.105 . S
Sc489 O491 2.025 . S
Sc489 O499 2.105 . S
Sc489 O503 2.105 . S
Sc489 O505 2.105 . S
Sc489 O509 2.105 . S
Sc490 O491 2.025 . S
Sc490 O500 2.105 . S
Sc490 O502 2.105 . S
Sc490 O506 2.105 . S
Sc490 O508 2.105 . S
O491 Sc488 2.025 . S
O491 Sc489 2.025 . S
O491 Sc490 2.025 . S
C492 O498 1.268 . S
C492 O508 1.268 . S
C493 O499 1.268 . S
C493 O507 1.268 . S
C494 O500 1.268 . S
C494 O509 1.268 . S
C495 O501 1.268 . S
C495 O505 1.268 . S
C496 O502 1.268 . S
C496 O504 1.268 . S
C497 O503 1.268 . S
C497 O506 1.268 . S
O498 Sc488 2.105 . S
O498 C492 1.268 . S
O499 Sc489 2.105 . S
O499 C493 1.268 . S
O500 Sc490 2.105 . S
O500 C494 1.268 . S
O501 Sc488 2.105 . S
O501 C495 1.268 . S
O502 Sc490 2.105 . S
O502 C496 1.268 . S
O503 Sc489 2.105 . S
O503 C497 1.268 . S
O504 Sc488 2.105 . S
O504 C496 1.268 . S
O505 Sc489 2.105 . S
O505 C495 1.268 . S
O506 Sc490 2.105 . S
O506 C497 1.268 . S
O507 Sc488 2.105 . S
O507 C493 1.268 . S
O508 Sc490 2.105 . S
O508 C492 1.268 . S
O509 Sc489 2.105 . S
O509 C494 1.268 . S
Sc510 O513 2.025 . S
Sc510 O520 2.105 . S
Sc510 O523 2.105 . S
Sc510 O526 2.105 . S
Sc510 O529 2.105 . S
Sc511 O513 2.025 . S
Sc511 O521 2.105 . S
Sc511 O525 2.105 . S
Sc511 O527 2.105 . S
Sc511 O531 2.105 . S
Sc512 O513 2.025 . S
Sc512 O522 2.105 . S
Sc512 O524 2.105 . S
Sc512 O528 2.105 . S
Sc512 O530 2.105 . S
O513 Sc510 2.025 . S
O513 Sc511 2.025 . S
O513 Sc512 2.025 . S
C514 O520 1.268 . S
C514 O530 1.268 . S
C515 O521 1.268 . S
C515 O529 1.268 . S
C516 O522 1.268 . S
C516 O531 1.268 . S
C517 O523 1.268 . S
C517 O527 1.268 . S
C518 O524 1.268 . S
C518 O526 1.268 . S
C519 O525 1.268 . S
C519 O528 1.268 . S
O520 Sc510 2.105 . S
O520 C514 1.268 . S
O521 Sc511 2.105 . S
O521 C515 1.268 . S
O522 Sc512 2.105 . S
O522 C516 1.268 . S
O523 Sc510 2.105 . S
O523 C517 1.268 . S
O524 Sc512 2.105 . S
O524 C518 1.268 . S
O525 Sc511 2.105 . S
O525 C519 1.268 . S
O526 Sc510 2.105 . S
O526 C518 1.268 . S
O527 Sc511 2.105 . S
O527 C517 1.268 . S
O528 Sc512 2.105 . S
O528 C519 1.268 . S
O529 Sc510 2.105 . S
O529 C515 1.268 . S
O530 Sc512 2.105 . S
O530 C514 1.268 . S
O531 Sc511 2.105 . S
O531 C516 1.268 . S
Sc532 O535 2.025 . S
Sc532 O542 2.105 . S
Sc532 O545 2.105 . S
Sc532 O548 2.105 . S
Sc532 O551 2.105 . S
Sc533 O535 2.025 . S
Sc533 O543 2.105 . S
Sc533 O547 2.105 . S
Sc533 O549 2.105 . S
Sc533 O553 2.105 . S
Sc534 O535 2.025 . S
Sc534 O544 2.105 . S
Sc534 O546 2.105 . S
Sc534 O550 2.105 . S
Sc534 O552 2.105 . S
O535 Sc532 2.025 . S
O535 Sc533 2.025 . S
O535 Sc534 2.025 . S
C536 O542 1.268 . S
C536 O552 1.268 . S
C537 O543 1.268 . S
C537 O551 1.268 . S
C538 O544 1.268 . S
C538 O553 1.268 . S
C539 O545 1.268 . S
C539 O549 1.268 . S
C540 O546 1.268 . S
C540 O548 1.268 . S
C541 O547 1.268 . S
C541 O550 1.268 . S
O542 Sc532 2.105 . S
O542 C536 1.268 . S
O543 Sc533 2.105 . S
O543 C537 1.268 . S
O544 Sc534 2.105 . S
O544 C538 1.268 . S
O545 Sc532 2.105 . S
O545 C539 1.268 . S
O546 Sc534 2.105 . S
O546 C540 1.268 . S
O547 Sc533 2.105 . S
O547 C541 1.268 . S
O548 Sc532 2.105 . S
O548 C540 1.268 . S
O549 Sc533 2.105 . S
O549 C539 1.268 . S
O550 Sc534 2.105 . S
O550 C541 1.268 . S
O551 Sc532 2.105 . S
O551 C537 1.268 . S
O552 Sc534 2.105 . S
O552 C536 1.268 . S
O553 Sc533 2.105 . S
O553 C538 1.268 . S
Sc554 O557 2.025 . S
Sc554 O564 2.105 . S
Sc554 O567 2.105 . S
Sc554 O570 2.105 . S
Sc554 O573 2.105 . S
Sc555 O557 2.025 . S
Sc555 O565 2.105 . S
Sc555 O569 2.105 . S
Sc555 O571 2.105 . S
Sc555 O575 2.105 . S
Sc556 O557 2.025 . S
Sc556 O566 2.105 . S
Sc556 O568 2.105 . S
Sc556 O572 2.105 . S
Sc556 O574 2.105 . S
O557 Sc554 2.025 . S
O557 Sc555 2.025 . S
O557 Sc556 2.025 . S
C558 O564 1.268 . S
C558 O574 1.268 . S
C559 O565 1.268 . S
C559 O573 1.268 . S
C560 O566 1.268 . S
C560 O575 1.268 . S
C561 O567 1.268 . S
C561 O571 1.268 . S
C562 O568 1.268 . S
C562 O570 1.268 . S
C563 O569 1.268 . S
C563 O572 1.268 . S
O564 Sc554 2.105 . S
O564 C558 1.268 . S
O565 Sc555 2.105 . S
O565 C559 1.268 . S
O566 Sc556 2.105 . S
O566 C560 1.268 . S
O567 Sc554 2.105 . S
O567 C561 1.268 . S
O568 Sc556 2.105 . S
O568 C562 1.268 . S
O569 Sc555 2.105 . S
O569 C563 1.268 . S
O570 Sc554 2.105 . S
O570 C562 1.268 . S
O571 Sc555 2.105 . S
O571 C561 1.268 . S
O572 Sc556 2.105 . S
O572 C563 1.268 . S
O573 Sc554 2.105 . S
O573 C559 1.268 . S
O574 Sc556 2.105 . S
O574 C558 1.268 . S
O575 Sc555 2.105 . S
O575 C560 1.268 . S
Sc576 O579 2.025 . S
Sc576 O586 2.105 . S
Sc576 O589 2.105 . S
Sc576 O592 2.105 . S
Sc576 O595 2.105 . S
Sc577 O579 2.025 . S
Sc577 O587 2.105 . S
Sc577 O591 2.105 . S
Sc577 O593 2.105 . S
Sc577 O597 2.105 . S
Sc578 O579 2.025 . S
Sc578 O588 2.105 . S
Sc578 O590 2.105 . S
Sc578 O594 2.105 . S
Sc578 O596 2.105 . S
O579 Sc576 2.025 . S
O579 Sc577 2.025 . S
O579 Sc578 2.025 . S
C580 O586 1.268 . S
C580 O596 1.268 . S
C581 O587 1.268 . S
C581 O595 1.268 . S
C582 O588 1.268 . S
C582 O597 1.268 . S
C583 O589 1.268 . S
C583 O593 1.268 . S
C584 O590 1.268 . S
C584 O592 1.268 . S
C585 O591 1.268 . S
C585 O594 1.268 . S
O586 Sc576 2.105 . S
O586 C580 1.268 . S
O587 Sc577 2.105 . S
O587 C581 1.268 . S
O588 Sc578 2.105 . S
O588 C582 1.268 . S
O589 Sc576 2.105 . S
O589 C583 1.268 . S
O590 Sc578 2.105 . S
O590 C584 1.268 . S
O591 Sc577 2.105 . S
O591 C585 1.268 . S
O592 Sc576 2.105 . S
O592 C584 1.268 . S
O593 Sc577 2.105 . S
O593 C583 1.268 . S
O594 Sc578 2.105 . S
O594 C585 1.268 . S
O595 Sc576 2.105 . S
O595 C581 1.268 . S
O596 Sc578 2.105 . S
O596 C580 1.268 . S
O597 Sc577 2.105 . S
O597 C582 1.268 . S
Sc598 O601 2.025 . S
Sc598 O608 2.105 . S
Sc598 O611 2.105 . S
Sc598 O614 2.105 . S
Sc598 O617 2.105 . S
Sc599 O601 2.025 . S
Sc599 O609 2.105 . S
Sc599 O613 2.105 . S
Sc599 O615 2.105 . S
Sc599 O619 2.105 . S
Sc600 O601 2.025 . S
Sc600 O610 2.105 . S
Sc600 O612 2.105 . S
Sc600 O616 2.105 . S
Sc600 O618 2.105 . S
O601 Sc598 2.025 . S
O601 Sc599 2.025 . S
O601 Sc600 2.025 . S
C602 O608 1.268 . S
C602 O618 1.268 . S
C603 O609 1.268 . S
C603 O617 1.268 . S
C604 O610 1.268 . S
C604 O619 1.268 . S
C605 O611 1.268 . S
C605 O615 1.268 . S
C606 O612 1.268 . S
C606 O614 1.268 . S
C607 O613 1.268 . S
C607 O616 1.268 . S
O608 Sc598 2.105 . S
O608 C602 1.268 . S
O609 Sc599 2.105 . S
O609 C603 1.268 . S
O610 Sc600 2.105 . S
O610 C604 1.268 . S
O611 Sc598 2.105 . S
O611 C605 1.268 . S
O612 Sc600 2.105 . S
O612 C606 1.268 . S
O613 Sc599 2.105 . S
O613 C607 1.268 . S
O614 Sc598 2.105 . S
O614 C606 1.268 . S
O615 Sc599 2.105 . S
O615 C605 1.268 . S
O616 Sc600 2.105 . S
O616 C607 1.268 . S
O617 Sc598 2.105 . S
O617 C603 1.268 . S
O618 Sc600 2.105 . S
O618 C602 1.268 . S
O619 Sc599 2.105 . S
O619 C604 1.268 . S
Sc620 O623 2.025 . S
Sc620 O630 2.105 . S
Sc620 O633 2.105 . S
Sc620 O636 2.105 . S
Sc620 O639 2.105 . S
Sc621 O623 2.025 . S
Sc621 O631 2.105 . S
Sc621 O635 2.105 . S
Sc621 O637 2.105 . S
Sc621 O641 2.105 . S
Sc622 O623 2.025 . S
Sc622 O632 2.105 . S
Sc622 O634 2.105 . S
Sc622 O638 2.105 . S
Sc622 O640 2.105 . S
O623 Sc620 2.025 . S
O623 Sc621 2.025 . S
O623 Sc622 2.025 . S
C624 O630 1.268 . S
C624 O640 1.268 . S
C625 O631 1.268 . S
C625 O639 1.268 . S
C626 O632 1.268 . S
C626 O641 1.268 . S
C627 O633 1.268 . S
C627 O637 1.268 . S
C628 O634 1.268 . S
C628 O636 1.268 . S
C629 O635 1.268 . S
C629 O638 1.268 . S
O630 Sc620 2.105 . S
O630 C624 1.268 . S
O631 Sc621 2.105 . S
O631 C625 1.268 . S
O632 Sc622 2.105 . S
O632 C626 1.268 . S
O633 Sc620 2.105 . S
O633 C627 1.268 . S
O634 Sc622 2.105 . S
O634 C628 1.268 . S
O635 Sc621 2.105 . S
O635 C629 1.268 . S
O636 Sc620 2.105 . S
O636 C628 1.268 . S
O637 Sc621 2.105 . S
O637 C627 1.268 . S
O638 Sc622 2.105 . S
O638 C629 1.268 . S
O639 Sc620 2.105 . S
O639 C625 1.268 . S
O640 Sc622 2.105 . S
O640 C624 1.268 . S
O641 Sc621 2.105 . S
O641 C626 1.268 . S
Sc642 O645 2.025 . S
Sc642 O652 2.105 . S
Sc642 O655 2.105 . S
Sc642 O658 2.105 . S
Sc642 O661 2.105 . S
Sc643 O645 2.025 . S
Sc643 O653 2.105 . S
Sc643 O657 2.105 . S
Sc643 O659 2.105 . S
Sc643 O663 2.105 . S
Sc644 O645 2.025 . S
Sc644 O654 2.105 . S
Sc644 O656 2.105 . S
Sc644 O660 2.105 . S
Sc644 O662 2.105 . S
O645 Sc642 2.025 . S
O645 Sc643 2.025 . S
O645 Sc644 2.025 . S
C646 O652 1.268 . S
C646 O662 1.268 . S
C647 O653 1.268 . S
C647 O661 1.268 . S
C648 O654 1.268 . S
C648 O663 1.268 . S
C649 O655 1.268 . S
C649 O659 1.268 . S
C650 O656 1.268 . S
C650 O658 1.268 . S
C651 O657 1.268 . S
C651 O660 1.268 . S
O652 Sc642 2.105 . S
O652 C646 1.268 . S
O653 Sc643 2.105 . S
O653 C647 1.268 . S
O654 Sc644 2.105 . S
O654 C648 1.268 . S
O655 Sc642 2.105 . S
O655 C649 1.268 . S
O656 Sc644 2.105 . S
O656 C650 1.268 . S
O657 Sc643 2.105 . S
O657 C651 1.268 . S
O658 Sc642 2.105 . S
O658 C650 1.268 . S
O659 Sc643 2.105 . S
O659 C649 1.268 . S
O660 Sc644 2.105 . S
O660 C651 1.268 . S
O661 Sc642 2.105 . S
O661 C647 1.268 . S
O662 Sc644 2.105 . S
O662 C646 1.268 . S
O663 Sc643 2.105 . S
O663 C648 1.268 . S
H664 C670 0.930 . S
H665 C673 0.930 . S
H666 C674 0.930 . S
H667 C675 0.930 . S
H668 C678 0.930 . S
H669 C679 0.930 . S
C670 H664 0.930 . S
C670 C671 1.355 . S
C670 C672 1.415 . S
C671 C670 1.355 . S
C671 C673 1.419 . S
C672 C670 1.415 . S
C672 C677 1.425 . S
C672 C679 1.409 . S
C673 H665 0.930 . S
C673 C671 1.419 . S
C673 C674 1.362 . S
C674 H666 0.930 . S
C674 C673 1.362 . S
C674 C677 1.409 . S
C675 H667 0.930 . S
C675 C676 1.355 . S
C675 C677 1.415 . S
C676 C675 1.355 . S
C676 C678 1.419 . S
C677 C672 1.425 . S
C677 C674 1.409 . S
C677 C675 1.415 . S
C678 H668 0.930 . S
C678 C676 1.419 . S
C678 C679 1.362 . S
C679 H669 0.930 . S
C679 C672 1.409 . S
C679 C678 1.362 . S
H680 C686 0.930 . S
H681 C689 0.930 . S
H682 C690 0.930 . S
H683 C691 0.930 . S
H684 C694 0.930 . S
H685 C695 0.930 . S
C686 H680 0.930 . S
C686 C687 1.355 . S
C686 C688 1.415 . S
C687 C686 1.355 . S
C687 C689 1.419 . S
C688 C686 1.415 . S
C688 C693 1.425 . S
C688 C695 1.409 . S
C689 H681 0.930 . S
C689 C687 1.419 . S
C689 C690 1.362 . S
C690 H682 0.930 . S
C690 C689 1.362 . S
C690 C693 1.409 . S
C691 H683 0.930 . S
C691 C692 1.355 . S
C691 C693 1.415 . S
C692 C691 1.355 . S
C692 C694 1.419 . S
C693 C688 1.425 . S
C693 C690 1.409 . S
C693 C691 1.415 . S
C694 H684 0.930 . S
C694 C692 1.419 . S
C694 C695 1.362 . S
C695 H685 0.930 . S
C695 C688 1.409 . S
C695 C694 1.362 . S
H696 C702 0.930 . S
H697 C705 0.930 . S
H698 C706 0.930 . S
H699 C707 0.930 . S
H700 C710 0.930 . S
H701 C711 0.930 . S
C702 H696 0.930 . S
C702 C703 1.355 . S
C702 C704 1.415 . S
C703 C702 1.355 . S
C703 C705 1.419 . S
C704 C702 1.415 . S
C704 C709 1.425 . S
C704 C711 1.409 . S
C705 H697 0.930 . S
C705 C703 1.419 . S
C705 C706 1.362 . S
C706 H698 0.930 . S
C706 C705 1.362 . S
C706 C709 1.409 . S
C707 H699 0.930 . S
C707 C708 1.355 . S
C707 C709 1.415 . S
C708 C707 1.355 . S
C708 C710 1.419 . S
C709 C704 1.425 . S
C709 C706 1.409 . S
C709 C707 1.415 . S
C710 H700 0.930 . S
C710 C708 1.419 . S
C710 C711 1.362 . S
C711 H701 0.930 . S
C711 C704 1.409 . S
C711 C710 1.362 . S
H712 C718 0.930 . S
H713 C721 0.930 . S
H714 C722 0.930 . S
H715 C723 0.930 . S
H716 C726 0.930 . S
H717 C727 0.930 . S
C718 H712 0.930 . S
C718 C719 1.355 . S
C718 C720 1.415 . S
C719 C718 1.355 . S
C719 C721 1.419 . S
C720 C718 1.415 . S
C720 C725 1.425 . S
C720 C727 1.409 . S
C721 H713 0.930 . S
C721 C719 1.419 . S
C721 C722 1.362 . S
C722 H714 0.930 . S
C722 C721 1.362 . S
C722 C725 1.409 . S
C723 H715 0.930 . S
C723 C724 1.355 . S
C723 C725 1.415 1_556 S
C724 C723 1.355 . S
C724 C726 1.419 . S
C725 C720 1.425 . S
C725 C722 1.409 . S
C725 C723 1.415 1_554 S
C726 H716 0.930 . S
C726 C724 1.419 . S
C726 C727 1.362 1_556 S
C727 H717 0.930 . S
C727 C720 1.409 . S
C727 C726 1.362 1_554 S
H728 C734 0.930 . S
H729 C737 0.930 . S
H730 C738 0.930 . S
H731 C739 0.930 . S
H732 C742 0.930 . S
H733 C743 0.930 . S
C734 H728 0.930 . S
C734 C735 1.355 . S
C734 C736 1.415 . S
C735 C734 1.355 . S
C735 C737 1.419 . S
C736 C734 1.415 . S
C736 C741 1.425 . S
C736 C743 1.409 . S
C737 H729 0.930 . S
C737 C735 1.419 . S
C737 C738 1.362 . S
C738 H730 0.930 . S
C738 C737 1.362 . S
C738 C741 1.409 . S
C739 H731 0.930 . S
C739 C740 1.355 . S
C739 C741 1.415 . S
C740 C739 1.355 . S
C740 C742 1.419 . S
C741 C736 1.425 . S
C741 C738 1.409 . S
C741 C739 1.415 . S
C742 H732 0.930 . S
C742 C740 1.419 . S
C742 C743 1.362 . S
C743 H733 0.930 . S
C743 C736 1.409 . S
C743 C742 1.362 . S
H744 C750 0.930 . S
H745 C753 0.930 . S
H746 C754 0.930 . S
H747 C755 0.930 . S
H748 C758 0.930 . S
H749 C759 0.930 . S
C750 H744 0.930 . S
C750 C751 1.355 . S
C750 C752 1.415 . S
C751 C750 1.355 . S
C751 C753 1.419 . S
C752 C750 1.415 . S
C752 C757 1.425 . S
C752 C759 1.409 . S
C753 H745 0.930 . S
C753 C751 1.419 . S
C753 C754 1.362 . S
C754 H746 0.930 . S
C754 C753 1.362 . S
C754 C757 1.409 . S
C755 H747 0.930 . S
C755 C756 1.355 . S
C755 C757 1.415 . S
C756 C755 1.355 . S
C756 C758 1.419 . S
C757 C752 1.425 . S
C757 C754 1.409 . S
C757 C755 1.415 . S
C758 H748 0.930 . S
C758 C756 1.419 . S
C758 C759 1.362 . S
C759 H749 0.930 . S
C759 C752 1.409 . S
C759 C758 1.362 . S
H760 C766 0.930 . S
H761 C769 0.930 . S
H762 C770 0.930 . S
H763 C771 0.930 . S
H764 C774 0.930 . S
H765 C775 0.930 . S
C766 H760 0.930 . S
C766 C767 1.355 . S
C766 C768 1.415 . S
C767 C766 1.355 . S
C767 C769 1.419 . S
C768 C766 1.415 . S
C768 C773 1.425 . S
C768 C775 1.409 . S
C769 H761 0.930 . S
C769 C767 1.419 . S
C769 C770 1.362 . S
C770 H762 0.930 . S
C770 C769 1.362 . S
C770 C773 1.409 . S
C771 H763 0.930 . S
C771 C772 1.355 . S
C771 C773 1.415 . S
C772 C771 1.355 . S
C772 C774 1.419 . S
C773 C768 1.425 . S
C773 C770 1.409 . S
C773 C771 1.415 . S
C774 H764 0.930 . S
C774 C772 1.419 . S
C774 C775 1.362 . S
C775 H765 0.930 . S
C775 C768 1.409 . S
C775 C774 1.362 . S
H776 C782 0.930 . S
H777 C785 0.930 . S
H778 C786 0.930 . S
H779 C787 0.930 . S
H780 C790 0.930 . S
H781 C791 0.930 . S
C782 H776 0.930 . S
C782 C783 1.355 . S
C782 C784 1.415 . S
C783 C782 1.355 . S
C783 C785 1.419 . S
C784 C782 1.415 . S
C784 C789 1.425 . S
C784 C791 1.409 1_556 S
C785 H777 0.930 . S
C785 C783 1.419 . S
C785 C786 1.362 . S
C786 H778 0.930 . S
C786 C785 1.362 . S
C786 C789 1.409 . S
C787 H779 0.930 . S
C787 C788 1.355 . S
C787 C789 1.415 1_554 S
C788 C787 1.355 . S
C788 C790 1.419 . S
C789 C784 1.425 . S
C789 C786 1.409 . S
C789 C787 1.415 1_556 S
C790 H780 0.930 . S
C790 C788 1.419 . S
C790 C791 1.362 . S
C791 H781 0.930 . S
C791 C784 1.409 1_554 S
C791 C790 1.362 . S
H792 C798 0.930 . S
H793 C801 0.930 . S
H794 C802 0.930 . S
H795 C803 0.930 . S
H796 C806 0.930 . S
H797 C807 0.930 . S
C798 H792 0.930 . S
C798 C799 1.355 . S
C798 C800 1.415 . S
C799 C798 1.355 . S
C799 C801 1.419 . S
C800 C798 1.415 . S
C800 C805 1.425 . S
C800 C807 1.409 . S
C801 H793 0.930 . S
C801 C799 1.419 . S
C801 C802 1.362 . S
C802 H794 0.930 . S
C802 C801 1.362 . S
C802 C805 1.409 . S
C803 H795 0.930 . S
C803 C804 1.355 . S
C803 C805 1.415 . S
C804 C803 1.355 . S
C804 C806 1.419 . S
C805 C800 1.425 . S
C805 C802 1.409 . S
C805 C803 1.415 . S
C806 H796 0.930 . S
C806 C804 1.419 . S
C806 C807 1.362 . S
C807 H797 0.930 . S
C807 C800 1.409 . S
C807 C806 1.362 . S
H808 C814 0.930 . S
H809 C817 0.930 . S
H810 C818 0.930 . S
H811 C819 0.930 . S
H812 C822 0.930 . S
H813 C823 0.930 . S
C814 H808 0.930 . S
C814 C815 1.355 . S
C814 C816 1.415 . S
C815 C814 1.355 . S
C815 C817 1.419 . S
C816 C814 1.415 . S
C816 C821 1.425 . S
C816 C823 1.409 1_545 S
C817 H809 0.930 . S
C817 C815 1.419 . S
C817 C818 1.362 . S
C818 H810 0.930 . S
C818 C817 1.362 . S
C818 C821 1.409 . S
C819 H811 0.930 . S
C819 C820 1.355 1_545 S
C819 C821 1.415 . S
C820 C819 1.355 1_565 S
C820 C822 1.419 . S
C821 C816 1.425 . S
C821 C818 1.409 . S
C821 C819 1.415 . S
C822 H812 0.930 . S
C822 C820 1.419 . S
C822 C823 1.362 . S
C823 H813 0.930 . S
C823 C816 1.409 1_565 S
C823 C822 1.362 . S
H824 C830 0.930 . S
H825 C833 0.930 . S
H826 C834 0.930 . S
H827 C835 0.930 . S
H828 C838 0.930 . S
H829 C839 0.930 . S
C830 H824 0.930 . S
C830 C831 1.355 . S
C830 C832 1.415 . S
C831 C830 1.355 . S
C831 C833 1.419 . S
C832 C830 1.415 . S
C832 C837 1.425 . S
C832 C839 1.409 . S
C833 H825 0.930 . S
C833 C831 1.419 . S
C833 C834 1.362 . S
C834 H826 0.930 . S
C834 C833 1.362 . S
C834 C837 1.409 . S
C835 H827 0.930 . S
C835 C836 1.355 . S
C835 C837 1.415 . S
C836 C835 1.355 . S
C836 C838 1.419 . S
C837 C832 1.425 . S
C837 C834 1.409 . S
C837 C835 1.415 . S
C838 H828 0.930 . S
C838 C836 1.419 . S
C838 C839 1.362 . S
C839 H829 0.930 . S
C839 C832 1.409 . S
C839 C838 1.362 . S
H840 C846 0.930 . S
H841 C849 0.930 . S
H842 C850 0.930 . S
H843 C851 0.930 . S
H844 C854 0.930 . S
H845 C855 0.930 . S
C846 H840 0.930 . S
C846 C847 1.355 . S
C846 C848 1.415 . S
C847 C846 1.355 . S
C847 C849 1.419 . S
C848 C846 1.415 . S
C848 C853 1.425 . S
C848 C855 1.409 1_565 S
C849 H841 0.930 . S
C849 C847 1.419 . S
C849 C850 1.362 . S
C850 H842 0.930 . S
C850 C849 1.362 . S
C850 C853 1.409 . S
C851 H843 0.930 . S
C851 C852 1.355 . S
C851 C853 1.415 1_545 S
C852 C851 1.355 . S
C852 C854 1.419 . S
C853 C848 1.425 . S
C853 C850 1.409 . S
C853 C851 1.415 1_565 S
C854 H844 0.930 . S
C854 C852 1.419 . S
C854 C855 1.362 . S
C855 H845 0.930 . S
C855 C848 1.409 1_545 S
C855 C854 1.362 . S
H856 C862 0.930 . S
H857 C865 0.930 . S
H858 C866 0.930 . S
H859 C867 0.930 . S
H860 C870 0.930 . S
H861 C871 0.930 . S
C862 H856 0.930 . S
C862 C863 1.355 . S
C862 C864 1.415 . S
C863 C862 1.355 . S
C863 C865 1.419 . S
C864 C862 1.415 . S
C864 C869 1.425 . S
C864 C871 1.409 . S
C865 H857 0.930 . S
C865 C863 1.419 . S
C865 C866 1.362 . S
C866 H858 0.930 . S
C866 C865 1.362 . S
C866 C869 1.409 . S
C867 H859 0.930 . S
C867 C868 1.355 . S
C867 C869 1.415 . S
C868 C867 1.355 . S
C868 C870 1.419 . S
C869 C864 1.425 . S
C869 C866 1.409 . S
C869 C867 1.415 . S
C870 H860 0.930 . S
C870 C868 1.419 . S
C870 C871 1.362 . S
C871 H861 0.930 . S
C871 C864 1.409 . S
C871 C870 1.362 . S
H872 C878 0.930 . S
H873 C881 0.930 . S
H874 C882 0.930 . S
H875 C883 0.930 1_545 S
H876 C886 0.930 . S
H877 C887 0.930 . S
C878 H872 0.930 . S
C878 C879 1.355 . S
C878 C880 1.415 . S
C879 C878 1.355 . S
C879 C881 1.419 . S
C880 C878 1.415 . S
C880 C885 1.425 . S
C880 C887 1.409 1_545 S
C881 H873 0.930 . S
C881 C879 1.419 . S
C881 C882 1.362 . S
C882 H874 0.930 . S
C882 C881 1.362 . S
C882 C885 1.409 . S
C883 H875 0.930 1_565 S
C883 C884 1.355 . S
C883 C885 1.415 1_565 S
C884 C883 1.355 . S
C884 C886 1.419 . S
C885 C880 1.425 . S
C885 C882 1.409 . S
C885 C883 1.415 1_545 S
C886 H876 0.930 . S
C886 C884 1.419 . S
C886 C887 1.362 . S
C887 H877 0.930 . S
C887 C880 1.409 1_565 S
C887 C886 1.362 . S
H888 C894 0.930 . S
H889 C897 0.930 . S
H890 C898 0.930 . S
H891 C899 0.930 . S
H892 C902 0.930 . S
H893 C903 0.930 . S
C894 H888 0.930 . S
C894 C895 1.355 . S
C894 C896 1.415 . S
C895 C894 1.355 . S
C895 C897 1.419 . S
C896 C894 1.415 . S
C896 C901 1.425 . S
C896 C903 1.409 . S
C897 H889 0.930 . S
C897 C895 1.419 . S
C897 C898 1.362 . S
C898 H890 0.930 . S
C898 C897 1.362 . S
C898 C901 1.409 . S
C899 H891 0.930 . S
C899 C900 1.355 . S
C899 C901 1.415 . S
C900 C899 1.355 . S
C900 C902 1.419 . S
C901 C896 1.425 . S
C901 C898 1.409 . S
C901 C899 1.415 . S
C902 H892 0.930 . S
C902 C900 1.419 . S
C902 C903 1.362 . S
C903 H893 0.930 . S
C903 C896 1.409 . S
C903 C902 1.362 . S
H904 C910 0.930 . S
H905 C913 0.930 . S
H906 C914 0.930 . S
H907 C915 0.930 . S
H908 C918 0.930 . S
H909 C919 0.944 . S
C910 H904 0.930 . S
C910 C911 1.355 . S
C910 C912 1.415 . S
C911 C910 1.355 . S
C911 C913 1.419 . S
C912 C910 1.415 . S
C912 C917 1.425 . S
C912 C919 1.424 . S
C913 H905 0.930 . S
C913 C911 1.419 . S
C913 C914 1.362 . S
C914 H906 0.930 . S
C914 C913 1.362 . S
C914 C917 1.409 . S
C915 H907 0.930 . S
C915 C916 1.355 . S
C915 C917 1.415 1_545 S
C916 C915 1.355 . S
C916 C918 1.419 . S
C917 C912 1.425 . S
C917 C914 1.409 . S
C917 C915 1.415 1_565 S
C918 H908 0.930 . S
C918 C916 1.419 . S
C918 C919 1.334 1_545 S
C919 H909 0.944 . S
C919 C912 1.424 . S
C919 C918 1.334 1_565 S
H920 C926 0.930 . S
H921 C929 0.930 . S
H922 C930 0.930 . S
H923 C931 0.930 . S
H924 C934 0.930 . S
H925 C935 0.930 . S
C926 H920 0.930 . S
C926 C927 1.355 . S
C926 C928 1.415 . S
C927 C926 1.355 . S
C927 C929 1.419 . S
C928 C926 1.415 . S
C928 C933 1.425 . S
C928 C935 1.409 . S
C929 H921 0.930 . S
C929 C927 1.419 . S
C929 C930 1.362 . S
C930 H922 0.930 . S
C930 C929 1.362 . S
C930 C933 1.409 . S
C931 H923 0.930 . S
C931 C932 1.355 . S
C931 C933 1.415 . S
C932 C931 1.355 . S
C932 C934 1.419 . S
C933 C928 1.425 . S
C933 C930 1.409 . S
C933 C931 1.415 . S
C934 H924 0.930 . S
C934 C932 1.419 . S
C934 C935 1.362 . S
C935 H925 0.930 . S
C935 C928 1.409 . S
C935 C934 1.362 . S
H936 C942 0.930 . S
H937 C945 0.930 . S
H938 C946 0.930 . S
H939 C947 0.930 . S
H940 C950 0.930 . S
H941 C951 0.930 . S
C942 H936 0.930 . S
C942 C943 1.355 . S
C942 C944 1.415 . S
C943 C942 1.355 . S
C943 C945 1.419 . S
C944 C942 1.415 . S
C944 C949 1.425 . S
C944 C951 1.409 . S
C945 H937 0.930 . S
C945 C943 1.419 . S
C945 C946 1.362 . S
C946 H938 0.930 . S
C946 C945 1.362 . S
C946 C949 1.409 . S
C947 H939 0.930 . S
C947 C948 1.355 . S
C947 C949 1.415 . S
C948 C947 1.355 . S
C948 C950 1.419 . S
C949 C944 1.425 . S
C949 C946 1.409 . S
C949 C947 1.415 . S
C950 H940 0.930 . S
C950 C948 1.419 . S
C950 C951 1.362 . S
C951 H941 0.930 . S
C951 C944 1.409 . S
C951 C950 1.362 . S
H952 C958 0.930 . S
H953 C961 0.930 . S
H954 C962 0.930 . S
H955 C963 0.930 . S
H956 C966 0.930 . S
H957 C967 0.930 . S
C958 H952 0.930 . S
C958 C959 1.355 . S
C958 C960 1.415 . S
C959 C958 1.355 . S
C959 C961 1.419 . S
C960 C958 1.415 . S
C960 C965 1.425 . S
C960 C967 1.409 1_455 S
C961 H953 0.930 . S
C961 C959 1.419 . S
C961 C962 1.362 . S
C962 H954 0.930 . S
C962 C961 1.362 . S
C962 C965 1.409 . S
C963 H955 0.930 . S
C963 C964 1.355 1_455 S
C963 C965 1.415 . S
C964 C963 1.355 1_655 S
C964 C966 1.419 . S
C965 C960 1.425 . S
C965 C962 1.409 . S
C965 C963 1.415 . S
C966 H956 0.930 . S
C966 C964 1.419 . S
C966 C967 1.362 . S
C967 H957 0.930 . S
C967 C960 1.409 1_655 S
C967 C966 1.362 . S
H968 C974 0.930 . S
H969 C977 0.930 . S
H970 C978 0.930 . S
H971 C979 0.930 . S
H972 C982 0.930 . S
H973 C983 0.930 . S
C974 H968 0.930 . S
C974 C975 1.355 . S
C974 C976 1.415 . S
C975 C974 1.355 . S
C975 C977 1.419 . S
C976 C974 1.415 . S
C976 C981 1.425 . S
C976 C983 1.409 . S
C977 H969 0.930 . S
C977 C975 1.419 . S
C977 C978 1.362 . S
C978 H970 0.930 . S
C978 C977 1.362 . S
C978 C981 1.409 . S
C979 H971 0.930 . S
C979 C980 1.355 . S
C979 C981 1.415 . S
C980 C979 1.355 . S
C980 C982 1.419 . S
C981 C976 1.425 . S
C981 C978 1.409 . S
C981 C979 1.415 . S
C982 H972 0.930 . S
C982 C980 1.419 . S
C982 C983 1.362 . S
C983 H973 0.930 . S
C983 C976 1.409 . S
C983 C982 1.362 . S
H984 C990 0.930 . S
H985 C993 0.930 . S
H986 C994 0.910 1_455 S
H987 C995 0.930 . S
H988 C998 0.930 . S
H989 C999 0.930 . S
C990 H984 0.930 . S
C990 C991 1.355 . S
C990 C992 1.415 . S
C991 C990 1.355 . S
C991 C993 1.419 . S
C992 C990 1.415 . S
C992 C997 1.425 1_655 S
C992 C999 1.409 . S
C993 H985 0.930 . S
C993 C991 1.419 . S
C993 C994 1.387 . S
C994 H986 0.910 1_655 S
C994 C993 1.387 . S
C994 C997 1.404 1_655 S
C995 H987 0.930 . S
C995 C996 1.355 . S
C995 C997 1.415 . S
C996 C995 1.355 . S
C996 C998 1.419 . S
C997 C992 1.425 1_455 S
C997 C994 1.404 1_455 S
C997 C995 1.415 . S
C998 H988 0.930 . S
C998 C996 1.419 . S
C998 C999 1.362 1_455 S
C999 H989 0.930 . S
C999 C992 1.409 . S
C999 C998 1.362 1_655 S
H1000 C1006 0.930 . S
H1001 C1009 0.930 . S
H1002 C1010 0.930 . S
H1003 C1011 0.930 . S
H1004 C1014 0.930 . S
H1005 C1015 0.930 . S
C1006 H1000 0.930 . S
C1006 C1007 1.355 . S
C1006 C1008 1.415 . S
C1007 C1006 1.355 . S
C1007 C1009 1.419 . S
C1008 C1006 1.415 . S
C1008 C1013 1.425 . S
C1008 C1015 1.409 . S
C1009 H1001 0.930 . S
C1009 C1007 1.419 . S
C1009 C1010 1.362 . S
C1010 H1002 0.930 . S
C1010 C1009 1.362 . S
C1010 C1013 1.409 . S
C1011 H1003 0.930 . S
C1011 C1012 1.355 . S
C1011 C1013 1.415 . S
C1012 C1011 1.355 . S
C1012 C1014 1.419 . S
C1013 C1008 1.425 . S
C1013 C1010 1.409 . S
C1013 C1011 1.415 . S
C1014 H1004 0.930 . S
C1014 C1012 1.419 . S
C1014 C1015 1.362 . S
C1015 H1005 0.930 . S
C1015 C1008 1.409 . S
C1015 C1014 1.362 . S
H1016 C1022 0.930 . S
H1017 C1025 0.930 . S
H1018 C1026 0.930 . S
H1019 C1027 0.930 . S
H1020 C1030 0.930 . S
H1021 C1031 0.930 . S
C1022 H1016 0.930 . S
C1022 C1023 1.355 . S
C1022 C1024 1.415 . S
C1023 C1022 1.355 . S
C1023 C1025 1.419 . S
C1024 C1022 1.415 . S
C1024 C1029 1.425 . S
C1024 C1031 1.409 1_455 S
C1025 H1017 0.930 . S
C1025 C1023 1.419 . S
C1025 C1026 1.362 . S
C1026 H1018 0.930 . S
C1026 C1025 1.362 . S
C1026 C1029 1.409 . S
C1027 H1019 0.930 . S
C1027 C1028 1.355 . S
C1027 C1029 1.415 1_655 S
C1028 C1027 1.355 . S
C1028 C1030 1.419 . S
C1029 C1024 1.425 . S
C1029 C1026 1.409 . S
C1029 C1027 1.415 1_455 S
C1030 H1020 0.930 . S
C1030 C1028 1.419 . S
C1030 C1031 1.362 . S
C1031 H1021 0.930 . S
C1031 C1024 1.409 1_655 S
C1031 C1030 1.362 . S
H1032 C1038 0.930 . S
H1033 C1041 0.930 . S
H1034 C1042 0.930 . S
H1035 C1043 0.930 . S
H1036 C1046 0.930 . S
H1037 C1047 0.930 . S
C1038 H1032 0.930 . S
C1038 C1039 1.355 . S
C1038 C1040 1.415 . S
C1039 C1038 1.355 . S
C1039 C1041 1.419 . S
C1040 C1038 1.415 . S
C1040 C1045 1.425 . S
C1040 C1047 1.409 . S
C1041 H1033 0.930 . S
C1041 C1039 1.419 . S
C1041 C1042 1.362 . S
C1042 H1034 0.930 . S
C1042 C1041 1.362 . S
C1042 C1045 1.409 . S
C1043 H1035 0.930 . S
C1043 C1044 1.355 . S
C1043 C1045 1.415 . S
C1044 C1043 1.355 . S
C1044 C1046 1.419 . S
C1045 C1040 1.425 . S
C1045 C1042 1.409 . S
C1045 C1043 1.415 . S
C1046 H1036 0.930 . S
C1046 C1044 1.419 . S
C1046 C1047 1.362 . S
C1047 H1037 0.930 . S
C1047 C1040 1.409 . S
C1047 C1046 1.362 . S
H1048 C1054 0.930 . S
H1049 C1057 0.930 . S
H1050 C1058 0.930 . S
H1051 C1059 0.930 . S
H1052 C1062 0.930 . S
H1053 C1063 0.930 . S
C1054 H1048 0.930 . S
C1054 C1055 1.355 . S
C1054 C1056 1.415 . S
C1055 C1054 1.355 . S
C1055 C1057 1.419 . S
C1056 C1054 1.415 . S
C1056 C1061 1.425 . S
C1056 C1063 1.409 . S
C1057 H1049 0.930 . S
C1057 C1055 1.419 . S
C1057 C1058 1.362 . S
C1058 H1050 0.930 . S
C1058 C1057 1.362 . S
C1058 C1061 1.409 . S
C1059 H1051 0.930 . S
C1059 C1060 1.355 . S
C1059 C1061 1.415 . S
C1060 C1059 1.355 . S
C1060 C1062 1.419 . S
C1061 C1056 1.425 . S
C1061 C1058 1.409 . S
C1061 C1059 1.415 . S
C1062 H1052 0.930 . S
C1062 C1060 1.419 . S
C1062 C1063 1.362 . S
C1063 H1053 0.930 . S
C1063 C1056 1.409 . S
C1063 C1062 1.362 . S
H1064 C1070 0.930 . S
H1065 C1073 0.930 . S
H1066 C1074 0.930 . S
H1067 C1075 0.930 . S
H1068 C1078 0.930 . S
H1069 C1079 0.930 . S
C1070 H1064 0.930 . S
C1070 C1071 1.355 . S
C1070 C1072 1.415 . S
C1071 C1070 1.355 . S
C1071 C1073 1.419 . S
C1072 C1070 1.415 . S
C1072 C1077 1.425 . S
C1072 C1079 1.409 . S
C1073 H1065 0.930 . S
C1073 C1071 1.419 . S
C1073 C1074 1.362 . S
C1074 H1066 0.930 . S
C1074 C1073 1.362 . S
C1074 C1077 1.409 . S
C1075 H1067 0.930 . S
C1075 C1076 1.355 . S
C1075 C1077 1.415 . S
C1076 C1075 1.355 . S
C1076 C1078 1.419 . S
C1077 C1072 1.425 . S
C1077 C1074 1.409 . S
C1077 C1075 1.415 . S
C1078 H1068 0.930 . S
C1078 C1076 1.419 . S
C1078 C1079 1.362 . S
C1079 H1069 0.930 . S
C1079 C1072 1.409 . S
C1079 C1078 1.362 . S
H1080 C1086 0.930 . S
H1081 C1089 0.930 . S
H1082 C1090 0.930 . S
H1083 C1091 0.930 . S
H1084 C1094 0.930 . S
H1085 C1095 0.930 . S
C1086 H1080 0.930 . S
C1086 C1087 1.355 . S
C1086 C1088 1.415 . S
C1087 C1086 1.355 . S
C1087 C1089 1.419 . S
C1088 C1086 1.415 . S
C1088 C1093 1.425 . S
C1088 C1095 1.409 . S
C1089 H1081 0.930 . S
C1089 C1087 1.419 . S
C1089 C1090 1.362 . S
C1090 H1082 0.930 . S
C1090 C1089 1.362 . S
C1090 C1093 1.409 . S
C1091 H1083 0.930 . S
C1091 C1092 1.355 . S
C1091 C1093 1.415 . S
C1092 C1091 1.355 . S
C1092 C1094 1.419 . S
C1093 C1088 1.425 . S
C1093 C1090 1.409 . S
C1093 C1091 1.415 . S
C1094 H1084 0.930 . S
C1094 C1092 1.419 . S
C1094 C1095 1.362 . S
C1095 H1085 0.930 . S
C1095 C1088 1.409 . S
C1095 C1094 1.362 . S
H1096 C1102 0.930 . S
H1097 C1105 0.930 . S
H1098 C1106 0.930 . S
H1099 C1107 0.930 . S
H1100 C1110 0.930 . S
H1101 C1111 0.930 . S
C1102 H1096 0.930 . S
C1102 C1103 1.355 . S
C1102 C1104 1.415 . S
C1103 C1102 1.355 . S
C1103 C1105 1.419 . S
C1104 C1102 1.415 . S
C1104 C1109 1.425 . S
C1104 C1111 1.409 1_556 S
C1105 H1097 0.930 . S
C1105 C1103 1.419 . S
C1105 C1106 1.362 . S
C1106 H1098 0.930 . S
C1106 C1105 1.362 . S
C1106 C1109 1.409 . S
C1107 H1099 0.930 . S
C1107 C1108 1.355 . S
C1107 C1109 1.415 1_554 S
C1108 C1107 1.355 . S
C1108 C1110 1.419 . S
C1109 C1104 1.425 . S
C1109 C1106 1.409 . S
C1109 C1107 1.415 1_556 S
C1110 H1100 0.930 . S
C1110 C1108 1.419 . S
C1110 C1111 1.362 . S
C1111 H1101 0.930 . S
C1111 C1104 1.409 1_554 S
C1111 C1110 1.362 . S
H1112 C1118 0.930 . S
H1113 C1121 0.930 . S
H1114 C1122 0.930 . S
H1115 C1123 0.930 . S
H1116 C1126 0.930 . S
H1117 C1127 0.930 . S
C1118 H1112 0.930 . S
C1118 C1119 1.355 . S
C1118 C1120 1.415 . S
C1119 C1118 1.355 . S
C1119 C1121 1.419 . S
C1120 C1118 1.415 . S
C1120 C1125 1.425 . S
C1120 C1127 1.409 . S
C1121 H1113 0.930 . S
C1121 C1119 1.419 . S
C1121 C1122 1.362 . S
C1122 H1114 0.930 . S
C1122 C1121 1.362 . S
C1122 C1125 1.409 . S
C1123 H1115 0.930 . S
C1123 C1124 1.355 . S
C1123 C1125 1.415 . S
C1124 C1123 1.355 . S
C1124 C1126 1.419 . S
C1125 C1120 1.425 . S
C1125 C1122 1.409 . S
C1125 C1123 1.415 . S
C1126 H1116 0.930 . S
C1126 C1124 1.419 . S
C1126 C1127 1.362 . S
C1127 H1117 0.930 . S
C1127 C1120 1.409 . S
C1127 C1126 1.362 . S
H1128 C1134 0.930 . S
H1129 C1137 0.930 . S
H1130 C1138 0.930 . S
H1131 C1139 0.930 . S
H1132 C1142 0.930 . S
H1133 C1143 0.930 . S
C1134 H1128 0.930 . S
C1134 C1135 1.355 . S
C1134 C1136 1.415 . S
C1135 C1134 1.355 . S
C1135 C1137 1.419 . S
C1136 C1134 1.415 . S
C1136 C1141 1.425 . S
C1136 C1143 1.409 . S
C1137 H1129 0.930 . S
C1137 C1135 1.419 . S
C1137 C1138 1.362 . S
C1138 H1130 0.930 . S
C1138 C1137 1.362 . S
C1138 C1141 1.409 . S
C1139 H1131 0.930 . S
C1139 C1140 1.355 . S
C1139 C1141 1.415 . S
C1140 C1139 1.355 . S
C1140 C1142 1.419 . S
C1141 C1136 1.425 . S
C1141 C1138 1.409 . S
C1141 C1139 1.415 . S
C1142 H1132 0.930 . S
C1142 C1140 1.419 . S
C1142 C1143 1.362 . S
C1143 H1133 0.930 . S
C1143 C1136 1.409 . S
C1143 C1142 1.362 . S
H1144 C1150 0.930 . S
H1145 C1153 0.930 . S
H1146 C1154 0.930 . S
H1147 C1155 0.930 . S
H1148 C1158 0.930 . S
H1149 C1159 0.930 . S
C1150 H1144 0.930 . S
C1150 C1151 1.355 . S
C1150 C1152 1.415 . S
C1151 C1150 1.355 . S
C1151 C1153 1.419 . S
C1152 C1150 1.415 . S
C1152 C1157 1.425 . S
C1152 C1159 1.409 . S
C1153 H1145 0.930 . S
C1153 C1151 1.419 . S
C1153 C1154 1.362 . S
C1154 H1146 0.930 . S
C1154 C1153 1.362 . S
C1154 C1157 1.409 . S
C1155 H1147 0.930 . S
C1155 C1156 1.355 . S
C1155 C1157 1.415 . S
C1156 C1155 1.355 . S
C1156 C1158 1.419 . S
C1157 C1152 1.425 . S
C1157 C1154 1.409 . S
C1157 C1155 1.415 . S
C1158 H1148 0.930 . S
C1158 C1156 1.419 . S
C1158 C1159 1.362 . S
C1159 H1149 0.930 . S
C1159 C1152 1.409 . S
C1159 C1158 1.362 . S
H1160 C1166 0.930 . S
H1161 C1169 0.930 . S
H1162 C1170 0.930 . S
H1163 C1171 0.930 . S
H1164 C1174 0.930 . S
H1165 C1175 0.930 . S
C1166 H1160 0.930 . S
C1166 C1167 1.355 . S
C1166 C1168 1.415 . S
C1167 C1166 1.355 . S
C1167 C1169 1.419 . S
C1168 C1166 1.415 . S
C1168 C1173 1.425 . S
C1168 C1175 1.409 . S
C1169 H1161 0.930 . S
C1169 C1167 1.419 . S
C1169 C1170 1.362 . S
C1170 H1162 0.930 . S
C1170 C1169 1.362 . S
C1170 C1173 1.409 . S
C1171 H1163 0.930 . S
C1171 C1172 1.355 . S
C1171 C1173 1.415 1_556 S
C1172 C1171 1.355 . S
C1172 C1174 1.419 1_556 S
C1173 C1168 1.425 . S
C1173 C1170 1.409 . S
C1173 C1171 1.415 1_554 S
C1174 H1164 0.930 . S
C1174 C1172 1.419 1_554 S
C1174 C1175 1.362 . S
C1175 H1165 0.930 . S
C1175 C1168 1.409 . S
C1175 C1174 1.362 . S
H1176 C1182 0.930 . S
H1177 C1185 0.930 . S
H1178 C1186 0.930 . S
H1179 C1187 0.930 . S
H1180 C1190 0.930 . S
H1181 C1191 0.930 . S
C1182 H1176 0.930 . S
C1182 C1183 1.355 . S
C1182 C1184 1.415 . S
C1183 C1182 1.355 . S
C1183 C1185 1.419 . S
C1184 C1182 1.415 . S
C1184 C1189 1.425 . S
C1184 C1191 1.409 . S
C1185 H1177 0.930 . S
C1185 C1183 1.419 . S
C1185 C1186 1.362 . S
C1186 H1178 0.930 . S
C1186 C1185 1.362 . S
C1186 C1189 1.409 . S
C1187 H1179 0.930 . S
C1187 C1188 1.355 . S
C1187 C1189 1.415 . S
C1188 C1187 1.355 . S
C1188 C1190 1.419 . S
C1189 C1184 1.425 . S
C1189 C1186 1.409 . S
C1189 C1187 1.415 . S
C1190 H1180 0.930 . S
C1190 C1188 1.419 . S
C1190 C1191 1.362 . S
C1191 H1181 0.930 . S
C1191 C1184 1.409 . S
C1191 C1190 1.362 . S
H1192 C1198 0.930 . S
H1193 C1201 0.930 . S
H1194 C1202 0.930 . S
H1195 C1203 0.930 . S
H1196 C1206 0.930 . S
H1197 C1207 0.930 . S
C1198 H1192 0.930 . S
C1198 C1199 1.355 . S
C1198 C1200 1.415 . S
C1199 C1198 1.355 . S
C1199 C1201 1.419 . S
C1200 C1198 1.415 . S
C1200 C1205 1.425 . S
C1200 C1207 1.409 1_565 S
C1201 H1193 0.930 . S
C1201 C1199 1.419 . S
C1201 C1202 1.362 . S
C1202 H1194 0.930 . S
C1202 C1201 1.362 . S
C1202 C1205 1.409 . S
C1203 H1195 0.930 . S
C1203 C1204 1.355 . S
C1203 C1205 1.415 1_545 S
C1204 C1203 1.355 . S
C1204 C1206 1.419 . S
C1205 C1200 1.425 . S
C1205 C1202 1.409 . S
C1205 C1203 1.415 1_565 S
C1206 H1196 0.930 . S
C1206 C1204 1.419 . S
C1206 C1207 1.362 . S
C1207 H1197 0.930 . S
C1207 C1200 1.409 1_545 S
C1207 C1206 1.362 . S
H1208 C1214 0.930 . S
H1209 C1217 0.930 . S
H1210 C1218 0.930 . S
H1211 C1219 0.930 . S
H1212 C1222 0.930 . S
H1213 C1223 0.930 . S
C1214 H1208 0.930 . S
C1214 C1215 1.355 . S
C1214 C1216 1.415 . S
C1215 C1214 1.355 . S
C1215 C1217 1.419 . S
C1216 C1214 1.415 . S
C1216 C1221 1.425 . S
C1216 C1223 1.409 . S
C1217 H1209 0.930 . S
C1217 C1215 1.419 . S
C1217 C1218 1.362 . S
C1218 H1210 0.930 . S
C1218 C1217 1.362 . S
C1218 C1221 1.409 . S
C1219 H1211 0.930 . S
C1219 C1220 1.355 . S
C1219 C1221 1.415 . S
C1220 C1219 1.355 . S
C1220 C1222 1.419 . S
C1221 C1216 1.425 . S
C1221 C1218 1.409 . S
C1221 C1219 1.415 . S
C1222 H1212 0.930 . S
C1222 C1220 1.419 . S
C1222 C1223 1.362 . S
C1223 H1213 0.930 . S
C1223 C1216 1.409 . S
C1223 C1222 1.362 . S
H1224 C1230 0.930 . S
H1225 C1233 0.930 . S
H1226 C1234 0.930 . S
H1227 C1235 0.930 . S
H1228 C1238 0.930 . S
H1229 C1239 0.930 . S
C1230 H1224 0.930 . S
C1230 C1231 1.355 . S
C1230 C1232 1.415 . S
C1231 C1230 1.355 . S
C1231 C1233 1.419 . S
C1232 C1230 1.415 . S
C1232 C1237 1.425 . S
C1232 C1239 1.409 1_545 S
C1233 H1225 0.930 . S
C1233 C1231 1.419 . S
C1233 C1234 1.362 . S
C1234 H1226 0.930 . S
C1234 C1233 1.362 . S
C1234 C1237 1.409 . S
C1235 H1227 0.930 . S
C1235 C1236 1.355 1_545 S
C1235 C1237 1.415 . S
C1236 C1235 1.355 1_565 S
C1236 C1238 1.419 . S
C1237 C1232 1.425 . S
C1237 C1234 1.409 . S
C1237 C1235 1.415 . S
C1238 H1228 0.930 . S
C1238 C1236 1.419 . S
C1238 C1239 1.362 . S
C1239 H1229 0.930 . S
C1239 C1232 1.409 1_565 S
C1239 C1238 1.362 . S
H1240 C1246 0.930 . S
H1241 C1249 0.930 . S
H1242 C1250 0.930 . S
H1243 C1251 0.930 . S
H1244 C1254 0.930 . S
H1245 C1255 0.930 . S
C1246 H1240 0.930 . S
C1246 C1247 1.355 . S
C1246 C1248 1.415 . S
C1247 C1246 1.355 . S
C1247 C1249 1.419 . S
C1248 C1246 1.415 . S
C1248 C1253 1.425 . S
C1248 C1255 1.409 . S
C1249 H1241 0.930 . S
C1249 C1247 1.419 . S
C1249 C1250 1.362 . S
C1250 H1242 0.930 . S
C1250 C1249 1.362 . S
C1250 C1253 1.409 . S
C1251 H1243 0.930 . S
C1251 C1252 1.355 . S
C1251 C1253 1.415 . S
C1252 C1251 1.355 . S
C1252 C1254 1.419 . S
C1253 C1248 1.425 . S
C1253 C1250 1.409 . S
C1253 C1251 1.415 . S
C1254 H1244 0.930 . S
C1254 C1252 1.419 . S
C1254 C1255 1.362 . S
C1255 H1245 0.930 . S
C1255 C1248 1.409 . S
C1255 C1254 1.362 . S
H1256 C1262 0.930 . S
H1257 C1265 0.930 . S
H1258 C1266 0.930 . S
H1259 C1267 0.930 . S
H1260 C1270 0.930 . S
H1261 C1271 0.930 . S
C1262 H1256 0.930 . S
C1262 C1263 1.355 . S
C1262 C1264 1.415 . S
C1263 C1262 1.355 . S
C1263 C1265 1.419 . S
C1264 C1262 1.415 . S
C1264 C1269 1.425 1_565 S
C1264 C1271 1.409 . S
C1265 H1257 0.930 . S
C1265 C1263 1.419 . S
C1265 C1266 1.362 1_565 S
C1266 H1258 0.930 . S
C1266 C1265 1.362 1_545 S
C1266 C1269 1.409 . S
C1267 H1259 0.930 . S
C1267 C1268 1.355 . S
C1267 C1269 1.415 . S
C1268 C1267 1.355 . S
C1268 C1270 1.419 . S
C1269 C1264 1.425 1_545 S
C1269 C1266 1.409 . S
C1269 C1267 1.415 . S
C1270 H1260 0.930 . S
C1270 C1268 1.419 . S
C1270 C1271 1.362 1_545 S
C1271 H1261 0.930 . S
C1271 C1264 1.409 . S
C1271 C1270 1.362 1_565 S
H1272 C1278 0.930 . S
H1273 C1281 0.930 . S
H1274 C1282 0.930 . S
H1275 C1283 0.930 . S
H1276 C1286 0.930 . S
H1277 C1287 0.930 . S
C1278 H1272 0.930 . S
C1278 C1279 1.355 . S
C1278 C1280 1.415 . S
C1279 C1278 1.355 . S
C1279 C1281 1.419 . S
C1280 C1278 1.415 . S
C1280 C1285 1.425 . S
C1280 C1287 1.409 . S
C1281 H1273 0.930 . S
C1281 C1279 1.419 . S
C1281 C1282 1.362 . S
C1282 H1274 0.930 . S
C1282 C1281 1.362 . S
C1282 C1285 1.409 . S
C1283 H1275 0.930 . S
C1283 C1284 1.355 . S
C1283 C1285 1.415 . S
C1284 C1283 1.355 . S
C1284 C1286 1.419 . S
C1285 C1280 1.425 . S
C1285 C1282 1.409 . S
C1285 C1283 1.415 . S
C1286 H1276 0.930 . S
C1286 C1284 1.419 . S
C1286 C1287 1.362 . S
C1287 H1277 0.930 . S
C1287 C1280 1.409 . S
C1287 C1286 1.362 . S
H1288 C1294 0.930 . S
H1289 C1297 0.930 . S
H1290 C1298 0.930 . S
H1291 C1299 0.930 . S
H1292 C1302 0.930 . S
H1293 C1303 0.930 . S
C1294 H1288 0.930 . S
C1294 C1295 1.355 . S
C1294 C1296 1.415 . S
C1295 C1294 1.355 . S
C1295 C1297 1.419 . S
C1296 C1294 1.415 . S
C1296 C1301 1.425 . S
C1296 C1303 1.409 1_545 S
C1297 H1289 0.930 . S
C1297 C1295 1.419 . S
C1297 C1298 1.362 . S
C1298 H1290 0.930 . S
C1298 C1297 1.362 . S
C1298 C1301 1.409 . S
C1299 H1291 0.930 . S
C1299 C1300 1.355 1_545 S
C1299 C1301 1.415 . S
C1300 C1299 1.355 1_565 S
C1300 C1302 1.419 . S
C1301 C1296 1.425 . S
C1301 C1298 1.409 . S
C1301 C1299 1.415 . S
C1302 H1292 0.930 . S
C1302 C1300 1.419 . S
C1302 C1303 1.362 . S
C1303 H1293 0.930 . S
C1303 C1296 1.409 1_565 S
C1303 C1302 1.362 . S
H1304 C1310 0.930 . S
H1305 C1313 0.930 . S
H1306 C1314 0.930 . S
H1307 C1315 0.930 . S
H1308 C1318 0.930 . S
H1309 C1319 0.930 . S
C1310 H1304 0.930 . S
C1310 C1311 1.355 . S
C1310 C1312 1.415 . S
C1311 C1310 1.355 . S
C1311 C1313 1.419 . S
C1312 C1310 1.415 . S
C1312 C1317 1.425 . S
C1312 C1319 1.409 . S
C1313 H1305 0.930 . S
C1313 C1311 1.419 . S
C1313 C1314 1.362 . S
C1314 H1306 0.930 . S
C1314 C1313 1.362 . S
C1314 C1317 1.409 . S
C1315 H1307 0.930 . S
C1315 C1316 1.355 . S
C1315 C1317 1.415 . S
C1316 C1315 1.355 . S
C1316 C1318 1.419 . S
C1317 C1312 1.425 . S
C1317 C1314 1.409 . S
C1317 C1315 1.415 . S
C1318 H1308 0.930 . S
C1318 C1316 1.419 . S
C1318 C1319 1.362 . S
C1319 H1309 0.930 . S
C1319 C1312 1.409 . S
C1319 C1318 1.362 . S
H1320 C1326 0.930 . S
H1321 C1329 0.930 . S
H1322 C1330 0.930 . S
H1323 C1331 0.930 . S
H1324 C1334 0.930 . S
H1325 C1335 0.930 . S
C1326 H1320 0.930 . S
C1326 C1327 1.355 . S
C1326 C1328 1.415 . S
C1327 C1326 1.355 . S
C1327 C1329 1.419 . S
C1328 C1326 1.415 . S
C1328 C1333 1.425 . S
C1328 C1335 1.409 . S
C1329 H1321 0.930 . S
C1329 C1327 1.419 . S
C1329 C1330 1.362 . S
C1330 H1322 0.930 . S
C1330 C1329 1.362 . S
C1330 C1333 1.409 . S
C1331 H1323 0.930 . S
C1331 C1332 1.355 . S
C1331 C1333 1.415 . S
C1332 C1331 1.355 . S
C1332 C1334 1.419 . S
C1333 C1328 1.425 . S
C1333 C1330 1.409 . S
C1333 C1331 1.415 . S
C1334 H1324 0.930 . S
C1334 C1332 1.419 . S
C1334 C1335 1.362 . S
C1335 H1325 0.930 . S
C1335 C1328 1.409 . S
C1335 C1334 1.362 . S
H1336 C1342 0.930 . S
H1337 C1345 0.930 . S
H1338 C1346 0.930 1_455 S
H1339 C1347 0.930 . S
H1340 C1350 0.930 . S
H1341 C1351 0.930 . S
C1342 H1336 0.930 . S
C1342 C1343 1.355 . S
C1342 C1344 1.415 . S
C1343 C1342 1.355 . S
C1343 C1345 1.419 . S
C1344 C1342 1.415 . S
C1344 C1349 1.425 . S
C1344 C1351 1.409 . S
C1345 H1337 0.930 . S
C1345 C1343 1.419 . S
C1345 C1346 1.362 . S
C1346 H1338 0.930 1_655 S
C1346 C1345 1.362 . S
C1346 C1349 1.409 . S
C1347 H1339 0.930 . S
C1347 C1348 1.355 . S
C1347 C1349 1.415 1_455 S
C1348 C1347 1.355 . S
C1348 C1350 1.419 . S
C1349 C1344 1.425 . S
C1349 C1346 1.409 . S
C1349 C1347 1.415 1_655 S
C1350 H1340 0.930 . S
C1350 C1348 1.419 . S
C1350 C1351 1.362 1_455 S
C1351 H1341 0.930 . S
C1351 C1344 1.409 . S
C1351 C1350 1.362 1_655 S
H1352 C1358 0.930 . S
H1353 C1361 0.930 . S
H1354 C1362 0.930 . S
H1355 C1363 0.930 . S
H1356 C1366 0.930 . S
H1357 C1367 0.930 . S
C1358 H1352 0.930 . S
C1358 C1359 1.355 . S
C1358 C1360 1.415 . S
C1359 C1358 1.355 . S
C1359 C1361 1.419 . S
C1360 C1358 1.415 . S
C1360 C1365 1.425 . S
C1360 C1367 1.409 . S
C1361 H1353 0.930 . S
C1361 C1359 1.419 . S
C1361 C1362 1.362 . S
C1362 H1354 0.930 . S
C1362 C1361 1.362 . S
C1362 C1365 1.409 . S
C1363 H1355 0.930 . S
C1363 C1364 1.355 . S
C1363 C1365 1.415 . S
C1364 C1363 1.355 . S
C1364 C1366 1.419 . S
C1365 C1360 1.425 . S
C1365 C1362 1.409 . S
C1365 C1363 1.415 . S
C1366 H1356 0.930 . S
C1366 C1364 1.419 . S
C1366 C1367 1.362 . S
C1367 H1357 0.930 . S
C1367 C1360 1.409 . S
C1367 C1366 1.362 . S
H1368 C1374 0.930 . S
H1369 C1377 0.930 . S
H1370 C1378 0.930 . S
H1371 C1379 0.930 . S
H1372 C1382 0.930 . S
H1373 C1383 0.930 . S
C1374 H1368 0.930 . S
C1374 C1375 1.355 . S
C1374 C1376 1.415 . S
C1375 C1374 1.355 . S
C1375 C1377 1.419 . S
C1376 C1374 1.415 . S
C1376 C1381 1.425 . S
C1376 C1383 1.409 . S
C1377 H1369 0.930 . S
C1377 C1375 1.419 . S
C1377 C1378 1.362 . S
C1378 H1370 0.930 . S
C1378 C1377 1.362 . S
C1378 C1381 1.409 . S
C1379 H1371 0.930 . S
C1379 C1380 1.355 . S
C1379 C1381 1.415 1_655 S
C1380 C1379 1.355 . S
C1380 C1382 1.419 1_655 S
C1381 C1376 1.425 . S
C1381 C1378 1.409 . S
C1381 C1379 1.415 1_455 S
C1382 H1372 0.930 . S
C1382 C1380 1.419 1_455 S
C1382 C1383 1.362 . S
C1383 H1373 0.930 . S
C1383 C1376 1.409 . S
C1383 C1382 1.362 . S
H1384 C1390 0.930 . S
H1385 C1393 0.930 . S
H1386 C1394 0.930 . S
H1387 C1395 0.930 . S
H1388 C1398 0.930 . S
H1389 C1399 0.930 . S
C1390 H1384 0.930 . S
C1390 C1391 1.355 . S
C1390 C1392 1.415 . S
C1391 C1390 1.355 . S
C1391 C1393 1.419 . S
C1392 C1390 1.415 . S
C1392 C1397 1.425 . S
C1392 C1399 1.409 . S
C1393 H1385 0.930 . S
C1393 C1391 1.419 . S
C1393 C1394 1.362 . S
C1394 H1386 0.930 . S
C1394 C1393 1.362 . S
C1394 C1397 1.409 . S
C1395 H1387 0.930 . S
C1395 C1396 1.355 . S
C1395 C1397 1.415 . S
C1396 C1395 1.355 . S
C1396 C1398 1.419 . S
C1397 C1392 1.425 . S
C1397 C1394 1.409 . S
C1397 C1395 1.415 . S
C1398 H1388 0.930 . S
C1398 C1396 1.419 . S
C1398 C1399 1.362 . S
C1399 H1389 0.930 . S
C1399 C1392 1.409 . S
C1399 C1398 1.362 . S
H1400 C1406 0.930 . S
H1401 C1409 0.930 . S
H1402 C1410 0.930 . S
H1403 C1411 0.930 . S
H1404 C1414 0.930 . S
H1405 C1415 0.930 . S
C1406 H1400 0.930 . S
C1406 C1407 1.355 . S
C1406 C1408 1.415 . S
C1407 C1406 1.355 . S
C1407 C1409 1.419 . S
C1408 C1406 1.415 . S
C1408 C1413 1.425 . S
C1408 C1415 1.409 1_655 S
C1409 H1401 0.930 . S
C1409 C1407 1.419 . S
C1409 C1410 1.362 . S
C1410 H1402 0.930 . S
C1410 C1409 1.362 . S
C1410 C1413 1.409 . S
C1411 H1403 0.930 . S
C1411 C1412 1.355 . S
C1411 C1413 1.415 1_455 S
C1412 C1411 1.355 . S
C1412 C1414 1.419 . S
C1413 C1408 1.425 . S
C1413 C1410 1.409 . S
C1413 C1411 1.415 1_655 S
C1414 H1404 0.930 . S
C1414 C1412 1.419 . S
C1414 C1415 1.362 . S
C1415 H1405 0.930 . S
C1415 C1408 1.409 1_455 S
C1415 C1414 1.362 . S
H1416 C1422 0.930 . S
H1417 C1425 0.930 . S
H1418 C1426 0.930 . S
H1419 C1427 0.930 . S
H1420 C1430 0.930 . S
H1421 C1431 0.930 . S
C1422 H1416 0.930 . S
C1422 C1423 1.355 . S
C1422 C1424 1.415 . S
C1423 C1422 1.355 . S
C1423 C1425 1.419 . S
C1424 C1422 1.415 . S
C1424 C1429 1.425 . S
C1424 C1431 1.409 . S
C1425 H1417 0.930 . S
C1425 C1423 1.419 . S
C1425 C1426 1.362 . S
C1426 H1418 0.930 . S
C1426 C1425 1.362 . S
C1426 C1429 1.409 . S
C1427 H1419 0.930 . S
C1427 C1428 1.355 . S
C1427 C1429 1.415 . S
C1428 C1427 1.355 . S
C1428 C1430 1.419 . S
C1429 C1424 1.425 . S
C1429 C1426 1.409 . S
C1429 C1427 1.415 . S
C1430 H1420 0.930 . S
C1430 C1428 1.419 . S
C1430 C1431 1.362 . S
C1431 H1421 0.930 . S
C1431 C1424 1.409 . S
C1431 C1430 1.362 . S
H1432 C1438 0.930 . S
H1433 C1441 0.930 . S
H1434 C1442 0.930 . S
H1435 C1443 0.930 . S
H1436 C1446 0.930 . S
H1437 C1447 0.930 . S
C1438 H1432 0.930 . S
C1438 C1439 1.355 . S
C1438 C1440 1.415 . S
C1439 C1438 1.355 . S
C1439 C1441 1.419 . S
C1440 C1438 1.415 . S
C1440 C1445 1.425 . S
C1440 C1447 1.409 . S
C1441 H1433 0.930 . S
C1441 C1439 1.419 . S
C1441 C1442 1.362 . S
C1442 H1434 0.930 . S
C1442 C1441 1.362 . S
C1442 C1445 1.409 . S
C1443 H1435 0.930 . S
C1443 C1444 1.355 . S
C1443 C1445 1.415 . S
C1444 C1443 1.355 . S
C1444 C1446 1.419 . S
C1445 C1440 1.425 . S
C1445 C1442 1.409 . S
C1445 C1443 1.415 . S
C1446 H1436 0.930 . S
C1446 C1444 1.419 . S
C1446 C1447 1.362 . S
C1447 H1437 0.930 . S
C1447 C1440 1.409 . S
C1447 C1446 1.362 . S
H1448 C1454 0.930 . S
H1449 C1457 0.930 . S
H1450 C1458 0.930 . S
H1451 C1459 0.930 . S
H1452 C1462 0.930 . S
H1453 C1463 0.930 . S
C1454 H1448 0.930 . S
C1454 C1455 1.355 . S
C1454 C1456 1.415 . S
C1455 C1454 1.355 . S
C1455 C1457 1.419 . S
C1456 C1454 1.415 . S
C1456 C1461 1.425 . S
C1456 C1463 1.409 . S
C1457 H1449 0.930 . S
C1457 C1455 1.419 . S
C1457 C1458 1.362 . S
C1458 H1450 0.930 . S
C1458 C1457 1.362 . S
C1458 C1461 1.409 . S
C1459 H1451 0.930 . S
C1459 C1460 1.355 . S
C1459 C1461 1.415 1_556 S
C1460 C1459 1.355 . S
C1460 C1462 1.419 . S
C1461 C1456 1.425 . S
C1461 C1458 1.409 . S
C1461 C1459 1.415 1_554 S
C1462 H1452 0.930 . S
C1462 C1460 1.419 . S
C1462 C1463 1.362 1_556 S
C1463 H1453 0.930 . S
C1463 C1456 1.409 . S
C1463 C1462 1.362 1_554 S
H1464 C1470 0.930 . S
H1465 C1473 0.930 . S
H1466 C1474 0.930 . S
H1467 C1475 0.930 . S
H1468 C1478 0.930 . S
H1469 C1479 0.930 . S
C1470 H1464 0.930 . S
C1470 C1471 1.355 . S
C1470 C1472 1.415 . S
C1471 C1470 1.355 . S
C1471 C1473 1.419 . S
C1472 C1470 1.415 . S
C1472 C1477 1.425 . S
C1472 C1479 1.409 . S
C1473 H1465 0.930 . S
C1473 C1471 1.419 . S
C1473 C1474 1.362 . S
C1474 H1466 0.930 . S
C1474 C1473 1.362 . S
C1474 C1477 1.409 . S
C1475 H1467 0.930 . S
C1475 C1476 1.355 . S
C1475 C1477 1.415 . S
C1476 C1475 1.355 . S
C1476 C1478 1.419 . S
C1477 C1472 1.425 . S
C1477 C1474 1.409 . S
C1477 C1475 1.415 . S
C1478 H1468 0.930 . S
C1478 C1476 1.419 . S
C1478 C1479 1.362 . S
C1479 H1469 0.930 . S
C1479 C1472 1.409 . S
C1479 C1478 1.362 . S
H1480 C1486 0.930 . S
H1481 C1489 0.930 . S
H1482 C1490 0.930 . S
H1483 C1491 0.930 . S
H1484 C1494 0.930 . S
H1485 C1495 0.930 . S
C1486 H1480 0.930 . S
C1486 C1487 1.355 . S
C1486 C1488 1.415 . S
C1487 C1486 1.355 . S
C1487 C1489 1.419 . S
C1488 C1486 1.415 . S
C1488 C1493 1.425 . S
C1488 C1495 1.409 . S
C1489 H1481 0.930 . S
C1489 C1487 1.419 . S
C1489 C1490 1.362 . S
C1490 H1482 0.930 . S
C1490 C1489 1.362 . S
C1490 C1493 1.409 . S
C1491 H1483 0.930 . S
C1491 C1492 1.355 . S
C1491 C1493 1.415 . S
C1492 C1491 1.355 . S
C1492 C1494 1.419 . S
C1493 C1488 1.425 . S
C1493 C1490 1.409 . S
C1493 C1491 1.415 . S
C1494 H1484 0.930 . S
C1494 C1492 1.419 . S
C1494 C1495 1.362 . S
C1495 H1485 0.930 . S
C1495 C1488 1.409 . S
C1495 C1494 1.362 . S
H1496 C1502 0.930 . S
H1497 C1505 0.930 . S
H1498 C1506 0.930 . S
H1499 C1507 0.930 . S
H1500 C1510 0.930 . S
H1501 C1511 0.930 . S
C1502 H1496 0.930 . S
C1502 C1503 1.355 . S
C1502 C1504 1.415 . S
C1503 C1502 1.355 . S
C1503 C1505 1.419 . S
C1504 C1502 1.415 . S
C1504 C1509 1.425 . S
C1504 C1511 1.409 . S
C1505 H1497 0.930 . S
C1505 C1503 1.419 . S
C1505 C1506 1.362 . S
C1506 H1498 0.930 . S
C1506 C1505 1.362 . S
C1506 C1509 1.409 . S
C1507 H1499 0.930 . S
C1507 C1508 1.355 . S
C1507 C1509 1.415 . S
C1508 C1507 1.355 . S
C1508 C1510 1.419 . S
C1509 C1504 1.425 . S
C1509 C1506 1.409 . S
C1509 C1507 1.415 . S
C1510 H1500 0.930 . S
C1510 C1508 1.419 . S
C1510 C1511 1.362 . S
C1511 H1501 0.930 . S
C1511 C1504 1.409 . S
C1511 C1510 1.362 . S
H1512 C1518 0.930 . S
H1513 C1521 0.930 . S
H1514 C1522 0.930 1_554 S
H1515 C1523 0.930 . S
H1516 C1526 0.930 . S
H1517 C1527 0.930 . S
C1518 H1512 0.930 . S
C1518 C1519 1.355 . S
C1518 C1520 1.415 . S
C1519 C1518 1.355 . S
C1519 C1521 1.419 . S
C1520 C1518 1.415 . S
C1520 C1525 1.448 . S
C1520 C1527 1.409 . S
C1521 H1513 0.930 . S
C1521 C1519 1.419 . S
C1521 C1522 1.362 . S
C1522 H1514 0.930 1_556 S
C1522 C1521 1.362 . S
C1522 C1525 1.417 . S
C1523 H1515 0.930 . S
C1523 C1524 1.355 . S
C1523 C1525 1.386 1_554 S
C1524 C1523 1.355 . S
C1524 C1526 1.419 . S
C1525 C1520 1.448 . S
C1525 C1522 1.417 . S
C1525 C1523 1.386 1_556 S
C1526 H1516 0.930 . S
C1526 C1524 1.419 . S
C1526 C1527 1.362 1_554 S
C1527 H1517 0.930 . S
C1527 C1520 1.409 . S
C1527 C1526 1.362 1_556 S
H1528 C1534 0.930 . S
H1529 C1537 0.930 . S
H1530 C1538 0.930 . S
H1531 C1539 0.930 . S
H1532 C1542 0.930 . S
H1533 C1543 0.930 . S
C1534 H1528 0.930 . S
C1534 C1535 1.355 . S
C1534 C1536 1.415 . S
C1535 C1534 1.355 . S
C1535 C1537 1.419 . S
C1536 C1534 1.415 . S
C1536 C1541 1.425 . S
C1536 C1543 1.409 . S
C1537 H1529 0.930 . S
C1537 C1535 1.419 . S
C1537 C1538 1.362 . S
C1538 H1530 0.930 . S
C1538 C1537 1.362 . S
C1538 C1541 1.409 . S
C1539 H1531 0.930 . S
C1539 C1540 1.355 . S
C1539 C1541 1.415 . S
C1540 C1539 1.355 . S
C1540 C1542 1.419 . S
C1541 C1536 1.425 . S
C1541 C1538 1.409 . S
C1541 C1539 1.415 . S
C1542 H1532 0.930 . S
C1542 C1540 1.419 . S
C1542 C1543 1.362 . S
C1543 H1533 0.930 . S
C1543 C1536 1.409 . S
C1543 C1542 1.362 . S
H1544 C1550 0.930 . S
H1545 C1553 0.930 . S
H1546 C1554 0.930 . S
H1547 C1555 0.930 . S
H1548 C1558 0.930 . S
H1549 C1559 0.930 . S
C1550 H1544 0.930 . S
C1550 C1551 1.355 . S
C1550 C1552 1.415 . S
C1551 C1550 1.355 . S
C1551 C1553 1.419 . S
C1552 C1550 1.415 . S
C1552 C1557 1.425 . S
C1552 C1559 1.409 . S
C1553 H1545 0.930 . S
C1553 C1551 1.419 . S
C1553 C1554 1.362 . S
C1554 H1546 0.930 . S
C1554 C1553 1.362 . S
C1554 C1557 1.409 . S
C1555 H1547 0.930 . S
C1555 C1556 1.355 . S
C1555 C1557 1.415 . S
C1556 C1555 1.355 . S
C1556 C1558 1.419 . S
C1557 C1552 1.425 . S
C1557 C1554 1.409 . S
C1557 C1555 1.415 . S
C1558 H1548 0.930 . S
C1558 C1556 1.419 . S
C1558 C1559 1.362 . S
C1559 H1549 0.930 . S
C1559 C1552 1.409 . S
C1559 C1558 1.362 . S
H1560 C1566 0.930 . S
H1561 C1569 0.930 . S
H1562 C1570 0.930 . S
H1563 C1571 0.930 . S
H1564 C1574 0.930 . S
H1565 C1575 0.930 . S
C1566 H1560 0.930 . S
C1566 C1567 1.355 . S
C1566 C1568 1.415 . S
C1567 C1566 1.355 . S
C1567 C1569 1.419 . S
C1568 C1566 1.415 . S
C1568 C1573 1.425 . S
C1568 C1575 1.409 . S
C1569 H1561 0.930 . S
C1569 C1567 1.419 . S
C1569 C1570 1.362 . S
C1570 H1562 0.930 . S
C1570 C1569 1.362 . S
C1570 C1573 1.409 . S
C1571 H1563 0.930 . S
C1571 C1572 1.355 . S
C1571 C1573 1.415 . S
C1572 C1571 1.355 . S
C1572 C1574 1.419 . S
C1573 C1568 1.425 . S
C1573 C1570 1.409 . S
C1573 C1571 1.415 . S
C1574 H1564 0.930 . S
C1574 C1572 1.419 . S
C1574 C1575 1.362 . S
C1575 H1565 0.930 . S
C1575 C1568 1.409 . S
C1575 C1574 1.362 . S
H1576 C1582 0.930 . S
H1577 C1585 0.930 . S
H1578 C1586 0.930 . S
H1579 C1587 0.930 . S
H1580 C1590 0.930 . S
H1581 C1591 0.930 . S
C1582 H1576 0.930 . S
C1582 C1583 1.355 . S
C1582 C1584 1.415 . S
C1583 C1582 1.355 . S
C1583 C1585 1.419 . S
C1584 C1582 1.415 . S
C1584 C1589 1.425 . S
C1584 C1591 1.409 . S
C1585 H1577 0.930 . S
C1585 C1583 1.419 . S
C1585 C1586 1.362 . S
C1586 H1578 0.930 . S
C1586 C1585 1.362 . S
C1586 C1589 1.409 . S
C1587 H1579 0.930 . S
C1587 C1588 1.355 . S
C1587 C1589 1.415 . S
C1588 C1587 1.355 . S
C1588 C1590 1.419 . S
C1589 C1584 1.425 . S
C1589 C1586 1.409 . S
C1589 C1587 1.415 . S
C1590 H1580 0.930 . S
C1590 C1588 1.419 . S
C1590 C1591 1.362 . S
C1591 H1581 0.930 . S
C1591 C1584 1.409 . S
C1591 C1590 1.362 . S
H1592 C1598 0.930 . S
H1593 C1601 0.930 . S
H1594 C1602 0.930 . S
H1595 C1603 0.930 . S
H1596 C1606 0.930 . S
H1597 C1607 0.930 . S
C1598 H1592 0.930 . S
C1598 C1599 1.355 . S
C1598 C1600 1.415 . S
C1599 C1598 1.355 . S
C1599 C1601 1.419 . S
C1600 C1598 1.415 . S
C1600 C1605 1.425 . S
C1600 C1607 1.409 . S
C1601 H1593 0.930 . S
C1601 C1599 1.419 . S
C1601 C1602 1.362 . S
C1602 H1594 0.930 . S
C1602 C1601 1.362 . S
C1602 C1605 1.409 . S
C1603 H1595 0.930 . S
C1603 C1604 1.355 . S
C1603 C1605 1.415 . S
C1604 C1603 1.355 . S
C1604 C1606 1.419 . S
C1605 C1600 1.425 . S
C1605 C1602 1.409 . S
C1605 C1603 1.415 . S
C1606 H1596 0.930 . S
C1606 C1604 1.419 . S
C1606 C1607 1.362 . S
C1607 H1597 0.930 . S
C1607 C1600 1.409 . S
C1607 C1606 1.362 . S
H1608 C1614 0.930 . S
H1609 C1617 0.930 . S
H1610 C1618 0.930 . S
H1611 C1619 0.930 . S
H1612 C1622 0.930 . S
H1613 C1623 0.930 . S
C1614 H1608 0.930 . S
C1614 C1615 1.355 . S
C1614 C1616 1.415 . S
C1615 C1614 1.355 . S
C1615 C1617 1.419 . S
C1616 C1614 1.415 . S
C1616 C1621 1.425 . S
C1616 C1623 1.409 . S
C1617 H1609 0.930 . S
C1617 C1615 1.419 . S
C1617 C1618 1.362 . S
C1618 H1610 0.930 . S
C1618 C1617 1.362 . S
C1618 C1621 1.409 . S
C1619 H1611 0.930 . S
C1619 C1620 1.355 . S
C1619 C1621 1.415 . S
C1620 C1619 1.355 . S
C1620 C1622 1.419 . S
C1621 C1616 1.425 . S
C1621 C1618 1.409 . S
C1621 C1619 1.415 . S
C1622 H1612 0.930 . S
C1622 C1620 1.419 . S
C1622 C1623 1.362 . S
C1623 H1613 0.930 . S
C1623 C1616 1.409 . S
C1623 C1622 1.362 . S
H1624 C1630 0.930 . S
H1625 C1633 0.930 . S
H1626 C1634 0.930 . S
H1627 C1635 0.930 . S
H1628 C1638 0.930 . S
H1629 C1639 0.930 . S
C1630 H1624 0.930 . S
C1630 C1631 1.355 . S
C1630 C1632 1.415 . S
C1631 C1630 1.355 . S
C1631 C1633 1.419 . S
C1632 C1630 1.415 . S
C1632 C1637 1.425 . S
C1632 C1639 1.409 . S
C1633 H1625 0.930 . S
C1633 C1631 1.419 . S
C1633 C1634 1.362 . S
C1634 H1626 0.930 . S
C1634 C1633 1.362 . S
C1634 C1637 1.409 . S
C1635 H1627 0.930 . S
C1635 C1636 1.355 . S
C1635 C1637 1.415 . S
C1636 C1635 1.355 . S
C1636 C1638 1.419 . S
C1637 C1632 1.425 . S
C1637 C1634 1.409 . S
C1637 C1635 1.415 . S
C1638 H1628 0.930 . S
C1638 C1636 1.419 . S
C1638 C1639 1.362 . S
C1639 H1629 0.930 . S
C1639 C1632 1.409 . S
C1639 C1638 1.362 . S
H1640 C1646 0.930 . S
H1641 C1649 0.930 . S
H1642 C1650 0.930 . S
H1643 C1651 0.930 . S
H1644 C1654 0.930 . S
H1645 C1655 0.930 . S
C1646 H1640 0.930 . S
C1646 C1647 1.355 . S
C1646 C1648 1.415 . S
C1647 C1646 1.355 . S
C1647 C1649 1.419 . S
C1648 C1646 1.415 . S
C1648 C1653 1.425 . S
C1648 C1655 1.409 . S
C1649 H1641 0.930 . S
C1649 C1647 1.419 . S
C1649 C1650 1.362 . S
C1650 H1642 0.930 . S
C1650 C1649 1.362 . S
C1650 C1653 1.409 . S
C1651 H1643 0.930 . S
C1651 C1652 1.355 . S
C1651 C1653 1.415 . S
C1652 C1651 1.355 . S
C1652 C1654 1.419 . S
C1653 C1648 1.425 . S
C1653 C1650 1.409 . S
C1653 C1651 1.415 . S
C1654 H1644 0.930 . S
C1654 C1652 1.419 . S
C1654 C1655 1.362 . S
C1655 H1645 0.930 . S
C1655 C1648 1.409 . S
C1655 C1654 1.362 . S
H1656 C1662 0.930 . S
H1657 C1665 0.930 . S
H1658 C1666 0.930 . S
H1659 C1667 0.930 . S
H1660 C1670 0.930 . S
H1661 C1671 0.930 . S
C1662 H1656 0.930 . S
C1662 C1663 1.355 . S
C1662 C1664 1.415 . S
C1663 C1662 1.355 . S
C1663 C1665 1.419 . S
C1664 C1662 1.415 . S
C1664 C1669 1.425 . S
C1664 C1671 1.409 . S
C1665 H1657 0.930 . S
C1665 C1663 1.419 . S
C1665 C1666 1.362 . S
C1666 H1658 0.930 . S
C1666 C1665 1.362 . S
C1666 C1669 1.409 . S
C1667 H1659 0.930 . S
C1667 C1668 1.355 . S
C1667 C1669 1.415 . S
C1668 C1667 1.355 . S
C1668 C1670 1.419 . S
C1669 C1664 1.425 . S
C1669 C1666 1.409 . S
C1669 C1667 1.415 . S
C1670 H1660 0.930 . S
C1670 C1668 1.419 . S
C1670 C1671 1.362 . S
C1671 H1661 0.930 . S
C1671 C1664 1.409 . S
C1671 C1670 1.362 . S
H1672 C1678 0.930 . S
H1673 C1681 0.930 . S
H1674 C1682 0.930 . S
H1675 C1683 0.930 . S
H1676 C1686 0.930 . S
H1677 C1687 0.930 . S
C1678 H1672 0.930 . S
C1678 C1679 1.355 . S
C1678 C1680 1.415 . S
C1679 C1678 1.355 . S
C1679 C1681 1.419 . S
C1680 C1678 1.415 . S
C1680 C1685 1.425 . S
C1680 C1687 1.409 . S
C1681 H1673 0.930 . S
C1681 C1679 1.419 . S
C1681 C1682 1.362 . S
C1682 H1674 0.930 . S
C1682 C1681 1.362 . S
C1682 C1685 1.409 . S
C1683 H1675 0.930 . S
C1683 C1684 1.355 . S
C1683 C1685 1.415 . S
C1684 C1683 1.355 . S
C1684 C1686 1.419 . S
C1685 C1680 1.425 . S
C1685 C1682 1.409 . S
C1685 C1683 1.415 . S
C1686 H1676 0.930 . S
C1686 C1684 1.419 . S
C1686 C1687 1.362 . S
C1687 H1677 0.930 . S
C1687 C1680 1.409 . S
C1687 C1686 1.362 . S
H1688 C1694 0.930 . S
H1689 C1697 0.930 . S
H1690 C1698 0.930 . S
H1691 C1699 0.930 . S
H1692 C1702 0.930 . S
H1693 C1703 0.930 . S
C1694 H1688 0.930 . S
C1694 C1695 1.355 . S
C1694 C1696 1.415 . S
C1695 C1694 1.355 . S
C1695 C1697 1.419 . S
C1696 C1694 1.415 . S
C1696 C1701 1.425 . S
C1696 C1703 1.409 . S
C1697 H1689 0.930 . S
C1697 C1695 1.419 . S
C1697 C1698 1.362 . S
C1698 H1690 0.930 . S
C1698 C1697 1.362 . S
C1698 C1701 1.409 . S
C1699 H1691 0.930 . S
C1699 C1700 1.355 . S
C1699 C1701 1.415 . S
C1700 C1699 1.355 . S
C1700 C1702 1.419 . S
C1701 C1696 1.425 . S
C1701 C1698 1.409 . S
C1701 C1699 1.415 . S
C1702 H1692 0.930 . S
C1702 C1700 1.419 . S
C1702 C1703 1.362 . S
C1703 H1693 0.930 . S
C1703 C1696 1.409 . S
C1703 C1702 1.362 . S
H1704 C1710 0.930 . S
H1705 C1713 0.930 . S
H1706 C1714 0.930 . S
H1707 C1715 0.930 . S
H1708 C1718 0.930 . S
H1709 C1719 0.930 . S
C1710 H1704 0.930 . S
C1710 C1711 1.355 . S
C1710 C1712 1.415 . S
C1711 C1710 1.355 . S
C1711 C1713 1.419 . S
C1712 C1710 1.415 . S
C1712 C1717 1.425 . S
C1712 C1719 1.409 . S
C1713 H1705 0.930 . S
C1713 C1711 1.419 . S
C1713 C1714 1.362 . S
C1714 H1706 0.930 . S
C1714 C1713 1.362 . S
C1714 C1717 1.409 . S
C1715 H1707 0.930 . S
C1715 C1716 1.355 . S
C1715 C1717 1.415 . S
C1716 C1715 1.355 . S
C1716 C1718 1.419 . S
C1717 C1712 1.425 . S
C1717 C1714 1.409 . S
C1717 C1715 1.415 . S
C1718 H1708 0.930 . S
C1718 C1716 1.419 . S
C1718 C1719 1.362 . S
C1719 H1709 0.930 . S
C1719 C1712 1.409 . S
C1719 C1718 1.362 . S
H1720 C1726 0.930 . S
H1721 C1729 0.930 . S
H1722 C1730 0.930 . S
H1723 C1731 0.930 . S
H1724 C1734 0.930 . S
H1725 C1735 0.930 . S
C1726 H1720 0.930 . S
C1726 C1727 1.355 . S
C1726 C1728 1.415 . S
C1727 C1726 1.355 . S
C1727 C1729 1.419 . S
C1728 C1726 1.415 . S
C1728 C1733 1.425 . S
C1728 C1735 1.409 . S
C1729 H1721 0.930 . S
C1729 C1727 1.419 . S
C1729 C1730 1.362 . S
C1730 H1722 0.930 . S
C1730 C1729 1.362 . S
C1730 C1733 1.409 . S
C1731 H1723 0.930 . S
C1731 C1732 1.355 . S
C1731 C1733 1.415 . S
C1732 C1731 1.355 . S
C1732 C1734 1.419 . S
C1733 C1728 1.425 . S
C1733 C1730 1.409 . S
C1733 C1731 1.415 . S
C1734 H1724 0.930 . S
C1734 C1732 1.419 . S
C1734 C1735 1.362 . S
C1735 H1725 0.930 . S
C1735 C1728 1.409 . S
C1735 C1734 1.362 . S
H1736 C1742 0.930 . S
H1737 C1745 0.930 . S
H1738 C1746 0.930 . S
H1739 C1747 0.930 . S
H1740 C1750 0.930 . S
H1741 C1751 0.930 . S
C1742 H1736 0.930 . S
C1742 C1743 1.355 . S
C1742 C1744 1.415 . S
C1743 C1742 1.355 . S
C1743 C1745 1.419 . S
C1744 C1742 1.415 . S
C1744 C1749 1.425 . S
C1744 C1751 1.409 . S
C1745 H1737 0.930 . S
C1745 C1743 1.419 . S
C1745 C1746 1.362 . S
C1746 H1738 0.930 . S
C1746 C1745 1.362 . S
C1746 C1749 1.409 . S
C1747 H1739 0.930 . S
C1747 C1748 1.355 . S
C1747 C1749 1.415 . S
C1748 C1747 1.355 . S
C1748 C1750 1.419 . S
C1749 C1744 1.425 . S
C1749 C1746 1.409 . S
C1749 C1747 1.415 . S
C1750 H1740 0.930 . S
C1750 C1748 1.419 . S
C1750 C1751 1.362 . S
C1751 H1741 0.930 . S
C1751 C1744 1.409 . S
C1751 C1750 1.362 . S
H1752 C1758 0.930 . S
H1753 C1761 0.930 . S
H1754 C1762 0.930 . S
H1755 C1763 0.930 . S
H1756 C1766 0.930 . S
H1757 C1767 0.930 . S
C1758 H1752 0.930 . S
C1758 C1759 1.355 . S
C1758 C1760 1.415 . S
C1759 C1758 1.355 . S
C1759 C1761 1.419 . S
C1760 C1758 1.415 . S
C1760 C1765 1.425 . S
C1760 C1767 1.409 . S
C1761 H1753 0.930 . S
C1761 C1759 1.419 . S
C1761 C1762 1.362 . S
C1762 H1754 0.930 . S
C1762 C1761 1.362 . S
C1762 C1765 1.409 . S
C1763 H1755 0.930 . S
C1763 C1764 1.355 . S
C1763 C1765 1.415 . S
C1764 C1763 1.355 . S
C1764 C1766 1.419 . S
C1765 C1760 1.425 . S
C1765 C1762 1.409 . S
C1765 C1763 1.415 . S
C1766 H1756 0.930 . S
C1766 C1764 1.419 . S
C1766 C1767 1.362 . S
C1767 H1757 0.930 . S
C1767 C1760 1.409 . S
C1767 C1766 1.362 . S
H1768 C1774 0.930 . S
H1769 C1777 0.930 . S
H1770 C1778 0.930 . S
H1771 C1779 0.930 . S
H1772 C1782 0.930 . S
H1773 C1783 0.930 . S
C1774 H1768 0.930 . S
C1774 C1775 1.355 . S
C1774 C1776 1.415 . S
C1775 C1774 1.355 . S
C1775 C1777 1.419 . S
C1776 C1774 1.415 . S
C1776 C1781 1.425 . S
C1776 C1783 1.409 . S
C1777 H1769 0.930 . S
C1777 C1775 1.419 . S
C1777 C1778 1.362 . S
C1778 H1770 0.930 . S
C1778 C1777 1.362 . S
C1778 C1781 1.409 . S
C1779 H1771 0.930 . S
C1779 C1780 1.355 . S
C1779 C1781 1.415 . S
C1780 C1779 1.355 . S
C1780 C1782 1.419 . S
C1781 C1776 1.425 . S
C1781 C1778 1.409 . S
C1781 C1779 1.415 . S
C1782 H1772 0.930 . S
C1782 C1780 1.419 . S
C1782 C1783 1.362 . S
C1783 H1773 0.930 . S
C1783 C1776 1.409 . S
C1783 C1782 1.362 . S
H1784 C1790 0.930 . S
H1785 C1793 0.930 . S
H1786 C1794 0.930 . S
H1787 C1795 0.930 . S
H1788 C1798 0.930 . S
H1789 C1799 0.930 . S
C1790 H1784 0.930 . S
C1790 C1791 1.355 . S
C1790 C1792 1.415 . S
C1791 C1790 1.355 . S
C1791 C1793 1.419 . S
C1792 C1790 1.415 . S
C1792 C1797 1.425 . S
C1792 C1799 1.409 . S
C1793 H1785 0.930 . S
C1793 C1791 1.419 . S
C1793 C1794 1.362 . S
C1794 H1786 0.930 . S
C1794 C1793 1.362 . S
C1794 C1797 1.409 . S
C1795 H1787 0.930 . S
C1795 C1796 1.355 . S
C1795 C1797 1.415 . S
C1796 C1795 1.355 . S
C1796 C1798 1.419 . S
C1797 C1792 1.425 . S
C1797 C1794 1.409 . S
C1797 C1795 1.415 . S
C1798 H1788 0.930 . S
C1798 C1796 1.419 . S
C1798 C1799 1.362 . S
C1799 H1789 0.930 . S
C1799 C1792 1.409 . S
C1799 C1798 1.362 . S
H1800 C1806 0.930 . S
H1801 C1809 0.930 . S
H1802 C1810 0.930 . S
H1803 C1811 0.930 . S
H1804 C1814 0.930 . S
H1805 C1815 0.930 . S
C1806 H1800 0.930 . S
C1806 C1807 1.355 . S
C1806 C1808 1.415 . S
C1807 C1806 1.355 . S
C1807 C1809 1.419 . S
C1808 C1806 1.415 . S
C1808 C1813 1.425 . S
C1808 C1815 1.409 1_655 S
C1809 H1801 0.930 . S
C1809 C1807 1.419 . S
C1809 C1810 1.362 . S
C1810 H1802 0.930 . S
C1810 C1809 1.362 . S
C1810 C1813 1.409 . S
C1811 H1803 0.930 . S
C1811 C1812 1.355 . S
C1811 C1813 1.415 1_455 S
C1812 C1811 1.355 . S
C1812 C1814 1.419 . S
C1813 C1808 1.425 . S
C1813 C1810 1.409 . S
C1813 C1811 1.415 1_655 S
C1814 H1804 0.930 . S
C1814 C1812 1.419 . S
C1814 C1815 1.362 . S
C1815 H1805 0.930 . S
C1815 C1808 1.409 1_455 S
C1815 C1814 1.362 . S
H1816 C1822 0.930 . S
H1817 C1825 0.930 . S
H1818 C1826 0.930 . S
H1819 C1827 0.930 . S
H1820 C1830 0.930 . S
H1821 C1831 0.930 . S
C1822 H1816 0.930 . S
C1822 C1823 1.355 . S
C1822 C1824 1.415 . S
C1823 C1822 1.355 . S
C1823 C1825 1.419 . S
C1824 C1822 1.415 . S
C1824 C1829 1.425 . S
C1824 C1831 1.409 . S
C1825 H1817 0.930 . S
C1825 C1823 1.419 . S
C1825 C1826 1.362 . S
C1826 H1818 0.930 . S
C1826 C1825 1.362 . S
C1826 C1829 1.409 . S
C1827 H1819 0.930 . S
C1827 C1828 1.355 . S
C1827 C1829 1.415 . S
C1828 C1827 1.355 . S
C1828 C1830 1.419 . S
C1829 C1824 1.425 . S
C1829 C1826 1.409 . S
C1829 C1827 1.415 . S
C1830 H1820 0.930 . S
C1830 C1828 1.419 . S
C1830 C1831 1.362 . S
C1831 H1821 0.930 . S
C1831 C1824 1.409 . S
C1831 C1830 1.362 . S
H1832 C1838 0.930 . S
H1833 C1841 0.930 . S
H1834 C1842 0.930 . S
H1835 C1843 0.930 . S
H1836 C1846 0.930 . S
H1837 C1847 0.930 . S
C1838 H1832 0.930 . S
C1838 C1839 1.355 . S
C1838 C1840 1.415 . S
C1839 C1838 1.355 . S
C1839 C1841 1.419 . S
C1840 C1838 1.415 . S
C1840 C1845 1.425 . S
C1840 C1847 1.409 1_556 S
C1841 H1833 0.930 . S
C1841 C1839 1.419 . S
C1841 C1842 1.362 . S
C1842 H1834 0.930 . S
C1842 C1841 1.362 . S
C1842 C1845 1.409 . S
C1843 H1835 0.930 . S
C1843 C1844 1.355 . S
C1843 C1845 1.415 1_554 S
C1844 C1843 1.355 . S
C1844 C1846 1.419 . S
C1845 C1840 1.425 . S
C1845 C1842 1.409 . S
C1845 C1843 1.415 1_556 S
C1846 H1836 0.930 . S
C1846 C1844 1.419 . S
C1846 C1847 1.362 . S
C1847 H1837 0.930 . S
C1847 C1840 1.409 1_554 S
C1847 C1846 1.362 . S
H1848 C1854 0.930 . S
H1849 C1857 0.930 . S
H1850 C1858 0.930 . S
H1851 C1859 0.930 . S
H1852 C1862 0.930 . S
H1853 C1863 0.930 . S
C1854 H1848 0.930 . S
C1854 C1855 1.355 . S
C1854 C1856 1.415 . S
C1855 C1854 1.355 . S
C1855 C1857 1.419 . S
C1856 C1854 1.415 . S
C1856 C1861 1.425 . S
C1856 C1863 1.409 . S
C1857 H1849 0.930 . S
C1857 C1855 1.419 . S
C1857 C1858 1.362 . S
C1858 H1850 0.930 . S
C1858 C1857 1.362 . S
C1858 C1861 1.409 . S
C1859 H1851 0.930 . S
C1859 C1860 1.355 . S
C1859 C1861 1.415 . S
C1860 C1859 1.355 . S
C1860 C1862 1.419 . S
C1861 C1856 1.425 . S
C1861 C1858 1.409 . S
C1861 C1859 1.415 . S
C1862 H1852 0.930 . S
C1862 C1860 1.419 . S
C1862 C1863 1.362 . S
C1863 H1853 0.930 . S
C1863 C1856 1.409 . S
C1863 C1862 1.362 . S
H1864 C1870 0.930 . S
H1865 C1873 0.930 . S
H1866 C1874 0.930 . S
H1867 C1875 0.930 . S
H1868 C1878 0.930 . S
H1869 C1879 0.930 . S
C1870 H1864 0.930 . S
C1870 C1871 1.355 . S
C1870 C1872 1.415 . S
C1871 C1870 1.355 . S
C1871 C1873 1.419 . S
C1872 C1870 1.415 . S
C1872 C1877 1.425 . S
C1872 C1879 1.409 . S
C1873 H1865 0.930 . S
C1873 C1871 1.419 . S
C1873 C1874 1.362 . S
C1874 H1866 0.930 . S
C1874 C1873 1.362 . S
C1874 C1877 1.409 . S
C1875 H1867 0.930 . S
C1875 C1876 1.355 . S
C1875 C1877 1.415 . S
C1876 C1875 1.355 . S
C1876 C1878 1.419 . S
C1877 C1872 1.425 . S
C1877 C1874 1.409 . S
C1877 C1875 1.415 . S
C1878 H1868 0.930 . S
C1878 C1876 1.419 . S
C1878 C1879 1.362 . S
C1879 H1869 0.930 . S
C1879 C1872 1.409 . S
C1879 C1878 1.362 . S
H1880 C1886 0.930 . S
H1881 C1889 0.930 . S
H1882 C1890 0.930 . S
H1883 C1891 0.930 . S
H1884 C1894 0.930 . S
H1885 C1895 0.930 . S
C1886 H1880 0.930 . S
C1886 C1887 1.355 . S
C1886 C1888 1.415 . S
C1887 C1886 1.355 . S
C1887 C1889 1.419 . S
C1888 C1886 1.415 . S
C1888 C1893 1.425 . S
C1888 C1895 1.409 . S
C1889 H1881 0.930 . S
C1889 C1887 1.419 . S
C1889 C1890 1.362 . S
C1890 H1882 0.930 . S
C1890 C1889 1.362 . S
C1890 C1893 1.409 . S
C1891 H1883 0.930 . S
C1891 C1892 1.355 . S
C1891 C1893 1.415 . S
C1892 C1891 1.355 . S
C1892 C1894 1.419 . S
C1893 C1888 1.425 . S
C1893 C1890 1.409 . S
C1893 C1891 1.415 . S
C1894 H1884 0.930 . S
C1894 C1892 1.419 . S
C1894 C1895 1.362 . S
C1895 H1885 0.930 . S
C1895 C1888 1.409 . S
C1895 C1894 1.362 . S
H1896 C1902 0.930 . S
H1897 C1905 0.930 . S
H1898 C1906 0.930 . S
H1899 C1907 0.930 . S
H1900 C1910 0.924 1_556 S
H1901 C1911 0.930 . S
C1902 H1896 0.930 . S
C1902 C1903 1.355 . S
C1902 C1904 1.415 . S
C1903 C1902 1.355 . S
C1903 C1905 1.419 . S
C1904 C1902 1.415 . S
C1904 C1909 1.425 . S
C1904 C1911 1.409 . S
C1905 H1897 0.930 . S
C1905 C1903 1.419 . S
C1905 C1906 1.362 . S
C1906 H1898 0.930 . S
C1906 C1905 1.362 . S
C1906 C1909 1.409 . S
C1907 H1899 0.930 . S
C1907 C1908 1.355 . S
C1907 C1909 1.415 1_556 S
C1908 C1907 1.355 . S
C1908 C1910 1.393 1_556 S
C1909 C1904 1.425 . S
C1909 C1906 1.409 . S
C1909 C1907 1.415 1_554 S
C1910 H1900 0.924 1_554 S
C1910 C1908 1.393 1_554 S
C1910 C1911 1.396 . S
C1911 H1901 0.930 . S
C1911 C1904 1.409 . S
C1911 C1910 1.396 . S
H1912 C1918 0.930 . S
H1913 C1921 0.930 . S
H1914 C1922 0.930 . S
H1915 C1923 0.930 . S
H1916 C1926 0.930 . S
H1917 C1927 0.930 . S
C1918 H1912 0.930 . S
C1918 C1919 1.355 . S
C1918 C1920 1.415 . S
C1919 C1918 1.355 . S
C1919 C1921 1.419 . S
C1920 C1918 1.415 . S
C1920 C1925 1.425 . S
C1920 C1927 1.409 . S
C1921 H1913 0.930 . S
C1921 C1919 1.419 . S
C1921 C1922 1.362 . S
C1922 H1914 0.930 . S
C1922 C1921 1.362 . S
C1922 C1925 1.409 . S
C1923 H1915 0.930 . S
C1923 C1924 1.355 . S
C1923 C1925 1.415 . S
C1924 C1923 1.355 . S
C1924 C1926 1.419 . S
C1925 C1920 1.425 . S
C1925 C1922 1.409 . S
C1925 C1923 1.415 . S
C1926 H1916 0.930 . S
C1926 C1924 1.419 . S
C1926 C1927 1.362 . S
C1927 H1917 0.930 . S
C1927 C1920 1.409 . S
C1927 C1926 1.362 . S
H1928 C1934 0.930 . S
H1929 C1937 0.930 . S
H1930 C1938 0.930 . S
H1931 C1939 0.930 . S
H1932 C1942 0.930 . S
H1933 C1943 0.930 . S
C1934 H1928 0.930 . S
C1934 C1935 1.355 . S
C1934 C1936 1.415 . S
C1935 C1934 1.355 . S
C1935 C1937 1.419 . S
C1936 C1934 1.415 . S
C1936 C1941 1.425 . S
C1936 C1943 1.409 . S
C1937 H1929 0.930 . S
C1937 C1935 1.419 . S
C1937 C1938 1.362 . S
C1938 H1930 0.930 . S
C1938 C1937 1.362 . S
C1938 C1941 1.409 . S
C1939 H1931 0.930 . S
C1939 C1940 1.355 . S
C1939 C1941 1.415 . S
C1940 C1939 1.355 . S
C1940 C1942 1.419 . S
C1941 C1936 1.425 . S
C1941 C1938 1.409 . S
C1941 C1939 1.415 . S
C1942 H1932 0.930 . S
C1942 C1940 1.419 . S
C1942 C1943 1.362 . S
C1943 H1933 0.930 . S
C1943 C1936 1.409 . S
C1943 C1942 1.362 . S
H1944 C1950 0.930 . S
H1945 C1953 0.930 . S
H1946 C1954 0.930 . S
H1947 C1955 0.930 . S
H1948 C1958 0.930 . S
H1949 C1959 0.930 . S
C1950 H1944 0.930 . S
C1950 C1951 1.355 . S
C1950 C1952 1.415 . S
C1951 C1950 1.355 . S
C1951 C1953 1.419 . S
C1952 C1950 1.415 . S
C1952 C1957 1.425 . S
C1952 C1959 1.409 . S
C1953 H1945 0.930 . S
C1953 C1951 1.419 . S
C1953 C1954 1.362 . S
C1954 H1946 0.930 . S
C1954 C1953 1.362 . S
C1954 C1957 1.409 . S
C1955 H1947 0.930 . S
C1955 C1956 1.355 . S
C1955 C1957 1.415 . S
C1956 C1955 1.355 . S
C1956 C1958 1.419 . S
C1957 C1952 1.425 . S
C1957 C1954 1.409 . S
C1957 C1955 1.415 . S
C1958 H1948 0.930 . S
C1958 C1956 1.419 . S
C1958 C1959 1.362 . S
C1959 H1949 0.930 . S
C1959 C1952 1.409 . S
C1959 C1958 1.362 . S
H1960 C1966 0.930 . S
H1961 C1969 0.930 . S
H1962 C1970 0.930 . S
H1963 C1971 0.930 . S
H1964 C1974 0.930 . S
H1965 C1975 0.930 . S
C1966 H1960 0.930 . S
C1966 C1967 1.355 . S
C1966 C1968 1.415 . S
C1967 C1966 1.355 . S
C1967 C1969 1.419 . S
C1968 C1966 1.415 . S
C1968 C1973 1.425 . S
C1968 C1975 1.409 . S
C1969 H1961 0.930 . S
C1969 C1967 1.419 . S
C1969 C1970 1.362 . S
C1970 H1962 0.930 . S
C1970 C1969 1.362 . S
C1970 C1973 1.409 . S
C1971 H1963 0.930 . S
C1971 C1972 1.355 . S
C1971 C1973 1.415 . S
C1972 C1971 1.355 . S
C1972 C1974 1.419 . S
C1973 C1968 1.425 . S
C1973 C1970 1.409 . S
C1973 C1971 1.415 . S
C1974 H1964 0.930 . S
C1974 C1972 1.419 . S
C1974 C1975 1.362 . S
C1975 H1965 0.930 . S
C1975 C1968 1.409 . S
C1975 C1974 1.362 . S
H1976 C1982 0.930 . S
H1977 C1985 0.930 . S
H1978 C1986 0.930 . S
H1979 C1987 0.930 . S
H1980 C1990 0.930 . S
H1981 C1991 0.930 . S
C1982 H1976 0.930 . S
C1982 C1983 1.355 . S
C1982 C1984 1.415 . S
C1983 C1982 1.355 . S
C1983 C1985 1.419 . S
C1984 C1982 1.415 . S
C1984 C1989 1.425 . S
C1984 C1991 1.409 . S
C1985 H1977 0.930 . S
C1985 C1983 1.419 . S
C1985 C1986 1.362 . S
C1986 H1978 0.930 . S
C1986 C1985 1.362 . S
C1986 C1989 1.409 . S
C1987 H1979 0.930 . S
C1987 C1988 1.355 . S
C1987 C1989 1.415 . S
C1988 C1987 1.355 . S
C1988 C1990 1.419 . S
C1989 C1984 1.425 . S
C1989 C1986 1.409 . S
C1989 C1987 1.415 . S
C1990 H1980 0.930 . S
C1990 C1988 1.419 . S
C1990 C1991 1.362 . S
C1991 H1981 0.930 . S
C1991 C1984 1.409 . S
C1991 C1990 1.362 . S
H1992 C1998 0.930 . S
H1993 C2001 0.930 . S
H1994 C2002 0.930 . S
H1995 C2003 0.930 . S
H1996 C2006 0.930 . S
H1997 C2007 0.930 . S
C1998 H1992 0.930 . S
C1998 C1999 1.355 . S
C1998 C2000 1.415 . S
C1999 C1998 1.355 . S
C1999 C2001 1.419 . S
C2000 C1998 1.415 . S
C2000 C2005 1.425 . S
C2000 C2007 1.409 . S
C2001 H1993 0.930 . S
C2001 C1999 1.419 . S
C2001 C2002 1.362 . S
C2002 H1994 0.930 . S
C2002 C2001 1.362 . S
C2002 C2005 1.409 . S
C2003 H1995 0.930 . S
C2003 C2004 1.355 . S
C2003 C2005 1.415 . S
C2004 C2003 1.355 . S
C2004 C2006 1.419 . S
C2005 C2000 1.425 . S
C2005 C2002 1.409 . S
C2005 C2003 1.415 . S
C2006 H1996 0.930 . S
C2006 C2004 1.419 . S
C2006 C2007 1.362 . S
C2007 H1997 0.930 . S
C2007 C2000 1.409 . S
C2007 C2006 1.362 . S
H2008 C2014 0.930 . S
H2009 C2017 0.930 . S
H2010 C2018 0.930 . S
H2011 C2019 0.930 . S
H2012 C2022 0.930 . S
H2013 C2023 0.930 . S
C2014 H2008 0.930 . S
C2014 C2015 1.355 . S
C2014 C2016 1.415 . S
C2015 C2014 1.355 . S
C2015 C2017 1.419 . S
C2016 C2014 1.415 . S
C2016 C2021 1.425 . S
C2016 C2023 1.409 . S
C2017 H2009 0.930 . S
C2017 C2015 1.419 . S
C2017 C2018 1.362 . S
C2018 H2010 0.930 . S
C2018 C2017 1.362 . S
C2018 C2021 1.409 . S
C2019 H2011 0.930 . S
C2019 C2020 1.355 . S
C2019 C2021 1.415 . S
C2020 C2019 1.355 . S
C2020 C2022 1.419 . S
C2021 C2016 1.425 . S
C2021 C2018 1.409 . S
C2021 C2019 1.415 . S
C2022 H2012 0.930 . S
C2022 C2020 1.419 . S
C2022 C2023 1.362 . S
C2023 H2013 0.930 . S
C2023 C2016 1.409 . S
C2023 C2022 1.362 . S
H2024 C2030 0.930 . S
H2025 C2033 0.930 . S
H2026 C2034 0.930 . S
H2027 C2035 0.930 . S
H2028 C2038 0.930 . S
H2029 C2039 0.930 . S
C2030 H2024 0.930 . S
C2030 C2031 1.355 . S
C2030 C2032 1.415 . S
C2031 C2030 1.355 . S
C2031 C2033 1.419 . S
C2032 C2030 1.415 . S
C2032 C2037 1.425 . S
C2032 C2039 1.409 . S
C2033 H2025 0.930 . S
C2033 C2031 1.419 . S
C2033 C2034 1.362 . S
C2034 H2026 0.930 . S
C2034 C2033 1.362 . S
C2034 C2037 1.409 . S
C2035 H2027 0.930 . S
C2035 C2036 1.355 . S
C2035 C2037 1.415 . S
C2036 C2035 1.355 . S
C2036 C2038 1.419 . S
C2037 C2032 1.425 . S
C2037 C2034 1.409 . S
C2037 C2035 1.415 . S
C2038 H2028 0.930 . S
C2038 C2036 1.419 . S
C2038 C2039 1.362 . S
C2039 H2029 0.930 . S
C2039 C2032 1.409 . S
C2039 C2038 1.362 . S
H2040 C2046 0.930 . S
H2041 C2049 0.930 . S
H2042 C2050 0.930 . S
H2043 C2051 0.930 . S
H2044 C2054 0.930 . S
H2045 C2055 0.930 . S
C2046 H2040 0.930 . S
C2046 C2047 1.355 . S
C2046 C2048 1.415 . S
C2047 C2046 1.355 . S
C2047 C2049 1.419 . S
C2048 C2046 1.415 . S
C2048 C2053 1.425 . S
C2048 C2055 1.409 . S
C2049 H2041 0.930 . S
C2049 C2047 1.419 . S
C2049 C2050 1.362 . S
C2050 H2042 0.930 . S
C2050 C2049 1.362 . S
C2050 C2053 1.409 . S
C2051 H2043 0.930 . S
C2051 C2052 1.355 . S
C2051 C2053 1.415 . S
C2052 C2051 1.355 . S
C2052 C2054 1.419 . S
C2053 C2048 1.425 . S
C2053 C2050 1.409 . S
C2053 C2051 1.415 . S
C2054 H2044 0.930 . S
C2054 C2052 1.419 . S
C2054 C2055 1.362 . S
C2055 H2045 0.930 . S
C2055 C2048 1.409 . S
C2055 C2054 1.362 . S
H2056 C2062 0.930 . S
H2057 C2065 0.930 . S
H2058 C2066 0.930 . S
H2059 C2067 0.930 . S
H2060 C2070 0.930 . S
H2061 C2071 0.930 . S
C2062 H2056 0.930 . S
C2062 C2063 1.355 . S
C2062 C2064 1.415 . S
C2063 C2062 1.355 . S
C2063 C2065 1.419 . S
C2064 C2062 1.415 . S
C2064 C2069 1.425 . S
C2064 C2071 1.409 . S
C2065 H2057 0.930 . S
C2065 C2063 1.419 . S
C2065 C2066 1.362 . S
C2066 H2058 0.930 . S
C2066 C2065 1.362 . S
C2066 C2069 1.409 . S
C2067 H2059 0.930 . S
C2067 C2068 1.355 . S
C2067 C2069 1.415 . S
C2068 C2067 1.355 . S
C2068 C2070 1.419 . S
C2069 C2064 1.425 . S
C2069 C2066 1.409 . S
C2069 C2067 1.415 . S
C2070 H2060 0.930 . S
C2070 C2068 1.419 . S
C2070 C2071 1.362 . S
C2071 H2061 0.930 . S
C2071 C2064 1.409 . S
C2071 C2070 1.362 . S
H2072 C2078 0.930 . S
H2073 C2081 0.930 . S
H2074 C2082 0.930 . S
H2075 C2083 0.930 . S
H2076 C2086 0.930 . S
H2077 C2087 0.930 . S
C2078 H2072 0.930 . S
C2078 C2079 1.355 . S
C2078 C2080 1.415 . S
C2079 C2078 1.355 . S
C2079 C2081 1.419 . S
C2080 C2078 1.415 . S
C2080 C2085 1.425 . S
C2080 C2087 1.409 . S
C2081 H2073 0.930 . S
C2081 C2079 1.419 . S
C2081 C2082 1.362 . S
C2082 H2074 0.930 . S
C2082 C2081 1.362 . S
C2082 C2085 1.409 . S
C2083 H2075 0.930 . S
C2083 C2084 1.355 . S
C2083 C2085 1.415 . S
C2084 C2083 1.355 . S
C2084 C2086 1.419 . S
C2085 C2080 1.425 . S
C2085 C2082 1.409 . S
C2085 C2083 1.415 . S
C2086 H2076 0.930 . S
C2086 C2084 1.419 . S
C2086 C2087 1.362 . S
C2087 H2077 0.930 . S
C2087 C2080 1.409 . S
C2087 C2086 1.362 . S
H2088 C2094 0.930 . S
H2089 C2097 0.930 . S
H2090 C2098 0.930 . S
H2091 C2099 0.930 . S
H2092 C2102 0.930 . S
H2093 C2103 0.930 . S
C2094 H2088 0.930 . S
C2094 C2095 1.355 . S
C2094 C2096 1.415 . S
C2095 C2094 1.355 . S
C2095 C2097 1.419 . S
C2096 C2094 1.415 . S
C2096 C2101 1.425 . S
C2096 C2103 1.409 . S
C2097 H2089 0.930 . S
C2097 C2095 1.419 . S
C2097 C2098 1.362 . S
C2098 H2090 0.930 . S
C2098 C2097 1.362 . S
C2098 C2101 1.409 . S
C2099 H2091 0.930 . S
C2099 C2100 1.355 . S
C2099 C2101 1.415 . S
C2100 C2099 1.355 . S
C2100 C2102 1.419 . S
C2101 C2096 1.425 . S
C2101 C2098 1.409 . S
C2101 C2099 1.415 . S
C2102 H2092 0.930 . S
C2102 C2100 1.419 . S
C2102 C2103 1.362 . S
C2103 H2093 0.930 . S
C2103 C2096 1.409 . S
C2103 C2102 1.362 . S
H2104 C2110 0.930 . S
H2105 C2113 0.930 . S
H2106 C2114 0.930 . S
H2107 C2115 0.930 . S
H2108 C2118 0.930 . S
H2109 C2119 0.930 . S
C2110 H2104 0.930 . S
C2110 C2111 1.355 . S
C2110 C2112 1.415 . S
C2111 C2110 1.355 . S
C2111 C2113 1.419 . S
C2112 C2110 1.415 . S
C2112 C2117 1.425 . S
C2112 C2119 1.409 . S
C2113 H2105 0.930 . S
C2113 C2111 1.419 . S
C2113 C2114 1.362 . S
C2114 H2106 0.930 . S
C2114 C2113 1.362 . S
C2114 C2117 1.409 . S
C2115 H2107 0.930 . S
C2115 C2116 1.355 . S
C2115 C2117 1.415 . S
C2116 C2115 1.355 . S
C2116 C2118 1.419 . S
C2117 C2112 1.425 . S
C2117 C2114 1.409 . S
C2117 C2115 1.415 . S
C2118 H2108 0.930 . S
C2118 C2116 1.419 . S
C2118 C2119 1.362 . S
C2119 H2109 0.930 . S
C2119 C2112 1.409 . S
C2119 C2118 1.362 . S
H2120 C2126 0.930 . S
H2121 C2129 0.930 . S
H2122 C2130 0.930 . S
H2123 C2131 0.930 . S
H2124 C2134 0.930 . S
H2125 C2135 0.930 . S
C2126 H2120 0.930 . S
C2126 C2127 1.355 . S
C2126 C2128 1.415 . S
C2127 C2126 1.355 . S
C2127 C2129 1.419 . S
C2128 C2126 1.415 . S
C2128 C2133 1.425 . S
C2128 C2135 1.409 . S
C2129 H2121 0.930 . S
C2129 C2127 1.419 . S
C2129 C2130 1.362 . S
C2130 H2122 0.930 . S
C2130 C2129 1.362 . S
C2130 C2133 1.409 . S
C2131 H2123 0.930 . S
C2131 C2132 1.355 . S
C2131 C2133 1.415 . S
C2132 C2131 1.355 . S
C2132 C2134 1.419 . S
C2133 C2128 1.425 . S
C2133 C2130 1.409 . S
C2133 C2131 1.415 . S
C2134 H2124 0.930 . S
C2134 C2132 1.419 . S
C2134 C2135 1.362 . S
C2135 H2125 0.930 . S
C2135 C2128 1.409 . S
C2135 C2134 1.362 . S
H2136 C2142 0.930 . S
H2137 C2145 0.930 . S
H2138 C2146 0.930 . S
H2139 C2147 0.930 . S
H2140 C2150 0.930 . S
H2141 C2151 0.930 . S
C2142 H2136 0.930 . S
C2142 C2143 1.355 . S
C2142 C2144 1.415 . S
C2143 C2142 1.355 . S
C2143 C2145 1.419 . S
C2144 C2142 1.415 . S
C2144 C2149 1.425 . S
C2144 C2151 1.409 . S
C2145 H2137 0.930 . S
C2145 C2143 1.419 . S
C2145 C2146 1.362 . S
C2146 H2138 0.930 . S
C2146 C2145 1.362 . S
C2146 C2149 1.409 . S
C2147 H2139 0.930 . S
C2147 C2148 1.355 . S
C2147 C2149 1.415 . S
C2148 C2147 1.355 . S
C2148 C2150 1.419 . S
C2149 C2144 1.425 . S
C2149 C2146 1.409 . S
C2149 C2147 1.415 . S
C2150 H2140 0.930 . S
C2150 C2148 1.419 . S
C2150 C2151 1.362 . S
C2151 H2141 0.930 . S
C2151 C2144 1.409 . S
C2151 C2150 1.362 . S
H2152 C2158 0.930 . S
H2153 C2161 0.930 . S
H2154 C2162 0.930 . S
H2155 C2163 0.930 . S
H2156 C2166 0.930 . S
H2157 C2167 0.930 . S
C2158 H2152 0.930 . S
C2158 C2159 1.355 . S
C2158 C2160 1.415 . S
C2159 C2158 1.355 . S
C2159 C2161 1.419 . S
C2160 C2158 1.415 . S
C2160 C2165 1.425 . S
C2160 C2167 1.409 . S
C2161 H2153 0.930 . S
C2161 C2159 1.419 . S
C2161 C2162 1.362 . S
C2162 H2154 0.930 . S
C2162 C2161 1.362 . S
C2162 C2165 1.409 . S
C2163 H2155 0.930 . S
C2163 C2164 1.355 . S
C2163 C2165 1.415 . S
C2164 C2163 1.355 . S
C2164 C2166 1.419 . S
C2165 C2160 1.425 . S
C2165 C2162 1.409 . S
C2165 C2163 1.415 . S
C2166 H2156 0.930 . S
C2166 C2164 1.419 . S
C2166 C2167 1.362 . S
C2167 H2157 0.930 . S
C2167 C2160 1.409 . S
C2167 C2166 1.362 . S
H2168 C2174 0.930 . S
H2169 C2177 0.930 . S
H2170 C2178 0.930 . S
H2171 C2179 0.930 . S
H2172 C2182 0.930 . S
H2173 C2183 0.930 . S
C2174 H2168 0.930 . S
C2174 C2175 1.355 . S
C2174 C2176 1.415 . S
C2175 C2174 1.355 . S
C2175 C2177 1.419 . S
C2176 C2174 1.415 . S
C2176 C2181 1.425 . S
C2176 C2183 1.409 . S
C2177 H2169 0.930 . S
C2177 C2175 1.419 . S
C2177 C2178 1.362 . S
C2178 H2170 0.930 . S
C2178 C2177 1.362 . S
C2178 C2181 1.409 . S
C2179 H2171 0.930 . S
C2179 C2180 1.355 . S
C2179 C2181 1.415 . S
C2180 C2179 1.355 . S
C2180 C2182 1.419 . S
C2181 C2176 1.425 . S
C2181 C2178 1.409 . S
C2181 C2179 1.415 . S
C2182 H2172 0.930 . S
C2182 C2180 1.419 . S
C2182 C2183 1.362 . S
C2183 H2173 0.930 . S
C2183 C2176 1.409 . S
C2183 C2182 1.362 . S
H2184 C2190 0.930 . S
H2185 C2193 0.930 . S
H2186 C2194 0.930 1_655 S
H2187 C2195 0.930 . S
H2188 C2198 0.930 . S
H2189 C2199 0.930 . S
C2190 H2184 0.930 . S
C2190 C2191 1.355 . S
C2190 C2192 1.415 . S
C2191 C2190 1.355 . S
C2191 C2193 1.419 . S
C2192 C2190 1.415 . S
C2192 C2197 1.425 . S
C2192 C2199 1.409 . S
C2193 H2185 0.930 . S
C2193 C2191 1.419 . S
C2193 C2194 1.362 . S
C2194 H2186 0.930 1_455 S
C2194 C2193 1.362 . S
C2194 C2197 1.409 . S
C2195 H2187 0.930 . S
C2195 C2196 1.355 . S
C2195 C2197 1.415 1_655 S
C2196 C2195 1.355 . S
C2196 C2198 1.419 1_655 S
C2197 C2192 1.425 . S
C2197 C2194 1.409 . S
C2197 C2195 1.415 1_455 S
C2198 H2188 0.930 . S
C2198 C2196 1.419 1_455 S
C2198 C2199 1.362 . S
C2199 H2189 0.930 . S
C2199 C2192 1.409 . S
C2199 C2198 1.362 . S
C676 C319 0.996 . S
C671 C0 1.045 . S
C687 C18 1.144 . S
C692 C339 1.103 . S
C708 C360 1.137 . S
C703 C34 1.211 . S
C724 C387 1.064 . S
C719 C49 1.183 . S
C740 C343 1.171 . S
C735 C62 1.150 . S
C751 C73 1.249 . S
C756 C363 1.239 . S
C772 C383 1.137 . S
C767 C83 1.203 . S
C783 C91 1.049 . S
C788 C316 1.006 . S
C799 C109 0.965 . S
C804 C321 0.989 . S
C820 C338 1.083 . S
C815 C125 1.155 . S
C836 C362 1.146 . S
C831 C130 1.172 . S
C852 C386 1.131 . S
C847 C153 1.206 . S
C868 C342 1.111 . S
C863 C114 1.195 . S
C884 C365 1.180 . S
C879 C117 1.227 . S
C895 C138 1.134 . S
C900 C382 1.106 . S
C916 C318 0.964 . S
C911 C148 0.990 . S
C927 C161 1.095 . S
C932 C320 1.022 . S
C943 C169 1.228 . S
C948 C407 1.185 . S
C964 C427 1.124 . S
C959 C190 1.177 . S
C980 C450 1.134 . S
C975 C205 1.163 . S
C991 C213 0.971 . S
C996 C317 1.034 . S
C1007 C229 1.178 . S
C1012 C361 1.170 . S
C1028 C451 1.120 . S
C1023 C182 1.186 . S
C1044 C406 1.088 . S
C1039 C244 1.195 . S
C1060 C474 1.207 . S
C1055 C21 1.266 . S
C1076 C495 1.137 . S
C1071 C5 1.172 . S
C1087 C39 1.080 . S
C1092 C514 0.952 . S
C1103 C36 1.150 . S
C1108 C539 1.072 . S
C1119 C101 1.182 . S
C1124 C494 1.107 . S
C1135 C78 1.045 . S
C1140 C519 1.076 . S
C1156 C538 1.085 . S
C1151 C70 1.115 . S
C1167 C60 1.261 . S
C1172 C471 1.254 . S
C1183 C257 1.161 . S
C1188 C475 1.147 . S
C1204 C496 1.075 . S
C1199 C203 1.184 . S
C1220 C515 1.064 . S
C1215 C208 1.181 . S
C1236 C540 1.059 . S
C1231 C174 1.137 . S
C1252 C492 1.030 . S
C1247 C252 1.135 . S
C1268 C517 1.165 . S
C1263 C195 1.149 . S
C1284 C536 1.113 . S
C1279 C216 1.173 . S
C1295 C179 1.214 . S
C1300 C472 1.133 . S
C1316 C473 1.085 . S
C1311 C270 1.165 . S
C1327 C143 1.173 . S
C1332 C559 1.115 . S
C1348 C584 1.172 . S
C1343 C281 1.163 . S
C1359 C122 1.037 . S
C1364 C603 1.100 . S
C1380 C470 1.177 . S
C1375 C140 1.176 . S
C1396 C516 1.063 . S
C1391 C294 1.187 . S
C1412 C607 1.080 . S
C1407 C273 1.183 . S
C1423 C304 1.131 . S
C1428 C563 1.082 . S
C1439 C26 1.051 . S
C1444 C627 1.050 . S
C1455 C44 1.137 . S
C1460 C405 1.204 . S
C1476 C429 1.195 . S
C1471 C8 1.215 . S
C1487 C23 1.157 . S
C1492 C453 1.141 . S
C1503 C88 1.154 . S
C1508 C409 1.152 . S
C1519 C99 1.236 . S
C1524 C426 1.228 . S
C1540 C449 1.130 . S
C1535 C57 1.204 . S
C1556 C624 1.005 . S
C1551 C65 1.048 . S
C1572 C629 0.982 . S
C1567 C278 1.071 . S
C1588 C404 1.062 . S
C1583 C268 1.139 . S
C1604 C431 1.168 . S
C1599 C299 1.223 . S
C1615 C296 1.196 . S
C1620 C452 1.158 . S
C1636 C408 1.190 . S
C1631 C283 1.165 . S
C1647 C260 1.171 . S
C1652 C428 1.111 . S
C1668 C448 1.061 . S
C1663 C307 1.138 . S
C1679 C291 0.992 . S
C1684 C626 0.963 . S
C1700 C628 1.095 . S
C1695 C200 1.017 . S
C1711 C221 1.178 . S
C1716 C341 1.166 . S
C1732 C364 1.135 . S
C1727 C255 1.181 . S
C1743 C166 1.197 . S
C1748 C384 1.071 . S
C1764 C625 1.002 . S
C1759 C239 1.087 . S
C1780 C430 1.062 . S
C1775 C177 1.126 . S
C1796 C385 1.146 . S
C1791 C247 1.211 . S
C1812 C340 1.091 . S
C1807 C218 1.195 . S
C1823 C47 1.270 . S
C1828 C651 1.181 . S
C1839 C31 1.178 . S
C1844 C561 1.071 . S
C1855 C13 1.048 . S
C1860 C580 1.065 . S
C1876 C605 1.161 . S
C1871 C10 1.195 . S
C1892 C560 1.180 . S
C1887 C75 1.186 . S
C1903 C52 1.057 . S
C1908 C585 1.035 . S
C1924 C604 1.168 . S
C1919 C96 1.140 . S
C1935 C86 1.281 . S
C1940 C646 1.141 . S
C1956 C649 1.147 . S
C1951 C192 1.221 . S
C1967 C164 1.169 . S
C1972 C562 1.147 . S
C1983 C234 1.182 . S
C1988 C581 1.061 . S
C2004 C606 1.085 . S
C1999 C226 1.038 . S
C2020 C558 1.066 . S
C2015 C187 1.136 . S
C2031 C156 1.177 . S
C2036 C583 1.072 . S
C2052 C602 1.065 . S
C2047 C242 1.186 . S
C2068 C647 1.168 . S
C2063 C231 1.171 . S
C2084 C650 1.117 . S
C2079 C127 1.147 . S
C2100 C493 1.138 . S
C2095 C286 1.171 . S
C2111 C112 1.161 . S
C2116 C518 1.174 . S
C2127 C265 1.127 . S
C2132 C537 1.018 . S
C2148 C648 1.097 . S
C2143 C309 1.185 . S
C2164 C582 1.147 . S
C2159 C151 1.170 . S
C2180 C541 1.083 . S
C2175 C104 1.185 . S
C2196 C497 1.130 . S
C2191 C135 1.042 . S
