# Generated by pormake.
# Topology tsx, (6,3)-cn, num edge types: 1
# Building blocks:
#     Node 0, Type 0, BuildingBlock: MIDCAF_clean_sbu_0, # of connection points: 6
#     Node 1, Type 0, BuildingBlock: MIDCAF_clean_sbu_0, # of connection points: 6
#     Node 2, Type 1, BuildingBlock: WUSLED_clean_sbu_0, # of connection points: 3
#     Node 3, Type 1, BuildingBlock: WUSLED_clean_sbu_0, # of connection points: 3
#     Node 4, Type 1, BuildingBlock: WUSLED_clean_sbu_0, # of connection points: 3
#     Node 5, Type 1, BuildingBlock: WUSLED_clean_sbu_0, # of connection points: 3
#     Edge 6, Type (0, 1), BuildingBlock: XIVTED_clean_linker_0, # of connection points: 2
#     Edge 7, Type (0, 1), BuildingBlock: XIVTED_clean_linker_0, # of connection points: 2
#     Edge 8, Type (0, 1), BuildingBlock: XIVTED_clean_linker_0, # of connection points: 2
#     Edge 9, Type (0, 1), BuildingBlock: XIVTED_clean_linker_0, # of connection points: 2
#     Edge 10, Type (0, 1), BuildingBlock: XIVTED_clean_linker_0, # of connection points: 2
#     Edge 11, Type (0, 1), BuildingBlock: XIVTED_clean_linker_0, # of connection points: 2
#     Edge 12, Type (0, 1), BuildingBlock: XIVTED_clean_linker_0, # of connection points: 2
#     Edge 13, Type (0, 1), BuildingBlock: XIVTED_clean_linker_0, # of connection points: 2
#     Edge 14, Type (0, 1), BuildingBlock: XIVTED_clean_linker_0, # of connection points: 2
#     Edge 15, Type (0, 1), BuildingBlock: XIVTED_clean_linker_0, # of connection points: 2
#     Edge 16, Type (0, 1), BuildingBlock: XIVTED_clean_linker_0, # of connection points: 2
#     Edge 17, Type (0, 1), BuildingBlock: XIVTED_clean_linker_0, # of connection points: 2
# Relax obj value: 0.113
# Max RMSD: 0.180
# Mean RMSD: 0.109
data_MOF--net-tsx--node1-MIDCAF_clean_sbu_0--node2-WUSLED_clean_sbu_0--edge1-XIVTED_clean_linker_0
_symmetry_space_group_name_H-M    P1
_symmetry_Int_Tables_number       1
_symmetry_cell_setting            triclinic
loop_
_symmetry_equiv_pos_as_xyz
'x, y, z'
_cell_length_a     25.551869
_cell_length_b     26.755797
_cell_length_c     49.585798
_cell_angle_alpha  91.366319
_cell_angle_beta   94.629911
_cell_angle_gamma 90.166259
loop_
_atom_site_label
_atom_site_type_symbol
_atom_site_fract_x
_atom_site_fract_y
_atom_site_fract_z
_atom_type_partial_charge
Zn0 Zn 0.98664 0.96693 0.98281 0.0
Zn1 Zn 0.13338 0.00072 0.03417 0.0
Zn2 Zn 0.05093 0.99348 0.01322 0.0
C3 C 0.1118 0.09634 0.01744 0.0
C4 C 0.14672 0.92701 0.99775 0.0
O5 O 0.98441 0.96334 0.03444 0.0
O6 O 0.96171 0.90882 1.00152 0.0
C7 C 0.96779 0.0687 0.98936 0.0
O8 O 0.07226 0.07281 0.00511 0.0
O9 O 0.14431 0.07319 0.03293 0.0
O10 O 0.17554 0.95806 0.0115 0.0
O11 O 0.09672 0.93101 0.99714 0.0
O12 O 0.94079 0.02938 0.98436 0.0
O13 O 0.01761 0.06415 0.99569 0.0
O14 O 0.05741 0.03686 0.97578 0.0
O15 O 0.03812 0.96515 0.95455 0.0
C16 C 0.05794 0.00853 0.95432 0.0
O17 O 0.03223 0.98942 0.05565 0.0
O18 O 0.11475 0.97579 0.06934 0.0
C19 C 0.95732 0.92497 0.02538 0.0
C20 C 0.06744 0.9796 0.07475 0.0
Zn21 Zn 0.65918 0.49483 0.55456 0.0
Zn22 Zn 0.45894 0.50327 0.48897 0.0
Zn23 Zn 0.54577 0.50728 0.51268 0.0
C24 C 0.53263 0.47179 0.45261 0.0
C25 C 0.46827 0.60144 0.49773 0.0
O26 O 0.53657 0.48075 0.55482 0.0
O27 O 0.61211 0.47036 0.58055 0.0
C28 C 0.65078 0.4384 0.50253 0.0
O29 O 0.56498 0.47223 0.47392 0.0
O30 O 0.48569 0.48508 0.45432 0.0
O31 O 0.43123 0.571 0.49189 0.0
O32 O 0.51518 0.58541 0.50411 0.0
O33 O 0.67309 0.44784 0.52581 0.0
O34 O 0.60712 0.45946 0.49372 0.0
O35 O 0.56538 0.58709 0.51517 0.0
O36 O 0.62873 0.55365 0.53927 0.0
C37 C 0.6089 0.59215 0.5293 0.0
O38 O 0.49202 0.46153 0.5361 0.0
O39 O 0.4227 0.45162 0.50684 0.0
C40 C 0.56241 0.46924 0.57742 0.0
C41 C 0.44687 0.44142 0.52911 0.0
C42 C 0.01113 0.13268 0.45207 0.0
C43 C 0.99909 0.16967 0.43296 0.0
C44 C 0.92755 0.19973 0.45861 0.0
C45 C 0.95804 0.20309 0.4363 0.0
C46 C 0.93991 0.16237 0.47767 0.0
C47 C 0.98141 0.12936 0.47446 0.0
U48 U 0.08565 0.0576 0.40314 0.0
O49 O 0.16859 0.03552 0.40311 0.0
O50 O 0.10643 0.97814 0.40162 0.0
C51 C 0.15709 0.98759 0.40302 0.0
C52 C 0.05187 0.09529 0.44768 0.0
C53 C 0.19028 0.95651 0.42129 0.0
C54 C 0.2115 0.91681 0.46448 0.0
C55 C 0.18132 0.95081 0.44868 0.0
C56 C 0.25992 0.89565 0.4257 0.0
C57 C 0.25019 0.88823 0.45277 0.0
C58 C 0.23029 0.92946 0.41015 0.0
C59 C 0.04808 0.07722 0.32796 0.0
C60 C 0.086 0.02884 0.2924 0.0
C61 C 0.01455 0.08597 0.28113 0.0
C62 C 0.01336 0.09924 0.30849 0.0
C63 C 0.05052 0.05025 0.27274 0.0
C64 C 0.08472 0.04216 0.31981 0.0
C65 C 0.04353 0.08941 0.35669 0.0
O66 O 0.034 0.053 0.43641 0.0
O67 O 0.09406 0.11203 0.43718 0.0
O68 O 0.08482 0.11065 0.36983 0.0
O69 O 0.02265 0.05402 0.37032 0.0
H70 H 0.02113 0.17246 0.41527 0.0
H71 H 0.95044 0.23163 0.4214 0.0
H72 H 0.91685 0.15773 0.49482 0.0
H73 H 0.98962 0.10055 0.48919 0.0
H74 H 0.20346 0.91155 0.48534 0.0
H75 H 0.15041 0.97159 0.45755 0.0
H76 H 0.28994 0.87435 0.41636 0.0
H77 H 0.23774 0.93348 0.3891 0.0
H78 H 0.11394 0.00093 0.28669 0.0
H79 H 0.98738 0.10387 0.26654 0.0
H80 H 0.98485 0.12637 0.31449 0.0
H81 H 0.11166 0.02458 0.33467 0.0
C82 C 0.94012 0.94995 0.57199 0.0
C83 C 0.91811 0.92517 0.59297 0.0
C84 C 0.86177 0.87661 0.56012 0.0
C85 C 0.87926 0.88893 0.58711 0.0
C86 C 0.88369 0.90185 0.53912 0.0
C87 C 0.92266 0.93828 0.54505 0.0
U88 U 0.02349 0.02428 0.62472 0.0
O89 O 0.10657 0.04715 0.62682 0.0
O90 O 0.04467 0.10405 0.62791 0.0
C91 C 0.09513 0.09505 0.62748 0.0
C92 C 0.9809 0.98811 0.5784 0.0
C93 C 0.12493 0.12871 0.6112 0.0
C94 C 0.17689 0.14673 0.57341 0.0
C95 C 0.14469 0.11396 0.58656 0.0
C96 C 0.16801 0.20917 0.60892 0.0
C97 C 0.1891 0.19463 0.58465 0.0
C98 C 0.13645 0.17662 0.62199 0.0
C99 C 1.00251 -0.00049 0.69914 0.0
C100 C 0.0559 0.03673 0.73731 0.0
C101 C 0.97989 0.98635 0.74516 0.0
C102 C 0.96968 0.97846 0.71723 0.0
C103 C 0.0232 0.01531 0.75538 0.0
C104 C 0.04548 0.02909 0.70932 0.0
C105 C 0.99134 0.98994 0.66986 0.0
O106 O 0.96453 0.02918 0.59003 0.0
O107 O 0.02513 0.9713 0.59017 0.0
O108 O 0.02947 0.96944 0.65721 0.0
O109 O 0.96785 0.02634 0.65639 0.0
H110 H 0.93098 0.93395 0.61392 0.0
H111 H 0.86266 0.8708 0.60379 0.0
H112 H 0.87144 0.89282 0.51815 0.0
H113 H 0.93932 0.95715 0.52862 0.0
H114 H 0.19246 0.13464 0.55466 0.0
H115 H 0.13613 0.07706 0.57782 0.0
H116 H 0.17742 0.24532 0.61841 0.0
H117 H 0.122 0.18856 0.64106 0.0
H118 H 0.08962 0.05904 0.74488 0.0
H119 H 0.95448 0.96923 0.75882 0.0
H120 H 0.93633 0.95556 0.70973 0.0
H121 H 0.07113 0.04583 0.69565 0.0
C122 C 0.51653 0.62658 0.95058 0.0
C123 C 0.48978 0.64898 0.92819 0.0
C124 C 0.43189 0.69216 0.95778 0.0
C125 C 0.44795 0.68151 0.93175 0.0
C126 C 0.4595 0.67016 0.98018 0.0
C127 C 0.50142 0.63767 0.97659 0.0
U128 U 0.59466 0.54965 0.90319 0.0
O129 O 0.67837 0.52884 0.90464 0.0
O130 O 0.6173 0.47056 0.90352 0.0
C131 C 0.66782 0.48074 0.90502 0.0
C132 C 0.5584 0.58994 0.94671 0.0
C133 C 0.70206 0.44982 0.92317 0.0
C134 C 0.71999 0.40299 0.96445 0.0
C135 C 0.69028 0.43875 0.94962 0.0
C136 C 0.77456 0.39135 0.92706 0.0
C137 C 0.76173 0.37846 0.95296 0.0
C138 C 0.74504 0.42668 0.91234 0.0
C139 C 0.55624 0.56708 0.82691 0.0
C140 C 0.58923 0.51861 0.78982 0.0
C141 C 0.52098 0.58001 0.78072 0.0
C142 C 0.5222 0.59199 0.80829 0.0
C143 C 0.55408 0.54285 0.77105 0.0
C144 C 0.59022 0.53058 0.81758 0.0
C145 C 0.55306 0.57836 0.8559 0.0
O146 O 0.54193 0.54671 0.93605 0.0
O147 O 0.59993 0.60719 0.93585 0.0
O148 O 0.59412 0.60039 0.8688 0.0
O149 O 0.533 0.54282 0.86976 0.0
H150 H 0.5007 0.64063 0.90791 0.0
H151 H 0.42732 0.69724 0.91402 0.0
H152 H 0.44875 0.67808 1.00052 0.0
H153 H 0.52164 0.62074 0.9941 0.0
H154 H 0.70909 0.39301 0.98429 0.0
H155 H 0.65706 0.45612 0.95829 0.0
H156 H 0.80597 0.37219 0.91768 0.0
H157 H 0.75443 0.43431 0.8919 0.0
H158 H 0.6158 0.49031 0.78311 0.0
H159 H 0.49275 0.59891 0.7671 0.0
H160 H 0.49551 0.62008 0.81518 0.0
H161 H 0.61683 0.51095 0.83174 0.0
C162 C 0.43593 0.44514 0.06984 0.0
C163 C 0.4083 0.42237 0.08966 0.0
C164 C 0.35618 0.374 0.0547 0.0
C165 C 0.36873 0.38713 0.08216 0.0
C166 C 0.3846 0.39668 0.03505 0.0
C167 C 0.42404 0.43181 0.04257 0.0
U168 U 0.52146 0.51893 0.1232 0.0
O169 O 0.60393 0.54327 0.12433 0.0
O170 O 0.54126 0.59914 0.1266 0.0
C171 C 0.59184 0.59092 0.126 0.0
C172 C 0.47639 0.4835 0.07722 0.0
C173 C 0.62198 0.62607 0.11083 0.0
C174 C 0.66321 0.65232 0.07078 0.0
C175 C 0.62999 0.61937 0.08323 0.0
C176 C 0.67922 0.6987 0.11324 0.0
C177 C 0.689 0.69156 0.08601 0.0
C178 C 0.646 0.66645 0.12545 0.0
C179 C 0.50615 0.48766 0.1978 0.0
C180 C 0.55138 0.52894 0.23744 0.0
C181 C 0.49046 0.46098 0.24277 0.0
C182 C 0.48097 0.45614 0.21478 0.0
C183 C 0.52534 0.49764 0.25452 0.0
C184 C 0.54163 0.52412 0.20918 0.0
C185 C 0.49404 0.48128 0.16843 0.0
O186 O 0.45992 0.52364 0.08973 0.0
O187 O 0.52142 0.46684 0.08812 0.0
O188 O 0.53161 0.46251 0.15475 0.0
O189 O 0.46902 0.51832 0.15625 0.0
H190 H 0.41716 0.43206 0.11088 0.0
H191 H 0.34829 0.36994 0.09787 0.0
H192 H 0.37569 0.3881 0.01372 0.0
H193 H 0.44491 0.44903 0.02701 0.0
H194 H 0.67021 0.64617 0.04971 0.0
H195 H 0.61166 0.58832 0.0716 0.0
H196 H 0.6982 0.72894 0.12529 0.0
H197 H 0.64018 0.67232 0.14671 0.0
H198 H 0.57844 0.5575 0.24592 0.0
H199 H 0.47063 0.43554 0.25528 0.0
H200 H 0.45376 0.42762 0.20636 0.0
H201 H 0.56148 0.54878 0.19626 0.0
H202 H 0.08814 0.17475 0.04965 0.0
H203 H 0.35431 0.30172 0.01439 0.0
H204 H 0.16882 0.13496 0.97942 0.0
H205 H 0.26051 0.36196 0.07597 0.0
H206 H 0.28333 0.24378 0.99989 0.0
H207 H 0.14382 0.24938 0.05684 0.0
C208 C 0.11572 0.18329 0.03489 0.0
C209 C 0.1234 0.14927 0.01363 0.0
C210 C 0.27794 0.26996 0.01641 0.0
C211 C 0.18938 0.23265 0.02259 0.0
C212 C 0.31858 0.3032 0.02473 0.0
C213 C 0.31348 0.33724 0.04635 0.0
C214 C 0.23164 0.27018 0.02988 0.0
C215 C 0.26657 0.33618 0.05937 0.0
C216 C 0.14827 0.22532 0.03931 0.0
C217 C 0.16101 0.16089 0.9957 0.0
N218 N 0.2276 0.30314 0.051 0.0
N219 N 0.19334 0.20103 1.00088 0.0
H220 H 0.15059 0.83006 0.01288 0.0
H221 H 0.40457 0.77874 0.93148 0.0
H222 H 0.20801 0.93168 0.95595 0.0
H223 H 0.3538 0.68075 0.99225 0.0
H224 H 0.32773 0.83098 0.93694 0.0
H225 H 0.21794 0.76953 1.00149 0.0
C226 C 0.17594 0.83859 0.9971 0.0
C227 C 0.17312 0.88521 0.9848 0.0
C228 C 0.33325 0.79796 0.94903 0.0
C229 C 0.25147 0.81742 0.97244 0.0
C230 C 0.37713 0.76798 0.94586 0.0
C231 C 0.38582 0.72511 0.96139 0.0
C232 C 0.29744 0.78511 0.96783 0.0
C233 C 0.34918 0.71369 0.98006 0.0
C234 C 0.21498 0.80451 0.99094 0.0
C235 C 0.20835 0.89558 0.9654 0.0
N236 N 0.30669 0.74345 0.98274 0.0
N237 N 0.24625 0.86214 0.95993 0.0
H238 H 0.96942 0.86636 0.06981 0.0
H239 H 0.67652 0.75517 0.04311 0.0
H240 H 0.85301 0.92733 0.01225 0.0
H241 H 0.791 0.70253 0.10437 0.0
H242 H 0.74047 0.81801 0.03068 0.0
H243 H 0.90302 0.80824 0.08413 0.0
C244 C 0.92937 0.86863 0.06094 0.0
C245 C 0.91628 0.90186 0.04017 0.0
C246 C 0.75166 0.79253 0.04676 0.0
C247 C 0.84072 0.83448 0.05542 0.0
C248 C 0.7154 0.7564 0.05359 0.0
C249 C 0.72866 0.72397 0.07484 0.0
C250 C 0.80138 0.79586 0.06127 0.0
C251 C 0.77929 0.72719 0.08799 0.0
C252 C 0.89162 0.835 0.06872 0.0
C253 C 0.86426 0.90242 0.0286 0.0
N254 N 0.81366 0.76253 0.08107 0.0
N255 N 0.82845 0.86895 0.03619 0.0
H256 H 0.98378 0.15561 0.02005 0.0
H257 H 0.73202 0.28274 0.94403 0.0
H258 H 0.89372 0.09319 0.94994 0.0
H259 H 0.85061 0.37378 0.98817 0.0
H260 H 0.78382 0.20832 0.95502 0.0
H261 H 0.93112 0.23289 0.01571 0.0
C262 C 0.9536 0.15856 0.00352 0.0
C263 C 0.94265 0.11798 0.9854 0.0
C264 C 0.79838 0.24442 0.96268 0.0
C265 C 0.88243 0.20517 0.98058 0.0
C266 C 0.76848 0.28672 0.95668 0.0
C267 C 0.78714 0.33408 0.96532 0.0
C268 C 0.84755 0.24938 0.97739 0.0
C269 C 0.83501 0.3376 0.98131 0.0
C270 C 0.92346 0.20236 1.00118 0.0
C271 C 0.90286 0.1233 0.96456 0.0
N272 N 0.86394 0.29567 0.98677 0.0
N273 N 0.87421 0.16584 0.9628 0.0
H274 H 0.68025 0.61062 0.57081 0.0
H275 H 0.77772 0.87418 0.52136 0.0
H276 H 0.6041 0.68016 0.50047 0.0
H277 H 0.85495 0.78757 0.58517 0.0
H278 H 0.71098 0.80784 0.5136 0.0
H279 H 0.73936 0.68063 0.57757 0.0
C280 C 0.67558 0.64117 0.55685 0.0
C281 C 0.6374 0.63947 0.53489 0.0
C282 C 0.74254 0.80365 0.5293 0.0
C283 C 0.70618 0.7205 0.54246 0.0
C284 C 0.78079 0.84123 0.53365 0.0
C285 C 0.82172 0.8367 0.55418 0.0
C286 C 0.74544 0.76149 0.54564 0.0
C287 C 0.8236 0.79339 0.56955 0.0
C288 C 0.70973 0.68124 0.56069 0.0
C289 C 0.63306 0.68028 0.51766 0.0
N290 N 0.78606 0.75774 0.56499 0.0
N291 N 0.66758 0.71932 0.52169 0.0
H292 H 0.66739 0.34813 0.52258 0.0
H293 H 0.85964 0.24108 0.41896 0.0
H294 H 0.69305 0.43478 0.45263 0.0
H295 H 0.89289 0.23862 0.50579 0.0
H296 H 0.7858 0.29736 0.42538 0.0
H297 H 0.73415 0.28932 0.51006 0.0
C298 C 0.68548 0.35346 0.50381 0.0
C299 C 0.67421 0.39605 0.4884 0.0
C300 C 0.80957 0.28438 0.44288 0.0
C301 C 0.75139 0.32894 0.47417 0.0
C302 C 0.85194 0.25249 0.43934 0.0
C303 C 0.88283 0.23459 0.46189 0.0
C304 C 0.79726 0.2975 0.46911 0.0
C305 C 0.8698 0.25012 0.48776 0.0
C306 C 0.72419 0.32034 0.49698 0.0
C307 C 0.6999 0.40192 0.46471 0.0
N308 N 0.82784 0.28022 0.49063 0.0
N309 N 0.73779 0.36868 0.4583 0.0
H310 H 0.46687 0.34216 0.5324 0.0
H311 H 0.17709 0.29454 0.5766 0.0
H312 H 0.36473 0.45774 0.55896 0.0
H313 H 0.28546 0.17378 0.5659 0.0
H314 H 0.24454 0.35404 0.5662 0.0
H315 H 0.4027 0.27891 0.54373 0.0
C316 C 0.43206 0.35399 0.54187 0.0
C317 C 0.4216 0.40501 0.54556 0.0
C318 C 0.25373 0.31456 0.56604 0.0
C319 C 0.34691 0.3335 0.55706 0.0
C320 C 0.21506 0.28053 0.5718 0.0
C321 C 0.226 0.22921 0.57265 0.0
C322 C 0.30399 0.29736 0.56103 0.0
C323 C 0.27549 0.21307 0.56562 0.0
C324 C 0.39497 0.31802 0.54778 0.0
C325 C 0.3748 0.41868 0.55656 0.0
N326 N 0.31294 0.2471 0.56035 0.0
N327 N 0.339 0.38322 0.56168 0.0
H328 H 0.46197 0.65639 0.45295 0.0
H329 H 0.31637 0.89521 0.49953 0.0
H330 H 0.44086 0.664 0.53825 0.0
H331 H 0.25109 0.79078 0.43819 0.0
H332 H 0.38058 0.83076 0.5152 0.0
H333 H 0.40913 0.73211 0.44683 0.0
C334 C 0.44823 0.67547 0.47055 0.0
C335 C 0.45605 0.65471 0.49615 0.0
C336 C 0.35144 0.82211 0.49864 0.0
C337 C 0.39459 0.73966 0.48922 0.0
C338 C 0.31474 0.85841 0.4899 0.0
C339 C 0.2792 0.84816 0.46734 0.0
C340 C 0.3525 0.7764 0.48423 0.0
C341 C 0.27853 0.80021 0.45538 0.0
C342 C 0.4176 0.71805 0.46702 0.0
C343 C 0.43612 0.67975 0.51829 0.0
N344 N 0.31536 0.76644 0.4636 0.0
N345 N 0.40541 0.72089 0.51432 0.0
H346 H 0.97579 0.00254 0.09915 0.0
H347 H 0.13553 0.03187 0.24369 0.0
H348 H 0.1364 0.95598 0.11685 0.0
H349 H 0.96608 0.03508 0.23529 0.0
H350 H 0.13532 0.00793 0.19599 0.0
H351 H 0.96874 0.01597 0.14815 0.0
C352 C 0.00913 0.99442 0.11323 0.0
C353 C 0.05691 0.97882 0.10375 0.0
C354 C 0.09807 0.01352 0.20458 0.0
C355 C 0.04961 0.99519 0.15937 0.0
C356 C 0.09822 0.02708 0.23189 0.0
C357 C 0.05078 0.0354 0.24362 0.0
C358 C 0.05016 0.00841 0.18865 0.0
C359 C 1.00365 0.02969 0.22704 0.0
C360 C 1.00523 0.00235 0.14113 0.0
C361 C 0.09886 0.9687 0.12298 0.0
N362 N 1.00449 0.0167 0.20036 0.0
N363 N 0.09443 0.97774 0.14966 0.0
H364 H 0.01772 0.0888 0.9266 0.0
H365 H 0.09295 0.9616 0.7868 0.0
H366 H 0.1217 0.96333 0.92078 0.0
H367 H 0.98098 0.08094 0.7907 0.0
H368 H 0.1116 0.96864 0.83599 0.0
H369 H 0.01381 0.09597 0.87709 0.0
C370 C 0.04168 0.06436 0.91501 0.0
C371 C 0.07086 0.02603 0.92773 0.0
C372 C 0.08331 0.99374 0.82618 0.0
C373 C 0.06488 0.03242 0.87124 0.0
C374 C 0.07274 0.98962 0.79814 0.0
C375 C 0.0357 0.0209 0.78492 0.0
C376 C 0.05671 0.02957 0.84113 0.0
C377 C 0.00996 0.05631 0.80035 0.0
C378 C 0.03863 0.06774 0.88672 0.0
C379 C 0.09948 0.99394 0.91171 0.0
N380 N 0.02088 0.05969 0.8277 0.0
N381 N 0.09533 0.99748 0.88436 0.0
H382 H 0.57557 0.39743 0.61502 0.0
H383 H 0.53618 0.60386 0.72742 0.0
H384 H 0.4959 0.53607 0.59791 0.0
H385 H 0.56246 0.4492 0.74735 0.0
H386 H 0.52238 0.57907 0.67975 0.0
H387 H 0.56719 0.41245 0.66334 0.0
C388 C 0.554 0.42985 0.62141 0.0
C389 C 0.53607 0.46542 0.60254 0.0
C390 C 0.53069 0.55049 0.69458 0.0
C391 C 0.52905 0.48434 0.65774 0.0
C392 C 0.53869 0.56461 0.72187 0.0
C393 C 0.54994 0.52856 0.74167 0.0
C394 C 0.53461 0.49997 0.68678 0.0
C395 C 0.5543 0.47845 0.73294 0.0
C396 C 0.55003 0.43888 0.64901 0.0
C397 C 0.50959 0.50743 0.61182 0.0
N398 N 0.54679 0.46569 0.70616 0.0
N399 N 0.5081 0.51645 0.63887 0.0
H400 H 0.4759 0.42025 0.41362 0.0
H401 H 0.61843 0.50844 0.28695 0.0
H402 H 0.62009 0.50416 0.42824 0.0
H403 H 0.45072 0.49687 0.29056 0.0
H404 H 0.62964 0.49896 0.33654 0.0
H405 H 0.47832 0.43222 0.36544 0.0
C406 C 0.50938 0.43952 0.40653 0.0
C407 C 0.54775 0.46134 0.42496 0.0
C408 C 0.59054 0.49899 0.32634 0.0
C409 C 0.55019 0.47629 0.36952 0.0
C410 C 0.58404 0.50469 0.29817 0.0
C411 C 0.53359 0.50192 0.28453 0.0
C412 C 0.54631 0.48988 0.3406 0.0
C413 C 0.49041 0.49748 0.30005 0.0
C414 C 0.51019 0.4472 0.37902 0.0
C415 C 0.58994 0.48645 0.41463 0.0
N416 N 0.49782 0.49083 0.32707 0.0
N417 N 0.58984 0.49383 0.38741 0.0
loop_
_geom_bond_atom_site_label_1
_geom_bond_atom_site_label_2
_geom_bond_distance
_geom_bond_site_symmetry_2
_ccdc_geom_bond_type
Zn0 O6 1.920 1_545 S
Zn0 O12 1.898 . S
Zn0 O15 1.905 1_545 S
Zn1 O9 1.905 . S
Zn1 O10 1.898 1_545 S
Zn1 O18 1.920 1_545 S
Zn2 O5 2.080 1_445 S
Zn2 O8 2.114 . S
Zn2 O11 2.120 1_545 S
Zn2 O13 2.120 1_455 S
Zn2 O14 2.114 1_554 S
Zn2 O17 2.080 . S
C3 O8 1.166 . S
C3 O9 1.182 . S
C4 O10 1.167 . S
C4 O11 1.299 . S
O5 Zn2 2.080 1_665 S
O5 C19 1.305 . S
O6 Zn0 1.920 1_565 S
O6 C19 1.234 1_556 S
C7 O12 1.167 . S
C7 O13 1.299 1_556 S
O8 Zn2 2.114 . S
O8 C3 1.166 . S
O9 Zn1 1.905 . S
O9 C3 1.182 . S
O10 Zn1 1.898 1_565 S
O10 C4 1.167 . S
O11 Zn2 2.120 1_565 S
O11 C4 1.299 . S
O12 Zn0 1.898 . S
O12 C7 1.167 . S
O13 Zn2 2.120 1_655 S
O13 C7 1.299 1_554 S
O14 Zn2 2.114 1_556 S
O14 C16 1.166 1_545 S
O15 Zn0 1.905 1_565 S
O15 C16 1.182 1_655 S
C16 O14 1.166 1_565 S
C16 O15 1.182 1_455 S
O17 Zn2 2.080 . S
O17 C20 1.305 1_545 S
O18 Zn1 1.920 1_565 S
O18 C20 1.234 . S
C19 O5 1.305 . S
C19 O6 1.234 1_554 S
C20 O17 1.305 1_565 S
C20 O18 1.234 . S
Zn21 O27 1.920 . S
Zn21 O33 1.898 . S
Zn21 O36 1.905 . S
Zn22 O30 1.905 . S
Zn22 O31 1.898 . S
Zn22 O39 1.920 . S
Zn23 O26 2.080 . S
Zn23 O29 2.114 . S
Zn23 O32 2.120 . S
Zn23 O34 2.120 . S
Zn23 O35 2.114 . S
Zn23 O38 2.080 . S
C24 O29 1.166 . S
C24 O30 1.182 . S
C25 O31 1.167 . S
C25 O32 1.299 . S
O26 Zn23 2.080 . S
O26 C40 1.305 . S
O27 Zn21 1.920 . S
O27 C40 1.234 . S
C28 O33 1.167 . S
C28 O34 1.299 . S
O29 Zn23 2.114 . S
O29 C24 1.166 . S
O30 Zn22 1.905 . S
O30 C24 1.182 . S
O31 Zn22 1.898 . S
O31 C25 1.167 . S
O32 Zn23 2.120 . S
O32 C25 1.299 . S
O33 Zn21 1.898 . S
O33 C28 1.167 . S
O34 Zn23 2.120 . S
O34 C28 1.299 . S
O35 Zn23 2.114 . S
O35 C37 1.166 . S
O36 Zn21 1.905 . S
O36 C37 1.182 . S
C37 O35 1.166 . S
C37 O36 1.182 . S
O38 Zn23 2.080 . S
O38 C41 1.305 . S
O39 Zn22 1.920 . S
O39 C41 1.234 . S
C40 O26 1.305 . S
C40 O27 1.234 . S
C41 O38 1.305 . S
C41 O39 1.234 . S
C42 C43 1.264 . S
C42 C47 1.479 . S
C42 C52 1.465 1_655 S
C43 C42 1.264 . S
C43 C45 1.339 . S
C43 H70 0.931 . S
C44 C45 1.395 . S
C44 C46 1.320 . S
C45 C43 1.339 . S
C45 C44 1.395 . S
C45 H71 0.929 . S
C46 C44 1.320 . S
C46 C47 1.405 . S
C46 H72 0.930 . S
C47 C42 1.479 . S
C47 C46 1.405 . S
C47 H73 0.931 1_655 S
U48 O49 2.454 . S
U48 O50 2.458 1_545 S
U48 C51 2.984 1_545 S
U48 C52 2.847 . S
U48 C65 2.882 . S
U48 O66 2.441 . S
U48 O67 2.420 . S
U48 O68 2.455 . S
U48 O69 2.449 . S
O49 U48 2.454 . S
O49 C51 1.353 1_545 S
O50 U48 2.458 1_565 S
O50 C51 1.286 . S
C51 U48 2.984 1_565 S
C51 O49 1.353 1_565 S
C51 O50 1.286 . S
C51 C53 1.363 . S
C52 C42 1.465 1_455 S
C52 U48 2.847 . S
C52 O66 1.249 . S
C52 O67 1.202 . S
C53 C51 1.363 . S
C53 C55 1.408 . S
C53 C58 1.342 . S
C54 C55 1.310 . S
C54 C57 1.461 . S
C54 H74 0.932 . S
C55 C53 1.408 . S
C55 C54 1.310 . S
C55 H75 0.930 . S
C56 C57 1.474 . S
C56 C58 1.285 . S
C56 H76 0.929 . S
C57 C54 1.461 . S
C57 C56 1.474 . S
C58 C53 1.342 . S
C58 C56 1.285 . S
C58 H77 0.930 . S
C59 C62 1.424 . S
C59 C64 1.245 . S
C59 C65 1.428 . S
C60 C63 1.260 . S
C60 C64 1.477 . S
C60 H78 0.932 . S
C61 C62 1.384 . S
C61 C63 1.479 . S
C61 H79 0.929 . S
C62 C59 1.424 . S
C62 C61 1.384 . S
C62 H80 0.928 . S
C63 C60 1.260 . S
C63 C61 1.479 . S
C64 C59 1.245 . S
C64 C60 1.477 . S
C64 H81 0.933 . S
C65 U48 2.882 . S
C65 C59 1.428 . S
C65 O68 1.301 . S
C65 O69 1.282 . S
O66 U48 2.441 . S
O66 C52 1.249 . S
O67 U48 2.420 . S
O67 C52 1.202 . S
O68 U48 2.455 . S
O68 C65 1.301 . S
O69 U48 2.449 . S
O69 C65 1.282 . S
H70 C43 0.931 . S
H71 C45 0.929 . S
H72 C46 0.930 . S
H73 C47 0.931 1_455 S
H74 C54 0.932 . S
H75 C55 0.930 . S
H76 C56 0.929 . S
H77 C58 0.930 . S
H78 C60 0.932 . S
H79 C61 0.929 . S
H80 C62 0.928 . S
H81 C64 0.933 . S
C82 C83 1.264 . S
C82 C87 1.479 . S
C82 C92 1.465 . S
C83 C82 1.264 . S
C83 C85 1.339 . S
C83 H110 0.931 . S
C84 C85 1.395 . S
C84 C86 1.320 . S
C85 C83 1.339 . S
C85 C84 1.395 . S
C85 H111 0.929 . S
C86 C84 1.320 . S
C86 C87 1.405 . S
C86 H112 0.930 . S
C87 C82 1.479 . S
C87 C86 1.405 . S
C87 H113 0.931 . S
U88 O89 2.454 . S
U88 O90 2.458 . S
U88 C91 2.984 . S
U88 C92 2.847 1_445 S
U88 C105 2.882 . S
U88 O106 2.441 1_445 S
U88 O107 2.420 1_445 S
U88 O108 2.455 . S
U88 O109 2.449 1_545 S
O89 U88 2.454 . S
O89 C91 1.353 . S
O90 U88 2.458 . S
O90 C91 1.286 . S
C91 U88 2.984 . S
C91 O89 1.353 . S
C91 O90 1.286 . S
C91 C93 1.363 . S
C92 C82 1.465 . S
C92 U88 2.847 1_665 S
C92 O106 1.249 . S
C92 O107 1.202 . S
C93 C91 1.363 . S
C93 C95 1.408 . S
C93 C98 1.342 . S
C94 C95 1.310 . S
C94 C97 1.461 . S
C94 H114 0.932 . S
C95 C93 1.408 . S
C95 C94 1.310 . S
C95 H115 0.930 . S
C96 C97 1.474 . S
C96 C98 1.285 . S
C96 H116 0.929 . S
C97 C94 1.461 . S
C97 C96 1.474 . S
C98 C93 1.342 . S
C98 C96 1.285 . S
C98 H117 0.930 . S
C99 C102 1.424 1_445 S
C99 C104 1.245 . S
C99 C105 1.428 . S
C100 C103 1.260 . S
C100 C104 1.477 . S
C100 H118 0.932 . S
C101 C102 1.384 . S
C101 C103 1.479 1_665 S
C101 H119 0.929 . S
C102 C99 1.424 1_665 S
C102 C101 1.384 . S
C102 H120 0.928 . S
C103 C100 1.260 . S
C103 C101 1.479 1_445 S
C104 C99 1.245 . S
C104 C100 1.477 . S
C104 H121 0.932 . S
C105 U88 2.882 . S
C105 C99 1.428 . S
C105 O108 1.301 . S
C105 O109 1.282 1_545 S
O106 U88 2.441 1_665 S
O106 C92 1.249 . S
O107 U88 2.420 1_665 S
O107 C92 1.202 . S
O108 U88 2.455 . S
O108 C105 1.301 . S
O109 U88 2.449 1_565 S
O109 C105 1.282 1_565 S
H110 C83 0.931 . S
H111 C85 0.929 . S
H112 C86 0.930 . S
H113 C87 0.931 . S
H114 C94 0.932 . S
H115 C95 0.930 . S
H116 C96 0.929 . S
H117 C98 0.930 . S
H118 C100 0.932 . S
H119 C101 0.929 . S
H120 C102 0.928 . S
H121 C104 0.932 . S
C122 C123 1.264 . S
C122 C127 1.479 . S
C122 C132 1.465 . S
C123 C122 1.264 . S
C123 C125 1.339 . S
C123 H150 0.931 . S
C124 C125 1.395 . S
C124 C126 1.320 . S
C125 C123 1.339 . S
C125 C124 1.395 . S
C125 H151 0.929 . S
C126 C124 1.320 . S
C126 C127 1.405 . S
C126 H152 0.919 1_556 S
C127 C122 1.479 . S
C127 C126 1.405 . S
C127 H153 0.931 . S
U128 O129 2.454 . S
U128 O130 2.458 . S
U128 C131 2.984 . S
U128 C132 2.847 . S
U128 C145 2.882 . S
U128 O146 2.441 . S
U128 O147 2.420 . S
U128 O148 2.455 . S
U128 O149 2.449 . S
O129 U128 2.454 . S
O129 C131 1.353 . S
O130 U128 2.458 . S
O130 C131 1.286 . S
C131 U128 2.984 . S
C131 O129 1.353 . S
C131 O130 1.286 . S
C131 C133 1.363 . S
C132 C122 1.465 . S
C132 U128 2.847 . S
C132 O146 1.249 . S
C132 O147 1.202 . S
C133 C131 1.363 . S
C133 C135 1.408 . S
C133 C138 1.342 . S
C134 C135 1.310 . S
C134 C137 1.461 . S
C134 H154 0.932 1_556 S
C135 C133 1.408 . S
C135 C134 1.310 . S
C135 H155 0.930 . S
C136 C137 1.474 . S
C136 C138 1.285 . S
C136 H156 0.929 . S
C137 C134 1.461 . S
C137 C136 1.474 . S
C138 C133 1.342 . S
C138 C136 1.285 . S
C138 H157 0.930 . S
C139 C142 1.424 . S
C139 C144 1.245 . S
C139 C145 1.428 . S
C140 C143 1.260 . S
C140 C144 1.477 . S
C140 H158 0.932 . S
C141 C142 1.384 . S
C141 C143 1.479 . S
C141 H159 0.929 . S
C142 C139 1.424 . S
C142 C141 1.384 . S
C142 H160 0.928 . S
C143 C140 1.260 . S
C143 C141 1.479 . S
C144 C139 1.245 . S
C144 C140 1.477 . S
C144 H161 0.932 . S
C145 U128 2.882 . S
C145 C139 1.428 . S
C145 O148 1.301 . S
C145 O149 1.282 . S
O146 U128 2.441 . S
O146 C132 1.249 . S
O147 U128 2.420 . S
O147 C132 1.202 . S
O148 U128 2.455 . S
O148 C145 1.301 . S
O149 U128 2.449 . S
O149 C145 1.282 . S
H150 C123 0.931 . S
H151 C125 0.929 . S
H152 C126 0.919 1_554 S
H153 C127 0.931 . S
H154 C134 0.932 1_554 S
H155 C135 0.930 . S
H156 C136 0.929 . S
H157 C138 0.930 . S
H158 C140 0.932 . S
H159 C141 0.929 . S
H160 C142 0.928 . S
H161 C144 0.932 . S
C162 C163 1.264 . S
C162 C167 1.479 . S
C162 C172 1.465 . S
C163 C162 1.264 . S
C163 C165 1.339 . S
C163 H190 0.931 . S
C164 C165 1.395 . S
C164 C166 1.320 . S
C165 C163 1.339 . S
C165 C164 1.395 . S
C165 H191 0.929 . S
C166 C164 1.320 . S
C166 C167 1.405 . S
C166 H192 0.930 . S
C167 C162 1.479 . S
C167 C166 1.405 . S
C167 H193 0.931 . S
U168 O169 2.454 . S
U168 O170 2.458 . S
U168 C171 2.984 . S
U168 C172 2.847 . S
U168 C185 2.882 . S
U168 O186 2.441 . S
U168 O187 2.420 . S
U168 O188 2.455 . S
U168 O189 2.449 . S
O169 U168 2.454 . S
O169 C171 1.353 . S
O170 U168 2.458 . S
O170 C171 1.286 . S
C171 U168 2.984 . S
C171 O169 1.353 . S
C171 O170 1.286 . S
C171 C173 1.363 . S
C172 C162 1.465 . S
C172 U168 2.847 . S
C172 O186 1.249 . S
C172 O187 1.202 . S
C173 C171 1.363 . S
C173 C175 1.408 . S
C173 C178 1.342 . S
C174 C175 1.310 . S
C174 C177 1.461 . S
C174 H194 0.932 . S
C175 C173 1.408 . S
C175 C174 1.310 . S
C175 H195 0.930 . S
C176 C177 1.474 . S
C176 C178 1.285 . S
C176 H196 0.929 . S
C177 C174 1.461 . S
C177 C176 1.474 . S
C178 C173 1.342 . S
C178 C176 1.285 . S
C178 H197 0.930 . S
C179 C182 1.424 . S
C179 C184 1.245 . S
C179 C185 1.428 . S
C180 C183 1.260 . S
C180 C184 1.477 . S
C180 H198 0.932 . S
C181 C182 1.384 . S
C181 C183 1.479 . S
C181 H199 0.929 . S
C182 C179 1.424 . S
C182 C181 1.384 . S
C182 H200 0.928 . S
C183 C180 1.260 . S
C183 C181 1.479 . S
C184 C179 1.245 . S
C184 C180 1.477 . S
C184 H201 0.932 . S
C185 U168 2.882 . S
C185 C179 1.428 . S
C185 O188 1.301 . S
C185 O189 1.282 . S
O186 U168 2.441 . S
O186 C172 1.249 . S
O187 U168 2.420 . S
O187 C172 1.202 . S
O188 U168 2.455 . S
O188 C185 1.301 . S
O189 U168 2.449 . S
O189 C185 1.282 . S
H190 C163 0.931 . S
H191 C165 0.929 . S
H192 C166 0.930 . S
H193 C167 0.931 . S
H194 C174 0.932 . S
H195 C175 0.930 . S
H196 C176 0.929 . S
H197 C178 0.930 . S
H198 C180 0.932 . S
H199 C181 0.929 . S
H200 C182 0.928 . S
H201 C184 0.932 . S
H202 C208 0.930 . S
H203 C212 0.930 . S
H204 C217 0.929 1_556 S
H205 C215 0.929 . S
H206 C210 0.929 . S
H207 C216 0.929 . S
C208 H202 0.930 . S
C208 C209 1.367 . S
C208 C216 1.378 . S
C209 C208 1.367 . S
C209 C217 1.433 . S
C210 H206 0.929 . S
C210 C212 1.378 . S
C210 C214 1.350 . S
C211 C214 1.463 . S
C211 C216 1.350 . S
C211 N219 1.427 . S
C212 H203 0.930 . S
C212 C210 1.378 . S
C212 C213 1.367 . S
C213 C212 1.367 . S
C213 C215 1.433 . S
C214 C210 1.350 . S
C214 C211 1.463 . S
C214 N218 1.427 . S
C215 H205 0.929 . S
C215 C213 1.433 . S
C215 N218 1.384 . S
C216 H207 0.929 . S
C216 C208 1.378 . S
C216 C211 1.350 . S
C217 H204 0.929 1_554 S
C217 C209 1.433 . S
C217 N219 1.384 . S
N218 C214 1.427 . S
N218 C215 1.384 . S
N219 C211 1.427 . S
N219 C217 1.384 . S
H220 C226 0.930 . S
H221 C230 0.930 . S
H222 C235 0.929 . S
H223 C233 0.929 1_554 S
H224 C228 0.929 . S
H225 C234 0.929 . S
C226 H220 0.930 . S
C226 C227 1.367 1_554 S
C226 C234 1.378 . S
C227 C226 1.367 1_556 S
C227 C235 1.433 . S
C228 H224 0.929 . S
C228 C230 1.378 . S
C228 C232 1.350 . S
C229 C232 1.463 . S
C229 C234 1.350 1_556 S
C229 N237 1.427 . S
C230 H221 0.930 . S
C230 C228 1.378 . S
C230 C231 1.367 . S
C231 C230 1.367 . S
C231 C233 1.433 . S
C232 C228 1.350 . S
C232 C229 1.463 . S
C232 N236 1.427 1_556 S
C233 H223 0.929 1_556 S
C233 C231 1.433 . S
C233 N236 1.384 1_556 S
C234 H225 0.929 . S
C234 C226 1.378 . S
C234 C229 1.350 1_554 S
C235 H222 0.929 . S
C235 C227 1.433 . S
C235 N237 1.384 . S
N236 C232 1.427 1_554 S
N236 C233 1.384 1_554 S
N237 C229 1.427 . S
N237 C235 1.384 . S
H238 C244 0.930 . S
H239 C248 0.930 . S
H240 C253 0.929 1_556 S
H241 C251 0.929 . S
H242 C246 0.929 . S
H243 C252 0.929 . S
C244 H238 0.930 . S
C244 C245 1.367 . S
C244 C252 1.378 . S
C245 C244 1.367 . S
C245 C253 1.433 . S
C246 H242 0.929 . S
C246 C248 1.378 . S
C246 C250 1.350 . S
C247 C250 1.463 . S
C247 C252 1.350 . S
C247 N255 1.427 . S
C248 H239 0.930 . S
C248 C246 1.378 . S
C248 C249 1.367 . S
C249 C248 1.367 . S
C249 C251 1.433 . S
C250 C246 1.350 . S
C250 C247 1.463 . S
C250 N254 1.427 . S
C251 H241 0.929 . S
C251 C249 1.433 . S
C251 N254 1.384 . S
C252 H243 0.929 . S
C252 C244 1.378 . S
C252 C247 1.350 . S
C253 H240 0.929 1_554 S
C253 C245 1.433 . S
C253 N255 1.384 . S
N254 C250 1.427 . S
N254 C251 1.384 . S
N255 C247 1.427 . S
N255 C253 1.384 . S
H256 C262 0.930 . S
H257 C266 0.930 . S
H258 C271 0.929 . S
H259 C269 0.929 . S
H260 C264 0.929 . S
H261 C270 0.929 . S
C262 H256 0.930 . S
C262 C263 1.345 1_554 S
C262 C270 1.378 . S
C263 C262 1.345 1_556 S
C263 C271 1.458 . S
C264 H260 0.929 . S
C264 C266 1.378 . S
C264 C268 1.350 . S
C265 C268 1.463 . S
C265 C270 1.350 1_556 S
C265 N273 1.427 . S
C266 H257 0.930 . S
C266 C264 1.378 . S
C266 C267 1.367 . S
C267 C266 1.367 . S
C267 C269 1.433 1_556 S
C268 C264 1.350 . S
C268 C265 1.463 . S
C268 N272 1.427 1_556 S
C269 H259 0.929 . S
C269 C267 1.433 1_554 S
C269 N272 1.384 . S
C270 H261 0.929 . S
C270 C262 1.378 . S
C270 C265 1.350 1_554 S
C271 H258 0.929 . S
C271 C263 1.458 . S
C271 N273 1.384 . S
N272 C268 1.427 1_554 S
N272 C269 1.384 . S
N273 C265 1.427 . S
N273 C271 1.384 . S
H274 C280 0.930 . S
H275 C284 0.930 . S
H276 C289 0.929 . S
H277 C287 0.929 . S
H278 C282 0.929 . S
H279 C288 0.929 . S
C280 H274 0.930 . S
C280 C281 1.367 . S
C280 C288 1.378 . S
C281 C280 1.367 . S
C281 C289 1.433 . S
C282 H278 0.929 . S
C282 C284 1.378 . S
C282 C286 1.350 . S
C283 C286 1.463 . S
C283 C288 1.350 . S
C283 N291 1.427 . S
C284 H275 0.930 . S
C284 C282 1.378 . S
C284 C285 1.367 . S
C285 C284 1.367 . S
C285 C287 1.433 . S
C286 C282 1.350 . S
C286 C283 1.463 . S
C286 N290 1.427 . S
C287 H277 0.929 . S
C287 C285 1.433 . S
C287 N290 1.384 . S
C288 H279 0.929 . S
C288 C280 1.378 . S
C288 C283 1.350 . S
C289 H276 0.929 . S
C289 C281 1.433 . S
C289 N291 1.384 . S
N290 C286 1.427 . S
N290 C287 1.384 . S
N291 C283 1.427 . S
N291 C289 1.384 . S
H292 C298 0.930 . S
H293 C302 0.930 . S
H294 C307 0.929 . S
H295 C305 0.929 . S
H296 C300 0.929 . S
H297 C306 0.929 . S
C298 H292 0.930 . S
C298 C299 1.367 . S
C298 C306 1.378 . S
C299 C298 1.367 . S
C299 C307 1.433 . S
C300 H296 0.929 . S
C300 C302 1.378 . S
C300 C304 1.350 . S
C301 C304 1.463 . S
C301 C306 1.350 . S
C301 N309 1.427 . S
C302 H293 0.930 . S
C302 C300 1.378 . S
C302 C303 1.367 . S
C303 C302 1.367 . S
C303 C305 1.433 . S
C304 C300 1.350 . S
C304 C301 1.463 . S
C304 N308 1.427 . S
C305 H295 0.929 . S
C305 C303 1.433 . S
C305 N308 1.384 . S
C306 H297 0.929 . S
C306 C298 1.378 . S
C306 C301 1.350 . S
C307 H294 0.929 . S
C307 C299 1.433 . S
C307 N309 1.384 . S
N308 C304 1.427 . S
N308 C305 1.384 . S
N309 C301 1.427 . S
N309 C307 1.384 . S
H310 C316 0.930 . S
H311 C320 0.930 . S
H312 C325 0.929 . S
H313 C323 0.929 . S
H314 C318 0.929 . S
H315 C324 0.929 . S
C316 H310 0.930 . S
C316 C317 1.367 . S
C316 C324 1.378 . S
C317 C316 1.367 . S
C317 C325 1.433 . S
C318 H314 0.929 . S
C318 C320 1.378 . S
C318 C322 1.350 . S
C319 C322 1.463 . S
C319 C324 1.350 . S
C319 N327 1.427 . S
C320 H311 0.930 . S
C320 C318 1.378 . S
C320 C321 1.367 . S
C321 C320 1.367 . S
C321 C323 1.433 . S
C322 C318 1.350 . S
C322 C319 1.463 . S
C322 N326 1.427 . S
C323 H313 0.929 . S
C323 C321 1.433 . S
C323 N326 1.384 . S
C324 H315 0.929 . S
C324 C316 1.378 . S
C324 C319 1.350 . S
C325 H312 0.929 . S
C325 C317 1.433 . S
C325 N327 1.384 . S
N326 C322 1.427 . S
N326 C323 1.384 . S
N327 C319 1.427 . S
N327 C325 1.384 . S
H328 C334 0.930 . S
H329 C338 0.930 . S
H330 C343 0.929 . S
H331 C341 0.929 . S
H332 C336 0.929 . S
H333 C342 0.929 . S
C334 H328 0.930 . S
C334 C335 1.367 . S
C334 C342 1.378 . S
C335 C334 1.367 . S
C335 C343 1.433 . S
C336 H332 0.929 . S
C336 C338 1.378 . S
C336 C340 1.350 . S
C337 C340 1.463 . S
C337 C342 1.350 . S
C337 N345 1.427 . S
C338 H329 0.930 . S
C338 C336 1.378 . S
C338 C339 1.367 . S
C339 C338 1.367 . S
C339 C341 1.433 . S
C340 C336 1.350 . S
C340 C337 1.463 . S
C340 N344 1.427 . S
C341 H331 0.929 . S
C341 C339 1.433 . S
C341 N344 1.384 . S
C342 H333 0.929 . S
C342 C334 1.378 . S
C342 C337 1.350 . S
C343 H330 0.929 . S
C343 C335 1.433 . S
C343 N345 1.384 . S
N344 C340 1.427 . S
N344 C341 1.384 . S
N345 C337 1.427 . S
N345 C343 1.384 . S
H346 C352 0.928 1_655 S
H347 C356 0.930 . S
H348 C361 0.929 . S
H349 C359 0.929 1_655 S
H350 C354 0.929 . S
H351 C360 0.929 1_655 S
C352 H346 0.928 1_455 S
C352 C353 1.369 . S
C352 C360 1.378 . S
C353 C352 1.369 . S
C353 C361 1.433 1_565 S
C354 H350 0.929 . S
C354 C356 1.378 . S
C354 C358 1.350 . S
C355 C358 1.463 . S
C355 C360 1.350 1_545 S
C355 N363 1.427 . S
C356 H347 0.930 . S
C356 C354 1.378 . S
C356 C357 1.367 . S
C357 C356 1.367 . S
C357 C359 1.433 . S
C358 C354 1.350 . S
C358 C355 1.463 . S
C358 N362 1.427 . S
C359 H349 0.929 1_455 S
C359 C357 1.433 . S
C359 N362 1.384 . S
C360 H351 0.929 1_455 S
C360 C352 1.378 . S
C360 C355 1.350 1_565 S
C361 H348 0.929 . S
C361 C353 1.433 1_545 S
C361 N363 1.384 . S
N362 C358 1.427 . S
N362 C359 1.384 . S
N363 C355 1.427 . S
N363 C361 1.384 . S
H364 C370 0.930 . S
H365 C374 0.930 . S
H366 C379 0.929 . S
H367 C377 0.929 . S
H368 C372 0.929 . S
H369 C378 0.929 . S
C370 H364 0.930 . S
C370 C371 1.367 1_645 S
C370 C378 1.378 . S
C371 C370 1.367 1_465 S
C371 C379 1.433 . S
C372 H368 0.929 . S
C372 C374 1.378 . S
C372 C376 1.350 1_565 S
C373 C376 1.463 . S
C373 C378 1.350 1_455 S
C373 N381 1.427 1_545 S
C374 H365 0.930 . S
C374 C372 1.378 . S
C374 C375 1.367 1_565 S
C375 C374 1.367 1_545 S
C375 C377 1.433 1_455 S
C376 C372 1.350 1_545 S
C376 C373 1.463 . S
C376 N380 1.427 1_455 S
C377 H367 0.929 . S
C377 C375 1.433 1_655 S
C377 N380 1.384 . S
C378 H369 0.929 . S
C378 C370 1.378 . S
C378 C373 1.350 1_655 S
C379 H366 0.929 . S
C379 C371 1.433 . S
C379 N381 1.384 . S
N380 C376 1.427 1_655 S
N380 C377 1.384 . S
N381 C373 1.427 1_565 S
N381 C379 1.384 . S
H382 C388 0.930 . S
H383 C392 0.930 . S
H384 C397 0.929 . S
H385 C395 0.929 . S
H386 C390 0.929 . S
H387 C396 0.929 . S
C388 H382 0.930 . S
C388 C389 1.367 . S
C388 C396 1.378 . S
C389 C388 1.367 . S
C389 C397 1.433 . S
C390 H386 0.929 . S
C390 C392 1.378 . S
C390 C394 1.350 . S
C391 C394 1.463 . S
C391 C396 1.350 . S
C391 N399 1.427 . S
C392 H383 0.930 . S
C392 C390 1.378 . S
C392 C393 1.367 . S
C393 C392 1.367 . S
C393 C395 1.433 . S
C394 C390 1.350 . S
C394 C391 1.463 . S
C394 N398 1.427 . S
C395 H385 0.929 . S
C395 C393 1.433 . S
C395 N398 1.384 . S
C396 H387 0.929 . S
C396 C388 1.378 . S
C396 C391 1.350 . S
C397 H384 0.929 . S
C397 C389 1.433 . S
C397 N399 1.384 . S
N398 C394 1.427 . S
N398 C395 1.384 . S
N399 C391 1.427 . S
N399 C397 1.384 . S
H400 C406 0.930 . S
H401 C410 0.930 . S
H402 C415 0.929 . S
H403 C413 0.929 . S
H404 C408 0.929 . S
H405 C414 0.929 . S
C406 H400 0.930 . S
C406 C407 1.367 . S
C406 C414 1.378 . S
C407 C406 1.367 . S
C407 C415 1.433 . S
C408 H404 0.929 . S
C408 C410 1.378 . S
C408 C412 1.350 . S
C409 C412 1.463 . S
C409 C414 1.350 . S
C409 N417 1.427 . S
C410 H401 0.930 . S
C410 C408 1.378 . S
C410 C411 1.367 . S
C411 C410 1.367 . S
C411 C413 1.433 . S
C412 C408 1.350 . S
C412 C409 1.463 . S
C412 N416 1.427 . S
C413 H403 0.929 . S
C413 C411 1.433 . S
C413 N416 1.384 . S
C414 H405 0.929 . S
C414 C406 1.378 . S
C414 C409 1.350 . S
C415 H402 0.929 . S
C415 C407 1.433 . S
C415 N417 1.384 . S
N416 C412 1.427 . S
N416 C413 1.384 . S
N417 C409 1.427 . S
N417 C415 1.384 . S
C213 C164 1.242 . S
C209 C3 1.153 . S
C227 C4 1.519 1_556 S
C231 C124 1.651 . S
C245 C19 1.561 . S
C249 C177 1.663 . S
C263 C7 1.169 . S
C267 C137 1.246 . S
C281 C37 1.133 . S
C285 C84 1.249 . S
C299 C28 1.516 . S
C303 C44 1.651 . S
C321 C97 1.659 . S
C317 C41 1.554 . S
C339 C57 1.258 . S
C335 C25 1.142 . S
C353 C20 1.309 . S
C357 C63 1.466 . S
C371 C16 1.329 . S
C375 C103 1.473 . S
C393 C143 1.467 . S
C389 C40 1.298 . S
C407 C24 1.333 . S
C411 C183 1.479 . S
