# Generated by pormake.
# Topology pto, (3,4)-cn, num edge types: 1
# Building blocks:
#     Node 0, Type 0, BuildingBlock: WUSLED_clean_sbu_0, # of connection points: 3
#     Node 1, Type 0, BuildingBlock: WUSLED_clean_sbu_0, # of connection points: 3
#     Node 2, Type 0, BuildingBlock: WUSLED_clean_sbu_0, # of connection points: 3
#     Node 3, Type 0, BuildingBlock: WUSLED_clean_sbu_0, # of connection points: 3
#     Node 4, Type 0, BuildingBlock: WUSLED_clean_sbu_0, # of connection points: 3
#     Node 5, Type 0, BuildingBlock: WUSLED_clean_sbu_0, # of connection points: 3
#     Node 6, Type 0, BuildingBlock: WUSLED_clean_sbu_0, # of connection points: 3
#     Node 7, Type 0, BuildingBlock: WUSLED_clean_sbu_0, # of connection points: 3
#     Node 8, Type 1, BuildingBlock: NAWXER_clean_sbu_0, # of connection points: 4
#     Node 9, Type 1, BuildingBlock: NAWXER_clean_sbu_0, # of connection points: 4
#     Node 10, Type 1, BuildingBlock: NAWXER_clean_sbu_0, # of connection points: 4
#     Node 11, Type 1, BuildingBlock: NAWXER_clean_sbu_0, # of connection points: 4
#     Node 12, Type 1, BuildingBlock: NAWXER_clean_sbu_0, # of connection points: 4
#     Node 13, Type 1, BuildingBlock: NAWXER_clean_sbu_0, # of connection points: 4
#     Edge 14, Type (0, 1), BuildingBlock: UVAHIK_clean_linker_0, # of connection points: 2
#     Edge 15, Type (0, 1), BuildingBlock: UVAHIK_clean_linker_0, # of connection points: 2
#     Edge 16, Type (0, 1), BuildingBlock: UVAHIK_clean_linker_0, # of connection points: 2
#     Edge 17, Type (0, 1), BuildingBlock: UVAHIK_clean_linker_0, # of connection points: 2
#     Edge 18, Type (0, 1), BuildingBlock: UVAHIK_clean_linker_0, # of connection points: 2
#     Edge 19, Type (0, 1), BuildingBlock: UVAHIK_clean_linker_0, # of connection points: 2
#     Edge 20, Type (0, 1), BuildingBlock: UVAHIK_clean_linker_0, # of connection points: 2
#     Edge 21, Type (0, 1), BuildingBlock: UVAHIK_clean_linker_0, # of connection points: 2
#     Edge 22, Type (0, 1), BuildingBlock: UVAHIK_clean_linker_0, # of connection points: 2
#     Edge 23, Type (0, 1), BuildingBlock: UVAHIK_clean_linker_0, # of connection points: 2
#     Edge 24, Type (0, 1), BuildingBlock: UVAHIK_clean_linker_0, # of connection points: 2
#     Edge 25, Type (0, 1), BuildingBlock: UVAHIK_clean_linker_0, # of connection points: 2
#     Edge 26, Type (0, 1), BuildingBlock: UVAHIK_clean_linker_0, # of connection points: 2
#     Edge 27, Type (0, 1), BuildingBlock: UVAHIK_clean_linker_0, # of connection points: 2
#     Edge 28, Type (0, 1), BuildingBlock: UVAHIK_clean_linker_0, # of connection points: 2
#     Edge 29, Type (0, 1), BuildingBlock: UVAHIK_clean_linker_0, # of connection points: 2
#     Edge 30, Type (0, 1), BuildingBlock: UVAHIK_clean_linker_0, # of connection points: 2
#     Edge 31, Type (0, 1), BuildingBlock: UVAHIK_clean_linker_0, # of connection points: 2
#     Edge 32, Type (0, 1), BuildingBlock: UVAHIK_clean_linker_0, # of connection points: 2
#     Edge 33, Type (0, 1), BuildingBlock: UVAHIK_clean_linker_0, # of connection points: 2
#     Edge 34, Type (0, 1), BuildingBlock: UVAHIK_clean_linker_0, # of connection points: 2
#     Edge 35, Type (0, 1), BuildingBlock: UVAHIK_clean_linker_0, # of connection points: 2
#     Edge 36, Type (0, 1), BuildingBlock: UVAHIK_clean_linker_0, # of connection points: 2
#     Edge 37, Type (0, 1), BuildingBlock: UVAHIK_clean_linker_0, # of connection points: 2
# Relax obj value: 0.000
# Max RMSD: 0.008
# Mean RMSD: 0.004
data_MOF--net-pto--node1-WUSLED_clean_sbu_0--node2-NAWXER_clean_sbu_0--edge1-UVAHIK_clean_linker_0
_symmetry_space_group_name_H-M    P1
_symmetry_Int_Tables_number       1
_symmetry_cell_setting            triclinic
loop_
_symmetry_equiv_pos_as_xyz
'x, y, z'
_cell_length_a     69.440804
_cell_length_b     65.336808
_cell_length_c     61.291514
_cell_angle_alpha  89.440415
_cell_angle_beta   90.448775
_cell_angle_gamma 90.439477
loop_
_atom_site_label
_atom_site_type_symbol
_atom_site_fract_x
_atom_site_fract_y
_atom_site_fract_z
_atom_type_partial_charge
C0 C 0.24666 0.24891 0.30214 0.0
C1 C 0.25941 0.23281 0.29833 0.0
C2 C 0.24649 0.21405 0.32961 0.0
C3 C 0.2593 0.21548 0.31195 0.0
C4 C 0.23376 0.23029 0.33326 0.0
C5 C 0.23386 0.24755 0.31963 0.0
U6 U 0.26672 0.28195 0.25543 0.0
O7 O 0.25097 0.29968 0.23046 0.0
O8 O 0.26999 0.31546 0.25366 0.0
C9 C 0.25647 0.31732 0.23865 0.0
C10 C 0.24647 0.26723 0.2881 0.0
C11 C 0.24065 0.33111 0.24428 0.0
C12 C 0.213 0.3388 0.26676 0.0
C13 C 0.22837 0.32608 0.26163 0.0
C14 C 0.22209 0.36189 0.23737 0.0
C15 C 0.20958 0.35681 0.25462 0.0
C16 C 0.23749 0.34912 0.23224 0.0
C17 C 0.31091 0.26263 0.22389 0.0
C18 C 0.32554 0.27966 0.19263 0.0
C19 C 0.3393 0.24833 0.20709 0.0
C20 C 0.32503 0.24747 0.22301 0.0
C21 C 0.33974 0.26439 0.19164 0.0
C22 C 0.31123 0.27878 0.20863 0.0
C23 C 0.29606 0.26108 0.24081 0.0
O24 O 0.26112 0.27985 0.29066 0.0
O25 O 0.24195 0.26414 0.26753 0.0
O26 O 0.27828 0.25844 0.2338 0.0
O27 O 0.29751 0.27423 0.25684 0.0
H28 H 0.26944 0.23368 0.28489 0.0
H29 H 0.26943 0.20335 0.30885 0.0
H30 H 0.22355 0.22957 0.34652 0.0
H31 H 0.22389 0.25985 0.32274 0.0
H32 H 0.20384 0.33455 0.28032 0.0
H33 H 0.23064 0.31223 0.27115 0.0
H34 H 0.21975 0.37552 0.22753 0.0
H35 H 0.2468 0.35319 0.21876 0.0
H36 H 0.32535 0.29215 0.18089 0.0
H37 H 0.35016 0.23652 0.20708 0.0
H38 H 0.32503 0.23494 0.23472 0.0
H39 H 0.30039 0.29061 0.20907 0.0
C40 C 0.24797 0.78721 0.71737 0.0
C41 C 0.26078 0.8035 0.72125 0.0
C42 C 0.248 0.82182 0.68953 0.0
C43 C 0.26078 0.8207 0.70745 0.0
C44 C 0.23522 0.80539 0.68578 0.0
C45 C 0.23522 0.78826 0.6996 0.0
U46 U 0.26809 0.7547 0.76453 0.0
O47 O 0.25238 0.73743 0.78984 0.0
O48 O 0.27082 0.72123 0.76693 0.0
C49 C 0.2576 0.71964 0.7821 0.0
C50 C 0.24764 0.76905 0.73164 0.0
C51 C 0.2416 0.70551 0.77715 0.0
C52 C 0.21459 0.69546 0.75404 0.0
C53 C 0.23022 0.70847 0.75837 0.0
C54 C 0.22156 0.67634 0.7872 0.0
C55 C 0.20998 0.67932 0.76848 0.0
C56 C 0.23724 0.68933 0.79148 0.0
C57 C 0.31294 0.77378 0.79599 0.0
C58 C 0.32698 0.75668 0.82766 0.0
C59 C 0.34202 0.78735 0.81292 0.0
C60 C 0.3277 0.78847 0.79681 0.0
C61 C 0.34184 0.77147 0.8286 0.0
C62 C 0.31263 0.75783 0.81148 0.0
C63 C 0.29803 0.77555 0.77891 0.0
O64 O 0.26202 0.75633 0.72927 0.0
O65 O 0.24345 0.77241 0.75216 0.0
O66 O 0.28038 0.77847 0.78576 0.0
O67 O 0.299 0.76226 0.763 0.0
H68 H 0.27078 0.80287 0.7349 0.0
H69 H 0.27094 0.83298 0.71064 0.0
H70 H 0.22503 0.80588 0.67232 0.0
H71 H 0.2252 0.77582 0.69643 0.0
H72 H 0.20584 0.69836 0.73965 0.0
H73 H 0.2333 0.721 0.74719 0.0
H74 H 0.21854 0.66393 0.79853 0.0
H75 H 0.24587 0.68684 0.80605 0.0
H76 H 0.3263 0.74436 0.83958 0.0
H77 H 0.35338 0.79879 0.81289 0.0
H78 H 0.32819 0.80085 0.78492 0.0
H79 H 0.30129 0.74636 0.81109 0.0
C80 C 0.73485 0.77494 0.22967 0.0
C81 C 0.73481 0.75911 0.21437 0.0
C82 C 0.70534 0.7725 0.19777 0.0
C83 C 0.72017 0.75789 0.19855 0.0
C84 C 0.70549 0.78824 0.21328 0.0
C85 C 0.7201 0.78944 0.22903 0.0
U86 U 0.77982 0.75578 0.26066 0.0
O87 O 0.80514 0.77329 0.2718 0.0
O88 O 0.78664 0.75772 0.29571 0.0
C89 C 0.80127 0.77024 0.29254 0.0
C90 C 0.75009 0.77679 0.24635 0.0
C91 C 0.80165 0.78859 0.30618 0.0
C92 C 0.79056 0.82278 0.31449 0.0
C93 C 0.78983 0.80537 0.30138 0.0
C94 C 0.81483 0.80668 0.33736 0.0
C95 C 0.8031 0.82365 0.33264 0.0
C96 C 0.81411 0.78933 0.32423 0.0
C97 C 0.80481 0.70611 0.24873 0.0
C98 C 0.83162 0.69528 0.27173 0.0
C99 C 0.82444 0.67729 0.23822 0.0
C100 C 0.80897 0.69041 0.23414 0.0
C101 C 0.83603 0.67964 0.25701 0.0
C102 C 0.81619 0.70844 0.26758 0.0
C103 C 0.78908 0.72045 0.24388 0.0
O104 O 0.74914 0.76369 0.26273 0.0
O105 O 0.76767 0.77947 0.23898 0.0
O106 O 0.79458 0.73811 0.23547 0.0
O107 O 0.77625 0.72233 0.25939 0.0
H108 H 0.74613 0.74778 0.21462 0.0
H109 H 0.72062 0.74567 0.18675 0.0
H110 H 0.69416 0.79954 0.21344 0.0
H111 H 0.71987 0.80172 0.24078 0.0
H112 H 0.78148 0.83564 0.31025 0.0
H113 H 0.78012 0.80502 0.28746 0.0
H114 H 0.82441 0.80669 0.35139 0.0
H115 H 0.82327 0.77645 0.3282 0.0
H116 H 0.84038 0.69769 0.28619 0.0
H117 H 0.82733 0.66527 0.22668 0.0
H118 H 0.80035 0.68842 0.21949 0.0
H119 H 0.81328 0.72061 0.27895 0.0
C120 C 0.76688 0.22201 0.7399 0.0
C121 C 0.78351 0.22451 0.72724 0.0
C122 C 0.77581 0.19322 0.7076 0.0
C123 C 0.78797 0.2102 0.71125 0.0
C124 C 0.75927 0.19074 0.72053 0.0
C125 C 0.75486 0.20503 0.73653 0.0
U126 U 0.7759 0.27315 0.76701 0.0
O127 O 0.75561 0.29664 0.77771 0.0
O128 O 0.77471 0.28175 0.80162 0.0
C129 C 0.75995 0.29394 0.79845 0.0
C130 C 0.76179 0.23723 0.75631 0.0
C131 C 0.7434 0.29027 0.81285 0.0
C132 C 0.71609 0.26938 0.82432 0.0
C133 C 0.73212 0.27245 0.81093 0.0
C134 C 0.72257 0.30183 0.84181 0.0
C135 C 0.71103 0.28411 0.83984 0.0
C136 C 0.73859 0.30487 0.82843 0.0
C137 C 0.81853 0.30539 0.74473 0.0
C138 C 0.83235 0.33593 0.76111 0.0
C139 C 0.84369 0.3245 0.72602 0.0
C140 C 0.83068 0.30811 0.72678 0.0
C141 C 0.84482 0.33854 0.74325 0.0
C142 C 0.81928 0.31949 0.76183 0.0
C143 C 0.80575 0.28736 0.74539 0.0
O144 O 0.77451 0.2398 0.77205 0.0
O145 O 0.7551 0.25455 0.7484 0.0
O146 O 0.78785 0.29033 0.73908 0.0
O147 O 0.80724 0.27555 0.7628 0.0
H148 H 0.79291 0.23763 0.7296 0.0
H149 H 0.80068 0.21267 0.70143 0.0
H150 H 0.74975 0.17771 0.71831 0.0
H151 H 0.74199 0.20287 0.7462 0.0
H152 H 0.70743 0.25568 0.82219 0.0
H153 H 0.73562 0.26103 0.79892 0.0
H154 H 0.71929 0.31334 0.8538 0.0
H155 H 0.74717 0.31868 0.83018 0.0
H156 H 0.83269 0.34659 0.77454 0.0
H157 H 0.85324 0.32582 0.71219 0.0
H158 H 0.83032 0.29732 0.71346 0.0
H159 H 0.80993 0.31764 0.7758 0.0
C160 C 0.80381 0.70467 0.78706 0.0
C161 C 0.81948 0.71006 0.77382 0.0
C162 C 0.83799 0.68149 0.78885 0.0
C163 C 0.83643 0.69856 0.7747 0.0
C164 C 0.82218 0.67627 0.80206 0.0
C165 C 0.80529 0.68775 0.80116 0.0
U166 U 0.77029 0.7469 0.76455 0.0
O167 O 0.739 0.74512 0.75858 0.0
O168 O 0.7507 0.76679 0.78249 0.0
C169 C 0.73518 0.7584 0.77389 0.0
C170 C 0.78572 0.71624 0.78639 0.0
C171 C 0.72017 0.75221 0.78944 0.0
C172 C 0.70994 0.73451 0.82251 0.0
C173 C 0.72433 0.73945 0.8074 0.0
C174 C 0.68709 0.75464 0.80152 0.0
C175 C 0.69119 0.74225 0.81987 0.0
C176 C 0.70146 0.75959 0.7865 0.0
C177 C 0.7848 0.78368 0.71872 0.0
C178 C 0.76233 0.80354 0.69652 0.0
C179 C 0.79604 0.8132 0.69785 0.0
C180 C 0.79972 0.79686 0.71217 0.0
C181 C 0.77733 0.81667 0.68964 0.0
C182 C 0.76601 0.78726 0.71097 0.0
C183 C 0.7891 0.76641 0.73363 0.0
O184 O 0.78679 0.73534 0.79283 0.0
O185 O 0.77504 0.71384 0.7688 0.0
O186 O 0.77924 0.74944 0.7303 0.0
O187 O 0.79071 0.77108 0.75438 0.0
H188 H 0.81857 0.72311 0.76283 0.0
H189 H 0.84838 0.70313 0.76445 0.0
H190 H 0.8227 0.66306 0.81285 0.0
H191 H 0.79329 0.68332 0.81142 0.0
H192 H 0.71362 0.72506 0.83652 0.0
H193 H 0.73874 0.73358 0.80989 0.0
H194 H 0.67274 0.76056 0.79874 0.0
H195 H 0.69798 0.76935 0.77264 0.0
H196 H 0.74779 0.80556 0.69042 0.0
H197 H 0.80789 0.82319 0.69332 0.0
H198 H 0.81428 0.7945 0.71813 0.0
H199 H 0.75421 0.77737 0.71594 0.0
C200 C 0.72011 0.27832 0.23688 0.0
C201 C 0.72429 0.29136 0.21918 0.0
C202 C 0.69103 0.28867 0.20637 0.0
C203 C 0.70987 0.29649 0.20403 0.0
C204 C 0.68693 0.2759 0.22441 0.0
C205 C 0.70134 0.27076 0.23948 0.0
U206 U 0.7703 0.28447 0.262 0.0
O207 O 0.77944 0.28248 0.29645 0.0
O208 O 0.791 0.26104 0.27264 0.0
C209 C 0.78959 0.26588 0.29333 0.0
C210 C 0.73511 0.27229 0.25267 0.0
C211 C 0.78555 0.24868 0.30836 0.0
C212 C 0.76577 0.21964 0.31975 0.0
C213 C 0.76917 0.23622 0.30558 0.0
C214 C 0.79493 0.22804 0.33979 0.0
C215 C 0.7787 0.21525 0.33697 0.0
C216 C 0.79832 0.24456 0.3256 0.0
C217 C 0.80346 0.32695 0.23862 0.0
C218 C 0.83672 0.33307 0.24958 0.0
C219 C 0.82135 0.35568 0.22328 0.0
C220 C 0.8044 0.3441 0.22478 0.0
C221 C 0.83776 0.35032 0.23561 0.0
C222 C 0.8197 0.32147 0.25106 0.0
C223 C 0.78539 0.31509 0.23966 0.0
O224 O 0.75053 0.26398 0.24431 0.0
O225 O 0.7391 0.28576 0.26786 0.0
O226 O 0.77502 0.31757 0.25727 0.0
O227 O 0.78636 0.29591 0.23353 0.0
H228 H 0.73873 0.29738 0.21698 0.0
H229 H 0.71357 0.3062 0.19026 0.0
H230 H 0.67253 0.26991 0.22696 0.0
H231 H 0.69784 0.26079 0.25314 0.0
H232 H 0.75323 0.21004 0.31696 0.0
H233 H 0.75912 0.23921 0.29234 0.0
H234 H 0.80501 0.22538 0.35307 0.0
H235 H 0.81097 0.25409 0.32808 0.0
H236 H 0.84912 0.32839 0.25915 0.0
H237 H 0.82148 0.36902 0.21267 0.0
H238 H 0.79196 0.34858 0.21513 0.0
H239 H 0.81922 0.30823 0.26184 0.0
C240 C 0.26071 0.24825 0.71166 0.0
C241 C 0.27858 0.23842 0.71321 0.0
C242 C 0.26886 0.21463 0.68464 0.0
C243 C 0.28263 0.22177 0.6998 0.0
C244 C 0.25105 0.22475 0.68306 0.0
C245 C 0.24704 0.24138 0.69645 0.0
U246 U 0.2749 0.28465 0.75713 0.0
O247 O 0.2698 0.3176 0.76115 0.0
O248 O 0.25855 0.29561 0.78526 0.0
C249 C 0.25939 0.31483 0.77877 0.0
C250 C 0.25609 0.26541 0.72606 0.0
C251 C 0.24125 0.32625 0.77956 0.0
C252 C 0.20849 0.33272 0.76716 0.0
C253 C 0.22555 0.32144 0.76597 0.0
C254 C 0.22275 0.35363 0.79553 0.0
C255 C 0.20689 0.34896 0.782 0.0
C256 C 0.23973 0.34238 0.79431 0.0
C257 C 0.32505 0.27969 0.78277 0.0
C258 C 0.33498 0.29733 0.8158 0.0
C259 C 0.35829 0.27825 0.79514 0.0
C260 C 0.34396 0.27298 0.78004 0.0
C261 C 0.35395 0.29031 0.81335 0.0
C262 C 0.32064 0.29207 0.80061 0.0
C263 C 0.31014 0.27339 0.767 0.0
O264 O 0.25451 0.26062 0.74685 0.0
O265 O 0.26603 0.28234 0.72267 0.0
O266 O 0.30614 0.2868 0.75154 0.0
O267 O 0.29474 0.26468 0.77541 0.0
H268 H 0.28931 0.24351 0.72493 0.0
H269 H 0.29639 0.21424 0.70164 0.0
H270 H 0.24023 0.21989 0.67136 0.0
H271 H 0.23319 0.24883 0.69499 0.0
H272 H 0.19651 0.32859 0.75664 0.0
H273 H 0.22649 0.30898 0.75449 0.0
H274 H 0.22218 0.36622 0.80687 0.0
H275 H 0.25175 0.34636 0.80487 0.0
H276 H 0.3311 0.30649 0.8297 0.0
H277 H 0.3728 0.2729 0.7925 0.0
H278 H 0.34764 0.26354 0.76627 0.0
H279 H 0.30608 0.29744 0.80292 0.0
C280 C 0.22234 0.73143 0.26674 0.0
C281 C 0.22571 0.71548 0.25211 0.0
C282 C 0.1929 0.70274 0.25711 0.0
C283 C 0.21112 0.70125 0.24732 0.0
C284 C 0.18959 0.71899 0.27151 0.0
C285 C 0.20418 0.73316 0.27628 0.0
U286 U 0.27294 0.75273 0.25866 0.0
O287 O 0.28391 0.78439 0.25795 0.0
O288 O 0.29473 0.76277 0.28272 0.0
C289 C 0.29444 0.78185 0.2757 0.0
C290 C 0.23769 0.74614 0.27238 0.0
C291 C 0.29314 0.7978 0.29265 0.0
C292 C 0.30663 0.81358 0.32528 0.0
C293 C 0.30669 0.798 0.30977 0.0
C294 C 0.27936 0.82909 0.30691 0.0
C295 C 0.29308 0.82946 0.32395 0.0
C296 C 0.27937 0.81344 0.29145 0.0
C297 C 0.30452 0.72796 0.21534 0.0
C298 C 0.33779 0.73792 0.20888 0.0
C299 C 0.32222 0.71293 0.18556 0.0
C300 C 0.30532 0.71462 0.19763 0.0
C301 C 0.33867 0.72457 0.191 0.0
C302 C 0.32084 0.73961 0.22094 0.0
C303 C 0.28651 0.72962 0.22758 0.0
O304 O 0.25297 0.73819 0.28188 0.0
O305 O 0.24197 0.75965 0.25711 0.0
O306 O 0.27652 0.74629 0.22377 0.0
O307 O 0.28754 0.7247 0.2484 0.0
H308 H 0.23968 0.71392 0.24457 0.0
H309 H 0.21424 0.68885 0.23634 0.0
H310 H 0.17567 0.72082 0.27906 0.0
H311 H 0.20131 0.74544 0.28753 0.0
H312 H 0.31722 0.81313 0.33834 0.0
H313 H 0.3175 0.78617 0.31104 0.0
H314 H 0.26886 0.84118 0.30516 0.0
H315 H 0.26877 0.81382 0.2784 0.0
H316 H 0.35024 0.74694 0.21367 0.0
H317 H 0.32227 0.70276 0.17171 0.0
H318 H 0.29281 0.70559 0.19303 0.0
H319 H 0.32045 0.74999 0.2346 0.0
C320 C 0.99827 0.49113 0.23678 0.0
C321 C 0.04697 0.54618 0.23874 0.0
O322 O 1.0035 0.49634 0.25606 0.0
Zn323 Zn 0.02257 0.51755 0.27171 0.0
O324 O 1.00577 0.50014 0.22037 0.0
Zn325 Zn 0.02279 0.51853 0.23659 0.0
O326 O 0.04275 0.49781 0.25133 0.0
O327 O 0.04052 0.49957 0.28715 0.0
O328 O 0.03988 0.53795 0.22169 0.0
O329 O 0.04154 0.53981 0.25757 0.0
O330 O 1.00456 0.53471 0.28745 0.0
O331 O 1.00266 0.53839 0.25168 0.0
C332 C 0.04828 0.49193 0.27037 0.0
C333 C 0.99696 0.54326 0.27076 0.0
C334 C 0.99709 0.4898 0.74847 0.0
C335 C 0.04763 0.54272 0.75063 0.0
O336 O 1.00252 0.49465 0.76779 0.0
Zn337 Zn 0.02229 0.51505 0.78352 0.0
O338 O 1.00478 0.4987 0.73212 0.0
Zn339 Zn 0.02234 0.51632 0.74853 0.0
O340 O 0.04181 0.49471 0.763 0.0
O341 O 0.03947 0.49622 0.79881 0.0
O342 O 0.03999 0.53504 0.7336 0.0
O343 O 0.04212 0.53649 0.76949 0.0
O344 O 1.00506 0.53273 0.79957 0.0
O345 O 1.0028 0.53683 0.76389 0.0
C346 C 0.0471 0.48847 0.78201 0.0
C347 C 0.99746 0.54167 0.78313 0.0
C348 C 0.25644 0.99125 0.5376 0.0
C349 C 0.25592 0.04444 0.48097 0.0
O350 O 0.24181 0.9992 0.52833 0.0
Zn351 Zn 0.25566 0.01781 0.50929 0.0
O352 O 0.27338 0.99728 0.53215 0.0
Zn353 Zn 0.28643 0.01877 0.50986 0.0
O354 O 0.29977 0.03769 0.52943 0.0
O355 O 0.26814 0.03897 0.5319 0.0
O356 O 0.27296 0.0394 0.4871 0.0
O357 O 0.24145 0.03566 0.48968 0.0
O358 O 0.26934 0.99729 0.48733 0.0
O359 O 0.30081 1.00082 0.4907 0.0
C360 C 0.28484 0.04523 0.53807 0.0
C361 C 0.28636 0.99215 0.48172 0.0
C362 C 0.54881 0.75807 0.04158 0.0
C363 C 0.49645 0.75799 0.98734 0.0
O364 O 0.54336 0.74004 0.03606 0.0
Zn365 Zn 0.52273 0.72599 0.01453 0.0
O366 O 0.5406 0.77354 0.03299 0.0
Zn367 Zn 0.52257 0.75868 0.01449 0.0
O368 O 0.50379 0.74429 0.03764 0.0
O369 O 0.50625 0.71081 0.03457 0.0
O370 O 0.50452 0.77351 0.99597 0.0
O371 O 0.50201 0.73998 0.99291 0.0
O372 O 0.53923 0.7115 0.99441 0.0
O373 O 0.54113 0.7451 0.99106 0.0
C374 C 0.49877 0.7262 0.04371 0.0
C375 C 0.54628 0.72725 0.98498 0.0
C376 C 0.76534 0.98607 0.53855 0.0
C377 C 0.76645 0.0425 0.48468 0.0
O378 O 0.75072 0.99485 0.53015 0.0
Zn379 Zn 0.7648 0.01456 0.51185 0.0
O380 O 0.78226 0.99239 0.53351 0.0
Zn381 Zn 0.79577 0.01508 0.51347 0.0
O382 O 0.80864 0.03273 0.53459 0.0
O383 O 0.77698 0.03488 0.5353 0.0
O384 O 0.78311 0.03674 0.49136 0.0
O385 O 0.75146 0.03373 0.4923 0.0
O386 O 0.77911 0.99505 0.4893 0.0
O387 O 0.81056 0.99821 0.49393 0.0
C388 C 0.79353 0.04058 0.54246 0.0
C389 C 0.79629 0.9901 0.48402 0.0
C390 C 0.54532 0.30703 0.0406 0.0
C391 C 0.4987 0.30751 0.98006 0.0
O392 O 0.54014 0.28918 0.03425 0.0
Zn393 Zn 0.52188 0.27537 1.0103 0.0
O394 O 0.53843 0.32278 0.03106 0.0
Zn395 Zn 0.52196 0.30822 1.01035 0.0
O396 O 0.50108 0.29391 0.0312 0.0
O397 O 0.50338 0.2604 0.02822 0.0
O398 O 0.50564 0.32311 0.9897 0.0
O399 O 0.50374 0.28955 0.98634 0.0
O400 O 0.54028 0.2609 0.99235 0.0
O401 O 0.54266 0.29449 0.98935 0.0
C402 C 0.49534 0.27587 0.0366 0.0
C403 C 0.5483 0.27662 0.9839 0.0
C404 C 0.19442 0.39142 0.25907 0.0
C405 C 0.19278 0.36996 0.25964 0.0
C406 C 0.17846 0.4037 0.26326 0.0
C407 C 0.12546 0.40228 0.26151 0.0
H408 H 0.1298 0.45317 0.2933 0.0
C409 C 0.0693 0.46576 0.25348 0.0
C410 C 0.06375 0.47647 0.27218 0.0
C411 C 0.08432 0.45175 0.25441 0.0
C412 C 0.1283 0.43888 0.28462 0.0
H413 H 0.17299 0.3446 0.26517 0.0
H414 H 0.14529 0.36597 0.27274 0.0
H415 H 0.15772 0.43072 0.29075 0.0
H416 H 0.06962 0.48065 0.30664 0.0
H417 H 0.09616 0.45605 0.30824 0.0
H418 H 0.09615 0.41044 0.25522 0.0
C419 C 0.15889 0.37333 0.26891 0.0
C420 C 0.14435 0.42613 0.28294 0.0
C421 C 0.17484 0.36108 0.26478 0.0
C422 C 0.07352 0.47263 0.29197 0.0
C423 C 0.08877 0.45864 0.29285 0.0
C424 C 0.10949 0.41502 0.26311 0.0
C425 C 0.16045 0.39479 0.26804 0.0
C426 C 0.14318 0.4078 0.27111 0.0
C427 C 0.09433 0.44807 0.27403 0.0
C428 C 0.11079 0.43363 0.27437 0.0
H429 H 0.20807 0.39877 0.2554 0.0
H430 H 0.18013 0.42017 0.26223 0.0
H431 H 0.12406 0.38837 0.25213 0.0
H432 H 0.0621 0.46828 0.23795 0.0
H433 H 0.08839 0.44411 0.23955 0.0
C434 C 0.18057 0.66042 0.78156 0.0
C435 C 0.19285 0.66602 0.76435 0.0
C436 C 0.16424 0.64833 0.77772 0.0
C437 C 0.14291 0.61138 0.7392 0.0
H438 H 0.09583 0.62419 0.76963 0.0
C439 C 0.07213 0.56355 0.72951 0.0
C440 C 0.06301 0.55857 0.7493 0.0
C441 C 0.08725 0.57795 0.72902 0.0
C442 C 0.10888 0.62034 0.76106 0.0
H443 H 0.1977 0.66301 0.72962 0.0
H444 H 0.16902 0.64197 0.7229 0.0
H445 H 0.12381 0.64662 0.77336 0.0
H446 H 0.06245 0.56509 0.78397 0.0
H447 H 0.08855 0.58986 0.78307 0.0
H448 H 0.12798 0.58485 0.72724 0.0
C449 C 0.17211 0.64691 0.73938 0.0
C450 C 0.12493 0.63319 0.76324 0.0
C451 C 0.18844 0.65911 0.74321 0.0
C452 C 0.06911 0.56851 0.76842 0.0
C453 C 0.08403 0.58289 0.7679 0.0
C454 C 0.1268 0.59848 0.73703 0.0
C455 C 0.15975 0.64148 0.75659 0.0
C456 C 0.14227 0.62864 0.75272 0.0
C457 C 0.09336 0.58775 0.74825 0.0
C458 C 0.10974 0.60259 0.74833 0.0
H459 H 0.18342 0.66565 0.798 0.0
H460 H 0.15518 0.6442 0.79141 0.0
H461 H 0.15608 0.60739 0.73095 0.0
H462 H 0.06779 0.55615 0.71451 0.0
H463 H 0.0941 0.58145 0.7136 0.0
C464 C 0.85723 0.6585 0.28188 0.0
C465 C 0.85298 0.66625 0.2609 0.0
C466 C 0.8734 0.64619 0.28546 0.0
C467 C 0.92054 0.63373 0.26157 0.0
H468 H 0.91673 0.58359 0.29571 0.0
C469 C 0.97551 0.56961 0.254 0.0
C470 C 0.98155 0.55873 0.27272 0.0
C471 C 0.96072 0.58383 0.25508 0.0
C472 C 0.91812 0.59772 0.28645 0.0
H473 H 0.86255 0.6673 0.22731 0.0
H474 H 0.89053 0.6457 0.23348 0.0
H475 H 0.88892 0.60625 0.29268 0.0
H476 H 0.97675 0.55444 0.30737 0.0
H477 H 0.95063 0.57949 0.30926 0.0
H478 H 0.94956 0.62515 0.25502 0.0
C479 C 0.88146 0.64923 0.24722 0.0
C480 C 0.90218 0.61068 0.28467 0.0
C481 C 0.86527 0.66141 0.24362 0.0
C482 C 0.97245 0.56258 0.29267 0.0
C483 C 0.95745 0.57683 0.29372 0.0
C484 C 0.93642 0.62084 0.26336 0.0
C485 C 0.88577 0.64152 0.26819 0.0
C486 C 0.90309 0.6286 0.27179 0.0
C487 C 0.95145 0.58762 0.2749 0.0
C488 C 0.93528 0.60244 0.27539 0.0
H489 H 0.84796 0.66181 0.2955 0.0
H490 H 0.87636 0.64057 0.30182 0.0
H491 H 0.92187 0.64766 0.25194 0.0
H492 H 0.98215 0.56708 0.23833 0.0
H493 H 0.95626 0.59157 0.24019 0.0
C494 C 0.87008 0.36012 0.76181 0.0
C495 C 0.85954 0.35525 0.74286 0.0
C496 C 0.88484 0.37478 0.76114 0.0
C497 C 0.90447 0.41818 0.72858 0.0
H498 H 0.95116 0.40619 0.7612 0.0
C499 C 0.97328 0.46991 0.72542 0.0
C500 C 0.98187 0.47393 0.74581 0.0
C501 C 0.95855 0.45518 0.72357 0.0
C502 C 0.93818 0.40984 0.7521 0.0
H503 H 0.85584 0.36261 0.7085 0.0
H504 H 0.88181 0.38795 0.70727 0.0
H505 H 0.92473 0.38152 0.76121 0.0
H506 H 0.98177 0.46545 0.78017 0.0
H507 H 0.95634 0.44004 0.77691 0.0
H508 H 0.91804 0.44661 0.71957 0.0
C509 C 0.87859 0.38048 0.72268 0.0
C510 C 0.92299 0.39572 0.75217 0.0
C511 C 0.86383 0.3658 0.72334 0.0
C512 C 0.97554 0.46279 0.76418 0.0
C513 C 0.961 0.44807 0.76231 0.0
C514 C 0.91973 0.43234 0.72849 0.0
C515 C 0.88946 0.38496 0.74151 0.0
C516 C 0.90583 0.39981 0.74068 0.0
C517 C 0.9523 0.44406 0.74203 0.0
C518 C 0.93665 0.42844 0.74052 0.0
H519 H 0.8673 0.35219 0.77708 0.0
H520 H 0.8927 0.37808 0.77604 0.0
H521 H 0.89141 0.42188 0.71966 0.0
H522 H 0.9778 0.47825 0.71097 0.0
H523 H 0.95219 0.45234 0.70769 0.0
C524 C 0.24794 0.17597 0.33568 0.0
C525 C 0.24639 0.19577 0.34425 0.0
C526 C 0.24769 0.15881 0.34949 0.0
C527 C 0.23374 0.14175 0.40509 0.0
H528 H 0.26976 0.09792 0.39474 0.0
C529 C 0.23511 0.06748 0.45773 0.0
C530 C 0.25348 0.0606 0.46407 0.0
C531 C 0.23314 0.08313 0.44211 0.0
C532 C 0.25964 0.11005 0.39789 0.0
H533 H 0.24371 0.21305 0.37409 0.0
H534 H 0.24338 0.18316 0.39816 0.0
H535 H 0.26863 0.12711 0.36975 0.0
H536 H 0.28416 0.06473 0.45879 0.0
H537 H 0.28072 0.09196 0.43188 0.0
H538 H 0.2252 0.12496 0.43364 0.0
C539 C 0.24439 0.18085 0.38073 0.0
C540 C 0.25885 0.12669 0.38343 0.0
C541 C 0.24462 0.198 0.36693 0.0
C542 C 0.26978 0.06958 0.45429 0.0
C543 C 0.26781 0.08514 0.43871 0.0
C544 C 0.23453 0.12509 0.41956 0.0
C545 C 0.24591 0.16104 0.37219 0.0
C546 C 0.24605 0.14286 0.38698 0.0
C547 C 0.2495 0.09216 0.43245 0.0
C548 C 0.24766 0.10916 0.41628 0.0
H549 H 0.24905 0.17372 0.31826 0.0
H550 H 0.24865 0.14376 0.34235 0.0
H551 H 0.22354 0.15382 0.40815 0.0
H552 H 0.22227 0.06087 0.46492 0.0
H553 H 0.21882 0.08809 0.43749 0.0
C554 C 0.3642 0.7883 0.85567 0.0
C555 C 0.35721 0.77038 0.84569 0.0
C556 C 0.37911 0.78741 0.87112 0.0
C557 C 0.41922 0.7544 0.88976 0.0
H558 H 0.41867 0.78862 0.9411 0.0
C559 C 0.47264 0.74285 0.96107 0.0
C560 C 0.48069 0.7603 0.971 0.0
C561 C 0.45776 0.74467 0.94574 0.0
C562 C 0.41916 0.77915 0.92671 0.0
H563 H 0.36042 0.73743 0.84437 0.0
H564 H 0.38613 0.73582 0.87165 0.0
H565 H 0.39208 0.79036 0.91486 0.0
H566 H 0.47928 0.79339 0.97253 0.0
H567 H 0.45324 0.79658 0.94558 0.0
H568 H 0.44622 0.74311 0.90163 0.0
C569 C 0.38025 0.75063 0.86728 0.0
C570 C 0.4039 0.78013 0.91166 0.0
C571 C 0.36533 0.75151 0.85183 0.0
C572 C 0.47341 0.77965 0.96521 0.0
C573 C 0.45842 0.78146 0.94986 0.0
C574 C 0.43443 0.7534 0.9048 0.0
C575 C 0.38743 0.76858 0.87703 0.0
C576 C 0.40369 0.76769 0.89304 0.0
C577 C 0.45046 0.76397 0.9399 0.0
C578 C 0.43455 0.76567 0.92353 0.0
H579 H 0.35813 0.80307 0.85156 0.0
H580 H 0.38436 0.80156 0.87814 0.0
H581 H 0.41976 0.74491 0.87539 0.0
H582 H 0.47781 0.72768 0.96516 0.0
H583 H 0.45179 0.73086 0.93867 0.0
C584 C 0.78691 0.85241 0.35216 0.0
C585 C 0.80387 0.84208 0.34672 0.0
C586 C 0.78759 0.86949 0.3657 0.0
C587 C 0.8175 0.89447 0.40779 0.0
H588 H 0.78471 0.94097 0.39532 0.0
C589 C 0.81736 0.96715 0.46174 0.0
C590 C 0.79903 0.97469 0.46675 0.0
C591 C 0.81945 0.952 0.4459 0.0
C592 C 0.79388 0.92806 0.39911 0.0
H593 H 0.83493 0.84197 0.35094 0.0
H594 H 0.83607 0.87172 0.37469 0.0
H595 H 0.78536 0.91246 0.37001 0.0
H596 H 0.76855 0.97235 0.45882 0.0
H597 H 0.77218 0.94607 0.43158 0.0
H598 H 0.82575 0.90995 0.43711 0.0
C599 C 0.82222 0.86642 0.36867 0.0
C600 C 0.79423 0.91171 0.38461 0.0
C601 C 0.82155 0.84935 0.35507 0.0
C602 C 0.78291 0.96696 0.45539 0.0
C603 C 0.78499 0.95195 0.43961 0.0
C604 C 0.81712 0.91084 0.42234 0.0
C605 C 0.80524 0.87667 0.37416 0.0
C606 C 0.80582 0.89459 0.38893 0.0
C607 C 0.80325 0.94421 0.43469 0.0
C608 C 0.80507 0.92767 0.41834 0.0
H609 H 0.77302 0.84704 0.34632 0.0
H610 H 0.7742 0.87683 0.36991 0.0
H611 H 0.82645 0.88142 0.4117 0.0
H612 H 0.83006 0.97278 0.47019 0.0
H613 H 0.83373 0.94645 0.44236 0.0
C614 C 0.68152 0.29788 0.85792 0.0
C615 C 0.69361 0.28125 0.85364 0.0
C616 C 0.66518 0.29535 0.87085 0.0
C617 C 0.64358 0.26167 0.91303 0.0
H618 H 0.59718 0.29132 0.89768 0.0
C619 C 0.57279 0.25593 0.96351 0.0
C620 C 0.56407 0.27481 0.96782 0.0
C621 C 0.58798 0.25478 0.94858 0.0
C622 C 0.61005 0.283 0.90225 0.0
H623 H 0.69794 0.24886 0.85981 0.0
H624 H 0.6692 0.24437 0.88217 0.0
H625 H 0.62483 0.29293 0.87351 0.0
H626 H 0.56438 0.30722 0.9596 0.0
H627 H 0.5906 0.30518 0.93383 0.0
H628 H 0.62874 0.25194 0.94195 0.0
C629 C 0.67249 0.25943 0.87561 0.0
C630 C 0.62593 0.28396 0.88842 0.0
C631 C 0.68886 0.26197 0.86261 0.0
C632 C 0.57072 0.2924 0.95673 0.0
C633 C 0.5857 0.29122 0.94178 0.0
C634 C 0.62763 0.26067 0.92689 0.0
C635 C 0.66043 0.2761 0.87987 0.0
C636 C 0.64305 0.27365 0.89382 0.0
C637 C 0.59456 0.27244 0.93752 0.0
C638 C 0.61082 0.27167 0.92186 0.0
H639 H 0.68458 0.31289 0.85108 0.0
H640 H 0.65639 0.3086 0.87401 0.0
H641 H 0.65657 0.25365 0.91779 0.0
H642 H 0.56802 0.24209 0.97179 0.0
H643 H 0.59445 0.24006 0.94556 0.0
C644 C 0.24623 0.83758 0.65204 0.0
C645 C 0.24797 0.83999 0.67474 0.0
C646 C 0.24604 0.85462 0.63809 0.0
C647 C 0.26035 0.90909 0.63525 0.0
H648 H 0.22672 0.9098 0.58442 0.0
C649 C 0.27067 0.96654 0.56452 0.0
C650 C 0.25425 0.97496 0.55442 0.0
C651 C 0.26891 0.9509 0.58006 0.0
C652 C 0.23605 0.90995 0.59867 0.0
H653 H 0.25061 0.86228 0.70059 0.0
H654 H 0.25025 0.89206 0.67625 0.0
H655 H 0.22522 0.88103 0.61004 0.0
H656 H 0.22305 0.97362 0.55294 0.0
H657 H 0.21997 0.94632 0.58029 0.0
H658 H 0.27107 0.93808 0.62401 0.0
C659 C 0.2493 0.87694 0.66921 0.0
C660 C 0.23536 0.89334 0.61321 0.0
C661 C 0.24952 0.85988 0.68316 0.0
C662 C 0.23599 0.96745 0.56037 0.0
C663 C 0.23423 0.95174 0.57596 0.0
C664 C 0.26105 0.92568 0.62071 0.0
C665 C 0.24755 0.87452 0.6465 0.0
C666 C 0.24765 0.89261 0.63156 0.0
C667 C 0.25069 0.94326 0.58595 0.0
C668 C 0.24906 0.92621 0.60211 0.0
H669 H 0.24532 0.82246 0.64499 0.0
H670 H 0.24504 0.85217 0.62067 0.0
H671 H 0.27012 0.90896 0.64911 0.0
H672 H 0.28498 0.97189 0.56031 0.0
H673 H 0.28191 0.94452 0.58715 0.0
C674 C 0.68144 0.75241 0.17524 0.0
C675 C 0.68968 0.77134 0.18103 0.0
C676 C 0.66629 0.75145 0.16008 0.0
C677 C 0.64207 0.78103 0.11582 0.0
H678 H 0.5999 0.74321 0.12688 0.0
C679 C 0.57195 0.77991 0.06334 0.0
C680 C 0.56466 0.76049 0.05779 0.0
C681 C 0.58709 0.78183 0.07848 0.0
C682 C 0.61164 0.75373 0.12343 0.0
H683 H 0.68872 0.80408 0.17485 0.0
H684 H 0.66209 0.80243 0.14879 0.0
H685 H 0.62669 0.74518 0.15268 0.0
H686 H 0.56764 0.72786 0.06388 0.0
H687 H 0.59391 0.73122 0.09002 0.0
H688 H 0.62693 0.78957 0.08655 0.0
C689 C 0.66742 0.78829 0.15585 0.0
C690 C 0.62704 0.75483 0.13822 0.0
C691 C 0.68256 0.78925 0.17101 0.0
C692 C 0.57282 0.74308 0.06778 0.0
C693 C 0.58784 0.745 0.08291 0.0
C694 C 0.62663 0.77995 0.10103 0.0
C695 C 0.659 0.76939 0.15029 0.0
C696 C 0.64252 0.7684 0.13456 0.0
C697 C 0.59518 0.76437 0.08848 0.0
C698 C 0.61128 0.76618 0.10459 0.0
H699 H 0.68644 0.73833 0.18274 0.0
H700 H 0.66034 0.7366 0.15597 0.0
H701 H 0.65385 0.79149 0.11233 0.0
H702 H 0.56601 0.79363 0.05596 0.0
H703 H 0.5923 0.79699 0.08255 0.0
C704 C 0.79891 0.17158 0.6865 0.0
C705 C 0.78004 0.17844 0.69002 0.0
C706 C 0.80273 0.15766 0.66987 0.0
C707 C 0.78225 0.13777 0.61832 0.0
H708 H 0.81441 0.09049 0.62959 0.0
C709 C 0.7775 0.06645 0.56564 0.0
C710 C 0.79454 0.05677 0.55924 0.0
C711 C 0.77798 0.08214 0.58084 0.0
C712 C 0.80565 0.10379 0.6261 0.0
H713 H 0.75047 0.17629 0.67859 0.0
H714 H 0.75704 0.15188 0.64994 0.0
H715 H 0.81099 0.11658 0.65769 0.0
H716 H 0.82548 0.05586 0.56413 0.0
H717 H 0.82628 0.08344 0.59111 0.0
H718 H 0.77652 0.12484 0.587 0.0
C719 C 0.76894 0.15734 0.65987 0.0
C720 C 0.80368 0.11872 0.64217 0.0
C721 C 0.76512 0.17115 0.67649 0.0
C722 C 0.81212 0.06303 0.5687 0.0
C723 C 0.81257 0.07875 0.58416 0.0
C724 C 0.78419 0.12289 0.60233 0.0
C725 C 0.78778 0.15045 0.65632 0.0
C726 C 0.79157 0.13563 0.63863 0.0
C727 C 0.79549 0.0886 0.59018 0.0
C728 C 0.79552 0.10549 0.60623 0.0
H729 H 0.8107 0.1768 0.69675 0.0
H730 H 0.81741 0.15272 0.66748 0.0
H731 H 0.77319 0.15085 0.61486 0.0
H732 H 0.76367 0.06205 0.55878 0.0
H733 H 0.76453 0.08914 0.58544 0.0
C734 C 0.36132 0.24719 0.16467 0.0
C735 C 0.35511 0.2652 0.17478 0.0
C736 C 0.37632 0.24775 0.14956 0.0
C737 C 0.41798 0.2796 0.13251 0.0
H738 H 0.41638 0.2461 0.08062 0.0
C739 C 0.47185 0.29095 0.06254 0.0
C740 C 0.47945 0.27352 0.05254 0.0
C741 C 0.45689 0.28918 0.07753 0.0
C742 C 0.41715 0.25535 0.09517 0.0
H743 H 0.35977 0.29799 0.17666 0.0
H744 H 0.38562 0.29906 0.14998 0.0
H745 H 0.38955 0.24483 0.10615 0.0
H746 H 0.47714 0.24048 0.05048 0.0
H747 H 0.45088 0.23737 0.07682 0.0
H748 H 0.44549 0.29023 0.12149 0.0
C749 C 0.37907 0.28441 0.15398 0.0
C750 C 0.40176 0.25465 0.10981 0.0
C751 C 0.36407 0.28385 0.16909 0.0
C752 C 0.47163 0.25421 0.05789 0.0
C753 C 0.45653 0.25244 0.07288 0.0
C754 C 0.43332 0.28033 0.11788 0.0
C755 C 0.38551 0.26635 0.14415 0.0
C756 C 0.40193 0.26687 0.1286 0.0
C757 C 0.44904 0.26993 0.08294 0.0
C758 C 0.43305 0.26833 0.09895 0.0
H759 H 0.35458 0.23259 0.16843 0.0
H760 H 0.38096 0.23352 0.14246 0.0
H761 H 0.41882 0.28889 0.14703 0.0
H762 H 0.47745 0.30609 0.05881 0.0
H763 H 0.45129 0.30299 0.08467 0.0
C764 C 0.86282 0.66105 0.80963 0.0
C765 C 0.85582 0.66892 0.78966 0.0
C766 C 0.87906 0.6485 0.81032 0.0
C767 C 0.92172 0.63354 0.77832 0.0
H768 H 0.92057 0.58477 0.81489 0.0
C769 C 0.97502 0.56764 0.76713 0.0
C770 C 0.98236 0.55743 0.78568 0.0
C771 C 0.96052 0.58217 0.769 0.0
C772 C 0.92127 0.59848 0.80485 0.0
H773 H 0.86057 0.66971 0.75473 0.0
H774 H 0.8889 0.64792 0.75593 0.0
H775 H 0.89358 0.60845 0.8154 0.0
H776 H 0.98021 0.55468 0.82085 0.0
H777 H 0.9548 0.58026 0.82416 0.0
H778 H 0.94929 0.62348 0.76757 0.0
C779 C 0.88195 0.65166 0.77112 0.0
C780 C 0.90577 0.61206 0.80512 0.0
C781 C 0.8657 0.66419 0.77043 0.0
C782 C 0.97488 0.56225 0.80624 0.0
C783 C 0.96026 0.57683 0.80811 0.0
C784 C 0.9372 0.61999 0.77806 0.0
C785 C 0.88877 0.64354 0.79106 0.0
C786 C 0.90569 0.62964 0.79165 0.0
C787 C 0.9529 0.58696 0.78948 0.0
C788 C 0.93706 0.60213 0.79109 0.0
H789 H 0.85579 0.66466 0.82481 0.0
H790 H 0.88409 0.64279 0.82599 0.0
H791 H 0.92232 0.64712 0.76806 0.0
H792 H 0.98037 0.56432 0.751 0.0
H793 H 0.95501 0.58939 0.75427 0.0
C794 C 0.86672 0.36739 0.25274 0.0
C795 C 0.85573 0.36287 0.23401 0.0
C796 C 0.88314 0.37986 0.25133 0.0
C797 C 0.90579 0.41973 0.21659 0.0
H798 H 0.95097 0.4079 0.2519 0.0
C799 C 0.97517 0.47027 0.21378 0.0
C800 C 0.98333 0.47492 0.23423 0.0
C801 C 0.96051 0.45544 0.21204 0.0
C802 C 0.93843 0.4115 0.24201 0.0
H803 H 0.85385 0.36748 0.19895 0.0
H804 H 0.88244 0.38926 0.19652 0.0
H805 H 0.92369 0.38422 0.25231 0.0
H806 H 0.98261 0.46736 0.26881 0.0
H807 H 0.95724 0.44186 0.26576 0.0
H808 H 0.92046 0.4472 0.20657 0.0
C809 C 0.87817 0.38342 0.21237 0.0
C810 C 0.92277 0.39792 0.24228 0.0
C811 C 0.86176 0.37092 0.21378 0.0
C812 C 0.97671 0.46421 0.25276 0.0
C813 C 0.96221 0.44942 0.25102 0.0
C814 C 0.92147 0.43334 0.21634 0.0
C815 C 0.88901 0.38815 0.23114 0.0
C816 C 0.90613 0.402 0.22982 0.0
C817 C 0.95384 0.44487 0.23068 0.0
C818 C 0.93787 0.42955 0.22932 0.0
H819 H 0.86236 0.36172 0.26863 0.0
H820 H 0.89097 0.38343 0.26618 0.0
H821 H 0.89313 0.42347 0.20696 0.0
H822 H 0.97992 0.47823 0.19919 0.0
H823 H 0.95445 0.45219 0.1961 0.0
C824 C 0.18201 0.3678 0.80354 0.0
C825 C 0.18892 0.36124 0.78327 0.0
C826 C 0.1657 0.38017 0.8047 0.0
C827 C 0.12279 0.397 0.77311 0.0
H828 H 0.12406 0.44333 0.8122 0.0
C829 C 0.06941 0.46354 0.76488 0.0
C830 C 0.06216 0.47252 0.78387 0.0
C831 C 0.0839 0.44888 0.76613 0.0
C832 C 0.12333 0.43029 0.80144 0.0
H833 H 0.18393 0.36253 0.74832 0.0
H834 H 0.15548 0.38404 0.75034 0.0
H835 H 0.1511 0.41972 0.81172 0.0
H836 H 0.06446 0.47292 0.81916 0.0
H837 H 0.08985 0.44713 0.82136 0.0
H838 H 0.09514 0.4077 0.76263 0.0
C839 C 0.16254 0.37941 0.76538 0.0
C840 C 0.13885 0.41675 0.80114 0.0
C841 C 0.17888 0.36705 0.76422 0.0
C842 C 0.06972 0.46633 0.80422 0.0
C843 C 0.08433 0.45163 0.80547 0.0
C844 C 0.10728 0.41053 0.77341 0.0
C845 C 0.15583 0.38626 0.78563 0.0
C846 C 0.13888 0.40007 0.78678 0.0
C847 C 0.0916 0.44275 0.7864 0.0
C848 C 0.10746 0.42751 0.78736 0.0
H849 H 0.18918 0.36332 0.81858 0.0
H850 H 0.16075 0.38487 0.82059 0.0
H851 H 0.12215 0.38411 0.76214 0.0
H852 H 0.064 0.46792 0.7489 0.0
H853 H 0.08934 0.44265 0.7511 0.0
C854 C 0.16568 0.68012 0.26975 0.0
C855 C 0.17751 0.68723 0.25273 0.0
C856 C 0.15111 0.66575 0.2658 0.0
C857 C 0.13507 0.62572 0.22742 0.0
H858 H 0.08656 0.63198 0.25746 0.0
C859 C 0.06982 0.5692 0.21768 0.0
C860 C 0.06127 0.56316 0.23748 0.0
C861 C 0.08352 0.58515 0.21719 0.0
C862 C 0.10004 0.62996 0.249 0.0
H863 H 0.18322 0.68464 0.21812 0.0
H864 H 0.15774 0.65941 0.21125 0.0
H865 H 0.11146 0.65817 0.26108 0.0
H866 H 0.06042 0.56926 0.27224 0.0
H867 H 0.08401 0.59673 0.27133 0.0
H868 H 0.12359 0.59727 0.2156 0.0
C869 C 0.15989 0.66492 0.22771 0.0
C870 C 0.11434 0.64496 0.25112 0.0
C871 C 0.1745 0.67937 0.23166 0.0
C872 C 0.06664 0.57346 0.25666 0.0
C873 C 0.08011 0.58937 0.25614 0.0
C874 C 0.12069 0.61067 0.22528 0.0
C875 C 0.14793 0.65804 0.24473 0.0
C876 C 0.1322 0.64283 0.24077 0.0
C877 C 0.08871 0.59547 0.23644 0.0
C878 C 0.10318 0.61241 0.23646 0.0
H879 H 0.16784 0.68546 0.28627 0.0
H880 H 0.14247 0.66046 0.2794 0.0
H881 H 0.14869 0.62356 0.2193 0.0
H882 H 0.06604 0.56155 0.20263 0.0
H883 H 0.08987 0.58955 0.20174 0.0
C884 C 0.78721 0.83847 0.65749 0.0
C885 C 0.77362 0.83364 0.67368 0.0
C886 C 0.78389 0.85433 0.6425 0.0
C887 C 0.75485 0.90116 0.63315 0.0
H888 H 0.77365 0.89531 0.57415 0.0
C889 C 0.74606 0.96332 0.56409 0.0
C890 C 0.76344 0.96816 0.5535 0.0
C891 C 0.74496 0.94643 0.57842 0.0
C892 C 0.7683 0.89717 0.59057 0.0
H893 H 0.74583 0.842 0.68671 0.0
H894 H 0.73981 0.86931 0.66012 0.0
H895 H 0.776 0.86665 0.59968 0.0
H896 H 0.79314 0.95883 0.54944 0.0
H897 H 0.79108 0.92953 0.57394 0.0
H898 H 0.74719 0.93183 0.62377 0.0
C899 C 0.75318 0.86096 0.65925 0.0
C900 C 0.76975 0.88078 0.60527 0.0
C901 C 0.75655 0.84511 0.67436 0.0
C902 C 0.77953 0.95564 0.55734 0.0
C903 C 0.77834 0.93872 0.5713 0.0
C904 C 0.75324 0.91755 0.6183 0.0
C905 C 0.76681 0.86576 0.64307 0.0
C906 C 0.7635 0.88268 0.62694 0.0
C907 C 0.76109 0.93389 0.58202 0.0
C908 C 0.76039 0.91587 0.59702 0.0
H909 H 0.8004 0.82985 0.65621 0.0
H910 H 0.7949 0.85775 0.63056 0.0
H911 H 0.74999 0.90326 0.64971 0.0
H912 H 0.73343 0.97269 0.5615 0.0
H913 H 0.73147 0.94302 0.58648 0.0
C914 C 0.66266 0.27804 0.18344 0.0
C915 C 0.67576 0.29336 0.18991 0.0
C916 C 0.64806 0.28232 0.16835 0.0
C917 C 0.63377 0.31774 0.12415 0.0
H918 H 0.58344 0.29341 0.13407 0.0
C919 C 0.56864 0.32726 0.06395 0.0
C920 C 0.55922 0.30873 0.05898 0.0
C921 C 0.58227 0.3281 0.08098 0.0
C922 C 0.59742 0.3003 0.13104 0.0
H923 H 0.68379 0.32527 0.18536 0.0
H924 H 0.65826 0.33271 0.15877 0.0
H925 H 0.60861 0.2897 0.16168 0.0
H926 H 0.55654 0.27666 0.06824 0.0
H927 H 0.58 0.27817 0.09763 0.0
H928 H 0.62254 0.32798 0.09322 0.0
C929 C 0.65941 0.31734 0.1654 0.0
C930 C 0.61186 0.29813 0.14684 0.0
C931 C 0.67405 0.31306 0.1806 0.0
C932 C 0.5635 0.29121 0.07156 0.0
C933 C 0.57688 0.29209 0.08857 0.0
C934 C 0.61926 0.31993 0.10828 0.0
C935 C 0.64614 0.30205 0.15925 0.0
C936 C 0.63035 0.30635 0.14335 0.0
C937 C 0.58647 0.31048 0.09349 0.0
C938 C 0.60108 0.31076 0.11134 0.0
H939 H 0.66381 0.26259 0.18985 0.0
H940 H 0.63837 0.27006 0.16359 0.0
H941 H 0.64789 0.3242 0.12095 0.0
H942 H 0.56569 0.34101 0.05453 0.0
H943 H 0.58942 0.3425 0.08445 0.0
C944 C 0.29105 0.19367 0.66144 0.0
C945 C 0.27284 0.19649 0.67083 0.0
C946 C 0.29462 0.17663 0.64839 0.0
C947 C 0.27577 0.12461 0.636 0.0
H948 H 0.30353 0.13128 0.58169 0.0
C949 C 0.2697 0.06638 0.56689 0.0
C950 C 0.2862 0.06129 0.55501 0.0
C951 C 0.2703 0.08196 0.58229 0.0
C952 C 0.29602 0.12909 0.59697 0.0
H953 H 0.24424 0.1833 0.67411 0.0
H954 H 0.2503 0.15397 0.65111 0.0
H955 H 0.30025 0.16041 0.6061 0.0
H956 H 0.31639 0.06856 0.5502 0.0
H957 H 0.3174 0.09608 0.57721 0.0
H958 H 0.27115 0.09347 0.62667 0.0
C959 C 0.26192 0.16478 0.65397 0.0
C960 C 0.29412 0.14579 0.61097 0.0
C961 C 0.25835 0.18179 0.66694 0.0
C962 C 0.30344 0.07208 0.5591 0.0
C963 C 0.30399 0.0879 0.57447 0.0
C964 C 0.27763 0.10798 0.62202 0.0
C965 C 0.2801 0.16195 0.64451 0.0
C966 C 0.28362 0.14386 0.63045 0.0
C967 C 0.28739 0.09301 0.58622 0.0
C968 C 0.28742 0.11011 0.60212 0.0
H969 H 0.3025 0.20477 0.66393 0.0
H970 H 0.30882 0.17487 0.64149 0.0
H971 H 0.268 0.12241 0.6511 0.0
H972 H 0.25616 0.05841 0.56423 0.0
H973 H 0.25718 0.08566 0.59079 0.0
C974 C 0.36263 0.70397 0.16997 0.0
C975 C 0.35653 0.723 0.17783 0.0
C976 C 0.37906 0.7026 0.15701 0.0
C977 C 0.42359 0.7307 0.14186 0.0
H978 H 0.42153 0.69727 0.08993 0.0
C979 C 0.47731 0.74107 0.07187 0.0
C980 C 0.48402 0.72373 0.06094 0.0
C981 C 0.46289 0.73929 0.0875 0.0
C982 C 0.42247 0.70641 0.10456 0.0
H983 H 0.36297 0.75553 0.17807 0.0
H984 H 0.39162 0.75314 0.15559 0.0
H985 H 0.39414 0.69747 0.11467 0.0
H986 H 0.48094 0.69081 0.05813 0.0
H987 H 0.45563 0.68768 0.08563 0.0
H988 H 0.45177 0.73989 0.13162 0.0
C989 C 0.38385 0.73921 0.1597 0.0
C990 C 0.40676 0.70655 0.11873 0.0
C991 C 0.36741 0.74059 0.17261 0.0
C992 C 0.47609 0.70446 0.06625 0.0
C993 C 0.46153 0.70269 0.0819 0.0
C994 C 0.43928 0.73055 0.12773 0.0
C995 C 0.38983 0.72022 0.15165 0.0
C996 C 0.40701 0.71895 0.13737 0.0
C997 C 0.45473 0.72012 0.09265 0.0
C998 C 0.43878 0.71869 0.1087 0.0
H999 H 0.35478 0.69006 0.17395 0.0
H1000 H 0.38342 0.6877 0.15133 0.0
H1001 H 0.42442 0.7401 0.1563 0.0
H1002 H 0.48305 0.75617 0.06822 0.0
H1003 H 0.4578 0.75307 0.09518 0.0
C1004 C 0.75696 0.19192 0.35908 0.0
C1005 C 0.77552 0.19728 0.35177 0.0
C1006 C 0.75424 0.17533 0.37346 0.0
C1007 C 0.78077 0.14409 0.41408 0.0
H1008 H 0.7395 0.10437 0.40657 0.0
C1009 C 0.78228 0.06731 0.4592 0.0
C1010 C 0.76525 0.05963 0.46862 0.0
C1011 C 0.78189 0.08415 0.44509 0.0
C1012 C 0.75094 0.11549 0.40905 0.0
H1013 H 0.80563 0.18872 0.35321 0.0
H1014 H 0.80092 0.16007 0.37826 0.0
H1015 H 0.74191 0.13379 0.38158 0.0
H1016 H 0.7343 0.06343 0.46998 0.0
H1017 H 0.73363 0.0932 0.44519 0.0
H1018 H 0.78991 0.12593 0.44136 0.0
C1019 C 0.7885 0.16891 0.37325 0.0
C1020 C 0.75233 0.13233 0.39473 0.0
C1021 C 0.7912 0.18539 0.35888 0.0
C1022 C 0.74767 0.06897 0.46303 0.0
C1023 C 0.74729 0.08598 0.4488 0.0
C1024 C 0.77936 0.12737 0.42833 0.0
C1025 C 0.77002 0.16378 0.3809 0.0
C1026 C 0.76751 0.14661 0.39684 0.0
C1027 C 0.76448 0.09396 0.43997 0.0
C1028 C 0.76468 0.11262 0.42576 0.0
H1029 H 0.74457 0.20083 0.3541 0.0
H1030 H 0.73984 0.17187 0.37915 0.0
H1031 H 0.79234 0.15505 0.41653 0.0
H1032 H 0.79608 0.0604 0.46286 0.0
H1033 H 0.79534 0.08953 0.43818 0.0
C1034 C 0.38248 0.27997 0.83615 0.0
C1035 C 0.36913 0.29503 0.82989 0.0
C1036 C 0.397 0.28428 0.85132 0.0
C1037 C 0.41063 0.3187 0.89612 0.0
H1038 H 0.46131 0.2963 0.88602 0.0
C1039 C 0.47542 0.32798 0.95685 0.0
C1040 C 0.48491 0.3095 0.96159 0.0
C1041 C 0.46189 0.32906 0.93973 0.0
C1042 C 0.44723 0.30266 0.88909 0.0
H1043 H 0.36056 0.32648 0.83493 0.0
H1044 H 0.38595 0.33397 0.86167 0.0
H1045 H 0.4363 0.29278 0.85821 0.0
H1046 H 0.48785 0.27782 0.95182 0.0
H1047 H 0.46456 0.27977 0.92226 0.0
H1048 H 0.42162 0.3282 0.92729 0.0
C1049 C 0.38506 0.31878 0.8548 0.0
C1050 C 0.43289 0.30059 0.87319 0.0
C1051 C 0.37051 0.31447 0.83951 0.0
C1052 C 0.48082 0.29231 0.94869 0.0
C1053 C 0.46754 0.29345 0.93159 0.0
C1054 C 0.42506 0.3208 0.91209 0.0
C1055 C 0.39857 0.30376 0.86073 0.0
C1056 C 0.41427 0.30809 0.87673 0.0
C1057 C 0.45787 0.31178 0.9269 0.0
C1058 C 0.44336 0.31229 0.90896 0.0
H1059 H 0.38159 0.26469 0.8295 0.0
H1060 H 0.40687 0.2722 0.85591 0.0
H1061 H 0.39641 0.3246 0.89938 0.0
H1062 H 0.47823 0.34147 0.96653 0.0
H1063 H 0.45466 0.34341 0.93645 0.0
C1064 C 0.27621 0.85492 0.34769 0.0
C1065 C 0.29345 0.84648 0.34006 0.0
C1066 C 0.27656 0.8711 0.36248 0.0
C1067 C 0.30731 0.89695 0.40353 0.0
H1068 H 0.27103 0.94121 0.39536 0.0
C1069 C 0.30696 0.96924 0.45862 0.0
C1070 C 0.2887 0.97612 0.46492 0.0
C1071 C 0.30868 0.95394 0.44283 0.0
C1072 C 0.28116 0.92889 0.39801 0.0
H1073 H 0.32462 0.84872 0.34204 0.0
H1074 H 0.32518 0.87676 0.36801 0.0
H1075 H 0.27166 0.91341 0.36922 0.0
H1076 H 0.25794 0.97215 0.45954 0.0
H1077 H 0.26095 0.94562 0.43246 0.0
H1078 H 0.31664 0.91238 0.43252 0.0
C1079 C 0.31139 0.8707 0.36267 0.0
C1080 C 0.28151 0.91293 0.38301 0.0
C1081 C 0.31105 0.85457 0.34779 0.0
C1082 C 0.27227 0.96735 0.45507 0.0
C1083 C 0.27399 0.95218 0.43937 0.0
C1084 C 0.30693 0.91293 0.41861 0.0
C1085 C 0.29415 0.87924 0.37012 0.0
C1086 C 0.29442 0.89662 0.3857 0.0
C1087 C 0.29218 0.94528 0.43296 0.0
C1088 C 0.29366 0.92897 0.41619 0.0
H1089 H 0.26239 0.84888 0.34243 0.0
H1090 H 0.26301 0.87706 0.36816 0.0
H1091 H 0.31735 0.88454 0.40619 0.0
H1092 H 0.3199 0.97565 0.46587 0.0
H1093 H 0.32293 0.94907 0.43817 0.0
C1094 C 0.66338 0.75361 0.84251 0.0
C1095 C 0.67603 0.73802 0.8364 0.0
C1096 C 0.64888 0.74979 0.85768 0.0
C1097 C 0.63423 0.71522 0.90252 0.0
H1098 H 0.58451 0.74032 0.89222 0.0
C1099 C 0.56926 0.70688 0.96215 0.0
C1100 C 0.56029 0.72551 0.96697 0.0
C1101 C 0.58284 0.70588 0.94535 0.0
C1102 C 0.59832 0.73323 0.89536 0.0
H1103 H 0.68338 0.70614 0.84168 0.0
H1104 H 0.65799 0.69947 0.86836 0.0
H1105 H 0.60941 0.74328 0.8646 0.0
H1106 H 0.55843 0.75762 0.95773 0.0
H1107 H 0.58182 0.75582 0.92868 0.0
H1108 H 0.62307 0.70547 0.93352 0.0
C1109 C 0.65942 0.7147 0.86141 0.0
C1110 C 0.61261 0.73497 0.87956 0.0
C1111 C 0.67398 0.71853 0.84614 0.0
C1112 C 0.56503 0.743 0.95451 0.0
C1113 C 0.57837 0.74195 0.93771 0.0
C1114 C 0.61985 0.71344 0.91837 0.0
C1115 C 0.6466 0.73026 0.8672 0.0
C1116 C 0.6309 0.72645 0.88316 0.0
C1117 C 0.58746 0.72343 0.93291 0.0
C1118 C 0.60191 0.72289 0.91516 0.0
H1119 H 0.66482 0.76892 0.83576 0.0
H1120 H 0.63957 0.76226 0.86216 0.0
H1121 H 0.64818 0.70854 0.90583 0.0
H1122 H 0.56595 0.69315 0.97148 0.0
H1123 H 0.58959 0.69137 0.94196 0.0
loop_
_geom_bond_atom_site_label_1
_geom_bond_atom_site_label_2
_geom_bond_distance
_geom_bond_site_symmetry_2
_ccdc_geom_bond_type
C0 C1 1.264 . S
C0 C5 1.479 . S
C0 C10 1.465 . S
C1 C0 1.264 . S
C1 C3 1.339 . S
C1 H28 0.931 . S
C2 C3 1.395 . S
C2 C4 1.320 . S
C3 C1 1.339 . S
C3 C2 1.395 . S
C3 H29 0.929 . S
C4 C2 1.320 . S
C4 C5 1.405 . S
C4 H30 0.930 . S
C5 C0 1.479 . S
C5 C4 1.405 . S
C5 H31 0.931 . S
U6 O7 2.454 . S
U6 O8 2.458 . S
U6 C9 2.984 . S
U6 C10 2.847 . S
U6 C23 2.882 . S
U6 O24 2.441 . S
U6 O25 2.420 . S
U6 O26 2.455 . S
U6 O27 2.449 . S
O7 U6 2.454 . S
O7 C9 1.353 . S
O8 U6 2.458 . S
O8 C9 1.286 . S
C9 U6 2.984 . S
C9 O7 1.353 . S
C9 O8 1.286 . S
C9 C11 1.363 . S
C10 C0 1.465 . S
C10 U6 2.847 . S
C10 O24 1.249 . S
C10 O25 1.202 . S
C11 C9 1.363 . S
C11 C13 1.408 . S
C11 C16 1.342 . S
C12 C13 1.310 . S
C12 C15 1.461 . S
C12 H32 0.932 . S
C13 C11 1.408 . S
C13 C12 1.310 . S
C13 H33 0.930 . S
C14 C15 1.474 . S
C14 C16 1.285 . S
C14 H34 0.929 . S
C15 C12 1.461 . S
C15 C14 1.474 . S
C16 C11 1.342 . S
C16 C14 1.285 . S
C16 H35 0.930 . S
C17 C20 1.424 . S
C17 C22 1.245 . S
C17 C23 1.428 . S
C18 C21 1.260 . S
C18 C22 1.477 . S
C18 H36 0.932 . S
C19 C20 1.384 . S
C19 C21 1.479 . S
C19 H37 0.929 . S
C20 C17 1.424 . S
C20 C19 1.384 . S
C20 H38 0.928 . S
C21 C18 1.260 . S
C21 C19 1.479 . S
C22 C17 1.245 . S
C22 C18 1.477 . S
C22 H39 0.932 . S
C23 U6 2.882 . S
C23 C17 1.428 . S
C23 O26 1.301 . S
C23 O27 1.282 . S
O24 U6 2.441 . S
O24 C10 1.249 . S
O25 U6 2.420 . S
O25 C10 1.202 . S
O26 U6 2.455 . S
O26 C23 1.301 . S
O27 U6 2.449 . S
O27 C23 1.282 . S
H28 C1 0.931 . S
H29 C3 0.929 . S
H30 C4 0.930 . S
H31 C5 0.931 . S
H32 C12 0.932 . S
H33 C13 0.930 . S
H34 C14 0.929 . S
H35 C16 0.930 . S
H36 C18 0.932 . S
H37 C19 0.929 . S
H38 C20 0.928 . S
H39 C22 0.932 . S
C40 C41 1.264 . S
C40 C45 1.479 . S
C40 C50 1.465 . S
C41 C40 1.264 . S
C41 C43 1.339 . S
C41 H68 0.931 . S
C42 C43 1.395 . S
C42 C44 1.320 . S
C43 C41 1.339 . S
C43 C42 1.395 . S
C43 H69 0.929 . S
C44 C42 1.320 . S
C44 C45 1.405 . S
C44 H70 0.930 . S
C45 C40 1.479 . S
C45 C44 1.405 . S
C45 H71 0.931 . S
U46 O47 2.454 . S
U46 O48 2.458 . S
U46 C49 2.984 . S
U46 C50 2.847 . S
U46 C63 2.882 . S
U46 O64 2.441 . S
U46 O65 2.420 . S
U46 O66 2.455 . S
U46 O67 2.449 . S
O47 U46 2.454 . S
O47 C49 1.353 . S
O48 U46 2.458 . S
O48 C49 1.286 . S
C49 U46 2.984 . S
C49 O47 1.353 . S
C49 O48 1.286 . S
C49 C51 1.363 . S
C50 C40 1.465 . S
C50 U46 2.847 . S
C50 O64 1.249 . S
C50 O65 1.202 . S
C51 C49 1.363 . S
C51 C53 1.408 . S
C51 C56 1.342 . S
C52 C53 1.310 . S
C52 C55 1.461 . S
C52 H72 0.932 . S
C53 C51 1.408 . S
C53 C52 1.310 . S
C53 H73 0.930 . S
C54 C55 1.474 . S
C54 C56 1.285 . S
C54 H74 0.929 . S
C55 C52 1.461 . S
C55 C54 1.474 . S
C56 C51 1.342 . S
C56 C54 1.285 . S
C56 H75 0.930 . S
C57 C60 1.424 . S
C57 C62 1.245 . S
C57 C63 1.428 . S
C58 C61 1.260 . S
C58 C62 1.477 . S
C58 H76 0.932 . S
C59 C60 1.384 . S
C59 C61 1.479 . S
C59 H77 0.929 . S
C60 C57 1.424 . S
C60 C59 1.384 . S
C60 H78 0.928 . S
C61 C58 1.260 . S
C61 C59 1.479 . S
C62 C57 1.245 . S
C62 C58 1.477 . S
C62 H79 0.932 . S
C63 U46 2.882 . S
C63 C57 1.428 . S
C63 O66 1.301 . S
C63 O67 1.282 . S
O64 U46 2.441 . S
O64 C50 1.249 . S
O65 U46 2.420 . S
O65 C50 1.202 . S
O66 U46 2.455 . S
O66 C63 1.301 . S
O67 U46 2.449 . S
O67 C63 1.282 . S
H68 C41 0.931 . S
H69 C43 0.929 . S
H70 C44 0.930 . S
H71 C45 0.931 . S
H72 C52 0.932 . S
H73 C53 0.930 . S
H74 C54 0.929 . S
H75 C56 0.930 . S
H76 C58 0.932 . S
H77 C59 0.929 . S
H78 C60 0.928 . S
H79 C62 0.932 . S
C80 C81 1.264 . S
C80 C85 1.479 . S
C80 C90 1.465 . S
C81 C80 1.264 . S
C81 C83 1.339 . S
C81 H108 0.931 . S
C82 C83 1.395 . S
C82 C84 1.320 . S
C83 C81 1.339 . S
C83 C82 1.395 . S
C83 H109 0.929 . S
C84 C82 1.320 . S
C84 C85 1.405 . S
C84 H110 0.930 . S
C85 C80 1.479 . S
C85 C84 1.405 . S
C85 H111 0.931 . S
U86 O87 2.454 . S
U86 O88 2.458 . S
U86 C89 2.984 . S
U86 C90 2.847 . S
U86 C103 2.882 . S
U86 O104 2.441 . S
U86 O105 2.420 . S
U86 O106 2.455 . S
U86 O107 2.449 . S
O87 U86 2.454 . S
O87 C89 1.353 . S
O88 U86 2.458 . S
O88 C89 1.286 . S
C89 U86 2.984 . S
C89 O87 1.353 . S
C89 O88 1.286 . S
C89 C91 1.363 . S
C90 C80 1.465 . S
C90 U86 2.847 . S
C90 O104 1.249 . S
C90 O105 1.202 . S
C91 C89 1.363 . S
C91 C93 1.408 . S
C91 C96 1.342 . S
C92 C93 1.310 . S
C92 C95 1.461 . S
C92 H112 0.932 . S
C93 C91 1.408 . S
C93 C92 1.310 . S
C93 H113 0.930 . S
C94 C95 1.474 . S
C94 C96 1.285 . S
C94 H114 0.929 . S
C95 C92 1.461 . S
C95 C94 1.474 . S
C96 C91 1.342 . S
C96 C94 1.285 . S
C96 H115 0.930 . S
C97 C100 1.424 . S
C97 C102 1.245 . S
C97 C103 1.428 . S
C98 C101 1.260 . S
C98 C102 1.477 . S
C98 H116 0.932 . S
C99 C100 1.384 . S
C99 C101 1.479 . S
C99 H117 0.929 . S
C100 C97 1.424 . S
C100 C99 1.384 . S
C100 H118 0.928 . S
C101 C98 1.260 . S
C101 C99 1.479 . S
C102 C97 1.245 . S
C102 C98 1.477 . S
C102 H119 0.932 . S
C103 U86 2.882 . S
C103 C97 1.428 . S
C103 O106 1.301 . S
C103 O107 1.282 . S
O104 U86 2.441 . S
O104 C90 1.249 . S
O105 U86 2.420 . S
O105 C90 1.202 . S
O106 U86 2.455 . S
O106 C103 1.301 . S
O107 U86 2.449 . S
O107 C103 1.282 . S
H108 C81 0.931 . S
H109 C83 0.929 . S
H110 C84 0.930 . S
H111 C85 0.931 . S
H112 C92 0.932 . S
H113 C93 0.930 . S
H114 C94 0.929 . S
H115 C96 0.930 . S
H116 C98 0.932 . S
H117 C99 0.929 . S
H118 C100 0.928 . S
H119 C102 0.932 . S
C120 C121 1.264 . S
C120 C125 1.479 . S
C120 C130 1.465 . S
C121 C120 1.264 . S
C121 C123 1.339 . S
C121 H148 0.931 . S
C122 C123 1.395 . S
C122 C124 1.320 . S
C123 C121 1.339 . S
C123 C122 1.395 . S
C123 H149 0.929 . S
C124 C122 1.320 . S
C124 C125 1.405 . S
C124 H150 0.930 . S
C125 C120 1.479 . S
C125 C124 1.405 . S
C125 H151 0.931 . S
U126 O127 2.454 . S
U126 O128 2.458 . S
U126 C129 2.984 . S
U126 C130 2.847 . S
U126 C143 2.882 . S
U126 O144 2.441 . S
U126 O145 2.420 . S
U126 O146 2.455 . S
U126 O147 2.449 . S
O127 U126 2.454 . S
O127 C129 1.353 . S
O128 U126 2.458 . S
O128 C129 1.286 . S
C129 U126 2.984 . S
C129 O127 1.353 . S
C129 O128 1.286 . S
C129 C131 1.363 . S
C130 C120 1.465 . S
C130 U126 2.847 . S
C130 O144 1.249 . S
C130 O145 1.202 . S
C131 C129 1.363 . S
C131 C133 1.408 . S
C131 C136 1.342 . S
C132 C133 1.310 . S
C132 C135 1.461 . S
C132 H152 0.932 . S
C133 C131 1.408 . S
C133 C132 1.310 . S
C133 H153 0.930 . S
C134 C135 1.474 . S
C134 C136 1.285 . S
C134 H154 0.929 . S
C135 C132 1.461 . S
C135 C134 1.474 . S
C136 C131 1.342 . S
C136 C134 1.285 . S
C136 H155 0.930 . S
C137 C140 1.424 . S
C137 C142 1.245 . S
C137 C143 1.428 . S
C138 C141 1.260 . S
C138 C142 1.477 . S
C138 H156 0.932 . S
C139 C140 1.384 . S
C139 C141 1.479 . S
C139 H157 0.929 . S
C140 C137 1.424 . S
C140 C139 1.384 . S
C140 H158 0.928 . S
C141 C138 1.260 . S
C141 C139 1.479 . S
C142 C137 1.245 . S
C142 C138 1.477 . S
C142 H159 0.932 . S
C143 U126 2.882 . S
C143 C137 1.428 . S
C143 O146 1.301 . S
C143 O147 1.282 . S
O144 U126 2.441 . S
O144 C130 1.249 . S
O145 U126 2.420 . S
O145 C130 1.202 . S
O146 U126 2.455 . S
O146 C143 1.301 . S
O147 U126 2.449 . S
O147 C143 1.282 . S
H148 C121 0.931 . S
H149 C123 0.929 . S
H150 C124 0.930 . S
H151 C125 0.931 . S
H152 C132 0.932 . S
H153 C133 0.930 . S
H154 C134 0.929 . S
H155 C136 0.930 . S
H156 C138 0.932 . S
H157 C139 0.929 . S
H158 C140 0.928 . S
H159 C142 0.932 . S
C160 C161 1.264 . S
C160 C165 1.479 . S
C160 C170 1.465 . S
C161 C160 1.264 . S
C161 C163 1.339 . S
C161 H188 0.931 . S
C162 C163 1.395 . S
C162 C164 1.320 . S
C163 C161 1.339 . S
C163 C162 1.395 . S
C163 H189 0.929 . S
C164 C162 1.320 . S
C164 C165 1.405 . S
C164 H190 0.930 . S
C165 C160 1.479 . S
C165 C164 1.405 . S
C165 H191 0.931 . S
U166 O167 2.454 . S
U166 O168 2.458 . S
U166 C169 2.984 . S
U166 C170 2.847 . S
U166 C183 2.882 . S
U166 O184 2.441 . S
U166 O185 2.420 . S
U166 O186 2.455 . S
U166 O187 2.449 . S
O167 U166 2.454 . S
O167 C169 1.353 . S
O168 U166 2.458 . S
O168 C169 1.286 . S
C169 U166 2.984 . S
C169 O167 1.353 . S
C169 O168 1.286 . S
C169 C171 1.363 . S
C170 C160 1.465 . S
C170 U166 2.847 . S
C170 O184 1.249 . S
C170 O185 1.202 . S
C171 C169 1.363 . S
C171 C173 1.408 . S
C171 C176 1.342 . S
C172 C173 1.310 . S
C172 C175 1.461 . S
C172 H192 0.932 . S
C173 C171 1.408 . S
C173 C172 1.310 . S
C173 H193 0.930 . S
C174 C175 1.474 . S
C174 C176 1.285 . S
C174 H194 0.929 . S
C175 C172 1.461 . S
C175 C174 1.474 . S
C176 C171 1.342 . S
C176 C174 1.285 . S
C176 H195 0.930 . S
C177 C180 1.424 . S
C177 C182 1.245 . S
C177 C183 1.428 . S
C178 C181 1.260 . S
C178 C182 1.477 . S
C178 H196 0.932 . S
C179 C180 1.384 . S
C179 C181 1.479 . S
C179 H197 0.929 . S
C180 C177 1.424 . S
C180 C179 1.384 . S
C180 H198 0.928 . S
C181 C178 1.260 . S
C181 C179 1.479 . S
C182 C177 1.245 . S
C182 C178 1.477 . S
C182 H199 0.932 . S
C183 U166 2.882 . S
C183 C177 1.428 . S
C183 O186 1.301 . S
C183 O187 1.282 . S
O184 U166 2.441 . S
O184 C170 1.249 . S
O185 U166 2.420 . S
O185 C170 1.202 . S
O186 U166 2.455 . S
O186 C183 1.301 . S
O187 U166 2.449 . S
O187 C183 1.282 . S
H188 C161 0.931 . S
H189 C163 0.929 . S
H190 C164 0.930 . S
H191 C165 0.931 . S
H192 C172 0.932 . S
H193 C173 0.930 . S
H194 C174 0.929 . S
H195 C176 0.930 . S
H196 C178 0.932 . S
H197 C179 0.929 . S
H198 C180 0.928 . S
H199 C182 0.932 . S
C200 C201 1.264 . S
C200 C205 1.479 . S
C200 C210 1.465 . S
C201 C200 1.264 . S
C201 C203 1.339 . S
C201 H228 0.931 . S
C202 C203 1.395 . S
C202 C204 1.320 . S
C203 C201 1.339 . S
C203 C202 1.395 . S
C203 H229 0.929 . S
C204 C202 1.320 . S
C204 C205 1.405 . S
C204 H230 0.930 . S
C205 C200 1.479 . S
C205 C204 1.405 . S
C205 H231 0.931 . S
U206 O207 2.454 . S
U206 O208 2.458 . S
U206 C209 2.984 . S
U206 C210 2.847 . S
U206 C223 2.882 . S
U206 O224 2.441 . S
U206 O225 2.420 . S
U206 O226 2.455 . S
U206 O227 2.449 . S
O207 U206 2.454 . S
O207 C209 1.353 . S
O208 U206 2.458 . S
O208 C209 1.286 . S
C209 U206 2.984 . S
C209 O207 1.353 . S
C209 O208 1.286 . S
C209 C211 1.363 . S
C210 C200 1.465 . S
C210 U206 2.847 . S
C210 O224 1.249 . S
C210 O225 1.202 . S
C211 C209 1.363 . S
C211 C213 1.408 . S
C211 C216 1.342 . S
C212 C213 1.310 . S
C212 C215 1.461 . S
C212 H232 0.932 . S
C213 C211 1.408 . S
C213 C212 1.310 . S
C213 H233 0.930 . S
C214 C215 1.474 . S
C214 C216 1.285 . S
C214 H234 0.929 . S
C215 C212 1.461 . S
C215 C214 1.474 . S
C216 C211 1.342 . S
C216 C214 1.285 . S
C216 H235 0.930 . S
C217 C220 1.424 . S
C217 C222 1.245 . S
C217 C223 1.428 . S
C218 C221 1.260 . S
C218 C222 1.477 . S
C218 H236 0.932 . S
C219 C220 1.384 . S
C219 C221 1.479 . S
C219 H237 0.929 . S
C220 C217 1.424 . S
C220 C219 1.384 . S
C220 H238 0.928 . S
C221 C218 1.260 . S
C221 C219 1.479 . S
C222 C217 1.245 . S
C222 C218 1.477 . S
C222 H239 0.932 . S
C223 U206 2.882 . S
C223 C217 1.428 . S
C223 O226 1.301 . S
C223 O227 1.282 . S
O224 U206 2.441 . S
O224 C210 1.249 . S
O225 U206 2.420 . S
O225 C210 1.202 . S
O226 U206 2.455 . S
O226 C223 1.301 . S
O227 U206 2.449 . S
O227 C223 1.282 . S
H228 C201 0.931 . S
H229 C203 0.929 . S
H230 C204 0.930 . S
H231 C205 0.931 . S
H232 C212 0.932 . S
H233 C213 0.930 . S
H234 C214 0.929 . S
H235 C216 0.930 . S
H236 C218 0.932 . S
H237 C219 0.929 . S
H238 C220 0.928 . S
H239 C222 0.932 . S
C240 C241 1.264 . S
C240 C245 1.479 . S
C240 C250 1.465 . S
C241 C240 1.264 . S
C241 C243 1.339 . S
C241 H268 0.931 . S
C242 C243 1.395 . S
C242 C244 1.320 . S
C243 C241 1.339 . S
C243 C242 1.395 . S
C243 H269 0.929 . S
C244 C242 1.320 . S
C244 C245 1.405 . S
C244 H270 0.930 . S
C245 C240 1.479 . S
C245 C244 1.405 . S
C245 H271 0.931 . S
U246 O247 2.454 . S
U246 O248 2.458 . S
U246 C249 2.984 . S
U246 C250 2.847 . S
U246 C263 2.882 . S
U246 O264 2.441 . S
U246 O265 2.420 . S
U246 O266 2.455 . S
U246 O267 2.449 . S
O247 U246 2.454 . S
O247 C249 1.353 . S
O248 U246 2.458 . S
O248 C249 1.286 . S
C249 U246 2.984 . S
C249 O247 1.353 . S
C249 O248 1.286 . S
C249 C251 1.363 . S
C250 C240 1.465 . S
C250 U246 2.847 . S
C250 O264 1.249 . S
C250 O265 1.202 . S
C251 C249 1.363 . S
C251 C253 1.408 . S
C251 C256 1.342 . S
C252 C253 1.310 . S
C252 C255 1.461 . S
C252 H272 0.932 . S
C253 C251 1.408 . S
C253 C252 1.310 . S
C253 H273 0.930 . S
C254 C255 1.474 . S
C254 C256 1.285 . S
C254 H274 0.929 . S
C255 C252 1.461 . S
C255 C254 1.474 . S
C256 C251 1.342 . S
C256 C254 1.285 . S
C256 H275 0.930 . S
C257 C260 1.424 . S
C257 C262 1.245 . S
C257 C263 1.428 . S
C258 C261 1.260 . S
C258 C262 1.477 . S
C258 H276 0.932 . S
C259 C260 1.384 . S
C259 C261 1.479 . S
C259 H277 0.929 . S
C260 C257 1.424 . S
C260 C259 1.384 . S
C260 H278 0.928 . S
C261 C258 1.260 . S
C261 C259 1.479 . S
C262 C257 1.245 . S
C262 C258 1.477 . S
C262 H279 0.932 . S
C263 U246 2.882 . S
C263 C257 1.428 . S
C263 O266 1.301 . S
C263 O267 1.282 . S
O264 U246 2.441 . S
O264 C250 1.249 . S
O265 U246 2.420 . S
O265 C250 1.202 . S
O266 U246 2.455 . S
O266 C263 1.301 . S
O267 U246 2.449 . S
O267 C263 1.282 . S
H268 C241 0.931 . S
H269 C243 0.929 . S
H270 C244 0.930 . S
H271 C245 0.931 . S
H272 C252 0.932 . S
H273 C253 0.930 . S
H274 C254 0.929 . S
H275 C256 0.930 . S
H276 C258 0.932 . S
H277 C259 0.929 . S
H278 C260 0.928 . S
H279 C262 0.932 . S
C280 C281 1.264 . S
C280 C285 1.479 . S
C280 C290 1.465 . S
C281 C280 1.264 . S
C281 C283 1.339 . S
C281 H308 0.931 . S
C282 C283 1.395 . S
C282 C284 1.320 . S
C283 C281 1.339 . S
C283 C282 1.395 . S
C283 H309 0.929 . S
C284 C282 1.320 . S
C284 C285 1.405 . S
C284 H310 0.930 . S
C285 C280 1.479 . S
C285 C284 1.405 . S
C285 H311 0.931 . S
U286 O287 2.454 . S
U286 O288 2.458 . S
U286 C289 2.984 . S
U286 C290 2.847 . S
U286 C303 2.882 . S
U286 O304 2.441 . S
U286 O305 2.420 . S
U286 O306 2.455 . S
U286 O307 2.449 . S
O287 U286 2.454 . S
O287 C289 1.353 . S
O288 U286 2.458 . S
O288 C289 1.286 . S
C289 U286 2.984 . S
C289 O287 1.353 . S
C289 O288 1.286 . S
C289 C291 1.363 . S
C290 C280 1.465 . S
C290 U286 2.847 . S
C290 O304 1.249 . S
C290 O305 1.202 . S
C291 C289 1.363 . S
C291 C293 1.408 . S
C291 C296 1.342 . S
C292 C293 1.310 . S
C292 C295 1.461 . S
C292 H312 0.932 . S
C293 C291 1.408 . S
C293 C292 1.310 . S
C293 H313 0.930 . S
C294 C295 1.474 . S
C294 C296 1.285 . S
C294 H314 0.929 . S
C295 C292 1.461 . S
C295 C294 1.474 . S
C296 C291 1.342 . S
C296 C294 1.285 . S
C296 H315 0.930 . S
C297 C300 1.424 . S
C297 C302 1.245 . S
C297 C303 1.428 . S
C298 C301 1.260 . S
C298 C302 1.477 . S
C298 H316 0.932 . S
C299 C300 1.384 . S
C299 C301 1.479 . S
C299 H317 0.929 . S
C300 C297 1.424 . S
C300 C299 1.384 . S
C300 H318 0.928 . S
C301 C298 1.260 . S
C301 C299 1.479 . S
C302 C297 1.245 . S
C302 C298 1.477 . S
C302 H319 0.932 . S
C303 U286 2.882 . S
C303 C297 1.428 . S
C303 O306 1.301 . S
C303 O307 1.282 . S
O304 U286 2.441 . S
O304 C290 1.249 . S
O305 U286 2.420 . S
O305 C290 1.202 . S
O306 U286 2.455 . S
O306 C303 1.301 . S
O307 U286 2.449 . S
O307 C303 1.282 . S
H308 C281 0.931 . S
H309 C283 0.929 . S
H310 C284 0.930 . S
H311 C285 0.931 . S
H312 C292 0.932 . S
H313 C293 0.930 . S
H314 C294 0.929 . S
H315 C296 0.930 . S
H316 C298 0.932 . S
H317 C299 0.929 . S
H318 C300 0.928 . S
H319 C302 0.932 . S
C320 O322 1.247 . S
C320 O324 1.258 . S
C321 O328 1.247 . S
C321 O329 1.258 . S
O322 C320 1.247 . S
O322 Zn323 2.028 1_655 S
Zn323 O322 2.028 1_455 S
Zn323 O327 2.035 . S
Zn323 O329 2.035 . S
Zn323 O330 2.028 1_455 S
O324 C320 1.258 . S
O324 Zn325 2.035 1_655 S
Zn325 O324 2.035 1_455 S
Zn325 O326 2.028 . S
Zn325 O328 2.028 . S
Zn325 O331 2.035 1_455 S
O326 Zn325 2.028 . S
O326 C332 1.247 . S
O327 Zn323 2.035 . S
O327 C332 1.258 . S
O328 C321 1.247 . S
O328 Zn325 2.028 . S
O329 C321 1.258 . S
O329 Zn323 2.035 . S
O330 Zn323 2.028 1_655 S
O330 C333 1.247 . S
O331 Zn325 2.035 1_655 S
O331 C333 1.258 . S
C332 O326 1.247 . S
C332 O327 1.258 . S
C333 O330 1.247 . S
C333 O331 1.258 . S
C334 O336 1.247 . S
C334 O338 1.258 . S
C335 O342 1.247 . S
C335 O343 1.258 . S
O336 C334 1.247 . S
O336 Zn337 2.028 1_655 S
Zn337 O336 2.028 1_455 S
Zn337 O341 2.035 . S
Zn337 O343 2.035 . S
Zn337 O344 2.028 1_455 S
O338 C334 1.258 . S
O338 Zn339 2.035 1_655 S
Zn339 O338 2.035 1_455 S
Zn339 O340 2.028 . S
Zn339 O342 2.028 . S
Zn339 O345 2.035 1_455 S
O340 Zn339 2.028 . S
O340 C346 1.247 . S
O341 Zn337 2.035 . S
O341 C346 1.258 . S
O342 C335 1.247 . S
O342 Zn339 2.028 . S
O343 C335 1.258 . S
O343 Zn337 2.035 . S
O344 Zn337 2.028 1_655 S
O344 C347 1.247 . S
O345 Zn339 2.035 1_655 S
O345 C347 1.258 . S
C346 O340 1.247 . S
C346 O341 1.258 . S
C347 O344 1.247 . S
C347 O345 1.258 . S
C348 O350 1.247 . S
C348 O352 1.258 . S
C349 O356 1.247 . S
C349 O357 1.258 . S
O350 C348 1.247 . S
O350 Zn351 2.028 1_565 S
Zn351 O350 2.028 1_545 S
Zn351 O355 2.035 . S
Zn351 O357 2.035 . S
Zn351 O358 2.028 1_545 S
O352 C348 1.258 . S
O352 Zn353 2.035 1_565 S
Zn353 O352 2.035 1_545 S
Zn353 O354 2.028 . S
Zn353 O356 2.028 . S
Zn353 O359 2.035 1_545 S
O354 Zn353 2.028 . S
O354 C360 1.247 . S
O355 Zn351 2.035 . S
O355 C360 1.258 . S
O356 C349 1.247 . S
O356 Zn353 2.028 . S
O357 C349 1.258 . S
O357 Zn351 2.035 . S
O358 Zn351 2.028 1_565 S
O358 C361 1.247 . S
O359 Zn353 2.035 1_565 S
O359 C361 1.258 . S
C360 O354 1.247 . S
C360 O355 1.258 . S
C361 O358 1.247 . S
C361 O359 1.258 . S
C362 O364 1.247 . S
C362 O366 1.258 . S
C363 O370 1.247 . S
C363 O371 1.258 . S
O364 C362 1.247 . S
O364 Zn365 2.028 . S
Zn365 O364 2.028 . S
Zn365 O369 2.035 . S
Zn365 O371 2.035 1_554 S
Zn365 O372 2.028 1_554 S
O366 C362 1.258 . S
O366 Zn367 2.035 . S
Zn367 O366 2.035 . S
Zn367 O368 2.028 . S
Zn367 O370 2.028 1_554 S
Zn367 O373 2.035 1_554 S
O368 Zn367 2.028 . S
O368 C374 1.247 . S
O369 Zn365 2.035 . S
O369 C374 1.258 . S
O370 C363 1.247 . S
O370 Zn367 2.028 1_556 S
O371 C363 1.258 . S
O371 Zn365 2.035 1_556 S
O372 Zn365 2.028 1_556 S
O372 C375 1.247 . S
O373 Zn367 2.035 1_556 S
O373 C375 1.258 . S
C374 O368 1.247 . S
C374 O369 1.258 . S
C375 O372 1.247 . S
C375 O373 1.258 . S
C376 O378 1.247 . S
C376 O380 1.258 . S
C377 O384 1.247 . S
C377 O385 1.258 . S
O378 C376 1.247 . S
O378 Zn379 2.033 . S
Zn379 O378 2.033 . S
Zn379 O383 2.030 1_565 S
Zn379 O385 2.030 1_565 S
Zn379 O386 2.033 . S
O380 C376 1.258 . S
O380 Zn381 2.019 1_565 S
Zn381 O380 2.019 1_545 S
Zn381 O382 2.044 . S
Zn381 O384 2.044 . S
Zn381 O387 2.019 1_545 S
O382 Zn381 2.044 . S
O382 C388 1.247 . S
O383 Zn379 2.030 1_545 S
O383 C388 1.258 . S
O384 C377 1.247 . S
O384 Zn381 2.044 . S
O385 C377 1.258 . S
O385 Zn379 2.030 1_545 S
O386 Zn379 2.033 . S
O386 C389 1.247 . S
O387 Zn381 2.019 1_565 S
O387 C389 1.258 . S
C388 O382 1.247 . S
C388 O383 1.258 . S
C389 O386 1.247 . S
C389 O387 1.258 . S
C390 O392 1.247 . S
C390 O394 1.258 . S
C391 O398 1.247 . S
C391 O399 1.258 . S
O392 C390 1.247 . S
O392 Zn393 2.028 . S
Zn393 O392 2.028 . S
Zn393 O397 2.035 . S
Zn393 O399 2.035 1_554 S
Zn393 O400 2.028 1_554 S
O394 C390 1.258 . S
O394 Zn395 2.053 . S
Zn395 O394 2.053 . S
Zn395 O396 2.046 . S
Zn395 O398 2.010 1_554 S
Zn395 O401 2.017 1_554 S
O396 Zn395 2.046 . S
O396 C402 1.247 . S
O397 Zn393 2.035 . S
O397 C402 1.258 . S
O398 C391 1.247 . S
O398 Zn395 2.010 1_556 S
O399 C391 1.258 . S
O399 Zn393 2.035 1_556 S
O400 Zn393 2.028 1_556 S
O400 C403 1.247 . S
O401 Zn395 2.017 1_556 S
O401 C403 1.258 . S
C402 O396 1.247 . S
C402 O397 1.258 . S
C403 O400 1.247 . S
C403 O401 1.258 . S
C404 C405 1.349 . S
C404 C406 1.327 . S
C404 H429 0.950 . S
C405 C404 1.349 . S
C405 C421 1.349 . S
C406 C404 1.327 . S
C406 C425 1.429 . S
C406 H430 0.950 . S
C407 C424 1.574 . S
C407 C426 1.368 . S
C407 H431 0.949 . S
H408 C412 0.949 . S
C409 C410 1.349 . S
C409 C411 1.327 . S
C409 H432 0.950 . S
C410 C409 1.349 . S
C410 C422 1.349 . S
C411 C409 1.327 . S
C411 C427 1.429 . S
C411 H433 0.950 . S
C412 H408 0.949 . S
C412 C420 1.574 . S
C412 C428 1.368 . S
H413 C421 0.950 . S
H414 C419 0.950 . S
H415 C420 0.949 . S
H416 C422 0.950 . S
H417 C423 0.950 . S
H418 C424 0.949 . S
C419 H414 0.950 . S
C419 C421 1.327 . S
C419 C425 1.429 . S
C420 C412 1.574 . S
C420 H415 0.949 . S
C420 C426 1.368 . S
C421 C405 1.349 . S
C421 H413 0.950 . S
C421 C419 1.327 . S
C422 C410 1.349 . S
C422 H416 0.950 . S
C422 C423 1.327 . S
C423 H417 0.950 . S
C423 C422 1.327 . S
C423 C427 1.429 . S
C424 C407 1.574 . S
C424 H418 0.949 . S
C424 C428 1.368 . S
C425 C406 1.429 . S
C425 C419 1.429 . S
C425 C426 1.523 . S
C426 C407 1.368 . S
C426 C420 1.368 . S
C426 C425 1.523 . S
C427 C411 1.429 . S
C427 C423 1.429 . S
C427 C428 1.523 . S
C428 C412 1.368 . S
C428 C424 1.368 . S
C428 C427 1.523 . S
H429 C404 0.950 . S
H430 C406 0.950 . S
H431 C407 0.949 . S
H432 C409 0.950 . S
H433 C411 0.950 . S
C434 C435 1.349 . S
C434 C436 1.327 . S
C434 H459 0.950 . S
C435 C434 1.349 . S
C435 C451 1.349 . S
C436 C434 1.327 . S
C436 C455 1.429 . S
C436 H460 0.950 . S
C437 C454 1.574 . S
C437 C456 1.368 . S
C437 H461 0.949 . S
H438 C442 0.949 . S
C439 C440 1.349 . S
C439 C441 1.327 . S
C439 H462 0.950 . S
C440 C439 1.349 . S
C440 C452 1.349 . S
C441 C439 1.327 . S
C441 C457 1.429 . S
C441 H463 0.950 . S
C442 H438 0.949 . S
C442 C450 1.574 . S
C442 C458 1.368 . S
H443 C451 0.950 . S
H444 C449 0.950 . S
H445 C450 0.949 . S
H446 C452 0.950 . S
H447 C453 0.950 . S
H448 C454 0.949 . S
C449 H444 0.950 . S
C449 C451 1.327 . S
C449 C455 1.429 . S
C450 C442 1.574 . S
C450 H445 0.949 . S
C450 C456 1.368 . S
C451 C435 1.349 . S
C451 H443 0.950 . S
C451 C449 1.327 . S
C452 C440 1.349 . S
C452 H446 0.950 . S
C452 C453 1.327 . S
C453 H447 0.950 . S
C453 C452 1.327 . S
C453 C457 1.429 . S
C454 C437 1.574 . S
C454 H448 0.949 . S
C454 C458 1.368 . S
C455 C436 1.429 . S
C455 C449 1.429 . S
C455 C456 1.523 . S
C456 C437 1.368 . S
C456 C450 1.368 . S
C456 C455 1.523 . S
C457 C441 1.429 . S
C457 C453 1.429 . S
C457 C458 1.523 . S
C458 C442 1.368 . S
C458 C454 1.368 . S
C458 C457 1.523 . S
H459 C434 0.950 . S
H460 C436 0.950 . S
H461 C437 0.949 . S
H462 C439 0.950 . S
H463 C441 0.950 . S
C464 C465 1.349 . S
C464 C466 1.327 . S
C464 H489 0.950 . S
C465 C464 1.349 . S
C465 C481 1.349 . S
C466 C464 1.327 . S
C466 C485 1.429 . S
C466 H490 0.950 . S
C467 C484 1.574 . S
C467 C486 1.368 . S
C467 H491 0.949 . S
H468 C472 0.949 . S
C469 C470 1.349 . S
C469 C471 1.327 . S
C469 H492 0.950 . S
C470 C469 1.349 . S
C470 C482 1.349 . S
C471 C469 1.327 . S
C471 C487 1.429 . S
C471 H493 0.950 . S
C472 H468 0.949 . S
C472 C480 1.574 . S
C472 C488 1.368 . S
H473 C481 0.950 . S
H474 C479 0.950 . S
H475 C480 0.949 . S
H476 C482 0.950 . S
H477 C483 0.950 . S
H478 C484 0.949 . S
C479 H474 0.950 . S
C479 C481 1.327 . S
C479 C485 1.429 . S
C480 C472 1.574 . S
C480 H475 0.949 . S
C480 C486 1.368 . S
C481 C465 1.349 . S
C481 H473 0.950 . S
C481 C479 1.327 . S
C482 C470 1.349 . S
C482 H476 0.950 . S
C482 C483 1.327 . S
C483 H477 0.950 . S
C483 C482 1.327 . S
C483 C487 1.429 . S
C484 C467 1.574 . S
C484 H478 0.949 . S
C484 C488 1.368 . S
C485 C466 1.429 . S
C485 C479 1.429 . S
C485 C486 1.523 . S
C486 C467 1.368 . S
C486 C480 1.368 . S
C486 C485 1.523 . S
C487 C471 1.429 . S
C487 C483 1.429 . S
C487 C488 1.523 . S
C488 C472 1.368 . S
C488 C484 1.368 . S
C488 C487 1.523 . S
H489 C464 0.950 . S
H490 C466 0.950 . S
H491 C467 0.949 . S
H492 C469 0.950 . S
H493 C471 0.950 . S
C494 C495 1.349 . S
C494 C496 1.327 . S
C494 H519 0.950 . S
C495 C494 1.349 . S
C495 C511 1.349 . S
C496 C494 1.327 . S
C496 C515 1.429 . S
C496 H520 0.950 . S
C497 C514 1.574 . S
C497 C516 1.368 . S
C497 H521 0.949 . S
H498 C502 0.949 . S
C499 C500 1.349 . S
C499 C501 1.327 . S
C499 H522 0.950 . S
C500 C499 1.349 . S
C500 C512 1.349 . S
C501 C499 1.327 . S
C501 C517 1.429 . S
C501 H523 0.950 . S
C502 H498 0.949 . S
C502 C510 1.574 . S
C502 C518 1.368 . S
H503 C511 0.950 . S
H504 C509 0.950 . S
H505 C510 0.949 . S
H506 C512 0.950 . S
H507 C513 0.950 . S
H508 C514 0.949 . S
C509 H504 0.950 . S
C509 C511 1.327 . S
C509 C515 1.429 . S
C510 C502 1.574 . S
C510 H505 0.949 . S
C510 C516 1.368 . S
C511 C495 1.349 . S
C511 H503 0.950 . S
C511 C509 1.327 . S
C512 C500 1.349 . S
C512 H506 0.950 . S
C512 C513 1.327 . S
C513 H507 0.950 . S
C513 C512 1.327 . S
C513 C517 1.429 . S
C514 C497 1.574 . S
C514 H508 0.949 . S
C514 C518 1.368 . S
C515 C496 1.429 . S
C515 C509 1.429 . S
C515 C516 1.523 . S
C516 C497 1.368 . S
C516 C510 1.368 . S
C516 C515 1.523 . S
C517 C501 1.429 . S
C517 C513 1.429 . S
C517 C518 1.523 . S
C518 C502 1.368 . S
C518 C514 1.368 . S
C518 C517 1.523 . S
H519 C494 0.950 . S
H520 C496 0.950 . S
H521 C497 0.949 . S
H522 C499 0.950 . S
H523 C501 0.950 . S
C524 C525 1.349 . S
C524 C526 1.327 . S
C524 H549 0.950 . S
C525 C524 1.349 . S
C525 C541 1.349 . S
C526 C524 1.327 . S
C526 C545 1.429 . S
C526 H550 0.950 . S
C527 C544 1.574 . S
C527 C546 1.368 . S
C527 H551 0.949 . S
H528 C532 0.949 . S
C529 C530 1.349 . S
C529 C531 1.327 . S
C529 H552 0.950 . S
C530 C529 1.349 . S
C530 C542 1.349 . S
C531 C529 1.327 . S
C531 C547 1.429 . S
C531 H553 0.950 . S
C532 H528 0.949 . S
C532 C540 1.574 . S
C532 C548 1.368 . S
H533 C541 0.950 . S
H534 C539 0.950 . S
H535 C540 0.949 . S
H536 C542 0.950 . S
H537 C543 0.950 . S
H538 C544 0.949 . S
C539 H534 0.950 . S
C539 C541 1.327 . S
C539 C545 1.429 . S
C540 C532 1.574 . S
C540 H535 0.949 . S
C540 C546 1.368 . S
C541 C525 1.349 . S
C541 H533 0.950 . S
C541 C539 1.327 . S
C542 C530 1.349 . S
C542 H536 0.950 . S
C542 C543 1.327 . S
C543 H537 0.950 . S
C543 C542 1.327 . S
C543 C547 1.429 . S
C544 C527 1.574 . S
C544 H538 0.949 . S
C544 C548 1.368 . S
C545 C526 1.429 . S
C545 C539 1.429 . S
C545 C546 1.523 . S
C546 C527 1.368 . S
C546 C540 1.368 . S
C546 C545 1.523 . S
C547 C531 1.429 . S
C547 C543 1.429 . S
C547 C548 1.523 . S
C548 C532 1.368 . S
C548 C544 1.368 . S
C548 C547 1.523 . S
H549 C524 0.950 . S
H550 C526 0.950 . S
H551 C527 0.949 . S
H552 C529 0.950 . S
H553 C531 0.950 . S
C554 C555 1.349 . S
C554 C556 1.327 . S
C554 H579 0.950 . S
C555 C554 1.349 . S
C555 C571 1.349 . S
C556 C554 1.327 . S
C556 C575 1.429 . S
C556 H580 0.950 . S
C557 C574 1.574 . S
C557 C576 1.368 . S
C557 H581 0.949 . S
H558 C562 0.949 . S
C559 C560 1.349 . S
C559 C561 1.327 . S
C559 H582 0.950 . S
C560 C559 1.349 . S
C560 C572 1.349 . S
C561 C559 1.327 . S
C561 C577 1.429 . S
C561 H583 0.950 . S
C562 H558 0.949 . S
C562 C570 1.574 . S
C562 C578 1.368 . S
H563 C571 0.950 . S
H564 C569 0.950 . S
H565 C570 0.949 . S
H566 C572 0.950 . S
H567 C573 0.950 . S
H568 C574 0.949 . S
C569 H564 0.950 . S
C569 C571 1.327 . S
C569 C575 1.429 . S
C570 C562 1.574 . S
C570 H565 0.949 . S
C570 C576 1.368 . S
C571 C555 1.349 . S
C571 H563 0.950 . S
C571 C569 1.327 . S
C572 C560 1.349 . S
C572 H566 0.950 . S
C572 C573 1.327 . S
C573 H567 0.950 . S
C573 C572 1.327 . S
C573 C577 1.429 . S
C574 C557 1.574 . S
C574 H568 0.949 . S
C574 C578 1.368 . S
C575 C556 1.429 . S
C575 C569 1.429 . S
C575 C576 1.523 . S
C576 C557 1.368 . S
C576 C570 1.368 . S
C576 C575 1.523 . S
C577 C561 1.429 . S
C577 C573 1.429 . S
C577 C578 1.523 . S
C578 C562 1.368 . S
C578 C574 1.368 . S
C578 C577 1.523 . S
H579 C554 0.950 . S
H580 C556 0.950 . S
H581 C557 0.949 . S
H582 C559 0.950 . S
H583 C561 0.950 . S
C584 C585 1.349 . S
C584 C586 1.327 . S
C584 H609 0.950 . S
C585 C584 1.349 . S
C585 C601 1.349 . S
C586 C584 1.327 . S
C586 C605 1.429 . S
C586 H610 0.950 . S
C587 C604 1.574 . S
C587 C606 1.368 . S
C587 H611 0.949 . S
H588 C592 0.949 . S
C589 C590 1.349 . S
C589 C591 1.327 . S
C589 H612 0.950 . S
C590 C589 1.349 . S
C590 C602 1.349 . S
C591 C589 1.327 . S
C591 C607 1.429 . S
C591 H613 0.950 . S
C592 H588 0.949 . S
C592 C600 1.574 . S
C592 C608 1.368 . S
H593 C601 0.950 . S
H594 C599 0.950 . S
H595 C600 0.949 . S
H596 C602 0.950 . S
H597 C603 0.950 . S
H598 C604 0.949 . S
C599 H594 0.950 . S
C599 C601 1.327 . S
C599 C605 1.429 . S
C600 C592 1.574 . S
C600 H595 0.949 . S
C600 C606 1.368 . S
C601 C585 1.349 . S
C601 H593 0.950 . S
C601 C599 1.327 . S
C602 C590 1.349 . S
C602 H596 0.950 . S
C602 C603 1.327 . S
C603 H597 0.950 . S
C603 C602 1.327 . S
C603 C607 1.429 . S
C604 C587 1.574 . S
C604 H598 0.949 . S
C604 C608 1.368 . S
C605 C586 1.429 . S
C605 C599 1.429 . S
C605 C606 1.523 . S
C606 C587 1.368 . S
C606 C600 1.368 . S
C606 C605 1.523 . S
C607 C591 1.429 . S
C607 C603 1.429 . S
C607 C608 1.523 . S
C608 C592 1.368 . S
C608 C604 1.368 . S
C608 C607 1.523 . S
H609 C584 0.950 . S
H610 C586 0.950 . S
H611 C587 0.949 . S
H612 C589 0.950 . S
H613 C591 0.950 . S
C614 C615 1.349 . S
C614 C616 1.327 . S
C614 H639 0.950 . S
C615 C614 1.349 . S
C615 C631 1.349 . S
C616 C614 1.327 . S
C616 C635 1.429 . S
C616 H640 0.950 . S
C617 C634 1.574 . S
C617 C636 1.368 . S
C617 H641 0.949 . S
H618 C622 0.949 . S
C619 C620 1.349 . S
C619 C621 1.327 . S
C619 H642 0.950 . S
C620 C619 1.349 . S
C620 C632 1.349 . S
C621 C619 1.327 . S
C621 C637 1.429 . S
C621 H643 0.950 . S
C622 H618 0.949 . S
C622 C630 1.574 . S
C622 C638 1.368 . S
H623 C631 0.950 . S
H624 C629 0.950 . S
H625 C630 0.949 . S
H626 C632 0.950 . S
H627 C633 0.950 . S
H628 C634 0.949 . S
C629 H624 0.950 . S
C629 C631 1.327 . S
C629 C635 1.429 . S
C630 C622 1.574 . S
C630 H625 0.949 . S
C630 C636 1.368 . S
C631 C615 1.349 . S
C631 H623 0.950 . S
C631 C629 1.327 . S
C632 C620 1.349 . S
C632 H626 0.950 . S
C632 C633 1.327 . S
C633 H627 0.950 . S
C633 C632 1.327 . S
C633 C637 1.429 . S
C634 C617 1.574 . S
C634 H628 0.949 . S
C634 C638 1.368 . S
C635 C616 1.429 . S
C635 C629 1.429 . S
C635 C636 1.523 . S
C636 C617 1.368 . S
C636 C630 1.368 . S
C636 C635 1.523 . S
C637 C621 1.429 . S
C637 C633 1.429 . S
C637 C638 1.523 . S
C638 C622 1.368 . S
C638 C634 1.368 . S
C638 C637 1.523 . S
H639 C614 0.950 . S
H640 C616 0.950 . S
H641 C617 0.949 . S
H642 C619 0.950 . S
H643 C621 0.950 . S
C644 C645 1.349 . S
C644 C646 1.327 . S
C644 H669 0.950 . S
C645 C644 1.349 . S
C645 C661 1.349 . S
C646 C644 1.327 . S
C646 C665 1.429 . S
C646 H670 0.950 . S
C647 C664 1.574 . S
C647 C666 1.368 . S
C647 H671 0.949 . S
H648 C652 0.949 . S
C649 C650 1.349 . S
C649 C651 1.327 . S
C649 H672 0.950 . S
C650 C649 1.349 . S
C650 C662 1.349 . S
C651 C649 1.327 . S
C651 C667 1.429 . S
C651 H673 0.950 . S
C652 H648 0.949 . S
C652 C660 1.574 . S
C652 C668 1.368 . S
H653 C661 0.950 . S
H654 C659 0.950 . S
H655 C660 0.949 . S
H656 C662 0.950 . S
H657 C663 0.950 . S
H658 C664 0.949 . S
C659 H654 0.950 . S
C659 C661 1.327 . S
C659 C665 1.429 . S
C660 C652 1.574 . S
C660 H655 0.949 . S
C660 C666 1.368 . S
C661 C645 1.349 . S
C661 H653 0.950 . S
C661 C659 1.327 . S
C662 C650 1.349 . S
C662 H656 0.950 . S
C662 C663 1.327 . S
C663 H657 0.950 . S
C663 C662 1.327 . S
C663 C667 1.429 . S
C664 C647 1.574 . S
C664 H658 0.949 . S
C664 C668 1.368 . S
C665 C646 1.429 . S
C665 C659 1.429 . S
C665 C666 1.523 . S
C666 C647 1.368 . S
C666 C660 1.368 . S
C666 C665 1.523 . S
C667 C651 1.429 . S
C667 C663 1.429 . S
C667 C668 1.523 . S
C668 C652 1.368 . S
C668 C664 1.368 . S
C668 C667 1.523 . S
H669 C644 0.950 . S
H670 C646 0.950 . S
H671 C647 0.949 . S
H672 C649 0.950 . S
H673 C651 0.950 . S
C674 C675 1.349 . S
C674 C676 1.327 . S
C674 H699 0.950 . S
C675 C674 1.349 . S
C675 C691 1.349 . S
C676 C674 1.327 . S
C676 C695 1.429 . S
C676 H700 0.950 . S
C677 C694 1.574 . S
C677 C696 1.368 . S
C677 H701 0.949 . S
H678 C682 0.949 . S
C679 C680 1.349 . S
C679 C681 1.327 . S
C679 H702 0.950 . S
C680 C679 1.349 . S
C680 C692 1.349 . S
C681 C679 1.327 . S
C681 C697 1.429 . S
C681 H703 0.950 . S
C682 H678 0.949 . S
C682 C690 1.574 . S
C682 C698 1.368 . S
H683 C691 0.950 . S
H684 C689 0.950 . S
H685 C690 0.949 . S
H686 C692 0.950 . S
H687 C693 0.950 . S
H688 C694 0.949 . S
C689 H684 0.950 . S
C689 C691 1.327 . S
C689 C695 1.429 . S
C690 C682 1.574 . S
C690 H685 0.949 . S
C690 C696 1.368 . S
C691 C675 1.349 . S
C691 H683 0.950 . S
C691 C689 1.327 . S
C692 C680 1.349 . S
C692 H686 0.950 . S
C692 C693 1.327 . S
C693 H687 0.950 . S
C693 C692 1.327 . S
C693 C697 1.429 . S
C694 C677 1.574 . S
C694 H688 0.949 . S
C694 C698 1.368 . S
C695 C676 1.429 . S
C695 C689 1.429 . S
C695 C696 1.523 . S
C696 C677 1.368 . S
C696 C690 1.368 . S
C696 C695 1.523 . S
C697 C681 1.429 . S
C697 C693 1.429 . S
C697 C698 1.523 . S
C698 C682 1.368 . S
C698 C694 1.368 . S
C698 C697 1.523 . S
H699 C674 0.950 . S
H700 C676 0.950 . S
H701 C677 0.949 . S
H702 C679 0.950 . S
H703 C681 0.950 . S
C704 C705 1.349 . S
C704 C706 1.327 . S
C704 H729 0.950 . S
C705 C704 1.349 . S
C705 C721 1.349 . S
C706 C704 1.327 . S
C706 C725 1.429 . S
C706 H730 0.950 . S
C707 C724 1.574 . S
C707 C726 1.368 . S
C707 H731 0.949 . S
H708 C712 0.949 . S
C709 C710 1.349 . S
C709 C711 1.327 . S
C709 H732 0.950 . S
C710 C709 1.349 . S
C710 C722 1.349 . S
C711 C709 1.327 . S
C711 C727 1.429 . S
C711 H733 0.950 . S
C712 H708 0.949 . S
C712 C720 1.574 . S
C712 C728 1.368 . S
H713 C721 0.950 . S
H714 C719 0.950 . S
H715 C720 0.949 . S
H716 C722 0.950 . S
H717 C723 0.950 . S
H718 C724 0.949 . S
C719 H714 0.950 . S
C719 C721 1.327 . S
C719 C725 1.429 . S
C720 C712 1.574 . S
C720 H715 0.949 . S
C720 C726 1.368 . S
C721 C705 1.349 . S
C721 H713 0.950 . S
C721 C719 1.327 . S
C722 C710 1.349 . S
C722 H716 0.950 . S
C722 C723 1.327 . S
C723 H717 0.950 . S
C723 C722 1.327 . S
C723 C727 1.429 . S
C724 C707 1.574 . S
C724 H718 0.949 . S
C724 C728 1.368 . S
C725 C706 1.429 . S
C725 C719 1.429 . S
C725 C726 1.523 . S
C726 C707 1.368 . S
C726 C720 1.368 . S
C726 C725 1.523 . S
C727 C711 1.429 . S
C727 C723 1.429 . S
C727 C728 1.523 . S
C728 C712 1.368 . S
C728 C724 1.368 . S
C728 C727 1.523 . S
H729 C704 0.950 . S
H730 C706 0.950 . S
H731 C707 0.949 . S
H732 C709 0.950 . S
H733 C711 0.950 . S
C734 C735 1.349 . S
C734 C736 1.327 . S
C734 H759 0.950 . S
C735 C734 1.349 . S
C735 C751 1.349 . S
C736 C734 1.327 . S
C736 C755 1.429 . S
C736 H760 0.950 . S
C737 C754 1.574 . S
C737 C756 1.368 . S
C737 H761 0.949 . S
H738 C742 0.949 . S
C739 C740 1.349 . S
C739 C741 1.327 . S
C739 H762 0.950 . S
C740 C739 1.349 . S
C740 C752 1.349 . S
C741 C739 1.327 . S
C741 C757 1.429 . S
C741 H763 0.950 . S
C742 H738 0.949 . S
C742 C750 1.574 . S
C742 C758 1.368 . S
H743 C751 0.950 . S
H744 C749 0.950 . S
H745 C750 0.949 . S
H746 C752 0.950 . S
H747 C753 0.950 . S
H748 C754 0.949 . S
C749 H744 0.950 . S
C749 C751 1.327 . S
C749 C755 1.429 . S
C750 C742 1.574 . S
C750 H745 0.949 . S
C750 C756 1.368 . S
C751 C735 1.349 . S
C751 H743 0.950 . S
C751 C749 1.327 . S
C752 C740 1.349 . S
C752 H746 0.950 . S
C752 C753 1.327 . S
C753 H747 0.950 . S
C753 C752 1.327 . S
C753 C757 1.429 . S
C754 C737 1.574 . S
C754 H748 0.949 . S
C754 C758 1.368 . S
C755 C736 1.429 . S
C755 C749 1.429 . S
C755 C756 1.523 . S
C756 C737 1.368 . S
C756 C750 1.368 . S
C756 C755 1.523 . S
C757 C741 1.429 . S
C757 C753 1.429 . S
C757 C758 1.523 . S
C758 C742 1.368 . S
C758 C754 1.368 . S
C758 C757 1.523 . S
H759 C734 0.950 . S
H760 C736 0.950 . S
H761 C737 0.949 . S
H762 C739 0.950 . S
H763 C741 0.950 . S
C764 C765 1.349 . S
C764 C766 1.327 . S
C764 H789 0.950 . S
C765 C764 1.349 . S
C765 C781 1.349 . S
C766 C764 1.327 . S
C766 C785 1.429 . S
C766 H790 0.950 . S
C767 C784 1.574 . S
C767 C786 1.368 . S
C767 H791 0.949 . S
H768 C772 0.949 . S
C769 C770 1.349 . S
C769 C771 1.327 . S
C769 H792 0.950 . S
C770 C769 1.349 . S
C770 C782 1.349 . S
C771 C769 1.327 . S
C771 C787 1.429 . S
C771 H793 0.950 . S
C772 H768 0.949 . S
C772 C780 1.574 . S
C772 C788 1.368 . S
H773 C781 0.950 . S
H774 C779 0.950 . S
H775 C780 0.949 . S
H776 C782 0.950 . S
H777 C783 0.950 . S
H778 C784 0.949 . S
C779 H774 0.950 . S
C779 C781 1.327 . S
C779 C785 1.429 . S
C780 C772 1.574 . S
C780 H775 0.949 . S
C780 C786 1.368 . S
C781 C765 1.349 . S
C781 H773 0.950 . S
C781 C779 1.327 . S
C782 C770 1.349 . S
C782 H776 0.950 . S
C782 C783 1.327 . S
C783 H777 0.950 . S
C783 C782 1.327 . S
C783 C787 1.429 . S
C784 C767 1.574 . S
C784 H778 0.949 . S
C784 C788 1.368 . S
C785 C766 1.429 . S
C785 C779 1.429 . S
C785 C786 1.523 . S
C786 C767 1.368 . S
C786 C780 1.368 . S
C786 C785 1.523 . S
C787 C771 1.429 . S
C787 C783 1.429 . S
C787 C788 1.523 . S
C788 C772 1.368 . S
C788 C784 1.368 . S
C788 C787 1.523 . S
H789 C764 0.950 . S
H790 C766 0.950 . S
H791 C767 0.949 . S
H792 C769 0.950 . S
H793 C771 0.950 . S
C794 C795 1.349 . S
C794 C796 1.327 . S
C794 H819 0.950 . S
C795 C794 1.349 . S
C795 C811 1.349 . S
C796 C794 1.327 . S
C796 C815 1.429 . S
C796 H820 0.950 . S
C797 C814 1.574 . S
C797 C816 1.368 . S
C797 H821 0.949 . S
H798 C802 0.949 . S
C799 C800 1.349 . S
C799 C801 1.327 . S
C799 H822 0.950 . S
C800 C799 1.349 . S
C800 C812 1.349 . S
C801 C799 1.327 . S
C801 C817 1.429 . S
C801 H823 0.950 . S
C802 H798 0.949 . S
C802 C810 1.574 . S
C802 C818 1.368 . S
H803 C811 0.950 . S
H804 C809 0.950 . S
H805 C810 0.949 . S
H806 C812 0.950 . S
H807 C813 0.950 . S
H808 C814 0.949 . S
C809 H804 0.950 . S
C809 C811 1.327 . S
C809 C815 1.429 . S
C810 C802 1.574 . S
C810 H805 0.949 . S
C810 C816 1.368 . S
C811 C795 1.349 . S
C811 H803 0.950 . S
C811 C809 1.327 . S
C812 C800 1.349 . S
C812 H806 0.950 . S
C812 C813 1.327 . S
C813 H807 0.950 . S
C813 C812 1.327 . S
C813 C817 1.429 . S
C814 C797 1.574 . S
C814 H808 0.949 . S
C814 C818 1.368 . S
C815 C796 1.429 . S
C815 C809 1.429 . S
C815 C816 1.523 . S
C816 C797 1.368 . S
C816 C810 1.368 . S
C816 C815 1.523 . S
C817 C801 1.429 . S
C817 C813 1.429 . S
C817 C818 1.523 . S
C818 C802 1.368 . S
C818 C814 1.368 . S
C818 C817 1.523 . S
H819 C794 0.950 . S
H820 C796 0.950 . S
H821 C797 0.949 . S
H822 C799 0.950 . S
H823 C801 0.950 . S
C824 C825 1.349 . S
C824 C826 1.327 . S
C824 H849 0.950 . S
C825 C824 1.349 . S
C825 C841 1.349 . S
C826 C824 1.327 . S
C826 C845 1.429 . S
C826 H850 0.950 . S
C827 C844 1.574 . S
C827 C846 1.368 . S
C827 H851 0.949 . S
H828 C832 0.949 . S
C829 C830 1.349 . S
C829 C831 1.327 . S
C829 H852 0.950 . S
C830 C829 1.349 . S
C830 C842 1.349 . S
C831 C829 1.327 . S
C831 C847 1.429 . S
C831 H853 0.950 . S
C832 H828 0.949 . S
C832 C840 1.574 . S
C832 C848 1.368 . S
H833 C841 0.950 . S
H834 C839 0.950 . S
H835 C840 0.949 . S
H836 C842 0.950 . S
H837 C843 0.950 . S
H838 C844 0.949 . S
C839 H834 0.950 . S
C839 C841 1.327 . S
C839 C845 1.429 . S
C840 C832 1.574 . S
C840 H835 0.949 . S
C840 C846 1.368 . S
C841 C825 1.349 . S
C841 H833 0.950 . S
C841 C839 1.327 . S
C842 C830 1.349 . S
C842 H836 0.950 . S
C842 C843 1.327 . S
C843 H837 0.950 . S
C843 C842 1.327 . S
C843 C847 1.429 . S
C844 C827 1.574 . S
C844 H838 0.949 . S
C844 C848 1.368 . S
C845 C826 1.429 . S
C845 C839 1.429 . S
C845 C846 1.523 . S
C846 C827 1.368 . S
C846 C840 1.368 . S
C846 C845 1.523 . S
C847 C831 1.429 . S
C847 C843 1.429 . S
C847 C848 1.523 . S
C848 C832 1.368 . S
C848 C844 1.368 . S
C848 C847 1.523 . S
H849 C824 0.950 . S
H850 C826 0.950 . S
H851 C827 0.949 . S
H852 C829 0.950 . S
H853 C831 0.950 . S
C854 C855 1.349 . S
C854 C856 1.327 . S
C854 H879 0.950 . S
C855 C854 1.349 . S
C855 C871 1.349 . S
C856 C854 1.327 . S
C856 C875 1.429 . S
C856 H880 0.950 . S
C857 C874 1.574 . S
C857 C876 1.368 . S
C857 H881 0.949 . S
H858 C862 0.949 . S
C859 C860 1.349 . S
C859 C861 1.327 . S
C859 H882 0.950 . S
C860 C859 1.349 . S
C860 C872 1.349 . S
C861 C859 1.327 . S
C861 C877 1.429 . S
C861 H883 0.950 . S
C862 H858 0.949 . S
C862 C870 1.574 . S
C862 C878 1.368 . S
H863 C871 0.950 . S
H864 C869 0.950 . S
H865 C870 0.949 . S
H866 C872 0.950 . S
H867 C873 0.950 . S
H868 C874 0.949 . S
C869 H864 0.950 . S
C869 C871 1.327 . S
C869 C875 1.429 . S
C870 C862 1.574 . S
C870 H865 0.949 . S
C870 C876 1.368 . S
C871 C855 1.349 . S
C871 H863 0.950 . S
C871 C869 1.327 . S
C872 C860 1.349 . S
C872 H866 0.950 . S
C872 C873 1.327 . S
C873 H867 0.950 . S
C873 C872 1.327 . S
C873 C877 1.429 . S
C874 C857 1.574 . S
C874 H868 0.949 . S
C874 C878 1.368 . S
C875 C856 1.429 . S
C875 C869 1.429 . S
C875 C876 1.523 . S
C876 C857 1.368 . S
C876 C870 1.368 . S
C876 C875 1.523 . S
C877 C861 1.429 . S
C877 C873 1.429 . S
C877 C878 1.523 . S
C878 C862 1.368 . S
C878 C874 1.368 . S
C878 C877 1.523 . S
H879 C854 0.950 . S
H880 C856 0.950 . S
H881 C857 0.949 . S
H882 C859 0.950 . S
H883 C861 0.950 . S
C884 C885 1.349 . S
C884 C886 1.327 . S
C884 H909 0.950 . S
C885 C884 1.349 . S
C885 C901 1.349 . S
C886 C884 1.327 . S
C886 C905 1.429 . S
C886 H910 0.950 . S
C887 C904 1.574 . S
C887 C906 1.368 . S
C887 H911 0.949 . S
H888 C892 0.949 . S
C889 C890 1.349 . S
C889 C891 1.327 . S
C889 H912 0.950 . S
C890 C889 1.349 . S
C890 C902 1.349 . S
C891 C889 1.327 . S
C891 C907 1.429 . S
C891 H913 0.950 . S
C892 H888 0.949 . S
C892 C900 1.574 . S
C892 C908 1.368 . S
H893 C901 0.950 . S
H894 C899 0.950 . S
H895 C900 0.949 . S
H896 C902 0.950 . S
H897 C903 0.950 . S
H898 C904 0.949 . S
C899 H894 0.950 . S
C899 C901 1.327 . S
C899 C905 1.429 . S
C900 C892 1.574 . S
C900 H895 0.949 . S
C900 C906 1.368 . S
C901 C885 1.349 . S
C901 H893 0.950 . S
C901 C899 1.327 . S
C902 C890 1.349 . S
C902 H896 0.950 . S
C902 C903 1.327 . S
C903 H897 0.950 . S
C903 C902 1.327 . S
C903 C907 1.429 . S
C904 C887 1.574 . S
C904 H898 0.949 . S
C904 C908 1.368 . S
C905 C886 1.429 . S
C905 C899 1.429 . S
C905 C906 1.523 . S
C906 C887 1.368 . S
C906 C900 1.368 . S
C906 C905 1.523 . S
C907 C891 1.429 . S
C907 C903 1.429 . S
C907 C908 1.523 . S
C908 C892 1.368 . S
C908 C904 1.368 . S
C908 C907 1.523 . S
H909 C884 0.950 . S
H910 C886 0.950 . S
H911 C887 0.949 . S
H912 C889 0.950 . S
H913 C891 0.950 . S
C914 C915 1.349 . S
C914 C916 1.327 . S
C914 H939 0.950 . S
C915 C914 1.349 . S
C915 C931 1.349 . S
C916 C914 1.327 . S
C916 C935 1.429 . S
C916 H940 0.950 . S
C917 C934 1.574 . S
C917 C936 1.368 . S
C917 H941 0.949 . S
H918 C922 0.949 . S
C919 C920 1.349 . S
C919 C921 1.327 . S
C919 H942 0.950 . S
C920 C919 1.349 . S
C920 C932 1.349 . S
C921 C919 1.327 . S
C921 C937 1.429 . S
C921 H943 0.950 . S
C922 H918 0.949 . S
C922 C930 1.574 . S
C922 C938 1.368 . S
H923 C931 0.950 . S
H924 C929 0.950 . S
H925 C930 0.949 . S
H926 C932 0.950 . S
H927 C933 0.950 . S
H928 C934 0.949 . S
C929 H924 0.950 . S
C929 C931 1.327 . S
C929 C935 1.429 . S
C930 C922 1.574 . S
C930 H925 0.949 . S
C930 C936 1.368 . S
C931 C915 1.349 . S
C931 H923 0.950 . S
C931 C929 1.327 . S
C932 C920 1.349 . S
C932 H926 0.950 . S
C932 C933 1.327 . S
C933 H927 0.950 . S
C933 C932 1.327 . S
C933 C937 1.429 . S
C934 C917 1.574 . S
C934 H928 0.949 . S
C934 C938 1.368 . S
C935 C916 1.429 . S
C935 C929 1.429 . S
C935 C936 1.523 . S
C936 C917 1.368 . S
C936 C930 1.368 . S
C936 C935 1.523 . S
C937 C921 1.429 . S
C937 C933 1.429 . S
C937 C938 1.523 . S
C938 C922 1.368 . S
C938 C934 1.368 . S
C938 C937 1.523 . S
H939 C914 0.950 . S
H940 C916 0.950 . S
H941 C917 0.949 . S
H942 C919 0.950 . S
H943 C921 0.950 . S
C944 C945 1.349 . S
C944 C946 1.327 . S
C944 H969 0.950 . S
C945 C944 1.349 . S
C945 C961 1.349 . S
C946 C944 1.327 . S
C946 C965 1.429 . S
C946 H970 0.950 . S
C947 C964 1.574 . S
C947 C966 1.368 . S
C947 H971 0.949 . S
H948 C952 0.949 . S
C949 C950 1.349 . S
C949 C951 1.327 . S
C949 H972 0.950 . S
C950 C949 1.349 . S
C950 C962 1.349 . S
C951 C949 1.327 . S
C951 C967 1.429 . S
C951 H973 0.950 . S
C952 H948 0.949 . S
C952 C960 1.574 . S
C952 C968 1.368 . S
H953 C961 0.950 . S
H954 C959 0.950 . S
H955 C960 0.949 . S
H956 C962 0.950 . S
H957 C963 0.950 . S
H958 C964 0.949 . S
C959 H954 0.950 . S
C959 C961 1.327 . S
C959 C965 1.429 . S
C960 C952 1.574 . S
C960 H955 0.949 . S
C960 C966 1.368 . S
C961 C945 1.349 . S
C961 H953 0.950 . S
C961 C959 1.327 . S
C962 C950 1.349 . S
C962 H956 0.950 . S
C962 C963 1.327 . S
C963 H957 0.950 . S
C963 C962 1.327 . S
C963 C967 1.429 . S
C964 C947 1.574 . S
C964 H958 0.949 . S
C964 C968 1.368 . S
C965 C946 1.429 . S
C965 C959 1.429 . S
C965 C966 1.523 . S
C966 C947 1.368 . S
C966 C960 1.368 . S
C966 C965 1.523 . S
C967 C951 1.429 . S
C967 C963 1.429 . S
C967 C968 1.523 . S
C968 C952 1.368 . S
C968 C964 1.368 . S
C968 C967 1.523 . S
H969 C944 0.950 . S
H970 C946 0.950 . S
H971 C947 0.949 . S
H972 C949 0.950 . S
H973 C951 0.950 . S
C974 C975 1.349 . S
C974 C976 1.327 . S
C974 H999 0.950 . S
C975 C974 1.349 . S
C975 C991 1.349 . S
C976 C974 1.327 . S
C976 C995 1.429 . S
C976 H1000 0.950 . S
C977 C994 1.574 . S
C977 C996 1.368 . S
C977 H1001 0.949 . S
H978 C982 0.949 . S
C979 C980 1.349 . S
C979 C981 1.327 . S
C979 H1002 0.950 . S
C980 C979 1.349 . S
C980 C992 1.349 . S
C981 C979 1.327 . S
C981 C997 1.429 . S
C981 H1003 0.950 . S
C982 H978 0.949 . S
C982 C990 1.574 . S
C982 C998 1.368 . S
H983 C991 0.950 . S
H984 C989 0.950 . S
H985 C990 0.949 . S
H986 C992 0.950 . S
H987 C993 0.950 . S
H988 C994 0.949 . S
C989 H984 0.950 . S
C989 C991 1.327 . S
C989 C995 1.429 . S
C990 C982 1.574 . S
C990 H985 0.949 . S
C990 C996 1.368 . S
C991 C975 1.349 . S
C991 H983 0.950 . S
C991 C989 1.327 . S
C992 C980 1.349 . S
C992 H986 0.950 . S
C992 C993 1.327 . S
C993 H987 0.950 . S
C993 C992 1.327 . S
C993 C997 1.429 . S
C994 C977 1.574 . S
C994 H988 0.949 . S
C994 C998 1.368 . S
C995 C976 1.429 . S
C995 C989 1.429 . S
C995 C996 1.523 . S
C996 C977 1.368 . S
C996 C990 1.368 . S
C996 C995 1.523 . S
C997 C981 1.429 . S
C997 C993 1.429 . S
C997 C998 1.523 . S
C998 C982 1.368 . S
C998 C994 1.368 . S
C998 C997 1.523 . S
H999 C974 0.950 . S
H1000 C976 0.950 . S
H1001 C977 0.949 . S
H1002 C979 0.950 . S
H1003 C981 0.950 . S
C1004 C1005 1.349 . S
C1004 C1006 1.327 . S
C1004 H1029 0.950 . S
C1005 C1004 1.349 . S
C1005 C1021 1.349 . S
C1006 C1004 1.327 . S
C1006 C1025 1.429 . S
C1006 H1030 0.950 . S
C1007 C1024 1.574 . S
C1007 C1026 1.368 . S
C1007 H1031 0.949 . S
H1008 C1012 0.949 . S
C1009 C1010 1.349 . S
C1009 C1011 1.327 . S
C1009 H1032 0.950 . S
C1010 C1009 1.349 . S
C1010 C1022 1.349 . S
C1011 C1009 1.327 . S
C1011 C1027 1.429 . S
C1011 H1033 0.950 . S
C1012 H1008 0.949 . S
C1012 C1020 1.574 . S
C1012 C1028 1.368 . S
H1013 C1021 0.950 . S
H1014 C1019 0.950 . S
H1015 C1020 0.949 . S
H1016 C1022 0.950 . S
H1017 C1023 0.950 . S
H1018 C1024 0.949 . S
C1019 H1014 0.950 . S
C1019 C1021 1.327 . S
C1019 C1025 1.429 . S
C1020 C1012 1.574 . S
C1020 H1015 0.949 . S
C1020 C1026 1.368 . S
C1021 C1005 1.349 . S
C1021 H1013 0.950 . S
C1021 C1019 1.327 . S
C1022 C1010 1.349 . S
C1022 H1016 0.950 . S
C1022 C1023 1.327 . S
C1023 H1017 0.950 . S
C1023 C1022 1.327 . S
C1023 C1027 1.429 . S
C1024 C1007 1.574 . S
C1024 H1018 0.949 . S
C1024 C1028 1.368 . S
C1025 C1006 1.429 . S
C1025 C1019 1.429 . S
C1025 C1026 1.523 . S
C1026 C1007 1.368 . S
C1026 C1020 1.368 . S
C1026 C1025 1.523 . S
C1027 C1011 1.429 . S
C1027 C1023 1.429 . S
C1027 C1028 1.523 . S
C1028 C1012 1.368 . S
C1028 C1024 1.368 . S
C1028 C1027 1.523 . S
H1029 C1004 0.950 . S
H1030 C1006 0.950 . S
H1031 C1007 0.949 . S
H1032 C1009 0.950 . S
H1033 C1011 0.950 . S
C1034 C1035 1.349 . S
C1034 C1036 1.327 . S
C1034 H1059 0.950 . S
C1035 C1034 1.349 . S
C1035 C1051 1.349 . S
C1036 C1034 1.327 . S
C1036 C1055 1.429 . S
C1036 H1060 0.950 . S
C1037 C1054 1.574 . S
C1037 C1056 1.368 . S
C1037 H1061 0.949 . S
H1038 C1042 0.949 . S
C1039 C1040 1.349 . S
C1039 C1041 1.327 . S
C1039 H1062 0.950 . S
C1040 C1039 1.349 . S
C1040 C1052 1.349 . S
C1041 C1039 1.327 . S
C1041 C1057 1.429 . S
C1041 H1063 0.950 . S
C1042 H1038 0.949 . S
C1042 C1050 1.574 . S
C1042 C1058 1.368 . S
H1043 C1051 0.950 . S
H1044 C1049 0.950 . S
H1045 C1050 0.949 . S
H1046 C1052 0.950 . S
H1047 C1053 0.950 . S
H1048 C1054 0.949 . S
C1049 H1044 0.950 . S
C1049 C1051 1.327 . S
C1049 C1055 1.429 . S
C1050 C1042 1.574 . S
C1050 H1045 0.949 . S
C1050 C1056 1.368 . S
C1051 C1035 1.349 . S
C1051 H1043 0.950 . S
C1051 C1049 1.327 . S
C1052 C1040 1.349 . S
C1052 H1046 0.950 . S
C1052 C1053 1.327 . S
C1053 H1047 0.950 . S
C1053 C1052 1.327 . S
C1053 C1057 1.429 . S
C1054 C1037 1.574 . S
C1054 H1048 0.949 . S
C1054 C1058 1.368 . S
C1055 C1036 1.429 . S
C1055 C1049 1.429 . S
C1055 C1056 1.523 . S
C1056 C1037 1.368 . S
C1056 C1050 1.368 . S
C1056 C1055 1.523 . S
C1057 C1041 1.429 . S
C1057 C1053 1.429 . S
C1057 C1058 1.523 . S
C1058 C1042 1.368 . S
C1058 C1054 1.368 . S
C1058 C1057 1.523 . S
H1059 C1034 0.950 . S
H1060 C1036 0.950 . S
H1061 C1037 0.949 . S
H1062 C1039 0.950 . S
H1063 C1041 0.950 . S
C1064 C1065 1.349 . S
C1064 C1066 1.327 . S
C1064 H1089 0.950 . S
C1065 C1064 1.349 . S
C1065 C1081 1.349 . S
C1066 C1064 1.327 . S
C1066 C1085 1.429 . S
C1066 H1090 0.950 . S
C1067 C1084 1.574 . S
C1067 C1086 1.368 . S
C1067 H1091 0.949 . S
H1068 C1072 0.949 . S
C1069 C1070 1.349 . S
C1069 C1071 1.327 . S
C1069 H1092 0.950 . S
C1070 C1069 1.349 . S
C1070 C1082 1.349 . S
C1071 C1069 1.327 . S
C1071 C1087 1.429 . S
C1071 H1093 0.950 . S
C1072 H1068 0.949 . S
C1072 C1080 1.574 . S
C1072 C1088 1.368 . S
H1073 C1081 0.950 . S
H1074 C1079 0.950 . S
H1075 C1080 0.949 . S
H1076 C1082 0.950 . S
H1077 C1083 0.950 . S
H1078 C1084 0.949 . S
C1079 H1074 0.950 . S
C1079 C1081 1.327 . S
C1079 C1085 1.429 . S
C1080 C1072 1.574 . S
C1080 H1075 0.949 . S
C1080 C1086 1.368 . S
C1081 C1065 1.349 . S
C1081 H1073 0.950 . S
C1081 C1079 1.327 . S
C1082 C1070 1.349 . S
C1082 H1076 0.950 . S
C1082 C1083 1.327 . S
C1083 H1077 0.950 . S
C1083 C1082 1.327 . S
C1083 C1087 1.429 . S
C1084 C1067 1.574 . S
C1084 H1078 0.949 . S
C1084 C1088 1.368 . S
C1085 C1066 1.429 . S
C1085 C1079 1.429 . S
C1085 C1086 1.523 . S
C1086 C1067 1.368 . S
C1086 C1080 1.368 . S
C1086 C1085 1.523 . S
C1087 C1071 1.429 . S
C1087 C1083 1.429 . S
C1087 C1088 1.523 . S
C1088 C1072 1.368 . S
C1088 C1084 1.368 . S
C1088 C1087 1.523 . S
H1089 C1064 0.950 . S
H1090 C1066 0.950 . S
H1091 C1067 0.949 . S
H1092 C1069 0.950 . S
H1093 C1071 0.950 . S
C1094 C1095 1.349 . S
C1094 C1096 1.327 . S
C1094 H1119 0.950 . S
C1095 C1094 1.349 . S
C1095 C1111 1.349 . S
C1096 C1094 1.327 . S
C1096 C1115 1.429 . S
C1096 H1120 0.950 . S
C1097 C1114 1.574 . S
C1097 C1116 1.368 . S
C1097 H1121 0.949 . S
H1098 C1102 0.949 . S
C1099 C1100 1.349 . S
C1099 C1101 1.327 . S
C1099 H1122 0.950 . S
C1100 C1099 1.349 . S
C1100 C1112 1.349 . S
C1101 C1099 1.327 . S
C1101 C1117 1.429 . S
C1101 H1123 0.950 . S
C1102 H1098 0.949 . S
C1102 C1110 1.574 . S
C1102 C1118 1.368 . S
H1103 C1111 0.950 . S
H1104 C1109 0.950 . S
H1105 C1110 0.949 . S
H1106 C1112 0.950 . S
H1107 C1113 0.950 . S
H1108 C1114 0.949 . S
C1109 H1104 0.950 . S
C1109 C1111 1.327 . S
C1109 C1115 1.429 . S
C1110 C1102 1.574 . S
C1110 H1105 0.949 . S
C1110 C1116 1.368 . S
C1111 C1095 1.349 . S
C1111 H1103 0.950 . S
C1111 C1109 1.327 . S
C1112 C1100 1.349 . S
C1112 H1106 0.950 . S
C1112 C1113 1.327 . S
C1113 H1107 0.950 . S
C1113 C1112 1.327 . S
C1113 C1117 1.429 . S
C1114 C1097 1.574 . S
C1114 H1108 0.949 . S
C1114 C1118 1.368 . S
C1115 C1096 1.429 . S
C1115 C1109 1.429 . S
C1115 C1116 1.523 . S
C1116 C1097 1.368 . S
C1116 C1110 1.368 . S
C1116 C1115 1.523 . S
C1117 C1101 1.429 . S
C1117 C1113 1.429 . S
C1117 C1118 1.523 . S
C1118 C1102 1.368 . S
C1118 C1114 1.368 . S
C1118 C1117 1.523 . S
H1119 C1094 0.950 . S
H1120 C1096 0.950 . S
H1121 C1097 0.949 . S
H1122 C1099 0.950 . S
H1123 C1101 0.950 . S
C410 C332 1.521 . S
C405 C15 1.522 . S
C440 C335 1.474 . S
C435 C55 1.475 . S
C470 C333 1.540 . S
C465 C101 1.525 . S
C500 C334 1.498 . S
C495 C141 1.490 . S
C530 C349 1.502 . S
C525 C2 1.488 . S
C560 C363 1.500 . S
C555 C61 1.490 . S
C585 C95 1.520 . S
C590 C389 1.518 . S
C620 C403 1.498 . S
C615 C135 1.501 . S
C650 C348 1.489 . S
C645 C42 1.475 . S
C675 C82 1.510 . S
C680 C362 1.524 . S
C710 C388 1.509 . S
C705 C122 1.501 . S
C740 C402 1.527 . S
C735 C21 1.517 . S
C765 C162 1.485 . S
C770 C347 1.493 . S
C800 C320 1.535 . S
C795 C221 1.531 . S
C825 C255 1.478 . S
C830 C346 1.477 . S
C855 C282 1.508 . S
C860 C321 1.521 . S
C890 C376 1.518 . S
C885 C181 1.513 . S
C920 C390 1.518 . S
C915 C202 1.512 . S
C950 C360 1.494 . S
C945 C242 1.483 . S
C975 C301 1.516 . S
C980 C374 1.526 . S
C1010 C377 1.520 . S
C1005 C215 1.522 . S
C1040 C391 1.509 . S
C1035 C261 1.501 . S
C1070 C361 1.500 . S
C1065 C295 1.502 . S
C1095 C175 1.499 . S
C1100 C375 1.496 . S
