# Generated by pormake.
# Topology gar, (4,6)-cn, num edge types: 1
# Building blocks:
#     Node 0, Type 0, BuildingBlock: UXUYUI_clean_sbu_0, # of connection points: 4
#     Node 1, Type 0, BuildingBlock: UXUYUI_clean_sbu_0, # of connection points: 4
#     Node 2, Type 0, BuildingBlock: UXUYUI_clean_sbu_0, # of connection points: 4
#     Node 3, Type 0, BuildingBlock: UXUYUI_clean_sbu_0, # of connection points: 4
#     Node 4, Type 0, BuildingBlock: UXUYUI_clean_sbu_0, # of connection points: 4
#     Node 5, Type 0, BuildingBlock: UXUYUI_clean_sbu_0, # of connection points: 4
#     Node 6, Type 0, BuildingBlock: UXUYUI_clean_sbu_0, # of connection points: 4
#     Node 7, Type 0, BuildingBlock: UXUYUI_clean_sbu_0, # of connection points: 4
#     Node 8, Type 0, BuildingBlock: UXUYUI_clean_sbu_0, # of connection points: 4
#     Node 9, Type 0, BuildingBlock: UXUYUI_clean_sbu_0, # of connection points: 4
#     Node 10, Type 0, BuildingBlock: UXUYUI_clean_sbu_0, # of connection points: 4
#     Node 11, Type 0, BuildingBlock: UXUYUI_clean_sbu_0, # of connection points: 4
#     Node 12, Type 0, BuildingBlock: UXUYUI_clean_sbu_0, # of connection points: 4
#     Node 13, Type 0, BuildingBlock: UXUYUI_clean_sbu_0, # of connection points: 4
#     Node 14, Type 0, BuildingBlock: UXUYUI_clean_sbu_0, # of connection points: 4
#     Node 15, Type 0, BuildingBlock: UXUYUI_clean_sbu_0, # of connection points: 4
#     Node 16, Type 0, BuildingBlock: UXUYUI_clean_sbu_0, # of connection points: 4
#     Node 17, Type 0, BuildingBlock: UXUYUI_clean_sbu_0, # of connection points: 4
#     Node 18, Type 0, BuildingBlock: UXUYUI_clean_sbu_0, # of connection points: 4
#     Node 19, Type 0, BuildingBlock: UXUYUI_clean_sbu_0, # of connection points: 4
#     Node 20, Type 0, BuildingBlock: UXUYUI_clean_sbu_0, # of connection points: 4
#     Node 21, Type 0, BuildingBlock: UXUYUI_clean_sbu_0, # of connection points: 4
#     Node 22, Type 0, BuildingBlock: UXUYUI_clean_sbu_0, # of connection points: 4
#     Node 23, Type 0, BuildingBlock: UXUYUI_clean_sbu_0, # of connection points: 4
#     Node 24, Type 1, BuildingBlock: NUHQIS_clean_sbu_0, # of connection points: 6
#     Node 25, Type 1, BuildingBlock: NUHQIS_clean_sbu_0, # of connection points: 6
#     Node 26, Type 1, BuildingBlock: NUHQIS_clean_sbu_0, # of connection points: 6
#     Node 27, Type 1, BuildingBlock: NUHQIS_clean_sbu_0, # of connection points: 6
#     Node 28, Type 1, BuildingBlock: NUHQIS_clean_sbu_0, # of connection points: 6
#     Node 29, Type 1, BuildingBlock: NUHQIS_clean_sbu_0, # of connection points: 6
#     Node 30, Type 1, BuildingBlock: NUHQIS_clean_sbu_0, # of connection points: 6
#     Node 31, Type 1, BuildingBlock: NUHQIS_clean_sbu_0, # of connection points: 6
#     Node 32, Type 1, BuildingBlock: NUHQIS_clean_sbu_0, # of connection points: 6
#     Node 33, Type 1, BuildingBlock: NUHQIS_clean_sbu_0, # of connection points: 6
#     Node 34, Type 1, BuildingBlock: NUHQIS_clean_sbu_0, # of connection points: 6
#     Node 35, Type 1, BuildingBlock: NUHQIS_clean_sbu_0, # of connection points: 6
#     Node 36, Type 1, BuildingBlock: NUHQIS_clean_sbu_0, # of connection points: 6
#     Node 37, Type 1, BuildingBlock: NUHQIS_clean_sbu_0, # of connection points: 6
#     Node 38, Type 1, BuildingBlock: NUHQIS_clean_sbu_0, # of connection points: 6
#     Node 39, Type 1, BuildingBlock: NUHQIS_clean_sbu_0, # of connection points: 6
#     Edge 40, Type (0, 1), BuildingBlock: OJICUG_clean_linker_0, # of connection points: 2
#     Edge 41, Type (0, 1), BuildingBlock: OJICUG_clean_linker_0, # of connection points: 2
#     Edge 42, Type (0, 1), BuildingBlock: OJICUG_clean_linker_0, # of connection points: 2
#     Edge 43, Type (0, 1), BuildingBlock: OJICUG_clean_linker_0, # of connection points: 2
#     Edge 44, Type (0, 1), BuildingBlock: OJICUG_clean_linker_0, # of connection points: 2
#     Edge 45, Type (0, 1), BuildingBlock: OJICUG_clean_linker_0, # of connection points: 2
#     Edge 46, Type (0, 1), BuildingBlock: OJICUG_clean_linker_0, # of connection points: 2
#     Edge 47, Type (0, 1), BuildingBlock: OJICUG_clean_linker_0, # of connection points: 2
#     Edge 48, Type (0, 1), BuildingBlock: OJICUG_clean_linker_0, # of connection points: 2
#     Edge 49, Type (0, 1), BuildingBlock: OJICUG_clean_linker_0, # of connection points: 2
#     Edge 50, Type (0, 1), BuildingBlock: OJICUG_clean_linker_0, # of connection points: 2
#     Edge 51, Type (0, 1), BuildingBlock: OJICUG_clean_linker_0, # of connection points: 2
#     Edge 52, Type (0, 1), BuildingBlock: OJICUG_clean_linker_0, # of connection points: 2
#     Edge 53, Type (0, 1), BuildingBlock: OJICUG_clean_linker_0, # of connection points: 2
#     Edge 54, Type (0, 1), BuildingBlock: OJICUG_clean_linker_0, # of connection points: 2
#     Edge 55, Type (0, 1), BuildingBlock: OJICUG_clean_linker_0, # of connection points: 2
#     Edge 56, Type (0, 1), BuildingBlock: OJICUG_clean_linker_0, # of connection points: 2
#     Edge 57, Type (0, 1), BuildingBlock: OJICUG_clean_linker_0, # of connection points: 2
#     Edge 58, Type (0, 1), BuildingBlock: OJICUG_clean_linker_0, # of connection points: 2
#     Edge 59, Type (0, 1), BuildingBlock: OJICUG_clean_linker_0, # of connection points: 2
#     Edge 60, Type (0, 1), BuildingBlock: OJICUG_clean_linker_0, # of connection points: 2
#     Edge 61, Type (0, 1), BuildingBlock: OJICUG_clean_linker_0, # of connection points: 2
#     Edge 62, Type (0, 1), BuildingBlock: OJICUG_clean_linker_0, # of connection points: 2
#     Edge 63, Type (0, 1), BuildingBlock: OJICUG_clean_linker_0, # of connection points: 2
#     Edge 64, Type (0, 1), BuildingBlock: OJICUG_clean_linker_0, # of connection points: 2
#     Edge 65, Type (0, 1), BuildingBlock: OJICUG_clean_linker_0, # of connection points: 2
#     Edge 66, Type (0, 1), BuildingBlock: OJICUG_clean_linker_0, # of connection points: 2
#     Edge 67, Type (0, 1), BuildingBlock: OJICUG_clean_linker_0, # of connection points: 2
#     Edge 68, Type (0, 1), BuildingBlock: OJICUG_clean_linker_0, # of connection points: 2
#     Edge 69, Type (0, 1), BuildingBlock: OJICUG_clean_linker_0, # of connection points: 2
#     Edge 70, Type (0, 1), BuildingBlock: OJICUG_clean_linker_0, # of connection points: 2
#     Edge 71, Type (0, 1), BuildingBlock: OJICUG_clean_linker_0, # of connection points: 2
#     Edge 72, Type (0, 1), BuildingBlock: OJICUG_clean_linker_0, # of connection points: 2
#     Edge 73, Type (0, 1), BuildingBlock: OJICUG_clean_linker_0, # of connection points: 2
#     Edge 74, Type (0, 1), BuildingBlock: OJICUG_clean_linker_0, # of connection points: 2
#     Edge 75, Type (0, 1), BuildingBlock: OJICUG_clean_linker_0, # of connection points: 2
#     Edge 76, Type (0, 1), BuildingBlock: OJICUG_clean_linker_0, # of connection points: 2
#     Edge 77, Type (0, 1), BuildingBlock: OJICUG_clean_linker_0, # of connection points: 2
#     Edge 78, Type (0, 1), BuildingBlock: OJICUG_clean_linker_0, # of connection points: 2
#     Edge 79, Type (0, 1), BuildingBlock: OJICUG_clean_linker_0, # of connection points: 2
#     Edge 80, Type (0, 1), BuildingBlock: OJICUG_clean_linker_0, # of connection points: 2
#     Edge 81, Type (0, 1), BuildingBlock: OJICUG_clean_linker_0, # of connection points: 2
#     Edge 82, Type (0, 1), BuildingBlock: OJICUG_clean_linker_0, # of connection points: 2
#     Edge 83, Type (0, 1), BuildingBlock: OJICUG_clean_linker_0, # of connection points: 2
#     Edge 84, Type (0, 1), BuildingBlock: OJICUG_clean_linker_0, # of connection points: 2
#     Edge 85, Type (0, 1), BuildingBlock: OJICUG_clean_linker_0, # of connection points: 2
#     Edge 86, Type (0, 1), BuildingBlock: OJICUG_clean_linker_0, # of connection points: 2
#     Edge 87, Type (0, 1), BuildingBlock: OJICUG_clean_linker_0, # of connection points: 2
#     Edge 88, Type (0, 1), BuildingBlock: OJICUG_clean_linker_0, # of connection points: 2
#     Edge 89, Type (0, 1), BuildingBlock: OJICUG_clean_linker_0, # of connection points: 2
#     Edge 90, Type (0, 1), BuildingBlock: OJICUG_clean_linker_0, # of connection points: 2
#     Edge 91, Type (0, 1), BuildingBlock: OJICUG_clean_linker_0, # of connection points: 2
#     Edge 92, Type (0, 1), BuildingBlock: OJICUG_clean_linker_0, # of connection points: 2
#     Edge 93, Type (0, 1), BuildingBlock: OJICUG_clean_linker_0, # of connection points: 2
#     Edge 94, Type (0, 1), BuildingBlock: OJICUG_clean_linker_0, # of connection points: 2
#     Edge 95, Type (0, 1), BuildingBlock: OJICUG_clean_linker_0, # of connection points: 2
#     Edge 96, Type (0, 1), BuildingBlock: OJICUG_clean_linker_0, # of connection points: 2
#     Edge 97, Type (0, 1), BuildingBlock: OJICUG_clean_linker_0, # of connection points: 2
#     Edge 98, Type (0, 1), BuildingBlock: OJICUG_clean_linker_0, # of connection points: 2
#     Edge 99, Type (0, 1), BuildingBlock: OJICUG_clean_linker_0, # of connection points: 2
#     Edge 100, Type (0, 1), BuildingBlock: OJICUG_clean_linker_0, # of connection points: 2
#     Edge 101, Type (0, 1), BuildingBlock: OJICUG_clean_linker_0, # of connection points: 2
#     Edge 102, Type (0, 1), BuildingBlock: OJICUG_clean_linker_0, # of connection points: 2
#     Edge 103, Type (0, 1), BuildingBlock: OJICUG_clean_linker_0, # of connection points: 2
#     Edge 104, Type (0, 1), BuildingBlock: OJICUG_clean_linker_0, # of connection points: 2
#     Edge 105, Type (0, 1), BuildingBlock: OJICUG_clean_linker_0, # of connection points: 2
#     Edge 106, Type (0, 1), BuildingBlock: OJICUG_clean_linker_0, # of connection points: 2
#     Edge 107, Type (0, 1), BuildingBlock: OJICUG_clean_linker_0, # of connection points: 2
#     Edge 108, Type (0, 1), BuildingBlock: OJICUG_clean_linker_0, # of connection points: 2
#     Edge 109, Type (0, 1), BuildingBlock: OJICUG_clean_linker_0, # of connection points: 2
#     Edge 110, Type (0, 1), BuildingBlock: OJICUG_clean_linker_0, # of connection points: 2
#     Edge 111, Type (0, 1), BuildingBlock: OJICUG_clean_linker_0, # of connection points: 2
#     Edge 112, Type (0, 1), BuildingBlock: OJICUG_clean_linker_0, # of connection points: 2
#     Edge 113, Type (0, 1), BuildingBlock: OJICUG_clean_linker_0, # of connection points: 2
#     Edge 114, Type (0, 1), BuildingBlock: OJICUG_clean_linker_0, # of connection points: 2
#     Edge 115, Type (0, 1), BuildingBlock: OJICUG_clean_linker_0, # of connection points: 2
#     Edge 116, Type (0, 1), BuildingBlock: OJICUG_clean_linker_0, # of connection points: 2
#     Edge 117, Type (0, 1), BuildingBlock: OJICUG_clean_linker_0, # of connection points: 2
#     Edge 118, Type (0, 1), BuildingBlock: OJICUG_clean_linker_0, # of connection points: 2
#     Edge 119, Type (0, 1), BuildingBlock: OJICUG_clean_linker_0, # of connection points: 2
#     Edge 120, Type (0, 1), BuildingBlock: OJICUG_clean_linker_0, # of connection points: 2
#     Edge 121, Type (0, 1), BuildingBlock: OJICUG_clean_linker_0, # of connection points: 2
#     Edge 122, Type (0, 1), BuildingBlock: OJICUG_clean_linker_0, # of connection points: 2
#     Edge 123, Type (0, 1), BuildingBlock: OJICUG_clean_linker_0, # of connection points: 2
#     Edge 124, Type (0, 1), BuildingBlock: OJICUG_clean_linker_0, # of connection points: 2
#     Edge 125, Type (0, 1), BuildingBlock: OJICUG_clean_linker_0, # of connection points: 2
#     Edge 126, Type (0, 1), BuildingBlock: OJICUG_clean_linker_0, # of connection points: 2
#     Edge 127, Type (0, 1), BuildingBlock: OJICUG_clean_linker_0, # of connection points: 2
#     Edge 128, Type (0, 1), BuildingBlock: OJICUG_clean_linker_0, # of connection points: 2
#     Edge 129, Type (0, 1), BuildingBlock: OJICUG_clean_linker_0, # of connection points: 2
#     Edge 130, Type (0, 1), BuildingBlock: OJICUG_clean_linker_0, # of connection points: 2
#     Edge 131, Type (0, 1), BuildingBlock: OJICUG_clean_linker_0, # of connection points: 2
#     Edge 132, Type (0, 1), BuildingBlock: OJICUG_clean_linker_0, # of connection points: 2
#     Edge 133, Type (0, 1), BuildingBlock: OJICUG_clean_linker_0, # of connection points: 2
#     Edge 134, Type (0, 1), BuildingBlock: OJICUG_clean_linker_0, # of connection points: 2
#     Edge 135, Type (0, 1), BuildingBlock: OJICUG_clean_linker_0, # of connection points: 2
# Relax obj value: 0.253
# Max RMSD: 0.327
# Mean RMSD: 0.189
data_MOF--net-gar--node1-UXUYUI_clean_sbu_0--node2-NUHQIS_clean_sbu_0--edge1-OJICUG_clean_linker_0
_symmetry_space_group_name_H-M    P1
_symmetry_Int_Tables_number       1
_symmetry_cell_setting            triclinic
loop_
_symmetry_equiv_pos_as_xyz
'x, y, z'
_cell_length_a     55.935825
_cell_length_b     57.870003
_cell_length_c     55.463593
_cell_angle_alpha  93.521756
_cell_angle_beta   96.613043
_cell_angle_gamma 100.12337
loop_
_atom_site_label
_atom_site_type_symbol
_atom_site_fract_x
_atom_site_fract_y
_atom_site_fract_z
_atom_type_partial_charge
Li0 Li 0.06594 0.29121 0.39722 0.0
Li1 Li 0.09294 0.32054 0.43116 0.0
Li2 Li 0.11459 0.29495 0.39686 0.0
Li3 Li 0.08934 0.26808 0.42993 0.0
C4 C 0.08472 0.33097 0.37456 0.0
N5 N 0.06829 0.35226 0.33424 0.0
C6 C 0.07173 0.34931 0.37722 0.0
C7 C 0.08957 0.3236 0.35145 0.0
C8 C 0.06352 0.35981 0.35659 0.0
C9 C 0.08107 0.33456 0.33127 0.0
C10 C 0.04066 0.28841 0.43579 0.0
C11 C 1.00137 0.26267 0.43271 0.0
N12 N 0.99081 0.28161 0.4376 0.0
C13 C 0.02948 0.30762 0.44088 0.0
C14 C 1.02657 0.26574 0.43177 0.0
C15 C 1.00423 0.30381 0.44169 0.0
C16 C 1.01706 0.27088 0.36301 0.0
N17 N 0.03038 0.29009 0.37729 0.0
C18 C 0.99556 0.31005 0.36869 0.0
C19 C 1.01955 0.30941 0.38013 0.0
C20 C 0.98129 0.29057 0.35381 0.0
C21 C 0.99285 0.27075 0.35133 0.0
H22 H 1.02493 0.25529 0.36064 0.0
H23 H 0.02929 0.32452 0.39186 0.0
C24 C 0.10087 0.3755 0.43845 0.0
N25 N 0.09336 0.35553 0.44986 0.0
C26 C 0.09958 0.3987 0.44839 0.0
C27 C 0.08355 0.38184 0.48259 0.0
C28 C 0.08482 0.35885 0.47186 0.0
C29 C 0.09073 0.40279 0.471 0.0
H30 H 0.10773 0.37365 0.42112 0.0
H31 H 0.07846 0.34358 0.4813 0.0
C32 C 0.07514 0.24845 0.37517 0.0
N33 N 0.0507 0.21433 0.33952 0.0
C34 C 0.05997 0.22849 0.38153 0.0
C35 C 0.07792 0.25107 0.35072 0.0
C36 C 0.04777 0.21142 0.36323 0.0
C37 C 0.06538 0.23363 0.33295 0.0
C38 C 0.14402 0.30021 0.44197 0.0
C39 C 0.15531 0.28051 0.44219 0.0
C40 C 0.15815 0.32273 0.44758 0.0
C41 C 0.1807 0.28369 0.44809 0.0
C42 C 0.1835 0.32517 0.45339 0.0
N43 N 0.19415 0.30577 0.45351 0.0
C44 C 0.16665 0.31544 0.38165 0.0
C45 C 0.14996 0.27859 0.36131 0.0
C46 C 0.18826 0.3166 0.36961 0.0
N47 N 0.14749 0.29659 0.37766 0.0
C48 C 0.17121 0.27911 0.34885 0.0
C49 C 0.19147 0.29829 0.35255 0.0
H50 H 0.16549 0.32996 0.39444 0.0
H51 H 0.13535 0.26339 0.35766 0.0
C52 C 0.07647 0.23017 0.46881 0.0
N53 N 0.08758 0.23441 0.44821 0.0
C54 C 0.0746 0.20797 0.47963 0.0
C55 C 0.09526 0.19355 0.44844 0.0
C56 C 0.09689 0.21602 0.43827 0.0
C57 C 0.08392 0.18851 0.46973 0.0
H58 H 0.06862 0.244 0.47712 0.0
H59 H 0.10565 0.21849 0.42197 0.0
O60 O 0.09272 0.32024 0.39444 0.0
O61 O 0.06519 0.29182 0.43417 0.0
O62 O 0.08723 0.26531 0.39283 0.0
O63 O 0.11932 0.2975 0.4355 0.0
H64 H 0.06775 0.35517 0.39497 0.0
H65 H 0.09983 0.30959 0.34915 0.0
H66 H 0.0533 0.37392 0.35835 0.0
H67 H 0.08463 0.32901 0.31326 0.0
H68 H 0.99019 0.24525 0.42951 0.0
H69 H 0.04015 0.32529 0.44386 0.0
H70 H 0.035 0.25073 0.42774 0.0
H71 H 0.99528 0.31851 0.44546 0.0
H72 H 0.9881 0.32579 0.37212 0.0
H73 H 0.9834 0.25509 0.34017 0.0
H74 H 0.10584 0.41346 0.43821 0.0
H75 H 0.07631 0.38296 0.4998 0.0
H76 H 0.05756 0.22626 0.40037 0.0
H77 H 0.08961 0.26642 0.34552 0.0
H78 H 0.03594 0.19589 0.36786 0.0
H79 H 0.06731 0.23543 0.31394 0.0
H80 H 0.14457 0.26297 0.43769 0.0
H81 H 0.14963 0.33814 0.44727 0.0
H82 H 0.18973 0.26862 0.44829 0.0
H83 H 0.1947 0.34249 0.45773 0.0
H84 H 0.20253 0.33197 0.37412 0.0
H85 H 0.17135 0.26427 0.3361 0.0
H86 H 0.06533 0.20613 0.49565 0.0
H87 H 0.10324 0.18022 0.43945 0.0
Li88 Li 0.07373 0.82785 0.64236 0.0
Li89 Li 0.09686 0.80443 0.67551 0.0
Li90 Li 0.06955 0.7751 0.64143 0.0
Li91 Li 0.04833 0.80125 0.67533 0.0
C92 C 0.12212 0.80662 0.63645 0.0
N93 N 0.17174 0.81251 0.63359 0.0
C94 C 0.13681 0.82895 0.64138 0.0
C95 C 0.13256 0.78731 0.62989 0.0
C96 C 0.16189 0.83156 0.63989 0.0
C97 C 0.15772 0.79065 0.62857 0.0
C98 C 0.08703 0.84712 0.6978 0.0
C99 C 0.09376 0.86149 0.7402 0.0
N100 N 0.1097 0.88052 0.73488 0.0
C101 C 0.10346 0.86681 0.69272 0.0
C102 C 0.08208 0.8444 0.72169 0.0
C103 C 0.11473 0.88351 0.71174 0.0
C104 C 0.08354 0.86507 0.60171 0.0
N105 N 0.07555 0.86173 0.62405 0.0
C106 C 0.07073 0.90355 0.62551 0.0
C107 C 0.06917 0.88105 0.63566 0.0
C108 C 0.07891 0.9077 0.60248 0.0
C109 C 0.08521 0.8873 0.59086 0.0
H110 H 0.08896 0.85048 0.59194 0.0
H111 H 0.06282 0.87933 0.65328 0.0
C112 C 0.14406 0.78689 0.69172 0.0
N113 N 0.13216 0.80522 0.69611 0.0
C114 C 0.16784 0.78618 0.70374 0.0
C115 C 0.16794 0.82322 0.72524 0.0
C116 C 0.14406 0.82323 0.71281 0.0
C117 C 0.18071 0.8045 0.72104 0.0
H118 H 0.13528 0.77258 0.67845 0.0
H119 H 0.13523 0.83794 0.71669 0.0
C120 C 1.0187 0.79595 0.6315 0.0
N121 N 0.96835 0.7907 0.62305 0.0
C122 C 1.00421 0.77345 0.62821 0.0
C123 C 1.00766 0.81579 0.63057 0.0
C124 C 0.97876 0.77116 0.62393 0.0
C125 C 0.98215 0.81276 0.62625 0.0
C126 C 0.07771 0.76522 0.69829 0.0
C127 C 0.09205 0.74789 0.6962 0.0
C128 C 0.07148 0.77186 0.72105 0.0
C129 C 0.10006 0.73754 0.71702 0.0
C130 C 0.07982 0.76108 0.74144 0.0
N131 N 0.09383 0.7443 0.73902 0.0
C132 C 0.07445 0.73586 0.59981 0.0
C133 C 0.0629 0.72005 0.63541 0.0
C134 C 0.07502 0.71268 0.58906 0.0
N135 N 0.06846 0.73971 0.62291 0.0
C136 C 0.06361 0.69668 0.62547 0.0
C137 C 0.06979 0.69205 0.60171 0.0
H138 H 0.07921 0.75085 0.58942 0.0
H139 H 0.05796 0.72226 0.65359 0.0
C140 C 1.01036 0.81993 0.70599 0.0
N141 N 1.0155 0.80012 0.69421 0.0
C142 C 0.98889 0.81958 0.71806 0.0
C143 C 0.97718 0.77854 0.70624 0.0
C144 C 0.99888 0.77961 0.69443 0.0
C145 C 0.97126 0.79868 0.71864 0.0
H146 H 1.02291 0.83646 0.70609 0.0
H147 H 1.00225 0.76364 0.68533 0.0
O148 O 0.09768 0.80364 0.63848 0.0
O149 O 0.07582 0.8306 0.67946 0.0
O150 O 0.04354 0.79856 0.63671 0.0
O151 O 0.06977 0.77568 0.67819 0.0
H152 H 0.12894 0.84405 0.64652 0.0
H153 H 0.1214 0.76989 0.62613 0.0
H154 H 0.17354 0.84871 0.6438 0.0
H155 H 0.16611 0.77585 0.62365 0.0
H156 H 0.09014 0.85962 0.7588 0.0
H157 H 0.10751 0.86911 0.67431 0.0
H158 H 0.06935 0.82927 0.72587 0.0
H159 H 0.12752 0.89883 0.7081 0.0
H160 H 0.06516 0.91763 0.63594 0.0
H161 H 0.09191 0.88836 0.57337 0.0
H162 H 0.17618 0.77133 0.69894 0.0
H163 H 0.17614 0.83789 0.73834 0.0
H164 H 1.01254 0.75794 0.62916 0.0
H165 H 1.01868 0.83332 0.63336 0.0
H166 H 0.96728 0.75386 0.6214 0.0
H167 H 0.97331 0.82794 0.62552 0.0
H168 H 0.09712 0.74261 0.67872 0.0
H169 H 0.06028 0.78516 0.72292 0.0
H170 H 0.11125 0.72416 0.71569 0.0
H171 H 0.07515 0.76605 0.75918 0.0
H172 H 0.08016 0.71116 0.5709 0.0
H173 H 0.05898 0.68221 0.63655 0.0
H174 H 0.98613 0.83604 0.72661 0.0
H175 H 0.96525 0.76161 0.70573 0.0
Li176 Li 0.56671 0.7935 0.89572 0.0
Li177 Li 0.59418 0.82265 0.93073 0.0
Li178 Li 0.61559 0.79679 0.89766 0.0
Li179 Li 0.59089 0.77017 0.92955 0.0
C180 C 0.59169 0.832 0.87224 0.0
N181 N 0.58735 0.85153 0.82812 0.0
C182 C 0.59136 0.85604 0.87159 0.0
C183 C 0.58995 0.81791 0.8505 0.0
C184 C 0.5891 0.86558 0.84907 0.0
C185 C 0.58773 0.82811 0.82837 0.0
C186 C 0.54151 0.79024 0.93439 0.0
C187 C 0.50316 0.764 0.9356 0.0
N188 N 0.49148 0.78273 0.93522 0.0
C189 C 0.52917 0.80924 0.93408 0.0
C190 C 0.52846 0.76743 0.93517 0.0
C191 C 0.50385 0.80507 0.93448 0.0
C192 C 0.51428 0.77236 0.87209 0.0
N193 N 0.53165 0.79255 0.87596 0.0
C194 C 0.50101 0.81361 0.85727 0.0
C195 C 0.52505 0.81298 0.86863 0.0
C196 C 0.48252 0.79312 0.85317 0.0
C197 C 0.48996 0.77227 0.86093 0.0
H198 H 0.51902 0.75611 0.87806 0.0
H199 H 0.5383 0.82922 0.87205 0.0
C200 C 0.60803 0.86776 0.96987 0.0
N201 N 0.59365 0.85768 0.94876 0.0
C202 C 0.60712 0.89102 0.98015 0.0
C203 C 0.57676 0.89429 0.94739 0.0
C204 C 0.5781 0.871 0.93781 0.0
C205 C 0.59137 0.90533 0.9691 0.0
H206 H 0.62059 0.85792 0.97902 0.0
H207 H 0.5664 0.86365 0.92124 0.0
C208 C 0.59022 0.75173 0.87405 0.0
N209 N 0.59652 0.7202 0.83692 0.0
C210 C 0.61031 0.74034 0.8763 0.0
C211 C 0.57342 0.74725 0.85288 0.0
C212 C 0.61315 0.72441 0.85734 0.0
C213 C 0.5769 0.73121 0.83432 0.0
C214 C 0.64451 0.80067 0.94417 0.0
C215 C 0.65483 0.78043 0.94243 0.0
C216 C 0.65901 0.82203 0.95414 0.0
C217 C 0.67967 0.78193 0.95063 0.0
C218 C 0.68377 0.82279 0.96218 0.0
N219 N 0.6935 0.8029 0.96024 0.0
C220 C 0.67067 0.81093 0.88792 0.0
C221 C 0.64698 0.78689 0.85528 0.0
C222 C 0.69216 0.81193 0.8758 0.0
N223 N 0.64812 0.79837 0.87796 0.0
C224 C 0.66807 0.78734 0.84262 0.0
C225 C 0.69172 0.79996 0.85251 0.0
H226 H 0.67238 0.82046 0.90558 0.0
H227 H 0.62953 0.77718 0.84653 0.0
C228 C 0.57741 0.73225 0.96844 0.0
N229 N 0.58845 0.73632 0.94776 0.0
C230 C 0.57521 0.71 0.97921 0.0
C231 C 0.59548 0.69524 0.94791 0.0
C232 C 0.5974 0.71772 0.93778 0.0
C233 C 0.58415 0.69035 0.96921 0.0
H234 H 0.56987 0.74625 0.97686 0.0
H235 H 0.6062 0.71998 0.92155 0.0
O236 O 0.59375 0.82219 0.89402 0.0
O237 O 0.5661 0.79381 0.933 0.0
O238 O 0.58727 0.7676 0.89225 0.0
O239 O 0.62035 0.7996 0.9359 0.0
H240 H 0.59293 0.86723 0.88825 0.0
H241 H 0.59026 0.79929 0.85074 0.0
H242 H 0.58878 0.88416 0.84824 0.0
H243 H 0.58632 0.81742 0.81139 0.0
H244 H 0.49279 0.74644 0.93611 0.0
H245 H 0.539 0.82696 0.93326 0.0
H246 H 0.53775 0.75252 0.93516 0.0
H247 H 0.49402 0.81959 0.9341 0.0
H248 H 0.4969 0.83042 0.85235 0.0
H249 H 0.47713 0.75573 0.85833 0.0
H250 H 0.61921 0.89779 0.99665 0.0
H251 H 0.56386 0.9034 0.93767 0.0
H252 H 0.6238 0.74408 0.89232 0.0
H253 H 0.5579 0.75612 0.85079 0.0
H254 H 0.62865 0.7155 0.85879 0.0
H255 H 0.56404 0.72753 0.81783 0.0
H256 H 0.64379 0.76378 0.93474 0.0
H257 H 0.65125 0.83786 0.95551 0.0
H258 H 0.68796 0.76643 0.94933 0.0
H259 H 0.69527 0.8392 0.96989 0.0
H260 H 0.70923 0.82194 0.88511 0.0
H261 H 0.66551 0.77793 0.82479 0.0
H262 H 0.56601 0.70829 0.99529 0.0
H263 H 0.60325 0.68178 0.93887 0.0
Li264 Li 0.5725 0.32926 0.13987 0.0
Li265 Li 0.59528 0.30533 0.17286 0.0
Li266 Li 0.56786 0.27664 0.13811 0.0
Li267 Li 0.54681 0.30255 0.17215 0.0
C268 C 0.62134 0.30952 0.13566 0.0
N269 N 0.6717 0.3185 0.1375 0.0
C270 C 0.63409 0.33272 0.1373 0.0
C271 C 0.63414 0.29088 0.1348 0.0
C272 C 0.65956 0.33689 0.13823 0.0
C273 C 0.65962 0.29579 0.1358 0.0
C274 C 0.58599 0.3487 0.19475 0.0
C275 C 0.5927 0.36493 0.23657 0.0
N276 N 0.60922 0.38318 0.23059 0.0
C277 C 0.60293 0.36766 0.18897 0.0
C278 C 0.58071 0.34734 0.21869 0.0
C279 C 0.61452 0.38491 0.20736 0.0
C280 C 0.58249 0.36663 0.09967 0.0
N281 N 0.57438 0.36314 0.12191 0.0
C282 C 0.56938 0.40488 0.12361 0.0
C283 C 0.56785 0.38233 0.13361 0.0
C284 C 0.57768 0.40917 0.10066 0.0
C285 C 0.58414 0.3889 0.08896 0.0
H286 H 0.58802 0.35213 0.08986 0.0
H287 H 0.56138 0.38045 0.15116 0.0
C288 C 0.64636 0.32545 0.20251 0.0
N289 N 0.63023 0.30527 0.19353 0.0
C290 C 0.6702 0.32494 0.21466 0.0
C291 C 0.66148 0.28295 0.20861 0.0
C292 C 0.63782 0.28423 0.19657 0.0
C293 C 0.67866 0.30346 0.21807 0.0
H294 H 0.64105 0.34229 0.20003 0.0
H295 H 0.62568 0.26807 0.18917 0.0
C296 C 0.51737 0.29807 0.12821 0.0
N297 N 0.46712 0.29361 0.11925 0.0
C298 C 0.50256 0.27574 0.12439 0.0
C299 C 0.50669 0.31815 0.12753 0.0
C300 C 0.47717 0.27385 0.11987 0.0
C301 C 0.48123 0.31552 0.12295 0.0
C302 C 0.57288 0.26446 0.1943 0.0
C303 C 0.57178 0.24013 0.19126 0.0
C304 C 0.57907 0.27619 0.21756 0.0
C305 C 0.57706 0.22793 0.2116 0.0
C306 C 0.58425 0.26338 0.23744 0.0
N307 N 0.58315 0.23971 0.23407 0.0
C308 C 0.58474 0.22907 0.12724 0.0
C309 C 0.54991 0.2309 0.10031 0.0
C310 C 0.58542 0.20588 0.11688 0.0
N311 N 0.56716 0.24168 0.11918 0.0
C312 C 0.54997 0.20766 0.0894 0.0
C313 C 0.56787 0.19409 0.09742 0.0
H314 H 0.59853 0.23683 0.1422 0.0
H315 H 0.53562 0.24013 0.09354 0.0
C316 C 0.50959 0.32099 0.20386 0.0
N317 N 0.51397 0.30148 0.19089 0.0
C318 C 0.4881 0.3207 0.21586 0.0
C319 C 0.47477 0.28037 0.20141 0.0
C320 C 0.49655 0.28135 0.18977 0.0
C321 C 0.46965 0.3002 0.21505 0.0
H322 H 0.52277 0.33724 0.20497 0.0
H323 H 0.49932 0.26563 0.1797 0.0
O324 O 0.59654 0.30518 0.13584 0.0
O325 O 0.57449 0.33167 0.17698 0.0
O326 O 0.54215 0.30029 0.13358 0.0
O327 O 0.56805 0.27679 0.17461 0.0
H328 H 0.62442 0.34732 0.13804 0.0
H329 H 0.62455 0.27285 0.13366 0.0
H330 H 0.66969 0.35476 0.13962 0.0
H331 H 0.6698 0.28154 0.13532 0.0
H332 H 0.58883 0.36409 0.2552 0.0
H333 H 0.60718 0.36898 0.1705 0.0
H334 H 0.56743 0.33291 0.2234 0.0
H335 H 0.62774 0.39964 0.20317 0.0
H336 H 0.56368 0.41886 0.13406 0.0
H337 H 0.59095 0.39012 0.07153 0.0
H338 H 0.68183 0.34155 0.22145 0.0
H339 H 0.66632 0.26575 0.20988 0.0
H340 H 0.51059 0.26004 0.12516 0.0
H341 H 0.51796 0.33556 0.13071 0.0
H342 H 0.46544 0.25668 0.11694 0.0
H343 H 0.47267 0.33088 0.12242 0.0
H344 H 0.56675 0.23074 0.17342 0.0
H345 H 0.58011 0.29502 0.22017 0.0
H346 H 0.57628 0.20909 0.20952 0.0
H347 H 0.58919 0.27225 0.25553 0.0
H348 H 0.60008 0.19743 0.12427 0.0
H349 H 0.53554 0.20035 0.07487 0.0
H350 H 0.48594 0.33689 0.22545 0.0
H351 H 0.46214 0.26375 0.19981 0.0
Li352 Li 0.14122 0.88951 0.16125 0.0
Li353 Li 0.16811 0.88416 0.19438 0.0
Li354 Li 0.148 0.85032 0.1653 0.0
Li355 Li 0.12468 0.8707 0.19562 0.0
C356 C 0.18361 0.88968 0.14256 0.0
N357 N 0.20639 0.91399 0.10758 0.0
C358 C 0.19459 0.91337 0.14762 0.0
C359 C 0.18457 0.87824 0.11984 0.0
C360 C 0.20589 0.9254 0.12965 0.0
C361 C 0.1961 0.89086 0.10237 0.0
C362 C 0.15042 0.92151 0.21213 0.0
C363 C 0.15195 0.93954 0.2528 0.0
N364 N 0.16754 0.95864 0.2471 0.0
C365 C 0.16619 0.94145 0.20658 0.0
C366 C 0.14299 0.92064 0.23533 0.0
C367 C 0.17475 0.95999 0.22455 0.0
C368 C 0.12266 0.92791 0.14481 0.0
N369 N 0.13228 0.9092 0.13715 0.0
C370 C 0.12267 0.91636 0.09554 0.0
C371 C 0.13241 0.90317 0.11308 0.0
C372 C 0.11227 0.93552 0.10297 0.0
C373 C 0.11244 0.94137 0.12792 0.0
H374 H 0.12226 0.93192 0.16404 0.0
H375 H 0.13914 0.88759 0.10744 0.0
C376 C 0.21874 0.89154 0.20695 0.0
N377 N 0.19762 0.8938 0.21594 0.0
C378 C 0.23941 0.88945 0.22271 0.0
C379 C 0.21697 0.89475 0.25674 0.0
C380 C 0.19665 0.89643 0.24031 0.0
C381 C 0.23816 0.88962 0.2479 0.0
H382 H 0.21881 0.88875 0.18751 0.0
H383 H 0.17944 0.89712 0.24704 0.0
C384 C 0.09884 0.86225 0.14148 0.0
N385 N 0.06484 0.86747 0.10292 0.0
C386 C 0.08114 0.87602 0.14489 0.0
C387 C 0.09912 0.85093 0.11855 0.0
C388 C 0.06417 0.87852 0.12513 0.0
C389 C 0.08177 0.85381 0.09927 0.0
C390 C 0.16688 0.84328 0.21723 0.0
C391 C 0.1867 0.83505 0.20878 0.0
C392 C 0.1635 0.84226 0.24174 0.0
C393 C 0.20283 0.82585 0.22503 0.0
C394 C 0.17998 0.83284 0.2574 0.0
N395 N 0.19912 0.82487 0.24878 0.0
C396 C 0.16858 0.81489 0.14135 0.0
C397 C 0.12758 0.80456 0.14972 0.0
C398 C 0.16786 0.79208 0.13108 0.0
N399 N 0.14859 0.82052 0.15041 0.0
C400 C 0.12602 0.78167 0.13961 0.0
C401 C 0.14635 0.77515 0.13019 0.0
H402 H 0.1851 0.82801 0.14235 0.0
H403 H 0.1121 0.80963 0.1573 0.0
C404 C 0.08336 0.88005 0.21648 0.0
N405 N 0.09873 0.8645 0.21432 0.0
C406 C 0.06314 0.87453 0.22904 0.0
C407 C 0.0754 0.83741 0.23724 0.0
C408 C 0.09524 0.84356 0.22438 0.0
C409 C 0.05891 0.85289 0.23944 0.0
H410 H 0.08665 0.89655 0.20817 0.0
H411 H 0.1076 0.83143 0.22196 0.0
O412 O 0.17265 0.87756 0.16 0.0
O413 O 0.1416 0.90332 0.19469 0.0
O414 O 0.116 0.86007 0.16043 0.0
O415 O 0.1509 0.85236 0.20158 0.0
H416 H 0.19451 0.92231 0.16528 0.0
H417 H 0.17624 0.85988 0.11564 0.0
H418 H 0.21435 0.94378 0.13328 0.0
H419 H 0.19682 0.88227 0.08465 0.0
H420 H 0.14654 0.939 0.27089 0.0
H421 H 0.17157 0.9427 0.18854 0.0
H422 H 0.13072 0.90538 0.23992 0.0
H423 H 0.18704 0.97549 0.22053 0.0
H424 H 0.12268 0.91131 0.07641 0.0
H425 H 0.10484 0.95626 0.13428 0.0
H426 H 0.25516 0.88518 0.21497 0.0
H427 H 0.21527 0.89519 0.27601 0.0
H428 H 0.08077 0.88497 0.16251 0.0
H429 H 0.11277 0.84028 0.1156 0.0
H430 H 0.05051 0.88931 0.12743 0.0
H431 H 0.08185 0.84529 0.08137 0.0
H432 H 0.18976 0.83604 0.18994 0.0
H433 H 0.14839 0.84877 0.24862 0.0
H434 H 0.21833 0.81953 0.21879 0.0
H435 H 0.17762 0.83193 0.27642 0.0
H436 H 0.18389 0.78775 0.12394 0.0
H437 H 0.10926 0.76905 0.13973 0.0
H438 H 0.05088 0.88697 0.23048 0.0
H439 H 0.07254 0.82041 0.24468 0.0
Li440 Li 0.51511 0.75027 0.40689 0.0
Li441 Li 0.49449 0.72095 0.37422 0.0
Li442 Li 0.5219 0.71058 0.40721 0.0
Li443 Li 0.53739 0.73479 0.37618 0.0
C444 C 0.47657 0.7302 0.42512 0.0
N445 N 0.44881 0.74943 0.45639 0.0
C446 C 0.45308 0.73373 0.41658 0.0
C447 C 0.48594 0.73651 0.44957 0.0
C448 C 0.43932 0.74343 0.43268 0.0
C449 C 0.47164 0.74622 0.46508 0.0
C450 C 0.52065 0.77037 0.35726 0.0
C451 C 0.53524 0.78151 0.31953 0.0
N452 N 0.54168 0.80426 0.32911 0.0
C453 C 0.5274 0.79391 0.36667 0.0
C454 C 0.52454 0.76415 0.33342 0.0
C455 C 0.538 0.81075 0.35217 0.0
C456 C 0.53592 0.78971 0.43829 0.0
N457 N 0.51439 0.77871 0.42536 0.0
C458 C 0.4963 0.81254 0.43241 0.0
C459 C 0.49459 0.78943 0.42253 0.0
C460 C 0.51874 0.82468 0.44477 0.0
C461 C 0.53849 0.8128 0.44827 0.0
H462 H 0.55157 0.78108 0.43963 0.0
H463 H 0.478 0.7806 0.41137 0.0
C464 C 0.44546 0.6966 0.35876 0.0
N465 N 0.46504 0.71139 0.35249 0.0
C466 C 0.42257 0.69414 0.34476 0.0
C467 C 0.44124 0.72011 0.31689 0.0
C468 C 0.46355 0.72222 0.3315 0.0
C469 C 0.42009 0.70698 0.32416 0.0
H470 H 0.44723 0.68808 0.37554 0.0
H471 H 0.4793 0.73383 0.32693 0.0
C472 C 0.56497 0.73408 0.42693 0.0
N473 N 0.60107 0.71995 0.45781 0.0
C474 C 0.58365 0.7247 0.41744 0.0
C475 C 0.56473 0.7364 0.45214 0.0
C476 C 0.60172 0.71765 0.43336 0.0
C477 C 0.58312 0.72911 0.46744 0.0
C478 C 0.50714 0.68351 0.35679 0.0
C479 C 0.49431 0.66418 0.3667 0.0
C480 C 0.50514 0.68439 0.33153 0.0
C481 C 0.47965 0.64598 0.35111 0.0
C482 C 0.49026 0.66584 0.31655 0.0
N483 N 0.47794 0.64718 0.32657 0.0
C484 C 0.52514 0.68558 0.44998 0.0
C485 C 0.54526 0.67345 0.41732 0.0
C486 C 0.53494 0.67001 0.46479 0.0
N487 N 0.53067 0.68712 0.42684 0.0
C488 C 0.55527 0.65756 0.43138 0.0
C489 C 0.55029 0.65586 0.45548 0.0
H490 H 0.51363 0.69677 0.45711 0.0
H491 H 0.54965 0.67541 0.39899 0.0
C492 C 0.57863 0.76488 0.36696 0.0
N493 N 0.56462 0.74343 0.35966 0.0
C494 C 0.59908 0.77295 0.35566 0.0
C495 C 0.5907 0.7363 0.33007 0.0
C496 C 0.5702 0.72903 0.34173 0.0
C497 C 0.60542 0.75855 0.33702 0.0
H498 H 0.57374 0.77577 0.38148 0.0
H499 H 0.55888 0.71189 0.33667 0.0
O500 O 0.49032 0.72064 0.40967 0.0
O501 O 0.51042 0.75354 0.3713 0.0
O502 O 0.54665 0.7404 0.41162 0.0
O503 O 0.52104 0.70179 0.37178 0.0
H504 H 0.44559 0.72926 0.3977 0.0
H505 H 0.50424 0.73437 0.45641 0.0
H506 H 0.42113 0.74628 0.42631 0.0
H507 H 0.47873 0.75129 0.484 0.0
H508 H 0.53858 0.77686 0.30119 0.0
H509 H 0.52461 0.7992 0.38497 0.0
H510 H 0.52008 0.74599 0.32594 0.0
H511 H 0.54334 0.829 0.35928 0.0
H512 H 0.48079 0.8213 0.42905 0.0
H513 H 0.55605 0.82161 0.45776 0.0
H514 H 0.40672 0.68374 0.35092 0.0
H515 H 0.44026 0.73061 0.30142 0.0
H516 H 0.584 0.72251 0.39799 0.0
H517 H 0.5503 0.74342 0.45979 0.0
H518 H 0.6162 0.71022 0.42626 0.0
H519 H 0.58306 0.73063 0.48697 0.0
H520 H 0.49545 0.66337 0.38623 0.0
H521 H 0.51467 0.69939 0.32358 0.0
H522 H 0.46956 0.63093 0.35851 0.0
H523 H 0.48844 0.66633 0.29697 0.0
H524 H 0.53042 0.6689 0.4832 0.0
H525 H 0.56714 0.64701 0.42363 0.0
H526 H 0.6097 0.79033 0.3614 0.0
H527 H 0.59521 0.72446 0.31611 0.0
Li528 Li 0.6471 0.38499 0.67167 0.0
Li529 Li 0.67762 0.37741 0.70189 0.0
Li530 Li 0.65536 0.34547 0.66963 0.0
Li531 Li 0.63495 0.36138 0.70238 0.0
C532 C 0.6867 0.38022 0.64416 0.0
N533 N 0.70401 0.39025 0.60051 0.0
C534 C 0.70586 0.39918 0.64339 0.0
C535 C 0.67669 0.3661 0.62276 0.0
C536 C 0.71425 0.40404 0.62113 0.0
C537 C 0.68561 0.37153 0.60087 0.0
C538 C 0.66147 0.41804 0.71228 0.0
C539 C 0.66646 0.45494 0.7367 0.0
N540 N 0.68253 0.46509 0.72209 0.0
C541 C 0.67804 0.42884 0.69755 0.0
C542 C 0.65562 0.43118 0.73203 0.0
C543 C 0.68848 0.45263 0.70278 0.0
C544 C 0.6209 0.42068 0.66367 0.0
N545 N 0.63518 0.40773 0.65252 0.0
C546 C 0.62697 0.42509 0.61523 0.0
C547 C 0.6382 0.40948 0.62869 0.0
C548 C 0.61253 0.43894 0.62648 0.0
C549 C 0.60945 0.43657 0.65097 0.0
H550 H 0.61793 0.41827 0.68233 0.0
H551 H 0.64884 0.39854 0.61989 0.0
C552 C 0.72825 0.38368 0.71158 0.0
N553 N 0.70787 0.38682 0.72151 0.0
C554 C 0.74978 0.38292 0.72664 0.0
C555 C 0.72938 0.39069 0.76164 0.0
C556 C 0.7083 0.39154 0.74586 0.0
C557 C 0.74997 0.38495 0.75204 0.0
H558 H 0.72714 0.37955 0.69215 0.0
H559 H 0.69167 0.39384 0.75315 0.0
C560 C 0.60407 0.35954 0.65283 0.0
N561 N 0.56555 0.37045 0.62259 0.0
C562 C 0.58554 0.36881 0.66273 0.0
C563 C 0.60289 0.35558 0.62758 0.0
C564 C 0.56624 0.37426 0.64713 0.0
C565 C 0.5833 0.36129 0.61259 0.0
C566 C 0.65617 0.3288 0.72212 0.0
C567 C 0.6465 0.30516 0.71467 0.0
C568 C 0.65837 0.33672 0.74673 0.0
C569 C 0.63901 0.28985 0.732 0.0
C570 C 0.65065 0.32086 0.76349 0.0
N571 N 0.6412 0.29795 0.75585 0.0
C572 C 0.67753 0.30934 0.64992 0.0
C573 C 0.63417 0.30372 0.64295 0.0
C574 C 0.67703 0.28663 0.63951 0.0
N575 N 0.65623 0.31715 0.6517 0.0
C576 C 0.6328 0.281 0.63249 0.0
C577 C 0.65438 0.27199 0.63109 0.0
H578 H 0.69477 0.32044 0.65733 0.0
H579 H 0.61754 0.31028 0.64516 0.0
C580 C 0.60528 0.36581 0.74007 0.0
N581 N 0.60965 0.35178 0.72116 0.0
C582 C 0.58443 0.35929 0.75151 0.0
C583 C 0.57371 0.32371 0.72425 0.0
C584 C 0.59464 0.33095 0.71333 0.0
C585 C 0.56807 0.33822 0.74322 0.0
H586 H 0.6175 0.3824 0.74567 0.0
H587 H 0.5986 0.32033 0.69807 0.0
O588 O 0.67867 0.37488 0.66592 0.0
O589 O 0.65096 0.39474 0.7076 0.0
O590 O 0.62343 0.35465 0.66779 0.0
O591 O 0.66315 0.34417 0.70536 0.0
H592 H 0.71428 0.40998 0.65983 0.0
H593 H 0.66193 0.35136 0.62291 0.0
H594 H 0.72899 0.41871 0.62027 0.0
H595 H 0.67787 0.36087 0.58416 0.0
H596 H 0.66209 0.46531 0.75193 0.0
H597 H 0.68266 0.41903 0.68215 0.0
H598 H 0.64283 0.42309 0.74365 0.0
H599 H 0.7013 0.4612 0.69146 0.0
H600 H 0.62991 0.4266 0.59638 0.0
H601 H 0.59819 0.44678 0.66016 0.0
H602 H 0.76512 0.37812 0.71851 0.0
H603 H 0.72888 0.39234 0.78113 0.0
H604 H 0.58623 0.37211 0.68224 0.0
H605 H 0.61707 0.34842 0.61963 0.0
H606 H 0.55188 0.38162 0.65452 0.0
H607 H 0.58224 0.35849 0.593 0.0
H608 H 0.64465 0.29872 0.69571 0.0
H609 H 0.66563 0.35499 0.75276 0.0
H610 H 0.6314 0.27152 0.72649 0.0
H611 H 0.6521 0.32679 0.78258 0.0
H612 H 0.69409 0.28039 0.63862 0.0
H613 H 0.61494 0.27022 0.62673 0.0
H614 H 0.58062 0.37107 0.76592 0.0
H615 H 0.56179 0.30718 0.71756 0.0
Li616 Li 1.02134 0.24844 0.91387 0.0
Li617 Li 1.00335 0.21502 0.8869 0.0
Li618 Li 0.03089 0.21095 0.92275 0.0
Li619 Li 0.04651 0.22902 0.88658 0.0
C620 C 0.98299 0.23013 0.93467 0.0
N621 N 0.95177 0.2505 0.9609 0.0
C622 C 0.96953 0.24597 0.92415 0.0
C623 C 0.98011 0.22426 0.95838 0.0
C624 C 0.95399 0.25621 0.93774 0.0
C625 C 0.96435 0.23483 0.97138 0.0
C626 C 1.00886 0.24986 0.85558 0.0
C627 C 1.00817 0.24849 0.81192 0.0
N628 N 0.98772 0.2583 0.81017 0.0
C629 C 0.98782 0.25994 0.85331 0.0
C630 C 1.01916 0.24415 0.83469 0.0
C631 C 0.97742 0.26406 0.83022 0.0
C632 C 1.01653 0.29517 0.9119 0.0
N633 N 1.01899 0.27839 0.92759 0.0
C634 C 1.02095 0.30611 0.96177 0.0
C635 C 1.02107 0.28328 0.95212 0.0
C636 C 1.01845 0.32376 0.9459 0.0
C637 C 1.01598 0.31805 0.9207 0.0
H638 H 1.01559 0.29093 0.89256 0.0
H639 H 1.02315 0.26952 0.96411 0.0
C640 C 0.95239 0.20333 0.87389 0.0
N641 N 0.97401 0.20269 0.86521 0.0
C642 C 0.93136 0.20369 0.85787 0.0
C643 C 0.95444 0.19924 0.8242 0.0
C644 C 0.97506 0.19902 0.84093 0.0
C645 C 0.93266 0.20321 0.83268 0.0
H646 H 0.95187 0.20572 0.89325 0.0
H647 H 0.99243 0.19837 0.83443 0.0
C648 C 0.07418 0.23898 0.93714 0.0
N649 N 0.11392 0.23352 0.96933 0.0
C650 C 0.09019 0.22454 0.93017 0.0
C651 C 0.07844 0.25075 0.96043 0.0
C652 C 0.11016 0.22198 0.94672 0.0
C653 C 0.09863 0.24775 0.97645 0.0
C654 C 1.01786 0.17484 0.87884 0.0
C655 C 1.00141 0.16123 0.89182 0.0
C656 C 1.02086 0.16674 0.85533 0.0
C657 C 0.98806 0.1397 0.88093 0.0
C658 C 1.00716 0.14511 0.84508 0.0
N659 N 0.99118 0.13216 0.85798 0.0
C660 C 0.03958 0.20213 0.97217 0.0
C661 C 0.05141 0.175 0.94411 0.0
C662 C 0.04859 0.19076 0.99179 0.0
N663 N 0.04082 0.19387 0.94894 0.0
C664 C 0.06104 0.16338 0.96316 0.0
C665 C 0.05956 0.17121 0.98733 0.0
H666 H 0.03213 0.21787 0.97545 0.0
H667 H 0.05272 0.16924 0.92546 0.0
C668 C 0.08214 0.25931 0.86855 0.0
N669 N 0.07337 0.23598 0.8691 0.0
C670 C 0.10211 0.2668 0.8563 0.0
C671 C 0.10362 0.226 0.84537 0.0
C672 C 0.08354 0.21928 0.85789 0.0
C673 C 0.11319 0.25007 0.84458 0.0
H674 H 0.0735 0.2721 0.87763 0.0
H675 H 0.07619 0.20083 0.85883 0.0
O676 O 0.99828 0.21986 0.92159 0.0
O677 O 1.01965 0.24611 0.87811 0.0
O678 O 0.05406 0.24105 0.92149 0.0
O679 O 0.03081 0.19608 0.8891 0.0
H680 H 0.97121 0.25042 0.90573 0.0
H681 H 0.98963 0.21141 0.96656 0.0
H682 H 0.94368 0.26866 0.92986 0.0
H683 H 0.96201 0.23048 0.98976 0.0
H684 H 1.01588 0.24404 0.79562 0.0
H685 H 0.97959 0.26462 0.86916 0.0
H686 H 0.03528 0.23617 0.83595 0.0
H687 H 0.96113 0.27181 0.82823 0.0
H688 H 1.02292 0.30998 0.98133 0.0
H689 H 1.01452 0.33134 0.90794 0.0
H690 H 0.91503 0.20672 0.86536 0.0
H691 H 0.95614 0.19829 0.80493 0.0
H692 H 0.08697 0.21506 0.91232 0.0
H693 H 0.06617 0.26193 0.96614 0.0
H694 H 0.1226 0.21072 0.94164 0.0
H695 H 0.10209 0.25666 0.99457 0.0
H696 H 0.99887 0.16733 0.91003 0.0
H697 H 0.03345 0.17716 0.84503 0.0
H698 H 0.97519 0.12899 0.89071 0.0
H699 H 1.0092 0.13865 0.82685 0.0
H700 H 0.04726 0.19731 1.01022 0.0
H701 H 0.06915 0.14815 0.95905 0.0
H702 H 0.10865 0.28551 0.85583 0.0
H703 H 0.11181 0.21255 0.83677 0.0
Li704 Li 0.52423 0.12683 0.35738 0.0
Li705 Li 0.50201 0.08992 0.33498 0.0
Li706 Li 0.52148 0.12137 0.31497 0.0
Li707 Li 0.4843 0.1251 0.33075 0.0
C708 C 0.55037 0.09036 0.35374 0.0
N709 N 0.5762 0.06519 0.3848 0.0
C710 C 0.54331 0.08604 0.37667 0.0
C711 C 0.57057 0.0818 0.34662 0.0
C712 C 0.55659 0.07332 0.39211 0.0
C713 C 0.58338 0.06912 0.36257 0.0
C714 C 0.47333 0.09524 0.37179 0.0
C715 C 0.43239 0.07291 0.37035 0.0
N716 N 0.43796 0.06724 0.3935 0.0
C717 C 0.47858 0.08931 0.39566 0.0
C718 C 0.44998 0.0871 0.35912 0.0
C719 C 0.46048 0.07509 0.40627 0.0
C720 C 0.56915 0.14189 0.38567 0.0
N721 N 0.54462 0.13977 0.38613 0.0
C722 C 0.5496 0.14052 0.42933 0.0
C723 C 0.53481 0.14062 0.40735 0.0
C724 C 0.57444 0.13922 0.4291 0.0
C725 C 0.58457 0.1416 0.4072 0.0
H726 H 0.57627 0.14084 0.36839 0.0
H727 H 0.51518 0.13869 0.407 0.0
C728 C 0.50516 0.04048 0.34125 0.0
N729 N 0.49107 0.05623 0.3336 0.0
C730 C 0.49566 0.01634 0.33835 0.0
C731 C 0.45758 0.02485 0.31914 0.0
C732 C 0.46774 0.04877 0.32252 0.0
C733 C 0.47158 1.00828 0.32711 0.0
H734 H 0.52388 0.04633 0.34917 0.0
H735 H 0.45705 0.06142 0.31589 0.0
C736 C 0.52481 0.16608 0.32007 0.0
N737 N 0.54529 0.19862 0.29038 0.0
C738 C 0.50995 0.17422 0.30171 0.0
C739 C 0.55004 0.17459 0.32349 0.0
C740 C 0.52067 0.19066 0.28685 0.0
C741 C 0.56005 0.191 0.30824 0.0
C742 C 0.4895 0.08678 0.28515 0.0
C743 C 0.50909 0.07477 0.28443 0.0
C744 C 0.47081 0.08319 0.26553 0.0
C745 C 0.50976 0.05962 0.26403 0.0
C746 C 0.47212 0.06784 0.24547 0.0
N747 N 0.49142 0.0565 0.24512 0.0
C748 C 0.56253 0.12276 0.29064 0.0
C749 C 0.52713 0.12988 0.26645 0.0
C750 C 0.57359 0.11872 0.2699 0.0
N751 N 0.53928 0.12699 0.28837 0.0
C752 C 0.53752 0.12609 0.24526 0.0
C753 C 0.56042 0.11906 0.24685 0.0
H754 H 0.57163 0.12054 0.30838 0.0
H755 H 0.50855 0.13302 0.26528 0.0
C756 C 0.44299 0.14172 0.34572 0.0
N757 N 0.45393 0.13507 0.32645 0.0
C758 C 0.419 0.14583 0.34203 0.0
C759 C 0.41842 0.13653 0.29881 0.0
C760 C 0.44236 0.13273 0.30332 0.0
C761 C 0.40633 0.1429 0.31833 0.0
H762 H 0.45262 0.14312 0.36397 0.0
H763 H 0.45165 0.12754 0.28842 0.0
O764 O 0.53797 0.10316 0.33838 0.0
O765 O 0.49084 0.10921 0.36109 0.0
O766 O 0.51473 0.14962 0.33444 0.0
O767 O 0.48866 0.10224 0.30467 0.0
H768 H 0.52771 0.09232 0.38244 0.0
H769 H 0.57629 0.08487 0.32893 0.0
H770 H 0.55131 0.06993 0.40991 0.0
H771 H 0.59905 0.06241 0.35727 0.0
H772 H 0.4143 0.0664 0.36065 0.0
H773 H 0.49637 0.09566 0.406 0.0
H774 H 0.44548 0.09149 0.34069 0.0
H775 H 0.46433 0.07035 0.4247 0.0
H776 H 0.54104 0.13846 0.44582 0.0
H777 H 0.60363 0.14062 0.40637 0.0
H778 H 0.50723 1.00409 0.34438 0.0
H779 H 0.43888 0.01943 0.3105 0.0
H780 H 0.49038 0.16775 0.29883 0.0
H781 H 0.56177 0.16839 0.33761 0.0
H782 H 0.50942 0.19704 0.27248 0.0
H783 H 0.57957 0.19764 0.31056 0.0
H784 H 0.52376 0.07716 0.29934 0.0
H785 H 0.45544 0.09219 0.26573 0.0
H786 H 0.52489 0.05037 0.26321 0.0
H787 H 0.45779 0.06497 0.23016 0.0
H788 H 0.59124 0.1133 0.27188 0.0
H789 H 0.52698 0.12687 0.22778 0.0
H790 H 0.41031 0.1508 0.35753 0.0
H791 H 0.40955 0.13472 0.2802 0.0
Li792 Li 0.35095 0.19084 0.55261 0.0
Li793 Li 0.3738 0.15975 0.53058 0.0
Li794 Li 0.34858 0.1907 0.50314 0.0
Li795 Li 0.32193 0.15643 0.52794 0.0
C796 C 0.39635 0.21532 0.5392 0.0
N797 N 0.4314 0.25406 0.55772 0.0
C798 C 0.41578 0.21278 0.55646 0.0
C799 C 0.39496 0.23748 0.53105 0.0
C800 C 0.43326 0.2326 0.56568 0.0
C801 C 0.4128 0.25687 0.54072 0.0
C802 C 0.35243 0.1538 0.58051 0.0
C803 C 0.33751 0.14049 0.61732 0.0
N804 N 0.3588 0.1519 0.63046 0.0
C805 C 0.37426 0.16517 0.59434 0.0
C806 C 0.33397 0.14119 0.59204 0.0
C807 C 0.3771 0.1641 0.61958 0.0
C808 C 0.32991 0.20442 0.59877 0.0
N809 N 0.35006 0.21055 0.58697 0.0
C810 C 0.36678 0.23972 0.62154 0.0
C811 C 0.36834 0.22814 0.59831 0.0
C812 C 0.34614 0.23376 0.63424 0.0
C813 C 0.32761 0.21558 0.62189 0.0
H814 H 0.31533 0.19044 0.5904 0.0
H815 H 0.38449 0.23336 0.58952 0.0
C816 C 0.41044 0.12904 0.51136 0.0
N817 N 0.40574 0.14191 0.53139 0.0
C818 C 0.43142 0.11776 0.51166 0.0
C819 C 0.44361 0.13278 0.553 0.0
C820 C 0.42232 0.14359 0.55204 0.0
C821 C 0.44902 0.11932 0.53266 0.0
H822 H 0.39796 0.12744 0.49468 0.0
H823 H 0.41926 0.15347 0.56823 0.0
C824 C 0.31139 0.20895 0.53523 0.0
N825 N 0.29088 0.24451 0.55534 0.0
C826 C 0.28856 0.20369 0.54356 0.0
C827 C 0.32369 0.2323 0.53696 0.0
C828 C 0.27851 0.22191 0.5537 0.0
C829 C 0.31306 0.25003 0.54724 0.0
C830 C 0.33547 0.13631 0.48334 0.0
C831 C 0.31944 0.14052 0.46354 0.0
C832 C 0.34075 0.11375 0.48544 0.0
C833 C 0.30911 0.12205 0.44596 0.0
C834 C 0.33003 0.09574 0.46749 0.0
N835 N 0.31457 0.10023 0.44828 0.0
C836 C 0.35251 0.19687 0.44792 0.0
C837 C 0.34221 0.23013 0.46731 0.0
C838 C 0.35148 0.2073 0.42509 0.0
N839 N 0.3478 0.20805 0.46898 0.0
C840 C 0.34119 0.24126 0.44486 0.0
C841 C 0.34573 0.23009 0.42269 0.0
H842 H 0.35712 0.17951 0.44855 0.0
H843 H 0.3383 0.23945 0.48348 0.0
C844 C 0.27529 0.13813 0.54853 0.0
N845 N 0.28653 0.13559 0.5281 0.0
C846 C 0.25107 0.12624 0.55012 0.0
C847 C 0.24922 0.10863 0.50968 0.0
C848 C 0.27363 0.12086 0.50886 0.0
C849 C 0.237 0.11114 0.5305 0.0
H850 H 0.28497 0.1499 0.56382 0.0
H851 H 0.28199 0.11869 0.49244 0.0
O852 O 0.37894 0.19618 0.53008 0.0
O853 O 0.34908 0.15531 0.55587 0.0
O854 O 0.32194 0.19131 0.52597 0.0
O855 O 0.34562 0.1541 0.5008 0.0
H856 H 0.41739 0.19571 0.56263 0.0
H857 H 0.38036 0.23965 0.51728 0.0
H858 H 0.44833 0.23092 0.57914 0.0
H859 H 0.41189 0.27415 0.53466 0.0
H860 H 0.32334 0.13085 0.62649 0.0
H861 H 0.38866 0.17508 0.58572 0.0
H862 H 0.31717 0.1319 0.58158 0.0
H863 H 0.3938 0.17304 0.63052 0.0
H864 H 0.3818 0.25355 0.62928 0.0
H865 H 0.31132 0.20945 0.63015 0.0
H866 H 0.43392 0.10815 0.49506 0.0
H867 H 0.45563 0.13484 0.57002 0.0
H868 H 0.27867 0.18578 0.54217 0.0
H869 H 0.34138 0.23666 0.5307 0.0
H870 H 0.26089 0.21808 0.56027 0.0
H871 H 0.32247 0.26817 0.54882 0.0
H872 H 0.31491 0.15783 0.46185 0.0
H873 H 0.35294 0.11019 0.50082 0.0
H874 H 0.29668 0.12504 0.43052 0.0
H875 H 0.33396 0.07819 0.46885 0.0
H876 H 0.35558 0.19739 0.4094 0.0
H877 H 0.33637 0.25856 0.44499 0.0
H878 H 0.2436 0.12898 0.56697 0.0
H879 H 0.23989 0.09768 0.49369 0.0
Li880 Li 0.24311 0.10399 0.86025 0.0
Li881 Li 0.219 0.07366 0.87804 0.0
Li882 Li 0.25006 0.0648 0.8518 0.0
Li883 Li 0.21054 0.07685 0.83559 0.0
C884 C 0.27429 0.09718 0.89839 0.0
N885 N 0.31297 0.1259 0.9274 0.0
C886 C 0.27007 0.11565 0.91383 0.0
C887 C 0.29818 0.09324 0.89781 0.0
C888 C 0.28987 0.13001 0.9283 0.0
C889 C 0.31749 0.10797 0.9126 0.0
C890 C 0.19227 0.10636 0.8772 0.0
C891 C 0.15322 0.09925 0.89258 0.0
N892 N 0.16103 0.11817 0.90915 0.0
C893 C 0.19986 0.1258 0.89431 0.0
C894 C 0.16869 0.09305 0.87622 0.0
C895 C 0.18381 0.13147 0.91031 0.0
C896 C 0.24427 0.15137 0.85441 0.0
N897 N 0.25902 0.13598 0.86126 0.0
C898 C 0.29468 0.16438 0.85774 0.0
C899 C 0.28381 0.14217 0.86345 0.0
C900 C 0.27985 0.18011 0.84909 0.0
C901 C 0.25434 0.17363 0.84822 0.0
H902 H 0.22462 0.14569 0.85185 0.0
H903 H 0.29516 0.12935 0.86774 0.0
C904 C 0.18496 0.04442 0.90053 0.0
N905 N 0.20281 0.06395 0.90463 0.0
C906 C 0.16761 0.04006 0.91654 0.0
C907 C 0.18922 0.07446 0.94215 0.0
C908 C 0.206 0.07826 0.9255 0.0
C909 C 0.16902 0.05586 0.93705 0.0
H910 H 0.1832 0.03307 0.88406 0.0
H911 H 0.22045 0.09357 0.92836 0.0
C912 C 0.25432 0.1044 0.81446 0.0
N913 N 0.27514 0.14065 0.78903 0.0
C914 C 0.23961 0.11825 0.80218 0.0
C915 C 0.27957 0.10878 0.81358 0.0
C916 C 0.2505 0.13655 0.78948 0.0
C917 C 0.28976 0.12725 0.80067 0.0
C918 C 0.20137 0.03011 0.8364 0.0
C919 C 0.2124 1.01477 0.8228 0.0
C920 C 0.1758 0.02713 0.83398 0.0
C921 C 0.1977 0.99686 0.80686 0.0
C922 C 0.16175 1.00902 0.81783 0.0
N923 N 0.17289 0.99439 0.80471 0.0
C924 C 0.27928 0.03276 0.86518 0.0
C925 C 0.2814 0.04392 0.82489 0.0
C926 C 0.29472 0.01675 0.86188 0.0
N927 N 0.27281 0.04566 0.84672 0.0
C928 C 0.29684 0.02804 0.82074 0.0
C929 C 0.30328 1.01391 0.83925 0.0
H930 H 0.27199 0.03463 0.88229 0.0
H931 H 0.27556 0.05425 0.81049 0.0
C932 C 0.16833 0.08785 0.81083 0.0
N933 N 0.18545 0.07403 0.80908 0.0
C934 C 0.149 0.08638 0.79228 0.0
C935 C 0.16543 0.05665 0.77024 0.0
C936 C 0.18466 0.05893 0.78913 0.0
C937 C 0.14738 0.07057 0.77175 0.0
H938 H 0.16982 0.10026 0.8265 0.0
H939 H 0.19889 0.04861 0.78795 0.0
O940 O 0.25516 0.08278 0.8842 0.0
O941 O 0.20786 0.10032 0.86158 0.0
O942 O 0.24408 0.08686 0.82758 0.0
O943 O 0.2155 0.04776 0.85215 0.0
H944 H 0.25179 0.11911 0.91435 0.0
H945 H 0.30183 0.07907 0.88596 0.0
H946 H 0.28688 0.14446 0.9402 0.0
H947 H 0.33607 0.10517 0.91227 0.0
H948 H 0.13504 0.08895 0.89219 0.0
H949 H 0.218 0.13633 0.89536 0.0
H950 H 0.16254 0.07786 0.86322 0.0
H951 H 0.18949 0.1464 0.92371 0.0
H952 H 0.31444 0.1687 0.85889 0.0
H953 H 0.24213 0.18492 0.84118 0.0
H954 H 0.15244 0.02541 0.91205 0.0
H955 H 0.19134 0.08665 0.9582 0.0
H956 H 0.22004 0.11514 0.80276 0.0
H957 H 0.29123 0.09832 0.82314 0.0
H958 H 0.23938 0.14757 0.78009 0.0
H959 H 0.30931 0.13101 0.80004 0.0
H960 H 0.23208 0.01662 0.82449 0.0
H961 H 0.16688 0.03895 0.84409 0.0
H962 H 0.20602 0.98492 0.79619 0.0
H963 H 0.14198 1.00667 0.81564 0.0
H964 H 0.29945 1.00631 0.87665 0.0
H965 H 0.3027 0.02607 0.80291 0.0
H966 H 0.13557 0.0976 0.79386 0.0
H967 H 0.16507 0.04471 0.75433 0.0
Li968 Li 0.32664 0.90123 0.05461 0.0
Li969 Li 0.34584 0.87245 0.0722 0.0
Li970 Li 0.37215 0.90493 0.0555 0.0
Li971 Li 0.3405 0.8731 0.02587 0.0
C972 C 0.355 0.90748 0.10747 0.0
N973 N 0.35991 0.90752 0.15766 0.0
C974 C 0.33437 0.90132 0.11939 0.0
C975 C 0.37807 0.91407 0.12115 0.0
C976 C 0.33724 0.90132 0.14475 0.0
C977 C 0.38019 0.9139 0.14649 0.0
C978 C 0.29019 0.86471 0.04476 0.0
C979 C 0.25226 0.85922 0.01769 0.0
N980 N 0.23999 0.86205 0.03714 0.0
C981 C 0.27716 0.86751 0.06448 0.0
C982 C 0.27762 0.86054 0.02116 0.0
C983 C 0.25182 0.86615 0.06025 0.0
C984 C 0.28279 0.92037 0.04042 0.0
N985 N 0.30217 0.92097 0.05788 0.0
C986 C 0.28933 0.95146 0.08163 0.0
C987 C 0.30576 0.93635 0.07809 0.0
C988 C 0.26911 0.95111 0.06402 0.0
C989 C 0.26598 0.93531 0.04314 0.0
H990 H 0.28049 0.90856 0.02417 0.0
H991 H 0.32166 0.93726 0.09135 0.0
C992 C 0.36642 0.85439 0.11645 0.0
N993 N 0.34574 0.85307 0.10042 0.0
C994 C 0.36534 0.84484 0.13909 0.0
C995 C 0.32188 0.832 0.12824 0.0
C996 C 0.32386 0.84147 0.10569 0.0
C997 C 0.34271 0.83396 0.14573 0.0
H998 H 0.38364 0.86394 0.11227 0.0
H999 H 0.30761 0.84049 0.09286 0.0
C1000 C 0.33539 0.92429 0.016 0.0
N1001 N 0.31136 0.9567 0.99372 0.0
C1002 C 0.31928 0.91749 0.99454 0.0
C1003 C 0.33924 0.94758 0.02615 0.0
C1004 C 0.30735 0.93415 0.98353 0.0
C1005 C 0.32691 0.96369 0.01462 0.0
C1006 C 0.37937 0.85049 0.05517 0.0
C1007 C 0.40251 0.85225 0.06843 0.0
C1008 C 0.36456 0.82837 0.04887 0.0
C1009 C 0.41041 0.83174 0.07536 0.0
C1010 C 0.37312 0.80829 0.05616 0.0
N1011 N 0.39567 0.81038 0.06915 0.0
C1012 C 0.42328 0.92624 0.07238 0.0
C1013 C 0.40361 0.94232 0.03906 0.0
C1014 C 0.44501 0.94253 0.07175 0.0
N1015 N 0.40306 0.9265 0.05621 0.0
C1016 C 0.42475 0.95885 0.03784 0.0
C1017 C 0.446 0.95906 0.05414 0.0
H1018 H 0.42272 0.91324 0.08558 0.0
H1019 H 0.38767 0.94201 0.02604 0.0
C1020 C 0.32132 0.83791 0.98358 0.0
N1021 N 0.33699 0.85828 0.99224 0.0
C1022 C 0.31857 0.82987 0.95872 0.0
C1023 C 0.34892 0.86316 0.95227 0.0
C1024 C 0.35095 0.87062 0.9771 0.0
C1025 C 0.33224 0.84269 0.94242 0.0
H1026 H 0.31049 0.8281 0.99581 0.0
H1027 H 0.36348 0.88664 0.98426 0.0
O1028 O 0.35261 0.90707 0.08256 0.0
O1029 O 0.31504 0.86592 0.04848 0.0
O1030 O 0.34692 0.90813 0.02729 0.0
O1031 O 0.37109 0.87032 0.04858 0.0
H1032 H 0.31635 0.89638 0.10915 0.0
H1033 H 0.39418 0.91916 0.11232 0.0
H1034 H 0.32145 0.89633 0.15415 0.0
H1035 H 0.39797 0.9188 0.15727 0.0
H1036 H 0.24235 0.85611 0.99951 0.0
H1037 H 0.28647 0.87094 0.08284 0.0
H1038 H 0.28735 0.85878 1.00563 0.0
H1039 H 0.24157 0.86842 0.07535 0.0
H1040 H 0.29279 0.96371 0.09775 0.0
H1041 H 0.25064 0.93442 0.02907 0.0
H1042 H 0.38213 0.84649 0.15141 0.0
H1043 H 0.30388 0.82416 0.13217 0.0
H1044 H 0.31574 0.89948 0.98663 0.0
H1045 H 0.35135 0.95305 0.04297 0.0
H1046 H 0.29478 0.92911 0.96696 0.0
H1047 H 0.32961 0.98172 0.02235 0.0
H1048 H 0.41416 0.86926 0.07344 0.0
H1049 H 0.34658 0.82678 0.03864 0.0
H1050 H 0.42824 0.83282 0.08572 0.0
H1051 H 0.36183 0.79105 0.05151 0.0
H1052 H 0.46101 0.94175 0.08447 0.0
H1053 H 0.42443 0.97132 0.02408 0.0
H1054 H 0.30538 0.81405 0.95231 0.0
H1055 H 0.36047 0.87346 0.94095 0.0
Li1056 Li 0.28672 0.43816 0.03588 0.0
Li1057 Li 0.31177 0.40844 0.0607 0.0
Li1058 Li 0.33846 0.44114 0.03779 0.0
Li1059 Li 0.30989 0.4069 1.00982 0.0
C1060 C 0.31615 0.45103 0.08872 0.0
N1061 N 0.31741 0.46273 0.13792 0.0
C1062 C 0.29458 0.44727 0.09951 0.0
C1063 C 0.33835 0.46081 0.10287 0.0
C1064 C 0.2956 0.45328 0.12444 0.0
C1065 C 0.3386 0.4666 0.12774 0.0
C1066 C 0.26354 0.3848 0.03765 0.0
C1067 C 0.24334 0.34415 0.03424 0.0
N1068 N 0.22678 0.35004 0.04855 0.0
C1069 C 0.24633 0.3905 0.05228 0.0
C1070 C 0.26208 0.36149 0.02851 0.0
C1071 C 0.22788 0.37265 0.0576 0.0
C1072 C 0.23326 0.4469 0.02063 0.0
N1073 N 0.25477 0.45577 0.03545 0.0
C1074 C 0.23425 0.48721 0.05037 0.0
C1075 C 0.2551 0.47582 0.05019 0.0
C1076 C 0.21166 0.47855 0.03527 0.0
C1077 C 0.21202 0.45778 0.02025 0.0
H1078 H 0.23224 0.43103 1.00888 0.0
H1079 H 0.27169 0.48331 0.06216 0.0
C1080 C 0.33026 0.39823 0.11369 0.0
N1081 N 0.31231 0.39017 0.09446 0.0
C1082 C 0.33133 0.38747 0.13633 0.0
C1083 C 0.29566 0.35956 0.12022 0.0
C1084 C 0.29517 0.3709 0.09787 0.0
C1085 C 0.31391 0.36754 0.14051 0.0
H1086 H 0.34419 0.41325 0.11169 0.0
H1087 H 0.28071 0.36402 0.08323 0.0
C1088 C 0.30978 0.44853 0.98614 0.0
N1089 N 0.30607 0.45916 0.93814 0.0
C1090 C 0.32865 0.44612 0.97225 0.0
C1091 C 0.28899 0.45628 0.97563 0.0
C1092 C 0.32644 0.4516 0.94801 0.0
C1093 C 0.28748 0.4616 0.95133 0.0
C1094 C 0.36142 0.40323 0.0387 0.0
C1095 C 0.37416 0.40686 0.0186 0.0
C1096 C 0.37351 0.39784 0.06052 0.0
C1097 C 0.39889 0.40512 0.02072 0.0
C1098 C 0.39825 0.39622 0.0619 0.0
N1099 N 0.41033 0.39988 0.04215 0.0
C1100 C 0.39238 0.46056 0.05647 0.0
C1101 C 0.38012 0.4748 0.01919 0.0
C1102 C 0.417 0.47218 0.05606 0.0
N1103 N 0.37409 0.46172 0.03813 0.0
C1104 C 0.40457 0.48656 0.01801 0.0
C1105 C 0.42393 0.48551 0.03654 0.0
H1106 H 0.38813 0.45012 0.07145 0.0
H1107 H 0.36602 0.47609 1.00457 0.0
C1108 C 0.29575 0.39244 0.95416 0.0
N1109 N 0.31009 0.38831 0.97467 0.0
C1110 C 0.29762 0.38216 0.93044 0.0
C1111 C 0.32848 0.36255 0.94834 0.0
C1112 C 0.32615 0.37328 0.97169 0.0
C1113 C 0.31436 0.36684 0.92662 0.0
H1114 H 0.28298 0.40429 0.95586 0.0
H1115 H 0.33767 0.36962 0.9875 0.0
O1116 O 0.31557 0.44476 0.06449 0.0
O1117 O 0.28186 0.40196 0.03246 0.0
O1118 O 0.31133 0.44283 1.00975 0.0
O1119 O 0.33741 0.40555 0.03721 0.0
H1120 H 0.27727 0.43966 0.08876 0.0
H1121 H 0.3552 0.46377 0.09475 0.0
H1122 H 0.27907 0.45041 0.13308 0.0
H1123 H 0.35565 0.47412 0.13896 0.0
H1124 H 0.24198 0.32601 0.02734 0.0
H1125 H 0.24727 0.40849 0.05948 0.0
H1126 H 0.27533 0.35686 0.01717 0.0
H1127 H 0.21444 0.37677 0.06893 0.0
H1128 H 0.23622 0.50308 0.06233 0.0
H1129 H 0.19576 0.44946 1.00826 0.0
H1130 H 0.34624 0.39481 0.15038 0.0
H1131 H 0.28133 0.34466 0.12151 0.0
H1132 H 0.34469 0.4398 0.98001 0.0
H1133 H 0.27417 0.45811 0.98612 0.0
H1134 H 0.34086 0.44972 0.93701 0.0
H1135 H 0.2715 0.46761 0.94293 0.0
H1136 H 0.3651 0.41123 1.00164 0.0
H1137 H 0.36391 0.39505 0.07625 0.0
H1138 H 0.40902 0.408 1.00536 0.0
H1139 H 0.40787 0.39211 0.07869 0.0
H1140 H 0.43064 0.47013 0.07087 0.0
H1141 H 0.40811 0.49663 1.00258 0.0
H1142 H 0.28616 0.38683 0.91514 0.0
H1143 H 0.34145 0.35079 0.94762 0.0
Li1144 Li 0.81649 0.22414 0.05279 0.0
Li1145 Li 0.83091 0.19281 0.02818 0.0
Li1146 Li 0.81403 0.22241 1.0077 0.0
Li1147 Li 0.78688 0.1916 0.02483 0.0
C1148 C 0.86122 0.24137 0.02204 0.0
N1149 N 0.89516 0.27023 0.99953 0.0
C1150 C 0.87669 0.23161 1.00791 0.0
C1151 C 0.86323 0.26582 0.02496 0.0
C1152 C 0.89367 0.2465 0.99662 0.0
C1153 C 0.88044 0.28011 0.01336 0.0
C1154 C 0.82042 0.17474 0.06874 0.0
C1155 C 0.82478 0.13582 0.07955 0.0
N1156 N 0.84412 0.14545 0.09645 0.0
C1157 C 0.84032 0.18426 0.08623 0.0
C1158 C 0.81254 0.15034 0.06537 0.0
C1159 C 0.85206 0.16915 0.10006 0.0
C1160 C 0.8017 0.23444 0.09858 0.0
N1161 N 0.82058 0.2401 0.08533 0.0
C1162 C 0.84541 0.26171 0.12057 0.0
C1163 C 0.84212 0.25371 0.09573 0.0
C1164 C 0.82646 0.25549 0.13496 0.0
C1165 C 0.80421 0.242 0.12338 0.0
H1166 H 0.78487 0.22335 0.09003 0.0
H1167 H 0.85708 0.25761 0.085 0.0
C1168 C 0.84576 0.151 0.0148 0.0
N1169 N 0.85365 0.17212 0.02791 0.0
C1170 C 0.8615 0.13496 0.01299 0.0
C1171 C 0.89312 0.16257 0.03863 0.0
C1172 C 0.87671 0.17809 0.03995 0.0
C1173 C 0.88562 0.14073 0.02481 0.0
H1174 H 0.82718 0.14665 1.0057 0.0
H1175 H 0.88241 0.19503 0.0503 0.0
C1176 C 0.77987 0.24747 0.02562 0.0
N1177 N 0.76475 0.29 0.02009 0.0
C1178 C 0.75722 0.24812 1.01233 0.0
C1179 C 0.79466 0.26838 0.03637 0.0
C1180 C 0.74995 0.26982 1.00967 0.0
C1181 C 0.78675 0.28973 0.03329 0.0
C1182 C 0.793 0.18266 0.97661 0.0
C1183 C 0.7719 0.19227 0.97174 0.0
C1184 C 0.79977 0.168 0.95864 0.0
C1185 C 0.75784 0.18701 0.94894 0.0
C1186 C 0.78523 0.16316 0.93604 0.0
N1187 N 0.76474 0.17269 0.9317 0.0
C1188 C 0.83196 0.22923 0.96304 0.0
C1189 C 0.80615 0.25644 0.9704 0.0
C1190 C 0.83531 0.23751 0.94027 0.0
N1191 N 0.81768 0.23871 0.97777 0.0
C1192 C 0.80866 0.26501 0.94743 0.0
C1193 C 0.82343 0.25551 0.93198 0.0
H1194 H 0.84042 0.21471 0.96876 0.0
H1195 H 0.79466 0.26374 0.982 0.0
C1196 C 0.7559 0.14717 0.01553 0.0
N1197 N 0.75622 0.17028 0.02205 0.0
C1198 C 0.7343 0.13056 0.01451 0.0
C1199 C 0.71354 0.16195 0.0262 0.0
C1200 C 0.73562 0.17793 0.02727 0.0
C1201 C 0.71273 0.13786 0.01995 0.0
H1202 H 0.77254 0.14162 1.01132 0.0
H1203 H 0.73642 0.19639 0.03252 0.0
O1204 O 0.8443 0.22705 0.03303 0.0
O1205 O 0.80916 0.18921 0.05454 0.0
O1206 O 0.78727 0.22641 0.0285 0.0
O1207 O 0.80734 0.1879 0.99864 0.0
H1208 H 0.87533 0.21274 1.00533 0.0
H1209 H 0.85166 0.27371 0.03605 0.0
H1210 H 0.9056 0.23916 0.98547 0.0
H1211 H 0.88211 0.29906 0.01538 0.0
H1212 H 0.81893 0.1169 0.07707 0.0
H1213 H 0.84685 0.20308 0.08887 0.0
H1214 H 0.79726 0.14268 0.05183 0.0
H1215 H 0.86755 0.17627 0.11359 0.0
H1216 H 0.86297 0.27186 0.12859 0.0
H1217 H 0.78888 0.23704 0.13345 0.0
H1218 H 0.85482 0.11818 1.00253 0.0
H1219 H 0.9116 0.16782 0.04786 0.0
H1220 H 0.74538 0.23206 1.00414 0.0
H1221 H 0.81201 0.26812 0.04706 0.0
H1222 H 0.73253 0.27061 0.99934 0.0
H1223 H 0.79806 0.30607 0.04144 0.0
H1224 H 0.76648 0.20373 0.98538 0.0
H1225 H 0.81617 0.16056 0.96207 0.0
H1226 H 0.74146 0.19435 0.94493 0.0
H1227 H 0.79026 0.15187 0.92195 0.0
H1228 H 0.84652 0.22932 0.9289 0.0
H1229 H 0.79916 0.27895 0.94183 0.0
H1230 H 0.73443 0.11223 1.00934 0.0
H1231 H 0.69739 0.16831 0.03074 0.0
Li1232 Li 0.12877 0.50386 0.27887 0.0
Li1233 Li 0.09947 0.47009 0.28428 0.0
Li1234 Li 0.1395 0.46503 0.2752 0.0
Li1235 Li 0.1075 0.47709 0.24369 0.0
C1236 C 0.14574 0.49124 0.32531 0.0
N1237 N 0.17472 0.51037 0.36813 0.0
C1238 C 0.13526 0.50051 0.34457 0.0
C1239 C 0.17099 0.49157 0.32796 0.0
C1240 C 0.15022 0.51016 0.36601 0.0
C1241 C 0.18531 0.50134 0.34972 0.0
C1242 C 0.07755 0.50832 0.27625 0.0
C1243 C 0.03757 0.51878 0.27481 0.0
N1244 N 0.04374 0.52927 0.29785 0.0
C1245 C 0.08359 0.51942 0.29979 0.0
C1246 C 0.05444 0.50815 0.26354 0.0
C1247 C 0.06621 0.52983 0.31045 0.0
C1248 C 0.13244 0.55086 0.2695 0.0
N1249 N 0.14168 0.53702 0.28577 0.0
C1250 C 0.17227 0.56964 0.30367 0.0
C1251 C 0.1609 0.54608 0.30303 0.0
C1252 C 0.16394 0.58403 0.28626 0.0
C1253 C 0.14334 0.57448 0.26938 0.0
H1254 H 0.11744 0.54317 0.25567 0.0
H1255 H 0.16833 0.53494 0.31556 0.0
C1256 C 0.07972 0.45651 0.32625 0.0
N1257 N 0.0736 0.45924 0.30237 0.0
C1258 C 0.06214 0.45576 0.34215 0.0
C1259 C 0.03167 0.45736 0.30794 0.0
C1260 C 0.04994 0.45818 0.29271 0.0
C1261 C 0.03804 0.45776 0.33324 0.0
H1262 H 0.09864 0.45693 0.33329 0.0
H1263 H 0.04556 0.45993 0.27349 0.0
C1264 C 0.16024 0.50813 0.24639 0.0
N1265 N 0.19357 0.5467 0.2369 0.0
C1266 C 0.15499 0.5208 0.2264 0.0
C1267 C 0.18258 0.51491 0.26137 0.0
C1268 C 0.17205 0.54028 0.22194 0.0
C1269 C 0.19915 0.5345 0.25632 0.0
C1270 C 0.089 0.4282 0.26195 0.0
C1271 C 0.09275 0.41333 0.28038 0.0
C1272 C 0.06669 0.42428 0.24678 0.0
C1273 C 0.07396 0.3948 0.28345 0.0
C1274 C 0.04835 0.40555 0.25044 0.0
N1275 N 0.05233 0.39134 0.26856 0.0
C1276 C 0.16746 0.43563 0.29967 0.0
C1277 C 0.18429 0.45374 0.26666 0.0
C1278 C 0.18905 0.42737 0.30641 0.0
N1279 N 0.16575 0.44889 0.28039 0.0
C1280 C 0.20629 0.44616 0.27293 0.0
C1281 C 0.20908 0.43315 0.29334 0.0
H1282 H 0.1525 0.43244 0.31049 0.0
H1283 H 0.18241 0.46445 0.25151 0.0
C1284 C 0.08711 0.49757 0.20597 0.0
N1285 N 0.09423 0.47702 0.21112 0.0
C1286 C 0.07816 0.50096 0.18233 0.0
C1287 C 0.08313 0.4615 0.16966 0.0
C1288 C 0.09222 0.45893 0.19375 0.0
C1289 C 0.07623 0.4829 0.16368 0.0
H1290 H 0.08919 0.51168 0.2202 0.0
H1291 H 0.09801 0.44273 0.19852 0.0
O1292 O 0.13124 0.48123 0.30437 0.0
O1293 O 0.09394 0.49721 0.26585 0.0
O1294 O 0.14343 0.48945 0.25149 0.0
O1295 O 0.10701 0.44666 0.25891 0.0
H1296 H 0.11576 0.50018 0.34309 0.0
H1297 H 0.17959 0.48477 0.31333 0.0
H1298 H 0.14233 0.51742 0.38101 0.0
H1299 H 0.20486 0.50181 0.35192 0.0
H1300 H 1.01954 0.51862 0.26527 0.0
H1301 H 0.10145 0.51989 0.30975 0.0
H1302 H 0.04948 0.49958 0.2453 0.0
H1303 H 0.07059 0.53833 0.32874 0.0
H1304 H 0.18788 0.57633 0.31724 0.0
H1305 H 0.13644 0.58475 0.2554 0.0
H1306 H 0.06811 0.45612 0.36146 0.0
H1307 H 1.01324 0.45839 0.30022 0.0
H1308 H 0.13787 0.51578 0.21455 0.0
H1309 H 0.18692 0.5054 0.27699 0.0
H1310 H 0.16814 0.55034 0.20664 0.0
H1311 H 0.21639 0.54008 0.26793 0.0
H1312 H 0.1099 0.41619 0.29231 0.0
H1313 H 0.06349 0.43573 0.2325 0.0
H1314 H 0.07656 0.38321 0.29769 0.0
H1315 H 0.03093 0.40237 0.23893 0.0
H1316 H 0.19017 0.41703 0.32198 0.0
H1317 H 0.22125 0.45135 0.26246 0.0
H1318 H 0.07381 0.51801 0.17863 0.0
H1319 H 0.08186 0.4471 0.15588 0.0
Li1320 Li 0.78812 0.9372 0.53834 0.0
Li1321 Li 0.81305 0.90755 0.5631 0.0
Li1322 Li 0.83965 0.93984 0.53995 0.0
Li1323 Li 0.81091 0.90511 0.5121 0.0
C1324 C 0.81865 0.94967 0.59123 0.0
N1325 N 0.82203 0.96006 0.64091 0.0
C1326 C 0.79806 0.94387 0.60327 0.0
C1327 C 0.84094 0.96077 0.6044 0.0
C1328 C 0.80015 0.94926 0.62841 0.0
C1329 C 0.84227 0.96589 0.62953 0.0
C1330 C 0.76471 0.8839 0.5406 0.0
C1331 C 0.74448 0.8433 0.53796 0.0
N1332 N 0.72799 0.8495 0.55218 0.0
C1333 C 0.74756 0.88991 0.55513 0.0
C1334 C 0.7632 0.86046 0.53188 0.0
C1335 C 0.72913 0.87224 0.5608 0.0
C1336 C 0.73903 0.95264 0.51742 0.0
N1337 N 0.7563 0.955 0.53759 0.0
C1338 C 0.73146 0.97986 0.55751 0.0
C1339 C 0.75239 0.96859 0.55744 0.0
C1340 C 0.71319 0.97785 0.53696 0.0
C1341 C 0.7179 0.9637 0.51672 0.0
H1342 H 0.74144 0.94204 0.50143 0.0
H1343 H 0.76551 0.97081 0.57371 0.0
C1344 C 0.83174 0.89747 0.616 0.0
N1345 N 0.8136 0.88952 0.59693 0.0
C1346 C 0.83277 0.88689 0.63873 0.0
C1347 C 0.79662 0.85942 0.62304 0.0
C1348 C 0.7962 0.87056 0.60058 0.0
C1349 C 0.81508 0.86728 0.64316 0.0
H1350 H 0.84584 0.91229 0.61382 0.0
H1351 H 0.78157 0.86379 0.58608 0.0
C1352 C 0.81399 0.95057 0.49012 0.0
N1353 N 0.8168 0.96979 0.44594 0.0
C1354 C 0.83104 0.94507 0.4752 0.0
C1355 C 0.79833 0.9658 0.48257 0.0
C1356 C 0.83219 0.95497 0.45292 0.0
C1357 C 0.80006 0.97537 0.46018 0.0
C1358 C 0.86248 0.90165 0.5409 0.0
C1359 C 0.87472 0.90392 0.52034 0.0
C1360 C 0.87498 0.89729 0.56296 0.0
C1361 C 0.89939 0.90196 0.52224 0.0
C1362 C 0.89964 0.89541 0.56411 0.0
N1363 N 0.91124 0.8978 0.54391 0.0
C1364 C 0.89364 0.9593 0.55836 0.0
C1365 C 0.88145 0.97312 0.52085 0.0
C1366 C 0.91826 0.9709 0.55792 0.0
N1367 N 0.87536 0.96027 0.53994 0.0
C1368 C 0.9059 0.98486 0.51963 0.0
C1369 C 0.92524 0.98403 0.53827 0.0
H1370 H 0.88936 0.94906 0.57348 0.0
H1371 H 0.8674 0.97428 0.50615 0.0
C1372 C 0.7981 0.89156 0.45636 0.0
N1373 N 0.81077 0.88604 0.47726 0.0
C1374 C 0.79966 0.88065 0.43285 0.0
C1375 C 0.82693 0.85777 0.45175 0.0
C1376 C 0.82494 0.86915 0.47489 0.0
C1377 C 0.81441 0.86331 0.42967 0.0
H1378 H 0.78697 0.905 0.45761 0.0
H1379 H 0.83521 0.86449 0.49103 0.0
O1380 O 0.8171 0.94395 0.56677 0.0
O1381 O 0.783 0.9009 0.53506 0.0
O1382 O 0.81228 0.94078 0.51182 0.0
O1383 O 0.83855 0.90421 0.53958 0.0
H1384 H 0.78074 0.93507 0.59332 0.0
H1385 H 0.85704 0.96529 0.59533 0.0
H1386 H 0.78441 0.94478 0.638 0.0
H1387 H 0.85941 0.97444 0.63998 0.0
H1388 H 0.74308 0.82506 0.53139 0.0
H1389 H 0.74852 0.90802 0.56198 0.0
H1390 H 0.7764 0.85558 0.52062 0.0
H1391 H 0.71573 0.8766 0.57208 0.0
H1392 H 0.72971 0.98992 0.57407 0.0
H1393 H 0.70544 0.96112 0.49998 0.0
H1394 H 0.84785 0.89412 0.65265 0.0
H1395 H 0.78207 0.84478 0.62452 0.0
H1396 H 0.84324 0.93325 0.48075 0.0
H1397 H 0.785 0.9702 0.49392 0.0
H1398 H 0.84529 0.95085 0.44118 0.0
H1399 H 0.78807 0.98721 0.45411 0.0
H1400 H 0.86533 0.90737 0.50315 0.0
H1401 H 0.86577 0.89553 0.57903 0.0
H1402 H 0.90913 0.90381 0.50651 0.0
H1403 H 0.90958 0.89213 0.58109 0.0
H1404 H 0.93187 0.969 0.57282 0.0
H1405 H 0.90945 0.99476 0.5041 0.0
H1406 H 0.7896 0.88638 0.4172 0.0
H1407 H 0.83832 0.84452 0.45146 0.0
Li1408 Li 0.92183 0.04176 0.24747 0.0
Li1409 Li 0.89696 1.0081 0.22248 0.0
Li1410 Li 0.92825 0.03419 0.20597 0.0
Li1411 Li 0.89064 0.04701 0.21473 0.0
C1412 C 0.94694 1.00742 0.25166 0.0
N1413 N 0.97516 0.99519 0.29156 0.0
C1414 C 0.93744 0.98893 0.26496 0.0
C1415 C 0.97078 0.01981 0.25893 0.0
C1416 C 0.952 0.98297 0.28498 0.0
C1417 C 0.98474 1.01334 0.27907 0.0
C1418 C 0.86944 0.04193 0.25439 0.0
C1419 C 0.82769 0.04587 0.25775 0.0
N1420 N 0.83593 0.06662 0.27151 0.0
C1421 C 0.87748 0.06331 0.26858 0.0
C1422 C 0.84434 0.03313 0.24892 0.0
C1423 C 0.86025 0.07551 0.27707 0.0
C1424 C 0.95743 0.06758 0.28506 0.0
N1425 N 0.93681 0.05088 0.27981 0.0
C1426 C 0.94205 0.03747 0.31951 0.0
C1427 C 0.92832 0.03674 0.2968 0.0
C1428 C 0.96466 0.05295 0.32465 0.0
C1429 C 0.97183 0.06887 0.30755 0.0
H1430 H 0.96357 0.07876 0.27129 0.0
H1431 H 0.9119 0.02354 0.29196 0.0
C1432 C 0.89653 0.95997 0.21511 0.0
N1433 N 0.88345 0.97588 0.22326 0.0
C1434 C 0.89009 0.93628 0.21913 0.0
C1435 C 0.85596 0.94562 0.23852 0.0
C1436 C 0.8633 0.96921 0.23446 0.0
C1437 C 0.86984 0.92901 0.23137 0.0
H1438 H 0.91275 0.96595 0.20666 0.0
H1439 H 0.85361 0.9823 0.24121 0.0
C1440 C 0.93997 0.07942 0.21035 0.0
N1441 N 0.9705 0.10716 0.18338 0.0
C1442 C 0.93019 0.08899 0.1897 0.0
C1443 C 0.96533 0.08387 0.21714 0.0
C1444 C 0.94592 0.10303 0.17638 0.0
C1445 C 0.98044 0.09793 0.20329 0.0
C1446 C 0.88334 1.00201 0.17615 0.0
C1447 C 0.89734 0.98971 0.16255 0.0
C1448 C 0.85838 0.99317 0.17589 0.0
C1449 C 0.8861 0.96873 0.14891 0.0
C1450 C 0.84784 0.9721 0.16205 0.0
N1451 N 0.8618 0.96042 0.14895 0.0
C1452 C 0.9749 0.03241 0.19202 0.0
C1453 C 0.94624 0.04256 0.16147 0.0
C1454 C 0.9934 0.03642 0.17717 0.0
N1455 N 0.95208 0.0361 0.18421 0.0
C1456 C 0.96407 0.04639 0.14582 0.0
C1457 C 0.98818 0.04378 0.1538 0.0
H1458 H 0.97893 0.02687 0.20996 0.0
H1459 H 0.92783 0.04514 0.15569 0.0
C1460 C 0.8754 0.08984 0.21513 0.0
N1461 N 0.86742 0.0668 0.20719 0.0
C1462 C 0.85916 0.10547 0.21455 0.0
C1463 C 0.8265 0.07348 0.19765 0.0
C1464 C 0.84362 0.05847 0.19798 0.0
C1465 C 0.83428 0.09723 0.20634 0.0
H1466 H 0.89417 0.09585 0.22318 0.0
H1467 H 0.83762 0.03997 0.19233 0.0
O1468 O 0.93284 1.01375 0.2321 0.0
O1469 O 0.88602 0.03022 0.24505 0.0
O1470 O 0.92491 0.06509 0.22327 0.0
O1471 O 0.8941 0.02234 0.19 0.0
H1472 H 0.91889 0.9795 0.2603 0.0
H1473 H 0.97821 0.03483 0.2497 0.0
H1474 H 0.94481 0.96873 0.2954 0.0
H1475 H 1.00311 0.02293 0.28494 0.0
H1476 H 0.80821 0.03936 0.25347 0.0
H1477 H 0.89679 0.07067 0.2726 0.0
H1478 H 0.83772 0.01692 0.23748 0.0
H1479 H 0.86623 0.09214 0.28793 0.0
H1480 H 0.93594 0.02479 0.3321 0.0
H1481 H 0.98897 0.08132 0.31105 0.0
H1482 H 0.90114 0.92389 0.21332 0.0
H1483 H 0.84038 0.94064 0.24825 0.0
H1484 H 0.91072 0.08525 0.1837 0.0
H1485 H 0.97336 0.07601 0.23252 0.0
H1486 H 0.93859 0.11047 0.16034 0.0
H1487 H 1.00009 0.10134 0.20825 0.0
H1488 H 0.91672 0.99614 0.16273 0.0
H1489 H 0.84738 1.00223 0.18663 0.0
H1490 H 0.89673 0.95899 0.13837 0.0
H1491 H 0.82859 0.96497 0.16182 0.0
H1492 H 1.01168 0.03428 0.18421 0.0
H1493 H 0.95897 0.0514 0.12772 0.0
H1494 H 0.86575 0.12351 0.22203 0.0
H1495 H 0.80736 0.06649 0.19153 0.0
Li1496 Li 0.32037 0.72135 0.55754 0.0
Li1497 Li 0.33354 0.6894 0.53126 0.0
Li1498 Li 0.31547 0.71972 0.51193 0.0
Li1499 Li 0.28974 0.68935 0.53024 0.0
C1500 C 0.36104 0.73961 0.52381 0.0
N1501 N 0.38846 0.77119 0.49779 0.0
C1502 C 0.37476 0.73152 0.50666 0.0
C1503 C 0.36135 0.76373 0.52787 0.0
C1504 C 0.38849 0.74778 0.49366 0.0
C1505 C 0.37531 0.77942 0.51449 0.0
C1506 C 0.32155 0.66862 0.57112 0.0
C1507 C 0.32754 0.62836 0.57217 0.0
N1508 N 0.33874 0.63333 0.59547 0.0
C1509 C 0.33297 0.67325 0.59513 0.0
C1510 C 0.31864 0.64592 0.55961 0.0
C1511 C 0.34157 0.6552 0.60711 0.0
C1512 C 0.30642 0.7443 0.59949 0.0
N1513 N 0.32573 0.73733 0.59017 0.0
C1514 C 0.35014 0.74616 0.62933 0.0
C1515 C 0.34747 0.73845 0.60448 0.0
C1516 C 0.33043 0.7533 0.63945 0.0
C1517 C 0.30849 0.75269 0.62404 0.0
H1518 H 0.28911 0.74271 0.58802 0.0
H1519 H 0.36243 0.73235 0.59686 0.0
C1520 C 0.3565 0.65539 0.50925 0.0
N1521 N 0.35763 0.66986 0.52975 0.0
C1522 C 0.37265 0.63962 0.508 0.0
C1523 C 0.39138 0.65445 0.54875 0.0
C1524 C 0.3749 0.67001 0.54916 0.0
C1525 C 0.39024 0.63879 0.52804 0.0
H1526 H 0.34292 0.65597 0.49389 0.0
H1527 H 0.3755 0.68184 0.56518 0.0
C1528 C 0.28215 0.74393 0.52789 0.0
N1529 N 0.26474 0.78383 0.51484 0.0
C1530 C 0.26283 0.74226 0.50911 0.0
C1531 C 0.29264 0.7659 0.54002 0.0
C1532 C 0.25431 0.76264 0.50276 0.0
C1533 C 0.28355 0.78586 0.53318 0.0
C1534 C 0.29126 0.67156 0.48601 0.0
C1535 C 0.27598 0.68172 0.46973 0.0
C1536 C 0.2884 0.64703 0.48544 0.0
C1537 C 0.25818 0.66717 0.45308 0.0
C1538 C 0.27032 0.63309 0.46857 0.0
N1539 N 0.25572 0.64336 0.45286 0.0
C1540 C 0.32455 0.72353 0.46357 0.0
C1541 C 0.31293 0.75845 0.47862 0.0
C1542 C 0.32492 0.73157 0.44033 0.0
N1543 N 0.31785 0.73654 0.48208 0.0
C1544 C 0.3132 0.76728 0.45554 0.0
C1545 C 0.31867 0.75351 0.43579 0.0
H1546 H 0.32917 0.7065 0.4667 0.0
H1547 H 0.30849 0.76905 0.49354 0.0
C1548 C 0.2562 0.65241 0.54531 0.0
N1549 N 0.25819 0.66916 0.52915 0.0
C1550 C 0.23435 0.63648 0.54504 0.0
C1551 C 0.21638 0.65562 0.51194 0.0
C1552 C 0.23872 0.6712 0.51281 0.0
C1553 C 0.21398 0.63791 0.52822 0.0
H1554 H 0.27154 0.65136 0.55855 0.0
H1555 H 0.24044 0.68486 0.5004 0.0
O1556 O 0.34683 0.72391 0.53608 0.0
O1557 O 0.31327 0.68616 0.55893 0.0
O1558 O 0.29048 0.72415 0.53466 0.0
O1559 O 0.30869 0.6855 0.50263 0.0
H1560 H 0.37456 0.71286 0.50323 0.0
H1561 H 0.35074 0.77022 0.54104 0.0
H1562 H 0.39909 0.74178 0.48021 0.0
H1563 H 0.37563 0.79814 0.51732 0.0
H1564 H 0.32557 0.6108 0.56339 0.0
H1565 H 0.33507 0.69053 0.6045 0.0
H1566 H 0.3098 0.64199 0.54107 0.0
H1567 H 0.35048 0.65858 0.62569 0.0
H1568 H 0.36739 0.74646 0.64053 0.0
H1569 H 0.29279 0.75788 0.63112 0.0
H1570 H 0.37144 0.6283 0.49146 0.0
H1571 H 0.40449 0.65435 0.56469 0.0
H1572 H 0.25461 0.72545 0.49943 0.0
H1573 H 0.30772 0.76756 0.55447 0.0
H1574 H 0.23942 0.76161 0.48822 0.0
H1575 H 0.2915 0.80297 0.54239 0.0
H1576 H 0.27748 0.70063 0.47022 0.0
H1577 H 0.29994 0.6388 0.49792 0.0
H1578 H 0.24618 0.67482 0.44046 0.0
H1579 H 0.26789 0.61409 0.46797 0.0
H1580 H 0.32999 0.72056 0.42597 0.0
H1581 H 0.30847 0.78441 0.45306 0.0
H1582 H 0.23354 0.62304 0.55782 0.0
H1583 H 0.20107 0.65769 0.49893 0.0
Li1584 Li 0.40314 0.51091 0.70914 0.0
Li1585 Li 0.42845 0.54305 0.73727 0.0
Li1586 Li 0.39733 0.55119 0.70613 0.0
Li1587 Li 0.43431 0.54275 0.69496 0.0
C1588 C 0.38004 0.54255 0.7495 0.0
N1589 N 0.35398 0.56643 0.77876 0.0
C1590 C 0.38988 0.56551 0.75949 0.0
C1591 C 0.35693 0.53177 0.75443 0.0
C1592 C 0.37643 0.57727 0.77423 0.0
C1593 C 0.34405 0.54412 0.76927 0.0
C1594 C 0.45313 0.50727 0.73315 0.0
C1595 C 0.49225 0.49897 0.7496 0.0
N1596 N 0.48123 0.48626 0.76643 0.0
C1597 C 0.44217 0.49402 0.75053 0.0
C1598 C 0.47836 0.50972 0.7326 0.0
C1599 C 0.45669 0.48358 0.76723 0.0
C1600 C 0.40414 0.46227 0.70409 0.0
N1601 N 0.38976 0.47838 0.70823 0.0
C1602 C 0.35917 0.4488 0.72044 0.0
C1603 C 0.36738 0.47203 0.7156 0.0
C1604 C 0.37426 0.43203 0.71783 0.0
C1605 C 0.39672 0.43885 0.70886 0.0
H1606 H 0.42196 0.46789 0.69841 0.0
H1607 H 0.35644 0.48525 0.71881 0.0
C1608 C 0.47034 0.55546 0.77145 0.0
N1609 N 0.44574 0.54769 0.76922 0.0
C1610 C 0.48484 0.55467 0.79347 0.0
C1611 C 0.44836 0.53821 0.8106 0.0
C1612 C 0.43455 0.53938 0.78827 0.0
C1613 C 0.4739 0.54546 0.81322 0.0
H1614 H 0.47889 0.56081 0.75567 0.0
H1615 H 0.41513 0.53241 0.78578 0.0
C1616 C 0.38052 0.52986 0.66312 0.0
N1617 N 0.33947 0.53396 0.632 0.0
C1618 C 0.38147 0.54808 0.64763 0.0
C1619 C 0.35881 0.51354 0.66252 0.0
C1620 C 0.36049 0.54992 0.63211 0.0
C1621 C 0.33823 0.51595 0.64672 0.0
C1622 C 0.44587 0.5887 0.7104 0.0
C1623 C 0.44267 0.59567 0.68672 0.0
C1624 C 0.46495 0.60126 0.72723 0.0
C1625 C 0.45907 0.61458 0.68005 0.0
C1626 C 0.48096 0.62011 0.71988 0.0
N1627 N 0.47775 0.62628 0.69663 0.0
C1628 C 0.37982 0.59343 0.70169 0.0
C1629 C 0.3485 0.55989 0.70074 0.0
C1630 C 0.36295 0.60833 0.70314 0.0
N1631 N 0.37249 0.56975 0.70111 0.0
C1632 C 0.33091 0.57418 0.70218 0.0
C1633 C 0.33822 0.59882 0.70422 0.0
H1634 H 0.39898 0.60092 0.70265 0.0
H1635 H 0.34322 0.54101 0.70081 0.0
C1636 C 0.48239 0.55831 0.68597 0.0
N1637 N 0.45936 0.54942 0.67492 0.0
C1638 C 0.50121 0.5654 0.67208 0.0
C1639 C 0.47232 0.55335 0.63568 0.0
C1640 C 0.454 0.54672 0.65031 0.0
C1641 C 0.49629 0.56302 0.64655 0.0
H1642 H 0.48598 0.56045 0.70564 0.0
H1643 H 0.43548 0.53961 0.64207 0.0
O1644 O 0.39239 0.5312 0.73397 0.0
O1645 O 0.43933 0.51828 0.71717 0.0
O1646 O 0.40074 0.52792 0.67871 0.0
O1647 O 0.43022 0.56994 0.71719 0.0
H1648 H 0.40761 0.57429 0.75573 0.0
H1649 H 0.34886 0.51413 0.74673 0.0
H1650 H 0.3838 0.59506 0.78198 0.0
H1651 H 0.32612 0.53601 0.77315 0.0
H1652 H 0.51181 0.50078 0.74944 0.0
H1653 H 0.42271 0.49221 0.75144 0.0
H1654 H 0.48714 0.51989 0.71927 0.0
H1655 H 0.44848 0.47346 0.78091 0.0
H1656 H 0.34183 0.44437 0.72751 0.0
H1657 H 0.40877 0.4264 0.70632 0.0
H1658 H 0.50453 0.55996 0.7946 0.0
H1659 H 0.43925 0.53103 0.82544 0.0
H1660 H 0.39818 0.56067 0.64758 0.0
H1661 H 0.35779 0.49926 0.67427 0.0
H1662 H 0.36092 0.56401 0.62014 0.0
H1663 H 0.32125 0.50353 0.64619 0.0
H1664 H 0.42784 0.58638 0.67356 0.0
H1665 H 0.46728 0.59667 0.74583 0.0
H1666 H 0.45695 0.61993 0.6617 0.0
H1667 H 0.49588 0.62988 0.7327 0.0
H1668 H 0.36966 0.62716 0.70527 0.0
H1669 H 0.31205 0.56607 0.70288 0.0
H1670 H 0.51929 0.57296 0.68126 0.0
H1671 H 0.46776 0.55068 0.61608 0.0
Li1672 Li 0.5992 0.96986 0.77948 0.0
Li1673 Li 0.63023 1.00257 0.7747 0.0
Li1674 Li 0.60975 0.976 0.73951 0.0
Li1675 Li 0.63949 0.96318 0.77259 0.0
C1676 C 0.58175 1.01094 0.7712 0.0
N1677 N 0.55295 0.03783 0.79341 0.0
C1678 C 0.58835 0.01985 0.7955 0.0
C1679 C 0.56056 0.01581 0.75814 0.0
C1680 C 0.57354 0.03336 0.80643 0.0
C1681 C 0.54623 0.02942 0.76971 0.0
C1682 C 0.64471 0.98884 0.82227 0.0
C1683 C 0.68411 0.99747 0.84707 0.0
N1684 N 0.6733 1.00467 0.86621 0.0
C1685 C 0.634 0.99619 0.84228 0.0
C1686 C 0.66997 0.98937 0.82474 0.0
C1687 C 0.64876 1.00421 0.86429 0.0
C1688 C 0.57497 0.9554 0.81931 0.0
N1689 N 0.57159 0.96034 0.7957 0.0
C1690 C 0.52998 0.96333 0.79826 0.0
C1691 C 0.54929 0.96269 0.7846 0.0
C1692 C 0.5338 0.96105 0.82337 0.0
C1693 C 0.55605 0.95548 0.83359 0.0
H1694 H 0.59291 0.95341 0.82753 0.0
H1695 H 0.54713 0.96624 0.76563 0.0
C1696 C 0.63523 0.05012 0.76617 0.0
N1697 N 0.64432 0.03557 0.78173 0.0
C1698 C 0.64704 0.07345 0.76613 0.0
C1699 C 0.67681 0.06691 0.79889 0.0
C1700 C 0.66437 0.04369 0.79834 0.0
C1701 C 0.66858 0.08194 0.78214 0.0
H1702 H 0.61956 0.04322 0.7528 0.0
H1703 H 0.67175 0.03191 0.81015 0.0
C1704 C 0.58843 0.92788 0.75821 0.0
N1705 N 0.55005 0.89278 0.765 0.0
C1706 C 0.59103 0.91329 0.77713 0.0
C1707 C 0.5664 0.92455 0.74264 0.0
C1708 C 0.57138 0.89567 0.7803 0.0
C1709 C 0.54719 0.9067 0.74639 0.0
C1710 C 0.66262 1.00564 0.74334 0.0
C1711 C 0.65707 0.01893 0.72394 0.0
C1712 C 0.68545 1.01159 0.7576 0.0
C1713 C 0.67433 0.0382 0.71938 0.0
C1714 C 0.70222 0.03097 0.75244 0.0
N1715 N 0.69635 0.04379 0.73362 0.0
C1716 C 0.58929 0.99503 0.7006 0.0
C1717 C 0.59626 0.95673 0.68965 0.0
C1718 C 0.57975 0.99728 0.67683 0.0
N1719 N 0.59742 0.97512 0.70649 0.0
C1720 C 0.5868 0.95823 0.66541 0.0
C1721 C 0.57843 0.97879 0.6588 0.0
H1722 H 0.59075 1.00944 0.71437 0.0
H1723 H 0.6028 0.94105 0.69501 0.0
C1724 C 0.66621 0.93373 0.79918 0.0
N1725 N 0.66492 0.94617 0.77922 0.0
C1726 C 0.68749 0.92515 0.80656 0.0
C1727 C 0.70521 0.94185 0.77229 0.0
C1728 C 0.68354 0.94978 0.76542 0.0
C1729 C 0.70761 0.9297 0.79338 0.0
H1730 H 0.65119 0.93147 0.80999 0.0
H1731 H 0.682 0.95986 0.74973 0.0
O1732 O 0.59551 0.99694 0.76035 0.0
O1733 O 0.63034 0.98027 0.80079 0.0
O1734 O 0.60718 0.94565 0.75522 0.0
O1735 O 0.64562 0.98718 0.74859 0.0
H1736 H 0.60469 0.01634 0.80581 0.0
H1737 H 0.55507 1.0089 0.73936 0.0
H1738 H 0.57839 0.04028 0.82526 0.0
H1739 H 0.52972 0.03323 0.75986 0.0
H1740 H 0.70369 0.9981 0.84914 0.0
H1741 H 0.61445 0.99563 0.8409 0.0
H1742 H 0.67873 0.98404 0.80952 0.0
H1743 H 0.64069 1.00998 0.87988 0.0
H1744 H 0.51307 0.96769 0.78983 0.0
H1745 H 0.55974 0.95387 0.85297 0.0
H1746 H 0.63981 0.08448 0.75311 0.0
H1747 H 0.69352 0.07255 0.81134 0.0
H1748 H 0.60794 0.91575 0.78941 0.0
H1749 H 0.56408 0.93581 0.72799 0.0
H1750 H 0.57304 0.88436 0.79498 0.0
H1751 H 0.52998 0.90399 0.73457 0.0
H1752 H 0.63954 1.0146 0.7127 0.0
H1753 H 0.69004 1.00161 0.77276 0.0
H1754 H 0.67019 0.04876 0.70456 0.0
H1755 H 0.71986 0.03591 0.76348 0.0
H1756 H 0.57426 1.01374 0.67251 0.0
H1757 H 0.58617 0.94364 0.65202 0.0
H1758 H 0.68831 0.91552 0.82267 0.0
H1759 H 0.72024 0.94615 0.76171 0.0
Li1760 Li 0.85029 0.68989 0.05478 0.0
Li1761 Li 0.8731 0.65916 0.03248 0.0
Li1762 Li 0.84832 0.69048 1.00532 0.0
Li1763 Li 0.8214 0.65604 0.02953 0.0
C1764 C 0.8953 0.71535 0.04121 0.0
N1765 N 0.92921 0.75527 0.05869 0.0
C1766 C 0.91439 0.71404 0.05938 0.0
C1767 C 0.89366 0.7369 0.03167 0.0
C1768 C 0.93131 0.73443 0.06804 0.0
C1769 C 0.91092 0.7569 0.04082 0.0
C1770 C 0.85169 0.65223 0.08199 0.0
C1771 C 0.83685 0.63819 0.11856 0.0
N1772 N 0.85829 0.64915 0.13175 0.0
C1773 C 0.87367 0.66311 0.09587 0.0
C1774 C 0.83319 0.63948 0.09336 0.0
C1775 C 0.87663 0.66145 0.12102 0.0
C1776 C 0.82911 0.70184 0.10119 0.0
N1777 N 0.84917 0.70873 0.08948 0.0
C1778 C 0.86548 0.73717 0.12472 0.0
C1779 C 0.86719 0.72634 0.10119 0.0
C1780 C 0.84496 0.73037 0.13736 0.0
C1781 C 0.82667 0.71221 0.12461 0.0
H1782 H 0.81472 0.68783 0.09249 0.0
H1783 H 0.88324 0.73217 0.09246 0.0
C1784 C 0.90808 0.62608 0.01449 0.0
N1785 N 0.90498 0.6414 0.03335 0.0
C1786 C 0.92902 0.61478 0.01486 0.0
C1787 C 0.94452 0.63489 0.05377 0.0
C1788 C 0.92316 0.64558 0.05286 0.0
C1789 C 0.94825 0.61893 0.03464 0.0
H1790 H 0.89431 0.62249 0.9987 0.0
H1791 H 0.92137 0.65736 0.06815 0.0
C1792 C 0.81124 0.70861 0.03765 0.0
N1793 N 0.79124 0.74419 0.05847 0.0
C1794 C 0.78855 0.70341 0.04627 0.0
C1795 C 0.82366 0.73193 0.03946 0.0
C1796 C 0.77876 0.72163 0.05676 0.0
C1797 C 0.81329 0.74966 0.05009 0.0
C1798 C 0.83472 0.63572 0.98553 0.0
C1799 C 0.81974 0.63981 0.96487 0.0
C1800 C 0.83852 0.61288 0.98909 0.0
C1801 C 0.80901 0.62094 0.9479 0.0
C1802 C 0.82744 0.59447 0.97171 0.0
N1803 N 0.81305 0.59886 0.95164 0.0
C1804 C 0.85305 0.69709 0.95041 0.0
C1805 C 0.84226 0.73017 0.96967 0.0
C1806 C 0.85226 0.70761 0.92763 0.0
N1807 N 0.84795 0.70812 0.97136 0.0
C1808 C 0.84154 0.74141 0.94727 0.0
C1809 C 0.84643 0.73036 0.92521 0.0
H1810 H 0.85776 0.67978 0.95107 0.0
H1811 H 0.83804 0.73938 0.98576 0.0
C1812 C 0.7747 0.63764 0.04977 0.0
N1813 N 0.78591 0.63543 0.02928 0.0
C1814 C 0.75036 0.62595 0.05111 0.0
C1815 C 0.74837 0.60922 1.01029 0.0
C1816 C 0.77289 0.62124 1.00971 0.0
C1817 C 0.73618 0.61142 0.03116 0.0
H1818 H 0.78449 0.64901 0.06529 0.0
H1819 H 0.78122 0.61938 0.99324 0.0
O1820 O 0.87846 0.69564 0.03251 0.0
O1821 O 0.84824 0.65433 0.05746 0.0
O1822 O 0.82155 0.69096 0.02804 0.0
O1823 O 0.84519 0.65389 1.00246 0.0
H1824 H 0.91615 0.69749 0.06675 0.0
H1825 H 0.87932 0.73813 0.01722 0.0
H1826 H 0.94611 0.73369 0.0822 0.0
H1827 H 0.90982 0.77371 0.03365 0.0
H1828 H 0.82265 0.62845 0.12761 0.0
H1829 H 0.88812 0.67308 0.08735 0.0
H1830 H 0.81626 0.63054 0.08286 0.0
H1831 H 0.89346 0.67001 0.132 0.0
H1832 H 0.88028 0.75108 0.13276 0.0
H1833 H 0.81049 0.70548 0.13279 0.0
H1834 H 0.93022 0.60309 0.99924 0.0
H1835 H 0.95794 0.63901 0.06982 0.0
H1836 H 0.77857 0.68553 0.04483 0.0
H1837 H 0.84125 0.73625 0.03298 0.0
H1838 H 0.76124 0.71783 0.06356 0.0
H1839 H 0.82279 0.76777 0.05174 0.0
H1840 H 0.81627 0.65733 0.96209 0.0
H1841 H 0.84979 0.6094 1.00518 0.0
H1842 H 0.79738 0.62383 0.93181 0.0
H1843 H 0.83022 0.5767 0.9742 0.0
H1844 H 0.85662 0.69781 0.91199 0.0
H1845 H 0.83666 0.75868 0.94735 0.0
H1846 H 0.74288 0.62841 0.06801 0.0
H1847 H 0.73892 0.5987 0.99406 0.0
Li1848 Li 1.02389 0.58336 0.80451 0.0
Li1849 Li 0.04902 0.61633 0.83355 0.0
Li1850 Li 1.01265 0.62156 0.80473 0.0
Li1851 Li 0.0495 0.61715 0.79058 0.0
C1852 C 1.00202 0.58438 0.84536 0.0
N1853 N 0.97901 0.54969 0.87144 0.0
C1854 C 1.01265 0.58071 0.86856 0.0
C1855 C 0.97956 0.57043 0.83553 0.0
C1856 C 1.00076 0.5631 0.88144 0.0
C1857 C 0.96827 0.55296 0.84895 0.0
C1858 C 0.07612 0.58373 0.79967 0.0
C1859 C 0.11757 0.58062 0.79391 0.0
N1860 N 0.109 0.56639 0.77317 0.0
C1861 C 0.06772 0.56901 0.77833 0.0
C1862 C 0.10125 0.58956 0.80758 0.0
C1863 C 0.08463 0.56045 0.76517 0.0
C1864 C 0.99847 0.53923 0.78064 0.0
N1865 N 1.01254 0.54988 0.80131 0.0
C1866 C 1.00741 0.51358 0.82019 0.0
C1867 C 1.01789 0.53738 0.82054 0.0
C1868 C 0.99168 0.50235 0.79959 0.0
C1869 C 0.98777 0.51541 0.7794 0.0
H1870 H 0.99528 0.54928 0.7652 0.0
H1871 H 0.02956 0.54616 0.83658 0.0
C1872 C 0.06007 0.63865 0.88102 0.0
N1873 N 0.06646 0.62291 0.86489 0.0
C1874 C 0.06883 0.63944 0.90571 0.0
C1875 C 0.09209 0.60931 0.89615 0.0
C1876 C 0.08273 0.60895 0.87174 0.0
C1877 C 0.08417 0.62385 0.91359 0.0
H1878 H 0.04683 0.6493 0.87495 0.0
H1879 H 0.08691 0.59619 0.85858 0.0
C1880 C 0.99645 0.60429 0.76087 0.0
N1881 N 0.95563 0.61233 0.73173 0.0
C1882 C 0.99867 0.62197 0.74472 0.0
C1883 C 0.97338 0.59077 0.76218 0.0
C1884 C 0.97785 0.62571 0.73011 0.0
C1885 C 0.95299 0.5951 0.74733 0.0
C1886 C 0.06157 0.66164 0.80825 0.0
C1887 C 0.05791 0.67168 0.78613 0.0
C1888 C 0.08241 0.6707 0.82478 0.0
C1889 C 0.07532 0.69049 0.78081 0.0
C1890 C 0.09937 0.68955 0.8188 0.0
N1891 N 0.09551 0.69895 0.79712 0.0
C1892 C 0.96376 0.62579 0.80863 0.0
C1893 C 0.98554 0.65543 0.78767 0.0
C1894 C 0.94177 0.6331 0.80138 0.0
N1895 N 0.98485 0.63641 0.80093 0.0
C1896 C 0.96399 0.66329 0.77992 0.0
C1897 C 0.94165 0.65157 0.78616 0.0
H1898 H 0.96375 0.6109 0.81936 0.0
H1899 H 1.00255 0.66364 0.78191 0.0
C1900 C 0.06411 0.61814 0.74413 0.0
N1901 N 0.07212 0.62501 0.76794 0.0
C1902 C 0.08056 0.61966 0.7271 0.0
C1903 C 0.11341 0.63524 0.75935 0.0
C1904 C 0.09614 0.63396 0.77574 0.0
C1905 C 0.10562 0.62761 0.73479 0.0
H1906 H 0.04526 0.60995 0.73859 0.0
H1907 H 0.10214 0.6386 0.79492 0.0
O1908 O 1.01348 0.60153 0.83243 0.0
O1909 O 0.05985 0.59307 0.81218 0.0
O1910 O 1.01657 0.60064 0.77572 0.0
O1911 O 0.04473 0.64325 0.81391 0.0
H1912 H 0.02991 0.59127 0.87662 0.0
H1913 H 0.97117 0.57265 0.81749 0.0
H1914 H 1.00884 0.56008 0.89938 0.0
H1915 H 0.95103 0.54192 0.84143 0.0
H1916 H 0.13707 0.58514 0.79971 0.0
H1917 H 0.04838 0.56463 0.7717 0.0
H1918 H 0.10814 0.60128 0.82379 0.0
H1919 H 0.07839 0.54921 0.74853 0.0
H1920 H 1.01096 0.50437 0.83625 0.0
H1921 H 0.97641 0.50737 0.76285 0.0
H1922 H 0.06226 0.65081 0.91869 0.0
H1923 H 0.10344 0.59667 0.90152 0.0
H1924 H 1.01615 0.6331 0.74381 0.0
H1925 H 0.97109 0.57738 0.77489 0.0
H1926 H 0.97933 0.63943 0.71768 0.0
H1927 H 0.93504 0.58487 0.74833 0.0
H1928 H 0.0421 0.66474 0.77297 0.0
H1929 H 0.08553 0.66321 0.842 0.0
H1930 H 0.07282 0.69829 0.76368 0.0
H1931 H 0.11562 0.69668 0.83138 0.0
H1932 H 0.92494 0.62367 0.80666 0.0
H1933 H 0.96471 0.67796 0.76864 0.0
H1934 H 0.07398 0.61284 0.70844 0.0
H1935 H 0.13267 0.64097 0.76594 0.0
Li1936 Li 0.84176 0.37114 0.56663 0.0
Li1937 Li 0.82388 0.40193 0.54871 0.0
Li1938 Li 0.83474 0.37201 0.51999 0.0
Li1939 Li 0.86788 0.4026 0.54706 0.0
C1940 C 0.78653 0.36843 0.54602 0.0
N1941 N 0.73899 0.37369 0.55013 0.0
C1942 C 0.77884 0.37087 0.569 0.0
C1943 C 0.77003 0.36856 0.52513 0.0
C1944 C 0.75474 0.37352 0.57069 0.0
C1945 C 0.74607 0.37127 0.52759 0.0
C1946 C 0.85176 0.41819 0.59722 0.0
C1947 C 0.86666 0.45395 0.62334 0.0
N1948 N 0.85418 0.44444 0.64109 0.0
C1949 C 0.83918 0.40874 0.61581 0.0
C1950 C 0.86573 0.44093 0.60107 0.0
C1951 C 0.84059 0.42231 0.63781 0.0
C1952 C 0.86338 0.35916 0.61214 0.0
N1953 N 0.84319 0.35289 0.59527 0.0
C1954 C 0.82381 0.32701 0.6225 0.0
C1955 C 0.82375 0.33677 0.59989 0.0
C1956 C 0.84407 0.33386 0.64071 0.0
C1957 C 0.86424 0.34981 0.63489 0.0
H1958 H 0.87851 0.37223 0.60832 0.0
H1959 H 0.80774 0.33216 0.5864 0.0
C1960 C 0.78928 0.42972 0.53064 0.0
N1961 N 0.80037 0.42285 0.55146 0.0
C1962 C 0.77382 0.44624 0.53169 0.0
C1963 C 0.78041 0.44756 0.57555 0.0
C1964 C 0.79571 0.43104 0.57364 0.0
C1965 C 0.76954 0.45573 0.55441 0.0
H1966 H 0.79277 0.42268 0.51315 0.0
H1967 H 0.80382 0.42485 0.58996 0.0
C1968 C 0.87629 0.35052 0.55116 0.0
N1969 N 0.89749 0.31588 0.57247 0.0
C1970 C 0.8995 0.35628 0.56469 0.0
C1971 C 0.86387 0.32717 0.54839 0.0
C1972 C 0.90991 0.3385 0.57533 0.0
C1973 C 0.8749 0.3099 0.55933 0.0
C1974 C 0.84415 0.42893 0.51238 0.0
C1975 C 0.841 0.43179 0.48745 0.0
C1976 C 0.84958 0.44874 0.52913 0.0
C1977 C 0.84332 0.4545 0.47969 0.0
C1978 C 0.85172 0.47115 0.52066 0.0
N1979 N 0.84858 0.47355 0.49632 0.0
C1980 C 0.81353 0.36579 0.46999 0.0
C1981 C 0.84069 0.33974 0.47973 0.0
C1982 C 0.81103 0.35804 0.44517 0.0
N1983 N 0.82837 0.3568 0.48674 0.0
C1984 C 0.83858 0.33135 0.45509 0.0
C1985 C 0.82386 0.34073 0.43724 0.0
H1986 H 0.80417 0.37959 0.4758 0.0
H1987 H 0.85284 0.33315 0.49314 0.0
C1988 C 0.91517 0.42814 0.56824 0.0
N1989 N 0.89939 0.42223 0.54733 0.0
C1990 C 0.93754 0.4435 0.56823 0.0
C1991 C 0.92694 0.44633 0.5252 0.0
C1992 C 0.90507 0.43069 0.52598 0.0
C1993 C 0.94369 0.45302 0.54649 0.0
H1994 H 0.91032 0.42102 0.58498 0.0
H1995 H 0.89244 0.42551 0.50951 0.0
O1996 O 0.81025 0.36653 0.54404 0.0
O1997 O 0.85104 0.40502 0.57568 0.0
O1998 O 0.8655 0.36775 0.5412 0.0
O1999 O 0.84199 0.40683 0.52032 0.0
H2000 H 0.79145 0.37104 0.58535 0.0
H2001 H 0.77573 0.36678 0.50722 0.0
H2002 H 0.7486 0.37554 0.58836 0.0
H2003 H 0.73312 0.37152 0.51158 0.0
H2004 H 0.87737 0.47158 0.62652 0.0
H2005 H 0.82811 0.39128 0.61318 0.0
H2006 H 0.87584 0.44848 0.58708 0.0
H2007 H 0.83084 0.41525 0.65227 0.0
H2008 H 0.80769 0.31498 0.626 0.0
H2009 H 0.88049 0.3554 0.64795 0.0
H2010 H 0.76585 0.45197 0.51488 0.0
H2011 H 0.77712 0.45385 0.59344 0.0
H2012 H 0.90927 0.37432 0.56708 0.0
H2013 H 0.84579 0.3225 0.53813 0.0
H2014 H 0.92783 0.3427 0.58593 0.0
H2015 H 0.86546 0.29176 0.55745 0.0
H2016 H 0.83693 0.41664 0.47423 0.0
H2017 H 0.85192 0.4468 0.54845 0.0
H2018 H 0.84096 0.45699 0.46045 0.0
H2019 H 0.85586 0.48664 0.53344 0.0
H2020 H 0.79925 0.36569 0.43231 0.0
H2021 H 0.84914 0.31825 0.45001 0.0
H2022 H 0.94991 0.44769 0.58504 0.0
H2023 H 0.9304 0.45337 0.50805 0.0
Li2024 Li 0.70759 0.56947 0.37927 0.0
Li2025 Li 0.7337 0.60156 0.36593 0.0
Li2026 Li 0.70135 0.57701 0.33677 0.0
Li2027 Li 0.73916 0.56266 0.35419 0.0
C2028 C 0.68123 0.60286 0.3796 0.0
N2029 N 0.64742 0.61207 0.40975 0.0
C2030 C 0.68869 0.61807 0.4007 0.0
C2031 C 0.65652 0.59267 0.37357 0.0
C2032 C 0.67133 0.62243 0.41577 0.0
C2033 C 0.63973 0.59744 0.38913 0.0
C2034 C 0.76184 0.59002 0.40449 0.0
C2035 C 0.80455 0.60042 0.42083 0.0
N2036 N 0.79877 0.61511 0.43845 0.0
C2037 C 0.75631 0.60506 0.42287 0.0
C2038 C 0.78614 0.58755 0.40351 0.0
C2039 C 0.77524 0.61767 0.43982 0.0
C2040 C 0.69568 0.5592 0.42681 0.0
N2041 N 0.68826 0.55607 0.40248 0.0
C2042 C 0.6508 0.53144 0.4085 0.0
C2043 C 0.66645 0.54239 0.39313 0.0
C2044 C 0.65765 0.53467 0.43378 0.0
C2045 C 0.68052 0.54866 0.44291 0.0
H2046 H 0.71321 0.56999 0.4337 0.0
H2047 H 0.66114 0.54012 0.37364 0.0
C2048 C 0.73611 0.649 0.36128 0.0
N2049 N 0.75015 0.63373 0.37011 0.0
C2050 C 0.74702 0.67104 0.35511 0.0
C2051 C 0.78661 0.66213 0.36926 0.0
C2052 C 0.77492 0.64014 0.37493 0.0
C2053 C 0.77269 0.67747 0.35811 0.0
H2054 H 0.71654 0.64323 0.35685 0.0
H2055 H 0.78589 0.62755 0.38096 0.0
C2056 C 0.70235 0.52362 0.35366 0.0
N2057 N 0.69938 0.47634 0.36031 0.0
C2058 C 0.71297 0.51661 0.37543 0.0
C2059 C 0.69021 0.50661 0.33529 0.0
C2060 C 0.71128 0.49262 0.37843 0.0
C2061 C 0.6889 0.48278 0.339 0.0
C2062 C 0.75615 0.6024 0.3254 0.0
C2063 C 0.7527 0.62128 0.31163 0.0
C2064 C 0.77995 0.59896 0.33278 0.0
C2065 C 0.77307 0.63625 0.30532 0.0
C2066 C 0.79983 0.61427 0.32604 0.0
N2067 N 0.79601 0.63244 0.31257 0.0
C2068 C 0.6799 0.59068 0.29306 0.0
C2069 C 0.65581 0.5591 0.30959 0.0
C2070 C 0.66141 0.59033 0.27391 0.0
N2071 N 0.67679 0.57522 0.31032 0.0
C2072 C 0.63671 0.55817 0.29077 0.0
C2073 C 0.63938 0.57402 0.27265 0.0
H2074 H 0.69671 0.6033 0.29419 0.0
H2075 H 0.65385 0.54715 0.32379 0.0
C2076 C 0.77068 0.53059 0.36459 0.0
N2077 N 0.75994 0.54178 0.34669 0.0
C2078 C 0.78461 0.5138 0.35876 0.0
C2079 C 0.77658 0.52089 0.31628 0.0
C2080 C 0.76262 0.53738 0.32292 0.0
C2081 C 0.78748 0.50868 0.33431 0.0
H2082 H 0.76798 0.53435 0.38332 0.0
H2083 H 0.75355 0.54642 0.30912 0.0
O2084 O 0.69805 0.59798 0.36491 0.0
O2085 O 0.74353 0.57732 0.38791 0.0
O2086 O 0.70388 0.54702 0.35021 0.0
O2087 O 0.73642 0.58774 0.33214 0.0
H2088 H 0.70766 0.62649 0.40534 0.0
H2089 H 0.65043 0.58096 0.35722 0.0
H2090 H 0.67686 0.63408 0.43224 0.0
H2091 H 0.62058 0.58947 0.38482 0.0
H2092 H 0.82345 0.59879 0.42021 0.0
H2093 H 0.73761 0.60699 0.42406 0.0
H2094 H 0.79081 0.57605 0.3894 0.0
H2095 H 0.77121 0.62945 0.45408 0.0
H2096 H 0.63347 0.5207 0.40068 0.0
H2097 H 0.68635 0.552 0.46231 0.0
H2098 H 0.73548 0.68202 0.34627 0.0
H2099 H 0.80641 0.66643 0.37219 0.0
H2100 H 0.72252 0.52955 0.38981 0.0
H2101 H 0.68192 0.51178 0.31833 0.0
H2102 H 0.71945 0.48694 0.39516 0.0
H2103 H 0.67957 0.46941 0.32493 0.0
H2104 H 0.73458 0.6247 0.30625 0.0
H2105 H 0.78315 0.58494 0.34399 0.0
H2106 H 0.77064 0.65101 0.29484 0.0
H2107 H 0.81832 0.61182 0.33171 0.0
H2108 H 0.66455 0.60249 0.26003 0.0
H2109 H 0.62001 0.54539 0.29053 0.0
H2110 H 0.79282 0.50476 0.37315 0.0
H2111 H 0.7781 0.51713 0.2972 0.0
Tb2112 Tb 0.05307 0.04454 0.03002 0.0
Eu2113 Eu 0.1077 0.0592 0.0627 0.0
C2114 C 0.09987 0.05219 1.00478 0.0
C2115 C 0.08303 1.00722 0.04752 0.0
C2116 C 0.99119 0.05066 1.0097 0.0
C2117 C 0.94936 0.0568 1.00082 0.0
C2118 C 0.96713 0.04277 0.9985 0.0
C2119 C 0.99733 0.0727 0.02311 0.0
C2120 C 0.97968 0.08665 0.02547 0.0
C2121 C 0.95545 0.07884 0.01449 0.0
C2122 C 1.01001 0.03603 1.00833 0.0
O2123 O 0.04858 0.06247 0.06406 0.0
O2124 O 0.07916 0.05037 0.0879 0.0
O2125 O 0.09511 0.09396 0.06095 0.0
O2126 O 0.06499 0.08208 0.02792 0.0
C2127 C 0.0579 0.05706 0.08518 0.0
O2128 O 0.13173 0.05157 0.09392 0.0
O2129 O 0.14643 0.07564 0.06873 0.0
O2130 O 0.11116 0.06581 0.0239 0.0
O2131 O 0.07901 0.03777 1.00526 0.0
O2132 O 0.06168 1.01364 0.04726 0.0
O2133 O 0.10234 0.02267 0.04495 0.0
C2134 C 0.07928 0.09848 0.04319 0.0
O2135 O 0.02897 0.0453 0.99821 0.0
O2136 O 1.01656 0.0273 0.02866 0.0
C2137 C 0.16999 0.04789 0.08256 0.0
C2138 C 0.20285 0.01665 0.07653 0.0
C2139 C 0.20572 0.032 0.09782 0.0
C2140 C 0.18938 0.04746 0.10082 0.0
C2141 C 0.16717 0.03277 0.06123 0.0
C2142 C 0.18339 0.01732 0.05825 0.0
C2143 C 0.15149 0.06256 0.08629 0.0
H2144 H 0.93079 0.05025 0.99229 0.0
H2145 H 0.96207 0.02574 0.98819 0.0
H2146 H 1.01583 0.07912 0.03187 0.0
H2147 H 0.98509 0.10368 0.03575 0.0
H2148 H 0.22064 0.03214 0.11216 0.0
H2149 H 0.19172 0.05885 0.11749 0.0
H2150 H 0.15214 0.03262 0.04701 0.0
H2151 H 0.18033 1.00552 0.04181 0.0
Tb2152 Tb 0.34877 0.81184 0.30126 0.0
Eu2153 Eu 0.29748 0.77502 0.27967 0.0
C2154 C 0.30073 0.83071 0.28884 0.0
C2155 C 0.31719 0.78213 0.33647 0.0
C2156 C 0.40112 0.86304 0.31625 0.0
C2157 C 0.40202 0.90307 0.30515 0.0
C2158 C 0.38943 0.87996 0.30523 0.0
C2159 C 0.42577 0.86914 0.32619 0.0
C2160 C 0.4384 0.89219 0.32604 0.0
C2161 C 0.42651 0.90956 0.31605 0.0
C2162 C 0.38745 0.83965 0.31959 0.0
O2163 O 0.35603 0.77674 0.30611 0.0
O2164 O 0.32716 0.75361 0.27752 0.0
O2165 O 0.30895 0.79439 0.24752 0.0
O2166 O 0.34947 0.80954 0.26162 0.0
C2167 C 0.34742 0.75689 0.29272 0.0
O2168 O 0.27481 0.74845 0.25301 0.0
O2169 O 0.25902 0.76259 0.28329 0.0
O2170 O 0.28862 0.80991 0.29242 0.0
O2171 O 0.32417 0.83413 0.28706 0.0
O2172 O 0.32874 0.80311 0.33235 0.0
O2173 O 0.3071 0.76656 0.31831 0.0
C2174 C 0.33104 0.80457 0.24382 0.0
O2175 O 0.36612 0.83926 0.32705 0.0
O2176 O 0.3869 0.82288 0.30259 0.0
C2177 C 0.24305 0.7229 0.2688 0.0
C2178 C 0.21736 0.67769 0.27589 0.0
C2179 C 0.23877 0.68022 0.26446 0.0
C2180 C 0.2515 0.70257 0.26097 0.0
C2181 C 0.22169 0.72041 0.28018 0.0
C2182 C 0.20904 0.69808 0.28378 0.0
C2183 C 0.2558 0.74675 0.26487 0.0
H2184 H 0.39225 0.91604 0.29748 0.0
H2185 H 0.37034 0.87553 0.29747 0.0
H2186 H 0.43506 0.85624 0.33473 0.0
H2187 H 0.45736 0.89649 0.33416 0.0
H2188 H 0.2455 0.6649 0.2578 0.0
H2189 H 0.26783 0.70386 0.25201 0.0
H2190 H 0.21473 0.73579 0.2863 0.0
H2191 H 0.19283 0.69684 0.29294 0.0
Tb2192 Tb 0.56771 0.03044 0.51534 0.0
Eu2193 Eu 0.59529 0.06762 0.55966 0.0
C2194 C 0.56711 0.01793 0.56893 0.0
C2195 C 0.53973 0.07286 0.53605 0.0
C2196 C 0.53933 0.97404 0.47896 0.0
C2197 C 0.53068 0.93443 0.492 0.0
C2198 C 0.5343 0.95878 0.49726 0.0
C2199 C 0.54094 0.96458 0.45546 0.0
C2200 C 0.53762 0.94023 0.45027 0.0
C2201 C 0.53236 0.92496 0.46848 0.0
C2202 C 0.54254 0.99975 0.4839 0.0
O2203 O 0.58274 0.06016 0.49626 0.0
O2204 O 0.59899 0.08867 0.52754 0.0
O2205 O 0.62232 0.04174 0.55385 0.0
O2206 O 0.60459 0.01982 0.51843 0.0
C2207 C 0.59335 0.08175 0.5044 0.0
O2208 O 0.63003 0.0873 0.57785 0.0
O2209 O 0.59715 0.08736 0.59495 0.0
O2210 O 0.56967 0.04032 0.57542 0.0
O2211 O 0.57155 1.01079 0.54739 0.0
O2212 O 0.53924 0.05256 0.52298 0.0
O2213 O 0.56011 0.08282 0.55025 0.0
C2214 C 0.62335 0.02556 0.53608 0.0
O2215 O 0.53472 1.00727 0.50366 0.0
O2216 O 0.56371 1.012 0.48076 0.0
C2217 C 0.62661 0.12227 0.59955 0.0
C2218 C 0.63929 0.17161 0.60755 0.0
C2219 C 0.63258 0.16075 0.58376 0.0
C2220 C 0.62617 0.1363 0.57981 0.0
C2221 C 0.63338 0.1329 0.62327 0.0
C2222 C 0.63961 0.1574 0.62727 0.0
C2223 C 0.62022 0.09658 0.59539 0.0
H2224 H 0.52692 0.923 0.5064 0.0
H2225 H 0.53311 0.96561 0.51563 0.0
H2226 H 0.54473 0.97604 0.44109 0.0
H2227 H 0.53884 0.93332 0.43195 0.0
H2228 H 0.63239 0.17113 0.56816 0.0
H2229 H 0.62096 0.12833 0.56133 0.0
H2230 H 0.6337 0.12228 0.63868 0.0
H2231 H 0.64424 0.16522 0.64584 0.0
Tb2232 Tb 0.304 0.30302 0.77072 0.0
Eu2233 Eu 0.36027 0.30062 0.78964 0.0
C2234 C 0.34635 0.34292 0.75837 0.0
C2235 C 0.33753 0.28073 0.73343 0.0
C2236 C 0.23754 0.29573 0.77007 0.0
C2237 C 0.19366 0.28376 0.76909 0.0
C2238 C 0.21402 0.29073 0.75703 0.0
C2239 C 0.24057 0.29397 0.7953 0.0
C2240 C 0.22027 0.28703 0.80736 0.0
C2241 C 0.1966 0.28166 0.79435 0.0
C2242 C 0.25903 0.30081 0.75716 0.0
O2243 O 0.30276 0.27849 0.79869 0.0
O2244 O 0.33793 0.26531 0.79392 0.0
O2245 O 0.34505 0.31338 0.8242 0.0
O2246 O 0.30961 0.32392 0.80714 0.0
C2247 C 0.31653 0.26263 0.80165 0.0
O2248 O 0.39026 0.28104 0.79332 0.0
O2249 O 0.39493 0.31598 0.81154 0.0
O2250 O 0.36262 0.3354 0.7734 0.0
O2251 O 0.32362 0.33175 0.75335 0.0
O2252 O 0.31566 0.2814 0.74047 0.0
O2253 O 0.35751 0.29004 0.74848 0.0
C2254 C 0.32596 0.32368 0.82654 0.0
O2255 O 0.27422 0.32047 0.76441 0.0
O2256 O 0.27041 0.2832 0.75446 0.0
C2257 C 0.42932 0.30462 0.79731 0.0
C2258 C 0.47511 0.31598 0.78051 0.0
C2259 C 0.47286 0.3043 0.80186 0.0
C2260 C 0.45009 0.29865 0.81019 0.0
C2261 C 0.43143 0.31642 0.77612 0.0
C2262 C 0.45417 0.32209 0.7678 0.0
C2263 C 0.40549 0.29838 0.80594 0.0
H2264 H 0.17562 0.28 0.75864 0.0
H2265 H 0.21145 0.29184 0.7375 0.0
H2266 H 0.2587 0.29747 0.80559 0.0
H2267 H 0.22318 0.28528 0.82676 0.0
H2268 H 0.48861 0.29915 0.81187 0.0
H2269 H 0.44865 0.28949 0.82657 0.0
H2270 H 0.41549 0.32119 0.76604 0.0
H2271 H 0.45538 0.33138 0.75149 0.0
Tb2272 Tb 0.0802 0.03592 0.51109 0.0
Eu2273 Eu 0.08221 0.06157 0.56278 0.0
C2274 C 0.13229 0.06481 0.53607 0.0
C2275 C 0.08473 1.00386 0.55823 0.0
C2276 C 0.05964 0.02294 0.44685 0.0
C2277 C 0.04543 0.01859 0.40359 0.0
C2278 C 0.06042 1.01283 0.42345 0.0
C2279 C 0.0439 0.03891 0.45026 0.0
C2280 C 0.02898 0.04466 0.43053 0.0
C2281 C 0.0295 0.03453 0.40699 0.0
C2282 C 0.07536 0.01752 0.46792 0.0
O2283 O 0.04043 0.03303 0.51561 0.0
O2284 O 0.04362 0.03939 0.55677 0.0
O2285 O 0.07542 0.09155 0.53815 0.0
O2286 O 0.07975 0.07346 0.50164 0.0
C2287 C 0.03014 0.03131 0.53597 0.0
O2288 O 0.06536 0.07981 0.59024 0.0
O2289 O 0.10346 0.07582 0.59717 0.0
O2290 O 0.12017 0.07471 0.55154 0.0
O2291 O 0.12067 0.04606 0.52179 0.0
O2292 O 0.0834 1.00535 0.53421 0.0
O2293 O 0.08606 0.02351 0.5725 0.0
C2294 C 0.07757 0.09292 0.51469 0.0
O2295 O 0.09297 0.03467 0.47692 0.0
O2296 O 0.0638 1.00811 0.48496 0.0
C2297 C 0.08169 0.07577 0.63081 0.0
C2298 C 0.08762 0.06925 0.68072 0.0
C2299 C 0.07744 0.08833 0.67229 0.0
C2300 C 0.07478 0.0917 0.64749 0.0
C2301 C 0.08882 0.05518 0.63877 0.0
C2302 C 0.09194 0.05201 0.66355 0.0
C2303 C 0.08493 0.08243 0.60618 0.0
H2304 H 0.04602 1.01034 0.38566 0.0
H2305 H 0.07254 1.00051 0.42056 0.0
H2306 H 0.0432 0.04701 0.46823 0.0
H2307 H 1.0172 0.05723 0.43368 0.0
H2308 H 0.07316 0.10154 0.68496 0.0
H2309 H 0.06887 0.10752 0.64154 0.0
H2310 H 0.09388 0.04245 0.62606 0.0
H2311 H 0.09982 0.0371 0.66918 0.0
Tb2312 Tb 0.32249 0.77275 0.79532 0.0
Eu2313 Eu 0.34039 0.8265 0.78438 0.0
C2314 C 0.32599 0.81381 0.83802 0.0
C2315 C 0.28258 0.80222 0.77075 0.0
C2316 C 0.3004 0.7085 0.78517 0.0
C2317 C 0.30105 0.66699 0.77759 0.0
C2318 C 0.30294 0.68678 0.79385 0.0
C2319 C 0.29409 0.70992 0.76015 0.0
C2320 C 0.29197 0.69005 0.74382 0.0
C2321 C 0.29653 0.66858 0.75227 0.0
C2322 C 0.30857 0.72988 0.80168 0.0
O2323 O 0.33478 0.7693 0.75918 0.0
O2324 O 0.33497 0.80663 0.74764 0.0
O2325 O 0.37557 0.81112 0.79197 0.0
O2326 O 0.36058 0.78184 0.81467 0.0
C2327 C 0.33514 0.78433 0.74228 0.0
O2328 O 0.33612 0.85802 0.76584 0.0
O2329 O 0.36968 0.85729 0.78906 0.0
O2330 O 0.33546 0.82973 0.82419 0.0
O2331 O 0.31801 0.79165 0.82961 0.0
O2332 O 0.28982 0.78173 0.77311 0.0
O2333 O 0.29826 0.82197 0.77825 0.0
C2334 C 0.37959 0.79586 0.80802 0.0
O2335 O 0.33127 0.73971 0.8012 0.0
O2336 O 0.29424 0.74538 0.80152 0.0
C2337 C 0.35552 0.89312 0.78836 0.0
C2338 C 0.3468 0.93563 0.8096 0.0
C2339 C 0.3497 0.9333 0.78477 0.0
C2340 C 0.35404 0.91216 0.77423 0.0
C2341 C 0.35374 0.89569 0.81337 0.0
C2342 C 0.34957 0.91684 0.82394 0.0
C2343 C 0.35684 0.87018 0.77652 0.0
H2344 H 0.30508 0.65097 0.78488 0.0
H2345 H 0.30808 0.68547 0.8131 0.0
H2346 H 0.29222 0.72667 0.75312 0.0
H2347 H 0.28809 0.69185 0.72451 0.0
H2348 H 0.34733 0.94734 0.77318 0.0
H2349 H 0.35527 0.91037 0.75487 0.0
H2350 H 0.35479 0.88111 0.82457 0.0
H2351 H 0.34772 0.91823 0.84318 0.0
Tb2352 Tb 0.59025 0.04441 0.05672 0.0
Eu2353 Eu 0.56424 0.05526 1.00536 0.0
C2354 C 0.58505 1.0045 1.01079 0.0
C2355 C 0.62101 0.07326 0.02166 0.0
C2356 C 0.60265 0.04989 0.12158 0.0
C2357 C 0.61206 0.06344 0.16446 0.0
C2358 C 0.61804 0.0518 0.14369 0.0
C2359 C 0.58148 0.05986 0.12033 0.0
C2360 C 0.57557 0.07144 0.14087 0.0
C2361 C 0.59067 0.07325 0.16319 0.0
C2362 C 0.60904 0.03939 0.09907 0.0
O2363 O 0.58503 0.08178 0.06445 0.0
O2364 O 0.55896 0.08685 0.03107 0.0
O2365 O 0.53931 0.02569 0.01859 0.0
O2366 O 0.55076 0.03551 0.05888 0.0
C2367 C 0.57107 0.09504 0.05281 0.0
O2368 O 0.56446 0.06207 0.96727 0.0
O2369 O 0.53091 0.06093 0.98382 0.0
O2370 O 0.57803 0.02024 0.99624 0.0
O2371 O 0.58958 1.01021 0.03474 0.0
O2372 O 0.61991 0.05521 0.035 0.0
O2373 O 0.60095 0.07893 1.01121 0.0
C2374 C 0.53498 0.02387 0.04102 0.0
O2375 O 0.59161 0.02383 0.08661 0.0
O2376 O 0.61905 0.05468 0.08524 0.0
C2377 C 0.52783 0.04355 0.94402 0.0
C2378 C 0.50948 1.01102 0.90347 0.0
C2379 C 0.50375 0.03384 0.90435 0.0
C2380 C 0.51314 0.05009 0.9244 0.0
C2381 C 0.53147 0.02024 0.94434 0.0
C2382 C 0.52261 1.0042 0.92424 0.0
C2383 C 0.54075 0.061 0.96356 0.0
H2384 H 0.62395 0.06454 0.1815 0.0
H2385 H 0.63463 0.04448 0.14482 0.0
H2386 H 0.56959 0.05893 0.10332 0.0
H2387 H 0.55926 0.07922 0.13919 0.0
H2388 H 0.49312 0.03958 0.88905 0.0
H2389 H 0.50976 0.06794 0.92414 0.0
H2390 H 0.54239 1.01478 0.9596 0.0
H2391 H 0.52778 0.98705 0.92449 0.0
Tb2392 Tb 0.34048 0.32248 0.29507 0.0
Eu2393 Eu 0.31776 0.2732 0.26721 0.0
C2394 C 0.33899 0.27565 0.32605 0.0
C2395 C 0.37599 0.29764 0.2634 0.0
C2396 C 0.34016 0.38028 0.32405 0.0
C2397 C 0.30124 0.38595 0.33659 0.0
C2398 C 0.32027 0.37323 0.337 0.0
C2399 C 0.34204 0.40165 0.31313 0.0
C2400 C 0.32283 0.41415 0.31241 0.0
C2401 C 0.30172 0.40562 0.32296 0.0
C2402 C 0.3551 0.3632 0.31655 0.0
O2403 O 0.33184 0.33211 0.25662 0.0
O2404 O 0.30965 0.29782 0.23712 0.0
O2405 O 0.28692 0.28031 0.28969 0.0
O2406 O 0.30092 0.31915 0.30189 0.0
C2407 C 0.31938 0.32031 0.23641 0.0
O2408 O 0.32347 0.24166 0.24715 0.0
O2409 O 0.28678 0.24485 0.25347 0.0
O2410 O 0.33153 0.26246 0.30526 0.0
O2411 O 0.34345 0.29892 0.32564 0.0
O2412 O 0.37439 0.31267 0.28204 0.0
O2413 O 0.35617 0.28214 0.25433 0.0
C2414 C 0.2836 0.3 0.30118 0.0
O2415 O 0.3538 0.34398 0.32765 0.0
O2416 O 0.3532 0.35857 0.29316 0.0
C2417 C 0.29938 0.20801 0.25735 0.0
C2418 C 0.31854 0.17358 0.28288 0.0
C2419 C 0.31679 0.17256 0.25729 0.0
C2420 C 0.30721 0.18967 0.24462 0.0
C2421 C 0.29769 0.20702 0.28235 0.0
C2422 C 0.30698 0.18971 0.295 0.0
C2423 C 0.30101 0.23072 0.24669 0.0
H2424 H 0.28514 0.3791 0.3449 0.0
H2425 H 0.31826 0.35679 0.34557 0.0
H2426 H 0.35719 0.40742 0.30306 0.0
H2427 H 0.32365 0.42947 0.30202 0.0
H2428 H 0.32543 0.16039 0.24726 0.0
H2429 H 0.30877 0.19022 0.22536 0.0
H2430 H 0.29171 0.22103 0.2926 0.0
H2431 H 0.30739 0.19048 0.31461 0.0
Tb2432 Tb 0.57903 0.53744 1.00981 0.0
Eu2433 Eu 0.58079 0.56301 0.06183 0.0
C2434 C 0.63104 0.56613 0.03562 0.0
C2435 C 0.58331 0.50538 0.05701 0.0
C2436 C 0.5622 0.52275 0.94385 0.0
C2437 C 0.54231 0.50881 0.9031 0.0
C2438 C 0.55612 0.50502 0.92466 0.0
C2439 C 0.5545 0.54437 0.94123 0.0
C2440 C 0.54085 0.54822 0.91968 0.0
C2441 C 0.53446 0.53043 0.90045 0.0
C2442 C 0.57554 0.5183 0.96694 0.0
O2443 O 0.53921 0.53456 0.01409 0.0
O2444 O 0.54223 0.54076 0.05529 0.0
O2445 O 0.57468 0.59312 0.03714 0.0
O2446 O 0.57872 0.57502 1.00048 0.0
C2447 C 0.52885 0.53277 0.03441 0.0
O2448 O 0.56367 0.58138 0.08897 0.0
O2449 O 0.60149 0.57672 0.09666 0.0
O2450 O 0.61891 0.57605 0.05105 0.0
O2451 O 0.61941 0.54752 0.02114 0.0
O2452 O 0.58182 0.5069 0.033 0.0
O2453 O 0.58476 0.52498 0.07138 0.0
C2454 C 0.57679 0.5945 0.01367 0.0
O2455 O 0.59331 0.53507 0.97652 0.0
O2456 O 0.56196 0.5103 0.98316 0.0
C2457 C 0.57893 0.57703 0.12985 0.0
C2458 C 0.58232 0.57083 0.17992 0.0
C2459 C 0.57175 0.58931 0.17054 0.0
C2460 C 0.57033 0.59252 0.14569 0.0
C2461 C 0.5867 0.55701 0.13864 0.0
C2462 C 0.58855 0.55401 0.16348 0.0
C2463 C 0.58289 0.5836 0.10529 0.0
H2464 H 0.53781 0.49487 0.88848 0.0
H2465 H 0.56183 0.4882 0.92646 0.0
H2466 H 0.55877 0.55818 0.95596 0.0
H2467 H 0.53478 0.56492 0.9183 0.0
H2468 H 0.56606 0.60218 0.18257 0.0
H2469 H 0.56391 0.60789 0.13912 0.0
H2470 H 0.59308 0.54459 0.12662 0.0
H2471 H 0.59684 0.53958 0.16985 0.0
Tb2472 Tb 0.82074 0.27019 0.29197 0.0
Eu2473 Eu 0.8393 0.32467 0.28152 0.0
C2474 C 0.82307 0.31136 0.33395 0.0
C2475 C 0.78065 0.29966 0.26666 0.0
C2476 C 0.79567 0.20631 0.28196 0.0
C2477 C 0.79276 0.16425 0.27387 0.0
C2478 C 0.79605 0.18408 0.29039 0.0
C2479 C 0.78948 0.20826 0.25702 0.0
C2480 C 0.78621 0.18842 0.24043 0.0
C2481 C 0.78922 0.16644 0.24862 0.0
C2482 C 0.80701 0.22725 0.29822 0.0
O2483 O 0.82231 0.26854 0.25274 0.0
O2484 O 0.84678 0.30378 0.24838 0.0
O2485 O 0.87425 0.3144 0.30013 0.0
O2486 O 0.86126 0.27505 0.3035 0.0
C2487 C 0.83509 0.28279 0.23942 0.0
O2488 O 0.83605 0.35506 0.26062 0.0
O2489 O 0.86569 0.35743 0.28981 0.0
O2490 O 0.82506 0.32728 0.31801 0.0
O2491 O 0.8233 0.2891 0.32779 0.0
O2492 O 0.78555 0.2804 0.27658 0.0
O2493 O 0.79831 0.31815 0.26661 0.0
C2494 C 0.87895 0.29397 0.30669 0.0
O2495 O 0.82888 0.23645 0.29388 0.0
O2496 O 0.79383 0.2433 0.30182 0.0
C2497 C 0.84794 0.39107 0.28457 0.0
C2498 C 0.83265 0.43181 0.30271 0.0
C2499 C 0.83461 0.42807 0.27776 0.0
C2500 C 0.84226 0.40787 0.26879 0.0
C2501 C 0.84656 0.39501 0.30957 0.0
C2502 C 0.83917 0.41527 0.31857 0.0
C2503 C 0.85377 0.36893 0.27461 0.0
H2504 H 0.79544 0.14771 0.28088 0.0
H2505 H 0.801 0.18232 0.30958 0.0
H2506 H 0.78912 0.22536 0.25022 0.0
H2507 H 0.7832 0.19063 0.22113 0.0
H2508 H 0.8294 0.44029 0.265 0.0
H2509 H 0.84308 0.40504 0.24943 0.0
H2510 H 0.85074 0.38224 0.32215 0.0
H2511 H 0.83823 0.4178 0.33793 0.0
Tb2512 Tb 0.08779 0.54035 0.5615 0.0
Eu2513 Eu 0.06663 0.55331 0.50868 0.0
C2514 C 0.08333 0.50136 0.51346 0.0
C2515 C 0.1222 0.57331 0.52965 0.0
C2516 C 0.12313 0.54615 0.62164 0.0
C2517 C 0.14292 0.58588 0.63708 0.0
C2518 C 0.13417 0.56904 0.61752 0.0
C2519 C 0.12296 0.53966 0.64548 0.0
C2520 C 0.13156 0.55651 0.66507 0.0
C2521 C 0.14032 0.58013 0.661 0.0
C2522 C 0.10807 0.53068 0.6016 0.0
O2523 O 0.08164 0.57695 0.57172 0.0
O2524 O 0.0667 0.587 0.53429 0.0
O2525 O 0.03905 0.52388 0.51936 0.0
O2526 O 0.04849 0.52862 0.5606 0.0
C2527 C 0.07353 0.59277 0.55799 0.0
O2528 O 0.0671 0.56067 0.47069 0.0
O2529 O 0.03464 0.56278 0.48814 0.0
O2530 O 0.07713 0.51719 0.49875 0.0
O2531 O 0.08705 0.50698 0.53748 0.0
O2532 O 0.11714 0.56611 0.55077 0.0
O2533 O 0.10653 0.56794 0.50987 0.0
C2534 C 0.03362 0.51943 0.54109 0.0
O2535 O 0.08541 0.53365 0.59795 0.0
O2536 O 0.11754 0.52935 0.58126 0.0
C2537 C 0.02927 0.54671 0.44735 0.0
C2538 C 1.01131 0.51286 0.40789 0.0
C2539 C 1.00765 0.50756 0.43176 0.0
C2540 C 1.01676 0.5243 0.45137 0.0
C2541 C 0.03093 0.55278 0.42352 0.0
C2542 C 1.02205 0.53602 0.40394 0.0
C2543 C 0.04396 0.56223 0.46761 0.0
H2544 H 0.14979 0.60383 0.63337 0.0
H2545 H 0.13433 0.5744 0.59919 0.0
H2546 H 0.11438 0.5221 0.64895 0.0
H2547 H 0.129 0.55147 0.68321 0.0
H2548 H 0.99917 0.49004 0.43543 0.0
H2549 H 1.01534 0.51925 0.46971 0.0
H2550 H 0.04068 0.56994 0.42014 0.0
H2551 H 1.02559 0.54076 0.38593 0.0
Tb2552 Tb 0.80298 0.79679 0.27454 0.0
Eu2553 Eu 0.8585 0.79338 0.29421 0.0
C2554 C 0.84571 0.8365 0.2648 0.0
C2555 C 0.83575 0.7742 0.2377 0.0
C2556 C 0.73679 0.79509 0.27119 0.0
C2557 C 0.69319 0.79422 0.26923 0.0
C2558 C 0.71476 0.79848 0.25849 0.0
C2559 C 0.73731 0.78788 0.29487 0.0
C2560 C 0.7158 0.78345 0.30554 0.0
C2561 C 0.69346 0.78639 0.29277 0.0
C2562 C 0.75904 0.79798 0.25944 0.0
O2563 O 0.79961 0.77191 0.3021 0.0
O2564 O 0.83569 0.75888 0.30111 0.0
O2565 O 0.84345 0.80622 0.3287 0.0
O2566 O 0.80901 0.81803 0.31089 0.0
C2567 C 0.81357 0.75654 0.30734 0.0
O2568 O 0.88976 0.77547 0.29354 0.0
O2569 O 0.89222 0.80621 0.31859 0.0
O2570 O 0.86056 0.82989 0.28193 0.0
O2571 O 0.82446 0.82353 0.25648 0.0
O2572 O 0.81392 0.77393 0.24505 0.0
O2573 O 0.85555 0.78414 0.25267 0.0
C2574 C 0.82488 0.81734 0.33059 0.0
O2575 O 0.77542 0.81671 0.26717 0.0
O2576 O 0.76873 0.77914 0.25761 0.0
C2577 C 0.92741 0.80177 0.30072 0.0
C2578 C 0.97134 0.82046 0.283 0.0
C2579 C 0.96865 0.79866 0.2933 0.0
C2580 C 0.94684 0.78942 0.30212 0.0
C2581 C 0.93005 0.82359 0.29064 0.0
C2582 C 0.95186 0.83293 0.28202 0.0
C2583 C 0.90411 0.7914 0.30881 0.0
H2584 H 0.67632 0.79695 0.25909 0.0
H2585 H 0.71418 0.80411 0.24019 0.0
H2586 H 0.75427 0.78517 0.30488 0.0
H2587 H 0.7166 0.7771 0.32353 0.0
H2588 H 0.98313 0.78843 0.29399 0.0
H2589 H 0.94501 0.77245 0.30966 0.0
H2590 H 0.91517 0.83336 0.28925 0.0
H2591 H 0.95342 0.8499 0.27453 0.0
Tb2592 Tb 0.8639 0.30775 0.7945 0.0
Eu2593 Eu 0.81238 0.26978 0.7758 0.0
C2594 C 0.81339 0.32563 0.78582 0.0
C2595 C 0.83277 0.28109 0.83279 0.0
C2596 C 0.91635 0.35931 0.80514 0.0
C2597 C 0.91582 0.40124 0.80491 0.0
C2598 C 0.9037 0.37818 0.80658 0.0
C2599 C 0.94106 0.36379 0.8015 0.0
C2600 C 0.95314 0.38678 0.79967 0.0
C2601 C 0.94077 0.40586 0.8016 0.0
C2602 C 0.90449 0.33494 0.80792 0.0
O2603 O 0.87257 0.27435 0.78116 0.0
O2604 O 0.84001 0.24921 0.79136 0.0
O2605 O 0.82959 0.28119 0.7422 0.0
O2606 O 0.85297 0.31675 0.7577 0.0
C2607 C 0.863 0.25374 0.78783 0.0
O2608 O 0.79452 0.23837 0.75243 0.0
O2609 O 0.77313 0.25695 0.77447 0.0
O2610 O 0.80229 0.30537 0.77441 0.0
O2611 O 0.83608 0.32954 0.79665 0.0
O2612 O 0.85456 0.28935 0.82663 0.0
O2613 O 0.81316 0.27599 0.81652 0.0
C2614 C 0.84188 0.30215 0.73902 0.0
O2615 O 0.8863 0.33214 0.82087 0.0
O2616 O 0.90011 0.32044 0.78834 0.0
C2617 C 0.7594 0.21546 0.76538 0.0
C2618 C 0.73006 0.17195 0.77246 0.0
C2619 C 0.74501 0.17368 0.75368 0.0
C2620 C 0.75938 0.19518 0.75012 0.0
C2621 C 0.74488 0.21371 0.78452 0.0
C2622 C 0.7304 0.19216 0.78805 0.0
C2623 C 0.77321 0.23837 0.75989 0.0
H2624 H 0.90575 0.41547 0.80675 0.0
H2625 H 0.88457 0.37516 0.80929 0.0
H2626 H 0.95111 0.34946 0.80021 0.0
H2627 H 0.97218 0.38956 0.79664 0.0
H2628 H 0.74553 0.1584 0.74159 0.0
H2629 H 0.77024 0.19602 0.73512 0.0
H2630 H 0.7443 0.22905 0.79649 0.0
H2631 H 0.71895 0.1915 0.80255 0.0
Tb2632 Tb 0.84189 0.82269 0.79776 0.0
Eu2633 Eu 0.81852 0.77343 0.76969 0.0
C2634 C 0.8405 0.77608 0.82868 0.0
C2635 C 0.87773 0.79642 0.7674 0.0
C2636 C 0.84051 0.88026 0.82659 0.0
C2637 C 0.80112 0.88459 0.83895 0.0
C2638 C 0.82081 0.87266 0.83961 0.0
C2639 C 0.84156 0.90149 0.81548 0.0
C2640 C 0.82172 0.91316 0.81449 0.0
C2641 C 0.80079 0.90396 0.82501 0.0
C2642 C 0.85589 0.86366 0.81887 0.0
O2643 O 0.83345 0.83226 0.7593 0.0
O2644 O 0.8099 0.79847 0.74028 0.0
O2645 O 0.7851 0.78251 0.78674 0.0
O2646 O 0.80276 0.81853 0.80612 0.0
C2647 C 0.82032 0.8207 0.73933 0.0
O2648 O 0.80852 0.75033 0.73598 0.0
O2649 O 0.8017 0.73644 0.77011 0.0
O2650 O 0.83186 0.76299 0.80805 0.0
O2651 O 0.84619 0.79927 0.82817 0.0
O2652 O 0.87562 0.81334 0.78398 0.0
O2653 O 0.85848 0.77953 0.76011 0.0
C2654 C 0.78355 0.80094 0.80146 0.0
O2655 O 0.85555 0.84456 0.83009 0.0
O2656 O 0.85349 0.85888 0.79548 0.0
C2657 C 0.81865 0.71319 0.74331 0.0
C2658 C 0.85422 0.68447 0.74931 0.0
C2659 C 0.85848 0.70474 0.73658 0.0
C2660 C 0.84088 0.71898 0.73363 0.0
C2661 C 0.81339 0.69174 0.75385 0.0
C2662 C 0.83107 0.67748 0.75686 0.0
C2663 C 0.80382 0.73138 0.74739 0.0
H2664 H 0.78517 0.87729 0.84728 0.0
H2665 H 0.81947 0.85634 0.84836 0.0
H2666 H 0.85655 0.90767 0.80534 0.0
H2667 H 0.82189 0.92826 0.80385 0.0
H2668 H 0.87616 0.71072 0.73068 0.0
H2669 H 0.84557 0.73544 0.72547 0.0
H2670 H 0.79639 0.68694 0.76146 0.0
H2671 H 0.82716 0.66172 0.76637 0.0
Tb2672 Tb 0.55466 0.53806 0.53343 0.0
Eu2673 Eu 0.61214 0.5627 0.5557 0.0
C2674 C 0.59789 0.52393 0.5087 0.0
C2675 C 0.58607 0.51308 0.57182 0.0
C2676 C 0.49047 0.54144 0.52226 0.0
C2677 C 0.44977 0.54861 0.52739 0.0
C2678 C 0.46644 0.53318 0.52673 0.0
C2679 C 0.49761 0.56525 0.51828 0.0
C2680 C 0.48102 0.58062 0.51888 0.0
C2681 C 0.45695 0.57259 0.52371 0.0
C2682 C 0.50887 0.52608 0.52409 0.0
O2683 O 0.55684 0.56998 0.55707 0.0
O2684 O 0.59002 0.57125 0.58504 0.0
O2685 O 0.59589 0.58987 0.53474 0.0
O2686 O 0.56466 0.56532 0.50977 0.0
C2687 C 0.56722 0.57349 0.57967 0.0
O2688 O 0.64477 0.57103 0.58287 0.0
O2689 O 0.64715 0.58003 0.54587 0.0
O2690 O 0.61261 0.53235 0.52861 0.0
O2691 O 0.5745 0.52505 0.50592 0.0
O2692 O 0.56832 0.51085 0.55363 0.0
O2693 O 0.60301 0.53195 0.57706 0.0
C2694 C 0.57947 0.58564 0.51523 0.0
O2695 O 0.52358 0.52752 0.5074 0.0
O2696 O 0.52079 0.52661 0.54581 0.0
C2697 C 0.67858 0.56174 0.5645 0.0
C2698 C 0.71017 0.52859 0.56114 0.0
C2699 C 0.70655 0.53852 0.58397 0.0
C2700 C 0.69097 0.55491 0.58561 0.0
C2701 C 0.68289 0.55245 0.54165 0.0
C2702 C 0.69848 0.53613 0.54001 0.0
C2703 C 0.65925 0.57622 0.56636 0.0
H2704 H 0.43147 0.5419 0.53145 0.0
H2705 H 0.46073 0.51495 0.53025 0.0
H2706 H 0.51619 0.57209 0.51512 0.0
H2707 H 0.4871 0.59885 0.51561 0.0
H2708 H 0.71505 0.53301 0.60065 0.0
H2709 H 0.68794 0.56162 0.60345 0.0
H2710 H 0.67369 0.5572 0.52491 0.0
H2711 H 0.70115 0.52926 0.52211 0.0
Tb2712 Tb 0.06515 0.52963 0.01775 0.0
Eu2713 Eu 0.09607 0.56956 0.0571 0.0
C2714 C 0.06832 0.5215 0.07232 0.0
C2715 C 0.03872 0.57257 0.03739 0.0
C2716 C 0.03781 0.47216 0.98303 0.0
C2717 C 0.03916 0.43347 0.99706 0.0
C2718 C 0.04285 0.45789 1.00184 0.0
C2719 C 0.02973 0.4619 0.95935 0.0
C2720 C 1.02623 0.43753 0.95452 0.0
C2721 C 0.03058 0.42302 0.97338 0.0
C2722 C 0.03991 0.49762 0.98792 0.0
O2723 O 0.06981 0.56107 0.99838 0.0
O2724 O 0.10334 0.58369 0.02137 0.0
O2725 O 0.1207 0.54124 0.05465 0.0
O2726 O 0.10355 0.52232 0.01773 0.0
C2727 C 0.08776 0.57923 1.00151 0.0
O2728 O 0.13091 0.59189 0.07165 0.0
O2729 O 0.09968 0.59123 0.09139 0.0
O2730 O 0.07183 0.5443 0.07683 0.0
O2731 O 0.07074 0.5122 0.05093 0.0
O2732 O 0.03674 0.55021 0.02867 0.0
O2733 O 0.06071 0.58456 0.04663 0.0
C2734 C 0.122 0.52635 0.03588 0.0
O2735 O 0.03321 0.50447 1.00855 0.0
O2736 O 0.06011 0.51072 0.98338 0.0
C2737 C 0.12765 0.62681 0.09369 0.0
C2738 C 0.13712 0.67616 0.10175 0.0
C2739 C 0.12493 0.66509 0.07929 0.0
C2740 C 0.1202 0.64056 0.07531 0.0
C2741 C 0.1401 0.6377 0.11592 0.0
C2742 C 0.14481 0.66221 0.11996 0.0
C2743 C 0.12221 0.60112 0.08999 0.0
H2744 H 0.04256 0.42278 1.012 0.0
H2745 H 0.0492 0.46557 0.02027 0.0
H2746 H 1.02591 0.47273 0.94463 0.0
H2747 H 1.02017 0.43008 0.93597 0.0
H2748 H 0.119 0.67537 0.06484 0.0
H2749 H 0.11057 0.63231 0.05799 0.0
H2750 H 0.14589 0.62724 0.13028 0.0
H2751 H 0.15385 0.67017 0.13758 0.0
C2752 C 0.05136 0.14862 0.02322 0.0
C2753 C 0.06787 0.15775 1.00743 0.0
H2754 H 0.04257 0.12227 0.04791 0.0
C2755 C 0.09086 0.15096 1.00862 0.0
H2756 H 0.03346 0.15347 0.02249 0.0
C2757 C 0.09629 0.13357 0.02365 0.0
C2758 C 0.07867 0.12265 0.03738 0.0
H2759 H 0.10389 0.15787 0.99664 0.0
H2760 H 0.11311 0.12692 0.02249 0.0
C2761 C 0.05663 0.13096 0.03791 0.0
C2762 C 0.28094 0.88267 0.25982 0.0
C2763 C 0.25618 0.8793 0.26362 0.0
H2764 H 0.31472 0.86999 0.26518 0.0
C2765 C 0.24773 0.86253 0.2795 0.0
H2766 H 0.28812 0.8957 0.24803 0.0
C2767 C 0.26283 0.84772 0.28912 0.0
C2768 C 0.28683 0.84959 0.28339 0.0
H2769 H 0.22883 0.85941 0.28296 0.0
H2770 H 0.25524 0.83392 0.29991 0.0
C2771 C 0.29618 0.86799 0.26972 0.0
C2772 C 0.50537 0.85982 0.46407 0.0
C2773 C 0.52237 0.85023 0.45172 0.0
H2774 H 0.49537 0.8912 0.47928 0.0
C2775 C 0.5427 0.86532 0.44513 0.0
H2776 H 0.48956 0.84852 0.46931 0.0
C2777 C 0.5459 0.88957 0.45061 0.0
C2778 C 0.52896 0.8992 0.46298 0.0
H2779 H 0.5559 0.85839 0.43529 0.0
H2780 H 0.5617 0.90081 0.44527 0.0
C2781 C 0.50875 0.88413 0.46984 0.0
C2782 C 0.54313 0.3355 0.77817 0.0
C2783 C 0.54448 0.33208 0.7531 0.0
H2784 H 0.52007 0.33321 0.80652 0.0
C2785 C 0.52292 0.32322 0.73722 0.0
H2786 H 0.55947 0.34219 0.79084 0.0
C2787 C 0.5005 0.31791 0.74618 0.0
C2788 C 0.49908 0.32141 0.77121 0.0
H2789 H 0.52327 0.32072 0.71776 0.0
H2790 H 0.48426 0.31093 0.73347 0.0
C2791 C 0.52064 0.33016 0.78715 0.0
C2792 C 0.08169 0.95422 0.60514 0.0
C2793 C 0.08081 0.9325 0.59104 0.0
H2794 H 0.08377 0.99214 0.60699 0.0
C2795 C 0.08173 0.93526 0.56571 0.0
H2796 H 0.0814 0.95417 0.62459 0.0
C2797 C 0.08317 0.9577 0.55539 0.0
C2798 C 0.08403 0.9793 0.56955 0.0
H2799 H 0.08093 0.91985 0.55337 0.0
H2800 H 0.08348 0.95801 0.53593 0.0
C2801 C 0.08328 0.97665 0.59483 0.0
C2802 C 0.45082 0.81025 0.82464 0.0
C2803 C 0.45604 0.79358 0.84131 0.0
H2804 H 0.42393 0.82402 0.80133 0.0
C2805 C 0.43537 0.7775 0.84651 0.0
H2806 H 0.46563 0.8229 0.81948 0.0
C2807 C 0.41106 0.77817 0.83585 0.0
C2808 C 0.40595 0.79484 0.81924 0.0
H2809 H 0.4378 0.76447 0.85929 0.0
H2810 H 0.39614 0.7655 0.84081 0.0
C2811 C 0.42654 0.81082 0.81389 0.0
C2812 C 0.58136 0.15251 0.09814 0.0
C2813 C 0.5683 0.16842 0.08598 0.0
H2814 H 0.59245 0.11844 0.09826 0.0
C2815 C 0.55579 0.15909 0.06259 0.0
H2816 H 0.59114 0.15774 0.11616 0.0
C2817 C 0.55646 0.13585 0.05219 0.0
C2818 C 0.56965 0.12015 0.06436 0.0
H2819 H 0.54555 0.16988 0.0518 0.0
H2820 H 0.54661 0.13026 0.03423 0.0
C2821 C 0.58202 0.12931 0.08773 0.0
C2822 C 0.22077 0.27877 0.32663 0.0
C2823 C 0.21517 0.29906 0.33912 0.0
H2824 H 0.24499 0.26295 0.30569 0.0
C2825 C 0.23293 0.31996 0.33838 0.0
H2826 H 0.20874 0.26194 0.32634 0.0
C2827 C 0.25445 0.32044 0.32626 0.0
C2828 C 0.25985 0.30011 0.31387 0.0
H2829 H 0.23032 0.3364 0.34708 0.0
H2830 H 0.26698 0.33702 0.32666 0.0
C2831 C 0.24219 0.2793 0.31451 0.0
C2832 C 1.0262 0.035 0.1378 0.0
C2833 C 1.00768 0.04864 0.13779 0.0
H2834 H 0.05709 0.02739 0.12137 0.0
C2835 C 1.00759 0.06666 0.12191 0.0
H2836 H 1.02672 0.0208 0.14956 0.0
C2837 C 1.02468 0.07006 0.10548 0.0
C2838 C 0.04257 0.05588 0.10498 0.0
H2839 H 0.99408 0.07797 0.12188 0.0
H2840 H 1.02361 0.08349 0.09282 0.0
C2841 C 0.04364 0.03875 0.12167 0.0
C2842 C 0.32644 0.7849 0.40611 0.0
C2843 C 0.31744 0.76144 0.4105 0.0
H2844 H 0.33359 0.80986 0.37951 0.0
C2845 C 0.30751 0.74526 0.39032 0.0
H2846 H 0.33434 0.79783 0.42114 0.0
C2847 C 0.30699 0.75214 0.36651 0.0
C2848 C 0.31647 0.77543 0.36203 0.0
H2849 H 0.30002 0.72715 0.39291 0.0
H2850 H 0.29943 0.739 0.35156 0.0
C2851 C 0.32608 0.79178 0.38219 0.0
C2852 C 0.58414 0.97681 0.61458 0.0
C2853 C 0.57042 0.98241 0.63312 0.0
H2854 H 0.59334 0.98357 0.57886 0.0
C2855 C 0.55165 0.99529 0.62774 0.0
H2856 H 0.59874 0.96693 0.61816 0.0
C2857 C 0.54898 1.00517 0.60555 0.0
C2858 C 0.56451 1.00171 0.58812 0.0
H2859 H 0.54032 0.99933 0.64143 0.0
H2860 H 0.53594 0.01686 0.60269 0.0
C2861 C 0.58107 0.98632 0.59209 0.0
C2862 C 0.33825 0.34648 0.89591 0.0
C2863 C 0.31718 0.35576 0.90072 0.0
H2864 H 0.35753 0.32971 0.8703 0.0
C2865 C 0.29902 0.35423 0.88014 0.0
H2866 H 0.35322 0.34721 0.91027 0.0
C2867 C 0.30176 0.34418 0.85656 0.0
C2868 C 0.3228 0.33491 0.85196 0.0
H2869 H 0.28221 0.36054 0.88209 0.0
H2870 H 0.28709 0.34354 0.84185 0.0
C2871 C 0.34091 0.33636 0.87241 0.0
C2872 C 0.97311 0.04661 0.36884 0.0
C2873 C 0.98173 0.05046 0.34637 0.0
H2874 H 0.9814 0.03825 0.40552 0.0
C2875 C 1.00637 0.04973 0.34414 0.0
H2876 H 0.95421 0.04709 0.37107 0.0
C2877 C 1.02196 0.04472 0.36385 0.0
C2878 C 1.01321 0.04042 0.3862 0.0
H2879 H 1.01343 0.05225 0.32692 0.0
H2880 H 0.04082 0.04414 0.36159 0.0
C2881 C 0.98871 0.04167 0.38857 0.0
C2882 C 0.34058 0.74744 0.68411 0.0
C2883 C 0.33249 0.76126 0.66589 0.0
H2884 H 0.34736 0.74351 0.72253 0.0
C2885 C 0.32567 0.78261 0.67308 0.0
H2886 H 0.34577 0.73079 0.67912 0.0
C2887 C 0.327 0.79006 0.69778 0.0
C2888 C 0.33472 0.77618 0.71611 0.0
H2889 H 0.31941 0.79366 0.65953 0.0
H2890 H 0.3215 0.80663 0.70248 0.0
C2891 C 0.3414 0.75468 0.70896 0.0
C2892 C 0.51151 0.95901 0.85998 0.0
C2893 C 0.51828 0.97068 0.83971 0.0
H2894 H 0.5013 0.96237 0.89579 0.0
C2895 C 0.51559 0.99423 0.8383 0.0
H2896 H 0.51319 0.94075 0.8613 0.0
C2897 C 0.50983 1.00689 0.85832 0.0
C2898 C 0.50626 0.99611 0.88001 0.0
H2899 H 0.5208 1.00368 0.82288 0.0
H2900 H 0.51095 0.02568 0.85747 0.0
C2901 C 0.50504 0.97154 0.87982 0.0
C2902 C 0.30334 0.33175 0.16726 0.0
C2903 C 0.31485 0.35546 0.1653 0.0
H2904 H 0.29551 0.30254 0.18959 0.0
C2905 C 0.32741 0.3673 0.18771 0.0
H2906 H 0.29359 0.32124 0.15117 0.0
C2907 C 0.3285 0.35628 0.21021 0.0
C2908 C 0.31715 0.33259 0.21203 0.0
H2909 H 0.33644 0.38547 0.18815 0.0
H2910 H 0.33856 0.36654 0.22636 0.0
C2911 C 0.30451 0.32072 0.18977 0.0
C2912 C 0.24403 0.97192 0.08997 0.0
C2913 C 0.25183 0.96759 0.06717 0.0
H2914 H 0.22224 0.9904 0.11073 0.0
C2915 C 0.24338 0.97949 0.0475 0.0
H2916 H 0.24994 0.9628 0.10541 0.0
C2917 C 0.22763 0.99543 0.05058 0.0
C2918 C 0.21985 0.99983 0.07339 0.0
H2919 H 0.24933 0.97684 0.02979 0.0
H2920 H 0.22187 1.0046 0.03512 0.0
C2921 C 0.2282 0.9878 0.09303 0.0
C2922 C 0.69443 0.60836 0.04822 0.0
C2923 C 0.7092 0.59928 0.03219 0.0
H2924 H 0.65965 0.60563 0.06194 0.0
C2925 C 0.69754 0.57858 0.01727 0.0
H2926 H 0.70166 0.62434 0.05982 0.0
C2927 C 0.67271 0.56772 0.0184 0.0
C2928 C 0.65816 0.57691 0.03453 0.0
H2929 H 0.70763 0.57043 1.00472 0.0
H2930 H 0.66491 0.55203 1.00648 0.0
C2931 C 0.66977 0.59751 0.04937 0.0
C2932 C 0.79524 0.46777 0.3371 0.0
C2933 C 0.80047 0.48966 0.32743 0.0
H2934 H 0.80086 0.43223 0.33648 0.0
C2935 C 0.81716 0.49282 0.31032 0.0
H2936 H 0.78213 0.46477 0.35002 0.0
C2937 C 0.82815 0.47423 0.30271 0.0
C2938 C 0.82246 0.45211 0.31193 0.0
H2939 H 0.82165 0.50964 0.30278 0.0
H2940 H 0.841 0.47716 0.28953 0.0
C2941 C 0.80603 0.44916 0.32936 0.0
C2942 C 0.97906 0.4699 0.52467 0.0
C2943 C 0.96725 0.46973 0.54576 0.0
H2944 H 1.00881 0.4857 0.50666 0.0
C2945 C 0.97797 0.48596 0.56575 0.0
H2946 H 0.97199 0.45734 0.50913 0.0
C2947 C 0.99968 0.50199 0.56451 0.0
C2948 C 1.01091 0.50244 0.54311 0.0
H2949 H 0.96937 0.48664 0.58223 0.0
H2950 H 1.00738 0.51433 0.5801 0.0
C2951 C 1.00038 0.48615 0.52328 0.0
C2952 C 0.36372 0.13327 0.29611 0.0
C2953 C 0.38116 0.14773 0.31347 0.0
H2954 H 0.32938 0.12958 0.27343 0.0
C2955 C 0.37532 0.1683 0.3241 0.0
H2956 H 0.36754 0.11699 0.28806 0.0
C2957 C 0.35355 0.17551 0.31574 0.0
C2958 C 0.33712 0.16225 0.29662 0.0
H2959 H 0.3884 0.17981 0.33749 0.0
H2960 H 0.35077 0.19254 0.32282 0.0
C2961 C 0.34185 0.14042 0.28782 0.0
C2962 C 0.47361 0.08725 0.51766 0.0
C2963 C 0.47238 0.10735 0.53337 0.0
H2964 H 0.49417 0.06098 0.50604 0.0
C2965 C 0.49412 0.11571 0.54984 0.0
H2966 H 0.45787 0.07952 0.50468 0.0
C2967 C 0.51539 0.10488 0.55053 0.0
C2968 C 0.51649 0.08474 0.53497 0.0
H2969 H 0.49504 0.13108 0.56227 0.0
H2970 H 0.53117 0.11246 0.56357 0.0
C2971 C 0.49483 0.07629 0.51852 0.0
C2972 C 0.77425 0.71902 0.34666 0.0
C2973 C 0.78467 0.69863 0.34713 0.0
H2974 H 0.77508 0.75311 0.33366 0.0
C2975 C 0.80549 0.6979 0.3352 0.0
H2976 H 0.7585 0.72039 0.35595 0.0
C2977 C 0.81523 0.71685 0.32263 0.0
C2978 C 0.8042 0.73681 0.32146 0.0
H2979 H 0.81378 0.68235 0.33477 0.0
H2980 H 0.83096 0.71557 0.31326 0.0
C2981 C 0.7838 0.7378 0.33387 0.0
C2982 C 0.95455 0.47031 0.7884 0.0
C2983 C 0.97891 0.47743 0.79945 0.0
H2984 H 0.92361 0.44227 0.78002 0.0
C2985 C 0.99068 0.46071 0.81092 0.0
H2986 H 0.94475 0.48274 0.77969 0.0
C2987 C 0.97836 0.43758 0.81155 0.0
C2988 C 0.95396 0.43047 0.80059 0.0
H2989 H 1.00949 0.46544 0.8194 0.0
H2990 H 0.98789 0.42536 0.821 0.0
C2991 C 0.94227 0.44713 0.78891 0.0
C2992 C 0.07938 0.9567 0.08692 0.0
C2993 C 0.10213 0.9501 0.085 0.0
H2994 H 0.05498 0.97979 0.07576 0.0
C2995 C 0.11631 0.95948 0.06744 0.0
H2996 H 0.06802 0.9494 0.10017 0.0
C2997 C 0.1089 0.97681 0.05352 0.0
C2998 C 0.08712 0.98484 0.05685 0.0
H2999 H 0.13392 0.95465 0.06566 0.0
H3000 H 0.12099 0.98497 0.04127 0.0
C3001 C 0.07182 0.97387 0.07279 0.0
C3002 C 0.92023 0.22801 0.79975 0.0
C3003 C 0.91338 0.21143 0.81639 0.0
H3004 H 0.90967 0.25443 0.77765 0.0
C3005 C 0.88864 0.20616 0.82018 0.0
H3006 H 0.93905 0.23254 0.79629 0.0
C3007 C 0.87169 0.21876 0.80935 0.0
C3008 C 0.87921 0.23696 0.79467 0.0
H3009 H 0.88266 0.19321 0.83255 0.0
H3010 H 0.85312 0.21526 0.81381 0.0
C3011 C 0.90338 0.24073 0.78913 0.0
C3012 C 0.63505 0.23589 0.60372 0.0
C3013 C 0.65282 0.24685 0.6229 0.0
H3014 H 0.61652 0.20359 0.58414 0.0
C3015 C 0.66745 0.2331 0.63575 0.0
H3016 H 0.62369 0.24606 0.59327 0.0
C3017 C 0.66361 0.20876 0.63025 0.0
C3018 C 0.645 0.19765 0.61187 0.0
H3019 H 0.68116 0.24095 0.65077 0.0
H3020 H 0.67493 0.19859 0.64072 0.0
C3021 C 0.63111 0.21156 0.59832 0.0
C3022 C 0.62772 0.76152 0.3003 0.0
C3023 C 0.62764 0.76651 0.3254 0.0
H3024 H 0.64865 0.76368 0.27034 0.0
C3025 C 0.64908 0.7789 0.33946 0.0
H3026 H 0.61139 0.75228 0.28891 0.0
C3027 C 0.67022 0.78591 0.32874 0.0
C3028 C 0.67049 0.78045 0.30376 0.0
H3029 H 0.64973 0.7828 0.3589 0.0
H3030 H 0.68642 0.79547 0.34009 0.0
C3031 C 0.64896 0.76837 0.28959 0.0
C3032 C 0.07762 0.16068 0.50577 0.0
C3033 C 0.08187 0.16378 0.48118 0.0
H3034 H 0.07306 0.13776 0.53512 0.0
C3035 C 0.08417 0.1425 0.46789 0.0
H3036 H 0.07587 0.17576 0.51749 0.0
C3037 C 0.08245 0.12012 0.47831 0.0
C3038 C 0.07838 0.11718 0.5029 0.0
H3039 H 0.08713 0.14285 0.44898 0.0
H3040 H 0.0845 0.10494 0.46685 0.0
C3041 C 0.07603 0.13833 0.51621 0.0
C3042 C 0.72475 0.32168 0.23212 0.0
C3043 C 0.70482 0.30248 0.23089 0.0
H3044 H 0.76298 0.33606 0.24366 0.0
C3045 C 0.71057 0.28231 0.24207 0.0
H3046 H 0.72213 0.33759 0.22376 0.0
C3047 C 0.73458 0.28141 0.2536 0.0
C3048 C 0.75439 0.30061 0.25472 0.0
H3049 H 0.6964 0.267 0.24226 0.0
H3050 H 0.73758 0.26543 0.26168 0.0
C3051 C 0.74871 0.32076 0.24364 0.0
C3052 C 0.58149 0.9481 0.96529 0.0
C3053 C 0.59011 0.931 0.9798 0.0
H3054 H 0.57336 0.98323 0.96269 0.0
C3055 C 0.59734 0.93911 1.00481 0.0
H3056 H 0.57587 0.94371 0.946 0.0
C3057 C 0.59587 0.96235 0.01455 0.0
C3058 C 0.58727 0.97934 1.0 0.0
H3059 H 0.60388 0.9273 0.01732 0.0
H3060 H 0.6015 0.96697 0.03383 0.0
C3061 C 0.58019 0.97139 0.97501 0.0
C3062 C 0.92656 0.7794 0.72643 0.0
C3063 C 0.94739 0.79791 0.73168 0.0
H3064 H 0.88975 0.76421 0.73267 0.0
C3065 C 0.94467 0.81568 0.74965 0.0
H3066 H 0.92665 0.76522 0.71284 0.0
C3067 C 0.92288 0.81505 0.76128 0.0
C3068 C 0.90213 0.79662 0.75583 0.0
H3069 H 0.95958 0.83033 0.75513 0.0
H3070 H 0.92232 0.82936 0.77459 0.0
C3071 C 0.90479 0.77882 0.73802 0.0
C3072 C 0.13686 0.03226 0.95831 0.0
C3073 C 0.14871 0.05417 0.95201 0.0
H3074 H 0.11109 1.01442 0.97995 0.0
C3075 C 0.14114 0.07482 0.96025 0.0
H3076 H 0.14229 0.01607 0.95212 0.0
C3077 C 0.12354 0.07382 0.97607 0.0
C3078 C 0.11285 0.05214 0.9835 0.0
H3079 H 0.1493 0.09187 0.95502 0.0
H3080 H 0.11905 0.09011 0.98338 0.0
C3081 C 0.1189 0.03126 0.97396 0.0
C3082 C 0.85481 0.34043 0.68659 0.0
C3083 C 0.84382 0.32535 0.66584 0.0
H3084 H 0.86287 0.34513 0.72548 0.0
C3085 C 0.8323 0.30236 0.66951 0.0
H3086 H 0.86344 0.35839 0.68477 0.0
C3087 C 0.83179 0.29475 0.6931 0.0
C3088 C 0.84279 0.30989 0.71378 0.0
H3089 H 0.82382 0.29008 0.65412 0.0
H3090 H 0.82272 0.27696 0.6951 0.0
C3091 C 0.85434 0.33283 0.71011 0.0
C3092 C 0.59577 0.10796 0.44447 0.0
C3093 C 0.58709 0.12891 0.44947 0.0
H3094 H 0.6043 0.07622 0.45821 0.0
C3095 C 0.58548 0.13632 0.47371 0.0
H3096 H 0.59715 0.10177 0.42595 0.0
C3097 C 0.59012 0.12184 0.49229 0.0
C3098 C 0.59581 0.09958 0.48668 0.0
H3099 H 0.57885 0.15239 0.47799 0.0
H3100 H 0.58697 0.12709 0.51058 0.0
C3101 C 0.59973 0.09323 0.46288 0.0
C3102 C 0.81963 0.74162 0.17188 0.0
C3103 C 0.84262 0.74176 0.16318 0.0
H3104 H 0.7993 0.75115 0.20073 0.0
C3105 C 0.86327 0.75294 0.17983 0.0
H3106 H 0.80291 0.73382 0.1603 0.0
C3107 C 0.86108 0.76316 0.20346 0.0
C3108 C 0.8381 0.76295 0.21205 0.0
H3109 H 0.88149 0.7536 0.17485 0.0
H3110 H 0.87768 0.77129 0.21512 0.0
C3111 C 0.81745 0.75189 0.19549 0.0
C3112 C 0.1151 0.04876 0.73933 0.0
C3113 C 0.12833 0.07017 0.75095 0.0
H3114 H 0.09046 0.03165 0.7085 0.0
C3115 C 0.12488 0.09135 0.74132 0.0
H3116 H 0.11721 0.03223 0.74672 0.0
C3117 C 0.11001 0.09107 0.71934 0.0
C3118 C 0.09804 0.06958 0.70665 0.0
H3119 H 0.135 0.10809 0.7499 0.0
H3120 H 0.1095 0.10769 0.71153 0.0
C3121 C 0.09985 0.04847 0.71748 0.0
C3122 C 0.82202 0.3494 0.39274 0.0
C3123 C 0.82252 0.33306 0.41058 0.0
H3124 H 0.82184 0.3556 0.35493 0.0
C3125 C 0.82229 0.30941 0.4027 0.0
H3126 H 0.82247 0.36782 0.39798 0.0
C3127 C 0.82189 0.30238 0.37793 0.0
C3128 C 0.82184 0.31877 0.36014 0.0
H3129 H 0.82235 0.29621 0.41571 0.0
H3130 H 0.82196 0.28403 0.3728 0.0
C3131 C 0.82175 0.34239 0.36794 0.0
C3132 C 0.55153 0.09208 0.20901 0.0
C3133 C 0.56852 0.10843 0.225 0.0
H3134 H 0.54539 0.06778 0.17747 0.0
C3135 C 0.5932 0.1128 0.22094 0.0
H3136 H 0.53255 0.08772 0.21212 0.0
C3137 C 0.60063 0.10119 0.20101 0.0
C3138 C 0.58349 0.08502 0.18493 0.0
H3139 H 0.60668 0.12523 0.2331 0.0
H3140 H 0.61965 0.10511 0.19796 0.0
C3141 C 0.55892 0.08052 0.18925 0.0
C3142 C 0.84944 0.76702 0.899 0.0
C3143 C 0.84541 0.74216 0.90034 0.0
H3144 H 0.85158 0.79677 0.87691 0.0
C3145 C 0.84028 0.72886 0.87727 0.0
H3146 H 0.85372 0.77852 0.91564 0.0
C3147 C 0.839 0.73958 0.85462 0.0
C3148 C 0.84305 0.76439 0.85335 0.0
H3149 H 0.83669 0.70982 0.87653 0.0
H3150 H 0.83462 0.72818 0.83788 0.0
C3151 C 0.84841 0.77774 0.87633 0.0
C3152 C 0.91938 0.12093 0.04245 0.0
C3153 C 0.90295 0.12423 0.02237 0.0
H3154 H 0.94845 0.10366 0.05582 0.0
C3155 C 0.90339 0.11187 0.99982 0.0
H3156 H 0.91922 0.12984 0.06017 0.0
C3157 C 0.92011 0.09681 0.99734 0.0
C3158 C 0.93679 0.09383 0.01733 0.0
H3159 H 0.89121 0.11427 0.9839 0.0
H3160 H 0.9204 0.088 0.9796 0.0
C3161 C 0.9361 0.1059 0.03996 0.0
C3162 C 0.46709 0.50631 0.05711 0.0
C3163 C 0.45076 0.49804 0.03563 0.0
H3164 H 0.50311 0.5234 0.07369 0.0
C3165 C 0.46068 0.5019 0.01343 0.0
H3166 H 0.46081 0.50434 0.07474 0.0
C3167 C 0.4855 0.51308 0.01282 0.0
C3168 C 0.50172 0.52127 0.03438 0.0
H3169 H 0.44939 0.49584 0.99626 0.0
H3170 H 0.492 0.5152 0.9953 0.0
C3171 C 0.49173 0.51761 0.0565 0.0
C3172 C 0.32384 0.63749 0.70342 0.0
C3173 C 0.32149 0.61465 0.71125 0.0
H3174 H 0.31803 0.67257 0.71035 0.0
C3175 C 0.30614 0.60857 0.72914 0.0
H3176 H 0.33501 0.64258 0.68923 0.0
C3177 C 0.29571 0.62567 0.74084 0.0
C3178 C 0.30075 0.64926 0.73518 0.0
H3179 H 0.3038 0.59115 0.73562 0.0
H3180 H 0.28516 0.62073 0.75552 0.0
C3181 C 0.31375 0.65467 0.71537 0.0
C3182 C 0.17548 0.61212 0.50633 0.0
C3183 C 0.19037 0.62132 0.52822 0.0
H3184 H 0.14237 0.58961 0.4895 0.0
C3185 C 0.18264 0.61439 0.55034 0.0
H3186 H 0.18099 0.61688 0.48894 0.0
C3187 C 0.16079 0.59859 0.55064 0.0
C3188 C 0.14586 0.58936 0.52883 0.0
H3189 H 0.19332 0.62145 0.56759 0.0
H3190 H 0.15548 0.59392 0.56811 0.0
C3191 C 0.15343 0.59635 0.50664 0.0
C3192 C 0.74606 0.91584 0.78487 0.0
C3193 C 0.73132 0.9227 0.80187 0.0
H3194 H 0.77969 0.90501 0.77905 0.0
C3195 C 0.73985 0.9236 0.82691 0.0
H3196 H 0.73992 0.91432 0.76551 0.0
C3197 C 0.76259 0.91778 0.83466 0.0
C3198 C 0.77737 0.91148 0.81751 0.0
H3199 H 0.72918 0.92914 0.84054 0.0
H3200 H 0.76873 0.9184 0.85398 0.0
C3201 C 0.76888 0.9105 0.7926 0.0
C3202 C 0.66898 0.98386 0.51874 0.0
C3203 C 0.68999 0.99013 0.53667 0.0
H3204 H 0.63279 0.98914 0.50425 0.0
C3205 C 0.68815 1.0085 0.55435 0.0
H3206 H 0.66838 0.96992 0.50468 0.0
C3207 C 0.6671 0.01961 0.55414 0.0
C3208 C 0.64627 1.01331 0.53621 0.0
H3209 H 0.7032 1.01479 0.56856 0.0
H3210 H 0.6673 0.03344 0.56827 0.0
C3211 C 0.64796 0.99504 0.51851 0.0
C3212 C 0.38501 0.39831 0.74048 0.0
C3213 C 0.36748 0.40824 0.72641 0.0
H3214 H 0.39216 0.37003 0.76164 0.0
C3215 C 0.34317 0.396 0.7221 0.0
H3216 H 0.40384 0.40744 0.74442 0.0
C3217 C 0.33641 0.3746 0.7321 0.0
C3218 C 0.35381 0.36499 0.74675 0.0
H3219 H 0.32929 0.4031 0.71115 0.0
H3220 H 0.31744 0.36583 0.72865 0.0
C3221 C 0.37826 0.37694 0.75055 0.0
C3222 C 0.16498 0.62663 0.27876 0.0
C3223 C 0.17752 0.60832 0.28471 0.0
H3224 H 0.16759 0.66266 0.27096 0.0
C3225 C 0.20328 0.61313 0.28818 0.0
H3226 H 0.14515 0.6236 0.27613 0.0
C3227 C 0.21616 0.63563 0.28559 0.0
C3228 C 0.20363 0.65388 0.27932 0.0
H3229 H 0.21357 0.59937 0.29239 0.0
H3230 H 0.23598 0.63871 0.28854 0.0
C3231 C 0.17786 0.64912 0.27607 0.0
C3232 C 0.57075 0.64493 0.49474 0.0
C3233 C 0.56021 0.63864 0.47044 0.0
H3234 H 0.58583 0.63298 0.52808 0.0
C3235 C 0.55834 0.6154 0.46056 0.0
H3236 H 0.57261 0.66284 0.50265 0.0
C3237 C 0.5658 0.59849 0.47499 0.0
C3238 C 0.57551 0.60451 0.49951 0.0
H3239 H 0.5502 0.61006 0.44193 0.0
H3240 H 0.56334 0.5805 0.46709 0.0
C3241 C 0.57855 0.62798 0.50916 0.0
C3242 C 0.76031 0.35673 0.78164 0.0
C3243 C 0.76848 0.3751 0.76742 0.0
H3244 H 0.76857 0.32637 0.79863 0.0
C3245 C 0.79331 0.37984 0.76387 0.0
H3246 H 0.74123 0.35242 0.78441 0.0
C3247 C 0.80908 0.36501 0.77242 0.0
C3248 C 0.79999 0.34516 0.78418 0.0
H3249 H 0.8 0.39385 0.75291 0.0
H3250 H 0.82762 0.36776 0.76781 0.0
C3251 C 0.77588 0.3417 0.78968 0.0
C3252 C 1.00297 0.36158 0.94519 0.0
C3253 C 1.01988 0.34843 0.95525 0.0
H3254 H 0.99275 0.39535 0.94353 0.0
C3255 C 0.0394 0.35955 0.97262 0.0
H3256 H 0.98761 0.35328 0.93195 0.0
C3257 C 0.04261 0.38372 0.97897 0.0
C3258 C 1.02623 0.3971 0.96819 0.0
H3259 H 0.05281 0.34978 0.98041 0.0
H3260 H 0.05846 0.39204 0.99159 0.0
C3261 C 1.00604 0.38565 0.95169 0.0
C3262 C 1.01382 0.84889 0.24029 0.0
C3263 C 0.03677 0.84586 0.25143 0.0
H3264 H 0.97517 0.84276 0.24118 0.0
C3265 C 0.03823 0.8351 0.27344 0.0
H3266 H 1.01212 0.85679 0.22312 0.0
C3267 C 1.01707 0.82722 0.28395 0.0
C3268 C 0.99401 0.82979 0.27255 0.0
H3269 H 0.05575 0.83278 0.28253 0.0
H3270 H 1.01879 0.81913 0.30101 0.0
C3271 C 0.99266 0.84086 0.25068 0.0
C3272 C 0.58029 0.43682 0.06407 0.0
C3273 C 0.57953 0.43398 0.08939 0.0
H3274 H 0.58189 0.4597 0.03442 0.0
C3275 C 0.5805 0.45563 0.10364 0.0
H3276 H 0.5794 0.42146 0.05165 0.0
C3277 C 0.58204 0.47809 0.09347 0.0
C3278 C 0.58264 0.48082 0.06819 0.0
H3279 H 0.58033 0.45547 0.1231 0.0
H3280 H 0.58262 0.49355 0.10571 0.0
C3281 C 0.58169 0.4593 0.05388 0.0
C3282 C 0.93656 0.27051 0.33589 0.0
C3283 C 0.95499 0.29107 0.34133 0.0
H3284 H 0.89914 0.25498 0.32142 0.0
C3285 C 0.94768 0.31235 0.33473 0.0
H3286 H 0.94065 0.25363 0.34059 0.0
C3287 C 0.9236 0.31308 0.32357 0.0
C3288 C 0.90516 0.29262 0.31835 0.0
H3289 H 0.96074 0.32874 0.3379 0.0
H3290 H 0.91944 0.33 0.31908 0.0
C3291 C 0.91234 0.27128 0.32483 0.0
C3292 C 0.07578 0.64794 0.60505 0.0
C3293 C 0.07073 0.66646 0.59053 0.0
H3294 H 0.08098 0.61176 0.60717 0.0
C3295 C 0.06658 0.65981 0.56502 0.0
H3296 H 0.07947 0.65142 0.62464 0.0
C3297 C 0.06723 0.6365 0.55485 0.0
C3298 C 0.07239 0.61809 0.56935 0.0
H3299 H 0.06239 0.67265 0.55257 0.0
H3300 H 0.06375 0.63297 0.53524 0.0
C3301 C 0.07677 0.6247 0.59483 0.0
C3302 C 0.71716 0.78294 0.82062 0.0
C3303 C 0.71519 0.80061 0.83897 0.0
H3304 H 0.73866 0.76893 0.7951 0.0
C3305 C 0.73635 0.81878 0.8441 0.0
H3306 H 0.70217 0.76825 0.81567 0.0
C3307 C 0.75776 0.81916 0.83193 0.0
C3308 C 0.75969 0.80139 0.81377 0.0
H3309 H 0.73651 0.83314 0.85758 0.0
H3310 H 0.7731 0.83347 0.8371 0.0
C3311 C 0.73861 0.78328 0.80857 0.0
C3312 C 0.53974 0.5651 0.63793 0.0
C3313 C 0.5161 0.56975 0.63124 0.0
H3314 H 0.57485 0.56323 0.62692 0.0
C3315 C 0.51111 0.57943 0.60898 0.0
H3316 H 0.54421 0.55752 0.65487 0.0
C3317 C 0.52862 0.58251 0.59292 0.0
C3318 C 0.5516 0.57625 0.5989 0.0
H3319 H 0.49335 0.58385 0.60355 0.0
H3320 H 0.52371 0.58868 0.57529 0.0
C3321 C 0.55738 0.56845 0.62194 0.0
C3322 C 0.84898 0.26761 0.89856 0.0
C3323 C 0.82596 0.26357 0.90707 0.0
H3324 H 0.86926 0.27655 0.86883 0.0
C3325 C 0.8053 0.26615 0.89115 0.0
H3326 H 0.86531 0.26592 0.91036 0.0
C3327 C 0.80751 0.27197 0.86717 0.0
C3328 C 0.83051 0.27578 0.85858 0.0
H3329 H 0.78727 0.26297 0.89699 0.0
H3330 H 0.79112 0.27338 0.85532 0.0
C3331 C 0.85125 0.27381 0.87474 0.0
C3332 C 0.05259 0.50277 0.13276 0.0
C3333 C 0.06935 0.48771 0.13807 0.0
H3334 H 0.03939 0.5256 0.10752 0.0
C3335 C 0.08213 0.48036 0.11945 0.0
H3336 H 0.04184 0.50817 0.14641 0.0
C3337 C 0.08 0.48977 0.09684 0.0
C3338 C 0.06542 0.50689 0.0928 0.0
H3339 H 0.09523 0.46886 0.12289 0.0
H3340 H 0.09136 0.48521 0.08338 0.0
C3341 C 0.05099 0.51261 0.11048 0.0
C3342 C 0.83699 0.8404 0.39985 0.0
C3343 C 0.81689 0.85148 0.40404 0.0
H3344 H 0.85527 0.82161 0.37493 0.0
C3345 C 0.7994 0.85102 0.38311 0.0
H3346 H 0.85142 0.84022 0.41454 0.0
C3347 C 0.80185 0.84026 0.35977 0.0
C3348 C 0.82193 0.82921 0.35577 0.0
H3349 H 0.78334 0.85875 0.38463 0.0
H3350 H 0.78773 0.84053 0.34475 0.0
C3351 C 0.83938 0.82962 0.37657 0.0
C3352 C 0.509 0.55941 0.8462 0.0
C3353 C 0.48922 0.54189 0.8358 0.0
H3354 H 0.53895 0.56946 0.87475 0.0
C3355 C 0.48458 0.52051 0.84664 0.0
H3356 H 0.51296 0.57607 0.83823 0.0
C3357 C 0.4994 0.51672 0.8675 0.0
C3358 C 0.51911 0.53428 0.87798 0.0
H3359 H 0.46968 0.50653 0.83879 0.0
H3360 H 0.49524 0.50015 0.87558 0.0
C3361 C 0.52376 0.55568 0.86715 0.0
C3362 C 0.81972 0.24654 0.17801 0.0
C3363 C 0.8299 0.26229 0.16192 0.0
H3364 H 0.81362 0.24036 0.21465 0.0
C3365 C 0.84309 0.2845 0.17188 0.0
H3366 H 0.80992 0.22909 0.17125 0.0
C3367 C 0.84539 0.29097 0.19704 0.0
C3368 C 0.83465 0.27539 0.21298 0.0
H3369 H 0.8511 0.29718 0.16016 0.0
H3370 H 0.85515 0.30841 0.20388 0.0
C3371 C 0.82205 0.25297 0.20308 0.0
C3372 C 1.01012 0.48458 0.345 0.0
C3373 C 1.02206 0.4657 0.35044 0.0
H3374 H 0.99612 0.51397 0.35914 0.0
C3375 C 1.02346 0.45872 0.37431 0.0
H3376 H 1.00845 0.49044 0.32682 0.0
C3377 C 1.0171 0.47276 0.39302 0.0
C3378 C 1.00877 0.49378 0.38806 0.0
H3379 H 0.03186 0.44381 0.37897 0.0
H3380 H 1.02131 0.46841 0.41155 0.0
C3381 C 1.00333 0.49836 0.36365 0.0
C3382 C 0.82891 0.86722 0.69029 0.0
C3383 C 0.81595 0.8554 0.66804 0.0
H3384 H 0.84034 0.86656 0.72889 0.0
C3385 C 0.80397 0.83191 0.67023 0.0
H3386 H 0.83831 0.88525 0.69055 0.0
C3387 C 0.80506 0.82104 0.69283 0.0
C3388 C 0.81812 0.83287 0.71492 0.0
H3389 H 0.7939 0.82142 0.65427 0.0
H3390 H 0.7957 0.803 0.69283 0.0
C3391 C 0.82995 0.85636 0.71287 0.0
C3392 C 0.76126 0.49352 0.57388 0.0
C3393 C 0.75425 0.47432 0.55613 0.0
H3394 H 0.75329 0.5258 0.5891 0.0
C3395 C 0.73269 0.47318 0.53999 0.0
H3396 H 0.77797 0.49519 0.58636 0.0
C3397 C 0.71847 0.49073 0.5416 0.0
C3398 C 0.72549 0.50998 0.55934 0.0
H3399 H 0.72655 0.4585 0.52632 0.0
H3400 H 0.70173 0.48898 0.52917 0.0
C3401 C 0.74709 0.51111 0.57545 0.0
C3402 C 0.19862 0.07778 0.51719 0.0
C3403 C 0.21014 0.09873 0.5318 0.0
H3404 H 0.16622 0.05082 0.50688 0.0
C3405 C 0.19531 0.10778 0.5478 0.0
H3406 H 0.20874 0.06962 0.50468 0.0
C3407 C 0.17078 0.09669 0.54921 0.0
C3408 C 0.15931 0.07584 0.53468 0.0
H3409 H 0.20239 0.12393 0.55918 0.0
H3410 H 0.16062 0.10481 0.56175 0.0
C3411 C 0.17391 0.06668 0.51858 0.0
C3412 C 0.33632 0.99811 0.82021 0.0
C3413 C 0.31675 0.99473 0.83416 0.0
H3414 H 0.3617 0.98205 0.80192 0.0
C3415 C 0.3087 0.97227 0.84169 0.0
H3416 H 0.34306 1.01532 0.81442 0.0
C3417 C 0.31927 0.95334 0.83456 0.0
C3418 C 0.33816 0.95644 0.81976 0.0
H3419 H 0.29336 0.96902 0.85207 0.0
H3420 H 0.31174 0.93603 0.83962 0.0
C3421 C 0.34696 0.97911 0.81308 0.0
C3422 C 0.48511 0.98732 0.07195 0.0
C3423 C 0.46914 0.97565 0.0516 0.0
H3424 H 0.5184 1.012 0.0848 0.0
C3425 C 0.47523 0.98008 0.02824 0.0
H3426 H 0.48094 0.98438 0.09023 0.0
C3427 C 0.49632 0.99586 0.02517 0.0
C3428 C 0.51227 1.00775 0.04535 0.0
H3429 H 0.46379 0.9711 1.01212 0.0
H3430 H 0.50013 0.99855 1.00674 0.0
C3431 C 0.50647 1.00327 0.06886 0.0
C3432 C 0.91423 0.66261 0.75158 0.0
C3433 C 0.91832 0.65813 0.77619 0.0
H3434 H 0.8903 0.67376 0.72349 0.0
C3435 C 0.90011 0.66015 0.79119 0.0
H3436 H 0.92775 0.66064 0.73947 0.0
C3437 C 0.87866 0.66752 0.78203 0.0
C3438 C 0.87497 0.67294 0.75766 0.0
H3439 H 0.90283 0.65689 0.81025 0.0
H3440 H 0.86552 0.67008 0.79439 0.0
C3441 C 0.89276 0.66994 0.7424 0.0
C3442 C 0.97128 0.58462 0.02296 0.0
C3443 C 0.97155 0.60699 0.03534 0.0
H3444 H 0.99066 0.55657 0.01397 0.0
C3445 C 0.99468 0.61765 0.04842 0.0
H3446 H 0.9544 0.57514 1.01274 0.0
C3447 C 1.01594 0.60684 0.04895 0.0
C3448 C 1.01556 0.58443 0.03675 0.0
H3449 H 0.99665 0.6348 0.05815 0.0
H3450 H 0.03288 0.61621 0.0592 0.0
C3451 C 0.99246 0.57368 0.02378 0.0
C3452 C 0.30998 0.20197 0.82452 0.0
C3453 C 0.29059 0.20195 0.83861 0.0
H3454 H 0.33342 0.22119 0.80183 0.0
C3455 C 0.28044 0.2224 0.84105 0.0
H3456 H 0.31788 0.18637 0.82178 0.0
C3457 C 0.28896 0.24213 0.82909 0.0
C3458 C 0.30805 0.24195 0.81473 0.0
H3459 H 0.26574 0.22311 0.85202 0.0
H3460 H 0.28057 0.25753 0.83112 0.0
C3461 C 0.31874 0.22184 0.81286 0.0
C3462 C 0.4466 0.97287 0.3019 0.0
C3463 C 0.46101 0.98276 0.32378 0.0
H3464 H 0.42485 0.94192 0.28207 0.0
C3465 C 0.46472 0.96823 0.3427 0.0
H3466 H 0.44373 0.98356 0.28685 0.0
C3467 C 0.45386 0.94442 0.34 0.0
C3468 C 0.43912 0.93457 0.31826 0.0
H3469 H 0.47547 0.97541 0.35988 0.0
H3470 H 0.45645 0.93391 0.35525 0.0
C3471 C 0.4358 0.94903 0.29916 0.0
C3472 C 0.60551 0.47998 0.62428 0.0
C3473 C 0.60222 0.457 0.61323 0.0
H3474 H 0.6026 0.51575 0.61965 0.0
C3475 C 0.59075 0.452 0.58909 0.0
H3476 H 0.61442 0.48432 0.64281 0.0
C3477 C 0.58377 0.47004 0.57583 0.0
C3478 C 0.5886 0.49325 0.58651 0.0
H3479 H 0.58781 0.43431 0.58031 0.0
H3480 H 0.57596 0.46609 0.55691 0.0
C3481 C 0.59886 0.49795 0.611 0.0
C3482 C 0.39116 0.71528 0.28898 0.0
C3483 C 0.39588 0.71156 0.31382 0.0
H3484 H 0.37133 0.73278 0.26246 0.0
C3485 C 0.38008 0.71807 0.3299 0.0
H3486 H 0.40289 0.71022 0.27613 0.0
C3487 C 0.36224 0.7309 0.32207 0.0
C3488 C 0.35963 0.73708 0.29801 0.0
H3489 H 0.38323 0.71568 0.34915 0.0
H3490 H 0.35193 0.73779 0.33535 0.0
C3491 C 0.37309 0.72806 0.2811 0.0
C3492 C 0.16467 0.73875 0.12685 0.0
C3493 C 0.14519 0.7505 0.12053 0.0
H3494 H 0.17752 0.70604 0.12556 0.0
C3495 C 0.12387 0.73804 0.10633 0.0
H3496 H 0.18128 0.74785 0.1379 0.0
C3497 C 0.1216 0.71408 0.09955 0.0
C3498 C 0.14064 0.70207 0.10676 0.0
H3499 H 0.10869 0.74672 0.10091 0.0
H3500 H 0.10453 0.70479 0.08946 0.0
C3501 C 0.1624 0.71476 0.12003 0.0
C3502 C 0.1532 0.27661 0.84218 0.0
C3503 C 0.13468 0.25785 0.83177 0.0
H3504 H 0.18704 0.29903 0.8384 0.0
C3505 C 0.13666 0.24693 0.80894 0.0
H3506 H 0.15234 0.28523 0.85988 0.0
C3507 C 0.15668 0.25473 0.79671 0.0
C3508 C 0.17515 0.27356 0.80711 0.0
H3509 H 0.12258 0.23256 0.80037 0.0
H3510 H 0.15783 0.24585 0.77923 0.0
C3511 C 0.17321 0.28438 0.82999 0.0
C3512 C 0.58384 0.64425 0.96713 0.0
C3513 C 0.5818 0.66555 0.98054 0.0
H3514 H 0.58378 0.60663 0.96589 0.0
C3515 C 0.57754 0.66242 1.00512 0.0
H3516 H 0.58677 0.64463 0.94822 0.0
C3517 C 0.57573 0.64001 0.01544 0.0
C3518 C 0.57784 0.61884 1.00201 0.0
H3519 H 0.57597 0.67751 0.01692 0.0
H3520 H 0.57277 0.63939 0.03436 0.0
C3521 C 0.5819 0.62182 0.97743 0.0
C3522 C 0.21556 0.78265 0.7376 0.0
C3523 C 0.20683 0.80401 0.73422 0.0
H3524 H 0.24486 0.76516 0.75124 0.0
C3525 C 0.22372 0.82482 0.74358 0.0
H3526 H 0.20375 0.76597 0.73138 0.0
C3527 C 0.24773 0.82428 0.75532 0.0
C3528 C 0.25636 0.80291 0.75855 0.0
H3529 H 0.21864 0.84185 0.7415 0.0
H3530 H 0.25967 0.84086 0.76178 0.0
C3531 C 0.23952 0.78213 0.74938 0.0
C3532 C 0.08601 0.44708 0.4673 0.0
C3533 C 0.08893 0.42817 0.48201 0.0
H3534 H 0.08178 0.48343 0.46472 0.0
C3535 C 0.09004 0.43421 0.50747 0.0
H3536 H 0.08466 0.44407 0.44771 0.0
C3537 C 0.08855 0.45738 0.51743 0.0
C3538 C 0.08553 0.47617 0.50268 0.0
H3539 H 0.09245 0.421 0.52007 0.0
H3540 H 0.08964 0.46049 0.53701 0.0
C3541 C 0.08421 0.47015 0.47725 0.0
C3542 C 0.42404 0.28238 0.22072 0.0
C3543 C 0.44572 0.29951 0.22788 0.0
H3544 H 0.3865 0.26826 0.22536 0.0
C3545 C 0.44381 0.31593 0.24753 0.0
H3546 H 0.42353 0.26935 0.20575 0.0
C3547 C 0.42194 0.31525 0.25905 0.0
C3548 C 0.40034 0.29816 0.25173 0.0
H3549 H 0.45943 0.32946 0.25443 0.0
H3550 H 0.42201 0.32842 0.27379 0.0
C3551 C 0.40221 0.28178 0.23216 0.0
C3552 C 0.61543 0.52687 0.44604 0.0
C3553 C 0.64033 0.52526 0.45066 0.0
H3554 H 0.58184 0.52677 0.46095 0.0
C3555 C 0.64897 0.51719 0.4728 0.0
H3556 H 0.60816 0.53304 0.42917 0.0
C3557 C 0.63382 0.51356 0.49102 0.0
C3558 C 0.60979 0.51797 0.48741 0.0
H3559 H 0.66788 0.51513 0.47663 0.0
H3560 H 0.64162 0.50934 0.50865 0.0
C3561 C 0.60023 0.52311 0.46425 0.0
C3562 C 0.35666 0.83674 0.19146 0.0
C3563 C 0.34059 0.8256 0.17086 0.0
H3564 H 0.36651 0.83883 0.23027 0.0
C3565 C 0.32192 0.80688 0.17475 0.0
H3566 H 0.37099 0.8515 0.18967 0.0
C3567 C 0.31901 0.80005 0.19826 0.0
C3568 C 0.33494 0.81132 0.21873 0.0
H3569 H 0.30943 0.79732 0.15962 0.0
H3570 H 0.30423 0.78578 0.20038 0.0
C3571 C 0.35401 0.82957 0.21495 0.0
C3572 C 0.10956 0.61397 0.95057 0.0
C3573 C 0.08719 0.61857 0.93936 0.0
H3574 H 0.12743 0.59804 0.97988 0.0
C3575 C 0.06618 0.61347 0.95111 0.0
H3576 H 0.12599 0.61773 0.94181 0.0
C3577 C 0.06695 0.60194 0.97236 0.0
C3578 C 0.0888 0.59569 0.98249 0.0
H3579 H 0.04862 0.61649 0.94279 0.0
H3580 H 0.05012 0.59675 0.98019 0.0
C3581 C 0.11041 0.60276 0.97224 0.0
C3582 C 0.3647 0.25717 0.67627 0.0
C3583 C 0.34395 0.24602 0.65972 0.0
H3584 H 0.37932 0.27615 0.71121 0.0
C3585 C 0.321 0.24677 0.66821 0.0
H3586 H 0.3829 0.2572 0.67145 0.0
C3587 C 0.31896 0.25781 0.69152 0.0
C3588 C 0.33971 0.26881 0.708 0.0
H3589 H 0.30422 0.23903 0.65668 0.0
H3590 H 0.30083 0.25768 0.69661 0.0
C3591 C 0.36264 0.26814 0.69961 0.0
C3592 C 0.6077 0.55136 0.23992 0.0
C3593 C 0.62004 0.57307 0.25176 0.0
H3594 H 0.58495 0.53355 0.20822 0.0
C3595 C 0.61567 0.59395 0.24195 0.0
H3596 H 0.6105 0.53492 0.24711 0.0
C3597 C 0.60156 0.59318 0.21943 0.0
C3598 C 0.59115 0.57146 0.20634 0.0
H3599 H 0.62432 0.61098 0.25102 0.0
H3600 H 0.60053 0.6097 0.21158 0.0
C3601 C 0.59324 0.55057 0.21749 0.0
C3602 C 0.33237 0.85187 0.89813 0.0
C3603 C 0.32922 0.83508 0.91546 0.0
H3604 H 0.33371 0.85857 0.86066 0.0
C3605 C 0.32355 0.81108 0.90666 0.0
H3606 H 0.3361 0.87053 0.90377 0.0
C3607 C 0.3217 0.80419 0.88159 0.0
C3608 C 0.32561 0.82103 0.86446 0.0
H3609 H 0.32119 0.79747 0.91917 0.0
H3610 H 0.3179 0.78556 0.87573 0.0
C3611 C 0.33074 0.84499 0.87316 0.0
C3612 C 0.1194 0.62956 0.69388 0.0
C3613 C 0.12315 0.62336 0.71788 0.0
H3614 H 0.12237 0.62069 0.6567 0.0
C3615 C 0.13898 0.60761 0.72362 0.0
H3616 H 0.10737 0.64181 0.68914 0.0
C3617 C 0.14773 0.59543 0.705 0.0
C3618 C 0.14067 0.59891 0.68054 0.0
H3619 H 0.14216 0.60258 0.74205 0.0
H3620 H 0.1578 0.5816 0.70958 0.0
C3621 C 0.12814 0.61745 0.67531 0.0
C3622 C 0.34793 0.26668 0.39639 0.0
C3623 C 0.34444 0.24184 0.39777 0.0
H3624 H 0.34942 0.2964 0.37429 0.0
C3625 C 0.33961 0.22853 0.37469 0.0
H3626 H 0.35199 0.27823 0.41301 0.0
C3627 C 0.33812 0.23924 0.35203 0.0
C3628 C 0.34161 0.26402 0.35075 0.0
H3629 H 0.33642 0.2095 0.37391 0.0
H3630 H 0.33401 0.22789 0.3353 0.0
C3631 C 0.34664 0.27738 0.37371 0.0
C3632 C 0.39892 0.59864 0.5163 0.0
C3633 C 0.40722 0.62167 0.52729 0.0
H3634 H 0.40803 0.56521 0.50635 0.0
C3635 C 0.43188 0.62823 0.53747 0.0
H3636 H 0.37997 0.59287 0.50858 0.0
C3637 C 0.44788 0.61226 0.53649 0.0
C3638 C 0.43967 0.58932 0.52524 0.0
H3639 H 0.43897 0.64586 0.54591 0.0
H3640 H 0.46671 0.61789 0.54468 0.0
C3641 C 0.41495 0.58267 0.51528 0.0
C3642 C 0.962 1.00032 0.51512 0.0
C3643 C 0.95206 0.99656 0.53734 0.0
H3644 H 0.9933 1.01356 0.49695 0.0
C3645 C 0.96839 1.00495 0.5588 0.0
H3646 H 0.95072 0.99417 0.49797 0.0
C3647 C 0.99303 0.01626 0.55815 0.0
C3648 C 1.00302 0.01981 0.53602 0.0
H3649 H 0.96212 1.00306 0.57644 0.0
H3650 H 1.00441 0.02213 0.57532 0.0
C3651 C 0.9868 1.01152 0.51448 0.0
C3652 C 0.82151 0.13622 0.20387 0.0
C3653 C 0.8167 0.11295 0.21032 0.0
H3654 H 0.81624 0.17148 0.21078 0.0
C3655 C 0.79831 0.10645 0.22514 0.0
H3656 H 0.83555 0.14158 0.19235 0.0
C3657 C 0.78708 0.1236 0.23572 0.0
C3658 C 0.7941 0.14745 0.2316 0.0
H3659 H 0.79433 0.0886 0.23043 0.0
H3660 H 0.77439 0.11849 0.24863 0.0
C3661 C 0.81028 0.15332 0.21435 0.0
C3662 C 0.66731 0.12568 1.00849 0.0
C3663 C 0.68952 0.12051 0.01924 0.0
H3664 H 0.62856 0.11479 1.00044 0.0
C3665 C 0.68925 0.09893 0.02973 0.0
H3666 H 0.66692 0.14199 0.99997 0.0
C3667 C 0.66714 0.08322 0.03009 0.0
C3668 C 0.64486 0.08865 0.01972 0.0
H3669 H 0.70607 0.09449 0.03829 0.0
H3670 H 0.66747 0.06704 0.03885 0.0
C3671 C 0.64531 0.10994 1.00862 0.0
C3672 C 0.24151 0.42623 0.32616 0.0
C3673 C 0.233 0.42635 0.30125 0.0
H3674 H 0.27016 0.41966 0.35267 0.0
C3675 C 0.24778 0.42038 0.28387 0.0
H3676 H 0.23082 0.43113 0.34007 0.0
C3677 C 0.2705 0.41459 0.29116 0.0
C3678 C 0.27883 0.41426 0.31597 0.0
H3679 H 0.24167 0.41974 0.26456 0.0
H3680 H 0.28123 0.40958 0.27731 0.0
C3681 C 0.26413 0.41999 0.33344 0.0
C3682 C 0.16861 0.48666 0.01597 0.0
C3683 C 0.18845 0.49077 0.03528 0.0
H3684 H 0.13338 0.49379 1.00063 0.0
C3685 C 0.18548 0.50692 0.05469 0.0
H3686 H 0.16925 0.47488 1.00026 0.0
C3687 C 0.16449 0.51805 0.05477 0.0
C3688 C 0.14479 0.51396 0.03548 0.0
H3689 H 0.19934 0.51096 0.07038 0.0
H3690 H 0.16375 0.53004 0.07033 0.0
C3691 C 0.14758 0.49784 0.01606 0.0
C3692 C 0.88249 0.8943 0.25049 0.0
C3693 C 0.86414 0.90459 0.23822 0.0
H3694 H 0.89105 0.86465 0.26877 0.0
C3695 C 0.84006 0.89198 0.23385 0.0
H3696 H 0.90118 0.90383 0.25425 0.0
C3697 C 0.8343 0.86958 0.24194 0.0
C3698 C 0.85246 0.85951 0.2549 0.0
H3699 H 0.82564 0.89955 0.22436 0.0
H3700 H 0.81544 0.86045 0.23858 0.0
C3701 C 0.87667 0.87199 0.25892 0.0
C3702 C 0.68641 0.11348 0.75687 0.0
C3703 C 0.68343 0.10555 0.77999 0.0
H3704 H 0.703 0.14062 0.73642 0.0
C3705 C 0.69559 0.11987 0.80075 0.0
H3706 H 0.67768 0.10277 0.74046 0.0
C3707 C 0.71055 0.1415 0.7984 0.0
C3708 C 0.71374 0.14926 0.77523 0.0
H3709 H 0.69358 0.11435 0.81883 0.0
H3710 H 0.71999 0.15193 0.81471 0.0
C3711 C 0.70129 0.13506 0.75453 0.0
loop_
_geom_bond_atom_site_label_1
_geom_bond_atom_site_label_2
_geom_bond_distance
_geom_bond_site_symmetry_2
_ccdc_geom_bond_type
Li0 N17 1.990 1_455 S
Li0 O60 1.956 . S
Li0 O61 1.970 . S
Li0 O62 1.961 . S
Li1 N25 1.990 . S
Li1 O60 1.970 . S
Li1 O61 1.956 . S
Li1 O63 1.961 . S
Li2 N47 1.990 . S
Li2 O60 1.961 . S
Li2 O62 1.956 . S
Li2 O63 1.970 . S
Li3 N53 1.990 . S
Li3 O61 1.961 . S
Li3 O62 1.970 . S
Li3 O63 1.956 . S
C4 C6 1.348 . S
C4 C7 1.356 . S
C4 O60 1.325 . S
N5 C8 1.314 . S
N5 C9 1.279 . S
C6 C4 1.348 . S
C6 C8 1.353 . S
C6 H64 0.929 . S
C7 C4 1.356 . S
C7 C9 1.358 . S
C7 H65 0.930 . S
C8 N5 1.314 . S
C8 C6 1.353 . S
C8 H66 0.930 . S
C9 N5 1.279 . S
C9 C7 1.358 . S
C9 H67 0.930 . S
C10 C13 1.348 1_455 S
C10 C14 1.356 . S
C10 O61 1.325 . S
C11 N12 1.279 . S
C11 C14 1.358 1_655 S
C11 H68 0.930 . S
N12 C11 1.279 . S
N12 C15 1.314 . S
C13 C10 1.348 1_655 S
C13 C15 1.353 . S
C13 H69 0.929 . S
C14 C10 1.356 . S
C14 C11 1.358 1_455 S
C14 H70 0.930 . S
C15 N12 1.314 . S
C15 C13 1.353 . S
C15 H71 0.930 . S
C16 N17 1.314 . S
C16 C21 1.353 . S
C16 H22 0.930 . S
N17 Li0 1.990 1_655 S
N17 C16 1.314 . S
N17 C19 1.279 . S
C18 C19 1.358 . S
C18 C20 1.356 . S
C18 H72 0.930 . S
C19 N17 1.279 . S
C19 C18 1.358 . S
C19 H23 0.917 1_655 S
C20 C18 1.356 . S
C20 C21 1.348 . S
C21 C16 1.353 . S
C21 C20 1.348 . S
C21 H73 0.929 . S
H22 C16 0.930 . S
H23 C19 0.917 1_455 S
C24 N25 1.314 . S
C24 C26 1.353 . S
C24 H30 0.930 . S
N25 Li1 1.990 . S
N25 C24 1.314 . S
N25 C28 1.279 . S
C26 C24 1.353 . S
C26 C29 1.348 . S
C26 H74 0.929 . S
C27 C28 1.358 . S
C27 C29 1.356 . S
C27 H75 0.930 . S
C28 N25 1.279 . S
C28 C27 1.358 . S
C28 H31 0.930 . S
C29 C26 1.348 . S
C29 C27 1.356 . S
H30 C24 0.930 . S
H31 C28 0.930 . S
C32 C34 1.348 . S
C32 C35 1.356 . S
C32 O62 1.325 . S
N33 C36 1.314 . S
N33 C37 1.279 . S
C34 C32 1.348 . S
C34 C36 1.353 . S
C34 H76 0.929 . S
C35 C32 1.356 . S
C35 C37 1.358 . S
C35 H77 0.930 . S
C36 N33 1.314 . S
C36 C34 1.353 . S
C36 H78 0.930 . S
C37 N33 1.279 . S
C37 C35 1.358 . S
C37 H79 0.930 . S
C38 C39 1.348 . S
C38 C40 1.356 . S
C38 O63 1.325 . S
C39 C38 1.348 . S
C39 C41 1.353 . S
C39 H80 0.929 . S
C40 C38 1.356 . S
C40 C42 1.358 . S
C40 H81 0.930 . S
C41 C39 1.353 . S
C41 N43 1.314 . S
C41 H82 0.930 . S
C42 C40 1.358 . S
C42 N43 1.279 . S
C42 H83 0.930 . S
N43 C41 1.314 . S
N43 C42 1.279 . S
C44 C46 1.353 . S
C44 N47 1.314 . S
C44 H50 0.930 . S
C45 N47 1.279 . S
C45 C48 1.358 . S
C45 H51 0.930 . S
C46 C44 1.353 . S
C46 C49 1.348 . S
C46 H84 0.929 . S
N47 Li2 1.990 . S
N47 C44 1.314 . S
N47 C45 1.279 . S
C48 C45 1.358 . S
C48 C49 1.356 . S
C48 H85 0.930 . S
C49 C46 1.348 . S
C49 C48 1.356 . S
H50 C44 0.930 . S
H51 C45 0.930 . S
C52 N53 1.314 . S
C52 C54 1.353 . S
C52 H58 0.930 . S
N53 Li3 1.990 . S
N53 C52 1.314 . S
N53 C56 1.279 . S
C54 C52 1.353 . S
C54 C57 1.348 . S
C54 H86 0.929 . S
C55 C56 1.358 . S
C55 C57 1.356 . S
C55 H87 0.930 . S
C56 N53 1.279 . S
C56 C55 1.358 . S
C56 H59 0.930 . S
C57 C54 1.348 . S
C57 C55 1.356 . S
H58 C52 0.930 . S
H59 C56 0.930 . S
O60 Li0 1.956 . S
O60 Li1 1.970 . S
O60 Li2 1.961 . S
O60 C4 1.325 . S
O61 Li0 1.970 . S
O61 Li1 1.956 . S
O61 Li3 1.961 . S
O61 C10 1.325 . S
O62 Li0 1.961 . S
O62 Li2 1.956 . S
O62 Li3 1.970 . S
O62 C32 1.325 . S
O63 Li1 1.961 . S
O63 Li2 1.970 . S
O63 Li3 1.956 . S
O63 C38 1.325 . S
H64 C6 0.929 . S
H65 C7 0.930 . S
H66 C8 0.930 . S
H67 C9 0.930 . S
H68 C11 0.930 . S
H69 C13 0.929 . S
H70 C14 0.930 . S
H71 C15 0.930 . S
H72 C18 0.930 . S
H73 C21 0.929 . S
H74 C26 0.929 . S
H75 C27 0.930 . S
H76 C34 0.929 . S
H77 C35 0.930 . S
H78 C36 0.930 . S
H79 C37 0.930 . S
H80 C39 0.929 . S
H81 C40 0.930 . S
H82 C41 0.930 . S
H83 C42 0.930 . S
H84 C46 0.929 . S
H85 C48 0.930 . S
H86 C54 0.929 . S
H87 C55 0.930 . S
Li88 N105 1.990 . S
Li88 O148 1.956 . S
Li88 O149 1.970 . S
Li88 O150 1.961 . S
Li89 N113 1.990 . S
Li89 O148 1.970 . S
Li89 O149 1.956 . S
Li89 O151 1.961 . S
Li90 N135 1.990 . S
Li90 O148 1.961 . S
Li90 O150 1.956 . S
Li90 O151 1.970 . S
Li91 N141 1.990 . S
Li91 O149 1.961 . S
Li91 O150 1.970 . S
Li91 O151 1.956 . S
C92 C94 1.348 . S
C92 C95 1.356 . S
C92 O148 1.325 . S
N93 C96 1.314 . S
N93 C97 1.279 . S
C94 C92 1.348 . S
C94 C96 1.353 . S
C94 H152 0.929 . S
C95 C92 1.356 . S
C95 C97 1.358 . S
C95 H153 0.930 . S
C96 N93 1.314 . S
C96 C94 1.353 . S
C96 H154 0.930 . S
C97 N93 1.279 . S
C97 C95 1.358 . S
C97 H155 0.930 . S
C98 C101 1.348 . S
C98 C102 1.356 . S
C98 O149 1.325 . S
C99 N100 1.279 . S
C99 C102 1.358 . S
C99 H156 0.930 . S
N100 C99 1.279 . S
N100 C103 1.314 . S
C101 C98 1.348 . S
C101 C103 1.353 . S
C101 H157 0.929 . S
C102 C98 1.356 . S
C102 C99 1.358 . S
C102 H158 0.930 . S
C103 N100 1.314 . S
C103 C101 1.353 . S
C103 H159 0.930 . S
C104 N105 1.314 . S
C104 C109 1.353 . S
C104 H110 0.930 . S
N105 Li88 1.990 . S
N105 C104 1.314 . S
N105 C107 1.279 . S
C106 C107 1.358 . S
C106 C108 1.356 . S
C106 H160 0.930 . S
C107 N105 1.279 . S
C107 C106 1.358 . S
C107 H111 0.930 . S
C108 C106 1.356 . S
C108 C109 1.348 . S
C109 C104 1.353 . S
C109 C108 1.348 . S
C109 H161 0.929 . S
H110 C104 0.930 . S
H111 C107 0.930 . S
C112 N113 1.314 . S
C112 C114 1.353 . S
C112 H118 0.930 . S
N113 Li89 1.990 . S
N113 C112 1.314 . S
N113 C116 1.279 . S
C114 C112 1.353 . S
C114 C117 1.348 . S
C114 H162 0.929 . S
C115 C116 1.358 . S
C115 C117 1.356 . S
C115 H163 0.930 . S
C116 N113 1.279 . S
C116 C115 1.358 . S
C116 H119 0.930 . S
C117 C114 1.348 . S
C117 C115 1.356 . S
H118 C112 0.930 . S
H119 C116 0.930 . S
C120 C122 1.348 1_455 S
C120 C123 1.353 . S
C120 O150 1.325 . S
N121 C124 1.314 . S
N121 C125 1.279 . S
C122 C120 1.348 1_655 S
C122 C124 1.353 . S
C122 H164 0.929 . S
C123 C120 1.353 . S
C123 C125 1.322 1_455 S
C123 H165 0.971 . S
C124 N121 1.314 . S
C124 C122 1.353 . S
C124 H166 0.930 . S
C125 N121 1.279 . S
C125 C123 1.322 1_655 S
C125 H167 0.930 . S
C126 C127 1.348 . S
C126 C128 1.356 . S
C126 O151 1.325 . S
C127 C126 1.348 . S
C127 C129 1.353 . S
C127 H168 0.929 . S
C128 C126 1.356 . S
C128 C130 1.358 . S
C128 H169 0.930 . S
C129 C127 1.353 . S
C129 N131 1.314 . S
C129 H170 0.930 . S
C130 C128 1.358 . S
C130 N131 1.279 . S
C130 H171 0.930 . S
N131 C129 1.314 . S
N131 C130 1.279 . S
C132 C134 1.353 . S
C132 N135 1.314 . S
C132 H138 0.930 . S
C133 N135 1.279 . S
C133 C136 1.358 . S
C133 H139 0.930 . S
C134 C132 1.353 . S
C134 C137 1.348 . S
C134 H172 0.929 . S
N135 Li90 1.990 . S
N135 C132 1.314 . S
N135 C133 1.279 . S
C136 C133 1.358 . S
C136 C137 1.356 . S
C136 H173 0.923 1_455 S
C137 C134 1.348 . S
C137 C136 1.356 . S
H138 C132 0.930 . S
H139 C133 0.930 . S
C140 N141 1.314 1_655 S
C140 C142 1.353 . S
C140 H146 0.930 . S
N141 Li91 1.990 . S
N141 C140 1.314 1_455 S
N141 C144 1.279 1_455 S
C142 C140 1.353 . S
C142 C145 1.348 . S
C142 H174 0.929 . S
C143 C144 1.358 . S
C143 C145 1.356 . S
C143 H175 0.930 . S
C144 N141 1.279 1_655 S
C144 C143 1.358 . S
C144 H147 0.953 . S
C145 C142 1.348 . S
C145 C143 1.356 . S
H146 C140 0.930 . S
H147 C144 0.953 . S
O148 Li88 1.956 . S
O148 Li89 1.970 . S
O148 Li90 1.961 . S
O148 C92 1.325 . S
O149 Li88 1.970 . S
O149 Li89 1.956 . S
O149 Li91 1.961 . S
O149 C98 1.325 . S
O150 Li88 1.961 . S
O150 Li90 1.956 . S
O150 Li91 1.970 . S
O150 C120 1.325 . S
O151 Li89 1.961 . S
O151 Li90 1.970 . S
O151 Li91 1.956 . S
O151 C126 1.325 . S
H152 C94 0.929 . S
H153 C95 0.930 . S
H154 C96 0.930 . S
H155 C97 0.930 . S
H156 C99 0.930 . S
H157 C101 0.929 . S
H158 C102 0.930 . S
H159 C103 0.930 . S
H160 C106 0.930 . S
H161 C109 0.929 . S
H162 C114 0.929 . S
H163 C115 0.930 . S
H164 C122 0.929 . S
H165 C123 0.971 . S
H166 C124 0.930 . S
H167 C125 0.930 . S
H168 C127 0.929 . S
H169 C128 0.930 . S
H170 C129 0.930 . S
H171 C130 0.930 . S
H172 C134 0.929 . S
H173 C136 0.923 1_655 S
H174 C142 0.929 . S
H175 C143 0.930 . S
Li176 N193 1.990 . S
Li176 O236 1.956 . S
Li176 O237 1.970 . S
Li176 O238 1.961 . S
Li177 N201 1.990 . S
Li177 O236 1.970 . S
Li177 O237 1.956 . S
Li177 O239 1.961 . S
Li178 N223 1.990 . S
Li178 O236 1.961 . S
Li178 O238 1.956 . S
Li178 O239 1.970 . S
Li179 N229 1.990 . S
Li179 O237 1.961 . S
Li179 O238 1.970 . S
Li179 O239 1.956 . S
C180 C182 1.348 . S
C180 C183 1.356 . S
C180 O236 1.325 . S
N181 C184 1.314 . S
N181 C185 1.279 . S
C182 C180 1.348 . S
C182 C184 1.353 . S
C182 H240 0.929 . S
C183 C180 1.356 . S
C183 C185 1.358 . S
C183 H241 0.930 . S
C184 N181 1.314 . S
C184 C182 1.353 . S
C184 H242 0.930 . S
C185 N181 1.279 . S
C185 C183 1.358 . S
C185 H243 0.930 . S
C186 C189 1.348 . S
C186 C190 1.356 . S
C186 O237 1.325 . S
C187 N188 1.279 . S
C187 C190 1.358 . S
C187 H244 0.930 . S
N188 C187 1.279 . S
N188 C191 1.314 . S
C189 C186 1.348 . S
C189 C191 1.353 . S
C189 H245 0.929 . S
C190 C186 1.356 . S
C190 C187 1.358 . S
C190 H246 0.930 . S
C191 N188 1.314 . S
C191 C189 1.353 . S
C191 H247 0.930 . S
C192 N193 1.314 . S
C192 C197 1.353 . S
C192 H198 0.930 . S
N193 Li176 1.990 . S
N193 C192 1.314 . S
N193 C195 1.279 . S
C194 C195 1.358 . S
C194 C196 1.356 . S
C194 H248 0.930 . S
C195 N193 1.279 . S
C195 C194 1.358 . S
C195 H199 0.930 . S
C196 C194 1.356 . S
C196 C197 1.348 . S
C197 C192 1.353 . S
C197 C196 1.348 . S
C197 H249 0.929 . S
H198 C192 0.930 . S
H199 C195 0.930 . S
C200 N201 1.314 . S
C200 C202 1.353 . S
C200 H206 0.930 . S
N201 Li177 1.990 . S
N201 C200 1.314 . S
N201 C204 1.279 . S
C202 C200 1.353 . S
C202 C205 1.348 . S
C202 H250 0.929 . S
C203 C204 1.358 . S
C203 C205 1.356 . S
C203 H251 0.930 . S
C204 N201 1.279 . S
C204 C203 1.358 . S
C204 H207 0.930 . S
C205 C202 1.348 . S
C205 C203 1.356 . S
H206 C200 0.930 . S
H207 C204 0.930 . S
C208 C210 1.348 . S
C208 C211 1.356 . S
C208 O238 1.325 . S
N209 C212 1.314 . S
N209 C213 1.279 . S
C210 C208 1.348 . S
C210 C212 1.353 . S
C210 H252 0.929 . S
C211 C208 1.356 . S
C211 C213 1.358 . S
C211 H253 0.930 . S
C212 N209 1.314 . S
C212 C210 1.353 . S
C212 H254 0.930 . S
C213 N209 1.279 . S
C213 C211 1.358 . S
C213 H255 0.930 . S
C214 C215 1.348 . S
C214 C216 1.356 . S
C214 O239 1.325 . S
C215 C214 1.348 . S
C215 C217 1.353 . S
C215 H256 0.929 . S
C216 C214 1.356 . S
C216 C218 1.358 . S
C216 H257 0.930 . S
C217 C215 1.353 . S
C217 N219 1.314 . S
C217 H258 0.930 . S
C218 C216 1.358 . S
C218 N219 1.279 . S
C218 H259 0.930 . S
N219 C217 1.314 . S
N219 C218 1.279 . S
C220 C222 1.353 . S
C220 N223 1.314 . S
C220 H226 0.930 . S
C221 N223 1.279 . S
C221 C224 1.358 . S
C221 H227 0.930 . S
C222 C220 1.353 . S
C222 C225 1.348 . S
C222 H260 0.929 . S
N223 Li178 1.990 . S
N223 C220 1.314 . S
N223 C221 1.279 . S
C224 C221 1.358 . S
C224 C225 1.356 . S
C224 H261 0.930 . S
C225 C222 1.348 . S
C225 C224 1.356 . S
H226 C220 0.930 . S
H227 C221 0.930 . S
C228 N229 1.314 . S
C228 C230 1.353 . S
C228 H234 0.930 . S
N229 Li179 1.990 . S
N229 C228 1.314 . S
N229 C232 1.279 . S
C230 C228 1.353 . S
C230 C233 1.348 . S
C230 H262 0.929 . S
C231 C232 1.358 . S
C231 C233 1.356 . S
C231 H263 0.930 . S
C232 N229 1.279 . S
C232 C231 1.358 . S
C232 H235 0.930 . S
C233 C230 1.348 . S
C233 C231 1.356 . S
H234 C228 0.930 . S
H235 C232 0.930 . S
O236 Li176 1.956 . S
O236 Li177 1.970 . S
O236 Li178 1.961 . S
O236 C180 1.325 . S
O237 Li176 1.970 . S
O237 Li177 1.956 . S
O237 Li179 1.961 . S
O237 C186 1.325 . S
O238 Li176 1.961 . S
O238 Li178 1.956 . S
O238 Li179 1.970 . S
O238 C208 1.325 . S
O239 Li177 1.961 . S
O239 Li178 1.970 . S
O239 Li179 1.956 . S
O239 C214 1.325 . S
H240 C182 0.929 . S
H241 C183 0.930 . S
H242 C184 0.930 . S
H243 C185 0.930 . S
H244 C187 0.930 . S
H245 C189 0.929 . S
H246 C190 0.930 . S
H247 C191 0.930 . S
H248 C194 0.930 . S
H249 C197 0.929 . S
H250 C202 0.929 . S
H251 C203 0.930 . S
H252 C210 0.929 . S
H253 C211 0.930 . S
H254 C212 0.930 . S
H255 C213 0.930 . S
H256 C215 0.929 . S
H257 C216 0.930 . S
H258 C217 0.930 . S
H259 C218 0.930 . S
H260 C222 0.929 . S
H261 C224 0.930 . S
H262 C230 0.929 . S
H263 C231 0.930 . S
Li264 N281 1.990 . S
Li264 O324 1.956 . S
Li264 O325 1.970 . S
Li264 O326 1.961 . S
Li265 N289 1.990 . S
Li265 O324 1.970 . S
Li265 O325 1.956 . S
Li265 O327 1.961 . S
Li266 N311 1.990 . S
Li266 O324 1.961 . S
Li266 O326 1.956 . S
Li266 O327 1.970 . S
Li267 N317 1.990 . S
Li267 O325 1.961 . S
Li267 O326 1.970 . S
Li267 O327 1.956 . S
C268 C270 1.348 . S
C268 C271 1.356 . S
C268 O324 1.325 . S
N269 C272 1.314 . S
N269 C273 1.279 . S
C270 C268 1.348 . S
C270 C272 1.353 . S
C270 H328 0.929 . S
C271 C268 1.356 . S
C271 C273 1.358 . S
C271 H329 0.930 . S
C272 N269 1.314 . S
C272 C270 1.353 . S
C272 H330 0.930 . S
C273 N269 1.279 . S
C273 C271 1.358 . S
C273 H331 0.930 . S
C274 C277 1.348 . S
C274 C278 1.356 . S
C274 O325 1.325 . S
C275 N276 1.279 . S
C275 C278 1.358 . S
C275 H332 0.930 . S
N276 C275 1.279 . S
N276 C279 1.314 . S
C277 C274 1.348 . S
C277 C279 1.353 . S
C277 H333 0.929 . S
C278 C274 1.356 . S
C278 C275 1.358 . S
C278 H334 0.930 . S
C279 N276 1.314 . S
C279 C277 1.353 . S
C279 H335 0.930 . S
C280 N281 1.314 . S
C280 C285 1.353 . S
C280 H286 0.930 . S
N281 Li264 1.990 . S
N281 C280 1.314 . S
N281 C283 1.279 . S
C282 C283 1.358 . S
C282 C284 1.356 . S
C282 H336 0.930 . S
C283 N281 1.279 . S
C283 C282 1.358 . S
C283 H287 0.930 . S
C284 C282 1.356 . S
C284 C285 1.348 . S
C285 C280 1.353 . S
C285 C284 1.348 . S
C285 H337 0.929 . S
H286 C280 0.930 . S
H287 C283 0.930 . S
C288 N289 1.314 . S
C288 C290 1.353 . S
C288 H294 0.930 . S
N289 Li265 1.990 . S
N289 C288 1.314 . S
N289 C292 1.279 . S
C290 C288 1.353 . S
C290 C293 1.348 . S
C290 H338 0.929 . S
C291 C292 1.358 . S
C291 C293 1.356 . S
C291 H339 0.930 . S
C292 N289 1.279 . S
C292 C291 1.358 . S
C292 H295 0.930 . S
C293 C290 1.348 . S
C293 C291 1.356 . S
H294 C288 0.930 . S
H295 C292 0.930 . S
C296 C298 1.348 . S
C296 C299 1.356 . S
C296 O326 1.325 . S
N297 C300 1.314 . S
N297 C301 1.279 . S
C298 C296 1.348 . S
C298 C300 1.353 . S
C298 H340 0.929 . S
C299 C296 1.356 . S
C299 C301 1.358 . S
C299 H341 0.930 . S
C300 N297 1.314 . S
C300 C298 1.353 . S
C300 H342 0.930 . S
C301 N297 1.279 . S
C301 C299 1.358 . S
C301 H343 0.930 . S
C302 C303 1.348 . S
C302 C304 1.356 . S
C302 O327 1.325 . S
C303 C302 1.348 . S
C303 C305 1.353 . S
C303 H344 0.929 . S
C304 C302 1.356 . S
C304 C306 1.358 . S
C304 H345 0.930 . S
C305 C303 1.353 . S
C305 N307 1.314 . S
C305 H346 0.930 . S
C306 C304 1.358 . S
C306 N307 1.279 . S
C306 H347 0.930 . S
N307 C305 1.314 . S
N307 C306 1.279 . S
C308 C310 1.353 . S
C308 N311 1.314 . S
C308 H314 0.930 . S
C309 N311 1.279 . S
C309 C312 1.358 . S
C309 H315 0.930 . S
C310 C308 1.353 . S
C310 C313 1.348 . S
C310 H348 0.929 . S
N311 Li266 1.990 . S
N311 C308 1.314 . S
N311 C309 1.279 . S
C312 C309 1.358 . S
C312 C313 1.356 . S
C312 H349 0.930 . S
C313 C310 1.348 . S
C313 C312 1.356 . S
H314 C308 0.930 . S
H315 C309 0.930 . S
C316 N317 1.314 . S
C316 C318 1.353 . S
C316 H322 0.930 . S
N317 Li267 1.990 . S
N317 C316 1.314 . S
N317 C320 1.279 . S
C318 C316 1.353 . S
C318 C321 1.348 . S
C318 H350 0.929 . S
C319 C320 1.358 . S
C319 C321 1.356 . S
C319 H351 0.930 . S
C320 N317 1.279 . S
C320 C319 1.358 . S
C320 H323 0.930 . S
C321 C318 1.348 . S
C321 C319 1.356 . S
H322 C316 0.930 . S
H323 C320 0.930 . S
O324 Li264 1.956 . S
O324 Li265 1.970 . S
O324 Li266 1.961 . S
O324 C268 1.325 . S
O325 Li264 1.970 . S
O325 Li265 1.956 . S
O325 Li267 1.961 . S
O325 C274 1.325 . S
O326 Li264 1.961 . S
O326 Li266 1.956 . S
O326 Li267 1.970 . S
O326 C296 1.325 . S
O327 Li265 1.961 . S
O327 Li266 1.970 . S
O327 Li267 1.956 . S
O327 C302 1.325 . S
H328 C270 0.929 . S
H329 C271 0.930 . S
H330 C272 0.930 . S
H331 C273 0.930 . S
H332 C275 0.930 . S
H333 C277 0.929 . S
H334 C278 0.930 . S
H335 C279 0.930 . S
H336 C282 0.930 . S
H337 C285 0.929 . S
H338 C290 0.929 . S
H339 C291 0.930 . S
H340 C298 0.929 . S
H341 C299 0.930 . S
H342 C300 0.930 . S
H343 C301 0.930 . S
H344 C303 0.929 . S
H345 C304 0.930 . S
H346 C305 0.930 . S
H347 C306 0.930 . S
H348 C310 0.929 . S
H349 C312 0.930 . S
H350 C318 0.929 . S
H351 C319 0.930 . S
Li352 N369 1.990 . S
Li352 O412 1.956 . S
Li352 O413 1.970 . S
Li352 O414 1.961 . S
Li353 N377 1.990 . S
Li353 O412 1.970 . S
Li353 O413 1.956 . S
Li353 O415 1.961 . S
Li354 N399 1.990 . S
Li354 O412 1.961 . S
Li354 O414 1.956 . S
Li354 O415 1.970 . S
Li355 N405 1.990 . S
Li355 O413 1.961 . S
Li355 O414 1.970 . S
Li355 O415 1.956 . S
C356 C358 1.348 . S
C356 C359 1.356 . S
C356 O412 1.325 . S
N357 C360 1.314 . S
N357 C361 1.279 . S
C358 C356 1.348 . S
C358 C360 1.353 . S
C358 H416 0.929 . S
C359 C356 1.356 . S
C359 C361 1.358 . S
C359 H417 0.930 . S
C360 N357 1.314 . S
C360 C358 1.353 . S
C360 H418 0.930 . S
C361 N357 1.279 . S
C361 C359 1.358 . S
C361 H419 0.930 . S
C362 C365 1.348 . S
C362 C366 1.356 . S
C362 O413 1.325 . S
C363 N364 1.279 . S
C363 C366 1.358 . S
C363 H420 0.930 . S
N364 C363 1.279 . S
N364 C367 1.314 . S
C365 C362 1.348 . S
C365 C367 1.353 . S
C365 H421 0.929 . S
C366 C362 1.356 . S
C366 C363 1.358 . S
C366 H422 0.930 . S
C367 N364 1.314 . S
C367 C365 1.353 . S
C367 H423 0.930 . S
C368 N369 1.314 . S
C368 C373 1.353 . S
C368 H374 0.930 . S
N369 Li352 1.990 . S
N369 C368 1.314 . S
N369 C371 1.279 . S
C370 C371 1.358 . S
C370 C372 1.356 . S
C370 H424 0.930 . S
C371 N369 1.279 . S
C371 C370 1.358 . S
C371 H375 0.930 . S
C372 C370 1.356 . S
C372 C373 1.348 . S
C373 C368 1.353 . S
C373 C372 1.348 . S
C373 H425 0.929 . S
H374 C368 0.930 . S
H375 C371 0.930 . S
C376 N377 1.314 . S
C376 C378 1.353 . S
C376 H382 0.930 . S
N377 Li353 1.990 . S
N377 C376 1.314 . S
N377 C380 1.279 . S
C378 C376 1.353 . S
C378 C381 1.348 . S
C378 H426 0.929 . S
C379 C380 1.358 . S
C379 C381 1.356 . S
C379 H427 0.930 . S
C380 N377 1.279 . S
C380 C379 1.358 . S
C380 H383 0.930 . S
C381 C378 1.348 . S
C381 C379 1.356 . S
H382 C376 0.930 . S
H383 C380 0.930 . S
C384 C386 1.348 . S
C384 C387 1.356 . S
C384 O414 1.325 . S
N385 C388 1.314 . S
N385 C389 1.279 . S
C386 C384 1.348 . S
C386 C388 1.353 . S
C386 H428 0.929 . S
C387 C384 1.356 . S
C387 C389 1.358 . S
C387 H429 0.930 . S
C388 N385 1.314 . S
C388 C386 1.353 . S
C388 H430 0.918 1_455 S
C389 N385 1.279 . S
C389 C387 1.358 . S
C389 H431 0.930 . S
C390 C391 1.348 . S
C390 C392 1.356 . S
C390 O415 1.325 . S
C391 C390 1.348 . S
C391 C393 1.353 . S
C391 H432 0.929 . S
C392 C390 1.356 . S
C392 C394 1.358 . S
C392 H433 0.930 . S
C393 C391 1.353 . S
C393 N395 1.314 . S
C393 H434 0.930 . S
C394 C392 1.358 . S
C394 N395 1.279 . S
C394 H435 0.930 . S
N395 C393 1.314 . S
N395 C394 1.279 . S
C396 C398 1.353 . S
C396 N399 1.314 . S
C396 H402 0.930 . S
C397 N399 1.279 . S
C397 C400 1.358 . S
C397 H403 0.930 . S
C398 C396 1.353 . S
C398 C401 1.348 . S
C398 H436 0.929 . S
N399 Li354 1.990 . S
N399 C396 1.314 . S
N399 C397 1.279 . S
C400 C397 1.358 . S
C400 C401 1.356 . S
C400 H437 0.930 . S
C401 C398 1.348 . S
C401 C400 1.356 . S
H402 C396 0.930 . S
H403 C397 0.930 . S
C404 N405 1.314 . S
C404 C406 1.353 . S
C404 H410 0.930 . S
N405 Li355 1.990 . S
N405 C404 1.314 . S
N405 C408 1.279 . S
C406 C404 1.353 . S
C406 C409 1.348 . S
C406 H438 0.929 . S
C407 C408 1.358 . S
C407 C409 1.356 . S
C407 H439 0.930 . S
C408 N405 1.279 . S
C408 C407 1.358 . S
C408 H411 0.930 . S
C409 C406 1.348 . S
C409 C407 1.356 . S
H410 C404 0.930 . S
H411 C408 0.930 . S
O412 Li352 1.956 . S
O412 Li353 1.970 . S
O412 Li354 1.961 . S
O412 C356 1.325 . S
O413 Li352 1.970 . S
O413 Li353 1.956 . S
O413 Li355 1.961 . S
O413 C362 1.325 . S
O414 Li352 1.961 . S
O414 Li354 1.956 . S
O414 Li355 1.970 . S
O414 C384 1.325 . S
O415 Li353 1.961 . S
O415 Li354 1.970 . S
O415 Li355 1.956 . S
O415 C390 1.325 . S
H416 C358 0.929 . S
H417 C359 0.930 . S
H418 C360 0.930 . S
H419 C361 0.930 . S
H420 C363 0.930 . S
H421 C365 0.929 . S
H422 C366 0.930 . S
H423 C367 0.930 . S
H424 C370 0.930 . S
H425 C373 0.929 . S
H426 C378 0.929 . S
H427 C379 0.930 . S
H428 C386 0.929 . S
H429 C387 0.930 . S
H430 C388 0.918 1_655 S
H431 C389 0.930 . S
H432 C391 0.929 . S
H433 C392 0.930 . S
H434 C393 0.930 . S
H435 C394 0.930 . S
H436 C398 0.929 . S
H437 C400 0.930 . S
H438 C406 0.929 . S
H439 C407 0.930 . S
Li440 N457 1.990 . S
Li440 O500 1.956 . S
Li440 O501 1.970 . S
Li440 O502 1.961 . S
Li441 N465 1.990 . S
Li441 O500 1.970 . S
Li441 O501 1.956 . S
Li441 O503 1.961 . S
Li442 N487 1.990 . S
Li442 O500 1.961 . S
Li442 O502 1.956 . S
Li442 O503 1.970 . S
Li443 N493 1.990 . S
Li443 O501 1.961 . S
Li443 O502 1.970 . S
Li443 O503 1.956 . S
C444 C446 1.348 . S
C444 C447 1.356 . S
C444 O500 1.325 . S
N445 C448 1.314 . S
N445 C449 1.279 . S
C446 C444 1.348 . S
C446 C448 1.353 . S
C446 H504 0.929 . S
C447 C444 1.356 . S
C447 C449 1.358 . S
C447 H505 0.930 . S
C448 N445 1.314 . S
C448 C446 1.353 . S
C448 H506 0.930 . S
C449 N445 1.279 . S
C449 C447 1.358 . S
C449 H507 0.930 . S
C450 C453 1.348 . S
C450 C454 1.356 . S
C450 O501 1.325 . S
C451 N452 1.279 . S
C451 C454 1.358 . S
C451 H508 0.930 . S
N452 C451 1.279 . S
N452 C455 1.314 . S
C453 C450 1.348 . S
C453 C455 1.353 . S
C453 H509 0.929 . S
C454 C450 1.356 . S
C454 C451 1.358 . S
C454 H510 0.930 . S
C455 N452 1.314 . S
C455 C453 1.353 . S
C455 H511 0.930 . S
C456 N457 1.314 . S
C456 C461 1.353 . S
C456 H462 0.930 . S
N457 Li440 1.990 . S
N457 C456 1.314 . S
N457 C459 1.279 . S
C458 C459 1.358 . S
C458 C460 1.356 . S
C458 H512 0.930 . S
C459 N457 1.279 . S
C459 C458 1.358 . S
C459 H463 0.930 . S
C460 C458 1.356 . S
C460 C461 1.348 . S
C461 C456 1.353 . S
C461 C460 1.348 . S
C461 H513 0.929 . S
H462 C456 0.930 . S
H463 C459 0.930 . S
C464 N465 1.314 . S
C464 C466 1.353 . S
C464 H470 0.930 . S
N465 Li441 1.990 . S
N465 C464 1.314 . S
N465 C468 1.279 . S
C466 C464 1.353 . S
C466 C469 1.348 . S
C466 H514 0.929 . S
C467 C468 1.358 . S
C467 C469 1.356 . S
C467 H515 0.930 . S
C468 N465 1.279 . S
C468 C467 1.358 . S
C468 H471 0.930 . S
C469 C466 1.348 . S
C469 C467 1.356 . S
H470 C464 0.930 . S
H471 C468 0.930 . S
C472 C474 1.348 . S
C472 C475 1.356 . S
C472 O502 1.325 . S
N473 C476 1.314 . S
N473 C477 1.279 . S
C474 C472 1.348 . S
C474 C476 1.353 . S
C474 H516 0.929 . S
C475 C472 1.356 . S
C475 C477 1.358 . S
C475 H517 0.930 . S
C476 N473 1.314 . S
C476 C474 1.353 . S
C476 H518 0.930 . S
C477 N473 1.279 . S
C477 C475 1.358 . S
C477 H519 0.930 . S
C478 C479 1.348 . S
C478 C480 1.356 . S
C478 O503 1.325 . S
C479 C478 1.348 . S
C479 C481 1.353 . S
C479 H520 0.929 . S
C480 C478 1.356 . S
C480 C482 1.358 . S
C480 H521 0.930 . S
C481 C479 1.353 . S
C481 N483 1.314 . S
C481 H522 0.930 . S
C482 C480 1.358 . S
C482 N483 1.279 . S
C482 H523 0.930 . S
N483 C481 1.314 . S
N483 C482 1.279 . S
C484 C486 1.353 . S
C484 N487 1.314 . S
C484 H490 0.930 . S
C485 N487 1.279 . S
C485 C488 1.358 . S
C485 H491 0.930 . S
C486 C484 1.353 . S
C486 C489 1.348 . S
C486 H524 0.929 . S
N487 Li442 1.990 . S
N487 C484 1.314 . S
N487 C485 1.279 . S
C488 C485 1.358 . S
C488 C489 1.356 . S
C488 H525 0.930 . S
C489 C486 1.348 . S
C489 C488 1.356 . S
H490 C484 0.930 . S
H491 C485 0.930 . S
C492 N493 1.314 . S
C492 C494 1.353 . S
C492 H498 0.930 . S
N493 Li443 1.990 . S
N493 C492 1.314 . S
N493 C496 1.279 . S
C494 C492 1.353 . S
C494 C497 1.348 . S
C494 H526 0.929 . S
C495 C496 1.358 . S
C495 C497 1.356 . S
C495 H527 0.930 . S
C496 N493 1.279 . S
C496 C495 1.358 . S
C496 H499 0.930 . S
C497 C494 1.348 . S
C497 C495 1.356 . S
H498 C492 0.930 . S
H499 C496 0.930 . S
O500 Li440 1.956 . S
O500 Li441 1.970 . S
O500 Li442 1.961 . S
O500 C444 1.325 . S
O501 Li440 1.970 . S
O501 Li441 1.956 . S
O501 Li443 1.961 . S
O501 C450 1.325 . S
O502 Li440 1.961 . S
O502 Li442 1.956 . S
O502 Li443 1.970 . S
O502 C472 1.325 . S
O503 Li441 1.961 . S
O503 Li442 1.970 . S
O503 Li443 1.956 . S
O503 C478 1.325 . S
H504 C446 0.929 . S
H505 C447 0.930 . S
H506 C448 0.930 . S
H507 C449 0.930 . S
H508 C451 0.930 . S
H509 C453 0.929 . S
H510 C454 0.930 . S
H511 C455 0.930 . S
H512 C458 0.930 . S
H513 C461 0.929 . S
H514 C466 0.929 . S
H515 C467 0.930 . S
H516 C474 0.929 . S
H517 C475 0.930 . S
H518 C476 0.930 . S
H519 C477 0.930 . S
H520 C479 0.929 . S
H521 C480 0.930 . S
H522 C481 0.930 . S
H523 C482 0.930 . S
H524 C486 0.929 . S
H525 C488 0.930 . S
H526 C494 0.929 . S
H527 C495 0.930 . S
Li528 N545 1.990 . S
Li528 O588 1.956 . S
Li528 O589 1.970 . S
Li528 O590 1.961 . S
Li529 N553 1.990 . S
Li529 O588 1.970 . S
Li529 O589 1.956 . S
Li529 O591 1.961 . S
Li530 N575 1.990 . S
Li530 O588 1.961 . S
Li530 O590 1.956 . S
Li530 O591 1.970 . S
Li531 N581 1.990 . S
Li531 O589 1.961 . S
Li531 O590 1.970 . S
Li531 O591 1.956 . S
C532 C534 1.348 . S
C532 C535 1.356 . S
C532 O588 1.325 . S
N533 C536 1.314 . S
N533 C537 1.279 . S
C534 C532 1.348 . S
C534 C536 1.353 . S
C534 H592 0.929 . S
C535 C532 1.356 . S
C535 C537 1.358 . S
C535 H593 0.930 . S
C536 N533 1.314 . S
C536 C534 1.353 . S
C536 H594 0.930 . S
C537 N533 1.279 . S
C537 C535 1.358 . S
C537 H595 0.930 . S
C538 C541 1.348 . S
C538 C542 1.356 . S
C538 O589 1.325 . S
C539 N540 1.279 . S
C539 C542 1.358 . S
C539 H596 0.930 . S
N540 C539 1.279 . S
N540 C543 1.314 . S
C541 C538 1.348 . S
C541 C543 1.353 . S
C541 H597 0.929 . S
C542 C538 1.356 . S
C542 C539 1.358 . S
C542 H598 0.930 . S
C543 N540 1.314 . S
C543 C541 1.353 . S
C543 H599 0.930 . S
C544 N545 1.314 . S
C544 C549 1.353 . S
C544 H550 0.930 . S
N545 Li528 1.990 . S
N545 C544 1.314 . S
N545 C547 1.279 . S
C546 C547 1.358 . S
C546 C548 1.356 . S
C546 H600 0.930 . S
C547 N545 1.279 . S
C547 C546 1.358 . S
C547 H551 0.930 . S
C548 C546 1.356 . S
C548 C549 1.348 . S
C549 C544 1.353 . S
C549 C548 1.348 . S
C549 H601 0.929 . S
H550 C544 0.930 . S
H551 C547 0.930 . S
C552 N553 1.314 . S
C552 C554 1.353 . S
C552 H558 0.930 . S
N553 Li529 1.990 . S
N553 C552 1.314 . S
N553 C556 1.279 . S
C554 C552 1.353 . S
C554 C557 1.348 . S
C554 H602 0.929 . S
C555 C556 1.358 . S
C555 C557 1.356 . S
C555 H603 0.930 . S
C556 N553 1.279 . S
C556 C555 1.358 . S
C556 H559 0.930 . S
C557 C554 1.348 . S
C557 C555 1.356 . S
H558 C552 0.930 . S
H559 C556 0.930 . S
C560 C562 1.348 . S
C560 C563 1.356 . S
C560 O590 1.325 . S
N561 C564 1.314 . S
N561 C565 1.279 . S
C562 C560 1.348 . S
C562 C564 1.353 . S
C562 H604 0.929 . S
C563 C560 1.356 . S
C563 C565 1.358 . S
C563 H605 0.930 . S
C564 N561 1.314 . S
C564 C562 1.353 . S
C564 H606 0.930 . S
C565 N561 1.279 . S
C565 C563 1.358 . S
C565 H607 0.930 . S
C566 C567 1.348 . S
C566 C568 1.356 . S
C566 O591 1.325 . S
C567 C566 1.348 . S
C567 C569 1.353 . S
C567 H608 0.929 . S
C568 C566 1.356 . S
C568 C570 1.358 . S
C568 H609 0.930 . S
C569 C567 1.353 . S
C569 N571 1.314 . S
C569 H610 0.930 . S
C570 C568 1.358 . S
C570 N571 1.279 . S
C570 H611 0.930 . S
N571 C569 1.314 . S
N571 C570 1.279 . S
C572 C574 1.353 . S
C572 N575 1.314 . S
C572 H578 0.930 . S
C573 N575 1.279 . S
C573 C576 1.358 . S
C573 H579 0.930 . S
C574 C572 1.353 . S
C574 C577 1.348 . S
C574 H612 0.929 . S
N575 Li530 1.990 . S
N575 C572 1.314 . S
N575 C573 1.279 . S
C576 C573 1.358 . S
C576 C577 1.356 . S
C576 H613 0.930 . S
C577 C574 1.348 . S
C577 C576 1.356 . S
H578 C572 0.930 . S
H579 C573 0.930 . S
C580 N581 1.314 . S
C580 C582 1.353 . S
C580 H586 0.930 . S
N581 Li531 1.990 . S
N581 C580 1.314 . S
N581 C584 1.279 . S
C582 C580 1.353 . S
C582 C585 1.348 . S
C582 H614 0.929 . S
C583 C584 1.358 . S
C583 C585 1.356 . S
C583 H615 0.930 . S
C584 N581 1.279 . S
C584 C583 1.358 . S
C584 H587 0.930 . S
C585 C582 1.348 . S
C585 C583 1.356 . S
H586 C580 0.930 . S
H587 C584 0.930 . S
O588 Li528 1.956 . S
O588 Li529 1.970 . S
O588 Li530 1.961 . S
O588 C532 1.325 . S
O589 Li528 1.970 . S
O589 Li529 1.956 . S
O589 Li531 1.961 . S
O589 C538 1.325 . S
O590 Li528 1.961 . S
O590 Li530 1.956 . S
O590 Li531 1.970 . S
O590 C560 1.325 . S
O591 Li529 1.961 . S
O591 Li530 1.970 . S
O591 Li531 1.956 . S
O591 C566 1.325 . S
H592 C534 0.929 . S
H593 C535 0.930 . S
H594 C536 0.930 . S
H595 C537 0.930 . S
H596 C539 0.930 . S
H597 C541 0.929 . S
H598 C542 0.930 . S
H599 C543 0.930 . S
H600 C546 0.930 . S
H601 C549 0.929 . S
H602 C554 0.929 . S
H603 C555 0.930 . S
H604 C562 0.929 . S
H605 C563 0.930 . S
H606 C564 0.930 . S
H607 C565 0.930 . S
H608 C567 0.929 . S
H609 C568 0.930 . S
H610 C569 0.930 . S
H611 C570 0.930 . S
H612 C574 0.929 . S
H613 C576 0.930 . S
H614 C582 0.929 . S
H615 C583 0.930 . S
Li616 N633 1.990 . S
Li616 O676 1.956 1_455 S
Li616 O677 1.970 . S
Li616 O678 1.961 . S
Li617 N641 1.990 . S
Li617 O676 1.970 . S
Li617 O677 1.956 1_655 S
Li617 O679 1.961 . S
Li618 N663 1.992 . S
Li618 O676 1.959 . S
Li618 O678 1.957 1_655 S
Li618 O679 1.970 . S
Li619 N669 1.990 . S
Li619 O677 1.961 . S
Li619 O678 1.970 . S
Li619 O679 1.956 1_455 S
C620 C622 1.348 . S
C620 C623 1.356 . S
C620 O676 1.325 . S
N621 C624 1.314 . S
N621 C625 1.279 . S
C622 C620 1.348 . S
C622 C624 1.353 . S
C622 H680 0.929 . S
C623 C620 1.356 . S
C623 C625 1.358 . S
C623 H681 0.930 . S
C624 N621 1.314 . S
C624 C622 1.353 . S
C624 H682 0.930 . S
C625 N621 1.279 . S
C625 C623 1.358 . S
C625 H683 0.930 . S
C626 C629 1.348 1_455 S
C626 C630 1.356 . S
C626 O677 1.325 . S
C627 N628 1.279 . S
C627 C630 1.358 . S
C627 H684 0.930 . S
N628 C627 1.279 . S
N628 C631 1.314 1_455 S
C629 C626 1.348 1_655 S
C629 C631 1.353 . S
C629 H685 0.929 . S
C630 C626 1.356 . S
C630 C627 1.358 . S
C630 H686 0.930 . S
C631 N628 1.314 1_655 S
C631 C629 1.353 . S
C631 H687 0.930 . S
C632 N633 1.314 . S
C632 C637 1.353 . S
C632 H638 0.930 . S
N633 Li616 1.990 . S
N633 C632 1.314 . S
N633 C635 1.279 1_455 S
C634 C635 1.358 . S
C634 C636 1.356 1_655 S
C634 H688 0.930 . S
C635 N633 1.279 1_655 S
C635 C634 1.358 . S
C635 H639 0.930 . S
C636 C634 1.356 1_455 S
C636 C637 1.348 . S
C637 C632 1.353 . S
C637 C636 1.348 . S
C637 H689 0.929 . S
H638 C632 0.930 . S
H639 C635 0.930 . S
C640 N641 1.314 . S
C640 C642 1.353 . S
C640 H646 0.930 . S
N641 Li617 1.990 . S
N641 C640 1.314 . S
N641 C644 1.279 . S
C642 C640 1.353 . S
C642 C645 1.348 . S
C642 H690 0.929 . S
C643 C644 1.358 . S
C643 C645 1.356 . S
C643 H691 0.930 . S
C644 N641 1.279 . S
C644 C643 1.358 . S
C644 H647 0.930 . S
C645 C642 1.348 . S
C645 C643 1.356 . S
H646 C640 0.930 . S
H647 C644 0.930 . S
C648 C650 1.348 . S
C648 C651 1.356 . S
C648 O678 1.325 . S
N649 C652 1.314 . S
N649 C653 1.279 . S
C650 C648 1.348 . S
C650 C652 1.353 . S
C650 H692 0.929 . S
C651 C648 1.356 . S
C651 C653 1.358 . S
C651 H693 0.930 . S
C652 N649 1.314 . S
C652 C650 1.353 . S
C652 H694 0.930 . S
C653 N649 1.279 . S
C653 C651 1.358 . S
C653 H695 0.930 . S
C654 C655 1.348 . S
C654 C656 1.356 . S
C654 O679 1.325 . S
C655 C654 1.348 . S
C655 C657 1.353 . S
C655 H696 0.929 1_655 S
C656 C654 1.356 . S
C656 C658 1.358 . S
C656 H697 0.930 . S
C657 C655 1.353 . S
C657 N659 1.314 . S
C657 H698 0.930 . S
C658 C656 1.358 . S
C658 N659 1.279 . S
C658 H699 0.930 . S
N659 C657 1.314 . S
N659 C658 1.279 . S
C660 C662 1.353 . S
C660 N663 1.336 . S
C660 H666 0.930 . S
C661 N663 1.257 1_455 S
C661 C664 1.358 . S
C661 H667 0.930 . S
C662 C660 1.353 . S
C662 C665 1.348 . S
C662 H700 0.929 . S
N663 Li618 1.992 . S
N663 C660 1.336 . S
N663 C661 1.257 1_655 S
C664 C661 1.358 . S
C664 C665 1.356 1_455 S
C664 H701 0.930 . S
C665 C662 1.348 . S
C665 C664 1.356 1_655 S
H666 C660 0.930 . S
H667 C661 0.930 . S
C668 N669 1.314 . S
C668 C670 1.353 . S
C668 H674 0.930 . S
N669 Li619 1.990 . S
N669 C668 1.314 . S
N669 C672 1.279 . S
C670 C668 1.353 . S
C670 C673 1.348 . S
C670 H702 0.929 . S
C671 C672 1.358 . S
C671 C673 1.356 . S
C671 H703 0.930 . S
C672 N669 1.279 . S
C672 C671 1.358 . S
C672 H675 0.930 . S
C673 C670 1.348 . S
C673 C671 1.356 . S
H674 C668 0.930 . S
H675 C672 0.930 . S
O676 Li616 1.956 1_655 S
O676 Li617 1.970 . S
O676 Li618 1.959 . S
O676 C620 1.325 . S
O677 Li616 1.970 . S
O677 Li617 1.956 1_455 S
O677 Li619 1.961 . S
O677 C626 1.325 . S
O678 Li616 1.961 . S
O678 Li618 1.957 1_455 S
O678 Li619 1.970 . S
O678 C648 1.325 . S
O679 Li617 1.961 . S
O679 Li618 1.970 . S
O679 Li619 1.956 1_655 S
O679 C654 1.325 . S
H680 C622 0.929 . S
H681 C623 0.930 . S
H682 C624 0.930 . S
H683 C625 0.930 . S
H684 C627 0.930 . S
H685 C629 0.929 . S
H686 C630 0.930 . S
H687 C631 0.930 . S
H688 C634 0.930 . S
H689 C637 0.929 . S
H690 C642 0.929 . S
H691 C643 0.930 . S
H692 C650 0.929 . S
H693 C651 0.930 . S
H694 C652 0.930 . S
H695 C653 0.930 . S
H696 C655 0.929 1_455 S
H697 C656 0.930 . S
H698 C657 0.930 . S
H699 C658 0.930 . S
H700 C662 0.929 . S
H701 C664 0.930 . S
H702 C670 0.929 . S
H703 C671 0.930 . S
Li704 N721 1.990 . S
Li704 O764 1.956 . S
Li704 O765 1.970 . S
Li704 O766 1.961 . S
Li705 N729 1.990 . S
Li705 O764 1.970 . S
Li705 O765 1.956 . S
Li705 O767 1.961 . S
Li706 N751 1.990 . S
Li706 O764 1.961 . S
Li706 O766 1.956 . S
Li706 O767 1.970 . S
Li707 N757 1.990 . S
Li707 O765 1.961 . S
Li707 O766 1.970 . S
Li707 O767 1.956 . S
C708 C710 1.348 . S
C708 C711 1.356 . S
C708 O764 1.325 . S
N709 C712 1.314 . S
N709 C713 1.279 1_565 S
C710 C708 1.348 . S
C710 C712 1.353 1_545 S
C710 H768 0.930 . S
C711 C708 1.356 . S
C711 C713 1.358 . S
C711 H769 0.930 . S
C712 N709 1.314 . S
C712 C710 1.353 1_565 S
C712 H770 0.930 . S
C713 N709 1.279 1_545 S
C713 C711 1.358 . S
C713 H771 0.930 . S
C714 C717 1.348 . S
C714 C718 1.356 . S
C714 O765 1.325 . S
C715 N716 1.279 . S
C715 C718 1.358 . S
C715 H772 0.930 . S
N716 C715 1.279 . S
N716 C719 1.314 . S
C717 C714 1.348 . S
C717 C719 1.353 . S
C717 H773 0.929 . S
C718 C714 1.356 . S
C718 C715 1.358 . S
C718 H774 0.930 . S
C719 N716 1.314 . S
C719 C717 1.353 . S
C719 H775 0.930 . S
C720 N721 1.314 . S
C720 C725 1.353 . S
C720 H726 0.930 . S
N721 Li704 1.990 . S
N721 C720 1.314 . S
N721 C723 1.279 . S
C722 C723 1.358 . S
C722 C724 1.356 . S
C722 H776 0.930 . S
C723 N721 1.279 . S
C723 C722 1.358 . S
C723 H727 0.930 . S
C724 C722 1.356 . S
C724 C725 1.348 . S
C725 C720 1.353 . S
C725 C724 1.348 . S
C725 H777 0.929 . S
H726 C720 0.930 . S
H727 C723 0.930 . S
C728 N729 1.314 1_565 S
C728 C730 1.353 . S
C728 H734 0.930 1_565 S
N729 Li705 1.990 . S
N729 C728 1.314 1_545 S
N729 C732 1.279 . S
C730 C728 1.353 . S
C730 C733 1.348 . S
C730 H778 0.929 . S
C731 C732 1.358 1_565 S
C731 C733 1.356 . S
C731 H779 0.930 . S
C732 N729 1.279 . S
C732 C731 1.358 1_545 S
C732 H735 0.930 . S
C733 C730 1.348 . S
C733 C731 1.356 . S
H734 C728 0.930 1_545 S
H735 C732 0.930 . S
C736 C738 1.348 . S
C736 C739 1.356 . S
C736 O766 1.325 . S
N737 C740 1.314 . S
N737 C741 1.279 . S
C738 C736 1.348 . S
C738 C740 1.353 . S
C738 H780 0.929 . S
C739 C736 1.356 . S
C739 C741 1.358 . S
C739 H781 0.930 . S
C740 N737 1.314 . S
C740 C738 1.353 . S
C740 H782 0.930 . S
C741 N737 1.279 . S
C741 C739 1.358 . S
C741 H783 0.930 . S
C742 C743 1.348 . S
C742 C744 1.356 . S
C742 O767 1.325 . S
C743 C742 1.348 . S
C743 C745 1.353 . S
C743 H784 0.929 . S
C744 C742 1.356 . S
C744 C746 1.358 . S
C744 H785 0.930 . S
C745 C743 1.353 . S
C745 N747 1.314 . S
C745 H786 0.930 . S
C746 C744 1.358 . S
C746 N747 1.279 . S
C746 H787 0.930 . S
N747 C745 1.314 . S
N747 C746 1.279 . S
C748 C750 1.353 . S
C748 N751 1.314 . S
C748 H754 0.930 . S
C749 N751 1.279 . S
C749 C752 1.358 . S
C749 H755 0.930 . S
C750 C748 1.353 . S
C750 C753 1.348 . S
C750 H788 0.929 . S
N751 Li706 1.990 . S
N751 C748 1.314 . S
N751 C749 1.279 . S
C752 C749 1.358 . S
C752 C753 1.356 . S
C752 H789 0.930 . S
C753 C750 1.348 . S
C753 C752 1.356 . S
H754 C748 0.930 . S
H755 C749 0.930 . S
C756 N757 1.314 . S
C756 C758 1.353 . S
C756 H762 0.930 . S
N757 Li707 1.990 . S
N757 C756 1.314 . S
N757 C760 1.279 . S
C758 C756 1.353 . S
C758 C761 1.348 . S
C758 H790 0.929 . S
C759 C760 1.358 . S
C759 C761 1.356 . S
C759 H791 0.930 . S
C760 N757 1.279 . S
C760 C759 1.358 . S
C760 H763 0.930 . S
C761 C758 1.348 . S
C761 C759 1.356 . S
H762 C756 0.930 . S
H763 C760 0.930 . S
O764 Li704 1.956 . S
O764 Li705 1.970 . S
O764 Li706 1.961 . S
O764 C708 1.325 . S
O765 Li704 1.970 . S
O765 Li705 1.956 . S
O765 Li707 1.961 . S
O765 C714 1.325 . S
O766 Li704 1.961 . S
O766 Li706 1.956 . S
O766 Li707 1.970 . S
O766 C736 1.325 . S
O767 Li705 1.961 . S
O767 Li706 1.970 . S
O767 Li707 1.956 . S
O767 C742 1.325 . S
H768 C710 0.930 . S
H769 C711 0.930 . S
H770 C712 0.930 . S
H771 C713 0.930 . S
H772 C715 0.930 . S
H773 C717 0.929 . S
H774 C718 0.930 . S
H775 C719 0.930 . S
H776 C722 0.930 . S
H777 C725 0.929 . S
H778 C730 0.929 . S
H779 C731 0.930 . S
H780 C738 0.929 . S
H781 C739 0.930 . S
H782 C740 0.930 . S
H783 C741 0.930 . S
H784 C743 0.929 . S
H785 C744 0.930 . S
H786 C745 0.930 . S
H787 C746 0.930 . S
H788 C750 0.929 . S
H789 C752 0.930 . S
H790 C758 0.929 . S
H791 C759 0.930 . S
Li792 N809 1.990 . S
Li792 O852 1.956 . S
Li792 O853 1.970 . S
Li792 O854 1.961 . S
Li793 N817 1.990 . S
Li793 O852 1.970 . S
Li793 O853 1.956 . S
Li793 O855 1.961 . S
Li794 N839 1.990 . S
Li794 O852 1.961 . S
Li794 O854 1.956 . S
Li794 O855 1.970 . S
Li795 N845 1.990 . S
Li795 O853 1.961 . S
Li795 O854 1.970 . S
Li795 O855 1.956 . S
C796 C798 1.348 . S
C796 C799 1.356 . S
C796 O852 1.325 . S
N797 C800 1.314 . S
N797 C801 1.279 . S
C798 C796 1.348 . S
C798 C800 1.353 . S
C798 H856 0.929 . S
C799 C796 1.356 . S
C799 C801 1.358 . S
C799 H857 0.930 . S
C800 N797 1.314 . S
C800 C798 1.353 . S
C800 H858 0.930 . S
C801 N797 1.279 . S
C801 C799 1.358 . S
C801 H859 0.930 . S
C802 C805 1.348 . S
C802 C806 1.356 . S
C802 O853 1.325 . S
C803 N804 1.279 . S
C803 C806 1.358 . S
C803 H860 0.930 . S
N804 C803 1.279 . S
N804 C807 1.314 . S
C805 C802 1.348 . S
C805 C807 1.353 . S
C805 H861 0.929 . S
C806 C802 1.356 . S
C806 C803 1.358 . S
C806 H862 0.930 . S
C807 N804 1.314 . S
C807 C805 1.353 . S
C807 H863 0.930 . S
C808 N809 1.314 . S
C808 C813 1.353 . S
C808 H814 0.930 . S
N809 Li792 1.990 . S
N809 C808 1.314 . S
N809 C811 1.279 . S
C810 C811 1.358 . S
C810 C812 1.356 . S
C810 H864 0.930 . S
C811 N809 1.279 . S
C811 C810 1.358 . S
C811 H815 0.930 . S
C812 C810 1.356 . S
C812 C813 1.348 . S
C813 C808 1.353 . S
C813 C812 1.348 . S
C813 H865 0.929 . S
H814 C808 0.930 . S
H815 C811 0.930 . S
C816 N817 1.314 . S
C816 C818 1.353 . S
C816 H822 0.930 . S
N817 Li793 1.990 . S
N817 C816 1.314 . S
N817 C820 1.279 . S
C818 C816 1.353 . S
C818 C821 1.348 . S
C818 H866 0.929 . S
C819 C820 1.358 . S
C819 C821 1.356 . S
C819 H867 0.930 . S
C820 N817 1.279 . S
C820 C819 1.358 . S
C820 H823 0.930 . S
C821 C818 1.348 . S
C821 C819 1.356 . S
H822 C816 0.930 . S
H823 C820 0.930 . S
C824 C826 1.348 . S
C824 C827 1.356 . S
C824 O854 1.325 . S
N825 C828 1.314 . S
N825 C829 1.279 . S
C826 C824 1.348 . S
C826 C828 1.353 . S
C826 H868 0.929 . S
C827 C824 1.356 . S
C827 C829 1.358 . S
C827 H869 0.930 . S
C828 N825 1.314 . S
C828 C826 1.353 . S
C828 H870 0.930 . S
C829 N825 1.279 . S
C829 C827 1.358 . S
C829 H871 0.930 . S
C830 C831 1.348 . S
C830 C832 1.356 . S
C830 O855 1.325 . S
C831 C830 1.348 . S
C831 C833 1.353 . S
C831 H872 0.929 . S
C832 C830 1.356 . S
C832 C834 1.358 . S
C832 H873 0.930 . S
C833 C831 1.353 . S
C833 N835 1.314 . S
C833 H874 0.930 . S
C834 C832 1.358 . S
C834 N835 1.279 . S
C834 H875 0.930 . S
N835 C833 1.314 . S
N835 C834 1.279 . S
C836 C838 1.353 . S
C836 N839 1.314 . S
C836 H842 0.930 . S
C837 N839 1.279 . S
C837 C840 1.358 . S
C837 H843 0.930 . S
C838 C836 1.353 . S
C838 C841 1.348 . S
C838 H876 0.929 . S
N839 Li794 1.990 . S
N839 C836 1.314 . S
N839 C837 1.279 . S
C840 C837 1.358 . S
C840 C841 1.356 . S
C840 H877 0.930 . S
C841 C838 1.348 . S
C841 C840 1.356 . S
H842 C836 0.930 . S
H843 C837 0.930 . S
C844 N845 1.314 . S
C844 C846 1.353 . S
C844 H850 0.930 . S
N845 Li795 1.990 . S
N845 C844 1.314 . S
N845 C848 1.279 . S
C846 C844 1.353 . S
C846 C849 1.348 . S
C846 H878 0.929 . S
C847 C848 1.358 . S
C847 C849 1.356 . S
C847 H879 0.930 . S
C848 N845 1.279 . S
C848 C847 1.358 . S
C848 H851 0.930 . S
C849 C846 1.348 . S
C849 C847 1.356 . S
H850 C844 0.930 . S
H851 C848 0.930 . S
O852 Li792 1.956 . S
O852 Li793 1.970 . S
O852 Li794 1.961 . S
O852 C796 1.325 . S
O853 Li792 1.970 . S
O853 Li793 1.956 . S
O853 Li795 1.961 . S
O853 C802 1.325 . S
O854 Li792 1.961 . S
O854 Li794 1.956 . S
O854 Li795 1.970 . S
O854 C824 1.325 . S
O855 Li793 1.961 . S
O855 Li794 1.970 . S
O855 Li795 1.956 . S
O855 C830 1.325 . S
H856 C798 0.929 . S
H857 C799 0.930 . S
H858 C800 0.930 . S
H859 C801 0.930 . S
H860 C803 0.930 . S
H861 C805 0.929 . S
H862 C806 0.930 . S
H863 C807 0.930 . S
H864 C810 0.930 . S
H865 C813 0.929 . S
H866 C818 0.929 . S
H867 C819 0.930 . S
H868 C826 0.929 . S
H869 C827 0.930 . S
H870 C828 0.930 . S
H871 C829 0.930 . S
H872 C831 0.929 . S
H873 C832 0.930 . S
H874 C833 0.930 . S
H875 C834 0.930 . S
H876 C838 0.929 . S
H877 C840 0.930 . S
H878 C846 0.929 . S
H879 C847 0.930 . S
Li880 N897 1.990 . S
Li880 O940 1.956 . S
Li880 O941 1.970 . S
Li880 O942 1.961 . S
Li881 N905 1.990 . S
Li881 O940 1.970 . S
Li881 O941 1.956 . S
Li881 O943 1.961 . S
Li882 N927 1.990 . S
Li882 O940 1.961 . S
Li882 O942 1.956 . S
Li882 O943 1.970 . S
Li883 N933 1.990 . S
Li883 O941 1.961 . S
Li883 O942 1.970 . S
Li883 O943 1.956 . S
C884 C886 1.348 . S
C884 C887 1.356 . S
C884 O940 1.325 . S
N885 C888 1.314 . S
N885 C889 1.279 . S
C886 C884 1.348 . S
C886 C888 1.353 . S
C886 H944 0.929 . S
C887 C884 1.356 . S
C887 C889 1.358 . S
C887 H945 0.930 . S
C888 N885 1.314 . S
C888 C886 1.353 . S
C888 H946 0.930 . S
C889 N885 1.279 . S
C889 C887 1.358 . S
C889 H947 0.930 . S
C890 C893 1.348 . S
C890 C894 1.356 . S
C890 O941 1.325 . S
C891 N892 1.279 . S
C891 C894 1.358 . S
C891 H948 0.930 . S
N892 C891 1.279 . S
N892 C895 1.314 . S
C893 C890 1.348 . S
C893 C895 1.353 . S
C893 H949 0.929 . S
C894 C890 1.356 . S
C894 C891 1.358 . S
C894 H950 0.930 . S
C895 N892 1.314 . S
C895 C893 1.353 . S
C895 H951 0.930 . S
C896 N897 1.314 . S
C896 C901 1.353 . S
C896 H902 0.930 . S
N897 Li880 1.990 . S
N897 C896 1.314 . S
N897 C899 1.279 . S
C898 C899 1.358 . S
C898 C900 1.356 . S
C898 H952 0.930 . S
C899 N897 1.279 . S
C899 C898 1.358 . S
C899 H903 0.930 . S
C900 C898 1.356 . S
C900 C901 1.348 . S
C901 C896 1.353 . S
C901 C900 1.348 . S
C901 H953 0.929 . S
H902 C896 0.930 . S
H903 C899 0.930 . S
C904 N905 1.314 . S
C904 C906 1.353 . S
C904 H910 0.930 . S
N905 Li881 1.990 . S
N905 C904 1.314 . S
N905 C908 1.279 . S
C906 C904 1.353 . S
C906 C909 1.348 . S
C906 H954 0.929 . S
C907 C908 1.358 . S
C907 C909 1.356 . S
C907 H955 0.930 . S
C908 N905 1.279 . S
C908 C907 1.358 . S
C908 H911 0.930 . S
C909 C906 1.348 . S
C909 C907 1.356 . S
H910 C904 0.930 . S
H911 C908 0.930 . S
C912 C914 1.348 . S
C912 C915 1.356 . S
C912 O942 1.325 . S
N913 C916 1.314 . S
N913 C917 1.279 . S
C914 C912 1.348 . S
C914 C916 1.353 . S
C914 H956 0.929 . S
C915 C912 1.356 . S
C915 C917 1.358 . S
C915 H957 0.930 . S
C916 N913 1.314 . S
C916 C914 1.353 . S
C916 H958 0.930 . S
C917 N913 1.279 . S
C917 C915 1.358 . S
C917 H959 0.930 . S
C918 C919 1.389 . S
C918 C920 1.356 . S
C918 O943 1.325 . S
C919 C918 1.389 . S
C919 C921 1.321 1_545 S
C919 H960 0.927 . S
C920 C918 1.356 . S
C920 C922 1.358 1_545 S
C920 H961 0.930 . S
C921 C919 1.321 1_565 S
C921 N923 1.314 . S
C921 H962 0.930 . S
C922 C920 1.358 1_565 S
C922 N923 1.279 . S
C922 H963 0.930 . S
N923 C921 1.314 . S
N923 C922 1.279 . S
C924 C926 1.353 1_545 S
C924 N927 1.314 . S
C924 H930 0.930 . S
C925 N927 1.279 . S
C925 C928 1.349 1_545 S
C925 H931 0.930 . S
C926 C924 1.353 1_565 S
C926 C929 1.348 . S
C926 H964 0.929 . S
N927 Li882 1.990 . S
N927 C924 1.314 . S
N927 C925 1.279 . S
C928 C925 1.349 1_565 S
C928 C929 1.363 . S
C928 H965 0.932 . S
C929 C926 1.348 . S
C929 C928 1.363 . S
H930 C924 0.930 . S
H931 C925 0.930 . S
C932 N933 1.314 . S
C932 C934 1.353 . S
C932 H938 0.930 . S
N933 Li883 1.990 . S
N933 C932 1.314 . S
N933 C936 1.279 . S
C934 C932 1.353 . S
C934 C937 1.348 . S
C934 H966 0.929 . S
C935 C936 1.358 . S
C935 C937 1.356 . S
C935 H967 0.930 . S
C936 N933 1.279 . S
C936 C935 1.358 . S
C936 H939 0.930 . S
C937 C934 1.348 . S
C937 C935 1.356 . S
H938 C932 0.930 . S
H939 C936 0.930 . S
O940 Li880 1.956 . S
O940 Li881 1.970 . S
O940 Li882 1.961 . S
O940 C884 1.325 . S
O941 Li880 1.970 . S
O941 Li881 1.956 . S
O941 Li883 1.961 . S
O941 C890 1.325 . S
O942 Li880 1.961 . S
O942 Li882 1.956 . S
O942 Li883 1.970 . S
O942 C912 1.325 . S
O943 Li881 1.961 . S
O943 Li882 1.970 . S
O943 Li883 1.956 . S
O943 C918 1.325 . S
H944 C886 0.929 . S
H945 C887 0.930 . S
H946 C888 0.930 . S
H947 C889 0.930 . S
H948 C891 0.930 . S
H949 C893 0.929 . S
H950 C894 0.930 . S
H951 C895 0.930 . S
H952 C898 0.930 . S
H953 C901 0.929 . S
H954 C906 0.929 . S
H955 C907 0.930 . S
H956 C914 0.929 . S
H957 C915 0.930 . S
H958 C916 0.930 . S
H959 C917 0.930 . S
H960 C919 0.927 . S
H961 C920 0.930 . S
H962 C921 0.930 . S
H963 C922 0.930 . S
H964 C926 0.929 . S
H965 C928 0.932 . S
H966 C934 0.929 . S
H967 C935 0.930 . S
Li968 N985 1.990 . S
Li968 O1028 1.956 . S
Li968 O1029 1.970 . S
Li968 O1030 1.961 . S
Li969 N993 1.990 . S
Li969 O1028 1.970 . S
Li969 O1029 1.956 . S
Li969 O1031 1.961 . S
Li970 N1015 1.990 . S
Li970 O1028 1.961 . S
Li970 O1030 1.956 . S
Li970 O1031 1.970 . S
Li971 N1021 1.955 1_554 S
Li971 O1029 1.961 . S
Li971 O1030 1.970 . S
Li971 O1031 1.956 . S
C972 C974 1.348 . S
C972 C975 1.356 . S
C972 O1028 1.325 . S
N973 C976 1.314 . S
N973 C977 1.279 . S
C974 C972 1.348 . S
C974 C976 1.353 . S
C974 H1032 0.929 . S
C975 C972 1.356 . S
C975 C977 1.358 . S
C975 H1033 0.930 . S
C976 N973 1.314 . S
C976 C974 1.353 . S
C976 H1034 0.930 . S
C977 N973 1.279 . S
C977 C975 1.358 . S
C977 H1035 0.930 . S
C978 C981 1.348 . S
C978 C982 1.356 . S
C978 O1029 1.325 . S
C979 N980 1.279 . S
C979 C982 1.358 . S
C979 H1036 0.930 . S
N980 C979 1.279 . S
N980 C983 1.314 . S
C981 C978 1.348 . S
C981 C983 1.353 . S
C981 H1037 0.929 . S
C982 C978 1.356 . S
C982 C979 1.358 . S
C982 H1038 0.930 . S
C983 N980 1.314 . S
C983 C981 1.353 . S
C983 H1039 0.930 . S
C984 N985 1.314 . S
C984 C989 1.353 . S
C984 H990 0.930 . S
N985 Li968 1.990 . S
N985 C984 1.314 . S
N985 C987 1.279 . S
C986 C987 1.358 . S
C986 C988 1.356 . S
C986 H1040 0.930 . S
C987 N985 1.279 . S
C987 C986 1.358 . S
C987 H991 0.930 . S
C988 C986 1.356 . S
C988 C989 1.348 . S
C989 C984 1.353 . S
C989 C988 1.348 . S
C989 H1041 0.929 . S
H990 C984 0.930 . S
H991 C987 0.930 . S
C992 N993 1.314 . S
C992 C994 1.353 . S
C992 H998 0.930 . S
N993 Li969 1.990 . S
N993 C992 1.314 . S
N993 C996 1.279 . S
C994 C992 1.353 . S
C994 C997 1.348 . S
C994 H1042 0.929 . S
C995 C996 1.358 . S
C995 C997 1.356 . S
C995 H1043 0.930 . S
C996 N993 1.279 . S
C996 C995 1.358 . S
C996 H999 0.930 . S
C997 C994 1.348 . S
C997 C995 1.356 . S
H998 C992 0.930 . S
H999 C996 0.930 . S
C1000 C1002 1.348 1_554 S
C1000 C1003 1.356 . S
C1000 O1030 1.325 . S
N1001 C1004 1.314 . S
N1001 C1005 1.279 . S
C1002 C1000 1.348 1_556 S
C1002 C1004 1.353 . S
C1002 H1044 0.929 . S
C1003 C1000 1.356 . S
C1003 C1005 1.358 1_554 S
C1003 H1045 0.930 . S
C1004 N1001 1.314 . S
C1004 C1002 1.353 . S
C1004 H1046 0.930 . S
C1005 N1001 1.279 . S
C1005 C1003 1.358 1_556 S
C1005 H1047 0.930 . S
C1006 C1007 1.348 . S
C1006 C1008 1.356 . S
C1006 O1031 1.325 . S
C1007 C1006 1.348 . S
C1007 C1009 1.353 . S
C1007 H1048 0.929 . S
C1008 C1006 1.356 . S
C1008 C1010 1.358 . S
C1008 H1049 0.930 . S
C1009 C1007 1.353 . S
C1009 N1011 1.314 . S
C1009 H1050 0.930 . S
C1010 C1008 1.358 . S
C1010 N1011 1.279 . S
C1010 H1051 0.930 . S
N1011 C1009 1.314 . S
N1011 C1010 1.279 . S
C1012 C1014 1.353 . S
C1012 N1015 1.314 . S
C1012 H1018 0.930 . S
C1013 N1015 1.279 . S
C1013 C1016 1.358 . S
C1013 H1019 0.930 . S
C1014 C1012 1.353 . S
C1014 C1017 1.348 . S
C1014 H1052 0.929 . S
N1015 Li970 1.990 . S
N1015 C1012 1.314 . S
N1015 C1013 1.279 . S
C1016 C1013 1.358 . S
C1016 C1017 1.356 . S
C1016 H1053 0.930 . S
C1017 C1014 1.348 . S
C1017 C1016 1.356 . S
H1018 C1012 0.930 . S
H1019 C1013 0.930 . S
C1020 N1021 1.338 . S
C1020 C1022 1.353 . S
C1020 H1026 0.930 . S
N1021 Li971 1.955 1_556 S
N1021 C1020 1.338 . S
N1021 C1024 1.299 . S
C1022 C1020 1.353 . S
C1022 C1025 1.348 . S
C1022 H1054 0.929 . S
C1023 C1024 1.358 . S
C1023 C1025 1.356 . S
C1023 H1055 0.930 . S
C1024 N1021 1.299 . S
C1024 C1023 1.358 . S
C1024 H1027 0.910 1_556 S
C1025 C1022 1.348 . S
C1025 C1023 1.356 . S
H1026 C1020 0.930 . S
H1027 C1024 0.910 1_554 S
O1028 Li968 1.956 . S
O1028 Li969 1.970 . S
O1028 Li970 1.961 . S
O1028 C972 1.325 . S
O1029 Li968 1.970 . S
O1029 Li969 1.956 . S
O1029 Li971 1.961 . S
O1029 C978 1.325 . S
O1030 Li968 1.961 . S
O1030 Li970 1.956 . S
O1030 Li971 1.970 . S
O1030 C1000 1.325 . S
O1031 Li969 1.961 . S
O1031 Li970 1.970 . S
O1031 Li971 1.956 . S
O1031 C1006 1.325 . S
H1032 C974 0.929 . S
H1033 C975 0.930 . S
H1034 C976 0.930 . S
H1035 C977 0.930 . S
H1036 C979 0.930 . S
H1037 C981 0.929 . S
H1038 C982 0.930 . S
H1039 C983 0.930 . S
H1040 C986 0.930 . S
H1041 C989 0.929 . S
H1042 C994 0.929 . S
H1043 C995 0.930 . S
H1044 C1002 0.929 . S
H1045 C1003 0.930 . S
H1046 C1004 0.930 . S
H1047 C1005 0.930 . S
H1048 C1007 0.929 . S
H1049 C1008 0.930 . S
H1050 C1009 0.930 . S
H1051 C1010 0.930 . S
H1052 C1014 0.929 . S
H1053 C1016 0.930 . S
H1054 C1022 0.929 . S
H1055 C1023 0.930 . S
Li1056 N1073 1.990 . S
Li1056 O1116 1.956 . S
Li1056 O1117 1.970 . S
Li1056 O1118 1.961 . S
Li1057 N1081 1.990 . S
Li1057 O1116 1.970 . S
Li1057 O1117 1.956 . S
Li1057 O1119 1.961 . S
Li1058 N1103 1.990 . S
Li1058 O1116 1.961 . S
Li1058 O1118 1.956 . S
Li1058 O1119 1.970 . S
Li1059 N1109 1.990 1_554 S
Li1059 O1117 1.961 . S
Li1059 O1118 1.970 . S
Li1059 O1119 1.956 . S
C1060 C1062 1.348 . S
C1060 C1063 1.356 . S
C1060 O1116 1.325 . S
N1061 C1064 1.314 . S
N1061 C1065 1.279 . S
C1062 C1060 1.348 . S
C1062 C1064 1.353 . S
C1062 H1120 0.929 . S
C1063 C1060 1.356 . S
C1063 C1065 1.358 . S
C1063 H1121 0.930 . S
C1064 N1061 1.314 . S
C1064 C1062 1.353 . S
C1064 H1122 0.930 . S
C1065 N1061 1.279 . S
C1065 C1063 1.358 . S
C1065 H1123 0.930 . S
C1066 C1069 1.348 . S
C1066 C1070 1.356 . S
C1066 O1117 1.325 . S
C1067 N1068 1.279 . S
C1067 C1070 1.358 . S
C1067 H1124 0.930 . S
N1068 C1067 1.279 . S
N1068 C1071 1.314 . S
C1069 C1066 1.348 . S
C1069 C1071 1.353 . S
C1069 H1125 0.929 . S
C1070 C1066 1.356 . S
C1070 C1067 1.358 . S
C1070 H1126 0.930 . S
C1071 N1068 1.314 . S
C1071 C1069 1.353 . S
C1071 H1127 0.930 . S
C1072 N1073 1.314 . S
C1072 C1077 1.353 . S
C1072 H1078 0.930 1_554 S
N1073 Li1056 1.990 . S
N1073 C1072 1.314 . S
N1073 C1075 1.279 . S
C1074 C1075 1.358 . S
C1074 C1076 1.356 . S
C1074 H1128 0.930 . S
C1075 N1073 1.279 . S
C1075 C1074 1.358 . S
C1075 H1079 0.930 . S
C1076 C1074 1.356 . S
C1076 C1077 1.348 . S
C1077 C1072 1.353 . S
C1077 C1076 1.348 . S
C1077 H1129 0.929 1_554 S
H1078 C1072 0.930 1_556 S
H1079 C1075 0.930 . S
C1080 N1081 1.314 . S
C1080 C1082 1.353 . S
C1080 H1086 0.930 . S
N1081 Li1057 1.990 . S
N1081 C1080 1.314 . S
N1081 C1084 1.279 . S
C1082 C1080 1.353 . S
C1082 C1085 1.348 . S
C1082 H1130 0.929 . S
C1083 C1084 1.358 . S
C1083 C1085 1.356 . S
C1083 H1131 0.930 . S
C1084 N1081 1.279 . S
C1084 C1083 1.358 . S
C1084 H1087 0.930 . S
C1085 C1082 1.348 . S
C1085 C1083 1.356 . S
H1086 C1080 0.930 . S
H1087 C1084 0.930 . S
C1088 C1090 1.348 . S
C1088 C1091 1.356 . S
C1088 O1118 1.325 1_556 S
N1089 C1092 1.314 . S
N1089 C1093 1.279 . S
C1090 C1088 1.348 . S
C1090 C1092 1.353 . S
C1090 H1132 0.929 . S
C1091 C1088 1.356 . S
C1091 C1093 1.358 . S
C1091 H1133 0.930 1_556 S
C1092 N1089 1.314 . S
C1092 C1090 1.353 . S
C1092 H1134 0.930 . S
C1093 N1089 1.279 . S
C1093 C1091 1.358 . S
C1093 H1135 0.930 . S
C1094 C1095 1.348 . S
C1094 C1096 1.356 . S
C1094 O1119 1.325 . S
C1095 C1094 1.348 . S
C1095 C1097 1.353 . S
C1095 H1136 0.929 . S
C1096 C1094 1.356 . S
C1096 C1098 1.358 . S
C1096 H1137 0.930 . S
C1097 C1095 1.353 . S
C1097 N1099 1.314 . S
C1097 H1138 0.930 . S
C1098 C1096 1.358 . S
C1098 N1099 1.279 . S
C1098 H1139 0.930 . S
N1099 C1097 1.314 . S
N1099 C1098 1.279 . S
C1100 C1102 1.353 . S
C1100 N1103 1.314 . S
C1100 H1106 0.930 . S
C1101 N1103 1.279 . S
C1101 C1104 1.358 . S
C1101 H1107 0.930 . S
C1102 C1100 1.353 . S
C1102 C1105 1.348 . S
C1102 H1140 0.929 . S
N1103 Li1058 1.990 . S
N1103 C1100 1.314 . S
N1103 C1101 1.279 . S
C1104 C1101 1.358 . S
C1104 C1105 1.356 . S
C1104 H1141 0.930 . S
C1105 C1102 1.348 . S
C1105 C1104 1.356 . S
H1106 C1100 0.930 . S
H1107 C1101 0.930 . S
C1108 N1109 1.314 . S
C1108 C1110 1.353 . S
C1108 H1114 0.930 . S
N1109 Li1059 1.990 1_556 S
N1109 C1108 1.314 . S
N1109 C1112 1.279 . S
C1110 C1108 1.353 . S
C1110 C1113 1.348 . S
C1110 H1142 0.929 . S
C1111 C1112 1.358 . S
C1111 C1113 1.356 . S
C1111 H1143 0.930 . S
C1112 N1109 1.279 . S
C1112 C1111 1.358 . S
C1112 H1115 0.930 . S
C1113 C1110 1.348 . S
C1113 C1111 1.356 . S
H1114 C1108 0.930 . S
H1115 C1112 0.930 . S
O1116 Li1056 1.956 . S
O1116 Li1057 1.970 . S
O1116 Li1058 1.961 . S
O1116 C1060 1.325 . S
O1117 Li1056 1.970 . S
O1117 Li1057 1.956 . S
O1117 Li1059 1.961 . S
O1117 C1066 1.325 . S
O1118 Li1056 1.961 . S
O1118 Li1058 1.956 . S
O1118 Li1059 1.970 . S
O1118 C1088 1.325 1_554 S
O1119 Li1057 1.961 . S
O1119 Li1058 1.970 . S
O1119 Li1059 1.956 . S
O1119 C1094 1.325 . S
H1120 C1062 0.929 . S
H1121 C1063 0.930 . S
H1122 C1064 0.930 . S
H1123 C1065 0.930 . S
H1124 C1067 0.930 . S
H1125 C1069 0.929 . S
H1126 C1070 0.930 . S
H1127 C1071 0.930 . S
H1128 C1074 0.930 . S
H1129 C1077 0.929 1_556 S
H1130 C1082 0.929 . S
H1131 C1083 0.930 . S
H1132 C1090 0.929 . S
H1133 C1091 0.930 1_554 S
H1134 C1092 0.930 . S
H1135 C1093 0.930 . S
H1136 C1095 0.929 . S
H1137 C1096 0.930 . S
H1138 C1097 0.930 . S
H1139 C1098 0.930 . S
H1140 C1102 0.929 . S
H1141 C1104 0.930 . S
H1142 C1110 0.929 . S
H1143 C1111 0.930 . S
Li1144 N1161 1.990 . S
Li1144 O1204 1.956 . S
Li1144 O1205 1.970 . S
Li1144 O1206 1.955 1_554 S
Li1145 N1169 1.990 . S
Li1145 O1204 1.970 . S
Li1145 O1205 1.956 . S
Li1145 O1207 1.961 1_554 S
Li1146 N1191 1.990 . S
Li1146 O1204 1.961 1_556 S
Li1146 O1206 1.963 . S
Li1146 O1207 1.970 . S
Li1147 N1197 1.990 . S
Li1147 O1205 1.961 1_556 S
Li1147 O1206 1.971 . S
Li1147 O1207 1.956 . S
C1148 C1150 1.348 . S
C1148 C1151 1.356 . S
C1148 O1204 1.325 . S
N1149 C1152 1.314 . S
N1149 C1153 1.279 . S
C1150 C1148 1.348 . S
C1150 C1152 1.353 . S
C1150 H1208 0.929 . S
C1151 C1148 1.356 . S
C1151 C1153 1.358 . S
C1151 H1209 0.930 1_554 S
C1152 N1149 1.314 . S
C1152 C1150 1.353 . S
C1152 H1210 0.930 . S
C1153 N1149 1.279 . S
C1153 C1151 1.358 . S
C1153 H1211 0.930 . S
C1154 C1157 1.348 . S
C1154 C1158 1.356 . S
C1154 O1205 1.325 . S
C1155 N1156 1.279 . S
C1155 C1158 1.358 . S
C1155 H1212 0.930 . S
N1156 C1155 1.279 . S
N1156 C1159 1.314 . S
C1157 C1154 1.348 . S
C1157 C1159 1.353 . S
C1157 H1213 0.929 . S
C1158 C1154 1.356 . S
C1158 C1155 1.358 . S
C1158 H1214 0.930 . S
C1159 N1156 1.314 . S
C1159 C1157 1.353 . S
C1159 H1215 0.930 . S
C1160 N1161 1.314 . S
C1160 C1165 1.353 . S
C1160 H1166 0.930 . S
N1161 Li1144 1.990 . S
N1161 C1160 1.314 . S
N1161 C1163 1.279 . S
C1162 C1163 1.358 . S
C1162 C1164 1.356 . S
C1162 H1216 0.930 . S
C1163 N1161 1.279 . S
C1163 C1162 1.358 . S
C1163 H1167 0.930 . S
C1164 C1162 1.356 . S
C1164 C1165 1.348 . S
C1165 C1160 1.353 . S
C1165 C1164 1.348 . S
C1165 H1217 0.929 . S
H1166 C1160 0.930 . S
H1167 C1163 0.930 . S
C1168 N1169 1.314 1_556 S
C1168 C1170 1.353 . S
C1168 H1174 0.930 . S
N1169 Li1145 1.990 . S
N1169 C1168 1.314 1_554 S
N1169 C1172 1.279 . S
C1170 C1168 1.353 . S
C1170 C1173 1.348 1_556 S
C1170 H1218 0.929 . S
C1171 C1172 1.358 . S
C1171 C1173 1.356 . S
C1171 H1219 0.930 . S
C1172 N1169 1.279 . S
C1172 C1171 1.358 . S
C1172 H1175 0.930 . S
C1173 C1170 1.348 1_554 S
C1173 C1171 1.356 . S
H1174 C1168 0.930 . S
H1175 C1172 0.930 . S
C1176 C1178 1.348 . S
C1176 C1179 1.356 1_556 S
C1176 O1206 1.325 . S
N1177 C1180 1.314 . S
N1177 C1181 1.279 1_556 S
C1178 C1176 1.348 . S
C1178 C1180 1.353 . S
C1178 H1220 0.929 . S
C1179 C1176 1.356 1_554 S
C1179 C1181 1.358 . S
C1179 H1221 0.930 . S
C1180 N1177 1.314 . S
C1180 C1178 1.353 . S
C1180 H1222 0.930 . S
C1181 N1177 1.279 1_554 S
C1181 C1179 1.358 . S
C1181 H1223 0.930 . S
C1182 C1183 1.348 . S
C1182 C1184 1.356 . S
C1182 O1207 1.325 . S
C1183 C1182 1.348 . S
C1183 C1185 1.353 . S
C1183 H1224 0.929 . S
C1184 C1182 1.356 . S
C1184 C1186 1.358 . S
C1184 H1225 0.930 . S
C1185 C1183 1.353 . S
C1185 N1187 1.314 . S
C1185 H1226 0.930 . S
C1186 C1184 1.358 . S
C1186 N1187 1.279 . S
C1186 H1227 0.930 . S
N1187 C1185 1.314 . S
N1187 C1186 1.279 . S
C1188 C1190 1.353 . S
C1188 N1191 1.314 . S
C1188 H1194 0.930 . S
C1189 N1191 1.279 . S
C1189 C1192 1.358 . S
C1189 H1195 0.930 . S
C1190 C1188 1.353 . S
C1190 C1193 1.348 . S
C1190 H1228 0.929 . S
N1191 Li1146 1.990 . S
N1191 C1188 1.314 . S
N1191 C1189 1.279 . S
C1192 C1189 1.358 . S
C1192 C1193 1.356 . S
C1192 H1229 0.930 . S
C1193 C1190 1.348 . S
C1193 C1192 1.356 . S
H1194 C1188 0.930 . S
H1195 C1189 0.930 . S
C1196 N1197 1.314 1_554 S
C1196 C1198 1.353 . S
C1196 H1202 0.930 . S
N1197 Li1147 1.990 . S
N1197 C1196 1.314 1_556 S
N1197 C1200 1.279 . S
C1198 C1196 1.353 . S
C1198 C1201 1.348 1_554 S
C1198 H1230 0.929 . S
C1199 C1200 1.358 . S
C1199 C1201 1.356 . S
C1199 H1231 0.930 . S
C1200 N1197 1.279 . S
C1200 C1199 1.358 . S
C1200 H1203 0.930 . S
C1201 C1198 1.348 1_556 S
C1201 C1199 1.356 . S
H1202 C1196 0.930 . S
H1203 C1200 0.930 . S
O1204 Li1144 1.956 . S
O1204 Li1145 1.970 . S
O1204 Li1146 1.961 1_554 S
O1204 C1148 1.325 . S
O1205 Li1144 1.970 . S
O1205 Li1145 1.956 . S
O1205 Li1147 1.961 1_554 S
O1205 C1154 1.325 . S
O1206 Li1144 1.955 1_556 S
O1206 Li1146 1.963 . S
O1206 Li1147 1.971 . S
O1206 C1176 1.325 . S
O1207 Li1145 1.961 1_556 S
O1207 Li1146 1.970 . S
O1207 Li1147 1.956 . S
O1207 C1182 1.325 . S
H1208 C1150 0.929 . S
H1209 C1151 0.930 1_556 S
H1210 C1152 0.930 . S
H1211 C1153 0.930 . S
H1212 C1155 0.930 . S
H1213 C1157 0.929 . S
H1214 C1158 0.930 . S
H1215 C1159 0.930 . S
H1216 C1162 0.930 . S
H1217 C1165 0.929 . S
H1218 C1170 0.929 . S
H1219 C1171 0.930 . S
H1220 C1178 0.929 . S
H1221 C1179 0.930 . S
H1222 C1180 0.930 . S
H1223 C1181 0.930 . S
H1224 C1183 0.929 . S
H1225 C1184 0.930 . S
H1226 C1185 0.930 . S
H1227 C1186 0.930 . S
H1228 C1190 0.929 . S
H1229 C1192 0.930 . S
H1230 C1198 0.929 . S
H1231 C1199 0.930 . S
Li1232 N1249 1.990 . S
Li1232 O1292 1.956 . S
Li1232 O1293 1.970 . S
Li1232 O1294 1.961 . S
Li1233 N1257 1.990 . S
Li1233 O1292 1.970 . S
Li1233 O1293 1.956 . S
Li1233 O1295 1.961 . S
Li1234 N1279 1.990 . S
Li1234 O1292 1.961 . S
Li1234 O1294 1.956 . S
Li1234 O1295 1.970 . S
Li1235 N1285 1.990 . S
Li1235 O1293 1.961 . S
Li1235 O1294 1.970 . S
Li1235 O1295 1.956 . S
C1236 C1238 1.348 . S
C1236 C1239 1.356 . S
C1236 O1292 1.325 . S
N1237 C1240 1.314 . S
N1237 C1241 1.279 . S
C1238 C1236 1.348 . S
C1238 C1240 1.353 . S
C1238 H1296 0.929 . S
C1239 C1236 1.356 . S
C1239 C1241 1.358 . S
C1239 H1297 0.930 . S
C1240 N1237 1.314 . S
C1240 C1238 1.353 . S
C1240 H1298 0.930 . S
C1241 N1237 1.279 . S
C1241 C1239 1.358 . S
C1241 H1299 0.930 . S
C1242 C1245 1.348 . S
C1242 C1246 1.356 . S
C1242 O1293 1.325 . S
C1243 N1244 1.279 . S
C1243 C1246 1.358 . S
C1243 H1300 0.930 . S
N1244 C1243 1.279 . S
N1244 C1247 1.314 . S
C1245 C1242 1.348 . S
C1245 C1247 1.353 . S
C1245 H1301 0.929 . S
C1246 C1242 1.356 . S
C1246 C1243 1.358 . S
C1246 H1302 0.930 . S
C1247 N1244 1.314 . S
C1247 C1245 1.353 . S
C1247 H1303 0.930 . S
C1248 N1249 1.314 . S
C1248 C1253 1.353 . S
C1248 H1254 0.930 . S
N1249 Li1232 1.990 . S
N1249 C1248 1.314 . S
N1249 C1251 1.279 . S
C1250 C1251 1.358 . S
C1250 C1252 1.356 . S
C1250 H1304 0.930 . S
C1251 N1249 1.279 . S
C1251 C1250 1.358 . S
C1251 H1255 0.930 . S
C1252 C1250 1.356 . S
C1252 C1253 1.348 . S
C1253 C1248 1.353 . S
C1253 C1252 1.348 . S
C1253 H1305 0.929 . S
H1254 C1248 0.930 . S
H1255 C1251 0.930 . S
C1256 N1257 1.314 . S
C1256 C1258 1.353 . S
C1256 H1262 0.930 . S
N1257 Li1233 1.990 . S
N1257 C1256 1.314 . S
N1257 C1260 1.279 . S
C1258 C1256 1.353 . S
C1258 C1261 1.348 . S
C1258 H1306 0.929 . S
C1259 C1260 1.358 . S
C1259 C1261 1.356 . S
C1259 H1307 0.930 . S
C1260 N1257 1.279 . S
C1260 C1259 1.358 . S
C1260 H1263 0.930 . S
C1261 C1258 1.348 . S
C1261 C1259 1.356 . S
H1262 C1256 0.930 . S
H1263 C1260 0.930 . S
C1264 C1266 1.348 . S
C1264 C1267 1.356 . S
C1264 O1294 1.325 . S
N1265 C1268 1.314 . S
N1265 C1269 1.279 . S
C1266 C1264 1.348 . S
C1266 C1268 1.353 . S
C1266 H1308 0.929 . S
C1267 C1264 1.356 . S
C1267 C1269 1.358 . S
C1267 H1309 0.930 . S
C1268 N1265 1.314 . S
C1268 C1266 1.353 . S
C1268 H1310 0.930 . S
C1269 N1265 1.279 . S
C1269 C1267 1.358 . S
C1269 H1311 0.930 . S
C1270 C1271 1.348 . S
C1270 C1272 1.356 . S
C1270 O1295 1.325 . S
C1271 C1270 1.348 . S
C1271 C1273 1.353 . S
C1271 H1312 0.929 . S
C1272 C1270 1.356 . S
C1272 C1274 1.358 . S
C1272 H1313 0.930 . S
C1273 C1271 1.353 . S
C1273 N1275 1.314 . S
C1273 H1314 0.930 . S
C1274 C1272 1.358 . S
C1274 N1275 1.279 . S
C1274 H1315 0.930 . S
N1275 C1273 1.314 . S
N1275 C1274 1.279 . S
C1276 C1278 1.353 . S
C1276 N1279 1.314 . S
C1276 H1282 0.930 . S
C1277 N1279 1.279 . S
C1277 C1280 1.358 . S
C1277 H1283 0.930 . S
C1278 C1276 1.353 . S
C1278 C1281 1.348 . S
C1278 H1316 0.929 . S
N1279 Li1234 1.990 . S
N1279 C1276 1.314 . S
N1279 C1277 1.279 . S
C1280 C1277 1.358 . S
C1280 C1281 1.356 . S
C1280 H1317 0.930 . S
C1281 C1278 1.348 . S
C1281 C1280 1.356 . S
H1282 C1276 0.930 . S
H1283 C1277 0.930 . S
C1284 N1285 1.314 . S
C1284 C1286 1.353 . S
C1284 H1290 0.930 . S
N1285 Li1235 1.990 . S
N1285 C1284 1.314 . S
N1285 C1288 1.279 . S
C1286 C1284 1.353 . S
C1286 C1289 1.348 . S
C1286 H1318 0.929 . S
C1287 C1288 1.358 . S
C1287 C1289 1.356 . S
C1287 H1319 0.930 . S
C1288 N1285 1.279 . S
C1288 C1287 1.358 . S
C1288 H1291 0.930 . S
C1289 C1286 1.348 . S
C1289 C1287 1.356 . S
H1290 C1284 0.930 . S
H1291 C1288 0.930 . S
O1292 Li1232 1.956 . S
O1292 Li1233 1.970 . S
O1292 Li1234 1.961 . S
O1292 C1236 1.325 . S
O1293 Li1232 1.970 . S
O1293 Li1233 1.956 . S
O1293 Li1235 1.961 . S
O1293 C1242 1.325 . S
O1294 Li1232 1.961 . S
O1294 Li1234 1.956 . S
O1294 Li1235 1.970 . S
O1294 C1264 1.325 . S
O1295 Li1233 1.961 . S
O1295 Li1234 1.970 . S
O1295 Li1235 1.956 . S
O1295 C1270 1.325 . S
H1296 C1238 0.929 . S
H1297 C1239 0.930 . S
H1298 C1240 0.930 . S
H1299 C1241 0.930 . S
H1300 C1243 0.930 . S
H1301 C1245 0.929 . S
H1302 C1246 0.930 . S
H1303 C1247 0.930 . S
H1304 C1250 0.930 . S
H1305 C1253 0.929 . S
H1306 C1258 0.929 . S
H1307 C1259 0.930 . S
H1308 C1266 0.929 . S
H1309 C1267 0.930 . S
H1310 C1268 0.930 . S
H1311 C1269 0.930 . S
H1312 C1271 0.929 . S
H1313 C1272 0.930 . S
H1314 C1273 0.930 . S
H1315 C1274 0.930 . S
H1316 C1278 0.929 . S
H1317 C1280 0.930 . S
H1318 C1286 0.929 . S
H1319 C1287 0.930 . S
Li1320 N1337 1.990 . S
Li1320 O1380 1.956 . S
Li1320 O1381 1.970 . S
Li1320 O1382 1.961 . S
Li1321 N1345 1.990 . S
Li1321 O1380 1.970 . S
Li1321 O1381 1.956 . S
Li1321 O1383 1.961 . S
Li1322 N1367 1.990 . S
Li1322 O1380 1.961 . S
Li1322 O1382 1.956 . S
Li1322 O1383 1.970 . S
Li1323 N1373 1.990 . S
Li1323 O1381 1.961 . S
Li1323 O1382 1.970 . S
Li1323 O1383 1.956 . S
C1324 C1326 1.348 . S
C1324 C1327 1.356 . S
C1324 O1380 1.325 . S
N1325 C1328 1.314 . S
N1325 C1329 1.279 . S
C1326 C1324 1.348 . S
C1326 C1328 1.353 . S
C1326 H1384 0.929 . S
C1327 C1324 1.356 . S
C1327 C1329 1.358 . S
C1327 H1385 0.930 . S
C1328 N1325 1.314 . S
C1328 C1326 1.353 . S
C1328 H1386 0.930 . S
C1329 N1325 1.279 . S
C1329 C1327 1.358 . S
C1329 H1387 0.930 . S
C1330 C1333 1.348 . S
C1330 C1334 1.356 . S
C1330 O1381 1.325 . S
C1331 N1332 1.279 . S
C1331 C1334 1.358 . S
C1331 H1388 0.930 . S
N1332 C1331 1.279 . S
N1332 C1335 1.314 . S
C1333 C1330 1.348 . S
C1333 C1335 1.353 . S
C1333 H1389 0.929 . S
C1334 C1330 1.356 . S
C1334 C1331 1.358 . S
C1334 H1390 0.930 . S
C1335 N1332 1.314 . S
C1335 C1333 1.353 . S
C1335 H1391 0.930 . S
C1336 N1337 1.314 . S
C1336 C1341 1.353 . S
C1336 H1342 0.930 . S
N1337 Li1320 1.990 . S
N1337 C1336 1.314 . S
N1337 C1339 1.279 . S
C1338 C1339 1.358 . S
C1338 C1340 1.356 . S
C1338 H1392 0.930 . S
C1339 N1337 1.279 . S
C1339 C1338 1.358 . S
C1339 H1343 0.930 . S
C1340 C1338 1.356 . S
C1340 C1341 1.348 . S
C1341 C1336 1.353 . S
C1341 C1340 1.348 . S
C1341 H1393 0.929 . S
H1342 C1336 0.930 . S
H1343 C1339 0.930 . S
C1344 N1345 1.314 . S
C1344 C1346 1.353 . S
C1344 H1350 0.930 . S
N1345 Li1321 1.990 . S
N1345 C1344 1.314 . S
N1345 C1348 1.279 . S
C1346 C1344 1.353 . S
C1346 C1349 1.348 . S
C1346 H1394 0.929 . S
C1347 C1348 1.358 . S
C1347 C1349 1.356 . S
C1347 H1395 0.930 . S
C1348 N1345 1.279 . S
C1348 C1347 1.358 . S
C1348 H1351 0.930 . S
C1349 C1346 1.348 . S
C1349 C1347 1.356 . S
H1350 C1344 0.930 . S
H1351 C1348 0.930 . S
C1352 C1354 1.348 . S
C1352 C1355 1.356 . S
C1352 O1382 1.325 . S
N1353 C1356 1.314 . S
N1353 C1357 1.279 . S
C1354 C1352 1.348 . S
C1354 C1356 1.353 . S
C1354 H1396 0.929 . S
C1355 C1352 1.356 . S
C1355 C1357 1.358 . S
C1355 H1397 0.930 . S
C1356 N1353 1.314 . S
C1356 C1354 1.353 . S
C1356 H1398 0.930 . S
C1357 N1353 1.279 . S
C1357 C1355 1.358 . S
C1357 H1399 0.930 . S
C1358 C1359 1.348 . S
C1358 C1360 1.356 . S
C1358 O1383 1.325 . S
C1359 C1358 1.348 . S
C1359 C1361 1.353 . S
C1359 H1400 0.929 . S
C1360 C1358 1.356 . S
C1360 C1362 1.358 . S
C1360 H1401 0.930 . S
C1361 C1359 1.353 . S
C1361 N1363 1.314 . S
C1361 H1402 0.930 . S
C1362 C1360 1.358 . S
C1362 N1363 1.279 . S
C1362 H1403 0.930 . S
N1363 C1361 1.314 . S
N1363 C1362 1.279 . S
C1364 C1366 1.353 . S
C1364 N1367 1.314 . S
C1364 H1370 0.930 . S
C1365 N1367 1.279 . S
C1365 C1368 1.358 . S
C1365 H1371 0.930 . S
C1366 C1364 1.353 . S
C1366 C1369 1.348 . S
C1366 H1404 0.929 . S
N1367 Li1322 1.990 . S
N1367 C1364 1.314 . S
N1367 C1365 1.279 . S
C1368 C1365 1.358 . S
C1368 C1369 1.356 . S
C1368 H1405 0.930 . S
C1369 C1366 1.348 . S
C1369 C1368 1.356 . S
H1370 C1364 0.930 . S
H1371 C1365 0.930 . S
C1372 N1373 1.314 . S
C1372 C1374 1.353 . S
C1372 H1378 0.930 . S
N1373 Li1323 1.990 . S
N1373 C1372 1.314 . S
N1373 C1376 1.279 . S
C1374 C1372 1.353 . S
C1374 C1377 1.348 . S
C1374 H1406 0.929 . S
C1375 C1376 1.358 . S
C1375 C1377 1.356 . S
C1375 H1407 0.930 . S
C1376 N1373 1.279 . S
C1376 C1375 1.358 . S
C1376 H1379 0.930 . S
C1377 C1374 1.348 . S
C1377 C1375 1.356 . S
H1378 C1372 0.930 . S
H1379 C1376 0.930 . S
O1380 Li1320 1.956 . S
O1380 Li1321 1.970 . S
O1380 Li1322 1.961 . S
O1380 C1324 1.325 . S
O1381 Li1320 1.970 . S
O1381 Li1321 1.956 . S
O1381 Li1323 1.961 . S
O1381 C1330 1.325 . S
O1382 Li1320 1.961 . S
O1382 Li1322 1.956 . S
O1382 Li1323 1.970 . S
O1382 C1352 1.325 . S
O1383 Li1321 1.961 . S
O1383 Li1322 1.970 . S
O1383 Li1323 1.956 . S
O1383 C1358 1.325 . S
H1384 C1326 0.929 . S
H1385 C1327 0.930 . S
H1386 C1328 0.930 . S
H1387 C1329 0.930 . S
H1388 C1331 0.930 . S
H1389 C1333 0.929 . S
H1390 C1334 0.930 . S
H1391 C1335 0.930 . S
H1392 C1338 0.930 . S
H1393 C1341 0.929 . S
H1394 C1346 0.929 . S
H1395 C1347 0.930 . S
H1396 C1354 0.929 . S
H1397 C1355 0.930 . S
H1398 C1356 0.930 . S
H1399 C1357 0.930 . S
H1400 C1359 0.929 . S
H1401 C1360 0.930 . S
H1402 C1361 0.930 . S
H1403 C1362 0.930 . S
H1404 C1366 0.929 . S
H1405 C1368 0.930 . S
H1406 C1374 0.929 . S
H1407 C1375 0.930 . S
Li1408 N1425 1.990 . S
Li1408 O1468 1.956 1_545 S
Li1408 O1469 1.974 1_545 S
Li1408 O1470 1.961 . S
Li1409 N1433 1.990 . S
Li1409 O1468 1.970 . S
Li1409 O1469 1.976 . S
Li1409 O1471 1.961 . S
Li1410 N1455 1.990 . S
Li1410 O1468 1.961 1_545 S
Li1410 O1470 1.956 . S
Li1410 O1471 1.970 1_545 S
Li1411 N1461 1.990 . S
Li1411 O1469 1.941 1_545 S
Li1411 O1470 1.970 . S
Li1411 O1471 1.956 1_545 S
C1412 C1414 1.348 . S
C1412 C1415 1.356 . S
C1412 O1468 1.325 . S
N1413 C1416 1.314 . S
N1413 C1417 1.279 . S
C1414 C1412 1.348 . S
C1414 C1416 1.353 . S
C1414 H1472 0.929 . S
C1415 C1412 1.356 . S
C1415 C1417 1.358 . S
C1415 H1473 0.930 . S
C1416 N1413 1.314 . S
C1416 C1414 1.353 . S
C1416 H1474 0.930 . S
C1417 N1413 1.279 . S
C1417 C1415 1.358 . S
C1417 H1475 0.930 . S
C1418 C1421 1.348 . S
C1418 C1422 1.356 . S
C1418 O1469 1.325 . S
C1419 N1420 1.279 . S
C1419 C1422 1.358 . S
C1419 H1476 0.930 . S
N1420 C1419 1.279 . S
N1420 C1423 1.314 . S
C1421 C1418 1.348 . S
C1421 C1423 1.353 . S
C1421 H1477 0.929 . S
C1422 C1418 1.356 . S
C1422 C1419 1.358 . S
C1422 H1478 0.928 1_565 S
C1423 N1420 1.314 . S
C1423 C1421 1.353 . S
C1423 H1479 0.930 . S
C1424 N1425 1.314 . S
C1424 C1429 1.353 . S
C1424 H1430 0.930 . S
N1425 Li1408 1.990 . S
N1425 C1424 1.314 . S
N1425 C1427 1.279 1_545 S
C1426 C1427 1.358 . S
C1426 C1428 1.356 1_565 S
C1426 H1480 0.930 . S
C1427 N1425 1.279 1_565 S
C1427 C1426 1.358 . S
C1427 H1431 0.930 . S
C1428 C1426 1.356 1_545 S
C1428 C1429 1.348 . S
C1429 C1424 1.353 . S
C1429 C1428 1.348 . S
C1429 H1481 0.929 . S
H1430 C1424 0.930 . S
H1431 C1427 0.930 . S
C1432 N1433 1.314 . S
C1432 C1434 1.353 . S
C1432 H1438 0.930 . S
N1433 Li1409 1.990 . S
N1433 C1432 1.314 . S
N1433 C1436 1.279 . S
C1434 C1432 1.353 . S
C1434 C1437 1.348 . S
C1434 H1482 0.929 . S
C1435 C1436 1.358 . S
C1435 C1437 1.356 . S
C1435 H1483 0.930 . S
C1436 N1433 1.279 . S
C1436 C1435 1.358 . S
C1436 H1439 0.930 . S
C1437 C1434 1.348 . S
C1437 C1435 1.356 . S
H1438 C1432 0.930 . S
H1439 C1436 0.930 . S
C1440 C1442 1.348 . S
C1440 C1443 1.356 . S
C1440 O1470 1.325 . S
N1441 C1444 1.314 . S
N1441 C1445 1.279 . S
C1442 C1440 1.348 . S
C1442 C1444 1.353 . S
C1442 H1484 0.929 . S
C1443 C1440 1.356 . S
C1443 C1445 1.358 . S
C1443 H1485 0.930 . S
C1444 N1441 1.314 . S
C1444 C1442 1.353 . S
C1444 H1486 0.930 . S
C1445 N1441 1.279 . S
C1445 C1443 1.358 . S
C1445 H1487 0.930 . S
C1446 C1447 1.336 1_565 S
C1446 C1448 1.356 . S
C1446 O1471 1.325 . S
C1447 C1446 1.336 1_545 S
C1447 C1449 1.357 1_545 S
C1447 H1488 0.939 . S
C1448 C1446 1.356 . S
C1448 C1450 1.358 . S
C1448 H1489 0.930 . S
C1449 C1447 1.357 1_565 S
C1449 N1451 1.314 . S
C1449 H1490 0.930 1_565 S
C1450 C1448 1.358 . S
C1450 N1451 1.279 . S
C1450 H1491 0.930 . S
N1451 C1449 1.314 . S
N1451 C1450 1.279 . S
C1452 C1454 1.353 . S
C1452 N1455 1.314 1_565 S
C1452 H1458 0.930 . S
C1453 N1455 1.279 . S
C1453 C1456 1.358 . S
C1453 H1459 0.930 . S
C1454 C1452 1.353 . S
C1454 C1457 1.348 1_565 S
C1454 H1492 0.929 . S
N1455 Li1410 1.990 . S
N1455 C1452 1.314 1_545 S
N1455 C1453 1.279 . S
C1456 C1453 1.358 . S
C1456 C1457 1.356 . S
C1456 H1493 0.930 . S
C1457 C1454 1.348 1_545 S
C1457 C1456 1.356 . S
H1458 C1452 0.930 . S
H1459 C1453 0.930 . S
C1460 N1461 1.314 . S
C1460 C1462 1.353 . S
C1460 H1466 0.930 . S
N1461 Li1411 1.990 . S
N1461 C1460 1.314 . S
N1461 C1464 1.279 . S
C1462 C1460 1.353 . S
C1462 C1465 1.348 . S
C1462 H1494 0.929 . S
C1463 C1464 1.358 . S
C1463 C1465 1.356 . S
C1463 H1495 0.930 . S
C1464 N1461 1.279 . S
C1464 C1463 1.358 . S
C1464 H1467 0.930 . S
C1465 C1462 1.348 . S
C1465 C1463 1.356 . S
H1466 C1460 0.930 . S
H1467 C1464 0.930 . S
O1468 Li1408 1.956 1_565 S
O1468 Li1409 1.970 . S
O1468 Li1410 1.961 1_565 S
O1468 C1412 1.325 . S
O1469 Li1408 1.974 1_565 S
O1469 Li1409 1.976 . S
O1469 Li1411 1.941 1_565 S
O1469 C1418 1.325 . S
O1470 Li1408 1.961 . S
O1470 Li1410 1.956 . S
O1470 Li1411 1.970 . S
O1470 C1440 1.325 . S
O1471 Li1409 1.961 . S
O1471 Li1410 1.970 1_565 S
O1471 Li1411 1.956 1_565 S
O1471 C1446 1.325 . S
H1472 C1414 0.929 . S
H1473 C1415 0.930 . S
H1474 C1416 0.930 . S
H1475 C1417 0.930 . S
H1476 C1419 0.930 . S
H1477 C1421 0.929 . S
H1478 C1422 0.928 1_545 S
H1479 C1423 0.930 . S
H1480 C1426 0.930 . S
H1481 C1429 0.929 . S
H1482 C1434 0.929 . S
H1483 C1435 0.930 . S
H1484 C1442 0.929 . S
H1485 C1443 0.930 . S
H1486 C1444 0.930 . S
H1487 C1445 0.930 . S
H1488 C1447 0.939 . S
H1489 C1448 0.930 . S
H1490 C1449 0.930 1_545 S
H1491 C1450 0.930 . S
H1492 C1454 0.929 . S
H1493 C1456 0.930 . S
H1494 C1462 0.929 . S
H1495 C1463 0.930 . S
Li1496 N1513 1.990 . S
Li1496 O1556 1.956 . S
Li1496 O1557 1.970 . S
Li1496 O1558 1.961 . S
Li1497 N1521 1.990 . S
Li1497 O1556 1.970 . S
Li1497 O1557 1.956 . S
Li1497 O1559 1.961 . S
Li1498 N1543 1.990 . S
Li1498 O1556 1.961 . S
Li1498 O1558 1.956 . S
Li1498 O1559 1.970 . S
Li1499 N1549 1.990 . S
Li1499 O1557 1.961 . S
Li1499 O1558 1.970 . S
Li1499 O1559 1.956 . S
C1500 C1502 1.348 . S
C1500 C1503 1.356 . S
C1500 O1556 1.325 . S
N1501 C1504 1.314 . S
N1501 C1505 1.279 . S
C1502 C1500 1.348 . S
C1502 C1504 1.353 . S
C1502 H1560 0.929 . S
C1503 C1500 1.356 . S
C1503 C1505 1.358 . S
C1503 H1561 0.930 . S
C1504 N1501 1.314 . S
C1504 C1502 1.353 . S
C1504 H1562 0.930 . S
C1505 N1501 1.279 . S
C1505 C1503 1.358 . S
C1505 H1563 0.930 . S
C1506 C1509 1.348 . S
C1506 C1510 1.356 . S
C1506 O1557 1.325 . S
C1507 N1508 1.279 . S
C1507 C1510 1.358 . S
C1507 H1564 0.930 . S
N1508 C1507 1.279 . S
N1508 C1511 1.314 . S
C1509 C1506 1.348 . S
C1509 C1511 1.353 . S
C1509 H1565 0.929 . S
C1510 C1506 1.356 . S
C1510 C1507 1.358 . S
C1510 H1566 0.930 . S
C1511 N1508 1.314 . S
C1511 C1509 1.353 . S
C1511 H1567 0.930 . S
C1512 N1513 1.314 . S
C1512 C1517 1.353 . S
C1512 H1518 0.930 . S
N1513 Li1496 1.990 . S
N1513 C1512 1.314 . S
N1513 C1515 1.279 . S
C1514 C1515 1.358 . S
C1514 C1516 1.356 . S
C1514 H1568 0.930 . S
C1515 N1513 1.279 . S
C1515 C1514 1.358 . S
C1515 H1519 0.930 . S
C1516 C1514 1.356 . S
C1516 C1517 1.348 . S
C1517 C1512 1.353 . S
C1517 C1516 1.348 . S
C1517 H1569 0.929 . S
H1518 C1512 0.930 . S
H1519 C1515 0.930 . S
C1520 N1521 1.314 . S
C1520 C1522 1.353 . S
C1520 H1526 0.930 . S
N1521 Li1497 1.990 . S
N1521 C1520 1.314 . S
N1521 C1524 1.279 . S
C1522 C1520 1.353 . S
C1522 C1525 1.348 . S
C1522 H1570 0.929 . S
C1523 C1524 1.358 . S
C1523 C1525 1.356 . S
C1523 H1571 0.930 . S
C1524 N1521 1.279 . S
C1524 C1523 1.358 . S
C1524 H1527 0.930 . S
C1525 C1522 1.348 . S
C1525 C1523 1.356 . S
H1526 C1520 0.930 . S
H1527 C1524 0.930 . S
C1528 C1530 1.348 . S
C1528 C1531 1.356 . S
C1528 O1558 1.325 . S
N1529 C1532 1.314 . S
N1529 C1533 1.279 . S
C1530 C1528 1.348 . S
C1530 C1532 1.353 . S
C1530 H1572 0.929 . S
C1531 C1528 1.356 . S
C1531 C1533 1.358 . S
C1531 H1573 0.930 . S
C1532 N1529 1.314 . S
C1532 C1530 1.353 . S
C1532 H1574 0.930 . S
C1533 N1529 1.279 . S
C1533 C1531 1.358 . S
C1533 H1575 0.930 . S
C1534 C1535 1.348 . S
C1534 C1536 1.356 . S
C1534 O1559 1.325 . S
C1535 C1534 1.348 . S
C1535 C1537 1.353 . S
C1535 H1576 0.929 . S
C1536 C1534 1.356 . S
C1536 C1538 1.358 . S
C1536 H1577 0.930 . S
C1537 C1535 1.353 . S
C1537 N1539 1.314 . S
C1537 H1578 0.930 . S
C1538 C1536 1.358 . S
C1538 N1539 1.279 . S
C1538 H1579 0.930 . S
N1539 C1537 1.314 . S
N1539 C1538 1.279 . S
C1540 C1542 1.353 . S
C1540 N1543 1.314 . S
C1540 H1546 0.930 . S
C1541 N1543 1.279 . S
C1541 C1544 1.358 . S
C1541 H1547 0.930 . S
C1542 C1540 1.353 . S
C1542 C1545 1.348 . S
C1542 H1580 0.929 . S
N1543 Li1498 1.990 . S
N1543 C1540 1.314 . S
N1543 C1541 1.279 . S
C1544 C1541 1.358 . S
C1544 C1545 1.356 . S
C1544 H1581 0.930 . S
C1545 C1542 1.348 . S
C1545 C1544 1.356 . S
H1546 C1540 0.930 . S
H1547 C1541 0.930 . S
C1548 N1549 1.314 . S
C1548 C1550 1.353 . S
C1548 H1554 0.930 . S
N1549 Li1499 1.990 . S
N1549 C1548 1.314 . S
N1549 C1552 1.279 . S
C1550 C1548 1.353 . S
C1550 C1553 1.348 . S
C1550 H1582 0.929 . S
C1551 C1552 1.358 . S
C1551 C1553 1.356 . S
C1551 H1583 0.930 . S
C1552 N1549 1.279 . S
C1552 C1551 1.358 . S
C1552 H1555 0.930 . S
C1553 C1550 1.348 . S
C1553 C1551 1.356 . S
H1554 C1548 0.930 . S
H1555 C1552 0.930 . S
O1556 Li1496 1.956 . S
O1556 Li1497 1.970 . S
O1556 Li1498 1.961 . S
O1556 C1500 1.325 . S
O1557 Li1496 1.970 . S
O1557 Li1497 1.956 . S
O1557 Li1499 1.961 . S
O1557 C1506 1.325 . S
O1558 Li1496 1.961 . S
O1558 Li1498 1.956 . S
O1558 Li1499 1.970 . S
O1558 C1528 1.325 . S
O1559 Li1497 1.961 . S
O1559 Li1498 1.970 . S
O1559 Li1499 1.956 . S
O1559 C1534 1.325 . S
H1560 C1502 0.929 . S
H1561 C1503 0.930 . S
H1562 C1504 0.930 . S
H1563 C1505 0.930 . S
H1564 C1507 0.930 . S
H1565 C1509 0.929 . S
H1566 C1510 0.930 . S
H1567 C1511 0.930 . S
H1568 C1514 0.930 . S
H1569 C1517 0.929 . S
H1570 C1522 0.929 . S
H1571 C1523 0.930 . S
H1572 C1530 0.929 . S
H1573 C1531 0.930 . S
H1574 C1532 0.930 . S
H1575 C1533 0.930 . S
H1576 C1535 0.929 . S
H1577 C1536 0.930 . S
H1578 C1537 0.930 . S
H1579 C1538 0.930 . S
H1580 C1542 0.929 . S
H1581 C1544 0.930 . S
H1582 C1550 0.929 . S
H1583 C1551 0.930 . S
Li1584 N1601 1.990 . S
Li1584 O1644 1.956 . S
Li1584 O1645 1.970 . S
Li1584 O1646 1.961 . S
Li1585 N1609 1.990 . S
Li1585 O1644 1.970 . S
Li1585 O1645 1.956 . S
Li1585 O1647 1.961 . S
Li1586 N1631 1.990 . S
Li1586 O1644 1.961 . S
Li1586 O1646 1.956 . S
Li1586 O1647 1.970 . S
Li1587 N1637 1.990 . S
Li1587 O1645 1.961 . S
Li1587 O1646 1.970 . S
Li1587 O1647 1.956 . S
C1588 C1590 1.348 . S
C1588 C1591 1.356 . S
C1588 O1644 1.325 . S
N1589 C1592 1.314 . S
N1589 C1593 1.279 . S
C1590 C1588 1.348 . S
C1590 C1592 1.353 . S
C1590 H1648 0.929 . S
C1591 C1588 1.356 . S
C1591 C1593 1.358 . S
C1591 H1649 0.930 . S
C1592 N1589 1.314 . S
C1592 C1590 1.353 . S
C1592 H1650 0.930 . S
C1593 N1589 1.279 . S
C1593 C1591 1.358 . S
C1593 H1651 0.930 . S
C1594 C1597 1.348 . S
C1594 C1598 1.356 . S
C1594 O1645 1.325 . S
C1595 N1596 1.279 . S
C1595 C1598 1.358 . S
C1595 H1652 0.930 . S
N1596 C1595 1.279 . S
N1596 C1599 1.314 . S
C1597 C1594 1.348 . S
C1597 C1599 1.353 . S
C1597 H1653 0.929 . S
C1598 C1594 1.356 . S
C1598 C1595 1.358 . S
C1598 H1654 0.930 . S
C1599 N1596 1.314 . S
C1599 C1597 1.353 . S
C1599 H1655 0.930 . S
C1600 N1601 1.314 . S
C1600 C1605 1.353 . S
C1600 H1606 0.930 . S
N1601 Li1584 1.990 . S
N1601 C1600 1.314 . S
N1601 C1603 1.279 . S
C1602 C1603 1.358 . S
C1602 C1604 1.356 . S
C1602 H1656 0.930 . S
C1603 N1601 1.279 . S
C1603 C1602 1.358 . S
C1603 H1607 0.930 . S
C1604 C1602 1.356 . S
C1604 C1605 1.348 . S
C1605 C1600 1.353 . S
C1605 C1604 1.348 . S
C1605 H1657 0.929 . S
H1606 C1600 0.930 . S
H1607 C1603 0.930 . S
C1608 N1609 1.314 . S
C1608 C1610 1.353 . S
C1608 H1614 0.930 . S
N1609 Li1585 1.990 . S
N1609 C1608 1.314 . S
N1609 C1612 1.279 . S
C1610 C1608 1.353 . S
C1610 C1613 1.348 . S
C1610 H1658 0.929 . S
C1611 C1612 1.358 . S
C1611 C1613 1.356 . S
C1611 H1659 0.930 . S
C1612 N1609 1.279 . S
C1612 C1611 1.358 . S
C1612 H1615 0.930 . S
C1613 C1610 1.348 . S
C1613 C1611 1.356 . S
H1614 C1608 0.930 . S
H1615 C1612 0.930 . S
C1616 C1618 1.348 . S
C1616 C1619 1.356 . S
C1616 O1646 1.325 . S
N1617 C1620 1.314 . S
N1617 C1621 1.279 . S
C1618 C1616 1.348 . S
C1618 C1620 1.353 . S
C1618 H1660 0.929 . S
C1619 C1616 1.356 . S
C1619 C1621 1.358 . S
C1619 H1661 0.930 . S
C1620 N1617 1.314 . S
C1620 C1618 1.353 . S
C1620 H1662 0.930 . S
C1621 N1617 1.279 . S
C1621 C1619 1.358 . S
C1621 H1663 0.930 . S
C1622 C1623 1.348 . S
C1622 C1624 1.356 . S
C1622 O1647 1.325 . S
C1623 C1622 1.348 . S
C1623 C1625 1.353 . S
C1623 H1664 0.929 . S
C1624 C1622 1.356 . S
C1624 C1626 1.358 . S
C1624 H1665 0.930 . S
C1625 C1623 1.353 . S
C1625 N1627 1.314 . S
C1625 H1666 0.930 . S
C1626 C1624 1.358 . S
C1626 N1627 1.279 . S
C1626 H1667 0.930 . S
N1627 C1625 1.314 . S
N1627 C1626 1.279 . S
C1628 C1630 1.353 . S
C1628 N1631 1.314 . S
C1628 H1634 0.930 . S
C1629 N1631 1.279 . S
C1629 C1632 1.358 . S
C1629 H1635 0.930 . S
C1630 C1628 1.353 . S
C1630 C1633 1.348 . S
C1630 H1668 0.929 . S
N1631 Li1586 1.990 . S
N1631 C1628 1.314 . S
N1631 C1629 1.279 . S
C1632 C1629 1.358 . S
C1632 C1633 1.356 . S
C1632 H1669 0.930 . S
C1633 C1630 1.348 . S
C1633 C1632 1.356 . S
H1634 C1628 0.930 . S
H1635 C1629 0.930 . S
C1636 N1637 1.314 . S
C1636 C1638 1.353 . S
C1636 H1642 0.930 . S
N1637 Li1587 1.990 . S
N1637 C1636 1.314 . S
N1637 C1640 1.279 . S
C1638 C1636 1.353 . S
C1638 C1641 1.348 . S
C1638 H1670 0.929 . S
C1639 C1640 1.358 . S
C1639 C1641 1.356 . S
C1639 H1671 0.930 . S
C1640 N1637 1.279 . S
C1640 C1639 1.358 . S
C1640 H1643 0.930 . S
C1641 C1638 1.348 . S
C1641 C1639 1.356 . S
H1642 C1636 0.930 . S
H1643 C1640 0.930 . S
O1644 Li1584 1.956 . S
O1644 Li1585 1.970 . S
O1644 Li1586 1.961 . S
O1644 C1588 1.325 . S
O1645 Li1584 1.970 . S
O1645 Li1585 1.956 . S
O1645 Li1587 1.961 . S
O1645 C1594 1.325 . S
O1646 Li1584 1.961 . S
O1646 Li1586 1.956 . S
O1646 Li1587 1.970 . S
O1646 C1616 1.325 . S
O1647 Li1585 1.961 . S
O1647 Li1586 1.970 . S
O1647 Li1587 1.956 . S
O1647 C1622 1.325 . S
H1648 C1590 0.929 . S
H1649 C1591 0.930 . S
H1650 C1592 0.930 . S
H1651 C1593 0.930 . S
H1652 C1595 0.930 . S
H1653 C1597 0.929 . S
H1654 C1598 0.930 . S
H1655 C1599 0.930 . S
H1656 C1602 0.930 . S
H1657 C1605 0.929 . S
H1658 C1610 0.929 . S
H1659 C1611 0.930 . S
H1660 C1618 0.929 . S
H1661 C1619 0.930 . S
H1662 C1620 0.930 . S
H1663 C1621 0.930 . S
H1664 C1623 0.929 . S
H1665 C1624 0.930 . S
H1666 C1625 0.930 . S
H1667 C1626 0.930 . S
H1668 C1630 0.929 . S
H1669 C1632 0.930 . S
H1670 C1638 0.929 . S
H1671 C1639 0.930 . S
Li1672 N1689 1.990 . S
Li1672 O1732 1.956 . S
Li1672 O1733 1.970 . S
Li1672 O1734 1.961 1_545 S
Li1673 N1697 1.990 . S
Li1673 O1732 1.970 . S
Li1673 O1733 1.956 . S
Li1673 O1735 1.961 . S
Li1674 N1719 1.989 . S
Li1674 O1732 1.939 1_565 S
Li1674 O1734 1.978 . S
Li1674 O1735 1.972 1_565 S
Li1675 N1725 1.990 . S
Li1675 O1733 1.961 1_565 S
Li1675 O1734 1.970 . S
Li1675 O1735 1.956 1_565 S
C1676 C1678 1.348 . S
C1676 C1679 1.356 . S
C1676 O1732 1.325 . S
N1677 C1680 1.314 . S
N1677 C1681 1.279 . S
C1678 C1676 1.348 . S
C1678 C1680 1.353 . S
C1678 H1736 0.929 . S
C1679 C1676 1.356 . S
C1679 C1681 1.358 . S
C1679 H1737 0.930 . S
C1680 N1677 1.314 . S
C1680 C1678 1.353 . S
C1680 H1738 0.930 . S
C1681 N1677 1.279 . S
C1681 C1679 1.358 . S
C1681 H1739 0.930 . S
C1682 C1685 1.348 . S
C1682 C1686 1.356 . S
C1682 O1733 1.325 . S
C1683 N1684 1.279 . S
C1683 C1686 1.358 . S
C1683 H1740 0.930 . S
N1684 C1683 1.279 . S
N1684 C1687 1.314 . S
C1685 C1682 1.348 . S
C1685 C1687 1.353 . S
C1685 H1741 0.929 . S
C1686 C1682 1.356 . S
C1686 C1683 1.358 . S
C1686 H1742 0.930 . S
C1687 N1684 1.314 . S
C1687 C1685 1.353 . S
C1687 H1743 0.930 . S
C1688 N1689 1.314 1_565 S
C1688 C1693 1.353 . S
C1688 H1694 0.930 . S
N1689 Li1672 1.990 . S
N1689 C1688 1.314 1_545 S
N1689 C1691 1.279 . S
C1690 C1691 1.358 . S
C1690 C1692 1.356 1_545 S
C1690 H1744 0.930 . S
C1691 N1689 1.279 . S
C1691 C1690 1.358 . S
C1691 H1695 0.930 . S
C1692 C1690 1.356 1_565 S
C1692 C1693 1.348 . S
C1693 C1688 1.353 . S
C1693 C1692 1.348 . S
C1693 H1745 0.929 . S
H1694 C1688 0.930 . S
H1695 C1691 0.930 . S
C1696 N1697 1.314 . S
C1696 C1698 1.353 . S
C1696 H1702 0.930 . S
N1697 Li1673 1.990 . S
N1697 C1696 1.314 . S
N1697 C1700 1.279 . S
C1698 C1696 1.353 . S
C1698 C1701 1.348 . S
C1698 H1746 0.929 . S
C1699 C1700 1.358 . S
C1699 C1701 1.356 . S
C1699 H1747 0.930 . S
C1700 N1697 1.279 . S
C1700 C1699 1.358 . S
C1700 H1703 0.930 . S
C1701 C1698 1.348 . S
C1701 C1699 1.356 . S
H1702 C1696 0.930 . S
H1703 C1700 0.930 . S
C1704 C1706 1.348 . S
C1704 C1707 1.356 . S
C1704 O1734 1.325 . S
N1705 C1708 1.314 . S
N1705 C1709 1.279 . S
C1706 C1704 1.348 . S
C1706 C1708 1.353 . S
C1706 H1748 0.929 . S
C1707 C1704 1.356 . S
C1707 C1709 1.358 . S
C1707 H1749 0.930 . S
C1708 N1705 1.314 . S
C1708 C1706 1.353 . S
C1708 H1750 0.930 . S
C1709 N1705 1.279 . S
C1709 C1707 1.358 . S
C1709 H1751 0.930 . S
C1710 C1711 1.348 1_545 S
C1710 C1712 1.356 . S
C1710 O1735 1.325 . S
C1711 C1710 1.348 1_565 S
C1711 C1713 1.353 . S
C1711 H1752 0.929 . S
C1712 C1710 1.356 . S
C1712 C1714 1.358 . S
C1712 H1753 0.930 . S
C1713 C1711 1.353 . S
C1713 N1715 1.314 1_565 S
C1713 H1754 0.930 . S
C1714 C1712 1.358 . S
C1714 N1715 1.279 . S
C1714 H1755 0.930 . S
N1715 C1713 1.314 1_545 S
N1715 C1714 1.279 . S
C1716 C1718 1.353 . S
C1716 N1719 1.314 1_545 S
C1716 H1722 0.930 . S
C1717 N1719 1.279 . S
C1717 C1720 1.358 . S
C1717 H1723 0.930 . S
C1718 C1716 1.353 . S
C1718 C1721 1.348 1_545 S
C1718 H1756 0.929 . S
N1719 Li1674 1.989 . S
N1719 C1716 1.314 1_565 S
N1719 C1717 1.279 . S
C1720 C1717 1.358 . S
C1720 C1721 1.356 . S
C1720 H1757 0.930 . S
C1721 C1718 1.348 1_565 S
C1721 C1720 1.356 . S
H1722 C1716 0.930 . S
H1723 C1717 0.930 . S
C1724 N1725 1.314 . S
C1724 C1726 1.353 . S
C1724 H1730 0.930 . S
N1725 Li1675 1.990 . S
N1725 C1724 1.314 . S
N1725 C1728 1.279 . S
C1726 C1724 1.353 . S
C1726 C1729 1.348 . S
C1726 H1758 0.929 . S
C1727 C1728 1.358 . S
C1727 C1729 1.356 . S
C1727 H1759 0.930 . S
C1728 N1725 1.279 . S
C1728 C1727 1.358 . S
C1728 H1731 0.930 . S
C1729 C1726 1.348 . S
C1729 C1727 1.356 . S
H1730 C1724 0.930 . S
H1731 C1728 0.930 . S
O1732 Li1672 1.956 . S
O1732 Li1673 1.970 . S
O1732 Li1674 1.939 1_545 S
O1732 C1676 1.325 . S
O1733 Li1672 1.970 . S
O1733 Li1673 1.956 . S
O1733 Li1675 1.961 1_545 S
O1733 C1682 1.325 . S
O1734 Li1672 1.961 1_565 S
O1734 Li1674 1.978 . S
O1734 Li1675 1.970 . S
O1734 C1704 1.325 . S
O1735 Li1673 1.961 . S
O1735 Li1674 1.972 1_545 S
O1735 Li1675 1.956 1_545 S
O1735 C1710 1.325 . S
H1736 C1678 0.929 . S
H1737 C1679 0.930 . S
H1738 C1680 0.930 . S
H1739 C1681 0.930 . S
H1740 C1683 0.930 . S
H1741 C1685 0.929 . S
H1742 C1686 0.930 . S
H1743 C1687 0.930 . S
H1744 C1690 0.930 . S
H1745 C1693 0.929 . S
H1746 C1698 0.929 . S
H1747 C1699 0.930 . S
H1748 C1706 0.929 . S
H1749 C1707 0.930 . S
H1750 C1708 0.930 . S
H1751 C1709 0.930 . S
H1752 C1711 0.929 . S
H1753 C1712 0.930 . S
H1754 C1713 0.930 . S
H1755 C1714 0.930 . S
H1756 C1718 0.929 . S
H1757 C1720 0.930 . S
H1758 C1726 0.929 . S
H1759 C1727 0.930 . S
Li1760 N1777 1.990 . S
Li1760 O1820 1.956 . S
Li1760 O1821 1.970 . S
Li1760 O1822 1.961 . S
Li1761 N1785 1.990 . S
Li1761 O1820 1.970 . S
Li1761 O1821 1.956 . S
Li1761 O1823 1.961 1_554 S
Li1762 N1807 1.990 . S
Li1762 O1820 1.961 1_556 S
Li1762 O1822 1.956 1_556 S
Li1762 O1823 1.970 . S
Li1763 N1813 1.990 . S
Li1763 O1821 1.961 . S
Li1763 O1822 1.970 . S
Li1763 O1823 1.956 1_554 S
C1764 C1766 1.348 . S
C1764 C1767 1.356 . S
C1764 O1820 1.325 . S
N1765 C1768 1.314 . S
N1765 C1769 1.279 . S
C1766 C1764 1.348 . S
C1766 C1768 1.353 . S
C1766 H1824 0.929 . S
C1767 C1764 1.356 . S
C1767 C1769 1.358 . S
C1767 H1825 0.930 . S
C1768 N1765 1.314 . S
C1768 C1766 1.353 . S
C1768 H1826 0.930 . S
C1769 N1765 1.279 . S
C1769 C1767 1.358 . S
C1769 H1827 0.930 . S
C1770 C1773 1.348 . S
C1770 C1774 1.356 . S
C1770 O1821 1.325 . S
C1771 N1772 1.279 . S
C1771 C1774 1.358 . S
C1771 H1828 0.930 . S
N1772 C1771 1.279 . S
N1772 C1775 1.314 . S
C1773 C1770 1.348 . S
C1773 C1775 1.353 . S
C1773 H1829 0.929 . S
C1774 C1770 1.356 . S
C1774 C1771 1.358 . S
C1774 H1830 0.930 . S
C1775 N1772 1.314 . S
C1775 C1773 1.353 . S
C1775 H1831 0.930 . S
C1776 N1777 1.314 . S
C1776 C1781 1.353 . S
C1776 H1782 0.930 . S
N1777 Li1760 1.990 . S
N1777 C1776 1.314 . S
N1777 C1779 1.279 . S
C1778 C1779 1.358 . S
C1778 C1780 1.356 . S
C1778 H1832 0.930 . S
C1779 N1777 1.279 . S
C1779 C1778 1.358 . S
C1779 H1783 0.930 . S
C1780 C1778 1.356 . S
C1780 C1781 1.348 . S
C1781 C1776 1.353 . S
C1781 C1780 1.348 . S
C1781 H1833 0.929 . S
H1782 C1776 0.930 . S
H1783 C1779 0.930 . S
C1784 N1785 1.314 . S
C1784 C1786 1.353 . S
C1784 H1790 0.930 1_554 S
N1785 Li1761 1.990 . S
N1785 C1784 1.314 . S
N1785 C1788 1.279 . S
C1786 C1784 1.353 . S
C1786 C1789 1.348 . S
C1786 H1834 0.929 1_554 S
C1787 C1788 1.358 . S
C1787 C1789 1.356 . S
C1787 H1835 0.930 . S
C1788 N1785 1.279 . S
C1788 C1787 1.358 . S
C1788 H1791 0.930 . S
C1789 C1786 1.348 . S
C1789 C1787 1.356 . S
H1790 C1784 0.930 1_556 S
H1791 C1788 0.930 . S
C1792 C1794 1.348 . S
C1792 C1795 1.356 . S
C1792 O1822 1.325 . S
N1793 C1796 1.314 . S
N1793 C1797 1.279 . S
C1794 C1792 1.348 . S
C1794 C1796 1.353 . S
C1794 H1836 0.929 . S
C1795 C1792 1.356 . S
C1795 C1797 1.358 . S
C1795 H1837 0.930 . S
C1796 N1793 1.314 . S
C1796 C1794 1.353 . S
C1796 H1838 0.930 . S
C1797 N1793 1.279 . S
C1797 C1795 1.358 . S
C1797 H1839 0.930 . S
C1798 C1799 1.348 . S
C1798 C1800 1.356 . S
C1798 O1823 1.325 . S
C1799 C1798 1.348 . S
C1799 C1801 1.353 . S
C1799 H1840 0.929 . S
C1800 C1798 1.356 . S
C1800 C1802 1.358 . S
C1800 H1841 0.930 . S
C1801 C1799 1.353 . S
C1801 N1803 1.314 . S
C1801 H1842 0.930 . S
C1802 C1800 1.358 . S
C1802 N1803 1.279 . S
C1802 H1843 0.930 . S
N1803 C1801 1.314 . S
N1803 C1802 1.279 . S
C1804 C1806 1.353 . S
C1804 N1807 1.314 . S
C1804 H1810 0.930 . S
C1805 N1807 1.279 . S
C1805 C1808 1.358 . S
C1805 H1811 0.930 . S
C1806 C1804 1.353 . S
C1806 C1809 1.348 . S
C1806 H1844 0.929 . S
N1807 Li1762 1.990 . S
N1807 C1804 1.314 . S
N1807 C1805 1.279 . S
C1808 C1805 1.358 . S
C1808 C1809 1.356 . S
C1808 H1845 0.930 . S
C1809 C1806 1.348 . S
C1809 C1808 1.356 . S
H1810 C1804 0.930 . S
H1811 C1805 0.930 . S
C1812 N1813 1.314 . S
C1812 C1814 1.353 . S
C1812 H1818 0.930 . S
N1813 Li1763 1.990 . S
N1813 C1812 1.314 . S
N1813 C1816 1.279 1_554 S
C1814 C1812 1.353 . S
C1814 C1817 1.348 . S
C1814 H1846 0.929 . S
C1815 C1816 1.358 . S
C1815 C1817 1.356 1_556 S
C1815 H1847 0.930 . S
C1816 N1813 1.279 1_556 S
C1816 C1815 1.358 . S
C1816 H1819 0.930 . S
C1817 C1814 1.348 . S
C1817 C1815 1.356 1_554 S
H1818 C1812 0.930 . S
H1819 C1816 0.930 . S
O1820 Li1760 1.956 . S
O1820 Li1761 1.970 . S
O1820 Li1762 1.961 1_554 S
O1820 C1764 1.325 . S
O1821 Li1760 1.970 . S
O1821 Li1761 1.956 . S
O1821 Li1763 1.961 . S
O1821 C1770 1.325 . S
O1822 Li1760 1.961 . S
O1822 Li1762 1.956 1_554 S
O1822 Li1763 1.970 . S
O1822 C1792 1.325 . S
O1823 Li1761 1.961 1_556 S
O1823 Li1762 1.970 . S
O1823 Li1763 1.956 1_556 S
O1823 C1798 1.325 . S
H1824 C1766 0.929 . S
H1825 C1767 0.930 . S
H1826 C1768 0.930 . S
H1827 C1769 0.930 . S
H1828 C1771 0.930 . S
H1829 C1773 0.929 . S
H1830 C1774 0.930 . S
H1831 C1775 0.930 . S
H1832 C1778 0.930 . S
H1833 C1781 0.929 . S
H1834 C1786 0.929 1_556 S
H1835 C1787 0.930 . S
H1836 C1794 0.929 . S
H1837 C1795 0.930 . S
H1838 C1796 0.930 . S
H1839 C1797 0.930 . S
H1840 C1799 0.929 . S
H1841 C1800 0.930 . S
H1842 C1801 0.930 . S
H1843 C1802 0.930 . S
H1844 C1806 0.929 . S
H1845 C1808 0.930 . S
H1846 C1814 0.929 . S
H1847 C1815 0.930 . S
Li1848 N1865 1.990 . S
Li1848 O1908 1.956 . S
Li1848 O1909 1.970 1_655 S
Li1848 O1910 1.961 . S
Li1849 N1873 1.990 . S
Li1849 O1908 1.970 1_455 S
Li1849 O1909 1.956 . S
Li1849 O1911 1.961 . S
Li1850 N1895 1.990 . S
Li1850 O1908 1.961 . S
Li1850 O1910 1.956 . S
Li1850 O1911 1.970 1_655 S
Li1851 N1901 1.990 . S
Li1851 O1909 1.961 . S
Li1851 O1910 1.970 1_455 S
Li1851 O1911 1.956 . S
C1852 C1854 1.348 . S
C1852 C1855 1.356 . S
C1852 O1908 1.325 . S
N1853 C1856 1.314 . S
N1853 C1857 1.279 . S
C1854 C1852 1.348 . S
C1854 C1856 1.353 . S
C1854 H1912 0.929 . S
C1855 C1852 1.356 . S
C1855 C1857 1.358 . S
C1855 H1913 0.930 . S
C1856 N1853 1.314 . S
C1856 C1854 1.353 . S
C1856 H1914 0.930 . S
C1857 N1853 1.279 . S
C1857 C1855 1.358 . S
C1857 H1915 0.930 . S
C1858 C1861 1.348 . S
C1858 C1862 1.356 . S
C1858 O1909 1.325 . S
C1859 N1860 1.279 . S
C1859 C1862 1.358 . S
C1859 H1916 0.930 . S
N1860 C1859 1.279 . S
N1860 C1863 1.314 . S
C1861 C1858 1.348 . S
C1861 C1863 1.353 . S
C1861 H1917 0.929 . S
C1862 C1858 1.356 . S
C1862 C1859 1.358 . S
C1862 H1918 0.930 . S
C1863 N1860 1.314 . S
C1863 C1861 1.353 . S
C1863 H1919 0.930 . S
C1864 N1865 1.314 . S
C1864 C1869 1.353 . S
C1864 H1870 0.930 . S
N1865 Li1848 1.990 . S
N1865 C1864 1.314 . S
N1865 C1867 1.279 . S
C1866 C1867 1.358 . S
C1866 C1868 1.356 . S
C1866 H1920 0.930 . S
C1867 N1865 1.279 . S
C1867 C1866 1.358 . S
C1867 H1871 0.930 . S
C1868 C1866 1.356 . S
C1868 C1869 1.348 . S
C1869 C1864 1.353 . S
C1869 C1868 1.348 . S
C1869 H1921 0.929 . S
H1870 C1864 0.930 . S
H1871 C1867 0.930 . S
C1872 N1873 1.314 . S
C1872 C1874 1.353 . S
C1872 H1878 0.930 . S
N1873 Li1849 1.990 . S
N1873 C1872 1.314 . S
N1873 C1876 1.279 . S
C1874 C1872 1.353 . S
C1874 C1877 1.348 . S
C1874 H1922 0.929 . S
C1875 C1876 1.358 . S
C1875 C1877 1.356 . S
C1875 H1923 0.930 . S
C1876 N1873 1.279 . S
C1876 C1875 1.358 . S
C1876 H1879 0.930 . S
C1877 C1874 1.348 . S
C1877 C1875 1.356 . S
H1878 C1872 0.930 . S
H1879 C1876 0.930 . S
C1880 C1882 1.348 . S
C1880 C1883 1.356 . S
C1880 O1910 1.325 . S
N1881 C1884 1.314 . S
N1881 C1885 1.279 . S
C1882 C1880 1.348 . S
C1882 C1884 1.353 . S
C1882 H1924 0.929 . S
C1883 C1880 1.356 . S
C1883 C1885 1.358 . S
C1883 H1925 0.930 . S
C1884 N1881 1.314 . S
C1884 C1882 1.353 . S
C1884 H1926 0.930 . S
C1885 N1881 1.279 . S
C1885 C1883 1.358 . S
C1885 H1927 0.930 . S
C1886 C1887 1.348 . S
C1886 C1888 1.356 . S
C1886 O1911 1.325 . S
C1887 C1886 1.348 . S
C1887 C1889 1.353 . S
C1887 H1928 0.929 . S
C1888 C1886 1.356 . S
C1888 C1890 1.358 . S
C1888 H1929 0.930 . S
C1889 C1887 1.353 . S
C1889 N1891 1.314 . S
C1889 H1930 0.930 . S
C1890 C1888 1.358 . S
C1890 N1891 1.279 . S
C1890 H1931 0.930 . S
N1891 C1889 1.314 . S
N1891 C1890 1.279 . S
C1892 C1894 1.353 . S
C1892 N1895 1.314 . S
C1892 H1898 0.930 . S
C1893 N1895 1.279 . S
C1893 C1896 1.358 . S
C1893 H1899 0.930 . S
C1894 C1892 1.353 . S
C1894 C1897 1.348 . S
C1894 H1932 0.929 . S
N1895 Li1850 1.990 . S
N1895 C1892 1.314 . S
N1895 C1893 1.279 . S
C1896 C1893 1.358 . S
C1896 C1897 1.356 . S
C1896 H1933 0.930 . S
C1897 C1894 1.348 . S
C1897 C1896 1.356 . S
H1898 C1892 0.930 . S
H1899 C1893 0.930 . S
C1900 N1901 1.314 . S
C1900 C1902 1.353 . S
C1900 H1906 0.930 . S
N1901 Li1851 1.990 . S
N1901 C1900 1.314 . S
N1901 C1904 1.279 . S
C1902 C1900 1.353 . S
C1902 C1905 1.348 . S
C1902 H1934 0.929 . S
C1903 C1904 1.358 . S
C1903 C1905 1.356 . S
C1903 H1935 0.930 . S
C1904 N1901 1.279 . S
C1904 C1903 1.358 . S
C1904 H1907 0.930 . S
C1905 C1902 1.348 . S
C1905 C1903 1.356 . S
H1906 C1900 0.930 . S
H1907 C1904 0.930 . S
O1908 Li1848 1.956 . S
O1908 Li1849 1.970 1_655 S
O1908 Li1850 1.961 . S
O1908 C1852 1.325 . S
O1909 Li1848 1.970 1_455 S
O1909 Li1849 1.956 . S
O1909 Li1851 1.961 . S
O1909 C1858 1.325 . S
O1910 Li1848 1.961 . S
O1910 Li1850 1.956 . S
O1910 Li1851 1.970 1_655 S
O1910 C1880 1.325 . S
O1911 Li1849 1.961 . S
O1911 Li1850 1.970 1_455 S
O1911 Li1851 1.956 . S
O1911 C1886 1.325 . S
H1912 C1854 0.929 . S
H1913 C1855 0.930 . S
H1914 C1856 0.930 . S
H1915 C1857 0.930 . S
H1916 C1859 0.930 . S
H1917 C1861 0.929 . S
H1918 C1862 0.930 . S
H1919 C1863 0.930 . S
H1920 C1866 0.930 . S
H1921 C1869 0.929 . S
H1922 C1874 0.929 . S
H1923 C1875 0.930 . S
H1924 C1882 0.929 . S
H1925 C1883 0.930 . S
H1926 C1884 0.930 . S
H1927 C1885 0.930 . S
H1928 C1887 0.929 . S
H1929 C1888 0.930 . S
H1930 C1889 0.930 . S
H1931 C1890 0.930 . S
H1932 C1894 0.929 . S
H1933 C1896 0.930 . S
H1934 C1902 0.929 . S
H1935 C1903 0.930 . S
Li1936 N1953 1.990 . S
Li1936 O1996 1.956 . S
Li1936 O1997 1.970 . S
Li1936 O1998 1.961 . S
Li1937 N1961 1.990 . S
Li1937 O1996 1.970 . S
Li1937 O1997 1.956 . S
Li1937 O1999 1.961 . S
Li1938 N1983 1.990 . S
Li1938 O1996 1.961 . S
Li1938 O1998 1.956 . S
Li1938 O1999 1.970 . S
Li1939 N1989 1.990 . S
Li1939 O1997 1.961 . S
Li1939 O1998 1.970 . S
Li1939 O1999 1.956 . S
C1940 C1942 1.348 . S
C1940 C1943 1.356 . S
C1940 O1996 1.325 . S
N1941 C1944 1.314 . S
N1941 C1945 1.279 . S
C1942 C1940 1.348 . S
C1942 C1944 1.353 . S
C1942 H2000 0.929 . S
C1943 C1940 1.356 . S
C1943 C1945 1.358 . S
C1943 H2001 0.930 . S
C1944 N1941 1.314 . S
C1944 C1942 1.353 . S
C1944 H2002 0.930 . S
C1945 N1941 1.279 . S
C1945 C1943 1.358 . S
C1945 H2003 0.930 . S
C1946 C1949 1.348 . S
C1946 C1950 1.356 . S
C1946 O1997 1.325 . S
C1947 N1948 1.279 . S
C1947 C1950 1.358 . S
C1947 H2004 0.930 . S
N1948 C1947 1.279 . S
N1948 C1951 1.314 . S
C1949 C1946 1.348 . S
C1949 C1951 1.353 . S
C1949 H2005 0.929 . S
C1950 C1946 1.356 . S
C1950 C1947 1.358 . S
C1950 H2006 0.930 . S
C1951 N1948 1.314 . S
C1951 C1949 1.353 . S
C1951 H2007 0.930 . S
C1952 N1953 1.314 . S
C1952 C1957 1.353 . S
C1952 H1958 0.930 . S
N1953 Li1936 1.990 . S
N1953 C1952 1.314 . S
N1953 C1955 1.279 . S
C1954 C1955 1.358 . S
C1954 C1956 1.356 . S
C1954 H2008 0.930 . S
C1955 N1953 1.279 . S
C1955 C1954 1.358 . S
C1955 H1959 0.930 . S
C1956 C1954 1.356 . S
C1956 C1957 1.348 . S
C1957 C1952 1.353 . S
C1957 C1956 1.348 . S
C1957 H2009 0.929 . S
H1958 C1952 0.930 . S
H1959 C1955 0.930 . S
C1960 N1961 1.314 . S
C1960 C1962 1.353 . S
C1960 H1966 0.930 . S
N1961 Li1937 1.990 . S
N1961 C1960 1.314 . S
N1961 C1964 1.279 . S
C1962 C1960 1.353 . S
C1962 C1965 1.348 . S
C1962 H2010 0.929 . S
C1963 C1964 1.358 . S
C1963 C1965 1.356 . S
C1963 H2011 0.930 . S
C1964 N1961 1.279 . S
C1964 C1963 1.358 . S
C1964 H1967 0.930 . S
C1965 C1962 1.348 . S
C1965 C1963 1.356 . S
H1966 C1960 0.930 . S
H1967 C1964 0.930 . S
C1968 C1970 1.348 . S
C1968 C1971 1.356 . S
C1968 O1998 1.325 . S
N1969 C1972 1.314 . S
N1969 C1973 1.279 . S
C1970 C1968 1.348 . S
C1970 C1972 1.353 . S
C1970 H2012 0.929 . S
C1971 C1968 1.356 . S
C1971 C1973 1.358 . S
C1971 H2013 0.930 . S
C1972 N1969 1.314 . S
C1972 C1970 1.353 . S
C1972 H2014 0.930 . S
C1973 N1969 1.279 . S
C1973 C1971 1.358 . S
C1973 H2015 0.930 . S
C1974 C1975 1.348 . S
C1974 C1976 1.356 . S
C1974 O1999 1.325 . S
C1975 C1974 1.348 . S
C1975 C1977 1.353 . S
C1975 H2016 0.929 . S
C1976 C1974 1.356 . S
C1976 C1978 1.358 . S
C1976 H2017 0.930 . S
C1977 C1975 1.353 . S
C1977 N1979 1.314 . S
C1977 H2018 0.930 . S
C1978 C1976 1.358 . S
C1978 N1979 1.279 . S
C1978 H2019 0.930 . S
N1979 C1977 1.314 . S
N1979 C1978 1.279 . S
C1980 C1982 1.353 . S
C1980 N1983 1.314 . S
C1980 H1986 0.930 . S
C1981 N1983 1.279 . S
C1981 C1984 1.358 . S
C1981 H1987 0.930 . S
C1982 C1980 1.353 . S
C1982 C1985 1.348 . S
C1982 H2020 0.929 . S
N1983 Li1938 1.990 . S
N1983 C1980 1.314 . S
N1983 C1981 1.279 . S
C1984 C1981 1.358 . S
C1984 C1985 1.356 . S
C1984 H2021 0.930 . S
C1985 C1982 1.348 . S
C1985 C1984 1.356 . S
H1986 C1980 0.930 . S
H1987 C1981 0.930 . S
C1988 N1989 1.314 . S
C1988 C1990 1.353 . S
C1988 H1994 0.930 . S
N1989 Li1939 1.990 . S
N1989 C1988 1.314 . S
N1989 C1992 1.279 . S
C1990 C1988 1.353 . S
C1990 C1993 1.348 . S
C1990 H2022 0.929 . S
C1991 C1992 1.358 . S
C1991 C1993 1.356 . S
C1991 H2023 0.930 . S
C1992 N1989 1.279 . S
C1992 C1991 1.358 . S
C1992 H1995 0.930 . S
C1993 C1990 1.348 . S
C1993 C1991 1.356 . S
H1994 C1988 0.930 . S
H1995 C1992 0.930 . S
O1996 Li1936 1.956 . S
O1996 Li1937 1.970 . S
O1996 Li1938 1.961 . S
O1996 C1940 1.325 . S
O1997 Li1936 1.970 . S
O1997 Li1937 1.956 . S
O1997 Li1939 1.961 . S
O1997 C1946 1.325 . S
O1998 Li1936 1.961 . S
O1998 Li1938 1.956 . S
O1998 Li1939 1.970 . S
O1998 C1968 1.325 . S
O1999 Li1937 1.961 . S
O1999 Li1938 1.970 . S
O1999 Li1939 1.956 . S
O1999 C1974 1.325 . S
H2000 C1942 0.929 . S
H2001 C1943 0.930 . S
H2002 C1944 0.930 . S
H2003 C1945 0.930 . S
H2004 C1947 0.930 . S
H2005 C1949 0.929 . S
H2006 C1950 0.930 . S
H2007 C1951 0.930 . S
H2008 C1954 0.930 . S
H2009 C1957 0.929 . S
H2010 C1962 0.929 . S
H2011 C1963 0.930 . S
H2012 C1970 0.929 . S
H2013 C1971 0.930 . S
H2014 C1972 0.930 . S
H2015 C1973 0.930 . S
H2016 C1975 0.929 . S
H2017 C1976 0.930 . S
H2018 C1977 0.930 . S
H2019 C1978 0.930 . S
H2020 C1982 0.929 . S
H2021 C1984 0.930 . S
H2022 C1990 0.929 . S
H2023 C1991 0.930 . S
Li2024 N2041 1.990 . S
Li2024 O2084 1.956 . S
Li2024 O2085 1.970 . S
Li2024 O2086 1.961 . S
Li2025 N2049 1.990 . S
Li2025 O2084 1.970 . S
Li2025 O2085 1.956 . S
Li2025 O2087 1.961 . S
Li2026 N2071 1.990 . S
Li2026 O2084 1.961 . S
Li2026 O2086 1.956 . S
Li2026 O2087 1.970 . S
Li2027 N2077 1.990 . S
Li2027 O2085 1.961 . S
Li2027 O2086 1.970 . S
Li2027 O2087 1.956 . S
C2028 C2030 1.348 . S
C2028 C2031 1.356 . S
C2028 O2084 1.325 . S
N2029 C2032 1.314 . S
N2029 C2033 1.279 . S
C2030 C2028 1.348 . S
C2030 C2032 1.353 . S
C2030 H2088 0.929 . S
C2031 C2028 1.356 . S
C2031 C2033 1.358 . S
C2031 H2089 0.930 . S
C2032 N2029 1.314 . S
C2032 C2030 1.353 . S
C2032 H2090 0.930 . S
C2033 N2029 1.279 . S
C2033 C2031 1.358 . S
C2033 H2091 0.930 . S
C2034 C2037 1.348 . S
C2034 C2038 1.356 . S
C2034 O2085 1.325 . S
C2035 N2036 1.279 . S
C2035 C2038 1.358 . S
C2035 H2092 0.930 . S
N2036 C2035 1.279 . S
N2036 C2039 1.314 . S
C2037 C2034 1.348 . S
C2037 C2039 1.353 . S
C2037 H2093 0.929 . S
C2038 C2034 1.356 . S
C2038 C2035 1.358 . S
C2038 H2094 0.930 . S
C2039 N2036 1.314 . S
C2039 C2037 1.353 . S
C2039 H2095 0.930 . S
C2040 N2041 1.314 . S
C2040 C2045 1.353 . S
C2040 H2046 0.930 . S
N2041 Li2024 1.990 . S
N2041 C2040 1.314 . S
N2041 C2043 1.279 . S
C2042 C2043 1.358 . S
C2042 C2044 1.356 . S
C2042 H2096 0.930 . S
C2043 N2041 1.279 . S
C2043 C2042 1.358 . S
C2043 H2047 0.930 . S
C2044 C2042 1.356 . S
C2044 C2045 1.348 . S
C2045 C2040 1.353 . S
C2045 C2044 1.348 . S
C2045 H2097 0.929 . S
H2046 C2040 0.930 . S
H2047 C2043 0.930 . S
C2048 N2049 1.314 . S
C2048 C2050 1.353 . S
C2048 H2054 0.930 . S
N2049 Li2025 1.990 . S
N2049 C2048 1.314 . S
N2049 C2052 1.279 . S
C2050 C2048 1.353 . S
C2050 C2053 1.348 . S
C2050 H2098 0.929 . S
C2051 C2052 1.358 . S
C2051 C2053 1.356 . S
C2051 H2099 0.930 . S
C2052 N2049 1.279 . S
C2052 C2051 1.358 . S
C2052 H2055 0.930 . S
C2053 C2050 1.348 . S
C2053 C2051 1.356 . S
H2054 C2048 0.930 . S
H2055 C2052 0.930 . S
C2056 C2058 1.348 . S
C2056 C2059 1.356 . S
C2056 O2086 1.325 . S
N2057 C2060 1.314 . S
N2057 C2061 1.279 . S
C2058 C2056 1.348 . S
C2058 C2060 1.353 . S
C2058 H2100 0.929 . S
C2059 C2056 1.356 . S
C2059 C2061 1.358 . S
C2059 H2101 0.930 . S
C2060 N2057 1.314 . S
C2060 C2058 1.353 . S
C2060 H2102 0.930 . S
C2061 N2057 1.279 . S
C2061 C2059 1.358 . S
C2061 H2103 0.930 . S
C2062 C2063 1.348 . S
C2062 C2064 1.356 . S
C2062 O2087 1.325 . S
C2063 C2062 1.348 . S
C2063 C2065 1.353 . S
C2063 H2104 0.929 . S
C2064 C2062 1.356 . S
C2064 C2066 1.358 . S
C2064 H2105 0.930 . S
C2065 C2063 1.353 . S
C2065 N2067 1.314 . S
C2065 H2106 0.930 . S
C2066 C2064 1.358 . S
C2066 N2067 1.279 . S
C2066 H2107 0.930 . S
N2067 C2065 1.314 . S
N2067 C2066 1.279 . S
C2068 C2070 1.353 . S
C2068 N2071 1.314 . S
C2068 H2074 0.930 . S
C2069 N2071 1.279 . S
C2069 C2072 1.358 . S
C2069 H2075 0.930 . S
C2070 C2068 1.353 . S
C2070 C2073 1.348 . S
C2070 H2108 0.929 . S
N2071 Li2026 1.990 . S
N2071 C2068 1.314 . S
N2071 C2069 1.279 . S
C2072 C2069 1.358 . S
C2072 C2073 1.356 . S
C2072 H2109 0.930 . S
C2073 C2070 1.348 . S
C2073 C2072 1.356 . S
H2074 C2068 0.930 . S
H2075 C2069 0.930 . S
C2076 N2077 1.314 . S
C2076 C2078 1.353 . S
C2076 H2082 0.930 . S
N2077 Li2027 1.990 . S
N2077 C2076 1.314 . S
N2077 C2080 1.279 . S
C2078 C2076 1.353 . S
C2078 C2081 1.348 . S
C2078 H2110 0.929 . S
C2079 C2080 1.358 . S
C2079 C2081 1.356 . S
C2079 H2111 0.930 . S
C2080 N2077 1.279 . S
C2080 C2079 1.358 . S
C2080 H2083 0.930 . S
C2081 C2078 1.348 . S
C2081 C2079 1.356 . S
H2082 C2076 0.930 . S
H2083 C2080 0.930 . S
O2084 Li2024 1.956 . S
O2084 Li2025 1.970 . S
O2084 Li2026 1.961 . S
O2084 C2028 1.325 . S
O2085 Li2024 1.970 . S
O2085 Li2025 1.956 . S
O2085 Li2027 1.961 . S
O2085 C2034 1.325 . S
O2086 Li2024 1.961 . S
O2086 Li2026 1.956 . S
O2086 Li2027 1.970 . S
O2086 C2056 1.325 . S
O2087 Li2025 1.961 . S
O2087 Li2026 1.970 . S
O2087 Li2027 1.956 . S
O2087 C2062 1.325 . S
H2088 C2030 0.929 . S
H2089 C2031 0.930 . S
H2090 C2032 0.930 . S
H2091 C2033 0.930 . S
H2092 C2035 0.930 . S
H2093 C2037 0.929 . S
H2094 C2038 0.930 . S
H2095 C2039 0.930 . S
H2096 C2042 0.930 . S
H2097 C2045 0.929 . S
H2098 C2050 0.929 . S
H2099 C2051 0.930 . S
H2100 C2058 0.929 . S
H2101 C2059 0.930 . S
H2102 C2060 0.930 . S
H2103 C2061 0.930 . S
H2104 C2063 0.929 . S
H2105 C2064 0.930 . S
H2106 C2065 0.930 . S
H2107 C2066 0.930 . S
H2108 C2070 0.929 . S
H2109 C2072 0.930 . S
H2110 C2078 0.929 . S
H2111 C2079 0.930 . S
Tb2112 C2122 2.825 1_454 S
Tb2112 O2123 2.347 . S
Tb2112 O2126 2.366 . S
Tb2112 O2131 2.418 1_554 S
Tb2112 O2132 2.384 1_545 S
Tb2112 O2135 2.479 1_454 S
Tb2112 O2136 2.471 1_455 S
Eu2113 O2124 2.418 . S
Eu2113 O2125 2.384 . S
Eu2113 O2128 2.479 . S
Eu2113 O2129 2.471 . S
Eu2113 O2130 2.347 . S
Eu2113 O2133 2.366 . S
Eu2113 C2143 2.825 . S
C2114 O2130 1.259 1_556 S
C2114 O2131 1.265 . S
C2115 O2132 1.255 . S
C2115 O2133 1.265 1_565 S
C2116 C2118 1.380 . S
C2116 C2119 1.374 . S
C2116 C2122 1.507 . S
C2117 C2118 1.384 . S
C2117 C2121 1.387 . S
C2117 H2144 0.930 . S
C2118 C2116 1.380 . S
C2118 C2117 1.384 . S
C2118 H2145 0.931 . S
C2119 C2116 1.374 . S
C2119 C2120 1.390 . S
C2119 H2146 0.930 1_556 S
C2120 C2119 1.390 . S
C2120 C2121 1.391 . S
C2120 H2147 0.930 1_556 S
C2121 C2117 1.387 . S
C2121 C2120 1.391 . S
C2122 Tb2112 2.825 1_656 S
C2122 C2116 1.507 . S
C2122 O2135 1.238 . S
C2122 O2136 1.247 1_556 S
O2123 Tb2112 2.347 . S
O2123 C2127 1.259 . S
O2124 Eu2113 2.418 . S
O2124 C2127 1.265 . S
O2125 Eu2113 2.384 . S
O2125 C2134 1.255 . S
O2126 Tb2112 2.366 . S
O2126 C2134 1.265 . S
C2127 O2123 1.259 . S
C2127 O2124 1.265 . S
O2128 Eu2113 2.479 . S
O2128 C2143 1.238 . S
O2129 Eu2113 2.471 . S
O2129 C2143 1.247 . S
O2130 Eu2113 2.347 . S
O2130 C2114 1.259 1_554 S
O2131 Tb2112 2.418 1_556 S
O2131 C2114 1.265 . S
O2132 Tb2112 2.384 1_565 S
O2132 C2115 1.255 . S
O2133 Eu2113 2.366 . S
O2133 C2115 1.265 1_545 S
C2134 O2125 1.255 . S
C2134 O2126 1.265 . S
O2135 Tb2112 2.479 1_656 S
O2135 C2122 1.238 . S
O2136 Tb2112 2.471 1_655 S
O2136 C2122 1.247 1_554 S
C2137 C2140 1.380 . S
C2137 C2141 1.374 . S
C2137 C2143 1.507 . S
C2138 C2139 1.387 . S
C2138 C2142 1.391 1_545 S
C2139 C2138 1.387 . S
C2139 C2140 1.384 . S
C2139 H2148 0.930 . S
C2140 C2137 1.380 . S
C2140 C2139 1.384 . S
C2140 H2149 0.931 . S
C2141 C2137 1.374 . S
C2141 C2142 1.390 1_545 S
C2141 H2150 0.930 . S
C2142 C2138 1.391 1_565 S
C2142 C2141 1.390 1_565 S
C2142 H2151 0.930 . S
C2143 Eu2113 2.825 . S
C2143 O2128 1.238 . S
C2143 O2129 1.247 . S
C2143 C2137 1.507 . S
H2144 C2117 0.930 . S
H2145 C2118 0.931 . S
H2146 C2119 0.930 1_554 S
H2147 C2120 0.930 1_554 S
H2148 C2139 0.930 . S
H2149 C2140 0.931 . S
H2150 C2141 0.930 . S
H2151 C2142 0.930 . S
Tb2152 C2162 2.825 . S
Tb2152 O2163 2.347 . S
Tb2152 O2166 2.366 . S
Tb2152 O2171 2.418 . S
Tb2152 O2172 2.384 . S
Tb2152 O2175 2.479 . S
Tb2152 O2176 2.471 . S
Eu2153 O2164 2.418 . S
Eu2153 O2165 2.384 . S
Eu2153 O2168 2.479 . S
Eu2153 O2169 2.471 . S
Eu2153 O2170 2.347 . S
Eu2153 O2173 2.366 . S
Eu2153 C2183 2.825 . S
C2154 O2170 1.259 . S
C2154 O2171 1.265 . S
C2155 O2172 1.255 . S
C2155 O2173 1.265 . S
C2156 C2158 1.380 . S
C2156 C2159 1.374 . S
C2156 C2162 1.507 . S
C2157 C2158 1.384 . S
C2157 C2161 1.387 . S
C2157 H2184 0.930 . S
C2158 C2156 1.380 . S
C2158 C2157 1.384 . S
C2158 H2185 0.931 . S
C2159 C2156 1.374 . S
C2159 C2160 1.390 . S
C2159 H2186 0.930 . S
C2160 C2159 1.390 . S
C2160 C2161 1.391 . S
C2160 H2187 0.930 . S
C2161 C2157 1.387 . S
C2161 C2160 1.391 . S
C2162 Tb2152 2.825 . S
C2162 C2156 1.507 . S
C2162 O2175 1.238 . S
C2162 O2176 1.247 . S
O2163 Tb2152 2.347 . S
O2163 C2167 1.259 . S
O2164 Eu2153 2.418 . S
O2164 C2167 1.265 . S
O2165 Eu2153 2.384 . S
O2165 C2174 1.255 . S
O2166 Tb2152 2.366 . S
O2166 C2174 1.265 . S
C2167 O2163 1.259 . S
C2167 O2164 1.265 . S
O2168 Eu2153 2.479 . S
O2168 C2183 1.238 . S
O2169 Eu2153 2.471 . S
O2169 C2183 1.247 . S
O2170 Eu2153 2.347 . S
O2170 C2154 1.259 . S
O2171 Tb2152 2.418 . S
O2171 C2154 1.265 . S
O2172 Tb2152 2.384 . S
O2172 C2155 1.255 . S
O2173 Eu2153 2.366 . S
O2173 C2155 1.265 . S
C2174 O2165 1.255 . S
C2174 O2166 1.265 . S
O2175 Tb2152 2.479 . S
O2175 C2162 1.238 . S
O2176 Tb2152 2.471 . S
O2176 C2162 1.247 . S
C2177 C2180 1.380 . S
C2177 C2181 1.374 . S
C2177 C2183 1.507 . S
C2178 C2179 1.387 . S
C2178 C2182 1.391 . S
C2179 C2178 1.387 . S
C2179 C2180 1.384 . S
C2179 H2188 0.930 . S
C2180 C2177 1.380 . S
C2180 C2179 1.384 . S
C2180 H2189 0.931 . S
C2181 C2177 1.374 . S
C2181 C2182 1.390 . S
C2181 H2190 0.930 . S
C2182 C2178 1.391 . S
C2182 C2181 1.390 . S
C2182 H2191 0.930 . S
C2183 Eu2153 2.825 . S
C2183 O2168 1.238 . S
C2183 O2169 1.247 . S
C2183 C2177 1.507 . S
H2184 C2157 0.930 . S
H2185 C2158 0.931 . S
H2186 C2159 0.930 . S
H2187 C2160 0.930 . S
H2188 C2179 0.930 . S
H2189 C2180 0.931 . S
H2190 C2181 0.930 . S
H2191 C2182 0.930 . S
Tb2192 C2202 2.825 1_545 S
Tb2192 O2203 2.347 . S
Tb2192 O2206 2.368 . S
Tb2192 O2211 2.418 . S
Tb2192 O2212 2.384 . S
Tb2192 O2215 2.479 1_545 S
Tb2192 O2216 2.471 1_545 S
Eu2193 O2204 2.418 . S
Eu2193 O2205 2.384 . S
Eu2193 O2208 2.479 . S
Eu2193 O2209 2.471 . S
Eu2193 O2210 2.347 . S
Eu2193 O2213 2.366 . S
Eu2193 C2223 2.825 . S
C2194 O2210 1.259 . S
C2194 O2211 1.265 . S
C2195 O2212 1.255 . S
C2195 O2213 1.265 . S
C2196 C2198 1.380 . S
C2196 C2199 1.374 . S
C2196 C2202 1.507 . S
C2197 C2198 1.384 . S
C2197 C2201 1.387 . S
C2197 H2224 0.930 . S
C2198 C2196 1.380 . S
C2198 C2197 1.384 . S
C2198 H2225 0.931 . S
C2199 C2196 1.374 . S
C2199 C2200 1.390 . S
C2199 H2226 0.930 . S
C2200 C2199 1.390 . S
C2200 C2201 1.391 . S
C2200 H2227 0.930 . S
C2201 C2197 1.387 . S
C2201 C2200 1.391 . S
C2202 Tb2192 2.825 1_565 S
C2202 C2196 1.507 . S
C2202 O2215 1.238 . S
C2202 O2216 1.247 . S
O2203 Tb2192 2.347 . S
O2203 C2207 1.259 . S
O2204 Eu2193 2.418 . S
O2204 C2207 1.265 . S
O2205 Eu2193 2.384 . S
O2205 C2214 1.255 . S
O2206 Tb2192 2.368 . S
O2206 C2214 1.267 . S
C2207 O2203 1.259 . S
C2207 O2204 1.265 . S
O2208 Eu2193 2.479 . S
O2208 C2223 1.238 . S
O2209 Eu2193 2.471 . S
O2209 C2223 1.247 . S
O2210 Eu2193 2.347 . S
O2210 C2194 1.259 . S
O2211 Tb2192 2.418 . S
O2211 C2194 1.265 . S
O2212 Tb2192 2.384 . S
O2212 C2195 1.255 . S
O2213 Eu2193 2.366 . S
O2213 C2195 1.265 . S
C2214 O2205 1.255 . S
C2214 O2206 1.267 . S
O2215 Tb2192 2.479 1_565 S
O2215 C2202 1.238 . S
O2216 Tb2192 2.471 1_565 S
O2216 C2202 1.247 . S
C2217 C2220 1.380 . S
C2217 C2221 1.374 . S
C2217 C2223 1.507 . S
C2218 C2219 1.387 . S
C2218 C2222 1.391 . S
C2219 C2218 1.387 . S
C2219 C2220 1.384 . S
C2219 H2228 0.930 . S
C2220 C2217 1.380 . S
C2220 C2219 1.384 . S
C2220 H2229 0.931 . S
C2221 C2217 1.374 . S
C2221 C2222 1.390 . S
C2221 H2230 0.930 . S
C2222 C2218 1.391 . S
C2222 C2221 1.390 . S
C2222 H2231 0.930 . S
C2223 Eu2193 2.825 . S
C2223 O2208 1.238 . S
C2223 O2209 1.247 . S
C2223 C2217 1.507 . S
H2224 C2197 0.930 . S
H2225 C2198 0.931 . S
H2226 C2199 0.930 . S
H2227 C2200 0.930 . S
H2228 C2219 0.930 . S
H2229 C2220 0.931 . S
H2230 C2221 0.930 . S
H2231 C2222 0.930 . S
Tb2232 C2242 2.825 . S
Tb2232 O2243 2.347 . S
Tb2232 O2246 2.366 . S
Tb2232 O2251 2.418 . S
Tb2232 O2252 2.384 . S
Tb2232 O2255 2.479 . S
Tb2232 O2256 2.471 . S
Eu2233 O2244 2.418 . S
Eu2233 O2245 2.384 . S
Eu2233 O2248 2.479 . S
Eu2233 O2249 2.471 . S
Eu2233 O2250 2.347 . S
Eu2233 O2253 2.366 . S
Eu2233 C2263 2.825 . S
C2234 O2250 1.259 . S
C2234 O2251 1.265 . S
C2235 O2252 1.255 . S
C2235 O2253 1.265 . S
C2236 C2238 1.380 . S
C2236 C2239 1.374 . S
C2236 C2242 1.507 . S
C2237 C2238 1.384 . S
C2237 C2241 1.387 . S
C2237 H2264 0.930 . S
C2238 C2236 1.380 . S
C2238 C2237 1.384 . S
C2238 H2265 0.931 . S
C2239 C2236 1.374 . S
C2239 C2240 1.390 . S
C2239 H2266 0.930 . S
C2240 C2239 1.390 . S
C2240 C2241 1.391 . S
C2240 H2267 0.930 . S
C2241 C2237 1.387 . S
C2241 C2240 1.391 . S
C2242 Tb2232 2.825 . S
C2242 C2236 1.507 . S
C2242 O2255 1.238 . S
C2242 O2256 1.247 . S
O2243 Tb2232 2.347 . S
O2243 C2247 1.259 . S
O2244 Eu2233 2.418 . S
O2244 C2247 1.265 . S
O2245 Eu2233 2.384 . S
O2245 C2254 1.255 . S
O2246 Tb2232 2.366 . S
O2246 C2254 1.265 . S
C2247 O2243 1.259 . S
C2247 O2244 1.265 . S
O2248 Eu2233 2.479 . S
O2248 C2263 1.238 . S
O2249 Eu2233 2.471 . S
O2249 C2263 1.247 . S
O2250 Eu2233 2.347 . S
O2250 C2234 1.259 . S
O2251 Tb2232 2.418 . S
O2251 C2234 1.265 . S
O2252 Tb2232 2.384 . S
O2252 C2235 1.255 . S
O2253 Eu2233 2.366 . S
O2253 C2235 1.265 . S
C2254 O2245 1.255 . S
C2254 O2246 1.265 . S
O2255 Tb2232 2.479 . S
O2255 C2242 1.238 . S
O2256 Tb2232 2.471 . S
O2256 C2242 1.247 . S
C2257 C2260 1.380 . S
C2257 C2261 1.374 . S
C2257 C2263 1.507 . S
C2258 C2259 1.387 . S
C2258 C2262 1.391 . S
C2259 C2258 1.387 . S
C2259 C2260 1.384 . S
C2259 H2268 0.930 . S
C2260 C2257 1.380 . S
C2260 C2259 1.384 . S
C2260 H2269 0.931 . S
C2261 C2257 1.374 . S
C2261 C2262 1.390 . S
C2261 H2270 0.930 . S
C2262 C2258 1.391 . S
C2262 C2261 1.390 . S
C2262 H2271 0.930 . S
C2263 Eu2233 2.825 . S
C2263 O2248 1.238 . S
C2263 O2249 1.247 . S
C2263 C2257 1.507 . S
H2264 C2237 0.930 . S
H2265 C2238 0.931 . S
H2266 C2239 0.930 . S
H2267 C2240 0.930 . S
H2268 C2259 0.930 . S
H2269 C2260 0.931 . S
H2270 C2261 0.930 . S
H2271 C2262 0.930 . S
Tb2272 C2282 2.825 . S
Tb2272 O2283 2.347 . S
Tb2272 O2286 2.366 . S
Tb2272 O2291 2.418 . S
Tb2272 O2292 2.384 1_545 S
Tb2272 O2295 2.479 . S
Tb2272 O2296 2.471 . S
Eu2273 O2284 2.418 . S
Eu2273 O2285 2.384 . S
Eu2273 O2288 2.479 . S
Eu2273 O2289 2.471 . S
Eu2273 O2290 2.347 . S
Eu2273 O2293 2.366 . S
Eu2273 C2303 2.825 . S
C2274 O2290 1.259 . S
C2274 O2291 1.265 . S
C2275 O2292 1.255 . S
C2275 O2293 1.265 1_565 S
C2276 C2278 1.380 . S
C2276 C2279 1.374 1_455 S
C2276 C2282 1.507 . S
C2277 C2278 1.384 . S
C2277 C2281 1.358 1_455 S
C2277 H2304 0.930 . S
C2278 C2276 1.380 . S
C2278 C2277 1.384 . S
C2278 H2305 0.931 . S
C2279 C2276 1.374 1_655 S
C2279 C2280 1.390 . S
C2279 H2306 0.930 . S
C2280 C2279 1.390 . S
C2280 C2281 1.410 . S
C2280 H2307 0.930 . S
C2281 C2277 1.358 1_655 S
C2281 C2280 1.410 . S
C2282 Tb2272 2.825 . S
C2282 C2276 1.507 . S
C2282 O2295 1.238 . S
C2282 O2296 1.247 . S
O2283 Tb2272 2.347 . S
O2283 C2287 1.259 . S
O2284 Eu2273 2.418 . S
O2284 C2287 1.265 . S
O2285 Eu2273 2.384 . S
O2285 C2294 1.255 . S
O2286 Tb2272 2.366 . S
O2286 C2294 1.265 . S
C2287 O2283 1.259 . S
C2287 O2284 1.265 . S
O2288 Eu2273 2.479 . S
O2288 C2303 1.238 . S
O2289 Eu2273 2.471 . S
O2289 C2303 1.247 . S
O2290 Eu2273 2.347 . S
O2290 C2274 1.259 . S
O2291 Tb2272 2.418 . S
O2291 C2274 1.265 . S
O2292 Tb2272 2.384 1_565 S
O2292 C2275 1.255 . S
O2293 Eu2273 2.366 . S
O2293 C2275 1.265 1_545 S
C2294 O2285 1.255 . S
C2294 O2286 1.265 . S
O2295 Tb2272 2.479 . S
O2295 C2282 1.238 . S
O2296 Tb2272 2.471 . S
O2296 C2282 1.247 . S
C2297 C2300 1.380 . S
C2297 C2301 1.374 . S
C2297 C2303 1.507 . S
C2298 C2299 1.387 . S
C2298 C2302 1.391 . S
C2299 C2298 1.387 . S
C2299 C2300 1.384 . S
C2299 H2308 0.930 . S
C2300 C2297 1.380 . S
C2300 C2299 1.384 . S
C2300 H2309 0.931 . S
C2301 C2297 1.374 . S
C2301 C2302 1.390 . S
C2301 H2310 0.930 . S
C2302 C2298 1.391 . S
C2302 C2301 1.390 . S
C2302 H2311 0.930 . S
C2303 Eu2273 2.825 . S
C2303 O2288 1.238 . S
C2303 O2289 1.247 . S
C2303 C2297 1.507 . S
H2304 C2277 0.930 . S
H2305 C2278 0.931 . S
H2306 C2279 0.930 . S
H2307 C2280 0.930 . S
H2308 C2299 0.930 . S
H2309 C2300 0.931 . S
H2310 C2301 0.930 . S
H2311 C2302 0.930 . S
Tb2312 C2322 2.825 . S
Tb2312 O2323 2.347 . S
Tb2312 O2326 2.366 . S
Tb2312 O2331 2.418 . S
Tb2312 O2332 2.384 . S
Tb2312 O2335 2.479 . S
Tb2312 O2336 2.471 . S
Eu2313 O2324 2.418 . S
Eu2313 O2325 2.384 . S
Eu2313 O2328 2.479 . S
Eu2313 O2329 2.471 . S
Eu2313 O2330 2.347 . S
Eu2313 O2333 2.366 . S
Eu2313 C2343 2.825 . S
C2314 O2330 1.259 . S
C2314 O2331 1.265 . S
C2315 O2332 1.255 . S
C2315 O2333 1.265 . S
C2316 C2318 1.380 . S
C2316 C2319 1.374 . S
C2316 C2322 1.507 . S
C2317 C2318 1.384 . S
C2317 C2321 1.387 . S
C2317 H2344 0.930 . S
C2318 C2316 1.380 . S
C2318 C2317 1.384 . S
C2318 H2345 0.931 . S
C2319 C2316 1.374 . S
C2319 C2320 1.390 . S
C2319 H2346 0.930 . S
C2320 C2319 1.390 . S
C2320 C2321 1.391 . S
C2320 H2347 0.930 . S
C2321 C2317 1.387 . S
C2321 C2320 1.391 . S
C2322 Tb2312 2.825 . S
C2322 C2316 1.507 . S
C2322 O2335 1.238 . S
C2322 O2336 1.247 . S
O2323 Tb2312 2.347 . S
O2323 C2327 1.259 . S
O2324 Eu2313 2.418 . S
O2324 C2327 1.265 . S
O2325 Eu2313 2.384 . S
O2325 C2334 1.255 . S
O2326 Tb2312 2.366 . S
O2326 C2334 1.265 . S
C2327 O2323 1.259 . S
C2327 O2324 1.265 . S
O2328 Eu2313 2.479 . S
O2328 C2343 1.238 . S
O2329 Eu2313 2.471 . S
O2329 C2343 1.247 . S
O2330 Eu2313 2.347 . S
O2330 C2314 1.259 . S
O2331 Tb2312 2.418 . S
O2331 C2314 1.265 . S
O2332 Tb2312 2.384 . S
O2332 C2315 1.255 . S
O2333 Eu2313 2.366 . S
O2333 C2315 1.265 . S
C2334 O2325 1.255 . S
C2334 O2326 1.265 . S
O2335 Tb2312 2.479 . S
O2335 C2322 1.238 . S
O2336 Tb2312 2.471 . S
O2336 C2322 1.247 . S
C2337 C2340 1.380 . S
C2337 C2341 1.374 . S
C2337 C2343 1.507 . S
C2338 C2339 1.387 . S
C2338 C2342 1.391 . S
C2339 C2338 1.387 . S
C2339 C2340 1.384 . S
C2339 H2348 0.930 . S
C2340 C2337 1.380 . S
C2340 C2339 1.384 . S
C2340 H2349 0.931 . S
C2341 C2337 1.374 . S
C2341 C2342 1.390 . S
C2341 H2350 0.930 . S
C2342 C2338 1.391 . S
C2342 C2341 1.390 . S
C2342 H2351 0.930 . S
C2343 Eu2313 2.825 . S
C2343 O2328 1.238 . S
C2343 O2329 1.247 . S
C2343 C2337 1.507 . S
H2344 C2317 0.930 . S
H2345 C2318 0.931 . S
H2346 C2319 0.930 . S
H2347 C2320 0.930 . S
H2348 C2339 0.930 . S
H2349 C2340 0.931 . S
H2350 C2341 0.930 . S
H2351 C2342 0.930 . S
Tb2352 C2362 2.825 . S
Tb2352 O2363 2.347 . S
Tb2352 O2366 2.366 . S
Tb2352 O2371 2.418 1_545 S
Tb2352 O2372 2.384 . S
Tb2352 O2375 2.479 . S
Tb2352 O2376 2.471 . S
Eu2353 O2364 2.418 1_556 S
Eu2353 O2365 2.384 1_556 S
Eu2353 O2368 2.479 . S
Eu2353 O2369 2.471 . S
Eu2353 O2370 2.347 1_556 S
Eu2353 O2373 2.366 1_556 S
Eu2353 C2383 2.825 . S
C2354 O2370 1.259 1_565 S
C2354 O2371 1.265 . S
C2355 O2372 1.255 . S
C2355 O2373 1.265 . S
C2356 C2358 1.353 1_545 S
C2356 C2359 1.374 . S
C2356 C2362 1.507 . S
C2357 C2358 1.389 . S
C2357 C2361 1.387 1_565 S
C2357 H2384 0.930 . S
C2358 C2356 1.353 1_565 S
C2358 C2357 1.389 . S
C2358 H2385 0.953 . S
C2359 C2356 1.374 . S
C2359 C2360 1.390 . S
C2359 H2386 0.930 . S
C2360 C2359 1.390 . S
C2360 C2361 1.391 . S
C2360 H2387 0.930 . S
C2361 C2357 1.387 1_545 S
C2361 C2360 1.391 . S
C2362 Tb2352 2.825 . S
C2362 C2356 1.507 . S
C2362 O2375 1.238 . S
C2362 O2376 1.247 . S
O2363 Tb2352 2.347 . S
O2363 C2367 1.259 . S
O2364 Eu2353 2.418 1_554 S
O2364 C2367 1.265 . S
O2365 Eu2353 2.384 1_554 S
O2365 C2374 1.255 . S
O2366 Tb2352 2.366 . S
O2366 C2374 1.265 . S
C2367 O2363 1.259 . S
C2367 O2364 1.265 . S
O2368 Eu2353 2.479 . S
O2368 C2383 1.238 . S
O2369 Eu2353 2.471 . S
O2369 C2383 1.247 . S
O2370 Eu2353 2.347 1_554 S
O2370 C2354 1.259 1_545 S
O2371 Tb2352 2.418 1_565 S
O2371 C2354 1.265 . S
O2372 Tb2352 2.384 . S
O2372 C2355 1.255 . S
O2373 Eu2353 2.366 1_554 S
O2373 C2355 1.265 . S
C2374 O2365 1.255 . S
C2374 O2366 1.265 . S
O2375 Tb2352 2.479 . S
O2375 C2362 1.238 . S
O2376 Tb2352 2.471 . S
O2376 C2362 1.247 . S
C2377 C2380 1.380 . S
C2377 C2381 1.374 . S
C2377 C2383 1.507 . S
C2378 C2379 1.387 . S
C2378 C2382 1.391 . S
C2379 C2378 1.387 . S
C2379 C2380 1.384 . S
C2379 H2388 0.930 . S
C2380 C2377 1.380 . S
C2380 C2379 1.384 . S
C2380 H2389 0.931 . S
C2381 C2377 1.374 . S
C2381 C2382 1.390 . S
C2381 H2390 0.930 . S
C2382 C2378 1.391 . S
C2382 C2381 1.390 . S
C2382 H2391 0.930 . S
C2383 Eu2353 2.825 . S
C2383 O2368 1.238 . S
C2383 O2369 1.247 . S
C2383 C2377 1.507 . S
H2384 C2357 0.930 . S
H2385 C2358 0.953 . S
H2386 C2359 0.930 . S
H2387 C2360 0.930 . S
H2388 C2379 0.930 . S
H2389 C2380 0.931 . S
H2390 C2381 0.930 . S
H2391 C2382 0.930 . S
Tb2392 C2402 2.825 . S
Tb2392 O2403 2.347 . S
Tb2392 O2406 2.366 . S
Tb2392 O2411 2.418 . S
Tb2392 O2412 2.384 . S
Tb2392 O2415 2.479 . S
Tb2392 O2416 2.471 . S
Eu2393 O2404 2.418 . S
Eu2393 O2405 2.384 . S
Eu2393 O2408 2.479 . S
Eu2393 O2409 2.471 . S
Eu2393 O2410 2.347 . S
Eu2393 O2413 2.366 . S
Eu2393 C2423 2.825 . S
C2394 O2410 1.259 . S
C2394 O2411 1.265 . S
C2395 O2412 1.255 . S
C2395 O2413 1.265 . S
C2396 C2398 1.380 . S
C2396 C2399 1.374 . S
C2396 C2402 1.507 . S
C2397 C2398 1.384 . S
C2397 C2401 1.387 . S
C2397 H2424 0.930 . S
C2398 C2396 1.380 . S
C2398 C2397 1.384 . S
C2398 H2425 0.931 . S
C2399 C2396 1.374 . S
C2399 C2400 1.390 . S
C2399 H2426 0.930 . S
C2400 C2399 1.390 . S
C2400 C2401 1.391 . S
C2400 H2427 0.930 . S
C2401 C2397 1.387 . S
C2401 C2400 1.391 . S
C2402 Tb2392 2.825 . S
C2402 C2396 1.507 . S
C2402 O2415 1.238 . S
C2402 O2416 1.247 . S
O2403 Tb2392 2.347 . S
O2403 C2407 1.259 . S
O2404 Eu2393 2.418 . S
O2404 C2407 1.265 . S
O2405 Eu2393 2.384 . S
O2405 C2414 1.255 . S
O2406 Tb2392 2.366 . S
O2406 C2414 1.265 . S
C2407 O2403 1.259 . S
C2407 O2404 1.265 . S
O2408 Eu2393 2.479 . S
O2408 C2423 1.238 . S
O2409 Eu2393 2.471 . S
O2409 C2423 1.247 . S
O2410 Eu2393 2.347 . S
O2410 C2394 1.259 . S
O2411 Tb2392 2.418 . S
O2411 C2394 1.265 . S
O2412 Tb2392 2.384 . S
O2412 C2395 1.255 . S
O2413 Eu2393 2.366 . S
O2413 C2395 1.265 . S
C2414 O2405 1.255 . S
C2414 O2406 1.265 . S
O2415 Tb2392 2.479 . S
O2415 C2402 1.238 . S
O2416 Tb2392 2.471 . S
O2416 C2402 1.247 . S
C2417 C2420 1.380 . S
C2417 C2421 1.374 . S
C2417 C2423 1.507 . S
C2418 C2419 1.387 . S
C2418 C2422 1.391 . S
C2419 C2418 1.387 . S
C2419 C2420 1.384 . S
C2419 H2428 0.930 . S
C2420 C2417 1.380 . S
C2420 C2419 1.384 . S
C2420 H2429 0.931 . S
C2421 C2417 1.374 . S
C2421 C2422 1.390 . S
C2421 H2430 0.930 . S
C2422 C2418 1.391 . S
C2422 C2421 1.390 . S
C2422 H2431 0.930 . S
C2423 Eu2393 2.825 . S
C2423 O2408 1.238 . S
C2423 O2409 1.247 . S
C2423 C2417 1.507 . S
H2424 C2397 0.930 . S
H2425 C2398 0.931 . S
H2426 C2399 0.930 . S
H2427 C2400 0.930 . S
H2428 C2419 0.930 . S
H2429 C2420 0.931 . S
H2430 C2421 0.930 . S
H2431 C2422 0.930 . S
Tb2432 C2442 2.825 . S
Tb2432 O2443 2.347 1_556 S
Tb2432 O2446 2.366 . S
Tb2432 O2451 2.418 . S
Tb2432 O2452 2.384 1_556 S
Tb2432 O2455 2.479 . S
Tb2432 O2456 2.471 . S
Eu2433 O2444 2.418 . S
Eu2433 O2445 2.384 . S
Eu2433 O2448 2.479 . S
Eu2433 O2449 2.471 . S
Eu2433 O2450 2.347 . S
Eu2433 O2453 2.366 . S
Eu2433 C2463 2.825 . S
C2434 O2450 1.259 . S
C2434 O2451 1.265 1_554 S
C2435 O2452 1.255 . S
C2435 O2453 1.265 . S
C2436 C2438 1.380 . S
C2436 C2439 1.374 . S
C2436 C2442 1.507 . S
C2437 C2438 1.384 . S
C2437 C2441 1.387 . S
C2437 H2464 0.930 . S
C2438 C2436 1.380 . S
C2438 C2437 1.384 . S
C2438 H2465 0.931 . S
C2439 C2436 1.374 . S
C2439 C2440 1.390 . S
C2439 H2466 0.930 . S
C2440 C2439 1.390 . S
C2440 C2441 1.391 . S
C2440 H2467 0.930 . S
C2441 C2437 1.387 . S
C2441 C2440 1.391 . S
C2442 Tb2432 2.825 . S
C2442 C2436 1.507 . S
C2442 O2455 1.238 . S
C2442 O2456 1.247 . S
O2443 Tb2432 2.347 1_554 S
O2443 C2447 1.259 . S
O2444 Eu2433 2.418 . S
O2444 C2447 1.265 . S
O2445 Eu2433 2.384 . S
O2445 C2454 1.255 . S
O2446 Tb2432 2.366 . S
O2446 C2454 1.265 1_556 S
C2447 O2443 1.259 . S
C2447 O2444 1.265 . S
O2448 Eu2433 2.479 . S
O2448 C2463 1.238 . S
O2449 Eu2433 2.471 . S
O2449 C2463 1.247 . S
O2450 Eu2433 2.347 . S
O2450 C2434 1.259 . S
O2451 Tb2432 2.418 . S
O2451 C2434 1.265 1_556 S
O2452 Tb2432 2.384 1_554 S
O2452 C2435 1.255 . S
O2453 Eu2433 2.366 . S
O2453 C2435 1.265 . S
C2454 O2445 1.255 . S
C2454 O2446 1.265 1_554 S
O2455 Tb2432 2.479 . S
O2455 C2442 1.238 . S
O2456 Tb2432 2.471 . S
O2456 C2442 1.247 . S
C2457 C2460 1.380 . S
C2457 C2461 1.374 . S
C2457 C2463 1.507 . S
C2458 C2459 1.387 . S
C2458 C2462 1.391 . S
C2459 C2458 1.387 . S
C2459 C2460 1.384 . S
C2459 H2468 0.930 . S
C2460 C2457 1.380 . S
C2460 C2459 1.384 . S
C2460 H2469 0.931 . S
C2461 C2457 1.374 . S
C2461 C2462 1.390 . S
C2461 H2470 0.930 . S
C2462 C2458 1.391 . S
C2462 C2461 1.390 . S
C2462 H2471 0.930 . S
C2463 Eu2433 2.825 . S
C2463 O2448 1.238 . S
C2463 O2449 1.247 . S
C2463 C2457 1.507 . S
H2464 C2437 0.930 . S
H2465 C2438 0.931 . S
H2466 C2439 0.930 . S
H2467 C2440 0.930 . S
H2468 C2459 0.930 . S
H2469 C2460 0.931 . S
H2470 C2461 0.930 . S
H2471 C2462 0.930 . S
Tb2472 C2482 2.825 . S
Tb2472 O2483 2.347 . S
Tb2472 O2486 2.366 . S
Tb2472 O2491 2.418 . S
Tb2472 O2492 2.384 . S
Tb2472 O2495 2.479 . S
Tb2472 O2496 2.471 . S
Eu2473 O2484 2.418 . S
Eu2473 O2485 2.384 . S
Eu2473 O2488 2.479 . S
Eu2473 O2489 2.471 . S
Eu2473 O2490 2.347 . S
Eu2473 O2493 2.366 . S
Eu2473 C2503 2.825 . S
C2474 O2490 1.259 . S
C2474 O2491 1.265 . S
C2475 O2492 1.255 . S
C2475 O2493 1.265 . S
C2476 C2478 1.380 . S
C2476 C2479 1.374 . S
C2476 C2482 1.507 . S
C2477 C2478 1.384 . S
C2477 C2481 1.387 . S
C2477 H2504 0.930 . S
C2478 C2476 1.380 . S
C2478 C2477 1.384 . S
C2478 H2505 0.931 . S
C2479 C2476 1.374 . S
C2479 C2480 1.390 . S
C2479 H2506 0.930 . S
C2480 C2479 1.390 . S
C2480 C2481 1.391 . S
C2480 H2507 0.930 . S
C2481 C2477 1.387 . S
C2481 C2480 1.391 . S
C2482 Tb2472 2.825 . S
C2482 C2476 1.507 . S
C2482 O2495 1.238 . S
C2482 O2496 1.247 . S
O2483 Tb2472 2.347 . S
O2483 C2487 1.259 . S
O2484 Eu2473 2.418 . S
O2484 C2487 1.265 . S
O2485 Eu2473 2.384 . S
O2485 C2494 1.255 . S
O2486 Tb2472 2.366 . S
O2486 C2494 1.265 . S
C2487 O2483 1.259 . S
C2487 O2484 1.265 . S
O2488 Eu2473 2.479 . S
O2488 C2503 1.238 . S
O2489 Eu2473 2.471 . S
O2489 C2503 1.247 . S
O2490 Eu2473 2.347 . S
O2490 C2474 1.259 . S
O2491 Tb2472 2.418 . S
O2491 C2474 1.265 . S
O2492 Tb2472 2.384 . S
O2492 C2475 1.255 . S
O2493 Eu2473 2.366 . S
O2493 C2475 1.265 . S
C2494 O2485 1.255 . S
C2494 O2486 1.265 . S
O2495 Tb2472 2.479 . S
O2495 C2482 1.238 . S
O2496 Tb2472 2.471 . S
O2496 C2482 1.247 . S
C2497 C2500 1.380 . S
C2497 C2501 1.374 . S
C2497 C2503 1.507 . S
C2498 C2499 1.387 . S
C2498 C2502 1.391 . S
C2499 C2498 1.387 . S
C2499 C2500 1.384 . S
C2499 H2508 0.930 . S
C2500 C2497 1.380 . S
C2500 C2499 1.384 . S
C2500 H2509 0.931 . S
C2501 C2497 1.374 . S
C2501 C2502 1.390 . S
C2501 H2510 0.930 . S
C2502 C2498 1.391 . S
C2502 C2501 1.390 . S
C2502 H2511 0.930 . S
C2503 Eu2473 2.825 . S
C2503 O2488 1.238 . S
C2503 O2489 1.247 . S
C2503 C2497 1.507 . S
H2504 C2477 0.930 . S
H2505 C2478 0.931 . S
H2506 C2479 0.930 . S
H2507 C2480 0.930 . S
H2508 C2499 0.930 . S
H2509 C2500 0.931 . S
H2510 C2501 0.930 . S
H2511 C2502 0.930 . S
Tb2512 C2522 2.825 . S
Tb2512 O2523 2.347 . S
Tb2512 O2526 2.366 . S
Tb2512 O2531 2.418 . S
Tb2512 O2532 2.384 . S
Tb2512 O2535 2.479 . S
Tb2512 O2536 2.471 . S
Eu2513 O2524 2.418 . S
Eu2513 O2525 2.384 . S
Eu2513 O2528 2.479 . S
Eu2513 O2529 2.471 . S
Eu2513 O2530 2.347 . S
Eu2513 O2533 2.366 . S
Eu2513 C2543 2.825 . S
C2514 O2530 1.259 . S
C2514 O2531 1.265 . S
C2515 O2532 1.255 . S
C2515 O2533 1.265 . S
C2516 C2518 1.380 . S
C2516 C2519 1.374 . S
C2516 C2522 1.507 . S
C2517 C2518 1.384 . S
C2517 C2521 1.387 . S
C2517 H2544 0.930 . S
C2518 C2516 1.380 . S
C2518 C2517 1.384 . S
C2518 H2545 0.931 . S
C2519 C2516 1.374 . S
C2519 C2520 1.390 . S
C2519 H2546 0.930 . S
C2520 C2519 1.390 . S
C2520 C2521 1.391 . S
C2520 H2547 0.930 . S
C2521 C2517 1.387 . S
C2521 C2520 1.391 . S
C2522 Tb2512 2.825 . S
C2522 C2516 1.507 . S
C2522 O2535 1.238 . S
C2522 O2536 1.247 . S
O2523 Tb2512 2.347 . S
O2523 C2527 1.259 . S
O2524 Eu2513 2.418 . S
O2524 C2527 1.265 . S
O2525 Eu2513 2.384 . S
O2525 C2534 1.255 . S
O2526 Tb2512 2.366 . S
O2526 C2534 1.265 . S
C2527 O2523 1.259 . S
C2527 O2524 1.265 . S
O2528 Eu2513 2.479 . S
O2528 C2543 1.238 . S
O2529 Eu2513 2.471 . S
O2529 C2543 1.247 . S
O2530 Eu2513 2.347 . S
O2530 C2514 1.259 . S
O2531 Tb2512 2.418 . S
O2531 C2514 1.265 . S
O2532 Tb2512 2.384 . S
O2532 C2515 1.255 . S
O2533 Eu2513 2.366 . S
O2533 C2515 1.265 . S
C2534 O2525 1.255 . S
C2534 O2526 1.265 . S
O2535 Tb2512 2.479 . S
O2535 C2522 1.238 . S
O2536 Tb2512 2.471 . S
O2536 C2522 1.247 . S
C2537 C2540 1.380 . S
C2537 C2541 1.374 . S
C2537 C2543 1.507 . S
C2538 C2539 1.387 . S
C2538 C2542 1.391 . S
C2539 C2538 1.387 . S
C2539 C2540 1.384 . S
C2539 H2548 0.930 . S
C2540 C2537 1.380 . S
C2540 C2539 1.384 . S
C2540 H2549 0.931 . S
C2541 C2537 1.374 . S
C2541 C2542 1.390 . S
C2541 H2550 0.930 . S
C2542 C2538 1.391 . S
C2542 C2541 1.390 . S
C2542 H2551 0.930 . S
C2543 Eu2513 2.825 . S
C2543 O2528 1.238 . S
C2543 O2529 1.247 . S
C2543 C2537 1.507 . S
H2544 C2517 0.930 . S
H2545 C2518 0.931 . S
H2546 C2519 0.930 . S
H2547 C2520 0.930 . S
H2548 C2539 0.930 . S
H2549 C2540 0.931 . S
H2550 C2541 0.930 . S
H2551 C2542 0.930 . S
Tb2552 C2562 2.825 . S
Tb2552 O2563 2.347 . S
Tb2552 O2566 2.366 . S
Tb2552 O2571 2.418 . S
Tb2552 O2572 2.384 . S
Tb2552 O2575 2.479 . S
Tb2552 O2576 2.471 . S
Eu2553 O2564 2.418 . S
Eu2553 O2565 2.384 . S
Eu2553 O2568 2.479 . S
Eu2553 O2569 2.471 . S
Eu2553 O2570 2.347 . S
Eu2553 O2573 2.366 . S
Eu2553 C2583 2.825 . S
C2554 O2570 1.259 . S
C2554 O2571 1.265 . S
C2555 O2572 1.255 . S
C2555 O2573 1.265 . S
C2556 C2558 1.380 . S
C2556 C2559 1.374 . S
C2556 C2562 1.507 . S
C2557 C2558 1.384 . S
C2557 C2561 1.387 . S
C2557 H2584 0.930 . S
C2558 C2556 1.380 . S
C2558 C2557 1.384 . S
C2558 H2585 0.931 . S
C2559 C2556 1.374 . S
C2559 C2560 1.390 . S
C2559 H2586 0.930 . S
C2560 C2559 1.390 . S
C2560 C2561 1.391 . S
C2560 H2587 0.930 . S
C2561 C2557 1.387 . S
C2561 C2560 1.391 . S
C2562 Tb2552 2.825 . S
C2562 C2556 1.507 . S
C2562 O2575 1.238 . S
C2562 O2576 1.247 . S
O2563 Tb2552 2.347 . S
O2563 C2567 1.259 . S
O2564 Eu2553 2.418 . S
O2564 C2567 1.265 . S
O2565 Eu2553 2.384 . S
O2565 C2574 1.255 . S
O2566 Tb2552 2.366 . S
O2566 C2574 1.265 . S
C2567 O2563 1.259 . S
C2567 O2564 1.265 . S
O2568 Eu2553 2.479 . S
O2568 C2583 1.238 . S
O2569 Eu2553 2.471 . S
O2569 C2583 1.247 . S
O2570 Eu2553 2.347 . S
O2570 C2554 1.259 . S
O2571 Tb2552 2.418 . S
O2571 C2554 1.265 . S
O2572 Tb2552 2.384 . S
O2572 C2555 1.255 . S
O2573 Eu2553 2.366 . S
O2573 C2555 1.265 . S
C2574 O2565 1.255 . S
C2574 O2566 1.265 . S
O2575 Tb2552 2.479 . S
O2575 C2562 1.238 . S
O2576 Tb2552 2.471 . S
O2576 C2562 1.247 . S
C2577 C2580 1.380 . S
C2577 C2581 1.374 . S
C2577 C2583 1.507 . S
C2578 C2579 1.387 . S
C2578 C2582 1.391 . S
C2579 C2578 1.387 . S
C2579 C2580 1.384 . S
C2579 H2588 0.930 . S
C2580 C2577 1.380 . S
C2580 C2579 1.384 . S
C2580 H2589 0.931 . S
C2581 C2577 1.374 . S
C2581 C2582 1.390 . S
C2581 H2590 0.930 . S
C2582 C2578 1.391 . S
C2582 C2581 1.390 . S
C2582 H2591 0.930 . S
C2583 Eu2553 2.825 . S
C2583 O2568 1.238 . S
C2583 O2569 1.247 . S
C2583 C2577 1.507 . S
H2584 C2557 0.930 . S
H2585 C2558 0.931 . S
H2586 C2559 0.930 . S
H2587 C2560 0.930 . S
H2588 C2579 0.930 . S
H2589 C2580 0.931 . S
H2590 C2581 0.930 . S
H2591 C2582 0.930 . S
Tb2592 C2602 2.825 . S
Tb2592 O2603 2.347 . S
Tb2592 O2606 2.366 . S
Tb2592 O2611 2.418 . S
Tb2592 O2612 2.384 . S
Tb2592 O2615 2.479 . S
Tb2592 O2616 2.471 . S
Eu2593 O2604 2.418 . S
Eu2593 O2605 2.384 . S
Eu2593 O2608 2.479 . S
Eu2593 O2609 2.471 . S
Eu2593 O2610 2.347 . S
Eu2593 O2613 2.366 . S
Eu2593 C2623 2.825 . S
C2594 O2610 1.259 . S
C2594 O2611 1.265 . S
C2595 O2612 1.255 . S
C2595 O2613 1.265 . S
C2596 C2598 1.380 . S
C2596 C2599 1.374 . S
C2596 C2602 1.507 . S
C2597 C2598 1.384 . S
C2597 C2601 1.387 . S
C2597 H2624 0.930 . S
C2598 C2596 1.380 . S
C2598 C2597 1.384 . S
C2598 H2625 0.931 . S
C2599 C2596 1.374 . S
C2599 C2600 1.390 . S
C2599 H2626 0.930 . S
C2600 C2599 1.390 . S
C2600 C2601 1.391 . S
C2600 H2627 0.930 . S
C2601 C2597 1.387 . S
C2601 C2600 1.391 . S
C2602 Tb2592 2.825 . S
C2602 C2596 1.507 . S
C2602 O2615 1.238 . S
C2602 O2616 1.247 . S
O2603 Tb2592 2.347 . S
O2603 C2607 1.259 . S
O2604 Eu2593 2.418 . S
O2604 C2607 1.265 . S
O2605 Eu2593 2.384 . S
O2605 C2614 1.255 . S
O2606 Tb2592 2.366 . S
O2606 C2614 1.265 . S
C2607 O2603 1.259 . S
C2607 O2604 1.265 . S
O2608 Eu2593 2.479 . S
O2608 C2623 1.238 . S
O2609 Eu2593 2.471 . S
O2609 C2623 1.247 . S
O2610 Eu2593 2.347 . S
O2610 C2594 1.259 . S
O2611 Tb2592 2.418 . S
O2611 C2594 1.265 . S
O2612 Tb2592 2.384 . S
O2612 C2595 1.255 . S
O2613 Eu2593 2.366 . S
O2613 C2595 1.265 . S
C2614 O2605 1.255 . S
C2614 O2606 1.265 . S
O2615 Tb2592 2.479 . S
O2615 C2602 1.238 . S
O2616 Tb2592 2.471 . S
O2616 C2602 1.247 . S
C2617 C2620 1.380 . S
C2617 C2621 1.374 . S
C2617 C2623 1.507 . S
C2618 C2619 1.387 . S
C2618 C2622 1.391 . S
C2619 C2618 1.387 . S
C2619 C2620 1.384 . S
C2619 H2628 0.930 . S
C2620 C2617 1.380 . S
C2620 C2619 1.384 . S
C2620 H2629 0.931 . S
C2621 C2617 1.374 . S
C2621 C2622 1.390 . S
C2621 H2630 0.930 . S
C2622 C2618 1.391 . S
C2622 C2621 1.390 . S
C2622 H2631 0.930 . S
C2623 Eu2593 2.825 . S
C2623 O2608 1.238 . S
C2623 O2609 1.247 . S
C2623 C2617 1.507 . S
H2624 C2597 0.930 . S
H2625 C2598 0.931 . S
H2626 C2599 0.930 . S
H2627 C2600 0.930 . S
H2628 C2619 0.930 . S
H2629 C2620 0.931 . S
H2630 C2621 0.930 . S
H2631 C2622 0.930 . S
Tb2632 C2642 2.825 . S
Tb2632 O2643 2.347 . S
Tb2632 O2646 2.366 . S
Tb2632 O2651 2.418 . S
Tb2632 O2652 2.384 . S
Tb2632 O2655 2.479 . S
Tb2632 O2656 2.471 . S
Eu2633 O2644 2.418 . S
Eu2633 O2645 2.384 . S
Eu2633 O2648 2.479 . S
Eu2633 O2649 2.471 . S
Eu2633 O2650 2.347 . S
Eu2633 O2653 2.366 . S
Eu2633 C2663 2.825 . S
C2634 O2650 1.259 . S
C2634 O2651 1.265 . S
C2635 O2652 1.255 . S
C2635 O2653 1.265 . S
C2636 C2638 1.380 . S
C2636 C2639 1.374 . S
C2636 C2642 1.507 . S
C2637 C2638 1.384 . S
C2637 C2641 1.387 . S
C2637 H2664 0.930 . S
C2638 C2636 1.380 . S
C2638 C2637 1.384 . S
C2638 H2665 0.931 . S
C2639 C2636 1.374 . S
C2639 C2640 1.390 . S
C2639 H2666 0.930 . S
C2640 C2639 1.390 . S
C2640 C2641 1.391 . S
C2640 H2667 0.930 . S
C2641 C2637 1.387 . S
C2641 C2640 1.391 . S
C2642 Tb2632 2.825 . S
C2642 C2636 1.507 . S
C2642 O2655 1.238 . S
C2642 O2656 1.247 . S
O2643 Tb2632 2.347 . S
O2643 C2647 1.259 . S
O2644 Eu2633 2.418 . S
O2644 C2647 1.265 . S
O2645 Eu2633 2.384 . S
O2645 C2654 1.255 . S
O2646 Tb2632 2.366 . S
O2646 C2654 1.265 . S
C2647 O2643 1.259 . S
C2647 O2644 1.265 . S
O2648 Eu2633 2.479 . S
O2648 C2663 1.238 . S
O2649 Eu2633 2.471 . S
O2649 C2663 1.247 . S
O2650 Eu2633 2.347 . S
O2650 C2634 1.259 . S
O2651 Tb2632 2.418 . S
O2651 C2634 1.265 . S
O2652 Tb2632 2.384 . S
O2652 C2635 1.255 . S
O2653 Eu2633 2.366 . S
O2653 C2635 1.265 . S
C2654 O2645 1.255 . S
C2654 O2646 1.265 . S
O2655 Tb2632 2.479 . S
O2655 C2642 1.238 . S
O2656 Tb2632 2.471 . S
O2656 C2642 1.247 . S
C2657 C2660 1.380 . S
C2657 C2661 1.374 . S
C2657 C2663 1.507 . S
C2658 C2659 1.387 . S
C2658 C2662 1.391 . S
C2659 C2658 1.387 . S
C2659 C2660 1.384 . S
C2659 H2668 0.930 . S
C2660 C2657 1.380 . S
C2660 C2659 1.384 . S
C2660 H2669 0.931 . S
C2661 C2657 1.374 . S
C2661 C2662 1.390 . S
C2661 H2670 0.930 . S
C2662 C2658 1.391 . S
C2662 C2661 1.390 . S
C2662 H2671 0.930 . S
C2663 Eu2633 2.825 . S
C2663 O2648 1.238 . S
C2663 O2649 1.247 . S
C2663 C2657 1.507 . S
H2664 C2637 0.930 . S
H2665 C2638 0.931 . S
H2666 C2639 0.930 . S
H2667 C2640 0.930 . S
H2668 C2659 0.930 . S
H2669 C2660 0.931 . S
H2670 C2661 0.930 . S
H2671 C2662 0.930 . S
Tb2672 C2682 2.825 . S
Tb2672 O2683 2.347 . S
Tb2672 O2686 2.366 . S
Tb2672 O2691 2.418 . S
Tb2672 O2692 2.384 . S
Tb2672 O2695 2.479 . S
Tb2672 O2696 2.471 . S
Eu2673 O2684 2.418 . S
Eu2673 O2685 2.384 . S
Eu2673 O2688 2.479 . S
Eu2673 O2689 2.471 . S
Eu2673 O2690 2.347 . S
Eu2673 O2693 2.366 . S
Eu2673 C2703 2.825 . S
C2674 O2690 1.259 . S
C2674 O2691 1.265 . S
C2675 O2692 1.255 . S
C2675 O2693 1.265 . S
C2676 C2678 1.380 . S
C2676 C2679 1.374 . S
C2676 C2682 1.507 . S
C2677 C2678 1.384 . S
C2677 C2681 1.387 . S
C2677 H2704 0.930 . S
C2678 C2676 1.380 . S
C2678 C2677 1.384 . S
C2678 H2705 0.931 . S
C2679 C2676 1.374 . S
C2679 C2680 1.390 . S
C2679 H2706 0.930 . S
C2680 C2679 1.390 . S
C2680 C2681 1.391 . S
C2680 H2707 0.930 . S
C2681 C2677 1.387 . S
C2681 C2680 1.391 . S
C2682 Tb2672 2.825 . S
C2682 C2676 1.507 . S
C2682 O2695 1.238 . S
C2682 O2696 1.247 . S
O2683 Tb2672 2.347 . S
O2683 C2687 1.259 . S
O2684 Eu2673 2.418 . S
O2684 C2687 1.265 . S
O2685 Eu2673 2.384 . S
O2685 C2694 1.255 . S
O2686 Tb2672 2.366 . S
O2686 C2694 1.265 . S
C2687 O2683 1.259 . S
C2687 O2684 1.265 . S
O2688 Eu2673 2.479 . S
O2688 C2703 1.238 . S
O2689 Eu2673 2.471 . S
O2689 C2703 1.247 . S
O2690 Eu2673 2.347 . S
O2690 C2674 1.259 . S
O2691 Tb2672 2.418 . S
O2691 C2674 1.265 . S
O2692 Tb2672 2.384 . S
O2692 C2675 1.255 . S
O2693 Eu2673 2.366 . S
O2693 C2675 1.265 . S
C2694 O2685 1.255 . S
C2694 O2686 1.265 . S
O2695 Tb2672 2.479 . S
O2695 C2682 1.238 . S
O2696 Tb2672 2.471 . S
O2696 C2682 1.247 . S
C2697 C2700 1.380 . S
C2697 C2701 1.374 . S
C2697 C2703 1.507 . S
C2698 C2699 1.387 . S
C2698 C2702 1.391 . S
C2699 C2698 1.387 . S
C2699 C2700 1.384 . S
C2699 H2708 0.930 . S
C2700 C2697 1.380 . S
C2700 C2699 1.384 . S
C2700 H2709 0.931 . S
C2701 C2697 1.374 . S
C2701 C2702 1.390 . S
C2701 H2710 0.930 . S
C2702 C2698 1.391 . S
C2702 C2701 1.390 . S
C2702 H2711 0.930 . S
C2703 Eu2673 2.825 . S
C2703 O2688 1.238 . S
C2703 O2689 1.247 . S
C2703 C2697 1.507 . S
H2704 C2677 0.930 . S
H2705 C2678 0.931 . S
H2706 C2679 0.930 . S
H2707 C2680 0.930 . S
H2708 C2699 0.930 . S
H2709 C2700 0.931 . S
H2710 C2701 0.930 . S
H2711 C2702 0.930 . S
Tb2712 C2722 2.825 . S
Tb2712 O2723 2.347 1_554 S
Tb2712 O2726 2.366 . S
Tb2712 O2731 2.418 . S
Tb2712 O2732 2.384 . S
Tb2712 O2735 2.479 . S
Tb2712 O2736 2.471 1_554 S
Eu2713 O2724 2.418 1_554 S
Eu2713 O2725 2.384 . S
Eu2713 O2728 2.479 . S
Eu2713 O2729 2.471 . S
Eu2713 O2730 2.347 . S
Eu2713 O2733 2.366 . S
Eu2713 C2743 2.825 . S
C2714 O2730 1.259 . S
C2714 O2731 1.265 . S
C2715 O2732 1.255 . S
C2715 O2733 1.265 . S
C2716 C2718 1.380 1_556 S
C2716 C2719 1.374 . S
C2716 C2722 1.507 1_556 S
C2717 C2718 1.384 1_556 S
C2717 C2721 1.387 . S
C2717 H2744 0.930 1_556 S
C2718 C2716 1.380 1_554 S
C2718 C2717 1.384 1_554 S
C2718 H2745 0.931 . S
C2719 C2716 1.374 . S
C2719 C2720 1.390 . S
C2719 H2746 0.930 . S
C2720 C2719 1.390 . S
C2720 C2721 1.391 . S
C2720 H2747 0.930 . S
C2721 C2717 1.387 . S
C2721 C2720 1.391 . S
C2722 Tb2712 2.825 . S
C2722 C2716 1.507 1_554 S
C2722 O2735 1.238 . S
C2722 O2736 1.247 1_554 S
O2723 Tb2712 2.347 1_556 S
O2723 C2727 1.259 . S
O2724 Eu2713 2.418 1_556 S
O2724 C2727 1.265 . S
O2725 Eu2713 2.384 . S
O2725 C2734 1.255 . S
O2726 Tb2712 2.366 . S
O2726 C2734 1.265 . S
C2727 O2723 1.259 . S
C2727 O2724 1.265 . S
O2728 Eu2713 2.479 . S
O2728 C2743 1.238 . S
O2729 Eu2713 2.471 . S
O2729 C2743 1.247 . S
O2730 Eu2713 2.347 . S
O2730 C2714 1.259 . S
O2731 Tb2712 2.418 . S
O2731 C2714 1.265 . S
O2732 Tb2712 2.384 . S
O2732 C2715 1.255 . S
O2733 Eu2713 2.366 . S
O2733 C2715 1.265 . S
C2734 O2725 1.255 . S
C2734 O2726 1.265 . S
O2735 Tb2712 2.479 . S
O2735 C2722 1.238 . S
O2736 Tb2712 2.471 1_556 S
O2736 C2722 1.247 1_556 S
C2737 C2740 1.380 . S
C2737 C2741 1.374 . S
C2737 C2743 1.507 . S
C2738 C2739 1.387 . S
C2738 C2742 1.391 . S
C2739 C2738 1.387 . S
C2739 C2740 1.384 . S
C2739 H2748 0.930 . S
C2740 C2737 1.380 . S
C2740 C2739 1.384 . S
C2740 H2749 0.931 . S
C2741 C2737 1.374 . S
C2741 C2742 1.390 . S
C2741 H2750 0.930 . S
C2742 C2738 1.391 . S
C2742 C2741 1.390 . S
C2742 H2751 0.930 . S
C2743 Eu2713 2.825 . S
C2743 O2728 1.238 . S
C2743 O2729 1.247 . S
C2743 C2737 1.507 . S
H2744 C2717 0.930 1_554 S
H2745 C2718 0.931 . S
H2746 C2719 0.930 . S
H2747 C2720 0.930 . S
H2748 C2739 0.930 . S
H2749 C2740 0.931 . S
H2750 C2741 0.930 . S
H2751 C2742 0.930 . S
C2752 C2753 1.387 . S
C2752 H2756 0.950 1_455 S
C2752 C2761 1.390 . S
C2753 C2752 1.387 . S
C2753 C2755 1.387 . S
H2754 C2761 0.950 . S
C2755 C2753 1.387 . S
C2755 C2757 1.390 1_556 S
C2755 H2759 0.950 . S
H2756 C2752 0.950 1_655 S
C2757 C2755 1.390 1_554 S
C2757 C2758 1.387 . S
C2757 H2760 0.950 . S
C2758 C2757 1.387 . S
C2758 C2761 1.387 1_554 S
H2759 C2755 0.950 . S
H2760 C2757 0.950 . S
C2761 C2752 1.390 . S
C2761 H2754 0.950 . S
C2761 C2758 1.387 1_556 S
C2762 C2763 1.387 . S
C2762 H2766 0.950 . S
C2762 C2771 1.390 . S
C2763 C2762 1.387 . S
C2763 C2765 1.387 . S
H2764 C2771 0.950 . S
C2765 C2763 1.387 . S
C2765 C2767 1.390 . S
C2765 H2769 0.950 . S
H2766 C2762 0.950 . S
C2767 C2765 1.390 . S
C2767 C2768 1.387 . S
C2767 H2770 0.950 . S
C2768 C2767 1.387 . S
C2768 C2771 1.387 . S
H2769 C2765 0.950 . S
H2770 C2767 0.950 . S
C2771 C2762 1.390 . S
C2771 H2764 0.950 . S
C2771 C2768 1.387 . S
C2772 C2773 1.387 . S
C2772 H2776 0.950 . S
C2772 C2781 1.390 . S
C2773 C2772 1.387 . S
C2773 C2775 1.387 . S
H2774 C2781 0.950 . S
C2775 C2773 1.387 . S
C2775 C2777 1.390 . S
C2775 H2779 0.950 . S
H2776 C2772 0.950 . S
C2777 C2775 1.390 . S
C2777 C2778 1.387 . S
C2777 H2780 0.950 . S
C2778 C2777 1.387 . S
C2778 C2781 1.387 . S
H2779 C2775 0.950 . S
H2780 C2777 0.950 . S
C2781 C2772 1.390 . S
C2781 H2774 0.950 . S
C2781 C2778 1.387 . S
C2782 C2783 1.387 . S
C2782 H2786 0.950 . S
C2782 C2791 1.390 . S
C2783 C2782 1.387 . S
C2783 C2785 1.387 . S
H2784 C2791 0.950 . S
C2785 C2783 1.387 . S
C2785 C2787 1.390 . S
C2785 H2789 0.950 . S
H2786 C2782 0.950 . S
C2787 C2785 1.390 . S
C2787 C2788 1.387 . S
C2787 H2790 0.950 . S
C2788 C2787 1.387 . S
C2788 C2791 1.387 . S
H2789 C2785 0.950 . S
H2790 C2787 0.950 . S
C2791 C2782 1.390 . S
C2791 H2784 0.950 . S
C2791 C2788 1.387 . S
C2792 C2793 1.387 . S
C2792 H2796 0.950 . S
C2792 C2801 1.390 . S
C2793 C2792 1.387 . S
C2793 C2795 1.387 . S
H2794 C2801 0.950 . S
C2795 C2793 1.387 . S
C2795 C2797 1.390 . S
C2795 H2799 0.950 . S
H2796 C2792 0.950 . S
C2797 C2795 1.390 . S
C2797 C2798 1.387 . S
C2797 H2800 0.950 . S
C2798 C2797 1.387 . S
C2798 C2801 1.387 . S
H2799 C2795 0.950 . S
H2800 C2797 0.950 . S
C2801 C2792 1.390 . S
C2801 H2794 0.950 . S
C2801 C2798 1.387 . S
C2802 C2803 1.387 . S
C2802 H2806 0.950 . S
C2802 C2811 1.390 . S
C2803 C2802 1.387 . S
C2803 C2805 1.387 . S
H2804 C2811 0.950 . S
C2805 C2803 1.387 . S
C2805 C2807 1.390 . S
C2805 H2809 0.950 . S
H2806 C2802 0.950 . S
C2807 C2805 1.390 . S
C2807 C2808 1.387 . S
C2807 H2810 0.950 . S
C2808 C2807 1.387 . S
C2808 C2811 1.387 . S
H2809 C2805 0.950 . S
H2810 C2807 0.950 . S
C2811 C2802 1.390 . S
C2811 H2804 0.950 . S
C2811 C2808 1.387 . S
C2812 C2813 1.387 . S
C2812 H2816 0.950 . S
C2812 C2821 1.390 . S
C2813 C2812 1.387 . S
C2813 C2815 1.387 . S
H2814 C2821 0.950 . S
C2815 C2813 1.387 . S
C2815 C2817 1.390 . S
C2815 H2819 0.950 . S
H2816 C2812 0.950 . S
C2817 C2815 1.390 . S
C2817 C2818 1.387 . S
C2817 H2820 0.950 . S
C2818 C2817 1.387 . S
C2818 C2821 1.387 . S
H2819 C2815 0.950 . S
H2820 C2817 0.950 . S
C2821 C2812 1.390 . S
C2821 H2814 0.950 . S
C2821 C2818 1.387 . S
C2822 C2823 1.387 . S
C2822 H2826 0.950 . S
C2822 C2831 1.390 . S
C2823 C2822 1.387 . S
C2823 C2825 1.387 . S
H2824 C2831 0.950 . S
C2825 C2823 1.387 . S
C2825 C2827 1.390 . S
C2825 H2829 0.950 . S
H2826 C2822 0.950 . S
C2827 C2825 1.390 . S
C2827 C2828 1.387 . S
C2827 H2830 0.950 . S
C2828 C2827 1.387 . S
C2828 C2831 1.387 . S
H2829 C2825 0.950 . S
H2830 C2827 0.950 . S
C2831 C2822 1.390 . S
C2831 H2824 0.950 . S
C2831 C2828 1.387 . S
C2832 C2833 1.390 . S
C2832 H2836 0.946 1_545 S
C2832 C2841 1.392 1_655 S
C2833 C2832 1.390 . S
C2833 C2835 1.387 . S
H2834 C2841 0.950 . S
C2835 C2833 1.387 . S
C2835 C2837 1.390 1_655 S
C2835 H2839 0.950 . S
H2836 C2832 0.946 1_565 S
C2837 C2835 1.390 1_455 S
C2837 C2838 1.387 . S
C2837 H2840 0.950 . S
C2838 C2837 1.387 . S
C2838 C2841 1.387 . S
H2839 C2835 0.950 . S
H2840 C2837 0.950 . S
C2841 C2832 1.392 1_455 S
C2841 H2834 0.950 . S
C2841 C2838 1.387 . S
C2842 C2843 1.387 . S
C2842 H2846 0.950 . S
C2842 C2851 1.390 . S
C2843 C2842 1.387 . S
C2843 C2845 1.387 . S
H2844 C2851 0.950 . S
C2845 C2843 1.387 . S
C2845 C2847 1.390 . S
C2845 H2849 0.950 . S
H2846 C2842 0.950 . S
C2847 C2845 1.390 . S
C2847 C2848 1.387 . S
C2847 H2850 0.950 . S
C2848 C2847 1.387 . S
C2848 C2851 1.387 . S
H2849 C2845 0.950 . S
H2850 C2847 0.950 . S
C2851 C2842 1.390 . S
C2851 H2844 0.950 . S
C2851 C2848 1.387 . S
C2852 C2853 1.387 . S
C2852 H2856 0.950 . S
C2852 C2861 1.390 1_565 S
C2853 C2852 1.387 . S
C2853 C2855 1.387 1_565 S
H2854 C2861 0.950 . S
C2855 C2853 1.387 1_545 S
C2855 C2857 1.390 . S
C2855 H2859 0.950 . S
H2856 C2852 0.950 . S
C2857 C2855 1.390 . S
C2857 C2858 1.387 . S
C2857 H2860 0.950 . S
C2858 C2857 1.387 . S
C2858 C2861 1.387 . S
H2859 C2855 0.950 . S
H2860 C2857 0.950 . S
C2861 C2852 1.390 1_545 S
C2861 H2854 0.950 . S
C2861 C2858 1.387 . S
C2862 C2863 1.387 . S
C2862 H2866 0.950 . S
C2862 C2871 1.390 . S
C2863 C2862 1.387 . S
C2863 C2865 1.387 . S
H2864 C2871 0.950 . S
C2865 C2863 1.387 . S
C2865 C2867 1.390 . S
C2865 H2869 0.950 . S
H2866 C2862 0.950 . S
C2867 C2865 1.390 . S
C2867 C2868 1.387 . S
C2867 H2870 0.950 . S
C2868 C2867 1.387 . S
C2868 C2871 1.387 . S
H2869 C2865 0.950 . S
H2870 C2867 0.950 . S
C2871 C2862 1.390 . S
C2871 H2864 0.950 . S
C2871 C2868 1.387 . S
C2872 C2873 1.387 . S
C2872 H2876 0.950 1_545 S
C2872 C2881 1.390 . S
C2873 C2872 1.387 . S
C2873 C2875 1.387 1_655 S
H2874 C2881 0.950 . S
C2875 C2873 1.387 1_455 S
C2875 C2877 1.390 . S
C2875 H2879 0.950 . S
H2876 C2872 0.950 1_565 S
C2877 C2875 1.390 . S
C2877 C2878 1.387 1_455 S
C2877 H2880 0.950 . S
C2878 C2877 1.387 1_655 S
C2878 C2881 1.387 . S
H2879 C2875 0.950 . S
H2880 C2877 0.950 . S
C2881 C2872 1.390 . S
C2881 H2874 0.950 . S
C2881 C2878 1.387 . S
C2882 C2883 1.387 . S
C2882 H2886 0.950 . S
C2882 C2891 1.390 . S
C2883 C2882 1.387 . S
C2883 C2885 1.387 . S
H2884 C2891 0.950 . S
C2885 C2883 1.387 . S
C2885 C2887 1.390 . S
C2885 H2889 0.950 . S
H2886 C2882 0.950 . S
C2887 C2885 1.390 . S
C2887 C2888 1.387 . S
C2887 H2890 0.950 . S
C2888 C2887 1.387 . S
C2888 C2891 1.387 . S
H2889 C2885 0.950 . S
H2890 C2887 0.950 . S
C2891 C2882 1.390 . S
C2891 H2884 0.950 . S
C2891 C2888 1.387 . S
C2892 C2893 1.387 . S
C2892 H2896 0.940 1_545 S
C2892 C2901 1.390 . S
C2893 C2892 1.387 . S
C2893 C2895 1.387 . S
H2894 C2901 0.950 . S
C2895 C2893 1.387 . S
C2895 C2897 1.390 . S
C2895 H2899 0.950 . S
H2896 C2892 0.940 1_565 S
C2897 C2895 1.390 . S
C2897 C2898 1.387 . S
C2897 H2900 0.950 . S
C2898 C2897 1.387 . S
C2898 C2901 1.387 . S
H2899 C2895 0.950 . S
H2900 C2897 0.950 . S
C2901 C2892 1.390 . S
C2901 H2894 0.950 . S
C2901 C2898 1.387 . S
C2902 C2903 1.387 . S
C2902 H2906 0.950 . S
C2902 C2911 1.390 . S
C2903 C2902 1.387 . S
C2903 C2905 1.387 . S
H2904 C2911 0.950 . S
C2905 C2903 1.387 . S
C2905 C2907 1.390 . S
C2905 H2909 0.950 . S
H2906 C2902 0.950 . S
C2907 C2905 1.390 . S
C2907 C2908 1.387 . S
C2907 H2910 0.950 . S
C2908 C2907 1.387 . S
C2908 C2911 1.387 . S
H2909 C2905 0.950 . S
H2910 C2907 0.950 . S
C2911 C2902 1.390 . S
C2911 H2904 0.950 . S
C2911 C2908 1.387 . S
C2912 C2913 1.387 . S
C2912 H2916 0.950 . S
C2912 C2921 1.390 . S
C2913 C2912 1.387 . S
C2913 C2915 1.387 . S
H2914 C2921 0.950 . S
C2915 C2913 1.387 . S
C2915 C2917 1.390 . S
C2915 H2919 0.950 . S
H2916 C2912 0.950 . S
C2917 C2915 1.390 . S
C2917 C2918 1.387 . S
C2917 H2920 0.950 . S
C2918 C2917 1.387 . S
C2918 C2921 1.387 . S
H2919 C2915 0.950 . S
H2920 C2917 0.950 . S
C2921 C2912 1.390 . S
C2921 H2914 0.950 . S
C2921 C2918 1.387 . S
C2922 C2923 1.387 . S
C2922 H2926 0.950 . S
C2922 C2931 1.390 . S
C2923 C2922 1.387 . S
C2923 C2925 1.371 1_554 S
H2924 C2931 0.950 . S
C2925 C2923 1.371 1_556 S
C2925 C2927 1.380 1_556 S
C2925 H2929 0.977 . S
H2926 C2922 0.950 . S
C2927 C2925 1.380 1_554 S
C2927 C2928 1.387 . S
C2927 H2930 0.950 1_554 S
C2928 C2927 1.387 . S
C2928 C2931 1.387 . S
H2929 C2925 0.977 . S
H2930 C2927 0.950 1_556 S
C2931 C2922 1.390 . S
C2931 H2924 0.950 . S
C2931 C2928 1.387 . S
C2932 C2933 1.387 . S
C2932 H2936 0.950 . S
C2932 C2941 1.390 . S
C2933 C2932 1.387 . S
C2933 C2935 1.387 . S
H2934 C2941 0.950 . S
C2935 C2933 1.387 . S
C2935 C2937 1.390 . S
C2935 H2939 0.950 . S
H2936 C2932 0.950 . S
C2937 C2935 1.390 . S
C2937 C2938 1.387 . S
C2937 H2940 0.950 . S
C2938 C2937 1.387 . S
C2938 C2941 1.387 . S
H2939 C2935 0.950 . S
H2940 C2937 0.950 . S
C2941 C2932 1.390 . S
C2941 H2934 0.950 . S
C2941 C2938 1.387 . S
C2942 C2943 1.387 . S
C2942 H2946 0.950 . S
C2942 C2951 1.390 . S
C2943 C2942 1.387 . S
C2943 C2945 1.387 . S
H2944 C2951 0.950 . S
C2945 C2943 1.387 . S
C2945 C2947 1.390 . S
C2945 H2949 0.950 . S
H2946 C2942 0.950 . S
C2947 C2945 1.390 . S
C2947 C2948 1.387 . S
C2947 H2950 0.950 . S
C2948 C2947 1.387 . S
C2948 C2951 1.387 . S
H2949 C2945 0.950 . S
H2950 C2947 0.950 . S
C2951 C2942 1.390 . S
C2951 H2944 0.950 . S
C2951 C2948 1.387 . S
C2952 C2953 1.387 . S
C2952 H2956 0.950 . S
C2952 C2961 1.390 . S
C2953 C2952 1.387 . S
C2953 C2955 1.387 . S
H2954 C2961 0.950 . S
C2955 C2953 1.387 . S
C2955 C2957 1.390 . S
C2955 H2959 0.950 . S
H2956 C2952 0.950 . S
C2957 C2955 1.390 . S
C2957 C2958 1.387 . S
C2957 H2960 0.950 . S
C2958 C2957 1.387 . S
C2958 C2961 1.387 . S
H2959 C2955 0.950 . S
H2960 C2957 0.950 . S
C2961 C2952 1.390 . S
C2961 H2954 0.950 . S
C2961 C2958 1.387 . S
C2962 C2963 1.387 . S
C2962 H2966 0.950 . S
C2962 C2971 1.390 . S
C2963 C2962 1.387 . S
C2963 C2965 1.387 . S
H2964 C2971 0.950 . S
C2965 C2963 1.387 . S
C2965 C2967 1.390 . S
C2965 H2969 0.950 . S
H2966 C2962 0.950 . S
C2967 C2965 1.390 . S
C2967 C2968 1.387 . S
C2967 H2970 0.950 . S
C2968 C2967 1.387 . S
C2968 C2971 1.387 . S
H2969 C2965 0.950 . S
H2970 C2967 0.950 . S
C2971 C2962 1.390 . S
C2971 H2964 0.950 . S
C2971 C2968 1.387 . S
C2972 C2973 1.387 . S
C2972 H2976 0.950 . S
C2972 C2981 1.390 . S
C2973 C2972 1.387 . S
C2973 C2975 1.387 . S
H2974 C2981 0.950 . S
C2975 C2973 1.387 . S
C2975 C2977 1.390 . S
C2975 H2979 0.950 . S
H2976 C2972 0.950 . S
C2977 C2975 1.390 . S
C2977 C2978 1.387 . S
C2977 H2980 0.950 . S
C2978 C2977 1.387 . S
C2978 C2981 1.387 . S
H2979 C2975 0.950 . S
H2980 C2977 0.950 . S
C2981 C2972 1.390 . S
C2981 H2974 0.950 . S
C2981 C2978 1.387 . S
C2982 C2983 1.387 . S
C2982 H2986 0.950 . S
C2982 C2991 1.390 . S
C2983 C2982 1.387 . S
C2983 C2985 1.387 . S
H2984 C2991 0.950 . S
C2985 C2983 1.387 . S
C2985 C2987 1.390 . S
C2985 H2989 0.950 . S
H2986 C2982 0.950 . S
C2987 C2985 1.390 . S
C2987 C2988 1.387 . S
C2987 H2990 0.950 . S
C2988 C2987 1.387 . S
C2988 C2991 1.387 . S
H2989 C2985 0.950 . S
H2990 C2987 0.950 . S
C2991 C2982 1.390 . S
C2991 H2984 0.950 . S
C2991 C2988 1.387 . S
C2992 C2993 1.387 . S
C2992 H2996 0.950 . S
C2992 C3001 1.390 . S
C2993 C2992 1.387 . S
C2993 C2995 1.387 . S
H2994 C3001 0.950 . S
C2995 C2993 1.387 . S
C2995 C2997 1.390 . S
C2995 H2999 0.950 . S
H2996 C2992 0.950 . S
C2997 C2995 1.390 . S
C2997 C2998 1.387 . S
C2997 H3000 0.950 . S
C2998 C2997 1.387 . S
C2998 C3001 1.387 . S
H2999 C2995 0.950 . S
H3000 C2997 0.950 . S
C3001 C2992 1.390 . S
C3001 H2994 0.950 . S
C3001 C2998 1.387 . S
C3002 C3003 1.387 . S
C3002 H3006 0.950 . S
C3002 C3011 1.390 . S
C3003 C3002 1.387 . S
C3003 C3005 1.387 . S
H3004 C3011 0.950 . S
C3005 C3003 1.387 . S
C3005 C3007 1.390 . S
C3005 H3009 0.950 . S
H3006 C3002 0.950 . S
C3007 C3005 1.390 . S
C3007 C3008 1.387 . S
C3007 H3010 0.950 . S
C3008 C3007 1.387 . S
C3008 C3011 1.387 . S
H3009 C3005 0.950 . S
H3010 C3007 0.950 . S
C3011 C3002 1.390 . S
C3011 H3004 0.950 . S
C3011 C3008 1.387 . S
C3012 C3013 1.387 . S
C3012 H3016 0.950 . S
C3012 C3021 1.390 . S
C3013 C3012 1.387 . S
C3013 C3015 1.387 . S
H3014 C3021 0.950 . S
C3015 C3013 1.387 . S
C3015 C3017 1.390 . S
C3015 H3019 0.950 . S
H3016 C3012 0.950 . S
C3017 C3015 1.390 . S
C3017 C3018 1.387 . S
C3017 H3020 0.950 . S
C3018 C3017 1.387 . S
C3018 C3021 1.387 . S
H3019 C3015 0.950 . S
H3020 C3017 0.950 . S
C3021 C3012 1.390 . S
C3021 H3014 0.950 . S
C3021 C3018 1.387 . S
C3022 C3023 1.387 . S
C3022 H3026 0.950 . S
C3022 C3031 1.390 . S
C3023 C3022 1.387 . S
C3023 C3025 1.387 . S
H3024 C3031 0.950 . S
C3025 C3023 1.387 . S
C3025 C3027 1.390 . S
C3025 H3029 0.950 . S
H3026 C3022 0.950 . S
C3027 C3025 1.390 . S
C3027 C3028 1.387 . S
C3027 H3030 0.950 . S
C3028 C3027 1.387 . S
C3028 C3031 1.387 . S
H3029 C3025 0.950 . S
H3030 C3027 0.950 . S
C3031 C3022 1.390 . S
C3031 H3024 0.950 . S
C3031 C3028 1.387 . S
C3032 C3033 1.387 . S
C3032 H3036 0.950 . S
C3032 C3041 1.390 . S
C3033 C3032 1.387 . S
C3033 C3035 1.387 . S
H3034 C3041 0.950 . S
C3035 C3033 1.387 . S
C3035 C3037 1.390 . S
C3035 H3039 0.950 . S
H3036 C3032 0.950 . S
C3037 C3035 1.390 . S
C3037 C3038 1.387 . S
C3037 H3040 0.950 . S
C3038 C3037 1.387 . S
C3038 C3041 1.387 . S
H3039 C3035 0.950 . S
H3040 C3037 0.950 . S
C3041 C3032 1.390 . S
C3041 H3034 0.950 . S
C3041 C3038 1.387 . S
C3042 C3043 1.387 . S
C3042 H3046 0.950 . S
C3042 C3051 1.390 . S
C3043 C3042 1.387 . S
C3043 C3045 1.387 . S
H3044 C3051 0.950 . S
C3045 C3043 1.387 . S
C3045 C3047 1.390 . S
C3045 H3049 0.950 . S
H3046 C3042 0.950 . S
C3047 C3045 1.390 . S
C3047 C3048 1.387 . S
C3047 H3050 0.950 . S
C3048 C3047 1.387 . S
C3048 C3051 1.387 . S
H3049 C3045 0.950 . S
H3050 C3047 0.950 . S
C3051 C3042 1.390 . S
C3051 H3044 0.950 . S
C3051 C3048 1.387 . S
C3052 C3053 1.387 . S
C3052 H3056 0.950 . S
C3052 C3061 1.390 . S
C3053 C3052 1.387 . S
C3053 C3055 1.375 1_556 S
H3054 C3061 0.950 . S
C3055 C3053 1.375 1_554 S
C3055 C3057 1.396 . S
C3055 H3059 0.957 . S
H3056 C3052 0.950 . S
C3057 C3055 1.396 . S
C3057 C3058 1.387 1_554 S
C3057 H3060 0.950 . S
C3058 C3057 1.387 1_556 S
C3058 C3061 1.387 . S
H3059 C3055 0.957 . S
H3060 C3057 0.950 . S
C3061 C3052 1.390 . S
C3061 H3054 0.950 . S
C3061 C3058 1.387 . S
C3062 C3063 1.387 . S
C3062 H3066 0.950 . S
C3062 C3071 1.390 . S
C3063 C3062 1.387 . S
C3063 C3065 1.387 . S
H3064 C3071 0.950 . S
C3065 C3063 1.387 . S
C3065 C3067 1.390 . S
C3065 H3069 0.950 . S
H3066 C3062 0.950 . S
C3067 C3065 1.390 . S
C3067 C3068 1.387 . S
C3067 H3070 0.950 . S
C3068 C3067 1.387 . S
C3068 C3071 1.387 . S
H3069 C3065 0.950 . S
H3070 C3067 0.950 . S
C3071 C3062 1.390 . S
C3071 H3064 0.950 . S
C3071 C3068 1.387 . S
C3072 C3073 1.387 . S
C3072 H3076 0.950 . S
C3072 C3081 1.390 . S
C3073 C3072 1.387 . S
C3073 C3075 1.387 . S
H3074 C3081 0.950 . S
C3075 C3073 1.387 . S
C3075 C3077 1.390 . S
C3075 H3079 0.950 . S
H3076 C3072 0.950 . S
C3077 C3075 1.390 . S
C3077 C3078 1.387 . S
C3077 H3080 0.950 . S
C3078 C3077 1.387 . S
C3078 C3081 1.387 . S
H3079 C3075 0.950 . S
H3080 C3077 0.950 . S
C3081 C3072 1.390 . S
C3081 H3074 0.950 . S
C3081 C3078 1.387 . S
C3082 C3083 1.387 . S
C3082 H3086 0.950 . S
C3082 C3091 1.390 . S
C3083 C3082 1.387 . S
C3083 C3085 1.387 . S
H3084 C3091 0.950 . S
C3085 C3083 1.387 . S
C3085 C3087 1.390 . S
C3085 H3089 0.950 . S
H3086 C3082 0.950 . S
C3087 C3085 1.390 . S
C3087 C3088 1.387 . S
C3087 H3090 0.950 . S
C3088 C3087 1.387 . S
C3088 C3091 1.387 . S
H3089 C3085 0.950 . S
H3090 C3087 0.950 . S
C3091 C3082 1.390 . S
C3091 H3084 0.950 . S
C3091 C3088 1.387 . S
C3092 C3093 1.387 . S
C3092 H3096 0.950 . S
C3092 C3101 1.390 . S
C3093 C3092 1.387 . S
C3093 C3095 1.387 . S
H3094 C3101 0.950 . S
C3095 C3093 1.387 . S
C3095 C3097 1.390 . S
C3095 H3099 0.950 . S
H3096 C3092 0.950 . S
C3097 C3095 1.390 . S
C3097 C3098 1.387 . S
C3097 H3100 0.950 . S
C3098 C3097 1.387 . S
C3098 C3101 1.387 . S
H3099 C3095 0.950 . S
H3100 C3097 0.950 . S
C3101 C3092 1.390 . S
C3101 H3094 0.950 . S
C3101 C3098 1.387 . S
C3102 C3103 1.387 . S
C3102 H3106 0.950 . S
C3102 C3111 1.390 . S
C3103 C3102 1.387 . S
C3103 C3105 1.387 . S
H3104 C3111 0.950 . S
C3105 C3103 1.387 . S
C3105 C3107 1.390 . S
C3105 H3109 0.950 . S
H3106 C3102 0.950 . S
C3107 C3105 1.390 . S
C3107 C3108 1.387 . S
C3107 H3110 0.950 . S
C3108 C3107 1.387 . S
C3108 C3111 1.387 . S
H3109 C3105 0.950 . S
H3110 C3107 0.950 . S
C3111 C3102 1.390 . S
C3111 H3104 0.950 . S
C3111 C3108 1.387 . S
C3112 C3113 1.387 . S
C3112 H3116 0.950 . S
C3112 C3121 1.390 . S
C3113 C3112 1.387 . S
C3113 C3115 1.387 . S
H3114 C3121 0.950 . S
C3115 C3113 1.387 . S
C3115 C3117 1.390 . S
C3115 H3119 0.950 . S
H3116 C3112 0.950 . S
C3117 C3115 1.390 . S
C3117 C3118 1.387 . S
C3117 H3120 0.950 . S
C3118 C3117 1.387 . S
C3118 C3121 1.387 . S
H3119 C3115 0.950 . S
H3120 C3117 0.950 . S
C3121 C3112 1.390 . S
C3121 H3114 0.950 . S
C3121 C3118 1.387 . S
C3122 C3123 1.387 . S
C3122 H3126 0.950 . S
C3122 C3131 1.390 . S
C3123 C3122 1.387 . S
C3123 C3125 1.387 . S
H3124 C3131 0.950 . S
C3125 C3123 1.387 . S
C3125 C3127 1.390 . S
C3125 H3129 0.950 . S
H3126 C3122 0.950 . S
C3127 C3125 1.390 . S
C3127 C3128 1.387 . S
C3127 H3130 0.950 . S
C3128 C3127 1.387 . S
C3128 C3131 1.387 . S
H3129 C3125 0.950 . S
H3130 C3127 0.950 . S
C3131 C3122 1.390 . S
C3131 H3124 0.950 . S
C3131 C3128 1.387 . S
C3132 C3133 1.387 . S
C3132 H3136 0.950 . S
C3132 C3141 1.390 . S
C3133 C3132 1.387 . S
C3133 C3135 1.387 . S
H3134 C3141 0.950 . S
C3135 C3133 1.387 . S
C3135 C3137 1.390 . S
C3135 H3139 0.950 . S
H3136 C3132 0.950 . S
C3137 C3135 1.390 . S
C3137 C3138 1.387 . S
C3137 H3140 0.950 . S
C3138 C3137 1.387 . S
C3138 C3141 1.387 . S
H3139 C3135 0.950 . S
H3140 C3137 0.950 . S
C3141 C3132 1.390 . S
C3141 H3134 0.950 . S
C3141 C3138 1.387 . S
C3142 C3143 1.387 . S
C3142 H3146 0.950 . S
C3142 C3151 1.390 . S
C3143 C3142 1.387 . S
C3143 C3145 1.387 . S
H3144 C3151 0.950 . S
C3145 C3143 1.387 . S
C3145 C3147 1.390 . S
C3145 H3149 0.950 . S
H3146 C3142 0.950 . S
C3147 C3145 1.390 . S
C3147 C3148 1.387 . S
C3147 H3150 0.950 . S
C3148 C3147 1.387 . S
C3148 C3151 1.387 . S
H3149 C3145 0.950 . S
H3150 C3147 0.950 . S
C3151 C3142 1.390 . S
C3151 H3144 0.950 . S
C3151 C3148 1.387 . S
C3152 C3153 1.387 1_554 S
C3152 H3156 0.950 . S
C3152 C3161 1.390 1_554 S
C3153 C3152 1.387 1_556 S
C3153 C3155 1.387 . S
H3154 C3161 0.950 1_554 S
C3155 C3153 1.387 . S
C3155 C3157 1.390 . S
C3155 H3159 0.950 . S
H3156 C3152 0.950 . S
C3157 C3155 1.390 . S
C3157 C3158 1.387 . S
C3157 H3160 0.950 . S
C3158 C3157 1.387 . S
C3158 C3161 1.387 . S
H3159 C3155 0.950 . S
H3160 C3157 0.950 . S
C3161 C3152 1.390 1_556 S
C3161 H3154 0.950 1_556 S
C3161 C3158 1.387 . S
C3162 C3163 1.387 . S
C3162 H3166 0.950 . S
C3162 C3171 1.390 . S
C3163 C3162 1.387 . S
C3163 C3165 1.387 . S
H3164 C3171 0.950 . S
C3165 C3163 1.387 . S
C3165 C3167 1.390 . S
C3165 H3169 0.950 . S
H3166 C3162 0.950 . S
C3167 C3165 1.390 . S
C3167 C3168 1.387 . S
C3167 H3170 0.954 1_554 S
C3168 C3167 1.387 . S
C3168 C3171 1.387 . S
H3169 C3165 0.950 . S
H3170 C3167 0.954 1_556 S
C3171 C3162 1.390 . S
C3171 H3164 0.950 . S
C3171 C3168 1.387 . S
C3172 C3173 1.387 . S
C3172 H3176 0.950 . S
C3172 C3181 1.390 . S
C3173 C3172 1.387 . S
C3173 C3175 1.387 . S
H3174 C3181 0.950 . S
C3175 C3173 1.387 . S
C3175 C3177 1.390 . S
C3175 H3179 0.950 . S
H3176 C3172 0.950 . S
C3177 C3175 1.390 . S
C3177 C3178 1.387 . S
C3177 H3180 0.950 . S
C3178 C3177 1.387 . S
C3178 C3181 1.387 . S
H3179 C3175 0.950 . S
H3180 C3177 0.950 . S
C3181 C3172 1.390 . S
C3181 H3174 0.950 . S
C3181 C3178 1.387 . S
C3182 C3183 1.387 . S
C3182 H3186 0.950 . S
C3182 C3191 1.390 . S
C3183 C3182 1.387 . S
C3183 C3185 1.387 . S
H3184 C3191 0.950 . S
C3185 C3183 1.387 . S
C3185 C3187 1.390 . S
C3185 H3189 0.950 . S
H3186 C3182 0.950 . S
C3187 C3185 1.390 . S
C3187 C3188 1.387 . S
C3187 H3190 0.950 . S
C3188 C3187 1.387 . S
C3188 C3191 1.387 . S
H3189 C3185 0.950 . S
H3190 C3187 0.950 . S
C3191 C3182 1.390 . S
C3191 H3184 0.950 . S
C3191 C3188 1.387 . S
C3192 C3193 1.387 . S
C3192 H3196 0.950 . S
C3192 C3201 1.390 . S
C3193 C3192 1.387 . S
C3193 C3195 1.387 . S
H3194 C3201 0.950 . S
C3195 C3193 1.387 . S
C3195 C3197 1.390 . S
C3195 H3199 0.950 . S
H3196 C3192 0.950 . S
C3197 C3195 1.390 . S
C3197 C3198 1.387 . S
C3197 H3200 0.950 . S
C3198 C3197 1.387 . S
C3198 C3201 1.387 . S
H3199 C3195 0.950 . S
H3200 C3197 0.950 . S
C3201 C3192 1.390 . S
C3201 H3194 0.950 . S
C3201 C3198 1.387 . S
C3202 C3203 1.387 . S
C3202 H3206 0.950 . S
C3202 C3211 1.390 . S
C3203 C3202 1.387 . S
C3203 C3205 1.387 . S
H3204 C3211 0.950 . S
C3205 C3203 1.387 . S
C3205 C3207 1.390 . S
C3205 H3209 0.950 . S
H3206 C3202 0.950 . S
C3207 C3205 1.390 . S
C3207 C3208 1.387 . S
C3207 H3210 0.950 . S
C3208 C3207 1.387 . S
C3208 C3211 1.387 . S
H3209 C3205 0.950 . S
H3210 C3207 0.950 . S
C3211 C3202 1.390 . S
C3211 H3204 0.950 . S
C3211 C3208 1.387 . S
C3212 C3213 1.387 . S
C3212 H3216 0.950 . S
C3212 C3221 1.390 . S
C3213 C3212 1.387 . S
C3213 C3215 1.387 . S
H3214 C3221 0.950 . S
C3215 C3213 1.387 . S
C3215 C3217 1.390 . S
C3215 H3219 0.950 . S
H3216 C3212 0.950 . S
C3217 C3215 1.390 . S
C3217 C3218 1.387 . S
C3217 H3220 0.950 . S
C3218 C3217 1.387 . S
C3218 C3221 1.387 . S
H3219 C3215 0.950 . S
H3220 C3217 0.950 . S
C3221 C3212 1.390 . S
C3221 H3214 0.950 . S
C3221 C3218 1.387 . S
C3222 C3223 1.387 . S
C3222 H3226 0.950 . S
C3222 C3231 1.390 . S
C3223 C3222 1.387 . S
C3223 C3225 1.387 . S
H3224 C3231 0.950 . S
C3225 C3223 1.387 . S
C3225 C3227 1.390 . S
C3225 H3229 0.950 . S
H3226 C3222 0.950 . S
C3227 C3225 1.390 . S
C3227 C3228 1.387 . S
C3227 H3230 0.950 . S
C3228 C3227 1.387 . S
C3228 C3231 1.387 . S
H3229 C3225 0.950 . S
H3230 C3227 0.950 . S
C3231 C3222 1.390 . S
C3231 H3224 0.950 . S
C3231 C3228 1.387 . S
C3232 C3233 1.387 . S
C3232 H3236 0.950 . S
C3232 C3241 1.390 . S
C3233 C3232 1.387 . S
C3233 C3235 1.387 . S
H3234 C3241 0.950 . S
C3235 C3233 1.387 . S
C3235 C3237 1.390 . S
C3235 H3239 0.950 . S
H3236 C3232 0.950 . S
C3237 C3235 1.390 . S
C3237 C3238 1.387 . S
C3237 H3240 0.950 . S
C3238 C3237 1.387 . S
C3238 C3241 1.387 . S
H3239 C3235 0.950 . S
H3240 C3237 0.950 . S
C3241 C3232 1.390 . S
C3241 H3234 0.950 . S
C3241 C3238 1.387 . S
C3242 C3243 1.387 . S
C3242 H3246 0.950 . S
C3242 C3251 1.390 . S
C3243 C3242 1.387 . S
C3243 C3245 1.387 . S
H3244 C3251 0.950 . S
C3245 C3243 1.387 . S
C3245 C3247 1.390 . S
C3245 H3249 0.950 . S
H3246 C3242 0.950 . S
C3247 C3245 1.390 . S
C3247 C3248 1.387 . S
C3247 H3250 0.950 . S
C3248 C3247 1.387 . S
C3248 C3251 1.387 . S
H3249 C3245 0.950 . S
H3250 C3247 0.950 . S
C3251 C3242 1.390 . S
C3251 H3244 0.950 . S
C3251 C3248 1.387 . S
C3252 C3253 1.387 . S
C3252 H3256 0.950 . S
C3252 C3261 1.390 . S
C3253 C3252 1.387 . S
C3253 C3255 1.387 . S
H3254 C3261 0.950 . S
C3255 C3253 1.387 . S
C3255 C3257 1.390 . S
C3255 H3259 0.950 1_556 S
H3256 C3252 0.950 . S
C3257 C3255 1.390 . S
C3257 C3258 1.387 . S
C3257 H3260 0.950 1_556 S
C3258 C3257 1.387 . S
C3258 C3261 1.387 . S
H3259 C3255 0.950 1_554 S
H3260 C3257 0.950 1_554 S
C3261 C3252 1.390 . S
C3261 H3254 0.950 . S
C3261 C3258 1.387 . S
C3262 C3263 1.387 . S
C3262 H3266 0.950 . S
C3262 C3271 1.390 . S
C3263 C3262 1.387 . S
C3263 C3265 1.387 . S
H3264 C3271 0.950 . S
C3265 C3263 1.387 . S
C3265 C3267 1.390 . S
C3265 H3269 0.950 . S
H3266 C3262 0.950 . S
C3267 C3265 1.390 . S
C3267 C3268 1.387 . S
C3267 H3270 0.950 . S
C3268 C3267 1.387 . S
C3268 C3271 1.387 . S
H3269 C3265 0.950 . S
H3270 C3267 0.950 . S
C3271 C3262 1.390 . S
C3271 H3264 0.950 . S
C3271 C3268 1.387 . S
C3272 C3273 1.387 . S
C3272 H3276 0.950 . S
C3272 C3281 1.390 . S
C3273 C3272 1.387 . S
C3273 C3275 1.387 . S
H3274 C3281 0.950 . S
C3275 C3273 1.387 . S
C3275 C3277 1.390 . S
C3275 H3279 0.950 . S
H3276 C3272 0.950 . S
C3277 C3275 1.390 . S
C3277 C3278 1.387 . S
C3277 H3280 0.950 . S
C3278 C3277 1.387 . S
C3278 C3281 1.387 . S
H3279 C3275 0.950 . S
H3280 C3277 0.950 . S
C3281 C3272 1.390 . S
C3281 H3274 0.950 . S
C3281 C3278 1.387 . S
C3282 C3283 1.387 . S
C3282 H3286 0.950 . S
C3282 C3291 1.390 . S
C3283 C3282 1.387 . S
C3283 C3285 1.387 . S
H3284 C3291 0.950 . S
C3285 C3283 1.387 . S
C3285 C3287 1.390 . S
C3285 H3289 0.950 . S
H3286 C3282 0.950 . S
C3287 C3285 1.390 . S
C3287 C3288 1.387 . S
C3287 H3290 0.950 . S
C3288 C3287 1.387 . S
C3288 C3291 1.387 . S
H3289 C3285 0.950 . S
H3290 C3287 0.950 . S
C3291 C3282 1.390 . S
C3291 H3284 0.950 . S
C3291 C3288 1.387 . S
C3292 C3293 1.387 . S
C3292 H3296 0.950 . S
C3292 C3301 1.390 . S
C3293 C3292 1.387 . S
C3293 C3295 1.387 . S
H3294 C3301 0.950 . S
C3295 C3293 1.387 . S
C3295 C3297 1.390 . S
C3295 H3299 0.950 . S
H3296 C3292 0.950 . S
C3297 C3295 1.390 . S
C3297 C3298 1.387 . S
C3297 H3300 0.950 . S
C3298 C3297 1.387 . S
C3298 C3301 1.387 . S
H3299 C3295 0.950 . S
H3300 C3297 0.950 . S
C3301 C3292 1.390 . S
C3301 H3294 0.950 . S
C3301 C3298 1.387 . S
C3302 C3303 1.387 . S
C3302 H3306 0.950 . S
C3302 C3311 1.390 . S
C3303 C3302 1.387 . S
C3303 C3305 1.387 . S
H3304 C3311 0.950 . S
C3305 C3303 1.387 . S
C3305 C3307 1.390 . S
C3305 H3309 0.950 . S
H3306 C3302 0.950 . S
C3307 C3305 1.390 . S
C3307 C3308 1.387 . S
C3307 H3310 0.950 . S
C3308 C3307 1.387 . S
C3308 C3311 1.387 . S
H3309 C3305 0.950 . S
H3310 C3307 0.950 . S
C3311 C3302 1.390 . S
C3311 H3304 0.950 . S
C3311 C3308 1.387 . S
C3312 C3313 1.387 . S
C3312 H3316 0.950 . S
C3312 C3321 1.390 . S
C3313 C3312 1.387 . S
C3313 C3315 1.387 . S
H3314 C3321 0.950 . S
C3315 C3313 1.387 . S
C3315 C3317 1.390 . S
C3315 H3319 0.950 . S
H3316 C3312 0.950 . S
C3317 C3315 1.390 . S
C3317 C3318 1.387 . S
C3317 H3320 0.950 . S
C3318 C3317 1.387 . S
C3318 C3321 1.387 . S
H3319 C3315 0.950 . S
H3320 C3317 0.950 . S
C3321 C3312 1.390 . S
C3321 H3314 0.950 . S
C3321 C3318 1.387 . S
C3322 C3323 1.387 . S
C3322 H3326 0.950 . S
C3322 C3331 1.390 . S
C3323 C3322 1.387 . S
C3323 C3325 1.387 . S
H3324 C3331 0.950 . S
C3325 C3323 1.387 . S
C3325 C3327 1.390 . S
C3325 H3329 0.950 . S
H3326 C3322 0.950 . S
C3327 C3325 1.390 . S
C3327 C3328 1.387 . S
C3327 H3330 0.950 . S
C3328 C3327 1.387 . S
C3328 C3331 1.387 . S
H3329 C3325 0.950 . S
H3330 C3327 0.950 . S
C3331 C3322 1.390 . S
C3331 H3324 0.950 . S
C3331 C3328 1.387 . S
C3332 C3333 1.387 . S
C3332 H3336 0.950 . S
C3332 C3341 1.390 . S
C3333 C3332 1.387 . S
C3333 C3335 1.387 . S
H3334 C3341 0.950 . S
C3335 C3333 1.387 . S
C3335 C3337 1.390 . S
C3335 H3339 0.950 . S
H3336 C3332 0.950 . S
C3337 C3335 1.390 . S
C3337 C3338 1.387 . S
C3337 H3340 0.950 . S
C3338 C3337 1.387 . S
C3338 C3341 1.387 . S
H3339 C3335 0.950 . S
H3340 C3337 0.950 . S
C3341 C3332 1.390 . S
C3341 H3334 0.950 . S
C3341 C3338 1.387 . S
C3342 C3343 1.387 . S
C3342 H3346 0.950 . S
C3342 C3351 1.390 . S
C3343 C3342 1.387 . S
C3343 C3345 1.387 . S
H3344 C3351 0.950 . S
C3345 C3343 1.387 . S
C3345 C3347 1.390 . S
C3345 H3349 0.950 . S
H3346 C3342 0.950 . S
C3347 C3345 1.390 . S
C3347 C3348 1.387 . S
C3347 H3350 0.950 . S
C3348 C3347 1.387 . S
C3348 C3351 1.387 . S
H3349 C3345 0.950 . S
H3350 C3347 0.950 . S
C3351 C3342 1.390 . S
C3351 H3344 0.950 . S
C3351 C3348 1.387 . S
C3352 C3353 1.387 . S
C3352 H3356 0.950 . S
C3352 C3361 1.390 . S
C3353 C3352 1.387 . S
C3353 C3355 1.387 . S
H3354 C3361 0.950 . S
C3355 C3353 1.387 . S
C3355 C3357 1.390 . S
C3355 H3359 0.950 . S
H3356 C3352 0.950 . S
C3357 C3355 1.390 . S
C3357 C3358 1.387 . S
C3357 H3360 0.950 . S
C3358 C3357 1.387 . S
C3358 C3361 1.387 . S
H3359 C3355 0.950 . S
H3360 C3357 0.950 . S
C3361 C3352 1.390 . S
C3361 H3354 0.950 . S
C3361 C3358 1.387 . S
C3362 C3363 1.387 . S
C3362 H3366 0.950 . S
C3362 C3371 1.390 . S
C3363 C3362 1.387 . S
C3363 C3365 1.387 . S
H3364 C3371 0.950 . S
C3365 C3363 1.387 . S
C3365 C3367 1.390 . S
C3365 H3369 0.950 . S
H3366 C3362 0.950 . S
C3367 C3365 1.390 . S
C3367 C3368 1.387 . S
C3367 H3370 0.950 . S
C3368 C3367 1.387 . S
C3368 C3371 1.387 . S
H3369 C3365 0.950 . S
H3370 C3367 0.950 . S
C3371 C3362 1.390 . S
C3371 H3364 0.950 . S
C3371 C3368 1.387 . S
C3372 C3373 1.387 . S
C3372 H3376 0.950 . S
C3372 C3381 1.390 . S
C3373 C3372 1.387 . S
C3373 C3375 1.387 . S
H3374 C3381 0.950 . S
C3375 C3373 1.387 . S
C3375 C3377 1.390 . S
C3375 H3379 0.950 . S
H3376 C3372 0.950 . S
C3377 C3375 1.390 . S
C3377 C3378 1.387 . S
C3377 H3380 0.950 . S
C3378 C3377 1.387 . S
C3378 C3381 1.387 . S
H3379 C3375 0.950 . S
H3380 C3377 0.950 . S
C3381 C3372 1.390 . S
C3381 H3374 0.950 . S
C3381 C3378 1.387 . S
C3382 C3383 1.387 . S
C3382 H3386 0.950 . S
C3382 C3391 1.390 . S
C3383 C3382 1.387 . S
C3383 C3385 1.387 . S
H3384 C3391 0.950 . S
C3385 C3383 1.387 . S
C3385 C3387 1.390 . S
C3385 H3389 0.950 . S
H3386 C3382 0.950 . S
C3387 C3385 1.390 . S
C3387 C3388 1.387 . S
C3387 H3390 0.950 . S
C3388 C3387 1.387 . S
C3388 C3391 1.387 . S
H3389 C3385 0.950 . S
H3390 C3387 0.950 . S
C3391 C3382 1.390 . S
C3391 H3384 0.950 . S
C3391 C3388 1.387 . S
C3392 C3393 1.387 . S
C3392 H3396 0.950 . S
C3392 C3401 1.390 . S
C3393 C3392 1.387 . S
C3393 C3395 1.387 . S
H3394 C3401 0.950 . S
C3395 C3393 1.387 . S
C3395 C3397 1.390 . S
C3395 H3399 0.950 . S
H3396 C3392 0.950 . S
C3397 C3395 1.390 . S
C3397 C3398 1.387 . S
C3397 H3400 0.950 . S
C3398 C3397 1.387 . S
C3398 C3401 1.387 . S
H3399 C3395 0.950 . S
H3400 C3397 0.950 . S
C3401 C3392 1.390 . S
C3401 H3394 0.950 . S
C3401 C3398 1.387 . S
C3402 C3403 1.387 . S
C3402 H3406 0.950 . S
C3402 C3411 1.390 . S
C3403 C3402 1.387 . S
C3403 C3405 1.387 . S
H3404 C3411 0.950 . S
C3405 C3403 1.387 . S
C3405 C3407 1.390 . S
C3405 H3409 0.950 . S
H3406 C3402 0.950 . S
C3407 C3405 1.390 . S
C3407 C3408 1.387 . S
C3407 H3410 0.950 . S
C3408 C3407 1.387 . S
C3408 C3411 1.387 . S
H3409 C3405 0.950 . S
H3410 C3407 0.950 . S
C3411 C3402 1.390 . S
C3411 H3404 0.950 . S
C3411 C3408 1.387 . S
C3412 C3413 1.387 . S
C3412 H3416 0.950 . S
C3412 C3421 1.390 . S
C3413 C3412 1.387 . S
C3413 C3415 1.387 . S
H3414 C3421 0.950 . S
C3415 C3413 1.387 . S
C3415 C3417 1.390 . S
C3415 H3419 0.950 . S
H3416 C3412 0.950 . S
C3417 C3415 1.390 . S
C3417 C3418 1.387 . S
C3417 H3420 0.950 . S
C3418 C3417 1.387 . S
C3418 C3421 1.387 . S
H3419 C3415 0.950 . S
H3420 C3417 0.950 . S
C3421 C3412 1.390 . S
C3421 H3414 0.950 . S
C3421 C3418 1.387 . S
C3422 C3423 1.387 . S
C3422 H3426 0.950 . S
C3422 C3431 1.391 1_565 S
C3423 C3422 1.387 . S
C3423 C3425 1.387 . S
H3424 C3431 0.949 . S
C3425 C3423 1.387 . S
C3425 C3427 1.390 . S
C3425 H3429 0.950 . S
H3426 C3422 0.950 . S
C3427 C3425 1.390 . S
C3427 C3428 1.398 . S
C3427 H3430 0.950 . S
C3428 C3427 1.398 . S
C3428 C3431 1.388 1_565 S
H3429 C3425 0.950 . S
H3430 C3427 0.950 . S
C3431 C3422 1.391 1_545 S
C3431 H3424 0.949 . S
C3431 C3428 1.388 1_545 S
C3432 C3433 1.387 . S
C3432 H3436 0.950 . S
C3432 C3441 1.390 . S
C3433 C3432 1.387 . S
C3433 C3435 1.387 . S
H3434 C3441 0.950 . S
C3435 C3433 1.387 . S
C3435 C3437 1.390 . S
C3435 H3439 0.950 . S
H3436 C3432 0.950 . S
C3437 C3435 1.390 . S
C3437 C3438 1.387 . S
C3437 H3440 0.950 . S
C3438 C3437 1.387 . S
C3438 C3441 1.387 . S
H3439 C3435 0.950 . S
H3440 C3437 0.950 . S
C3441 C3432 1.390 . S
C3441 H3434 0.950 . S
C3441 C3438 1.387 . S
C3442 C3443 1.387 . S
C3442 H3446 0.950 1_554 S
C3442 C3451 1.390 . S
C3443 C3442 1.387 . S
C3443 C3445 1.387 . S
H3444 C3451 0.950 1_556 S
C3445 C3443 1.387 . S
C3445 C3447 1.390 . S
C3445 H3449 0.950 . S
H3446 C3442 0.950 1_556 S
C3447 C3445 1.390 . S
C3447 C3448 1.387 . S
C3447 H3450 0.950 . S
C3448 C3447 1.387 . S
C3448 C3451 1.387 . S
H3449 C3445 0.950 . S
H3450 C3447 0.950 . S
C3451 C3442 1.390 . S
C3451 H3444 0.950 1_554 S
C3451 C3448 1.387 . S
C3452 C3453 1.387 . S
C3452 H3456 0.950 . S
C3452 C3461 1.390 . S
C3453 C3452 1.387 . S
C3453 C3455 1.387 . S
H3454 C3461 0.950 . S
C3455 C3453 1.387 . S
C3455 C3457 1.390 . S
C3455 H3459 0.950 . S
H3456 C3452 0.950 . S
C3457 C3455 1.390 . S
C3457 C3458 1.387 . S
C3457 H3460 0.950 . S
C3458 C3457 1.387 . S
C3458 C3461 1.387 . S
H3459 C3455 0.950 . S
H3460 C3457 0.950 . S
C3461 C3452 1.390 . S
C3461 H3454 0.950 . S
C3461 C3458 1.387 . S
C3462 C3463 1.387 . S
C3462 H3466 0.950 . S
C3462 C3471 1.390 . S
C3463 C3462 1.387 . S
C3463 C3465 1.387 . S
H3464 C3471 0.950 . S
C3465 C3463 1.387 . S
C3465 C3467 1.390 . S
C3465 H3469 0.950 . S
H3466 C3462 0.950 . S
C3467 C3465 1.390 . S
C3467 C3468 1.387 . S
C3467 H3470 0.950 . S
C3468 C3467 1.387 . S
C3468 C3471 1.387 . S
H3469 C3465 0.950 . S
H3470 C3467 0.950 . S
C3471 C3462 1.390 . S
C3471 H3464 0.950 . S
C3471 C3468 1.387 . S
C3472 C3473 1.387 . S
C3472 H3476 0.950 . S
C3472 C3481 1.390 . S
C3473 C3472 1.387 . S
C3473 C3475 1.387 . S
H3474 C3481 0.950 . S
C3475 C3473 1.387 . S
C3475 C3477 1.390 . S
C3475 H3479 0.950 . S
H3476 C3472 0.950 . S
C3477 C3475 1.390 . S
C3477 C3478 1.387 . S
C3477 H3480 0.950 . S
C3478 C3477 1.387 . S
C3478 C3481 1.387 . S
H3479 C3475 0.950 . S
H3480 C3477 0.950 . S
C3481 C3472 1.390 . S
C3481 H3474 0.950 . S
C3481 C3478 1.387 . S
C3482 C3483 1.387 . S
C3482 H3486 0.950 . S
C3482 C3491 1.390 . S
C3483 C3482 1.387 . S
C3483 C3485 1.387 . S
H3484 C3491 0.950 . S
C3485 C3483 1.387 . S
C3485 C3487 1.390 . S
C3485 H3489 0.950 . S
H3486 C3482 0.950 . S
C3487 C3485 1.390 . S
C3487 C3488 1.387 . S
C3487 H3490 0.950 . S
C3488 C3487 1.387 . S
C3488 C3491 1.387 . S
H3489 C3485 0.950 . S
H3490 C3487 0.950 . S
C3491 C3482 1.390 . S
C3491 H3484 0.950 . S
C3491 C3488 1.387 . S
C3492 C3493 1.387 . S
C3492 H3496 0.950 . S
C3492 C3501 1.390 . S
C3493 C3492 1.387 . S
C3493 C3495 1.387 . S
H3494 C3501 0.950 . S
C3495 C3493 1.387 . S
C3495 C3497 1.390 . S
C3495 H3499 0.950 . S
H3496 C3492 0.950 . S
C3497 C3495 1.390 . S
C3497 C3498 1.387 . S
C3497 H3500 0.950 . S
C3498 C3497 1.387 . S
C3498 C3501 1.387 . S
H3499 C3495 0.950 . S
H3500 C3497 0.950 . S
C3501 C3492 1.390 . S
C3501 H3494 0.950 . S
C3501 C3498 1.387 . S
C3502 C3503 1.387 . S
C3502 H3506 0.950 . S
C3502 C3511 1.390 . S
C3503 C3502 1.387 . S
C3503 C3505 1.387 . S
H3504 C3511 0.950 . S
C3505 C3503 1.387 . S
C3505 C3507 1.390 . S
C3505 H3509 0.950 . S
H3506 C3502 0.950 . S
C3507 C3505 1.390 . S
C3507 C3508 1.387 . S
C3507 H3510 0.950 . S
C3508 C3507 1.387 . S
C3508 C3511 1.387 . S
H3509 C3505 0.950 . S
H3510 C3507 0.950 . S
C3511 C3502 1.390 . S
C3511 H3504 0.950 . S
C3511 C3508 1.387 . S
C3512 C3513 1.387 . S
C3512 H3516 0.950 . S
C3512 C3521 1.390 . S
C3513 C3512 1.387 . S
C3513 C3515 1.387 . S
H3514 C3521 0.950 . S
C3515 C3513 1.387 . S
C3515 C3517 1.390 . S
C3515 H3519 0.950 . S
H3516 C3512 0.950 . S
C3517 C3515 1.390 . S
C3517 C3518 1.387 . S
C3517 H3520 0.950 . S
C3518 C3517 1.387 . S
C3518 C3521 1.387 . S
H3519 C3515 0.950 . S
H3520 C3517 0.950 . S
C3521 C3512 1.390 . S
C3521 H3514 0.950 . S
C3521 C3518 1.387 . S
C3522 C3523 1.387 . S
C3522 H3526 0.950 . S
C3522 C3531 1.390 . S
C3523 C3522 1.387 . S
C3523 C3525 1.387 . S
H3524 C3531 0.950 . S
C3525 C3523 1.387 . S
C3525 C3527 1.390 . S
C3525 H3529 0.950 . S
H3526 C3522 0.950 . S
C3527 C3525 1.390 . S
C3527 C3528 1.387 . S
C3527 H3530 0.950 . S
C3528 C3527 1.387 . S
C3528 C3531 1.387 . S
H3529 C3525 0.950 . S
H3530 C3527 0.950 . S
C3531 C3522 1.390 . S
C3531 H3524 0.950 . S
C3531 C3528 1.387 . S
C3532 C3533 1.387 . S
C3532 H3536 0.950 . S
C3532 C3541 1.390 . S
C3533 C3532 1.387 . S
C3533 C3535 1.387 . S
H3534 C3541 0.950 . S
C3535 C3533 1.387 . S
C3535 C3537 1.390 . S
C3535 H3539 0.950 . S
H3536 C3532 0.950 . S
C3537 C3535 1.390 . S
C3537 C3538 1.387 . S
C3537 H3540 0.950 . S
C3538 C3537 1.387 . S
C3538 C3541 1.387 . S
H3539 C3535 0.950 . S
H3540 C3537 0.950 . S
C3541 C3532 1.390 . S
C3541 H3534 0.950 . S
C3541 C3538 1.387 . S
C3542 C3543 1.387 . S
C3542 H3546 0.950 . S
C3542 C3551 1.390 . S
C3543 C3542 1.387 . S
C3543 C3545 1.387 . S
H3544 C3551 0.950 . S
C3545 C3543 1.387 . S
C3545 C3547 1.390 . S
C3545 H3549 0.950 . S
H3546 C3542 0.950 . S
C3547 C3545 1.390 . S
C3547 C3548 1.387 . S
C3547 H3550 0.950 . S
C3548 C3547 1.387 . S
C3548 C3551 1.387 . S
H3549 C3545 0.950 . S
H3550 C3547 0.950 . S
C3551 C3542 1.390 . S
C3551 H3544 0.950 . S
C3551 C3548 1.387 . S
C3552 C3553 1.387 . S
C3552 H3556 0.950 . S
C3552 C3561 1.390 . S
C3553 C3552 1.387 . S
C3553 C3555 1.387 . S
H3554 C3561 0.950 . S
C3555 C3553 1.387 . S
C3555 C3557 1.390 . S
C3555 H3559 0.950 . S
H3556 C3552 0.950 . S
C3557 C3555 1.390 . S
C3557 C3558 1.387 . S
C3557 H3560 0.950 . S
C3558 C3557 1.387 . S
C3558 C3561 1.387 . S
H3559 C3555 0.950 . S
H3560 C3557 0.950 . S
C3561 C3552 1.390 . S
C3561 H3554 0.950 . S
C3561 C3558 1.387 . S
C3562 C3563 1.387 . S
C3562 H3566 0.950 . S
C3562 C3571 1.390 . S
C3563 C3562 1.387 . S
C3563 C3565 1.387 . S
H3564 C3571 0.950 . S
C3565 C3563 1.387 . S
C3565 C3567 1.390 . S
C3565 H3569 0.950 . S
H3566 C3562 0.950 . S
C3567 C3565 1.390 . S
C3567 C3568 1.387 . S
C3567 H3570 0.950 . S
C3568 C3567 1.387 . S
C3568 C3571 1.387 . S
H3569 C3565 0.950 . S
H3570 C3567 0.950 . S
C3571 C3562 1.390 . S
C3571 H3564 0.950 . S
C3571 C3568 1.387 . S
C3572 C3573 1.387 . S
C3572 H3576 0.950 . S
C3572 C3581 1.390 . S
C3573 C3572 1.387 . S
C3573 C3575 1.387 . S
H3574 C3581 0.950 . S
C3575 C3573 1.387 . S
C3575 C3577 1.390 . S
C3575 H3579 0.950 . S
H3576 C3572 0.950 . S
C3577 C3575 1.390 . S
C3577 C3578 1.387 . S
C3577 H3580 0.950 . S
C3578 C3577 1.387 . S
C3578 C3581 1.387 . S
H3579 C3575 0.950 . S
H3580 C3577 0.950 . S
C3581 C3572 1.390 . S
C3581 H3574 0.950 . S
C3581 C3578 1.387 . S
C3582 C3583 1.387 . S
C3582 H3586 0.950 . S
C3582 C3591 1.390 . S
C3583 C3582 1.387 . S
C3583 C3585 1.387 . S
H3584 C3591 0.950 . S
C3585 C3583 1.387 . S
C3585 C3587 1.390 . S
C3585 H3589 0.950 . S
H3586 C3582 0.950 . S
C3587 C3585 1.390 . S
C3587 C3588 1.387 . S
C3587 H3590 0.950 . S
C3588 C3587 1.387 . S
C3588 C3591 1.387 . S
H3589 C3585 0.950 . S
H3590 C3587 0.950 . S
C3591 C3582 1.390 . S
C3591 H3584 0.950 . S
C3591 C3588 1.387 . S
C3592 C3593 1.387 . S
C3592 H3596 0.950 . S
C3592 C3601 1.390 . S
C3593 C3592 1.387 . S
C3593 C3595 1.387 . S
H3594 C3601 0.950 . S
C3595 C3593 1.387 . S
C3595 C3597 1.390 . S
C3595 H3599 0.950 . S
H3596 C3592 0.950 . S
C3597 C3595 1.390 . S
C3597 C3598 1.387 . S
C3597 H3600 0.950 . S
C3598 C3597 1.387 . S
C3598 C3601 1.387 . S
H3599 C3595 0.950 . S
H3600 C3597 0.950 . S
C3601 C3592 1.390 . S
C3601 H3594 0.950 . S
C3601 C3598 1.387 . S
C3602 C3603 1.387 . S
C3602 H3606 0.950 . S
C3602 C3611 1.390 . S
C3603 C3602 1.387 . S
C3603 C3605 1.387 . S
H3604 C3611 0.950 . S
C3605 C3603 1.387 . S
C3605 C3607 1.390 . S
C3605 H3609 0.950 . S
H3606 C3602 0.950 . S
C3607 C3605 1.390 . S
C3607 C3608 1.387 . S
C3607 H3610 0.950 . S
C3608 C3607 1.387 . S
C3608 C3611 1.387 . S
H3609 C3605 0.950 . S
H3610 C3607 0.950 . S
C3611 C3602 1.390 . S
C3611 H3604 0.950 . S
C3611 C3608 1.387 . S
C3612 C3613 1.387 . S
C3612 H3616 0.950 . S
C3612 C3621 1.390 . S
C3613 C3612 1.387 . S
C3613 C3615 1.387 . S
H3614 C3621 0.950 . S
C3615 C3613 1.387 . S
C3615 C3617 1.390 . S
C3615 H3619 0.950 . S
H3616 C3612 0.950 . S
C3617 C3615 1.390 . S
C3617 C3618 1.387 . S
C3617 H3620 0.950 . S
C3618 C3617 1.387 . S
C3618 C3621 1.387 . S
H3619 C3615 0.950 . S
H3620 C3617 0.950 . S
C3621 C3612 1.390 . S
C3621 H3614 0.950 . S
C3621 C3618 1.387 . S
C3622 C3623 1.387 . S
C3622 H3626 0.950 . S
C3622 C3631 1.390 . S
C3623 C3622 1.387 . S
C3623 C3625 1.387 . S
H3624 C3631 0.950 . S
C3625 C3623 1.387 . S
C3625 C3627 1.390 . S
C3625 H3629 0.950 . S
H3626 C3622 0.950 . S
C3627 C3625 1.390 . S
C3627 C3628 1.387 . S
C3627 H3630 0.950 . S
C3628 C3627 1.387 . S
C3628 C3631 1.387 . S
H3629 C3625 0.950 . S
H3630 C3627 0.950 . S
C3631 C3622 1.390 . S
C3631 H3624 0.950 . S
C3631 C3628 1.387 . S
C3632 C3633 1.387 . S
C3632 H3636 0.950 . S
C3632 C3641 1.390 . S
C3633 C3632 1.387 . S
C3633 C3635 1.387 . S
H3634 C3641 0.950 . S
C3635 C3633 1.387 . S
C3635 C3637 1.390 . S
C3635 H3639 0.950 . S
H3636 C3632 0.950 . S
C3637 C3635 1.390 . S
C3637 C3638 1.387 . S
C3637 H3640 0.950 . S
C3638 C3637 1.387 . S
C3638 C3641 1.387 . S
H3639 C3635 0.950 . S
H3640 C3637 0.950 . S
C3641 C3632 1.390 . S
C3641 H3634 0.950 . S
C3641 C3638 1.387 . S
C3642 C3643 1.387 . S
C3642 H3646 0.950 . S
C3642 C3651 1.390 . S
C3643 C3642 1.387 . S
C3643 C3645 1.387 1_565 S
H3644 C3651 0.950 . S
C3645 C3643 1.387 1_545 S
C3645 C3647 1.390 . S
C3645 H3649 0.950 . S
H3646 C3642 0.950 . S
C3647 C3645 1.390 . S
C3647 C3648 1.387 . S
C3647 H3650 0.950 . S
C3648 C3647 1.387 . S
C3648 C3651 1.387 1_545 S
H3649 C3645 0.950 . S
H3650 C3647 0.950 . S
C3651 C3642 1.390 . S
C3651 H3644 0.950 . S
C3651 C3648 1.387 1_565 S
C3652 C3653 1.387 . S
C3652 H3656 0.950 . S
C3652 C3661 1.390 . S
C3653 C3652 1.387 . S
C3653 C3655 1.387 . S
H3654 C3661 0.950 . S
C3655 C3653 1.387 . S
C3655 C3657 1.390 . S
C3655 H3659 0.950 . S
H3656 C3652 0.950 . S
C3657 C3655 1.390 . S
C3657 C3658 1.387 . S
C3657 H3660 0.950 . S
C3658 C3657 1.387 . S
C3658 C3661 1.387 . S
H3659 C3655 0.950 . S
H3660 C3657 0.950 . S
C3661 C3652 1.390 . S
C3661 H3654 0.950 . S
C3661 C3658 1.387 . S
C3662 C3663 1.387 . S
C3662 H3666 0.950 . S
C3662 C3671 1.390 . S
C3663 C3662 1.387 . S
C3663 C3665 1.387 1_556 S
H3664 C3671 0.950 . S
C3665 C3663 1.387 1_554 S
C3665 C3667 1.390 . S
C3665 H3669 0.950 . S
H3666 C3662 0.950 . S
C3667 C3665 1.390 . S
C3667 C3668 1.387 . S
C3667 H3670 0.950 . S
C3668 C3667 1.387 . S
C3668 C3671 1.387 1_554 S
H3669 C3665 0.950 . S
H3670 C3667 0.950 . S
C3671 C3662 1.390 . S
C3671 H3664 0.950 . S
C3671 C3668 1.387 1_556 S
C3672 C3673 1.387 . S
C3672 H3676 0.950 . S
C3672 C3681 1.390 . S
C3673 C3672 1.387 . S
C3673 C3675 1.387 . S
H3674 C3681 0.950 . S
C3675 C3673 1.387 . S
C3675 C3677 1.390 . S
C3675 H3679 0.950 . S
H3676 C3672 0.950 . S
C3677 C3675 1.390 . S
C3677 C3678 1.387 . S
C3677 H3680 0.950 . S
C3678 C3677 1.387 . S
C3678 C3681 1.387 . S
H3679 C3675 0.950 . S
H3680 C3677 0.950 . S
C3681 C3672 1.390 . S
C3681 H3674 0.950 . S
C3681 C3678 1.387 . S
C3682 C3683 1.387 . S
C3682 H3686 0.950 1_554 S
C3682 C3691 1.390 . S
C3683 C3682 1.387 . S
C3683 C3685 1.387 . S
H3684 C3691 0.927 1_556 S
C3685 C3683 1.387 . S
C3685 C3687 1.390 . S
C3685 H3689 0.950 . S
H3686 C3682 0.950 1_556 S
C3687 C3685 1.390 . S
C3687 C3688 1.387 . S
C3687 H3690 0.950 . S
C3688 C3687 1.387 . S
C3688 C3691 1.411 . S
H3689 C3685 0.950 . S
H3690 C3687 0.950 . S
C3691 C3682 1.390 . S
C3691 H3684 0.927 1_554 S
C3691 C3688 1.411 . S
C3692 C3693 1.387 . S
C3692 H3696 0.950 . S
C3692 C3701 1.390 . S
C3693 C3692 1.387 . S
C3693 C3695 1.387 . S
H3694 C3701 0.950 . S
C3695 C3693 1.387 . S
C3695 C3697 1.390 . S
C3695 H3699 0.950 . S
H3696 C3692 0.950 . S
C3697 C3695 1.390 . S
C3697 C3698 1.387 . S
C3697 H3700 0.950 . S
C3698 C3697 1.387 . S
C3698 C3701 1.387 . S
H3699 C3695 0.950 . S
H3700 C3697 0.950 . S
C3701 C3692 1.390 . S
C3701 H3694 0.950 . S
C3701 C3698 1.387 . S
C3702 C3703 1.387 . S
C3702 H3706 0.950 . S
C3702 C3711 1.390 . S
C3703 C3702 1.387 . S
C3703 C3705 1.387 . S
H3704 C3711 0.950 . S
C3705 C3703 1.387 . S
C3705 C3707 1.390 . S
C3705 H3709 0.950 . S
H3706 C3702 0.950 . S
C3707 C3705 1.390 . S
C3707 C3708 1.387 . S
C3707 H3710 0.950 . S
C3708 C3707 1.387 . S
C3708 C3711 1.387 . S
H3709 C3705 0.950 . S
H3710 C3707 0.950 . S
C3711 C3702 1.390 . S
C3711 H3704 0.950 . S
C3711 C3708 1.387 . S
C2753 C665 1.810 1_455 S
C2758 C2134 1.809 . S
C2763 C381 1.470 . S
C2768 C2154 1.457 . S
C2773 C460 0.815 . S
C2778 C2201 0.819 . S
C2788 C2258 1.374 . S
C2783 C585 1.404 . S
C2793 C108 2.568 . S
C2798 C2275 2.551 . S
C2808 C2334 1.936 . S
C2803 C196 1.882 . S
C2818 C2367 2.659 . S
C2813 C313 2.660 . S
C2823 C49 2.475 . S
C2828 C2414 2.470 . S
C2838 C2127 1.543 . S
C2833 C1457 1.529 . S
C2843 C1545 1.518 . S
C2848 C2155 1.524 . S
C2858 C2194 1.140 . S
C2853 C1721 1.089 . S
C2868 C2254 2.279 . S
C2863 C1113 2.221 . S
C2873 C1428 0.536 . S
C2878 C2281 0.560 . S
C2888 C2327 2.422 . S
C2883 C1516 2.421 . S
C2898 C2378 1.181 . S
C2893 C1692 1.181 1_545 S
C2908 C2407 2.271 . S
C2903 C1085 2.282 . S
C2918 C2138 1.785 1_565 S
C2913 C988 1.859 . S
C2923 C1817 2.244 . S
C2928 C2434 2.217 . S
C2938 C2498 1.671 . S
C2933 C2081 1.661 . S
C2948 C2534 1.409 1_655 S
C2943 C1993 1.390 . S
C2953 C761 1.639 . S
C2958 C2418 1.629 . S
C2963 C821 2.559 . S
C2968 C2195 2.549 . S
C2973 C2053 1.610 . S
C2978 C2567 1.671 . S
C2988 C2601 0.567 . S
C2983 C1868 0.489 . S
C2998 C2115 1.820 . S
C2993 C372 1.826 . S
C3008 C2607 1.472 . S
C3003 C645 1.479 . S
C3013 C577 0.811 . S
C3018 C2218 0.813 . S
C3023 C497 1.417 . S
C3028 C2561 1.379 . S
C3038 C2294 2.545 . S
C3033 C57 2.563 . S
C3043 C293 1.886 . S
C3048 C2475 1.936 . S
C3058 C2354 2.653 1_556 S
C3053 C205 2.650 . S
C3068 C2635 2.472 . S
C3063 C145 2.480 . S
C3078 C2114 1.537 . S
C3073 C909 1.528 . S
C3088 C2614 1.516 . S
C3083 C1956 1.508 . S
C3093 C724 1.075 . S
C3098 C2207 1.132 . S
C3103 C1780 2.220 . S
C3108 C2555 2.272 . S
C3113 C937 0.537 . S
C3118 C2298 0.542 . S
C3128 C2474 2.417 . S
C3123 C1985 2.418 . S
C3133 C753 1.183 . S
C3138 C2361 1.171 . S
C3143 C1809 2.277 . S
C3148 C2634 2.269 . S
C3153 C1173 1.864 1_556 S
C3158 C2121 1.787 . S
C3163 C1105 2.238 . S
C3168 C2447 2.214 . S
C3173 C1633 1.665 . S
C3178 C2321 1.663 . S
C3183 C1553 1.393 . S
C3188 C2515 1.408 . S
C3198 C2641 1.628 . S
C3193 C1729 1.647 . S
C3203 C1340 2.555 . S
C3208 C2214 2.545 1_565 S
C3218 C2234 1.670 . S
C3213 C1604 1.601 . S
C3228 C2178 0.568 . S
C3223 C1252 0.508 . S
C3233 C489 1.822 . S
C3238 C2694 1.826 . S
C3248 C2594 1.462 . S
C3243 C557 1.476 . S
C3253 C636 0.809 . S
C3258 C2721 0.812 . S
C3263 C409 1.413 1_655 S
C3268 C2578 1.383 . S
C3273 C284 2.567 . S
C3278 C2435 2.549 . S
C3288 C2494 1.940 . S
C3283 C20 1.887 . S
C3298 C2527 2.660 . S
C3293 C137 2.660 . S
C3308 C2654 2.463 . S
C3303 C225 2.469 . S
C3318 C2687 1.537 . S
C3313 C1641 1.524 . S
C3323 C1193 1.519 . S
C3328 C2595 1.531 . S
C3338 C2714 1.145 . S
C3333 C1289 1.096 . S
C3348 C2574 2.278 . S
C3343 C1377 2.220 . S
C3358 C2441 0.547 . S
C3353 C1613 0.543 . S
C3363 C1164 2.424 . S
C3368 C2487 2.420 . S
C3378 C2538 1.177 . S
C3373 C1261 1.176 . S
C3383 C1349 2.279 . S
C3388 C2647 2.269 . S
C3398 C2698 1.785 . S
C3393 C1965 1.859 . S
C3403 C849 2.247 . S
C3408 C2274 2.220 . S
C3418 C2338 1.663 . S
C3413 C929 1.654 . S
C3428 C2374 1.398 1_565 S
C3423 C1017 1.388 . S
C3438 C2658 1.602 . S
C3433 C1897 1.609 . S
C3443 C1789 2.561 . S
C3448 C2715 2.551 1_655 S
C3458 C2247 1.674 . S
C3453 C900 1.615 . S
C3468 C2161 0.566 . S
C3463 C733 0.497 . S
C3473 C548 1.829 . S
C3478 C2675 1.825 . S
C3488 C2167 1.455 . S
C3483 C469 1.457 . S
C3493 C401 0.810 . S
C3498 C2738 0.814 . S
C3503 C673 1.396 . S
C3508 C2241 1.352 . S
C3513 C233 2.562 . S
C3518 C2454 2.544 1_556 S
C3528 C2315 1.939 . S
C3523 C117 1.890 . S
C3533 C29 2.654 . S
C3538 C2514 2.656 . S
C3543 C321 2.474 . S
C3548 C2395 2.466 . S
C3558 C2674 1.542 . S
C3553 C2044 1.534 . S
C3563 C997 1.507 . S
C3568 C2174 1.515 . S
C3578 C2727 1.112 . S
C3573 C1877 1.061 . S
C3583 C812 2.222 . S
C3588 C2235 2.273 . S
C3593 C2073 0.541 . S
C3598 C2458 0.548 . S
C3608 C2314 2.421 . S
C3603 C1025 2.421 . S
C3613 C1905 1.163 . S
C3618 C2521 1.151 . S
C3628 C2394 2.267 . S
C3623 C841 2.276 . S
C3638 C2681 1.789 . S
C3633 C1525 1.869 . S
C3648 C2287 2.218 1_655 S
C3643 C1369 2.241 . S
C3653 C1465 1.661 . S
C3658 C2481 1.655 . S
C3668 C2355 1.404 . S
C3663 C1201 1.388 . S
C3673 C1281 1.648 . S
C3678 C2401 1.630 . S
C3683 C1076 2.558 . S
C3688 C2734 2.548 . S
C3698 C2554 1.672 . S
C3693 C1437 1.607 . S
C3708 C2618 0.560 . S
C3703 C1701 0.503 . S
