# Generated by pormake.
# Topology pyr, (3,6)-cn, num edge types: 1
# Building blocks:
#     Node 0, Type 0, BuildingBlock: WUSLED_clean_sbu_0, # of connection points: 3
#     Node 1, Type 0, BuildingBlock: WUSLED_clean_sbu_0, # of connection points: 3
#     Node 2, Type 0, BuildingBlock: WUSLED_clean_sbu_0, # of connection points: 3
#     Node 3, Type 0, BuildingBlock: WUSLED_clean_sbu_0, # of connection points: 3
#     Node 4, Type 0, BuildingBlock: WUSLED_clean_sbu_0, # of connection points: 3
#     Node 5, Type 0, BuildingBlock: WUSLED_clean_sbu_0, # of connection points: 3
#     Node 6, Type 0, BuildingBlock: WUSLED_clean_sbu_0, # of connection points: 3
#     Node 7, Type 0, BuildingBlock: WUSLED_clean_sbu_0, # of connection points: 3
#     Node 8, Type 1, BuildingBlock: BETDEL_clean_sbu_0, # of connection points: 6
#     Node 9, Type 1, BuildingBlock: BETDEL_clean_sbu_0, # of connection points: 6
#     Node 10, Type 1, BuildingBlock: BETDEL_clean_sbu_0, # of connection points: 6
#     Node 11, Type 1, BuildingBlock: BETDEL_clean_sbu_0, # of connection points: 6
#     Edge 12, Type (0, 1), BuildingBlock: TEMPAE_clean_linker_10, # of connection points: 2
#     Edge 13, Type (0, 1), BuildingBlock: TEMPAE_clean_linker_10, # of connection points: 2
#     Edge 14, Type (0, 1), BuildingBlock: TEMPAE_clean_linker_10, # of connection points: 2
#     Edge 15, Type (0, 1), BuildingBlock: TEMPAE_clean_linker_10, # of connection points: 2
#     Edge 16, Type (0, 1), BuildingBlock: TEMPAE_clean_linker_10, # of connection points: 2
#     Edge 17, Type (0, 1), BuildingBlock: TEMPAE_clean_linker_10, # of connection points: 2
#     Edge 18, Type (0, 1), BuildingBlock: TEMPAE_clean_linker_10, # of connection points: 2
#     Edge 19, Type (0, 1), BuildingBlock: TEMPAE_clean_linker_10, # of connection points: 2
#     Edge 20, Type (0, 1), BuildingBlock: TEMPAE_clean_linker_10, # of connection points: 2
#     Edge 21, Type (0, 1), BuildingBlock: TEMPAE_clean_linker_10, # of connection points: 2
#     Edge 22, Type (0, 1), BuildingBlock: TEMPAE_clean_linker_10, # of connection points: 2
#     Edge 23, Type (0, 1), BuildingBlock: TEMPAE_clean_linker_10, # of connection points: 2
#     Edge 24, Type (0, 1), BuildingBlock: TEMPAE_clean_linker_10, # of connection points: 2
#     Edge 25, Type (0, 1), BuildingBlock: TEMPAE_clean_linker_10, # of connection points: 2
#     Edge 26, Type (0, 1), BuildingBlock: TEMPAE_clean_linker_10, # of connection points: 2
#     Edge 27, Type (0, 1), BuildingBlock: TEMPAE_clean_linker_10, # of connection points: 2
#     Edge 28, Type (0, 1), BuildingBlock: TEMPAE_clean_linker_10, # of connection points: 2
#     Edge 29, Type (0, 1), BuildingBlock: TEMPAE_clean_linker_10, # of connection points: 2
#     Edge 30, Type (0, 1), BuildingBlock: TEMPAE_clean_linker_10, # of connection points: 2
#     Edge 31, Type (0, 1), BuildingBlock: TEMPAE_clean_linker_10, # of connection points: 2
#     Edge 32, Type (0, 1), BuildingBlock: TEMPAE_clean_linker_10, # of connection points: 2
#     Edge 33, Type (0, 1), BuildingBlock: TEMPAE_clean_linker_10, # of connection points: 2
#     Edge 34, Type (0, 1), BuildingBlock: TEMPAE_clean_linker_10, # of connection points: 2
#     Edge 35, Type (0, 1), BuildingBlock: TEMPAE_clean_linker_10, # of connection points: 2
# Relax obj value: 0.026
# Max RMSD: 0.091
# Mean RMSD: 0.038
data_MOF--net-pyr--node1-WUSLED_clean_sbu_0--node2-BETDEL_clean_sbu_0--edge1-TEMPAE_clean_linker_10
_symmetry_space_group_name_H-M    P1
_symmetry_Int_Tables_number       1
_symmetry_cell_setting            triclinic
loop_
_symmetry_equiv_pos_as_xyz
'x, y, z'
_cell_length_a     47.977971
_cell_length_b     49.785029
_cell_length_c     46.127636
_cell_angle_alpha  91.214316
_cell_angle_beta   89.602326
_cell_angle_gamma 95.588356
loop_
_atom_site_label
_atom_site_type_symbol
_atom_site_fract_x
_atom_site_fract_y
_atom_site_fract_z
_atom_type_partial_charge
C0 C 0.18448 0.24128 0.09192 0.0
C1 C 0.16029 0.23713 0.0747 0.0
C2 C 0.1556 0.28541 0.07542 0.0
C3 C 0.14603 0.25893 0.06657 0.0
C4 C 0.18028 0.28963 0.09185 0.0
C5 C 0.19461 0.26783 0.0999 0.0
U6 U 0.18783 0.18358 0.1439 0.0
O7 O 0.19831 0.14185 0.137 0.0
O8 O 0.22302 0.16909 0.16727 0.0
C9 C 0.22048 0.14547 0.15372 0.0
C10 C 0.19871 0.21818 0.10232 0.0
C11 C 0.24635 0.13658 0.14116 0.0
C12 C 0.28917 0.14504 0.11299 0.0
C13 C 0.2646 0.15397 0.12463 0.0
C14 C 0.27721 0.10117 0.13396 0.0
C15 C 0.29579 0.11852 0.11757 0.0
C16 C 0.25276 0.11016 0.14567 0.0
C17 C 0.13036 0.1727 0.20082 0.0
C18 C 0.12965 0.13599 0.23468 0.0
C19 C 0.09519 0.1684 0.23892 0.0
C20 C 0.1071 0.18197 0.21494 0.0
C21 C 0.10641 0.14532 0.24915 0.0
C22 C 0.14155 0.1496 0.21072 0.0
C23 C 0.1431 0.18753 0.17616 0.0
O24 O 0.20998 0.22134 0.12825 0.0
O25 O 0.1855 0.19403 0.09797 0.0
O26 O 0.14269 0.17396 0.1514 0.0
O27 O 0.16737 0.20128 0.18152 0.0
H28 H 0.15207 0.217 0.06777 0.0
H29 H 0.12742 0.25502 0.0534 0.0
H30 H 0.18814 0.30973 0.09921 0.0
H31 H 0.21334 0.27173 0.11291 0.0
H32 H 0.30313 0.159 0.10071 0.0
H33 H 0.2599 0.17446 0.12084 0.0
H34 H 0.28137 0.0805 0.13747 0.0
H35 H 0.23879 0.09641 0.15821 0.0
H36 H 0.13857 0.1181 0.24179 0.0
H37 H 0.07756 0.17631 0.2498 0.0
H38 H 0.09831 0.19987 0.2076 0.0
H39 H 0.15954 0.14219 0.19999 0.0
C40 C 0.23871 0.84577 0.61662 0.0
C41 C 0.23157 0.86702 0.6348 0.0
C42 C 0.19737 0.87889 0.59953 0.0
C43 C 0.21107 0.88343 0.62635 0.0
C44 C 0.20457 0.8574 0.58152 0.0
C45 C 0.22504 0.84102 0.59001 0.0
U46 U 0.2961 0.82965 0.66815 0.0
O47 O 0.30767 0.79082 0.68396 0.0
O48 O 0.33821 0.81735 0.65953 0.0
C49 C 0.33261 0.79379 0.67177 0.0
C50 C 0.26073 0.82882 0.62488 0.0
C51 C 0.34218 0.7698 0.65654 0.0
C52 C 0.37008 0.7498 0.61897 0.0
C53 C 0.35791 0.77209 0.6307 0.0
C54 C 0.35033 0.72233 0.65811 0.0
C55 C 0.36689 0.72477 0.63285 0.0
C56 C 0.33824 0.74459 0.66986 0.0
C57 C 0.31234 0.87371 0.73536 0.0
C58 C 0.35612 0.87497 0.7618 0.0
C59 C 0.31594 0.89322 0.78407 0.0
C60 C 0.30021 0.88625 0.75913 0.0
C61 C 0.34415 0.88789 0.78554 0.0
C62 C 0.34031 0.86778 0.73699 0.0
C63 C 0.29567 0.86701 0.70905 0.0
O64 O 0.28643 0.84062 0.62363 0.0
O65 O 0.25572 0.81474 0.64847 0.0
O66 O 0.27944 0.84419 0.70964 0.0
O67 O 0.30918 0.87072 0.68434 0.0
H68 H 0.24194 0.87098 0.65546 0.0
H69 H 0.20586 0.89959 0.64087 0.0
H70 H 0.19481 0.85357 0.56055 0.0
H71 H 0.2304 0.82479 0.57563 0.0
H72 H 0.38293 0.75249 0.59966 0.0
H73 H 0.36163 0.79127 0.62001 0.0
H74 H 0.34707 0.70327 0.66913 0.0
H75 H 0.32647 0.74227 0.68993 0.0
H76 H 0.37772 0.87038 0.76245 0.0
H77 H 0.30624 0.90338 0.80192 0.0
H78 H 0.27863 0.89088 0.7583 0.0
H79 H 0.34999 0.85781 0.71899 0.0
C80 C 0.61992 0.36581 0.78784 0.0
C81 C 0.64022 0.37837 0.76913 0.0
C82 C 0.60383 0.39717 0.74113 0.0
C83 C 0.63226 0.39385 0.74602 0.0
C84 C 0.5837 0.38502 0.76039 0.0
C85 C 0.59166 0.36951 0.78337 0.0
U86 U 0.66694 0.34631 0.85034 0.0
O87 O 0.65505 0.32832 0.8924 0.0
O88 O 0.68 0.30651 0.86144 0.0
C89 C 0.66705 0.30615 0.88665 0.0
C90 C 0.62736 0.34794 0.81134 0.0
C91 C 0.65156 0.2803 0.89499 0.0
C92 C 0.60872 0.25012 0.89986 0.0
C93 C 0.6227 0.27447 0.89025 0.0
C94 C 0.65228 0.23718 0.91878 0.0
C95 C 0.62334 0.23115 0.91434 0.0
C96 C 0.66616 0.26142 0.90921 0.0
C97 C 0.73373 0.39293 0.87091 0.0
C98 C 0.75824 0.42116 0.90846 0.0
C99 C 0.78392 0.39167 0.87833 0.0
C100 C 0.75924 0.38269 0.86353 0.0
C101 C 0.78381 0.41121 0.90081 0.0
C102 C 0.73357 0.41223 0.89362 0.0
C103 C 0.70795 0.38541 0.85359 0.0
O104 O 0.64979 0.33509 0.80716 0.0
O105 O 0.62523 0.3574 0.83801 0.0
O106 O 0.68383 0.38635 0.86712 0.0
O107 O 0.70817 0.36448 0.83573 0.0
H108 H 0.6622 0.37591 0.77207 0.0
H109 H 0.64837 0.40264 0.73157 0.0
H110 H 0.5617 0.38749 0.75776 0.0
H111 H 0.57562 0.36012 0.79754 0.0
H112 H 0.5865 0.24605 0.89573 0.0
H113 H 0.61099 0.28876 0.87931 0.0
H114 H 0.66421 0.22337 0.93018 0.0
H115 H 0.6884 0.26559 0.91329 0.0
H116 H 0.75742 0.4365 0.92537 0.0
H117 H 0.80316 0.38336 0.87204 0.0
H118 H 0.7603 0.36802 0.84598 0.0
H119 H 0.71443 0.42091 0.89956 0.0
C120 C 0.78398 0.63248 0.36517 0.0
C121 C 0.78716 0.62303 0.39341 0.0
C122 C 0.73641 0.61409 0.39899 0.0
C123 C 0.76367 0.61398 0.41009 0.0
C124 C 0.73329 0.62387 0.37091 0.0
C125 C 0.75675 0.63282 0.35422 0.0
U126 U 0.84936 0.67851 0.33928 0.0
O127 O 0.88987 0.6671 0.32294 0.0
O128 O 0.86288 0.68788 0.29447 0.0
C129 C 0.88575 0.67549 0.29659 0.0
C130 C 0.80855 0.63971 0.34598 0.0
C131 C 0.89225 0.6574 0.2719 0.0
C132 C 0.90827 0.61546 0.25268 0.0
C133 C 0.89949 0.63104 0.27612 0.0
C134 C 0.90209 0.65192 0.22024 0.0
C135 C 0.91 0.62581 0.22446 0.0
C136 C 0.89344 0.66752 0.24366 0.0
C137 C 0.87081 0.74652 0.38102 0.0
C138 C 0.91051 0.77209 0.405 0.0
C139 C 0.87499 0.79581 0.38251 0.0
C140 C 0.8606 0.77109 0.37397 0.0
C141 C 0.89991 0.79668 0.39857 0.0
C142 C 0.89612 0.74735 0.39643 0.0
C143 C 0.85334 0.72056 0.37522 0.0
O144 O 0.80686 0.66016 0.32871 0.0
O145 O 0.83364 0.63919 0.35716 0.0
O146 O 0.86459 0.69805 0.38024 0.0
O147 O 0.83778 0.71898 0.35176 0.0
H148 H 0.80778 0.62222 0.40253 0.0
H149 H 0.76688 0.60686 0.43172 0.0
H150 H 0.7127 0.62391 0.36145 0.0
H151 H 0.75356 0.63951 0.33239 0.0
H152 H 0.91385 0.59532 0.2567 0.0
H153 H 0.89887 0.62257 0.29757 0.0
H154 H 0.90345 0.6607 0.19893 0.0
H155 H 0.88831 0.68785 0.23979 0.0
H156 H 0.92942 0.77189 0.41764 0.0
H157 H 0.86635 0.81428 0.3768 0.0
H158 H 0.84101 0.77124 0.36246 0.0
H159 H 0.90445 0.72888 0.40268 0.0
C160 C 0.84688 0.79262 0.93345 0.0
C161 C 0.87389 0.79045 0.92236 0.0
C162 C 0.87707 0.74949 0.94949 0.0
C163 C 0.88888 0.76914 0.93037 0.0
C164 C 0.84992 0.7517 0.96048 0.0
C165 C 0.83496 0.77316 0.95253 0.0
U166 U 0.84006 0.85021 0.88341 0.0
O167 O 0.80357 0.86371 0.86117 0.0
O168 O 0.82839 0.89136 0.891 0.0
C169 C 0.80586 0.88727 0.8748 0.0
C170 C 0.83104 0.81483 0.92452 0.0
C171 C 0.77985 0.89577 0.88755 0.0
C172 C 0.74946 0.90245 0.92894 0.0
C173 C 0.77375 0.89301 0.91721 0.0
C174 C 0.73675 0.91678 0.88134 0.0
C175 C 0.73079 0.91469 0.91117 0.0
C176 C 0.76107 0.90748 0.8697 0.0
C177 C 0.89654 0.86354 0.8252 0.0
C178 C 0.91136 0.90597 0.80192 0.0
C179 C 0.91698 0.86355 0.77686 0.0
C180 C 0.90541 0.84951 0.80068 0.0
C181 C 0.92012 0.89192 0.77728 0.0
C182 C 0.89951 0.89192 0.82563 0.0
C183 C 0.88422 0.84817 0.84991 0.0
O184 O 0.84378 0.83915 0.92901 0.0
O185 O 0.81959 0.81158 0.89873 0.0
O186 O 0.86024 0.83382 0.84475 0.0
O187 O 0.88488 0.86091 0.8752 0.0
H188 H 0.8833 0.8052 0.90735 0.0
H189 H 0.90955 0.76777 0.9212 0.0
H190 H 0.84036 0.73697 0.9754 0.0
H191 H 0.81409 0.77451 0.96121 0.0
H192 H 0.74564 0.90072 0.95202 0.0
H193 H 0.78795 0.88391 0.93137 0.0
H194 H 0.7226 0.92561 0.86693 0.0
H195 H 0.76535 0.90962 0.84672 0.0
H196 H 0.91326 0.92784 0.80266 0.0
H197 H 0.92375 0.85223 0.75823 0.0
H198 H 0.90332 0.82763 0.79993 0.0
H199 H 0.89262 0.90326 0.84419 0.0
C200 C 0.68509 0.19476 0.29191 0.0
C201 C 0.69595 0.17073 0.28305 0.0
C202 C 0.66656 0.16819 0.23996 0.0
C203 C 0.68672 0.15751 0.25726 0.0
C204 C 0.65615 0.19253 0.24886 0.0
C205 C 0.66535 0.20566 0.27459 0.0
U206 U 0.73009 0.20378 0.36062 0.0
O207 O 0.7473 0.2415 0.38243 0.0
O208 O 0.71712 0.21338 0.40519 0.0
C209 C 0.73036 0.23779 0.40485 0.0
C210 C 0.69343 0.20843 0.31945 0.0
C211 C 0.71346 0.26047 0.41247 0.0
C212 C 0.67051 0.27699 0.43127 0.0
C213 C 0.68678 0.25567 0.42531 0.0
C214 C 0.7074 0.30854 0.41237 0.0
C215 C 0.68051 0.30366 0.42463 0.0
C216 C 0.72372 0.28722 0.4065 0.0
C217 C 0.78753 0.15541 0.37267 0.0
C218 C 0.80692 0.1391 0.41688 0.0
C219 C 0.83186 0.13549 0.37137 0.0
C220 C 0.81082 0.14766 0.35725 0.0
C221 C 0.83 0.13067 0.4013 0.0
C222 C 0.78589 0.15138 0.40271 0.0
C223 C 0.76464 0.16601 0.35648 0.0
O224 O 0.68782 0.19425 0.34285 0.0
O225 O 0.71842 0.22182 0.31982 0.0
O226 O 0.77014 0.19009 0.34542 0.0
O227 O 0.73932 0.16206 0.3677 0.0
H228 H 0.71129 0.16209 0.2962 0.0
H229 H 0.69531 0.13894 0.25088 0.0
H230 H 0.6403 0.20108 0.23633 0.0
H231 H 0.6567 0.22416 0.28121 0.0
H232 H 0.64983 0.27251 0.44056 0.0
H233 H 0.67823 0.23538 0.43045 0.0
H234 H 0.71592 0.32889 0.40746 0.0
H235 H 0.74432 0.2917 0.39701 0.0
H236 H 0.80465 0.13551 0.43989 0.0
H237 H 0.84954 0.12973 0.35877 0.0
H238 H 0.81253 0.1506 0.33407 0.0
H239 H 0.76812 0.15718 0.41514 0.0
C240 C 0.29996 0.64015 0.15739 0.0
C241 C 0.27431 0.64989 0.16519 0.0
C242 C 0.25009 0.6226 0.12673 0.0
C243 C 0.24974 0.64129 0.15001 0.0
C244 C 0.27581 0.61318 0.11864 0.0
C245 C 0.30038 0.62175 0.13385 0.0
U246 U 0.36773 0.68505 0.1788 0.0
O247 O 0.38391 0.69656 0.22247 0.0
O248 O 0.4084 0.67298 0.19278 0.0
C249 C 0.40602 0.68312 0.21914 0.0
C250 C 0.3255 0.64719 0.17523 0.0
C251 C 0.41259 0.66587 0.24354 0.0
C252 C 0.417 0.62189 0.26454 0.0
C253 C 0.40897 0.63751 0.24157 0.0
C254 C 0.4318 0.66267 0.29198 0.0
C255 C 0.42881 0.63426 0.28998 0.0
C256 C 0.42385 0.67821 0.26905 0.0
C257 C 0.38772 0.75005 0.13345 0.0
C258 C 0.41336 0.77614 0.09585 0.0
C259 C 0.40233 0.798 0.14123 0.0
C260 C 0.3892 0.77348 0.1512 0.0
C261 C 0.41425 0.79976 0.11325 0.0
C262 C 0.40017 0.75167 0.10578 0.0
C263 C 0.37062 0.72479 0.1417 0.0
O264 O 0.34984 0.64516 0.16249 0.0
O265 O 0.32558 0.66855 0.19252 0.0
O266 O 0.35655 0.72503 0.16627 0.0
O267 O 0.38145 0.70187 0.13655 0.0
H268 H 0.27303 0.66383 0.18339 0.0
H269 H 0.23039 0.6492 0.15666 0.0
H270 H 0.27683 0.5985 0.1011 0.0
H271 H 0.31962 0.61344 0.12754 0.0
H272 H 0.41453 0.60011 0.26206 0.0
H273 H 0.4003 0.62743 0.22214 0.0
H274 H 0.44026 0.67298 0.31136 0.0
H275 H 0.42678 0.70003 0.27115 0.0
H276 H 0.42202 0.77673 0.0741 0.0
H277 H 0.40297 0.81567 0.15541 0.0
H278 H 0.37969 0.77309 0.17256 0.0
H279 H 0.39898 0.7341 0.0914 0.0
C280 C 0.13578 0.28986 0.67304 0.0
C281 C 0.15388 0.27825 0.65341 0.0
C282 C 0.11776 0.24131 0.64249 0.0
C283 C 0.14497 0.25416 0.63831 0.0
C284 C 0.09978 0.25323 0.66212 0.0
C285 C 0.1087 0.27719 0.67717 0.0
U286 U 0.18388 0.35556 0.68966 0.0
O287 O 0.17203 0.39505 0.70495 0.0
O288 O 0.19834 0.37239 0.73225 0.0
C289 C 0.18439 0.39371 0.73016 0.0
C290 C 0.14457 0.31475 0.68998 0.0
C291 C 0.16836 0.40129 0.75614 0.0
C292 C 0.12447 0.40476 0.7823 0.0
C293 C 0.13917 0.39545 0.75825 0.0
C294 C 0.16798 0.42523 0.80272 0.0
C295 C 0.13867 0.42001 0.80476 0.0
C296 C 0.18259 0.416 0.77871 0.0
C297 C 0.24779 0.37634 0.63955 0.0
C298 C 0.29708 0.39319 0.64461 0.0
C299 C 0.27169 0.40372 0.60188 0.0
C300 C 0.2475 0.3892 0.61273 0.0
C301 C 0.29694 0.40559 0.61746 0.0
C302 C 0.27284 0.37875 0.65553 0.0
C303 C 0.22273 0.35857 0.64891 0.0
O304 O 0.1682 0.31504 0.7043 0.0
O305 O 0.14166 0.33769 0.67728 0.0
O306 O 0.19826 0.36801 0.64598 0.0
O307 O 0.22467 0.34519 0.67298 0.0
H308 H 0.17488 0.28775 0.64985 0.0
H309 H 0.15929 0.24575 0.62317 0.0
H310 H 0.07888 0.24378 0.66628 0.0
H311 H 0.09444 0.28574 0.69232 0.0
H312 H 0.10197 0.40007 0.78327 0.0
H313 H 0.12769 0.38405 0.74115 0.0
H314 H 0.17963 0.43719 0.81929 0.0
H315 H 0.20508 0.42087 0.77748 0.0
H316 H 0.31606 0.39446 0.65736 0.0
H317 H 0.27083 0.41266 0.58074 0.0
H318 H 0.22868 0.38741 0.5997 0.0
H319 H 0.27394 0.36902 0.67621 0.0
Dy320 Dy 0.0291 0.02917 0.48388 0.0
C321 C 0.99329 0.98835 0.59866 0.0
C322 C 0.03602 0.05393 0.43176 0.0
Dy323 Dy 1.00414 1.00787 0.54463 0.0
O324 O 0.03165 0.02802 0.43513 0.0
O325 O 0.03645 0.06627 0.45685 0.0
O326 O 0.07073 1.01097 0.48618 0.0
O327 O 0.04163 1.00595 0.51919 0.0
C328 C 0.06539 1.0001 0.51126 0.0
C329 C 0.96835 0.02933 0.50905 0.0
O330 O 0.03114 0.04552 0.55852 0.0
O331 O 0.04305 0.06424 0.5134 0.0
O332 O 0.98391 1.00994 0.58861 0.0
O333 O 1.00882 0.97759 0.57928 0.0
O334 O 0.96051 1.01111 0.528 0.0
O335 O 0.99402 0.03666 0.51218 0.0
O336 O 0.99907 0.99287 0.47187 0.0
O337 O 0.99736 0.971 0.51607 0.0
C338 C 0.04289 0.0654 0.54226 0.0
C339 C 0.99289 0.97101 0.4877 0.0
Dy340 Dy 0.53168 0.03187 0.04059 0.0
C341 C 0.45798 0.97225 0.95182 0.0
C342 C 0.56337 0.06672 0.07623 0.0
Dy343 Dy 0.49408 1.00361 0.9866 0.0
O344 O 0.53649 0.06078 0.07855 0.0
O345 O 0.57305 0.05378 0.05412 0.0
O346 O 0.52283 0.99671 0.07123 0.0
O347 O 0.5048 0.99569 0.0309 0.0
C348 C 0.50616 0.98232 0.05351 0.0
C349 C 0.52121 0.0525 0.97336 0.0
O350 O 0.46287 0.01938 0.01727 0.0
O351 O 0.49239 0.0528 0.04089 0.0
O352 O 0.45523 0.99705 0.95977 0.0
O353 O 0.48047 0.96429 0.96322 0.0
O354 O 0.50607 0.03743 0.95489 0.0
O355 O 0.52041 0.04003 0.99672 0.0
O356 O 0.56353 1.01314 0.01291 0.0
O357 O 0.53464 0.98519 0.98136 0.0
C358 C 0.46701 0.04157 0.03381 0.0
C359 C 0.55956 0.99381 0.99249 0.0
Dy360 Dy 0.52713 0.49086 0.49572 0.0
C361 C 0.47847 0.57555 0.55781 0.0
C362 C 0.56024 0.45475 0.47112 0.0
Dy363 Dy 0.50891 0.53801 0.53165 0.0
O364 O 0.53305 0.45285 0.46973 0.0
O365 O 0.56921 0.47659 0.48541 0.0
O366 O 0.48279 0.4718 0.49329 0.0
O367 O 0.49603 0.49483 0.5301 0.0
C368 C 0.47505 0.48245 0.51768 0.0
C369 C 0.56108 0.54565 0.50949 0.0
O370 O 0.52334 0.5141 0.56841 0.0
O371 O 0.54643 0.48459 0.53946 0.0
O372 O 0.50523 0.57876 0.55278 0.0
O373 O 0.46839 0.55167 0.54892 0.0
O374 O 0.55386 0.55574 0.53435 0.0
O375 O 0.53977 0.53392 0.49715 0.0
O376 O 0.51313 0.51556 0.45927 0.0
O377 O 0.48823 0.54334 0.48848 0.0
C378 C 0.54035 0.49471 0.56539 0.0
C379 C 0.49509 0.53406 0.46242 0.0
Dy380 Dy 0.02363 0.49093 0.02473 0.0
C381 C 0.98571 0.59151 0.99243 0.0
C382 C 0.04773 0.44464 0.03525 0.0
Dy383 Dy 1.01029 0.54526 1.0018 0.0
O384 O 0.0424 0.4533 1.00974 0.0
O385 O 0.03958 0.4611 0.05507 0.0
O386 O 0.99027 0.49315 0.05897 0.0
O387 O 0.01297 0.52871 0.04478 0.0
C388 C 0.99291 0.51941 0.06063 0.0
C389 C 0.04131 0.51698 0.96598 0.0
O390 O 0.04964 0.55945 0.02549 0.0
O391 O 0.06475 0.51684 0.02991 0.0
O392 O 0.9994 0.5787 0.97304 0.0
O393 O 0.98573 0.57921 0.01694 0.0
O394 O 0.04369 0.54324 0.96762 0.0
O395 O 0.02119 0.50757 0.98172 0.0
O396 O 0.98372 0.47646 1.00222 0.0
O397 O 0.9697 0.51905 0.9942 0.0
C398 C 0.06922 0.54358 0.03214 0.0
C399 C 0.96478 0.4923 0.99372 0.0
C400 C 0.11195 0.12253 0.29637 0.0
C401 C 0.09431 0.13138 0.2752 0.0
C402 C 0.10093 0.10972 0.32131 0.0
C403 C 0.07154 0.10571 0.32525 0.0
C404 C 0.05358 0.1145 0.30395 0.0
C405 C 0.06518 0.12722 0.27915 0.0
C406 C 0.12078 0.10067 0.34358 0.0
C407 C 0.02214 0.11054 0.3074 0.0
C408 C 0.04557 0.05175 0.37861 0.0
C409 C 0.04238 0.06722 0.40392 0.0
C410 C 0.05427 0.06408 0.35256 0.0
C411 C 0.05976 0.09254 0.35188 0.0
C412 C 0.0555 0.10829 0.37716 0.0
C413 C 0.04691 0.09541 0.40293 0.0
C414 C 0.05858 0.04662 0.32605 0.0
C415 C 0.06093 0.13868 0.37724 0.0
H416 H 0.13446 0.12603 0.29369 0.0
H417 H 0.05143 0.13372 0.2627 0.0
H418 H 0.1176 0.11109 0.36468 0.0
H419 H 0.11636 0.07868 0.34705 0.0
H420 H 0.14307 0.1049 0.33703 0.0
H421 H 1.01108 0.11847 0.28881 0.0
H422 H 0.01516 0.08876 0.30947 0.0
H423 H 0.01576 0.12087 0.32757 0.0
H424 H 0.04204 0.02994 0.37936 0.0
H425 H 0.04431 0.1074 0.42249 0.0
H426 H 0.0811 0.04844 0.32001 0.0
H427 H 0.04693 0.05355 0.30737 0.0
H428 H 0.05164 0.025 0.32966 0.0
H429 H 0.08353 0.14457 0.37333 0.0
H430 H 0.05482 0.14806 0.3981 0.0
H431 H 0.04921 0.14707 0.35945 0.0
C432 C 0.35073 0.89224 0.83942 0.0
C433 C 0.36128 0.89676 0.81132 0.0
C434 C 0.36618 0.90191 0.86389 0.0
C435 C 0.39262 0.91675 0.86012 0.0
C436 C 0.40363 0.92083 0.83181 0.0
C437 C 0.38789 0.91067 0.80777 0.0
C438 C 0.3539 0.89685 0.89372 0.0
C439 C 0.43159 0.93682 0.82684 0.0
C440 C 0.41862 0.96939 0.91681 0.0
C441 C 0.43978 0.95683 0.93039 0.0
C442 C 0.40269 0.95627 0.89439 0.0
C443 C 0.40788 0.92982 0.8855 0.0
C444 C 0.42853 0.91662 0.8999 0.0
C445 C 0.44438 0.93037 0.92214 0.0
C446 C 0.38099 0.97113 0.87953 0.0
C447 C 0.4344 0.8883 0.89127 0.0
H448 H 0.33031 0.88121 0.84224 0.0
H449 H 0.396 0.91445 0.78609 0.0
H450 H 0.36921 0.88802 0.90771 0.0
H451 H 0.3493 0.91626 0.90406 0.0
H452 H 0.33426 0.88306 0.89305 0.0
H453 H 0.43784 0.93696 0.8036 0.0
H454 H 0.43061 0.95798 0.83451 0.0
H455 H 0.44812 0.92835 0.83951 0.0
H456 H 0.415 0.98986 0.92315 0.0
H457 H 0.46069 0.92061 0.9327 0.0
H458 H 0.36031 0.95907 0.88002 0.0
H459 H 0.38686 0.97404 0.85641 0.0
H460 H 0.3788 0.99122 0.88977 0.0
H461 H 0.41467 0.87467 0.89106 0.0
H462 H 0.44944 0.88009 0.90612 0.0
H463 H 0.44319 0.88816 0.86896 0.0
C464 C 0.61092 0.43638 0.70696 0.0
C465 C 0.59506 0.41269 0.71577 0.0
C466 C 0.60294 0.45089 0.68297 0.0
C467 C 0.57842 0.44163 0.66732 0.0
C468 C 0.56226 0.41785 0.67616 0.0
C469 C 0.57078 0.40369 0.70012 0.0
C470 C 0.6208 0.47612 0.67431 0.0
C471 C 0.53601 0.40718 0.66013 0.0
C472 C 0.54251 0.48971 0.61962 0.0
C473 C 0.55133 0.48237 0.5917 0.0
C474 C 0.55151 0.47699 0.64441 0.0
C475 C 0.56987 0.45644 0.64136 0.0
C476 C 0.57931 0.44936 0.61331 0.0
C477 C 0.56994 0.46234 0.58891 0.0
C478 C 0.54089 0.48515 0.67387 0.0
C479 C 0.59895 0.42767 0.60898 0.0
H480 H 0.6295 0.44378 0.71902 0.0
H481 H 0.55857 0.38521 0.70629 0.0
H482 H 0.62848 0.47378 0.65174 0.0
H483 H 0.6081 0.49359 0.67481 0.0
H484 H 0.63913 0.48077 0.68877 0.0
H485 H 0.52537 0.3888 0.67013 0.0
H486 H 0.52112 0.42287 0.65972 0.0
H487 H 0.54125 0.40224 0.63729 0.0
H488 H 0.52813 0.50509 0.62213 0.0
H489 H 0.57703 0.45649 0.56754 0.0
H490 H 0.55874 0.49111 0.68855 0.0
H491 H 0.52838 0.46772 0.68372 0.0
H492 H 0.52764 0.5022 0.67276 0.0
H493 H 0.61811 0.43253 0.62216 0.0
H494 H 0.60523 0.42522 0.58592 0.0
H495 H 0.58874 0.40808 0.61651 0.0
C496 C 0.94441 0.59552 0.20341 0.0
C497 C 0.92094 0.60988 0.19973 0.0
C498 C 0.9555 0.58107 0.18021 0.0
C499 C 0.94282 0.58077 0.15254 0.0
C500 C 0.91903 0.59508 0.14867 0.0
C501 C 0.90844 0.60948 0.17225 0.0
C502 C 0.98102 0.56631 0.18528 0.0
C503 C 0.90475 0.59517 0.11962 0.0
C504 C 0.9875 0.56303 0.08737 0.0
C505 C 0.97898 0.5355 0.08293 0.0
C506 C 0.97553 0.57813 0.10952 0.0
C507 C 0.95451 0.56543 0.12773 0.0
C508 C 0.9454 0.53775 0.12288 0.0
C509 C 0.95776 0.52314 0.1006 0.0
C510 C 0.98585 0.60756 0.11382 0.0
C511 C 0.92292 0.52344 0.14159 0.0
H512 H 0.95452 0.59602 0.22438 0.0
H513 H 0.89015 0.62027 0.16921 0.0
H514 H 0.97624 0.54452 0.17999 0.0
H515 H 0.99831 0.57412 0.17071 0.0
H516 H 0.98843 0.56849 0.20805 0.0
H517 H 0.88634 0.60709 0.1202 0.0
H518 H 0.91974 0.60374 0.10303 0.0
H519 H 0.89773 0.57418 0.11252 0.0
H520 H 1.00396 0.57269 0.07388 0.0
H521 H 0.95101 0.50189 0.09722 0.0
H522 H 0.99553 0.61082 0.13555 0.0
H523 H 0.96804 0.62015 0.11303 0.0
H524 H 1.00153 0.61469 0.09715 0.0
H525 H 0.93022 0.52336 0.16436 0.0
H526 H 0.91725 0.50224 0.1342 0.0
H527 H 0.90382 0.53434 0.14149 0.0
C528 C 0.33075 0.11566 0.07705 0.0
C529 C 0.32185 0.10881 0.10523 0.0
C530 C 0.35482 0.10589 0.06489 0.0
C531 C 0.37026 0.08873 0.08122 0.0
C532 C 0.36161 0.08202 0.10978 0.0
C533 C 0.33761 0.09222 0.12146 0.0
C534 C 0.36346 0.11357 0.0344 0.0
C535 C 0.37752 0.06378 0.12789 0.0
C536 C 0.41521 0.04095 0.0415 0.0
C537 C 0.44223 0.05408 0.04524 0.0
C538 C 0.39161 0.05214 0.05287 0.0
C539 C 0.39504 0.07715 0.06822 0.0
C540 C 0.42217 0.09072 0.07174 0.0
C541 C 0.44545 0.07899 0.06029 0.0
C542 C 0.36303 0.03698 0.04882 0.0
C543 C 0.42664 0.11752 0.08781 0.0
H544 H 0.31856 0.1282 0.06422 0.0
H545 H 0.33119 0.08722 0.14343 0.0
H546 H 0.38547 0.12276 0.03414 0.0
H547 H 0.36242 0.09524 0.02021 0.0
H548 H 0.34993 0.12804 0.02507 0.0
H549 H 0.36827 0.06082 0.14987 0.0
H550 H 0.3777 0.04375 0.11689 0.0
H551 H 0.39963 0.07235 0.1302 0.0
H552 H 0.41244 0.02169 0.02997 0.0
H553 H 0.46619 0.08938 0.06321 0.0
H554 H 0.34893 0.04987 0.0378 0.0
H555 H 0.35356 0.0319 0.07027 0.0
H556 H 0.36386 0.01801 0.03586 0.0
H557 H 0.41404 0.13236 0.07776 0.0
H558 H 0.44897 0.12587 0.08789 0.0
H559 H 0.41937 0.11519 0.11058 0.0
C560 C 0.15186 0.886 0.57545 0.0
C561 C 0.17618 0.89682 0.58994 0.0
C562 C 0.13263 0.90279 0.5646 0.0
C563 C 0.13776 0.93115 0.56834 0.0
C564 C 0.16177 0.94217 0.58376 0.0
C565 C 0.18069 0.9249 0.59433 0.0
C566 C 0.10726 0.89022 0.54836 0.0
C567 C 0.16801 0.97228 0.58821 0.0
C568 C 0.10745 0.97462 0.51207 0.0
C569 C 0.08386 0.98296 0.52646 0.0
C570 C 0.12515 0.95789 0.52553 0.0
C571 C 0.11919 0.9493 0.55419 0.0
C572 C 0.09553 0.95793 0.56897 0.0
C573 C 0.07817 0.97473 0.55491 0.0
C574 C 0.15014 0.94921 0.50897 0.0
C575 C 0.0885 0.94933 0.59956 0.0
H576 H 0.14793 0.86432 0.5724 0.0
H577 H 0.19953 0.93351 0.60522 0.0
H578 H 0.08792 0.89748 0.55772 0.0
H579 H 0.10857 0.89643 0.52539 0.0
H580 H 0.10535 0.86782 0.54889 0.0
H581 H 0.18626 0.97752 0.60264 0.0
H582 H 0.17249 0.98189 0.56698 0.0
H583 H 0.14954 0.98107 0.5977 0.0
H584 H 0.11196 0.981 0.49006 0.0
H585 H 0.0603 0.9816 0.56622 0.0
H586 H 0.14849 0.92688 0.50677 0.0
H587 H 0.16967 0.95557 0.52105 0.0
H588 H 0.152 0.95786 0.48695 0.0
H589 H 0.08467 0.92701 0.60022 0.0
H590 H 0.06969 0.95819 0.60821 0.0
H591 H 0.10645 0.95547 0.61406 0.0
C592 C 0.83502 0.42787 0.89933 0.0
C593 C 0.81039 0.42189 0.91552 0.0
C594 C 0.86001 0.43874 0.91266 0.0
C595 C 0.86052 0.44377 0.943 0.0
C596 C 0.83584 0.43751 0.95955 0.0
C597 C 0.81111 0.42671 0.94563 0.0
C598 C 0.88578 0.44523 0.89416 0.0
C599 C 0.83551 0.4424 0.99196 0.0
C600 C 0.9319 0.45159 0.97984 0.0
C601 C 0.93756 0.47978 0.98202 0.0
C602 C 0.90679 0.4396 0.96762 0.0
C603 C 0.88675 0.45613 0.95725 0.0
C604 C 0.89212 0.48456 0.95979 0.0
C605 C 0.91737 0.49602 0.97212 0.0
C606 C 0.90188 0.40921 0.96538 0.0
C607 C 0.87134 0.50295 0.94904 0.0
H608 H 0.83463 0.42462 0.87602 0.0
H609 H 0.79231 0.42186 0.9584 0.0
H610 H 0.89252 0.46717 0.89573 0.0
H611 H 0.9033 0.43447 0.90219 0.0
H612 H 0.88213 0.43954 0.87098 0.0
H613 H 0.81482 0.43593 1.00181 0.0
H614 H 0.85165 0.43133 1.00233 0.0
H615 H 0.84081 0.46419 0.99697 0.0
H616 H 0.94726 0.43879 0.98739 0.0
H617 H 0.92138 0.5178 0.97368 0.0
H618 H 0.90009 0.40271 0.94226 0.0
H619 H 0.88185 0.40211 0.97617 0.0
H620 H 0.91903 0.39917 0.97537 0.0
H621 H 0.86825 0.49972 0.92536 0.0
H622 H 0.87828 0.52461 0.95329 0.0
H623 H 0.85071 0.49808 0.95966 0.0
C624 C 0.68684 0.61684 0.4164 0.0
C625 C 0.71134 0.60353 0.41627 0.0
C626 C 0.66286 0.60679 0.43196 0.0
C627 C 0.66322 0.58276 0.44783 0.0
C628 C 0.68789 0.56927 0.44791 0.0
C629 C 0.71161 0.57981 0.4322 0.0
C630 C 0.63708 0.62192 0.43138 0.0
C631 C 0.68916 0.54355 0.46439 0.0
C632 C 0.60887 0.57092 0.50818 0.0
C633 C 0.58799 0.55359 0.49444 0.0
C634 C 0.63365 0.58016 0.49346 0.0
C635 C 0.63773 0.57183 0.46429 0.0
C636 C 0.61699 0.55375 0.45058 0.0
C637 C 0.59239 0.54487 0.4658 0.0
C638 C 0.6552 0.59932 0.50895 0.0
C639 C 0.6205 0.54423 0.4196 0.0
H640 H 0.68647 0.63534 0.4045 0.0
H641 H 0.73025 0.56914 0.43194 0.0
H642 H 0.61914 0.60862 0.42247 0.0
H643 H 0.63132 0.62793 0.45376 0.0
H644 H 0.64017 0.64033 0.41808 0.0
H645 H 0.70996 0.53561 0.46252 0.0
H646 H 0.6845 0.54711 0.48767 0.0
H647 H 0.67298 0.52786 0.45613 0.0
H648 H 0.60562 0.57768 0.53033 0.0
H649 H 0.57636 0.53142 0.45508 0.0
H650 H 0.65762 0.61892 0.49774 0.0
H651 H 0.67589 0.59112 0.50832 0.0
H652 H 0.64941 0.60306 0.53194 0.0
H653 H 0.62144 0.56172 0.40499 0.0
H654 H 0.60308 0.52924 0.41251 0.0
H655 H 0.64053 0.53499 0.41703 0.0
C656 C 0.15329 0.33328 0.06017 0.0
C657 C 0.13945 0.30842 0.06826 0.0
C658 C 0.13827 0.35537 0.0543 0.0
C659 C 0.10868 0.35248 0.05641 0.0
C660 C 0.09455 0.32737 0.06421 0.0
C661 C 0.1101 0.30569 0.07014 0.0
C662 C 0.15408 0.38187 0.04611 0.0
C663 C 0.06302 0.3235 0.06664 0.0
C664 C 0.07119 0.41553 0.06886 0.0
C665 C 0.06244 0.42063 0.04078 0.0
C666 C 0.08631 0.39342 0.07424 0.0
C667 C 0.09252 0.37589 0.051 0.0
C668 C 0.08339 0.3808 0.02264 0.0
C669 C 0.06857 0.40324 0.01784 0.0
C670 C 0.09594 0.389 0.10473 0.0
C671 C 0.08936 0.36241 0.99737 0.0
H672 H 0.17593 0.33547 0.05829 0.0
H673 H 0.09925 0.2867 0.07683 0.0
H674 H 0.14705 0.38807 0.02461 0.0
H675 H 0.14955 0.39789 0.06204 0.0
H676 H 0.17708 0.38074 0.04525 0.0
H677 H 0.05518 0.30244 0.07198 0.0
H678 H 0.05579 0.33726 0.08374 0.0
H679 H 0.05342 0.32875 0.04595 0.0
H680 H 0.06658 0.42907 0.08659 0.0
H681 H 0.06181 0.4072 0.99609 0.0
H682 H 0.1191 0.38951 0.10517 0.0
H683 H 0.08732 0.36879 0.1121 0.0
H684 H 0.08938 0.40449 0.12037 0.0
H685 H 0.1123 0.36205 0.99453 0.0
H686 H 0.08044 0.36882 0.97676 0.0
H687 H 0.08052 0.34145 1.00176 0.0
C688 C 0.58199 0.20445 0.93769 0.0
C689 C 0.60869 0.2052 0.92486 0.0
C690 C 0.5681 0.18012 0.94768 0.0
C691 C 0.58112 0.15583 0.94478 0.0
C692 C 0.6082 0.15651 0.93221 0.0
C693 C 0.62158 0.18107 0.92239 0.0
C694 C 0.53926 0.18033 0.96091 0.0
C695 C 0.62282 0.13112 0.9285 0.0
C696 C 0.55317 0.09379 0.98771 0.0
C697 C 0.53674 0.07893 0.96682 0.0
C698 C 0.56771 0.11893 0.98099 0.0
C699 C 0.56563 0.12942 0.95277 0.0
C700 C 0.54891 0.11441 0.93175 0.0
C701 C 0.53475 0.08943 0.93902 0.0
C702 C 0.58536 0.1342 1.00402 0.0
C703 C 0.546 0.12471 0.90145 0.0
H704 H 0.57199 0.22296 0.94016 0.0
H705 H 0.64201 0.18126 0.9122 0.0
H706 H 0.52379 0.16785 0.94729 0.0
H707 H 0.53877 0.17126 0.98269 0.0
H708 H 0.53259 0.20104 0.963 0.0
H709 H 0.64451 0.13527 0.92004 0.0
H710 H 0.62361 0.12081 0.94952 0.0
H711 H 0.61085 0.11693 0.91322 0.0
H712 H 0.55466 0.08578 1.00924 0.0
H713 H 0.52202 0.07805 0.9228 0.0
H714 H 0.57797 0.15441 1.00787 0.0
H715 H 0.60744 0.13744 0.99653 0.0
H716 H 0.58473 0.12339 0.02488 0.0
H717 H 0.53756 0.14468 0.90239 0.0
H718 H 0.53195 0.11073 0.88774 0.0
H719 H 0.56685 0.12753 0.89081 0.0
C720 C 0.94342 0.8278 0.40995 0.0
C721 C 0.91407 0.823 0.40968 0.0
C722 C 0.95689 0.85208 0.42144 0.0
C723 C 0.9407 0.87215 0.43301 0.0
C724 C 0.9111 0.86761 0.43242 0.0
C725 C 0.89819 0.84317 0.42084 0.0
C726 C 0.98848 0.8561 0.42155 0.0
C727 C 0.89301 0.88836 0.4446 0.0
C728 C 0.97336 0.92234 0.48967 0.0
C729 C 0.97993 0.94568 0.47341 0.0
C730 C 0.96085 0.89833 0.47676 0.0
C731 C 0.95466 0.89745 0.44675 0.0
C732 C 0.96138 0.92084 0.43013 0.0
C733 C 0.9739 0.94463 0.44362 0.0
C734 C 0.95408 0.87391 0.49533 0.0
C735 C 0.95514 0.9208 0.3981 0.0
H736 H 0.95592 0.81257 0.40109 0.0
H737 H 0.87555 0.83959 0.42121 0.0
H738 H 0.99588 0.87493 0.41023 0.0
H739 H 0.99613 0.85837 0.44419 0.0
H740 H 0.99805 0.83897 0.41091 0.0
H741 H 0.87032 0.88228 0.44144 0.0
H742 H 0.897 0.89146 0.46815 0.0
H743 H 0.89842 0.90806 0.43413 0.0
H744 H 0.9779 0.92275 0.51266 0.0
H745 H 0.97886 0.96246 0.43077 0.0
H746 H 0.96473 0.85667 0.48655 0.0
H747 H 0.93122 0.86777 0.49487 0.0
H748 H 0.96055 0.87774 0.51825 0.0
H749 H 0.96566 0.90468 0.38674 0.0
H750 H 0.96212 0.94043 0.38808 0.0
H751 H 0.9323 0.91631 0.39455 0.0
C752 C 0.39496 0.68569 0.64145 0.0
C753 C 0.38193 0.70171 0.62193 0.0
C754 C 0.41008 0.66449 0.6316 0.0
C755 C 0.41242 0.65918 0.60146 0.0
C756 C 0.39912 0.67507 0.58162 0.0
C757 C 0.38403 0.69612 0.59209 0.0
C758 C 0.42397 0.64805 0.65345 0.0
C759 C 0.40112 0.67004 0.54932 0.0
C760 C 0.47423 0.6229 0.57481 0.0
C761 C 0.46175 0.59659 0.5699 0.0
C762 C 0.4584 0.64346 0.58502 0.0
C763 C 0.42942 0.63748 0.59068 0.0
C764 C 0.4168 0.61082 0.58609 0.0
C765 C 0.43311 0.59069 0.57562 0.0
C766 C 0.47264 0.67164 0.5895 0.0
C767 C 0.38604 0.60358 0.59211 0.0
H768 H 0.3939 0.69012 0.66451 0.0
H769 H 0.37378 0.70817 0.57687 0.0
H770 H 0.41699 0.62629 0.65025 0.0
H771 H 0.44701 0.65052 0.65023 0.0
H772 H 0.41925 0.65405 0.67616 0.0
H773 H 0.38917 0.68387 0.53679 0.0
H774 H 0.42336 0.67273 0.54229 0.0
H775 H 0.39305 0.64892 0.54382 0.0
H776 H 0.49636 0.62753 0.57029 0.0
H777 H 0.42341 0.57034 0.57184 0.0
H778 H 0.47022 0.67834 0.61239 0.0
H779 H 0.46257 0.68595 0.57578 0.0
H780 H 0.49532 0.67295 0.5841 0.0
H781 H 0.3812 0.60847 0.61507 0.0
H782 H 0.37951 0.58184 0.58781 0.0
H783 H 0.37332 0.61574 0.57843 0.0
C784 C 0.92266 0.89955 0.7239 0.0
C785 C 0.9322 0.90679 0.7519 0.0
C786 C 0.93362 0.91357 0.69967 0.0
C787 C 0.95485 0.93516 0.70352 0.0
C788 C 0.96474 0.94242 0.73173 0.0
C789 C 0.95315 0.92824 0.75564 0.0
C790 C 0.92227 0.90545 0.66996 0.0
C791 C 0.9876 0.96509 0.73663 0.0
C792 C 0.99806 0.95404 0.63642 0.0
C793 C 0.98523 0.97629 0.62676 0.0
C794 C 0.98904 0.94101 0.66198 0.0
C795 C 0.9664 0.95026 0.67794 0.0
C796 C 0.95385 0.97316 0.66861 0.0
C797 C 0.96357 0.98603 0.64319 0.0
C798 C 1.00322 0.91691 0.67147 0.0
C799 C 0.9295 0.98348 0.68489 0.0
H800 H 0.90625 0.88316 0.72101 0.0
H801 H 0.96074 0.93369 0.77726 0.0
H802 H 0.91349 0.92283 0.65993 0.0
H803 H 0.93944 0.89961 0.65563 0.0
H804 H 0.90566 0.8883 0.67071 0.0
H805 H 0.99329 0.96791 0.75987 0.0
H806 H 1.0066 0.96095 0.7241 0.0
H807 H 0.9808 0.98427 0.72866 0.0
H808 H 0.01491 0.94657 0.62375 0.0
H809 H 0.95359 1.00321 0.63568 0.0
H810 H 0.98825 0.89849 0.67003 0.0
H811 H 1.0098 0.91957 0.69445 0.0
H812 H 0.02188 0.9136 0.65795 0.0
H813 H 0.91139 0.96782 0.68447 0.0
H814 H 0.9229 1.00221 0.67549 0.0
H815 H 0.93509 0.98762 0.70796 0.0
C816 C 0.6502 0.16775 0.18834 0.0
C817 C 0.65537 0.15356 0.21341 0.0
C818 C 0.63724 0.15453 0.16408 0.0
C819 C 0.62925 0.12643 0.16489 0.0
C820 C 0.63538 0.11181 0.18968 0.0
C821 C 0.64834 0.12555 0.21364 0.0
C822 C 0.63118 0.1708 0.138 0.0
C823 C 0.62719 0.08182 0.19139 0.0
C824 C 0.56727 0.09649 0.12028 0.0
C825 C 0.58044 0.08372 0.09736 0.0
C826 C 0.58297 0.11097 0.142 0.0
C827 C 0.61259 0.11265 0.14082 0.0
C828 C 0.62603 0.10037 0.11727 0.0
C829 C 0.60974 0.08606 0.09573 0.0
C830 C 0.56782 0.12391 0.16663 0.0
C831 C 0.65754 0.10175 0.11527 0.0
H832 H 0.65599 0.18934 0.18784 0.0
H833 H 0.65198 0.11447 0.23301 0.0
H834 H 0.63923 0.16147 0.11797 0.0
H835 H 0.6082 0.17089 0.13549 0.0
H836 H 0.64065 0.19203 0.13988 0.0
H837 H 0.63533 0.07308 0.21123 0.0
H838 H 0.60403 0.07784 0.19138 0.0
H839 H 0.63517 0.07119 0.17213 0.0
H840 H 0.54459 0.09477 0.12154 0.0
H841 H 0.61995 0.07617 0.07801 0.0
H842 H 0.57504 0.14573 0.16851 0.0
H843 H 0.57273 0.1146 0.1874 0.0
H844 H 0.54474 0.12166 0.16372 0.0
H845 H 0.66677 0.12305 0.11671 0.0
H846 H 0.66476 0.09247 0.09478 0.0
H847 H 0.66576 0.09109 0.13378 0.0
C848 C 0.42277 0.59383 0.32257 0.0
C849 C 0.43835 0.61782 0.31424 0.0
C850 C 0.43129 0.57867 0.34583 0.0
C851 C 0.456 0.58766 0.3613 0.0
C852 C 0.47202 0.61164 0.35276 0.0
C853 C 0.46308 0.62631 0.32939 0.0
C854 C 0.41359 0.55325 0.35417 0.0
C855 C 0.49852 0.62199 0.36853 0.0
C856 C 0.46498 0.56622 0.43936 0.0
C857 C 0.48382 0.54642 0.43627 0.0
C858 C 0.45538 0.57934 0.41517 0.0
C859 C 0.46474 0.57258 0.38699 0.0
C860 C 0.48328 0.55221 0.38361 0.0
C861 C 0.49258 0.5394 0.40822 0.0
C862 C 0.43564 0.6009 0.41986 0.0
C863 C 0.49374 0.54432 0.354 0.0
H864 H 0.40351 0.58714 0.3113 0.0
H865 H 0.47564 0.64448 0.32288 0.0
H866 H 0.42654 0.53596 0.35411 0.0
H867 H 0.40535 0.55557 0.37652 0.0
H868 H 0.39563 0.54833 0.33927 0.0
H869 H 0.50891 0.64066 0.35889 0.0
H870 H 0.49366 0.62634 0.39161 0.0
H871 H 0.51348 0.60635 0.36813 0.0
H872 H 0.45794 0.57184 0.46082 0.0
H873 H 0.50711 0.52417 0.40547 0.0
H874 H 0.41645 0.59611 0.40673 0.0
H875 H 0.44576 0.6206 0.41253 0.0
H876 H 0.42944 0.60308 0.44298 0.0
H877 H 0.4758 0.53851 0.33938 0.0
H878 H 0.507 0.52726 0.35483 0.0
H879 H 0.50621 0.56184 0.34427 0.0
C880 C 0.0979 0.44282 0.82512 0.0
C881 C 0.12309 0.43137 0.82969 0.0
C882 C 0.08405 0.4553 0.84799 0.0
C883 C 0.09559 0.45643 0.87624 0.0
C884 C 0.12057 0.44426 0.88119 0.0
C885 C 0.13398 0.43192 0.85793 0.0
C886 C 0.05747 0.46799 0.8417 0.0
C887 C 0.13351 0.44481 0.91097 0.0
C888 C 0.07699 0.51389 0.92655 0.0
C889 C 0.05589 0.50107 0.94402 0.0
C890 C 0.09024 0.49953 0.90472 0.0
C891 C 0.0823 0.47158 0.9002 0.0
C892 C 0.06133 0.45842 0.91816 0.0
C893 C 0.04831 0.47334 0.93977 0.0
C894 C 0.11253 0.51438 0.8862 0.0
C895 C 0.05233 0.42867 0.91427 0.0
H896 H 0.08941 0.44282 0.80341 0.0
H897 H 0.15317 0.42278 0.86185 0.0
H898 H 0.04049 0.46008 0.85657 0.0
H899 H 0.06091 0.49013 0.84559 0.0
H900 H 0.05037 0.46412 0.81899 0.0
H901 H 0.15216 0.43326 0.91159 0.0
H902 H 0.13989 0.46599 0.91787 0.0
H903 H 0.11793 0.43629 0.92703 0.0
H904 H 0.08298 0.5353 0.92975 0.0
H905 H 0.03188 0.46335 0.95305 0.0
H906 H 0.10597 0.51326 0.86316 0.0
H907 H 0.13234 0.5047 0.88755 0.0
H908 H 0.11674 0.53597 0.89285 0.0
H909 H 0.04306 0.4247 0.89245 0.0
H910 H 0.03671 0.42119 0.93084 0.0
H911 H 0.07075 0.41691 0.91558 0.0
C912 C 0.69743 0.95047 0.9142 0.0
C913 C 0.70547 0.92575 0.92366 0.0
C914 C 0.67358 0.96118 0.92556 0.0
C915 C 0.65743 0.94698 0.94713 0.0
C916 C 0.66546 0.92211 0.95695 0.0
C917 C 0.68934 0.91176 0.94505 0.0
C918 C 0.6657 0.98776 0.91452 0.0
C919 C 0.64878 0.90642 0.97997 0.0
C920 C 0.61077 0.9875 0.9943 0.0
C921 C 0.58448 0.9813 0.9813 0.0
C922 C 0.63458 0.97614 0.98369 0.0
C923 C 0.63214 0.95825 0.95939 0.0
C924 C 0.60568 0.95171 0.9463 0.0
C925 C 0.58218 0.96325 0.95744 0.0
C926 C 0.66242 0.98348 0.99834 0.0
C927 C 0.60227 0.93282 0.92024 0.0
H928 H 0.71002 0.96167 0.89807 0.0
H929 H 0.69519 0.89251 0.95225 0.0
H930 H 0.64419 0.98514 0.90554 0.0
H931 H 0.66568 1.00274 0.93266 0.0
H932 H 0.68027 0.9961 0.8974 0.0
H933 H 0.65801 0.88758 0.9855 0.0
H934 H 0.64765 0.91907 0.99996 0.0
H935 H 0.627 0.90108 0.97245 0.0
H936 H 0.61284 1.00129 0.01283 0.0
H937 H 0.56203 0.9583 0.94717 0.0
H938 H 0.67748 0.99367 0.98278 0.0
H939 H 0.67135 0.96494 1.00535 0.0
H940 H 0.66064 0.99705 0.01755 0.0
H941 H 0.61523 0.94131 0.90197 0.0
H942 H 0.58016 0.9293 0.91299 0.0
H943 H 0.60981 0.9131 0.92535 0.0
C944 C 0.86111 0.12417 0.44383 0.0
C945 C 0.85161 0.11618 0.41596 0.0
C946 C 0.88089 0.11018 0.45811 0.0
C947 C 0.89154 0.08766 0.44419 0.0
C948 C 0.88237 0.0797 0.41592 0.0
C949 C 0.86249 0.09398 0.40221 0.0
C950 C 0.89017 0.11932 0.48824 0.0
C951 C 0.89319 0.05581 0.40034 0.0
C952 C 0.95919 0.06458 0.47338 0.0
C953 C 0.94902 0.04323 0.49107 0.0
C954 C 0.9408 0.07893 0.45754 0.0
C955 C 0.91153 0.07186 0.45966 0.0
C956 C 0.90123 0.04994 0.47708 0.0
C957 C 0.92011 0.03585 0.49251 0.0
C958 C 0.95267 0.10196 0.43899 0.0
C959 C 0.87021 0.04169 0.47989 0.0
H960 H 0.85316 0.1415 0.45449 0.0
H961 H 0.85502 0.08736 0.38087 0.0
H962 H 0.88467 0.10288 0.50374 0.0
H963 H 0.91326 0.12389 0.48873 0.0
H964 H 0.88035 0.13754 0.49583 0.0
H965 H 0.88492 0.05295 0.37793 0.0
H966 H 0.91641 0.05843 0.39927 0.0
H967 H 0.88717 0.03715 0.41254 0.0
H968 H 0.98153 0.07033 0.47223 0.0
H969 H 0.91217 0.01931 0.50613 0.0
H970 H 0.9457 0.1212 0.4476 0.0
H971 H 0.9447 0.09911 0.41651 0.0
H972 H 0.97593 0.10385 0.43831 0.0
H973 H 0.8596 0.05865 0.48944 0.0
H974 H 0.86565 0.02377 0.49371 0.0
H975 H 0.86098 0.03701 0.45817 0.0
C976 C 0.22295 0.6084 0.0814 0.0
C977 C 0.2236 0.61221 0.11166 0.0
C978 C 0.19827 0.59793 0.06714 0.0
C979 C 0.1736 0.59099 0.08348 0.0
C980 C 0.17406 0.59499 0.11398 0.0
C981 C 0.19898 0.60553 0.12765 0.0
C982 C 0.19865 0.59413 0.03459 0.0
C983 C 0.1483 0.58774 0.13226 0.0
C984 C 0.10206 0.58401 0.04696 0.0
C985 C 0.09655 0.55587 0.04378 0.0
C986 C 0.12722 0.59573 0.05932 0.0
C987 C 0.14742 0.57898 0.06885 0.0
C988 C 0.14221 0.55061 0.06525 0.0
C989 C 0.11693 0.53943 0.05275 0.0
C990 C 0.13198 0.62606 0.06265 0.0
C991 C 0.16314 0.53198 0.07513 0.0
H992 H 0.24174 0.61378 0.0688 0.0
H993 H 0.19932 0.60799 0.15105 0.0
H994 H 0.19349 0.5725 0.02875 0.0
H995 H 0.18245 0.60545 0.02471 0.0
H996 H 0.21933 0.60104 0.02495 0.0
H997 H 0.1519 0.59264 0.15562 0.0
H998 H 0.13072 0.59869 0.12473 0.0
H999 H 0.14167 0.56583 0.12983 0.0
H1000 H 0.08656 0.59696 0.04009 0.0
H1001 H 0.11301 0.51769 0.05044 0.0
H1002 H 0.15202 0.63359 0.05214 0.0
H1003 H 0.13367 0.63184 0.08598 0.0
H1004 H 0.11481 0.63634 0.05304 0.0
H1005 H 0.18376 0.53737 0.06467 0.0
H1006 H 0.15635 0.51044 0.07 0.0
H1007 H 0.16619 0.53437 0.09889 0.0
C1008 C 0.3486 0.40754 0.60661 0.0
C1009 C 0.32324 0.41928 0.60474 0.0
C1010 C 0.37319 0.41926 0.59329 0.0
C1011 C 0.37257 0.44342 0.5777 0.0
C1012 C 0.34722 0.45574 0.5763 0.0
C1013 C 0.32289 0.44352 0.58973 0.0
C1014 C 0.39969 0.40534 0.59526 0.0
C1015 C 0.34567 0.48161 0.56016 0.0
C1016 C 0.44297 0.48288 0.56093 0.0
C1017 C 0.44809 0.4741 0.53246 0.0
C1018 C 0.41822 0.4736 0.57572 0.0
C1019 C 0.39813 0.45498 0.56177 0.0
C1020 C 0.40297 0.44658 0.53277 0.0
C1021 C 0.4278 0.45628 0.51848 0.0
C1022 C 0.41385 0.48327 0.6065 0.0
C1023 C 0.38218 0.4268 0.51703 0.0
H1024 H 0.34908 0.38866 0.61778 0.0
H1025 H 0.30353 0.45295 0.58846 0.0
H1026 H 0.40618 0.39888 0.57326 0.0
H1027 H 0.41695 0.41955 0.60409 0.0
H1028 H 0.39705 0.38734 0.6092 0.0
H1029 H 0.32481 0.48939 0.56231 0.0
H1030 H 0.36184 0.49734 0.56833 0.0
H1031 H 0.35008 0.47819 0.5368 0.0
H1032 H 0.45855 0.49669 0.57185 0.0
H1033 H 0.43158 0.44946 0.49645 0.0
H1034 H 0.41347 0.466 0.62135 0.0
H1035 H 0.39332 0.49166 0.60862 0.0
H1036 H 0.43058 0.49896 0.61366 0.0
H1037 H 0.37997 0.40732 0.52847 0.0
H1038 H 0.38857 0.42295 0.49424 0.0
H1039 H 0.36126 0.43452 0.51699 0.0
C1040 C 0.92148 0.73116 0.96452 0.0
C1041 C 0.89298 0.72663 0.95754 0.0
C1042 C 0.93706 0.70966 0.97113 0.0
C1043 C 0.92384 0.68297 0.97061 0.0
C1044 C 0.89499 0.67828 0.96391 0.0
C1045 C 0.87988 0.70018 0.95753 0.0
C1046 C 0.96772 0.71548 0.97839 0.0
C1047 C 0.8802 0.65008 0.96297 0.0
C1048 C 0.96916 0.62517 0.9589 0.0
C1049 C 0.97084 0.61547 0.98705 0.0
C1050 C 0.95397 0.64719 0.95327 0.0
C1051 C 0.94035 0.65987 0.9764 0.0
C1052 C 0.94233 0.65034 1.00496 0.0
C1053 C 0.9575 0.62816 1.00992 0.0
C1054 C 0.95222 0.65667 0.92251 0.0
C1055 C 0.92826 0.66343 0.03021 0.0
H1056 H 0.93161 0.7516 0.96493 0.0
H1057 H 0.85794 0.69654 0.95183 0.0
H1058 H 0.97195 0.70731 0.99995 0.0
H1059 H 0.98058 0.70526 0.96228 0.0
H1060 H 0.97466 0.73744 0.97864 0.0
H1061 H 0.85755 0.64992 0.95805 0.0
H1062 H 0.89 0.6377 0.94618 0.0
H1063 H 0.88243 0.64022 0.98406 0.0
H1064 H 0.9794 0.6153 0.94119 0.0
H1065 H 0.9588 0.62066 0.03172 0.0
H1066 H 0.96049 0.67821 0.92127 0.0
H1067 H 0.93002 0.65513 0.91555 0.0
H1068 H 0.96415 0.64472 0.90702 0.0
H1069 H 0.93578 0.6852 0.03181 0.0
H1070 H 0.93229 0.65391 0.05114 0.0
H1071 H 0.90531 0.66201 0.02669 0.0
C1072 C 0.414 0.84996 0.10738 0.0
C1073 C 0.42694 0.82621 0.10202 0.0
C1074 C 0.42584 0.87506 0.09734 0.0
C1075 C 0.45137 0.87662 0.08155 0.0
C1076 C 0.46426 0.85267 0.07553 0.0
C1077 C 0.45192 0.82782 0.08579 0.0
C1078 C 0.41132 0.90002 0.1042 0.0
C1079 C 0.49154 0.85339 0.05893 0.0
C1080 C 0.47387 0.94099 0.03994 0.0
C1081 C 0.49234 0.95505 0.05964 0.0
C1082 C 0.46052 0.9153 0.04654 0.0
C1083 C 0.46571 0.90353 0.07351 0.0
C1084 C 0.48449 0.91772 0.09331 0.0
C1085 C 0.49752 0.9432 0.08613 0.0
C1086 C 0.44071 0.90088 0.02478 0.0
C1087 C 0.49069 0.90608 0.12229 0.0
H1088 H 0.39444 0.84893 0.11938 0.0
H1089 H 0.46224 0.80969 0.08168 0.0
H1090 H 0.42475 0.9139 0.11855 0.0
H1091 H 0.40796 0.91098 0.08402 0.0
H1092 H 0.39077 0.89524 0.11511 0.0
H1093 H 0.49786 0.83286 0.05422 0.0
H1094 H 0.48982 0.86391 0.03815 0.0
H1095 H 0.50839 0.86495 0.07166 0.0
H1096 H 0.46969 0.95015 0.01953 0.0
H1097 H 0.51176 0.95399 0.10148 0.0
H1098 H 0.41937 0.89778 0.03431 0.0
H1099 H 0.44735 0.88063 0.01939 0.0
H1100 H 0.43967 0.91228 1.00443 0.0
H1101 H 0.4711 0.90268 0.13518 0.0
H1102 H 0.50611 0.9195 0.13507 0.0
H1103 H 0.49902 0.88621 0.11906 0.0
C1104 C 0.08063 0.2112 0.61596 0.0
C1105 C 0.10805 0.21551 0.62676 0.0
C1106 C 0.07074 0.18671 0.60211 0.0
C1107 C 0.08866 0.16583 0.5988 0.0
C1108 C 0.11647 0.17012 0.6093 0.0
C1109 C 0.12581 0.19485 0.62311 0.0
C1110 C 0.04101 0.18312 0.59112 0.0
C1111 C 0.13627 0.14844 0.60624 0.0
C1112 C 0.05396 0.09409 0.5872 0.0
C1113 C 0.05576 0.09059 0.55696 0.0
C1114 C 0.06493 0.11825 0.6011 0.0
C1115 C 0.07815 0.13953 0.58448 0.0
C1116 C 0.0805 0.13596 0.55405 0.0
C1117 C 0.06929 0.11164 0.54069 0.0
C1118 C 0.0619 0.12119 0.63358 0.0
C1119 C 0.09452 0.15802 0.53549 0.0
H1120 H 0.06684 0.22712 0.61819 0.0
H1121 H 0.14691 0.19778 0.63163 0.0
H1122 H 0.04092 0.17863 0.56746 0.0
H1123 H 0.02926 0.16568 0.60176 0.0
H1124 H 0.02976 0.20131 0.59525 0.0
H1125 H 0.1574 0.15509 0.61498 0.0
H1126 H 0.12765 0.13017 0.61788 0.0
H1127 H 0.13843 0.14252 0.58307 0.0
H1128 H 0.0436 0.07808 0.60008 0.0
H1129 H 0.07096 0.10927 0.51735 0.0
H1130 H 0.04902 0.13799 0.63889 0.0
H1131 H 0.08274 0.12636 0.64361 0.0
H1132 H 0.05193 0.1025 0.64354 0.0
H1133 H 0.08286 0.17618 0.53723 0.0
H1134 H 0.09558 0.15177 0.51227 0.0
H1135 H 0.1161 0.16398 0.54331 0.0
C1136 C 0.64762 0.32773 0.45622 0.0
C1137 C 0.66286 0.32625 0.43026 0.0
C1138 C 0.63086 0.34889 0.46178 0.0
C1139 C 0.62915 0.36906 0.44084 0.0
C1140 C 0.64437 0.36764 0.41453 0.0
C1141 C 0.66108 0.3463 0.40959 0.0
C1142 C 0.61513 0.34978 0.49021 0.0
C1143 C 0.64297 0.38864 0.39158 0.0
C1144 C 0.56649 0.41036 0.4467 0.0
C1145 C 0.57814 0.43379 0.46116 0.0
C1146 C 0.583 0.38938 0.43928 0.0
C1147 C 0.61176 0.39185 0.44674 0.0
C1148 C 0.62371 0.41577 0.46079 0.0
C1149 C 0.60677 0.43649 0.46772 0.0
C1150 C 0.56954 0.36431 0.42407 0.0
C1151 C 0.65422 0.41919 0.46922 0.0
H1152 H 0.64914 0.3125 0.47243 0.0
H1153 H 0.67248 0.34511 0.38931 0.0
H1154 H 0.62191 0.36877 0.5023 0.0
H1155 H 0.59236 0.34968 0.48612 0.0
H1156 H 0.61849 0.33245 0.50411 0.0
H1157 H 0.6558 0.38448 0.37216 0.0
H1158 H 0.62095 0.38944 0.38473 0.0
H1159 H 0.65043 0.40889 0.40059 0.0
H1160 H 0.54435 0.40823 0.44159 0.0
H1161 H 0.61583 0.45457 0.47896 0.0
H1162 H 0.57027 0.34667 0.43825 0.0
H1163 H 0.58131 0.3601 0.40397 0.0
H1164 H 0.54736 0.36615 0.41834 0.0
H1165 H 0.6584 0.40361 0.48506 0.0
H1166 H 0.66053 0.43942 0.47904 0.0
H1167 H 0.66762 0.41624 0.44995 0.0
loop_
_geom_bond_atom_site_label_1
_geom_bond_atom_site_label_2
_geom_bond_distance
_geom_bond_site_symmetry_2
_ccdc_geom_bond_type
C0 C1 1.264 . S
C0 C5 1.479 . S
C0 C10 1.465 . S
C1 C0 1.264 . S
C1 C3 1.339 . S
C1 H28 0.931 . S
C2 C3 1.395 . S
C2 C4 1.320 . S
C3 C1 1.339 . S
C3 C2 1.395 . S
C3 H29 0.929 . S
C4 C2 1.320 . S
C4 C5 1.405 . S
C4 H30 0.930 . S
C5 C0 1.479 . S
C5 C4 1.405 . S
C5 H31 0.931 . S
U6 O7 2.454 . S
U6 O8 2.458 . S
U6 C9 2.984 . S
U6 C10 2.847 . S
U6 C23 2.882 . S
U6 O24 2.441 . S
U6 O25 2.420 . S
U6 O26 2.455 . S
U6 O27 2.449 . S
O7 U6 2.454 . S
O7 C9 1.353 . S
O8 U6 2.458 . S
O8 C9 1.286 . S
C9 U6 2.984 . S
C9 O7 1.353 . S
C9 O8 1.286 . S
C9 C11 1.363 . S
C10 C0 1.465 . S
C10 U6 2.847 . S
C10 O24 1.249 . S
C10 O25 1.202 . S
C11 C9 1.363 . S
C11 C13 1.408 . S
C11 C16 1.342 . S
C12 C13 1.310 . S
C12 C15 1.461 . S
C12 H32 0.932 . S
C13 C11 1.408 . S
C13 C12 1.310 . S
C13 H33 0.930 . S
C14 C15 1.474 . S
C14 C16 1.285 . S
C14 H34 0.929 . S
C15 C12 1.461 . S
C15 C14 1.474 . S
C16 C11 1.342 . S
C16 C14 1.285 . S
C16 H35 0.930 . S
C17 C20 1.424 . S
C17 C22 1.245 . S
C17 C23 1.428 . S
C18 C21 1.260 . S
C18 C22 1.477 . S
C18 H36 0.932 . S
C19 C20 1.384 . S
C19 C21 1.479 . S
C19 H37 0.929 . S
C20 C17 1.424 . S
C20 C19 1.384 . S
C20 H38 0.928 . S
C21 C18 1.260 . S
C21 C19 1.479 . S
C22 C17 1.245 . S
C22 C18 1.477 . S
C22 H39 0.932 . S
C23 U6 2.882 . S
C23 C17 1.428 . S
C23 O26 1.301 . S
C23 O27 1.282 . S
O24 U6 2.441 . S
O24 C10 1.249 . S
O25 U6 2.420 . S
O25 C10 1.202 . S
O26 U6 2.455 . S
O26 C23 1.301 . S
O27 U6 2.449 . S
O27 C23 1.282 . S
H28 C1 0.931 . S
H29 C3 0.929 . S
H30 C4 0.930 . S
H31 C5 0.931 . S
H32 C12 0.932 . S
H33 C13 0.930 . S
H34 C14 0.929 . S
H35 C16 0.930 . S
H36 C18 0.932 . S
H37 C19 0.929 . S
H38 C20 0.928 . S
H39 C22 0.932 . S
C40 C41 1.264 . S
C40 C45 1.479 . S
C40 C50 1.465 . S
C41 C40 1.264 . S
C41 C43 1.339 . S
C41 H68 0.931 . S
C42 C43 1.395 . S
C42 C44 1.320 . S
C43 C41 1.339 . S
C43 C42 1.395 . S
C43 H69 0.929 . S
C44 C42 1.320 . S
C44 C45 1.405 . S
C44 H70 0.930 . S
C45 C40 1.479 . S
C45 C44 1.405 . S
C45 H71 0.931 . S
U46 O47 2.454 . S
U46 O48 2.458 . S
U46 C49 2.984 . S
U46 C50 2.847 . S
U46 C63 2.882 . S
U46 O64 2.441 . S
U46 O65 2.420 . S
U46 O66 2.455 . S
U46 O67 2.449 . S
O47 U46 2.454 . S
O47 C49 1.353 . S
O48 U46 2.458 . S
O48 C49 1.286 . S
C49 U46 2.984 . S
C49 O47 1.353 . S
C49 O48 1.286 . S
C49 C51 1.363 . S
C50 C40 1.465 . S
C50 U46 2.847 . S
C50 O64 1.249 . S
C50 O65 1.202 . S
C51 C49 1.363 . S
C51 C53 1.408 . S
C51 C56 1.342 . S
C52 C53 1.310 . S
C52 C55 1.461 . S
C52 H72 0.932 . S
C53 C51 1.408 . S
C53 C52 1.310 . S
C53 H73 0.930 . S
C54 C55 1.474 . S
C54 C56 1.285 . S
C54 H74 0.929 . S
C55 C52 1.461 . S
C55 C54 1.474 . S
C56 C51 1.342 . S
C56 C54 1.285 . S
C56 H75 0.930 . S
C57 C60 1.424 . S
C57 C62 1.245 . S
C57 C63 1.428 . S
C58 C61 1.260 . S
C58 C62 1.477 . S
C58 H76 0.932 . S
C59 C60 1.384 . S
C59 C61 1.479 . S
C59 H77 0.929 . S
C60 C57 1.424 . S
C60 C59 1.384 . S
C60 H78 0.928 . S
C61 C58 1.260 . S
C61 C59 1.479 . S
C62 C57 1.245 . S
C62 C58 1.477 . S
C62 H79 0.932 . S
C63 U46 2.882 . S
C63 C57 1.428 . S
C63 O66 1.301 . S
C63 O67 1.282 . S
O64 U46 2.441 . S
O64 C50 1.249 . S
O65 U46 2.420 . S
O65 C50 1.202 . S
O66 U46 2.455 . S
O66 C63 1.301 . S
O67 U46 2.449 . S
O67 C63 1.282 . S
H68 C41 0.931 . S
H69 C43 0.929 . S
H70 C44 0.930 . S
H71 C45 0.931 . S
H72 C52 0.932 . S
H73 C53 0.930 . S
H74 C54 0.929 . S
H75 C56 0.930 . S
H76 C58 0.932 . S
H77 C59 0.929 . S
H78 C60 0.928 . S
H79 C62 0.932 . S
C80 C81 1.264 . S
C80 C85 1.479 . S
C80 C90 1.465 . S
C81 C80 1.264 . S
C81 C83 1.339 . S
C81 H108 0.931 . S
C82 C83 1.395 . S
C82 C84 1.320 . S
C83 C81 1.339 . S
C83 C82 1.395 . S
C83 H109 0.929 . S
C84 C82 1.320 . S
C84 C85 1.405 . S
C84 H110 0.930 . S
C85 C80 1.479 . S
C85 C84 1.405 . S
C85 H111 0.931 . S
U86 O87 2.454 . S
U86 O88 2.458 . S
U86 C89 2.984 . S
U86 C90 2.847 . S
U86 C103 2.882 . S
U86 O104 2.441 . S
U86 O105 2.420 . S
U86 O106 2.455 . S
U86 O107 2.449 . S
O87 U86 2.454 . S
O87 C89 1.353 . S
O88 U86 2.458 . S
O88 C89 1.286 . S
C89 U86 2.984 . S
C89 O87 1.353 . S
C89 O88 1.286 . S
C89 C91 1.363 . S
C90 C80 1.465 . S
C90 U86 2.847 . S
C90 O104 1.249 . S
C90 O105 1.202 . S
C91 C89 1.363 . S
C91 C93 1.408 . S
C91 C96 1.342 . S
C92 C93 1.310 . S
C92 C95 1.461 . S
C92 H112 0.932 . S
C93 C91 1.408 . S
C93 C92 1.310 . S
C93 H113 0.930 . S
C94 C95 1.474 . S
C94 C96 1.285 . S
C94 H114 0.929 . S
C95 C92 1.461 . S
C95 C94 1.474 . S
C96 C91 1.342 . S
C96 C94 1.285 . S
C96 H115 0.930 . S
C97 C100 1.424 . S
C97 C102 1.245 . S
C97 C103 1.428 . S
C98 C101 1.260 . S
C98 C102 1.477 . S
C98 H116 0.932 . S
C99 C100 1.384 . S
C99 C101 1.479 . S
C99 H117 0.929 . S
C100 C97 1.424 . S
C100 C99 1.384 . S
C100 H118 0.928 . S
C101 C98 1.260 . S
C101 C99 1.479 . S
C102 C97 1.245 . S
C102 C98 1.477 . S
C102 H119 0.932 . S
C103 U86 2.882 . S
C103 C97 1.428 . S
C103 O106 1.301 . S
C103 O107 1.282 . S
O104 U86 2.441 . S
O104 C90 1.249 . S
O105 U86 2.420 . S
O105 C90 1.202 . S
O106 U86 2.455 . S
O106 C103 1.301 . S
O107 U86 2.449 . S
O107 C103 1.282 . S
H108 C81 0.931 . S
H109 C83 0.929 . S
H110 C84 0.930 . S
H111 C85 0.931 . S
H112 C92 0.932 . S
H113 C93 0.930 . S
H114 C94 0.929 . S
H115 C96 0.930 . S
H116 C98 0.932 . S
H117 C99 0.929 . S
H118 C100 0.928 . S
H119 C102 0.932 . S
C120 C121 1.264 . S
C120 C125 1.479 . S
C120 C130 1.465 . S
C121 C120 1.264 . S
C121 C123 1.339 . S
C121 H148 0.931 . S
C122 C123 1.395 . S
C122 C124 1.320 . S
C123 C121 1.339 . S
C123 C122 1.395 . S
C123 H149 0.929 . S
C124 C122 1.320 . S
C124 C125 1.405 . S
C124 H150 0.930 . S
C125 C120 1.479 . S
C125 C124 1.405 . S
C125 H151 0.931 . S
U126 O127 2.454 . S
U126 O128 2.458 . S
U126 C129 2.984 . S
U126 C130 2.847 . S
U126 C143 2.882 . S
U126 O144 2.441 . S
U126 O145 2.420 . S
U126 O146 2.455 . S
U126 O147 2.449 . S
O127 U126 2.454 . S
O127 C129 1.353 . S
O128 U126 2.458 . S
O128 C129 1.286 . S
C129 U126 2.984 . S
C129 O127 1.353 . S
C129 O128 1.286 . S
C129 C131 1.363 . S
C130 C120 1.465 . S
C130 U126 2.847 . S
C130 O144 1.249 . S
C130 O145 1.202 . S
C131 C129 1.363 . S
C131 C133 1.408 . S
C131 C136 1.342 . S
C132 C133 1.310 . S
C132 C135 1.461 . S
C132 H152 0.932 . S
C133 C131 1.408 . S
C133 C132 1.310 . S
C133 H153 0.930 . S
C134 C135 1.474 . S
C134 C136 1.285 . S
C134 H154 0.929 . S
C135 C132 1.461 . S
C135 C134 1.474 . S
C136 C131 1.342 . S
C136 C134 1.285 . S
C136 H155 0.930 . S
C137 C140 1.424 . S
C137 C142 1.245 . S
C137 C143 1.428 . S
C138 C141 1.260 . S
C138 C142 1.477 . S
C138 H156 0.932 . S
C139 C140 1.384 . S
C139 C141 1.479 . S
C139 H157 0.929 . S
C140 C137 1.424 . S
C140 C139 1.384 . S
C140 H158 0.928 . S
C141 C138 1.260 . S
C141 C139 1.479 . S
C142 C137 1.245 . S
C142 C138 1.477 . S
C142 H159 0.932 . S
C143 U126 2.882 . S
C143 C137 1.428 . S
C143 O146 1.301 . S
C143 O147 1.282 . S
O144 U126 2.441 . S
O144 C130 1.249 . S
O145 U126 2.420 . S
O145 C130 1.202 . S
O146 U126 2.455 . S
O146 C143 1.301 . S
O147 U126 2.449 . S
O147 C143 1.282 . S
H148 C121 0.931 . S
H149 C123 0.929 . S
H150 C124 0.930 . S
H151 C125 0.931 . S
H152 C132 0.932 . S
H153 C133 0.930 . S
H154 C134 0.929 . S
H155 C136 0.930 . S
H156 C138 0.932 . S
H157 C139 0.929 . S
H158 C140 0.928 . S
H159 C142 0.932 . S
C160 C161 1.264 . S
C160 C165 1.479 . S
C160 C170 1.465 . S
C161 C160 1.264 . S
C161 C163 1.339 . S
C161 H188 0.931 . S
C162 C163 1.395 . S
C162 C164 1.320 . S
C163 C161 1.339 . S
C163 C162 1.395 . S
C163 H189 0.929 . S
C164 C162 1.320 . S
C164 C165 1.405 . S
C164 H190 0.930 . S
C165 C160 1.479 . S
C165 C164 1.405 . S
C165 H191 0.931 . S
U166 O167 2.454 . S
U166 O168 2.458 . S
U166 C169 2.984 . S
U166 C170 2.847 . S
U166 C183 2.882 . S
U166 O184 2.441 . S
U166 O185 2.420 . S
U166 O186 2.455 . S
U166 O187 2.449 . S
O167 U166 2.454 . S
O167 C169 1.353 . S
O168 U166 2.458 . S
O168 C169 1.286 . S
C169 U166 2.984 . S
C169 O167 1.353 . S
C169 O168 1.286 . S
C169 C171 1.363 . S
C170 C160 1.465 . S
C170 U166 2.847 . S
C170 O184 1.249 . S
C170 O185 1.202 . S
C171 C169 1.363 . S
C171 C173 1.408 . S
C171 C176 1.342 . S
C172 C173 1.310 . S
C172 C175 1.461 . S
C172 H192 0.932 . S
C173 C171 1.408 . S
C173 C172 1.310 . S
C173 H193 0.930 . S
C174 C175 1.474 . S
C174 C176 1.285 . S
C174 H194 0.929 . S
C175 C172 1.461 . S
C175 C174 1.474 . S
C176 C171 1.342 . S
C176 C174 1.285 . S
C176 H195 0.930 . S
C177 C180 1.424 . S
C177 C182 1.245 . S
C177 C183 1.428 . S
C178 C181 1.260 . S
C178 C182 1.477 . S
C178 H196 0.932 . S
C179 C180 1.384 . S
C179 C181 1.479 . S
C179 H197 0.929 . S
C180 C177 1.424 . S
C180 C179 1.384 . S
C180 H198 0.928 . S
C181 C178 1.260 . S
C181 C179 1.479 . S
C182 C177 1.245 . S
C182 C178 1.477 . S
C182 H199 0.932 . S
C183 U166 2.882 . S
C183 C177 1.428 . S
C183 O186 1.301 . S
C183 O187 1.282 . S
O184 U166 2.441 . S
O184 C170 1.249 . S
O185 U166 2.420 . S
O185 C170 1.202 . S
O186 U166 2.455 . S
O186 C183 1.301 . S
O187 U166 2.449 . S
O187 C183 1.282 . S
H188 C161 0.931 . S
H189 C163 0.929 . S
H190 C164 0.930 . S
H191 C165 0.931 . S
H192 C172 0.932 . S
H193 C173 0.930 . S
H194 C174 0.929 . S
H195 C176 0.930 . S
H196 C178 0.932 . S
H197 C179 0.929 . S
H198 C180 0.928 . S
H199 C182 0.932 . S
C200 C201 1.264 . S
C200 C205 1.479 . S
C200 C210 1.465 . S
C201 C200 1.264 . S
C201 C203 1.339 . S
C201 H228 0.931 . S
C202 C203 1.395 . S
C202 C204 1.320 . S
C203 C201 1.339 . S
C203 C202 1.395 . S
C203 H229 0.929 . S
C204 C202 1.320 . S
C204 C205 1.405 . S
C204 H230 0.930 . S
C205 C200 1.479 . S
C205 C204 1.405 . S
C205 H231 0.931 . S
U206 O207 2.454 . S
U206 O208 2.458 . S
U206 C209 2.984 . S
U206 C210 2.847 . S
U206 C223 2.882 . S
U206 O224 2.441 . S
U206 O225 2.420 . S
U206 O226 2.455 . S
U206 O227 2.449 . S
O207 U206 2.454 . S
O207 C209 1.353 . S
O208 U206 2.458 . S
O208 C209 1.286 . S
C209 U206 2.984 . S
C209 O207 1.353 . S
C209 O208 1.286 . S
C209 C211 1.363 . S
C210 C200 1.465 . S
C210 U206 2.847 . S
C210 O224 1.249 . S
C210 O225 1.202 . S
C211 C209 1.363 . S
C211 C213 1.408 . S
C211 C216 1.342 . S
C212 C213 1.310 . S
C212 C215 1.461 . S
C212 H232 0.932 . S
C213 C211 1.408 . S
C213 C212 1.310 . S
C213 H233 0.930 . S
C214 C215 1.474 . S
C214 C216 1.285 . S
C214 H234 0.929 . S
C215 C212 1.461 . S
C215 C214 1.474 . S
C216 C211 1.342 . S
C216 C214 1.285 . S
C216 H235 0.930 . S
C217 C220 1.424 . S
C217 C222 1.245 . S
C217 C223 1.428 . S
C218 C221 1.260 . S
C218 C222 1.477 . S
C218 H236 0.932 . S
C219 C220 1.384 . S
C219 C221 1.479 . S
C219 H237 0.929 . S
C220 C217 1.424 . S
C220 C219 1.384 . S
C220 H238 0.928 . S
C221 C218 1.260 . S
C221 C219 1.479 . S
C222 C217 1.245 . S
C222 C218 1.477 . S
C222 H239 0.932 . S
C223 U206 2.882 . S
C223 C217 1.428 . S
C223 O226 1.301 . S
C223 O227 1.282 . S
O224 U206 2.441 . S
O224 C210 1.249 . S
O225 U206 2.420 . S
O225 C210 1.202 . S
O226 U206 2.455 . S
O226 C223 1.301 . S
O227 U206 2.449 . S
O227 C223 1.282 . S
H228 C201 0.931 . S
H229 C203 0.929 . S
H230 C204 0.930 . S
H231 C205 0.931 . S
H232 C212 0.932 . S
H233 C213 0.930 . S
H234 C214 0.929 . S
H235 C216 0.930 . S
H236 C218 0.932 . S
H237 C219 0.929 . S
H238 C220 0.928 . S
H239 C222 0.932 . S
C240 C241 1.264 . S
C240 C245 1.479 . S
C240 C250 1.465 . S
C241 C240 1.264 . S
C241 C243 1.339 . S
C241 H268 0.931 . S
C242 C243 1.395 . S
C242 C244 1.320 . S
C243 C241 1.339 . S
C243 C242 1.395 . S
C243 H269 0.929 . S
C244 C242 1.320 . S
C244 C245 1.405 . S
C244 H270 0.930 . S
C245 C240 1.479 . S
C245 C244 1.405 . S
C245 H271 0.931 . S
U246 O247 2.454 . S
U246 O248 2.458 . S
U246 C249 2.984 . S
U246 C250 2.847 . S
U246 C263 2.882 . S
U246 O264 2.441 . S
U246 O265 2.420 . S
U246 O266 2.455 . S
U246 O267 2.449 . S
O247 U246 2.454 . S
O247 C249 1.353 . S
O248 U246 2.458 . S
O248 C249 1.286 . S
C249 U246 2.984 . S
C249 O247 1.353 . S
C249 O248 1.286 . S
C249 C251 1.363 . S
C250 C240 1.465 . S
C250 U246 2.847 . S
C250 O264 1.249 . S
C250 O265 1.202 . S
C251 C249 1.363 . S
C251 C253 1.408 . S
C251 C256 1.342 . S
C252 C253 1.310 . S
C252 C255 1.461 . S
C252 H272 0.932 . S
C253 C251 1.408 . S
C253 C252 1.310 . S
C253 H273 0.930 . S
C254 C255 1.474 . S
C254 C256 1.285 . S
C254 H274 0.929 . S
C255 C252 1.461 . S
C255 C254 1.474 . S
C256 C251 1.342 . S
C256 C254 1.285 . S
C256 H275 0.930 . S
C257 C260 1.424 . S
C257 C262 1.245 . S
C257 C263 1.428 . S
C258 C261 1.260 . S
C258 C262 1.477 . S
C258 H276 0.932 . S
C259 C260 1.384 . S
C259 C261 1.479 . S
C259 H277 0.929 . S
C260 C257 1.424 . S
C260 C259 1.384 . S
C260 H278 0.928 . S
C261 C258 1.260 . S
C261 C259 1.479 . S
C262 C257 1.245 . S
C262 C258 1.477 . S
C262 H279 0.932 . S
C263 U246 2.882 . S
C263 C257 1.428 . S
C263 O266 1.301 . S
C263 O267 1.282 . S
O264 U246 2.441 . S
O264 C250 1.249 . S
O265 U246 2.420 . S
O265 C250 1.202 . S
O266 U246 2.455 . S
O266 C263 1.301 . S
O267 U246 2.449 . S
O267 C263 1.282 . S
H268 C241 0.931 . S
H269 C243 0.929 . S
H270 C244 0.930 . S
H271 C245 0.931 . S
H272 C252 0.932 . S
H273 C253 0.930 . S
H274 C254 0.929 . S
H275 C256 0.930 . S
H276 C258 0.932 . S
H277 C259 0.929 . S
H278 C260 0.928 . S
H279 C262 0.932 . S
C280 C281 1.264 . S
C280 C285 1.479 . S
C280 C290 1.465 . S
C281 C280 1.264 . S
C281 C283 1.339 . S
C281 H308 0.931 . S
C282 C283 1.395 . S
C282 C284 1.320 . S
C283 C281 1.339 . S
C283 C282 1.395 . S
C283 H309 0.929 . S
C284 C282 1.320 . S
C284 C285 1.405 . S
C284 H310 0.930 . S
C285 C280 1.479 . S
C285 C284 1.405 . S
C285 H311 0.931 . S
U286 O287 2.454 . S
U286 O288 2.458 . S
U286 C289 2.984 . S
U286 C290 2.847 . S
U286 C303 2.882 . S
U286 O304 2.441 . S
U286 O305 2.420 . S
U286 O306 2.455 . S
U286 O307 2.449 . S
O287 U286 2.454 . S
O287 C289 1.353 . S
O288 U286 2.458 . S
O288 C289 1.286 . S
C289 U286 2.984 . S
C289 O287 1.353 . S
C289 O288 1.286 . S
C289 C291 1.363 . S
C290 C280 1.465 . S
C290 U286 2.847 . S
C290 O304 1.249 . S
C290 O305 1.202 . S
C291 C289 1.363 . S
C291 C293 1.408 . S
C291 C296 1.342 . S
C292 C293 1.310 . S
C292 C295 1.461 . S
C292 H312 0.932 . S
C293 C291 1.408 . S
C293 C292 1.310 . S
C293 H313 0.930 . S
C294 C295 1.474 . S
C294 C296 1.285 . S
C294 H314 0.929 . S
C295 C292 1.461 . S
C295 C294 1.474 . S
C296 C291 1.342 . S
C296 C294 1.285 . S
C296 H315 0.930 . S
C297 C300 1.424 . S
C297 C302 1.245 . S
C297 C303 1.428 . S
C298 C301 1.260 . S
C298 C302 1.477 . S
C298 H316 0.932 . S
C299 C300 1.384 . S
C299 C301 1.479 . S
C299 H317 0.929 . S
C300 C297 1.424 . S
C300 C299 1.384 . S
C300 H318 0.928 . S
C301 C298 1.260 . S
C301 C299 1.479 . S
C302 C297 1.245 . S
C302 C298 1.477 . S
C302 H319 0.932 . S
C303 U286 2.882 . S
C303 C297 1.428 . S
C303 O306 1.301 . S
C303 O307 1.282 . S
O304 U286 2.441 . S
O304 C290 1.249 . S
O305 U286 2.420 . S
O305 C290 1.202 . S
O306 U286 2.455 . S
O306 C303 1.301 . S
O307 U286 2.449 . S
O307 C303 1.282 . S
H308 C281 0.931 . S
H309 C283 0.929 . S
H310 C284 0.930 . S
H311 C285 0.931 . S
H312 C292 0.932 . S
H313 C293 0.930 . S
H314 C294 0.929 . S
H315 C296 0.930 . S
H316 C298 0.932 . S
H317 C299 0.929 . S
H318 C300 0.928 . S
H319 C302 0.932 . S
Dy320 O324 2.398 . S
Dy320 O325 2.491 . S
Dy320 O326 2.403 1_545 S
Dy320 O327 2.664 1_545 S
Dy320 O331 2.326 . S
Dy320 O335 2.310 1_455 S
Dy320 O336 2.351 1_445 S
C321 O332 1.185 . S
C321 O333 1.355 . S
C322 O324 1.185 . S
C322 O325 1.355 . S
Dy323 O327 2.310 1_655 S
Dy323 O330 2.351 1_665 S
Dy323 O332 2.398 . S
Dy323 O333 2.491 . S
Dy323 O334 2.403 1_565 S
Dy323 O335 2.664 1_565 S
Dy323 O337 2.326 . S
O324 Dy320 2.398 . S
O324 C322 1.185 . S
O325 Dy320 2.491 . S
O325 C322 1.355 . S
O326 Dy320 2.403 1_565 S
O326 C328 1.254 . S
O327 Dy320 2.664 1_565 S
O327 Dy323 2.310 1_455 S
O327 C328 1.268 . S
C328 O326 1.254 . S
C328 O327 1.268 . S
C329 O334 1.254 . S
C329 O335 1.268 . S
O330 Dy323 2.351 1_445 S
O330 C338 1.249 . S
O331 Dy320 2.326 . S
O331 C338 1.267 . S
O332 C321 1.185 . S
O332 Dy323 2.398 . S
O333 C321 1.355 . S
O333 Dy323 2.491 . S
O334 Dy323 2.403 1_545 S
O334 C329 1.254 . S
O335 Dy320 2.310 1_655 S
O335 Dy323 2.664 1_545 S
O335 C329 1.268 . S
O336 Dy320 2.351 1_665 S
O336 C339 1.249 . S
O337 Dy323 2.326 . S
O337 C339 1.267 . S
C338 O330 1.249 . S
C338 O331 1.267 . S
C339 O336 1.249 . S
C339 O337 1.267 . S
Dy340 O344 2.398 . S
Dy340 O345 2.491 . S
Dy340 O346 2.403 1_545 S
Dy340 O347 2.664 1_545 S
Dy340 O351 2.326 . S
Dy340 O355 2.310 1_554 S
Dy340 O356 2.351 1_544 S
C341 O352 1.185 . S
C341 O353 1.355 . S
C342 O344 1.185 . S
C342 O345 1.355 . S
Dy343 O347 2.321 1_556 S
Dy343 O350 2.341 1_566 S
Dy343 O352 2.400 . S
Dy343 O353 2.507 . S
Dy343 O354 2.389 1_565 S
Dy343 O355 2.656 1_565 S
Dy343 O357 2.334 . S
O344 Dy340 2.398 . S
O344 C342 1.185 . S
O345 Dy340 2.491 . S
O345 C342 1.355 . S
O346 Dy340 2.403 1_565 S
O346 C348 1.254 . S
O347 Dy340 2.664 1_565 S
O347 Dy343 2.321 1_554 S
O347 C348 1.268 . S
C348 O346 1.254 . S
C348 O347 1.268 . S
C349 O354 1.254 . S
C349 O355 1.268 . S
O350 Dy343 2.341 1_544 S
O350 C358 1.249 . S
O351 Dy340 2.326 . S
O351 C358 1.267 . S
O352 C341 1.185 . S
O352 Dy343 2.400 . S
O353 C341 1.355 . S
O353 Dy343 2.507 . S
O354 Dy343 2.389 1_545 S
O354 C349 1.254 . S
O355 Dy340 2.310 1_556 S
O355 Dy343 2.656 1_545 S
O355 C349 1.268 . S
O356 Dy340 2.351 1_566 S
O356 C359 1.249 . S
O357 Dy343 2.334 . S
O357 C359 1.267 . S
C358 O350 1.249 . S
C358 O351 1.267 . S
C359 O356 1.249 . S
C359 O357 1.267 . S
Dy360 O364 2.398 . S
Dy360 O365 2.491 . S
Dy360 O366 2.403 . S
Dy360 O367 2.664 . S
Dy360 O371 2.326 . S
Dy360 O375 2.310 . S
Dy360 O376 2.351 . S
C361 O372 1.185 . S
C361 O373 1.355 . S
C362 O364 1.185 . S
C362 O365 1.355 . S
Dy363 O367 2.310 . S
Dy363 O370 2.351 . S
Dy363 O372 2.398 . S
Dy363 O373 2.491 . S
Dy363 O374 2.403 . S
Dy363 O375 2.664 . S
Dy363 O377 2.326 . S
O364 Dy360 2.398 . S
O364 C362 1.185 . S
O365 Dy360 2.491 . S
O365 C362 1.355 . S
O366 Dy360 2.403 . S
O366 C368 1.254 . S
O367 Dy360 2.664 . S
O367 Dy363 2.310 . S
O367 C368 1.268 . S
C368 O366 1.254 . S
C368 O367 1.268 . S
C369 O374 1.254 . S
C369 O375 1.268 . S
O370 Dy363 2.351 . S
O370 C378 1.249 . S
O371 Dy360 2.326 . S
O371 C378 1.267 . S
O372 C361 1.185 . S
O372 Dy363 2.398 . S
O373 C361 1.355 . S
O373 Dy363 2.491 . S
O374 Dy363 2.403 . S
O374 C369 1.254 . S
O375 Dy360 2.310 . S
O375 Dy363 2.664 . S
O375 C369 1.268 . S
O376 Dy360 2.351 . S
O376 C379 1.249 . S
O377 Dy363 2.326 . S
O377 C379 1.267 . S
C378 O370 1.249 . S
C378 O371 1.267 . S
C379 O376 1.249 . S
C379 O377 1.267 . S
Dy380 O384 2.398 . S
Dy380 O385 2.491 . S
Dy380 O386 2.403 1_455 S
Dy380 O387 2.664 1_455 S
Dy380 O391 2.326 . S
Dy380 O395 2.310 1_554 S
Dy380 O396 2.351 1_454 S
C381 O392 1.185 . S
C381 O393 1.355 . S
C382 O384 1.185 . S
C382 O385 1.355 . S
Dy383 O387 2.310 1_456 S
Dy383 O390 2.349 1_556 S
Dy383 O392 2.400 1_455 S
Dy383 O393 2.494 1_455 S
Dy383 O394 2.402 . S
Dy383 O395 2.663 . S
Dy383 O397 2.328 1_455 S
O384 Dy380 2.398 . S
O384 C382 1.185 . S
O385 Dy380 2.491 . S
O385 C382 1.355 . S
O386 Dy380 2.403 1_655 S
O386 C388 1.254 . S
O387 Dy380 2.664 1_655 S
O387 Dy383 2.310 1_654 S
O387 C388 1.268 . S
C388 O386 1.254 . S
C388 O387 1.268 . S
C389 O394 1.254 . S
C389 O395 1.268 . S
O390 Dy383 2.349 1_554 S
O390 C398 1.249 . S
O391 Dy380 2.326 . S
O391 C398 1.267 . S
O392 C381 1.185 . S
O392 Dy383 2.400 1_655 S
O393 C381 1.355 . S
O393 Dy383 2.494 1_655 S
O394 Dy383 2.402 . S
O394 C389 1.254 . S
O395 Dy380 2.310 1_556 S
O395 Dy383 2.663 . S
O395 C389 1.268 . S
O396 Dy380 2.351 1_656 S
O396 C399 1.249 . S
O397 Dy383 2.328 1_655 S
O397 C399 1.267 . S
C398 O390 1.249 . S
C398 O391 1.267 . S
C399 O396 1.249 . S
C399 O397 1.267 . S
C400 C401 1.391 . S
C400 C402 1.394 . S
C400 H416 0.931 . S
C401 C400 1.391 . S
C401 C405 1.376 . S
C402 C400 1.394 . S
C402 C403 1.369 . S
C402 C406 1.531 . S
C403 C402 1.369 . S
C403 C404 1.410 . S
C403 C411 1.503 . S
C404 C403 1.410 . S
C404 C405 1.392 . S
C404 C407 1.511 . S
C405 C401 1.376 . S
C405 C404 1.392 . S
C405 H417 0.929 . S
C406 C402 1.531 . S
C406 H418 0.960 . S
C406 H419 0.962 . S
C406 H420 0.960 . S
C407 C404 1.511 . S
C407 H421 0.961 . S
C407 H422 0.961 . S
C407 H423 0.961 . S
C408 C409 1.370 . S
C408 C410 1.363 . S
C408 H424 0.931 . S
C409 C408 1.370 . S
C409 C413 1.408 . S
C410 C408 1.363 . S
C410 C411 1.370 . S
C410 C414 1.524 . S
C411 C403 1.503 . S
C411 C410 1.370 . S
C411 C412 1.403 . S
C412 C411 1.403 . S
C412 C413 1.404 . S
C412 C415 1.539 . S
C413 C409 1.408 . S
C413 C412 1.404 . S
C413 H425 0.930 . S
C414 C410 1.524 . S
C414 H426 0.956 . S
C414 H427 0.961 . S
C414 H428 0.961 . S
C415 C412 1.539 . S
C415 H429 0.958 . S
C415 H430 0.961 . S
C415 H431 0.960 . S
H416 C400 0.931 . S
H417 C405 0.929 . S
H418 C406 0.960 . S
H419 C406 0.962 . S
H420 C406 0.960 . S
H421 C407 0.961 . S
H422 C407 0.961 . S
H423 C407 0.961 . S
H424 C408 0.931 . S
H425 C413 0.930 . S
H426 C414 0.956 . S
H427 C414 0.961 . S
H428 C414 0.961 . S
H429 C415 0.958 . S
H430 C415 0.961 . S
H431 C415 0.960 . S
C432 C433 1.391 . S
C432 C434 1.394 . S
C432 H448 0.931 . S
C433 C432 1.391 . S
C433 C437 1.376 . S
C434 C432 1.394 . S
C434 C435 1.369 . S
C434 C438 1.531 . S
C435 C434 1.369 . S
C435 C436 1.410 . S
C435 C443 1.503 . S
C436 C435 1.410 . S
C436 C437 1.392 . S
C436 C439 1.511 . S
C437 C433 1.376 . S
C437 C436 1.392 . S
C437 H449 0.929 . S
C438 C434 1.531 . S
C438 H450 0.960 . S
C438 H451 0.962 . S
C438 H452 0.960 . S
C439 C436 1.511 . S
C439 H453 0.961 . S
C439 H454 0.961 . S
C439 H455 0.961 . S
C440 C441 1.370 . S
C440 C442 1.363 . S
C440 H456 0.931 . S
C441 C440 1.370 . S
C441 C445 1.408 . S
C442 C440 1.363 . S
C442 C443 1.370 . S
C442 C446 1.524 . S
C443 C435 1.503 . S
C443 C442 1.370 . S
C443 C444 1.403 . S
C444 C443 1.403 . S
C444 C445 1.404 . S
C444 C447 1.539 . S
C445 C441 1.408 . S
C445 C444 1.404 . S
C445 H457 0.930 . S
C446 C442 1.524 . S
C446 H458 0.956 . S
C446 H459 0.961 . S
C446 H460 0.961 . S
C447 C444 1.539 . S
C447 H461 0.958 . S
C447 H462 0.961 . S
C447 H463 0.960 . S
H448 C432 0.931 . S
H449 C437 0.929 . S
H450 C438 0.960 . S
H451 C438 0.962 . S
H452 C438 0.960 . S
H453 C439 0.961 . S
H454 C439 0.961 . S
H455 C439 0.961 . S
H456 C440 0.931 . S
H457 C445 0.930 . S
H458 C446 0.956 . S
H459 C446 0.961 . S
H460 C446 0.961 . S
H461 C447 0.958 . S
H462 C447 0.961 . S
H463 C447 0.960 . S
C464 C465 1.391 . S
C464 C466 1.394 . S
C464 H480 0.931 . S
C465 C464 1.391 . S
C465 C469 1.376 . S
C466 C464 1.394 . S
C466 C467 1.369 . S
C466 C470 1.531 . S
C467 C466 1.369 . S
C467 C468 1.410 . S
C467 C475 1.503 . S
C468 C467 1.410 . S
C468 C469 1.392 . S
C468 C471 1.511 . S
C469 C465 1.376 . S
C469 C468 1.392 . S
C469 H481 0.929 . S
C470 C466 1.531 . S
C470 H482 0.960 . S
C470 H483 0.962 . S
C470 H484 0.960 . S
C471 C468 1.511 . S
C471 H485 0.961 . S
C471 H486 0.961 . S
C471 H487 0.961 . S
C472 C473 1.370 . S
C472 C474 1.363 . S
C472 H488 0.931 . S
C473 C472 1.370 . S
C473 C477 1.408 . S
C474 C472 1.363 . S
C474 C475 1.370 . S
C474 C478 1.524 . S
C475 C467 1.503 . S
C475 C474 1.370 . S
C475 C476 1.403 . S
C476 C475 1.403 . S
C476 C477 1.404 . S
C476 C479 1.539 . S
C477 C473 1.408 . S
C477 C476 1.404 . S
C477 H489 0.930 . S
C478 C474 1.524 . S
C478 H490 0.956 . S
C478 H491 0.961 . S
C478 H492 0.961 . S
C479 C476 1.539 . S
C479 H493 0.958 . S
C479 H494 0.961 . S
C479 H495 0.960 . S
H480 C464 0.931 . S
H481 C469 0.929 . S
H482 C470 0.960 . S
H483 C470 0.962 . S
H484 C470 0.960 . S
H485 C471 0.961 . S
H486 C471 0.961 . S
H487 C471 0.961 . S
H488 C472 0.931 . S
H489 C477 0.930 . S
H490 C478 0.956 . S
H491 C478 0.961 . S
H492 C478 0.961 . S
H493 C479 0.958 . S
H494 C479 0.961 . S
H495 C479 0.960 . S
C496 C497 1.391 . S
C496 C498 1.394 . S
C496 H512 0.931 . S
C497 C496 1.391 . S
C497 C501 1.376 . S
C498 C496 1.394 . S
C498 C499 1.369 . S
C498 C502 1.531 . S
C499 C498 1.369 . S
C499 C500 1.410 . S
C499 C507 1.503 . S
C500 C499 1.410 . S
C500 C501 1.392 . S
C500 C503 1.511 . S
C501 C497 1.376 . S
C501 C500 1.392 . S
C501 H513 0.929 . S
C502 C498 1.531 . S
C502 H514 0.960 . S
C502 H515 0.962 . S
C502 H516 0.960 . S
C503 C500 1.511 . S
C503 H517 0.961 . S
C503 H518 0.961 . S
C503 H519 0.961 . S
C504 C505 1.370 . S
C504 C506 1.363 . S
C504 H520 0.931 1_655 S
C505 C504 1.370 . S
C505 C509 1.408 . S
C506 C504 1.363 . S
C506 C507 1.370 . S
C506 C510 1.524 . S
C507 C499 1.503 . S
C507 C506 1.370 . S
C507 C508 1.403 . S
C508 C507 1.403 . S
C508 C509 1.404 . S
C508 C511 1.539 . S
C509 C505 1.408 . S
C509 C508 1.404 . S
C509 H521 0.930 . S
C510 C506 1.524 . S
C510 H522 0.956 . S
C510 H523 0.961 . S
C510 H524 0.961 1_655 S
C511 C508 1.539 . S
C511 H525 0.958 . S
C511 H526 0.961 . S
C511 H527 0.960 . S
H512 C496 0.931 . S
H513 C501 0.929 . S
H514 C502 0.960 . S
H515 C502 0.962 . S
H516 C502 0.960 . S
H517 C503 0.961 . S
H518 C503 0.961 . S
H519 C503 0.961 . S
H520 C504 0.931 1_455 S
H521 C509 0.930 . S
H522 C510 0.956 . S
H523 C510 0.961 . S
H524 C510 0.961 1_455 S
H525 C511 0.958 . S
H526 C511 0.961 . S
H527 C511 0.960 . S
C528 C529 1.391 . S
C528 C530 1.394 . S
C528 H544 0.931 . S
C529 C528 1.391 . S
C529 C533 1.376 . S
C530 C528 1.394 . S
C530 C531 1.369 . S
C530 C534 1.531 . S
C531 C530 1.369 . S
C531 C532 1.410 . S
C531 C539 1.503 . S
C532 C531 1.410 . S
C532 C533 1.392 . S
C532 C535 1.511 . S
C533 C529 1.376 . S
C533 C532 1.392 . S
C533 H545 0.929 . S
C534 C530 1.531 . S
C534 H546 0.960 . S
C534 H547 0.962 . S
C534 H548 0.960 . S
C535 C532 1.511 . S
C535 H549 0.961 . S
C535 H550 0.961 . S
C535 H551 0.961 . S
C536 C537 1.370 . S
C536 C538 1.363 . S
C536 H552 0.931 . S
C537 C536 1.370 . S
C537 C541 1.408 . S
C538 C536 1.363 . S
C538 C539 1.370 . S
C538 C542 1.524 . S
C539 C531 1.503 . S
C539 C538 1.370 . S
C539 C540 1.403 . S
C540 C539 1.403 . S
C540 C541 1.404 . S
C540 C543 1.539 . S
C541 C537 1.408 . S
C541 C540 1.404 . S
C541 H553 0.930 . S
C542 C538 1.524 . S
C542 H554 0.956 . S
C542 H555 0.961 . S
C542 H556 0.961 . S
C543 C540 1.539 . S
C543 H557 0.958 . S
C543 H558 0.961 . S
C543 H559 0.960 . S
H544 C528 0.931 . S
H545 C533 0.929 . S
H546 C534 0.960 . S
H547 C534 0.962 . S
H548 C534 0.960 . S
H549 C535 0.961 . S
H550 C535 0.961 . S
H551 C535 0.961 . S
H552 C536 0.931 . S
H553 C541 0.930 . S
H554 C542 0.956 . S
H555 C542 0.961 . S
H556 C542 0.961 . S
H557 C543 0.958 . S
H558 C543 0.961 . S
H559 C543 0.960 . S
C560 C561 1.391 . S
C560 C562 1.394 . S
C560 H576 0.931 . S
C561 C560 1.391 . S
C561 C565 1.376 . S
C562 C560 1.394 . S
C562 C563 1.369 . S
C562 C566 1.531 . S
C563 C562 1.369 . S
C563 C564 1.410 . S
C563 C571 1.503 . S
C564 C563 1.410 . S
C564 C565 1.392 . S
C564 C567 1.511 . S
C565 C561 1.376 . S
C565 C564 1.392 . S
C565 H577 0.929 . S
C566 C562 1.531 . S
C566 H578 0.960 . S
C566 H579 0.962 . S
C566 H580 0.960 . S
C567 C564 1.511 . S
C567 H581 0.961 . S
C567 H582 0.961 . S
C567 H583 0.961 . S
C568 C569 1.370 . S
C568 C570 1.363 . S
C568 H584 0.931 . S
C569 C568 1.370 . S
C569 C573 1.408 . S
C570 C568 1.363 . S
C570 C571 1.370 . S
C570 C574 1.524 . S
C571 C563 1.503 . S
C571 C570 1.370 . S
C571 C572 1.403 . S
C572 C571 1.403 . S
C572 C573 1.404 . S
C572 C575 1.539 . S
C573 C569 1.408 . S
C573 C572 1.404 . S
C573 H585 0.930 . S
C574 C570 1.524 . S
C574 H586 0.956 . S
C574 H587 0.961 . S
C574 H588 0.961 . S
C575 C572 1.539 . S
C575 H589 0.958 . S
C575 H590 0.961 . S
C575 H591 0.960 . S
H576 C560 0.931 . S
H577 C565 0.929 . S
H578 C566 0.960 . S
H579 C566 0.962 . S
H580 C566 0.960 . S
H581 C567 0.961 . S
H582 C567 0.961 . S
H583 C567 0.961 . S
H584 C568 0.931 . S
H585 C573 0.930 . S
H586 C574 0.956 . S
H587 C574 0.961 . S
H588 C574 0.961 . S
H589 C575 0.958 . S
H590 C575 0.961 . S
H591 C575 0.960 . S
C592 C593 1.391 . S
C592 C594 1.394 . S
C592 H608 0.931 . S
C593 C592 1.391 . S
C593 C597 1.376 . S
C594 C592 1.394 . S
C594 C595 1.369 . S
C594 C598 1.531 . S
C595 C594 1.369 . S
C595 C596 1.410 . S
C595 C603 1.503 . S
C596 C595 1.410 . S
C596 C597 1.392 . S
C596 C599 1.511 . S
C597 C593 1.376 . S
C597 C596 1.392 . S
C597 H609 0.929 . S
C598 C594 1.531 . S
C598 H610 0.960 . S
C598 H611 0.962 . S
C598 H612 0.960 . S
C599 C596 1.511 . S
C599 H613 0.961 . S
C599 H614 0.961 . S
C599 H615 0.961 . S
C600 C601 1.370 . S
C600 C602 1.363 . S
C600 H616 0.931 . S
C601 C600 1.370 . S
C601 C605 1.408 . S
C602 C600 1.363 . S
C602 C603 1.370 . S
C602 C606 1.524 . S
C603 C595 1.503 . S
C603 C602 1.370 . S
C603 C604 1.403 . S
C604 C603 1.403 . S
C604 C605 1.404 . S
C604 C607 1.539 1_556 S
C605 C601 1.408 . S
C605 C604 1.404 . S
C605 H617 0.930 1_556 S
C606 C602 1.524 . S
C606 H618 0.956 . S
C606 H619 0.961 . S
C606 H620 0.961 . S
C607 C604 1.539 1_554 S
C607 H621 0.958 . S
C607 H622 0.961 . S
C607 H623 0.960 1_554 S
H608 C592 0.931 . S
H609 C597 0.929 . S
H610 C598 0.960 . S
H611 C598 0.962 . S
H612 C598 0.960 . S
H613 C599 0.961 . S
H614 C599 0.961 . S
H615 C599 0.961 . S
H616 C600 0.931 . S
H617 C605 0.930 1_554 S
H618 C606 0.956 . S
H619 C606 0.961 . S
H620 C606 0.961 . S
H621 C607 0.958 . S
H622 C607 0.961 . S
H623 C607 0.960 1_556 S
C624 C625 1.391 . S
C624 C626 1.394 . S
C624 H640 0.931 . S
C625 C624 1.391 . S
C625 C629 1.376 . S
C626 C624 1.394 . S
C626 C627 1.369 . S
C626 C630 1.531 . S
C627 C626 1.369 . S
C627 C628 1.410 . S
C627 C635 1.503 . S
C628 C627 1.410 . S
C628 C629 1.392 . S
C628 C631 1.511 . S
C629 C625 1.376 . S
C629 C628 1.392 . S
C629 H641 0.929 . S
C630 C626 1.531 . S
C630 H642 0.960 . S
C630 H643 0.962 . S
C630 H644 0.960 . S
C631 C628 1.511 . S
C631 H645 0.961 . S
C631 H646 0.961 . S
C631 H647 0.961 . S
C632 C633 1.370 . S
C632 C634 1.363 . S
C632 H648 0.931 . S
C633 C632 1.370 . S
C633 C637 1.408 . S
C634 C632 1.363 . S
C634 C635 1.370 . S
C634 C638 1.524 . S
C635 C627 1.503 . S
C635 C634 1.370 . S
C635 C636 1.403 . S
C636 C635 1.403 . S
C636 C637 1.404 . S
C636 C639 1.539 . S
C637 C633 1.408 . S
C637 C636 1.404 . S
C637 H649 0.930 . S
C638 C634 1.524 . S
C638 H650 0.956 . S
C638 H651 0.961 . S
C638 H652 0.961 . S
C639 C636 1.539 . S
C639 H653 0.958 . S
C639 H654 0.961 . S
C639 H655 0.960 . S
H640 C624 0.931 . S
H641 C629 0.929 . S
H642 C630 0.960 . S
H643 C630 0.962 . S
H644 C630 0.960 . S
H645 C631 0.961 . S
H646 C631 0.961 . S
H647 C631 0.961 . S
H648 C632 0.931 . S
H649 C637 0.930 . S
H650 C638 0.956 . S
H651 C638 0.961 . S
H652 C638 0.961 . S
H653 C639 0.958 . S
H654 C639 0.961 . S
H655 C639 0.960 . S
C656 C657 1.391 . S
C656 C658 1.394 . S
C656 H672 0.931 . S
C657 C656 1.391 . S
C657 C661 1.376 . S
C658 C656 1.394 . S
C658 C659 1.369 . S
C658 C662 1.531 . S
C659 C658 1.369 . S
C659 C660 1.410 . S
C659 C667 1.503 . S
C660 C659 1.410 . S
C660 C661 1.392 . S
C660 C663 1.511 . S
C661 C657 1.376 . S
C661 C660 1.392 . S
C661 H673 0.929 . S
C662 C658 1.531 . S
C662 H674 0.960 . S
C662 H675 0.962 . S
C662 H676 0.960 . S
C663 C660 1.511 . S
C663 H677 0.961 . S
C663 H678 0.961 . S
C663 H679 0.961 . S
C664 C665 1.370 . S
C664 C666 1.363 . S
C664 H680 0.931 . S
C665 C664 1.370 . S
C665 C669 1.408 . S
C666 C664 1.363 . S
C666 C667 1.370 . S
C666 C670 1.524 . S
C667 C659 1.503 . S
C667 C666 1.370 . S
C667 C668 1.403 . S
C668 C667 1.403 . S
C668 C669 1.404 . S
C668 C671 1.539 . S
C669 C665 1.408 . S
C669 C668 1.404 . S
C669 H681 0.930 . S
C670 C666 1.524 . S
C670 H682 0.956 . S
C670 H683 0.961 . S
C670 H684 0.961 . S
C671 C668 1.539 . S
C671 H685 0.958 . S
C671 H686 0.961 . S
C671 H687 0.960 . S
H672 C656 0.931 . S
H673 C661 0.929 . S
H674 C662 0.960 . S
H675 C662 0.962 . S
H676 C662 0.960 . S
H677 C663 0.961 . S
H678 C663 0.961 . S
H679 C663 0.961 . S
H680 C664 0.931 . S
H681 C669 0.930 . S
H682 C670 0.956 . S
H683 C670 0.961 . S
H684 C670 0.961 . S
H685 C671 0.958 . S
H686 C671 0.961 . S
H687 C671 0.960 . S
C688 C689 1.391 . S
C688 C690 1.394 . S
C688 H704 0.931 . S
C689 C688 1.391 . S
C689 C693 1.376 . S
C690 C688 1.394 . S
C690 C691 1.369 . S
C690 C694 1.531 . S
C691 C690 1.369 . S
C691 C692 1.410 . S
C691 C699 1.503 . S
C692 C691 1.410 . S
C692 C693 1.392 . S
C692 C695 1.511 . S
C693 C689 1.376 . S
C693 C692 1.392 . S
C693 H705 0.929 . S
C694 C690 1.531 . S
C694 H706 0.960 . S
C694 H707 0.962 . S
C694 H708 0.960 . S
C695 C692 1.511 . S
C695 H709 0.961 . S
C695 H710 0.961 . S
C695 H711 0.961 . S
C696 C697 1.370 . S
C696 C698 1.363 . S
C696 H712 0.931 1_556 S
C697 C696 1.370 . S
C697 C701 1.408 . S
C698 C696 1.363 . S
C698 C699 1.370 . S
C698 C702 1.524 . S
C699 C691 1.503 . S
C699 C698 1.370 . S
C699 C700 1.403 . S
C700 C699 1.403 . S
C700 C701 1.404 . S
C700 C703 1.539 . S
C701 C697 1.408 . S
C701 C700 1.404 . S
C701 H713 0.930 . S
C702 C698 1.524 . S
C702 H714 0.956 . S
C702 H715 0.961 . S
C702 H716 0.961 1_556 S
C703 C700 1.539 . S
C703 H717 0.958 . S
C703 H718 0.961 . S
C703 H719 0.960 . S
H704 C688 0.931 . S
H705 C693 0.929 . S
H706 C694 0.960 . S
H707 C694 0.962 . S
H708 C694 0.960 . S
H709 C695 0.961 . S
H710 C695 0.961 . S
H711 C695 0.961 . S
H712 C696 0.931 1_554 S
H713 C701 0.930 . S
H714 C702 0.956 . S
H715 C702 0.961 . S
H716 C702 0.961 1_554 S
H717 C703 0.958 . S
H718 C703 0.961 . S
H719 C703 0.960 . S
C720 C721 1.391 . S
C720 C722 1.394 . S
C720 H736 0.931 . S
C721 C720 1.391 . S
C721 C725 1.376 . S
C722 C720 1.394 . S
C722 C723 1.369 . S
C722 C726 1.531 . S
C723 C722 1.369 . S
C723 C724 1.410 . S
C723 C731 1.503 . S
C724 C723 1.410 . S
C724 C725 1.392 . S
C724 C727 1.511 . S
C725 C721 1.376 . S
C725 C724 1.392 . S
C725 H737 0.929 . S
C726 C722 1.531 . S
C726 H738 0.960 . S
C726 H739 0.962 . S
C726 H740 0.960 . S
C727 C724 1.511 . S
C727 H741 0.961 . S
C727 H742 0.961 . S
C727 H743 0.961 . S
C728 C729 1.370 . S
C728 C730 1.363 . S
C728 H744 0.960 . S
C729 C728 1.370 . S
C729 C733 1.408 . S
C730 C728 1.363 . S
C730 C731 1.370 . S
C730 C734 1.524 . S
C731 C723 1.503 . S
C731 C730 1.370 . S
C731 C732 1.403 . S
C732 C731 1.403 . S
C732 C733 1.404 . S
C732 C735 1.539 . S
C733 C729 1.408 . S
C733 C732 1.404 . S
C733 H745 0.930 . S
C734 C730 1.524 . S
C734 H746 0.956 . S
C734 H747 0.961 . S
C734 H748 0.961 1_655 S
C735 C732 1.539 . S
C735 H749 0.958 . S
C735 H750 0.961 . S
C735 H751 0.960 . S
H736 C720 0.931 . S
H737 C725 0.929 . S
H738 C726 0.960 . S
H739 C726 0.962 . S
H740 C726 0.960 . S
H741 C727 0.961 . S
H742 C727 0.961 . S
H743 C727 0.961 . S
H744 C728 0.960 . S
H745 C733 0.930 . S
H746 C734 0.956 . S
H747 C734 0.961 . S
H748 C734 0.961 1_455 S
H749 C735 0.958 . S
H750 C735 0.961 . S
H751 C735 0.960 . S
C752 C753 1.391 . S
C752 C754 1.394 . S
C752 H768 0.931 . S
C753 C752 1.391 . S
C753 C757 1.376 . S
C754 C752 1.394 . S
C754 C755 1.369 . S
C754 C758 1.531 . S
C755 C754 1.369 . S
C755 C756 1.410 . S
C755 C763 1.503 . S
C756 C755 1.410 . S
C756 C757 1.392 . S
C756 C759 1.511 . S
C757 C753 1.376 . S
C757 C756 1.392 . S
C757 H769 0.929 . S
C758 C754 1.531 . S
C758 H770 0.960 . S
C758 H771 0.962 . S
C758 H772 0.960 . S
C759 C756 1.511 . S
C759 H773 0.961 . S
C759 H774 0.961 . S
C759 H775 0.961 . S
C760 C761 1.370 . S
C760 C762 1.363 . S
C760 H776 0.931 . S
C761 C760 1.370 . S
C761 C765 1.408 . S
C762 C760 1.363 . S
C762 C763 1.370 . S
C762 C766 1.524 . S
C763 C755 1.503 . S
C763 C762 1.370 . S
C763 C764 1.403 . S
C764 C763 1.403 . S
C764 C765 1.404 . S
C764 C767 1.539 . S
C765 C761 1.408 . S
C765 C764 1.404 . S
C765 H777 0.930 . S
C766 C762 1.524 . S
C766 H778 0.956 . S
C766 H779 0.961 . S
C766 H780 0.961 . S
C767 C764 1.539 . S
C767 H781 0.958 . S
C767 H782 0.961 . S
C767 H783 0.960 . S
H768 C752 0.931 . S
H769 C757 0.929 . S
H770 C758 0.960 . S
H771 C758 0.962 . S
H772 C758 0.960 . S
H773 C759 0.961 . S
H774 C759 0.961 . S
H775 C759 0.961 . S
H776 C760 0.931 . S
H777 C765 0.930 . S
H778 C766 0.956 . S
H779 C766 0.961 . S
H780 C766 0.961 . S
H781 C767 0.958 . S
H782 C767 0.961 . S
H783 C767 0.960 . S
C784 C785 1.391 . S
C784 C786 1.394 . S
C784 H800 0.931 . S
C785 C784 1.391 . S
C785 C789 1.376 . S
C786 C784 1.394 . S
C786 C787 1.369 . S
C786 C790 1.531 . S
C787 C786 1.369 . S
C787 C788 1.410 . S
C787 C795 1.503 . S
C788 C787 1.410 . S
C788 C789 1.392 . S
C788 C791 1.511 . S
C789 C785 1.376 . S
C789 C788 1.392 . S
C789 H801 0.929 . S
C790 C786 1.531 . S
C790 H802 0.960 . S
C790 H803 0.962 . S
C790 H804 0.960 . S
C791 C788 1.511 . S
C791 H805 0.961 . S
C791 H806 0.961 . S
C791 H807 0.961 . S
C792 C793 1.370 . S
C792 C794 1.363 . S
C792 H808 0.931 . S
C793 C792 1.370 . S
C793 C797 1.408 . S
C794 C792 1.363 . S
C794 C795 1.370 . S
C794 C798 1.524 . S
C795 C787 1.503 . S
C795 C794 1.370 . S
C795 C796 1.403 . S
C796 C795 1.403 . S
C796 C797 1.404 . S
C796 C799 1.539 . S
C797 C793 1.408 . S
C797 C796 1.404 . S
C797 H809 0.930 . S
C798 C794 1.524 . S
C798 H810 0.956 . S
C798 H811 0.961 . S
C798 H812 0.961 . S
C799 C796 1.539 . S
C799 H813 0.958 . S
C799 H814 0.961 . S
C799 H815 0.960 . S
H800 C784 0.931 . S
H801 C789 0.929 . S
H802 C790 0.960 . S
H803 C790 0.962 . S
H804 C790 0.960 . S
H805 C791 0.961 . S
H806 C791 0.961 . S
H807 C791 0.961 . S
H808 C792 0.931 . S
H809 C797 0.930 . S
H810 C798 0.956 . S
H811 C798 0.961 . S
H812 C798 0.961 . S
H813 C799 0.958 . S
H814 C799 0.961 . S
H815 C799 0.960 . S
C816 C817 1.391 . S
C816 C818 1.394 . S
C816 H832 0.931 . S
C817 C816 1.391 . S
C817 C821 1.376 . S
C818 C816 1.394 . S
C818 C819 1.369 . S
C818 C822 1.531 . S
C819 C818 1.369 . S
C819 C820 1.410 . S
C819 C827 1.503 . S
C820 C819 1.410 . S
C820 C821 1.392 . S
C820 C823 1.511 . S
C821 C817 1.376 . S
C821 C820 1.392 . S
C821 H833 0.929 . S
C822 C818 1.531 . S
C822 H834 0.960 . S
C822 H835 0.962 . S
C822 H836 0.960 . S
C823 C820 1.511 . S
C823 H837 0.961 . S
C823 H838 0.961 . S
C823 H839 0.961 . S
C824 C825 1.370 . S
C824 C826 1.363 . S
C824 H840 0.931 . S
C825 C824 1.370 . S
C825 C829 1.408 . S
C826 C824 1.363 . S
C826 C827 1.370 . S
C826 C830 1.524 . S
C827 C819 1.503 . S
C827 C826 1.370 . S
C827 C828 1.403 . S
C828 C827 1.403 . S
C828 C829 1.404 . S
C828 C831 1.539 . S
C829 C825 1.408 . S
C829 C828 1.404 . S
C829 H841 0.930 . S
C830 C826 1.524 . S
C830 H842 0.956 . S
C830 H843 0.961 . S
C830 H844 0.961 . S
C831 C828 1.539 . S
C831 H845 0.958 . S
C831 H846 0.961 . S
C831 H847 0.960 . S
H832 C816 0.931 . S
H833 C821 0.929 . S
H834 C822 0.960 . S
H835 C822 0.962 . S
H836 C822 0.960 . S
H837 C823 0.961 . S
H838 C823 0.961 . S
H839 C823 0.961 . S
H840 C824 0.931 . S
H841 C829 0.930 . S
H842 C830 0.956 . S
H843 C830 0.961 . S
H844 C830 0.961 . S
H845 C831 0.958 . S
H846 C831 0.961 . S
H847 C831 0.960 . S
C848 C849 1.391 . S
C848 C850 1.394 . S
C848 H864 0.931 . S
C849 C848 1.391 . S
C849 C853 1.376 . S
C850 C848 1.394 . S
C850 C851 1.369 . S
C850 C854 1.531 . S
C851 C850 1.369 . S
C851 C852 1.410 . S
C851 C859 1.503 . S
C852 C851 1.410 . S
C852 C853 1.392 . S
C852 C855 1.511 . S
C853 C849 1.376 . S
C853 C852 1.392 . S
C853 H865 0.929 . S
C854 C850 1.531 . S
C854 H866 0.960 . S
C854 H867 0.962 . S
C854 H868 0.960 . S
C855 C852 1.511 . S
C855 H869 0.961 . S
C855 H870 0.961 . S
C855 H871 0.961 . S
C856 C857 1.370 . S
C856 C858 1.363 . S
C856 H872 0.931 . S
C857 C856 1.370 . S
C857 C861 1.408 . S
C858 C856 1.363 . S
C858 C859 1.370 . S
C858 C862 1.524 . S
C859 C851 1.503 . S
C859 C858 1.370 . S
C859 C860 1.403 . S
C860 C859 1.403 . S
C860 C861 1.404 . S
C860 C863 1.539 . S
C861 C857 1.408 . S
C861 C860 1.404 . S
C861 H873 0.930 . S
C862 C858 1.524 . S
C862 H874 0.956 . S
C862 H875 0.961 . S
C862 H876 0.961 . S
C863 C860 1.539 . S
C863 H877 0.958 . S
C863 H878 0.961 . S
C863 H879 0.960 . S
H864 C848 0.931 . S
H865 C853 0.929 . S
H866 C854 0.960 . S
H867 C854 0.962 . S
H868 C854 0.960 . S
H869 C855 0.961 . S
H870 C855 0.961 . S
H871 C855 0.961 . S
H872 C856 0.931 . S
H873 C861 0.930 . S
H874 C862 0.956 . S
H875 C862 0.961 . S
H876 C862 0.961 . S
H877 C863 0.958 . S
H878 C863 0.961 . S
H879 C863 0.960 . S
C880 C881 1.391 . S
C880 C882 1.394 . S
C880 H896 0.931 . S
C881 C880 1.391 . S
C881 C885 1.376 . S
C882 C880 1.394 . S
C882 C883 1.369 . S
C882 C886 1.531 . S
C883 C882 1.369 . S
C883 C884 1.410 . S
C883 C891 1.503 . S
C884 C883 1.410 . S
C884 C885 1.392 . S
C884 C887 1.511 . S
C885 C881 1.376 . S
C885 C884 1.392 . S
C885 H897 0.929 . S
C886 C882 1.531 . S
C886 H898 0.960 . S
C886 H899 0.962 . S
C886 H900 0.960 . S
C887 C884 1.511 . S
C887 H901 0.961 . S
C887 H902 0.961 . S
C887 H903 0.961 . S
C888 C889 1.370 . S
C888 C890 1.363 . S
C888 H904 0.931 . S
C889 C888 1.370 . S
C889 C893 1.408 . S
C890 C888 1.363 . S
C890 C891 1.370 . S
C890 C894 1.524 . S
C891 C883 1.503 . S
C891 C890 1.370 . S
C891 C892 1.403 . S
C892 C891 1.403 . S
C892 C893 1.404 . S
C892 C895 1.539 . S
C893 C889 1.408 . S
C893 C892 1.404 . S
C893 H905 0.930 . S
C894 C890 1.524 . S
C894 H906 0.956 . S
C894 H907 0.961 . S
C894 H908 0.961 . S
C895 C892 1.539 . S
C895 H909 0.958 . S
C895 H910 0.961 . S
C895 H911 0.960 . S
H896 C880 0.931 . S
H897 C885 0.929 . S
H898 C886 0.960 . S
H899 C886 0.962 . S
H900 C886 0.960 . S
H901 C887 0.961 . S
H902 C887 0.961 . S
H903 C887 0.961 . S
H904 C888 0.931 . S
H905 C893 0.930 . S
H906 C894 0.956 . S
H907 C894 0.961 . S
H908 C894 0.961 . S
H909 C895 0.958 . S
H910 C895 0.961 . S
H911 C895 0.960 . S
C912 C913 1.391 . S
C912 C914 1.394 . S
C912 H928 0.931 . S
C913 C912 1.391 . S
C913 C917 1.376 . S
C914 C912 1.394 . S
C914 C915 1.369 . S
C914 C918 1.531 . S
C915 C914 1.369 . S
C915 C916 1.410 . S
C915 C923 1.503 . S
C916 C915 1.410 . S
C916 C917 1.392 . S
C916 C919 1.511 . S
C917 C913 1.376 . S
C917 C916 1.392 . S
C917 H929 0.929 . S
C918 C914 1.531 . S
C918 H930 0.960 . S
C918 H931 0.962 . S
C918 H932 0.960 . S
C919 C916 1.511 . S
C919 H933 0.961 . S
C919 H934 0.961 . S
C919 H935 0.961 . S
C920 C921 1.370 . S
C920 C922 1.363 . S
C920 H936 0.931 . S
C921 C920 1.370 . S
C921 C925 1.408 . S
C922 C920 1.363 . S
C922 C923 1.370 . S
C922 C926 1.524 . S
C923 C915 1.503 . S
C923 C922 1.370 . S
C923 C924 1.403 . S
C924 C923 1.403 . S
C924 C925 1.404 . S
C924 C927 1.539 . S
C925 C921 1.408 . S
C925 C924 1.404 . S
C925 H937 0.930 . S
C926 C922 1.524 . S
C926 H938 0.956 . S
C926 H939 0.961 . S
C926 H940 0.961 . S
C927 C924 1.539 . S
C927 H941 0.958 . S
C927 H942 0.961 . S
C927 H943 0.960 . S
H928 C912 0.931 . S
H929 C917 0.929 . S
H930 C918 0.960 . S
H931 C918 0.962 . S
H932 C918 0.960 . S
H933 C919 0.961 . S
H934 C919 0.961 . S
H935 C919 0.961 . S
H936 C920 0.931 . S
H937 C925 0.930 . S
H938 C926 0.956 . S
H939 C926 0.961 . S
H940 C926 0.961 . S
H941 C927 0.958 . S
H942 C927 0.961 . S
H943 C927 0.960 . S
C944 C945 1.391 . S
C944 C946 1.394 . S
C944 H960 0.931 . S
C945 C944 1.391 . S
C945 C949 1.376 . S
C946 C944 1.394 . S
C946 C947 1.369 . S
C946 C950 1.531 . S
C947 C946 1.369 . S
C947 C948 1.410 . S
C947 C955 1.503 . S
C948 C947 1.410 . S
C948 C949 1.392 . S
C948 C951 1.511 . S
C949 C945 1.376 . S
C949 C948 1.392 . S
C949 H961 0.929 . S
C950 C946 1.531 . S
C950 H962 0.960 . S
C950 H963 0.962 . S
C950 H964 0.960 . S
C951 C948 1.511 . S
C951 H965 0.961 . S
C951 H966 0.961 . S
C951 H967 0.961 . S
C952 C953 1.370 . S
C952 C954 1.363 . S
C952 H968 0.931 . S
C953 C952 1.370 . S
C953 C957 1.408 . S
C954 C952 1.363 . S
C954 C955 1.370 . S
C954 C958 1.524 . S
C955 C947 1.503 . S
C955 C954 1.370 . S
C955 C956 1.403 . S
C956 C955 1.403 . S
C956 C957 1.404 . S
C956 C959 1.539 . S
C957 C953 1.408 . S
C957 C956 1.404 . S
C957 H969 0.930 . S
C958 C954 1.524 . S
C958 H970 0.956 . S
C958 H971 0.961 . S
C958 H972 0.961 . S
C959 C956 1.539 . S
C959 H973 0.958 . S
C959 H974 0.961 . S
C959 H975 0.960 . S
H960 C944 0.931 . S
H961 C949 0.929 . S
H962 C950 0.960 . S
H963 C950 0.962 . S
H964 C950 0.960 . S
H965 C951 0.961 . S
H966 C951 0.961 . S
H967 C951 0.961 . S
H968 C952 0.931 . S
H969 C957 0.930 . S
H970 C958 0.956 . S
H971 C958 0.961 . S
H972 C958 0.961 . S
H973 C959 0.958 . S
H974 C959 0.961 . S
H975 C959 0.960 . S
C976 C977 1.391 . S
C976 C978 1.394 . S
C976 H992 0.931 . S
C977 C976 1.391 . S
C977 C981 1.376 . S
C978 C976 1.394 . S
C978 C979 1.369 . S
C978 C982 1.531 . S
C979 C978 1.369 . S
C979 C980 1.410 . S
C979 C987 1.503 . S
C980 C979 1.410 . S
C980 C981 1.392 . S
C980 C983 1.511 . S
C981 C977 1.376 . S
C981 C980 1.392 . S
C981 H993 0.929 . S
C982 C978 1.531 . S
C982 H994 0.960 . S
C982 H995 0.962 . S
C982 H996 0.960 . S
C983 C980 1.511 . S
C983 H997 0.961 . S
C983 H998 0.961 . S
C983 H999 0.961 . S
C984 C985 1.370 . S
C984 C986 1.363 . S
C984 H1000 0.931 . S
C985 C984 1.370 . S
C985 C989 1.408 . S
C986 C984 1.363 . S
C986 C987 1.370 . S
C986 C990 1.524 . S
C987 C979 1.503 . S
C987 C986 1.370 . S
C987 C988 1.403 . S
C988 C987 1.403 . S
C988 C989 1.404 . S
C988 C991 1.539 . S
C989 C985 1.408 . S
C989 C988 1.404 . S
C989 H1001 0.930 . S
C990 C986 1.524 . S
C990 H1002 0.956 . S
C990 H1003 0.961 . S
C990 H1004 0.961 . S
C991 C988 1.539 . S
C991 H1005 0.958 . S
C991 H1006 0.961 . S
C991 H1007 0.960 . S
H992 C976 0.931 . S
H993 C981 0.929 . S
H994 C982 0.960 . S
H995 C982 0.962 . S
H996 C982 0.960 . S
H997 C983 0.961 . S
H998 C983 0.961 . S
H999 C983 0.961 . S
H1000 C984 0.931 . S
H1001 C989 0.930 . S
H1002 C990 0.956 . S
H1003 C990 0.961 . S
H1004 C990 0.961 . S
H1005 C991 0.958 . S
H1006 C991 0.961 . S
H1007 C991 0.960 . S
C1008 C1009 1.391 . S
C1008 C1010 1.394 . S
C1008 H1024 0.931 . S
C1009 C1008 1.391 . S
C1009 C1013 1.376 . S
C1010 C1008 1.394 . S
C1010 C1011 1.369 . S
C1010 C1014 1.531 . S
C1011 C1010 1.369 . S
C1011 C1012 1.410 . S
C1011 C1019 1.503 . S
C1012 C1011 1.410 . S
C1012 C1013 1.392 . S
C1012 C1015 1.511 . S
C1013 C1009 1.376 . S
C1013 C1012 1.392 . S
C1013 H1025 0.929 . S
C1014 C1010 1.531 . S
C1014 H1026 0.960 . S
C1014 H1027 0.962 . S
C1014 H1028 0.960 . S
C1015 C1012 1.511 . S
C1015 H1029 0.961 . S
C1015 H1030 0.961 . S
C1015 H1031 0.961 . S
C1016 C1017 1.370 . S
C1016 C1018 1.363 . S
C1016 H1032 0.931 . S
C1017 C1016 1.370 . S
C1017 C1021 1.408 . S
C1018 C1016 1.363 . S
C1018 C1019 1.370 . S
C1018 C1022 1.524 . S
C1019 C1011 1.503 . S
C1019 C1018 1.370 . S
C1019 C1020 1.403 . S
C1020 C1019 1.403 . S
C1020 C1021 1.404 . S
C1020 C1023 1.539 . S
C1021 C1017 1.408 . S
C1021 C1020 1.404 . S
C1021 H1033 0.930 . S
C1022 C1018 1.524 . S
C1022 H1034 0.956 . S
C1022 H1035 0.961 . S
C1022 H1036 0.961 . S
C1023 C1020 1.539 . S
C1023 H1037 0.958 . S
C1023 H1038 0.961 . S
C1023 H1039 0.960 . S
H1024 C1008 0.931 . S
H1025 C1013 0.929 . S
H1026 C1014 0.960 . S
H1027 C1014 0.962 . S
H1028 C1014 0.960 . S
H1029 C1015 0.961 . S
H1030 C1015 0.961 . S
H1031 C1015 0.961 . S
H1032 C1016 0.931 . S
H1033 C1021 0.930 . S
H1034 C1022 0.956 . S
H1035 C1022 0.961 . S
H1036 C1022 0.961 . S
H1037 C1023 0.958 . S
H1038 C1023 0.961 . S
H1039 C1023 0.960 . S
C1040 C1041 1.391 . S
C1040 C1042 1.394 . S
C1040 H1056 0.931 . S
C1041 C1040 1.391 . S
C1041 C1045 1.376 . S
C1042 C1040 1.394 . S
C1042 C1043 1.369 . S
C1042 C1046 1.531 . S
C1043 C1042 1.369 . S
C1043 C1044 1.410 . S
C1043 C1051 1.503 . S
C1044 C1043 1.410 . S
C1044 C1045 1.392 . S
C1044 C1047 1.511 . S
C1045 C1041 1.376 . S
C1045 C1044 1.392 . S
C1045 H1057 0.929 . S
C1046 C1042 1.531 . S
C1046 H1058 0.960 . S
C1046 H1059 0.962 . S
C1046 H1060 0.960 . S
C1047 C1044 1.511 . S
C1047 H1061 0.961 . S
C1047 H1062 0.961 . S
C1047 H1063 0.961 . S
C1048 C1049 1.370 . S
C1048 C1050 1.363 . S
C1048 H1064 0.931 . S
C1049 C1048 1.370 . S
C1049 C1053 1.408 . S
C1050 C1048 1.363 . S
C1050 C1051 1.370 . S
C1050 C1054 1.524 . S
C1051 C1043 1.503 . S
C1051 C1050 1.370 . S
C1051 C1052 1.403 . S
C1052 C1051 1.403 . S
C1052 C1053 1.404 . S
C1052 C1055 1.539 . S
C1053 C1049 1.408 . S
C1053 C1052 1.404 . S
C1053 H1065 0.930 . S
C1054 C1050 1.524 . S
C1054 H1066 0.956 . S
C1054 H1067 0.961 . S
C1054 H1068 0.961 . S
C1055 C1052 1.539 . S
C1055 H1069 0.958 . S
C1055 H1070 0.961 . S
C1055 H1071 0.960 . S
H1056 C1040 0.931 . S
H1057 C1045 0.929 . S
H1058 C1046 0.960 . S
H1059 C1046 0.962 . S
H1060 C1046 0.960 . S
H1061 C1047 0.961 . S
H1062 C1047 0.961 . S
H1063 C1047 0.961 . S
H1064 C1048 0.931 . S
H1065 C1053 0.930 . S
H1066 C1054 0.956 . S
H1067 C1054 0.961 . S
H1068 C1054 0.961 . S
H1069 C1055 0.958 . S
H1070 C1055 0.961 . S
H1071 C1055 0.960 . S
C1072 C1073 1.391 . S
C1072 C1074 1.394 . S
C1072 H1088 0.931 . S
C1073 C1072 1.391 . S
C1073 C1077 1.376 . S
C1074 C1072 1.394 . S
C1074 C1075 1.369 . S
C1074 C1078 1.531 . S
C1075 C1074 1.369 . S
C1075 C1076 1.410 . S
C1075 C1083 1.503 . S
C1076 C1075 1.410 . S
C1076 C1077 1.392 . S
C1076 C1079 1.511 . S
C1077 C1073 1.376 . S
C1077 C1076 1.392 . S
C1077 H1089 0.929 . S
C1078 C1074 1.531 . S
C1078 H1090 0.960 . S
C1078 H1091 0.962 . S
C1078 H1092 0.960 . S
C1079 C1076 1.511 . S
C1079 H1093 0.961 . S
C1079 H1094 0.961 . S
C1079 H1095 0.961 . S
C1080 C1081 1.370 . S
C1080 C1082 1.363 . S
C1080 H1096 0.931 . S
C1081 C1080 1.370 . S
C1081 C1085 1.408 . S
C1082 C1080 1.363 . S
C1082 C1083 1.370 . S
C1082 C1086 1.524 . S
C1083 C1075 1.503 . S
C1083 C1082 1.370 . S
C1083 C1084 1.403 . S
C1084 C1083 1.403 . S
C1084 C1085 1.404 . S
C1084 C1087 1.539 . S
C1085 C1081 1.408 . S
C1085 C1084 1.404 . S
C1085 H1097 0.930 . S
C1086 C1082 1.524 . S
C1086 H1098 0.956 . S
C1086 H1099 0.961 . S
C1086 H1100 0.961 . S
C1087 C1084 1.539 . S
C1087 H1101 0.958 . S
C1087 H1102 0.961 . S
C1087 H1103 0.960 . S
H1088 C1072 0.931 . S
H1089 C1077 0.929 . S
H1090 C1078 0.960 . S
H1091 C1078 0.962 . S
H1092 C1078 0.960 . S
H1093 C1079 0.961 . S
H1094 C1079 0.961 . S
H1095 C1079 0.961 . S
H1096 C1080 0.931 . S
H1097 C1085 0.930 . S
H1098 C1086 0.956 . S
H1099 C1086 0.961 . S
H1100 C1086 0.961 . S
H1101 C1087 0.958 . S
H1102 C1087 0.961 . S
H1103 C1087 0.960 . S
C1104 C1105 1.391 . S
C1104 C1106 1.394 . S
C1104 H1120 0.931 . S
C1105 C1104 1.391 . S
C1105 C1109 1.376 . S
C1106 C1104 1.394 . S
C1106 C1107 1.369 . S
C1106 C1110 1.531 . S
C1107 C1106 1.369 . S
C1107 C1108 1.410 . S
C1107 C1115 1.503 . S
C1108 C1107 1.410 . S
C1108 C1109 1.392 . S
C1108 C1111 1.511 . S
C1109 C1105 1.376 . S
C1109 C1108 1.392 . S
C1109 H1121 0.929 . S
C1110 C1106 1.531 . S
C1110 H1122 0.960 . S
C1110 H1123 0.962 . S
C1110 H1124 0.960 . S
C1111 C1108 1.511 . S
C1111 H1125 0.961 . S
C1111 H1126 0.961 . S
C1111 H1127 0.961 . S
C1112 C1113 1.370 . S
C1112 C1114 1.363 . S
C1112 H1128 0.931 . S
C1113 C1112 1.370 . S
C1113 C1117 1.408 . S
C1114 C1112 1.363 . S
C1114 C1115 1.370 . S
C1114 C1118 1.524 . S
C1115 C1107 1.503 . S
C1115 C1114 1.370 . S
C1115 C1116 1.403 . S
C1116 C1115 1.403 . S
C1116 C1117 1.404 . S
C1116 C1119 1.539 . S
C1117 C1113 1.408 . S
C1117 C1116 1.404 . S
C1117 H1129 0.930 . S
C1118 C1114 1.524 . S
C1118 H1130 0.956 . S
C1118 H1131 0.961 . S
C1118 H1132 0.961 . S
C1119 C1116 1.539 . S
C1119 H1133 0.958 . S
C1119 H1134 0.961 . S
C1119 H1135 0.960 . S
H1120 C1104 0.931 . S
H1121 C1109 0.929 . S
H1122 C1110 0.960 . S
H1123 C1110 0.962 . S
H1124 C1110 0.960 . S
H1125 C1111 0.961 . S
H1126 C1111 0.961 . S
H1127 C1111 0.961 . S
H1128 C1112 0.931 . S
H1129 C1117 0.930 . S
H1130 C1118 0.956 . S
H1131 C1118 0.961 . S
H1132 C1118 0.961 . S
H1133 C1119 0.958 . S
H1134 C1119 0.961 . S
H1135 C1119 0.960 . S
C1136 C1137 1.391 . S
C1136 C1138 1.394 . S
C1136 H1152 0.931 . S
C1137 C1136 1.391 . S
C1137 C1141 1.376 . S
C1138 C1136 1.394 . S
C1138 C1139 1.369 . S
C1138 C1142 1.531 . S
C1139 C1138 1.369 . S
C1139 C1140 1.410 . S
C1139 C1147 1.503 . S
C1140 C1139 1.410 . S
C1140 C1141 1.392 . S
C1140 C1143 1.511 . S
C1141 C1137 1.376 . S
C1141 C1140 1.392 . S
C1141 H1153 0.929 . S
C1142 C1138 1.531 . S
C1142 H1154 0.960 . S
C1142 H1155 0.962 . S
C1142 H1156 0.960 . S
C1143 C1140 1.511 . S
C1143 H1157 0.961 . S
C1143 H1158 0.961 . S
C1143 H1159 0.961 . S
C1144 C1145 1.370 . S
C1144 C1146 1.363 . S
C1144 H1160 0.931 . S
C1145 C1144 1.370 . S
C1145 C1149 1.408 . S
C1146 C1144 1.363 . S
C1146 C1147 1.370 . S
C1146 C1150 1.524 . S
C1147 C1139 1.503 . S
C1147 C1146 1.370 . S
C1147 C1148 1.403 . S
C1148 C1147 1.403 . S
C1148 C1149 1.404 . S
C1148 C1151 1.539 . S
C1149 C1145 1.408 . S
C1149 C1148 1.404 . S
C1149 H1161 0.930 . S
C1150 C1146 1.524 . S
C1150 H1162 0.956 . S
C1150 H1163 0.961 . S
C1150 H1164 0.961 . S
C1151 C1148 1.539 . S
C1151 H1165 0.958 . S
C1151 H1166 0.961 . S
C1151 H1167 0.960 . S
H1152 C1136 0.931 . S
H1153 C1141 0.929 . S
H1154 C1142 0.960 . S
H1155 C1142 0.962 . S
H1156 C1142 0.960 . S
H1157 C1143 0.961 . S
H1158 C1143 0.961 . S
H1159 C1143 0.961 . S
H1160 C1144 0.931 . S
H1161 C1149 0.930 . S
H1162 C1150 0.956 . S
H1163 C1150 0.961 . S
H1164 C1150 0.961 . S
H1165 C1151 0.958 . S
H1166 C1151 0.961 . S
H1167 C1151 0.960 . S
C401 C21 1.568 . S
C409 C322 1.642 . S
C433 C61 1.371 . S
C441 C341 1.394 . S
C473 C378 1.686 . S
C465 C82 1.702 . S
C497 C135 1.703 . S
C505 C388 1.663 . S
C537 C358 2.100 . S
C529 C15 2.046 . S
C569 C328 1.482 . S
C561 C42 1.494 . S
C601 C399 1.502 . S
C593 C101 1.493 . S
C633 C369 1.368 . S
C625 C122 1.371 . S
C657 C2 1.745 . S
C665 C382 1.863 . S
C697 C349 1.639 . S
C689 C95 1.689 . S
C721 C141 1.774 . S
C729 C339 1.769 . S
C753 C55 1.226 . S
C761 C361 1.248 . S
C793 C321 1.649 . S
C785 C181 1.664 . S
C817 C202 1.348 . S
C825 C342 1.356 . S
C849 C255 1.728 . S
C857 C379 1.695 . S
C881 C295 1.679 . S
C889 C389 1.647 . S
C913 C175 2.041 . S
C921 C359 2.082 . S
C953 C329 1.471 . S
C945 C221 1.548 . S
C985 C398 1.438 . S
C977 C242 1.437 . S
C1017 C368 1.411 . S
C1009 C301 1.448 . S
C1041 C162 1.821 . S
C1049 C381 1.838 . S
C1081 C348 1.676 . S
C1073 C261 1.694 . S
C1113 C338 1.754 . S
C1105 C282 1.755 . S
C1137 C215 1.309 . S
C1145 C362 1.304 . S
