# Generated by pormake.
# Topology tsx, (6,3)-cn, num edge types: 1
# Building blocks:
#     Node 0, Type 0, BuildingBlock: FUNLAD_clean_sbu_0, # of connection points: 6
#     Node 1, Type 0, BuildingBlock: FUNLAD_clean_sbu_0, # of connection points: 6
#     Node 2, Type 1, BuildingBlock: WUSLED_clean_sbu_0, # of connection points: 3
#     Node 3, Type 1, BuildingBlock: WUSLED_clean_sbu_0, # of connection points: 3
#     Node 4, Type 1, BuildingBlock: WUSLED_clean_sbu_0, # of connection points: 3
#     Node 5, Type 1, BuildingBlock: WUSLED_clean_sbu_0, # of connection points: 3
#     Edge 6, Type (0, 1), BuildingBlock: TEMPAE_clean_linker_10, # of connection points: 2
#     Edge 7, Type (0, 1), BuildingBlock: TEMPAE_clean_linker_10, # of connection points: 2
#     Edge 8, Type (0, 1), BuildingBlock: TEMPAE_clean_linker_10, # of connection points: 2
#     Edge 9, Type (0, 1), BuildingBlock: TEMPAE_clean_linker_10, # of connection points: 2
#     Edge 10, Type (0, 1), BuildingBlock: TEMPAE_clean_linker_10, # of connection points: 2
#     Edge 11, Type (0, 1), BuildingBlock: TEMPAE_clean_linker_10, # of connection points: 2
#     Edge 12, Type (0, 1), BuildingBlock: TEMPAE_clean_linker_10, # of connection points: 2
#     Edge 13, Type (0, 1), BuildingBlock: TEMPAE_clean_linker_10, # of connection points: 2
#     Edge 14, Type (0, 1), BuildingBlock: TEMPAE_clean_linker_10, # of connection points: 2
#     Edge 15, Type (0, 1), BuildingBlock: TEMPAE_clean_linker_10, # of connection points: 2
#     Edge 16, Type (0, 1), BuildingBlock: TEMPAE_clean_linker_10, # of connection points: 2
#     Edge 17, Type (0, 1), BuildingBlock: TEMPAE_clean_linker_10, # of connection points: 2
# Relax obj value: 0.157
# Max RMSD: 0.152
# Mean RMSD: 0.087
data_MOF--net-tsx--node1-FUNLAD_clean_sbu_0--node2-WUSLED_clean_sbu_0--edge1-TEMPAE_clean_linker_10
_symmetry_space_group_name_H-M    P1
_symmetry_Int_Tables_number       1
_symmetry_cell_setting            triclinic
loop_
_symmetry_equiv_pos_as_xyz
'x, y, z'
_cell_length_a     25.197098
_cell_length_b     27.852905
_cell_length_c     52.477511
_cell_angle_alpha  91.563916
_cell_angle_beta   92.083329
_cell_angle_gamma 90.036404
loop_
_atom_site_label
_atom_site_type_symbol
_atom_site_fract_x
_atom_site_fract_y
_atom_site_fract_z
_atom_type_partial_charge
C0 C 0.93815 0.92977 0.00974 0.0
N1 N 0.0161 0.00642 0.06997 0.0
C2 C 0.96888 0.00595 0.08175 0.0
C3 C 0.96749 0.00748 0.10834 0.0
C4 C 0.01514 0.00981 0.12312 0.0
C5 C 0.06334 0.01034 0.11042 0.0
C6 C 0.06291 0.00852 0.08374 0.0
Zn7 Zn 0.01576 0.00343 0.03079 0.0
C8 C 0.09381 0.93147 0.01069 0.0
N9 N 0.01335 0.9964 0.94905 0.0
C10 C 0.96587 0.99404 0.93586 0.0
C11 C 0.05982 0.9983 0.93667 0.0
C12 C 0.05964 0.99829 0.91002 0.0
C13 C 0.01117 0.99626 0.89589 0.0
C14 C 0.96387 0.99386 0.90921 0.0
Zn15 Zn 0.01441 0.99901 0.98823 0.0
O16 O 0.9568 0.94958 0.03024 0.0
C17 C 0.93657 0.0711 0.00756 0.0
O18 O 0.9553 0.94301 0.98849 0.0
H19 H 0.09715 1.0003 0.9475 0.0
H20 H 0.93209 0.0042 0.07049 0.0
H21 H 0.92936 0.99256 0.94603 0.0
O22 O 0.95549 0.05802 0.0291 0.0
O23 O 0.95399 0.05162 0.98735 0.0
H24 H 0.10003 0.00888 0.07403 0.0
O25 O 0.07323 0.05488 0.98899 0.0
O26 O 0.07472 0.05752 0.03083 0.0
O27 O 0.0751 0.94669 0.98959 0.0
O28 O 0.076 0.9486 0.03147 0.0
C29 C 0.09167 0.07296 0.01004 0.0
H30 H 0.92939 0.00625 0.11721 0.0
H31 H 0.10105 0.01273 0.12096 0.0
H32 H 0.09706 0.00072 0.90062 0.0
H33 H 0.92562 0.9915 0.89916 0.0
C34 C 0.44348 0.43017 0.50991 0.0
N35 N 0.5222 0.50782 0.56962 0.0
C36 C 0.47505 0.50786 0.58146 0.0
C37 C 0.47382 0.50993 0.60806 0.0
C38 C 0.52157 0.51226 0.62275 0.0
C39 C 0.5697 0.51222 0.60999 0.0
C40 C 0.5691 0.50989 0.58331 0.0
Zn41 Zn 0.52164 0.50408 0.53047 0.0
C42 C 0.59868 0.43149 0.51063 0.0
N43 N 0.51836 0.49568 0.44877 0.0
C44 C 0.4712 0.49469 0.43529 0.0
C45 C 0.56527 0.49525 0.43671 0.0
C46 C 0.56594 0.49394 0.41008 0.0
C47 C 0.51786 0.4932 0.39562 0.0
C48 C 0.47003 0.4935 0.40862 0.0
Zn49 Zn 0.51918 0.49921 0.48793 0.0
O50 O 0.46245 0.45033 0.53027 0.0
C51 C 0.44191 0.57155 0.50705 0.0
O52 O 0.46011 0.44322 0.48853 0.0
H53 H 0.60235 0.49604 0.44776 0.0
H54 H 0.43818 0.5061 0.57026 0.0
H55 H 0.43434 0.4952 0.44523 0.0
O56 O 0.46146 0.55888 0.52856 0.0
O57 O 0.45882 0.55173 0.48682 0.0
H58 H 0.60616 0.50984 0.57354 0.0
O59 O 0.57798 0.55528 0.4883 0.0
O60 O 0.58116 0.55778 0.53014 0.0
O61 O 0.57972 0.44663 0.48956 0.0
O62 O 0.58148 0.4491 0.53141 0.0
C63 C 0.59738 0.57318 0.50921 0.0
H64 H 0.43577 0.50912 0.61699 0.0
H65 H 0.60747 0.51459 0.62046 0.0
H66 H 0.60378 0.49305 0.40093 0.0
H67 H 0.43201 0.49357 0.39832 0.0
C68 C 0.9265 0.07753 0.48702 0.0
C69 C 0.8847 0.08794 0.46959 0.0
C70 C 0.856 0.15419 0.49708 0.0
C71 C 0.84967 0.12565 0.47464 0.0
C72 C 0.89813 0.14392 0.51442 0.0
C73 C 0.93293 0.1058 0.50947 0.0
U74 U 0.00202 0.00383 0.4388 0.0
O75 O 0.08392 0.97662 0.43895 0.0
O76 O 0.01694 0.92602 0.4349 0.0
C77 C 0.06876 0.93139 0.43729 0.0
C78 C 0.96432 0.03842 0.48148 0.0
C79 C 0.09821 0.89654 0.45325 0.0
C80 C 0.17035 0.87718 0.48344 0.0
C81 C 0.13698 0.91113 0.47183 0.0
C82 C 0.12525 0.8135 0.45895 0.0
C83 C 0.16574 0.82802 0.47668 0.0
C84 C 0.09202 0.84735 0.44738 0.0
C85 C 0.98122 0.03752 0.36851 0.0
C86 C 0.99932 0.98737 0.33114 0.0
C87 C 0.9868 0.07304 0.32691 0.0
C88 C 0.97905 0.07781 0.35309 0.0
C89 C 0.99671 0.02774 0.31558 0.0
C90 C 0.99188 0.99224 0.35742 0.0
C91 C 0.97143 0.04373 0.39593 0.0
O92 O 0.94413 1.0006 0.46907 0.0
O93 O 0.01 0.05214 0.47275 0.0
O94 O 0.01189 0.05947 0.41029 0.0
O95 O 0.94482 0.0092 0.40636 0.0
H96 H 0.87932 0.06713 0.45194 0.0
H97 H 0.81817 0.13308 0.46071 0.0
H98 H 0.9039 0.16512 0.53192 0.0
H99 H 0.96502 0.09853 0.5231 0.0
H100 H 0.20062 0.88956 0.49727 0.0
H101 H 0.14282 0.94881 0.47678 0.0
H102 H 0.12087 0.77614 0.45298 0.0
H103 H 0.06291 0.83517 0.43292 0.0
H104 H 0.00743 0.95208 0.32302 0.0
H105 H 0.98392 0.10473 0.31543 0.0
H106 H 0.97083 0.11304 0.36129 0.0
H107 H 0.99413 0.96066 0.36901 0.0
C108 C 0.93434 0.92419 0.53009 0.0
C109 C 0.8936 0.91651 0.5471 0.0
C110 C 0.86031 0.84875 0.5208 0.0
C111 C 0.85684 0.87939 0.54244 0.0
C112 C 0.90123 0.85651 0.50379 0.0
C113 C 0.93783 0.89402 0.50837 0.0
U114 U 0.01009 0.00168 0.57893 0.0
O115 O 0.0945 0.0225 0.58308 0.0
O116 O 0.03272 0.07798 0.58009 0.0
C117 C 0.08388 0.06858 0.58159 0.0
C118 C 0.97458 0.96194 0.5357 0.0
C119 C 0.11927 0.09752 0.56613 0.0
C120 C 0.13385 0.15662 0.53366 0.0
C121 C 0.10017 0.12452 0.54548 0.0
C122 C 0.20633 0.13393 0.56236 0.0
C123 C 0.18718 0.16235 0.54227 0.0
C124 C 0.17279 0.102 0.5741 0.0
C125 C 0.97595 0.98035 0.64896 0.0
C126 C 0.0304 0.99681 0.68747 0.0
C127 C 0.93694 0.97839 0.69058 0.0
C128 C 0.93185 0.97396 0.66401 0.0
C129 C 0.98644 0.98912 0.70269 0.0
C130 C 0.02519 0.9925 0.66082 0.0
C131 C 0.96987 0.97162 0.62117 0.0
O132 O 0.95635 0.00284 0.54495 0.0
O133 O 0.01788 0.94744 0.54791 0.0
O134 O 0.01005 0.95068 0.61011 0.0
O135 O 0.94891 0.00666 0.60791 0.0
H136 H 0.89059 0.93887 0.56421 0.0
H137 H 0.82639 0.87395 0.55612 0.0
H138 H 0.90481 0.8337 0.4869 0.0
H139 H 0.96917 0.89916 0.4951 0.0
H140 H 0.11789 0.17749 0.51806 0.0
H141 H 0.05902 0.12186 0.53892 0.0
H142 H 0.24677 0.13782 0.56985 0.0
H143 H 0.18831 0.08201 0.59016 0.0
H144 H 0.06915 0.00481 0.69615 0.0
H145 H 0.90205 0.97318 0.70165 0.0
H146 H 0.89347 0.96476 0.65522 0.0
H147 H 0.0598 0.9977 0.64954 0.0
C148 C 0.43207 0.58581 0.98624 0.0
C149 C 0.3941 0.5991 0.96749 0.0
C150 C 0.35929 0.66071 0.99619 0.0
C151 C 0.35795 0.63595 0.97245 0.0
C152 C 0.39782 0.64772 0.01486 0.0
C153 C 0.43377 0.61044 0.00994 0.0
U154 U 0.50903 0.5128 0.93835 0.0
O155 O 0.59068 0.48484 0.93898 0.0
O156 O 0.52318 0.43496 0.93416 0.0
C157 C 0.575 0.43977 0.93696 0.0
C158 C 0.47031 0.54698 0.98092 0.0
C159 C 0.60342 0.40424 0.95291 0.0
C160 C 0.67488 0.3831 0.9831 0.0
C161 C 0.64272 0.41788 0.97143 0.0
C162 C 0.62758 0.32052 0.95876 0.0
C163 C 0.66851 0.33403 0.97646 0.0
C164 C 0.59558 0.3552 0.94712 0.0
C165 C 0.48941 0.54606 0.86802 0.0
C166 C 0.50715 0.49497 0.83097 0.0
C167 C 0.49529 0.5806 0.8262 0.0
C168 C 0.48758 0.58602 0.85236 0.0
C169 C 0.50478 0.53498 0.81515 0.0
C170 C 0.49977 0.50048 0.85721 0.0
C171 C 0.47935 0.55281 0.89538 0.0
O172 O 0.45046 0.50933 0.96825 0.0
O173 O 0.51612 0.56093 0.97242 0.0
O174 O 0.51982 0.5683 0.90983 0.0
O175 O 0.45219 0.51865 0.90582 0.0
H176 H 0.39247 0.58103 0.94892 0.0
H177 H 0.32939 0.64558 0.95754 0.0
H178 H 0.39973 0.66599 0.03335 0.0
H179 H 0.46293 0.60089 0.02462 0.0
H180 H 0.70556 0.39473 0.9969 0.0
H181 H 0.64987 0.45542 0.9763 0.0
H182 H 0.6219 0.28325 0.95287 0.0
H183 H 0.56607 0.3437 0.93269 0.0
H184 H 0.51495 0.45945 0.82306 0.0
H185 H 0.49262 0.61203 0.81451 0.0
H186 H 0.47959 0.62146 0.86035 0.0
H187 H 0.50176 0.46916 0.869 0.0
C188 C 0.4326 0.42074 0.03054 0.0
C189 C 0.43445 0.38067 0.04625 0.0
C190 C 0.36063 0.34357 0.02167 0.0
C191 C 0.39904 0.34242 0.04179 0.0
C192 C 0.35885 0.3838 1.00599 0.0
C193 C 0.39454 0.422 0.0104 0.0
U194 U 0.50888 0.49962 0.07864 0.0
O195 O 0.58966 0.5294 0.07964 0.0
O196 O 0.52119 0.57808 0.08158 0.0
C197 C 0.57302 0.57416 0.08016 0.0
C198 C 0.46842 0.4621 0.03585 0.0
C199 C 0.60005 0.60835 0.06381 0.0
C200 C 0.66638 0.62616 0.03272 0.0
C201 C 0.63461 0.59292 0.0448 0.0
C202 C 0.62765 0.69081 0.05753 0.0
C203 C 0.66421 0.67543 0.0394 0.0
C204 C 0.59607 0.65765 0.06959 0.0
C205 C 0.49445 0.46653 0.14905 0.0
C206 C 0.50894 0.51747 0.18708 0.0
C207 C 0.50247 0.43119 0.19084 0.0
C208 C 0.49526 0.4261 0.16438 0.0
C209 C 0.50885 0.47696 0.20255 0.0
C210 C 0.50198 0.5123 0.16053 0.0
C211 C 0.48351 0.45991 0.1214 0.0
O212 O 0.44695 0.49887 0.04784 0.0
O213 O 0.51622 0.45163 0.04498 0.0
O214 O 0.52359 0.44532 0.10787 0.0
O215 O 0.45484 0.49337 0.11031 0.0
H216 H 0.46285 0.37916 0.06221 0.0
H217 H 0.40091 0.31242 0.05449 0.0
H218 H 0.32994 0.3857 0.99027 0.0
H219 H 0.39198 0.45277 0.99825 0.0
H220 H 0.69357 0.61315 0.0186 0.0
H221 H 0.63854 0.55511 0.03988 0.0
H222 H 0.62529 0.72829 0.06343 0.0
H223 H 0.57014 0.67042 0.08434 0.0
H224 H 0.51435 0.55315 0.19551 0.0
H225 H 0.50157 0.39933 0.2022 0.0
H226 H 0.48937 0.3905 0.15588 0.0
H227 H 0.50182 0.54403 0.14904 0.0
C228 C 0.15428 0.12705 0.98796 0.0
C229 C 0.13185 0.1121 0.01053 0.0
C230 C 0.19202 0.16436 0.98835 0.0
C231 C 0.20747 0.18751 0.01184 0.0
C232 C 0.18494 0.17258 0.03465 0.0
C233 C 0.14763 0.13504 0.03374 0.0
C234 C 0.21537 0.17902 0.96364 0.0
C235 C 0.20009 0.19642 0.06008 0.0
C236 C 0.33844 0.25554 0.01937 0.0
C237 C 0.32178 0.30346 0.01763 0.0
C238 C 0.30187 0.21743 0.0169 0.0
C239 C 0.24718 0.22738 0.0127 0.0
C240 C 0.23022 0.27561 0.01044 0.0
C241 C 0.2677 0.31303 0.01287 0.0
C242 C 0.32166 0.16653 0.01924 0.0
C243 C 0.17226 0.2878 1.00614 0.0
H244 H 0.14246 0.10951 0.96995 0.0
H245 H 0.13051 0.12391 0.05129 0.0
H246 H 0.20661 0.21739 0.96025 0.0
H247 H 0.25921 0.1752 0.96485 0.0
H248 H 0.1996 0.15717 0.94702 0.0
H249 H 0.17872 0.18079 0.07605 0.0
H250 H 0.24342 0.19278 0.06406 0.0
H251 H 0.19116 0.2354 0.05956 0.0
H252 H 0.38023 0.24782 0.02271 0.0
H253 H 0.25441 0.34994 0.01178 0.0
H254 H 0.30848 0.1446 1.0022 0.0
H255 H 0.30446 0.15 0.03608 0.0
H256 H 0.36564 0.16469 0.0213 0.0
H257 H 0.15579 0.26818 0.98895 0.0
H258 H 0.16579 0.32689 1.00372 0.0
H259 H 0.14948 0.27616 0.0226 0.0
C260 C 0.14434 0.8649 0.03202 0.0
C261 C 0.13529 0.8936 0.01074 0.0
C262 C 0.18139 0.82707 0.03146 0.0
C263 C 0.21077 0.81833 0.00928 0.0
C264 C 0.20286 0.84817 0.98806 0.0
C265 C 0.16495 0.88507 0.98896 0.0
C266 C 0.18806 0.79566 0.05434 0.0
C267 C 0.2339 0.8407 0.96419 0.0
C268 C 0.338 0.7442 0.01224 0.0
C269 C 0.32081 0.70021 1.00115 0.0
C270 C 0.30248 0.7827 0.01549 0.0
C271 C 0.24834 0.77693 0.00773 0.0
C272 C 0.23051 0.73212 0.99723 0.0
C273 C 0.26694 0.69446 0.99396 0.0
C274 C 0.32325 0.83 0.02648 0.0
C275 C 0.17306 0.72419 0.98897 0.0
H276 H 0.12141 0.87114 0.04887 0.0
H277 H 0.15854 0.90733 0.97251 0.0
H278 H 0.17655 0.7582 0.04891 0.0
H279 H 0.23032 0.795 0.06102 0.0
H280 H 0.16357 0.80809 0.07041 0.0
H281 H 0.22522 0.86866 0.94993 0.0
H282 H 0.27713 0.84108 0.96903 0.0
H283 H 0.22422 0.80503 0.95528 0.0
H284 H 0.37963 0.74904 0.01763 0.0
H285 H 0.25324 0.66036 0.98571 0.0
H286 H 0.29982 0.84162 0.04304 0.0
H287 H 0.31867 0.85809 0.01197 0.0
H288 H 0.36578 0.82802 0.03271 0.0
H289 H 0.14689 0.73352 1.00492 0.0
H290 H 0.16495 0.68647 0.98257 0.0
H291 H 0.1622 0.74812 0.97305 0.0
C292 C 0.87662 0.86754 0.98898 0.0
C293 C 0.89699 0.89169 0.01105 0.0
C294 C 0.83794 0.83124 0.99047 0.0
C295 C 0.81916 0.8189 0.01458 0.0
C296 C 0.83946 0.84333 0.03685 0.0
C297 C 0.87799 0.87926 0.03482 0.0
C298 C 0.81733 0.80595 0.9663 0.0
C299 C 0.82057 0.83146 0.06295 0.0
C300 C 0.68667 0.75712 0.02336 0.0
C301 C 0.70269 0.71033 0.02928 0.0
C302 C 0.72385 0.79223 0.01719 0.0
C303 C 0.77849 0.78036 0.01689 0.0
C304 C 0.79458 0.73256 0.02149 0.0
C305 C 0.75657 0.69819 0.02765 0.0
C306 C 0.70492 0.84267 0.01229 0.0
C307 C 0.85237 0.71831 0.02134 0.0
H308 H 0.89101 0.87685 0.97053 0.0
H309 H 0.89327 0.89766 0.05202 0.0
H310 H 0.82566 0.76692 0.96723 0.0
H311 H 0.7736 0.81011 0.96432 0.0
H312 H 0.83551 0.82002 0.94903 0.0
H313 H 0.84008 0.85401 0.07838 0.0
H314 H 0.77699 0.83669 0.06362 0.0
H315 H 0.82873 0.79318 0.06687 0.0
H316 H 0.64506 0.76666 0.02415 0.0
H317 H 0.76955 0.66235 0.03244 0.0
H318 H 0.72168 0.85598 0.99454 0.0
H319 H 0.7191 0.86703 0.02819 0.0
H320 H 0.66092 0.84495 0.01062 0.0
H321 H 0.87086 0.73083 1.00384 0.0
H322 H 0.85778 0.67882 0.02241 0.0
H323 H 0.87404 0.73574 0.0379 0.0
C324 C 0.87343 0.12114 0.9817 0.0
C325 C 0.89545 0.10925 1.00567 0.0
C326 C 0.83573 0.15794 0.97919 0.0
C327 C 0.81949 0.18381 1.00116 0.0
C328 C 0.84108 0.17177 0.02546 0.0
C329 C 0.87875 0.13458 0.02744 0.0
C330 C 0.81363 0.16941 0.95291 0.0
C331 C 0.82484 0.19855 0.04932 0.0
C332 C 0.76149 0.30689 0.98746 0.0
C333 C 0.70673 0.29727 0.9862 0.0
C334 C 0.79853 0.27086 0.99351 0.0
C335 C 0.78055 0.2239 0.99835 0.0
C336 C 0.7253 0.21448 0.99826 0.0
C337 C 0.68911 0.25124 0.99223 0.0
C338 C 0.85706 0.28251 0.99345 0.0
C339 C 0.70441 0.16501 1.00342 0.0
H340 H 0.88584 0.10178 0.96474 0.0
H341 H 0.89552 0.12571 0.04604 0.0
H342 H 0.76972 0.16608 0.95227 0.0
H343 H 0.82328 0.20708 0.94848 0.0
H344 H 0.82966 0.14537 0.9378 0.0
H345 H 0.84425 0.18408 0.06683 0.0
H346 H 0.83541 0.23708 0.04815 0.0
H347 H 0.78115 0.19655 0.05104 0.0
H348 H 0.77566 0.34208 0.98256 0.0
H349 H 0.64689 0.24361 0.99172 0.0
H350 H 0.87527 0.26333 0.97715 0.0
H351 H 0.87744 0.27003 0.01115 0.0
H352 H 0.8645 0.3216 0.99181 0.0
H353 H 0.71531 0.13971 0.98777 0.0
H354 H 0.66054 0.16455 1.00488 0.0
H355 H 0.72275 0.15146 0.02136 0.0
C356 C 0.64845 0.63637 0.487 0.0
C357 C 0.63775 0.61217 0.50937 0.0
C358 C 0.68504 0.67462 0.48731 0.0
C359 C 0.71209 0.68869 0.51047 0.0
C360 C 0.7022 0.66376 0.53298 0.0
C361 C 0.66503 0.62608 0.53219 0.0
C362 C 0.69408 0.70053 0.46295 0.0
C363 C 0.73053 0.67721 0.55802 0.0
C364 C 0.83982 0.76211 0.50968 0.0
C365 C 0.82198 0.80826 0.51651 0.0
C366 C 0.80442 0.72302 0.5072 0.0
C367 C 0.74974 0.73025 0.51143 0.0
C368 C 0.73132 0.77701 0.51766 0.0
C369 C 0.76762 0.81533 0.52022 0.0
C370 C 0.82579 0.67371 0.50076 0.0
C371 C 0.67332 0.78644 0.52208 0.0
H372 H 0.6275 0.62599 0.4693 0.0
H373 H 0.65732 0.60748 0.54956 0.0
H374 H 0.68278 0.73884 0.46533 0.0
H375 H 0.73681 0.69959 0.45857 0.0
H376 H 0.6708 0.68461 0.44643 0.0
H377 H 0.71988 0.65313 0.57359 0.0
H378 H 0.77415 0.67575 0.55588 0.0
H379 H 0.72045 0.71464 0.56376 0.0
H380 H 0.88181 0.75626 0.50704 0.0
H381 H 0.75344 0.85099 0.52518 0.0
H382 H 0.80409 0.6581 0.48373 0.0
H383 H 0.81936 0.64945 0.51679 0.0
H384 H 0.86888 0.67439 0.49699 0.0
H385 H 0.64868 0.77341 0.50535 0.0
H386 H 0.66498 0.82519 0.52553 0.0
H387 H 0.66072 0.76636 0.5388 0.0
C388 C 0.65202 0.3676 0.53283 0.0
C389 C 0.6393 0.39282 0.51064 0.0
C390 C 0.6882 0.32909 0.53245 0.0
C391 C 0.71274 0.31587 0.50941 0.0
C392 C 0.70104 0.34203 0.48714 0.0
C393 C 0.66434 0.37991 0.48799 0.0
C394 C 0.69925 0.30186 0.55653 0.0
C395 C 0.72668 0.32954 0.46225 0.0
C396 C 0.83884 0.24026 0.50994 0.0
C397 C 0.81913 0.19495 0.50197 0.0
C398 C 0.80462 0.27974 0.51299 0.0
C399 C 0.74927 0.2737 0.5082 0.0
C400 C 0.72904 0.22769 0.50089 0.0
C401 C 0.76418 0.18901 0.49775 0.0
C402 C 0.82787 0.32825 0.52055 0.0
C403 C 0.67029 0.21952 0.49587 0.0
H404 H 0.63277 0.37721 0.55038 0.0
H405 H 0.65508 0.39934 0.47078 0.0
H406 H 0.68641 0.26394 0.55357 0.0
H407 H 0.74252 0.30151 0.56124 0.0
H408 H 0.67839 0.31759 0.57307 0.0
H409 H 0.71523 0.35478 0.44698 0.0
H410 H 0.77056 0.32996 0.46496 0.0
H411 H 0.715 0.29267 0.45575 0.0
H412 H 0.88129 0.2452 0.51301 0.0
H413 H 0.74864 0.15395 0.49191 0.0
H414 H 0.80814 0.34327 0.53755 0.0
H415 H 0.8206 0.35359 0.50485 0.0
H416 H 0.87131 0.3265 0.52486 0.0
H417 H 0.64782 0.23217 0.51255 0.0
H418 H 0.66062 0.18108 0.49181 0.0
H419 H 0.65632 0.24064 0.47931 0.0
C420 C 0.38639 0.37777 0.53558 0.0
C421 C 0.40324 0.39134 0.51159 0.0
C422 C 0.34972 0.34038 0.53799 0.0
C423 C 0.32897 0.31572 0.51587 0.0
C424 C 0.34514 0.32954 0.49153 0.0
C425 C 0.38215 0.36716 0.48967 0.0
C426 C 0.33369 0.3269 0.56432 0.0
C427 C 0.32373 0.30429 0.46751 0.0
C428 C 0.27637 0.19102 0.52869 0.0
C429 C 0.22208 0.19989 0.53178 0.0
C430 C 0.31119 0.22786 0.52226 0.0
C431 C 0.29133 0.27483 0.5186 0.0
C432 C 0.23613 0.28343 0.52021 0.0
C433 C 0.20223 0.24596 0.52685 0.0
C434 C 0.3697 0.21702 0.5207 0.0
C435 C 0.21321 0.33286 0.51631 0.0
H436 H 0.40223 0.39616 0.55267 0.0
H437 H 0.39481 0.37739 0.47106 0.0
H438 H 0.28999 0.32973 0.56577 0.0
H439 H 0.3447 0.28902 0.56783 0.0
H440 H 0.35286 0.35009 0.57958 0.0
H441 H 0.33883 0.32032 0.45001 0.0
H442 H 0.33505 0.26581 0.46764 0.0
H443 H 0.27971 0.30583 0.46665 0.0
H444 H 0.292 0.15538 0.53194 0.0
H445 H 0.16052 0.25346 0.52936 0.0
H446 H 0.39183 0.23587 0.53668 0.0
H447 H 0.38519 0.23044 0.5027 0.0
H448 H 0.37816 0.17797 0.52171 0.0
H449 H 0.22625 0.35711 0.53246 0.0
H450 H 0.1691 0.33242 0.5151 0.0
H451 H 0.228 0.34827 0.49863 0.0
C452 C 0.37801 0.62103 0.48129 0.0
C453 C 0.40028 0.60926 0.50523 0.0
C454 C 0.33933 0.65701 0.47888 0.0
C455 C 0.32229 0.68215 0.50092 0.0
C456 C 0.34427 0.67034 0.52518 0.0
C457 C 0.38295 0.63399 0.52707 0.0
C458 C 0.31689 0.66828 0.45263 0.0
C459 C 0.32721 0.69638 0.54911 0.0
C460 C 0.25971 0.8036 0.4876 0.0
C461 C 0.20533 0.79231 0.4863 0.0
C462 C 0.29809 0.76864 0.49355 0.0
C463 C 0.28188 0.72109 0.49824 0.0
C464 C 0.22701 0.70998 0.49811 0.0
C465 C 0.18946 0.74568 0.49219 0.0
C466 C 0.35616 0.78208 0.49353 0.0
C467 C 0.20798 0.65981 0.5031 0.0
H468 H 0.39092 0.60215 0.46428 0.0
H469 H 0.39988 0.6252 0.54564 0.0
H470 H 0.27313 0.66358 0.45192 0.0
H471 H 0.32511 0.70632 0.44838 0.0
H472 H 0.33386 0.64503 0.43744 0.0
H473 H 0.34739 0.68244 0.56657 0.0
H474 H 0.33613 0.73526 0.54799 0.0
H475 H 0.28365 0.69286 0.55092 0.0
H476 H 0.27256 0.83927 0.4828 0.0
H477 H 0.14755 0.73677 0.49164 0.0
H478 H 0.37503 0.76375 0.47716 0.0
H479 H 0.37704 0.76994 0.51118 0.0
H480 H 0.36213 0.82141 0.49205 0.0
H481 H 0.21983 0.63507 0.48738 0.0
H482 H 0.16415 0.65798 0.50454 0.0
H483 H 0.22682 0.64661 0.52101 0.0
C484 C 0.97572 0.03885 0.16407 0.0
C485 C 0.01439 0.01174 0.15155 0.0
C486 C 0.97393 0.04051 0.1908 0.0
C487 C 0.01199 0.01476 0.20548 0.0
C488 C 0.05138 0.98761 0.19303 0.0
C489 C 0.05202 0.98631 0.16624 0.0
C490 C 0.93126 0.06989 0.20333 0.0
C491 C 0.09273 0.95978 0.20801 0.0
C492 C 0.03377 0.05591 0.2748 0.0
C493 C 0.00304 0.02276 0.28753 0.0
C494 C 0.03793 0.05313 0.24818 0.0
C495 C 0.01047 0.01645 0.23388 0.0
C496 C 0.98012 0.98236 0.24666 0.0
C497 C 0.9769 0.98584 0.27332 0.0
C498 C 0.07111 0.08988 0.23531 0.0
C499 C 0.94998 0.9429 0.23209 0.0
H500 H 0.94703 0.05929 0.15297 0.0
H501 H 0.0816 0.96473 0.15679 0.0
H502 H 0.90732 0.04667 0.21537 0.0
H503 H 0.9497 0.09818 0.21605 0.0
H504 H 0.90419 0.08731 0.1892 0.0
H505 H 0.12118 0.94104 0.19549 0.0
H506 H 0.11531 0.98437 0.22141 0.0
H507 H 0.07314 0.93273 0.21964 0.0
H508 H 0.05464 0.08414 0.2857 0.0
H509 H 0.95263 0.96042 0.283 0.0
H510 H 0.04554 0.1111 0.22217 0.0
H511 H 0.10137 0.07163 0.22366 0.0
H512 H 0.09165 0.11498 0.24923 0.0
H513 H 0.91958 0.95885 0.21905 0.0
H514 H 0.92986 0.91818 0.24492 0.0
H515 H 0.97734 0.92168 0.22013 0.0
C516 C 0.97082 0.02322 0.85417 0.0
C517 C 0.00982 0.99682 0.86746 0.0
C518 C 0.96823 0.02324 0.82739 0.0
C519 C 0.00566 0.99637 0.81347 0.0
C520 C 0.04563 0.97025 0.82672 0.0
C521 C 0.04717 0.97071 0.85353 0.0
C522 C 0.925 0.0516 0.81399 0.0
C523 C 0.08627 0.94116 0.81258 0.0
C524 C 0.96617 0.95692 0.74549 0.0
C525 C 0.99218 0.99092 0.73109 0.0
C526 C 0.97043 0.95821 0.77224 0.0
C527 C 0.00173 0.99424 0.78503 0.0
C528 C 0.02859 0.0284 0.77067 0.0
C529 C 0.02346 0.02636 0.74388 0.0
C530 C 0.94122 0.92106 0.78683 0.0
C531 C 0.0624 0.06732 0.78361 0.0
H532 H 0.94236 0.04419 0.86474 0.0
H533 H 0.07708 0.94977 0.86357 0.0
H534 H 0.94276 0.07768 0.80114 0.0
H535 H 0.89934 0.02705 0.80195 0.0
H536 H 0.89971 0.0715 0.82758 0.0
H537 H 0.11608 0.92444 0.82568 0.0
H538 H 0.06612 0.91232 0.80086 0.0
H539 H 0.10734 0.96429 0.79933 0.0
H540 H 0.94274 0.92884 0.7358 0.0
H541 H 0.04331 0.05304 0.73296 0.0
H542 H 0.91302 0.93903 0.79973 0.0
H543 H 0.96976 0.90065 0.79893 0.0
H544 H 0.91872 0.89528 0.77402 0.0
H545 H 0.03764 0.09024 0.79606 0.0
H546 H 0.08164 0.09049 0.76972 0.0
H547 H 0.09374 0.05106 0.79601 0.0
C548 C 0.48273 0.54256 0.66359 0.0
C549 C 0.52101 0.51481 0.65117 0.0
C550 C 0.48116 0.54487 0.69031 0.0
C551 C 0.51904 0.51913 0.7051 0.0
C552 C 0.55801 0.49129 0.69275 0.0
C553 C 0.55844 0.48935 0.66596 0.0
C554 C 0.43893 0.57496 0.70273 0.0
C555 C 0.59914 0.46341 0.70784 0.0
C556 C 0.54183 0.56179 0.7741 0.0
C557 C 0.51084 0.52926 0.78712 0.0
C558 C 0.54577 0.55828 0.74748 0.0
C559 C 0.51778 0.52153 0.73349 0.0
C560 C 0.48715 0.48808 0.74656 0.0
C561 C 0.48417 0.49227 0.77321 0.0
C562 C 0.57927 0.59435 0.7343 0.0
C563 C 0.45644 0.44858 0.73232 0.0
H564 H 0.45418 0.56299 0.6524 0.0
H565 H 0.58771 0.46729 0.65659 0.0
H566 H 0.41483 0.55228 0.71498 0.0
H567 H 0.45778 0.60337 0.71523 0.0
H568 H 0.41195 0.5923 0.68853 0.0
H569 H 0.62725 0.44406 0.69539 0.0
H570 H 0.62213 0.48809 0.72103 0.0
H571 H 0.57932 0.43687 0.7197 0.0
H572 H 0.56309 0.59007 0.78478 0.0
H573 H 0.45969 0.46734 0.78311 0.0
H574 H 0.55384 0.6155 0.72106 0.0
H575 H 0.6092 0.57552 0.7227 0.0
H576 H 0.60021 0.61957 0.74801 0.0
H577 H 0.42611 0.46449 0.71923 0.0
H578 H 0.43615 0.42438 0.74536 0.0
H579 H 0.48344 0.4268 0.72043 0.0
C580 C 0.55424 0.51973 0.35426 0.0
C581 C 0.51764 0.49218 0.36719 0.0
C582 C 0.55465 0.51889 0.32748 0.0
C583 C 0.51743 0.48997 0.31322 0.0
C584 C 0.48024 0.46225 0.32611 0.0
C585 C 0.48087 0.4636 0.3529 0.0
C586 C 0.59493 0.54897 0.31445 0.0
C587 C 0.43991 0.43092 0.3116 0.0
C588 C 0.48444 0.51752 0.2438 0.0
C589 C 0.51358 0.4822 0.23086 0.0
C590 C 0.48592 0.52094 0.27058 0.0
C591 C 0.51747 0.48836 0.28479 0.0
C592 C 0.54792 0.45334 0.27184 0.0
C593 C 0.54553 0.45063 0.24505 0.0
C594 C 0.45272 0.55866 0.28368 0.0
C595 C 0.58243 0.41823 0.28628 0.0
H596 H 0.58228 0.54249 0.36509 0.0
H597 H 0.45295 0.44167 0.36267 0.0
H598 H 0.61978 0.52565 0.30225 0.0
H599 H 0.57433 0.57482 0.30179 0.0
H600 H 0.62137 0.56933 0.32828 0.0
H601 H 0.41315 0.41216 0.32445 0.0
H602 H 0.41537 0.45299 0.29842 0.0
H603 H 0.4605 0.40359 0.29979 0.0
H604 H 0.45918 0.54168 0.23298 0.0
H605 H 0.56869 0.42366 0.23517 0.0
H606 H 0.47807 0.58114 0.29698 0.0
H607 H 0.42258 0.54106 0.29519 0.0
H608 H 0.43196 0.58244 0.2699 0.0
H609 H 0.61097 0.43791 0.29934 0.0
H610 H 0.60505 0.39424 0.27337 0.0
H611 H 0.55745 0.39572 0.29821 0.0
loop_
_geom_bond_atom_site_label_1
_geom_bond_atom_site_label_2
_geom_bond_distance
_geom_bond_site_symmetry_2
_ccdc_geom_bond_type
C0 O16 1.251 . S
C0 O18 1.254 1_554 S
N1 C2 1.333 1_445 S
N1 C6 1.307 . S
N1 Zn7 2.020 . S
C2 N1 1.333 1_665 S
C2 C3 1.379 . S
C2 H20 0.952 . S
C3 C2 1.379 . S
C3 C4 1.390 1_665 S
C3 H30 0.949 . S
C4 C3 1.390 1_445 S
C4 C5 1.357 . S
C5 C4 1.357 . S
C5 C6 1.370 . S
C5 H31 0.950 . S
C6 N1 1.307 . S
C6 C5 1.370 . S
C6 H24 0.948 . S
Zn7 N1 2.020 . S
Zn7 O16 2.039 1_445 S
Zn7 O22 2.034 1_455 S
Zn7 O26 2.025 . S
Zn7 O28 2.024 1_545 S
C8 O27 1.246 1_554 S
C8 O28 1.249 . S
N9 C10 1.307 1_445 S
N9 C11 1.333 . S
N9 Zn15 2.020 . S
C10 N9 1.307 1_665 S
C10 C14 1.370 . S
C10 H21 0.948 . S
C11 N9 1.333 . S
C11 C12 1.379 . S
C11 H19 0.952 . S
C12 C11 1.379 . S
C12 C13 1.390 . S
C12 H32 0.949 . S
C13 C12 1.390 . S
C13 C14 1.357 1_445 S
C14 C10 1.370 . S
C14 C13 1.357 1_665 S
C14 H33 0.950 . S
Zn15 N9 2.020 . S
Zn15 O18 2.025 1_445 S
Zn15 O23 2.024 1_455 S
Zn15 O25 2.039 . S
Zn15 O27 2.034 1_545 S
O16 C0 1.251 . S
O16 Zn7 2.039 1_665 S
C17 O22 1.246 . S
C17 O23 1.249 1_554 S
O18 C0 1.254 1_556 S
O18 Zn15 2.025 1_665 S
H19 C11 0.952 . S
H20 C2 0.952 . S
H21 C10 0.948 . S
O22 Zn7 2.034 1_655 S
O22 C17 1.246 . S
O23 Zn15 2.024 1_655 S
O23 C17 1.249 1_556 S
H24 C6 0.948 . S
O25 Zn15 2.039 . S
O25 C29 1.251 1_556 S
O26 Zn7 2.025 . S
O26 C29 1.254 . S
O27 C8 1.246 1_556 S
O27 Zn15 2.034 1_565 S
O28 Zn7 2.024 1_565 S
O28 C8 1.249 . S
C29 O25 1.251 1_554 S
C29 O26 1.254 . S
H30 C3 0.949 . S
H31 C5 0.950 . S
H32 C12 0.949 . S
H33 C14 0.950 . S
C34 O50 1.251 . S
C34 O52 1.254 . S
N35 C36 1.333 . S
N35 C40 1.307 . S
N35 Zn41 2.020 . S
C36 N35 1.333 . S
C36 C37 1.379 . S
C36 H54 0.952 . S
C37 C36 1.379 . S
C37 C38 1.390 . S
C37 H64 0.949 . S
C38 C37 1.390 . S
C38 C39 1.357 . S
C39 C38 1.357 . S
C39 C40 1.370 . S
C39 H65 0.950 . S
C40 N35 1.307 . S
C40 C39 1.370 . S
C40 H58 0.948 . S
Zn41 N35 2.020 . S
Zn41 O50 2.039 . S
Zn41 O56 2.034 . S
Zn41 O60 2.025 . S
Zn41 O62 2.024 . S
C42 O61 1.246 . S
C42 O62 1.249 . S
N43 C44 1.307 . S
N43 C45 1.333 . S
N43 Zn49 2.020 . S
C44 N43 1.307 . S
C44 C48 1.370 . S
C44 H55 0.948 . S
C45 N43 1.333 . S
C45 C46 1.379 . S
C45 H53 0.952 . S
C46 C45 1.379 . S
C46 C47 1.390 . S
C46 H66 0.949 . S
C47 C46 1.390 . S
C47 C48 1.357 . S
C48 C44 1.370 . S
C48 C47 1.357 . S
C48 H67 0.950 . S
Zn49 N43 2.020 . S
Zn49 O52 2.025 . S
Zn49 O57 2.024 . S
Zn49 O59 2.039 . S
Zn49 O61 2.034 . S
O50 C34 1.251 . S
O50 Zn41 2.039 . S
C51 O56 1.246 . S
C51 O57 1.249 . S
O52 C34 1.254 . S
O52 Zn49 2.025 . S
H53 C45 0.952 . S
H54 C36 0.952 . S
H55 C44 0.948 . S
O56 Zn41 2.034 . S
O56 C51 1.246 . S
O57 Zn49 2.024 . S
O57 C51 1.249 . S
H58 C40 0.948 . S
O59 Zn49 2.039 . S
O59 C63 1.251 . S
O60 Zn41 2.025 . S
O60 C63 1.254 . S
O61 C42 1.246 . S
O61 Zn49 2.034 . S
O62 Zn41 2.024 . S
O62 C42 1.249 . S
C63 O59 1.251 . S
C63 O60 1.254 . S
H64 C37 0.949 . S
H65 C39 0.950 . S
H66 C46 0.949 . S
H67 C48 0.950 . S
C68 C69 1.264 . S
C68 C73 1.479 . S
C68 C78 1.465 . S
C69 C68 1.264 . S
C69 C71 1.339 . S
C69 H96 0.931 . S
C70 C71 1.395 . S
C70 C72 1.320 . S
C71 C69 1.339 . S
C71 C70 1.395 . S
C71 H97 0.929 . S
C72 C70 1.320 . S
C72 C73 1.405 . S
C72 H98 0.930 . S
C73 C68 1.479 . S
C73 C72 1.405 . S
C73 H99 0.931 . S
U74 O75 2.454 1_545 S
U74 O76 2.458 1_545 S
U74 C77 2.984 1_545 S
U74 C78 2.847 1_455 S
U74 C91 2.882 . S
U74 O92 2.441 1_455 S
U74 O93 2.420 1_455 S
U74 O94 2.455 1_545 S
U74 O95 2.449 . S
O75 U74 2.454 1_565 S
O75 C77 1.353 . S
O76 U74 2.458 1_565 S
O76 C77 1.286 . S
C77 U74 2.984 1_565 S
C77 O75 1.353 . S
C77 O76 1.286 . S
C77 C79 1.363 . S
C78 C68 1.465 . S
C78 U74 2.847 1_655 S
C78 O92 1.249 . S
C78 O93 1.202 . S
C79 C77 1.363 . S
C79 C81 1.408 . S
C79 C84 1.342 . S
C80 C81 1.310 . S
C80 C83 1.461 . S
C80 H100 0.932 . S
C81 C79 1.408 . S
C81 C80 1.310 . S
C81 H101 0.930 . S
C82 C83 1.474 . S
C82 C84 1.285 . S
C82 H102 0.929 . S
C83 C80 1.461 . S
C83 C82 1.474 . S
C84 C79 1.342 . S
C84 C82 1.285 . S
C84 H103 0.930 . S
C85 C88 1.424 1_455 S
C85 C90 1.245 1_545 S
C85 C91 1.428 . S
C86 C89 1.260 1_565 S
C86 C90 1.477 . S
C86 H104 0.932 . S
C87 C88 1.384 . S
C87 C89 1.479 1_655 S
C87 H105 0.929 . S
C88 C85 1.424 1_655 S
C88 C87 1.384 . S
C88 H106 0.928 . S
C89 C86 1.260 1_545 S
C89 C87 1.479 1_455 S
C90 C85 1.245 1_565 S
C90 C86 1.477 . S
C90 H107 0.932 . S
C91 U74 2.882 . S
C91 C85 1.428 . S
C91 O94 1.301 1_545 S
C91 O95 1.282 . S
O92 U74 2.441 1_655 S
O92 C78 1.249 . S
O93 U74 2.420 1_655 S
O93 C78 1.202 . S
O94 U74 2.455 1_565 S
O94 C91 1.301 1_565 S
O95 U74 2.449 . S
O95 C91 1.282 . S
H96 C69 0.931 . S
H97 C71 0.929 . S
H98 C72 0.930 . S
H99 C73 0.931 . S
H100 C80 0.932 . S
H101 C81 0.930 . S
H102 C82 0.929 . S
H103 C84 0.930 . S
H104 C86 0.932 . S
H105 C87 0.929 . S
H106 C88 0.928 . S
H107 C90 0.932 . S
C108 C109 1.264 . S
C108 C113 1.479 . S
C108 C118 1.465 . S
C109 C108 1.264 . S
C109 C111 1.339 . S
C109 H136 0.931 . S
C110 C111 1.395 . S
C110 C112 1.320 . S
C111 C109 1.339 . S
C111 C110 1.395 . S
C111 H137 0.929 . S
C112 C110 1.320 . S
C112 C113 1.405 . S
C112 H138 0.930 . S
C113 C108 1.479 . S
C113 C112 1.405 . S
C113 H139 0.931 . S
U114 O115 2.454 1_565 S
U114 O116 2.458 1_565 S
U114 C117 2.984 1_565 S
U114 C118 2.847 1_455 S
U114 C131 2.882 . S
U114 O132 2.441 . S
U114 O133 2.420 1_455 S
U114 O134 2.455 1_565 S
U114 O135 2.449 . S
O115 U114 2.454 1_545 S
O115 C117 1.353 . S
O116 U114 2.458 1_545 S
O116 C117 1.286 . S
C117 U114 2.984 1_545 S
C117 O115 1.353 . S
C117 O116 1.286 . S
C117 C119 1.363 . S
C118 C108 1.465 . S
C118 U114 2.847 1_655 S
C118 O132 1.249 1_655 S
C118 O133 1.202 . S
C119 C117 1.363 . S
C119 C121 1.408 . S
C119 C124 1.342 . S
C120 C121 1.310 . S
C120 C123 1.461 . S
C120 H140 0.932 . S
C121 C119 1.408 . S
C121 C120 1.310 . S
C121 H141 0.930 . S
C122 C123 1.474 . S
C122 C124 1.285 . S
C122 H142 0.929 . S
C123 C120 1.461 . S
C123 C122 1.474 . S
C124 C119 1.342 . S
C124 C122 1.285 . S
C124 H143 0.930 . S
C125 C128 1.424 . S
C125 C130 1.245 1_565 S
C125 C131 1.428 . S
C126 C129 1.260 . S
C126 C130 1.477 . S
C126 H144 0.932 . S
C127 C128 1.384 1_655 S
C127 C129 1.479 1_665 S
C127 H145 0.929 . S
C128 C125 1.424 . S
C128 C127 1.384 1_455 S
C128 H146 0.928 1_455 S
C129 C126 1.260 . S
C129 C127 1.479 1_445 S
C130 C125 1.245 1_545 S
C130 C126 1.477 . S
C130 H147 0.932 . S
C131 U114 2.882 . S
C131 C125 1.428 . S
C131 O134 1.301 1_565 S
C131 O135 1.282 . S
O132 U114 2.441 . S
O132 C118 1.249 1_455 S
O133 U114 2.420 1_655 S
O133 C118 1.202 . S
O134 U114 2.455 1_545 S
O134 C131 1.301 1_545 S
O135 U114 2.449 . S
O135 C131 1.282 . S
H136 C109 0.931 . S
H137 C111 0.929 . S
H138 C112 0.930 . S
H139 C113 0.931 . S
H140 C120 0.932 . S
H141 C121 0.930 . S
H142 C122 0.929 . S
H143 C124 0.930 . S
H144 C126 0.932 . S
H145 C127 0.929 . S
H146 C128 0.928 1_655 S
H147 C130 0.932 . S
C148 C149 1.264 . S
C148 C153 1.479 1_556 S
C148 C158 1.465 . S
C149 C148 1.264 . S
C149 C151 1.339 . S
C149 H176 0.931 . S
C150 C151 1.395 1_554 S
C150 C152 1.320 . S
C151 C149 1.339 . S
C151 C150 1.395 1_556 S
C151 H177 0.929 . S
C152 C150 1.320 . S
C152 C153 1.405 . S
C152 H178 0.930 . S
C153 C148 1.479 1_554 S
C153 C152 1.405 . S
C153 H179 0.931 . S
U154 O155 2.454 . S
U154 O156 2.458 . S
U154 C157 2.984 . S
U154 C158 2.847 . S
U154 C171 2.882 . S
U154 O172 2.441 . S
U154 O173 2.420 . S
U154 O174 2.455 . S
U154 O175 2.449 . S
O155 U154 2.454 . S
O155 C157 1.353 . S
O156 U154 2.458 . S
O156 C157 1.286 . S
C157 U154 2.984 . S
C157 O155 1.353 . S
C157 O156 1.286 . S
C157 C159 1.363 . S
C158 C148 1.465 . S
C158 U154 2.847 . S
C158 O172 1.249 . S
C158 O173 1.202 . S
C159 C157 1.363 . S
C159 C161 1.408 1_556 S
C159 C164 1.342 . S
C160 C161 1.310 . S
C160 C163 1.461 . S
C160 H180 0.932 . S
C161 C159 1.408 1_554 S
C161 C160 1.310 . S
C161 H181 0.930 . S
C162 C163 1.474 1_556 S
C162 C164 1.285 . S
C162 H182 0.929 . S
C163 C160 1.461 . S
C163 C162 1.474 1_554 S
C164 C159 1.342 . S
C164 C162 1.285 . S
C164 H183 0.930 . S
C165 C168 1.424 . S
C165 C170 1.245 . S
C165 C171 1.428 . S
C166 C169 1.260 . S
C166 C170 1.477 . S
C166 H184 0.932 . S
C167 C168 1.384 . S
C167 C169 1.479 . S
C167 H185 0.929 . S
C168 C165 1.424 . S
C168 C167 1.384 . S
C168 H186 0.928 . S
C169 C166 1.260 . S
C169 C167 1.479 . S
C170 C165 1.245 . S
C170 C166 1.477 . S
C170 H187 0.932 . S
C171 U154 2.882 . S
C171 C165 1.428 . S
C171 O174 1.301 . S
C171 O175 1.282 . S
O172 U154 2.441 . S
O172 C158 1.249 . S
O173 U154 2.420 . S
O173 C158 1.202 . S
O174 U154 2.455 . S
O174 C171 1.301 . S
O175 U154 2.449 . S
O175 C171 1.282 . S
H176 C149 0.931 . S
H177 C151 0.929 . S
H178 C152 0.930 . S
H179 C153 0.931 . S
H180 C160 0.932 . S
H181 C161 0.930 . S
H182 C162 0.929 . S
H183 C164 0.930 . S
H184 C166 0.932 . S
H185 C167 0.929 . S
H186 C168 0.928 . S
H187 C170 0.932 . S
C188 C189 1.264 . S
C188 C193 1.479 1_554 S
C188 C198 1.465 . S
C189 C188 1.264 . S
C189 C191 1.339 . S
C189 H216 0.931 . S
C190 C191 1.395 . S
C190 C192 1.320 1_554 S
C191 C189 1.339 . S
C191 C190 1.395 . S
C191 H217 0.929 . S
C192 C190 1.320 1_556 S
C192 C193 1.405 . S
C192 H218 0.930 . S
C193 C188 1.479 1_556 S
C193 C192 1.405 . S
C193 H219 0.931 . S
U194 O195 2.454 . S
U194 O196 2.458 . S
U194 C197 2.984 . S
U194 C198 2.847 . S
U194 C211 2.882 . S
U194 O212 2.441 . S
U194 O213 2.420 . S
U194 O214 2.455 . S
U194 O215 2.449 . S
O195 U194 2.454 . S
O195 C197 1.353 . S
O196 U194 2.458 . S
O196 C197 1.286 . S
C197 U194 2.984 . S
C197 O195 1.353 . S
C197 O196 1.286 . S
C197 C199 1.363 . S
C198 C188 1.465 . S
C198 U194 2.847 . S
C198 O212 1.249 . S
C198 O213 1.202 . S
C199 C197 1.363 . S
C199 C201 1.408 . S
C199 C204 1.342 . S
C200 C201 1.310 1_556 S
C200 C203 1.461 1_556 S
C200 H220 0.932 . S
C201 C199 1.408 . S
C201 C200 1.310 1_554 S
C201 H221 0.930 1_554 S
C202 C203 1.474 . S
C202 C204 1.285 . S
C202 H222 0.929 . S
C203 C200 1.461 1_554 S
C203 C202 1.474 . S
C204 C199 1.342 . S
C204 C202 1.285 . S
C204 H223 0.930 . S
C205 C208 1.424 . S
C205 C210 1.245 . S
C205 C211 1.428 . S
C206 C209 1.260 . S
C206 C210 1.477 . S
C206 H224 0.932 . S
C207 C208 1.384 . S
C207 C209 1.479 . S
C207 H225 0.929 . S
C208 C205 1.424 . S
C208 C207 1.384 . S
C208 H226 0.928 . S
C209 C206 1.260 . S
C209 C207 1.479 . S
C210 C205 1.245 . S
C210 C206 1.477 . S
C210 H227 0.932 . S
C211 U194 2.882 . S
C211 C205 1.428 . S
C211 O214 1.301 . S
C211 O215 1.282 . S
O212 U194 2.441 . S
O212 C198 1.249 . S
O213 U194 2.420 . S
O213 C198 1.202 . S
O214 U194 2.455 . S
O214 C211 1.301 . S
O215 U194 2.449 . S
O215 C211 1.282 . S
H216 C189 0.931 . S
H217 C191 0.929 . S
H218 C192 0.930 . S
H219 C193 0.931 . S
H220 C200 0.932 . S
H221 C201 0.930 1_556 S
H222 C202 0.929 . S
H223 C204 0.930 . S
H224 C206 0.932 . S
H225 C207 0.929 . S
H226 C208 0.928 . S
H227 C210 0.932 . S
C228 C229 1.391 1_556 S
C228 C230 1.394 . S
C228 H244 0.931 . S
C229 C228 1.391 1_554 S
C229 C233 1.376 . S
C230 C228 1.394 . S
C230 C231 1.369 . S
C230 C234 1.531 . S
C231 C230 1.369 . S
C231 C232 1.410 1_556 S
C231 C239 1.503 . S
C232 C231 1.410 1_554 S
C232 C233 1.392 . S
C232 C235 1.511 . S
C233 C229 1.376 . S
C233 C232 1.392 . S
C233 H245 0.929 . S
C234 C230 1.531 . S
C234 H246 0.960 . S
C234 H247 0.962 . S
C234 H248 0.960 . S
C235 C232 1.511 . S
C235 H249 0.961 . S
C235 H250 0.961 . S
C235 H251 0.961 . S
C236 C237 1.370 1_554 S
C236 C238 1.363 . S
C236 H252 0.931 . S
C237 C236 1.370 1_556 S
C237 C241 1.408 . S
C238 C236 1.363 . S
C238 C239 1.370 1_554 S
C238 C242 1.524 . S
C239 C231 1.503 . S
C239 C238 1.370 1_556 S
C239 C240 1.403 . S
C240 C239 1.403 . S
C240 C241 1.404 . S
C240 C243 1.539 . S
C241 C237 1.408 . S
C241 C240 1.404 . S
C241 H253 0.930 . S
C242 C238 1.524 . S
C242 H254 0.956 1_554 S
C242 H255 0.961 . S
C242 H256 0.961 . S
C243 C240 1.539 . S
C243 H257 0.958 . S
C243 H258 0.961 . S
C243 H259 0.960 . S
H244 C228 0.931 . S
H245 C233 0.929 . S
H246 C234 0.960 . S
H247 C234 0.962 . S
H248 C234 0.960 . S
H249 C235 0.961 . S
H250 C235 0.961 . S
H251 C235 0.961 . S
H252 C236 0.931 . S
H253 C241 0.930 . S
H254 C242 0.956 1_556 S
H255 C242 0.961 . S
H256 C242 0.961 . S
H257 C243 0.958 . S
H258 C243 0.961 . S
H259 C243 0.960 . S
C260 C261 1.390 1_556 S
C260 C262 1.394 . S
C260 H276 0.931 . S
C261 C260 1.390 1_554 S
C261 C265 1.377 . S
C262 C260 1.394 . S
C262 C263 1.369 . S
C262 C266 1.531 . S
C263 C262 1.369 . S
C263 C264 1.410 . S
C263 C271 1.503 1_556 S
C264 C263 1.410 . S
C264 C265 1.390 1_556 S
C264 C267 1.512 . S
C265 C261 1.377 . S
C265 C264 1.390 1_554 S
C265 H277 0.930 . S
C266 C262 1.531 . S
C266 H278 0.960 . S
C266 H279 0.962 1_556 S
C266 H280 0.960 . S
C267 C264 1.512 . S
C267 H281 0.958 1_556 S
C267 H282 0.959 1_556 S
C267 H283 0.965 . S
C268 C269 1.370 . S
C268 C270 1.363 . S
C268 H284 0.931 . S
C269 C268 1.370 . S
C269 C273 1.408 1_554 S
C270 C268 1.363 . S
C270 C271 1.375 . S
C270 C274 1.524 . S
C271 C263 1.503 1_554 S
C271 C270 1.375 . S
C271 C272 1.399 1_554 S
C272 C271 1.399 1_556 S
C272 C273 1.404 . S
C272 C275 1.539 . S
C273 C269 1.408 1_556 S
C273 C272 1.404 . S
C273 H285 0.930 . S
C274 C270 1.524 . S
C274 H286 0.956 . S
C274 H287 0.961 . S
C274 H288 0.961 . S
C275 C272 1.539 . S
C275 H289 0.958 . S
C275 H290 0.961 . S
C275 H291 0.960 . S
H276 C260 0.931 . S
H277 C265 0.930 . S
H278 C266 0.960 . S
H279 C266 0.962 1_554 S
H280 C266 0.960 . S
H281 C267 0.958 1_554 S
H282 C267 0.959 1_554 S
H283 C267 0.965 . S
H284 C268 0.931 . S
H285 C273 0.930 . S
H286 C274 0.956 . S
H287 C274 0.961 . S
H288 C274 0.961 . S
H289 C275 0.958 . S
H290 C275 0.961 . S
H291 C275 0.960 . S
C292 C293 1.391 1_556 S
C292 C294 1.394 . S
C292 H308 0.931 . S
C293 C292 1.391 1_554 S
C293 C297 1.376 . S
C294 C292 1.394 . S
C294 C295 1.369 . S
C294 C298 1.531 . S
C295 C294 1.369 . S
C295 C296 1.410 1_556 S
C295 C303 1.503 . S
C296 C295 1.410 1_554 S
C296 C297 1.392 . S
C296 C299 1.511 . S
C297 C293 1.376 . S
C297 C296 1.392 . S
C297 H309 0.929 . S
C298 C294 1.531 . S
C298 H310 0.960 . S
C298 H311 0.962 . S
C298 H312 0.960 . S
C299 C296 1.511 . S
C299 H313 0.961 . S
C299 H314 0.961 . S
C299 H315 0.961 . S
C300 C301 1.370 1_554 S
C300 C302 1.363 . S
C300 H316 0.931 . S
C301 C300 1.370 1_556 S
C301 C305 1.408 . S
C302 C300 1.363 . S
C302 C303 1.370 1_554 S
C302 C306 1.524 . S
C303 C295 1.503 . S
C303 C302 1.370 1_556 S
C303 C304 1.403 . S
C304 C303 1.403 . S
C304 C305 1.404 . S
C304 C307 1.539 . S
C305 C301 1.408 . S
C305 C304 1.404 . S
C305 H317 0.930 . S
C306 C302 1.524 . S
C306 H318 0.956 . S
C306 H319 0.961 . S
C306 H320 0.961 . S
C307 C304 1.539 . S
C307 H321 0.958 . S
C307 H322 0.961 . S
C307 H323 0.960 . S
H308 C292 0.931 . S
H309 C297 0.929 . S
H310 C298 0.960 . S
H311 C298 0.962 . S
H312 C298 0.960 . S
H313 C299 0.961 . S
H314 C299 0.961 . S
H315 C299 0.961 . S
H316 C300 0.931 . S
H317 C305 0.930 . S
H318 C306 0.956 . S
H319 C306 0.961 . S
H320 C306 0.961 . S
H321 C307 0.958 . S
H322 C307 0.961 . S
H323 C307 0.960 . S
C324 C325 1.391 1_556 S
C324 C326 1.394 . S
C324 H340 0.931 . S
C325 C324 1.391 1_554 S
C325 C329 1.376 . S
C326 C324 1.394 . S
C326 C327 1.369 1_556 S
C326 C330 1.531 . S
C327 C326 1.369 1_554 S
C327 C328 1.410 . S
C327 C335 1.503 . S
C328 C327 1.410 . S
C328 C329 1.392 . S
C328 C331 1.511 . S
C329 C325 1.376 . S
C329 C328 1.392 . S
C329 H341 0.929 . S
C330 C326 1.531 . S
C330 H342 0.960 . S
C330 H343 0.962 . S
C330 H344 0.960 . S
C331 C328 1.511 . S
C331 H345 0.961 . S
C331 H346 0.961 . S
C331 H347 0.961 . S
C332 C333 1.370 . S
C332 C334 1.363 . S
C332 H348 0.931 . S
C333 C332 1.370 . S
C333 C337 1.408 . S
C334 C332 1.363 . S
C334 C335 1.370 . S
C334 C338 1.524 . S
C335 C327 1.503 . S
C335 C334 1.370 . S
C335 C336 1.403 . S
C336 C335 1.403 . S
C336 C337 1.404 . S
C336 C339 1.539 1_554 S
C337 C333 1.408 . S
C337 C336 1.404 . S
C337 H349 0.930 . S
C338 C334 1.524 . S
C338 H350 0.922 1_554 S
C338 H351 0.961 . S
C338 H352 0.961 . S
C339 C336 1.539 1_556 S
C339 H353 0.958 . S
C339 H354 0.961 1_556 S
C339 H355 0.960 1_556 S
H340 C324 0.931 . S
H341 C329 0.929 . S
H342 C330 0.960 . S
H343 C330 0.962 . S
H344 C330 0.960 . S
H345 C331 0.961 . S
H346 C331 0.961 . S
H347 C331 0.961 . S
H348 C332 0.931 . S
H349 C337 0.930 . S
H350 C338 0.922 1_556 S
H351 C338 0.961 . S
H352 C338 0.961 . S
H353 C339 0.958 . S
H354 C339 0.961 1_554 S
H355 C339 0.960 1_554 S
C356 C357 1.391 . S
C356 C358 1.394 . S
C356 H372 0.931 . S
C357 C356 1.391 . S
C357 C361 1.376 . S
C358 C356 1.394 . S
C358 C359 1.369 . S
C358 C362 1.531 . S
C359 C358 1.369 . S
C359 C360 1.410 . S
C359 C367 1.503 . S
C360 C359 1.410 . S
C360 C361 1.392 . S
C360 C363 1.511 . S
C361 C357 1.376 . S
C361 C360 1.392 . S
C361 H373 0.929 . S
C362 C358 1.531 . S
C362 H374 0.960 . S
C362 H375 0.962 . S
C362 H376 0.960 . S
C363 C360 1.511 . S
C363 H377 0.961 . S
C363 H378 0.961 . S
C363 H379 0.961 . S
C364 C365 1.370 . S
C364 C366 1.363 . S
C364 H380 0.931 . S
C365 C364 1.370 . S
C365 C369 1.408 . S
C366 C364 1.363 . S
C366 C367 1.370 . S
C366 C370 1.524 . S
C367 C359 1.503 . S
C367 C366 1.370 . S
C367 C368 1.403 . S
C368 C367 1.403 . S
C368 C369 1.404 . S
C368 C371 1.539 . S
C369 C365 1.408 . S
C369 C368 1.404 . S
C369 H381 0.930 . S
C370 C366 1.524 . S
C370 H382 0.956 . S
C370 H383 0.961 . S
C370 H384 0.961 . S
C371 C368 1.539 . S
C371 H385 0.958 . S
C371 H386 0.961 . S
C371 H387 0.960 . S
H372 C356 0.931 . S
H373 C361 0.929 . S
H374 C362 0.960 . S
H375 C362 0.962 . S
H376 C362 0.960 . S
H377 C363 0.961 . S
H378 C363 0.961 . S
H379 C363 0.961 . S
H380 C364 0.931 . S
H381 C369 0.930 . S
H382 C370 0.956 . S
H383 C370 0.961 . S
H384 C370 0.961 . S
H385 C371 0.958 . S
H386 C371 0.961 . S
H387 C371 0.960 . S
C388 C389 1.391 . S
C388 C390 1.394 . S
C388 H404 0.931 . S
C389 C388 1.391 . S
C389 C393 1.376 . S
C390 C388 1.394 . S
C390 C391 1.369 . S
C390 C394 1.531 . S
C391 C390 1.369 . S
C391 C392 1.410 . S
C391 C399 1.503 . S
C392 C391 1.410 . S
C392 C393 1.392 . S
C392 C395 1.511 . S
C393 C389 1.376 . S
C393 C392 1.392 . S
C393 H405 0.929 . S
C394 C390 1.531 . S
C394 H406 0.960 . S
C394 H407 0.962 . S
C394 H408 0.960 . S
C395 C392 1.511 . S
C395 H409 0.961 . S
C395 H410 0.961 . S
C395 H411 0.961 . S
C396 C397 1.370 . S
C396 C398 1.363 . S
C396 H412 0.931 . S
C397 C396 1.370 . S
C397 C401 1.408 . S
C398 C396 1.363 . S
C398 C399 1.370 . S
C398 C402 1.524 . S
C399 C391 1.503 . S
C399 C398 1.370 . S
C399 C400 1.403 . S
C400 C399 1.403 . S
C400 C401 1.404 . S
C400 C403 1.539 . S
C401 C397 1.408 . S
C401 C400 1.404 . S
C401 H413 0.930 . S
C402 C398 1.524 . S
C402 H414 0.956 . S
C402 H415 0.961 . S
C402 H416 0.961 . S
C403 C400 1.539 . S
C403 H417 0.958 . S
C403 H418 0.961 . S
C403 H419 0.960 . S
H404 C388 0.931 . S
H405 C393 0.929 . S
H406 C394 0.960 . S
H407 C394 0.962 . S
H408 C394 0.960 . S
H409 C395 0.961 . S
H410 C395 0.961 . S
H411 C395 0.961 . S
H412 C396 0.931 . S
H413 C401 0.930 . S
H414 C402 0.956 . S
H415 C402 0.961 . S
H416 C402 0.961 . S
H417 C403 0.958 . S
H418 C403 0.961 . S
H419 C403 0.960 . S
C420 C421 1.391 . S
C420 C422 1.394 . S
C420 H436 0.931 . S
C421 C420 1.391 . S
C421 C425 1.376 . S
C422 C420 1.394 . S
C422 C423 1.369 . S
C422 C426 1.531 . S
C423 C422 1.369 . S
C423 C424 1.410 . S
C423 C431 1.503 . S
C424 C423 1.410 . S
C424 C425 1.392 . S
C424 C427 1.511 . S
C425 C421 1.376 . S
C425 C424 1.392 . S
C425 H437 0.929 . S
C426 C422 1.531 . S
C426 H438 0.960 . S
C426 H439 0.962 . S
C426 H440 0.960 . S
C427 C424 1.511 . S
C427 H441 0.961 . S
C427 H442 0.961 . S
C427 H443 0.961 . S
C428 C429 1.370 . S
C428 C430 1.363 . S
C428 H444 0.931 . S
C429 C428 1.370 . S
C429 C433 1.408 . S
C430 C428 1.363 . S
C430 C431 1.370 . S
C430 C434 1.524 . S
C431 C423 1.503 . S
C431 C430 1.370 . S
C431 C432 1.403 . S
C432 C431 1.403 . S
C432 C433 1.404 . S
C432 C435 1.539 . S
C433 C429 1.408 . S
C433 C432 1.404 . S
C433 H445 0.930 . S
C434 C430 1.524 . S
C434 H446 0.956 . S
C434 H447 0.961 . S
C434 H448 0.961 . S
C435 C432 1.539 . S
C435 H449 0.958 . S
C435 H450 0.961 . S
C435 H451 0.960 . S
H436 C420 0.931 . S
H437 C425 0.929 . S
H438 C426 0.960 . S
H439 C426 0.962 . S
H440 C426 0.960 . S
H441 C427 0.961 . S
H442 C427 0.961 . S
H443 C427 0.961 . S
H444 C428 0.931 . S
H445 C433 0.930 . S
H446 C434 0.956 . S
H447 C434 0.961 . S
H448 C434 0.961 . S
H449 C435 0.958 . S
H450 C435 0.961 . S
H451 C435 0.960 . S
C452 C453 1.391 . S
C452 C454 1.394 . S
C452 H468 0.931 . S
C453 C452 1.391 . S
C453 C457 1.376 . S
C454 C452 1.394 . S
C454 C455 1.369 . S
C454 C458 1.531 . S
C455 C454 1.369 . S
C455 C456 1.410 . S
C455 C463 1.503 . S
C456 C455 1.410 . S
C456 C457 1.392 . S
C456 C459 1.511 . S
C457 C453 1.376 . S
C457 C456 1.392 . S
C457 H469 0.929 . S
C458 C454 1.531 . S
C458 H470 0.960 . S
C458 H471 0.962 . S
C458 H472 0.960 . S
C459 C456 1.511 . S
C459 H473 0.961 . S
C459 H474 0.961 . S
C459 H475 0.961 . S
C460 C461 1.370 . S
C460 C462 1.363 . S
C460 H476 0.931 . S
C461 C460 1.370 . S
C461 C465 1.408 . S
C462 C460 1.363 . S
C462 C463 1.370 . S
C462 C466 1.524 . S
C463 C455 1.503 . S
C463 C462 1.370 . S
C463 C464 1.403 . S
C464 C463 1.403 . S
C464 C465 1.404 . S
C464 C467 1.539 . S
C465 C461 1.408 . S
C465 C464 1.404 . S
C465 H477 0.930 . S
C466 C462 1.524 . S
C466 H478 0.956 . S
C466 H479 0.961 . S
C466 H480 0.961 . S
C467 C464 1.539 . S
C467 H481 0.958 . S
C467 H482 0.961 . S
C467 H483 0.960 . S
H468 C452 0.931 . S
H469 C457 0.929 . S
H470 C458 0.960 . S
H471 C458 0.962 . S
H472 C458 0.960 . S
H473 C459 0.961 . S
H474 C459 0.961 . S
H475 C459 0.961 . S
H476 C460 0.931 . S
H477 C465 0.930 . S
H478 C466 0.956 . S
H479 C466 0.961 . S
H480 C466 0.961 . S
H481 C467 0.958 . S
H482 C467 0.961 . S
H483 C467 0.960 . S
C484 C485 1.391 1_655 S
C484 C486 1.393 1_545 S
C484 H500 0.931 . S
C485 C484 1.391 1_455 S
C485 C489 1.374 1_545 S
C486 C484 1.393 1_565 S
C486 C487 1.369 1_655 S
C486 C490 1.531 . S
C487 C486 1.369 1_455 S
C487 C488 1.410 . S
C487 C495 1.504 . S
C488 C487 1.410 . S
C488 C489 1.392 . S
C488 C491 1.511 . S
C489 C485 1.374 1_565 S
C489 C488 1.392 . S
C489 H501 0.929 . S
C490 C486 1.531 . S
C490 H502 0.960 . S
C490 H503 0.962 1_565 S
C490 H504 0.960 . S
C491 C488 1.511 . S
C491 H505 0.956 1_565 S
C491 H506 0.961 1_565 S
C491 H507 0.961 . S
C492 C493 1.370 1_455 S
C492 C494 1.364 . S
C492 H508 0.931 . S
C493 C492 1.370 1_655 S
C493 C497 1.408 1_545 S
C494 C492 1.364 . S
C494 C495 1.371 1_545 S
C494 C498 1.524 . S
C495 C487 1.504 . S
C495 C494 1.371 1_565 S
C495 C496 1.402 1_455 S
C496 C495 1.402 1_655 S
C496 C497 1.404 . S
C496 C499 1.539 . S
C497 C493 1.408 1_565 S
C497 C496 1.404 . S
C497 H509 0.930 . S
C498 C494 1.524 . S
C498 H510 0.956 1_455 S
C498 H511 0.961 . S
C498 H512 0.961 . S
C499 C496 1.539 . S
C499 H513 0.958 . S
C499 H514 0.961 1_655 S
C499 H515 0.960 1_655 S
H500 C484 0.931 . S
H501 C489 0.929 . S
H502 C490 0.960 . S
H503 C490 0.962 1_545 S
H504 C490 0.960 . S
H505 C491 0.956 1_545 S
H506 C491 0.961 1_545 S
H507 C491 0.961 . S
H508 C492 0.931 . S
H509 C497 0.930 . S
H510 C498 0.956 1_655 S
H511 C498 0.961 . S
H512 C498 0.961 . S
H513 C499 0.958 . S
H514 C499 0.961 1_455 S
H515 C499 0.960 1_455 S
C516 C517 1.391 1_655 S
C516 C518 1.394 . S
C516 H532 0.931 . S
C517 C516 1.391 1_455 S
C517 C521 1.376 1_545 S
C518 C516 1.394 . S
C518 C519 1.369 1_655 S
C518 C522 1.531 . S
C519 C518 1.369 1_455 S
C519 C520 1.410 1_545 S
C519 C527 1.503 . S
C520 C519 1.410 1_565 S
C520 C521 1.392 . S
C520 C523 1.511 . S
C521 C517 1.376 1_565 S
C521 C520 1.392 . S
C521 H533 0.929 . S
C522 C518 1.531 . S
C522 H534 0.960 . S
C522 H535 0.962 . S
C522 H536 0.960 . S
C523 C520 1.511 . S
C523 H537 0.961 . S
C523 H538 0.961 . S
C523 H539 0.961 . S
C524 C525 1.370 1_665 S
C524 C526 1.363 . S
C524 H540 0.931 . S
C525 C524 1.370 1_445 S
C525 C529 1.408 . S
C526 C524 1.363 . S
C526 C527 1.370 1_665 S
C526 C530 1.524 . S
C527 C519 1.503 . S
C527 C526 1.370 1_445 S
C527 C528 1.403 . S
C528 C527 1.403 . S
C528 C529 1.404 . S
C528 C531 1.539 . S
C529 C525 1.408 . S
C529 C528 1.404 . S
C529 H541 0.930 . S
C530 C526 1.524 . S
C530 H542 0.956 . S
C530 H543 0.961 . S
C530 H544 0.961 . S
C531 C528 1.539 . S
C531 H545 0.958 . S
C531 H546 0.961 . S
C531 H547 0.960 . S
H532 C516 0.931 . S
H533 C521 0.929 . S
H534 C522 0.960 . S
H535 C522 0.962 . S
H536 C522 0.960 . S
H537 C523 0.961 . S
H538 C523 0.961 . S
H539 C523 0.961 . S
H540 C524 0.931 . S
H541 C529 0.930 . S
H542 C530 0.956 . S
H543 C530 0.961 . S
H544 C530 0.961 . S
H545 C531 0.958 . S
H546 C531 0.961 . S
H547 C531 0.960 . S
C548 C549 1.391 . S
C548 C550 1.394 . S
C548 H564 0.931 . S
C549 C548 1.391 . S
C549 C553 1.376 . S
C550 C548 1.394 . S
C550 C551 1.369 . S
C550 C554 1.531 . S
C551 C550 1.369 . S
C551 C552 1.410 . S
C551 C559 1.503 . S
C552 C551 1.410 . S
C552 C553 1.392 . S
C552 C555 1.511 . S
C553 C549 1.376 . S
C553 C552 1.392 . S
C553 H565 0.929 . S
C554 C550 1.531 . S
C554 H566 0.960 . S
C554 H567 0.962 . S
C554 H568 0.960 . S
C555 C552 1.511 . S
C555 H569 0.961 . S
C555 H570 0.961 . S
C555 H571 0.961 . S
C556 C557 1.370 . S
C556 C558 1.363 . S
C556 H572 0.931 . S
C557 C556 1.370 . S
C557 C561 1.408 . S
C558 C556 1.363 . S
C558 C559 1.370 . S
C558 C562 1.524 . S
C559 C551 1.503 . S
C559 C558 1.370 . S
C559 C560 1.403 . S
C560 C559 1.403 . S
C560 C561 1.404 . S
C560 C563 1.539 . S
C561 C557 1.408 . S
C561 C560 1.404 . S
C561 H573 0.930 . S
C562 C558 1.524 . S
C562 H574 0.956 . S
C562 H575 0.961 . S
C562 H576 0.961 . S
C563 C560 1.539 . S
C563 H577 0.958 . S
C563 H578 0.961 . S
C563 H579 0.960 . S
H564 C548 0.931 . S
H565 C553 0.929 . S
H566 C554 0.960 . S
H567 C554 0.962 . S
H568 C554 0.960 . S
H569 C555 0.961 . S
H570 C555 0.961 . S
H571 C555 0.961 . S
H572 C556 0.931 . S
H573 C561 0.930 . S
H574 C562 0.956 . S
H575 C562 0.961 . S
H576 C562 0.961 . S
H577 C563 0.958 . S
H578 C563 0.961 . S
H579 C563 0.960 . S
C580 C581 1.391 . S
C580 C582 1.394 . S
C580 H596 0.931 . S
C581 C580 1.391 . S
C581 C585 1.376 . S
C582 C580 1.394 . S
C582 C583 1.369 . S
C582 C586 1.531 . S
C583 C582 1.369 . S
C583 C584 1.410 . S
C583 C591 1.503 . S
C584 C583 1.410 . S
C584 C585 1.392 . S
C584 C587 1.511 . S
C585 C581 1.376 . S
C585 C584 1.392 . S
C585 H597 0.929 . S
C586 C582 1.531 . S
C586 H598 0.960 . S
C586 H599 0.962 . S
C586 H600 0.960 . S
C587 C584 1.511 . S
C587 H601 0.961 . S
C587 H602 0.961 . S
C587 H603 0.961 . S
C588 C589 1.370 . S
C588 C590 1.363 . S
C588 H604 0.931 . S
C589 C588 1.370 . S
C589 C593 1.408 . S
C590 C588 1.363 . S
C590 C591 1.370 . S
C590 C594 1.524 . S
C591 C583 1.503 . S
C591 C590 1.370 . S
C591 C592 1.403 . S
C592 C591 1.403 . S
C592 C593 1.404 . S
C592 C595 1.539 . S
C593 C589 1.408 . S
C593 C592 1.404 . S
C593 H605 0.930 . S
C594 C590 1.524 . S
C594 H606 0.956 . S
C594 H607 0.961 . S
C594 H608 0.961 . S
C595 C592 1.539 . S
C595 H609 0.958 . S
C595 H610 0.961 . S
C595 H611 0.960 . S
H596 C580 0.931 . S
H597 C585 0.929 . S
H598 C586 0.960 . S
H599 C586 0.962 . S
H600 C586 0.960 . S
H601 C587 0.961 . S
H602 C587 0.961 . S
H603 C587 0.961 . S
H604 C588 0.931 . S
H605 C593 0.930 . S
H606 C594 0.956 . S
H607 C594 0.961 . S
H608 C594 0.961 . S
H609 C595 0.958 . S
H610 C595 0.961 . S
H611 C595 0.960 . S
C237 C190 1.525 1_556 S
C229 C29 1.560 . S
C261 C8 1.537 . S
C269 C150 1.485 . S
C293 C0 1.524 . S
C301 C203 1.486 1_556 S
C325 C17 1.543 . S
C333 C163 1.502 . S
C357 C63 1.559 . S
C365 C110 1.510 . S
C389 C42 1.536 . S
C397 C70 1.497 . S
C429 C123 1.492 . S
C421 C34 1.523 . S
C461 C83 1.497 . S
C453 C51 1.545 . S
C485 C4 1.488 . S
C493 C89 1.477 1_655 S
C517 C13 1.484 . S
C525 C129 1.474 . S
C557 C169 1.475 . S
C549 C38 1.485 . S
C581 C47 1.475 . S
C589 C209 1.468 . S
