# Generated by pormake.
# Topology pts, (4,4)-cn, num edge types: 1
# Building blocks:
#     Node 0, Type 0, BuildingBlock: MUDLON_clean_sbu_0, # of connection points: 4
#     Node 1, Type 0, BuildingBlock: MUDLON_clean_sbu_0, # of connection points: 4
#     Node 2, Type 1, BuildingBlock: UXUYUI_clean_sbu_0, # of connection points: 4
#     Node 3, Type 1, BuildingBlock: UXUYUI_clean_sbu_0, # of connection points: 4
#     Edge 4, Type (0, 1), BuildingBlock: KIFKEQ_clean_linker_1, # of connection points: 2
#     Edge 5, Type (0, 1), BuildingBlock: KIFKEQ_clean_linker_1, # of connection points: 2
#     Edge 6, Type (0, 1), BuildingBlock: KIFKEQ_clean_linker_1, # of connection points: 2
#     Edge 7, Type (0, 1), BuildingBlock: KIFKEQ_clean_linker_1, # of connection points: 2
#     Edge 8, Type (0, 1), BuildingBlock: KIFKEQ_clean_linker_1, # of connection points: 2
#     Edge 9, Type (0, 1), BuildingBlock: KIFKEQ_clean_linker_1, # of connection points: 2
#     Edge 10, Type (0, 1), BuildingBlock: KIFKEQ_clean_linker_1, # of connection points: 2
#     Edge 11, Type (0, 1), BuildingBlock: KIFKEQ_clean_linker_1, # of connection points: 2
# Relax obj value: 0.040
# Max RMSD: 0.092
# Mean RMSD: 0.080
data_MOF--net-pts--node1-MUDLON_clean_sbu_0--node2-UXUYUI_clean_sbu_0--edge1-KIFKEQ_clean_linker_1
_symmetry_space_group_name_H-M    P1
_symmetry_Int_Tables_number       1
_symmetry_cell_setting            triclinic
loop_
_symmetry_equiv_pos_as_xyz
'x, y, z'
_cell_length_a     28.760012
_cell_length_b     28.751512
_cell_length_c     48.326631
_cell_angle_alpha  89.807988
_cell_angle_beta   89.858031
_cell_angle_gamma 89.9311
loop_
_atom_site_label
_atom_site_type_symbol
_atom_site_fract_x
_atom_site_fract_y
_atom_site_fract_z
_atom_type_partial_charge
Mg0 Mg 0.51497 0.01342 0.05162 0.0
C1 C 0.43419 0.0158 1.01756 0.0
O2 O 0.43688 0.97504 0.02983 0.0
C3 C 0.57694 0.02718 0.09658 0.0
O4 O 0.55902 0.98528 0.09855 0.0
C5 C 0.45147 0.95103 0.09303 0.0
O6 O 0.46759 0.91141 0.08351 0.0
O7 O 0.46647 0.98929 0.08331 0.0
O8 O 0.46614 0.04541 0.02238 0.0
O9 O 0.5605 0.96694 0.02803 0.0
C10 C 0.55815 0.96811 1.00171 0.0
O11 O 0.52311 0.98991 0.99011 0.0
O12 O 0.56444 0.05298 0.07641 0.0
Mg13 Mg 0.01052 0.51409 0.55626 0.0
C14 C 0.95351 0.55296 0.60498 0.0
O15 O 0.96041 0.51175 0.61605 0.0
C16 C 0.01369 0.45634 0.50815 0.0
O17 O 0.05595 0.47183 0.51268 0.0
C18 C 0.0547 0.60518 0.53871 0.0
O19 O 0.03781 0.61856 0.56267 0.0
O20 O 0.05366 0.5622 0.53261 0.0
O21 O 0.9647 0.55971 0.57981 0.0
O22 O 0.04437 0.46419 0.58357 0.0
C23 C 0.05905 0.47054 0.60807 0.0
O24 O 0.06017 0.51289 0.61818 0.0
O25 O 0.98121 0.46961 0.52428 0.0
Li26 Li 0.01738 0.04988 0.3229 0.0
Li27 Li 0.01358 0.96548 0.32334 0.0
Li28 Li 0.05651 1.00661 0.28652 0.0
Li29 Li 0.97174 1.0099 0.28662 0.0
C30 C 0.10292 0.02475 0.34268 0.0
N31 N 0.16947 0.06626 0.37548 0.0
C32 C 0.11294 1.00654 0.36886 0.0
C33 C 0.12696 0.06385 0.33313 0.0
C34 C 0.14666 0.02809 0.38515 0.0
C35 C 0.16042 0.0844 0.35003 0.0
C36 C 0.94256 0.0156 0.35339 0.0
C37 C 0.87906 0.03796 0.3832 0.0
N38 N 0.90571 0.02811 0.40569 0.0
C39 C 0.9693 1.00569 0.37679 0.0
C40 C 0.89708 0.03186 0.35658 0.0
C41 C 0.95006 0.01224 0.40305 0.0
C42 C 0.997 0.14365 0.33525 0.0
N43 N 0.01619 0.10417 0.34585 0.0
C44 C 0.02813 0.14139 0.38942 0.0
C45 C 0.03126 0.10234 0.37248 0.0
C46 C 1.00877 0.18273 0.37904 0.0
C47 C 0.99285 0.18355 0.35158 0.0
H48 H 0.98455 0.144 0.31415 0.0
H49 H 0.04502 0.07041 0.38086 0.0
C50 C 0.05949 0.89373 0.35049 0.0
N51 N 0.01629 0.91164 0.34643 0.0
C52 C 0.06654 0.85812 0.36972 0.0
C53 C 0.98402 0.85831 0.37929 0.0
C54 C 0.97858 0.89411 0.35988 0.0
C55 C 0.02867 0.84046 0.38486 0.0
H56 H 0.08883 0.90841 0.33948 0.0
H57 H 0.94454 0.90885 0.35618 0.0
C58 C 0.03325 0.08882 0.26188 0.0
N59 N 0.06916 0.14244 0.21939 0.0
C60 C 0.01972 0.08069 0.23458 0.0
C61 C 0.06436 0.12479 0.26765 0.0
C62 C 0.03848 0.10799 0.21336 0.0
C63 C 0.0823 0.15137 0.24587 0.0
C64 C 0.98609 0.91505 0.27726 0.0
C65 C 1.00301 0.88055 0.2596 0.0
C66 C 0.9425 0.90966 0.28973 0.0
C67 C 0.97598 0.8411 0.25468 0.0
C68 C 0.91654 0.8697 0.2843 0.0
N69 N 0.93367 0.83654 0.26704 0.0
C70 C 0.15265 0.99744 0.27215 0.0
C71 C 0.09948 0.99399 0.23485 0.0
C72 C 0.18995 0.98925 0.2542 0.0
N73 N 0.10853 1.00017 0.26219 0.0
C74 C 0.13571 0.98609 0.21616 0.0
C75 C 0.18171 0.98356 0.22577 0.0
H76 H 0.15893 1.00066 0.29406 0.0
H77 H 0.06394 0.99422 0.22763 0.0
C78 C 0.88661 0.0492 0.27048 0.0
N79 N 0.91871 0.01664 0.26334 0.0
C80 C 0.84901 0.05867 0.25306 0.0
C81 C 0.87831 1.00096 0.22121 0.0
C82 C 0.91535 0.99264 0.23924 0.0
C83 C 0.84455 0.03456 0.22794 0.0
H84 H 0.89081 0.06855 0.28946 0.0
H85 H 0.9419 0.96765 0.23374 0.0
O86 O 0.06963 1.00446 0.32656 0.0
O87 O 0.96078 1.00977 0.32746 0.0
O88 O 0.01534 0.0624 0.28293 0.0
O89 O 0.01232 0.95377 0.28223 0.0
H90 H 0.09453 0.97645 0.37668 0.0
H91 H 0.11996 0.07801 0.31283 0.0
H92 H 0.1546 0.01453 0.40551 0.0
H93 H 0.17922 0.11474 0.3429 0.0
H94 H 0.8439 0.05053 0.38598 0.0
H95 H 1.00469 0.99343 0.3747 0.0
H96 H 0.8759 0.03967 0.33867 0.0
H97 H 0.97044 1.00481 0.42133 0.0
H98 H 0.04009 0.13899 0.41062 0.0
H99 H 0.9779 0.21481 0.34274 0.0
H100 H 0.10161 0.84593 0.37344 0.0
H101 H 0.95369 0.84524 0.3901 0.0
H102 H 0.99535 0.05327 0.22978 0.0
H103 H 0.07426 0.13237 0.28873 0.0
H104 H 0.02863 0.1018 0.1921 0.0
H105 H 0.10655 0.17921 0.25001 0.0
H106 H 0.03669 0.88427 0.24979 0.0
H107 H 0.92871 0.93599 0.3034 0.0
H108 H 0.98863 0.81412 0.24105 0.0
H109 H 0.88276 0.86507 0.2938 0.0
H110 H 0.22488 0.98763 0.26248 0.0
H111 H 0.1277 0.98099 0.1945 0.0
H112 H 0.82429 0.08531 0.25895 0.0
H113 H 0.87606 0.98111 0.20226 0.0
Li114 Li 0.96335 0.01024 0.81819 0.0
Li115 Li 0.05062 0.01046 0.81651 0.0
Li116 Li 1.00301 0.05163 0.78233 0.0
Li117 Li 1.00244 0.96869 0.78055 0.0
C118 C 0.98971 0.0845 0.84517 0.0
N119 N 0.95142 0.1247 0.89179 0.0
C120 C 1.00885 0.0756 0.8712 0.0
C121 C 0.95137 0.11413 0.84279 0.0
C122 C 0.98893 0.09621 0.89454 0.0
C123 C 0.93243 0.13403 0.86663 0.0
C124 C 1.00554 0.91023 0.8226 0.0
C125 C 0.04302 0.83577 0.81707 0.0
N126 N 1.00152 0.81429 0.82148 0.0
C127 C 0.96327 0.88747 0.8271 0.0
C128 C 0.04577 0.88427 0.81756 0.0
C129 C 0.96197 0.83891 0.82646 0.0
C130 C 0.86798 1.00874 0.83379 0.0
N131 N 0.91226 1.00488 0.84329 0.0
C132 C 0.88464 0.98413 0.8884 0.0
C133 C 0.92118 0.99281 0.86998 0.0
C134 C 0.83848 0.98714 0.87911 0.0
C135 C 0.83039 1.00001 0.85144 0.0
H136 H 0.86184 0.0175 0.81235 0.0
H137 H 0.95676 0.98874 0.87678 0.0
C138 C 0.13192 0.05176 0.83766 0.0
N139 N 0.10527 0.01275 0.83861 0.0
C140 C 0.17068 0.05611 0.85488 0.0
C141 C 0.15332 0.98034 0.87404 0.0
C142 C 0.11502 0.97743 0.85641 0.0
C143 C 0.18184 0.0201 0.87345 0.0
H144 H 0.12256 0.07992 0.82389 0.0
H145 H 0.09245 0.94743 0.85738 0.0
C146 C 0.92305 0.03094 0.75805 0.0
N147 N 0.87294 0.07376 0.71644 0.0
C148 C 0.92328 0.0125 0.73132 0.0
C149 C 0.89705 0.0709 0.76368 0.0
C150 C 0.89775 0.03471 0.71056 0.0
C151 C 0.87207 0.09214 0.74233 0.0
C152 C 0.07773 0.02719 0.75236 0.0
C153 C 0.06593 0.01075 0.72611 0.0
C154 C 0.10983 0.0634 0.75483 0.0
C155 C 0.08628 0.03103 0.70273 0.0
C156 C 0.12926 0.08289 0.73095 0.0
N157 N 0.1172 0.06643 0.70561 0.0
C158 C 0.01688 0.14805 0.7739 0.0
C159 C 1.00155 0.10711 0.73249 0.0
C160 C 0.02536 0.18895 0.75897 0.0
N161 N 1.0057 0.10804 0.76053 0.0
C162 C 0.01008 0.14702 0.71676 0.0
C163 C 0.02283 0.18853 0.72995 0.0
H164 H 0.02076 0.14789 0.79614 0.0
H165 H 0.99335 0.07501 0.72214 0.0
C166 C 0.95261 0.89599 0.75647 0.0
N167 N 0.99631 0.91349 0.75882 0.0
C168 C 0.94447 0.85613 0.74081 0.0
C169 C 0.02667 0.85245 0.73052 0.0
C170 C 0.03325 0.89237 0.74653 0.0
C171 C 0.9817 0.83395 0.72736 0.0
H172 H 0.92393 0.91334 0.76666 0.0
H173 H 0.06776 0.90664 0.74907 0.0
O174 O 1.00801 0.06389 0.82213 0.0
O175 O 1.00724 0.95773 0.82222 0.0
O176 O 0.94771 1.00965 0.77868 0.0
O177 O 0.05777 1.00812 0.77548 0.0
H178 H 0.03843 0.05262 0.87342 0.0
H179 H 0.93632 0.12152 0.82276 0.0
H180 H 1.0032 0.08943 0.91485 0.0
H181 H 0.90261 0.15686 0.86512 0.0
H182 H 0.07381 0.81522 0.81305 0.0
H183 H 0.93174 0.90711 0.83076 0.0
H184 H 0.07862 0.90143 0.81363 0.0
H185 H 0.92949 0.8208 0.8298 0.0
H186 H 0.89247 0.97375 0.90944 0.0
H187 H 0.79535 1.00315 0.84348 0.0
H188 H 0.19163 0.08731 0.85361 0.0
H189 H 0.15977 0.95218 0.88846 0.0
H190 H 0.9434 0.98174 0.72655 0.0
H191 H 0.89636 0.08548 0.78427 0.0
H192 H 0.89782 0.02099 0.68974 0.0
H193 H 0.85198 0.12324 0.74636 0.0
H194 H 0.04068 0.98324 0.72375 0.0
H195 H 0.11922 0.07669 0.77494 0.0
H196 H 0.07722 0.01885 0.68229 0.0
H197 H 0.15387 0.11118 0.73255 0.0
H198 H 0.03544 0.2201 0.76996 0.0
H199 H 1.00722 0.14526 0.69445 0.0
H200 H 0.90922 0.84344 0.73878 0.0
H201 H 0.05648 0.83608 0.72087 0.0
H202 H 0.40738 0.87808 0.11962 0.0
H203 H 0.40876 0.02815 0.11333 0.0
H204 H 0.3415 0.88302 0.15196 0.0
H205 H 0.34389 0.03275 0.14522 0.0
H206 H 0.19516 0.02329 0.17507 0.0
H207 H 0.26002 0.0117 0.14327 0.0
H208 H 0.32207 0.91412 0.20042 0.0
H209 H 0.25648 0.92513 0.2322 0.0
C210 C 0.3939 0.91198 0.12518 0.0
C211 C 0.41325 0.95263 0.11371 0.0
C212 C 0.35632 0.91481 0.14372 0.0
C213 C 0.33724 0.95828 0.15083 0.0
C214 C 0.35724 0.99873 0.13975 0.0
C215 C 0.39472 0.99599 0.12154 0.0
C216 C 0.22233 0.99897 0.18075 0.0
C217 C 0.22078 0.97531 0.20621 0.0
C218 C 0.25966 0.99258 0.16263 0.0
C219 C 0.29626 0.9622 0.16944 0.0
C220 C 0.29426 0.93758 0.19458 0.0
C221 C 0.25699 0.94428 0.21286 0.0
H222 H 0.05734 0.37891 0.59356 0.0
H223 H 0.07317 0.46902 0.66428 0.0
H224 H 0.05363 0.31181 0.62401 0.0
H225 H 0.07085 0.40128 0.69492 0.0
H226 H 0.99639 0.2787 0.73939 0.0
H227 H 0.01292 0.34703 0.71095 0.0
H228 H 0.09373 0.26184 0.65512 0.0
H229 H 0.07639 0.19355 0.6833 0.0
C230 C 0.06103 0.38437 0.61561 0.0
C231 C 0.06518 0.42951 0.62645 0.0
C232 C 0.05913 0.3457 0.63314 0.0
C233 C 0.06153 0.35101 0.66202 0.0
C234 C 0.06804 0.39596 0.67281 0.0
C235 C 0.06987 0.43478 0.65522 0.0
C236 C 0.01803 0.27472 0.72118 0.0
C237 C 0.03459 0.23064 0.71341 0.0
C238 C 0.02774 0.31394 0.70492 0.0
C239 C 0.05454 0.31004 0.6806 0.0
C240 C 0.07224 0.26608 0.67337 0.0
C241 C 0.06227 0.22688 0.68951 0.0
H242 H 0.5838 0.99647 0.14913 0.0
H243 H 0.65045 0.08793 0.0902 0.0
H244 H 0.64758 1.00715 0.18114 0.0
H245 H 0.7151 0.09917 0.12274 0.0
H246 H 0.84513 0.03944 0.17116 0.0
H247 H 0.77862 0.04795 0.14026 0.0
H248 H 0.6876 0.0615 0.21099 0.0
H249 H 0.75364 0.05117 0.24185 0.0
C250 C 0.61184 0.01966 0.14323 0.0
C251 C 0.61228 0.04118 0.1171 0.0
C252 C 0.64834 0.02604 0.16171 0.0
C253 C 0.68658 0.05392 0.15452 0.0
C254 C 0.68625 0.07717 0.12878 0.0
C255 C 0.64915 0.07112 0.11027 0.0
C256 C 0.81091 0.0442 0.18012 0.0
C257 C 0.80472 0.04393 0.20903 0.0
C258 C 0.77288 0.04982 0.16239 0.0
C259 C 0.72774 0.0552 0.17314 0.0
C260 C 0.72186 0.05694 0.20202 0.0
C261 C 0.75982 0.05134 0.21974 0.0
H262 H 0.94602 0.55486 0.66153 0.0
H263 H 0.9437 0.64406 0.58938 0.0
H264 H 0.94886 0.62315 0.69125 0.0
H265 H 0.94587 0.71221 0.61913 0.0
H266 H 0.02025 0.81422 0.67694 0.0
H267 H 1.00633 0.74677 0.64775 0.0
H268 H 0.90898 0.69293 0.70802 0.0
H269 H 0.92404 0.75986 0.73769 0.0
C270 C 0.94495 0.58899 0.652 0.0
C271 C 0.94512 0.59386 0.62302 0.0
C272 C 0.94659 0.62821 0.66907 0.0
C273 C 0.94843 0.67317 0.65756 0.0
C274 C 0.94558 0.67806 0.62865 0.0
C275 C 0.94387 0.63891 0.6116 0.0
C276 C 0.99619 0.78782 0.6841 0.0
C277 C 0.97338 0.79244 0.7097 0.0
C278 C 0.98768 0.74944 0.66718 0.0
C279 C 0.95621 0.71457 0.67542 0.0
C280 C 0.93353 0.71905 0.70108 0.0
C281 C 0.94191 0.75759 0.71798 0.0
H282 H 0.35778 0.96271 1.01053 0.0
H283 H 0.42516 0.08595 0.97842 0.0
H284 H 0.29955 0.96785 0.9746 0.0
H285 H 0.36564 0.09109 0.94192 0.0
H286 H 0.21265 0.09746 0.90147 0.0
H287 H 0.27536 0.10158 0.93558 0.0
H288 H 0.30451 0.95592 0.92297 0.0
H289 H 0.2429 0.9518 0.88867 0.0
C290 C 0.36014 0.99113 0.99582 0.0
C291 C 0.39659 0.0236 0.99715 0.0
C292 C 0.32673 0.9939 0.97513 0.0
C293 C 0.32857 0.02928 0.95513 0.0
C294 C 0.36359 0.06331 0.95705 0.0
C295 C 0.39754 0.0604 0.9779 0.0
C296 C 0.23301 0.06651 0.90559 0.0
C297 C 0.22222 0.02407 0.89258 0.0
C298 C 0.26888 0.06896 0.92514 0.0
C299 C 0.29436 0.02896 0.93217 0.0
C300 C 0.28484 0.98713 0.91833 0.0
C301 C 0.24935 0.98473 0.89877 0.0
H302 H 0.93836 0.39856 0.49976 0.0
H303 H 0.07348 0.43461 0.46684 0.0
H304 H 0.93382 0.33362 0.46691 0.0
H305 H 0.06876 0.37067 0.43437 0.0
H306 H 0.07607 0.21705 0.4127 0.0
H307 H 0.07245 0.28524 0.44232 0.0
H308 H 0.93213 0.31244 0.41505 0.0
H309 H 0.93551 0.24323 0.38547 0.0
C310 C 0.96662 0.39316 0.48526 0.0
C311 C 1.00656 0.42128 0.48619 0.0
C312 C 0.96402 0.35608 0.46648 0.0
C313 C 1.00135 0.34663 0.44845 0.0
C314 C 0.03993 0.37644 0.44843 0.0
C315 C 0.0425 0.41322 0.46702 0.0
C316 C 0.04432 0.23734 0.41311 0.0
C317 C 1.0061 0.22477 0.39675 0.0
C318 C 0.04236 0.27665 0.4299 0.0
C319 C 1.00209 0.30437 0.43086 0.0
C320 C 0.96355 0.29164 0.41476 0.0
C321 C 0.96566 0.25235 0.39769 0.0
H322 H 0.64684 0.94602 1.01852 0.0
H323 H 0.56225 0.96426 0.94552 0.0
H324 H 0.7164 0.94242 0.98943 0.0
H325 H 0.63135 0.96211 0.91672 0.0
H326 H 0.76109 0.93539 0.8679 0.0
H327 H 0.695 0.91962 0.89819 0.0
H328 H 0.76043 0.99866 0.96325 0.0
H329 H 0.82683 0.01363 0.93307 0.0
C330 C 0.64294 0.9483 0.99627 0.0
C331 C 0.59898 0.95586 0.98438 0.0
C332 C 0.68288 0.9468 0.9796 0.0
C333 C 0.67968 0.9527 0.95072 0.0
C334 C 0.63533 0.95711 0.93881 0.0
C335 C 0.59555 0.95857 0.95541 0.0
C336 C 0.76131 0.9494 0.88868 0.0
C337 C 0.79901 0.97616 0.89799 0.0
C338 C 0.72345 0.94029 0.90608 0.0
C339 C 0.72215 0.95798 0.93319 0.0
C340 C 0.76046 0.98378 0.9427 0.0
C341 C 0.79848 0.99263 0.92534 0.0
H342 H 0.05701 0.69982 0.54377 0.0
H343 H 0.07011 0.58986 0.4835 0.0
H344 H 0.05563 0.7572 0.50657 0.0
H345 H 0.06738 0.64708 0.44633 0.0
H346 H 0.08866 0.76594 0.385 0.0
H347 H 0.10349 0.71111 0.42258 0.0
H348 H 0.99938 0.77983 0.47249 0.0
H349 H 0.98624 0.83588 0.43556 0.0
C350 C 0.06029 0.6879 0.52262 0.0
C351 C 0.06323 0.64017 0.51665 0.0
C352 C 0.05899 0.72079 0.50125 0.0
C353 C 0.06042 0.70676 0.47339 0.0
C354 C 0.06634 0.65924 0.4675 0.0
C355 C 0.06786 0.62634 0.48888 0.0
C356 C 0.06925 0.76963 0.4041 0.0
C357 C 0.03618 0.80539 0.40718 0.0
C358 C 0.0775 0.73791 0.42557 0.0
C359 C 0.05287 0.74113 0.45068 0.0
C360 C 0.01964 0.77673 0.45367 0.0
C361 C 0.01148 0.80846 0.43225 0.0
loop_
_geom_bond_atom_site_label_1
_geom_bond_atom_site_label_2
_geom_bond_distance
_geom_bond_site_symmetry_2
_ccdc_geom_bond_type
Mg0 O7 2.141 . S
Mg0 O8 2.048 . S
Mg0 O9 2.048 . S
Mg0 O12 2.141 . S
C1 O2 1.313 . S
C1 O8 1.195 1_566 S
O2 C1 1.313 . S
C3 O4 1.245 . S
C3 O12 1.289 1_565 S
O4 C3 1.245 . S
C5 O6 1.245 . S
C5 O7 1.289 1_565 S
O6 C5 1.245 . S
O7 Mg0 2.141 . S
O7 C5 1.289 1_545 S
O8 Mg0 2.048 . S
O8 C1 1.195 1_544 S
O9 Mg0 2.048 . S
O9 C10 1.195 1_544 S
C10 O9 1.195 1_566 S
C10 O11 1.313 . S
O11 C10 1.313 . S
O12 Mg0 2.141 . S
O12 C3 1.289 1_545 S
Mg13 O20 2.141 . S
Mg13 O21 2.048 . S
Mg13 O22 2.048 . S
Mg13 O25 2.141 . S
C14 O15 1.313 . S
C14 O21 1.195 1_455 S
O15 C14 1.313 . S
C16 O17 1.245 . S
C16 O25 1.289 1_455 S
O17 C16 1.245 . S
C18 O19 1.245 . S
C18 O20 1.289 1_455 S
O19 C18 1.245 . S
O20 Mg13 2.141 . S
O20 C18 1.289 1_655 S
O21 Mg13 2.048 . S
O21 C14 1.195 1_655 S
O22 Mg13 2.048 . S
O22 C23 1.195 1_655 S
C23 O22 1.195 1_455 S
C23 O24 1.313 . S
O24 C23 1.313 . S
O25 Mg13 2.141 . S
O25 C16 1.289 1_655 S
Li26 N43 1.990 . S
Li26 O86 1.956 1_545 S
Li26 O87 1.970 1_455 S
Li26 O88 1.961 1_455 S
Li27 N51 1.990 . S
Li27 O86 1.970 1_655 S
Li27 O87 1.956 1_565 S
Li27 O89 1.961 1_655 S
Li28 N73 1.990 . S
Li28 O86 1.961 1_545 S
Li28 O88 1.956 1_455 S
Li28 O89 1.970 1_545 S
Li29 N79 1.990 . S
Li29 O87 1.961 1_565 S
Li29 O88 1.970 1_565 S
Li29 O89 1.956 1_655 S
C30 C32 1.348 1_545 S
C30 C33 1.356 . S
C30 O86 1.325 1_545 S
N31 C34 1.314 1_545 S
N31 C35 1.279 . S
C32 C30 1.348 1_565 S
C32 C34 1.353 . S
C32 H90 0.929 . S
C33 C30 1.356 . S
C33 C35 1.358 . S
C33 H91 0.930 . S
C34 N31 1.314 1_565 S
C34 C32 1.353 . S
C34 H92 0.930 . S
C35 N31 1.279 . S
C35 C33 1.358 . S
C35 H93 0.930 . S
C36 C39 1.348 . S
C36 C40 1.356 1_545 S
C36 O87 1.325 . S
C37 N38 1.279 . S
C37 C40 1.358 . S
C37 H94 0.930 . S
N38 C37 1.279 . S
N38 C41 1.314 1_565 S
C39 C36 1.348 . S
C39 C41 1.353 . S
C39 H95 0.929 . S
C40 C36 1.356 1_565 S
C40 C37 1.358 . S
C40 H96 0.930 . S
C41 N38 1.314 1_545 S
C41 C39 1.353 . S
C41 H97 0.930 . S
C42 N43 1.314 1_655 S
C42 C47 1.353 . S
C42 H48 0.930 . S
N43 Li26 1.990 . S
N43 C42 1.314 1_455 S
N43 C45 1.279 . S
C44 C45 1.358 . S
C44 C46 1.356 . S
C44 H98 0.930 . S
C45 N43 1.279 . S
C45 C44 1.358 . S
C45 H49 0.930 . S
C46 C44 1.356 . S
C46 C47 1.348 1_455 S
C47 C42 1.353 . S
C47 C46 1.348 1_655 S
C47 H99 0.929 . S
H48 C42 0.930 . S
H49 C45 0.930 . S
C50 N51 1.314 1_455 S
C50 C52 1.353 . S
C50 H56 0.930 . S
N51 Li27 1.990 . S
N51 C50 1.314 1_655 S
N51 C54 1.279 . S
C52 C50 1.353 . S
C52 C55 1.348 . S
C52 H100 0.929 . S
C53 C54 1.358 . S
C53 C55 1.356 1_655 S
C53 H101 0.930 . S
C54 N51 1.279 . S
C54 C53 1.358 . S
C54 H57 0.930 . S
C55 C52 1.348 . S
C55 C53 1.356 1_455 S
H56 C50 0.930 . S
H57 C54 0.930 . S
C58 C60 1.348 1_455 S
C58 C61 1.356 . S
C58 O88 1.325 1_455 S
N59 C62 1.314 1_455 S
N59 C63 1.279 . S
C60 C58 1.348 1_655 S
C60 C62 1.353 . S
C60 H102 0.929 . S
C61 C58 1.356 . S
C61 C63 1.358 . S
C61 H103 0.930 . S
C62 N59 1.314 1_655 S
C62 C60 1.353 . S
C62 H104 0.930 . S
C63 N59 1.279 . S
C63 C61 1.358 . S
C63 H105 0.930 . S
C64 C65 1.348 . S
C64 C66 1.356 1_455 S
C64 O89 1.325 . S
C65 C64 1.348 . S
C65 C67 1.353 . S
C65 H106 0.929 . S
C66 C64 1.356 1_655 S
C66 C68 1.358 . S
C66 H107 0.930 . S
C67 C65 1.353 . S
C67 N69 1.314 1_455 S
C67 H108 0.930 . S
C68 C66 1.358 . S
C68 N69 1.279 . S
C68 H109 0.930 . S
N69 C67 1.314 1_655 S
N69 C68 1.279 . S
C70 C72 1.353 . S
C70 N73 1.314 1_565 S
C70 H76 0.930 . S
C71 N73 1.279 . S
C71 C74 1.358 . S
C71 H77 0.930 . S
C72 C70 1.353 . S
C72 C75 1.348 1_565 S
C72 H110 0.929 . S
N73 Li28 1.990 . S
N73 C70 1.314 1_545 S
N73 C71 1.279 . S
C74 C71 1.358 . S
C74 C75 1.356 . S
C74 H111 0.930 . S
C75 C72 1.348 1_545 S
C75 C74 1.356 . S
H76 C70 0.930 . S
H77 C71 0.930 . S
C78 N79 1.314 1_545 S
C78 C80 1.353 . S
C78 H84 0.930 . S
N79 Li29 1.990 . S
N79 C78 1.314 1_565 S
N79 C82 1.279 . S
C80 C78 1.353 . S
C80 C83 1.348 . S
C80 H112 0.929 . S
C81 C82 1.358 . S
C81 C83 1.356 1_565 S
C81 H113 0.930 . S
C82 N79 1.279 . S
C82 C81 1.358 . S
C82 H85 0.930 . S
C83 C80 1.348 . S
C83 C81 1.356 1_545 S
H84 C78 0.930 . S
H85 C82 0.930 . S
O86 Li26 1.956 1_565 S
O86 Li27 1.970 1_455 S
O86 Li28 1.961 1_565 S
O86 C30 1.325 1_565 S
O87 Li26 1.970 1_655 S
O87 Li27 1.956 1_545 S
O87 Li29 1.961 1_545 S
O87 C36 1.325 . S
O88 Li26 1.961 1_655 S
O88 Li28 1.956 1_655 S
O88 Li29 1.970 1_545 S
O88 C58 1.325 1_655 S
O89 Li27 1.961 1_455 S
O89 Li28 1.970 1_565 S
O89 Li29 1.956 1_455 S
O89 C64 1.325 . S
H90 C32 0.929 . S
H91 C33 0.930 . S
H92 C34 0.930 . S
H93 C35 0.930 . S
H94 C37 0.930 . S
H95 C39 0.929 . S
H96 C40 0.930 . S
H97 C41 0.930 . S
H98 C44 0.930 . S
H99 C47 0.929 . S
H100 C52 0.929 . S
H101 C53 0.930 . S
H102 C60 0.929 . S
H103 C61 0.930 . S
H104 C62 0.930 . S
H105 C63 0.930 . S
H106 C65 0.929 . S
H107 C66 0.930 . S
H108 C67 0.930 . S
H109 C68 0.930 . S
H110 C72 0.929 . S
H111 C74 0.930 . S
H112 C80 0.929 . S
H113 C81 0.930 . S
Li114 N131 1.990 . S
Li114 O174 1.956 1_655 S
Li114 O175 1.970 1_545 S
Li114 O176 1.961 1_545 S
Li115 N139 1.990 . S
Li115 O174 1.970 1_565 S
Li115 O175 1.956 1_455 S
Li115 O177 1.961 1_565 S
Li116 N161 1.990 . S
Li116 O174 1.961 1_655 S
Li116 O176 1.956 1_545 S
Li116 O177 1.970 1_655 S
Li117 N167 1.990 . S
Li117 O175 1.961 1_455 S
Li117 O176 1.970 1_455 S
Li117 O177 1.956 1_565 S
C118 C120 1.348 . S
C118 C121 1.355 1_455 S
C118 O174 1.325 . S
N119 C122 1.314 1_655 S
N119 C123 1.279 . S
C120 C118 1.348 . S
C120 C122 1.353 . S
C120 H178 0.929 . S
C121 C118 1.355 1_655 S
C121 C123 1.358 . S
C121 H179 0.930 . S
C122 N119 1.314 1_455 S
C122 C120 1.353 . S
C122 H180 0.930 . S
C123 N119 1.279 . S
C123 C121 1.358 . S
C123 H181 0.930 . S
C124 C127 1.348 1_455 S
C124 C128 1.355 . S
C124 O175 1.325 1_455 S
C125 N126 1.279 . S
C125 C128 1.358 . S
C125 H182 0.930 . S
N126 C125 1.279 . S
N126 C129 1.314 1_455 S
C127 C124 1.348 1_655 S
C127 C129 1.353 . S
C127 H183 0.929 . S
C128 C124 1.355 . S
C128 C125 1.358 . S
C128 H184 0.930 . S
C129 N126 1.314 1_655 S
C129 C127 1.353 . S
C129 H185 0.930 . S
C130 N131 1.314 1_565 S
C130 C135 1.353 . S
C130 H136 0.930 . S
N131 Li114 1.990 . S
N131 C130 1.314 1_545 S
N131 C133 1.279 . S
C132 C133 1.358 . S
C132 C134 1.355 . S
C132 H186 0.930 . S
C133 N131 1.279 . S
C133 C132 1.358 . S
C133 H137 0.930 . S
C134 C132 1.355 . S
C134 C135 1.348 1_545 S
C135 C130 1.353 . S
C135 C134 1.348 1_565 S
C135 H187 0.929 . S
H136 C130 0.930 . S
H137 C133 0.930 . S
C138 N139 1.314 1_545 S
C138 C140 1.353 . S
C138 H144 0.930 . S
N139 Li115 1.990 . S
N139 C138 1.314 1_565 S
N139 C142 1.279 . S
C140 C138 1.353 . S
C140 C143 1.348 . S
C140 H188 0.929 . S
C141 C142 1.358 . S
C141 C143 1.355 1_565 S
C141 H189 0.930 . S
C142 N139 1.279 . S
C142 C141 1.358 . S
C142 H145 0.930 . S
C143 C140 1.348 . S
C143 C141 1.355 1_545 S
H144 C138 0.930 . S
H145 C142 0.930 . S
C146 C148 1.348 1_545 S
C146 C149 1.355 . S
C146 O176 1.325 1_545 S
N147 C150 1.314 1_545 S
N147 C151 1.279 . S
C148 C146 1.348 1_565 S
C148 C150 1.353 . S
C148 H190 0.929 . S
C149 C146 1.355 . S
C149 C151 1.358 . S
C149 H191 0.930 . S
C150 N147 1.314 1_565 S
C150 C148 1.353 . S
C150 H192 0.930 . S
C151 N147 1.279 . S
C151 C149 1.358 . S
C151 H193 0.930 . S
C152 C153 1.348 . S
C152 C154 1.355 1_545 S
C152 O177 1.325 . S
C153 C152 1.348 . S
C153 C155 1.353 . S
C153 H194 0.929 . S
C154 C152 1.355 1_565 S
C154 C156 1.358 . S
C154 H195 0.930 . S
C155 C153 1.353 . S
C155 N157 1.314 1_545 S
C155 H196 0.930 . S
C156 C154 1.358 . S
C156 N157 1.279 . S
C156 H197 0.930 . S
N157 C155 1.314 1_565 S
N157 C156 1.279 . S
C158 C160 1.353 . S
C158 N161 1.314 1_455 S
C158 H164 0.930 . S
C159 N161 1.279 . S
C159 C162 1.358 . S
C159 H165 0.930 . S
C160 C158 1.353 . S
C160 C163 1.348 . S
C160 H198 0.929 . S
N161 Li116 1.990 . S
N161 C158 1.314 1_655 S
N161 C159 1.279 . S
C162 C159 1.358 . S
C162 C163 1.355 1_655 S
C162 H199 0.930 . S
C163 C160 1.348 . S
C163 C162 1.355 1_455 S
H164 C158 0.930 . S
H165 C159 0.930 . S
C166 N167 1.314 1_655 S
C166 C168 1.353 . S
C166 H172 0.930 . S
N167 Li117 1.990 . S
N167 C166 1.314 1_455 S
N167 C170 1.279 . S
C168 C166 1.353 . S
C168 C171 1.348 1_655 S
C168 H200 0.929 . S
C169 C170 1.358 . S
C169 C171 1.355 . S
C169 H201 0.930 . S
C170 N167 1.279 . S
C170 C169 1.358 . S
C170 H173 0.930 . S
C171 C168 1.348 1_455 S
C171 C169 1.355 . S
H172 C166 0.930 . S
H173 C170 0.930 . S
O174 Li114 1.956 1_455 S
O174 Li115 1.970 1_545 S
O174 Li116 1.961 1_455 S
O174 C118 1.325 . S
O175 Li114 1.970 1_565 S
O175 Li115 1.956 1_655 S
O175 Li117 1.961 1_655 S
O175 C124 1.325 1_655 S
O176 Li114 1.961 1_565 S
O176 Li116 1.956 1_565 S
O176 Li117 1.970 1_655 S
O176 C146 1.325 1_565 S
O177 Li115 1.961 1_545 S
O177 Li116 1.970 1_455 S
O177 Li117 1.956 1_545 S
O177 C152 1.325 . S
H178 C120 0.929 . S
H179 C121 0.930 . S
H180 C122 0.930 . S
H181 C123 0.930 . S
H182 C125 0.930 . S
H183 C127 0.929 . S
H184 C128 0.930 . S
H185 C129 0.930 . S
H186 C132 0.930 . S
H187 C135 0.929 . S
H188 C140 0.929 . S
H189 C141 0.930 . S
H190 C148 0.929 . S
H191 C149 0.930 . S
H192 C150 0.930 . S
H193 C151 0.930 . S
H194 C153 0.929 . S
H195 C154 0.930 . S
H196 C155 0.930 . S
H197 C156 0.930 . S
H198 C160 0.929 . S
H199 C162 0.930 . S
H200 C168 0.929 . S
H201 C169 0.930 . S
H202 C210 0.950 . S
H203 C215 0.950 . S
H204 C212 0.950 . S
H205 C214 0.950 . S
H206 C216 0.950 . S
H207 C218 0.950 . S
H208 C220 0.950 . S
H209 C221 0.950 . S
C210 H202 0.950 . S
C210 C211 1.386 1_565 S
C210 C212 1.391 . S
C211 C210 1.386 1_545 S
C211 C215 1.392 . S
C212 H204 0.950 . S
C212 C210 1.391 . S
C212 C213 1.406 . S
C213 C212 1.406 . S
C213 C214 1.393 1_565 S
C213 C219 1.491 . S
C214 H205 0.950 . S
C214 C213 1.393 1_545 S
C214 C215 1.391 . S
C215 H203 0.950 . S
C215 C211 1.392 . S
C215 C214 1.391 . S
C216 H206 0.950 . S
C216 C217 1.365 1_545 S
C216 C218 1.391 . S
C217 C216 1.365 1_565 S
C217 C221 1.413 . S
C218 H207 0.950 . S
C218 C216 1.391 . S
C218 C219 1.390 1_545 S
C219 C213 1.491 . S
C219 C218 1.390 1_565 S
C219 C220 1.409 . S
C220 H208 0.950 . S
C220 C219 1.409 . S
C220 C221 1.391 . S
C221 H209 0.950 . S
C221 C217 1.413 . S
C221 C220 1.391 . S
H222 C230 0.950 . S
H223 C235 0.950 . S
H224 C232 0.950 . S
H225 C234 0.950 . S
H226 C236 0.950 . S
H227 C238 0.950 . S
H228 C240 0.950 . S
H229 C241 0.950 . S
C230 H222 0.950 . S
C230 C231 1.386 1_655 S
C230 C232 1.391 . S
C231 C230 1.386 1_455 S
C231 C235 1.393 . S
C232 H224 0.950 . S
C232 C230 1.391 . S
C232 C233 1.400 1_655 S
C233 C232 1.400 1_455 S
C233 C234 1.398 . S
C233 C239 1.491 1_455 S
C234 H225 0.950 . S
C234 C233 1.398 . S
C234 C235 1.391 . S
C235 H223 0.950 . S
C235 C231 1.393 . S
C235 C234 1.391 . S
C236 H226 0.950 . S
C236 C237 1.382 1_455 S
C236 C238 1.391 . S
C237 C236 1.382 1_655 S
C237 C241 1.397 . S
C238 H227 0.950 . S
C238 C236 1.391 . S
C238 C239 1.402 1_455 S
C239 C233 1.491 1_655 S
C239 C238 1.402 1_655 S
C239 C240 1.397 . S
C240 H228 0.950 . S
C240 C239 1.397 . S
C240 C241 1.391 . S
C241 H229 0.950 . S
C241 C237 1.397 . S
C241 C240 1.391 . S
H242 C250 0.950 . S
H243 C255 0.950 . S
H244 C252 0.950 . S
H245 C254 0.950 . S
H246 C256 0.950 . S
H247 C258 0.950 . S
H248 C260 0.950 . S
H249 C261 0.950 . S
C250 H242 0.950 . S
C250 C251 1.386 . S
C250 C252 1.391 . S
C251 C250 1.386 . S
C251 C255 1.393 1_565 S
C252 H244 0.950 . S
C252 C250 1.391 . S
C252 C253 1.402 . S
C253 C252 1.402 . S
C253 C254 1.397 1_565 S
C253 C259 1.490 1_565 S
C254 H245 0.950 . S
C254 C253 1.397 1_545 S
C254 C255 1.391 . S
C255 H243 0.950 . S
C255 C251 1.393 1_545 S
C255 C254 1.391 . S
C256 H246 0.950 . S
C256 C257 1.386 . S
C256 C258 1.391 . S
C257 C256 1.386 . S
C257 C261 1.393 1_545 S
C258 H247 0.950 . S
C258 C256 1.391 . S
C258 C259 1.400 . S
C259 C253 1.490 1_545 S
C259 C258 1.400 . S
C259 C260 1.398 1_545 S
C260 H248 0.950 . S
C260 C259 1.398 1_565 S
C260 C261 1.391 . S
C261 H249 0.950 . S
C261 C257 1.393 1_565 S
C261 C260 1.391 . S
H262 C270 0.950 . S
H263 C275 0.950 . S
H264 C272 0.950 . S
H265 C274 0.950 . S
H266 C276 0.950 . S
H267 C278 0.950 . S
H268 C280 0.950 . S
H269 C281 0.950 . S
C270 H262 0.950 . S
C270 C271 1.401 . S
C270 C272 1.391 . S
C271 C270 1.401 . S
C271 C275 1.378 1_455 S
C272 H264 0.950 . S
C272 C270 1.391 . S
C272 C273 1.400 . S
C273 C272 1.400 . S
C273 C274 1.398 1_455 S
C273 C279 1.490 1_455 S
C274 H265 0.950 . S
C274 C273 1.398 1_655 S
C274 C275 1.391 . S
C275 H263 0.950 . S
C275 C271 1.378 1_655 S
C275 C274 1.391 . S
C276 H266 0.950 . S
C276 C277 1.386 . S
C276 C278 1.391 . S
C277 C276 1.386 . S
C277 C281 1.393 1_655 S
C278 H267 0.950 . S
C278 C276 1.391 . S
C278 C279 1.418 . S
C279 C273 1.490 1_655 S
C279 C278 1.418 . S
C279 C280 1.382 1_655 S
C280 H268 0.950 . S
C280 C279 1.382 1_455 S
C280 C281 1.391 . S
C281 H269 0.950 . S
C281 C277 1.393 1_455 S
C281 C280 1.391 . S
H282 C290 0.950 . S
H283 C295 0.950 . S
H284 C292 0.950 . S
H285 C294 0.950 . S
H286 C296 0.950 . S
H287 C298 0.950 . S
H288 C300 0.950 . S
H289 C301 0.950 . S
C290 H282 0.950 . S
C290 C291 1.386 1_565 S
C290 C292 1.391 . S
C291 C290 1.386 1_545 S
C291 C295 1.393 . S
C292 H284 0.950 . S
C292 C290 1.391 . S
C292 C293 1.381 1_565 S
C293 C292 1.381 1_545 S
C293 C294 1.419 . S
C293 C299 1.490 . S
C294 H285 0.950 . S
C294 C293 1.419 . S
C294 C295 1.391 . S
C295 H283 0.950 . S
C295 C291 1.393 . S
C295 C294 1.391 . S
C296 H286 0.950 . S
C296 C297 1.388 . S
C296 C298 1.391 . S
C297 C296 1.388 . S
C297 C301 1.391 1_545 S
C298 H287 0.950 . S
C298 C296 1.391 . S
C298 C299 1.404 . S
C299 C293 1.490 . S
C299 C298 1.404 . S
C299 C300 1.394 1_545 S
C300 H288 0.950 . S
C300 C299 1.394 1_565 S
C300 C301 1.391 . S
C301 H289 0.950 . S
C301 C297 1.391 1_565 S
C301 C300 1.391 . S
H302 C310 0.950 . S
H303 C315 0.950 . S
H304 C312 0.950 . S
H305 C314 0.950 . S
H306 C316 0.950 . S
H307 C318 0.950 . S
H308 C320 0.950 . S
H309 C321 0.950 . S
C310 H302 0.950 . S
C310 C311 1.397 . S
C310 C312 1.391 . S
C311 C310 1.397 . S
C311 C315 1.381 1_655 S
C312 H304 0.950 . S
C312 C310 1.391 . S
C312 C313 1.413 . S
C313 C312 1.413 . S
C313 C314 1.386 1_655 S
C313 C319 1.491 . S
C314 H305 0.950 . S
C314 C313 1.386 1_455 S
C314 C315 1.391 . S
C315 H303 0.950 . S
C315 C311 1.381 1_455 S
C315 C314 1.391 . S
C316 H306 0.950 . S
C316 C317 1.383 1_455 S
C316 C318 1.391 . S
C317 C316 1.383 1_655 S
C317 C321 1.395 . S
C318 H307 0.950 . S
C318 C316 1.391 . S
C318 C319 1.399 1_455 S
C319 C313 1.491 . S
C319 C318 1.399 1_655 S
C319 C320 1.399 . S
C320 H308 0.950 . S
C320 C319 1.399 . S
C320 C321 1.391 . S
C321 H309 0.950 . S
C321 C317 1.395 . S
C321 C320 1.391 . S
H322 C330 0.950 . S
H323 C335 0.950 . S
H324 C332 0.950 . S
H325 C334 0.950 . S
H326 C336 0.950 . S
H327 C338 0.950 . S
H328 C340 0.950 . S
H329 C341 0.950 . S
C330 H322 0.950 . S
C330 C331 1.386 1_545 S
C330 C332 1.391 . S
C331 C330 1.386 1_565 S
C331 C335 1.393 . S
C332 H324 0.950 . S
C332 C330 1.391 . S
C332 C333 1.384 1_545 S
C333 C332 1.384 1_565 S
C333 C334 1.415 . S
C333 C339 1.490 . S
C334 H325 0.950 . S
C334 C333 1.415 . S
C334 C335 1.391 . S
C335 H323 0.950 . S
C335 C331 1.393 . S
C335 C334 1.391 . S
C336 H326 0.950 . S
C336 C337 1.384 1_565 S
C336 C338 1.391 . S
C337 C336 1.384 1_545 S
C337 C341 1.394 . S
C338 H327 0.950 . S
C338 C336 1.391 . S
C338 C339 1.398 . S
C339 C333 1.490 . S
C339 C338 1.398 . S
C339 C340 1.400 1_565 S
C340 H328 0.950 . S
C340 C339 1.400 1_545 S
C340 C341 1.391 . S
C341 H329 0.950 . S
C341 C337 1.394 . S
C341 C340 1.391 . S
H342 C350 0.950 . S
H343 C355 0.950 . S
H344 C352 0.950 . S
H345 C354 0.950 . S
H346 C356 0.950 . S
H347 C358 0.950 . S
H348 C360 0.950 . S
H349 C361 0.950 . S
C350 H342 0.950 . S
C350 C351 1.386 . S
C350 C352 1.391 . S
C351 C350 1.386 . S
C351 C355 1.393 1_455 S
C352 H344 0.950 . S
C352 C350 1.391 . S
C352 C353 1.400 . S
C353 C352 1.400 . S
C353 C354 1.398 1_455 S
C353 C359 1.491 1_455 S
C354 H345 0.950 . S
C354 C353 1.398 1_655 S
C354 C355 1.391 . S
C355 H343 0.950 . S
C355 C351 1.393 1_655 S
C355 C354 1.391 . S
C356 H346 0.950 . S
C356 C357 1.388 . S
C356 C358 1.391 . S
C357 C356 1.388 . S
C357 C361 1.391 1_655 S
C358 H347 0.950 . S
C358 C356 1.391 . S
C358 C359 1.399 . S
C359 C353 1.491 1_655 S
C359 C358 1.399 . S
C359 C360 1.399 1_655 S
C360 H348 0.950 . S
C360 C359 1.399 1_455 S
C360 C361 1.391 . S
C361 H349 0.950 . S
C361 C357 1.391 1_455 S
C361 C360 1.391 . S
C217 C75 1.399 1_565 S
C211 C5 1.394 1_545 S
C237 C163 1.477 1_655 S
C231 C23 1.468 . S
C257 C83 1.406 . S
C251 C3 1.394 . S
C277 C171 1.480 1_655 S
C271 C14 1.477 . S
C297 C143 1.479 . S
C291 C1 1.475 1_545 S
C317 C46 1.399 1_655 S
C311 C16 1.394 1_655 S
C337 C134 1.479 . S
C331 C10 1.474 . S
C351 C18 1.391 . S
C357 C55 1.402 1_655 S
