# Generated by pormake.
# Topology sit, (3,6)-cn, num edge types: 1
# Building blocks:
#     Node 0, Type 0, BuildingBlock: WUSLED_clean_sbu_0, # of connection points: 3
#     Node 1, Type 0, BuildingBlock: WUSLED_clean_sbu_0, # of connection points: 3
#     Node 2, Type 0, BuildingBlock: WUSLED_clean_sbu_0, # of connection points: 3
#     Node 3, Type 0, BuildingBlock: WUSLED_clean_sbu_0, # of connection points: 3
#     Node 4, Type 1, BuildingBlock: MIDCAF_clean_sbu_0, # of connection points: 6
#     Node 5, Type 1, BuildingBlock: MIDCAF_clean_sbu_0, # of connection points: 6
#     Edge 6, Type (0, 1), BuildingBlock: XIVTED_clean_linker_0, # of connection points: 2
#     Edge 7, Type (0, 1), BuildingBlock: XIVTED_clean_linker_0, # of connection points: 2
#     Edge 8, Type (0, 1), BuildingBlock: XIVTED_clean_linker_0, # of connection points: 2
#     Edge 9, Type (0, 1), BuildingBlock: XIVTED_clean_linker_0, # of connection points: 2
#     Edge 10, Type (0, 1), BuildingBlock: XIVTED_clean_linker_0, # of connection points: 2
#     Edge 11, Type (0, 1), BuildingBlock: XIVTED_clean_linker_0, # of connection points: 2
#     Edge 12, Type (0, 1), BuildingBlock: XIVTED_clean_linker_0, # of connection points: 2
#     Edge 13, Type (0, 1), BuildingBlock: XIVTED_clean_linker_0, # of connection points: 2
#     Edge 14, Type (0, 1), BuildingBlock: XIVTED_clean_linker_0, # of connection points: 2
#     Edge 15, Type (0, 1), BuildingBlock: XIVTED_clean_linker_0, # of connection points: 2
#     Edge 16, Type (0, 1), BuildingBlock: XIVTED_clean_linker_0, # of connection points: 2
#     Edge 17, Type (0, 1), BuildingBlock: XIVTED_clean_linker_0, # of connection points: 2
# Relax obj value: 0.107
# Max RMSD: 0.192
# Mean RMSD: 0.104
data_MOF--net-sit--node1-WUSLED_clean_sbu_0--node2-MIDCAF_clean_sbu_0--edge1-XIVTED_clean_linker_0
_symmetry_space_group_name_H-M    P1
_symmetry_Int_Tables_number       1
_symmetry_cell_setting            triclinic
loop_
_symmetry_equiv_pos_as_xyz
'x, y, z'
_cell_length_a     30.175834
_cell_length_b     40.885853
_cell_length_c     46.447716
_cell_angle_alpha  90.1325
_cell_angle_beta   88.974048
_cell_angle_gamma 83.950118
loop_
_atom_site_label
_atom_site_type_symbol
_atom_site_fract_x
_atom_site_fract_y
_atom_site_fract_z
_atom_type_partial_charge
C0 C 0.95711 0.35128 0.02368 0.0
C1 C 0.97183 0.37656 0.0068 0.0
C2 C 0.89527 0.39606 0.99535 0.0
C3 C 0.94122 0.39871 0.99273 0.0
C4 C 0.88057 0.37125 0.01302 0.0
C5 C 0.91134 0.34894 0.02702 0.0
U6 U 0.07712 0.32355 0.03534 0.0
O7 O 0.11433 0.3038 0.07294 0.0
O8 O 0.1159 0.27492 0.03296 0.0
C9 C 0.1264 0.27536 0.06032 0.0
C10 C 0.98996 0.32693 0.03675 0.0
C11 C 0.11741 0.24621 0.07714 0.0
C12 C 0.0676 0.20636 0.09261 0.0
C13 C 0.07643 0.23304 0.07536 0.0
C14 C 0.14077 0.20552 0.11336 0.0
C15 C 0.09943 0.19252 0.11215 0.0
C16 C 0.14963 0.23207 0.09601 0.0
C17 C 0.15456 0.38294 -0.00044 0.0
C18 C 0.23215 0.37377 0.98395 0.0
C19 C 0.19419 0.42905 0.98503 0.0
C20 C 0.15551 0.41676 0.99529 0.0
C21 C 0.23278 0.40768 0.97879 0.0
C22 C 0.19327 0.36147 0.99424 0.0
C23 C 0.11188 0.371 0.00779 0.0
O24 O 0.01486 0.30871 0.01808 0.0
O25 O 0.01304 0.33835 0.05755 0.0
O26 O 0.10079 0.37271 0.03528 0.0
O27 O 0.10226 0.34384 0.99523 0.0
H28 H 0.00712 0.3788 0.00409 0.0
H29 H 0.95356 0.41774 0.97955 0.0
H30 H 0.8454 0.36838 0.01521 0.0
H31 H 0.89946 0.32954 0.03996 0.0
H32 H 0.03564 0.19679 0.0908 0.0
H33 H 0.05106 0.24366 0.06093 0.0
H34 H 0.16581 0.19597 0.12845 0.0
H35 H 0.18136 0.24202 0.09776 0.0
H36 H 0.26122 0.35664 0.97916 0.0
H37 H 0.19377 0.4553 0.9818 0.0
H38 H 0.12592 0.43369 -0.00065 0.0
H39 H 0.19315 0.33524 0.9974 0.0
C40 C 0.90248 0.71354 0.02548 0.0
C41 C 0.91454 0.69303 0.00172 0.0
C42 C 0.83934 0.67676 -9e-05 0.0
C43 C 0.8833 0.67498 0.98898 0.0
C44 C 0.82767 0.69685 0.02419 0.0
C45 C 0.859 0.71513 0.03682 0.0
U46 U 0.02255 0.72468 0.03207 0.0
O47 O 0.05971 0.76806 0.02952 0.0
O48 O 0.06448 0.73695 0.06804 0.0
C49 C 0.07456 0.76428 0.05588 0.0
C50 C 0.93575 0.73275 0.03828 0.0
C51 C 0.06885 0.79379 0.07435 0.0
C52 C 0.02285 0.8407 0.09503 0.0
C53 C 0.02778 0.81327 0.07669 0.0
C54 C 0.10006 0.82956 0.10867 0.0
C55 C 0.05883 0.84902 0.1115 0.0
C56 C 0.10496 0.80226 0.09026 0.0
C57 C 0.0975 0.65852 0.98875 0.0
C58 C 0.17835 0.65242 0.9859 0.0
C59 C 0.13629 0.6186 0.95597 0.0
C60 C 0.09666 0.63374 0.96799 0.0
C61 C 0.17755 0.62801 0.96453 0.0
C62 C 0.1385 0.66769 -0.00211 0.0
C63 C 0.05498 0.67457 -4e-05 0.0
O64 O 0.96186 0.71673 0.05705 0.0
O65 O 0.95759 0.74946 0.01964 0.0
O66 O 0.04237 0.70384 0.98951 0.0
O67 O 0.048 0.67246 0.02786 0.0
H68 H 0.94811 0.69128 0.99276 0.0
H69 H 0.89344 0.66029 0.97011 0.0
H70 H 0.79435 0.69844 0.03347 0.0
H71 H 0.84926 0.73054 0.05535 0.0
H72 H 0.99077 0.85528 0.09639 0.0
H73 H -0.00053 0.80711 0.06453 0.0
H74 H 0.12827 0.83476 0.12135 0.0
H75 H 0.13688 0.78743 0.08878 0.0
H76 H 0.20965 0.66039 0.99269 0.0
H77 H 0.13462 0.59962 0.93983 0.0
H78 H 0.06521 0.62631 0.96083 0.0
H79 H 0.1396 0.68686 0.01392 0.0
C80 C 0.46643 0.8335 0.51739 0.0
C81 C 0.46685 0.86769 0.51451 0.0
C82 C 0.40162 0.8703 0.48426 0.0
C83 C 0.43449 0.88597 0.49828 0.0
C84 C 0.40083 0.83617 0.48765 0.0
C85 C 0.43291 0.81797 0.50413 0.0
U86 U 0.58828 0.81926 0.53456 0.0
O87 O 0.62393 0.80332 0.5739 0.0
O88 O 0.63507 0.77421 0.53417 0.0
C89 C 0.64206 0.7758 0.56199 0.0
C90 C 0.50285 0.8135 0.5319 0.0
C91 C 0.63639 0.74575 0.57849 0.0
C92 C 0.59381 0.7003 0.59083 0.0
C93 C 0.59992 0.72783 0.57393 0.0
C94 C 0.66073 0.70815 0.61688 0.0
C95 C 0.62382 0.69033 0.61281 0.0
C96 C 0.66692 0.73554 0.59986 0.0
C97 C 0.65867 0.88449 0.50183 0.0
C98 C 0.73863 0.87979 0.49285 0.0
C99 C 0.694 0.93171 0.48495 0.0
C100 C 0.65588 0.91764 0.49385 0.0
C101 C 0.73571 0.9128 0.4838 0.0
C102 C 0.70036 0.86571 0.50178 0.0
C103 C 0.61722 0.86981 0.50812 0.0
O104 O 0.53253 0.79784 0.51436 0.0
O105 O 0.52078 0.82763 0.55366 0.0
O106 O 0.60318 0.8709 0.53509 0.0
O107 O 0.61308 0.8416 0.49535 0.0
H108 H 0.49285 0.88017 0.52419 0.0
H109 H 0.43616 0.91216 0.49581 0.0
H110 H 0.3756 0.8235 0.47731 0.0
H111 H 0.4322 0.7916 0.50593 0.0
H112 H 0.56534 0.687 0.58681 0.0
H113 H 0.57585 0.73537 0.55757 0.0
H114 H 0.6841 0.70167 0.63387 0.0
H115 H 0.69512 0.74919 0.60379 0.0
H116 H 0.77018 0.86447 0.492 0.0
H117 H 0.69071 0.95731 0.47859 0.0
H118 H 0.62394 0.9325 0.49385 0.0
H119 H 0.7031 0.84003 0.50787 0.0
C120 C 0.40782 0.21842 0.51621 0.0
C121 C 0.3851 0.22972 0.49141 0.0
C122 C 0.35478 0.17718 0.48603 0.0
C123 C 0.35909 0.2093 0.47642 0.0
C124 C 0.37549 0.16646 0.51169 0.0
C125 C 0.40179 0.18682 0.52661 0.0
U126 U 0.52748 0.23317 0.52548 0.0
O127 O 0.56189 0.27801 0.52456 0.0
O128 O 0.5668 0.24598 0.5625 0.0
C129 C 0.57633 0.2738 0.55097 0.0
C130 C 0.4404 0.23849 0.52943 0.0
C131 C 0.56973 0.30276 0.56998 0.0
C132 C 0.52163 0.34491 0.59569 0.0
C133 C 0.52704 0.31837 0.57636 0.0
C134 C 0.60156 0.3408 0.60192 0.0
C135 C 0.55882 0.35618 0.60903 0.0
C136 C 0.60689 0.31437 0.58259 0.0
C137 C 0.61078 0.17081 0.48482 0.0
C138 C 0.68894 0.15507 0.49459 0.0
C139 C 0.6596 0.1442 0.44771 0.0
C140 C 0.61753 0.15825 0.45683 0.0
C141 C 0.69581 0.14223 0.46652 0.0
C142 C 0.64681 0.16934 0.50364 0.0
C143 C 0.56567 0.1845 0.49389 0.0
O144 O 0.46622 0.22387 0.54914 0.0
O145 O 0.46222 0.25582 0.51123 0.0
O146 O 0.55165 0.21342 0.48324 0.0
O147 O 0.55525 0.18151 0.52129 0.0
H148 H 0.38855 0.25405 0.48303 0.0
H149 H 0.34273 0.21854 0.45706 0.0
H150 H 0.37278 0.14186 0.51966 0.0
H151 H 0.41849 0.17732 0.54576 0.0
H152 H 0.48828 0.35638 0.60039 0.0
H153 H 0.49795 0.30974 0.56673 0.0
H154 H 0.63088 0.34834 0.61209 0.0
H155 H 0.6401 0.30253 0.57794 0.0
H156 H 0.71595 0.15372 0.50973 0.0
H157 H 0.66381 0.13524 0.42577 0.0
H158 H 0.59012 0.15929 0.44197 0.0
H159 H 0.64236 0.17896 0.52537 0.0
Zn160 Zn 0.06447 0.08575 0.34566 0.0
Zn161 Zn 0.07496 0.96069 0.3463 0.0
Zn162 Zn 0.07047 0.02236 0.34489 0.0
C163 C 0.05798 0.97726 0.2898 0.0
C164 C 0.00541 0.97977 0.38213 0.0
O165 O 0.12982 0.03774 0.36731 0.0
O166 O 0.12507 0.09124 0.35879 0.0
C167 C 0.05898 0.06832 0.28832 0.0
O168 O 0.06852 1.00498 0.29939 0.0
O169 O 0.05369 0.95389 0.30695 0.0
O170 O 0.03292 0.95461 0.37863 0.0
O171 O 0.01197 1.00694 0.36945 0.0
O172 O 0.05144 0.09312 0.30456 0.0
O173 O 0.069 0.03951 0.29916 0.0
O174 O 0.00844 0.04179 0.3685 0.0
O175 O 0.01492 0.09487 0.37391 0.0
C176 C 0.99385 0.07036 0.37871 0.0
O177 O 0.13372 1.00292 0.36605 0.0
O178 O 0.13915 0.95047 0.35353 0.0
C179 C 0.14574 0.06573 0.36925 0.0
C180 C 0.1558 0.97412 0.36519 0.0
Zn181 Zn 0.54207 0.58937 0.84087 0.0
Zn182 Zn 0.58156 0.46535 0.84969 0.0
Zn183 Zn 0.56393 0.52664 0.84587 0.0
C184 C 0.56325 0.47707 0.79249 0.0
C185 C 0.50635 0.47865 0.88258 0.0
O186 O 0.6142 0.55015 0.87075 0.0
O187 O 0.58497 0.60206 0.86969 0.0
C188 C 0.5653 0.56815 0.78596 0.0
O189 O 0.56756 0.50655 0.80109 0.0
O190 O 0.56435 0.45389 0.81041 0.0
O191 O 0.5389 0.45661 0.88108 0.0
O192 O 0.50813 0.50601 0.86904 0.0
O193 O 0.55533 0.59465 0.79963 0.0
O194 O 0.56845 0.54031 0.79922 0.0
O195 O 0.4969 0.54021 0.86592 0.0
O196 O 0.47893 0.59188 0.8529 0.0
C197 C 0.46886 0.56627 0.86538 0.0
O198 O 0.62673 0.51584 0.87018 0.0
O199 O 0.64543 0.46358 0.85895 0.0
C200 C 0.61431 0.58037 0.87871 0.0
C201 C 0.6547 0.48974 0.87079 0.0
H202 H 0.01972 0.18625 0.13986 0.0
H203 H 0.12247 0.04761 0.24748 0.0
H204 H 0.15427 0.13904 0.13157 0.0
H205 H 0.99467 0.1042 0.25893 0.0
H206 H 0.12869 0.07105 0.199 0.0
H207 H 0.00452 0.14713 0.17719 0.0
C208 C 0.04594 0.16732 0.14547 0.0
C209 C 0.08856 0.16632 0.13264 0.0
C210 C 0.09879 0.07768 0.21186 0.0
C211 C 0.07149 0.12158 0.17615 0.0
C212 C 0.09501 0.06396 0.23931 0.0
C213 C 0.05798 0.07401 0.25703 0.0
C214 C 0.06524 0.10154 0.20231 0.0
C215 C 0.02379 0.09592 0.24585 0.0
C216 C 0.03728 0.14504 0.16702 0.0
C217 C 0.12121 0.1413 0.14128 0.0
N218 N 0.02844 0.1092 0.21937 0.0
N219 N 0.11216 0.12018 0.1627 0.0
H220 H 0.98617 0.86719 0.14652 0.0
H221 H 0.11299 0.98766 0.24375 0.0
H222 H 0.1179 0.8934 0.12575 0.0
H223 H 0.98837 0.95113 0.26666 0.0
H224 H 0.10855 0.96373 0.19533 0.0
H225 H 0.97991 0.90781 0.18511 0.0
C226 C 0.01356 0.88185 0.14968 0.0
C227 C 0.05287 0.87644 0.13294 0.0
C228 C 0.08167 0.96165 0.21075 0.0
C229 C 0.04623 0.92281 0.17784 0.0
C230 C 0.08396 0.97566 0.2382 0.0
C231 C 0.05095 0.97132 0.25903 0.0
C232 C 0.04611 0.94329 0.20435 0.0
C233 C 0.01455 0.95487 0.25112 0.0
C234 C 0.01007 0.90497 0.17195 0.0
C235 C 0.08736 0.89611 0.1385 0.0
N236 N 0.01331 0.9412 0.22456 0.0
N237 N 0.08345 0.91814 0.16067 0.0
H238 H 0.68446 0.64341 0.63689 0.0
H239 H 0.50271 0.58537 0.74655 0.0
H240 H 0.5434 0.67481 0.63443 0.0
H241 H 0.64374 0.55936 0.75549 0.0
H242 H 0.51633 0.60707 0.69859 0.0
H243 H 0.66976 0.60339 0.67405 0.0
C244 C 0.65038 0.64179 0.64397 0.0
C245 C 0.61521 0.66298 0.63268 0.0
C246 C 0.54435 0.59593 0.71063 0.0
C247 C 0.59814 0.61679 0.675 0.0
C248 C 0.53647 0.5832 0.73785 0.0
C249 C 0.57216 0.57044 0.75469 0.0
C250 C 0.58841 0.59661 0.7005 0.0
C251 C 0.61538 0.56873 0.74287 0.0
C252 C 0.64201 0.61874 0.66505 0.0
C253 C 0.57166 0.65904 0.64224 0.0
N254 N 0.62245 0.58226 0.71663 0.0
N255 N 0.56448 0.63674 0.663 0.0
H256 H 0.61117 0.40622 0.61968 0.0
H257 H 0.49826 0.44271 0.77388 0.0
H258 H 0.49371 0.36483 0.65103 0.0
H259 H 0.60825 0.49291 0.74304 0.0
H260 H 0.49054 0.42019 0.72594 0.0
H261 H 0.60628 0.44324 0.66146 0.0
C262 C 0.58414 0.40507 0.63517 0.0
C263 C 0.5531 0.38199 0.63192 0.0
C264 C 0.51605 0.43648 0.72933 0.0
C265 C 0.54719 0.42451 0.67966 0.0
C266 C 0.52035 0.4494 0.75672 0.0
C267 C 0.55408 0.46946 0.76232 0.0
C268 C 0.54643 0.44295 0.70736 0.0
C269 C 0.58177 0.47755 0.73943 0.0
C270 C 0.58124 0.42638 0.65892 0.0
C271 C 0.51829 0.3822 0.65239 0.0
N272 N 0.57789 0.46372 0.71294 0.0
N273 N 0.51663 0.40279 0.67545 0.0
H274 H 0.23612 0.45458 0.93696 0.0
H275 H 0.50263 0.44263 0.9315 0.0
H276 H 0.32077 0.39043 0.99134 0.0
H277 H 0.41907 0.49781 0.87043 0.0
H278 H 0.43599 0.42743 0.95664 0.0
H279 H 0.30227 0.47503 0.9155 0.0
C280 C 0.26861 0.44497 0.94458 0.0
C281 C 0.27286 0.42069 0.96601 0.0
C282 C 0.43212 0.44314 0.93792 0.0
C283 C 0.34885 0.44377 0.9412 0.0
C284 C 0.47013 0.45184 0.92361 0.0
C285 C 0.4662 0.47192 0.89916 0.0
C286 C 0.38981 0.45433 0.92755 0.0
C287 C 0.42344 0.48297 0.88964 0.0
C288 C 0.30639 0.45653 0.93217 0.0
C289 C 0.3159 0.40882 0.97465 0.0
N290 N 0.38683 0.47399 0.90383 0.0
N291 N 0.35219 0.42045 0.96221 0.0
H292 H 0.85034 0.61539 0.97421 0.0
H293 H 0.59972 0.62842 0.91879 0.0
H294 H 0.75106 0.69744 0.9915 0.0
H295 H 0.70272 0.55664 0.88525 0.0
H296 H 0.65331 0.64905 0.95088 0.0
H297 H 0.79546 0.58898 0.94665 0.0
C298 C 0.81707 0.62789 0.97229 0.0
C299 C 0.80554 0.65891 0.98514 0.0
C300 C 0.66431 0.6286 0.93672 0.0
C301 C 0.74244 0.62846 0.95393 0.0
C302 C 0.6337 0.61679 0.91836 0.0
C303 C 0.64678 0.5906 0.89947 0.0
C304 C 0.70866 0.61432 0.93618 0.0
C305 C 0.69112 0.57637 0.89995 0.0
C306 C 0.78574 0.61268 0.95664 0.0
C307 C 0.76156 0.67344 0.98237 0.0
N308 N 0.72067 0.58854 0.91794 0.0
N309 N 0.7318 0.65817 0.96703 0.0
H310 H 0.81399 0.4275 0.01256 0.0
H311 H 0.738 0.46598 0.85349 0.0
H312 H 0.90329 0.41359 0.93894 0.0
H313 H 0.66272 0.50735 0.92697 0.0
H314 H 0.80104 0.45019 0.8846 0.0
H315 H 0.75932 0.45924 0.98234 0.0
C316 C 0.82219 0.43132 0.99011 0.0
C317 C 0.86314 0.4177 0.97821 0.0
C318 C 0.77118 0.46337 0.89393 0.0
C319 C 0.80091 0.45391 0.94357 0.0
C320 C 0.73534 0.4725 0.87613 0.0
C321 C 0.69548 0.48809 0.88776 0.0
C322 C 0.76658 0.46897 0.92374 0.0
C323 C 0.69323 0.49561 0.91725 0.0
C324 C 0.79117 0.44965 0.97294 0.0
C325 C 0.87229 0.42377 0.94908 0.0
N326 N 0.72808 0.48542 0.9344 0.0
N327 N 0.84124 0.44105 0.93271 0.0
H328 H 0.19208 0.61707 0.90705 0.0
H329 H 0.44913 0.54813 0.9204 0.0
H330 H 0.25788 0.60633 0.98874 0.0
H331 H 0.38955 0.58843 0.84281 0.0
H332 H 0.37613 0.55817 0.94526 0.0
H333 H 0.26133 0.59546 0.88279 0.0
C334 C 0.22101 0.6098 0.91993 0.0
C335 C 0.21926 0.6136 0.94997 0.0
C336 C 0.37904 0.56443 0.92271 0.0
C337 C 0.29888 0.58908 0.92224 0.0
C338 C 0.42043 0.5585 0.90855 0.0
C339 C 0.4249 0.56736 0.8796 0.0
C340 C 0.34224 0.57923 0.90765 0.0
C341 C 0.3872 0.5812 0.86516 0.0
C342 C 0.26061 0.59763 0.90604 0.0
C343 C 0.258 0.60417 0.96551 0.0
N344 N 0.34745 0.58676 0.87934 0.0
N345 N 0.29636 0.59238 0.95145 0.0
H346 H 0.82187 0.90508 0.50297 0.0
H347 H 0.91934 0.99475 0.36672 0.0
H348 H 0.74003 0.95257 0.4367 0.0
H349 H 0.00048 0.95475 0.43609 0.0
H350 H 0.85245 0.98364 0.39406 0.0
H351 H 0.8872 0.92599 0.48055 0.0
C352 C 0.81762 0.91996 0.48376 0.0
C353 C 0.7754 0.92695 0.47166 0.0
C354 C 0.88478 0.97783 0.40362 0.0
C355 C 0.84999 0.95109 0.44592 0.0
C356 C 0.9228 0.98475 0.38821 0.0
C357 C 0.96506 0.97677 0.39971 0.0
C358 C 0.88927 0.96201 0.43043 0.0
C359 C 0.96824 0.96172 0.42677 0.0
C360 C 0.85488 0.93206 0.47105 0.0
C361 C 0.7718 0.9468 0.44697 0.0
N362 N 0.93084 0.95469 0.4412 0.0
N363 N 0.8086 0.95795 0.43483 0.0
H364 H 0.3583 0.16799 0.42772 0.0
H365 H 0.15841 0.05481 0.42634 0.0
H366 H 0.29551 0.13478 0.50492 0.0
H367 H 0.221 0.08981 0.35004 0.0
H368 H 0.2161 0.07593 0.45558 0.0
H369 H 0.3151 0.13306 0.39914 0.0
C370 C 0.33529 0.15338 0.43866 0.0
C371 C 0.33 0.15473 0.46874 0.0
C372 C 0.21796 0.07825 0.43238 0.0
C373 C 0.28055 0.11429 0.43608 0.0
C374 C 0.18549 0.06568 0.4157 0.0
C375 C 0.18584 0.06988 0.38578 0.0
C376 C 0.25036 0.09567 0.41898 0.0
C377 C 0.22017 0.08567 0.37305 0.0
C378 C 0.31086 0.13321 0.42234 0.0
C379 C 0.30058 0.13456 0.48179 0.0
N380 N 0.25084 0.09824 0.38973 0.0
N381 N 0.27661 0.11542 0.46537 0.0
H382 H 0.37794 0.85354 0.43027 0.0
H383 H 0.18104 0.99783 0.41679 0.0
H384 H 0.35278 0.92999 0.49444 0.0
H385 H 0.22618 0.93169 0.34757 0.0
H386 H 0.24629 0.97679 0.4446 0.0
H387 H 0.32383 0.8837 0.39917 0.0
C388 C 0.36085 0.87668 0.43783 0.0
C389 C 0.36947 0.8891 0.46509 0.0
C390 C 0.24247 0.96742 0.42306 0.0
C391 C 0.3075 0.92404 0.42947 0.0
C392 C 0.20567 0.97989 0.40703 0.0
C393 C 0.19874 0.96693 0.37973 0.0
C394 C 0.27197 0.94144 0.41176 0.0
C395 C 0.23038 0.94238 0.36857 0.0
C396 C 0.33022 0.89408 0.41997 0.0
C397 C 0.34705 0.91956 0.47356 0.0
N398 N 0.26532 0.93023 0.38472 0.0
N399 N 0.31671 0.93587 0.45592 0.0
H400 H 0.71647 0.08823 0.43156 0.0
H401 H 0.97865 0.1035 0.42918 0.0
H402 H 0.77753 0.16223 0.47882 0.0
H403 H 0.91342 0.05142 0.36443 0.0
H404 H 0.90657 0.11749 0.45377 0.0
H405 H 0.78999 0.06671 0.41279 0.0
C406 C 0.74525 0.10001 0.43799 0.0
C407 C 0.74061 0.12739 0.45658 0.0
C408 C 0.90809 0.10247 0.43448 0.0
C409 C 0.82493 0.10244 0.4355 0.0
C410 C 0.94913 0.09442 0.42055 0.0
C411 C 0.95182 0.07543 0.39532 0.0
C412 C 0.86949 0.09168 0.42287 0.0
C413 C 0.91276 0.06476 0.38459 0.0
C414 C 0.78722 0.08757 0.42737 0.0
C415 C 0.77937 0.14099 0.46474 0.0
N416 N 0.87306 0.07306 0.39839 0.0
N417 N 0.81984 0.12847 0.45405 0.0
loop_
_geom_bond_atom_site_label_1
_geom_bond_atom_site_label_2
_geom_bond_distance
_geom_bond_site_symmetry_2
_ccdc_geom_bond_type
C0 C1 1.264 . S
C0 C5 1.479 . S
C0 C10 1.465 1_656 S
C1 C0 1.264 . S
C1 C3 1.339 . S
C1 H28 0.931 1_655 S
C2 C3 1.395 . S
C2 C4 1.320 . S
C3 C1 1.339 . S
C3 C2 1.395 . S
C3 H29 0.929 . S
C4 C2 1.320 . S
C4 C5 1.405 . S
C4 H30 0.930 . S
C5 C0 1.479 . S
C5 C4 1.405 . S
C5 H31 0.931 1_556 S
U6 O7 2.454 . S
U6 O8 2.458 . S
U6 C9 2.984 . S
U6 C10 2.847 . S
U6 C23 2.882 . S
U6 O24 2.441 . S
U6 O25 2.420 . S
U6 O26 2.455 . S
U6 O27 2.449 . S
O7 U6 2.454 . S
O7 C9 1.353 . S
O8 U6 2.458 . S
O8 C9 1.286 . S
C9 U6 2.984 . S
C9 O7 1.353 . S
C9 O8 1.286 . S
C9 C11 1.363 . S
C10 C0 1.465 1_454 S
C10 U6 2.847 . S
C10 O24 1.249 . S
C10 O25 1.202 . S
C11 C9 1.363 . S
C11 C13 1.408 . S
C11 C16 1.342 . S
C12 C13 1.310 . S
C12 C15 1.461 . S
C12 H32 0.932 . S
C13 C11 1.408 . S
C13 C12 1.310 . S
C13 H33 0.930 . S
C14 C15 1.474 . S
C14 C16 1.285 . S
C14 H34 0.929 . S
C15 C12 1.461 . S
C15 C14 1.474 . S
C16 C11 1.342 . S
C16 C14 1.285 . S
C16 H35 0.930 . S
C17 C20 1.424 . S
C17 C22 1.245 1_556 S
C17 C23 1.428 1_556 S
C18 C21 1.260 . S
C18 C22 1.477 1_556 S
C18 H36 0.932 . S
C19 C20 1.384 . S
C19 C21 1.479 . S
C19 H37 0.929 . S
C20 C17 1.424 . S
C20 C19 1.384 . S
C20 H38 0.928 . S
C21 C18 1.260 . S
C21 C19 1.479 . S
C22 C17 1.245 1_554 S
C22 C18 1.477 1_554 S
C22 H39 0.932 . S
C23 U6 2.882 . S
C23 C17 1.428 1_554 S
C23 O26 1.301 . S
C23 O27 1.282 . S
O24 U6 2.441 . S
O24 C10 1.249 . S
O25 U6 2.420 . S
O25 C10 1.202 . S
O26 U6 2.455 . S
O26 C23 1.301 . S
O27 U6 2.449 . S
O27 C23 1.282 . S
H28 C1 0.931 1_455 S
H29 C3 0.929 . S
H30 C4 0.930 . S
H31 C5 0.931 1_554 S
H32 C12 0.932 . S
H33 C13 0.930 . S
H34 C14 0.929 . S
H35 C16 0.930 . S
H36 C18 0.932 . S
H37 C19 0.929 . S
H38 C20 0.928 . S
H39 C22 0.932 . S
C40 C41 1.264 . S
C40 C45 1.479 . S
C40 C50 1.465 . S
C41 C40 1.264 . S
C41 C43 1.339 . S
C41 H68 0.931 . S
C42 C43 1.395 . S
C42 C44 1.320 . S
C43 C41 1.339 . S
C43 C42 1.395 . S
C43 H69 0.929 . S
C44 C42 1.320 . S
C44 C45 1.405 . S
C44 H70 0.930 . S
C45 C40 1.479 . S
C45 C44 1.405 . S
C45 H71 0.931 1_556 S
U46 O47 2.454 . S
U46 O48 2.458 1_655 S
U46 C49 2.984 . S
U46 C50 2.847 1_554 S
U46 C63 2.882 1_654 S
U46 O64 2.441 . S
U46 O65 2.420 1_554 S
U46 O66 2.455 1_655 S
U46 O67 2.449 1_654 S
O47 U46 2.454 . S
O47 C49 1.353 . S
O48 U46 2.458 1_455 S
O48 C49 1.286 1_455 S
C49 U46 2.984 . S
C49 O47 1.353 . S
C49 O48 1.286 1_655 S
C49 C51 1.363 . S
C50 C40 1.465 . S
C50 U46 2.847 1_556 S
C50 O64 1.249 1_556 S
C50 O65 1.202 . S
C51 C49 1.363 . S
C51 C53 1.408 . S
C51 C56 1.342 1_655 S
C52 C53 1.310 . S
C52 C55 1.484 . S
C52 H72 0.932 . S
C53 C51 1.408 . S
C53 C52 1.310 . S
C53 H73 0.930 . S
C54 C55 1.454 1_455 S
C54 C56 1.285 . S
C54 H74 0.929 . S
C55 C52 1.484 . S
C55 C54 1.454 1_655 S
C56 C51 1.342 1_455 S
C56 C54 1.285 . S
C56 H75 0.930 . S
C57 C60 1.424 . S
C57 C62 1.245 . S
C57 C63 1.428 . S
C58 C61 1.260 . S
C58 C62 1.477 . S
C58 H76 0.932 . S
C59 C60 1.384 . S
C59 C61 1.479 . S
C59 H77 0.929 . S
C60 C57 1.424 . S
C60 C59 1.384 . S
C60 H78 0.928 . S
C61 C58 1.260 . S
C61 C59 1.479 . S
C62 C57 1.245 . S
C62 C58 1.477 . S
C62 H79 0.935 . S
C63 U46 2.882 1_456 S
C63 C57 1.428 . S
C63 O66 1.301 1_556 S
C63 O67 1.282 . S
O64 U46 2.441 . S
O64 C50 1.249 1_554 S
O65 U46 2.420 1_556 S
O65 C50 1.202 . S
O66 U46 2.455 1_455 S
O66 C63 1.301 1_554 S
O67 U46 2.449 1_456 S
O67 C63 1.282 . S
H68 C41 0.931 . S
H69 C43 0.929 . S
H70 C44 0.930 . S
H71 C45 0.931 1_554 S
H72 C52 0.932 . S
H73 C53 0.930 . S
H74 C54 0.929 . S
H75 C56 0.930 . S
H76 C58 0.932 . S
H77 C59 0.929 . S
H78 C60 0.928 . S
H79 C62 0.935 . S
C80 C81 1.264 . S
C80 C85 1.479 . S
C80 C90 1.465 . S
C81 C80 1.264 . S
C81 C83 1.339 . S
C81 H108 0.931 . S
C82 C83 1.395 . S
C82 C84 1.320 . S
C83 C81 1.339 . S
C83 C82 1.395 . S
C83 H109 0.929 . S
C84 C82 1.320 . S
C84 C85 1.405 . S
C84 H110 0.930 . S
C85 C80 1.479 . S
C85 C84 1.405 . S
C85 H111 0.931 . S
U86 O87 2.454 . S
U86 O88 2.458 . S
U86 C89 2.984 . S
U86 C90 2.847 . S
U86 C103 2.882 . S
U86 O104 2.441 . S
U86 O105 2.420 . S
U86 O106 2.455 . S
U86 O107 2.449 . S
O87 U86 2.454 . S
O87 C89 1.353 . S
O88 U86 2.458 . S
O88 C89 1.286 . S
C89 U86 2.984 . S
C89 O87 1.353 . S
C89 O88 1.286 . S
C89 C91 1.363 . S
C90 C80 1.465 . S
C90 U86 2.847 . S
C90 O104 1.249 . S
C90 O105 1.202 . S
C91 C89 1.363 . S
C91 C93 1.408 . S
C91 C96 1.342 . S
C92 C93 1.310 . S
C92 C95 1.461 . S
C92 H112 0.932 . S
C93 C91 1.408 . S
C93 C92 1.310 . S
C93 H113 0.930 . S
C94 C95 1.474 . S
C94 C96 1.285 . S
C94 H114 0.929 . S
C95 C92 1.461 . S
C95 C94 1.474 . S
C96 C91 1.342 . S
C96 C94 1.285 . S
C96 H115 0.930 . S
C97 C100 1.424 . S
C97 C102 1.245 . S
C97 C103 1.428 . S
C98 C101 1.260 . S
C98 C102 1.477 . S
C98 H116 0.932 . S
C99 C100 1.384 . S
C99 C101 1.479 . S
C99 H117 0.929 . S
C100 C97 1.424 . S
C100 C99 1.384 . S
C100 H118 0.928 . S
C101 C98 1.260 . S
C101 C99 1.479 . S
C102 C97 1.245 . S
C102 C98 1.477 . S
C102 H119 0.932 . S
C103 U86 2.882 . S
C103 C97 1.428 . S
C103 O106 1.301 . S
C103 O107 1.282 . S
O104 U86 2.441 . S
O104 C90 1.249 . S
O105 U86 2.420 . S
O105 C90 1.202 . S
O106 U86 2.455 . S
O106 C103 1.301 . S
O107 U86 2.449 . S
O107 C103 1.282 . S
H108 C81 0.931 . S
H109 C83 0.929 . S
H110 C84 0.930 . S
H111 C85 0.931 . S
H112 C92 0.932 . S
H113 C93 0.930 . S
H114 C94 0.929 . S
H115 C96 0.930 . S
H116 C98 0.932 . S
H117 C99 0.929 . S
H118 C100 0.928 . S
H119 C102 0.932 . S
C120 C121 1.264 . S
C120 C125 1.479 . S
C120 C130 1.465 . S
C121 C120 1.264 . S
C121 C123 1.339 . S
C121 H148 0.931 . S
C122 C123 1.395 . S
C122 C124 1.320 . S
C123 C121 1.339 . S
C123 C122 1.395 . S
C123 H149 0.929 . S
C124 C122 1.320 . S
C124 C125 1.405 . S
C124 H150 0.930 . S
C125 C120 1.479 . S
C125 C124 1.405 . S
C125 H151 0.931 . S
U126 O127 2.454 . S
U126 O128 2.458 . S
U126 C129 2.984 . S
U126 C130 2.847 . S
U126 C143 2.882 . S
U126 O144 2.441 . S
U126 O145 2.420 . S
U126 O146 2.455 . S
U126 O147 2.449 . S
O127 U126 2.454 . S
O127 C129 1.353 . S
O128 U126 2.458 . S
O128 C129 1.286 . S
C129 U126 2.984 . S
C129 O127 1.353 . S
C129 O128 1.286 . S
C129 C131 1.363 . S
C130 C120 1.465 . S
C130 U126 2.847 . S
C130 O144 1.249 . S
C130 O145 1.202 . S
C131 C129 1.363 . S
C131 C133 1.408 . S
C131 C136 1.342 . S
C132 C133 1.310 . S
C132 C135 1.461 . S
C132 H152 0.932 . S
C133 C131 1.408 . S
C133 C132 1.310 . S
C133 H153 0.930 . S
C134 C135 1.474 . S
C134 C136 1.285 . S
C134 H154 0.929 . S
C135 C132 1.461 . S
C135 C134 1.474 . S
C136 C131 1.342 . S
C136 C134 1.285 . S
C136 H155 0.930 . S
C137 C140 1.424 . S
C137 C142 1.245 . S
C137 C143 1.428 . S
C138 C141 1.260 . S
C138 C142 1.477 . S
C138 H156 0.932 . S
C139 C140 1.384 . S
C139 C141 1.479 . S
C139 H157 0.929 . S
C140 C137 1.424 . S
C140 C139 1.384 . S
C140 H158 0.928 . S
C141 C138 1.260 . S
C141 C139 1.479 . S
C142 C137 1.245 . S
C142 C138 1.477 . S
C142 H159 0.932 . S
C143 U126 2.882 . S
C143 C137 1.428 . S
C143 O146 1.301 . S
C143 O147 1.282 . S
O144 U126 2.441 . S
O144 C130 1.249 . S
O145 U126 2.420 . S
O145 C130 1.202 . S
O146 U126 2.455 . S
O146 C143 1.301 . S
O147 U126 2.449 . S
O147 C143 1.282 . S
H148 C121 0.931 . S
H149 C123 0.929 . S
H150 C124 0.930 . S
H151 C125 0.931 . S
H152 C132 0.932 . S
H153 C133 0.930 . S
H154 C134 0.929 . S
H155 C136 0.930 . S
H156 C138 0.932 . S
H157 C139 0.929 . S
H158 C140 0.928 . S
H159 C142 0.932 . S
Zn160 O166 1.920 . S
Zn160 O172 1.898 . S
Zn160 O175 1.905 1_455 S
Zn161 O169 1.905 . S
Zn161 O170 1.898 . S
Zn161 O178 1.920 . S
Zn162 O165 2.080 . S
Zn162 O168 2.114 1_545 S
Zn162 O171 2.120 1_545 S
Zn162 O173 2.120 . S
Zn162 O174 2.114 . S
Zn162 O177 2.080 1_545 S
C163 O168 1.166 . S
C163 O169 1.182 . S
C164 O170 1.167 . S
C164 O171 1.299 . S
O165 Zn162 2.080 . S
O165 C179 1.305 . S
O166 Zn160 1.920 . S
O166 C179 1.234 . S
C167 O172 1.167 . S
C167 O173 1.299 . S
O168 Zn162 2.114 1_565 S
O168 C163 1.166 . S
O169 Zn161 1.905 . S
O169 C163 1.182 . S
O170 Zn161 1.898 . S
O170 C164 1.167 . S
O171 Zn162 2.120 1_565 S
O171 C164 1.299 . S
O172 Zn160 1.898 . S
O172 C167 1.167 . S
O173 Zn162 2.120 . S
O173 C167 1.299 . S
O174 Zn162 2.114 . S
O174 C176 1.166 1_455 S
O175 Zn160 1.905 1_655 S
O175 C176 1.182 . S
C176 O174 1.166 1_655 S
C176 O175 1.182 . S
O177 Zn162 2.080 1_565 S
O177 C180 1.305 . S
O178 Zn161 1.920 . S
O178 C180 1.234 . S
C179 O165 1.305 . S
C179 O166 1.234 . S
C180 O177 1.305 . S
C180 O178 1.234 . S
Zn181 O187 1.920 . S
Zn181 O193 1.898 . S
Zn181 O196 1.905 . S
Zn182 O190 1.905 . S
Zn182 O191 1.898 . S
Zn182 O199 1.920 . S
Zn183 O186 2.080 . S
Zn183 O189 2.114 . S
Zn183 O192 2.120 . S
Zn183 O194 2.120 . S
Zn183 O195 2.114 . S
Zn183 O198 2.080 . S
C184 O189 1.166 . S
C184 O190 1.182 . S
C185 O191 1.167 . S
C185 O192 1.299 . S
O186 Zn183 2.080 . S
O186 C200 1.305 . S
O187 Zn181 1.920 . S
O187 C200 1.234 . S
C188 O193 1.167 . S
C188 O194 1.299 . S
O189 Zn183 2.114 . S
O189 C184 1.166 . S
O190 Zn182 1.905 . S
O190 C184 1.182 . S
O191 Zn182 1.898 . S
O191 C185 1.167 . S
O192 Zn183 2.120 . S
O192 C185 1.299 . S
O193 Zn181 1.898 . S
O193 C188 1.167 . S
O194 Zn183 2.120 . S
O194 C188 1.299 . S
O195 Zn183 2.114 . S
O195 C197 1.166 . S
O196 Zn181 1.905 . S
O196 C197 1.182 . S
C197 O195 1.166 . S
C197 O196 1.182 . S
O198 Zn183 2.080 . S
O198 C201 1.305 . S
O199 Zn182 1.920 . S
O199 C201 1.234 . S
C200 O186 1.305 . S
C200 O187 1.234 . S
C201 O198 1.305 . S
C201 O199 1.234 . S
H202 C208 0.930 . S
H203 C212 0.930 . S
H204 C217 0.929 . S
H205 C215 0.929 . S
H206 C210 0.929 . S
H207 C216 0.929 . S
C208 H202 0.930 . S
C208 C209 1.367 . S
C208 C216 1.378 . S
C209 C208 1.367 . S
C209 C217 1.433 . S
C210 H206 0.929 . S
C210 C212 1.378 . S
C210 C214 1.350 . S
C211 C214 1.463 . S
C211 C216 1.350 . S
C211 N219 1.427 . S
C212 H203 0.930 . S
C212 C210 1.378 . S
C212 C213 1.367 . S
C213 C212 1.367 . S
C213 C215 1.433 . S
C214 C210 1.350 . S
C214 C211 1.463 . S
C214 N218 1.427 . S
C215 H205 0.929 . S
C215 C213 1.433 . S
C215 N218 1.384 . S
C216 H207 0.929 . S
C216 C208 1.378 . S
C216 C211 1.350 . S
C217 H204 0.929 . S
C217 C209 1.433 . S
C217 N219 1.384 . S
N218 C214 1.427 . S
N218 C215 1.384 . S
N219 C211 1.427 . S
N219 C217 1.384 . S
H220 C226 0.930 . S
H221 C230 0.930 . S
H222 C235 0.929 . S
H223 C233 0.929 1_655 S
H224 C228 0.929 . S
H225 C234 0.929 . S
C226 H220 0.930 . S
C226 C227 1.367 1_655 S
C226 C234 1.378 . S
C227 C226 1.367 1_455 S
C227 C235 1.433 . S
C228 H224 0.929 . S
C228 C230 1.378 . S
C228 C232 1.350 . S
C229 C232 1.463 . S
C229 C234 1.350 1_455 S
C229 N237 1.427 . S
C230 H221 0.930 . S
C230 C228 1.378 . S
C230 C231 1.367 . S
C231 C230 1.367 . S
C231 C233 1.433 . S
C232 C228 1.350 . S
C232 C229 1.463 . S
C232 N236 1.427 . S
C233 H223 0.929 1_455 S
C233 C231 1.433 . S
C233 N236 1.384 . S
C234 H225 0.929 . S
C234 C226 1.378 . S
C234 C229 1.350 1_655 S
C235 H222 0.929 . S
C235 C227 1.433 . S
C235 N237 1.384 . S
N236 C232 1.427 . S
N236 C233 1.384 . S
N237 C229 1.427 . S
N237 C235 1.384 . S
H238 C244 0.930 . S
H239 C248 0.930 . S
H240 C253 0.929 . S
H241 C251 0.929 . S
H242 C246 0.929 . S
H243 C252 0.929 . S
C244 H238 0.930 . S
C244 C245 1.367 . S
C244 C252 1.378 . S
C245 C244 1.367 . S
C245 C253 1.433 . S
C246 H242 0.929 . S
C246 C248 1.378 . S
C246 C250 1.350 . S
C247 C250 1.463 . S
C247 C252 1.350 . S
C247 N255 1.427 . S
C248 H239 0.930 . S
C248 C246 1.378 . S
C248 C249 1.367 . S
C249 C248 1.367 . S
C249 C251 1.433 . S
C250 C246 1.350 . S
C250 C247 1.463 . S
C250 N254 1.427 . S
C251 H241 0.929 . S
C251 C249 1.433 . S
C251 N254 1.384 . S
C252 H243 0.929 . S
C252 C244 1.378 . S
C252 C247 1.350 . S
C253 H240 0.929 . S
C253 C245 1.433 . S
C253 N255 1.384 . S
N254 C250 1.427 . S
N254 C251 1.384 . S
N255 C247 1.427 . S
N255 C253 1.384 . S
H256 C262 0.930 . S
H257 C266 0.930 . S
H258 C271 0.929 . S
H259 C269 0.929 . S
H260 C264 0.929 . S
H261 C270 0.929 . S
C262 H256 0.930 . S
C262 C263 1.367 . S
C262 C270 1.378 . S
C263 C262 1.367 . S
C263 C271 1.433 . S
C264 H260 0.929 . S
C264 C266 1.378 . S
C264 C268 1.350 . S
C265 C268 1.463 . S
C265 C270 1.350 . S
C265 N273 1.427 . S
C266 H257 0.930 . S
C266 C264 1.378 . S
C266 C267 1.367 . S
C267 C266 1.367 . S
C267 C269 1.433 . S
C268 C264 1.350 . S
C268 C265 1.463 . S
C268 N272 1.427 . S
C269 H259 0.929 . S
C269 C267 1.433 . S
C269 N272 1.384 . S
C270 H261 0.929 . S
C270 C262 1.378 . S
C270 C265 1.350 . S
C271 H258 0.929 . S
C271 C263 1.433 . S
C271 N273 1.384 . S
N272 C268 1.427 . S
N272 C269 1.384 . S
N273 C265 1.427 . S
N273 C271 1.384 . S
H274 C280 0.930 . S
H275 C284 0.930 . S
H276 C289 0.929 . S
H277 C287 0.929 . S
H278 C282 0.929 . S
H279 C288 0.929 . S
C280 H274 0.930 . S
C280 C281 1.367 . S
C280 C288 1.378 . S
C281 C280 1.367 . S
C281 C289 1.433 . S
C282 H278 0.929 . S
C282 C284 1.378 . S
C282 C286 1.350 . S
C283 C286 1.463 . S
C283 C288 1.350 . S
C283 N291 1.427 . S
C284 H275 0.930 . S
C284 C282 1.378 . S
C284 C285 1.367 . S
C285 C284 1.367 . S
C285 C287 1.433 . S
C286 C282 1.350 . S
C286 C283 1.463 . S
C286 N290 1.427 . S
C287 H277 0.929 . S
C287 C285 1.433 . S
C287 N290 1.384 . S
C288 H279 0.929 . S
C288 C280 1.378 . S
C288 C283 1.350 . S
C289 H276 0.929 . S
C289 C281 1.433 . S
C289 N291 1.384 . S
N290 C286 1.427 . S
N290 C287 1.384 . S
N291 C283 1.427 . S
N291 C289 1.384 . S
H292 C298 0.930 . S
H293 C302 0.930 . S
H294 C307 0.929 . S
H295 C305 0.929 . S
H296 C300 0.929 . S
H297 C306 0.929 . S
C298 H292 0.930 . S
C298 C299 1.367 . S
C298 C306 1.378 . S
C299 C298 1.367 . S
C299 C307 1.433 . S
C300 H296 0.929 . S
C300 C302 1.378 . S
C300 C304 1.350 . S
C301 C304 1.463 . S
C301 C306 1.350 . S
C301 N309 1.427 . S
C302 H293 0.930 . S
C302 C300 1.378 . S
C302 C303 1.367 . S
C303 C302 1.367 . S
C303 C305 1.433 . S
C304 C300 1.350 . S
C304 C301 1.463 . S
C304 N308 1.427 . S
C305 H295 0.929 . S
C305 C303 1.433 . S
C305 N308 1.384 . S
C306 H297 0.929 . S
C306 C298 1.378 . S
C306 C301 1.350 . S
C307 H294 0.929 . S
C307 C299 1.433 . S
C307 N309 1.384 . S
N308 C304 1.427 . S
N308 C305 1.384 . S
N309 C301 1.427 . S
N309 C307 1.384 . S
H310 C316 0.930 . S
H311 C320 0.930 . S
H312 C325 0.929 . S
H313 C323 0.929 . S
H314 C318 0.929 . S
H315 C324 0.929 . S
C316 H310 0.930 . S
C316 C317 1.367 . S
C316 C324 1.378 . S
C317 C316 1.367 . S
C317 C325 1.433 . S
C318 H314 0.929 . S
C318 C320 1.378 . S
C318 C322 1.350 . S
C319 C322 1.463 . S
C319 C324 1.350 . S
C319 N327 1.427 . S
C320 H311 0.930 . S
C320 C318 1.378 . S
C320 C321 1.367 . S
C321 C320 1.367 . S
C321 C323 1.433 . S
C322 C318 1.350 . S
C322 C319 1.463 . S
C322 N326 1.427 . S
C323 H313 0.929 . S
C323 C321 1.433 . S
C323 N326 1.384 . S
C324 H315 0.929 . S
C324 C316 1.378 . S
C324 C319 1.350 . S
C325 H312 0.929 . S
C325 C317 1.433 . S
C325 N327 1.384 . S
N326 C322 1.427 . S
N326 C323 1.384 . S
N327 C319 1.427 . S
N327 C325 1.384 . S
H328 C334 0.930 . S
H329 C338 0.930 . S
H330 C343 0.929 . S
H331 C341 0.929 . S
H332 C336 0.929 . S
H333 C342 0.929 . S
C334 H328 0.930 . S
C334 C335 1.367 . S
C334 C342 1.378 . S
C335 C334 1.367 . S
C335 C343 1.433 . S
C336 H332 0.929 . S
C336 C338 1.378 . S
C336 C340 1.350 . S
C337 C340 1.463 . S
C337 C342 1.350 . S
C337 N345 1.427 . S
C338 H329 0.930 . S
C338 C336 1.378 . S
C338 C339 1.367 . S
C339 C338 1.367 . S
C339 C341 1.433 . S
C340 C336 1.350 . S
C340 C337 1.463 . S
C340 N344 1.427 . S
C341 H331 0.929 . S
C341 C339 1.433 . S
C341 N344 1.384 . S
C342 H333 0.929 . S
C342 C334 1.378 . S
C342 C337 1.350 . S
C343 H330 0.929 . S
C343 C335 1.433 . S
C343 N345 1.384 . S
N344 C340 1.427 . S
N344 C341 1.384 . S
N345 C337 1.427 . S
N345 C343 1.384 . S
H346 C352 0.930 . S
H347 C356 0.930 . S
H348 C361 0.929 . S
H349 C359 0.929 1_455 S
H350 C354 0.929 . S
H351 C360 0.929 . S
C352 H346 0.930 . S
C352 C353 1.367 . S
C352 C360 1.378 . S
C353 C352 1.367 . S
C353 C361 1.433 . S
C354 H350 0.929 . S
C354 C356 1.378 . S
C354 C358 1.350 . S
C355 C358 1.463 . S
C355 C360 1.350 . S
C355 N363 1.427 . S
C356 H347 0.930 . S
C356 C354 1.378 . S
C356 C357 1.367 . S
C357 C356 1.367 . S
C357 C359 1.433 . S
C358 C354 1.350 . S
C358 C355 1.463 . S
C358 N362 1.427 . S
C359 H349 0.929 1_655 S
C359 C357 1.433 . S
C359 N362 1.384 . S
C360 H351 0.929 . S
C360 C352 1.378 . S
C360 C355 1.350 . S
C361 H348 0.929 . S
C361 C353 1.433 . S
C361 N363 1.384 . S
N362 C358 1.427 . S
N362 C359 1.384 . S
N363 C355 1.427 . S
N363 C361 1.384 . S
H364 C370 0.930 . S
H365 C374 0.930 . S
H366 C379 0.929 . S
H367 C377 0.929 . S
H368 C372 0.929 . S
H369 C378 0.929 . S
C370 H364 0.930 . S
C370 C371 1.367 . S
C370 C378 1.378 . S
C371 C370 1.367 . S
C371 C379 1.433 . S
C372 H368 0.929 . S
C372 C374 1.378 . S
C372 C376 1.350 . S
C373 C376 1.463 . S
C373 C378 1.350 . S
C373 N381 1.427 . S
C374 H365 0.930 . S
C374 C372 1.378 . S
C374 C375 1.367 . S
C375 C374 1.367 . S
C375 C377 1.433 . S
C376 C372 1.350 . S
C376 C373 1.463 . S
C376 N380 1.427 . S
C377 H367 0.929 . S
C377 C375 1.433 . S
C377 N380 1.384 . S
C378 H369 0.929 . S
C378 C370 1.378 . S
C378 C373 1.350 . S
C379 H366 0.929 . S
C379 C371 1.433 . S
C379 N381 1.384 . S
N380 C376 1.427 . S
N380 C377 1.384 . S
N381 C373 1.427 . S
N381 C379 1.384 . S
H382 C388 0.930 . S
H383 C392 0.930 . S
H384 C397 0.929 . S
H385 C395 0.929 . S
H386 C390 0.929 . S
H387 C396 0.929 . S
C388 H382 0.930 . S
C388 C389 1.367 . S
C388 C396 1.378 . S
C389 C388 1.367 . S
C389 C397 1.433 . S
C390 H386 0.929 . S
C390 C392 1.378 . S
C390 C394 1.350 . S
C391 C394 1.463 . S
C391 C396 1.350 . S
C391 N399 1.427 . S
C392 H383 0.930 . S
C392 C390 1.378 . S
C392 C393 1.367 . S
C393 C392 1.367 . S
C393 C395 1.433 . S
C394 C390 1.350 . S
C394 C391 1.463 . S
C394 N398 1.427 . S
C395 H385 0.929 . S
C395 C393 1.433 . S
C395 N398 1.384 . S
C396 H387 0.929 . S
C396 C388 1.378 . S
C396 C391 1.350 . S
C397 H384 0.929 . S
C397 C389 1.433 . S
C397 N399 1.384 . S
N398 C394 1.427 . S
N398 C395 1.384 . S
N399 C391 1.427 . S
N399 C397 1.384 . S
H400 C406 0.930 . S
H401 C410 0.930 . S
H402 C415 0.929 . S
H403 C413 0.929 . S
H404 C408 0.929 . S
H405 C414 0.929 . S
C406 H400 0.930 . S
C406 C407 1.367 . S
C406 C414 1.378 . S
C407 C406 1.367 . S
C407 C415 1.433 . S
C408 H404 0.929 . S
C408 C410 1.378 . S
C408 C412 1.350 . S
C409 C412 1.463 . S
C409 C414 1.350 . S
C409 N417 1.427 . S
C410 H401 0.930 . S
C410 C408 1.378 . S
C410 C411 1.367 . S
C411 C410 1.367 . S
C411 C413 1.433 . S
C412 C408 1.350 . S
C412 C409 1.463 . S
C412 N416 1.427 . S
C413 H403 0.929 . S
C413 C411 1.433 . S
C413 N416 1.384 . S
C414 H405 0.929 . S
C414 C406 1.378 . S
C414 C409 1.350 . S
C415 H402 0.929 . S
C415 C407 1.433 . S
C415 N417 1.384 . S
N416 C412 1.427 . S
N416 C413 1.384 . S
N417 C409 1.427 . S
N417 C415 1.384 . S
C213 C167 1.485 . S
C209 C15 1.548 . S
C231 C163 1.476 . S
C227 C55 1.544 1_455 S
C249 C188 1.467 . S
C245 C95 1.557 . S
C263 C135 1.550 . S
C267 C184 1.462 . S
C281 C21 1.191 . S
C285 C185 1.078 . S
C303 C200 1.074 . S
C299 C42 1.260 . S
C317 C2 1.692 . S
C321 C201 1.573 . S
C339 C197 1.606 . S
C335 C61 1.749 . S
C357 C164 1.069 1_655 S
C353 C101 1.188 . S
C371 C122 1.260 . S
C375 C179 1.073 . S
C393 C180 1.584 . S
C389 C82 1.701 . S
C411 C176 1.593 . S
C407 C141 1.749 . S
