# Generated by pormake.
# Topology bcu-b, (8,8)-cn, num edge types: 1
# Building blocks:
#     Node 0, Type 0, BuildingBlock: VETTIZ_charged_sbu_0, # of connection points: 8
#     Node 1, Type 1, BuildingBlock: TAGTUT_clean_sbu_1, # of connection points: 8
#     Edge 2, Type (0, 1), BuildingBlock: TEMPAE_clean_linker_10, # of connection points: 2
#     Edge 3, Type (0, 1), BuildingBlock: TEMPAE_clean_linker_10, # of connection points: 2
#     Edge 4, Type (0, 1), BuildingBlock: TEMPAE_clean_linker_10, # of connection points: 2
#     Edge 5, Type (0, 1), BuildingBlock: TEMPAE_clean_linker_10, # of connection points: 2
#     Edge 6, Type (0, 1), BuildingBlock: TEMPAE_clean_linker_10, # of connection points: 2
#     Edge 7, Type (0, 1), BuildingBlock: TEMPAE_clean_linker_10, # of connection points: 2
#     Edge 8, Type (0, 1), BuildingBlock: TEMPAE_clean_linker_10, # of connection points: 2
#     Edge 9, Type (0, 1), BuildingBlock: TEMPAE_clean_linker_10, # of connection points: 2
# Relax obj value: 0.027
# Max RMSD: 0.119
# Mean RMSD: 0.086
data_MOF--net-bcu-b--node1-VETTIZ_charged_sbu_0--node2-TAGTUT_clean_sbu_1--edge1-TEMPAE_clean_linker_10
_symmetry_space_group_name_H-M    P1
_symmetry_Int_Tables_number       1
_symmetry_cell_setting            triclinic
loop_
_symmetry_equiv_pos_as_xyz
'x, y, z'
_cell_length_a     19.942677
_cell_length_b     19.220582
_cell_length_c     20.87835
_cell_angle_alpha  89.425775
_cell_angle_beta   91.328132
_cell_angle_gamma 99.578352
loop_
_atom_site_label
_atom_site_type_symbol
_atom_site_fract_x
_atom_site_fract_y
_atom_site_fract_z
_atom_type_partial_charge
Fe0 Fe 0.04674 0.85531 0.00889 0.0
O1 O 0.04847 0.95761 0.00047 0.0
Fe2 Fe 0.98809 0.99217 0.92649 0.0
Fe3 Fe 0.0238 0.017 0.07152 0.0
O4 O 0.04622 0.95609 0.99417 0.0
O5 O 0.96342 0.05156 -0.00247 0.0
O6 O 0.96568 0.05308 0.00383 0.0
Fe7 Fe 0.96512 0.15385 0.98913 0.0
C8 C 0.94245 0.87744 0.10989 0.0
O9 O 0.12914 0.88947 0.06788 0.0
O10 O 0.09087 0.97077 0.13278 0.0
O11 O 0.02372 0.16522 0.90758 0.0
O12 O 0.06929 0.06734 0.90238 0.0
O13 O 0.02444 0.92495 0.86089 0.0
O14 O 0.0953 0.86611 0.9225 0.0
O15 O 0.10528 0.0943 0.05165 0.0
O16 O 0.05117 0.1861 0.0439 0.0
C17 C 0.07215 0.88615 0.86774 0.0
O18 O 0.88273 0.11968 0.93012 0.0
O19 O 0.92102 0.03839 0.86523 0.0
O20 O 0.98816 0.84396 0.09045 0.0
O21 O 0.94259 0.94183 0.09561 0.0
C22 C 0.13406 0.92956 0.11791 0.0
C23 C 0.10387 0.15973 0.05861 0.0
C24 C 0.93969 0.12294 0.13026 0.0
O25 O 0.98744 0.08419 0.13711 0.0
O26 O 0.91654 0.14301 0.07551 0.0
C27 C 0.06942 0.13174 0.88812 0.0
O28 O 0.90661 0.91489 0.94638 0.0
O29 O 0.96069 0.82307 0.95412 0.0
C30 C 0.87782 0.0796 0.88009 0.0
C31 C 0.908 0.84947 0.93942 0.0
C32 C 0.31668 0.6635 0.54148 0.0
C33 C 0.43217 0.67912 0.37717 0.0
C34 C 0.41931 0.39371 0.39848 0.0
Mg35 Mg 0.4706 0.66478 0.51754 0.0
O36 O 0.43937 0.56741 0.51923 0.0
Mg37 Mg 0.36327 0.5299 0.45797 0.0
Mg38 Mg 0.50595 0.50465 0.49905 0.0
O39 O 0.57244 0.44185 0.4788 0.0
Mg40 Mg 0.54125 0.34443 0.4802 0.0
Mg41 Mg 0.64854 0.47928 0.54 0.0
C42 C 0.59256 0.61563 0.5994 0.0
C43 C 0.63714 0.59986 0.43097 0.0
O44 O 0.30063 0.60527 0.51031 0.0
O45 O 0.37842 0.69363 0.551 0.0
O46 O 0.39196 0.62051 0.38475 0.0
O47 O 0.47585 0.70323 0.4205 0.0
O48 O 0.5605 0.66497 0.57987 0.0
O49 O 0.57589 0.55104 0.5816 0.0
C50 C 0.37471 0.40944 0.56711 0.0
O51 O 0.44002 0.42269 0.56494 0.0
O52 O 0.33723 0.44277 0.53172 0.0
O53 O 0.71117 0.40405 0.48752 0.0
O54 O 0.63347 0.31571 0.44668 0.0
O55 O 0.61986 0.38855 0.61309 0.0
C56 C 0.69519 0.34589 0.45626 0.0
O57 O 0.53609 0.30576 0.5772 0.0
O58 O 0.45135 0.34426 0.41779 0.0
C59 C 0.57971 0.32987 0.62057 0.0
O60 O 0.43604 0.45817 0.41662 0.0
O61 O 0.57184 0.58661 0.43314 0.0
O62 O 0.67461 0.56651 0.46635 0.0
C63 C 0.1493 0.27179 0.11555 0.0
C64 C 0.15797 0.20366 0.09731 0.0
C65 C 0.19178 0.30955 0.16209 0.0
C66 C 0.24536 0.27929 0.19018 0.0
C67 C 0.25741 0.21268 0.16903 0.0
C68 C 0.21323 0.17534 0.1231 0.0
C69 C 0.17662 0.37991 0.18396 0.0
C70 C 0.31515 0.17945 0.19693 0.0
C71 C 0.38505 0.39583 0.28442 0.0
C72 C 0.36811 0.3758 0.34737 0.0
C73 C 0.34508 0.36549 0.23252 0.0
C74 C 0.28611 0.31536 0.24438 0.0
C75 C 0.2668 0.29822 0.3083 0.0
C76 C 0.30897 0.3277 0.35917 0.0
C77 C 0.36805 0.384 0.16516 0.0
C78 C 0.20301 0.24682 0.3229 0.0
H79 H 0.10697 0.29452 0.09592 0.0
H80 H 0.22052 0.12294 0.10929 0.0
H81 H 0.15972 0.37529 0.23433 0.0
H82 H 0.22309 0.42057 0.18275 0.0
H83 H 0.13627 0.3985 0.15401 0.0
H84 H 0.32157 0.13079 0.17112 0.0
H85 H 0.36352 0.21743 0.1953 0.0
H86 H 0.30539 0.16562 0.24797 0.0
H87 H 0.43194 0.43185 0.27572 0.0
H88 H 0.29687 0.31171 0.4081 0.0
H89 H 0.32626 0.40067 0.13598 0.0
H90 H 0.38159 0.33665 0.142 0.0
H91 H 0.4129 0.42686 0.16412 0.0
H92 H 0.1586 0.26235 0.29683 0.0
H93 H 0.19233 0.24385 0.37494 0.0
H94 H 0.20822 0.19339 0.30627 0.0
C95 C 0.85115 0.17851 0.18277 0.0
C96 C 0.91158 0.15033 0.18824 0.0
C97 C 0.82567 0.21013 0.2349 0.0
C98 C 0.86115 0.21356 0.29458 0.0
C99 C 0.92168 0.18437 0.30108 0.0
C100 C 0.94623 0.15289 0.24773 0.0
C101 C 0.76062 0.24016 0.2258 0.0
C102 C 0.96061 0.18689 0.36408 0.0
C103 C 0.80432 0.35246 0.39793 0.0
C104 C 0.74864 0.31212 0.42783 0.0
C105 C 0.84626 0.32015 0.35847 0.0
C106 C 0.83231 0.24599 0.34978 0.0
C107 C 0.7806 0.2047 0.38549 0.0
C108 C 0.73898 0.23835 0.42361 0.0
C109 C 0.90096 0.36605 0.32129 0.0
C110 C 0.7647 0.12547 0.37862 0.0
H111 H 0.82359 0.17636 0.13728 0.0
H112 H 0.99323 0.13174 0.25229 0.0
H113 H 0.72123 0.21286 0.25821 0.0
H114 H 0.76959 0.29696 0.23837 0.0
H115 H 0.74022 0.23467 0.17581 0.0
H116 H 1.00715 0.16244 0.3611 0.0
H117 H 0.9756 0.24242 0.37968 0.0
H118 H 0.92771 0.15904 0.40165 0.0
H119 H 0.81194 0.4095 0.40133 0.0
H120 H 0.69658 0.20698 0.44775 0.0
H121 H 0.88285 0.37106 0.27105 0.0
H122 H 0.94776 0.34201 0.32011 0.0
H123 H 0.91389 0.41981 0.3419 0.0
H124 H 0.73726 0.11219 0.33235 0.0
H125 H 0.73224 0.10039 0.41784 0.0
H126 H 0.81208 0.10237 0.37828 0.0
C127 C 0.87799 0.7675 0.15939 0.0
C128 C 0.88901 0.84121 0.15297 0.0
C129 C 0.82983 0.73278 0.20203 0.0
C130 C 0.79214 0.77264 0.23992 0.0
C131 C 0.8016 0.84692 0.23242 0.0
C132 C 0.84961 0.88026 0.18884 0.0
C133 C 0.82093 0.65342 0.20806 0.0
C134 C 0.76306 0.8915 0.27226 0.0
C135 C 0.64119 0.66736 0.32666 0.0
C136 C 0.67198 0.65266 0.38521 0.0
C137 C 0.67876 0.7089 0.27947 0.0
C138 C 0.74829 0.73685 0.29162 0.0
C139 C 0.77801 0.72583 0.35229 0.0
C140 C 0.73969 0.68373 0.39804 0.0
C141 C 0.6451 0.71956 0.21549 0.0
C142 C 0.85145 0.75569 0.36798 0.0
H143 H 0.9075 0.73676 0.13142 0.0
H144 H 0.85761 0.93726 0.18429 0.0
H145 H 0.83889 0.63876 0.25626 0.0
H146 H 0.76632 0.63007 0.20319 0.0
H147 H 0.84965 0.62968 0.17147 0.0
H148 H 0.7716 0.94768 0.25671 0.0
H149 H 0.70773 0.87081 0.26959 0.0
H150 H 0.77948 0.88894 0.32326 0.0
H151 H 0.58888 0.64358 0.31647 0.0
H152 H 0.76355 0.67356 0.44361 0.0
H153 H 0.66594 0.68843 0.17858 0.0
H154 H 0.65617 0.77578 0.20057 0.0
H155 H 0.58907 0.70266 0.21643 0.0
H156 H 0.88519 0.72975 0.33797 0.0
H157 H 0.86498 0.74778 0.41915 0.0
H158 H 0.86197 0.81299 0.35692 0.0
C159 C 0.18182 0.90007 0.22435 0.0
C160 C 0.1923 0.92298 0.16104 0.0
C161 C 0.23244 0.87132 0.25873 0.0
C162 C 0.2947 0.86603 0.22892 0.0
C163 C 0.30777 0.89598 0.16742 0.0
C164 C 0.25619 0.92364 0.13408 0.0
C165 C 0.21684 0.84081 0.32463 0.0
C166 C 0.37372 0.89302 0.13433 0.0
C167 C 0.42936 0.80131 0.3356 0.0
C168 C 0.41331 0.72793 0.32678 0.0
C169 C 0.39363 0.84776 0.30174 0.0
C170 C 0.34101 0.8202 0.25782 0.0
C171 C 0.32932 0.74702 0.24422 0.0
C172 C 0.36572 0.7019 0.27867 0.0
C173 C 0.4087 0.92551 0.31677 0.0
C174 C 0.27477 0.71546 0.19661 0.0
H175 H 0.13221 0.89887 0.24492 0.0
H176 H 0.26422 0.9415 0.08497 0.0
H177 H 0.20906 0.78235 0.32227 0.0
H178 H 0.26018 0.8578 0.35831 0.0
H179 H 0.17036 0.85678 0.34417 0.0
H180 H 0.38097 0.92966 0.09263 0.0
H181 H 0.41774 0.9062 0.16802 0.0
H182 H 0.37358 0.83864 0.11692 0.0
H183 H 0.46596 0.82226 0.37264 0.0
H184 H 0.35334 0.64545 0.27105 0.0
H185 H 0.36851 0.93911 0.34792 0.0
H186 H 0.40855 0.95779 0.27244 0.0
H187 H 0.45858 0.94019 0.34212 0.0
H188 H 0.22405 0.72124 0.21458 0.0
H189 H 0.2753 0.65856 0.18823 0.0
H190 H 0.28132 0.74388 0.15009 0.0
C191 C 0.06596 0.8569 0.75009 0.0
C192 C 0.1002 0.85865 0.80975 0.0
C193 C 0.09048 0.8255 0.69668 0.0
C194 C 0.15058 0.79557 0.70329 0.0
C195 C 0.18561 0.79809 0.76317 0.0
C196 C 0.16017 0.82965 0.81535 0.0
C197 C 0.05204 0.82395 0.63347 0.0
C198 C 0.25017 0.76721 0.7724 0.0
C199 C 0.20713 0.65713 0.59917 0.0
C200 C 0.26328 0.6974 0.56991 0.0
C201 C 0.16514 0.6894 0.63861 0.0
C202 C 0.17955 0.76344 0.64798 0.0
C203 C 0.23179 0.80475 0.61291 0.0
C204 C 0.27339 0.77113 0.57473 0.0
C205 C 0.10982 0.6435 0.67507 0.0
C206 C 0.24824 0.88386 0.62053 0.0
H207 H 0.01932 0.8787 0.74541 0.0
H208 H 0.18742 0.83113 0.86097 0.0
H209 H 0.08526 0.85243 0.59644 0.0
H210 H 0.03719 0.76869 0.61709 0.0
H211 H 1.00548 0.84836 0.63652 0.0
H212 H 0.2702 0.77198 0.82254 0.0
H213 H 0.24075 0.71056 0.75934 0.0
H214 H 0.29003 0.79448 0.74044 0.0
H215 H 0.19913 0.60012 0.59529 0.0
H216 H 0.31615 0.80248 0.55108 0.0
H217 H 0.06329 0.668 0.67623 0.0
H218 H 0.12747 0.63768 0.72534 0.0
H219 H 0.0966 0.59005 0.65387 0.0
H220 H 0.20111 0.9074 0.62077 0.0
H221 H 0.2812 0.90914 0.58174 0.0
H222 H 0.27534 0.89641 0.66708 0.0
C223 C 0.16231 0.12898 0.80921 0.0
C224 C 0.12286 0.16799 0.84507 0.0
C225 C 0.21032 0.16233 0.76564 0.0
C226 C 0.21974 0.23661 0.75814 0.0
C227 C 0.182 0.27645 0.79601 0.0
C228 C 0.13385 0.24171 0.83864 0.0
C229 C 0.2489 0.11779 0.72582 0.0
C230 C 0.19086 0.3558 0.78996 0.0
C231 C 0.37067 0.34197 0.67143 0.0
C232 C 0.33989 0.35665 0.61288 0.0
C233 C 0.3331 0.30042 0.71862 0.0
C234 C 0.26358 0.27242 0.70645 0.0
C235 C 0.23388 0.28341 0.64576 0.0
C236 C 0.27219 0.32554 0.60002 0.0
C237 C 0.36674 0.28979 0.78261 0.0
C238 C 0.16046 0.2535 0.63005 0.0
H239 H 0.15434 0.07197 0.81376 0.0
H240 H 0.10431 0.27243 0.8666 0.0
H241 H 0.23251 0.12033 0.67482 0.0
H242 H 0.30423 0.13851 0.72851 0.0
H243 H 0.24039 0.06161 0.74137 0.0
H244 H 0.1621 0.37953 0.82654 0.0
H245 H 0.24546 0.3792 0.79485 0.0
H246 H 0.17291 0.37045 0.74176 0.0
H247 H 0.42297 0.36579 0.68164 0.0
H248 H 0.24834 0.33568 0.55444 0.0
H249 H 0.35573 0.23357 0.79753 0.0
H250 H 0.34585 0.32089 0.81951 0.0
H251 H 0.42277 0.30675 0.7817 0.0
H252 H 0.14997 0.1962 0.64112 0.0
H253 H 0.14694 0.26141 0.57888 0.0
H254 H 0.12669 0.27942 0.66005 0.0
C255 C 0.83009 0.109 0.7736 0.0
C256 C 0.81959 0.08618 0.83693 0.0
C257 C 0.77947 0.1377 0.73917 0.0
C258 C 0.7172 0.14302 0.76894 0.0
C259 C 0.70412 0.11314 0.83046 0.0
C260 C 0.75569 0.08554 0.86387 0.0
C261 C 0.79509 0.16813 0.67324 0.0
C262 C 0.63815 0.11613 0.86351 0.0
C263 C 0.64615 0.30711 0.71908 0.0
C264 C 0.59859 0.28105 0.67096 0.0
C265 C 0.68256 0.26201 0.75355 0.0
C266 C 0.67089 0.18883 0.73998 0.0
C267 C 0.6183 0.16124 0.69604 0.0
C268 C 0.58257 0.20766 0.66214 0.0
C269 C 0.73711 0.29361 0.80116 0.0
C270 C 0.60324 0.08348 0.68105 0.0
H271 H 0.8797 0.11016 0.75304 0.0
H272 H 0.74764 0.06775 0.91299 0.0
H273 H 0.75177 0.1511 0.63955 0.0
H274 H 0.80286 0.2266 0.67554 0.0
H275 H 0.84158 0.15215 0.65374 0.0
H276 H 0.63089 0.07953 0.90524 0.0
H277 H 0.63826 0.17053 0.88087 0.0
H278 H 0.59414 0.10289 0.82982 0.0
H279 H 0.6585 0.36355 0.72669 0.0
H280 H 0.54599 0.1867 0.6251 0.0
H281 H 0.78783 0.28779 0.78322 0.0
H282 H 0.73052 0.26524 0.84769 0.0
H283 H 0.73659 0.35052 0.80948 0.0
H284 H 0.64344 0.06986 0.64992 0.0
H285 H 0.55336 0.06878 0.65569 0.0
H286 H 0.60337 0.05123 0.7254 0.0
C287 C 0.86274 0.73761 0.88211 0.0
C288 C 0.8539 0.80557 0.9007 0.0
C289 C 0.82023 0.69996 0.83553 0.0
C290 C 0.76644 0.73014 0.80778 0.0
C291 C 0.75422 0.79656 0.82929 0.0
C292 C 0.79845 0.8338 0.87523 0.0
C293 C 0.83558 0.62982 0.81325 0.0
C294 C 0.69624 0.82967 0.80176 0.0
C295 C 0.70258 0.6823 0.63875 0.0
C296 C 0.64371 0.6338 0.65052 0.0
C297 C 0.74473 0.71177 0.68964 0.0
C298 C 0.72565 0.69422 0.75354 0.0
C299 C 0.66691 0.64375 0.76536 0.0
C300 C 0.62699 0.61341 0.71343 0.0
C301 C 0.8083 0.76353 0.67508 0.0
C302 C 0.64416 0.62482 0.83271 0.0
H303 H 0.90523 0.71495 0.90148 0.0
H304 H 0.79102 0.88608 0.88931 0.0
H305 H 0.78925 0.589 0.81444 0.0
H306 H 0.85231 0.63478 0.76284 0.0
H307 H 0.87614 0.61126 0.84296 0.0
H308 H 0.68969 0.87811 0.82787 0.0
H309 H 0.70581 0.84385 0.75076 0.0
H310 H 0.64799 0.7915 0.80334 0.0
H311 H 0.71452 0.69854 0.58985 0.0
H312 H 0.58029 0.57707 0.7221 0.0
H313 H 0.85287 0.74809 0.70092 0.0
H314 H 0.80289 0.8168 0.69201 0.0
H315 H 0.81881 0.76686 0.62301 0.0
H316 H 0.68609 0.60813 0.86167 0.0
H317 H 0.5994 0.58185 0.83368 0.0
H318 H 0.63056 0.67199 0.85615 0.0
loop_
_geom_bond_atom_site_label_1
_geom_bond_atom_site_label_2
_geom_bond_distance
_geom_bond_site_symmetry_2
_ccdc_geom_bond_type
Fe0 O1 1.895 . S
Fe0 O4 1.706 1_554 S
Fe0 O9 2.085 1_655 S
Fe0 O14 1.928 1_654 S
Fe0 O20 2.085 . S
Fe0 O29 1.929 1_554 S
O1 Fe0 1.895 . S
O1 Fe3 1.715 1_665 S
Fe2 O4 1.886 . S
Fe2 O5 1.715 1_665 S
Fe2 O12 1.935 1_665 S
Fe2 O13 2.077 1_655 S
Fe2 O19 1.935 1_565 S
Fe2 O28 2.077 . S
Fe3 O1 1.715 1_445 S
Fe3 O6 1.886 . S
Fe3 O10 1.935 1_545 S
Fe3 O15 2.077 . S
Fe3 O21 1.935 1_445 S
Fe3 O25 2.077 1_455 S
O4 Fe0 1.706 1_556 S
O4 Fe2 1.886 . S
O5 Fe2 1.715 1_445 S
O5 Fe7 1.892 . S
O6 Fe3 1.886 . S
O6 Fe7 1.709 1_554 S
Fe7 O5 1.892 . S
Fe7 O6 1.709 1_556 S
Fe7 O11 2.083 . S
Fe7 O16 1.931 1_556 S
Fe7 O18 2.082 1_455 S
Fe7 O26 1.930 1_456 S
C8 O20 1.381 . S
C8 O21 1.421 . S
O9 Fe0 2.085 1_455 S
O9 C22 1.381 . S
O10 Fe3 1.935 1_565 S
O10 C22 1.421 . S
O11 Fe7 2.083 . S
O11 C27 1.381 . S
O12 Fe2 1.935 1_445 S
O12 C27 1.421 . S
O13 Fe2 2.077 1_455 S
O13 C17 1.381 . S
O14 Fe0 1.928 1_456 S
O14 C17 1.421 . S
O15 Fe3 2.077 . S
O15 C23 1.381 . S
O16 Fe7 1.931 1_554 S
O16 C23 1.421 . S
C17 O13 1.381 . S
C17 O14 1.421 . S
O18 Fe7 2.082 1_655 S
O18 C30 1.381 . S
O19 Fe2 1.935 1_545 S
O19 C30 1.421 . S
O20 Fe0 2.085 . S
O20 C8 1.381 . S
O21 Fe3 1.935 1_665 S
O21 C8 1.421 . S
C22 O9 1.381 . S
C22 O10 1.421 . S
C23 O15 1.381 . S
C23 O16 1.421 . S
C24 O25 1.381 . S
C24 O26 1.421 . S
O25 Fe3 2.077 1_655 S
O25 C24 1.381 . S
O26 Fe7 1.930 1_654 S
O26 C24 1.421 . S
C27 O11 1.381 . S
C27 O12 1.421 . S
O28 Fe2 2.077 . S
O28 C31 1.381 . S
O29 Fe0 1.929 1_556 S
O29 C31 1.421 . S
C30 O18 1.381 . S
C30 O19 1.421 . S
C31 O28 1.381 . S
C31 O29 1.421 . S
C32 O44 1.241 . S
C32 O45 1.280 . S
C33 O46 1.277 . S
C33 O47 1.245 . S
C34 O58 1.247 . S
C34 O60 1.289 . S
Mg35 O36 1.926 . S
Mg35 O45 1.984 . S
Mg35 O47 1.988 . S
Mg35 O48 2.061 . S
O36 Mg35 1.926 . S
O36 Mg37 1.986 . S
O36 Mg38 1.917 . S
Mg37 O36 1.986 . S
Mg37 O44 2.042 . S
Mg37 O46 2.041 . S
Mg37 O52 2.038 . S
Mg37 O60 2.238 . S
Mg38 O36 1.917 . S
Mg38 O39 1.917 . S
Mg38 O49 2.106 . S
Mg38 O51 2.079 . S
Mg38 O60 2.106 . S
Mg38 O61 2.079 . S
O39 Mg38 1.917 . S
O39 Mg40 1.926 . S
O39 Mg41 1.986 . S
Mg40 O39 1.926 . S
Mg40 O54 1.984 . S
Mg40 O57 1.988 . S
Mg40 O58 2.061 . S
Mg41 O39 1.986 . S
Mg41 O49 2.238 . S
Mg41 O53 2.042 . S
Mg41 O55 2.041 . S
Mg41 O62 2.038 . S
C42 O48 1.247 . S
C42 O49 1.289 . S
C43 O61 1.245 . S
C43 O62 1.274 . S
O44 C32 1.241 . S
O44 Mg37 2.042 . S
O45 C32 1.280 . S
O45 Mg35 1.984 . S
O46 C33 1.277 . S
O46 Mg37 2.041 . S
O47 C33 1.245 . S
O47 Mg35 1.988 . S
O48 Mg35 2.061 . S
O48 C42 1.247 . S
O49 Mg38 2.106 . S
O49 Mg41 2.238 . S
O49 C42 1.289 . S
C50 O51 1.245 . S
C50 O52 1.274 . S
O51 Mg38 2.079 . S
O51 C50 1.245 . S
O52 Mg37 2.038 . S
O52 C50 1.274 . S
O53 Mg41 2.042 . S
O53 C56 1.241 . S
O54 Mg40 1.984 . S
O54 C56 1.280 . S
O55 Mg41 2.041 . S
O55 C59 1.277 . S
C56 O53 1.241 . S
C56 O54 1.280 . S
O57 Mg40 1.988 . S
O57 C59 1.245 . S
O58 C34 1.247 . S
O58 Mg40 2.061 . S
C59 O55 1.277 . S
C59 O57 1.245 . S
O60 C34 1.289 . S
O60 Mg37 2.238 . S
O60 Mg38 2.106 . S
O61 Mg38 2.079 . S
O61 C43 1.245 . S
O62 Mg41 2.038 . S
O62 C43 1.274 . S
C63 C64 1.391 . S
C63 C65 1.394 . S
C63 H79 0.931 . S
C64 C63 1.391 . S
C64 C68 1.376 . S
C65 C63 1.394 . S
C65 C66 1.369 . S
C65 C69 1.531 . S
C66 C65 1.369 . S
C66 C67 1.410 . S
C66 C74 1.503 . S
C67 C66 1.410 . S
C67 C68 1.392 . S
C67 C70 1.511 . S
C68 C64 1.376 . S
C68 C67 1.392 . S
C68 H80 0.929 . S
C69 C65 1.531 . S
C69 H81 0.960 . S
C69 H82 0.962 . S
C69 H83 0.960 . S
C70 C67 1.511 . S
C70 H84 0.961 . S
C70 H85 0.961 . S
C70 H86 0.961 . S
C71 C72 1.370 . S
C71 C73 1.363 . S
C71 H87 0.931 . S
C72 C71 1.370 . S
C72 C76 1.408 . S
C73 C71 1.363 . S
C73 C74 1.370 . S
C73 C77 1.524 . S
C74 C66 1.503 . S
C74 C73 1.370 . S
C74 C75 1.403 . S
C75 C74 1.403 . S
C75 C76 1.404 . S
C75 C78 1.539 . S
C76 C72 1.408 . S
C76 C75 1.404 . S
C76 H88 0.930 . S
C77 C73 1.524 . S
C77 H89 0.956 . S
C77 H90 0.961 . S
C77 H91 0.961 . S
C78 C75 1.539 . S
C78 H92 0.958 . S
C78 H93 0.961 . S
C78 H94 0.960 . S
H79 C63 0.931 . S
H80 C68 0.929 . S
H81 C69 0.960 . S
H82 C69 0.962 . S
H83 C69 0.960 . S
H84 C70 0.961 . S
H85 C70 0.961 . S
H86 C70 0.961 . S
H87 C71 0.931 . S
H88 C76 0.930 . S
H89 C77 0.956 . S
H90 C77 0.961 . S
H91 C77 0.961 . S
H92 C78 0.958 . S
H93 C78 0.961 . S
H94 C78 0.960 . S
C95 C96 1.391 . S
C95 C97 1.394 . S
C95 H111 0.931 . S
C96 C95 1.391 . S
C96 C100 1.376 . S
C97 C95 1.394 . S
C97 C98 1.369 . S
C97 C101 1.531 . S
C98 C97 1.369 . S
C98 C99 1.410 . S
C98 C106 1.503 . S
C99 C98 1.410 . S
C99 C100 1.392 . S
C99 C102 1.511 . S
C100 C96 1.376 . S
C100 C99 1.392 . S
C100 H112 0.929 . S
C101 C97 1.531 . S
C101 H113 0.960 . S
C101 H114 0.962 . S
C101 H115 0.960 . S
C102 C99 1.511 . S
C102 H116 0.961 . S
C102 H117 0.961 . S
C102 H118 0.961 . S
C103 C104 1.370 . S
C103 C105 1.363 . S
C103 H119 0.931 . S
C104 C103 1.370 . S
C104 C108 1.408 . S
C105 C103 1.363 . S
C105 C106 1.370 . S
C105 C109 1.524 . S
C106 C98 1.503 . S
C106 C105 1.370 . S
C106 C107 1.403 . S
C107 C106 1.403 . S
C107 C108 1.404 . S
C107 C110 1.539 . S
C108 C104 1.408 . S
C108 C107 1.404 . S
C108 H120 0.930 . S
C109 C105 1.524 . S
C109 H121 0.956 . S
C109 H122 0.961 . S
C109 H123 0.961 . S
C110 C107 1.539 . S
C110 H124 0.958 . S
C110 H125 0.961 . S
C110 H126 0.960 . S
H111 C95 0.931 . S
H112 C100 0.929 . S
H113 C101 0.960 . S
H114 C101 0.962 . S
H115 C101 0.960 . S
H116 C102 0.961 . S
H117 C102 0.961 . S
H118 C102 0.961 . S
H119 C103 0.931 . S
H120 C108 0.930 . S
H121 C109 0.956 . S
H122 C109 0.961 . S
H123 C109 0.961 . S
H124 C110 0.958 . S
H125 C110 0.961 . S
H126 C110 0.960 . S
C127 C128 1.391 . S
C127 C129 1.394 . S
C127 H143 0.931 . S
C128 C127 1.391 . S
C128 C132 1.376 . S
C129 C127 1.394 . S
C129 C130 1.369 . S
C129 C133 1.531 . S
C130 C129 1.369 . S
C130 C131 1.410 . S
C130 C138 1.503 . S
C131 C130 1.410 . S
C131 C132 1.392 . S
C131 C134 1.511 . S
C132 C128 1.376 . S
C132 C131 1.392 . S
C132 H144 0.929 . S
C133 C129 1.531 . S
C133 H145 0.960 . S
C133 H146 0.962 . S
C133 H147 0.960 . S
C134 C131 1.511 . S
C134 H148 0.961 . S
C134 H149 0.961 . S
C134 H150 0.961 . S
C135 C136 1.370 . S
C135 C137 1.363 . S
C135 H151 0.931 . S
C136 C135 1.370 . S
C136 C140 1.408 . S
C137 C135 1.363 . S
C137 C138 1.370 . S
C137 C141 1.524 . S
C138 C130 1.503 . S
C138 C137 1.370 . S
C138 C139 1.403 . S
C139 C138 1.403 . S
C139 C140 1.404 . S
C139 C142 1.539 . S
C140 C136 1.408 . S
C140 C139 1.404 . S
C140 H152 0.930 . S
C141 C137 1.524 . S
C141 H153 0.956 . S
C141 H154 0.961 . S
C141 H155 0.961 . S
C142 C139 1.539 . S
C142 H156 0.958 . S
C142 H157 0.961 . S
C142 H158 0.960 . S
H143 C127 0.931 . S
H144 C132 0.929 . S
H145 C133 0.960 . S
H146 C133 0.962 . S
H147 C133 0.960 . S
H148 C134 0.961 . S
H149 C134 0.961 . S
H150 C134 0.961 . S
H151 C135 0.931 . S
H152 C140 0.930 . S
H153 C141 0.956 . S
H154 C141 0.961 . S
H155 C141 0.961 . S
H156 C142 0.958 . S
H157 C142 0.961 . S
H158 C142 0.960 . S
C159 C160 1.391 . S
C159 C161 1.394 . S
C159 H175 0.931 . S
C160 C159 1.391 . S
C160 C164 1.376 . S
C161 C159 1.394 . S
C161 C162 1.369 . S
C161 C165 1.531 . S
C162 C161 1.369 . S
C162 C163 1.410 . S
C162 C170 1.503 . S
C163 C162 1.410 . S
C163 C164 1.392 . S
C163 C166 1.511 . S
C164 C160 1.376 . S
C164 C163 1.392 . S
C164 H176 0.929 . S
C165 C161 1.531 . S
C165 H177 0.960 . S
C165 H178 0.962 . S
C165 H179 0.960 . S
C166 C163 1.511 . S
C166 H180 0.961 . S
C166 H181 0.961 . S
C166 H182 0.961 . S
C167 C168 1.370 . S
C167 C169 1.363 . S
C167 H183 0.931 . S
C168 C167 1.370 . S
C168 C172 1.408 . S
C169 C167 1.363 . S
C169 C170 1.370 . S
C169 C173 1.524 . S
C170 C162 1.503 . S
C170 C169 1.370 . S
C170 C171 1.403 . S
C171 C170 1.403 . S
C171 C172 1.404 . S
C171 C174 1.539 . S
C172 C168 1.408 . S
C172 C171 1.404 . S
C172 H184 0.930 . S
C173 C169 1.524 . S
C173 H185 0.956 . S
C173 H186 0.961 . S
C173 H187 0.961 . S
C174 C171 1.539 . S
C174 H188 0.958 . S
C174 H189 0.961 . S
C174 H190 0.960 . S
H175 C159 0.931 . S
H176 C164 0.929 . S
H177 C165 0.960 . S
H178 C165 0.962 . S
H179 C165 0.960 . S
H180 C166 0.961 . S
H181 C166 0.961 . S
H182 C166 0.961 . S
H183 C167 0.931 . S
H184 C172 0.930 . S
H185 C173 0.956 . S
H186 C173 0.961 . S
H187 C173 0.961 . S
H188 C174 0.958 . S
H189 C174 0.961 . S
H190 C174 0.960 . S
C191 C192 1.391 . S
C191 C193 1.394 . S
C191 H207 0.931 . S
C192 C191 1.391 . S
C192 C196 1.376 . S
C193 C191 1.394 . S
C193 C194 1.369 . S
C193 C197 1.531 . S
C194 C193 1.369 . S
C194 C195 1.410 . S
C194 C202 1.503 . S
C195 C194 1.410 . S
C195 C196 1.392 . S
C195 C198 1.511 . S
C196 C192 1.376 . S
C196 C195 1.392 . S
C196 H208 0.929 . S
C197 C193 1.531 . S
C197 H209 0.960 . S
C197 H210 0.962 . S
C197 H211 0.960 . S
C198 C195 1.511 . S
C198 H212 0.961 . S
C198 H213 0.961 . S
C198 H214 0.961 . S
C199 C200 1.370 . S
C199 C201 1.363 . S
C199 H215 0.931 . S
C200 C199 1.370 . S
C200 C204 1.408 . S
C201 C199 1.363 . S
C201 C202 1.370 . S
C201 C205 1.524 . S
C202 C194 1.503 . S
C202 C201 1.370 . S
C202 C203 1.403 . S
C203 C202 1.403 . S
C203 C204 1.404 . S
C203 C206 1.539 . S
C204 C200 1.408 . S
C204 C203 1.404 . S
C204 H216 0.930 . S
C205 C201 1.524 . S
C205 H217 0.956 . S
C205 H218 0.961 . S
C205 H219 0.961 . S
C206 C203 1.539 . S
C206 H220 0.958 . S
C206 H221 0.961 . S
C206 H222 0.960 . S
H207 C191 0.931 . S
H208 C196 0.929 . S
H209 C197 0.960 . S
H210 C197 0.962 . S
H211 C197 0.960 . S
H212 C198 0.961 . S
H213 C198 0.961 . S
H214 C198 0.961 . S
H215 C199 0.931 . S
H216 C204 0.930 . S
H217 C205 0.956 . S
H218 C205 0.961 . S
H219 C205 0.961 . S
H220 C206 0.958 . S
H221 C206 0.961 . S
H222 C206 0.960 . S
C223 C224 1.391 . S
C223 C225 1.394 . S
C223 H239 0.931 . S
C224 C223 1.391 . S
C224 C228 1.376 . S
C225 C223 1.394 . S
C225 C226 1.369 . S
C225 C229 1.531 . S
C226 C225 1.369 . S
C226 C227 1.410 . S
C226 C234 1.503 . S
C227 C226 1.410 . S
C227 C228 1.392 . S
C227 C230 1.511 . S
C228 C224 1.376 . S
C228 C227 1.392 . S
C228 H240 0.929 . S
C229 C225 1.531 . S
C229 H241 0.960 . S
C229 H242 0.962 . S
C229 H243 0.960 . S
C230 C227 1.511 . S
C230 H244 0.961 . S
C230 H245 0.961 . S
C230 H246 0.961 . S
C231 C232 1.370 . S
C231 C233 1.363 . S
C231 H247 0.931 . S
C232 C231 1.370 . S
C232 C236 1.408 . S
C233 C231 1.363 . S
C233 C234 1.370 . S
C233 C237 1.524 . S
C234 C226 1.503 . S
C234 C233 1.370 . S
C234 C235 1.403 . S
C235 C234 1.403 . S
C235 C236 1.404 . S
C235 C238 1.539 . S
C236 C232 1.408 . S
C236 C235 1.404 . S
C236 H248 0.930 . S
C237 C233 1.524 . S
C237 H249 0.956 . S
C237 H250 0.961 . S
C237 H251 0.961 . S
C238 C235 1.539 . S
C238 H252 0.958 . S
C238 H253 0.961 . S
C238 H254 0.960 . S
H239 C223 0.931 . S
H240 C228 0.929 . S
H241 C229 0.960 . S
H242 C229 0.962 . S
H243 C229 0.960 . S
H244 C230 0.961 . S
H245 C230 0.961 . S
H246 C230 0.961 . S
H247 C231 0.931 . S
H248 C236 0.930 . S
H249 C237 0.956 . S
H250 C237 0.961 . S
H251 C237 0.961 . S
H252 C238 0.958 . S
H253 C238 0.961 . S
H254 C238 0.960 . S
C255 C256 1.391 . S
C255 C257 1.394 . S
C255 H271 0.931 . S
C256 C255 1.391 . S
C256 C260 1.376 . S
C257 C255 1.394 . S
C257 C258 1.369 . S
C257 C261 1.531 . S
C258 C257 1.369 . S
C258 C259 1.410 . S
C258 C266 1.503 . S
C259 C258 1.410 . S
C259 C260 1.392 . S
C259 C262 1.511 . S
C260 C256 1.376 . S
C260 C259 1.392 . S
C260 H272 0.929 . S
C261 C257 1.531 . S
C261 H273 0.960 . S
C261 H274 0.962 . S
C261 H275 0.960 . S
C262 C259 1.511 . S
C262 H276 0.961 . S
C262 H277 0.961 . S
C262 H278 0.961 . S
C263 C264 1.370 . S
C263 C265 1.363 . S
C263 H279 0.931 . S
C264 C263 1.370 . S
C264 C268 1.408 . S
C265 C263 1.363 . S
C265 C266 1.370 . S
C265 C269 1.524 . S
C266 C258 1.503 . S
C266 C265 1.370 . S
C266 C267 1.403 . S
C267 C266 1.403 . S
C267 C268 1.404 . S
C267 C270 1.539 . S
C268 C264 1.408 . S
C268 C267 1.404 . S
C268 H280 0.930 . S
C269 C265 1.524 . S
C269 H281 0.956 . S
C269 H282 0.961 . S
C269 H283 0.961 . S
C270 C267 1.539 . S
C270 H284 0.958 . S
C270 H285 0.961 . S
C270 H286 0.960 . S
H271 C255 0.931 . S
H272 C260 0.929 . S
H273 C261 0.960 . S
H274 C261 0.962 . S
H275 C261 0.960 . S
H276 C262 0.961 . S
H277 C262 0.961 . S
H278 C262 0.961 . S
H279 C263 0.931 . S
H280 C268 0.930 . S
H281 C269 0.956 . S
H282 C269 0.961 . S
H283 C269 0.961 . S
H284 C270 0.958 . S
H285 C270 0.961 . S
H286 C270 0.960 . S
C287 C288 1.391 . S
C287 C289 1.394 . S
C287 H303 0.931 . S
C288 C287 1.391 . S
C288 C292 1.376 . S
C289 C287 1.394 . S
C289 C290 1.369 . S
C289 C293 1.531 . S
C290 C289 1.369 . S
C290 C291 1.410 . S
C290 C298 1.503 . S
C291 C290 1.410 . S
C291 C292 1.392 . S
C291 C294 1.511 . S
C292 C288 1.376 . S
C292 C291 1.392 . S
C292 H304 0.929 . S
C293 C289 1.531 . S
C293 H305 0.960 . S
C293 H306 0.962 . S
C293 H307 0.960 . S
C294 C291 1.511 . S
C294 H308 0.961 . S
C294 H309 0.961 . S
C294 H310 0.961 . S
C295 C296 1.370 . S
C295 C297 1.363 . S
C295 H311 0.931 . S
C296 C295 1.370 . S
C296 C300 1.408 . S
C297 C295 1.363 . S
C297 C298 1.370 . S
C297 C301 1.524 . S
C298 C290 1.503 . S
C298 C297 1.370 . S
C298 C299 1.403 . S
C299 C298 1.403 . S
C299 C300 1.404 . S
C299 C302 1.539 . S
C300 C296 1.408 . S
C300 C299 1.404 . S
C300 H312 0.930 . S
C301 C297 1.524 . S
C301 H313 0.956 . S
C301 H314 0.961 . S
C301 H315 0.961 . S
C302 C299 1.539 . S
C302 H316 0.958 . S
C302 H317 0.961 . S
C302 H318 0.960 . S
H303 C287 0.931 . S
H304 C292 0.929 . S
H305 C293 0.960 . S
H306 C293 0.962 . S
H307 C293 0.960 . S
H308 C294 0.961 . S
H309 C294 0.961 . S
H310 C294 0.961 . S
H311 C295 0.931 . S
H312 C300 0.930 . S
H313 C301 0.956 . S
H314 C301 0.961 . S
H315 C301 0.961 . S
H316 C302 0.958 . S
H317 C302 0.961 . S
H318 C302 0.960 . S
C64 C23 1.148 . S
C72 C34 1.162 . S
C96 C24 1.513 . S
C104 C56 1.510 . S
C128 C8 1.481 . S
C136 C43 1.480 . S
C160 C22 1.577 . S
C168 C33 1.598 . S
C192 C17 1.540 . S
C200 C32 1.520 . S
C232 C50 1.479 . S
C224 C27 1.485 . S
C256 C30 1.615 . S
C264 C59 1.606 . S
C296 C42 1.182 . S
C288 C31 1.199 . S
