# Generated by pormake.
# Topology ana-f, (3,3)-cn, num edge types: 1
# Building blocks:
#     Node 0, Type 0, BuildingBlock: WUSLED_clean_sbu_0, # of connection points: 3
#     Node 1, Type 0, BuildingBlock: WUSLED_clean_sbu_0, # of connection points: 3
#     Node 2, Type 0, BuildingBlock: WUSLED_clean_sbu_0, # of connection points: 3
#     Node 3, Type 0, BuildingBlock: WUSLED_clean_sbu_0, # of connection points: 3
#     Node 4, Type 0, BuildingBlock: WUSLED_clean_sbu_0, # of connection points: 3
#     Node 5, Type 0, BuildingBlock: WUSLED_clean_sbu_0, # of connection points: 3
#     Node 6, Type 0, BuildingBlock: WUSLED_clean_sbu_0, # of connection points: 3
#     Node 7, Type 0, BuildingBlock: WUSLED_clean_sbu_0, # of connection points: 3
#     Node 8, Type 0, BuildingBlock: WUSLED_clean_sbu_0, # of connection points: 3
#     Node 9, Type 0, BuildingBlock: WUSLED_clean_sbu_0, # of connection points: 3
#     Node 10, Type 0, BuildingBlock: WUSLED_clean_sbu_0, # of connection points: 3
#     Node 11, Type 0, BuildingBlock: WUSLED_clean_sbu_0, # of connection points: 3
#     Node 12, Type 0, BuildingBlock: WUSLED_clean_sbu_0, # of connection points: 3
#     Node 13, Type 0, BuildingBlock: WUSLED_clean_sbu_0, # of connection points: 3
#     Node 14, Type 0, BuildingBlock: WUSLED_clean_sbu_0, # of connection points: 3
#     Node 15, Type 0, BuildingBlock: WUSLED_clean_sbu_0, # of connection points: 3
#     Node 16, Type 0, BuildingBlock: WUSLED_clean_sbu_0, # of connection points: 3
#     Node 17, Type 0, BuildingBlock: WUSLED_clean_sbu_0, # of connection points: 3
#     Node 18, Type 0, BuildingBlock: WUSLED_clean_sbu_0, # of connection points: 3
#     Node 19, Type 0, BuildingBlock: WUSLED_clean_sbu_0, # of connection points: 3
#     Node 20, Type 0, BuildingBlock: WUSLED_clean_sbu_0, # of connection points: 3
#     Node 21, Type 0, BuildingBlock: WUSLED_clean_sbu_0, # of connection points: 3
#     Node 22, Type 0, BuildingBlock: WUSLED_clean_sbu_0, # of connection points: 3
#     Node 23, Type 0, BuildingBlock: WUSLED_clean_sbu_0, # of connection points: 3
#     Node 24, Type 0, BuildingBlock: WUSLED_clean_sbu_0, # of connection points: 3
#     Node 25, Type 0, BuildingBlock: WUSLED_clean_sbu_0, # of connection points: 3
#     Node 26, Type 0, BuildingBlock: WUSLED_clean_sbu_0, # of connection points: 3
#     Node 27, Type 0, BuildingBlock: WUSLED_clean_sbu_0, # of connection points: 3
#     Node 28, Type 0, BuildingBlock: WUSLED_clean_sbu_0, # of connection points: 3
#     Node 29, Type 0, BuildingBlock: WUSLED_clean_sbu_0, # of connection points: 3
#     Node 30, Type 0, BuildingBlock: WUSLED_clean_sbu_0, # of connection points: 3
#     Node 31, Type 0, BuildingBlock: WUSLED_clean_sbu_0, # of connection points: 3
#     Node 32, Type 0, BuildingBlock: WUSLED_clean_sbu_0, # of connection points: 3
#     Node 33, Type 0, BuildingBlock: WUSLED_clean_sbu_0, # of connection points: 3
#     Node 34, Type 0, BuildingBlock: WUSLED_clean_sbu_0, # of connection points: 3
#     Node 35, Type 0, BuildingBlock: WUSLED_clean_sbu_0, # of connection points: 3
#     Node 36, Type 0, BuildingBlock: WUSLED_clean_sbu_0, # of connection points: 3
#     Node 37, Type 0, BuildingBlock: WUSLED_clean_sbu_0, # of connection points: 3
#     Node 38, Type 0, BuildingBlock: WUSLED_clean_sbu_0, # of connection points: 3
#     Node 39, Type 0, BuildingBlock: WUSLED_clean_sbu_0, # of connection points: 3
#     Node 40, Type 0, BuildingBlock: WUSLED_clean_sbu_0, # of connection points: 3
#     Node 41, Type 0, BuildingBlock: WUSLED_clean_sbu_0, # of connection points: 3
#     Node 42, Type 0, BuildingBlock: WUSLED_clean_sbu_0, # of connection points: 3
#     Node 43, Type 0, BuildingBlock: WUSLED_clean_sbu_0, # of connection points: 3
#     Node 44, Type 0, BuildingBlock: WUSLED_clean_sbu_0, # of connection points: 3
#     Node 45, Type 0, BuildingBlock: WUSLED_clean_sbu_0, # of connection points: 3
#     Node 46, Type 0, BuildingBlock: WUSLED_clean_sbu_0, # of connection points: 3
#     Node 47, Type 0, BuildingBlock: WUSLED_clean_sbu_0, # of connection points: 3
#     Node 48, Type 0, BuildingBlock: WUSLED_clean_sbu_0, # of connection points: 3
#     Node 49, Type 0, BuildingBlock: WUSLED_clean_sbu_0, # of connection points: 3
#     Node 50, Type 0, BuildingBlock: WUSLED_clean_sbu_0, # of connection points: 3
#     Node 51, Type 0, BuildingBlock: WUSLED_clean_sbu_0, # of connection points: 3
#     Node 52, Type 0, BuildingBlock: WUSLED_clean_sbu_0, # of connection points: 3
#     Node 53, Type 0, BuildingBlock: WUSLED_clean_sbu_0, # of connection points: 3
#     Node 54, Type 0, BuildingBlock: WUSLED_clean_sbu_0, # of connection points: 3
#     Node 55, Type 0, BuildingBlock: WUSLED_clean_sbu_0, # of connection points: 3
#     Node 56, Type 0, BuildingBlock: WUSLED_clean_sbu_0, # of connection points: 3
#     Node 57, Type 0, BuildingBlock: WUSLED_clean_sbu_0, # of connection points: 3
#     Node 58, Type 0, BuildingBlock: WUSLED_clean_sbu_0, # of connection points: 3
#     Node 59, Type 0, BuildingBlock: WUSLED_clean_sbu_0, # of connection points: 3
#     Node 60, Type 0, BuildingBlock: WUSLED_clean_sbu_0, # of connection points: 3
#     Node 61, Type 0, BuildingBlock: WUSLED_clean_sbu_0, # of connection points: 3
#     Node 62, Type 0, BuildingBlock: WUSLED_clean_sbu_0, # of connection points: 3
#     Node 63, Type 0, BuildingBlock: WUSLED_clean_sbu_0, # of connection points: 3
#     Node 64, Type 0, BuildingBlock: WUSLED_clean_sbu_0, # of connection points: 3
#     Node 65, Type 0, BuildingBlock: WUSLED_clean_sbu_0, # of connection points: 3
#     Node 66, Type 0, BuildingBlock: WUSLED_clean_sbu_0, # of connection points: 3
#     Node 67, Type 0, BuildingBlock: WUSLED_clean_sbu_0, # of connection points: 3
#     Node 68, Type 0, BuildingBlock: WUSLED_clean_sbu_0, # of connection points: 3
#     Node 69, Type 0, BuildingBlock: WUSLED_clean_sbu_0, # of connection points: 3
#     Node 70, Type 0, BuildingBlock: WUSLED_clean_sbu_0, # of connection points: 3
#     Node 71, Type 0, BuildingBlock: WUSLED_clean_sbu_0, # of connection points: 3
#     Node 72, Type 0, BuildingBlock: WUSLED_clean_sbu_0, # of connection points: 3
#     Node 73, Type 0, BuildingBlock: WUSLED_clean_sbu_0, # of connection points: 3
#     Node 74, Type 0, BuildingBlock: WUSLED_clean_sbu_0, # of connection points: 3
#     Node 75, Type 0, BuildingBlock: WUSLED_clean_sbu_0, # of connection points: 3
#     Node 76, Type 0, BuildingBlock: WUSLED_clean_sbu_0, # of connection points: 3
#     Node 77, Type 0, BuildingBlock: WUSLED_clean_sbu_0, # of connection points: 3
#     Node 78, Type 0, BuildingBlock: WUSLED_clean_sbu_0, # of connection points: 3
#     Node 79, Type 0, BuildingBlock: WUSLED_clean_sbu_0, # of connection points: 3
#     Node 80, Type 0, BuildingBlock: WUSLED_clean_sbu_0, # of connection points: 3
#     Node 81, Type 0, BuildingBlock: WUSLED_clean_sbu_0, # of connection points: 3
#     Node 82, Type 0, BuildingBlock: WUSLED_clean_sbu_0, # of connection points: 3
#     Node 83, Type 0, BuildingBlock: WUSLED_clean_sbu_0, # of connection points: 3
#     Node 84, Type 0, BuildingBlock: WUSLED_clean_sbu_0, # of connection points: 3
#     Node 85, Type 0, BuildingBlock: WUSLED_clean_sbu_0, # of connection points: 3
#     Node 86, Type 0, BuildingBlock: WUSLED_clean_sbu_0, # of connection points: 3
#     Node 87, Type 0, BuildingBlock: WUSLED_clean_sbu_0, # of connection points: 3
#     Node 88, Type 0, BuildingBlock: WUSLED_clean_sbu_0, # of connection points: 3
#     Node 89, Type 0, BuildingBlock: WUSLED_clean_sbu_0, # of connection points: 3
#     Node 90, Type 0, BuildingBlock: WUSLED_clean_sbu_0, # of connection points: 3
#     Node 91, Type 0, BuildingBlock: WUSLED_clean_sbu_0, # of connection points: 3
#     Node 92, Type 0, BuildingBlock: WUSLED_clean_sbu_0, # of connection points: 3
#     Node 93, Type 0, BuildingBlock: WUSLED_clean_sbu_0, # of connection points: 3
#     Node 94, Type 0, BuildingBlock: WUSLED_clean_sbu_0, # of connection points: 3
#     Node 95, Type 0, BuildingBlock: WUSLED_clean_sbu_0, # of connection points: 3
#     Node 96, Type 1, BuildingBlock: OLANEW_clean_sbu_2, # of connection points: 3
#     Node 97, Type 1, BuildingBlock: OLANEW_clean_sbu_2, # of connection points: 3
#     Node 98, Type 1, BuildingBlock: OLANEW_clean_sbu_2, # of connection points: 3
#     Node 99, Type 1, BuildingBlock: OLANEW_clean_sbu_2, # of connection points: 3
#     Node 100, Type 1, BuildingBlock: OLANEW_clean_sbu_2, # of connection points: 3
#     Node 101, Type 1, BuildingBlock: OLANEW_clean_sbu_2, # of connection points: 3
#     Node 102, Type 1, BuildingBlock: OLANEW_clean_sbu_2, # of connection points: 3
#     Node 103, Type 1, BuildingBlock: OLANEW_clean_sbu_2, # of connection points: 3
#     Node 104, Type 1, BuildingBlock: OLANEW_clean_sbu_2, # of connection points: 3
#     Node 105, Type 1, BuildingBlock: OLANEW_clean_sbu_2, # of connection points: 3
#     Node 106, Type 1, BuildingBlock: OLANEW_clean_sbu_2, # of connection points: 3
#     Node 107, Type 1, BuildingBlock: OLANEW_clean_sbu_2, # of connection points: 3
#     Node 108, Type 1, BuildingBlock: OLANEW_clean_sbu_2, # of connection points: 3
#     Node 109, Type 1, BuildingBlock: OLANEW_clean_sbu_2, # of connection points: 3
#     Node 110, Type 1, BuildingBlock: OLANEW_clean_sbu_2, # of connection points: 3
#     Node 111, Type 1, BuildingBlock: OLANEW_clean_sbu_2, # of connection points: 3
#     Node 112, Type 1, BuildingBlock: OLANEW_clean_sbu_2, # of connection points: 3
#     Node 113, Type 1, BuildingBlock: OLANEW_clean_sbu_2, # of connection points: 3
#     Node 114, Type 1, BuildingBlock: OLANEW_clean_sbu_2, # of connection points: 3
#     Node 115, Type 1, BuildingBlock: OLANEW_clean_sbu_2, # of connection points: 3
#     Node 116, Type 1, BuildingBlock: OLANEW_clean_sbu_2, # of connection points: 3
#     Node 117, Type 1, BuildingBlock: OLANEW_clean_sbu_2, # of connection points: 3
#     Node 118, Type 1, BuildingBlock: OLANEW_clean_sbu_2, # of connection points: 3
#     Node 119, Type 1, BuildingBlock: OLANEW_clean_sbu_2, # of connection points: 3
#     Node 120, Type 1, BuildingBlock: OLANEW_clean_sbu_2, # of connection points: 3
#     Node 121, Type 1, BuildingBlock: OLANEW_clean_sbu_2, # of connection points: 3
#     Node 122, Type 1, BuildingBlock: OLANEW_clean_sbu_2, # of connection points: 3
#     Node 123, Type 1, BuildingBlock: OLANEW_clean_sbu_2, # of connection points: 3
#     Node 124, Type 1, BuildingBlock: OLANEW_clean_sbu_2, # of connection points: 3
#     Node 125, Type 1, BuildingBlock: OLANEW_clean_sbu_2, # of connection points: 3
#     Node 126, Type 1, BuildingBlock: OLANEW_clean_sbu_2, # of connection points: 3
#     Node 127, Type 1, BuildingBlock: OLANEW_clean_sbu_2, # of connection points: 3
#     Node 128, Type 1, BuildingBlock: OLANEW_clean_sbu_2, # of connection points: 3
#     Node 129, Type 1, BuildingBlock: OLANEW_clean_sbu_2, # of connection points: 3
#     Node 130, Type 1, BuildingBlock: OLANEW_clean_sbu_2, # of connection points: 3
#     Node 131, Type 1, BuildingBlock: OLANEW_clean_sbu_2, # of connection points: 3
#     Node 132, Type 1, BuildingBlock: OLANEW_clean_sbu_2, # of connection points: 3
#     Node 133, Type 1, BuildingBlock: OLANEW_clean_sbu_2, # of connection points: 3
#     Node 134, Type 1, BuildingBlock: OLANEW_clean_sbu_2, # of connection points: 3
#     Node 135, Type 1, BuildingBlock: OLANEW_clean_sbu_2, # of connection points: 3
#     Node 136, Type 1, BuildingBlock: OLANEW_clean_sbu_2, # of connection points: 3
#     Node 137, Type 1, BuildingBlock: OLANEW_clean_sbu_2, # of connection points: 3
#     Node 138, Type 1, BuildingBlock: OLANEW_clean_sbu_2, # of connection points: 3
#     Node 139, Type 1, BuildingBlock: OLANEW_clean_sbu_2, # of connection points: 3
#     Node 140, Type 1, BuildingBlock: OLANEW_clean_sbu_2, # of connection points: 3
#     Node 141, Type 1, BuildingBlock: OLANEW_clean_sbu_2, # of connection points: 3
#     Node 142, Type 1, BuildingBlock: OLANEW_clean_sbu_2, # of connection points: 3
#     Node 143, Type 1, BuildingBlock: OLANEW_clean_sbu_2, # of connection points: 3
#     Node 144, Type 1, BuildingBlock: OLANEW_clean_sbu_2, # of connection points: 3
#     Node 145, Type 1, BuildingBlock: OLANEW_clean_sbu_2, # of connection points: 3
#     Node 146, Type 1, BuildingBlock: OLANEW_clean_sbu_2, # of connection points: 3
#     Node 147, Type 1, BuildingBlock: OLANEW_clean_sbu_2, # of connection points: 3
#     Node 148, Type 1, BuildingBlock: OLANEW_clean_sbu_2, # of connection points: 3
#     Node 149, Type 1, BuildingBlock: OLANEW_clean_sbu_2, # of connection points: 3
#     Node 150, Type 1, BuildingBlock: OLANEW_clean_sbu_2, # of connection points: 3
#     Node 151, Type 1, BuildingBlock: OLANEW_clean_sbu_2, # of connection points: 3
#     Node 152, Type 1, BuildingBlock: OLANEW_clean_sbu_2, # of connection points: 3
#     Node 153, Type 1, BuildingBlock: OLANEW_clean_sbu_2, # of connection points: 3
#     Node 154, Type 1, BuildingBlock: OLANEW_clean_sbu_2, # of connection points: 3
#     Node 155, Type 1, BuildingBlock: OLANEW_clean_sbu_2, # of connection points: 3
#     Node 156, Type 1, BuildingBlock: OLANEW_clean_sbu_2, # of connection points: 3
#     Node 157, Type 1, BuildingBlock: OLANEW_clean_sbu_2, # of connection points: 3
#     Node 158, Type 1, BuildingBlock: OLANEW_clean_sbu_2, # of connection points: 3
#     Node 159, Type 1, BuildingBlock: OLANEW_clean_sbu_2, # of connection points: 3
#     Node 160, Type 1, BuildingBlock: OLANEW_clean_sbu_2, # of connection points: 3
#     Node 161, Type 1, BuildingBlock: OLANEW_clean_sbu_2, # of connection points: 3
#     Node 162, Type 1, BuildingBlock: OLANEW_clean_sbu_2, # of connection points: 3
#     Node 163, Type 1, BuildingBlock: OLANEW_clean_sbu_2, # of connection points: 3
#     Node 164, Type 1, BuildingBlock: OLANEW_clean_sbu_2, # of connection points: 3
#     Node 165, Type 1, BuildingBlock: OLANEW_clean_sbu_2, # of connection points: 3
#     Node 166, Type 1, BuildingBlock: OLANEW_clean_sbu_2, # of connection points: 3
#     Node 167, Type 1, BuildingBlock: OLANEW_clean_sbu_2, # of connection points: 3
#     Node 168, Type 1, BuildingBlock: OLANEW_clean_sbu_2, # of connection points: 3
#     Node 169, Type 1, BuildingBlock: OLANEW_clean_sbu_2, # of connection points: 3
#     Node 170, Type 1, BuildingBlock: OLANEW_clean_sbu_2, # of connection points: 3
#     Node 171, Type 1, BuildingBlock: OLANEW_clean_sbu_2, # of connection points: 3
#     Node 172, Type 1, BuildingBlock: OLANEW_clean_sbu_2, # of connection points: 3
#     Node 173, Type 1, BuildingBlock: OLANEW_clean_sbu_2, # of connection points: 3
#     Node 174, Type 1, BuildingBlock: OLANEW_clean_sbu_2, # of connection points: 3
#     Node 175, Type 1, BuildingBlock: OLANEW_clean_sbu_2, # of connection points: 3
#     Node 176, Type 1, BuildingBlock: OLANEW_clean_sbu_2, # of connection points: 3
#     Node 177, Type 1, BuildingBlock: OLANEW_clean_sbu_2, # of connection points: 3
#     Node 178, Type 1, BuildingBlock: OLANEW_clean_sbu_2, # of connection points: 3
#     Node 179, Type 1, BuildingBlock: OLANEW_clean_sbu_2, # of connection points: 3
#     Node 180, Type 1, BuildingBlock: OLANEW_clean_sbu_2, # of connection points: 3
#     Node 181, Type 1, BuildingBlock: OLANEW_clean_sbu_2, # of connection points: 3
#     Node 182, Type 1, BuildingBlock: OLANEW_clean_sbu_2, # of connection points: 3
#     Node 183, Type 1, BuildingBlock: OLANEW_clean_sbu_2, # of connection points: 3
#     Node 184, Type 1, BuildingBlock: OLANEW_clean_sbu_2, # of connection points: 3
#     Node 185, Type 1, BuildingBlock: OLANEW_clean_sbu_2, # of connection points: 3
#     Node 186, Type 1, BuildingBlock: OLANEW_clean_sbu_2, # of connection points: 3
#     Node 187, Type 1, BuildingBlock: OLANEW_clean_sbu_2, # of connection points: 3
#     Node 188, Type 1, BuildingBlock: OLANEW_clean_sbu_2, # of connection points: 3
#     Node 189, Type 1, BuildingBlock: OLANEW_clean_sbu_2, # of connection points: 3
#     Node 190, Type 1, BuildingBlock: OLANEW_clean_sbu_2, # of connection points: 3
#     Node 191, Type 1, BuildingBlock: OLANEW_clean_sbu_2, # of connection points: 3
#     Edge 192, Type (0, 1), None
#     Edge 193, Type (0, 1), None
#     Edge 194, Type (0, 1), None
#     Edge 195, Type (0, 1), None
#     Edge 196, Type (0, 1), None
#     Edge 197, Type (0, 1), None
#     Edge 198, Type (0, 1), None
#     Edge 199, Type (0, 1), None
#     Edge 200, Type (0, 1), None
#     Edge 201, Type (0, 1), None
#     Edge 202, Type (0, 1), None
#     Edge 203, Type (0, 1), None
#     Edge 204, Type (0, 1), None
#     Edge 205, Type (0, 1), None
#     Edge 206, Type (0, 1), None
#     Edge 207, Type (0, 1), None
#     Edge 208, Type (0, 1), None
#     Edge 209, Type (0, 1), None
#     Edge 210, Type (0, 1), None
#     Edge 211, Type (0, 1), None
#     Edge 212, Type (0, 1), None
#     Edge 213, Type (0, 1), None
#     Edge 214, Type (0, 1), None
#     Edge 215, Type (0, 1), None
#     Edge 216, Type (0, 1), None
#     Edge 217, Type (0, 1), None
#     Edge 218, Type (0, 1), None
#     Edge 219, Type (0, 1), None
#     Edge 220, Type (0, 1), None
#     Edge 221, Type (0, 1), None
#     Edge 222, Type (0, 1), None
#     Edge 223, Type (0, 1), None
#     Edge 224, Type (0, 1), None
#     Edge 225, Type (0, 1), None
#     Edge 226, Type (0, 1), None
#     Edge 227, Type (0, 1), None
#     Edge 228, Type (0, 1), None
#     Edge 229, Type (0, 1), None
#     Edge 230, Type (0, 1), None
#     Edge 231, Type (0, 1), None
#     Edge 232, Type (0, 1), None
#     Edge 233, Type (0, 1), None
#     Edge 234, Type (0, 1), None
#     Edge 235, Type (0, 1), None
#     Edge 236, Type (0, 1), None
#     Edge 237, Type (0, 1), None
#     Edge 238, Type (0, 1), None
#     Edge 239, Type (0, 1), None
#     Edge 240, Type (0, 1), None
#     Edge 241, Type (0, 1), None
#     Edge 242, Type (0, 1), None
#     Edge 243, Type (0, 1), None
#     Edge 244, Type (0, 1), None
#     Edge 245, Type (0, 1), None
#     Edge 246, Type (0, 1), None
#     Edge 247, Type (0, 1), None
#     Edge 248, Type (0, 1), None
#     Edge 249, Type (0, 1), None
#     Edge 250, Type (0, 1), None
#     Edge 251, Type (0, 1), None
#     Edge 252, Type (0, 1), None
#     Edge 253, Type (0, 1), None
#     Edge 254, Type (0, 1), None
#     Edge 255, Type (0, 1), None
#     Edge 256, Type (0, 1), None
#     Edge 257, Type (0, 1), None
#     Edge 258, Type (0, 1), None
#     Edge 259, Type (0, 1), None
#     Edge 260, Type (0, 1), None
#     Edge 261, Type (0, 1), None
#     Edge 262, Type (0, 1), None
#     Edge 263, Type (0, 1), None
#     Edge 264, Type (0, 1), None
#     Edge 265, Type (0, 1), None
#     Edge 266, Type (0, 1), None
#     Edge 267, Type (0, 1), None
#     Edge 268, Type (0, 1), None
#     Edge 269, Type (0, 1), None
#     Edge 270, Type (0, 1), None
#     Edge 271, Type (0, 1), None
#     Edge 272, Type (0, 1), None
#     Edge 273, Type (0, 1), None
#     Edge 274, Type (0, 1), None
#     Edge 275, Type (0, 1), None
#     Edge 276, Type (0, 1), None
#     Edge 277, Type (0, 1), None
#     Edge 278, Type (0, 1), None
#     Edge 279, Type (0, 1), None
#     Edge 280, Type (0, 1), None
#     Edge 281, Type (0, 1), None
#     Edge 282, Type (0, 1), None
#     Edge 283, Type (0, 1), None
#     Edge 284, Type (0, 1), None
#     Edge 285, Type (0, 1), None
#     Edge 286, Type (0, 1), None
#     Edge 287, Type (0, 1), None
#     Edge 288, Type (0, 1), None
#     Edge 289, Type (0, 1), None
#     Edge 290, Type (0, 1), None
#     Edge 291, Type (0, 1), None
#     Edge 292, Type (0, 1), None
#     Edge 293, Type (0, 1), None
#     Edge 294, Type (0, 1), None
#     Edge 295, Type (0, 1), None
#     Edge 296, Type (0, 1), None
#     Edge 297, Type (0, 1), None
#     Edge 298, Type (0, 1), None
#     Edge 299, Type (0, 1), None
#     Edge 300, Type (0, 1), None
#     Edge 301, Type (0, 1), None
#     Edge 302, Type (0, 1), None
#     Edge 303, Type (0, 1), None
#     Edge 304, Type (0, 1), None
#     Edge 305, Type (0, 1), None
#     Edge 306, Type (0, 1), None
#     Edge 307, Type (0, 1), None
#     Edge 308, Type (0, 1), None
#     Edge 309, Type (0, 1), None
#     Edge 310, Type (0, 1), None
#     Edge 311, Type (0, 1), None
#     Edge 312, Type (0, 1), None
#     Edge 313, Type (0, 1), None
#     Edge 314, Type (0, 1), None
#     Edge 315, Type (0, 1), None
#     Edge 316, Type (0, 1), None
#     Edge 317, Type (0, 1), None
#     Edge 318, Type (0, 1), None
#     Edge 319, Type (0, 1), None
#     Edge 320, Type (0, 1), None
#     Edge 321, Type (0, 1), None
#     Edge 322, Type (0, 1), None
#     Edge 323, Type (0, 1), None
#     Edge 324, Type (0, 1), None
#     Edge 325, Type (0, 1), None
#     Edge 326, Type (0, 1), None
#     Edge 327, Type (0, 1), None
#     Edge 328, Type (0, 1), None
#     Edge 329, Type (0, 1), None
#     Edge 330, Type (0, 1), None
#     Edge 331, Type (0, 1), None
#     Edge 332, Type (0, 1), None
#     Edge 333, Type (0, 1), None
#     Edge 334, Type (0, 1), None
#     Edge 335, Type (0, 1), None
#     Edge 336, Type (0, 1), None
#     Edge 337, Type (0, 1), None
#     Edge 338, Type (0, 1), None
#     Edge 339, Type (0, 1), None
#     Edge 340, Type (0, 1), None
#     Edge 341, Type (0, 1), None
#     Edge 342, Type (0, 1), None
#     Edge 343, Type (0, 1), None
#     Edge 344, Type (0, 1), None
#     Edge 345, Type (0, 1), None
#     Edge 346, Type (0, 1), None
#     Edge 347, Type (0, 1), None
#     Edge 348, Type (0, 1), None
#     Edge 349, Type (0, 1), None
#     Edge 350, Type (0, 1), None
#     Edge 351, Type (0, 1), None
#     Edge 352, Type (0, 1), None
#     Edge 353, Type (0, 1), None
#     Edge 354, Type (0, 1), None
#     Edge 355, Type (0, 1), None
#     Edge 356, Type (0, 1), None
#     Edge 357, Type (0, 1), None
#     Edge 358, Type (0, 1), None
#     Edge 359, Type (0, 1), None
#     Edge 360, Type (0, 1), None
#     Edge 361, Type (0, 1), None
#     Edge 362, Type (0, 1), None
#     Edge 363, Type (0, 1), None
#     Edge 364, Type (0, 1), None
#     Edge 365, Type (0, 1), None
#     Edge 366, Type (0, 1), None
#     Edge 367, Type (0, 1), None
#     Edge 368, Type (0, 1), None
#     Edge 369, Type (0, 1), None
#     Edge 370, Type (0, 1), None
#     Edge 371, Type (0, 1), None
#     Edge 372, Type (0, 1), None
#     Edge 373, Type (0, 1), None
#     Edge 374, Type (0, 1), None
#     Edge 375, Type (0, 1), None
#     Edge 376, Type (0, 1), None
#     Edge 377, Type (0, 1), None
#     Edge 378, Type (0, 1), None
#     Edge 379, Type (0, 1), None
#     Edge 380, Type (0, 1), None
#     Edge 381, Type (0, 1), None
#     Edge 382, Type (0, 1), None
#     Edge 383, Type (0, 1), None
#     Edge 384, Type (0, 1), None
#     Edge 385, Type (0, 1), None
#     Edge 386, Type (0, 1), None
#     Edge 387, Type (0, 1), None
#     Edge 388, Type (0, 1), None
#     Edge 389, Type (0, 1), None
#     Edge 390, Type (0, 1), None
#     Edge 391, Type (0, 1), None
#     Edge 392, Type (0, 1), None
#     Edge 393, Type (0, 1), None
#     Edge 394, Type (0, 1), None
#     Edge 395, Type (0, 1), None
#     Edge 396, Type (0, 1), None
#     Edge 397, Type (0, 1), None
#     Edge 398, Type (0, 1), None
#     Edge 399, Type (0, 1), None
#     Edge 400, Type (0, 1), None
#     Edge 401, Type (0, 1), None
#     Edge 402, Type (0, 1), None
#     Edge 403, Type (0, 1), None
#     Edge 404, Type (0, 1), None
#     Edge 405, Type (0, 1), None
#     Edge 406, Type (0, 1), None
#     Edge 407, Type (0, 1), None
#     Edge 408, Type (0, 1), None
#     Edge 409, Type (0, 1), None
#     Edge 410, Type (0, 1), None
#     Edge 411, Type (0, 1), None
#     Edge 412, Type (0, 1), None
#     Edge 413, Type (0, 1), None
#     Edge 414, Type (0, 1), None
#     Edge 415, Type (0, 1), None
#     Edge 416, Type (0, 1), None
#     Edge 417, Type (0, 1), None
#     Edge 418, Type (0, 1), None
#     Edge 419, Type (0, 1), None
#     Edge 420, Type (0, 1), None
#     Edge 421, Type (0, 1), None
#     Edge 422, Type (0, 1), None
#     Edge 423, Type (0, 1), None
#     Edge 424, Type (0, 1), None
#     Edge 425, Type (0, 1), None
#     Edge 426, Type (0, 1), None
#     Edge 427, Type (0, 1), None
#     Edge 428, Type (0, 1), None
#     Edge 429, Type (0, 1), None
#     Edge 430, Type (0, 1), None
#     Edge 431, Type (0, 1), None
#     Edge 432, Type (0, 1), None
#     Edge 433, Type (0, 1), None
#     Edge 434, Type (0, 1), None
#     Edge 435, Type (0, 1), None
#     Edge 436, Type (0, 1), None
#     Edge 437, Type (0, 1), None
#     Edge 438, Type (0, 1), None
#     Edge 439, Type (0, 1), None
#     Edge 440, Type (0, 1), None
#     Edge 441, Type (0, 1), None
#     Edge 442, Type (0, 1), None
#     Edge 443, Type (0, 1), None
#     Edge 444, Type (0, 1), None
#     Edge 445, Type (0, 1), None
#     Edge 446, Type (0, 1), None
#     Edge 447, Type (0, 1), None
#     Edge 448, Type (0, 1), None
#     Edge 449, Type (0, 1), None
#     Edge 450, Type (0, 1), None
#     Edge 451, Type (0, 1), None
#     Edge 452, Type (0, 1), None
#     Edge 453, Type (0, 1), None
#     Edge 454, Type (0, 1), None
#     Edge 455, Type (0, 1), None
#     Edge 456, Type (0, 1), None
#     Edge 457, Type (0, 1), None
#     Edge 458, Type (0, 1), None
#     Edge 459, Type (0, 1), None
#     Edge 460, Type (0, 1), None
#     Edge 461, Type (0, 1), None
#     Edge 462, Type (0, 1), None
#     Edge 463, Type (0, 1), None
#     Edge 464, Type (0, 1), None
#     Edge 465, Type (0, 1), None
#     Edge 466, Type (0, 1), None
#     Edge 467, Type (0, 1), None
#     Edge 468, Type (0, 1), None
#     Edge 469, Type (0, 1), None
#     Edge 470, Type (0, 1), None
#     Edge 471, Type (0, 1), None
#     Edge 472, Type (0, 1), None
#     Edge 473, Type (0, 1), None
#     Edge 474, Type (0, 1), None
#     Edge 475, Type (0, 1), None
#     Edge 476, Type (0, 1), None
#     Edge 477, Type (0, 1), None
#     Edge 478, Type (0, 1), None
#     Edge 479, Type (0, 1), None
# Relax obj value: 0.040
# Max RMSD: 0.080
# Mean RMSD: 0.061
data_MOF--net-ana-f--node1-WUSLED_clean_sbu_0--node2-OLANEW_clean_sbu_2--edge1-none
_symmetry_space_group_name_H-M    P1
_symmetry_Int_Tables_number       1
_symmetry_cell_setting            triclinic
loop_
_symmetry_equiv_pos_as_xyz
'x, y, z'
_cell_length_a     115.7199
_cell_length_b     115.71989
_cell_length_c     115.72048
_cell_angle_alpha  89.99996
_cell_angle_beta   89.999989
_cell_angle_gamma 89.999889
loop_
_atom_site_label
_atom_site_type_symbol
_atom_site_fract_x
_atom_site_fract_y
_atom_site_fract_z
_atom_type_partial_charge
C0 C 0.07412 0.14186 0.42418 0.0
C1 C 0.08542 0.14614 0.42328 0.0
C2 C 0.09195 0.13231 0.43773 0.0
C3 C 0.09427 0.14141 0.43001 0.0
C4 C 0.08054 0.12823 0.43876 0.0
C5 C 0.0717 0.13297 0.43201 0.0
U6 U 0.06475 0.16172 0.39999 0.0
O7 O 0.05389 0.1583 0.38478 0.0
O8 O 0.04876 0.17165 0.39724 0.0
C9 C 0.04572 0.1654 0.38823 0.0
C10 C 0.06498 0.14628 0.41658 0.0
C11 C 0.03383 0.16062 0.3882 0.0
C12 C 0.01921 0.14858 0.37902 0.0
C13 C 0.03037 0.15318 0.37925 0.0
C14 C 0.01458 0.15897 0.39658 0.0
C15 C 0.01118 0.15143 0.38768 0.0
C16 C 0.02579 0.16351 0.39685 0.0
C17 C 0.0878 0.18138 0.38644 0.0
C18 C 0.08467 0.19864 0.37487 0.0
C19 C 0.10279 0.18826 0.37346 0.0
C20 C 0.09885 0.18027 0.3816 0.0
C21 C 0.09582 0.19762 0.37013 0.0
C22 C 0.08069 0.19058 0.38297 0.0
C23 C 0.08391 0.17274 0.39493 0.0
O24 O 0.06204 0.15712 0.41825 0.0
O25 O 0.06629 0.14365 0.40561 0.0
O26 O 0.08131 0.16254 0.39066 0.0
O27 O 0.07658 0.17631 0.40284 0.0
H28 H 0.08743 0.15301 0.41724 0.0
H29 H 0.10295 0.14477 0.42902 0.0
H30 H 0.07845 0.12124 0.44462 0.0
H31 H 0.06301 0.12956 0.43277 0.0
H32 H 0.01685 0.14286 0.372 0.0
H33 H 0.03632 0.15089 0.37239 0.0
H34 H 0.00859 0.16136 0.40337 0.0
H35 H 0.02811 0.16929 0.40383 0.0
H36 H 0.07904 0.20568 0.37234 0.0
H37 H 0.11114 0.18686 0.36953 0.0
H38 H 0.10439 0.17313 0.38403 0.0
H39 H 0.07206 0.19153 0.38649 0.0
C40 C 0.10861 0.82412 0.67418 0.0
C41 C 0.10433 0.83543 0.67329 0.0
C42 C 0.11816 0.84195 0.68773 0.0
C43 C 0.10906 0.84427 0.68001 0.0
C44 C 0.12224 0.83054 0.68876 0.0
C45 C 0.11751 0.8217 0.68201 0.0
U46 U 0.08876 0.81475 0.64999 0.0
O47 O 0.09218 0.80389 0.63478 0.0
O48 O 0.07883 0.79877 0.64724 0.0
C49 C 0.08507 0.79572 0.63823 0.0
C50 C 0.1042 0.81498 0.66658 0.0
C51 C 0.08986 0.78383 0.6382 0.0
C52 C 0.10189 0.76921 0.62902 0.0
C53 C 0.0973 0.78038 0.62925 0.0
C54 C 0.09151 0.76459 0.64658 0.0
C55 C 0.09905 0.76118 0.63768 0.0
C56 C 0.08696 0.77579 0.64685 0.0
C57 C 0.06909 0.83781 0.63645 0.0
C58 C 0.05184 0.83467 0.62487 0.0
C59 C 0.06221 0.85279 0.62346 0.0
C60 C 0.0702 0.84885 0.63161 0.0
C61 C 0.05285 0.84582 0.62013 0.0
C62 C 0.05989 0.83069 0.63297 0.0
C63 C 0.07774 0.83392 0.64493 0.0
O64 O 0.09335 0.81204 0.66825 0.0
O65 O 0.10682 0.8163 0.65561 0.0
O66 O 0.08793 0.83131 0.64067 0.0
O67 O 0.07416 0.82658 0.65285 0.0
H68 H 0.09746 0.83743 0.66724 0.0
H69 H 0.1057 0.85295 0.67902 0.0
H70 H 0.12923 0.82845 0.69463 0.0
H71 H 0.12091 0.81301 0.68278 0.0
H72 H 0.10761 0.76685 0.622 0.0
H73 H 0.09957 0.78633 0.62239 0.0
H74 H 0.08913 0.7586 0.65337 0.0
H75 H 0.08119 0.77812 0.65383 0.0
H76 H 0.04479 0.82905 0.62235 0.0
H77 H 0.06361 0.86115 0.61953 0.0
H78 H 0.07735 0.8544 0.63404 0.0
H79 H 0.05894 0.82207 0.63649 0.0
C80 C 0.42635 0.85861 0.92417 0.0
C81 C 0.41505 0.85433 0.92328 0.0
C82 C 0.40853 0.86817 0.93772 0.0
C83 C 0.4062 0.85906 0.93 0.0
C84 C 0.41994 0.87225 0.93875 0.0
C85 C 0.42878 0.86751 0.932 0.0
U86 U 0.43572 0.83876 0.89998 0.0
O87 O 0.44658 0.84217 0.88478 0.0
O88 O 0.45171 0.82882 0.89723 0.0
C89 C 0.45475 0.83507 0.88823 0.0
C90 C 0.43549 0.8542 0.91657 0.0
C91 C 0.46664 0.83985 0.88819 0.0
C92 C 0.48127 0.85189 0.87901 0.0
C93 C 0.4701 0.84729 0.87924 0.0
C94 C 0.48589 0.8415 0.89657 0.0
C95 C 0.48929 0.84904 0.88767 0.0
C96 C 0.47469 0.83695 0.89684 0.0
C97 C 0.41267 0.81909 0.88644 0.0
C98 C 0.4158 0.80184 0.87487 0.0
C99 C 0.39768 0.81221 0.87346 0.0
C100 C 0.40162 0.8202 0.8816 0.0
C101 C 0.40465 0.80285 0.87013 0.0
C102 C 0.41978 0.80989 0.88297 0.0
C103 C 0.41656 0.82774 0.89493 0.0
O104 O 0.43843 0.84335 0.91824 0.0
O105 O 0.43418 0.85682 0.9056 0.0
O106 O 0.41916 0.83793 0.89066 0.0
O107 O 0.42389 0.82416 0.90284 0.0
H108 H 0.41304 0.84747 0.91723 0.0
H109 H 0.39752 0.8557 0.92901 0.0
H110 H 0.42202 0.87923 0.94462 0.0
H111 H 0.43746 0.87092 0.93277 0.0
H112 H 0.48362 0.85761 0.872 0.0
H113 H 0.46415 0.84958 0.87238 0.0
H114 H 0.49188 0.83911 0.90336 0.0
H115 H 0.47236 0.83117 0.90382 0.0
H116 H 0.42142 0.79479 0.87234 0.0
H117 H 0.38932 0.81361 0.86953 0.0
H118 H 0.39608 0.82735 0.88403 0.0
H119 H 0.42841 0.80894 0.88648 0.0
C120 C 0.39186 0.17636 0.17418 0.0
C121 C 0.39614 0.16505 0.17329 0.0
C122 C 0.3823 0.15853 0.18773 0.0
C123 C 0.39141 0.15621 0.18001 0.0
C124 C 0.37822 0.16994 0.18876 0.0
C125 C 0.38296 0.17878 0.18201 0.0
U126 U 0.41171 0.18573 0.14999 0.0
O127 O 0.40829 0.19659 0.13479 0.0
O128 O 0.42164 0.20171 0.14724 0.0
C129 C 0.41539 0.20476 0.13823 0.0
C130 C 0.39627 0.18549 0.16658 0.0
C131 C 0.41061 0.21665 0.1382 0.0
C132 C 0.39858 0.23127 0.12902 0.0
C133 C 0.40317 0.2201 0.12925 0.0
C134 C 0.40896 0.23589 0.14658 0.0
C135 C 0.40142 0.2393 0.13768 0.0
C136 C 0.4135 0.22469 0.14685 0.0
C137 C 0.43138 0.16267 0.13645 0.0
C138 C 0.44863 0.16581 0.12488 0.0
C139 C 0.43826 0.14769 0.12346 0.0
C140 C 0.43027 0.15163 0.13161 0.0
C141 C 0.44762 0.15466 0.12013 0.0
C142 C 0.44058 0.16979 0.13298 0.0
C143 C 0.42273 0.16656 0.14493 0.0
O144 O 0.40712 0.18844 0.16825 0.0
O145 O 0.39365 0.18418 0.15561 0.0
O146 O 0.41254 0.16917 0.14067 0.0
O147 O 0.4263 0.1739 0.15285 0.0
H148 H 0.403 0.16305 0.16724 0.0
H149 H 0.39477 0.14753 0.17902 0.0
H150 H 0.37124 0.17203 0.19463 0.0
H151 H 0.37955 0.18747 0.18278 0.0
H152 H 0.39286 0.23363 0.122 0.0
H153 H 0.40089 0.21415 0.12239 0.0
H154 H 0.41134 0.24188 0.15337 0.0
H155 H 0.41928 0.22236 0.15384 0.0
H156 H 0.45568 0.17143 0.12235 0.0
H157 H 0.43686 0.13933 0.11953 0.0
H158 H 0.42312 0.14608 0.13404 0.0
H159 H 0.44153 0.17841 0.13649 0.0
C160 C 0.07412 0.85862 0.07629 0.0
C161 C 0.08542 0.85434 0.07718 0.0
C162 C 0.09195 0.86817 0.06274 0.0
C163 C 0.09427 0.85907 0.07046 0.0
C164 C 0.08054 0.87225 0.06171 0.0
C165 C 0.0717 0.86751 0.06846 0.0
U166 U 0.06475 0.83876 0.10048 0.0
O167 O 0.05389 0.84218 0.11568 0.0
O168 O 0.04876 0.82883 0.10323 0.0
C169 C 0.04572 0.83508 0.11224 0.0
C170 C 0.06498 0.8542 0.08389 0.0
C171 C 0.03383 0.83986 0.11227 0.0
C172 C 0.01921 0.8519 0.12145 0.0
C173 C 0.03037 0.8473 0.12122 0.0
C174 C 0.01458 0.84152 0.10389 0.0
C175 C 0.01118 0.84905 0.11279 0.0
C176 C 0.02579 0.83697 0.10362 0.0
C177 C 0.0878 0.8191 0.11402 0.0
C178 C 0.08467 0.80184 0.12559 0.0
C179 C 0.10279 0.81222 0.12701 0.0
C180 C 0.09885 0.82021 0.11886 0.0
C181 C 0.09582 0.80285 0.13034 0.0
C182 C 0.08069 0.8099 0.11749 0.0
C183 C 0.08391 0.82774 0.10554 0.0
O184 O 0.06204 0.84336 0.08222 0.0
O185 O 0.06629 0.85683 0.09486 0.0
O186 O 0.08131 0.83794 0.1098 0.0
O187 O 0.07658 0.82417 0.09762 0.0
H188 H 0.08743 0.84747 0.08323 0.0
H189 H 0.10295 0.85571 0.07145 0.0
H190 H 0.07845 0.87924 0.05584 0.0
H191 H 0.06301 0.87092 0.06769 0.0
H192 H 0.01685 0.85762 0.12847 0.0
H193 H 0.03632 0.84958 0.12808 0.0
H194 H 0.0086 0.83913 0.0971 0.0
H195 H 0.02811 0.83119 0.09663 0.0
H196 H 0.07905 0.7948 0.12812 0.0
H197 H 0.11114 0.81362 0.13094 0.0
H198 H 0.10439 0.82735 0.11643 0.0
H199 H 0.07206 0.80895 0.11398 0.0
C200 C 0.39186 0.82412 0.3263 0.0
C201 C 0.39614 0.83543 0.3272 0.0
C202 C 0.38231 0.84195 0.31275 0.0
C203 C 0.39141 0.84427 0.32047 0.0
C204 C 0.37823 0.83054 0.31173 0.0
C205 C 0.38297 0.8217 0.31847 0.0
U206 U 0.41172 0.81476 0.35049 0.0
O207 O 0.4083 0.8039 0.3657 0.0
O208 O 0.42165 0.79877 0.35324 0.0
C209 C 0.41541 0.79572 0.36225 0.0
C210 C 0.39628 0.81499 0.33391 0.0
C211 C 0.41062 0.78384 0.36228 0.0
C212 C 0.39859 0.76921 0.37146 0.0
C213 C 0.40318 0.78038 0.37123 0.0
C214 C 0.40898 0.76459 0.3539 0.0
C215 C 0.40144 0.76119 0.3628 0.0
C216 C 0.41352 0.77579 0.35363 0.0
C217 C 0.43138 0.83781 0.36404 0.0
C218 C 0.44864 0.83468 0.37561 0.0
C219 C 0.43827 0.8528 0.37702 0.0
C220 C 0.43028 0.84886 0.36887 0.0
C221 C 0.44763 0.84583 0.38035 0.0
C222 C 0.44059 0.8307 0.36751 0.0
C223 C 0.42274 0.83392 0.35555 0.0
O224 O 0.40713 0.81204 0.33223 0.0
O225 O 0.39366 0.8163 0.34487 0.0
O226 O 0.41254 0.83131 0.35982 0.0
O227 O 0.42631 0.82658 0.34763 0.0
H228 H 0.40301 0.83744 0.33324 0.0
H229 H 0.39477 0.85295 0.32146 0.0
H230 H 0.37124 0.82845 0.30586 0.0
H231 H 0.37956 0.81301 0.31771 0.0
H232 H 0.39286 0.76685 0.37848 0.0
H233 H 0.4009 0.78633 0.37809 0.0
H234 H 0.41136 0.7586 0.34711 0.0
H235 H 0.4193 0.77812 0.34665 0.0
H236 H 0.45568 0.82905 0.37813 0.0
H237 H 0.43687 0.86115 0.38095 0.0
H238 H 0.42313 0.8544 0.36645 0.0
H239 H 0.44154 0.82207 0.36399 0.0
C240 C 0.42636 0.14187 0.57629 0.0
C241 C 0.41505 0.14615 0.57718 0.0
C242 C 0.40853 0.13231 0.56273 0.0
C243 C 0.40621 0.14142 0.57046 0.0
C244 C 0.41994 0.12823 0.56171 0.0
C245 C 0.42878 0.13297 0.56846 0.0
U246 U 0.43572 0.16172 0.60048 0.0
O247 O 0.44658 0.1583 0.61568 0.0
O248 O 0.45171 0.17165 0.60323 0.0
C249 C 0.45476 0.1654 0.61224 0.0
C250 C 0.43549 0.14628 0.58389 0.0
C251 C 0.46664 0.16062 0.61227 0.0
C252 C 0.48127 0.14858 0.62145 0.0
C253 C 0.4701 0.15318 0.62122 0.0
C254 C 0.48589 0.15896 0.60389 0.0
C255 C 0.48929 0.15143 0.61279 0.0
C256 C 0.47469 0.16351 0.60362 0.0
C257 C 0.41267 0.18138 0.61402 0.0
C258 C 0.41581 0.19864 0.62559 0.0
C259 C 0.39769 0.18826 0.62701 0.0
C260 C 0.40163 0.18028 0.61886 0.0
C261 C 0.40466 0.19763 0.63034 0.0
C262 C 0.41979 0.19058 0.61749 0.0
C263 C 0.41656 0.17274 0.60553 0.0
O264 O 0.43844 0.15712 0.58222 0.0
O265 O 0.43418 0.14366 0.59486 0.0
O266 O 0.41917 0.16254 0.6098 0.0
O267 O 0.4239 0.17631 0.59762 0.0
H268 H 0.41304 0.15301 0.58322 0.0
H269 H 0.39753 0.14478 0.57145 0.0
H270 H 0.42202 0.12124 0.55584 0.0
H271 H 0.43747 0.12956 0.56769 0.0
H272 H 0.48363 0.14286 0.62847 0.0
H273 H 0.46415 0.1509 0.62808 0.0
H274 H 0.49188 0.16134 0.5971 0.0
H275 H 0.47236 0.16928 0.59663 0.0
H276 H 0.42143 0.20568 0.62812 0.0
H277 H 0.38933 0.18687 0.63094 0.0
H278 H 0.39608 0.17313 0.61643 0.0
H279 H 0.42841 0.19153 0.61398 0.0
C280 C 0.10861 0.17636 0.82629 0.0
C281 C 0.10433 0.16505 0.82719 0.0
C282 C 0.11816 0.15853 0.81274 0.0
C283 C 0.10906 0.15621 0.82046 0.0
C284 C 0.12225 0.16994 0.81172 0.0
C285 C 0.11751 0.17878 0.81846 0.0
U286 U 0.08876 0.18572 0.85049 0.0
O287 O 0.09218 0.19659 0.86569 0.0
O288 O 0.07883 0.20171 0.85323 0.0
C289 C 0.08507 0.20476 0.86224 0.0
C290 C 0.1042 0.18549 0.8339 0.0
C291 C 0.08986 0.21665 0.86227 0.0
C292 C 0.10189 0.23127 0.87145 0.0
C293 C 0.0973 0.2201 0.87122 0.0
C294 C 0.0915 0.23589 0.85389 0.0
C295 C 0.09905 0.2393 0.86279 0.0
C296 C 0.08696 0.22469 0.85362 0.0
C297 C 0.06909 0.16267 0.86403 0.0
C298 C 0.05184 0.16581 0.8756 0.0
C299 C 0.06221 0.14769 0.87701 0.0
C300 C 0.0702 0.15163 0.86887 0.0
C301 C 0.05285 0.15466 0.88034 0.0
C302 C 0.05989 0.16979 0.8675 0.0
C303 C 0.07774 0.16656 0.85554 0.0
O304 O 0.09335 0.18844 0.83222 0.0
O305 O 0.10682 0.18418 0.84486 0.0
O306 O 0.08793 0.16917 0.85981 0.0
O307 O 0.07417 0.1739 0.84763 0.0
H308 H 0.09747 0.16304 0.83323 0.0
H309 H 0.1057 0.14753 0.82145 0.0
H310 H 0.12923 0.17202 0.80585 0.0
H311 H 0.12092 0.18747 0.8177 0.0
H312 H 0.10762 0.23363 0.87847 0.0
H313 H 0.09958 0.21415 0.87808 0.0
H314 H 0.08912 0.24188 0.8471 0.0
H315 H 0.08118 0.22236 0.84664 0.0
H316 H 0.0448 0.17143 0.87813 0.0
H317 H 0.06361 0.13933 0.88095 0.0
H318 H 0.07735 0.14608 0.86644 0.0
H319 H 0.05894 0.17841 0.86398 0.0
C320 C 0.42417 0.07412 0.14186 0.0
C321 C 0.42328 0.08543 0.14614 0.0
C322 C 0.43773 0.09195 0.13231 0.0
C323 C 0.43001 0.09427 0.14141 0.0
C324 C 0.43875 0.08054 0.12823 0.0
C325 C 0.43201 0.0717 0.13297 0.0
U326 U 0.39998 0.06476 0.16172 0.0
O327 O 0.38478 0.05389 0.1583 0.0
O328 O 0.39723 0.04877 0.17165 0.0
C329 C 0.38823 0.04572 0.1654 0.0
C330 C 0.41657 0.06499 0.14628 0.0
C331 C 0.3882 0.03383 0.16062 0.0
C332 C 0.37902 0.01921 0.14858 0.0
C333 C 0.37924 0.03038 0.15318 0.0
C334 C 0.39658 0.01459 0.15897 0.0
C335 C 0.38768 0.01119 0.15143 0.0
C336 C 0.39685 0.02579 0.16351 0.0
C337 C 0.38644 0.08781 0.18138 0.0
C338 C 0.37487 0.08468 0.19864 0.0
C339 C 0.37345 0.10279 0.18826 0.0
C340 C 0.3816 0.09885 0.18027 0.0
C341 C 0.37012 0.09582 0.19762 0.0
C342 C 0.38297 0.08069 0.19058 0.0
C343 C 0.39493 0.08392 0.17273 0.0
O344 O 0.41824 0.06204 0.15712 0.0
O345 O 0.4056 0.0663 0.14365 0.0
O346 O 0.39066 0.08131 0.16254 0.0
O347 O 0.40284 0.07658 0.17631 0.0
H348 H 0.41724 0.08744 0.15301 0.0
H349 H 0.42902 0.10295 0.14477 0.0
H350 H 0.44462 0.07846 0.12124 0.0
H351 H 0.43277 0.06301 0.12956 0.0
H352 H 0.37199 0.01685 0.14286 0.0
H353 H 0.37238 0.03633 0.1509 0.0
H354 H 0.40337 0.0086 0.16135 0.0
H355 H 0.40383 0.02812 0.16929 0.0
H356 H 0.37234 0.07905 0.20568 0.0
H357 H 0.36952 0.11115 0.18686 0.0
H358 H 0.38403 0.1044 0.17313 0.0
H359 H 0.38648 0.07207 0.19153 0.0
C360 C 0.17635 0.17418 0.39186 0.0
C361 C 0.16505 0.17329 0.39614 0.0
C362 C 0.15852 0.18774 0.38231 0.0
C363 C 0.1562 0.18001 0.39141 0.0
C364 C 0.16994 0.18876 0.37823 0.0
C365 C 0.17878 0.18201 0.38296 0.0
U366 U 0.18572 0.14999 0.41171 0.0
O367 O 0.19658 0.13479 0.4083 0.0
O368 O 0.20171 0.14725 0.42165 0.0
C369 C 0.20475 0.13824 0.4154 0.0
C370 C 0.18549 0.16658 0.39628 0.0
C371 C 0.21664 0.13821 0.41062 0.0
C372 C 0.23127 0.12903 0.39858 0.0
C373 C 0.2201 0.12925 0.40318 0.0
C374 C 0.23589 0.14659 0.40897 0.0
C375 C 0.23929 0.13769 0.40143 0.0
C376 C 0.22469 0.14686 0.41351 0.0
C377 C 0.16267 0.13645 0.43138 0.0
C378 C 0.1658 0.12488 0.44864 0.0
C379 C 0.14768 0.12346 0.43826 0.0
C380 C 0.15162 0.13161 0.43027 0.0
C381 C 0.15466 0.12014 0.44762 0.0
C382 C 0.16979 0.13298 0.44058 0.0
C383 C 0.16656 0.14494 0.42273 0.0
O384 O 0.18843 0.16826 0.40712 0.0
O385 O 0.18418 0.15561 0.39365 0.0
O386 O 0.16917 0.14067 0.41254 0.0
O387 O 0.1739 0.15285 0.42631 0.0
H388 H 0.16304 0.16725 0.40301 0.0
H389 H 0.14752 0.17902 0.39477 0.0
H390 H 0.17202 0.19463 0.37124 0.0
H391 H 0.18746 0.18278 0.37956 0.0
H392 H 0.23363 0.12201 0.39286 0.0
H393 H 0.21415 0.12239 0.40089 0.0
H394 H 0.24188 0.15338 0.41135 0.0
H395 H 0.22236 0.15384 0.41929 0.0
H396 H 0.17143 0.12235 0.45568 0.0
H397 H 0.13933 0.11953 0.43686 0.0
H398 H 0.14608 0.13404 0.42313 0.0
H399 H 0.17841 0.1365 0.44153 0.0
C400 C 0.07629 0.92636 0.64186 0.0
C401 C 0.07719 0.91505 0.64614 0.0
C402 C 0.06274 0.90853 0.63231 0.0
C403 C 0.07046 0.90621 0.64141 0.0
C404 C 0.06172 0.91994 0.62823 0.0
C405 C 0.06846 0.92878 0.63297 0.0
U406 U 0.10049 0.93572 0.66172 0.0
O407 O 0.11569 0.94658 0.65829 0.0
O408 O 0.10324 0.95171 0.67165 0.0
C409 C 0.11224 0.95476 0.6654 0.0
C410 C 0.0839 0.93549 0.64628 0.0
C411 C 0.11227 0.96664 0.66062 0.0
C412 C 0.12146 0.98127 0.64858 0.0
C413 C 0.12123 0.9701 0.65318 0.0
C414 C 0.10389 0.98589 0.65896 0.0
C415 C 0.1128 0.98929 0.65142 0.0
C416 C 0.10362 0.97469 0.66351 0.0
C417 C 0.11403 0.91267 0.68138 0.0
C418 C 0.1256 0.9158 0.69864 0.0
C419 C 0.12701 0.89768 0.68826 0.0
C420 C 0.11887 0.90163 0.68027 0.0
C421 C 0.13034 0.90466 0.69762 0.0
C422 C 0.1175 0.91979 0.69058 0.0
C423 C 0.10554 0.91656 0.67273 0.0
O424 O 0.08222 0.93844 0.65712 0.0
O425 O 0.09486 0.93418 0.64365 0.0
O426 O 0.10981 0.91917 0.66254 0.0
O427 O 0.09763 0.9239 0.67631 0.0
H428 H 0.08323 0.91305 0.65301 0.0
H429 H 0.07145 0.89753 0.64477 0.0
H430 H 0.05585 0.92203 0.62124 0.0
H431 H 0.0677 0.93747 0.62956 0.0
H432 H 0.12848 0.98363 0.64286 0.0
H433 H 0.12809 0.96415 0.6509 0.0
H434 H 0.0971 0.99188 0.66134 0.0
H435 H 0.09664 0.97236 0.66928 0.0
H436 H 0.12813 0.92143 0.70568 0.0
H437 H 0.13094 0.88933 0.68686 0.0
H438 H 0.11644 0.89608 0.67313 0.0
H439 H 0.11398 0.92841 0.69153 0.0
C440 C 0.32411 0.8263 0.89186 0.0
C441 C 0.33542 0.82719 0.89614 0.0
C442 C 0.34194 0.81274 0.88231 0.0
C443 C 0.34427 0.82046 0.89141 0.0
C444 C 0.33053 0.81172 0.87823 0.0
C445 C 0.32169 0.81846 0.88297 0.0
U446 U 0.31475 0.85049 0.91171 0.0
O447 O 0.30389 0.86569 0.90829 0.0
O448 O 0.29876 0.85324 0.92165 0.0
C449 C 0.29572 0.86224 0.9154 0.0
C450 C 0.31498 0.8339 0.89628 0.0
C451 C 0.28383 0.86228 0.91062 0.0
C452 C 0.2692 0.87146 0.89858 0.0
C453 C 0.28037 0.87123 0.90318 0.0
C454 C 0.26458 0.8539 0.90896 0.0
C455 C 0.26118 0.8628 0.90142 0.0
C456 C 0.27579 0.85363 0.91351 0.0
C457 C 0.3378 0.86403 0.93138 0.0
C458 C 0.33467 0.8756 0.94863 0.0
C459 C 0.35279 0.87701 0.93826 0.0
C460 C 0.34885 0.86887 0.93027 0.0
C461 C 0.34582 0.88034 0.94762 0.0
C462 C 0.33069 0.8675 0.94058 0.0
C463 C 0.33391 0.85554 0.92273 0.0
O464 O 0.31203 0.83223 0.90712 0.0
O465 O 0.31629 0.84487 0.89365 0.0
O466 O 0.33131 0.85981 0.91254 0.0
O467 O 0.32657 0.84763 0.92631 0.0
H468 H 0.33743 0.83323 0.90301 0.0
H469 H 0.35294 0.82145 0.89477 0.0
H470 H 0.32845 0.80585 0.87124 0.0
H471 H 0.313 0.8177 0.87956 0.0
H472 H 0.26685 0.87848 0.89286 0.0
H473 H 0.28632 0.87809 0.9009 0.0
H474 H 0.2586 0.84711 0.91135 0.0
H475 H 0.27811 0.84664 0.91929 0.0
H476 H 0.32905 0.87813 0.95568 0.0
H477 H 0.36114 0.88095 0.93686 0.0
H478 H 0.35439 0.86644 0.92312 0.0
H479 H 0.32206 0.86399 0.94153 0.0
C480 C 0.42418 0.92636 0.35861 0.0
C481 C 0.42328 0.91506 0.35433 0.0
C482 C 0.43773 0.90853 0.36816 0.0
C483 C 0.43001 0.90621 0.35906 0.0
C484 C 0.43876 0.91995 0.37225 0.0
C485 C 0.43201 0.92878 0.36751 0.0
U486 U 0.39999 0.93573 0.33876 0.0
O487 O 0.38478 0.94659 0.34218 0.0
O488 O 0.39724 0.95171 0.32883 0.0
C489 C 0.38823 0.95476 0.33507 0.0
C490 C 0.41657 0.9355 0.3542 0.0
C491 C 0.3882 0.96665 0.33986 0.0
C492 C 0.37901 0.98127 0.35189 0.0
C493 C 0.37924 0.97011 0.3473 0.0
C494 C 0.39658 0.9859 0.34151 0.0
C495 C 0.38767 0.9893 0.34905 0.0
C496 C 0.39685 0.97469 0.33696 0.0
C497 C 0.38644 0.91267 0.31909 0.0
C498 C 0.37487 0.9158 0.30184 0.0
C499 C 0.37346 0.89769 0.31221 0.0
C500 C 0.38161 0.90163 0.3202 0.0
C501 C 0.37013 0.90466 0.30285 0.0
C502 C 0.38297 0.91979 0.30989 0.0
C503 C 0.39493 0.91656 0.32774 0.0
O504 O 0.41825 0.93844 0.34335 0.0
O505 O 0.40561 0.93419 0.35682 0.0
O506 O 0.39066 0.91917 0.33793 0.0
O507 O 0.40284 0.9239 0.32417 0.0
H508 H 0.41724 0.91305 0.34747 0.0
H509 H 0.42902 0.89753 0.3557 0.0
H510 H 0.44462 0.92203 0.37923 0.0
H511 H 0.43277 0.93747 0.37092 0.0
H512 H 0.37199 0.98363 0.35761 0.0
H513 H 0.37238 0.96416 0.34958 0.0
H514 H 0.40337 0.99188 0.33913 0.0
H515 H 0.40383 0.97237 0.33119 0.0
H516 H 0.37235 0.92143 0.29479 0.0
H517 H 0.36953 0.88933 0.31361 0.0
H518 H 0.38403 0.89609 0.32735 0.0
H519 H 0.38649 0.92841 0.30894 0.0
C520 C 0.32412 0.17418 0.60861 0.0
C521 C 0.33543 0.17329 0.60433 0.0
C522 C 0.34195 0.18774 0.61816 0.0
C523 C 0.34427 0.18002 0.60906 0.0
C524 C 0.33054 0.18876 0.62224 0.0
C525 C 0.3217 0.18202 0.61751 0.0
U526 U 0.31475 0.14999 0.58876 0.0
O527 O 0.30389 0.13479 0.59218 0.0
O528 O 0.29877 0.14724 0.57883 0.0
C529 C 0.29572 0.13824 0.58507 0.0
C530 C 0.31498 0.16658 0.60419 0.0
C531 C 0.28383 0.13821 0.58986 0.0
C532 C 0.26921 0.12902 0.60189 0.0
C533 C 0.28038 0.12925 0.5973 0.0
C534 C 0.26458 0.14659 0.59151 0.0
C535 C 0.26118 0.13768 0.59905 0.0
C536 C 0.27579 0.14685 0.58696 0.0
C537 C 0.33781 0.13645 0.56909 0.0
C538 C 0.33467 0.12488 0.55184 0.0
C539 C 0.35279 0.12347 0.56221 0.0
C540 C 0.34885 0.13161 0.5702 0.0
C541 C 0.34582 0.12014 0.55285 0.0
C542 C 0.33069 0.13298 0.55989 0.0
C543 C 0.33392 0.14494 0.57774 0.0
O544 O 0.31204 0.16826 0.59335 0.0
O545 O 0.3163 0.15561 0.60682 0.0
O546 O 0.33131 0.14067 0.58793 0.0
O547 O 0.32658 0.15285 0.57416 0.0
H548 H 0.33743 0.16725 0.59746 0.0
H549 H 0.35295 0.17903 0.6057 0.0
H550 H 0.32845 0.19463 0.62923 0.0
H551 H 0.31301 0.18278 0.62091 0.0
H552 H 0.26685 0.122 0.60761 0.0
H553 H 0.28633 0.12239 0.59958 0.0
H554 H 0.2586 0.15337 0.58913 0.0
H555 H 0.27811 0.15384 0.58119 0.0
H556 H 0.32904 0.12235 0.54479 0.0
H557 H 0.36115 0.11953 0.56361 0.0
H558 H 0.3544 0.13404 0.57734 0.0
H559 H 0.32206 0.13649 0.55894 0.0
C560 C 0.07629 0.07412 0.85861 0.0
C561 C 0.07719 0.08543 0.85433 0.0
C562 C 0.06274 0.09195 0.86816 0.0
C563 C 0.07046 0.09427 0.85906 0.0
C564 C 0.06172 0.08054 0.87225 0.0
C565 C 0.06846 0.0717 0.86751 0.0
U566 U 0.10048 0.06475 0.83876 0.0
O567 O 0.11569 0.05389 0.84218 0.0
O568 O 0.10323 0.04877 0.82883 0.0
C569 C 0.11224 0.04572 0.83507 0.0
C570 C 0.0839 0.06499 0.8542 0.0
C571 C 0.11227 0.03383 0.83986 0.0
C572 C 0.12145 0.01921 0.85189 0.0
C573 C 0.12122 0.03037 0.8473 0.0
C574 C 0.10389 0.01458 0.84151 0.0
C575 C 0.11279 0.01118 0.84905 0.0
C576 C 0.10362 0.02579 0.83696 0.0
C577 C 0.11403 0.08781 0.81909 0.0
C578 C 0.1256 0.08467 0.80184 0.0
C579 C 0.12701 0.10279 0.81221 0.0
C580 C 0.11887 0.09885 0.8202 0.0
C581 C 0.13034 0.09582 0.80285 0.0
C582 C 0.1175 0.08069 0.80989 0.0
C583 C 0.10554 0.08392 0.82774 0.0
O584 O 0.08222 0.06204 0.84335 0.0
O585 O 0.09486 0.0663 0.85682 0.0
O586 O 0.10981 0.08131 0.83793 0.0
O587 O 0.09763 0.07658 0.82416 0.0
H588 H 0.08323 0.08743 0.84746 0.0
H589 H 0.07145 0.10295 0.8557 0.0
H590 H 0.05585 0.07845 0.87923 0.0
H591 H 0.0677 0.06301 0.87092 0.0
H592 H 0.12847 0.01685 0.85761 0.0
H593 H 0.12808 0.03632 0.84958 0.0
H594 H 0.0971 0.0086 0.83912 0.0
H595 H 0.09664 0.02811 0.83118 0.0
H596 H 0.12812 0.07905 0.79479 0.0
H597 H 0.13094 0.11115 0.81361 0.0
H598 H 0.11644 0.1044 0.82735 0.0
H599 H 0.11398 0.07207 0.80894 0.0
C600 C 0.17635 0.8263 0.10861 0.0
C601 C 0.16505 0.8272 0.10433 0.0
C602 C 0.15852 0.81275 0.11816 0.0
C603 C 0.1562 0.82047 0.10906 0.0
C604 C 0.16994 0.81172 0.12224 0.0
C605 C 0.17878 0.81847 0.1175 0.0
U606 U 0.18572 0.8505 0.08875 0.0
O607 O 0.19658 0.8657 0.09218 0.0
O608 O 0.20171 0.85324 0.07882 0.0
C609 C 0.20475 0.86225 0.08507 0.0
C610 C 0.18549 0.83391 0.10419 0.0
C611 C 0.21664 0.86228 0.08985 0.0
C612 C 0.23127 0.87146 0.10189 0.0
C613 C 0.2201 0.87124 0.09729 0.0
C614 C 0.23589 0.8539 0.09151 0.0
C615 C 0.23929 0.8628 0.09904 0.0
C616 C 0.22468 0.85363 0.08696 0.0
C617 C 0.16267 0.86404 0.06909 0.0
C618 C 0.1658 0.87561 0.05184 0.0
C619 C 0.14768 0.87702 0.06221 0.0
C620 C 0.15162 0.86888 0.0702 0.0
C621 C 0.15465 0.88035 0.05285 0.0
C622 C 0.16978 0.86751 0.05989 0.0
C623 C 0.16656 0.85555 0.07774 0.0
O624 O 0.18843 0.83223 0.09335 0.0
O625 O 0.18418 0.84487 0.10682 0.0
O626 O 0.16916 0.85982 0.08793 0.0
O627 O 0.1739 0.84764 0.07416 0.0
H628 H 0.16304 0.83324 0.09746 0.0
H629 H 0.14752 0.82146 0.1057 0.0
H630 H 0.17202 0.80586 0.12923 0.0
H631 H 0.18746 0.81771 0.12091 0.0
H632 H 0.23362 0.87848 0.10761 0.0
H633 H 0.21415 0.8781 0.09957 0.0
H634 H 0.24187 0.84711 0.08912 0.0
H635 H 0.22236 0.84665 0.08118 0.0
H636 H 0.17143 0.87814 0.04479 0.0
H637 H 0.13933 0.88095 0.06361 0.0
H638 H 0.14608 0.86645 0.07734 0.0
H639 H 0.17841 0.864 0.05894 0.0
C640 C 0.14187 0.42417 0.07411 0.0
C641 C 0.14615 0.42328 0.08542 0.0
C642 C 0.13232 0.43773 0.09194 0.0
C643 C 0.14142 0.43001 0.09426 0.0
C644 C 0.12823 0.43875 0.08053 0.0
C645 C 0.13297 0.43201 0.07169 0.0
U646 U 0.16172 0.39998 0.06475 0.0
O647 O 0.1583 0.38478 0.05389 0.0
O648 O 0.17165 0.39723 0.04876 0.0
C649 C 0.1654 0.38822 0.04572 0.0
C650 C 0.14628 0.41657 0.06498 0.0
C651 C 0.16062 0.38819 0.03383 0.0
C652 C 0.14859 0.37901 0.01921 0.0
C653 C 0.15318 0.37924 0.03037 0.0
C654 C 0.15897 0.39657 0.01458 0.0
C655 C 0.15143 0.38767 0.01118 0.0
C656 C 0.16351 0.39684 0.02579 0.0
C657 C 0.18138 0.38644 0.08781 0.0
C658 C 0.19864 0.37487 0.08467 0.0
C659 C 0.18826 0.37346 0.10279 0.0
C660 C 0.18028 0.3816 0.09885 0.0
C661 C 0.19763 0.37013 0.09582 0.0
C662 C 0.19058 0.38297 0.08069 0.0
C663 C 0.17274 0.39493 0.08391 0.0
O664 O 0.15713 0.41824 0.06204 0.0
O665 O 0.14366 0.4056 0.06629 0.0
O666 O 0.16254 0.39066 0.08131 0.0
O667 O 0.17631 0.40284 0.07658 0.0
H668 H 0.15301 0.41724 0.08743 0.0
H669 H 0.14478 0.42902 0.10294 0.0
H670 H 0.12125 0.44462 0.07844 0.0
H671 H 0.12957 0.43277 0.063 0.0
H672 H 0.14287 0.37199 0.01685 0.0
H673 H 0.15091 0.37238 0.03632 0.0
H674 H 0.16135 0.40337 0.0086 0.0
H675 H 0.16929 0.40383 0.02811 0.0
H676 H 0.20568 0.37234 0.07905 0.0
H677 H 0.18686 0.36952 0.11115 0.0
H678 H 0.17313 0.38403 0.10439 0.0
H679 H 0.19154 0.38648 0.07207 0.0
C680 C 0.64186 0.07629 0.92635 0.0
C681 C 0.64614 0.07718 0.91505 0.0
C682 C 0.63231 0.06274 0.90852 0.0
C683 C 0.64142 0.07046 0.9062 0.0
C684 C 0.62823 0.06171 0.91993 0.0
C685 C 0.63297 0.06846 0.92877 0.0
U686 U 0.66171 0.10048 0.93572 0.0
O687 O 0.65829 0.11568 0.94658 0.0
O688 O 0.67164 0.10323 0.95171 0.0
C689 C 0.6654 0.11224 0.95475 0.0
C690 C 0.64628 0.08389 0.93549 0.0
C691 C 0.66061 0.11227 0.96664 0.0
C692 C 0.64858 0.12145 0.98127 0.0
C693 C 0.65317 0.12122 0.9701 0.0
C694 C 0.65896 0.10389 0.98589 0.0
C695 C 0.65142 0.11279 0.98929 0.0
C696 C 0.66351 0.10362 0.97469 0.0
C697 C 0.68138 0.11402 0.91267 0.0
C698 C 0.69863 0.1256 0.91581 0.0
C699 C 0.68826 0.12701 0.89769 0.0
C700 C 0.68028 0.11886 0.90163 0.0
C701 C 0.69762 0.13034 0.90466 0.0
C702 C 0.69058 0.1175 0.91979 0.0
C703 C 0.67273 0.10554 0.91656 0.0
O704 O 0.65712 0.08222 0.93843 0.0
O705 O 0.64365 0.09486 0.93418 0.0
O706 O 0.66254 0.1098 0.91917 0.0
O707 O 0.67631 0.09762 0.9239 0.0
H708 H 0.65301 0.08323 0.91304 0.0
H709 H 0.64478 0.07145 0.89752 0.0
H710 H 0.62124 0.05584 0.92202 0.0
H711 H 0.62956 0.06769 0.93746 0.0
H712 H 0.64285 0.12847 0.98362 0.0
H713 H 0.65089 0.12808 0.96415 0.0
H714 H 0.66134 0.0971 0.99188 0.0
H715 H 0.66928 0.09663 0.97236 0.0
H716 H 0.70568 0.12812 0.92143 0.0
H717 H 0.68686 0.13094 0.88933 0.0
H718 H 0.67313 0.11643 0.89608 0.0
H719 H 0.69153 0.11398 0.92841 0.0
C720 C 0.17418 0.39187 0.17635 0.0
C721 C 0.17329 0.39615 0.16505 0.0
C722 C 0.18773 0.38231 0.15852 0.0
C723 C 0.18001 0.39141 0.1562 0.0
C724 C 0.18876 0.37823 0.16994 0.0
C725 C 0.18201 0.38297 0.17878 0.0
U726 U 0.14999 0.41172 0.18572 0.0
O727 O 0.13479 0.40831 0.19658 0.0
O728 O 0.14724 0.42166 0.20171 0.0
C729 C 0.13824 0.41541 0.20475 0.0
C730 C 0.16658 0.39628 0.18549 0.0
C731 C 0.13821 0.41063 0.21664 0.0
C732 C 0.12903 0.39859 0.23127 0.0
C733 C 0.12925 0.40319 0.2201 0.0
C734 C 0.14659 0.40898 0.23589 0.0
C735 C 0.13768 0.40144 0.23929 0.0
C736 C 0.14685 0.41352 0.22468 0.0
C737 C 0.13645 0.43139 0.16266 0.0
C738 C 0.12488 0.44864 0.1658 0.0
C739 C 0.12347 0.43827 0.14768 0.0
C740 C 0.13161 0.43028 0.15162 0.0
C741 C 0.12014 0.44763 0.15465 0.0
C742 C 0.13298 0.44059 0.16978 0.0
C743 C 0.14494 0.42274 0.16656 0.0
O744 O 0.16825 0.40713 0.18843 0.0
O745 O 0.15561 0.39366 0.18418 0.0
O746 O 0.14067 0.41255 0.16916 0.0
O747 O 0.15285 0.42632 0.17389 0.0
H748 H 0.16724 0.40301 0.16304 0.0
H749 H 0.17902 0.39477 0.14752 0.0
H750 H 0.19463 0.37125 0.17202 0.0
H751 H 0.18278 0.37956 0.18747 0.0
H752 H 0.12201 0.39287 0.23362 0.0
H753 H 0.12239 0.4009 0.21415 0.0
H754 H 0.15337 0.41137 0.24187 0.0
H755 H 0.15384 0.4193 0.22236 0.0
H756 H 0.12235 0.45569 0.17142 0.0
H757 H 0.11953 0.43687 0.13932 0.0
H758 H 0.13404 0.42313 0.14608 0.0
H759 H 0.13649 0.44154 0.1784 0.0
C760 C 0.85862 0.92417 0.42635 0.0
C761 C 0.85434 0.92328 0.41505 0.0
C762 C 0.86817 0.93773 0.40852 0.0
C763 C 0.85907 0.93001 0.4062 0.0
C764 C 0.87225 0.93875 0.41994 0.0
C765 C 0.86751 0.93201 0.42878 0.0
U766 U 0.83876 0.89998 0.43572 0.0
O767 O 0.84218 0.88478 0.44658 0.0
O768 O 0.82883 0.89724 0.45171 0.0
C769 C 0.83508 0.88823 0.45475 0.0
C770 C 0.8542 0.91657 0.43549 0.0
C771 C 0.83986 0.8882 0.46664 0.0
C772 C 0.85189 0.87902 0.48127 0.0
C773 C 0.8473 0.87924 0.4701 0.0
C774 C 0.84151 0.89658 0.48589 0.0
C775 C 0.84905 0.88768 0.48929 0.0
C776 C 0.83697 0.89685 0.47468 0.0
C777 C 0.8191 0.88644 0.41267 0.0
C778 C 0.80184 0.87487 0.4158 0.0
C779 C 0.81222 0.87346 0.39768 0.0
C780 C 0.82021 0.8816 0.40162 0.0
C781 C 0.80285 0.87013 0.40465 0.0
C782 C 0.8099 0.88297 0.41978 0.0
C783 C 0.82774 0.89493 0.41656 0.0
O784 O 0.84336 0.91825 0.43843 0.0
O785 O 0.85682 0.90561 0.43418 0.0
O786 O 0.83794 0.89066 0.41916 0.0
O787 O 0.82417 0.90284 0.42389 0.0
H788 H 0.84747 0.91724 0.41304 0.0
H789 H 0.85571 0.92902 0.39752 0.0
H790 H 0.87924 0.94462 0.42202 0.0
H791 H 0.87092 0.93277 0.43746 0.0
H792 H 0.85762 0.87199 0.48362 0.0
H793 H 0.84958 0.87238 0.46415 0.0
H794 H 0.83913 0.90337 0.49187 0.0
H795 H 0.83119 0.90383 0.47236 0.0
H796 H 0.7948 0.87234 0.42143 0.0
H797 H 0.81362 0.86953 0.38933 0.0
H798 H 0.82735 0.88403 0.39608 0.0
H799 H 0.80895 0.88649 0.42841 0.0
C800 C 0.8263 0.10861 0.17636 0.0
C801 C 0.82719 0.10433 0.16505 0.0
C802 C 0.81274 0.11816 0.15853 0.0
C803 C 0.82047 0.10906 0.15621 0.0
C804 C 0.81172 0.12224 0.16994 0.0
C805 C 0.81847 0.1175 0.17878 0.0
U806 U 0.85049 0.08876 0.18572 0.0
O807 O 0.8657 0.09218 0.19658 0.0
O808 O 0.85324 0.07882 0.20171 0.0
C809 C 0.86225 0.08507 0.20475 0.0
C810 C 0.8339 0.10419 0.18549 0.0
C811 C 0.86228 0.08986 0.21664 0.0
C812 C 0.87146 0.10189 0.23127 0.0
C813 C 0.87124 0.09729 0.2201 0.0
C814 C 0.8539 0.09151 0.23589 0.0
C815 C 0.8628 0.09905 0.23929 0.0
C816 C 0.85363 0.08697 0.22468 0.0
C817 C 0.86404 0.06909 0.16267 0.0
C818 C 0.87561 0.05184 0.1658 0.0
C819 C 0.87702 0.06221 0.14768 0.0
C820 C 0.86888 0.0702 0.15162 0.0
C821 C 0.88035 0.05285 0.15465 0.0
C822 C 0.86751 0.05989 0.16978 0.0
C823 C 0.85555 0.07774 0.16656 0.0
O824 O 0.83223 0.09335 0.18843 0.0
O825 O 0.84487 0.10682 0.18418 0.0
O826 O 0.85982 0.08793 0.16916 0.0
O827 O 0.84764 0.07416 0.1739 0.0
H828 H 0.83324 0.09746 0.16304 0.0
H829 H 0.82146 0.1057 0.14753 0.0
H830 H 0.80585 0.12923 0.17202 0.0
H831 H 0.8177 0.12091 0.18747 0.0
H832 H 0.87849 0.10761 0.23362 0.0
H833 H 0.8781 0.09957 0.21415 0.0
H834 H 0.84711 0.08913 0.24187 0.0
H835 H 0.84665 0.08119 0.22236 0.0
H836 H 0.87814 0.04479 0.17143 0.0
H837 H 0.88095 0.06361 0.13933 0.0
H838 H 0.86645 0.07735 0.14608 0.0
H839 H 0.86399 0.05894 0.17841 0.0
C840 C 0.35861 0.57629 0.57412 0.0
C841 C 0.35433 0.57719 0.58542 0.0
C842 C 0.36817 0.56274 0.59195 0.0
C843 C 0.35906 0.57046 0.59427 0.0
C844 C 0.37225 0.56172 0.58054 0.0
C845 C 0.36751 0.56846 0.5717 0.0
U846 U 0.33876 0.60048 0.56475 0.0
O847 O 0.34217 0.61569 0.55389 0.0
O848 O 0.32882 0.60323 0.54876 0.0
C849 C 0.33507 0.61224 0.54572 0.0
C850 C 0.3542 0.5839 0.56498 0.0
C851 C 0.33985 0.61227 0.53383 0.0
C852 C 0.35189 0.62145 0.51921 0.0
C853 C 0.34729 0.62122 0.53037 0.0
C854 C 0.3415 0.60389 0.51458 0.0
C855 C 0.34904 0.61279 0.51118 0.0
C856 C 0.33696 0.60362 0.52579 0.0
C857 C 0.31909 0.61402 0.58781 0.0
C858 C 0.30183 0.62559 0.58467 0.0
C859 C 0.31221 0.62701 0.60279 0.0
C860 C 0.3202 0.61886 0.59885 0.0
C861 C 0.30285 0.63034 0.59582 0.0
C862 C 0.30989 0.61749 0.58069 0.0
C863 C 0.32774 0.60554 0.58392 0.0
O864 O 0.34335 0.58222 0.56204 0.0
O865 O 0.35682 0.59486 0.56629 0.0
O866 O 0.33793 0.60981 0.58131 0.0
O867 O 0.32416 0.59762 0.57658 0.0
H868 H 0.34747 0.58323 0.58743 0.0
H869 H 0.3557 0.57145 0.60295 0.0
H870 H 0.37923 0.55585 0.57845 0.0
H871 H 0.37092 0.5677 0.56301 0.0
H872 H 0.35761 0.62847 0.51685 0.0
H873 H 0.34958 0.62808 0.53632 0.0
H874 H 0.33911 0.5971 0.5086 0.0
H875 H 0.33117 0.59664 0.52811 0.0
H876 H 0.29479 0.62812 0.57905 0.0
H877 H 0.31361 0.63094 0.61115 0.0
H878 H 0.32735 0.61644 0.60439 0.0
H879 H 0.30894 0.61398 0.57207 0.0
C880 C 0.17419 0.60862 0.32412 0.0
C881 C 0.17329 0.60434 0.33542 0.0
C882 C 0.18774 0.61817 0.34195 0.0
C883 C 0.18002 0.60906 0.34427 0.0
C884 C 0.18876 0.62225 0.33054 0.0
C885 C 0.18202 0.61751 0.3217 0.0
U886 U 0.15 0.58876 0.31475 0.0
O887 O 0.13479 0.59218 0.30389 0.0
O888 O 0.14725 0.57883 0.29876 0.0
C889 C 0.13824 0.58508 0.29572 0.0
C890 C 0.16658 0.6042 0.31498 0.0
C891 C 0.13821 0.58986 0.28383 0.0
C892 C 0.12903 0.6019 0.26921 0.0
C893 C 0.12926 0.5973 0.28037 0.0
C894 C 0.14659 0.59151 0.26458 0.0
C895 C 0.13769 0.59905 0.26118 0.0
C896 C 0.14686 0.58697 0.27578 0.0
C897 C 0.13645 0.5691 0.3378 0.0
C898 C 0.12488 0.55184 0.33467 0.0
C899 C 0.12347 0.56221 0.35279 0.0
C900 C 0.13161 0.5702 0.34885 0.0
C901 C 0.12014 0.55285 0.34581 0.0
C902 C 0.13298 0.5599 0.33068 0.0
C903 C 0.14494 0.57774 0.33391 0.0
O904 O 0.16826 0.59336 0.31204 0.0
O905 O 0.15562 0.60683 0.31629 0.0
O906 O 0.14067 0.58794 0.33131 0.0
O907 O 0.15285 0.57417 0.32657 0.0
H908 H 0.16725 0.59747 0.33743 0.0
H909 H 0.17903 0.6057 0.35295 0.0
H910 H 0.19463 0.62924 0.32845 0.0
H911 H 0.18278 0.62092 0.31301 0.0
H912 H 0.12201 0.60762 0.26685 0.0
H913 H 0.1224 0.59959 0.28632 0.0
H914 H 0.15338 0.58913 0.25859 0.0
H915 H 0.15384 0.58119 0.27811 0.0
H916 H 0.12236 0.5448 0.32904 0.0
H917 H 0.11954 0.56361 0.36114 0.0
H918 H 0.13404 0.57735 0.35439 0.0
H919 H 0.1365 0.55895 0.32206 0.0
C920 C 0.3263 0.39186 0.82412 0.0
C921 C 0.32719 0.39614 0.83542 0.0
C922 C 0.31275 0.38231 0.84195 0.0
C923 C 0.32047 0.39141 0.84427 0.0
C924 C 0.31172 0.37822 0.83053 0.0
C925 C 0.31847 0.38296 0.82169 0.0
U926 U 0.35049 0.41171 0.81475 0.0
O927 O 0.36569 0.40829 0.80389 0.0
O928 O 0.35324 0.42165 0.79876 0.0
C929 C 0.36225 0.4154 0.79572 0.0
C930 C 0.3339 0.39627 0.81498 0.0
C931 C 0.36228 0.41062 0.78383 0.0
C932 C 0.37146 0.39858 0.7692 0.0
C933 C 0.37123 0.40318 0.78037 0.0
C934 C 0.3539 0.40897 0.76458 0.0
C935 C 0.3628 0.40143 0.76118 0.0
C936 C 0.35363 0.41351 0.77578 0.0
C937 C 0.36403 0.43138 0.8378 0.0
C938 C 0.37561 0.44863 0.83467 0.0
C939 C 0.37702 0.43826 0.85279 0.0
C940 C 0.36887 0.43027 0.84885 0.0
C941 C 0.38035 0.44762 0.84582 0.0
C942 C 0.36751 0.44058 0.83069 0.0
C943 C 0.35555 0.42273 0.83391 0.0
O944 O 0.33223 0.40712 0.81204 0.0
O945 O 0.34487 0.39365 0.81629 0.0
O946 O 0.35981 0.41254 0.83131 0.0
O947 O 0.34763 0.42631 0.82657 0.0
H948 H 0.33324 0.40301 0.83743 0.0
H949 H 0.32146 0.39477 0.85295 0.0
H950 H 0.30585 0.37124 0.82845 0.0
H951 H 0.3177 0.37956 0.81301 0.0
H952 H 0.37848 0.39286 0.76685 0.0
H953 H 0.37809 0.40089 0.78632 0.0
H954 H 0.34711 0.41135 0.75859 0.0
H955 H 0.34665 0.41929 0.77811 0.0
H956 H 0.37813 0.45568 0.82904 0.0
H957 H 0.38095 0.43686 0.86114 0.0
H958 H 0.36644 0.42312 0.85439 0.0
H959 H 0.36399 0.44153 0.82206 0.0
C960 C 0.9286 0.84713 0.55274 0.0
C961 C 0.92007 0.83892 0.55013 0.0
C962 C 0.90895 0.85341 0.53972 0.0
C963 C 0.9104 0.842 0.54364 0.0
C964 C 0.91763 0.86159 0.54212 0.0
C965 C 0.92739 0.85846 0.54859 0.0
U966 U 0.93859 0.8289 0.57742 0.0
O967 O 0.95444 0.81897 0.58067 0.0
O968 O 0.94913 0.83252 0.59283 0.0
C969 C 0.9573 0.82525 0.5897 0.0
C970 C 0.93813 0.84403 0.56059 0.0
C971 C 0.96934 0.82961 0.5899 0.0
C972 C 0.98966 0.82694 0.58515 0.0
C973 C 0.97826 0.82299 0.58499 0.0
C974 C 0.98357 0.8441 0.59545 0.0
C975 C 0.99244 0.83756 0.59034 0.0
C976 C 0.97214 0.84017 0.59524 0.0
C977 C 0.91478 0.80855 0.58921 0.0
C978 C 0.91282 0.79991 0.60826 0.0
C979 C 0.90013 0.79399 0.59268 0.0
C980 C 0.90577 0.80156 0.5852 0.0
C981 C 0.90338 0.79328 0.60438 0.0
C982 C 0.91848 0.80751 0.60072 0.0
C983 C 0.91946 0.81741 0.5814 0.0
O984 O 0.93641 0.84686 0.57146 0.0
O985 O 0.94222 0.8335 0.55934 0.0
O986 O 0.9273 0.81396 0.57395 0.0
O987 O 0.92177 0.82751 0.58605 0.0
H988 H 0.92071 0.83015 0.55337 0.0
H989 H 0.9039 0.83547 0.54199 0.0
H990 H 0.91675 0.87045 0.53924 0.0
H991 H 0.93384 0.86494 0.55062 0.0
H992 H 0.9963 0.82166 0.5812 0.0
H993 H 0.97642 0.81473 0.58098 0.0
H994 H 0.98543 0.85231 0.59954 0.0
H995 H 0.96552 0.84543 0.59925 0.0
H996 H 0.91555 0.79955 0.61721 0.0
H997 H 0.89296 0.78898 0.58936 0.0
H998 H 0.90282 0.80224 0.57633 0.0
H999 H 0.92548 0.81282 0.60397 0.0
C1000 C 0.90335 0.1786 0.30273 0.0
C1001 C 0.91156 0.17007 0.30012 0.0
C1002 C 0.89707 0.15895 0.28971 0.0
C1003 C 0.90848 0.1604 0.29363 0.0
C1004 C 0.88889 0.16763 0.29211 0.0
C1005 C 0.89202 0.17739 0.29859 0.0
U1006 U 0.92157 0.18859 0.32741 0.0
O1007 O 0.93151 0.20444 0.33066 0.0
O1008 O 0.91795 0.19912 0.34282 0.0
C1009 C 0.92522 0.20729 0.33969 0.0
C1010 C 0.90645 0.18813 0.31058 0.0
C1011 C 0.92086 0.21934 0.33989 0.0
C1012 C 0.92353 0.23966 0.33514 0.0
C1013 C 0.92748 0.22825 0.33497 0.0
C1014 C 0.90637 0.23356 0.34545 0.0
C1015 C 0.91291 0.24244 0.34034 0.0
C1016 C 0.9103 0.22214 0.34524 0.0
C1017 C 0.94192 0.16478 0.3392 0.0
C1018 C 0.95057 0.16282 0.35826 0.0
C1019 C 0.95647 0.15013 0.34268 0.0
C1020 C 0.9489 0.15577 0.33519 0.0
C1021 C 0.95719 0.15338 0.35437 0.0
C1022 C 0.94297 0.16848 0.35072 0.0
C1023 C 0.93306 0.16946 0.33139 0.0
O1024 O 0.90362 0.18641 0.32145 0.0
O1025 O 0.91698 0.19222 0.30933 0.0
O1026 O 0.93652 0.1773 0.32394 0.0
O1027 O 0.92296 0.17176 0.33604 0.0
H1028 H 0.92033 0.17072 0.30335 0.0
H1029 H 0.91501 0.1539 0.29197 0.0
H1030 H 0.88002 0.16675 0.28924 0.0
H1031 H 0.88554 0.18384 0.30061 0.0
H1032 H 0.92881 0.2463 0.33118 0.0
H1033 H 0.93574 0.22642 0.33097 0.0
H1034 H 0.89817 0.23542 0.34955 0.0
H1035 H 0.90505 0.21552 0.34926 0.0
H1036 H 0.95093 0.16556 0.3672 0.0
H1037 H 0.96149 0.14295 0.33936 0.0
H1038 H 0.94823 0.15281 0.32633 0.0
H1039 H 0.93766 0.17548 0.35396 0.0
C1040 C 0.57187 0.15335 0.05274 0.0
C1041 C 0.5804 0.16156 0.05013 0.0
C1042 C 0.59152 0.14706 0.03972 0.0
C1043 C 0.59007 0.15847 0.04364 0.0
C1044 C 0.58284 0.13888 0.04212 0.0
C1045 C 0.57307 0.14202 0.0486 0.0
U1046 U 0.56188 0.17157 0.07742 0.0
O1047 O 0.54603 0.18151 0.08067 0.0
O1048 O 0.55135 0.16796 0.09283 0.0
C1049 C 0.54318 0.17523 0.0897 0.0
C1050 C 0.56234 0.15644 0.06059 0.0
C1051 C 0.53113 0.17087 0.0899 0.0
C1052 C 0.51081 0.17354 0.08515 0.0
C1053 C 0.52222 0.17749 0.08499 0.0
C1054 C 0.5169 0.15638 0.09545 0.0
C1055 C 0.50803 0.16292 0.09035 0.0
C1056 C 0.52833 0.16031 0.09524 0.0
C1057 C 0.58569 0.19192 0.08921 0.0
C1058 C 0.58765 0.20057 0.10826 0.0
C1059 C 0.60035 0.20648 0.09268 0.0
C1060 C 0.5947 0.19891 0.0852 0.0
C1061 C 0.59709 0.2072 0.10438 0.0
C1062 C 0.58199 0.19297 0.10072 0.0
C1063 C 0.58101 0.18306 0.0814 0.0
O1064 O 0.56406 0.15362 0.07146 0.0
O1065 O 0.55825 0.16698 0.05934 0.0
O1066 O 0.57317 0.18652 0.07395 0.0
O1067 O 0.57871 0.17296 0.08605 0.0
H1068 H 0.57975 0.17032 0.05337 0.0
H1069 H 0.59657 0.165 0.04199 0.0
H1070 H 0.58371 0.13002 0.03925 0.0
H1071 H 0.56663 0.13553 0.05062 0.0
H1072 H 0.50417 0.17883 0.0812 0.0
H1073 H 0.52405 0.18575 0.08099 0.0
H1074 H 0.51504 0.14817 0.09955 0.0
H1075 H 0.53495 0.15505 0.09926 0.0
H1076 H 0.58492 0.20094 0.1172 0.0
H1077 H 0.60752 0.21149 0.08936 0.0
H1078 H 0.59766 0.19823 0.07633 0.0
H1079 H 0.57499 0.18766 0.10396 0.0
C1080 C 0.59714 0.82187 0.80273 0.0
C1081 C 0.58893 0.8304 0.80011 0.0
C1082 C 0.60343 0.84151 0.78972 0.0
C1083 C 0.59201 0.84006 0.79362 0.0
C1084 C 0.61161 0.83284 0.79212 0.0
C1085 C 0.60847 0.82308 0.7986 0.0
U1086 U 0.57891 0.81189 0.82741 0.0
O1087 O 0.56897 0.79604 0.83066 0.0
O1088 O 0.58253 0.80135 0.84282 0.0
C1089 C 0.57526 0.79318 0.83969 0.0
C1090 C 0.59404 0.81234 0.81059 0.0
C1091 C 0.57962 0.78114 0.8399 0.0
C1092 C 0.57694 0.76081 0.83515 0.0
C1093 C 0.57299 0.77222 0.83499 0.0
C1094 C 0.5941 0.76691 0.84544 0.0
C1095 C 0.58756 0.75803 0.84034 0.0
C1096 C 0.59017 0.77834 0.84523 0.0
C1097 C 0.55857 0.83569 0.8392 0.0
C1098 C 0.54991 0.83765 0.85825 0.0
C1099 C 0.54402 0.85036 0.84268 0.0
C1100 C 0.55159 0.84472 0.83519 0.0
C1101 C 0.54329 0.8471 0.85437 0.0
C1102 C 0.55751 0.83199 0.85071 0.0
C1103 C 0.56742 0.83102 0.83139 0.0
O1104 O 0.59687 0.81406 0.82145 0.0
O1105 O 0.5835 0.80825 0.80934 0.0
O1106 O 0.56397 0.82317 0.82394 0.0
O1107 O 0.57753 0.82871 0.83605 0.0
H1108 H 0.58016 0.82975 0.80334 0.0
H1109 H 0.58548 0.84656 0.79197 0.0
H1110 H 0.62047 0.83372 0.78926 0.0
H1111 H 0.61495 0.81663 0.80063 0.0
H1112 H 0.57165 0.75417 0.8312 0.0
H1113 H 0.56472 0.77406 0.83099 0.0
H1114 H 0.60231 0.76505 0.84954 0.0
H1115 H 0.59543 0.78495 0.84924 0.0
H1116 H 0.54954 0.83491 0.86719 0.0
H1117 H 0.53902 0.85754 0.83936 0.0
H1118 H 0.55228 0.84768 0.82633 0.0
H1119 H 0.56281 0.82498 0.85395 0.0
C1120 C 0.92861 0.15334 0.94774 0.0
C1121 C 0.92008 0.16155 0.95035 0.0
C1122 C 0.90896 0.14705 0.96075 0.0
C1123 C 0.91041 0.15846 0.95685 0.0
C1124 C 0.91764 0.13887 0.95835 0.0
C1125 C 0.9274 0.142 0.95187 0.0
U1126 U 0.93859 0.17156 0.92306 0.0
O1127 O 0.95444 0.1815 0.91981 0.0
O1128 O 0.94913 0.16795 0.90765 0.0
C1129 C 0.9573 0.17522 0.91078 0.0
C1130 C 0.93814 0.15643 0.93988 0.0
C1131 C 0.96934 0.17086 0.91058 0.0
C1132 C 0.98966 0.17354 0.91532 0.0
C1133 C 0.97826 0.17749 0.91548 0.0
C1134 C 0.98357 0.15637 0.90503 0.0
C1135 C 0.99244 0.16292 0.91013 0.0
C1136 C 0.97214 0.1603 0.90524 0.0
C1137 C 0.91478 0.19191 0.91127 0.0
C1138 C 0.91283 0.20057 0.89222 0.0
C1139 C 0.90012 0.20646 0.90779 0.0
C1140 C 0.90576 0.19889 0.91528 0.0
C1141 C 0.90338 0.20718 0.8961 0.0
C1142 C 0.91849 0.19296 0.89976 0.0
C1143 C 0.91946 0.18305 0.91908 0.0
O1144 O 0.93642 0.15361 0.92902 0.0
O1145 O 0.94222 0.16697 0.94114 0.0
O1146 O 0.9273 0.18651 0.92653 0.0
O1147 O 0.92177 0.17295 0.91443 0.0
H1148 H 0.92073 0.17031 0.94712 0.0
H1149 H 0.90391 0.16499 0.9585 0.0
H1150 H 0.91676 0.13 0.96121 0.0
H1151 H 0.93384 0.13552 0.94984 0.0
H1152 H 0.9963 0.17883 0.91927 0.0
H1153 H 0.97642 0.18575 0.91949 0.0
H1154 H 0.98543 0.14817 0.90094 0.0
H1155 H 0.96552 0.15504 0.90123 0.0
H1156 H 0.91557 0.20094 0.88328 0.0
H1157 H 0.89293 0.21146 0.91111 0.0
H1158 H 0.9028 0.1982 0.92414 0.0
H1159 H 0.92549 0.18766 0.89652 0.0
C1160 C 0.59713 0.17861 0.69773 0.0
C1161 C 0.58892 0.17007 0.70034 0.0
C1162 C 0.60342 0.15896 0.71075 0.0
C1163 C 0.59201 0.16041 0.70683 0.0
C1164 C 0.6116 0.16764 0.70835 0.0
C1165 C 0.60846 0.1774 0.70187 0.0
U1166 U 0.57891 0.18859 0.67305 0.0
O1167 O 0.56897 0.20444 0.6698 0.0
O1168 O 0.58252 0.19913 0.65764 0.0
C1169 C 0.57525 0.2073 0.66077 0.0
C1170 C 0.59404 0.18814 0.68988 0.0
C1171 C 0.57961 0.21934 0.66057 0.0
C1172 C 0.57694 0.23967 0.66532 0.0
C1173 C 0.57299 0.22826 0.66548 0.0
C1174 C 0.5941 0.23357 0.65502 0.0
C1175 C 0.58755 0.24244 0.66013 0.0
C1176 C 0.59017 0.22214 0.65523 0.0
C1177 C 0.55856 0.16479 0.66126 0.0
C1178 C 0.54991 0.16282 0.64221 0.0
C1179 C 0.544 0.15013 0.65779 0.0
C1180 C 0.55157 0.15578 0.66527 0.0
C1181 C 0.54328 0.15339 0.6461 0.0
C1182 C 0.55751 0.16849 0.64975 0.0
C1183 C 0.56741 0.16947 0.66907 0.0
O1184 O 0.59686 0.18642 0.67901 0.0
O1185 O 0.5835 0.19222 0.69113 0.0
O1186 O 0.56396 0.17731 0.67652 0.0
O1187 O 0.57752 0.17177 0.66442 0.0
H1188 H 0.58016 0.17072 0.6971 0.0
H1189 H 0.58548 0.15391 0.70848 0.0
H1190 H 0.62046 0.16676 0.71122 0.0
H1191 H 0.61494 0.18385 0.69985 0.0
H1192 H 0.57165 0.2463 0.66927 0.0
H1193 H 0.56473 0.22642 0.66949 0.0
H1194 H 0.60231 0.23543 0.65092 0.0
H1195 H 0.59543 0.21552 0.65122 0.0
H1196 H 0.54954 0.16555 0.63327 0.0
H1197 H 0.53898 0.14296 0.66111 0.0
H1198 H 0.55224 0.15283 0.67414 0.0
H1199 H 0.56282 0.17548 0.6465 0.0
C1200 C 0.57188 0.84712 0.44774 0.0
C1201 C 0.58041 0.83891 0.45035 0.0
C1202 C 0.59152 0.8534 0.46076 0.0
C1203 C 0.59007 0.84199 0.45685 0.0
C1204 C 0.58285 0.86159 0.45836 0.0
C1205 C 0.57308 0.85845 0.45189 0.0
U1206 U 0.56189 0.8289 0.42306 0.0
O1207 O 0.54604 0.81897 0.41981 0.0
O1208 O 0.55135 0.83252 0.40765 0.0
C1209 C 0.54318 0.82525 0.41078 0.0
C1210 C 0.56234 0.84403 0.43989 0.0
C1211 C 0.53114 0.82962 0.41058 0.0
C1212 C 0.51082 0.82695 0.41533 0.0
C1213 C 0.52222 0.823 0.4155 0.0
C1214 C 0.51691 0.8441 0.40502 0.0
C1215 C 0.50804 0.83756 0.41013 0.0
C1216 C 0.52834 0.84017 0.40523 0.0
C1217 C 0.58569 0.80856 0.41127 0.0
C1218 C 0.58765 0.79991 0.39221 0.0
C1219 C 0.60035 0.794 0.40779 0.0
C1220 C 0.59471 0.80157 0.41528 0.0
C1221 C 0.59709 0.79328 0.3961 0.0
C1222 C 0.58199 0.80751 0.39976 0.0
C1223 C 0.58102 0.81741 0.41908 0.0
O1224 O 0.56407 0.84686 0.42903 0.0
O1225 O 0.55826 0.83349 0.44114 0.0
O1226 O 0.57317 0.81396 0.42653 0.0
O1227 O 0.57871 0.82752 0.41443 0.0
H1228 H 0.57976 0.83015 0.44712 0.0
H1229 H 0.59657 0.83547 0.4585 0.0
H1230 H 0.58372 0.87045 0.46123 0.0
H1231 H 0.56664 0.86494 0.44986 0.0
H1232 H 0.50418 0.82167 0.41929 0.0
H1233 H 0.52406 0.81474 0.41951 0.0
H1234 H 0.51505 0.85231 0.40092 0.0
H1235 H 0.53496 0.84542 0.40121 0.0
H1236 H 0.58492 0.79954 0.38327 0.0
H1237 H 0.60753 0.78899 0.41111 0.0
H1238 H 0.59766 0.80225 0.42414 0.0
H1239 H 0.57499 0.81281 0.39652 0.0
C1240 C 0.90335 0.82188 0.19773 0.0
C1241 C 0.91156 0.83041 0.20034 0.0
C1242 C 0.89707 0.84153 0.21075 0.0
C1243 C 0.90848 0.84008 0.20683 0.0
C1244 C 0.88889 0.83284 0.20835 0.0
C1245 C 0.89202 0.82308 0.20188 0.0
U1246 U 0.92157 0.81189 0.17305 0.0
O1247 O 0.93151 0.79604 0.16981 0.0
O1248 O 0.91795 0.80135 0.15764 0.0
C1249 C 0.92522 0.79318 0.16077 0.0
C1250 C 0.90644 0.81234 0.18988 0.0
C1251 C 0.92086 0.78114 0.16057 0.0
C1252 C 0.92354 0.76081 0.16532 0.0
C1253 C 0.92749 0.77222 0.16548 0.0
C1254 C 0.90638 0.76691 0.15503 0.0
C1255 C 0.91292 0.75804 0.16013 0.0
C1256 C 0.91031 0.77834 0.15523 0.0
C1257 C 0.94192 0.83569 0.16126 0.0
C1258 C 0.95057 0.83766 0.1422 0.0
C1259 C 0.95648 0.85034 0.15779 0.0
C1260 C 0.94891 0.8447 0.16527 0.0
C1261 C 0.9572 0.84709 0.14609 0.0
C1262 C 0.94297 0.83199 0.14975 0.0
C1263 C 0.93307 0.83101 0.16907 0.0
O1264 O 0.90362 0.81406 0.17901 0.0
O1265 O 0.91698 0.80826 0.19113 0.0
O1266 O 0.93652 0.82317 0.17652 0.0
O1267 O 0.92296 0.82871 0.16442 0.0
H1268 H 0.92032 0.82976 0.1971 0.0
H1269 H 0.915 0.84658 0.20848 0.0
H1270 H 0.88002 0.83372 0.21123 0.0
H1271 H 0.88554 0.81664 0.19986 0.0
H1272 H 0.92882 0.75417 0.16927 0.0
H1273 H 0.93575 0.77406 0.16949 0.0
H1274 H 0.89817 0.76505 0.15093 0.0
H1275 H 0.90505 0.78496 0.15122 0.0
H1276 H 0.95093 0.83493 0.13326 0.0
H1277 H 0.9615 0.85752 0.16111 0.0
H1278 H 0.94823 0.84765 0.17414 0.0
H1279 H 0.93766 0.825 0.1465 0.0
C1280 C 0.55275 0.92861 0.84713 0.0
C1281 C 0.55013 0.92008 0.83892 0.0
C1282 C 0.53973 0.90896 0.85342 0.0
C1283 C 0.54364 0.91042 0.842 0.0
C1284 C 0.54213 0.91764 0.8616 0.0
C1285 C 0.54861 0.9274 0.85846 0.0
U1286 U 0.57743 0.93859 0.82891 0.0
O1287 O 0.58068 0.95444 0.81897 0.0
O1288 O 0.59284 0.94913 0.83252 0.0
C1289 C 0.58971 0.9573 0.82525 0.0
C1290 C 0.5606 0.93814 0.84404 0.0
C1291 C 0.58991 0.96934 0.82961 0.0
C1292 C 0.58517 0.98966 0.82693 0.0
C1293 C 0.58501 0.97826 0.82298 0.0
C1294 C 0.59545 0.98357 0.8441 0.0
C1295 C 0.59035 0.99244 0.83755 0.0
C1296 C 0.59524 0.97214 0.84017 0.0
C1297 C 0.58922 0.91478 0.80856 0.0
C1298 C 0.60827 0.91282 0.79991 0.0
C1299 C 0.5927 0.90012 0.79401 0.0
C1300 C 0.58521 0.90576 0.80158 0.0
C1301 C 0.60439 0.90338 0.79329 0.0
C1302 C 0.60073 0.91849 0.80751 0.0
C1303 C 0.58141 0.91946 0.81742 0.0
O1304 O 0.57147 0.93642 0.84686 0.0
O1305 O 0.55935 0.94222 0.8335 0.0
O1306 O 0.57396 0.9273 0.81396 0.0
O1307 O 0.58606 0.92177 0.82752 0.0
H1308 H 0.55336 0.92073 0.83015 0.0
H1309 H 0.54198 0.90392 0.83548 0.0
H1310 H 0.53927 0.91676 0.87046 0.0
H1311 H 0.55064 0.93384 0.86495 0.0
H1312 H 0.58122 0.9963 0.82164 0.0
H1313 H 0.58101 0.97642 0.81471 0.0
H1314 H 0.59954 0.98543 0.85231 0.0
H1315 H 0.59925 0.96552 0.84543 0.0
H1316 H 0.61721 0.91556 0.79954 0.0
H1317 H 0.58938 0.89294 0.78901 0.0
H1318 H 0.57635 0.9028 0.80227 0.0
H1319 H 0.60397 0.92549 0.81281 0.0
C1320 C 0.82187 0.80273 0.59712 0.0
C1321 C 0.83041 0.80012 0.58892 0.0
C1322 C 0.84152 0.78972 0.60341 0.0
C1323 C 0.84007 0.79363 0.592 0.0
C1324 C 0.83284 0.79211 0.61159 0.0
C1325 C 0.82308 0.79859 0.60846 0.0
U1326 U 0.81188 0.82741 0.5789 0.0
O1327 O 0.79603 0.83066 0.56896 0.0
O1328 O 0.80135 0.84282 0.58252 0.0
C1329 C 0.79318 0.83969 0.57525 0.0
C1330 C 0.81234 0.81058 0.59403 0.0
C1331 C 0.78113 0.83989 0.57961 0.0
C1332 C 0.76081 0.83514 0.57694 0.0
C1333 C 0.77222 0.83498 0.57299 0.0
C1334 C 0.76691 0.84544 0.5941 0.0
C1335 C 0.75803 0.84033 0.58756 0.0
C1336 C 0.77833 0.84523 0.59017 0.0
C1337 C 0.83569 0.8392 0.55855 0.0
C1338 C 0.83765 0.85826 0.5499 0.0
C1339 C 0.85034 0.84268 0.54399 0.0
C1340 C 0.8447 0.83519 0.55156 0.0
C1341 C 0.84709 0.85437 0.54328 0.0
C1342 C 0.83199 0.85072 0.55751 0.0
C1343 C 0.83101 0.83139 0.56741 0.0
O1344 O 0.81406 0.82145 0.59686 0.0
O1345 O 0.80826 0.80933 0.58349 0.0
O1346 O 0.82317 0.82394 0.56396 0.0
O1347 O 0.82871 0.83605 0.57751 0.0
H1348 H 0.82976 0.80336 0.58015 0.0
H1349 H 0.84657 0.79198 0.58547 0.0
H1350 H 0.83372 0.78924 0.62045 0.0
H1351 H 0.81664 0.80061 0.61494 0.0
H1352 H 0.75417 0.83118 0.57166 0.0
H1353 H 0.77406 0.83097 0.56473 0.0
H1354 H 0.76505 0.84954 0.6023 0.0
H1355 H 0.78495 0.84925 0.59542 0.0
H1356 H 0.83492 0.8672 0.54954 0.0
H1357 H 0.85752 0.83936 0.53898 0.0
H1358 H 0.84765 0.82633 0.55224 0.0
H1359 H 0.82499 0.85396 0.56281 0.0
C1360 C 0.94774 0.07187 0.34713 0.0
C1361 C 0.95035 0.0804 0.33892 0.0
C1362 C 0.96075 0.09152 0.35342 0.0
C1363 C 0.95684 0.09007 0.34201 0.0
C1364 C 0.95835 0.08284 0.3616 0.0
C1365 C 0.95188 0.07308 0.35846 0.0
U1366 U 0.92306 0.06188 0.32891 0.0
O1367 O 0.91981 0.04603 0.31897 0.0
O1368 O 0.90765 0.05135 0.33252 0.0
C1369 C 0.91078 0.04317 0.32525 0.0
C1370 C 0.93988 0.06234 0.34404 0.0
C1371 C 0.91058 0.03113 0.32961 0.0
C1372 C 0.91533 0.01081 0.32694 0.0
C1373 C 0.91549 0.02222 0.32299 0.0
C1374 C 0.90503 0.0169 0.3441 0.0
C1375 C 0.91014 0.00803 0.33756 0.0
C1376 C 0.90524 0.02833 0.34017 0.0
C1377 C 0.91127 0.08569 0.30856 0.0
C1378 C 0.89222 0.08765 0.2999 0.0
C1379 C 0.9078 0.10034 0.29399 0.0
C1380 C 0.91528 0.0947 0.30157 0.0
C1381 C 0.8961 0.09709 0.29328 0.0
C1382 C 0.89976 0.08199 0.30751 0.0
C1383 C 0.91908 0.08101 0.31741 0.0
O1384 O 0.92902 0.06406 0.34686 0.0
O1385 O 0.94114 0.05825 0.3335 0.0
O1386 O 0.92653 0.07317 0.31396 0.0
O1387 O 0.91443 0.07871 0.32752 0.0
H1388 H 0.94711 0.07975 0.33016 0.0
H1389 H 0.95849 0.09657 0.33548 0.0
H1390 H 0.96122 0.08372 0.37046 0.0
H1391 H 0.94985 0.06664 0.36495 0.0
H1392 H 0.91928 0.00417 0.32165 0.0
H1393 H 0.91949 0.02405 0.31472 0.0
H1394 H 0.90094 0.01504 0.35231 0.0
H1395 H 0.90123 0.03495 0.34543 0.0
H1396 H 0.88327 0.08492 0.29954 0.0
H1397 H 0.91112 0.10752 0.28898 0.0
H1398 H 0.92415 0.09765 0.30225 0.0
H1399 H 0.89651 0.07499 0.31282 0.0
C1400 C 0.6786 0.19773 0.09713 0.0
C1401 C 0.67007 0.20035 0.08892 0.0
C1402 C 0.65895 0.21075 0.10341 0.0
C1403 C 0.6604 0.20684 0.092 0.0
C1404 C 0.66763 0.20835 0.11159 0.0
C1405 C 0.67739 0.20188 0.10846 0.0
U1406 U 0.68859 0.17305 0.0789 0.0
O1407 O 0.70444 0.16981 0.06897 0.0
O1408 O 0.69912 0.15765 0.08252 0.0
C1409 C 0.70729 0.16077 0.07525 0.0
C1410 C 0.68813 0.18988 0.09403 0.0
C1411 C 0.71933 0.16057 0.07961 0.0
C1412 C 0.73966 0.16532 0.07694 0.0
C1413 C 0.72825 0.16549 0.07299 0.0
C1414 C 0.73356 0.15502 0.0941 0.0
C1415 C 0.74244 0.16013 0.08756 0.0
C1416 C 0.72213 0.15523 0.09017 0.0
C1417 C 0.66478 0.16127 0.05855 0.0
C1418 C 0.66282 0.14221 0.0499 0.0
C1419 C 0.65012 0.15779 0.044 0.0
C1420 C 0.65576 0.16528 0.05157 0.0
C1421 C 0.65338 0.1461 0.04328 0.0
C1422 C 0.66848 0.14975 0.05751 0.0
C1423 C 0.66946 0.16907 0.06741 0.0
O1424 O 0.68641 0.17902 0.09686 0.0
O1425 O 0.69222 0.19113 0.0835 0.0
O1426 O 0.6773 0.17652 0.06396 0.0
O1427 O 0.67176 0.16442 0.07751 0.0
H1428 H 0.67072 0.19711 0.08015 0.0
H1429 H 0.6539 0.20849 0.08547 0.0
H1430 H 0.66676 0.21123 0.12046 0.0
H1431 H 0.68384 0.19985 0.11494 0.0
H1432 H 0.7463 0.16928 0.07166 0.0
H1433 H 0.72641 0.16949 0.06473 0.0
H1434 H 0.73542 0.15092 0.1023 0.0
H1435 H 0.71551 0.15121 0.09542 0.0
H1436 H 0.66555 0.13327 0.04954 0.0
H1437 H 0.64295 0.16111 0.03899 0.0
H1438 H 0.65281 0.17414 0.05225 0.0
H1439 H 0.67548 0.14651 0.06281 0.0
C1440 C 0.55274 0.07188 0.65335 0.0
C1441 C 0.55013 0.08041 0.66156 0.0
C1442 C 0.53972 0.09152 0.64706 0.0
C1443 C 0.54364 0.09007 0.65847 0.0
C1444 C 0.54212 0.08284 0.63888 0.0
C1445 C 0.54859 0.07308 0.64202 0.0
U1446 U 0.57742 0.06189 0.67157 0.0
O1447 O 0.58067 0.04604 0.68151 0.0
O1448 O 0.59283 0.05136 0.66795 0.0
C1449 C 0.5897 0.04318 0.67522 0.0
C1450 C 0.56059 0.06234 0.65644 0.0
C1451 C 0.5899 0.03114 0.67086 0.0
C1452 C 0.58515 0.01082 0.67353 0.0
C1453 C 0.58499 0.02223 0.67748 0.0
C1454 C 0.59546 0.01692 0.65637 0.0
C1455 C 0.59035 0.00804 0.66291 0.0
C1456 C 0.59525 0.02834 0.6603 0.0
C1457 C 0.58921 0.0857 0.69192 0.0
C1458 C 0.60826 0.08766 0.70057 0.0
C1459 C 0.59269 0.10035 0.70648 0.0
C1460 C 0.5852 0.09471 0.6989 0.0
C1461 C 0.60438 0.0971 0.70719 0.0
C1462 C 0.60072 0.082 0.69297 0.0
C1463 C 0.5814 0.08102 0.68306 0.0
O1464 O 0.57146 0.06407 0.65361 0.0
O1465 O 0.55934 0.05826 0.66698 0.0
O1466 O 0.57395 0.07318 0.68652 0.0
O1467 O 0.58605 0.07871 0.67296 0.0
H1468 H 0.55337 0.07976 0.67032 0.0
H1469 H 0.54198 0.09658 0.665 0.0
H1470 H 0.53925 0.08372 0.63002 0.0
H1471 H 0.55062 0.06664 0.63553 0.0
H1472 H 0.58119 0.00418 0.67881 0.0
H1473 H 0.58098 0.02406 0.68574 0.0
H1474 H 0.59956 0.01506 0.64817 0.0
H1475 H 0.59927 0.03496 0.65505 0.0
H1476 H 0.61721 0.08492 0.70093 0.0
H1477 H 0.58937 0.10753 0.71149 0.0
H1478 H 0.57634 0.09766 0.69822 0.0
H1479 H 0.60396 0.075 0.68766 0.0
C1480 C 0.67861 0.80274 0.40334 0.0
C1481 C 0.67007 0.80013 0.41155 0.0
C1482 C 0.65896 0.78972 0.39705 0.0
C1483 C 0.66041 0.79364 0.40847 0.0
C1484 C 0.66764 0.79212 0.38887 0.0
C1485 C 0.6774 0.7986 0.39201 0.0
U1486 U 0.68859 0.82742 0.42156 0.0
O1487 O 0.70444 0.83066 0.4315 0.0
O1488 O 0.69913 0.84282 0.41795 0.0
C1489 C 0.7073 0.83969 0.42522 0.0
C1490 C 0.68814 0.81059 0.40643 0.0
C1491 C 0.71934 0.8399 0.42086 0.0
C1492 C 0.73967 0.83515 0.42353 0.0
C1493 C 0.72826 0.83498 0.42748 0.0
C1494 C 0.73357 0.84544 0.40637 0.0
C1495 C 0.74244 0.84034 0.41292 0.0
C1496 C 0.72214 0.84523 0.4103 0.0
C1497 C 0.66479 0.8392 0.44192 0.0
C1498 C 0.66282 0.85826 0.45057 0.0
C1499 C 0.65014 0.84268 0.45648 0.0
C1500 C 0.65578 0.83519 0.4489 0.0
C1501 C 0.65339 0.85437 0.45719 0.0
C1502 C 0.66849 0.85072 0.44296 0.0
C1503 C 0.66947 0.8314 0.43306 0.0
O1504 O 0.68642 0.82146 0.40361 0.0
O1505 O 0.69222 0.80934 0.41697 0.0
O1506 O 0.67731 0.82395 0.43651 0.0
O1507 O 0.67177 0.83605 0.42296 0.0
H1508 H 0.67072 0.80336 0.42031 0.0
H1509 H 0.65391 0.79198 0.41499 0.0
H1510 H 0.66676 0.78925 0.38001 0.0
H1511 H 0.68384 0.80062 0.38552 0.0
H1512 H 0.74631 0.83119 0.42882 0.0
H1513 H 0.72642 0.83098 0.43575 0.0
H1514 H 0.73543 0.84954 0.39816 0.0
H1515 H 0.71552 0.84925 0.40504 0.0
H1516 H 0.66556 0.8672 0.45093 0.0
H1517 H 0.64296 0.83936 0.46149 0.0
H1518 H 0.65283 0.82633 0.44823 0.0
H1519 H 0.67548 0.85396 0.43765 0.0
C1520 C 0.94774 0.9286 0.15334 0.0
C1521 C 0.95035 0.92007 0.16155 0.0
C1522 C 0.96076 0.90895 0.14706 0.0
C1523 C 0.95684 0.9104 0.15847 0.0
C1524 C 0.95836 0.91763 0.13888 0.0
C1525 C 0.95189 0.9274 0.14201 0.0
U1526 U 0.92306 0.93859 0.17157 0.0
O1527 O 0.91982 0.95444 0.18151 0.0
O1528 O 0.90766 0.94913 0.16795 0.0
C1529 C 0.91079 0.9573 0.17522 0.0
C1530 C 0.93989 0.93814 0.15644 0.0
C1531 C 0.91059 0.96934 0.17086 0.0
C1532 C 0.91534 0.98966 0.17353 0.0
C1533 C 0.9155 0.97826 0.17749 0.0
C1534 C 0.90504 0.98357 0.15637 0.0
C1535 C 0.91014 0.99244 0.16292 0.0
C1536 C 0.90525 0.97214 0.1603 0.0
C1537 C 0.91127 0.91479 0.19192 0.0
C1538 C 0.89222 0.91282 0.20057 0.0
C1539 C 0.9078 0.90013 0.20648 0.0
C1540 C 0.91528 0.90577 0.19891 0.0
C1541 C 0.89611 0.90338 0.20719 0.0
C1542 C 0.89976 0.91849 0.19296 0.0
C1543 C 0.91908 0.91946 0.18306 0.0
O1544 O 0.92903 0.93641 0.15361 0.0
O1545 O 0.94114 0.94222 0.16698 0.0
O1546 O 0.92653 0.92731 0.18651 0.0
O1547 O 0.91443 0.92177 0.17296 0.0
H1548 H 0.94711 0.92072 0.17032 0.0
H1549 H 0.95849 0.9039 0.165 0.0
H1550 H 0.96124 0.91676 0.13002 0.0
H1551 H 0.94986 0.93384 0.13553 0.0
H1552 H 0.91929 0.9963 0.17882 0.0
H1553 H 0.9195 0.97642 0.18575 0.0
H1554 H 0.90094 0.98543 0.14817 0.0
H1555 H 0.90123 0.96552 0.15505 0.0
H1556 H 0.88328 0.91556 0.20093 0.0
H1557 H 0.91112 0.89296 0.21149 0.0
H1558 H 0.92415 0.90282 0.19823 0.0
H1559 H 0.89652 0.92548 0.18766 0.0
C1560 C 0.82187 0.19773 0.90334 0.0
C1561 C 0.8304 0.20035 0.91155 0.0
C1562 C 0.84151 0.21075 0.89706 0.0
C1563 C 0.84006 0.20684 0.90847 0.0
C1564 C 0.83284 0.20834 0.88888 0.0
C1565 C 0.82308 0.20187 0.89201 0.0
U1566 U 0.81188 0.17305 0.92157 0.0
O1567 O 0.79604 0.1698 0.93151 0.0
O1568 O 0.80135 0.15764 0.91795 0.0
C1569 C 0.79318 0.16077 0.92522 0.0
C1570 C 0.81233 0.18988 0.90644 0.0
C1571 C 0.78113 0.16057 0.92086 0.0
C1572 C 0.76081 0.16531 0.92355 0.0
C1573 C 0.77222 0.16547 0.9275 0.0
C1574 C 0.7669 0.15503 0.90637 0.0
C1575 C 0.75803 0.16013 0.91292 0.0
C1576 C 0.77833 0.15524 0.9103 0.0
C1577 C 0.83569 0.16126 0.94191 0.0
C1578 C 0.83765 0.14221 0.95057 0.0
C1579 C 0.85036 0.15778 0.95646 0.0
C1580 C 0.84472 0.16527 0.94889 0.0
C1581 C 0.84709 0.14609 0.95718 0.0
C1582 C 0.83199 0.14975 0.94296 0.0
C1583 C 0.83101 0.16907 0.93306 0.0
O1584 O 0.81406 0.17901 0.90361 0.0
O1585 O 0.80825 0.19113 0.91697 0.0
O1586 O 0.82317 0.17652 0.93651 0.0
O1587 O 0.82871 0.16442 0.92295 0.0
H1588 H 0.82975 0.19711 0.92032 0.0
H1589 H 0.84656 0.20849 0.915 0.0
H1590 H 0.83372 0.21121 0.88001 0.0
H1591 H 0.81663 0.19984 0.88553 0.0
H1592 H 0.75417 0.16926 0.92884 0.0
H1593 H 0.77406 0.16947 0.93576 0.0
H1594 H 0.76504 0.15094 0.89816 0.0
H1595 H 0.78495 0.15123 0.90504 0.0
H1596 H 0.83491 0.13327 0.95093 0.0
H1597 H 0.85754 0.1611 0.96146 0.0
H1598 H 0.84767 0.17413 0.9482 0.0
H1599 H 0.82498 0.14651 0.93766 0.0
C1600 C 0.84713 0.55274 0.9286 0.0
C1601 C 0.83892 0.55013 0.92006 0.0
C1602 C 0.85341 0.53972 0.90895 0.0
C1603 C 0.842 0.54364 0.9104 0.0
C1604 C 0.86159 0.54212 0.91763 0.0
C1605 C 0.85846 0.5486 0.92739 0.0
U1606 U 0.8289 0.57742 0.93859 0.0
O1607 O 0.81897 0.58067 0.95444 0.0
O1608 O 0.83252 0.59283 0.94912 0.0
C1609 C 0.82525 0.5897 0.9573 0.0
C1610 C 0.84403 0.56059 0.93813 0.0
C1611 C 0.82961 0.5899 0.96934 0.0
C1612 C 0.82694 0.58515 0.98966 0.0
C1613 C 0.82299 0.58499 0.97825 0.0
C1614 C 0.8441 0.59545 0.98357 0.0
C1615 C 0.83756 0.59034 0.99244 0.0
C1616 C 0.84017 0.59524 0.97214 0.0
C1617 C 0.80855 0.58921 0.91478 0.0
C1618 C 0.79991 0.60827 0.91282 0.0
C1619 C 0.79399 0.59269 0.90013 0.0
C1620 C 0.80156 0.5852 0.90577 0.0
C1621 C 0.79328 0.60438 0.90338 0.0
C1622 C 0.80751 0.60073 0.91848 0.0
C1623 C 0.81741 0.5814 0.91946 0.0
O1624 O 0.84686 0.57146 0.93641 0.0
O1625 O 0.8335 0.55934 0.94222 0.0
O1626 O 0.81396 0.57395 0.9273 0.0
O1627 O 0.82751 0.58606 0.92176 0.0
H1628 H 0.83015 0.55337 0.92071 0.0
H1629 H 0.83547 0.54199 0.9039 0.0
H1630 H 0.87045 0.53925 0.91675 0.0
H1631 H 0.86494 0.55062 0.93384 0.0
H1632 H 0.82166 0.5812 0.9963 0.0
H1633 H 0.81473 0.58098 0.97642 0.0
H1634 H 0.85231 0.59955 0.98543 0.0
H1635 H 0.84543 0.59926 0.96552 0.0
H1636 H 0.79954 0.61721 0.91555 0.0
H1637 H 0.78898 0.58937 0.89296 0.0
H1638 H 0.80224 0.57634 0.90282 0.0
H1639 H 0.81282 0.60397 0.92548 0.0
C1640 C 0.34713 0.94774 0.07187 0.0
C1641 C 0.33892 0.95035 0.0804 0.0
C1642 C 0.35341 0.96076 0.09152 0.0
C1643 C 0.342 0.95684 0.09006 0.0
C1644 C 0.36159 0.95836 0.08284 0.0
C1645 C 0.35846 0.95188 0.07308 0.0
U1646 U 0.32891 0.92306 0.06188 0.0
O1647 O 0.31897 0.91981 0.04603 0.0
O1648 O 0.33252 0.90765 0.05135 0.0
C1649 C 0.32525 0.91078 0.04317 0.0
C1650 C 0.34403 0.93989 0.06234 0.0
C1651 C 0.32961 0.91058 0.03113 0.0
C1652 C 0.32694 0.91533 0.01081 0.0
C1653 C 0.32299 0.91549 0.02222 0.0
C1654 C 0.3441 0.90503 0.0169 0.0
C1655 C 0.33756 0.91013 0.00803 0.0
C1656 C 0.34017 0.90524 0.02833 0.0
C1657 C 0.30856 0.91127 0.08569 0.0
C1658 C 0.29991 0.89222 0.08765 0.0
C1659 C 0.294 0.9078 0.10035 0.0
C1660 C 0.30157 0.91528 0.0947 0.0
C1661 C 0.29328 0.8961 0.09709 0.0
C1662 C 0.30751 0.89976 0.08199 0.0
C1663 C 0.31741 0.91908 0.08101 0.0
O1664 O 0.34686 0.92902 0.06406 0.0
O1665 O 0.3335 0.94114 0.05825 0.0
O1666 O 0.31396 0.92653 0.07317 0.0
O1667 O 0.32752 0.91443 0.0787 0.0
H1668 H 0.33015 0.94712 0.07975 0.0
H1669 H 0.33547 0.9585 0.09656 0.0
H1670 H 0.37046 0.96123 0.08372 0.0
H1671 H 0.36494 0.94985 0.06663 0.0
H1672 H 0.32166 0.91928 0.00417 0.0
H1673 H 0.31473 0.9195 0.02405 0.0
H1674 H 0.35231 0.90093 0.01504 0.0
H1675 H 0.34543 0.90122 0.03495 0.0
H1676 H 0.29954 0.88328 0.08492 0.0
H1677 H 0.28899 0.91112 0.10752 0.0
H1678 H 0.30225 0.92415 0.09765 0.0
H1679 H 0.31281 0.89652 0.07499 0.0
C1680 C 0.80273 0.59713 0.82187 0.0
C1681 C 0.80012 0.58892 0.83041 0.0
C1682 C 0.78971 0.60341 0.84152 0.0
C1683 C 0.79363 0.592 0.84007 0.0
C1684 C 0.79211 0.61159 0.83284 0.0
C1685 C 0.79859 0.60846 0.82308 0.0
U1686 U 0.82741 0.57891 0.81188 0.0
O1687 O 0.83066 0.56897 0.79603 0.0
O1688 O 0.84282 0.58252 0.80135 0.0
C1689 C 0.83969 0.57525 0.79318 0.0
C1690 C 0.81058 0.59403 0.81234 0.0
C1691 C 0.83989 0.57962 0.78113 0.0
C1692 C 0.83514 0.57694 0.76081 0.0
C1693 C 0.83498 0.57299 0.77222 0.0
C1694 C 0.84544 0.5941 0.76691 0.0
C1695 C 0.84033 0.58756 0.75803 0.0
C1696 C 0.84523 0.59017 0.77833 0.0
C1697 C 0.8392 0.55856 0.83569 0.0
C1698 C 0.85826 0.54991 0.83765 0.0
C1699 C 0.84268 0.544 0.85034 0.0
C1700 C 0.83519 0.55157 0.8447 0.0
C1701 C 0.85437 0.54328 0.84709 0.0
C1702 C 0.85071 0.55751 0.83199 0.0
C1703 C 0.83139 0.56741 0.83101 0.0
O1704 O 0.82145 0.59686 0.81406 0.0
O1705 O 0.80933 0.5835 0.80826 0.0
O1706 O 0.82394 0.56396 0.82317 0.0
O1707 O 0.83604 0.57752 0.82871 0.0
H1708 H 0.80336 0.58016 0.82976 0.0
H1709 H 0.79198 0.58548 0.84657 0.0
H1710 H 0.78924 0.62046 0.83372 0.0
H1711 H 0.80061 0.61494 0.81663 0.0
H1712 H 0.83118 0.57166 0.75417 0.0
H1713 H 0.83097 0.56473 0.77405 0.0
H1714 H 0.84954 0.60231 0.76505 0.0
H1715 H 0.84924 0.59543 0.78495 0.0
H1716 H 0.8672 0.54955 0.83492 0.0
H1717 H 0.83936 0.53899 0.85752 0.0
H1718 H 0.82633 0.55225 0.84765 0.0
H1719 H 0.85396 0.56282 0.82499 0.0
C1720 C 0.15335 0.05274 0.57187 0.0
C1721 C 0.16156 0.05013 0.5804 0.0
C1722 C 0.14707 0.03972 0.59152 0.0
C1723 C 0.15848 0.04364 0.59007 0.0
C1724 C 0.13889 0.04212 0.58284 0.0
C1725 C 0.14202 0.0486 0.57308 0.0
U1726 U 0.17157 0.07742 0.56188 0.0
O1727 O 0.18151 0.08067 0.54603 0.0
O1728 O 0.16796 0.09283 0.55135 0.0
C1729 C 0.17523 0.0897 0.54318 0.0
C1730 C 0.15645 0.06059 0.56234 0.0
C1731 C 0.17087 0.0899 0.53114 0.0
C1732 C 0.17354 0.08515 0.51081 0.0
C1733 C 0.17749 0.08499 0.52222 0.0
C1734 C 0.15638 0.09545 0.51691 0.0
C1735 C 0.16292 0.09035 0.50803 0.0
C1736 C 0.16031 0.09524 0.52833 0.0
C1737 C 0.19192 0.08921 0.58569 0.0
C1738 C 0.20057 0.10826 0.58765 0.0
C1739 C 0.20648 0.09268 0.60035 0.0
C1740 C 0.19891 0.0852 0.5947 0.0
C1741 C 0.2072 0.10438 0.59709 0.0
C1742 C 0.19297 0.10072 0.58199 0.0
C1743 C 0.18307 0.0814 0.58101 0.0
O1744 O 0.15362 0.07146 0.56406 0.0
O1745 O 0.16698 0.05934 0.55825 0.0
O1746 O 0.18652 0.07395 0.57317 0.0
O1747 O 0.17296 0.08605 0.57871 0.0
H1748 H 0.17032 0.05336 0.57975 0.0
H1749 H 0.165 0.04198 0.59657 0.0
H1750 H 0.13002 0.03925 0.58372 0.0
H1751 H 0.13554 0.05062 0.56663 0.0
H1752 H 0.17882 0.0812 0.50417 0.0
H1753 H 0.18575 0.08098 0.52406 0.0
H1754 H 0.14817 0.09955 0.51505 0.0
H1755 H 0.15505 0.09926 0.53495 0.0
H1756 H 0.20094 0.1172 0.58492 0.0
H1757 H 0.21149 0.08936 0.60752 0.0
H1758 H 0.19823 0.07633 0.59766 0.0
H1759 H 0.18766 0.10396 0.57499 0.0
C1760 C 0.19773 0.90335 0.82187 0.0
C1761 C 0.20034 0.91156 0.83041 0.0
C1762 C 0.21075 0.89707 0.84152 0.0
C1763 C 0.20683 0.90848 0.84007 0.0
C1764 C 0.20835 0.88889 0.83284 0.0
C1765 C 0.20188 0.89202 0.82308 0.0
U1766 U 0.17305 0.92157 0.81188 0.0
O1767 O 0.16981 0.93151 0.79603 0.0
O1768 O 0.15765 0.91795 0.80135 0.0
C1769 C 0.16077 0.92523 0.79318 0.0
C1770 C 0.18988 0.90644 0.81234 0.0
C1771 C 0.16057 0.92086 0.78113 0.0
C1772 C 0.16533 0.92354 0.76081 0.0
C1773 C 0.16549 0.92749 0.77222 0.0
C1774 C 0.15503 0.90638 0.76691 0.0
C1775 C 0.16013 0.91292 0.75803 0.0
C1776 C 0.15523 0.91031 0.77833 0.0
C1777 C 0.16126 0.94192 0.83569 0.0
C1778 C 0.14221 0.95057 0.83765 0.0
C1779 C 0.15779 0.95648 0.85034 0.0
C1780 C 0.16527 0.94891 0.8447 0.0
C1781 C 0.14609 0.9572 0.84709 0.0
C1782 C 0.14975 0.94297 0.83199 0.0
C1783 C 0.16907 0.93307 0.83101 0.0
O1784 O 0.17902 0.90362 0.81406 0.0
O1785 O 0.19113 0.91698 0.80826 0.0
O1786 O 0.17652 0.93652 0.82317 0.0
O1787 O 0.16442 0.92296 0.82871 0.0
H1788 H 0.19711 0.92032 0.82976 0.0
H1789 H 0.20848 0.915 0.84657 0.0
H1790 H 0.21123 0.88002 0.83372 0.0
H1791 H 0.19985 0.88554 0.81663 0.0
H1792 H 0.16928 0.92882 0.75417 0.0
H1793 H 0.16949 0.93575 0.77406 0.0
H1794 H 0.15093 0.89817 0.76505 0.0
H1795 H 0.15122 0.90505 0.78495 0.0
H1796 H 0.13327 0.95093 0.83492 0.0
H1797 H 0.16111 0.96149 0.85752 0.0
H1798 H 0.17414 0.94823 0.84765 0.0
H1799 H 0.14651 0.93766 0.82499 0.0
C1800 C 0.65335 0.44774 0.4286 0.0
C1801 C 0.66155 0.45035 0.42006 0.0
C1802 C 0.64706 0.46076 0.40895 0.0
C1803 C 0.65847 0.45684 0.4104 0.0
C1804 C 0.63888 0.45836 0.41763 0.0
C1805 C 0.64201 0.45189 0.42739 0.0
U1806 U 0.67157 0.42306 0.43859 0.0
O1807 O 0.68151 0.41982 0.45444 0.0
O1808 O 0.66795 0.40766 0.44912 0.0
C1809 C 0.67522 0.41079 0.4573 0.0
C1810 C 0.65644 0.43989 0.43813 0.0
C1811 C 0.67086 0.41059 0.46934 0.0
C1812 C 0.67353 0.41534 0.48966 0.0
C1813 C 0.67749 0.4155 0.47825 0.0
C1814 C 0.65637 0.40504 0.48357 0.0
C1815 C 0.66292 0.41014 0.49244 0.0
C1816 C 0.6603 0.40525 0.47214 0.0
C1817 C 0.69192 0.41128 0.41478 0.0
C1818 C 0.70057 0.39222 0.41282 0.0
C1819 C 0.70648 0.4078 0.40013 0.0
C1820 C 0.69891 0.41528 0.40577 0.0
C1821 C 0.70719 0.39611 0.40338 0.0
C1822 C 0.69296 0.39976 0.41848 0.0
C1823 C 0.68306 0.41908 0.41946 0.0
O1824 O 0.65361 0.42903 0.43641 0.0
O1825 O 0.66698 0.44114 0.44222 0.0
O1826 O 0.68651 0.42654 0.4273 0.0
O1827 O 0.67296 0.41443 0.42176 0.0
H1828 H 0.67032 0.44712 0.42071 0.0
H1829 H 0.665 0.4585 0.4039 0.0
H1830 H 0.63002 0.46124 0.41675 0.0
H1831 H 0.63553 0.44987 0.43384 0.0
H1832 H 0.67882 0.41929 0.4963 0.0
H1833 H 0.68575 0.4195 0.47642 0.0
H1834 H 0.64817 0.40094 0.48543 0.0
H1835 H 0.65505 0.40123 0.46552 0.0
H1836 H 0.70093 0.38328 0.41555 0.0
H1837 H 0.71149 0.41112 0.39295 0.0
H1838 H 0.69823 0.42415 0.40282 0.0
H1839 H 0.68766 0.39652 0.42548 0.0
C1840 C 0.80274 0.40335 0.6786 0.0
C1841 C 0.80012 0.41156 0.67007 0.0
C1842 C 0.78972 0.39706 0.65895 0.0
C1843 C 0.79363 0.40848 0.66041 0.0
C1844 C 0.79212 0.38888 0.66763 0.0
C1845 C 0.79859 0.39202 0.67739 0.0
U1846 U 0.82742 0.42157 0.68859 0.0
O1847 O 0.83066 0.43151 0.70444 0.0
O1848 O 0.84282 0.41795 0.69912 0.0
C1849 C 0.8397 0.42522 0.7073 0.0
C1850 C 0.81059 0.40644 0.68814 0.0
C1851 C 0.8399 0.42086 0.71934 0.0
C1852 C 0.83514 0.42353 0.73966 0.0
C1853 C 0.83498 0.42749 0.72825 0.0
C1854 C 0.84545 0.40638 0.73357 0.0
C1855 C 0.84034 0.41292 0.74244 0.0
C1856 C 0.84524 0.41031 0.72214 0.0
C1857 C 0.8392 0.44192 0.66478 0.0
C1858 C 0.85826 0.45057 0.66282 0.0
C1859 C 0.84268 0.45648 0.65013 0.0
C1860 C 0.83519 0.4489 0.65577 0.0
C1861 C 0.85437 0.4572 0.65338 0.0
C1862 C 0.85072 0.44297 0.66848 0.0
C1863 C 0.8314 0.43306 0.66946 0.0
O1864 O 0.82145 0.40362 0.68641 0.0
O1865 O 0.80934 0.41698 0.69222 0.0
O1866 O 0.82395 0.43652 0.6773 0.0
O1867 O 0.83605 0.42296 0.67177 0.0
H1868 H 0.80336 0.42032 0.67072 0.0
H1869 H 0.79198 0.415 0.65391 0.0
H1870 H 0.78925 0.38002 0.66675 0.0
H1871 H 0.80062 0.38553 0.68384 0.0
H1872 H 0.83119 0.42882 0.7463 0.0
H1873 H 0.83098 0.43574 0.72642 0.0
H1874 H 0.84955 0.39817 0.73543 0.0
H1875 H 0.84926 0.40505 0.71552 0.0
H1876 H 0.8672 0.45094 0.66556 0.0
H1877 H 0.83936 0.46149 0.64295 0.0
H1878 H 0.82633 0.44822 0.65282 0.0
H1879 H 0.85396 0.43766 0.67548 0.0
C1880 C 0.69774 0.59713 0.1786 0.0
C1881 C 0.70035 0.58892 0.17007 0.0
C1882 C 0.71076 0.60341 0.15895 0.0
C1883 C 0.70684 0.592 0.16041 0.0
C1884 C 0.70836 0.61159 0.16763 0.0
C1885 C 0.70188 0.60846 0.1774 0.0
U1886 U 0.67306 0.5789 0.18859 0.0
O1887 O 0.66981 0.56897 0.20444 0.0
O1888 O 0.65765 0.58252 0.19912 0.0
C1889 C 0.66078 0.57525 0.2073 0.0
C1890 C 0.68988 0.59403 0.18814 0.0
C1891 C 0.66058 0.57961 0.21934 0.0
C1892 C 0.66533 0.57694 0.23966 0.0
C1893 C 0.66549 0.57299 0.22825 0.0
C1894 C 0.65503 0.5941 0.23357 0.0
C1895 C 0.66013 0.58755 0.24244 0.0
C1896 C 0.65524 0.59017 0.22214 0.0
C1897 C 0.66127 0.55856 0.16478 0.0
C1898 C 0.64221 0.54991 0.16282 0.0
C1899 C 0.65779 0.544 0.15012 0.0
C1900 C 0.66528 0.55157 0.15577 0.0
C1901 C 0.6461 0.54328 0.15338 0.0
C1902 C 0.64976 0.55751 0.16848 0.0
C1903 C 0.66908 0.56741 0.16946 0.0
O1904 O 0.67902 0.59686 0.18641 0.0
O1905 O 0.69114 0.5835 0.19222 0.0
O1906 O 0.67653 0.56396 0.1773 0.0
O1907 O 0.66442 0.57752 0.17177 0.0
H1908 H 0.69711 0.58015 0.17072 0.0
H1909 H 0.70849 0.58547 0.1539 0.0
H1910 H 0.71123 0.62046 0.16676 0.0
H1911 H 0.69985 0.61494 0.18384 0.0
H1912 H 0.66928 0.57165 0.2463 0.0
H1913 H 0.66949 0.56472 0.22642 0.0
H1914 H 0.65093 0.60231 0.23543 0.0
H1915 H 0.65122 0.59543 0.21552 0.0
H1916 H 0.63327 0.54954 0.16555 0.0
H1917 H 0.66111 0.53899 0.14295 0.0
H1918 H 0.67414 0.55225 0.15282 0.0
H1919 H 0.64651 0.56281 0.17548 0.0
C1920 C 0.57412 0.64186 0.92418 0.0
C1921 C 0.58543 0.64614 0.92328 0.0
C1922 C 0.59195 0.63231 0.93773 0.0
C1923 C 0.59427 0.64141 0.93001 0.0
C1924 C 0.58054 0.62823 0.93875 0.0
C1925 C 0.5717 0.63297 0.93201 0.0
U1926 U 0.56475 0.66172 0.89999 0.0
O1927 O 0.55389 0.6583 0.88478 0.0
O1928 O 0.54877 0.67165 0.89724 0.0
C1929 C 0.54572 0.6654 0.88823 0.0
C1930 C 0.56498 0.64628 0.91657 0.0
C1931 C 0.53383 0.66062 0.8882 0.0
C1932 C 0.51921 0.64858 0.87902 0.0
C1933 C 0.53037 0.65318 0.87925 0.0
C1934 C 0.51458 0.65897 0.89658 0.0
C1935 C 0.51118 0.65143 0.88768 0.0
C1936 C 0.52579 0.66351 0.89685 0.0
C1937 C 0.58781 0.68138 0.88644 0.0
C1938 C 0.58467 0.69864 0.87487 0.0
C1939 C 0.60279 0.68826 0.87346 0.0
C1940 C 0.59885 0.68028 0.8816 0.0
C1941 C 0.59582 0.69763 0.87013 0.0
C1942 C 0.58069 0.69058 0.88297 0.0
C1943 C 0.58392 0.67274 0.89493 0.0
O1944 O 0.56204 0.65712 0.91825 0.0
O1945 O 0.5663 0.64365 0.90561 0.0
O1946 O 0.58131 0.66254 0.89066 0.0
O1947 O 0.57658 0.67631 0.90284 0.0
H1948 H 0.58743 0.65301 0.91724 0.0
H1949 H 0.60295 0.64477 0.92902 0.0
H1950 H 0.57845 0.62124 0.94462 0.0
H1951 H 0.56301 0.62956 0.93277 0.0
H1952 H 0.51685 0.64286 0.872 0.0
H1953 H 0.53633 0.65089 0.87239 0.0
H1954 H 0.5086 0.66136 0.90337 0.0
H1955 H 0.52811 0.66929 0.90383 0.0
H1956 H 0.57905 0.70568 0.87234 0.0
H1957 H 0.61115 0.68686 0.86953 0.0
H1958 H 0.6044 0.67313 0.88403 0.0
H1959 H 0.57207 0.69153 0.88649 0.0
C1960 C 0.60861 0.32412 0.17418 0.0
C1961 C 0.60433 0.33543 0.17329 0.0
C1962 C 0.61816 0.34195 0.18773 0.0
C1963 C 0.60906 0.34427 0.18001 0.0
C1964 C 0.62224 0.33054 0.18876 0.0
C1965 C 0.61751 0.3217 0.18201 0.0
U1966 U 0.58876 0.31475 0.14999 0.0
O1967 O 0.59218 0.30389 0.13479 0.0
O1968 O 0.57883 0.29877 0.14724 0.0
C1969 C 0.58507 0.29572 0.13823 0.0
C1970 C 0.6042 0.31498 0.16658 0.0
C1971 C 0.58986 0.28383 0.1382 0.0
C1972 C 0.60189 0.26921 0.12902 0.0
C1973 C 0.5973 0.28038 0.12925 0.0
C1974 C 0.59151 0.26459 0.14658 0.0
C1975 C 0.59905 0.26118 0.13768 0.0
C1976 C 0.58696 0.27579 0.14685 0.0
C1977 C 0.56909 0.33781 0.13645 0.0
C1978 C 0.55184 0.33467 0.12487 0.0
C1979 C 0.56221 0.35279 0.12346 0.0
C1980 C 0.5702 0.34885 0.13161 0.0
C1981 C 0.55285 0.34582 0.12013 0.0
C1982 C 0.55989 0.33069 0.13298 0.0
C1983 C 0.57774 0.33392 0.14493 0.0
O1984 O 0.59335 0.31204 0.16825 0.0
O1985 O 0.60682 0.3163 0.15561 0.0
O1986 O 0.58793 0.33131 0.14067 0.0
O1987 O 0.57416 0.32658 0.15285 0.0
H1988 H 0.59746 0.33743 0.16724 0.0
H1989 H 0.6057 0.35295 0.17902 0.0
H1990 H 0.62923 0.32845 0.19463 0.0
H1991 H 0.62091 0.31301 0.18278 0.0
H1992 H 0.60761 0.26685 0.122 0.0
H1993 H 0.59957 0.28633 0.12239 0.0
H1994 H 0.58913 0.2586 0.15337 0.0
H1995 H 0.58119 0.27812 0.15384 0.0
H1996 H 0.54479 0.32905 0.12235 0.0
H1997 H 0.56361 0.36115 0.11953 0.0
H1998 H 0.57735 0.3544 0.13404 0.0
H1999 H 0.55894 0.32207 0.13649 0.0
C2000 C 0.92635 0.35861 0.42417 0.0
C2001 C 0.91505 0.35433 0.42327 0.0
C2002 C 0.90853 0.36816 0.43772 0.0
C2003 C 0.9062 0.35906 0.43 0.0
C2004 C 0.91994 0.37225 0.43875 0.0
C2005 C 0.92878 0.36751 0.432 0.0
U2006 U 0.93572 0.33876 0.39998 0.0
O2007 O 0.94658 0.34217 0.38477 0.0
O2008 O 0.95171 0.32882 0.39723 0.0
C2009 C 0.95475 0.33507 0.38822 0.0
C2010 C 0.93549 0.3542 0.41657 0.0
C2011 C 0.96664 0.33985 0.38819 0.0
C2012 C 0.98127 0.35189 0.37901 0.0
C2013 C 0.9701 0.34729 0.37924 0.0
C2014 C 0.98589 0.3415 0.39657 0.0
C2015 C 0.98929 0.34904 0.38767 0.0
C2016 C 0.97469 0.33696 0.39684 0.0
C2017 C 0.91267 0.31909 0.38644 0.0
C2018 C 0.9158 0.30184 0.37487 0.0
C2019 C 0.89768 0.31221 0.37345 0.0
C2020 C 0.90162 0.3202 0.3816 0.0
C2021 C 0.90465 0.30285 0.37012 0.0
C2022 C 0.91978 0.30989 0.38297 0.0
C2023 C 0.91656 0.32774 0.39492 0.0
O2024 O 0.93843 0.34335 0.41824 0.0
O2025 O 0.93418 0.35682 0.4056 0.0
O2026 O 0.91916 0.33793 0.39065 0.0
O2027 O 0.92389 0.32416 0.40284 0.0
H2028 H 0.91304 0.34746 0.41723 0.0
H2029 H 0.89753 0.3557 0.42901 0.0
H2030 H 0.92202 0.37923 0.44461 0.0
H2031 H 0.93747 0.37091 0.43276 0.0
H2032 H 0.98362 0.35761 0.37199 0.0
H2033 H 0.96415 0.34958 0.37238 0.0
H2034 H 0.99188 0.33911 0.40336 0.0
H2035 H 0.97236 0.33118 0.40382 0.0
H2036 H 0.92142 0.29479 0.37234 0.0
H2037 H 0.88932 0.31361 0.36952 0.0
H2038 H 0.89608 0.32735 0.38403 0.0
H2039 H 0.9284 0.30894 0.38648 0.0
C2040 C 0.89186 0.67636 0.67418 0.0
C2041 C 0.89614 0.66505 0.67329 0.0
C2042 C 0.8823 0.65853 0.68773 0.0
C2043 C 0.89141 0.65621 0.68001 0.0
C2044 C 0.87822 0.66994 0.68876 0.0
C2045 C 0.88296 0.67878 0.68201 0.0
U2046 U 0.91171 0.68573 0.64999 0.0
O2047 O 0.90829 0.69659 0.63479 0.0
O2048 O 0.92164 0.70171 0.64724 0.0
C2049 C 0.9154 0.70476 0.63824 0.0
C2050 C 0.89627 0.6855 0.66658 0.0
C2051 C 0.91061 0.71665 0.6382 0.0
C2052 C 0.89858 0.73127 0.62902 0.0
C2053 C 0.90318 0.7201 0.62925 0.0
C2054 C 0.90896 0.73589 0.64658 0.0
C2055 C 0.90142 0.7393 0.63768 0.0
C2056 C 0.91351 0.72469 0.64685 0.0
C2057 C 0.93138 0.66267 0.63645 0.0
C2058 C 0.94863 0.66581 0.62488 0.0
C2059 C 0.93826 0.64769 0.62347 0.0
C2060 C 0.93027 0.65163 0.63161 0.0
C2061 C 0.94762 0.65466 0.62014 0.0
C2062 C 0.94058 0.66979 0.63298 0.0
C2063 C 0.92273 0.66656 0.64494 0.0
O2064 O 0.90712 0.68844 0.66825 0.0
O2065 O 0.89365 0.68418 0.65561 0.0
O2066 O 0.91254 0.66917 0.64067 0.0
O2067 O 0.92631 0.6739 0.65285 0.0
H2068 H 0.903 0.66305 0.66724 0.0
H2069 H 0.89477 0.64753 0.67902 0.0
H2070 H 0.87124 0.67203 0.69463 0.0
H2071 H 0.87955 0.68747 0.68278 0.0
H2072 H 0.89286 0.73363 0.622 0.0
H2073 H 0.9009 0.71415 0.62239 0.0
H2074 H 0.91134 0.74188 0.65337 0.0
H2075 H 0.91928 0.72236 0.65384 0.0
H2076 H 0.95568 0.67143 0.62235 0.0
H2077 H 0.93686 0.63933 0.61953 0.0
H2078 H 0.92312 0.64608 0.63404 0.0
H2079 H 0.94153 0.67841 0.63649 0.0
C2080 C 0.57412 0.35862 0.57629 0.0
C2081 C 0.58542 0.35434 0.57718 0.0
C2082 C 0.59195 0.36817 0.56274 0.0
C2083 C 0.59427 0.35907 0.57046 0.0
C2084 C 0.58053 0.37225 0.56171 0.0
C2085 C 0.5717 0.36751 0.56846 0.0
U2086 U 0.56475 0.33876 0.60048 0.0
O2087 O 0.55389 0.34218 0.61568 0.0
O2088 O 0.54876 0.32883 0.60323 0.0
C2089 C 0.54572 0.33508 0.61224 0.0
C2090 C 0.56498 0.3542 0.58389 0.0
C2091 C 0.53383 0.33986 0.61227 0.0
C2092 C 0.5192 0.35189 0.62145 0.0
C2093 C 0.53037 0.3473 0.62122 0.0
C2094 C 0.51458 0.34152 0.60388 0.0
C2095 C 0.51118 0.34905 0.61279 0.0
C2096 C 0.52579 0.33697 0.60362 0.0
C2097 C 0.5878 0.3191 0.61402 0.0
C2098 C 0.58467 0.30184 0.62559 0.0
C2099 C 0.60279 0.31222 0.62701 0.0
C2100 C 0.59885 0.32021 0.61886 0.0
C2101 C 0.59582 0.30285 0.63034 0.0
C2102 C 0.58069 0.3099 0.61749 0.0
C2103 C 0.58391 0.32774 0.60554 0.0
O2104 O 0.56204 0.34336 0.58222 0.0
O2105 O 0.56629 0.35683 0.59486 0.0
O2106 O 0.58131 0.33794 0.6098 0.0
O2107 O 0.57658 0.32417 0.59762 0.0
H2108 H 0.58743 0.34747 0.58323 0.0
H2109 H 0.60295 0.35571 0.57145 0.0
H2110 H 0.57845 0.37924 0.55584 0.0
H2111 H 0.56301 0.37092 0.56769 0.0
H2112 H 0.51685 0.35762 0.62847 0.0
H2113 H 0.53632 0.34958 0.62808 0.0
H2114 H 0.5086 0.33913 0.59709 0.0
H2115 H 0.52811 0.33119 0.59663 0.0
H2116 H 0.57905 0.2948 0.62812 0.0
H2117 H 0.61114 0.31362 0.63094 0.0
H2118 H 0.60439 0.32735 0.61643 0.0
H2119 H 0.57206 0.30895 0.61398 0.0
C2120 C 0.89187 0.32412 0.8263 0.0
C2121 C 0.89614 0.33543 0.8272 0.0
C2122 C 0.88231 0.34195 0.81275 0.0
C2123 C 0.89141 0.34427 0.82047 0.0
C2124 C 0.87823 0.33054 0.81173 0.0
C2125 C 0.88297 0.3217 0.81847 0.0
U2126 U 0.91172 0.31476 0.85049 0.0
O2127 O 0.9083 0.30389 0.8657 0.0
O2128 O 0.92165 0.29877 0.85324 0.0
C2129 C 0.91541 0.29572 0.86225 0.0
C2130 C 0.89628 0.31499 0.83391 0.0
C2131 C 0.91062 0.28383 0.86228 0.0
C2132 C 0.89859 0.26921 0.87146 0.0
C2133 C 0.90318 0.28038 0.87123 0.0
C2134 C 0.90898 0.26459 0.8539 0.0
C2135 C 0.90144 0.26118 0.8628 0.0
C2136 C 0.91352 0.27579 0.85363 0.0
C2137 C 0.93138 0.33781 0.86404 0.0
C2138 C 0.94864 0.33468 0.87561 0.0
C2139 C 0.93827 0.3528 0.87702 0.0
C2140 C 0.93028 0.34886 0.86887 0.0
C2141 C 0.94763 0.34583 0.88035 0.0
C2142 C 0.94059 0.3307 0.86751 0.0
C2143 C 0.92274 0.33392 0.85555 0.0
O2144 O 0.90713 0.31204 0.83223 0.0
O2145 O 0.89366 0.3163 0.84487 0.0
O2146 O 0.91255 0.33131 0.85982 0.0
O2147 O 0.92631 0.32658 0.84763 0.0
H2148 H 0.90301 0.33743 0.83324 0.0
H2149 H 0.89477 0.35295 0.82146 0.0
H2150 H 0.87124 0.32845 0.80586 0.0
H2151 H 0.87956 0.31301 0.81771 0.0
H2152 H 0.89286 0.26685 0.87848 0.0
H2153 H 0.9009 0.28633 0.87809 0.0
H2154 H 0.91136 0.2586 0.84711 0.0
H2155 H 0.9193 0.27812 0.84665 0.0
H2156 H 0.95568 0.32905 0.87813 0.0
H2157 H 0.93687 0.36115 0.88095 0.0
H2158 H 0.92313 0.3544 0.86644 0.0
H2159 H 0.94154 0.32207 0.86399 0.0
C2160 C 0.92636 0.64187 0.07629 0.0
C2161 C 0.91505 0.64615 0.07719 0.0
C2162 C 0.90853 0.63231 0.06274 0.0
C2163 C 0.90621 0.64142 0.07046 0.0
C2164 C 0.91994 0.62823 0.06171 0.0
C2165 C 0.92878 0.63297 0.06846 0.0
U2166 U 0.93572 0.66172 0.10048 0.0
O2167 O 0.94658 0.6583 0.11569 0.0
O2168 O 0.95171 0.67165 0.10323 0.0
C2169 C 0.95476 0.6654 0.11224 0.0
C2170 C 0.93549 0.64628 0.08389 0.0
C2171 C 0.96664 0.66062 0.11227 0.0
C2172 C 0.98127 0.64859 0.12146 0.0
C2173 C 0.9701 0.65318 0.12123 0.0
C2174 C 0.98589 0.65896 0.10389 0.0
C2175 C 0.98929 0.65143 0.1128 0.0
C2176 C 0.97469 0.66351 0.10362 0.0
C2177 C 0.91267 0.68138 0.11403 0.0
C2178 C 0.9158 0.69864 0.1256 0.0
C2179 C 0.89768 0.68826 0.12701 0.0
C2180 C 0.90163 0.68028 0.11887 0.0
C2181 C 0.90466 0.69763 0.13034 0.0
C2182 C 0.91979 0.69058 0.1175 0.0
C2183 C 0.91656 0.67274 0.10554 0.0
O2184 O 0.93844 0.65713 0.08222 0.0
O2185 O 0.93418 0.64366 0.09486 0.0
O2186 O 0.91917 0.66254 0.10981 0.0
O2187 O 0.9239 0.67631 0.09763 0.0
H2188 H 0.91304 0.65301 0.08323 0.0
H2189 H 0.89753 0.64478 0.07145 0.0
H2190 H 0.92202 0.62125 0.05584 0.0
H2191 H 0.93747 0.62956 0.0677 0.0
H2192 H 0.98363 0.64286 0.12848 0.0
H2193 H 0.96415 0.6509 0.12809 0.0
H2194 H 0.99188 0.66134 0.0971 0.0
H2195 H 0.97236 0.66928 0.09664 0.0
H2196 H 0.92143 0.70568 0.12813 0.0
H2197 H 0.88933 0.68686 0.13094 0.0
H2198 H 0.89608 0.67313 0.11644 0.0
H2199 H 0.92841 0.69154 0.11398 0.0
C2200 C 0.60861 0.67636 0.3263 0.0
C2201 C 0.60433 0.66505 0.32719 0.0
C2202 C 0.61817 0.65853 0.31274 0.0
C2203 C 0.60906 0.6562 0.32046 0.0
C2204 C 0.62225 0.66994 0.31172 0.0
C2205 C 0.61751 0.67878 0.31846 0.0
U2206 U 0.58876 0.68572 0.35049 0.0
O2207 O 0.59218 0.69659 0.36569 0.0
O2208 O 0.57883 0.70171 0.35323 0.0
C2209 C 0.58508 0.70476 0.36224 0.0
C2210 C 0.6042 0.68549 0.3339 0.0
C2211 C 0.58986 0.71665 0.36227 0.0
C2212 C 0.60189 0.73127 0.37145 0.0
C2213 C 0.5973 0.7201 0.37122 0.0
C2214 C 0.59151 0.73589 0.35389 0.0
C2215 C 0.59905 0.73929 0.36279 0.0
C2216 C 0.58696 0.72469 0.35362 0.0
C2217 C 0.56909 0.66267 0.36403 0.0
C2218 C 0.55184 0.6658 0.3756 0.0
C2219 C 0.56221 0.64769 0.37701 0.0
C2220 C 0.5702 0.65163 0.36887 0.0
C2221 C 0.55285 0.65466 0.38034 0.0
C2222 C 0.55989 0.66979 0.3675 0.0
C2223 C 0.57774 0.66656 0.35554 0.0
O2224 O 0.59335 0.68844 0.33222 0.0
O2225 O 0.60682 0.68418 0.34486 0.0
O2226 O 0.58793 0.66917 0.35981 0.0
O2227 O 0.57417 0.6739 0.34763 0.0
H2228 H 0.59747 0.66304 0.33323 0.0
H2229 H 0.6057 0.64753 0.32145 0.0
H2230 H 0.62923 0.67202 0.30585 0.0
H2231 H 0.62092 0.68747 0.3177 0.0
H2232 H 0.60762 0.73363 0.37847 0.0
H2233 H 0.59958 0.71415 0.37808 0.0
H2234 H 0.58912 0.74188 0.3471 0.0
H2235 H 0.58118 0.72236 0.34664 0.0
H2236 H 0.5448 0.67143 0.37813 0.0
H2237 H 0.56361 0.63933 0.38095 0.0
H2238 H 0.57735 0.64608 0.36644 0.0
H2239 H 0.55894 0.67841 0.36398 0.0
C2240 C 0.92417 0.57412 0.64187 0.0
C2241 C 0.92328 0.58543 0.64614 0.0
C2242 C 0.93773 0.59195 0.63231 0.0
C2243 C 0.93001 0.59427 0.64142 0.0
C2244 C 0.93875 0.58054 0.62823 0.0
C2245 C 0.932 0.5717 0.63297 0.0
U2246 U 0.89998 0.56476 0.66172 0.0
O2247 O 0.88478 0.55389 0.6583 0.0
O2248 O 0.89723 0.54877 0.67165 0.0
C2249 C 0.88822 0.54572 0.6654 0.0
C2250 C 0.91657 0.56499 0.64628 0.0
C2251 C 0.88819 0.53384 0.66062 0.0
C2252 C 0.87901 0.51921 0.64858 0.0
C2253 C 0.87924 0.53038 0.65318 0.0
C2254 C 0.89658 0.51459 0.65897 0.0
C2255 C 0.88767 0.51119 0.65143 0.0
C2256 C 0.89684 0.52579 0.66351 0.0
C2257 C 0.88644 0.58781 0.68138 0.0
C2258 C 0.87486 0.58468 0.69864 0.0
C2259 C 0.87345 0.6028 0.68826 0.0
C2260 C 0.8816 0.59885 0.68027 0.0
C2261 C 0.87012 0.59582 0.69763 0.0
C2262 C 0.88296 0.58069 0.69058 0.0
C2263 C 0.89492 0.58392 0.67274 0.0
O2264 O 0.91824 0.56204 0.65713 0.0
O2265 O 0.9056 0.5663 0.64366 0.0
O2266 O 0.89066 0.58131 0.66254 0.0
O2267 O 0.90284 0.57658 0.67631 0.0
H2268 H 0.91723 0.58744 0.65301 0.0
H2269 H 0.92901 0.60295 0.64478 0.0
H2270 H 0.94462 0.57845 0.62125 0.0
H2271 H 0.93277 0.56301 0.62956 0.0
H2272 H 0.87199 0.51685 0.64286 0.0
H2273 H 0.87238 0.53633 0.6509 0.0
H2274 H 0.90336 0.5086 0.66135 0.0
H2275 H 0.90383 0.52812 0.66929 0.0
H2276 H 0.87234 0.57905 0.70568 0.0
H2277 H 0.86952 0.61115 0.68686 0.0
H2278 H 0.88403 0.6044 0.67313 0.0
H2279 H 0.88648 0.57207 0.69153 0.0
C2280 C 0.67636 0.67418 0.89186 0.0
C2281 C 0.66505 0.67329 0.89614 0.0
C2282 C 0.65853 0.68774 0.88231 0.0
C2283 C 0.6562 0.68001 0.89141 0.0
C2284 C 0.66994 0.68876 0.87822 0.0
C2285 C 0.67878 0.68201 0.88296 0.0
U2286 U 0.68572 0.64999 0.91171 0.0
O2287 O 0.69658 0.63479 0.90829 0.0
O2288 O 0.70171 0.64724 0.92164 0.0
C2289 C 0.70476 0.63824 0.9154 0.0
C2290 C 0.68549 0.66658 0.89627 0.0
C2291 C 0.71664 0.63821 0.91061 0.0
C2292 C 0.73127 0.62902 0.89858 0.0
C2293 C 0.7201 0.62925 0.90317 0.0
C2294 C 0.73589 0.64659 0.90896 0.0
C2295 C 0.73929 0.63768 0.90142 0.0
C2296 C 0.72469 0.64686 0.9135 0.0
C2297 C 0.66267 0.63645 0.93138 0.0
C2298 C 0.66581 0.62488 0.94863 0.0
C2299 C 0.64769 0.62346 0.93826 0.0
C2300 C 0.65163 0.63161 0.93027 0.0
C2301 C 0.65466 0.62014 0.94762 0.0
C2302 C 0.66979 0.63298 0.94058 0.0
C2303 C 0.66656 0.64494 0.92273 0.0
O2304 O 0.68844 0.66826 0.90712 0.0
O2305 O 0.68418 0.65561 0.89365 0.0
O2306 O 0.66917 0.64067 0.91254 0.0
O2307 O 0.6739 0.65285 0.92631 0.0
H2308 H 0.66304 0.66725 0.90301 0.0
H2309 H 0.64753 0.67902 0.89477 0.0
H2310 H 0.67202 0.69463 0.87124 0.0
H2311 H 0.68747 0.68278 0.87955 0.0
H2312 H 0.73363 0.622 0.89286 0.0
H2313 H 0.71415 0.62239 0.90089 0.0
H2314 H 0.74188 0.65338 0.91134 0.0
H2315 H 0.72236 0.65384 0.91928 0.0
H2316 H 0.67143 0.62235 0.95568 0.0
H2317 H 0.63933 0.61953 0.93686 0.0
H2318 H 0.64608 0.63404 0.92312 0.0
H2319 H 0.67841 0.6365 0.94153 0.0
C2320 C 0.57629 0.42636 0.14186 0.0
C2321 C 0.57719 0.41505 0.14614 0.0
C2322 C 0.56274 0.40853 0.13231 0.0
C2323 C 0.57046 0.40621 0.14141 0.0
C2324 C 0.56172 0.41994 0.12823 0.0
C2325 C 0.56846 0.42878 0.13297 0.0
U2326 U 0.60049 0.43572 0.16172 0.0
O2327 O 0.61569 0.44658 0.1583 0.0
O2328 O 0.60324 0.45171 0.17165 0.0
C2329 C 0.61224 0.45476 0.1654 0.0
C2330 C 0.5839 0.43549 0.14628 0.0
C2331 C 0.61227 0.46664 0.16062 0.0
C2332 C 0.62146 0.48127 0.14858 0.0
C2333 C 0.62123 0.4701 0.15318 0.0
C2334 C 0.60389 0.48589 0.15896 0.0
C2335 C 0.6128 0.48929 0.15142 0.0
C2336 C 0.60362 0.47469 0.16351 0.0
C2337 C 0.61403 0.41267 0.18138 0.0
C2338 C 0.6256 0.4158 0.19864 0.0
C2339 C 0.62701 0.39768 0.18826 0.0
C2340 C 0.61887 0.40163 0.18027 0.0
C2341 C 0.63034 0.40466 0.19762 0.0
C2342 C 0.6175 0.41979 0.19058 0.0
C2343 C 0.60554 0.41656 0.17273 0.0
O2344 O 0.58222 0.43844 0.15712 0.0
O2345 O 0.59486 0.43418 0.14365 0.0
O2346 O 0.60981 0.41917 0.16254 0.0
O2347 O 0.59763 0.4239 0.17631 0.0
H2348 H 0.58323 0.41305 0.15301 0.0
H2349 H 0.57145 0.39753 0.14477 0.0
H2350 H 0.55585 0.42202 0.12124 0.0
H2351 H 0.5677 0.43747 0.12956 0.0
H2352 H 0.62848 0.48363 0.14286 0.0
H2353 H 0.62809 0.46415 0.1509 0.0
H2354 H 0.5971 0.49188 0.16135 0.0
H2355 H 0.59664 0.47236 0.16928 0.0
H2356 H 0.62813 0.42143 0.20568 0.0
H2357 H 0.63094 0.38933 0.18686 0.0
H2358 H 0.61644 0.39608 0.17313 0.0
H2359 H 0.61399 0.42841 0.19153 0.0
C2360 C 0.82411 0.3263 0.39186 0.0
C2361 C 0.83542 0.32719 0.39614 0.0
C2362 C 0.84194 0.31274 0.38231 0.0
C2363 C 0.84426 0.32046 0.39141 0.0
C2364 C 0.83053 0.31172 0.37823 0.0
C2365 C 0.82169 0.31847 0.38296 0.0
U2366 U 0.81475 0.35049 0.41171 0.0
O2367 O 0.80389 0.36569 0.40829 0.0
O2368 O 0.79876 0.35324 0.42165 0.0
C2369 C 0.79572 0.36225 0.4154 0.0
C2370 C 0.81498 0.3339 0.39627 0.0
C2371 C 0.78383 0.36228 0.41062 0.0
C2372 C 0.7692 0.37146 0.39858 0.0
C2373 C 0.78037 0.37123 0.40318 0.0
C2374 C 0.76458 0.3539 0.40896 0.0
C2375 C 0.76118 0.3628 0.40143 0.0
C2376 C 0.77579 0.35363 0.41351 0.0
C2377 C 0.8378 0.36403 0.43138 0.0
C2378 C 0.83467 0.3756 0.44863 0.0
C2379 C 0.85279 0.37701 0.43826 0.0
C2380 C 0.84885 0.36887 0.43027 0.0
C2381 C 0.84582 0.38034 0.44762 0.0
C2382 C 0.83069 0.3675 0.44058 0.0
C2383 C 0.83391 0.35554 0.42273 0.0
O2384 O 0.81204 0.33223 0.40712 0.0
O2385 O 0.81629 0.34487 0.39365 0.0
O2386 O 0.83131 0.35981 0.41254 0.0
O2387 O 0.82658 0.34763 0.42631 0.0
H2388 H 0.83743 0.33324 0.40301 0.0
H2389 H 0.85294 0.32145 0.39477 0.0
H2390 H 0.82845 0.30585 0.37124 0.0
H2391 H 0.813 0.3177 0.37956 0.0
H2392 H 0.76685 0.37848 0.39286 0.0
H2393 H 0.78632 0.37809 0.4009 0.0
H2394 H 0.75859 0.34711 0.41135 0.0
H2395 H 0.77811 0.34665 0.41929 0.0
H2396 H 0.82905 0.37813 0.45568 0.0
H2397 H 0.86115 0.38095 0.43686 0.0
H2398 H 0.85439 0.36644 0.42312 0.0
H2399 H 0.82207 0.36399 0.44153 0.0
C2400 C 0.92418 0.42636 0.85861 0.0
C2401 C 0.92328 0.41506 0.85433 0.0
C2402 C 0.93773 0.40853 0.86816 0.0
C2403 C 0.93001 0.40621 0.85906 0.0
C2404 C 0.93876 0.41994 0.87225 0.0
C2405 C 0.93201 0.42878 0.86751 0.0
U2406 U 0.89999 0.43573 0.83876 0.0
O2407 O 0.88478 0.44659 0.84218 0.0
O2408 O 0.89724 0.45171 0.82883 0.0
C2409 C 0.88823 0.45476 0.83507 0.0
C2410 C 0.91657 0.4355 0.8542 0.0
C2411 C 0.8882 0.46665 0.83986 0.0
C2412 C 0.87902 0.48127 0.85189 0.0
C2413 C 0.87924 0.4701 0.8473 0.0
C2414 C 0.89658 0.4859 0.84151 0.0
C2415 C 0.88768 0.4893 0.84905 0.0
C2416 C 0.89685 0.47469 0.83696 0.0
C2417 C 0.88644 0.41267 0.81909 0.0
C2418 C 0.87488 0.4158 0.80184 0.0
C2419 C 0.87346 0.39769 0.81221 0.0
C2420 C 0.88161 0.40163 0.8202 0.0
C2421 C 0.87013 0.40466 0.80285 0.0
C2422 C 0.88297 0.41979 0.80989 0.0
C2423 C 0.89493 0.41656 0.82774 0.0
O2424 O 0.91825 0.43844 0.84335 0.0
O2425 O 0.90561 0.43418 0.85682 0.0
O2426 O 0.89066 0.41917 0.83793 0.0
O2427 O 0.90285 0.4239 0.82417 0.0
H2428 H 0.91724 0.41305 0.84747 0.0
H2429 H 0.92902 0.39753 0.8557 0.0
H2430 H 0.94463 0.42203 0.87923 0.0
H2431 H 0.93277 0.43747 0.87092 0.0
H2432 H 0.87199 0.48363 0.85761 0.0
H2433 H 0.87238 0.46415 0.84958 0.0
H2434 H 0.90337 0.49188 0.83912 0.0
H2435 H 0.90383 0.47237 0.83119 0.0
H2436 H 0.87235 0.42143 0.79479 0.0
H2437 H 0.86953 0.38933 0.81361 0.0
H2438 H 0.88403 0.39608 0.82735 0.0
H2439 H 0.88649 0.42841 0.80894 0.0
C2440 C 0.82412 0.67418 0.10861 0.0
C2441 C 0.83543 0.67329 0.10433 0.0
C2442 C 0.84195 0.68773 0.11816 0.0
C2443 C 0.84427 0.68001 0.10906 0.0
C2444 C 0.83054 0.68876 0.12225 0.0
C2445 C 0.8217 0.68201 0.11751 0.0
U2446 U 0.81475 0.64999 0.08876 0.0
O2447 O 0.80389 0.63479 0.09218 0.0
O2448 O 0.79877 0.64724 0.07883 0.0
C2449 C 0.79572 0.63823 0.08507 0.0
C2450 C 0.81498 0.66658 0.1042 0.0
C2451 C 0.78383 0.6382 0.08986 0.0
C2452 C 0.76921 0.62902 0.10189 0.0
C2453 C 0.78038 0.62925 0.0973 0.0
C2454 C 0.76459 0.64658 0.09151 0.0
C2455 C 0.76118 0.63768 0.09905 0.0
C2456 C 0.77579 0.64685 0.08696 0.0
C2457 C 0.83781 0.63645 0.06909 0.0
C2458 C 0.83467 0.62488 0.05184 0.0
C2459 C 0.85279 0.62346 0.06221 0.0
C2460 C 0.84885 0.63161 0.0702 0.0
C2461 C 0.84582 0.62013 0.05285 0.0
C2462 C 0.83069 0.63298 0.05989 0.0
C2463 C 0.83392 0.64493 0.07774 0.0
O2464 O 0.81204 0.66825 0.09335 0.0
O2465 O 0.8163 0.65561 0.10682 0.0
O2466 O 0.83131 0.64067 0.08793 0.0
O2467 O 0.82658 0.65285 0.07416 0.0
H2468 H 0.83743 0.66724 0.09746 0.0
H2469 H 0.85295 0.67902 0.1057 0.0
H2470 H 0.82845 0.69463 0.12923 0.0
H2471 H 0.81301 0.68278 0.12091 0.0
H2472 H 0.76685 0.622 0.10761 0.0
H2473 H 0.78633 0.62239 0.09957 0.0
H2474 H 0.7586 0.65337 0.08913 0.0
H2475 H 0.77812 0.65384 0.08119 0.0
H2476 H 0.82905 0.62235 0.04479 0.0
H2477 H 0.86115 0.61953 0.06361 0.0
H2478 H 0.8544 0.63404 0.07734 0.0
H2479 H 0.82207 0.63649 0.05894 0.0
C2480 C 0.57629 0.57412 0.35861 0.0
C2481 C 0.57719 0.58543 0.35433 0.0
C2482 C 0.56274 0.59195 0.36817 0.0
C2483 C 0.57046 0.59427 0.35906 0.0
C2484 C 0.56172 0.58054 0.37225 0.0
C2485 C 0.56846 0.5717 0.36751 0.0
U2486 U 0.60048 0.56475 0.33876 0.0
O2487 O 0.61569 0.55389 0.34218 0.0
O2488 O 0.60323 0.54877 0.32883 0.0
C2489 C 0.61224 0.54572 0.33507 0.0
C2490 C 0.5839 0.56498 0.3542 0.0
C2491 C 0.61227 0.53383 0.33986 0.0
C2492 C 0.62145 0.51921 0.35189 0.0
C2493 C 0.62122 0.53037 0.3473 0.0
C2494 C 0.60389 0.51458 0.34151 0.0
C2495 C 0.61279 0.51118 0.34905 0.0
C2496 C 0.60362 0.52579 0.33696 0.0
C2497 C 0.61403 0.58781 0.31909 0.0
C2498 C 0.6256 0.58467 0.30184 0.0
C2499 C 0.62701 0.60279 0.31221 0.0
C2500 C 0.61887 0.59885 0.3202 0.0
C2501 C 0.63034 0.59582 0.30285 0.0
C2502 C 0.6175 0.58069 0.30989 0.0
C2503 C 0.60554 0.58392 0.32774 0.0
O2504 O 0.58222 0.56204 0.34335 0.0
O2505 O 0.59486 0.5663 0.35682 0.0
O2506 O 0.60981 0.58131 0.33793 0.0
O2507 O 0.59763 0.57658 0.32416 0.0
H2508 H 0.58323 0.58743 0.34747 0.0
H2509 H 0.57145 0.60295 0.3557 0.0
H2510 H 0.55585 0.57845 0.37923 0.0
H2511 H 0.5677 0.56301 0.37092 0.0
H2512 H 0.62847 0.51685 0.35761 0.0
H2513 H 0.62808 0.53632 0.34958 0.0
H2514 H 0.5971 0.5086 0.33913 0.0
H2515 H 0.59664 0.52811 0.33119 0.0
H2516 H 0.62812 0.57905 0.29479 0.0
H2517 H 0.63094 0.61114 0.31361 0.0
H2518 H 0.61644 0.60439 0.32735 0.0
H2519 H 0.61398 0.57207 0.30894 0.0
C2520 C 0.67635 0.3263 0.60861 0.0
C2521 C 0.66505 0.3272 0.60433 0.0
C2522 C 0.65852 0.31275 0.61816 0.0
C2523 C 0.6562 0.32047 0.60906 0.0
C2524 C 0.66994 0.31172 0.62224 0.0
C2525 C 0.67878 0.31847 0.6175 0.0
U2526 U 0.68572 0.3505 0.58875 0.0
O2527 O 0.69658 0.3657 0.59217 0.0
O2528 O 0.70171 0.35324 0.57882 0.0
C2529 C 0.70475 0.36225 0.58507 0.0
C2530 C 0.68549 0.33391 0.60419 0.0
C2531 C 0.71664 0.36228 0.58985 0.0
C2532 C 0.73127 0.37146 0.60189 0.0
C2533 C 0.7201 0.37124 0.59729 0.0
C2534 C 0.73589 0.3539 0.5915 0.0
C2535 C 0.73929 0.3628 0.59904 0.0
C2536 C 0.72468 0.35363 0.58696 0.0
C2537 C 0.66267 0.36404 0.56909 0.0
C2538 C 0.6658 0.37561 0.55183 0.0
C2539 C 0.64768 0.37702 0.56221 0.0
C2540 C 0.65162 0.36888 0.5702 0.0
C2541 C 0.65465 0.38035 0.55285 0.0
C2542 C 0.66978 0.36751 0.55989 0.0
C2543 C 0.66656 0.35555 0.57774 0.0
O2544 O 0.68843 0.33223 0.59335 0.0
O2545 O 0.68418 0.34487 0.60682 0.0
O2546 O 0.66916 0.35982 0.58793 0.0
O2547 O 0.67389 0.34764 0.57416 0.0
H2548 H 0.66304 0.33324 0.59746 0.0
H2549 H 0.64752 0.32146 0.6057 0.0
H2550 H 0.67202 0.30586 0.62923 0.0
H2551 H 0.68746 0.31771 0.62091 0.0
H2552 H 0.73362 0.37848 0.60761 0.0
H2553 H 0.71415 0.3781 0.59957 0.0
H2554 H 0.74187 0.34711 0.58912 0.0
H2555 H 0.72236 0.34665 0.58118 0.0
H2556 H 0.67143 0.37814 0.54479 0.0
H2557 H 0.63933 0.38095 0.56361 0.0
H2558 H 0.64608 0.36645 0.57734 0.0
H2559 H 0.67841 0.364 0.55894 0.0
C2560 C 0.64187 0.92418 0.57411 0.0
C2561 C 0.64615 0.92328 0.58542 0.0
C2562 C 0.63232 0.93773 0.59194 0.0
C2563 C 0.64142 0.93001 0.59426 0.0
C2564 C 0.62823 0.93876 0.58053 0.0
C2565 C 0.63297 0.93201 0.57169 0.0
U2566 U 0.66172 0.89998 0.56475 0.0
O2567 O 0.6583 0.88478 0.55389 0.0
O2568 O 0.67165 0.89723 0.54876 0.0
C2569 C 0.6654 0.88823 0.54572 0.0
C2570 C 0.64628 0.91657 0.56498 0.0
C2571 C 0.66062 0.88819 0.53383 0.0
C2572 C 0.64859 0.87901 0.5192 0.0
C2573 C 0.65318 0.87924 0.53037 0.0
C2574 C 0.65897 0.89658 0.51458 0.0
C2575 C 0.65143 0.88767 0.51118 0.0
C2576 C 0.66351 0.89684 0.52579 0.0
C2577 C 0.68138 0.88644 0.5878 0.0
C2578 C 0.69864 0.87487 0.58467 0.0
C2579 C 0.68826 0.87346 0.60279 0.0
C2580 C 0.68028 0.8816 0.59885 0.0
C2581 C 0.69763 0.87013 0.59582 0.0
C2582 C 0.69058 0.88297 0.58069 0.0
C2583 C 0.67274 0.89493 0.58391 0.0
O2584 O 0.65713 0.91825 0.56203 0.0
O2585 O 0.64366 0.90561 0.56629 0.0
O2586 O 0.66254 0.89066 0.58131 0.0
O2587 O 0.67631 0.90284 0.57657 0.0
H2588 H 0.65301 0.91724 0.58743 0.0
H2589 H 0.64478 0.92902 0.60294 0.0
H2590 H 0.62125 0.94463 0.57844 0.0
H2591 H 0.62957 0.93277 0.563 0.0
H2592 H 0.64287 0.87199 0.51685 0.0
H2593 H 0.6509 0.87238 0.53632 0.0
H2594 H 0.66135 0.90337 0.5086 0.0
H2595 H 0.66929 0.90383 0.52811 0.0
H2596 H 0.70568 0.87234 0.57905 0.0
H2597 H 0.68686 0.86952 0.61114 0.0
H2598 H 0.67313 0.88403 0.60439 0.0
H2599 H 0.69154 0.88648 0.57206 0.0
C2600 C 0.14186 0.57629 0.42635 0.0
C2601 C 0.14614 0.57718 0.41505 0.0
C2602 C 0.13231 0.56274 0.40852 0.0
C2603 C 0.14141 0.57046 0.4062 0.0
C2604 C 0.12823 0.56171 0.41993 0.0
C2605 C 0.13296 0.56846 0.42877 0.0
U2606 U 0.16171 0.60048 0.43572 0.0
O2607 O 0.15829 0.61569 0.44658 0.0
O2608 O 0.17164 0.60323 0.45171 0.0
C2609 C 0.1654 0.61224 0.45475 0.0
C2610 C 0.14628 0.58389 0.43549 0.0
C2611 C 0.16061 0.61227 0.46664 0.0
C2612 C 0.14858 0.62145 0.48127 0.0
C2613 C 0.15317 0.62122 0.4701 0.0
C2614 C 0.15896 0.60389 0.48589 0.0
C2615 C 0.15142 0.61279 0.48929 0.0
C2616 C 0.16351 0.60362 0.47469 0.0
C2617 C 0.18138 0.61403 0.41267 0.0
C2618 C 0.19863 0.6256 0.41581 0.0
C2619 C 0.18826 0.62701 0.39769 0.0
C2620 C 0.18027 0.61886 0.40163 0.0
C2621 C 0.19762 0.63034 0.40466 0.0
C2622 C 0.19058 0.6175 0.41979 0.0
C2623 C 0.17273 0.60554 0.41656 0.0
O2624 O 0.15712 0.58222 0.43843 0.0
O2625 O 0.14365 0.59486 0.43418 0.0
O2626 O 0.16254 0.60981 0.41916 0.0
O2627 O 0.17631 0.59762 0.4239 0.0
H2628 H 0.15301 0.58323 0.41304 0.0
H2629 H 0.14478 0.57145 0.39752 0.0
H2630 H 0.12124 0.55585 0.42202 0.0
H2631 H 0.12956 0.5677 0.43746 0.0
H2632 H 0.14286 0.62847 0.48362 0.0
H2633 H 0.15089 0.62808 0.46415 0.0
H2634 H 0.16134 0.5971 0.49188 0.0
H2635 H 0.16928 0.59664 0.47236 0.0
H2636 H 0.20568 0.62812 0.42143 0.0
H2637 H 0.18686 0.63094 0.38933 0.0
H2638 H 0.17313 0.61644 0.39608 0.0
H2639 H 0.19153 0.61398 0.42841 0.0
C2640 C 0.67418 0.89187 0.67635 0.0
C2641 C 0.67329 0.89614 0.66505 0.0
C2642 C 0.68773 0.88231 0.65852 0.0
C2643 C 0.68001 0.89141 0.6562 0.0
C2644 C 0.68876 0.87823 0.66994 0.0
C2645 C 0.68201 0.88297 0.67877 0.0
U2646 U 0.64999 0.91172 0.68572 0.0
O2647 O 0.63479 0.9083 0.69658 0.0
O2648 O 0.64724 0.92166 0.70171 0.0
C2649 C 0.63824 0.91541 0.70475 0.0
C2650 C 0.66658 0.89628 0.68549 0.0
C2651 C 0.63821 0.91063 0.71664 0.0
C2652 C 0.62903 0.89859 0.73126 0.0
C2653 C 0.62925 0.90318 0.7201 0.0
C2654 C 0.64659 0.90898 0.73589 0.0
C2655 C 0.63769 0.90144 0.73929 0.0
C2656 C 0.64685 0.91352 0.72468 0.0
C2657 C 0.63645 0.93139 0.66266 0.0
C2658 C 0.62488 0.94864 0.6658 0.0
C2659 C 0.62347 0.93827 0.64768 0.0
C2660 C 0.63161 0.93028 0.65162 0.0
C2661 C 0.62014 0.94763 0.65465 0.0
C2662 C 0.63298 0.94059 0.66978 0.0
C2663 C 0.64494 0.92274 0.66655 0.0
O2664 O 0.66825 0.90713 0.68843 0.0
O2665 O 0.65561 0.89366 0.68418 0.0
O2666 O 0.64067 0.91255 0.66916 0.0
O2667 O 0.65285 0.92631 0.67389 0.0
H2668 H 0.66724 0.90301 0.66304 0.0
H2669 H 0.67902 0.89477 0.64752 0.0
H2670 H 0.69463 0.87124 0.67202 0.0
H2671 H 0.68278 0.87956 0.68746 0.0
H2672 H 0.62201 0.89287 0.73362 0.0
H2673 H 0.62239 0.9009 0.71415 0.0
H2674 H 0.65338 0.91136 0.74187 0.0
H2675 H 0.65384 0.9193 0.72236 0.0
H2676 H 0.62236 0.95569 0.67142 0.0
H2677 H 0.61953 0.93687 0.63932 0.0
H2678 H 0.63404 0.92313 0.64608 0.0
H2679 H 0.6365 0.94154 0.6784 0.0
C2680 C 0.35862 0.42417 0.92635 0.0
C2681 C 0.35434 0.42328 0.91505 0.0
C2682 C 0.36817 0.43773 0.90852 0.0
C2683 C 0.35907 0.43001 0.9062 0.0
C2684 C 0.37225 0.43875 0.91993 0.0
C2685 C 0.36751 0.43201 0.92877 0.0
U2686 U 0.33876 0.39998 0.93572 0.0
O2687 O 0.34218 0.38478 0.94658 0.0
O2688 O 0.32883 0.39724 0.95171 0.0
C2689 C 0.33508 0.38823 0.95475 0.0
C2690 C 0.3542 0.41657 0.93549 0.0
C2691 C 0.33986 0.3882 0.96664 0.0
C2692 C 0.35189 0.37902 0.98127 0.0
C2693 C 0.3473 0.37924 0.9701 0.0
C2694 C 0.34151 0.39658 0.98589 0.0
C2695 C 0.34905 0.38768 0.98929 0.0
C2696 C 0.33697 0.39685 0.97468 0.0
C2697 C 0.3191 0.38644 0.91267 0.0
C2698 C 0.30184 0.37487 0.9158 0.0
C2699 C 0.31222 0.37346 0.89768 0.0
C2700 C 0.3202 0.3816 0.90162 0.0
C2701 C 0.30285 0.37013 0.90465 0.0
C2702 C 0.3099 0.38297 0.91978 0.0
C2703 C 0.32774 0.39493 0.91656 0.0
O2704 O 0.34336 0.41825 0.93843 0.0
O2705 O 0.35682 0.40561 0.93418 0.0
O2706 O 0.33794 0.39066 0.91916 0.0
O2707 O 0.32417 0.40284 0.92389 0.0
H2708 H 0.34747 0.41724 0.91304 0.0
H2709 H 0.35571 0.42902 0.89752 0.0
H2710 H 0.37924 0.44462 0.92202 0.0
H2711 H 0.37092 0.43277 0.93746 0.0
H2712 H 0.35762 0.372 0.98362 0.0
H2713 H 0.34958 0.37238 0.96415 0.0
H2714 H 0.33913 0.40337 0.99187 0.0
H2715 H 0.33119 0.40383 0.97236 0.0
H2716 H 0.2948 0.37234 0.92142 0.0
H2717 H 0.31362 0.36953 0.88933 0.0
H2718 H 0.32735 0.38403 0.89608 0.0
H2719 H 0.30895 0.38649 0.92841 0.0
C2720 C 0.3263 0.60861 0.67636 0.0
C2721 C 0.32719 0.60433 0.66505 0.0
C2722 C 0.31274 0.61816 0.65853 0.0
C2723 C 0.32047 0.60906 0.65621 0.0
C2724 C 0.31172 0.62224 0.66994 0.0
C2725 C 0.31847 0.6175 0.67878 0.0
U2726 U 0.35049 0.58876 0.68572 0.0
O2727 O 0.3657 0.59218 0.69658 0.0
O2728 O 0.35324 0.57882 0.70171 0.0
C2729 C 0.36225 0.58507 0.70475 0.0
C2730 C 0.3339 0.60419 0.68549 0.0
C2731 C 0.36228 0.58986 0.71664 0.0
C2732 C 0.37146 0.60189 0.73127 0.0
C2733 C 0.37124 0.59729 0.7201 0.0
C2734 C 0.3539 0.59151 0.73589 0.0
C2735 C 0.3628 0.59905 0.73929 0.0
C2736 C 0.35363 0.58696 0.72468 0.0
C2737 C 0.36404 0.56909 0.66267 0.0
C2738 C 0.37561 0.55184 0.6658 0.0
C2739 C 0.37702 0.56221 0.64768 0.0
C2740 C 0.36888 0.5702 0.65162 0.0
C2741 C 0.38035 0.55285 0.65465 0.0
C2742 C 0.36751 0.55989 0.66978 0.0
C2743 C 0.35555 0.57774 0.66656 0.0
O2744 O 0.33223 0.59335 0.68844 0.0
O2745 O 0.34487 0.60682 0.68418 0.0
O2746 O 0.35982 0.58793 0.66916 0.0
O2747 O 0.34764 0.57416 0.6739 0.0
H2748 H 0.33324 0.59746 0.66304 0.0
H2749 H 0.32146 0.6057 0.64753 0.0
H2750 H 0.30585 0.62923 0.67202 0.0
H2751 H 0.3177 0.62091 0.68747 0.0
H2752 H 0.37849 0.60761 0.73362 0.0
H2753 H 0.3781 0.59957 0.71415 0.0
H2754 H 0.34711 0.58913 0.74187 0.0
H2755 H 0.34665 0.58119 0.72236 0.0
H2756 H 0.37814 0.54479 0.67143 0.0
H2757 H 0.38095 0.56361 0.63933 0.0
H2758 H 0.36645 0.57735 0.64608 0.0
H2759 H 0.36399 0.55894 0.67841 0.0
C2760 C 0.85861 0.07629 0.07412 0.0
C2761 C 0.85433 0.07719 0.08542 0.0
C2762 C 0.86817 0.06274 0.09195 0.0
C2763 C 0.85906 0.07046 0.09427 0.0
C2764 C 0.87225 0.06172 0.08053 0.0
C2765 C 0.86751 0.06846 0.0717 0.0
U2766 U 0.83876 0.10048 0.06475 0.0
O2767 O 0.84217 0.11569 0.05389 0.0
O2768 O 0.82882 0.10323 0.04876 0.0
C2769 C 0.83507 0.11224 0.04572 0.0
C2770 C 0.8542 0.0839 0.06498 0.0
C2771 C 0.83985 0.11227 0.03383 0.0
C2772 C 0.85189 0.12145 0.0192 0.0
C2773 C 0.84729 0.12122 0.03037 0.0
C2774 C 0.8415 0.10389 0.01458 0.0
C2775 C 0.84904 0.11279 0.01118 0.0
C2776 C 0.83695 0.10362 0.02579 0.0
C2777 C 0.81909 0.11402 0.08781 0.0
C2778 C 0.80183 0.12559 0.08467 0.0
C2779 C 0.81221 0.12701 0.10279 0.0
C2780 C 0.8202 0.11886 0.09885 0.0
C2781 C 0.80285 0.13034 0.09582 0.0
C2782 C 0.80989 0.11749 0.08069 0.0
C2783 C 0.82774 0.10554 0.08392 0.0
O2784 O 0.84335 0.08222 0.06204 0.0
O2785 O 0.85682 0.09486 0.06629 0.0
O2786 O 0.83793 0.10981 0.08131 0.0
O2787 O 0.82416 0.09762 0.07658 0.0
H2788 H 0.84747 0.08323 0.08743 0.0
H2789 H 0.8557 0.07145 0.10295 0.0
H2790 H 0.87923 0.05585 0.07845 0.0
H2791 H 0.87092 0.0677 0.06301 0.0
H2792 H 0.85761 0.12847 0.01685 0.0
H2793 H 0.84958 0.12808 0.03632 0.0
H2794 H 0.83911 0.0971 0.0086 0.0
H2795 H 0.83117 0.09664 0.02811 0.0
H2796 H 0.79479 0.12812 0.07905 0.0
H2797 H 0.81361 0.13094 0.11115 0.0
H2798 H 0.82735 0.11644 0.10439 0.0
H2799 H 0.80894 0.11398 0.07207 0.0
C2800 C 0.67419 0.10862 0.82412 0.0
C2801 C 0.67329 0.10434 0.83542 0.0
C2802 C 0.68774 0.11817 0.84195 0.0
C2803 C 0.68002 0.10906 0.84427 0.0
C2804 C 0.68876 0.12225 0.83054 0.0
C2805 C 0.68202 0.11751 0.8217 0.0
U2806 U 0.65 0.08876 0.81475 0.0
O2807 O 0.6348 0.09218 0.80389 0.0
O2808 O 0.64725 0.07883 0.79876 0.0
C2809 C 0.63824 0.08508 0.79572 0.0
C2810 C 0.66659 0.1042 0.81498 0.0
C2811 C 0.63821 0.08986 0.78383 0.0
C2812 C 0.62903 0.1019 0.76921 0.0
C2813 C 0.62926 0.0973 0.78037 0.0
C2814 C 0.64659 0.09151 0.76458 0.0
C2815 C 0.63769 0.09905 0.76118 0.0
C2816 C 0.64686 0.08697 0.77578 0.0
C2817 C 0.63646 0.0691 0.8378 0.0
C2818 C 0.62488 0.05184 0.83466 0.0
C2819 C 0.62347 0.06221 0.85279 0.0
C2820 C 0.63162 0.0702 0.84885 0.0
C2821 C 0.62014 0.05285 0.84581 0.0
C2822 C 0.63298 0.0599 0.83068 0.0
C2823 C 0.64494 0.07774 0.83391 0.0
O2824 O 0.66826 0.09336 0.81204 0.0
O2825 O 0.65562 0.10683 0.81629 0.0
O2826 O 0.64067 0.08794 0.83131 0.0
O2827 O 0.65286 0.07417 0.82657 0.0
H2828 H 0.66725 0.09747 0.83743 0.0
H2829 H 0.67903 0.1057 0.85295 0.0
H2830 H 0.69463 0.12924 0.82846 0.0
H2831 H 0.68278 0.12092 0.81301 0.0
H2832 H 0.62201 0.10762 0.76685 0.0
H2833 H 0.6224 0.09959 0.78632 0.0
H2834 H 0.65338 0.08913 0.75859 0.0
H2835 H 0.65384 0.08119 0.77811 0.0
H2836 H 0.62236 0.0448 0.82904 0.0
H2837 H 0.61954 0.06361 0.86114 0.0
H2838 H 0.63405 0.07735 0.85439 0.0
H2839 H 0.6365 0.05895 0.82206 0.0
C2840 C 0.8263 0.89186 0.32412 0.0
C2841 C 0.82719 0.89614 0.33542 0.0
C2842 C 0.81275 0.88231 0.34195 0.0
C2843 C 0.82047 0.89141 0.34427 0.0
C2844 C 0.81172 0.87822 0.33053 0.0
C2845 C 0.81847 0.88296 0.32169 0.0
U2846 U 0.85049 0.91171 0.31475 0.0
O2847 O 0.8657 0.90829 0.30389 0.0
O2848 O 0.85324 0.92165 0.29876 0.0
C2849 C 0.86225 0.9154 0.29572 0.0
C2850 C 0.8339 0.89627 0.31498 0.0
C2851 C 0.86228 0.91062 0.28383 0.0
C2852 C 0.87146 0.89858 0.2692 0.0
C2853 C 0.87123 0.90318 0.28037 0.0
C2854 C 0.8539 0.90896 0.26458 0.0
C2855 C 0.8628 0.90143 0.26118 0.0
C2856 C 0.85363 0.91351 0.27579 0.0
C2857 C 0.86403 0.93138 0.3378 0.0
C2858 C 0.87561 0.94863 0.33467 0.0
C2859 C 0.87702 0.93826 0.35279 0.0
C2860 C 0.86887 0.93027 0.34885 0.0
C2861 C 0.88035 0.94762 0.34582 0.0
C2862 C 0.86751 0.94058 0.33069 0.0
C2863 C 0.85555 0.92273 0.33391 0.0
O2864 O 0.83223 0.90712 0.31204 0.0
O2865 O 0.84487 0.89365 0.31629 0.0
O2866 O 0.85982 0.91254 0.33131 0.0
O2867 O 0.84763 0.92631 0.32658 0.0
H2868 H 0.83324 0.90301 0.33743 0.0
H2869 H 0.82146 0.89477 0.35295 0.0
H2870 H 0.80585 0.87124 0.32845 0.0
H2871 H 0.81771 0.87956 0.31301 0.0
H2872 H 0.87848 0.89286 0.26685 0.0
H2873 H 0.87809 0.9009 0.28632 0.0
H2874 H 0.84711 0.91135 0.2586 0.0
H2875 H 0.84665 0.91929 0.27811 0.0
H2876 H 0.87813 0.95568 0.32905 0.0
H2877 H 0.88095 0.93686 0.36114 0.0
H2878 H 0.86645 0.92312 0.35439 0.0
H2879 H 0.86399 0.94153 0.32206 0.0
C2880 C 0.4286 0.34713 0.05274 0.0
C2881 C 0.42007 0.33892 0.05013 0.0
C2882 C 0.40895 0.35341 0.03972 0.0
C2883 C 0.4104 0.342 0.04364 0.0
C2884 C 0.41763 0.36159 0.04212 0.0
C2885 C 0.42739 0.35846 0.04859 0.0
U2886 U 0.43859 0.3289 0.07742 0.0
O2887 O 0.45444 0.31897 0.08067 0.0
O2888 O 0.44913 0.33252 0.09283 0.0
C2889 C 0.4573 0.32525 0.0897 0.0
C2890 C 0.43813 0.34403 0.06059 0.0
C2891 C 0.46934 0.32961 0.0899 0.0
C2892 C 0.48966 0.32694 0.08515 0.0
C2893 C 0.47826 0.32299 0.08499 0.0
C2894 C 0.48357 0.3441 0.09545 0.0
C2895 C 0.49244 0.33756 0.09034 0.0
C2896 C 0.47214 0.34017 0.09524 0.0
C2897 C 0.41479 0.30855 0.08921 0.0
C2898 C 0.41282 0.29991 0.10826 0.0
C2899 C 0.40013 0.29399 0.09268 0.0
C2900 C 0.40578 0.30156 0.0852 0.0
C2901 C 0.40338 0.29328 0.10438 0.0
C2902 C 0.41848 0.30751 0.10072 0.0
C2903 C 0.41946 0.31741 0.0814 0.0
O2904 O 0.43641 0.34686 0.07146 0.0
O2905 O 0.44222 0.3335 0.05934 0.0
O2906 O 0.4273 0.31396 0.07395 0.0
O2907 O 0.42177 0.32751 0.08605 0.0
H2908 H 0.42071 0.33015 0.05337 0.0
H2909 H 0.4039 0.33547 0.04199 0.0
H2910 H 0.41675 0.37045 0.03924 0.0
H2911 H 0.43384 0.36494 0.05062 0.0
H2912 H 0.4963 0.32166 0.0812 0.0
H2913 H 0.47642 0.31473 0.08098 0.0
H2914 H 0.48543 0.35231 0.09954 0.0
H2915 H 0.46552 0.34543 0.09925 0.0
H2916 H 0.41555 0.29955 0.11721 0.0
H2917 H 0.39296 0.28897 0.08936 0.0
H2918 H 0.40283 0.30224 0.07633 0.0
H2919 H 0.42547 0.31282 0.10397 0.0
C2920 C 0.40335 0.6786 0.80273 0.0
C2921 C 0.41156 0.67007 0.80012 0.0
C2922 C 0.39707 0.65895 0.78971 0.0
C2923 C 0.40848 0.66041 0.79363 0.0
C2924 C 0.38889 0.66763 0.79211 0.0
C2925 C 0.39202 0.67739 0.79859 0.0
U2926 U 0.42157 0.68859 0.82741 0.0
O2927 O 0.43151 0.70444 0.83066 0.0
O2928 O 0.41795 0.69912 0.84282 0.0
C2929 C 0.42522 0.70729 0.83969 0.0
C2930 C 0.40645 0.68813 0.81058 0.0
C2931 C 0.42086 0.71933 0.8399 0.0
C2932 C 0.42353 0.73966 0.83514 0.0
C2933 C 0.42748 0.72825 0.83498 0.0
C2934 C 0.40638 0.73356 0.84545 0.0
C2935 C 0.41291 0.74244 0.84034 0.0
C2936 C 0.41031 0.72214 0.84524 0.0
C2937 C 0.44192 0.66478 0.8392 0.0
C2938 C 0.45057 0.66282 0.85826 0.0
C2939 C 0.45647 0.65012 0.84268 0.0
C2940 C 0.4489 0.65576 0.8352 0.0
C2941 C 0.45719 0.65338 0.85437 0.0
C2942 C 0.44297 0.66848 0.85072 0.0
C2943 C 0.43307 0.66946 0.83139 0.0
O2944 O 0.40362 0.68641 0.82145 0.0
O2945 O 0.41698 0.69222 0.80933 0.0
O2946 O 0.43652 0.6773 0.82394 0.0
O2947 O 0.42296 0.67176 0.83605 0.0
H2948 H 0.42033 0.67072 0.80335 0.0
H2949 H 0.41501 0.6539 0.79197 0.0
H2950 H 0.38002 0.66675 0.78924 0.0
H2951 H 0.38554 0.68384 0.80062 0.0
H2952 H 0.42881 0.7463 0.83119 0.0
H2953 H 0.43574 0.72641 0.83097 0.0
H2954 H 0.39817 0.73542 0.84955 0.0
H2955 H 0.40505 0.71552 0.84926 0.0
H2956 H 0.45093 0.66556 0.8672 0.0
H2957 H 0.46148 0.64295 0.83936 0.0
H2958 H 0.44822 0.65281 0.82633 0.0
H2959 H 0.43766 0.67548 0.85396 0.0
C2960 C 0.07187 0.65335 0.55274 0.0
C2961 C 0.0804 0.66156 0.55013 0.0
C2962 C 0.09152 0.64706 0.53972 0.0
C2963 C 0.09007 0.65847 0.54364 0.0
C2964 C 0.08284 0.63888 0.54212 0.0
C2965 C 0.07308 0.64202 0.5486 0.0
U2966 U 0.06188 0.67157 0.57742 0.0
O2967 O 0.04603 0.68151 0.58067 0.0
O2968 O 0.05135 0.66795 0.59283 0.0
C2969 C 0.04318 0.67523 0.5897 0.0
C2970 C 0.06234 0.65644 0.56059 0.0
C2971 C 0.03114 0.67086 0.5899 0.0
C2972 C 0.01081 0.67354 0.58515 0.0
C2973 C 0.02222 0.67749 0.58499 0.0
C2974 C 0.01691 0.65638 0.59545 0.0
C2975 C 0.00803 0.66292 0.59035 0.0
C2976 C 0.02833 0.66031 0.59524 0.0
C2977 C 0.08569 0.69192 0.58921 0.0
C2978 C 0.08765 0.70057 0.60826 0.0
C2979 C 0.10035 0.70648 0.59268 0.0
C2980 C 0.09471 0.69891 0.5852 0.0
C2981 C 0.09709 0.7072 0.60438 0.0
C2982 C 0.08199 0.69297 0.60072 0.0
C2983 C 0.08101 0.68306 0.5814 0.0
O2984 O 0.06406 0.65362 0.57146 0.0
O2985 O 0.05825 0.66698 0.55934 0.0
O2986 O 0.07317 0.68652 0.57395 0.0
O2987 O 0.07871 0.67296 0.58605 0.0
H2988 H 0.07975 0.67032 0.55336 0.0
H2989 H 0.09657 0.665 0.54198 0.0
H2990 H 0.08371 0.63002 0.53925 0.0
H2991 H 0.06663 0.63553 0.55062 0.0
H2992 H 0.00417 0.67882 0.5812 0.0
H2993 H 0.02406 0.68575 0.58098 0.0
H2994 H 0.01505 0.64817 0.59955 0.0
H2995 H 0.03495 0.65505 0.59926 0.0
H2996 H 0.08492 0.70094 0.6172 0.0
H2997 H 0.10752 0.71149 0.58936 0.0
H2998 H 0.09766 0.69823 0.57633 0.0
H2999 H 0.07499 0.68766 0.60396 0.0
C3000 C 0.09714 0.32187 0.30274 0.0
C3001 C 0.08893 0.3304 0.30012 0.0
C3002 C 0.10343 0.34151 0.28972 0.0
C3003 C 0.09201 0.34006 0.29362 0.0
C3004 C 0.11161 0.33284 0.29212 0.0
C3005 C 0.10847 0.32308 0.2986 0.0
U3006 U 0.07891 0.31188 0.32741 0.0
O3007 O 0.06897 0.29604 0.33066 0.0
O3008 O 0.08253 0.30135 0.34282 0.0
C3009 C 0.07526 0.29318 0.33969 0.0
C3010 C 0.09404 0.31233 0.31059 0.0
C3011 C 0.07961 0.28114 0.3399 0.0
C3012 C 0.07694 0.26081 0.33515 0.0
C3013 C 0.07299 0.27222 0.33499 0.0
C3014 C 0.0941 0.2669 0.34544 0.0
C3015 C 0.08755 0.25803 0.34034 0.0
C3016 C 0.09017 0.27833 0.34523 0.0
C3017 C 0.05857 0.33569 0.3392 0.0
C3018 C 0.04991 0.33765 0.35825 0.0
C3019 C 0.04402 0.35036 0.34268 0.0
C3020 C 0.05159 0.34472 0.33519 0.0
C3021 C 0.04329 0.3471 0.35437 0.0
C3022 C 0.05751 0.33199 0.35071 0.0
C3023 C 0.06742 0.33101 0.33139 0.0
O3024 O 0.09687 0.31406 0.32145 0.0
O3025 O 0.08351 0.30825 0.30934 0.0
O3026 O 0.06397 0.32317 0.32394 0.0
O3027 O 0.07753 0.32871 0.33605 0.0
H3028 H 0.08016 0.32975 0.30335 0.0
H3029 H 0.08549 0.34656 0.29197 0.0
H3030 H 0.12047 0.33372 0.28926 0.0
H3031 H 0.11496 0.31663 0.30063 0.0
H3032 H 0.07165 0.25417 0.3312 0.0
H3033 H 0.06472 0.27406 0.33099 0.0
H3034 H 0.10231 0.26504 0.34953 0.0
H3035 H 0.09544 0.28495 0.34924 0.0
H3036 H 0.04954 0.33491 0.36719 0.0
H3037 H 0.03901 0.35754 0.33936 0.0
H3038 H 0.05227 0.34767 0.32633 0.0
H3039 H 0.06281 0.32498 0.35395 0.0
C3040 C 0.42861 0.65334 0.44773 0.0
C3041 C 0.42008 0.66155 0.45035 0.0
C3042 C 0.40896 0.64705 0.46075 0.0
C3043 C 0.41041 0.65846 0.45684 0.0
C3044 C 0.41764 0.63887 0.45835 0.0
C3045 C 0.4274 0.642 0.45187 0.0
U3046 U 0.43859 0.67156 0.42306 0.0
O3047 O 0.45444 0.6815 0.41981 0.0
O3048 O 0.44913 0.66795 0.40765 0.0
C3049 C 0.4573 0.67522 0.41078 0.0
C3050 C 0.43814 0.65643 0.43988 0.0
C3051 C 0.46934 0.67086 0.41058 0.0
C3052 C 0.48966 0.67354 0.41532 0.0
C3053 C 0.47826 0.67749 0.41548 0.0
C3054 C 0.48357 0.65637 0.40503 0.0
C3055 C 0.49244 0.66292 0.41013 0.0
C3056 C 0.47214 0.6603 0.40524 0.0
C3057 C 0.41478 0.69191 0.41127 0.0
C3058 C 0.41283 0.70057 0.39222 0.0
C3059 C 0.40012 0.70646 0.40779 0.0
C3060 C 0.40576 0.69889 0.41528 0.0
C3061 C 0.40338 0.70719 0.3961 0.0
C3062 C 0.41849 0.69296 0.39976 0.0
C3063 C 0.41946 0.68305 0.41908 0.0
O3064 O 0.43642 0.65361 0.42902 0.0
O3065 O 0.44222 0.66697 0.44114 0.0
O3066 O 0.4273 0.68651 0.42653 0.0
O3067 O 0.42177 0.67295 0.41443 0.0
H3068 H 0.42073 0.67031 0.44712 0.0
H3069 H 0.40391 0.66499 0.4585 0.0
H3070 H 0.41676 0.63 0.46121 0.0
H3071 H 0.43384 0.63552 0.44984 0.0
H3072 H 0.4963 0.67883 0.41927 0.0
H3073 H 0.47642 0.68575 0.41949 0.0
H3074 H 0.48543 0.64817 0.40094 0.0
H3075 H 0.46552 0.65504 0.40123 0.0
H3076 H 0.41557 0.70094 0.38328 0.0
H3077 H 0.39294 0.71146 0.41111 0.0
H3078 H 0.4028 0.6982 0.42414 0.0
H3079 H 0.42549 0.68767 0.39652 0.0
C3080 C 0.09713 0.67861 0.19773 0.0
C3081 C 0.08892 0.67007 0.20034 0.0
C3082 C 0.10342 0.65896 0.21075 0.0
C3083 C 0.09201 0.66041 0.20683 0.0
C3084 C 0.1116 0.66764 0.20835 0.0
C3085 C 0.10846 0.6774 0.20187 0.0
U3086 U 0.07891 0.68859 0.17305 0.0
O3087 O 0.06897 0.70444 0.16981 0.0
O3088 O 0.08252 0.69913 0.15764 0.0
C3089 C 0.07525 0.7073 0.16077 0.0
C3090 C 0.09404 0.68814 0.18988 0.0
C3091 C 0.07961 0.71934 0.16057 0.0
C3092 C 0.07694 0.73967 0.16532 0.0
C3093 C 0.07299 0.72826 0.16548 0.0
C3094 C 0.0941 0.73357 0.15502 0.0
C3095 C 0.08755 0.74244 0.16013 0.0
C3096 C 0.09017 0.72214 0.15523 0.0
C3097 C 0.05856 0.66479 0.16126 0.0
C3098 C 0.04991 0.66282 0.14221 0.0
C3099 C 0.04399 0.65014 0.15779 0.0
C3100 C 0.05157 0.65578 0.16528 0.0
C3101 C 0.04328 0.65339 0.1461 0.0
C3102 C 0.05751 0.66849 0.14975 0.0
C3103 C 0.06741 0.66947 0.16907 0.0
O3104 O 0.09686 0.68642 0.17901 0.0
O3105 O 0.0835 0.69222 0.19113 0.0
O3106 O 0.06396 0.67731 0.17652 0.0
O3107 O 0.07752 0.67177 0.16442 0.0
H3108 H 0.08016 0.67072 0.1971 0.0
H3109 H 0.08548 0.65391 0.20848 0.0
H3110 H 0.12046 0.66676 0.21122 0.0
H3111 H 0.11494 0.68384 0.19985 0.0
H3112 H 0.07165 0.74631 0.16927 0.0
H3113 H 0.06473 0.72642 0.16949 0.0
H3114 H 0.10231 0.73543 0.15093 0.0
H3115 H 0.09543 0.71552 0.15122 0.0
H3116 H 0.04954 0.66555 0.13327 0.0
H3117 H 0.03898 0.64296 0.16111 0.0
H3118 H 0.05224 0.65283 0.17414 0.0
H3119 H 0.06282 0.67548 0.14651 0.0
C3120 C 0.07188 0.34712 0.94774 0.0
C3121 C 0.08041 0.33891 0.95036 0.0
C3122 C 0.09152 0.3534 0.96076 0.0
C3123 C 0.09007 0.34199 0.95685 0.0
C3124 C 0.08285 0.36159 0.95836 0.0
C3125 C 0.07308 0.35845 0.95189 0.0
U3126 U 0.06189 0.3289 0.92306 0.0
O3127 O 0.04604 0.31897 0.91981 0.0
O3128 O 0.05135 0.33252 0.90765 0.0
C3129 C 0.04318 0.32525 0.91078 0.0
C3130 C 0.06234 0.34403 0.93989 0.0
C3131 C 0.03114 0.32962 0.91058 0.0
C3132 C 0.01082 0.32695 0.91534 0.0
C3133 C 0.02222 0.323 0.9155 0.0
C3134 C 0.01691 0.3441 0.90502 0.0
C3135 C 0.00804 0.33756 0.91013 0.0
C3136 C 0.02834 0.34017 0.90523 0.0
C3137 C 0.08569 0.30856 0.91127 0.0
C3138 C 0.08765 0.29991 0.89221 0.0
C3139 C 0.10035 0.294 0.90779 0.0
C3140 C 0.09471 0.30157 0.91528 0.0
C3141 C 0.09709 0.29328 0.8961 0.0
C3142 C 0.08199 0.30751 0.89976 0.0
C3143 C 0.08102 0.31741 0.91908 0.0
O3144 O 0.06407 0.34686 0.92903 0.0
O3145 O 0.05826 0.33349 0.94114 0.0
O3146 O 0.07317 0.31396 0.92653 0.0
O3147 O 0.07871 0.32752 0.91443 0.0
H3148 H 0.07976 0.33015 0.94712 0.0
H3149 H 0.09657 0.33547 0.9585 0.0
H3150 H 0.08373 0.37045 0.96123 0.0
H3151 H 0.06664 0.36494 0.94986 0.0
H3152 H 0.00418 0.32167 0.91929 0.0
H3153 H 0.02406 0.31474 0.91951 0.0
H3154 H 0.01505 0.35231 0.90092 0.0
H3155 H 0.03496 0.34542 0.90121 0.0
H3156 H 0.08492 0.29954 0.88327 0.0
H3157 H 0.10753 0.28899 0.91111 0.0
H3158 H 0.09766 0.30225 0.92414 0.0
H3159 H 0.07499 0.31281 0.89652 0.0
C3160 C 0.40335 0.32187 0.69773 0.0
C3161 C 0.41156 0.33041 0.70033 0.0
C3162 C 0.39706 0.34152 0.71074 0.0
C3163 C 0.40847 0.34007 0.70683 0.0
C3164 C 0.38888 0.33284 0.70835 0.0
C3165 C 0.39202 0.32308 0.70187 0.0
U3166 U 0.42157 0.31189 0.67305 0.0
O3167 O 0.43151 0.29604 0.6698 0.0
O3168 O 0.41795 0.30135 0.65764 0.0
C3169 C 0.42522 0.29318 0.66077 0.0
C3170 C 0.40644 0.31234 0.68987 0.0
C3171 C 0.42086 0.28114 0.66057 0.0
C3172 C 0.42354 0.26081 0.66532 0.0
C3173 C 0.42749 0.27222 0.66548 0.0
C3174 C 0.40638 0.26691 0.65503 0.0
C3175 C 0.41292 0.25803 0.66013 0.0
C3176 C 0.4103 0.27833 0.65523 0.0
C3177 C 0.44192 0.33569 0.66126 0.0
C3178 C 0.45057 0.33766 0.6422 0.0
C3179 C 0.45648 0.35034 0.65778 0.0
C3180 C 0.44891 0.3447 0.66527 0.0
C3181 C 0.4572 0.34709 0.64609 0.0
C3182 C 0.44296 0.33199 0.64974 0.0
C3183 C 0.43306 0.33101 0.66907 0.0
O3184 O 0.40362 0.31406 0.67901 0.0
O3185 O 0.41698 0.30826 0.69113 0.0
O3186 O 0.43652 0.32317 0.67652 0.0
O3187 O 0.42296 0.32871 0.66441 0.0
H3188 H 0.42032 0.32976 0.6971 0.0
H3189 H 0.415 0.34658 0.70848 0.0
H3190 H 0.38002 0.33372 0.71122 0.0
H3191 H 0.38553 0.31664 0.69985 0.0
H3192 H 0.42883 0.25417 0.66927 0.0
H3193 H 0.43576 0.27406 0.66948 0.0
H3194 H 0.39817 0.26505 0.65093 0.0
H3195 H 0.40504 0.28495 0.65122 0.0
H3196 H 0.45093 0.33493 0.63326 0.0
H3197 H 0.46149 0.35752 0.66111 0.0
H3198 H 0.44823 0.34765 0.67414 0.0
H3199 H 0.43766 0.325 0.6465 0.0
C3200 C 0.05275 0.42861 0.34713 0.0
C3201 C 0.05013 0.42008 0.33892 0.0
C3202 C 0.03973 0.40896 0.35341 0.0
C3203 C 0.04364 0.41042 0.342 0.0
C3204 C 0.04213 0.41764 0.3616 0.0
C3205 C 0.04861 0.4274 0.35846 0.0
U3206 U 0.07743 0.43859 0.32891 0.0
O3207 O 0.08068 0.45444 0.31897 0.0
O3208 O 0.09284 0.44913 0.33252 0.0
C3209 C 0.08971 0.4573 0.32525 0.0
C3210 C 0.0606 0.43814 0.34403 0.0
C3211 C 0.08991 0.46934 0.32961 0.0
C3212 C 0.08516 0.48966 0.32693 0.0
C3213 C 0.085 0.47826 0.32298 0.0
C3214 C 0.09545 0.48357 0.3441 0.0
C3215 C 0.09035 0.49244 0.33755 0.0
C3216 C 0.09524 0.47214 0.34017 0.0
C3217 C 0.08922 0.41478 0.30856 0.0
C3218 C 0.10827 0.41283 0.29991 0.0
C3219 C 0.0927 0.40012 0.29401 0.0
C3220 C 0.08521 0.40576 0.30158 0.0
C3221 C 0.10439 0.40338 0.29329 0.0
C3222 C 0.10073 0.41849 0.30751 0.0
C3223 C 0.08141 0.41946 0.31742 0.0
O3224 O 0.07146 0.43642 0.34686 0.0
O3225 O 0.05935 0.44222 0.3335 0.0
O3226 O 0.07396 0.4273 0.31396 0.0
O3227 O 0.08606 0.42177 0.32752 0.0
H3228 H 0.05336 0.42073 0.33015 0.0
H3229 H 0.04198 0.40392 0.33547 0.0
H3230 H 0.03926 0.41676 0.37046 0.0
H3231 H 0.05064 0.43384 0.36495 0.0
H3232 H 0.08121 0.4963 0.32164 0.0
H3233 H 0.081 0.47642 0.31472 0.0
H3234 H 0.09954 0.48543 0.35231 0.0
H3235 H 0.09925 0.46552 0.34543 0.0
H3236 H 0.11721 0.41557 0.29954 0.0
H3237 H 0.08938 0.39294 0.28901 0.0
H3238 H 0.07635 0.4028 0.30227 0.0
H3239 H 0.10396 0.42549 0.31281 0.0
C3240 C 0.32187 0.30273 0.09712 0.0
C3241 C 0.33041 0.30012 0.08891 0.0
C3242 C 0.34152 0.28971 0.10341 0.0
C3243 C 0.34007 0.29363 0.092 0.0
C3244 C 0.33284 0.29211 0.11159 0.0
C3245 C 0.32308 0.29858 0.10845 0.0
U3246 U 0.31189 0.32741 0.0789 0.0
O3247 O 0.29604 0.33066 0.06896 0.0
O3248 O 0.30135 0.34282 0.08252 0.0
C3249 C 0.29318 0.33969 0.07525 0.0
C3250 C 0.31234 0.31058 0.09403 0.0
C3251 C 0.28114 0.33989 0.07961 0.0
C3252 C 0.26081 0.33514 0.07694 0.0
C3253 C 0.27222 0.33497 0.07299 0.0
C3254 C 0.26691 0.34544 0.0941 0.0
C3255 C 0.25804 0.34033 0.08756 0.0
C3256 C 0.27834 0.34524 0.09017 0.0
C3257 C 0.33569 0.3392 0.05855 0.0
C3258 C 0.33765 0.35826 0.0499 0.0
C3259 C 0.35034 0.34268 0.04399 0.0
C3260 C 0.3447 0.33519 0.05156 0.0
C3261 C 0.34709 0.35437 0.04327 0.0
C3262 C 0.33199 0.35071 0.0575 0.0
C3263 C 0.33101 0.33139 0.06741 0.0
O3264 O 0.31406 0.32145 0.09685 0.0
O3265 O 0.30826 0.30933 0.08349 0.0
O3266 O 0.32317 0.32394 0.06395 0.0
O3267 O 0.32871 0.33604 0.07751 0.0
H3268 H 0.32976 0.30336 0.08015 0.0
H3269 H 0.34658 0.29198 0.08547 0.0
H3270 H 0.33372 0.28924 0.12045 0.0
H3271 H 0.31664 0.30061 0.11494 0.0
H3272 H 0.25417 0.33118 0.07166 0.0
H3273 H 0.27406 0.33097 0.06473 0.0
H3274 H 0.26505 0.34955 0.1023 0.0
H3275 H 0.28496 0.34925 0.09542 0.0
H3276 H 0.33492 0.3672 0.04954 0.0
H3277 H 0.35752 0.33936 0.03898 0.0
H3278 H 0.34765 0.32633 0.05224 0.0
H3279 H 0.32499 0.35396 0.06281 0.0
C3280 C 0.44774 0.57187 0.84713 0.0
C3281 C 0.45035 0.5804 0.83892 0.0
C3282 C 0.46075 0.59152 0.85342 0.0
C3283 C 0.45684 0.59007 0.84201 0.0
C3284 C 0.45835 0.58284 0.8616 0.0
C3285 C 0.45188 0.57308 0.85846 0.0
U3286 U 0.42306 0.56188 0.82891 0.0
O3287 O 0.41981 0.54603 0.81897 0.0
O3288 O 0.40765 0.55135 0.83252 0.0
C3289 C 0.41078 0.54318 0.82525 0.0
C3290 C 0.43989 0.56234 0.84404 0.0
C3291 C 0.41058 0.53113 0.82961 0.0
C3292 C 0.41533 0.51081 0.82694 0.0
C3293 C 0.41549 0.52222 0.82299 0.0
C3294 C 0.40503 0.5169 0.8441 0.0
C3295 C 0.41014 0.50803 0.83755 0.0
C3296 C 0.40524 0.52833 0.84017 0.0
C3297 C 0.41127 0.58569 0.80856 0.0
C3298 C 0.39222 0.58765 0.79991 0.0
C3299 C 0.4078 0.60034 0.794 0.0
C3300 C 0.41528 0.5947 0.80157 0.0
C3301 C 0.3961 0.59709 0.79328 0.0
C3302 C 0.39976 0.58199 0.80751 0.0
C3303 C 0.41908 0.58101 0.81741 0.0
O3304 O 0.42902 0.56406 0.84686 0.0
O3305 O 0.44114 0.55825 0.8335 0.0
O3306 O 0.42653 0.57317 0.81396 0.0
O3307 O 0.41443 0.57871 0.82752 0.0
H3308 H 0.44711 0.57975 0.83016 0.0
H3309 H 0.45849 0.59657 0.83548 0.0
H3310 H 0.46122 0.58372 0.87046 0.0
H3311 H 0.44985 0.56663 0.86495 0.0
H3312 H 0.41928 0.50417 0.82165 0.0
H3313 H 0.41949 0.52405 0.81472 0.0
H3314 H 0.40094 0.51504 0.85231 0.0
H3315 H 0.40123 0.53495 0.84543 0.0
H3316 H 0.38328 0.58492 0.79954 0.0
H3317 H 0.41112 0.60752 0.78899 0.0
H3318 H 0.42415 0.59765 0.80225 0.0
H3319 H 0.39651 0.57499 0.81282 0.0
C3320 C 0.1786 0.69773 0.59713 0.0
C3321 C 0.17007 0.70035 0.58892 0.0
C3322 C 0.15895 0.71075 0.60341 0.0
C3323 C 0.1604 0.70684 0.592 0.0
C3324 C 0.16763 0.70836 0.61159 0.0
C3325 C 0.17739 0.70188 0.60846 0.0
U3326 U 0.18859 0.67305 0.5789 0.0
O3327 O 0.20444 0.66981 0.56897 0.0
O3328 O 0.19912 0.65765 0.58252 0.0
C3329 C 0.20729 0.66077 0.57525 0.0
C3330 C 0.18813 0.68988 0.59403 0.0
C3331 C 0.21933 0.66057 0.57961 0.0
C3332 C 0.23966 0.66532 0.57694 0.0
C3333 C 0.22825 0.66549 0.57299 0.0
C3334 C 0.23356 0.65502 0.5941 0.0
C3335 C 0.24244 0.66013 0.58756 0.0
C3336 C 0.22214 0.65523 0.59017 0.0
C3337 C 0.16478 0.66127 0.55855 0.0
C3338 C 0.16282 0.64221 0.5499 0.0
C3339 C 0.15012 0.65779 0.544 0.0
C3340 C 0.15577 0.66528 0.55157 0.0
C3341 C 0.15338 0.6461 0.54328 0.0
C3342 C 0.16848 0.64975 0.55751 0.0
C3343 C 0.16946 0.66908 0.56741 0.0
O3344 O 0.18641 0.67902 0.59686 0.0
O3345 O 0.19222 0.69113 0.5835 0.0
O3346 O 0.1773 0.67653 0.56396 0.0
O3347 O 0.17176 0.66442 0.57751 0.0
H3348 H 0.17072 0.69711 0.58015 0.0
H3349 H 0.1539 0.70849 0.58547 0.0
H3350 H 0.16676 0.71123 0.62045 0.0
H3351 H 0.18384 0.69985 0.61494 0.0
H3352 H 0.2463 0.66928 0.57166 0.0
H3353 H 0.22641 0.66949 0.56473 0.0
H3354 H 0.23542 0.65092 0.6023 0.0
H3355 H 0.21552 0.65121 0.59542 0.0
H3356 H 0.16555 0.63327 0.54954 0.0
H3357 H 0.14295 0.66111 0.53899 0.0
H3358 H 0.15281 0.67414 0.55225 0.0
H3359 H 0.17548 0.64651 0.56281 0.0
C3360 C 0.05274 0.57188 0.15335 0.0
C3361 C 0.05013 0.58041 0.16156 0.0
C3362 C 0.03972 0.59152 0.14707 0.0
C3363 C 0.04363 0.59007 0.15848 0.0
C3364 C 0.04211 0.58284 0.13889 0.0
C3365 C 0.04859 0.57308 0.14202 0.0
U3366 U 0.07742 0.56189 0.17157 0.0
O3367 O 0.08067 0.54604 0.18151 0.0
O3368 O 0.09283 0.55136 0.16795 0.0
C3369 C 0.0897 0.54318 0.17522 0.0
C3370 C 0.06059 0.56234 0.15644 0.0
C3371 C 0.0899 0.53114 0.17086 0.0
C3372 C 0.08515 0.51082 0.17353 0.0
C3373 C 0.08498 0.52223 0.17748 0.0
C3374 C 0.09546 0.51692 0.15637 0.0
C3375 C 0.09035 0.50804 0.16291 0.0
C3376 C 0.09525 0.52834 0.16031 0.0
C3377 C 0.08921 0.5857 0.19192 0.0
C3378 C 0.10826 0.58766 0.20057 0.0
C3379 C 0.09269 0.60035 0.20648 0.0
C3380 C 0.0852 0.59471 0.19891 0.0
C3381 C 0.10438 0.5971 0.20719 0.0
C3382 C 0.10072 0.582 0.19297 0.0
C3383 C 0.0814 0.58102 0.18307 0.0
O3384 O 0.07145 0.56407 0.15362 0.0
O3385 O 0.05934 0.55826 0.16698 0.0
O3386 O 0.07395 0.57318 0.18652 0.0
O3387 O 0.08605 0.57871 0.17296 0.0
H3388 H 0.05336 0.57976 0.17032 0.0
H3389 H 0.04198 0.59658 0.165 0.0
H3390 H 0.03924 0.58372 0.13002 0.0
H3391 H 0.05062 0.56664 0.13554 0.0
H3392 H 0.08119 0.50418 0.17881 0.0
H3393 H 0.08097 0.52406 0.18574 0.0
H3394 H 0.09956 0.51506 0.14817 0.0
H3395 H 0.09927 0.53496 0.15505 0.0
H3396 H 0.1172 0.58492 0.20093 0.0
H3397 H 0.08937 0.60753 0.21149 0.0
H3398 H 0.07633 0.59766 0.19823 0.0
H3399 H 0.10396 0.575 0.18766 0.0
C3400 C 0.17861 0.30274 0.90334 0.0
C3401 C 0.17007 0.30013 0.91155 0.0
C3402 C 0.15896 0.28972 0.89705 0.0
C3403 C 0.16041 0.29364 0.90846 0.0
C3404 C 0.16764 0.29212 0.88887 0.0
C3405 C 0.1774 0.2986 0.89201 0.0
U3406 U 0.18859 0.32742 0.92156 0.0
O3407 O 0.20444 0.33066 0.9315 0.0
O3408 O 0.19913 0.34282 0.91795 0.0
C3409 C 0.2073 0.33969 0.92522 0.0
C3410 C 0.18814 0.31059 0.90643 0.0
C3411 C 0.21934 0.3399 0.92086 0.0
C3412 C 0.23967 0.33515 0.92353 0.0
C3413 C 0.22826 0.33498 0.92748 0.0
C3414 C 0.23357 0.34544 0.90637 0.0
C3415 C 0.24244 0.34034 0.91291 0.0
C3416 C 0.22214 0.34523 0.9103 0.0
C3417 C 0.16479 0.3392 0.94192 0.0
C3418 C 0.16282 0.35826 0.95057 0.0
C3419 C 0.15014 0.34268 0.95648 0.0
C3420 C 0.15578 0.33519 0.9489 0.0
C3421 C 0.15339 0.35437 0.95719 0.0
C3422 C 0.16849 0.35072 0.94296 0.0
C3423 C 0.16947 0.3314 0.93306 0.0
O3424 O 0.18642 0.32146 0.90361 0.0
O3425 O 0.19222 0.30934 0.91697 0.0
O3426 O 0.17731 0.32394 0.93651 0.0
O3427 O 0.17177 0.33605 0.92296 0.0
H3428 H 0.17072 0.30336 0.92031 0.0
H3429 H 0.15391 0.29198 0.91499 0.0
H3430 H 0.16676 0.28925 0.88001 0.0
H3431 H 0.18384 0.30062 0.88552 0.0
H3432 H 0.24631 0.33119 0.92882 0.0
H3433 H 0.22642 0.33098 0.93575 0.0
H3434 H 0.23543 0.34954 0.89816 0.0
H3435 H 0.21552 0.34925 0.90504 0.0
H3436 H 0.16556 0.3672 0.95093 0.0
H3437 H 0.14296 0.33936 0.96149 0.0
H3438 H 0.15283 0.32633 0.94823 0.0
H3439 H 0.17548 0.35396 0.93765 0.0
C3440 C 0.44774 0.4286 0.65335 0.0
C3441 C 0.45035 0.42007 0.66155 0.0
C3442 C 0.46076 0.40895 0.64706 0.0
C3443 C 0.45684 0.4104 0.65847 0.0
C3444 C 0.45836 0.41763 0.63888 0.0
C3445 C 0.45189 0.4274 0.64201 0.0
U3446 U 0.42306 0.43859 0.67157 0.0
O3447 O 0.41982 0.45444 0.68151 0.0
O3448 O 0.40766 0.44913 0.66795 0.0
C3449 C 0.41079 0.4573 0.67522 0.0
C3450 C 0.43989 0.43814 0.65644 0.0
C3451 C 0.41058 0.46934 0.67086 0.0
C3452 C 0.41534 0.48966 0.67353 0.0
C3453 C 0.4155 0.47826 0.67748 0.0
C3454 C 0.40504 0.48357 0.65637 0.0
C3455 C 0.41014 0.49244 0.66292 0.0
C3456 C 0.40524 0.47214 0.6603 0.0
C3457 C 0.41127 0.41478 0.69192 0.0
C3458 C 0.39222 0.41282 0.70057 0.0
C3459 C 0.4078 0.40013 0.70647 0.0
C3460 C 0.41528 0.40577 0.6989 0.0
C3461 C 0.3961 0.40338 0.70719 0.0
C3462 C 0.39976 0.41849 0.69296 0.0
C3463 C 0.41908 0.41946 0.68306 0.0
O3464 O 0.42903 0.43641 0.65361 0.0
O3465 O 0.44114 0.44222 0.66698 0.0
O3466 O 0.42653 0.4273 0.68651 0.0
O3467 O 0.41443 0.42177 0.67296 0.0
H3468 H 0.44712 0.42072 0.67032 0.0
H3469 H 0.45849 0.4039 0.665 0.0
H3470 H 0.46124 0.41676 0.63002 0.0
H3471 H 0.44986 0.43384 0.63553 0.0
H3472 H 0.41929 0.4963 0.67882 0.0
H3473 H 0.4195 0.47642 0.68575 0.0
H3474 H 0.40094 0.48543 0.64817 0.0
H3475 H 0.40123 0.46552 0.65505 0.0
H3476 H 0.38328 0.41556 0.70093 0.0
H3477 H 0.41112 0.39295 0.71148 0.0
H3478 H 0.42415 0.40282 0.69822 0.0
H3479 H 0.39652 0.42548 0.68766 0.0
C3480 C 0.32187 0.69773 0.40334 0.0
C3481 C 0.3304 0.70035 0.41155 0.0
C3482 C 0.34152 0.71075 0.39706 0.0
C3483 C 0.34006 0.70684 0.40847 0.0
C3484 C 0.33284 0.70835 0.38888 0.0
C3485 C 0.32308 0.70187 0.39201 0.0
U3486 U 0.31188 0.67305 0.42157 0.0
O3487 O 0.29604 0.6698 0.43151 0.0
O3488 O 0.30135 0.65764 0.41795 0.0
C3489 C 0.29318 0.66077 0.42522 0.0
C3490 C 0.31234 0.68988 0.40644 0.0
C3491 C 0.28114 0.66057 0.42086 0.0
C3492 C 0.26081 0.66532 0.42354 0.0
C3493 C 0.27222 0.66547 0.42749 0.0
C3494 C 0.2669 0.65503 0.40637 0.0
C3495 C 0.25803 0.66013 0.41292 0.0
C3496 C 0.27833 0.65524 0.4103 0.0
C3497 C 0.33569 0.66126 0.44191 0.0
C3498 C 0.33765 0.64221 0.45057 0.0
C3499 C 0.35036 0.65778 0.45646 0.0
C3500 C 0.34472 0.66527 0.44889 0.0
C3501 C 0.34709 0.64609 0.45718 0.0
C3502 C 0.33199 0.64975 0.44296 0.0
C3503 C 0.33101 0.66907 0.43306 0.0
O3504 O 0.31406 0.67901 0.40361 0.0
O3505 O 0.30825 0.69113 0.41698 0.0
O3506 O 0.32317 0.67652 0.43651 0.0
O3507 O 0.32871 0.66442 0.42295 0.0
H3508 H 0.32975 0.69711 0.42032 0.0
H3509 H 0.34656 0.70849 0.415 0.0
H3510 H 0.33372 0.71121 0.38001 0.0
H3511 H 0.31663 0.69984 0.38553 0.0
H3512 H 0.25417 0.66926 0.42883 0.0
H3513 H 0.27406 0.66947 0.43576 0.0
H3514 H 0.26504 0.65094 0.39816 0.0
H3515 H 0.28495 0.65123 0.40504 0.0
H3516 H 0.33491 0.63327 0.45093 0.0
H3517 H 0.35754 0.6611 0.46147 0.0
H3518 H 0.34767 0.67413 0.44821 0.0
H3519 H 0.32498 0.64651 0.43766 0.0
C3520 C 0.34712 0.05274 0.4286 0.0
C3521 C 0.33891 0.05013 0.42007 0.0
C3522 C 0.35341 0.03973 0.40895 0.0
C3523 C 0.342 0.04364 0.4104 0.0
C3524 C 0.36159 0.04212 0.41763 0.0
C3525 C 0.35846 0.0486 0.42739 0.0
U3526 U 0.3289 0.07742 0.43859 0.0
O3527 O 0.31896 0.08067 0.45444 0.0
O3528 O 0.33252 0.09283 0.44912 0.0
C3529 C 0.32525 0.0897 0.4573 0.0
C3530 C 0.34403 0.0606 0.43813 0.0
C3531 C 0.32961 0.0899 0.46934 0.0
C3532 C 0.32693 0.08515 0.48966 0.0
C3533 C 0.32298 0.08499 0.47825 0.0
C3534 C 0.3441 0.09545 0.48357 0.0
C3535 C 0.33755 0.09035 0.49244 0.0
C3536 C 0.34017 0.09524 0.47214 0.0
C3537 C 0.30855 0.08921 0.41478 0.0
C3538 C 0.29991 0.10827 0.41282 0.0
C3539 C 0.294 0.09269 0.40013 0.0
C3540 C 0.30157 0.08521 0.40577 0.0
C3541 C 0.29328 0.10438 0.40338 0.0
C3542 C 0.30751 0.10073 0.41848 0.0
C3543 C 0.31741 0.08141 0.41946 0.0
O3544 O 0.34686 0.07146 0.43641 0.0
O3545 O 0.33349 0.05934 0.44222 0.0
O3546 O 0.31396 0.07396 0.4273 0.0
O3547 O 0.32751 0.08606 0.42177 0.0
H3548 H 0.33015 0.05337 0.42072 0.0
H3549 H 0.33547 0.04199 0.4039 0.0
H3550 H 0.37045 0.03925 0.41675 0.0
H3551 H 0.36494 0.05062 0.43384 0.0
H3552 H 0.32165 0.0812 0.4963 0.0
H3553 H 0.31472 0.08099 0.47642 0.0
H3554 H 0.35231 0.09954 0.48543 0.0
H3555 H 0.34543 0.09925 0.46552 0.0
H3556 H 0.29954 0.11721 0.41555 0.0
H3557 H 0.28899 0.08937 0.39295 0.0
H3558 H 0.30225 0.07634 0.40282 0.0
H3559 H 0.31281 0.10397 0.42548 0.0
C3560 C 0.84713 0.44774 0.57187 0.0
C3561 C 0.83892 0.45035 0.5804 0.0
C3562 C 0.85341 0.46076 0.59152 0.0
C3563 C 0.842 0.45685 0.59006 0.0
C3564 C 0.86159 0.45836 0.58284 0.0
C3565 C 0.85846 0.45188 0.57308 0.0
U3566 U 0.8289 0.42306 0.56188 0.0
O3567 O 0.81897 0.41981 0.54603 0.0
O3568 O 0.83252 0.40765 0.55135 0.0
C3569 C 0.82525 0.41078 0.54318 0.0
C3570 C 0.84403 0.43989 0.56234 0.0
C3571 C 0.82961 0.41058 0.53113 0.0
C3572 C 0.82694 0.41533 0.51081 0.0
C3573 C 0.82299 0.41549 0.52222 0.0
C3574 C 0.8441 0.40502 0.51691 0.0
C3575 C 0.83756 0.41013 0.50803 0.0
C3576 C 0.84017 0.40523 0.52833 0.0
C3577 C 0.80856 0.41127 0.58569 0.0
C3578 C 0.7999 0.39222 0.58765 0.0
C3579 C 0.794 0.4078 0.60035 0.0
C3580 C 0.80157 0.41528 0.59471 0.0
C3581 C 0.79328 0.3961 0.59709 0.0
C3582 C 0.80751 0.39976 0.58199 0.0
C3583 C 0.81741 0.41908 0.58101 0.0
O3584 O 0.84686 0.42902 0.56406 0.0
O3585 O 0.8335 0.44114 0.55825 0.0
O3586 O 0.81396 0.42653 0.57317 0.0
O3587 O 0.82752 0.41443 0.57871 0.0
H3588 H 0.83015 0.44712 0.57975 0.0
H3589 H 0.83547 0.4585 0.59656 0.0
H3590 H 0.87046 0.46123 0.58372 0.0
H3591 H 0.86494 0.44986 0.56663 0.0
H3592 H 0.82166 0.41929 0.50417 0.0
H3593 H 0.81473 0.4195 0.52405 0.0
H3594 H 0.8523 0.40092 0.51505 0.0
H3595 H 0.84543 0.40122 0.53495 0.0
H3596 H 0.79954 0.38328 0.58492 0.0
H3597 H 0.78899 0.41112 0.60752 0.0
H3598 H 0.80225 0.42415 0.59766 0.0
H3599 H 0.81281 0.39652 0.57499 0.0
C3600 C 0.30274 0.09713 0.32187 0.0
C3601 C 0.30012 0.08893 0.33041 0.0
C3602 C 0.28972 0.10342 0.34152 0.0
C3603 C 0.29363 0.09201 0.34007 0.0
C3604 C 0.29212 0.1116 0.33284 0.0
C3605 C 0.29859 0.10847 0.32308 0.0
U3606 U 0.32741 0.07891 0.31188 0.0
O3607 O 0.33066 0.06897 0.29604 0.0
O3608 O 0.34282 0.08253 0.30135 0.0
C3609 C 0.33969 0.07526 0.29318 0.0
C3610 C 0.31059 0.09404 0.31234 0.0
C3611 C 0.33989 0.07962 0.28113 0.0
C3612 C 0.33514 0.07694 0.26081 0.0
C3613 C 0.33498 0.07299 0.27222 0.0
C3614 C 0.34544 0.0941 0.2669 0.0
C3615 C 0.34033 0.08756 0.25803 0.0
C3616 C 0.34523 0.09017 0.27833 0.0
C3617 C 0.3392 0.05856 0.33569 0.0
C3618 C 0.35826 0.04991 0.33765 0.0
C3619 C 0.34268 0.044 0.35034 0.0
C3620 C 0.33519 0.05157 0.3447 0.0
C3621 C 0.35437 0.04328 0.34709 0.0
C3622 C 0.35072 0.05751 0.33199 0.0
C3623 C 0.33139 0.06742 0.33101 0.0
O3624 O 0.32145 0.09687 0.31406 0.0
O3625 O 0.30933 0.0835 0.30826 0.0
O3626 O 0.32394 0.06397 0.32317 0.0
O3627 O 0.33605 0.07752 0.32871 0.0
H3628 H 0.30336 0.08016 0.32976 0.0
H3629 H 0.29198 0.08548 0.34657 0.0
H3630 H 0.28925 0.12046 0.33372 0.0
H3631 H 0.30062 0.11495 0.31663 0.0
H3632 H 0.33119 0.07166 0.25417 0.0
H3633 H 0.33098 0.06473 0.27406 0.0
H3634 H 0.34953 0.10231 0.26504 0.0
H3635 H 0.34924 0.09543 0.28495 0.0
H3636 H 0.3672 0.04955 0.33492 0.0
H3637 H 0.33936 0.03899 0.35752 0.0
H3638 H 0.32633 0.05225 0.34765 0.0
H3639 H 0.35396 0.06282 0.32499 0.0
C3640 C 0.65335 0.55274 0.07187 0.0
C3641 C 0.66156 0.55013 0.0804 0.0
C3642 C 0.64707 0.53972 0.09152 0.0
C3643 C 0.65848 0.54364 0.09007 0.0
C3644 C 0.63888 0.54212 0.08284 0.0
C3645 C 0.64202 0.5486 0.07307 0.0
U3646 U 0.67157 0.57742 0.06188 0.0
O3647 O 0.68151 0.58067 0.04603 0.0
O3648 O 0.66796 0.59283 0.05135 0.0
C3649 C 0.67523 0.5897 0.04318 0.0
C3650 C 0.65644 0.56059 0.06234 0.0
C3651 C 0.67087 0.5899 0.03113 0.0
C3652 C 0.67354 0.58515 0.01081 0.0
C3653 C 0.67749 0.58499 0.02222 0.0
C3654 C 0.65638 0.59545 0.0169 0.0
C3655 C 0.66292 0.59035 0.00803 0.0
C3656 C 0.66031 0.59524 0.02833 0.0
C3657 C 0.69192 0.58921 0.08569 0.0
C3658 C 0.70057 0.60826 0.08765 0.0
C3659 C 0.70648 0.59268 0.10035 0.0
C3660 C 0.69891 0.5852 0.09471 0.0
C3661 C 0.7072 0.60438 0.09709 0.0
C3662 C 0.69297 0.60072 0.08199 0.0
C3663 C 0.68307 0.5814 0.08101 0.0
O3664 O 0.65362 0.57146 0.06406 0.0
O3665 O 0.66698 0.55934 0.05825 0.0
O3666 O 0.68652 0.57395 0.07317 0.0
O3667 O 0.67296 0.58605 0.07871 0.0
H3668 H 0.67032 0.55336 0.07975 0.0
H3669 H 0.665 0.54198 0.09657 0.0
H3670 H 0.63002 0.53925 0.08371 0.0
H3671 H 0.63554 0.55062 0.06663 0.0
H3672 H 0.67883 0.5812 0.00417 0.0
H3673 H 0.68575 0.58099 0.02405 0.0
H3674 H 0.64817 0.59955 0.01504 0.0
H3675 H 0.65505 0.59925 0.03495 0.0
H3676 H 0.70094 0.6172 0.08492 0.0
H3677 H 0.71149 0.58936 0.10752 0.0
H3678 H 0.69823 0.57633 0.09766 0.0
H3679 H 0.68766 0.60396 0.07499 0.0
C3680 C 0.69773 0.40335 0.32187 0.0
C3681 C 0.70034 0.41156 0.33041 0.0
C3682 C 0.71075 0.39707 0.34152 0.0
C3683 C 0.70683 0.40848 0.34007 0.0
C3684 C 0.70835 0.38889 0.33284 0.0
C3685 C 0.70188 0.39202 0.32308 0.0
U3686 U 0.67305 0.42157 0.31188 0.0
O3687 O 0.66981 0.43151 0.29603 0.0
O3688 O 0.65765 0.41796 0.30135 0.0
C3689 C 0.66078 0.42523 0.29318 0.0
C3690 C 0.68988 0.40644 0.31234 0.0
C3691 C 0.66058 0.42086 0.28113 0.0
C3692 C 0.66533 0.42354 0.26081 0.0
C3693 C 0.66549 0.42749 0.27222 0.0
C3694 C 0.65503 0.40638 0.2669 0.0
C3695 C 0.66013 0.41292 0.25803 0.0
C3696 C 0.65524 0.41031 0.27833 0.0
C3697 C 0.66126 0.44192 0.33569 0.0
C3698 C 0.64221 0.45057 0.33765 0.0
C3699 C 0.65779 0.45648 0.35034 0.0
C3700 C 0.66527 0.44891 0.3447 0.0
C3701 C 0.64609 0.4572 0.34709 0.0
C3702 C 0.64975 0.44297 0.33199 0.0
C3703 C 0.66907 0.43307 0.33101 0.0
O3704 O 0.67902 0.40362 0.31406 0.0
O3705 O 0.69113 0.41698 0.30826 0.0
O3706 O 0.67652 0.43652 0.32317 0.0
O3707 O 0.66442 0.42296 0.32871 0.0
H3708 H 0.6971 0.42032 0.32976 0.0
H3709 H 0.70848 0.415 0.34657 0.0
H3710 H 0.71123 0.38002 0.33372 0.0
H3711 H 0.69986 0.38554 0.31663 0.0
H3712 H 0.66928 0.42882 0.25417 0.0
H3713 H 0.66949 0.43575 0.27405 0.0
H3714 H 0.65093 0.39817 0.26504 0.0
H3715 H 0.65122 0.40505 0.28495 0.0
H3716 H 0.63327 0.45093 0.33492 0.0
H3717 H 0.66111 0.4615 0.35752 0.0
H3718 H 0.67414 0.44823 0.34765 0.0
H3719 H 0.64651 0.43766 0.32499 0.0
C3720 C 0.15334 0.94774 0.9286 0.0
C3721 C 0.16155 0.95035 0.92007 0.0
C3722 C 0.14706 0.96076 0.90895 0.0
C3723 C 0.15847 0.95684 0.9104 0.0
C3724 C 0.13888 0.95836 0.91763 0.0
C3725 C 0.14201 0.95189 0.92739 0.0
U3726 U 0.17157 0.92306 0.93859 0.0
O3727 O 0.18151 0.91982 0.95444 0.0
O3728 O 0.16795 0.90766 0.94912 0.0
C3729 C 0.17522 0.91079 0.9573 0.0
C3730 C 0.15644 0.93989 0.93813 0.0
C3731 C 0.17086 0.91058 0.96934 0.0
C3732 C 0.17354 0.91534 0.98966 0.0
C3733 C 0.17749 0.9155 0.97825 0.0
C3734 C 0.15637 0.90504 0.98357 0.0
C3735 C 0.16292 0.91014 0.99244 0.0
C3736 C 0.1603 0.90525 0.97214 0.0
C3737 C 0.19192 0.91127 0.91478 0.0
C3738 C 0.20057 0.89222 0.91282 0.0
C3739 C 0.20648 0.9078 0.90013 0.0
C3740 C 0.19891 0.91528 0.90577 0.0
C3741 C 0.20719 0.8961 0.90338 0.0
C3742 C 0.19296 0.89976 0.91848 0.0
C3743 C 0.18306 0.91908 0.91946 0.0
O3744 O 0.15361 0.92903 0.93641 0.0
O3745 O 0.16698 0.94114 0.94222 0.0
O3746 O 0.18651 0.92653 0.9273 0.0
O3747 O 0.17296 0.91443 0.92177 0.0
H3748 H 0.17032 0.94712 0.92071 0.0
H3749 H 0.165 0.95849 0.9039 0.0
H3750 H 0.13002 0.96123 0.91675 0.0
H3751 H 0.13553 0.94986 0.93384 0.0
H3752 H 0.17882 0.91929 0.9963 0.0
H3753 H 0.18575 0.9195 0.97642 0.0
H3754 H 0.14817 0.90094 0.98543 0.0
H3755 H 0.15504 0.90123 0.96552 0.0
H3756 H 0.20093 0.88328 0.91555 0.0
H3757 H 0.21149 0.91112 0.89295 0.0
H3758 H 0.19823 0.92415 0.90282 0.0
H3759 H 0.18766 0.89652 0.92548 0.0
C3760 C 0.30274 0.90335 0.1786 0.0
C3761 C 0.30012 0.91156 0.17007 0.0
C3762 C 0.28972 0.89707 0.15895 0.0
C3763 C 0.29363 0.90848 0.16041 0.0
C3764 C 0.29212 0.88888 0.16763 0.0
C3765 C 0.29859 0.89202 0.17739 0.0
U3766 U 0.32742 0.92157 0.18859 0.0
O3767 O 0.33067 0.93151 0.20444 0.0
O3768 O 0.34283 0.91795 0.19912 0.0
C3769 C 0.3397 0.92522 0.20729 0.0
C3770 C 0.31059 0.90644 0.18813 0.0
C3771 C 0.3399 0.92086 0.21934 0.0
C3772 C 0.33515 0.92353 0.23966 0.0
C3773 C 0.33498 0.92749 0.22825 0.0
C3774 C 0.34545 0.90638 0.23357 0.0
C3775 C 0.34034 0.91292 0.24244 0.0
C3776 C 0.34524 0.91031 0.22214 0.0
C3777 C 0.33921 0.94192 0.16478 0.0
C3778 C 0.35826 0.95057 0.16282 0.0
C3779 C 0.34268 0.95648 0.15012 0.0
C3780 C 0.3352 0.9489 0.15576 0.0
C3781 C 0.35437 0.9572 0.15338 0.0
C3782 C 0.35072 0.94297 0.16848 0.0
C3783 C 0.3314 0.93306 0.16946 0.0
O3784 O 0.32145 0.90362 0.18641 0.0
O3785 O 0.30934 0.91698 0.19222 0.0
O3786 O 0.32395 0.93652 0.1773 0.0
O3787 O 0.33605 0.92296 0.17176 0.0
H3788 H 0.30336 0.92032 0.17072 0.0
H3789 H 0.29198 0.915 0.15391 0.0
H3790 H 0.28925 0.88002 0.16675 0.0
H3791 H 0.30062 0.88553 0.18384 0.0
H3792 H 0.33119 0.92882 0.2463 0.0
H3793 H 0.33098 0.93575 0.22642 0.0
H3794 H 0.34955 0.89817 0.23543 0.0
H3795 H 0.34926 0.90505 0.21552 0.0
H3796 H 0.3672 0.95094 0.16556 0.0
H3797 H 0.33936 0.96148 0.14295 0.0
H3798 H 0.32633 0.94822 0.15281 0.0
H3799 H 0.35396 0.93766 0.17548 0.0
C3800 C 0.19774 0.09713 0.6786 0.0
C3801 C 0.20035 0.08892 0.67007 0.0
C3802 C 0.21076 0.10341 0.65895 0.0
C3803 C 0.20684 0.092 0.6604 0.0
C3804 C 0.20836 0.11159 0.66763 0.0
C3805 C 0.20188 0.10846 0.6774 0.0
U3806 U 0.17306 0.0789 0.68859 0.0
O3807 O 0.16981 0.06897 0.70444 0.0
O3808 O 0.15765 0.08252 0.69912 0.0
C3809 C 0.16078 0.07525 0.7073 0.0
C3810 C 0.18988 0.09403 0.68813 0.0
C3811 C 0.16058 0.07961 0.71934 0.0
C3812 C 0.16533 0.07694 0.73966 0.0
C3813 C 0.16549 0.07299 0.72825 0.0
C3814 C 0.15503 0.0941 0.73357 0.0
C3815 C 0.16013 0.08756 0.74244 0.0
C3816 C 0.15524 0.09017 0.72214 0.0
C3817 C 0.16127 0.05856 0.66478 0.0
C3818 C 0.14221 0.04991 0.66282 0.0
C3819 C 0.15779 0.044 0.65013 0.0
C3820 C 0.16528 0.05157 0.65577 0.0
C3821 C 0.1461 0.04328 0.65338 0.0
C3822 C 0.14976 0.05751 0.66848 0.0
C3823 C 0.16908 0.06741 0.66946 0.0
O3824 O 0.17902 0.09686 0.68641 0.0
O3825 O 0.19114 0.0835 0.69222 0.0
O3826 O 0.17653 0.06396 0.6773 0.0
O3827 O 0.16442 0.07752 0.67177 0.0
H3828 H 0.19711 0.08016 0.67072 0.0
H3829 H 0.20849 0.08548 0.6539 0.0
H3830 H 0.21123 0.12046 0.66676 0.0
H3831 H 0.19986 0.11494 0.68384 0.0
H3832 H 0.16928 0.07165 0.7463 0.0
H3833 H 0.16949 0.06473 0.72642 0.0
H3834 H 0.15093 0.10231 0.73543 0.0
H3835 H 0.15122 0.09543 0.71552 0.0
H3836 H 0.13327 0.04954 0.66555 0.0
H3837 H 0.16111 0.03899 0.64295 0.0
H3838 H 0.17414 0.05225 0.65282 0.0
H3839 H 0.14651 0.06282 0.67548 0.0
O3840 O 0.09268 0.2108 0.35461 0.0
Cd3841 Cd 0.10024 0.22342 0.33943 0.0
O3842 O 0.11057 0.2084 0.36025 0.0
Cd3843 Cd 0.12463 0.20179 0.37108 0.0
O3844 O 0.13866 0.19298 0.38013 0.0
C3845 C 0.14904 0.19437 0.37684 0.0
O3846 O 0.15117 0.20135 0.36814 0.0
C3847 C 0.09989 0.20598 0.36135 0.0
C3848 C 0.09184 0.24598 0.34025 0.0
O3849 O 0.08642 0.23805 0.33473 0.0
O3850 O 0.10118 0.2432 0.34553 0.0
O3851 O 0.03967 0.84269 0.60462 0.0
Cd3852 Cd 0.02705 0.85025 0.58944 0.0
O3853 O 0.04207 0.86057 0.61026 0.0
Cd3854 Cd 0.04868 0.87463 0.62108 0.0
O3855 O 0.05749 0.88866 0.63013 0.0
C3856 C 0.0561 0.89905 0.62684 0.0
O3857 O 0.04912 0.90118 0.61814 0.0
C3858 C 0.04449 0.84989 0.61135 0.0
C3859 C 0.00449 0.84185 0.59026 0.0
O3860 O 0.01242 0.83643 0.58473 0.0
O3861 O 0.00727 0.85118 0.59553 0.0
O3862 O 0.40778 0.78967 0.85462 0.0
Cd3863 Cd 0.40022 0.77705 0.83944 0.0
O3864 O 0.3899 0.79207 0.86026 0.0
Cd3865 Cd 0.37584 0.79868 0.87108 0.0
O3866 O 0.36181 0.80749 0.88013 0.0
C3867 C 0.35142 0.80611 0.87684 0.0
O3868 O 0.34929 0.79912 0.86814 0.0
C3869 C 0.40058 0.79449 0.86135 0.0
C3870 C 0.40862 0.75449 0.84026 0.0
O3871 O 0.41404 0.76241 0.83473 0.0
O3872 O 0.39929 0.75727 0.84554 0.0
O3873 O 0.4608 0.1578 0.10462 0.0
Cd3874 Cd 0.47342 0.15023 0.08944 0.0
O3875 O 0.4584 0.13991 0.11026 0.0
Cd3876 Cd 0.45179 0.12585 0.12109 0.0
O3877 O 0.44298 0.11182 0.13014 0.0
C3878 C 0.44436 0.10143 0.12684 0.0
O3879 O 0.45134 0.0993 0.11814 0.0
C3880 C 0.45598 0.15059 0.11135 0.0
C3881 C 0.49598 0.15863 0.09026 0.0
O3882 O 0.48805 0.16405 0.08474 0.0
O3883 O 0.4932 0.1493 0.09554 0.0
O3884 O 0.09268 0.78968 0.14585 0.0
Cd3885 Cd 0.10024 0.77706 0.16103 0.0
O3886 O 0.11057 0.79208 0.14021 0.0
Cd3887 Cd 0.12463 0.79869 0.12938 0.0
O3888 O 0.13866 0.8075 0.12033 0.0
C3889 C 0.14904 0.80611 0.12363 0.0
O3890 O 0.15117 0.79913 0.13233 0.0
C3891 C 0.09989 0.7945 0.13912 0.0
C3892 C 0.09184 0.7545 0.16021 0.0
O3893 O 0.08642 0.76242 0.16573 0.0
O3894 O 0.10118 0.75728 0.15493 0.0
O3895 O 0.46081 0.84269 0.39586 0.0
Cd3896 Cd 0.47343 0.85026 0.41103 0.0
O3897 O 0.4584 0.86058 0.39022 0.0
Cd3898 Cd 0.4518 0.87464 0.37939 0.0
O3899 O 0.44298 0.88867 0.37034 0.0
C3900 C 0.44437 0.89905 0.37364 0.0
O3901 O 0.45135 0.90118 0.38233 0.0
C3902 C 0.45599 0.8499 0.38913 0.0
C3903 C 0.49599 0.84185 0.41022 0.0
O3904 O 0.48806 0.83644 0.41574 0.0
O3905 O 0.49321 0.85119 0.40494 0.0
O3906 O 0.4078 0.2108 0.64585 0.0
Cd3907 Cd 0.40024 0.22342 0.66103 0.0
O3908 O 0.38991 0.2084 0.64021 0.0
Cd3909 Cd 0.37585 0.2018 0.62939 0.0
O3910 O 0.36182 0.19299 0.62033 0.0
C3911 C 0.35143 0.19437 0.62363 0.0
O3912 O 0.3493 0.20135 0.63233 0.0
C3913 C 0.40059 0.20598 0.63912 0.0
C3914 C 0.40863 0.24598 0.66021 0.0
O3915 O 0.41406 0.23805 0.66573 0.0
O3916 O 0.3993 0.2432 0.65494 0.0
O3917 O 0.03967 0.15779 0.89586 0.0
Cd3918 Cd 0.02706 0.15023 0.91104 0.0
O3919 O 0.04208 0.13991 0.89022 0.0
Cd3920 Cd 0.04868 0.12585 0.87939 0.0
O3921 O 0.05749 0.11182 0.87034 0.0
C3922 C 0.05611 0.10143 0.87364 0.0
O3923 O 0.04913 0.0993 0.88233 0.0
C3924 C 0.04449 0.15059 0.88912 0.0
C3925 C 0.00449 0.15863 0.91022 0.0
O3926 O 0.01242 0.16405 0.91574 0.0
O3927 O 0.00728 0.1493 0.90494 0.0
O3928 O 0.35461 0.09269 0.2108 0.0
Cd3929 Cd 0.33943 0.10025 0.22342 0.0
O3930 O 0.36025 0.11057 0.2084 0.0
Cd3931 Cd 0.37108 0.12464 0.20179 0.0
O3932 O 0.38013 0.13866 0.19298 0.0
C3933 C 0.37683 0.14905 0.19437 0.0
O3934 O 0.36813 0.15118 0.20135 0.0
C3935 C 0.36134 0.09989 0.20598 0.0
C3936 C 0.34025 0.09185 0.24598 0.0
O3937 O 0.33473 0.08643 0.23805 0.0
O3938 O 0.34553 0.10118 0.2432 0.0
O3939 O 0.15779 0.10462 0.4608 0.0
Cd3940 Cd 0.15023 0.08944 0.47342 0.0
O3941 O 0.1399 0.11026 0.4584 0.0
Cd3942 Cd 0.12584 0.12109 0.45179 0.0
O3943 O 0.11182 0.13014 0.44298 0.0
C3944 C 0.10143 0.12684 0.44437 0.0
O3945 O 0.0993 0.11814 0.45135 0.0
C3946 C 0.15058 0.11136 0.45598 0.0
C3947 C 0.15863 0.09026 0.49598 0.0
O3948 O 0.16405 0.08474 0.48806 0.0
O3949 O 0.1493 0.09554 0.4932 0.0
O3950 O 0.14585 0.90779 0.7108 0.0
Cd3951 Cd 0.16103 0.90023 0.72342 0.0
O3952 O 0.14021 0.88991 0.7084 0.0
Cd3953 Cd 0.12939 0.87584 0.70179 0.0
O3954 O 0.12034 0.86182 0.69298 0.0
C3955 C 0.12363 0.85143 0.69437 0.0
O3956 O 0.13233 0.8493 0.70135 0.0
C3957 C 0.13912 0.90058 0.70598 0.0
C3958 C 0.16021 0.90863 0.74598 0.0
O3959 O 0.16574 0.91405 0.73805 0.0
O3960 O 0.15494 0.8993 0.7432 0.0
O3961 O 0.34268 0.89585 0.9608 0.0
Cd3962 Cd 0.35025 0.91103 0.97342 0.0
O3963 O 0.36057 0.89022 0.95839 0.0
Cd3964 Cd 0.37463 0.87939 0.95179 0.0
O3965 O 0.38866 0.87034 0.94297 0.0
C3966 C 0.39904 0.87364 0.94436 0.0
O3967 O 0.40118 0.88234 0.95134 0.0
C3968 C 0.34989 0.88912 0.95598 0.0
C3969 C 0.34185 0.91022 0.99598 0.0
O3970 O 0.33643 0.91574 0.98805 0.0
O3971 O 0.35118 0.90494 0.9932 0.0
O3972 O 0.35462 0.90779 0.28967 0.0
Cd3973 Cd 0.33944 0.90023 0.27705 0.0
O3974 O 0.36026 0.8899 0.29208 0.0
Cd3975 Cd 0.37109 0.87584 0.29868 0.0
O3976 O 0.38014 0.86182 0.3075 0.0
C3977 C 0.37684 0.85143 0.30611 0.0
O3978 O 0.36814 0.8493 0.29913 0.0
C3979 C 0.36135 0.90058 0.29449 0.0
C3980 C 0.34026 0.90863 0.25449 0.0
O3981 O 0.33474 0.91405 0.26242 0.0
O3982 O 0.34554 0.89929 0.25727 0.0
O3983 O 0.34268 0.10462 0.53967 0.0
Cd3984 Cd 0.35024 0.08944 0.52705 0.0
O3985 O 0.36057 0.11026 0.54207 0.0
Cd3986 Cd 0.37463 0.12109 0.54867 0.0
O3987 O 0.38866 0.13014 0.55749 0.0
C3988 C 0.39904 0.12684 0.5561 0.0
O3989 O 0.40117 0.11814 0.54912 0.0
C3990 C 0.34989 0.11135 0.54449 0.0
C3991 C 0.34184 0.09026 0.50449 0.0
O3992 O 0.33642 0.08474 0.51242 0.0
O3993 O 0.35118 0.09554 0.50727 0.0
O3994 O 0.14585 0.09268 0.78967 0.0
Cd3995 Cd 0.16103 0.10025 0.77705 0.0
O3996 O 0.14021 0.11057 0.79207 0.0
Cd3997 Cd 0.12939 0.12463 0.79868 0.0
O3998 O 0.12034 0.13866 0.80749 0.0
C3999 C 0.12363 0.14905 0.80611 0.0
O4000 O 0.13233 0.15118 0.79912 0.0
C4001 C 0.13912 0.09989 0.79449 0.0
C4002 C 0.16021 0.09184 0.75449 0.0
O4003 O 0.16574 0.08643 0.76242 0.0
O4004 O 0.15494 0.10118 0.75727 0.0
O4005 O 0.15779 0.89587 0.03967 0.0
Cd4006 Cd 0.15023 0.91105 0.02705 0.0
O4007 O 0.1399 0.89023 0.04207 0.0
Cd4008 Cd 0.12584 0.8794 0.04868 0.0
O4009 O 0.11181 0.87035 0.05749 0.0
C4010 C 0.10143 0.87364 0.0561 0.0
O4011 O 0.0993 0.88234 0.04912 0.0
C4012 C 0.15058 0.88913 0.04449 0.0
C4013 C 0.15863 0.91023 0.00449 0.0
O4014 O 0.16405 0.91575 0.01242 0.0
O4015 O 0.14929 0.90495 0.00727 0.0
O4016 O 0.21081 0.35461 0.09269 0.0
Cd4017 Cd 0.22342 0.33943 0.10025 0.0
O4018 O 0.2084 0.36025 0.11057 0.0
Cd4019 Cd 0.2018 0.37108 0.12463 0.0
O4020 O 0.19298 0.38013 0.13866 0.0
C4021 C 0.19437 0.37684 0.14904 0.0
O4022 O 0.20135 0.36814 0.15118 0.0
C4023 C 0.20598 0.36135 0.09989 0.0
C4024 C 0.24599 0.34025 0.09185 0.0
O4025 O 0.23806 0.33473 0.08643 0.0
O4026 O 0.2432 0.34553 0.10118 0.0
O4027 O 0.7108 0.14585 0.9078 0.0
Cd4028 Cd 0.72342 0.16104 0.90024 0.0
O4029 O 0.7084 0.14022 0.88991 0.0
Cd4030 Cd 0.7018 0.12939 0.87585 0.0
O4031 O 0.69299 0.12034 0.86182 0.0
C4032 C 0.69437 0.12364 0.85143 0.0
O4033 O 0.70135 0.13234 0.8493 0.0
C4034 C 0.70598 0.13912 0.90059 0.0
C4035 C 0.74598 0.16021 0.90864 0.0
O4036 O 0.73805 0.16573 0.91406 0.0
O4037 O 0.74319 0.15494 0.8993 0.0
O4038 O 0.10463 0.46081 0.15778 0.0
Cd4039 Cd 0.08945 0.47343 0.15022 0.0
O4040 O 0.11027 0.4584 0.13989 0.0
Cd4041 Cd 0.12109 0.4518 0.12583 0.0
O4042 O 0.13014 0.44298 0.11181 0.0
C4043 C 0.12685 0.44437 0.10142 0.0
O4044 O 0.11815 0.45135 0.09929 0.0
C4045 C 0.11136 0.45599 0.15057 0.0
C4046 C 0.09027 0.49599 0.15862 0.0
O4047 O 0.08474 0.48806 0.16404 0.0
O4048 O 0.09555 0.49321 0.14929 0.0
O4049 O 0.78968 0.85462 0.40779 0.0
Cd4050 Cd 0.77706 0.83944 0.40023 0.0
O4051 O 0.79208 0.86026 0.3899 0.0
Cd4052 Cd 0.79869 0.87108 0.37584 0.0
O4053 O 0.8075 0.88013 0.36181 0.0
C4054 C 0.80611 0.87684 0.35143 0.0
O4055 O 0.79913 0.86814 0.3493 0.0
C4056 C 0.7945 0.86135 0.40058 0.0
C4057 C 0.7545 0.84026 0.40863 0.0
O4058 O 0.76242 0.83473 0.41405 0.0
O4059 O 0.75728 0.84553 0.39929 0.0
O4060 O 0.89586 0.03967 0.15779 0.0
Cd4061 Cd 0.91104 0.02705 0.15022 0.0
O4062 O 0.89022 0.04208 0.1399 0.0
Cd4063 Cd 0.8794 0.04868 0.12584 0.0
O4064 O 0.87034 0.05749 0.11181 0.0
C4065 C 0.87364 0.05611 0.10143 0.0
O4066 O 0.88234 0.04913 0.0993 0.0
C4067 C 0.88913 0.04449 0.15058 0.0
C4068 C 0.91023 0.00449 0.15863 0.0
O4069 O 0.91575 0.01242 0.16404 0.0
O4070 O 0.90495 0.00728 0.14929 0.0
O4071 O 0.28967 0.64585 0.59269 0.0
Cd4072 Cd 0.27705 0.66103 0.60025 0.0
O4073 O 0.29207 0.64021 0.61057 0.0
Cd4074 Cd 0.29868 0.62938 0.62463 0.0
O4075 O 0.30749 0.62033 0.63866 0.0
C4076 C 0.30611 0.62363 0.64905 0.0
O4077 O 0.29913 0.63233 0.65118 0.0
C4078 C 0.29449 0.63912 0.59989 0.0
C4079 C 0.25449 0.66021 0.59185 0.0
O4080 O 0.26241 0.66573 0.58643 0.0
O4081 O 0.25727 0.65493 0.60118 0.0
O4082 O 0.10463 0.53967 0.34267 0.0
Cd4083 Cd 0.08944 0.52706 0.35023 0.0
O4084 O 0.11026 0.54208 0.36056 0.0
Cd4085 Cd 0.12109 0.54868 0.37463 0.0
O4086 O 0.13014 0.55749 0.38865 0.0
C4087 C 0.12684 0.5561 0.39904 0.0
O4088 O 0.11814 0.54912 0.40117 0.0
C4089 C 0.11136 0.5445 0.34988 0.0
C4090 C 0.09027 0.50449 0.34184 0.0
O4091 O 0.08474 0.51242 0.33641 0.0
O4092 O 0.09554 0.50728 0.35117 0.0
O4093 O 0.39586 0.4608 0.84268 0.0
Cd4094 Cd 0.41104 0.47342 0.85024 0.0
O4095 O 0.39022 0.4584 0.86057 0.0
Cd4096 Cd 0.3794 0.45179 0.87463 0.0
O4097 O 0.37034 0.44298 0.88866 0.0
C4098 C 0.37364 0.44436 0.89904 0.0
O4099 O 0.38234 0.45134 0.90117 0.0
C4100 C 0.38913 0.45598 0.84989 0.0
C4101 C 0.41022 0.49598 0.84184 0.0
O4102 O 0.41574 0.48805 0.83642 0.0
O4103 O 0.40494 0.4932 0.85118 0.0
O4104 O 0.89911 0.7855 0.6231 0.0
Cd4105 Cd 0.8878 0.77362 0.63641 0.0
O4106 O 0.88676 0.78217 0.60903 0.0
Cd4107 Cd 0.87246 0.77548 0.61936 0.0
O4108 O 0.8545 0.78097 0.61711 0.0
C4109 C 0.85242 0.78386 0.60671 0.0
O4110 O 0.86064 0.7825 0.599 0.0
C4111 C 0.89627 0.78642 0.61253 0.0
C4112 C 0.89663 0.75116 0.63734 0.0
O4113 O 0.88905 0.75404 0.62979 0.0
O4114 O 0.89998 0.7589 0.64453 0.0
O4115 O 0.96498 0.14912 0.3731 0.0
Cd4116 Cd 0.97685 0.13781 0.38641 0.0
O4117 O 0.9683 0.13676 0.35903 0.0
Cd4118 Cd 0.97499 0.12246 0.36937 0.0
O4119 O 0.9695 0.1045 0.36712 0.0
C4120 C 0.96661 0.10242 0.35672 0.0
O4121 O 0.96797 0.11064 0.349 0.0
C4122 C 0.96405 0.14627 0.36253 0.0
C4123 C 0.99931 0.14664 0.38734 0.0
O4124 O 0.99644 0.13906 0.37979 0.0
O4125 O 0.99158 0.14999 0.39453 0.0
O4126 O 0.60136 0.21498 0.1231 0.0
Cd4127 Cd 0.61267 0.22686 0.13641 0.0
O4128 O 0.61371 0.2183 0.10903 0.0
Cd4129 Cd 0.62801 0.22499 0.11936 0.0
O4130 O 0.64598 0.2195 0.11711 0.0
C4131 C 0.64805 0.21661 0.10672 0.0
O4132 O 0.63983 0.21798 0.099 0.0
C4133 C 0.6042 0.21405 0.11253 0.0
C4134 C 0.60384 0.24932 0.13734 0.0
O4135 O 0.61142 0.24644 0.12979 0.0
O4136 O 0.60049 0.24158 0.14453 0.0
O4137 O 0.5355 0.85135 0.87309 0.0
Cd4138 Cd 0.52362 0.86266 0.88641 0.0
O4139 O 0.5322 0.86372 0.85903 0.0
Cd4140 Cd 0.5255 0.87802 0.86937 0.0
O4141 O 0.53099 0.89598 0.86712 0.0
C4142 C 0.53387 0.89806 0.85672 0.0
O4143 O 0.5325 0.88984 0.849 0.0
C4144 C 0.53644 0.8542 0.86253 0.0
C4145 C 0.50116 0.85383 0.88733 0.0
O4146 O 0.50403 0.86141 0.87979 0.0
O4147 O 0.50889 0.85048 0.89452 0.0
O4148 O 0.89912 0.21498 0.87738 0.0
Cd4149 Cd 0.88782 0.22686 0.86407 0.0
O4150 O 0.88675 0.21828 0.89144 0.0
Cd4151 Cd 0.87246 0.22498 0.8811 0.0
O4152 O 0.8545 0.21949 0.88335 0.0
C4153 C 0.85241 0.21661 0.89375 0.0
O4154 O 0.86063 0.21797 0.90147 0.0
C4155 C 0.89627 0.21404 0.88794 0.0
C4156 C 0.89664 0.24932 0.86314 0.0
O4157 O 0.88906 0.24644 0.87069 0.0
O4158 O 0.9 0.24158 0.85595 0.0
O4159 O 0.5355 0.14911 0.62737 0.0
Cd4160 Cd 0.52362 0.1378 0.61406 0.0
O4161 O 0.53217 0.13676 0.64144 0.0
Cd4162 Cd 0.52548 0.12246 0.63111 0.0
O4163 O 0.53097 0.1045 0.63336 0.0
C4164 C 0.53386 0.10242 0.64376 0.0
O4165 O 0.5325 0.11065 0.65148 0.0
C4166 C 0.53642 0.14627 0.63794 0.0
C4167 C 0.50116 0.14663 0.61313 0.0
O4168 O 0.50403 0.13905 0.62068 0.0
O4169 O 0.50889 0.14998 0.60594 0.0
O4170 O 0.60136 0.7855 0.37737 0.0
Cd4171 Cd 0.61267 0.77362 0.36406 0.0
O4172 O 0.61372 0.78218 0.39144 0.0
Cd4173 Cd 0.62801 0.77549 0.3811 0.0
O4174 O 0.64598 0.78098 0.38335 0.0
C4175 C 0.64806 0.78386 0.39375 0.0
O4176 O 0.63984 0.7825 0.40147 0.0
C4177 C 0.6042 0.78643 0.38794 0.0
C4178 C 0.60384 0.75116 0.36313 0.0
O4179 O 0.61142 0.75403 0.37068 0.0
O4180 O 0.60049 0.7589 0.35594 0.0
O4181 O 0.96498 0.85136 0.12737 0.0
Cd4182 Cd 0.97686 0.86267 0.11405 0.0
O4183 O 0.96831 0.86371 0.14144 0.0
Cd4184 Cd 0.975 0.87801 0.13111 0.0
O4185 O 0.96951 0.89598 0.13336 0.0
C4186 C 0.96662 0.89805 0.14375 0.0
O4187 O 0.96798 0.88983 0.15147 0.0
C4188 C 0.96405 0.8542 0.13794 0.0
C4189 C 0.99931 0.85385 0.11313 0.0
O4190 O 0.99644 0.86142 0.12068 0.0
O4191 O 0.99158 0.8505 0.10594 0.0
O4192 O 0.62311 0.89912 0.7855 0.0
Cd4193 Cd 0.63642 0.88781 0.77361 0.0
O4194 O 0.60905 0.88676 0.78219 0.0
Cd4195 Cd 0.61938 0.87246 0.77549 0.0
O4196 O 0.61713 0.8545 0.78098 0.0
C4197 C 0.60673 0.85241 0.78386 0.0
O4198 O 0.59901 0.86063 0.78249 0.0
C4199 C 0.61254 0.89627 0.78643 0.0
C4200 C 0.63735 0.89664 0.75116 0.0
O4201 O 0.6298 0.88906 0.75403 0.0
O4202 O 0.64454 0.9 0.75889 0.0
O4203 O 0.85136 0.8731 0.5355 0.0
Cd4204 Cd 0.86267 0.88641 0.52362 0.0
O4205 O 0.86371 0.85903 0.53217 0.0
Cd4206 Cd 0.87801 0.86936 0.52548 0.0
O4207 O 0.89597 0.86711 0.53097 0.0
C4208 C 0.89805 0.85671 0.53386 0.0
O4209 O 0.88983 0.849 0.5325 0.0
C4210 C 0.8542 0.86253 0.53642 0.0
C4211 C 0.85384 0.88734 0.50116 0.0
O4212 O 0.86142 0.87979 0.50403 0.0
O4213 O 0.85049 0.89453 0.50889 0.0
O4214 O 0.87738 0.10136 0.2855 0.0
Cd4215 Cd 0.86407 0.11267 0.27361 0.0
O4216 O 0.89145 0.11371 0.28217 0.0
Cd4217 Cd 0.88112 0.12801 0.27547 0.0
O4218 O 0.88337 0.14597 0.28097 0.0
C4219 C 0.89377 0.14805 0.28385 0.0
O4220 O 0.90148 0.13983 0.28249 0.0
C4221 C 0.88795 0.1042 0.28642 0.0
C4222 C 0.86314 0.10384 0.25116 0.0
O4223 O 0.87069 0.11142 0.25403 0.0
O4224 O 0.85595 0.10049 0.25889 0.0
O4225 O 0.64911 0.12737 0.0355 0.0
Cd4226 Cd 0.6378 0.11406 0.02362 0.0
O4227 O 0.63675 0.14144 0.03218 0.0
Cd4228 Cd 0.62246 0.13111 0.02548 0.0
O4229 O 0.60449 0.13336 0.03098 0.0
C4230 C 0.60241 0.14376 0.03386 0.0
O4231 O 0.61064 0.15147 0.0325 0.0
C4232 C 0.64627 0.13794 0.03643 0.0
C4233 C 0.64663 0.11313 0.00116 0.0
O4234 O 0.63905 0.12068 0.00403 0.0
O4235 O 0.64998 0.10594 0.00889 0.0
O4236 O 0.6231 0.10137 0.71498 0.0
Cd4237 Cd 0.63642 0.11267 0.72685 0.0
O4238 O 0.60904 0.11372 0.7183 0.0
Cd4239 Cd 0.61937 0.12802 0.72499 0.0
O4240 O 0.61712 0.14598 0.71949 0.0
C4241 C 0.60672 0.14806 0.71661 0.0
O4242 O 0.599 0.13984 0.71797 0.0
C4243 C 0.61254 0.10421 0.71405 0.0
C4244 C 0.63735 0.10385 0.74931 0.0
O4245 O 0.6298 0.11143 0.74644 0.0
O4246 O 0.64454 0.10049 0.74158 0.0
O4247 O 0.64912 0.8731 0.46497 0.0
Cd4248 Cd 0.63781 0.88641 0.47686 0.0
O4249 O 0.63677 0.85903 0.4683 0.0
Cd4250 Cd 0.62247 0.86936 0.475 0.0
O4251 O 0.6045 0.86711 0.46951 0.0
C4252 C 0.60242 0.85671 0.46662 0.0
O4253 O 0.61064 0.84899 0.46798 0.0
C4254 C 0.64628 0.86253 0.46405 0.0
C4255 C 0.64664 0.88733 0.49931 0.0
O4256 O 0.63906 0.87978 0.49644 0.0
O4257 O 0.64999 0.89452 0.49158 0.0
O4258 O 0.87738 0.89912 0.21498 0.0
Cd4259 Cd 0.86407 0.88781 0.22685 0.0
O4260 O 0.89145 0.88676 0.2183 0.0
Cd4261 Cd 0.88112 0.87246 0.22499 0.0
O4262 O 0.88337 0.8545 0.2195 0.0
C4263 C 0.89376 0.85242 0.21661 0.0
O4264 O 0.90148 0.86065 0.21797 0.0
C4265 C 0.88795 0.89627 0.21405 0.0
C4266 C 0.86314 0.89663 0.24931 0.0
O4267 O 0.87069 0.88905 0.24644 0.0
O4268 O 0.85595 0.89999 0.24158 0.0
O4269 O 0.85135 0.12736 0.96497 0.0
Cd4270 Cd 0.86266 0.11405 0.97685 0.0
O4271 O 0.86372 0.14143 0.96828 0.0
Cd4272 Cd 0.87802 0.13109 0.97498 0.0
O4273 O 0.89598 0.13334 0.96949 0.0
C4274 C 0.89806 0.14374 0.96661 0.0
O4275 O 0.88984 0.15146 0.96798 0.0
C4276 C 0.8542 0.13793 0.96404 0.0
C4277 C 0.85383 0.11313 0.99931 0.0
O4278 O 0.86141 0.12067 0.99644 0.0
O4279 O 0.85048 0.10594 0.99158 0.0
O4280 O 0.7855 0.62311 0.89911 0.0
Cd4281 Cd 0.77362 0.63642 0.8878 0.0
O4282 O 0.78217 0.60904 0.88676 0.0
Cd4283 Cd 0.77547 0.61937 0.87246 0.0
O4284 O 0.78097 0.61712 0.8545 0.0
C4285 C 0.78386 0.60672 0.85242 0.0
O4286 O 0.78249 0.599 0.86064 0.0
C4287 C 0.78642 0.61254 0.89627 0.0
C4288 C 0.75116 0.63735 0.89663 0.0
O4289 O 0.75403 0.6298 0.88905 0.0
O4290 O 0.75889 0.64454 0.89998 0.0
O4291 O 0.2855 0.87738 0.10136 0.0
Cd4292 Cd 0.27362 0.86407 0.11267 0.0
O4293 O 0.28218 0.89145 0.11371 0.0
Cd4294 Cd 0.27548 0.88111 0.12801 0.0
O4295 O 0.28097 0.88336 0.14597 0.0
C4296 C 0.28386 0.89376 0.14805 0.0
O4297 O 0.2825 0.90148 0.13983 0.0
C4298 C 0.28643 0.88795 0.1042 0.0
C4299 C 0.25116 0.86314 0.10384 0.0
O4300 O 0.25403 0.87069 0.11142 0.0
O4301 O 0.25889 0.85595 0.10049 0.0
O4302 O 0.8731 0.5355 0.85136 0.0
Cd4303 Cd 0.88641 0.52362 0.86267 0.0
O4304 O 0.85903 0.53217 0.86371 0.0
Cd4305 Cd 0.86936 0.52548 0.87801 0.0
O4306 O 0.86711 0.53098 0.89597 0.0
C4307 C 0.85671 0.53387 0.89805 0.0
O4308 O 0.84899 0.53251 0.88983 0.0
C4309 C 0.86253 0.53643 0.8542 0.0
C4310 C 0.88734 0.50116 0.85384 0.0
O4311 O 0.87979 0.50404 0.86142 0.0
O4312 O 0.89452 0.5089 0.85049 0.0
O4313 O 0.21498 0.1231 0.60136 0.0
Cd4314 Cd 0.22686 0.13641 0.61267 0.0
O4315 O 0.2183 0.10903 0.61371 0.0
Cd4316 Cd 0.225 0.11937 0.62801 0.0
O4317 O 0.2195 0.11711 0.64598 0.0
C4318 C 0.21661 0.10672 0.64806 0.0
O4319 O 0.21798 0.099 0.63983 0.0
C4320 C 0.21405 0.11253 0.6042 0.0
C4321 C 0.24932 0.13734 0.60384 0.0
O4322 O 0.24644 0.12979 0.61142 0.0
O4323 O 0.24158 0.14453 0.60049 0.0
O4324 O 0.12737 0.96498 0.85136 0.0
Cd4325 Cd 0.11406 0.97686 0.86267 0.0
O4326 O 0.14144 0.9683 0.86371 0.0
Cd4327 Cd 0.13111 0.975 0.87801 0.0
O4328 O 0.13336 0.96951 0.89597 0.0
C4329 C 0.14375 0.96662 0.89805 0.0
O4330 O 0.15147 0.96798 0.88983 0.0
C4331 C 0.13794 0.96405 0.8542 0.0
C4332 C 0.11313 0.99932 0.85384 0.0
O4333 O 0.12068 0.99644 0.86142 0.0
O4334 O 0.10594 0.99158 0.85049 0.0
O4335 O 0.71497 0.37738 0.39911 0.0
Cd4336 Cd 0.72685 0.36407 0.3878 0.0
O4337 O 0.7183 0.39145 0.38676 0.0
Cd4338 Cd 0.72499 0.38112 0.37246 0.0
O4339 O 0.7195 0.38337 0.3545 0.0
C4340 C 0.71661 0.39376 0.35242 0.0
O4341 O 0.71797 0.40148 0.36064 0.0
C4342 C 0.71405 0.38795 0.39627 0.0
C4343 C 0.74931 0.36314 0.39663 0.0
O4344 O 0.74644 0.37069 0.38905 0.0
O4345 O 0.74158 0.35595 0.39998 0.0
O4346 O 0.8731 0.46498 0.64911 0.0
Cd4347 Cd 0.88641 0.47686 0.63781 0.0
O4348 O 0.85903 0.4683 0.63676 0.0
Cd4349 Cd 0.86936 0.47499 0.62246 0.0
O4350 O 0.86711 0.4695 0.6045 0.0
C4351 C 0.85671 0.46662 0.60242 0.0
O4352 O 0.849 0.46798 0.61064 0.0
C4353 C 0.86253 0.46405 0.64627 0.0
C4354 C 0.88733 0.49932 0.64663 0.0
O4355 O 0.87978 0.49645 0.63906 0.0
O4356 O 0.89452 0.49159 0.64999 0.0
O4357 O 0.62738 0.5355 0.14911 0.0
Cd4358 Cd 0.61406 0.52362 0.1378 0.0
O4359 O 0.64144 0.53218 0.13676 0.0
Cd4360 Cd 0.63111 0.52548 0.12246 0.0
O4361 O 0.63336 0.53098 0.10449 0.0
C4362 C 0.64376 0.53386 0.10241 0.0
O4363 O 0.65148 0.5325 0.11064 0.0
C4364 C 0.63794 0.53643 0.14627 0.0
C4365 C 0.61314 0.50116 0.14663 0.0
O4366 O 0.62069 0.50403 0.13905 0.0
O4367 O 0.60595 0.50889 0.14998 0.0
O4368 O 0.59268 0.7108 0.85462 0.0
Cd4369 Cd 0.60024 0.72342 0.83943 0.0
O4370 O 0.61057 0.7084 0.86025 0.0
Cd4371 Cd 0.62463 0.7018 0.87108 0.0
O4372 O 0.63866 0.69299 0.88013 0.0
C4373 C 0.64904 0.69437 0.87683 0.0
O4374 O 0.65117 0.70135 0.86814 0.0
C4375 C 0.59989 0.70598 0.86135 0.0
C4376 C 0.59184 0.74598 0.84025 0.0
O4377 O 0.58642 0.73806 0.83473 0.0
O4378 O 0.60118 0.7432 0.84553 0.0
O4379 O 0.53967 0.34269 0.10462 0.0
Cd4380 Cd 0.52705 0.35025 0.08944 0.0
O4381 O 0.54207 0.36057 0.11026 0.0
Cd4382 Cd 0.54868 0.37463 0.12109 0.0
O4383 O 0.55749 0.38866 0.13014 0.0
C4384 C 0.5561 0.39905 0.12684 0.0
O4385 O 0.54912 0.40118 0.11814 0.0
C4386 C 0.54449 0.34989 0.11135 0.0
C4387 C 0.50449 0.34185 0.09026 0.0
O4388 O 0.51242 0.33643 0.08474 0.0
O4389 O 0.50727 0.35118 0.09554 0.0
O4390 O 0.90778 0.28967 0.35461 0.0
Cd4391 Cd 0.90022 0.27705 0.33944 0.0
O4392 O 0.8899 0.29207 0.36025 0.0
Cd4393 Cd 0.87584 0.29868 0.37108 0.0
O4394 O 0.86181 0.30749 0.38013 0.0
C4395 C 0.85142 0.30611 0.37684 0.0
O4396 O 0.84929 0.29913 0.36814 0.0
C4397 C 0.90058 0.29449 0.36135 0.0
C4398 C 0.90862 0.25449 0.34025 0.0
O4399 O 0.91404 0.26241 0.33473 0.0
O4400 O 0.89929 0.25727 0.34553 0.0
O4401 O 0.9608 0.65779 0.60463 0.0
Cd4402 Cd 0.97342 0.65023 0.58945 0.0
O4403 O 0.9584 0.63991 0.61026 0.0
Cd4404 Cd 0.95179 0.62584 0.62109 0.0
O4405 O 0.94298 0.61182 0.63014 0.0
C4406 C 0.94436 0.60143 0.62684 0.0
O4407 O 0.95134 0.5993 0.61815 0.0
C4408 C 0.95598 0.65059 0.61136 0.0
C4409 C 0.99598 0.65863 0.59026 0.0
O4410 O 0.98805 0.66405 0.58474 0.0
O4411 O 0.9932 0.6493 0.59554 0.0
O4412 O 0.59268 0.28968 0.64585 0.0
Cd4413 Cd 0.60024 0.27706 0.66103 0.0
O4414 O 0.61057 0.29208 0.64021 0.0
Cd4415 Cd 0.62463 0.29869 0.62938 0.0
O4416 O 0.63866 0.3075 0.62033 0.0
C4417 C 0.64904 0.30611 0.62363 0.0
O4418 O 0.65117 0.29913 0.63233 0.0
C4419 C 0.59989 0.2945 0.63912 0.0
C4420 C 0.59184 0.2545 0.66021 0.0
O4421 O 0.58643 0.26242 0.66573 0.0
O4422 O 0.60118 0.25728 0.65493 0.0
O4423 O 0.96081 0.34269 0.89586 0.0
Cd4424 Cd 0.97343 0.35026 0.91103 0.0
O4425 O 0.9584 0.36058 0.89022 0.0
Cd4426 Cd 0.9518 0.37464 0.87939 0.0
O4427 O 0.94298 0.38867 0.87034 0.0
C4428 C 0.94437 0.39905 0.87364 0.0
O4429 O 0.95135 0.40118 0.88233 0.0
C4430 C 0.95599 0.3499 0.88913 0.0
C4431 C 0.99599 0.34185 0.91022 0.0
O4432 O 0.98806 0.33644 0.91574 0.0
O4433 O 0.99321 0.35119 0.90494 0.0
O4434 O 0.90779 0.7108 0.14585 0.0
Cd4435 Cd 0.90023 0.72342 0.16103 0.0
O4436 O 0.88991 0.7084 0.14021 0.0
Cd4437 Cd 0.87584 0.7018 0.12939 0.0
O4438 O 0.86182 0.69298 0.12034 0.0
C4439 C 0.85143 0.69437 0.12363 0.0
O4440 O 0.8493 0.70135 0.13233 0.0
C4441 C 0.90058 0.70598 0.13912 0.0
C4442 C 0.90863 0.74598 0.16022 0.0
O4443 O 0.91405 0.73806 0.16574 0.0
O4444 O 0.8993 0.7432 0.15494 0.0
O4445 O 0.53967 0.65779 0.39586 0.0
Cd4446 Cd 0.52706 0.65023 0.41104 0.0
O4447 O 0.54208 0.63991 0.39022 0.0
Cd4448 Cd 0.54868 0.62584 0.37939 0.0
O4449 O 0.55749 0.61182 0.37034 0.0
C4450 C 0.55611 0.60143 0.37364 0.0
O4451 O 0.54912 0.5993 0.38233 0.0
C4452 C 0.54449 0.65059 0.38912 0.0
C4453 C 0.50449 0.65863 0.41022 0.0
O4454 O 0.51242 0.66405 0.41574 0.0
O4455 O 0.50728 0.6493 0.40494 0.0
O4456 O 0.85461 0.59269 0.7108 0.0
Cd4457 Cd 0.83943 0.60025 0.72342 0.0
O4458 O 0.86025 0.61058 0.7084 0.0
Cd4459 Cd 0.87108 0.62464 0.70179 0.0
O4460 O 0.88013 0.63866 0.69298 0.0
C4461 C 0.87683 0.64905 0.69437 0.0
O4462 O 0.86813 0.65118 0.70135 0.0
C4463 C 0.86134 0.5999 0.70598 0.0
C4464 C 0.84025 0.59185 0.74598 0.0
O4465 O 0.83472 0.58643 0.73805 0.0
O4466 O 0.84553 0.60118 0.7432 0.0
O4467 O 0.6578 0.60462 0.9608 0.0
Cd4468 Cd 0.65023 0.58944 0.97342 0.0
O4469 O 0.63991 0.61026 0.9584 0.0
Cd4470 Cd 0.62585 0.62109 0.95179 0.0
O4471 O 0.61182 0.63014 0.94298 0.0
C4472 C 0.60143 0.62684 0.94436 0.0
O4473 O 0.5993 0.61814 0.95135 0.0
C4474 C 0.65059 0.61136 0.95598 0.0
C4475 C 0.65863 0.59026 0.99598 0.0
O4476 O 0.66405 0.58474 0.98805 0.0
O4477 O 0.6493 0.59554 0.9932 0.0
O4478 O 0.64586 0.40779 0.2108 0.0
Cd4479 Cd 0.66104 0.40023 0.22342 0.0
O4480 O 0.64022 0.38991 0.2084 0.0
Cd4481 Cd 0.62939 0.37584 0.20179 0.0
O4482 O 0.62034 0.36182 0.19298 0.0
C4483 C 0.62363 0.35143 0.19437 0.0
O4484 O 0.63233 0.3493 0.20135 0.0
C4485 C 0.63912 0.40058 0.20598 0.0
C4486 C 0.66022 0.40863 0.24598 0.0
O4487 O 0.66574 0.41405 0.23805 0.0
O4488 O 0.65494 0.3993 0.2432 0.0
O4489 O 0.84269 0.39585 0.4608 0.0
Cd4490 Cd 0.85025 0.41103 0.47342 0.0
O4491 O 0.86057 0.39021 0.45839 0.0
Cd4492 Cd 0.87463 0.37939 0.45179 0.0
O4493 O 0.88866 0.37034 0.44297 0.0
C4494 C 0.89905 0.37364 0.44436 0.0
O4495 O 0.90118 0.38233 0.45134 0.0
C4496 C 0.84989 0.38912 0.45598 0.0
C4497 C 0.84185 0.41021 0.49598 0.0
O4498 O 0.83643 0.41574 0.48805 0.0
O4499 O 0.85118 0.40494 0.4932 0.0
O4500 O 0.85462 0.40779 0.78967 0.0
Cd4501 Cd 0.83944 0.40022 0.77705 0.0
O4502 O 0.86026 0.3899 0.79208 0.0
Cd4503 Cd 0.87109 0.37584 0.79868 0.0
O4504 O 0.88014 0.36182 0.8075 0.0
C4505 C 0.87684 0.35143 0.80611 0.0
O4506 O 0.86814 0.3493 0.79913 0.0
C4507 C 0.86135 0.40058 0.79449 0.0
C4508 C 0.84026 0.40863 0.75449 0.0
O4509 O 0.83474 0.41404 0.76242 0.0
O4510 O 0.84554 0.39929 0.75727 0.0
O4511 O 0.84269 0.60462 0.03967 0.0
Cd4512 Cd 0.85025 0.58944 0.02705 0.0
O4513 O 0.86057 0.61026 0.04207 0.0
Cd4514 Cd 0.87463 0.62109 0.04868 0.0
O4515 O 0.88866 0.63014 0.05749 0.0
C4516 C 0.89905 0.62684 0.0561 0.0
O4517 O 0.90118 0.61815 0.04912 0.0
C4518 C 0.84989 0.61135 0.04449 0.0
C4519 C 0.84185 0.59026 0.00449 0.0
O4520 O 0.83643 0.58474 0.01242 0.0
O4521 O 0.85118 0.59554 0.00727 0.0
O4522 O 0.64585 0.59268 0.28967 0.0
Cd4523 Cd 0.66103 0.60024 0.27705 0.0
O4524 O 0.64021 0.61057 0.29207 0.0
Cd4525 Cd 0.62939 0.62463 0.29868 0.0
O4526 O 0.62034 0.63866 0.30749 0.0
C4527 C 0.62364 0.64904 0.30611 0.0
O4528 O 0.63233 0.65117 0.29913 0.0
C4529 C 0.63912 0.59989 0.29449 0.0
C4530 C 0.66021 0.59184 0.25449 0.0
O4531 O 0.66574 0.58642 0.26242 0.0
O4532 O 0.65494 0.60118 0.25727 0.0
O4533 O 0.65779 0.39587 0.53967 0.0
Cd4534 Cd 0.65023 0.41105 0.52705 0.0
O4535 O 0.6399 0.39023 0.54207 0.0
Cd4536 Cd 0.62584 0.3794 0.54868 0.0
O4537 O 0.61181 0.37035 0.55749 0.0
C4538 C 0.60143 0.37364 0.5561 0.0
O4539 O 0.5993 0.38234 0.54912 0.0
C4540 C 0.65058 0.38913 0.54449 0.0
C4541 C 0.65863 0.41023 0.50449 0.0
O4542 O 0.66405 0.41575 0.51242 0.0
O4543 O 0.64929 0.40495 0.50727 0.0
O4544 O 0.7108 0.85461 0.59268 0.0
Cd4545 Cd 0.72342 0.83943 0.60025 0.0
O4546 O 0.7084 0.86025 0.61057 0.0
Cd4547 Cd 0.70179 0.87108 0.62463 0.0
O4548 O 0.69298 0.88013 0.63866 0.0
C4549 C 0.69437 0.87684 0.64904 0.0
O4550 O 0.70135 0.86814 0.65117 0.0
C4551 C 0.70598 0.86135 0.59989 0.0
C4552 C 0.74598 0.84025 0.59185 0.0
O4553 O 0.73806 0.83473 0.58643 0.0
O4554 O 0.7432 0.84553 0.60118 0.0
O4555 O 0.2108 0.64585 0.4078 0.0
Cd4556 Cd 0.22342 0.66104 0.40024 0.0
O4557 O 0.2084 0.64022 0.38991 0.0
Cd4558 Cd 0.2018 0.62939 0.37585 0.0
O4559 O 0.19299 0.62034 0.36182 0.0
C4560 C 0.19437 0.62364 0.35143 0.0
O4561 O 0.20135 0.63234 0.3493 0.0
C4562 C 0.20598 0.63912 0.40059 0.0
C4563 C 0.24598 0.66021 0.40864 0.0
O4564 O 0.23805 0.66573 0.41406 0.0
O4565 O 0.2432 0.65494 0.3993 0.0
O4566 O 0.60463 0.96081 0.65778 0.0
Cd4567 Cd 0.58945 0.97343 0.65022 0.0
O4568 O 0.61027 0.95841 0.63989 0.0
Cd4569 Cd 0.62109 0.9518 0.62583 0.0
O4570 O 0.63014 0.94298 0.61181 0.0
C4571 C 0.62685 0.94437 0.60142 0.0
O4572 O 0.61815 0.95135 0.59929 0.0
C4573 C 0.61136 0.95599 0.65057 0.0
C4574 C 0.59027 0.99599 0.65862 0.0
O4575 O 0.58474 0.98806 0.66404 0.0
O4576 O 0.59555 0.99321 0.64929 0.0
O4577 O 0.28968 0.35462 0.90779 0.0
Cd4578 Cd 0.27706 0.33944 0.90022 0.0
O4579 O 0.29208 0.36026 0.8899 0.0
Cd4580 Cd 0.29869 0.37108 0.87584 0.0
O4581 O 0.3075 0.38013 0.86181 0.0
C4582 C 0.30611 0.37684 0.85143 0.0
O4583 O 0.29913 0.36814 0.8493 0.0
C4584 C 0.2945 0.36135 0.90058 0.0
C4585 C 0.2545 0.34026 0.90863 0.0
O4586 O 0.26242 0.33473 0.91404 0.0
O4587 O 0.25728 0.34553 0.89929 0.0
O4588 O 0.39586 0.53967 0.65779 0.0
Cd4589 Cd 0.41104 0.52705 0.65023 0.0
O4590 O 0.39022 0.54208 0.6399 0.0
Cd4591 Cd 0.3794 0.54868 0.62584 0.0
O4592 O 0.37034 0.55749 0.61181 0.0
C4593 C 0.37364 0.55611 0.60143 0.0
O4594 O 0.38234 0.54913 0.5993 0.0
C4595 C 0.38913 0.54449 0.65058 0.0
C4596 C 0.41022 0.50449 0.65863 0.0
O4597 O 0.41575 0.51242 0.66404 0.0
O4598 O 0.40495 0.50728 0.64929 0.0
O4599 O 0.78967 0.14585 0.09269 0.0
Cd4600 Cd 0.77705 0.16103 0.10025 0.0
O4601 O 0.79207 0.14021 0.11057 0.0
Cd4602 Cd 0.79868 0.12938 0.12463 0.0
O4603 O 0.80749 0.12033 0.13866 0.0
C4604 C 0.80611 0.12363 0.14905 0.0
O4605 O 0.79913 0.13233 0.15118 0.0
C4606 C 0.79449 0.13912 0.09989 0.0
C4607 C 0.75449 0.16021 0.09185 0.0
O4608 O 0.76241 0.16573 0.08643 0.0
O4609 O 0.75727 0.15493 0.10118 0.0
O4610 O 0.60463 0.03968 0.84267 0.0
Cd4611 Cd 0.58945 0.02706 0.85023 0.0
O4612 O 0.61027 0.04208 0.86056 0.0
Cd4613 Cd 0.62109 0.04868 0.87463 0.0
O4614 O 0.63014 0.05749 0.88865 0.0
C4615 C 0.62684 0.0561 0.89904 0.0
O4616 O 0.61814 0.04912 0.90117 0.0
C4617 C 0.61136 0.04449 0.84988 0.0
C4618 C 0.59027 0.00449 0.84184 0.0
O4619 O 0.58475 0.01242 0.83641 0.0
O4620 O 0.59554 0.00728 0.85117 0.0
O4621 O 0.89586 0.9608 0.34268 0.0
Cd4622 Cd 0.91104 0.97342 0.35024 0.0
O4623 O 0.89022 0.9584 0.36057 0.0
Cd4624 Cd 0.8794 0.95179 0.37463 0.0
O4625 O 0.87034 0.94298 0.38866 0.0
C4626 C 0.87364 0.94436 0.39904 0.0
O4627 O 0.88234 0.95134 0.40117 0.0
C4628 C 0.88913 0.95598 0.34989 0.0
C4629 C 0.91022 0.99598 0.34184 0.0
O4630 O 0.91574 0.98805 0.33643 0.0
O4631 O 0.90494 0.9932 0.35118 0.0
O4632 O 0.39911 0.2855 0.1231 0.0
Cd4633 Cd 0.3878 0.27362 0.13641 0.0
O4634 O 0.38676 0.28216 0.10903 0.0
Cd4635 Cd 0.37246 0.27547 0.11936 0.0
O4636 O 0.3545 0.28096 0.11711 0.0
C4637 C 0.35242 0.28385 0.10671 0.0
O4638 O 0.36065 0.28249 0.09899 0.0
C4639 C 0.39627 0.28642 0.11253 0.0
C4640 C 0.39663 0.25116 0.13734 0.0
O4641 O 0.38905 0.25403 0.12979 0.0
O4642 O 0.39998 0.2589 0.14453 0.0
O4643 O 0.46498 0.64912 0.8731 0.0
Cd4644 Cd 0.47686 0.63781 0.88641 0.0
O4645 O 0.4683 0.63676 0.85904 0.0
Cd4646 Cd 0.47499 0.62246 0.86937 0.0
O4647 O 0.4695 0.6045 0.86712 0.0
C4648 C 0.46661 0.60242 0.85672 0.0
O4649 O 0.46798 0.61064 0.849 0.0
C4650 C 0.46405 0.64627 0.86253 0.0
C4651 C 0.49931 0.64664 0.88734 0.0
O4652 O 0.49644 0.63906 0.87979 0.0
O4653 O 0.49158 0.64999 0.89453 0.0
O4654 O 0.10136 0.71498 0.6231 0.0
Cd4655 Cd 0.11267 0.72686 0.63641 0.0
O4656 O 0.11371 0.7183 0.60903 0.0
Cd4657 Cd 0.12801 0.725 0.61936 0.0
O4658 O 0.14598 0.7195 0.61711 0.0
C4659 C 0.14806 0.71661 0.60672 0.0
O4660 O 0.13983 0.71798 0.599 0.0
C4661 C 0.1042 0.71405 0.61253 0.0
C4662 C 0.10384 0.74932 0.63734 0.0
O4663 O 0.11142 0.74645 0.62979 0.0
O4664 O 0.10049 0.74158 0.64453 0.0
O4665 O 0.0355 0.35135 0.37309 0.0
Cd4666 Cd 0.02362 0.36266 0.38641 0.0
O4667 O 0.03219 0.36372 0.35903 0.0
Cd4668 Cd 0.0255 0.37802 0.36937 0.0
O4669 O 0.03099 0.39598 0.36712 0.0
C4670 C 0.03387 0.39806 0.35672 0.0
O4671 O 0.0325 0.38984 0.349 0.0
C4672 C 0.03644 0.3542 0.36253 0.0
C4673 C 0.00116 0.35383 0.38733 0.0
O4674 O 0.00403 0.36141 0.37978 0.0
O4675 O 0.00889 0.35048 0.39452 0.0
O4676 O 0.39912 0.71498 0.37738 0.0
Cd4677 Cd 0.38781 0.72686 0.36407 0.0
O4678 O 0.38675 0.71828 0.39144 0.0
Cd4679 Cd 0.37246 0.72498 0.38111 0.0
O4680 O 0.3545 0.71949 0.38336 0.0
C4681 C 0.35241 0.71661 0.39375 0.0
O4682 O 0.36064 0.71797 0.40147 0.0
C4683 C 0.39627 0.71404 0.38794 0.0
C4684 C 0.39664 0.74932 0.36314 0.0
O4685 O 0.38906 0.74645 0.37069 0.0
O4686 O 0.4 0.74158 0.35595 0.0
O4687 O 0.0355 0.64911 0.12737 0.0
Cd4688 Cd 0.02362 0.6378 0.11406 0.0
O4689 O 0.03217 0.63677 0.14144 0.0
Cd4690 Cd 0.02547 0.62246 0.13111 0.0
O4691 O 0.03097 0.6045 0.13337 0.0
C4692 C 0.03386 0.60242 0.14376 0.0
O4693 O 0.0325 0.61065 0.15148 0.0
C4694 C 0.03642 0.64627 0.13794 0.0
C4695 C 0.00116 0.64663 0.11313 0.0
O4696 O 0.00403 0.63905 0.12069 0.0
O4697 O 0.00889 0.64998 0.10594 0.0
O4698 O 0.10136 0.2855 0.87737 0.0
Cd4699 Cd 0.11267 0.27362 0.86406 0.0
O4700 O 0.11372 0.28218 0.89144 0.0
Cd4701 Cd 0.12801 0.27549 0.8811 0.0
O4702 O 0.14598 0.28098 0.88335 0.0
C4703 C 0.14806 0.28386 0.89375 0.0
O4704 O 0.13984 0.2825 0.90147 0.0
C4705 C 0.1042 0.28643 0.88794 0.0
C4706 C 0.10384 0.25116 0.86313 0.0
O4707 O 0.11142 0.25404 0.87068 0.0
O4708 O 0.10048 0.2589 0.85594 0.0
O4709 O 0.46498 0.35137 0.62736 0.0
Cd4710 Cd 0.47686 0.36268 0.61405 0.0
O4711 O 0.46831 0.36371 0.64144 0.0
Cd4712 Cd 0.475 0.37801 0.63111 0.0
O4713 O 0.46951 0.39598 0.63336 0.0
C4714 C 0.46662 0.39805 0.64376 0.0
O4715 O 0.46798 0.38983 0.65147 0.0
C4716 C 0.46405 0.3542 0.63793 0.0
C4717 C 0.49931 0.35385 0.61313 0.0
O4718 O 0.49644 0.36142 0.62068 0.0
O4719 O 0.49158 0.3505 0.60594 0.0
O4720 O 0.12311 0.39912 0.2855 0.0
Cd4721 Cd 0.13642 0.38782 0.27362 0.0
O4722 O 0.10905 0.38676 0.28219 0.0
Cd4723 Cd 0.11938 0.37246 0.27549 0.0
O4724 O 0.11713 0.3545 0.28098 0.0
C4725 C 0.10673 0.35241 0.28386 0.0
O4726 O 0.09901 0.36063 0.28249 0.0
C4727 C 0.11254 0.39627 0.28643 0.0
C4728 C 0.13735 0.39664 0.25116 0.0
O4729 O 0.1298 0.38906 0.25403 0.0
O4730 O 0.14454 0.4 0.25889 0.0
O4731 O 0.35136 0.3731 0.03549 0.0
Cd4732 Cd 0.36267 0.38641 0.02362 0.0
O4733 O 0.36371 0.35903 0.03217 0.0
Cd4734 Cd 0.37801 0.36936 0.02548 0.0
O4735 O 0.39597 0.36711 0.03097 0.0
C4736 C 0.39805 0.35671 0.03386 0.0
O4737 O 0.38983 0.349 0.0325 0.0
C4738 C 0.3542 0.36253 0.03642 0.0
C4739 C 0.35384 0.38734 0.00116 0.0
O4740 O 0.36142 0.37979 0.00403 0.0
O4741 O 0.35049 0.39453 0.00889 0.0
O4742 O 0.37738 0.60136 0.7855 0.0
Cd4743 Cd 0.36407 0.61267 0.77362 0.0
O4744 O 0.39145 0.61371 0.78217 0.0
Cd4745 Cd 0.38112 0.62801 0.77548 0.0
O4746 O 0.38337 0.64597 0.78097 0.0
C4747 C 0.39376 0.64805 0.78385 0.0
O4748 O 0.40148 0.63983 0.78249 0.0
C4749 C 0.38795 0.6042 0.78642 0.0
C4750 C 0.36314 0.60384 0.75116 0.0
O4751 O 0.37069 0.61142 0.75403 0.0
O4752 O 0.35595 0.60049 0.75889 0.0
O4753 O 0.14911 0.62737 0.5355 0.0
Cd4754 Cd 0.1378 0.61406 0.52362 0.0
O4755 O 0.13676 0.64144 0.53217 0.0
Cd4756 Cd 0.12246 0.63111 0.52548 0.0
O4757 O 0.10449 0.63336 0.53097 0.0
C4758 C 0.10242 0.64376 0.53386 0.0
O4759 O 0.11064 0.65148 0.5325 0.0
C4760 C 0.14627 0.63794 0.53642 0.0
C4761 C 0.14663 0.61313 0.50116 0.0
O4762 O 0.13905 0.62068 0.50403 0.0
O4763 O 0.14998 0.60594 0.50889 0.0
O4764 O 0.1231 0.60136 0.21498 0.0
Cd4765 Cd 0.13642 0.61267 0.22685 0.0
O4766 O 0.10904 0.61372 0.2183 0.0
Cd4767 Cd 0.11937 0.62802 0.22499 0.0
O4768 O 0.11712 0.64598 0.2195 0.0
C4769 C 0.10672 0.64806 0.21661 0.0
O4770 O 0.099 0.63984 0.21797 0.0
C4771 C 0.11253 0.60421 0.21405 0.0
C4772 C 0.13735 0.60385 0.24931 0.0
O4773 O 0.1298 0.61143 0.24644 0.0
O4774 O 0.14453 0.60049 0.24158 0.0
O4775 O 0.14912 0.37309 0.96498 0.0
Cd4776 Cd 0.13781 0.3864 0.97686 0.0
O4777 O 0.13677 0.35902 0.9683 0.0
Cd4778 Cd 0.12247 0.36935 0.975 0.0
O4779 O 0.1045 0.3671 0.96951 0.0
C4780 C 0.10242 0.35671 0.96662 0.0
O4781 O 0.11064 0.34899 0.96798 0.0
C4782 C 0.14628 0.36253 0.96405 0.0
C4783 C 0.14664 0.38733 0.99931 0.0
O4784 O 0.13906 0.37978 0.99644 0.0
O4785 O 0.14999 0.39452 0.99158 0.0
O4786 O 0.37738 0.39912 0.71497 0.0
Cd4787 Cd 0.36407 0.38781 0.72685 0.0
O4788 O 0.39144 0.38676 0.7183 0.0
Cd4789 Cd 0.38111 0.37246 0.72499 0.0
O4790 O 0.38336 0.3545 0.71949 0.0
C4791 C 0.39376 0.35242 0.7166 0.0
O4792 O 0.40148 0.36064 0.71796 0.0
C4793 C 0.38795 0.39627 0.71405 0.0
C4794 C 0.36314 0.39663 0.74931 0.0
O4795 O 0.37069 0.38905 0.74644 0.0
O4796 O 0.35595 0.39999 0.74158 0.0
O4797 O 0.35135 0.62737 0.46497 0.0
Cd4798 Cd 0.36266 0.61405 0.47685 0.0
O4799 O 0.36372 0.64143 0.46828 0.0
Cd4800 Cd 0.37802 0.63109 0.47498 0.0
O4801 O 0.39598 0.63334 0.46949 0.0
C4802 C 0.39806 0.64374 0.46661 0.0
O4803 O 0.38984 0.65146 0.46798 0.0
C4804 C 0.35421 0.63793 0.46404 0.0
C4805 C 0.35383 0.61313 0.49931 0.0
O4806 O 0.36141 0.62067 0.49644 0.0
O4807 O 0.35048 0.60594 0.49158 0.0
O4808 O 0.2855 0.12311 0.39911 0.0
Cd4809 Cd 0.27362 0.13642 0.38781 0.0
O4810 O 0.28217 0.10904 0.38676 0.0
Cd4811 Cd 0.27548 0.11937 0.37246 0.0
O4812 O 0.28097 0.11712 0.3545 0.0
C4813 C 0.28386 0.10673 0.35242 0.0
O4814 O 0.2825 0.09901 0.36064 0.0
C4815 C 0.28643 0.11254 0.39627 0.0
C4816 C 0.25116 0.13735 0.39663 0.0
O4817 O 0.25403 0.1298 0.38905 0.0
O4818 O 0.25889 0.14454 0.39999 0.0
O4819 O 0.7855 0.37738 0.60136 0.0
Cd4820 Cd 0.77362 0.36407 0.61267 0.0
O4821 O 0.78218 0.39144 0.61371 0.0
Cd4822 Cd 0.77548 0.38111 0.62801 0.0
O4823 O 0.78097 0.38336 0.64597 0.0
C4824 C 0.78386 0.39376 0.64806 0.0
O4825 O 0.78249 0.40148 0.63983 0.0
C4826 C 0.78643 0.38795 0.6042 0.0
C4827 C 0.75116 0.36314 0.60384 0.0
O4828 O 0.75403 0.37069 0.61142 0.0
O4829 O 0.75889 0.35595 0.60048 0.0
O4830 O 0.3731 0.0355 0.35136 0.0
Cd4831 Cd 0.38641 0.02362 0.36267 0.0
O4832 O 0.35903 0.03218 0.36371 0.0
Cd4833 Cd 0.36936 0.02548 0.37801 0.0
O4834 O 0.36711 0.03098 0.39597 0.0
C4835 C 0.35671 0.03387 0.39805 0.0
O4836 O 0.34899 0.0325 0.38983 0.0
C4837 C 0.36253 0.03643 0.3542 0.0
C4838 C 0.38734 0.00117 0.35384 0.0
O4839 O 0.37978 0.00404 0.36142 0.0
O4840 O 0.39452 0.0089 0.35049 0.0
O4841 O 0.71498 0.6231 0.10136 0.0
Cd4842 Cd 0.72686 0.63641 0.11267 0.0
O4843 O 0.7183 0.60903 0.11371 0.0
Cd4844 Cd 0.72499 0.61937 0.12801 0.0
O4845 O 0.7195 0.61711 0.14598 0.0
C4846 C 0.71661 0.60672 0.14806 0.0
O4847 O 0.71798 0.599 0.13983 0.0
C4848 C 0.71405 0.61253 0.1042 0.0
C4849 C 0.74932 0.63734 0.10384 0.0
O4850 O 0.74645 0.62979 0.11142 0.0
O4851 O 0.74158 0.64453 0.10049 0.0
O4852 O 0.62737 0.46498 0.35136 0.0
Cd4853 Cd 0.61406 0.47686 0.36267 0.0
O4854 O 0.64144 0.46831 0.36371 0.0
Cd4855 Cd 0.63111 0.475 0.37801 0.0
O4856 O 0.63336 0.46951 0.39597 0.0
C4857 C 0.64376 0.46662 0.39805 0.0
O4858 O 0.65147 0.46798 0.38983 0.0
C4859 C 0.63794 0.46405 0.3542 0.0
C4860 C 0.61313 0.49931 0.35384 0.0
O4861 O 0.62068 0.49644 0.36142 0.0
O4862 O 0.60594 0.49158 0.35049 0.0
O4863 O 0.21497 0.87738 0.89911 0.0
Cd4864 Cd 0.22685 0.86407 0.8878 0.0
O4865 O 0.2183 0.89145 0.88676 0.0
Cd4866 Cd 0.22499 0.88112 0.87246 0.0
O4867 O 0.2195 0.88337 0.8545 0.0
C4868 C 0.21661 0.89376 0.85242 0.0
O4869 O 0.21797 0.90148 0.86064 0.0
C4870 C 0.21405 0.88795 0.89627 0.0
C4871 C 0.24931 0.86314 0.89663 0.0
O4872 O 0.24644 0.87069 0.88905 0.0
O4873 O 0.24158 0.85595 0.89998 0.0
O4874 O 0.3731 0.96498 0.14911 0.0
Cd4875 Cd 0.38641 0.97686 0.13781 0.0
O4876 O 0.35903 0.9683 0.13676 0.0
Cd4877 Cd 0.36937 0.97499 0.12246 0.0
O4878 O 0.36712 0.9695 0.1045 0.0
C4879 C 0.35672 0.96662 0.10242 0.0
O4880 O 0.349 0.96798 0.11064 0.0
C4881 C 0.36253 0.96405 0.14627 0.0
C4882 C 0.38734 0.99932 0.14663 0.0
O4883 O 0.37979 0.99645 0.13905 0.0
O4884 O 0.39453 0.99159 0.14999 0.0
O4885 O 0.12738 0.0355 0.64911 0.0
Cd4886 Cd 0.11407 0.02362 0.6378 0.0
O4887 O 0.14144 0.03217 0.63676 0.0
Cd4888 Cd 0.13111 0.02548 0.62246 0.0
O4889 O 0.13337 0.03097 0.6045 0.0
C4890 C 0.14376 0.03386 0.60242 0.0
O4891 O 0.15148 0.0325 0.61064 0.0
C4892 C 0.13795 0.03643 0.64627 0.0
C4893 C 0.11314 0.00116 0.64663 0.0
O4894 O 0.12069 0.00403 0.63905 0.0
O4895 O 0.10595 0.00889 0.64998 0.0
loop_
_geom_bond_atom_site_label_1
_geom_bond_atom_site_label_2
_geom_bond_distance
_geom_bond_site_symmetry_2
_ccdc_geom_bond_type
C0 C1 1.264 . S
C0 C5 1.479 . S
C0 C10 1.465 . S
C1 C0 1.264 . S
C1 C3 1.339 . S
C1 H28 0.931 . S
C2 C3 1.395 . S
C2 C4 1.320 . S
C3 C1 1.339 . S
C3 C2 1.395 . S
C3 H29 0.929 . S
C4 C2 1.320 . S
C4 C5 1.405 . S
C4 H30 0.930 . S
C5 C0 1.479 . S
C5 C4 1.405 . S
C5 H31 0.931 . S
U6 O7 2.454 . S
U6 O8 2.458 . S
U6 C9 2.984 . S
U6 C10 2.847 . S
U6 C23 2.882 . S
U6 O24 2.441 . S
U6 O25 2.420 . S
U6 O26 2.455 . S
U6 O27 2.449 . S
O7 U6 2.454 . S
O7 C9 1.353 . S
O8 U6 2.458 . S
O8 C9 1.286 . S
C9 U6 2.984 . S
C9 O7 1.353 . S
C9 O8 1.286 . S
C9 C11 1.363 . S
C10 C0 1.465 . S
C10 U6 2.847 . S
C10 O24 1.249 . S
C10 O25 1.202 . S
C11 C9 1.363 . S
C11 C13 1.408 . S
C11 C16 1.342 . S
C12 C13 1.310 . S
C12 C15 1.461 . S
C12 H32 0.932 . S
C13 C11 1.408 . S
C13 C12 1.310 . S
C13 H33 0.930 . S
C14 C15 1.474 . S
C14 C16 1.285 . S
C14 H34 0.929 . S
C15 C12 1.461 . S
C15 C14 1.474 . S
C16 C11 1.342 . S
C16 C14 1.285 . S
C16 H35 0.930 . S
C17 C20 1.424 . S
C17 C22 1.245 . S
C17 C23 1.428 . S
C18 C21 1.260 . S
C18 C22 1.477 . S
C18 H36 0.932 . S
C19 C20 1.384 . S
C19 C21 1.479 . S
C19 H37 0.929 . S
C20 C17 1.424 . S
C20 C19 1.384 . S
C20 H38 0.928 . S
C21 C18 1.260 . S
C21 C19 1.479 . S
C22 C17 1.245 . S
C22 C18 1.477 . S
C22 H39 0.932 . S
C23 U6 2.882 . S
C23 C17 1.428 . S
C23 O26 1.301 . S
C23 O27 1.282 . S
O24 U6 2.441 . S
O24 C10 1.249 . S
O25 U6 2.420 . S
O25 C10 1.202 . S
O26 U6 2.455 . S
O26 C23 1.301 . S
O27 U6 2.449 . S
O27 C23 1.282 . S
H28 C1 0.931 . S
H29 C3 0.929 . S
H30 C4 0.930 . S
H31 C5 0.931 . S
H32 C12 0.932 . S
H33 C13 0.930 . S
H34 C14 0.929 . S
H35 C16 0.930 . S
H36 C18 0.932 . S
H37 C19 0.929 . S
H38 C20 0.928 . S
H39 C22 0.932 . S
C40 C41 1.264 . S
C40 C45 1.479 . S
C40 C50 1.465 . S
C41 C40 1.264 . S
C41 C43 1.339 . S
C41 H68 0.931 . S
C42 C43 1.395 . S
C42 C44 1.320 . S
C43 C41 1.339 . S
C43 C42 1.395 . S
C43 H69 0.929 . S
C44 C42 1.320 . S
C44 C45 1.405 . S
C44 H70 0.930 . S
C45 C40 1.479 . S
C45 C44 1.405 . S
C45 H71 0.931 . S
U46 O47 2.454 . S
U46 O48 2.458 . S
U46 C49 2.984 . S
U46 C50 2.847 . S
U46 C63 2.882 . S
U46 O64 2.441 . S
U46 O65 2.420 . S
U46 O66 2.455 . S
U46 O67 2.449 . S
O47 U46 2.454 . S
O47 C49 1.353 . S
O48 U46 2.458 . S
O48 C49 1.286 . S
C49 U46 2.984 . S
C49 O47 1.353 . S
C49 O48 1.286 . S
C49 C51 1.363 . S
C50 C40 1.465 . S
C50 U46 2.847 . S
C50 O64 1.249 . S
C50 O65 1.202 . S
C51 C49 1.363 . S
C51 C53 1.408 . S
C51 C56 1.342 . S
C52 C53 1.310 . S
C52 C55 1.461 . S
C52 H72 0.932 . S
C53 C51 1.408 . S
C53 C52 1.310 . S
C53 H73 0.930 . S
C54 C55 1.474 . S
C54 C56 1.285 . S
C54 H74 0.929 . S
C55 C52 1.461 . S
C55 C54 1.474 . S
C56 C51 1.342 . S
C56 C54 1.285 . S
C56 H75 0.930 . S
C57 C60 1.424 . S
C57 C62 1.245 . S
C57 C63 1.428 . S
C58 C61 1.260 . S
C58 C62 1.477 . S
C58 H76 0.932 . S
C59 C60 1.384 . S
C59 C61 1.479 . S
C59 H77 0.929 . S
C60 C57 1.424 . S
C60 C59 1.384 . S
C60 H78 0.928 . S
C61 C58 1.260 . S
C61 C59 1.479 . S
C62 C57 1.245 . S
C62 C58 1.477 . S
C62 H79 0.932 . S
C63 U46 2.882 . S
C63 C57 1.428 . S
C63 O66 1.301 . S
C63 O67 1.282 . S
O64 U46 2.441 . S
O64 C50 1.249 . S
O65 U46 2.420 . S
O65 C50 1.202 . S
O66 U46 2.455 . S
O66 C63 1.301 . S
O67 U46 2.449 . S
O67 C63 1.282 . S
H68 C41 0.931 . S
H69 C43 0.929 . S
H70 C44 0.930 . S
H71 C45 0.931 . S
H72 C52 0.932 . S
H73 C53 0.930 . S
H74 C54 0.929 . S
H75 C56 0.930 . S
H76 C58 0.932 . S
H77 C59 0.929 . S
H78 C60 0.928 . S
H79 C62 0.932 . S
C80 C81 1.264 . S
C80 C85 1.479 . S
C80 C90 1.465 . S
C81 C80 1.264 . S
C81 C83 1.339 . S
C81 H108 0.931 . S
C82 C83 1.395 . S
C82 C84 1.320 . S
C83 C81 1.339 . S
C83 C82 1.395 . S
C83 H109 0.929 . S
C84 C82 1.320 . S
C84 C85 1.405 . S
C84 H110 0.930 . S
C85 C80 1.479 . S
C85 C84 1.405 . S
C85 H111 0.931 . S
U86 O87 2.454 . S
U86 O88 2.458 . S
U86 C89 2.984 . S
U86 C90 2.847 . S
U86 C103 2.882 . S
U86 O104 2.441 . S
U86 O105 2.420 . S
U86 O106 2.455 . S
U86 O107 2.449 . S
O87 U86 2.454 . S
O87 C89 1.353 . S
O88 U86 2.458 . S
O88 C89 1.286 . S
C89 U86 2.984 . S
C89 O87 1.353 . S
C89 O88 1.286 . S
C89 C91 1.363 . S
C90 C80 1.465 . S
C90 U86 2.847 . S
C90 O104 1.249 . S
C90 O105 1.202 . S
C91 C89 1.363 . S
C91 C93 1.408 . S
C91 C96 1.342 . S
C92 C93 1.310 . S
C92 C95 1.461 . S
C92 H112 0.932 . S
C93 C91 1.408 . S
C93 C92 1.310 . S
C93 H113 0.930 . S
C94 C95 1.474 . S
C94 C96 1.285 . S
C94 H114 0.929 . S
C95 C92 1.461 . S
C95 C94 1.474 . S
C96 C91 1.342 . S
C96 C94 1.285 . S
C96 H115 0.930 . S
C97 C100 1.424 . S
C97 C102 1.245 . S
C97 C103 1.428 . S
C98 C101 1.260 . S
C98 C102 1.477 . S
C98 H116 0.932 . S
C99 C100 1.384 . S
C99 C101 1.479 . S
C99 H117 0.929 . S
C100 C97 1.424 . S
C100 C99 1.384 . S
C100 H118 0.928 . S
C101 C98 1.260 . S
C101 C99 1.479 . S
C102 C97 1.245 . S
C102 C98 1.477 . S
C102 H119 0.932 . S
C103 U86 2.882 . S
C103 C97 1.428 . S
C103 O106 1.301 . S
C103 O107 1.282 . S
O104 U86 2.441 . S
O104 C90 1.249 . S
O105 U86 2.420 . S
O105 C90 1.202 . S
O106 U86 2.455 . S
O106 C103 1.301 . S
O107 U86 2.449 . S
O107 C103 1.282 . S
H108 C81 0.931 . S
H109 C83 0.929 . S
H110 C84 0.930 . S
H111 C85 0.931 . S
H112 C92 0.932 . S
H113 C93 0.930 . S
H114 C94 0.929 . S
H115 C96 0.930 . S
H116 C98 0.932 . S
H117 C99 0.929 . S
H118 C100 0.928 . S
H119 C102 0.932 . S
C120 C121 1.264 . S
C120 C125 1.479 . S
C120 C130 1.465 . S
C121 C120 1.264 . S
C121 C123 1.339 . S
C121 H148 0.931 . S
C122 C123 1.395 . S
C122 C124 1.320 . S
C123 C121 1.339 . S
C123 C122 1.395 . S
C123 H149 0.929 . S
C124 C122 1.320 . S
C124 C125 1.405 . S
C124 H150 0.930 . S
C125 C120 1.479 . S
C125 C124 1.405 . S
C125 H151 0.931 . S
U126 O127 2.454 . S
U126 O128 2.458 . S
U126 C129 2.984 . S
U126 C130 2.847 . S
U126 C143 2.882 . S
U126 O144 2.441 . S
U126 O145 2.420 . S
U126 O146 2.455 . S
U126 O147 2.449 . S
O127 U126 2.454 . S
O127 C129 1.353 . S
O128 U126 2.458 . S
O128 C129 1.286 . S
C129 U126 2.984 . S
C129 O127 1.353 . S
C129 O128 1.286 . S
C129 C131 1.363 . S
C130 C120 1.465 . S
C130 U126 2.847 . S
C130 O144 1.249 . S
C130 O145 1.202 . S
C131 C129 1.363 . S
C131 C133 1.408 . S
C131 C136 1.342 . S
C132 C133 1.310 . S
C132 C135 1.461 . S
C132 H152 0.932 . S
C133 C131 1.408 . S
C133 C132 1.310 . S
C133 H153 0.930 . S
C134 C135 1.474 . S
C134 C136 1.285 . S
C134 H154 0.929 . S
C135 C132 1.461 . S
C135 C134 1.474 . S
C136 C131 1.342 . S
C136 C134 1.285 . S
C136 H155 0.930 . S
C137 C140 1.424 . S
C137 C142 1.245 . S
C137 C143 1.428 . S
C138 C141 1.260 . S
C138 C142 1.477 . S
C138 H156 0.932 . S
C139 C140 1.384 . S
C139 C141 1.479 . S
C139 H157 0.929 . S
C140 C137 1.424 . S
C140 C139 1.384 . S
C140 H158 0.928 . S
C141 C138 1.260 . S
C141 C139 1.479 . S
C142 C137 1.245 . S
C142 C138 1.477 . S
C142 H159 0.932 . S
C143 U126 2.882 . S
C143 C137 1.428 . S
C143 O146 1.301 . S
C143 O147 1.282 . S
O144 U126 2.441 . S
O144 C130 1.249 . S
O145 U126 2.420 . S
O145 C130 1.202 . S
O146 U126 2.455 . S
O146 C143 1.301 . S
O147 U126 2.449 . S
O147 C143 1.282 . S
H148 C121 0.931 . S
H149 C123 0.929 . S
H150 C124 0.930 . S
H151 C125 0.931 . S
H152 C132 0.932 . S
H153 C133 0.930 . S
H154 C134 0.929 . S
H155 C136 0.930 . S
H156 C138 0.932 . S
H157 C139 0.929 . S
H158 C140 0.928 . S
H159 C142 0.932 . S
C160 C161 1.264 . S
C160 C165 1.479 . S
C160 C170 1.465 . S
C161 C160 1.264 . S
C161 C163 1.339 . S
C161 H188 0.931 . S
C162 C163 1.395 . S
C162 C164 1.320 . S
C163 C161 1.339 . S
C163 C162 1.395 . S
C163 H189 0.929 . S
C164 C162 1.320 . S
C164 C165 1.405 . S
C164 H190 0.930 . S
C165 C160 1.479 . S
C165 C164 1.405 . S
C165 H191 0.931 . S
U166 O167 2.454 . S
U166 O168 2.458 . S
U166 C169 2.984 . S
U166 C170 2.847 . S
U166 C183 2.882 . S
U166 O184 2.441 . S
U166 O185 2.420 . S
U166 O186 2.455 . S
U166 O187 2.449 . S
O167 U166 2.454 . S
O167 C169 1.353 . S
O168 U166 2.458 . S
O168 C169 1.286 . S
C169 U166 2.984 . S
C169 O167 1.353 . S
C169 O168 1.286 . S
C169 C171 1.363 . S
C170 C160 1.465 . S
C170 U166 2.847 . S
C170 O184 1.249 . S
C170 O185 1.202 . S
C171 C169 1.363 . S
C171 C173 1.408 . S
C171 C176 1.342 . S
C172 C173 1.310 . S
C172 C175 1.461 . S
C172 H192 0.932 . S
C173 C171 1.408 . S
C173 C172 1.310 . S
C173 H193 0.930 . S
C174 C175 1.474 . S
C174 C176 1.285 . S
C174 H194 0.929 . S
C175 C172 1.461 . S
C175 C174 1.474 . S
C176 C171 1.342 . S
C176 C174 1.285 . S
C176 H195 0.930 . S
C177 C180 1.424 . S
C177 C182 1.245 . S
C177 C183 1.428 . S
C178 C181 1.260 . S
C178 C182 1.477 . S
C178 H196 0.932 . S
C179 C180 1.384 . S
C179 C181 1.479 . S
C179 H197 0.929 . S
C180 C177 1.424 . S
C180 C179 1.384 . S
C180 H198 0.928 . S
C181 C178 1.260 . S
C181 C179 1.479 . S
C182 C177 1.245 . S
C182 C178 1.477 . S
C182 H199 0.932 . S
C183 U166 2.882 . S
C183 C177 1.428 . S
C183 O186 1.301 . S
C183 O187 1.282 . S
O184 U166 2.441 . S
O184 C170 1.249 . S
O185 U166 2.420 . S
O185 C170 1.202 . S
O186 U166 2.455 . S
O186 C183 1.301 . S
O187 U166 2.449 . S
O187 C183 1.282 . S
H188 C161 0.931 . S
H189 C163 0.929 . S
H190 C164 0.930 . S
H191 C165 0.931 . S
H192 C172 0.932 . S
H193 C173 0.930 . S
H194 C174 0.929 . S
H195 C176 0.930 . S
H196 C178 0.932 . S
H197 C179 0.929 . S
H198 C180 0.928 . S
H199 C182 0.932 . S
C200 C201 1.264 . S
C200 C205 1.479 . S
C200 C210 1.465 . S
C201 C200 1.264 . S
C201 C203 1.339 . S
C201 H228 0.931 . S
C202 C203 1.395 . S
C202 C204 1.320 . S
C203 C201 1.339 . S
C203 C202 1.395 . S
C203 H229 0.929 . S
C204 C202 1.320 . S
C204 C205 1.405 . S
C204 H230 0.930 . S
C205 C200 1.479 . S
C205 C204 1.405 . S
C205 H231 0.931 . S
U206 O207 2.454 . S
U206 O208 2.458 . S
U206 C209 2.984 . S
U206 C210 2.847 . S
U206 C223 2.882 . S
U206 O224 2.441 . S
U206 O225 2.420 . S
U206 O226 2.455 . S
U206 O227 2.449 . S
O207 U206 2.454 . S
O207 C209 1.353 . S
O208 U206 2.458 . S
O208 C209 1.286 . S
C209 U206 2.984 . S
C209 O207 1.353 . S
C209 O208 1.286 . S
C209 C211 1.363 . S
C210 C200 1.465 . S
C210 U206 2.847 . S
C210 O224 1.249 . S
C210 O225 1.202 . S
C211 C209 1.363 . S
C211 C213 1.408 . S
C211 C216 1.342 . S
C212 C213 1.310 . S
C212 C215 1.461 . S
C212 H232 0.932 . S
C213 C211 1.408 . S
C213 C212 1.310 . S
C213 H233 0.930 . S
C214 C215 1.474 . S
C214 C216 1.285 . S
C214 H234 0.929 . S
C215 C212 1.461 . S
C215 C214 1.474 . S
C216 C211 1.342 . S
C216 C214 1.285 . S
C216 H235 0.930 . S
C217 C220 1.424 . S
C217 C222 1.245 . S
C217 C223 1.428 . S
C218 C221 1.260 . S
C218 C222 1.477 . S
C218 H236 0.932 . S
C219 C220 1.384 . S
C219 C221 1.479 . S
C219 H237 0.929 . S
C220 C217 1.424 . S
C220 C219 1.384 . S
C220 H238 0.928 . S
C221 C218 1.260 . S
C221 C219 1.479 . S
C222 C217 1.245 . S
C222 C218 1.477 . S
C222 H239 0.932 . S
C223 U206 2.882 . S
C223 C217 1.428 . S
C223 O226 1.301 . S
C223 O227 1.282 . S
O224 U206 2.441 . S
O224 C210 1.249 . S
O225 U206 2.420 . S
O225 C210 1.202 . S
O226 U206 2.455 . S
O226 C223 1.301 . S
O227 U206 2.449 . S
O227 C223 1.282 . S
H228 C201 0.931 . S
H229 C203 0.929 . S
H230 C204 0.930 . S
H231 C205 0.931 . S
H232 C212 0.932 . S
H233 C213 0.930 . S
H234 C214 0.929 . S
H235 C216 0.930 . S
H236 C218 0.932 . S
H237 C219 0.929 . S
H238 C220 0.928 . S
H239 C222 0.932 . S
C240 C241 1.264 . S
C240 C245 1.479 . S
C240 C250 1.465 . S
C241 C240 1.264 . S
C241 C243 1.339 . S
C241 H268 0.931 . S
C242 C243 1.395 . S
C242 C244 1.320 . S
C243 C241 1.339 . S
C243 C242 1.395 . S
C243 H269 0.929 . S
C244 C242 1.320 . S
C244 C245 1.405 . S
C244 H270 0.930 . S
C245 C240 1.479 . S
C245 C244 1.405 . S
C245 H271 0.931 . S
U246 O247 2.454 . S
U246 O248 2.458 . S
U246 C249 2.984 . S
U246 C250 2.847 . S
U246 C263 2.882 . S
U246 O264 2.441 . S
U246 O265 2.420 . S
U246 O266 2.455 . S
U246 O267 2.449 . S
O247 U246 2.454 . S
O247 C249 1.353 . S
O248 U246 2.458 . S
O248 C249 1.286 . S
C249 U246 2.984 . S
C249 O247 1.353 . S
C249 O248 1.286 . S
C249 C251 1.363 . S
C250 C240 1.465 . S
C250 U246 2.847 . S
C250 O264 1.249 . S
C250 O265 1.202 . S
C251 C249 1.363 . S
C251 C253 1.408 . S
C251 C256 1.342 . S
C252 C253 1.310 . S
C252 C255 1.461 . S
C252 H272 0.932 . S
C253 C251 1.408 . S
C253 C252 1.310 . S
C253 H273 0.930 . S
C254 C255 1.474 . S
C254 C256 1.285 . S
C254 H274 0.929 . S
C255 C252 1.461 . S
C255 C254 1.474 . S
C256 C251 1.342 . S
C256 C254 1.285 . S
C256 H275 0.930 . S
C257 C260 1.424 . S
C257 C262 1.245 . S
C257 C263 1.428 . S
C258 C261 1.260 . S
C258 C262 1.477 . S
C258 H276 0.932 . S
C259 C260 1.384 . S
C259 C261 1.479 . S
C259 H277 0.929 . S
C260 C257 1.424 . S
C260 C259 1.384 . S
C260 H278 0.928 . S
C261 C258 1.260 . S
C261 C259 1.479 . S
C262 C257 1.245 . S
C262 C258 1.477 . S
C262 H279 0.932 . S
C263 U246 2.882 . S
C263 C257 1.428 . S
C263 O266 1.301 . S
C263 O267 1.282 . S
O264 U246 2.441 . S
O264 C250 1.249 . S
O265 U246 2.420 . S
O265 C250 1.202 . S
O266 U246 2.455 . S
O266 C263 1.301 . S
O267 U246 2.449 . S
O267 C263 1.282 . S
H268 C241 0.931 . S
H269 C243 0.929 . S
H270 C244 0.930 . S
H271 C245 0.931 . S
H272 C252 0.932 . S
H273 C253 0.930 . S
H274 C254 0.929 . S
H275 C256 0.930 . S
H276 C258 0.932 . S
H277 C259 0.929 . S
H278 C260 0.928 . S
H279 C262 0.932 . S
C280 C281 1.264 . S
C280 C285 1.479 . S
C280 C290 1.465 . S
C281 C280 1.264 . S
C281 C283 1.339 . S
C281 H308 0.931 . S
C282 C283 1.395 . S
C282 C284 1.320 . S
C283 C281 1.339 . S
C283 C282 1.395 . S
C283 H309 0.929 . S
C284 C282 1.320 . S
C284 C285 1.405 . S
C284 H310 0.930 . S
C285 C280 1.479 . S
C285 C284 1.405 . S
C285 H311 0.931 . S
U286 O287 2.454 . S
U286 O288 2.458 . S
U286 C289 2.984 . S
U286 C290 2.847 . S
U286 C303 2.882 . S
U286 O304 2.441 . S
U286 O305 2.420 . S
U286 O306 2.455 . S
U286 O307 2.449 . S
O287 U286 2.454 . S
O287 C289 1.353 . S
O288 U286 2.458 . S
O288 C289 1.286 . S
C289 U286 2.984 . S
C289 O287 1.353 . S
C289 O288 1.286 . S
C289 C291 1.363 . S
C290 C280 1.465 . S
C290 U286 2.847 . S
C290 O304 1.249 . S
C290 O305 1.202 . S
C291 C289 1.363 . S
C291 C293 1.408 . S
C291 C296 1.342 . S
C292 C293 1.310 . S
C292 C295 1.461 . S
C292 H312 0.932 . S
C293 C291 1.408 . S
C293 C292 1.310 . S
C293 H313 0.930 . S
C294 C295 1.474 . S
C294 C296 1.285 . S
C294 H314 0.929 . S
C295 C292 1.461 . S
C295 C294 1.474 . S
C296 C291 1.342 . S
C296 C294 1.285 . S
C296 H315 0.930 . S
C297 C300 1.424 . S
C297 C302 1.245 . S
C297 C303 1.428 . S
C298 C301 1.260 . S
C298 C302 1.477 . S
C298 H316 0.932 . S
C299 C300 1.384 . S
C299 C301 1.479 . S
C299 H317 0.929 . S
C300 C297 1.424 . S
C300 C299 1.384 . S
C300 H318 0.928 . S
C301 C298 1.260 . S
C301 C299 1.479 . S
C302 C297 1.245 . S
C302 C298 1.477 . S
C302 H319 0.932 . S
C303 U286 2.882 . S
C303 C297 1.428 . S
C303 O306 1.301 . S
C303 O307 1.282 . S
O304 U286 2.441 . S
O304 C290 1.249 . S
O305 U286 2.420 . S
O305 C290 1.202 . S
O306 U286 2.455 . S
O306 C303 1.301 . S
O307 U286 2.449 . S
O307 C303 1.282 . S
H308 C281 0.931 . S
H309 C283 0.929 . S
H310 C284 0.930 . S
H311 C285 0.931 . S
H312 C292 0.932 . S
H313 C293 0.930 . S
H314 C294 0.929 . S
H315 C296 0.930 . S
H316 C298 0.932 . S
H317 C299 0.929 . S
H318 C300 0.928 . S
H319 C302 0.932 . S
C320 C321 1.264 . S
C320 C325 1.479 . S
C320 C330 1.465 . S
C321 C320 1.264 . S
C321 C323 1.339 . S
C321 H348 0.931 . S
C322 C323 1.395 . S
C322 C324 1.320 . S
C323 C321 1.339 . S
C323 C322 1.395 . S
C323 H349 0.929 . S
C324 C322 1.320 . S
C324 C325 1.405 . S
C324 H350 0.930 . S
C325 C320 1.479 . S
C325 C324 1.405 . S
C325 H351 0.931 . S
U326 O327 2.454 . S
U326 O328 2.458 . S
U326 C329 2.984 . S
U326 C330 2.847 . S
U326 C343 2.882 . S
U326 O344 2.441 . S
U326 O345 2.420 . S
U326 O346 2.455 . S
U326 O347 2.449 . S
O327 U326 2.454 . S
O327 C329 1.353 . S
O328 U326 2.458 . S
O328 C329 1.286 . S
C329 U326 2.984 . S
C329 O327 1.353 . S
C329 O328 1.286 . S
C329 C331 1.363 . S
C330 C320 1.465 . S
C330 U326 2.847 . S
C330 O344 1.249 . S
C330 O345 1.202 . S
C331 C329 1.363 . S
C331 C333 1.408 . S
C331 C336 1.342 . S
C332 C333 1.310 . S
C332 C335 1.461 . S
C332 H352 0.932 . S
C333 C331 1.408 . S
C333 C332 1.310 . S
C333 H353 0.930 . S
C334 C335 1.474 . S
C334 C336 1.285 . S
C334 H354 0.929 . S
C335 C332 1.461 . S
C335 C334 1.474 . S
C336 C331 1.342 . S
C336 C334 1.285 . S
C336 H355 0.930 . S
C337 C340 1.424 . S
C337 C342 1.245 . S
C337 C343 1.428 . S
C338 C341 1.260 . S
C338 C342 1.477 . S
C338 H356 0.932 . S
C339 C340 1.384 . S
C339 C341 1.479 . S
C339 H357 0.929 . S
C340 C337 1.424 . S
C340 C339 1.384 . S
C340 H358 0.928 . S
C341 C338 1.260 . S
C341 C339 1.479 . S
C342 C337 1.245 . S
C342 C338 1.477 . S
C342 H359 0.932 . S
C343 U326 2.882 . S
C343 C337 1.428 . S
C343 O346 1.301 . S
C343 O347 1.282 . S
O344 U326 2.441 . S
O344 C330 1.249 . S
O345 U326 2.420 . S
O345 C330 1.202 . S
O346 U326 2.455 . S
O346 C343 1.301 . S
O347 U326 2.449 . S
O347 C343 1.282 . S
H348 C321 0.931 . S
H349 C323 0.929 . S
H350 C324 0.930 . S
H351 C325 0.931 . S
H352 C332 0.932 . S
H353 C333 0.930 . S
H354 C334 0.929 . S
H355 C336 0.930 . S
H356 C338 0.932 . S
H357 C339 0.929 . S
H358 C340 0.928 . S
H359 C342 0.932 . S
C360 C361 1.264 . S
C360 C365 1.479 . S
C360 C370 1.465 . S
C361 C360 1.264 . S
C361 C363 1.339 . S
C361 H388 0.931 . S
C362 C363 1.395 . S
C362 C364 1.320 . S
C363 C361 1.339 . S
C363 C362 1.395 . S
C363 H389 0.929 . S
C364 C362 1.320 . S
C364 C365 1.405 . S
C364 H390 0.930 . S
C365 C360 1.479 . S
C365 C364 1.405 . S
C365 H391 0.931 . S
U366 O367 2.454 . S
U366 O368 2.458 . S
U366 C369 2.984 . S
U366 C370 2.847 . S
U366 C383 2.882 . S
U366 O384 2.441 . S
U366 O385 2.420 . S
U366 O386 2.455 . S
U366 O387 2.449 . S
O367 U366 2.454 . S
O367 C369 1.353 . S
O368 U366 2.458 . S
O368 C369 1.286 . S
C369 U366 2.984 . S
C369 O367 1.353 . S
C369 O368 1.286 . S
C369 C371 1.363 . S
C370 C360 1.465 . S
C370 U366 2.847 . S
C370 O384 1.249 . S
C370 O385 1.202 . S
C371 C369 1.363 . S
C371 C373 1.408 . S
C371 C376 1.342 . S
C372 C373 1.310 . S
C372 C375 1.461 . S
C372 H392 0.932 . S
C373 C371 1.408 . S
C373 C372 1.310 . S
C373 H393 0.930 . S
C374 C375 1.474 . S
C374 C376 1.285 . S
C374 H394 0.929 . S
C375 C372 1.461 . S
C375 C374 1.474 . S
C376 C371 1.342 . S
C376 C374 1.285 . S
C376 H395 0.930 . S
C377 C380 1.424 . S
C377 C382 1.245 . S
C377 C383 1.428 . S
C378 C381 1.260 . S
C378 C382 1.477 . S
C378 H396 0.932 . S
C379 C380 1.384 . S
C379 C381 1.479 . S
C379 H397 0.929 . S
C380 C377 1.424 . S
C380 C379 1.384 . S
C380 H398 0.928 . S
C381 C378 1.260 . S
C381 C379 1.479 . S
C382 C377 1.245 . S
C382 C378 1.477 . S
C382 H399 0.932 . S
C383 U366 2.882 . S
C383 C377 1.428 . S
C383 O386 1.301 . S
C383 O387 1.282 . S
O384 U366 2.441 . S
O384 C370 1.249 . S
O385 U366 2.420 . S
O385 C370 1.202 . S
O386 U366 2.455 . S
O386 C383 1.301 . S
O387 U366 2.449 . S
O387 C383 1.282 . S
H388 C361 0.931 . S
H389 C363 0.929 . S
H390 C364 0.930 . S
H391 C365 0.931 . S
H392 C372 0.932 . S
H393 C373 0.930 . S
H394 C374 0.929 . S
H395 C376 0.930 . S
H396 C378 0.932 . S
H397 C379 0.929 . S
H398 C380 0.928 . S
H399 C382 0.932 . S
C400 C401 1.264 . S
C400 C405 1.479 . S
C400 C410 1.465 . S
C401 C400 1.264 . S
C401 C403 1.339 . S
C401 H428 0.931 . S
C402 C403 1.395 . S
C402 C404 1.320 . S
C403 C401 1.339 . S
C403 C402 1.395 . S
C403 H429 0.929 . S
C404 C402 1.320 . S
C404 C405 1.405 . S
C404 H430 0.930 . S
C405 C400 1.479 . S
C405 C404 1.405 . S
C405 H431 0.931 . S
U406 O407 2.454 . S
U406 O408 2.458 . S
U406 C409 2.984 . S
U406 C410 2.847 . S
U406 C423 2.882 . S
U406 O424 2.441 . S
U406 O425 2.420 . S
U406 O426 2.455 . S
U406 O427 2.449 . S
O407 U406 2.454 . S
O407 C409 1.353 . S
O408 U406 2.458 . S
O408 C409 1.286 . S
C409 U406 2.984 . S
C409 O407 1.353 . S
C409 O408 1.286 . S
C409 C411 1.363 . S
C410 C400 1.465 . S
C410 U406 2.847 . S
C410 O424 1.249 . S
C410 O425 1.202 . S
C411 C409 1.363 . S
C411 C413 1.408 . S
C411 C416 1.342 . S
C412 C413 1.310 . S
C412 C415 1.461 . S
C412 H432 0.932 . S
C413 C411 1.408 . S
C413 C412 1.310 . S
C413 H433 0.930 . S
C414 C415 1.474 . S
C414 C416 1.285 . S
C414 H434 0.929 . S
C415 C412 1.461 . S
C415 C414 1.474 . S
C416 C411 1.342 . S
C416 C414 1.285 . S
C416 H435 0.930 . S
C417 C420 1.424 . S
C417 C422 1.245 . S
C417 C423 1.428 . S
C418 C421 1.260 . S
C418 C422 1.477 . S
C418 H436 0.932 . S
C419 C420 1.384 . S
C419 C421 1.479 . S
C419 H437 0.929 . S
C420 C417 1.424 . S
C420 C419 1.384 . S
C420 H438 0.928 . S
C421 C418 1.260 . S
C421 C419 1.479 . S
C422 C417 1.245 . S
C422 C418 1.477 . S
C422 H439 0.932 . S
C423 U406 2.882 . S
C423 C417 1.428 . S
C423 O426 1.301 . S
C423 O427 1.282 . S
O424 U406 2.441 . S
O424 C410 1.249 . S
O425 U406 2.420 . S
O425 C410 1.202 . S
O426 U406 2.455 . S
O426 C423 1.301 . S
O427 U406 2.449 . S
O427 C423 1.282 . S
H428 C401 0.931 . S
H429 C403 0.929 . S
H430 C404 0.930 . S
H431 C405 0.931 . S
H432 C412 0.932 . S
H433 C413 0.930 . S
H434 C414 0.929 . S
H435 C416 0.930 . S
H436 C418 0.932 . S
H437 C419 0.929 . S
H438 C420 0.928 . S
H439 C422 0.932 . S
C440 C441 1.264 . S
C440 C445 1.479 . S
C440 C450 1.465 . S
C441 C440 1.264 . S
C441 C443 1.339 . S
C441 H468 0.931 . S
C442 C443 1.395 . S
C442 C444 1.320 . S
C443 C441 1.339 . S
C443 C442 1.395 . S
C443 H469 0.929 . S
C444 C442 1.320 . S
C444 C445 1.405 . S
C444 H470 0.930 . S
C445 C440 1.479 . S
C445 C444 1.405 . S
C445 H471 0.931 . S
U446 O447 2.454 . S
U446 O448 2.458 . S
U446 C449 2.984 . S
U446 C450 2.847 . S
U446 C463 2.882 . S
U446 O464 2.441 . S
U446 O465 2.420 . S
U446 O466 2.455 . S
U446 O467 2.449 . S
O447 U446 2.454 . S
O447 C449 1.353 . S
O448 U446 2.458 . S
O448 C449 1.286 . S
C449 U446 2.984 . S
C449 O447 1.353 . S
C449 O448 1.286 . S
C449 C451 1.363 . S
C450 C440 1.465 . S
C450 U446 2.847 . S
C450 O464 1.249 . S
C450 O465 1.202 . S
C451 C449 1.363 . S
C451 C453 1.408 . S
C451 C456 1.342 . S
C452 C453 1.310 . S
C452 C455 1.461 . S
C452 H472 0.932 . S
C453 C451 1.408 . S
C453 C452 1.310 . S
C453 H473 0.930 . S
C454 C455 1.474 . S
C454 C456 1.285 . S
C454 H474 0.929 . S
C455 C452 1.461 . S
C455 C454 1.474 . S
C456 C451 1.342 . S
C456 C454 1.285 . S
C456 H475 0.930 . S
C457 C460 1.424 . S
C457 C462 1.245 . S
C457 C463 1.428 . S
C458 C461 1.260 . S
C458 C462 1.477 . S
C458 H476 0.932 . S
C459 C460 1.384 . S
C459 C461 1.479 . S
C459 H477 0.929 . S
C460 C457 1.424 . S
C460 C459 1.384 . S
C460 H478 0.928 . S
C461 C458 1.260 . S
C461 C459 1.479 . S
C462 C457 1.245 . S
C462 C458 1.477 . S
C462 H479 0.932 . S
C463 U446 2.882 . S
C463 C457 1.428 . S
C463 O466 1.301 . S
C463 O467 1.282 . S
O464 U446 2.441 . S
O464 C450 1.249 . S
O465 U446 2.420 . S
O465 C450 1.202 . S
O466 U446 2.455 . S
O466 C463 1.301 . S
O467 U446 2.449 . S
O467 C463 1.282 . S
H468 C441 0.931 . S
H469 C443 0.929 . S
H470 C444 0.930 . S
H471 C445 0.931 . S
H472 C452 0.932 . S
H473 C453 0.930 . S
H474 C454 0.929 . S
H475 C456 0.930 . S
H476 C458 0.932 . S
H477 C459 0.929 . S
H478 C460 0.928 . S
H479 C462 0.932 . S
C480 C481 1.264 . S
C480 C485 1.479 . S
C480 C490 1.465 . S
C481 C480 1.264 . S
C481 C483 1.339 . S
C481 H508 0.931 . S
C482 C483 1.395 . S
C482 C484 1.320 . S
C483 C481 1.339 . S
C483 C482 1.395 . S
C483 H509 0.929 . S
C484 C482 1.320 . S
C484 C485 1.405 . S
C484 H510 0.930 . S
C485 C480 1.479 . S
C485 C484 1.405 . S
C485 H511 0.931 . S
U486 O487 2.454 . S
U486 O488 2.458 . S
U486 C489 2.984 . S
U486 C490 2.847 . S
U486 C503 2.882 . S
U486 O504 2.441 . S
U486 O505 2.420 . S
U486 O506 2.455 . S
U486 O507 2.449 . S
O487 U486 2.454 . S
O487 C489 1.353 . S
O488 U486 2.458 . S
O488 C489 1.286 . S
C489 U486 2.984 . S
C489 O487 1.353 . S
C489 O488 1.286 . S
C489 C491 1.363 . S
C490 C480 1.465 . S
C490 U486 2.847 . S
C490 O504 1.249 . S
C490 O505 1.202 . S
C491 C489 1.363 . S
C491 C493 1.408 . S
C491 C496 1.342 . S
C492 C493 1.310 . S
C492 C495 1.461 . S
C492 H512 0.932 . S
C493 C491 1.408 . S
C493 C492 1.310 . S
C493 H513 0.930 . S
C494 C495 1.474 . S
C494 C496 1.285 . S
C494 H514 0.929 . S
C495 C492 1.461 . S
C495 C494 1.474 . S
C496 C491 1.342 . S
C496 C494 1.285 . S
C496 H515 0.930 . S
C497 C500 1.424 . S
C497 C502 1.245 . S
C497 C503 1.428 . S
C498 C501 1.260 . S
C498 C502 1.477 . S
C498 H516 0.932 . S
C499 C500 1.384 . S
C499 C501 1.479 . S
C499 H517 0.929 . S
C500 C497 1.424 . S
C500 C499 1.384 . S
C500 H518 0.928 . S
C501 C498 1.260 . S
C501 C499 1.479 . S
C502 C497 1.245 . S
C502 C498 1.477 . S
C502 H519 0.932 . S
C503 U486 2.882 . S
C503 C497 1.428 . S
C503 O506 1.301 . S
C503 O507 1.282 . S
O504 U486 2.441 . S
O504 C490 1.249 . S
O505 U486 2.420 . S
O505 C490 1.202 . S
O506 U486 2.455 . S
O506 C503 1.301 . S
O507 U486 2.449 . S
O507 C503 1.282 . S
H508 C481 0.931 . S
H509 C483 0.929 . S
H510 C484 0.930 . S
H511 C485 0.931 . S
H512 C492 0.932 . S
H513 C493 0.930 . S
H514 C494 0.929 . S
H515 C496 0.930 . S
H516 C498 0.932 . S
H517 C499 0.929 . S
H518 C500 0.928 . S
H519 C502 0.932 . S
C520 C521 1.264 . S
C520 C525 1.479 . S
C520 C530 1.465 . S
C521 C520 1.264 . S
C521 C523 1.339 . S
C521 H548 0.931 . S
C522 C523 1.395 . S
C522 C524 1.320 . S
C523 C521 1.339 . S
C523 C522 1.395 . S
C523 H549 0.929 . S
C524 C522 1.320 . S
C524 C525 1.405 . S
C524 H550 0.930 . S
C525 C520 1.479 . S
C525 C524 1.405 . S
C525 H551 0.931 . S
U526 O527 2.454 . S
U526 O528 2.458 . S
U526 C529 2.984 . S
U526 C530 2.847 . S
U526 C543 2.882 . S
U526 O544 2.441 . S
U526 O545 2.420 . S
U526 O546 2.455 . S
U526 O547 2.449 . S
O527 U526 2.454 . S
O527 C529 1.353 . S
O528 U526 2.458 . S
O528 C529 1.286 . S
C529 U526 2.984 . S
C529 O527 1.353 . S
C529 O528 1.286 . S
C529 C531 1.363 . S
C530 C520 1.465 . S
C530 U526 2.847 . S
C530 O544 1.249 . S
C530 O545 1.202 . S
C531 C529 1.363 . S
C531 C533 1.408 . S
C531 C536 1.342 . S
C532 C533 1.310 . S
C532 C535 1.461 . S
C532 H552 0.932 . S
C533 C531 1.408 . S
C533 C532 1.310 . S
C533 H553 0.930 . S
C534 C535 1.474 . S
C534 C536 1.285 . S
C534 H554 0.929 . S
C535 C532 1.461 . S
C535 C534 1.474 . S
C536 C531 1.342 . S
C536 C534 1.285 . S
C536 H555 0.930 . S
C537 C540 1.424 . S
C537 C542 1.245 . S
C537 C543 1.428 . S
C538 C541 1.260 . S
C538 C542 1.477 . S
C538 H556 0.932 . S
C539 C540 1.384 . S
C539 C541 1.479 . S
C539 H557 0.929 . S
C540 C537 1.424 . S
C540 C539 1.384 . S
C540 H558 0.928 . S
C541 C538 1.260 . S
C541 C539 1.479 . S
C542 C537 1.245 . S
C542 C538 1.477 . S
C542 H559 0.932 . S
C543 U526 2.882 . S
C543 C537 1.428 . S
C543 O546 1.301 . S
C543 O547 1.282 . S
O544 U526 2.441 . S
O544 C530 1.249 . S
O545 U526 2.420 . S
O545 C530 1.202 . S
O546 U526 2.455 . S
O546 C543 1.301 . S
O547 U526 2.449 . S
O547 C543 1.282 . S
H548 C521 0.931 . S
H549 C523 0.929 . S
H550 C524 0.930 . S
H551 C525 0.931 . S
H552 C532 0.932 . S
H553 C533 0.930 . S
H554 C534 0.929 . S
H555 C536 0.930 . S
H556 C538 0.932 . S
H557 C539 0.929 . S
H558 C540 0.928 . S
H559 C542 0.932 . S
C560 C561 1.264 . S
C560 C565 1.479 . S
C560 C570 1.465 . S
C561 C560 1.264 . S
C561 C563 1.339 . S
C561 H588 0.931 . S
C562 C563 1.395 . S
C562 C564 1.320 . S
C563 C561 1.339 . S
C563 C562 1.395 . S
C563 H589 0.929 . S
C564 C562 1.320 . S
C564 C565 1.405 . S
C564 H590 0.930 . S
C565 C560 1.479 . S
C565 C564 1.405 . S
C565 H591 0.931 . S
U566 O567 2.454 . S
U566 O568 2.458 . S
U566 C569 2.984 . S
U566 C570 2.847 . S
U566 C583 2.882 . S
U566 O584 2.441 . S
U566 O585 2.420 . S
U566 O586 2.455 . S
U566 O587 2.449 . S
O567 U566 2.454 . S
O567 C569 1.353 . S
O568 U566 2.458 . S
O568 C569 1.286 . S
C569 U566 2.984 . S
C569 O567 1.353 . S
C569 O568 1.286 . S
C569 C571 1.363 . S
C570 C560 1.465 . S
C570 U566 2.847 . S
C570 O584 1.249 . S
C570 O585 1.202 . S
C571 C569 1.363 . S
C571 C573 1.408 . S
C571 C576 1.342 . S
C572 C573 1.310 . S
C572 C575 1.461 . S
C572 H592 0.932 . S
C573 C571 1.408 . S
C573 C572 1.310 . S
C573 H593 0.930 . S
C574 C575 1.474 . S
C574 C576 1.285 . S
C574 H594 0.929 . S
C575 C572 1.461 . S
C575 C574 1.474 . S
C576 C571 1.342 . S
C576 C574 1.285 . S
C576 H595 0.930 . S
C577 C580 1.424 . S
C577 C582 1.245 . S
C577 C583 1.428 . S
C578 C581 1.260 . S
C578 C582 1.477 . S
C578 H596 0.932 . S
C579 C580 1.384 . S
C579 C581 1.479 . S
C579 H597 0.929 . S
C580 C577 1.424 . S
C580 C579 1.384 . S
C580 H598 0.928 . S
C581 C578 1.260 . S
C581 C579 1.479 . S
C582 C577 1.245 . S
C582 C578 1.477 . S
C582 H599 0.932 . S
C583 U566 2.882 . S
C583 C577 1.428 . S
C583 O586 1.301 . S
C583 O587 1.282 . S
O584 U566 2.441 . S
O584 C570 1.249 . S
O585 U566 2.420 . S
O585 C570 1.202 . S
O586 U566 2.455 . S
O586 C583 1.301 . S
O587 U566 2.449 . S
O587 C583 1.282 . S
H588 C561 0.931 . S
H589 C563 0.929 . S
H590 C564 0.930 . S
H591 C565 0.931 . S
H592 C572 0.932 . S
H593 C573 0.930 . S
H594 C574 0.929 . S
H595 C576 0.930 . S
H596 C578 0.932 . S
H597 C579 0.929 . S
H598 C580 0.928 . S
H599 C582 0.932 . S
C600 C601 1.264 . S
C600 C605 1.479 . S
C600 C610 1.465 . S
C601 C600 1.264 . S
C601 C603 1.339 . S
C601 H628 0.931 . S
C602 C603 1.395 . S
C602 C604 1.320 . S
C603 C601 1.339 . S
C603 C602 1.395 . S
C603 H629 0.929 . S
C604 C602 1.320 . S
C604 C605 1.405 . S
C604 H630 0.930 . S
C605 C600 1.479 . S
C605 C604 1.405 . S
C605 H631 0.931 . S
U606 O607 2.454 . S
U606 O608 2.458 . S
U606 C609 2.984 . S
U606 C610 2.847 . S
U606 C623 2.882 . S
U606 O624 2.441 . S
U606 O625 2.420 . S
U606 O626 2.455 . S
U606 O627 2.449 . S
O607 U606 2.454 . S
O607 C609 1.353 . S
O608 U606 2.458 . S
O608 C609 1.286 . S
C609 U606 2.984 . S
C609 O607 1.353 . S
C609 O608 1.286 . S
C609 C611 1.363 . S
C610 C600 1.465 . S
C610 U606 2.847 . S
C610 O624 1.249 . S
C610 O625 1.202 . S
C611 C609 1.363 . S
C611 C613 1.408 . S
C611 C616 1.342 . S
C612 C613 1.310 . S
C612 C615 1.461 . S
C612 H632 0.932 . S
C613 C611 1.408 . S
C613 C612 1.310 . S
C613 H633 0.930 . S
C614 C615 1.474 . S
C614 C616 1.285 . S
C614 H634 0.929 . S
C615 C612 1.461 . S
C615 C614 1.474 . S
C616 C611 1.342 . S
C616 C614 1.285 . S
C616 H635 0.930 . S
C617 C620 1.424 . S
C617 C622 1.245 . S
C617 C623 1.428 . S
C618 C621 1.260 . S
C618 C622 1.477 . S
C618 H636 0.932 . S
C619 C620 1.384 . S
C619 C621 1.479 . S
C619 H637 0.929 . S
C620 C617 1.424 . S
C620 C619 1.384 . S
C620 H638 0.928 . S
C621 C618 1.260 . S
C621 C619 1.479 . S
C622 C617 1.245 . S
C622 C618 1.477 . S
C622 H639 0.932 . S
C623 U606 2.882 . S
C623 C617 1.428 . S
C623 O626 1.301 . S
C623 O627 1.282 . S
O624 U606 2.441 . S
O624 C610 1.249 . S
O625 U606 2.420 . S
O625 C610 1.202 . S
O626 U606 2.455 . S
O626 C623 1.301 . S
O627 U606 2.449 . S
O627 C623 1.282 . S
H628 C601 0.931 . S
H629 C603 0.929 . S
H630 C604 0.930 . S
H631 C605 0.931 . S
H632 C612 0.932 . S
H633 C613 0.930 . S
H634 C614 0.929 . S
H635 C616 0.930 . S
H636 C618 0.932 . S
H637 C619 0.929 . S
H638 C620 0.928 . S
H639 C622 0.932 . S
C640 C641 1.264 . S
C640 C645 1.479 . S
C640 C650 1.465 . S
C641 C640 1.264 . S
C641 C643 1.339 . S
C641 H668 0.931 . S
C642 C643 1.395 . S
C642 C644 1.320 . S
C643 C641 1.339 . S
C643 C642 1.395 . S
C643 H669 0.929 . S
C644 C642 1.320 . S
C644 C645 1.405 . S
C644 H670 0.930 . S
C645 C640 1.479 . S
C645 C644 1.405 . S
C645 H671 0.931 . S
U646 O647 2.454 . S
U646 O648 2.458 . S
U646 C649 2.984 . S
U646 C650 2.847 . S
U646 C663 2.882 . S
U646 O664 2.441 . S
U646 O665 2.420 . S
U646 O666 2.455 . S
U646 O667 2.449 . S
O647 U646 2.454 . S
O647 C649 1.353 . S
O648 U646 2.458 . S
O648 C649 1.286 . S
C649 U646 2.984 . S
C649 O647 1.353 . S
C649 O648 1.286 . S
C649 C651 1.363 . S
C650 C640 1.465 . S
C650 U646 2.847 . S
C650 O664 1.249 . S
C650 O665 1.202 . S
C651 C649 1.363 . S
C651 C653 1.408 . S
C651 C656 1.342 . S
C652 C653 1.310 . S
C652 C655 1.461 . S
C652 H672 0.932 . S
C653 C651 1.408 . S
C653 C652 1.310 . S
C653 H673 0.930 . S
C654 C655 1.474 . S
C654 C656 1.285 . S
C654 H674 0.929 . S
C655 C652 1.461 . S
C655 C654 1.474 . S
C656 C651 1.342 . S
C656 C654 1.285 . S
C656 H675 0.930 . S
C657 C660 1.424 . S
C657 C662 1.245 . S
C657 C663 1.428 . S
C658 C661 1.260 . S
C658 C662 1.477 . S
C658 H676 0.932 . S
C659 C660 1.384 . S
C659 C661 1.479 . S
C659 H677 0.929 . S
C660 C657 1.424 . S
C660 C659 1.384 . S
C660 H678 0.928 . S
C661 C658 1.260 . S
C661 C659 1.479 . S
C662 C657 1.245 . S
C662 C658 1.477 . S
C662 H679 0.932 . S
C663 U646 2.882 . S
C663 C657 1.428 . S
C663 O666 1.301 . S
C663 O667 1.282 . S
O664 U646 2.441 . S
O664 C650 1.249 . S
O665 U646 2.420 . S
O665 C650 1.202 . S
O666 U646 2.455 . S
O666 C663 1.301 . S
O667 U646 2.449 . S
O667 C663 1.282 . S
H668 C641 0.931 . S
H669 C643 0.929 . S
H670 C644 0.930 . S
H671 C645 0.931 . S
H672 C652 0.932 . S
H673 C653 0.930 . S
H674 C654 0.929 . S
H675 C656 0.930 . S
H676 C658 0.932 . S
H677 C659 0.929 . S
H678 C660 0.928 . S
H679 C662 0.932 . S
C680 C681 1.264 . S
C680 C685 1.479 . S
C680 C690 1.465 . S
C681 C680 1.264 . S
C681 C683 1.339 . S
C681 H708 0.931 . S
C682 C683 1.395 . S
C682 C684 1.320 . S
C683 C681 1.339 . S
C683 C682 1.395 . S
C683 H709 0.929 . S
C684 C682 1.320 . S
C684 C685 1.405 . S
C684 H710 0.930 . S
C685 C680 1.479 . S
C685 C684 1.405 . S
C685 H711 0.931 . S
U686 O687 2.454 . S
U686 O688 2.458 . S
U686 C689 2.984 . S
U686 C690 2.847 . S
U686 C703 2.882 . S
U686 O704 2.441 . S
U686 O705 2.420 . S
U686 O706 2.455 . S
U686 O707 2.449 . S
O687 U686 2.454 . S
O687 C689 1.353 . S
O688 U686 2.458 . S
O688 C689 1.286 . S
C689 U686 2.984 . S
C689 O687 1.353 . S
C689 O688 1.286 . S
C689 C691 1.363 . S
C690 C680 1.465 . S
C690 U686 2.847 . S
C690 O704 1.249 . S
C690 O705 1.202 . S
C691 C689 1.363 . S
C691 C693 1.408 . S
C691 C696 1.342 . S
C692 C693 1.310 . S
C692 C695 1.461 . S
C692 H712 0.932 . S
C693 C691 1.408 . S
C693 C692 1.310 . S
C693 H713 0.930 . S
C694 C695 1.474 . S
C694 C696 1.285 . S
C694 H714 0.929 . S
C695 C692 1.461 . S
C695 C694 1.474 . S
C696 C691 1.342 . S
C696 C694 1.285 . S
C696 H715 0.930 . S
C697 C700 1.424 . S
C697 C702 1.245 . S
C697 C703 1.428 . S
C698 C701 1.260 . S
C698 C702 1.477 . S
C698 H716 0.932 . S
C699 C700 1.384 . S
C699 C701 1.479 . S
C699 H717 0.929 . S
C700 C697 1.424 . S
C700 C699 1.384 . S
C700 H718 0.928 . S
C701 C698 1.260 . S
C701 C699 1.479 . S
C702 C697 1.245 . S
C702 C698 1.477 . S
C702 H719 0.932 . S
C703 U686 2.882 . S
C703 C697 1.428 . S
C703 O706 1.301 . S
C703 O707 1.282 . S
O704 U686 2.441 . S
O704 C690 1.249 . S
O705 U686 2.420 . S
O705 C690 1.202 . S
O706 U686 2.455 . S
O706 C703 1.301 . S
O707 U686 2.449 . S
O707 C703 1.282 . S
H708 C681 0.931 . S
H709 C683 0.929 . S
H710 C684 0.930 . S
H711 C685 0.931 . S
H712 C692 0.932 . S
H713 C693 0.930 . S
H714 C694 0.929 . S
H715 C696 0.930 . S
H716 C698 0.932 . S
H717 C699 0.929 . S
H718 C700 0.928 . S
H719 C702 0.932 . S
C720 C721 1.264 . S
C720 C725 1.479 . S
C720 C730 1.465 . S
C721 C720 1.264 . S
C721 C723 1.339 . S
C721 H748 0.931 . S
C722 C723 1.395 . S
C722 C724 1.320 . S
C723 C721 1.339 . S
C723 C722 1.395 . S
C723 H749 0.929 . S
C724 C722 1.320 . S
C724 C725 1.405 . S
C724 H750 0.930 . S
C725 C720 1.479 . S
C725 C724 1.405 . S
C725 H751 0.931 . S
U726 O727 2.454 . S
U726 O728 2.458 . S
U726 C729 2.984 . S
U726 C730 2.847 . S
U726 C743 2.882 . S
U726 O744 2.441 . S
U726 O745 2.420 . S
U726 O746 2.455 . S
U726 O747 2.449 . S
O727 U726 2.454 . S
O727 C729 1.353 . S
O728 U726 2.458 . S
O728 C729 1.286 . S
C729 U726 2.984 . S
C729 O727 1.353 . S
C729 O728 1.286 . S
C729 C731 1.363 . S
C730 C720 1.465 . S
C730 U726 2.847 . S
C730 O744 1.249 . S
C730 O745 1.202 . S
C731 C729 1.363 . S
C731 C733 1.408 . S
C731 C736 1.342 . S
C732 C733 1.310 . S
C732 C735 1.461 . S
C732 H752 0.932 . S
C733 C731 1.408 . S
C733 C732 1.310 . S
C733 H753 0.930 . S
C734 C735 1.474 . S
C734 C736 1.285 . S
C734 H754 0.929 . S
C735 C732 1.461 . S
C735 C734 1.474 . S
C736 C731 1.342 . S
C736 C734 1.285 . S
C736 H755 0.930 . S
C737 C740 1.424 . S
C737 C742 1.245 . S
C737 C743 1.428 . S
C738 C741 1.260 . S
C738 C742 1.477 . S
C738 H756 0.932 . S
C739 C740 1.384 . S
C739 C741 1.479 . S
C739 H757 0.929 . S
C740 C737 1.424 . S
C740 C739 1.384 . S
C740 H758 0.928 . S
C741 C738 1.260 . S
C741 C739 1.479 . S
C742 C737 1.245 . S
C742 C738 1.477 . S
C742 H759 0.932 . S
C743 U726 2.882 . S
C743 C737 1.428 . S
C743 O746 1.301 . S
C743 O747 1.282 . S
O744 U726 2.441 . S
O744 C730 1.249 . S
O745 U726 2.420 . S
O745 C730 1.202 . S
O746 U726 2.455 . S
O746 C743 1.301 . S
O747 U726 2.449 . S
O747 C743 1.282 . S
H748 C721 0.931 . S
H749 C723 0.929 . S
H750 C724 0.930 . S
H751 C725 0.931 . S
H752 C732 0.932 . S
H753 C733 0.930 . S
H754 C734 0.929 . S
H755 C736 0.930 . S
H756 C738 0.932 . S
H757 C739 0.929 . S
H758 C740 0.928 . S
H759 C742 0.932 . S
C760 C761 1.264 . S
C760 C765 1.479 . S
C760 C770 1.465 . S
C761 C760 1.264 . S
C761 C763 1.339 . S
C761 H788 0.931 . S
C762 C763 1.395 . S
C762 C764 1.320 . S
C763 C761 1.339 . S
C763 C762 1.395 . S
C763 H789 0.929 . S
C764 C762 1.320 . S
C764 C765 1.405 . S
C764 H790 0.930 . S
C765 C760 1.479 . S
C765 C764 1.405 . S
C765 H791 0.931 . S
U766 O767 2.454 . S
U766 O768 2.458 . S
U766 C769 2.984 . S
U766 C770 2.847 . S
U766 C783 2.882 . S
U766 O784 2.441 . S
U766 O785 2.420 . S
U766 O786 2.455 . S
U766 O787 2.449 . S
O767 U766 2.454 . S
O767 C769 1.353 . S
O768 U766 2.458 . S
O768 C769 1.286 . S
C769 U766 2.984 . S
C769 O767 1.353 . S
C769 O768 1.286 . S
C769 C771 1.363 . S
C770 C760 1.465 . S
C770 U766 2.847 . S
C770 O784 1.249 . S
C770 O785 1.202 . S
C771 C769 1.363 . S
C771 C773 1.408 . S
C771 C776 1.342 . S
C772 C773 1.310 . S
C772 C775 1.461 . S
C772 H792 0.932 . S
C773 C771 1.408 . S
C773 C772 1.310 . S
C773 H793 0.930 . S
C774 C775 1.474 . S
C774 C776 1.285 . S
C774 H794 0.929 . S
C775 C772 1.461 . S
C775 C774 1.474 . S
C776 C771 1.342 . S
C776 C774 1.285 . S
C776 H795 0.930 . S
C777 C780 1.424 . S
C777 C782 1.245 . S
C777 C783 1.428 . S
C778 C781 1.260 . S
C778 C782 1.477 . S
C778 H796 0.932 . S
C779 C780 1.384 . S
C779 C781 1.479 . S
C779 H797 0.929 . S
C780 C777 1.424 . S
C780 C779 1.384 . S
C780 H798 0.928 . S
C781 C778 1.260 . S
C781 C779 1.479 . S
C782 C777 1.245 . S
C782 C778 1.477 . S
C782 H799 0.932 . S
C783 U766 2.882 . S
C783 C777 1.428 . S
C783 O786 1.301 . S
C783 O787 1.282 . S
O784 U766 2.441 . S
O784 C770 1.249 . S
O785 U766 2.420 . S
O785 C770 1.202 . S
O786 U766 2.455 . S
O786 C783 1.301 . S
O787 U766 2.449 . S
O787 C783 1.282 . S
H788 C761 0.931 . S
H789 C763 0.929 . S
H790 C764 0.930 . S
H791 C765 0.931 . S
H792 C772 0.932 . S
H793 C773 0.930 . S
H794 C774 0.929 . S
H795 C776 0.930 . S
H796 C778 0.932 . S
H797 C779 0.929 . S
H798 C780 0.928 . S
H799 C782 0.932 . S
C800 C801 1.264 . S
C800 C805 1.479 . S
C800 C810 1.465 . S
C801 C800 1.264 . S
C801 C803 1.339 . S
C801 H828 0.931 . S
C802 C803 1.395 . S
C802 C804 1.320 . S
C803 C801 1.339 . S
C803 C802 1.395 . S
C803 H829 0.929 . S
C804 C802 1.320 . S
C804 C805 1.405 . S
C804 H830 0.930 . S
C805 C800 1.479 . S
C805 C804 1.405 . S
C805 H831 0.931 . S
U806 O807 2.454 . S
U806 O808 2.458 . S
U806 C809 2.984 . S
U806 C810 2.847 . S
U806 C823 2.882 . S
U806 O824 2.441 . S
U806 O825 2.420 . S
U806 O826 2.455 . S
U806 O827 2.449 . S
O807 U806 2.454 . S
O807 C809 1.353 . S
O808 U806 2.458 . S
O808 C809 1.286 . S
C809 U806 2.984 . S
C809 O807 1.353 . S
C809 O808 1.286 . S
C809 C811 1.363 . S
C810 C800 1.465 . S
C810 U806 2.847 . S
C810 O824 1.249 . S
C810 O825 1.202 . S
C811 C809 1.363 . S
C811 C813 1.408 . S
C811 C816 1.342 . S
C812 C813 1.310 . S
C812 C815 1.461 . S
C812 H832 0.932 . S
C813 C811 1.408 . S
C813 C812 1.310 . S
C813 H833 0.930 . S
C814 C815 1.474 . S
C814 C816 1.285 . S
C814 H834 0.929 . S
C815 C812 1.461 . S
C815 C814 1.474 . S
C816 C811 1.342 . S
C816 C814 1.285 . S
C816 H835 0.930 . S
C817 C820 1.424 . S
C817 C822 1.245 . S
C817 C823 1.428 . S
C818 C821 1.260 . S
C818 C822 1.477 . S
C818 H836 0.932 . S
C819 C820 1.384 . S
C819 C821 1.479 . S
C819 H837 0.929 . S
C820 C817 1.424 . S
C820 C819 1.384 . S
C820 H838 0.928 . S
C821 C818 1.260 . S
C821 C819 1.479 . S
C822 C817 1.245 . S
C822 C818 1.477 . S
C822 H839 0.932 . S
C823 U806 2.882 . S
C823 C817 1.428 . S
C823 O826 1.301 . S
C823 O827 1.282 . S
O824 U806 2.441 . S
O824 C810 1.249 . S
O825 U806 2.420 . S
O825 C810 1.202 . S
O826 U806 2.455 . S
O826 C823 1.301 . S
O827 U806 2.449 . S
O827 C823 1.282 . S
H828 C801 0.931 . S
H829 C803 0.929 . S
H830 C804 0.930 . S
H831 C805 0.931 . S
H832 C812 0.932 . S
H833 C813 0.930 . S
H834 C814 0.929 . S
H835 C816 0.930 . S
H836 C818 0.932 . S
H837 C819 0.929 . S
H838 C820 0.928 . S
H839 C822 0.932 . S
C840 C841 1.264 . S
C840 C845 1.479 . S
C840 C850 1.465 . S
C841 C840 1.264 . S
C841 C843 1.339 . S
C841 H868 0.931 . S
C842 C843 1.395 . S
C842 C844 1.320 . S
C843 C841 1.339 . S
C843 C842 1.395 . S
C843 H869 0.929 . S
C844 C842 1.320 . S
C844 C845 1.405 . S
C844 H870 0.930 . S
C845 C840 1.479 . S
C845 C844 1.405 . S
C845 H871 0.931 . S
U846 O847 2.454 . S
U846 O848 2.458 . S
U846 C849 2.984 . S
U846 C850 2.847 . S
U846 C863 2.882 . S
U846 O864 2.441 . S
U846 O865 2.420 . S
U846 O866 2.455 . S
U846 O867 2.449 . S
O847 U846 2.454 . S
O847 C849 1.353 . S
O848 U846 2.458 . S
O848 C849 1.286 . S
C849 U846 2.984 . S
C849 O847 1.353 . S
C849 O848 1.286 . S
C849 C851 1.363 . S
C850 C840 1.465 . S
C850 U846 2.847 . S
C850 O864 1.249 . S
C850 O865 1.202 . S
C851 C849 1.363 . S
C851 C853 1.408 . S
C851 C856 1.342 . S
C852 C853 1.310 . S
C852 C855 1.461 . S
C852 H872 0.932 . S
C853 C851 1.408 . S
C853 C852 1.310 . S
C853 H873 0.930 . S
C854 C855 1.474 . S
C854 C856 1.285 . S
C854 H874 0.929 . S
C855 C852 1.461 . S
C855 C854 1.474 . S
C856 C851 1.342 . S
C856 C854 1.285 . S
C856 H875 0.930 . S
C857 C860 1.424 . S
C857 C862 1.245 . S
C857 C863 1.428 . S
C858 C861 1.260 . S
C858 C862 1.477 . S
C858 H876 0.932 . S
C859 C860 1.384 . S
C859 C861 1.479 . S
C859 H877 0.929 . S
C860 C857 1.424 . S
C860 C859 1.384 . S
C860 H878 0.928 . S
C861 C858 1.260 . S
C861 C859 1.479 . S
C862 C857 1.245 . S
C862 C858 1.477 . S
C862 H879 0.932 . S
C863 U846 2.882 . S
C863 C857 1.428 . S
C863 O866 1.301 . S
C863 O867 1.282 . S
O864 U846 2.441 . S
O864 C850 1.249 . S
O865 U846 2.420 . S
O865 C850 1.202 . S
O866 U846 2.455 . S
O866 C863 1.301 . S
O867 U846 2.449 . S
O867 C863 1.282 . S
H868 C841 0.931 . S
H869 C843 0.929 . S
H870 C844 0.930 . S
H871 C845 0.931 . S
H872 C852 0.932 . S
H873 C853 0.930 . S
H874 C854 0.929 . S
H875 C856 0.930 . S
H876 C858 0.932 . S
H877 C859 0.929 . S
H878 C860 0.928 . S
H879 C862 0.932 . S
C880 C881 1.264 . S
C880 C885 1.479 . S
C880 C890 1.465 . S
C881 C880 1.264 . S
C881 C883 1.339 . S
C881 H908 0.931 . S
C882 C883 1.395 . S
C882 C884 1.320 . S
C883 C881 1.339 . S
C883 C882 1.395 . S
C883 H909 0.929 . S
C884 C882 1.320 . S
C884 C885 1.405 . S
C884 H910 0.930 . S
C885 C880 1.479 . S
C885 C884 1.405 . S
C885 H911 0.931 . S
U886 O887 2.454 . S
U886 O888 2.458 . S
U886 C889 2.984 . S
U886 C890 2.847 . S
U886 C903 2.882 . S
U886 O904 2.441 . S
U886 O905 2.420 . S
U886 O906 2.455 . S
U886 O907 2.449 . S
O887 U886 2.454 . S
O887 C889 1.353 . S
O888 U886 2.458 . S
O888 C889 1.286 . S
C889 U886 2.984 . S
C889 O887 1.353 . S
C889 O888 1.286 . S
C889 C891 1.363 . S
C890 C880 1.465 . S
C890 U886 2.847 . S
C890 O904 1.249 . S
C890 O905 1.202 . S
C891 C889 1.363 . S
C891 C893 1.408 . S
C891 C896 1.342 . S
C892 C893 1.310 . S
C892 C895 1.461 . S
C892 H912 0.932 . S
C893 C891 1.408 . S
C893 C892 1.310 . S
C893 H913 0.930 . S
C894 C895 1.474 . S
C894 C896 1.285 . S
C894 H914 0.929 . S
C895 C892 1.461 . S
C895 C894 1.474 . S
C896 C891 1.342 . S
C896 C894 1.285 . S
C896 H915 0.930 . S
C897 C900 1.424 . S
C897 C902 1.245 . S
C897 C903 1.428 . S
C898 C901 1.260 . S
C898 C902 1.477 . S
C898 H916 0.932 . S
C899 C900 1.384 . S
C899 C901 1.479 . S
C899 H917 0.929 . S
C900 C897 1.424 . S
C900 C899 1.384 . S
C900 H918 0.928 . S
C901 C898 1.260 . S
C901 C899 1.479 . S
C902 C897 1.245 . S
C902 C898 1.477 . S
C902 H919 0.932 . S
C903 U886 2.882 . S
C903 C897 1.428 . S
C903 O906 1.301 . S
C903 O907 1.282 . S
O904 U886 2.441 . S
O904 C890 1.249 . S
O905 U886 2.420 . S
O905 C890 1.202 . S
O906 U886 2.455 . S
O906 C903 1.301 . S
O907 U886 2.449 . S
O907 C903 1.282 . S
H908 C881 0.931 . S
H909 C883 0.929 . S
H910 C884 0.930 . S
H911 C885 0.931 . S
H912 C892 0.932 . S
H913 C893 0.930 . S
H914 C894 0.929 . S
H915 C896 0.930 . S
H916 C898 0.932 . S
H917 C899 0.929 . S
H918 C900 0.928 . S
H919 C902 0.932 . S
C920 C921 1.264 . S
C920 C925 1.479 . S
C920 C930 1.465 . S
C921 C920 1.264 . S
C921 C923 1.339 . S
C921 H948 0.931 . S
C922 C923 1.395 . S
C922 C924 1.320 . S
C923 C921 1.339 . S
C923 C922 1.395 . S
C923 H949 0.929 . S
C924 C922 1.320 . S
C924 C925 1.405 . S
C924 H950 0.930 . S
C925 C920 1.479 . S
C925 C924 1.405 . S
C925 H951 0.931 . S
U926 O927 2.454 . S
U926 O928 2.458 . S
U926 C929 2.984 . S
U926 C930 2.847 . S
U926 C943 2.882 . S
U926 O944 2.441 . S
U926 O945 2.420 . S
U926 O946 2.455 . S
U926 O947 2.449 . S
O927 U926 2.454 . S
O927 C929 1.353 . S
O928 U926 2.458 . S
O928 C929 1.286 . S
C929 U926 2.984 . S
C929 O927 1.353 . S
C929 O928 1.286 . S
C929 C931 1.363 . S
C930 C920 1.465 . S
C930 U926 2.847 . S
C930 O944 1.249 . S
C930 O945 1.202 . S
C931 C929 1.363 . S
C931 C933 1.408 . S
C931 C936 1.342 . S
C932 C933 1.310 . S
C932 C935 1.461 . S
C932 H952 0.932 . S
C933 C931 1.408 . S
C933 C932 1.310 . S
C933 H953 0.930 . S
C934 C935 1.474 . S
C934 C936 1.285 . S
C934 H954 0.929 . S
C935 C932 1.461 . S
C935 C934 1.474 . S
C936 C931 1.342 . S
C936 C934 1.285 . S
C936 H955 0.930 . S
C937 C940 1.424 . S
C937 C942 1.245 . S
C937 C943 1.428 . S
C938 C941 1.260 . S
C938 C942 1.477 . S
C938 H956 0.932 . S
C939 C940 1.384 . S
C939 C941 1.479 . S
C939 H957 0.929 . S
C940 C937 1.424 . S
C940 C939 1.384 . S
C940 H958 0.928 . S
C941 C938 1.260 . S
C941 C939 1.479 . S
C942 C937 1.245 . S
C942 C938 1.477 . S
C942 H959 0.932 . S
C943 U926 2.882 . S
C943 C937 1.428 . S
C943 O946 1.301 . S
C943 O947 1.282 . S
O944 U926 2.441 . S
O944 C930 1.249 . S
O945 U926 2.420 . S
O945 C930 1.202 . S
O946 U926 2.455 . S
O946 C943 1.301 . S
O947 U926 2.449 . S
O947 C943 1.282 . S
H948 C921 0.931 . S
H949 C923 0.929 . S
H950 C924 0.930 . S
H951 C925 0.931 . S
H952 C932 0.932 . S
H953 C933 0.930 . S
H954 C934 0.929 . S
H955 C936 0.930 . S
H956 C938 0.932 . S
H957 C939 0.929 . S
H958 C940 0.928 . S
H959 C942 0.932 . S
C960 C961 1.264 . S
C960 C965 1.479 . S
C960 C970 1.465 . S
C961 C960 1.264 . S
C961 C963 1.339 . S
C961 H988 0.931 . S
C962 C963 1.395 . S
C962 C964 1.320 . S
C963 C961 1.339 . S
C963 C962 1.395 . S
C963 H989 0.929 . S
C964 C962 1.320 . S
C964 C965 1.405 . S
C964 H990 0.930 . S
C965 C960 1.479 . S
C965 C964 1.405 . S
C965 H991 0.931 . S
U966 O967 2.454 . S
U966 O968 2.458 . S
U966 C969 2.984 . S
U966 C970 2.847 . S
U966 C983 2.882 . S
U966 O984 2.441 . S
U966 O985 2.420 . S
U966 O986 2.455 . S
U966 O987 2.449 . S
O967 U966 2.454 . S
O967 C969 1.353 . S
O968 U966 2.458 . S
O968 C969 1.286 . S
C969 U966 2.984 . S
C969 O967 1.353 . S
C969 O968 1.286 . S
C969 C971 1.363 . S
C970 C960 1.465 . S
C970 U966 2.847 . S
C970 O984 1.249 . S
C970 O985 1.202 . S
C971 C969 1.363 . S
C971 C973 1.408 . S
C971 C976 1.342 . S
C972 C973 1.310 . S
C972 C975 1.461 . S
C972 H992 0.932 . S
C973 C971 1.408 . S
C973 C972 1.310 . S
C973 H993 0.930 . S
C974 C975 1.474 . S
C974 C976 1.285 . S
C974 H994 0.929 . S
C975 C972 1.461 . S
C975 C974 1.474 . S
C976 C971 1.342 . S
C976 C974 1.285 . S
C976 H995 0.930 . S
C977 C980 1.424 . S
C977 C982 1.245 . S
C977 C983 1.428 . S
C978 C981 1.260 . S
C978 C982 1.477 . S
C978 H996 0.932 . S
C979 C980 1.384 . S
C979 C981 1.479 . S
C979 H997 0.929 . S
C980 C977 1.424 . S
C980 C979 1.384 . S
C980 H998 0.928 . S
C981 C978 1.260 . S
C981 C979 1.479 . S
C982 C977 1.245 . S
C982 C978 1.477 . S
C982 H999 0.932 . S
C983 U966 2.882 . S
C983 C977 1.428 . S
C983 O986 1.301 . S
C983 O987 1.282 . S
O984 U966 2.441 . S
O984 C970 1.249 . S
O985 U966 2.420 . S
O985 C970 1.202 . S
O986 U966 2.455 . S
O986 C983 1.301 . S
O987 U966 2.449 . S
O987 C983 1.282 . S
H988 C961 0.931 . S
H989 C963 0.929 . S
H990 C964 0.930 . S
H991 C965 0.931 . S
H992 C972 0.932 . S
H993 C973 0.930 . S
H994 C974 0.929 . S
H995 C976 0.930 . S
H996 C978 0.932 . S
H997 C979 0.929 . S
H998 C980 0.928 . S
H999 C982 0.932 . S
C1000 C1001 1.264 . S
C1000 C1005 1.479 . S
C1000 C1010 1.465 . S
C1001 C1000 1.264 . S
C1001 C1003 1.339 . S
C1001 H1028 0.931 . S
C1002 C1003 1.395 . S
C1002 C1004 1.320 . S
C1003 C1001 1.339 . S
C1003 C1002 1.395 . S
C1003 H1029 0.929 . S
C1004 C1002 1.320 . S
C1004 C1005 1.405 . S
C1004 H1030 0.930 . S
C1005 C1000 1.479 . S
C1005 C1004 1.405 . S
C1005 H1031 0.931 . S
U1006 O1007 2.454 . S
U1006 O1008 2.458 . S
U1006 C1009 2.984 . S
U1006 C1010 2.847 . S
U1006 C1023 2.882 . S
U1006 O1024 2.441 . S
U1006 O1025 2.420 . S
U1006 O1026 2.455 . S
U1006 O1027 2.449 . S
O1007 U1006 2.454 . S
O1007 C1009 1.353 . S
O1008 U1006 2.458 . S
O1008 C1009 1.286 . S
C1009 U1006 2.984 . S
C1009 O1007 1.353 . S
C1009 O1008 1.286 . S
C1009 C1011 1.363 . S
C1010 C1000 1.465 . S
C1010 U1006 2.847 . S
C1010 O1024 1.249 . S
C1010 O1025 1.202 . S
C1011 C1009 1.363 . S
C1011 C1013 1.408 . S
C1011 C1016 1.342 . S
C1012 C1013 1.310 . S
C1012 C1015 1.461 . S
C1012 H1032 0.932 . S
C1013 C1011 1.408 . S
C1013 C1012 1.310 . S
C1013 H1033 0.930 . S
C1014 C1015 1.474 . S
C1014 C1016 1.285 . S
C1014 H1034 0.929 . S
C1015 C1012 1.461 . S
C1015 C1014 1.474 . S
C1016 C1011 1.342 . S
C1016 C1014 1.285 . S
C1016 H1035 0.930 . S
C1017 C1020 1.424 . S
C1017 C1022 1.245 . S
C1017 C1023 1.428 . S
C1018 C1021 1.260 . S
C1018 C1022 1.477 . S
C1018 H1036 0.932 . S
C1019 C1020 1.384 . S
C1019 C1021 1.479 . S
C1019 H1037 0.929 . S
C1020 C1017 1.424 . S
C1020 C1019 1.384 . S
C1020 H1038 0.928 . S
C1021 C1018 1.260 . S
C1021 C1019 1.479 . S
C1022 C1017 1.245 . S
C1022 C1018 1.477 . S
C1022 H1039 0.932 . S
C1023 U1006 2.882 . S
C1023 C1017 1.428 . S
C1023 O1026 1.301 . S
C1023 O1027 1.282 . S
O1024 U1006 2.441 . S
O1024 C1010 1.249 . S
O1025 U1006 2.420 . S
O1025 C1010 1.202 . S
O1026 U1006 2.455 . S
O1026 C1023 1.301 . S
O1027 U1006 2.449 . S
O1027 C1023 1.282 . S
H1028 C1001 0.931 . S
H1029 C1003 0.929 . S
H1030 C1004 0.930 . S
H1031 C1005 0.931 . S
H1032 C1012 0.932 . S
H1033 C1013 0.930 . S
H1034 C1014 0.929 . S
H1035 C1016 0.930 . S
H1036 C1018 0.932 . S
H1037 C1019 0.929 . S
H1038 C1020 0.928 . S
H1039 C1022 0.932 . S
C1040 C1041 1.264 . S
C1040 C1045 1.479 . S
C1040 C1050 1.465 . S
C1041 C1040 1.264 . S
C1041 C1043 1.339 . S
C1041 H1068 0.931 . S
C1042 C1043 1.395 . S
C1042 C1044 1.320 . S
C1043 C1041 1.339 . S
C1043 C1042 1.395 . S
C1043 H1069 0.929 . S
C1044 C1042 1.320 . S
C1044 C1045 1.405 . S
C1044 H1070 0.930 . S
C1045 C1040 1.479 . S
C1045 C1044 1.405 . S
C1045 H1071 0.931 . S
U1046 O1047 2.454 . S
U1046 O1048 2.458 . S
U1046 C1049 2.984 . S
U1046 C1050 2.847 . S
U1046 C1063 2.882 . S
U1046 O1064 2.441 . S
U1046 O1065 2.420 . S
U1046 O1066 2.455 . S
U1046 O1067 2.449 . S
O1047 U1046 2.454 . S
O1047 C1049 1.353 . S
O1048 U1046 2.458 . S
O1048 C1049 1.286 . S
C1049 U1046 2.984 . S
C1049 O1047 1.353 . S
C1049 O1048 1.286 . S
C1049 C1051 1.363 . S
C1050 C1040 1.465 . S
C1050 U1046 2.847 . S
C1050 O1064 1.249 . S
C1050 O1065 1.202 . S
C1051 C1049 1.363 . S
C1051 C1053 1.408 . S
C1051 C1056 1.342 . S
C1052 C1053 1.310 . S
C1052 C1055 1.461 . S
C1052 H1072 0.932 . S
C1053 C1051 1.408 . S
C1053 C1052 1.310 . S
C1053 H1073 0.930 . S
C1054 C1055 1.474 . S
C1054 C1056 1.285 . S
C1054 H1074 0.929 . S
C1055 C1052 1.461 . S
C1055 C1054 1.474 . S
C1056 C1051 1.342 . S
C1056 C1054 1.285 . S
C1056 H1075 0.930 . S
C1057 C1060 1.424 . S
C1057 C1062 1.245 . S
C1057 C1063 1.428 . S
C1058 C1061 1.260 . S
C1058 C1062 1.477 . S
C1058 H1076 0.932 . S
C1059 C1060 1.384 . S
C1059 C1061 1.479 . S
C1059 H1077 0.929 . S
C1060 C1057 1.424 . S
C1060 C1059 1.384 . S
C1060 H1078 0.928 . S
C1061 C1058 1.260 . S
C1061 C1059 1.479 . S
C1062 C1057 1.245 . S
C1062 C1058 1.477 . S
C1062 H1079 0.932 . S
C1063 U1046 2.882 . S
C1063 C1057 1.428 . S
C1063 O1066 1.301 . S
C1063 O1067 1.282 . S
O1064 U1046 2.441 . S
O1064 C1050 1.249 . S
O1065 U1046 2.420 . S
O1065 C1050 1.202 . S
O1066 U1046 2.455 . S
O1066 C1063 1.301 . S
O1067 U1046 2.449 . S
O1067 C1063 1.282 . S
H1068 C1041 0.931 . S
H1069 C1043 0.929 . S
H1070 C1044 0.930 . S
H1071 C1045 0.931 . S
H1072 C1052 0.932 . S
H1073 C1053 0.930 . S
H1074 C1054 0.929 . S
H1075 C1056 0.930 . S
H1076 C1058 0.932 . S
H1077 C1059 0.929 . S
H1078 C1060 0.928 . S
H1079 C1062 0.932 . S
C1080 C1081 1.264 . S
C1080 C1085 1.479 . S
C1080 C1090 1.465 . S
C1081 C1080 1.264 . S
C1081 C1083 1.339 . S
C1081 H1108 0.931 . S
C1082 C1083 1.395 . S
C1082 C1084 1.320 . S
C1083 C1081 1.339 . S
C1083 C1082 1.395 . S
C1083 H1109 0.929 . S
C1084 C1082 1.320 . S
C1084 C1085 1.405 . S
C1084 H1110 0.930 . S
C1085 C1080 1.479 . S
C1085 C1084 1.405 . S
C1085 H1111 0.931 . S
U1086 O1087 2.454 . S
U1086 O1088 2.458 . S
U1086 C1089 2.984 . S
U1086 C1090 2.847 . S
U1086 C1103 2.882 . S
U1086 O1104 2.441 . S
U1086 O1105 2.420 . S
U1086 O1106 2.455 . S
U1086 O1107 2.449 . S
O1087 U1086 2.454 . S
O1087 C1089 1.353 . S
O1088 U1086 2.458 . S
O1088 C1089 1.286 . S
C1089 U1086 2.984 . S
C1089 O1087 1.353 . S
C1089 O1088 1.286 . S
C1089 C1091 1.363 . S
C1090 C1080 1.465 . S
C1090 U1086 2.847 . S
C1090 O1104 1.249 . S
C1090 O1105 1.202 . S
C1091 C1089 1.363 . S
C1091 C1093 1.408 . S
C1091 C1096 1.342 . S
C1092 C1093 1.310 . S
C1092 C1095 1.461 . S
C1092 H1112 0.932 . S
C1093 C1091 1.408 . S
C1093 C1092 1.310 . S
C1093 H1113 0.930 . S
C1094 C1095 1.474 . S
C1094 C1096 1.285 . S
C1094 H1114 0.929 . S
C1095 C1092 1.461 . S
C1095 C1094 1.474 . S
C1096 C1091 1.342 . S
C1096 C1094 1.285 . S
C1096 H1115 0.930 . S
C1097 C1100 1.424 . S
C1097 C1102 1.245 . S
C1097 C1103 1.428 . S
C1098 C1101 1.260 . S
C1098 C1102 1.477 . S
C1098 H1116 0.932 . S
C1099 C1100 1.384 . S
C1099 C1101 1.479 . S
C1099 H1117 0.929 . S
C1100 C1097 1.424 . S
C1100 C1099 1.384 . S
C1100 H1118 0.928 . S
C1101 C1098 1.260 . S
C1101 C1099 1.479 . S
C1102 C1097 1.245 . S
C1102 C1098 1.477 . S
C1102 H1119 0.932 . S
C1103 U1086 2.882 . S
C1103 C1097 1.428 . S
C1103 O1106 1.301 . S
C1103 O1107 1.282 . S
O1104 U1086 2.441 . S
O1104 C1090 1.249 . S
O1105 U1086 2.420 . S
O1105 C1090 1.202 . S
O1106 U1086 2.455 . S
O1106 C1103 1.301 . S
O1107 U1086 2.449 . S
O1107 C1103 1.282 . S
H1108 C1081 0.931 . S
H1109 C1083 0.929 . S
H1110 C1084 0.930 . S
H1111 C1085 0.931 . S
H1112 C1092 0.932 . S
H1113 C1093 0.930 . S
H1114 C1094 0.929 . S
H1115 C1096 0.930 . S
H1116 C1098 0.932 . S
H1117 C1099 0.929 . S
H1118 C1100 0.928 . S
H1119 C1102 0.932 . S
C1120 C1121 1.264 . S
C1120 C1125 1.479 . S
C1120 C1130 1.465 . S
C1121 C1120 1.264 . S
C1121 C1123 1.339 . S
C1121 H1148 0.931 . S
C1122 C1123 1.395 . S
C1122 C1124 1.320 . S
C1123 C1121 1.339 . S
C1123 C1122 1.395 . S
C1123 H1149 0.929 . S
C1124 C1122 1.320 . S
C1124 C1125 1.405 . S
C1124 H1150 0.930 . S
C1125 C1120 1.479 . S
C1125 C1124 1.405 . S
C1125 H1151 0.931 . S
U1126 O1127 2.454 . S
U1126 O1128 2.458 . S
U1126 C1129 2.984 . S
U1126 C1130 2.847 . S
U1126 C1143 2.882 . S
U1126 O1144 2.441 . S
U1126 O1145 2.420 . S
U1126 O1146 2.455 . S
U1126 O1147 2.449 . S
O1127 U1126 2.454 . S
O1127 C1129 1.353 . S
O1128 U1126 2.458 . S
O1128 C1129 1.286 . S
C1129 U1126 2.984 . S
C1129 O1127 1.353 . S
C1129 O1128 1.286 . S
C1129 C1131 1.363 . S
C1130 C1120 1.465 . S
C1130 U1126 2.847 . S
C1130 O1144 1.249 . S
C1130 O1145 1.202 . S
C1131 C1129 1.363 . S
C1131 C1133 1.408 . S
C1131 C1136 1.342 . S
C1132 C1133 1.310 . S
C1132 C1135 1.461 . S
C1132 H1152 0.932 . S
C1133 C1131 1.408 . S
C1133 C1132 1.310 . S
C1133 H1153 0.930 . S
C1134 C1135 1.474 . S
C1134 C1136 1.285 . S
C1134 H1154 0.929 . S
C1135 C1132 1.461 . S
C1135 C1134 1.474 . S
C1136 C1131 1.342 . S
C1136 C1134 1.285 . S
C1136 H1155 0.930 . S
C1137 C1140 1.424 . S
C1137 C1142 1.245 . S
C1137 C1143 1.428 . S
C1138 C1141 1.260 . S
C1138 C1142 1.477 . S
C1138 H1156 0.932 . S
C1139 C1140 1.384 . S
C1139 C1141 1.479 . S
C1139 H1157 0.929 . S
C1140 C1137 1.424 . S
C1140 C1139 1.384 . S
C1140 H1158 0.928 . S
C1141 C1138 1.260 . S
C1141 C1139 1.479 . S
C1142 C1137 1.245 . S
C1142 C1138 1.477 . S
C1142 H1159 0.932 . S
C1143 U1126 2.882 . S
C1143 C1137 1.428 . S
C1143 O1146 1.301 . S
C1143 O1147 1.282 . S
O1144 U1126 2.441 . S
O1144 C1130 1.249 . S
O1145 U1126 2.420 . S
O1145 C1130 1.202 . S
O1146 U1126 2.455 . S
O1146 C1143 1.301 . S
O1147 U1126 2.449 . S
O1147 C1143 1.282 . S
H1148 C1121 0.931 . S
H1149 C1123 0.929 . S
H1150 C1124 0.930 . S
H1151 C1125 0.931 . S
H1152 C1132 0.932 . S
H1153 C1133 0.930 . S
H1154 C1134 0.929 . S
H1155 C1136 0.930 . S
H1156 C1138 0.932 . S
H1157 C1139 0.929 . S
H1158 C1140 0.928 . S
H1159 C1142 0.932 . S
C1160 C1161 1.264 . S
C1160 C1165 1.479 . S
C1160 C1170 1.465 . S
C1161 C1160 1.264 . S
C1161 C1163 1.339 . S
C1161 H1188 0.931 . S
C1162 C1163 1.395 . S
C1162 C1164 1.320 . S
C1163 C1161 1.339 . S
C1163 C1162 1.395 . S
C1163 H1189 0.929 . S
C1164 C1162 1.320 . S
C1164 C1165 1.405 . S
C1164 H1190 0.930 . S
C1165 C1160 1.479 . S
C1165 C1164 1.405 . S
C1165 H1191 0.931 . S
U1166 O1167 2.454 . S
U1166 O1168 2.458 . S
U1166 C1169 2.984 . S
U1166 C1170 2.847 . S
U1166 C1183 2.882 . S
U1166 O1184 2.441 . S
U1166 O1185 2.420 . S
U1166 O1186 2.455 . S
U1166 O1187 2.449 . S
O1167 U1166 2.454 . S
O1167 C1169 1.353 . S
O1168 U1166 2.458 . S
O1168 C1169 1.286 . S
C1169 U1166 2.984 . S
C1169 O1167 1.353 . S
C1169 O1168 1.286 . S
C1169 C1171 1.363 . S
C1170 C1160 1.465 . S
C1170 U1166 2.847 . S
C1170 O1184 1.249 . S
C1170 O1185 1.202 . S
C1171 C1169 1.363 . S
C1171 C1173 1.408 . S
C1171 C1176 1.342 . S
C1172 C1173 1.310 . S
C1172 C1175 1.461 . S
C1172 H1192 0.932 . S
C1173 C1171 1.408 . S
C1173 C1172 1.310 . S
C1173 H1193 0.930 . S
C1174 C1175 1.474 . S
C1174 C1176 1.285 . S
C1174 H1194 0.929 . S
C1175 C1172 1.461 . S
C1175 C1174 1.474 . S
C1176 C1171 1.342 . S
C1176 C1174 1.285 . S
C1176 H1195 0.930 . S
C1177 C1180 1.424 . S
C1177 C1182 1.245 . S
C1177 C1183 1.428 . S
C1178 C1181 1.260 . S
C1178 C1182 1.477 . S
C1178 H1196 0.932 . S
C1179 C1180 1.384 . S
C1179 C1181 1.479 . S
C1179 H1197 0.929 . S
C1180 C1177 1.424 . S
C1180 C1179 1.384 . S
C1180 H1198 0.928 . S
C1181 C1178 1.260 . S
C1181 C1179 1.479 . S
C1182 C1177 1.245 . S
C1182 C1178 1.477 . S
C1182 H1199 0.932 . S
C1183 U1166 2.882 . S
C1183 C1177 1.428 . S
C1183 O1186 1.301 . S
C1183 O1187 1.282 . S
O1184 U1166 2.441 . S
O1184 C1170 1.249 . S
O1185 U1166 2.420 . S
O1185 C1170 1.202 . S
O1186 U1166 2.455 . S
O1186 C1183 1.301 . S
O1187 U1166 2.449 . S
O1187 C1183 1.282 . S
H1188 C1161 0.931 . S
H1189 C1163 0.929 . S
H1190 C1164 0.930 . S
H1191 C1165 0.931 . S
H1192 C1172 0.932 . S
H1193 C1173 0.930 . S
H1194 C1174 0.929 . S
H1195 C1176 0.930 . S
H1196 C1178 0.932 . S
H1197 C1179 0.929 . S
H1198 C1180 0.928 . S
H1199 C1182 0.932 . S
C1200 C1201 1.264 . S
C1200 C1205 1.479 . S
C1200 C1210 1.465 . S
C1201 C1200 1.264 . S
C1201 C1203 1.339 . S
C1201 H1228 0.931 . S
C1202 C1203 1.395 . S
C1202 C1204 1.320 . S
C1203 C1201 1.339 . S
C1203 C1202 1.395 . S
C1203 H1229 0.929 . S
C1204 C1202 1.320 . S
C1204 C1205 1.405 . S
C1204 H1230 0.930 . S
C1205 C1200 1.479 . S
C1205 C1204 1.405 . S
C1205 H1231 0.931 . S
U1206 O1207 2.454 . S
U1206 O1208 2.458 . S
U1206 C1209 2.984 . S
U1206 C1210 2.847 . S
U1206 C1223 2.882 . S
U1206 O1224 2.441 . S
U1206 O1225 2.420 . S
U1206 O1226 2.455 . S
U1206 O1227 2.449 . S
O1207 U1206 2.454 . S
O1207 C1209 1.353 . S
O1208 U1206 2.458 . S
O1208 C1209 1.286 . S
C1209 U1206 2.984 . S
C1209 O1207 1.353 . S
C1209 O1208 1.286 . S
C1209 C1211 1.363 . S
C1210 C1200 1.465 . S
C1210 U1206 2.847 . S
C1210 O1224 1.249 . S
C1210 O1225 1.202 . S
C1211 C1209 1.363 . S
C1211 C1213 1.408 . S
C1211 C1216 1.342 . S
C1212 C1213 1.310 . S
C1212 C1215 1.461 . S
C1212 H1232 0.932 . S
C1213 C1211 1.408 . S
C1213 C1212 1.310 . S
C1213 H1233 0.930 . S
C1214 C1215 1.474 . S
C1214 C1216 1.285 . S
C1214 H1234 0.929 . S
C1215 C1212 1.461 . S
C1215 C1214 1.474 . S
C1216 C1211 1.342 . S
C1216 C1214 1.285 . S
C1216 H1235 0.930 . S
C1217 C1220 1.424 . S
C1217 C1222 1.245 . S
C1217 C1223 1.428 . S
C1218 C1221 1.260 . S
C1218 C1222 1.477 . S
C1218 H1236 0.932 . S
C1219 C1220 1.384 . S
C1219 C1221 1.479 . S
C1219 H1237 0.929 . S
C1220 C1217 1.424 . S
C1220 C1219 1.384 . S
C1220 H1238 0.928 . S
C1221 C1218 1.260 . S
C1221 C1219 1.479 . S
C1222 C1217 1.245 . S
C1222 C1218 1.477 . S
C1222 H1239 0.932 . S
C1223 U1206 2.882 . S
C1223 C1217 1.428 . S
C1223 O1226 1.301 . S
C1223 O1227 1.282 . S
O1224 U1206 2.441 . S
O1224 C1210 1.249 . S
O1225 U1206 2.420 . S
O1225 C1210 1.202 . S
O1226 U1206 2.455 . S
O1226 C1223 1.301 . S
O1227 U1206 2.449 . S
O1227 C1223 1.282 . S
H1228 C1201 0.931 . S
H1229 C1203 0.929 . S
H1230 C1204 0.930 . S
H1231 C1205 0.931 . S
H1232 C1212 0.932 . S
H1233 C1213 0.930 . S
H1234 C1214 0.929 . S
H1235 C1216 0.930 . S
H1236 C1218 0.932 . S
H1237 C1219 0.929 . S
H1238 C1220 0.928 . S
H1239 C1222 0.932 . S
C1240 C1241 1.264 . S
C1240 C1245 1.479 . S
C1240 C1250 1.465 . S
C1241 C1240 1.264 . S
C1241 C1243 1.339 . S
C1241 H1268 0.931 . S
C1242 C1243 1.395 . S
C1242 C1244 1.320 . S
C1243 C1241 1.339 . S
C1243 C1242 1.395 . S
C1243 H1269 0.929 . S
C1244 C1242 1.320 . S
C1244 C1245 1.405 . S
C1244 H1270 0.930 . S
C1245 C1240 1.479 . S
C1245 C1244 1.405 . S
C1245 H1271 0.931 . S
U1246 O1247 2.454 . S
U1246 O1248 2.458 . S
U1246 C1249 2.984 . S
U1246 C1250 2.847 . S
U1246 C1263 2.882 . S
U1246 O1264 2.441 . S
U1246 O1265 2.420 . S
U1246 O1266 2.455 . S
U1246 O1267 2.449 . S
O1247 U1246 2.454 . S
O1247 C1249 1.353 . S
O1248 U1246 2.458 . S
O1248 C1249 1.286 . S
C1249 U1246 2.984 . S
C1249 O1247 1.353 . S
C1249 O1248 1.286 . S
C1249 C1251 1.363 . S
C1250 C1240 1.465 . S
C1250 U1246 2.847 . S
C1250 O1264 1.249 . S
C1250 O1265 1.202 . S
C1251 C1249 1.363 . S
C1251 C1253 1.408 . S
C1251 C1256 1.342 . S
C1252 C1253 1.310 . S
C1252 C1255 1.461 . S
C1252 H1272 0.932 . S
C1253 C1251 1.408 . S
C1253 C1252 1.310 . S
C1253 H1273 0.930 . S
C1254 C1255 1.474 . S
C1254 C1256 1.285 . S
C1254 H1274 0.929 . S
C1255 C1252 1.461 . S
C1255 C1254 1.474 . S
C1256 C1251 1.342 . S
C1256 C1254 1.285 . S
C1256 H1275 0.930 . S
C1257 C1260 1.424 . S
C1257 C1262 1.245 . S
C1257 C1263 1.428 . S
C1258 C1261 1.260 . S
C1258 C1262 1.477 . S
C1258 H1276 0.932 . S
C1259 C1260 1.384 . S
C1259 C1261 1.479 . S
C1259 H1277 0.929 . S
C1260 C1257 1.424 . S
C1260 C1259 1.384 . S
C1260 H1278 0.928 . S
C1261 C1258 1.260 . S
C1261 C1259 1.479 . S
C1262 C1257 1.245 . S
C1262 C1258 1.477 . S
C1262 H1279 0.932 . S
C1263 U1246 2.882 . S
C1263 C1257 1.428 . S
C1263 O1266 1.301 . S
C1263 O1267 1.282 . S
O1264 U1246 2.441 . S
O1264 C1250 1.249 . S
O1265 U1246 2.420 . S
O1265 C1250 1.202 . S
O1266 U1246 2.455 . S
O1266 C1263 1.301 . S
O1267 U1246 2.449 . S
O1267 C1263 1.282 . S
H1268 C1241 0.931 . S
H1269 C1243 0.929 . S
H1270 C1244 0.930 . S
H1271 C1245 0.931 . S
H1272 C1252 0.932 . S
H1273 C1253 0.930 . S
H1274 C1254 0.929 . S
H1275 C1256 0.930 . S
H1276 C1258 0.932 . S
H1277 C1259 0.929 . S
H1278 C1260 0.928 . S
H1279 C1262 0.932 . S
C1280 C1281 1.264 . S
C1280 C1285 1.479 . S
C1280 C1290 1.465 . S
C1281 C1280 1.264 . S
C1281 C1283 1.339 . S
C1281 H1308 0.931 . S
C1282 C1283 1.395 . S
C1282 C1284 1.320 . S
C1283 C1281 1.339 . S
C1283 C1282 1.395 . S
C1283 H1309 0.929 . S
C1284 C1282 1.320 . S
C1284 C1285 1.405 . S
C1284 H1310 0.930 . S
C1285 C1280 1.479 . S
C1285 C1284 1.405 . S
C1285 H1311 0.931 . S
U1286 O1287 2.454 . S
U1286 O1288 2.458 . S
U1286 C1289 2.984 . S
U1286 C1290 2.847 . S
U1286 C1303 2.882 . S
U1286 O1304 2.441 . S
U1286 O1305 2.420 . S
U1286 O1306 2.455 . S
U1286 O1307 2.449 . S
O1287 U1286 2.454 . S
O1287 C1289 1.353 . S
O1288 U1286 2.458 . S
O1288 C1289 1.286 . S
C1289 U1286 2.984 . S
C1289 O1287 1.353 . S
C1289 O1288 1.286 . S
C1289 C1291 1.363 . S
C1290 C1280 1.465 . S
C1290 U1286 2.847 . S
C1290 O1304 1.249 . S
C1290 O1305 1.202 . S
C1291 C1289 1.363 . S
C1291 C1293 1.408 . S
C1291 C1296 1.342 . S
C1292 C1293 1.310 . S
C1292 C1295 1.461 . S
C1292 H1312 0.932 . S
C1293 C1291 1.408 . S
C1293 C1292 1.310 . S
C1293 H1313 0.930 . S
C1294 C1295 1.474 . S
C1294 C1296 1.285 . S
C1294 H1314 0.929 . S
C1295 C1292 1.461 . S
C1295 C1294 1.474 . S
C1296 C1291 1.342 . S
C1296 C1294 1.285 . S
C1296 H1315 0.930 . S
C1297 C1300 1.424 . S
C1297 C1302 1.245 . S
C1297 C1303 1.428 . S
C1298 C1301 1.260 . S
C1298 C1302 1.477 . S
C1298 H1316 0.932 . S
C1299 C1300 1.384 . S
C1299 C1301 1.479 . S
C1299 H1317 0.929 . S
C1300 C1297 1.424 . S
C1300 C1299 1.384 . S
C1300 H1318 0.928 . S
C1301 C1298 1.260 . S
C1301 C1299 1.479 . S
C1302 C1297 1.245 . S
C1302 C1298 1.477 . S
C1302 H1319 0.932 . S
C1303 U1286 2.882 . S
C1303 C1297 1.428 . S
C1303 O1306 1.301 . S
C1303 O1307 1.282 . S
O1304 U1286 2.441 . S
O1304 C1290 1.249 . S
O1305 U1286 2.420 . S
O1305 C1290 1.202 . S
O1306 U1286 2.455 . S
O1306 C1303 1.301 . S
O1307 U1286 2.449 . S
O1307 C1303 1.282 . S
H1308 C1281 0.931 . S
H1309 C1283 0.929 . S
H1310 C1284 0.930 . S
H1311 C1285 0.931 . S
H1312 C1292 0.932 . S
H1313 C1293 0.930 . S
H1314 C1294 0.929 . S
H1315 C1296 0.930 . S
H1316 C1298 0.932 . S
H1317 C1299 0.929 . S
H1318 C1300 0.928 . S
H1319 C1302 0.932 . S
C1320 C1321 1.264 . S
C1320 C1325 1.479 . S
C1320 C1330 1.465 . S
C1321 C1320 1.264 . S
C1321 C1323 1.339 . S
C1321 H1348 0.931 . S
C1322 C1323 1.395 . S
C1322 C1324 1.320 . S
C1323 C1321 1.339 . S
C1323 C1322 1.395 . S
C1323 H1349 0.929 . S
C1324 C1322 1.320 . S
C1324 C1325 1.405 . S
C1324 H1350 0.930 . S
C1325 C1320 1.479 . S
C1325 C1324 1.405 . S
C1325 H1351 0.931 . S
U1326 O1327 2.454 . S
U1326 O1328 2.458 . S
U1326 C1329 2.984 . S
U1326 C1330 2.847 . S
U1326 C1343 2.882 . S
U1326 O1344 2.441 . S
U1326 O1345 2.420 . S
U1326 O1346 2.455 . S
U1326 O1347 2.449 . S
O1327 U1326 2.454 . S
O1327 C1329 1.353 . S
O1328 U1326 2.458 . S
O1328 C1329 1.286 . S
C1329 U1326 2.984 . S
C1329 O1327 1.353 . S
C1329 O1328 1.286 . S
C1329 C1331 1.363 . S
C1330 C1320 1.465 . S
C1330 U1326 2.847 . S
C1330 O1344 1.249 . S
C1330 O1345 1.202 . S
C1331 C1329 1.363 . S
C1331 C1333 1.408 . S
C1331 C1336 1.342 . S
C1332 C1333 1.310 . S
C1332 C1335 1.461 . S
C1332 H1352 0.932 . S
C1333 C1331 1.408 . S
C1333 C1332 1.310 . S
C1333 H1353 0.930 . S
C1334 C1335 1.474 . S
C1334 C1336 1.285 . S
C1334 H1354 0.929 . S
C1335 C1332 1.461 . S
C1335 C1334 1.474 . S
C1336 C1331 1.342 . S
C1336 C1334 1.285 . S
C1336 H1355 0.930 . S
C1337 C1340 1.424 . S
C1337 C1342 1.245 . S
C1337 C1343 1.428 . S
C1338 C1341 1.260 . S
C1338 C1342 1.477 . S
C1338 H1356 0.932 . S
C1339 C1340 1.384 . S
C1339 C1341 1.479 . S
C1339 H1357 0.929 . S
C1340 C1337 1.424 . S
C1340 C1339 1.384 . S
C1340 H1358 0.928 . S
C1341 C1338 1.260 . S
C1341 C1339 1.479 . S
C1342 C1337 1.245 . S
C1342 C1338 1.477 . S
C1342 H1359 0.932 . S
C1343 U1326 2.882 . S
C1343 C1337 1.428 . S
C1343 O1346 1.301 . S
C1343 O1347 1.282 . S
O1344 U1326 2.441 . S
O1344 C1330 1.249 . S
O1345 U1326 2.420 . S
O1345 C1330 1.202 . S
O1346 U1326 2.455 . S
O1346 C1343 1.301 . S
O1347 U1326 2.449 . S
O1347 C1343 1.282 . S
H1348 C1321 0.931 . S
H1349 C1323 0.929 . S
H1350 C1324 0.930 . S
H1351 C1325 0.931 . S
H1352 C1332 0.932 . S
H1353 C1333 0.930 . S
H1354 C1334 0.929 . S
H1355 C1336 0.930 . S
H1356 C1338 0.932 . S
H1357 C1339 0.929 . S
H1358 C1340 0.928 . S
H1359 C1342 0.932 . S
C1360 C1361 1.264 . S
C1360 C1365 1.479 . S
C1360 C1370 1.465 . S
C1361 C1360 1.264 . S
C1361 C1363 1.339 . S
C1361 H1388 0.931 . S
C1362 C1363 1.395 . S
C1362 C1364 1.320 . S
C1363 C1361 1.339 . S
C1363 C1362 1.395 . S
C1363 H1389 0.929 . S
C1364 C1362 1.320 . S
C1364 C1365 1.405 . S
C1364 H1390 0.930 . S
C1365 C1360 1.479 . S
C1365 C1364 1.405 . S
C1365 H1391 0.931 . S
U1366 O1367 2.454 . S
U1366 O1368 2.458 . S
U1366 C1369 2.984 . S
U1366 C1370 2.847 . S
U1366 C1383 2.882 . S
U1366 O1384 2.441 . S
U1366 O1385 2.420 . S
U1366 O1386 2.455 . S
U1366 O1387 2.449 . S
O1367 U1366 2.454 . S
O1367 C1369 1.353 . S
O1368 U1366 2.458 . S
O1368 C1369 1.286 . S
C1369 U1366 2.984 . S
C1369 O1367 1.353 . S
C1369 O1368 1.286 . S
C1369 C1371 1.363 . S
C1370 C1360 1.465 . S
C1370 U1366 2.847 . S
C1370 O1384 1.249 . S
C1370 O1385 1.202 . S
C1371 C1369 1.363 . S
C1371 C1373 1.408 . S
C1371 C1376 1.342 . S
C1372 C1373 1.310 . S
C1372 C1375 1.461 . S
C1372 H1392 0.932 . S
C1373 C1371 1.408 . S
C1373 C1372 1.310 . S
C1373 H1393 0.930 . S
C1374 C1375 1.474 . S
C1374 C1376 1.285 . S
C1374 H1394 0.929 . S
C1375 C1372 1.461 . S
C1375 C1374 1.474 . S
C1376 C1371 1.342 . S
C1376 C1374 1.285 . S
C1376 H1395 0.930 . S
C1377 C1380 1.424 . S
C1377 C1382 1.245 . S
C1377 C1383 1.428 . S
C1378 C1381 1.260 . S
C1378 C1382 1.477 . S
C1378 H1396 0.932 . S
C1379 C1380 1.384 . S
C1379 C1381 1.479 . S
C1379 H1397 0.929 . S
C1380 C1377 1.424 . S
C1380 C1379 1.384 . S
C1380 H1398 0.928 . S
C1381 C1378 1.260 . S
C1381 C1379 1.479 . S
C1382 C1377 1.245 . S
C1382 C1378 1.477 . S
C1382 H1399 0.932 . S
C1383 U1366 2.882 . S
C1383 C1377 1.428 . S
C1383 O1386 1.301 . S
C1383 O1387 1.282 . S
O1384 U1366 2.441 . S
O1384 C1370 1.249 . S
O1385 U1366 2.420 . S
O1385 C1370 1.202 . S
O1386 U1366 2.455 . S
O1386 C1383 1.301 . S
O1387 U1366 2.449 . S
O1387 C1383 1.282 . S
H1388 C1361 0.931 . S
H1389 C1363 0.929 . S
H1390 C1364 0.930 . S
H1391 C1365 0.931 . S
H1392 C1372 0.932 . S
H1393 C1373 0.930 . S
H1394 C1374 0.929 . S
H1395 C1376 0.930 . S
H1396 C1378 0.932 . S
H1397 C1379 0.929 . S
H1398 C1380 0.928 . S
H1399 C1382 0.932 . S
C1400 C1401 1.264 . S
C1400 C1405 1.479 . S
C1400 C1410 1.465 . S
C1401 C1400 1.264 . S
C1401 C1403 1.339 . S
C1401 H1428 0.931 . S
C1402 C1403 1.395 . S
C1402 C1404 1.320 . S
C1403 C1401 1.339 . S
C1403 C1402 1.395 . S
C1403 H1429 0.929 . S
C1404 C1402 1.320 . S
C1404 C1405 1.405 . S
C1404 H1430 0.930 . S
C1405 C1400 1.479 . S
C1405 C1404 1.405 . S
C1405 H1431 0.931 . S
U1406 O1407 2.454 . S
U1406 O1408 2.458 . S
U1406 C1409 2.984 . S
U1406 C1410 2.847 . S
U1406 C1423 2.882 . S
U1406 O1424 2.441 . S
U1406 O1425 2.420 . S
U1406 O1426 2.455 . S
U1406 O1427 2.449 . S
O1407 U1406 2.454 . S
O1407 C1409 1.353 . S
O1408 U1406 2.458 . S
O1408 C1409 1.286 . S
C1409 U1406 2.984 . S
C1409 O1407 1.353 . S
C1409 O1408 1.286 . S
C1409 C1411 1.363 . S
C1410 C1400 1.465 . S
C1410 U1406 2.847 . S
C1410 O1424 1.249 . S
C1410 O1425 1.202 . S
C1411 C1409 1.363 . S
C1411 C1413 1.408 . S
C1411 C1416 1.342 . S
C1412 C1413 1.310 . S
C1412 C1415 1.461 . S
C1412 H1432 0.932 . S
C1413 C1411 1.408 . S
C1413 C1412 1.310 . S
C1413 H1433 0.930 . S
C1414 C1415 1.474 . S
C1414 C1416 1.285 . S
C1414 H1434 0.929 . S
C1415 C1412 1.461 . S
C1415 C1414 1.474 . S
C1416 C1411 1.342 . S
C1416 C1414 1.285 . S
C1416 H1435 0.930 . S
C1417 C1420 1.424 . S
C1417 C1422 1.245 . S
C1417 C1423 1.428 . S
C1418 C1421 1.260 . S
C1418 C1422 1.477 . S
C1418 H1436 0.932 . S
C1419 C1420 1.384 . S
C1419 C1421 1.479 . S
C1419 H1437 0.929 . S
C1420 C1417 1.424 . S
C1420 C1419 1.384 . S
C1420 H1438 0.928 . S
C1421 C1418 1.260 . S
C1421 C1419 1.479 . S
C1422 C1417 1.245 . S
C1422 C1418 1.477 . S
C1422 H1439 0.932 . S
C1423 U1406 2.882 . S
C1423 C1417 1.428 . S
C1423 O1426 1.301 . S
C1423 O1427 1.282 . S
O1424 U1406 2.441 . S
O1424 C1410 1.249 . S
O1425 U1406 2.420 . S
O1425 C1410 1.202 . S
O1426 U1406 2.455 . S
O1426 C1423 1.301 . S
O1427 U1406 2.449 . S
O1427 C1423 1.282 . S
H1428 C1401 0.931 . S
H1429 C1403 0.929 . S
H1430 C1404 0.930 . S
H1431 C1405 0.931 . S
H1432 C1412 0.932 . S
H1433 C1413 0.930 . S
H1434 C1414 0.929 . S
H1435 C1416 0.930 . S
H1436 C1418 0.932 . S
H1437 C1419 0.929 . S
H1438 C1420 0.928 . S
H1439 C1422 0.932 . S
C1440 C1441 1.264 . S
C1440 C1445 1.479 . S
C1440 C1450 1.465 . S
C1441 C1440 1.264 . S
C1441 C1443 1.339 . S
C1441 H1468 0.931 . S
C1442 C1443 1.395 . S
C1442 C1444 1.320 . S
C1443 C1441 1.339 . S
C1443 C1442 1.395 . S
C1443 H1469 0.929 . S
C1444 C1442 1.320 . S
C1444 C1445 1.405 . S
C1444 H1470 0.930 . S
C1445 C1440 1.479 . S
C1445 C1444 1.405 . S
C1445 H1471 0.931 . S
U1446 O1447 2.454 . S
U1446 O1448 2.458 . S
U1446 C1449 2.984 . S
U1446 C1450 2.847 . S
U1446 C1463 2.882 . S
U1446 O1464 2.441 . S
U1446 O1465 2.420 . S
U1446 O1466 2.455 . S
U1446 O1467 2.449 . S
O1447 U1446 2.454 . S
O1447 C1449 1.353 . S
O1448 U1446 2.458 . S
O1448 C1449 1.286 . S
C1449 U1446 2.984 . S
C1449 O1447 1.353 . S
C1449 O1448 1.286 . S
C1449 C1451 1.363 . S
C1450 C1440 1.465 . S
C1450 U1446 2.847 . S
C1450 O1464 1.249 . S
C1450 O1465 1.202 . S
C1451 C1449 1.363 . S
C1451 C1453 1.408 . S
C1451 C1456 1.342 . S
C1452 C1453 1.310 . S
C1452 C1455 1.461 . S
C1452 H1472 0.932 . S
C1453 C1451 1.408 . S
C1453 C1452 1.310 . S
C1453 H1473 0.930 . S
C1454 C1455 1.474 . S
C1454 C1456 1.285 . S
C1454 H1474 0.929 . S
C1455 C1452 1.461 . S
C1455 C1454 1.474 . S
C1456 C1451 1.342 . S
C1456 C1454 1.285 . S
C1456 H1475 0.930 . S
C1457 C1460 1.424 . S
C1457 C1462 1.245 . S
C1457 C1463 1.428 . S
C1458 C1461 1.260 . S
C1458 C1462 1.477 . S
C1458 H1476 0.932 . S
C1459 C1460 1.384 . S
C1459 C1461 1.479 . S
C1459 H1477 0.929 . S
C1460 C1457 1.424 . S
C1460 C1459 1.384 . S
C1460 H1478 0.928 . S
C1461 C1458 1.260 . S
C1461 C1459 1.479 . S
C1462 C1457 1.245 . S
C1462 C1458 1.477 . S
C1462 H1479 0.932 . S
C1463 U1446 2.882 . S
C1463 C1457 1.428 . S
C1463 O1466 1.301 . S
C1463 O1467 1.282 . S
O1464 U1446 2.441 . S
O1464 C1450 1.249 . S
O1465 U1446 2.420 . S
O1465 C1450 1.202 . S
O1466 U1446 2.455 . S
O1466 C1463 1.301 . S
O1467 U1446 2.449 . S
O1467 C1463 1.282 . S
H1468 C1441 0.931 . S
H1469 C1443 0.929 . S
H1470 C1444 0.930 . S
H1471 C1445 0.931 . S
H1472 C1452 0.932 . S
H1473 C1453 0.930 . S
H1474 C1454 0.929 . S
H1475 C1456 0.930 . S
H1476 C1458 0.932 . S
H1477 C1459 0.929 . S
H1478 C1460 0.928 . S
H1479 C1462 0.932 . S
C1480 C1481 1.264 . S
C1480 C1485 1.479 . S
C1480 C1490 1.465 . S
C1481 C1480 1.264 . S
C1481 C1483 1.339 . S
C1481 H1508 0.931 . S
C1482 C1483 1.395 . S
C1482 C1484 1.320 . S
C1483 C1481 1.339 . S
C1483 C1482 1.395 . S
C1483 H1509 0.929 . S
C1484 C1482 1.320 . S
C1484 C1485 1.405 . S
C1484 H1510 0.930 . S
C1485 C1480 1.479 . S
C1485 C1484 1.405 . S
C1485 H1511 0.931 . S
U1486 O1487 2.454 . S
U1486 O1488 2.458 . S
U1486 C1489 2.984 . S
U1486 C1490 2.847 . S
U1486 C1503 2.882 . S
U1486 O1504 2.441 . S
U1486 O1505 2.420 . S
U1486 O1506 2.455 . S
U1486 O1507 2.449 . S
O1487 U1486 2.454 . S
O1487 C1489 1.353 . S
O1488 U1486 2.458 . S
O1488 C1489 1.286 . S
C1489 U1486 2.984 . S
C1489 O1487 1.353 . S
C1489 O1488 1.286 . S
C1489 C1491 1.363 . S
C1490 C1480 1.465 . S
C1490 U1486 2.847 . S
C1490 O1504 1.249 . S
C1490 O1505 1.202 . S
C1491 C1489 1.363 . S
C1491 C1493 1.408 . S
C1491 C1496 1.342 . S
C1492 C1493 1.310 . S
C1492 C1495 1.461 . S
C1492 H1512 0.932 . S
C1493 C1491 1.408 . S
C1493 C1492 1.310 . S
C1493 H1513 0.930 . S
C1494 C1495 1.474 . S
C1494 C1496 1.285 . S
C1494 H1514 0.929 . S
C1495 C1492 1.461 . S
C1495 C1494 1.474 . S
C1496 C1491 1.342 . S
C1496 C1494 1.285 . S
C1496 H1515 0.930 . S
C1497 C1500 1.424 . S
C1497 C1502 1.245 . S
C1497 C1503 1.428 . S
C1498 C1501 1.260 . S
C1498 C1502 1.477 . S
C1498 H1516 0.932 . S
C1499 C1500 1.384 . S
C1499 C1501 1.479 . S
C1499 H1517 0.929 . S
C1500 C1497 1.424 . S
C1500 C1499 1.384 . S
C1500 H1518 0.928 . S
C1501 C1498 1.260 . S
C1501 C1499 1.479 . S
C1502 C1497 1.245 . S
C1502 C1498 1.477 . S
C1502 H1519 0.932 . S
C1503 U1486 2.882 . S
C1503 C1497 1.428 . S
C1503 O1506 1.301 . S
C1503 O1507 1.282 . S
O1504 U1486 2.441 . S
O1504 C1490 1.249 . S
O1505 U1486 2.420 . S
O1505 C1490 1.202 . S
O1506 U1486 2.455 . S
O1506 C1503 1.301 . S
O1507 U1486 2.449 . S
O1507 C1503 1.282 . S
H1508 C1481 0.931 . S
H1509 C1483 0.929 . S
H1510 C1484 0.930 . S
H1511 C1485 0.931 . S
H1512 C1492 0.932 . S
H1513 C1493 0.930 . S
H1514 C1494 0.929 . S
H1515 C1496 0.930 . S
H1516 C1498 0.932 . S
H1517 C1499 0.929 . S
H1518 C1500 0.928 . S
H1519 C1502 0.932 . S
C1520 C1521 1.264 . S
C1520 C1525 1.479 . S
C1520 C1530 1.465 . S
C1521 C1520 1.264 . S
C1521 C1523 1.339 . S
C1521 H1548 0.931 . S
C1522 C1523 1.395 . S
C1522 C1524 1.320 . S
C1523 C1521 1.339 . S
C1523 C1522 1.395 . S
C1523 H1549 0.929 . S
C1524 C1522 1.320 . S
C1524 C1525 1.405 . S
C1524 H1550 0.930 . S
C1525 C1520 1.479 . S
C1525 C1524 1.405 . S
C1525 H1551 0.931 . S
U1526 O1527 2.454 . S
U1526 O1528 2.458 . S
U1526 C1529 2.984 . S
U1526 C1530 2.847 . S
U1526 C1543 2.882 . S
U1526 O1544 2.441 . S
U1526 O1545 2.420 . S
U1526 O1546 2.455 . S
U1526 O1547 2.449 . S
O1527 U1526 2.454 . S
O1527 C1529 1.353 . S
O1528 U1526 2.458 . S
O1528 C1529 1.286 . S
C1529 U1526 2.984 . S
C1529 O1527 1.353 . S
C1529 O1528 1.286 . S
C1529 C1531 1.363 . S
C1530 C1520 1.465 . S
C1530 U1526 2.847 . S
C1530 O1544 1.249 . S
C1530 O1545 1.202 . S
C1531 C1529 1.363 . S
C1531 C1533 1.408 . S
C1531 C1536 1.342 . S
C1532 C1533 1.310 . S
C1532 C1535 1.461 . S
C1532 H1552 0.932 . S
C1533 C1531 1.408 . S
C1533 C1532 1.310 . S
C1533 H1553 0.930 . S
C1534 C1535 1.474 . S
C1534 C1536 1.285 . S
C1534 H1554 0.929 . S
C1535 C1532 1.461 . S
C1535 C1534 1.474 . S
C1536 C1531 1.342 . S
C1536 C1534 1.285 . S
C1536 H1555 0.930 . S
C1537 C1540 1.424 . S
C1537 C1542 1.245 . S
C1537 C1543 1.428 . S
C1538 C1541 1.260 . S
C1538 C1542 1.477 . S
C1538 H1556 0.932 . S
C1539 C1540 1.384 . S
C1539 C1541 1.479 . S
C1539 H1557 0.929 . S
C1540 C1537 1.424 . S
C1540 C1539 1.384 . S
C1540 H1558 0.928 . S
C1541 C1538 1.260 . S
C1541 C1539 1.479 . S
C1542 C1537 1.245 . S
C1542 C1538 1.477 . S
C1542 H1559 0.932 . S
C1543 U1526 2.882 . S
C1543 C1537 1.428 . S
C1543 O1546 1.301 . S
C1543 O1547 1.282 . S
O1544 U1526 2.441 . S
O1544 C1530 1.249 . S
O1545 U1526 2.420 . S
O1545 C1530 1.202 . S
O1546 U1526 2.455 . S
O1546 C1543 1.301 . S
O1547 U1526 2.449 . S
O1547 C1543 1.282 . S
H1548 C1521 0.931 . S
H1549 C1523 0.929 . S
H1550 C1524 0.930 . S
H1551 C1525 0.931 . S
H1552 C1532 0.932 . S
H1553 C1533 0.930 . S
H1554 C1534 0.929 . S
H1555 C1536 0.930 . S
H1556 C1538 0.932 . S
H1557 C1539 0.929 . S
H1558 C1540 0.928 . S
H1559 C1542 0.932 . S
C1560 C1561 1.264 . S
C1560 C1565 1.479 . S
C1560 C1570 1.465 . S
C1561 C1560 1.264 . S
C1561 C1563 1.339 . S
C1561 H1588 0.931 . S
C1562 C1563 1.395 . S
C1562 C1564 1.320 . S
C1563 C1561 1.339 . S
C1563 C1562 1.395 . S
C1563 H1589 0.929 . S
C1564 C1562 1.320 . S
C1564 C1565 1.405 . S
C1564 H1590 0.930 . S
C1565 C1560 1.479 . S
C1565 C1564 1.405 . S
C1565 H1591 0.931 . S
U1566 O1567 2.454 . S
U1566 O1568 2.458 . S
U1566 C1569 2.984 . S
U1566 C1570 2.847 . S
U1566 C1583 2.882 . S
U1566 O1584 2.441 . S
U1566 O1585 2.420 . S
U1566 O1586 2.455 . S
U1566 O1587 2.449 . S
O1567 U1566 2.454 . S
O1567 C1569 1.353 . S
O1568 U1566 2.458 . S
O1568 C1569 1.286 . S
C1569 U1566 2.984 . S
C1569 O1567 1.353 . S
C1569 O1568 1.286 . S
C1569 C1571 1.363 . S
C1570 C1560 1.465 . S
C1570 U1566 2.847 . S
C1570 O1584 1.249 . S
C1570 O1585 1.202 . S
C1571 C1569 1.363 . S
C1571 C1573 1.408 . S
C1571 C1576 1.342 . S
C1572 C1573 1.310 . S
C1572 C1575 1.461 . S
C1572 H1592 0.932 . S
C1573 C1571 1.408 . S
C1573 C1572 1.310 . S
C1573 H1593 0.930 . S
C1574 C1575 1.474 . S
C1574 C1576 1.285 . S
C1574 H1594 0.929 . S
C1575 C1572 1.461 . S
C1575 C1574 1.474 . S
C1576 C1571 1.342 . S
C1576 C1574 1.285 . S
C1576 H1595 0.930 . S
C1577 C1580 1.424 . S
C1577 C1582 1.245 . S
C1577 C1583 1.428 . S
C1578 C1581 1.260 . S
C1578 C1582 1.477 . S
C1578 H1596 0.932 . S
C1579 C1580 1.384 . S
C1579 C1581 1.479 . S
C1579 H1597 0.929 . S
C1580 C1577 1.424 . S
C1580 C1579 1.384 . S
C1580 H1598 0.928 . S
C1581 C1578 1.260 . S
C1581 C1579 1.479 . S
C1582 C1577 1.245 . S
C1582 C1578 1.477 . S
C1582 H1599 0.932 . S
C1583 U1566 2.882 . S
C1583 C1577 1.428 . S
C1583 O1586 1.301 . S
C1583 O1587 1.282 . S
O1584 U1566 2.441 . S
O1584 C1570 1.249 . S
O1585 U1566 2.420 . S
O1585 C1570 1.202 . S
O1586 U1566 2.455 . S
O1586 C1583 1.301 . S
O1587 U1566 2.449 . S
O1587 C1583 1.282 . S
H1588 C1561 0.931 . S
H1589 C1563 0.929 . S
H1590 C1564 0.930 . S
H1591 C1565 0.931 . S
H1592 C1572 0.932 . S
H1593 C1573 0.930 . S
H1594 C1574 0.929 . S
H1595 C1576 0.930 . S
H1596 C1578 0.932 . S
H1597 C1579 0.929 . S
H1598 C1580 0.928 . S
H1599 C1582 0.932 . S
C1600 C1601 1.264 . S
C1600 C1605 1.479 . S
C1600 C1610 1.465 . S
C1601 C1600 1.264 . S
C1601 C1603 1.339 . S
C1601 H1628 0.931 . S
C1602 C1603 1.395 . S
C1602 C1604 1.320 . S
C1603 C1601 1.339 . S
C1603 C1602 1.395 . S
C1603 H1629 0.929 . S
C1604 C1602 1.320 . S
C1604 C1605 1.405 . S
C1604 H1630 0.930 . S
C1605 C1600 1.479 . S
C1605 C1604 1.405 . S
C1605 H1631 0.931 . S
U1606 O1607 2.454 . S
U1606 O1608 2.458 . S
U1606 C1609 2.984 . S
U1606 C1610 2.847 . S
U1606 C1623 2.882 . S
U1606 O1624 2.441 . S
U1606 O1625 2.420 . S
U1606 O1626 2.455 . S
U1606 O1627 2.449 . S
O1607 U1606 2.454 . S
O1607 C1609 1.353 . S
O1608 U1606 2.458 . S
O1608 C1609 1.286 . S
C1609 U1606 2.984 . S
C1609 O1607 1.353 . S
C1609 O1608 1.286 . S
C1609 C1611 1.363 . S
C1610 C1600 1.465 . S
C1610 U1606 2.847 . S
C1610 O1624 1.249 . S
C1610 O1625 1.202 . S
C1611 C1609 1.363 . S
C1611 C1613 1.408 . S
C1611 C1616 1.342 . S
C1612 C1613 1.310 . S
C1612 C1615 1.461 . S
C1612 H1632 0.932 . S
C1613 C1611 1.408 . S
C1613 C1612 1.310 . S
C1613 H1633 0.930 . S
C1614 C1615 1.474 . S
C1614 C1616 1.285 . S
C1614 H1634 0.929 . S
C1615 C1612 1.461 . S
C1615 C1614 1.474 . S
C1616 C1611 1.342 . S
C1616 C1614 1.285 . S
C1616 H1635 0.930 . S
C1617 C1620 1.424 . S
C1617 C1622 1.245 . S
C1617 C1623 1.428 . S
C1618 C1621 1.260 . S
C1618 C1622 1.477 . S
C1618 H1636 0.932 . S
C1619 C1620 1.384 . S
C1619 C1621 1.479 . S
C1619 H1637 0.929 . S
C1620 C1617 1.424 . S
C1620 C1619 1.384 . S
C1620 H1638 0.928 . S
C1621 C1618 1.260 . S
C1621 C1619 1.479 . S
C1622 C1617 1.245 . S
C1622 C1618 1.477 . S
C1622 H1639 0.932 . S
C1623 U1606 2.882 . S
C1623 C1617 1.428 . S
C1623 O1626 1.301 . S
C1623 O1627 1.282 . S
O1624 U1606 2.441 . S
O1624 C1610 1.249 . S
O1625 U1606 2.420 . S
O1625 C1610 1.202 . S
O1626 U1606 2.455 . S
O1626 C1623 1.301 . S
O1627 U1606 2.449 . S
O1627 C1623 1.282 . S
H1628 C1601 0.931 . S
H1629 C1603 0.929 . S
H1630 C1604 0.930 . S
H1631 C1605 0.931 . S
H1632 C1612 0.932 . S
H1633 C1613 0.930 . S
H1634 C1614 0.929 . S
H1635 C1616 0.930 . S
H1636 C1618 0.932 . S
H1637 C1619 0.929 . S
H1638 C1620 0.928 . S
H1639 C1622 0.932 . S
C1640 C1641 1.264 . S
C1640 C1645 1.479 . S
C1640 C1650 1.465 . S
C1641 C1640 1.264 . S
C1641 C1643 1.339 . S
C1641 H1668 0.931 . S
C1642 C1643 1.395 . S
C1642 C1644 1.320 . S
C1643 C1641 1.339 . S
C1643 C1642 1.395 . S
C1643 H1669 0.929 . S
C1644 C1642 1.320 . S
C1644 C1645 1.405 . S
C1644 H1670 0.930 . S
C1645 C1640 1.479 . S
C1645 C1644 1.405 . S
C1645 H1671 0.931 . S
U1646 O1647 2.454 . S
U1646 O1648 2.458 . S
U1646 C1649 2.984 . S
U1646 C1650 2.847 . S
U1646 C1663 2.882 . S
U1646 O1664 2.441 . S
U1646 O1665 2.420 . S
U1646 O1666 2.455 . S
U1646 O1667 2.449 . S
O1647 U1646 2.454 . S
O1647 C1649 1.353 . S
O1648 U1646 2.458 . S
O1648 C1649 1.286 . S
C1649 U1646 2.984 . S
C1649 O1647 1.353 . S
C1649 O1648 1.286 . S
C1649 C1651 1.363 . S
C1650 C1640 1.465 . S
C1650 U1646 2.847 . S
C1650 O1664 1.249 . S
C1650 O1665 1.202 . S
C1651 C1649 1.363 . S
C1651 C1653 1.408 . S
C1651 C1656 1.342 . S
C1652 C1653 1.310 . S
C1652 C1655 1.461 . S
C1652 H1672 0.932 . S
C1653 C1651 1.408 . S
C1653 C1652 1.310 . S
C1653 H1673 0.930 . S
C1654 C1655 1.474 . S
C1654 C1656 1.285 . S
C1654 H1674 0.929 . S
C1655 C1652 1.461 . S
C1655 C1654 1.474 . S
C1656 C1651 1.342 . S
C1656 C1654 1.285 . S
C1656 H1675 0.930 . S
C1657 C1660 1.424 . S
C1657 C1662 1.245 . S
C1657 C1663 1.428 . S
C1658 C1661 1.260 . S
C1658 C1662 1.477 . S
C1658 H1676 0.932 . S
C1659 C1660 1.384 . S
C1659 C1661 1.479 . S
C1659 H1677 0.929 . S
C1660 C1657 1.424 . S
C1660 C1659 1.384 . S
C1660 H1678 0.928 . S
C1661 C1658 1.260 . S
C1661 C1659 1.479 . S
C1662 C1657 1.245 . S
C1662 C1658 1.477 . S
C1662 H1679 0.932 . S
C1663 U1646 2.882 . S
C1663 C1657 1.428 . S
C1663 O1666 1.301 . S
C1663 O1667 1.282 . S
O1664 U1646 2.441 . S
O1664 C1650 1.249 . S
O1665 U1646 2.420 . S
O1665 C1650 1.202 . S
O1666 U1646 2.455 . S
O1666 C1663 1.301 . S
O1667 U1646 2.449 . S
O1667 C1663 1.282 . S
H1668 C1641 0.931 . S
H1669 C1643 0.929 . S
H1670 C1644 0.930 . S
H1671 C1645 0.931 . S
H1672 C1652 0.932 . S
H1673 C1653 0.930 . S
H1674 C1654 0.929 . S
H1675 C1656 0.930 . S
H1676 C1658 0.932 . S
H1677 C1659 0.929 . S
H1678 C1660 0.928 . S
H1679 C1662 0.932 . S
C1680 C1681 1.264 . S
C1680 C1685 1.479 . S
C1680 C1690 1.465 . S
C1681 C1680 1.264 . S
C1681 C1683 1.339 . S
C1681 H1708 0.931 . S
C1682 C1683 1.395 . S
C1682 C1684 1.320 . S
C1683 C1681 1.339 . S
C1683 C1682 1.395 . S
C1683 H1709 0.929 . S
C1684 C1682 1.320 . S
C1684 C1685 1.405 . S
C1684 H1710 0.930 . S
C1685 C1680 1.479 . S
C1685 C1684 1.405 . S
C1685 H1711 0.931 . S
U1686 O1687 2.454 . S
U1686 O1688 2.458 . S
U1686 C1689 2.984 . S
U1686 C1690 2.847 . S
U1686 C1703 2.882 . S
U1686 O1704 2.441 . S
U1686 O1705 2.420 . S
U1686 O1706 2.455 . S
U1686 O1707 2.449 . S
O1687 U1686 2.454 . S
O1687 C1689 1.353 . S
O1688 U1686 2.458 . S
O1688 C1689 1.286 . S
C1689 U1686 2.984 . S
C1689 O1687 1.353 . S
C1689 O1688 1.286 . S
C1689 C1691 1.363 . S
C1690 C1680 1.465 . S
C1690 U1686 2.847 . S
C1690 O1704 1.249 . S
C1690 O1705 1.202 . S
C1691 C1689 1.363 . S
C1691 C1693 1.408 . S
C1691 C1696 1.342 . S
C1692 C1693 1.310 . S
C1692 C1695 1.461 . S
C1692 H1712 0.932 . S
C1693 C1691 1.408 . S
C1693 C1692 1.310 . S
C1693 H1713 0.930 . S
C1694 C1695 1.474 . S
C1694 C1696 1.285 . S
C1694 H1714 0.929 . S
C1695 C1692 1.461 . S
C1695 C1694 1.474 . S
C1696 C1691 1.342 . S
C1696 C1694 1.285 . S
C1696 H1715 0.930 . S
C1697 C1700 1.424 . S
C1697 C1702 1.245 . S
C1697 C1703 1.428 . S
C1698 C1701 1.260 . S
C1698 C1702 1.477 . S
C1698 H1716 0.932 . S
C1699 C1700 1.384 . S
C1699 C1701 1.479 . S
C1699 H1717 0.929 . S
C1700 C1697 1.424 . S
C1700 C1699 1.384 . S
C1700 H1718 0.928 . S
C1701 C1698 1.260 . S
C1701 C1699 1.479 . S
C1702 C1697 1.245 . S
C1702 C1698 1.477 . S
C1702 H1719 0.932 . S
C1703 U1686 2.882 . S
C1703 C1697 1.428 . S
C1703 O1706 1.301 . S
C1703 O1707 1.282 . S
O1704 U1686 2.441 . S
O1704 C1690 1.249 . S
O1705 U1686 2.420 . S
O1705 C1690 1.202 . S
O1706 U1686 2.455 . S
O1706 C1703 1.301 . S
O1707 U1686 2.449 . S
O1707 C1703 1.282 . S
H1708 C1681 0.931 . S
H1709 C1683 0.929 . S
H1710 C1684 0.930 . S
H1711 C1685 0.931 . S
H1712 C1692 0.932 . S
H1713 C1693 0.930 . S
H1714 C1694 0.929 . S
H1715 C1696 0.930 . S
H1716 C1698 0.932 . S
H1717 C1699 0.929 . S
H1718 C1700 0.928 . S
H1719 C1702 0.932 . S
C1720 C1721 1.264 . S
C1720 C1725 1.479 . S
C1720 C1730 1.465 . S
C1721 C1720 1.264 . S
C1721 C1723 1.339 . S
C1721 H1748 0.931 . S
C1722 C1723 1.395 . S
C1722 C1724 1.320 . S
C1723 C1721 1.339 . S
C1723 C1722 1.395 . S
C1723 H1749 0.929 . S
C1724 C1722 1.320 . S
C1724 C1725 1.405 . S
C1724 H1750 0.930 . S
C1725 C1720 1.479 . S
C1725 C1724 1.405 . S
C1725 H1751 0.931 . S
U1726 O1727 2.454 . S
U1726 O1728 2.458 . S
U1726 C1729 2.984 . S
U1726 C1730 2.847 . S
U1726 C1743 2.882 . S
U1726 O1744 2.441 . S
U1726 O1745 2.420 . S
U1726 O1746 2.455 . S
U1726 O1747 2.449 . S
O1727 U1726 2.454 . S
O1727 C1729 1.353 . S
O1728 U1726 2.458 . S
O1728 C1729 1.286 . S
C1729 U1726 2.984 . S
C1729 O1727 1.353 . S
C1729 O1728 1.286 . S
C1729 C1731 1.363 . S
C1730 C1720 1.465 . S
C1730 U1726 2.847 . S
C1730 O1744 1.249 . S
C1730 O1745 1.202 . S
C1731 C1729 1.363 . S
C1731 C1733 1.408 . S
C1731 C1736 1.342 . S
C1732 C1733 1.310 . S
C1732 C1735 1.461 . S
C1732 H1752 0.932 . S
C1733 C1731 1.408 . S
C1733 C1732 1.310 . S
C1733 H1753 0.930 . S
C1734 C1735 1.474 . S
C1734 C1736 1.285 . S
C1734 H1754 0.929 . S
C1735 C1732 1.461 . S
C1735 C1734 1.474 . S
C1736 C1731 1.342 . S
C1736 C1734 1.285 . S
C1736 H1755 0.930 . S
C1737 C1740 1.424 . S
C1737 C1742 1.245 . S
C1737 C1743 1.428 . S
C1738 C1741 1.260 . S
C1738 C1742 1.477 . S
C1738 H1756 0.932 . S
C1739 C1740 1.384 . S
C1739 C1741 1.479 . S
C1739 H1757 0.929 . S
C1740 C1737 1.424 . S
C1740 C1739 1.384 . S
C1740 H1758 0.928 . S
C1741 C1738 1.260 . S
C1741 C1739 1.479 . S
C1742 C1737 1.245 . S
C1742 C1738 1.477 . S
C1742 H1759 0.932 . S
C1743 U1726 2.882 . S
C1743 C1737 1.428 . S
C1743 O1746 1.301 . S
C1743 O1747 1.282 . S
O1744 U1726 2.441 . S
O1744 C1730 1.249 . S
O1745 U1726 2.420 . S
O1745 C1730 1.202 . S
O1746 U1726 2.455 . S
O1746 C1743 1.301 . S
O1747 U1726 2.449 . S
O1747 C1743 1.282 . S
H1748 C1721 0.931 . S
H1749 C1723 0.929 . S
H1750 C1724 0.930 . S
H1751 C1725 0.931 . S
H1752 C1732 0.932 . S
H1753 C1733 0.930 . S
H1754 C1734 0.929 . S
H1755 C1736 0.930 . S
H1756 C1738 0.932 . S
H1757 C1739 0.929 . S
H1758 C1740 0.928 . S
H1759 C1742 0.932 . S
C1760 C1761 1.264 . S
C1760 C1765 1.479 . S
C1760 C1770 1.465 . S
C1761 C1760 1.264 . S
C1761 C1763 1.339 . S
C1761 H1788 0.931 . S
C1762 C1763 1.395 . S
C1762 C1764 1.320 . S
C1763 C1761 1.339 . S
C1763 C1762 1.395 . S
C1763 H1789 0.929 . S
C1764 C1762 1.320 . S
C1764 C1765 1.405 . S
C1764 H1790 0.930 . S
C1765 C1760 1.479 . S
C1765 C1764 1.405 . S
C1765 H1791 0.931 . S
U1766 O1767 2.454 . S
U1766 O1768 2.458 . S
U1766 C1769 2.984 . S
U1766 C1770 2.847 . S
U1766 C1783 2.882 . S
U1766 O1784 2.441 . S
U1766 O1785 2.420 . S
U1766 O1786 2.455 . S
U1766 O1787 2.449 . S
O1767 U1766 2.454 . S
O1767 C1769 1.353 . S
O1768 U1766 2.458 . S
O1768 C1769 1.286 . S
C1769 U1766 2.984 . S
C1769 O1767 1.353 . S
C1769 O1768 1.286 . S
C1769 C1771 1.363 . S
C1770 C1760 1.465 . S
C1770 U1766 2.847 . S
C1770 O1784 1.249 . S
C1770 O1785 1.202 . S
C1771 C1769 1.363 . S
C1771 C1773 1.408 . S
C1771 C1776 1.342 . S
C1772 C1773 1.310 . S
C1772 C1775 1.461 . S
C1772 H1792 0.932 . S
C1773 C1771 1.408 . S
C1773 C1772 1.310 . S
C1773 H1793 0.930 . S
C1774 C1775 1.474 . S
C1774 C1776 1.285 . S
C1774 H1794 0.929 . S
C1775 C1772 1.461 . S
C1775 C1774 1.474 . S
C1776 C1771 1.342 . S
C1776 C1774 1.285 . S
C1776 H1795 0.930 . S
C1777 C1780 1.424 . S
C1777 C1782 1.245 . S
C1777 C1783 1.428 . S
C1778 C1781 1.260 . S
C1778 C1782 1.477 . S
C1778 H1796 0.932 . S
C1779 C1780 1.384 . S
C1779 C1781 1.479 . S
C1779 H1797 0.929 . S
C1780 C1777 1.424 . S
C1780 C1779 1.384 . S
C1780 H1798 0.928 . S
C1781 C1778 1.260 . S
C1781 C1779 1.479 . S
C1782 C1777 1.245 . S
C1782 C1778 1.477 . S
C1782 H1799 0.932 . S
C1783 U1766 2.882 . S
C1783 C1777 1.428 . S
C1783 O1786 1.301 . S
C1783 O1787 1.282 . S
O1784 U1766 2.441 . S
O1784 C1770 1.249 . S
O1785 U1766 2.420 . S
O1785 C1770 1.202 . S
O1786 U1766 2.455 . S
O1786 C1783 1.301 . S
O1787 U1766 2.449 . S
O1787 C1783 1.282 . S
H1788 C1761 0.931 . S
H1789 C1763 0.929 . S
H1790 C1764 0.930 . S
H1791 C1765 0.931 . S
H1792 C1772 0.932 . S
H1793 C1773 0.930 . S
H1794 C1774 0.929 . S
H1795 C1776 0.930 . S
H1796 C1778 0.932 . S
H1797 C1779 0.929 . S
H1798 C1780 0.928 . S
H1799 C1782 0.932 . S
C1800 C1801 1.264 . S
C1800 C1805 1.479 . S
C1800 C1810 1.465 . S
C1801 C1800 1.264 . S
C1801 C1803 1.339 . S
C1801 H1828 0.931 . S
C1802 C1803 1.395 . S
C1802 C1804 1.320 . S
C1803 C1801 1.339 . S
C1803 C1802 1.395 . S
C1803 H1829 0.929 . S
C1804 C1802 1.320 . S
C1804 C1805 1.405 . S
C1804 H1830 0.930 . S
C1805 C1800 1.479 . S
C1805 C1804 1.405 . S
C1805 H1831 0.931 . S
U1806 O1807 2.454 . S
U1806 O1808 2.458 . S
U1806 C1809 2.984 . S
U1806 C1810 2.847 . S
U1806 C1823 2.882 . S
U1806 O1824 2.441 . S
U1806 O1825 2.420 . S
U1806 O1826 2.455 . S
U1806 O1827 2.449 . S
O1807 U1806 2.454 . S
O1807 C1809 1.353 . S
O1808 U1806 2.458 . S
O1808 C1809 1.286 . S
C1809 U1806 2.984 . S
C1809 O1807 1.353 . S
C1809 O1808 1.286 . S
C1809 C1811 1.363 . S
C1810 C1800 1.465 . S
C1810 U1806 2.847 . S
C1810 O1824 1.249 . S
C1810 O1825 1.202 . S
C1811 C1809 1.363 . S
C1811 C1813 1.408 . S
C1811 C1816 1.342 . S
C1812 C1813 1.310 . S
C1812 C1815 1.461 . S
C1812 H1832 0.932 . S
C1813 C1811 1.408 . S
C1813 C1812 1.310 . S
C1813 H1833 0.930 . S
C1814 C1815 1.474 . S
C1814 C1816 1.285 . S
C1814 H1834 0.929 . S
C1815 C1812 1.461 . S
C1815 C1814 1.474 . S
C1816 C1811 1.342 . S
C1816 C1814 1.285 . S
C1816 H1835 0.930 . S
C1817 C1820 1.424 . S
C1817 C1822 1.245 . S
C1817 C1823 1.428 . S
C1818 C1821 1.260 . S
C1818 C1822 1.477 . S
C1818 H1836 0.932 . S
C1819 C1820 1.384 . S
C1819 C1821 1.479 . S
C1819 H1837 0.929 . S
C1820 C1817 1.424 . S
C1820 C1819 1.384 . S
C1820 H1838 0.928 . S
C1821 C1818 1.260 . S
C1821 C1819 1.479 . S
C1822 C1817 1.245 . S
C1822 C1818 1.477 . S
C1822 H1839 0.932 . S
C1823 U1806 2.882 . S
C1823 C1817 1.428 . S
C1823 O1826 1.301 . S
C1823 O1827 1.282 . S
O1824 U1806 2.441 . S
O1824 C1810 1.249 . S
O1825 U1806 2.420 . S
O1825 C1810 1.202 . S
O1826 U1806 2.455 . S
O1826 C1823 1.301 . S
O1827 U1806 2.449 . S
O1827 C1823 1.282 . S
H1828 C1801 0.931 . S
H1829 C1803 0.929 . S
H1830 C1804 0.930 . S
H1831 C1805 0.931 . S
H1832 C1812 0.932 . S
H1833 C1813 0.930 . S
H1834 C1814 0.929 . S
H1835 C1816 0.930 . S
H1836 C1818 0.932 . S
H1837 C1819 0.929 . S
H1838 C1820 0.928 . S
H1839 C1822 0.932 . S
C1840 C1841 1.264 . S
C1840 C1845 1.479 . S
C1840 C1850 1.465 . S
C1841 C1840 1.264 . S
C1841 C1843 1.339 . S
C1841 H1868 0.931 . S
C1842 C1843 1.395 . S
C1842 C1844 1.320 . S
C1843 C1841 1.339 . S
C1843 C1842 1.395 . S
C1843 H1869 0.929 . S
C1844 C1842 1.320 . S
C1844 C1845 1.405 . S
C1844 H1870 0.930 . S
C1845 C1840 1.479 . S
C1845 C1844 1.405 . S
C1845 H1871 0.931 . S
U1846 O1847 2.454 . S
U1846 O1848 2.458 . S
U1846 C1849 2.984 . S
U1846 C1850 2.847 . S
U1846 C1863 2.882 . S
U1846 O1864 2.441 . S
U1846 O1865 2.420 . S
U1846 O1866 2.455 . S
U1846 O1867 2.449 . S
O1847 U1846 2.454 . S
O1847 C1849 1.353 . S
O1848 U1846 2.458 . S
O1848 C1849 1.286 . S
C1849 U1846 2.984 . S
C1849 O1847 1.353 . S
C1849 O1848 1.286 . S
C1849 C1851 1.363 . S
C1850 C1840 1.465 . S
C1850 U1846 2.847 . S
C1850 O1864 1.249 . S
C1850 O1865 1.202 . S
C1851 C1849 1.363 . S
C1851 C1853 1.408 . S
C1851 C1856 1.342 . S
C1852 C1853 1.310 . S
C1852 C1855 1.461 . S
C1852 H1872 0.932 . S
C1853 C1851 1.408 . S
C1853 C1852 1.310 . S
C1853 H1873 0.930 . S
C1854 C1855 1.474 . S
C1854 C1856 1.285 . S
C1854 H1874 0.929 . S
C1855 C1852 1.461 . S
C1855 C1854 1.474 . S
C1856 C1851 1.342 . S
C1856 C1854 1.285 . S
C1856 H1875 0.930 . S
C1857 C1860 1.424 . S
C1857 C1862 1.245 . S
C1857 C1863 1.428 . S
C1858 C1861 1.260 . S
C1858 C1862 1.477 . S
C1858 H1876 0.932 . S
C1859 C1860 1.384 . S
C1859 C1861 1.479 . S
C1859 H1877 0.929 . S
C1860 C1857 1.424 . S
C1860 C1859 1.384 . S
C1860 H1878 0.928 . S
C1861 C1858 1.260 . S
C1861 C1859 1.479 . S
C1862 C1857 1.245 . S
C1862 C1858 1.477 . S
C1862 H1879 0.932 . S
C1863 U1846 2.882 . S
C1863 C1857 1.428 . S
C1863 O1866 1.301 . S
C1863 O1867 1.282 . S
O1864 U1846 2.441 . S
O1864 C1850 1.249 . S
O1865 U1846 2.420 . S
O1865 C1850 1.202 . S
O1866 U1846 2.455 . S
O1866 C1863 1.301 . S
O1867 U1846 2.449 . S
O1867 C1863 1.282 . S
H1868 C1841 0.931 . S
H1869 C1843 0.929 . S
H1870 C1844 0.930 . S
H1871 C1845 0.931 . S
H1872 C1852 0.932 . S
H1873 C1853 0.930 . S
H1874 C1854 0.929 . S
H1875 C1856 0.930 . S
H1876 C1858 0.932 . S
H1877 C1859 0.929 . S
H1878 C1860 0.928 . S
H1879 C1862 0.932 . S
C1880 C1881 1.264 . S
C1880 C1885 1.479 . S
C1880 C1890 1.465 . S
C1881 C1880 1.264 . S
C1881 C1883 1.339 . S
C1881 H1908 0.931 . S
C1882 C1883 1.395 . S
C1882 C1884 1.320 . S
C1883 C1881 1.339 . S
C1883 C1882 1.395 . S
C1883 H1909 0.929 . S
C1884 C1882 1.320 . S
C1884 C1885 1.405 . S
C1884 H1910 0.930 . S
C1885 C1880 1.479 . S
C1885 C1884 1.405 . S
C1885 H1911 0.931 . S
U1886 O1887 2.454 . S
U1886 O1888 2.458 . S
U1886 C1889 2.984 . S
U1886 C1890 2.847 . S
U1886 C1903 2.882 . S
U1886 O1904 2.441 . S
U1886 O1905 2.420 . S
U1886 O1906 2.455 . S
U1886 O1907 2.449 . S
O1887 U1886 2.454 . S
O1887 C1889 1.353 . S
O1888 U1886 2.458 . S
O1888 C1889 1.286 . S
C1889 U1886 2.984 . S
C1889 O1887 1.353 . S
C1889 O1888 1.286 . S
C1889 C1891 1.363 . S
C1890 C1880 1.465 . S
C1890 U1886 2.847 . S
C1890 O1904 1.249 . S
C1890 O1905 1.202 . S
C1891 C1889 1.363 . S
C1891 C1893 1.408 . S
C1891 C1896 1.342 . S
C1892 C1893 1.310 . S
C1892 C1895 1.461 . S
C1892 H1912 0.932 . S
C1893 C1891 1.408 . S
C1893 C1892 1.310 . S
C1893 H1913 0.930 . S
C1894 C1895 1.474 . S
C1894 C1896 1.285 . S
C1894 H1914 0.929 . S
C1895 C1892 1.461 . S
C1895 C1894 1.474 . S
C1896 C1891 1.342 . S
C1896 C1894 1.285 . S
C1896 H1915 0.930 . S
C1897 C1900 1.424 . S
C1897 C1902 1.245 . S
C1897 C1903 1.428 . S
C1898 C1901 1.260 . S
C1898 C1902 1.477 . S
C1898 H1916 0.932 . S
C1899 C1900 1.384 . S
C1899 C1901 1.479 . S
C1899 H1917 0.929 . S
C1900 C1897 1.424 . S
C1900 C1899 1.384 . S
C1900 H1918 0.928 . S
C1901 C1898 1.260 . S
C1901 C1899 1.479 . S
C1902 C1897 1.245 . S
C1902 C1898 1.477 . S
C1902 H1919 0.932 . S
C1903 U1886 2.882 . S
C1903 C1897 1.428 . S
C1903 O1906 1.301 . S
C1903 O1907 1.282 . S
O1904 U1886 2.441 . S
O1904 C1890 1.249 . S
O1905 U1886 2.420 . S
O1905 C1890 1.202 . S
O1906 U1886 2.455 . S
O1906 C1903 1.301 . S
O1907 U1886 2.449 . S
O1907 C1903 1.282 . S
H1908 C1881 0.931 . S
H1909 C1883 0.929 . S
H1910 C1884 0.930 . S
H1911 C1885 0.931 . S
H1912 C1892 0.932 . S
H1913 C1893 0.930 . S
H1914 C1894 0.929 . S
H1915 C1896 0.930 . S
H1916 C1898 0.932 . S
H1917 C1899 0.929 . S
H1918 C1900 0.928 . S
H1919 C1902 0.932 . S
C1920 C1921 1.264 . S
C1920 C1925 1.479 . S
C1920 C1930 1.465 . S
C1921 C1920 1.264 . S
C1921 C1923 1.339 . S
C1921 H1948 0.931 . S
C1922 C1923 1.395 . S
C1922 C1924 1.320 . S
C1923 C1921 1.339 . S
C1923 C1922 1.395 . S
C1923 H1949 0.929 . S
C1924 C1922 1.320 . S
C1924 C1925 1.405 . S
C1924 H1950 0.930 . S
C1925 C1920 1.479 . S
C1925 C1924 1.405 . S
C1925 H1951 0.931 . S
U1926 O1927 2.454 . S
U1926 O1928 2.458 . S
U1926 C1929 2.984 . S
U1926 C1930 2.847 . S
U1926 C1943 2.882 . S
U1926 O1944 2.441 . S
U1926 O1945 2.420 . S
U1926 O1946 2.455 . S
U1926 O1947 2.449 . S
O1927 U1926 2.454 . S
O1927 C1929 1.353 . S
O1928 U1926 2.458 . S
O1928 C1929 1.286 . S
C1929 U1926 2.984 . S
C1929 O1927 1.353 . S
C1929 O1928 1.286 . S
C1929 C1931 1.363 . S
C1930 C1920 1.465 . S
C1930 U1926 2.847 . S
C1930 O1944 1.249 . S
C1930 O1945 1.202 . S
C1931 C1929 1.363 . S
C1931 C1933 1.408 . S
C1931 C1936 1.342 . S
C1932 C1933 1.310 . S
C1932 C1935 1.461 . S
C1932 H1952 0.932 . S
C1933 C1931 1.408 . S
C1933 C1932 1.310 . S
C1933 H1953 0.930 . S
C1934 C1935 1.474 . S
C1934 C1936 1.285 . S
C1934 H1954 0.929 . S
C1935 C1932 1.461 . S
C1935 C1934 1.474 . S
C1936 C1931 1.342 . S
C1936 C1934 1.285 . S
C1936 H1955 0.930 . S
C1937 C1940 1.424 . S
C1937 C1942 1.245 . S
C1937 C1943 1.428 . S
C1938 C1941 1.260 . S
C1938 C1942 1.477 . S
C1938 H1956 0.932 . S
C1939 C1940 1.384 . S
C1939 C1941 1.479 . S
C1939 H1957 0.929 . S
C1940 C1937 1.424 . S
C1940 C1939 1.384 . S
C1940 H1958 0.928 . S
C1941 C1938 1.260 . S
C1941 C1939 1.479 . S
C1942 C1937 1.245 . S
C1942 C1938 1.477 . S
C1942 H1959 0.932 . S
C1943 U1926 2.882 . S
C1943 C1937 1.428 . S
C1943 O1946 1.301 . S
C1943 O1947 1.282 . S
O1944 U1926 2.441 . S
O1944 C1930 1.249 . S
O1945 U1926 2.420 . S
O1945 C1930 1.202 . S
O1946 U1926 2.455 . S
O1946 C1943 1.301 . S
O1947 U1926 2.449 . S
O1947 C1943 1.282 . S
H1948 C1921 0.931 . S
H1949 C1923 0.929 . S
H1950 C1924 0.930 . S
H1951 C1925 0.931 . S
H1952 C1932 0.932 . S
H1953 C1933 0.930 . S
H1954 C1934 0.929 . S
H1955 C1936 0.930 . S
H1956 C1938 0.932 . S
H1957 C1939 0.929 . S
H1958 C1940 0.928 . S
H1959 C1942 0.932 . S
C1960 C1961 1.264 . S
C1960 C1965 1.479 . S
C1960 C1970 1.465 . S
C1961 C1960 1.264 . S
C1961 C1963 1.339 . S
C1961 H1988 0.931 . S
C1962 C1963 1.395 . S
C1962 C1964 1.320 . S
C1963 C1961 1.339 . S
C1963 C1962 1.395 . S
C1963 H1989 0.929 . S
C1964 C1962 1.320 . S
C1964 C1965 1.405 . S
C1964 H1990 0.930 . S
C1965 C1960 1.479 . S
C1965 C1964 1.405 . S
C1965 H1991 0.931 . S
U1966 O1967 2.454 . S
U1966 O1968 2.458 . S
U1966 C1969 2.984 . S
U1966 C1970 2.847 . S
U1966 C1983 2.882 . S
U1966 O1984 2.441 . S
U1966 O1985 2.420 . S
U1966 O1986 2.455 . S
U1966 O1987 2.449 . S
O1967 U1966 2.454 . S
O1967 C1969 1.353 . S
O1968 U1966 2.458 . S
O1968 C1969 1.286 . S
C1969 U1966 2.984 . S
C1969 O1967 1.353 . S
C1969 O1968 1.286 . S
C1969 C1971 1.363 . S
C1970 C1960 1.465 . S
C1970 U1966 2.847 . S
C1970 O1984 1.249 . S
C1970 O1985 1.202 . S
C1971 C1969 1.363 . S
C1971 C1973 1.408 . S
C1971 C1976 1.342 . S
C1972 C1973 1.310 . S
C1972 C1975 1.461 . S
C1972 H1992 0.932 . S
C1973 C1971 1.408 . S
C1973 C1972 1.310 . S
C1973 H1993 0.930 . S
C1974 C1975 1.474 . S
C1974 C1976 1.285 . S
C1974 H1994 0.929 . S
C1975 C1972 1.461 . S
C1975 C1974 1.474 . S
C1976 C1971 1.342 . S
C1976 C1974 1.285 . S
C1976 H1995 0.930 . S
C1977 C1980 1.424 . S
C1977 C1982 1.245 . S
C1977 C1983 1.428 . S
C1978 C1981 1.260 . S
C1978 C1982 1.477 . S
C1978 H1996 0.932 . S
C1979 C1980 1.384 . S
C1979 C1981 1.479 . S
C1979 H1997 0.929 . S
C1980 C1977 1.424 . S
C1980 C1979 1.384 . S
C1980 H1998 0.928 . S
C1981 C1978 1.260 . S
C1981 C1979 1.479 . S
C1982 C1977 1.245 . S
C1982 C1978 1.477 . S
C1982 H1999 0.932 . S
C1983 U1966 2.882 . S
C1983 C1977 1.428 . S
C1983 O1986 1.301 . S
C1983 O1987 1.282 . S
O1984 U1966 2.441 . S
O1984 C1970 1.249 . S
O1985 U1966 2.420 . S
O1985 C1970 1.202 . S
O1986 U1966 2.455 . S
O1986 C1983 1.301 . S
O1987 U1966 2.449 . S
O1987 C1983 1.282 . S
H1988 C1961 0.931 . S
H1989 C1963 0.929 . S
H1990 C1964 0.930 . S
H1991 C1965 0.931 . S
H1992 C1972 0.932 . S
H1993 C1973 0.930 . S
H1994 C1974 0.929 . S
H1995 C1976 0.930 . S
H1996 C1978 0.932 . S
H1997 C1979 0.929 . S
H1998 C1980 0.928 . S
H1999 C1982 0.932 . S
C2000 C2001 1.264 . S
C2000 C2005 1.479 . S
C2000 C2010 1.465 . S
C2001 C2000 1.264 . S
C2001 C2003 1.339 . S
C2001 H2028 0.931 . S
C2002 C2003 1.395 . S
C2002 C2004 1.320 . S
C2003 C2001 1.339 . S
C2003 C2002 1.395 . S
C2003 H2029 0.929 . S
C2004 C2002 1.320 . S
C2004 C2005 1.405 . S
C2004 H2030 0.930 . S
C2005 C2000 1.479 . S
C2005 C2004 1.405 . S
C2005 H2031 0.931 . S
U2006 O2007 2.454 . S
U2006 O2008 2.458 . S
U2006 C2009 2.984 . S
U2006 C2010 2.847 . S
U2006 C2023 2.882 . S
U2006 O2024 2.441 . S
U2006 O2025 2.420 . S
U2006 O2026 2.455 . S
U2006 O2027 2.449 . S
O2007 U2006 2.454 . S
O2007 C2009 1.353 . S
O2008 U2006 2.458 . S
O2008 C2009 1.286 . S
C2009 U2006 2.984 . S
C2009 O2007 1.353 . S
C2009 O2008 1.286 . S
C2009 C2011 1.363 . S
C2010 C2000 1.465 . S
C2010 U2006 2.847 . S
C2010 O2024 1.249 . S
C2010 O2025 1.202 . S
C2011 C2009 1.363 . S
C2011 C2013 1.408 . S
C2011 C2016 1.342 . S
C2012 C2013 1.310 . S
C2012 C2015 1.461 . S
C2012 H2032 0.932 . S
C2013 C2011 1.408 . S
C2013 C2012 1.310 . S
C2013 H2033 0.930 . S
C2014 C2015 1.474 . S
C2014 C2016 1.285 . S
C2014 H2034 0.929 . S
C2015 C2012 1.461 . S
C2015 C2014 1.474 . S
C2016 C2011 1.342 . S
C2016 C2014 1.285 . S
C2016 H2035 0.930 . S
C2017 C2020 1.424 . S
C2017 C2022 1.245 . S
C2017 C2023 1.428 . S
C2018 C2021 1.260 . S
C2018 C2022 1.477 . S
C2018 H2036 0.932 . S
C2019 C2020 1.384 . S
C2019 C2021 1.479 . S
C2019 H2037 0.929 . S
C2020 C2017 1.424 . S
C2020 C2019 1.384 . S
C2020 H2038 0.928 . S
C2021 C2018 1.260 . S
C2021 C2019 1.479 . S
C2022 C2017 1.245 . S
C2022 C2018 1.477 . S
C2022 H2039 0.932 . S
C2023 U2006 2.882 . S
C2023 C2017 1.428 . S
C2023 O2026 1.301 . S
C2023 O2027 1.282 . S
O2024 U2006 2.441 . S
O2024 C2010 1.249 . S
O2025 U2006 2.420 . S
O2025 C2010 1.202 . S
O2026 U2006 2.455 . S
O2026 C2023 1.301 . S
O2027 U2006 2.449 . S
O2027 C2023 1.282 . S
H2028 C2001 0.931 . S
H2029 C2003 0.929 . S
H2030 C2004 0.930 . S
H2031 C2005 0.931 . S
H2032 C2012 0.932 . S
H2033 C2013 0.930 . S
H2034 C2014 0.929 . S
H2035 C2016 0.930 . S
H2036 C2018 0.932 . S
H2037 C2019 0.929 . S
H2038 C2020 0.928 . S
H2039 C2022 0.932 . S
C2040 C2041 1.264 . S
C2040 C2045 1.479 . S
C2040 C2050 1.465 . S
C2041 C2040 1.264 . S
C2041 C2043 1.339 . S
C2041 H2068 0.931 . S
C2042 C2043 1.395 . S
C2042 C2044 1.320 . S
C2043 C2041 1.339 . S
C2043 C2042 1.395 . S
C2043 H2069 0.929 . S
C2044 C2042 1.320 . S
C2044 C2045 1.405 . S
C2044 H2070 0.930 . S
C2045 C2040 1.479 . S
C2045 C2044 1.405 . S
C2045 H2071 0.931 . S
U2046 O2047 2.454 . S
U2046 O2048 2.458 . S
U2046 C2049 2.984 . S
U2046 C2050 2.847 . S
U2046 C2063 2.882 . S
U2046 O2064 2.441 . S
U2046 O2065 2.420 . S
U2046 O2066 2.455 . S
U2046 O2067 2.449 . S
O2047 U2046 2.454 . S
O2047 C2049 1.353 . S
O2048 U2046 2.458 . S
O2048 C2049 1.286 . S
C2049 U2046 2.984 . S
C2049 O2047 1.353 . S
C2049 O2048 1.286 . S
C2049 C2051 1.363 . S
C2050 C2040 1.465 . S
C2050 U2046 2.847 . S
C2050 O2064 1.249 . S
C2050 O2065 1.202 . S
C2051 C2049 1.363 . S
C2051 C2053 1.408 . S
C2051 C2056 1.342 . S
C2052 C2053 1.310 . S
C2052 C2055 1.461 . S
C2052 H2072 0.932 . S
C2053 C2051 1.408 . S
C2053 C2052 1.310 . S
C2053 H2073 0.930 . S
C2054 C2055 1.474 . S
C2054 C2056 1.285 . S
C2054 H2074 0.929 . S
C2055 C2052 1.461 . S
C2055 C2054 1.474 . S
C2056 C2051 1.342 . S
C2056 C2054 1.285 . S
C2056 H2075 0.930 . S
C2057 C2060 1.424 . S
C2057 C2062 1.245 . S
C2057 C2063 1.428 . S
C2058 C2061 1.260 . S
C2058 C2062 1.477 . S
C2058 H2076 0.932 . S
C2059 C2060 1.384 . S
C2059 C2061 1.479 . S
C2059 H2077 0.929 . S
C2060 C2057 1.424 . S
C2060 C2059 1.384 . S
C2060 H2078 0.928 . S
C2061 C2058 1.260 . S
C2061 C2059 1.479 . S
C2062 C2057 1.245 . S
C2062 C2058 1.477 . S
C2062 H2079 0.932 . S
C2063 U2046 2.882 . S
C2063 C2057 1.428 . S
C2063 O2066 1.301 . S
C2063 O2067 1.282 . S
O2064 U2046 2.441 . S
O2064 C2050 1.249 . S
O2065 U2046 2.420 . S
O2065 C2050 1.202 . S
O2066 U2046 2.455 . S
O2066 C2063 1.301 . S
O2067 U2046 2.449 . S
O2067 C2063 1.282 . S
H2068 C2041 0.931 . S
H2069 C2043 0.929 . S
H2070 C2044 0.930 . S
H2071 C2045 0.931 . S
H2072 C2052 0.932 . S
H2073 C2053 0.930 . S
H2074 C2054 0.929 . S
H2075 C2056 0.930 . S
H2076 C2058 0.932 . S
H2077 C2059 0.929 . S
H2078 C2060 0.928 . S
H2079 C2062 0.932 . S
C2080 C2081 1.264 . S
C2080 C2085 1.479 . S
C2080 C2090 1.465 . S
C2081 C2080 1.264 . S
C2081 C2083 1.339 . S
C2081 H2108 0.931 . S
C2082 C2083 1.395 . S
C2082 C2084 1.320 . S
C2083 C2081 1.339 . S
C2083 C2082 1.395 . S
C2083 H2109 0.929 . S
C2084 C2082 1.320 . S
C2084 C2085 1.405 . S
C2084 H2110 0.930 . S
C2085 C2080 1.479 . S
C2085 C2084 1.405 . S
C2085 H2111 0.931 . S
U2086 O2087 2.454 . S
U2086 O2088 2.458 . S
U2086 C2089 2.984 . S
U2086 C2090 2.847 . S
U2086 C2103 2.882 . S
U2086 O2104 2.441 . S
U2086 O2105 2.420 . S
U2086 O2106 2.455 . S
U2086 O2107 2.449 . S
O2087 U2086 2.454 . S
O2087 C2089 1.353 . S
O2088 U2086 2.458 . S
O2088 C2089 1.286 . S
C2089 U2086 2.984 . S
C2089 O2087 1.353 . S
C2089 O2088 1.286 . S
C2089 C2091 1.363 . S
C2090 C2080 1.465 . S
C2090 U2086 2.847 . S
C2090 O2104 1.249 . S
C2090 O2105 1.202 . S
C2091 C2089 1.363 . S
C2091 C2093 1.408 . S
C2091 C2096 1.342 . S
C2092 C2093 1.310 . S
C2092 C2095 1.461 . S
C2092 H2112 0.932 . S
C2093 C2091 1.408 . S
C2093 C2092 1.310 . S
C2093 H2113 0.930 . S
C2094 C2095 1.474 . S
C2094 C2096 1.285 . S
C2094 H2114 0.929 . S
C2095 C2092 1.461 . S
C2095 C2094 1.474 . S
C2096 C2091 1.342 . S
C2096 C2094 1.285 . S
C2096 H2115 0.930 . S
C2097 C2100 1.424 . S
C2097 C2102 1.245 . S
C2097 C2103 1.428 . S
C2098 C2101 1.260 . S
C2098 C2102 1.477 . S
C2098 H2116 0.932 . S
C2099 C2100 1.384 . S
C2099 C2101 1.479 . S
C2099 H2117 0.929 . S
C2100 C2097 1.424 . S
C2100 C2099 1.384 . S
C2100 H2118 0.928 . S
C2101 C2098 1.260 . S
C2101 C2099 1.479 . S
C2102 C2097 1.245 . S
C2102 C2098 1.477 . S
C2102 H2119 0.932 . S
C2103 U2086 2.882 . S
C2103 C2097 1.428 . S
C2103 O2106 1.301 . S
C2103 O2107 1.282 . S
O2104 U2086 2.441 . S
O2104 C2090 1.249 . S
O2105 U2086 2.420 . S
O2105 C2090 1.202 . S
O2106 U2086 2.455 . S
O2106 C2103 1.301 . S
O2107 U2086 2.449 . S
O2107 C2103 1.282 . S
H2108 C2081 0.931 . S
H2109 C2083 0.929 . S
H2110 C2084 0.930 . S
H2111 C2085 0.931 . S
H2112 C2092 0.932 . S
H2113 C2093 0.930 . S
H2114 C2094 0.929 . S
H2115 C2096 0.930 . S
H2116 C2098 0.932 . S
H2117 C2099 0.929 . S
H2118 C2100 0.928 . S
H2119 C2102 0.932 . S
C2120 C2121 1.264 . S
C2120 C2125 1.479 . S
C2120 C2130 1.465 . S
C2121 C2120 1.264 . S
C2121 C2123 1.339 . S
C2121 H2148 0.931 . S
C2122 C2123 1.395 . S
C2122 C2124 1.320 . S
C2123 C2121 1.339 . S
C2123 C2122 1.395 . S
C2123 H2149 0.929 . S
C2124 C2122 1.320 . S
C2124 C2125 1.405 . S
C2124 H2150 0.930 . S
C2125 C2120 1.479 . S
C2125 C2124 1.405 . S
C2125 H2151 0.931 . S
U2126 O2127 2.454 . S
U2126 O2128 2.458 . S
U2126 C2129 2.984 . S
U2126 C2130 2.847 . S
U2126 C2143 2.882 . S
U2126 O2144 2.441 . S
U2126 O2145 2.420 . S
U2126 O2146 2.455 . S
U2126 O2147 2.449 . S
O2127 U2126 2.454 . S
O2127 C2129 1.353 . S
O2128 U2126 2.458 . S
O2128 C2129 1.286 . S
C2129 U2126 2.984 . S
C2129 O2127 1.353 . S
C2129 O2128 1.286 . S
C2129 C2131 1.363 . S
C2130 C2120 1.465 . S
C2130 U2126 2.847 . S
C2130 O2144 1.249 . S
C2130 O2145 1.202 . S
C2131 C2129 1.363 . S
C2131 C2133 1.408 . S
C2131 C2136 1.342 . S
C2132 C2133 1.310 . S
C2132 C2135 1.461 . S
C2132 H2152 0.932 . S
C2133 C2131 1.408 . S
C2133 C2132 1.310 . S
C2133 H2153 0.930 . S
C2134 C2135 1.474 . S
C2134 C2136 1.285 . S
C2134 H2154 0.929 . S
C2135 C2132 1.461 . S
C2135 C2134 1.474 . S
C2136 C2131 1.342 . S
C2136 C2134 1.285 . S
C2136 H2155 0.930 . S
C2137 C2140 1.424 . S
C2137 C2142 1.245 . S
C2137 C2143 1.428 . S
C2138 C2141 1.260 . S
C2138 C2142 1.477 . S
C2138 H2156 0.932 . S
C2139 C2140 1.384 . S
C2139 C2141 1.479 . S
C2139 H2157 0.929 . S
C2140 C2137 1.424 . S
C2140 C2139 1.384 . S
C2140 H2158 0.928 . S
C2141 C2138 1.260 . S
C2141 C2139 1.479 . S
C2142 C2137 1.245 . S
C2142 C2138 1.477 . S
C2142 H2159 0.932 . S
C2143 U2126 2.882 . S
C2143 C2137 1.428 . S
C2143 O2146 1.301 . S
C2143 O2147 1.282 . S
O2144 U2126 2.441 . S
O2144 C2130 1.249 . S
O2145 U2126 2.420 . S
O2145 C2130 1.202 . S
O2146 U2126 2.455 . S
O2146 C2143 1.301 . S
O2147 U2126 2.449 . S
O2147 C2143 1.282 . S
H2148 C2121 0.931 . S
H2149 C2123 0.929 . S
H2150 C2124 0.930 . S
H2151 C2125 0.931 . S
H2152 C2132 0.932 . S
H2153 C2133 0.930 . S
H2154 C2134 0.929 . S
H2155 C2136 0.930 . S
H2156 C2138 0.932 . S
H2157 C2139 0.929 . S
H2158 C2140 0.928 . S
H2159 C2142 0.932 . S
C2160 C2161 1.264 . S
C2160 C2165 1.479 . S
C2160 C2170 1.465 . S
C2161 C2160 1.264 . S
C2161 C2163 1.339 . S
C2161 H2188 0.931 . S
C2162 C2163 1.395 . S
C2162 C2164 1.320 . S
C2163 C2161 1.339 . S
C2163 C2162 1.395 . S
C2163 H2189 0.929 . S
C2164 C2162 1.320 . S
C2164 C2165 1.405 . S
C2164 H2190 0.930 . S
C2165 C2160 1.479 . S
C2165 C2164 1.405 . S
C2165 H2191 0.931 . S
U2166 O2167 2.454 . S
U2166 O2168 2.458 . S
U2166 C2169 2.984 . S
U2166 C2170 2.847 . S
U2166 C2183 2.882 . S
U2166 O2184 2.441 . S
U2166 O2185 2.420 . S
U2166 O2186 2.455 . S
U2166 O2187 2.449 . S
O2167 U2166 2.454 . S
O2167 C2169 1.353 . S
O2168 U2166 2.458 . S
O2168 C2169 1.286 . S
C2169 U2166 2.984 . S
C2169 O2167 1.353 . S
C2169 O2168 1.286 . S
C2169 C2171 1.363 . S
C2170 C2160 1.465 . S
C2170 U2166 2.847 . S
C2170 O2184 1.249 . S
C2170 O2185 1.202 . S
C2171 C2169 1.363 . S
C2171 C2173 1.408 . S
C2171 C2176 1.342 . S
C2172 C2173 1.310 . S
C2172 C2175 1.461 . S
C2172 H2192 0.932 . S
C2173 C2171 1.408 . S
C2173 C2172 1.310 . S
C2173 H2193 0.930 . S
C2174 C2175 1.474 . S
C2174 C2176 1.285 . S
C2174 H2194 0.929 . S
C2175 C2172 1.461 . S
C2175 C2174 1.474 . S
C2176 C2171 1.342 . S
C2176 C2174 1.285 . S
C2176 H2195 0.930 . S
C2177 C2180 1.424 . S
C2177 C2182 1.245 . S
C2177 C2183 1.428 . S
C2178 C2181 1.260 . S
C2178 C2182 1.477 . S
C2178 H2196 0.932 . S
C2179 C2180 1.384 . S
C2179 C2181 1.479 . S
C2179 H2197 0.929 . S
C2180 C2177 1.424 . S
C2180 C2179 1.384 . S
C2180 H2198 0.928 . S
C2181 C2178 1.260 . S
C2181 C2179 1.479 . S
C2182 C2177 1.245 . S
C2182 C2178 1.477 . S
C2182 H2199 0.932 . S
C2183 U2166 2.882 . S
C2183 C2177 1.428 . S
C2183 O2186 1.301 . S
C2183 O2187 1.282 . S
O2184 U2166 2.441 . S
O2184 C2170 1.249 . S
O2185 U2166 2.420 . S
O2185 C2170 1.202 . S
O2186 U2166 2.455 . S
O2186 C2183 1.301 . S
O2187 U2166 2.449 . S
O2187 C2183 1.282 . S
H2188 C2161 0.931 . S
H2189 C2163 0.929 . S
H2190 C2164 0.930 . S
H2191 C2165 0.931 . S
H2192 C2172 0.932 . S
H2193 C2173 0.930 . S
H2194 C2174 0.929 . S
H2195 C2176 0.930 . S
H2196 C2178 0.932 . S
H2197 C2179 0.929 . S
H2198 C2180 0.928 . S
H2199 C2182 0.932 . S
C2200 C2201 1.264 . S
C2200 C2205 1.479 . S
C2200 C2210 1.465 . S
C2201 C2200 1.264 . S
C2201 C2203 1.339 . S
C2201 H2228 0.931 . S
C2202 C2203 1.395 . S
C2202 C2204 1.320 . S
C2203 C2201 1.339 . S
C2203 C2202 1.395 . S
C2203 H2229 0.929 . S
C2204 C2202 1.320 . S
C2204 C2205 1.405 . S
C2204 H2230 0.930 . S
C2205 C2200 1.479 . S
C2205 C2204 1.405 . S
C2205 H2231 0.931 . S
U2206 O2207 2.454 . S
U2206 O2208 2.458 . S
U2206 C2209 2.984 . S
U2206 C2210 2.847 . S
U2206 C2223 2.882 . S
U2206 O2224 2.441 . S
U2206 O2225 2.420 . S
U2206 O2226 2.455 . S
U2206 O2227 2.449 . S
O2207 U2206 2.454 . S
O2207 C2209 1.353 . S
O2208 U2206 2.458 . S
O2208 C2209 1.286 . S
C2209 U2206 2.984 . S
C2209 O2207 1.353 . S
C2209 O2208 1.286 . S
C2209 C2211 1.363 . S
C2210 C2200 1.465 . S
C2210 U2206 2.847 . S
C2210 O2224 1.249 . S
C2210 O2225 1.202 . S
C2211 C2209 1.363 . S
C2211 C2213 1.408 . S
C2211 C2216 1.342 . S
C2212 C2213 1.310 . S
C2212 C2215 1.461 . S
C2212 H2232 0.932 . S
C2213 C2211 1.408 . S
C2213 C2212 1.310 . S
C2213 H2233 0.930 . S
C2214 C2215 1.474 . S
C2214 C2216 1.285 . S
C2214 H2234 0.929 . S
C2215 C2212 1.461 . S
C2215 C2214 1.474 . S
C2216 C2211 1.342 . S
C2216 C2214 1.285 . S
C2216 H2235 0.930 . S
C2217 C2220 1.424 . S
C2217 C2222 1.245 . S
C2217 C2223 1.428 . S
C2218 C2221 1.260 . S
C2218 C2222 1.477 . S
C2218 H2236 0.932 . S
C2219 C2220 1.384 . S
C2219 C2221 1.479 . S
C2219 H2237 0.929 . S
C2220 C2217 1.424 . S
C2220 C2219 1.384 . S
C2220 H2238 0.928 . S
C2221 C2218 1.260 . S
C2221 C2219 1.479 . S
C2222 C2217 1.245 . S
C2222 C2218 1.477 . S
C2222 H2239 0.932 . S
C2223 U2206 2.882 . S
C2223 C2217 1.428 . S
C2223 O2226 1.301 . S
C2223 O2227 1.282 . S
O2224 U2206 2.441 . S
O2224 C2210 1.249 . S
O2225 U2206 2.420 . S
O2225 C2210 1.202 . S
O2226 U2206 2.455 . S
O2226 C2223 1.301 . S
O2227 U2206 2.449 . S
O2227 C2223 1.282 . S
H2228 C2201 0.931 . S
H2229 C2203 0.929 . S
H2230 C2204 0.930 . S
H2231 C2205 0.931 . S
H2232 C2212 0.932 . S
H2233 C2213 0.930 . S
H2234 C2214 0.929 . S
H2235 C2216 0.930 . S
H2236 C2218 0.932 . S
H2237 C2219 0.929 . S
H2238 C2220 0.928 . S
H2239 C2222 0.932 . S
C2240 C2241 1.264 . S
C2240 C2245 1.479 . S
C2240 C2250 1.465 . S
C2241 C2240 1.264 . S
C2241 C2243 1.339 . S
C2241 H2268 0.931 . S
C2242 C2243 1.395 . S
C2242 C2244 1.320 . S
C2243 C2241 1.339 . S
C2243 C2242 1.395 . S
C2243 H2269 0.929 . S
C2244 C2242 1.320 . S
C2244 C2245 1.405 . S
C2244 H2270 0.930 . S
C2245 C2240 1.479 . S
C2245 C2244 1.405 . S
C2245 H2271 0.931 . S
U2246 O2247 2.454 . S
U2246 O2248 2.458 . S
U2246 C2249 2.984 . S
U2246 C2250 2.847 . S
U2246 C2263 2.882 . S
U2246 O2264 2.441 . S
U2246 O2265 2.420 . S
U2246 O2266 2.455 . S
U2246 O2267 2.449 . S
O2247 U2246 2.454 . S
O2247 C2249 1.353 . S
O2248 U2246 2.458 . S
O2248 C2249 1.286 . S
C2249 U2246 2.984 . S
C2249 O2247 1.353 . S
C2249 O2248 1.286 . S
C2249 C2251 1.363 . S
C2250 C2240 1.465 . S
C2250 U2246 2.847 . S
C2250 O2264 1.249 . S
C2250 O2265 1.202 . S
C2251 C2249 1.363 . S
C2251 C2253 1.408 . S
C2251 C2256 1.342 . S
C2252 C2253 1.310 . S
C2252 C2255 1.461 . S
C2252 H2272 0.932 . S
C2253 C2251 1.408 . S
C2253 C2252 1.310 . S
C2253 H2273 0.930 . S
C2254 C2255 1.474 . S
C2254 C2256 1.285 . S
C2254 H2274 0.929 . S
C2255 C2252 1.461 . S
C2255 C2254 1.474 . S
C2256 C2251 1.342 . S
C2256 C2254 1.285 . S
C2256 H2275 0.930 . S
C2257 C2260 1.424 . S
C2257 C2262 1.245 . S
C2257 C2263 1.428 . S
C2258 C2261 1.260 . S
C2258 C2262 1.477 . S
C2258 H2276 0.932 . S
C2259 C2260 1.384 . S
C2259 C2261 1.479 . S
C2259 H2277 0.929 . S
C2260 C2257 1.424 . S
C2260 C2259 1.384 . S
C2260 H2278 0.928 . S
C2261 C2258 1.260 . S
C2261 C2259 1.479 . S
C2262 C2257 1.245 . S
C2262 C2258 1.477 . S
C2262 H2279 0.932 . S
C2263 U2246 2.882 . S
C2263 C2257 1.428 . S
C2263 O2266 1.301 . S
C2263 O2267 1.282 . S
O2264 U2246 2.441 . S
O2264 C2250 1.249 . S
O2265 U2246 2.420 . S
O2265 C2250 1.202 . S
O2266 U2246 2.455 . S
O2266 C2263 1.301 . S
O2267 U2246 2.449 . S
O2267 C2263 1.282 . S
H2268 C2241 0.931 . S
H2269 C2243 0.929 . S
H2270 C2244 0.930 . S
H2271 C2245 0.931 . S
H2272 C2252 0.932 . S
H2273 C2253 0.930 . S
H2274 C2254 0.929 . S
H2275 C2256 0.930 . S
H2276 C2258 0.932 . S
H2277 C2259 0.929 . S
H2278 C2260 0.928 . S
H2279 C2262 0.932 . S
C2280 C2281 1.264 . S
C2280 C2285 1.479 . S
C2280 C2290 1.465 . S
C2281 C2280 1.264 . S
C2281 C2283 1.339 . S
C2281 H2308 0.931 . S
C2282 C2283 1.395 . S
C2282 C2284 1.320 . S
C2283 C2281 1.339 . S
C2283 C2282 1.395 . S
C2283 H2309 0.929 . S
C2284 C2282 1.320 . S
C2284 C2285 1.405 . S
C2284 H2310 0.930 . S
C2285 C2280 1.479 . S
C2285 C2284 1.405 . S
C2285 H2311 0.931 . S
U2286 O2287 2.454 . S
U2286 O2288 2.458 . S
U2286 C2289 2.984 . S
U2286 C2290 2.847 . S
U2286 C2303 2.882 . S
U2286 O2304 2.441 . S
U2286 O2305 2.420 . S
U2286 O2306 2.455 . S
U2286 O2307 2.449 . S
O2287 U2286 2.454 . S
O2287 C2289 1.353 . S
O2288 U2286 2.458 . S
O2288 C2289 1.286 . S
C2289 U2286 2.984 . S
C2289 O2287 1.353 . S
C2289 O2288 1.286 . S
C2289 C2291 1.363 . S
C2290 C2280 1.465 . S
C2290 U2286 2.847 . S
C2290 O2304 1.249 . S
C2290 O2305 1.202 . S
C2291 C2289 1.363 . S
C2291 C2293 1.408 . S
C2291 C2296 1.342 . S
C2292 C2293 1.310 . S
C2292 C2295 1.461 . S
C2292 H2312 0.932 . S
C2293 C2291 1.408 . S
C2293 C2292 1.310 . S
C2293 H2313 0.930 . S
C2294 C2295 1.474 . S
C2294 C2296 1.285 . S
C2294 H2314 0.929 . S
C2295 C2292 1.461 . S
C2295 C2294 1.474 . S
C2296 C2291 1.342 . S
C2296 C2294 1.285 . S
C2296 H2315 0.930 . S
C2297 C2300 1.424 . S
C2297 C2302 1.245 . S
C2297 C2303 1.428 . S
C2298 C2301 1.260 . S
C2298 C2302 1.477 . S
C2298 H2316 0.932 . S
C2299 C2300 1.384 . S
C2299 C2301 1.479 . S
C2299 H2317 0.929 . S
C2300 C2297 1.424 . S
C2300 C2299 1.384 . S
C2300 H2318 0.928 . S
C2301 C2298 1.260 . S
C2301 C2299 1.479 . S
C2302 C2297 1.245 . S
C2302 C2298 1.477 . S
C2302 H2319 0.932 . S
C2303 U2286 2.882 . S
C2303 C2297 1.428 . S
C2303 O2306 1.301 . S
C2303 O2307 1.282 . S
O2304 U2286 2.441 . S
O2304 C2290 1.249 . S
O2305 U2286 2.420 . S
O2305 C2290 1.202 . S
O2306 U2286 2.455 . S
O2306 C2303 1.301 . S
O2307 U2286 2.449 . S
O2307 C2303 1.282 . S
H2308 C2281 0.931 . S
H2309 C2283 0.929 . S
H2310 C2284 0.930 . S
H2311 C2285 0.931 . S
H2312 C2292 0.932 . S
H2313 C2293 0.930 . S
H2314 C2294 0.929 . S
H2315 C2296 0.930 . S
H2316 C2298 0.932 . S
H2317 C2299 0.929 . S
H2318 C2300 0.928 . S
H2319 C2302 0.932 . S
C2320 C2321 1.264 . S
C2320 C2325 1.479 . S
C2320 C2330 1.465 . S
C2321 C2320 1.264 . S
C2321 C2323 1.339 . S
C2321 H2348 0.931 . S
C2322 C2323 1.395 . S
C2322 C2324 1.320 . S
C2323 C2321 1.339 . S
C2323 C2322 1.395 . S
C2323 H2349 0.929 . S
C2324 C2322 1.320 . S
C2324 C2325 1.405 . S
C2324 H2350 0.930 . S
C2325 C2320 1.479 . S
C2325 C2324 1.405 . S
C2325 H2351 0.931 . S
U2326 O2327 2.454 . S
U2326 O2328 2.458 . S
U2326 C2329 2.984 . S
U2326 C2330 2.847 . S
U2326 C2343 2.882 . S
U2326 O2344 2.441 . S
U2326 O2345 2.420 . S
U2326 O2346 2.455 . S
U2326 O2347 2.449 . S
O2327 U2326 2.454 . S
O2327 C2329 1.353 . S
O2328 U2326 2.458 . S
O2328 C2329 1.286 . S
C2329 U2326 2.984 . S
C2329 O2327 1.353 . S
C2329 O2328 1.286 . S
C2329 C2331 1.363 . S
C2330 C2320 1.465 . S
C2330 U2326 2.847 . S
C2330 O2344 1.249 . S
C2330 O2345 1.202 . S
C2331 C2329 1.363 . S
C2331 C2333 1.408 . S
C2331 C2336 1.342 . S
C2332 C2333 1.310 . S
C2332 C2335 1.461 . S
C2332 H2352 0.932 . S
C2333 C2331 1.408 . S
C2333 C2332 1.310 . S
C2333 H2353 0.930 . S
C2334 C2335 1.474 . S
C2334 C2336 1.285 . S
C2334 H2354 0.929 . S
C2335 C2332 1.461 . S
C2335 C2334 1.474 . S
C2336 C2331 1.342 . S
C2336 C2334 1.285 . S
C2336 H2355 0.930 . S
C2337 C2340 1.424 . S
C2337 C2342 1.245 . S
C2337 C2343 1.428 . S
C2338 C2341 1.260 . S
C2338 C2342 1.477 . S
C2338 H2356 0.932 . S
C2339 C2340 1.384 . S
C2339 C2341 1.479 . S
C2339 H2357 0.929 . S
C2340 C2337 1.424 . S
C2340 C2339 1.384 . S
C2340 H2358 0.928 . S
C2341 C2338 1.260 . S
C2341 C2339 1.479 . S
C2342 C2337 1.245 . S
C2342 C2338 1.477 . S
C2342 H2359 0.932 . S
C2343 U2326 2.882 . S
C2343 C2337 1.428 . S
C2343 O2346 1.301 . S
C2343 O2347 1.282 . S
O2344 U2326 2.441 . S
O2344 C2330 1.249 . S
O2345 U2326 2.420 . S
O2345 C2330 1.202 . S
O2346 U2326 2.455 . S
O2346 C2343 1.301 . S
O2347 U2326 2.449 . S
O2347 C2343 1.282 . S
H2348 C2321 0.931 . S
H2349 C2323 0.929 . S
H2350 C2324 0.930 . S
H2351 C2325 0.931 . S
H2352 C2332 0.932 . S
H2353 C2333 0.930 . S
H2354 C2334 0.929 . S
H2355 C2336 0.930 . S
H2356 C2338 0.932 . S
H2357 C2339 0.929 . S
H2358 C2340 0.928 . S
H2359 C2342 0.932 . S
C2360 C2361 1.264 . S
C2360 C2365 1.479 . S
C2360 C2370 1.465 . S
C2361 C2360 1.264 . S
C2361 C2363 1.339 . S
C2361 H2388 0.931 . S
C2362 C2363 1.395 . S
C2362 C2364 1.320 . S
C2363 C2361 1.339 . S
C2363 C2362 1.395 . S
C2363 H2389 0.929 . S
C2364 C2362 1.320 . S
C2364 C2365 1.405 . S
C2364 H2390 0.930 . S
C2365 C2360 1.479 . S
C2365 C2364 1.405 . S
C2365 H2391 0.931 . S
U2366 O2367 2.454 . S
U2366 O2368 2.458 . S
U2366 C2369 2.984 . S
U2366 C2370 2.847 . S
U2366 C2383 2.882 . S
U2366 O2384 2.441 . S
U2366 O2385 2.420 . S
U2366 O2386 2.455 . S
U2366 O2387 2.449 . S
O2367 U2366 2.454 . S
O2367 C2369 1.353 . S
O2368 U2366 2.458 . S
O2368 C2369 1.286 . S
C2369 U2366 2.984 . S
C2369 O2367 1.353 . S
C2369 O2368 1.286 . S
C2369 C2371 1.363 . S
C2370 C2360 1.465 . S
C2370 U2366 2.847 . S
C2370 O2384 1.249 . S
C2370 O2385 1.202 . S
C2371 C2369 1.363 . S
C2371 C2373 1.408 . S
C2371 C2376 1.342 . S
C2372 C2373 1.310 . S
C2372 C2375 1.461 . S
C2372 H2392 0.932 . S
C2373 C2371 1.408 . S
C2373 C2372 1.310 . S
C2373 H2393 0.930 . S
C2374 C2375 1.474 . S
C2374 C2376 1.285 . S
C2374 H2394 0.929 . S
C2375 C2372 1.461 . S
C2375 C2374 1.474 . S
C2376 C2371 1.342 . S
C2376 C2374 1.285 . S
C2376 H2395 0.930 . S
C2377 C2380 1.424 . S
C2377 C2382 1.245 . S
C2377 C2383 1.428 . S
C2378 C2381 1.260 . S
C2378 C2382 1.477 . S
C2378 H2396 0.932 . S
C2379 C2380 1.384 . S
C2379 C2381 1.479 . S
C2379 H2397 0.929 . S
C2380 C2377 1.424 . S
C2380 C2379 1.384 . S
C2380 H2398 0.928 . S
C2381 C2378 1.260 . S
C2381 C2379 1.479 . S
C2382 C2377 1.245 . S
C2382 C2378 1.477 . S
C2382 H2399 0.932 . S
C2383 U2366 2.882 . S
C2383 C2377 1.428 . S
C2383 O2386 1.301 . S
C2383 O2387 1.282 . S
O2384 U2366 2.441 . S
O2384 C2370 1.249 . S
O2385 U2366 2.420 . S
O2385 C2370 1.202 . S
O2386 U2366 2.455 . S
O2386 C2383 1.301 . S
O2387 U2366 2.449 . S
O2387 C2383 1.282 . S
H2388 C2361 0.931 . S
H2389 C2363 0.929 . S
H2390 C2364 0.930 . S
H2391 C2365 0.931 . S
H2392 C2372 0.932 . S
H2393 C2373 0.930 . S
H2394 C2374 0.929 . S
H2395 C2376 0.930 . S
H2396 C2378 0.932 . S
H2397 C2379 0.929 . S
H2398 C2380 0.928 . S
H2399 C2382 0.932 . S
C2400 C2401 1.264 . S
C2400 C2405 1.479 . S
C2400 C2410 1.465 . S
C2401 C2400 1.264 . S
C2401 C2403 1.339 . S
C2401 H2428 0.931 . S
C2402 C2403 1.395 . S
C2402 C2404 1.320 . S
C2403 C2401 1.339 . S
C2403 C2402 1.395 . S
C2403 H2429 0.929 . S
C2404 C2402 1.320 . S
C2404 C2405 1.405 . S
C2404 H2430 0.930 . S
C2405 C2400 1.479 . S
C2405 C2404 1.405 . S
C2405 H2431 0.931 . S
U2406 O2407 2.454 . S
U2406 O2408 2.458 . S
U2406 C2409 2.984 . S
U2406 C2410 2.847 . S
U2406 C2423 2.882 . S
U2406 O2424 2.441 . S
U2406 O2425 2.420 . S
U2406 O2426 2.455 . S
U2406 O2427 2.449 . S
O2407 U2406 2.454 . S
O2407 C2409 1.353 . S
O2408 U2406 2.458 . S
O2408 C2409 1.286 . S
C2409 U2406 2.984 . S
C2409 O2407 1.353 . S
C2409 O2408 1.286 . S
C2409 C2411 1.363 . S
C2410 C2400 1.465 . S
C2410 U2406 2.847 . S
C2410 O2424 1.249 . S
C2410 O2425 1.202 . S
C2411 C2409 1.363 . S
C2411 C2413 1.408 . S
C2411 C2416 1.342 . S
C2412 C2413 1.310 . S
C2412 C2415 1.461 . S
C2412 H2432 0.932 . S
C2413 C2411 1.408 . S
C2413 C2412 1.310 . S
C2413 H2433 0.930 . S
C2414 C2415 1.474 . S
C2414 C2416 1.285 . S
C2414 H2434 0.929 . S
C2415 C2412 1.461 . S
C2415 C2414 1.474 . S
C2416 C2411 1.342 . S
C2416 C2414 1.285 . S
C2416 H2435 0.930 . S
C2417 C2420 1.424 . S
C2417 C2422 1.245 . S
C2417 C2423 1.428 . S
C2418 C2421 1.260 . S
C2418 C2422 1.477 . S
C2418 H2436 0.932 . S
C2419 C2420 1.384 . S
C2419 C2421 1.479 . S
C2419 H2437 0.929 . S
C2420 C2417 1.424 . S
C2420 C2419 1.384 . S
C2420 H2438 0.928 . S
C2421 C2418 1.260 . S
C2421 C2419 1.479 . S
C2422 C2417 1.245 . S
C2422 C2418 1.477 . S
C2422 H2439 0.932 . S
C2423 U2406 2.882 . S
C2423 C2417 1.428 . S
C2423 O2426 1.301 . S
C2423 O2427 1.282 . S
O2424 U2406 2.441 . S
O2424 C2410 1.249 . S
O2425 U2406 2.420 . S
O2425 C2410 1.202 . S
O2426 U2406 2.455 . S
O2426 C2423 1.301 . S
O2427 U2406 2.449 . S
O2427 C2423 1.282 . S
H2428 C2401 0.931 . S
H2429 C2403 0.929 . S
H2430 C2404 0.930 . S
H2431 C2405 0.931 . S
H2432 C2412 0.932 . S
H2433 C2413 0.930 . S
H2434 C2414 0.929 . S
H2435 C2416 0.930 . S
H2436 C2418 0.932 . S
H2437 C2419 0.929 . S
H2438 C2420 0.928 . S
H2439 C2422 0.932 . S
C2440 C2441 1.264 . S
C2440 C2445 1.479 . S
C2440 C2450 1.465 . S
C2441 C2440 1.264 . S
C2441 C2443 1.339 . S
C2441 H2468 0.931 . S
C2442 C2443 1.395 . S
C2442 C2444 1.320 . S
C2443 C2441 1.339 . S
C2443 C2442 1.395 . S
C2443 H2469 0.929 . S
C2444 C2442 1.320 . S
C2444 C2445 1.405 . S
C2444 H2470 0.930 . S
C2445 C2440 1.479 . S
C2445 C2444 1.405 . S
C2445 H2471 0.931 . S
U2446 O2447 2.454 . S
U2446 O2448 2.458 . S
U2446 C2449 2.984 . S
U2446 C2450 2.847 . S
U2446 C2463 2.882 . S
U2446 O2464 2.441 . S
U2446 O2465 2.420 . S
U2446 O2466 2.455 . S
U2446 O2467 2.449 . S
O2447 U2446 2.454 . S
O2447 C2449 1.353 . S
O2448 U2446 2.458 . S
O2448 C2449 1.286 . S
C2449 U2446 2.984 . S
C2449 O2447 1.353 . S
C2449 O2448 1.286 . S
C2449 C2451 1.363 . S
C2450 C2440 1.465 . S
C2450 U2446 2.847 . S
C2450 O2464 1.249 . S
C2450 O2465 1.202 . S
C2451 C2449 1.363 . S
C2451 C2453 1.408 . S
C2451 C2456 1.342 . S
C2452 C2453 1.310 . S
C2452 C2455 1.461 . S
C2452 H2472 0.932 . S
C2453 C2451 1.408 . S
C2453 C2452 1.310 . S
C2453 H2473 0.930 . S
C2454 C2455 1.474 . S
C2454 C2456 1.285 . S
C2454 H2474 0.929 . S
C2455 C2452 1.461 . S
C2455 C2454 1.474 . S
C2456 C2451 1.342 . S
C2456 C2454 1.285 . S
C2456 H2475 0.930 . S
C2457 C2460 1.424 . S
C2457 C2462 1.245 . S
C2457 C2463 1.428 . S
C2458 C2461 1.260 . S
C2458 C2462 1.477 . S
C2458 H2476 0.932 . S
C2459 C2460 1.384 . S
C2459 C2461 1.479 . S
C2459 H2477 0.929 . S
C2460 C2457 1.424 . S
C2460 C2459 1.384 . S
C2460 H2478 0.928 . S
C2461 C2458 1.260 . S
C2461 C2459 1.479 . S
C2462 C2457 1.245 . S
C2462 C2458 1.477 . S
C2462 H2479 0.932 . S
C2463 U2446 2.882 . S
C2463 C2457 1.428 . S
C2463 O2466 1.301 . S
C2463 O2467 1.282 . S
O2464 U2446 2.441 . S
O2464 C2450 1.249 . S
O2465 U2446 2.420 . S
O2465 C2450 1.202 . S
O2466 U2446 2.455 . S
O2466 C2463 1.301 . S
O2467 U2446 2.449 . S
O2467 C2463 1.282 . S
H2468 C2441 0.931 . S
H2469 C2443 0.929 . S
H2470 C2444 0.930 . S
H2471 C2445 0.931 . S
H2472 C2452 0.932 . S
H2473 C2453 0.930 . S
H2474 C2454 0.929 . S
H2475 C2456 0.930 . S
H2476 C2458 0.932 . S
H2477 C2459 0.929 . S
H2478 C2460 0.928 . S
H2479 C2462 0.932 . S
C2480 C2481 1.264 . S
C2480 C2485 1.479 . S
C2480 C2490 1.465 . S
C2481 C2480 1.264 . S
C2481 C2483 1.339 . S
C2481 H2508 0.931 . S
C2482 C2483 1.395 . S
C2482 C2484 1.320 . S
C2483 C2481 1.339 . S
C2483 C2482 1.395 . S
C2483 H2509 0.929 . S
C2484 C2482 1.320 . S
C2484 C2485 1.405 . S
C2484 H2510 0.930 . S
C2485 C2480 1.479 . S
C2485 C2484 1.405 . S
C2485 H2511 0.931 . S
U2486 O2487 2.454 . S
U2486 O2488 2.458 . S
U2486 C2489 2.984 . S
U2486 C2490 2.847 . S
U2486 C2503 2.882 . S
U2486 O2504 2.441 . S
U2486 O2505 2.420 . S
U2486 O2506 2.455 . S
U2486 O2507 2.449 . S
O2487 U2486 2.454 . S
O2487 C2489 1.353 . S
O2488 U2486 2.458 . S
O2488 C2489 1.286 . S
C2489 U2486 2.984 . S
C2489 O2487 1.353 . S
C2489 O2488 1.286 . S
C2489 C2491 1.363 . S
C2490 C2480 1.465 . S
C2490 U2486 2.847 . S
C2490 O2504 1.249 . S
C2490 O2505 1.202 . S
C2491 C2489 1.363 . S
C2491 C2493 1.408 . S
C2491 C2496 1.342 . S
C2492 C2493 1.310 . S
C2492 C2495 1.461 . S
C2492 H2512 0.932 . S
C2493 C2491 1.408 . S
C2493 C2492 1.310 . S
C2493 H2513 0.930 . S
C2494 C2495 1.474 . S
C2494 C2496 1.285 . S
C2494 H2514 0.929 . S
C2495 C2492 1.461 . S
C2495 C2494 1.474 . S
C2496 C2491 1.342 . S
C2496 C2494 1.285 . S
C2496 H2515 0.930 . S
C2497 C2500 1.424 . S
C2497 C2502 1.245 . S
C2497 C2503 1.428 . S
C2498 C2501 1.260 . S
C2498 C2502 1.477 . S
C2498 H2516 0.932 . S
C2499 C2500 1.384 . S
C2499 C2501 1.479 . S
C2499 H2517 0.929 . S
C2500 C2497 1.424 . S
C2500 C2499 1.384 . S
C2500 H2518 0.928 . S
C2501 C2498 1.260 . S
C2501 C2499 1.479 . S
C2502 C2497 1.245 . S
C2502 C2498 1.477 . S
C2502 H2519 0.932 . S
C2503 U2486 2.882 . S
C2503 C2497 1.428 . S
C2503 O2506 1.301 . S
C2503 O2507 1.282 . S
O2504 U2486 2.441 . S
O2504 C2490 1.249 . S
O2505 U2486 2.420 . S
O2505 C2490 1.202 . S
O2506 U2486 2.455 . S
O2506 C2503 1.301 . S
O2507 U2486 2.449 . S
O2507 C2503 1.282 . S
H2508 C2481 0.931 . S
H2509 C2483 0.929 . S
H2510 C2484 0.930 . S
H2511 C2485 0.931 . S
H2512 C2492 0.932 . S
H2513 C2493 0.930 . S
H2514 C2494 0.929 . S
H2515 C2496 0.930 . S
H2516 C2498 0.932 . S
H2517 C2499 0.929 . S
H2518 C2500 0.928 . S
H2519 C2502 0.932 . S
C2520 C2521 1.264 . S
C2520 C2525 1.479 . S
C2520 C2530 1.465 . S
C2521 C2520 1.264 . S
C2521 C2523 1.339 . S
C2521 H2548 0.931 . S
C2522 C2523 1.395 . S
C2522 C2524 1.320 . S
C2523 C2521 1.339 . S
C2523 C2522 1.395 . S
C2523 H2549 0.929 . S
C2524 C2522 1.320 . S
C2524 C2525 1.405 . S
C2524 H2550 0.930 . S
C2525 C2520 1.479 . S
C2525 C2524 1.405 . S
C2525 H2551 0.931 . S
U2526 O2527 2.454 . S
U2526 O2528 2.458 . S
U2526 C2529 2.984 . S
U2526 C2530 2.847 . S
U2526 C2543 2.882 . S
U2526 O2544 2.441 . S
U2526 O2545 2.420 . S
U2526 O2546 2.455 . S
U2526 O2547 2.449 . S
O2527 U2526 2.454 . S
O2527 C2529 1.353 . S
O2528 U2526 2.458 . S
O2528 C2529 1.286 . S
C2529 U2526 2.984 . S
C2529 O2527 1.353 . S
C2529 O2528 1.286 . S
C2529 C2531 1.363 . S
C2530 C2520 1.465 . S
C2530 U2526 2.847 . S
C2530 O2544 1.249 . S
C2530 O2545 1.202 . S
C2531 C2529 1.363 . S
C2531 C2533 1.408 . S
C2531 C2536 1.342 . S
C2532 C2533 1.310 . S
C2532 C2535 1.461 . S
C2532 H2552 0.932 . S
C2533 C2531 1.408 . S
C2533 C2532 1.310 . S
C2533 H2553 0.930 . S
C2534 C2535 1.474 . S
C2534 C2536 1.285 . S
C2534 H2554 0.929 . S
C2535 C2532 1.461 . S
C2535 C2534 1.474 . S
C2536 C2531 1.342 . S
C2536 C2534 1.285 . S
C2536 H2555 0.930 . S
C2537 C2540 1.424 . S
C2537 C2542 1.245 . S
C2537 C2543 1.428 . S
C2538 C2541 1.260 . S
C2538 C2542 1.477 . S
C2538 H2556 0.932 . S
C2539 C2540 1.384 . S
C2539 C2541 1.479 . S
C2539 H2557 0.929 . S
C2540 C2537 1.424 . S
C2540 C2539 1.384 . S
C2540 H2558 0.928 . S
C2541 C2538 1.260 . S
C2541 C2539 1.479 . S
C2542 C2537 1.245 . S
C2542 C2538 1.477 . S
C2542 H2559 0.932 . S
C2543 U2526 2.882 . S
C2543 C2537 1.428 . S
C2543 O2546 1.301 . S
C2543 O2547 1.282 . S
O2544 U2526 2.441 . S
O2544 C2530 1.249 . S
O2545 U2526 2.420 . S
O2545 C2530 1.202 . S
O2546 U2526 2.455 . S
O2546 C2543 1.301 . S
O2547 U2526 2.449 . S
O2547 C2543 1.282 . S
H2548 C2521 0.931 . S
H2549 C2523 0.929 . S
H2550 C2524 0.930 . S
H2551 C2525 0.931 . S
H2552 C2532 0.932 . S
H2553 C2533 0.930 . S
H2554 C2534 0.929 . S
H2555 C2536 0.930 . S
H2556 C2538 0.932 . S
H2557 C2539 0.929 . S
H2558 C2540 0.928 . S
H2559 C2542 0.932 . S
C2560 C2561 1.264 . S
C2560 C2565 1.479 . S
C2560 C2570 1.465 . S
C2561 C2560 1.264 . S
C2561 C2563 1.339 . S
C2561 H2588 0.931 . S
C2562 C2563 1.395 . S
C2562 C2564 1.320 . S
C2563 C2561 1.339 . S
C2563 C2562 1.395 . S
C2563 H2589 0.929 . S
C2564 C2562 1.320 . S
C2564 C2565 1.405 . S
C2564 H2590 0.930 . S
C2565 C2560 1.479 . S
C2565 C2564 1.405 . S
C2565 H2591 0.931 . S
U2566 O2567 2.454 . S
U2566 O2568 2.458 . S
U2566 C2569 2.984 . S
U2566 C2570 2.847 . S
U2566 C2583 2.882 . S
U2566 O2584 2.441 . S
U2566 O2585 2.420 . S
U2566 O2586 2.455 . S
U2566 O2587 2.449 . S
O2567 U2566 2.454 . S
O2567 C2569 1.353 . S
O2568 U2566 2.458 . S
O2568 C2569 1.286 . S
C2569 U2566 2.984 . S
C2569 O2567 1.353 . S
C2569 O2568 1.286 . S
C2569 C2571 1.363 . S
C2570 C2560 1.465 . S
C2570 U2566 2.847 . S
C2570 O2584 1.249 . S
C2570 O2585 1.202 . S
C2571 C2569 1.363 . S
C2571 C2573 1.408 . S
C2571 C2576 1.342 . S
C2572 C2573 1.310 . S
C2572 C2575 1.461 . S
C2572 H2592 0.932 . S
C2573 C2571 1.408 . S
C2573 C2572 1.310 . S
C2573 H2593 0.930 . S
C2574 C2575 1.474 . S
C2574 C2576 1.285 . S
C2574 H2594 0.929 . S
C2575 C2572 1.461 . S
C2575 C2574 1.474 . S
C2576 C2571 1.342 . S
C2576 C2574 1.285 . S
C2576 H2595 0.930 . S
C2577 C2580 1.424 . S
C2577 C2582 1.245 . S
C2577 C2583 1.428 . S
C2578 C2581 1.260 . S
C2578 C2582 1.477 . S
C2578 H2596 0.932 . S
C2579 C2580 1.384 . S
C2579 C2581 1.479 . S
C2579 H2597 0.929 . S
C2580 C2577 1.424 . S
C2580 C2579 1.384 . S
C2580 H2598 0.928 . S
C2581 C2578 1.260 . S
C2581 C2579 1.479 . S
C2582 C2577 1.245 . S
C2582 C2578 1.477 . S
C2582 H2599 0.932 . S
C2583 U2566 2.882 . S
C2583 C2577 1.428 . S
C2583 O2586 1.301 . S
C2583 O2587 1.282 . S
O2584 U2566 2.441 . S
O2584 C2570 1.249 . S
O2585 U2566 2.420 . S
O2585 C2570 1.202 . S
O2586 U2566 2.455 . S
O2586 C2583 1.301 . S
O2587 U2566 2.449 . S
O2587 C2583 1.282 . S
H2588 C2561 0.931 . S
H2589 C2563 0.929 . S
H2590 C2564 0.930 . S
H2591 C2565 0.931 . S
H2592 C2572 0.932 . S
H2593 C2573 0.930 . S
H2594 C2574 0.929 . S
H2595 C2576 0.930 . S
H2596 C2578 0.932 . S
H2597 C2579 0.929 . S
H2598 C2580 0.928 . S
H2599 C2582 0.932 . S
C2600 C2601 1.264 . S
C2600 C2605 1.479 . S
C2600 C2610 1.465 . S
C2601 C2600 1.264 . S
C2601 C2603 1.339 . S
C2601 H2628 0.931 . S
C2602 C2603 1.395 . S
C2602 C2604 1.320 . S
C2603 C2601 1.339 . S
C2603 C2602 1.395 . S
C2603 H2629 0.929 . S
C2604 C2602 1.320 . S
C2604 C2605 1.405 . S
C2604 H2630 0.930 . S
C2605 C2600 1.479 . S
C2605 C2604 1.405 . S
C2605 H2631 0.931 . S
U2606 O2607 2.454 . S
U2606 O2608 2.458 . S
U2606 C2609 2.984 . S
U2606 C2610 2.847 . S
U2606 C2623 2.882 . S
U2606 O2624 2.441 . S
U2606 O2625 2.420 . S
U2606 O2626 2.455 . S
U2606 O2627 2.449 . S
O2607 U2606 2.454 . S
O2607 C2609 1.353 . S
O2608 U2606 2.458 . S
O2608 C2609 1.286 . S
C2609 U2606 2.984 . S
C2609 O2607 1.353 . S
C2609 O2608 1.286 . S
C2609 C2611 1.363 . S
C2610 C2600 1.465 . S
C2610 U2606 2.847 . S
C2610 O2624 1.249 . S
C2610 O2625 1.202 . S
C2611 C2609 1.363 . S
C2611 C2613 1.408 . S
C2611 C2616 1.342 . S
C2612 C2613 1.310 . S
C2612 C2615 1.461 . S
C2612 H2632 0.932 . S
C2613 C2611 1.408 . S
C2613 C2612 1.310 . S
C2613 H2633 0.930 . S
C2614 C2615 1.474 . S
C2614 C2616 1.285 . S
C2614 H2634 0.929 . S
C2615 C2612 1.461 . S
C2615 C2614 1.474 . S
C2616 C2611 1.342 . S
C2616 C2614 1.285 . S
C2616 H2635 0.930 . S
C2617 C2620 1.424 . S
C2617 C2622 1.245 . S
C2617 C2623 1.428 . S
C2618 C2621 1.260 . S
C2618 C2622 1.477 . S
C2618 H2636 0.932 . S
C2619 C2620 1.384 . S
C2619 C2621 1.479 . S
C2619 H2637 0.929 . S
C2620 C2617 1.424 . S
C2620 C2619 1.384 . S
C2620 H2638 0.928 . S
C2621 C2618 1.260 . S
C2621 C2619 1.479 . S
C2622 C2617 1.245 . S
C2622 C2618 1.477 . S
C2622 H2639 0.932 . S
C2623 U2606 2.882 . S
C2623 C2617 1.428 . S
C2623 O2626 1.301 . S
C2623 O2627 1.282 . S
O2624 U2606 2.441 . S
O2624 C2610 1.249 . S
O2625 U2606 2.420 . S
O2625 C2610 1.202 . S
O2626 U2606 2.455 . S
O2626 C2623 1.301 . S
O2627 U2606 2.449 . S
O2627 C2623 1.282 . S
H2628 C2601 0.931 . S
H2629 C2603 0.929 . S
H2630 C2604 0.930 . S
H2631 C2605 0.931 . S
H2632 C2612 0.932 . S
H2633 C2613 0.930 . S
H2634 C2614 0.929 . S
H2635 C2616 0.930 . S
H2636 C2618 0.932 . S
H2637 C2619 0.929 . S
H2638 C2620 0.928 . S
H2639 C2622 0.932 . S
C2640 C2641 1.264 . S
C2640 C2645 1.479 . S
C2640 C2650 1.465 . S
C2641 C2640 1.264 . S
C2641 C2643 1.339 . S
C2641 H2668 0.931 . S
C2642 C2643 1.395 . S
C2642 C2644 1.320 . S
C2643 C2641 1.339 . S
C2643 C2642 1.395 . S
C2643 H2669 0.929 . S
C2644 C2642 1.320 . S
C2644 C2645 1.405 . S
C2644 H2670 0.930 . S
C2645 C2640 1.479 . S
C2645 C2644 1.405 . S
C2645 H2671 0.931 . S
U2646 O2647 2.454 . S
U2646 O2648 2.458 . S
U2646 C2649 2.984 . S
U2646 C2650 2.847 . S
U2646 C2663 2.882 . S
U2646 O2664 2.441 . S
U2646 O2665 2.420 . S
U2646 O2666 2.455 . S
U2646 O2667 2.449 . S
O2647 U2646 2.454 . S
O2647 C2649 1.353 . S
O2648 U2646 2.458 . S
O2648 C2649 1.286 . S
C2649 U2646 2.984 . S
C2649 O2647 1.353 . S
C2649 O2648 1.286 . S
C2649 C2651 1.363 . S
C2650 C2640 1.465 . S
C2650 U2646 2.847 . S
C2650 O2664 1.249 . S
C2650 O2665 1.202 . S
C2651 C2649 1.363 . S
C2651 C2653 1.408 . S
C2651 C2656 1.342 . S
C2652 C2653 1.310 . S
C2652 C2655 1.461 . S
C2652 H2672 0.932 . S
C2653 C2651 1.408 . S
C2653 C2652 1.310 . S
C2653 H2673 0.930 . S
C2654 C2655 1.474 . S
C2654 C2656 1.285 . S
C2654 H2674 0.929 . S
C2655 C2652 1.461 . S
C2655 C2654 1.474 . S
C2656 C2651 1.342 . S
C2656 C2654 1.285 . S
C2656 H2675 0.930 . S
C2657 C2660 1.424 . S
C2657 C2662 1.245 . S
C2657 C2663 1.428 . S
C2658 C2661 1.260 . S
C2658 C2662 1.477 . S
C2658 H2676 0.932 . S
C2659 C2660 1.384 . S
C2659 C2661 1.479 . S
C2659 H2677 0.929 . S
C2660 C2657 1.424 . S
C2660 C2659 1.384 . S
C2660 H2678 0.928 . S
C2661 C2658 1.260 . S
C2661 C2659 1.479 . S
C2662 C2657 1.245 . S
C2662 C2658 1.477 . S
C2662 H2679 0.932 . S
C2663 U2646 2.882 . S
C2663 C2657 1.428 . S
C2663 O2666 1.301 . S
C2663 O2667 1.282 . S
O2664 U2646 2.441 . S
O2664 C2650 1.249 . S
O2665 U2646 2.420 . S
O2665 C2650 1.202 . S
O2666 U2646 2.455 . S
O2666 C2663 1.301 . S
O2667 U2646 2.449 . S
O2667 C2663 1.282 . S
H2668 C2641 0.931 . S
H2669 C2643 0.929 . S
H2670 C2644 0.930 . S
H2671 C2645 0.931 . S
H2672 C2652 0.932 . S
H2673 C2653 0.930 . S
H2674 C2654 0.929 . S
H2675 C2656 0.930 . S
H2676 C2658 0.932 . S
H2677 C2659 0.929 . S
H2678 C2660 0.928 . S
H2679 C2662 0.932 . S
C2680 C2681 1.264 . S
C2680 C2685 1.479 . S
C2680 C2690 1.465 . S
C2681 C2680 1.264 . S
C2681 C2683 1.339 . S
C2681 H2708 0.931 . S
C2682 C2683 1.395 . S
C2682 C2684 1.320 . S
C2683 C2681 1.339 . S
C2683 C2682 1.395 . S
C2683 H2709 0.929 . S
C2684 C2682 1.320 . S
C2684 C2685 1.405 . S
C2684 H2710 0.930 . S
C2685 C2680 1.479 . S
C2685 C2684 1.405 . S
C2685 H2711 0.931 . S
U2686 O2687 2.454 . S
U2686 O2688 2.458 . S
U2686 C2689 2.984 . S
U2686 C2690 2.847 . S
U2686 C2703 2.882 . S
U2686 O2704 2.441 . S
U2686 O2705 2.420 . S
U2686 O2706 2.455 . S
U2686 O2707 2.449 . S
O2687 U2686 2.454 . S
O2687 C2689 1.353 . S
O2688 U2686 2.458 . S
O2688 C2689 1.286 . S
C2689 U2686 2.984 . S
C2689 O2687 1.353 . S
C2689 O2688 1.286 . S
C2689 C2691 1.363 . S
C2690 C2680 1.465 . S
C2690 U2686 2.847 . S
C2690 O2704 1.249 . S
C2690 O2705 1.202 . S
C2691 C2689 1.363 . S
C2691 C2693 1.408 . S
C2691 C2696 1.342 . S
C2692 C2693 1.310 . S
C2692 C2695 1.461 . S
C2692 H2712 0.932 . S
C2693 C2691 1.408 . S
C2693 C2692 1.310 . S
C2693 H2713 0.930 . S
C2694 C2695 1.474 . S
C2694 C2696 1.285 . S
C2694 H2714 0.929 . S
C2695 C2692 1.461 . S
C2695 C2694 1.474 . S
C2696 C2691 1.342 . S
C2696 C2694 1.285 . S
C2696 H2715 0.930 . S
C2697 C2700 1.424 . S
C2697 C2702 1.245 . S
C2697 C2703 1.428 . S
C2698 C2701 1.260 . S
C2698 C2702 1.477 . S
C2698 H2716 0.932 . S
C2699 C2700 1.384 . S
C2699 C2701 1.479 . S
C2699 H2717 0.929 . S
C2700 C2697 1.424 . S
C2700 C2699 1.384 . S
C2700 H2718 0.928 . S
C2701 C2698 1.260 . S
C2701 C2699 1.479 . S
C2702 C2697 1.245 . S
C2702 C2698 1.477 . S
C2702 H2719 0.932 . S
C2703 U2686 2.882 . S
C2703 C2697 1.428 . S
C2703 O2706 1.301 . S
C2703 O2707 1.282 . S
O2704 U2686 2.441 . S
O2704 C2690 1.249 . S
O2705 U2686 2.420 . S
O2705 C2690 1.202 . S
O2706 U2686 2.455 . S
O2706 C2703 1.301 . S
O2707 U2686 2.449 . S
O2707 C2703 1.282 . S
H2708 C2681 0.931 . S
H2709 C2683 0.929 . S
H2710 C2684 0.930 . S
H2711 C2685 0.931 . S
H2712 C2692 0.932 . S
H2713 C2693 0.930 . S
H2714 C2694 0.929 . S
H2715 C2696 0.930 . S
H2716 C2698 0.932 . S
H2717 C2699 0.929 . S
H2718 C2700 0.928 . S
H2719 C2702 0.932 . S
C2720 C2721 1.264 . S
C2720 C2725 1.479 . S
C2720 C2730 1.465 . S
C2721 C2720 1.264 . S
C2721 C2723 1.339 . S
C2721 H2748 0.931 . S
C2722 C2723 1.395 . S
C2722 C2724 1.320 . S
C2723 C2721 1.339 . S
C2723 C2722 1.395 . S
C2723 H2749 0.929 . S
C2724 C2722 1.320 . S
C2724 C2725 1.405 . S
C2724 H2750 0.930 . S
C2725 C2720 1.479 . S
C2725 C2724 1.405 . S
C2725 H2751 0.931 . S
U2726 O2727 2.454 . S
U2726 O2728 2.458 . S
U2726 C2729 2.984 . S
U2726 C2730 2.847 . S
U2726 C2743 2.882 . S
U2726 O2744 2.441 . S
U2726 O2745 2.420 . S
U2726 O2746 2.455 . S
U2726 O2747 2.449 . S
O2727 U2726 2.454 . S
O2727 C2729 1.353 . S
O2728 U2726 2.458 . S
O2728 C2729 1.286 . S
C2729 U2726 2.984 . S
C2729 O2727 1.353 . S
C2729 O2728 1.286 . S
C2729 C2731 1.363 . S
C2730 C2720 1.465 . S
C2730 U2726 2.847 . S
C2730 O2744 1.249 . S
C2730 O2745 1.202 . S
C2731 C2729 1.363 . S
C2731 C2733 1.408 . S
C2731 C2736 1.342 . S
C2732 C2733 1.310 . S
C2732 C2735 1.461 . S
C2732 H2752 0.932 . S
C2733 C2731 1.408 . S
C2733 C2732 1.310 . S
C2733 H2753 0.930 . S
C2734 C2735 1.474 . S
C2734 C2736 1.285 . S
C2734 H2754 0.929 . S
C2735 C2732 1.461 . S
C2735 C2734 1.474 . S
C2736 C2731 1.342 . S
C2736 C2734 1.285 . S
C2736 H2755 0.930 . S
C2737 C2740 1.424 . S
C2737 C2742 1.245 . S
C2737 C2743 1.428 . S
C2738 C2741 1.260 . S
C2738 C2742 1.477 . S
C2738 H2756 0.932 . S
C2739 C2740 1.384 . S
C2739 C2741 1.479 . S
C2739 H2757 0.929 . S
C2740 C2737 1.424 . S
C2740 C2739 1.384 . S
C2740 H2758 0.928 . S
C2741 C2738 1.260 . S
C2741 C2739 1.479 . S
C2742 C2737 1.245 . S
C2742 C2738 1.477 . S
C2742 H2759 0.932 . S
C2743 U2726 2.882 . S
C2743 C2737 1.428 . S
C2743 O2746 1.301 . S
C2743 O2747 1.282 . S
O2744 U2726 2.441 . S
O2744 C2730 1.249 . S
O2745 U2726 2.420 . S
O2745 C2730 1.202 . S
O2746 U2726 2.455 . S
O2746 C2743 1.301 . S
O2747 U2726 2.449 . S
O2747 C2743 1.282 . S
H2748 C2721 0.931 . S
H2749 C2723 0.929 . S
H2750 C2724 0.930 . S
H2751 C2725 0.931 . S
H2752 C2732 0.932 . S
H2753 C2733 0.930 . S
H2754 C2734 0.929 . S
H2755 C2736 0.930 . S
H2756 C2738 0.932 . S
H2757 C2739 0.929 . S
H2758 C2740 0.928 . S
H2759 C2742 0.932 . S
C2760 C2761 1.264 . S
C2760 C2765 1.479 . S
C2760 C2770 1.465 . S
C2761 C2760 1.264 . S
C2761 C2763 1.339 . S
C2761 H2788 0.931 . S
C2762 C2763 1.395 . S
C2762 C2764 1.320 . S
C2763 C2761 1.339 . S
C2763 C2762 1.395 . S
C2763 H2789 0.929 . S
C2764 C2762 1.320 . S
C2764 C2765 1.405 . S
C2764 H2790 0.930 . S
C2765 C2760 1.479 . S
C2765 C2764 1.405 . S
C2765 H2791 0.931 . S
U2766 O2767 2.454 . S
U2766 O2768 2.458 . S
U2766 C2769 2.984 . S
U2766 C2770 2.847 . S
U2766 C2783 2.882 . S
U2766 O2784 2.441 . S
U2766 O2785 2.420 . S
U2766 O2786 2.455 . S
U2766 O2787 2.449 . S
O2767 U2766 2.454 . S
O2767 C2769 1.353 . S
O2768 U2766 2.458 . S
O2768 C2769 1.286 . S
C2769 U2766 2.984 . S
C2769 O2767 1.353 . S
C2769 O2768 1.286 . S
C2769 C2771 1.363 . S
C2770 C2760 1.465 . S
C2770 U2766 2.847 . S
C2770 O2784 1.249 . S
C2770 O2785 1.202 . S
C2771 C2769 1.363 . S
C2771 C2773 1.408 . S
C2771 C2776 1.342 . S
C2772 C2773 1.310 . S
C2772 C2775 1.461 . S
C2772 H2792 0.932 . S
C2773 C2771 1.408 . S
C2773 C2772 1.310 . S
C2773 H2793 0.930 . S
C2774 C2775 1.474 . S
C2774 C2776 1.285 . S
C2774 H2794 0.929 . S
C2775 C2772 1.461 . S
C2775 C2774 1.474 . S
C2776 C2771 1.342 . S
C2776 C2774 1.285 . S
C2776 H2795 0.930 . S
C2777 C2780 1.424 . S
C2777 C2782 1.245 . S
C2777 C2783 1.428 . S
C2778 C2781 1.260 . S
C2778 C2782 1.477 . S
C2778 H2796 0.932 . S
C2779 C2780 1.384 . S
C2779 C2781 1.479 . S
C2779 H2797 0.929 . S
C2780 C2777 1.424 . S
C2780 C2779 1.384 . S
C2780 H2798 0.928 . S
C2781 C2778 1.260 . S
C2781 C2779 1.479 . S
C2782 C2777 1.245 . S
C2782 C2778 1.477 . S
C2782 H2799 0.932 . S
C2783 U2766 2.882 . S
C2783 C2777 1.428 . S
C2783 O2786 1.301 . S
C2783 O2787 1.282 . S
O2784 U2766 2.441 . S
O2784 C2770 1.249 . S
O2785 U2766 2.420 . S
O2785 C2770 1.202 . S
O2786 U2766 2.455 . S
O2786 C2783 1.301 . S
O2787 U2766 2.449 . S
O2787 C2783 1.282 . S
H2788 C2761 0.931 . S
H2789 C2763 0.929 . S
H2790 C2764 0.930 . S
H2791 C2765 0.931 . S
H2792 C2772 0.932 . S
H2793 C2773 0.930 . S
H2794 C2774 0.929 . S
H2795 C2776 0.930 . S
H2796 C2778 0.932 . S
H2797 C2779 0.929 . S
H2798 C2780 0.928 . S
H2799 C2782 0.932 . S
C2800 C2801 1.264 . S
C2800 C2805 1.479 . S
C2800 C2810 1.465 . S
C2801 C2800 1.264 . S
C2801 C2803 1.339 . S
C2801 H2828 0.931 . S
C2802 C2803 1.395 . S
C2802 C2804 1.320 . S
C2803 C2801 1.339 . S
C2803 C2802 1.395 . S
C2803 H2829 0.929 . S
C2804 C2802 1.320 . S
C2804 C2805 1.405 . S
C2804 H2830 0.930 . S
C2805 C2800 1.479 . S
C2805 C2804 1.405 . S
C2805 H2831 0.931 . S
U2806 O2807 2.454 . S
U2806 O2808 2.458 . S
U2806 C2809 2.984 . S
U2806 C2810 2.847 . S
U2806 C2823 2.882 . S
U2806 O2824 2.441 . S
U2806 O2825 2.420 . S
U2806 O2826 2.455 . S
U2806 O2827 2.449 . S
O2807 U2806 2.454 . S
O2807 C2809 1.353 . S
O2808 U2806 2.458 . S
O2808 C2809 1.286 . S
C2809 U2806 2.984 . S
C2809 O2807 1.353 . S
C2809 O2808 1.286 . S
C2809 C2811 1.363 . S
C2810 C2800 1.465 . S
C2810 U2806 2.847 . S
C2810 O2824 1.249 . S
C2810 O2825 1.202 . S
C2811 C2809 1.363 . S
C2811 C2813 1.408 . S
C2811 C2816 1.342 . S
C2812 C2813 1.310 . S
C2812 C2815 1.461 . S
C2812 H2832 0.932 . S
C2813 C2811 1.408 . S
C2813 C2812 1.310 . S
C2813 H2833 0.930 . S
C2814 C2815 1.474 . S
C2814 C2816 1.285 . S
C2814 H2834 0.929 . S
C2815 C2812 1.461 . S
C2815 C2814 1.474 . S
C2816 C2811 1.342 . S
C2816 C2814 1.285 . S
C2816 H2835 0.930 . S
C2817 C2820 1.424 . S
C2817 C2822 1.245 . S
C2817 C2823 1.428 . S
C2818 C2821 1.260 . S
C2818 C2822 1.477 . S
C2818 H2836 0.932 . S
C2819 C2820 1.384 . S
C2819 C2821 1.479 . S
C2819 H2837 0.929 . S
C2820 C2817 1.424 . S
C2820 C2819 1.384 . S
C2820 H2838 0.928 . S
C2821 C2818 1.260 . S
C2821 C2819 1.479 . S
C2822 C2817 1.245 . S
C2822 C2818 1.477 . S
C2822 H2839 0.932 . S
C2823 U2806 2.882 . S
C2823 C2817 1.428 . S
C2823 O2826 1.301 . S
C2823 O2827 1.282 . S
O2824 U2806 2.441 . S
O2824 C2810 1.249 . S
O2825 U2806 2.420 . S
O2825 C2810 1.202 . S
O2826 U2806 2.455 . S
O2826 C2823 1.301 . S
O2827 U2806 2.449 . S
O2827 C2823 1.282 . S
H2828 C2801 0.931 . S
H2829 C2803 0.929 . S
H2830 C2804 0.930 . S
H2831 C2805 0.931 . S
H2832 C2812 0.932 . S
H2833 C2813 0.930 . S
H2834 C2814 0.929 . S
H2835 C2816 0.930 . S
H2836 C2818 0.932 . S
H2837 C2819 0.929 . S
H2838 C2820 0.928 . S
H2839 C2822 0.932 . S
C2840 C2841 1.264 . S
C2840 C2845 1.479 . S
C2840 C2850 1.465 . S
C2841 C2840 1.264 . S
C2841 C2843 1.339 . S
C2841 H2868 0.931 . S
C2842 C2843 1.395 . S
C2842 C2844 1.320 . S
C2843 C2841 1.339 . S
C2843 C2842 1.395 . S
C2843 H2869 0.929 . S
C2844 C2842 1.320 . S
C2844 C2845 1.405 . S
C2844 H2870 0.930 . S
C2845 C2840 1.479 . S
C2845 C2844 1.405 . S
C2845 H2871 0.931 . S
U2846 O2847 2.454 . S
U2846 O2848 2.458 . S
U2846 C2849 2.984 . S
U2846 C2850 2.847 . S
U2846 C2863 2.882 . S
U2846 O2864 2.441 . S
U2846 O2865 2.420 . S
U2846 O2866 2.455 . S
U2846 O2867 2.449 . S
O2847 U2846 2.454 . S
O2847 C2849 1.353 . S
O2848 U2846 2.458 . S
O2848 C2849 1.286 . S
C2849 U2846 2.984 . S
C2849 O2847 1.353 . S
C2849 O2848 1.286 . S
C2849 C2851 1.363 . S
C2850 C2840 1.465 . S
C2850 U2846 2.847 . S
C2850 O2864 1.249 . S
C2850 O2865 1.202 . S
C2851 C2849 1.363 . S
C2851 C2853 1.408 . S
C2851 C2856 1.342 . S
C2852 C2853 1.310 . S
C2852 C2855 1.461 . S
C2852 H2872 0.932 . S
C2853 C2851 1.408 . S
C2853 C2852 1.310 . S
C2853 H2873 0.930 . S
C2854 C2855 1.474 . S
C2854 C2856 1.285 . S
C2854 H2874 0.929 . S
C2855 C2852 1.461 . S
C2855 C2854 1.474 . S
C2856 C2851 1.342 . S
C2856 C2854 1.285 . S
C2856 H2875 0.930 . S
C2857 C2860 1.424 . S
C2857 C2862 1.245 . S
C2857 C2863 1.428 . S
C2858 C2861 1.260 . S
C2858 C2862 1.477 . S
C2858 H2876 0.932 . S
C2859 C2860 1.384 . S
C2859 C2861 1.479 . S
C2859 H2877 0.929 . S
C2860 C2857 1.424 . S
C2860 C2859 1.384 . S
C2860 H2878 0.928 . S
C2861 C2858 1.260 . S
C2861 C2859 1.479 . S
C2862 C2857 1.245 . S
C2862 C2858 1.477 . S
C2862 H2879 0.932 . S
C2863 U2846 2.882 . S
C2863 C2857 1.428 . S
C2863 O2866 1.301 . S
C2863 O2867 1.282 . S
O2864 U2846 2.441 . S
O2864 C2850 1.249 . S
O2865 U2846 2.420 . S
O2865 C2850 1.202 . S
O2866 U2846 2.455 . S
O2866 C2863 1.301 . S
O2867 U2846 2.449 . S
O2867 C2863 1.282 . S
H2868 C2841 0.931 . S
H2869 C2843 0.929 . S
H2870 C2844 0.930 . S
H2871 C2845 0.931 . S
H2872 C2852 0.932 . S
H2873 C2853 0.930 . S
H2874 C2854 0.929 . S
H2875 C2856 0.930 . S
H2876 C2858 0.932 . S
H2877 C2859 0.929 . S
H2878 C2860 0.928 . S
H2879 C2862 0.932 . S
C2880 C2881 1.264 . S
C2880 C2885 1.479 . S
C2880 C2890 1.465 . S
C2881 C2880 1.264 . S
C2881 C2883 1.339 . S
C2881 H2908 0.931 . S
C2882 C2883 1.395 . S
C2882 C2884 1.320 . S
C2883 C2881 1.339 . S
C2883 C2882 1.395 . S
C2883 H2909 0.929 . S
C2884 C2882 1.320 . S
C2884 C2885 1.405 . S
C2884 H2910 0.930 . S
C2885 C2880 1.479 . S
C2885 C2884 1.405 . S
C2885 H2911 0.931 . S
U2886 O2887 2.454 . S
U2886 O2888 2.458 . S
U2886 C2889 2.984 . S
U2886 C2890 2.847 . S
U2886 C2903 2.882 . S
U2886 O2904 2.441 . S
U2886 O2905 2.420 . S
U2886 O2906 2.455 . S
U2886 O2907 2.449 . S
O2887 U2886 2.454 . S
O2887 C2889 1.353 . S
O2888 U2886 2.458 . S
O2888 C2889 1.286 . S
C2889 U2886 2.984 . S
C2889 O2887 1.353 . S
C2889 O2888 1.286 . S
C2889 C2891 1.363 . S
C2890 C2880 1.465 . S
C2890 U2886 2.847 . S
C2890 O2904 1.249 . S
C2890 O2905 1.202 . S
C2891 C2889 1.363 . S
C2891 C2893 1.408 . S
C2891 C2896 1.342 . S
C2892 C2893 1.310 . S
C2892 C2895 1.461 . S
C2892 H2912 0.932 . S
C2893 C2891 1.408 . S
C2893 C2892 1.310 . S
C2893 H2913 0.930 . S
C2894 C2895 1.474 . S
C2894 C2896 1.285 . S
C2894 H2914 0.929 . S
C2895 C2892 1.461 . S
C2895 C2894 1.474 . S
C2896 C2891 1.342 . S
C2896 C2894 1.285 . S
C2896 H2915 0.930 . S
C2897 C2900 1.424 . S
C2897 C2902 1.245 . S
C2897 C2903 1.428 . S
C2898 C2901 1.260 . S
C2898 C2902 1.477 . S
C2898 H2916 0.932 . S
C2899 C2900 1.384 . S
C2899 C2901 1.479 . S
C2899 H2917 0.929 . S
C2900 C2897 1.424 . S
C2900 C2899 1.384 . S
C2900 H2918 0.928 . S
C2901 C2898 1.260 . S
C2901 C2899 1.479 . S
C2902 C2897 1.245 . S
C2902 C2898 1.477 . S
C2902 H2919 0.932 . S
C2903 U2886 2.882 . S
C2903 C2897 1.428 . S
C2903 O2906 1.301 . S
C2903 O2907 1.282 . S
O2904 U2886 2.441 . S
O2904 C2890 1.249 . S
O2905 U2886 2.420 . S
O2905 C2890 1.202 . S
O2906 U2886 2.455 . S
O2906 C2903 1.301 . S
O2907 U2886 2.449 . S
O2907 C2903 1.282 . S
H2908 C2881 0.931 . S
H2909 C2883 0.929 . S
H2910 C2884 0.930 . S
H2911 C2885 0.931 . S
H2912 C2892 0.932 . S
H2913 C2893 0.930 . S
H2914 C2894 0.929 . S
H2915 C2896 0.930 . S
H2916 C2898 0.932 . S
H2917 C2899 0.929 . S
H2918 C2900 0.928 . S
H2919 C2902 0.932 . S
C2920 C2921 1.264 . S
C2920 C2925 1.479 . S
C2920 C2930 1.465 . S
C2921 C2920 1.264 . S
C2921 C2923 1.339 . S
C2921 H2948 0.931 . S
C2922 C2923 1.395 . S
C2922 C2924 1.320 . S
C2923 C2921 1.339 . S
C2923 C2922 1.395 . S
C2923 H2949 0.929 . S
C2924 C2922 1.320 . S
C2924 C2925 1.405 . S
C2924 H2950 0.930 . S
C2925 C2920 1.479 . S
C2925 C2924 1.405 . S
C2925 H2951 0.931 . S
U2926 O2927 2.454 . S
U2926 O2928 2.458 . S
U2926 C2929 2.984 . S
U2926 C2930 2.847 . S
U2926 C2943 2.882 . S
U2926 O2944 2.441 . S
U2926 O2945 2.420 . S
U2926 O2946 2.455 . S
U2926 O2947 2.449 . S
O2927 U2926 2.454 . S
O2927 C2929 1.353 . S
O2928 U2926 2.458 . S
O2928 C2929 1.286 . S
C2929 U2926 2.984 . S
C2929 O2927 1.353 . S
C2929 O2928 1.286 . S
C2929 C2931 1.363 . S
C2930 C2920 1.465 . S
C2930 U2926 2.847 . S
C2930 O2944 1.249 . S
C2930 O2945 1.202 . S
C2931 C2929 1.363 . S
C2931 C2933 1.408 . S
C2931 C2936 1.342 . S
C2932 C2933 1.310 . S
C2932 C2935 1.461 . S
C2932 H2952 0.932 . S
C2933 C2931 1.408 . S
C2933 C2932 1.310 . S
C2933 H2953 0.930 . S
C2934 C2935 1.474 . S
C2934 C2936 1.285 . S
C2934 H2954 0.929 . S
C2935 C2932 1.461 . S
C2935 C2934 1.474 . S
C2936 C2931 1.342 . S
C2936 C2934 1.285 . S
C2936 H2955 0.930 . S
C2937 C2940 1.424 . S
C2937 C2942 1.245 . S
C2937 C2943 1.428 . S
C2938 C2941 1.260 . S
C2938 C2942 1.477 . S
C2938 H2956 0.932 . S
C2939 C2940 1.384 . S
C2939 C2941 1.479 . S
C2939 H2957 0.929 . S
C2940 C2937 1.424 . S
C2940 C2939 1.384 . S
C2940 H2958 0.928 . S
C2941 C2938 1.260 . S
C2941 C2939 1.479 . S
C2942 C2937 1.245 . S
C2942 C2938 1.477 . S
C2942 H2959 0.932 . S
C2943 U2926 2.882 . S
C2943 C2937 1.428 . S
C2943 O2946 1.301 . S
C2943 O2947 1.282 . S
O2944 U2926 2.441 . S
O2944 C2930 1.249 . S
O2945 U2926 2.420 . S
O2945 C2930 1.202 . S
O2946 U2926 2.455 . S
O2946 C2943 1.301 . S
O2947 U2926 2.449 . S
O2947 C2943 1.282 . S
H2948 C2921 0.931 . S
H2949 C2923 0.929 . S
H2950 C2924 0.930 . S
H2951 C2925 0.931 . S
H2952 C2932 0.932 . S
H2953 C2933 0.930 . S
H2954 C2934 0.929 . S
H2955 C2936 0.930 . S
H2956 C2938 0.932 . S
H2957 C2939 0.929 . S
H2958 C2940 0.928 . S
H2959 C2942 0.932 . S
C2960 C2961 1.264 . S
C2960 C2965 1.479 . S
C2960 C2970 1.465 . S
C2961 C2960 1.264 . S
C2961 C2963 1.339 . S
C2961 H2988 0.931 . S
C2962 C2963 1.395 . S
C2962 C2964 1.320 . S
C2963 C2961 1.339 . S
C2963 C2962 1.395 . S
C2963 H2989 0.929 . S
C2964 C2962 1.320 . S
C2964 C2965 1.405 . S
C2964 H2990 0.930 . S
C2965 C2960 1.479 . S
C2965 C2964 1.405 . S
C2965 H2991 0.931 . S
U2966 O2967 2.454 . S
U2966 O2968 2.458 . S
U2966 C2969 2.984 . S
U2966 C2970 2.847 . S
U2966 C2983 2.882 . S
U2966 O2984 2.441 . S
U2966 O2985 2.420 . S
U2966 O2986 2.455 . S
U2966 O2987 2.449 . S
O2967 U2966 2.454 . S
O2967 C2969 1.353 . S
O2968 U2966 2.458 . S
O2968 C2969 1.286 . S
C2969 U2966 2.984 . S
C2969 O2967 1.353 . S
C2969 O2968 1.286 . S
C2969 C2971 1.363 . S
C2970 C2960 1.465 . S
C2970 U2966 2.847 . S
C2970 O2984 1.249 . S
C2970 O2985 1.202 . S
C2971 C2969 1.363 . S
C2971 C2973 1.408 . S
C2971 C2976 1.342 . S
C2972 C2973 1.310 . S
C2972 C2975 1.461 . S
C2972 H2992 0.932 . S
C2973 C2971 1.408 . S
C2973 C2972 1.310 . S
C2973 H2993 0.930 . S
C2974 C2975 1.474 . S
C2974 C2976 1.285 . S
C2974 H2994 0.929 . S
C2975 C2972 1.461 . S
C2975 C2974 1.474 . S
C2976 C2971 1.342 . S
C2976 C2974 1.285 . S
C2976 H2995 0.930 . S
C2977 C2980 1.424 . S
C2977 C2982 1.245 . S
C2977 C2983 1.428 . S
C2978 C2981 1.260 . S
C2978 C2982 1.477 . S
C2978 H2996 0.932 . S
C2979 C2980 1.384 . S
C2979 C2981 1.479 . S
C2979 H2997 0.929 . S
C2980 C2977 1.424 . S
C2980 C2979 1.384 . S
C2980 H2998 0.928 . S
C2981 C2978 1.260 . S
C2981 C2979 1.479 . S
C2982 C2977 1.245 . S
C2982 C2978 1.477 . S
C2982 H2999 0.932 . S
C2983 U2966 2.882 . S
C2983 C2977 1.428 . S
C2983 O2986 1.301 . S
C2983 O2987 1.282 . S
O2984 U2966 2.441 . S
O2984 C2970 1.249 . S
O2985 U2966 2.420 . S
O2985 C2970 1.202 . S
O2986 U2966 2.455 . S
O2986 C2983 1.301 . S
O2987 U2966 2.449 . S
O2987 C2983 1.282 . S
H2988 C2961 0.931 . S
H2989 C2963 0.929 . S
H2990 C2964 0.930 . S
H2991 C2965 0.931 . S
H2992 C2972 0.932 . S
H2993 C2973 0.930 . S
H2994 C2974 0.929 . S
H2995 C2976 0.930 . S
H2996 C2978 0.932 . S
H2997 C2979 0.929 . S
H2998 C2980 0.928 . S
H2999 C2982 0.932 . S
C3000 C3001 1.264 . S
C3000 C3005 1.479 . S
C3000 C3010 1.465 . S
C3001 C3000 1.264 . S
C3001 C3003 1.339 . S
C3001 H3028 0.931 . S
C3002 C3003 1.395 . S
C3002 C3004 1.320 . S
C3003 C3001 1.339 . S
C3003 C3002 1.395 . S
C3003 H3029 0.929 . S
C3004 C3002 1.320 . S
C3004 C3005 1.405 . S
C3004 H3030 0.930 . S
C3005 C3000 1.479 . S
C3005 C3004 1.405 . S
C3005 H3031 0.931 . S
U3006 O3007 2.454 . S
U3006 O3008 2.458 . S
U3006 C3009 2.984 . S
U3006 C3010 2.847 . S
U3006 C3023 2.882 . S
U3006 O3024 2.441 . S
U3006 O3025 2.420 . S
U3006 O3026 2.455 . S
U3006 O3027 2.449 . S
O3007 U3006 2.454 . S
O3007 C3009 1.353 . S
O3008 U3006 2.458 . S
O3008 C3009 1.286 . S
C3009 U3006 2.984 . S
C3009 O3007 1.353 . S
C3009 O3008 1.286 . S
C3009 C3011 1.363 . S
C3010 C3000 1.465 . S
C3010 U3006 2.847 . S
C3010 O3024 1.249 . S
C3010 O3025 1.202 . S
C3011 C3009 1.363 . S
C3011 C3013 1.408 . S
C3011 C3016 1.342 . S
C3012 C3013 1.310 . S
C3012 C3015 1.461 . S
C3012 H3032 0.932 . S
C3013 C3011 1.408 . S
C3013 C3012 1.310 . S
C3013 H3033 0.930 . S
C3014 C3015 1.474 . S
C3014 C3016 1.285 . S
C3014 H3034 0.929 . S
C3015 C3012 1.461 . S
C3015 C3014 1.474 . S
C3016 C3011 1.342 . S
C3016 C3014 1.285 . S
C3016 H3035 0.930 . S
C3017 C3020 1.424 . S
C3017 C3022 1.245 . S
C3017 C3023 1.428 . S
C3018 C3021 1.260 . S
C3018 C3022 1.477 . S
C3018 H3036 0.932 . S
C3019 C3020 1.384 . S
C3019 C3021 1.479 . S
C3019 H3037 0.929 . S
C3020 C3017 1.424 . S
C3020 C3019 1.384 . S
C3020 H3038 0.928 . S
C3021 C3018 1.260 . S
C3021 C3019 1.479 . S
C3022 C3017 1.245 . S
C3022 C3018 1.477 . S
C3022 H3039 0.932 . S
C3023 U3006 2.882 . S
C3023 C3017 1.428 . S
C3023 O3026 1.301 . S
C3023 O3027 1.282 . S
O3024 U3006 2.441 . S
O3024 C3010 1.249 . S
O3025 U3006 2.420 . S
O3025 C3010 1.202 . S
O3026 U3006 2.455 . S
O3026 C3023 1.301 . S
O3027 U3006 2.449 . S
O3027 C3023 1.282 . S
H3028 C3001 0.931 . S
H3029 C3003 0.929 . S
H3030 C3004 0.930 . S
H3031 C3005 0.931 . S
H3032 C3012 0.932 . S
H3033 C3013 0.930 . S
H3034 C3014 0.929 . S
H3035 C3016 0.930 . S
H3036 C3018 0.932 . S
H3037 C3019 0.929 . S
H3038 C3020 0.928 . S
H3039 C3022 0.932 . S
C3040 C3041 1.264 . S
C3040 C3045 1.479 . S
C3040 C3050 1.465 . S
C3041 C3040 1.264 . S
C3041 C3043 1.339 . S
C3041 H3068 0.931 . S
C3042 C3043 1.395 . S
C3042 C3044 1.320 . S
C3043 C3041 1.339 . S
C3043 C3042 1.395 . S
C3043 H3069 0.929 . S
C3044 C3042 1.320 . S
C3044 C3045 1.405 . S
C3044 H3070 0.930 . S
C3045 C3040 1.479 . S
C3045 C3044 1.405 . S
C3045 H3071 0.931 . S
U3046 O3047 2.454 . S
U3046 O3048 2.458 . S
U3046 C3049 2.984 . S
U3046 C3050 2.847 . S
U3046 C3063 2.882 . S
U3046 O3064 2.441 . S
U3046 O3065 2.420 . S
U3046 O3066 2.455 . S
U3046 O3067 2.449 . S
O3047 U3046 2.454 . S
O3047 C3049 1.353 . S
O3048 U3046 2.458 . S
O3048 C3049 1.286 . S
C3049 U3046 2.984 . S
C3049 O3047 1.353 . S
C3049 O3048 1.286 . S
C3049 C3051 1.363 . S
C3050 C3040 1.465 . S
C3050 U3046 2.847 . S
C3050 O3064 1.249 . S
C3050 O3065 1.202 . S
C3051 C3049 1.363 . S
C3051 C3053 1.408 . S
C3051 C3056 1.342 . S
C3052 C3053 1.310 . S
C3052 C3055 1.461 . S
C3052 H3072 0.932 . S
C3053 C3051 1.408 . S
C3053 C3052 1.310 . S
C3053 H3073 0.930 . S
C3054 C3055 1.474 . S
C3054 C3056 1.285 . S
C3054 H3074 0.929 . S
C3055 C3052 1.461 . S
C3055 C3054 1.474 . S
C3056 C3051 1.342 . S
C3056 C3054 1.285 . S
C3056 H3075 0.930 . S
C3057 C3060 1.424 . S
C3057 C3062 1.245 . S
C3057 C3063 1.428 . S
C3058 C3061 1.260 . S
C3058 C3062 1.477 . S
C3058 H3076 0.932 . S
C3059 C3060 1.384 . S
C3059 C3061 1.479 . S
C3059 H3077 0.929 . S
C3060 C3057 1.424 . S
C3060 C3059 1.384 . S
C3060 H3078 0.928 . S
C3061 C3058 1.260 . S
C3061 C3059 1.479 . S
C3062 C3057 1.245 . S
C3062 C3058 1.477 . S
C3062 H3079 0.932 . S
C3063 U3046 2.882 . S
C3063 C3057 1.428 . S
C3063 O3066 1.301 . S
C3063 O3067 1.282 . S
O3064 U3046 2.441 . S
O3064 C3050 1.249 . S
O3065 U3046 2.420 . S
O3065 C3050 1.202 . S
O3066 U3046 2.455 . S
O3066 C3063 1.301 . S
O3067 U3046 2.449 . S
O3067 C3063 1.282 . S
H3068 C3041 0.931 . S
H3069 C3043 0.929 . S
H3070 C3044 0.930 . S
H3071 C3045 0.931 . S
H3072 C3052 0.932 . S
H3073 C3053 0.930 . S
H3074 C3054 0.929 . S
H3075 C3056 0.930 . S
H3076 C3058 0.932 . S
H3077 C3059 0.929 . S
H3078 C3060 0.928 . S
H3079 C3062 0.932 . S
C3080 C3081 1.264 . S
C3080 C3085 1.479 . S
C3080 C3090 1.465 . S
C3081 C3080 1.264 . S
C3081 C3083 1.339 . S
C3081 H3108 0.931 . S
C3082 C3083 1.395 . S
C3082 C3084 1.320 . S
C3083 C3081 1.339 . S
C3083 C3082 1.395 . S
C3083 H3109 0.929 . S
C3084 C3082 1.320 . S
C3084 C3085 1.405 . S
C3084 H3110 0.930 . S
C3085 C3080 1.479 . S
C3085 C3084 1.405 . S
C3085 H3111 0.931 . S
U3086 O3087 2.454 . S
U3086 O3088 2.458 . S
U3086 C3089 2.984 . S
U3086 C3090 2.847 . S
U3086 C3103 2.882 . S
U3086 O3104 2.441 . S
U3086 O3105 2.420 . S
U3086 O3106 2.455 . S
U3086 O3107 2.449 . S
O3087 U3086 2.454 . S
O3087 C3089 1.353 . S
O3088 U3086 2.458 . S
O3088 C3089 1.286 . S
C3089 U3086 2.984 . S
C3089 O3087 1.353 . S
C3089 O3088 1.286 . S
C3089 C3091 1.363 . S
C3090 C3080 1.465 . S
C3090 U3086 2.847 . S
C3090 O3104 1.249 . S
C3090 O3105 1.202 . S
C3091 C3089 1.363 . S
C3091 C3093 1.408 . S
C3091 C3096 1.342 . S
C3092 C3093 1.310 . S
C3092 C3095 1.461 . S
C3092 H3112 0.932 . S
C3093 C3091 1.408 . S
C3093 C3092 1.310 . S
C3093 H3113 0.930 . S
C3094 C3095 1.474 . S
C3094 C3096 1.285 . S
C3094 H3114 0.929 . S
C3095 C3092 1.461 . S
C3095 C3094 1.474 . S
C3096 C3091 1.342 . S
C3096 C3094 1.285 . S
C3096 H3115 0.930 . S
C3097 C3100 1.424 . S
C3097 C3102 1.245 . S
C3097 C3103 1.428 . S
C3098 C3101 1.260 . S
C3098 C3102 1.477 . S
C3098 H3116 0.932 . S
C3099 C3100 1.384 . S
C3099 C3101 1.479 . S
C3099 H3117 0.929 . S
C3100 C3097 1.424 . S
C3100 C3099 1.384 . S
C3100 H3118 0.928 . S
C3101 C3098 1.260 . S
C3101 C3099 1.479 . S
C3102 C3097 1.245 . S
C3102 C3098 1.477 . S
C3102 H3119 0.932 . S
C3103 U3086 2.882 . S
C3103 C3097 1.428 . S
C3103 O3106 1.301 . S
C3103 O3107 1.282 . S
O3104 U3086 2.441 . S
O3104 C3090 1.249 . S
O3105 U3086 2.420 . S
O3105 C3090 1.202 . S
O3106 U3086 2.455 . S
O3106 C3103 1.301 . S
O3107 U3086 2.449 . S
O3107 C3103 1.282 . S
H3108 C3081 0.931 . S
H3109 C3083 0.929 . S
H3110 C3084 0.930 . S
H3111 C3085 0.931 . S
H3112 C3092 0.932 . S
H3113 C3093 0.930 . S
H3114 C3094 0.929 . S
H3115 C3096 0.930 . S
H3116 C3098 0.932 . S
H3117 C3099 0.929 . S
H3118 C3100 0.928 . S
H3119 C3102 0.932 . S
C3120 C3121 1.264 . S
C3120 C3125 1.479 . S
C3120 C3130 1.465 . S
C3121 C3120 1.264 . S
C3121 C3123 1.339 . S
C3121 H3148 0.931 . S
C3122 C3123 1.395 . S
C3122 C3124 1.320 . S
C3123 C3121 1.339 . S
C3123 C3122 1.395 . S
C3123 H3149 0.929 . S
C3124 C3122 1.320 . S
C3124 C3125 1.405 . S
C3124 H3150 0.930 . S
C3125 C3120 1.479 . S
C3125 C3124 1.405 . S
C3125 H3151 0.931 . S
U3126 O3127 2.454 . S
U3126 O3128 2.458 . S
U3126 C3129 2.984 . S
U3126 C3130 2.847 . S
U3126 C3143 2.882 . S
U3126 O3144 2.441 . S
U3126 O3145 2.420 . S
U3126 O3146 2.455 . S
U3126 O3147 2.449 . S
O3127 U3126 2.454 . S
O3127 C3129 1.353 . S
O3128 U3126 2.458 . S
O3128 C3129 1.286 . S
C3129 U3126 2.984 . S
C3129 O3127 1.353 . S
C3129 O3128 1.286 . S
C3129 C3131 1.363 . S
C3130 C3120 1.465 . S
C3130 U3126 2.847 . S
C3130 O3144 1.249 . S
C3130 O3145 1.202 . S
C3131 C3129 1.363 . S
C3131 C3133 1.408 . S
C3131 C3136 1.342 . S
C3132 C3133 1.310 . S
C3132 C3135 1.461 . S
C3132 H3152 0.932 . S
C3133 C3131 1.408 . S
C3133 C3132 1.310 . S
C3133 H3153 0.930 . S
C3134 C3135 1.474 . S
C3134 C3136 1.285 . S
C3134 H3154 0.929 . S
C3135 C3132 1.461 . S
C3135 C3134 1.474 . S
C3136 C3131 1.342 . S
C3136 C3134 1.285 . S
C3136 H3155 0.930 . S
C3137 C3140 1.424 . S
C3137 C3142 1.245 . S
C3137 C3143 1.428 . S
C3138 C3141 1.260 . S
C3138 C3142 1.477 . S
C3138 H3156 0.932 . S
C3139 C3140 1.384 . S
C3139 C3141 1.479 . S
C3139 H3157 0.929 . S
C3140 C3137 1.424 . S
C3140 C3139 1.384 . S
C3140 H3158 0.928 . S
C3141 C3138 1.260 . S
C3141 C3139 1.479 . S
C3142 C3137 1.245 . S
C3142 C3138 1.477 . S
C3142 H3159 0.932 . S
C3143 U3126 2.882 . S
C3143 C3137 1.428 . S
C3143 O3146 1.301 . S
C3143 O3147 1.282 . S
O3144 U3126 2.441 . S
O3144 C3130 1.249 . S
O3145 U3126 2.420 . S
O3145 C3130 1.202 . S
O3146 U3126 2.455 . S
O3146 C3143 1.301 . S
O3147 U3126 2.449 . S
O3147 C3143 1.282 . S
H3148 C3121 0.931 . S
H3149 C3123 0.929 . S
H3150 C3124 0.930 . S
H3151 C3125 0.931 . S
H3152 C3132 0.932 . S
H3153 C3133 0.930 . S
H3154 C3134 0.929 . S
H3155 C3136 0.930 . S
H3156 C3138 0.932 . S
H3157 C3139 0.929 . S
H3158 C3140 0.928 . S
H3159 C3142 0.932 . S
C3160 C3161 1.264 . S
C3160 C3165 1.479 . S
C3160 C3170 1.465 . S
C3161 C3160 1.264 . S
C3161 C3163 1.339 . S
C3161 H3188 0.931 . S
C3162 C3163 1.395 . S
C3162 C3164 1.320 . S
C3163 C3161 1.339 . S
C3163 C3162 1.395 . S
C3163 H3189 0.929 . S
C3164 C3162 1.320 . S
C3164 C3165 1.405 . S
C3164 H3190 0.930 . S
C3165 C3160 1.479 . S
C3165 C3164 1.405 . S
C3165 H3191 0.931 . S
U3166 O3167 2.454 . S
U3166 O3168 2.458 . S
U3166 C3169 2.984 . S
U3166 C3170 2.847 . S
U3166 C3183 2.882 . S
U3166 O3184 2.441 . S
U3166 O3185 2.420 . S
U3166 O3186 2.455 . S
U3166 O3187 2.449 . S
O3167 U3166 2.454 . S
O3167 C3169 1.353 . S
O3168 U3166 2.458 . S
O3168 C3169 1.286 . S
C3169 U3166 2.984 . S
C3169 O3167 1.353 . S
C3169 O3168 1.286 . S
C3169 C3171 1.363 . S
C3170 C3160 1.465 . S
C3170 U3166 2.847 . S
C3170 O3184 1.249 . S
C3170 O3185 1.202 . S
C3171 C3169 1.363 . S
C3171 C3173 1.408 . S
C3171 C3176 1.342 . S
C3172 C3173 1.310 . S
C3172 C3175 1.461 . S
C3172 H3192 0.932 . S
C3173 C3171 1.408 . S
C3173 C3172 1.310 . S
C3173 H3193 0.930 . S
C3174 C3175 1.474 . S
C3174 C3176 1.285 . S
C3174 H3194 0.929 . S
C3175 C3172 1.461 . S
C3175 C3174 1.474 . S
C3176 C3171 1.342 . S
C3176 C3174 1.285 . S
C3176 H3195 0.930 . S
C3177 C3180 1.424 . S
C3177 C3182 1.245 . S
C3177 C3183 1.428 . S
C3178 C3181 1.260 . S
C3178 C3182 1.477 . S
C3178 H3196 0.932 . S
C3179 C3180 1.384 . S
C3179 C3181 1.479 . S
C3179 H3197 0.929 . S
C3180 C3177 1.424 . S
C3180 C3179 1.384 . S
C3180 H3198 0.928 . S
C3181 C3178 1.260 . S
C3181 C3179 1.479 . S
C3182 C3177 1.245 . S
C3182 C3178 1.477 . S
C3182 H3199 0.932 . S
C3183 U3166 2.882 . S
C3183 C3177 1.428 . S
C3183 O3186 1.301 . S
C3183 O3187 1.282 . S
O3184 U3166 2.441 . S
O3184 C3170 1.249 . S
O3185 U3166 2.420 . S
O3185 C3170 1.202 . S
O3186 U3166 2.455 . S
O3186 C3183 1.301 . S
O3187 U3166 2.449 . S
O3187 C3183 1.282 . S
H3188 C3161 0.931 . S
H3189 C3163 0.929 . S
H3190 C3164 0.930 . S
H3191 C3165 0.931 . S
H3192 C3172 0.932 . S
H3193 C3173 0.930 . S
H3194 C3174 0.929 . S
H3195 C3176 0.930 . S
H3196 C3178 0.932 . S
H3197 C3179 0.929 . S
H3198 C3180 0.928 . S
H3199 C3182 0.932 . S
C3200 C3201 1.264 . S
C3200 C3205 1.479 . S
C3200 C3210 1.465 . S
C3201 C3200 1.264 . S
C3201 C3203 1.339 . S
C3201 H3228 0.931 . S
C3202 C3203 1.395 . S
C3202 C3204 1.320 . S
C3203 C3201 1.339 . S
C3203 C3202 1.395 . S
C3203 H3229 0.929 . S
C3204 C3202 1.320 . S
C3204 C3205 1.405 . S
C3204 H3230 0.930 . S
C3205 C3200 1.479 . S
C3205 C3204 1.405 . S
C3205 H3231 0.931 . S
U3206 O3207 2.454 . S
U3206 O3208 2.458 . S
U3206 C3209 2.984 . S
U3206 C3210 2.847 . S
U3206 C3223 2.882 . S
U3206 O3224 2.441 . S
U3206 O3225 2.420 . S
U3206 O3226 2.455 . S
U3206 O3227 2.449 . S
O3207 U3206 2.454 . S
O3207 C3209 1.353 . S
O3208 U3206 2.458 . S
O3208 C3209 1.286 . S
C3209 U3206 2.984 . S
C3209 O3207 1.353 . S
C3209 O3208 1.286 . S
C3209 C3211 1.363 . S
C3210 C3200 1.465 . S
C3210 U3206 2.847 . S
C3210 O3224 1.249 . S
C3210 O3225 1.202 . S
C3211 C3209 1.363 . S
C3211 C3213 1.408 . S
C3211 C3216 1.342 . S
C3212 C3213 1.310 . S
C3212 C3215 1.461 . S
C3212 H3232 0.932 . S
C3213 C3211 1.408 . S
C3213 C3212 1.310 . S
C3213 H3233 0.930 . S
C3214 C3215 1.474 . S
C3214 C3216 1.285 . S
C3214 H3234 0.929 . S
C3215 C3212 1.461 . S
C3215 C3214 1.474 . S
C3216 C3211 1.342 . S
C3216 C3214 1.285 . S
C3216 H3235 0.930 . S
C3217 C3220 1.424 . S
C3217 C3222 1.245 . S
C3217 C3223 1.428 . S
C3218 C3221 1.260 . S
C3218 C3222 1.477 . S
C3218 H3236 0.932 . S
C3219 C3220 1.384 . S
C3219 C3221 1.479 . S
C3219 H3237 0.929 . S
C3220 C3217 1.424 . S
C3220 C3219 1.384 . S
C3220 H3238 0.928 . S
C3221 C3218 1.260 . S
C3221 C3219 1.479 . S
C3222 C3217 1.245 . S
C3222 C3218 1.477 . S
C3222 H3239 0.932 . S
C3223 U3206 2.882 . S
C3223 C3217 1.428 . S
C3223 O3226 1.301 . S
C3223 O3227 1.282 . S
O3224 U3206 2.441 . S
O3224 C3210 1.249 . S
O3225 U3206 2.420 . S
O3225 C3210 1.202 . S
O3226 U3206 2.455 . S
O3226 C3223 1.301 . S
O3227 U3206 2.449 . S
O3227 C3223 1.282 . S
H3228 C3201 0.931 . S
H3229 C3203 0.929 . S
H3230 C3204 0.930 . S
H3231 C3205 0.931 . S
H3232 C3212 0.932 . S
H3233 C3213 0.930 . S
H3234 C3214 0.929 . S
H3235 C3216 0.930 . S
H3236 C3218 0.932 . S
H3237 C3219 0.929 . S
H3238 C3220 0.928 . S
H3239 C3222 0.932 . S
C3240 C3241 1.264 . S
C3240 C3245 1.479 . S
C3240 C3250 1.465 . S
C3241 C3240 1.264 . S
C3241 C3243 1.339 . S
C3241 H3268 0.931 . S
C3242 C3243 1.395 . S
C3242 C3244 1.320 . S
C3243 C3241 1.339 . S
C3243 C3242 1.395 . S
C3243 H3269 0.929 . S
C3244 C3242 1.320 . S
C3244 C3245 1.405 . S
C3244 H3270 0.930 . S
C3245 C3240 1.479 . S
C3245 C3244 1.405 . S
C3245 H3271 0.931 . S
U3246 O3247 2.454 . S
U3246 O3248 2.458 . S
U3246 C3249 2.984 . S
U3246 C3250 2.847 . S
U3246 C3263 2.882 . S
U3246 O3264 2.441 . S
U3246 O3265 2.420 . S
U3246 O3266 2.455 . S
U3246 O3267 2.449 . S
O3247 U3246 2.454 . S
O3247 C3249 1.353 . S
O3248 U3246 2.458 . S
O3248 C3249 1.286 . S
C3249 U3246 2.984 . S
C3249 O3247 1.353 . S
C3249 O3248 1.286 . S
C3249 C3251 1.363 . S
C3250 C3240 1.465 . S
C3250 U3246 2.847 . S
C3250 O3264 1.249 . S
C3250 O3265 1.202 . S
C3251 C3249 1.363 . S
C3251 C3253 1.408 . S
C3251 C3256 1.342 . S
C3252 C3253 1.310 . S
C3252 C3255 1.461 . S
C3252 H3272 0.932 . S
C3253 C3251 1.408 . S
C3253 C3252 1.310 . S
C3253 H3273 0.930 . S
C3254 C3255 1.474 . S
C3254 C3256 1.285 . S
C3254 H3274 0.929 . S
C3255 C3252 1.461 . S
C3255 C3254 1.474 . S
C3256 C3251 1.342 . S
C3256 C3254 1.285 . S
C3256 H3275 0.930 . S
C3257 C3260 1.424 . S
C3257 C3262 1.245 . S
C3257 C3263 1.428 . S
C3258 C3261 1.260 . S
C3258 C3262 1.477 . S
C3258 H3276 0.932 . S
C3259 C3260 1.384 . S
C3259 C3261 1.479 . S
C3259 H3277 0.929 . S
C3260 C3257 1.424 . S
C3260 C3259 1.384 . S
C3260 H3278 0.928 . S
C3261 C3258 1.260 . S
C3261 C3259 1.479 . S
C3262 C3257 1.245 . S
C3262 C3258 1.477 . S
C3262 H3279 0.932 . S
C3263 U3246 2.882 . S
C3263 C3257 1.428 . S
C3263 O3266 1.301 . S
C3263 O3267 1.282 . S
O3264 U3246 2.441 . S
O3264 C3250 1.249 . S
O3265 U3246 2.420 . S
O3265 C3250 1.202 . S
O3266 U3246 2.455 . S
O3266 C3263 1.301 . S
O3267 U3246 2.449 . S
O3267 C3263 1.282 . S
H3268 C3241 0.931 . S
H3269 C3243 0.929 . S
H3270 C3244 0.930 . S
H3271 C3245 0.931 . S
H3272 C3252 0.932 . S
H3273 C3253 0.930 . S
H3274 C3254 0.929 . S
H3275 C3256 0.930 . S
H3276 C3258 0.932 . S
H3277 C3259 0.929 . S
H3278 C3260 0.928 . S
H3279 C3262 0.932 . S
C3280 C3281 1.264 . S
C3280 C3285 1.479 . S
C3280 C3290 1.465 . S
C3281 C3280 1.264 . S
C3281 C3283 1.339 . S
C3281 H3308 0.931 . S
C3282 C3283 1.395 . S
C3282 C3284 1.320 . S
C3283 C3281 1.339 . S
C3283 C3282 1.395 . S
C3283 H3309 0.929 . S
C3284 C3282 1.320 . S
C3284 C3285 1.405 . S
C3284 H3310 0.930 . S
C3285 C3280 1.479 . S
C3285 C3284 1.405 . S
C3285 H3311 0.931 . S
U3286 O3287 2.454 . S
U3286 O3288 2.458 . S
U3286 C3289 2.984 . S
U3286 C3290 2.847 . S
U3286 C3303 2.882 . S
U3286 O3304 2.441 . S
U3286 O3305 2.420 . S
U3286 O3306 2.455 . S
U3286 O3307 2.449 . S
O3287 U3286 2.454 . S
O3287 C3289 1.353 . S
O3288 U3286 2.458 . S
O3288 C3289 1.286 . S
C3289 U3286 2.984 . S
C3289 O3287 1.353 . S
C3289 O3288 1.286 . S
C3289 C3291 1.363 . S
C3290 C3280 1.465 . S
C3290 U3286 2.847 . S
C3290 O3304 1.249 . S
C3290 O3305 1.202 . S
C3291 C3289 1.363 . S
C3291 C3293 1.408 . S
C3291 C3296 1.342 . S
C3292 C3293 1.310 . S
C3292 C3295 1.461 . S
C3292 H3312 0.932 . S
C3293 C3291 1.408 . S
C3293 C3292 1.310 . S
C3293 H3313 0.930 . S
C3294 C3295 1.474 . S
C3294 C3296 1.285 . S
C3294 H3314 0.929 . S
C3295 C3292 1.461 . S
C3295 C3294 1.474 . S
C3296 C3291 1.342 . S
C3296 C3294 1.285 . S
C3296 H3315 0.930 . S
C3297 C3300 1.424 . S
C3297 C3302 1.245 . S
C3297 C3303 1.428 . S
C3298 C3301 1.260 . S
C3298 C3302 1.477 . S
C3298 H3316 0.932 . S
C3299 C3300 1.384 . S
C3299 C3301 1.479 . S
C3299 H3317 0.929 . S
C3300 C3297 1.424 . S
C3300 C3299 1.384 . S
C3300 H3318 0.928 . S
C3301 C3298 1.260 . S
C3301 C3299 1.479 . S
C3302 C3297 1.245 . S
C3302 C3298 1.477 . S
C3302 H3319 0.932 . S
C3303 U3286 2.882 . S
C3303 C3297 1.428 . S
C3303 O3306 1.301 . S
C3303 O3307 1.282 . S
O3304 U3286 2.441 . S
O3304 C3290 1.249 . S
O3305 U3286 2.420 . S
O3305 C3290 1.202 . S
O3306 U3286 2.455 . S
O3306 C3303 1.301 . S
O3307 U3286 2.449 . S
O3307 C3303 1.282 . S
H3308 C3281 0.931 . S
H3309 C3283 0.929 . S
H3310 C3284 0.930 . S
H3311 C3285 0.931 . S
H3312 C3292 0.932 . S
H3313 C3293 0.930 . S
H3314 C3294 0.929 . S
H3315 C3296 0.930 . S
H3316 C3298 0.932 . S
H3317 C3299 0.929 . S
H3318 C3300 0.928 . S
H3319 C3302 0.932 . S
C3320 C3321 1.264 . S
C3320 C3325 1.479 . S
C3320 C3330 1.465 . S
C3321 C3320 1.264 . S
C3321 C3323 1.339 . S
C3321 H3348 0.931 . S
C3322 C3323 1.395 . S
C3322 C3324 1.320 . S
C3323 C3321 1.339 . S
C3323 C3322 1.395 . S
C3323 H3349 0.929 . S
C3324 C3322 1.320 . S
C3324 C3325 1.405 . S
C3324 H3350 0.930 . S
C3325 C3320 1.479 . S
C3325 C3324 1.405 . S
C3325 H3351 0.931 . S
U3326 O3327 2.454 . S
U3326 O3328 2.458 . S
U3326 C3329 2.984 . S
U3326 C3330 2.847 . S
U3326 C3343 2.882 . S
U3326 O3344 2.441 . S
U3326 O3345 2.420 . S
U3326 O3346 2.455 . S
U3326 O3347 2.449 . S
O3327 U3326 2.454 . S
O3327 C3329 1.353 . S
O3328 U3326 2.458 . S
O3328 C3329 1.286 . S
C3329 U3326 2.984 . S
C3329 O3327 1.353 . S
C3329 O3328 1.286 . S
C3329 C3331 1.363 . S
C3330 C3320 1.465 . S
C3330 U3326 2.847 . S
C3330 O3344 1.249 . S
C3330 O3345 1.202 . S
C3331 C3329 1.363 . S
C3331 C3333 1.408 . S
C3331 C3336 1.342 . S
C3332 C3333 1.310 . S
C3332 C3335 1.461 . S
C3332 H3352 0.932 . S
C3333 C3331 1.408 . S
C3333 C3332 1.310 . S
C3333 H3353 0.930 . S
C3334 C3335 1.474 . S
C3334 C3336 1.285 . S
C3334 H3354 0.929 . S
C3335 C3332 1.461 . S
C3335 C3334 1.474 . S
C3336 C3331 1.342 . S
C3336 C3334 1.285 . S
C3336 H3355 0.930 . S
C3337 C3340 1.424 . S
C3337 C3342 1.245 . S
C3337 C3343 1.428 . S
C3338 C3341 1.260 . S
C3338 C3342 1.477 . S
C3338 H3356 0.932 . S
C3339 C3340 1.384 . S
C3339 C3341 1.479 . S
C3339 H3357 0.929 . S
C3340 C3337 1.424 . S
C3340 C3339 1.384 . S
C3340 H3358 0.928 . S
C3341 C3338 1.260 . S
C3341 C3339 1.479 . S
C3342 C3337 1.245 . S
C3342 C3338 1.477 . S
C3342 H3359 0.932 . S
C3343 U3326 2.882 . S
C3343 C3337 1.428 . S
C3343 O3346 1.301 . S
C3343 O3347 1.282 . S
O3344 U3326 2.441 . S
O3344 C3330 1.249 . S
O3345 U3326 2.420 . S
O3345 C3330 1.202 . S
O3346 U3326 2.455 . S
O3346 C3343 1.301 . S
O3347 U3326 2.449 . S
O3347 C3343 1.282 . S
H3348 C3321 0.931 . S
H3349 C3323 0.929 . S
H3350 C3324 0.930 . S
H3351 C3325 0.931 . S
H3352 C3332 0.932 . S
H3353 C3333 0.930 . S
H3354 C3334 0.929 . S
H3355 C3336 0.930 . S
H3356 C3338 0.932 . S
H3357 C3339 0.929 . S
H3358 C3340 0.928 . S
H3359 C3342 0.932 . S
C3360 C3361 1.264 . S
C3360 C3365 1.479 . S
C3360 C3370 1.465 . S
C3361 C3360 1.264 . S
C3361 C3363 1.339 . S
C3361 H3388 0.931 . S
C3362 C3363 1.395 . S
C3362 C3364 1.320 . S
C3363 C3361 1.339 . S
C3363 C3362 1.395 . S
C3363 H3389 0.929 . S
C3364 C3362 1.320 . S
C3364 C3365 1.405 . S
C3364 H3390 0.930 . S
C3365 C3360 1.479 . S
C3365 C3364 1.405 . S
C3365 H3391 0.931 . S
U3366 O3367 2.454 . S
U3366 O3368 2.458 . S
U3366 C3369 2.984 . S
U3366 C3370 2.847 . S
U3366 C3383 2.882 . S
U3366 O3384 2.441 . S
U3366 O3385 2.420 . S
U3366 O3386 2.455 . S
U3366 O3387 2.449 . S
O3367 U3366 2.454 . S
O3367 C3369 1.353 . S
O3368 U3366 2.458 . S
O3368 C3369 1.286 . S
C3369 U3366 2.984 . S
C3369 O3367 1.353 . S
C3369 O3368 1.286 . S
C3369 C3371 1.363 . S
C3370 C3360 1.465 . S
C3370 U3366 2.847 . S
C3370 O3384 1.249 . S
C3370 O3385 1.202 . S
C3371 C3369 1.363 . S
C3371 C3373 1.408 . S
C3371 C3376 1.342 . S
C3372 C3373 1.310 . S
C3372 C3375 1.461 . S
C3372 H3392 0.932 . S
C3373 C3371 1.408 . S
C3373 C3372 1.310 . S
C3373 H3393 0.930 . S
C3374 C3375 1.474 . S
C3374 C3376 1.285 . S
C3374 H3394 0.929 . S
C3375 C3372 1.461 . S
C3375 C3374 1.474 . S
C3376 C3371 1.342 . S
C3376 C3374 1.285 . S
C3376 H3395 0.930 . S
C3377 C3380 1.424 . S
C3377 C3382 1.245 . S
C3377 C3383 1.428 . S
C3378 C3381 1.260 . S
C3378 C3382 1.477 . S
C3378 H3396 0.932 . S
C3379 C3380 1.384 . S
C3379 C3381 1.479 . S
C3379 H3397 0.929 . S
C3380 C3377 1.424 . S
C3380 C3379 1.384 . S
C3380 H3398 0.928 . S
C3381 C3378 1.260 . S
C3381 C3379 1.479 . S
C3382 C3377 1.245 . S
C3382 C3378 1.477 . S
C3382 H3399 0.932 . S
C3383 U3366 2.882 . S
C3383 C3377 1.428 . S
C3383 O3386 1.301 . S
C3383 O3387 1.282 . S
O3384 U3366 2.441 . S
O3384 C3370 1.249 . S
O3385 U3366 2.420 . S
O3385 C3370 1.202 . S
O3386 U3366 2.455 . S
O3386 C3383 1.301 . S
O3387 U3366 2.449 . S
O3387 C3383 1.282 . S
H3388 C3361 0.931 . S
H3389 C3363 0.929 . S
H3390 C3364 0.930 . S
H3391 C3365 0.931 . S
H3392 C3372 0.932 . S
H3393 C3373 0.930 . S
H3394 C3374 0.929 . S
H3395 C3376 0.930 . S
H3396 C3378 0.932 . S
H3397 C3379 0.929 . S
H3398 C3380 0.928 . S
H3399 C3382 0.932 . S
C3400 C3401 1.264 . S
C3400 C3405 1.479 . S
C3400 C3410 1.465 . S
C3401 C3400 1.264 . S
C3401 C3403 1.339 . S
C3401 H3428 0.931 . S
C3402 C3403 1.395 . S
C3402 C3404 1.320 . S
C3403 C3401 1.339 . S
C3403 C3402 1.395 . S
C3403 H3429 0.929 . S
C3404 C3402 1.320 . S
C3404 C3405 1.405 . S
C3404 H3430 0.930 . S
C3405 C3400 1.479 . S
C3405 C3404 1.405 . S
C3405 H3431 0.931 . S
U3406 O3407 2.454 . S
U3406 O3408 2.458 . S
U3406 C3409 2.984 . S
U3406 C3410 2.847 . S
U3406 C3423 2.882 . S
U3406 O3424 2.441 . S
U3406 O3425 2.420 . S
U3406 O3426 2.455 . S
U3406 O3427 2.449 . S
O3407 U3406 2.454 . S
O3407 C3409 1.353 . S
O3408 U3406 2.458 . S
O3408 C3409 1.286 . S
C3409 U3406 2.984 . S
C3409 O3407 1.353 . S
C3409 O3408 1.286 . S
C3409 C3411 1.363 . S
C3410 C3400 1.465 . S
C3410 U3406 2.847 . S
C3410 O3424 1.249 . S
C3410 O3425 1.202 . S
C3411 C3409 1.363 . S
C3411 C3413 1.408 . S
C3411 C3416 1.342 . S
C3412 C3413 1.310 . S
C3412 C3415 1.461 . S
C3412 H3432 0.932 . S
C3413 C3411 1.408 . S
C3413 C3412 1.310 . S
C3413 H3433 0.930 . S
C3414 C3415 1.474 . S
C3414 C3416 1.285 . S
C3414 H3434 0.929 . S
C3415 C3412 1.461 . S
C3415 C3414 1.474 . S
C3416 C3411 1.342 . S
C3416 C3414 1.285 . S
C3416 H3435 0.930 . S
C3417 C3420 1.424 . S
C3417 C3422 1.245 . S
C3417 C3423 1.428 . S
C3418 C3421 1.260 . S
C3418 C3422 1.477 . S
C3418 H3436 0.932 . S
C3419 C3420 1.384 . S
C3419 C3421 1.479 . S
C3419 H3437 0.929 . S
C3420 C3417 1.424 . S
C3420 C3419 1.384 . S
C3420 H3438 0.928 . S
C3421 C3418 1.260 . S
C3421 C3419 1.479 . S
C3422 C3417 1.245 . S
C3422 C3418 1.477 . S
C3422 H3439 0.932 . S
C3423 U3406 2.882 . S
C3423 C3417 1.428 . S
C3423 O3426 1.301 . S
C3423 O3427 1.282 . S
O3424 U3406 2.441 . S
O3424 C3410 1.249 . S
O3425 U3406 2.420 . S
O3425 C3410 1.202 . S
O3426 U3406 2.455 . S
O3426 C3423 1.301 . S
O3427 U3406 2.449 . S
O3427 C3423 1.282 . S
H3428 C3401 0.931 . S
H3429 C3403 0.929 . S
H3430 C3404 0.930 . S
H3431 C3405 0.931 . S
H3432 C3412 0.932 . S
H3433 C3413 0.930 . S
H3434 C3414 0.929 . S
H3435 C3416 0.930 . S
H3436 C3418 0.932 . S
H3437 C3419 0.929 . S
H3438 C3420 0.928 . S
H3439 C3422 0.932 . S
C3440 C3441 1.264 . S
C3440 C3445 1.479 . S
C3440 C3450 1.465 . S
C3441 C3440 1.264 . S
C3441 C3443 1.339 . S
C3441 H3468 0.931 . S
C3442 C3443 1.395 . S
C3442 C3444 1.320 . S
C3443 C3441 1.339 . S
C3443 C3442 1.395 . S
C3443 H3469 0.929 . S
C3444 C3442 1.320 . S
C3444 C3445 1.405 . S
C3444 H3470 0.930 . S
C3445 C3440 1.479 . S
C3445 C3444 1.405 . S
C3445 H3471 0.931 . S
U3446 O3447 2.454 . S
U3446 O3448 2.458 . S
U3446 C3449 2.984 . S
U3446 C3450 2.847 . S
U3446 C3463 2.882 . S
U3446 O3464 2.441 . S
U3446 O3465 2.420 . S
U3446 O3466 2.455 . S
U3446 O3467 2.449 . S
O3447 U3446 2.454 . S
O3447 C3449 1.353 . S
O3448 U3446 2.458 . S
O3448 C3449 1.286 . S
C3449 U3446 2.984 . S
C3449 O3447 1.353 . S
C3449 O3448 1.286 . S
C3449 C3451 1.363 . S
C3450 C3440 1.465 . S
C3450 U3446 2.847 . S
C3450 O3464 1.249 . S
C3450 O3465 1.202 . S
C3451 C3449 1.363 . S
C3451 C3453 1.408 . S
C3451 C3456 1.342 . S
C3452 C3453 1.310 . S
C3452 C3455 1.461 . S
C3452 H3472 0.932 . S
C3453 C3451 1.408 . S
C3453 C3452 1.310 . S
C3453 H3473 0.930 . S
C3454 C3455 1.474 . S
C3454 C3456 1.285 . S
C3454 H3474 0.929 . S
C3455 C3452 1.461 . S
C3455 C3454 1.474 . S
C3456 C3451 1.342 . S
C3456 C3454 1.285 . S
C3456 H3475 0.930 . S
C3457 C3460 1.424 . S
C3457 C3462 1.245 . S
C3457 C3463 1.428 . S
C3458 C3461 1.260 . S
C3458 C3462 1.477 . S
C3458 H3476 0.932 . S
C3459 C3460 1.384 . S
C3459 C3461 1.479 . S
C3459 H3477 0.929 . S
C3460 C3457 1.424 . S
C3460 C3459 1.384 . S
C3460 H3478 0.928 . S
C3461 C3458 1.260 . S
C3461 C3459 1.479 . S
C3462 C3457 1.245 . S
C3462 C3458 1.477 . S
C3462 H3479 0.932 . S
C3463 U3446 2.882 . S
C3463 C3457 1.428 . S
C3463 O3466 1.301 . S
C3463 O3467 1.282 . S
O3464 U3446 2.441 . S
O3464 C3450 1.249 . S
O3465 U3446 2.420 . S
O3465 C3450 1.202 . S
O3466 U3446 2.455 . S
O3466 C3463 1.301 . S
O3467 U3446 2.449 . S
O3467 C3463 1.282 . S
H3468 C3441 0.931 . S
H3469 C3443 0.929 . S
H3470 C3444 0.930 . S
H3471 C3445 0.931 . S
H3472 C3452 0.932 . S
H3473 C3453 0.930 . S
H3474 C3454 0.929 . S
H3475 C3456 0.930 . S
H3476 C3458 0.932 . S
H3477 C3459 0.929 . S
H3478 C3460 0.928 . S
H3479 C3462 0.932 . S
C3480 C3481 1.264 . S
C3480 C3485 1.479 . S
C3480 C3490 1.465 . S
C3481 C3480 1.264 . S
C3481 C3483 1.339 . S
C3481 H3508 0.931 . S
C3482 C3483 1.395 . S
C3482 C3484 1.320 . S
C3483 C3481 1.339 . S
C3483 C3482 1.395 . S
C3483 H3509 0.929 . S
C3484 C3482 1.320 . S
C3484 C3485 1.405 . S
C3484 H3510 0.930 . S
C3485 C3480 1.479 . S
C3485 C3484 1.405 . S
C3485 H3511 0.931 . S
U3486 O3487 2.454 . S
U3486 O3488 2.458 . S
U3486 C3489 2.984 . S
U3486 C3490 2.847 . S
U3486 C3503 2.882 . S
U3486 O3504 2.441 . S
U3486 O3505 2.420 . S
U3486 O3506 2.455 . S
U3486 O3507 2.449 . S
O3487 U3486 2.454 . S
O3487 C3489 1.353 . S
O3488 U3486 2.458 . S
O3488 C3489 1.286 . S
C3489 U3486 2.984 . S
C3489 O3487 1.353 . S
C3489 O3488 1.286 . S
C3489 C3491 1.363 . S
C3490 C3480 1.465 . S
C3490 U3486 2.847 . S
C3490 O3504 1.249 . S
C3490 O3505 1.202 . S
C3491 C3489 1.363 . S
C3491 C3493 1.408 . S
C3491 C3496 1.342 . S
C3492 C3493 1.310 . S
C3492 C3495 1.461 . S
C3492 H3512 0.932 . S
C3493 C3491 1.408 . S
C3493 C3492 1.310 . S
C3493 H3513 0.930 . S
C3494 C3495 1.474 . S
C3494 C3496 1.285 . S
C3494 H3514 0.929 . S
C3495 C3492 1.461 . S
C3495 C3494 1.474 . S
C3496 C3491 1.342 . S
C3496 C3494 1.285 . S
C3496 H3515 0.930 . S
C3497 C3500 1.424 . S
C3497 C3502 1.245 . S
C3497 C3503 1.428 . S
C3498 C3501 1.260 . S
C3498 C3502 1.477 . S
C3498 H3516 0.932 . S
C3499 C3500 1.384 . S
C3499 C3501 1.479 . S
C3499 H3517 0.929 . S
C3500 C3497 1.424 . S
C3500 C3499 1.384 . S
C3500 H3518 0.928 . S
C3501 C3498 1.260 . S
C3501 C3499 1.479 . S
C3502 C3497 1.245 . S
C3502 C3498 1.477 . S
C3502 H3519 0.932 . S
C3503 U3486 2.882 . S
C3503 C3497 1.428 . S
C3503 O3506 1.301 . S
C3503 O3507 1.282 . S
O3504 U3486 2.441 . S
O3504 C3490 1.249 . S
O3505 U3486 2.420 . S
O3505 C3490 1.202 . S
O3506 U3486 2.455 . S
O3506 C3503 1.301 . S
O3507 U3486 2.449 . S
O3507 C3503 1.282 . S
H3508 C3481 0.931 . S
H3509 C3483 0.929 . S
H3510 C3484 0.930 . S
H3511 C3485 0.931 . S
H3512 C3492 0.932 . S
H3513 C3493 0.930 . S
H3514 C3494 0.929 . S
H3515 C3496 0.930 . S
H3516 C3498 0.932 . S
H3517 C3499 0.929 . S
H3518 C3500 0.928 . S
H3519 C3502 0.932 . S
C3520 C3521 1.264 . S
C3520 C3525 1.479 . S
C3520 C3530 1.465 . S
C3521 C3520 1.264 . S
C3521 C3523 1.339 . S
C3521 H3548 0.931 . S
C3522 C3523 1.395 . S
C3522 C3524 1.320 . S
C3523 C3521 1.339 . S
C3523 C3522 1.395 . S
C3523 H3549 0.929 . S
C3524 C3522 1.320 . S
C3524 C3525 1.405 . S
C3524 H3550 0.930 . S
C3525 C3520 1.479 . S
C3525 C3524 1.405 . S
C3525 H3551 0.931 . S
U3526 O3527 2.454 . S
U3526 O3528 2.458 . S
U3526 C3529 2.984 . S
U3526 C3530 2.847 . S
U3526 C3543 2.882 . S
U3526 O3544 2.441 . S
U3526 O3545 2.420 . S
U3526 O3546 2.455 . S
U3526 O3547 2.449 . S
O3527 U3526 2.454 . S
O3527 C3529 1.353 . S
O3528 U3526 2.458 . S
O3528 C3529 1.286 . S
C3529 U3526 2.984 . S
C3529 O3527 1.353 . S
C3529 O3528 1.286 . S
C3529 C3531 1.363 . S
C3530 C3520 1.465 . S
C3530 U3526 2.847 . S
C3530 O3544 1.249 . S
C3530 O3545 1.202 . S
C3531 C3529 1.363 . S
C3531 C3533 1.408 . S
C3531 C3536 1.342 . S
C3532 C3533 1.310 . S
C3532 C3535 1.461 . S
C3532 H3552 0.932 . S
C3533 C3531 1.408 . S
C3533 C3532 1.310 . S
C3533 H3553 0.930 . S
C3534 C3535 1.474 . S
C3534 C3536 1.285 . S
C3534 H3554 0.929 . S
C3535 C3532 1.461 . S
C3535 C3534 1.474 . S
C3536 C3531 1.342 . S
C3536 C3534 1.285 . S
C3536 H3555 0.930 . S
C3537 C3540 1.424 . S
C3537 C3542 1.245 . S
C3537 C3543 1.428 . S
C3538 C3541 1.260 . S
C3538 C3542 1.477 . S
C3538 H3556 0.932 . S
C3539 C3540 1.384 . S
C3539 C3541 1.479 . S
C3539 H3557 0.929 . S
C3540 C3537 1.424 . S
C3540 C3539 1.384 . S
C3540 H3558 0.928 . S
C3541 C3538 1.260 . S
C3541 C3539 1.479 . S
C3542 C3537 1.245 . S
C3542 C3538 1.477 . S
C3542 H3559 0.932 . S
C3543 U3526 2.882 . S
C3543 C3537 1.428 . S
C3543 O3546 1.301 . S
C3543 O3547 1.282 . S
O3544 U3526 2.441 . S
O3544 C3530 1.249 . S
O3545 U3526 2.420 . S
O3545 C3530 1.202 . S
O3546 U3526 2.455 . S
O3546 C3543 1.301 . S
O3547 U3526 2.449 . S
O3547 C3543 1.282 . S
H3548 C3521 0.931 . S
H3549 C3523 0.929 . S
H3550 C3524 0.930 . S
H3551 C3525 0.931 . S
H3552 C3532 0.932 . S
H3553 C3533 0.930 . S
H3554 C3534 0.929 . S
H3555 C3536 0.930 . S
H3556 C3538 0.932 . S
H3557 C3539 0.929 . S
H3558 C3540 0.928 . S
H3559 C3542 0.932 . S
C3560 C3561 1.264 . S
C3560 C3565 1.479 . S
C3560 C3570 1.465 . S
C3561 C3560 1.264 . S
C3561 C3563 1.339 . S
C3561 H3588 0.931 . S
C3562 C3563 1.395 . S
C3562 C3564 1.320 . S
C3563 C3561 1.339 . S
C3563 C3562 1.395 . S
C3563 H3589 0.929 . S
C3564 C3562 1.320 . S
C3564 C3565 1.405 . S
C3564 H3590 0.930 . S
C3565 C3560 1.479 . S
C3565 C3564 1.405 . S
C3565 H3591 0.931 . S
U3566 O3567 2.454 . S
U3566 O3568 2.458 . S
U3566 C3569 2.984 . S
U3566 C3570 2.847 . S
U3566 C3583 2.882 . S
U3566 O3584 2.441 . S
U3566 O3585 2.420 . S
U3566 O3586 2.455 . S
U3566 O3587 2.449 . S
O3567 U3566 2.454 . S
O3567 C3569 1.353 . S
O3568 U3566 2.458 . S
O3568 C3569 1.286 . S
C3569 U3566 2.984 . S
C3569 O3567 1.353 . S
C3569 O3568 1.286 . S
C3569 C3571 1.363 . S
C3570 C3560 1.465 . S
C3570 U3566 2.847 . S
C3570 O3584 1.249 . S
C3570 O3585 1.202 . S
C3571 C3569 1.363 . S
C3571 C3573 1.408 . S
C3571 C3576 1.342 . S
C3572 C3573 1.310 . S
C3572 C3575 1.461 . S
C3572 H3592 0.932 . S
C3573 C3571 1.408 . S
C3573 C3572 1.310 . S
C3573 H3593 0.930 . S
C3574 C3575 1.474 . S
C3574 C3576 1.285 . S
C3574 H3594 0.929 . S
C3575 C3572 1.461 . S
C3575 C3574 1.474 . S
C3576 C3571 1.342 . S
C3576 C3574 1.285 . S
C3576 H3595 0.930 . S
C3577 C3580 1.424 . S
C3577 C3582 1.245 . S
C3577 C3583 1.428 . S
C3578 C3581 1.260 . S
C3578 C3582 1.477 . S
C3578 H3596 0.932 . S
C3579 C3580 1.384 . S
C3579 C3581 1.479 . S
C3579 H3597 0.929 . S
C3580 C3577 1.424 . S
C3580 C3579 1.384 . S
C3580 H3598 0.928 . S
C3581 C3578 1.260 . S
C3581 C3579 1.479 . S
C3582 C3577 1.245 . S
C3582 C3578 1.477 . S
C3582 H3599 0.932 . S
C3583 U3566 2.882 . S
C3583 C3577 1.428 . S
C3583 O3586 1.301 . S
C3583 O3587 1.282 . S
O3584 U3566 2.441 . S
O3584 C3570 1.249 . S
O3585 U3566 2.420 . S
O3585 C3570 1.202 . S
O3586 U3566 2.455 . S
O3586 C3583 1.301 . S
O3587 U3566 2.449 . S
O3587 C3583 1.282 . S
H3588 C3561 0.931 . S
H3589 C3563 0.929 . S
H3590 C3564 0.930 . S
H3591 C3565 0.931 . S
H3592 C3572 0.932 . S
H3593 C3573 0.930 . S
H3594 C3574 0.929 . S
H3595 C3576 0.930 . S
H3596 C3578 0.932 . S
H3597 C3579 0.929 . S
H3598 C3580 0.928 . S
H3599 C3582 0.932 . S
C3600 C3601 1.264 . S
C3600 C3605 1.479 . S
C3600 C3610 1.465 . S
C3601 C3600 1.264 . S
C3601 C3603 1.339 . S
C3601 H3628 0.931 . S
C3602 C3603 1.395 . S
C3602 C3604 1.320 . S
C3603 C3601 1.339 . S
C3603 C3602 1.395 . S
C3603 H3629 0.929 . S
C3604 C3602 1.320 . S
C3604 C3605 1.405 . S
C3604 H3630 0.930 . S
C3605 C3600 1.479 . S
C3605 C3604 1.405 . S
C3605 H3631 0.931 . S
U3606 O3607 2.454 . S
U3606 O3608 2.458 . S
U3606 C3609 2.984 . S
U3606 C3610 2.847 . S
U3606 C3623 2.882 . S
U3606 O3624 2.441 . S
U3606 O3625 2.420 . S
U3606 O3626 2.455 . S
U3606 O3627 2.449 . S
O3607 U3606 2.454 . S
O3607 C3609 1.353 . S
O3608 U3606 2.458 . S
O3608 C3609 1.286 . S
C3609 U3606 2.984 . S
C3609 O3607 1.353 . S
C3609 O3608 1.286 . S
C3609 C3611 1.363 . S
C3610 C3600 1.465 . S
C3610 U3606 2.847 . S
C3610 O3624 1.249 . S
C3610 O3625 1.202 . S
C3611 C3609 1.363 . S
C3611 C3613 1.408 . S
C3611 C3616 1.342 . S
C3612 C3613 1.310 . S
C3612 C3615 1.461 . S
C3612 H3632 0.932 . S
C3613 C3611 1.408 . S
C3613 C3612 1.310 . S
C3613 H3633 0.930 . S
C3614 C3615 1.474 . S
C3614 C3616 1.285 . S
C3614 H3634 0.929 . S
C3615 C3612 1.461 . S
C3615 C3614 1.474 . S
C3616 C3611 1.342 . S
C3616 C3614 1.285 . S
C3616 H3635 0.930 . S
C3617 C3620 1.424 . S
C3617 C3622 1.245 . S
C3617 C3623 1.428 . S
C3618 C3621 1.260 . S
C3618 C3622 1.477 . S
C3618 H3636 0.932 . S
C3619 C3620 1.384 . S
C3619 C3621 1.479 . S
C3619 H3637 0.929 . S
C3620 C3617 1.424 . S
C3620 C3619 1.384 . S
C3620 H3638 0.928 . S
C3621 C3618 1.260 . S
C3621 C3619 1.479 . S
C3622 C3617 1.245 . S
C3622 C3618 1.477 . S
C3622 H3639 0.932 . S
C3623 U3606 2.882 . S
C3623 C3617 1.428 . S
C3623 O3626 1.301 . S
C3623 O3627 1.282 . S
O3624 U3606 2.441 . S
O3624 C3610 1.249 . S
O3625 U3606 2.420 . S
O3625 C3610 1.202 . S
O3626 U3606 2.455 . S
O3626 C3623 1.301 . S
O3627 U3606 2.449 . S
O3627 C3623 1.282 . S
H3628 C3601 0.931 . S
H3629 C3603 0.929 . S
H3630 C3604 0.930 . S
H3631 C3605 0.931 . S
H3632 C3612 0.932 . S
H3633 C3613 0.930 . S
H3634 C3614 0.929 . S
H3635 C3616 0.930 . S
H3636 C3618 0.932 . S
H3637 C3619 0.929 . S
H3638 C3620 0.928 . S
H3639 C3622 0.932 . S
C3640 C3641 1.264 . S
C3640 C3645 1.479 . S
C3640 C3650 1.465 . S
C3641 C3640 1.264 . S
C3641 C3643 1.339 . S
C3641 H3668 0.931 . S
C3642 C3643 1.395 . S
C3642 C3644 1.320 . S
C3643 C3641 1.339 . S
C3643 C3642 1.395 . S
C3643 H3669 0.929 . S
C3644 C3642 1.320 . S
C3644 C3645 1.405 . S
C3644 H3670 0.930 . S
C3645 C3640 1.479 . S
C3645 C3644 1.405 . S
C3645 H3671 0.931 . S
U3646 O3647 2.454 . S
U3646 O3648 2.458 . S
U3646 C3649 2.984 . S
U3646 C3650 2.847 . S
U3646 C3663 2.882 . S
U3646 O3664 2.441 . S
U3646 O3665 2.420 . S
U3646 O3666 2.455 . S
U3646 O3667 2.449 . S
O3647 U3646 2.454 . S
O3647 C3649 1.353 . S
O3648 U3646 2.458 . S
O3648 C3649 1.286 . S
C3649 U3646 2.984 . S
C3649 O3647 1.353 . S
C3649 O3648 1.286 . S
C3649 C3651 1.363 . S
C3650 C3640 1.465 . S
C3650 U3646 2.847 . S
C3650 O3664 1.249 . S
C3650 O3665 1.202 . S
C3651 C3649 1.363 . S
C3651 C3653 1.408 . S
C3651 C3656 1.342 . S
C3652 C3653 1.310 . S
C3652 C3655 1.461 . S
C3652 H3672 0.932 . S
C3653 C3651 1.408 . S
C3653 C3652 1.310 . S
C3653 H3673 0.930 . S
C3654 C3655 1.474 . S
C3654 C3656 1.285 . S
C3654 H3674 0.929 . S
C3655 C3652 1.461 . S
C3655 C3654 1.474 . S
C3656 C3651 1.342 . S
C3656 C3654 1.285 . S
C3656 H3675 0.930 . S
C3657 C3660 1.424 . S
C3657 C3662 1.245 . S
C3657 C3663 1.428 . S
C3658 C3661 1.260 . S
C3658 C3662 1.477 . S
C3658 H3676 0.932 . S
C3659 C3660 1.384 . S
C3659 C3661 1.479 . S
C3659 H3677 0.929 . S
C3660 C3657 1.424 . S
C3660 C3659 1.384 . S
C3660 H3678 0.928 . S
C3661 C3658 1.260 . S
C3661 C3659 1.479 . S
C3662 C3657 1.245 . S
C3662 C3658 1.477 . S
C3662 H3679 0.932 . S
C3663 U3646 2.882 . S
C3663 C3657 1.428 . S
C3663 O3666 1.301 . S
C3663 O3667 1.282 . S
O3664 U3646 2.441 . S
O3664 C3650 1.249 . S
O3665 U3646 2.420 . S
O3665 C3650 1.202 . S
O3666 U3646 2.455 . S
O3666 C3663 1.301 . S
O3667 U3646 2.449 . S
O3667 C3663 1.282 . S
H3668 C3641 0.931 . S
H3669 C3643 0.929 . S
H3670 C3644 0.930 . S
H3671 C3645 0.931 . S
H3672 C3652 0.932 . S
H3673 C3653 0.930 . S
H3674 C3654 0.929 . S
H3675 C3656 0.930 . S
H3676 C3658 0.932 . S
H3677 C3659 0.929 . S
H3678 C3660 0.928 . S
H3679 C3662 0.932 . S
C3680 C3681 1.264 . S
C3680 C3685 1.479 . S
C3680 C3690 1.465 . S
C3681 C3680 1.264 . S
C3681 C3683 1.339 . S
C3681 H3708 0.931 . S
C3682 C3683 1.395 . S
C3682 C3684 1.320 . S
C3683 C3681 1.339 . S
C3683 C3682 1.395 . S
C3683 H3709 0.929 . S
C3684 C3682 1.320 . S
C3684 C3685 1.405 . S
C3684 H3710 0.930 . S
C3685 C3680 1.479 . S
C3685 C3684 1.405 . S
C3685 H3711 0.931 . S
U3686 O3687 2.454 . S
U3686 O3688 2.458 . S
U3686 C3689 2.984 . S
U3686 C3690 2.847 . S
U3686 C3703 2.882 . S
U3686 O3704 2.441 . S
U3686 O3705 2.420 . S
U3686 O3706 2.455 . S
U3686 O3707 2.449 . S
O3687 U3686 2.454 . S
O3687 C3689 1.353 . S
O3688 U3686 2.458 . S
O3688 C3689 1.286 . S
C3689 U3686 2.984 . S
C3689 O3687 1.353 . S
C3689 O3688 1.286 . S
C3689 C3691 1.363 . S
C3690 C3680 1.465 . S
C3690 U3686 2.847 . S
C3690 O3704 1.249 . S
C3690 O3705 1.202 . S
C3691 C3689 1.363 . S
C3691 C3693 1.408 . S
C3691 C3696 1.342 . S
C3692 C3693 1.310 . S
C3692 C3695 1.461 . S
C3692 H3712 0.932 . S
C3693 C3691 1.408 . S
C3693 C3692 1.310 . S
C3693 H3713 0.930 . S
C3694 C3695 1.474 . S
C3694 C3696 1.285 . S
C3694 H3714 0.929 . S
C3695 C3692 1.461 . S
C3695 C3694 1.474 . S
C3696 C3691 1.342 . S
C3696 C3694 1.285 . S
C3696 H3715 0.930 . S
C3697 C3700 1.424 . S
C3697 C3702 1.245 . S
C3697 C3703 1.428 . S
C3698 C3701 1.260 . S
C3698 C3702 1.477 . S
C3698 H3716 0.932 . S
C3699 C3700 1.384 . S
C3699 C3701 1.479 . S
C3699 H3717 0.929 . S
C3700 C3697 1.424 . S
C3700 C3699 1.384 . S
C3700 H3718 0.928 . S
C3701 C3698 1.260 . S
C3701 C3699 1.479 . S
C3702 C3697 1.245 . S
C3702 C3698 1.477 . S
C3702 H3719 0.932 . S
C3703 U3686 2.882 . S
C3703 C3697 1.428 . S
C3703 O3706 1.301 . S
C3703 O3707 1.282 . S
O3704 U3686 2.441 . S
O3704 C3690 1.249 . S
O3705 U3686 2.420 . S
O3705 C3690 1.202 . S
O3706 U3686 2.455 . S
O3706 C3703 1.301 . S
O3707 U3686 2.449 . S
O3707 C3703 1.282 . S
H3708 C3681 0.931 . S
H3709 C3683 0.929 . S
H3710 C3684 0.930 . S
H3711 C3685 0.931 . S
H3712 C3692 0.932 . S
H3713 C3693 0.930 . S
H3714 C3694 0.929 . S
H3715 C3696 0.930 . S
H3716 C3698 0.932 . S
H3717 C3699 0.929 . S
H3718 C3700 0.928 . S
H3719 C3702 0.932 . S
C3720 C3721 1.264 . S
C3720 C3725 1.479 . S
C3720 C3730 1.465 . S
C3721 C3720 1.264 . S
C3721 C3723 1.339 . S
C3721 H3748 0.931 . S
C3722 C3723 1.395 . S
C3722 C3724 1.320 . S
C3723 C3721 1.339 . S
C3723 C3722 1.395 . S
C3723 H3749 0.929 . S
C3724 C3722 1.320 . S
C3724 C3725 1.405 . S
C3724 H3750 0.930 . S
C3725 C3720 1.479 . S
C3725 C3724 1.405 . S
C3725 H3751 0.931 . S
U3726 O3727 2.454 . S
U3726 O3728 2.458 . S
U3726 C3729 2.984 . S
U3726 C3730 2.847 . S
U3726 C3743 2.882 . S
U3726 O3744 2.441 . S
U3726 O3745 2.420 . S
U3726 O3746 2.455 . S
U3726 O3747 2.449 . S
O3727 U3726 2.454 . S
O3727 C3729 1.353 . S
O3728 U3726 2.458 . S
O3728 C3729 1.286 . S
C3729 U3726 2.984 . S
C3729 O3727 1.353 . S
C3729 O3728 1.286 . S
C3729 C3731 1.363 . S
C3730 C3720 1.465 . S
C3730 U3726 2.847 . S
C3730 O3744 1.249 . S
C3730 O3745 1.202 . S
C3731 C3729 1.363 . S
C3731 C3733 1.408 . S
C3731 C3736 1.342 . S
C3732 C3733 1.310 . S
C3732 C3735 1.461 . S
C3732 H3752 0.932 . S
C3733 C3731 1.408 . S
C3733 C3732 1.310 . S
C3733 H3753 0.930 . S
C3734 C3735 1.474 . S
C3734 C3736 1.285 . S
C3734 H3754 0.929 . S
C3735 C3732 1.461 . S
C3735 C3734 1.474 . S
C3736 C3731 1.342 . S
C3736 C3734 1.285 . S
C3736 H3755 0.930 . S
C3737 C3740 1.424 . S
C3737 C3742 1.245 . S
C3737 C3743 1.428 . S
C3738 C3741 1.260 . S
C3738 C3742 1.477 . S
C3738 H3756 0.932 . S
C3739 C3740 1.384 . S
C3739 C3741 1.479 . S
C3739 H3757 0.929 . S
C3740 C3737 1.424 . S
C3740 C3739 1.384 . S
C3740 H3758 0.928 . S
C3741 C3738 1.260 . S
C3741 C3739 1.479 . S
C3742 C3737 1.245 . S
C3742 C3738 1.477 . S
C3742 H3759 0.932 . S
C3743 U3726 2.882 . S
C3743 C3737 1.428 . S
C3743 O3746 1.301 . S
C3743 O3747 1.282 . S
O3744 U3726 2.441 . S
O3744 C3730 1.249 . S
O3745 U3726 2.420 . S
O3745 C3730 1.202 . S
O3746 U3726 2.455 . S
O3746 C3743 1.301 . S
O3747 U3726 2.449 . S
O3747 C3743 1.282 . S
H3748 C3721 0.931 . S
H3749 C3723 0.929 . S
H3750 C3724 0.930 . S
H3751 C3725 0.931 . S
H3752 C3732 0.932 . S
H3753 C3733 0.930 . S
H3754 C3734 0.929 . S
H3755 C3736 0.930 . S
H3756 C3738 0.932 . S
H3757 C3739 0.929 . S
H3758 C3740 0.928 . S
H3759 C3742 0.932 . S
C3760 C3761 1.264 . S
C3760 C3765 1.479 . S
C3760 C3770 1.465 . S
C3761 C3760 1.264 . S
C3761 C3763 1.339 . S
C3761 H3788 0.931 . S
C3762 C3763 1.395 . S
C3762 C3764 1.320 . S
C3763 C3761 1.339 . S
C3763 C3762 1.395 . S
C3763 H3789 0.929 . S
C3764 C3762 1.320 . S
C3764 C3765 1.405 . S
C3764 H3790 0.930 . S
C3765 C3760 1.479 . S
C3765 C3764 1.405 . S
C3765 H3791 0.931 . S
U3766 O3767 2.454 . S
U3766 O3768 2.458 . S
U3766 C3769 2.984 . S
U3766 C3770 2.847 . S
U3766 C3783 2.882 . S
U3766 O3784 2.441 . S
U3766 O3785 2.420 . S
U3766 O3786 2.455 . S
U3766 O3787 2.449 . S
O3767 U3766 2.454 . S
O3767 C3769 1.353 . S
O3768 U3766 2.458 . S
O3768 C3769 1.286 . S
C3769 U3766 2.984 . S
C3769 O3767 1.353 . S
C3769 O3768 1.286 . S
C3769 C3771 1.363 . S
C3770 C3760 1.465 . S
C3770 U3766 2.847 . S
C3770 O3784 1.249 . S
C3770 O3785 1.202 . S
C3771 C3769 1.363 . S
C3771 C3773 1.408 . S
C3771 C3776 1.342 . S
C3772 C3773 1.310 . S
C3772 C3775 1.461 . S
C3772 H3792 0.932 . S
C3773 C3771 1.408 . S
C3773 C3772 1.310 . S
C3773 H3793 0.930 . S
C3774 C3775 1.474 . S
C3774 C3776 1.285 . S
C3774 H3794 0.929 . S
C3775 C3772 1.461 . S
C3775 C3774 1.474 . S
C3776 C3771 1.342 . S
C3776 C3774 1.285 . S
C3776 H3795 0.930 . S
C3777 C3780 1.424 . S
C3777 C3782 1.245 . S
C3777 C3783 1.428 . S
C3778 C3781 1.260 . S
C3778 C3782 1.477 . S
C3778 H3796 0.932 . S
C3779 C3780 1.384 . S
C3779 C3781 1.479 . S
C3779 H3797 0.929 . S
C3780 C3777 1.424 . S
C3780 C3779 1.384 . S
C3780 H3798 0.928 . S
C3781 C3778 1.260 . S
C3781 C3779 1.479 . S
C3782 C3777 1.245 . S
C3782 C3778 1.477 . S
C3782 H3799 0.932 . S
C3783 U3766 2.882 . S
C3783 C3777 1.428 . S
C3783 O3786 1.301 . S
C3783 O3787 1.282 . S
O3784 U3766 2.441 . S
O3784 C3770 1.249 . S
O3785 U3766 2.420 . S
O3785 C3770 1.202 . S
O3786 U3766 2.455 . S
O3786 C3783 1.301 . S
O3787 U3766 2.449 . S
O3787 C3783 1.282 . S
H3788 C3761 0.931 . S
H3789 C3763 0.929 . S
H3790 C3764 0.930 . S
H3791 C3765 0.931 . S
H3792 C3772 0.932 . S
H3793 C3773 0.930 . S
H3794 C3774 0.929 . S
H3795 C3776 0.930 . S
H3796 C3778 0.932 . S
H3797 C3779 0.929 . S
H3798 C3780 0.928 . S
H3799 C3782 0.932 . S
C3800 C3801 1.264 . S
C3800 C3805 1.479 . S
C3800 C3810 1.465 . S
C3801 C3800 1.264 . S
C3801 C3803 1.339 . S
C3801 H3828 0.931 . S
C3802 C3803 1.395 . S
C3802 C3804 1.320 . S
C3803 C3801 1.339 . S
C3803 C3802 1.395 . S
C3803 H3829 0.929 . S
C3804 C3802 1.320 . S
C3804 C3805 1.405 . S
C3804 H3830 0.930 . S
C3805 C3800 1.479 . S
C3805 C3804 1.405 . S
C3805 H3831 0.931 . S
U3806 O3807 2.454 . S
U3806 O3808 2.458 . S
U3806 C3809 2.984 . S
U3806 C3810 2.847 . S
U3806 C3823 2.882 . S
U3806 O3824 2.441 . S
U3806 O3825 2.420 . S
U3806 O3826 2.455 . S
U3806 O3827 2.449 . S
O3807 U3806 2.454 . S
O3807 C3809 1.353 . S
O3808 U3806 2.458 . S
O3808 C3809 1.286 . S
C3809 U3806 2.984 . S
C3809 O3807 1.353 . S
C3809 O3808 1.286 . S
C3809 C3811 1.363 . S
C3810 C3800 1.465 . S
C3810 U3806 2.847 . S
C3810 O3824 1.249 . S
C3810 O3825 1.202 . S
C3811 C3809 1.363 . S
C3811 C3813 1.408 . S
C3811 C3816 1.342 . S
C3812 C3813 1.310 . S
C3812 C3815 1.461 . S
C3812 H3832 0.932 . S
C3813 C3811 1.408 . S
C3813 C3812 1.310 . S
C3813 H3833 0.930 . S
C3814 C3815 1.474 . S
C3814 C3816 1.285 . S
C3814 H3834 0.929 . S
C3815 C3812 1.461 . S
C3815 C3814 1.474 . S
C3816 C3811 1.342 . S
C3816 C3814 1.285 . S
C3816 H3835 0.930 . S
C3817 C3820 1.424 . S
C3817 C3822 1.245 . S
C3817 C3823 1.428 . S
C3818 C3821 1.260 . S
C3818 C3822 1.477 . S
C3818 H3836 0.932 . S
C3819 C3820 1.384 . S
C3819 C3821 1.479 . S
C3819 H3837 0.929 . S
C3820 C3817 1.424 . S
C3820 C3819 1.384 . S
C3820 H3838 0.928 . S
C3821 C3818 1.260 . S
C3821 C3819 1.479 . S
C3822 C3817 1.245 . S
C3822 C3818 1.477 . S
C3822 H3839 0.932 . S
C3823 U3806 2.882 . S
C3823 C3817 1.428 . S
C3823 O3826 1.301 . S
C3823 O3827 1.282 . S
O3824 U3806 2.441 . S
O3824 C3810 1.249 . S
O3825 U3806 2.420 . S
O3825 C3810 1.202 . S
O3826 U3806 2.455 . S
O3826 C3823 1.301 . S
O3827 U3806 2.449 . S
O3827 C3823 1.282 . S
H3828 C3801 0.931 . S
H3829 C3803 0.929 . S
H3830 C3804 0.930 . S
H3831 C3805 0.931 . S
H3832 C3812 0.932 . S
H3833 C3813 0.930 . S
H3834 C3814 0.929 . S
H3835 C3816 0.930 . S
H3836 C3818 0.932 . S
H3837 C3819 0.929 . S
H3838 C3820 0.928 . S
H3839 C3822 0.932 . S
O3840 Cd3841 2.300 . S
O3840 C3847 1.275 . S
Cd3841 O3840 2.300 . S
Cd3841 O3849 2.381 . S
Cd3841 O3850 2.378 . S
O3842 Cd3843 2.385 . S
O3842 C3847 1.255 . S
Cd3843 O3842 2.385 . S
Cd3843 O3844 2.317 . S
O3844 Cd3843 2.317 . S
O3844 C3845 1.232 . S
C3845 O3844 1.232 . S
C3845 O3846 1.218 . S
O3846 C3845 1.218 . S
C3847 O3840 1.275 . S
C3847 O3842 1.255 . S
C3848 O3849 1.258 . S
C3848 O3850 1.256 . S
O3849 Cd3841 2.381 . S
O3849 C3848 1.258 . S
O3850 Cd3841 2.378 . S
O3850 C3848 1.256 . S
O3851 Cd3852 2.300 . S
O3851 C3858 1.275 . S
Cd3852 O3851 2.300 . S
Cd3852 O3860 2.381 . S
Cd3852 O3861 2.378 . S
O3853 Cd3854 2.385 . S
O3853 C3858 1.255 . S
Cd3854 O3853 2.385 . S
Cd3854 O3855 2.317 . S
O3855 Cd3854 2.317 . S
O3855 C3856 1.232 . S
C3856 O3855 1.232 . S
C3856 O3857 1.218 . S
O3857 C3856 1.218 . S
C3858 O3851 1.275 . S
C3858 O3853 1.255 . S
C3859 O3860 1.258 . S
C3859 O3861 1.256 . S
O3860 Cd3852 2.381 . S
O3860 C3859 1.258 . S
O3861 Cd3852 2.378 . S
O3861 C3859 1.256 . S
O3862 Cd3863 2.300 . S
O3862 C3869 1.275 . S
Cd3863 O3862 2.300 . S
Cd3863 O3871 2.381 . S
Cd3863 O3872 2.378 . S
O3864 Cd3865 2.385 . S
O3864 C3869 1.255 . S
Cd3865 O3864 2.385 . S
Cd3865 O3866 2.317 . S
O3866 Cd3865 2.317 . S
O3866 C3867 1.232 . S
C3867 O3866 1.232 . S
C3867 O3868 1.218 . S
O3868 C3867 1.218 . S
C3869 O3862 1.275 . S
C3869 O3864 1.255 . S
C3870 O3871 1.258 . S
C3870 O3872 1.256 . S
O3871 Cd3863 2.381 . S
O3871 C3870 1.258 . S
O3872 Cd3863 2.378 . S
O3872 C3870 1.256 . S
O3873 Cd3874 2.300 . S
O3873 C3880 1.275 . S
Cd3874 O3873 2.300 . S
Cd3874 O3882 2.381 . S
Cd3874 O3883 2.378 . S
O3875 Cd3876 2.385 . S
O3875 C3880 1.255 . S
Cd3876 O3875 2.385 . S
Cd3876 O3877 2.317 . S
O3877 Cd3876 2.317 . S
O3877 C3878 1.232 . S
C3878 O3877 1.232 . S
C3878 O3879 1.218 . S
O3879 C3878 1.218 . S
C3880 O3873 1.275 . S
C3880 O3875 1.255 . S
C3881 O3882 1.258 . S
C3881 O3883 1.256 . S
O3882 Cd3874 2.381 . S
O3882 C3881 1.258 . S
O3883 Cd3874 2.378 . S
O3883 C3881 1.256 . S
O3884 Cd3885 2.300 . S
O3884 C3891 1.275 . S
Cd3885 O3884 2.300 . S
Cd3885 O3893 2.381 . S
Cd3885 O3894 2.378 . S
O3886 Cd3887 2.385 . S
O3886 C3891 1.255 . S
Cd3887 O3886 2.385 . S
Cd3887 O3888 2.317 . S
O3888 Cd3887 2.317 . S
O3888 C3889 1.232 . S
C3889 O3888 1.232 . S
C3889 O3890 1.218 . S
O3890 C3889 1.218 . S
C3891 O3884 1.275 . S
C3891 O3886 1.255 . S
C3892 O3893 1.258 . S
C3892 O3894 1.256 . S
O3893 Cd3885 2.381 . S
O3893 C3892 1.258 . S
O3894 Cd3885 2.378 . S
O3894 C3892 1.256 . S
O3895 Cd3896 2.300 . S
O3895 C3902 1.275 . S
Cd3896 O3895 2.300 . S
Cd3896 O3904 2.381 . S
Cd3896 O3905 2.378 . S
O3897 Cd3898 2.385 . S
O3897 C3902 1.255 . S
Cd3898 O3897 2.385 . S
Cd3898 O3899 2.317 . S
O3899 Cd3898 2.317 . S
O3899 C3900 1.232 . S
C3900 O3899 1.232 . S
C3900 O3901 1.218 . S
O3901 C3900 1.218 . S
C3902 O3895 1.275 . S
C3902 O3897 1.255 . S
C3903 O3904 1.258 . S
C3903 O3905 1.256 . S
O3904 Cd3896 2.381 . S
O3904 C3903 1.258 . S
O3905 Cd3896 2.378 . S
O3905 C3903 1.256 . S
O3906 Cd3907 2.300 . S
O3906 C3913 1.275 . S
Cd3907 O3906 2.300 . S
Cd3907 O3915 2.381 . S
Cd3907 O3916 2.378 . S
O3908 Cd3909 2.385 . S
O3908 C3913 1.255 . S
Cd3909 O3908 2.385 . S
Cd3909 O3910 2.317 . S
O3910 Cd3909 2.317 . S
O3910 C3911 1.232 . S
C3911 O3910 1.232 . S
C3911 O3912 1.218 . S
O3912 C3911 1.218 . S
C3913 O3906 1.275 . S
C3913 O3908 1.255 . S
C3914 O3915 1.258 . S
C3914 O3916 1.256 . S
O3915 Cd3907 2.381 . S
O3915 C3914 1.258 . S
O3916 Cd3907 2.378 . S
O3916 C3914 1.256 . S
O3917 Cd3918 2.300 . S
O3917 C3924 1.275 . S
Cd3918 O3917 2.300 . S
Cd3918 O3926 2.381 . S
Cd3918 O3927 2.378 . S
O3919 Cd3920 2.385 . S
O3919 C3924 1.255 . S
Cd3920 O3919 2.385 . S
Cd3920 O3921 2.317 . S
O3921 Cd3920 2.317 . S
O3921 C3922 1.232 . S
C3922 O3921 1.232 . S
C3922 O3923 1.218 . S
O3923 C3922 1.218 . S
C3924 O3917 1.275 . S
C3924 O3919 1.255 . S
C3925 O3926 1.258 . S
C3925 O3927 1.256 . S
O3926 Cd3918 2.381 . S
O3926 C3925 1.258 . S
O3927 Cd3918 2.378 . S
O3927 C3925 1.256 . S
O3928 Cd3929 2.300 . S
O3928 C3935 1.275 . S
Cd3929 O3928 2.300 . S
Cd3929 O3937 2.381 . S
Cd3929 O3938 2.378 . S
O3930 Cd3931 2.385 . S
O3930 C3935 1.255 . S
Cd3931 O3930 2.385 . S
Cd3931 O3932 2.317 . S
O3932 Cd3931 2.317 . S
O3932 C3933 1.232 . S
C3933 O3932 1.232 . S
C3933 O3934 1.218 . S
O3934 C3933 1.218 . S
C3935 O3928 1.275 . S
C3935 O3930 1.255 . S
C3936 O3937 1.258 . S
C3936 O3938 1.256 . S
O3937 Cd3929 2.381 . S
O3937 C3936 1.258 . S
O3938 Cd3929 2.378 . S
O3938 C3936 1.256 . S
O3939 Cd3940 2.300 . S
O3939 C3946 1.275 . S
Cd3940 O3939 2.300 . S
Cd3940 O3948 2.381 . S
Cd3940 O3949 2.378 . S
O3941 Cd3942 2.385 . S
O3941 C3946 1.255 . S
Cd3942 O3941 2.385 . S
Cd3942 O3943 2.317 . S
O3943 Cd3942 2.317 . S
O3943 C3944 1.232 . S
C3944 O3943 1.232 . S
C3944 O3945 1.218 . S
O3945 C3944 1.218 . S
C3946 O3939 1.275 . S
C3946 O3941 1.255 . S
C3947 O3948 1.258 . S
C3947 O3949 1.256 . S
O3948 Cd3940 2.381 . S
O3948 C3947 1.258 . S
O3949 Cd3940 2.378 . S
O3949 C3947 1.256 . S
O3950 Cd3951 2.300 . S
O3950 C3957 1.275 . S
Cd3951 O3950 2.300 . S
Cd3951 O3959 2.381 . S
Cd3951 O3960 2.378 . S
O3952 Cd3953 2.385 . S
O3952 C3957 1.255 . S
Cd3953 O3952 2.385 . S
Cd3953 O3954 2.317 . S
O3954 Cd3953 2.317 . S
O3954 C3955 1.232 . S
C3955 O3954 1.232 . S
C3955 O3956 1.218 . S
O3956 C3955 1.218 . S
C3957 O3950 1.275 . S
C3957 O3952 1.255 . S
C3958 O3959 1.258 . S
C3958 O3960 1.256 . S
O3959 Cd3951 2.381 . S
O3959 C3958 1.258 . S
O3960 Cd3951 2.378 . S
O3960 C3958 1.256 . S
O3961 Cd3962 2.300 . S
O3961 C3968 1.275 . S
Cd3962 O3961 2.300 . S
Cd3962 O3970 2.381 . S
Cd3962 O3971 2.378 . S
O3963 Cd3964 2.385 . S
O3963 C3968 1.255 . S
Cd3964 O3963 2.385 . S
Cd3964 O3965 2.317 . S
O3965 Cd3964 2.317 . S
O3965 C3966 1.232 . S
C3966 O3965 1.232 . S
C3966 O3967 1.218 . S
O3967 C3966 1.218 . S
C3968 O3961 1.275 . S
C3968 O3963 1.255 . S
C3969 O3970 1.258 . S
C3969 O3971 1.256 . S
O3970 Cd3962 2.381 . S
O3970 C3969 1.258 . S
O3971 Cd3962 2.378 . S
O3971 C3969 1.256 . S
O3972 Cd3973 2.300 . S
O3972 C3979 1.275 . S
Cd3973 O3972 2.300 . S
Cd3973 O3981 2.381 . S
Cd3973 O3982 2.378 . S
O3974 Cd3975 2.385 . S
O3974 C3979 1.255 . S
Cd3975 O3974 2.385 . S
Cd3975 O3976 2.317 . S
O3976 Cd3975 2.317 . S
O3976 C3977 1.232 . S
C3977 O3976 1.232 . S
C3977 O3978 1.218 . S
O3978 C3977 1.218 . S
C3979 O3972 1.275 . S
C3979 O3974 1.255 . S
C3980 O3981 1.258 . S
C3980 O3982 1.256 . S
O3981 Cd3973 2.381 . S
O3981 C3980 1.258 . S
O3982 Cd3973 2.378 . S
O3982 C3980 1.256 . S
O3983 Cd3984 2.300 . S
O3983 C3990 1.275 . S
Cd3984 O3983 2.300 . S
Cd3984 O3992 2.381 . S
Cd3984 O3993 2.378 . S
O3985 Cd3986 2.385 . S
O3985 C3990 1.255 . S
Cd3986 O3985 2.385 . S
Cd3986 O3987 2.317 . S
O3987 Cd3986 2.317 . S
O3987 C3988 1.232 . S
C3988 O3987 1.232 . S
C3988 O3989 1.218 . S
O3989 C3988 1.218 . S
C3990 O3983 1.275 . S
C3990 O3985 1.255 . S
C3991 O3992 1.258 . S
C3991 O3993 1.256 . S
O3992 Cd3984 2.381 . S
O3992 C3991 1.258 . S
O3993 Cd3984 2.378 . S
O3993 C3991 1.256 . S
O3994 Cd3995 2.300 . S
O3994 C4001 1.275 . S
Cd3995 O3994 2.300 . S
Cd3995 O4003 2.381 . S
Cd3995 O4004 2.378 . S
O3996 Cd3997 2.385 . S
O3996 C4001 1.255 . S
Cd3997 O3996 2.385 . S
Cd3997 O3998 2.317 . S
O3998 Cd3997 2.317 . S
O3998 C3999 1.232 . S
C3999 O3998 1.232 . S
C3999 O4000 1.218 . S
O4000 C3999 1.218 . S
C4001 O3994 1.275 . S
C4001 O3996 1.255 . S
C4002 O4003 1.258 . S
C4002 O4004 1.256 . S
O4003 Cd3995 2.381 . S
O4003 C4002 1.258 . S
O4004 Cd3995 2.378 . S
O4004 C4002 1.256 . S
O4005 Cd4006 2.300 . S
O4005 C4012 1.275 . S
Cd4006 O4005 2.300 . S
Cd4006 O4014 2.381 . S
Cd4006 O4015 2.378 . S
O4007 Cd4008 2.385 . S
O4007 C4012 1.255 . S
Cd4008 O4007 2.385 . S
Cd4008 O4009 2.317 . S
O4009 Cd4008 2.317 . S
O4009 C4010 1.232 . S
C4010 O4009 1.232 . S
C4010 O4011 1.218 . S
O4011 C4010 1.218 . S
C4012 O4005 1.275 . S
C4012 O4007 1.255 . S
C4013 O4014 1.258 . S
C4013 O4015 1.256 . S
O4014 Cd4006 2.381 . S
O4014 C4013 1.258 . S
O4015 Cd4006 2.378 . S
O4015 C4013 1.256 . S
O4016 Cd4017 2.300 . S
O4016 C4023 1.275 . S
Cd4017 O4016 2.300 . S
Cd4017 O4025 2.381 . S
Cd4017 O4026 2.378 . S
O4018 Cd4019 2.385 . S
O4018 C4023 1.255 . S
Cd4019 O4018 2.385 . S
Cd4019 O4020 2.317 . S
O4020 Cd4019 2.317 . S
O4020 C4021 1.232 . S
C4021 O4020 1.232 . S
C4021 O4022 1.218 . S
O4022 C4021 1.218 . S
C4023 O4016 1.275 . S
C4023 O4018 1.255 . S
C4024 O4025 1.258 . S
C4024 O4026 1.256 . S
O4025 Cd4017 2.381 . S
O4025 C4024 1.258 . S
O4026 Cd4017 2.378 . S
O4026 C4024 1.256 . S
O4027 Cd4028 2.300 . S
O4027 C4034 1.275 . S
Cd4028 O4027 2.300 . S
Cd4028 O4036 2.381 . S
Cd4028 O4037 2.378 . S
O4029 Cd4030 2.385 . S
O4029 C4034 1.255 . S
Cd4030 O4029 2.385 . S
Cd4030 O4031 2.317 . S
O4031 Cd4030 2.317 . S
O4031 C4032 1.232 . S
C4032 O4031 1.232 . S
C4032 O4033 1.218 . S
O4033 C4032 1.218 . S
C4034 O4027 1.275 . S
C4034 O4029 1.255 . S
C4035 O4036 1.258 . S
C4035 O4037 1.256 . S
O4036 Cd4028 2.381 . S
O4036 C4035 1.258 . S
O4037 Cd4028 2.378 . S
O4037 C4035 1.256 . S
O4038 Cd4039 2.300 . S
O4038 C4045 1.275 . S
Cd4039 O4038 2.300 . S
Cd4039 O4047 2.381 . S
Cd4039 O4048 2.378 . S
O4040 Cd4041 2.385 . S
O4040 C4045 1.255 . S
Cd4041 O4040 2.385 . S
Cd4041 O4042 2.317 . S
O4042 Cd4041 2.317 . S
O4042 C4043 1.232 . S
C4043 O4042 1.232 . S
C4043 O4044 1.218 . S
O4044 C4043 1.218 . S
C4045 O4038 1.275 . S
C4045 O4040 1.255 . S
C4046 O4047 1.258 . S
C4046 O4048 1.256 . S
O4047 Cd4039 2.381 . S
O4047 C4046 1.258 . S
O4048 Cd4039 2.378 . S
O4048 C4046 1.256 . S
O4049 Cd4050 2.300 . S
O4049 C4056 1.275 . S
Cd4050 O4049 2.300 . S
Cd4050 O4058 2.381 . S
Cd4050 O4059 2.378 . S
O4051 Cd4052 2.385 . S
O4051 C4056 1.255 . S
Cd4052 O4051 2.385 . S
Cd4052 O4053 2.317 . S
O4053 Cd4052 2.317 . S
O4053 C4054 1.232 . S
C4054 O4053 1.232 . S
C4054 O4055 1.218 . S
O4055 C4054 1.218 . S
C4056 O4049 1.275 . S
C4056 O4051 1.255 . S
C4057 O4058 1.258 . S
C4057 O4059 1.256 . S
O4058 Cd4050 2.381 . S
O4058 C4057 1.258 . S
O4059 Cd4050 2.378 . S
O4059 C4057 1.256 . S
O4060 Cd4061 2.300 . S
O4060 C4067 1.275 . S
Cd4061 O4060 2.300 . S
Cd4061 O4069 2.381 . S
Cd4061 O4070 2.378 . S
O4062 Cd4063 2.385 . S
O4062 C4067 1.255 . S
Cd4063 O4062 2.385 . S
Cd4063 O4064 2.317 . S
O4064 Cd4063 2.317 . S
O4064 C4065 1.232 . S
C4065 O4064 1.232 . S
C4065 O4066 1.218 . S
O4066 C4065 1.218 . S
C4067 O4060 1.275 . S
C4067 O4062 1.255 . S
C4068 O4069 1.258 . S
C4068 O4070 1.256 . S
O4069 Cd4061 2.381 . S
O4069 C4068 1.258 . S
O4070 Cd4061 2.378 . S
O4070 C4068 1.256 . S
O4071 Cd4072 2.300 . S
O4071 C4078 1.275 . S
Cd4072 O4071 2.300 . S
Cd4072 O4080 2.381 . S
Cd4072 O4081 2.378 . S
O4073 Cd4074 2.385 . S
O4073 C4078 1.255 . S
Cd4074 O4073 2.385 . S
Cd4074 O4075 2.317 . S
O4075 Cd4074 2.317 . S
O4075 C4076 1.232 . S
C4076 O4075 1.232 . S
C4076 O4077 1.218 . S
O4077 C4076 1.218 . S
C4078 O4071 1.275 . S
C4078 O4073 1.255 . S
C4079 O4080 1.258 . S
C4079 O4081 1.256 . S
O4080 Cd4072 2.381 . S
O4080 C4079 1.258 . S
O4081 Cd4072 2.378 . S
O4081 C4079 1.256 . S
O4082 Cd4083 2.300 . S
O4082 C4089 1.275 . S
Cd4083 O4082 2.300 . S
Cd4083 O4091 2.381 . S
Cd4083 O4092 2.378 . S
O4084 Cd4085 2.385 . S
O4084 C4089 1.255 . S
Cd4085 O4084 2.385 . S
Cd4085 O4086 2.317 . S
O4086 Cd4085 2.317 . S
O4086 C4087 1.232 . S
C4087 O4086 1.232 . S
C4087 O4088 1.218 . S
O4088 C4087 1.218 . S
C4089 O4082 1.275 . S
C4089 O4084 1.255 . S
C4090 O4091 1.258 . S
C4090 O4092 1.256 . S
O4091 Cd4083 2.381 . S
O4091 C4090 1.258 . S
O4092 Cd4083 2.378 . S
O4092 C4090 1.256 . S
O4093 Cd4094 2.300 . S
O4093 C4100 1.275 . S
Cd4094 O4093 2.300 . S
Cd4094 O4102 2.381 . S
Cd4094 O4103 2.378 . S
O4095 Cd4096 2.385 . S
O4095 C4100 1.255 . S
Cd4096 O4095 2.385 . S
Cd4096 O4097 2.317 . S
O4097 Cd4096 2.317 . S
O4097 C4098 1.232 . S
C4098 O4097 1.232 . S
C4098 O4099 1.218 . S
O4099 C4098 1.218 . S
C4100 O4093 1.275 . S
C4100 O4095 1.255 . S
C4101 O4102 1.258 . S
C4101 O4103 1.256 . S
O4102 Cd4094 2.381 . S
O4102 C4101 1.258 . S
O4103 Cd4094 2.378 . S
O4103 C4101 1.256 . S
O4104 Cd4105 2.300 . S
O4104 C4111 1.275 . S
Cd4105 O4104 2.300 . S
Cd4105 O4113 2.381 . S
Cd4105 O4114 2.378 . S
O4106 Cd4107 2.385 . S
O4106 C4111 1.255 . S
Cd4107 O4106 2.385 . S
Cd4107 O4108 2.317 . S
O4108 Cd4107 2.317 . S
O4108 C4109 1.232 . S
C4109 O4108 1.232 . S
C4109 O4110 1.218 . S
O4110 C4109 1.218 . S
C4111 O4104 1.275 . S
C4111 O4106 1.255 . S
C4112 O4113 1.258 . S
C4112 O4114 1.256 . S
O4113 Cd4105 2.381 . S
O4113 C4112 1.258 . S
O4114 Cd4105 2.378 . S
O4114 C4112 1.256 . S
O4115 Cd4116 2.300 . S
O4115 C4122 1.275 . S
Cd4116 O4115 2.300 . S
Cd4116 O4124 2.381 . S
Cd4116 O4125 2.378 . S
O4117 Cd4118 2.385 . S
O4117 C4122 1.255 . S
Cd4118 O4117 2.385 . S
Cd4118 O4119 2.317 . S
O4119 Cd4118 2.317 . S
O4119 C4120 1.232 . S
C4120 O4119 1.232 . S
C4120 O4121 1.218 . S
O4121 C4120 1.218 . S
C4122 O4115 1.275 . S
C4122 O4117 1.255 . S
C4123 O4124 1.258 . S
C4123 O4125 1.256 . S
O4124 Cd4116 2.381 . S
O4124 C4123 1.258 . S
O4125 Cd4116 2.378 . S
O4125 C4123 1.256 . S
O4126 Cd4127 2.300 . S
O4126 C4133 1.275 . S
Cd4127 O4126 2.300 . S
Cd4127 O4135 2.381 . S
Cd4127 O4136 2.378 . S
O4128 Cd4129 2.385 . S
O4128 C4133 1.255 . S
Cd4129 O4128 2.385 . S
Cd4129 O4130 2.317 . S
O4130 Cd4129 2.317 . S
O4130 C4131 1.232 . S
C4131 O4130 1.232 . S
C4131 O4132 1.218 . S
O4132 C4131 1.218 . S
C4133 O4126 1.275 . S
C4133 O4128 1.255 . S
C4134 O4135 1.258 . S
C4134 O4136 1.256 . S
O4135 Cd4127 2.381 . S
O4135 C4134 1.258 . S
O4136 Cd4127 2.378 . S
O4136 C4134 1.256 . S
O4137 Cd4138 2.300 . S
O4137 C4144 1.275 . S
Cd4138 O4137 2.300 . S
Cd4138 O4146 2.381 . S
Cd4138 O4147 2.378 . S
O4139 Cd4140 2.385 . S
O4139 C4144 1.255 . S
Cd4140 O4139 2.385 . S
Cd4140 O4141 2.317 . S
O4141 Cd4140 2.317 . S
O4141 C4142 1.232 . S
C4142 O4141 1.232 . S
C4142 O4143 1.218 . S
O4143 C4142 1.218 . S
C4144 O4137 1.275 . S
C4144 O4139 1.255 . S
C4145 O4146 1.258 . S
C4145 O4147 1.256 . S
O4146 Cd4138 2.381 . S
O4146 C4145 1.258 . S
O4147 Cd4138 2.378 . S
O4147 C4145 1.256 . S
O4148 Cd4149 2.300 . S
O4148 C4155 1.275 . S
Cd4149 O4148 2.300 . S
Cd4149 O4157 2.381 . S
Cd4149 O4158 2.378 . S
O4150 Cd4151 2.385 . S
O4150 C4155 1.255 . S
Cd4151 O4150 2.385 . S
Cd4151 O4152 2.317 . S
O4152 Cd4151 2.317 . S
O4152 C4153 1.232 . S
C4153 O4152 1.232 . S
C4153 O4154 1.218 . S
O4154 C4153 1.218 . S
C4155 O4148 1.275 . S
C4155 O4150 1.255 . S
C4156 O4157 1.258 . S
C4156 O4158 1.256 . S
O4157 Cd4149 2.381 . S
O4157 C4156 1.258 . S
O4158 Cd4149 2.378 . S
O4158 C4156 1.256 . S
O4159 Cd4160 2.300 . S
O4159 C4166 1.275 . S
Cd4160 O4159 2.300 . S
Cd4160 O4168 2.381 . S
Cd4160 O4169 2.378 . S
O4161 Cd4162 2.385 . S
O4161 C4166 1.255 . S
Cd4162 O4161 2.385 . S
Cd4162 O4163 2.317 . S
O4163 Cd4162 2.317 . S
O4163 C4164 1.232 . S
C4164 O4163 1.232 . S
C4164 O4165 1.218 . S
O4165 C4164 1.218 . S
C4166 O4159 1.275 . S
C4166 O4161 1.255 . S
C4167 O4168 1.258 . S
C4167 O4169 1.256 . S
O4168 Cd4160 2.381 . S
O4168 C4167 1.258 . S
O4169 Cd4160 2.378 . S
O4169 C4167 1.256 . S
O4170 Cd4171 2.300 . S
O4170 C4177 1.275 . S
Cd4171 O4170 2.300 . S
Cd4171 O4179 2.381 . S
Cd4171 O4180 2.378 . S
O4172 Cd4173 2.385 . S
O4172 C4177 1.255 . S
Cd4173 O4172 2.385 . S
Cd4173 O4174 2.317 . S
O4174 Cd4173 2.317 . S
O4174 C4175 1.232 . S
C4175 O4174 1.232 . S
C4175 O4176 1.218 . S
O4176 C4175 1.218 . S
C4177 O4170 1.275 . S
C4177 O4172 1.255 . S
C4178 O4179 1.258 . S
C4178 O4180 1.256 . S
O4179 Cd4171 2.381 . S
O4179 C4178 1.258 . S
O4180 Cd4171 2.378 . S
O4180 C4178 1.256 . S
O4181 Cd4182 2.300 . S
O4181 C4188 1.275 . S
Cd4182 O4181 2.300 . S
Cd4182 O4190 2.381 . S
Cd4182 O4191 2.378 . S
O4183 Cd4184 2.385 . S
O4183 C4188 1.255 . S
Cd4184 O4183 2.385 . S
Cd4184 O4185 2.317 . S
O4185 Cd4184 2.317 . S
O4185 C4186 1.232 . S
C4186 O4185 1.232 . S
C4186 O4187 1.218 . S
O4187 C4186 1.218 . S
C4188 O4181 1.275 . S
C4188 O4183 1.255 . S
C4189 O4190 1.258 . S
C4189 O4191 1.256 . S
O4190 Cd4182 2.381 . S
O4190 C4189 1.258 . S
O4191 Cd4182 2.378 . S
O4191 C4189 1.256 . S
O4192 Cd4193 2.300 . S
O4192 C4199 1.275 . S
Cd4193 O4192 2.300 . S
Cd4193 O4201 2.381 . S
Cd4193 O4202 2.378 . S
O4194 Cd4195 2.385 . S
O4194 C4199 1.255 . S
Cd4195 O4194 2.385 . S
Cd4195 O4196 2.317 . S
O4196 Cd4195 2.317 . S
O4196 C4197 1.232 . S
C4197 O4196 1.232 . S
C4197 O4198 1.218 . S
O4198 C4197 1.218 . S
C4199 O4192 1.275 . S
C4199 O4194 1.255 . S
C4200 O4201 1.258 . S
C4200 O4202 1.256 . S
O4201 Cd4193 2.381 . S
O4201 C4200 1.258 . S
O4202 Cd4193 2.378 . S
O4202 C4200 1.256 . S
O4203 Cd4204 2.300 . S
O4203 C4210 1.275 . S
Cd4204 O4203 2.300 . S
Cd4204 O4212 2.381 . S
Cd4204 O4213 2.378 . S
O4205 Cd4206 2.385 . S
O4205 C4210 1.255 . S
Cd4206 O4205 2.385 . S
Cd4206 O4207 2.317 . S
O4207 Cd4206 2.317 . S
O4207 C4208 1.232 . S
C4208 O4207 1.232 . S
C4208 O4209 1.218 . S
O4209 C4208 1.218 . S
C4210 O4203 1.275 . S
C4210 O4205 1.255 . S
C4211 O4212 1.258 . S
C4211 O4213 1.256 . S
O4212 Cd4204 2.381 . S
O4212 C4211 1.258 . S
O4213 Cd4204 2.378 . S
O4213 C4211 1.256 . S
O4214 Cd4215 2.300 . S
O4214 C4221 1.275 . S
Cd4215 O4214 2.300 . S
Cd4215 O4223 2.381 . S
Cd4215 O4224 2.378 . S
O4216 Cd4217 2.385 . S
O4216 C4221 1.255 . S
Cd4217 O4216 2.385 . S
Cd4217 O4218 2.317 . S
O4218 Cd4217 2.317 . S
O4218 C4219 1.232 . S
C4219 O4218 1.232 . S
C4219 O4220 1.218 . S
O4220 C4219 1.218 . S
C4221 O4214 1.275 . S
C4221 O4216 1.255 . S
C4222 O4223 1.258 . S
C4222 O4224 1.256 . S
O4223 Cd4215 2.381 . S
O4223 C4222 1.258 . S
O4224 Cd4215 2.378 . S
O4224 C4222 1.256 . S
O4225 Cd4226 2.300 . S
O4225 C4232 1.275 . S
Cd4226 O4225 2.300 . S
Cd4226 O4234 2.381 . S
Cd4226 O4235 2.378 . S
O4227 Cd4228 2.385 . S
O4227 C4232 1.255 . S
Cd4228 O4227 2.385 . S
Cd4228 O4229 2.317 . S
O4229 Cd4228 2.317 . S
O4229 C4230 1.232 . S
C4230 O4229 1.232 . S
C4230 O4231 1.218 . S
O4231 C4230 1.218 . S
C4232 O4225 1.275 . S
C4232 O4227 1.255 . S
C4233 O4234 1.258 . S
C4233 O4235 1.256 . S
O4234 Cd4226 2.381 . S
O4234 C4233 1.258 . S
O4235 Cd4226 2.378 . S
O4235 C4233 1.256 . S
O4236 Cd4237 2.300 . S
O4236 C4243 1.275 . S
Cd4237 O4236 2.300 . S
Cd4237 O4245 2.381 . S
Cd4237 O4246 2.378 . S
O4238 Cd4239 2.385 . S
O4238 C4243 1.255 . S
Cd4239 O4238 2.385 . S
Cd4239 O4240 2.317 . S
O4240 Cd4239 2.317 . S
O4240 C4241 1.232 . S
C4241 O4240 1.232 . S
C4241 O4242 1.218 . S
O4242 C4241 1.218 . S
C4243 O4236 1.275 . S
C4243 O4238 1.255 . S
C4244 O4245 1.258 . S
C4244 O4246 1.256 . S
O4245 Cd4237 2.381 . S
O4245 C4244 1.258 . S
O4246 Cd4237 2.378 . S
O4246 C4244 1.256 . S
O4247 Cd4248 2.300 . S
O4247 C4254 1.275 . S
Cd4248 O4247 2.300 . S
Cd4248 O4256 2.381 . S
Cd4248 O4257 2.378 . S
O4249 Cd4250 2.385 . S
O4249 C4254 1.255 . S
Cd4250 O4249 2.385 . S
Cd4250 O4251 2.317 . S
O4251 Cd4250 2.317 . S
O4251 C4252 1.232 . S
C4252 O4251 1.232 . S
C4252 O4253 1.218 . S
O4253 C4252 1.218 . S
C4254 O4247 1.275 . S
C4254 O4249 1.255 . S
C4255 O4256 1.258 . S
C4255 O4257 1.256 . S
O4256 Cd4248 2.381 . S
O4256 C4255 1.258 . S
O4257 Cd4248 2.378 . S
O4257 C4255 1.256 . S
O4258 Cd4259 2.300 . S
O4258 C4265 1.275 . S
Cd4259 O4258 2.300 . S
Cd4259 O4267 2.381 . S
Cd4259 O4268 2.378 . S
O4260 Cd4261 2.385 . S
O4260 C4265 1.255 . S
Cd4261 O4260 2.385 . S
Cd4261 O4262 2.317 . S
O4262 Cd4261 2.317 . S
O4262 C4263 1.232 . S
C4263 O4262 1.232 . S
C4263 O4264 1.218 . S
O4264 C4263 1.218 . S
C4265 O4258 1.275 . S
C4265 O4260 1.255 . S
C4266 O4267 1.258 . S
C4266 O4268 1.256 . S
O4267 Cd4259 2.381 . S
O4267 C4266 1.258 . S
O4268 Cd4259 2.378 . S
O4268 C4266 1.256 . S
O4269 Cd4270 2.300 . S
O4269 C4276 1.275 . S
Cd4270 O4269 2.300 . S
Cd4270 O4278 2.381 . S
Cd4270 O4279 2.378 . S
O4271 Cd4272 2.385 . S
O4271 C4276 1.255 . S
Cd4272 O4271 2.385 . S
Cd4272 O4273 2.317 . S
O4273 Cd4272 2.317 . S
O4273 C4274 1.232 . S
C4274 O4273 1.232 . S
C4274 O4275 1.218 . S
O4275 C4274 1.218 . S
C4276 O4269 1.275 . S
C4276 O4271 1.255 . S
C4277 O4278 1.258 . S
C4277 O4279 1.256 . S
O4278 Cd4270 2.381 . S
O4278 C4277 1.258 . S
O4279 Cd4270 2.378 . S
O4279 C4277 1.256 . S
O4280 Cd4281 2.300 . S
O4280 C4287 1.275 . S
Cd4281 O4280 2.300 . S
Cd4281 O4289 2.381 . S
Cd4281 O4290 2.378 . S
O4282 Cd4283 2.385 . S
O4282 C4287 1.255 . S
Cd4283 O4282 2.385 . S
Cd4283 O4284 2.317 . S
O4284 Cd4283 2.317 . S
O4284 C4285 1.232 . S
C4285 O4284 1.232 . S
C4285 O4286 1.218 . S
O4286 C4285 1.218 . S
C4287 O4280 1.275 . S
C4287 O4282 1.255 . S
C4288 O4289 1.258 . S
C4288 O4290 1.256 . S
O4289 Cd4281 2.381 . S
O4289 C4288 1.258 . S
O4290 Cd4281 2.378 . S
O4290 C4288 1.256 . S
O4291 Cd4292 2.300 . S
O4291 C4298 1.275 . S
Cd4292 O4291 2.300 . S
Cd4292 O4300 2.381 . S
Cd4292 O4301 2.378 . S
O4293 Cd4294 2.385 . S
O4293 C4298 1.255 . S
Cd4294 O4293 2.385 . S
Cd4294 O4295 2.317 . S
O4295 Cd4294 2.317 . S
O4295 C4296 1.232 . S
C4296 O4295 1.232 . S
C4296 O4297 1.218 . S
O4297 C4296 1.218 . S
C4298 O4291 1.275 . S
C4298 O4293 1.255 . S
C4299 O4300 1.258 . S
C4299 O4301 1.256 . S
O4300 Cd4292 2.381 . S
O4300 C4299 1.258 . S
O4301 Cd4292 2.378 . S
O4301 C4299 1.256 . S
O4302 Cd4303 2.300 . S
O4302 C4309 1.275 . S
Cd4303 O4302 2.300 . S
Cd4303 O4311 2.381 . S
Cd4303 O4312 2.378 . S
O4304 Cd4305 2.385 . S
O4304 C4309 1.255 . S
Cd4305 O4304 2.385 . S
Cd4305 O4306 2.317 . S
O4306 Cd4305 2.317 . S
O4306 C4307 1.232 . S
C4307 O4306 1.232 . S
C4307 O4308 1.218 . S
O4308 C4307 1.218 . S
C4309 O4302 1.275 . S
C4309 O4304 1.255 . S
C4310 O4311 1.258 . S
C4310 O4312 1.256 . S
O4311 Cd4303 2.381 . S
O4311 C4310 1.258 . S
O4312 Cd4303 2.378 . S
O4312 C4310 1.256 . S
O4313 Cd4314 2.300 . S
O4313 C4320 1.275 . S
Cd4314 O4313 2.300 . S
Cd4314 O4322 2.381 . S
Cd4314 O4323 2.378 . S
O4315 Cd4316 2.385 . S
O4315 C4320 1.255 . S
Cd4316 O4315 2.385 . S
Cd4316 O4317 2.317 . S
O4317 Cd4316 2.317 . S
O4317 C4318 1.232 . S
C4318 O4317 1.232 . S
C4318 O4319 1.218 . S
O4319 C4318 1.218 . S
C4320 O4313 1.275 . S
C4320 O4315 1.255 . S
C4321 O4322 1.258 . S
C4321 O4323 1.256 . S
O4322 Cd4314 2.381 . S
O4322 C4321 1.258 . S
O4323 Cd4314 2.378 . S
O4323 C4321 1.256 . S
O4324 Cd4325 2.300 . S
O4324 C4331 1.275 . S
Cd4325 O4324 2.300 . S
Cd4325 O4333 2.381 . S
Cd4325 O4334 2.378 . S
O4326 Cd4327 2.385 . S
O4326 C4331 1.255 . S
Cd4327 O4326 2.385 . S
Cd4327 O4328 2.317 . S
O4328 Cd4327 2.317 . S
O4328 C4329 1.232 . S
C4329 O4328 1.232 . S
C4329 O4330 1.218 . S
O4330 C4329 1.218 . S
C4331 O4324 1.275 . S
C4331 O4326 1.255 . S
C4332 O4333 1.258 . S
C4332 O4334 1.256 . S
O4333 Cd4325 2.381 . S
O4333 C4332 1.258 . S
O4334 Cd4325 2.378 . S
O4334 C4332 1.256 . S
O4335 Cd4336 2.300 . S
O4335 C4342 1.275 . S
Cd4336 O4335 2.300 . S
Cd4336 O4344 2.381 . S
Cd4336 O4345 2.378 . S
O4337 Cd4338 2.385 . S
O4337 C4342 1.255 . S
Cd4338 O4337 2.385 . S
Cd4338 O4339 2.317 . S
O4339 Cd4338 2.317 . S
O4339 C4340 1.232 . S
C4340 O4339 1.232 . S
C4340 O4341 1.218 . S
O4341 C4340 1.218 . S
C4342 O4335 1.275 . S
C4342 O4337 1.255 . S
C4343 O4344 1.258 . S
C4343 O4345 1.256 . S
O4344 Cd4336 2.381 . S
O4344 C4343 1.258 . S
O4345 Cd4336 2.378 . S
O4345 C4343 1.256 . S
O4346 Cd4347 2.300 . S
O4346 C4353 1.275 . S
Cd4347 O4346 2.300 . S
Cd4347 O4355 2.381 . S
Cd4347 O4356 2.378 . S
O4348 Cd4349 2.385 . S
O4348 C4353 1.255 . S
Cd4349 O4348 2.385 . S
Cd4349 O4350 2.317 . S
O4350 Cd4349 2.317 . S
O4350 C4351 1.232 . S
C4351 O4350 1.232 . S
C4351 O4352 1.218 . S
O4352 C4351 1.218 . S
C4353 O4346 1.275 . S
C4353 O4348 1.255 . S
C4354 O4355 1.258 . S
C4354 O4356 1.256 . S
O4355 Cd4347 2.381 . S
O4355 C4354 1.258 . S
O4356 Cd4347 2.378 . S
O4356 C4354 1.256 . S
O4357 Cd4358 2.300 . S
O4357 C4364 1.275 . S
Cd4358 O4357 2.300 . S
Cd4358 O4366 2.381 . S
Cd4358 O4367 2.378 . S
O4359 Cd4360 2.385 . S
O4359 C4364 1.255 . S
Cd4360 O4359 2.385 . S
Cd4360 O4361 2.317 . S
O4361 Cd4360 2.317 . S
O4361 C4362 1.232 . S
C4362 O4361 1.232 . S
C4362 O4363 1.218 . S
O4363 C4362 1.218 . S
C4364 O4357 1.275 . S
C4364 O4359 1.255 . S
C4365 O4366 1.258 . S
C4365 O4367 1.256 . S
O4366 Cd4358 2.381 . S
O4366 C4365 1.258 . S
O4367 Cd4358 2.378 . S
O4367 C4365 1.256 . S
O4368 Cd4369 2.300 . S
O4368 C4375 1.275 . S
Cd4369 O4368 2.300 . S
Cd4369 O4377 2.381 . S
Cd4369 O4378 2.378 . S
O4370 Cd4371 2.385 . S
O4370 C4375 1.255 . S
Cd4371 O4370 2.385 . S
Cd4371 O4372 2.317 . S
O4372 Cd4371 2.317 . S
O4372 C4373 1.232 . S
C4373 O4372 1.232 . S
C4373 O4374 1.218 . S
O4374 C4373 1.218 . S
C4375 O4368 1.275 . S
C4375 O4370 1.255 . S
C4376 O4377 1.258 . S
C4376 O4378 1.256 . S
O4377 Cd4369 2.381 . S
O4377 C4376 1.258 . S
O4378 Cd4369 2.378 . S
O4378 C4376 1.256 . S
O4379 Cd4380 2.300 . S
O4379 C4386 1.275 . S
Cd4380 O4379 2.300 . S
Cd4380 O4388 2.381 . S
Cd4380 O4389 2.378 . S
O4381 Cd4382 2.385 . S
O4381 C4386 1.255 . S
Cd4382 O4381 2.385 . S
Cd4382 O4383 2.317 . S
O4383 Cd4382 2.317 . S
O4383 C4384 1.232 . S
C4384 O4383 1.232 . S
C4384 O4385 1.218 . S
O4385 C4384 1.218 . S
C4386 O4379 1.275 . S
C4386 O4381 1.255 . S
C4387 O4388 1.258 . S
C4387 O4389 1.256 . S
O4388 Cd4380 2.381 . S
O4388 C4387 1.258 . S
O4389 Cd4380 2.378 . S
O4389 C4387 1.256 . S
O4390 Cd4391 2.300 . S
O4390 C4397 1.275 . S
Cd4391 O4390 2.300 . S
Cd4391 O4399 2.381 . S
Cd4391 O4400 2.378 . S
O4392 Cd4393 2.385 . S
O4392 C4397 1.255 . S
Cd4393 O4392 2.385 . S
Cd4393 O4394 2.317 . S
O4394 Cd4393 2.317 . S
O4394 C4395 1.232 . S
C4395 O4394 1.232 . S
C4395 O4396 1.218 . S
O4396 C4395 1.218 . S
C4397 O4390 1.275 . S
C4397 O4392 1.255 . S
C4398 O4399 1.258 . S
C4398 O4400 1.256 . S
O4399 Cd4391 2.381 . S
O4399 C4398 1.258 . S
O4400 Cd4391 2.378 . S
O4400 C4398 1.256 . S
O4401 Cd4402 2.300 . S
O4401 C4408 1.275 . S
Cd4402 O4401 2.300 . S
Cd4402 O4410 2.381 . S
Cd4402 O4411 2.378 . S
O4403 Cd4404 2.385 . S
O4403 C4408 1.255 . S
Cd4404 O4403 2.385 . S
Cd4404 O4405 2.317 . S
O4405 Cd4404 2.317 . S
O4405 C4406 1.232 . S
C4406 O4405 1.232 . S
C4406 O4407 1.218 . S
O4407 C4406 1.218 . S
C4408 O4401 1.275 . S
C4408 O4403 1.255 . S
C4409 O4410 1.258 . S
C4409 O4411 1.256 . S
O4410 Cd4402 2.381 . S
O4410 C4409 1.258 . S
O4411 Cd4402 2.378 . S
O4411 C4409 1.256 . S
O4412 Cd4413 2.300 . S
O4412 C4419 1.275 . S
Cd4413 O4412 2.300 . S
Cd4413 O4421 2.381 . S
Cd4413 O4422 2.378 . S
O4414 Cd4415 2.385 . S
O4414 C4419 1.255 . S
Cd4415 O4414 2.385 . S
Cd4415 O4416 2.317 . S
O4416 Cd4415 2.317 . S
O4416 C4417 1.232 . S
C4417 O4416 1.232 . S
C4417 O4418 1.218 . S
O4418 C4417 1.218 . S
C4419 O4412 1.275 . S
C4419 O4414 1.255 . S
C4420 O4421 1.258 . S
C4420 O4422 1.256 . S
O4421 Cd4413 2.381 . S
O4421 C4420 1.258 . S
O4422 Cd4413 2.378 . S
O4422 C4420 1.256 . S
O4423 Cd4424 2.300 . S
O4423 C4430 1.275 . S
Cd4424 O4423 2.300 . S
Cd4424 O4432 2.381 . S
Cd4424 O4433 2.378 . S
O4425 Cd4426 2.385 . S
O4425 C4430 1.255 . S
Cd4426 O4425 2.385 . S
Cd4426 O4427 2.317 . S
O4427 Cd4426 2.317 . S
O4427 C4428 1.232 . S
C4428 O4427 1.232 . S
C4428 O4429 1.218 . S
O4429 C4428 1.218 . S
C4430 O4423 1.275 . S
C4430 O4425 1.255 . S
C4431 O4432 1.258 . S
C4431 O4433 1.256 . S
O4432 Cd4424 2.381 . S
O4432 C4431 1.258 . S
O4433 Cd4424 2.378 . S
O4433 C4431 1.256 . S
O4434 Cd4435 2.300 . S
O4434 C4441 1.275 . S
Cd4435 O4434 2.300 . S
Cd4435 O4443 2.381 . S
Cd4435 O4444 2.378 . S
O4436 Cd4437 2.385 . S
O4436 C4441 1.255 . S
Cd4437 O4436 2.385 . S
Cd4437 O4438 2.317 . S
O4438 Cd4437 2.317 . S
O4438 C4439 1.232 . S
C4439 O4438 1.232 . S
C4439 O4440 1.218 . S
O4440 C4439 1.218 . S
C4441 O4434 1.275 . S
C4441 O4436 1.255 . S
C4442 O4443 1.258 . S
C4442 O4444 1.256 . S
O4443 Cd4435 2.381 . S
O4443 C4442 1.258 . S
O4444 Cd4435 2.378 . S
O4444 C4442 1.256 . S
O4445 Cd4446 2.300 . S
O4445 C4452 1.275 . S
Cd4446 O4445 2.300 . S
Cd4446 O4454 2.381 . S
Cd4446 O4455 2.378 . S
O4447 Cd4448 2.385 . S
O4447 C4452 1.255 . S
Cd4448 O4447 2.385 . S
Cd4448 O4449 2.317 . S
O4449 Cd4448 2.317 . S
O4449 C4450 1.232 . S
C4450 O4449 1.232 . S
C4450 O4451 1.218 . S
O4451 C4450 1.218 . S
C4452 O4445 1.275 . S
C4452 O4447 1.255 . S
C4453 O4454 1.258 . S
C4453 O4455 1.256 . S
O4454 Cd4446 2.381 . S
O4454 C4453 1.258 . S
O4455 Cd4446 2.378 . S
O4455 C4453 1.256 . S
O4456 Cd4457 2.300 . S
O4456 C4463 1.275 . S
Cd4457 O4456 2.300 . S
Cd4457 O4465 2.381 . S
Cd4457 O4466 2.378 . S
O4458 Cd4459 2.385 . S
O4458 C4463 1.255 . S
Cd4459 O4458 2.385 . S
Cd4459 O4460 2.317 . S
O4460 Cd4459 2.317 . S
O4460 C4461 1.232 . S
C4461 O4460 1.232 . S
C4461 O4462 1.218 . S
O4462 C4461 1.218 . S
C4463 O4456 1.275 . S
C4463 O4458 1.255 . S
C4464 O4465 1.258 . S
C4464 O4466 1.256 . S
O4465 Cd4457 2.381 . S
O4465 C4464 1.258 . S
O4466 Cd4457 2.378 . S
O4466 C4464 1.256 . S
O4467 Cd4468 2.300 . S
O4467 C4474 1.275 . S
Cd4468 O4467 2.300 . S
Cd4468 O4476 2.381 . S
Cd4468 O4477 2.378 . S
O4469 Cd4470 2.385 . S
O4469 C4474 1.255 . S
Cd4470 O4469 2.385 . S
Cd4470 O4471 2.317 . S
O4471 Cd4470 2.317 . S
O4471 C4472 1.232 . S
C4472 O4471 1.232 . S
C4472 O4473 1.218 . S
O4473 C4472 1.218 . S
C4474 O4467 1.275 . S
C4474 O4469 1.255 . S
C4475 O4476 1.258 . S
C4475 O4477 1.256 . S
O4476 Cd4468 2.381 . S
O4476 C4475 1.258 . S
O4477 Cd4468 2.378 . S
O4477 C4475 1.256 . S
O4478 Cd4479 2.300 . S
O4478 C4485 1.275 . S
Cd4479 O4478 2.300 . S
Cd4479 O4487 2.381 . S
Cd4479 O4488 2.378 . S
O4480 Cd4481 2.385 . S
O4480 C4485 1.255 . S
Cd4481 O4480 2.385 . S
Cd4481 O4482 2.317 . S
O4482 Cd4481 2.317 . S
O4482 C4483 1.232 . S
C4483 O4482 1.232 . S
C4483 O4484 1.218 . S
O4484 C4483 1.218 . S
C4485 O4478 1.275 . S
C4485 O4480 1.255 . S
C4486 O4487 1.258 . S
C4486 O4488 1.256 . S
O4487 Cd4479 2.381 . S
O4487 C4486 1.258 . S
O4488 Cd4479 2.378 . S
O4488 C4486 1.256 . S
O4489 Cd4490 2.300 . S
O4489 C4496 1.275 . S
Cd4490 O4489 2.300 . S
Cd4490 O4498 2.381 . S
Cd4490 O4499 2.378 . S
O4491 Cd4492 2.385 . S
O4491 C4496 1.255 . S
Cd4492 O4491 2.385 . S
Cd4492 O4493 2.317 . S
O4493 Cd4492 2.317 . S
O4493 C4494 1.232 . S
C4494 O4493 1.232 . S
C4494 O4495 1.218 . S
O4495 C4494 1.218 . S
C4496 O4489 1.275 . S
C4496 O4491 1.255 . S
C4497 O4498 1.258 . S
C4497 O4499 1.256 . S
O4498 Cd4490 2.381 . S
O4498 C4497 1.258 . S
O4499 Cd4490 2.378 . S
O4499 C4497 1.256 . S
O4500 Cd4501 2.300 . S
O4500 C4507 1.275 . S
Cd4501 O4500 2.300 . S
Cd4501 O4509 2.381 . S
Cd4501 O4510 2.378 . S
O4502 Cd4503 2.385 . S
O4502 C4507 1.255 . S
Cd4503 O4502 2.385 . S
Cd4503 O4504 2.317 . S
O4504 Cd4503 2.317 . S
O4504 C4505 1.232 . S
C4505 O4504 1.232 . S
C4505 O4506 1.218 . S
O4506 C4505 1.218 . S
C4507 O4500 1.275 . S
C4507 O4502 1.255 . S
C4508 O4509 1.258 . S
C4508 O4510 1.256 . S
O4509 Cd4501 2.381 . S
O4509 C4508 1.258 . S
O4510 Cd4501 2.378 . S
O4510 C4508 1.256 . S
O4511 Cd4512 2.300 . S
O4511 C4518 1.275 . S
Cd4512 O4511 2.300 . S
Cd4512 O4520 2.381 . S
Cd4512 O4521 2.378 . S
O4513 Cd4514 2.385 . S
O4513 C4518 1.255 . S
Cd4514 O4513 2.385 . S
Cd4514 O4515 2.317 . S
O4515 Cd4514 2.317 . S
O4515 C4516 1.232 . S
C4516 O4515 1.232 . S
C4516 O4517 1.218 . S
O4517 C4516 1.218 . S
C4518 O4511 1.275 . S
C4518 O4513 1.255 . S
C4519 O4520 1.258 . S
C4519 O4521 1.256 . S
O4520 Cd4512 2.381 . S
O4520 C4519 1.258 . S
O4521 Cd4512 2.378 . S
O4521 C4519 1.256 . S
O4522 Cd4523 2.300 . S
O4522 C4529 1.275 . S
Cd4523 O4522 2.300 . S
Cd4523 O4531 2.381 . S
Cd4523 O4532 2.378 . S
O4524 Cd4525 2.385 . S
O4524 C4529 1.255 . S
Cd4525 O4524 2.385 . S
Cd4525 O4526 2.317 . S
O4526 Cd4525 2.317 . S
O4526 C4527 1.232 . S
C4527 O4526 1.232 . S
C4527 O4528 1.218 . S
O4528 C4527 1.218 . S
C4529 O4522 1.275 . S
C4529 O4524 1.255 . S
C4530 O4531 1.258 . S
C4530 O4532 1.256 . S
O4531 Cd4523 2.381 . S
O4531 C4530 1.258 . S
O4532 Cd4523 2.378 . S
O4532 C4530 1.256 . S
O4533 Cd4534 2.300 . S
O4533 C4540 1.275 . S
Cd4534 O4533 2.300 . S
Cd4534 O4542 2.381 . S
Cd4534 O4543 2.378 . S
O4535 Cd4536 2.385 . S
O4535 C4540 1.255 . S
Cd4536 O4535 2.385 . S
Cd4536 O4537 2.317 . S
O4537 Cd4536 2.317 . S
O4537 C4538 1.232 . S
C4538 O4537 1.232 . S
C4538 O4539 1.218 . S
O4539 C4538 1.218 . S
C4540 O4533 1.275 . S
C4540 O4535 1.255 . S
C4541 O4542 1.258 . S
C4541 O4543 1.256 . S
O4542 Cd4534 2.381 . S
O4542 C4541 1.258 . S
O4543 Cd4534 2.378 . S
O4543 C4541 1.256 . S
O4544 Cd4545 2.300 . S
O4544 C4551 1.275 . S
Cd4545 O4544 2.300 . S
Cd4545 O4553 2.381 . S
Cd4545 O4554 2.378 . S
O4546 Cd4547 2.385 . S
O4546 C4551 1.255 . S
Cd4547 O4546 2.385 . S
Cd4547 O4548 2.317 . S
O4548 Cd4547 2.317 . S
O4548 C4549 1.232 . S
C4549 O4548 1.232 . S
C4549 O4550 1.218 . S
O4550 C4549 1.218 . S
C4551 O4544 1.275 . S
C4551 O4546 1.255 . S
C4552 O4553 1.258 . S
C4552 O4554 1.256 . S
O4553 Cd4545 2.381 . S
O4553 C4552 1.258 . S
O4554 Cd4545 2.378 . S
O4554 C4552 1.256 . S
O4555 Cd4556 2.300 . S
O4555 C4562 1.275 . S
Cd4556 O4555 2.300 . S
Cd4556 O4564 2.381 . S
Cd4556 O4565 2.378 . S
O4557 Cd4558 2.385 . S
O4557 C4562 1.255 . S
Cd4558 O4557 2.385 . S
Cd4558 O4559 2.317 . S
O4559 Cd4558 2.317 . S
O4559 C4560 1.232 . S
C4560 O4559 1.232 . S
C4560 O4561 1.218 . S
O4561 C4560 1.218 . S
C4562 O4555 1.275 . S
C4562 O4557 1.255 . S
C4563 O4564 1.258 . S
C4563 O4565 1.256 . S
O4564 Cd4556 2.381 . S
O4564 C4563 1.258 . S
O4565 Cd4556 2.378 . S
O4565 C4563 1.256 . S
O4566 Cd4567 2.300 . S
O4566 C4573 1.275 . S
Cd4567 O4566 2.300 . S
Cd4567 O4575 2.381 . S
Cd4567 O4576 2.378 . S
O4568 Cd4569 2.385 . S
O4568 C4573 1.255 . S
Cd4569 O4568 2.385 . S
Cd4569 O4570 2.317 . S
O4570 Cd4569 2.317 . S
O4570 C4571 1.232 . S
C4571 O4570 1.232 . S
C4571 O4572 1.218 . S
O4572 C4571 1.218 . S
C4573 O4566 1.275 . S
C4573 O4568 1.255 . S
C4574 O4575 1.258 . S
C4574 O4576 1.256 . S
O4575 Cd4567 2.381 . S
O4575 C4574 1.258 . S
O4576 Cd4567 2.378 . S
O4576 C4574 1.256 . S
O4577 Cd4578 2.300 . S
O4577 C4584 1.275 . S
Cd4578 O4577 2.300 . S
Cd4578 O4586 2.381 . S
Cd4578 O4587 2.378 . S
O4579 Cd4580 2.385 . S
O4579 C4584 1.255 . S
Cd4580 O4579 2.385 . S
Cd4580 O4581 2.317 . S
O4581 Cd4580 2.317 . S
O4581 C4582 1.232 . S
C4582 O4581 1.232 . S
C4582 O4583 1.218 . S
O4583 C4582 1.218 . S
C4584 O4577 1.275 . S
C4584 O4579 1.255 . S
C4585 O4586 1.258 . S
C4585 O4587 1.256 . S
O4586 Cd4578 2.381 . S
O4586 C4585 1.258 . S
O4587 Cd4578 2.378 . S
O4587 C4585 1.256 . S
O4588 Cd4589 2.300 . S
O4588 C4595 1.275 . S
Cd4589 O4588 2.300 . S
Cd4589 O4597 2.381 . S
Cd4589 O4598 2.378 . S
O4590 Cd4591 2.385 . S
O4590 C4595 1.255 . S
Cd4591 O4590 2.385 . S
Cd4591 O4592 2.317 . S
O4592 Cd4591 2.317 . S
O4592 C4593 1.232 . S
C4593 O4592 1.232 . S
C4593 O4594 1.218 . S
O4594 C4593 1.218 . S
C4595 O4588 1.275 . S
C4595 O4590 1.255 . S
C4596 O4597 1.258 . S
C4596 O4598 1.256 . S
O4597 Cd4589 2.381 . S
O4597 C4596 1.258 . S
O4598 Cd4589 2.378 . S
O4598 C4596 1.256 . S
O4599 Cd4600 2.300 . S
O4599 C4606 1.275 . S
Cd4600 O4599 2.300 . S
Cd4600 O4608 2.381 . S
Cd4600 O4609 2.378 . S
O4601 Cd4602 2.385 . S
O4601 C4606 1.255 . S
Cd4602 O4601 2.385 . S
Cd4602 O4603 2.317 . S
O4603 Cd4602 2.317 . S
O4603 C4604 1.232 . S
C4604 O4603 1.232 . S
C4604 O4605 1.218 . S
O4605 C4604 1.218 . S
C4606 O4599 1.275 . S
C4606 O4601 1.255 . S
C4607 O4608 1.258 . S
C4607 O4609 1.256 . S
O4608 Cd4600 2.381 . S
O4608 C4607 1.258 . S
O4609 Cd4600 2.378 . S
O4609 C4607 1.256 . S
O4610 Cd4611 2.300 . S
O4610 C4617 1.275 . S
Cd4611 O4610 2.300 . S
Cd4611 O4619 2.381 . S
Cd4611 O4620 2.378 . S
O4612 Cd4613 2.385 . S
O4612 C4617 1.255 . S
Cd4613 O4612 2.385 . S
Cd4613 O4614 2.317 . S
O4614 Cd4613 2.317 . S
O4614 C4615 1.232 . S
C4615 O4614 1.232 . S
C4615 O4616 1.218 . S
O4616 C4615 1.218 . S
C4617 O4610 1.275 . S
C4617 O4612 1.255 . S
C4618 O4619 1.258 . S
C4618 O4620 1.256 . S
O4619 Cd4611 2.381 . S
O4619 C4618 1.258 . S
O4620 Cd4611 2.378 . S
O4620 C4618 1.256 . S
O4621 Cd4622 2.300 . S
O4621 C4628 1.275 . S
Cd4622 O4621 2.300 . S
Cd4622 O4630 2.381 . S
Cd4622 O4631 2.378 . S
O4623 Cd4624 2.385 . S
O4623 C4628 1.255 . S
Cd4624 O4623 2.385 . S
Cd4624 O4625 2.317 . S
O4625 Cd4624 2.317 . S
O4625 C4626 1.232 . S
C4626 O4625 1.232 . S
C4626 O4627 1.218 . S
O4627 C4626 1.218 . S
C4628 O4621 1.275 . S
C4628 O4623 1.255 . S
C4629 O4630 1.258 . S
C4629 O4631 1.256 . S
O4630 Cd4622 2.381 . S
O4630 C4629 1.258 . S
O4631 Cd4622 2.378 . S
O4631 C4629 1.256 . S
O4632 Cd4633 2.300 . S
O4632 C4639 1.275 . S
Cd4633 O4632 2.300 . S
Cd4633 O4641 2.381 . S
Cd4633 O4642 2.378 . S
O4634 Cd4635 2.385 . S
O4634 C4639 1.255 . S
Cd4635 O4634 2.385 . S
Cd4635 O4636 2.317 . S
O4636 Cd4635 2.317 . S
O4636 C4637 1.232 . S
C4637 O4636 1.232 . S
C4637 O4638 1.218 . S
O4638 C4637 1.218 . S
C4639 O4632 1.275 . S
C4639 O4634 1.255 . S
C4640 O4641 1.258 . S
C4640 O4642 1.256 . S
O4641 Cd4633 2.381 . S
O4641 C4640 1.258 . S
O4642 Cd4633 2.378 . S
O4642 C4640 1.256 . S
O4643 Cd4644 2.300 . S
O4643 C4650 1.275 . S
Cd4644 O4643 2.300 . S
Cd4644 O4652 2.381 . S
Cd4644 O4653 2.378 . S
O4645 Cd4646 2.385 . S
O4645 C4650 1.255 . S
Cd4646 O4645 2.385 . S
Cd4646 O4647 2.317 . S
O4647 Cd4646 2.317 . S
O4647 C4648 1.232 . S
C4648 O4647 1.232 . S
C4648 O4649 1.218 . S
O4649 C4648 1.218 . S
C4650 O4643 1.275 . S
C4650 O4645 1.255 . S
C4651 O4652 1.258 . S
C4651 O4653 1.256 . S
O4652 Cd4644 2.381 . S
O4652 C4651 1.258 . S
O4653 Cd4644 2.378 . S
O4653 C4651 1.256 . S
O4654 Cd4655 2.300 . S
O4654 C4661 1.275 . S
Cd4655 O4654 2.300 . S
Cd4655 O4663 2.381 . S
Cd4655 O4664 2.378 . S
O4656 Cd4657 2.385 . S
O4656 C4661 1.255 . S
Cd4657 O4656 2.385 . S
Cd4657 O4658 2.317 . S
O4658 Cd4657 2.317 . S
O4658 C4659 1.232 . S
C4659 O4658 1.232 . S
C4659 O4660 1.218 . S
O4660 C4659 1.218 . S
C4661 O4654 1.275 . S
C4661 O4656 1.255 . S
C4662 O4663 1.258 . S
C4662 O4664 1.256 . S
O4663 Cd4655 2.381 . S
O4663 C4662 1.258 . S
O4664 Cd4655 2.378 . S
O4664 C4662 1.256 . S
O4665 Cd4666 2.300 . S
O4665 C4672 1.275 . S
Cd4666 O4665 2.300 . S
Cd4666 O4674 2.381 . S
Cd4666 O4675 2.378 . S
O4667 Cd4668 2.385 . S
O4667 C4672 1.255 . S
Cd4668 O4667 2.385 . S
Cd4668 O4669 2.317 . S
O4669 Cd4668 2.317 . S
O4669 C4670 1.232 . S
C4670 O4669 1.232 . S
C4670 O4671 1.218 . S
O4671 C4670 1.218 . S
C4672 O4665 1.275 . S
C4672 O4667 1.255 . S
C4673 O4674 1.258 . S
C4673 O4675 1.256 . S
O4674 Cd4666 2.381 . S
O4674 C4673 1.258 . S
O4675 Cd4666 2.378 . S
O4675 C4673 1.256 . S
O4676 Cd4677 2.300 . S
O4676 C4683 1.275 . S
Cd4677 O4676 2.300 . S
Cd4677 O4685 2.381 . S
Cd4677 O4686 2.378 . S
O4678 Cd4679 2.385 . S
O4678 C4683 1.255 . S
Cd4679 O4678 2.385 . S
Cd4679 O4680 2.317 . S
O4680 Cd4679 2.317 . S
O4680 C4681 1.232 . S
C4681 O4680 1.232 . S
C4681 O4682 1.218 . S
O4682 C4681 1.218 . S
C4683 O4676 1.275 . S
C4683 O4678 1.255 . S
C4684 O4685 1.258 . S
C4684 O4686 1.256 . S
O4685 Cd4677 2.381 . S
O4685 C4684 1.258 . S
O4686 Cd4677 2.378 . S
O4686 C4684 1.256 . S
O4687 Cd4688 2.300 . S
O4687 C4694 1.275 . S
Cd4688 O4687 2.300 . S
Cd4688 O4696 2.381 . S
Cd4688 O4697 2.378 . S
O4689 Cd4690 2.385 . S
O4689 C4694 1.255 . S
Cd4690 O4689 2.385 . S
Cd4690 O4691 2.317 . S
O4691 Cd4690 2.317 . S
O4691 C4692 1.232 . S
C4692 O4691 1.232 . S
C4692 O4693 1.218 . S
O4693 C4692 1.218 . S
C4694 O4687 1.275 . S
C4694 O4689 1.255 . S
C4695 O4696 1.258 . S
C4695 O4697 1.256 . S
O4696 Cd4688 2.381 . S
O4696 C4695 1.258 . S
O4697 Cd4688 2.378 . S
O4697 C4695 1.256 . S
O4698 Cd4699 2.300 . S
O4698 C4705 1.275 . S
Cd4699 O4698 2.300 . S
Cd4699 O4707 2.381 . S
Cd4699 O4708 2.378 . S
O4700 Cd4701 2.385 . S
O4700 C4705 1.255 . S
Cd4701 O4700 2.385 . S
Cd4701 O4702 2.317 . S
O4702 Cd4701 2.317 . S
O4702 C4703 1.232 . S
C4703 O4702 1.232 . S
C4703 O4704 1.218 . S
O4704 C4703 1.218 . S
C4705 O4698 1.275 . S
C4705 O4700 1.255 . S
C4706 O4707 1.258 . S
C4706 O4708 1.256 . S
O4707 Cd4699 2.381 . S
O4707 C4706 1.258 . S
O4708 Cd4699 2.378 . S
O4708 C4706 1.256 . S
O4709 Cd4710 2.300 . S
O4709 C4716 1.275 . S
Cd4710 O4709 2.300 . S
Cd4710 O4718 2.381 . S
Cd4710 O4719 2.378 . S
O4711 Cd4712 2.385 . S
O4711 C4716 1.255 . S
Cd4712 O4711 2.385 . S
Cd4712 O4713 2.317 . S
O4713 Cd4712 2.317 . S
O4713 C4714 1.232 . S
C4714 O4713 1.232 . S
C4714 O4715 1.218 . S
O4715 C4714 1.218 . S
C4716 O4709 1.275 . S
C4716 O4711 1.255 . S
C4717 O4718 1.258 . S
C4717 O4719 1.256 . S
O4718 Cd4710 2.381 . S
O4718 C4717 1.258 . S
O4719 Cd4710 2.378 . S
O4719 C4717 1.256 . S
O4720 Cd4721 2.300 . S
O4720 C4727 1.275 . S
Cd4721 O4720 2.300 . S
Cd4721 O4729 2.381 . S
Cd4721 O4730 2.378 . S
O4722 Cd4723 2.385 . S
O4722 C4727 1.255 . S
Cd4723 O4722 2.385 . S
Cd4723 O4724 2.317 . S
O4724 Cd4723 2.317 . S
O4724 C4725 1.232 . S
C4725 O4724 1.232 . S
C4725 O4726 1.218 . S
O4726 C4725 1.218 . S
C4727 O4720 1.275 . S
C4727 O4722 1.255 . S
C4728 O4729 1.258 . S
C4728 O4730 1.256 . S
O4729 Cd4721 2.381 . S
O4729 C4728 1.258 . S
O4730 Cd4721 2.378 . S
O4730 C4728 1.256 . S
O4731 Cd4732 2.300 . S
O4731 C4738 1.275 . S
Cd4732 O4731 2.300 . S
Cd4732 O4740 2.381 . S
Cd4732 O4741 2.378 . S
O4733 Cd4734 2.385 . S
O4733 C4738 1.255 . S
Cd4734 O4733 2.385 . S
Cd4734 O4735 2.317 . S
O4735 Cd4734 2.317 . S
O4735 C4736 1.232 . S
C4736 O4735 1.232 . S
C4736 O4737 1.218 . S
O4737 C4736 1.218 . S
C4738 O4731 1.275 . S
C4738 O4733 1.255 . S
C4739 O4740 1.258 . S
C4739 O4741 1.256 . S
O4740 Cd4732 2.381 . S
O4740 C4739 1.258 . S
O4741 Cd4732 2.378 . S
O4741 C4739 1.256 . S
O4742 Cd4743 2.300 . S
O4742 C4749 1.275 . S
Cd4743 O4742 2.300 . S
Cd4743 O4751 2.381 . S
Cd4743 O4752 2.378 . S
O4744 Cd4745 2.385 . S
O4744 C4749 1.255 . S
Cd4745 O4744 2.385 . S
Cd4745 O4746 2.317 . S
O4746 Cd4745 2.317 . S
O4746 C4747 1.232 . S
C4747 O4746 1.232 . S
C4747 O4748 1.218 . S
O4748 C4747 1.218 . S
C4749 O4742 1.275 . S
C4749 O4744 1.255 . S
C4750 O4751 1.258 . S
C4750 O4752 1.256 . S
O4751 Cd4743 2.381 . S
O4751 C4750 1.258 . S
O4752 Cd4743 2.378 . S
O4752 C4750 1.256 . S
O4753 Cd4754 2.300 . S
O4753 C4760 1.275 . S
Cd4754 O4753 2.300 . S
Cd4754 O4762 2.381 . S
Cd4754 O4763 2.378 . S
O4755 Cd4756 2.385 . S
O4755 C4760 1.255 . S
Cd4756 O4755 2.385 . S
Cd4756 O4757 2.317 . S
O4757 Cd4756 2.317 . S
O4757 C4758 1.232 . S
C4758 O4757 1.232 . S
C4758 O4759 1.218 . S
O4759 C4758 1.218 . S
C4760 O4753 1.275 . S
C4760 O4755 1.255 . S
C4761 O4762 1.258 . S
C4761 O4763 1.256 . S
O4762 Cd4754 2.381 . S
O4762 C4761 1.258 . S
O4763 Cd4754 2.378 . S
O4763 C4761 1.256 . S
O4764 Cd4765 2.300 . S
O4764 C4771 1.275 . S
Cd4765 O4764 2.300 . S
Cd4765 O4773 2.381 . S
Cd4765 O4774 2.378 . S
O4766 Cd4767 2.385 . S
O4766 C4771 1.255 . S
Cd4767 O4766 2.385 . S
Cd4767 O4768 2.317 . S
O4768 Cd4767 2.317 . S
O4768 C4769 1.232 . S
C4769 O4768 1.232 . S
C4769 O4770 1.218 . S
O4770 C4769 1.218 . S
C4771 O4764 1.275 . S
C4771 O4766 1.255 . S
C4772 O4773 1.258 . S
C4772 O4774 1.256 . S
O4773 Cd4765 2.381 . S
O4773 C4772 1.258 . S
O4774 Cd4765 2.378 . S
O4774 C4772 1.256 . S
O4775 Cd4776 2.300 . S
O4775 C4782 1.275 . S
Cd4776 O4775 2.300 . S
Cd4776 O4784 2.381 . S
Cd4776 O4785 2.378 . S
O4777 Cd4778 2.385 . S
O4777 C4782 1.255 . S
Cd4778 O4777 2.385 . S
Cd4778 O4779 2.317 . S
O4779 Cd4778 2.317 . S
O4779 C4780 1.232 . S
C4780 O4779 1.232 . S
C4780 O4781 1.218 . S
O4781 C4780 1.218 . S
C4782 O4775 1.275 . S
C4782 O4777 1.255 . S
C4783 O4784 1.258 . S
C4783 O4785 1.256 . S
O4784 Cd4776 2.381 . S
O4784 C4783 1.258 . S
O4785 Cd4776 2.378 . S
O4785 C4783 1.256 . S
O4786 Cd4787 2.300 . S
O4786 C4793 1.275 . S
Cd4787 O4786 2.300 . S
Cd4787 O4795 2.381 . S
Cd4787 O4796 2.378 . S
O4788 Cd4789 2.385 . S
O4788 C4793 1.255 . S
Cd4789 O4788 2.385 . S
Cd4789 O4790 2.317 . S
O4790 Cd4789 2.317 . S
O4790 C4791 1.232 . S
C4791 O4790 1.232 . S
C4791 O4792 1.218 . S
O4792 C4791 1.218 . S
C4793 O4786 1.275 . S
C4793 O4788 1.255 . S
C4794 O4795 1.258 . S
C4794 O4796 1.256 . S
O4795 Cd4787 2.381 . S
O4795 C4794 1.258 . S
O4796 Cd4787 2.378 . S
O4796 C4794 1.256 . S
O4797 Cd4798 2.300 . S
O4797 C4804 1.275 . S
Cd4798 O4797 2.300 . S
Cd4798 O4806 2.381 . S
Cd4798 O4807 2.378 . S
O4799 Cd4800 2.385 . S
O4799 C4804 1.255 . S
Cd4800 O4799 2.385 . S
Cd4800 O4801 2.317 . S
O4801 Cd4800 2.317 . S
O4801 C4802 1.232 . S
C4802 O4801 1.232 . S
C4802 O4803 1.218 . S
O4803 C4802 1.218 . S
C4804 O4797 1.275 . S
C4804 O4799 1.255 . S
C4805 O4806 1.258 . S
C4805 O4807 1.256 . S
O4806 Cd4798 2.381 . S
O4806 C4805 1.258 . S
O4807 Cd4798 2.378 . S
O4807 C4805 1.256 . S
O4808 Cd4809 2.300 . S
O4808 C4815 1.275 . S
Cd4809 O4808 2.300 . S
Cd4809 O4817 2.381 . S
Cd4809 O4818 2.378 . S
O4810 Cd4811 2.385 . S
O4810 C4815 1.255 . S
Cd4811 O4810 2.385 . S
Cd4811 O4812 2.317 . S
O4812 Cd4811 2.317 . S
O4812 C4813 1.232 . S
C4813 O4812 1.232 . S
C4813 O4814 1.218 . S
O4814 C4813 1.218 . S
C4815 O4808 1.275 . S
C4815 O4810 1.255 . S
C4816 O4817 1.258 . S
C4816 O4818 1.256 . S
O4817 Cd4809 2.381 . S
O4817 C4816 1.258 . S
O4818 Cd4809 2.378 . S
O4818 C4816 1.256 . S
O4819 Cd4820 2.300 . S
O4819 C4826 1.275 . S
Cd4820 O4819 2.300 . S
Cd4820 O4828 2.381 . S
Cd4820 O4829 2.378 . S
O4821 Cd4822 2.385 . S
O4821 C4826 1.255 . S
Cd4822 O4821 2.385 . S
Cd4822 O4823 2.317 . S
O4823 Cd4822 2.317 . S
O4823 C4824 1.232 . S
C4824 O4823 1.232 . S
C4824 O4825 1.218 . S
O4825 C4824 1.218 . S
C4826 O4819 1.275 . S
C4826 O4821 1.255 . S
C4827 O4828 1.258 . S
C4827 O4829 1.256 . S
O4828 Cd4820 2.381 . S
O4828 C4827 1.258 . S
O4829 Cd4820 2.378 . S
O4829 C4827 1.256 . S
O4830 Cd4831 2.300 . S
O4830 C4837 1.275 . S
Cd4831 O4830 2.300 . S
Cd4831 O4839 2.381 . S
Cd4831 O4840 2.378 . S
O4832 Cd4833 2.385 . S
O4832 C4837 1.255 . S
Cd4833 O4832 2.385 . S
Cd4833 O4834 2.317 . S
O4834 Cd4833 2.317 . S
O4834 C4835 1.232 . S
C4835 O4834 1.232 . S
C4835 O4836 1.218 . S
O4836 C4835 1.218 . S
C4837 O4830 1.275 . S
C4837 O4832 1.255 . S
C4838 O4839 1.258 . S
C4838 O4840 1.256 . S
O4839 Cd4831 2.381 . S
O4839 C4838 1.258 . S
O4840 Cd4831 2.378 . S
O4840 C4838 1.256 . S
O4841 Cd4842 2.300 . S
O4841 C4848 1.275 . S
Cd4842 O4841 2.300 . S
Cd4842 O4850 2.381 . S
Cd4842 O4851 2.378 . S
O4843 Cd4844 2.385 . S
O4843 C4848 1.255 . S
Cd4844 O4843 2.385 . S
Cd4844 O4845 2.317 . S
O4845 Cd4844 2.317 . S
O4845 C4846 1.232 . S
C4846 O4845 1.232 . S
C4846 O4847 1.218 . S
O4847 C4846 1.218 . S
C4848 O4841 1.275 . S
C4848 O4843 1.255 . S
C4849 O4850 1.258 . S
C4849 O4851 1.256 . S
O4850 Cd4842 2.381 . S
O4850 C4849 1.258 . S
O4851 Cd4842 2.378 . S
O4851 C4849 1.256 . S
O4852 Cd4853 2.300 . S
O4852 C4859 1.275 . S
Cd4853 O4852 2.300 . S
Cd4853 O4861 2.381 . S
Cd4853 O4862 2.378 . S
O4854 Cd4855 2.385 . S
O4854 C4859 1.255 . S
Cd4855 O4854 2.385 . S
Cd4855 O4856 2.317 . S
O4856 Cd4855 2.317 . S
O4856 C4857 1.232 . S
C4857 O4856 1.232 . S
C4857 O4858 1.218 . S
O4858 C4857 1.218 . S
C4859 O4852 1.275 . S
C4859 O4854 1.255 . S
C4860 O4861 1.258 . S
C4860 O4862 1.256 . S
O4861 Cd4853 2.381 . S
O4861 C4860 1.258 . S
O4862 Cd4853 2.378 . S
O4862 C4860 1.256 . S
O4863 Cd4864 2.300 . S
O4863 C4870 1.275 . S
Cd4864 O4863 2.300 . S
Cd4864 O4872 2.381 . S
Cd4864 O4873 2.378 . S
O4865 Cd4866 2.385 . S
O4865 C4870 1.255 . S
Cd4866 O4865 2.385 . S
Cd4866 O4867 2.317 . S
O4867 Cd4866 2.317 . S
O4867 C4868 1.232 . S
C4868 O4867 1.232 . S
C4868 O4869 1.218 . S
O4869 C4868 1.218 . S
C4870 O4863 1.275 . S
C4870 O4865 1.255 . S
C4871 O4872 1.258 . S
C4871 O4873 1.256 . S
O4872 Cd4864 2.381 . S
O4872 C4871 1.258 . S
O4873 Cd4864 2.378 . S
O4873 C4871 1.256 . S
O4874 Cd4875 2.300 . S
O4874 C4881 1.275 . S
Cd4875 O4874 2.300 . S
Cd4875 O4883 2.381 . S
Cd4875 O4884 2.378 . S
O4876 Cd4877 2.385 . S
O4876 C4881 1.255 . S
Cd4877 O4876 2.385 . S
Cd4877 O4878 2.317 . S
O4878 Cd4877 2.317 . S
O4878 C4879 1.232 . S
C4879 O4878 1.232 . S
C4879 O4880 1.218 . S
O4880 C4879 1.218 . S
C4881 O4874 1.275 . S
C4881 O4876 1.255 . S
C4882 O4883 1.258 . S
C4882 O4884 1.256 . S
O4883 Cd4875 2.381 . S
O4883 C4882 1.258 . S
O4884 Cd4875 2.378 . S
O4884 C4882 1.256 . S
O4885 Cd4886 2.300 . S
O4885 C4892 1.275 . S
Cd4886 O4885 2.300 . S
Cd4886 O4894 2.381 . S
Cd4886 O4895 2.378 . S
O4887 Cd4888 2.385 . S
O4887 C4892 1.255 . S
Cd4888 O4887 2.385 . S
Cd4888 O4889 2.317 . S
O4889 Cd4888 2.317 . S
O4889 C4890 1.232 . S
C4890 O4889 1.232 . S
C4890 O4891 1.218 . S
O4891 C4890 1.218 . S
C4892 O4885 1.275 . S
C4892 O4887 1.255 . S
C4893 O4894 1.258 . S
C4893 O4895 1.256 . S
O4894 Cd4886 2.381 . S
O4894 C4893 1.258 . S
O4895 Cd4886 2.378 . S
O4895 C4893 1.256 . S
C4123 C15 1.825 1_655 S
C4662 C55 1.826 . S
C4145 C95 1.825 . S
C4640 C135 1.826 . S
C4189 C175 1.826 1_655 S
C215 C4684 1.825 . S
C4167 C255 1.826 . S
C4706 C295 1.825 . S
C4882 C335 1.825 1_565 S
C375 C4816 1.826 . S
C4893 C415 1.826 1_545 S
C455 C4871 1.825 . S
C4838 C495 1.825 1_545 S
C4321 C535 1.826 . S
C4332 C575 1.826 1_565 S
C615 C4299 1.825 . S
C655 C4783 1.825 1_554 S
C4233 C695 1.826 1_554 S
C4728 C735 1.826 . S
C4211 C775 1.825 . S
C815 C4222 1.825 . S
C4805 C855 1.826 . S
C4772 C895 1.826 . S
C935 C4794 1.825 . S
C975 C3859 1.845 1_655 S
C1015 C4398 1.846 . S
C3881 C1055 1.845 . S
C1095 C4376 1.846 . S
C3925 C1135 1.846 1_455 S
C1175 C4420 1.845 . S
C3903 C1215 1.846 . S
C4442 C1255 1.845 . S
C1295 C4618 1.845 1_565 S
C4552 C1335 1.846 . S
C1375 C4629 1.845 1_545 S
C4607 C1415 1.846 . S
C4574 C1455 1.846 1_565 S
C1495 C4057 1.845 . S
C1535 C4068 1.846 1_565 S
C4035 C1575 1.845 . S
C1615 C4519 1.845 1_556 S
C3969 C1655 1.846 1_556 S
C1695 C4464 1.846 . S
C3947 C1735 1.845 . S
C1775 C3958 1.845 . S
C4541 C1815 1.846 . S
C4508 C1855 1.846 . S
C4530 C1895 1.845 . S
C1935 C4651 1.825 . S
C4134 C1975 1.826 . S
C4673 C2015 1.825 1_455 S
C4112 C2055 1.826 . S
C2095 C4717 1.826 . S
C4156 C2135 1.825 . S
C4695 C2175 1.826 1_455 S
C4178 C2215 1.825 . S
C2255 C4354 1.825 . S
C4288 C2295 1.826 . S
C4365 C2335 1.826 . S
C2375 C4343 1.825 . S
C2415 C4310 1.825 . S
C2455 C4849 1.826 . S
C2495 C4860 1.826 . S
C4827 C2535 1.825 . S
C2575 C4255 1.825 . S
C4761 C2615 1.826 . S
C4200 C2655 1.826 . S
C4739 C2695 1.825 1_554 S
C2735 C4750 1.825 . S
C2775 C4277 1.826 1_554 S
C4244 C2815 1.826 . S
C2855 C4266 1.825 . S
C2895 C4387 1.845 . S
C3870 C2935 1.846 . S
C4409 C2975 1.845 1_655 S
C3015 C3848 1.846 . S
C4453 C3055 1.846 . S
C3892 C3095 1.845 . S
C3135 C4431 1.846 1_455 S
C3175 C3914 1.845 . S
C4090 C3215 1.845 . S
C3255 C4024 1.846 . S
C4101 C3295 1.845 . S
C4079 C3335 1.846 . S
C3375 C4046 1.846 . S
C3415 C4585 1.845 . S
C4596 C3455 1.846 . S
C3495 C4563 1.845 . S
C3991 C3535 1.845 . S
C4497 C3575 1.846 . S
C3615 C3936 1.846 . S
C3655 C4475 1.845 1_554 S
C3695 C4486 1.845 . S
C3735 C4013 1.846 1_556 S
C3775 C3980 1.846 . S
C4002 C3815 1.845 . S
C3944 C2 1.736 . S
C3955 C42 1.737 . S
C82 C3966 1.736 . S
C122 C3933 1.738 . S
C162 C4010 1.738 . S
C3977 C202 1.736 . S
C3988 C242 1.737 . S
C282 C3999 1.736 . S
C322 C3878 1.736 . S
C362 C3845 1.737 . S
C402 C3856 1.737 . S
C3867 C442 1.737 . S
C482 C3900 1.737 . S
C522 C3911 1.737 . S
C562 C3922 1.737 . S
C602 C3889 1.736 . S
C4043 C642 1.736 . S
C682 C4615 1.737 . S
C4021 C722 1.737 . S
C4626 C762 1.737 . S
C802 C4604 1.736 . S
C842 C4593 1.737 . S
C4560 C882 1.737 . S
C4582 C922 1.737 . S
C4208 C962 3.000 . S
C4219 C1002 3.000 . S
C4230 C1042 3.000 . S
C1082 C4197 3.001 . S
C1122 C4274 3.001 . S
C4241 C1162 3.000 . S
C1202 C4252 3.000 . S
C4263 C1242 3.000 . S
C1282 C4142 3.000 . S
C4109 C1322 3.001 . S
C1362 C4120 3.000 . S
C4131 C1402 3.000 . S
C4164 C1442 3.000 . S
C1482 C4175 3.000 . S
C4186 C1522 3.001 . S
C4153 C1562 3.000 . S
C4307 C1602 3.000 . S
C4879 C1642 3.000 . S
C4285 C1682 3.001 . S
C1722 C4890 3.000 . S
C1762 C4868 3.000 . S
C4857 C1802 3.001 . S
C4824 C1842 3.000 . S
C4846 C1882 3.000 . S
C1922 C4472 1.736 . S
C4483 C1962 1.737 . S
C2002 C4494 1.736 . S
C4461 C2042 1.738 . S
C2082 C4538 1.738 . S
C2122 C4505 1.736 . S
C2162 C4516 1.737 . S
C2202 C4527 1.736 . S
C2242 C4406 1.736 . S
C4373 C2282 1.737 . S
C4384 C2322 1.737 . S
C2362 C4395 1.737 . S
C2402 C4428 1.737 . S
C2442 C4439 1.737 . S
C2482 C4450 1.737 . S
C2522 C4417 1.736 . S
C4571 C2562 1.736 . S
C4087 C2602 1.737 . S
C4549 C2642 1.737 . S
C4098 C2682 1.737 . S
C4076 C2722 1.736 . S
C4065 C2762 1.737 . S
C2802 C4032 1.737 . S
C4054 C2842 1.737 . S
C2882 C4736 3.000 . S
C2922 C4747 3.000 . S
C4758 C2962 3.000 . S
C3002 C4725 3.001 . S
C4802 C3042 3.001 . S
C3082 C4769 3.000 . S
C3122 C4780 3.000 . S
C4791 C3162 3.000 . S
C4670 C3202 3.000 . S
C4637 C3242 3.001 . S
C4648 C3282 3.000 . S
C4659 C3322 3.000 . S
C3362 C4692 3.000 . S
C4703 C3402 3.000 . S
C3442 C4714 3.001 . S
C3482 C4681 3.000 . S
C3522 C4835 3.000 . S
C3562 C4351 3.000 . S
C3602 C4813 3.001 . S
C4362 C3642 3.000 . S
C3682 C4340 3.000 . S
C3722 C4329 3.001 . S
C3762 C4296 3.000 . S
C4318 C3802 3.000 . S
C21 C3847 2.130 . S
C61 C3858 2.130 . S
C101 C3869 2.130 . S
C3880 C141 2.131 . S
C3891 C181 2.131 . S
C221 C3902 2.130 . S
C261 C3913 2.130 . S
C301 C3924 2.130 . S
C3935 C341 2.130 . S
C3946 C381 2.131 . S
C421 C3957 2.130 . S
C3968 C461 2.130 . S
C501 C3979 2.130 . S
C541 C3990 2.130 . S
C581 C4001 2.131 . S
C621 C4012 2.130 . S
C661 C4023 2.130 . S
C701 C4034 2.130 . S
C4045 C741 2.131 . S
C4056 C781 2.130 . S
C4067 C821 2.130 . S
C4078 C861 2.131 . S
C901 C4089 2.130 . S
C4100 C941 2.130 . S
C981 C4111 2.829 . S
C1021 C4122 2.830 . S
C1061 C4133 2.829 . S
C4144 C1101 2.831 . S
C1141 C4155 2.831 . S
C4166 C1181 2.829 . S
C1221 C4177 2.830 . S
C1261 C4188 2.829 . S
C4199 C1301 2.829 . S
C1341 C4210 2.831 . S
C4221 C1381 2.830 . S
C1421 C4232 2.830 . S
C4243 C1461 2.830 . S
C4254 C1501 2.830 . S
C4265 C1541 2.831 . S
C1581 C4276 2.829 . S
C1621 C4287 2.830 . S
C1661 C4298 2.830 . S
C1701 C4309 2.831 . S
C1741 C4320 2.830 . S
C1781 C4331 2.830 . S
C4342 C1821 2.831 . S
C1861 C4353 2.830 . S
C4364 C1901 2.830 . S
C1941 C4375 2.130 . S
C4386 C1981 2.130 . S
C4397 C2021 2.130 . S
C4408 C2061 2.131 . S
C2101 C4419 2.131 . S
C2141 C4430 2.130 . S
C4441 C2181 2.130 . S
C4452 C2221 2.130 . S
C2261 C4463 2.130 . S
C2301 C4474 2.131 . S
C2341 C4485 2.130 . S
C2381 C4496 2.130 . S
C2421 C4507 2.130 . S
C4518 C2461 2.130 . S
C4529 C2501 2.131 . S
C4540 C2541 2.130 . S
C4551 C2581 2.130 . S
C2621 C4562 2.130 . S
C2661 C4573 2.131 . S
C4584 C2701 2.130 . S
C2741 C4595 2.130 . S
C4606 C2781 2.131 . S
C4617 C2821 2.130 . S
C4628 C2861 2.130 . S
C2901 C4639 2.829 . S
C2941 C4650 2.830 . S
C2981 C4661 2.829 . S
C3021 C4672 2.831 . S
C4683 C3061 2.831 . S
C4694 C3101 2.829 . S
C4705 C3141 2.830 . S
C3181 C4716 2.829 . S
C3221 C4727 2.829 . S
C4738 C3261 2.831 . S
C4749 C3301 2.830 . S
C4760 C3341 2.830 . S
C4771 C3381 2.830 . S
C4782 C3421 2.830 . S
C4793 C3461 2.831 . S
C4804 C3501 2.829 . S
C4815 C3541 2.830 . S
C4826 C3581 2.830 . S
C4837 C3621 2.831 . S
C3661 C4848 2.830 . S
C4859 C3701 2.830 . S
C3741 C4870 2.831 . S
C4881 C3781 2.830 . S
C4892 C3821 2.830 . S
