# Generated by pormake.
# Topology ocu, (6,8)-cn, num edge types: 1
# Building blocks:
#     Node 0, Type 0, BuildingBlock: KUMBOL_clean_sbu_0, # of connection points: 6
#     Node 1, Type 0, BuildingBlock: KUMBOL_clean_sbu_0, # of connection points: 6
#     Node 2, Type 0, BuildingBlock: KUMBOL_clean_sbu_0, # of connection points: 6
#     Node 3, Type 0, BuildingBlock: KUMBOL_clean_sbu_0, # of connection points: 6
#     Node 4, Type 0, BuildingBlock: KUMBOL_clean_sbu_0, # of connection points: 6
#     Node 5, Type 0, BuildingBlock: KUMBOL_clean_sbu_0, # of connection points: 6
#     Node 6, Type 0, BuildingBlock: KUMBOL_clean_sbu_0, # of connection points: 6
#     Node 7, Type 0, BuildingBlock: KUMBOL_clean_sbu_0, # of connection points: 6
#     Node 8, Type 1, BuildingBlock: TAGTUT_clean_sbu_1, # of connection points: 8
#     Node 9, Type 1, BuildingBlock: TAGTUT_clean_sbu_1, # of connection points: 8
#     Node 10, Type 1, BuildingBlock: TAGTUT_clean_sbu_1, # of connection points: 8
#     Node 11, Type 1, BuildingBlock: TAGTUT_clean_sbu_1, # of connection points: 8
#     Node 12, Type 1, BuildingBlock: TAGTUT_clean_sbu_1, # of connection points: 8
#     Node 13, Type 1, BuildingBlock: TAGTUT_clean_sbu_1, # of connection points: 8
#     Edge 14, Type (0, 1), BuildingBlock: MIFKUJ_clean_linker_0, # of connection points: 2
#     Edge 15, Type (0, 1), BuildingBlock: MIFKUJ_clean_linker_0, # of connection points: 2
#     Edge 16, Type (0, 1), BuildingBlock: MIFKUJ_clean_linker_0, # of connection points: 2
#     Edge 17, Type (0, 1), BuildingBlock: MIFKUJ_clean_linker_0, # of connection points: 2
#     Edge 18, Type (0, 1), BuildingBlock: MIFKUJ_clean_linker_0, # of connection points: 2
#     Edge 19, Type (0, 1), BuildingBlock: MIFKUJ_clean_linker_0, # of connection points: 2
#     Edge 20, Type (0, 1), BuildingBlock: MIFKUJ_clean_linker_0, # of connection points: 2
#     Edge 21, Type (0, 1), BuildingBlock: MIFKUJ_clean_linker_0, # of connection points: 2
#     Edge 22, Type (0, 1), BuildingBlock: MIFKUJ_clean_linker_0, # of connection points: 2
#     Edge 23, Type (0, 1), BuildingBlock: MIFKUJ_clean_linker_0, # of connection points: 2
#     Edge 24, Type (0, 1), BuildingBlock: MIFKUJ_clean_linker_0, # of connection points: 2
#     Edge 25, Type (0, 1), BuildingBlock: MIFKUJ_clean_linker_0, # of connection points: 2
#     Edge 26, Type (0, 1), BuildingBlock: MIFKUJ_clean_linker_0, # of connection points: 2
#     Edge 27, Type (0, 1), BuildingBlock: MIFKUJ_clean_linker_0, # of connection points: 2
#     Edge 28, Type (0, 1), BuildingBlock: MIFKUJ_clean_linker_0, # of connection points: 2
#     Edge 29, Type (0, 1), BuildingBlock: MIFKUJ_clean_linker_0, # of connection points: 2
#     Edge 30, Type (0, 1), BuildingBlock: MIFKUJ_clean_linker_0, # of connection points: 2
#     Edge 31, Type (0, 1), BuildingBlock: MIFKUJ_clean_linker_0, # of connection points: 2
#     Edge 32, Type (0, 1), BuildingBlock: MIFKUJ_clean_linker_0, # of connection points: 2
#     Edge 33, Type (0, 1), BuildingBlock: MIFKUJ_clean_linker_0, # of connection points: 2
#     Edge 34, Type (0, 1), BuildingBlock: MIFKUJ_clean_linker_0, # of connection points: 2
#     Edge 35, Type (0, 1), BuildingBlock: MIFKUJ_clean_linker_0, # of connection points: 2
#     Edge 36, Type (0, 1), BuildingBlock: MIFKUJ_clean_linker_0, # of connection points: 2
#     Edge 37, Type (0, 1), BuildingBlock: MIFKUJ_clean_linker_0, # of connection points: 2
#     Edge 38, Type (0, 1), BuildingBlock: MIFKUJ_clean_linker_0, # of connection points: 2
#     Edge 39, Type (0, 1), BuildingBlock: MIFKUJ_clean_linker_0, # of connection points: 2
#     Edge 40, Type (0, 1), BuildingBlock: MIFKUJ_clean_linker_0, # of connection points: 2
#     Edge 41, Type (0, 1), BuildingBlock: MIFKUJ_clean_linker_0, # of connection points: 2
#     Edge 42, Type (0, 1), BuildingBlock: MIFKUJ_clean_linker_0, # of connection points: 2
#     Edge 43, Type (0, 1), BuildingBlock: MIFKUJ_clean_linker_0, # of connection points: 2
#     Edge 44, Type (0, 1), BuildingBlock: MIFKUJ_clean_linker_0, # of connection points: 2
#     Edge 45, Type (0, 1), BuildingBlock: MIFKUJ_clean_linker_0, # of connection points: 2
#     Edge 46, Type (0, 1), BuildingBlock: MIFKUJ_clean_linker_0, # of connection points: 2
#     Edge 47, Type (0, 1), BuildingBlock: MIFKUJ_clean_linker_0, # of connection points: 2
#     Edge 48, Type (0, 1), BuildingBlock: MIFKUJ_clean_linker_0, # of connection points: 2
#     Edge 49, Type (0, 1), BuildingBlock: MIFKUJ_clean_linker_0, # of connection points: 2
#     Edge 50, Type (0, 1), BuildingBlock: MIFKUJ_clean_linker_0, # of connection points: 2
#     Edge 51, Type (0, 1), BuildingBlock: MIFKUJ_clean_linker_0, # of connection points: 2
#     Edge 52, Type (0, 1), BuildingBlock: MIFKUJ_clean_linker_0, # of connection points: 2
#     Edge 53, Type (0, 1), BuildingBlock: MIFKUJ_clean_linker_0, # of connection points: 2
#     Edge 54, Type (0, 1), BuildingBlock: MIFKUJ_clean_linker_0, # of connection points: 2
#     Edge 55, Type (0, 1), BuildingBlock: MIFKUJ_clean_linker_0, # of connection points: 2
#     Edge 56, Type (0, 1), BuildingBlock: MIFKUJ_clean_linker_0, # of connection points: 2
#     Edge 57, Type (0, 1), BuildingBlock: MIFKUJ_clean_linker_0, # of connection points: 2
#     Edge 58, Type (0, 1), BuildingBlock: MIFKUJ_clean_linker_0, # of connection points: 2
#     Edge 59, Type (0, 1), BuildingBlock: MIFKUJ_clean_linker_0, # of connection points: 2
#     Edge 60, Type (0, 1), BuildingBlock: MIFKUJ_clean_linker_0, # of connection points: 2
#     Edge 61, Type (0, 1), BuildingBlock: MIFKUJ_clean_linker_0, # of connection points: 2
# Relax obj value: 0.100
# Max RMSD: 0.271
# Mean RMSD: 0.147
data_MOF--net-ocu--node1-KUMBOL_clean_sbu_0--node2-TAGTUT_clean_sbu_1--edge1-MIFKUJ_clean_linker_0
_symmetry_space_group_name_H-M    P1
_symmetry_Int_Tables_number       1
_symmetry_cell_setting            triclinic
loop_
_symmetry_equiv_pos_as_xyz
'x, y, z'
_cell_length_a     50.841678
_cell_length_b     45.666936
_cell_length_c     54.062956
_cell_angle_alpha  85.606457
_cell_angle_beta   95.26693
_cell_angle_gamma 110.01869
loop_
_atom_site_label
_atom_site_type_symbol
_atom_site_fract_x
_atom_site_fract_y
_atom_site_fract_z
_atom_type_partial_charge
Gd0 Gd 0.28498 0.30362 0.28333 0.0
Gd1 Gd 0.24923 0.23451 0.25255 0.0
C2 C 0.18275 0.25261 0.19718 0.0
C3 C 0.13977 0.22586 0.21759 0.0
C4 C 0.18472 0.22569 0.2374 0.0
C5 C 0.1984 0.24416 0.21768 0.0
C6 C 0.15513 0.21568 0.23714 0.0
C7 C 0.15356 0.24408 0.19761 0.0
C8 C 0.1969 0.26921 0.17675 0.0
C9 C 0.22579 0.27619 0.17672 0.0
N10 N 0.22676 0.25248 0.21783 0.0
C11 C 0.24039 0.26717 0.19733 0.0
H12 H 0.26244 0.27173 0.19644 0.0
C13 C 0.18651 0.19146 0.27198 0.0
N14 N 0.19998 0.21505 0.25552 0.0
C15 C 0.15743 0.18158 0.27292 0.0
C16 C 0.14166 0.19429 0.25577 0.0
H17 H 0.19814 0.17977 0.28427 0.0
H18 H 0.14137 0.25093 0.18239 0.0
H19 H 0.26981 0.27039 0.34026 0.0
H20 H 0.1857 0.27612 0.1607 0.0
H21 H 0.23682 0.28826 0.16071 0.0
H22 H 0.1171 0.21873 0.21723 0.0
H23 H 0.33913 0.3558 0.25304 0.0
H24 H 0.34355 0.26029 0.37827 0.0
H25 H 0.29291 0.25249 0.377 0.0
H26 H 0.41505 0.31313 0.32309 0.0
H27 H 0.1472 0.16355 0.28647 0.0
H28 H 0.11902 0.18612 0.25621 0.0
H29 H 0.38881 0.28278 0.35802 0.0
H30 H 0.38995 0.36913 0.25225 0.0
N31 N 0.30582 0.2851 0.31913 0.0
C32 C 0.33325 0.26748 0.36167 0.0
C33 C 0.30467 0.2629 0.36098 0.0
C34 C 0.34839 0.28234 0.34127 0.0
C35 C 0.33398 0.29128 0.32005 0.0
C36 C 0.29138 0.27238 0.33966 0.0
N37 N 0.33466 0.31997 0.2819 0.0
C38 C 0.34873 0.30848 0.3005 0.0
C39 C 0.37863 0.3515 0.26561 0.0
C40 C 0.39304 0.33775 0.28326 0.0
C41 C 0.34957 0.34326 0.26583 0.0
C42 C 0.37828 0.31703 0.30165 0.0
H43 H 0.41569 0.34477 0.28349 0.0
O44 O 0.30297 0.35332 0.28847 0.0
O45 O 0.24502 0.2833 0.25732 0.0
O46 O 0.28898 0.25955 0.23359 0.0
O47 O 0.30047 0.31003 0.24543 0.0
O48 O 0.26944 0.32939 0.25073 0.0
O49 O 0.27136 0.32459 0.31236 0.0
O50 O 0.23038 0.18523 0.24556 0.0
O51 O 0.28545 0.25432 0.28098 0.0
O52 O 0.2439 0.27791 0.30089 0.0
O53 O 0.23635 0.22708 0.29163 0.0
O54 O 0.27291 0.20734 0.27768 0.0
O55 O 0.2626 0.21542 0.22242 0.0
C56 C 0.24618 0.30847 0.24319 0.0
C57 C 0.39242 0.30657 0.32199 0.0
C58 C 0.37752 0.28943 0.34186 0.0
C59 C 0.2903 0.35178 0.30853 0.0
C60 C 0.30801 0.36608 0.33046 0.0
C61 C 0.33661 0.36935 0.3337 0.0
C62 C 0.29593 0.37662 0.34854 0.0
C63 C 0.31213 0.39088 0.36963 0.0
C64 C 0.3527 0.38275 0.3549 0.0
C65 C 0.34059 0.39353 0.37283 0.0
C66 C 0.30326 0.28945 0.23129 0.0
C67 C 0.29204 0.22972 0.28901 0.0
C68 C 0.24366 0.18793 0.22554 0.0
C69 C 0.22699 0.1744 0.20286 0.0
C70 C 0.19799 0.16884 0.19951 0.0
C71 C 0.24073 0.16757 0.18392 0.0
C72 C 0.22586 0.15514 0.16172 0.0
C73 C 0.18312 0.15689 0.17739 0.0
C74 C 0.1969 0.15007 0.15856 0.0
C75 C 0.23186 0.24754 0.30498 0.0
H76 H 0.34662 0.36182 0.31987 0.0
H77 H 0.27377 0.37367 0.34612 0.0
H78 H 0.3747 0.38514 0.35729 0.0
H79 H 0.35358 0.40455 0.38883 0.0
H80 H 0.18681 0.17368 0.21387 0.0
H81 H 0.2632 0.1723 0.18644 0.0
H82 H 0.16078 0.15273 0.1749 0.0
H83 H 0.18482 0.14031 0.14176 0.0
Gd84 Gd 0.75241 0.27829 0.27769 0.0
Gd85 Gd 0.80524 0.24889 0.2556 0.0
C86 C 0.86749 0.28672 0.19476 0.0
C87 C 0.84677 0.25028 0.16218 0.0
C88 C 0.8236 0.24499 0.20057 0.0
C89 C 0.84436 0.27123 0.20909 0.0
C90 C 0.82485 0.23376 0.17722 0.0
C91 C 0.86817 0.27666 0.171 0.0
C92 C 0.88984 0.31104 0.20512 0.0
C93 C 0.88951 0.31813 0.22965 0.0
N94 N 0.84352 0.27957 0.23247 0.0
C95 C 0.86642 0.30162 0.24326 0.0
H96 H 0.86719 0.3068 0.26247 0.0
C97 C 0.78627 0.19929 0.21053 0.0
N98 N 0.80377 0.22863 0.21622 0.0
C99 C 0.78593 0.1877 0.18727 0.0
C100 C 0.80502 0.20528 0.17033 0.0
H101 H 0.77191 0.18506 0.22371 0.0
H102 H 0.88553 0.28857 0.15961 0.0
H103 H 0.70583 0.21233 0.24608 0.0
H104 H 0.90788 0.32363 0.19468 0.0
H105 H 0.90716 0.33609 0.23823 0.0
H106 H 0.84796 0.24217 0.14413 0.0
H107 H 0.77086 0.30693 0.33423 0.0
H108 H 0.63248 0.17712 0.2854 0.0
H109 H 0.65816 0.1781 0.24871 0.0
H110 H 0.6593 0.22564 0.36299 0.0
H111 H 0.77123 0.165 0.1826 0.0
H112 H 0.80516 0.19596 0.15252 0.0
H113 H 0.63341 0.19429 0.32807 0.0
H114 H 0.75102 0.3014 0.37467 0.0
N115 N 0.70785 0.2365 0.27929 0.0
C116 C 0.65353 0.19366 0.28397 0.0
C117 C 0.66787 0.19429 0.2632 0.0
C118 C 0.66716 0.21291 0.30337 0.0
C119 C 0.69463 0.23425 0.30057 0.0
C120 C 0.69517 0.21518 0.26142 0.0
N121 N 0.73598 0.27103 0.31783 0.0
C122 C 0.70924 0.25174 0.32044 0.0
C123 C 0.73914 0.28699 0.35971 0.0
C124 C 0.71212 0.26638 0.363 0.0
C125 C 0.75054 0.28952 0.3368 0.0
C126 C 0.69669 0.24872 0.34323 0.0
H127 H 0.70324 0.26461 0.38076 0.0
O128 O 0.76961 0.32682 0.2879 0.0
O129 O 0.79215 0.29022 0.25891 0.0
O130 O 0.82419 0.28715 0.28316 0.0
O131 O 0.78701 0.27763 0.30749 0.0
O132 O 0.76216 0.3088 0.24254 0.0
O133 O 0.7248 0.30461 0.27994 0.0
O134 O 0.81256 0.20559 0.26689 0.0
O135 O 0.77221 0.24241 0.28172 0.0
O136 O 0.73603 0.26106 0.23915 0.0
O137 O 0.77199 0.2467 0.22394 0.0
O138 O 0.77122 0.203 0.26494 0.0
O139 O 0.84352 0.24929 0.27741 0.0
C140 C 0.78727 0.30824 0.24154 0.0
C141 C 0.66922 0.2282 0.34567 0.0
C142 C 0.65444 0.21047 0.32575 0.0
C143 C 0.74532 0.3308 0.2837 0.0
C144 C 0.74406 0.3578 0.26731 0.0
C145 C 0.76823 0.38379 0.26339 0.0
C146 C 0.71839 0.35723 0.2549 0.0
C147 C 0.71679 0.38158 0.23807 0.0
C148 C 0.7667 0.40847 0.24703 0.0
C149 C 0.74118 0.40739 0.23433 0.0
C150 C 0.81426 0.28873 0.30462 0.0
C151 C 0.75959 0.21371 0.28045 0.0
C152 C 0.83575 0.21913 0.27988 0.0
C153 C 0.83903 0.20581 0.30501 0.0
C154 C 0.81585 0.18971 0.3188 0.0
C155 C 0.86607 0.20851 0.31497 0.0
C156 C 0.87027 0.19418 0.33821 0.0
C157 C 0.81977 0.17588 0.34209 0.0
C158 C 0.84671 0.17773 0.35167 0.0
C159 C 0.74688 0.25006 0.22192 0.0
H160 H 0.7883 0.38495 0.27277 0.0
H161 H 0.69948 0.33764 0.25821 0.0
H162 H 0.78542 0.42833 0.24394 0.0
H163 H 0.74065 0.42643 0.22129 0.0
H164 H 0.79478 0.18742 0.31151 0.0
H165 H 0.8838 0.22177 0.30438 0.0
H166 H 0.80182 0.16323 0.35255 0.0
H167 H 0.8489 0.16574 0.36938 0.0
Gd168 Gd 0.77756 0.75374 0.29203 0.0
Gd169 Gd 0.78138 0.8148 0.24696 0.0
C170 C 0.84221 0.82984 0.18604 0.0
C171 C 0.8772 0.87992 0.19584 0.0
C172 C 0.83691 0.85735 0.22071 0.0
C173 C 0.82755 0.83142 0.20655 0.0
C174 C 0.86135 0.88239 0.21504 0.0
C175 C 0.86762 0.85367 0.18133 0.0
C176 C 0.83015 0.80524 0.17013 0.0
C177 C 0.80354 0.78393 0.17421 0.0
N178 N 0.80261 0.80929 0.21131 0.0
C179 C 0.78983 0.78657 0.19479 0.0
H180 H 0.76936 0.76975 0.19773 0.0
C181 C 0.82604 0.88681 0.24976 0.0
N182 N 0.82061 0.8593 0.23856 0.0
C183 C 0.85029 0.91212 0.24513 0.0
C184 C 0.86833 0.9097 0.22802 0.0
H185 H 0.8119 0.88899 0.26265 0.0
H186 H 0.87939 0.85263 0.16589 0.0
H187 H 0.78073 0.795 0.34213 0.0
H188 H 0.84072 0.80317 0.15418 0.0
H189 H 0.79365 0.7653 0.16165 0.0
H190 H 0.89624 0.89873 0.1914 0.0
H191 H 0.75754 0.67736 0.27699 0.0
H192 H 0.70554 0.75155 0.3795 0.0
H193 H 0.75128 0.79343 0.37604 0.0
H194 H 0.66247 0.65558 0.33901 0.0
H195 H 0.85493 0.93353 0.25462 0.0
H196 H 0.88694 0.92946 0.22423 0.0
H197 H 0.67192 0.70054 0.36489 0.0
H198 H 0.71686 0.62965 0.2819 0.0
N199 N 0.75171 0.75441 0.32579 0.0
C200 C 0.71838 0.75195 0.36447 0.0
C201 C 0.74423 0.77565 0.36263 0.0
C202 C 0.71024 0.728 0.34782 0.0
C203 C 0.72792 0.72949 0.32876 0.0
C204 C 0.76091 0.77636 0.34328 0.0
N205 N 0.74223 0.70467 0.29853 0.0
C206 C 0.72295 0.70386 0.31462 0.0
C207 C 0.71814 0.65046 0.29099 0.0
C208 C 0.69699 0.65003 0.30587 0.0
C209 C 0.74113 0.67781 0.28807 0.0
C210 C 0.69969 0.67657 0.31858 0.0
H211 H 0.67937 0.62868 0.30832 0.0
O212 O 0.78981 0.73043 0.32533 0.0
O213 O 0.79845 0.77489 0.25616 0.0
O214 O 0.74639 0.77119 0.23485 0.0
O215 O 0.73895 0.73366 0.26742 0.0
O216 O 0.78253 0.72712 0.25991 0.0
O217 O 0.8186 0.74846 0.29643 0.0
O218 O 0.76188 0.85052 0.24226 0.0
O219 O 0.75878 0.79227 0.28192 0.0
O220 O 0.80634 0.80007 0.30611 0.0
O221 O 0.82235 0.8292 0.27028 0.0
O222 O 0.7743 0.84009 0.27915 0.0
O223 O 0.75413 0.81705 0.21398 0.0
C224 C 0.79595 0.74967 0.2451 0.0
C225 C 0.68065 0.67616 0.33595 0.0
C226 C 0.68599 0.70179 0.35065 0.0
C227 C 0.81491 0.73546 0.3186 0.0
C228 C 0.83837 0.74705 0.33718 0.0
C229 C 0.83922 0.76903 0.35426 0.0
C230 C 0.86028 0.73509 0.33782 0.0
C231 C 0.88261 0.74362 0.35612 0.0
C232 C 0.86195 0.77868 0.37193 0.0
C233 C 0.88349 0.76597 0.373 0.0
C234 C 0.73227 0.74393 0.24527 0.0
C235 C 0.7599 0.81699 0.29299 0.0
C236 C 0.75033 0.84213 0.22034 0.0
C237 C 0.75338 0.86747 0.20133 0.0
C238 C 0.77652 0.87812 0.1867 0.0
C239 C 0.73297 0.88188 0.19845 0.0
C240 C 0.73544 0.90704 0.18111 0.0
C241 C 0.7792 0.90314 0.16942 0.0
C242 C 0.75882 0.91758 0.1666 0.0
C243 C 0.82513 0.82304 0.29437 0.0
H244 H 0.82249 0.77868 0.35395 0.0
H245 H 0.85952 0.71846 0.32425 0.0
H246 H 0.8626 0.79554 0.38517 0.0
H247 H 0.9002 0.77281 0.38756 0.0
H248 H 0.79244 0.8672 0.18864 0.0
H249 H 0.71494 0.87313 0.20958 0.0
H250 H 0.79713 0.91139 0.15821 0.0
H251 H 0.76147 0.9371 0.15322 0.0
Gd252 Gd 0.24684 0.80907 0.25959 0.0
Gd253 Gd 0.27973 0.75002 0.27776 0.0
C254 C 0.26265 0.68254 0.34625 0.0
C255 C 0.30503 0.70379 0.37307 0.0
C256 C 0.2999 0.72852 0.33225 0.0
C257 C 0.27357 0.70665 0.32815 0.0
C258 C 0.31609 0.72717 0.35469 0.0
C259 C 0.27834 0.68152 0.36886 0.0
C260 C 0.23652 0.65985 0.34089 0.0
C261 C 0.22227 0.66116 0.31776 0.0
N262 N 0.25894 0.70838 0.30615 0.0
C263 C 0.23393 0.68555 0.30047 0.0
H264 H 0.22263 0.68626 0.28271 0.0
C265 C 0.33646 0.77206 0.31703 0.0
N266 N 0.30976 0.75107 0.3142 0.0
C267 C 0.35323 0.77166 0.33896 0.0
C268 C 0.34294 0.74928 0.35795 0.0
H269 H 0.34483 0.78974 0.30274 0.0
H270 H 0.27019 0.66335 0.38306 0.0
H271 H 0.31324 0.84742 0.29036 0.0
H272 H 0.22742 0.64097 0.35428 0.0
H273 H 0.20221 0.6435 0.31326 0.0
H274 H 0.31706 0.70254 0.39049 0.0
H275 H 0.21497 0.80481 0.20283 0.0
H276 H 0.3405 0.94103 0.26164 0.0
H277 H 0.34501 0.90073 0.29284 0.0
H278 H 0.28545 0.93583 0.18446 0.0
H279 H 0.37411 0.78866 0.34122 0.0
H280 H 0.35599 0.7491 0.37494 0.0
H281 H 0.31871 0.9537 0.22055 0.0
H282 H 0.21508 0.83806 0.16491 0.0
N283 N 0.28604 0.85731 0.2606 0.0
C284 C 0.32558 0.91758 0.26075 0.0
C285 C 0.32804 0.89495 0.27857 0.0
C286 C 0.30508 0.90907 0.24115 0.0
C287 C 0.28554 0.87835 0.24148 0.0
C288 C 0.30883 0.86464 0.27765 0.0
N289 N 0.2493 0.83848 0.22161 0.0
C290 C 0.26688 0.86844 0.22119 0.0
C291 C 0.23001 0.84686 0.18047 0.0
C292 C 0.24832 0.87758 0.1796 0.0
C293 C 0.23047 0.82777 0.20186 0.0
C294 C 0.2669 0.88884 0.20016 0.0
H295 H 0.24775 0.89248 0.16311 0.0
O296 O 0.20249 0.79167 0.24736 0.0
O297 O 0.24122 0.76221 0.278 0.0
O298 O 0.23947 0.73146 0.25364 0.0
O299 O 0.24169 0.77542 0.22918 0.0
O300 O 0.2228 0.78924 0.29413 0.0
O301 O 0.22189 0.83907 0.25951 0.0
O302 O 0.31149 0.74328 0.25675 0.0
O303 O 0.27893 0.78987 0.25085 0.0
O304 O 0.26631 0.8202 0.29855 0.0
O305 O 0.28467 0.7797 0.31078 0.0
O306 O 0.31778 0.78974 0.26483 0.0
O307 O 0.27329 0.70504 0.26278 0.0
C308 C 0.2258 0.76222 0.29519 0.0
C309 C 0.28537 0.91974 0.20029 0.0
C310 C 0.30425 0.92992 0.22086 0.0
C311 C 0.19851 0.81703 0.253 0.0
C312 C 0.17428 0.81273 0.26759 0.0
C313 C 0.14719 0.7962 0.25773 0.0
C314 C 0.17781 0.82538 0.29105 0.0
C315 C 0.15448 0.82204 0.30441 0.0
C316 C 0.12392 0.79238 0.27111 0.0
C317 C 0.12746 0.80536 0.29426 0.0
C318 C 0.23236 0.74473 0.23275 0.0
C319 C 0.30487 0.80445 0.24992 0.0
C320 C 0.2977 0.71394 0.2537 0.0
C321 C 0.31392 0.69281 0.25822 0.0
C322 C 0.32303 0.68524 0.28236 0.0
C323 C 0.32139 0.68113 0.23777 0.0
C324 C 0.33844 0.66243 0.24117 0.0
C325 C 0.33982 0.66638 0.28589 0.0
C326 C 0.34774 0.65522 0.2654 0.0
C327 C 0.27901 0.8052 0.31499 0.0
H328 H 0.14406 0.78628 0.23966 0.0
H329 H 0.19865 0.83852 0.29867 0.0
H330 H 0.10307 0.77947 0.26346 0.0
H331 H 0.10912 0.80224 0.30429 0.0
H332 H 0.31745 0.69413 0.29834 0.0
H333 H 0.31464 0.68742 0.21911 0.0
H334 H 0.34696 0.66069 0.30452 0.0
H335 H 0.36101 0.64093 0.26844 0.0
Gd336 Gd 0.2754 0.81685 0.7775 0.0
Gd337 Gd 0.27888 0.74413 0.76409 0.0
C338 C 0.3501 0.76425 0.71222 0.0
C339 C 0.32486 0.75701 0.67162 0.0
C340 C 0.29926 0.74923 0.70899 0.0
C341 C 0.32446 0.75679 0.7236 0.0
C342 C 0.29935 0.74834 0.68288 0.0
C343 C 0.35017 0.76506 0.68624 0.0
C344 C 0.37503 0.7703 0.72725 0.0
C345 C 0.37399 0.76729 0.75296 0.0
N346 N 0.32397 0.7562 0.74881 0.0
C347 C 0.34822 0.75943 0.76344 0.0
H348 H 0.3483 0.75505 0.78323 0.0
C349 C 0.2499 0.72751 0.70672 0.0
N350 N 0.27471 0.74139 0.72021 0.0
C351 C 0.24896 0.72664 0.68087 0.0
C352 C 0.27375 0.73789 0.66882 0.0
H353 H 0.23059 0.71636 0.71568 0.0
H354 H 0.36969 0.77123 0.67729 0.0
H355 H 0.20437 0.79999 0.76463 0.0
H356 H 0.39506 0.77623 0.7192 0.0
H357 H 0.39303 0.77042 0.76478 0.0
H358 H 0.32523 0.75695 0.65162 0.0
H359 H 0.32805 0.85358 0.81907 0.0
H360 H 0.16633 0.7903 0.83273 0.0
H361 H 0.16248 0.78758 0.78712 0.0
H362 H 0.2439 0.82245 0.89286 0.0
H363 H 0.2292 0.71668 0.67026 0.0
H364 H 0.27296 0.73693 0.64879 0.0
H365 H 0.19671 0.80406 0.87153 0.0
H366 H 0.33549 0.86258 0.86355 0.0
N367 N 0.23283 0.80546 0.79702 0.0
C368 C 0.18508 0.79472 0.82294 0.0
C369 C 0.18283 0.79312 0.79723 0.0
C370 C 0.21157 0.80306 0.83562 0.0
C371 C 0.23543 0.80833 0.82209 0.0
C372 C 0.20699 0.79938 0.78449 0.0
N373 N 0.28477 0.82563 0.82048 0.0
C374 C 0.26207 0.81835 0.83415 0.0
C375 C 0.31486 0.84912 0.8558 0.0
C376 C 0.29224 0.83863 0.87071 0.0
C377 C 0.31057 0.8433 0.83054 0.0
C378 C 0.26532 0.82415 0.85978 0.0
H379 H 0.29549 0.84371 0.89022 0.0
O380 O 0.3067 0.86334 0.77479 0.0
O381 O 0.29974 0.7957 0.75593 0.0
O382 O 0.308 0.75704 0.79806 0.0
O383 O 0.31601 0.81022 0.79346 0.0
O384 O 0.28185 0.82613 0.73656 0.0
O385 O 0.26295 0.85773 0.77656 0.0
O386 O 0.24728 0.69737 0.76515 0.0
O387 O 0.25429 0.76529 0.78549 0.0
O388 O 0.24347 0.80199 0.74527 0.0
O389 O 0.2379 0.74919 0.74845 0.0
O390 O 0.27032 0.73318 0.80472 0.0
O391 O 0.29074 0.70371 0.76104 0.0
C392 C 0.29819 0.81018 0.73491 0.0
C393 C 0.24162 0.81775 0.87331 0.0
C394 C 0.21483 0.80733 0.86123 0.0
C395 C 0.28795 0.87704 0.77244 0.0
C396 C 0.28957 0.89879 0.75075 0.0
C397 C 0.30991 0.92863 0.7505 0.0
C398 C 0.27052 0.88962 0.73007 0.0
C399 C 0.27114 0.91008 0.70933 0.0
C400 C 0.3107 0.94929 0.72987 0.0
C401 C 0.29117 0.94027 0.70949 0.0
C402 C 0.32155 0.78585 0.80433 0.0
C403 C 0.25475 0.75016 0.80642 0.0
C404 C 0.26596 0.68384 0.76479 0.0
C405 C 0.26509 0.65823 0.78332 0.0
C406 C 0.24157 0.63095 0.78373 0.0
C407 C 0.28902 0.65969 0.79898 0.0
C408 C 0.29072 0.6334 0.81332 0.0
C409 C 0.24236 0.60524 0.79921 0.0
C410 C 0.26691 0.6062 0.81366 0.0
C411 C 0.23027 0.77294 0.73932 0.0
H412 H 0.32495 0.936 0.76629 0.0
H413 H 0.25439 0.86678 0.73048 0.0
H414 H 0.32626 0.97245 0.72979 0.0
H415 H 0.29177 0.95676 0.69386 0.0
H416 H 0.22289 0.62932 0.77174 0.0
H417 H 0.30688 0.68112 0.7993 0.0
H418 H 0.22422 0.58412 0.79935 0.0
H419 H 0.26746 0.5854 0.82442 0.0
Gd420 Gd 0.2982 0.29215 0.74107 0.0
Gd421 Gd 0.25331 0.26657 0.79494 0.0
C422 C 0.27485 0.20965 0.86212 0.0
C423 C 0.23651 0.16023 0.85905 0.0
C424 C 0.23823 0.20314 0.82898 0.0
C425 C 0.26306 0.2214 0.84066 0.0
C426 C 0.2243 0.17256 0.83832 0.0
C427 C 0.26178 0.17875 0.87092 0.0
C428 C 0.29905 0.22955 0.87439 0.0
C429 C 0.31029 0.26055 0.86567 0.0
N430 N 0.27503 0.25113 0.83164 0.0
C431 C 0.29776 0.27111 0.84434 0.0
H432 H 0.30689 0.2951 0.83786 0.0
C433 C 0.20085 0.20015 0.79878 0.0
N434 N 0.22697 0.2159 0.80916 0.0
C435 C 0.18627 0.16964 0.80723 0.0
C436 C 0.19819 0.15563 0.82692 0.0
H437 H 0.19161 0.21087 0.7835 0.0
H438 H 0.2707 0.16919 0.88721 0.0
H439 H 0.24557 0.26392 0.69759 0.0
H440 H 0.30882 0.22141 0.89088 0.0
H441 H 0.3287 0.27634 0.87528 0.0
H442 H 0.22628 0.13667 0.86638 0.0
H443 H 0.36031 0.34734 0.75236 0.0
H444 H 0.24284 0.3386 0.64578 0.0
H445 H 0.22366 0.28318 0.66031 0.0
H446 H 0.32486 0.42333 0.67138 0.0
H447 H 0.16587 0.15697 0.79857 0.0
H448 H 0.18681 0.13205 0.83351 0.0
H449 H 0.28054 0.39103 0.65027 0.0
H450 H 0.38598 0.40155 0.73788 0.0
N451 N 0.27649 0.30816 0.70471 0.0
C452 C 0.2526 0.33026 0.66218 0.0
C453 C 0.24176 0.29895 0.67028 0.0
C454 C 0.27648 0.35016 0.67486 0.0
C455 C 0.28824 0.33815 0.6962 0.0
C456 C 0.25429 0.28813 0.69148 0.0
N457 N 0.32444 0.34317 0.72753 0.0
C458 C 0.31302 0.35629 0.70804 0.0
C459 C 0.36538 0.38917 0.72943 0.0
C460 C 0.35321 0.40364 0.71025 0.0
C461 C 0.35083 0.35854 0.7376 0.0
C462 C 0.32694 0.387 0.69896 0.0
H463 H 0.3646 0.4273 0.70383 0.0
O464 O 0.3369 0.28491 0.73402 0.0
O465 O 0.29175 0.26702 0.77805 0.0
O466 O 0.2879 0.31298 0.79989 0.0
O467 O 0.30214 0.3354 0.76078 0.0
O468 O 0.33256 0.2928 0.77103 0.0
O469 O 0.29868 0.26194 0.71196 0.0
O470 O 0.21441 0.27332 0.8022 0.0
O471 O 0.25958 0.29143 0.75782 0.0
O472 O 0.26414 0.24506 0.73651 0.0
O473 O 0.2504 0.2232 0.77592 0.0
O474 O 0.21895 0.26475 0.76473 0.0
O475 O 0.2532 0.29895 0.82236 0.0
C476 C 0.31684 0.27411 0.78703 0.0
C477 C 0.31465 0.39966 0.67848 0.0
C478 C 0.28942 0.38127 0.66646 0.0
C479 C 0.32558 0.26727 0.71534 0.0
C480 C 0.34134 0.27413 0.69277 0.0
C481 C 0.35087 0.30457 0.68219 0.0
C482 C 0.34714 0.25014 0.68178 0.0
C483 C 0.36265 0.25659 0.66038 0.0
C484 C 0.36629 0.31121 0.6612 0.0
C485 C 0.37229 0.28758 0.65046 0.0
C486 C 0.2995 0.33719 0.78469 0.0
C487 C 0.23451 0.28356 0.74872 0.0
C488 C 0.22616 0.2929 0.81959 0.0
C489 C 0.21148 0.28789 0.84264 0.0
C490 C 0.20807 0.26061 0.85763 0.0
C491 C 0.20086 0.31052 0.84981 0.0
C492 C 0.18645 0.30561 0.87173 0.0
C493 C 0.19405 0.2557 0.87937 0.0
C494 C 0.18327 0.27791 0.88637 0.0
C495 C 0.25333 0.22096 0.75213 0.0
H496 H 0.3466 0.32328 0.69024 0.0
H497 H 0.33934 0.22653 0.68979 0.0
H498 H 0.37382 0.33486 0.65331 0.0
H499 H 0.38489 0.29381 0.63453 0.0
H500 H 0.21623 0.24311 0.85253 0.0
H501 H 0.20352 0.33166 0.83823 0.0
H502 H 0.19157 0.23461 0.8909 0.0
H503 H 0.1728 0.2736 0.90352 0.0
Gd504 Gd 0.7606 0.30969 0.75655 0.0
Gd505 Gd 0.78151 0.24175 0.77861 0.0
C506 C 0.71367 0.1646 0.82009 0.0
C507 C 0.73277 0.17076 0.86288 0.0
C508 C 0.75928 0.20321 0.82945 0.0
C509 C 0.73779 0.18885 0.81218 0.0
C510 C 0.75745 0.19327 0.85487 0.0
C511 C 0.71088 0.15649 0.84551 0.0
C512 C 0.6934 0.14845 0.80223 0.0
C513 C 0.69819 0.15521 0.7772 0.0
N514 N 0.74107 0.19726 0.78763 0.0
C515 C 0.72243 0.17908 0.77022 0.0
H516 H 0.72583 0.18169 0.75076 0.0
C517 C 0.80674 0.23402 0.83693 0.0
N518 N 0.7829 0.22498 0.82125 0.0
C519 C 0.80597 0.22488 0.86219 0.0
C520 C 0.78097 0.20512 0.87136 0.0
H521 H 0.82646 0.24918 0.83024 0.0
H522 H 0.69227 0.13841 0.85185 0.0
H523 H 0.82625 0.35994 0.75938 0.0
H524 H 0.67464 0.12982 0.80756 0.0
H525 H 0.68336 0.14169 0.76318 0.0
H526 H 0.73083 0.16337 0.88236 0.0
H527 H 0.69661 0.29467 0.72761 0.0
H528 H 0.84171 0.41034 0.6892 0.0
H529 H 0.85801 0.39963 0.73256 0.0
H530 H 0.75262 0.37431 0.64328 0.0
H531 H 0.82469 0.23314 0.87457 0.0
H532 H 0.78041 0.19801 0.89094 0.0
H533 H 0.80264 0.39995 0.65574 0.0
H534 H 0.67493 0.30675 0.68727 0.0
N535 N 0.79253 0.34704 0.7315 0.0
C536 C 0.82783 0.39257 0.70093 0.0
C537 C 0.83701 0.38678 0.72535 0.0
C538 C 0.80034 0.37622 0.69219 0.0
C539 C 0.78289 0.35354 0.70824 0.0
C540 C 0.81885 0.36417 0.74057 0.0
N541 N 0.73846 0.31951 0.71811 0.0
C542 C 0.75489 0.33926 0.70128 0.0
C543 C 0.69749 0.31581 0.69086 0.0
C544 C 0.71436 0.33449 0.67273 0.0
C545 C 0.70991 0.3089 0.7137 0.0
C546 C 0.74339 0.34706 0.67802 0.0
H547 H 0.70468 0.33997 0.65511 0.0
O548 O 0.72852 0.32178 0.77325 0.0
O549 O 0.753 0.26789 0.783 0.0
O550 O 0.75254 0.23123 0.74313 0.0
O551 O 0.74847 0.27743 0.72403 0.0
O552 O 0.71822 0.27444 0.76384 0.0
O553 O 0.76991 0.35583 0.77011 0.0
O554 O 0.82369 0.23902 0.78514 0.0
O555 O 0.79497 0.28974 0.75994 0.0
O556 O 0.79418 0.32511 0.78823 0.0
O557 O 0.80121 0.2803 0.80675 0.0
O558 O 0.80353 0.25532 0.74307 0.0
O559 O 0.79003 0.20269 0.76575 0.0
C560 C 0.72655 0.25706 0.78026 0.0
C561 C 0.761 0.36823 0.66133 0.0
C562 C 0.78946 0.38283 0.66842 0.0
C563 C 0.74446 0.35054 0.77604 0.0
C564 C 0.73193 0.37453 0.76813 0.0
C565 C 0.7374 0.39189 0.74544 0.0
C566 C 0.71488 0.38086 0.78431 0.0
C567 C 0.70381 0.40491 0.77841 0.0
C568 C 0.72621 0.41578 0.73938 0.0
C569 C 0.7097 0.42257 0.75592 0.0
C570 C 0.74453 0.24709 0.72401 0.0
C571 C 0.80605 0.28423 0.74161 0.0
C572 C 0.81649 0.21304 0.77354 0.0
C573 C 0.82921 0.18933 0.78176 0.0
C574 C 0.82394 0.17226 0.80451 0.0
C575 C 0.84391 0.18091 0.76445 0.0
C576 C 0.85263 0.15491 0.76922 0.0
C577 C 0.83328 0.14678 0.8097 0.0
C578 C 0.84722 0.13782 0.79203 0.0
C579 C 0.80469 0.3106 0.80659 0.0
H580 H 0.75056 0.38732 0.73266 0.0
H581 H 0.71095 0.36766 0.80196 0.0
H582 H 0.73064 0.42931 0.72198 0.0
H583 H 0.70151 0.44144 0.7512 0.0
H584 H 0.81206 0.17804 0.81783 0.0
H585 H 0.84715 0.19359 0.74654 0.0
H586 H 0.82906 0.13344 0.8272 0.0
H587 H 0.85363 0.11756 0.79608 0.0
Gd588 Gd 0.78329 0.81177 0.78432 0.0
Gd589 Gd 0.765 0.74702 0.74281 0.0
C590 C 0.7425 0.78256 0.66487 0.0
C591 C 0.69198 0.75792 0.66092 0.0
C592 C 0.7186 0.75016 0.69934 0.0
C593 C 0.74344 0.76878 0.68919 0.0
C594 C 0.69266 0.74463 0.68511 0.0
C595 C 0.7168 0.77686 0.65086 0.0
C596 C 0.76734 0.80245 0.65538 0.0
C597 C 0.79234 0.80868 0.67003 0.0
N598 N 0.76817 0.77494 0.70339 0.0
C599 C 0.79243 0.79483 0.69394 0.0
H600 H 0.81234 0.80082 0.70422 0.0
C601 C 0.6952 0.71898 0.73297 0.0
N602 N 0.71948 0.73833 0.7232 0.0
C603 C 0.66926 0.71318 0.71961 0.0
C604 C 0.66793 0.72621 0.69565 0.0
H605 H 0.69518 0.70659 0.75069 0.0
H606 H 0.71584 0.78737 0.63228 0.0
H607 H 0.77189 0.76471 0.83556 0.0
H608 H 0.76739 0.81348 0.6369 0.0
H609 H 0.81168 0.8243 0.6629 0.0
H610 H 0.67226 0.75399 0.64992 0.0
H611 H 0.82335 0.87895 0.75725 0.0
H612 H 0.84432 0.79539 0.88646 0.0
H613 H 0.79657 0.75892 0.87596 0.0
H614 H 0.90412 0.88696 0.84453 0.0
H615 H 0.65028 0.6981 0.72768 0.0
H616 H 0.64773 0.72158 0.68533 0.0
H617 H 0.88451 0.84303 0.8744 0.0
H618 H 0.86884 0.92042 0.76611 0.0
N619 N 0.80573 0.80349 0.8227 0.0
C620 C 0.83365 0.79804 0.86859 0.0
C621 C 0.80666 0.77744 0.8628 0.0
C622 C 0.84626 0.82225 0.85144 0.0
C623 C 0.83147 0.82454 0.8284 0.0
C624 C 0.79276 0.78077 0.8398 0.0
N625 N 0.82727 0.85122 0.78994 0.0
C626 C 0.84255 0.84921 0.81158 0.0
C627 C 0.8618 0.90035 0.77889 0.0
C628 C 0.87834 0.89792 0.80052 0.0
C629 C 0.83607 0.8768 0.77392 0.0
C630 C 0.86867 0.87232 0.81731 0.0
H631 H 0.89824 0.91623 0.80431 0.0
O632 O 0.77024 0.85248 0.78397 0.0
O633 O 0.75532 0.79047 0.75021 0.0
O634 O 0.81122 0.77328 0.74097 0.0
O635 O 0.82377 0.81428 0.76818 0.0
O636 O 0.77773 0.83777 0.748 0.0
O637 O 0.76148 0.81893 0.81508 0.0
O638 O 0.74448 0.69767 0.73858 0.0
O639 O 0.78594 0.76487 0.77964 0.0
O640 O 0.74464 0.77367 0.79681 0.0
O641 O 0.73581 0.72998 0.77339 0.0
O642 O 0.78634 0.72203 0.77206 0.0
O643 O 0.78146 0.72274 0.71769 0.0
C644 C 0.75908 0.81548 0.73637 0.0
C645 C 0.88393 0.86955 0.83986 0.0
C646 C 0.87276 0.84455 0.85688 0.0
C647 C 0.76062 0.84583 0.80601 0.0
C648 C 0.769 0.87158 0.82339 0.0
C649 C 0.79621 0.89349 0.82395 0.0
C650 C 0.74958 0.8748 0.8392 0.0
C651 C 0.75733 0.89995 0.85529 0.0
C652 C 0.80402 0.91824 0.83969 0.0
C653 C 0.78481 0.92162 0.85508 0.0
C654 C 0.82982 0.79773 0.75178 0.0
C655 C 0.79483 0.74274 0.78861 0.0
C656 C 0.7619 0.69617 0.72282 0.0
C657 C 0.75896 0.66615 0.71207 0.0
C658 C 0.73754 0.63901 0.71978 0.0
C659 C 0.77708 0.66395 0.69448 0.0
C660 C 0.77362 0.63482 0.68472 0.0
C661 C 0.73424 0.61031 0.71043 0.0
C662 C 0.7521 0.60815 0.69316 0.0
C663 C 0.73025 0.74464 0.79123 0.0
H664 H 0.81142 0.89186 0.812 0.0
H665 H 0.72862 0.85774 0.83897 0.0
H666 H 0.82502 0.93516 0.83974 0.0
H667 H 0.79148 0.94172 0.86646 0.0
H668 H 0.7233 0.63982 0.73323 0.0
H669 H 0.79352 0.68475 0.68825 0.0
H670 H 0.71781 0.58956 0.7167 0.0
H671 H 0.74925 0.58533 0.68668 0.0
C672 C 0.97963 0.07867 0.56883 0.0
C673 C 1.01947 0.09326 0.49745 0.0
C674 C 0.99312 0.97241 0.49776 0.0
Mg675 Mg 0.03841 0.08538 0.5521 0.0
O676 O 1.02116 0.04217 0.55021 0.0
Mg677 Mg 0.98482 0.0266 0.52933 0.0
Mg678 Mg 0.04157 0.01812 0.5357 0.0
O679 O 0.06155 0.99362 0.52134 0.0
Mg680 Mg 0.04321 0.95042 0.52056 0.0
Mg681 Mg 0.09793 0.00837 0.54195 0.0
C682 C 0.08976 0.06335 0.57337 0.0
C683 C 0.09209 0.06504 0.50403 0.0
O684 O 0.96854 0.05542 0.55473 0.0
O685 O 1.00614 0.09341 0.57076 0.0
O686 O 0.99889 0.06791 0.50067 0.0
O687 O 0.03851 0.10402 0.51466 0.0
O688 O 0.07797 0.08436 0.5709 0.0
O689 O 0.07829 0.03655 0.56393 0.0
C690 C 0.99185 0.97108 0.56786 0.0
O691 O 1.01743 0.97866 0.56237 0.0
O692 O 0.97548 0.98535 0.55777 0.0
O693 O 0.11334 0.97862 0.51686 0.0
O694 O 0.07454 0.94121 0.50191 0.0
O695 O 0.08436 0.96603 0.57 0.0
C696 C 0.10119 0.95496 0.50338 0.0
O697 O 0.04393 0.93016 0.55734 0.0
O698 O 1.00401 0.95075 0.50121 0.0
C699 C 0.06437 0.94019 0.57349 0.0
O700 O 1.00484 0.99929 0.50706 0.0
O701 O 0.06658 0.05833 0.50959 0.0
O702 O 0.10772 0.04953 0.51342 0.0
C703 C 0.41496 0.09226 0.01493 0.0
C704 C 0.45375 0.09837 0.94883 0.0
C705 C 0.45448 0.97881 0.9828 0.0
Mg706 Mg 0.47727 0.10825 0.00353 0.0
O707 O 0.46822 0.06517 0.00898 0.0
Mg708 Mg 0.43382 0.0366 0.99106 0.0
Mg709 Mg 0.49536 0.04306 0.00586 0.0
O710 O 0.52215 0.02033 0.00326 0.0
Mg711 Mg 0.51158 0.97797 0.01327 0.0
Mg712 Mg 0.55654 0.0487 0.02124 0.0
C713 C 0.53477 0.10678 0.03368 0.0
C714 C 0.54518 0.08339 0.96872 0.0
O715 O 0.40941 0.06574 0.00532 0.0
O716 O 0.44004 0.11176 0.01763 0.0
O717 O 0.43987 0.07004 0.95546 0.0
O718 O 0.47188 0.11655 0.96382 0.0
O719 O 0.51852 0.122 0.02481 0.0
O720 O 0.52852 0.07743 0.03057 0.0
C721 C 0.44616 0.99943 0.04277 0.0
O722 O 0.47273 0.01052 0.03976 0.0
O723 O 0.42851 0.00605 0.02686 0.0
O724 O 0.58003 0.01647 0.00742 0.0
O725 O 0.54656 0.97058 -0.00136 0.0
O726 O 0.54824 0.02004 0.05809 0.0
C727 C 0.57209 0.989 -0.00133 0.0
O728 O 0.51523 0.97354 0.05326 0.0
O729 O 0.47008 0.96419 0.99401 0.0
C730 C 0.53254 0.99391 0.06709 0.0
O731 O 0.46204 0.00879 0.98094 0.0
O732 O 0.51866 0.07507 0.97187 0.0
O733 O 0.56215 0.0761 0.98488 0.0
C734 C 0.94606 0.62144 0.07186 0.0
C735 C 0.95433 0.61968 0.99016 0.0
C736 C 0.96232 0.49434 0.01407 0.0
Mg737 Mg 0.99824 0.62936 0.03888 0.0
O738 O 0.9892 0.58471 0.04226 0.0
Mg739 Mg 0.9485 0.55968 0.03512 0.0
Mg740 Mg 1.01302 0.55397 0.03719 0.0
O741 O 0.0341 0.5229 0.03344 0.0
Mg742 Mg 1.02124 0.47916 0.03995 0.0
Mg743 Mg 0.07465 0.54491 0.04317 0.0
C744 C 0.04519 0.60346 0.06203 0.0
C745 C 0.05959 0.58698 0.99404 0.0
O746 O 0.93362 0.59537 0.06061 0.0
O747 O 0.97206 0.63677 0.06815 0.0
O748 O 0.94303 0.5911 -0.0018 0.0
O749 O 0.97634 0.63773 0.00204 0.0
O750 O 0.0382 0.61762 0.04234 0.0
O751 O 0.05464 0.58077 0.06066 0.0
C752 C 0.9713 0.52257 0.08186 0.0
O753 O 0.99477 0.52681 0.07287 0.0
O754 O 0.95263 0.53252 0.07066 0.0
O755 O 0.08614 0.51018 0.01956 0.0
O756 O 0.04624 0.46973 0.01322 0.0
O757 O 0.07996 0.50829 0.07903 0.0
C758 C 0.07211 0.48429 0.00935 0.0
O759 O 0.04415 0.46375 0.0752 0.0
O760 O 0.97768 0.47745 0.02265 0.0
C761 C 0.06839 0.47902 0.08591 0.0
O762 O 0.97061 0.52457 0.01628 0.0
O763 O 0.03438 0.58264 -2e-05 0.0
O764 O 0.07563 0.57546 0.00786 0.0
C765 C 0.4614 0.59099 0.03857 0.0
C766 C 0.5001 0.59372 0.9693 0.0
C767 C 0.46965 0.4726 0.97917 0.0
Mg768 Mg 0.51926 0.59134 0.02391 0.0
O769 O 0.49951 0.54799 0.02666 0.0
Mg770 Mg 0.46362 0.53205 0.00549 0.0
Mg771 Mg 0.5182 0.51986 0.01574 0.0
O772 O 0.5373 0.49246 0.00452 0.0
Mg773 Mg 0.51901 0.44908 0.00395 0.0
Mg774 Mg 0.57366 0.50887 0.02503 0.0
C775 C 0.56727 0.56757 0.05085 0.0
C776 C 0.56991 0.56239 0.98355 0.0
O777 O 0.44924 0.56613 0.02646 0.0
O778 O 0.48814 0.60431 0.04025 0.0
O779 O 0.47966 0.56925 0.97478 0.0
O780 O 0.51987 0.60677 0.98529 0.0
O781 O 0.55775 0.59005 0.04484 0.0
O782 O 0.55434 0.53955 0.04431 0.0
C783 C 0.46598 0.47873 0.04787 0.0
O784 O 0.4915 0.4834 0.04331 0.0
O785 O 0.45155 0.49442 0.03638 0.0
O786 O 0.58893 0.47754 0.00173 0.0
O787 O 0.55083 0.44004 0.98573 0.0
O788 O 0.55887 0.4696 0.05489 0.0
C789 C 0.57743 0.45407 0.98796 0.0
O790 O 0.52064 0.43091 0.04171 0.0
O791 O 0.47985 0.45033 0.9836 0.0
C792 C 0.5394 0.44352 0.05869 0.0
O793 O 0.48214 0.49978 0.98762 0.0
O794 O 0.54409 0.55604 0.98774 0.0
O795 O 0.5852 0.54798 0.99534 0.0
C796 C 0.96518 0.55785 0.54297 0.0
C797 C 1.01487 0.56536 0.47846 0.0
C798 C 1.00855 0.4491 0.49982 0.0
Mg799 Mg 0.02777 0.57129 0.53432 0.0
O800 O 1.01686 0.52804 0.53964 0.0
Mg801 Mg 0.98476 0.50301 0.517 0.0
Mg802 Mg 0.04511 0.50868 0.53343 0.0
O803 O 0.0738 0.49012 0.52715 0.0
Mg804 Mg 0.0664 0.44714 0.52882 0.0
Mg805 Mg 0.1079 0.51788 0.54625 0.0
C806 C 0.08327 0.56868 0.56507 0.0
C807 C 0.0923 0.56009 0.49932 0.0
O808 O 0.95882 0.53148 0.53263 0.0
O809 O 0.99053 0.5765 0.54566 0.0
O810 O 0.99671 0.53856 0.48326 0.0
O811 O 0.03061 0.5817 0.4956 0.0
O812 O 0.06711 0.58393 0.55654 0.0
O813 O 0.07749 0.53951 0.56169 0.0
C814 C 0.99498 0.45957 0.56532 0.0
O815 O 0.0218 0.47097 0.56343 0.0
O816 O 0.97766 0.46832 0.55034 0.0
O817 O 0.13368 0.49449 0.5263 0.0
O818 O 0.10358 0.44938 0.51171 0.0
O819 O 0.10417 0.47998 0.57859 0.0
C820 C 0.12822 0.46985 0.51396 0.0
O821 O 0.0734 0.43388 0.56757 0.0
O822 O 0.02527 0.43391 0.5073 0.0
C823 C 0.09132 0.45085 0.58342 0.0
O824 O 1.01392 0.47755 0.50545 0.0
O825 O 0.06615 0.54604 0.50247 0.0
O826 O 0.11134 0.55389 0.5137 0.0
C827 C 0.47472 0.07095 0.52635 0.0
C828 C 0.47702 0.07304 0.45018 0.0
C829 C 0.4855 0.94374 0.48008 0.0
Mg830 Mg 0.52523 0.07594 0.49575 0.0
O831 O 0.51322 0.03264 0.504 0.0
Mg832 Mg 0.47282 0.00926 0.49397 0.0
Mg833 Mg 0.53505 0.00269 0.49913 0.0
O834 O 0.55731 0.97367 0.49172 0.0
Mg835 Mg 0.54767 0.92986 0.49281 0.0
Mg836 Mg 0.59814 0.99855 0.49813 0.0
C837 C 0.58571 0.0635 0.51944 0.0
C838 C 0.57401 0.03658 0.45335 0.0
O839 O 0.46077 0.04481 0.5164 0.0
O840 O 0.50061 0.08556 0.52254 0.0
O841 O 0.46651 0.04362 0.45697 0.0
O842 O 0.50078 0.08937 0.46101 0.0
O843 O 0.56994 0.08001 0.51112 0.0
O844 O 0.5774 0.03318 0.51835 0.0
C845 C 0.49025 0.96909 0.54346 0.0
O846 O 0.51529 0.97366 0.5368 0.0
O847 O 0.47348 0.98019 0.53013 0.0
O848 O 0.61268 0.96365 0.47215 0.0
O849 O 0.5744 0.92225 0.46414 0.0
O850 O 0.60283 0.96568 0.53389 0.0
C851 C 0.60043 0.93778 0.46071 0.0
O852 O 0.56857 0.91954 0.52992 0.0
O853 O 0.50142 0.92645 0.48457 0.0
C854 C 0.59097 0.93715 0.54178 0.0
O855 O 0.49502 0.97387 0.47929 0.0
O856 O 0.55068 0.03036 0.4631 0.0
O857 O 0.59375 0.02742 0.46328 0.0
H858 H 0.21531 0.18864 0.32596 0.0
H859 H 0.18456 0.16763 0.35949 0.0
H860 H 0.17821 0.25817 0.36734 0.0
H861 H 0.20852 0.2795 0.3326 0.0
H862 H 0.19008 0.22572 0.41344 0.0
H863 H 0.12071 0.20937 0.34665 0.0
H864 H 0.09746 0.19508 0.30508 0.0
H865 H 0.09688 0.10118 0.32002 0.0
H866 H 0.12058 0.11503 0.3615 0.0
H867 H 0.09092 0.12461 0.50102 0.0
H868 H 0.10925 0.16524 0.46814 0.0
H869 H 0.1373 0.10147 0.43182 0.0
H870 H 0.11925 0.06125 0.46451 0.0
H871 H 0.1051 0.13245 0.40027 0.0
H872 H 0.18216 0.154 0.46518 0.0
H873 H 0.2037 0.16926 0.50708 0.0
H874 H 0.18791 0.25602 0.49549 0.0
H875 H 0.16583 0.24102 0.45365 0.0
C876 C 0.20692 0.20409 0.33426 0.0
C877 C 0.21372 0.23558 0.32603 0.0
C878 C 0.18946 0.19203 0.35361 0.0
C879 C 0.17869 0.2112 0.36555 0.0
C880 C 0.18608 0.24295 0.35809 0.0
C881 C 0.20338 0.25505 0.33832 0.0
C882 C 0.16055 0.19736 0.38629 0.0
C883 C 0.17099 0.2059 0.4106 0.0
C884 C 0.13569 0.17154 0.38252 0.0
C885 C 0.12239 0.16326 0.35722 0.0
C886 C 0.11584 0.18574 0.34099 0.0
C887 C 0.1025 0.17769 0.31747 0.0
C888 C 0.09553 0.14719 0.30999 0.0
C889 C 0.10217 0.12476 0.32589 0.0
C890 C 0.11558 0.13271 0.3494 0.0
C891 C 0.10074 0.11937 0.48581 0.0
C892 C 0.10337 0.08985 0.48495 0.0
C893 C 0.11137 0.14255 0.46725 0.0
C894 C 0.12445 0.13621 0.44755 0.0
C895 C 0.12713 0.10672 0.44682 0.0
C896 C 0.11696 0.08386 0.4655 0.0
C897 C 0.13541 0.1598 0.42732 0.0
C898 C 0.12357 0.15296 0.4031 0.0
C899 C 0.15873 0.1873 0.43126 0.0
C900 C 0.17187 0.19613 0.45647 0.0
C901 C 0.18293 0.17614 0.47169 0.0
C902 C 0.19532 0.18479 0.4954 0.0
C903 C 0.19704 0.21352 0.504 0.0
C904 C 0.18644 0.2337 0.48886 0.0
C905 C 0.17398 0.22514 0.46515 0.0
H906 H 0.20668 0.22019 0.52235 0.0
H907 H 0.08516 0.141 0.29179 0.0
H908 H 0.89144 0.19643 0.38679 0.0
H909 H 0.93657 0.19382 0.40293 0.0
H910 H 0.96104 0.19638 0.32816 0.0
H911 H 0.9145 0.19517 0.31185 0.0
H912 H 0.9766 0.15681 0.35131 0.0
H913 H 0.99388 0.25887 0.36997 0.0
H914 H 0.98537 0.30508 0.38298 0.0
H915 H 0.97728 0.2663 0.45794 0.0
H916 H 0.9847 0.21929 0.44526 0.0
H917 H 0.05695 0.15047 0.48409 0.0
H918 H 0.05655 0.18026 0.44468 0.0
H919 H 0.98373 0.10538 0.41741 0.0
H920 H 0.98544 0.07486 0.4556 0.0
H921 H 1.02081 0.20359 0.43104 0.0
H922 H 0.9683 0.10282 0.35998 0.0
H923 H 0.97941 0.05877 0.34578 0.0
H924 H 0.06522 0.09997 0.37313 0.0
H925 H 0.0551 0.14506 0.38674 0.0
C926 C 0.90621 0.19614 0.37368 0.0
C927 C 0.89902 0.19577 0.34798 0.0
C928 C 0.93248 0.19552 0.38295 0.0
C929 C 0.95272 0.19584 0.36678 0.0
C930 C 0.94598 0.19647 0.34105 0.0
C931 C 0.91933 0.19612 0.33175 0.0
C932 C 0.9793 0.19157 0.37718 0.0
C933 C 0.98662 0.16733 0.36855 0.0
C934 C 0.99415 0.20698 0.39857 0.0
C935 C 0.99012 0.23552 0.40662 0.0
C936 C 0.99023 0.26011 0.38923 0.0
C937 C 0.98553 0.28648 0.39657 0.0
C938 C 0.981 0.28877 0.42135 0.0
C939 C 0.98097 0.26458 0.43879 0.0
C940 C 0.98545 0.23805 0.43152 0.0
C941 C 0.04151 0.13994 0.46931 0.0
C942 C 1.02107 0.11039 0.47306 0.0
C943 C 0.04131 0.15703 0.44677 0.0
C944 C 1.0203 0.14511 0.42783 0.0
C945 C 1.00077 0.11494 0.43124 0.0
C946 C 1.00135 0.09765 0.45345 0.0
C947 C 1.01454 0.16578 0.40712 0.0
C948 C 1.01164 0.19373 0.41337 0.0
C949 C 1.00451 0.15437 0.38322 0.0
C950 C 1.01091 0.12763 0.37428 0.0
C951 C 0.98971 0.10294 0.36259 0.0
C952 C 0.99584 0.0777 0.35467 0.0
C953 C 0.02308 0.07675 0.35838 0.0
C954 C 0.04423 0.10097 0.37007 0.0
C955 C 0.03831 0.12639 0.37789 0.0
H956 H 0.02779 0.05723 0.35222 0.0
H957 H 0.97743 0.3092 0.42707 0.0
H958 H 0.872 0.81738 0.31999 0.0
H959 H 0.90265 0.85284 0.35096 0.0
H960 H 0.85637 0.91617 0.33383 0.0
H961 H 0.82513 0.88016 0.30406 0.0
H962 H 0.9374 0.91816 0.35361 0.0
H963 H 0.83903 0.93206 0.3851 0.0
H964 H 0.78796 0.90384 0.38228 0.0
H965 H 0.80266 0.81638 0.38478 0.0
H966 H 0.85367 0.84418 0.38754 0.0
H967 H 0.987 0.01199 0.45912 0.0
H968 H 0.95789 0.99599 0.42036 0.0
H969 H 0.91872 0.90439 0.45428 0.0
H970 H 0.94788 0.92013 0.49266 0.0
H971 H 0.88173 0.92322 0.42305 0.0
H972 H 0.97559 0.91838 0.4238 0.0
H973 H 0.02725 0.94105 0.42688 0.0
H974 H 0.02421 0.00243 0.36327 0.0
H975 H 0.97244 0.98066 0.36019 0.0
C976 C 0.86884 0.83919 0.32262 0.0
C977 C 0.84648 0.84632 0.30956 0.0
C978 C 0.8865 0.85956 0.34004 0.0
C979 C 0.88186 0.88723 0.34464 0.0
C980 C 0.86046 0.89509 0.33047 0.0
C981 C 0.84274 0.87463 0.3133 0.0
C982 C 0.89604 0.90512 0.36678 0.0
C983 C 0.92527 0.91966 0.36866 0.0
C984 C 0.88037 0.90676 0.38659 0.0
C985 C 0.84991 0.89007 0.38631 0.0
C986 C 0.83125 0.9068 0.38516 0.0
C987 C 0.80238 0.89092 0.38342 0.0
C988 C 0.79213 0.8584 0.38302 0.0
C989 C 0.81061 0.84158 0.38476 0.0
C990 C 0.83947 0.85736 0.3864 0.0
C991 C 0.97127 0.98892 0.45858 0.0
C992 C 0.96956 0.96722 0.47879 0.0
C993 C 0.95496 0.97969 0.43636 0.0
C994 C 0.93657 0.94883 0.43434 0.0
C995 C 0.93286 0.92826 0.4554 0.0
C996 C 0.94938 0.93729 0.47737 0.0
C997 C 0.92316 0.93653 0.41002 0.0
C998 C 0.89394 0.92272 0.40774 0.0
C999 C 0.93909 0.93515 0.39019 0.0
C1000 C 0.97016 0.94817 0.39195 0.0
C1001 C 0.98593 0.93694 0.41062 0.0
C1002 C 1.01522 0.94963 0.41237 0.0
C1003 C 0.02899 0.9733 0.39536 0.0
C1004 C 1.01349 0.98426 0.37653 0.0
C1005 C 0.98418 0.97177 0.37478 0.0
H1006 H 0.05167 0.98306 0.39671 0.0
H1007 H 0.76985 0.84623 0.38154 0.0
H1008 H 0.12498 0.85648 0.31921 0.0
H1009 H 0.13216 0.88319 0.35794 0.0
H1010 H 0.20026 0.84937 0.38228 0.0
H1011 H 0.19285 0.82203 0.34348 0.0
H1012 H 0.16495 0.84261 0.41888 0.0
H1013 H 0.21705 0.92446 0.36651 0.0
H1014 H 0.22834 0.95818 0.32839 0.0
H1015 H 0.15934 0.98995 0.33611 0.0
H1016 H 0.14732 0.95606 0.37406 0.0
H1017 H 0.15759 0.98043 0.49555 0.0
H1018 H 0.18371 0.96124 0.46831 0.0
H1019 H 0.10876 0.8837 0.45051 0.0
H1020 H 0.08266 0.90257 0.47694 0.0
H1021 H 0.17024 0.95332 0.41705 0.0
H1022 H 0.12489 0.82036 0.44689 0.0
H1023 H 0.11721 0.78763 0.48579 0.0
H1024 H 0.18052 0.86055 0.52498 0.0
H1025 H 0.18866 0.89373 0.48633 0.0
C1026 C 0.14134 0.85453 0.33287 0.0
C1027 C 0.15836 0.83723 0.32835 0.0
C1028 C 0.14567 0.87011 0.35485 0.0
C1029 C 0.16711 0.86875 0.37274 0.0
C1030 C 0.18383 0.85099 0.36856 0.0
C1031 C 0.17962 0.8355 0.34642 0.0
C1032 C 0.17076 0.88491 0.39617 0.0
C1033 C 0.16657 0.86694 0.41862 0.0
C1034 C 0.17415 0.917 0.39597 0.0
C1035 C 0.18126 0.93762 0.37316 0.0
C1036 C 0.20417 0.93849 0.36001 0.0
C1037 C 0.21071 0.95766 0.33843 0.0
C1038 C 0.19457 0.97619 0.32983 0.0
C1039 C 0.17185 0.97561 0.34281 0.0
C1040 C 0.1652 0.95646 0.3644 0.0
C1041 C 0.1468 0.95915 0.48599 0.0
C1042 C 0.118 0.94313 0.48838 0.0
C1043 C 0.16177 0.9482 0.47055 0.0
C1044 C 0.14824 0.92081 0.45777 0.0
C1045 C 0.11973 0.90456 0.46058 0.0
C1046 C 0.10475 0.91564 0.47556 0.0
C1047 C 0.16228 0.91037 0.4392 0.0
C1048 C 0.1697 0.92934 0.41756 0.0
C1049 C 0.16246 0.87941 0.44029 0.0
C1050 C 0.1574 0.85955 0.46365 0.0
C1051 C 0.1373 0.82938 0.46376 0.0
C1052 C 0.13281 0.81076 0.48579 0.0
C1053 C 0.14843 0.82197 0.50782 0.0
C1054 C 0.16849 0.85187 0.50788 0.0
C1055 C 0.17293 0.87066 0.48595 0.0
H1056 H 0.14491 0.80754 0.52486 0.0
H1057 H 0.19967 0.99102 0.31311 0.0
H1058 H 0.23964 0.94354 0.68728 0.0
H1059 H 0.19554 0.92326 0.66211 0.0
H1060 H 0.20665 0.83386 0.66166 0.0
H1061 H 0.25146 0.85428 0.68661 0.0
H1062 H 0.18134 0.87297 0.61212 0.0
H1063 H 0.16057 0.80985 0.68869 0.0
H1064 H 0.16774 0.80024 0.73387 0.0
H1065 H 0.14929 0.88238 0.74747 0.0
H1066 H 0.14154 0.89216 0.70229 0.0
H1067 H 0.04603 0.87664 0.57402 0.0
H1068 H 0.06956 0.84417 0.59825 0.0
H1069 H 0.11704 0.92246 0.64216 0.0
H1070 H 0.09395 0.95513 0.61792 0.0
H1071 H 0.10422 0.85746 0.6672 0.0
H1072 H 0.16174 0.92362 0.58761 0.0
H1073 H 0.15769 0.93329 0.54201 0.0
H1074 H 0.10339 0.83854 0.53373 0.0
H1075 H 0.10735 0.82833 0.57914 0.0
C1076 C 0.23331 0.91996 0.68108 0.0
C1077 C 0.24874 0.90037 0.68914 0.0
C1078 C 0.20803 0.90833 0.6669 0.0
C1079 C 0.19787 0.87702 0.6605 0.0
C1080 C 0.21421 0.85801 0.66668 0.0
C1081 C 0.23964 0.86968 0.6809 0.0
C1082 C 0.16887 0.86442 0.64967 0.0
C1083 C 0.16407 0.86803 0.62396 0.0
C1084 C 0.14641 0.85762 0.66514 0.0
C1085 C 0.15055 0.85174 0.69223 0.0
C1086 C 0.15811 0.82587 0.70135 0.0
C1087 C 0.16228 0.8204 0.72695 0.0
C1088 C 0.15922 0.84084 0.74355 0.0
C1089 C 0.15168 0.8666 0.73459 0.0
C1090 C 0.14722 0.87201 0.70901 0.0
C1091 C 0.0605 0.88654 0.58962 0.0
C1092 C 0.06879 0.91861 0.59375 0.0
C1093 C 0.07404 0.86796 0.60331 0.0
C1094 C 0.09544 0.88121 0.62147 0.0
C1095 C 0.1006 0.9119 0.62807 0.0
C1096 C 0.08743 0.93058 0.61421 0.0
C1097 C 0.11683 0.86682 0.62965 0.0
C1098 C 0.12062 0.85943 0.65503 0.0
C1099 C 0.13804 0.86887 0.61371 0.0
C1100 C 0.1347 0.87531 0.58665 0.0
C1101 C 0.14887 0.90495 0.576 0.0
C1102 C 0.14662 0.9105 0.55023 0.0
C1103 C 0.13032 0.8865 0.53505 0.0
C1104 C 0.11597 0.85707 0.54556 0.0
C1105 C 0.11824 0.85139 0.57128 0.0
H1106 H 0.12912 0.89051 0.51513 0.0
H1107 H 0.1626 0.83674 0.76336 0.0
H1108 H 0.20014 0.1799 0.74786 0.0
H1109 H 0.1832 0.13619 0.72049 0.0
H1110 H 0.26852 0.1497 0.70486 0.0
H1111 H 0.28518 0.19443 0.73139 0.0
H1112 H 0.24164 0.15164 0.66449 0.0
H1113 H 0.22346 0.07737 0.73071 0.0
H1114 H 0.20812 0.05298 0.77157 0.0
H1115 H 0.12294 0.04419 0.74786 0.0
H1116 H 0.13776 0.06897 0.70699 0.0
H1117 H 0.115 0.02224 0.59511 0.0
H1118 H 0.15505 0.03422 0.62634 0.0
H1119 H 0.16302 0.13162 0.61868 0.0
H1120 H 0.12433 0.12019 0.58732 0.0
H1121 H 0.15738 0.05669 0.6705 0.0
H1122 H 0.22452 0.17921 0.6294 0.0
H1123 H 0.23788 0.20302 0.58797 0.0
H1124 H 0.22748 0.11308 0.56176 0.0
H1125 H 0.21467 0.0887 0.60321 0.0
C1126 C 0.21523 0.17265 0.73934 0.0
C1127 C 0.24383 0.1902 0.74161 0.0
C1128 C 0.20562 0.14755 0.72375 0.0
C1129 C 0.22459 0.13938 0.71062 0.0
C1130 C 0.25347 0.15549 0.7147 0.0
C1131 C 0.26298 0.18094 0.72987 0.0
C1132 C 0.21389 0.11862 0.6894 0.0
C1133 C 0.22361 0.13047 0.66592 0.0
C1134 C 0.19103 0.09032 0.69119 0.0
C1135 C 0.18178 0.07505 0.71569 0.0
C1136 C 0.20146 0.07037 0.73422 0.0
C1137 C 0.19286 0.05646 0.7574 0.0
C1138 C 0.16458 0.04703 0.7623 0.0
C1139 C 0.14484 0.05144 0.74401 0.0
C1140 C 0.15333 0.06535 0.7208 0.0
C1141 C 0.12593 0.0463 0.5996 0.0
C1142 C 0.11644 0.07026 0.58884 0.0
C1143 C 0.14866 0.05306 0.61752 0.0
C1144 C 0.16228 0.08386 0.62464 0.0
C1145 C 0.15341 0.10779 0.61311 0.0
C1146 C 0.13099 0.10114 0.59527 0.0
C1147 C 0.18373 0.09144 0.64585 0.0
C1148 C 0.17616 0.07707 0.66927 0.0
C1149 C 0.20886 0.1172 0.64406 0.0
C1150 C 0.21859 0.13206 0.61952 0.0
C1151 C 0.22552 0.1645 0.61496 0.0
C1152 C 0.23287 0.17811 0.59141 0.0
C1153 C 0.23336 0.15956 0.57221 0.0
C1154 C 0.22691 0.1274 0.57662 0.0
C1155 C 0.21968 0.11368 0.60016 0.0
H1156 H 0.2388 0.17012 0.55393 0.0
H1157 H 0.15796 0.03629 0.78027 0.0
H1158 H 0.89826 0.18945 0.74445 0.0
H1159 H 0.9161 0.1749 0.70847 0.0
H1160 H 0.85216 0.0838 0.71212 0.0
H1161 H 0.83518 0.09798 0.7489 0.0
H1162 H 0.89699 0.07693 0.70041 0.0
H1163 H 0.84769 0.14517 0.66908 0.0
H1164 H 0.83457 0.1926 0.66555 0.0
H1165 H 0.91772 0.24764 0.64607 0.0
H1166 H 0.93153 0.20061 0.64993 0.0
H1167 H 0.9258 0.04508 0.58074 0.0
H1168 H 0.89944 0.05684 0.6121 0.0
H1169 H 0.96696 0.14329 0.62544 0.0
H1170 H 0.99328 0.13195 0.59414 0.0
H1171 H 0.91455 0.14939 0.62576 0.0
H1172 H 0.96348 0.07945 0.66334 0.0
H1173 H 0.97426 0.03057 0.66454 0.0
H1174 H 0.88681 0.97717 0.66869 0.0
H1175 H 0.87558 0.02575 0.66765 0.0
C1176 C 0.88831 0.16619 0.73771 0.0
C1177 C 0.8654 0.1448 0.74939 0.0
C1178 C 0.89828 0.15798 0.71699 0.0
C1179 C 0.885 0.12852 0.70704 0.0
C1180 C 0.86269 0.10673 0.71928 0.0
C1181 C 0.85305 0.11476 0.74034 0.0
C1182 C 0.89445 0.12053 0.68395 0.0
C1183 C 0.90032 0.0926 0.68399 0.0
C1184 C 0.89894 0.14091 0.66236 0.0
C1185 C 0.89072 0.16933 0.66002 0.0
C1186 C 0.86326 0.16741 0.66423 0.0
C1187 C 0.85568 0.19423 0.66213 0.0
C1188 C 0.87529 0.22312 0.65557 0.0
C1189 C 0.90254 0.22524 0.65112 0.0
C1190 C 0.91025 0.1985 0.65326 0.0
C1191 C 0.93482 0.06686 0.59002 0.0
C1192 C 0.96179 0.08742 0.58508 0.0
C1193 C 0.91978 0.07346 0.60803 0.0
C1194 C 0.93143 0.10074 0.62134 0.0
C1195 C 0.95761 0.12208 0.61544 0.0
C1196 C 0.97268 0.11546 0.59759 0.0
C1197 C 0.91749 0.1063 0.6426 0.0
C1198 C 0.91082 0.13371 0.64218 0.0
C1199 C 0.91181 0.0853 0.66365 0.0
C1200 C 0.91869 0.05616 0.66527 0.0
C1201 C 0.94658 0.05726 0.66455 0.0
C1202 C 0.95277 0.02962 0.66524 0.0
C1203 C 0.93124 1.00078 0.66673 0.0
C1204 C 0.90349 0.99951 0.66768 0.0
C1205 C 0.89721 0.02708 0.66711 0.0
H1206 H 0.93607 0.97943 0.66711 0.0
H1207 H 0.86937 0.24386 0.6539 0.0
H1208 H 0.87572 0.84757 0.76698 0.0
H1209 H 0.91612 0.8746 0.74278 0.0
H1210 H 0.88982 0.7995 0.69239 0.0
H1211 H 0.84954 0.77256 0.71625 0.0
H1212 H 0.9473 0.82999 0.69365 0.0
H1213 H 0.86042 0.85383 0.68349 0.0
H1214 H 0.82335 0.8698 0.6987 0.0
H1215 H 0.8848 0.95636 0.72109 0.0
H1216 H 0.92235 0.94048 0.70656 0.0
H1217 H 0.93762 0.93686 0.57572 0.0
H1218 H 0.92 0.90358 0.6122 0.0
H1219 H 1.00491 0.91955 0.6429 0.0
H1220 H 0.02273 0.95223 0.60592 0.0
H1221 H 0.92544 0.92258 0.65671 0.0
H1222 H 1.00421 0.85924 0.68674 0.0
H1223 H 0.03638 0.83811 0.66853 0.0
H1224 H 0.9849 0.82508 0.59997 0.0
H1225 H 0.95233 0.84588 0.61783 0.0
C1226 C 0.87877 0.83655 0.75105 0.0
C1227 C 0.85843 0.8089 0.7427 0.0
C1228 C 0.90213 0.85182 0.73742 0.0
C1229 C 0.90544 0.83946 0.71537 0.0
C1230 C 0.88751 0.80962 0.7092 0.0
C1231 C 0.86423 0.79439 0.72281 0.0
C1232 C 0.92279 0.85979 0.69603 0.0
C1233 C 0.94299 0.8506 0.68579 0.0
C1234 C 0.91665 0.88623 0.68546 0.0
C1235 C 0.89416 0.89589 0.69414 0.0
C1236 C 0.86601 0.87619 0.69179 0.0
C1237 C 0.84492 0.88521 0.70028 0.0
C1238 C 0.85168 0.91413 0.71078 0.0
C1239 C 0.87959 0.93398 0.71294 0.0
C1240 C 0.90079 0.92496 0.70463 0.0
C1241 C 0.95256 0.93283 0.59001 0.0
C1242 C 0.98153 0.94728 0.58803 0.0
C1243 C 0.94248 0.91389 0.61091 0.0
C1244 C 0.9611 0.90927 0.63041 0.0
C1245 C 0.99013 0.92254 0.62802 0.0
C1246 C 1.00027 0.94121 0.60686 0.0
C1247 C 0.94971 0.89257 0.6538 0.0
C1248 C 0.93056 0.90257 0.66489 0.0
C1249 C 0.95643 0.86656 0.66465 0.0
C1250 C 0.97599 0.85436 0.65357 0.0
C1251 C 0.99977 0.85185 0.66779 0.0
C1252 C 1.01806 0.83993 0.65753 0.0
C1253 C 1.01263 0.83019 0.63314 0.0
C1254 C 0.98906 0.83263 0.61886 0.0
C1255 C 0.97072 0.84456 0.62902 0.0
H1256 H 0.0266 0.82061 0.62535 0.0
H1257 H 0.83532 0.92111 0.71731 0.0
H1258 H 0.21953 0.16521 0.11111 0.0
H1259 H 0.24489 0.15273 0.07926 0.0
H1260 H 0.29175 0.11617 0.1365 0.0
H1261 H 0.26582 0.12727 0.16814 0.0
H1262 H 0.29881 0.17337 0.07069 0.0
H1263 H 0.30637 0.05663 0.11751 0.0
H1264 H 0.27737 0.01134 0.14219 0.0
H1265 H 0.20282 0.02919 0.11227 0.0
H1266 H 0.2313 0.07429 0.08712 0.0
H1267 H 0.41816 0.14161 0.04225 0.0
H1268 H 0.37967 0.15195 0.05942 0.0
H1269 H 0.32025 0.07163 0.02428 0.0
H1270 H 0.35866 0.06072 0.00742 0.0
H1271 H 0.31028 0.06976 0.07057 0.0
H1272 H 0.32241 0.1458 0.00455 0.0
H1273 H 0.34771 0.18937 0.97636 0.0
H1274 H 0.37582 0.24951 0.03774 0.0
H1275 H 0.35094 0.20621 0.06637 0.0
C1276 C 0.23494 0.15406 0.11684 0.0
C1277 C 0.24067 0.14723 0.14216 0.0
C1278 C 0.24956 0.1472 0.09865 0.0
C1279 C 0.26998 0.13321 0.10547 0.0
C1280 C 0.27575 0.12648 0.13074 0.0
C1281 C 0.26113 0.13319 0.14885 0.0
C1282 C 0.28601 0.12626 0.08649 0.0
C1283 C 0.30117 0.15066 0.07048 0.0
C1284 C 0.28837 0.09636 0.08565 0.0
C1285 C 0.27103 0.06899 0.10053 0.0
C1286 C 0.28378 0.05079 0.11607 0.0
C1287 C 0.26743 0.02517 0.13017 0.0
C1288 C 0.23828 0.01744 0.12884 0.0
C1289 C 0.22541 0.03526 0.11334 0.0
C1290 C 0.24165 0.06088 0.09919 0.0
C1291 C 0.3969 0.12631 0.03794 0.0
C1292 C 0.39155 0.10012 0.0237 0.0
C1293 C 0.37486 0.13239 0.04762 0.0
C1294 C 0.34703 0.11268 0.043 0.0
C1295 C 0.34156 0.0871 0.02814 0.0
C1296 C 0.36358 0.08089 0.01856 0.0
C1297 C 0.32408 0.11723 0.05556 0.0
C1298 C 0.3076 0.09235 0.0704 0.0
C1299 C 0.31997 0.14643 0.05477 0.0
C1300 C 0.33493 0.17266 0.03764 0.0
C1301 C 0.33416 0.16825 0.01208 0.0
C1302 C 0.3484 0.19291 0.99601 0.0
C1303 C 0.36343 0.22215 0.00526 0.0
C1304 C 0.36417 0.22683 0.0306 0.0
C1305 C 0.34995 0.20225 0.04675 0.0
H1306 H 0.37446 0.24121 0.9928 0.0
H1307 H 0.22566 0.99761 0.13978 0.0
H1308 H 0.77878 0.33369 0.19583 0.0
H1309 H 0.81298 0.3757 0.1729 0.0
H1310 H 0.87634 0.37777 0.23249 0.0
H1311 H 0.84059 0.34074 0.25694 0.0
H1312 H 0.88986 0.42884 0.21598 0.0
H1313 H 0.85445 0.33311 0.16942 0.0
H1314 H 0.81791 0.29244 0.14564 0.0
H1315 H 0.80705 0.36258 0.09223 0.0
H1316 H 0.84281 0.40347 0.11616 0.0
H1317 H 0.97848 0.46731 0.09716 0.0
H1318 H 0.95377 0.43149 0.13045 0.0
H1319 H 0.92248 0.50202 0.15172 0.0
H1320 H 0.9469 0.53747 0.11873 0.0
H1321 H 0.89647 0.41353 0.12732 0.0
H1322 H 0.90592 0.48909 0.21129 0.0
H1323 H 0.94203 0.53126 0.23375 0.0
H1324 H 1.00657 0.50093 0.21031 0.0
H1325 H 0.97084 0.4583 0.18803 0.0
C1326 C 0.80016 0.34319 0.20379 0.0
C1327 C 0.80811 0.33191 0.22709 0.0
C1328 C 0.81979 0.36698 0.19061 0.0
C1329 C 0.84804 0.37848 0.19993 0.0
C1330 C 0.85511 0.36875 0.22417 0.0
C1331 C 0.835 0.3466 0.2379 0.0
C1332 C 0.87049 0.40015 0.1848 0.0
C1333 C 0.89128 0.42506 0.19667 0.0
C1334 C 0.87248 0.39597 0.15931 0.0
C1335 C 0.85131 0.3712 0.14469 0.0
C1336 C 0.84436 0.33964 0.15256 0.0
C1337 C 0.82371 0.31664 0.13912 0.0
C1338 C 0.81032 0.32489 0.11737 0.0
C1339 C 0.81746 0.35618 0.10908 0.0
C1340 C 0.83784 0.37928 0.12265 0.0
C1341 C 0.96726 0.47543 0.10967 0.0
C1342 C 0.96425 0.50483 0.10546 0.0
C1343 C 0.95306 0.455 0.1285 0.0
C1344 C 0.93626 0.46415 0.14342 0.0
C1345 C 0.93554 0.49462 0.1406 0.0
C1346 C 0.94939 0.51479 0.12172 0.0
C1347 C 0.91585 0.44087 0.15891 0.0
C1348 C 0.89521 0.41632 0.14689 0.0
C1349 C 0.91402 0.44526 0.18415 0.0
C1350 C 0.93566 0.47059 0.19783 0.0
C1351 C 0.92779 0.49129 0.21104 0.0
C1352 C 0.94821 0.51531 0.22372 0.0
C1353 C 0.97658 0.51882 0.2234 0.0
C1354 C 0.98459 0.49825 0.21047 0.0
C1355 C 0.96426 0.47418 0.19778 0.0
H1356 H 0.99235 0.53744 0.23321 0.0
H1357 H 0.79436 0.30706 0.10697 0.0
H1358 H 0.71273 0.92546 0.13754 0.0
H1359 H 0.67423 0.94625 0.13187 0.0
H1360 H 0.66848 0.94114 0.21129 0.0
H1361 H 0.70745 0.92072 0.2172 0.0
H1362 H 0.61707 0.91663 0.18663 0.0
H1363 H 0.69359 0.01144 0.18334 0.0
H1364 H 0.73911 0.04832 0.17101 0.0
H1365 H 0.70698 0.04574 0.09464 0.0
H1366 H 0.66137 0.00858 0.10643 0.0
H1367 H 0.55317 0.03284 0.10529 0.0
H1368 H 0.58048 0.02229 0.14226 0.0
H1369 H 0.55593 0.92592 0.12351 0.0
H1370 H 0.5277 0.93608 0.08737 0.0
H1371 H 0.62361 0.01138 0.13276 0.0
H1372 H 0.57296 0.8801 0.16694 0.0
H1373 H 0.52726 0.84521 0.18047 0.0
H1374 H 0.5068 0.92425 0.19899 0.0
H1375 H 0.55256 0.95965 0.18598 0.0
C1376 C 0.70369 0.92931 0.15384 0.0
C1377 C 0.71319 0.92148 0.1778 0.0
C1378 C 0.68161 0.9411 0.15058 0.0
C1379 C 0.66868 0.94546 0.17119 0.0
C1380 C 0.67819 0.93791 0.19517 0.0
C1381 C 0.70037 0.92618 0.19847 0.0
C1382 C 0.64456 0.95682 0.16725 0.0
C1383 C 0.61837 0.93752 0.17511 0.0
C1384 C 0.64661 0.98471 0.15308 0.0
C1385 C 0.67404 0.00711 0.1458 0.0
C1386 C 0.69627 0.01859 0.16389 0.0
C1387 C 0.72209 0.03959 0.157 0.0
C1388 C 0.72593 0.04938 0.13206 0.0
C1389 C 0.70395 0.0382 0.11396 0.0
C1390 C 0.67809 0.01721 0.12075 0.0
C1391 C 0.55247 0.00906 0.10983 0.0
C1392 C 0.53894 0.98541 0.09321 0.0
C1393 C 0.56812 0.00306 0.13095 0.0
C1394 C 0.5708 0.97348 0.13546 0.0
C1395 C 0.55413 0.9489 0.12068 0.0
C1396 C 0.538 0.95477 0.09983 0.0
C1397 C 0.5955 0.97014 0.15073 0.0
C1398 C 0.62205 0.99095 0.14497 0.0
C1399 C 0.59369 0.9439 0.16708 0.0
C1400 C 0.56628 0.9226 0.17541 0.0
C1401 C 0.55887 0.89008 0.17411 0.0
C1402 C 0.53289 0.87019 0.18164 0.0
C1403 C 0.51413 0.8825 0.19056 0.0
C1404 C 0.52133 0.91474 0.19203 0.0
C1405 C 0.54728 0.93474 0.18454 0.0
H1406 H 0.49402 0.86706 0.19634 0.0
H1407 H 0.74593 0.06564 0.12676 0.0
H1408 H 0.21482 0.76075 0.18625 0.0
H1409 H 0.16948 0.73566 0.16438 0.0
H1410 H 0.15109 0.66024 0.22049 0.0
H1411 H 0.19515 0.68692 0.24374 0.0
H1412 H 0.15043 0.68412 0.14396 0.0
H1413 H 0.07902 0.62537 0.22307 0.0
H1414 H 0.07764 0.63086 0.26791 0.0
H1415 H 0.12192 0.72913 0.25924 0.0
H1416 H 0.12289 0.72457 0.21416 0.0
H1417 H 0.0417 0.5675 0.10525 0.0
H1418 H 0.05582 0.58953 0.14582 0.0
H1419 H 0.04916 0.6769 0.11549 0.0
H1420 H 0.03553 0.65538 0.07469 0.0
H1421 H 0.05855 0.64762 0.18186 0.0
H1422 H 0.10567 0.70066 0.09697 0.0
H1423 H 0.11108 0.69132 0.05357 0.0
H1424 H 0.11943 0.60275 0.07713 0.0
H1425 H 0.11379 0.61157 0.12058 0.0
C1426 C 0.2008 0.73927 0.19423 0.0
C1427 C 0.208 0.7265 0.21714 0.0
C1428 C 0.17504 0.72476 0.18163 0.0
C1429 C 0.15649 0.69664 0.1913 0.0
C1430 C 0.16459 0.68256 0.21323 0.0
C1431 C 0.19004 0.69757 0.22623 0.0
C1432 C 0.12947 0.6814 0.17742 0.0
C1433 C 0.13041 0.67683 0.1523 0.0
C1434 C 0.10333 0.67083 0.18848 0.0
C1435 C 0.10123 0.67452 0.21522 0.0
C1436 C 0.08815 0.64826 0.23064 0.0
C1437 C 0.08747 0.65122 0.2561 0.0
C1438 C 0.09975 0.68036 0.26638 0.0
C1439 C 0.11241 0.70666 0.25118 0.0
C1440 C 0.11298 0.7039 0.22566 0.0
C1441 C 0.04172 0.59088 0.10745 0.0
C1442 C 0.03925 0.61044 0.08663 0.0
C1443 C 0.04928 0.60326 0.13085 0.0
C1444 C 0.05465 0.63514 0.13321 0.0
C1445 C 0.04547 0.65229 0.1138 0.0
C1446 C 0.03799 0.64001 0.09032 0.0
C1447 C 0.07995 0.65187 0.14854 0.0
C1448 C 0.07869 0.65597 0.17375 0.0
C1449 C 0.10612 0.66216 0.13784 0.0
C1450 C 0.10904 0.65661 0.1118 0.0
C1451 C 0.10861 0.67921 0.09279 0.0
C1452 C 0.1117 0.674 0.06823 0.0
C1453 C 0.11561 0.64647 0.0626 0.0
C1454 C 0.11644 0.62408 0.08152 0.0
C1455 C 0.11318 0.62911 0.10607 0.0
H1456 H 0.11793 0.64244 0.04358 0.0
H1457 H 0.09953 0.68254 0.28613 0.0
H1458 H 0.37091 0.8333 0.80799 0.0
H1459 H 0.39543 0.85432 0.84673 0.0
H1460 H 0.3436 0.77305 0.88743 0.0
H1461 H 0.31835 0.75239 0.84827 0.0
H1462 H 0.33657 0.82072 0.90245 0.0
H1463 H 0.41776 0.7982 0.8958 0.0
H1464 H 0.45728 0.79053 0.87727 0.0
H1465 H 0.49086 0.8886 0.85802 0.0
H1466 H 0.45132 0.89686 0.87604 0.0
H1467 H 0.41622 0.92599 0.0006 0.0
H1468 H 0.38868 0.88271 0.9748 0.0
H1469 H 0.40941 0.94328 0.90901 0.0
H1470 H 0.43674 0.98673 0.9348 0.0
H1471 H 0.43381 0.89305 0.91776 0.0
H1472 H 0.34479 0.91084 0.91707 0.0
H1473 H 0.30378 0.9156 0.93524 0.0
H1474 H 0.28529 0.82329 0.96917 0.0
H1475 H 0.32639 0.81812 0.95142 0.0
C1476 C 0.36569 0.81928 0.82511 0.0
C1477 C 0.3426 0.79164 0.82538 0.0
C1478 C 0.37985 0.83117 0.84734 0.0
C1479 C 0.3713 0.81535 0.87015 0.0
C1480 C 0.35049 0.78568 0.87008 0.0
C1481 C 0.33623 0.77379 0.84772 0.0
C1482 C 0.37953 0.83312 0.89306 0.0
C1483 C 0.35799 0.836 0.90621 0.0
C1484 C 0.40746 0.85279 0.89829 0.0
C1485 C 0.43146 0.84814 0.88733 0.0
C1486 C 0.43346 0.81813 0.88749 0.0
C1487 C 0.4559 0.81368 0.87708 0.0
C1488 C 0.47657 0.83906 0.86648 0.0
C1489 C 0.47485 0.86896 0.86629 0.0
C1490 C 0.45245 0.87356 0.87666 0.0
C1491 C 0.41351 0.93044 0.98071 0.0
C1492 C 0.42877 0.95939 0.96952 0.0
C1493 C 0.39791 0.9057 0.96602 0.0
C1494 C 0.39758 0.90981 0.9401 0.0
C1495 C 0.40964 0.9398 0.92907 0.0
C1496 C 0.42498 0.96467 0.94378 0.0
C1497 C 0.39044 0.88243 0.92484 0.0
C1498 C 0.4125 0.87744 0.91397 0.0
C1499 C 0.36304 0.86072 0.92187 0.0
C1500 C 0.339 0.86433 0.93331 0.0
C1501 C 0.33227 0.89177 0.92875 0.0
C1502 C 0.3089 0.89446 0.93886 0.0
C1503 C 0.29201 0.86981 0.95344 0.0
C1504 C 0.29843 0.8424 0.95793 0.0
C1505 C 0.32176 0.83958 0.94785 0.0
H1506 H 0.27387 0.87191 0.96118 0.0
H1507 H 0.49392 0.83556 0.85843 0.0
H1508 H 0.21167 0.36941 0.8726 0.0
H1509 H 0.19466 0.40659 0.89097 0.0
H1510 H 0.11836 0.33202 0.90769 0.0
H1511 H 0.13517 0.29496 0.88944 0.0
H1512 H 0.10887 0.38724 0.89027 0.0
H1513 H 0.17165 0.35432 0.95141 0.0
H1514 H 0.21749 0.34866 0.96462 0.0
H1515 H 0.25784 0.44779 0.9553 0.0
H1516 H 0.21224 0.45397 0.94169 0.0
H1517 H 0.05065 0.42733 0.98872 0.0
H1518 H 0.07264 0.40412 0.9614 0.0
H1519 H 0.14687 0.48615 0.96387 0.0
H1520 H 0.12507 0.50949 0.99192 0.0
H1521 H 0.1618 0.43587 0.96696 0.0
H1522 H 0.10075 0.47165 0.91168 0.0
H1523 H 0.05672 0.48022 0.89603 0.0
H1524 H 1.01554 0.38145 0.89066 0.0
H1525 H 0.05921 0.37222 0.90664 0.0
C1526 C 0.19112 0.36105 0.87988 0.0
C1527 C 0.17499 0.3291 0.87991 0.0
C1528 C 0.18145 0.3823 0.89046 0.0
C1529 C 0.15532 0.37206 0.901 0.0
C1530 C 0.13859 0.34051 0.89977 0.0
C1531 C 0.14834 0.31928 0.88948 0.0
C1532 C 0.14595 0.3934 0.91483 0.0
C1533 C 0.12036 0.39779 0.90708 0.0
C1534 C 0.16143 0.4082 0.93626 0.0
C1535 C 0.18861 0.40457 0.94534 0.0
C1536 C 0.19032 0.37489 0.95211 0.0
C1537 C 0.21625 0.37159 0.95966 0.0
C1538 C 0.24057 0.39785 0.96074 0.0
C1539 C 0.23899 0.42748 0.95442 0.0
C1540 C 0.21311 0.43089 0.94681 0.0
C1541 C 0.07164 0.44063 0.98349 0.0
C1542 C 0.08596 0.47046 0.99254 0.0
C1543 C 0.08418 0.4273 0.96767 0.0
C1544 C 0.11129 0.44352 0.96008 0.0
C1545 C 0.12589 0.47316 0.9693 0.0
C1546 C 0.11336 0.48651 0.98533 0.0
C1547 C 0.12418 0.42898 0.94286 0.0
C1548 C 0.15043 0.42582 0.94995 0.0
C1549 C 0.10956 0.41585 0.9205 0.0
C1550 C 0.08326 0.42123 0.91053 0.0
C1551 C 0.08227 0.45173 0.90731 0.0
C1552 C 0.05737 0.45671 0.89837 0.0
C1553 C 0.03334 0.43139 0.8924 0.0
C1554 C 0.03418 0.40104 0.8953 0.0
C1555 C 0.05902 0.39592 0.90426 0.0
H1556 H 1.01409 0.43528 0.88548 0.0
H1557 H 0.26064 0.39524 0.96651 0.0
H1558 H 0.67384 0.21789 0.77078 0.0
H1559 H 0.63916 0.19019 0.80056 0.0
H1560 H 0.70043 0.22651 0.86122 0.0
H1561 H 0.73496 0.25511 0.83121 0.0
H1562 H 0.63638 0.14572 0.83376 0.0
H1563 H 0.6678 0.23334 0.91151 0.0
H1564 H 0.69092 0.28993 0.9162 0.0
H1565 H 0.66238 0.30821 0.8413 0.0
H1566 H 0.63877 0.25175 0.83626 0.0
H1567 H 0.58887 0.07701 0.94796 0.0
H1568 H 0.61486 0.10745 0.91395 0.0
H1569 H 0.55728 0.1588 0.90248 0.0
H1570 H 0.53083 0.12807 0.93752 0.0
H1571 H 0.614 0.19768 0.90229 0.0
H1572 H 0.55525 0.10655 0.86116 0.0
H1573 H 0.53259 0.05014 0.85553 0.0
H1574 H 0.61334 0.03989 0.85446 0.0
H1575 H 0.63652 0.09617 0.86043 0.0
C1576 C 0.67992 0.21972 0.7905 0.0
C1577 C 0.70724 0.23788 0.79873 0.0
C1578 C 0.66009 0.20394 0.80752 0.0
C1579 C 0.66694 0.20635 0.83323 0.0
C1580 C 0.69436 0.2246 0.84152 0.0
C1581 C 0.71424 0.24054 0.82441 0.0
C1582 C 0.64538 0.1893 0.85111 0.0
C1583 C 0.63144 0.15719 0.84865 0.0
C1584 C 0.63847 0.20421 0.87039 0.0
C1585 C 0.65168 0.23828 0.87348 0.0
C1586 C 0.66628 0.24944 0.89611 0.0
C1587 C 0.67953 0.28149 0.8988 0.0
C1588 C 0.67821 0.30263 0.87903 0.0
C1589 C 0.66346 0.29179 0.85657 0.0
C1590 C 0.65015 0.25977 0.85378 0.0
C1591 C 0.58142 0.0946 0.9382 0.0
C1592 C 0.55773 0.10012 0.9456 0.0
C1593 C 0.59636 0.11197 0.91858 0.0
C1594 C 0.58807 0.13537 0.90545 0.0
C1595 C 0.56409 0.14081 0.91234 0.0
C1596 C 0.54883 0.12309 0.93217 0.0
C1597 C 0.6053 0.15407 0.88503 0.0
C1598 C 0.61862 0.18639 0.88713 0.0
C1599 C 0.61151 0.13945 0.8652 0.0
C1600 C 0.59762 0.10559 0.8614 0.0
C1601 C 0.56819 0.09224 0.85989 0.0
C1602 C 0.55525 0.06029 0.85661 0.0
C1603 C 0.57151 0.04144 0.85468 0.0
C1604 C 0.60076 0.05452 0.85596 0.0
C1605 C 0.61381 0.08646 0.85926 0.0
H1606 H 0.56145 0.0167 0.85216 0.0
H1607 H 0.68859 0.32739 0.88114 0.0
H1608 H 0.77799 0.69326 0.82142 0.0
H1609 H 0.80496 0.67475 0.85454 0.0
H1610 H 0.87638 0.75789 0.84349 0.0
H1611 H 0.84943 0.77539 0.80872 0.0
H1612 H 0.89773 0.71662 0.8533 0.0
H1613 H 0.83099 0.7338 0.90353 0.0
H1614 H 0.78437 0.73006 0.91607 0.0
H1615 H 0.75786 0.63014 0.91642 0.0
H1616 H 0.8045 0.63328 0.90444 0.0
H1617 H 0.97184 0.67881 0.96596 0.0
H1618 H 0.94657 0.7016 0.93358 0.0
H1619 H 0.87732 0.61492 0.93208 0.0
H1620 H 0.90251 0.59206 0.96446 0.0
H1621 H 0.85597 0.66023 0.92994 0.0
H1622 H 0.92567 0.64465 0.88337 0.0
H1623 H 0.9736 0.64998 0.87366 0.0
H1624 H 0.99565 0.74969 0.86771 0.0
H1625 H 0.94793 0.74496 0.87771 0.0
C1626 C 0.7992 0.70824 0.82645 0.0
C1627 C 0.8107 0.73678 0.81279 0.0
C1628 C 0.81488 0.69755 0.84584 0.0
C1629 C 0.8431 0.7149 0.85298 0.0
C1630 C 0.85478 0.7436 0.83921 0.0
C1631 C 0.83906 0.75413 0.81938 0.0
C1632 C 0.86039 0.70215 0.87348 0.0
C1633 C 0.88848 0.70488 0.8702 0.0
C1634 C 0.84914 0.68579 0.89586 0.0
C1635 C 0.82105 0.68381 0.90279 0.0
C1636 C 0.81513 0.71106 0.90615 0.0
C1637 C 0.78876 0.70904 0.91323 0.0
C1638 C 0.76808 0.67992 0.91675 0.0
C1639 C 0.77386 0.6527 0.91357 0.0
C1640 C 0.8003 0.65457 0.90681 0.0
C1641 C 0.9514 0.66426 0.9586 0.0
C1642 C 0.93975 0.63312 0.96818 0.0
C1643 C 0.93675 0.67749 0.93979 0.0
C1644 C 0.90961 0.66034 0.9296 0.0
C1645 C 0.89801 0.62921 0.93913 0.0
C1646 C 0.91273 0.6159 0.95778 0.0
C1647 C 0.89314 0.67475 0.9097 0.0
C1648 C 0.86521 0.6722 0.91309 0.0
C1649 C 0.90468 0.69157 0.88763 0.0
C1650 C 0.93332 0.69446 0.88154 0.0
C1651 C 0.9408 0.66772 0.88017 0.0
C1652 C 0.96792 0.67063 0.87458 0.0
C1653 C 0.98768 0.70016 0.87014 0.0
C1654 C 0.98033 0.72683 0.8712 0.0
C1655 C 0.95325 0.72405 0.87681 0.0
H1656 H 1.00867 0.70237 0.86582 0.0
H1657 H 0.74764 0.67845 0.92208 0.0
H1658 H 0.18491 0.29247 0.24185 0.0
H1659 H 0.15434 0.31708 0.2162 0.0
H1660 H 0.22649 0.38075 0.18213 0.0
H1661 H 0.25637 0.35514 0.20618 0.0
H1662 H 0.19436 0.41503 0.19386 0.0
H1663 H 0.16877 0.32754 0.13772 0.0
H1664 H 0.14813 0.27426 0.12247 0.0
H1665 H 0.0761 0.25792 0.16419 0.0
H1666 H 0.09612 0.31137 0.17919 0.0
H1667 H 0.12583 0.49771 0.10325 0.0
H1668 H 0.1529 0.46929 0.12785 0.0
H1669 H 0.07749 0.39042 0.13644 0.0
H1670 H 0.05072 0.41843 0.11035 0.0
H1671 H 0.11032 0.36277 0.13928 0.0
H1672 H 0.12986 0.45276 0.18686 0.0
H1673 H 0.14547 0.50867 0.1954 0.0
H1674 H 0.22701 0.52114 0.17147 0.0
H1675 H 0.21179 0.46535 0.16256 0.0
C1676 C 0.19443 0.31092 0.22831 0.0
C1677 C 0.224 0.32014 0.22613 0.0
C1678 C 0.17655 0.32562 0.21342 0.0
C1679 C 0.18704 0.35165 0.19613 0.0
C1680 C 0.21656 0.3611 0.19456 0.0
C1681 C 0.23408 0.34592 0.20871 0.0
C1682 C 0.16858 0.37016 0.18096 0.0
C1683 C 0.17611 0.40316 0.18185 0.0
C1684 C 0.14376 0.35646 0.16509 0.0
C1685 C 0.13417 0.32307 0.15995 0.0
C1686 C 0.1488 0.31232 0.144 0.0
C1687 C 0.137 0.2823 0.13507 0.0
C1688 C 0.11074 0.26277 0.14223 0.0
C1689 C 0.09639 0.27308 0.15859 0.0
C1690 C 0.10794 0.30322 0.1673 0.0
C1691 C 0.11455 0.47447 0.11055 0.0
C1692 C 0.0851 0.46154 0.10436 0.0
C1693 C 0.13048 0.45771 0.12531 0.0
C1694 C 0.11832 0.42673 0.13581 0.0
C1695 C 0.08879 0.41383 0.12953 0.0
C1696 C 0.07292 0.43042 0.11435 0.0
C1697 C 0.13584 0.40782 0.15221 0.0
C1698 C 0.1283 0.3748 0.15148 0.0
C1699 C 0.16039 0.42149 0.1686 0.0
C1700 C 0.16959 0.45499 0.17379 0.0
C1701 C 0.15106 0.46748 0.18329 0.0
C1702 C 0.15985 0.49913 0.18821 0.0
C1703 C 0.18718 0.51846 0.18391 0.0
C1704 C 0.20582 0.50616 0.17474 0.0
C1705 C 0.19714 0.47452 0.16977 0.0
H1706 H 0.19394 0.54296 0.18773 0.0
H1707 H 0.10165 0.23956 0.13531 0.0
H1708 H 0.19672 0.7334 0.79856 0.0
H1709 H 0.16118 0.71069 0.82904 0.0
H1710 H 0.22696 0.71577 0.88645 0.0
H1711 H 0.26213 0.74023 0.85649 0.0
H1712 H 0.14742 0.658 0.85407 0.0
H1713 H 0.21787 0.71364 0.92986 0.0
H1714 H 0.24824 0.76174 0.94976 0.0
H1715 H 0.19074 0.80861 0.92145 0.0
H1716 H 0.16075 0.76112 0.90051 0.0
H1717 H 0.08803 0.56815 0.96223 0.0
H1718 H 0.11698 0.59827 0.92933 0.0
H1719 H 0.09058 0.67628 0.94007 0.0
H1720 H 0.06132 0.64577 0.97353 0.0
H1721 H 0.14705 0.69563 0.93759 0.0
H1722 H 0.06954 0.63241 0.88612 0.0
H1723 H 0.03455 0.58252 0.87319 0.0
H1724 H 0.10062 0.54936 0.85795 0.0
H1725 H 0.13602 0.59891 0.87108 0.0
C1726 C 0.20359 0.73098 0.81793 0.0
C1727 C 0.23251 0.74007 0.82511 0.0
C1728 C 0.18314 0.7175 0.83548 0.0
C1729 C 0.19078 0.71212 0.86084 0.0
C1730 C 0.21979 0.72092 0.86777 0.0
C1731 C 0.24015 0.73465 0.85033 0.0
C1732 C 0.16865 0.6947 0.87913 0.0
C1733 C 0.14755 0.6665 0.87228 0.0
C1734 C 0.16792 0.70493 0.90325 0.0
C1735 C 0.18786 0.73443 0.91265 0.0
C1736 C 0.21226 0.73457 0.9272 0.0
C1737 C 0.2293 0.76163 0.93879 0.0
C1738 C 0.22153 0.78829 0.93671 0.0
C1739 C 0.19685 0.78801 0.92289 0.0
C1740 C 0.18006 0.7612 0.91084 0.0
C1741 C 0.08769 0.59146 0.95722 0.0
C1742 C 0.07174 0.60414 0.97045 0.0
C1743 C 0.10445 0.60882 0.93825 0.0
C1744 C 0.10618 0.6398 0.93167 0.0
C1745 C 0.08977 0.65246 0.94447 0.0
C1746 C 0.07263 0.63483 0.96346 0.0
C1747 C 0.12627 0.65905 0.91256 0.0
C1748 C 0.14689 0.68736 0.91926 0.0
C1749 C 0.1267 0.6487 0.88849 0.0
C1750 C 0.10544 0.61933 0.87972 0.0
C1751 C 0.07661 0.61445 0.88006 0.0
C1752 C 0.0567 0.58623 0.87271 0.0
C1753 C 0.06536 0.56276 0.8648 0.0
C1754 C 0.09394 0.56756 0.86408 0.0
C1755 C 0.11394 0.59574 0.87143 0.0
H1756 H 0.04992 0.54088 0.85921 0.0
H1757 H 0.23454 0.80913 0.9459 0.0
H1758 H 0.36652 0.29332 0.8141 0.0
H1759 H 0.38934 0.26135 0.84013 0.0
H1760 H 0.31699 0.17946 0.82622 0.0
H1761 H 0.29436 0.21133 0.79961 0.0
H1762 H 0.34066 0.18348 0.87736 0.0
H1763 H 0.36925 0.18949 0.79428 0.0
H1764 H 0.38802 0.21687 0.75523 0.0
H1765 H 0.4658 0.26646 0.79498 0.0
H1766 H 0.4473 0.23975 0.83437 0.0
H1767 H 0.40541 0.07299 0.91944 0.0
H1768 H 0.38205 0.10122 0.89025 0.0
H1769 H 0.45408 0.18494 0.89766 0.0
H1770 H 0.47767 0.15696 0.92708 0.0
H1771 H 0.4294 0.17879 0.84932 0.0
H1772 H 0.40181 0.17426 0.93212 0.0
H1773 H 0.38362 0.14899 0.97197 0.0
H1774 H 0.30472 0.09903 0.93411 0.0
H1775 H 0.32262 0.12349 0.89394 0.0
C1776 C 0.35534 0.26855 0.81687 0.0
C1777 C 0.32843 0.25494 0.80523 0.0
C1778 C 0.36841 0.25031 0.83171 0.0
C1779 C 0.35495 0.21797 0.83507 0.0
C1780 C 0.32773 0.20437 0.82399 0.0
C1781 C 0.31474 0.22263 0.8089 0.0
C1782 C 0.37009 0.19833 0.84893 0.0
C1783 C 0.3598 0.18201 0.87105 0.0
C1784 C 0.39546 0.19705 0.84101 0.0
C1785 C 0.40679 0.21283 0.81731 0.0
C1786 C 0.39028 0.20641 0.79473 0.0
C1787 C 0.40088 0.22178 0.77253 0.0
C1788 C 0.42806 0.24344 0.77263 0.0
C1789 C 0.44473 0.2497 0.79494 0.0
C1790 C 0.43421 0.23444 0.8172 0.0
C1791 C 0.41675 0.09716 0.91437 0.0
C1792 C 0.44344 0.11269 0.92593 0.0
C1793 C 0.40316 0.11338 0.89781 0.0
C1794 C 0.416 0.1454 0.8922 0.0
C1795 C 0.44362 0.16031 0.90188 0.0
C1796 C 0.45715 0.14419 0.91866 0.0
C1797 C 0.39996 0.16375 0.87776 0.0
C1798 C 0.41013 0.17998 0.85558 0.0
C1799 C 0.37458 0.16511 0.88575 0.0
C1800 C 0.36372 0.15038 0.90993 0.0
C1801 C 0.3807 0.15761 0.93223 0.0
C1802 C 0.37043 0.14345 0.95489 0.0
C1803 C 0.34309 0.12231 0.95555 0.0
C1804 C 0.32593 0.11534 0.93356 0.0
C1805 C 0.33614 0.12932 0.91083 0.0
H1806 H 0.33515 0.11144 0.9731 0.0
H1807 H 0.43623 0.25532 0.75543 0.0
H1808 H 0.81646 0.29131 0.85499 0.0
H1809 H 0.84086 0.32331 0.88988 0.0
H1810 H 0.85337 0.40643 0.84238 0.0
H1811 H 0.82954 0.37444 0.8073 0.0
H1812 H 0.90007 0.41246 0.87218 0.0
H1813 H 0.80161 0.38115 0.88492 0.0
H1814 H 0.75421 0.3429 0.88973 0.0
H1815 H 0.78504 0.30098 0.95452 0.0
H1816 H 0.83279 0.33839 0.94977 0.0
H1817 H 0.94409 0.51889 0.97014 0.0
H1818 H 0.91536 0.48952 0.9352 0.0
H1819 H 0.89999 0.40387 0.97994 0.0
H1820 H 0.92856 0.43302 0.01473 0.0
H1821 H 0.85384 0.40048 0.95102 0.0
H1822 H 0.9512 0.42693 0.93771 0.0
H1823 H 1.00003 0.46124 0.93277 0.0
H1824 H 0.97255 0.50957 0.87 0.0
H1825 H 0.92347 0.47571 0.87471 0.0
C1826 C 0.82485 0.31628 0.85172 0.0
C1827 C 0.82111 0.32992 0.82797 0.0
C1828 C 0.83856 0.33478 0.87193 0.0
C1829 C 0.8489 0.36764 0.86916 0.0
C1830 C 0.84571 0.38128 0.84532 0.0
C1831 C 0.83191 0.3628 0.82516 0.0
C1832 C 0.86266 0.38774 0.89098 0.0
C1833 C 0.88967 0.41011 0.88923 0.0
C1834 C 0.84971 0.38453 0.91372 0.0
C1835 C 0.82087 0.36243 0.91686 0.0
C1836 C 0.79834 0.36366 0.90011 0.0
C1837 C 0.7714 0.34215 0.90283 0.0
C1838 C 0.76663 0.31958 0.92241 0.0
C1839 C 0.78878 0.31848 0.93935 0.0
C1840 C 0.81579 0.33981 0.93665 0.0
C1841 C 0.93381 0.49394 0.97286 0.0
C1842 C 0.93862 0.47852 0.99554 0.0
C1843 C 0.91768 0.47699 0.95263 0.0
C1844 C 0.90573 0.44412 0.95448 0.0
C1845 C 0.9089 0.42904 0.97768 0.0
C1846 C 0.92521 0.44588 -0.00225 0.0
C1847 C 0.89122 0.42523 0.93219 0.0
C1848 C 0.86412 0.40304 0.93388 0.0
C1849 C 0.90419 0.42837 0.90947 0.0
C1850 C 0.93361 0.44904 0.90676 0.0
C1851 C 0.95553 0.44508 0.923 0.0
C1852 C 0.98326 0.4644 0.92022 0.0
C1853 C 0.98937 0.48765 0.90115 0.0
C1854 C 0.96776 0.49159 0.8848 0.0
C1855 C 0.93999 0.47233 0.88751 0.0
H1856 H 1.01086 0.50255 0.89899 0.0
H1857 H 0.74577 0.30294 0.92446 0.0
H1858 H 0.70028 0.88826 0.84623 0.0
H1859 H 0.66885 0.90086 0.87195 0.0
H1860 H 0.73746 0.93702 0.92685 0.0
H1861 H 0.76828 0.92229 0.90232 0.0
H1862 H 0.69478 0.91129 0.95045 0.0
H1863 H 0.71208 0.98455 0.88081 0.0
H1864 H 0.71391 0.00292 0.8367 0.0
H1865 H 0.62472 0.9585 0.8253 0.0
H1866 H 0.62241 0.93948 0.86929 0.0
H1867 H 0.63019 0.01073 0.00346 0.0
H1868 H 0.66215 0.99409 0.98078 0.0
H1869 H 0.59114 0.92879 0.94179 0.0
H1870 H 0.55932 0.94444 0.96457 0.0
H1871 H 0.63553 0.9709 0.9109 0.0
H1872 H 0.62099 0.8985 0.9831 0.0
H1873 H 0.62181 0.88535 0.0282 0.0
H1874 H 0.71036 0.93571 0.03543 0.0
H1875 H 0.70998 0.94954 0.99039 0.0
C1876 C 0.70859 0.89828 0.86401 0.0
C1877 C 0.73711 0.90471 0.87184 0.0
C1878 C 0.69063 0.90598 0.87859 0.0
C1879 C 0.70082 0.92086 0.90114 0.0
C1880 C 0.72894 0.92593 0.90948 0.0
C1881 C 0.74673 0.91779 0.89517 0.0
C1882 C 0.68257 0.93168 0.91589 0.0
C1883 C 0.68215 0.92465 0.94171 0.0
C1884 C 0.6658 0.9491 0.90479 0.0
C1885 C 0.66713 0.96028 0.87828 0.0
C1886 C 0.69289 0.97846 0.86885 0.0
C1887 C 0.69401 0.98903 0.84388 0.0
C1888 C 0.66946 0.9818 0.82819 0.0
C1889 C 0.64373 0.96403 0.83746 0.0
C1890 C 0.6425 0.95335 0.86241 0.0
C1891 C 0.62142 0.99268 0.99019 0.0
C1892 C 0.59215 0.97882 0.98602 0.0
C1893 C 0.63969 0.9832 0.97725 0.0
C1894 C 0.62898 0.96021 0.95957 0.0
C1895 C 0.59986 0.94656 0.95531 0.0
C1896 C 0.58169 0.95548 0.96853 0.0
C1897 C 0.64787 0.95038 0.94514 0.0
C1898 C 0.64833 0.95762 0.91945 0.0
C1899 C 0.66513 0.93384 0.95642 0.0
C1900 C 0.66539 0.92536 0.98344 0.0
C1901 C 0.64058 0.90702 0.99435 0.0
C1902 C 0.64098 0.89939 0.01989 0.0
C1903 C 0.6661 0.90978 0.03469 0.0
C1904 C 0.69091 0.92773 0.02395 0.0
C1905 C 0.69062 0.93545 -0.00158 0.0
H1906 H 0.66637 0.90385 0.05446 0.0
H1907 H 0.67037 0.99003 0.80887 0.0
H1908 H 0.77801 0.70118 0.2139 0.0
H1909 H 0.8024 0.68236 0.18554 0.0
H1910 H 0.87809 0.75907 0.20206 0.0
H1911 H 0.85288 0.7787 0.23045 0.0
H1912 H 0.88087 0.74736 0.15555 0.0
H1913 H 0.8618 0.67389 0.22508 0.0
H1914 H 0.83271 0.63729 0.25586 0.0
H1915 H 0.78199 0.58169 0.1971 0.0
H1916 H 0.81058 0.61818 0.16593 0.0
H1917 H 0.9665 0.67567 0.0989 0.0
H1918 H 0.94349 0.69793 0.12638 0.0
H1919 H 0.8663 0.62181 0.11357 0.0
H1920 H 0.88968 0.59901 0.08625 0.0
H1921 H 0.86533 0.63399 0.15884 0.0
H1922 H 0.88433 0.70775 0.08928 0.0
H1923 H 0.91309 0.74477 0.05853 0.0
H1924 H 0.96412 0.79988 0.11741 0.0
H1925 H 0.93584 0.76298 0.14854 0.0
C1926 C 0.79981 0.71458 0.21157 0.0
C1927 C 0.81269 0.74208 0.22496 0.0
C1928 C 0.81423 0.70325 0.19519 0.0
C1929 C 0.84311 0.71801 0.19133 0.0
C1930 C 0.8561 0.74622 0.20416 0.0
C1931 C 0.84142 0.75781 0.22063 0.0
C1932 C 0.85899 0.70376 0.17436 0.0
C1933 C 0.87758 0.72257 0.1568 0.0
C1934 C 0.8552 0.67109 0.17451 0.0
C1935 C 0.83818 0.64892 0.19317 0.0
C1936 C 0.84436 0.65394 0.21872 0.0
C1937 C 0.82797 0.63321 0.23623 0.0
C1938 C 0.80548 0.60722 0.22843 0.0
C1939 C 0.7994 0.60185 0.20311 0.0
C1940 C 0.81571 0.62253 0.18551 0.0
C1941 C 0.94454 0.66337 0.10165 0.0
C1942 C 0.93053 0.63501 0.0895 0.0
C1943 C 0.93098 0.67661 0.1176 0.0
C1944 C 0.9022 0.66271 0.12252 0.0
C1945 C 0.88824 0.63403 0.11072 0.0
C1946 C 0.90187 0.62071 0.09469 0.0
C1947 C 0.88717 0.67754 0.1399 0.0
C1948 C 0.86869 0.65879 0.15756 0.0
C1949 C 0.89112 0.71025 0.13985 0.0
C1950 C 0.90816 0.73242 0.12123 0.0
C1951 C 0.9018 0.72765 0.09567 0.0
C1952 C 0.918 0.74863 0.07817 0.0
C1953 C 0.94047 0.77461 0.08601 0.0
C1954 C 0.94674 0.77971 0.11137 0.0
C1955 C 0.93063 0.75879 0.12894 0.0
H1956 H 0.95298 0.79082 0.07244 0.0
H1957 H 0.7928 0.59122 0.24202 0.0
H1958 H 0.35938 0.84209 0.25179 0.0
H1959 H 0.38597 0.87422 0.21842 0.0
H1960 H 0.31024 0.85229 0.16983 0.0
H1961 H 0.28451 0.81688 0.20249 0.0
H1962 H 0.34619 0.85013 0.14397 0.0
H1963 H 0.35657 0.9421 0.19415 0.0
H1964 H 0.36979 0.97308 0.23173 0.0
H1965 H 0.44789 0.95557 0.24176 0.0
H1966 H 0.43582 0.92608 0.20346 0.0
H1967 H 0.3911 0.96821 0.05063 0.0
H1968 H 0.37077 0.93559 0.08627 0.0
H1969 H 0.45347 0.94923 0.1213 0.0
H1970 H 0.47434 0.98294 0.08534 0.0
H1971 H 0.41874 0.95431 0.15448 0.0
H1972 H 0.41305 0.87877 0.09652 0.0
H1973 H 0.40221 0.85456 0.05591 0.0
H1974 H 0.31478 0.84052 0.06015 0.0
H1975 H 0.32514 0.86509 0.10063 0.0
C1976 C 0.3483 0.84445 0.23406 0.0
C1977 C 0.31945 0.82767 0.23021 0.0
C1978 C 0.36356 0.86344 0.21492 0.0
C1979 C 0.35036 0.86704 0.19136 0.0
C1980 C 0.3213 0.85051 0.18767 0.0
C1981 C 0.30624 0.83066 0.20662 0.0
C1982 C 0.36696 0.88574 0.17009 0.0
C1983 C 0.36163 0.87316 0.14638 0.0
C1984 C 0.38843 0.91527 0.17282 0.0
C1985 C 0.39503 0.93141 0.1964 0.0
C1986 C 0.37638 0.94461 0.20459 0.0
C1987 C 0.38375 0.96204 0.22588 0.0
C1988 C 0.40935 0.96569 0.23942 0.0
C1989 C 0.42796 0.9525 0.23139 0.0
C1990 C 0.42102 0.93576 0.20975 0.0
C1991 C 0.40524 0.96438 0.06576 0.0
C1992 C 0.43458 0.97841 0.06484 0.0
C1993 C 0.39341 0.94536 0.08622 0.0
C1994 C 0.4104 0.9393 0.10653 0.0
C1995 C 0.43977 0.95329 0.10587 0.0
C1996 C 0.45174 0.97249 0.08521 0.0
C1997 C 0.39705 0.91916 0.12846 0.0
C1998 C 0.40318 0.93131 0.1522 0.0
C1999 C 0.37631 0.88926 0.12573 0.0
C2000 C 0.36992 0.87398 0.10156 0.0
C2001 C 0.39153 0.87069 0.08874 0.0
C2002 C 0.38547 0.85688 0.06574 0.0
C2003 C 0.35783 0.84606 0.05544 0.0
C2004 C 0.33618 0.84892 0.06815 0.0
C2005 C 0.34213 0.86275 0.09114 0.0
H2006 H 0.35318 0.83542 0.03761 0.0
H2007 H 0.41488 0.97902 0.25599 0.0
H2008 H 0.72138 0.28247 0.18931 0.0
H2009 H 0.68869 0.26186 0.15325 0.0
H2010 H 0.69799 0.17168 0.16934 0.0
H2011 H 0.7303 0.19224 0.20494 0.0
H2012 H 0.69656 0.18322 0.12121 0.0
H2013 H 0.64354 0.18968 0.18788 0.0
H2014 H 0.63031 0.21614 0.22025 0.0
H2015 H 0.60546 0.27525 0.16431 0.0
H2016 H 0.61913 0.24956 0.13152 0.0
H2017 H 0.56942 0.08207 0.06351 0.0
H2018 H 0.60843 0.10956 0.09235 0.0
H2019 H 0.59723 0.19694 0.06785 0.0
H2020 H 0.55804 0.16964 0.03921 0.0
H2021 H 0.60098 0.18999 0.11798 0.0
H2022 H 0.65315 0.17833 0.05104 0.0
H2023 H 0.66579 0.14829 0.02092 0.0
H2024 H 0.68957 0.09302 0.08082 0.0
H2025 H 0.67675 0.12246 0.11128 0.0
C2026 C 0.71665 0.25842 0.18476 0.0
C2027 C 0.7289 0.23908 0.19931 0.0
C2028 C 0.69799 0.24664 0.16429 0.0
C2029 C 0.69085 0.21516 0.15859 0.0
C2030 C 0.70347 0.19611 0.17307 0.0
C2031 C 0.7222 0.20794 0.19328 0.0
C2032 C 0.66912 0.20125 0.13853 0.0
C2033 C 0.67563 0.1846 0.12057 0.0
C2034 C 0.64181 0.20313 0.13763 0.0
C2035 C 0.63287 0.21809 0.15724 0.0
C2036 C 0.63552 0.20852 0.18246 0.0
C2037 C 0.62794 0.22338 0.20088 0.0
C2038 C 0.61728 0.24755 0.19432 0.0
C2039 C 0.61397 0.25672 0.16932 0.0
C2040 C 0.62164 0.24204 0.15081 0.0
C2041 C 0.57553 0.10717 0.06392 0.0
C2042 C 0.56054 0.12358 0.04899 0.0
C2043 C 0.59785 0.12289 0.08045 0.0
C2044 C 0.60584 0.15536 0.08219 0.0
C2045 C 0.59139 0.17188 0.06688 0.0
C2046 C 0.56903 0.15619 0.05043 0.0
C2047 C 0.62846 0.17199 0.10068 0.0
C2048 C 0.62204 0.18901 0.11842 0.0
C2049 C 0.65565 0.16985 0.10174 0.0
C2050 C 0.66381 0.15249 0.08343 0.0
C2051 C 0.66094 0.15967 0.05778 0.0
C2052 C 0.66816 0.14275 0.04065 0.0
C2053 C 0.67843 0.11872 0.04895 0.0
C2054 C 0.68161 0.11162 0.07441 0.0
C2055 C 0.67441 0.12845 0.09161 0.0
H2056 H 0.68398 0.10563 0.03566 0.0
H2057 H 0.61144 0.25905 0.20861 0.0
H2058 H 0.69696 0.76754 0.81469 0.0
H2059 H 0.66229 0.73941 0.84433 0.0
H2060 H 0.67888 0.65466 0.83404 0.0
H2061 H 0.71252 0.68239 0.80347 0.0
H2062 H 0.62592 0.64088 0.84051 0.0
H2063 H 0.71285 0.70416 0.88229 0.0
H2064 H 0.75114 0.75369 0.89038 0.0
H2065 H 0.6921 0.79347 0.91223 0.0
H2066 H 0.65331 0.74426 0.90394 0.0
H2067 H 0.62525 0.5946 0.97906 0.0
H2068 H 0.6465 0.62963 0.94456 0.0
H2069 H 0.56422 0.61908 0.90941 0.0
H2070 H 0.54286 0.5828 0.94354 0.0
H2071 H 0.64545 0.68375 0.9245 0.0
H2072 H 0.56871 0.6165 0.84589 0.0
H2073 H 0.53601 0.56337 0.8381 0.0
H2074 H 0.58377 0.52506 0.8926 0.0
H2075 H 0.61701 0.57772 0.90022 0.0
C2076 C 0.69286 0.74279 0.81854 0.0
C2077 C 0.70755 0.72711 0.8071 0.0
C2078 C 0.67312 0.72679 0.83545 0.0
C2079 C 0.66846 0.69512 0.84178 0.0
C2080 C 0.68216 0.67911 0.82944 0.0
C2081 C 0.70143 0.69496 0.81207 0.0
C2082 C 0.6512 0.67921 0.86263 0.0
C2083 C 0.62996 0.6504 0.85881 0.0
C2084 C 0.65681 0.69141 0.8866 0.0
C2085 C 0.68017 0.72068 0.89226 0.0
C2086 C 0.70802 0.72351 0.88874 0.0
C2087 C 0.72981 0.75152 0.89335 0.0
C2088 C 0.72407 0.77673 0.90175 0.0
C2089 C 0.69651 0.77393 0.90569 0.0
C2090 C 0.67461 0.74599 0.90105 0.0
C2091 C 0.61166 0.59991 0.96409 0.0
C2092 C 0.58237 0.58607 0.96399 0.0
C2093 C 0.62382 0.62014 0.94449 0.0
C2094 C 0.60694 0.62681 0.92439 0.0
C2095 C 0.57762 0.61407 0.9247 0.0
C2096 C 0.56542 0.59366 0.94431 0.0
C2097 C 0.62042 0.64523 0.90246 0.0
C2098 C 0.64094 0.67456 0.90607 0.0
C2099 C 0.61487 0.63295 0.87853 0.0
C2100 C 0.59505 0.6011 0.87391 0.0
C2101 C 0.5722 0.59669 0.85617 0.0
C2102 C 0.55358 0.56664 0.85177 0.0
C2103 C 0.55762 0.54082 0.865 0.0
C2104 C 0.58047 0.545 0.88247 0.0
C2105 C 0.59923 0.57495 0.88683 0.0
H2106 H 0.54312 0.51758 0.86163 0.0
H2107 H 0.74099 0.79842 0.90525 0.0
H2108 H 0.3433 0.66286 0.79727 0.0
H2109 H 0.38811 0.66637 0.81892 0.0
H2110 H 0.3454 0.60695 0.87926 0.0
H2111 H 0.30019 0.60558 0.85864 0.0
H2112 H 0.3872 0.65006 0.89784 0.0
H2113 H 0.37584 0.57988 0.83322 0.0
H2114 H 0.36727 0.56195 0.79038 0.0
H2115 H 0.43987 0.63776 0.76845 0.0
H2116 H 0.4487 0.65631 0.81114 0.0
H2117 H 0.48186 0.56399 0.92663 0.0
H2118 H 0.45813 0.58342 0.89168 0.0
H2119 H 0.48983 0.67552 0.92033 0.0
H2120 H 0.51292 0.65572 0.95626 0.0
H2121 H 0.4587 0.62529 0.8549 0.0
H2122 H 0.4335 0.69534 0.92717 0.0
H2123 H 0.43771 0.6995 0.97278 0.0
H2124 H 0.43003 0.60279 0.98309 0.0
H2125 H 0.42539 0.59803 0.93761 0.0
C2126 C 0.34328 0.65104 0.81541 0.0
C2127 C 0.31799 0.63423 0.82635 0.0
C2128 C 0.36905 0.65267 0.82757 0.0
C2129 C 0.37018 0.63664 0.85056 0.0
C2130 C 0.34504 0.61959 0.86151 0.0
C2131 C 0.31917 0.61849 0.84957 0.0
C2132 C 0.39756 0.63761 0.86322 0.0
C2133 C 0.40291 0.64497 0.88831 0.0
C2134 C 0.41803 0.63064 0.85095 0.0
C2135 C 0.41269 0.61971 0.82525 0.0
C2136 C 0.38982 0.59287 0.8192 0.0
C2137 C 0.38496 0.58256 0.79497 0.0
C2138 C 0.40295 0.59878 0.77668 0.0
C2139 C 0.42591 0.62527 0.78262 0.0
C2140 C 0.43087 0.63568 0.80682 0.0
C2141 C 0.48494 0.58873 0.92486 0.0
C2142 C 0.4983 0.60823 0.94439 0.0
C2143 C 0.4716 0.59989 0.90468 0.0
C2144 C 0.47164 0.63063 0.90377 0.0
C2145 C 0.48924 0.65153 0.92099 0.0
C2146 C 0.50253 0.64027 0.94142 0.0
C2147 C 0.44809 0.63746 0.88941 0.0
C2148 C 0.44336 0.63151 0.86405 0.0
C2149 C 0.42744 0.64396 0.90174 0.0
C2150 C 0.42947 0.64649 0.92907 0.0
C2151 C 0.43262 0.67499 0.93921 0.0
C2152 C 0.43508 0.67743 0.96502 0.0
C2153 C 0.43425 0.65145 0.98083 0.0
C2154 C 0.43075 0.62291 0.97085 0.0
C2155 C 0.42818 0.62033 0.94507 0.0
H2156 H 0.43624 0.65341 0.00079 0.0
H2157 H 0.39915 0.59076 0.75793 0.0
H2158 H 0.35506 0.3671 0.79261 0.0
H2159 H 0.37708 0.4053 0.82398 0.0
H2160 H 0.29624 0.41119 0.83603 0.0
H2161 H 0.27409 0.3716 0.80531 0.0
H2162 H 0.38451 0.46099 0.83652 0.0
H2163 H 0.29449 0.41745 0.90049 0.0
H2164 H 0.25094 0.37348 0.90784 0.0
H2165 H 0.28299 0.31197 0.87383 0.0
H2166 H 0.32707 0.35542 0.86672 0.0
H2167 H 0.44886 0.51611 0.95509 0.0
H2168 H 0.41209 0.50716 0.92113 0.0
H2169 H 0.39705 0.40815 0.93002 0.0
H2170 H 0.43316 0.41682 0.96404 0.0
H2171 H 0.34918 0.41892 0.91899 0.0
H2172 H 0.44477 0.45971 0.89124 0.0
H2173 H 0.49098 0.50022 0.88609 0.0
H2174 H 0.45103 0.56119 0.84746 0.0
H2175 H 0.40455 0.52154 0.85326 0.0
C2176 C 0.34224 0.37761 0.80116 0.0
C2177 C 0.31307 0.36686 0.79651 0.0
C2178 C 0.35475 0.39934 0.81922 0.0
C2179 C 0.33824 0.41066 0.8328 0.0
C2180 C 0.30934 0.40233 0.82618 0.0
C2181 C 0.29674 0.38004 0.80847 0.0
C2182 C 0.35101 0.42731 0.8558 0.0
C2183 C 0.37653 0.45216 0.85455 0.0
C2184 C 0.34046 0.4161 0.87939 0.0
C2185 C 0.31384 0.38984 0.88266 0.0
C2186 C 0.29219 0.39457 0.89446 0.0
C2187 C 0.26747 0.36973 0.89863 0.0
C2188 C 0.26417 0.34001 0.89111 0.0
C2189 C 0.28559 0.33506 0.87945 0.0
C2190 C 0.31046 0.35978 0.87538 0.0
C2191 C 0.4372 0.49239 0.95025 0.0
C2192 C 0.44418 0.4672 0.96208 0.0
C2193 C 0.41629 0.48735 0.93074 0.0
C2194 C 0.40214 0.45704 0.92279 0.0
C2195 C 0.40773 0.43176 0.93579 0.0
C2196 C 0.42852 0.43676 0.9552 0.0
C2197 C 0.38344 0.45111 0.89968 0.0
C2198 C 0.35666 0.42854 0.90093 0.0
C2199 C 0.39311 0.46393 0.87615 0.0
C2200 C 0.42114 0.4879 0.87318 0.0
C2201 C 0.44582 0.48194 0.88202 0.0
C2202 C 0.47207 0.50476 0.87898 0.0
C2203 C 0.47392 0.53335 0.86665 0.0
C2204 C 0.44956 0.53911 0.85716 0.0
C2205 C 0.42326 0.51658 0.86049 0.0
H2206 H 0.49421 0.55105 0.86441 0.0
H2207 H 0.24512 0.32077 0.89452 0.0
H2208 H 0.71579 0.45977 0.80063 0.0
H2209 H 0.69433 0.46852 0.83703 0.0
H2210 H 0.63476 0.37492 0.83429 0.0
H2211 H 0.65649 0.36594 0.79825 0.0
H2212 H 0.61202 0.42243 0.84509 0.0
H2213 H 0.68667 0.3828 0.87011 0.0
H2214 H 0.73484 0.38186 0.87077 0.0
H2215 H 0.76673 0.47151 0.90291 0.0
H2216 H 0.7187 0.47348 0.90162 0.0
H2217 H 0.56412 0.3999 0.96403 0.0
H2218 H 0.58726 0.39093 0.9292 0.0
H2219 H 0.65228 0.48034 0.93825 0.0
H2220 H 0.6295 0.48935 0.97343 0.0
H2221 H 0.67259 0.43601 0.92382 0.0
H2222 H 0.59609 0.4741 0.89945 0.0
H2223 H 0.54717 0.47316 0.89851 0.0
H2224 H 0.51818 0.38432 0.86521 0.0
H2225 H 0.56678 0.38424 0.86659 0.0
C2226 C 0.69765 0.44144 0.80746 0.0
C2227 C 0.68764 0.41225 0.79679 0.0
C2228 C 0.68557 0.44636 0.82824 0.0
C2229 C 0.66317 0.42225 0.83832 0.0
C2230 C 0.65201 0.39376 0.82668 0.0
C2231 C 0.66438 0.38867 0.80619 0.0
C2232 C 0.65281 0.42576 0.86213 0.0
C2233 C 0.62512 0.42516 0.86236 0.0
C2234 C 0.67018 0.42962 0.88449 0.0
C2235 C 0.6991 0.42847 0.88545 0.0
C2236 C 0.70396 0.40249 0.87705 0.0
C2237 C 0.73125 0.40173 0.87759 0.0
C2238 C 0.75386 0.42658 0.88692 0.0
C2239 C 0.7492 0.45228 0.89566 0.0
C2240 C 0.72194 0.45327 0.89497 0.0
C2241 C 0.5837 0.41735 0.95901 0.0
C2242 C 0.59475 0.44556 0.97121 0.0
C2243 C 0.59683 0.41222 0.93905 0.0
C2244 C 0.62101 0.43536 0.93079 0.0
C2245 C 0.63347 0.46233 0.94426 0.0
C2246 C 0.62045 0.4674 0.9644 0.0
C2247 C 0.63171 0.43268 0.90685 0.0
C2248 C 0.65949 0.43345 0.90656 0.0
C2249 C 0.61434 0.42881 0.88442 0.0
C2250 C 0.5851 0.42905 0.88334 0.0
C2251 C 0.57927 0.45425 0.8921 0.0
C2252 C 0.55161 0.45392 0.89148 0.0
C2253 C 0.52962 0.42875 0.88179 0.0
C2254 C 0.53524 0.40381 0.87272 0.0
C2255 C 0.56283 0.40392 0.87346 0.0
H2256 H 0.50824 0.42858 0.88129 0.0
H2257 H 0.77498 0.4259 0.88739 0.0
H2258 H 0.6789 0.33054 0.21614 0.0
H2259 H 0.63487 0.32715 0.19219 0.0
H2260 H 0.64986 0.42415 0.20374 0.0
H2261 H 0.69353 0.42748 0.2284 0.0
H2262 H 0.59397 0.38792 0.20693 0.0
H2263 H 0.66962 0.40198 0.15351 0.0
H2264 H 0.70646 0.38704 0.13675 0.0
H2265 H 0.64475 0.3019 0.11202 0.0
H2266 H 0.60756 0.31601 0.12915 0.0
H2267 H 0.55976 0.46912 0.10303 0.0
H2268 H 0.57355 0.44302 0.14028 0.0
H2269 H 0.53648 0.35422 0.10638 0.0
H2270 H 0.52244 0.38047 0.0688 0.0
H2271 H 0.59201 0.36862 0.11763 0.0
H2272 H 0.51483 0.36394 0.16096 0.0
H2273 H 0.47895 0.38181 0.17612 0.0
H2274 H 0.54269 0.45115 0.21807 0.0
H2275 H 0.57919 0.43456 0.20255 0.0
C2276 C 0.67257 0.35102 0.21397 0.0
C2277 C 0.68975 0.37938 0.22405 0.0
C2278 C 0.64744 0.34901 0.20025 0.0
C2279 C 0.63919 0.37541 0.19615 0.0
C2280 C 0.65583 0.40347 0.20681 0.0
C2281 C 0.68095 0.40548 0.22057 0.0
C2282 C 0.61475 0.37491 0.17887 0.0
C2283 C 0.59336 0.38366 0.18739 0.0
C2284 C 0.61353 0.36806 0.15361 0.0
C2285 C 0.63589 0.35969 0.14317 0.0
C2286 C 0.66394 0.37986 0.14482 0.0
C2287 C 0.68488 0.37156 0.13522 0.0
C2288 C 0.67797 0.34338 0.12355 0.0
C2289 C 0.65008 0.32355 0.1213 0.0
C2290 C 0.62908 0.33167 0.13098 0.0
C2291 C 0.55372 0.44391 0.10382 0.0
C2292 C 0.54056 0.42683 0.08293 0.0
C2293 C 0.56138 0.42895 0.12523 0.0
C2294 C 0.55611 0.39666 0.12608 0.0
C2295 C 0.54066 0.37915 0.10607 0.0
C2296 C 0.53265 0.39414 0.08466 0.0
C2297 C 0.57179 0.38315 0.14536 0.0
C2298 C 0.59176 0.37175 0.13729 0.0
C2299 C 0.57175 0.38784 0.17092 0.0
C2300 C 0.54986 0.39794 0.18052 0.0
C2301 C 0.5213 0.38316 0.17328 0.0
C2302 C 0.5008 0.39304 0.18196 0.0
C2303 C 0.50849 0.41745 0.19814 0.0
C2304 C 0.53675 0.43216 0.20559 0.0
C2305 C 0.55737 0.42253 0.19684 0.0
H2306 H 0.49256 0.42499 0.20488 0.0
H2307 H 0.69421 0.337 0.1161 0.0
H2308 H 0.68472 0.74756 0.21922 0.0
H2309 H 0.65449 0.71021 0.18945 0.0
H2310 H 0.70887 0.65478 0.20264 0.0
H2311 H 0.73628 0.6896 0.23431 0.0
H2312 H 0.66136 0.69697 0.14907 0.0
H2313 H 0.68182 0.58239 0.18707 0.0
H2314 H 0.68865 0.55678 0.2278 0.0
H2315 H 0.64403 0.60596 0.26171 0.0
H2316 H 0.63643 0.63141 0.2211 0.0
H2317 H 0.62107 0.60685 0.04863 0.0
H2318 H 0.65222 0.62945 0.08472 0.0
H2319 H 0.59253 0.5672 0.13354 0.0
H2320 H 0.56299 0.54278 0.09749 0.0
H2321 H 0.6385 0.58216 0.15782 0.0
H2322 H 0.58921 0.64114 0.11036 0.0
H2323 H 0.57362 0.66668 0.07282 0.0
H2324 H 0.6584 0.72731 0.06453 0.0
H2325 H 0.67456 0.70179 0.10184 0.0
C2326 C 0.68941 0.72675 0.21618 0.0
C2327 C 0.71238 0.72098 0.22915 0.0
C2328 C 0.67241 0.70557 0.19906 0.0
C2329 C 0.67898 0.67914 0.19395 0.0
C2330 C 0.70238 0.67398 0.20683 0.0
C2331 C 0.71835 0.69417 0.22476 0.0
C2332 C 0.6628 0.65822 0.17398 0.0
C2333 C 0.65618 0.67186 0.1512 0.0
C2334 C 0.65533 0.62527 0.17668 0.0
C2335 C 0.65873 0.60899 0.20102 0.0
C2336 C 0.67321 0.58751 0.20315 0.0
C2337 C 0.67727 0.57306 0.22624 0.0
C2338 C 0.66683 0.57979 0.24733 0.0
C2339 C 0.65214 0.60081 0.24536 0.0
C2340 C 0.64794 0.61524 0.2223 0.0
C2341 C 0.61553 0.59702 0.0671 0.0
C2342 C 0.58984 0.57328 0.07052 0.0
C2343 C 0.63301 0.61017 0.08771 0.0
C2344 C 0.62407 0.60103 0.11185 0.0
C2345 C 0.59981 0.57497 0.11516 0.0
C2346 C 0.58294 0.56094 0.09455 0.0
C2347 C 0.63748 0.62108 0.13304 0.0
C2348 C 0.64355 0.60727 0.15595 0.0
C2349 C 0.64274 0.6537 0.13105 0.0
C2350 C 0.63313 0.66936 0.10874 0.0
C2351 C 0.60454 0.65982 0.10046 0.0
C2352 C 0.5956 0.67428 0.07922 0.0
C2353 C 0.61502 0.69856 0.06627 0.0
C2354 C 0.6434 0.70847 0.07456 0.0
C2355 C 0.65246 0.69402 0.09575 0.0
H2356 H 0.60806 0.70973 0.04983 0.0
H2357 H 0.67012 0.56871 0.26521 0.0
H2358 H 0.39186 0.6704 0.23081 0.0
H2359 H 0.40738 0.65818 0.19245 0.0
H2360 H 0.32124 0.61914 0.16375 0.0
H2361 H 0.3056 0.63186 0.20197 0.0
H2362 H 0.35993 0.58289 0.15784 0.0
H2363 H 0.3498 0.68388 0.14152 0.0
H2364 H 0.35701 0.73819 0.15092 0.0
H2365 H 0.44622 0.76062 0.15094 0.0
H2366 H 0.43955 0.70628 0.14195 0.0
H2367 H 0.404 0.57098 0.03986 0.0
H2368 H 0.37731 0.58432 0.06998 0.0
H2369 H 0.45386 0.64953 0.10196 0.0
H2370 H 0.48043 0.63721 0.07163 0.0
H2371 H 0.41335 0.6718 0.10328 0.0
H2372 H 0.42572 0.5724 0.12496 0.0
H2373 H 0.42138 0.51827 0.11746 0.0
H2374 H 0.33162 0.49268 0.10981 0.0
H2375 H 0.33547 0.54681 0.11689 0.0
C2376 C 0.37627 0.6588 0.21646 0.0
C2377 C 0.34758 0.65205 0.21924 0.0
C2378 C 0.38512 0.65199 0.19457 0.0
C2379 C 0.36541 0.63796 0.17533 0.0
C2380 C 0.3367 0.63001 0.17845 0.0
C2381 C 0.32784 0.63733 0.20017 0.0
C2382 C 0.37505 0.63281 0.1516 0.0
C2383 C 0.37115 0.60222 0.1456 0.0
C2384 C 0.39009 0.65817 0.13603 0.0
C2385 C 0.39417 0.69092 0.14128 0.0
C2386 C 0.37096 0.70031 0.14376 0.0
C2387 C 0.37495 0.73112 0.14897 0.0
C2388 C 0.40206 0.75283 0.15158 0.0
C2389 C 0.42523 0.74378 0.14894 0.0
C2390 C 0.42136 0.71298 0.14376 0.0
C2391 C 0.41507 0.5886 0.053 0.0
C2392 C 0.44444 0.60261 0.05358 0.0
C2393 C 0.3998 0.59609 0.07028 0.0
C2394 C 0.41369 0.61733 0.08863 0.0
C2395 C 0.44268 0.63292 0.08809 0.0
C2396 C 0.45789 0.62574 0.07071 0.0
C2397 C 0.39877 0.62181 0.1096 0.0
C2398 C 0.40171 0.65234 0.11519 0.0
C2399 C 0.38325 0.59638 0.12502 0.0
C2400 C 0.38089 0.56372 0.12116 0.0
C2401 C 0.40507 0.55527 0.12153 0.0
C2402 C 0.4027 0.52459 0.11736 0.0
C2403 C 0.37624 0.50207 0.11308 0.0
C2404 C 0.3521 0.51016 0.11307 0.0
C2405 C 0.35436 0.54084 0.11716 0.0
H2406 H 0.37445 0.47834 0.10984 0.0
H2407 H 0.4051 0.77667 0.1556 0.0
H2408 H 0.33114 0.25883 0.20785 0.0
H2409 H 0.36186 0.27995 0.17331 0.0
H2410 H 0.34638 0.36704 0.17387 0.0
H2411 H 0.31622 0.34653 0.20804 0.0
H2412 H 0.33811 0.33607 0.12512 0.0
H2413 H 0.40655 0.37236 0.19934 0.0
H2414 H 0.4327 0.36136 0.23767 0.0
H2415 H 0.45964 0.29921 0.19889 0.0
H2416 H 0.43391 0.31014 0.16028 0.0
H2417 H 0.42088 0.47438 0.07316 0.0
H2418 H 0.39575 0.43175 0.10125 0.0
H2419 H 0.45411 0.38418 0.09191 0.0
H2420 H 0.47974 0.42733 0.06427 0.0
H2421 H 0.44188 0.37848 0.13874 0.0
H2422 H 0.38845 0.35908 0.06191 0.0
H2423 H 0.36457 0.37126 0.02274 0.0
H2424 H 0.30773 0.39631 0.06386 0.0
H2425 H 0.33152 0.38474 0.1033 0.0
C2426 C 0.33439 0.28246 0.2005 0.0
C2427 C 0.32155 0.30118 0.21064 0.0
C2428 C 0.3519 0.29443 0.18095 0.0
C2429 C 0.35619 0.32494 0.17123 0.0
C2430 C 0.3432 0.34342 0.18123 0.0
C2431 C 0.32614 0.33172 0.20082 0.0
C2432 C 0.3739 0.33838 0.15042 0.0
C2433 C 0.36083 0.3451 0.12783 0.0
C2434 C 0.40342 0.34893 0.15383 0.0
C2435 C 0.41813 0.34177 0.17711 0.0
C2436 C 0.41788 0.35616 0.19909 0.0
C2437 C 0.43265 0.35001 0.22082 0.0
C2438 C 0.44761 0.32942 0.22077 0.0
C2439 C 0.44794 0.31503 0.19895 0.0
C2440 C 0.43333 0.32125 0.17713 0.0
C2441 C 0.42842 0.45489 0.07711 0.0
C2442 C 0.45219 0.45402 0.06628 0.0
C2443 C 0.41395 0.43046 0.09305 0.0
C2444 C 0.42258 0.40436 0.09802 0.0
C2445 C 0.44692 0.40393 0.08805 0.0
C2446 C 0.46162 0.42865 0.07232 0.0
C2447 C 0.406 0.37785 0.11383 0.0
C2448 C 0.41927 0.36857 0.1354 0.0
C2449 C 0.37656 0.36445 0.10927 0.0
C2450 C 0.36183 0.37105 0.08559 0.0
C2451 C 0.37093 0.3673 0.06261 0.0
C2452 C 0.3574 0.3741 0.04035 0.0
C2453 C 0.33464 0.38455 0.04081 0.0
C2454 C 0.32534 0.38817 0.06354 0.0
C2455 C 0.3388 0.38142 0.08586 0.0
H2456 H 0.32422 0.38982 0.02356 0.0
H2457 H 0.45905 0.32472 0.23761 0.0
H2458 H 0.75873 0.59858 0.64422 0.0
H2459 H 0.7895 0.58692 0.61733 0.0
H2460 H 0.86164 0.65171 0.65549 0.0
H2461 H 0.83091 0.66296 0.68311 0.0
H2462 H 0.86403 0.65506 0.60301 0.0
H2463 H 0.84593 0.57725 0.67058 0.0
H2464 H 0.81651 0.53579 0.69813 0.0
H2465 H 0.77885 0.48035 0.63525 0.0
H2466 H 0.80772 0.52175 0.60725 0.0
H2467 H 0.97316 0.60722 0.57155 0.0
H2468 H 0.93864 0.62109 0.59152 0.0
H2469 H 0.87248 0.54377 0.55902 0.0
H2470 H 0.90746 0.52888 0.53931 0.0
H2471 H 0.86425 0.54626 0.60597 0.0
H2472 H 0.88373 0.62175 0.53834 0.0
H2473 H 0.9131 0.66253 0.5103 0.0
H2474 H 0.94707 0.72188 0.57161 0.0
H2475 H 0.91824 0.68124 0.60013 0.0
C2476 C 0.78115 0.61038 0.64701 0.0
C2477 C 0.79233 0.63134 0.6662 0.0
C2478 C 0.79871 0.60372 0.63151 0.0
C2479 C 0.8279 0.61802 0.63464 0.0
C2480 C 0.83914 0.64029 0.65281 0.0
C2481 C 0.82154 0.64682 0.66852 0.0
C2482 C 0.84661 0.60879 0.61954 0.0
C2483 C 0.86433 0.63137 0.60382 0.0
C2484 C 0.84629 0.5776 0.61998 0.0
C2485 C 0.82875 0.55278 0.63678 0.0
C2486 C 0.83116 0.55637 0.66259 0.0
C2487 C 0.81462 0.53285 0.67829 0.0
C2488 C 0.79575 0.50549 0.66844 0.0
C2489 C 0.79342 0.50159 0.64285 0.0
C2490 C 0.80987 0.52507 0.62706 0.0
C2491 C 0.95128 0.59314 0.56833 0.0
C2492 C 0.94319 0.56688 0.55364 0.0
C2493 C 0.93145 0.60132 0.57975 0.0
C2494 C 0.90279 0.58392 0.57649 0.0
C2495 C 0.89446 0.55771 0.56175 0.0
C2496 C 0.91446 0.54926 0.55042 0.0
C2497 C 0.88199 0.59259 0.58947 0.0
C2498 C 0.86384 0.56991 0.60487 0.0
C2499 C 0.88175 0.62365 0.58856 0.0
C2500 C 0.89894 0.64832 0.57142 0.0
C2501 C 0.89759 0.64341 0.54589 0.0
C2502 C 0.91413 0.66652 0.5299 0.0
C2503 C 0.93197 0.69476 0.53917 0.0
C2504 C 0.93325 0.69998 0.56446 0.0
C2505 C 0.91678 0.67693 0.58054 0.0
H2506 H 0.94477 0.71262 0.52677 0.0
H2507 H 0.783 0.48728 0.68063 0.0
H2508 H 0.35624 0.83424 0.74284 0.0
H2509 H 0.39082 0.85875 0.71183 0.0
H2510 H 0.3244 0.83464 0.65341 0.0
H2511 H 0.29 0.81336 0.68451 0.0
H2512 H 0.41359 0.84812 0.67667 0.0
H2513 H 0.3377 0.87543 0.6012 0.0
H2514 H 0.29293 0.8859 0.59678 0.0
H2515 H 0.31053 0.92431 0.66885 0.0
H2516 H 0.35523 0.91391 0.67385 0.0
H2517 H 0.485 0.90848 0.56175 0.0
H2518 H 0.45546 0.87855 0.59517 0.0
H2519 H 0.43845 0.96099 0.61151 0.0
H2520 H 0.4672 0.99029 0.57821 0.0
H2521 H 0.39156 0.91712 0.60877 0.0
H2522 H 0.48044 0.92423 0.65164 0.0
H2523 H 0.52662 0.91717 0.65749 0.0
H2524 H 0.48684 0.81807 0.65312 0.0
H2525 H 0.44042 0.82458 0.64691 0.0
C2526 C 0.34912 0.83424 0.72334 0.0
C2527 C 0.32026 0.8214 0.71622 0.0
C2528 C 0.36899 0.84831 0.70543 0.0
C2529 C 0.36074 0.84986 0.67975 0.0
C2530 C 0.33189 0.83564 0.67281 0.0
C2531 C 0.31202 0.82276 0.69071 0.0
C2532 C 0.38193 0.86681 0.66053 0.0
C2533 C 0.40858 0.86319 0.66189 0.0
C2534 C 0.37625 0.88686 0.64081 0.0
C2535 C 0.34963 0.89363 0.63797 0.0
C2536 C 0.33199 0.88616 0.61609 0.0
C2537 C 0.30657 0.89197 0.61355 0.0
C2538 C 0.29875 0.90555 0.63265 0.0
C2539 C 0.31643 0.91351 0.65424 0.0
C2540 C 0.34179 0.90763 0.65696 0.0
C2541 C 0.47576 0.92043 0.57307 0.0
C2542 C 0.47909 0.95213 0.56743 0.0
C2543 C 0.45855 0.90318 0.59218 0.0
C2544 C 0.44423 0.91714 0.60625 0.0
C2545 C 0.44873 0.94913 0.60115 0.0
C2546 C 0.46562 0.96614 0.58215 0.0
C2547 C 0.42327 0.89879 0.6251 0.0
C2548 C 0.39659 0.90205 0.62356 0.0
C2549 C 0.42915 0.87889 0.64475 0.0
C2550 C 0.45699 0.87493 0.64852 0.0
C2551 C 0.48156 0.90095 0.65173 0.0
C2552 C 0.50777 0.89705 0.65514 0.0
C2553 C 0.50967 0.8672 0.65559 0.0
C2554 C 0.48534 0.84118 0.65271 0.0
C2555 C 0.45908 0.84496 0.64926 0.0
H2556 H 0.52999 0.86423 0.65824 0.0
H2557 H 0.27906 0.91002 0.6307 0.0
H2558 H 0.25417 0.34682 0.73793 0.0
H2559 H 0.23065 0.37726 0.71059 0.0
H2560 H 0.1633 0.29249 0.69206 0.0
H2561 H 0.18677 0.26214 0.71927 0.0
H2562 H 0.1794 0.33285 0.65076 0.0
H2563 H 0.15563 0.33703 0.73477 0.0
H2564 H 0.16722 0.3482 0.77914 0.0
H2565 H 0.2105 0.4446 0.75941 0.0
H2566 H 0.19955 0.43388 0.71488 0.0
H2567 H 0.07351 0.38853 0.59803 0.0
H2568 H 0.09805 0.36198 0.62766 0.0
H2569 H 0.15854 0.45066 0.64781 0.0
H2570 H 0.13394 0.47751 0.61848 0.0
H2571 H 0.14868 0.41084 0.68792 0.0
H2572 H 0.17249 0.40862 0.60493 0.0
H2573 H 0.16368 0.39895 0.56017 0.0
H2574 H 0.12365 0.30111 0.57717 0.0
H2575 H 0.13182 0.31027 0.62206 0.0
C2576 C 0.23462 0.33471 0.72764 0.0
C2577 C 0.22251 0.30208 0.73031 0.0
C2578 C 0.22107 0.35211 0.7122 0.0
C2579 C 0.19508 0.33719 0.69935 0.0
C2580 C 0.18334 0.30453 0.70168 0.0
C2581 C 0.19672 0.28722 0.71724 0.0
C2582 C 0.17938 0.35541 0.68426 0.0
C2583 C 0.17242 0.34964 0.65895 0.0
C2584 C 0.17092 0.37801 0.69473 0.0
C2585 C 0.17701 0.3846 0.72149 0.0
C2586 C 0.16777 0.36057 0.73989 0.0
C2587 C 0.17421 0.36682 0.76506 0.0
C2588 C 0.18964 0.39708 0.77208 0.0
C2589 C 0.19858 0.42117 0.75394 0.0
C2590 C 0.19225 0.41502 0.72873 0.0
C2591 C 0.09162 0.40254 0.60916 0.0
C2592 C 0.10183 0.43527 0.60552 0.0
C2593 C 0.10581 0.38724 0.626 0.0
C2594 C 0.13065 0.40422 0.63953 0.0
C2595 C 0.13961 0.43696 0.63745 0.0
C2596 C 0.12541 0.45231 0.62064 0.0
C2597 C 0.14819 0.38784 0.65445 0.0
C2598 C 0.15562 0.39404 0.67969 0.0
C2599 C 0.15736 0.36584 0.64385 0.0
C2600 C 0.15251 0.36019 0.61687 0.0
C2601 C 0.16161 0.38508 0.59913 0.0
C2602 C 0.15676 0.37968 0.57373 0.0
C2603 C 0.14305 0.34944 0.56583 0.0
C2604 C 0.13422 0.32453 0.58332 0.0
C2605 C 0.13897 0.3298 0.60874 0.0
H2606 H 0.13933 0.34531 0.54616 0.0
H2607 H 0.19463 0.40186 0.79158 0.0
H2608 H 0.74857 0.19234 0.7099 0.0
H2609 H 0.72527 0.16191 0.6739 0.0
H2610 H 0.68583 0.23011 0.65024 0.0
H2611 H 0.70951 0.26094 0.68604 0.0
H2612 H 0.6478 0.16718 0.64861 0.0
H2613 H 0.73741 0.22927 0.61948 0.0
H2614 H 0.7891 0.25077 0.6214 0.0
H2615 H 0.79287 0.1583 0.62118 0.0
H2616 H 0.74114 0.13618 0.61956 0.0
H2617 H 0.62273 0.12327 0.51471 0.0
H2618 H 0.65384 0.15423 0.54777 0.0
H2619 H 0.63251 0.0731 0.59804 0.0
H2620 H 0.6022 0.04173 0.56479 0.0
H2621 H 0.70148 0.14402 0.58501 0.0
H2622 H 0.61094 0.10523 0.64871 0.0
H2623 H 0.55912 0.08442 0.64548 0.0
H2624 H 0.55763 0.13378 0.5748 0.0
H2625 H 0.60936 0.1553 0.57783 0.0
C2626 C 0.7349 0.20097 0.69713 0.0
C2627 C 0.73082 0.22922 0.70127 0.0
C2628 C 0.72162 0.18349 0.67639 0.0
C2629 C 0.70358 0.19347 0.6592 0.0
C2630 C 0.69947 0.22165 0.6632 0.0
C2631 C 0.71316 0.23945 0.68374 0.0
C2632 C 0.68915 0.17454 0.63714 0.0
C2633 C 0.65965 0.16219 0.63478 0.0
C2634 C 0.70432 0.16787 0.6188 0.0
C2635 C 0.7354 0.18106 0.6196 0.0
C2636 C 0.74925 0.21349 0.62003 0.0
C2637 C 0.77856 0.2258 0.62101 0.0
C2638 C 0.79425 0.20591 0.62141 0.0
C2639 C 0.78067 0.17367 0.62084 0.0
C2640 C 0.75135 0.16124 0.61986 0.0
C2641 C 0.62554 0.11169 0.5325 0.0
C2642 C 0.61019 0.0798 0.53686 0.0
C2643 C 0.64326 0.12951 0.55148 0.0
C2644 C 0.6455 0.11617 0.57555 0.0
C2645 C 0.63128 0.08401 0.57967 0.0
C2646 C 0.61411 0.06597 0.5605 0.0
C2647 C 0.66026 0.13637 0.5968 0.0
C2648 C 0.68974 0.14891 0.59898 0.0
C2649 C 0.64512 0.14338 0.61492 0.0
C2650 C 0.61401 0.13149 0.61335 0.0
C2651 C 0.59953 0.11173 0.63254 0.0
C2652 C 0.57019 0.09981 0.63074 0.0
C2653 C 0.55512 0.10761 0.60986 0.0
C2654 C 0.56934 0.12761 0.59088 0.0
C2655 C 0.59866 0.13963 0.59262 0.0
H2656 H 0.53242 0.09821 0.60841 0.0
H2657 H 0.81692 0.2155 0.62209 0.0
H2658 H 0.80848 0.27952 0.35457 0.0
H2659 H 0.8396 0.3094 0.38788 0.0
H2660 H 0.89358 0.36813 0.33334 0.0
H2661 H 0.86339 0.3371 0.30024 0.0
H2662 H 0.92489 0.35945 0.3687 0.0
H2663 H 0.84494 0.39071 0.36509 0.0
H2664 H 0.79458 0.38375 0.36401 0.0
H2665 H 0.7902 0.34052 0.4376 0.0
H2666 H 0.84045 0.34669 0.43896 0.0
H2667 H 0.97136 0.47451 0.47413 0.0
H2668 H 0.93529 0.45039 0.44144 0.0
H2669 H 0.9539 0.36497 0.454 0.0
H2670 H 0.98956 0.3885 0.48663 0.0
H2671 H 0.88666 0.39529 0.43731 0.0
H2672 H 0.96348 0.34463 0.3959 0.0
H2673 H 1.01475 0.35836 0.39407 0.0
H2674 H 0.02619 0.45451 0.40335 0.0
H2675 H 0.97517 0.44148 0.40496 0.0
C2676 C 0.82706 0.29877 0.34977 0.0
C2677 C 0.83348 0.30607 0.32484 0.0
C2678 C 0.84474 0.31604 0.3688 0.0
C2679 C 0.86873 0.34163 0.36323 0.0
C2680 C 0.87527 0.3486 0.33826 0.0
C2681 C 0.85797 0.33084 0.3193 0.0
C2682 C 0.88728 0.36075 0.38339 0.0
C2683 C 0.91639 0.36729 0.38359 0.0
C2684 C 0.87654 0.37211 0.40253 0.0
C2685 C 0.84645 0.36898 0.40206 0.0
C2686 C 0.83322 0.37959 0.38101 0.0
C2687 C 0.80469 0.37577 0.38034 0.0
C2688 C 0.7892 0.36168 0.40072 0.0
C2689 C 0.80224 0.35144 0.42183 0.0
C2690 C 0.83075 0.35511 0.42257 0.0
C2691 C 0.96736 0.45038 0.47035 0.0
C2692 C 0.98365 0.43361 0.4829 0.0
C2693 C 0.94669 0.43663 0.45165 0.0
C2694 C 0.9422 0.40603 0.44509 0.0
C2695 C 0.95724 0.38872 0.4586 0.0
C2696 C 0.97768 0.4023 0.47728 0.0
C2697 C 0.9238 0.39277 0.42282 0.0
C2698 C 0.89491 0.38747 0.42225 0.0
C2699 C 0.9348 0.38377 0.4027 0.0
C2700 C 0.96552 0.3919 0.40103 0.0
C2701 C 0.97697 0.36867 0.39754 0.0
C2702 C 1.00596 0.37633 0.39652 0.0
C2703 C 0.02369 0.40722 0.39872 0.0
C2704 C 1.01246 0.43055 0.4018 0.0
C2705 C 0.98351 0.42302 0.40283 0.0
H2706 H 0.04611 0.41308 0.39795 0.0
H2707 H 0.7671 0.3587 0.40015 0.0
H2708 H 0.77464 0.86552 0.32411 0.0
H2709 H 0.74734 0.88219 0.35166 0.0
H2710 H 0.67508 0.80247 0.3337 0.0
H2711 H 0.70266 0.78546 0.30573 0.0
H2712 H 0.66176 0.86117 0.33353 0.0
H2713 H 0.69926 0.80214 0.39318 0.0
H2714 H 0.73092 0.78166 0.42095 0.0
H2715 H 0.77666 0.87392 0.44501 0.0
H2716 H 0.74518 0.89491 0.4175 0.0
H2717 H 0.57933 0.88984 0.42721 0.0
H2718 H 0.60357 0.86832 0.4001 0.0
H2719 H 0.68283 0.93337 0.42643 0.0
H2720 H 0.65847 0.95525 0.4535 0.0
H2721 H 0.69083 0.87937 0.4226 0.0
H2722 H 0.64796 0.93621 0.36375 0.0
H2723 H 0.60903 0.95093 0.34232 0.0
H2724 H 0.56832 0.85688 0.31998 0.0
H2725 H 0.60684 0.8415 0.34157 0.0
C2726 C 0.75303 0.8509 0.32613 0.0
C2727 C 0.74173 0.82337 0.3125 0.0
C2728 C 0.73718 0.86067 0.34227 0.0
C2729 C 0.70865 0.84386 0.34591 0.0
C2730 C 0.69693 0.81637 0.33209 0.0
C2731 C 0.71301 0.8063 0.31594 0.0
C2732 C 0.69157 0.85616 0.36297 0.0
C2733 C 0.66815 0.86458 0.35309 0.0
C2734 C 0.69914 0.86183 0.38882 0.0
C2735 C 0.72026 0.85018 0.40282 0.0
C2736 C 0.71642 0.81814 0.40401 0.0
C2737 C 0.73411 0.80639 0.41995 0.0
C2738 C 0.75586 0.82649 0.43465 0.0
C2739 C 0.75985 0.85837 0.43358 0.0
C2740 C 0.74209 0.87021 0.41782 0.0
C2741 C 0.60195 0.89998 0.42732 0.0
C2742 C 0.61635 0.92491 0.44312 0.0
C2743 C 0.61608 0.88749 0.41137 0.0
C2744 C 0.6457 0.89884 0.41022 0.0
C2745 C 0.66018 0.92355 0.42621 0.0
C2746 C 0.64598 0.93638 0.44194 0.0
C2747 C 0.66135 0.88471 0.39316 0.0
C2748 C 0.68459 0.87613 0.403 0.0
C2749 C 0.65332 0.87849 0.36745 0.0
C2750 C 0.63015 0.88764 0.3545 0.0
C2751 C 0.63059 0.91861 0.35444 0.0
C2752 C 0.60862 0.92708 0.34223 0.0
C2753 C 0.58618 0.90483 0.32986 0.0
C2754 C 0.5857 0.87408 0.32961 0.0
C2755 C 0.6076 0.86547 0.34182 0.0
H2756 H 0.56919 0.91144 0.32041 0.0
H2757 H 0.76959 0.81735 0.44688 0.0
H2758 H 0.1776 0.7125 0.2894 0.0
H2759 H 0.15211 0.67619 0.32215 0.0
H2760 H 0.21794 0.72181 0.37674 0.0
H2761 H 0.2428 0.75789 0.34421 0.0
H2762 H 0.20121 0.66036 0.38641 0.0
H2763 H 0.15653 0.73717 0.36788 0.0
H2764 H 0.13262 0.76746 0.34076 0.0
H2765 H 0.06429 0.68353 0.32391 0.0
H2766 H 0.0881 0.65252 0.35063 0.0
H2767 H 0.13835 0.61262 0.4986 0.0
H2768 H 0.15747 0.64662 0.46272 0.0
H2769 H 0.08692 0.593 0.41564 0.0
H2770 H 0.06709 0.55954 0.45195 0.0
H2771 H 0.10418 0.65429 0.39993 0.0
H2772 H 0.14883 0.57846 0.42408 0.0
H2773 H 0.17204 0.55231 0.45599 0.0
H2774 H 0.24202 0.63729 0.46395 0.0
H2775 H 0.21851 0.6645 0.43317 0.0
C2776 C 0.18685 0.71419 0.30834 0.0
C2777 C 0.2129 0.73727 0.31408 0.0
C2778 C 0.17215 0.69365 0.32711 0.0
C2779 C 0.18298 0.69611 0.35212 0.0
C2780 C 0.20913 0.71903 0.35769 0.0
C2781 C 0.22359 0.73963 0.33899 0.0
C2782 C 0.16685 0.67592 0.37274 0.0
C2783 C 0.18004 0.65917 0.38936 0.0
C2784 C 0.13899 0.67387 0.37662 0.0
C2785 C 0.12437 0.69245 0.36089 0.0
C2786 C 0.13655 0.7251 0.35819 0.0
C2787 C 0.12302 0.74241 0.34286 0.0
C2788 C 0.09714 0.7274 0.33032 0.0
C2789 C 0.08447 0.69508 0.33347 0.0
C2790 C 0.098 0.67761 0.34867 0.0
C2791 C 0.12665 0.60837 0.48068 0.0
C2792 C 0.10135 0.58316 0.47809 0.0
C2793 C 0.13764 0.62781 0.46011 0.0
C2794 C 0.12418 0.62191 0.43618 0.0
C2795 C 0.09795 0.59793 0.43378 0.0
C2796 C 0.0866 0.57879 0.45456 0.0
C2797 C 0.13869 0.63907 0.41371 0.0
C2798 C 0.1252 0.65514 0.39675 0.0
C2799 C 0.1664 0.6407 0.40961 0.0
C2800 C 0.18167 0.62368 0.4265 0.0
C2801 C 0.16907 0.59168 0.43275 0.0
C2802 C 0.18215 0.57674 0.45085 0.0
C2803 C 0.20839 0.59319 0.46213 0.0
C2804 C 0.22162 0.62462 0.4553 0.0
C2805 C 0.20833 0.63988 0.43763 0.0
H2806 H 0.2186 0.58148 0.47596 0.0
H2807 H 0.08689 0.7408 0.31821 0.0
H2808 H 0.3493 0.23831 0.28451 0.0
H2809 H 0.37985 0.21394 0.30874 0.0
H2810 H 0.31653 0.17477 0.36111 0.0
H2811 H 0.2854 0.19733 0.33547 0.0
H2812 H 0.33653 0.13671 0.36863 0.0
H2813 H 0.43067 0.19327 0.31473 0.0
H2814 H 0.46153 0.24343 0.29694 0.0
H2815 H 0.44377 0.29198 0.35474 0.0
H2816 H 0.41195 0.24221 0.37216 0.0
H2817 H 0.42534 0.04786 0.42122 0.0
H2818 H 0.39703 0.07386 0.39509 0.0
H2819 H 0.45839 0.16319 0.41155 0.0
H2820 H 0.48724 0.13701 0.43675 0.0
H2821 H 0.44012 0.1764 0.37073 0.0
H2822 H 0.37986 0.121 0.43427 0.0
H2823 H 0.35302 0.0754 0.45998 0.0
H2824 H 0.30688 0.03143 0.3944 0.0
H2825 H 0.33366 0.07665 0.36829 0.0
C2826 C 0.34203 0.22547 0.30167 0.0
C2827 C 0.31456 0.22209 0.30809 0.0
C2828 C 0.36011 0.21103 0.31615 0.0
C2829 C 0.35234 0.1919 0.33842 0.0
C2830 C 0.32471 0.18868 0.34466 0.0
C2831 C 0.3065 0.20254 0.32987 0.0
C2832 C 0.3714 0.17429 0.35426 0.0
C2833 C 0.35918 0.14605 0.3687 0.0
C2834 C 0.40165 0.18442 0.35599 0.0
C2835 C 0.41849 0.21433 0.34429 0.0
C2836 C 0.43302 0.21478 0.32331 0.0
C2837 C 0.45058 0.2431 0.31327 0.0
C2838 C 0.45432 0.27094 0.32452 0.0
C2839 C 0.44048 0.27048 0.34579 0.0
C2840 C 0.4224 0.24231 0.35556 0.0
C2841 C 0.43325 0.07309 0.41928 0.0
C2842 C 0.45959 0.0895 0.43172 0.0
C2843 C 0.41635 0.08848 0.40424 0.0
C2844 C 0.42403 0.12166 0.40084 0.0
C2845 C 0.45065 0.13795 0.41298 0.0
C2846 C 0.46766 0.12255 0.4278 0.0
C2847 C 0.40517 0.13917 0.38495 0.0
C2848 C 0.41743 0.16723 0.37056 0.0
C2849 C 0.37502 0.12923 0.38377 0.0
C2850 C 0.35896 0.10203 0.39933 0.0
C2851 C 0.36409 0.10151 0.42534 0.0
C2852 C 0.34888 0.07575 0.43998 0.0
C2853 C 0.32832 0.05049 0.42882 0.0
C2854 C 0.32286 0.05098 0.40301 0.0
C2855 C 0.33803 0.07667 0.38829 0.0
H2856 H 0.31656 0.03057 0.44018 0.0
H2857 H 0.46812 0.29282 0.31688 0.0
H2858 H 0.77313 0.86003 0.69873 0.0
H2859 H 0.7433 0.878 0.66754 0.0
H2860 H 0.66993 0.80921 0.69645 0.0
H2861 H 0.70007 0.79162 0.72836 0.0
H2862 H 0.66604 0.8147 0.64241 0.0
H2863 H 0.68615 0.88393 0.70966 0.0
H2864 H 0.71714 0.92007 0.74013 0.0
H2865 H 0.75884 0.98135 0.68077 0.0
H2866 H 0.72835 0.94533 0.64993 0.0
H2867 H 0.57147 0.88011 0.56924 0.0
H2868 H 0.59647 0.85796 0.60229 0.0
H2869 H 0.67001 0.93998 0.59606 0.0
H2870 H 0.64459 0.96271 0.56416 0.0
H2871 H 0.6723 0.92556 0.64026 0.0
H2872 H 0.65681 0.85797 0.57302 0.0
H2873 H 0.62984 0.82179 0.54086 0.0
H2874 H 0.58397 0.75804 0.59704 0.0
H2875 H 0.61044 0.79403 0.62952 0.0
C2876 C 0.75066 0.84833 0.6984 0.0
C2877 C 0.73944 0.82346 0.71586 0.0
C2878 C 0.73341 0.85884 0.68042 0.0
C2879 C 0.7039 0.84527 0.67911 0.0
C2880 C 0.69247 0.82027 0.69652 0.0
C2881 C 0.70986 0.80995 0.71482 0.0
C2882 C 0.68545 0.85808 0.66028 0.0
C2883 C 0.66712 0.83885 0.64227 0.0
C2884 C 0.68704 0.8899 0.65901 0.0
C2885 C 0.70511 0.9118 0.67749 0.0
C2886 C 0.70204 0.90501 0.70311 0.0
C2887 C 0.71951 0.92549 0.72045 0.0
C2888 C 0.73998 0.95296 0.71239 0.0
C2889 C 0.74298 0.96005 0.68698 0.0
C2890 C 0.7256 0.93963 0.66956 0.0
C2891 C 0.5929 0.89366 0.57499 0.0
C2892 C 0.60557 0.92359 0.56359 0.0
C2893 C 0.60758 0.88064 0.59394 0.0
C2894 C 0.63599 0.89647 0.60199 0.0
C2895 C 0.64839 0.9266 0.59082 0.0
C2896 C 0.63359 0.93981 0.57224 0.0
C2897 C 0.65274 0.88232 0.6219 0.0
C2898 C 0.67092 0.90135 0.64023 0.0
C2899 C 0.65141 0.85044 0.62311 0.0
C2900 C 0.63534 0.82887 0.60365 0.0
C2901 C 0.64081 0.83635 0.57849 0.0
C2902 C 0.62564 0.81586 0.56021 0.0
C2903 C 0.60513 0.78769 0.56689 0.0
C2904 C 0.59981 0.7799 0.59189 0.0
C2905 C 0.61489 0.80033 0.61024 0.0
H2906 H 0.59343 0.77185 0.55272 0.0
H2907 H 0.75349 0.96878 0.72585 0.0
H2908 H 0.7572 0.22431 0.32869 0.0
H2909 H 0.72094 0.19533 0.35624 0.0
H2910 H 0.68446 0.12651 0.30093 0.0
H2911 H 0.71957 0.15749 0.27242 0.0
H2912 H 0.64492 0.13803 0.31673 0.0
H2913 H 0.72134 0.11308 0.36036 0.0
H2914 H 0.76896 0.12301 0.38041 0.0
H2915 H 0.75394 0.18166 0.43189 0.0
H2916 H 0.70616 0.17196 0.41221 0.0
H2917 H 0.5762 0.01882 0.40742 0.0
H2918 H 0.6012 0.05312 0.37378 0.0
H2919 H 0.61292 0.13334 0.41631 0.0
H2920 H 0.58715 0.09901 0.4497 0.0
H2921 H 0.66259 0.11782 0.40701 0.0
H2922 H 0.58261 0.13604 0.3644 0.0
H2923 H 0.53462 0.12167 0.34445 0.0
H2924 H 0.55648 0.07103 0.29063 0.0
H2925 H 0.6045 0.08467 0.31049 0.0
C2926 C 0.74116 0.20326 0.32234 0.0
C2927 C 0.73999 0.19396 0.29808 0.0
C2928 C 0.72081 0.18618 0.33834 0.0
C2929 C 0.69981 0.15859 0.33076 0.0
C2930 C 0.70013 0.14797 0.3071 0.0
C2931 C 0.72022 0.16549 0.2909 0.0
C2932 C 0.67666 0.14198 0.34691 0.0
C2933 C 0.64888 0.13334 0.33641 0.0
C2934 C 0.68164 0.13625 0.37271 0.0
C2935 C 0.71027 0.14197 0.3847 0.0
C2936 C 0.72825 0.12819 0.37589 0.0
C2937 C 0.75525 0.13375 0.38721 0.0
C2938 C 0.76453 0.1531 0.40732 0.0
C2939 C 0.74674 0.16672 0.41629 0.0
C2940 C 0.71965 0.16109 0.40514 0.0
C2941 C 0.58282 0.04388 0.40888 0.0
C2942 C 0.57972 0.05656 0.43077 0.0
C2943 C 0.59708 0.0634 0.38977 0.0
C2944 C 0.60883 0.09563 0.3927 0.0
C2945 C 0.6037 0.1085 0.41373 0.0
C2946 C 0.58896 0.08899 0.43266 0.0
C2947 C 0.63116 0.11435 0.37678 0.0
C2948 C 0.6588 0.12303 0.38735 0.0
C2949 C 0.62602 0.11954 0.35104 0.0
C2950 C 0.5971 0.11111 0.33912 0.0
C2951 C 0.57711 0.12154 0.34848 0.0
C2952 C 0.54991 0.1136 0.33714 0.0
C2953 C 0.54248 0.09537 0.31633 0.0
C2954 C 0.56225 0.08511 0.30677 0.0
C2955 C 0.58948 0.09297 0.31805 0.0
H2956 H 0.52142 0.08926 0.30757 0.0
H2957 H 0.78548 0.15745 0.41599 0.0
H2958 H 0.93948 0.76681 0.36909 0.0
H2959 H 0.97121 0.73661 0.37837 0.0
H2960 H 0.90391 0.6527 0.35786 0.0
H2961 H 0.872 0.6819 0.34993 0.0
H2962 H 0.92603 0.64983 0.40513 0.0
H2963 H 0.961 0.68177 0.32283 0.0
H2964 H 0.98236 0.721 0.28992 0.0
H2965 H 0.05478 0.76154 0.33946 0.0
H2966 H 0.03398 0.72237 0.37257 0.0
H2967 H 0.98184 0.54069 0.43704 0.0
H2968 H 0.97041 0.57136 0.40148 0.0
H2969 H 0.03652 0.65352 0.42697 0.0
H2970 H 0.04867 0.62302 0.46219 0.0
H2971 H 1.01787 0.65862 0.37482 0.0
H2972 H 0.98319 0.63872 0.45724 0.0
H2973 H 0.9652 0.60449 0.49392 0.0
H2974 H 0.89469 0.54867 0.44859 0.0
H2975 H 0.91255 0.58241 0.41157 0.0
C2976 C 0.93156 0.74197 0.36639 0.0
C2977 C 0.90315 0.72682 0.35885 0.0
C2978 C 0.9498 0.72487 0.37131 0.0
C2979 C 0.93988 0.6925 0.36858 0.0
C2980 C 0.912 0.67772 0.35985 0.0
C2981 C 0.89379 0.69458 0.3552 0.0
C2982 C 0.95667 0.67302 0.37861 0.0
C2983 C 0.94579 0.65136 0.39806 0.0
C2984 C 0.98313 0.67615 0.37025 0.0
C2985 C 0.99584 0.6993 0.35021 0.0
C2986 C 0.98145 0.6991 0.32671 0.0
C2987 C 0.99352 0.72124 0.30799 0.0
C2988 C 1.01994 0.74371 0.31258 0.0
C2989 C 0.03438 0.74403 0.33588 0.0
C2990 C 0.02253 0.72178 0.35459 0.0
C2991 C 0.99482 0.56493 0.4345 0.0
C2992 C 1.01507 0.57989 0.4531 0.0
C2993 C 0.98846 0.58237 0.41399 0.0
C2994 C 1.00196 0.61484 0.41228 0.0
C2995 C 0.0256 0.62856 0.42824 0.0
C2996 C 0.03219 0.6111 0.44862 0.0
C2997 C 0.98636 0.63464 0.40034 0.0
C2998 C 0.99772 0.65671 0.38123 0.0
C2999 C 0.96056 0.63273 0.40938 0.0
C3000 C 0.94934 0.61284 0.43165 0.0
C3001 C 0.96392 0.61905 0.45511 0.0
C3002 C 0.95376 0.59976 0.47594 0.0
C3003 C 0.92886 0.57437 0.47358 0.0
C3004 C 0.91401 0.56832 0.45038 0.0
C3005 C 0.92413 0.58752 0.42947 0.0
H3006 H 0.92104 0.55943 0.48972 0.0
H3007 H 0.02922 0.76088 0.29809 0.0
H3008 H 0.28542 0.86369 0.32883 0.0
H3009 H 0.30775 0.88679 0.368 0.0
H3010 H 0.31367 0.79824 0.39642 0.0
H3011 H 0.29165 0.77507 0.35753 0.0
H3012 H 0.30737 0.83713 0.4343 0.0
H3013 H 0.36295 0.83599 0.36724 0.0
H3014 H 0.37931 0.84489 0.32487 0.0
H3015 H 0.3949 0.94306 0.32818 0.0
H3016 H 0.3779 0.93464 0.37038 0.0
H3017 H 0.45473 0.8812 0.4842 0.0
H3018 H 0.40574 0.85661 0.46886 0.0
H3019 H 0.39829 0.94726 0.45166 0.0
H3020 H 0.44686 0.97186 0.46544 0.0
H3021 H 0.40084 0.90868 0.4114 0.0
H3022 H 0.35409 0.9067 0.48505 0.0
H3023 H 0.34411 0.89325 0.52904 0.0
H3024 H 0.3178 0.79573 0.51517 0.0
H3025 H 0.32806 0.80857 0.47116 0.0
C3026 C 0.29082 0.84893 0.34362 0.0
C3027 C 0.28768 0.81781 0.33981 0.0
C3028 C 0.30326 0.86208 0.36604 0.0
C3029 C 0.3124 0.84414 0.38485 0.0
C3030 C 0.30659 0.81232 0.38209 0.0
C3031 C 0.29453 0.79931 0.35962 0.0
C3032 C 0.33346 0.85966 0.40432 0.0
C3033 C 0.32781 0.85295 0.42947 0.0
C3034 C 0.36012 0.87974 0.39774 0.0
C3035 C 0.36868 0.88462 0.37179 0.0
C3036 C 0.36933 0.85939 0.35876 0.0
C3037 C 0.37889 0.86436 0.33485 0.0
C3038 C 0.38831 0.89452 0.32394 0.0
C3039 C 0.38773 0.91973 0.33673 0.0
C3040 C 0.37801 0.91486 0.36059 0.0
C3041 C 0.44243 0.89588 0.47778 0.0
C3042 C 0.45491 0.92853 0.47576 0.0
C3043 C 0.41434 0.88179 0.4695 0.0
C3044 C 0.39858 0.90028 0.45938 0.0
C3045 C 0.41011 0.93275 0.45984 0.0
C3046 C 0.43809 0.94677 0.46769 0.0
C3047 C 0.37472 0.88704 0.44152 0.0
C3048 C 0.38014 0.8937 0.41642 0.0
C3049 C 0.34839 0.86643 0.44836 0.0
C3050 C 0.34212 0.85863 0.47481 0.0
C3051 C 0.34646 0.88238 0.49141 0.0
C3052 C 0.34068 0.87486 0.51636 0.0
C3053 C 0.3304 0.84366 0.52491 0.0
C3054 C 0.32579 0.8199 0.50853 0.0
C3055 C 0.33156 0.82729 0.48357 0.0
H3056 H 0.32594 0.83789 0.54423 0.0
H3057 H 0.39588 0.89835 0.30548 0.0
H3058 H 0.31902 0.38737 0.42067 0.0
H3059 H 0.29479 0.40575 0.45004 0.0
H3060 H 0.25097 0.43967 0.38849 0.0
H3061 H 0.27614 0.42322 0.35938 0.0
H3062 H 0.26443 0.47896 0.42196 0.0
H3063 H 0.22172 0.36747 0.41989 0.0
H3064 H 0.21975 0.31261 0.42465 0.0
H3065 H 0.24703 0.32402 0.50195 0.0
H3066 H 0.24949 0.37911 0.49757 0.0
H3067 H 0.12445 0.42082 0.48643 0.0
H3068 H 0.16135 0.41237 0.46557 0.0
H3069 H 0.22066 0.49855 0.49238 0.0
H3070 H 0.18347 0.50765 0.51305 0.0
H3071 H 0.20631 0.40239 0.48234 0.0
H3072 H 0.27075 0.52927 0.44951 0.0
H3073 H 0.26473 0.57775 0.43065 0.0
H3074 H 0.17915 0.52688 0.40741 0.0
H3075 H 0.18466 0.47814 0.42612 0.0
C3076 C 0.3046 0.39929 0.4135 0.0
C3077 C 0.29916 0.40346 0.38773 0.0
C3078 C 0.29061 0.4095 0.43027 0.0
C3079 C 0.27082 0.42371 0.42144 0.0
C3080 C 0.26615 0.42878 0.39576 0.0
C3081 C 0.28029 0.41898 0.3791 0.0
C3082 C 0.25385 0.43237 0.43852 0.0
C3083 C 0.25199 0.46238 0.43546 0.0
C3084 C 0.23723 0.41046 0.4557 0.0
C3085 C 0.23623 0.37753 0.45831 0.0
C3086 C 0.22759 0.35837 0.43784 0.0
C3087 C 0.22632 0.32722 0.44048 0.0
C3088 C 0.2334 0.31489 0.46356 0.0
C3089 C 0.24167 0.33365 0.48407 0.0
C3090 C 0.24302 0.36484 0.48152 0.0
C3091 C 0.14529 0.43809 0.48794 0.0
C3092 C 0.15098 0.46489 0.50151 0.0
C3093 C 0.16643 0.43314 0.47604 0.0
C3094 C 0.19377 0.45479 0.47743 0.0
C3095 C 0.19963 0.48166 0.49089 0.0
C3096 C 0.17838 0.48672 0.5028 0.0
C3097 C 0.21595 0.44863 0.46495 0.0
C3098 C 0.21919 0.41926 0.46927 0.0
C3099 C 0.2326 0.47048 0.44776 0.0
C3100 C 0.22803 0.50018 0.43954 0.0
C3101 C 0.25055 0.52855 0.44068 0.0
C3102 C 0.24729 0.55601 0.42986 0.0
C3103 C 0.22167 0.55531 0.41762 0.0
C3104 C 0.19903 0.52732 0.41678 0.0
C3105 C 0.20214 0.49983 0.42768 0.0
H3106 H 0.2193 0.57652 0.40897 0.0
H3107 H 0.2324 0.29078 0.46556 0.0
H3108 H 0.36542 0.25033 0.61061 0.0
H3109 H 0.38084 0.21328 0.59128 0.0
H3110 H 0.38885 0.16747 0.66295 0.0
H3111 H 0.37528 0.20607 0.68277 0.0
H3112 H 0.43175 0.17227 0.63999 0.0
H3113 H 0.3339 0.13518 0.61553 0.0
H3114 H 0.28818 0.13747 0.59766 0.0
H3115 H 0.32234 0.16778 0.52665 0.0
H3116 H 0.36836 0.16621 0.54415 0.0
H3117 H 0.42114 0.04686 0.54243 0.0
H3118 H 0.39868 0.07137 0.56883 0.0
H3119 H 0.47383 0.15229 0.57279 0.0
H3120 H 0.49653 0.12782 0.54719 0.0
H3121 H 0.38467 0.12097 0.56249 0.0
H3122 H 0.48249 0.18855 0.62564 0.0
H3123 H 0.52593 0.18157 0.64505 0.0
H3124 H 0.48752 0.08214 0.6424 0.0
H3125 H 0.44373 0.08847 0.62327 0.0
C3126 C 0.37064 0.23258 0.62242 0.0
C3127 C 0.36931 0.23161 0.64841 0.0
C3128 C 0.37905 0.21093 0.61119 0.0
C3129 C 0.38571 0.18707 0.62549 0.0
C3130 C 0.3838 0.18553 0.6514 0.0
C3131 C 0.37571 0.2075 0.66272 0.0
C3132 C 0.39605 0.16495 0.61346 0.0
C3133 C 0.42129 0.16094 0.62313 0.0
C3134 C 0.38228 0.14943 0.59169 0.0
C3135 C 0.35465 0.15072 0.58121 0.0
C3136 C 0.33172 0.14257 0.59616 0.0
C3137 C 0.30574 0.14371 0.58608 0.0
C3138 C 0.30239 0.15276 0.56103 0.0
C3139 C 0.32499 0.16077 0.54603 0.0
C3140 C 0.35101 0.15973 0.55602 0.0
C3141 C 0.43295 0.06978 0.54906 0.0
C3142 C 0.46072 0.08524 0.54263 0.0
C3143 C 0.42005 0.08382 0.56415 0.0
C3144 C 0.43462 0.11358 0.5732 0.0
C3145 C 0.46226 0.12905 0.56665 0.0
C3146 C 0.47519 0.11501 0.55177 0.0
C3147 C 0.42075 0.12921 0.58857 0.0
C3148 C 0.3949 0.13203 0.57952 0.0
C3149 C 0.43366 0.14309 0.61116 0.0
C3150 C 0.45986 0.13902 0.62287 0.0
C3151 C 0.48325 0.16518 0.62932 0.0
C3152 C 0.50795 0.16135 0.64025 0.0
C3153 C 0.50947 0.13144 0.64495 0.0
C3154 C 0.48631 0.1053 0.63872 0.0
C3155 C 0.46156 0.109 0.62779 0.0
H3156 H 0.52861 0.12853 0.65344 0.0
H3157 H 0.2823 0.15351 0.55316 0.0
H3158 H 0.8595 0.31554 0.75837 0.0
H3159 H 0.89891 0.34406 0.73321 0.0
H3160 H 0.84243 0.33022 0.66722 0.0
H3161 H 0.80333 0.29988 0.69228 0.0
H3162 H 0.88893 0.312 0.66401 0.0
H3163 H 0.89148 0.4312 0.67454 0.0
H3164 H 0.88995 0.46955 0.70373 0.0
H3165 H 0.93347 0.42958 0.76097 0.0
H3166 H 0.93588 0.39168 0.73182 0.0
H3167 H 0.9439 0.41431 0.56365 0.0
H3168 H 0.91978 0.38158 0.59797 0.0
H3169 H 0.99347 0.4194 0.64742 0.0
H3170 H 1.01801 0.45251 0.6127 0.0
H3171 H 0.94754 0.42384 0.66564 0.0
H3172 H 0.97063 0.34272 0.63483 0.0
H3173 H 0.9762 0.30733 0.6051 0.0
H3174 H 0.88701 0.27217 0.5885 0.0
H3175 H 0.88089 0.30777 0.61775 0.0
C3176 C 0.85549 0.31951 0.73858 0.0
C3177 C 0.8283 0.30659 0.72729 0.0
C3178 C 0.878 0.33613 0.72422 0.0
C3179 C 0.87366 0.34051 0.69835 0.0
C3180 C 0.84632 0.32773 0.68718 0.0
C3181 C 0.82395 0.31055 0.70146 0.0
C3182 C 0.89767 0.35486 0.68232 0.0
C3183 C 0.90173 0.33649 0.6643 0.0
C3184 C 0.91539 0.38642 0.6834 0.0
C3185 C 0.91257 0.40767 0.70144 0.0
C3186 C 0.90033 0.43037 0.69348 0.0
C3187 C 0.8996 0.45225 0.70991 0.0
C3188 C 0.91131 0.45177 0.7343 0.0
C3189 C 0.92404 0.42964 0.74219 0.0
C3190 C 0.925 0.40789 0.72574 0.0
C3191 C 0.95525 0.41529 0.58171 0.0
C3192 C 0.98282 0.43621 0.5855 0.0
C3193 C 0.94144 0.39632 0.60133 0.0
C3194 C 0.95476 0.39782 0.62534 0.0
C3195 C 0.98278 0.41774 0.62904 0.0
C3196 C 0.99683 0.43655 0.6092 0.0
C3197 C 0.93806 0.38128 0.64664 0.0
C3198 C 0.93521 0.39918 0.66555 0.0
C3199 C 0.92176 0.34914 0.64658 0.0
C3200 C 0.92534 0.32821 0.62839 0.0
C3201 C 0.95221 0.32775 0.62462 0.0
C3202 C 0.95546 0.30757 0.60788 0.0
C3203 C 0.93199 0.28758 0.59486 0.0
C3204 C 0.9052 0.28773 0.59855 0.0
C3205 C 0.90183 0.3079 0.61523 0.0
H3206 H 0.93455 0.27191 0.58198 0.0
H3207 H 0.91069 0.46867 0.74701 0.0
H3208 H 0.22837 0.79559 0.69176 0.0
H3209 H 0.19884 0.76415 0.6584 0.0
H3210 H 0.14986 0.69954 0.71301 0.0
H3211 H 0.1792 0.73103 0.74622 0.0
H3212 H 0.18466 0.67719 0.68731 0.0
H3213 H 0.11685 0.72828 0.67125 0.0
H3214 H 0.09977 0.77251 0.66143 0.0
H3215 H 0.13734 0.7901 0.59144 0.0
H3216 H 0.15521 0.74631 0.60103 0.0
H3217 H 0.09519 0.55631 0.61359 0.0
H3218 H 0.1224 0.59607 0.64244 0.0
H3219 H 0.15271 0.66084 0.58047 0.0
H3220 H 0.12445 0.62133 0.55171 0.0
H3221 H 0.12864 0.68527 0.60876 0.0
H3222 H 0.19753 0.63607 0.62378 0.0
H3223 H 0.21681 0.59344 0.63328 0.0
H3224 H 0.18169 0.57529 0.70444 0.0
H3225 H 0.1618 0.6175 0.69523 0.0
C3226 C 0.21005 0.77596 0.69647 0.0
C3227 C 0.20602 0.76534 0.72131 0.0
C3228 C 0.19336 0.75781 0.67745 0.0
C3229 C 0.17268 0.72923 0.68341 0.0
C3230 C 0.16593 0.7214 0.70816 0.0
C3231 C 0.18253 0.73948 0.72707 0.0
C3232 C 0.1632 0.70458 0.66527 0.0
C3233 C 0.17206 0.67865 0.67024 0.0
C3234 C 0.14793 0.70745 0.64267 0.0
C3235 C 0.13756 0.73409 0.63694 0.0
C3236 C 0.12179 0.74177 0.65388 0.0
C3237 C 0.11189 0.76672 0.64834 0.0
C3238 C 0.11737 0.78397 0.6258 0.0
C3239 C 0.13304 0.7766 0.60886 0.0
C3240 C 0.14306 0.75171 0.61434 0.0
C3241 C 0.10885 0.57848 0.6062 0.0
C3242 C 0.10797 0.58591 0.5806 0.0
C3243 C 0.12427 0.60134 0.62267 0.0
C3244 C 0.13941 0.63162 0.61361 0.0
C3245 C 0.14096 0.63779 0.58786 0.0
C3246 C 0.12519 0.61512 0.57146 0.0
C3247 C 0.15011 0.65762 0.63075 0.0
C3248 C 0.14148 0.68383 0.62567 0.0
C3249 C 0.16617 0.6554 0.65311 0.0
C3250 C 0.17793 0.62979 0.65869 0.0
C3251 C 0.19367 0.6228 0.64136 0.0
C3252 C 0.20476 0.59874 0.64671 0.0
C3253 C 0.20041 0.58161 0.66942 0.0
C3254 C 0.18501 0.58855 0.68684 0.0
C3255 C 0.17385 0.61256 0.68157 0.0
H3256 H 0.20903 0.563 0.67353 0.0
H3257 H 0.10925 0.80286 0.62142 0.0
loop_
_geom_bond_atom_site_label_1
_geom_bond_atom_site_label_2
_geom_bond_distance
_geom_bond_site_symmetry_2
_ccdc_geom_bond_type
Gd0 N31 2.661 . S
Gd0 N37 2.601 . S
Gd0 O44 2.545 . S
Gd0 O45 2.606 . S
Gd0 O47 2.429 . S
Gd0 O48 2.545 . S
Gd0 O49 2.412 . S
Gd0 O51 2.362 . S
Gd0 O52 2.324 . S
Gd0 C59 2.828 . S
Gd1 N10 2.661 . S
Gd1 N14 2.601 . S
Gd1 O45 2.362 . S
Gd1 O46 2.324 . S
Gd1 O50 2.545 . S
Gd1 O51 2.606 . S
Gd1 O53 2.429 . S
Gd1 O54 2.545 . S
Gd1 O55 2.412 . S
Gd1 C68 2.828 . S
C2 C5 1.417 . S
C2 C7 1.431 . S
C2 C8 1.412 . S
C3 C6 1.437 . S
C3 C7 1.317 . S
C3 H22 0.929 . S
C4 C5 1.426 . S
C4 C6 1.413 . S
C4 N14 1.359 . S
C5 C2 1.417 . S
C5 C4 1.426 . S
C5 N10 1.350 . S
C6 C3 1.437 . S
C6 C4 1.413 . S
C6 C16 1.391 . S
C7 C2 1.431 . S
C7 C3 1.317 . S
C7 H18 0.930 . S
C8 C2 1.412 . S
C8 C9 1.355 . S
C8 H20 0.930 . S
C9 C8 1.355 . S
C9 C11 1.402 . S
C9 H21 0.930 . S
N10 Gd1 2.661 . S
N10 C5 1.350 . S
N10 C11 1.307 . S
C11 C9 1.402 . S
C11 N10 1.307 . S
C11 H12 0.930 . S
H12 C11 0.930 . S
C13 N14 1.334 . S
C13 C15 1.394 . S
C13 H17 0.930 . S
N14 Gd1 2.601 . S
N14 C4 1.359 . S
N14 C13 1.334 . S
C15 C13 1.394 . S
C15 C16 1.359 . S
C15 H27 0.930 . S
C16 C6 1.391 . S
C16 C15 1.359 . S
C16 H28 0.929 . S
H17 C13 0.930 . S
H18 C7 0.930 . S
H19 C36 0.930 . S
H20 C8 0.930 . S
H21 C9 0.930 . S
H22 C3 0.929 . S
H23 C41 0.930 . S
H24 C32 0.930 . S
H25 C33 0.930 . S
H26 C57 0.929 . S
H27 C15 0.930 . S
H28 C16 0.929 . S
H29 C58 0.930 . S
H30 C39 0.930 . S
N31 Gd0 2.661 . S
N31 C35 1.350 . S
N31 C36 1.307 . S
C32 H24 0.930 . S
C32 C33 1.355 . S
C32 C34 1.412 . S
C33 H25 0.930 . S
C33 C32 1.355 . S
C33 C36 1.402 . S
C34 C32 1.412 . S
C34 C35 1.417 . S
C34 C58 1.431 . S
C35 N31 1.350 . S
C35 C34 1.417 . S
C35 C38 1.426 . S
C36 H19 0.930 . S
C36 N31 1.307 . S
C36 C33 1.402 . S
N37 Gd0 2.601 . S
N37 C38 1.359 . S
N37 C41 1.334 . S
C38 C35 1.426 . S
C38 N37 1.359 . S
C38 C42 1.413 . S
C39 H30 0.930 . S
C39 C40 1.359 . S
C39 C41 1.394 . S
C40 C39 1.359 . S
C40 C42 1.391 . S
C40 H43 0.929 . S
C41 H23 0.930 . S
C41 N37 1.334 . S
C41 C39 1.394 . S
C42 C38 1.413 . S
C42 C40 1.391 . S
C42 C57 1.437 . S
H43 C40 0.929 . S
O44 Gd0 2.545 . S
O44 C59 1.258 . S
O45 Gd0 2.606 . S
O45 Gd1 2.362 . S
O45 C56 1.284 . S
O46 Gd1 2.324 . S
O46 C66 1.254 . S
O47 Gd0 2.429 . S
O47 C66 1.268 . S
O48 Gd0 2.545 . S
O48 C56 1.250 . S
O49 Gd0 2.412 . S
O49 C59 1.252 . S
O50 Gd1 2.545 . S
O50 C68 1.258 . S
O51 Gd0 2.362 . S
O51 Gd1 2.606 . S
O51 C67 1.284 . S
O52 Gd0 2.324 . S
O52 C75 1.254 . S
O53 Gd1 2.429 . S
O53 C75 1.268 . S
O54 Gd1 2.545 . S
O54 C67 1.250 . S
O55 Gd1 2.412 . S
O55 C68 1.252 . S
C56 O45 1.284 . S
C56 O48 1.250 . S
C57 H26 0.929 . S
C57 C42 1.437 . S
C57 C58 1.317 . S
C58 H29 0.930 . S
C58 C34 1.431 . S
C58 C57 1.317 . S
C59 Gd0 2.828 . S
C59 O44 1.258 . S
C59 O49 1.252 . S
C59 C60 1.497 . S
C60 C59 1.497 . S
C60 C61 1.395 . S
C60 C62 1.380 . S
C61 C60 1.395 . S
C61 C64 1.398 . S
C61 H76 0.930 . S
C62 C60 1.380 . S
C62 C63 1.391 . S
C62 H77 0.930 . S
C63 C62 1.391 . S
C63 C65 1.387 . S
C64 C61 1.398 . S
C64 C65 1.380 . S
C64 H78 0.930 . S
C65 C63 1.387 . S
C65 C64 1.380 . S
C65 H79 0.930 . S
C66 O46 1.254 . S
C66 O47 1.268 . S
C67 O51 1.284 . S
C67 O54 1.250 . S
C68 Gd1 2.828 . S
C68 O50 1.258 . S
C68 O55 1.252 . S
C68 C69 1.497 . S
C69 C68 1.497 . S
C69 C70 1.395 . S
C69 C71 1.380 . S
C70 C69 1.395 . S
C70 C73 1.398 . S
C70 H80 0.930 . S
C71 C69 1.380 . S
C71 C72 1.391 . S
C71 H81 0.930 . S
C72 C71 1.391 . S
C72 C74 1.387 . S
C73 C70 1.398 . S
C73 C74 1.380 . S
C73 H82 0.930 . S
C74 C72 1.387 . S
C74 C73 1.380 . S
C74 H83 0.930 . S
C75 O52 1.254 . S
C75 O53 1.268 . S
H76 C61 0.930 . S
H77 C62 0.930 . S
H78 C64 0.930 . S
H79 C65 0.930 . S
H80 C70 0.930 . S
H81 C71 0.930 . S
H82 C73 0.930 . S
H83 C74 0.930 . S
Gd84 N115 2.661 . S
Gd84 N121 2.601 . S
Gd84 O128 2.545 . S
Gd84 O129 2.606 . S
Gd84 O131 2.429 . S
Gd84 O132 2.545 . S
Gd84 O133 2.412 . S
Gd84 O135 2.362 . S
Gd84 O136 2.324 . S
Gd84 C143 2.828 . S
Gd85 N94 2.661 . S
Gd85 N98 2.601 . S
Gd85 O129 2.362 . S
Gd85 O130 2.324 . S
Gd85 O134 2.545 . S
Gd85 O135 2.606 . S
Gd85 O137 2.429 . S
Gd85 O138 2.545 . S
Gd85 O139 2.412 . S
Gd85 C152 2.828 . S
C86 C89 1.417 . S
C86 C91 1.431 . S
C86 C92 1.412 . S
C87 C90 1.437 . S
C87 C91 1.317 . S
C87 H106 0.929 . S
C88 C89 1.426 . S
C88 C90 1.413 . S
C88 N98 1.359 . S
C89 C86 1.417 . S
C89 C88 1.426 . S
C89 N94 1.350 . S
C90 C87 1.437 . S
C90 C88 1.413 . S
C90 C100 1.391 . S
C91 C86 1.431 . S
C91 C87 1.317 . S
C91 H102 0.930 . S
C92 C86 1.412 . S
C92 C93 1.355 . S
C92 H104 0.930 . S
C93 C92 1.355 . S
C93 C95 1.402 . S
C93 H105 0.930 . S
N94 Gd85 2.661 . S
N94 C89 1.350 . S
N94 C95 1.307 . S
C95 C93 1.402 . S
C95 N94 1.307 . S
C95 H96 0.930 . S
H96 C95 0.930 . S
C97 N98 1.334 . S
C97 C99 1.394 . S
C97 H101 0.930 . S
N98 Gd85 2.601 . S
N98 C88 1.359 . S
N98 C97 1.334 . S
C99 C97 1.394 . S
C99 C100 1.359 . S
C99 H111 0.930 . S
C100 C90 1.391 . S
C100 C99 1.359 . S
C100 H112 0.929 . S
H101 C97 0.930 . S
H102 C91 0.930 . S
H103 C120 0.930 . S
H104 C92 0.930 . S
H105 C93 0.930 . S
H106 C87 0.929 . S
H107 C125 0.930 . S
H108 C116 0.930 . S
H109 C117 0.930 . S
H110 C141 0.929 . S
H111 C99 0.930 . S
H112 C100 0.929 . S
H113 C142 0.930 . S
H114 C123 0.930 . S
N115 Gd84 2.661 . S
N115 C119 1.350 . S
N115 C120 1.307 . S
C116 H108 0.930 . S
C116 C117 1.355 . S
C116 C118 1.412 . S
C117 H109 0.930 . S
C117 C116 1.355 . S
C117 C120 1.402 . S
C118 C116 1.412 . S
C118 C119 1.417 . S
C118 C142 1.431 . S
C119 N115 1.350 . S
C119 C118 1.417 . S
C119 C122 1.426 . S
C120 H103 0.930 . S
C120 N115 1.307 . S
C120 C117 1.402 . S
N121 Gd84 2.601 . S
N121 C122 1.359 . S
N121 C125 1.334 . S
C122 C119 1.426 . S
C122 N121 1.359 . S
C122 C126 1.413 . S
C123 H114 0.930 . S
C123 C124 1.359 . S
C123 C125 1.394 . S
C124 C123 1.359 . S
C124 C126 1.391 . S
C124 H127 0.929 . S
C125 H107 0.930 . S
C125 N121 1.334 . S
C125 C123 1.394 . S
C126 C122 1.413 . S
C126 C124 1.391 . S
C126 C141 1.437 . S
H127 C124 0.929 . S
O128 Gd84 2.545 . S
O128 C143 1.258 . S
O129 Gd84 2.606 . S
O129 Gd85 2.362 . S
O129 C140 1.284 . S
O130 Gd85 2.324 . S
O130 C150 1.254 . S
O131 Gd84 2.429 . S
O131 C150 1.268 . S
O132 Gd84 2.545 . S
O132 C140 1.250 . S
O133 Gd84 2.412 . S
O133 C143 1.252 . S
O134 Gd85 2.545 . S
O134 C152 1.258 . S
O135 Gd84 2.362 . S
O135 Gd85 2.606 . S
O135 C151 1.284 . S
O136 Gd84 2.324 . S
O136 C159 1.254 . S
O137 Gd85 2.429 . S
O137 C159 1.268 . S
O138 Gd85 2.545 . S
O138 C151 1.250 . S
O139 Gd85 2.412 . S
O139 C152 1.252 . S
C140 O129 1.284 . S
C140 O132 1.250 . S
C141 H110 0.929 . S
C141 C126 1.437 . S
C141 C142 1.317 . S
C142 H113 0.930 . S
C142 C118 1.431 . S
C142 C141 1.317 . S
C143 Gd84 2.828 . S
C143 O128 1.258 . S
C143 O133 1.252 . S
C143 C144 1.497 . S
C144 C143 1.497 . S
C144 C145 1.395 . S
C144 C146 1.380 . S
C145 C144 1.395 . S
C145 C148 1.398 . S
C145 H160 0.930 . S
C146 C144 1.380 . S
C146 C147 1.391 . S
C146 H161 0.930 . S
C147 C146 1.391 . S
C147 C149 1.387 . S
C148 C145 1.398 . S
C148 C149 1.380 . S
C148 H162 0.930 . S
C149 C147 1.387 . S
C149 C148 1.380 . S
C149 H163 0.930 . S
C150 O130 1.254 . S
C150 O131 1.268 . S
C151 O135 1.284 . S
C151 O138 1.250 . S
C152 Gd85 2.828 . S
C152 O134 1.258 . S
C152 O139 1.252 . S
C152 C153 1.497 . S
C153 C152 1.497 . S
C153 C154 1.395 . S
C153 C155 1.380 . S
C154 C153 1.395 . S
C154 C157 1.398 . S
C154 H164 0.930 . S
C155 C153 1.380 . S
C155 C156 1.391 . S
C155 H165 0.930 . S
C156 C155 1.391 . S
C156 C158 1.387 . S
C157 C154 1.398 . S
C157 C158 1.380 . S
C157 H166 0.930 . S
C158 C156 1.387 . S
C158 C157 1.380 . S
C158 H167 0.930 . S
C159 O136 1.254 . S
C159 O137 1.268 . S
H160 C145 0.930 . S
H161 C146 0.930 . S
H162 C148 0.930 . S
H163 C149 0.930 . S
H164 C154 0.930 . S
H165 C155 0.930 . S
H166 C157 0.930 . S
H167 C158 0.930 . S
Gd168 N199 2.661 . S
Gd168 N205 2.601 . S
Gd168 O212 2.545 . S
Gd168 O213 2.606 . S
Gd168 O215 2.429 . S
Gd168 O216 2.545 . S
Gd168 O217 2.412 . S
Gd168 O219 2.362 . S
Gd168 O220 2.324 . S
Gd168 C227 2.828 . S
Gd169 N178 2.661 . S
Gd169 N182 2.601 . S
Gd169 O213 2.362 . S
Gd169 O214 2.324 . S
Gd169 O218 2.545 . S
Gd169 O219 2.606 . S
Gd169 O221 2.429 . S
Gd169 O222 2.545 . S
Gd169 O223 2.412 . S
Gd169 C236 2.828 . S
C170 C173 1.417 . S
C170 C175 1.431 . S
C170 C176 1.412 . S
C171 C174 1.437 . S
C171 C175 1.317 . S
C171 H190 0.929 . S
C172 C173 1.426 . S
C172 C174 1.413 . S
C172 N182 1.359 . S
C173 C170 1.417 . S
C173 C172 1.426 . S
C173 N178 1.350 . S
C174 C171 1.437 . S
C174 C172 1.413 . S
C174 C184 1.391 . S
C175 C170 1.431 . S
C175 C171 1.317 . S
C175 H186 0.930 . S
C176 C170 1.412 . S
C176 C177 1.355 . S
C176 H188 0.930 . S
C177 C176 1.355 . S
C177 C179 1.402 . S
C177 H189 0.930 . S
N178 Gd169 2.661 . S
N178 C173 1.350 . S
N178 C179 1.307 . S
C179 C177 1.402 . S
C179 N178 1.307 . S
C179 H180 0.930 . S
H180 C179 0.930 . S
C181 N182 1.334 . S
C181 C183 1.394 . S
C181 H185 0.930 . S
N182 Gd169 2.601 . S
N182 C172 1.359 . S
N182 C181 1.334 . S
C183 C181 1.394 . S
C183 C184 1.359 . S
C183 H195 0.930 . S
C184 C174 1.391 . S
C184 C183 1.359 . S
C184 H196 0.929 . S
H185 C181 0.930 . S
H186 C175 0.930 . S
H187 C204 0.930 . S
H188 C176 0.930 . S
H189 C177 0.930 . S
H190 C171 0.929 . S
H191 C209 0.930 . S
H192 C200 0.930 . S
H193 C201 0.930 . S
H194 C225 0.929 . S
H195 C183 0.930 . S
H196 C184 0.929 . S
H197 C226 0.930 . S
H198 C207 0.930 . S
N199 Gd168 2.661 . S
N199 C203 1.350 . S
N199 C204 1.307 . S
C200 H192 0.930 . S
C200 C201 1.355 . S
C200 C202 1.412 . S
C201 H193 0.930 . S
C201 C200 1.355 . S
C201 C204 1.402 . S
C202 C200 1.412 . S
C202 C203 1.417 . S
C202 C226 1.431 . S
C203 N199 1.350 . S
C203 C202 1.417 . S
C203 C206 1.426 . S
C204 H187 0.930 . S
C204 N199 1.307 . S
C204 C201 1.402 . S
N205 Gd168 2.601 . S
N205 C206 1.359 . S
N205 C209 1.334 . S
C206 C203 1.426 . S
C206 N205 1.359 . S
C206 C210 1.413 . S
C207 H198 0.930 . S
C207 C208 1.359 . S
C207 C209 1.394 . S
C208 C207 1.359 . S
C208 C210 1.391 . S
C208 H211 0.929 . S
C209 H191 0.930 . S
C209 N205 1.334 . S
C209 C207 1.394 . S
C210 C206 1.413 . S
C210 C208 1.391 . S
C210 C225 1.437 . S
H211 C208 0.929 . S
O212 Gd168 2.545 . S
O212 C227 1.258 . S
O213 Gd168 2.606 . S
O213 Gd169 2.362 . S
O213 C224 1.284 . S
O214 Gd169 2.324 . S
O214 C234 1.254 . S
O215 Gd168 2.429 . S
O215 C234 1.268 . S
O216 Gd168 2.545 . S
O216 C224 1.250 . S
O217 Gd168 2.412 . S
O217 C227 1.252 . S
O218 Gd169 2.545 . S
O218 C236 1.258 . S
O219 Gd168 2.362 . S
O219 Gd169 2.606 . S
O219 C235 1.284 . S
O220 Gd168 2.324 . S
O220 C243 1.254 . S
O221 Gd169 2.429 . S
O221 C243 1.268 . S
O222 Gd169 2.545 . S
O222 C235 1.250 . S
O223 Gd169 2.412 . S
O223 C236 1.252 . S
C224 O213 1.284 . S
C224 O216 1.250 . S
C225 H194 0.929 . S
C225 C210 1.437 . S
C225 C226 1.317 . S
C226 H197 0.930 . S
C226 C202 1.431 . S
C226 C225 1.317 . S
C227 Gd168 2.828 . S
C227 O212 1.258 . S
C227 O217 1.252 . S
C227 C228 1.497 . S
C228 C227 1.497 . S
C228 C229 1.395 . S
C228 C230 1.380 . S
C229 C228 1.395 . S
C229 C232 1.398 . S
C229 H244 0.930 . S
C230 C228 1.380 . S
C230 C231 1.391 . S
C230 H245 0.930 . S
C231 C230 1.391 . S
C231 C233 1.387 . S
C232 C229 1.398 . S
C232 C233 1.380 . S
C232 H246 0.930 . S
C233 C231 1.387 . S
C233 C232 1.380 . S
C233 H247 0.930 . S
C234 O214 1.254 . S
C234 O215 1.268 . S
C235 O219 1.284 . S
C235 O222 1.250 . S
C236 Gd169 2.828 . S
C236 O218 1.258 . S
C236 O223 1.252 . S
C236 C237 1.497 . S
C237 C236 1.497 . S
C237 C238 1.395 . S
C237 C239 1.380 . S
C238 C237 1.395 . S
C238 C241 1.398 . S
C238 H248 0.930 . S
C239 C237 1.380 . S
C239 C240 1.391 . S
C239 H249 0.930 . S
C240 C239 1.391 . S
C240 C242 1.387 . S
C241 C238 1.398 . S
C241 C242 1.380 . S
C241 H250 0.930 . S
C242 C240 1.387 . S
C242 C241 1.380 . S
C242 H251 0.930 . S
C243 O220 1.254 . S
C243 O221 1.268 . S
H244 C229 0.930 . S
H245 C230 0.930 . S
H246 C232 0.930 . S
H247 C233 0.930 . S
H248 C238 0.930 . S
H249 C239 0.930 . S
H250 C241 0.930 . S
H251 C242 0.930 . S
Gd252 N283 2.661 . S
Gd252 N289 2.601 . S
Gd252 O296 2.545 . S
Gd252 O297 2.606 . S
Gd252 O299 2.429 . S
Gd252 O300 2.545 . S
Gd252 O301 2.412 . S
Gd252 O303 2.362 . S
Gd252 O304 2.324 . S
Gd252 C311 2.828 . S
Gd253 N262 2.661 . S
Gd253 N266 2.601 . S
Gd253 O297 2.362 . S
Gd253 O298 2.324 . S
Gd253 O302 2.545 . S
Gd253 O303 2.606 . S
Gd253 O305 2.429 . S
Gd253 O306 2.545 . S
Gd253 O307 2.412 . S
Gd253 C320 2.828 . S
C254 C257 1.417 . S
C254 C259 1.431 . S
C254 C260 1.412 . S
C255 C258 1.437 . S
C255 C259 1.317 . S
C255 H274 0.929 . S
C256 C257 1.426 . S
C256 C258 1.413 . S
C256 N266 1.359 . S
C257 C254 1.417 . S
C257 C256 1.426 . S
C257 N262 1.350 . S
C258 C255 1.437 . S
C258 C256 1.413 . S
C258 C268 1.391 . S
C259 C254 1.431 . S
C259 C255 1.317 . S
C259 H270 0.930 . S
C260 C254 1.412 . S
C260 C261 1.355 . S
C260 H272 0.930 . S
C261 C260 1.355 . S
C261 C263 1.402 . S
C261 H273 0.930 . S
N262 Gd253 2.661 . S
N262 C257 1.350 . S
N262 C263 1.307 . S
C263 C261 1.402 . S
C263 N262 1.307 . S
C263 H264 0.930 . S
H264 C263 0.930 . S
C265 N266 1.334 . S
C265 C267 1.394 . S
C265 H269 0.930 . S
N266 Gd253 2.601 . S
N266 C256 1.359 . S
N266 C265 1.334 . S
C267 C265 1.394 . S
C267 C268 1.359 . S
C267 H279 0.930 . S
C268 C258 1.391 . S
C268 C267 1.359 . S
C268 H280 0.929 . S
H269 C265 0.930 . S
H270 C259 0.930 . S
H271 C288 0.930 . S
H272 C260 0.930 . S
H273 C261 0.930 . S
H274 C255 0.929 . S
H275 C293 0.930 . S
H276 C284 0.930 . S
H277 C285 0.930 . S
H278 C309 0.929 . S
H279 C267 0.930 . S
H280 C268 0.929 . S
H281 C310 0.930 . S
H282 C291 0.930 . S
N283 Gd252 2.661 . S
N283 C287 1.350 . S
N283 C288 1.307 . S
C284 H276 0.930 . S
C284 C285 1.355 . S
C284 C286 1.412 . S
C285 H277 0.930 . S
C285 C284 1.355 . S
C285 C288 1.402 . S
C286 C284 1.412 . S
C286 C287 1.417 . S
C286 C310 1.431 . S
C287 N283 1.350 . S
C287 C286 1.417 . S
C287 C290 1.426 . S
C288 H271 0.930 . S
C288 N283 1.307 . S
C288 C285 1.402 . S
N289 Gd252 2.601 . S
N289 C290 1.359 . S
N289 C293 1.334 . S
C290 C287 1.426 . S
C290 N289 1.359 . S
C290 C294 1.413 . S
C291 H282 0.930 . S
C291 C292 1.359 . S
C291 C293 1.394 . S
C292 C291 1.359 . S
C292 C294 1.391 . S
C292 H295 0.929 . S
C293 H275 0.930 . S
C293 N289 1.334 . S
C293 C291 1.394 . S
C294 C290 1.413 . S
C294 C292 1.391 . S
C294 C309 1.437 . S
H295 C292 0.929 . S
O296 Gd252 2.545 . S
O296 C311 1.258 . S
O297 Gd252 2.606 . S
O297 Gd253 2.362 . S
O297 C308 1.284 . S
O298 Gd253 2.324 . S
O298 C318 1.254 . S
O299 Gd252 2.429 . S
O299 C318 1.268 . S
O300 Gd252 2.545 . S
O300 C308 1.250 . S
O301 Gd252 2.412 . S
O301 C311 1.252 . S
O302 Gd253 2.545 . S
O302 C320 1.258 . S
O303 Gd252 2.362 . S
O303 Gd253 2.606 . S
O303 C319 1.284 . S
O304 Gd252 2.324 . S
O304 C327 1.254 . S
O305 Gd253 2.429 . S
O305 C327 1.268 . S
O306 Gd253 2.545 . S
O306 C319 1.250 . S
O307 Gd253 2.412 . S
O307 C320 1.252 . S
C308 O297 1.284 . S
C308 O300 1.250 . S
C309 H278 0.929 . S
C309 C294 1.437 . S
C309 C310 1.317 . S
C310 H281 0.930 . S
C310 C286 1.431 . S
C310 C309 1.317 . S
C311 Gd252 2.828 . S
C311 O296 1.258 . S
C311 O301 1.252 . S
C311 C312 1.497 . S
C312 C311 1.497 . S
C312 C313 1.395 . S
C312 C314 1.380 . S
C313 C312 1.395 . S
C313 C316 1.398 . S
C313 H328 0.930 . S
C314 C312 1.380 . S
C314 C315 1.391 . S
C314 H329 0.930 . S
C315 C314 1.391 . S
C315 C317 1.387 . S
C316 C313 1.398 . S
C316 C317 1.380 . S
C316 H330 0.930 . S
C317 C315 1.387 . S
C317 C316 1.380 . S
C317 H331 0.930 . S
C318 O298 1.254 . S
C318 O299 1.268 . S
C319 O303 1.284 . S
C319 O306 1.250 . S
C320 Gd253 2.828 . S
C320 O302 1.258 . S
C320 O307 1.252 . S
C320 C321 1.497 . S
C321 C320 1.497 . S
C321 C322 1.395 . S
C321 C323 1.380 . S
C322 C321 1.395 . S
C322 C325 1.398 . S
C322 H332 0.930 . S
C323 C321 1.380 . S
C323 C324 1.391 . S
C323 H333 0.930 . S
C324 C323 1.391 . S
C324 C326 1.387 . S
C325 C322 1.398 . S
C325 C326 1.380 . S
C325 H334 0.930 . S
C326 C324 1.387 . S
C326 C325 1.380 . S
C326 H335 0.930 . S
C327 O304 1.254 . S
C327 O305 1.268 . S
H328 C313 0.930 . S
H329 C314 0.930 . S
H330 C316 0.930 . S
H331 C317 0.930 . S
H332 C322 0.930 . S
H333 C323 0.930 . S
H334 C325 0.930 . S
H335 C326 0.930 . S
Gd336 N367 2.661 . S
Gd336 N373 2.601 . S
Gd336 O380 2.545 . S
Gd336 O381 2.606 . S
Gd336 O383 2.429 . S
Gd336 O384 2.545 . S
Gd336 O385 2.412 . S
Gd336 O387 2.362 . S
Gd336 O388 2.324 . S
Gd336 C395 2.828 . S
Gd337 N346 2.661 . S
Gd337 N350 2.601 . S
Gd337 O381 2.362 . S
Gd337 O382 2.324 . S
Gd337 O386 2.545 . S
Gd337 O387 2.606 . S
Gd337 O389 2.429 . S
Gd337 O390 2.545 . S
Gd337 O391 2.412 . S
Gd337 C404 2.828 . S
C338 C341 1.417 . S
C338 C343 1.431 . S
C338 C344 1.412 . S
C339 C342 1.437 . S
C339 C343 1.317 . S
C339 H358 0.929 . S
C340 C341 1.426 . S
C340 C342 1.413 . S
C340 N350 1.359 . S
C341 C338 1.417 . S
C341 C340 1.426 . S
C341 N346 1.350 . S
C342 C339 1.437 . S
C342 C340 1.413 . S
C342 C352 1.391 . S
C343 C338 1.431 . S
C343 C339 1.317 . S
C343 H354 0.930 . S
C344 C338 1.412 . S
C344 C345 1.355 . S
C344 H356 0.930 . S
C345 C344 1.355 . S
C345 C347 1.402 . S
C345 H357 0.930 . S
N346 Gd337 2.661 . S
N346 C341 1.350 . S
N346 C347 1.307 . S
C347 C345 1.402 . S
C347 N346 1.307 . S
C347 H348 0.930 . S
H348 C347 0.930 . S
C349 N350 1.334 . S
C349 C351 1.394 . S
C349 H353 0.930 . S
N350 Gd337 2.601 . S
N350 C340 1.359 . S
N350 C349 1.334 . S
C351 C349 1.394 . S
C351 C352 1.359 . S
C351 H363 0.930 . S
C352 C342 1.391 . S
C352 C351 1.359 . S
C352 H364 0.929 . S
H353 C349 0.930 . S
H354 C343 0.930 . S
H355 C372 0.930 . S
H356 C344 0.930 . S
H357 C345 0.930 . S
H358 C339 0.929 . S
H359 C377 0.930 . S
H360 C368 0.930 . S
H361 C369 0.930 . S
H362 C393 0.929 . S
H363 C351 0.930 . S
H364 C352 0.929 . S
H365 C394 0.930 . S
H366 C375 0.930 . S
N367 Gd336 2.661 . S
N367 C371 1.350 . S
N367 C372 1.307 . S
C368 H360 0.930 . S
C368 C369 1.355 . S
C368 C370 1.412 . S
C369 H361 0.930 . S
C369 C368 1.355 . S
C369 C372 1.402 . S
C370 C368 1.412 . S
C370 C371 1.417 . S
C370 C394 1.431 . S
C371 N367 1.350 . S
C371 C370 1.417 . S
C371 C374 1.426 . S
C372 H355 0.930 . S
C372 N367 1.307 . S
C372 C369 1.402 . S
N373 Gd336 2.601 . S
N373 C374 1.359 . S
N373 C377 1.334 . S
C374 C371 1.426 . S
C374 N373 1.359 . S
C374 C378 1.413 . S
C375 H366 0.930 . S
C375 C376 1.359 . S
C375 C377 1.394 . S
C376 C375 1.359 . S
C376 C378 1.391 . S
C376 H379 0.929 . S
C377 H359 0.930 . S
C377 N373 1.334 . S
C377 C375 1.394 . S
C378 C374 1.413 . S
C378 C376 1.391 . S
C378 C393 1.437 . S
H379 C376 0.929 . S
O380 Gd336 2.545 . S
O380 C395 1.258 . S
O381 Gd336 2.606 . S
O381 Gd337 2.362 . S
O381 C392 1.284 . S
O382 Gd337 2.324 . S
O382 C402 1.254 . S
O383 Gd336 2.429 . S
O383 C402 1.268 . S
O384 Gd336 2.545 . S
O384 C392 1.250 . S
O385 Gd336 2.412 . S
O385 C395 1.252 . S
O386 Gd337 2.545 . S
O386 C404 1.258 . S
O387 Gd336 2.362 . S
O387 Gd337 2.606 . S
O387 C403 1.284 . S
O388 Gd336 2.324 . S
O388 C411 1.254 . S
O389 Gd337 2.429 . S
O389 C411 1.268 . S
O390 Gd337 2.545 . S
O390 C403 1.250 . S
O391 Gd337 2.412 . S
O391 C404 1.252 . S
C392 O381 1.284 . S
C392 O384 1.250 . S
C393 H362 0.929 . S
C393 C378 1.437 . S
C393 C394 1.317 . S
C394 H365 0.930 . S
C394 C370 1.431 . S
C394 C393 1.317 . S
C395 Gd336 2.828 . S
C395 O380 1.258 . S
C395 O385 1.252 . S
C395 C396 1.497 . S
C396 C395 1.497 . S
C396 C397 1.395 . S
C396 C398 1.380 . S
C397 C396 1.395 . S
C397 C400 1.398 . S
C397 H412 0.930 . S
C398 C396 1.380 . S
C398 C399 1.391 . S
C398 H413 0.930 . S
C399 C398 1.391 . S
C399 C401 1.387 . S
C400 C397 1.398 . S
C400 C401 1.380 . S
C400 H414 0.930 . S
C401 C399 1.387 . S
C401 C400 1.380 . S
C401 H415 0.930 . S
C402 O382 1.254 . S
C402 O383 1.268 . S
C403 O387 1.284 . S
C403 O390 1.250 . S
C404 Gd337 2.828 . S
C404 O386 1.258 . S
C404 O391 1.252 . S
C404 C405 1.497 . S
C405 C404 1.497 . S
C405 C406 1.395 . S
C405 C407 1.380 . S
C406 C405 1.395 . S
C406 C409 1.398 . S
C406 H416 0.930 . S
C407 C405 1.380 . S
C407 C408 1.391 . S
C407 H417 0.930 . S
C408 C407 1.391 . S
C408 C410 1.387 . S
C409 C406 1.398 . S
C409 C410 1.380 . S
C409 H418 0.930 . S
C410 C408 1.387 . S
C410 C409 1.380 . S
C410 H419 0.930 . S
C411 O388 1.254 . S
C411 O389 1.268 . S
H412 C397 0.930 . S
H413 C398 0.930 . S
H414 C400 0.930 . S
H415 C401 0.930 . S
H416 C406 0.930 . S
H417 C407 0.930 . S
H418 C409 0.930 . S
H419 C410 0.930 . S
Gd420 N451 2.661 . S
Gd420 N457 2.601 . S
Gd420 O464 2.545 . S
Gd420 O465 2.606 . S
Gd420 O467 2.429 . S
Gd420 O468 2.545 . S
Gd420 O469 2.412 . S
Gd420 O471 2.362 . S
Gd420 O472 2.324 . S
Gd420 C479 2.828 . S
Gd421 N430 2.661 . S
Gd421 N434 2.601 . S
Gd421 O465 2.362 . S
Gd421 O466 2.324 . S
Gd421 O470 2.545 . S
Gd421 O471 2.606 . S
Gd421 O473 2.429 . S
Gd421 O474 2.545 . S
Gd421 O475 2.412 . S
Gd421 C488 2.828 . S
C422 C425 1.417 . S
C422 C427 1.431 . S
C422 C428 1.412 . S
C423 C426 1.437 . S
C423 C427 1.317 . S
C423 H442 0.929 . S
C424 C425 1.426 . S
C424 C426 1.413 . S
C424 N434 1.359 . S
C425 C422 1.417 . S
C425 C424 1.426 . S
C425 N430 1.350 . S
C426 C423 1.437 . S
C426 C424 1.413 . S
C426 C436 1.391 . S
C427 C422 1.431 . S
C427 C423 1.317 . S
C427 H438 0.930 . S
C428 C422 1.412 . S
C428 C429 1.355 . S
C428 H440 0.930 . S
C429 C428 1.355 . S
C429 C431 1.402 . S
C429 H441 0.930 . S
N430 Gd421 2.661 . S
N430 C425 1.350 . S
N430 C431 1.307 . S
C431 C429 1.402 . S
C431 N430 1.307 . S
C431 H432 0.930 . S
H432 C431 0.930 . S
C433 N434 1.334 . S
C433 C435 1.394 . S
C433 H437 0.930 . S
N434 Gd421 2.601 . S
N434 C424 1.359 . S
N434 C433 1.334 . S
C435 C433 1.394 . S
C435 C436 1.359 . S
C435 H447 0.930 . S
C436 C426 1.391 . S
C436 C435 1.359 . S
C436 H448 0.929 . S
H437 C433 0.930 . S
H438 C427 0.930 . S
H439 C456 0.930 . S
H440 C428 0.930 . S
H441 C429 0.930 . S
H442 C423 0.929 . S
H443 C461 0.930 . S
H444 C452 0.930 . S
H445 C453 0.930 . S
H446 C477 0.929 . S
H447 C435 0.930 . S
H448 C436 0.929 . S
H449 C478 0.930 . S
H450 C459 0.930 . S
N451 Gd420 2.661 . S
N451 C455 1.350 . S
N451 C456 1.307 . S
C452 H444 0.930 . S
C452 C453 1.355 . S
C452 C454 1.412 . S
C453 H445 0.930 . S
C453 C452 1.355 . S
C453 C456 1.402 . S
C454 C452 1.412 . S
C454 C455 1.417 . S
C454 C478 1.431 . S
C455 N451 1.350 . S
C455 C454 1.417 . S
C455 C458 1.426 . S
C456 H439 0.930 . S
C456 N451 1.307 . S
C456 C453 1.402 . S
N457 Gd420 2.601 . S
N457 C458 1.359 . S
N457 C461 1.334 . S
C458 C455 1.426 . S
C458 N457 1.359 . S
C458 C462 1.413 . S
C459 H450 0.930 . S
C459 C460 1.359 . S
C459 C461 1.394 . S
C460 C459 1.359 . S
C460 C462 1.391 . S
C460 H463 0.929 . S
C461 H443 0.930 . S
C461 N457 1.334 . S
C461 C459 1.394 . S
C462 C458 1.413 . S
C462 C460 1.391 . S
C462 C477 1.437 . S
H463 C460 0.929 . S
O464 Gd420 2.545 . S
O464 C479 1.258 . S
O465 Gd420 2.606 . S
O465 Gd421 2.362 . S
O465 C476 1.284 . S
O466 Gd421 2.324 . S
O466 C486 1.254 . S
O467 Gd420 2.429 . S
O467 C486 1.268 . S
O468 Gd420 2.545 . S
O468 C476 1.250 . S
O469 Gd420 2.412 . S
O469 C479 1.252 . S
O470 Gd421 2.545 . S
O470 C488 1.258 . S
O471 Gd420 2.362 . S
O471 Gd421 2.606 . S
O471 C487 1.284 . S
O472 Gd420 2.324 . S
O472 C495 1.254 . S
O473 Gd421 2.429 . S
O473 C495 1.268 . S
O474 Gd421 2.545 . S
O474 C487 1.250 . S
O475 Gd421 2.412 . S
O475 C488 1.252 . S
C476 O465 1.284 . S
C476 O468 1.250 . S
C477 H446 0.929 . S
C477 C462 1.437 . S
C477 C478 1.317 . S
C478 H449 0.930 . S
C478 C454 1.431 . S
C478 C477 1.317 . S
C479 Gd420 2.828 . S
C479 O464 1.258 . S
C479 O469 1.252 . S
C479 C480 1.497 . S
C480 C479 1.497 . S
C480 C481 1.395 . S
C480 C482 1.380 . S
C481 C480 1.395 . S
C481 C484 1.398 . S
C481 H496 0.930 . S
C482 C480 1.380 . S
C482 C483 1.391 . S
C482 H497 0.930 . S
C483 C482 1.391 . S
C483 C485 1.387 . S
C484 C481 1.398 . S
C484 C485 1.380 . S
C484 H498 0.930 . S
C485 C483 1.387 . S
C485 C484 1.380 . S
C485 H499 0.930 . S
C486 O466 1.254 . S
C486 O467 1.268 . S
C487 O471 1.284 . S
C487 O474 1.250 . S
C488 Gd421 2.828 . S
C488 O470 1.258 . S
C488 O475 1.252 . S
C488 C489 1.497 . S
C489 C488 1.497 . S
C489 C490 1.395 . S
C489 C491 1.380 . S
C490 C489 1.395 . S
C490 C493 1.398 . S
C490 H500 0.930 . S
C491 C489 1.380 . S
C491 C492 1.391 . S
C491 H501 0.930 . S
C492 C491 1.391 . S
C492 C494 1.387 . S
C493 C490 1.398 . S
C493 C494 1.380 . S
C493 H502 0.930 . S
C494 C492 1.387 . S
C494 C493 1.380 . S
C494 H503 0.930 . S
C495 O472 1.254 . S
C495 O473 1.268 . S
H496 C481 0.930 . S
H497 C482 0.930 . S
H498 C484 0.930 . S
H499 C485 0.930 . S
H500 C490 0.930 . S
H501 C491 0.930 . S
H502 C493 0.930 . S
H503 C494 0.930 . S
Gd504 N535 2.661 . S
Gd504 N541 2.601 . S
Gd504 O548 2.545 . S
Gd504 O549 2.606 . S
Gd504 O551 2.429 . S
Gd504 O552 2.545 . S
Gd504 O553 2.412 . S
Gd504 O555 2.362 . S
Gd504 O556 2.324 . S
Gd504 C563 2.828 . S
Gd505 N514 2.661 . S
Gd505 N518 2.601 . S
Gd505 O549 2.362 . S
Gd505 O550 2.324 . S
Gd505 O554 2.545 . S
Gd505 O555 2.606 . S
Gd505 O557 2.429 . S
Gd505 O558 2.545 . S
Gd505 O559 2.412 . S
Gd505 C572 2.828 . S
C506 C509 1.417 . S
C506 C511 1.431 . S
C506 C512 1.412 . S
C507 C510 1.437 . S
C507 C511 1.317 . S
C507 H526 0.929 . S
C508 C509 1.426 . S
C508 C510 1.413 . S
C508 N518 1.359 . S
C509 C506 1.417 . S
C509 C508 1.426 . S
C509 N514 1.350 . S
C510 C507 1.437 . S
C510 C508 1.413 . S
C510 C520 1.391 . S
C511 C506 1.431 . S
C511 C507 1.317 . S
C511 H522 0.930 . S
C512 C506 1.412 . S
C512 C513 1.355 . S
C512 H524 0.930 . S
C513 C512 1.355 . S
C513 C515 1.402 . S
C513 H525 0.930 . S
N514 Gd505 2.661 . S
N514 C509 1.350 . S
N514 C515 1.307 . S
C515 C513 1.402 . S
C515 N514 1.307 . S
C515 H516 0.930 . S
H516 C515 0.930 . S
C517 N518 1.334 . S
C517 C519 1.394 . S
C517 H521 0.930 . S
N518 Gd505 2.601 . S
N518 C508 1.359 . S
N518 C517 1.334 . S
C519 C517 1.394 . S
C519 C520 1.359 . S
C519 H531 0.930 . S
C520 C510 1.391 . S
C520 C519 1.359 . S
C520 H532 0.929 . S
H521 C517 0.930 . S
H522 C511 0.930 . S
H523 C540 0.930 . S
H524 C512 0.930 . S
H525 C513 0.930 . S
H526 C507 0.929 . S
H527 C545 0.930 . S
H528 C536 0.930 . S
H529 C537 0.930 . S
H530 C561 0.929 . S
H531 C519 0.930 . S
H532 C520 0.929 . S
H533 C562 0.930 . S
H534 C543 0.930 . S
N535 Gd504 2.661 . S
N535 C539 1.350 . S
N535 C540 1.307 . S
C536 H528 0.930 . S
C536 C537 1.355 . S
C536 C538 1.412 . S
C537 H529 0.930 . S
C537 C536 1.355 . S
C537 C540 1.402 . S
C538 C536 1.412 . S
C538 C539 1.417 . S
C538 C562 1.431 . S
C539 N535 1.350 . S
C539 C538 1.417 . S
C539 C542 1.426 . S
C540 H523 0.930 . S
C540 N535 1.307 . S
C540 C537 1.402 . S
N541 Gd504 2.601 . S
N541 C542 1.359 . S
N541 C545 1.334 . S
C542 C539 1.426 . S
C542 N541 1.359 . S
C542 C546 1.413 . S
C543 H534 0.930 . S
C543 C544 1.359 . S
C543 C545 1.394 . S
C544 C543 1.359 . S
C544 C546 1.391 . S
C544 H547 0.929 . S
C545 H527 0.930 . S
C545 N541 1.334 . S
C545 C543 1.394 . S
C546 C542 1.413 . S
C546 C544 1.391 . S
C546 C561 1.437 . S
H547 C544 0.929 . S
O548 Gd504 2.545 . S
O548 C563 1.258 . S
O549 Gd504 2.606 . S
O549 Gd505 2.362 . S
O549 C560 1.284 . S
O550 Gd505 2.324 . S
O550 C570 1.254 . S
O551 Gd504 2.429 . S
O551 C570 1.268 . S
O552 Gd504 2.545 . S
O552 C560 1.250 . S
O553 Gd504 2.412 . S
O553 C563 1.252 . S
O554 Gd505 2.545 . S
O554 C572 1.258 . S
O555 Gd504 2.362 . S
O555 Gd505 2.606 . S
O555 C571 1.284 . S
O556 Gd504 2.324 . S
O556 C579 1.254 . S
O557 Gd505 2.429 . S
O557 C579 1.268 . S
O558 Gd505 2.545 . S
O558 C571 1.250 . S
O559 Gd505 2.412 . S
O559 C572 1.252 . S
C560 O549 1.284 . S
C560 O552 1.250 . S
C561 H530 0.929 . S
C561 C546 1.437 . S
C561 C562 1.317 . S
C562 H533 0.930 . S
C562 C538 1.431 . S
C562 C561 1.317 . S
C563 Gd504 2.828 . S
C563 O548 1.258 . S
C563 O553 1.252 . S
C563 C564 1.497 . S
C564 C563 1.497 . S
C564 C565 1.395 . S
C564 C566 1.380 . S
C565 C564 1.395 . S
C565 C568 1.398 . S
C565 H580 0.930 . S
C566 C564 1.380 . S
C566 C567 1.391 . S
C566 H581 0.930 . S
C567 C566 1.391 . S
C567 C569 1.387 . S
C568 C565 1.398 . S
C568 C569 1.380 . S
C568 H582 0.930 . S
C569 C567 1.387 . S
C569 C568 1.380 . S
C569 H583 0.930 . S
C570 O550 1.254 . S
C570 O551 1.268 . S
C571 O555 1.284 . S
C571 O558 1.250 . S
C572 Gd505 2.828 . S
C572 O554 1.258 . S
C572 O559 1.252 . S
C572 C573 1.497 . S
C573 C572 1.497 . S
C573 C574 1.395 . S
C573 C575 1.380 . S
C574 C573 1.395 . S
C574 C577 1.398 . S
C574 H584 0.930 . S
C575 C573 1.380 . S
C575 C576 1.391 . S
C575 H585 0.930 . S
C576 C575 1.391 . S
C576 C578 1.387 . S
C577 C574 1.398 . S
C577 C578 1.380 . S
C577 H586 0.930 . S
C578 C576 1.387 . S
C578 C577 1.380 . S
C578 H587 0.930 . S
C579 O556 1.254 . S
C579 O557 1.268 . S
H580 C565 0.930 . S
H581 C566 0.930 . S
H582 C568 0.930 . S
H583 C569 0.930 . S
H584 C574 0.930 . S
H585 C575 0.930 . S
H586 C577 0.930 . S
H587 C578 0.930 . S
Gd588 N619 2.661 . S
Gd588 N625 2.601 . S
Gd588 O632 2.545 . S
Gd588 O633 2.606 . S
Gd588 O635 2.429 . S
Gd588 O636 2.545 . S
Gd588 O637 2.412 . S
Gd588 O639 2.362 . S
Gd588 O640 2.324 . S
Gd588 C647 2.828 . S
Gd589 N598 2.661 . S
Gd589 N602 2.601 . S
Gd589 O633 2.362 . S
Gd589 O634 2.324 . S
Gd589 O638 2.545 . S
Gd589 O639 2.606 . S
Gd589 O641 2.429 . S
Gd589 O642 2.545 . S
Gd589 O643 2.412 . S
Gd589 C656 2.828 . S
C590 C593 1.417 . S
C590 C595 1.431 . S
C590 C596 1.412 . S
C591 C594 1.437 . S
C591 C595 1.317 . S
C591 H610 0.929 . S
C592 C593 1.426 . S
C592 C594 1.413 . S
C592 N602 1.359 . S
C593 C590 1.417 . S
C593 C592 1.426 . S
C593 N598 1.350 . S
C594 C591 1.437 . S
C594 C592 1.413 . S
C594 C604 1.391 . S
C595 C590 1.431 . S
C595 C591 1.317 . S
C595 H606 0.930 . S
C596 C590 1.412 . S
C596 C597 1.355 . S
C596 H608 0.930 . S
C597 C596 1.355 . S
C597 C599 1.402 . S
C597 H609 0.930 . S
N598 Gd589 2.661 . S
N598 C593 1.350 . S
N598 C599 1.307 . S
C599 C597 1.402 . S
C599 N598 1.307 . S
C599 H600 0.930 . S
H600 C599 0.930 . S
C601 N602 1.334 . S
C601 C603 1.394 . S
C601 H605 0.930 . S
N602 Gd589 2.601 . S
N602 C592 1.359 . S
N602 C601 1.334 . S
C603 C601 1.394 . S
C603 C604 1.359 . S
C603 H615 0.930 . S
C604 C594 1.391 . S
C604 C603 1.359 . S
C604 H616 0.929 . S
H605 C601 0.930 . S
H606 C595 0.930 . S
H607 C624 0.930 . S
H608 C596 0.930 . S
H609 C597 0.930 . S
H610 C591 0.929 . S
H611 C629 0.930 . S
H612 C620 0.930 . S
H613 C621 0.930 . S
H614 C645 0.929 . S
H615 C603 0.930 . S
H616 C604 0.929 . S
H617 C646 0.930 . S
H618 C627 0.930 . S
N619 Gd588 2.661 . S
N619 C623 1.350 . S
N619 C624 1.307 . S
C620 H612 0.930 . S
C620 C621 1.355 . S
C620 C622 1.412 . S
C621 H613 0.930 . S
C621 C620 1.355 . S
C621 C624 1.402 . S
C622 C620 1.412 . S
C622 C623 1.417 . S
C622 C646 1.431 . S
C623 N619 1.350 . S
C623 C622 1.417 . S
C623 C626 1.426 . S
C624 H607 0.930 . S
C624 N619 1.307 . S
C624 C621 1.402 . S
N625 Gd588 2.601 . S
N625 C626 1.359 . S
N625 C629 1.334 . S
C626 C623 1.426 . S
C626 N625 1.359 . S
C626 C630 1.413 . S
C627 H618 0.930 . S
C627 C628 1.359 . S
C627 C629 1.394 . S
C628 C627 1.359 . S
C628 C630 1.391 . S
C628 H631 0.929 . S
C629 H611 0.930 . S
C629 N625 1.334 . S
C629 C627 1.394 . S
C630 C626 1.413 . S
C630 C628 1.391 . S
C630 C645 1.437 . S
H631 C628 0.929 . S
O632 Gd588 2.545 . S
O632 C647 1.258 . S
O633 Gd588 2.606 . S
O633 Gd589 2.362 . S
O633 C644 1.284 . S
O634 Gd589 2.324 . S
O634 C654 1.254 . S
O635 Gd588 2.429 . S
O635 C654 1.268 . S
O636 Gd588 2.545 . S
O636 C644 1.250 . S
O637 Gd588 2.412 . S
O637 C647 1.252 . S
O638 Gd589 2.545 . S
O638 C656 1.258 . S
O639 Gd588 2.362 . S
O639 Gd589 2.606 . S
O639 C655 1.284 . S
O640 Gd588 2.324 . S
O640 C663 1.254 . S
O641 Gd589 2.429 . S
O641 C663 1.268 . S
O642 Gd589 2.545 . S
O642 C655 1.250 . S
O643 Gd589 2.412 . S
O643 C656 1.252 . S
C644 O633 1.284 . S
C644 O636 1.250 . S
C645 H614 0.929 . S
C645 C630 1.437 . S
C645 C646 1.317 . S
C646 H617 0.930 . S
C646 C622 1.431 . S
C646 C645 1.317 . S
C647 Gd588 2.828 . S
C647 O632 1.258 . S
C647 O637 1.252 . S
C647 C648 1.497 . S
C648 C647 1.497 . S
C648 C649 1.395 . S
C648 C650 1.380 . S
C649 C648 1.395 . S
C649 C652 1.398 . S
C649 H664 0.930 . S
C650 C648 1.380 . S
C650 C651 1.391 . S
C650 H665 0.930 . S
C651 C650 1.391 . S
C651 C653 1.387 . S
C652 C649 1.398 . S
C652 C653 1.380 . S
C652 H666 0.930 . S
C653 C651 1.387 . S
C653 C652 1.380 . S
C653 H667 0.930 . S
C654 O634 1.254 . S
C654 O635 1.268 . S
C655 O639 1.284 . S
C655 O642 1.250 . S
C656 Gd589 2.828 . S
C656 O638 1.258 . S
C656 O643 1.252 . S
C656 C657 1.497 . S
C657 C656 1.497 . S
C657 C658 1.395 . S
C657 C659 1.380 . S
C658 C657 1.395 . S
C658 C661 1.398 . S
C658 H668 0.930 . S
C659 C657 1.380 . S
C659 C660 1.391 . S
C659 H669 0.930 . S
C660 C659 1.391 . S
C660 C662 1.387 . S
C661 C658 1.398 . S
C661 C662 1.380 . S
C661 H670 0.930 . S
C662 C660 1.387 . S
C662 C661 1.380 . S
C662 H671 0.930 . S
C663 O640 1.254 . S
C663 O641 1.268 . S
H664 C649 0.930 . S
H665 C650 0.930 . S
H666 C652 0.930 . S
H667 C653 0.930 . S
H668 C658 0.930 . S
H669 C659 0.930 . S
H670 C661 0.930 . S
H671 C662 0.930 . S
C672 O684 1.241 . S
C672 O685 1.280 . S
C673 O686 1.277 . S
C673 O687 1.245 . S
C674 O698 1.247 . S
C674 O700 1.289 . S
Mg675 O676 1.926 1_455 S
Mg675 O685 1.984 1_455 S
Mg675 O687 1.988 1_455 S
Mg675 O688 2.061 . S
O676 Mg675 1.926 1_655 S
O676 Mg677 1.986 . S
O676 Mg678 1.917 1_655 S
Mg677 O676 1.986 . S
Mg677 O684 2.042 . S
Mg677 O686 2.041 . S
Mg677 O692 2.038 1_545 S
Mg677 O700 2.238 1_545 S
Mg678 O676 1.917 1_455 S
Mg678 O679 1.917 1_545 S
Mg678 O689 2.106 . S
Mg678 O691 2.079 1_445 S
Mg678 O700 2.106 1_445 S
Mg678 O701 2.079 . S
O679 Mg678 1.917 1_565 S
O679 Mg680 1.926 . S
O679 Mg681 1.986 1_565 S
Mg680 O679 1.926 . S
Mg680 O694 1.984 . S
Mg680 O697 1.988 . S
Mg680 O698 2.061 1_455 S
Mg681 O679 1.986 1_545 S
Mg681 O689 2.238 . S
Mg681 O693 2.042 1_545 S
Mg681 O695 2.041 1_545 S
Mg681 O702 2.038 . S
C682 O688 1.247 . S
C682 O689 1.289 . S
C683 O701 1.245 . S
C683 O702 1.274 . S
O684 C672 1.241 . S
O684 Mg677 2.042 . S
O685 C672 1.280 . S
O685 Mg675 1.984 1_655 S
O686 C673 1.277 . S
O686 Mg677 2.041 . S
O687 C673 1.245 . S
O687 Mg675 1.988 1_655 S
O688 Mg675 2.061 . S
O688 C682 1.247 . S
O689 Mg678 2.106 . S
O689 Mg681 2.238 . S
O689 C682 1.289 . S
C690 O691 1.245 . S
C690 O692 1.274 . S
O691 Mg678 2.079 1_665 S
O691 C690 1.245 . S
O692 Mg677 2.038 1_565 S
O692 C690 1.274 . S
O693 Mg681 2.042 1_565 S
O693 C696 1.241 . S
O694 Mg680 1.984 . S
O694 C696 1.280 . S
O695 Mg681 2.041 1_565 S
O695 C699 1.277 . S
C696 O693 1.241 . S
C696 O694 1.280 . S
O697 Mg680 1.988 . S
O697 C699 1.245 . S
O698 C674 1.247 . S
O698 Mg680 2.061 1_655 S
C699 O695 1.277 . S
C699 O697 1.245 . S
O700 C674 1.289 . S
O700 Mg677 2.238 1_565 S
O700 Mg678 2.106 1_665 S
O701 Mg678 2.079 . S
O701 C683 1.245 . S
O702 Mg681 2.038 . S
O702 C683 1.274 . S
C703 O715 1.241 . S
C703 O716 1.280 . S
C704 O717 1.277 . S
C704 O718 1.245 . S
C705 O729 1.247 . S
C705 O731 1.289 1_565 S
Mg706 O707 1.926 . S
Mg706 O716 1.984 . S
Mg706 O718 1.988 1_554 S
Mg706 O719 2.061 . S
O707 Mg706 1.926 . S
O707 Mg708 1.984 1_554 S
O707 Mg709 1.917 . S
Mg708 O707 1.984 1_556 S
Mg708 O715 2.035 1_556 S
Mg708 O717 2.049 . S
Mg708 O723 2.031 1_546 S
Mg708 O731 2.244 . S
Mg709 O707 1.917 . S
Mg709 O710 1.917 1_554 S
Mg709 O720 2.106 . S
Mg709 O722 2.078 1_545 S
Mg709 O731 2.106 1_554 S
Mg709 O732 2.079 1_554 S
O710 Mg709 1.917 1_556 S
O710 Mg711 1.926 1_545 S
O710 Mg712 1.986 1_556 S
Mg711 O710 1.926 1_565 S
Mg711 O725 1.984 . S
Mg711 O728 1.988 1_556 S
Mg711 O729 2.061 . S
Mg712 O710 1.986 1_554 S
Mg712 O720 2.238 . S
Mg712 O724 2.042 1_554 S
Mg712 O726 2.062 . S
Mg712 O733 2.038 1_554 S
C713 O719 1.247 . S
C713 O720 1.289 . S
C714 O732 1.245 . S
C714 O733 1.274 . S
O715 C703 1.241 . S
O715 Mg708 2.035 1_554 S
O716 C703 1.280 . S
O716 Mg706 1.984 . S
O717 C704 1.277 . S
O717 Mg708 2.049 . S
O718 C704 1.245 . S
O718 Mg706 1.988 1_556 S
O719 Mg706 2.061 . S
O719 C713 1.247 . S
O720 Mg709 2.106 . S
O720 Mg712 2.238 . S
O720 C713 1.289 . S
C721 O722 1.244 . S
C721 O723 1.274 . S
O722 Mg709 2.078 1_565 S
O722 C721 1.244 . S
O723 Mg708 2.031 1_564 S
O723 C721 1.274 . S
O724 Mg712 2.042 1_556 S
O724 C727 1.241 1_545 S
O725 Mg711 1.984 . S
O725 C727 1.280 . S
O726 Mg712 2.062 . S
O726 C730 1.254 1_545 S
C727 O724 1.241 1_565 S
C727 O725 1.280 . S
O728 Mg711 1.988 1_554 S
O728 C730 1.245 . S
O729 C705 1.247 . S
O729 Mg711 2.061 . S
C730 O726 1.254 1_565 S
C730 O728 1.245 . S
O731 C705 1.289 1_545 S
O731 Mg708 2.244 . S
O731 Mg709 2.106 1_556 S
O732 Mg709 2.079 1_556 S
O732 C714 1.245 . S
O733 Mg712 2.038 1_556 S
O733 C714 1.274 . S
C734 O746 1.241 . S
C734 O747 1.280 . S
C735 O748 1.277 . S
C735 O749 1.245 . S
C736 O760 1.247 . S
C736 O762 1.289 . S
Mg737 O738 1.925 . S
Mg737 O747 2.012 . S
Mg737 O749 2.000 . S
Mg737 O750 2.032 1_655 S
O738 Mg737 1.925 . S
O738 Mg739 1.986 . S
O738 Mg740 1.917 1_655 S
Mg739 O738 1.986 . S
Mg739 O746 2.042 . S
Mg739 O748 2.041 . S
Mg739 O754 2.038 . S
Mg739 O762 2.238 . S
Mg740 O738 1.917 1_455 S
Mg740 O741 1.917 . S
Mg740 O751 2.106 . S
Mg740 O753 2.079 1_455 S
Mg740 O762 2.106 1_455 S
Mg740 O763 2.079 . S
O741 Mg740 1.917 . S
O741 Mg742 1.926 . S
O741 Mg743 1.986 . S
Mg742 O741 1.926 . S
Mg742 O756 1.984 . S
Mg742 O759 1.988 . S
Mg742 O760 2.061 1_455 S
Mg743 O741 1.986 . S
Mg743 O751 2.238 . S
Mg743 O755 2.042 . S
Mg743 O757 2.041 . S
Mg743 O764 2.038 . S
C744 O750 1.247 . S
C744 O751 1.289 . S
C745 O763 1.245 . S
C745 O764 1.274 . S
O746 C734 1.241 . S
O746 Mg739 2.042 . S
O747 C734 1.280 . S
O747 Mg737 2.012 . S
O748 C735 1.277 . S
O748 Mg739 2.041 . S
O749 C735 1.245 . S
O749 Mg737 2.000 . S
O750 Mg737 2.032 1_455 S
O750 C744 1.247 . S
O751 Mg740 2.106 . S
O751 Mg743 2.238 . S
O751 C744 1.289 . S
C752 O753 1.245 . S
C752 O754 1.274 . S
O753 Mg740 2.079 1_655 S
O753 C752 1.245 . S
O754 Mg739 2.038 . S
O754 C752 1.274 . S
O755 Mg743 2.042 . S
O755 C758 1.241 . S
O756 Mg742 1.984 . S
O756 C758 1.280 . S
O757 Mg743 2.041 . S
O757 C761 1.277 . S
C758 O755 1.241 . S
C758 O756 1.280 . S
O759 Mg742 1.988 . S
O759 C761 1.245 . S
O760 C736 1.247 . S
O760 Mg742 2.061 1_655 S
C761 O757 1.277 . S
C761 O759 1.245 . S
O762 C736 1.289 . S
O762 Mg739 2.238 . S
O762 Mg740 2.106 1_655 S
O763 Mg740 2.079 . S
O763 C745 1.245 . S
O764 Mg743 2.038 . S
O764 C745 1.274 . S
C765 O777 1.241 . S
C765 O778 1.280 . S
C766 O779 1.277 . S
C766 O780 1.245 . S
C767 O791 1.247 . S
C767 O793 1.289 . S
Mg768 O769 1.926 . S
Mg768 O778 1.984 . S
Mg768 O780 1.988 1_554 S
Mg768 O781 2.061 . S
O769 Mg768 1.926 . S
O769 Mg770 1.986 . S
O769 Mg771 1.917 . S
Mg770 O769 1.986 . S
Mg770 O777 2.042 . S
Mg770 O779 2.041 1_554 S
Mg770 O785 2.038 . S
Mg770 O793 2.238 1_554 S
Mg771 O769 1.917 . S
Mg771 O772 1.917 . S
Mg771 O782 2.106 . S
Mg771 O784 2.079 . S
Mg771 O793 2.106 1_554 S
Mg771 O794 2.079 1_554 S
O772 Mg771 1.917 . S
O772 Mg773 1.926 . S
O772 Mg774 1.986 . S
Mg773 O772 1.926 . S
Mg773 O787 1.984 1_554 S
Mg773 O790 1.988 . S
Mg773 O791 2.061 1_554 S
Mg774 O772 1.986 . S
Mg774 O782 2.238 . S
Mg774 O786 2.016 1_554 S
Mg774 O788 2.041 . S
Mg774 O795 2.038 1_554 S
C775 O781 1.247 . S
C775 O782 1.289 . S
C776 O794 1.245 . S
C776 O795 1.274 . S
O777 C765 1.241 . S
O777 Mg770 2.042 . S
O778 C765 1.280 . S
O778 Mg768 1.984 . S
O779 C766 1.277 . S
O779 Mg770 2.041 1_556 S
O780 C766 1.245 . S
O780 Mg768 1.988 1_556 S
O781 Mg768 2.061 . S
O781 C775 1.247 . S
O782 Mg771 2.106 . S
O782 Mg774 2.238 . S
O782 C775 1.289 . S
C783 O784 1.245 . S
C783 O785 1.274 . S
O784 Mg771 2.079 . S
O784 C783 1.245 . S
O785 Mg770 2.038 . S
O785 C783 1.274 . S
O786 Mg774 2.016 1_556 S
O786 C789 1.263 . S
O787 Mg773 1.984 1_556 S
O787 C789 1.280 . S
O788 Mg774 2.041 . S
O788 C792 1.277 . S
C789 O786 1.263 . S
C789 O787 1.280 . S
O790 Mg773 1.988 . S
O790 C792 1.245 . S
O791 C767 1.247 . S
O791 Mg773 2.061 1_556 S
C792 O788 1.277 . S
C792 O790 1.245 . S
O793 C767 1.289 . S
O793 Mg770 2.238 1_556 S
O793 Mg771 2.106 1_556 S
O794 Mg771 2.079 1_556 S
O794 C776 1.245 . S
O795 Mg774 2.038 1_556 S
O795 C776 1.274 . S
C796 O808 1.241 . S
C796 O809 1.280 . S
C797 O810 1.277 . S
C797 O811 1.245 1_655 S
C798 O822 1.247 . S
C798 O824 1.289 . S
Mg799 O800 1.926 . S
Mg799 O809 1.984 1_455 S
Mg799 O811 1.988 . S
Mg799 O812 2.061 . S
O800 Mg799 1.926 . S
O800 Mg801 1.986 1_455 S
O800 Mg802 1.917 . S
Mg801 O800 1.986 1_655 S
Mg801 O808 2.042 . S
Mg801 O810 2.041 . S
Mg801 O816 2.038 . S
Mg801 O824 2.238 . S
Mg802 O800 1.917 . S
Mg802 O803 1.917 . S
Mg802 O813 2.106 . S
Mg802 O815 2.079 . S
Mg802 O824 2.106 1_455 S
Mg802 O825 2.079 . S
O803 Mg802 1.917 . S
O803 Mg804 1.926 . S
O803 Mg805 1.986 . S
Mg804 O803 1.926 . S
Mg804 O818 1.984 . S
Mg804 O821 1.988 . S
Mg804 O822 2.061 1_455 S
Mg805 O803 1.986 . S
Mg805 O813 2.238 . S
Mg805 O817 2.042 . S
Mg805 O819 2.041 . S
Mg805 O826 2.038 . S
C806 O812 1.247 . S
C806 O813 1.289 . S
C807 O825 1.245 . S
C807 O826 1.274 . S
O808 C796 1.241 . S
O808 Mg801 2.042 . S
O809 C796 1.280 . S
O809 Mg799 1.984 1_655 S
O810 C797 1.277 . S
O810 Mg801 2.041 . S
O811 C797 1.245 1_455 S
O811 Mg799 1.988 . S
O812 Mg799 2.061 . S
O812 C806 1.247 . S
O813 Mg802 2.106 . S
O813 Mg805 2.238 . S
O813 C806 1.289 . S
C814 O815 1.245 1_655 S
C814 O816 1.274 . S
O815 Mg802 2.079 . S
O815 C814 1.245 1_455 S
O816 Mg801 2.038 . S
O816 C814 1.274 . S
O817 Mg805 2.042 . S
O817 C820 1.241 . S
O818 Mg804 1.984 . S
O818 C820 1.280 . S
O819 Mg805 2.041 . S
O819 C823 1.277 . S
C820 O817 1.241 . S
C820 O818 1.280 . S
O821 Mg804 1.988 . S
O821 C823 1.245 . S
O822 C798 1.247 . S
O822 Mg804 2.061 1_655 S
C823 O819 1.277 . S
C823 O821 1.245 . S
O824 C798 1.289 . S
O824 Mg801 2.238 . S
O824 Mg802 2.106 1_655 S
O825 Mg802 2.079 . S
O825 C807 1.245 . S
O826 Mg805 2.038 . S
O826 C807 1.274 . S
C827 O839 1.241 . S
C827 O840 1.280 . S
C828 O841 1.277 . S
C828 O842 1.245 . S
C829 O853 1.247 . S
C829 O855 1.289 . S
Mg830 O831 1.926 . S
Mg830 O840 1.984 . S
Mg830 O842 1.988 . S
Mg830 O843 2.061 . S
O831 Mg830 1.926 . S
O831 Mg832 1.986 . S
O831 Mg833 1.917 . S
Mg832 O831 1.986 . S
Mg832 O839 2.042 . S
Mg832 O841 2.041 . S
Mg832 O847 2.038 1_545 S
Mg832 O855 2.238 1_545 S
Mg833 O831 1.917 . S
Mg833 O834 1.917 1_545 S
Mg833 O844 2.106 . S
Mg833 O846 2.079 1_545 S
Mg833 O855 2.106 1_545 S
Mg833 O856 2.079 . S
O834 Mg833 1.917 1_565 S
O834 Mg835 1.926 . S
O834 Mg836 1.986 1_565 S
Mg835 O834 1.926 . S
Mg835 O849 1.984 . S
Mg835 O852 1.988 . S
Mg835 O853 2.061 . S
Mg836 O834 1.986 1_545 S
Mg836 O844 2.238 . S
Mg836 O848 2.042 1_545 S
Mg836 O850 2.041 1_545 S
Mg836 O857 2.038 . S
C837 O843 1.247 . S
C837 O844 1.289 . S
C838 O856 1.245 . S
C838 O857 1.274 . S
O839 C827 1.241 . S
O839 Mg832 2.042 . S
O840 C827 1.280 . S
O840 Mg830 1.984 . S
O841 C828 1.277 . S
O841 Mg832 2.041 . S
O842 C828 1.245 . S
O842 Mg830 1.988 . S
O843 Mg830 2.061 . S
O843 C837 1.247 . S
O844 Mg833 2.106 . S
O844 Mg836 2.238 . S
O844 C837 1.289 . S
C845 O846 1.245 . S
C845 O847 1.274 . S
O846 Mg833 2.079 1_565 S
O846 C845 1.245 . S
O847 Mg832 2.038 1_565 S
O847 C845 1.274 . S
O848 Mg836 2.042 1_565 S
O848 C851 1.241 . S
O849 Mg835 1.984 . S
O849 C851 1.280 . S
O850 Mg836 2.041 1_565 S
O850 C854 1.277 . S
C851 O848 1.241 . S
C851 O849 1.280 . S
O852 Mg835 1.988 . S
O852 C854 1.245 . S
O853 C829 1.247 . S
O853 Mg835 2.061 . S
C854 O850 1.277 . S
C854 O852 1.245 . S
O855 C829 1.289 . S
O855 Mg832 2.238 1_565 S
O855 Mg833 2.106 1_565 S
O856 Mg833 2.079 . S
O856 C838 1.245 . S
O857 Mg836 2.038 . S
O857 C838 1.274 . S
H858 C876 0.951 . S
H859 C878 0.951 . S
H860 C880 0.950 . S
H861 C881 0.950 . S
H862 C883 0.950 . S
H863 C886 0.950 . S
H864 C887 0.950 . S
H865 C889 0.950 . S
H866 C890 0.950 . S
H867 C891 0.951 . S
H868 C893 0.951 . S
H869 C895 0.950 . S
H870 C896 0.950 . S
H871 C898 0.950 . S
H872 C901 0.950 . S
H873 C902 0.950 . S
H874 C904 0.950 . S
H875 C905 0.950 . S
C876 H858 0.951 . S
C876 C877 1.366 . S
C876 C878 1.388 . S
C877 C876 1.366 . S
C877 C881 1.385 . S
C878 H859 0.951 . S
C878 C876 1.388 . S
C878 C879 1.366 . S
C879 C878 1.366 . S
C879 C880 1.414 . S
C879 C882 1.499 . S
C880 H860 0.950 . S
C880 C879 1.414 . S
C880 C881 1.374 . S
C881 H861 0.950 . S
C881 C877 1.385 . S
C881 C880 1.374 . S
C882 C879 1.499 . S
C882 C883 1.373 . S
C882 C884 1.389 . S
C883 H862 0.950 . S
C883 C882 1.373 . S
C883 C899 1.377 . S
C884 C882 1.389 . S
C884 C885 1.524 . S
C884 C898 1.377 . S
C885 C884 1.524 . S
C885 C886 1.397 . S
C885 C890 1.363 . S
C886 H863 0.950 . S
C886 C885 1.397 . S
C886 C887 1.334 . S
C887 H864 0.950 . S
C887 C886 1.334 . S
C887 C888 1.287 . S
C888 C887 1.287 . S
C888 C889 1.524 . S
C888 H907 0.913 . S
C889 H865 0.950 . S
C889 C888 1.524 . S
C889 C890 1.415 . S
C890 H866 0.950 . S
C890 C885 1.363 . S
C890 C889 1.415 . S
C891 H867 0.951 . S
C891 C892 1.366 . S
C891 C893 1.388 . S
C892 C891 1.366 . S
C892 C896 1.385 . S
C893 H868 0.951 . S
C893 C891 1.388 . S
C893 C894 1.366 . S
C894 C893 1.366 . S
C894 C895 1.414 . S
C894 C897 1.499 . S
C895 H869 0.950 . S
C895 C894 1.414 . S
C895 C896 1.374 . S
C896 H870 0.950 . S
C896 C892 1.385 . S
C896 C895 1.374 . S
C897 C894 1.499 . S
C897 C898 1.373 . S
C897 C899 1.389 . S
C898 H871 0.950 . S
C898 C884 1.377 . S
C898 C897 1.373 . S
C899 C883 1.377 . S
C899 C897 1.389 . S
C899 C900 1.524 . S
C900 C899 1.524 . S
C900 C901 1.397 . S
C900 C905 1.363 . S
C901 H872 0.950 . S
C901 C900 1.397 . S
C901 C902 1.334 . S
C902 H873 0.950 . S
C902 C901 1.334 . S
C902 C903 1.287 . S
C903 C902 1.287 . S
C903 C904 1.524 . S
C903 H906 0.999 . S
C904 H874 0.950 . S
C904 C903 1.524 . S
C904 C905 1.415 . S
C905 H875 0.950 . S
C905 C900 1.363 . S
C905 C904 1.415 . S
H906 C903 0.999 . S
H907 C888 0.913 . S
H908 C926 0.951 . S
H909 C928 0.951 . S
H910 C930 0.950 . S
H911 C931 0.950 . S
H912 C933 0.950 . S
H913 C936 0.950 . S
H914 C937 0.950 . S
H915 C939 0.950 . S
H916 C940 0.950 . S
H917 C941 0.951 . S
H918 C943 0.951 . S
H919 C945 0.950 . S
H920 C946 0.950 . S
H921 C948 0.950 . S
H922 C951 0.950 . S
H923 C952 0.950 . S
H924 C954 0.950 . S
H925 C955 0.950 . S
C926 H908 0.951 . S
C926 C927 1.366 . S
C926 C928 1.388 . S
C927 C926 1.366 . S
C927 C931 1.385 . S
C928 H909 0.951 . S
C928 C926 1.388 . S
C928 C929 1.366 . S
C929 C928 1.366 . S
C929 C930 1.414 . S
C929 C932 1.499 . S
C930 H910 0.950 . S
C930 C929 1.414 . S
C930 C931 1.374 . S
C931 H911 0.950 . S
C931 C927 1.385 . S
C931 C930 1.374 . S
C932 C929 1.499 . S
C932 C933 1.373 . S
C932 C934 1.389 . S
C933 H912 0.950 . S
C933 C932 1.373 . S
C933 C949 1.377 . S
C934 C932 1.389 . S
C934 C935 1.524 . S
C934 C948 1.377 . S
C935 C934 1.524 . S
C935 C936 1.397 . S
C935 C940 1.363 . S
C936 H913 0.950 . S
C936 C935 1.397 . S
C936 C937 1.334 . S
C937 H914 0.950 . S
C937 C936 1.334 . S
C937 C938 1.287 . S
C938 C937 1.287 . S
C938 C939 1.524 . S
C938 H957 0.913 . S
C939 H915 0.950 . S
C939 C938 1.524 . S
C939 C940 1.415 . S
C940 H916 0.950 . S
C940 C935 1.363 . S
C940 C939 1.415 . S
C941 H917 0.951 . S
C941 C942 1.366 . S
C941 C943 1.388 . S
C942 C941 1.366 . S
C942 C946 1.385 . S
C943 H918 0.951 . S
C943 C941 1.388 . S
C943 C944 1.366 . S
C944 C943 1.366 . S
C944 C945 1.414 . S
C944 C947 1.499 . S
C945 H919 0.950 . S
C945 C944 1.414 . S
C945 C946 1.374 . S
C946 H920 0.950 . S
C946 C942 1.385 . S
C946 C945 1.374 . S
C947 C944 1.499 . S
C947 C948 1.373 . S
C947 C949 1.389 . S
C948 H921 0.950 . S
C948 C934 1.377 . S
C948 C947 1.373 . S
C949 C933 1.377 . S
C949 C947 1.389 . S
C949 C950 1.524 . S
C950 C949 1.524 . S
C950 C951 1.397 . S
C950 C955 1.363 . S
C951 H922 0.950 . S
C951 C950 1.397 . S
C951 C952 1.334 . S
C952 H923 0.950 . S
C952 C951 1.334 . S
C952 C953 1.287 . S
C953 C952 1.287 . S
C953 C954 1.524 . S
C953 H956 0.999 . S
C954 H924 0.950 . S
C954 C953 1.524 . S
C954 C955 1.415 . S
C955 H925 0.950 . S
C955 C950 1.363 . S
C955 C954 1.415 . S
H956 C953 0.999 . S
H957 C938 0.913 . S
H958 C976 0.951 . S
H959 C978 0.951 . S
H960 C980 0.950 . S
H961 C981 0.950 . S
H962 C983 0.950 . S
H963 C986 0.950 . S
H964 C987 0.950 . S
H965 C989 0.950 . S
H966 C990 0.950 . S
H967 C991 0.951 . S
H968 C993 0.951 . S
H969 C995 0.950 . S
H970 C996 0.950 . S
H971 C998 0.950 . S
H972 C1001 0.950 . S
H973 C1002 0.950 . S
H974 C1004 0.950 . S
H975 C1005 0.950 . S
C976 H958 0.951 . S
C976 C977 1.366 . S
C976 C978 1.388 . S
C977 C976 1.366 . S
C977 C981 1.385 . S
C978 H959 0.951 . S
C978 C976 1.388 . S
C978 C979 1.366 . S
C979 C978 1.366 . S
C979 C980 1.414 . S
C979 C982 1.499 . S
C980 H960 0.950 . S
C980 C979 1.414 . S
C980 C981 1.374 . S
C981 H961 0.950 . S
C981 C977 1.385 . S
C981 C980 1.374 . S
C982 C979 1.499 . S
C982 C983 1.373 . S
C982 C984 1.389 . S
C983 H962 0.950 . S
C983 C982 1.373 . S
C983 C999 1.377 . S
C984 C982 1.389 . S
C984 C985 1.524 . S
C984 C998 1.377 . S
C985 C984 1.524 . S
C985 C986 1.397 . S
C985 C990 1.363 . S
C986 H963 0.950 . S
C986 C985 1.397 . S
C986 C987 1.334 . S
C987 H964 0.950 . S
C987 C986 1.334 . S
C987 C988 1.287 . S
C988 C987 1.287 . S
C988 C989 1.524 . S
C988 H1007 0.913 . S
C989 H965 0.950 . S
C989 C988 1.524 . S
C989 C990 1.415 . S
C990 H966 0.950 . S
C990 C985 1.363 . S
C990 C989 1.415 . S
C991 H967 0.951 . S
C991 C992 1.366 . S
C991 C993 1.388 . S
C992 C991 1.366 . S
C992 C996 1.385 . S
C993 H968 0.951 . S
C993 C991 1.388 . S
C993 C994 1.366 . S
C994 C993 1.366 . S
C994 C995 1.414 . S
C994 C997 1.499 . S
C995 H969 0.950 . S
C995 C994 1.414 . S
C995 C996 1.374 . S
C996 H970 0.950 . S
C996 C992 1.385 . S
C996 C995 1.374 . S
C997 C994 1.499 . S
C997 C998 1.373 . S
C997 C999 1.389 . S
C998 H971 0.950 . S
C998 C984 1.377 . S
C998 C997 1.373 . S
C999 C983 1.377 . S
C999 C997 1.389 . S
C999 C1000 1.524 . S
C1000 C999 1.524 . S
C1000 C1001 1.397 . S
C1000 C1005 1.363 . S
C1001 H972 0.950 . S
C1001 C1000 1.397 . S
C1001 C1002 1.334 . S
C1002 H973 0.950 . S
C1002 C1001 1.334 . S
C1002 C1003 1.287 . S
C1003 C1002 1.287 . S
C1003 C1004 1.524 . S
C1003 H1006 0.999 1_655 S
C1004 H974 0.950 . S
C1004 C1003 1.524 . S
C1004 C1005 1.415 . S
C1005 H975 0.950 . S
C1005 C1000 1.363 . S
C1005 C1004 1.415 . S
H1006 C1003 0.999 1_455 S
H1007 C988 0.913 . S
H1008 C1026 0.951 . S
H1009 C1028 0.951 . S
H1010 C1030 0.950 . S
H1011 C1031 0.950 . S
H1012 C1033 0.950 . S
H1013 C1036 0.950 . S
H1014 C1037 0.950 . S
H1015 C1039 0.950 . S
H1016 C1040 0.950 . S
H1017 C1041 0.951 . S
H1018 C1043 0.951 . S
H1019 C1045 0.950 . S
H1020 C1046 0.950 . S
H1021 C1048 0.950 . S
H1022 C1051 0.950 . S
H1023 C1052 0.950 . S
H1024 C1054 0.950 . S
H1025 C1055 0.950 . S
C1026 H1008 0.951 . S
C1026 C1027 1.366 . S
C1026 C1028 1.388 . S
C1027 C1026 1.366 . S
C1027 C1031 1.385 . S
C1028 H1009 0.951 . S
C1028 C1026 1.388 . S
C1028 C1029 1.366 . S
C1029 C1028 1.366 . S
C1029 C1030 1.414 . S
C1029 C1032 1.499 . S
C1030 H1010 0.950 . S
C1030 C1029 1.414 . S
C1030 C1031 1.374 . S
C1031 H1011 0.950 . S
C1031 C1027 1.385 . S
C1031 C1030 1.374 . S
C1032 C1029 1.499 . S
C1032 C1033 1.373 . S
C1032 C1034 1.389 . S
C1033 H1012 0.950 . S
C1033 C1032 1.373 . S
C1033 C1049 1.377 . S
C1034 C1032 1.389 . S
C1034 C1035 1.524 . S
C1034 C1048 1.377 . S
C1035 C1034 1.524 . S
C1035 C1036 1.397 . S
C1035 C1040 1.363 . S
C1036 H1013 0.950 . S
C1036 C1035 1.397 . S
C1036 C1037 1.334 . S
C1037 H1014 0.950 . S
C1037 C1036 1.334 . S
C1037 C1038 1.287 . S
C1038 C1037 1.287 . S
C1038 C1039 1.524 . S
C1038 H1057 0.913 1_565 S
C1039 H1015 0.950 . S
C1039 C1038 1.524 . S
C1039 C1040 1.415 . S
C1040 H1016 0.950 . S
C1040 C1035 1.363 . S
C1040 C1039 1.415 . S
C1041 H1017 0.951 . S
C1041 C1042 1.366 . S
C1041 C1043 1.388 . S
C1042 C1041 1.366 . S
C1042 C1046 1.385 . S
C1043 H1018 0.951 . S
C1043 C1041 1.388 . S
C1043 C1044 1.366 . S
C1044 C1043 1.366 . S
C1044 C1045 1.414 . S
C1044 C1047 1.499 . S
C1045 H1019 0.950 . S
C1045 C1044 1.414 . S
C1045 C1046 1.374 . S
C1046 H1020 0.950 . S
C1046 C1042 1.385 . S
C1046 C1045 1.374 . S
C1047 C1044 1.499 . S
C1047 C1048 1.373 . S
C1047 C1049 1.389 . S
C1048 H1021 0.950 . S
C1048 C1034 1.377 . S
C1048 C1047 1.373 . S
C1049 C1033 1.377 . S
C1049 C1047 1.389 . S
C1049 C1050 1.524 . S
C1050 C1049 1.524 . S
C1050 C1051 1.397 . S
C1050 C1055 1.363 . S
C1051 H1022 0.950 . S
C1051 C1050 1.397 . S
C1051 C1052 1.334 . S
C1052 H1023 0.950 . S
C1052 C1051 1.334 . S
C1052 C1053 1.287 . S
C1053 C1052 1.287 . S
C1053 C1054 1.524 . S
C1053 H1056 0.999 . S
C1054 H1024 0.950 . S
C1054 C1053 1.524 . S
C1054 C1055 1.415 . S
C1055 H1025 0.950 . S
C1055 C1050 1.363 . S
C1055 C1054 1.415 . S
H1056 C1053 0.999 . S
H1057 C1038 0.913 1_545 S
H1058 C1076 0.951 . S
H1059 C1078 0.951 . S
H1060 C1080 0.950 . S
H1061 C1081 0.950 . S
H1062 C1083 0.950 . S
H1063 C1086 0.950 . S
H1064 C1087 0.950 . S
H1065 C1089 0.950 . S
H1066 C1090 0.950 . S
H1067 C1091 0.951 . S
H1068 C1093 0.951 . S
H1069 C1095 0.950 . S
H1070 C1096 0.952 . S
H1071 C1098 0.950 . S
H1072 C1101 0.950 . S
H1073 C1102 0.950 . S
H1074 C1104 0.950 . S
H1075 C1105 0.950 . S
C1076 H1058 0.951 . S
C1076 C1077 1.366 . S
C1076 C1078 1.388 . S
C1077 C1076 1.366 . S
C1077 C1081 1.385 . S
C1078 H1059 0.951 . S
C1078 C1076 1.388 . S
C1078 C1079 1.366 . S
C1079 C1078 1.366 . S
C1079 C1080 1.414 . S
C1079 C1082 1.499 . S
C1080 H1060 0.950 . S
C1080 C1079 1.414 . S
C1080 C1081 1.374 . S
C1081 H1061 0.950 . S
C1081 C1077 1.385 . S
C1081 C1080 1.374 . S
C1082 C1079 1.499 . S
C1082 C1083 1.373 . S
C1082 C1084 1.389 . S
C1083 H1062 0.950 . S
C1083 C1082 1.373 . S
C1083 C1099 1.377 . S
C1084 C1082 1.389 . S
C1084 C1085 1.524 . S
C1084 C1098 1.377 . S
C1085 C1084 1.524 . S
C1085 C1086 1.397 . S
C1085 C1090 1.363 . S
C1086 H1063 0.950 . S
C1086 C1085 1.397 . S
C1086 C1087 1.334 . S
C1087 H1064 0.950 . S
C1087 C1086 1.334 . S
C1087 C1088 1.287 . S
C1088 C1087 1.287 . S
C1088 C1089 1.524 . S
C1088 H1107 0.913 . S
C1089 H1065 0.950 . S
C1089 C1088 1.524 . S
C1089 C1090 1.415 . S
C1090 H1066 0.950 . S
C1090 C1085 1.363 . S
C1090 C1089 1.415 . S
C1091 H1067 0.951 . S
C1091 C1092 1.366 . S
C1091 C1093 1.388 . S
C1092 C1091 1.366 . S
C1092 C1096 1.385 . S
C1093 H1068 0.951 . S
C1093 C1091 1.388 . S
C1093 C1094 1.366 . S
C1094 C1093 1.366 . S
C1094 C1095 1.414 . S
C1094 C1097 1.499 . S
C1095 H1069 0.950 . S
C1095 C1094 1.414 . S
C1095 C1096 1.374 . S
C1096 H1070 0.952 . S
C1096 C1092 1.385 . S
C1096 C1095 1.374 . S
C1097 C1094 1.499 . S
C1097 C1098 1.373 . S
C1097 C1099 1.389 . S
C1098 H1071 0.950 . S
C1098 C1084 1.377 . S
C1098 C1097 1.373 . S
C1099 C1083 1.377 . S
C1099 C1097 1.389 . S
C1099 C1100 1.524 . S
C1100 C1099 1.524 . S
C1100 C1101 1.397 . S
C1100 C1105 1.363 . S
C1101 H1072 0.950 . S
C1101 C1100 1.397 . S
C1101 C1102 1.334 . S
C1102 H1073 0.950 . S
C1102 C1101 1.334 . S
C1102 C1103 1.287 . S
C1103 C1102 1.287 . S
C1103 C1104 1.524 . S
C1103 H1106 0.999 . S
C1104 H1074 0.950 . S
C1104 C1103 1.524 . S
C1104 C1105 1.415 . S
C1105 H1075 0.950 . S
C1105 C1100 1.363 . S
C1105 C1104 1.415 . S
H1106 C1103 0.999 . S
H1107 C1088 0.913 . S
H1108 C1126 0.951 . S
H1109 C1128 0.951 . S
H1110 C1130 0.950 . S
H1111 C1131 0.950 . S
H1112 C1133 0.950 . S
H1113 C1136 0.950 . S
H1114 C1137 0.950 . S
H1115 C1139 0.950 . S
H1116 C1140 0.950 . S
H1117 C1141 0.951 . S
H1118 C1143 0.951 . S
H1119 C1145 0.950 . S
H1120 C1146 0.950 . S
H1121 C1148 0.950 . S
H1122 C1151 0.950 . S
H1123 C1152 0.950 . S
H1124 C1154 0.950 . S
H1125 C1155 0.950 . S
C1126 H1108 0.951 . S
C1126 C1127 1.366 . S
C1126 C1128 1.388 . S
C1127 C1126 1.366 . S
C1127 C1131 1.385 . S
C1128 H1109 0.951 . S
C1128 C1126 1.388 . S
C1128 C1129 1.366 . S
C1129 C1128 1.366 . S
C1129 C1130 1.414 . S
C1129 C1132 1.499 . S
C1130 H1110 0.950 . S
C1130 C1129 1.414 . S
C1130 C1131 1.374 . S
C1131 H1111 0.950 . S
C1131 C1127 1.385 . S
C1131 C1130 1.374 . S
C1132 C1129 1.499 . S
C1132 C1133 1.373 . S
C1132 C1134 1.389 . S
C1133 H1112 0.950 . S
C1133 C1132 1.373 . S
C1133 C1149 1.377 . S
C1134 C1132 1.389 . S
C1134 C1135 1.524 . S
C1134 C1148 1.377 . S
C1135 C1134 1.524 . S
C1135 C1136 1.397 . S
C1135 C1140 1.363 . S
C1136 H1113 0.950 . S
C1136 C1135 1.397 . S
C1136 C1137 1.334 . S
C1137 H1114 0.950 . S
C1137 C1136 1.334 . S
C1137 C1138 1.287 . S
C1138 C1137 1.287 . S
C1138 C1139 1.524 . S
C1138 H1157 0.913 . S
C1139 H1115 0.950 . S
C1139 C1138 1.524 . S
C1139 C1140 1.415 . S
C1140 H1116 0.950 . S
C1140 C1135 1.363 . S
C1140 C1139 1.415 . S
C1141 H1117 0.951 . S
C1141 C1142 1.366 . S
C1141 C1143 1.388 . S
C1142 C1141 1.366 . S
C1142 C1146 1.385 . S
C1143 H1118 0.951 . S
C1143 C1141 1.388 . S
C1143 C1144 1.366 . S
C1144 C1143 1.366 . S
C1144 C1145 1.414 . S
C1144 C1147 1.499 . S
C1145 H1119 0.950 . S
C1145 C1144 1.414 . S
C1145 C1146 1.374 . S
C1146 H1120 0.950 . S
C1146 C1142 1.385 . S
C1146 C1145 1.374 . S
C1147 C1144 1.499 . S
C1147 C1148 1.373 . S
C1147 C1149 1.389 . S
C1148 H1121 0.950 . S
C1148 C1134 1.377 . S
C1148 C1147 1.373 . S
C1149 C1133 1.377 . S
C1149 C1147 1.389 . S
C1149 C1150 1.524 . S
C1150 C1149 1.524 . S
C1150 C1151 1.397 . S
C1150 C1155 1.363 . S
C1151 H1122 0.950 . S
C1151 C1150 1.397 . S
C1151 C1152 1.334 . S
C1152 H1123 0.950 . S
C1152 C1151 1.334 . S
C1152 C1153 1.287 . S
C1153 C1152 1.287 . S
C1153 C1154 1.524 . S
C1153 H1156 0.999 . S
C1154 H1124 0.950 . S
C1154 C1153 1.524 . S
C1154 C1155 1.415 . S
C1155 H1125 0.950 . S
C1155 C1150 1.363 . S
C1155 C1154 1.415 . S
H1156 C1153 0.999 . S
H1157 C1138 0.913 . S
H1158 C1176 0.951 . S
H1159 C1178 0.951 . S
H1160 C1180 0.950 . S
H1161 C1181 0.950 . S
H1162 C1183 0.950 . S
H1163 C1186 0.950 . S
H1164 C1187 0.950 . S
H1165 C1189 0.950 . S
H1166 C1190 0.950 . S
H1167 C1191 0.951 . S
H1168 C1193 0.951 . S
H1169 C1195 0.950 . S
H1170 C1196 0.950 . S
H1171 C1198 0.950 . S
H1172 C1201 0.950 . S
H1173 C1202 0.950 1_455 S
H1174 C1204 0.950 . S
H1175 C1205 0.950 . S
C1176 H1158 0.951 . S
C1176 C1177 1.366 . S
C1176 C1178 1.388 . S
C1177 C1176 1.366 . S
C1177 C1181 1.385 . S
C1178 H1159 0.951 . S
C1178 C1176 1.388 . S
C1178 C1179 1.366 . S
C1179 C1178 1.366 . S
C1179 C1180 1.414 . S
C1179 C1182 1.499 . S
C1180 H1160 0.950 . S
C1180 C1179 1.414 . S
C1180 C1181 1.374 . S
C1181 H1161 0.950 . S
C1181 C1177 1.385 . S
C1181 C1180 1.374 . S
C1182 C1179 1.499 . S
C1182 C1183 1.373 . S
C1182 C1184 1.389 . S
C1183 H1162 0.950 . S
C1183 C1182 1.373 . S
C1183 C1199 1.377 . S
C1184 C1182 1.389 . S
C1184 C1185 1.524 . S
C1184 C1198 1.377 . S
C1185 C1184 1.524 . S
C1185 C1186 1.397 . S
C1185 C1190 1.363 . S
C1186 H1163 0.950 . S
C1186 C1185 1.397 . S
C1186 C1187 1.334 . S
C1187 H1164 0.950 . S
C1187 C1186 1.334 . S
C1187 C1188 1.287 . S
C1188 C1187 1.287 . S
C1188 C1189 1.524 . S
C1188 H1207 0.913 . S
C1189 H1165 0.950 . S
C1189 C1188 1.524 . S
C1189 C1190 1.415 . S
C1190 H1166 0.950 . S
C1190 C1185 1.363 . S
C1190 C1189 1.415 . S
C1191 H1167 0.951 . S
C1191 C1192 1.366 . S
C1191 C1193 1.388 . S
C1192 C1191 1.366 . S
C1192 C1196 1.385 . S
C1193 H1168 0.951 . S
C1193 C1191 1.388 . S
C1193 C1194 1.366 . S
C1194 C1193 1.366 . S
C1194 C1195 1.414 . S
C1194 C1197 1.499 . S
C1195 H1169 0.950 . S
C1195 C1194 1.414 . S
C1195 C1196 1.374 . S
C1196 H1170 0.950 . S
C1196 C1192 1.385 . S
C1196 C1195 1.374 . S
C1197 C1194 1.499 . S
C1197 C1198 1.373 . S
C1197 C1199 1.389 . S
C1198 H1171 0.950 . S
C1198 C1184 1.377 . S
C1198 C1197 1.373 . S
C1199 C1183 1.377 . S
C1199 C1197 1.389 . S
C1199 C1200 1.524 . S
C1200 C1199 1.524 . S
C1200 C1201 1.397 . S
C1200 C1205 1.363 . S
C1201 H1172 0.950 . S
C1201 C1200 1.397 . S
C1201 C1202 1.334 . S
C1202 H1173 0.950 1_655 S
C1202 C1201 1.334 . S
C1202 C1203 1.287 . S
C1203 C1202 1.287 . S
C1203 C1204 1.524 . S
C1203 H1206 0.999 1_655 S
C1204 H1174 0.950 . S
C1204 C1203 1.524 . S
C1204 C1205 1.415 . S
C1205 H1175 0.950 . S
C1205 C1200 1.363 . S
C1205 C1204 1.415 . S
H1206 C1203 0.999 1_455 S
H1207 C1188 0.913 . S
H1208 C1226 0.951 . S
H1209 C1228 0.951 . S
H1210 C1230 0.950 . S
H1211 C1231 0.950 . S
H1212 C1233 0.950 . S
H1213 C1236 0.950 . S
H1214 C1237 0.950 . S
H1215 C1239 0.950 . S
H1216 C1240 0.950 . S
H1217 C1241 0.951 . S
H1218 C1243 0.951 . S
H1219 C1245 0.950 . S
H1220 C1246 0.950 . S
H1221 C1248 0.950 . S
H1222 C1251 0.950 . S
H1223 C1252 0.950 . S
H1224 C1254 0.950 . S
H1225 C1255 0.950 . S
C1226 H1208 0.951 . S
C1226 C1227 1.366 . S
C1226 C1228 1.388 . S
C1227 C1226 1.366 . S
C1227 C1231 1.385 . S
C1228 H1209 0.951 . S
C1228 C1226 1.388 . S
C1228 C1229 1.366 . S
C1229 C1228 1.366 . S
C1229 C1230 1.414 . S
C1229 C1232 1.499 . S
C1230 H1210 0.950 . S
C1230 C1229 1.414 . S
C1230 C1231 1.374 . S
C1231 H1211 0.950 . S
C1231 C1227 1.385 . S
C1231 C1230 1.374 . S
C1232 C1229 1.499 . S
C1232 C1233 1.373 . S
C1232 C1234 1.389 . S
C1233 H1212 0.950 . S
C1233 C1232 1.373 . S
C1233 C1249 1.377 . S
C1234 C1232 1.389 . S
C1234 C1235 1.524 . S
C1234 C1248 1.377 . S
C1235 C1234 1.524 . S
C1235 C1236 1.397 . S
C1235 C1240 1.363 . S
C1236 H1213 0.950 . S
C1236 C1235 1.397 . S
C1236 C1237 1.334 . S
C1237 H1214 0.950 . S
C1237 C1236 1.334 . S
C1237 C1238 1.287 . S
C1238 C1237 1.287 . S
C1238 C1239 1.524 . S
C1238 H1257 0.913 . S
C1239 H1215 0.950 . S
C1239 C1238 1.524 . S
C1239 C1240 1.415 . S
C1240 H1216 0.950 . S
C1240 C1235 1.363 . S
C1240 C1239 1.415 . S
C1241 H1217 0.951 . S
C1241 C1242 1.366 . S
C1241 C1243 1.388 . S
C1242 C1241 1.366 . S
C1242 C1246 1.385 . S
C1243 H1218 0.951 . S
C1243 C1241 1.388 . S
C1243 C1244 1.366 . S
C1244 C1243 1.366 . S
C1244 C1245 1.414 . S
C1244 C1247 1.499 . S
C1245 H1219 0.950 . S
C1245 C1244 1.414 . S
C1245 C1246 1.374 . S
C1246 H1220 0.950 . S
C1246 C1242 1.385 . S
C1246 C1245 1.374 . S
C1247 C1244 1.499 . S
C1247 C1248 1.373 . S
C1247 C1249 1.389 . S
C1248 H1221 0.950 . S
C1248 C1234 1.377 . S
C1248 C1247 1.373 . S
C1249 C1233 1.377 . S
C1249 C1247 1.389 . S
C1249 C1250 1.524 . S
C1250 C1249 1.524 . S
C1250 C1251 1.397 . S
C1250 C1255 1.363 . S
C1251 H1222 0.950 . S
C1251 C1250 1.397 . S
C1251 C1252 1.334 . S
C1252 H1223 0.950 . S
C1252 C1251 1.334 . S
C1252 C1253 1.287 . S
C1253 C1252 1.287 . S
C1253 C1254 1.524 . S
C1253 H1256 0.999 . S
C1254 H1224 0.950 . S
C1254 C1253 1.524 . S
C1254 C1255 1.415 . S
C1255 H1225 0.950 . S
C1255 C1250 1.363 . S
C1255 C1254 1.415 . S
H1256 C1253 0.999 . S
H1257 C1238 0.913 . S
H1258 C1276 0.951 . S
H1259 C1278 0.951 . S
H1260 C1280 0.950 . S
H1261 C1281 0.950 . S
H1262 C1283 0.950 . S
H1263 C1286 0.950 . S
H1264 C1287 0.950 . S
H1265 C1289 0.950 . S
H1266 C1290 0.950 . S
H1267 C1291 0.951 . S
H1268 C1293 0.951 . S
H1269 C1295 0.950 . S
H1270 C1296 0.950 . S
H1271 C1298 0.950 . S
H1272 C1301 0.950 . S
H1273 C1302 0.950 . S
H1274 C1304 0.950 . S
H1275 C1305 0.950 . S
C1276 H1258 0.951 . S
C1276 C1277 1.366 . S
C1276 C1278 1.388 . S
C1277 C1276 1.366 . S
C1277 C1281 1.385 . S
C1278 H1259 0.951 . S
C1278 C1276 1.388 . S
C1278 C1279 1.366 . S
C1279 C1278 1.366 . S
C1279 C1280 1.414 . S
C1279 C1282 1.499 . S
C1280 H1260 0.950 . S
C1280 C1279 1.414 . S
C1280 C1281 1.374 . S
C1281 H1261 0.950 . S
C1281 C1277 1.385 . S
C1281 C1280 1.374 . S
C1282 C1279 1.499 . S
C1282 C1283 1.373 . S
C1282 C1284 1.389 . S
C1283 H1262 0.950 . S
C1283 C1282 1.373 . S
C1283 C1299 1.377 . S
C1284 C1282 1.389 . S
C1284 C1285 1.524 . S
C1284 C1298 1.377 . S
C1285 C1284 1.524 . S
C1285 C1286 1.397 . S
C1285 C1290 1.363 . S
C1286 H1263 0.950 . S
C1286 C1285 1.397 . S
C1286 C1287 1.334 . S
C1287 H1264 0.950 . S
C1287 C1286 1.334 . S
C1287 C1288 1.287 . S
C1288 C1287 1.287 . S
C1288 C1289 1.524 . S
C1288 H1307 0.913 . S
C1289 H1265 0.950 . S
C1289 C1288 1.524 . S
C1289 C1290 1.415 . S
C1290 H1266 0.950 . S
C1290 C1285 1.363 . S
C1290 C1289 1.415 . S
C1291 H1267 0.951 . S
C1291 C1292 1.366 . S
C1291 C1293 1.388 . S
C1292 C1291 1.366 . S
C1292 C1296 1.385 . S
C1293 H1268 0.951 . S
C1293 C1291 1.388 . S
C1293 C1294 1.366 . S
C1294 C1293 1.366 . S
C1294 C1295 1.414 . S
C1294 C1297 1.499 . S
C1295 H1269 0.950 . S
C1295 C1294 1.414 . S
C1295 C1296 1.374 . S
C1296 H1270 0.950 . S
C1296 C1292 1.385 . S
C1296 C1295 1.374 . S
C1297 C1294 1.499 . S
C1297 C1298 1.373 . S
C1297 C1299 1.389 . S
C1298 H1271 0.950 . S
C1298 C1284 1.377 . S
C1298 C1297 1.373 . S
C1299 C1283 1.377 . S
C1299 C1297 1.389 . S
C1299 C1300 1.524 . S
C1300 C1299 1.524 . S
C1300 C1301 1.397 . S
C1300 C1305 1.363 . S
C1301 H1272 0.950 . S
C1301 C1300 1.397 . S
C1301 C1302 1.334 . S
C1302 H1273 0.950 . S
C1302 C1301 1.334 . S
C1302 C1303 1.287 . S
C1303 C1302 1.287 . S
C1303 C1304 1.524 . S
C1303 H1306 0.999 . S
C1304 H1274 0.950 . S
C1304 C1303 1.524 . S
C1304 C1305 1.415 . S
C1305 H1275 0.950 . S
C1305 C1300 1.363 . S
C1305 C1304 1.415 . S
H1306 C1303 0.999 . S
H1307 C1288 0.913 . S
H1308 C1326 0.951 . S
H1309 C1328 0.951 . S
H1310 C1330 0.950 . S
H1311 C1331 0.950 . S
H1312 C1333 0.950 . S
H1313 C1336 0.950 . S
H1314 C1337 0.950 . S
H1315 C1339 0.950 . S
H1316 C1340 0.950 . S
H1317 C1341 0.951 . S
H1318 C1343 0.951 . S
H1319 C1345 0.950 . S
H1320 C1346 0.950 . S
H1321 C1348 0.950 . S
H1322 C1351 0.950 . S
H1323 C1352 0.950 . S
H1324 C1354 0.950 . S
H1325 C1355 0.950 . S
C1326 H1308 0.951 . S
C1326 C1327 1.366 . S
C1326 C1328 1.388 . S
C1327 C1326 1.366 . S
C1327 C1331 1.385 . S
C1328 H1309 0.951 . S
C1328 C1326 1.388 . S
C1328 C1329 1.366 . S
C1329 C1328 1.366 . S
C1329 C1330 1.414 . S
C1329 C1332 1.499 . S
C1330 H1310 0.950 . S
C1330 C1329 1.414 . S
C1330 C1331 1.374 . S
C1331 H1311 0.950 . S
C1331 C1327 1.385 . S
C1331 C1330 1.374 . S
C1332 C1329 1.499 . S
C1332 C1333 1.373 . S
C1332 C1334 1.389 . S
C1333 H1312 0.950 . S
C1333 C1332 1.373 . S
C1333 C1349 1.377 . S
C1334 C1332 1.389 . S
C1334 C1335 1.524 . S
C1334 C1348 1.377 . S
C1335 C1334 1.524 . S
C1335 C1336 1.397 . S
C1335 C1340 1.363 . S
C1336 H1313 0.950 . S
C1336 C1335 1.397 . S
C1336 C1337 1.334 . S
C1337 H1314 0.950 . S
C1337 C1336 1.334 . S
C1337 C1338 1.287 . S
C1338 C1337 1.287 . S
C1338 C1339 1.524 . S
C1338 H1357 0.913 . S
C1339 H1315 0.950 . S
C1339 C1338 1.524 . S
C1339 C1340 1.415 . S
C1340 H1316 0.950 . S
C1340 C1335 1.363 . S
C1340 C1339 1.415 . S
C1341 H1317 0.951 . S
C1341 C1342 1.366 . S
C1341 C1343 1.388 . S
C1342 C1341 1.366 . S
C1342 C1346 1.385 . S
C1343 H1318 0.951 . S
C1343 C1341 1.388 . S
C1343 C1344 1.366 . S
C1344 C1343 1.366 . S
C1344 C1345 1.414 . S
C1344 C1347 1.499 . S
C1345 H1319 0.950 . S
C1345 C1344 1.414 . S
C1345 C1346 1.374 . S
C1346 H1320 0.950 . S
C1346 C1342 1.385 . S
C1346 C1345 1.374 . S
C1347 C1344 1.499 . S
C1347 C1348 1.373 . S
C1347 C1349 1.389 . S
C1348 H1321 0.950 . S
C1348 C1334 1.377 . S
C1348 C1347 1.373 . S
C1349 C1333 1.377 . S
C1349 C1347 1.389 . S
C1349 C1350 1.524 . S
C1350 C1349 1.524 . S
C1350 C1351 1.397 . S
C1350 C1355 1.363 . S
C1351 H1322 0.950 . S
C1351 C1350 1.397 . S
C1351 C1352 1.334 . S
C1352 H1323 0.950 . S
C1352 C1351 1.334 . S
C1352 C1353 1.287 . S
C1353 C1352 1.287 . S
C1353 C1354 1.524 . S
C1353 H1356 0.999 . S
C1354 H1324 0.950 . S
C1354 C1353 1.524 . S
C1354 C1355 1.415 . S
C1355 H1325 0.950 . S
C1355 C1350 1.363 . S
C1355 C1354 1.415 . S
H1356 C1353 0.999 . S
H1357 C1338 0.913 . S
H1358 C1376 0.951 . S
H1359 C1378 0.951 . S
H1360 C1380 0.950 . S
H1361 C1381 0.950 . S
H1362 C1383 0.950 . S
H1363 C1386 0.950 . S
H1364 C1387 0.950 1_545 S
H1365 C1389 0.950 . S
H1366 C1390 0.950 . S
H1367 C1391 0.951 . S
H1368 C1393 0.951 . S
H1369 C1395 0.950 . S
H1370 C1396 0.950 . S
H1371 C1398 0.950 . S
H1372 C1401 0.950 . S
H1373 C1402 0.950 . S
H1374 C1404 0.950 . S
H1375 C1405 0.950 . S
C1376 H1358 0.951 . S
C1376 C1377 1.366 . S
C1376 C1378 1.388 . S
C1377 C1376 1.366 . S
C1377 C1381 1.385 . S
C1378 H1359 0.951 . S
C1378 C1376 1.388 . S
C1378 C1379 1.366 . S
C1379 C1378 1.366 . S
C1379 C1380 1.414 . S
C1379 C1382 1.499 . S
C1380 H1360 0.950 . S
C1380 C1379 1.414 . S
C1380 C1381 1.374 . S
C1381 H1361 0.950 . S
C1381 C1377 1.385 . S
C1381 C1380 1.374 . S
C1382 C1379 1.499 . S
C1382 C1383 1.373 . S
C1382 C1384 1.389 . S
C1383 H1362 0.950 . S
C1383 C1382 1.373 . S
C1383 C1399 1.377 . S
C1384 C1382 1.389 . S
C1384 C1385 1.524 . S
C1384 C1398 1.377 . S
C1385 C1384 1.524 . S
C1385 C1386 1.397 . S
C1385 C1390 1.363 . S
C1386 H1363 0.950 . S
C1386 C1385 1.397 . S
C1386 C1387 1.334 . S
C1387 H1364 0.950 1_565 S
C1387 C1386 1.334 . S
C1387 C1388 1.287 1_565 S
C1388 C1387 1.287 1_545 S
C1388 C1389 1.524 . S
C1388 H1407 0.913 . S
C1389 H1365 0.950 . S
C1389 C1388 1.524 . S
C1389 C1390 1.415 1_545 S
C1390 H1366 0.950 . S
C1390 C1385 1.363 . S
C1390 C1389 1.415 1_565 S
C1391 H1367 0.951 . S
C1391 C1392 1.366 . S
C1391 C1393 1.388 . S
C1392 C1391 1.366 . S
C1392 C1396 1.385 . S
C1393 H1368 0.951 . S
C1393 C1391 1.388 . S
C1393 C1394 1.366 . S
C1394 C1393 1.366 . S
C1394 C1395 1.414 . S
C1394 C1397 1.499 . S
C1395 H1369 0.950 . S
C1395 C1394 1.414 . S
C1395 C1396 1.374 . S
C1396 H1370 0.950 . S
C1396 C1392 1.385 . S
C1396 C1395 1.374 . S
C1397 C1394 1.499 . S
C1397 C1398 1.373 . S
C1397 C1399 1.389 . S
C1398 H1371 0.950 . S
C1398 C1384 1.377 . S
C1398 C1397 1.373 . S
C1399 C1383 1.377 . S
C1399 C1397 1.389 . S
C1399 C1400 1.524 . S
C1400 C1399 1.524 . S
C1400 C1401 1.397 . S
C1400 C1405 1.363 . S
C1401 H1372 0.950 . S
C1401 C1400 1.397 . S
C1401 C1402 1.334 . S
C1402 H1373 0.950 . S
C1402 C1401 1.334 . S
C1402 C1403 1.287 . S
C1403 C1402 1.287 . S
C1403 C1404 1.524 . S
C1403 H1406 0.999 . S
C1404 H1374 0.950 . S
C1404 C1403 1.524 . S
C1404 C1405 1.415 . S
C1405 H1375 0.950 . S
C1405 C1400 1.363 . S
C1405 C1404 1.415 . S
H1406 C1403 0.999 . S
H1407 C1388 0.913 . S
H1408 C1426 0.951 . S
H1409 C1428 0.951 . S
H1410 C1430 0.950 . S
H1411 C1431 0.950 . S
H1412 C1433 0.950 . S
H1413 C1436 0.950 . S
H1414 C1437 0.950 . S
H1415 C1439 0.950 . S
H1416 C1440 0.950 . S
H1417 C1441 0.951 . S
H1418 C1443 0.951 . S
H1419 C1445 0.950 . S
H1420 C1446 0.950 . S
H1421 C1448 0.950 . S
H1422 C1451 0.950 . S
H1423 C1452 0.950 . S
H1424 C1454 0.950 . S
H1425 C1455 0.950 . S
C1426 H1408 0.951 . S
C1426 C1427 1.366 . S
C1426 C1428 1.388 . S
C1427 C1426 1.366 . S
C1427 C1431 1.385 . S
C1428 H1409 0.951 . S
C1428 C1426 1.388 . S
C1428 C1429 1.366 . S
C1429 C1428 1.366 . S
C1429 C1430 1.414 . S
C1429 C1432 1.499 . S
C1430 H1410 0.950 . S
C1430 C1429 1.414 . S
C1430 C1431 1.374 . S
C1431 H1411 0.950 . S
C1431 C1427 1.385 . S
C1431 C1430 1.374 . S
C1432 C1429 1.499 . S
C1432 C1433 1.373 . S
C1432 C1434 1.389 . S
C1433 H1412 0.950 . S
C1433 C1432 1.373 . S
C1433 C1449 1.377 . S
C1434 C1432 1.389 . S
C1434 C1435 1.524 . S
C1434 C1448 1.377 . S
C1435 C1434 1.524 . S
C1435 C1436 1.397 . S
C1435 C1440 1.363 . S
C1436 H1413 0.950 . S
C1436 C1435 1.397 . S
C1436 C1437 1.334 . S
C1437 H1414 0.950 . S
C1437 C1436 1.334 . S
C1437 C1438 1.287 . S
C1438 C1437 1.287 . S
C1438 C1439 1.524 . S
C1438 H1457 0.913 . S
C1439 H1415 0.950 . S
C1439 C1438 1.524 . S
C1439 C1440 1.415 . S
C1440 H1416 0.950 . S
C1440 C1435 1.363 . S
C1440 C1439 1.415 . S
C1441 H1417 0.951 . S
C1441 C1442 1.366 . S
C1441 C1443 1.388 . S
C1442 C1441 1.366 . S
C1442 C1446 1.385 . S
C1443 H1418 0.951 . S
C1443 C1441 1.388 . S
C1443 C1444 1.366 . S
C1444 C1443 1.366 . S
C1444 C1445 1.414 . S
C1444 C1447 1.499 . S
C1445 H1419 0.950 . S
C1445 C1444 1.414 . S
C1445 C1446 1.374 . S
C1446 H1420 0.950 . S
C1446 C1442 1.385 . S
C1446 C1445 1.374 . S
C1447 C1444 1.499 . S
C1447 C1448 1.373 . S
C1447 C1449 1.389 . S
C1448 H1421 0.950 . S
C1448 C1434 1.377 . S
C1448 C1447 1.373 . S
C1449 C1433 1.377 . S
C1449 C1447 1.389 . S
C1449 C1450 1.524 . S
C1450 C1449 1.524 . S
C1450 C1451 1.397 . S
C1450 C1455 1.363 . S
C1451 H1422 0.950 . S
C1451 C1450 1.397 . S
C1451 C1452 1.334 . S
C1452 H1423 0.950 . S
C1452 C1451 1.334 . S
C1452 C1453 1.287 . S
C1453 C1452 1.287 . S
C1453 C1454 1.524 . S
C1453 H1456 0.999 . S
C1454 H1424 0.950 . S
C1454 C1453 1.524 . S
C1454 C1455 1.415 . S
C1455 H1425 0.950 . S
C1455 C1450 1.363 . S
C1455 C1454 1.415 . S
H1456 C1453 0.999 . S
H1457 C1438 0.913 . S
H1458 C1476 0.951 . S
H1459 C1478 0.951 . S
H1460 C1480 0.950 . S
H1461 C1481 0.950 . S
H1462 C1483 0.950 . S
H1463 C1486 0.950 . S
H1464 C1487 0.950 . S
H1465 C1489 0.950 . S
H1466 C1490 0.950 . S
H1467 C1491 0.951 . S
H1468 C1493 0.951 . S
H1469 C1495 0.950 . S
H1470 C1496 0.950 1_545 S
H1471 C1498 0.950 . S
H1472 C1501 0.950 . S
H1473 C1502 0.950 1_545 S
H1474 C1504 0.950 . S
H1475 C1505 0.950 . S
C1476 H1458 0.951 . S
C1476 C1477 1.366 . S
C1476 C1478 1.388 . S
C1477 C1476 1.366 . S
C1477 C1481 1.385 . S
C1478 H1459 0.951 . S
C1478 C1476 1.388 . S
C1478 C1479 1.366 . S
C1479 C1478 1.366 . S
C1479 C1480 1.414 . S
C1479 C1482 1.499 . S
C1480 H1460 0.950 . S
C1480 C1479 1.414 . S
C1480 C1481 1.374 . S
C1481 H1461 0.950 . S
C1481 C1477 1.385 . S
C1481 C1480 1.374 . S
C1482 C1479 1.499 . S
C1482 C1483 1.373 . S
C1482 C1484 1.389 . S
C1483 H1462 0.950 . S
C1483 C1482 1.373 . S
C1483 C1499 1.377 . S
C1484 C1482 1.389 . S
C1484 C1485 1.524 . S
C1484 C1498 1.377 . S
C1485 C1484 1.524 . S
C1485 C1486 1.397 . S
C1485 C1490 1.363 . S
C1486 H1463 0.950 . S
C1486 C1485 1.397 . S
C1486 C1487 1.334 . S
C1487 H1464 0.950 . S
C1487 C1486 1.334 . S
C1487 C1488 1.287 . S
C1488 C1487 1.287 . S
C1488 C1489 1.524 . S
C1488 H1507 0.913 . S
C1489 H1465 0.950 . S
C1489 C1488 1.524 . S
C1489 C1490 1.415 . S
C1490 H1466 0.950 . S
C1490 C1485 1.363 . S
C1490 C1489 1.415 . S
C1491 H1467 0.951 . S
C1491 C1492 1.366 . S
C1491 C1493 1.388 . S
C1492 C1491 1.366 . S
C1492 C1496 1.385 . S
C1493 H1468 0.951 . S
C1493 C1491 1.388 . S
C1493 C1494 1.366 . S
C1494 C1493 1.366 . S
C1494 C1495 1.414 . S
C1494 C1497 1.499 . S
C1495 H1469 0.950 . S
C1495 C1494 1.414 . S
C1495 C1496 1.374 . S
C1496 H1470 0.950 1_565 S
C1496 C1492 1.385 . S
C1496 C1495 1.374 . S
C1497 C1494 1.499 . S
C1497 C1498 1.373 . S
C1497 C1499 1.389 . S
C1498 H1471 0.950 . S
C1498 C1484 1.377 . S
C1498 C1497 1.373 . S
C1499 C1483 1.377 . S
C1499 C1497 1.389 . S
C1499 C1500 1.524 . S
C1500 C1499 1.524 . S
C1500 C1501 1.397 . S
C1500 C1505 1.363 . S
C1501 H1472 0.950 . S
C1501 C1500 1.397 . S
C1501 C1502 1.334 . S
C1502 H1473 0.950 1_565 S
C1502 C1501 1.334 . S
C1502 C1503 1.287 . S
C1503 C1502 1.287 . S
C1503 C1504 1.524 . S
C1503 H1506 0.999 . S
C1504 H1474 0.950 . S
C1504 C1503 1.524 . S
C1504 C1505 1.415 . S
C1505 H1475 0.950 . S
C1505 C1500 1.363 . S
C1505 C1504 1.415 . S
H1506 C1503 0.999 . S
H1507 C1488 0.913 . S
H1508 C1526 0.951 . S
H1509 C1528 0.951 . S
H1510 C1530 0.950 . S
H1511 C1531 0.950 . S
H1512 C1533 0.950 . S
H1513 C1536 0.950 . S
H1514 C1537 0.950 . S
H1515 C1539 0.950 . S
H1516 C1540 0.950 . S
H1517 C1541 0.951 . S
H1518 C1543 0.951 . S
H1519 C1545 0.950 . S
H1520 C1546 0.950 . S
H1521 C1548 0.950 . S
H1522 C1551 0.950 . S
H1523 C1552 0.950 . S
H1524 C1554 0.950 . S
H1525 C1555 0.950 . S
C1526 H1508 0.951 . S
C1526 C1527 1.366 . S
C1526 C1528 1.388 . S
C1527 C1526 1.366 . S
C1527 C1531 1.385 . S
C1528 H1509 0.951 . S
C1528 C1526 1.388 . S
C1528 C1529 1.366 . S
C1529 C1528 1.366 . S
C1529 C1530 1.414 . S
C1529 C1532 1.499 . S
C1530 H1510 0.950 . S
C1530 C1529 1.414 . S
C1530 C1531 1.374 . S
C1531 H1511 0.950 . S
C1531 C1527 1.385 . S
C1531 C1530 1.374 . S
C1532 C1529 1.499 . S
C1532 C1533 1.373 . S
C1532 C1534 1.389 . S
C1533 H1512 0.950 . S
C1533 C1532 1.373 . S
C1533 C1549 1.377 . S
C1534 C1532 1.389 . S
C1534 C1535 1.524 . S
C1534 C1548 1.377 . S
C1535 C1534 1.524 . S
C1535 C1536 1.397 . S
C1535 C1540 1.363 . S
C1536 H1513 0.950 . S
C1536 C1535 1.397 . S
C1536 C1537 1.334 . S
C1537 H1514 0.950 . S
C1537 C1536 1.334 . S
C1537 C1538 1.287 . S
C1538 C1537 1.287 . S
C1538 C1539 1.524 . S
C1538 H1557 0.913 . S
C1539 H1515 0.950 . S
C1539 C1538 1.524 . S
C1539 C1540 1.415 . S
C1540 H1516 0.950 . S
C1540 C1535 1.363 . S
C1540 C1539 1.415 . S
C1541 H1517 0.951 . S
C1541 C1542 1.366 . S
C1541 C1543 1.388 . S
C1542 C1541 1.366 . S
C1542 C1546 1.385 . S
C1543 H1518 0.951 . S
C1543 C1541 1.388 . S
C1543 C1544 1.366 . S
C1544 C1543 1.366 . S
C1544 C1545 1.414 . S
C1544 C1547 1.499 . S
C1545 H1519 0.950 . S
C1545 C1544 1.414 . S
C1545 C1546 1.374 . S
C1546 H1520 0.950 . S
C1546 C1542 1.385 . S
C1546 C1545 1.374 . S
C1547 C1544 1.499 . S
C1547 C1548 1.373 . S
C1547 C1549 1.389 . S
C1548 H1521 0.950 . S
C1548 C1534 1.377 . S
C1548 C1547 1.373 . S
C1549 C1533 1.377 . S
C1549 C1547 1.389 . S
C1549 C1550 1.524 . S
C1550 C1549 1.524 . S
C1550 C1551 1.397 . S
C1550 C1555 1.363 . S
C1551 H1522 0.950 . S
C1551 C1550 1.397 . S
C1551 C1552 1.334 . S
C1552 H1523 0.950 . S
C1552 C1551 1.334 . S
C1552 C1553 1.287 . S
C1553 C1552 1.287 . S
C1553 C1554 1.524 . S
C1553 H1556 0.999 . S
C1554 H1524 0.950 . S
C1554 C1553 1.524 . S
C1554 C1555 1.415 . S
C1555 H1525 0.950 . S
C1555 C1550 1.363 . S
C1555 C1554 1.415 . S
H1556 C1553 0.999 . S
H1557 C1538 0.913 . S
H1558 C1576 0.951 . S
H1559 C1578 0.951 . S
H1560 C1580 0.950 . S
H1561 C1581 0.950 . S
H1562 C1583 0.950 . S
H1563 C1586 0.950 . S
H1564 C1587 0.950 . S
H1565 C1589 0.950 . S
H1566 C1590 0.950 . S
H1567 C1591 0.951 . S
H1568 C1593 0.951 . S
H1569 C1595 0.950 . S
H1570 C1596 0.950 . S
H1571 C1598 0.950 . S
H1572 C1601 0.950 . S
H1573 C1602 0.950 . S
H1574 C1604 0.950 . S
H1575 C1605 0.950 . S
C1576 H1558 0.951 . S
C1576 C1577 1.366 . S
C1576 C1578 1.388 . S
C1577 C1576 1.366 . S
C1577 C1581 1.385 . S
C1578 H1559 0.951 . S
C1578 C1576 1.388 . S
C1578 C1579 1.366 . S
C1579 C1578 1.366 . S
C1579 C1580 1.414 . S
C1579 C1582 1.499 . S
C1580 H1560 0.950 . S
C1580 C1579 1.414 . S
C1580 C1581 1.374 . S
C1581 H1561 0.950 . S
C1581 C1577 1.385 . S
C1581 C1580 1.374 . S
C1582 C1579 1.499 . S
C1582 C1583 1.373 . S
C1582 C1584 1.389 . S
C1583 H1562 0.950 . S
C1583 C1582 1.373 . S
C1583 C1599 1.377 . S
C1584 C1582 1.389 . S
C1584 C1585 1.524 . S
C1584 C1598 1.377 . S
C1585 C1584 1.524 . S
C1585 C1586 1.397 . S
C1585 C1590 1.363 . S
C1586 H1563 0.950 . S
C1586 C1585 1.397 . S
C1586 C1587 1.334 . S
C1587 H1564 0.950 . S
C1587 C1586 1.334 . S
C1587 C1588 1.287 . S
C1588 C1587 1.287 . S
C1588 C1589 1.524 . S
C1588 H1607 0.913 . S
C1589 H1565 0.950 . S
C1589 C1588 1.524 . S
C1589 C1590 1.415 . S
C1590 H1566 0.950 . S
C1590 C1585 1.363 . S
C1590 C1589 1.415 . S
C1591 H1567 0.951 . S
C1591 C1592 1.366 . S
C1591 C1593 1.388 . S
C1592 C1591 1.366 . S
C1592 C1596 1.385 . S
C1593 H1568 0.951 . S
C1593 C1591 1.388 . S
C1593 C1594 1.366 . S
C1594 C1593 1.366 . S
C1594 C1595 1.414 . S
C1594 C1597 1.499 . S
C1595 H1569 0.950 . S
C1595 C1594 1.414 . S
C1595 C1596 1.374 . S
C1596 H1570 0.950 . S
C1596 C1592 1.385 . S
C1596 C1595 1.374 . S
C1597 C1594 1.499 . S
C1597 C1598 1.373 . S
C1597 C1599 1.389 . S
C1598 H1571 0.950 . S
C1598 C1584 1.377 . S
C1598 C1597 1.373 . S
C1599 C1583 1.377 . S
C1599 C1597 1.389 . S
C1599 C1600 1.524 . S
C1600 C1599 1.524 . S
C1600 C1601 1.397 . S
C1600 C1605 1.363 . S
C1601 H1572 0.950 . S
C1601 C1600 1.397 . S
C1601 C1602 1.334 . S
C1602 H1573 0.950 . S
C1602 C1601 1.334 . S
C1602 C1603 1.287 . S
C1603 C1602 1.287 . S
C1603 C1604 1.524 . S
C1603 H1606 0.999 . S
C1604 H1574 0.950 . S
C1604 C1603 1.524 . S
C1604 C1605 1.415 . S
C1605 H1575 0.950 . S
C1605 C1600 1.363 . S
C1605 C1604 1.415 . S
H1606 C1603 0.999 . S
H1607 C1588 0.913 . S
H1608 C1626 0.951 . S
H1609 C1628 0.951 . S
H1610 C1630 0.950 . S
H1611 C1631 0.950 . S
H1612 C1633 0.950 . S
H1613 C1636 0.950 . S
H1614 C1637 0.950 . S
H1615 C1639 0.950 . S
H1616 C1640 0.950 . S
H1617 C1641 0.951 . S
H1618 C1643 0.951 . S
H1619 C1645 0.950 . S
H1620 C1646 0.950 . S
H1621 C1648 0.950 . S
H1622 C1651 0.950 . S
H1623 C1652 0.950 . S
H1624 C1654 0.950 . S
H1625 C1655 0.950 . S
C1626 H1608 0.951 . S
C1626 C1627 1.366 . S
C1626 C1628 1.388 . S
C1627 C1626 1.366 . S
C1627 C1631 1.385 . S
C1628 H1609 0.951 . S
C1628 C1626 1.388 . S
C1628 C1629 1.366 . S
C1629 C1628 1.366 . S
C1629 C1630 1.414 . S
C1629 C1632 1.499 . S
C1630 H1610 0.950 . S
C1630 C1629 1.414 . S
C1630 C1631 1.374 . S
C1631 H1611 0.950 . S
C1631 C1627 1.385 . S
C1631 C1630 1.374 . S
C1632 C1629 1.499 . S
C1632 C1633 1.373 . S
C1632 C1634 1.389 . S
C1633 H1612 0.950 . S
C1633 C1632 1.373 . S
C1633 C1649 1.377 . S
C1634 C1632 1.389 . S
C1634 C1635 1.524 . S
C1634 C1648 1.377 . S
C1635 C1634 1.524 . S
C1635 C1636 1.397 . S
C1635 C1640 1.363 . S
C1636 H1613 0.950 . S
C1636 C1635 1.397 . S
C1636 C1637 1.334 . S
C1637 H1614 0.950 . S
C1637 C1636 1.334 . S
C1637 C1638 1.287 . S
C1638 C1637 1.287 . S
C1638 C1639 1.524 . S
C1638 H1657 0.913 . S
C1639 H1615 0.950 . S
C1639 C1638 1.524 . S
C1639 C1640 1.415 . S
C1640 H1616 0.950 . S
C1640 C1635 1.363 . S
C1640 C1639 1.415 . S
C1641 H1617 0.951 . S
C1641 C1642 1.366 . S
C1641 C1643 1.388 . S
C1642 C1641 1.366 . S
C1642 C1646 1.385 . S
C1643 H1618 0.951 . S
C1643 C1641 1.388 . S
C1643 C1644 1.366 . S
C1644 C1643 1.366 . S
C1644 C1645 1.414 . S
C1644 C1647 1.499 . S
C1645 H1619 0.950 . S
C1645 C1644 1.414 . S
C1645 C1646 1.374 . S
C1646 H1620 0.950 . S
C1646 C1642 1.385 . S
C1646 C1645 1.374 . S
C1647 C1644 1.499 . S
C1647 C1648 1.373 . S
C1647 C1649 1.389 . S
C1648 H1621 0.950 . S
C1648 C1634 1.377 . S
C1648 C1647 1.373 . S
C1649 C1633 1.377 . S
C1649 C1647 1.389 . S
C1649 C1650 1.524 . S
C1650 C1649 1.524 . S
C1650 C1651 1.397 . S
C1650 C1655 1.363 . S
C1651 H1622 0.950 . S
C1651 C1650 1.397 . S
C1651 C1652 1.334 . S
C1652 H1623 0.950 . S
C1652 C1651 1.334 . S
C1652 C1653 1.287 . S
C1653 C1652 1.287 . S
C1653 C1654 1.524 . S
C1653 H1656 0.999 . S
C1654 H1624 0.950 . S
C1654 C1653 1.524 . S
C1654 C1655 1.415 . S
C1655 H1625 0.950 . S
C1655 C1650 1.363 . S
C1655 C1654 1.415 . S
H1656 C1653 0.999 . S
H1657 C1638 0.913 . S
H1658 C1676 0.951 . S
H1659 C1678 0.951 . S
H1660 C1680 0.950 . S
H1661 C1681 0.950 . S
H1662 C1683 0.950 . S
H1663 C1686 0.950 . S
H1664 C1687 0.950 . S
H1665 C1689 0.950 . S
H1666 C1690 0.950 . S
H1667 C1691 0.951 . S
H1668 C1693 0.951 . S
H1669 C1695 0.950 . S
H1670 C1696 0.950 . S
H1671 C1698 0.950 . S
H1672 C1701 0.950 . S
H1673 C1702 0.950 . S
H1674 C1704 0.950 . S
H1675 C1705 0.950 . S
C1676 H1658 0.951 . S
C1676 C1677 1.366 . S
C1676 C1678 1.388 . S
C1677 C1676 1.366 . S
C1677 C1681 1.385 . S
C1678 H1659 0.951 . S
C1678 C1676 1.388 . S
C1678 C1679 1.366 . S
C1679 C1678 1.366 . S
C1679 C1680 1.414 . S
C1679 C1682 1.499 . S
C1680 H1660 0.950 . S
C1680 C1679 1.414 . S
C1680 C1681 1.374 . S
C1681 H1661 0.950 . S
C1681 C1677 1.385 . S
C1681 C1680 1.374 . S
C1682 C1679 1.499 . S
C1682 C1683 1.373 . S
C1682 C1684 1.389 . S
C1683 H1662 0.950 . S
C1683 C1682 1.373 . S
C1683 C1699 1.377 . S
C1684 C1682 1.389 . S
C1684 C1685 1.524 . S
C1684 C1698 1.377 . S
C1685 C1684 1.524 . S
C1685 C1686 1.397 . S
C1685 C1690 1.363 . S
C1686 H1663 0.950 . S
C1686 C1685 1.397 . S
C1686 C1687 1.334 . S
C1687 H1664 0.950 . S
C1687 C1686 1.334 . S
C1687 C1688 1.287 . S
C1688 C1687 1.287 . S
C1688 C1689 1.524 . S
C1688 H1707 0.913 . S
C1689 H1665 0.950 . S
C1689 C1688 1.524 . S
C1689 C1690 1.415 . S
C1690 H1666 0.950 . S
C1690 C1685 1.363 . S
C1690 C1689 1.415 . S
C1691 H1667 0.951 . S
C1691 C1692 1.366 . S
C1691 C1693 1.388 . S
C1692 C1691 1.366 . S
C1692 C1696 1.385 . S
C1693 H1668 0.951 . S
C1693 C1691 1.388 . S
C1693 C1694 1.366 . S
C1694 C1693 1.366 . S
C1694 C1695 1.414 . S
C1694 C1697 1.499 . S
C1695 H1669 0.950 . S
C1695 C1694 1.414 . S
C1695 C1696 1.374 . S
C1696 H1670 0.950 . S
C1696 C1692 1.385 . S
C1696 C1695 1.374 . S
C1697 C1694 1.499 . S
C1697 C1698 1.373 . S
C1697 C1699 1.389 . S
C1698 H1671 0.950 . S
C1698 C1684 1.377 . S
C1698 C1697 1.373 . S
C1699 C1683 1.377 . S
C1699 C1697 1.389 . S
C1699 C1700 1.524 . S
C1700 C1699 1.524 . S
C1700 C1701 1.397 . S
C1700 C1705 1.363 . S
C1701 H1672 0.950 . S
C1701 C1700 1.397 . S
C1701 C1702 1.334 . S
C1702 H1673 0.950 . S
C1702 C1701 1.334 . S
C1702 C1703 1.287 . S
C1703 C1702 1.287 . S
C1703 C1704 1.524 . S
C1703 H1706 0.999 . S
C1704 H1674 0.950 . S
C1704 C1703 1.524 . S
C1704 C1705 1.415 . S
C1705 H1675 0.950 . S
C1705 C1700 1.363 . S
C1705 C1704 1.415 . S
H1706 C1703 0.999 . S
H1707 C1688 0.913 . S
H1708 C1726 0.951 . S
H1709 C1728 0.951 . S
H1710 C1730 0.950 . S
H1711 C1731 0.950 . S
H1712 C1733 0.950 . S
H1713 C1736 0.950 . S
H1714 C1737 0.950 . S
H1715 C1739 0.950 . S
H1716 C1740 0.950 . S
H1717 C1741 0.951 . S
H1718 C1743 0.951 . S
H1719 C1745 0.950 . S
H1720 C1746 0.950 . S
H1721 C1748 0.950 . S
H1722 C1751 0.950 . S
H1723 C1752 0.950 . S
H1724 C1754 0.950 . S
H1725 C1755 0.950 . S
C1726 H1708 0.951 . S
C1726 C1727 1.366 . S
C1726 C1728 1.388 . S
C1727 C1726 1.366 . S
C1727 C1731 1.385 . S
C1728 H1709 0.951 . S
C1728 C1726 1.388 . S
C1728 C1729 1.366 . S
C1729 C1728 1.366 . S
C1729 C1730 1.414 . S
C1729 C1732 1.499 . S
C1730 H1710 0.950 . S
C1730 C1729 1.414 . S
C1730 C1731 1.374 . S
C1731 H1711 0.950 . S
C1731 C1727 1.385 . S
C1731 C1730 1.374 . S
C1732 C1729 1.499 . S
C1732 C1733 1.373 . S
C1732 C1734 1.389 . S
C1733 H1712 0.950 . S
C1733 C1732 1.373 . S
C1733 C1749 1.377 . S
C1734 C1732 1.389 . S
C1734 C1735 1.524 . S
C1734 C1748 1.377 . S
C1735 C1734 1.524 . S
C1735 C1736 1.397 . S
C1735 C1740 1.363 . S
C1736 H1713 0.950 . S
C1736 C1735 1.397 . S
C1736 C1737 1.334 . S
C1737 H1714 0.950 . S
C1737 C1736 1.334 . S
C1737 C1738 1.287 . S
C1738 C1737 1.287 . S
C1738 C1739 1.524 . S
C1738 H1757 0.913 . S
C1739 H1715 0.950 . S
C1739 C1738 1.524 . S
C1739 C1740 1.415 . S
C1740 H1716 0.950 . S
C1740 C1735 1.363 . S
C1740 C1739 1.415 . S
C1741 H1717 0.951 . S
C1741 C1742 1.366 . S
C1741 C1743 1.388 . S
C1742 C1741 1.366 . S
C1742 C1746 1.385 . S
C1743 H1718 0.951 . S
C1743 C1741 1.388 . S
C1743 C1744 1.366 . S
C1744 C1743 1.366 . S
C1744 C1745 1.414 . S
C1744 C1747 1.499 . S
C1745 H1719 0.950 . S
C1745 C1744 1.414 . S
C1745 C1746 1.374 . S
C1746 H1720 0.950 . S
C1746 C1742 1.385 . S
C1746 C1745 1.374 . S
C1747 C1744 1.499 . S
C1747 C1748 1.373 . S
C1747 C1749 1.389 . S
C1748 H1721 0.950 . S
C1748 C1734 1.377 . S
C1748 C1747 1.373 . S
C1749 C1733 1.377 . S
C1749 C1747 1.389 . S
C1749 C1750 1.524 . S
C1750 C1749 1.524 . S
C1750 C1751 1.397 . S
C1750 C1755 1.363 . S
C1751 H1722 0.950 . S
C1751 C1750 1.397 . S
C1751 C1752 1.334 . S
C1752 H1723 0.950 . S
C1752 C1751 1.334 . S
C1752 C1753 1.287 . S
C1753 C1752 1.287 . S
C1753 C1754 1.524 . S
C1753 H1756 0.999 . S
C1754 H1724 0.950 . S
C1754 C1753 1.524 . S
C1754 C1755 1.415 . S
C1755 H1725 0.950 . S
C1755 C1750 1.363 . S
C1755 C1754 1.415 . S
H1756 C1753 0.999 . S
H1757 C1738 0.913 . S
H1758 C1776 0.951 . S
H1759 C1778 0.951 . S
H1760 C1780 0.950 . S
H1761 C1781 0.950 . S
H1762 C1783 0.950 . S
H1763 C1786 0.950 . S
H1764 C1787 0.950 . S
H1765 C1789 0.950 . S
H1766 C1790 0.950 . S
H1767 C1791 0.951 . S
H1768 C1793 0.951 . S
H1769 C1795 0.950 . S
H1770 C1796 0.950 . S
H1771 C1798 0.950 . S
H1772 C1801 0.950 . S
H1773 C1802 0.950 . S
H1774 C1804 0.950 . S
H1775 C1805 0.950 . S
C1776 H1758 0.951 . S
C1776 C1777 1.366 . S
C1776 C1778 1.388 . S
C1777 C1776 1.366 . S
C1777 C1781 1.385 . S
C1778 H1759 0.951 . S
C1778 C1776 1.388 . S
C1778 C1779 1.366 . S
C1779 C1778 1.366 . S
C1779 C1780 1.414 . S
C1779 C1782 1.499 . S
C1780 H1760 0.950 . S
C1780 C1779 1.414 . S
C1780 C1781 1.374 . S
C1781 H1761 0.950 . S
C1781 C1777 1.385 . S
C1781 C1780 1.374 . S
C1782 C1779 1.499 . S
C1782 C1783 1.373 . S
C1782 C1784 1.389 . S
C1783 H1762 0.950 . S
C1783 C1782 1.373 . S
C1783 C1799 1.377 . S
C1784 C1782 1.389 . S
C1784 C1785 1.524 . S
C1784 C1798 1.377 . S
C1785 C1784 1.524 . S
C1785 C1786 1.397 . S
C1785 C1790 1.363 . S
C1786 H1763 0.950 . S
C1786 C1785 1.397 . S
C1786 C1787 1.334 . S
C1787 H1764 0.950 . S
C1787 C1786 1.334 . S
C1787 C1788 1.287 . S
C1788 C1787 1.287 . S
C1788 C1789 1.524 . S
C1788 H1807 0.913 . S
C1789 H1765 0.950 . S
C1789 C1788 1.524 . S
C1789 C1790 1.415 . S
C1790 H1766 0.950 . S
C1790 C1785 1.363 . S
C1790 C1789 1.415 . S
C1791 H1767 0.951 . S
C1791 C1792 1.366 . S
C1791 C1793 1.388 . S
C1792 C1791 1.366 . S
C1792 C1796 1.385 . S
C1793 H1768 0.951 . S
C1793 C1791 1.388 . S
C1793 C1794 1.366 . S
C1794 C1793 1.366 . S
C1794 C1795 1.414 . S
C1794 C1797 1.499 . S
C1795 H1769 0.950 . S
C1795 C1794 1.414 . S
C1795 C1796 1.374 . S
C1796 H1770 0.950 . S
C1796 C1792 1.385 . S
C1796 C1795 1.374 . S
C1797 C1794 1.499 . S
C1797 C1798 1.373 . S
C1797 C1799 1.389 . S
C1798 H1771 0.950 . S
C1798 C1784 1.377 . S
C1798 C1797 1.373 . S
C1799 C1783 1.377 . S
C1799 C1797 1.389 . S
C1799 C1800 1.524 . S
C1800 C1799 1.524 . S
C1800 C1801 1.397 . S
C1800 C1805 1.363 . S
C1801 H1772 0.950 . S
C1801 C1800 1.397 . S
C1801 C1802 1.334 . S
C1802 H1773 0.950 . S
C1802 C1801 1.334 . S
C1802 C1803 1.287 . S
C1803 C1802 1.287 . S
C1803 C1804 1.524 . S
C1803 H1806 0.999 . S
C1804 H1774 0.950 . S
C1804 C1803 1.524 . S
C1804 C1805 1.415 . S
C1805 H1775 0.950 . S
C1805 C1800 1.363 . S
C1805 C1804 1.415 . S
H1806 C1803 0.999 . S
H1807 C1788 0.913 . S
H1808 C1826 0.951 . S
H1809 C1828 0.951 . S
H1810 C1830 0.950 . S
H1811 C1831 0.950 . S
H1812 C1833 0.950 . S
H1813 C1836 0.950 . S
H1814 C1837 0.950 . S
H1815 C1839 0.950 . S
H1816 C1840 0.950 . S
H1817 C1841 0.951 . S
H1818 C1843 0.951 . S
H1819 C1845 0.950 . S
H1820 C1846 0.950 1_554 S
H1821 C1848 0.950 . S
H1822 C1851 0.950 . S
H1823 C1852 0.950 . S
H1824 C1854 0.950 . S
H1825 C1855 0.950 . S
C1826 H1808 0.951 . S
C1826 C1827 1.366 . S
C1826 C1828 1.388 . S
C1827 C1826 1.366 . S
C1827 C1831 1.385 . S
C1828 H1809 0.951 . S
C1828 C1826 1.388 . S
C1828 C1829 1.366 . S
C1829 C1828 1.366 . S
C1829 C1830 1.414 . S
C1829 C1832 1.499 . S
C1830 H1810 0.950 . S
C1830 C1829 1.414 . S
C1830 C1831 1.374 . S
C1831 H1811 0.950 . S
C1831 C1827 1.385 . S
C1831 C1830 1.374 . S
C1832 C1829 1.499 . S
C1832 C1833 1.373 . S
C1832 C1834 1.389 . S
C1833 H1812 0.950 . S
C1833 C1832 1.373 . S
C1833 C1849 1.377 . S
C1834 C1832 1.389 . S
C1834 C1835 1.524 . S
C1834 C1848 1.377 . S
C1835 C1834 1.524 . S
C1835 C1836 1.397 . S
C1835 C1840 1.363 . S
C1836 H1813 0.950 . S
C1836 C1835 1.397 . S
C1836 C1837 1.334 . S
C1837 H1814 0.950 . S
C1837 C1836 1.334 . S
C1837 C1838 1.287 . S
C1838 C1837 1.287 . S
C1838 C1839 1.524 . S
C1838 H1857 0.913 . S
C1839 H1815 0.950 . S
C1839 C1838 1.524 . S
C1839 C1840 1.415 . S
C1840 H1816 0.950 . S
C1840 C1835 1.363 . S
C1840 C1839 1.415 . S
C1841 H1817 0.951 . S
C1841 C1842 1.366 . S
C1841 C1843 1.388 . S
C1842 C1841 1.366 . S
C1842 C1846 1.385 . S
C1843 H1818 0.951 . S
C1843 C1841 1.388 . S
C1843 C1844 1.366 . S
C1844 C1843 1.366 . S
C1844 C1845 1.414 . S
C1844 C1847 1.499 . S
C1845 H1819 0.950 . S
C1845 C1844 1.414 . S
C1845 C1846 1.374 . S
C1846 H1820 0.950 1_556 S
C1846 C1842 1.385 . S
C1846 C1845 1.374 . S
C1847 C1844 1.499 . S
C1847 C1848 1.373 . S
C1847 C1849 1.389 . S
C1848 H1821 0.950 . S
C1848 C1834 1.377 . S
C1848 C1847 1.373 . S
C1849 C1833 1.377 . S
C1849 C1847 1.389 . S
C1849 C1850 1.524 . S
C1850 C1849 1.524 . S
C1850 C1851 1.397 . S
C1850 C1855 1.363 . S
C1851 H1822 0.950 . S
C1851 C1850 1.397 . S
C1851 C1852 1.334 . S
C1852 H1823 0.950 . S
C1852 C1851 1.334 . S
C1852 C1853 1.287 . S
C1853 C1852 1.287 . S
C1853 C1854 1.524 . S
C1853 H1856 0.999 . S
C1854 H1824 0.950 . S
C1854 C1853 1.524 . S
C1854 C1855 1.415 . S
C1855 H1825 0.950 . S
C1855 C1850 1.363 . S
C1855 C1854 1.415 . S
H1856 C1853 0.999 . S
H1857 C1838 0.913 . S
H1858 C1876 0.951 . S
H1859 C1878 0.951 . S
H1860 C1880 0.950 . S
H1861 C1881 0.950 . S
H1862 C1883 0.950 . S
H1863 C1886 0.950 . S
H1864 C1887 0.950 . S
H1865 C1889 0.950 . S
H1866 C1890 0.950 . S
H1867 C1891 0.951 1_545 S
H1868 C1893 0.951 . S
H1869 C1895 0.950 . S
H1870 C1896 0.950 . S
H1871 C1898 0.950 . S
H1872 C1901 0.950 . S
H1873 C1902 0.950 1_554 S
H1874 C1904 0.950 . S
H1875 C1905 0.950 . S
C1876 H1858 0.951 . S
C1876 C1877 1.366 . S
C1876 C1878 1.388 . S
C1877 C1876 1.366 . S
C1877 C1881 1.385 . S
C1878 H1859 0.951 . S
C1878 C1876 1.388 . S
C1878 C1879 1.366 . S
C1879 C1878 1.366 . S
C1879 C1880 1.414 . S
C1879 C1882 1.499 . S
C1880 H1860 0.950 . S
C1880 C1879 1.414 . S
C1880 C1881 1.374 . S
C1881 H1861 0.950 . S
C1881 C1877 1.385 . S
C1881 C1880 1.374 . S
C1882 C1879 1.499 . S
C1882 C1883 1.373 . S
C1882 C1884 1.389 . S
C1883 H1862 0.950 . S
C1883 C1882 1.373 . S
C1883 C1899 1.377 . S
C1884 C1882 1.389 . S
C1884 C1885 1.524 . S
C1884 C1898 1.377 . S
C1885 C1884 1.524 . S
C1885 C1886 1.397 . S
C1885 C1890 1.363 . S
C1886 H1863 0.950 . S
C1886 C1885 1.397 . S
C1886 C1887 1.334 . S
C1887 H1864 0.950 . S
C1887 C1886 1.334 . S
C1887 C1888 1.287 . S
C1888 C1887 1.287 . S
C1888 C1889 1.524 . S
C1888 H1907 0.913 . S
C1889 H1865 0.950 . S
C1889 C1888 1.524 . S
C1889 C1890 1.415 . S
C1890 H1866 0.950 . S
C1890 C1885 1.363 . S
C1890 C1889 1.415 . S
C1891 H1867 0.951 1_565 S
C1891 C1892 1.366 . S
C1891 C1893 1.388 . S
C1892 C1891 1.366 . S
C1892 C1896 1.385 . S
C1893 H1868 0.951 . S
C1893 C1891 1.388 . S
C1893 C1894 1.366 . S
C1894 C1893 1.366 . S
C1894 C1895 1.414 . S
C1894 C1897 1.499 . S
C1895 H1869 0.950 . S
C1895 C1894 1.414 . S
C1895 C1896 1.374 . S
C1896 H1870 0.950 . S
C1896 C1892 1.385 . S
C1896 C1895 1.374 . S
C1897 C1894 1.499 . S
C1897 C1898 1.373 . S
C1897 C1899 1.389 . S
C1898 H1871 0.950 . S
C1898 C1884 1.377 . S
C1898 C1897 1.373 . S
C1899 C1883 1.377 . S
C1899 C1897 1.389 . S
C1899 C1900 1.524 . S
C1900 C1899 1.524 . S
C1900 C1901 1.397 . S
C1900 C1905 1.363 . S
C1901 H1872 0.950 . S
C1901 C1900 1.397 . S
C1901 C1902 1.334 . S
C1902 H1873 0.950 1_556 S
C1902 C1901 1.334 . S
C1902 C1903 1.279 1_556 S
C1903 C1902 1.279 1_554 S
C1903 C1904 1.498 1_554 S
C1903 H1906 1.037 . S
C1904 H1874 0.950 . S
C1904 C1903 1.498 1_556 S
C1904 C1905 1.415 . S
C1905 H1875 0.950 . S
C1905 C1900 1.363 . S
C1905 C1904 1.415 . S
H1906 C1903 1.037 . S
H1907 C1888 0.913 . S
H1908 C1926 0.951 . S
H1909 C1928 0.951 . S
H1910 C1930 0.950 . S
H1911 C1931 0.950 . S
H1912 C1933 0.950 . S
H1913 C1936 0.950 . S
H1914 C1937 0.950 . S
H1915 C1939 0.950 . S
H1916 C1940 0.950 . S
H1917 C1941 0.951 . S
H1918 C1943 0.951 . S
H1919 C1945 0.950 . S
H1920 C1946 0.950 . S
H1921 C1948 0.950 . S
H1922 C1951 0.950 . S
H1923 C1952 0.950 . S
H1924 C1954 0.950 . S
H1925 C1955 0.950 . S
C1926 H1908 0.951 . S
C1926 C1927 1.366 . S
C1926 C1928 1.388 . S
C1927 C1926 1.366 . S
C1927 C1931 1.385 . S
C1928 H1909 0.951 . S
C1928 C1926 1.388 . S
C1928 C1929 1.366 . S
C1929 C1928 1.366 . S
C1929 C1930 1.414 . S
C1929 C1932 1.499 . S
C1930 H1910 0.950 . S
C1930 C1929 1.414 . S
C1930 C1931 1.374 . S
C1931 H1911 0.950 . S
C1931 C1927 1.385 . S
C1931 C1930 1.374 . S
C1932 C1929 1.499 . S
C1932 C1933 1.373 . S
C1932 C1934 1.389 . S
C1933 H1912 0.950 . S
C1933 C1932 1.373 . S
C1933 C1949 1.377 . S
C1934 C1932 1.389 . S
C1934 C1935 1.524 . S
C1934 C1948 1.377 . S
C1935 C1934 1.524 . S
C1935 C1936 1.397 . S
C1935 C1940 1.363 . S
C1936 H1913 0.950 . S
C1936 C1935 1.397 . S
C1936 C1937 1.334 . S
C1937 H1914 0.950 . S
C1937 C1936 1.334 . S
C1937 C1938 1.287 . S
C1938 C1937 1.287 . S
C1938 C1939 1.524 . S
C1938 H1957 0.913 . S
C1939 H1915 0.950 . S
C1939 C1938 1.524 . S
C1939 C1940 1.415 . S
C1940 H1916 0.950 . S
C1940 C1935 1.363 . S
C1940 C1939 1.415 . S
C1941 H1917 0.951 . S
C1941 C1942 1.366 . S
C1941 C1943 1.388 . S
C1942 C1941 1.366 . S
C1942 C1946 1.385 . S
C1943 H1918 0.951 . S
C1943 C1941 1.388 . S
C1943 C1944 1.366 . S
C1944 C1943 1.366 . S
C1944 C1945 1.414 . S
C1944 C1947 1.499 . S
C1945 H1919 0.950 . S
C1945 C1944 1.414 . S
C1945 C1946 1.374 . S
C1946 H1920 0.950 . S
C1946 C1942 1.385 . S
C1946 C1945 1.374 . S
C1947 C1944 1.499 . S
C1947 C1948 1.373 . S
C1947 C1949 1.389 . S
C1948 H1921 0.950 . S
C1948 C1934 1.377 . S
C1948 C1947 1.373 . S
C1949 C1933 1.377 . S
C1949 C1947 1.389 . S
C1949 C1950 1.524 . S
C1950 C1949 1.524 . S
C1950 C1951 1.397 . S
C1950 C1955 1.363 . S
C1951 H1922 0.950 . S
C1951 C1950 1.397 . S
C1951 C1952 1.334 . S
C1952 H1923 0.950 . S
C1952 C1951 1.334 . S
C1952 C1953 1.287 . S
C1953 C1952 1.287 . S
C1953 C1954 1.524 . S
C1953 H1956 0.999 . S
C1954 H1924 0.950 . S
C1954 C1953 1.524 . S
C1954 C1955 1.415 . S
C1955 H1925 0.950 . S
C1955 C1950 1.363 . S
C1955 C1954 1.415 . S
H1956 C1953 0.999 . S
H1957 C1938 0.913 . S
H1958 C1976 0.951 . S
H1959 C1978 0.951 . S
H1960 C1980 0.950 . S
H1961 C1981 0.950 . S
H1962 C1983 0.950 . S
H1963 C1986 0.950 . S
H1964 C1987 0.950 . S
H1965 C1989 0.950 . S
H1966 C1990 0.950 . S
H1967 C1991 0.951 . S
H1968 C1993 0.951 . S
H1969 C1995 0.950 . S
H1970 C1996 0.950 . S
H1971 C1998 0.950 . S
H1972 C2001 0.950 . S
H1973 C2002 0.950 . S
H1974 C2004 0.950 . S
H1975 C2005 0.950 . S
C1976 H1958 0.951 . S
C1976 C1977 1.366 . S
C1976 C1978 1.388 . S
C1977 C1976 1.366 . S
C1977 C1981 1.385 . S
C1978 H1959 0.951 . S
C1978 C1976 1.388 . S
C1978 C1979 1.366 . S
C1979 C1978 1.366 . S
C1979 C1980 1.414 . S
C1979 C1982 1.499 . S
C1980 H1960 0.950 . S
C1980 C1979 1.414 . S
C1980 C1981 1.374 . S
C1981 H1961 0.950 . S
C1981 C1977 1.385 . S
C1981 C1980 1.374 . S
C1982 C1979 1.499 . S
C1982 C1983 1.373 . S
C1982 C1984 1.389 . S
C1983 H1962 0.950 . S
C1983 C1982 1.373 . S
C1983 C1999 1.377 . S
C1984 C1982 1.389 . S
C1984 C1985 1.524 . S
C1984 C1998 1.377 . S
C1985 C1984 1.524 . S
C1985 C1986 1.397 . S
C1985 C1990 1.363 . S
C1986 H1963 0.950 . S
C1986 C1985 1.397 . S
C1986 C1987 1.334 . S
C1987 H1964 0.950 . S
C1987 C1986 1.334 . S
C1987 C1988 1.287 . S
C1988 C1987 1.287 . S
C1988 C1989 1.524 . S
C1988 H2007 0.913 . S
C1989 H1965 0.950 . S
C1989 C1988 1.524 . S
C1989 C1990 1.415 . S
C1990 H1966 0.950 . S
C1990 C1985 1.363 . S
C1990 C1989 1.415 . S
C1991 H1967 0.951 . S
C1991 C1992 1.366 . S
C1991 C1993 1.388 . S
C1992 C1991 1.366 . S
C1992 C1996 1.385 . S
C1993 H1968 0.951 . S
C1993 C1991 1.388 . S
C1993 C1994 1.366 . S
C1994 C1993 1.366 . S
C1994 C1995 1.414 . S
C1994 C1997 1.499 . S
C1995 H1969 0.950 . S
C1995 C1994 1.414 . S
C1995 C1996 1.374 . S
C1996 H1970 0.950 . S
C1996 C1992 1.385 . S
C1996 C1995 1.374 . S
C1997 C1994 1.499 . S
C1997 C1998 1.373 . S
C1997 C1999 1.389 . S
C1998 H1971 0.950 . S
C1998 C1984 1.377 . S
C1998 C1997 1.373 . S
C1999 C1983 1.377 . S
C1999 C1997 1.389 . S
C1999 C2000 1.524 . S
C2000 C1999 1.524 . S
C2000 C2001 1.397 . S
C2000 C2005 1.363 . S
C2001 H1972 0.950 . S
C2001 C2000 1.397 . S
C2001 C2002 1.334 . S
C2002 H1973 0.950 . S
C2002 C2001 1.334 . S
C2002 C2003 1.287 . S
C2003 C2002 1.287 . S
C2003 C2004 1.524 . S
C2003 H2006 0.999 . S
C2004 H1974 0.950 . S
C2004 C2003 1.524 . S
C2004 C2005 1.415 . S
C2005 H1975 0.950 . S
C2005 C2000 1.363 . S
C2005 C2004 1.415 . S
H2006 C2003 0.999 . S
H2007 C1988 0.913 . S
H2008 C2026 0.951 . S
H2009 C2028 0.951 . S
H2010 C2030 0.950 . S
H2011 C2031 0.950 . S
H2012 C2033 0.950 . S
H2013 C2036 0.950 . S
H2014 C2037 0.950 . S
H2015 C2039 0.950 . S
H2016 C2040 0.950 . S
H2017 C2041 0.951 . S
H2018 C2043 0.951 . S
H2019 C2045 0.950 . S
H2020 C2046 0.950 . S
H2021 C2048 0.950 . S
H2022 C2051 0.950 . S
H2023 C2052 0.950 . S
H2024 C2054 0.950 . S
H2025 C2055 0.950 . S
C2026 H2008 0.951 . S
C2026 C2027 1.366 . S
C2026 C2028 1.388 . S
C2027 C2026 1.366 . S
C2027 C2031 1.385 . S
C2028 H2009 0.951 . S
C2028 C2026 1.388 . S
C2028 C2029 1.366 . S
C2029 C2028 1.366 . S
C2029 C2030 1.414 . S
C2029 C2032 1.499 . S
C2030 H2010 0.950 . S
C2030 C2029 1.414 . S
C2030 C2031 1.374 . S
C2031 H2011 0.950 . S
C2031 C2027 1.385 . S
C2031 C2030 1.374 . S
C2032 C2029 1.499 . S
C2032 C2033 1.373 . S
C2032 C2034 1.389 . S
C2033 H2012 0.950 . S
C2033 C2032 1.373 . S
C2033 C2049 1.377 . S
C2034 C2032 1.389 . S
C2034 C2035 1.524 . S
C2034 C2048 1.377 . S
C2035 C2034 1.524 . S
C2035 C2036 1.397 . S
C2035 C2040 1.363 . S
C2036 H2013 0.950 . S
C2036 C2035 1.397 . S
C2036 C2037 1.334 . S
C2037 H2014 0.950 . S
C2037 C2036 1.334 . S
C2037 C2038 1.287 . S
C2038 C2037 1.287 . S
C2038 C2039 1.524 . S
C2038 H2057 0.913 . S
C2039 H2015 0.950 . S
C2039 C2038 1.524 . S
C2039 C2040 1.415 . S
C2040 H2016 0.950 . S
C2040 C2035 1.363 . S
C2040 C2039 1.415 . S
C2041 H2017 0.951 . S
C2041 C2042 1.366 . S
C2041 C2043 1.388 . S
C2042 C2041 1.366 . S
C2042 C2046 1.385 . S
C2043 H2018 0.951 . S
C2043 C2041 1.388 . S
C2043 C2044 1.366 . S
C2044 C2043 1.366 . S
C2044 C2045 1.414 . S
C2044 C2047 1.499 . S
C2045 H2019 0.950 . S
C2045 C2044 1.414 . S
C2045 C2046 1.374 . S
C2046 H2020 0.950 . S
C2046 C2042 1.385 . S
C2046 C2045 1.374 . S
C2047 C2044 1.499 . S
C2047 C2048 1.373 . S
C2047 C2049 1.389 . S
C2048 H2021 0.950 . S
C2048 C2034 1.377 . S
C2048 C2047 1.373 . S
C2049 C2033 1.377 . S
C2049 C2047 1.389 . S
C2049 C2050 1.524 . S
C2050 C2049 1.524 . S
C2050 C2051 1.397 . S
C2050 C2055 1.363 . S
C2051 H2022 0.950 . S
C2051 C2050 1.397 . S
C2051 C2052 1.334 . S
C2052 H2023 0.950 . S
C2052 C2051 1.334 . S
C2052 C2053 1.287 . S
C2053 C2052 1.287 . S
C2053 C2054 1.524 . S
C2053 H2056 0.999 . S
C2054 H2024 0.950 . S
C2054 C2053 1.524 . S
C2054 C2055 1.415 . S
C2055 H2025 0.950 . S
C2055 C2050 1.363 . S
C2055 C2054 1.415 . S
H2056 C2053 0.999 . S
H2057 C2038 0.913 . S
H2058 C2076 0.951 . S
H2059 C2078 0.951 . S
H2060 C2080 0.950 . S
H2061 C2081 0.950 . S
H2062 C2083 0.950 . S
H2063 C2086 0.950 . S
H2064 C2087 0.950 . S
H2065 C2089 0.950 . S
H2066 C2090 0.950 . S
H2067 C2091 0.951 . S
H2068 C2093 0.951 . S
H2069 C2095 0.950 . S
H2070 C2096 0.950 . S
H2071 C2098 0.950 . S
H2072 C2101 0.950 . S
H2073 C2102 0.950 . S
H2074 C2104 0.950 . S
H2075 C2105 0.950 . S
C2076 H2058 0.951 . S
C2076 C2077 1.366 . S
C2076 C2078 1.388 . S
C2077 C2076 1.366 . S
C2077 C2081 1.385 . S
C2078 H2059 0.951 . S
C2078 C2076 1.388 . S
C2078 C2079 1.366 . S
C2079 C2078 1.366 . S
C2079 C2080 1.414 . S
C2079 C2082 1.499 . S
C2080 H2060 0.950 . S
C2080 C2079 1.414 . S
C2080 C2081 1.374 . S
C2081 H2061 0.950 . S
C2081 C2077 1.385 . S
C2081 C2080 1.374 . S
C2082 C2079 1.499 . S
C2082 C2083 1.373 . S
C2082 C2084 1.389 . S
C2083 H2062 0.950 . S
C2083 C2082 1.373 . S
C2083 C2099 1.377 . S
C2084 C2082 1.389 . S
C2084 C2085 1.524 . S
C2084 C2098 1.377 . S
C2085 C2084 1.524 . S
C2085 C2086 1.397 . S
C2085 C2090 1.363 . S
C2086 H2063 0.950 . S
C2086 C2085 1.397 . S
C2086 C2087 1.334 . S
C2087 H2064 0.950 . S
C2087 C2086 1.334 . S
C2087 C2088 1.287 . S
C2088 C2087 1.287 . S
C2088 C2089 1.524 . S
C2088 H2107 0.913 . S
C2089 H2065 0.950 . S
C2089 C2088 1.524 . S
C2089 C2090 1.415 . S
C2090 H2066 0.950 . S
C2090 C2085 1.363 . S
C2090 C2089 1.415 . S
C2091 H2067 0.951 . S
C2091 C2092 1.366 . S
C2091 C2093 1.388 . S
C2092 C2091 1.366 . S
C2092 C2096 1.385 . S
C2093 H2068 0.951 . S
C2093 C2091 1.388 . S
C2093 C2094 1.366 . S
C2094 C2093 1.366 . S
C2094 C2095 1.414 . S
C2094 C2097 1.499 . S
C2095 H2069 0.950 . S
C2095 C2094 1.414 . S
C2095 C2096 1.374 . S
C2096 H2070 0.950 . S
C2096 C2092 1.385 . S
C2096 C2095 1.374 . S
C2097 C2094 1.499 . S
C2097 C2098 1.373 . S
C2097 C2099 1.389 . S
C2098 H2071 0.950 . S
C2098 C2084 1.377 . S
C2098 C2097 1.373 . S
C2099 C2083 1.377 . S
C2099 C2097 1.389 . S
C2099 C2100 1.524 . S
C2100 C2099 1.524 . S
C2100 C2101 1.397 . S
C2100 C2105 1.363 . S
C2101 H2072 0.950 . S
C2101 C2100 1.397 . S
C2101 C2102 1.334 . S
C2102 H2073 0.950 . S
C2102 C2101 1.334 . S
C2102 C2103 1.287 . S
C2103 C2102 1.287 . S
C2103 C2104 1.524 . S
C2103 H2106 0.999 . S
C2104 H2074 0.950 . S
C2104 C2103 1.524 . S
C2104 C2105 1.415 . S
C2105 H2075 0.950 . S
C2105 C2100 1.363 . S
C2105 C2104 1.415 . S
H2106 C2103 0.999 . S
H2107 C2088 0.913 . S
H2108 C2126 0.951 . S
H2109 C2128 0.951 . S
H2110 C2130 0.950 . S
H2111 C2131 0.950 . S
H2112 C2133 0.950 . S
H2113 C2136 0.950 . S
H2114 C2137 0.950 . S
H2115 C2139 0.950 . S
H2116 C2140 0.950 . S
H2117 C2141 0.951 1_554 S
H2118 C2143 0.951 . S
H2119 C2145 0.950 . S
H2120 C2146 0.950 . S
H2121 C2148 0.950 . S
H2122 C2151 0.950 . S
H2123 C2152 0.950 . S
H2124 C2154 0.950 . S
H2125 C2155 0.950 . S
C2126 H2108 0.951 . S
C2126 C2127 1.366 . S
C2126 C2128 1.388 . S
C2127 C2126 1.366 . S
C2127 C2131 1.385 . S
C2128 H2109 0.951 . S
C2128 C2126 1.388 . S
C2128 C2129 1.366 . S
C2129 C2128 1.366 . S
C2129 C2130 1.414 . S
C2129 C2132 1.499 . S
C2130 H2110 0.950 . S
C2130 C2129 1.414 . S
C2130 C2131 1.374 . S
C2131 H2111 0.950 . S
C2131 C2127 1.385 . S
C2131 C2130 1.374 . S
C2132 C2129 1.499 . S
C2132 C2133 1.373 . S
C2132 C2134 1.389 . S
C2133 H2112 0.950 . S
C2133 C2132 1.373 . S
C2133 C2149 1.377 . S
C2134 C2132 1.389 . S
C2134 C2135 1.524 . S
C2134 C2148 1.377 . S
C2135 C2134 1.524 . S
C2135 C2136 1.397 . S
C2135 C2140 1.363 . S
C2136 H2113 0.950 . S
C2136 C2135 1.397 . S
C2136 C2137 1.334 . S
C2137 H2114 0.950 . S
C2137 C2136 1.334 . S
C2137 C2138 1.287 . S
C2138 C2137 1.287 . S
C2138 C2139 1.524 . S
C2138 H2157 0.913 . S
C2139 H2115 0.950 . S
C2139 C2138 1.524 . S
C2139 C2140 1.415 . S
C2140 H2116 0.950 . S
C2140 C2135 1.363 . S
C2140 C2139 1.415 . S
C2141 H2117 0.951 1_556 S
C2141 C2142 1.366 . S
C2141 C2143 1.388 . S
C2142 C2141 1.366 . S
C2142 C2146 1.385 . S
C2143 H2118 0.951 . S
C2143 C2141 1.388 . S
C2143 C2144 1.366 . S
C2144 C2143 1.366 . S
C2144 C2145 1.414 . S
C2144 C2147 1.499 . S
C2145 H2119 0.950 . S
C2145 C2144 1.414 . S
C2145 C2146 1.374 . S
C2146 H2120 0.950 . S
C2146 C2142 1.385 . S
C2146 C2145 1.374 . S
C2147 C2144 1.499 . S
C2147 C2148 1.373 . S
C2147 C2149 1.389 . S
C2148 H2121 0.950 . S
C2148 C2134 1.377 . S
C2148 C2147 1.373 . S
C2149 C2133 1.377 . S
C2149 C2147 1.389 . S
C2149 C2150 1.524 . S
C2150 C2149 1.524 . S
C2150 C2151 1.397 . S
C2150 C2155 1.363 . S
C2151 H2122 0.950 . S
C2151 C2150 1.397 . S
C2151 C2152 1.334 . S
C2152 H2123 0.950 . S
C2152 C2151 1.334 . S
C2152 C2153 1.287 1_556 S
C2153 C2152 1.287 1_554 S
C2153 C2154 1.524 . S
C2153 H2156 0.999 . S
C2154 H2124 0.950 . S
C2154 C2153 1.524 . S
C2154 C2155 1.415 1_554 S
C2155 H2125 0.950 . S
C2155 C2150 1.363 . S
C2155 C2154 1.415 1_556 S
H2156 C2153 0.999 . S
H2157 C2138 0.913 . S
H2158 C2176 0.951 . S
H2159 C2178 0.951 . S
H2160 C2180 0.950 . S
H2161 C2181 0.950 . S
H2162 C2183 0.950 . S
H2163 C2186 0.950 . S
H2164 C2187 0.950 . S
H2165 C2189 0.950 . S
H2166 C2190 0.950 . S
H2167 C2191 0.951 . S
H2168 C2193 0.951 . S
H2169 C2195 0.950 . S
H2170 C2196 0.950 . S
H2171 C2198 0.950 . S
H2172 C2201 0.950 . S
H2173 C2202 0.950 . S
H2174 C2204 0.950 . S
H2175 C2205 0.950 . S
C2176 H2158 0.951 . S
C2176 C2177 1.366 . S
C2176 C2178 1.388 . S
C2177 C2176 1.366 . S
C2177 C2181 1.385 . S
C2178 H2159 0.951 . S
C2178 C2176 1.388 . S
C2178 C2179 1.366 . S
C2179 C2178 1.366 . S
C2179 C2180 1.414 . S
C2179 C2182 1.499 . S
C2180 H2160 0.950 . S
C2180 C2179 1.414 . S
C2180 C2181 1.374 . S
C2181 H2161 0.950 . S
C2181 C2177 1.385 . S
C2181 C2180 1.374 . S
C2182 C2179 1.499 . S
C2182 C2183 1.373 . S
C2182 C2184 1.389 . S
C2183 H2162 0.950 . S
C2183 C2182 1.373 . S
C2183 C2199 1.377 . S
C2184 C2182 1.389 . S
C2184 C2185 1.524 . S
C2184 C2198 1.377 . S
C2185 C2184 1.524 . S
C2185 C2186 1.397 . S
C2185 C2190 1.363 . S
C2186 H2163 0.950 . S
C2186 C2185 1.397 . S
C2186 C2187 1.334 . S
C2187 H2164 0.950 . S
C2187 C2186 1.334 . S
C2187 C2188 1.287 . S
C2188 C2187 1.287 . S
C2188 C2189 1.524 . S
C2188 H2207 0.913 . S
C2189 H2165 0.950 . S
C2189 C2188 1.524 . S
C2189 C2190 1.415 . S
C2190 H2166 0.950 . S
C2190 C2185 1.363 . S
C2190 C2189 1.415 . S
C2191 H2167 0.951 . S
C2191 C2192 1.366 . S
C2191 C2193 1.388 . S
C2192 C2191 1.366 . S
C2192 C2196 1.385 . S
C2193 H2168 0.951 . S
C2193 C2191 1.388 . S
C2193 C2194 1.366 . S
C2194 C2193 1.366 . S
C2194 C2195 1.414 . S
C2194 C2197 1.499 . S
C2195 H2169 0.950 . S
C2195 C2194 1.414 . S
C2195 C2196 1.374 . S
C2196 H2170 0.950 . S
C2196 C2192 1.385 . S
C2196 C2195 1.374 . S
C2197 C2194 1.499 . S
C2197 C2198 1.373 . S
C2197 C2199 1.389 . S
C2198 H2171 0.950 . S
C2198 C2184 1.377 . S
C2198 C2197 1.373 . S
C2199 C2183 1.377 . S
C2199 C2197 1.389 . S
C2199 C2200 1.524 . S
C2200 C2199 1.524 . S
C2200 C2201 1.397 . S
C2200 C2205 1.363 . S
C2201 H2172 0.950 . S
C2201 C2200 1.397 . S
C2201 C2202 1.334 . S
C2202 H2173 0.950 . S
C2202 C2201 1.334 . S
C2202 C2203 1.287 . S
C2203 C2202 1.287 . S
C2203 C2204 1.524 . S
C2203 H2206 0.999 . S
C2204 H2174 0.950 . S
C2204 C2203 1.524 . S
C2204 C2205 1.415 . S
C2205 H2175 0.950 . S
C2205 C2200 1.363 . S
C2205 C2204 1.415 . S
H2206 C2203 0.999 . S
H2207 C2188 0.913 . S
H2208 C2226 0.951 . S
H2209 C2228 0.951 . S
H2210 C2230 0.950 . S
H2211 C2231 0.950 . S
H2212 C2233 0.950 . S
H2213 C2236 0.950 . S
H2214 C2237 0.950 . S
H2215 C2239 0.950 . S
H2216 C2240 0.950 . S
H2217 C2241 0.951 . S
H2218 C2243 0.951 . S
H2219 C2245 0.950 . S
H2220 C2246 0.950 . S
H2221 C2248 0.950 . S
H2222 C2251 0.950 . S
H2223 C2252 0.950 . S
H2224 C2254 0.950 . S
H2225 C2255 0.950 . S
C2226 H2208 0.951 . S
C2226 C2227 1.366 . S
C2226 C2228 1.388 . S
C2227 C2226 1.366 . S
C2227 C2231 1.385 . S
C2228 H2209 0.951 . S
C2228 C2226 1.388 . S
C2228 C2229 1.366 . S
C2229 C2228 1.366 . S
C2229 C2230 1.414 . S
C2229 C2232 1.499 . S
C2230 H2210 0.950 . S
C2230 C2229 1.414 . S
C2230 C2231 1.374 . S
C2231 H2211 0.950 . S
C2231 C2227 1.385 . S
C2231 C2230 1.374 . S
C2232 C2229 1.499 . S
C2232 C2233 1.373 . S
C2232 C2234 1.389 . S
C2233 H2212 0.950 . S
C2233 C2232 1.373 . S
C2233 C2249 1.377 . S
C2234 C2232 1.389 . S
C2234 C2235 1.524 . S
C2234 C2248 1.377 . S
C2235 C2234 1.524 . S
C2235 C2236 1.397 . S
C2235 C2240 1.363 . S
C2236 H2213 0.950 . S
C2236 C2235 1.397 . S
C2236 C2237 1.334 . S
C2237 H2214 0.950 . S
C2237 C2236 1.334 . S
C2237 C2238 1.287 . S
C2238 C2237 1.287 . S
C2238 C2239 1.524 . S
C2238 H2257 0.913 . S
C2239 H2215 0.950 . S
C2239 C2238 1.524 . S
C2239 C2240 1.415 . S
C2240 H2216 0.950 . S
C2240 C2235 1.363 . S
C2240 C2239 1.415 . S
C2241 H2217 0.951 . S
C2241 C2242 1.366 . S
C2241 C2243 1.388 . S
C2242 C2241 1.366 . S
C2242 C2246 1.385 . S
C2243 H2218 0.951 . S
C2243 C2241 1.388 . S
C2243 C2244 1.366 . S
C2244 C2243 1.366 . S
C2244 C2245 1.414 . S
C2244 C2247 1.499 . S
C2245 H2219 0.950 . S
C2245 C2244 1.414 . S
C2245 C2246 1.374 . S
C2246 H2220 0.950 . S
C2246 C2242 1.385 . S
C2246 C2245 1.374 . S
C2247 C2244 1.499 . S
C2247 C2248 1.373 . S
C2247 C2249 1.389 . S
C2248 H2221 0.950 . S
C2248 C2234 1.377 . S
C2248 C2247 1.373 . S
C2249 C2233 1.377 . S
C2249 C2247 1.389 . S
C2249 C2250 1.524 . S
C2250 C2249 1.524 . S
C2250 C2251 1.397 . S
C2250 C2255 1.363 . S
C2251 H2222 0.950 . S
C2251 C2250 1.397 . S
C2251 C2252 1.334 . S
C2252 H2223 0.950 . S
C2252 C2251 1.334 . S
C2252 C2253 1.287 . S
C2253 C2252 1.287 . S
C2253 C2254 1.524 . S
C2253 H2256 0.999 . S
C2254 H2224 0.950 . S
C2254 C2253 1.524 . S
C2254 C2255 1.415 . S
C2255 H2225 0.950 . S
C2255 C2250 1.363 . S
C2255 C2254 1.415 . S
H2256 C2253 0.999 . S
H2257 C2238 0.913 . S
H2258 C2276 0.951 . S
H2259 C2278 0.951 . S
H2260 C2280 0.950 . S
H2261 C2281 0.950 . S
H2262 C2283 0.950 . S
H2263 C2286 0.950 . S
H2264 C2287 0.950 . S
H2265 C2289 0.950 . S
H2266 C2290 0.950 . S
H2267 C2291 0.951 . S
H2268 C2293 0.951 . S
H2269 C2295 0.950 . S
H2270 C2296 0.950 . S
H2271 C2298 0.950 . S
H2272 C2301 0.950 . S
H2273 C2302 0.950 . S
H2274 C2304 0.950 . S
H2275 C2305 0.950 . S
C2276 H2258 0.951 . S
C2276 C2277 1.366 . S
C2276 C2278 1.388 . S
C2277 C2276 1.366 . S
C2277 C2281 1.385 . S
C2278 H2259 0.951 . S
C2278 C2276 1.388 . S
C2278 C2279 1.366 . S
C2279 C2278 1.366 . S
C2279 C2280 1.414 . S
C2279 C2282 1.499 . S
C2280 H2260 0.950 . S
C2280 C2279 1.414 . S
C2280 C2281 1.374 . S
C2281 H2261 0.950 . S
C2281 C2277 1.385 . S
C2281 C2280 1.374 . S
C2282 C2279 1.499 . S
C2282 C2283 1.373 . S
C2282 C2284 1.389 . S
C2283 H2262 0.950 . S
C2283 C2282 1.373 . S
C2283 C2299 1.377 . S
C2284 C2282 1.389 . S
C2284 C2285 1.524 . S
C2284 C2298 1.377 . S
C2285 C2284 1.524 . S
C2285 C2286 1.397 . S
C2285 C2290 1.363 . S
C2286 H2263 0.950 . S
C2286 C2285 1.397 . S
C2286 C2287 1.334 . S
C2287 H2264 0.950 . S
C2287 C2286 1.334 . S
C2287 C2288 1.287 . S
C2288 C2287 1.287 . S
C2288 C2289 1.524 . S
C2288 H2307 0.913 . S
C2289 H2265 0.950 . S
C2289 C2288 1.524 . S
C2289 C2290 1.415 . S
C2290 H2266 0.950 . S
C2290 C2285 1.363 . S
C2290 C2289 1.415 . S
C2291 H2267 0.951 . S
C2291 C2292 1.366 . S
C2291 C2293 1.388 . S
C2292 C2291 1.366 . S
C2292 C2296 1.385 . S
C2293 H2268 0.951 . S
C2293 C2291 1.388 . S
C2293 C2294 1.366 . S
C2294 C2293 1.366 . S
C2294 C2295 1.414 . S
C2294 C2297 1.499 . S
C2295 H2269 0.950 . S
C2295 C2294 1.414 . S
C2295 C2296 1.374 . S
C2296 H2270 0.950 . S
C2296 C2292 1.385 . S
C2296 C2295 1.374 . S
C2297 C2294 1.499 . S
C2297 C2298 1.373 . S
C2297 C2299 1.389 . S
C2298 H2271 0.950 . S
C2298 C2284 1.377 . S
C2298 C2297 1.373 . S
C2299 C2283 1.377 . S
C2299 C2297 1.389 . S
C2299 C2300 1.524 . S
C2300 C2299 1.524 . S
C2300 C2301 1.397 . S
C2300 C2305 1.363 . S
C2301 H2272 0.950 . S
C2301 C2300 1.397 . S
C2301 C2302 1.334 . S
C2302 H2273 0.950 . S
C2302 C2301 1.334 . S
C2302 C2303 1.287 . S
C2303 C2302 1.287 . S
C2303 C2304 1.524 . S
C2303 H2306 0.999 . S
C2304 H2274 0.950 . S
C2304 C2303 1.524 . S
C2304 C2305 1.415 . S
C2305 H2275 0.950 . S
C2305 C2300 1.363 . S
C2305 C2304 1.415 . S
H2306 C2303 0.999 . S
H2307 C2288 0.913 . S
H2308 C2326 0.951 . S
H2309 C2328 0.951 . S
H2310 C2330 0.950 . S
H2311 C2331 0.950 . S
H2312 C2333 0.950 . S
H2313 C2336 0.950 . S
H2314 C2337 0.950 . S
H2315 C2339 0.950 . S
H2316 C2340 0.950 . S
H2317 C2341 0.951 . S
H2318 C2343 0.951 . S
H2319 C2345 0.950 . S
H2320 C2346 0.950 . S
H2321 C2348 0.950 . S
H2322 C2351 0.950 . S
H2323 C2352 0.950 . S
H2324 C2354 0.950 . S
H2325 C2355 0.950 . S
C2326 H2308 0.951 . S
C2326 C2327 1.366 . S
C2326 C2328 1.388 . S
C2327 C2326 1.366 . S
C2327 C2331 1.385 . S
C2328 H2309 0.951 . S
C2328 C2326 1.388 . S
C2328 C2329 1.366 . S
C2329 C2328 1.366 . S
C2329 C2330 1.414 . S
C2329 C2332 1.499 . S
C2330 H2310 0.950 . S
C2330 C2329 1.414 . S
C2330 C2331 1.374 . S
C2331 H2311 0.950 . S
C2331 C2327 1.385 . S
C2331 C2330 1.374 . S
C2332 C2329 1.499 . S
C2332 C2333 1.373 . S
C2332 C2334 1.389 . S
C2333 H2312 0.950 . S
C2333 C2332 1.373 . S
C2333 C2349 1.377 . S
C2334 C2332 1.389 . S
C2334 C2335 1.524 . S
C2334 C2348 1.377 . S
C2335 C2334 1.524 . S
C2335 C2336 1.397 . S
C2335 C2340 1.363 . S
C2336 H2313 0.950 . S
C2336 C2335 1.397 . S
C2336 C2337 1.334 . S
C2337 H2314 0.950 . S
C2337 C2336 1.334 . S
C2337 C2338 1.287 . S
C2338 C2337 1.287 . S
C2338 C2339 1.524 . S
C2338 H2357 0.913 . S
C2339 H2315 0.950 . S
C2339 C2338 1.524 . S
C2339 C2340 1.415 . S
C2340 H2316 0.950 . S
C2340 C2335 1.363 . S
C2340 C2339 1.415 . S
C2341 H2317 0.951 . S
C2341 C2342 1.366 . S
C2341 C2343 1.388 . S
C2342 C2341 1.366 . S
C2342 C2346 1.385 . S
C2343 H2318 0.951 . S
C2343 C2341 1.388 . S
C2343 C2344 1.366 . S
C2344 C2343 1.366 . S
C2344 C2345 1.414 . S
C2344 C2347 1.499 . S
C2345 H2319 0.950 . S
C2345 C2344 1.414 . S
C2345 C2346 1.374 . S
C2346 H2320 0.950 . S
C2346 C2342 1.385 . S
C2346 C2345 1.374 . S
C2347 C2344 1.499 . S
C2347 C2348 1.373 . S
C2347 C2349 1.389 . S
C2348 H2321 0.950 . S
C2348 C2334 1.377 . S
C2348 C2347 1.373 . S
C2349 C2333 1.377 . S
C2349 C2347 1.389 . S
C2349 C2350 1.524 . S
C2350 C2349 1.524 . S
C2350 C2351 1.397 . S
C2350 C2355 1.363 . S
C2351 H2322 0.950 . S
C2351 C2350 1.397 . S
C2351 C2352 1.334 . S
C2352 H2323 0.950 . S
C2352 C2351 1.334 . S
C2352 C2353 1.287 . S
C2353 C2352 1.287 . S
C2353 C2354 1.524 . S
C2353 H2356 0.999 . S
C2354 H2324 0.950 . S
C2354 C2353 1.524 . S
C2354 C2355 1.415 . S
C2355 H2325 0.950 . S
C2355 C2350 1.363 . S
C2355 C2354 1.415 . S
H2356 C2353 0.999 . S
H2357 C2338 0.913 . S
H2358 C2376 0.951 . S
H2359 C2378 0.951 . S
H2360 C2380 0.950 . S
H2361 C2381 0.950 . S
H2362 C2383 0.950 . S
H2363 C2386 0.950 . S
H2364 C2387 0.950 . S
H2365 C2389 0.950 . S
H2366 C2390 0.950 . S
H2367 C2391 0.951 . S
H2368 C2393 0.951 . S
H2369 C2395 0.950 . S
H2370 C2396 0.950 . S
H2371 C2398 0.950 . S
H2372 C2401 0.950 . S
H2373 C2402 0.950 . S
H2374 C2404 0.950 . S
H2375 C2405 0.950 . S
C2376 H2358 0.951 . S
C2376 C2377 1.366 . S
C2376 C2378 1.388 . S
C2377 C2376 1.366 . S
C2377 C2381 1.385 . S
C2378 H2359 0.951 . S
C2378 C2376 1.388 . S
C2378 C2379 1.366 . S
C2379 C2378 1.366 . S
C2379 C2380 1.414 . S
C2379 C2382 1.499 . S
C2380 H2360 0.950 . S
C2380 C2379 1.414 . S
C2380 C2381 1.374 . S
C2381 H2361 0.950 . S
C2381 C2377 1.385 . S
C2381 C2380 1.374 . S
C2382 C2379 1.499 . S
C2382 C2383 1.373 . S
C2382 C2384 1.389 . S
C2383 H2362 0.950 . S
C2383 C2382 1.373 . S
C2383 C2399 1.377 . S
C2384 C2382 1.389 . S
C2384 C2385 1.524 . S
C2384 C2398 1.377 . S
C2385 C2384 1.524 . S
C2385 C2386 1.397 . S
C2385 C2390 1.363 . S
C2386 H2363 0.950 . S
C2386 C2385 1.397 . S
C2386 C2387 1.334 . S
C2387 H2364 0.950 . S
C2387 C2386 1.334 . S
C2387 C2388 1.287 . S
C2388 C2387 1.287 . S
C2388 C2389 1.524 . S
C2388 H2407 0.913 . S
C2389 H2365 0.950 . S
C2389 C2388 1.524 . S
C2389 C2390 1.415 . S
C2390 H2366 0.950 . S
C2390 C2385 1.363 . S
C2390 C2389 1.415 . S
C2391 H2367 0.951 . S
C2391 C2392 1.366 . S
C2391 C2393 1.388 . S
C2392 C2391 1.366 . S
C2392 C2396 1.385 . S
C2393 H2368 0.951 . S
C2393 C2391 1.388 . S
C2393 C2394 1.366 . S
C2394 C2393 1.366 . S
C2394 C2395 1.414 . S
C2394 C2397 1.499 . S
C2395 H2369 0.950 . S
C2395 C2394 1.414 . S
C2395 C2396 1.374 . S
C2396 H2370 0.950 . S
C2396 C2392 1.385 . S
C2396 C2395 1.374 . S
C2397 C2394 1.499 . S
C2397 C2398 1.373 . S
C2397 C2399 1.389 . S
C2398 H2371 0.950 . S
C2398 C2384 1.377 . S
C2398 C2397 1.373 . S
C2399 C2383 1.377 . S
C2399 C2397 1.389 . S
C2399 C2400 1.524 . S
C2400 C2399 1.524 . S
C2400 C2401 1.397 . S
C2400 C2405 1.363 . S
C2401 H2372 0.950 . S
C2401 C2400 1.397 . S
C2401 C2402 1.334 . S
C2402 H2373 0.950 . S
C2402 C2401 1.334 . S
C2402 C2403 1.287 . S
C2403 C2402 1.287 . S
C2403 C2404 1.524 . S
C2403 H2406 0.999 . S
C2404 H2374 0.950 . S
C2404 C2403 1.524 . S
C2404 C2405 1.415 . S
C2405 H2375 0.950 . S
C2405 C2400 1.363 . S
C2405 C2404 1.415 . S
H2406 C2403 0.999 . S
H2407 C2388 0.913 . S
H2408 C2426 0.951 . S
H2409 C2428 0.951 . S
H2410 C2430 0.950 . S
H2411 C2431 0.950 . S
H2412 C2433 0.950 . S
H2413 C2436 0.950 . S
H2414 C2437 0.950 . S
H2415 C2439 0.950 . S
H2416 C2440 0.950 . S
H2417 C2441 0.951 . S
H2418 C2443 0.951 . S
H2419 C2445 0.950 . S
H2420 C2446 0.950 . S
H2421 C2448 0.950 . S
H2422 C2451 0.950 . S
H2423 C2452 0.950 . S
H2424 C2454 0.950 . S
H2425 C2455 0.950 . S
C2426 H2408 0.951 . S
C2426 C2427 1.366 . S
C2426 C2428 1.388 . S
C2427 C2426 1.366 . S
C2427 C2431 1.385 . S
C2428 H2409 0.951 . S
C2428 C2426 1.388 . S
C2428 C2429 1.366 . S
C2429 C2428 1.366 . S
C2429 C2430 1.414 . S
C2429 C2432 1.499 . S
C2430 H2410 0.950 . S
C2430 C2429 1.414 . S
C2430 C2431 1.374 . S
C2431 H2411 0.950 . S
C2431 C2427 1.385 . S
C2431 C2430 1.374 . S
C2432 C2429 1.499 . S
C2432 C2433 1.373 . S
C2432 C2434 1.389 . S
C2433 H2412 0.950 . S
C2433 C2432 1.373 . S
C2433 C2449 1.377 . S
C2434 C2432 1.389 . S
C2434 C2435 1.524 . S
C2434 C2448 1.377 . S
C2435 C2434 1.524 . S
C2435 C2436 1.397 . S
C2435 C2440 1.363 . S
C2436 H2413 0.950 . S
C2436 C2435 1.397 . S
C2436 C2437 1.334 . S
C2437 H2414 0.950 . S
C2437 C2436 1.334 . S
C2437 C2438 1.287 . S
C2438 C2437 1.287 . S
C2438 C2439 1.524 . S
C2438 H2457 0.913 . S
C2439 H2415 0.950 . S
C2439 C2438 1.524 . S
C2439 C2440 1.415 . S
C2440 H2416 0.950 . S
C2440 C2435 1.363 . S
C2440 C2439 1.415 . S
C2441 H2417 0.951 . S
C2441 C2442 1.366 . S
C2441 C2443 1.388 . S
C2442 C2441 1.366 . S
C2442 C2446 1.385 . S
C2443 H2418 0.951 . S
C2443 C2441 1.388 . S
C2443 C2444 1.366 . S
C2444 C2443 1.366 . S
C2444 C2445 1.414 . S
C2444 C2447 1.499 . S
C2445 H2419 0.950 . S
C2445 C2444 1.414 . S
C2445 C2446 1.374 . S
C2446 H2420 0.950 . S
C2446 C2442 1.385 . S
C2446 C2445 1.374 . S
C2447 C2444 1.499 . S
C2447 C2448 1.373 . S
C2447 C2449 1.389 . S
C2448 H2421 0.950 . S
C2448 C2434 1.377 . S
C2448 C2447 1.373 . S
C2449 C2433 1.377 . S
C2449 C2447 1.389 . S
C2449 C2450 1.524 . S
C2450 C2449 1.524 . S
C2450 C2451 1.397 . S
C2450 C2455 1.363 . S
C2451 H2422 0.950 . S
C2451 C2450 1.397 . S
C2451 C2452 1.334 . S
C2452 H2423 0.950 . S
C2452 C2451 1.334 . S
C2452 C2453 1.287 . S
C2453 C2452 1.287 . S
C2453 C2454 1.524 . S
C2453 H2456 0.999 . S
C2454 H2424 0.950 . S
C2454 C2453 1.524 . S
C2454 C2455 1.415 . S
C2455 H2425 0.950 . S
C2455 C2450 1.363 . S
C2455 C2454 1.415 . S
H2456 C2453 0.999 . S
H2457 C2438 0.913 . S
H2458 C2476 0.951 . S
H2459 C2478 0.951 . S
H2460 C2480 0.950 . S
H2461 C2481 0.950 . S
H2462 C2483 0.950 . S
H2463 C2486 0.950 . S
H2464 C2487 0.950 . S
H2465 C2489 0.950 . S
H2466 C2490 0.950 . S
H2467 C2491 0.951 . S
H2468 C2493 0.951 . S
H2469 C2495 0.950 . S
H2470 C2496 0.950 . S
H2471 C2498 0.950 . S
H2472 C2501 0.950 . S
H2473 C2502 0.950 . S
H2474 C2504 0.950 . S
H2475 C2505 0.950 . S
C2476 H2458 0.951 . S
C2476 C2477 1.366 . S
C2476 C2478 1.388 . S
C2477 C2476 1.366 . S
C2477 C2481 1.385 . S
C2478 H2459 0.951 . S
C2478 C2476 1.388 . S
C2478 C2479 1.366 . S
C2479 C2478 1.366 . S
C2479 C2480 1.414 . S
C2479 C2482 1.499 . S
C2480 H2460 0.950 . S
C2480 C2479 1.414 . S
C2480 C2481 1.374 . S
C2481 H2461 0.950 . S
C2481 C2477 1.385 . S
C2481 C2480 1.374 . S
C2482 C2479 1.499 . S
C2482 C2483 1.373 . S
C2482 C2484 1.389 . S
C2483 H2462 0.950 . S
C2483 C2482 1.373 . S
C2483 C2499 1.377 . S
C2484 C2482 1.389 . S
C2484 C2485 1.524 . S
C2484 C2498 1.377 . S
C2485 C2484 1.524 . S
C2485 C2486 1.397 . S
C2485 C2490 1.363 . S
C2486 H2463 0.950 . S
C2486 C2485 1.397 . S
C2486 C2487 1.334 . S
C2487 H2464 0.950 . S
C2487 C2486 1.334 . S
C2487 C2488 1.287 . S
C2488 C2487 1.287 . S
C2488 C2489 1.524 . S
C2488 H2507 0.913 . S
C2489 H2465 0.950 . S
C2489 C2488 1.524 . S
C2489 C2490 1.415 . S
C2490 H2466 0.950 . S
C2490 C2485 1.363 . S
C2490 C2489 1.415 . S
C2491 H2467 0.951 . S
C2491 C2492 1.366 . S
C2491 C2493 1.388 . S
C2492 C2491 1.366 . S
C2492 C2496 1.385 . S
C2493 H2468 0.951 . S
C2493 C2491 1.388 . S
C2493 C2494 1.366 . S
C2494 C2493 1.366 . S
C2494 C2495 1.414 . S
C2494 C2497 1.499 . S
C2495 H2469 0.950 . S
C2495 C2494 1.414 . S
C2495 C2496 1.374 . S
C2496 H2470 0.950 . S
C2496 C2492 1.385 . S
C2496 C2495 1.374 . S
C2497 C2494 1.499 . S
C2497 C2498 1.373 . S
C2497 C2499 1.389 . S
C2498 H2471 0.950 . S
C2498 C2484 1.377 . S
C2498 C2497 1.373 . S
C2499 C2483 1.377 . S
C2499 C2497 1.389 . S
C2499 C2500 1.524 . S
C2500 C2499 1.524 . S
C2500 C2501 1.397 . S
C2500 C2505 1.363 . S
C2501 H2472 0.950 . S
C2501 C2500 1.397 . S
C2501 C2502 1.334 . S
C2502 H2473 0.950 . S
C2502 C2501 1.334 . S
C2502 C2503 1.287 . S
C2503 C2502 1.287 . S
C2503 C2504 1.524 . S
C2503 H2506 0.999 . S
C2504 H2474 0.950 . S
C2504 C2503 1.524 . S
C2504 C2505 1.415 . S
C2505 H2475 0.950 . S
C2505 C2500 1.363 . S
C2505 C2504 1.415 . S
H2506 C2503 0.999 . S
H2507 C2488 0.913 . S
H2508 C2526 0.951 . S
H2509 C2528 0.951 . S
H2510 C2530 0.950 . S
H2511 C2531 0.950 . S
H2512 C2533 0.950 . S
H2513 C2536 0.950 . S
H2514 C2537 0.950 . S
H2515 C2539 0.950 . S
H2516 C2540 0.950 . S
H2517 C2541 0.951 . S
H2518 C2543 0.951 . S
H2519 C2545 0.950 . S
H2520 C2546 0.950 . S
H2521 C2548 0.950 . S
H2522 C2551 0.950 . S
H2523 C2552 0.950 . S
H2524 C2554 0.950 . S
H2525 C2555 0.950 . S
C2526 H2508 0.951 . S
C2526 C2527 1.366 . S
C2526 C2528 1.388 . S
C2527 C2526 1.366 . S
C2527 C2531 1.385 . S
C2528 H2509 0.951 . S
C2528 C2526 1.388 . S
C2528 C2529 1.366 . S
C2529 C2528 1.366 . S
C2529 C2530 1.414 . S
C2529 C2532 1.499 . S
C2530 H2510 0.950 . S
C2530 C2529 1.414 . S
C2530 C2531 1.374 . S
C2531 H2511 0.950 . S
C2531 C2527 1.385 . S
C2531 C2530 1.374 . S
C2532 C2529 1.499 . S
C2532 C2533 1.373 . S
C2532 C2534 1.389 . S
C2533 H2512 0.950 . S
C2533 C2532 1.373 . S
C2533 C2549 1.377 . S
C2534 C2532 1.389 . S
C2534 C2535 1.524 . S
C2534 C2548 1.377 . S
C2535 C2534 1.524 . S
C2535 C2536 1.397 . S
C2535 C2540 1.363 . S
C2536 H2513 0.950 . S
C2536 C2535 1.397 . S
C2536 C2537 1.334 . S
C2537 H2514 0.950 . S
C2537 C2536 1.334 . S
C2537 C2538 1.287 . S
C2538 C2537 1.287 . S
C2538 C2539 1.524 . S
C2538 H2557 0.913 . S
C2539 H2515 0.950 . S
C2539 C2538 1.524 . S
C2539 C2540 1.415 . S
C2540 H2516 0.950 . S
C2540 C2535 1.363 . S
C2540 C2539 1.415 . S
C2541 H2517 0.951 . S
C2541 C2542 1.366 . S
C2541 C2543 1.388 . S
C2542 C2541 1.366 . S
C2542 C2546 1.385 . S
C2543 H2518 0.951 . S
C2543 C2541 1.388 . S
C2543 C2544 1.366 . S
C2544 C2543 1.366 . S
C2544 C2545 1.414 . S
C2544 C2547 1.499 . S
C2545 H2519 0.950 . S
C2545 C2544 1.414 . S
C2545 C2546 1.374 . S
C2546 H2520 0.950 . S
C2546 C2542 1.385 . S
C2546 C2545 1.374 . S
C2547 C2544 1.499 . S
C2547 C2548 1.373 . S
C2547 C2549 1.389 . S
C2548 H2521 0.950 . S
C2548 C2534 1.377 . S
C2548 C2547 1.373 . S
C2549 C2533 1.377 . S
C2549 C2547 1.389 . S
C2549 C2550 1.524 . S
C2550 C2549 1.524 . S
C2550 C2551 1.397 . S
C2550 C2555 1.363 . S
C2551 H2522 0.950 . S
C2551 C2550 1.397 . S
C2551 C2552 1.334 . S
C2552 H2523 0.950 . S
C2552 C2551 1.334 . S
C2552 C2553 1.287 . S
C2553 C2552 1.287 . S
C2553 C2554 1.524 . S
C2553 H2556 0.999 . S
C2554 H2524 0.950 . S
C2554 C2553 1.524 . S
C2554 C2555 1.415 . S
C2555 H2525 0.950 . S
C2555 C2550 1.363 . S
C2555 C2554 1.415 . S
H2556 C2553 0.999 . S
H2557 C2538 0.913 . S
H2558 C2576 0.951 . S
H2559 C2578 0.951 . S
H2560 C2580 0.950 . S
H2561 C2581 0.950 . S
H2562 C2583 0.950 . S
H2563 C2586 0.950 . S
H2564 C2587 0.950 . S
H2565 C2589 0.950 . S
H2566 C2590 0.950 . S
H2567 C2591 0.951 . S
H2568 C2593 0.951 . S
H2569 C2595 0.950 . S
H2570 C2596 0.950 . S
H2571 C2598 0.950 . S
H2572 C2601 0.950 . S
H2573 C2602 0.950 . S
H2574 C2604 0.950 . S
H2575 C2605 0.950 . S
C2576 H2558 0.951 . S
C2576 C2577 1.366 . S
C2576 C2578 1.388 . S
C2577 C2576 1.366 . S
C2577 C2581 1.385 . S
C2578 H2559 0.951 . S
C2578 C2576 1.388 . S
C2578 C2579 1.366 . S
C2579 C2578 1.366 . S
C2579 C2580 1.414 . S
C2579 C2582 1.499 . S
C2580 H2560 0.950 . S
C2580 C2579 1.414 . S
C2580 C2581 1.374 . S
C2581 H2561 0.950 . S
C2581 C2577 1.385 . S
C2581 C2580 1.374 . S
C2582 C2579 1.499 . S
C2582 C2583 1.373 . S
C2582 C2584 1.389 . S
C2583 H2562 0.950 . S
C2583 C2582 1.373 . S
C2583 C2599 1.377 . S
C2584 C2582 1.389 . S
C2584 C2585 1.524 . S
C2584 C2598 1.377 . S
C2585 C2584 1.524 . S
C2585 C2586 1.397 . S
C2585 C2590 1.363 . S
C2586 H2563 0.950 . S
C2586 C2585 1.397 . S
C2586 C2587 1.334 . S
C2587 H2564 0.950 . S
C2587 C2586 1.334 . S
C2587 C2588 1.287 . S
C2588 C2587 1.287 . S
C2588 C2589 1.524 . S
C2588 H2607 0.913 . S
C2589 H2565 0.950 . S
C2589 C2588 1.524 . S
C2589 C2590 1.415 . S
C2590 H2566 0.950 . S
C2590 C2585 1.363 . S
C2590 C2589 1.415 . S
C2591 H2567 0.951 . S
C2591 C2592 1.366 . S
C2591 C2593 1.388 . S
C2592 C2591 1.366 . S
C2592 C2596 1.385 . S
C2593 H2568 0.951 . S
C2593 C2591 1.388 . S
C2593 C2594 1.366 . S
C2594 C2593 1.366 . S
C2594 C2595 1.414 . S
C2594 C2597 1.499 . S
C2595 H2569 0.950 . S
C2595 C2594 1.414 . S
C2595 C2596 1.374 . S
C2596 H2570 0.950 . S
C2596 C2592 1.385 . S
C2596 C2595 1.374 . S
C2597 C2594 1.499 . S
C2597 C2598 1.373 . S
C2597 C2599 1.389 . S
C2598 H2571 0.950 . S
C2598 C2584 1.377 . S
C2598 C2597 1.373 . S
C2599 C2583 1.377 . S
C2599 C2597 1.389 . S
C2599 C2600 1.524 . S
C2600 C2599 1.524 . S
C2600 C2601 1.397 . S
C2600 C2605 1.363 . S
C2601 H2572 0.950 . S
C2601 C2600 1.397 . S
C2601 C2602 1.334 . S
C2602 H2573 0.950 . S
C2602 C2601 1.334 . S
C2602 C2603 1.287 . S
C2603 C2602 1.287 . S
C2603 C2604 1.524 . S
C2603 H2606 0.999 . S
C2604 H2574 0.950 . S
C2604 C2603 1.524 . S
C2604 C2605 1.415 . S
C2605 H2575 0.950 . S
C2605 C2600 1.363 . S
C2605 C2604 1.415 . S
H2606 C2603 0.999 . S
H2607 C2588 0.913 . S
H2608 C2626 0.951 . S
H2609 C2628 0.951 . S
H2610 C2630 0.950 . S
H2611 C2631 0.950 . S
H2612 C2633 0.950 . S
H2613 C2636 0.950 . S
H2614 C2637 0.950 . S
H2615 C2639 0.950 . S
H2616 C2640 0.950 . S
H2617 C2641 0.951 . S
H2618 C2643 0.951 . S
H2619 C2645 0.950 . S
H2620 C2646 0.950 . S
H2621 C2648 0.950 . S
H2622 C2651 0.950 . S
H2623 C2652 0.950 . S
H2624 C2654 0.950 . S
H2625 C2655 0.950 . S
C2626 H2608 0.951 . S
C2626 C2627 1.366 . S
C2626 C2628 1.388 . S
C2627 C2626 1.366 . S
C2627 C2631 1.385 . S
C2628 H2609 0.951 . S
C2628 C2626 1.388 . S
C2628 C2629 1.366 . S
C2629 C2628 1.366 . S
C2629 C2630 1.414 . S
C2629 C2632 1.499 . S
C2630 H2610 0.950 . S
C2630 C2629 1.414 . S
C2630 C2631 1.374 . S
C2631 H2611 0.950 . S
C2631 C2627 1.385 . S
C2631 C2630 1.374 . S
C2632 C2629 1.499 . S
C2632 C2633 1.373 . S
C2632 C2634 1.389 . S
C2633 H2612 0.950 . S
C2633 C2632 1.373 . S
C2633 C2649 1.377 . S
C2634 C2632 1.389 . S
C2634 C2635 1.524 . S
C2634 C2648 1.377 . S
C2635 C2634 1.524 . S
C2635 C2636 1.397 . S
C2635 C2640 1.363 . S
C2636 H2613 0.950 . S
C2636 C2635 1.397 . S
C2636 C2637 1.334 . S
C2637 H2614 0.950 . S
C2637 C2636 1.334 . S
C2637 C2638 1.287 . S
C2638 C2637 1.287 . S
C2638 C2639 1.524 . S
C2638 H2657 0.913 . S
C2639 H2615 0.950 . S
C2639 C2638 1.524 . S
C2639 C2640 1.415 . S
C2640 H2616 0.950 . S
C2640 C2635 1.363 . S
C2640 C2639 1.415 . S
C2641 H2617 0.951 . S
C2641 C2642 1.366 . S
C2641 C2643 1.388 . S
C2642 C2641 1.366 . S
C2642 C2646 1.385 . S
C2643 H2618 0.951 . S
C2643 C2641 1.388 . S
C2643 C2644 1.366 . S
C2644 C2643 1.366 . S
C2644 C2645 1.414 . S
C2644 C2647 1.499 . S
C2645 H2619 0.950 . S
C2645 C2644 1.414 . S
C2645 C2646 1.374 . S
C2646 H2620 0.950 . S
C2646 C2642 1.385 . S
C2646 C2645 1.374 . S
C2647 C2644 1.499 . S
C2647 C2648 1.373 . S
C2647 C2649 1.389 . S
C2648 H2621 0.950 . S
C2648 C2634 1.377 . S
C2648 C2647 1.373 . S
C2649 C2633 1.377 . S
C2649 C2647 1.389 . S
C2649 C2650 1.524 . S
C2650 C2649 1.524 . S
C2650 C2651 1.397 . S
C2650 C2655 1.363 . S
C2651 H2622 0.950 . S
C2651 C2650 1.397 . S
C2651 C2652 1.334 . S
C2652 H2623 0.950 . S
C2652 C2651 1.334 . S
C2652 C2653 1.287 . S
C2653 C2652 1.287 . S
C2653 C2654 1.524 . S
C2653 H2656 0.999 . S
C2654 H2624 0.950 . S
C2654 C2653 1.524 . S
C2654 C2655 1.415 . S
C2655 H2625 0.950 . S
C2655 C2650 1.363 . S
C2655 C2654 1.415 . S
H2656 C2653 0.999 . S
H2657 C2638 0.913 . S
H2658 C2676 0.951 . S
H2659 C2678 0.951 . S
H2660 C2680 0.950 . S
H2661 C2681 0.950 . S
H2662 C2683 0.950 . S
H2663 C2686 0.950 . S
H2664 C2687 0.950 . S
H2665 C2689 0.950 . S
H2666 C2690 0.950 . S
H2667 C2691 0.951 . S
H2668 C2693 0.951 . S
H2669 C2695 0.950 . S
H2670 C2696 0.950 . S
H2671 C2698 0.950 . S
H2672 C2701 0.950 . S
H2673 C2702 0.950 . S
H2674 C2704 0.950 . S
H2675 C2705 0.950 . S
C2676 H2658 0.951 . S
C2676 C2677 1.366 . S
C2676 C2678 1.388 . S
C2677 C2676 1.366 . S
C2677 C2681 1.385 . S
C2678 H2659 0.951 . S
C2678 C2676 1.388 . S
C2678 C2679 1.366 . S
C2679 C2678 1.366 . S
C2679 C2680 1.414 . S
C2679 C2682 1.499 . S
C2680 H2660 0.950 . S
C2680 C2679 1.414 . S
C2680 C2681 1.374 . S
C2681 H2661 0.950 . S
C2681 C2677 1.385 . S
C2681 C2680 1.374 . S
C2682 C2679 1.499 . S
C2682 C2683 1.373 . S
C2682 C2684 1.389 . S
C2683 H2662 0.950 . S
C2683 C2682 1.373 . S
C2683 C2699 1.377 . S
C2684 C2682 1.389 . S
C2684 C2685 1.524 . S
C2684 C2698 1.377 . S
C2685 C2684 1.524 . S
C2685 C2686 1.397 . S
C2685 C2690 1.363 . S
C2686 H2663 0.950 . S
C2686 C2685 1.397 . S
C2686 C2687 1.334 . S
C2687 H2664 0.950 . S
C2687 C2686 1.334 . S
C2687 C2688 1.287 . S
C2688 C2687 1.287 . S
C2688 C2689 1.524 . S
C2688 H2707 0.913 . S
C2689 H2665 0.950 . S
C2689 C2688 1.524 . S
C2689 C2690 1.415 . S
C2690 H2666 0.950 . S
C2690 C2685 1.363 . S
C2690 C2689 1.415 . S
C2691 H2667 0.951 . S
C2691 C2692 1.366 . S
C2691 C2693 1.388 . S
C2692 C2691 1.366 . S
C2692 C2696 1.385 . S
C2693 H2668 0.951 . S
C2693 C2691 1.388 . S
C2693 C2694 1.366 . S
C2694 C2693 1.366 . S
C2694 C2695 1.414 . S
C2694 C2697 1.499 . S
C2695 H2669 0.950 . S
C2695 C2694 1.414 . S
C2695 C2696 1.374 . S
C2696 H2670 0.950 . S
C2696 C2692 1.385 . S
C2696 C2695 1.374 . S
C2697 C2694 1.499 . S
C2697 C2698 1.373 . S
C2697 C2699 1.389 . S
C2698 H2671 0.950 . S
C2698 C2684 1.377 . S
C2698 C2697 1.373 . S
C2699 C2683 1.377 . S
C2699 C2697 1.389 . S
C2699 C2700 1.524 . S
C2700 C2699 1.524 . S
C2700 C2701 1.397 . S
C2700 C2705 1.363 . S
C2701 H2672 0.950 . S
C2701 C2700 1.397 . S
C2701 C2702 1.334 . S
C2702 H2673 0.950 . S
C2702 C2701 1.334 . S
C2702 C2703 1.287 . S
C2703 C2702 1.287 . S
C2703 C2704 1.524 . S
C2703 H2706 0.999 . S
C2704 H2674 0.950 . S
C2704 C2703 1.524 . S
C2704 C2705 1.415 . S
C2705 H2675 0.950 . S
C2705 C2700 1.363 . S
C2705 C2704 1.415 . S
H2706 C2703 0.999 . S
H2707 C2688 0.913 . S
H2708 C2726 0.951 . S
H2709 C2728 0.951 . S
H2710 C2730 0.950 . S
H2711 C2731 0.950 . S
H2712 C2733 0.950 . S
H2713 C2736 0.950 . S
H2714 C2737 0.950 . S
H2715 C2739 0.950 . S
H2716 C2740 0.950 . S
H2717 C2741 0.951 . S
H2718 C2743 0.951 . S
H2719 C2745 0.950 . S
H2720 C2746 0.950 . S
H2721 C2748 0.950 . S
H2722 C2751 0.950 . S
H2723 C2752 0.950 . S
H2724 C2754 0.950 . S
H2725 C2755 0.950 . S
C2726 H2708 0.951 . S
C2726 C2727 1.366 . S
C2726 C2728 1.388 . S
C2727 C2726 1.366 . S
C2727 C2731 1.385 . S
C2728 H2709 0.951 . S
C2728 C2726 1.388 . S
C2728 C2729 1.366 . S
C2729 C2728 1.366 . S
C2729 C2730 1.414 . S
C2729 C2732 1.499 . S
C2730 H2710 0.950 . S
C2730 C2729 1.414 . S
C2730 C2731 1.374 . S
C2731 H2711 0.950 . S
C2731 C2727 1.385 . S
C2731 C2730 1.374 . S
C2732 C2729 1.499 . S
C2732 C2733 1.373 . S
C2732 C2734 1.389 . S
C2733 H2712 0.950 . S
C2733 C2732 1.373 . S
C2733 C2749 1.377 . S
C2734 C2732 1.389 . S
C2734 C2735 1.524 . S
C2734 C2748 1.377 . S
C2735 C2734 1.524 . S
C2735 C2736 1.397 . S
C2735 C2740 1.363 . S
C2736 H2713 0.950 . S
C2736 C2735 1.397 . S
C2736 C2737 1.334 . S
C2737 H2714 0.950 . S
C2737 C2736 1.334 . S
C2737 C2738 1.287 . S
C2738 C2737 1.287 . S
C2738 C2739 1.524 . S
C2738 H2757 0.913 . S
C2739 H2715 0.950 . S
C2739 C2738 1.524 . S
C2739 C2740 1.415 . S
C2740 H2716 0.950 . S
C2740 C2735 1.363 . S
C2740 C2739 1.415 . S
C2741 H2717 0.951 . S
C2741 C2742 1.366 . S
C2741 C2743 1.388 . S
C2742 C2741 1.366 . S
C2742 C2746 1.385 . S
C2743 H2718 0.951 . S
C2743 C2741 1.388 . S
C2743 C2744 1.366 . S
C2744 C2743 1.366 . S
C2744 C2745 1.414 . S
C2744 C2747 1.499 . S
C2745 H2719 0.950 . S
C2745 C2744 1.414 . S
C2745 C2746 1.374 . S
C2746 H2720 0.950 . S
C2746 C2742 1.385 . S
C2746 C2745 1.374 . S
C2747 C2744 1.499 . S
C2747 C2748 1.373 . S
C2747 C2749 1.389 . S
C2748 H2721 0.950 . S
C2748 C2734 1.377 . S
C2748 C2747 1.373 . S
C2749 C2733 1.377 . S
C2749 C2747 1.389 . S
C2749 C2750 1.524 . S
C2750 C2749 1.524 . S
C2750 C2751 1.397 . S
C2750 C2755 1.363 . S
C2751 H2722 0.950 . S
C2751 C2750 1.397 . S
C2751 C2752 1.334 . S
C2752 H2723 0.950 . S
C2752 C2751 1.334 . S
C2752 C2753 1.287 . S
C2753 C2752 1.287 . S
C2753 C2754 1.524 . S
C2753 H2756 0.999 . S
C2754 H2724 0.950 . S
C2754 C2753 1.524 . S
C2754 C2755 1.415 . S
C2755 H2725 0.950 . S
C2755 C2750 1.363 . S
C2755 C2754 1.415 . S
H2756 C2753 0.999 . S
H2757 C2738 0.913 . S
H2758 C2776 0.951 . S
H2759 C2778 0.951 . S
H2760 C2780 0.950 . S
H2761 C2781 0.950 . S
H2762 C2783 0.950 . S
H2763 C2786 0.950 . S
H2764 C2787 0.950 . S
H2765 C2789 0.950 . S
H2766 C2790 0.950 . S
H2767 C2791 0.951 . S
H2768 C2793 0.951 . S
H2769 C2795 0.950 . S
H2770 C2796 0.950 . S
H2771 C2798 0.950 . S
H2772 C2801 0.950 . S
H2773 C2802 0.950 . S
H2774 C2804 0.950 . S
H2775 C2805 0.950 . S
C2776 H2758 0.951 . S
C2776 C2777 1.366 . S
C2776 C2778 1.388 . S
C2777 C2776 1.366 . S
C2777 C2781 1.385 . S
C2778 H2759 0.951 . S
C2778 C2776 1.388 . S
C2778 C2779 1.366 . S
C2779 C2778 1.366 . S
C2779 C2780 1.414 . S
C2779 C2782 1.499 . S
C2780 H2760 0.950 . S
C2780 C2779 1.414 . S
C2780 C2781 1.374 . S
C2781 H2761 0.950 . S
C2781 C2777 1.385 . S
C2781 C2780 1.374 . S
C2782 C2779 1.499 . S
C2782 C2783 1.373 . S
C2782 C2784 1.389 . S
C2783 H2762 0.950 . S
C2783 C2782 1.373 . S
C2783 C2799 1.377 . S
C2784 C2782 1.389 . S
C2784 C2785 1.524 . S
C2784 C2798 1.377 . S
C2785 C2784 1.524 . S
C2785 C2786 1.397 . S
C2785 C2790 1.363 . S
C2786 H2763 0.950 . S
C2786 C2785 1.397 . S
C2786 C2787 1.334 . S
C2787 H2764 0.950 . S
C2787 C2786 1.334 . S
C2787 C2788 1.287 . S
C2788 C2787 1.287 . S
C2788 C2789 1.524 . S
C2788 H2807 0.913 . S
C2789 H2765 0.950 . S
C2789 C2788 1.524 . S
C2789 C2790 1.415 . S
C2790 H2766 0.950 . S
C2790 C2785 1.363 . S
C2790 C2789 1.415 . S
C2791 H2767 0.951 . S
C2791 C2792 1.366 . S
C2791 C2793 1.388 . S
C2792 C2791 1.366 . S
C2792 C2796 1.385 . S
C2793 H2768 0.951 . S
C2793 C2791 1.388 . S
C2793 C2794 1.366 . S
C2794 C2793 1.366 . S
C2794 C2795 1.414 . S
C2794 C2797 1.499 . S
C2795 H2769 0.950 . S
C2795 C2794 1.414 . S
C2795 C2796 1.374 . S
C2796 H2770 0.950 . S
C2796 C2792 1.385 . S
C2796 C2795 1.374 . S
C2797 C2794 1.499 . S
C2797 C2798 1.373 . S
C2797 C2799 1.389 . S
C2798 H2771 0.950 . S
C2798 C2784 1.377 . S
C2798 C2797 1.373 . S
C2799 C2783 1.377 . S
C2799 C2797 1.389 . S
C2799 C2800 1.524 . S
C2800 C2799 1.524 . S
C2800 C2801 1.397 . S
C2800 C2805 1.363 . S
C2801 H2772 0.950 . S
C2801 C2800 1.397 . S
C2801 C2802 1.334 . S
C2802 H2773 0.950 . S
C2802 C2801 1.334 . S
C2802 C2803 1.287 . S
C2803 C2802 1.287 . S
C2803 C2804 1.524 . S
C2803 H2806 0.999 . S
C2804 H2774 0.950 . S
C2804 C2803 1.524 . S
C2804 C2805 1.415 . S
C2805 H2775 0.950 . S
C2805 C2800 1.363 . S
C2805 C2804 1.415 . S
H2806 C2803 0.999 . S
H2807 C2788 0.913 . S
H2808 C2826 0.951 . S
H2809 C2828 0.951 . S
H2810 C2830 0.950 . S
H2811 C2831 0.950 . S
H2812 C2833 0.950 . S
H2813 C2836 0.950 . S
H2814 C2837 0.950 . S
H2815 C2839 0.950 . S
H2816 C2840 0.950 . S
H2817 C2841 0.951 . S
H2818 C2843 0.951 . S
H2819 C2845 0.950 . S
H2820 C2846 0.950 . S
H2821 C2848 0.950 . S
H2822 C2851 0.950 . S
H2823 C2852 0.950 . S
H2824 C2854 0.950 . S
H2825 C2855 0.950 . S
C2826 H2808 0.951 . S
C2826 C2827 1.366 . S
C2826 C2828 1.388 . S
C2827 C2826 1.366 . S
C2827 C2831 1.385 . S
C2828 H2809 0.951 . S
C2828 C2826 1.388 . S
C2828 C2829 1.366 . S
C2829 C2828 1.366 . S
C2829 C2830 1.414 . S
C2829 C2832 1.499 . S
C2830 H2810 0.950 . S
C2830 C2829 1.414 . S
C2830 C2831 1.374 . S
C2831 H2811 0.950 . S
C2831 C2827 1.385 . S
C2831 C2830 1.374 . S
C2832 C2829 1.499 . S
C2832 C2833 1.373 . S
C2832 C2834 1.389 . S
C2833 H2812 0.950 . S
C2833 C2832 1.373 . S
C2833 C2849 1.377 . S
C2834 C2832 1.389 . S
C2834 C2835 1.524 . S
C2834 C2848 1.377 . S
C2835 C2834 1.524 . S
C2835 C2836 1.397 . S
C2835 C2840 1.363 . S
C2836 H2813 0.950 . S
C2836 C2835 1.397 . S
C2836 C2837 1.334 . S
C2837 H2814 0.950 . S
C2837 C2836 1.334 . S
C2837 C2838 1.287 . S
C2838 C2837 1.287 . S
C2838 C2839 1.524 . S
C2838 H2857 0.913 . S
C2839 H2815 0.950 . S
C2839 C2838 1.524 . S
C2839 C2840 1.415 . S
C2840 H2816 0.950 . S
C2840 C2835 1.363 . S
C2840 C2839 1.415 . S
C2841 H2817 0.951 . S
C2841 C2842 1.366 . S
C2841 C2843 1.388 . S
C2842 C2841 1.366 . S
C2842 C2846 1.385 . S
C2843 H2818 0.951 . S
C2843 C2841 1.388 . S
C2843 C2844 1.366 . S
C2844 C2843 1.366 . S
C2844 C2845 1.414 . S
C2844 C2847 1.499 . S
C2845 H2819 0.950 . S
C2845 C2844 1.414 . S
C2845 C2846 1.374 . S
C2846 H2820 0.950 . S
C2846 C2842 1.385 . S
C2846 C2845 1.374 . S
C2847 C2844 1.499 . S
C2847 C2848 1.373 . S
C2847 C2849 1.389 . S
C2848 H2821 0.950 . S
C2848 C2834 1.377 . S
C2848 C2847 1.373 . S
C2849 C2833 1.377 . S
C2849 C2847 1.389 . S
C2849 C2850 1.524 . S
C2850 C2849 1.524 . S
C2850 C2851 1.397 . S
C2850 C2855 1.363 . S
C2851 H2822 0.950 . S
C2851 C2850 1.397 . S
C2851 C2852 1.334 . S
C2852 H2823 0.950 . S
C2852 C2851 1.334 . S
C2852 C2853 1.287 . S
C2853 C2852 1.287 . S
C2853 C2854 1.524 . S
C2853 H2856 0.999 . S
C2854 H2824 0.950 . S
C2854 C2853 1.524 . S
C2854 C2855 1.415 . S
C2855 H2825 0.950 . S
C2855 C2850 1.363 . S
C2855 C2854 1.415 . S
H2856 C2853 0.999 . S
H2857 C2838 0.913 . S
H2858 C2876 0.951 . S
H2859 C2878 0.951 . S
H2860 C2880 0.950 . S
H2861 C2881 0.950 . S
H2862 C2883 0.950 . S
H2863 C2886 0.950 . S
H2864 C2887 0.950 . S
H2865 C2889 0.950 . S
H2866 C2890 0.950 . S
H2867 C2891 0.951 . S
H2868 C2893 0.951 . S
H2869 C2895 0.950 . S
H2870 C2896 0.950 . S
H2871 C2898 0.950 . S
H2872 C2901 0.950 . S
H2873 C2902 0.950 . S
H2874 C2904 0.950 . S
H2875 C2905 0.950 . S
C2876 H2858 0.951 . S
C2876 C2877 1.366 . S
C2876 C2878 1.388 . S
C2877 C2876 1.366 . S
C2877 C2881 1.385 . S
C2878 H2859 0.951 . S
C2878 C2876 1.388 . S
C2878 C2879 1.366 . S
C2879 C2878 1.366 . S
C2879 C2880 1.414 . S
C2879 C2882 1.499 . S
C2880 H2860 0.950 . S
C2880 C2879 1.414 . S
C2880 C2881 1.374 . S
C2881 H2861 0.950 . S
C2881 C2877 1.385 . S
C2881 C2880 1.374 . S
C2882 C2879 1.499 . S
C2882 C2883 1.373 . S
C2882 C2884 1.389 . S
C2883 H2862 0.950 . S
C2883 C2882 1.373 . S
C2883 C2899 1.377 . S
C2884 C2882 1.389 . S
C2884 C2885 1.524 . S
C2884 C2898 1.377 . S
C2885 C2884 1.524 . S
C2885 C2886 1.397 . S
C2885 C2890 1.363 . S
C2886 H2863 0.950 . S
C2886 C2885 1.397 . S
C2886 C2887 1.334 . S
C2887 H2864 0.950 . S
C2887 C2886 1.334 . S
C2887 C2888 1.287 . S
C2888 C2887 1.287 . S
C2888 C2889 1.524 . S
C2888 H2907 0.913 . S
C2889 H2865 0.950 . S
C2889 C2888 1.524 . S
C2889 C2890 1.415 . S
C2890 H2866 0.950 . S
C2890 C2885 1.363 . S
C2890 C2889 1.415 . S
C2891 H2867 0.951 . S
C2891 C2892 1.366 . S
C2891 C2893 1.388 . S
C2892 C2891 1.366 . S
C2892 C2896 1.385 . S
C2893 H2868 0.951 . S
C2893 C2891 1.388 . S
C2893 C2894 1.366 . S
C2894 C2893 1.366 . S
C2894 C2895 1.414 . S
C2894 C2897 1.499 . S
C2895 H2869 0.950 . S
C2895 C2894 1.414 . S
C2895 C2896 1.374 . S
C2896 H2870 0.950 . S
C2896 C2892 1.385 . S
C2896 C2895 1.374 . S
C2897 C2894 1.499 . S
C2897 C2898 1.373 . S
C2897 C2899 1.389 . S
C2898 H2871 0.950 . S
C2898 C2884 1.377 . S
C2898 C2897 1.373 . S
C2899 C2883 1.377 . S
C2899 C2897 1.389 . S
C2899 C2900 1.524 . S
C2900 C2899 1.524 . S
C2900 C2901 1.397 . S
C2900 C2905 1.363 . S
C2901 H2872 0.950 . S
C2901 C2900 1.397 . S
C2901 C2902 1.334 . S
C2902 H2873 0.950 . S
C2902 C2901 1.334 . S
C2902 C2903 1.287 . S
C2903 C2902 1.287 . S
C2903 C2904 1.524 . S
C2903 H2906 0.999 . S
C2904 H2874 0.950 . S
C2904 C2903 1.524 . S
C2904 C2905 1.415 . S
C2905 H2875 0.950 . S
C2905 C2900 1.363 . S
C2905 C2904 1.415 . S
H2906 C2903 0.999 . S
H2907 C2888 0.913 . S
H2908 C2926 0.951 . S
H2909 C2928 0.951 . S
H2910 C2930 0.950 . S
H2911 C2931 0.950 . S
H2912 C2933 0.950 . S
H2913 C2936 0.950 . S
H2914 C2937 0.950 . S
H2915 C2939 0.950 . S
H2916 C2940 0.950 . S
H2917 C2941 0.951 . S
H2918 C2943 0.951 . S
H2919 C2945 0.950 . S
H2920 C2946 0.950 . S
H2921 C2948 0.950 . S
H2922 C2951 0.950 . S
H2923 C2952 0.950 . S
H2924 C2954 0.950 . S
H2925 C2955 0.950 . S
C2926 H2908 0.951 . S
C2926 C2927 1.366 . S
C2926 C2928 1.388 . S
C2927 C2926 1.366 . S
C2927 C2931 1.385 . S
C2928 H2909 0.951 . S
C2928 C2926 1.388 . S
C2928 C2929 1.366 . S
C2929 C2928 1.366 . S
C2929 C2930 1.414 . S
C2929 C2932 1.499 . S
C2930 H2910 0.950 . S
C2930 C2929 1.414 . S
C2930 C2931 1.374 . S
C2931 H2911 0.950 . S
C2931 C2927 1.385 . S
C2931 C2930 1.374 . S
C2932 C2929 1.499 . S
C2932 C2933 1.373 . S
C2932 C2934 1.389 . S
C2933 H2912 0.950 . S
C2933 C2932 1.373 . S
C2933 C2949 1.377 . S
C2934 C2932 1.389 . S
C2934 C2935 1.524 . S
C2934 C2948 1.377 . S
C2935 C2934 1.524 . S
C2935 C2936 1.397 . S
C2935 C2940 1.363 . S
C2936 H2913 0.950 . S
C2936 C2935 1.397 . S
C2936 C2937 1.334 . S
C2937 H2914 0.950 . S
C2937 C2936 1.334 . S
C2937 C2938 1.287 . S
C2938 C2937 1.287 . S
C2938 C2939 1.524 . S
C2938 H2957 0.913 . S
C2939 H2915 0.950 . S
C2939 C2938 1.524 . S
C2939 C2940 1.415 . S
C2940 H2916 0.950 . S
C2940 C2935 1.363 . S
C2940 C2939 1.415 . S
C2941 H2917 0.951 . S
C2941 C2942 1.366 . S
C2941 C2943 1.388 . S
C2942 C2941 1.366 . S
C2942 C2946 1.385 . S
C2943 H2918 0.951 . S
C2943 C2941 1.388 . S
C2943 C2944 1.366 . S
C2944 C2943 1.366 . S
C2944 C2945 1.414 . S
C2944 C2947 1.499 . S
C2945 H2919 0.950 . S
C2945 C2944 1.414 . S
C2945 C2946 1.374 . S
C2946 H2920 0.950 . S
C2946 C2942 1.385 . S
C2946 C2945 1.374 . S
C2947 C2944 1.499 . S
C2947 C2948 1.373 . S
C2947 C2949 1.389 . S
C2948 H2921 0.950 . S
C2948 C2934 1.377 . S
C2948 C2947 1.373 . S
C2949 C2933 1.377 . S
C2949 C2947 1.389 . S
C2949 C2950 1.524 . S
C2950 C2949 1.524 . S
C2950 C2951 1.397 . S
C2950 C2955 1.363 . S
C2951 H2922 0.950 . S
C2951 C2950 1.397 . S
C2951 C2952 1.334 . S
C2952 H2923 0.950 . S
C2952 C2951 1.334 . S
C2952 C2953 1.287 . S
C2953 C2952 1.287 . S
C2953 C2954 1.524 . S
C2953 H2956 0.999 1_545 S
C2954 H2924 0.950 . S
C2954 C2953 1.524 . S
C2954 C2955 1.415 . S
C2955 H2925 0.950 . S
C2955 C2950 1.363 . S
C2955 C2954 1.415 . S
H2956 C2953 0.999 1_565 S
H2957 C2938 0.913 . S
H2958 C2976 0.951 . S
H2959 C2978 0.951 . S
H2960 C2980 0.950 . S
H2961 C2981 0.950 . S
H2962 C2983 0.950 . S
H2963 C2986 0.950 . S
H2964 C2987 0.950 . S
H2965 C2989 0.950 . S
H2966 C2990 0.950 . S
H2967 C2991 0.951 . S
H2968 C2993 0.951 . S
H2969 C2995 0.950 . S
H2970 C2996 0.950 . S
H2971 C2998 0.950 . S
H2972 C3001 0.950 . S
H2973 C3002 0.950 . S
H2974 C3004 0.950 . S
H2975 C3005 0.950 . S
C2976 H2958 0.951 . S
C2976 C2977 1.366 . S
C2976 C2978 1.388 . S
C2977 C2976 1.366 . S
C2977 C2981 1.385 . S
C2978 H2959 0.951 . S
C2978 C2976 1.388 . S
C2978 C2979 1.366 . S
C2979 C2978 1.366 . S
C2979 C2980 1.414 . S
C2979 C2982 1.499 . S
C2980 H2960 0.950 . S
C2980 C2979 1.414 . S
C2980 C2981 1.374 . S
C2981 H2961 0.950 . S
C2981 C2977 1.385 . S
C2981 C2980 1.374 . S
C2982 C2979 1.499 . S
C2982 C2983 1.373 . S
C2982 C2984 1.389 . S
C2983 H2962 0.950 . S
C2983 C2982 1.373 . S
C2983 C2999 1.377 . S
C2984 C2982 1.389 . S
C2984 C2985 1.524 . S
C2984 C2998 1.377 . S
C2985 C2984 1.524 . S
C2985 C2986 1.397 . S
C2985 C2990 1.363 . S
C2986 H2963 0.950 . S
C2986 C2985 1.397 . S
C2986 C2987 1.334 . S
C2987 H2964 0.950 . S
C2987 C2986 1.334 . S
C2987 C2988 1.287 . S
C2988 C2987 1.287 . S
C2988 C2989 1.524 . S
C2988 H3007 0.913 . S
C2989 H2965 0.950 . S
C2989 C2988 1.524 . S
C2989 C2990 1.415 . S
C2990 H2966 0.950 . S
C2990 C2985 1.363 . S
C2990 C2989 1.415 . S
C2991 H2967 0.951 . S
C2991 C2992 1.366 . S
C2991 C2993 1.388 . S
C2992 C2991 1.366 . S
C2992 C2996 1.385 . S
C2993 H2968 0.951 . S
C2993 C2991 1.388 . S
C2993 C2994 1.366 . S
C2994 C2993 1.366 . S
C2994 C2995 1.414 . S
C2994 C2997 1.499 . S
C2995 H2969 0.950 . S
C2995 C2994 1.414 . S
C2995 C2996 1.374 . S
C2996 H2970 0.950 . S
C2996 C2992 1.385 . S
C2996 C2995 1.374 . S
C2997 C2994 1.499 . S
C2997 C2998 1.373 . S
C2997 C2999 1.389 . S
C2998 H2971 0.950 . S
C2998 C2984 1.377 . S
C2998 C2997 1.373 . S
C2999 C2983 1.377 . S
C2999 C2997 1.389 . S
C2999 C3000 1.524 . S
C3000 C2999 1.524 . S
C3000 C3001 1.397 . S
C3000 C3005 1.363 . S
C3001 H2972 0.950 . S
C3001 C3000 1.397 . S
C3001 C3002 1.334 . S
C3002 H2973 0.950 . S
C3002 C3001 1.334 . S
C3002 C3003 1.287 . S
C3003 C3002 1.287 . S
C3003 C3004 1.524 . S
C3003 H3006 0.999 . S
C3004 H2974 0.950 . S
C3004 C3003 1.524 . S
C3004 C3005 1.415 . S
C3005 H2975 0.950 . S
C3005 C3000 1.363 . S
C3005 C3004 1.415 . S
H3006 C3003 0.999 . S
H3007 C2988 0.913 . S
H3008 C3026 0.951 . S
H3009 C3028 0.951 . S
H3010 C3030 0.950 . S
H3011 C3031 0.950 . S
H3012 C3033 0.950 . S
H3013 C3036 0.950 . S
H3014 C3037 0.950 . S
H3015 C3039 0.950 . S
H3016 C3040 0.950 . S
H3017 C3041 0.951 . S
H3018 C3043 0.951 . S
H3019 C3045 0.950 . S
H3020 C3046 0.950 . S
H3021 C3048 0.950 . S
H3022 C3051 0.950 . S
H3023 C3052 0.950 . S
H3024 C3054 0.950 . S
H3025 C3055 0.950 . S
C3026 H3008 0.951 . S
C3026 C3027 1.366 . S
C3026 C3028 1.388 . S
C3027 C3026 1.366 . S
C3027 C3031 1.385 . S
C3028 H3009 0.951 . S
C3028 C3026 1.388 . S
C3028 C3029 1.366 . S
C3029 C3028 1.366 . S
C3029 C3030 1.414 . S
C3029 C3032 1.499 . S
C3030 H3010 0.950 . S
C3030 C3029 1.414 . S
C3030 C3031 1.374 . S
C3031 H3011 0.950 . S
C3031 C3027 1.385 . S
C3031 C3030 1.374 . S
C3032 C3029 1.499 . S
C3032 C3033 1.373 . S
C3032 C3034 1.389 . S
C3033 H3012 0.950 . S
C3033 C3032 1.373 . S
C3033 C3049 1.377 . S
C3034 C3032 1.389 . S
C3034 C3035 1.524 . S
C3034 C3048 1.377 . S
C3035 C3034 1.524 . S
C3035 C3036 1.397 . S
C3035 C3040 1.363 . S
C3036 H3013 0.950 . S
C3036 C3035 1.397 . S
C3036 C3037 1.334 . S
C3037 H3014 0.950 . S
C3037 C3036 1.334 . S
C3037 C3038 1.287 . S
C3038 C3037 1.287 . S
C3038 C3039 1.524 . S
C3038 H3057 0.913 . S
C3039 H3015 0.950 . S
C3039 C3038 1.524 . S
C3039 C3040 1.415 . S
C3040 H3016 0.950 . S
C3040 C3035 1.363 . S
C3040 C3039 1.415 . S
C3041 H3017 0.951 . S
C3041 C3042 1.366 . S
C3041 C3043 1.388 . S
C3042 C3041 1.366 . S
C3042 C3046 1.385 . S
C3043 H3018 0.951 . S
C3043 C3041 1.388 . S
C3043 C3044 1.366 . S
C3044 C3043 1.366 . S
C3044 C3045 1.414 . S
C3044 C3047 1.499 . S
C3045 H3019 0.950 . S
C3045 C3044 1.414 . S
C3045 C3046 1.374 . S
C3046 H3020 0.950 . S
C3046 C3042 1.385 . S
C3046 C3045 1.374 . S
C3047 C3044 1.499 . S
C3047 C3048 1.373 . S
C3047 C3049 1.389 . S
C3048 H3021 0.950 . S
C3048 C3034 1.377 . S
C3048 C3047 1.373 . S
C3049 C3033 1.377 . S
C3049 C3047 1.389 . S
C3049 C3050 1.524 . S
C3050 C3049 1.524 . S
C3050 C3051 1.397 . S
C3050 C3055 1.363 . S
C3051 H3022 0.950 . S
C3051 C3050 1.397 . S
C3051 C3052 1.334 . S
C3052 H3023 0.950 . S
C3052 C3051 1.334 . S
C3052 C3053 1.287 . S
C3053 C3052 1.287 . S
C3053 C3054 1.524 . S
C3053 H3056 0.999 . S
C3054 H3024 0.950 . S
C3054 C3053 1.524 . S
C3054 C3055 1.415 . S
C3055 H3025 0.950 . S
C3055 C3050 1.363 . S
C3055 C3054 1.415 . S
H3056 C3053 0.999 . S
H3057 C3038 0.913 . S
H3058 C3076 0.951 . S
H3059 C3078 0.951 . S
H3060 C3080 0.950 . S
H3061 C3081 0.950 . S
H3062 C3083 0.950 . S
H3063 C3086 0.950 . S
H3064 C3087 0.950 . S
H3065 C3089 0.950 . S
H3066 C3090 0.950 . S
H3067 C3091 0.951 . S
H3068 C3093 0.951 . S
H3069 C3095 0.950 . S
H3070 C3096 0.950 . S
H3071 C3098 0.950 . S
H3072 C3101 0.950 . S
H3073 C3102 0.950 . S
H3074 C3104 0.950 . S
H3075 C3105 0.950 . S
C3076 H3058 0.951 . S
C3076 C3077 1.366 . S
C3076 C3078 1.388 . S
C3077 C3076 1.366 . S
C3077 C3081 1.385 . S
C3078 H3059 0.951 . S
C3078 C3076 1.388 . S
C3078 C3079 1.366 . S
C3079 C3078 1.366 . S
C3079 C3080 1.414 . S
C3079 C3082 1.499 . S
C3080 H3060 0.950 . S
C3080 C3079 1.414 . S
C3080 C3081 1.374 . S
C3081 H3061 0.950 . S
C3081 C3077 1.385 . S
C3081 C3080 1.374 . S
C3082 C3079 1.499 . S
C3082 C3083 1.373 . S
C3082 C3084 1.389 . S
C3083 H3062 0.950 . S
C3083 C3082 1.373 . S
C3083 C3099 1.377 . S
C3084 C3082 1.389 . S
C3084 C3085 1.524 . S
C3084 C3098 1.377 . S
C3085 C3084 1.524 . S
C3085 C3086 1.397 . S
C3085 C3090 1.363 . S
C3086 H3063 0.950 . S
C3086 C3085 1.397 . S
C3086 C3087 1.334 . S
C3087 H3064 0.950 . S
C3087 C3086 1.334 . S
C3087 C3088 1.287 . S
C3088 C3087 1.287 . S
C3088 C3089 1.524 . S
C3088 H3107 0.913 . S
C3089 H3065 0.950 . S
C3089 C3088 1.524 . S
C3089 C3090 1.415 . S
C3090 H3066 0.950 . S
C3090 C3085 1.363 . S
C3090 C3089 1.415 . S
C3091 H3067 0.951 . S
C3091 C3092 1.366 . S
C3091 C3093 1.388 . S
C3092 C3091 1.366 . S
C3092 C3096 1.385 . S
C3093 H3068 0.951 . S
C3093 C3091 1.388 . S
C3093 C3094 1.366 . S
C3094 C3093 1.366 . S
C3094 C3095 1.414 . S
C3094 C3097 1.499 . S
C3095 H3069 0.950 . S
C3095 C3094 1.414 . S
C3095 C3096 1.374 . S
C3096 H3070 0.950 . S
C3096 C3092 1.385 . S
C3096 C3095 1.374 . S
C3097 C3094 1.499 . S
C3097 C3098 1.373 . S
C3097 C3099 1.389 . S
C3098 H3071 0.950 . S
C3098 C3084 1.377 . S
C3098 C3097 1.373 . S
C3099 C3083 1.377 . S
C3099 C3097 1.389 . S
C3099 C3100 1.524 . S
C3100 C3099 1.524 . S
C3100 C3101 1.397 . S
C3100 C3105 1.363 . S
C3101 H3072 0.950 . S
C3101 C3100 1.397 . S
C3101 C3102 1.334 . S
C3102 H3073 0.950 . S
C3102 C3101 1.334 . S
C3102 C3103 1.287 . S
C3103 C3102 1.287 . S
C3103 C3104 1.524 . S
C3103 H3106 0.999 . S
C3104 H3074 0.950 . S
C3104 C3103 1.524 . S
C3104 C3105 1.415 . S
C3105 H3075 0.950 . S
C3105 C3100 1.363 . S
C3105 C3104 1.415 . S
H3106 C3103 0.999 . S
H3107 C3088 0.913 . S
H3108 C3126 0.951 . S
H3109 C3128 0.951 . S
H3110 C3130 0.950 . S
H3111 C3131 0.950 . S
H3112 C3133 0.950 . S
H3113 C3136 0.950 . S
H3114 C3137 0.950 . S
H3115 C3139 0.950 . S
H3116 C3140 0.950 . S
H3117 C3141 0.951 . S
H3118 C3143 0.951 . S
H3119 C3145 0.950 . S
H3120 C3146 0.950 . S
H3121 C3148 0.950 . S
H3122 C3151 0.950 . S
H3123 C3152 0.950 . S
H3124 C3154 0.950 . S
H3125 C3155 0.950 . S
C3126 H3108 0.951 . S
C3126 C3127 1.366 . S
C3126 C3128 1.388 . S
C3127 C3126 1.366 . S
C3127 C3131 1.385 . S
C3128 H3109 0.951 . S
C3128 C3126 1.388 . S
C3128 C3129 1.366 . S
C3129 C3128 1.366 . S
C3129 C3130 1.414 . S
C3129 C3132 1.499 . S
C3130 H3110 0.950 . S
C3130 C3129 1.414 . S
C3130 C3131 1.374 . S
C3131 H3111 0.950 . S
C3131 C3127 1.385 . S
C3131 C3130 1.374 . S
C3132 C3129 1.499 . S
C3132 C3133 1.373 . S
C3132 C3134 1.389 . S
C3133 H3112 0.950 . S
C3133 C3132 1.373 . S
C3133 C3149 1.377 . S
C3134 C3132 1.389 . S
C3134 C3135 1.524 . S
C3134 C3148 1.377 . S
C3135 C3134 1.524 . S
C3135 C3136 1.397 . S
C3135 C3140 1.363 . S
C3136 H3113 0.950 . S
C3136 C3135 1.397 . S
C3136 C3137 1.334 . S
C3137 H3114 0.950 . S
C3137 C3136 1.334 . S
C3137 C3138 1.287 . S
C3138 C3137 1.287 . S
C3138 C3139 1.524 . S
C3138 H3157 0.913 . S
C3139 H3115 0.950 . S
C3139 C3138 1.524 . S
C3139 C3140 1.415 . S
C3140 H3116 0.950 . S
C3140 C3135 1.363 . S
C3140 C3139 1.415 . S
C3141 H3117 0.951 . S
C3141 C3142 1.366 . S
C3141 C3143 1.388 . S
C3142 C3141 1.366 . S
C3142 C3146 1.385 . S
C3143 H3118 0.951 . S
C3143 C3141 1.388 . S
C3143 C3144 1.366 . S
C3144 C3143 1.366 . S
C3144 C3145 1.414 . S
C3144 C3147 1.499 . S
C3145 H3119 0.950 . S
C3145 C3144 1.414 . S
C3145 C3146 1.374 . S
C3146 H3120 0.950 . S
C3146 C3142 1.385 . S
C3146 C3145 1.374 . S
C3147 C3144 1.499 . S
C3147 C3148 1.373 . S
C3147 C3149 1.389 . S
C3148 H3121 0.950 . S
C3148 C3134 1.377 . S
C3148 C3147 1.373 . S
C3149 C3133 1.377 . S
C3149 C3147 1.389 . S
C3149 C3150 1.524 . S
C3150 C3149 1.524 . S
C3150 C3151 1.397 . S
C3150 C3155 1.363 . S
C3151 H3122 0.950 . S
C3151 C3150 1.397 . S
C3151 C3152 1.334 . S
C3152 H3123 0.950 . S
C3152 C3151 1.334 . S
C3152 C3153 1.287 . S
C3153 C3152 1.287 . S
C3153 C3154 1.524 . S
C3153 H3156 0.999 . S
C3154 H3124 0.950 . S
C3154 C3153 1.524 . S
C3154 C3155 1.415 . S
C3155 H3125 0.950 . S
C3155 C3150 1.363 . S
C3155 C3154 1.415 . S
H3156 C3153 0.999 . S
H3157 C3138 0.913 . S
H3158 C3176 0.951 . S
H3159 C3178 0.951 . S
H3160 C3180 0.950 . S
H3161 C3181 0.950 . S
H3162 C3183 0.950 . S
H3163 C3186 0.950 . S
H3164 C3187 0.950 . S
H3165 C3189 0.950 . S
H3166 C3190 0.950 . S
H3167 C3191 0.951 . S
H3168 C3193 0.951 . S
H3169 C3195 0.950 . S
H3170 C3196 0.950 . S
H3171 C3198 0.950 . S
H3172 C3201 0.950 . S
H3173 C3202 0.950 . S
H3174 C3204 0.950 . S
H3175 C3205 0.950 . S
C3176 H3158 0.951 . S
C3176 C3177 1.366 . S
C3176 C3178 1.388 . S
C3177 C3176 1.366 . S
C3177 C3181 1.385 . S
C3178 H3159 0.951 . S
C3178 C3176 1.388 . S
C3178 C3179 1.366 . S
C3179 C3178 1.366 . S
C3179 C3180 1.414 . S
C3179 C3182 1.499 . S
C3180 H3160 0.950 . S
C3180 C3179 1.414 . S
C3180 C3181 1.374 . S
C3181 H3161 0.950 . S
C3181 C3177 1.385 . S
C3181 C3180 1.374 . S
C3182 C3179 1.499 . S
C3182 C3183 1.373 . S
C3182 C3184 1.389 . S
C3183 H3162 0.950 . S
C3183 C3182 1.373 . S
C3183 C3199 1.377 . S
C3184 C3182 1.389 . S
C3184 C3185 1.524 . S
C3184 C3198 1.377 . S
C3185 C3184 1.524 . S
C3185 C3186 1.397 . S
C3185 C3190 1.363 . S
C3186 H3163 0.950 . S
C3186 C3185 1.397 . S
C3186 C3187 1.334 . S
C3187 H3164 0.950 . S
C3187 C3186 1.334 . S
C3187 C3188 1.287 . S
C3188 C3187 1.287 . S
C3188 C3189 1.524 . S
C3188 H3207 0.913 . S
C3189 H3165 0.950 . S
C3189 C3188 1.524 . S
C3189 C3190 1.415 . S
C3190 H3166 0.950 . S
C3190 C3185 1.363 . S
C3190 C3189 1.415 . S
C3191 H3167 0.951 . S
C3191 C3192 1.366 . S
C3191 C3193 1.388 . S
C3192 C3191 1.366 . S
C3192 C3196 1.385 . S
C3193 H3168 0.951 . S
C3193 C3191 1.388 . S
C3193 C3194 1.366 . S
C3194 C3193 1.366 . S
C3194 C3195 1.414 . S
C3194 C3197 1.499 . S
C3195 H3169 0.950 . S
C3195 C3194 1.414 . S
C3195 C3196 1.374 . S
C3196 H3170 0.950 . S
C3196 C3192 1.385 . S
C3196 C3195 1.374 . S
C3197 C3194 1.499 . S
C3197 C3198 1.373 . S
C3197 C3199 1.389 . S
C3198 H3171 0.950 . S
C3198 C3184 1.377 . S
C3198 C3197 1.373 . S
C3199 C3183 1.377 . S
C3199 C3197 1.389 . S
C3199 C3200 1.524 . S
C3200 C3199 1.524 . S
C3200 C3201 1.397 . S
C3200 C3205 1.363 . S
C3201 H3172 0.950 . S
C3201 C3200 1.397 . S
C3201 C3202 1.334 . S
C3202 H3173 0.950 . S
C3202 C3201 1.334 . S
C3202 C3203 1.287 . S
C3203 C3202 1.287 . S
C3203 C3204 1.524 . S
C3203 H3206 0.999 . S
C3204 H3174 0.950 . S
C3204 C3203 1.524 . S
C3204 C3205 1.415 . S
C3205 H3175 0.950 . S
C3205 C3200 1.363 . S
C3205 C3204 1.415 . S
H3206 C3203 0.999 . S
H3207 C3188 0.913 . S
H3208 C3226 0.951 . S
H3209 C3228 0.951 . S
H3210 C3230 0.950 . S
H3211 C3231 0.950 . S
H3212 C3233 0.950 . S
H3213 C3236 0.950 . S
H3214 C3237 0.950 . S
H3215 C3239 0.950 . S
H3216 C3240 0.950 . S
H3217 C3241 0.951 . S
H3218 C3243 0.951 . S
H3219 C3245 0.950 . S
H3220 C3246 0.950 . S
H3221 C3248 0.950 . S
H3222 C3251 0.950 . S
H3223 C3252 0.950 . S
H3224 C3254 0.950 . S
H3225 C3255 0.950 . S
C3226 H3208 0.951 . S
C3226 C3227 1.366 . S
C3226 C3228 1.388 . S
C3227 C3226 1.366 . S
C3227 C3231 1.385 . S
C3228 H3209 0.951 . S
C3228 C3226 1.388 . S
C3228 C3229 1.366 . S
C3229 C3228 1.366 . S
C3229 C3230 1.414 . S
C3229 C3232 1.499 . S
C3230 H3210 0.950 . S
C3230 C3229 1.414 . S
C3230 C3231 1.374 . S
C3231 H3211 0.950 . S
C3231 C3227 1.385 . S
C3231 C3230 1.374 . S
C3232 C3229 1.499 . S
C3232 C3233 1.373 . S
C3232 C3234 1.389 . S
C3233 H3212 0.950 . S
C3233 C3232 1.373 . S
C3233 C3249 1.377 . S
C3234 C3232 1.389 . S
C3234 C3235 1.524 . S
C3234 C3248 1.377 . S
C3235 C3234 1.524 . S
C3235 C3236 1.397 . S
C3235 C3240 1.363 . S
C3236 H3213 0.950 . S
C3236 C3235 1.397 . S
C3236 C3237 1.334 . S
C3237 H3214 0.950 . S
C3237 C3236 1.334 . S
C3237 C3238 1.287 . S
C3238 C3237 1.287 . S
C3238 C3239 1.524 . S
C3238 H3257 0.913 . S
C3239 H3215 0.950 . S
C3239 C3238 1.524 . S
C3239 C3240 1.415 . S
C3240 H3216 0.950 . S
C3240 C3235 1.363 . S
C3240 C3239 1.415 . S
C3241 H3217 0.951 . S
C3241 C3242 1.366 . S
C3241 C3243 1.388 . S
C3242 C3241 1.366 . S
C3242 C3246 1.385 . S
C3243 H3218 0.951 . S
C3243 C3241 1.388 . S
C3243 C3244 1.366 . S
C3244 C3243 1.366 . S
C3244 C3245 1.414 . S
C3244 C3247 1.499 . S
C3245 H3219 0.950 . S
C3245 C3244 1.414 . S
C3245 C3246 1.374 . S
C3246 H3220 0.950 . S
C3246 C3242 1.385 . S
C3246 C3245 1.374 . S
C3247 C3244 1.499 . S
C3247 C3248 1.373 . S
C3247 C3249 1.389 . S
C3248 H3221 0.950 . S
C3248 C3234 1.377 . S
C3248 C3247 1.373 . S
C3249 C3233 1.377 . S
C3249 C3247 1.389 . S
C3249 C3250 1.524 . S
C3250 C3249 1.524 . S
C3250 C3251 1.397 . S
C3250 C3255 1.363 . S
C3251 H3222 0.950 . S
C3251 C3250 1.397 . S
C3251 C3252 1.334 . S
C3252 H3223 0.950 . S
C3252 C3251 1.334 . S
C3252 C3253 1.287 . S
C3253 C3252 1.287 . S
C3253 C3254 1.524 . S
C3253 H3256 0.999 . S
C3254 H3224 0.950 . S
C3254 C3253 1.524 . S
C3254 C3255 1.415 . S
C3255 H3225 0.950 . S
C3255 C3250 1.363 . S
C3255 C3254 1.415 . S
H3256 C3253 0.999 . S
H3257 C3238 0.913 . S
C892 C683 1.393 . S
C877 C75 1.331 . S
C942 C673 0.780 . S
C927 C156 0.769 . S
C992 C674 0.920 . S
C977 C243 0.895 . S
C1027 C315 0.805 . S
C1042 C696 0.835 . S
C1077 C399 0.724 . S
C1092 C699 0.427 . S
C1142 C682 0.941 . S
C1127 C495 0.907 . S
C1177 C576 1.331 . S
C1192 C672 1.435 . S
C1227 C654 1.331 . S
C1242 C690 1.368 . S
C1292 C703 1.093 . S
C1277 C72 1.035 . S
C1327 C140 1.240 . S
C1342 C752 1.240 . S
C1392 C730 1.123 . S
C1377 C240 1.090 . S
C1442 C744 0.458 . S
C1427 C318 0.494 . S
C1477 C402 0.453 . S
C1492 C705 0.461 . S
C1542 C758 1.752 1_556 S
C1527 C492 1.679 . S
C1577 C560 1.241 . S
C1592 C714 1.254 . S
C1627 C655 2.891 . S
C1642 C735 2.990 1_556 S
C1677 C56 3.101 . S
C1692 C761 3.179 . S
C1727 C403 1.642 . S
C1742 C745 1.629 1_556 S
C1792 C704 2.403 . S
C1777 C476 2.300 . S
C1842 C736 1.312 1_556 S
C1827 C579 1.301 . S
C1877 C651 1.247 . S
C1892 C727 1.295 . S
C1927 C224 3.128 . S
C1942 C734 3.228 . S
C1992 C721 1.605 . S
C1977 C319 1.565 . S
C2027 C159 1.348 . S
C2042 C713 1.367 . S
C2077 C663 1.331 . S
C2092 C776 1.369 . S
C2127 C408 0.724 . S
C2142 C766 0.425 . S
C2192 C767 0.940 . S
C2177 C486 0.908 . S
C2242 C789 1.435 . S
C2227 C567 1.331 . S
C2277 C147 0.770 . S
C2292 C792 0.779 . S
C2342 C775 0.921 . S
C2327 C234 0.895 . S
C2377 C324 0.805 . S
C2392 C765 0.834 . S
C2427 C66 1.331 . S
C2442 C783 1.393 . S
C2477 C660 1.247 . S
C2492 C796 1.295 . S
C2542 C845 1.628 . S
C2527 C392 1.642 . S
C2577 C487 2.300 . S
C2592 C823 2.403 . S
C2627 C570 1.301 . S
C2642 C837 1.311 . S
C2692 C798 1.368 . S
C2677 C150 1.348 . S
C2727 C235 3.128 . S
C2742 C851 3.228 . S
C2792 C807 1.605 . S
C2777 C308 1.565 . S
C2842 C828 3.180 . S
C2827 C67 3.101 . S
C2892 C854 2.990 . S
C2877 C644 2.891 . S
C2927 C151 1.240 . S
C2942 C838 1.240 . S
C2977 C231 1.088 . S
C2992 C797 1.123 . S
C3042 C829 0.459 . S
C3027 C327 0.494 . S
C3077 C63 1.034 . S
C3092 C820 1.092 . S
C3127 C483 1.678 . S
C3142 C827 1.752 . S
C3192 C814 1.255 . S
C3177 C571 1.241 . S
C3242 C806 0.460 . S
C3227 C411 0.452 . S
